ZINC100024116
     RDKit          3D

 18 18  0  0  0  0  0  0  0  0999 V2000
  131.8050  132.3930   56.4090 Cl  0  0  0  0  0  0  0  0  0  0  0  0
  130.5900  131.1910   56.9500 C   0  0  1  0  0  0  0  0  0  0  0  0
  131.2840  130.0480   57.7470 C   0  0  2  0  0  0  0  0  0  0  0  0
  130.1650  128.6550   57.8360 Cl  0  0  0  0  0  0  0  0  0  0  0  0
  131.7010  130.4420   59.1940 C   0  0  1  0  0  0  0  0  0  0  0  0
  133.1650  131.4760   59.1550 Cl  0  0  0  0  0  0  0  0  0  0  0  0
  130.5470  131.1410   59.9630 C   0  0  1  0  0  0  0  0  0  0  0  0
  131.1030  131.6540   61.5870 Cl  0  0  0  0  0  0  0  0  0  0  0  0
  129.9260  132.3270   59.1800 C   0  0  2  0  0  0  0  0  0  0  0  0
  128.5170  132.9570   60.0880 Cl  0  0  0  0  0  0  0  0  0  0  0  0
  129.4620  131.8730   57.7720 C   0  0  1  0  0  0  0  0  0  0  0  0
  128.7570  133.2360   56.8490 Cl  0  0  0  0  0  0  0  0  0  0  0  0
  130.1145  130.7420   56.0655 H   0  0  0  0  0  0  0  0  0  0  0  0
  132.2117  129.8070   57.2073 H   0  0  0  0  0  0  0  0  0  0  0  0
  131.9337  129.5159   59.7400 H   0  0  0  0  0  0  0  0  0  0  0  0
  129.7420  130.4002   60.0783 H   0  0  0  0  0  0  0  0  0  0  0  0
  130.6883  133.1116   59.0646 H   0  0  0  0  0  0  0  0  0  0  0  0
  128.6831  131.1147   57.9403 H   0  0  0  0  0  0  0  0  0  0  0  0
  1  2  1  0
  2  3  1  0
  3  4  1  0
  3  5  1  0
  5  6  1  0
  5  7  1  0
  7  8  1  0
  7  9  1  0
  9 10  1  0
  9 11  1  0
 11 12  1  0
 11  2  1  0
  2 13  1  6
  3 14  1  6
  5 15  1  1
  7 16  1  1
  9 17  1  6
 11 18  1  1
M  END
>  <Binding energies>  (1) 
[-5.0]

>  <Ligand effiencies>  (1) 
[-0.4166666666666667]

>  <Interactions>  (1) 
["V-A:LEU:363:CD1:3189, V-A:LEU:363:CB:3187, V-A:PRO:540:N:4884, V-A:PRO:540:CB:4885, V-A:LEU:363:CA:3185, V-A:PRO:540:CA:4883, V-A:TYR:539:CD1:4873, V-A:TYR:539:CZ:4877, V-A:TYR:539:CG:4872, V-A:ILE:538:CB:4862, V-A:TYR:539:CD2:4874, V-A:TYR:539:CA:4869, V-A:MET:535:CE:4835, V-A:TYR:539:C:4867, V-A:TYR:539:CE1:4875, V-A:ILE:538:CG2:4863"]

$$$$
ZINC100043079
     RDKit          3D

 27 27  0  0  0  0  0  0  0  0999 V2000
  131.7860  125.4970   66.9890 F   0  0  0  0  0  0  0  0  0  0  0  0
  130.5740  125.1630   66.5430 C   0  0  0  0  0  0  0  0  0  0  0  0
  130.0300  124.3530   67.4530 F   0  0  0  0  0  0  0  0  0  0  0  0
  129.8470  126.2810   66.5290 F   0  0  0  0  0  0  0  0  0  0  0  0
  130.6300  124.4840   65.1490 C   0  0  0  0  0  0  0  0  0  0  0  0
  130.6280  123.1600   65.3280 F   0  0  0  0  0  0  0  0  0  0  0  0
  129.5020  124.7790   64.4950 F   0  0  0  0  0  0  0  0  0  0  0  0
  131.8670  124.8970   64.2820 C   0  0  0  0  0  0  0  0  0  0  0  0
  131.8190  126.2230   64.1210 F   0  0  0  0  0  0  0  0  0  0  0  0
  132.9610  124.6820   65.0170 F   0  0  0  0  0  0  0  0  0  0  0  0
  131.9650  124.1530   62.8780 C   0  0  0  0  0  0  0  0  0  0  0  0
  130.9370  123.3050   62.7530 F   0  0  0  0  0  0  0  0  0  0  0  0
  133.2530  123.2640   62.7260 C   0  0  0  0  0  0  0  0  0  0  0  0
  134.3330  124.0410   62.8530 F   0  0  0  0  0  0  0  0  0  0  0  0
  133.3100  122.3640   63.7110 F   0  0  0  0  0  0  0  0  0  0  0  0
  133.3390  122.5290   61.3550 C   0  0  0  0  0  0  0  0  0  0  0  0
  134.4840  121.8460   61.2710 F   0  0  0  0  0  0  0  0  0  0  0  0
  132.3460  121.6380   61.2720 F   0  0  0  0  0  0  0  0  0  0  0  0
  133.2260  123.5200   60.1650 C   0  0  0  0  0  0  0  0  0  0  0  0
  134.2910  124.3250   60.1690 F   0  0  0  0  0  0  0  0  0  0  0  0
  133.2390  122.8550   59.0070 F   0  0  0  0  0  0  0  0  0  0  0  0
  131.9400  124.3850   60.2720 C   0  0  0  0  0  0  0  0  0  0  0  0
  131.9050  125.2720   59.2740 F   0  0  0  0  0  0  0  0  0  0  0  0
  130.8720  123.5950   60.1320 F   0  0  0  0  0  0  0  0  0  0  0  0
  131.8560  125.1200   61.6430 C   0  0  0  0  0  0  0  0  0  0  0  0
  130.7150  125.8120   61.7010 F   0  0  0  0  0  0  0  0  0  0  0  0
  132.8490  126.0120   61.7040 F   0  0  0  0  0  0  0  0  0  0  0  0
  1  2  1  0
  2  3  1  0
  2  4  1  0
  2  5  1  0
  5  6  1  0
  5  7  1  0
  5  8  1  0
  8  9  1  0
  8 10  1  0
  8 11  1  0
 11 12  1  0
 11 13  1  0
 13 14  1  0
 13 15  1  0
 13 16  1  0
 16 17  1  0
 16 18  1  0
 16 19  1  0
 19 20  1  0
 19 21  1  0
 19 22  1  0
 22 23  1  0
 22 24  1  0
 22 25  1  0
 25 26  1  0
 25 27  1  0
 25 11  1  0
M  END
>  <Binding energies>  (1) 
[-1.92]

>  <Ligand effiencies>  (1) 
[-0.07111111111111111]

>  <Interactions>  (1) 
["V-A:ILE:369:CG2:3237, V-A:ASP:366:CA:3210, V-A:GLY:454:CA:4049, V-A:ILE:369:CB:3236, V-B:GLU:543:CB:9878, V-B:TYR:539:CE2:9848, V-A:TYR:484:CE2:4346, V-B:GLU:543:CG:9879, V-A:ASP:366:CG:3213, V-B:TYR:539:CZ:9849, V-A:TYR:484:CZ:4347, V-A:GLU:543:CD:4908, V-B:GLU:543:CA:9876, V-A:SER:385:C:3405, V-A:GLY:453:C:4042, V-A:TYR:484:CD2:4344, V-A:HIS:456:CE1:4070, V-A:ILE:369:CD1:3239, V-B:TYR:539:CD2:9846, V-B:GLU:543:CD:9880, V-A:ILE:369:CG1:3238, V-A:ASP:366:CB:3212, V-A:LEU:475:CD2:4259, V-A:ARG:545:CZ:4926, V-A:GLY:453:CA:4044, V-A:SER:385:CA:3407"]

$$$$
ZINC100046143
     RDKit          3D

 42 41  0  0  0  0  0  0  0  0999 V2000
  127.8360  126.7120   71.7740 C   0  0  0  0  0  0  0  0  0  0  0  0
  128.4670  127.7000   72.4380 C   0  0  0  0  0  0  0  0  0  0  0  0
  129.7800  128.2350   72.0810 C   0  0  0  0  0  0  0  0  0  0  0  0
  130.2450  129.2250   72.6500 O   0  0  0  0  0  0  0  0  0  0  0  0
  130.4170  127.5510   71.0900 O   0  0  0  0  0  0  0  0  0  0  0  0
  130.5580  128.0890   69.7780 C   0  0  0  0  0  0  0  0  0  0  0  0
  129.2260  128.0730   69.0040 C   0  0  0  0  0  0  0  0  0  0  0  0
  129.0090  126.7600   68.2330 C   0  0  0  0  0  0  0  0  0  0  0  0
  130.3070  126.1930   67.6310 C   0  0  0  0  0  0  0  0  0  0  0  0
  130.0510  125.0560   66.6210 C   0  0  0  0  0  0  0  0  0  0  0  0
  130.9460  125.1150   65.3570 C   0  0  0  0  0  0  0  0  0  0  0  0
  130.5710  126.1540   64.6080 F   0  0  0  0  0  0  0  0  0  0  0  0
  132.2060  125.3540   65.7270 F   0  0  0  0  0  0  0  0  0  0  0  0
  130.8680  123.7960   64.5280 C   0  0  0  0  0  0  0  0  0  0  0  0
  130.6010  122.7830   65.3570 F   0  0  0  0  0  0  0  0  0  0  0  0
  129.8220  123.8700   63.7000 F   0  0  0  0  0  0  0  0  0  0  0  0
  132.1650  123.4820   63.7120 C   0  0  0  0  0  0  0  0  0  0  0  0
  132.9570  124.5570   63.7140 F   0  0  0  0  0  0  0  0  0  0  0  0
  132.8560  122.5230   64.3330 F   0  0  0  0  0  0  0  0  0  0  0  0
  131.8900  123.0460   62.2340 C   0  0  0  0  0  0  0  0  0  0  0  0
  131.1460  121.9370   62.2300 F   0  0  0  0  0  0  0  0  0  0  0  0
  131.1510  123.9770   61.6260 F   0  0  0  0  0  0  0  0  0  0  0  0
  133.1860  122.7970   61.3980 C   0  0  0  0  0  0  0  0  0  0  0  0
  133.9800  121.9290   62.0300 F   0  0  0  0  0  0  0  0  0  0  0  0
  132.8770  122.2300   60.2290 F   0  0  0  0  0  0  0  0  0  0  0  0
  134.0010  124.0860   61.1150 C   0  0  0  0  0  0  0  0  0  0  0  0
  134.9450  124.2750   62.0390 F   0  0  0  0  0  0  0  0  0  0  0  0
  134.6140  124.0420   59.9310 F   0  0  0  0  0  0  0  0  0  0  0  0
  133.2300  125.1740   61.1100 F   0  0  0  0  0  0  0  0  0  0  0  0
  126.8468  126.3678   72.1102 H   0  0  0  0  0  0  0  0  0  0  0  0
  128.3100  126.2496   70.8957 H   0  0  0  0  0  0  0  0  0  0  0  0
  127.9581  128.1351   73.3108 H   0  0  0  0  0  0  0  0  0  0  0  0
  130.9116  129.1277   69.8557 H   0  0  0  0  0  0  0  0  0  0  0  0
  131.2785  127.4647   69.2293 H   0  0  0  0  0  0  0  0  0  0  0  0
  128.4006  128.2026   69.7195 H   0  0  0  0  0  0  0  0  0  0  0  0
  129.2563  128.8911   68.2693 H   0  0  0  0  0  0  0  0  0  0  0  0
  128.5879  126.0141   68.9231 H   0  0  0  0  0  0  0  0  0  0  0  0
  128.3275  126.9784   67.3976 H   0  0  0  0  0  0  0  0  0  0  0  0
  130.8404  127.0061   67.1169 H   0  0  0  0  0  0  0  0  0  0  0  0
  130.8999  125.7743   68.4575 H   0  0  0  0  0  0  0  0  0  0  0  0
  130.2329  124.0969   67.1280 H   0  0  0  0  0  0  0  0  0  0  0  0
  129.0118  125.1664   66.2777 H   0  0  0  0  0  0  0  0  0  0  0  0
  1  2  2  0
  2  3  1  0
  3  4  2  0
  3  5  1  0
  5  6  1  0
  6  7  1  0
  7  8  1  0
  8  9  1  0
  9 10  1  0
 10 11  1  0
 11 12  1  0
 11 13  1  0
 11 14  1  0
 14 15  1  0
 14 16  1  0
 14 17  1  0
 17 18  1  0
 17 19  1  0
 17 20  1  0
 20 21  1  0
 20 22  1  0
 20 23  1  0
 23 24  1  0
 23 25  1  0
 23 26  1  0
 26 27  1  0
 26 28  1  0
 26 29  1  0
  1 30  1  0
  1 31  1  0
  2 32  1  0
  6 33  1  0
  6 34  1  0
  7 35  1  0
  7 36  1  0
  8 37  1  0
  8 38  1  0
  9 39  1  0
  9 40  1  0
 10 41  1  0
 10 42  1  0
M  END
>  <Binding energies>  (1) 
[-2.73]

>  <Ligand effiencies>  (1) 
[-0.09413793103448276]

>  <Interactions>  (1) 
["V-A:ILE:369:CG2:3237, V-A:ASP:366:CA:3210, V-A:GLY:454:CA:4049, V-B:HIS:456:CD2:9039, V-A:ILE:369:CB:3236, V-A:GLU:543:C:4902, V-B:GLU:543:CB:9878, V-B:TYR:539:CE2:9848, V-A:TYR:484:CE2:4346, V-B:GLU:543:CG:9879, V-A:ASP:366:CG:3213, V-A:GLU:543:CD:4908, V-A:TYR:484:CZ:4347, V-B:HIS:456:CE1:9041, V-A:GLY:453:C:4042, V-A:HIS:456:CE1:4070, V-A:ILE:369:CD1:3239, V-B:GLY:544:C:9884, V-B:GLY:544:CA:9886, V-B:TYR:539:CD2:9846, V-A:ILE:369:CG1:3238, V-A:ASP:366:CB:3212, H-A:LYS:547:NZ:4951, V-A:LEU:475:CD2:4259, V-A:ARG:545:CZ:4926, V-A:GLU:543:CB:4906, V-A:GLY:453:CA:4044"]

$$$$
ZINC100050078
     RDKit          3D

 72 74  0  0  0  0  0  0  0  0999 V2000
  128.1550  126.5910   71.7570 C   0  0  0  0  0  0  0  0  0  0  0  0
  128.8570  127.9420   71.5940 C   0  0  0  0  0  0  0  0  0  0  0  0
  130.2520  127.7310   71.4220 O   0  0  0  0  0  0  0  0  0  0  0  0
  130.8080  127.7640   70.1880 C   0  0  0  0  0  0  0  0  0  0  0  0
  132.0150  127.7820   69.9430 O   0  0  0  0  0  0  0  0  0  0  0  0
  129.7820  127.7730   69.0510 C   0  0  0  0  0  0  0  0  0  0  0  0
  129.4620  126.4460   68.6350 O   0  0  0  0  0  0  0  0  0  0  0  0
  129.6110  126.1020   67.3040 C   0  0  0  0  0  0  0  0  0  0  0  0
  130.2810  124.9470   66.8700 C   0  0  0  0  0  0  0  0  0  0  0  0
  130.3880  124.6560   65.5140 C   0  0  0  0  0  0  0  0  0  0  0  0
  129.8280  125.5040   64.5530 C   0  0  0  0  0  0  0  0  0  0  0  0
  129.9260  125.1900   63.0380 C   0  0  0  0  0  0  0  0  0  0  0  0
  128.4840  125.0660   62.3750 C   0  0  0  0  0  0  0  0  0  0  0  0
  128.3050  125.8930   61.0650 C   0  0  0  0  0  0  0  0  0  0  0  0
  128.9840  126.8810   60.7930 O   0  0  0  0  0  0  0  0  0  0  0  0
  127.2010  125.4310   60.1020 C   0  0  0  0  0  0  0  0  0  0  0  0
  127.1180  123.8940   59.9190 C   0  0  0  0  0  0  0  0  0  0  0  0
  125.8700  123.5980   59.0610 C   0  0  0  0  0  0  0  0  0  0  0  0
  128.4150  123.3400   59.2670 C   0  0  0  0  0  0  0  0  0  0  0  0
  126.8860  123.2550   61.3120 C   0  0  0  0  0  0  0  0  0  0  0  0
  127.9600  123.5990   62.3560 C   0  0  0  0  0  0  0  0  0  0  0  0
  128.3540  122.7380   63.1420 O   0  0  0  0  0  0  0  0  0  0  0  0
  130.9430  124.0220   62.6940 C   0  0  0  0  0  0  0  0  0  0  0  0
  131.1460  123.7560   61.1840 C   0  0  0  0  0  0  0  0  0  0  0  0
  130.7110  124.4660   60.2770 O   0  0  0  0  0  0  0  0  0  0  0  0
  131.9950  122.5040   60.9070 C   0  0  0  0  0  0  0  0  0  0  0  0
  133.3810  122.5350   61.6310 C   0  0  0  0  0  0  0  0  0  0  0  0
  133.9610  121.1070   61.5740 C   0  0  0  0  0  0  0  0  0  0  0  0
  134.3010  123.5720   60.9360 C   0  0  0  0  0  0  0  0  0  0  0  0
  133.2220  122.9140   63.1400 C   0  0  0  0  0  0  0  0  0  0  0  0
  132.3340  124.1500   63.3630 C   0  0  0  0  0  0  0  0  0  0  0  0
  132.7170  125.1260   64.0040 O   0  0  0  0  0  0  0  0  0  0  0  0
  129.1790  126.6650   64.9870 C   0  0  0  0  0  0  0  0  0  0  0  0
  129.0560  126.9700   66.3540 C   0  0  0  0  0  0  0  0  0  0  0  0
  128.4100  128.0970   66.8330 O   0  0  0  0  0  0  0  0  0  0  0  0
  127.9080  129.0620   65.9150 C   0  0  0  0  0  0  0  0  0  0  0  0
  128.0378  126.3655   72.8272 H   0  0  0  0  0  0  0  0  0  0  0  0
  127.1645  126.6326   71.2804 H   0  0  0  0  0  0  0  0  0  0  0  0
  128.7584  125.8044   71.2804 H   0  0  0  0  0  0  0  0  0  0  0  0
  128.4529  128.4617   70.7127 H   0  0  0  0  0  0  0  0  0  0  0  0
  128.6859  128.5557   72.4907 H   0  0  0  0  0  0  0  0  0  0  0  0
  128.8650  128.2710   69.3990 H   0  0  0  0  0  0  0  0  0  0  0  0
  130.2148  128.3118   68.1952 H   0  0  0  0  0  0  0  0  0  0  0  0
  130.7258  124.2653   67.6098 H   0  0  0  0  0  0  0  0  0  0  0  0
  130.9195  123.7478   65.1936 H   0  0  0  0  0  0  0  0  0  0  0  0
  130.3918  126.0586   62.5495 H   0  0  0  0  0  0  0  0  0  0  0  0
  127.7821  125.5808   63.0476 H   0  0  0  0  0  0  0  0  0  0  0  0
  126.2345  125.7846   60.4904 H   0  0  0  0  0  0  0  0  0  0  0  0
  127.4451  125.8534   59.1161 H   0  0  0  0  0  0  0  0  0  0  0  0
  125.0124  123.3946   59.7191 H   0  0  0  0  0  0  0  0  0  0  0  0
  125.6467  124.4681   58.4261 H   0  0  0  0  0  0  0  0  0  0  0  0
  126.0613  122.7203   58.4261 H   0  0  0  0  0  0  0  0  0  0  0  0
  129.1213  123.0383   60.0545 H   0  0  0  0  0  0  0  0  0  0  0  0
  128.1682  122.4688   58.6425 H   0  0  0  0  0  0  0  0  0  0  0  0
  128.8738  124.1207   58.6425 H   0  0  0  0  0  0  0  0  0  0  0  0
  125.9137  123.6018   61.6918 H   0  0  0  0  0  0  0  0  0  0  0  0
  126.9266  122.1653   61.1678 H   0  0  0  0  0  0  0  0  0  0  0  0
  130.4237  123.1569   63.1320 H   0  0  0  0  0  0  0  0  0  0  0  0
  131.4389  121.6197   61.2516 H   0  0  0  0  0  0  0  0  0  0  0  0
  132.1890  122.4700   59.8248 H   0  0  0  0  0  0  0  0  0  0  0  0
  134.1133  120.7320   62.5968 H   0  0  0  0  0  0  0  0  0  0  0  0
  133.2595  120.4473   61.0423 H   0  0  0  0  0  0  0  0  0  0  0  0
  134.9238  121.1232   61.0423 H   0  0  0  0  0  0  0  0  0  0  0  0
  134.8270  124.1649   61.6988 H   0  0  0  0  0  0  0  0  0  0  0  0
  135.0362  123.0473   60.3081 H   0  0  0  0  0  0  0  0  0  0  0  0
  133.6924  124.2394   60.3081 H   0  0  0  0  0  0  0  0  0  0  0  0
  132.7732  122.0607   63.6696 H   0  0  0  0  0  0  0  0  0  0  0  0
  134.2238  123.1572   63.5237 H   0  0  0  0  0  0  0  0  0  0  0  0
  128.7555  127.3547   64.2420 H   0  0  0  0  0  0  0  0  0  0  0  0
  127.4700  129.9040   66.4711 H   0  0  0  0  0  0  0  0  0  0  0  0
  128.7298  129.4284   65.2822 H   0  0  0  0  0  0  0  0  0  0  0  0
  127.1362  128.5994   65.2822 H   0  0  0  0  0  0  0  0  0  0  0  0
  1  2  1  0
  2  3  1  0
  3  4  1  0
  4  5  2  0
  4  6  1  0
  6  7  1  0
  7  8  1  0
  8  9  2  0
  9 10  1  0
 10 11  2  0
 11 12  1  0
 12 13  1  0
 13 14  1  0
 14 15  2  0
 14 16  1  0
 16 17  1  0
 17 18  1  0
 17 19  1  0
 17 20  1  0
 20 21  1  0
 21 22  2  0
 12 23  1  0
 23 24  1  0
 24 25  2  0
 24 26  1  0
 26 27  1  0
 27 28  1  0
 27 29  1  0
 27 30  1  0
 30 31  1  0
 31 32  2  0
 11 33  1  0
 33 34  2  0
 34 35  1  0
 35 36  1  0
 34  8  1  0
 21 13  1  0
 31 23  1  0
  1 37  1  0
  1 38  1  0
  1 39  1  0
  2 40  1  0
  2 41  1  0
  6 42  1  0
  6 43  1  0
  9 44  1  0
 10 45  1  0
 12 46  1  0
 13 47  1  0
 16 48  1  0
 16 49  1  0
 18 50  1  0
 18 51  1  0
 18 52  1  0
 19 53  1  0
 19 54  1  0
 19 55  1  0
 20 56  1  0
 20 57  1  0
 23 58  1  0
 26 59  1  0
 26 60  1  0
 28 61  1  0
 28 62  1  0
 28 63  1  0
 29 64  1  0
 29 65  1  0
 29 66  1  0
 30 67  1  0
 30 68  1  0
 33 69  1  0
 36 70  1  0
 36 71  1  0
 36 72  1  0
M  END
>  <Binding energies>  (1) 
[-7.25]

>  <Ligand effiencies>  (1) 
[-0.2013888888888889]

>  <Interactions>  (1) 
["V-A:ILE:369:CG2:3237, V-B:PRO:540:CA:9855, V-A:GLY:454:CA:4049, V-B:HIS:456:CD2:9039, V-A:ILE:369:CB:3236, V-A:GLU:543:C:4902, V-B:GLU:543:CB:9878, V-B:TYR:539:CE2:9848, V-A:TYR:484:CE2:4346, V-B:GLU:543:CG:9879, V-A:GLY:544:C:4912, H-A:ARG:545:N:4920, H-B:ALA:541:N:9863, V-A:TYR:484:CZ:4347, V-A:GLU:543:CD:4908, V-B:PRO:540:CB:9857, V-B:HIS:456:CE1:9041, V-A:SER:385:C:3405, V-A:HIS:456:CE1:4070, V-A:ILE:369:CD1:3239, V-B:GLY:544:C:9884, V-B:TYR:539:CD2:9846, V-A:GLU:543:CG:4907, V-A:SER:385:CB:3409, V-B:GLU:543:CD:9880, V-A:LEU:475:CD2:4259, H-A:ARG:545:NH2:4928, V-A:GLU:543:CB:4906, V-A:SER:385:CA:3407, V-B:PRO:540:C:9853, H-A:HIS:456:ND1:4067"]

$$$$
ZINC100050142
     RDKit          3D

 55 56  0  0  0  0  0  0  0  0999 V2000
  127.4660  128.2260   62.5430 C   0  0  0  0  0  0  0  0  0  0  0  0
  128.0440  128.4940   61.2700 O   0  0  0  0  0  0  0  0  0  0  0  0
  129.0220  127.6580   60.7570 C   0  0  0  0  0  0  0  0  0  0  0  0
  128.9590  126.2600   60.8650 C   0  0  0  0  0  0  0  0  0  0  0  0
  129.9740  125.4070   60.3830 C   0  0  0  0  0  0  0  0  0  0  0  0
  129.9290  123.9960   60.4930 N   0  0  0  0  0  0  0  0  0  0  0  0
  130.8120  123.4480   61.2210 N   0  0  0  0  0  0  0  0  0  0  0  0
  130.6480  122.0600   61.2430 C   0  0  0  0  0  0  0  0  0  0  0  0
  131.7240  121.2450   60.8330 C   0  0  0  0  0  0  0  0  0  0  0  0
  133.2260  121.9310   60.3050 Cl  0  0  0  0  0  0  0  0  0  0  0  0
  131.6170  119.8580   60.8360 C   0  0  0  0  0  0  0  0  0  0  0  0
  130.4430  119.2290   61.2510 C   0  0  0  0  0  0  0  0  0  0  0  0
  130.3330  117.7490   61.2510 N   0  0  0  0  0  0  0  0  0  0  0  0
  131.3210  117.0850   61.5510 O   0  0  0  0  0  0  0  0  0  0  0  0
  129.2560  117.2400   60.9540 O   0  0  0  0  0  0  0  0  0  0  0  0
  129.3770  120.0310   61.6720 C   0  0  0  0  0  0  0  0  0  0  0  0
  129.4510  121.4350   61.6880 C   0  0  0  0  0  0  0  0  0  0  0  0
  128.2610  122.2000   62.1760 N   0  0  0  0  0  0  0  0  0  0  0  0
  128.1650  122.5120   63.3580 O   0  0  0  0  0  0  0  0  0  0  0  0
  127.3860  122.4980   61.3670 O   0  0  0  0  0  0  0  0  0  0  0  0
  131.0840  126.0130   59.7590 C   0  0  0  0  0  0  0  0  0  0  0  0
  132.1260  125.1830   59.2810 N   0  0  0  0  0  0  0  0  0  0  0  0
  132.9470  125.3840   58.2280 C   0  0  0  0  0  0  0  0  0  0  0  0
  133.9800  124.2890   57.9770 C   0  0  0  0  0  0  0  0  0  0  0  0
  132.8980  126.3460   57.4620 O   0  0  0  0  0  0  0  0  0  0  0  0
  131.1630  127.4100   59.6630 C   0  0  0  0  0  0  0  0  0  0  0  0
  130.1450  128.2380   60.1390 C   0  0  0  0  0  0  0  0  0  0  0  0
  130.3190  129.6350   59.9780 N   0  0  0  0  0  0  0  0  0  0  0  0
  131.2150  130.3800   60.8700 C   0  0  0  0  0  0  0  0  0  0  0  0
  130.5880  131.5720   61.6220 C   0  0  0  0  0  0  0  0  0  0  0  0
  131.2690  131.9120   62.8090 O   0  0  0  0  0  0  0  0  0  0  0  0
  130.2690  130.0780   58.5840 C   0  0  0  0  0  0  0  0  0  0  0  0
  131.3070  131.1610   58.2410 C   0  0  0  0  0  0  0  0  0  0  0  0
  130.7010  132.3520   57.6290 C   0  0  0  0  0  0  0  0  0  0  0  0
  130.2250  133.2910   57.1460 N   0  0  0  0  0  0  0  0  0  0  0  0
  128.1585  128.5471   63.3350 H   0  0  0  0  0  0  0  0  0  0  0  0
  126.5186  128.7767   62.6388 H   0  0  0  0  0  0  0  0  0  0  0  0
  127.2742  127.1471   62.6388 H   0  0  0  0  0  0  0  0  0  0  0  0
  128.0789  125.8094   61.3470 H   0  0  0  0  0  0  0  0  0  0  0  0
  132.4709  119.2481   60.5062 H   0  0  0  0  0  0  0  0  0  0  0  0
  128.4469  119.5455   62.0026 H   0  0  0  0  0  0  0  0  0  0  0  0
  132.1810  124.2800   59.7280 H   0  0  0  0  0  0  0  0  0  0  0  0
  134.3452  123.9019   58.9397 H   0  0  0  0  0  0  0  0  0  0  0  0
  133.5164  123.4716   57.4052 H   0  0  0  0  0  0  0  0  0  0  0  0
  134.8230  124.7043   57.4052 H   0  0  0  0  0  0  0  0  0  0  0  0
  132.0510  127.8654   59.2002 H   0  0  0  0  0  0  0  0  0  0  0  0
  131.6033  129.6759   61.6207 H   0  0  0  0  0  0  0  0  0  0  0  0
  131.9860  130.8154   60.2174 H   0  0  0  0  0  0  0  0  0  0  0  0
  130.5945  132.4464   60.9547 H   0  0  0  0  0  0  0  0  0  0  0  0
  129.5693  131.2724   61.9091 H   0  0  0  0  0  0  0  0  0  0  0  0
  131.3650  131.1200   63.3440 H   0  0  0  0  0  0  0  0  0  0  0  0
  130.4488  129.2073   57.9363 H   0  0  0  0  0  0  0  0  0  0  0  0
  129.2758  130.5227   58.4237 H   0  0  0  0  0  0  0  0  0  0  0  0
  131.8200  131.4628   59.1661 H   0  0  0  0  0  0  0  0  0  0  0  0
  132.0075  130.7310   57.5100 H   0  0  0  0  0  0  0  0  0  0  0  0
  1  2  1  0
  2  3  1  0
  3  4  2  0
  4  5  1  0
  5  6  1  0
  6  7  2  0
  7  8  1  0
  8  9  2  0
  9 10  1  0
  9 11  1  0
 11 12  2  0
 12 13  1  0
 13 14  2  0
 13 15  1  0
 12 16  1  0
 16 17  2  0
 17 18  1  0
 18 19  2  0
 18 20  1  0
  5 21  2  0
 21 22  1  0
 22 23  1  0
 23 24  1  0
 23 25  2  0
 21 26  1  0
 26 27  2  0
 27 28  1  0
 28 29  1  0
 29 30  1  0
 30 31  1  0
 28 32  1  0
 32 33  1  0
 33 34  1  0
 34 35  3  0
 27  3  1  0
 17  8  1  0
  1 36  1  0
  1 37  1  0
  1 38  1  0
  4 39  1  0
 11 40  1  0
 16 41  1  0
 22 42  1  0
 24 43  1  0
 24 44  1  0
 24 45  1  0
 26 46  1  0
 29 47  1  0
 29 48  1  0
 30 49  1  0
 30 50  1  0
 31 51  1  0
 32 52  1  0
 32 53  1  0
 33 54  1  0
 33 55  1  0
M  CHG  4  13   1  15  -1  18   1  20  -1
M  END
>  <Binding energies>  (1) 
[-7.33]

>  <Ligand effiencies>  (1) 
[-0.1981081081081081]

>  <Interactions>  (1) 
["V-A:ILE:369:CG2:3237, V-A:ASP:366:CA:3210, V-B:PRO:540:CA:9855, V-A:ILE:369:CB:3236, H-A:ALA:541:N:4891, H-A:ALA:541:O:4889, V-B:ALA:541:CB:9864, H-A:TYR:531:OH:4795, V-B:TYR:539:CE2:9848, V-B:TYR:539:C:9839, V-A:ASP:366:CG:3213, V-B:TYR:539:CZ:9849, H-B:TYR:539:OH:9850, H-B:ALA:541:N:9863, V-A:ASP:366:C:3208, V-A:PRO:482:CB:4326, V-B:TYR:539:CD2:9846, H-A:SER:385:OG:3410, V-B:GLU:543:CD:9880, V-A:ASP:366:CB:3212, V-A:LEU:475:CD2:4259, H-A:GLU:543:OE1:4909, H-A:HIS:383:HE2:3395, V-A:PRO:540:N:4884, H-A:TYR:539:N:4870, V-A:PRO:540:CB:4885, V-A:PRO:540:CA:4883, V-B:PRO:540:C:9853, V-B:ALA:541:CA:9862, V-A:HIS:383:NE2:3394"]

$$$$
ZINC100053898
     RDKit          3D

 62 64  0  0  0  0  0  0  0  0999 V2000
  131.6820  126.8160   73.8620 C   0  0  0  0  0  0  0  0  0  0  0  0
  130.2670  126.6710   73.2920 C   0  0  0  0  0  0  0  0  0  0  0  0
  130.0680  127.6800   72.3080 O   0  0  0  0  0  0  0  0  0  0  0  0
  129.2900  127.4100   71.1950 C   0  0  0  0  0  0  0  0  0  0  0  0
  129.7960  127.3270   69.8850 C   0  0  0  0  0  0  0  0  0  0  0  0
  128.9610  127.0600   68.7910 C   0  0  0  0  0  0  0  0  0  0  0  0
  129.5390  126.9920   67.4410 C   0  0  0  0  0  0  0  0  0  0  0  0
  129.6000  125.9210   66.7570 N   0  0  0  0  0  0  0  0  0  0  0  0
  130.1650  126.1000   65.5490 N   0  0  0  0  0  0  0  0  0  0  0  0
  130.0380  125.1990   64.5550 C   0  0  0  0  0  0  0  0  0  0  0  0
  129.4250  124.1310   64.6390 O   0  0  0  0  0  0  0  0  0  0  0  0
  130.7400  125.5600   63.2270 C   0  0  1  0  0  0  0  0  0  0  0  0
  130.2620  124.6560   62.0620 C   0  0  0  0  0  0  0  0  0  0  0  0
  131.2470  124.5040   60.9120 C   0  0  0  0  0  0  0  0  0  0  0  0
  131.1180  125.3030   59.7560 C   0  0  0  0  0  0  0  0  0  0  0  0
  132.0360  125.1680   58.6960 C   0  0  0  0  0  0  0  0  0  0  0  0
  133.0840  124.2330   58.7870 C   0  0  0  0  0  0  0  0  0  0  0  0
  133.9720  124.1020   57.7580 O   0  0  0  0  0  0  0  0  0  0  0  0
  133.2160  123.4320   59.9390 C   0  0  0  0  0  0  0  0  0  0  0  0
  132.2990  123.5690   61.0000 C   0  0  0  0  0  0  0  0  0  0  0  0
  130.5340  126.9710   62.8800 N   0  0  0  0  0  0  0  0  0  0  0  0
  129.4490  127.4920   62.2730 C   0  0  0  0  0  0  0  0  0  0  0  0
  128.4720  126.8130   61.9490 O   0  0  0  0  0  0  0  0  0  0  0  0
  129.4670  128.9880   62.0330 C   0  0  0  0  0  0  0  0  0  0  0  0
  128.7150  129.8350   62.8580 C   0  0  0  0  0  0  0  0  0  0  0  0
  128.7070  131.2240   62.6690 C   0  0  0  0  0  0  0  0  0  0  0  0
  127.9070  132.1060   63.5550 N   0  0  0  0  0  0  0  0  0  0  0  0
  128.2320  132.2050   64.7360 O   0  0  0  0  0  0  0  0  0  0  0  0
  126.9480  132.7060   63.0790 O   0  0  0  0  0  0  0  0  0  0  0  0
  129.4720  131.7610   61.6250 C   0  0  0  0  0  0  0  0  0  0  0  0
  130.2320  130.9440   60.7780 C   0  0  0  0  0  0  0  0  0  0  0  0
  131.0320  131.5310   59.6740 N   0  0  0  0  0  0  0  0  0  0  0  0
  132.2130  131.2100   59.5680 O   0  0  0  0  0  0  0  0  0  0  0  0
  130.4860  132.3180   58.9050 O   0  0  0  0  0  0  0  0  0  0  0  0
  130.2170  129.5600   60.9940 C   0  0  0  0  0  0  0  0  0  0  0  0
  127.5930  126.8670   69.0300 C   0  0  0  0  0  0  0  0  0  0  0  0
  127.0770  126.9410   70.3210 C   0  0  0  0  0  0  0  0  0  0  0  0
  127.9180  127.2110   71.3980 C   0  0  0  0  0  0  0  0  0  0  0  0
  127.3820  127.2790   72.6580 O   0  0  0  0  0  0  0  0  0  0  0  0
  131.6368  126.8114   74.9611 H   0  0  0  0  0  0  0  0  0  0  0  0
  132.3040  125.9769   73.5171 H   0  0  0  0  0  0  0  0  0  0  0  0
  132.1209  127.7638   73.5171 H   0  0  0  0  0  0  0  0  0  0  0  0
  130.1524  125.6780   72.8329 H   0  0  0  0  0  0  0  0  0  0  0  0
  129.5249  126.7794   74.0967 H   0  0  0  0  0  0  0  0  0  0  0  0
  130.8726  127.4752   69.7150 H   0  0  0  0  0  0  0  0  0  0  0  0
  129.9400  127.9160   66.9989 H   0  0  0  0  0  0  0  0  0  0  0  0
  130.6720  126.9650   65.4260 H   0  0  0  0  0  0  0  0  0  0  0  0
  131.8156  125.3878   63.3799 H   0  0  0  0  0  0  0  0  0  0  0  0
  130.0584  123.6549   62.4699 H   0  0  0  0  0  0  0  0  0  0  0  0
  129.3736  125.1481   61.6393 H   0  0  0  0  0  0  0  0  0  0  0  0
  130.2985  126.0331   59.6824 H   0  0  0  0  0  0  0  0  0  0  0  0
  131.9337  125.7935   57.7970 H   0  0  0  0  0  0  0  0  0  0  0  0
  134.7060  124.7180   57.8110 H   0  0  0  0  0  0  0  0  0  0  0  0
  134.0343  122.7004   60.0098 H   0  0  0  0  0  0  0  0  0  0  0  0
  132.4040  122.9448   61.8996 H   0  0  0  0  0  0  0  0  0  0  0  0
  131.2930  127.5870   63.1290 H   0  0  0  0  0  0  0  0  0  0  0  0
  128.1173  129.4000   63.6726 H   0  0  0  0  0  0  0  0  0  0  0  0
  129.4759  132.8496   61.4668 H   0  0  0  0  0  0  0  0  0  0  0  0
  130.8066  128.9067   60.3341 H   0  0  0  0  0  0  0  0  0  0  0  0
  126.9190  126.6545   68.1870 H   0  0  0  0  0  0  0  0  0  0  0  0
  126.0014  126.7857   70.4910 H   0  0  0  0  0  0  0  0  0  0  0  0
  126.4670  126.9880   72.6930 H   0  0  0  0  0  0  0  0  0  0  0  0
  1  2  1  0
  2  3  1  0
  3  4  1  0
  4  5  2  0
  5  6  1  0
  6  7  1  0
  7  8  2  0
  8  9  1  0
  9 10  1  0
 10 11  2  0
 10 12  1  0
 12 13  1  0
 13 14  1  0
 14 15  2  0
 15 16  1  0
 16 17  2  0
 17 18  1  0
 17 19  1  0
 19 20  2  0
 12 21  1  0
 21 22  1  0
 22 23  2  0
 22 24  1  0
 24 25  2  0
 25 26  1  0
 26 27  1  0
 27 28  2  0
 27 29  1  0
 26 30  2  0
 30 31  1  0
 31 32  1  0
 32 33  2  0
 32 34  1  0
 31 35  2  0
  6 36  2  0
 36 37  1  0
 37 38  2  0
 38 39  1  0
 38  4  1  0
 20 14  1  0
 35 24  1  0
  1 40  1  0
  1 41  1  0
  1 42  1  0
  2 43  1  0
  2 44  1  0
  5 45  1  0
  7 46  1  0
  9 47  1  0
 12 48  1  1
 13 49  1  0
 13 50  1  0
 15 51  1  0
 16 52  1  0
 18 53  1  0
 19 54  1  0
 20 55  1  0
 21 56  1  0
 25 57  1  0
 30 58  1  0
 35 59  1  0
 36 60  1  0
 37 61  1  0
 39 62  1  0
M  CHG  4  27   1  29  -1  32   1  34  -1
M  END
>  <Binding energies>  (1) 
[-8.58]

>  <Ligand effiencies>  (1) 
[-0.19953488372093023]

>  <Interactions>  (1) 
["V-A:ILE:369:CG2:3237, V-B:HIS:456:CD2:9039, H-A:GLU:543:OE2:4910, V-B:GLU:543:C:9874, V-B:GLU:543:CB:9878, H-B:LYS:547:NZ:9923, V-B:TYR:539:CE2:9848, V-B:GLU:543:CG:9879, V-A:HIS:456:CD2:4068, V-B:TYR:539:CZ:9849, H-A:ASN:370:N:3244, H-B:TYR:539:OH:9850, V-A:ALA:541:CB:4892, V-A:GLU:543:CD:4908, H-B:TYR:484:OH:9319, V-B:HIS:456:CE1:9041, V-B:GLU:543:CA:9876, V-A:HIS:456:CE1:4070, V-B:GLY:544:C:9884, V-B:GLY:544:CA:9886, V-B:GLU:543:CD:9880, V-A:ASP:366:CB:3212, H-A:GLU:543:OE1:4909, H-A:ASP:366:O:3209, V-A:GLU:543:CB:4906, V-A:HIS:456:CG:4066, H-B:GLY:544:O:9885, V-A:PRO:540:CB:4885, V-A:PRO:540:CA:4883"]

$$$$
ZINC100073136
     RDKit          3D

 73 75  0  0  0  0  0  0  0  0999 V2000
  127.5890  125.4530   56.8680 C   0  0  0  0  0  0  0  0  0  0  0  0
  128.5740  125.4510   58.0640 C   0  0  0  0  0  0  0  0  0  0  0  0
  128.9060  126.9320   58.3760 C   0  0  0  0  0  0  0  0  0  0  0  0
  127.9760  124.5370   59.2170 C   0  0  0  0  0  0  0  0  0  0  0  0
  127.7670  124.9700   60.7180 C   0  0  0  0  0  0  0  0  0  0  0  0
  127.0890  126.3660   60.8080 C   0  0  0  0  0  0  0  0  0  0  0  0
  126.7040  123.9770   61.2780 C   0  0  0  0  0  0  0  0  0  0  0  0
  129.0920  124.9000   61.5390 C   0  0  0  0  0  0  0  0  0  0  0  0
  129.4090  125.8050   62.5710 C   0  0  0  0  0  0  0  0  0  0  0  0
  130.7140  125.7610   63.0930 C   0  0  0  0  0  0  0  0  0  0  0  0
  131.6830  125.4390   62.1260 C   0  0  0  0  0  0  0  0  0  0  0  0
  131.3350  124.4340   61.1980 C   0  0  0  0  0  0  0  0  0  0  0  0
  130.0500  123.8600   61.3970 C   0  0  0  0  0  0  0  0  0  0  0  0
  130.0340  122.8510   62.6280 C   0  0  0  0  0  0  0  0  0  0  0  0
  128.6080  122.5160   63.1600 C   0  0  0  0  0  0  0  0  0  0  0  0
  130.5900  121.4790   62.1710 C   0  0  0  0  0  0  0  0  0  0  0  0
  130.8980  123.3400   63.8820 C   0  0  0  0  0  0  0  0  0  0  0  0
  130.8380  124.8590   64.3410 C   0  0  0  0  0  0  0  0  0  0  0  0
  132.1370  125.2160   65.1100 C   0  0  0  0  0  0  0  0  0  0  0  0
  129.6740  125.0740   65.3490 C   0  0  0  0  0  0  0  0  0  0  0  0
  132.3370  123.9880   60.1030 C   0  0  0  0  0  0  0  0  0  0  0  0
  133.6630  124.7850   60.2590 C   0  0  0  0  0  0  0  0  0  0  0  0
  132.6900  122.4790   60.2110 C   0  0  0  0  0  0  0  0  0  0  0  0
  131.7920  124.3210   58.6640 C   0  0  0  0  0  0  0  0  0  0  0  0
  131.8730  125.7550   58.0400 C   0  0  0  0  0  0  0  0  0  0  0  0
  131.7700  126.7870   59.1960 C   0  0  0  0  0  0  0  0  0  0  0  0
  133.2080  125.9900   57.2770 C   0  0  0  0  0  0  0  0  0  0  0  0
  130.7250  125.9200   57.1970 O   0  0  0  0  0  0  0  0  0  0  0  0
  129.7440  124.8480   57.4950 O   0  0  0  0  0  0  0  0  0  0  0  0
  126.5554  125.4551   57.2443 H   0  0  0  0  0  0  0  0  0  0  0  0
  127.7580  126.3508   56.2553 H   0  0  0  0  0  0  0  0  0  0  0  0
  127.7543  124.5545   56.2553 H   0  0  0  0  0  0  0  0  0  0  0  0
  128.9389  127.0787   59.4657 H   0  0  0  0  0  0  0  0  0  0  0  0
  129.8838  127.1879   57.9419 H   0  0  0  0  0  0  0  0  0  0  0  0
  128.1310  127.5808   57.9419 H   0  0  0  0  0  0  0  0  0  0  0  0
  126.9799  124.2356   58.8608 H   0  0  0  0  0  0  0  0  0  0  0  0
  128.8005  123.8190   59.3384 H   0  0  0  0  0  0  0  0  0  0  0  0
  126.9553  126.6413   61.8646 H   0  0  0  0  0  0  0  0  0  0  0  0
  127.7239  127.1147   60.3116 H   0  0  0  0  0  0  0  0  0  0  0  0
  126.1081  126.3299   60.3116 H   0  0  0  0  0  0  0  0  0  0  0  0
  126.7262  123.9978   62.3776 H   0  0  0  0  0  0  0  0  0  0  0  0
  125.7047  124.2726   60.9258 H   0  0  0  0  0  0  0  0  0  0  0  0
  126.9309  122.9599   60.9258 H   0  0  0  0  0  0  0  0  0  0  0  0
  128.6644  126.5185   62.9537 H   0  0  0  0  0  0  0  0  0  0  0  0
  132.6600  125.9434   62.0945 H   0  0  0  0  0  0  0  0  0  0  0  0
  128.6171  122.5181   64.2600 H   0  0  0  0  0  0  0  0  0  0  0  0
  127.8948  123.2710   62.7978 H   0  0  0  0  0  0  0  0  0  0  0  0
  128.3056  121.5224   62.7978 H   0  0  0  0  0  0  0  0  0  0  0  0
  130.8365  120.8708   63.0538 H   0  0  0  0  0  0  0  0  0  0  0  0
  129.8317  120.9587   61.5674 H   0  0  0  0  0  0  0  0  0  0  0  0
  131.4965  121.6334   61.5674 H   0  0  0  0  0  0  0  0  0  0  0  0
  130.5790  122.7347   64.7433 H   0  0  0  0  0  0  0  0  0  0  0  0
  131.9357  123.2197   63.5376 H   0  0  0  0  0  0  0  0  0  0  0  0
  131.9483  125.1641   66.1925 H   0  0  0  0  0  0  0  0  0  0  0  0
  132.9299  124.5025   64.8414 H   0  0  0  0  0  0  0  0  0  0  0  0
  132.4539  126.2345   64.8414 H   0  0  0  0  0  0  0  0  0  0  0  0
  130.0607  125.0026   66.3763 H   0  0  0  0  0  0  0  0  0  0  0  0
  129.2320  126.0690   65.1919 H   0  0  0  0  0  0  0  0  0  0  0  0
  128.9057  124.3026   65.1919 H   0  0  0  0  0  0  0  0  0  0  0  0
  133.8865  124.9193   61.3276 H   0  0  0  0  0  0  0  0  0  0  0  0
  134.4830  124.2299   59.7799 H   0  0  0  0  0  0  0  0  0  0  0  0
  133.5576  125.7695   59.7799 H   0  0  0  0  0  0  0  0  0  0  0  0
  132.7569  122.1930   61.2711 H   0  0  0  0  0  0  0  0  0  0  0  0
  131.9070  121.8832   59.7192 H   0  0  0  0  0  0  0  0  0  0  0  0
  133.6561  122.2923   59.7192 H   0  0  0  0  0  0  0  0  0  0  0  0
  132.3318  123.6571   57.9727 H   0  0  0  0  0  0  0  0  0  0  0  0
  130.7076  124.1982   58.8018 H   0  0  0  0  0  0  0  0  0  0  0  0
  131.8223  126.2625   60.1615 H   0  0  0  0  0  0  0  0  0  0  0  0
  132.6011  127.5039   59.1226 H   0  0  0  0  0  0  0  0  0  0  0  0
  130.8136  127.3255   59.1226 H   0  0  0  0  0  0  0  0  0  0  0  0
  134.0237  126.1336   58.0009 H   0  0  0  0  0  0  0  0  0  0  0  0
  133.4279  125.1168   56.6453 H   0  0  0  0  0  0  0  0  0  0  0  0
  133.1165  126.8858   56.6453 H   0  0  0  0  0  0  0  0  0  0  0  0
  1  2  1  0
  2  3  1  0
  2  4  1  0
  4  5  1  0
  5  6  1  0
  5  7  1  0
  5  8  1  0
  8  9  2  0
  9 10  1  0
 10 11  2  0
 11 12  1  0
 12 13  2  0
 13 14  1  0
 14 15  1  0
 14 16  1  0
 14 17  1  0
 17 18  1  0
 18 19  1  0
 18 20  1  0
 12 21  1  0
 21 22  1  0
 21 23  1  0
 21 24  1  0
 24 25  1  0
 25 26  1  0
 25 27  1  0
 25 28  1  0
 28 29  1  0
 29  2  1  0
 13  8  1  0
 18 10  1  0
  1 30  1  0
  1 31  1  0
  1 32  1  0
  3 33  1  0
  3 34  1  0
  3 35  1  0
  4 36  1  0
  4 37  1  0
  6 38  1  0
  6 39  1  0
  6 40  1  0
  7 41  1  0
  7 42  1  0
  7 43  1  0
  9 44  1  0
 11 45  1  0
 15 46  1  0
 15 47  1  0
 15 48  1  0
 16 49  1  0
 16 50  1  0
 16 51  1  0
 17 52  1  0
 17 53  1  0
 19 54  1  0
 19 55  1  0
 19 56  1  0
 20 57  1  0
 20 58  1  0
 20 59  1  0
 22 60  1  0
 22 61  1  0
 22 62  1  0
 23 63  1  0
 23 64  1  0
 23 65  1  0
 24 66  1  0
 24 67  1  0
 26 68  1  0
 26 69  1  0
 26 70  1  0
 27 71  1  0
 27 72  1  0
 27 73  1  0
M  END
>  <Binding energies>  (1) 
[-2.98]

>  <Ligand effiencies>  (1) 
[-0.0903030303030303]

>  <Interactions>  (1) 
["V-A:ILE:369:CG2:3237, V-A:ASP:366:CA:3210, V-B:PRO:540:CA:9855, V-B:GLU:543:CB:9878, V-B:ALA:541:CB:9864, H-A:TYR:531:OH:4795, V-B:TYR:539:CE2:9848, V-B:GLU:543:CG:9879, V-A:ASP:366:CG:3213, V-B:TYR:539:CZ:9849, H-B:TYR:539:OH:9850, V-A:ASP:366:C:3208, V-B:TYR:539:CD2:9846, V-A:TYR:531:CZ:4794, V-B:GLU:543:CD:9880, V-A:ASP:366:CB:3212, V-A:LEU:475:CD2:4259, V-A:ARG:545:CZ:4926, V-B:ALA:541:CA:9862"]

$$$$
ZINC100076884
     RDKit          3D

 37 39  0  0  0  0  0  0  0  0999 V2000
  126.9580  130.4680   56.8180 C   0  0  0  0  0  0  0  0  0  0  0  0
  127.7620  131.6040   57.1110 O   0  0  0  0  0  0  0  0  0  0  0  0
  129.0620  131.4220   57.5520 C   0  0  0  0  0  0  0  0  0  0  0  0
  129.5130  130.2600   58.2050 C   0  0  0  0  0  0  0  0  0  0  0  0
  130.8420  130.1370   58.6200 C   0  0  0  0  0  0  0  0  0  0  0  0
  131.3010  128.8660   59.3400 C   0  0  2  0  0  0  0  0  0  0  0  0
  131.4940  127.8090   58.3970 O   0  0  0  0  0  0  0  0  0  0  0  0
  131.9150  126.6150   58.9480 C   0  0  0  0  0  0  0  0  0  0  0  0
  132.7400  125.8080   58.1530 C   0  0  0  0  0  0  0  0  0  0  0  0
  133.1210  126.2240   56.9000 O   0  0  0  0  0  0  0  0  0  0  0  0
  133.1730  124.5730   58.6480 C   0  0  0  0  0  0  0  0  0  0  0  0
  133.9870  123.7580   57.9020 O   0  0  0  0  0  0  0  0  0  0  0  0
  132.7750  124.1550   59.9160 C   0  0  0  0  0  0  0  0  0  0  0  0
  131.9450  124.9600   60.6960 C   0  0  0  0  0  0  0  0  0  0  0  0
  131.5710  124.5070   61.9350 O   0  0  0  0  0  0  0  0  0  0  0  0
  131.4980  126.2060   60.2300 C   0  0  0  0  0  0  0  0  0  0  0  0
  130.5790  127.0920   61.0840 C   0  0  0  0  0  0  0  0  0  0  0  0
  130.3500  128.4960   60.5040 C   0  0  0  0  0  0  0  0  0  0  0  0
  129.4980  129.2550   60.9690 O   0  0  0  0  0  0  0  0  0  0  0  0
  131.7300  131.1950   58.3960 C   0  0  0  0  0  0  0  0  0  0  0  0
  131.2980  132.3490   57.7500 C   0  0  0  0  0  0  0  0  0  0  0  0
  129.9730  132.4630   57.3290 C   0  0  0  0  0  0  0  0  0  0  0  0
  129.5740  133.6120   56.6950 O   0  0  0  0  0  0  0  0  0  0  0  0
  126.6273  130.0007   57.7573 H   0  0  0  0  0  0  0  0  0  0  0  0
  126.0793  130.7812   56.2350 H   0  0  0  0  0  0  0  0  0  0  0  0
  127.5455  129.7435   56.2350 H   0  0  0  0  0  0  0  0  0  0  0  0
  128.8088  129.4358   58.3917 H   0  0  0  0  0  0  0  0  0  0  0  0
  132.2765  129.0517   59.8132 H   0  0  0  0  0  0  0  0  0  0  0  0
  132.9110  127.1470   56.7380 H   0  0  0  0  0  0  0  0  0  0  0  0
  134.3920  124.2120   57.1600 H   0  0  0  0  0  0  0  0  0  0  0  0
  133.1174  123.1844   60.3043 H   0  0  0  0  0  0  0  0  0  0  0  0
  131.6520  125.1760   62.6180 H   0  0  0  0  0  0  0  0  0  0  0  0
  129.6035  126.5920   61.1752 H   0  0  0  0  0  0  0  0  0  0  0  0
  131.0784  127.2261   62.0549 H   0  0  0  0  0  0  0  0  0  0  0  0
  132.7742  131.1139   58.7322 H   0  0  0  0  0  0  0  0  0  0  0  0
  132.0033  133.1739   57.5707 H   0  0  0  0  0  0  0  0  0  0  0  0
  128.6430  133.5980   56.4610 H   0  0  0  0  0  0  0  0  0  0  0  0
  1  2  1  0
  2  3  1  0
  3  4  2  0
  4  5  1  0
  5  6  1  0
  6  7  1  0
  7  8  1  0
  8  9  2  0
  9 10  1  0
  9 11  1  0
 11 12  1  0
 11 13  2  0
 13 14  1  0
 14 15  1  0
 14 16  2  0
 16 17  1  0
 17 18  1  0
 18 19  2  0
  5 20  2  0
 20 21  1  0
 21 22  2  0
 22 23  1  0
 22  3  1  0
 18  6  1  0
 16  8  1  0
  1 24  1  0
  1 25  1  0
  1 26  1  0
  4 27  1  0
  6 28  1  1
 10 29  1  0
 12 30  1  0
 13 31  1  0
 15 32  1  0
 17 33  1  0
 17 34  1  0
 20 35  1  0
 21 36  1  0
 23 37  1  0
M  END
>  <Binding energies>  (1) 
[-4.67]

>  <Ligand effiencies>  (1) 
[-0.17296296296296296]

>  <Interactions>  (1) 
["V-A:ASP:366:CA:3210, V-A:PRO:540:N:4884, H-A:TYR:539:N:4870, V-B:TYR:539:CZ:9849, V-A:ASP:366:C:3208, H-A:ASN:370:N:3244, V-A:PRO:540:CB:4885, V-A:PRO:540:CA:4883, H-B:TYR:539:OH:9850, V-A:MET:535:CE:4835, H-A:TYR:531:OH:4795, V-B:TYR:539:CE2:9848, V-A:ASP:366:CB:3212, V-A:ASP:366:CG:3213, H-A:ASP:366:O:3209"]

$$$$
ZINC100099902
     RDKit          3D

 70 73  0  0  0  0  0  0  0  0999 V2000
  133.0430  124.6790   58.0190 O   0  0  0  0  0  0  0  0  0  0  0  0
  132.4740  125.6100   58.5960 C   0  0  0  0  0  0  0  0  0  0  0  0
  132.1780  126.8700   57.9510 C   0  0  0  0  0  0  0  0  0  0  0  0
  131.7230  127.9490   58.6210 C   0  0  0  0  0  0  0  0  0  0  0  0
  131.4300  129.2070   57.9660 C   0  0  0  0  0  0  0  0  0  0  0  0
  130.2120  129.5150   57.4800 C   0  0  0  0  0  0  0  0  0  0  0  0
  129.7900  130.7980   56.7570 C   0  0  0  0  0  0  0  0  0  0  0  0
  128.3940  131.3530   57.1570 C   0  0  0  0  0  0  0  0  0  0  0  0
  128.3750  131.9450   58.5860 C   0  0  0  0  0  0  0  0  0  0  0  0
  129.4880  132.9940   58.7930 C   0  0  0  0  0  0  0  0  0  0  0  0
  130.8780  132.4710   58.3700 C   0  0  0  0  0  0  0  0  0  0  0  0
  130.8630  131.9000   56.9350 C   0  0  0  0  0  0  0  0  0  0  0  0
  132.0490  125.5810   59.8790 N   0  0  0  0  0  0  0  0  0  0  0  0
  132.1760  124.5770   60.8060 C   0  0  0  0  0  0  0  0  0  0  0  0
  131.1480  124.0570   61.5490 C   0  0  0  0  0  0  0  0  0  0  0  0
  131.3330  122.9430   62.6120 C   0  0  2  0  0  0  0  0  0  0  0  0
  130.8070  121.7230   62.1190 O   0  0  0  0  0  0  0  0  0  0  0  0
  130.5830  123.3370   63.8830 C   0  0  0  0  0  0  0  0  0  0  0  0
  131.0630  123.9830   64.9660 C   0  0  0  0  0  0  0  0  0  0  0  0
  130.2630  124.3480   66.1230 C   0  0  0  0  0  0  0  0  0  0  0  0
  130.2330  125.5770   66.6720 C   0  0  0  0  0  0  0  0  0  0  0  0
  129.4140  125.9120   67.8210 C   0  0  0  0  0  0  0  0  0  0  0  0
  129.6420  127.0040   68.5790 C   0  0  0  0  0  0  0  0  0  0  0  0
  128.8280  127.3500   69.7230 C   0  0  0  0  0  0  0  0  0  0  0  0
  127.5960  127.3440   69.6940 O   0  0  0  0  0  0  0  0  0  0  0  0
  129.5760  127.6820   70.7970 N   0  0  0  0  0  0  0  0  0  0  0  0
  129.1640  128.0260   72.0590 C   0  0  0  0  0  0  0  0  0  0  0  0
  129.5550  128.9920   72.9190 C   0  0  0  0  0  0  0  0  0  0  0  0
  130.4920  129.9730   72.8380 O   0  0  0  0  0  0  0  0  0  0  0  0
  128.7710  128.9850   74.2050 C   0  0  0  0  0  0  0  0  0  0  0  0
  127.7710  127.8540   74.0100 C   0  0  0  0  0  0  0  0  0  0  0  0
  128.0530  127.2690   72.6320 C   0  0  0  0  0  0  0  0  0  0  0  0
  127.4650  126.3340   72.0840 O   0  0  0  0  0  0  0  0  0  0  0  0
  132.8880  122.8700   62.8300 C   0  0  1  0  0  0  0  0  0  0  0  0
  133.8140  121.8620   62.5970 O   0  0  0  0  0  0  0  0  0  0  0  0
  133.4260  122.5170   61.4220 C   0  0  2  0  0  0  0  0  0  0  0  0
  133.5260  123.9600   60.8970 C   0  0  0  0  0  0  0  0  0  0  0  0
  134.5850  124.4830   60.5460 O   0  0  0  0  0  0  0  0  0  0  0  0
  132.3308  126.9524   56.8648 H   0  0  0  0  0  0  0  0  0  0  0  0
  131.5685  127.8702   59.7072 H   0  0  0  0  0  0  0  0  0  0  0  0
  132.2391  129.9447   57.8605 H   0  0  0  0  0  0  0  0  0  0  0  0
  129.4281  128.7559   57.6186 H   0  0  0  0  0  0  0  0  0  0  0  0
  129.7017  130.5083   55.6995 H   0  0  0  0  0  0  0  0  0  0  0  0
  128.1118  132.1426   56.4450 H   0  0  0  0  0  0  0  0  0  0  0  0
  127.6836  130.5135   57.1353 H   0  0  0  0  0  0  0  0  0  0  0  0
  127.3997  132.4234   58.7591 H   0  0  0  0  0  0  0  0  0  0  0  0
  128.5471  131.1229   59.2963 H   0  0  0  0  0  0  0  0  0  0  0  0
  129.2489  133.8852   58.1941 H   0  0  0  0  0  0  0  0  0  0  0  0
  129.5312  133.2287   59.8668 H   0  0  0  0  0  0  0  0  0  0  0  0
  131.5996  133.3000   58.4159 H   0  0  0  0  0  0  0  0  0  0  0  0
  131.1626  131.6610   59.0576 H   0  0  0  0  0  0  0  0  0  0  0  0
  130.6517  132.7177   56.2302 H   0  0  0  0  0  0  0  0  0  0  0  0
  131.8471  131.4488   56.7400 H   0  0  0  0  0  0  0  0  0  0  0  0
  131.5070  126.3740   60.1900 H   0  0  0  0  0  0  0  0  0  0  0  0
  130.1351  124.4520   61.3819 H   0  0  0  0  0  0  0  0  0  0  0  0
  131.5320  121.1010   62.0180 H   0  0  0  0  0  0  0  0  0  0  0  0
  129.5192  123.0596   63.9200 H   0  0  0  0  0  0  0  0  0  0  0  0
  132.1298  124.2509   64.9736 H   0  0  0  0  0  0  0  0  0  0  0  0
  129.6392  123.5666   66.5817 H   0  0  0  0  0  0  0  0  0  0  0  0
  130.8595  126.3645   66.2279 H   0  0  0  0  0  0  0  0  0  0  0  0
  128.5753  125.2506   68.0842 H   0  0  0  0  0  0  0  0  0  0  0  0
  130.4844  127.6604   68.3153 H   0  0  0  0  0  0  0  0  0  0  0  0
  130.5740  127.7270   70.6540 H   0  0  0  0  0  0  0  0  0  0  0  0
  130.2170  130.6280   72.1940 H   0  0  0  0  0  0  0  0  0  0  0  0
  129.4280  128.7843   75.0641 H   0  0  0  0  0  0  0  0  0  0  0  0
  128.2878  129.9505   74.4156 H   0  0  0  0  0  0  0  0  0  0  0  0
  127.9082  127.0860   74.7855 H   0  0  0  0  0  0  0  0  0  0  0  0
  126.7356  128.2173   74.0866 H   0  0  0  0  0  0  0  0  0  0  0  0
  132.8697  123.5278   63.7114 H   0  0  0  0  0  0  0  0  0  0  0  0
  133.4298  122.0283   60.4365 H   0  0  0  0  0  0  0  0  0  0  0  0
  1  2  2  0
  2  3  1  0
  3  4  2  0
  4  5  1  0
  5  6  2  0
  6  7  1  0
  7  8  1  0
  8  9  1  0
  9 10  1  0
 10 11  1  0
 11 12  1  0
  2 13  1  0
 13 14  1  0
 14 15  2  0
 15 16  1  0
 16 17  1  6
 16 18  1  0
 18 19  2  0
 19 20  1  0
 20 21  2  0
 21 22  1  0
 22 23  2  0
 23 24  1  0
 24 25  2  0
 24 26  1  0
 26 27  1  0
 27 28  2  0
 28 29  1  0
 28 30  1  0
 30 31  1  0
 31 32  1  0
 32 33  2  0
 16 34  1  0
 34 35  1  0
 35 36  1  0
 36 37  1  0
 37 38  2  0
 12  7  1  0
 37 14  1  0
 32 27  1  0
 36 34  1  0
  3 39  1  0
  4 40  1  0
  5 41  1  0
  6 42  1  0
  7 43  1  0
  8 44  1  0
  8 45  1  0
  9 46  1  0
  9 47  1  0
 10 48  1  0
 10 49  1  0
 11 50  1  0
 11 51  1  0
 12 52  1  0
 12 53  1  0
 13 54  1  0
 15 55  1  0
 17 56  1  0
 18 57  1  0
 19 58  1  0
 20 59  1  0
 21 60  1  0
 22 61  1  0
 23 62  1  0
 26 63  1  0
 29 64  1  0
 30 65  1  0
 30 66  1  0
 31 67  1  0
 31 68  1  0
 34 69  1  1
 36 70  1  6
M  END
>  <Binding energies>  (1) 
[-9.55]

>  <Ligand effiencies>  (1) 
[-0.2273809523809524]

>  <Interactions>  (1) 
["V-A:ILE:369:CG2:3237, V-A:ASP:366:CA:3210, V-A:GLY:454:CA:4049, V-B:HIS:456:CD2:9039, V-B:GLU:543:CB:9878, H-B:LYS:547:NZ:9923, V-A:TYR:484:CE2:4346, V-B:GLU:543:CG:9879, V-A:ASP:366:CG:3213, H-B:HIS:456:ND1:9038, V-A:TYR:539:CD1:4873, H-B:TYR:539:OH:9850, V-B:LYS:547:CE:9922, V-A:TYR:484:CZ:4347, V-B:GLU:543:CA:9876, H-A:GLY:454:N:4050, V-B:HIS:456:CE1:9041, V-A:ILE:369:CD1:3239, V-A:HIS:456:CE1:4070, H-B:HIS:456:NE2:9042, V-A:TYR:531:CZ:4794, V-A:MET:535:CE:4835, V-A:TYR:539:C:4867, V-A:ASP:366:CB:3212, H-A:LYS:547:NZ:4951, V-A:LEU:475:CD2:4259, V-A:PRO:540:N:4884, V-A:PRO:540:CB:4885, V-A:PRO:540:CA:4883, H-A:ASP:366:OD2:3215, H-A:GLY:544:O:4913, H-A:HIS:456:NE2:4071, H-A:GLU:543:O:4903"]

$$$$
ZINC100103153
     RDKit          3D

 26 27  0  0  0  0  0  0  0  0999 V2000
  132.8130  131.8160   62.2920 C   0  0  0  0  0  0  0  0  0  0  0  0
  132.0240  131.2870   61.0830 C   0  0  1  0  0  0  0  0  0  0  0  0
  131.3690  129.8980   61.2780 N   0  0  0  0  0  0  0  0  0  0  0  0
  129.8950  130.1640   60.8930 C   0  0  1  0  0  0  0  0  0  0  0  0
  129.6570  131.5360   61.4930 C   0  0  0  0  0  0  0  0  0  0  0  0
  130.8000  132.1720   60.7170 C   0  0  2  0  0  0  0  0  0  0  0  0
  130.4300  131.7930   59.3360 N   0  0  0  0  0  0  0  0  0  0  0  0
  130.5810  132.5260   58.2060 C   0  0  0  0  0  0  0  0  0  0  0  0
  129.7430  133.3660   57.8690 O   0  0  0  0  0  0  0  0  0  0  0  0
  131.8250  132.3050   57.3200 C   0  0  0  0  0  0  0  0  0  0  0  0
  131.5590  131.3780   56.3980 F   0  0  0  0  0  0  0  0  0  0  0  0
  132.1620  133.4450   56.7140 F   0  0  0  0  0  0  0  0  0  0  0  0
  132.8590  131.8910   58.0560 F   0  0  0  0  0  0  0  0  0  0  0  0
  129.8500  130.4400   59.3750 C   0  0  0  0  0  0  0  0  0  0  0  0
  132.3238  131.4880   63.2211 H   0  0  0  0  0  0  0  0  0  0  0  0
  133.8400  131.4232   62.2599 H   0  0  0  0  0  0  0  0  0  0  0  0
  132.8397  132.9152   62.2599 H   0  0  0  0  0  0  0  0  0  0  0  0
  132.8134  131.2686   60.3171 H   0  0  0  0  0  0  0  0  0  0  0  0
  131.7770  129.1930   60.6820 H   0  0  0  0  0  0  0  0  0  0  0  0
  131.4360  129.5970   62.2400 H   0  0  0  0  0  0  0  0  0  0  0  0
  129.2138  129.3544   61.1939 H   0  0  0  0  0  0  0  0  0  0  0  0
  128.6723  131.9568   61.2414 H   0  0  0  0  0  0  0  0  0  0  0  0
  129.6442  131.6366   62.5883 H   0  0  0  0  0  0  0  0  0  0  0  0
  130.9846  133.2442   60.8790 H   0  0  0  0  0  0  0  0  0  0  0  0
  128.8198  130.4276   58.9895 H   0  0  0  0  0  0  0  0  0  0  0  0
  130.3739  129.6966   58.7562 H   0  0  0  0  0  0  0  0  0  0  0  0
  1  2  1  0
  2  3  1  0
  3  4  1  0
  4  5  1  0
  5  6  1  0
  6  7  1  0
  7  8  1  0
  8  9  2  0
  8 10  1  0
 10 11  1  0
 10 12  1  0
 10 13  1  0
  7 14  1  0
  6  2  1  0
 14  4  1  0
  1 15  1  0
  1 16  1  0
  1 17  1  0
  2 18  1  6
  3 19  1  0
  3 20  1  0
  4 21  1  6
  5 22  1  0
  5 23  1  0
  6 24  1  6
 14 25  1  0
 14 26  1  0
M  CHG  1   3   1
M  END
>  <Binding energies>  (1) 
[-5.35]

>  <Ligand effiencies>  (1) 
[-0.334375]

>  <Interactions>  (1) 
["V-A:PRO:540:CG:4886, V-A:PRO:540:C:4881, V-A:ILE:538:CB:4862, V-A:ASP:366:CG:3213, V-A:ASN:362:CB:3176, V-A:ILE:538:CG2:4863, V-A:LEU:363:CD1:3189, V-A:ILE:538:CA:4860, V-A:TYR:531:CE2:4793, V-A:TYR:531:CZ:4794, V-A:MET:535:CE:4835, V-A:TYR:539:C:4867, H-A:GLU:543:OE1:4909, V-A:PRO:540:N:4884, H-A:TYR:539:N:4870, V-A:PRO:540:CB:4885, V-A:PRO:540:CA:4883, H-A:ASP:366:OD2:3215, V-A:PRO:540:CD:4887"]

$$$$
ZINC100133080
     RDKit          3D

 70 75  0  0  0  0  0  0  0  0999 V2000
  128.4290  131.8570   64.2950 C   0  0  0  0  0  0  0  0  0  0  0  0
  127.0200  131.6860   64.2360 O   0  0  0  0  0  0  0  0  0  0  0  0
  126.4180  131.3040   63.0870 C   0  0  0  0  0  0  0  0  0  0  0  0
  125.4500  130.5420   63.0200 O   0  0  0  0  0  0  0  0  0  0  0  0
  127.1490  131.8250   61.8840 C   0  0  0  0  0  0  0  0  0  0  0  0
  126.8500  133.1200   61.4130 C   0  0  0  0  0  0  0  0  0  0  0  0
  125.7690  134.0040   62.0390 C   0  0  0  0  0  0  0  0  0  0  0  0
  127.5240  133.6290   60.3140 C   0  0  0  0  0  0  0  0  0  0  0  0
  128.5010  132.8950   59.6670 C   0  0  0  0  0  0  0  0  0  0  0  0
  128.8760  131.5800   60.0960 C   0  0  0  0  0  0  0  0  0  0  0  0
  129.9060  130.7880   59.4470 C   0  0  0  0  0  0  0  0  0  0  0  0
  130.4740  131.2790   58.4000 O   0  0  0  0  0  0  0  0  0  0  0  0
  130.2590  129.4950   59.9510 C   0  0  0  0  0  0  0  0  0  0  0  0
  129.5470  128.9880   61.0620 C   0  0  0  0  0  0  0  0  0  0  0  0
  128.5530  129.7540   61.6720 C   0  0  0  0  0  0  0  0  0  0  0  0
  128.1830  131.0490   61.2300 C   0  0  0  0  0  0  0  0  0  0  0  0
  129.7970  127.6120   61.6250 C   0  0  0  0  0  0  0  0  0  0  0  0
  129.3230  127.2550   62.7070 O   0  0  0  0  0  0  0  0  0  0  0  0
  130.4980  126.6480   60.7090 C   0  0  0  0  0  0  0  0  0  0  0  0
  130.3970  125.2600   60.9130 C   0  0  0  0  0  0  0  0  0  0  0  0
  131.0600  124.3500   60.0410 C   0  0  0  0  0  0  0  0  0  0  0  0
  131.7940  124.8080   58.9650 C   0  0  0  0  0  0  0  0  0  0  0  0
  131.8850  126.1820   58.7380 C   0  0  0  0  0  0  0  0  0  0  0  0
  132.6130  126.5560   57.6340 O   0  0  0  0  0  0  0  0  0  0  0  0
  131.2540  127.1190   59.6030 C   0  0  0  0  0  0  0  0  0  0  0  0
  131.3720  128.6110   59.3710 C   0  0  0  0  0  0  0  0  0  0  0  0
  132.2540  129.0680   58.6410 O   0  0  0  0  0  0  0  0  0  0  0  0
  130.8600  122.9510   60.5680 C   0  0  1  0  0  0  0  0  0  0  0  0
  131.8250  122.9170   61.8380 C   0  0  0  0  0  0  0  0  0  0  0  0
  129.4220  123.1180   60.3640 O   0  0  0  0  0  0  0  0  0  0  0  0
  128.8780  123.4630   61.5490 C   0  0  2  0  0  0  0  0  0  0  0  0
  127.4240  123.8420   61.2950 C   0  0  0  0  0  0  0  0  0  0  0  0
  129.5860  124.6810   61.9510 O   0  0  0  0  0  0  0  0  0  0  0  0
  129.0380  122.0860   62.3560 C   0  0  2  0  0  0  0  0  0  0  0  0
  129.6930  122.2600   63.5990 O   0  0  0  0  0  0  0  0  0  0  0  0
  129.6130  120.9380   61.3180 C   0  0  2  0  0  0  0  0  0  0  0  0
  129.9800  119.5580   61.9510 N   0  0  0  0  0  0  0  0  0  0  0  0
  128.8360  118.5180   61.9210 C   0  0  0  0  0  0  0  0  0  0  0  0
  131.2260  118.9120   61.2990 C   0  0  0  0  0  0  0  0  0  0  0  0
  130.6450  121.4650   60.1460 C   0  0  2  0  0  0  0  0  0  0  0  0
  131.8970  120.8000   60.0380 O   0  0  0  0  0  0  0  0  0  0  0  0
  128.7499  131.8959   65.3464 H   0  0  0  0  0  0  0  0  0  0  0  0
  128.9223  131.0121   63.7921 H   0  0  0  0  0  0  0  0  0  0  0  0
  128.7059  132.7953   63.7921 H   0  0  0  0  0  0  0  0  0  0  0  0
  125.8384  133.9472   63.1353 H   0  0  0  0  0  0  0  0  0  0  0  0
  125.9144  135.0454   61.7158 H   0  0  0  0  0  0  0  0  0  0  0  0
  124.7772  133.6548   61.7158 H   0  0  0  0  0  0  0  0  0  0  0  0
  127.2767  134.6369   59.9493 H   0  0  0  0  0  0  0  0  0  0  0  0
  129.0068  133.3347   58.7947 H   0  0  0  0  0  0  0  0  0  0  0  0
  128.0290  129.3307   62.5416 H   0  0  0  0  0  0  0  0  0  0  0  0
  132.3010  124.0984   58.2947 H   0  0  0  0  0  0  0  0  0  0  0  0
  132.4700  127.4720   57.3850 H   0  0  0  0  0  0  0  0  0  0  0  0
  131.2217  122.9383   62.7576 H   0  0  0  0  0  0  0  0  0  0  0  0
  132.4277  121.9971   61.8160 H   0  0  0  0  0  0  0  0  0  0  0  0
  132.4909  123.7922   61.8160 H   0  0  0  0  0  0  0  0  0  0  0  0
  126.9069  123.9768   62.2565 H   0  0  0  0  0  0  0  0  0  0  0  0
  127.3843  124.7805   60.7226 H   0  0  0  0  0  0  0  0  0  0  0  0
  126.9312  123.0423   60.7226 H   0  0  0  0  0  0  0  0  0  0  0  0
  128.0692  121.6963   62.7018 H   0  0  0  0  0  0  0  0  0  0  0  0
  129.4450  123.1120   63.9650 H   0  0  0  0  0  0  0  0  0  0  0  0
  128.7033  120.7046   60.7453 H   0  0  0  0  0  0  0  0  0  0  0  0
  130.1980  119.7310   62.9220 H   0  0  0  0  0  0  0  0  0  0  0  0
  128.5499  118.2579   62.9508 H   0  0  0  0  0  0  0  0  0  0  0  0
  127.9680  118.9427   61.3954 H   0  0  0  0  0  0  0  0  0  0  0  0
  129.1763  117.6136   61.3954 H   0  0  0  0  0  0  0  0  0  0  0  0
  131.9091  118.5578   62.0851 H   0  0  0  0  0  0  0  0  0  0  0  0
  130.9139  118.0621   60.6742 H   0  0  0  0  0  0  0  0  0  0  0  0
  131.7407  119.6568   60.6742 H   0  0  0  0  0  0  0  0  0  0  0  0
  130.2138  121.2833   59.1505 H   0  0  0  0  0  0  0  0  0  0  0  0
  132.5730  121.4480   59.8280 H   0  0  0  0  0  0  0  0  0  0  0  0
  1  2  1  0
  2  3  1  0
  3  4  2  0
  3  5  1  0
  5  6  2  0
  6  7  1  0
  6  8  1  0
  8  9  2  0
  9 10  1  0
 10 11  2  0
 11 12  1  0
 11 13  1  0
 13 14  2  0
 14 15  1  0
 15 16  2  0
 14 17  1  0
 17 18  2  0
 17 19  1  0
 19 20  2  0
 20 21  1  0
 21 22  2  0
 22 23  1  0
 23 24  1  0
 23 25  2  0
 25 26  1  0
 26 27  2  0
 21 28  1  0
 28 29  1  1
 28 30  1  0
 30 31  1  0
 31 32  1  6
 31 33  1  0
 31 34  1  0
 34 35  1  0
 34 36  1  0
 36 37  1  0
 37 38  1  0
 37 39  1  0
 36 40  1  0
 40 41  1  0
 16  5  1  0
 25 19  1  0
 40 28  1  0
 16 10  1  0
 33 20  1  0
 26 13  1  0
  1 42  1  0
  1 43  1  0
  1 44  1  0
  7 45  1  0
  7 46  1  0
  7 47  1  0
  8 48  1  0
  9 49  1  0
 15 50  1  0
 22 51  1  0
 24 52  1  0
 29 53  1  0
 29 54  1  0
 29 55  1  0
 32 56  1  0
 32 57  1  0
 32 58  1  0
 34 59  1  1
 35 60  1  0
 36 61  1  6
 37 62  1  0
 38 63  1  0
 38 64  1  0
 38 65  1  0
 39 66  1  0
 39 67  1  0
 39 68  1  0
 40 69  1  6
 41 70  1  0
M  CHG  2  12  -1  37   1
M  END
>  <Binding energies>  (1) 
[-1.92]

>  <Ligand effiencies>  (1) 
[-0.042666666666666665]

>  <Interactions>  (1) 
["V-B:ALA:541:CB:9864, H-A:TYR:531:OH:4795, V-B:TYR:539:CE2:9848, V-A:LEU:475:CG:4257, V-B:LEU:475:CD2:9230, V-B:TYR:539:C:9839, V-A:ASP:366:CG:3213, V-A:TYR:539:CD1:4873, V-B:TYR:484:CE2:9317, V-B:TYR:539:CZ:9849, H-B:TYR:539:OH:9850, V-A:ALA:541:CB:4892, V-A:LEU:475:CD1:4258, H-B:TYR:484:OH:9319, V-A:PRO:482:CB:4326, V-B:TYR:539:CD2:9846, V-A:GLU:543:CG:4907, V-A:SER:385:CB:3409, V-A:TYR:539:C:4867, V-A:ASP:366:CB:3212, V-A:LEU:475:CD2:4259, V-B:TYR:539:CG:9844, V-A:PRO:482:CG:4327, V-A:PRO:540:CA:4883, V-B:PRO:540:C:9853, V-B:ALA:541:CA:9862, V-A:TYR:539:CE1:4875"]

$$$$
ZINC100156765
     RDKit          3D

 61 67  0  0  0  0  0  0  0  0999 V2000
  129.1540  128.2760   69.8770 C   0  0  0  0  0  0  0  0  0  0  0  0
  128.6740  127.5920   68.5830 C   0  0  0  0  0  0  0  0  0  0  0  0
  127.2600  126.9760   68.7290 C   0  0  0  0  0  0  0  0  0  0  0  0
  128.7070  128.6300   67.4160 C   0  0  0  0  0  0  0  0  0  0  0  0
  128.7790  127.9200   66.0680 C   0  0  0  0  0  0  0  0  0  0  0  0
  129.1420  126.5820   65.9630 C   0  0  0  0  0  0  0  0  0  0  0  0
  129.1530  125.9530   64.3240 S   0  0  0  0  0  0  0  0  0  0  0  0
  128.6550  127.5230   63.7250 C   0  0  0  0  0  0  0  0  0  0  0  0
  128.5270  128.4710   64.7760 C   0  0  0  0  0  0  0  0  0  0  0  0
  128.1660  129.8090   64.4290 C   0  0  0  0  0  0  0  0  0  0  0  0
  127.9900  130.8850   65.2270 N   0  0  0  0  0  0  0  0  0  0  0  0
  127.6510  131.9340   64.3800 N   0  0  0  0  0  0  0  0  0  0  0  0
  127.6080  131.5070   63.1310 C   0  0  0  0  0  0  0  0  0  0  0  0
  127.1880  132.5090   61.7480 S   0  0  0  0  0  0  0  0  0  0  0  0
  128.8400  133.2250   61.4520 C   0  0  0  0  0  0  0  0  0  0  0  0
  129.4690  132.6930   60.1680 C   0  0  0  0  0  0  0  0  0  0  0  0
  128.8840  133.0220   58.9400 C   0  0  0  0  0  0  0  0  0  0  0  0
  129.4220  132.5460   57.7450 C   0  0  0  0  0  0  0  0  0  0  0  0
  130.5600  131.7410   57.7670 C   0  0  0  0  0  0  0  0  0  0  0  0
  131.1580  131.4150   58.9830 C   0  0  0  0  0  0  0  0  0  0  0  0
  130.6220  131.8870   60.1830 C   0  0  0  0  0  0  0  0  0  0  0  0
  131.4180  131.4640   61.6610 Cl  0  0  0  0  0  0  0  0  0  0  0  0
  127.9460  130.1690   63.1020 N   0  0  0  0  0  0  0  0  0  0  0  0
  128.0750  129.2210   62.0640 C   0  0  0  0  0  0  0  0  0  0  0  0
  127.9160  129.3780   60.7350 N   0  0  0  0  0  0  0  0  0  0  0  0
  128.1180  128.1140   60.1980 N   0  0  0  0  0  0  0  0  0  0  0  0
  128.3760  127.2460   61.1640 C   0  0  0  0  0  0  0  0  0  0  0  0
  128.5460  125.5130   60.8980 S   0  0  0  0  0  0  0  0  0  0  0  0
  126.7880  125.1470   60.5550 C   0  0  0  0  0  0  0  0  0  0  0  0
  126.5730  124.4230   59.2260 C   0  0  0  0  0  0  0  0  0  0  0  0
  125.6730  124.9590   58.2960 C   0  0  0  0  0  0  0  0  0  0  0  0
  125.4120  124.2980   57.0970 C   0  0  0  0  0  0  0  0  0  0  0  0
  126.0620  123.1000   56.8090 C   0  0  0  0  0  0  0  0  0  0  0  0
  126.9770  122.5680   57.7160 C   0  0  0  0  0  0  0  0  0  0  0  0
  127.2390  123.2240   58.9210 C   0  0  0  0  0  0  0  0  0  0  0  0
  128.3850  122.5190   60.0110 Cl  0  0  0  0  0  0  0  0  0  0  0  0
  128.4060  127.9130   62.3770 N   0  0  0  0  0  0  0  0  0  0  0  0
  129.4650  125.7370   67.1780 C   0  0  0  0  0  0  0  0  0  0  0  0
  129.6560  126.5750   68.3220 O   0  0  0  0  0  0  0  0  0  0  0  0
  128.7678  127.7257   70.7476 H   0  0  0  0  0  0  0  0  0  0  0  0
  130.2537  128.2795   69.9037 H   0  0  0  0  0  0  0  0  0  0  0  0
  128.7833  129.3113   69.9037 H   0  0  0  0  0  0  0  0  0  0  0  0
  127.0149  126.8692   69.7960 H   0  0  0  0  0  0  0  0  0  0  0  0
  126.5218  127.6341   68.2473 H   0  0  0  0  0  0  0  0  0  0  0  0
  127.2393  125.9873   68.2473 H   0  0  0  0  0  0  0  0  0  0  0  0
  127.7953  129.2444   67.4528 H   0  0  0  0  0  0  0  0  0  0  0  0
  129.5983  129.2644   67.5307 H   0  0  0  0  0  0  0  0  0  0  0  0
  128.7452  134.3182   61.3751 H   0  0  0  0  0  0  0  0  0  0  0  0
  129.4900  132.9414   62.2929 H   0  0  0  0  0  0  0  0  0  0  0  0
  127.9903  133.6629   58.9173 H   0  0  0  0  0  0  0  0  0  0  0  0
  128.9492  132.8053   56.7862 H   0  0  0  0  0  0  0  0  0  0  0  0
  130.9856  131.3635   56.8255 H   0  0  0  0  0  0  0  0  0  0  0  0
  132.0576  130.7821   58.9975 H   0  0  0  0  0  0  0  0  0  0  0  0
  126.3979  124.5137   61.3654 H   0  0  0  0  0  0  0  0  0  0  0  0
  126.2593  126.1096   60.4927 H   0  0  0  0  0  0  0  0  0  0  0  0
  125.1672  125.9111   58.5142 H   0  0  0  0  0  0  0  0  0  0  0  0
  124.6940  124.7216   56.3794 H   0  0  0  0  0  0  0  0  0  0  0  0
  125.8532  122.5739   55.8658 H   0  0  0  0  0  0  0  0  0  0  0  0
  127.4955  121.6266   57.4816 H   0  0  0  0  0  0  0  0  0  0  0  0
  128.6336  125.0428   67.3700 H   0  0  0  0  0  0  0  0  0  0  0  0
  130.3886  125.1706   66.9879 H   0  0  0  0  0  0  0  0  0  0  0  0
  1  2  1  0
  2  3  1  0
  2  4  1  0
  4  5  1  0
  5  6  2  0
  6  7  1  0
  7  8  1  0
  8  9  2  0
  9 10  1  0
 10 11  2  0
 11 12  1  0
 12 13  2  0
 13 14  1  0
 14 15  1  0
 15 16  1  0
 16 17  2  0
 17 18  1  0
 18 19  2  0
 19 20  1  0
 20 21  2  0
 21 22  1  0
 13 23  1  0
 23 24  1  0
 24 25  2  0
 25 26  1  0
 26 27  2  0
 27 28  1  0
 28 29  1  0
 29 30  1  0
 30 31  2  0
 31 32  1  0
 32 33  2  0
 33 34  1  0
 34 35  2  0
 35 36  1  0
 27 37  1  0
  6 38  1  0
 38 39  1  0
 39  2  1  0
  9  5  1  0
 23 10  1  0
 37 24  1  0
 37  8  1  0
 21 16  1  0
 35 30  1  0
  1 40  1  0
  1 41  1  0
  1 42  1  0
  3 43  1  0
  3 44  1  0
  3 45  1  0
  4 46  1  0
  4 47  1  0
 15 48  1  0
 15 49  1  0
 17 50  1  0
 18 51  1  0
 19 52  1  0
 20 53  1  0
 29 54  1  0
 29 55  1  0
 31 56  1  0
 32 57  1  0
 33 58  1  0
 34 59  1  0
 38 60  1  0
 38 61  1  0
M  END
>  <Binding energies>  (1) 
[-10.19]

>  <Ligand effiencies>  (1) 
[-0.2612820512820513]

>  <Interactions>  (1) 
["V-B:PRO:540:CA:9855, V-B:GLU:543:C:9874, V-B:GLU:543:CB:9878, V-A:PRO:540:C:4881, V-B:TYR:539:CE2:9848, V-B:GLU:543:CG:9879, V-B:TYR:539:C:9839, V-A:TYR:539:CD1:4873, V-A:ALA:541:CB:4892, V-B:TYR:531:CE2:9765, V-A:GLU:543:CD:4908, V-B:PRO:540:CB:9857, H-B:TYR:484:OH:9319, V-B:HIS:456:CE1:9041, V-B:GLU:543:CA:9876, V-B:PRO:540:N:9856, V-A:HIS:456:CE1:4070, V-B:PRO:540:CD:9859, V-A:GLU:543:CG:4907, V-B:TYR:539:CD2:9846, V-B:GLU:543:CD:9880, V-A:TYR:539:C:4867, V-A:GLU:543:CB:4906, V-A:PRO:540:N:4884, V-B:LEU:363:CD1:8160, V-A:PRO:540:CB:4885, V-A:PRO:540:CA:4883, V-B:MET:535:CE:9807, V-A:TYR:539:CE1:4875"]

$$$$
ZINC100172139-again1
     RDKit          3D

 68 72  0  0  0  0  0  0  0  0999 V2000
  133.9210  121.9110   61.5130 C   0  0  0  0  0  0  0  0  0  0  0  0
  132.8590  121.2460   60.6240 C   0  0  0  0  0  0  0  0  0  0  0  0
  131.7270  120.8310   61.3850 O   0  0  0  0  0  0  0  0  0  0  0  0
  130.5190  121.4540   61.2970 C   0  0  0  0  0  0  0  0  0  0  0  0
  129.4960  120.8580   60.9460 O   0  0  0  0  0  0  0  0  0  0  0  0
  130.5570  122.9120   61.6600 C   0  0  0  0  0  0  0  0  0  0  0  0
  131.0970  123.3640   62.8340 C   0  0  0  0  0  0  0  0  0  0  0  0
  131.7200  122.5460   63.7650 N   0  0  0  0  0  0  0  0  0  0  0  0
  131.1110  124.7350   63.1750 N   0  0  0  0  0  0  0  0  0  0  0  0
  131.4000  125.1270   64.5090 C   0  0  0  0  0  0  0  0  0  0  0  0
  130.3590  125.4680   65.3830 C   0  0  0  0  0  0  0  0  0  0  0  0
  130.6390  125.8200   66.7030 C   0  0  0  0  0  0  0  0  0  0  0  0
  131.9560  125.8240   67.1610 C   0  0  0  0  0  0  0  0  0  0  0  0
  132.9960  125.4690   66.2990 C   0  0  0  0  0  0  0  0  0  0  0  0
  134.2720  125.4660   66.7460 F   0  0  0  0  0  0  0  0  0  0  0  0
  132.7180  125.1160   64.9790 C   0  0  0  0  0  0  0  0  0  0  0  0
  130.6900  125.7210   62.2650 C   0  0  0  0  0  0  0  0  0  0  0  0
  130.6130  127.0420   62.5870 C   0  0  0  0  0  0  0  0  0  0  0  0
  130.2250  128.1440   61.6040 C   0  0  2  0  0  0  0  0  0  0  0  0
  128.7560  128.5020   61.8180 C   0  0  0  0  0  0  0  0  0  0  0  0
  128.1970  129.6400   62.4070 C   0  0  0  0  0  0  0  0  0  0  0  0
  126.8010  129.6450   62.4530 C   0  0  0  0  0  0  0  0  0  0  0  0
  126.2520  128.5030   61.9020 C   0  0  0  0  0  0  0  0  0  0  0  0
  127.4750  127.4230   61.3230 S   0  0  0  0  0  0  0  0  0  0  0  0
  130.6390  127.7320   60.1460 C   0  0  2  0  0  0  0  0  0  0  0  0
  130.0950  128.7440   59.1040 C   0  0  0  0  0  0  0  0  0  0  0  0
  129.2350  128.4370   58.2750 O   0  0  0  0  0  0  0  0  0  0  0  0
  130.6500  129.9710   59.2480 O   0  0  0  0  0  0  0  0  0  0  0  0
  131.3710  130.5910   58.1870 C   0  0  0  0  0  0  0  0  0  0  0  0
  132.7600  131.0710   58.6390 C   0  0  0  0  0  0  0  0  0  0  0  0
  130.3250  126.2380   59.9010 C   0  0  0  0  0  0  0  0  0  0  0  0
  130.0400  125.9420   58.5990 O   0  0  0  0  0  0  0  0  0  0  0  0
  130.3360  125.3170   60.8970 C   0  0  0  0  0  0  0  0  0  0  0  0
  129.8710  123.8770   60.6590 C   0  0  2  0  0  0  0  0  0  0  0  0
  128.3410  123.7760   60.6290 C   0  0  0  0  0  0  0  0  0  0  0  0
  127.6070  124.1740   59.5030 C   0  0  0  0  0  0  0  0  0  0  0  0
  126.2150  124.0800   59.5130 C   0  0  0  0  0  0  0  0  0  0  0  0
  125.5890  123.5890   60.6600 C   0  0  0  0  0  0  0  0  0  0  0  0
  126.2740  123.1990   61.7650 N   0  0  0  0  0  0  0  0  0  0  0  0
  127.6270  123.2950   61.7360 C   0  0  0  0  0  0  0  0  0  0  0  0
  133.6658  121.7512   62.5710 H   0  0  0  0  0  0  0  0  0  0  0  0
  134.9054  121.4677   61.3023 H   0  0  0  0  0  0  0  0  0  0  0  0
  133.9521  122.9902   61.3023 H   0  0  0  0  0  0  0  0  0  0  0  0
  132.5314  121.9655   59.8591 H   0  0  0  0  0  0  0  0  0  0  0  0
  133.3069  120.3561   60.1576 H   0  0  0  0  0  0  0  0  0  0  0  0
  131.7110  122.7810   64.7480 H   0  0  0  0  0  0  0  0  0  0  0  0
  132.2140  121.7120   63.4810 H   0  0  0  0  0  0  0  0  0  0  0  0
  129.3183  125.4580   65.0269 H   0  0  0  0  0  0  0  0  0  0  0  0
  129.8199  126.0949   67.3838 H   0  0  0  0  0  0  0  0  0  0  0  0
  132.1758  126.1067   68.2011 H   0  0  0  0  0  0  0  0  0  0  0  0
  133.5378  124.8278   64.3046 H   0  0  0  0  0  0  0  0  0  0  0  0
  130.8453  127.3338   63.6218 H   0  0  0  0  0  0  0  0  0  0  0  0
  130.7783  129.0776   61.7837 H   0  0  0  0  0  0  0  0  0  0  0  0
  128.8075  130.4652   62.8024 H   0  0  0  0  0  0  0  0  0  0  0  0
  126.2057  130.4657   62.8798 H   0  0  0  0  0  0  0  0  0  0  0  0
  125.1719  128.3046   61.8390 H   0  0  0  0  0  0  0  0  0  0  0  0
  131.7290  127.8007   60.0153 H   0  0  0  0  0  0  0  0  0  0  0  0
  131.4945  129.8652   57.3697 H   0  0  0  0  0  0  0  0  0  0  0  0
  130.7988  131.4699   57.8550 H   0  0  0  0  0  0  0  0  0  0  0  0
  132.8031  131.0859   59.7381 H   0  0  0  0  0  0  0  0  0  0  0  0
  133.5287  130.3864   58.2512 H   0  0  0  0  0  0  0  0  0  0  0  0
  132.9420  132.0841   58.2512 H   0  0  0  0  0  0  0  0  0  0  0  0
  129.4950  126.6390   58.2260 H   0  0  0  0  0  0  0  0  0  0  0  0
  130.1933  123.5545   59.6580 H   0  0  0  0  0  0  0  0  0  0  0  0
  128.1272  124.5595   58.6137 H   0  0  0  0  0  0  0  0  0  0  0  0
  125.6243  124.3859   58.6369 H   0  0  0  0  0  0  0  0  0  0  0  0
  124.4915  123.5148   60.6687 H   0  0  0  0  0  0  0  0  0  0  0  0
  128.1923  122.9797   62.6254 H   0  0  0  0  0  0  0  0  0  0  0  0
  1  2  1  0
  2  3  1  0
  3  4  1  0
  4  5  2  0
  4  6  1  0
  6  7  2  0
  7  8  1  0
  7  9  1  0
  9 10  1  0
 10 11  2  0
 11 12  1  0
 12 13  2  0
 13 14  1  0
 14 15  1  0
 14 16  2  0
  9 17  1  0
 17 18  2  0
 18 19  1  0
 19 20  1  0
 20 21  2  0
 21 22  1  0
 22 23  2  0
 23 24  1  0
 19 25  1  0
 25 26  1  0
 26 27  2  0
 26 28  1  0
 28 29  1  0
 29 30  1  0
 25 31  1  0
 31 32  1  0
 31 33  2  0
 33 34  1  0
 34 35  1  0
 35 36  2  0
 36 37  1  0
 37 38  2  0
 38 39  1  0
 39 40  2  0
 34  6  1  0
 40 35  1  0
 16 10  1  0
 33 17  1  0
 24 20  1  0
  1 41  1  0
  1 42  1  0
  1 43  1  0
  2 44  1  0
  2 45  1  0
  8 46  1  0
  8 47  1  0
 11 48  1  0
 12 49  1  0
 13 50  1  0
 16 51  1  0
 18 52  1  0
 19 53  1  1
 21 54  1  0
 22 55  1  0
 23 56  1  0
 25 57  1  1
 29 58  1  0
 29 59  1  0
 30 60  1  0
 30 61  1  0
 30 62  1  0
 32 63  1  0
 34 64  1  6
 36 65  1  0
 37 66  1  0
 38 67  1  0
 40 68  1  0
M  END
>  <Binding energies>  (1) 
[-5.55]

>  <Ligand effiencies>  (1) 
[-0.12906976744186047]

>  <Interactions>  (1) 
["V-A:ILE:369:CG2:3237, V-B:PRO:540:CA:9855, V-B:ASP:366:CG:8184, V-B:TYR:539:CE2:9848, V-B:GLU:543:CG:9879, V-A:LEU:363:CD1:3189, H-B:ALA:541:N:9863, V-A:GLU:543:CD:4908, V-B:PRO:540:CB:9857, V-A:TYR:484:CZ:4347, V-A:ARG:545:CG:4922, V-A:ILE:369:CD1:3239, V-A:HIS:456:CE1:4070, V-B:TYR:539:CD2:9846, H-A:SER:385:OG:3410, V-A:ARG:545:CD:4923, V-A:LEU:475:CD2:4259, V-A:ARG:545:CB:4921, V-A:ARG:545:CZ:4926, V-A:PRO:540:CB:4885, H-A:TYR:484:OH:4348"]

$$$$
ZINC100181664
     RDKit          3D

 12 12  0  0  0  0  0  0  0  0999 V2000
  130.2430  117.3220   60.8800 Br  0  0  0  0  0  0  0  0  0  0  0  0
  130.6060  119.1810   61.0590 C   0  0  0  0  0  0  0  0  0  0  0  0
  129.8090  120.1500   61.6480 C   0  0  0  0  0  0  0  0  0  0  0  0
  130.3590  121.4430   61.6220 C   0  0  0  0  0  0  0  0  0  0  0  0
  129.6780  122.6670   62.2020 C   0  0  0  0  0  0  0  0  0  0  0  0
  127.8960  122.9870   61.3710 Br  0  0  0  0  0  0  0  0  0  0  0  0
  129.5140  122.5540   64.1840 Br  0  0  0  0  0  0  0  0  0  0  0  0
  131.6060  121.4250   60.9910 C   0  0  0  0  0  0  0  0  0  0  0  0
  132.7840  122.8900   60.6840 Br  0  0  0  0  0  0  0  0  0  0  0  0
  132.0780  119.8470   60.4480 S   0  0  0  0  0  0  0  0  0  0  0  0
  128.8301  119.9262   62.0972 H   0  0  0  0  0  0  0  0  0  0  0  0
  130.3224  123.5260   61.9636 H   0  0  0  0  0  0  0  0  0  0  0  0
  1  2  1  0
  2  3  2  0
  3  4  1  0
  4  5  1  0
  5  6  1  0
  5  7  1  0
  4  8  2  0
  8  9  1  0
  8 10  1  0
 10  2  1  0
  3 11  1  0
  5 12  1  0
M  END
>  <Binding energies>  (1) 
[-5.06]

>  <Ligand effiencies>  (1) 
[-0.506]

>  <Interactions>  (1) 
["V-A:ILE:369:CG2:3237, V-B:PRO:540:CA:9855, V-A:PRO:482:CG:4327, V-A:PRO:482:CB:4326, V-B:TYR:539:CD2:9846, V-A:SER:385:CB:3409, V-A:HIS:383:CE1:3393, V-B:ALA:541:CB:9864, V-B:TYR:539:CE2:9848, V-A:LEU:475:CD2:4259, V-B:GLU:543:CG:9879, V-A:HIS:383:NE2:3394"]

$$$$
ZINC100186600
     RDKit          3D

 51 56  0  0  0  0  0  0  0  0999 V2000
  134.0620  124.2700   61.8100 C   0  0  0  0  0  0  0  0  0  0  0  0
  132.8150  124.0630   60.9480 C   0  0  0  0  0  0  0  0  0  0  0  0
  132.7490  124.6130   59.8490 O   0  0  0  0  0  0  0  0  0  0  0  0
  131.6290  123.2220   61.5250 C   0  0  2  0  0  0  0  0  0  0  0  0
  131.6540  121.7560   60.9750 C   0  0  0  0  0  0  0  0  0  0  0  0
  132.6110  121.1580   60.1370 C   0  0  0  0  0  0  0  0  0  0  0  0
  132.4830  119.8260   59.7420 C   0  0  0  0  0  0  0  0  0  0  0  0
  131.4010  119.0680   60.1810 C   0  0  0  0  0  0  0  0  0  0  0  0
  130.4470  119.6350   61.0220 C   0  0  0  0  0  0  0  0  0  0  0  0
  130.5720  120.9670   61.4210 C   0  0  0  0  0  0  0  0  0  0  0  0
  129.6110  121.6870   62.3740 C   0  0  2  0  0  0  0  0  0  0  0  0
  129.1600  122.9540   61.6240 C   0  0  0  0  0  0  0  0  0  0  0  0
  127.8310  123.3090   61.3910 C   0  0  0  0  0  0  0  0  0  0  0  0
  127.5300  124.5010   60.7350 C   0  0  0  0  0  0  0  0  0  0  0  0
  128.5580  125.3470   60.3240 C   0  0  0  0  0  0  0  0  0  0  0  0
  129.8880  124.9970   60.5510 C   0  0  0  0  0  0  0  0  0  0  0  0
  130.2130  123.7850   61.1820 C   0  0  0  0  0  0  0  0  0  0  0  0
  130.5180  122.1300   63.5820 C   0  0  2  0  0  0  0  0  0  0  0  0
  129.7950  122.9100   64.6710 C   0  0  0  0  0  0  0  0  0  0  0  0
  128.8430  122.4730   65.3190 O   0  0  0  0  0  0  0  0  0  0  0  0
  130.4060  124.1160   64.8090 N   0  0  0  0  0  0  0  0  0  0  0  0
  129.9950  125.0740   65.7540 C   0  0  0  0  0  0  0  0  0  0  0  0
  130.2460  124.8340   67.1120 C   0  0  0  0  0  0  0  0  0  0  0  0
  129.8680  125.7730   68.0720 C   0  0  0  0  0  0  0  0  0  0  0  0
  129.2410  126.9560   67.6830 C   0  0  0  0  0  0  0  0  0  0  0  0
  128.7290  128.2350   68.9940 Br  0  0  0  0  0  0  0  0  0  0  0  0
  128.9880  127.2010   66.3330 C   0  0  0  0  0  0  0  0  0  0  0  0
  129.3570  126.2660   65.3620 C   0  0  0  0  0  0  0  0  0  0  0  0
  129.0660  126.5500   63.9510 N   0  0  0  0  0  0  0  0  0  0  0  0
  129.0460  127.7260   63.6050 O   0  0  0  0  0  0  0  0  0  0  0  0
  128.8710  125.5950   63.2090 O   0  0  0  0  0  0  0  0  0  0  0  0
  131.4520  124.3210   63.9640 C   0  0  0  0  0  0  0  0  0  0  0  0
  132.1630  125.3260   63.9070 O   0  0  0  0  0  0  0  0  0  0  0  0
  131.6580  123.0590   63.1130 C   0  0  2  0  0  0  0  0  0  0  0  0
  133.7844  124.2239   62.8734 H   0  0  0  0  0  0  0  0  0  0  0  0
  134.7961  123.4814   61.5882 H   0  0  0  0  0  0  0  0  0  0  0  0
  134.5020  125.2535   61.5882 H   0  0  0  0  0  0  0  0  0  0  0  0
  133.4717  121.7476   59.7882 H   0  0  0  0  0  0  0  0  0  0  0  0
  133.2384  119.3739   59.0825 H   0  0  0  0  0  0  0  0  0  0  0  0
  131.2996  118.0198   59.8631 H   0  0  0  0  0  0  0  0  0  0  0  0
  129.5951  119.0335   61.3719 H   0  0  0  0  0  0  0  0  0  0  0  0
  128.7485  121.0857   62.6975 H   0  0  0  0  0  0  0  0  0  0  0  0
  127.0191  122.6466   61.7258 H   0  0  0  0  0  0  0  0  0  0  0  0
  126.4820  124.7738   60.5418 H   0  0  0  0  0  0  0  0  0  0  0  0
  128.3192  126.2944   59.8186 H   0  0  0  0  0  0  0  0  0  0  0  0
  130.6916  125.6773   60.2326 H   0  0  0  0  0  0  0  0  0  0  0  0
  130.8769  121.1738   63.9905 H   0  0  0  0  0  0  0  0  0  0  0  0
  130.7425  123.9025   67.4217 H   0  0  0  0  0  0  0  0  0  0  0  0
  130.0648  125.5799   69.1369 H   0  0  0  0  0  0  0  0  0  0  0  0
  128.4947  128.1366   66.0308 H   0  0  0  0  0  0  0  0  0  0  0  0
  132.6819  122.6891   63.2702 H   0  0  0  0  0  0  0  0  0  0  0  0
  1  2  1  0
  2  3  2  0
  4  2  1  6
  4  5  1  0
  5  6  2  0
  6  7  1  0
  7  8  2  0
  8  9  1  0
  9 10  2  0
 10 11  1  0
 11 12  1  0
 12 13  2  0
 13 14  1  0
 14 15  2  0
 15 16  1  0
 16 17  2  0
 11 18  1  0
 18 19  1  0
 19 20  2  0
 19 21  1  0
 21 22  1  0
 22 23  2  0
 23 24  1  0
 24 25  2  0
 25 26  1  0
 25 27  1  0
 27 28  2  0
 28 29  1  0
 29 30  2  0
 29 31  1  0
 21 32  1  0
 32 33  2  0
 32 34  1  0
 17  4  1  0
 34 18  1  0
 34  4  1  0
 10  5  1  0
 17 12  1  0
 28 22  1  0
  1 35  1  0
  1 36  1  0
  1 37  1  0
  6 38  1  0
  7 39  1  0
  8 40  1  0
  9 41  1  0
 11 42  1  1
 13 43  1  0
 14 44  1  0
 15 45  1  0
 16 46  1  0
 18 47  1  1
 23 48  1  0
 24 49  1  0
 27 50  1  0
 34 51  1  6
M  CHG  2  29   1  31  -1
M  END
>  <Binding energies>  (1) 
[-8.0]

>  <Ligand effiencies>  (1) 
[-0.23529411764705882]

>  <Interactions>  (1) 
["V-A:ILE:369:CG2:3237, V-B:PRO:540:CA:9855, V-B:GLU:543:CB:9878, V-B:ALA:541:CB:9864, V-B:TYR:539:CE2:9848, V-A:TYR:484:CE2:4346, V-B:GLU:543:CG:9879, V-B:TYR:539:CB:9843, V-A:TYR:484:CZ:4347, V-A:GLU:543:CD:4908, V-B:HIS:456:CE1:9041, V-A:ILE:369:CD1:3239, V-A:HIS:456:CE1:4070, V-B:TYR:539:CD2:9846, V-A:SER:385:CB:3409, V-B:GLU:543:CD:9880, V-A:LEU:475:CD2:4259, H-A:ARG:545:NH2:4928, V-B:TYR:539:CG:9844, V-A:GLU:543:CB:4906, V-A:HIS:383:NE2:3394"]

$$$$
ZINC100311619
     RDKit          3D

 69 69  0  0  0  0  0  0  0  0999 V2000
  132.4200  131.1570   57.4310 C   0  0  0  0  0  0  0  0  0  0  0  0
  131.6190  132.0590   56.4820 C   0  0  0  0  0  0  0  0  0  0  0  0
  130.6060  132.9520   57.2180 C   0  0  0  0  0  0  0  0  0  0  0  0
  129.2290  132.9800   56.5330 C   0  0  0  0  0  0  0  0  0  0  0  0
  128.1190  132.3310   57.3850 C   0  0  0  0  0  0  0  0  0  0  0  0
  127.0730  131.5370   56.5770 C   0  0  0  0  0  0  0  0  0  0  0  0
  127.0640  130.0270   56.8800 C   0  0  0  0  0  0  0  0  0  0  0  0
  127.1080  129.6950   58.3820 C   0  0  0  0  0  0  0  0  0  0  0  0
  126.4410  128.3430   58.6850 C   0  0  0  0  0  0  0  0  0  0  0  0
  126.8380  127.7280   60.0400 C   0  0  0  0  0  0  0  0  0  0  0  0
  127.2790  126.2540   59.9350 C   0  0  0  0  0  0  0  0  0  0  0  0
  127.2500  125.4840   61.2730 C   0  0  0  0  0  0  0  0  0  0  0  0
  126.5670  123.7230   61.0520 S   0  0  0  0  0  0  0  0  0  0  0  0
  126.1990  123.2220   62.3810 O   0  0  0  0  0  0  0  0  0  0  0  0
  125.5630  123.7560   59.9840 O   0  0  0  0  0  0  0  0  0  0  0  0
  127.9530  122.7290   60.4560 C   0  0  0  0  0  0  0  0  0  0  0  0
  128.1080  122.6160   59.0430 C   0  0  0  0  0  0  0  0  0  0  0  0
  128.2390  122.5060   57.8980 N   0  0  0  0  0  0  0  0  0  0  0  0
  128.7600  122.1340   61.3610 C   0  0  0  0  0  0  0  0  0  0  0  0
  129.8890  121.2820   61.0100 C   0  0  0  0  0  0  0  0  0  0  0  0
  131.1890  121.6340   60.8900 C   0  0  0  0  0  0  0  0  0  0  0  0
  132.4470  120.4190   60.5190 S   0  0  0  0  0  0  0  0  0  0  0  0
  133.7600  121.4290   61.2220 C   0  0  0  0  0  0  0  0  0  0  0  0
  133.0380  122.6020   61.8570 C   0  0  0  0  0  0  0  0  0  0  0  0
  131.8550  122.8460   61.0420 N   0  0  0  0  0  0  0  0  0  0  0  0
  131.2550  124.1750   61.1380 C   0  0  0  0  0  0  0  0  0  0  0  0
  132.0530  125.2090   61.9550 C   0  0  0  0  0  0  0  0  0  0  0  0
  131.7620  125.1450   63.4630 C   0  0  0  0  0  0  0  0  0  0  0  0
  133.3230  124.6630   64.4190 S   0  0  0  0  0  0  0  0  0  0  0  0
  133.1830  123.2140   64.6050 O   0  0  0  0  0  0  0  0  0  0  0  0
  134.4210  125.0620   63.5320 O   0  0  0  0  0  0  0  0  0  0  0  0
  133.2210  125.4460   65.6540 O   0  0  0  0  0  0  0  0  0  0  0  0
  132.1856  131.4210   58.4728 H   0  0  0  0  0  0  0  0  0  0  0  0
  132.1527  130.1054   57.2502 H   0  0  0  0  0  0  0  0  0  0  0  0
  133.4958  131.2982   57.2502 H   0  0  0  0  0  0  0  0  0  0  0  0
  132.3218  132.7036   55.9338 H   0  0  0  0  0  0  0  0  0  0  0  0
  131.0510  131.4040   55.8050 H   0  0  0  0  0  0  0  0  0  0  0  0
  130.4813  132.5716   58.2426 H   0  0  0  0  0  0  0  0  0  0  0  0
  131.0014  133.9784   57.2095 H   0  0  0  0  0  0  0  0  0  0  0  0
  128.9550  134.0276   56.3393 H   0  0  0  0  0  0  0  0  0  0  0  0
  129.3122  132.3988   55.6028 H   0  0  0  0  0  0  0  0  0  0  0  0
  128.5933  131.6440   58.1013 H   0  0  0  0  0  0  0  0  0  0  0  0
  127.5774  133.1550   57.8725 H   0  0  0  0  0  0  0  0  0  0  0  0
  126.0768  131.9423   56.8078 H   0  0  0  0  0  0  0  0  0  0  0  0
  127.3389  131.6477   55.5154 H   0  0  0  0  0  0  0  0  0  0  0  0
  126.1464  129.5935   56.4557 H   0  0  0  0  0  0  0  0  0  0  0  0
  127.9753  129.6047   56.4316 H   0  0  0  0  0  0  0  0  0  0  0  0
  128.1579  129.6556   58.7078 H   0  0  0  0  0  0  0  0  0  0  0  0
  126.5567  130.4784   58.9228 H   0  0  0  0  0  0  0  0  0  0  0  0
  125.3506  128.4882   58.6792 H   0  0  0  0  0  0  0  0  0  0  0  0
  126.7841  127.6425   57.9094 H   0  0  0  0  0  0  0  0  0  0  0  0
  127.6706  128.3126   60.4582 H   0  0  0  0  0  0  0  0  0  0  0  0
  125.9469  127.7564   60.6843 H   0  0  0  0  0  0  0  0  0  0  0  0
  126.6075  125.7432   59.2292 H   0  0  0  0  0  0  0  0  0  0  0  0
  128.3266  126.2623   59.5996 H   0  0  0  0  0  0  0  0  0  0  0  0
  128.2733  125.4226   61.6719 H   0  0  0  0  0  0  0  0  0  0  0  0
  126.5898  126.0247   61.9671 H   0  0  0  0  0  0  0  0  0  0  0  0
  128.5524  122.3028   62.4280 H   0  0  0  0  0  0  0  0  0  0  0  0
  129.6552  120.2241   60.8196 H   0  0  0  0  0  0  0  0  0  0  0  0
  134.3230  120.8631   61.9788 H   0  0  0  0  0  0  0  0  0  0  0  0
  134.4925  121.7482   60.4660 H   0  0  0  0  0  0  0  0  0  0  0  0
  132.7454  122.3557   62.8884 H   0  0  0  0  0  0  0  0  0  0  0  0
  133.6833  123.4918   61.9003 H   0  0  0  0  0  0  0  0  0  0  0  0
  131.1380  124.5679   60.1172 H   0  0  0  0  0  0  0  0  0  0  0  0
  130.3042  124.0375   61.6738 H   0  0  0  0  0  0  0  0  0  0  0  0
  133.1262  125.0255   61.7980 H   0  0  0  0  0  0  0  0  0  0  0  0
  131.7487  126.2067   61.6056 H   0  0  0  0  0  0  0  0  0  0  0  0
  131.4166  126.1310   63.8073 H   0  0  0  0  0  0  0  0  0  0  0  0
  130.9856  124.3870   63.6438 H   0  0  0  0  0  0  0  0  0  0  0  0
  1  2  1  0
  2  3  1  0
  3  4  1  0
  4  5  1  0
  5  6  1  0
  6  7  1  0
  7  8  1  0
  8  9  1  0
  9 10  1  0
 10 11  1  0
 11 12  1  0
 12 13  1  0
 13 14  2  0
 13 15  2  0
 13 16  1  0
 16 17  1  0
 17 18  3  0
 16 19  2  0
 19 20  1  0
 20 21  2  0
 21 22  1  0
 22 23  1  0
 23 24  1  0
 24 25  1  0
 25 26  1  0
 26 27  1  0
 27 28  1  0
 28 29  1  0
 29 30  2  0
 29 31  2  0
 29 32  1  0
 25 21  1  0
  1 33  1  0
  1 34  1  0
  1 35  1  0
  2 36  1  0
  2 37  1  0
  3 38  1  0
  3 39  1  0
  4 40  1  0
  4 41  1  0
  5 42  1  0
  5 43  1  0
  6 44  1  0
  6 45  1  0
  7 46  1  0
  7 47  1  0
  8 48  1  0
  8 49  1  0
  9 50  1  0
  9 51  1  0
 10 52  1  0
 10 53  1  0
 11 54  1  0
 11 55  1  0
 12 56  1  0
 12 57  1  0
 19 58  1  0
 20 59  1  0
 23 60  1  0
 23 61  1  0
 24 62  1  0
 24 63  1  0
 26 64  1  0
 26 65  1  0
 27 66  1  0
 27 67  1  0
 28 68  1  0
 28 69  1  0
M  CHG  1  32  -1
M  END
>  <Binding energies>  (1) 
[-6.75]

>  <Ligand effiencies>  (1) 
[-0.2109375]

>  <Interactions>  (1) 
["V-A:ILE:369:CG2:3237, V-B:PRO:540:CA:9855, V-A:GLY:454:CA:4049, V-B:ALA:541:CB:9864, H-A:ARG:545:NH1:4927, V-B:TYR:539:CE2:9848, V-B:TYR:539:C:9839, V-A:TYR:539:CD1:4873, V-A:LEU:363:CD1:3189, V-A:ILE:538:CA:4860, V-A:TYR:539:CZ:4877, V-A:TYR:531:CE2:4793, H-B:ALA:541:N:9863, V-B:PRO:540:CB:9857, H-A:GLY:454:N:4050, V-B:PRO:540:N:9856, V-A:ILE:369:CD1:3239, V-B:TYR:539:CD2:9846, V-A:SER:385:CB:3409, H-A:SER:385:OG:3410, V-A:MET:535:CE:4835, V-B:GLU:543:CD:9880, V-A:TYR:539:C:4867, V-A:LEU:475:CD2:4259, H-A:ARG:545:NH2:4928, V-A:ARG:545:CZ:4926, V-A:PRO:540:N:4884, V-A:PRO:540:CA:4883, H-A:ARG:545:NE:4924, V-A:SER:385:CA:3407, V-B:PRO:540:C:9853, V-A:PRO:540:CD:4887, V-A:TYR:539:CE1:4875, H-A:TYR:484:OH:4348"]

$$$$
ZINC100314479-again1
     RDKit          3D

 59 59  0  0  0  0  0  0  0  0999 V2000
  129.0440  126.9780   72.1380 C   0  0  0  0  0  0  0  0  0  0  0  0
  129.4960  128.2210   71.3600 C   0  0  0  0  0  0  0  0  0  0  0  0
  130.7540  127.9680   70.5060 C   0  0  0  0  0  0  0  0  0  0  0  0
  130.4630  127.6740   69.0210 C   0  0  0  0  0  0  0  0  0  0  0  0
  129.2740  126.7230   68.7830 C   0  0  0  0  0  0  0  0  0  0  0  0
  129.4620  125.8340   67.5380 C   0  0  0  0  0  0  0  0  0  0  0  0
  130.8760  125.7310   67.2040 N   0  0  0  0  0  0  0  0  0  0  0  0
  131.3720  125.1220   66.1770 C   0  0  0  0  0  0  0  0  0  0  0  0
  130.5940  124.2480   65.2630 C   0  0  0  0  0  0  0  0  0  0  0  0
  129.6020  123.6340   65.6620 O   0  0  0  0  0  0  0  0  0  0  0  0
  131.1060  124.0540   63.8110 C   0  0  2  0  0  0  0  0  0  0  0  0
  130.9170  122.6970   63.3650 O   0  0  0  0  0  0  0  0  0  0  0  0
  129.6000  122.2760   63.0010 C   0  0  0  0  0  0  0  0  0  0  0  0
  132.5370  124.5510   63.4230 C   0  0  0  0  0  0  0  0  0  0  0  0
  132.9590  124.5590   62.1990 N   0  0  0  0  0  0  0  0  0  0  0  0
  132.1220  124.2290   61.0540 C   0  0  0  0  0  0  0  0  0  0  0  0
  132.6900  123.0040   60.3120 C   0  0  0  0  0  0  0  0  0  0  0  0
  132.8430  121.7450   61.1910 C   0  0  0  0  0  0  0  0  0  0  0  0
  132.4330  120.4520   60.4600 C   0  0  0  0  0  0  0  0  0  0  0  0
  131.0620  119.8910   60.8840 C   0  0  0  0  0  0  0  0  0  0  0  0
  130.8970  118.3820   60.6470 C   0  0  0  0  0  0  0  0  0  0  0  0
  133.3230  124.9720   64.6000 C   0  0  0  0  0  0  0  0  0  0  0  0
  134.5990  125.1020   64.4110 O   0  0  0  0  0  0  0  0  0  0  0  0
  132.7880  125.2010   65.8380 C   0  0  0  0  0  0  0  0  0  0  0  0
  133.5550  125.6300   66.8840 O   0  0  0  0  0  0  0  0  0  0  0  0
  134.6360  124.7680   67.2310 C   0  0  0  0  0  0  0  0  0  0  0  0
  129.1157  127.1751   73.2178 H   0  0  0  0  0  0  0  0  0  0  0  0
  128.0021  126.7408   71.8770 H   0  0  0  0  0  0  0  0  0  0  0  0
  129.6902  126.1270   71.8770 H   0  0  0  0  0  0  0  0  0  0  0  0
  128.6780  128.5361   70.6955 H   0  0  0  0  0  0  0  0  0  0  0  0
  129.7471  128.9987   72.0963 H   0  0  0  0  0  0  0  0  0  0  0  0
  131.3937  128.8612   70.5616 H   0  0  0  0  0  0  0  0  0  0  0  0
  131.2383  127.0696   70.9163 H   0  0  0  0  0  0  0  0  0  0  0  0
  130.2474  128.6277   68.5170 H   0  0  0  0  0  0  0  0  0  0  0  0
  131.3544  127.1697   68.6196 H   0  0  0  0  0  0  0  0  0  0  0  0
  129.1604  126.0746   69.6643 H   0  0  0  0  0  0  0  0  0  0  0  0
  128.3812  127.3434   68.6159 H   0  0  0  0  0  0  0  0  0  0  0  0
  129.0631  124.8299   67.7446 H   0  0  0  0  0  0  0  0  0  0  0  0
  128.9242  126.2839   66.6904 H   0  0  0  0  0  0  0  0  0  0  0  0
  130.4602  124.7638   63.2733 H   0  0  0  0  0  0  0  0  0  0  0  0
  129.0108  122.0876   63.9106 H   0  0  0  0  0  0  0  0  0  0  0  0
  129.1145  123.0637   62.4062 H   0  0  0  0  0  0  0  0  0  0  0  0
  129.6615  121.3527   62.4062 H   0  0  0  0  0  0  0  0  0  0  0  0
  131.1035  124.0022   61.4023 H   0  0  0  0  0  0  0  0  0  0  0  0
  132.1025  125.0869   60.3658 H   0  0  0  0  0  0  0  0  0  0  0  0
  132.0144  122.7622   59.4783 H   0  0  0  0  0  0  0  0  0  0  0  0
  133.7008  123.2792   59.9765 H   0  0  0  0  0  0  0  0  0  0  0  0
  133.8957  121.6565   61.4977 H   0  0  0  0  0  0  0  0  0  0  0  0
  132.1739  121.8623   62.0562 H   0  0  0  0  0  0  0  0  0  0  0  0
  132.4004  120.6620   59.3807 H   0  0  0  0  0  0  0  0  0  0  0  0
  133.1807  119.6899   60.7250 H   0  0  0  0  0  0  0  0  0  0  0  0
  130.9259  120.0883   61.9576 H   0  0  0  0  0  0  0  0  0  0  0  0
  130.3087  120.3928   60.2589 H   0  0  0  0  0  0  0  0  0  0  0  0
  130.8402  117.8628   61.6151 H   0  0  0  0  0  0  0  0  0  0  0  0
  129.9735  118.1990   60.0781 H   0  0  0  0  0  0  0  0  0  0  0  0
  131.7591  118.0038   60.0781 H   0  0  0  0  0  0  0  0  0  0  0  0
  134.7167  124.7037   68.3262 H   0  0  0  0  0  0  0  0  0  0  0  0
  134.4528  123.7654   66.8173 H   0  0  0  0  0  0  0  0  0  0  0  0
  135.5727  125.1698   66.8173 H   0  0  0  0  0  0  0  0  0  0  0  0
  1  2  1  0
  2  3  1  0
  3  4  1  0
  4  5  1  0
  5  6  1  0
  6  7  1  0
  7  8  2  0
  8  9  1  0
  9 10  2  0
  9 11  1  0
 11 12  1  0
 12 13  1  0
 11 14  1  0
 14 15  2  0
 15 16  1  0
 16 17  1  0
 17 18  1  0
 18 19  1  0
 19 20  1  0
 20 21  1  0
 14 22  1  0
 22 23  1  0
 22 24  2  0
 24 25  1  0
 25 26  1  0
 24  8  1  0
  1 27  1  0
  1 28  1  0
  1 29  1  0
  2 30  1  0
  2 31  1  0
  3 32  1  0
  3 33  1  0
  4 34  1  0
  4 35  1  0
  5 36  1  0
  5 37  1  0
  6 38  1  0
  6 39  1  0
 11 40  1  6
 13 41  1  0
 13 42  1  0
 13 43  1  0
 16 44  1  0
 16 45  1  0
 17 46  1  0
 17 47  1  0
 18 48  1  0
 18 49  1  0
 19 50  1  0
 19 51  1  0
 20 52  1  0
 20 53  1  0
 21 54  1  0
 21 55  1  0
 21 56  1  0
 26 57  1  0
 26 58  1  0
 26 59  1  0
M  CHG  1  23  -1
M  END
>  <Binding energies>  (1) 
[-5.21]

>  <Ligand effiencies>  (1) 
[-0.20038461538461538]

>  <Interactions>  (1) 
["V-A:ILE:369:CG2:3237, V-A:GLY:454:CA:4049, V-B:HIS:456:CD2:9039, V-A:GLU:543:C:4902, V-B:GLU:543:CB:9878, V-B:ALA:541:CB:9864, H-A:ARG:545:NH1:4927, V-A:TYR:484:CE2:4346, V-B:TYR:539:CE2:9848, V-B:GLU:543:CG:9879, V-A:GLY:544:C:4912, V-A:ILE:455:CA:4054, V-A:TYR:484:CZ:4347, V-A:ILE:455:C:4052, V-B:GLU:543:CA:9876, H-A:GLY:454:N:4050, V-A:ARG:545:CG:4922, V-A:GLY:453:C:4042, V-A:HIS:456:CE1:4070, V-B:TYR:539:CD2:9846, V-A:SER:385:CB:3409, V-A:ARG:545:CD:4923, V-A:ARG:545:CB:4921, H-A:ARG:545:NH2:4928, V-A:ARG:545:CZ:4926, V-A:LEU:475:CD2:4259, V-A:GLU:543:CB:4906, H-A:ARG:545:NE:4924, V-A:GLY:454:C:4047, V-A:HIS:383:NE2:3394, H-A:TYR:484:OH:4348"]

$$$$
ZINC100314479-again2
     RDKit          3D

 60 60  0  0  0  0  0  0  0  0999 V2000
  129.9050  116.9500   60.7260 C   0  0  0  0  0  0  0  0  0  0  0  0
  129.9840  118.1920   61.6240 C   0  0  0  0  0  0  0  0  0  0  0  0
  130.6310  119.3980   60.9220 C   0  0  0  0  0  0  0  0  0  0  0  0
  130.2320  120.7440   61.5520 C   0  0  0  0  0  0  0  0  0  0  0  0
  129.5680  121.7060   60.5440 C   0  0  0  0  0  0  0  0  0  0  0  0
  130.1420  123.1370   60.5490 C   0  0  0  0  0  0  0  0  0  0  0  0
  131.2410  123.2310   61.5010 N   0  0  0  0  0  0  0  0  0  0  0  0
  131.1470  123.6110   62.7310 C   0  0  0  0  0  0  0  0  0  0  0  0
  129.8560  123.7970   63.4490 C   0  0  0  0  0  0  0  0  0  0  0  0
  128.8120  123.2830   63.0420 O   0  0  0  0  0  0  0  0  0  0  0  0
  129.8470  124.6160   64.7610 C   0  0  2  0  0  0  0  0  0  0  0  0
  129.1160  125.8450   64.5980 O   0  0  0  0  0  0  0  0  0  0  0  0
  129.4870  126.7290   63.5370 C   0  0  0  0  0  0  0  0  0  0  0  0
  131.1910  124.8800   65.5020 C   0  0  0  0  0  0  0  0  0  0  0  0
  131.2780  125.4290   66.6600 N   0  0  0  0  0  0  0  0  0  0  0  0
  130.1180  125.7890   67.4610 C   0  0  0  0  0  0  0  0  0  0  0  0
  130.3760  127.1390   68.1540 C   0  0  0  0  0  0  0  0  0  0  0  0
  129.0930  127.7780   68.7130 C   0  0  0  0  0  0  0  0  0  0  0  0
  127.9960  127.9550   67.6470 C   0  0  0  0  0  0  0  0  0  0  0  0
  128.0510  129.3270   66.9520 C   0  0  0  0  0  0  0  0  0  0  0  0
  127.6690  129.2620   65.4670 C   0  0  0  0  0  0  0  0  0  0  0  0
  132.3760  124.4640   64.7710 C   0  0  0  0  0  0  0  0  0  0  0  0
  133.6040  124.6820   65.3270 O   0  0  0  0  0  0  0  0  0  0  0  0
  132.3300  123.8750   63.5430 C   0  0  0  0  0  0  0  0  0  0  0  0
  133.4890  123.5530   62.9040 O   0  0  0  0  0  0  0  0  0  0  0  0
  134.0420  124.5920   62.1010 C   0  0  0  0  0  0  0  0  0  0  0  0
  129.8476  116.0476   61.3525 H   0  0  0  0  0  0  0  0  0  0  0  0
  129.0091  117.0131   60.0909 H   0  0  0  0  0  0  0  0  0  0  0  0
  130.8017  116.8991   60.0909 H   0  0  0  0  0  0  0  0  0  0  0  0
  128.9644  118.4694   61.9299 H   0  0  0  0  0  0  0  0  0  0  0  0
  130.6149  117.9353   62.4877 H   0  0  0  0  0  0  0  0  0  0  0  0
  131.7244  119.2933   60.9814 H   0  0  0  0  0  0  0  0  0  0  0  0
  130.2756  119.4031   59.8810 H   0  0  0  0  0  0  0  0  0  0  0  0
  129.5244  120.5517   62.3719 H   0  0  0  0  0  0  0  0  0  0  0  0
  131.1532  121.2264   61.9108 H   0  0  0  0  0  0  0  0  0  0  0  0
  129.6970  121.2881   59.5347 H   0  0  0  0  0  0  0  0  0  0  0  0
  128.5131  121.7921   60.8436 H   0  0  0  0  0  0  0  0  0  0  0  0
  130.5100  123.3852   59.5425 H   0  0  0  0  0  0  0  0  0  0  0  0
  129.3501  123.8421   60.8417 H   0  0  0  0  0  0  0  0  0  0  0  0
  129.3387  123.9204   65.4450 H   0  0  0  0  0  0  0  0  0  0  0  0
  129.8799  127.6652   63.9602 H   0  0  0  0  0  0  0  0  0  0  0  0
  130.2614  126.2533   62.9173 H   0  0  0  0  0  0  0  0  0  0  0  0
  128.6051  126.9485   62.9173 H   0  0  0  0  0  0  0  0  0  0  0  0
  129.2346  125.8728   66.8110 H   0  0  0  0  0  0  0  0  0  0  0  0
  129.9402  125.0135   68.2206 H   0  0  0  0  0  0  0  0  0  0  0  0
  131.0793  126.9788   68.9845 H   0  0  0  0  0  0  0  0  0  0  0  0
  130.7855  127.8257   67.3985 H   0  0  0  0  0  0  0  0  0  0  0  0
  128.7019  127.1351   69.5153 H   0  0  0  0  0  0  0  0  0  0  0  0
  129.3579  128.7797   69.0824 H   0  0  0  0  0  0  0  0  0  0  0  0
  128.1172  127.1707   66.8853 H   0  0  0  0  0  0  0  0  0  0  0  0
  127.0247  127.8830   68.1583 H   0  0  0  0  0  0  0  0  0  0  0  0
  127.3545  130.0075   67.4638 H   0  0  0  0  0  0  0  0  0  0  0  0
  129.0899  129.6838   67.0095 H   0  0  0  0  0  0  0  0  0  0  0  0
  126.5885  129.0781   65.3741 H   0  0  0  0  0  0  0  0  0  0  0  0
  127.9217  130.2161   64.9813 H   0  0  0  0  0  0  0  0  0  0  0  0
  128.2230  128.4452   64.9813 H   0  0  0  0  0  0  0  0  0  0  0  0
  133.5110  124.7590   66.2800 H   0  0  0  0  0  0  0  0  0  0  0  0
  134.4589  125.3753   62.7511 H   0  0  0  0  0  0  0  0  0  0  0  0
  134.8398  124.1794   61.4660 H   0  0  0  0  0  0  0  0  0  0  0  0
  133.2542  125.0234   61.4660 H   0  0  0  0  0  0  0  0  0  0  0  0
  1  2  1  0
  2  3  1  0
  3  4  1  0
  4  5  1  0
  5  6  1  0
  6  7  1  0
  7  8  2  0
  8  9  1  0
  9 10  2  0
  9 11  1  0
 11 12  1  0
 12 13  1  0
 11 14  1  0
 14 15  2  0
 15 16  1  0
 16 17  1  0
 17 18  1  0
 18 19  1  0
 19 20  1  0
 20 21  1  0
 14 22  1  0
 22 23  1  0
 22 24  2  0
 24 25  1  0
 25 26  1  0
 24  8  1  0
  1 27  1  0
  1 28  1  0
  1 29  1  0
  2 30  1  0
  2 31  1  0
  3 32  1  0
  3 33  1  0
  4 34  1  0
  4 35  1  0
  5 36  1  0
  5 37  1  0
  6 38  1  0
  6 39  1  0
 11 40  1  1
 13 41  1  0
 13 42  1  0
 13 43  1  0
 16 44  1  0
 16 45  1  0
 17 46  1  0
 17 47  1  0
 18 48  1  0
 18 49  1  0
 19 50  1  0
 19 51  1  0
 20 52  1  0
 20 53  1  0
 21 54  1  0
 21 55  1  0
 21 56  1  0
 23 57  1  0
 26 58  1  0
 26 59  1  0
 26 60  1  0
M  END
>  <Binding energies>  (1) 
[-5.4]

>  <Ligand effiencies>  (1) 
[-0.2]

>  <Interactions>  (1) 
["V-B:GLU:543:CB:9878, V-B:ALA:541:CB:9864, V-B:TYR:539:CE2:9848, V-A:LEU:475:CG:4257, V-B:GLU:543:CG:9879, V-B:TYR:539:C:9839, V-A:ASP:366:CG:3213, V-B:VAL:344:CG1:7972, V-A:LEU:475:CD1:4258, V-A:HIS:383:CE1:3393, V-A:TYR:484:CZ:4347, V-A:GLU:543:CD:4908, V-B:HIS:456:CE1:9041, H-A:GLY:454:N:4050, V-A:ILE:369:CD1:3239, V-A:HIS:456:CE1:4070, V-B:TYR:484:CZ:9318, V-A:PRO:482:CB:4326, V-B:TYR:539:CD2:9846, V-A:GLU:543:CG:4907, V-B:GLU:543:CD:9880, V-A:LEU:475:CD2:4259, V-A:GLU:543:CB:4906, V-A:PRO:482:CG:4327, H-A:ARG:545:NE:4924, V-A:HIS:383:NE2:3394, H-A:TYR:484:OH:4348"]

$$$$
ZINC100363638
     RDKit          3D

 31 32  0  0  0  0  0  0  0  0999 V2000
  130.5460  118.8080   74.6080 C   0  0  0  0  0  0  0  0  0  0  0  0
  129.5340  119.4310   73.8230 O   0  0  0  0  0  0  0  0  0  0  0  0
  129.4980  120.8100   73.7440 C   0  0  0  0  0  0  0  0  0  0  0  0
  128.6920  121.3570   72.7460 C   0  0  0  0  0  0  0  0  0  0  0  0
  128.5960  122.7370   72.5930 C   0  0  0  0  0  0  0  0  0  0  0  0
  129.3200  123.6110   73.4090 C   0  0  0  0  0  0  0  0  0  0  0  0
  129.1110  124.9900   73.2400 N   0  0  0  0  0  0  0  0  0  0  0  0
  129.8610  125.8630   73.7910 C   0  0  0  0  0  0  0  0  0  0  0  0
  129.6830  127.3400   73.6810 C   0  0  0  0  0  0  0  0  0  0  0  0
  128.9170  128.0560   74.6740 C   0  0  0  0  0  0  0  0  0  0  0  0
  128.3500  127.4990   75.6740 O   0  0  0  0  0  0  0  0  0  0  0  0
  128.7340  129.4930   74.5240 C   0  0  0  0  0  0  0  0  0  0  0  0
  129.2870  130.1180   73.4730 C   0  0  0  0  0  0  0  0  0  0  0  0
  129.2010  131.5940   73.1470 C   0  0  0  0  0  0  0  0  0  0  0  0
  130.0200  129.4600   72.5490 O   0  0  0  0  0  0  0  0  0  0  0  0
  130.2620  128.1160   72.6060 C   0  0  0  0  0  0  0  0  0  0  0  0
  131.0160  127.6960   71.6680 O   0  0  0  0  0  0  0  0  0  0  0  0
  130.0990  123.0510   74.4380 C   0  0  0  0  0  0  0  0  0  0  0  0
  130.2000  121.6720   74.5970 C   0  0  0  0  0  0  0  0  0  0  0  0
  130.3198  118.9473   75.6754 H   0  0  0  0  0  0  0  0  0  0  0  0
  130.5791  117.7329   74.3774 H   0  0  0  0  0  0  0  0  0  0  0  0
  131.5208  119.2626   74.3774 H   0  0  0  0  0  0  0  0  0  0  0  0
  128.1279  120.6928   72.0747 H   0  0  0  0  0  0  0  0  0  0  0  0
  127.9370  123.1483   71.8141 H   0  0  0  0  0  0  0  0  0  0  0  0
  130.7051  125.4978   74.3945 H   0  0  0  0  0  0  0  0  0  0  0  0
  128.1492  130.0596   75.2636 H   0  0  0  0  0  0  0  0  0  0  0  0
  129.1672  132.1744   74.0808 H   0  0  0  0  0  0  0  0  0  0  0  0
  130.0833  131.8922   72.5617 H   0  0  0  0  0  0  0  0  0  0  0  0
  128.2900  131.7878   72.5617 H   0  0  0  0  0  0  0  0  0  0  0  0
  130.6381  123.7152   75.1295 H   0  0  0  0  0  0  0  0  0  0  0  0
  130.8332  121.2573   75.3952 H   0  0  0  0  0  0  0  0  0  0  0  0
  1  2  1  0
  2  3  1  0
  3  4  2  0
  4  5  1  0
  5  6  2  0
  6  7  1  0
  7  8  2  0
  8  9  1  0
  9 10  2  0
 10 11  1  0
 10 12  1  0
 12 13  2  0
 13 14  1  0
 13 15  1  0
 15 16  1  0
 16 17  2  0
  6 18  1  0
 18 19  2  0
 19  3  1  0
 16  9  1  0
  1 20  1  0
  1 21  1  0
  1 22  1  0
  4 23  1  0
  5 24  1  0
  8 25  1  0
 12 26  1  0
 14 27  1  0
 14 28  1  0
 14 29  1  0
 18 30  1  0
 19 31  1  0
M  CHG  1  11  -1
M  END
>  <Binding energies>  (1) 
[-5.22]

>  <Ligand effiencies>  (1) 
[-0.27473684210526317]

>  <Interactions>  (1) 
["V-B:GLU:543:C:9874, V-B:HIS:456:CD2:9039, V-A:LYS:547:CE:4950, H-B:LYS:547:NZ:9923, V-B:GLY:544:CA:9886, V-B:LYS:547:CE:9922, V-A:ASP:473:CG:4240, V-A:ASP:473:CB:4239, V-A:TYR:484:C:4337, H-A:LYS:547:NZ:4951, V-A:GLY:544:C:4912, V-A:TYR:484:CB:4341, V-A:HIS:456:CD2:4068, V-A:ASP:485:CA:4353"]

$$$$
ZINC100418928
     RDKit          3D

 53 58  0  0  0  0  0  0  0  0999 V2000
  125.4190  131.3190   58.1770 C   0  0  0  0  0  0  0  0  0  0  0  0
  126.6060  131.4580   58.9460 O   0  0  0  0  0  0  0  0  0  0  0  0
  127.8400  131.4140   58.3190 C   0  0  0  0  0  0  0  0  0  0  0  0
  128.2570  132.3580   57.3640 C   0  0  0  0  0  0  0  0  0  0  0  0
  129.5210  132.2780   56.7820 C   0  0  0  0  0  0  0  0  0  0  0  0
  130.3940  131.2570   57.1470 C   0  0  0  0  0  0  0  0  0  0  0  0
  131.9600  131.1600   56.4290 Cl  0  0  0  0  0  0  0  0  0  0  0  0
  130.0000  130.3110   58.0910 C   0  0  0  0  0  0  0  0  0  0  0  0
  128.7280  130.3780   58.6760 C   0  0  0  0  0  0  0  0  0  0  0  0
  128.3600  129.3960   59.6240 N   0  0  0  0  0  0  0  0  0  0  0  0
  129.0500  129.1660   60.7770 C   0  0  0  0  0  0  0  0  0  0  0  0
  130.0810  129.7170   61.1680 O   0  0  0  0  0  0  0  0  0  0  0  0
  128.2600  128.1460   61.5800 C   0  0  2  0  0  0  0  0  0  0  0  0
  129.0540  126.9450   62.1460 C   0  0  1  0  0  0  0  0  0  0  0  0
  129.0880  126.8810   63.6700 C   0  0  0  0  0  0  0  0  0  0  0  0
  129.8890  125.9300   64.3060 C   0  0  0  0  0  0  0  0  0  0  0  0
  129.9330  125.8730   65.6970 C   0  0  0  0  0  0  0  0  0  0  0  0
  129.1760  126.7720   66.4480 C   0  0  0  0  0  0  0  0  0  0  0  0
  129.2360  126.6950   68.3490 Br  0  0  0  0  0  0  0  0  0  0  0  0
  128.3800  127.7270   65.8200 C   0  0  0  0  0  0  0  0  0  0  0  0
  128.3370  127.7830   64.4300 C   0  0  0  0  0  0  0  0  0  0  0  0
  128.4490  125.7870   61.5570 O   0  0  0  0  0  0  0  0  0  0  0  0
  127.7680  126.1210   60.3470 C   0  0  0  0  0  0  0  0  0  0  0  0
  126.6040  125.1440   60.1490 C   0  0  0  0  0  0  0  0  0  0  0  0
  125.6510  124.9750   60.9100 O   0  0  0  0  0  0  0  0  0  0  0  0
  126.8340  124.4810   58.8530 C   0  0  0  0  0  0  0  0  0  0  0  0
  126.0340  123.5430   58.1940 C   0  0  0  0  0  0  0  0  0  0  0  0
  126.4480  123.0250   56.9650 C   0  0  0  0  0  0  0  0  0  0  0  0
  127.6580  123.4360   56.4010 C   0  0  0  0  0  0  0  0  0  0  0  0
  128.4600  124.3690   57.0630 C   0  0  0  0  0  0  0  0  0  0  0  0
  128.0410  124.8920   58.2900 C   0  0  0  0  0  0  0  0  0  0  0  0
  128.7210  125.8650   59.1590 C   0  0  0  0  0  0  0  0  0  0  0  0
  129.8190  126.3890   58.9690 O   0  0  0  0  0  0  0  0  0  0  0  0
  127.2820  127.5790   60.6230 C   0  0  2  0  0  0  0  0  0  0  0  0
  127.2780  128.5790   59.4700 C   0  0  0  0  0  0  0  0  0  0  0  0
  126.4330  128.6000   58.5730 O   0  0  0  0  0  0  0  0  0  0  0  0
  124.5554  131.2179   58.8507 H   0  0  0  0  0  0  0  0  0  0  0  0
  125.2870  132.2078   57.5425 H   0  0  0  0  0  0  0  0  0  0  0  0
  125.4959  130.4237   57.5425 H   0  0  0  0  0  0  0  0  0  0  0  0
  127.5761  133.1711   57.0721 H   0  0  0  0  0  0  0  0  0  0  0  0
  129.8291  133.0226   56.0333 H   0  0  0  0  0  0  0  0  0  0  0  0
  130.6920  129.5060   58.3792 H   0  0  0  0  0  0  0  0  0  0  0  0
  127.8561  128.6746   62.4560 H   0  0  0  0  0  0  0  0  0  0  0  0
  130.1196  127.0309   61.8869 H   0  0  0  0  0  0  0  0  0  0  0  0
  130.4856  125.2254   63.7079 H   0  0  0  0  0  0  0  0  0  0  0  0
  130.5612  125.1233   66.2003 H   0  0  0  0  0  0  0  0  0  0  0  0
  127.7880  128.4338   66.4200 H   0  0  0  0  0  0  0  0  0  0  0  0
  127.7120  128.5370   63.9292 H   0  0  0  0  0  0  0  0  0  0  0  0
  125.0839  123.2148   58.6409 H   0  0  0  0  0  0  0  0  0  0  0  0
  125.8193  122.2911   56.4395 H   0  0  0  0  0  0  0  0  0  0  0  0
  127.9802  123.0241   55.4333 H   0  0  0  0  0  0  0  0  0  0  0  0
  129.4150  124.6901   56.6216 H   0  0  0  0  0  0  0  0  0  0  0  0
  126.2326  127.4661   60.9329 H   0  0  0  0  0  0  0  0  0  0  0  0
  1  2  1  0
  2  3  1  0
  3  4  2  0
  4  5  1  0
  5  6  2  0
  6  7  1  0
  6  8  1  0
  8  9  2  0
  9 10  1  0
 10 11  1  0
 11 12  2  0
 11 13  1  0
 13 14  1  0
 14 15  1  0
 15 16  2  0
 16 17  1  0
 17 18  2  0
 18 19  1  0
 18 20  1  0
 20 21  2  0
 14 22  1  0
 22 23  1  0
 23 24  1  0
 24 25  2  0
 24 26  1  0
 26 27  2  0
 27 28  1  0
 28 29  2  0
 29 30  1  0
 30 31  2  0
 31 32  1  0
 32 33  2  0
 23 34  1  0
 34 35  1  0
 35 36  2  0
  9  3  1  0
 35 10  1  0
 34 13  1  0
 21 15  1  0
 32 23  1  0
 31 26  1  0
  1 37  1  0
  1 38  1  0
  1 39  1  0
  4 40  1  0
  5 41  1  0
  8 42  1  0
 13 43  1  1
 14 44  1  6
 16 45  1  0
 17 46  1  0
 20 47  1  0
 21 48  1  0
 27 49  1  0
 28 50  1  0
 29 51  1  0
 30 52  1  0
 34 53  1  1
M  END
>  <Binding energies>  (1) 
[-7.14]

>  <Ligand effiencies>  (1) 
[-0.19833333333333333]

>  <Interactions>  (1) 
["V-B:PRO:540:CA:9855, V-B:TYR:539:CE1:9847, V-B:GLU:543:CB:9878, V-B:TYR:539:CE2:9848, V-B:GLU:543:CG:9879, V-A:TYR:539:CD1:4873, V-A:LEU:363:CD1:3189, V-B:TYR:539:CZ:9849, V-A:TYR:539:CZ:4877, V-A:TYR:531:CE2:4793, V-A:GLU:543:CD:4908, V-B:PRO:540:CB:9857, V-B:PRO:540:N:9856, V-A:HIS:456:CE1:4070, V-A:TYR:531:CZ:4794, V-A:MET:535:CE:4835, V-B:GLU:543:CD:9880, H-B:TYR:531:OH:9767, H-B:ARG:545:NH2:9900, V-B:TYR:539:CD1:9845, V-A:TYR:539:CE1:4875"]

$$$$
ZINC100504698-again1
     RDKit          3D

 40 42  0  0  0  0  0  0  0  0999 V2000
  129.4030  125.4850   61.5530 O   0  0  0  0  0  0  0  0  0  0  0  0
  128.8000  124.9280   60.5730 C   0  0  0  0  0  0  0  0  0  0  0  0
  127.7070  125.5790   59.9630 C   0  0  0  0  0  0  0  0  0  0  0  0
  126.9770  127.4580   60.5720 I   0  0  0  0  0  0  0  0  0  0  0  0
  127.0450  124.9740   58.8940 C   0  0  0  0  0  0  0  0  0  0  0  0
  127.4520  123.7300   58.4220 C   0  0  0  0  0  0  0  0  0  0  0  0
  126.4450  122.8360   56.8220 I   0  0  0  0  0  0  0  0  0  0  0  0
  128.5280  123.0810   59.0160 C   0  0  0  0  0  0  0  0  0  0  0  0
  129.2080  123.6590   60.0940 C   0  0  0  0  0  0  0  0  0  0  0  0
  130.3830  122.8700   60.6910 C   0  0  0  0  0  0  0  0  0  0  0  0
  131.1800  123.6280   61.7860 N   0  0  1  0  0  0  0  0  0  0  0  0
  131.1390  122.8420   63.1210 C   0  0  0  0  0  0  0  0  0  0  0  0
  131.7810  123.6990   64.2260 C   0  0  0  0  0  0  0  0  0  0  0  0
  133.2210  124.1130   63.8850 C   0  0  0  0  0  0  0  0  0  0  0  0
  133.3130  124.7900   62.5040 C   0  0  0  0  0  0  0  0  0  0  0  0
  132.6490  123.9540   61.3780 C   0  0  2  0  0  0  0  0  0  0  0  0
  132.7150  124.6350   60.0080 C   0  0  0  0  0  0  0  0  0  0  0  0
  131.9520  125.7800   59.7450 C   0  0  0  0  0  0  0  0  0  0  0  0
  132.0210  126.3860   58.4890 C   0  0  0  0  0  0  0  0  0  0  0  0
  132.8560  125.8230   57.5240 C   0  0  0  0  0  0  0  0  0  0  0  0
  133.6030  124.7140   57.7510 N   0  0  0  0  0  0  0  0  0  0  0  0
  133.5240  124.1380   58.9780 C   0  0  0  0  0  0  0  0  0  0  0  0
  126.1939  125.4850   58.4203 H   0  0  0  0  0  0  0  0  0  0  0  0
  128.8491  122.1007   58.6340 H   0  0  0  0  0  0  0  0  0  0  0  0
  129.9853  121.9452   61.1343 H   0  0  0  0  0  0  0  0  0  0  0  0
  131.0860  122.6850   59.8654 H   0  0  0  0  0  0  0  0  0  0  0  0
  130.7160  124.5060   61.9730 H   0  0  0  0  0  0  0  0  0  0  0  0
  130.0949  122.6197   63.3863 H   0  0  0  0  0  0  0  0  0  0  0  0
  131.6928  121.8976   63.0138 H   0  0  0  0  0  0  0  0  0  0  0  0
  131.1760  124.6071   64.3649 H   0  0  0  0  0  0  0  0  0  0  0  0
  131.8150  123.0926   65.1431 H   0  0  0  0  0  0  0  0  0  0  0  0
  133.5793  124.8169   64.6506 H   0  0  0  0  0  0  0  0  0  0  0  0
  133.8401  123.2041   63.8608 H   0  0  0  0  0  0  0  0  0  0  0  0
  132.8116  125.7676   62.5579 H   0  0  0  0  0  0  0  0  0  0  0  0
  134.3798  124.8911   62.2556 H   0  0  0  0  0  0  0  0  0  0  0  0
  133.2178  123.0192   61.2661 H   0  0  0  0  0  0  0  0  0  0  0  0
  131.3006  126.2003   60.5254 H   0  0  0  0  0  0  0  0  0  0  0  0
  131.4304  127.2867   58.2657 H   0  0  0  0  0  0  0  0  0  0  0  0
  132.9111  126.2999   56.5343 H   0  0  0  0  0  0  0  0  0  0  0  0
  134.1245  123.2372   59.1728 H   0  0  0  0  0  0  0  0  0  0  0  0
  1  2  1  0
  2  3  2  0
  3  4  1  0
  3  5  1  0
  5  6  2  0
  6  7  1  0
  6  8  1  0
  8  9  2  0
  9 10  1  0
 10 11  1  0
 11 12  1  0
 12 13  1  0
 13 14  1  0
 14 15  1  0
 15 16  1  0
 16 17  1  0
 17 18  2  0
 18 19  1  0
 19 20  2  0
 20 21  1  0
 21 22  2  0
  9  2  1  0
 16 11  1  0
 22 17  1  0
  5 23  1  0
  8 24  1  0
 10 25  1  0
 10 26  1  0
 11 27  1  1
 12 28  1  0
 12 29  1  0
 13 30  1  0
 13 31  1  0
 14 32  1  0
 14 33  1  0
 15 34  1  0
 15 35  1  0
 16 36  1  6
 18 37  1  0
 19 38  1  0
 20 39  1  0
 22 40  1  0
M  CHG  2   1  -1  11   1
M  END
>  <Binding energies>  (1) 
[-5.88]

>  <Ligand effiencies>  (1) 
[-0.25565217391304346]

>  <Interactions>  (1) 
["V-A:ILE:369:CG2:3237, V-A:ASP:366:CA:3210, V-B:PRO:540:CA:9855, V-B:TYR:539:CZ:9849, V-A:GLY:454:CA:4049, V-A:ILE:369:CB:3236, V-A:ASP:366:C:3208, H-B:TYR:539:OH:9850, V-B:TYR:539:CD2:9846, V-B:PRO:540:CD:9859, V-A:TYR:531:CZ:4794, V-B:TYR:539:CE2:9848, V-A:ASP:366:CB:3212, V-A:LEU:475:CD2:4259, V-A:ARG:545:CZ:4926, V-A:ASP:366:CG:3213, V-B:PRO:540:N:9856"]

$$$$
ZINC100582319
     RDKit          3D

 52 57  0  0  0  0  0  0  0  0999 V2000
  128.4980  132.3760   58.2720 C   0  0  0  0  0  0  0  0  0  0  0  0
  129.8790  131.9670   58.7870 C   0  0  0  0  0  0  0  0  0  0  0  0
  131.0120  132.1940   57.9810 C   0  0  0  0  0  0  0  0  0  0  0  0
  130.8870  132.9100   56.4090 Cl  0  0  0  0  0  0  0  0  0  0  0  0
  132.2810  131.8290   58.4290 C   0  0  0  0  0  0  0  0  0  0  0  0
  132.4400  131.2320   59.6740 C   0  0  0  0  0  0  0  0  0  0  0  0
  131.3290  130.9950   60.4770 C   0  0  0  0  0  0  0  0  0  0  0  0
  130.0430  131.3580   60.0520 C   0  0  0  0  0  0  0  0  0  0  0  0
  128.8490  131.0510   60.9700 C   0  0  2  0  0  0  0  0  0  0  0  0
  129.2160  130.4530   62.2180 O   0  0  0  0  0  0  0  0  0  0  0  0
  128.2090  129.5700   62.7200 C   0  0  0  0  0  0  0  0  0  0  0  0
  128.9190  128.2550   63.1010 C   0  0  0  0  0  0  0  0  0  0  0  0
  129.5440  127.5110   62.3440 O   0  0  0  0  0  0  0  0  0  0  0  0
  128.6880  128.0600   64.5420 C   0  0  0  0  0  0  0  0  0  0  0  0
  129.0870  127.0000   65.3590 C   0  0  0  0  0  0  0  0  0  0  0  0
  128.7730  127.0220   66.7190 C   0  0  0  0  0  0  0  0  0  0  0  0
  128.0670  128.0990   67.2600 C   0  0  0  0  0  0  0  0  0  0  0  0
  127.6710  129.1600   66.4420 C   0  0  0  0  0  0  0  0  0  0  0  0
  127.9840  129.1350   65.0810 C   0  0  0  0  0  0  0  0  0  0  0  0
  127.6840  130.1390   64.0440 C   0  0  0  0  0  0  0  0  0  0  0  0
  127.0990  131.2120   64.1990 O   0  0  0  0  0  0  0  0  0  0  0  0
  127.1000  129.5380   61.6060 C   0  0  2  0  0  0  0  0  0  0  0  0
  126.6220  128.1800   61.0930 C   0  0  0  0  0  0  0  0  0  0  0  0
  125.7680  127.4890   61.6510 O   0  0  0  0  0  0  0  0  0  0  0  0
  127.3380  127.8900   59.9680 N   0  0  0  0  0  0  0  0  0  0  0  0
  127.2910  126.6390   59.3180 C   0  0  0  0  0  0  0  0  0  0  0  0
  127.7640  126.5110   58.0050 C   0  0  0  0  0  0  0  0  0  0  0  0
  127.7140  125.2760   57.3650 C   0  0  0  0  0  0  0  0  0  0  0  0
  127.1910  124.1710   58.0340 C   0  0  0  0  0  0  0  0  0  0  0  0
  127.1220  122.4830   57.1570 Br  0  0  0  0  0  0  0  0  0  0  0  0
  126.7170  124.2900   59.3400 C   0  0  0  0  0  0  0  0  0  0  0  0
  126.7670  125.5220   59.9840 C   0  0  0  0  0  0  0  0  0  0  0  0
  128.1220  128.9260   59.5530 C   0  0  0  0  0  0  0  0  0  0  0  0
  128.9180  128.9430   58.6130 O   0  0  0  0  0  0  0  0  0  0  0  0
  127.7410  130.1280   60.4110 C   0  0  2  0  0  0  0  0  0  0  0  0
  127.8322  132.5732   59.1251 H   0  0  0  0  0  0  0  0  0  0  0  0
  128.5894  133.2856   57.6603 H   0  0  0  0  0  0  0  0  0  0  0  0
  128.0793  131.5633   57.6603 H   0  0  0  0  0  0  0  0  0  0  0  0
  133.1601  132.0144   57.7943 H   0  0  0  0  0  0  0  0  0  0  0  0
  133.4432  130.9472   60.0240 H   0  0  0  0  0  0  0  0  0  0  0  0
  131.4611  130.5164   61.4586 H   0  0  0  0  0  0  0  0  0  0  0  0
  128.4524  132.0712   61.0789 H   0  0  0  0  0  0  0  0  0  0  0  0
  129.6452  126.1530   64.9335 H   0  0  0  0  0  0  0  0  0  0  0  0
  129.0825  126.1885   67.3667 H   0  0  0  0  0  0  0  0  0  0  0  0
  127.8223  128.1118   68.3324 H   0  0  0  0  0  0  0  0  0  0  0  0
  127.1163  130.0095   66.8670 H   0  0  0  0  0  0  0  0  0  0  0  0
  126.2304  130.0320   62.0641 H   0  0  0  0  0  0  0  0  0  0  0  0
  128.1746  127.3863   57.4804 H   0  0  0  0  0  0  0  0  0  0  0  0
  128.0859  125.1726   56.3350 H   0  0  0  0  0  0  0  0  0  0  0  0
  126.3048  123.4123   59.8594 H   0  0  0  0  0  0  0  0  0  0  0  0
  126.3958  125.6198   61.0148 H   0  0  0  0  0  0  0  0  0  0  0  0
  127.1552  130.7771   59.7436 H   0  0  0  0  0  0  0  0  0  0  0  0
  1  2  1  0
  2  3  2  0
  3  4  1  0
  3  5  1  0
  5  6  2  0
  6  7  1  0
  7  8  2  0
  8  9  1  0
  9 10  1  0
 10 11  1  0
 11 12  1  0
 12 13  2  0
 12 14  1  0
 14 15  2  0
 15 16  1  0
 16 17  2  0
 17 18  1  0
 18 19  2  0
 19 20  1  0
 20 21  2  0
 11 22  1  0
 22 23  1  0
 23 24  2  0
 23 25  1  0
 25 26  1  0
 26 27  2  0
 27 28  1  0
 28 29  2  0
 29 30  1  0
 29 31  1  0
 31 32  2  0
 25 33  1  0
 33 34  2  0
 33 35  1  0
  8  2  1  0
 35  9  1  0
 20 11  1  0
 35 22  1  0
 19 14  1  0
 32 26  1  0
  1 36  1  0
  1 37  1  0
  1 38  1  0
  5 39  1  0
  6 40  1  0
  7 41  1  0
  9 42  1  1
 15 43  1  0
 16 44  1  0
 17 45  1  0
 18 46  1  0
 22 47  1  1
 27 48  1  0
 28 49  1  0
 31 50  1  0
 32 51  1  0
 35 52  1  6
M  END
>  <Binding energies>  (1) 
[-8.32]

>  <Ligand effiencies>  (1) 
[-0.2377142857142857]

>  <Interactions>  (1) 
["V-B:PRO:540:CA:9855, V-B:GLU:543:CB:9878, V-A:ILE:538:CB:4862, V-B:ASP:366:CG:8184, V-B:GLU:543:CG:9879, V-B:TYR:539:C:9839, V-A:ILE:538:CG2:4863, V-A:LEU:363:CD1:3189, V-A:TYR:539:CD1:4873, V-A:ILE:538:CA:4860, V-A:GLU:543:CD:4908, H-B:TYR:484:OH:9319, V-B:HIS:456:CE1:9041, V-B:PRO:540:N:9856, V-B:TYR:484:CZ:9318, V-B:TYR:539:CD2:9846, V-A:GLU:543:CG:4907, V-B:PRO:540:CD:9859, V-B:GLU:543:CD:9880, V-B:TYR:539:CG:9844, H-B:ARG:545:NH2:9900, V-B:TYR:539:CD1:9845, V-A:PRO:540:N:4884, V-A:PRO:540:CB:4885, V-A:PRO:540:CA:4883, V-A:TYR:539:CE1:4875"]

$$$$
ZINC100585717
     RDKit          3D

 61 64  0  0  0  0  0  0  0  0999 V2000
  131.1820  122.0300   61.8950 C   0  0  0  0  0  0  0  0  0  0  0  0
  132.1570  122.6080   62.7560 O   0  0  0  0  0  0  0  0  0  0  0  0
  131.7480  123.3800   63.8300 C   0  0  0  0  0  0  0  0  0  0  0  0
  130.4810  123.2730   64.4260 C   0  0  0  0  0  0  0  0  0  0  0  0
  130.1330  124.0800   65.5050 C   0  0  0  0  0  0  0  0  0  0  0  0
  131.0330  125.0160   66.0240 C   0  0  0  0  0  0  0  0  0  0  0  0
  130.6280  125.8460   67.1660 C   0  0  0  0  0  0  0  0  0  0  0  0
  129.6090  125.6150   67.8870 N   0  0  0  0  0  0  0  0  0  0  0  0
  129.5130  126.6010   68.8820 O   0  0  0  0  0  0  0  0  0  0  0  0
  128.2350  127.2220   68.8000 C   0  0  0  0  0  0  0  0  0  0  0  0
  128.3300  128.4680   67.9100 C   0  0  0  0  0  0  0  0  0  0  0  0
  128.7230  129.5450   68.3690 O   0  0  0  0  0  0  0  0  0  0  0  0
  127.9590  128.2850   66.6300 N   0  0  0  0  0  0  0  0  0  0  0  0
  127.9820  129.2820   65.7140 N   0  0  0  0  0  0  0  0  0  0  0  0
  128.3000  129.0060   64.4990 C   0  0  0  0  0  0  0  0  0  0  0  0
  128.6710  127.6990   63.9040 C   0  0  0  0  0  0  0  0  0  0  0  0
  128.7440  126.6170   64.4910 O   0  0  0  0  0  0  0  0  0  0  0  0
  128.9150  127.9280   62.5910 N   0  0  0  0  0  0  0  0  0  0  0  0
  129.3180  126.8590   61.6630 C   0  0  0  0  0  0  0  0  0  0  0  0
  128.4890  125.6550   61.7350 N   0  0  0  0  0  0  0  0  0  0  0  0
  129.1540  124.4610   61.2330 C   0  0  0  0  0  0  0  0  0  0  0  0
  128.0370  123.4310   61.0420 C   0  0  0  0  0  0  0  0  0  0  0  0
  126.7770  124.2780   60.8390 C   0  0  0  0  0  0  0  0  0  0  0  0
  127.2780  125.7210   60.9280 C   0  0  0  0  0  0  0  0  0  0  0  0
  128.7450  129.2630   62.2740 C   0  0  0  0  0  0  0  0  0  0  0  0
  128.9010  129.9130   61.0470 C   0  0  0  0  0  0  0  0  0  0  0  0
  128.6710  131.2880   60.9730 C   0  0  0  0  0  0  0  0  0  0  0  0
  128.2900  131.9970   62.1150 C   0  0  0  0  0  0  0  0  0  0  0  0
  127.9760  133.8720   62.0090 Br  0  0  0  0  0  0  0  0  0  0  0  0
  128.1380  131.3330   63.3340 C   0  0  0  0  0  0  0  0  0  0  0  0
  128.3700  129.9550   63.4090 C   0  0  0  0  0  0  0  0  0  0  0  0
  132.2980  125.1200   65.4260 C   0  0  0  0  0  0  0  0  0  0  0  0
  132.6650  124.3120   64.3340 C   0  0  0  0  0  0  0  0  0  0  0  0
  133.9000  124.3780   63.7110 O   0  0  0  0  0  0  0  0  0  0  0  0
  133.9730  124.7070   62.3280 C   0  0  0  0  0  0  0  0  0  0  0  0
  130.3912  121.5612   62.4990 H   0  0  0  0  0  0  0  0  0  0  0  0
  130.7426  122.8136   61.2603 H   0  0  0  0  0  0  0  0  0  0  0  0
  131.6587  121.2685   61.2603 H   0  0  0  0  0  0  0  0  0  0  0  0
  129.7559  122.5436   64.0358 H   0  0  0  0  0  0  0  0  0  0  0  0
  129.1349  123.9801   65.9564 H   0  0  0  0  0  0  0  0  0  0  0  0
  131.2460  126.7222   67.4118 H   0  0  0  0  0  0  0  0  0  0  0  0
  127.5111  126.5160   68.3670 H   0  0  0  0  0  0  0  0  0  0  0  0
  127.9033  127.5144   69.8072 H   0  0  0  0  0  0  0  0  0  0  0  0
  127.6400  127.3900   66.2880 H   0  0  0  0  0  0  0  0  0  0  0  0
  129.2635  127.2540   60.6378 H   0  0  0  0  0  0  0  0  0  0  0  0
  130.3360  126.5584   61.9516 H   0  0  0  0  0  0  0  0  0  0  0  0
  129.6532  124.6710   60.2756 H   0  0  0  0  0  0  0  0  0  0  0  0
  129.9314  124.1018   61.9234 H   0  0  0  0  0  0  0  0  0  0  0  0
  128.2316  122.8032   60.1599 H   0  0  0  0  0  0  0  0  0  0  0  0
  127.9488  122.7415   61.8945 H   0  0  0  0  0  0  0  0  0  0  0  0
  126.3284  124.0806   59.8542 H   0  0  0  0  0  0  0  0  0  0  0  0
  125.9956  124.0562   61.5808 H   0  0  0  0  0  0  0  0  0  0  0  0
  127.5033  126.1138   59.9255 H   0  0  0  0  0  0  0  0  0  0  0  0
  126.5256  126.3913   61.3692 H   0  0  0  0  0  0  0  0  0  0  0  0
  129.2010  129.3490   60.1515 H   0  0  0  0  0  0  0  0  0  0  0  0
  128.7899  131.8139   60.0142 H   0  0  0  0  0  0  0  0  0  0  0  0
  127.8368  131.8914   64.2326 H   0  0  0  0  0  0  0  0  0  0  0  0
  133.0199  125.8504   65.8201 H   0  0  0  0  0  0  0  0  0  0  0  0
  134.2101  125.7754   62.2173 H   0  0  0  0  0  0  0  0  0  0  0  0
  134.7595  124.1054   61.8490 H   0  0  0  0  0  0  0  0  0  0  0  0
  133.0059  124.4945   61.8490 H   0  0  0  0  0  0  0  0  0  0  0  0
  1  2  1  0
  2  3  1  0
  3  4  2  0
  4  5  1  0
  5  6  2  0
  6  7  1  0
  7  8  2  0
  8  9  1  0
  9 10  1  0
 10 11  1  0
 11 12  2  0
 11 13  1  0
 13 14  1  0
 14 15  2  0
 15 16  1  0
 16 17  2  0
 16 18  1  0
 18 19  1  0
 19 20  1  0
 20 21  1  0
 21 22  1  0
 22 23  1  0
 23 24  1  0
 18 25  1  0
 25 26  2  0
 26 27  1  0
 27 28  2  0
 28 29  1  0
 28 30  1  0
 30 31  2  0
  6 32  1  0
 32 33  2  0
 33 34  1  0
 34 35  1  0
 33  3  1  0
 31 15  1  0
 24 20  1  0
 31 25  1  0
  1 36  1  0
  1 37  1  0
  1 38  1  0
  4 39  1  0
  5 40  1  0
  7 41  1  0
 10 42  1  0
 10 43  1  0
 13 44  1  0
 19 45  1  0
 19 46  1  0
 21 47  1  0
 21 48  1  0
 22 49  1  0
 22 50  1  0
 23 51  1  0
 23 52  1  0
 24 53  1  0
 24 54  1  0
 26 55  1  0
 27 56  1  0
 30 57  1  0
 32 58  1  0
 35 59  1  0
 35 60  1  0
 35 61  1  0
M  END
>  <Binding energies>  (1) 
[-6.63]

>  <Ligand effiencies>  (1) 
[-0.18416666666666667]

>  <Interactions>  (1) 
["V-B:PRO:540:CA:9855, V-B:GLU:543:CB:9878, V-A:TYR:484:CE2:4346, V-B:GLU:543:CG:9879, V-B:LEU:475:CD2:9230, V-A:ASP:366:CG:3213, H-B:GLU:543:OE1:9881, V-A:ALA:541:CB:4892, V-A:TYR:484:CZ:4347, V-A:GLU:543:CD:4908, H-B:TYR:484:OH:9319, V-B:HIS:456:CE1:9041, H-A:GLY:454:N:4050, V-A:HIS:456:CE1:4070, V-A:GLU:543:CG:4907, V-B:GLU:543:CD:9880, V-A:LEU:475:CD2:4259, H-A:ARG:545:NH2:4928, V-A:ARG:545:CZ:4926, V-A:GLU:543:CB:4906, H-B:GLU:543:OE2:9882"]

$$$$
ZINC100600152
     RDKit          3D

 74 77  0  0  0  0  0  0  0  0999 V2000
  129.0870  132.7920   62.3620 C   0  0  0  0  0  0  0  0  0  0  0  0
  130.2150  131.8710   62.8360 C   0  0  0  0  0  0  0  0  0  0  0  0
  131.2170  131.8150   61.8310 O   0  0  0  0  0  0  0  0  0  0  0  0
  130.8000  131.1480   60.6470 C   0  0  0  0  0  0  0  0  0  0  0  0
  130.9600  129.6320   60.8570 C   0  0  0  0  0  0  0  0  0  0  0  0
  129.7110  129.0330   61.2030 O   0  0  0  0  0  0  0  0  0  0  0  0
  129.6180  127.7660   61.6950 C   0  0  0  0  0  0  0  0  0  0  0  0
  129.8530  126.7660   61.0120 O   0  0  0  0  0  0  0  0  0  0  0  0
  129.2400  127.7180   63.1370 C   0  0  0  0  0  0  0  0  0  0  0  0
  128.2850  128.5390   63.6590 C   0  0  0  0  0  0  0  0  0  0  0  0
  127.5570  129.6990   62.9800 C   0  0  0  0  0  0  0  0  0  0  0  0
  127.9430  128.4370   64.9890 N   0  0  0  0  0  0  0  0  0  0  0  0
  128.5010  127.5560   65.8880 C   0  0  0  0  0  0  0  0  0  0  0  0
  129.4920  126.7100   65.4990 C   0  0  0  0  0  0  0  0  0  0  0  0
  130.1830  125.8410   66.4870 C   0  0  0  0  0  0  0  0  0  0  0  0
  130.9580  124.9470   66.1490 O   0  0  0  0  0  0  0  0  0  0  0  0
  129.8060  126.0000   67.9720 C   0  0  0  0  0  0  0  0  0  0  0  0
  129.2120  127.3880   68.2920 C   0  0  2  0  0  0  0  0  0  0  0  0
  128.8010  127.4990   69.7620 C   0  0  0  0  0  0  0  0  0  0  0  0
  127.6690  126.8330   70.2370 C   0  0  0  0  0  0  0  0  0  0  0  0
  127.2920  126.9430   71.5730 C   0  0  0  0  0  0  0  0  0  0  0  0
  128.0430  127.7250   72.4680 C   0  0  0  0  0  0  0  0  0  0  0  0
  127.7200  127.8810   73.8050 O   0  0  0  0  0  0  0  0  0  0  0  0
  126.3780  128.1800   74.1730 C   0  0  0  0  0  0  0  0  0  0  0  0
  129.1870  128.3920   72.0030 C   0  0  0  0  0  0  0  0  0  0  0  0
  129.8930  129.1430   72.9270 O   0  0  0  0  0  0  0  0  0  0  0  0
  129.4840  130.4780   73.2070 C   0  0  0  0  0  0  0  0  0  0  0  0
  129.5540  128.2730   70.6510 C   0  0  0  0  0  0  0  0  0  0  0  0
  128.0460  127.7290   67.3350 C   0  0  0  0  0  0  0  0  0  0  0  0
  129.8920  126.5910   63.9990 C   0  0  1  0  0  0  0  0  0  0  0  0
  129.6820  125.1760   63.4230 C   0  0  0  0  0  0  0  0  0  0  0  0
  130.7790  124.3260   63.2530 C   0  0  0  0  0  0  0  0  0  0  0  0
  130.6080  123.0400   62.7430 C   0  0  0  0  0  0  0  0  0  0  0  0
  129.3300  122.5740   62.3880 C   0  0  0  0  0  0  0  0  0  0  0  0
  129.0820  121.3120   61.8750 O   0  0  0  0  0  0  0  0  0  0  0  0
  130.1480  120.5850   61.2720 C   0  0  0  0  0  0  0  0  0  0  0  0
  128.2330  123.4300   62.5590 C   0  0  0  0  0  0  0  0  0  0  0  0
  126.9700  123.0140   62.2260 O   0  0  0  0  0  0  0  0  0  0  0  0
  128.4080  124.7160   63.0720 C   0  0  0  0  0  0  0  0  0  0  0  0
  128.5683  133.2155   63.2347 H   0  0  0  0  0  0  0  0  0  0  0  0
  129.5093  133.6067   61.7554 H   0  0  0  0  0  0  0  0  0  0  0  0
  128.3732  132.2153   61.7554 H   0  0  0  0  0  0  0  0  0  0  0  0
  130.6476  132.2662   63.7670 H   0  0  0  0  0  0  0  0  0  0  0  0
  129.8183  130.8622   63.0230 H   0  0  0  0  0  0  0  0  0  0  0  0
  129.7459  131.3845   60.4398 H   0  0  0  0  0  0  0  0  0  0  0  0
  131.4124  131.4766   59.7943 H   0  0  0  0  0  0  0  0  0  0  0  0
  131.3331  129.1767   59.9278 H   0  0  0  0  0  0  0  0  0  0  0  0
  131.6714  129.4633   61.6788 H   0  0  0  0  0  0  0  0  0  0  0  0
  127.1375  130.3674   63.7463 H   0  0  0  0  0  0  0  0  0  0  0  0
  128.2656  130.2596   62.3525 H   0  0  0  0  0  0  0  0  0  0  0  0
  126.7441  129.3047   62.3525 H   0  0  0  0  0  0  0  0  0  0  0  0
  127.1650  128.9940   65.3100 H   0  0  0  0  0  0  0  0  0  0  0  0
  129.0627  125.2314   68.2303 H   0  0  0  0  0  0  0  0  0  0  0  0
  130.7280  125.8899   68.5618 H   0  0  0  0  0  0  0  0  0  0  0  0
  130.0000  128.1373   68.1259 H   0  0  0  0  0  0  0  0  0  0  0  0
  127.0704  126.2166   69.5502 H   0  0  0  0  0  0  0  0  0  0  0  0
  126.3975  126.4127   71.9317 H   0  0  0  0  0  0  0  0  0  0  0  0
  126.2940  128.1987   75.2696 H   0  0  0  0  0  0  0  0  0  0  0  0
  126.0967  129.1628   73.7669 H   0  0  0  0  0  0  0  0  0  0  0  0
  125.7061  127.4095   73.7669 H   0  0  0  0  0  0  0  0  0  0  0  0
  129.4384  130.6268   74.2959 H   0  0  0  0  0  0  0  0  0  0  0  0
  130.2076  131.1823   72.7707 H   0  0  0  0  0  0  0  0  0  0  0  0
  128.4901  130.6561   72.7707 H   0  0  0  0  0  0  0  0  0  0  0  0
  130.4491  128.7979   70.2859 H   0  0  0  0  0  0  0  0  0  0  0  0
  127.1996  127.0555   67.5352 H   0  0  0  0  0  0  0  0  0  0  0  0
  127.7346  128.7715   67.4969 H   0  0  0  0  0  0  0  0  0  0  0  0
  130.9791  126.7511   63.9482 H   0  0  0  0  0  0  0  0  0  0  0  0
  131.7862  124.6753   63.5242 H   0  0  0  0  0  0  0  0  0  0  0  0
  131.4815  122.3834   62.6171 H   0  0  0  0  0  0  0  0  0  0  0  0
  130.7852  120.1504   62.0563 H   0  0  0  0  0  0  0  0  0  0  0  0
  129.7350  119.7795   60.6470 H   0  0  0  0  0  0  0  0  0  0  0  0
  130.7471  121.2635   60.6470 H   0  0  0  0  0  0  0  0  0  0  0  0
  126.2990  123.6590   62.4640 H   0  0  0  0  0  0  0  0  0  0  0  0
  127.5362  125.3742   63.2016 H   0  0  0  0  0  0  0  0  0  0  0  0
  1  2  1  0
  2  3  1  0
  3  4  1  0
  4  5  1  0
  5  6  1  0
  6  7  1  0
  7  8  2  0
  7  9  1  0
  9 10  2  0
 10 11  1  0
 10 12  1  0
 12 13  1  0
 13 14  2  0
 14 15  1  0
 15 16  2  0
 15 17  1  0
 17 18  1  0
 18 19  1  0
 19 20  2  0
 20 21  1  0
 21 22  2  0
 22 23  1  0
 23 24  1  0
 22 25  1  0
 25 26  1  0
 26 27  1  0
 25 28  2  0
 18 29  1  0
 14 30  1  0
 30 31  1  0
 31 32  2  0
 32 33  1  0
 33 34  2  0
 34 35  1  0
 35 36  1  0
 34 37  1  0
 37 38  1  0
 37 39  2  0
 30  9  1  0
 39 31  1  0
 29 13  1  0
 28 19  1  0
  1 40  1  0
  1 41  1  0
  1 42  1  0
  2 43  1  0
  2 44  1  0
  4 45  1  0
  4 46  1  0
  5 47  1  0
  5 48  1  0
 11 49  1  0
 11 50  1  0
 11 51  1  0
 12 52  1  0
 17 53  1  0
 17 54  1  0
 18 55  1  1
 20 56  1  0
 21 57  1  0
 24 58  1  0
 24 59  1  0
 24 60  1  0
 27 61  1  0
 27 62  1  0
 27 63  1  0
 28 64  1  0
 29 65  1  0
 29 66  1  0
 30 67  1  1
 32 68  1  0
 33 69  1  0
 36 70  1  0
 36 71  1  0
 36 72  1  0
 38 73  1  0
 39 74  1  0
M  END
>  <Binding energies>  (1) 
[-7.35]

>  <Ligand effiencies>  (1) 
[-0.17926829268292682]

>  <Interactions>  (1) 
["V-B:GLU:543:C:9874, V-B:HIS:456:CD2:9039, V-A:GLU:543:C:4902, H-A:ALA:541:N:4891, V-B:GLU:543:CB:9878, H-B:LYS:547:NZ:9923, V-B:HIS:456:CB:9036, V-B:ALA:541:CB:9864, H-B:ALA:541:O:9861, V-B:GLU:543:CG:9879, H-B:GLU:543:OE1:9881, V-A:ALA:541:CB:4892, V-B:LYS:547:CE:9922, H-B:ALA:541:N:9863, V-A:GLU:543:CD:4908, H-B:TYR:484:OH:9319, V-B:HIS:456:CE1:9041, V-A:HIS:456:CE1:4070, V-B:GLY:544:C:9884, V-B:TYR:539:CD2:9846, V-A:GLU:543:CG:4907, V-B:GLY:544:CA:9886, V-B:GLU:543:CD:9880, V-B:HIS:456:CG:9037, H-A:LYS:547:NZ:4951, V-A:LEU:475:CD2:4259, V-A:GLU:543:CB:4906, H-B:GLU:543:OE2:9882, V-A:LYS:547:CE:4950, H-A:TYR:484:OH:4348"]

$$$$
ZINC100716768
     RDKit          3D

 46 49  0  0  0  0  0  0  0  0999 V2000
  133.1750  126.0970   75.7710 C   0  0  0  0  0  0  0  0  0  0  0  0
  132.1420  126.5620   74.7680 C   0  0  0  0  0  0  0  0  0  0  0  0
  132.4210  126.6540   73.4720 N   0  0  0  0  0  0  0  0  0  0  0  0
  131.2950  127.0940   72.9700 C   0  0  0  0  0  0  0  0  0  0  0  0
  130.3720  127.2340   73.9760 N   0  0  0  0  0  0  0  0  0  0  0  0
  130.9200  126.8890   75.1420 N   0  0  0  0  0  0  0  0  0  0  0  0
  128.9970  127.6830   73.7360 C   0  0  1  0  0  0  0  0  0  0  0  0
  128.7630  129.1970   73.8820 C   0  0  0  0  0  0  0  0  0  0  0  0
  127.8070  129.6410   74.8030 C   0  0  0  0  0  0  0  0  0  0  0  0
  127.5610  131.0030   74.9640 C   0  0  0  0  0  0  0  0  0  0  0  0
  128.2680  131.9280   74.2000 C   0  0  0  0  0  0  0  0  0  0  0  0
  127.9620  133.6150   74.3970 Cl  0  0  0  0  0  0  0  0  0  0  0  0
  129.2200  131.5000   73.2770 C   0  0  0  0  0  0  0  0  0  0  0  0
  129.4680  130.1390   73.1180 C   0  0  0  0  0  0  0  0  0  0  0  0
  128.6060  127.1440   72.3140 C   0  0  0  0  0  0  0  0  0  0  0  0
  129.7430  127.3720   71.2700 C   0  0  0  0  0  0  0  0  0  0  0  0
  129.3870  127.5750   69.8540 C   0  0  0  0  0  0  0  0  0  0  0  0
  129.0910  128.8530   69.3690 C   0  0  0  0  0  0  0  0  0  0  0  0
  128.7500  129.0350   68.0320 C   0  0  0  0  0  0  0  0  0  0  0  0
  128.6950  127.9520   67.1380 C   0  0  0  0  0  0  0  0  0  0  0  0
  128.3460  128.1420   65.7710 N   0  0  0  0  0  0  0  0  0  0  0  0
  127.7160  129.3890   65.3370 C   0  0  0  0  0  0  0  0  0  0  0  0
  128.9550  127.3110   64.7320 C   0  0  0  0  0  0  0  0  0  0  0  0
  129.0060  126.6760   67.6380 C   0  0  0  0  0  0  0  0  0  0  0  0
  129.3480  126.4890   68.9740 C   0  0  0  0  0  0  0  0  0  0  0  0
  130.9700  127.2900   71.6560 N   0  0  0  0  0  0  0  0  0  0  0  0
  132.7984  126.2665   76.7905 H   0  0  0  0  0  0  0  0  0  0  0  0
  133.3701  125.0242   75.6258 H   0  0  0  0  0  0  0  0  0  0  0  0
  134.1075  126.6622   75.6258 H   0  0  0  0  0  0  0  0  0  0  0  0
  128.3444  127.2765   74.5227 H   0  0  0  0  0  0  0  0  0  0  0  0
  127.2462  128.9098   75.4037 H   0  0  0  0  0  0  0  0  0  0  0  0
  126.8111  131.3463   75.6919 H   0  0  0  0  0  0  0  0  0  0  0  0
  129.7743  132.2354   72.6754 H   0  0  0  0  0  0  0  0  0  0  0  0
  130.2202  129.8010   72.3900 H   0  0  0  0  0  0  0  0  0  0  0  0
  128.4016  126.0656   72.3867 H   0  0  0  0  0  0  0  0  0  0  0  0
  127.7169  127.6953   71.9741 H   0  0  0  0  0  0  0  0  0  0  0  0
  129.1279  129.7182   70.0473 H   0  0  0  0  0  0  0  0  0  0  0  0
  128.5189  130.0469   67.6677 H   0  0  0  0  0  0  0  0  0  0  0  0
  127.4194  129.9761   66.2186 H   0  0  0  0  0  0  0  0  0  0  0  0
  128.4291  129.9692   64.7330 H   0  0  0  0  0  0  0  0  0  0  0  0
  126.8258  129.1592   64.7330 H   0  0  0  0  0  0  0  0  0  0  0  0
  129.5429  126.5088   65.2019 H   0  0  0  0  0  0  0  0  0  0  0  0
  128.1655  126.8688   64.1065 H   0  0  0  0  0  0  0  0  0  0  0  0
  129.6144  127.9307   64.1065 H   0  0  0  0  0  0  0  0  0  0  0  0
  128.9786  125.8093   66.9611 H   0  0  0  0  0  0  0  0  0  0  0  0
  129.5892  125.4802   69.3402 H   0  0  0  0  0  0  0  0  0  0  0  0
  1  2  1  0
  2  3  1  0
  3  4  2  0
  4  5  1  0
  5  6  1  0
  5  7  1  0
  7  8  1  0
  8  9  2  0
  9 10  1  0
 10 11  2  0
 11 12  1  0
 11 13  1  0
 13 14  2  0
  7 15  1  0
 15 16  1  0
 16 17  1  0
 17 18  2  0
 18 19  1  0
 19 20  2  0
 20 21  1  0
 21 22  1  0
 21 23  1  0
 20 24  1  0
 24 25  2  0
 16 26  2  0
  6  2  2  0
 14  8  1  0
 25 17  1  0
 26  4  1  0
  1 27  1  0
  1 28  1  0
  1 29  1  0
  7 30  1  1
  9 31  1  0
 10 32  1  0
 13 33  1  0
 14 34  1  0
 15 35  1  0
 15 36  1  0
 18 37  1  0
 19 38  1  0
 22 39  1  0
 22 40  1  0
 22 41  1  0
 23 42  1  0
 23 43  1  0
 23 44  1  0
 24 45  1  0
 25 46  1  0
M  END
>  <Binding energies>  (1) 
[-6.52]

>  <Ligand effiencies>  (1) 
[-0.25076923076923074]

>  <Interactions>  (1) 
["V-A:GLU:543:CA:4904, V-B:HIS:456:CD2:9039, V-A:GLU:543:C:4902, V-B:GLU:543:CB:9878, V-A:GLY:544:C:4912, V-B:GLU:543:CG:9879, V-A:HIS:456:CD2:4068, V-A:LYS:547:CG:4948, V-B:TYR:484:CB:9312, V-A:GLU:543:CD:4908, V-B:HIS:456:CE1:9041, V-A:HIS:456:CE1:4070, V-A:GLU:543:CG:4907, V-B:GLU:543:CD:9880, H-A:LYS:547:NZ:4951, V-A:GLU:543:CB:4906, V-A:HIS:456:CG:4066, V-A:LYS:547:CE:4950, V-B:ASP:473:CB:9210, V-B:ASP:473:CG:9211, H-A:HIS:456:ND1:4067"]

$$$$
ZINC100744224
     RDKit          3D

 39 40  0  0  0  0  0  0  0  0999 V2000
  126.7860  122.4780   56.7780 C   0  0  0  0  0  0  0  0  0  0  0  0
  127.4770  122.8250   57.7240 C   0  0  0  0  0  0  0  0  0  0  0  0
  128.3120  123.2250   58.8710 C   0  0  0  0  0  0  0  0  0  0  0  0
  127.9960  122.4840   60.1900 C   0  0  2  0  0  0  0  0  0  0  0  0
  126.9830  123.2690   61.0480 C   0  0  0  0  0  0  0  0  0  0  0  0
  129.2100  122.2810   60.9190 O   0  0  0  0  0  0  0  0  0  0  0  0
  130.1060  123.2790   61.1150 C   0  0  0  0  0  0  0  0  0  0  0  0
  129.9010  124.3100   61.7610 O   0  0  0  0  0  0  0  0  0  0  0  0
  131.4660  122.9730   60.4500 C   0  0  2  0  0  0  0  0  0  0  0  0
  132.3470  121.9820   61.3150 C   0  0  1  0  0  0  0  0  0  0  0  0
  132.8870  120.8660   60.3920 C   0  0  0  0  0  0  0  0  0  0  0  0
  133.5310  122.6740   62.0680 C   0  0  0  0  0  0  0  0  0  0  0  0
  133.9740  124.0750   61.5460 C   0  0  2  0  0  0  0  0  0  0  0  0
  135.0860  124.7150   62.3970 C   0  0  0  0  0  0  0  0  0  0  0  0
  132.7740  124.9950   61.3270 C   0  0  0  0  0  0  0  0  0  0  0  0
  132.1480  124.3370   60.1050 C   0  0  1  0  0  0  0  0  0  0  0  0
  133.4320  124.0710   59.3180 C   0  0  0  0  0  0  0  0  0  0  0  0
  133.5890  123.9880   58.1020 O   0  0  0  0  0  0  0  0  0  0  0  0
  134.4540  123.9490   60.2020 O   0  0  0  0  0  0  0  0  0  0  0  0
  126.1639  122.1656   55.9263 H   0  0  0  0  0  0  0  0  0  0  0  0
  129.3637  123.0317   58.6130 H   0  0  0  0  0  0  0  0  0  0  0  0
  128.0994  124.2887   59.0538 H   0  0  0  0  0  0  0  0  0  0  0  0
  127.5413  121.5125   59.9461 H   0  0  0  0  0  0  0  0  0  0  0  0
  127.1982  123.1022   62.1138 H   0  0  0  0  0  0  0  0  0  0  0  0
  127.0643  124.3423   60.8211 H   0  0  0  0  0  0  0  0  0  0  0  0
  125.9640  122.9224   60.8211 H   0  0  0  0  0  0  0  0  0  0  0  0
  131.3265  122.4201   59.5093 H   0  0  0  0  0  0  0  0  0  0  0  0
  131.6952  121.5715   62.1003 H   0  0  0  0  0  0  0  0  0  0  0  0
  133.2849  120.0438   61.0049 H   0  0  0  0  0  0  0  0  0  0  0  0
  132.0718  120.4888   59.7571 H   0  0  0  0  0  0  0  0  0  0  0  0
  133.6887  121.2712   59.7571 H   0  0  0  0  0  0  0  0  0  0  0  0
  133.2333  122.7901   63.1206 H   0  0  0  0  0  0  0  0  0  0  0  0
  134.3988  122.0183   61.9036 H   0  0  0  0  0  0  0  0  0  0  0  0
  134.8540  124.5815   63.4639 H   0  0  0  0  0  0  0  0  0  0  0  0
  136.0473  124.2320   62.1675 H   0  0  0  0  0  0  0  0  0  0  0  0
  135.1512  125.7888   62.1675 H   0  0  0  0  0  0  0  0  0  0  0  0
  132.0910  124.9857   62.1892 H   0  0  0  0  0  0  0  0  0  0  0  0
  133.0255  126.0583   61.2000 H   0  0  0  0  0  0  0  0  0  0  0  0
  131.3620  124.9296   59.6142 H   0  0  0  0  0  0  0  0  0  0  0  0
  1  2  3  0
  2  3  1  0
  3  4  1  0
  4  5  1  0
  4  6  1  0
  6  7  1  0
  7  8  2  0
  7  9  1  0
  9 10  1  0
 10 11  1  0
 10 12  1  0
 12 13  1  0
 13 14  1  1
 13 15  1  0
 15 16  1  0
 16 17  1  0
 17 18  2  0
 17 19  1  0
 16  9  1  0
 19 13  1  0
  1 20  1  0
  3 21  1  0
  3 22  1  0
  4 23  1  6
  5 24  1  0
  5 25  1  0
  5 26  1  0
  9 27  1  6
 10 28  1  1
 11 29  1  0
 11 30  1  0
 11 31  1  0
 12 32  1  0
 12 33  1  0
 14 34  1  0
 14 35  1  0
 14 36  1  0
 15 37  1  0
 15 38  1  0
 16 39  1  6
M  END
>  <Binding energies>  (1) 
[-5.73]

>  <Ligand effiencies>  (1) 
[-0.30157894736842106]

>  <Interactions>  (1) 
["V-A:ILE:369:CG2:3237, V-A:ASP:366:CA:3210, V-B:PRO:540:CA:9855, V-A:ILE:369:CB:3236, V-B:TYR:539:CE2:9848, V-B:TYR:539:C:9839, V-A:ASP:366:CG:3213, V-B:TYR:539:CZ:9849, H-B:TYR:539:OH:9850, V-B:PRO:540:CB:9857, V-A:GLY:453:C:4042, V-B:PRO:540:N:9856, V-A:ILE:369:CD1:3239, V-B:TYR:539:CD2:9846, V-B:PRO:540:CD:9859, V-A:LEU:475:CD2:4259, V-A:ARG:545:CZ:4926, V-B:TYR:539:CD1:9845, V-A:GLY:453:CA:4044, V-B:PRO:540:C:9853"]

$$$$
ZINC100761984
     RDKit          3D

 68 73  0  0  0  0  0  0  0  0999 V2000
  126.8220  129.7310   59.6510 O   0  0  0  0  0  0  0  0  0  0  0  0
  127.4130  130.3730   60.5260 C   0  0  0  0  0  0  0  0  0  0  0  0
  127.8030  129.8620   61.8190 C   0  0  0  0  0  0  0  0  0  0  0  0
  127.6300  128.5610   62.1480 C   0  0  0  0  0  0  0  0  0  0  0  0
  128.1200  127.9500   63.3850 C   0  0  0  0  0  0  0  0  0  0  0  0
  128.8630  126.8020   63.4030 C   0  0  0  0  0  0  0  0  0  0  0  0
  129.2220  126.1130   62.2530 N   0  0  0  0  0  0  0  0  0  0  0  0
  128.6610  124.7760   61.9890 C   0  0  0  0  0  0  0  0  0  0  0  0
  128.4430  124.5510   60.4810 C   0  0  0  0  0  0  0  0  0  0  0  0
  129.7280  124.7700   59.6670 C   0  0  0  0  0  0  0  0  0  0  0  0
  129.4860  124.5290   58.1590 C   0  0  0  0  0  0  0  0  0  0  0  0
  128.0470  124.1730   57.8070 C   0  0  0  0  0  0  0  0  0  0  0  0
  127.0790  125.1780   57.7200 C   0  0  0  0  0  0  0  0  0  0  0  0
  125.7650  124.8500   57.3960 C   0  0  0  0  0  0  0  0  0  0  0  0
  125.4240  123.5200   57.1610 C   0  0  0  0  0  0  0  0  0  0  0  0
  126.3840  122.5140   57.2480 C   0  0  0  0  0  0  0  0  0  0  0  0
  127.6980  122.8410   57.5720 C   0  0  0  0  0  0  0  0  0  0  0  0
  130.2450  126.1870   59.9740 C   0  0  0  0  0  0  0  0  0  0  0  0
  130.4370  126.4410   61.4840 C   0  0  0  0  0  0  0  0  0  0  0  0
  129.3510  126.2560   64.5580 N   0  0  0  0  0  0  0  0  0  0  0  0
  129.1070  126.8180   65.6880 C   0  0  0  0  0  0  0  0  0  0  0  0
  129.6120  126.2630   66.9340 C   0  0  0  0  0  0  0  0  0  0  0  0
  129.3610  126.8420   68.1310 C   0  0  0  0  0  0  0  0  0  0  0  0
  128.5650  128.0580   68.1890 C   0  0  0  0  0  0  0  0  0  0  0  0
  128.1060  128.5570   67.0210 C   0  0  0  0  0  0  0  0  0  0  0  0
  128.3380  127.9950   65.7650 N   0  0  0  0  0  0  0  0  0  0  0  0
  127.8050  128.6200   64.6510 C   0  0  0  0  0  0  0  0  0  0  0  0
  127.1210  129.6500   64.6810 O   0  0  0  0  0  0  0  0  0  0  0  0
  128.5400  131.1440   62.7770 S   0  0  0  0  0  0  0  0  0  0  0  0
  128.4620  132.2600   61.4470 C   0  0  0  0  0  0  0  0  0  0  0  0
  129.1090  133.7890   61.6150 S   0  0  0  0  0  0  0  0  0  0  0  0
  127.8290  131.6590   60.3930 N   0  0  0  0  0  0  0  0  0  0  0  0
  127.6250  132.3740   59.1110 C   0  0  0  0  0  0  0  0  0  0  0  0
  128.6830  132.0670   58.0220 C   0  0  2  0  0  0  0  0  0  0  0  0
  129.8580  131.2120   58.4930 C   0  0  0  0  0  0  0  0  0  0  0  0
  131.0080  131.6120   57.5940 C   0  0  0  0  0  0  0  0  0  0  0  0
  130.5870  132.9640   57.0170 C   0  0  0  0  0  0  0  0  0  0  0  0
  129.3410  133.2740   57.6380 O   0  0  0  0  0  0  0  0  0  0  0  0
  127.0852  127.9200   61.4392 H   0  0  0  0  0  0  0  0  0  0  0  0
  129.3571  124.0135   62.3686 H   0  0  0  0  0  0  0  0  0  0  0  0
  127.6881  124.7002   62.4966 H   0  0  0  0  0  0  0  0  0  0  0  0
  128.0962  123.5190   60.3238 H   0  0  0  0  0  0  0  0  0  0  0  0
  127.6973  125.2823   60.1359 H   0  0  0  0  0  0  0  0  0  0  0  0
  130.4986  124.0401   59.9558 H   0  0  0  0  0  0  0  0  0  0  0  0
  129.7576  125.4457   57.6151 H   0  0  0  0  0  0  0  0  0  0  0  0
  130.1044  123.6653   57.8734 H   0  0  0  0  0  0  0  0  0  0  0  0
  127.3549  126.2262   57.9072 H   0  0  0  0  0  0  0  0  0  0  0  0
  125.0000  125.6373   57.3260 H   0  0  0  0  0  0  0  0  0  0  0  0
  124.3862  123.2613   56.9041 H   0  0  0  0  0  0  0  0  0  0  0  0
  126.1051  121.4664   57.0616 H   0  0  0  0  0  0  0  0  0  0  0  0
  128.4605  122.0513   57.6428 H   0  0  0  0  0  0  0  0  0  0  0  0
  131.2124  126.3250   59.4689 H   0  0  0  0  0  0  0  0  0  0  0  0
  129.4896  126.9001   59.6123 H   0  0  0  0  0  0  0  0  0  0  0  0
  131.2674  125.8177   61.8472 H   0  0  0  0  0  0  0  0  0  0  0  0
  130.6537  127.5100   61.6262 H   0  0  0  0  0  0  0  0  0  0  0  0
  130.2164  125.3445   66.9023 H   0  0  0  0  0  0  0  0  0  0  0  0
  129.7568  126.3955   69.0551 H   0  0  0  0  0  0  0  0  0  0  0  0
  128.3454  128.5520   69.1470 H   0  0  0  0  0  0  0  0  0  0  0  0
  127.5035  129.4763   67.0629 H   0  0  0  0  0  0  0  0  0  0  0  0
  126.6368  132.0949   58.7167 H   0  0  0  0  0  0  0  0  0  0  0  0
  127.7143  133.4469   59.3366 H   0  0  0  0  0  0  0  0  0  0  0  0
  128.1051  131.5557   57.2380 H   0  0  0  0  0  0  0  0  0  0  0  0
  130.0959  131.4255   59.5455 H   0  0  0  0  0  0  0  0  0  0  0  0
  129.6392  130.1355   58.4353 H   0  0  0  0  0  0  0  0  0  0  0  0
  131.9388  131.7084   58.1722 H   0  0  0  0  0  0  0  0  0  0  0  0
  131.2074  130.8656   56.8109 H   0  0  0  0  0  0  0  0  0  0  0  0
  131.3365  133.7332   57.2547 H   0  0  0  0  0  0  0  0  0  0  0  0
  130.4985  132.9294   55.9211 H   0  0  0  0  0  0  0  0  0  0  0  0
  1  2  2  0
  2  3  1  0
  3  4  2  0
  4  5  1  0
  5  6  2  0
  6  7  1  0
  7  8  1  0
  8  9  1  0
  9 10  1  0
 10 11  1  0
 11 12  1  0
 12 13  2  0
 13 14  1  0
 14 15  2  0
 15 16  1  0
 16 17  2  0
 10 18  1  0
 18 19  1  0
  6 20  1  0
 20 21  2  0
 21 22  1  0
 22 23  2  0
 23 24  1  0
 24 25  2  0
 25 26  1  0
 26 27  1  0
 27 28  2  0
  3 29  1  0
 29 30  1  0
 30 31  2  0
 30 32  1  0
 32 33  1  0
 33 34  1  0
 34 35  1  0
 35 36  1  0
 36 37  1  0
 37 38  1  0
 32  2  1  0
 38 34  1  0
 27  5  1  0
 19  7  1  0
 26 21  1  0
 17 12  1  0
  4 39  1  0
  8 40  1  0
  8 41  1  0
  9 42  1  0
  9 43  1  0
 10 44  1  0
 11 45  1  0
 11 46  1  0
 13 47  1  0
 14 48  1  0
 15 49  1  0
 16 50  1  0
 17 51  1  0
 18 52  1  0
 18 53  1  0
 19 54  1  0
 19 55  1  0
 22 56  1  0
 23 57  1  0
 24 58  1  0
 25 59  1  0
 33 60  1  0
 33 61  1  0
 34 62  1  6
 35 63  1  0
 35 64  1  0
 36 65  1  0
 36 66  1  0
 37 67  1  0
 37 68  1  0
M  END
>  <Binding energies>  (1) 
[-8.52]

>  <Ligand effiencies>  (1) 
[-0.22421052631578947]

>  <Interactions>  (1) 
["V-B:PRO:540:CA:9855, V-B:TYR:539:CE1:9847, V-B:GLU:543:CB:9878, V-A:PRO:540:C:4881, V-A:ILE:538:CB:4862, V-B:TYR:539:CE2:9848, V-B:GLU:543:CG:9879, V-B:TYR:539:C:9839, V-A:TYR:539:CD1:4873, V-B:TYR:539:CZ:9849, V-A:ALA:541:CB:4892, V-B:TYR:531:CE2:9765, V-A:GLU:543:CD:4908, V-B:PRO:540:CB:9857, H-B:TYR:484:OH:9319, V-B:HIS:456:CE1:9041, V-B:PRO:540:N:9856, V-A:HIS:456:CE1:4070, V-A:ALA:541:CA:4890, V-B:TYR:539:CD2:9846, V-A:GLU:543:CG:4907, V-B:PRO:540:CD:9859, V-B:GLU:543:CD:9880, V-A:TYR:539:C:4867, V-B:TYR:539:CG:9844, V-A:GLU:543:CB:4906, V-B:TYR:539:CD1:9845, V-A:PRO:540:N:4884, H-A:TYR:539:N:4870, V-B:LEU:363:CD1:8160, V-A:PRO:540:CA:4883, V-B:MET:535:CE:9807, V-A:PRO:540:CD:4887, V-A:TYR:539:CE1:4875"]

$$$$
ZINC100762110
     RDKit          3D

 71 75  0  0  0  0  0  0  0  0999 V2000
  129.4030  133.3520   56.7600 O   0  0  0  0  0  0  0  0  0  0  0  0
  130.5900  132.9540   56.7940 C   0  0  0  0  0  0  0  0  0  0  0  0
  131.5830  133.7190   56.8040 O   0  0  0  0  0  0  0  0  0  0  0  0
  130.7880  131.4180   56.8200 C   0  0  0  0  0  0  0  0  0  0  0  0
  131.1010  130.8160   58.2150 C   0  0  0  0  0  0  0  0  0  0  0  0
  130.3170  129.5160   58.4880 C   0  0  0  0  0  0  0  0  0  0  0  0
  131.0110  128.2410   57.9730 C   0  0  0  0  0  0  0  0  0  0  0  0
  130.2920  126.9380   58.3770 C   0  0  0  0  0  0  0  0  0  0  0  0
  130.3420  126.6560   59.8300 N   0  0  0  0  0  0  0  0  0  0  0  0
  129.3030  127.0210   60.6260 C   0  0  0  0  0  0  0  0  0  0  0  0
  128.2760  127.5770   60.2260 O   0  0  0  0  0  0  0  0  0  0  0  0
  129.5920  126.6780   62.0000 C   0  0  0  0  0  0  0  0  0  0  0  0
  128.7450  127.0020   63.0050 C   0  0  0  0  0  0  0  0  0  0  0  0
  129.0060  126.7570   64.4240 C   0  0  0  0  0  0  0  0  0  0  0  0
  129.4550  125.5580   64.9080 C   0  0  0  0  0  0  0  0  0  0  0  0
  129.7000  124.4630   64.0940 N   0  0  0  0  0  0  0  0  0  0  0  0
  128.6570  123.9210   63.2000 C   0  0  0  0  0  0  0  0  0  0  0  0
  129.2670  123.2130   61.9730 C   0  0  0  0  0  0  0  0  0  0  0  0
  130.2990  122.1430   62.3650 C   0  0  0  0  0  0  0  0  0  0  0  0
  130.9260  121.4280   61.1450 C   0  0  0  0  0  0  0  0  0  0  0  0
  130.5850  119.9450   61.0550 C   0  0  0  0  0  0  0  0  0  0  0  0
  129.5510  119.4210   61.8360 C   0  0  0  0  0  0  0  0  0  0  0  0
  129.2350  118.0680   61.7540 C   0  0  0  0  0  0  0  0  0  0  0  0
  129.9550  117.2420   60.8920 C   0  0  0  0  0  0  0  0  0  0  0  0
  130.9880  117.7580   60.1110 C   0  0  0  0  0  0  0  0  0  0  0  0
  131.3040  119.1120   60.1930 C   0  0  0  0  0  0  0  0  0  0  0  0
  131.3710  122.8360   63.2210 C   0  0  0  0  0  0  0  0  0  0  0  0
  130.7700  123.5210   64.4630 C   0  0  0  0  0  0  0  0  0  0  0  0
  129.6680  125.3300   66.2390 N   0  0  0  0  0  0  0  0  0  0  0  0
  129.4530  126.2650   67.0950 C   0  0  0  0  0  0  0  0  0  0  0  0
  129.6650  126.0530   68.5170 C   0  0  0  0  0  0  0  0  0  0  0  0
  129.4470  127.0280   69.4290 C   0  0  0  0  0  0  0  0  0  0  0  0
  128.9840  128.3340   68.9870 C   0  0  0  0  0  0  0  0  0  0  0  0
  128.7910  128.5100   67.6620 C   0  0  0  0  0  0  0  0  0  0  0  0
  129.0030  127.5350   66.6860 N   0  0  0  0  0  0  0  0  0  0  0  0
  128.7620  127.8590   65.3620 C   0  0  0  0  0  0  0  0  0  0  0  0
  128.3750  128.9650   64.9680 O   0  0  0  0  0  0  0  0  0  0  0  0
  131.1420  125.8430   62.1010 S   0  0  0  0  0  0  0  0  0  0  0  0
  131.4240  126.0400   60.3960 C   0  0  0  0  0  0  0  0  0  0  0  0
  132.8530  125.4920   59.7290 S   0  0  0  0  0  0  0  0  0  0  0  0
  129.8655  130.9496   56.4464 H   0  0  0  0  0  0  0  0  0  0  0  0
  131.6693  131.2132   56.1944 H   0  0  0  0  0  0  0  0  0  0  0  0
  132.1775  130.5968   58.2709 H   0  0  0  0  0  0  0  0  0  0  0  0
  130.7980  131.5538   58.9725 H   0  0  0  0  0  0  0  0  0  0  0  0
  130.1783  129.4184   59.5749 H   0  0  0  0  0  0  0  0  0  0  0  0
  129.3651  129.6002   57.9431 H   0  0  0  0  0  0  0  0  0  0  0  0
  131.0535  128.2881   56.8748 H   0  0  0  0  0  0  0  0  0  0  0  0
  132.0108  128.2118   58.4307 H   0  0  0  0  0  0  0  0  0  0  0  0
  129.2373  127.0153   58.0744 H   0  0  0  0  0  0  0  0  0  0  0  0
  130.8145  126.1126   57.8713 H   0  0  0  0  0  0  0  0  0  0  0  0
  127.7932  127.4835   62.7361 H   0  0  0  0  0  0  0  0  0  0  0  0
  128.0469  123.1982   63.7615 H   0  0  0  0  0  0  0  0  0  0  0  0
  128.0437  124.7606   62.8409 H   0  0  0  0  0  0  0  0  0  0  0  0
  128.4576  122.7314   61.4048 H   0  0  0  0  0  0  0  0  0  0  0  0
  129.7856  123.9737   61.3711 H   0  0  0  0  0  0  0  0  0  0  0  0
  129.7963  121.3455   62.9319 H   0  0  0  0  0  0  0  0  0  0  0  0
  130.5653  121.9223   60.2309 H   0  0  0  0  0  0  0  0  0  0  0  0
  132.0177  121.4979   61.2606 H   0  0  0  0  0  0  0  0  0  0  0  0
  128.9873  120.0776   62.5151 H   0  0  0  0  0  0  0  0  0  0  0  0
  128.4211  117.6524   62.3663 H   0  0  0  0  0  0  0  0  0  0  0  0
  129.7055  116.1726   60.8275 H   0  0  0  0  0  0  0  0  0  0  0  0
  131.5507  117.0991   59.4334 H   0  0  0  0  0  0  0  0  0  0  0  0
  132.1185  119.5254   59.5801 H   0  0  0  0  0  0  0  0  0  0  0  0
  132.1024  122.0834   63.5505 H   0  0  0  0  0  0  0  0  0  0  0  0
  131.8464  123.6125   62.6037 H   0  0  0  0  0  0  0  0  0  0  0  0
  130.3545  122.7513   65.1300 H   0  0  0  0  0  0  0  0  0  0  0  0
  131.5686  124.0853   64.9667 H   0  0  0  0  0  0  0  0  0  0  0  0
  130.0137  125.0687   68.8626 H   0  0  0  0  0  0  0  0  0  0  0  0
  129.6188  126.8343   70.4981 H   0  0  0  0  0  0  0  0  0  0  0  0
  128.7982  129.1470   69.7043 H   0  0  0  0  0  0  0  0  0  0  0  0
  128.4400  129.4970   67.3264 H   0  0  0  0  0  0  0  0  0  0  0  0
  1  2  2  0
  2  3  1  0
  2  4  1  0
  4  5  1  0
  5  6  1  0
  6  7  1  0
  7  8  1  0
  8  9  1  0
  9 10  1  0
 10 11  2  0
 10 12  1  0
 12 13  2  0
 13 14  1  0
 14 15  2  0
 15 16  1  0
 16 17  1  0
 17 18  1  0
 18 19  1  0
 19 20  1  0
 20 21  1  0
 21 22  2  0
 22 23  1  0
 23 24  2  0
 24 25  1  0
 25 26  2  0
 19 27  1  0
 27 28  1  0
 15 29  1  0
 29 30  2  0
 30 31  1  0
 31 32  2  0
 32 33  1  0
 33 34  2  0
 34 35  1  0
 35 36  1  0
 36 37  2  0
 12 38  1  0
 38 39  1  0
 39 40  2  0
 39  9  1  0
 36 14  1  0
 28 16  1  0
 35 30  1  0
 26 21  1  0
  4 41  1  0
  4 42  1  0
  5 43  1  0
  5 44  1  0
  6 45  1  0
  6 46  1  0
  7 47  1  0
  7 48  1  0
  8 49  1  0
  8 50  1  0
 13 51  1  0
 17 52  1  0
 17 53  1  0
 18 54  1  0
 18 55  1  0
 19 56  1  0
 20 57  1  0
 20 58  1  0
 22 59  1  0
 23 60  1  0
 24 61  1  0
 25 62  1  0
 26 63  1  0
 27 64  1  0
 27 65  1  0
 28 66  1  0
 28 67  1  0
 31 68  1  0
 32 69  1  0
 33 70  1  0
 34 71  1  0
M  CHG  1   3  -1
M  END
>  <Binding energies>  (1) 
[-8.27]

>  <Ligand effiencies>  (1) 
[-0.20675]

>  <Interactions>  (1) 
["V-A:ASP:366:CA:3210, V-B:GLU:543:CB:9878, V-A:ILE:538:CB:4862, V-B:ALA:541:CB:9864, V-B:TYR:539:CE2:9848, V-A:TYR:484:CE2:4346, V-B:GLU:543:CG:9879, V-B:TYR:539:C:9839, V-A:ASP:366:CG:3213, V-A:ILE:538:CA:4860, V-A:LEU:475:CD1:4258, V-B:TYR:539:CB:9843, V-A:HIS:383:CE1:3393, V-A:GLU:543:CD:4908, V-B:HIS:456:CE1:9041, V-A:HIS:456:CE1:4070, V-A:PRO:482:CB:4326, V-B:TYR:539:CD2:9846, V-A:TYR:531:CZ:4794, V-A:GLU:543:CG:4907, V-A:MET:535:CE:4835, V-B:GLU:543:CD:9880, V-A:ASP:366:CB:3212, V-A:LEU:475:CD2:4259, H-A:ARG:545:NH2:4928, V-B:TYR:539:CG:9844, V-A:GLU:543:CB:4906, V-A:HIS:383:CD2:3392, V-A:PRO:540:N:4884, H-A:TYR:539:N:4870, V-A:PRO:482:CG:4327, V-B:PRO:540:C:9853, V-B:ALA:541:CA:9862, V-A:PRO:540:CD:4887, V-A:HIS:383:NE2:3394"]

$$$$
ZINC100776709
     RDKit          3D

 96100  0  0  0  0  0  0  0  0999 V2000
  129.8230  125.6390   66.9960 C   0  0  0  0  0  0  0  0  0  0  0  0
  130.6290  125.2630   65.7660 C   0  0  0  0  0  0  0  0  0  0  0  0
  131.9780  125.1600   65.6620 C   0  0  0  0  0  0  0  0  0  0  0  0
  132.9560  125.4710   66.7980 C   0  0  0  0  0  0  0  0  0  0  0  0
  132.6220  124.7760   64.3850 C   0  0  0  0  0  0  0  0  0  0  0  0
  133.8470  124.7530   64.2370 O   0  0  0  0  0  0  0  0  0  0  0  0
  131.7430  124.4700   63.3890 O   0  0  0  0  0  0  0  0  0  0  0  0
  132.1190  123.7830   62.1870 C   0  0  1  0  0  0  0  0  0  0  0  0
  131.5330  122.3150   62.2020 C   0  0  2  0  0  0  0  0  0  0  0  0
  132.4710  121.4010   61.6600 O   0  0  0  0  0  0  0  0  0  0  0  0
  130.0280  122.1360   61.7170 C   0  0  0  0  0  0  0  0  0  0  0  0
  129.7750  120.6730   61.2690 C   0  0  0  0  0  0  0  0  0  0  0  0
  129.0810  122.4970   62.8940 C   0  0  0  0  0  0  0  0  0  0  0  0
  129.7150  123.0540   60.4860 C   0  0  0  0  0  0  0  0  0  0  0  0
  130.2550  124.4830   60.6730 C   0  0  2  0  0  0  0  0  0  0  0  0
  129.5000  125.6850   60.0460 C   0  0  0  0  0  0  0  0  0  0  0  0
  128.3650  126.1640   60.6110 C   0  0  0  0  0  0  0  0  0  0  0  0
  127.7360  127.5190   60.3550 C   0  0  0  0  0  0  0  0  0  0  0  0
  128.7020  128.4600   59.5740 C   0  0  2  0  0  0  0  0  0  0  0  0
  128.1360  129.9300   59.3260 C   0  0  1  0  0  0  0  0  0  0  0  0
  126.8150  129.9290   58.4860 C   0  0  0  0  0  0  0  0  0  0  0  0
  127.8430  130.5980   60.7110 C   0  0  0  0  0  0  0  0  0  0  0  0
  127.5820  132.1190   60.6510 C   0  0  0  0  0  0  0  0  0  0  0  0
  128.7560  132.8840   60.0040 C   0  0  1  0  0  0  0  0  0  0  0  0
  129.8410  132.8510   60.9270 O   0  0  0  0  0  0  0  0  0  0  0  0
  129.0980  132.3220   58.5730 C   0  0  1  0  0  0  0  0  0  0  0  0
  127.9920  132.7630   57.5600 C   0  0  0  0  0  0  0  0  0  0  0  0
  130.4350  132.9870   58.1140 C   0  0  0  0  0  0  0  0  0  0  0  0
  130.6290  133.4360   56.9830 O   0  0  0  0  0  0  0  0  0  0  0  0
  129.3060  130.7500   58.6430 C   0  0  2  0  0  0  0  0  0  0  0  0
  129.7110  130.0730   57.3020 C   0  0  0  0  0  0  0  0  0  0  0  0
  130.2820  128.6620   57.5190 C   0  0  0  0  0  0  0  0  0  0  0  0
  129.3810  127.6930   58.3640 C   0  0  2  0  0  0  0  0  0  0  0  0
  128.2630  127.2020   57.3830 C   0  0  0  0  0  0  0  0  0  0  0  0
  130.2590  126.4590   58.9440 C   0  0  2  0  0  0  0  0  0  0  0  0
  130.5360  125.4580   57.7750 C   0  0  0  0  0  0  0  0  0  0  0  0
  131.6270  126.9090   59.6250 C   0  0  0  0  0  0  0  0  0  0  0  0
  132.1230  126.1580   60.9170 C   0  0  1  0  0  0  0  0  0  0  0  0
  131.5930  126.8290   62.0520 O   0  0  0  0  0  0  0  0  0  0  0  0
  131.8140  124.6140   60.8680 C   0  0  1  0  0  0  0  0  0  0  0  0
  132.8090  124.0630   59.7650 C   0  0  0  0  0  0  0  0  0  0  0  0
  132.8990  122.6670   59.5840 O   0  0  0  0  0  0  0  0  0  0  0  0
  130.3899  125.3745   67.9008 H   0  0  0  0  0  0  0  0  0  0  0  0
  129.6272  126.7214   66.9893 H   0  0  0  0  0  0  0  0  0  0  0  0
  128.8678  125.0935   66.9893 H   0  0  0  0  0  0  0  0  0  0  0  0
  130.0530  125.0493   64.8535 H   0  0  0  0  0  0  0  0  0  0  0  0
  132.4569  125.3123   67.7653 H   0  0  0  0  0  0  0  0  0  0  0  0
  133.8291  124.8062   66.7225 H   0  0  0  0  0  0  0  0  0  0  0  0
  133.2848  126.5180   66.7225 H   0  0  0  0  0  0  0  0  0  0  0  0
  133.2145  123.6856   62.1644 H   0  0  0  0  0  0  0  0  0  0  0  0
  131.4010  122.0542   63.2624 H   0  0  0  0  0  0  0  0  0  0  0  0
  133.0480  121.8760   61.0590 H   0  0  0  0  0  0  0  0  0  0  0  0
  129.6641  120.0319   62.1560 H   0  0  0  0  0  0  0  0  0  0  0  0
  128.8557  120.6277   60.6666 H   0  0  0  0  0  0  0  0  0  0  0  0
  130.6257  120.3217   60.6666 H   0  0  0  0  0  0  0  0  0  0  0  0
  129.5918  122.3023   63.8486 H   0  0  0  0  0  0  0  0  0  0  0  0
  128.8102  123.5614   62.8335 H   0  0  0  0  0  0  0  0  0  0  0  0
  128.1703  121.8830   62.8335 H   0  0  0  0  0  0  0  0  0  0  0  0
  130.1781  122.6149   59.5900 H   0  0  0  0  0  0  0  0  0  0  0  0
  128.6218  123.1175   60.3819 H   0  0  0  0  0  0  0  0  0  0  0  0
  129.8723  124.6620   61.6886 H   0  0  0  0  0  0  0  0  0  0  0  0
  127.8499  125.5048   61.3253 H   0  0  0  0  0  0  0  0  0  0  0  0
  126.8176  127.3809   59.7655 H   0  0  0  0  0  0  0  0  0  0  0  0
  127.5122  127.9842   61.3264 H   0  0  0  0  0  0  0  0  0  0  0  0
  129.5517  128.7177   60.2233 H   0  0  0  0  0  0  0  0  0  0  0  0
  125.9491  129.9283   59.1644 H   0  0  0  0  0  0  0  0  0  0  0  0
  126.7832  130.8271   57.8517 H   0  0  0  0  0  0  0  0  0  0  0  0
  126.7845  129.0308   57.8517 H   0  0  0  0  0  0  0  0  0  0  0  0
  126.9546  130.1146   61.1436 H   0  0  0  0  0  0  0  0  0  0  0  0
  128.7490  130.4618   61.3197 H   0  0  0  0  0  0  0  0  0  0  0  0
  126.6721  132.2998   60.0599 H   0  0  0  0  0  0  0  0  0  0  0  0
  127.4669  132.4841   61.6823 H   0  0  0  0  0  0  0  0  0  0  0  0
  128.4943  133.9354   59.8138 H   0  0  0  0  0  0  0  0  0  0  0  0
  129.5010  133.0330   61.8060 H   0  0  0  0  0  0  0  0  0  0  0  0
  127.1084  133.1153   58.1123 H   0  0  0  0  0  0  0  0  0  0  0  0
  128.3774  133.5763   56.9275 H   0  0  0  0  0  0  0  0  0  0  0  0
  127.7121  131.9077   56.9275 H   0  0  0  0  0  0  0  0  0  0  0  0
  131.2535  133.0588   58.8453 H   0  0  0  0  0  0  0  0  0  0  0  0
  130.1728  130.6967   59.3181 H   0  0  0  0  0  0  0  0  0  0  0  0
  128.8223  130.0014   56.6577 H   0  0  0  0  0  0  0  0  0  0  0  0
  130.4934  130.6880   56.8334 H   0  0  0  0  0  0  0  0  0  0  0  0
  130.4393  128.2041   56.5313 H   0  0  0  0  0  0  0  0  0  0  0  0
  131.2082  128.7957   58.0972 H   0  0  0  0  0  0  0  0  0  0  0  0
  127.4066  126.8259   57.9618 H   0  0  0  0  0  0  0  0  0  0  0  0
  127.9375  128.0400   56.7491 H   0  0  0  0  0  0  0  0  0  0  0  0
  128.6598  126.3953   56.7491 H   0  0  0  0  0  0  0  0  0  0  0  0
  130.8077  124.4761   58.1897 H   0  0  0  0  0  0  0  0  0  0  0  0
  129.6320  125.3574   57.1565 H   0  0  0  0  0  0  0  0  0  0  0  0
  131.3632  125.8364   57.1565 H   0  0  0  0  0  0  0  0  0  0  0  0
  132.4157  126.7990   58.8661 H   0  0  0  0  0  0  0  0  0  0  0  0
  131.4211  127.9304   59.9778 H   0  0  0  0  0  0  0  0  0  0  0  0
  133.2204  126.1964   60.9827 H   0  0  0  0  0  0  0  0  0  0  0  0
  131.8130  126.3200   62.8350 H   0  0  0  0  0  0  0  0  0  0  0  0
  132.5011  124.4972   58.8024 H   0  0  0  0  0  0  0  0  0  0  0  0
  133.8056  124.3549   60.1278 H   0  0  0  0  0  0  0  0  0  0  0  0
  132.0330  122.2820   59.7390 H   0  0  0  0  0  0  0  0  0  0  0  0
  1  2  1  0
  2  3  2  0
  3  4  1  0
  3  5  1  0
  5  6  2  0
  5  7  1  0
  7  8  1  0
  8  9  1  0
  9 10  1  0
  9 11  1  0
 11 12  1  0
 11 13  1  0
 11 14  1  0
 14 15  1  0
 15 16  1  0
 16 17  2  0
 17 18  1  0
 18 19  1  0
 19 20  1  0
 20 21  1  6
 20 22  1  0
 22 23  1  0
 23 24  1  0
 24 25  1  0
 24 26  1  0
 26 27  1  6
 26 28  1  0
 28 29  2  0
 26 30  1  0
 30 31  1  0
 31 32  1  0
 32 33  1  0
 33 34  1  6
 33 35  1  0
 35 36  1  6
 35 37  1  0
 37 38  1  0
 38 39  1  0
 38 40  1  0
 40 41  1  6
 41 42  1  0
 40  8  1  0
 40 15  1  0
 35 16  1  0
 33 19  1  0
 30 20  1  0
  1 43  1  0
  1 44  1  0
  1 45  1  0
  2 46  1  0
  4 47  1  0
  4 48  1  0
  4 49  1  0
  8 50  1  1
  9 51  1  1
 10 52  1  0
 12 53  1  0
 12 54  1  0
 12 55  1  0
 13 56  1  0
 13 57  1  0
 13 58  1  0
 14 59  1  0
 14 60  1  0
 15 61  1  1
 17 62  1  0
 18 63  1  0
 18 64  1  0
 19 65  1  1
 21 66  1  0
 21 67  1  0
 21 68  1  0
 22 69  1  0
 22 70  1  0
 23 71  1  0
 23 72  1  0
 24 73  1  6
 25 74  1  0
 27 75  1  0
 27 76  1  0
 27 77  1  0
 28 78  1  0
 30 79  1  1
 31 80  1  0
 31 81  1  0
 32 82  1  0
 32 83  1  0
 34 84  1  0
 34 85  1  0
 34 86  1  0
 36 87  1  0
 36 88  1  0
 36 89  1  0
 37 90  1  0
 37 91  1  0
 38 92  1  1
 39 93  1  0
 41 94  1  0
 41 95  1  0
 42 96  1  0
M  END
>  <Binding energies>  (1) 
[-8.26]

>  <Ligand effiencies>  (1) 
[-0.17956521739130435]

>  <Interactions>  (1) 
["H-A:GLU:543:OE2:4910, H-A:ALA:541:N:4891, V-B:GLU:543:CB:9878, V-B:ALA:541:CB:9864, H-A:ARG:545:NH1:4927, V-B:TYR:539:CE2:9848, V-B:GLU:543:CG:9879, V-B:TYR:539:C:9839, V-A:ASP:366:CG:3213, V-A:TYR:539:CD1:4873, V-B:TYR:539:CZ:9849, V-A:TYR:539:CZ:4877, V-A:TYR:484:CZ:4347, V-A:ARG:545:CG:4922, H-A:GLY:454:N:4050, V-A:HIS:456:CE1:4070, V-B:TYR:539:CD2:9846, V-A:MET:535:CE:4835, V-A:TYR:539:C:4867, V-A:ASP:366:CB:3212, V-A:ARG:545:CD:4923, V-A:LEU:475:CD2:4259, H-A:ARG:545:NH2:4928, V-A:ARG:545:CZ:4926, H-A:GLU:543:OE1:4909, V-A:PRO:540:N:4884, V-A:TYR:539:CG:4872, H-A:TYR:539:N:4870, V-A:PRO:540:CB:4885, V-A:PRO:540:CA:4883, H-A:ARG:545:NE:4924, V-A:PRO:540:CD:4887, V-A:TYR:539:CE1:4875, H-A:TYR:484:OH:4348"]

$$$$
ZINC100832411
     RDKit          3D

 66 72  0  0  0  0  0  0  0  0999 V2000
  133.2860  126.0880   56.7100 O   0  0  0  0  0  0  0  0  0  0  0  0
  132.3660  125.9000   57.7060 C   0  0  0  0  0  0  0  0  0  0  0  0
  131.3360  126.8230   57.8850 C   0  0  0  0  0  0  0  0  0  0  0  0
  130.3930  126.6380   58.8990 C   0  0  0  0  0  0  0  0  0  0  0  0
  129.3930  127.5610   59.0550 O   0  0  0  0  0  0  0  0  0  0  0  0
  130.4710  125.5260   59.7550 C   0  0  0  0  0  0  0  0  0  0  0  0
  131.5240  124.5990   59.5550 C   0  0  0  0  0  0  0  0  0  0  0  0
  132.4600  124.7880   58.5400 C   0  0  0  0  0  0  0  0  0  0  0  0
  131.6900  123.4640   60.3420 O   0  0  0  0  0  0  0  0  0  0  0  0
  130.6370  123.0840   61.2320 C   0  0  1  0  0  0  0  0  0  0  0  0
  130.5600  121.5300   61.2320 C   0  0  0  0  0  0  0  0  0  0  0  0
  129.5960  120.8770   62.0090 C   0  0  0  0  0  0  0  0  0  0  0  0
  129.5100  119.4850   62.0160 C   0  0  0  0  0  0  0  0  0  0  0  0
  130.3850  118.7240   61.2420 C   0  0  0  0  0  0  0  0  0  0  0  0
  130.2800  117.3550   61.2630 O   0  0  0  0  0  0  0  0  0  0  0  0
  131.3520  119.3640   60.4560 C   0  0  0  0  0  0  0  0  0  0  0  0
  132.2240  118.6420   59.6790 O   0  0  0  0  0  0  0  0  0  0  0  0
  131.4360  120.7570   60.4550 C   0  0  0  0  0  0  0  0  0  0  0  0
  131.0100  123.4650   62.5620 O   0  0  0  0  0  0  0  0  0  0  0  0
  130.3700  124.5550   63.1440 C   0  0  0  0  0  0  0  0  0  0  0  0
  130.5230  124.7100   64.5180 C   0  0  0  0  0  0  0  0  0  0  0  0
  129.9310  125.7930   65.1680 C   0  0  0  0  0  0  0  0  0  0  0  0
  130.1260  125.9290   66.5190 O   0  0  0  0  0  0  0  0  0  0  0  0
  129.1660  126.7310   64.4590 C   0  0  0  0  0  0  0  0  0  0  0  0
  128.9920  126.5400   63.0730 C   0  0  0  0  0  0  0  0  0  0  0  0
  129.6030  125.4760   62.3930 C   0  0  0  0  0  0  0  0  0  0  0  0
  129.4610  125.2440   60.8810 C   0  0  2  0  0  0  0  0  0  0  0  0
  129.2690  123.7030   60.8170 C   0  0  1  0  0  0  0  0  0  0  0  0
  128.7510  123.2350   59.5770 O   0  0  0  0  0  0  0  0  0  0  0  0
  128.1700  127.3420   62.2960 O   0  0  0  0  0  0  0  0  0  0  0  0
  127.8900  128.6640   62.7840 C   0  0  2  0  0  0  0  0  0  0  0  0
  129.0020  129.6860   62.4760 C   0  0  0  0  0  0  0  0  0  0  0  0
  129.1010  130.8530   63.2450 C   0  0  0  0  0  0  0  0  0  0  0  0
  130.0740  131.8110   62.9690 C   0  0  0  0  0  0  0  0  0  0  0  0
  130.9610  131.6270   61.9090 C   0  0  0  0  0  0  0  0  0  0  0  0
  131.9050  132.5890   61.6510 O   0  0  0  0  0  0  0  0  0  0  0  0
  130.8670  130.4730   61.1200 C   0  0  0  0  0  0  0  0  0  0  0  0
  131.7140  130.2670   60.0600 O   0  0  0  0  0  0  0  0  0  0  0  0
  129.8930  129.5150   61.4060 C   0  0  0  0  0  0  0  0  0  0  0  0
  127.4340  128.5610   64.2670 C   0  0  2  0  0  0  0  0  0  0  0  0
  126.9490  129.7710   64.8150 O   0  0  0  0  0  0  0  0  0  0  0  0
  128.5610  127.9670   65.1270 C   0  0  0  0  0  0  0  0  0  0  0  0
  133.3930  127.0120   56.4720 H   0  0  0  0  0  0  0  0  0  0  0  0
  131.2658  127.7003   57.2251 H   0  0  0  0  0  0  0  0  0  0  0  0
  129.0150  127.5570   59.9370 H   0  0  0  0  0  0  0  0  0  0  0  0
  133.2722  124.0600   58.3975 H   0  0  0  0  0  0  0  0  0  0  0  0
  128.8987  121.4682   62.6207 H   0  0  0  0  0  0  0  0  0  0  0  0
  128.7493  118.9859   62.6342 H   0  0  0  0  0  0  0  0  0  0  0  0
  131.0920  116.9130   61.0110 H   0  0  0  0  0  0  0  0  0  0  0  0
  132.1870  117.6980   59.8480 H   0  0  0  0  0  0  0  0  0  0  0  0
  132.1982  121.2550   59.8376 H   0  0  0  0  0  0  0  0  0  0  0  0
  131.1108  123.9785   65.0919 H   0  0  0  0  0  0  0  0  0  0  0  0
  130.7420  126.6310   66.7390 H   0  0  0  0  0  0  0  0  0  0  0  0
  128.7225  126.0201   60.6315 H   0  0  0  0  0  0  0  0  0  0  0  0
  128.4822  123.3757   61.5126 H   0  0  0  0  0  0  0  0  0  0  0  0
  129.4870  122.9610   59.0240 H   0  0  0  0  0  0  0  0  0  0  0  0
  127.0492  129.1004   62.2249 H   0  0  0  0  0  0  0  0  0  0  0  0
  128.4010  131.0149   64.0779 H   0  0  0  0  0  0  0  0  0  0  0  0
  130.1428  132.7164   63.5899 H   0  0  0  0  0  0  0  0  0  0  0  0
  132.5000  132.7370   62.3900 H   0  0  0  0  0  0  0  0  0  0  0  0
  132.4640  129.7100   60.2820 H   0  0  0  0  0  0  0  0  0  0  0  0
  129.8229  128.6115   60.7824 H   0  0  0  0  0  0  0  0  0  0  0  0
  126.5681  127.8826   64.2755 H   0  0  0  0  0  0  0  0  0  0  0  0
  126.0640  129.9280   64.4740 H   0  0  0  0  0  0  0  0  0  0  0  0
  129.3474  128.7241   65.2625 H   0  0  0  0  0  0  0  0  0  0  0  0
  128.1409  127.6700   66.0993 H   0  0  0  0  0  0  0  0  0  0  0  0
  1  2  1  0
  2  3  2  0
  3  4  1  0
  4  5  1  0
  4  6  2  0
  6  7  1  0
  7  8  2  0
  7  9  1  0
  9 10  1  0
 10 11  1  1
 11 12  2  0
 12 13  1  0
 13 14  2  0
 14 15  1  0
 14 16  1  0
 16 17  1  0
 16 18  2  0
 10 19  1  0
 19 20  1  0
 20 21  2  0
 21 22  1  0
 22 23  1  0
 22 24  2  0
 24 25  1  0
 25 26  2  0
 26 27  1  0
 27 28  1  0
 28 29  1  0
 25 30  1  0
 30 31  1  0
 31 32  1  0
 32 33  2  0
 33 34  1  0
 34 35  2  0
 35 36  1  0
 35 37  1  0
 37 38  1  0
 37 39  2  0
 31 40  1  0
 40 41  1  0
 40 42  1  0
  8  2  1  0
 28 10  1  0
 39 32  1  0
 27  6  1  0
 18 11  1  0
 26 20  1  0
 42 24  1  0
  1 43  1  0
  3 44  1  0
  5 45  1  0
  8 46  1  0
 12 47  1  0
 13 48  1  0
 15 49  1  0
 17 50  1  0
 18 51  1  0
 21 52  1  0
 23 53  1  0
 27 54  1  6
 28 55  1  1
 29 56  1  0
 31 57  1  6
 33 58  1  0
 34 59  1  0
 36 60  1  0
 38 61  1  0
 39 62  1  0
 40 63  1  6
 41 64  1  0
 42 65  1  0
 42 66  1  0
M  END
>  <Binding energies>  (1) 
[-4.7]

>  <Ligand effiencies>  (1) 
[-0.09215686274509804]

>  <Interactions>  (1) 
["H-A:GLU:543:OE2:4910, H-A:ALA:541:N:4891, H-A:ALA:541:O:4889, V-B:ALA:541:CB:9864, H-A:TYR:531:OH:4795, V-B:TYR:539:CE2:9848, V-A:LEU:475:CG:4257, V-B:GLU:543:CG:9879, V-B:TYR:539:CZ:9849, H-B:TYR:539:OH:9850, V-A:ALA:541:CB:4892, V-A:LEU:475:CD1:4258, V-A:GLU:543:CD:4908, H-B:TYR:484:OH:9319, V-B:TYR:539:CD2:9846, V-A:TYR:531:CZ:4794, V-A:GLU:543:CG:4907, H-A:SER:385:OG:3410, V-B:GLU:543:CD:9880, V-A:ASP:366:CB:3212, V-A:LEU:475:CD2:4259, H-A:ASP:366:O:3209, H-A:HIS:383:HE2:3395, H-B:GLU:543:OE2:9882, V-A:PRO:540:CA:4883, V-B:PRO:540:C:9853, H-A:ASP:366:OD2:3215, V-B:ALA:541:CA:9862"]

$$$$
ZINC100840533-again1
     RDKit          3D

 86 89  0  0  0  0  0  0  0  0999 V2000
  128.1390  133.2330   60.3850 C   0  0  0  0  0  0  0  0  0  0  0  0
  128.1090  132.5480   61.7480 C   0  0  0  0  0  0  0  0  0  0  0  0
  128.0300  133.3070   62.8710 C   0  0  0  0  0  0  0  0  0  0  0  0
  127.9960  132.6960   64.1880 C   0  0  0  0  0  0  0  0  0  0  0  0
  128.0420  131.3510   64.2470 C   0  0  0  0  0  0  0  0  0  0  0  0
  128.1220  130.5060   63.1440 N   0  0  0  0  0  0  0  0  0  0  0  0
  128.1500  129.1400   63.3640 C   0  0  0  0  0  0  0  0  0  0  0  0
  128.0880  128.6060   64.4770 O   0  0  0  0  0  0  0  0  0  0  0  0
  128.2570  128.3370   62.1380 C   0  0  0  0  0  0  0  0  0  0  0  0
  128.2480  126.8770   62.2490 C   0  0  0  0  0  0  0  0  0  0  0  0
  129.3230  126.1160   62.5610 C   0  0  0  0  0  0  0  0  0  0  0  0
  130.9790  126.6310   62.8800 S   0  0  0  0  0  0  0  0  0  0  0  0
  131.4940  124.9930   63.1700 C   0  0  0  0  0  0  0  0  0  0  0  0
  133.0820  124.6870   63.5850 S   0  0  0  0  0  0  0  0  0  0  0  0
  130.4300  124.1510   62.9980 N   0  0  0  0  0  0  0  0  0  0  0  0
  130.5670  122.6890   63.1780 C   0  0  0  0  0  0  0  0  0  0  0  0
  130.2630  122.2140   64.6130 C   0  0  0  0  0  0  0  0  0  0  0  0
  129.5260  123.2770   65.4440 C   0  0  0  0  0  0  0  0  0  0  0  0
  130.4820  124.2980   66.0880 C   0  0  0  0  0  0  0  0  0  0  0  0
  129.8380  125.6800   66.2990 C   0  0  0  0  0  0  0  0  0  0  0  0
  129.4920  125.9560   67.7730 C   0  0  0  0  0  0  0  0  0  0  0  0
  130.1760  127.2180   68.3270 C   0  0  0  0  0  0  0  0  0  0  0  0
  129.1870  128.1830   69.0130 C   0  0  0  0  0  0  0  0  0  0  0  0
  129.4840  128.4410   70.5070 C   0  0  0  0  0  0  0  0  0  0  0  0
  129.3520  127.2150   71.4540 C   0  0  0  0  0  0  0  0  0  0  0  0
  129.6590  127.5010   72.9430 C   0  0  0  0  0  0  0  0  0  0  0  0
  129.3800  126.5940   73.7590 O   0  0  0  0  0  0  0  0  0  0  0  0
  130.2050  128.5850   73.2560 O   0  0  0  0  0  0  0  0  0  0  0  0
  129.2230  124.6780   62.6650 C   0  0  0  0  0  0  0  0  0  0  0  0
  128.1950  124.0160   62.4850 O   0  0  0  0  0  0  0  0  0  0  0  0
  128.2780  128.9720   60.9330 C   0  0  0  0  0  0  0  0  0  0  0  0
  128.3360  128.2790   59.7380 N   0  0  0  0  0  0  0  0  0  0  0  0
  129.1410  128.5600   58.5550 C   0  0  0  0  0  0  0  0  0  0  0  0
  130.6390  128.7380   58.8620 C   0  0  0  0  0  0  0  0  0  0  0  0
  131.0920  130.2120   58.8620 C   0  0  0  0  0  0  0  0  0  0  0  0
  131.9990  130.5260   60.0760 N   0  0  0  0  0  0  0  0  0  0  0  0
  133.1780  131.4580   59.7090 C   0  0  0  0  0  0  0  0  0  0  0  0
  133.9770  131.7860   60.9860 C   0  0  0  0  0  0  0  0  0  0  0  0
  133.1280  132.3390   61.9870 O   0  0  0  0  0  0  0  0  0  0  0  0
  132.0790  131.4710   62.4060 C   0  0  0  0  0  0  0  0  0  0  0  0
  131.1530  131.1290   61.2220 C   0  0  0  0  0  0  0  0  0  0  0  0
  128.2340  130.3310   60.8120 N   0  0  0  0  0  0  0  0  0  0  0  0
  128.1610  131.0810   61.8580 C   0  0  0  0  0  0  0  0  0  0  0  0
  128.1867  134.3232   60.5235 H   0  0  0  0  0  0  0  0  0  0  0  0
  129.0232  132.8955   59.8244 H   0  0  0  0  0  0  0  0  0  0  0  0
  127.2287  132.9741   59.8244 H   0  0  0  0  0  0  0  0  0  0  0  0
  127.9911  134.4027   62.7818 H   0  0  0  0  0  0  0  0  0  0  0  0
  127.9351  133.3069   65.1007 H   0  0  0  0  0  0  0  0  0  0  0  0
  128.0142  130.8850   65.2430 H   0  0  0  0  0  0  0  0  0  0  0  0
  127.2951  126.3592   62.0648 H   0  0  0  0  0  0  0  0  0  0  0  0
  129.8706  122.1869   62.4903 H   0  0  0  0  0  0  0  0  0  0  0  0
  131.6165  122.4346   62.9689 H   0  0  0  0  0  0  0  0  0  0  0  0
  129.6364  121.3115   64.5600 H   0  0  0  0  0  0  0  0  0  0  0  0
  131.2245  122.0120   65.1078 H   0  0  0  0  0  0  0  0  0  0  0  0
  128.8276  123.8154   64.7865 H   0  0  0  0  0  0  0  0  0  0  0  0
  129.0002  122.7560   66.2577 H   0  0  0  0  0  0  0  0  0  0  0  0
  130.8030  123.9086   67.0654 H   0  0  0  0  0  0  0  0  0  0  0  0
  131.3292  124.4331   65.3995 H   0  0  0  0  0  0  0  0  0  0  0  0
  130.5405  126.4521   65.9520 H   0  0  0  0  0  0  0  0  0  0  0  0
  128.8979  125.6988   65.7282 H   0  0  0  0  0  0  0  0  0  0  0  0
  128.4026  126.0816   67.8594 H   0  0  0  0  0  0  0  0  0  0  0  0
  129.8557  125.1006   68.3612 H   0  0  0  0  0  0  0  0  0  0  0  0
  130.9352  126.9122   69.0619 H   0  0  0  0  0  0  0  0  0  0  0  0
  130.6231  127.7525   67.4759 H   0  0  0  0  0  0  0  0  0  0  0  0
  129.2221  129.1464   68.4833 H   0  0  0  0  0  0  0  0  0  0  0  0
  128.1971  127.7056   68.9663 H   0  0  0  0  0  0  0  0  0  0  0  0
  130.5153  128.8156   70.5845 H   0  0  0  0  0  0  0  0  0  0  0  0
  128.7170  129.1553   70.8409 H   0  0  0  0  0  0  0  0  0  0  0  0
  128.3202  126.8401   71.3845 H   0  0  0  0  0  0  0  0  0  0  0  0
  130.1057  126.4868   71.1198 H   0  0  0  0  0  0  0  0  0  0  0  0
  127.7100  127.4960   59.6130 H   0  0  0  0  0  0  0  0  0  0  0  0
  129.0268  127.7241   57.8491 H   0  0  0  0  0  0  0  0  0  0  0  0
  128.7806  129.5110   58.1358 H   0  0  0  0  0  0  0  0  0  0  0  0
  130.8452  128.3096   59.8540 H   0  0  0  0  0  0  0  0  0  0  0  0
  131.1975  128.2261   58.0645 H   0  0  0  0  0  0  0  0  0  0  0  0
  131.6508  130.4143   57.9364 H   0  0  0  0  0  0  0  0  0  0  0  0
  130.1970  130.8484   58.9258 H   0  0  0  0  0  0  0  0  0  0  0  0
  132.3870  129.6610   60.4230 H   0  0  0  0  0  0  0  0  0  0  0  0
  133.8336  130.9546   58.9832 H   0  0  0  0  0  0  0  0  0  0  0  0
  132.7919  132.3870   59.2641 H   0  0  0  0  0  0  0  0  0  0  0  0
  134.4351  130.8632   61.3715 H   0  0  0  0  0  0  0  0  0  0  0  0
  134.7534  132.5240   60.7358 H   0  0  0  0  0  0  0  0  0  0  0  0
  132.5149  130.5428   62.8040 H   0  0  0  0  0  0  0  0  0  0  0  0
  131.4884  131.9776   63.1835 H   0  0  0  0  0  0  0  0  0  0  0  0
  130.3964  130.3987   61.5450 H   0  0  0  0  0  0  0  0  0  0  0  0
  130.6488  132.0411   60.8702 H   0  0  0  0  0  0  0  0  0  0  0  0
  1  2  1  0
  2  3  2  0
  3  4  1  0
  4  5  2  0
  5  6  1  0
  6  7  1  0
  7  8  2  0
  7  9  1  0
  9 10  1  0
 10 11  2  0
 11 12  1  0
 12 13  1  0
 13 14  2  0
 13 15  1  0
 15 16  1  0
 16 17  1  0
 17 18  1  0
 18 19  1  0
 19 20  1  0
 20 21  1  0
 21 22  1  0
 22 23  1  0
 23 24  1  0
 24 25  1  0
 25 26  1  0
 26 27  2  0
 26 28  1  0
 15 29  1  0
 29 30  2  0
  9 31  2  0
 31 32  1  0
 32 33  1  0
 33 34  1  0
 34 35  1  0
 35 36  1  0
 36 37  1  0
 37 38  1  0
 38 39  1  0
 39 40  1  0
 40 41  1  0
 31 42  1  0
 42 43  2  0
 43  2  1  0
 43  6  1  0
 29 11  1  0
 41 36  1  0
  1 44  1  0
  1 45  1  0
  1 46  1  0
  3 47  1  0
  4 48  1  0
  5 49  1  0
 10 50  1  0
 16 51  1  0
 16 52  1  0
 17 53  1  0
 17 54  1  0
 18 55  1  0
 18 56  1  0
 19 57  1  0
 19 58  1  0
 20 59  1  0
 20 60  1  0
 21 61  1  0
 21 62  1  0
 22 63  1  0
 22 64  1  0
 23 65  1  0
 23 66  1  0
 24 67  1  0
 24 68  1  0
 25 69  1  0
 25 70  1  0
 32 71  1  0
 33 72  1  0
 33 73  1  0
 34 74  1  0
 34 75  1  0
 35 76  1  0
 35 77  1  0
 36 78  1  0
 37 79  1  0
 37 80  1  0
 38 81  1  0
 38 82  1  0
 40 83  1  0
 40 84  1  0
 41 85  1  0
 41 86  1  0
M  CHG  2  28  -1  36   1
M  END
>  <Binding energies>  (1) 
[-9.2]

>  <Ligand effiencies>  (1) 
[-0.20444444444444443]

>  <Interactions>  (1) 
["V-B:HIS:456:CD2:9039, V-A:GLU:543:C:4902, H-A:ALA:541:N:4891, V-B:GLU:543:CB:9878, H-B:LYS:547:NZ:9923, V-B:ALA:541:CB:9864, V-A:TYR:484:CE2:4346, V-B:LEU:475:CD2:9230, V-B:GLU:543:CG:9879, V-A:ASP:366:CG:3213, V-A:ASN:362:CB:3176, V-A:TYR:539:CD1:4873, V-B:TYR:484:CE2:9317, V-A:LEU:363:CD1:3189, V-A:LEU:363:CB:3187, V-A:ALA:541:CB:4892, V-A:TYR:484:CZ:4347, V-A:GLU:543:CD:4908, V-B:GLU:543:CA:9876, V-B:HIS:456:CE1:9041, V-B:TYR:484:CZ:9318, V-A:HIS:456:CE1:4070, V-A:GLU:543:CG:4907, V-B:GLU:543:CD:9880, V-A:TYR:539:C:4867, H-A:LYS:547:NZ:4951, H-A:ARG:545:NH2:4928, V-A:ARG:545:CZ:4926, V-A:LEU:475:CD2:4259, V-A:ASN:362:C:3172, V-A:GLU:543:CB:4906, V-A:LEU:363:CA:3185, V-A:PRO:540:CB:4885, V-A:PRO:540:CA:4883, H-A:ASP:366:OD2:3215"]

$$$$
ZINC100856989
     RDKit          3D

 51 53  0  0  0  0  0  0  0  0999 V2000
  132.5850  124.8990   63.0390 O   0  0  0  0  0  0  0  0  0  0  0  0
  131.9160  125.6020   62.2750 C   0  0  0  0  0  0  0  0  0  0  0  0
  132.1260  125.5040   60.7560 C   0  0  0  0  0  0  0  0  0  0  0  0
  133.2360  124.5080   60.3400 C   0  0  0  0  0  0  0  0  0  0  0  0
  133.1030  123.1180   60.9940 C   0  0  0  0  0  0  0  0  0  0  0  0
  131.8740  122.3150   60.5330 C   0  0  0  0  0  0  0  0  0  0  0  0
  131.1350  121.6490   61.7110 C   0  0  0  0  0  0  0  0  0  0  0  0
  129.7690  122.1780   61.9300 N   0  0  0  0  0  0  0  0  0  0  0  0
  129.0140  122.5610   60.8690 C   0  0  0  0  0  0  0  0  0  0  0  0
  129.3850  122.4810   59.6950 O   0  0  0  0  0  0  0  0  0  0  0  0
  127.7310  123.0610   61.3280 C   0  0  0  0  0  0  0  0  0  0  0  0
  126.7500  123.5460   60.5320 C   0  0  0  0  0  0  0  0  0  0  0  0
  126.6970  123.7900   59.0970 C   0  0  0  0  0  0  0  0  0  0  0  0
  126.2560  124.9370   58.4400 C   0  0  0  0  0  0  0  0  0  0  0  0
  126.3030  124.8250   57.0470 C   0  0  0  0  0  0  0  0  0  0  0  0
  126.7570  123.5830   56.6280 C   0  0  0  0  0  0  0  0  0  0  0  0
  127.1250  122.5420   57.9650 S   0  0  0  0  0  0  0  0  0  0  0  0
  127.6260  122.9130   63.0770 S   0  0  0  0  0  0  0  0  0  0  0  0
  129.2450  122.2870   63.1890 C   0  0  0  0  0  0  0  0  0  0  0  0
  129.8930  121.9280   64.6860 S   0  0  0  0  0  0  0  0  0  0  0  0
  130.9730  126.4820   62.6820 N   0  0  0  0  0  0  0  0  0  0  0  0
  130.6440  126.6100   64.0360 N   0  0  0  0  0  0  0  0  0  0  0  0
  129.3520  126.7390   64.4170 C   0  0  0  0  0  0  0  0  0  0  0  0
  128.3920  126.8210   63.6450 O   0  0  0  0  0  0  0  0  0  0  0  0
  129.1400  126.8660   65.9040 C   0  0  0  0  0  0  0  0  0  0  0  0
  128.3620  127.9310   66.3800 C   0  0  0  0  0  0  0  0  0  0  0  0
  128.1150  128.0830   67.7440 C   0  0  0  0  0  0  0  0  0  0  0  0
  128.6300  127.1600   68.6510 C   0  0  0  0  0  0  0  0  0  0  0  0
  128.3280  127.3470   70.3400 Cl  0  0  0  0  0  0  0  0  0  0  0  0
  129.3840  126.0810   68.1910 C   0  0  0  0  0  0  0  0  0  0  0  0
  129.6350  125.9190   66.8260 C   0  0  0  0  0  0  0  0  0  0  0  0
  130.5400  124.5220   66.3420 Cl  0  0  0  0  0  0  0  0  0  0  0  0
  131.1805  125.1813   60.2956 H   0  0  0  0  0  0  0  0  0  0  0  0
  132.4444  126.4993   60.4124 H   0  0  0  0  0  0  0  0  0  0  0  0
  133.1975  124.3824   59.2479 H   0  0  0  0  0  0  0  0  0  0  0  0
  134.1914  124.9325   60.6820 H   0  0  0  0  0  0  0  0  0  0  0  0
  134.0048  122.5362   60.7525 H   0  0  0  0  0  0  0  0  0  0  0  0
  132.9801  123.2889   62.0737 H   0  0  0  0  0  0  0  0  0  0  0  0
  131.1793  122.9955   60.0188 H   0  0  0  0  0  0  0  0  0  0  0  0
  132.2254  121.5174   59.8619 H   0  0  0  0  0  0  0  0  0  0  0  0
  131.0619  120.5700   61.5101 H   0  0  0  0  0  0  0  0  0  0  0  0
  131.7147  121.8673   62.6200 H   0  0  0  0  0  0  0  0  0  0  0  0
  125.8234  123.8029   61.0662 H   0  0  0  0  0  0  0  0  0  0  0  0
  125.9064  125.8388   58.9639 H   0  0  0  0  0  0  0  0  0  0  0  0
  126.0120  125.6327   56.3593 H   0  0  0  0  0  0  0  0  0  0  0  0
  126.8701  123.2930   55.5730 H   0  0  0  0  0  0  0  0  0  0  0  0
  130.3750  127.0180   62.0700 H   0  0  0  0  0  0  0  0  0  0  0  0
  131.3730  126.2610   64.6420 H   0  0  0  0  0  0  0  0  0  0  0  0
  127.9409  128.6562   65.6681 H   0  0  0  0  0  0  0  0  0  0  0  0
  127.5139  128.9312   68.1033 H   0  0  0  0  0  0  0  0  0  0  0  0
  129.7849  125.3507   68.9093 H   0  0  0  0  0  0  0  0  0  0  0  0
  1  2  2  0
  2  3  1  0
  3  4  1  0
  4  5  1  0
  5  6  1  0
  6  7  1  0
  7  8  1  0
  8  9  1  0
  9 10  2  0
  9 11  1  0
 11 12  2  0
 12 13  1  0
 13 14  2  0
 14 15  1  0
 15 16  2  0
 16 17  1  0
 11 18  1  0
 18 19  1  0
 19 20  2  0
  2 21  1  0
 21 22  1  0
 22 23  1  0
 23 24  2  0
 23 25  1  0
 25 26  2  0
 26 27  1  0
 27 28  2  0
 28 29  1  0
 28 30  1  0
 30 31  2  0
 31 32  1  0
 19  8  1  0
 31 25  1  0
 17 13  1  0
  3 33  1  0
  3 34  1  0
  4 35  1  0
  4 36  1  0
  5 37  1  0
  5 38  1  0
  6 39  1  0
  6 40  1  0
  7 41  1  0
  7 42  1  0
 12 43  1  0
 14 44  1  0
 15 45  1  0
 16 46  1  0
 21 47  1  0
 22 48  1  0
 26 49  1  0
 27 50  1  0
 30 51  1  0
M  END
>  <Binding energies>  (1) 
[-7.73]

>  <Ligand effiencies>  (1) 
[-0.2273529411764706]

>  <Interactions>  (1) 
["V-A:ILE:369:CG2:3237, V-B:PRO:540:CA:9855, V-B:GLU:543:C:9874, H-A:GLU:543:OE2:4910, V-B:GLU:543:CB:9878, V-B:ALA:541:CB:9864, V-B:TYR:539:CE2:9848, V-A:TYR:484:CE2:4346, V-B:GLU:543:CG:9879, V-B:TYR:539:C:9839, V-A:ASP:366:CG:3213, H-B:ALA:541:N:9863, V-A:LEU:475:CD1:4258, V-A:GLU:543:CD:4908, V-A:TYR:484:CZ:4347, V-B:PRO:540:CB:9857, V-B:GLU:543:CA:9876, V-B:HIS:456:CE1:9041, V-B:PRO:540:N:9856, V-A:HIS:456:CE1:4070, V-B:TYR:539:CD2:9846, V-B:PRO:540:CD:9859, V-B:GLU:543:CD:9880, V-A:LEU:475:CD2:4259, H-A:ARG:545:NH2:4928, H-A:GLU:543:OE1:4909, V-B:MET:535:CE:9807"]

$$$$
ZINC100857011
     RDKit          3D

 56 60  0  0  0  0  0  0  0  0999 V2000
  130.6660  125.4630   67.0330 O   0  0  0  0  0  0  0  0  0  0  0  0
  130.0520  126.0950   66.1730 C   0  0  0  0  0  0  0  0  0  0  0  0
  129.0690  127.1410   66.3980 C   0  0  0  0  0  0  0  0  0  0  0  0
  128.6420  127.6480   67.5840 C   0  0  0  0  0  0  0  0  0  0  0  0
  128.9230  127.4620   69.0130 C   0  0  0  0  0  0  0  0  0  0  0  0
  127.9910  126.9410   69.9140 C   0  0  0  0  0  0  0  0  0  0  0  0
  128.4410  126.8800   71.2370 C   0  0  0  0  0  0  0  0  0  0  0  0
  129.7300  127.3590   71.3810 C   0  0  0  0  0  0  0  0  0  0  0  0
  130.3940  127.8720   69.8590 S   0  0  0  0  0  0  0  0  0  0  0  0
  128.4510  127.7000   64.8460 S   0  0  0  0  0  0  0  0  0  0  0  0
  129.4720  126.6150   63.9570 C   0  0  0  0  0  0  0  0  0  0  0  0
  129.4180  126.6060   62.2880 S   0  0  0  0  0  0  0  0  0  0  0  0
  130.2150  125.8830   64.8400 N   0  0  0  0  0  0  0  0  0  0  0  0
  131.1790  124.8630   64.3650 C   0  0  0  0  0  0  0  0  0  0  0  0
  130.9610  123.4670   64.9830 C   0  0  0  0  0  0  0  0  0  0  0  0
  129.4900  123.2140   65.3530 C   0  0  0  0  0  0  0  0  0  0  0  0
  128.7120  122.4850   64.2430 C   0  0  0  0  0  0  0  0  0  0  0  0
  129.5690  122.2350   62.9800 C   0  0  0  0  0  0  0  0  0  0  0  0
  128.8540  122.5430   61.6380 C   0  0  0  0  0  0  0  0  0  0  0  0
  127.6190  122.5010   61.6310 O   0  0  0  0  0  0  0  0  0  0  0  0
  129.5880  122.8170   60.5060 N   0  0  0  0  0  0  0  0  0  0  0  0
  131.0050  122.7810   60.5590 C   0  0  0  0  0  0  0  0  0  0  0  0
  131.7050  121.6250   60.9430 C   0  0  0  0  0  0  0  0  0  0  0  0
  133.0970  121.6350   61.0190 C   0  0  0  0  0  0  0  0  0  0  0  0
  133.8050  122.7940   60.7060 C   0  0  0  0  0  0  0  0  0  0  0  0
  133.1250  123.9390   60.2920 C   0  0  0  0  0  0  0  0  0  0  0  0
  131.7320  123.9290   60.1900 C   0  0  0  0  0  0  0  0  0  0  0  0
  130.8720  125.3750   59.6200 S   0  0  0  0  0  0  0  0  0  0  0  0
  129.4840  124.5900   58.8400 C   0  0  0  0  0  0  0  0  0  0  0  0
  128.8790  125.1840   57.7310 C   0  0  0  0  0  0  0  0  0  0  0  0
  127.8330  124.5390   57.0730 C   0  0  0  0  0  0  0  0  0  0  0  0
  127.3920  123.2930   57.5180 C   0  0  0  0  0  0  0  0  0  0  0  0
  126.1200  122.4790   56.6820 Cl  0  0  0  0  0  0  0  0  0  0  0  0
  127.9760  122.7050   58.6390 C   0  0  0  0  0  0  0  0  0  0  0  0
  128.9930  123.3700   59.3430 C   0  0  0  0  0  0  0  0  0  0  0  0
  127.8674  128.4137   67.4302 H   0  0  0  0  0  0  0  0  0  0  0  0
  126.9883  126.6071   69.6089 H   0  0  0  0  0  0  0  0  0  0  0  0
  127.8362  126.4937   72.0707 H   0  0  0  0  0  0  0  0  0  0  0  0
  130.2680  127.4091   72.3391 H   0  0  0  0  0  0  0  0  0  0  0  0
  131.0837  124.7776   63.2725 H   0  0  0  0  0  0  0  0  0  0  0  0
  132.1798  125.1984   64.6747 H   0  0  0  0  0  0  0  0  0  0  0  0
  131.2787  122.7051   64.2560 H   0  0  0  0  0  0  0  0  0  0  0  0
  131.5540  123.4129   65.9079 H   0  0  0  0  0  0  0  0  0  0  0  0
  129.4577  122.6007   66.2656 H   0  0  0  0  0  0  0  0  0  0  0  0
  129.0131  124.1939   65.5025 H   0  0  0  0  0  0  0  0  0  0  0  0
  128.3680  121.5155   64.6326 H   0  0  0  0  0  0  0  0  0  0  0  0
  127.8686  123.1279   63.9508 H   0  0  0  0  0  0  0  0  0  0  0  0
  130.4656  122.8691   63.0436 H   0  0  0  0  0  0  0  0  0  0  0  0
  129.7986  121.1593   62.9691 H   0  0  0  0  0  0  0  0  0  0  0  0
  131.1511  120.7060   61.1853 H   0  0  0  0  0  0  0  0  0  0  0  0
  133.6371  120.7273   61.3263 H   0  0  0  0  0  0  0  0  0  0  0  0
  134.9021  122.8056   60.7857 H   0  0  0  0  0  0  0  0  0  0  0  0
  133.6868  124.8519   60.0453 H   0  0  0  0  0  0  0  0  0  0  0  0
  129.2289  126.1643   57.3752 H   0  0  0  0  0  0  0  0  0  0  0  0
  127.3554  125.0128   56.2027 H   0  0  0  0  0  0  0  0  0  0  0  0
  127.6379  121.7134   58.9744 H   0  0  0  0  0  0  0  0  0  0  0  0
  1  2  2  0
  2  3  1  0
  3  4  2  0
  4  5  1  0
  5  6  2  0
  6  7  1  0
  7  8  2  0
  8  9  1  0
  3 10  1  0
 10 11  1  0
 11 12  2  0
 11 13  1  0
 13 14  1  0
 14 15  1  0
 15 16  1  0
 16 17  1  0
 17 18  1  0
 18 19  1  0
 19 20  2  0
 19 21  1  0
 21 22  1  0
 22 23  2  0
 23 24  1  0
 24 25  2  0
 25 26  1  0
 26 27  2  0
 27 28  1  0
 28 29  1  0
 29 30  2  0
 30 31  1  0
 31 32  2  0
 32 33  1  0
 32 34  1  0
 34 35  2  0
 13  2  1  0
 35 21  1  0
  9  5  1  0
 27 22  1  0
 35 29  1  0
  4 36  1  0
  6 37  1  0
  7 38  1  0
  8 39  1  0
 14 40  1  0
 14 41  1  0
 15 42  1  0
 15 43  1  0
 16 44  1  0
 16 45  1  0
 17 46  1  0
 17 47  1  0
 18 48  1  0
 18 49  1  0
 23 50  1  0
 24 51  1  0
 25 52  1  0
 26 53  1  0
 30 54  1  0
 31 55  1  0
 34 56  1  0
M  END
>  <Binding energies>  (1) 
[-9.24]

>  <Ligand effiencies>  (1) 
[-0.264]

>  <Interactions>  (1) 
["V-A:ILE:369:CG2:3237, V-B:PRO:540:CA:9855, V-B:GLU:543:C:9874, V-A:ILE:369:CB:3236, V-A:GLU:543:C:4902, V-B:GLU:543:CB:9878, V-B:ALA:541:CB:9864, V-B:TYR:539:CE2:9848, V-A:TYR:484:CE2:4346, V-B:GLU:543:CG:9879, V-B:TYR:539:C:9839, V-B:TYR:539:CZ:9849, H-B:ALA:541:N:9863, V-A:TYR:484:CZ:4347, V-A:GLU:543:CD:4908, V-B:PRO:540:CB:9857, V-B:HIS:456:CE1:9041, V-B:GLU:543:CA:9876, V-B:PRO:540:N:9856, V-A:HIS:456:CE1:4070, V-A:ILE:369:CD1:3239, V-B:TYR:539:CD2:9846, V-B:PRO:540:CD:9859, V-B:GLU:543:CD:9880, V-A:LEU:475:CD2:4259, V-B:TYR:539:CG:9844, V-A:GLU:543:CB:4906, V-B:MET:535:CE:9807, V-B:ALA:541:CA:9862, H-A:TYR:484:OH:4348"]

$$$$
ZINC100858017
     RDKit          3D

 44 46  0  0  0  0  0  0  0  0999 V2000
  129.4880  123.6670   65.0230 F   0  0  0  0  0  0  0  0  0  0  0  0
  130.6150  124.2870   65.3720 C   0  0  2  0  0  0  0  0  0  0  0  0
  130.3750  125.0880   66.6750 C   0  0  0  0  0  0  0  0  0  0  0  0
  129.5550  126.1170   66.4550 F   0  0  0  0  0  0  0  0  0  0  0  0
  129.8020  124.3420   67.6190 F   0  0  0  0  0  0  0  0  0  0  0  0
  131.5080  125.5710   67.1850 F   0  0  0  0  0  0  0  0  0  0  0  0
  131.2410  125.1130   64.2050 C   0  0  0  0  0  0  0  0  0  0  0  0
  130.3470  126.0070   63.7730 F   0  0  0  0  0  0  0  0  0  0  0  0
  132.2490  125.8270   64.7150 F   0  0  0  0  0  0  0  0  0  0  0  0
  131.7870  124.2890   62.9780 C   0  0  1  0  0  0  0  0  0  0  0  0
  133.2600  123.8350   63.2640 C   0  0  0  0  0  0  0  0  0  0  0  0
  133.8480  123.0090   62.0940 C   0  0  2  0  0  0  0  0  0  0  0  0
  135.0980  122.6460   62.3840 F   0  0  0  0  0  0  0  0  0  0  0  0
  133.8530  123.8690   60.8110 C   0  0  0  0  0  0  0  0  0  0  0  0
  132.4060  124.2910   60.4780 C   0  0  1  0  0  0  0  0  0  0  0  0
  132.4070  125.0310   59.3680 F   0  0  0  0  0  0  0  0  0  0  0  0
  131.5370  123.0280   60.2620 C   0  0  0  0  0  0  0  0  0  0  0  0
  131.4980  122.1190   61.5400 C   0  0  1  0  0  0  0  0  0  0  0  0
  130.5930  120.8590   61.2610 C   0  0  0  0  0  0  0  0  0  0  0  0
  129.8040  120.6640   62.3220 F   0  0  0  0  0  0  0  0  0  0  0  0
  129.7710  121.1230   60.2420 F   0  0  0  0  0  0  0  0  0  0  0  0
  131.3400  119.5160   60.9790 C   0  0  2  0  0  0  0  0  0  0  0  0
  131.9680  119.5090   59.8030 F   0  0  0  0  0  0  0  0  0  0  0  0
  130.4600  118.2490   61.0970 C   0  0  0  0  0  0  0  0  0  0  0  0
  131.0240  117.3530   61.9070 F   0  0  0  0  0  0  0  0  0  0  0  0
  129.2610  118.5230   61.6130 F   0  0  0  0  0  0  0  0  0  0  0  0
  130.2580  117.6640   59.9170 F   0  0  0  0  0  0  0  0  0  0  0  0
  132.9800  121.7450   61.8760 C   0  0  0  0  0  0  0  0  0  0  0  0
  130.9470  122.9950   62.7140 C   0  0  0  0  0  0  0  0  0  0  0  0
  131.8180  125.1170   61.6500 C   0  0  0  0  0  0  0  0  0  0  0  0
  131.3892  123.5362   65.5889 H   0  0  0  0  0  0  0  0  0  0  0  0
  133.8837  124.7280   63.4174 H   0  0  0  0  0  0  0  0  0  0  0  0
  133.2519  123.1976   64.1605 H   0  0  0  0  0  0  0  0  0  0  0  0
  134.4702  124.7654   60.9712 H   0  0  0  0  0  0  0  0  0  0  0  0
  134.2695  123.2858   59.9765 H   0  0  0  0  0  0  0  0  0  0  0  0
  130.5112  123.3399   60.0161 H   0  0  0  0  0  0  0  0  0  0  0  0
  131.9815  122.4446   59.4422 H   0  0  0  0  0  0  0  0  0  0  0  0
  132.0845  119.4703   61.7875 H   0  0  0  0  0  0  0  0  0  0  0  0
  132.9964  121.1374   62.7928 H   0  0  0  0  0  0  0  0  0  0  0  0
  133.3955  121.1828   61.0267 H   0  0  0  0  0  0  0  0  0  0  0  0
  129.9163  123.2930   62.4715 H   0  0  0  0  0  0  0  0  0  0  0  0
  131.0019  122.3830   63.6264 H   0  0  0  0  0  0  0  0  0  0  0  0
  132.4379  126.0129   61.8020 H   0  0  0  0  0  0  0  0  0  0  0  0
  130.7851  125.3940   61.3923 H   0  0  0  0  0  0  0  0  0  0  0  0
  1  2  1  0
  2  3  1  0
  3  4  1  0
  3  5  1  0
  3  6  1  0
  2  7  1  0
  7  8  1  0
  7  9  1  0
 10  7  1  6
 10 11  1  0
 11 12  1  0
 12 13  1  6
 12 14  1  0
 14 15  1  0
 15 16  1  1
 15 17  1  0
 17 18  1  0
 18 19  1  1
 19 20  1  0
 19 21  1  0
 19 22  1  0
 22 23  1  0
 22 24  1  0
 24 25  1  0
 24 26  1  0
 24 27  1  0
 18 28  1  0
 18 29  1  0
 15 30  1  0
 29 10  1  0
 30 10  1  0
 28 12  1  0
  2 31  1  1
 11 32  1  0
 11 33  1  0
 14 34  1  0
 14 35  1  0
 17 36  1  0
 17 37  1  0
 22 38  1  1
 28 39  1  0
 28 40  1  0
 29 41  1  0
 29 42  1  0
 30 43  1  0
 30 44  1  0
M  END
>  <Binding energies>  (1) 
[-4.08]

>  <Ligand effiencies>  (1) 
[-0.136]

>  <Interactions>  (1) 
["V-A:ILE:369:CG2:3237, V-B:TYR:539:CA:9841, V-A:GLY:454:CA:4049, V-B:GLU:543:C:9874, V-B:GLU:543:CB:9878, V-B:ALA:541:CB:9864, V-B:TYR:539:CE2:9848, V-A:TYR:484:CE2:4346, V-A:LEU:475:CG:4257, V-B:GLU:543:CG:9879, V-B:TYR:539:C:9839, V-A:ASP:366:CG:3213, V-A:LEU:475:CD1:4258, V-A:HIS:383:CE1:3393, V-B:TYR:539:CB:9843, V-A:GLU:543:CD:4908, V-A:TYR:484:CZ:4347, V-B:GLU:543:CA:9876, V-A:SER:385:C:3405, V-A:GLY:453:C:4042, V-A:TYR:484:CD2:4344, V-A:ILE:369:CD1:3239, V-A:HIS:456:CE1:4070, V-A:PRO:482:CB:4326, V-B:TYR:539:CD2:9846, V-A:SER:385:CB:3409, V-B:GLU:543:CD:9880, V-A:ASP:366:CB:3212, V-A:LEU:475:CD2:4259, V-A:ARG:545:CZ:4926, V-B:TYR:539:CG:9844, V-A:GLY:453:CA:4044, V-B:PRO:540:C:9853, V-B:ALA:541:CA:9862, V-A:HIS:383:NE2:3394"]

$$$$
ZINC100859918
     RDKit          3D

 62 69  0  0  0  0  0  0  0  0999 V2000
  125.6450  128.6780   63.7290 O   0  0  0  0  0  0  0  0  0  0  0  0
  126.4530  129.5640   63.4470 C   0  0  0  0  0  0  0  0  0  0  0  0
  126.3300  130.4850   62.2400 C   0  0  2  0  0  0  0  0  0  0  0  0
  126.4430  129.8610   60.8140 C   0  0  1  0  0  0  0  0  0  0  0  0
  127.0250  131.0430   60.0400 C   0  0  0  0  0  0  0  0  0  0  0  0
  128.2450  131.1500   60.9550 C   0  0  1  0  0  0  0  0  0  0  0  0
  127.5350  131.3850   62.3210 C   0  0  2  0  0  0  0  0  0  0  0  0
  128.2610  130.9600   63.5900 C   0  0  0  0  0  0  0  0  0  0  0  0
  129.2840  131.4970   64.0170 O   0  0  0  0  0  0  0  0  0  0  0  0
  127.5670  129.9280   64.1430 N   0  0  0  0  0  0  0  0  0  0  0  0
  127.9800  129.2770   65.3150 C   0  0  0  0  0  0  0  0  0  0  0  0
  127.9700  129.9620   66.5350 C   0  0  0  0  0  0  0  0  0  0  0  0
  128.3840  129.3110   67.6940 C   0  0  0  0  0  0  0  0  0  0  0  0
  128.8040  127.9840   67.6300 C   0  0  0  0  0  0  0  0  0  0  0  0
  129.3170  127.1810   69.0690 Cl  0  0  0  0  0  0  0  0  0  0  0  0
  128.8160  127.2990   66.4160 C   0  0  0  0  0  0  0  0  0  0  0  0
  128.4040  127.9440   65.2530 C   0  0  0  0  0  0  0  0  0  0  0  0
  128.8690  129.7260   60.8100 C   0  0  2  0  0  0  0  0  0  0  0  0
  129.9480  129.6280   59.6910 C   0  0  1  0  0  0  0  0  0  0  0  0
  131.2230  130.4130   60.0260 C   0  0  0  0  0  0  0  0  0  0  0  0
  131.5000  130.7610   61.3520 C   0  0  0  0  0  0  0  0  0  0  0  0
  132.6630  131.4590   61.6670 C   0  0  0  0  0  0  0  0  0  0  0  0
  133.5520  131.8090   60.6540 C   0  0  0  0  0  0  0  0  0  0  0  0
  133.2890  131.4680   59.3290 C   0  0  0  0  0  0  0  0  0  0  0  0
  132.1270  130.7710   59.0160 C   0  0  0  0  0  0  0  0  0  0  0  0
  130.1760  128.1640   59.3130 C   0  0  0  0  0  0  0  0  0  0  0  0
  131.7370  127.3720   59.1080 S   0  0  0  0  0  0  0  0  0  0  0  0
  130.9200  125.8230   58.6310 C   0  0  0  0  0  0  0  0  0  0  0  0
  131.5170  124.7850   58.3480 O   0  0  0  0  0  0  0  0  0  0  0  0
  129.5450  126.0680   58.6480 N   0  0  0  0  0  0  0  0  0  0  0  0
  128.6390  125.0630   58.2750 C   0  0  0  0  0  0  0  0  0  0  0  0
  127.8260  125.2420   57.1520 C   0  0  0  0  0  0  0  0  0  0  0  0
  126.9300  124.2400   56.7860 C   0  0  0  0  0  0  0  0  0  0  0  0
  126.8540  123.0700   57.5410 C   0  0  0  0  0  0  0  0  0  0  0  0
  127.6670  122.8900   58.6590 C   0  0  0  0  0  0  0  0  0  0  0  0
  128.5640  123.8870   59.0290 C   0  0  0  0  0  0  0  0  0  0  0  0
  129.1660  127.3310   59.0180 C   0  0  0  0  0  0  0  0  0  0  0  0
  127.4440  127.8000   59.1590 S   0  0  0  0  0  0  0  0  0  0  0  0
  127.5950  128.8280   60.6670 C   0  0  2  0  0  0  0  0  0  0  0  0
  125.3205  130.9160   62.3115 H   0  0  0  0  0  0  0  0  0  0  0  0
  125.4869  129.3976   60.5292 H   0  0  0  0  0  0  0  0  0  0  0  0
  127.2806  130.7993   58.9982 H   0  0  0  0  0  0  0  0  0  0  0  0
  126.3990  131.9346   59.8877 H   0  0  0  0  0  0  0  0  0  0  0  0
  129.0241  131.9079   60.7856 H   0  0  0  0  0  0  0  0  0  0  0  0
  127.3947  132.4711   62.4240 H   0  0  0  0  0  0  0  0  0  0  0  0
  127.6368  131.0094   66.5782 H   0  0  0  0  0  0  0  0  0  0  0  0
  128.3795  129.8425   68.6570 H   0  0  0  0  0  0  0  0  0  0  0  0
  129.1501  126.2517   66.3770 H   0  0  0  0  0  0  0  0  0  0  0  0
  128.4115  127.4098   64.2915 H   0  0  0  0  0  0  0  0  0  0  0  0
  129.4864  129.3996   61.6599 H   0  0  0  0  0  0  0  0  0  0  0  0
  129.5715  130.1297   58.7874 H   0  0  0  0  0  0  0  0  0  0  0  0
  130.7959  130.4820   62.1497 H   0  0  0  0  0  0  0  0  0  0  0  0
  132.8783  131.7324   62.7105 H   0  0  0  0  0  0  0  0  0  0  0  0
  134.4710  132.3602   60.9024 H   0  0  0  0  0  0  0  0  0  0  0  0
  133.9965  131.7485   58.5348 H   0  0  0  0  0  0  0  0  0  0  0  0
  131.9162  130.4993   57.9711 H   0  0  0  0  0  0  0  0  0  0  0  0
  127.8933  126.1676   56.5614 H   0  0  0  0  0  0  0  0  0  0  0  0
  126.2849  124.3712   55.9048 H   0  0  0  0  0  0  0  0  0  0  0  0
  126.1449  122.2806   57.2512 H   0  0  0  0  0  0  0  0  0  0  0  0
  127.5995  121.9626   59.2468 H   0  0  0  0  0  0  0  0  0  0  0  0
  129.2102  123.7515   59.9088 H   0  0  0  0  0  0  0  0  0  0  0  0
  127.6065  128.0272   61.4211 H   0  0  0  0  0  0  0  0  0  0  0  0
  1  2  2  0
  2  3  1  0
  3  4  1  0
  4  5  1  0
  5  6  1  0
  6  7  1  0
  7  8  1  0
  8  9  2  0
  8 10  1  0
 10 11  1  0
 11 12  2  0
 12 13  1  0
 13 14  2  0
 14 15  1  0
 14 16  1  0
 16 17  2  0
  6 18  1  0
 18 19  1  0
 19 20  1  0
 20 21  2  0
 21 22  1  0
 22 23  2  0
 23 24  1  0
 24 25  2  0
 19 26  1  0
 26 27  1  0
 27 28  1  0
 28 29  2  0
 28 30  1  0
 30 31  1  0
 31 32  2  0
 32 33  1  0
 33 34  2  0
 34 35  1  0
 35 36  2  0
 30 37  1  0
 37 38  1  0
 38 39  1  0
 10  2  1  0
 17 11  1  0
 39 18  1  0
  7  3  1  0
 25 20  1  0
 37 26  2  0
 39  4  1  0
 36 31  1  0
  3 40  1  6
  4 41  1  6
  5 42  1  0
  5 43  1  0
  6 44  1  6
  7 45  1  1
 12 46  1  0
 13 47  1  0
 16 48  1  0
 17 49  1  0
 18 50  1  1
 19 51  1  6
 21 52  1  0
 22 53  1  0
 23 54  1  0
 24 55  1  0
 25 56  1  0
 32 57  1  0
 33 58  1  0
 34 59  1  0
 35 60  1  0
 36 61  1  0
 39 62  1  1
M  END
>  <Binding energies>  (1) 
[-8.92]

>  <Ligand effiencies>  (1) 
[-0.2287179487179487]

>  <Interactions>  (1) 
["V-B:PRO:540:CA:9855, V-A:GLU:543:CA:4904, V-B:GLU:543:CB:9878, V-B:TYR:539:CE2:9848, V-B:GLU:543:CG:9879, V-B:TYR:539:C:9839, V-A:ASP:366:CG:3213, V-A:ASN:362:CB:3176, V-A:LEU:363:CB:3187, V-A:LEU:363:CD1:3189, V-B:TYR:484:CE2:9317, H-B:TYR:539:OH:9850, H-B:ARG:545:NE:9896, V-A:GLU:543:CD:4908, V-B:PRO:540:CB:9857, V-B:HIS:456:CE1:9041, V-B:PRO:540:N:9856, V-B:TYR:484:CZ:9318, V-A:HIS:456:CE1:4070, V-B:TYR:539:CD2:9846, V-A:GLU:543:CG:4907, V-B:GLU:543:CD:9880, V-A:ASP:366:CB:3212, V-A:ASN:362:C:3172, H-B:ARG:545:NH2:9900, V-A:GLU:543:CB:4906, V-A:PRO:540:CB:4885, V-A:PRO:540:CA:4883, V-A:LEU:363:CA:3185"]

$$$$
ZINC100861457-again1
     RDKit          3D

 31 32  0  0  0  0  0  0  0  0999 V2000
  134.7200  126.8050   74.6650 C   0  0  0  0  0  0  0  0  0  0  0  0
  133.7350  126.2110   75.6980 C   0  0  0  0  0  0  0  0  0  0  0  0
  132.2270  126.3120   75.3430 C   0  0  2  0  0  0  0  0  0  0  0  0
  131.5740  124.9180   75.2850 C   0  0  0  0  0  0  0  0  0  0  0  0
  132.0430  127.0060   74.0590 N   0  0  0  0  0  0  0  0  0  0  0  0
  130.9540  126.9540   73.3500 C   0  0  0  0  0  0  0  0  0  0  0  0
  129.7520  126.6280   73.7200 N   0  0  0  0  0  0  0  0  0  0  0  0
  128.3430  126.5930   72.6320 S   0  0  0  0  0  0  0  0  0  0  0  0
  127.8680  125.2090   72.5200 O   0  0  0  0  0  0  0  0  0  0  0  0
  127.3850  127.6140   73.0690 O   0  0  0  0  0  0  0  0  0  0  0  0
  129.0940  127.1010   71.0630 C   0  0  0  0  0  0  0  0  0  0  0  0
  128.3160  127.1990   69.9490 C   0  0  0  0  0  0  0  0  0  0  0  0
  128.8350  127.5820   68.7200 N   0  0  0  0  0  0  0  0  0  0  0  0
  130.1870  127.8770   68.6260 C   0  0  0  0  0  0  0  0  0  0  0  0
  131.0000  127.7910   69.7180 C   0  0  0  0  0  0  0  0  0  0  0  0
  130.4690  127.4000   70.9660 C   0  0  0  0  0  0  0  0  0  0  0  0
  131.2680  127.3170   72.0270 N   0  0  0  0  0  0  0  0  0  0  0  0
  135.5470  127.3037   75.1916 H   0  0  0  0  0  0  0  0  0  0  0  0
  135.1207  125.9978   74.0342 H   0  0  0  0  0  0  0  0  0  0  0  0
  134.1931  127.5361   74.0342 H   0  0  0  0  0  0  0  0  0  0  0  0
  133.9802  125.1458   75.8217 H   0  0  0  0  0  0  0  0  0  0  0  0
  133.8643  126.8139   76.6090 H   0  0  0  0  0  0  0  0  0  0  0  0
  131.7349  126.8925   76.1373 H   0  0  0  0  0  0  0  0  0  0  0  0
  131.4020  124.5508   76.3076 H   0  0  0  0  0  0  0  0  0  0  0  0
  130.6135  124.9849   74.7530 H   0  0  0  0  0  0  0  0  0  0  0  0
  132.2402  124.2229   74.7530 H   0  0  0  0  0  0  0  0  0  0  0  0
  127.2434  126.9675   70.0259 H   0  0  0  0  0  0  0  0  0  0  0  0
  128.2380  127.6450   67.9070 H   0  0  0  0  0  0  0  0  0  0  0  0
  130.6093  128.1844   67.6579 H   0  0  0  0  0  0  0  0  0  0  0  0
  132.0705  128.0266   69.6259 H   0  0  0  0  0  0  0  0  0  0  0  0
  132.2470  127.5460   71.8840 H   0  0  0  0  0  0  0  0  0  0  0  0
  1  2  1  0
  2  3  1  0
  3  4  1  0
  3  5  1  0
  5  6  1  0
  6  7  2  0
  7  8  1  0
  8  9  2  0
  8 10  2  0
  8 11  1  0
 11 12  2  0
 12 13  1  0
 13 14  1  0
 14 15  2  0
 15 16  1  0
 16 17  2  0
 17  6  1  0
 16 11  1  0
  1 18  1  0
  1 19  1  0
  1 20  1  0
  2 21  1  0
  2 22  1  0
  3 23  1  1
  4 24  1  0
  4 25  1  0
  4 26  1  0
 12 27  1  0
 13 28  1  0
 14 29  1  0
 15 30  1  0
 17 31  1  0
M  CHG  2   5  -1  17   1
M  END
>  <Binding energies>  (1) 
[-5.99]

>  <Ligand effiencies>  (1) 
[-0.31526315789473686]

>  <Interactions>  (1) 
["V-A:GLU:543:C:4902, H-B:LYS:547:NZ:9923, V-A:GLY:544:C:4912, V-A:HIS:456:CD2:4068, V-A:VAL:457:C:4073, V-A:LYS:547:CG:4948, V-A:HIS:456:CB:4065, V-B:LYS:547:CE:9922, V-A:GLU:543:CD:4908, V-B:HIS:456:CE1:9041, V-A:HIS:456:CE1:4070, V-A:HIS:456:CA:4063, V-A:GLU:543:CG:4907, H-A:LYS:547:NZ:4951, V-A:HIS:456:C:4061, V-A:ARG:545:C:4917, V-A:GLU:543:CB:4906, V-A:HIS:456:CG:4066, H-B:GLU:543:OE2:9882, V-A:VAL:458:CG2:4087, H-A:GLY:544:O:4913, H-A:HIS:456:NE2:4071"]

$$$$
ZINC100884265
     RDKit          3D

 71 75  0  0  0  0  0  0  0  0999 V2000
  128.2260  126.1440   56.5500 C   0  0  0  0  0  0  0  0  0  0  0  0
  128.5690  126.0370   58.0420 C   0  0  0  0  0  0  0  0  0  0  0  0
  129.8540  125.2310   58.3050 C   0  0  0  0  0  0  0  0  0  0  0  0
  131.1090  125.8700   57.6850 C   0  0  0  0  0  0  0  0  0  0  0  0
  132.3350  125.8180   58.6160 C   0  0  0  0  0  0  0  0  0  0  0  0
  132.0660  126.3100   60.0560 C   0  0  0  0  0  0  0  0  0  0  0  0
  132.5640  125.4150   61.1300 N   0  0  0  0  0  0  0  0  0  0  0  0
  132.0850  125.5260   62.3980 C   0  0  0  0  0  0  0  0  0  0  0  0
  131.2310  126.3460   62.7460 O   0  0  0  0  0  0  0  0  0  0  0  0
  132.7260  124.5480   63.2580 C   0  0  0  0  0  0  0  0  0  0  0  0
  132.4500  124.3590   64.5710 C   0  0  0  0  0  0  0  0  0  0  0  0
  131.4390  125.0400   65.3830 C   0  0  0  0  0  0  0  0  0  0  0  0
  130.1090  125.0020   65.0800 C   0  0  0  0  0  0  0  0  0  0  0  0
  129.6180  124.3300   63.9790 N   0  0  0  0  0  0  0  0  0  0  0  0
  128.7900  125.0290   62.9900 C   0  0  0  0  0  0  0  0  0  0  0  0
  128.9090  124.3520   61.6090 C   0  0  0  0  0  0  0  0  0  0  0  0
  128.4900  122.9510   61.6940 N   0  0  0  0  0  0  0  0  0  0  0  0
  128.5250  122.3120   60.3730 C   0  0  0  0  0  0  0  0  0  0  0  0
  127.5100  122.8760   59.3770 C   0  0  0  0  0  0  0  0  0  0  0  0
  127.6230  122.5290   58.0270 C   0  0  0  0  0  0  0  0  0  0  0  0
  126.6800  122.9820   57.1060 C   0  0  0  0  0  0  0  0  0  0  0  0
  125.6100  123.7590   57.5410 C   0  0  0  0  0  0  0  0  0  0  0  0
  125.4670  124.0800   58.8890 C   0  0  0  0  0  0  0  0  0  0  0  0
  126.4090  123.6270   59.8080 C   0  0  0  0  0  0  0  0  0  0  0  0
  129.3780  122.2470   62.6250 C   0  0  0  0  0  0  0  0  0  0  0  0
  129.3390  122.8890   64.0340 C   0  0  0  0  0  0  0  0  0  0  0  0
  129.1530  125.6240   65.8340 N   0  0  0  0  0  0  0  0  0  0  0  0
  129.4980  126.2840   66.8830 C   0  0  0  0  0  0  0  0  0  0  0  0
  128.5110  126.9560   67.7130 C   0  0  0  0  0  0  0  0  0  0  0  0
  128.8570  127.6540   68.8180 C   0  0  0  0  0  0  0  0  0  0  0  0
  130.2580  127.7460   69.2000 C   0  0  0  0  0  0  0  0  0  0  0  0
  131.1590  127.1140   68.4190 C   0  0  0  0  0  0  0  0  0  0  0  0
  130.8490  126.3790   67.2730 N   0  0  0  0  0  0  0  0  0  0  0  0
  131.8790  125.7750   66.5740 C   0  0  0  0  0  0  0  0  0  0  0  0
  133.0720  125.8270   66.8900 O   0  0  0  0  0  0  0  0  0  0  0  0
  133.9170  123.6360   62.3430 S   0  0  0  0  0  0  0  0  0  0  0  0
  133.5370  124.4870   60.8740 C   0  0  0  0  0  0  0  0  0  0  0  0
  134.3480  124.1000   59.4660 S   0  0  0  0  0  0  0  0  0  0  0  0
  127.1815  126.4698   56.4363 H   0  0  0  0  0  0  0  0  0  0  0  0
  128.8928  126.8768   56.0721 H   0  0  0  0  0  0  0  0  0  0  0  0
  128.3578  125.1620   56.0721 H   0  0  0  0  0  0  0  0  0  0  0  0
  128.7025  127.0517   58.4451 H   0  0  0  0  0  0  0  0  0  0  0  0
  127.7403  125.5068   58.5340 H   0  0  0  0  0  0  0  0  0  0  0  0
  130.0019  125.1541   59.3923 H   0  0  0  0  0  0  0  0  0  0  0  0
  129.7232  124.2453   57.8346 H   0  0  0  0  0  0  0  0  0  0  0  0
  131.3520  125.3343   56.7555 H   0  0  0  0  0  0  0  0  0  0  0  0
  130.8810  126.9303   57.5011 H   0  0  0  0  0  0  0  0  0  0  0  0
  132.6831  124.7758   58.6682 H   0  0  0  0  0  0  0  0  0  0  0  0
  133.0837  126.4999   58.1866 H   0  0  0  0  0  0  0  0  0  0  0  0
  132.5502  127.2902   60.1773 H   0  0  0  0  0  0  0  0  0  0  0  0
  130.9723  126.3449   60.1687 H   0  0  0  0  0  0  0  0  0  0  0  0
  133.0583  123.6033   65.0894 H   0  0  0  0  0  0  0  0  0  0  0  0
  127.7396  125.0047   63.3156 H   0  0  0  0  0  0  0  0  0  0  0  0
  129.1378  126.0693   62.9069 H   0  0  0  0  0  0  0  0  0  0  0  0
  128.2667  124.8802   60.8890 H   0  0  0  0  0  0  0  0  0  0  0  0
  129.9573  124.3934   61.2784 H   0  0  0  0  0  0  0  0  0  0  0  0
  129.5324  122.4452   59.9518 H   0  0  0  0  0  0  0  0  0  0  0  0
  128.2638  121.2545   60.5262 H   0  0  0  0  0  0  0  0  0  0  0  0
  128.4583  121.8969   57.6911 H   0  0  0  0  0  0  0  0  0  0  0  0
  126.7808  122.7268   56.0408 H   0  0  0  0  0  0  0  0  0  0  0  0
  124.8701  124.1231   56.8131 H   0  0  0  0  0  0  0  0  0  0  0  0
  124.6143  124.6881   59.2252 H   0  0  0  0  0  0  0  0  0  0  0  0
  126.2885  123.8595   60.8764 H   0  0  0  0  0  0  0  0  0  0  0  0
  129.0583  121.1972   62.7006 H   0  0  0  0  0  0  0  0  0  0  0  0
  130.4067  122.3138   62.2413 H   0  0  0  0  0  0  0  0  0  0  0  0
  128.3405  122.7350   64.4690 H   0  0  0  0  0  0  0  0  0  0  0  0
  130.1142  122.4116   64.6514 H   0  0  0  0  0  0  0  0  0  0  0  0
  127.4490  126.8945   67.4329 H   0  0  0  0  0  0  0  0  0  0  0  0
  128.0843  128.1492   69.4244 H   0  0  0  0  0  0  0  0  0  0  0  0
  130.5708  128.3093   70.0915 H   0  0  0  0  0  0  0  0  0  0  0  0
  132.2183  127.1832   68.7072 H   0  0  0  0  0  0  0  0  0  0  0  0
  1  2  1  0
  2  3  1  0
  3  4  1  0
  4  5  1  0
  5  6  1  0
  6  7  1  0
  7  8  1  0
  8  9  2  0
  8 10  1  0
 10 11  2  0
 11 12  1  0
 12 13  2  0
 13 14  1  0
 14 15  1  0
 15 16  1  0
 16 17  1  0
 17 18  1  0
 18 19  1  0
 19 20  2  0
 20 21  1  0
 21 22  2  0
 22 23  1  0
 23 24  2  0
 17 25  1  0
 25 26  1  0
 13 27  1  0
 27 28  2  0
 28 29  1  0
 29 30  2  0
 30 31  1  0
 31 32  2  0
 32 33  1  0
 33 34  1  0
 34 35  2  0
 10 36  1  0
 36 37  1  0
 37 38  2  0
 37  7  1  0
 34 12  1  0
 26 14  1  0
 33 28  1  0
 24 19  1  0
  1 39  1  0
  1 40  1  0
  1 41  1  0
  2 42  1  0
  2 43  1  0
  3 44  1  0
  3 45  1  0
  4 46  1  0
  4 47  1  0
  5 48  1  0
  5 49  1  0
  6 50  1  0
  6 51  1  0
 11 52  1  0
 15 53  1  0
 15 54  1  0
 16 55  1  0
 16 56  1  0
 18 57  1  0
 18 58  1  0
 20 59  1  0
 21 60  1  0
 22 61  1  0
 23 62  1  0
 24 63  1  0
 25 64  1  0
 25 65  1  0
 26 66  1  0
 26 67  1  0
 29 68  1  0
 30 69  1  0
 31 70  1  0
 32 71  1  0
M  END
>  <Binding energies>  (1) 
[-8.34]

>  <Ligand effiencies>  (1) 
[-0.21947368421052632]

>  <Interactions>  (1) 
["V-A:ILE:369:CG2:3237, V-A:ASP:366:CA:3210, V-B:PRO:540:CA:9855, V-A:ILE:369:CB:3236, V-B:GLU:543:CB:9878, V-B:ALA:541:CB:9864, V-B:TYR:539:CE2:9848, V-B:GLU:543:CG:9879, V-B:TYR:539:C:9839, V-A:ASP:366:CG:3213, V-B:TYR:539:CZ:9849, V-A:GLU:543:CD:4908, V-B:PRO:540:CB:9857, V-A:ARG:545:CG:4922, H-A:GLY:454:N:4050, V-B:HIS:456:CE1:9041, V-B:PRO:540:N:9856, V-A:ILE:369:CD1:3239, V-A:HIS:456:CE1:4070, V-A:ASP:366:C:3208, V-B:TYR:539:CD2:9846, V-B:GLU:543:CD:9880, V-A:ILE:369:CG1:3238, V-A:ASP:366:CB:3212, V-A:LEU:475:CD2:4259, H-A:ARG:545:NH2:4928, V-B:TYR:539:CG:9844, V-A:GLU:543:CB:4906, H-A:ARG:545:NE:4924, V-B:PRO:540:C:9853, H-A:TYR:484:OH:4348"]

$$$$
ZINC100891378
     RDKit          3D

 59 64  0  0  0  0  0  0  0  0999 V2000
  133.7410  123.8170   58.2120 C   0  0  0  0  0  0  0  0  0  0  0  0
  132.8780  124.8650   58.8770 C   0  0  0  0  0  0  0  0  0  0  0  0
  132.3540  125.8300   58.1450 N   0  0  0  0  0  0  0  0  0  0  0  0
  131.6390  126.5940   58.9850 N   0  0  0  0  0  0  0  0  0  0  0  0
  130.9180  127.7150   58.5120 C   0  0  0  0  0  0  0  0  0  0  0  0
  131.5130  128.9720   58.6710 C   0  0  0  0  0  0  0  0  0  0  0  0
  130.8540  130.1250   58.2530 C   0  0  0  0  0  0  0  0  0  0  0  0
  129.5940  130.0330   57.6690 C   0  0  0  0  0  0  0  0  0  0  0  0
  128.9960  128.7870   57.4940 C   0  0  0  0  0  0  0  0  0  0  0  0
  129.6410  127.6070   57.9000 C   0  0  0  0  0  0  0  0  0  0  0  0
  128.9700  126.2920   57.6360 C   0  0  0  0  0  0  0  0  0  0  0  0
  128.7490  125.9840   56.4420 O   0  0  0  0  0  0  0  0  0  0  0  0
  128.6840  125.5800   58.6280 O   0  0  0  0  0  0  0  0  0  0  0  0
  131.6990  126.0920   60.2600 C   0  0  0  0  0  0  0  0  0  0  0  0
  132.5130  124.9760   60.2330 C   0  0  0  0  0  0  0  0  0  0  0  0
  132.7620  124.1080   61.4700 C   0  0  2  0  0  0  0  0  0  0  0  0
  132.2990  122.6630   61.2460 C   0  0  0  0  0  0  0  0  0  0  0  0
  133.2110  121.6890   60.8300 C   0  0  0  0  0  0  0  0  0  0  0  0
  132.7940  120.3780   60.6250 C   0  0  0  0  0  0  0  0  0  0  0  0
  131.4550  120.0160   60.8300 C   0  0  0  0  0  0  0  0  0  0  0  0
  131.0090  118.6180   60.6120 N   0  0  0  0  0  0  0  0  0  0  0  0
  130.1530  118.1490   61.3590 O   0  0  0  0  0  0  0  0  0  0  0  0
  131.5100  117.9760   59.6930 O   0  0  0  0  0  0  0  0  0  0  0  0
  130.5450  120.9990   61.2450 C   0  0  0  0  0  0  0  0  0  0  0  0
  130.9620  122.3100   61.4500 C   0  0  0  0  0  0  0  0  0  0  0  0
  132.1100  124.7980   62.7060 C   0  0  0  0  0  0  0  0  0  0  0  0
  131.3790  125.9530   62.6080 C   0  0  0  0  0  0  0  0  0  0  0  0
  130.6670  126.5920   63.8020 C   0  0  0  0  0  0  0  0  0  0  0  0
  130.3300  125.5230   64.8690 C   0  0  2  0  0  0  0  0  0  0  0  0
  129.5960  126.0990   66.0730 C   0  0  0  0  0  0  0  0  0  0  0  0
  128.7460  127.2060   66.1600 C   0  0  0  0  0  0  0  0  0  0  0  0
  128.2340  127.4510   67.4370 C   0  0  0  0  0  0  0  0  0  0  0  0
  128.6780  126.5300   68.3680 C   0  0  0  0  0  0  0  0  0  0  0  0
  129.7340  125.3620   67.6520 S   0  0  0  0  0  0  0  0  0  0  0  0
  131.6170  124.7580   65.2440 C   0  0  0  0  0  0  0  0  0  0  0  0
  132.3410  124.1600   64.0260 C   0  0  0  0  0  0  0  0  0  0  0  0
  133.1980  123.2920   64.1870 O   0  0  0  0  0  0  0  0  0  0  0  0
  131.1190  126.5880   61.4020 N   0  0  0  0  0  0  0  0  0  0  0  0
  134.2403  123.2106   58.9821 H   0  0  0  0  0  0  0  0  0  0  0  0
  133.1120  123.1680   57.5850 H   0  0  0  0  0  0  0  0  0  0  0  0
  134.4986  124.3098   57.5850 H   0  0  0  0  0  0  0  0  0  0  0  0
  132.5096  129.0495   59.1301 H   0  0  0  0  0  0  0  0  0  0  0  0
  131.3290  131.1084   58.3843 H   0  0  0  0  0  0  0  0  0  0  0  0
  129.0701  130.9445   57.3455 H   0  0  0  0  0  0  0  0  0  0  0  0
  128.0007  128.7261   57.0295 H   0  0  0  0  0  0  0  0  0  0  0  0
  133.8412  124.0256   61.6664 H   0  0  0  0  0  0  0  0  0  0  0  0
  134.2639  121.9606   60.6639 H   0  0  0  0  0  0  0  0  0  0  0  0
  133.5206  119.6190   60.2994 H   0  0  0  0  0  0  0  0  0  0  0  0
  129.4911  120.7306   61.4100 H   0  0  0  0  0  0  0  0  0  0  0  0
  130.2372  123.0715   61.7737 H   0  0  0  0  0  0  0  0  0  0  0  0
  131.3222  127.3546   64.2482 H   0  0  0  0  0  0  0  0  0  0  0  0
  129.7312  127.0527   63.4527 H   0  0  0  0  0  0  0  0  0  0  0  0
  129.6165  124.8051   64.4383 H   0  0  0  0  0  0  0  0  0  0  0  0
  128.4997  127.8345   65.2915 H   0  0  0  0  0  0  0  0  0  0  0  0
  127.5544  128.2827   67.6748 H   0  0  0  0  0  0  0  0  0  0  0  0
  128.3950  126.5390   69.4309 H   0  0  0  0  0  0  0  0  0  0  0  0
  132.3019  125.4531   65.7517 H   0  0  0  0  0  0  0  0  0  0  0  0
  131.3228  123.9207   65.8939 H   0  0  0  0  0  0  0  0  0  0  0  0
  130.7430  127.5240   61.4210 H   0  0  0  0  0  0  0  0  0  0  0  0
  1  2  1  0
  2  3  2  0
  3  4  1  0
  4  5  1  0
  5  6  2  0
  6  7  1  0
  7  8  2  0
  8  9  1  0
  9 10  2  0
 10 11  1  0
 11 12  2  0
 11 13  1  0
  4 14  1  0
 14 15  2  0
 15 16  1  0
 16 17  1  0
 17 18  2  0
 18 19  1  0
 19 20  2  0
 20 21  1  0
 21 22  2  0
 21 23  1  0
 20 24  1  0
 24 25  2  0
 16 26  1  0
 26 27  2  0
 27 28  1  0
 28 29  1  0
 29 30  1  0
 30 31  2  0
 31 32  1  0
 32 33  2  0
 33 34  1  0
 29 35  1  0
 35 36  1  0
 36 37  2  0
 27 38  1  0
 15  2  1  0
 25 17  1  0
 36 26  1  0
 10  5  1  0
 38 14  1  0
 34 30  1  0
  1 39  1  0
  1 40  1  0
  1 41  1  0
  6 42  1  0
  7 43  1  0
  8 44  1  0
  9 45  1  0
 16 46  1  1
 18 47  1  0
 19 48  1  0
 24 49  1  0
 25 50  1  0
 28 51  1  0
 28 52  1  0
 29 53  1  6
 31 54  1  0
 32 55  1  0
 33 56  1  0
 35 57  1  0
 35 58  1  0
 38 59  1  0
M  CHG  3  13  -1  21   1  23  -1
M  END
>  <Binding energies>  (1) 
[-8.68]

>  <Ligand effiencies>  (1) 
[-0.22256410256410256]

>  <Interactions>  (1) 
["V-A:ILE:369:CG2:3237, V-A:ASP:366:CA:3210, V-B:GLU:543:C:9874, V-A:ILE:369:CB:3236, V-B:GLU:543:CB:9878, H-A:TYR:531:OH:4795, V-B:TYR:539:CE2:9848, V-A:TYR:484:CE2:4346, V-B:GLU:543:CG:9879, V-A:ASP:366:CG:3213, V-B:TYR:539:CZ:9849, H-B:TYR:539:OH:9850, V-A:GLU:543:CD:4908, V-A:TYR:484:CZ:4347, V-B:GLU:543:CA:9876, H-A:GLY:454:N:4050, V-B:HIS:456:CE1:9041, V-A:HIS:456:CE1:4070, V-A:ASP:366:C:3208, V-B:TYR:539:CD2:9846, V-A:SER:385:CB:3409, H-A:SER:385:OG:3410, V-B:GLU:543:CD:9880, V-A:ASP:366:CB:3212, V-A:LEU:475:CD2:4259, H-A:GLU:543:OE1:4909, H-A:HIS:383:HE2:3395, H-A:ASP:366:OD2:3215, V-A:HIS:383:NE2:3394, H-A:TYR:484:OH:4348"]

$$$$
ZINC100893171
     RDKit          3D

 63 66  0  0  0  0  0  0  0  0999 V2000
  132.7000  131.7060   62.8450 C   0  0  0  0  0  0  0  0  0  0  0  0
  132.5150  131.5250   61.3400 C   0  0  0  0  0  0  0  0  0  0  0  0
  133.6580  131.5440   60.5350 C   0  0  0  0  0  0  0  0  0  0  0  0
  133.5540  131.4600   59.1510 C   0  0  0  0  0  0  0  0  0  0  0  0
  132.3010  131.3670   58.5510 C   0  0  0  0  0  0  0  0  0  0  0  0
  131.1410  131.3450   59.3310 C   0  0  0  0  0  0  0  0  0  0  0  0
  129.7900  131.2440   58.6290 C   0  0  0  0  0  0  0  0  0  0  0  0
  131.2430  131.4030   60.7350 C   0  0  0  0  0  0  0  0  0  0  0  0
  130.0560  131.3880   61.4890 N   0  0  0  0  0  0  0  0  0  0  0  0
  129.0640  132.2980   61.4100 C   0  0  0  0  0  0  0  0  0  0  0  0
  129.1040  133.3160   60.7170 O   0  0  0  0  0  0  0  0  0  0  0  0
  127.8250  132.0160   62.2710 C   0  0  0  0  0  0  0  0  0  0  0  0
  128.0050  130.7160   62.9450 N   0  0  0  0  0  0  0  0  0  0  0  0
  128.1820  130.6160   64.2850 C   0  0  0  0  0  0  0  0  0  0  0  0
  128.1860  131.5880   65.0390 O   0  0  0  0  0  0  0  0  0  0  0  0
  128.3630  129.1860   64.5940 C   0  0  0  0  0  0  0  0  0  0  0  0
  128.5810  128.6190   65.8300 C   0  0  0  0  0  0  0  0  0  0  0  0
  128.7910  126.8820   66.1080 S   0  0  0  0  0  0  0  0  0  0  0  0
  129.0190  127.0590   67.8140 C   0  0  0  0  0  0  0  0  0  0  0  0
  129.2870  125.7100   68.7620 S   0  0  0  0  0  0  0  0  0  0  0  0
  128.9340  128.3840   68.1250 N   0  0  0  0  0  0  0  0  0  0  0  0
  129.1030  128.8460   69.5230 C   0  0  0  0  0  0  0  0  0  0  0  0
  130.1760  128.0710   70.3130 C   0  0  0  0  0  0  0  0  0  0  0  0
  129.5820  127.3100   71.5090 C   0  0  0  0  0  0  0  0  0  0  0  0
  129.8970  127.9760   72.8650 C   0  0  0  0  0  0  0  0  0  0  0  0
  128.6780  128.6430   73.5560 C   0  0  0  0  0  0  0  0  0  0  0  0
  128.5970  128.4400   75.0880 C   0  0  0  0  0  0  0  0  0  0  0  0
  129.4580  129.0300   75.7790 O   0  0  0  0  0  0  0  0  0  0  0  0
  127.6700  127.7460   75.5660 O   0  0  0  0  0  0  0  0  0  0  0  0
  128.6890  129.2840   67.1350 C   0  0  0  0  0  0  0  0  0  0  0  0
  128.5810  130.4870   67.3670 O   0  0  0  0  0  0  0  0  0  0  0  0
  128.2680  128.5150   63.2770 C   0  0  0  0  0  0  0  0  0  0  0  0
  128.3520  127.1770   62.8590 C   0  0  0  0  0  0  0  0  0  0  0  0
  128.2210  126.8510   61.5070 C   0  0  0  0  0  0  0  0  0  0  0  0
  128.0070  127.8530   60.5610 C   0  0  0  0  0  0  0  0  0  0  0  0
  127.9210  129.1830   60.9680 C   0  0  0  0  0  0  0  0  0  0  0  0
  128.0550  129.4890   62.3250 C   0  0  0  0  0  0  0  0  0  0  0  0
  132.0138  131.0347   63.3821 H   0  0  0  0  0  0  0  0  0  0  0  0
  133.7378  131.4649   63.1185 H   0  0  0  0  0  0  0  0  0  0  0  0
  132.4816  132.7488   63.1185 H   0  0  0  0  0  0  0  0  0  0  0  0
  134.6506  131.6263   61.0018 H   0  0  0  0  0  0  0  0  0  0  0  0
  134.4619  131.4670   58.5299 H   0  0  0  0  0  0  0  0  0  0  0  0
  132.2232  131.3104   57.4552 H   0  0  0  0  0  0  0  0  0  0  0  0
  128.9895  131.1842   59.3811 H   0  0  0  0  0  0  0  0  0  0  0  0
  129.6363  132.1332   57.9999 H   0  0  0  0  0  0  0  0  0  0  0  0
  129.7702  130.3419   57.9999 H   0  0  0  0  0  0  0  0  0  0  0  0
  129.9850  130.6680   62.1930 H   0  0  0  0  0  0  0  0  0  0  0  0
  127.7080  132.8101   63.0231 H   0  0  0  0  0  0  0  0  0  0  0  0
  126.9260  131.9892   61.6377 H   0  0  0  0  0  0  0  0  0  0  0  0
  129.3870  129.9086   69.5044 H   0  0  0  0  0  0  0  0  0  0  0  0
  128.1443  128.6732   70.0338 H   0  0  0  0  0  0  0  0  0  0  0  0
  130.6594  127.3488   69.6386 H   0  0  0  0  0  0  0  0  0  0  0  0
  130.8998  128.8013   70.7040 H   0  0  0  0  0  0  0  0  0  0  0  0
  128.4898  127.2631   71.3870 H   0  0  0  0  0  0  0  0  0  0  0  0
  130.0376  126.3089   71.5207 H   0  0  0  0  0  0  0  0  0  0  0  0
  130.2955  127.2054   73.5413 H   0  0  0  0  0  0  0  0  0  0  0  0
  130.6166  128.7815   72.6569 H   0  0  0  0  0  0  0  0  0  0  0  0
  128.7239  129.7240   73.3579 H   0  0  0  0  0  0  0  0  0  0  0  0
  127.7851  128.1570   73.1359 H   0  0  0  0  0  0  0  0  0  0  0  0
  128.5218  126.3818   63.5998 H   0  0  0  0  0  0  0  0  0  0  0  0
  128.2869  125.8005   61.1875 H   0  0  0  0  0  0  0  0  0  0  0  0
  127.9064  127.5943   59.4966 H   0  0  0  0  0  0  0  0  0  0  0  0
  127.7499  129.9814   60.2309 H   0  0  0  0  0  0  0  0  0  0  0  0
  1  2  1  0
  2  3  2  0
  3  4  1  0
  4  5  2  0
  5  6  1  0
  6  7  1  0
  6  8  2  0
  8  9  1  0
  9 10  1  0
 10 11  2  0
 10 12  1  0
 12 13  1  0
 13 14  1  0
 14 15  2  0
 14 16  1  0
 16 17  2  0
 17 18  1  0
 18 19  1  0
 19 20  2  0
 19 21  1  0
 21 22  1  0
 22 23  1  0
 23 24  1  0
 24 25  1  0
 25 26  1  0
 26 27  1  0
 27 28  2  0
 27 29  1  0
 21 30  1  0
 30 31  2  0
 16 32  1  0
 32 33  2  0
 33 34  1  0
 34 35  2  0
 35 36  1  0
 36 37  2  0
  8  2  1  0
 37 13  1  0
 30 17  1  0
 37 32  1  0
  1 38  1  0
  1 39  1  0
  1 40  1  0
  3 41  1  0
  4 42  1  0
  5 43  1  0
  7 44  1  0
  7 45  1  0
  7 46  1  0
  9 47  1  0
 12 48  1  0
 12 49  1  0
 22 50  1  0
 22 51  1  0
 23 52  1  0
 23 53  1  0
 24 54  1  0
 24 55  1  0
 25 56  1  0
 25 57  1  0
 26 58  1  0
 26 59  1  0
 33 60  1  0
 34 61  1  0
 35 62  1  0
 36 63  1  0
M  CHG  1  29  -1
M  END
>  <Binding energies>  (1) 
[-9.75]

>  <Ligand effiencies>  (1) 
[-0.2565789473684211]

>  <Interactions>  (1) 
["V-A:GLU:543:CA:4904, V-A:ALA:541:C:4888, V-B:HIS:456:CD2:9039, V-B:GLU:543:C:9874, V-A:GLU:543:C:4902, H-A:ALA:541:N:4891, V-B:GLU:543:CB:9878, H-B:LYS:547:NZ:9923, V-A:ASP:366:CG:3213, V-A:ASN:362:CB:3176, V-A:LEU:363:CB:3187, V-A:LEU:363:CD1:3189, V-A:GLU:543:CD:4908, H-B:TYR:484:OH:9319, V-B:HIS:456:CE1:9041, V-B:GLU:543:CA:9876, V-A:HIS:456:CE1:4070, V-A:GLU:543:CG:4907, V-B:GLU:543:CD:9880, H-A:LYS:547:NZ:4951, V-A:ASN:362:C:3172, H-A:GLU:543:OE1:4909, V-A:GLU:543:CB:4906, V-A:PRO:540:CB:4885, V-A:PRO:540:CA:4883, V-A:LEU:363:CA:3185"]

$$$$
ZINC100895761
     RDKit          3D

 39 41  0  0  0  0  0  0  0  0999 V2000
  133.9940  124.2390   60.4120 C   0  0  0  0  0  0  0  0  0  0  0  0
  133.4120  124.4590   61.6010 C   0  0  0  0  0  0  0  0  0  0  0  0
  132.5870  123.4300   62.3610 C   0  0  0  0  0  0  0  0  0  0  0  0
  131.6900  124.0020   63.3940 N   0  0  0  0  0  0  0  0  0  0  0  0
  132.2630  124.4500   64.5460 C   0  0  0  0  0  0  0  0  0  0  0  0
  133.4600  124.3270   64.8290 O   0  0  0  0  0  0  0  0  0  0  0  0
  131.2830  125.0830   65.3920 C   0  0  0  0  0  0  0  0  0  0  0  0
  131.6060  125.5530   66.6200 C   0  0  0  0  0  0  0  0  0  0  0  0
  130.7590  126.2130   67.5990 C   0  0  0  0  0  0  0  0  0  0  0  0
  129.4200  126.0400   67.9320 C   0  0  0  0  0  0  0  0  0  0  0  0
  129.1170  126.9440   68.9500 C   0  0  0  0  0  0  0  0  0  0  0  0
  130.2820  127.6400   69.2030 C   0  0  0  0  0  0  0  0  0  0  0  0
  131.2730  127.1990   68.3880 O   0  0  0  0  0  0  0  0  0  0  0  0
  129.7340  125.1150   64.5720 S   0  0  0  0  0  0  0  0  0  0  0  0
  130.3320  124.1250   63.2220 C   0  0  0  0  0  0  0  0  0  0  0  0
  129.4290  123.7430   62.4080 N   0  0  0  0  0  0  0  0  0  0  0  0
  129.6900  122.4560   61.2370 S   0  0  0  0  0  0  0  0  0  0  0  0
  130.8360  122.6060   60.3320 O   0  0  0  0  0  0  0  0  0  0  0  0
  129.3930  121.0810   61.6610 O   0  0  0  0  0  0  0  0  0  0  0  0
  128.2770  122.8920   60.2180 C   0  0  0  0  0  0  0  0  0  0  0  0
  127.1650  123.5060   60.8050 C   0  0  0  0  0  0  0  0  0  0  0  0
  126.0690  123.8540   60.0210 C   0  0  0  0  0  0  0  0  0  0  0  0
  126.0880  123.5910   58.6530 C   0  0  0  0  0  0  0  0  0  0  0  0
  127.1950  122.9850   58.0610 C   0  0  0  0  0  0  0  0  0  0  0  0
  128.2920  122.6370   58.8440 C   0  0  0  0  0  0  0  0  0  0  0  0
  134.5750  125.0378   59.9279 H   0  0  0  0  0  0  0  0  0  0  0  0
  133.8900  123.2599   59.9215 H   0  0  0  0  0  0  0  0  0  0  0  0
  133.5399  125.4514   62.0579 H   0  0  0  0  0  0  0  0  0  0  0  0
  131.9690  122.8812   61.6351 H   0  0  0  0  0  0  0  0  0  0  0  0
  133.3031  122.7849   62.8911 H   0  0  0  0  0  0  0  0  0  0  0  0
  132.6560  125.4161   66.9181 H   0  0  0  0  0  0  0  0  0  0  0  0
  128.7251  125.3201   67.4750 H   0  0  0  0  0  0  0  0  0  0  0  0
  128.1461  127.0757   69.4501 H   0  0  0  0  0  0  0  0  0  0  0  0
  130.3909  128.4354   69.9550 H   0  0  0  0  0  0  0  0  0  0  0  0
  127.1571  123.7134   61.8852 H   0  0  0  0  0  0  0  0  0  0  0  0
  125.1920  124.3344   60.4793 H   0  0  0  0  0  0  0  0  0  0  0  0
  125.2208  123.8643   58.0339 H   0  0  0  0  0  0  0  0  0  0  0  0
  127.2016  122.7827   56.9798 H   0  0  0  0  0  0  0  0  0  0  0  0
  129.1698  122.1618   58.3818 H   0  0  0  0  0  0  0  0  0  0  0  0
  1  2  2  0
  2  3  1  0
  3  4  1  0
  4  5  1  0
  5  6  2  0
  5  7  1  0
  7  8  2  0
  8  9  1  0
  9 10  2  0
 10 11  1  0
 11 12  2  0
 12 13  1  0
  7 14  1  0
 14 15  1  0
 15 16  2  0
 16 17  1  0
 17 18  2  0
 17 19  2  0
 17 20  1  0
 20 21  2  0
 21 22  1  0
 22 23  2  0
 23 24  1  0
 24 25  2  0
 15  4  1  0
 25 20  1  0
 13  9  1  0
  1 26  1  0
  1 27  1  0
  2 28  1  0
  3 29  1  0
  3 30  1  0
  8 31  1  0
 10 32  1  0
 11 33  1  0
 12 34  1  0
 21 35  1  0
 22 36  1  0
 23 37  1  0
 24 38  1  0
 25 39  1  0
M  END
>  <Binding energies>  (1) 
[-6.93]

>  <Ligand effiencies>  (1) 
[-0.2772]

>  <Interactions>  (1) 
["V-A:ILE:369:CG2:3237, V-A:ASP:366:CA:3210, V-B:PRO:540:CA:9855, V-B:GLU:543:CB:9878, V-B:TYR:539:CE2:9848, V-B:GLU:543:CG:9879, V-B:TYR:539:C:9839, V-A:ASP:366:CG:3213, V-B:TYR:539:CZ:9849, H-B:ALA:541:N:9863, V-A:TYR:484:CZ:4347, V-B:PRO:540:CB:9857, V-A:GLU:543:CD:4908, V-B:GLU:543:CA:9876, H-A:GLY:454:N:4050, V-B:PRO:540:N:9856, V-A:HIS:456:CE1:4070, V-A:ILE:369:CD1:3239, V-B:TYR:539:CD2:9846, V-B:TYR:539:CG:9844, V-A:GLU:543:CB:4906, H-A:TYR:484:OH:4348"]

$$$$
ZINC100953341-again1
     RDKit          3D

 58 60  0  0  0  0  0  0  0  0999 V2000
  126.0560  124.0160   58.3540 C   0  0  0  0  0  0  0  0  0  0  0  0
  127.2690  123.9820   59.3010 C   0  0  2  0  0  0  0  0  0  0  0  0
  128.4970  125.2750   58.8860 S   0  0  0  0  0  0  0  0  0  0  0  0
  128.1040  126.6220   59.9690 C   0  0  0  0  0  0  0  0  0  0  0  0
  128.6800  127.7940   59.8680 N   0  0  0  0  0  0  0  0  0  0  0  0
  128.2250  128.7180   60.8010 N   0  0  0  0  0  0  0  0  0  0  0  0
  127.3020  128.2350   61.5960 C   0  0  0  0  0  0  0  0  0  0  0  0
  126.4800  129.0940   62.9010 S   0  0  0  0  0  0  0  0  0  0  0  0
  127.8220  130.1340   63.5770 C   0  0  1  0  0  0  0  0  0  0  0  0
  127.6580  131.6000   63.1170 C   0  0  0  0  0  0  0  0  0  0  0  0
  127.8500  129.9830   65.1110 C   0  0  0  0  0  0  0  0  0  0  0  0
  128.3540  130.8620   65.8180 O   0  0  0  0  0  0  0  0  0  0  0  0
  127.2930  128.8550   65.5960 N   0  0  0  0  0  0  0  0  0  0  0  0
  127.2330  128.5820   66.9130 N   0  0  0  0  0  0  0  0  0  0  0  0
  128.2000  127.8570   67.3140 C   0  0  0  0  0  0  0  0  0  0  0  0
  128.3730  127.4150   68.7130 C   0  0  0  0  0  0  0  0  0  0  0  0
  127.2640  127.0250   69.4830 C   0  0  0  0  0  0  0  0  0  0  0  0
  127.4100  126.6070   70.8050 C   0  0  0  0  0  0  0  0  0  0  0  0
  128.6730  126.5680   71.3870 C   0  0  0  0  0  0  0  0  0  0  0  0
  128.8190  126.1590   72.6850 O   0  0  0  0  0  0  0  0  0  0  0  0
  129.7890  126.9470   70.6450 C   0  0  0  0  0  0  0  0  0  0  0  0
  129.6480  127.3680   69.3200 C   0  0  0  0  0  0  0  0  0  0  0  0
  130.7930  127.7310   68.6510 O   0  0  0  0  0  0  0  0  0  0  0  0
  126.9180  126.5760   61.2510 S   0  0  0  0  0  0  0  0  0  0  0  0
  127.8770  122.5540   59.2960 C   0  0  0  0  0  0  0  0  0  0  0  0
  127.9600  121.9370   58.2340 O   0  0  0  0  0  0  0  0  0  0  0  0
  128.3160  121.9840   60.4370 N   0  0  0  0  0  0  0  0  0  0  0  0
  128.2690  122.5840   61.6400 N   0  0  0  0  0  0  0  0  0  0  0  0
  129.4100  122.9760   62.0490 C   0  0  0  0  0  0  0  0  0  0  0  0
  129.6350  123.6850   63.3390 C   0  0  0  0  0  0  0  0  0  0  0  0
  129.6480  125.0930   63.3370 C   0  0  0  0  0  0  0  0  0  0  0  0
  129.8590  125.8260   64.5010 C   0  0  0  0  0  0  0  0  0  0  0  0
  130.0650  125.1700   65.7080 C   0  0  0  0  0  0  0  0  0  0  0  0
  130.2720  125.8900   66.8530 O   0  0  0  0  0  0  0  0  0  0  0  0
  130.0620  123.7800   65.7490 C   0  0  0  0  0  0  0  0  0  0  0  0
  129.8510  123.0260   64.5850 C   0  0  0  0  0  0  0  0  0  0  0  0
  129.8640  121.7520   64.7260 O   0  0  0  0  0  0  0  0  0  0  0  0
  125.1293  124.0420   58.9460 H   0  0  0  0  0  0  0  0  0  0  0  0
  126.1111  124.9130   57.7196 H   0  0  0  0  0  0  0  0  0  0  0  0
  126.0608  123.1174   57.7196 H   0  0  0  0  0  0  0  0  0  0  0  0
  126.9369  124.2140   60.3237 H   0  0  0  0  0  0  0  0  0  0  0  0
  128.7958  129.8004   63.1893 H   0  0  0  0  0  0  0  0  0  0  0  0
  127.5848  132.2547   63.9979 H   0  0  0  0  0  0  0  0  0  0  0  0
  128.5288  131.8943   62.5128 H   0  0  0  0  0  0  0  0  0  0  0  0
  126.7437  131.6946   62.5128 H   0  0  0  0  0  0  0  0  0  0  0  0
  126.8850  128.1600   64.9870 H   0  0  0  0  0  0  0  0  0  0  0  0
  128.9510  127.5411   66.5749 H   0  0  0  0  0  0  0  0  0  0  0  0
  126.2603  127.0500   69.0335 H   0  0  0  0  0  0  0  0  0  0  0  0
  126.5264  126.3080   71.3880 H   0  0  0  0  0  0  0  0  0  0  0  0
  129.5800  125.5880   72.8130 H   0  0  0  0  0  0  0  0  0  0  0  0
  130.7877  126.9147   71.1049 H   0  0  0  0  0  0  0  0  0  0  0  0
  130.6690  127.7770   67.7010 H   0  0  0  0  0  0  0  0  0  0  0  0
  128.7140  121.0560   60.4340 H   0  0  0  0  0  0  0  0  0  0  0  0
  130.2831  122.7785   61.4097 H   0  0  0  0  0  0  0  0  0  0  0  0
  129.4870  125.6282   62.3895 H   0  0  0  0  0  0  0  0  0  0  0  0
  129.8627  126.9254   64.4652 H   0  0  0  0  0  0  0  0  0  0  0  0
  130.8930  126.6110   66.7260 H   0  0  0  0  0  0  0  0  0  0  0  0
  130.2273  123.2649   66.7068 H   0  0  0  0  0  0  0  0  0  0  0  0
  1  2  1  0
  2  3  1  0
  3  4  1  0
  4  5  2  0
  5  6  1  0
  6  7  2  0
  7  8  1  0
  8  9  1  0
  9 10  1  0
  9 11  1  0
 11 12  2  0
 11 13  1  0
 13 14  1  0
 14 15  2  0
 15 16  1  0
 16 17  2  0
 17 18  1  0
 18 19  2  0
 19 20  1  0
 19 21  1  0
 21 22  2  0
 22 23  1  0
  7 24  1  0
  2 25  1  0
 25 26  2  0
 25 27  1  0
 27 28  1  0
 28 29  2  0
 29 30  1  0
 30 31  2  0
 31 32  1  0
 32 33  2  0
 33 34  1  0
 33 35  1  0
 35 36  2  0
 36 37  1  0
 24  4  1  0
 36 30  1  0
 22 16  1  0
  1 38  1  0
  1 39  1  0
  1 40  1  0
  2 41  1  1
  9 42  1  6
 10 43  1  0
 10 44  1  0
 10 45  1  0
 13 46  1  0
 15 47  1  0
 17 48  1  0
 18 49  1  0
 20 50  1  0
 21 51  1  0
 23 52  1  0
 27 53  1  0
 29 54  1  0
 31 55  1  0
 32 56  1  0
 34 57  1  0
 35 58  1  0
M  CHG  1  37  -1
M  END
>  <Binding energies>  (1) 
[-6.65]

>  <Ligand effiencies>  (1) 
[-0.15833333333333335]

>  <Interactions>  (1) 
["V-B:PRO:540:CA:9855, V-B:GLU:543:C:9874, H-A:GLU:543:OE2:4910, H-B:GLU:543:O:9875, V-B:GLU:543:CB:9878, H-B:LYS:547:NZ:9923, V-B:TYR:539:CE2:9848, V-A:TYR:484:CE2:4346, V-B:GLU:543:CG:9879, V-B:TYR:539:C:9839, V-A:HIS:456:CD2:4068, H-B:GLU:543:OE1:9881, H-B:ALA:541:N:9863, V-A:GLU:543:CD:4908, V-B:PRO:540:CB:9857, V-A:TYR:484:CZ:4347, H-B:TYR:484:OH:9319, V-B:HIS:456:CE1:9041, V-B:PRO:540:N:9856, V-A:HIS:456:CE1:4070, V-B:GLY:544:C:9884, V-B:TYR:539:CD2:9846, V-A:GLU:543:CG:4907, V-B:GLY:544:CA:9886, V-B:GLU:543:CD:9880, H-B:ARG:545:NH2:9900, V-A:GLU:543:CB:4906, H-B:GLU:543:OE2:9882, H-B:TYR:539:O:9840, V-B:PRO:540:C:9853, H-A:HIS:456:NE2:4071"]

$$$$
ZINC100985181-again1
     RDKit          3D

 75 78  0  0  0  0  0  0  0  0999 V2000
  128.7070  127.8630   63.3590 C   0  0  0  0  0  0  0  0  0  0  0  0
  128.6970  127.6590   61.8480 C   0  0  0  0  0  0  0  0  0  0  0  0
  127.8920  126.6610   61.3080 C   0  0  0  0  0  0  0  0  0  0  0  0
  127.8490  126.4210   59.9330 C   0  0  0  0  0  0  0  0  0  0  0  0
  126.7930  125.0890   59.4150 S   0  0  0  0  0  0  0  0  0  0  0  0
  127.4680  123.5320   60.0970 C   0  0  2  0  0  0  0  0  0  0  0  0
  127.0750  123.4380   61.5840 C   0  0  0  0  0  0  0  0  0  0  0  0
  125.9280  123.2250   61.9710 O   0  0  0  0  0  0  0  0  0  0  0  0
  128.2450  123.6080   62.5470 C   0  0  0  0  0  0  0  0  0  0  0  0
  129.4650  122.7700   62.0660 C   0  0  2  0  0  0  0  0  0  0  0  0
  129.1480  121.2500   62.0010 C   0  0  0  0  0  0  0  0  0  0  0  0
  130.6750  123.0520   62.9980 C   0  0  0  0  0  0  0  0  0  0  0  0
  131.4840  124.3400   62.7150 C   0  0  0  0  0  0  0  0  0  0  0  0
  132.1140  124.3420   61.3290 C   0  0  0  0  0  0  0  0  0  0  0  0
  131.8880  125.4120   60.4590 C   0  0  0  0  0  0  0  0  0  0  0  0
  132.4640  125.4100   59.1920 C   0  0  0  0  0  0  0  0  0  0  0  0
  133.2660  124.3410   58.7980 C   0  0  0  0  0  0  0  0  0  0  0  0
  133.8320  124.3400   57.5500 O   0  0  0  0  0  0  0  0  0  0  0  0
  133.4980  123.2730   59.6630 C   0  0  0  0  0  0  0  0  0  0  0  0
  132.9200  123.2730   60.9300 C   0  0  0  0  0  0  0  0  0  0  0  0
  129.8820  123.2020   60.7560 O   0  0  0  0  0  0  0  0  0  0  0  0
  128.9820  123.4960   59.7520 C   0  0  0  0  0  0  0  0  0  0  0  0
  129.4800  123.7150   58.6490 O   0  0  0  0  0  0  0  0  0  0  0  0
  128.6200  127.2090   59.0380 C   0  0  0  0  0  0  0  0  0  0  0  0
  128.6220  127.0150   57.4810 C   0  0  0  0  0  0  0  0  0  0  0  0
  129.6150  125.9140   57.0010 C   0  0  0  0  0  0  0  0  0  0  0  0
  127.2300  126.5580   56.9680 C   0  0  0  0  0  0  0  0  0  0  0  0
  129.0750  128.3130   56.7600 C   0  0  0  0  0  0  0  0  0  0  0  0
  129.4230  128.2140   59.6160 C   0  0  0  0  0  0  0  0  0  0  0  0
  129.4790  128.4470   60.9950 C   0  0  0  0  0  0  0  0  0  0  0  0
  130.3000  129.4490   61.5430 N   0  0  0  0  0  0  0  0  0  0  0  0
  130.1180  131.1870   61.2250 S   0  0  0  0  0  0  0  0  0  0  0  0
  128.6760  131.4620   61.2030 O   0  0  0  0  0  0  0  0  0  0  0  0
  130.9980  131.8840   62.1690 O   0  0  0  0  0  0  0  0  0  0  0  0
  130.7600  131.4160   59.5710 C   0  0  0  0  0  0  0  0  0  0  0  0
  131.9390  130.7720   59.1870 C   0  0  0  0  0  0  0  0  0  0  0  0
  132.4240  130.9370   57.8930 C   0  0  0  0  0  0  0  0  0  0  0  0
  131.7270  131.7370   56.9900 C   0  0  0  0  0  0  0  0  0  0  0  0
  130.5470  132.3740   57.3680 C   0  0  0  0  0  0  0  0  0  0  0  0
  130.0590  132.2110   58.6620 C   0  0  0  0  0  0  0  0  0  0  0  0
  128.6591  126.8855   63.8613 H   0  0  0  0  0  0  0  0  0  0  0  0
  129.6316  128.3813   63.6529 H   0  0  0  0  0  0  0  0  0  0  0  0
  127.8375  128.4693   63.6529 H   0  0  0  0  0  0  0  0  0  0  0  0
  127.2749  126.0465   61.9800 H   0  0  0  0  0  0  0  0  0  0  0  0
  127.0492  122.6158   59.6551 H   0  0  0  0  0  0  0  0  0  0  0  0
  128.5283  124.6700   62.5902 H   0  0  0  0  0  0  0  0  0  0  0  0
  127.9414  123.2587   63.5449 H   0  0  0  0  0  0  0  0  0  0  0  0
  129.0644  120.8489   63.0218 H   0  0  0  0  0  0  0  0  0  0  0  0
  128.1984  121.0960   61.4676 H   0  0  0  0  0  0  0  0  0  0  0  0
  129.9569  120.7292   61.4676 H   0  0  0  0  0  0  0  0  0  0  0  0
  130.2945  123.1169   64.0280 H   0  0  0  0  0  0  0  0  0  0  0  0
  131.3770  122.2243   62.8191 H   0  0  0  0  0  0  0  0  0  0  0  0
  130.8094  125.2050   62.7968 H   0  0  0  0  0  0  0  0  0  0  0  0
  132.2991  124.3906   63.4519 H   0  0  0  0  0  0  0  0  0  0  0  0
  131.2557  126.2547   60.7752 H   0  0  0  0  0  0  0  0  0  0  0  0
  132.2866  126.2497   58.5039 H   0  0  0  0  0  0  0  0  0  0  0  0
  134.7010  124.7490   57.5330 H   0  0  0  0  0  0  0  0  0  0  0  0
  134.1348  122.4339   59.3463 H   0  0  0  0  0  0  0  0  0  0  0  0
  133.0980  122.4318   61.6161 H   0  0  0  0  0  0  0  0  0  0  0  0
  130.0626  125.4178   57.8747 H   0  0  0  0  0  0  0  0  0  0  0  0
  129.0747  125.1720   56.3947 H   0  0  0  0  0  0  0  0  0  0  0  0
  130.4086  126.3751   56.3947 H   0  0  0  0  0  0  0  0  0  0  0  0
  126.5756  126.3431   57.8256 H   0  0  0  0  0  0  0  0  0  0  0  0
  126.7839  127.3568   56.3574 H   0  0  0  0  0  0  0  0  0  0  0  0
  127.3442  125.6502   56.3574 H   0  0  0  0  0  0  0  0  0  0  0  0
  129.3407  129.0744   57.5082 H   0  0  0  0  0  0  0  0  0  0  0  0
  129.9506  128.0963   56.1305 H   0  0  0  0  0  0  0  0  0  0  0  0
  128.2547  128.6881   56.1305 H   0  0  0  0  0  0  0  0  0  0  0  0
  130.0336  128.8439   58.9524 H   0  0  0  0  0  0  0  0  0  0  0  0
  131.0680  129.1580   62.1290 H   0  0  0  0  0  0  0  0  0  0  0  0
  132.4811  130.1378   59.9038 H   0  0  0  0  0  0  0  0  0  0  0  0
  133.3542  130.4376   57.5843 H   0  0  0  0  0  0  0  0  0  0  0  0
  132.1124  131.8670   55.9680 H   0  0  0  0  0  0  0  0  0  0  0  0
  130.0033  133.0028   56.6476 H   0  0  0  0  0  0  0  0  0  0  0  0
  129.1253  132.7064   58.9667 H   0  0  0  0  0  0  0  0  0  0  0  0
  1  2  1  0
  2  3  2  0
  3  4  1  0
  4  5  1  0
  5  6  1  0
  6  7  1  0
  7  8  2  0
  7  9  1  0
  9 10  1  0
 10 11  1  6
 10 12  1  0
 12 13  1  0
 13 14  1  0
 14 15  2  0
 15 16  1  0
 16 17  2  0
 17 18  1  0
 17 19  1  0
 19 20  2  0
 10 21  1  0
 21 22  1  0
 22 23  2  0
  4 24  2  0
 24 25  1  0
 25 26  1  0
 25 27  1  0
 25 28  1  0
 24 29  1  0
 29 30  2  0
 30 31  1  0
 31 32  1  0
 32 33  2  0
 32 34  2  0
 32 35  1  0
 35 36  2  0
 36 37  1  0
 37 38  2  0
 38 39  1  0
 39 40  2  0
 30  2  1  0
 40 35  1  0
 22  6  1  0
 20 14  1  0
  1 41  1  0
  1 42  1  0
  1 43  1  0
  3 44  1  0
  6 45  1  6
  9 46  1  0
  9 47  1  0
 11 48  1  0
 11 49  1  0
 11 50  1  0
 12 51  1  0
 12 52  1  0
 13 53  1  0
 13 54  1  0
 15 55  1  0
 16 56  1  0
 18 57  1  0
 19 58  1  0
 20 59  1  0
 26 60  1  0
 26 61  1  0
 26 62  1  0
 27 63  1  0
 27 64  1  0
 27 65  1  0
 28 66  1  0
 28 67  1  0
 28 68  1  0
 29 69  1  0
 31 70  1  0
 36 71  1  0
 37 72  1  0
 38 73  1  0
 39 74  1  0
 40 75  1  0
M  END
>  <Binding energies>  (1) 
[-9.67]

>  <Ligand effiencies>  (1) 
[-0.23023809523809524]

>  <Interactions>  (1) 
["V-A:ILE:369:CG2:3237, V-A:ASP:366:CA:3210, V-B:PRO:540:CA:9855, V-A:ILE:369:CB:3236, H-A:ALA:541:N:4891, V-B:ALA:541:CB:9864, V-B:TYR:539:CE2:9848, V-B:GLU:543:CG:9879, V-A:ASP:366:CG:3213, V-A:LEU:363:CD1:3189, V-B:TYR:539:CZ:9849, H-A:ASN:370:N:3244, V-B:TYR:531:CZ:9766, H-B:TYR:539:OH:9850, H-B:ALA:541:N:9863, V-A:GLU:543:CD:4908, V-A:ILE:369:CD1:3239, V-B:TYR:539:CD2:9846, V-B:GLU:543:CD:9880, V-A:MET:535:CE:4835, V-A:ASP:366:CB:3212, V-A:LEU:475:CD2:4259, H-A:GLU:543:OE1:4909, H-A:ASP:366:O:3209, V-A:PRO:540:N:4884, V-A:PRO:540:CB:4885, V-A:PRO:540:CA:4883, V-B:PRO:540:C:9853, H-A:ASP:366:OD2:3215, V-B:ALA:541:CA:9862"]

$$$$
ZINC101006940
     RDKit          3D

 51 55  0  0  0  0  0  0  0  0999 V2000
  128.5670  127.7680   67.3640 O   0  0  0  0  0  0  0  0  0  0  0  0
  128.8400  126.9150   68.2130 C   0  0  0  0  0  0  0  0  0  0  0  0
  129.3960  125.7120   67.9350 N   0  0  0  0  0  0  0  0  0  0  0  0
  129.7280  125.2110   66.6820 C   0  0  0  0  0  0  0  0  0  0  0  0
  129.7750  123.9180   66.3470 N   0  0  0  0  0  0  0  0  0  0  0  0
  130.1110  123.9520   65.0840 C   0  0  0  0  0  0  0  0  0  0  0  0
  130.3090  125.2530   64.7020 N   0  0  0  0  0  0  0  0  0  0  0  0
  130.0480  126.0640   65.7280 N   0  0  0  0  0  0  0  0  0  0  0  0
  130.6800  125.6440   63.3450 C   0  0  2  0  0  0  0  0  0  0  0  0
  129.4810  126.1350   62.5190 C   0  0  0  0  0  0  0  0  0  0  0  0
  128.7950  127.2910   62.9070 C   0  0  0  0  0  0  0  0  0  0  0  0
  127.7090  127.7470   62.1620 C   0  0  0  0  0  0  0  0  0  0  0  0
  127.3100  127.0510   61.0240 C   0  0  0  0  0  0  0  0  0  0  0  0
  126.2570  127.4940   60.3010 F   0  0  0  0  0  0  0  0  0  0  0  0
  127.9870  125.9000   60.6260 C   0  0  0  0  0  0  0  0  0  0  0  0
  129.0710  125.4430   61.3710 C   0  0  0  0  0  0  0  0  0  0  0  0
  131.4450  124.4400   62.6890 C   0  0  0  0  0  0  0  0  0  0  0  0
  130.8820  123.0390   63.0860 C   0  0  0  0  0  0  0  0  0  0  0  0
  131.0730  121.8870   62.1700 C   0  0  0  0  0  0  0  0  0  0  0  0
  130.0640  120.9270   61.9910 C   0  0  0  0  0  0  0  0  0  0  0  0
  130.2610  119.8440   61.1380 C   0  0  0  0  0  0  0  0  0  0  0  0
  131.4660  119.7080   60.4540 C   0  0  0  0  0  0  0  0  0  0  0  0
  131.7080  118.3620   59.4020 Cl  0  0  0  0  0  0  0  0  0  0  0  0
  132.4740  120.6540   60.6130 C   0  0  0  0  0  0  0  0  0  0  0  0
  132.2790  121.7370   61.4640 C   0  0  0  0  0  0  0  0  0  0  0  0
  130.3090  122.9030   64.2330 N   0  0  0  0  0  0  0  0  0  0  0  0
  128.5960  127.2010   69.6800 C   0  0  0  0  0  0  0  0  0  0  0  0
  127.3330  126.9660   70.2370 C   0  0  0  0  0  0  0  0  0  0  0  0
  127.0860  127.2340   71.5820 C   0  0  0  0  0  0  0  0  0  0  0  0
  128.0980  127.7290   72.4030 C   0  0  0  0  0  0  0  0  0  0  0  0
  127.7020  128.0860   74.0510 Cl  0  0  0  0  0  0  0  0  0  0  0  0
  129.3840  127.9500   71.8760 C   0  0  0  0  0  0  0  0  0  0  0  0
  130.4900  128.4790   72.7010 N   0  0  0  0  0  0  0  0  0  0  0  0
  131.3180  127.6920   73.1490 O   0  0  0  0  0  0  0  0  0  0  0  0
  130.5470  129.6930   72.8700 O   0  0  0  0  0  0  0  0  0  0  0  0
  129.6120  127.6940   70.5170 C   0  0  0  0  0  0  0  0  0  0  0  0
  129.6750  125.1410   68.7180 H   0  0  0  0  0  0  0  0  0  0  0  0
  131.3482  126.5172   63.3768 H   0  0  0  0  0  0  0  0  0  0  0  0
  129.1141  127.8423   63.8038 H   0  0  0  0  0  0  0  0  0  0  0  0
  127.1689  128.6537   62.4720 H   0  0  0  0  0  0  0  0  0  0  0  0
  127.6662  125.3543   59.7264 H   0  0  0  0  0  0  0  0  0  0  0  0
  129.6077  124.5354   61.0574 H   0  0  0  0  0  0  0  0  0  0  0  0
  131.3789  124.5424   61.5958 H   0  0  0  0  0  0  0  0  0  0  0  0
  132.4810  124.4827   63.0561 H   0  0  0  0  0  0  0  0  0  0  0  0
  129.1102  121.0313   62.5289 H   0  0  0  0  0  0  0  0  0  0  0  0
  129.4651  119.0965   61.0047 H   0  0  0  0  0  0  0  0  0  0  0  0
  133.4228  120.5457   60.0671 H   0  0  0  0  0  0  0  0  0  0  0  0
  133.0772  122.4840   61.5857 H   0  0  0  0  0  0  0  0  0  0  0  0
  126.5264  126.5652   69.6055 H   0  0  0  0  0  0  0  0  0  0  0  0
  126.0843  127.0535   71.9992 H   0  0  0  0  0  0  0  0  0  0  0  0
  130.6101  127.8835   70.0952 H   0  0  0  0  0  0  0  0  0  0  0  0
  1  2  2  0
  2  3  1  0
  3  4  1  0
  4  5  1  0
  5  6  2  0
  6  7  1  0
  7  8  1  0
  7  9  1  0
  9 10  1  0
 10 11  2  0
 11 12  1  0
 12 13  2  0
 13 14  1  0
 13 15  1  0
 15 16  2  0
  9 17  1  0
 17 18  1  0
 18 19  1  0
 19 20  2  0
 20 21  1  0
 21 22  2  0
 22 23  1  0
 22 24  1  0
 24 25  2  0
 18 26  2  0
  2 27  1  0
 27 28  2  0
 28 29  1  0
 29 30  2  0
 30 31  1  0
 30 32  1  0
 32 33  1  0
 33 34  2  0
 33 35  1  0
 32 36  2  0
  8  4  2  0
 16 10  1  0
 25 19  1  0
 36 27  1  0
 26  6  1  0
  3 37  1  0
  9 38  1  1
 11 39  1  0
 12 40  1  0
 15 41  1  0
 16 42  1  0
 17 43  1  0
 17 44  1  0
 20 45  1  0
 21 46  1  0
 24 47  1  0
 25 48  1  0
 28 49  1  0
 29 50  1  0
 36 51  1  0
M  CHG  2  33   1  35  -1
M  END
>  <Binding energies>  (1) 
[-8.52]

>  <Ligand effiencies>  (1) 
[-0.23027027027027025]

>  <Interactions>  (1) 
["V-A:ILE:369:CG2:3237, V-B:GLU:543:C:9874, V-B:HIS:456:CD2:9039, H-B:GLU:543:O:9875, V-B:GLU:543:CB:9878, V-B:ASP:366:CG:8184, V-B:ALA:541:CB:9864, V-B:TYR:539:CE2:9848, V-A:TYR:484:CE2:4346, V-B:GLU:543:CG:9879, V-A:GLY:544:C:4912, V-B:TYR:539:C:9839, V-B:LYS:547:CE:9922, V-B:TYR:539:CB:9843, V-B:HIS:456:CE1:9041, V-B:GLU:543:CA:9876, V-A:HIS:456:CE1:4070, V-B:GLY:544:C:9884, V-B:GLY:544:CA:9886, V-B:TYR:539:CD2:9846, V-B:GLU:543:CD:9880, V-B:HIS:456:CG:9037, H-A:LYS:547:NZ:4951, V-A:LEU:475:CD2:4259, V-B:TYR:539:CG:9844, V-A:HIS:383:CD2:3392, V-A:HIS:383:NE2:3394, H-A:HIS:456:NE2:4071, H-A:TYR:484:OH:4348"]

$$$$
ZINC101031278
     RDKit          3D

 67 71  0  0  0  0  0  0  0  0999 V2000
  130.2250  131.9090   62.8520 C   0  0  0  0  0  0  0  0  0  0  0  0
  128.7110  132.0470   62.6330 C   0  0  0  0  0  0  0  0  0  0  0  0
  127.9050  132.1290   63.9400 C   0  0  0  0  0  0  0  0  0  0  0  0
  127.1070  130.9570   64.0800 O   0  0  0  0  0  0  0  0  0  0  0  0
  127.6600  129.8100   64.6210 C   0  0  0  0  0  0  0  0  0  0  0  0
  127.7630  129.5700   66.0020 C   0  0  0  0  0  0  0  0  0  0  0  0
  128.3410  128.3970   66.4790 C   0  0  0  0  0  0  0  0  0  0  0  0
  128.8380  127.4430   65.5880 C   0  0  0  0  0  0  0  0  0  0  0  0
  129.4760  126.1440   66.0930 C   0  0  1  0  0  0  0  0  0  0  0  0
  130.3410  125.4820   65.0740 C   0  0  0  0  0  0  0  0  0  0  0  0
  131.5630  125.3480   65.5900 C   0  0  0  0  0  0  0  0  0  0  0  0
  132.6460  124.8120   64.9720 O   0  0  0  0  0  0  0  0  0  0  0  0
  132.4720  124.3760   63.6690 C   0  0  0  0  0  0  0  0  0  0  0  0
  133.5900  123.8420   63.0300 C   0  0  0  0  0  0  0  0  0  0  0  0
  133.4820  123.3840   61.7170 C   0  0  0  0  0  0  0  0  0  0  0  0
  132.2610  123.4630   61.0470 C   0  0  0  0  0  0  0  0  0  0  0  0
  132.1620  123.0190   59.7720 F   0  0  0  0  0  0  0  0  0  0  0  0
  131.1410  123.9980   61.6860 C   0  0  0  0  0  0  0  0  0  0  0  0
  131.2280  124.4640   63.0070 C   0  0  0  0  0  0  0  0  0  0  0  0
  130.0310  125.0450   63.7090 C   0  0  0  0  0  0  0  0  0  0  0  0
  128.9230  125.1350   63.1800 O   0  0  0  0  0  0  0  0  0  0  0  0
  131.6440  125.8500   66.9410 C   0  0  0  0  0  0  0  0  0  0  0  0
  132.6420  125.8630   67.6630 O   0  0  0  0  0  0  0  0  0  0  0  0
  130.3890  126.3090   67.2370 N   0  0  0  0  0  0  0  0  0  0  0  0
  129.9680  126.7890   68.4890 C   0  0  0  0  0  0  0  0  0  0  0  0
  128.7830  126.5890   69.0190 N   0  0  0  0  0  0  0  0  0  0  0  0
  128.6290  127.1570   70.2020 C   0  0  0  0  0  0  0  0  0  0  0  0
  127.2650  126.9380   70.8290 C   0  0  0  0  0  0  0  0  0  0  0  0
  129.7410  127.8680   70.6870 C   0  0  0  0  0  0  0  0  0  0  0  0
  129.9250  128.6060   71.9460 C   0  0  0  0  0  0  0  0  0  0  0  0
  129.2050  129.5450   72.2890 O   0  0  0  0  0  0  0  0  0  0  0  0
  130.9680  128.1340   72.6750 O   0  0  0  0  0  0  0  0  0  0  0  0
  130.8360  126.9620   73.4670 C   0  0  0  0  0  0  0  0  0  0  0  0
  132.1970  126.6120   74.0790 C   0  0  0  0  0  0  0  0  0  0  0  0
  131.0140  127.7590   69.4860 S   0  0  0  0  0  0  0  0  0  0  0  0
  128.7280  127.6710   64.2140 C   0  0  0  0  0  0  0  0  0  0  0  0
  128.1380  128.8470   63.7190 C   0  0  0  0  0  0  0  0  0  0  0  0
  127.9940  129.1230   62.3700 O   0  0  0  0  0  0  0  0  0  0  0  0
  126.9620  128.4840   61.6260 C   0  0  0  0  0  0  0  0  0  0  0  0
  125.6490  129.2350   61.8650 C   0  0  0  0  0  0  0  0  0  0  0  0
  130.4392  131.8895   63.9308 H   0  0  0  0  0  0  0  0  0  0  0  0
  130.5785  130.9749   62.3910 H   0  0  0  0  0  0  0  0  0  0  0  0
  130.7416  132.7638   62.3910 H   0  0  0  0  0  0  0  0  0  0  0  0
  128.5257  132.9625   62.0521 H   0  0  0  0  0  0  0  0  0  0  0  0
  128.3776  131.1417   62.1046 H   0  0  0  0  0  0  0  0  0  0  0  0
  128.5958  132.2063   64.7926 H   0  0  0  0  0  0  0  0  0  0  0  0
  127.2538  133.0152   63.9143 H   0  0  0  0  0  0  0  0  0  0  0  0
  127.3826  130.3174   66.7138 H   0  0  0  0  0  0  0  0  0  0  0  0
  128.4067  128.2205   67.5628 H   0  0  0  0  0  0  0  0  0  0  0  0
  128.5849  125.5575   66.3613 H   0  0  0  0  0  0  0  0  0  0  0  0
  134.5527  123.7821   63.5588 H   0  0  0  0  0  0  0  0  0  0  0  0
  134.3608  122.9599   61.2091 H   0  0  0  0  0  0  0  0  0  0  0  0
  130.1823  124.0548   61.1497 H   0  0  0  0  0  0  0  0  0  0  0  0
  127.3585  126.9530   71.9249 H   0  0  0  0  0  0  0  0  0  0  0  0
  126.5814  127.7379   70.5084 H   0  0  0  0  0  0  0  0  0  0  0  0
  126.8661  125.9643   70.5084 H   0  0  0  0  0  0  0  0  0  0  0  0
  130.1063  127.1410   74.2704 H   0  0  0  0  0  0  0  0  0  0  0  0
  130.4876  126.1287   72.8391 H   0  0  0  0  0  0  0  0  0  0  0  0
  132.1215  126.6314   75.1762 H   0  0  0  0  0  0  0  0  0  0  0  0
  132.4994  125.6069   73.7500 H   0  0  0  0  0  0  0  0  0  0  0  0
  132.9468  127.3465   73.7500 H   0  0  0  0  0  0  0  0  0  0  0  0
  129.1092  126.9182   63.5083 H   0  0  0  0  0  0  0  0  0  0  0  0
  127.2107  128.5045   60.5547 H   0  0  0  0  0  0  0  0  0  0  0  0
  126.8598  127.4374   61.9486 H   0  0  0  0  0  0  0  0  0  0  0  0
  125.4751  129.3345   62.9466 H   0  0  0  0  0  0  0  0  0  0  0  0
  125.7103  130.2346   61.4100 H   0  0  0  0  0  0  0  0  0  0  0  0
  124.8184  128.6754   61.4100 H   0  0  0  0  0  0  0  0  0  0  0  0
  1  2  1  0
  2  3  1  0
  3  4  1  0
  4  5  1  0
  5  6  2  0
  6  7  1  0
  7  8  2  0
  8  9  1  0
  9 10  1  0
 10 11  2  0
 11 12  1  0
 12 13  1  0
 13 14  2  0
 14 15  1  0
 15 16  2  0
 16 17  1  0
 16 18  1  0
 18 19  2  0
 19 20  1  0
 20 21  2  0
 11 22  1  0
 22 23  2  0
 22 24  1  0
 24 25  1  0
 25 26  2  0
 26 27  1  0
 27 28  1  0
 27 29  2  0
 29 30  1  0
 30 31  2  0
 30 32  1  0
 32 33  1  0
 33 34  1  0
 29 35  1  0
  8 36  1  0
 36 37  2  0
 37 38  1  0
 38 39  1  0
 39 40  1  0
 37  5  1  0
 24  9  1  0
 35 25  1  0
 20 10  1  0
 19 13  1  0
  1 41  1  0
  1 42  1  0
  1 43  1  0
  2 44  1  0
  2 45  1  0
  3 46  1  0
  3 47  1  0
  6 48  1  0
  7 49  1  0
  9 50  1  1
 14 51  1  0
 15 52  1  0
 18 53  1  0
 28 54  1  0
 28 55  1  0
 28 56  1  0
 33 57  1  0
 33 58  1  0
 34 59  1  0
 34 60  1  0
 34 61  1  0
 36 62  1  0
 39 63  1  0
 39 64  1  0
 40 65  1  0
 40 66  1  0
 40 67  1  0
M  END
>  <Binding energies>  (1) 
[-7.18]

>  <Ligand effiencies>  (1) 
[-0.1795]

>  <Interactions>  (1) 
["V-A:GLY:454:CA:4049, V-B:HIS:456:CD2:9039, V-B:GLU:543:C:9874, V-A:GLU:543:C:4902, V-B:GLU:543:CB:9878, V-B:ASP:366:CG:8184, V-B:TYR:539:CE2:9848, V-B:GLU:543:CG:9879, V-A:GLY:544:C:4912, V-A:HIS:456:CD2:4068, V-B:TYR:539:CZ:9849, V-A:ALA:541:CB:4892, V-A:HIS:456:CB:4065, V-A:GLU:543:CD:4908, H-B:TYR:484:OH:9319, V-A:ARG:545:CG:4922, V-B:HIS:456:CE1:9041, V-A:ILE:369:CD1:3239, V-A:HIS:456:CE1:4070, V-B:TYR:484:CZ:9318, V-B:GLY:544:C:9884, V-B:TYR:539:CD2:9846, V-A:GLU:543:CG:4907, V-B:GLY:544:CA:9886, V-B:GLU:543:CD:9880, H-A:LYS:547:NZ:4951, H-A:ARG:545:NH2:4928, V-A:GLU:543:CB:4906, V-A:HIS:456:CG:4066, H-A:ARG:545:NE:4924, H-A:HIS:456:ND1:4067, H-A:TYR:484:OH:4348"]

$$$$
ZINC101043150
     RDKit          3D

 40 42  0  0  0  0  0  0  0  0999 V2000
  129.0770  122.8370   64.1500 C   0  0  0  0  0  0  0  0  0  0  0  0
  130.1460  123.1600   63.0600 N   0  0  0  0  0  0  0  0  0  0  0  0
  131.4800  123.0870   63.8780 C   0  0  0  0  0  0  0  0  0  0  0  0
  130.1570  122.1990   61.8230 C   0  0  2  0  0  0  0  0  0  0  0  0
  131.5000  122.4380   61.0380 C   0  0  0  0  0  0  0  0  0  0  0  0
  131.7000  123.8450   60.6770 O   0  0  0  0  0  0  0  0  0  0  0  0
  131.2160  124.8810   61.5750 C   0  0  0  0  0  0  0  0  0  0  0  0
  129.9100  124.5440   62.3990 C   0  0  1  0  0  0  0  0  0  0  0  0
  128.5730  124.5610   61.5240 C   0  0  0  0  0  0  0  0  0  0  0  0
  127.7510  123.2210   61.1660 C   0  0  1  0  0  0  0  0  0  0  0  0
  126.6890  123.0850   62.0930 O   0  0  0  0  0  0  0  0  0  0  0  0
  127.1150  123.2270   59.7470 C   0  0  0  0  0  0  0  0  0  0  0  0
  127.7350  122.6060   58.6490 C   0  0  0  0  0  0  0  0  0  0  0  0
  127.1620  122.6540   57.3810 C   0  0  0  0  0  0  0  0  0  0  0  0
  125.9720  123.3450   57.1850 C   0  0  0  0  0  0  0  0  0  0  0  0
  125.3590  124.0040   58.2460 C   0  0  0  0  0  0  0  0  0  0  0  0
  125.9350  123.9550   59.5120 C   0  0  0  0  0  0  0  0  0  0  0  0
  128.6880  121.9150   61.3530 C   0  0  0  0  0  0  0  0  0  0  0  0
  129.5193  122.9706   65.1483 H   0  0  0  0  0  0  0  0  0  0  0  0
  128.2193  123.5161   64.0350 H   0  0  0  0  0  0  0  0  0  0  0  0
  128.7389  121.7966   64.0350 H   0  0  0  0  0  0  0  0  0  0  0  0
  131.2515  123.0995   64.9539 H   0  0  0  0  0  0  0  0  0  0  0  0
  132.0135  122.1583   63.6272 H   0  0  0  0  0  0  0  0  0  0  0  0
  132.1117  123.9519   63.6272 H   0  0  0  0  0  0  0  0  0  0  0  0
  130.3252  121.1121   61.8394 H   0  0  0  0  0  0  0  0  0  0  0  0
  132.3399  122.1137   61.6700 H   0  0  0  0  0  0  0  0  0  0  0  0
  131.4474  121.8589   60.1042 H   0  0  0  0  0  0  0  0  0  0  0  0
  132.0181  125.1013   62.2948 H   0  0  0  0  0  0  0  0  0  0  0  0
  130.9416  125.7253   60.9255 H   0  0  0  0  0  0  0  0  0  0  0  0
  129.7438  125.3275   63.1531 H   0  0  0  0  0  0  0  0  0  0  0  0
  127.8688  125.2175   62.0561 H   0  0  0  0  0  0  0  0  0  0  0  0
  128.9552  124.8598   60.5368 H   0  0  0  0  0  0  0  0  0  0  0  0
  126.5230  123.9400   62.4950 H   0  0  0  0  0  0  0  0  0  0  0  0
  128.6870  122.0742   58.7937 H   0  0  0  0  0  0  0  0  0  0  0  0
  127.6500  122.1461   56.5361 H   0  0  0  0  0  0  0  0  0  0  0  0
  125.5125  123.3710   56.1859 H   0  0  0  0  0  0  0  0  0  0  0  0
  124.4241  124.5608   58.0851 H   0  0  0  0  0  0  0  0  0  0  0  0
  125.4588  124.4953   60.3435 H   0  0  0  0  0  0  0  0  0  0  0  0
  128.2135  121.2618   62.1002 H   0  0  0  0  0  0  0  0  0  0  0  0
  128.7731  121.4594   60.3554 H   0  0  0  0  0  0  0  0  0  0  0  0
  1  2  1  0
  2  3  1  0
  2  4  1  0
  4  5  1  0
  5  6  1  0
  6  7  1  0
  7  8  1  0
  8  9  1  0
  9 10  1  0
 10 11  1  1
 10 12  1  0
 12 13  2  0
 13 14  1  0
 14 15  2  0
 15 16  1  0
 16 17  2  0
 10 18  1  0
  8  2  1  0
 17 12  1  0
 18  4  1  0
  1 19  1  0
  1 20  1  0
  1 21  1  0
  3 22  1  0
  3 23  1  0
  3 24  1  0
  4 25  1  1
  5 26  1  0
  5 27  1  0
  7 28  1  0
  7 29  1  0
  8 30  1  1
  9 31  1  0
  9 32  1  0
 11 33  1  0
 13 34  1  0
 14 35  1  0
 15 36  1  0
 16 37  1  0
 17 38  1  0
 18 39  1  0
 18 40  1  0
M  CHG  1   2   1
M  END
>  <Binding energies>  (1) 
[-6.24]

>  <Ligand effiencies>  (1) 
[-0.32842105263157895]

>  <Interactions>  (1) 
["V-B:PRO:540:CA:9855, H-B:GLU:543:OE1:9881, V-B:TYR:539:CD2:9846, V-B:PRO:540:CD:9859, H-B:ALA:541:N:9863, V-B:GLU:543:CD:9880, V-B:ALA:541:CB:9864, V-B:PRO:540:C:9853, V-B:TYR:539:CE2:9848, V-B:PRO:540:CB:9857, V-A:LEU:475:CD2:4259, V-B:GLU:543:CG:9879, V-B:TYR:539:C:9839, V-B:PRO:540:N:9856"]

$$$$
ZINC101073514
     RDKit          3D

 52 57  0  0  0  0  0  0  0  0999 V2000
  131.9580  125.8470   63.2660 O   0  0  0  0  0  0  0  0  0  0  0  0
  131.6360  126.0190   62.0890 C   0  0  0  0  0  0  0  0  0  0  0  0
  130.6040  127.0220   61.5840 C   0  0  1  0  0  0  0  0  0  0  0  0
  130.3050  126.5810   60.2010 C   0  0  1  0  0  0  0  0  0  0  0  0
  131.5590  125.7940   59.8180 C   0  0  0  0  0  0  0  0  0  0  0  0
  131.8750  125.4980   58.6650 O   0  0  0  0  0  0  0  0  0  0  0  0
  132.1870  125.4580   60.9760 N   0  0  0  0  0  0  0  0  0  0  0  0
  133.3500  124.5420   60.9760 C   0  0  0  0  0  0  0  0  0  0  0  0
  133.7150  123.9860   62.3690 C   0  0  0  0  0  0  0  0  0  0  0  0
  134.3690  122.6360   62.0880 C   0  0  0  0  0  0  0  0  0  0  0  0
  133.5620  122.0790   60.9150 C   0  0  0  0  0  0  0  0  0  0  0  0
  133.1880  123.3010   60.0610 C   0  0  0  0  0  0  0  0  0  0  0  0
  128.9410  125.8070   60.3040 C   0  0  0  0  0  0  0  0  0  0  0  0
  128.3990  126.1690   61.5790 O   0  0  0  0  0  0  0  0  0  0  0  0
  129.2210  127.1160   62.2680 C   0  0  1  0  0  0  0  0  0  0  0  0
  129.1760  126.9670   63.7870 C   0  0  0  0  0  0  0  0  0  0  0  0
  128.7290  128.0340   64.5710 C   0  0  0  0  0  0  0  0  0  0  0  0
  128.6970  127.9150   65.9580 C   0  0  0  0  0  0  0  0  0  0  0  0
  129.1140  126.7290   66.5590 C   0  0  0  0  0  0  0  0  0  0  0  0
  129.0720  126.5680   68.4560 Br  0  0  0  0  0  0  0  0  0  0  0  0
  129.5620  125.6610   65.7850 C   0  0  0  0  0  0  0  0  0  0  0  0
  129.5950  125.7790   64.3990 C   0  0  0  0  0  0  0  0  0  0  0  0
  127.9460  126.2380   59.2190 C   0  0  0  0  0  0  0  0  0  0  0  0
  127.5960  127.3920   58.9640 O   0  0  0  0  0  0  0  0  0  0  0  0
  127.5250  125.0090   58.5230 C   0  0  0  0  0  0  0  0  0  0  0  0
  126.6640  124.8720   57.4310 C   0  0  0  0  0  0  0  0  0  0  0  0
  126.3840  123.5980   56.9300 C   0  0  0  0  0  0  0  0  0  0  0  0
  126.9600  122.4700   57.5200 C   0  0  0  0  0  0  0  0  0  0  0  0
  127.8170  122.6090   58.6130 C   0  0  0  0  0  0  0  0  0  0  0  0
  128.0990  123.8840   59.1100 C   0  0  0  0  0  0  0  0  0  0  0  0
  128.9520  124.2660   60.2490 C   0  0  0  0  0  0  0  0  0  0  0  0
  129.5670  123.5070   60.9990 O   0  0  0  0  0  0  0  0  0  0  0  0
  131.0654  128.0050   61.7593 H   0  0  0  0  0  0  0  0  0  0  0  0
  130.1426  127.3296   59.4116 H   0  0  0  0  0  0  0  0  0  0  0  0
  134.1448  125.2009   60.5964 H   0  0  0  0  0  0  0  0  0  0  0  0
  134.4179  124.6581   62.8830 H   0  0  0  0  0  0  0  0  0  0  0  0
  132.8360  123.8944   63.0240 H   0  0  0  0  0  0  0  0  0  0  0  0
  135.4262  122.7623   61.8118 H   0  0  0  0  0  0  0  0  0  0  0  0
  134.3640  121.9697   62.9632 H   0  0  0  0  0  0  0  0  0  0  0  0
  134.1697  121.3724   60.3307 H   0  0  0  0  0  0  0  0  0  0  0  0
  132.6719  121.5292   61.2549 H   0  0  0  0  0  0  0  0  0  0  0  0
  133.8594  123.3782   59.1931 H   0  0  0  0  0  0  0  0  0  0  0  0
  132.1600  123.2198   59.6782 H   0  0  0  0  0  0  0  0  0  0  0  0
  128.8547  128.1494   62.1789 H   0  0  0  0  0  0  0  0  0  0  0  0
  128.4021  128.9687   64.0920 H   0  0  0  0  0  0  0  0  0  0  0  0
  128.3441  128.7534   66.5765 H   0  0  0  0  0  0  0  0  0  0  0  0
  129.8884  124.7280   66.2676 H   0  0  0  0  0  0  0  0  0  0  0  0
  129.9502  124.9391   63.7839 H   0  0  0  0  0  0  0  0  0  0  0  0
  126.2098  125.7609   56.9690 H   0  0  0  0  0  0  0  0  0  0  0  0
  125.7087  123.4829   56.0693 H   0  0  0  0  0  0  0  0  0  0  0  0
  126.7374  121.4691   57.1218 H   0  0  0  0  0  0  0  0  0  0  0  0
  128.2673  121.7207   59.0799 H   0  0  0  0  0  0  0  0  0  0  0  0
  1  2  2  0
  2  3  1  0
  3  4  1  0
  4  5  1  0
  5  6  2  0
  5  7  1  0
  7  8  1  0
  8  9  1  0
  9 10  1  0
 10 11  1  0
 11 12  1  0
  4 13  1  0
 13 14  1  0
 14 15  1  0
 15 16  1  0
 16 17  2  0
 17 18  1  0
 18 19  2  0
 19 20  1  0
 19 21  1  0
 21 22  2  0
 13 23  1  0
 23 24  2  0
 23 25  1  0
 25 26  2  0
 26 27  1  0
 27 28  2  0
 28 29  1  0
 29 30  2  0
 30 31  1  0
 31 32  2  0
  7  2  1  0
 12  8  1  0
 31 13  1  0
 15  3  1  0
 22 16  1  0
 30 25  1  0
  3 33  1  6
  4 34  1  6
  8 35  1  0
  9 36  1  0
  9 37  1  0
 10 38  1  0
 10 39  1  0
 11 40  1  0
 11 41  1  0
 12 42  1  0
 12 43  1  0
 15 44  1  1
 17 45  1  0
 18 46  1  0
 21 47  1  0
 22 48  1  0
 26 49  1  0
 27 50  1  0
 28 51  1  0
 29 52  1  0
M  END
>  <Binding energies>  (1) 
[-7.92]

>  <Ligand effiencies>  (1) 
[-0.2475]

>  <Interactions>  (1) 
["V-A:ILE:369:CG2:3237, V-B:PRO:540:CA:9855, V-A:GLY:454:CA:4049, V-B:GLU:543:CB:9878, V-B:TYR:539:CE2:9848, V-B:GLU:543:CG:9879, V-B:TYR:539:C:9839, V-A:ASP:366:CG:3213, H-B:TYR:539:OH:9850, V-A:GLU:543:CD:4908, V-B:PRO:540:CB:9857, V-B:PRO:540:N:9856, V-A:ILE:369:CD1:3239, V-A:HIS:456:CE1:4070, V-B:PRO:540:CD:9859, V-B:TYR:539:CD2:9846, V-A:GLU:543:CG:4907, V-B:GLU:543:CD:9880, H-A:ARG:545:NH2:4928, V-B:TYR:539:CG:9844"]

$$$$
ZINC101117357
     RDKit          3D

 52 57  0  0  0  0  0  0  0  0999 V2000
  127.3060  133.6560   62.2100 C   0  0  0  0  0  0  0  0  0  0  0  0
  127.5580  132.3970   63.0280 C   0  0  0  0  0  0  0  0  0  0  0  0
  128.4050  132.4910   64.1370 C   0  0  0  0  0  0  0  0  0  0  0  0
  128.6750  131.3720   64.9240 C   0  0  0  0  0  0  0  0  0  0  0  0
  128.0940  130.1420   64.6050 C   0  0  0  0  0  0  0  0  0  0  0  0
  128.3610  129.0130   65.3910 N   0  0  0  0  0  0  0  0  0  0  0  0
  128.6410  127.7740   64.8690 C   0  0  0  0  0  0  0  0  0  0  0  0
  128.5670  127.3680   63.7090 O   0  0  0  0  0  0  0  0  0  0  0  0
  129.2110  127.0290   66.0530 C   0  0  2  0  0  0  0  0  0  0  0  0
  129.0900  125.5380   66.3390 C   0  0  1  0  0  0  0  0  0  0  0  0
  130.1060  124.6630   65.6150 C   0  0  0  0  0  0  0  0  0  0  0  0
  129.8250  123.3130   65.3800 C   0  0  0  0  0  0  0  0  0  0  0  0
  130.7470  122.5110   64.7070 C   0  0  0  0  0  0  0  0  0  0  0  0
  131.9530  123.0540   64.2610 C   0  0  0  0  0  0  0  0  0  0  0  0
  132.2360  124.4010   64.4880 C   0  0  0  0  0  0  0  0  0  0  0  0
  133.7250  125.0750   63.9320 Cl  0  0  0  0  0  0  0  0  0  0  0  0
  131.3150  125.2040   65.1630 C   0  0  0  0  0  0  0  0  0  0  0  0
  129.2610  125.5670   67.7870 O   0  0  0  0  0  0  0  0  0  0  0  0
  128.9800  126.8730   68.3570 C   0  0  0  0  0  0  0  0  0  0  0  0
  128.0070  126.7210   69.5310 C   0  0  0  0  0  0  0  0  0  0  0  0
  126.8810  126.2240   69.4940 O   0  0  0  0  0  0  0  0  0  0  0  0
  128.6780  127.3170   70.7010 C   0  0  0  0  0  0  0  0  0  0  0  0
  128.1990  127.4630   72.0050 C   0  0  0  0  0  0  0  0  0  0  0  0
  129.0110  128.0530   72.9760 C   0  0  0  0  0  0  0  0  0  0  0  0
  130.2960  128.4890   72.6460 C   0  0  0  0  0  0  0  0  0  0  0  0
  130.7770  128.3380   71.3440 C   0  0  0  0  0  0  0  0  0  0  0  0
  129.9610  127.7510   70.3720 C   0  0  0  0  0  0  0  0  0  0  0  0
  130.2630  127.4810   68.9540 C   0  0  0  0  0  0  0  0  0  0  0  0
  131.3180  127.7170   68.3670 O   0  0  0  0  0  0  0  0  0  0  0  0
  128.3670  127.5580   67.1200 C   0  0  1  0  0  0  0  0  0  0  0  0
  128.3730  129.0290   66.7630 C   0  0  0  0  0  0  0  0  0  0  0  0
  128.3090  129.9800   67.5440 O   0  0  0  0  0  0  0  0  0  0  0  0
  127.2460  130.0380   63.4990 C   0  0  0  0  0  0  0  0  0  0  0  0
  126.9750  131.1570   62.7090 C   0  0  0  0  0  0  0  0  0  0  0  0
  125.9170  130.9610   61.3540 Cl  0  0  0  0  0  0  0  0  0  0  0  0
  127.1359  134.5056   62.8877 H   0  0  0  0  0  0  0  0  0  0  0  0
  128.1807  133.8623   61.5757 H   0  0  0  0  0  0  0  0  0  0  0  0
  126.4193  133.5098   61.5757 H   0  0  0  0  0  0  0  0  0  0  0  0
  128.8632  133.4582   64.3912 H   0  0  0  0  0  0  0  0  0  0  0  0
  129.3434  131.4574   65.7934 H   0  0  0  0  0  0  0  0  0  0  0  0
  130.2942  127.1581   65.9118 H   0  0  0  0  0  0  0  0  0  0  0  0
  128.1563  125.0788   65.9822 H   0  0  0  0  0  0  0  0  0  0  0  0
  128.8741  122.8824   65.7269 H   0  0  0  0  0  0  0  0  0  0  0  0
  130.5232  121.4491   64.5276 H   0  0  0  0  0  0  0  0  0  0  0  0
  132.6795  122.4205   63.7311 H   0  0  0  0  0  0  0  0  0  0  0  0
  131.5404  126.2660   65.3403 H   0  0  0  0  0  0  0  0  0  0  0  0
  127.1884  127.1154   72.2655 H   0  0  0  0  0  0  0  0  0  0  0  0
  128.6374  128.1746   74.0035 H   0  0  0  0  0  0  0  0  0  0  0  0
  130.9315  128.9531   73.4146 H   0  0  0  0  0  0  0  0  0  0  0  0
  131.7904  128.6783   71.0848 H   0  0  0  0  0  0  0  0  0  0  0  0
  127.2968  127.3779   67.2993 H   0  0  0  0  0  0  0  0  0  0  0  0
  126.7893  129.0689   63.2494 H   0  0  0  0  0  0  0  0  0  0  0  0
  1  2  1  0
  2  3  2  0
  3  4  1  0
  4  5  2  0
  5  6  1  0
  6  7  1  0
  7  8  2  0
  7  9  1  0
  9 10  1  0
 10 11  1  0
 11 12  2  0
 12 13  1  0
 13 14  2  0
 14 15  1  0
 15 16  1  0
 15 17  2  0
 10 18  1  0
 18 19  1  0
 19 20  1  0
 20 21  2  0
 20 22  1  0
 22 23  2  0
 23 24  1  0
 24 25  2  0
 25 26  1  0
 26 27  2  0
 27 28  1  0
 28 29  2  0
 19 30  1  0
 30 31  1  0
 31 32  2  0
  5 33  1  0
 33 34  2  0
 34 35  1  0
 34  2  1  0
 31  6  1  0
 30  9  1  0
 17 11  1  0
 28 19  1  0
 27 22  1  0
  1 36  1  0
  1 37  1  0
  1 38  1  0
  3 39  1  0
  4 40  1  0
  9 41  1  1
 10 42  1  1
 12 43  1  0
 13 44  1  0
 14 45  1  0
 17 46  1  0
 23 47  1  0
 24 48  1  0
 25 49  1  0
 26 50  1  0
 30 51  1  6
 33 52  1  0
M  END
>  <Binding energies>  (1) 
[-8.64]

>  <Ligand effiencies>  (1) 
[-0.24685714285714289]

>  <Interactions>  (1) 
["V-B:GLU:543:C:9874, V-B:HIS:456:CD2:9039, V-A:GLU:543:C:4902, V-B:GLU:543:CB:9878, V-A:TYR:484:CE2:4346, V-A:GLY:544:CA:4914, V-B:LEU:475:CD2:9230, V-B:GLU:543:CG:9879, V-A:GLY:544:C:4912, V-B:TYR:484:CE2:9317, V-A:ALA:541:CB:4892, H-B:ARG:545:N:9892, V-A:GLU:543:CD:4908, V-A:TYR:484:CZ:4347, H-B:TYR:484:OH:9319, V-B:HIS:456:CE1:9041, V-B:GLU:543:CA:9876, H-B:GLY:544:N:9887, V-A:HIS:456:CE1:4070, V-B:TYR:484:CZ:9318, V-A:GLU:543:CG:4907, V-B:GLU:543:CD:9880, V-A:LEU:475:CD2:4259, V-A:ARG:545:CZ:4926, V-A:GLU:543:CB:4906, V-A:GLY:453:CA:4044"]

$$$$
ZINC101130559
     RDKit          3D

 62 66  0  0  0  0  0  0  0  0999 V2000
  131.4920  131.4850   62.0210 C   0  0  0  0  0  0  0  0  0  0  0  0
  130.0200  131.9400   62.0570 C   0  0  0  0  0  0  0  0  0  0  0  0
  129.4460  131.8040   63.4780 C   0  0  0  0  0  0  0  0  0  0  0  0
  129.1230  131.1890   61.0390 C   0  0  0  0  0  0  0  0  0  0  0  0
  128.4230  129.9920   61.5680 N   0  0  0  0  0  0  0  0  0  0  0  0
  129.1290  128.8590   61.8210 C   0  0  0  0  0  0  0  0  0  0  0  0
  130.3430  128.7460   61.6340 O   0  0  0  0  0  0  0  0  0  0  0  0
  128.2440  127.8240   62.3250 C   0  0  0  0  0  0  0  0  0  0  0  0
  128.6270  126.5800   62.7010 C   0  0  0  0  0  0  0  0  0  0  0  0
  129.9810  126.0190   62.7470 C   0  0  0  0  0  0  0  0  0  0  0  0
  130.6100  125.6800   63.9120 C   0  0  0  0  0  0  0  0  0  0  0  0
  130.0310  125.8620   65.1560 N   0  0  0  0  0  0  0  0  0  0  0  0
  129.0990  126.9620   65.3940 C   0  0  0  0  0  0  0  0  0  0  0  0
  129.1530  127.4570   66.8550 C   0  0  0  0  0  0  0  0  0  0  0  0
  129.0380  126.4090   67.8840 N   0  0  0  0  0  0  0  0  0  0  0  0
  128.7030  126.7470   69.1970 C   0  0  0  0  0  0  0  0  0  0  0  0
  127.3760  126.6380   69.6460 C   0  0  0  0  0  0  0  0  0  0  0  0
  127.0270  126.9660   70.9560 C   0  0  0  0  0  0  0  0  0  0  0  0
  128.0010  127.4080   71.8470 C   0  0  0  0  0  0  0  0  0  0  0  0
  129.3250  127.5140   71.4290 C   0  0  0  0  0  0  0  0  0  0  0  0
  130.5390  128.0610   72.5290 Cl  0  0  0  0  0  0  0  0  0  0  0  0
  129.6720  127.1810   70.1200 C   0  0  0  0  0  0  0  0  0  0  0  0
  129.9040  125.2620   67.5720 C   0  0  0  0  0  0  0  0  0  0  0  0
  129.8520  124.7680   66.1110 C   0  0  0  0  0  0  0  0  0  0  0  0
  131.8840  125.1850   63.9490 N   0  0  0  0  0  0  0  0  0  0  0  0
  132.5380  125.0100   62.8570 C   0  0  0  0  0  0  0  0  0  0  0  0
  133.8950  124.4890   62.8620 C   0  0  0  0  0  0  0  0  0  0  0  0
  134.5940  124.2960   61.7200 C   0  0  0  0  0  0  0  0  0  0  0  0
  133.9820  124.6170   60.4400 C   0  0  0  0  0  0  0  0  0  0  0  0
  132.7220  125.1010   60.4570 C   0  0  0  0  0  0  0  0  0  0  0  0
  131.9630  125.3170   61.6090 N   0  0  0  0  0  0  0  0  0  0  0  0
  130.6820  125.8200   61.4730 C   0  0  0  0  0  0  0  0  0  0  0  0
  130.1430  126.0920   60.3940 O   0  0  0  0  0  0  0  0  0  0  0  0
  126.5920  128.4200   62.3650 S   0  0  0  0  0  0  0  0  0  0  0  0
  127.0680  129.9820   61.7660 C   0  0  0  0  0  0  0  0  0  0  0  0
  125.9070  131.1590   61.5320 S   0  0  0  0  0  0  0  0  0  0  0  0
  131.8654  131.3696   63.0492 H   0  0  0  0  0  0  0  0  0  0  0  0
  131.5654  130.5222   61.4940 H   0  0  0  0  0  0  0  0  0  0  0  0
  132.0959  132.2384   61.4940 H   0  0  0  0  0  0  0  0  0  0  0  0
  130.0155  132.9990   61.7595 H   0  0  0  0  0  0  0  0  0  0  0  0
  130.2412  131.9924   64.2143 H   0  0  0  0  0  0  0  0  0  0  0  0
  128.6361  132.5351   63.6178 H   0  0  0  0  0  0  0  0  0  0  0  0
  129.0503  130.7872   63.6178 H   0  0  0  0  0  0  0  0  0  0  0  0
  128.3613  131.8935   60.6736 H   0  0  0  0  0  0  0  0  0  0  0  0
  129.7992  130.8216   60.2530 H   0  0  0  0  0  0  0  0  0  0  0  0
  127.8175  125.9033   63.0120 H   0  0  0  0  0  0  0  0  0  0  0  0
  129.3566  127.7971   64.7259 H   0  0  0  0  0  0  0  0  0  0  0  0
  128.0811  126.5949   65.1961 H   0  0  0  0  0  0  0  0  0  0  0  0
  130.1131  127.9732   67.0027 H   0  0  0  0  0  0  0  0  0  0  0  0
  128.2754  128.1071   66.9864 H   0  0  0  0  0  0  0  0  0  0  0  0
  126.5981  126.2876   68.9516 H   0  0  0  0  0  0  0  0  0  0  0  0
  125.9814  126.8753   71.2853 H   0  0  0  0  0  0  0  0  0  0  0  0
  127.7255  127.6728   72.8785 H   0  0  0  0  0  0  0  0  0  0  0  0
  130.7225  127.2591   69.8034 H   0  0  0  0  0  0  0  0  0  0  0  0
  130.9418  125.5503   67.7955 H   0  0  0  0  0  0  0  0  0  0  0  0
  129.5333  124.4280   68.1860 H   0  0  0  0  0  0  0  0  0  0  0  0
  130.6515  124.0282   65.9575 H   0  0  0  0  0  0  0  0  0  0  0  0
  128.8606  124.3241   65.9374 H   0  0  0  0  0  0  0  0  0  0  0  0
  134.3682  124.2441   63.8243 H   0  0  0  0  0  0  0  0  0  0  0  0
  135.6190  123.8987   61.7591 H   0  0  0  0  0  0  0  0  0  0  0  0
  134.5251  124.4710   59.4946 H   0  0  0  0  0  0  0  0  0  0  0  0
  132.2578  125.3437   59.4897 H   0  0  0  0  0  0  0  0  0  0  0  0
  1  2  1  0
  2  3  1  0
  2  4  1  0
  4  5  1  0
  5  6  1  0
  6  7  2  0
  6  8  1  0
  8  9  2  0
  9 10  1  0
 10 11  2  0
 11 12  1  0
 12 13  1  0
 13 14  1  0
 14 15  1  0
 15 16  1  0
 16 17  2  0
 17 18  1  0
 18 19  2  0
 19 20  1  0
 20 21  1  0
 20 22  2  0
 15 23  1  0
 23 24  1  0
 11 25  1  0
 25 26  2  0
 26 27  1  0
 27 28  2  0
 28 29  1  0
 29 30  2  0
 30 31  1  0
 31 32  1  0
 32 33  2  0
  8 34  1  0
 34 35  1  0
 35 36  2  0
 35  5  1  0
 32 10  1  0
 24 12  1  0
 31 26  1  0
 22 16  1  0
  1 37  1  0
  1 38  1  0
  1 39  1  0
  2 40  1  0
  3 41  1  0
  3 42  1  0
  3 43  1  0
  4 44  1  0
  4 45  1  0
  9 46  1  0
 13 47  1  0
 13 48  1  0
 14 49  1  0
 14 50  1  0
 17 51  1  0
 18 52  1  0
 19 53  1  0
 22 54  1  0
 23 55  1  0
 23 56  1  0
 24 57  1  0
 24 58  1  0
 27 59  1  0
 28 60  1  0
 29 61  1  0
 30 62  1  0
M  END
>  <Binding energies>  (1) 
[-7.57]

>  <Ligand effiencies>  (1) 
[-0.21027777777777779]

>  <Interactions>  (1) 
["V-A:ASP:366:CA:3210, V-B:GLU:543:C:9874, V-B:HIS:456:CD2:9039, V-B:GLU:543:CB:9878, V-A:TYR:484:CE2:4346, V-B:GLU:543:CG:9879, V-A:GLY:544:C:4912, V-A:ASP:366:CG:3213, V-A:ALA:541:CB:4892, V-A:GLU:543:CD:4908, V-B:GLU:543:CA:9876, V-B:HIS:456:CE1:9041, V-A:ILE:369:CD1:3239, V-A:HIS:456:CE1:4070, V-B:GLY:544:C:9884, V-B:GLY:544:CA:9886, V-A:GLU:543:CG:4907, V-B:GLU:543:CD:9880, V-B:HIS:456:CG:9037, V-A:ASP:366:CB:3212, H-A:ARG:545:NH2:4928, V-A:ARG:545:CZ:4926, H-B:ARG:545:NH2:9900, V-A:GLU:543:CB:4906, V-A:PRO:540:CA:4883"]

$$$$
ZINC101131129
     RDKit          3D

 60 64  0  0  0  0  0  0  0  0999 V2000
  130.0760  125.4590   57.5860 C   0  0  0  0  0  0  0  0  0  0  0  0
  130.3350  126.7510   58.3430 C   0  0  0  0  0  0  0  0  0  0  0  0
  130.8530  126.9870   59.5660 C   0  0  0  0  0  0  0  0  0  0  0  0
  131.2920  126.0700   60.4990 N   0  0  0  0  0  0  0  0  0  0  0  0
  130.8200  126.1270   61.7790 C   0  0  0  0  0  0  0  0  0  0  0  0
  129.9780  126.9410   62.1740 O   0  0  0  0  0  0  0  0  0  0  0  0
  131.4430  125.0930   62.5860 C   0  0  0  0  0  0  0  0  0  0  0  0
  131.2000  124.8620   63.8980 C   0  0  0  0  0  0  0  0  0  0  0  0
  130.3550  125.5960   64.8630 C   0  0  0  0  0  0  0  0  0  0  0  0
  130.2920  125.2270   66.2120 C   0  0  0  0  0  0  0  0  0  0  0  0
  129.4820  125.9370   67.0940 C   0  0  0  0  0  0  0  0  0  0  0  0
  128.7280  127.0160   66.6310 C   0  0  0  0  0  0  0  0  0  0  0  0
  127.9170  127.7080   67.5020 O   0  0  0  0  0  0  0  0  0  0  0  0
  127.6220  127.1740   68.7280 C   0  0  0  0  0  0  0  0  0  0  0  0
  126.5600  126.6030   68.9960 O   0  0  0  0  0  0  0  0  0  0  0  0
  128.7300  127.3480   69.7270 C   0  0  0  0  0  0  0  0  0  0  0  0
  129.9260  127.9590   69.3280 C   0  0  0  0  0  0  0  0  0  0  0  0
  130.9710  128.1350   70.2320 C   0  0  0  0  0  0  0  0  0  0  0  0
  130.8370  127.7030   71.5480 C   0  0  0  0  0  0  0  0  0  0  0  0
  129.6560  127.0850   71.9820 C   0  0  0  0  0  0  0  0  0  0  0  0
  129.5160  126.6210   73.3850 N   0  0  0  0  0  0  0  0  0  0  0  0
  129.4840  125.4130   73.6040 O   0  0  0  0  0  0  0  0  0  0  0  0
  129.4380  127.4610   74.2770 O   0  0  0  0  0  0  0  0  0  0  0  0
  128.6110  126.9150   71.0590 C   0  0  0  0  0  0  0  0  0  0  0  0
  128.7600  127.3650   65.2800 C   0  0  0  0  0  0  0  0  0  0  0  0
  129.5720  126.6550   64.3990 C   0  0  0  0  0  0  0  0  0  0  0  0
  132.5360  124.1400   61.5910 S   0  0  0  0  0  0  0  0  0  0  0  0
  132.2120  125.1040   60.1810 C   0  0  0  0  0  0  0  0  0  0  0  0
  132.9970  124.7470   58.7470 S   0  0  0  0  0  0  0  0  0  0  0  0
  130.9100  128.4180   59.8120 C   0  0  0  0  0  0  0  0  0  0  0  0
  131.3390  128.9980   60.8120 O   0  0  0  0  0  0  0  0  0  0  0  0
  130.4080  128.9700   58.6870 N   0  0  0  0  0  0  0  0  0  0  0  0
  130.3850  130.3500   58.3690 C   0  0  0  0  0  0  0  0  0  0  0  0
  131.3480  130.9010   57.5110 C   0  0  0  0  0  0  0  0  0  0  0  0
  131.3160  132.2600   57.2080 C   0  0  0  0  0  0  0  0  0  0  0  0
  130.3250  133.0680   57.7600 C   0  0  0  0  0  0  0  0  0  0  0  0
  129.3640  132.5310   58.6150 C   0  0  0  0  0  0  0  0  0  0  0  0
  129.3930  131.1730   58.9200 C   0  0  0  0  0  0  0  0  0  0  0  0
  130.0410  127.9770   57.7750 N   0  0  0  0  0  0  0  0  0  0  0  0
  128.6860  128.1860   57.2610 C   0  0  0  0  0  0  0  0  0  0  0  0
  129.9120  124.6407   58.3026 H   0  0  0  0  0  0  0  0  0  0  0  0
  129.1837  125.5771   56.9537 H   0  0  0  0  0  0  0  0  0  0  0  0
  130.9449  125.2240   56.9537 H   0  0  0  0  0  0  0  0  0  0  0  0
  131.7162  123.9841   64.3136 H   0  0  0  0  0  0  0  0  0  0  0  0
  130.8838  124.3742   66.5759 H   0  0  0  0  0  0  0  0  0  0  0  0
  129.4364  125.6478   68.1543 H   0  0  0  0  0  0  0  0  0  0  0  0
  130.0410  128.3034   68.2897 H   0  0  0  0  0  0  0  0  0  0  0  0
  131.9043  128.6166   69.9049 H   0  0  0  0  0  0  0  0  0  0  0  0
  131.6668  127.8480   72.2554 H   0  0  0  0  0  0  0  0  0  0  0  0
  127.6783  126.4321   71.3859 H   0  0  0  0  0  0  0  0  0  0  0  0
  128.1450  128.1993   64.9117 H   0  0  0  0  0  0  0  0  0  0  0  0
  129.5966  126.9294   63.3341 H   0  0  0  0  0  0  0  0  0  0  0  0
  132.1291  130.2594   57.0771 H   0  0  0  0  0  0  0  0  0  0  0  0
  132.0706  132.6935   56.5352 H   0  0  0  0  0  0  0  0  0  0  0  0
  130.3004  134.1409   57.5188 H   0  0  0  0  0  0  0  0  0  0  0  0
  128.5859  133.1776   59.0469 H   0  0  0  0  0  0  0  0  0  0  0  0
  128.6365  130.7452   59.5943 H   0  0  0  0  0  0  0  0  0  0  0  0
  127.9869  128.2938   58.1034 H   0  0  0  0  0  0  0  0  0  0  0  0
  128.6635  129.0982   56.6467 H   0  0  0  0  0  0  0  0  0  0  0  0
  128.3897  127.3229   56.6467 H   0  0  0  0  0  0  0  0  0  0  0  0
  1  2  1  0
  2  3  2  0
  3  4  1  0
  4  5  1  0
  5  6  2  0
  5  7  1  0
  7  8  2  0
  8  9  1  0
  9 10  2  0
 10 11  1  0
 11 12  2  0
 12 13  1  0
 13 14  1  0
 14 15  2  0
 14 16  1  0
 16 17  2  0
 17 18  1  0
 18 19  2  0
 19 20  1  0
 20 21  1  0
 21 22  2  0
 21 23  1  0
 20 24  2  0
 12 25  1  0
 25 26  2  0
  7 27  1  0
 27 28  1  0
 28 29  2  0
  3 30  1  0
 30 31  2  0
 30 32  1  0
 32 33  1  0
 33 34  2  0
 34 35  1  0
 35 36  2  0
 36 37  1  0
 37 38  2  0
 32 39  1  0
 39 40  1  0
 39  2  1  0
 28  4  1  0
 38 33  1  0
 26  9  1  0
 24 16  1  0
  1 41  1  0
  1 42  1  0
  1 43  1  0
  8 44  1  0
 10 45  1  0
 11 46  1  0
 17 47  1  0
 18 48  1  0
 19 49  1  0
 24 50  1  0
 25 51  1  0
 26 52  1  0
 34 53  1  0
 35 54  1  0
 36 55  1  0
 37 56  1  0
 38 57  1  0
 40 58  1  0
 40 59  1  0
 40 60  1  0
M  CHG  2  21   1  23  -1
M  END
>  <Binding energies>  (1) 
[-9.28]

>  <Ligand effiencies>  (1) 
[-0.23199999999999998]

>  <Interactions>  (1) 
["V-A:ASP:366:CA:3210, V-B:GLU:543:C:9874, V-A:GLU:543:C:4902, V-B:GLU:543:CB:9878, H-B:LYS:547:NZ:9923, V-B:TYR:539:CE2:9848, V-B:GLU:543:CG:9879, V-A:GLY:544:C:4912, V-A:ASP:366:CG:3213, V-A:HIS:456:CD2:4068, V-A:LEU:363:CD1:3189, V-B:TYR:539:CZ:9849, H-B:ARG:545:N:9892, V-A:GLU:543:CD:4908, V-B:HIS:456:CE1:9041, V-A:HIS:456:CE1:4070, V-B:GLU:543:CD:9880, V-A:TYR:539:C:4867, V-A:ASP:366:CB:3212, H-A:LYS:547:NZ:4951, V-A:GLU:543:CB:4906, V-A:PRO:540:N:4884, V-A:PRO:540:CB:4885, V-A:PRO:540:CA:4883, V-A:PRO:540:CD:4887"]

$$$$
ZINC101288225
     RDKit          3D

 36 39  0  0  0  0  0  0  0  0999 V2000
  129.7060  127.7170   61.0450 C   0  0  0  0  0  0  0  0  0  0  0  0
  130.2750  126.8320   62.0760 N   0  0  0  0  0  0  0  0  0  0  0  0
  129.6410  127.1370   63.2830 C   0  0  0  0  0  0  0  0  0  0  0  0
  129.8780  126.5510   64.4690 C   0  0  0  0  0  0  0  0  0  0  0  0
  129.1050  127.0000   65.6740 C   0  0  0  0  0  0  0  0  0  0  0  0
  128.2500  127.8900   65.6530 O   0  0  0  0  0  0  0  0  0  0  0  0
  129.4780  126.2600   66.9050 C   0  0  0  0  0  0  0  0  0  0  0  0
  128.7990  126.6370   68.0250 O   0  0  0  0  0  0  0  0  0  0  0  0
  130.4140  125.2910   66.9150 C   0  0  0  0  0  0  0  0  0  0  0  0
  131.1280  124.9010   65.7160 C   0  0  0  0  0  0  0  0  0  0  0  0
  130.8890  125.4930   64.5160 C   0  0  0  0  0  0  0  0  0  0  0  0
  131.5930  125.1370   63.2340 C   0  0  0  0  0  0  0  0  0  0  0  0
  132.5590  124.1270   63.2780 C   0  0  0  0  0  0  0  0  0  0  0  0
  133.2560  123.7290   62.1650 C   0  0  0  0  0  0  0  0  0  0  0  0
  133.0210  124.3290   60.9260 C   0  0  0  0  0  0  0  0  0  0  0  0
  133.7750  123.8720   59.8150 C   0  0  0  0  0  0  0  0  0  0  0  0
  133.5940  124.4220   58.5580 C   0  0  0  0  0  0  0  0  0  0  0  0
  134.3420  123.9530   57.5060 O   0  0  0  0  0  0  0  0  0  0  0  0
  132.6610  125.4350   58.3850 C   0  0  0  0  0  0  0  0  0  0  0  0
  132.4620  125.9970   57.1480 O   0  0  0  0  0  0  0  0  0  0  0  0
  131.9120  125.8960   59.4670 C   0  0  0  0  0  0  0  0  0  0  0  0
  132.0420  125.3770   60.7990 C   0  0  0  0  0  0  0  0  0  0  0  0
  131.2950  125.8010   61.9970 C   0  0  0  0  0  0  0  0  0  0  0  0
  129.1718  128.5478   61.5291 H   0  0  0  0  0  0  0  0  0  0  0  0
  130.5161  128.1177   60.4180 H   0  0  0  0  0  0  0  0  0  0  0  0
  129.0052  127.1463   60.4180 H   0  0  0  0  0  0  0  0  0  0  0  0
  128.8781  127.9292   63.2606 H   0  0  0  0  0  0  0  0  0  0  0  0
  128.1460  127.3020   67.7950 H   0  0  0  0  0  0  0  0  0  0  0  0
  130.6431  124.7805   67.8620 H   0  0  0  0  0  0  0  0  0  0  0  0
  131.8839  124.1043   65.7786 H   0  0  0  0  0  0  0  0  0  0  0  0
  132.7676  123.6340   64.2389 H   0  0  0  0  0  0  0  0  0  0  0  0
  134.0070  122.9297   62.2495 H   0  0  0  0  0  0  0  0  0  0  0  0
  134.5140  123.0692   59.9544 H   0  0  0  0  0  0  0  0  0  0  0  0
  134.3490  124.5500   56.7550 H   0  0  0  0  0  0  0  0  0  0  0  0
  132.5250  126.9550   57.1540 H   0  0  0  0  0  0  0  0  0  0  0  0
  131.1826  126.7003   59.2904 H   0  0  0  0  0  0  0  0  0  0  0  0
  1  2  1  0
  2  3  1  0
  3  4  2  0
  4  5  1  0
  5  6  2  0
  5  7  1  0
  7  8  1  0
  7  9  2  0
  9 10  1  0
 10 11  2  0
 11 12  1  0
 12 13  2  0
 13 14  1  0
 14 15  2  0
 15 16  1  0
 16 17  2  0
 17 18  1  0
 17 19  1  0
 19 20  1  0
 19 21  2  0
 21 22  1  0
 22 23  2  0
 23  2  1  0
 11  4  1  0
 23 12  1  0
 22 15  1  0
  1 24  1  0
  1 25  1  0
  1 26  1  0
  3 27  1  0
  8 28  1  0
  9 29  1  0
 10 30  1  0
 13 31  1  0
 14 32  1  0
 16 33  1  0
 18 34  1  0
 20 35  1  0
 21 36  1  0
M  END
>  <Binding energies>  (1) 
[-5.91]

>  <Ligand effiencies>  (1) 
[-0.22730769230769232]

>  <Interactions>  (1) 
["V-A:ILE:369:CG2:3237, V-A:ASP:366:CA:3210, V-A:ILE:369:CB:3236, V-B:GLU:543:CB:9878, H-A:TYR:531:OH:4795, V-A:TYR:484:CE2:4346, V-B:TYR:539:CE2:9848, V-B:GLU:543:CG:9879, V-A:ASP:366:CG:3213, H-A:ASN:370:N:3244, H-B:TYR:539:OH:9850, V-A:GLU:543:CD:4908, V-A:TYR:484:CZ:4347, V-A:HIS:456:CE1:4070, V-A:ILE:369:CD1:3239, V-A:ASP:366:C:3208, V-B:GLU:543:CD:9880, V-A:ASP:366:CB:3212, H-A:ASP:366:O:3209, H-B:GLU:543:OE2:9882"]

$$$$
ZINC101288225-again1
     RDKit          3D

 35 38  0  0  0  0  0  0  0  0999 V2000
  130.9610  128.2960   60.8630 C   0  0  0  0  0  0  0  0  0  0  0  0
  130.6210  127.1320   61.6830 N   0  0  0  0  0  0  0  0  0  0  0  0
  129.7250  127.4030   62.7050 C   0  0  0  0  0  0  0  0  0  0  0  0
  129.7850  126.8350   63.9280 C   0  0  0  0  0  0  0  0  0  0  0  0
  128.8220  127.2700   64.9870 C   0  0  0  0  0  0  0  0  0  0  0  0
  127.9280  128.1010   64.8020 O   0  0  0  0  0  0  0  0  0  0  0  0
  129.0650  126.6070   66.2940 C   0  0  0  0  0  0  0  0  0  0  0  0
  128.2370  127.0090   67.2980 O   0  0  0  0  0  0  0  0  0  0  0  0
  130.0310  125.6840   66.4780 C   0  0  0  0  0  0  0  0  0  0  0  0
  130.9010  125.2540   65.4000 C   0  0  0  0  0  0  0  0  0  0  0  0
  130.8000  125.7900   64.1590 C   0  0  0  0  0  0  0  0  0  0  0  0
  131.6340  125.3510   62.9890 C   0  0  0  0  0  0  0  0  0  0  0  0
  132.5610  124.3100   63.1130 C   0  0  0  0  0  0  0  0  0  0  0  0
  133.2870  123.8480   62.0280 C   0  0  0  0  0  0  0  0  0  0  0  0
  133.0730  124.3780   60.7410 C   0  0  0  0  0  0  0  0  0  0  0  0
  133.7740  123.8560   59.6270 C   0  0  0  0  0  0  0  0  0  0  0  0
  133.5380  124.3340   58.3380 C   0  0  0  0  0  0  0  0  0  0  0  0
  134.2010  123.8210   57.3740 O   0  0  0  0  0  0  0  0  0  0  0  0
  132.5790  125.3420   58.1400 C   0  0  0  0  0  0  0  0  0  0  0  0
  132.2690  125.8470   56.8940 O   0  0  0  0  0  0  0  0  0  0  0  0
  131.8880  125.8730   59.2280 C   0  0  0  0  0  0  0  0  0  0  0  0
  132.1320  125.4390   60.5640 C   0  0  0  0  0  0  0  0  0  0  0  0
  131.4610  125.9770   61.7260 C   0  0  0  0  0  0  0  0  0  0  0  0
  131.2090  129.1452   61.5167 H   0  0  0  0  0  0  0  0  0  0  0  0
  131.8268  128.0569   60.2281 H   0  0  0  0  0  0  0  0  0  0  0  0
  130.1026  128.5606   60.2281 H   0  0  0  0  0  0  0  0  0  0  0  0
  128.9174  128.1234   62.5079 H   0  0  0  0  0  0  0  0  0  0  0  0
  127.4400  127.3880   66.9230 H   0  0  0  0  0  0  0  0  0  0  0  0
  130.1633  125.2434   67.4772 H   0  0  0  0  0  0  0  0  0  0  0  0
  131.6568  124.4785   65.5931 H   0  0  0  0  0  0  0  0  0  0  0  0
  132.7171  123.8465   64.0983 H   0  0  0  0  0  0  0  0  0  0  0  0
  134.0390  123.0584   62.1731 H   0  0  0  0  0  0  0  0  0  0  0  0
  134.5174  123.0599   59.7807 H   0  0  0  0  0  0  0  0  0  0  0  0
  132.5200  126.7670   56.7890 H   0  0  0  0  0  0  0  0  0  0  0  0
  131.1310  126.6510   59.0503 H   0  0  0  0  0  0  0  0  0  0  0  0
  1  2  1  0
  2  3  1  0
  3  4  2  0
  4  5  1  0
  5  6  2  0
  5  7  1  0
  7  8  1  0
  7  9  2  0
  9 10  1  0
 10 11  2  0
 11 12  1  0
 12 13  2  0
 13 14  1  0
 14 15  2  0
 15 16  1  0
 16 17  2  0
 17 18  1  0
 17 19  1  0
 19 20  1  0
 19 21  2  0
 21 22  1  0
 22 23  2  0
 23  2  1  0
 11  4  1  0
 23 12  1  0
 22 15  1  0
  1 24  1  0
  1 25  1  0
  1 26  1  0
  3 27  1  0
  8 28  1  0
  9 29  1  0
 10 30  1  0
 13 31  1  0
 14 32  1  0
 16 33  1  0
 20 34  1  0
 21 35  1  0
M  CHG  1  18  -1
M  END
>  <Binding energies>  (1) 
[-5.61]

>  <Ligand effiencies>  (1) 
[-0.22440000000000002]

>  <Interactions>  (1) 
["V-A:ILE:369:CG2:3237, V-A:ASP:366:CA:3210, V-A:ILE:369:CD1:3239, H-B:GLU:543:OE2:9882, V-B:TYR:539:CZ:9849, H-A:ASN:370:N:3244, V-A:ILE:369:CB:3236, V-A:ASP:366:C:3208, H-B:TYR:539:OH:9850, V-B:GLU:543:CB:9878, V-B:GLU:543:CD:9880, H-A:TYR:531:OH:4795, V-A:GLU:543:CD:4908, V-A:ASP:366:CB:3212, V-B:TYR:539:CE2:9848, V-B:GLU:543:CG:9879, V-A:ASP:366:CG:3213, H-A:ASP:366:O:3209"]

$$$$
ZINC101345052
     RDKit          3D

 61 66  0  0  0  0  0  0  0  0999 V2000
  129.9520  127.7150   69.2270 C   0  0  0  0  0  0  0  0  0  0  0  0
  128.9270  126.6050   69.0290 C   0  0  0  0  0  0  0  0  0  0  0  0
  127.7540  126.7520   69.3780 O   0  0  0  0  0  0  0  0  0  0  0  0
  129.4750  125.5030   68.4490 O   0  0  0  0  0  0  0  0  0  0  0  0
  129.9330  125.5780   67.1530 C   0  0  0  0  0  0  0  0  0  0  0  0
  129.1240  126.1470   66.1670 C   0  0  0  0  0  0  0  0  0  0  0  0
  129.5880  126.2490   64.8590 C   0  0  0  0  0  0  0  0  0  0  0  0
  130.8690  125.7840   64.5420 C   0  0  0  0  0  0  0  0  0  0  0  0
  131.3390  125.8900   63.2230 N   0  0  0  0  0  0  0  0  0  0  0  0
  130.8230  126.7670   62.3210 C   0  0  0  0  0  0  0  0  0  0  0  0
  129.9060  127.5700   62.4950 O   0  0  0  0  0  0  0  0  0  0  0  0
  131.6280  126.6390   61.0350 C   0  0  1  0  0  0  0  0  0  0  0  0
  132.5040  125.4410   61.2480 C   0  0  1  0  0  0  0  0  0  0  0  0
  132.3400  125.1150   62.7300 C   0  0  0  0  0  0  0  0  0  0  0  0
  133.0230  124.2880   63.3370 O   0  0  0  0  0  0  0  0  0  0  0  0
  132.0080  124.3830   60.2070 C   0  0  1  0  0  0  0  0  0  0  0  0
  131.4750  125.1990   59.1210 N   0  0  0  0  0  0  0  0  0  0  0  0
  130.8090  126.3230   59.7620 C   0  0  2  0  0  0  0  0  0  0  0  0
  130.5650  127.5170   58.8130 C   0  0  0  0  0  0  0  0  0  0  0  0
  130.7630  128.8720   59.4800 C   0  0  0  0  0  0  0  0  0  0  0  0
  131.7320  129.7590   59.0020 C   0  0  0  0  0  0  0  0  0  0  0  0
  131.9270  130.9890   59.6290 C   0  0  0  0  0  0  0  0  0  0  0  0
  131.1570  131.3430   60.7380 C   0  0  0  0  0  0  0  0  0  0  0  0
  131.3680  132.5570   61.3420 O   0  0  0  0  0  0  0  0  0  0  0  0
  130.1820  130.4600   61.2190 C   0  0  0  0  0  0  0  0  0  0  0  0
  129.4120  130.7820   62.3090 O   0  0  0  0  0  0  0  0  0  0  0  0
  129.9880  129.2290   60.5880 C   0  0  0  0  0  0  0  0  0  0  0  0
  133.2140  123.5830   59.6570 C   0  0  0  0  0  0  0  0  0  0  0  0
  134.1920  124.0470   59.0680 O   0  0  0  0  0  0  0  0  0  0  0  0
  132.9980  122.2900   59.9610 N   0  0  0  0  0  0  0  0  0  0  0  0
  131.7720  122.0690   60.5640 C   0  0  0  0  0  0  0  0  0  0  0  0
  131.1990  120.8660   60.9740 C   0  0  0  0  0  0  0  0  0  0  0  0
  129.9160  120.8840   61.5250 C   0  0  0  0  0  0  0  0  0  0  0  0
  129.2220  122.0910   61.6530 C   0  0  0  0  0  0  0  0  0  0  0  0
  127.9800  122.1020   62.1890 F   0  0  0  0  0  0  0  0  0  0  0  0
  129.8110  123.2860   61.2350 C   0  0  0  0  0  0  0  0  0  0  0  0
  131.1020  123.2710   60.6940 C   0  0  0  0  0  0  0  0  0  0  0  0
  131.6850  125.2220   65.5280 C   0  0  0  0  0  0  0  0  0  0  0  0
  131.2160  125.1250   66.8350 C   0  0  0  0  0  0  0  0  0  0  0  0
  130.1072  127.8831   70.3029 H   0  0  0  0  0  0  0  0  0  0  0  0
  130.9042  127.4223   68.7605 H   0  0  0  0  0  0  0  0  0  0  0  0
  129.5845  128.6409   68.7605 H   0  0  0  0  0  0  0  0  0  0  0  0
  128.1197  126.5147   66.4244 H   0  0  0  0  0  0  0  0  0  0  0  0
  128.9516  126.6925   64.0791 H   0  0  0  0  0  0  0  0  0  0  0  0
  132.1260  127.6047   60.8633 H   0  0  0  0  0  0  0  0  0  0  0  0
  133.5855  125.5382   61.0724 H   0  0  0  0  0  0  0  0  0  0  0  0
  132.2600  125.5780   58.6100 H   0  0  0  0  0  0  0  0  0  0  0  0
  129.7784  126.0682   60.0499 H   0  0  0  0  0  0  0  0  0  0  0  0
  131.2649  127.4391   57.9679 H   0  0  0  0  0  0  0  0  0  0  0  0
  129.5147  127.4651   58.4902 H   0  0  0  0  0  0  0  0  0  0  0  0
  132.3424  129.4858   58.1287 H   0  0  0  0  0  0  0  0  0  0  0  0
  132.6907  131.6831   59.2482 H   0  0  0  0  0  0  0  0  0  0  0  0
  130.7870  132.7000   62.0920 H   0  0  0  0  0  0  0  0  0  0  0  0
  129.6990  130.3450   63.1150 H   0  0  0  0  0  0  0  0  0  0  0  0
  129.2211  128.5363   60.9648 H   0  0  0  0  0  0  0  0  0  0  0  0
  133.6440  121.5530   59.7150 H   0  0  0  0  0  0  0  0  0  0  0  0
  131.7480  119.9190   60.8653 H   0  0  0  0  0  0  0  0  0  0  0  0
  129.4498  119.9455   61.8594 H   0  0  0  0  0  0  0  0  0  0  0  0
  129.2630  124.2350   61.3304 H   0  0  0  0  0  0  0  0  0  0  0  0
  132.6914  124.8587   65.2727 H   0  0  0  0  0  0  0  0  0  0  0  0
  131.8557  124.6915   67.6179 H   0  0  0  0  0  0  0  0  0  0  0  0
  1  2  1  0
  2  3  2  0
  2  4  1  0
  4  5  1  0
  5  6  2  0
  6  7  1  0
  7  8  2  0
  8  9  1  0
  9 10  1  0
 10 11  2  0
 10 12  1  0
 12 13  1  0
 13 14  1  0
 14 15  2  0
 13 16  1  0
 16 17  1  6
 17 18  1  0
 18 19  1  0
 19 20  1  0
 20 21  2  0
 21 22  1  0
 22 23  2  0
 23 24  1  0
 23 25  1  0
 25 26  1  0
 25 27  2  0
 16 28  1  0
 28 29  2  0
 28 30  1  0
 30 31  1  0
 31 32  2  0
 32 33  1  0
 33 34  2  0
 34 35  1  0
 34 36  1  0
 36 37  2  0
  8 38  1  0
 38 39  2  0
 39  5  1  0
 14  9  1  0
 37 16  1  0
 18 12  1  0
 27 20  1  0
 37 31  1  0
  1 40  1  0
  1 41  1  0
  1 42  1  0
  6 43  1  0
  7 44  1  0
 12 45  1  6
 13 46  1  1
 17 47  1  0
 18 48  1  1
 19 49  1  0
 19 50  1  0
 21 51  1  0
 22 52  1  0
 24 53  1  0
 26 54  1  0
 27 55  1  0
 30 56  1  0
 32 57  1  0
 33 58  1  0
 36 59  1  0
 38 60  1  0
 39 61  1  0
M  END
>  <Binding energies>  (1) 
[-7.42]

>  <Ligand effiencies>  (1) 
[-0.17255813953488372]

>  <Interactions>  (1) 
["V-A:ILE:369:CG2:3237, V-B:PRO:540:CA:9855, V-B:GLU:543:C:9874, H-A:ALA:541:N:4891, V-B:GLU:543:CB:9878, H-A:ALA:541:O:4889, V-B:ALA:541:CB:9864, V-B:TYR:539:CE2:9848, V-A:TYR:484:CE2:4346, V-B:GLU:543:CG:9879, V-A:ASP:366:CG:3213, H-B:TYR:539:OH:9850, V-A:GLU:543:CD:4908, V-A:TYR:484:CZ:4347, V-A:HIS:456:CE1:4070, V-B:TYR:539:CD2:9846, V-B:GLU:543:CD:9880, V-A:ASP:366:CB:3212, V-A:LEU:475:CD2:4259, H-A:GLU:543:OE1:4909, V-A:GLU:543:CB:4906, V-A:PRO:540:CB:4885, V-A:PRO:540:CA:4883, V-B:PRO:540:C:9853, V-B:ALA:541:CA:9862"]

$$$$
ZINC101419147
     RDKit          3D

 71 76  0  0  0  0  0  0  0  0999 V2000
  132.3050  124.2810   64.4000 C   0  0  0  0  0  0  0  0  0  0  0  0
  131.1600  125.2040   64.3110 N   0  0  0  0  0  0  0  0  0  0  0  0
  130.7110  125.6390   63.0320 C   0  0  0  0  0  0  0  0  0  0  0  0
  131.1970  125.1400   61.9600 O   0  0  0  0  0  0  0  0  0  0  0  0
  129.7000  126.6560   62.9300 C   0  0  0  0  0  0  0  0  0  0  0  0
  129.0970  127.0610   61.5480 C   0  0  2  0  0  0  0  0  0  0  0  0
  128.4390  125.9330   60.7240 C   0  0  0  0  0  0  0  0  0  0  0  0
  128.9450  124.6280   60.7220 C   0  0  0  0  0  0  0  0  0  0  0  0
  128.3090  123.6280   59.9930 C   0  0  0  0  0  0  0  0  0  0  0  0
  127.1510  123.9010   59.2650 C   0  0  0  0  0  0  0  0  0  0  0  0
  126.5930  122.8400   58.5770 O   0  0  0  0  0  0  0  0  0  0  0  0
  126.8200  122.6810   57.1760 C   0  0  0  0  0  0  0  0  0  0  0  0
  126.9240  123.9010   56.6510 F   0  0  0  0  0  0  0  0  0  0  0  0
  127.9630  122.0390   56.9300 F   0  0  0  0  0  0  0  0  0  0  0  0
  125.7960  122.0710   56.5760 F   0  0  0  0  0  0  0  0  0  0  0  0
  126.6320  125.2050   59.2780 C   0  0  0  0  0  0  0  0  0  0  0  0
  127.2690  126.2060   60.0060 C   0  0  0  0  0  0  0  0  0  0  0  0
  130.0270  128.0010   60.7700 C   0  0  0  0  0  0  0  0  0  0  0  0
  130.4170  129.2240   61.2660 N   0  0  0  0  0  0  0  0  0  0  0  0
  131.2300  129.8850   60.3770 C   0  0  0  0  0  0  0  0  0  0  0  0
  131.8590  131.1320   60.4560 C   0  0  0  0  0  0  0  0  0  0  0  0
  132.6250  131.5250   59.3570 C   0  0  0  0  0  0  0  0  0  0  0  0
  132.7580  130.7190   58.2300 C   0  0  0  0  0  0  0  0  0  0  0  0
  132.1270  129.4770   58.1550 C   0  0  0  0  0  0  0  0  0  0  0  0
  131.3500  129.0370   59.2390 C   0  0  0  0  0  0  0  0  0  0  0  0
  130.5760  127.8520   59.5000 C   0  0  0  0  0  0  0  0  0  0  0  0
  130.3580  126.6920   58.5540 C   0  0  0  0  0  0  0  0  0  0  0  0
  131.6980  126.1240   58.0620 C   0  0  0  0  0  0  0  0  0  0  0  0
  131.9000  124.8260   58.6050 O   0  0  0  0  0  0  0  0  0  0  0  0
  133.1410  124.2810   58.6630 C   0  0  0  0  0  0  0  0  0  0  0  0
  133.9330  124.2900   57.7160 O   0  0  0  0  0  0  0  0  0  0  0  0
  133.4330  123.6190   59.9770 C   0  0  0  0  0  0  0  0  0  0  0  0
  132.9800  122.3220   60.2700 C   0  0  0  0  0  0  0  0  0  0  0  0
  133.2800  121.7310   61.4950 C   0  0  0  0  0  0  0  0  0  0  0  0
  134.0330  122.4300   62.4330 C   0  0  0  0  0  0  0  0  0  0  0  0
  134.4900  123.7150   62.1580 C   0  0  0  0  0  0  0  0  0  0  0  0
  134.1910  124.3080   60.9350 C   0  0  0  0  0  0  0  0  0  0  0  0
  129.2250  127.2870   64.1270 C   0  0  0  0  0  0  0  0  0  0  0  0
  128.5990  128.4010   64.0810 O   0  0  0  0  0  0  0  0  0  0  0  0
  129.4480  126.6040   65.3660 C   0  0  0  0  0  0  0  0  0  0  0  0
  128.7270  126.9540   66.5250 C   0  0  0  0  0  0  0  0  0  0  0  0
  128.9300  126.2960   67.7350 C   0  0  0  0  0  0  0  0  0  0  0  0
  129.8630  125.2710   67.8160 C   0  0  0  0  0  0  0  0  0  0  0  0
  130.5970  124.9130   66.6900 C   0  0  0  0  0  0  0  0  0  0  0  0
  130.4100  125.5720   65.4610 C   0  0  0  0  0  0  0  0  0  0  0  0
  132.5412  124.0906   65.4573 H   0  0  0  0  0  0  0  0  0  0  0  0
  132.0507  123.3324   63.9045 H   0  0  0  0  0  0  0  0  0  0  0  0
  133.1780  124.7309   63.9045 H   0  0  0  0  0  0  0  0  0  0  0  0
  128.2046  127.6555   61.7932 H   0  0  0  0  0  0  0  0  0  0  0  0
  129.8506  124.3917   61.3000 H   0  0  0  0  0  0  0  0  0  0  0  0
  128.7246  122.6095   59.9908 H   0  0  0  0  0  0  0  0  0  0  0  0
  125.7185  125.4368   58.7108 H   0  0  0  0  0  0  0  0  0  0  0  0
  126.8484  127.2223   60.0171 H   0  0  0  0  0  0  0  0  0  0  0  0
  130.1130  129.5510   62.1730 H   0  0  0  0  0  0  0  0  0  0  0  0
  131.7548  131.7736   61.3434 H   0  0  0  0  0  0  0  0  0  0  0  0
  133.1374  132.4981   59.3824 H   0  0  0  0  0  0  0  0  0  0  0  0
  133.3704  131.0669   57.3850 H   0  0  0  0  0  0  0  0  0  0  0  0
  132.2367  128.8500   57.2578 H   0  0  0  0  0  0  0  0  0  0  0  0
  129.8022  125.9003   59.0776 H   0  0  0  0  0  0  0  0  0  0  0  0
  129.7889  127.0513   57.6840 H   0  0  0  0  0  0  0  0  0  0  0  0
  131.6873  126.0627   56.9638 H   0  0  0  0  0  0  0  0  0  0  0  0
  132.5142  126.7851   58.3887 H   0  0  0  0  0  0  0  0  0  0  0  0
  132.3849  121.7699   59.5277 H   0  0  0  0  0  0  0  0  0  0  0  0
  132.9228  120.7152   61.7200 H   0  0  0  0  0  0  0  0  0  0  0  0
  134.2691  121.9627   63.4004 H   0  0  0  0  0  0  0  0  0  0  0  0
  135.0857  124.2604   62.9048 H   0  0  0  0  0  0  0  0  0  0  0  0
  134.5517  125.3243   60.7182 H   0  0  0  0  0  0  0  0  0  0  0  0
  127.9867  127.7659   66.4725 H   0  0  0  0  0  0  0  0  0  0  0  0
  128.3526  126.5875   68.6247 H   0  0  0  0  0  0  0  0  0  0  0  0
  130.0213  124.7434   68.7681 H   0  0  0  0  0  0  0  0  0  0  0  0
  131.3359  124.1013   66.7616 H   0  0  0  0  0  0  0  0  0  0  0  0
  1  2  1  0
  2  3  1  0
  3  4  1  0
  3  5  2  0
  5  6  1  0
  6  7  1  0
  7  8  2  0
  8  9  1  0
  9 10  2  0
 10 11  1  0
 11 12  1  0
 12 13  1  0
 12 14  1  0
 12 15  1  0
 10 16  1  0
 16 17  2  0
  6 18  1  0
 18 19  1  0
 19 20  1  0
 20 21  2  0
 21 22  1  0
 22 23  2  0
 23 24  1  0
 24 25  2  0
 25 26  1  0
 26 27  1  0
 27 28  1  0
 28 29  1  0
 29 30  1  0
 30 31  2  0
 30 32  1  0
 32 33  2  0
 33 34  1  0
 34 35  2  0
 35 36  1  0
 36 37  2  0
  5 38  1  0
 38 39  2  0
 38 40  1  0
 40 41  2  0
 41 42  1  0
 42 43  2  0
 43 44  1  0
 44 45  2  0
 45  2  1  0
 17  7  1  0
 26 18  2  0
 37 32  1  0
 45 40  1  0
 25 20  1  0
  1 46  1  0
  1 47  1  0
  1 48  1  0
  6 49  1  1
  8 50  1  0
  9 51  1  0
 16 52  1  0
 17 53  1  0
 19 54  1  0
 21 55  1  0
 22 56  1  0
 23 57  1  0
 24 58  1  0
 27 59  1  0
 27 60  1  0
 28 61  1  0
 28 62  1  0
 33 63  1  0
 34 64  1  0
 35 65  1  0
 36 66  1  0
 37 67  1  0
 41 68  1  0
 42 69  1  0
 43 70  1  0
 44 71  1  0
M  CHG  1   4  -1
M  END
>  <Binding energies>  (1) 
[-8.06]

>  <Ligand effiencies>  (1) 
[-0.17521739130434782]

>  <Interactions>  (1) 
["V-B:TYR:539:CA:9841, V-A:ILE:369:CG2:3237, V-B:PRO:540:CA:9855, V-A:ASP:366:CA:3210, V-A:GLY:454:CA:4049, V-B:GLU:543:CB:9878, V-B:TYR:539:CE2:9848, V-A:TYR:484:CE2:4346, V-B:GLU:543:CG:9879, V-B:TYR:539:C:9839, V-A:ASP:366:CG:3213, V-A:LEU:363:CD1:3189, V-B:TYR:539:CZ:9849, H-A:ASN:370:N:3244, V-A:TYR:531:CE2:4793, V-B:ILE:538:CG2:9835, H-B:TYR:539:OH:9850, V-B:TYR:539:CB:9843, V-A:GLU:543:CD:4908, V-A:TYR:484:CZ:4347, V-B:PRO:540:CB:9857, V-B:GLU:543:CA:9876, V-A:GLY:453:C:4042, V-B:PRO:540:N:9856, V-A:HIS:456:CE1:4070, V-A:ILE:369:CD1:3239, V-B:PRO:540:CD:9859, V-A:TYR:531:CZ:4794, V-B:TYR:539:CD2:9846, V-B:GLU:543:CD:9880, V-A:ASP:366:CB:3212, V-A:LEU:475:CD2:4259, H-A:GLU:543:OE1:4909, V-B:TYR:539:CG:9844, V-B:TYR:539:CD1:9845, V-B:PRO:540:CG:9858, V-A:PRO:540:CB:4885, V-A:PRO:540:CA:4883, V-B:MET:535:CE:9807, V-B:TYR:539:CE1:9847"]

$$$$
ZINC101463656
     RDKit          3D

 54 56  0  0  0  0  0  0  0  0999 V2000
  126.0860  122.8320   56.9940 C   0  0  0  0  0  0  0  0  0  0  0  0
  127.5580  122.4700   57.2360 C   0  0  0  0  0  0  0  0  0  0  0  0
  128.2390  123.3820   58.2720 C   0  0  0  0  0  0  0  0  0  0  0  0
  128.3970  122.7110   59.6470 C   0  0  0  0  0  0  0  0  0  0  0  0
  129.8150  122.8620   60.2280 C   0  0  0  0  0  0  0  0  0  0  0  0
  130.0730  121.9320   61.4280 C   0  0  0  0  0  0  0  0  0  0  0  0
  131.5130  122.0370   61.9690 C   0  0  0  0  0  0  0  0  0  0  0  0
  132.5960  122.1470   60.8790 C   0  0  0  0  0  0  0  0  0  0  0  0
  133.9830  122.5660   61.4040 C   0  0  0  0  0  0  0  0  0  0  0  0
  134.1120  124.0940   61.5740 C   0  0  0  0  0  0  0  0  0  0  0  0
  132.8810  124.7430   62.0990 N   0  0  0  0  0  0  0  0  0  0  0  0
  132.7430  124.6970   63.4810 C   0  0  0  0  0  0  0  0  0  0  0  0
  133.5480  124.1770   64.2580 O   0  0  0  0  0  0  0  0  0  0  0  0
  131.5160  125.3460   63.8630 C   0  0  0  0  0  0  0  0  0  0  0  0
  130.6150  125.9330   62.9800 C   0  0  0  0  0  0  0  0  0  0  0  0
  129.5580  126.4660   63.5810 N   0  0  0  0  0  0  0  0  0  0  0  0
  129.7900  126.2210   64.8490 C   0  0  0  0  0  0  0  0  0  0  0  0
  129.1250  126.4870   66.0120 O   0  0  0  0  0  0  0  0  0  0  0  0
  129.9150  125.9550   67.0050 C   0  0  0  0  0  0  0  0  0  0  0  0
  129.3960  126.1190   68.4110 C   0  0  0  0  0  0  0  0  0  0  0  0
  131.0620  125.3620   66.4780 C   0  0  0  0  0  0  0  0  0  0  0  0
  130.9530  125.5470   65.1070 N   0  0  0  0  0  0  0  0  0  0  0  0
  130.9060  125.9000   61.6200 N   0  0  0  0  0  0  0  0  0  0  0  0
  129.9770  126.5150   60.6600 C   0  0  0  0  0  0  0  0  0  0  0  0
  132.0590  125.3230   61.1330 C   0  0  0  0  0  0  0  0  0  0  0  0
  132.3320  125.3380   59.9250 O   0  0  0  0  0  0  0  0  0  0  0  0
  125.5756  122.9575   57.9603 H   0  0  0  0  0  0  0  0  0  0  0  0
  126.0283  123.7711   56.4241 H   0  0  0  0  0  0  0  0  0  0  0  0
  125.5993  122.0268   56.4241 H   0  0  0  0  0  0  0  0  0  0  0  0
  127.6091  121.4317   57.5957 H   0  0  0  0  0  0  0  0  0  0  0  0
  128.0901  122.6008   56.2822 H   0  0  0  0  0  0  0  0  0  0  0  0
  129.2367  123.6547   57.8977 H   0  0  0  0  0  0  0  0  0  0  0  0
  127.5974  124.2652   58.4071 H   0  0  0  0  0  0  0  0  0  0  0  0
  127.6810  123.1688   60.3453 H   0  0  0  0  0  0  0  0  0  0  0  0
  128.2078  121.6357   59.5133 H   0  0  0  0  0  0  0  0  0  0  0  0
  130.5445  122.6273   59.4388 H   0  0  0  0  0  0  0  0  0  0  0  0
  129.9170  123.8975   60.5849 H   0  0  0  0  0  0  0  0  0  0  0  0
  129.3745  122.1981   62.2350 H   0  0  0  0  0  0  0  0  0  0  0  0
  129.9244  120.8982   61.0827 H   0  0  0  0  0  0  0  0  0  0  0  0
  131.5761  122.9301   62.6080 H   0  0  0  0  0  0  0  0  0  0  0  0
  131.7117  121.1034   62.5158 H   0  0  0  0  0  0  0  0  0  0  0  0
  132.6942  121.1663   60.3906 H   0  0  0  0  0  0  0  0  0  0  0  0
  132.2685  122.9376   60.1878 H   0  0  0  0  0  0  0  0  0  0  0  0
  134.1506  122.0868   62.3799 H   0  0  0  0  0  0  0  0  0  0  0  0
  134.7316  122.2471   60.6638 H   0  0  0  0  0  0  0  0  0  0  0  0
  134.9368  124.2973   62.2728 H   0  0  0  0  0  0  0  0  0  0  0  0
  134.2958  124.5144   60.5743 H   0  0  0  0  0  0  0  0  0  0  0  0
  130.1920  125.8675   69.1273 H   0  0  0  0  0  0  0  0  0  0  0  0
  129.0793  127.1610   68.5657 H   0  0  0  0  0  0  0  0  0  0  0  0
  128.5381  125.4482   68.5657 H   0  0  0  0  0  0  0  0  0  0  0  0
  131.8723  124.8597   67.0267 H   0  0  0  0  0  0  0  0  0  0  0  0
  129.1809  127.0420   61.2063 H   0  0  0  0  0  0  0  0  0  0  0  0
  130.5234  127.2304   60.0278 H   0  0  0  0  0  0  0  0  0  0  0  0
  129.5318  125.7326   60.0278 H   0  0  0  0  0  0  0  0  0  0  0  0
  1  2  1  0
  2  3  1  0
  3  4  1  0
  4  5  1  0
  5  6  1  0
  6  7  1  0
  7  8  1  0
  8  9  1  0
  9 10  1  0
 10 11  1  0
 11 12  1  0
 12 13  2  0
 12 14  1  0
 14 15  2  0
 15 16  1  0
 16 17  2  0
 17 18  1  0
 18 19  1  0
 19 20  1  0
 19 21  2  0
 21 22  1  0
 15 23  1  0
 23 24  1  0
 23 25  1  0
 25 26  2  0
 25 11  1  0
 22 14  1  0
 22 17  1  0
  1 27  1  0
  1 28  1  0
  1 29  1  0
  2 30  1  0
  2 31  1  0
  3 32  1  0
  3 33  1  0
  4 34  1  0
  4 35  1  0
  5 36  1  0
  5 37  1  0
  6 38  1  0
  6 39  1  0
  7 40  1  0
  7 41  1  0
  8 42  1  0
  8 43  1  0
  9 44  1  0
  9 45  1  0
 10 46  1  0
 10 47  1  0
 20 48  1  0
 20 49  1  0
 20 50  1  0
 21 51  1  0
 24 52  1  0
 24 53  1  0
 24 54  1  0
M  END
>  <Binding energies>  (1) 
[-5.34]

>  <Ligand effiencies>  (1) 
[-0.2053846153846154]

>  <Interactions>  (1) 
["V-B:TYR:539:CA:9841, V-A:ILE:369:CG2:3237, V-B:PRO:540:CA:9855, V-B:GLU:543:C:9874, V-B:GLU:543:CB:9878, V-B:TYR:539:CE2:9848, V-B:GLU:543:CG:9879, V-B:TYR:539:C:9839, V-A:ASP:366:CG:3213, V-B:TYR:539:CZ:9849, V-A:GLU:543:CD:4908, V-B:PRO:540:CB:9857, V-A:TYR:484:CZ:4347, H-A:GLY:454:N:4050, V-B:PRO:540:N:9856, V-A:ILE:369:CD1:3239, V-A:HIS:456:CE1:4070, V-B:TYR:539:CD2:9846, V-B:PRO:540:CD:9859, V-B:GLU:543:CD:9880, V-A:LEU:475:CD2:4259, V-A:ARG:545:CZ:4926, V-B:TYR:539:CG:9844, V-B:TYR:539:CD1:9845, V-B:TYR:539:CE1:9847, H-A:TYR:484:OH:4348"]

$$$$
ZINC101481722-again1
     RDKit          3D

 37 39  0  0  0  0  0  0  0  0999 V2000
  129.8460  126.1850   58.0110 C   0  0  0  0  0  0  0  0  0  0  0  0
  131.0350  126.6040   58.9050 C   0  0  0  0  0  0  0  0  0  0  0  0
  130.4810  127.0290   60.2850 C   0  0  0  0  0  0  0  0  0  0  0  0
  131.7290  127.8420   58.2820 C   0  0  0  0  0  0  0  0  0  0  0  0
  132.0290  125.4290   59.0110 C   0  0  0  0  0  0  0  0  0  0  0  0
  132.8150  125.1600   57.9800 N   0  0  0  0  0  0  0  0  0  0  0  0
  133.5980  124.0550   58.3140 O   0  0  0  0  0  0  0  0  0  0  0  0
  133.2500  123.6680   59.5600 C   0  0  0  0  0  0  0  0  0  0  0  0
  132.2510  124.4890   60.0360 C   0  0  0  0  0  0  0  0  0  0  0  0
  131.7000  124.1760   61.4310 C   0  0  1  0  0  0  0  0  0  0  0  0
  130.3650  123.4420   61.4170 C   0  0  0  0  0  0  0  0  0  0  0  0
  129.1130  123.9200   61.8080 C   0  0  0  0  0  0  0  0  0  0  0  0
  128.0700  122.9970   61.6890 C   0  0  0  0  0  0  0  0  0  0  0  0
  128.5000  121.7760   61.2080 C   0  0  0  0  0  0  0  0  0  0  0  0
  130.2030  121.7750   60.9060 S   0  0  0  0  0  0  0  0  0  0  0  0
  132.7960  123.3900   62.2580 C   0  0  2  0  0  0  0  0  0  0  0  0
  133.6590  124.3390   62.9860 C   0  0  0  0  0  0  0  0  0  0  0  0
  134.3350  125.0840   63.5590 N   0  0  0  0  0  0  0  0  0  0  0  0
  133.7030  122.4720   61.3940 C   0  0  0  0  0  0  0  0  0  0  0  0
  134.3400  121.4390   62.0430 N   0  0  0  0  0  0  0  0  0  0  0  0
  133.8940  122.6270   60.1430 N   0  0  0  0  0  0  0  0  0  0  0  0
  128.9981  125.8862   58.6449 H   0  0  0  0  0  0  0  0  0  0  0  0
  129.5483  127.0324   57.3759 H   0  0  0  0  0  0  0  0  0  0  0  0
  130.1453  125.3382   57.3759 H   0  0  0  0  0  0  0  0  0  0  0  0
  131.0839  126.5665   61.0804 H   0  0  0  0  0  0  0  0  0  0  0  0
  130.5292  128.1240   60.3781 H   0  0  0  0  0  0  0  0  0  0  0  0
  129.4359  126.6988   60.3781 H   0  0  0  0  0  0  0  0  0  0  0  0
  132.0970  128.4985   59.0843 H   0  0  0  0  0  0  0  0  0  0  0  0
  132.5747  127.5139   57.6598 H   0  0  0  0  0  0  0  0  0  0  0  0
  131.0078  128.3922   57.6598 H   0  0  0  0  0  0  0  0  0  0  0  0
  131.4818  125.1354   61.9228 H   0  0  0  0  0  0  0  0  0  0  0  0
  128.9592  124.9434   62.1808 H   0  0  0  0  0  0  0  0  0  0  0  0
  127.0244  123.2183   61.9492 H   0  0  0  0  0  0  0  0  0  0  0  0
  127.8413  120.9116   61.0381 H   0  0  0  0  0  0  0  0  0  0  0  0
  132.2346  122.7429   62.9480 H   0  0  0  0  0  0  0  0  0  0  0  0
  134.9480  120.8150   61.5340 H   0  0  0  0  0  0  0  0  0  0  0  0
  134.2170  121.2980   63.0350 H   0  0  0  0  0  0  0  0  0  0  0  0
  1  2  1  0
  2  3  1  0
  2  4  1  0
  2  5  1  0
  5  6  2  0
  6  7  1  0
  7  8  1  0
  8  9  2  0
  9 10  1  0
 10 11  1  0
 11 12  2  0
 12 13  1  0
 13 14  2  0
 14 15  1  0
 10 16  1  0
 16 17  1  0
 17 18  3  0
 16 19  1  0
 19 20  1  0
 19 21  2  0
  9  5  1  0
 15 11  1  0
 21  8  1  0
  1 22  1  0
  1 23  1  0
  1 24  1  0
  3 25  1  0
  3 26  1  0
  3 27  1  0
  4 28  1  0
  4 29  1  0
  4 30  1  0
 10 31  1  1
 12 32  1  0
 13 33  1  0
 14 34  1  0
 16 35  1  1
 20 36  1  0
 20 37  1  0
M  END
>  <Binding energies>  (1) 
[-6.81]

>  <Ligand effiencies>  (1) 
[-0.2960869565217391]

>  <Interactions>  (1) 
["V-A:ILE:369:CG2:3237, V-B:PRO:540:CA:9855, V-A:GLY:454:CA:4049, V-B:ALA:541:CB:9864, H-A:ARG:545:NH1:4927, V-B:TYR:539:CE2:9848, V-B:TYR:539:C:9839, V-A:ASP:366:CG:3213, H-B:TYR:539:OH:9850, H-A:GLY:454:N:4050, V-A:SER:385:C:3405, V-A:ILE:369:CD1:3239, V-B:TYR:539:CD2:9846, V-A:TYR:531:CZ:4794, V-A:SER:385:CB:3409, H-A:SER:385:OG:3410, V-A:ASP:366:CB:3212, V-A:LEU:475:CD2:4259, H-A:ARG:545:NH2:4928, V-A:ARG:545:CZ:4926, H-A:ARG:545:NE:4924, H-A:SER:385:O:3406, V-A:SER:385:CA:3407, V-B:PRO:540:C:9853"]

$$$$
ZINC101481947
     RDKit          3D

 52 57  0  0  0  0  0  0  0  0999 V2000
  130.9110  123.1760   64.5810 O   0  0  0  0  0  0  0  0  0  0  0  0
  131.0170  124.1020   63.7760 C   0  0  0  0  0  0  0  0  0  0  0  0
  130.6690  125.5530   64.0700 C   0  0  2  0  0  0  0  0  0  0  0  0
  129.2680  125.8170   64.6690 C   0  0  1  0  0  0  0  0  0  0  0  0
  129.2820  126.3840   66.0840 C   0  0  0  0  0  0  0  0  0  0  0  0
  128.7210  127.6400   66.3370 C   0  0  0  0  0  0  0  0  0  0  0  0
  128.7310  128.1580   67.6290 C   0  0  0  0  0  0  0  0  0  0  0  0
  129.2980  127.4200   68.6670 C   0  0  0  0  0  0  0  0  0  0  0  0
  129.3120  128.1310   70.4330 Br  0  0  0  0  0  0  0  0  0  0  0  0
  129.8520  126.1650   68.4230 C   0  0  0  0  0  0  0  0  0  0  0  0
  129.8440  125.6450   67.1310 C   0  0  0  0  0  0  0  0  0  0  0  0
  128.6220  126.6890   63.7330 O   0  0  0  0  0  0  0  0  0  0  0  0
  129.1940  126.5540   62.4300 C   0  0  0  0  0  0  0  0  0  0  0  0
  129.0330  127.8810   61.6800 C   0  0  0  0  0  0  0  0  0  0  0  0
  129.4860  128.9750   62.0180 O   0  0  0  0  0  0  0  0  0  0  0  0
  128.2620  127.5780   60.4610 C   0  0  0  0  0  0  0  0  0  0  0  0
  127.8960  128.4350   59.4200 C   0  0  0  0  0  0  0  0  0  0  0  0
  127.1470  127.9390   58.3490 C   0  0  0  0  0  0  0  0  0  0  0  0
  126.7630  126.5960   58.3220 C   0  0  0  0  0  0  0  0  0  0  0  0
  127.1270  125.7420   59.3650 C   0  0  0  0  0  0  0  0  0  0  0  0
  127.8800  126.2370   60.4330 C   0  0  0  0  0  0  0  0  0  0  0  0
  128.3630  125.5280   61.6300 C   0  0  0  0  0  0  0  0  0  0  0  0
  128.1700  124.3480   61.9210 O   0  0  0  0  0  0  0  0  0  0  0  0
  130.6860  126.2270   62.7500 C   0  0  2  0  0  0  0  0  0  0  0  0
  131.4250  125.2440   61.8450 C   0  0  0  0  0  0  0  0  0  0  0  0
  131.8390  125.5120   60.7160 O   0  0  0  0  0  0  0  0  0  0  0  0
  131.5190  124.0590   62.5110 N   0  0  0  0  0  0  0  0  0  0  0  0
  132.0270  122.8860   61.9230 C   0  0  0  0  0  0  0  0  0  0  0  0
  133.4200  122.7550   61.8330 C   0  0  0  0  0  0  0  0  0  0  0  0
  133.9860  121.6160   61.2650 C   0  0  0  0  0  0  0  0  0  0  0  0
  133.1660  120.6000   60.7840 C   0  0  0  0  0  0  0  0  0  0  0  0
  131.7800  120.7210   60.8680 C   0  0  0  0  0  0  0  0  0  0  0  0
  131.1850  121.8590   61.4350 C   0  0  0  0  0  0  0  0  0  0  0  0
  129.6530  121.9540   61.5070 C   0  0  0  0  0  0  0  0  0  0  0  0
  129.2200  122.4020   62.6870 F   0  0  0  0  0  0  0  0  0  0  0  0
  129.2000  122.7870   60.5700 F   0  0  0  0  0  0  0  0  0  0  0  0
  129.1090  120.7530   61.3080 F   0  0  0  0  0  0  0  0  0  0  0  0
  131.3883  125.9081   64.8226 H   0  0  0  0  0  0  0  0  0  0  0  0
  128.7246  124.8696   64.8004 H   0  0  0  0  0  0  0  0  0  0  0  0
  128.2723  128.2180   65.5157 H   0  0  0  0  0  0  0  0  0  0  0  0
  128.2928  129.1467   67.8304 H   0  0  0  0  0  0  0  0  0  0  0  0
  130.2941  125.5870   69.2479 H   0  0  0  0  0  0  0  0  0  0  0  0
  130.2791  124.6542   66.9337 H   0  0  0  0  0  0  0  0  0  0  0  0
  128.1953  129.4932   59.4430 H   0  0  0  0  0  0  0  0  0  0  0  0
  126.8590  128.6082   57.5249 H   0  0  0  0  0  0  0  0  0  0  0  0
  126.1728  126.2106   57.4775 H   0  0  0  0  0  0  0  0  0  0  0  0
  126.8226  124.6851   59.3461 H   0  0  0  0  0  0  0  0  0  0  0  0
  131.2094  127.1893   62.6495 H   0  0  0  0  0  0  0  0  0  0  0  0
  134.0700  123.5567   62.2133 H   0  0  0  0  0  0  0  0  0  0  0  0
  135.0797  121.5199   61.1968 H   0  0  0  0  0  0  0  0  0  0  0  0
  133.6124  119.6997   60.3366 H   0  0  0  0  0  0  0  0  0  0  0  0
  131.1420  119.9115   60.4837 H   0  0  0  0  0  0  0  0  0  0  0  0
  1  2  2  0
  2  3  1  0
  3  4  1  0
  4  5  1  0
  5  6  2  0
  6  7  1  0
  7  8  2  0
  8  9  1  0
  8 10  1  0
 10 11  2  0
  4 12  1  0
 12 13  1  0
 13 14  1  0
 14 15  2  0
 14 16  1  0
 16 17  2  0
 17 18  1  0
 18 19  2  0
 19 20  1  0
 20 21  2  0
 21 22  1  0
 22 23  2  0
 13 24  1  0
 24 25  1  0
 25 26  2  0
 25 27  1  0
 27 28  1  0
 28 29  2  0
 29 30  1  0
 30 31  2  0
 31 32  1  0
 32 33  2  0
 33 34  1  0
 34 35  1  0
 34 36  1  0
 34 37  1  0
 27  2  1  0
 33 28  1  0
 24  3  1  0
 11  5  1  0
 22 13  1  0
 21 16  1  0
  3 38  1  1
  4 39  1  1
  6 40  1  0
  7 41  1  0
 10 42  1  0
 11 43  1  0
 17 44  1  0
 18 45  1  0
 19 46  1  0
 20 47  1  0
 24 48  1  1
 29 49  1  0
 30 50  1  0
 31 51  1  0
 32 52  1  0
M  END
>  <Binding energies>  (1) 
[-7.14]

>  <Ligand effiencies>  (1) 
[-0.19297297297297297]

>  <Interactions>  (1) 
["V-A:ILE:369:CG2:3237, V-B:PRO:540:CA:9855, V-B:GLU:543:CB:9878, V-B:ALA:541:CB:9864, V-B:TYR:539:CE2:9848, V-B:GLU:543:CG:9879, V-B:TYR:539:C:9839, V-A:GLU:543:CD:4908, V-B:HIS:456:CE1:9041, V-A:SER:385:C:3405, V-A:ILE:369:CD1:3239, V-A:HIS:456:CE1:4070, V-B:TYR:539:CD2:9846, V-A:GLU:543:CG:4907, V-A:SER:385:CB:3409, V-B:GLU:543:CD:9880, V-A:LEU:475:CD2:4259, V-A:GLU:543:CB:4906, V-A:SER:385:CA:3407, V-B:PRO:540:C:9853, V-B:ALA:541:CA:9862, H-A:TYR:484:OH:4348"]

$$$$
ZINC101655413
     RDKit          3D

 44 47  0  0  0  0  0  0  0  0999 V2000
  129.4690  127.2330   64.7130 N   0  0  0  0  0  0  0  0  0  0  0  0
  128.7010  127.8600   65.6530 C   0  0  0  0  0  0  0  0  0  0  0  0
  128.3500  127.2470   66.7530 N   0  0  0  0  0  0  0  0  0  0  0  0
  127.5820  128.1840   67.4460 O   0  0  0  0  0  0  0  0  0  0  0  0
  127.4720  129.3800   66.7390 N   0  0  0  0  0  0  0  0  0  0  0  0
  128.1670  129.1510   65.6540 C   0  0  0  0  0  0  0  0  0  0  0  0
  128.3430  130.0780   64.6480 N   0  0  0  0  0  0  0  0  0  0  0  0
  128.3620  131.3720   64.9760 N   0  0  0  0  0  0  0  0  0  0  0  0
  128.5410  132.0720   63.8030 N   0  0  0  0  0  0  0  0  0  0  0  0
  128.6580  131.2120   62.8040 C   0  0  0  0  0  0  0  0  0  0  0  0
  128.9500  131.7100   61.4230 C   0  0  0  0  0  0  0  0  0  0  0  0
  130.1680  131.4040   60.8100 C   0  0  0  0  0  0  0  0  0  0  0  0
  130.4460  131.8760   59.5300 C   0  0  0  0  0  0  0  0  0  0  0  0
  129.5110  132.6590   58.8400 C   0  0  0  0  0  0  0  0  0  0  0  0
  129.8110  133.1670   57.4780 N   0  0  0  0  0  0  0  0  0  0  0  0
  130.9830  133.3630   57.1680 O   0  0  0  0  0  0  0  0  0  0  0  0
  128.8770  133.3700   56.7080 O   0  0  0  0  0  0  0  0  0  0  0  0
  128.2870  132.9510   59.4570 C   0  0  0  0  0  0  0  0  0  0  0  0
  128.0070  132.4770   60.7360 C   0  0  0  0  0  0  0  0  0  0  0  0
  128.4670  129.8980   63.2790 C   0  0  0  0  0  0  0  0  0  0  0  0
  128.5520  128.6200   62.6010 C   0  0  0  0  0  0  0  0  0  0  0  0
  127.5660  127.8890   62.4750 O   0  0  0  0  0  0  0  0  0  0  0  0
  129.7800  128.3420   62.1200 N   0  0  0  0  0  0  0  0  0  0  0  0
  130.0660  127.1980   61.4760 N   0  0  0  0  0  0  0  0  0  0  0  0
  130.9910  126.5330   62.0430 C   0  0  0  0  0  0  0  0  0  0  0  0
  131.4900  125.2450   61.5420 C   0  0  0  0  0  0  0  0  0  0  0  0
  132.7630  125.1040   60.9660 C   0  0  0  0  0  0  0  0  0  0  0  0
  133.2040  123.8650   60.5010 C   0  0  0  0  0  0  0  0  0  0  0  0
  132.3800  122.7450   60.6010 C   0  0  0  0  0  0  0  0  0  0  0  0
  132.8160  121.5480   60.1470 F   0  0  0  0  0  0  0  0  0  0  0  0
  131.1110  122.8680   61.1710 C   0  0  0  0  0  0  0  0  0  0  0  0
  129.9680  121.3510   61.3190 Br  0  0  0  0  0  0  0  0  0  0  0  0
  130.6730  124.1090   61.6370 C   0  0  0  0  0  0  0  0  0  0  0  0
  129.1060  126.9910   63.8020 H   0  0  0  0  0  0  0  0  0  0  0  0
  130.4340  126.9970   64.8960 H   0  0  0  0  0  0  0  0  0  0  0  0
  130.9094  130.7883   61.3404 H   0  0  0  0  0  0  0  0  0  0  0  0
  131.4083  131.6320   59.0561 H   0  0  0  0  0  0  0  0  0  0  0  0
  127.5407  133.5602   58.9261 H   0  0  0  0  0  0  0  0  0  0  0  0
  127.0399  132.7075   61.2066 H   0  0  0  0  0  0  0  0  0  0  0  0
  130.5560  128.9740   62.2530 H   0  0  0  0  0  0  0  0  0  0  0  0
  131.4416  126.9449   62.9581 H   0  0  0  0  0  0  0  0  0  0  0  0
  133.4206  125.9816   60.8804 H   0  0  0  0  0  0  0  0  0  0  0  0
  134.2048  123.7715   60.0541 H   0  0  0  0  0  0  0  0  0  0  0  0
  129.6724  124.1971   62.0853 H   0  0  0  0  0  0  0  0  0  0  0  0
  1  2  1  0
  2  3  2  0
  3  4  1  0
  4  5  1  0
  5  6  2  0
  6  7  1  0
  7  8  1  0
  8  9  2  0
  9 10  1  0
 10 11  1  0
 11 12  2  0
 12 13  1  0
 13 14  2  0
 14 15  1  0
 15 16  2  0
 15 17  1  0
 14 18  1  0
 18 19  2  0
 10 20  2  0
 20 21  1  0
 21 22  2  0
 21 23  1  0
 23 24  1  0
 24 25  2  0
 25 26  1  0
 26 27  2  0
 27 28  1  0
 28 29  2  0
 29 30  1  0
 29 31  1  0
 31 32  1  0
 31 33  2  0
  6  2  1  0
 20  7  1  0
 33 26  1  0
 19 11  1  0
  1 34  1  0
  1 35  1  0
 12 36  1  0
 13 37  1  0
 18 38  1  0
 19 39  1  0
 23 40  1  0
 25 41  1  0
 27 42  1  0
 28 43  1  0
 33 44  1  0
M  CHG  2  15   1  17  -1
M  END
>  <Binding energies>  (1) 
[-8.75]

>  <Ligand effiencies>  (1) 
[-0.24305555555555555]

>  <Interactions>  (1) 
["V-A:ILE:369:CG2:3237, H-A:GLU:543:OE2:4910, V-B:ALA:541:CB:9864, V-B:TYR:539:CE2:9848, V-A:ASP:366:CG:3213, V-A:TYR:539:CD1:4873, H-B:GLU:543:OE1:9881, V-A:TYR:539:CA:4869, V-A:GLU:543:CD:4908, H-B:TYR:484:OH:9319, V-B:TYR:539:CD2:9846, V-A:GLU:543:CG:4907, V-B:GLU:543:CD:9880, V-A:TYR:539:C:4867, V-A:LEU:475:CD2:4259, H-A:GLU:543:OE1:4909, V-A:GLU:543:CB:4906, V-A:PRO:540:N:4884, H-A:TYR:539:N:4870, H-B:GLU:543:OE2:9882, V-A:PRO:540:CA:4883, V-A:PRO:540:CB:4885, V-A:TYR:539:CE1:4875"]

$$$$
ZINC101697672-again1
     RDKit          3D

 73 77  0  0  0  0  0  0  0  0999 V2000
  127.9080  129.1060   59.0930 C   0  0  0  0  0  0  0  0  0  0  0  0
  128.0620  128.1280   60.0160 C   0  0  0  0  0  0  0  0  0  0  0  0
  129.1630  127.1450   59.9160 C   0  0  0  0  0  0  0  0  0  0  0  0
  130.0530  127.1610   59.0660 O   0  0  0  0  0  0  0  0  0  0  0  0
  128.8500  126.0900   61.0130 C   0  0  2  0  0  0  0  0  0  0  0  0
  127.3150  126.2690   61.0960 C   0  0  2  0  0  0  0  0  0  0  0  0
  126.5810  125.7250   59.9850 O   0  0  0  0  0  0  0  0  0  0  0  0
  126.1710  124.4290   59.9650 C   0  0  0  0  0  0  0  0  0  0  0  0
  126.2990  123.6580   59.0120 O   0  0  0  0  0  0  0  0  0  0  0  0
  125.4850  123.9480   61.2560 C   0  0  0  0  0  0  0  0  0  0  0  0
  126.3160  123.1260   62.1250 N   0  0  0  0  0  0  0  0  0  0  0  0
  127.1270  127.8070   61.2040 C   0  0  1  0  0  0  0  0  0  0  0  0
  127.2930  127.9920   62.7540 C   0  0  0  0  0  0  0  0  0  0  0  0
  128.5810  127.3520   63.3670 C   0  0  0  0  0  0  0  0  0  0  0  0
  129.5010  126.5060   62.4080 C   0  0  1  0  0  0  0  0  0  0  0  0
  130.2930  125.3090   63.0780 C   0  0  1  0  0  0  0  0  0  0  0  0
  129.2420  124.1540   63.0760 C   0  0  0  0  0  0  0  0  0  0  0  0
  128.8190  123.7960   61.7400 O   0  0  0  0  0  0  0  0  0  0  0  0
  129.3380  124.6190   60.7120 C   0  0  1  0  0  0  0  0  0  0  0  0
  128.8770  124.1920   59.4850 O   0  0  0  0  0  0  0  0  0  0  0  0
  130.8820  124.4000   60.7340 C   0  0  1  0  0  0  0  0  0  0  0  0
  131.6070  124.9040   59.6240 O   0  0  0  0  0  0  0  0  0  0  0  0
  131.4700  124.9080   62.0940 C   0  0  2  0  0  0  0  0  0  0  0  0
  132.6350  124.0080   62.6750 C   0  0  0  0  0  0  0  0  0  0  0  0
  132.2420  122.5340   62.9840 C   0  0  0  0  0  0  0  0  0  0  0  0
  133.8380  124.0490   61.6980 C   0  0  0  0  0  0  0  0  0  0  0  0
  133.1160  124.6960   63.9790 C   0  0  0  0  0  0  0  0  0  0  0  0
  132.0070  124.8090   65.0350 C   0  0  0  0  0  0  0  0  0  0  0  0
  130.8490  125.6810   64.5060 C   0  0  2  0  0  0  0  0  0  0  0  0
  129.8040  125.6690   65.4760 O   0  0  0  0  0  0  0  0  0  0  0  0
  130.1980  125.6380   67.1010 S   0  0  0  0  0  0  0  0  0  0  0  0
  129.8350  124.3230   67.6420 O   0  0  0  0  0  0  0  0  0  0  0  0
  131.5510  126.1790   67.2730 O   0  0  0  0  0  0  0  0  0  0  0  0
  128.9410  126.9230   67.6840 C   0  0  0  0  0  0  0  0  0  0  0  0
  129.2460  127.3410   69.1300 C   0  0  0  0  0  0  0  0  0  0  0  0
  128.0540  127.1260   70.0720 C   0  0  0  0  0  0  0  0  0  0  0  0
  127.0819  129.8262   59.1874 H   0  0  0  0  0  0  0  0  0  0  0  0
  128.6089  129.1806   58.2485 H   0  0  0  0  0  0  0  0  0  0  0  0
  126.9078  125.7084   61.9504 H   0  0  0  0  0  0  0  0  0  0  0  0
  125.1688  124.8346   61.8251 H   0  0  0  0  0  0  0  0  0  0  0  0
  124.6465  123.3104   60.9394 H   0  0  0  0  0  0  0  0  0  0  0  0
  127.0020  122.6340   61.5690 H   0  0  0  0  0  0  0  0  0  0  0  0
  126.8370  123.7180   62.7570 H   0  0  0  0  0  0  0  0  0  0  0  0
  126.2760  128.4871   61.0514 H   0  0  0  0  0  0  0  0  0  0  0  0
  127.3145  129.0709   62.9675 H   0  0  0  0  0  0  0  0  0  0  0  0
  126.4428  127.4692   63.2164 H   0  0  0  0  0  0  0  0  0  0  0  0
  129.1935  128.1700   63.7739 H   0  0  0  0  0  0  0  0  0  0  0  0
  128.2088  126.6288   64.1076 H   0  0  0  0  0  0  0  0  0  0  0  0
  130.2691  127.2543   62.1631 H   0  0  0  0  0  0  0  0  0  0  0  0
  129.6881  123.2695   63.5542 H   0  0  0  0  0  0  0  0  0  0  0  0
  128.3562  124.5055   63.6255 H   0  0  0  0  0  0  0  0  0  0  0  0
  128.1680  124.7830   59.2170 H   0  0  0  0  0  0  0  0  0  0  0  0
  131.0191  123.3127   60.6391 H   0  0  0  0  0  0  0  0  0  0  0  0
  130.9800  125.2060   58.9620 H   0  0  0  0  0  0  0  0  0  0  0  0
  132.0261  125.8410   61.9200 H   0  0  0  0  0  0  0  0  0  0  0  0
  132.2025  122.3857   64.0732 H   0  0  0  0  0  0  0  0  0  0  0  0
  131.2551  122.3187   62.5486 H   0  0  0  0  0  0  0  0  0  0  0  0
  132.9907  121.8559   62.5486 H   0  0  0  0  0  0  0  0  0  0  0  0
  134.7757  124.0810   62.2722 H   0  0  0  0  0  0  0  0  0  0  0  0
  133.8265  123.1499   61.0643 H   0  0  0  0  0  0  0  0  0  0  0  0
  133.7653  124.9452   61.0643 H   0  0  0  0  0  0  0  0  0  0  0  0
  133.9450  124.1090   64.4011 H   0  0  0  0  0  0  0  0  0  0  0  0
  133.4310  125.7172   63.7184 H   0  0  0  0  0  0  0  0  0  0  0  0
  131.6262  123.8041   65.2700 H   0  0  0  0  0  0  0  0  0  0  0  0
  132.4218  125.2766   65.9401 H   0  0  0  0  0  0  0  0  0  0  0  0
  131.2660  126.6883   64.3597 H   0  0  0  0  0  0  0  0  0  0  0  0
  128.9942  127.8065   67.0309 H   0  0  0  0  0  0  0  0  0  0  0  0
  127.9325  126.4859   67.6406 H   0  0  0  0  0  0  0  0  0  0  0  0
  130.0959  126.7465   69.4964 H   0  0  0  0  0  0  0  0  0  0  0  0
  129.4750  128.4169   69.1238 H   0  0  0  0  0  0  0  0  0  0  0  0
  128.3957  127.1876   71.1158 H   0  0  0  0  0  0  0  0  0  0  0  0
  127.2964  127.9020   69.8878 H   0  0  0  0  0  0  0  0  0  0  0  0
  127.6153  126.1342   69.8878 H   0  0  0  0  0  0  0  0  0  0  0  0
  1  2  2  0
  2  3  1  0
  3  4  2  0
  5  3  1  6
  5  6  1  0
  6  7  1  0
  7  8  1  0
  8  9  2  0
  8 10  1  0
 10 11  1  0
  6 12  1  0
 12 13  1  0
 13 14  1  0
 14 15  1  0
 15 16  1  0
 16 17  1  1
 17 18  1  0
 18 19  1  0
 19 20  1  6
 19 21  1  0
 21 22  1  0
 21 23  1  0
 23 24  1  0
 24 25  1  0
 24 26  1  0
 24 27  1  0
 27 28  1  0
 28 29  1  0
 29 30  1  0
 30 31  1  0
 31 32  2  0
 31 33  2  0
 31 34  1  0
 34 35  1  0
 35 36  1  0
 12  2  1  0
 23 16  1  0
 15  5  1  0
 29 16  1  0
 19  5  1  0
  1 37  1  0
  1 38  1  0
  6 39  1  1
 10 40  1  0
 10 41  1  0
 11 42  1  0
 11 43  1  0
 12 44  1  6
 13 45  1  0
 13 46  1  0
 14 47  1  0
 14 48  1  0
 15 49  1  6
 17 50  1  0
 17 51  1  0
 20 52  1  0
 21 53  1  1
 22 54  1  0
 23 55  1  6
 25 56  1  0
 25 57  1  0
 25 58  1  0
 26 59  1  0
 26 60  1  0
 26 61  1  0
 27 62  1  0
 27 63  1  0
 28 64  1  0
 28 65  1  0
 29 66  1  6
 34 67  1  0
 34 68  1  0
 35 69  1  0
 35 70  1  0
 36 71  1  0
 36 72  1  0
 36 73  1  0
M  END
>  <Binding energies>  (1) 
[-6.68]

>  <Ligand effiencies>  (1) 
[-0.16699999999999998]

>  <Interactions>  (1) 
["V-A:ILE:369:CD1:3239, V-B:PRO:540:CA:9855, V-A:HIS:456:CE1:4070, V-B:GLU:543:C:9874, H-B:GLU:543:OE1:9881, H-B:TYR:539:OH:9850, V-B:GLU:543:CB:9878, H-B:ALA:541:N:9863, V-B:GLU:543:CD:9880, V-A:ARG:545:CZ:4926, V-A:GLU:543:CD:4908, V-B:PRO:540:CB:9857, V-A:LEU:475:CD2:4259, V-B:GLU:543:CG:9879, V-B:HIS:456:CE1:9041, H-A:TYR:484:OH:4348"]

$$$$
ZINC102059345
     RDKit          3D

 57 57  0  0  0  0  0  0  0  0999 V2000
  131.0600  128.0930   70.1400 C   0  0  0  0  0  0  0  0  0  0  0  0
  129.5720  128.2320   70.4890 C   0  0  0  0  0  0  0  0  0  0  0  0
  128.6840  127.2210   69.7420 C   0  0  0  0  0  0  0  0  0  0  0  0
  128.2390  127.7190   68.3560 C   0  0  0  0  0  0  0  0  0  0  0  0
  129.0300  127.0690   67.2060 C   0  0  0  0  0  0  0  0  0  0  0  0
  129.8310  125.8310   67.6500 C   0  0  0  0  0  0  0  0  0  0  0  0
  130.9550  125.4640   66.6640 C   0  0  0  0  0  0  0  0  0  0  0  0
  130.5450  124.3750   65.6570 C   0  0  0  0  0  0  0  0  0  0  0  0
  130.1190  124.9530   64.2960 C   0  0  0  0  0  0  0  0  0  0  0  0
  130.2890  123.9570   63.1350 C   0  0  0  0  0  0  0  0  0  0  0  0
  131.2580  122.8130   63.4730 C   0  0  0  0  0  0  0  0  0  0  0  0
  132.2820  122.5490   62.3560 C   0  0  0  0  0  0  0  0  0  0  0  0
  133.4970  124.0000   62.2060 S   0  0  0  0  0  0  0  0  0  0  0  0
  133.6000  124.6240   63.5300 O   0  0  0  0  0  0  0  0  0  0  0  0
  134.7180  123.5330   61.5390 O   0  0  0  0  0  0  0  0  0  0  0  0
  132.6970  125.1920   61.1020 C   0  0  0  0  0  0  0  0  0  0  0  0
  132.0580  126.2850   61.7000 C   0  0  0  0  0  0  0  0  0  0  0  0
  131.3670  127.2190   60.9330 C   0  0  0  0  0  0  0  0  0  0  0  0
  131.2970  127.0770   59.5510 C   0  0  0  0  0  0  0  0  0  0  0  0
  130.3970  128.2890   58.6190 S   0  0  0  0  0  0  0  0  0  0  0  0
  131.4520  129.7270   58.2680 C   0  0  0  0  0  0  0  0  0  0  0  0
  131.5540  130.5130   59.3390 F   0  0  0  0  0  0  0  0  0  0  0  0
  132.6770  129.3230   57.9330 F   0  0  0  0  0  0  0  0  0  0  0  0
  130.9610  130.4390   57.2550 F   0  0  0  0  0  0  0  0  0  0  0  0
  131.9340  125.9940   58.9410 C   0  0  0  0  0  0  0  0  0  0  0  0
  132.6450  125.0490   59.6940 C   0  0  0  0  0  0  0  0  0  0  0  0
  133.2960  123.9430   58.9660 N   0  0  0  0  0  0  0  0  0  0  0  0
  133.2140  122.8180   59.4500 O   0  0  0  0  0  0  0  0  0  0  0  0
  133.8470  124.1800   57.8980 O   0  0  0  0  0  0  0  0  0  0  0  0
  131.6503  128.0379   71.0665 H   0  0  0  0  0  0  0  0  0  0  0  0
  131.2146  127.1765   69.5517 H   0  0  0  0  0  0  0  0  0  0  0  0
  131.3816  128.9650   69.5517 H   0  0  0  0  0  0  0  0  0  0  0  0
  129.4492  128.0748   71.5707 H   0  0  0  0  0  0  0  0  0  0  0  0
  129.2541  129.2396   70.1828 H   0  0  0  0  0  0  0  0  0  0  0  0
  129.2493  126.2862   69.6135 H   0  0  0  0  0  0  0  0  0  0  0  0
  127.7760  127.0729   70.3450 H   0  0  0  0  0  0  0  0  0  0  0  0
  127.1721  127.4856   68.2246 H   0  0  0  0  0  0  0  0  0  0  0  0
  128.4277  128.8020   68.3170 H   0  0  0  0  0  0  0  0  0  0  0  0
  128.3215  126.7650   66.4214 H   0  0  0  0  0  0  0  0  0  0  0  0
  129.7522  127.8143   66.8414 H   0  0  0  0  0  0  0  0  0  0  0  0
  130.2790  126.0361   68.6335 H   0  0  0  0  0  0  0  0  0  0  0  0
  129.1336  124.9812   67.6892 H   0  0  0  0  0  0  0  0  0  0  0  0
  131.2392  126.3679   66.1053 H   0  0  0  0  0  0  0  0  0  0  0  0
  131.7919  125.0644   67.2556 H   0  0  0  0  0  0  0  0  0  0  0  0
  131.3999  123.7007   65.5007 H   0  0  0  0  0  0  0  0  0  0  0  0
  129.6786  123.8436   66.0776 H   0  0  0  0  0  0  0  0  0  0  0  0
  129.0597  125.2433   64.3555 H   0  0  0  0  0  0  0  0  0  0  0  0
  130.7718  125.8134   64.0872 H   0  0  0  0  0  0  0  0  0  0  0  0
  129.3060  123.5261   62.8940 H   0  0  0  0  0  0  0  0  0  0  0  0
  130.7108  124.5091   62.2822 H   0  0  0  0  0  0  0  0  0  0  0  0
  131.8013  123.0731   64.3934 H   0  0  0  0  0  0  0  0  0  0  0  0
  130.6598  121.8982   63.5966 H   0  0  0  0  0  0  0  0  0  0  0  0
  132.8420  121.6312   62.5886 H   0  0  0  0  0  0  0  0  0  0  0  0
  131.7452  122.4362   61.4025 H   0  0  0  0  0  0  0  0  0  0  0  0
  132.1027  126.4075   62.7922 H   0  0  0  0  0  0  0  0  0  0  0  0
  130.8745  128.0726   61.4217 H   0  0  0  0  0  0  0  0  0  0  0  0
  131.8767  125.8803   57.8484 H   0  0  0  0  0  0  0  0  0  0  0  0
  1  2  1  0
  2  3  1  0
  3  4  1  0
  4  5  1  0
  5  6  1  0
  6  7  1  0
  7  8  1  0
  8  9  1  0
  9 10  1  0
 10 11  1  0
 11 12  1  0
 12 13  1  0
 13 14  2  0
 13 15  2  0
 13 16  1  0
 16 17  2  0
 17 18  1  0
 18 19  2  0
 19 20  1  0
 20 21  1  0
 21 22  1  0
 21 23  1  0
 21 24  1  0
 19 25  1  0
 25 26  2  0
 26 27  1  0
 27 28  2  0
 27 29  1  0
 26 16  1  0
  1 30  1  0
  1 31  1  0
  1 32  1  0
  2 33  1  0
  2 34  1  0
  3 35  1  0
  3 36  1  0
  4 37  1  0
  4 38  1  0
  5 39  1  0
  5 40  1  0
  6 41  1  0
  6 42  1  0
  7 43  1  0
  7 44  1  0
  8 45  1  0
  8 46  1  0
  9 47  1  0
  9 48  1  0
 10 49  1  0
 10 50  1  0
 11 51  1  0
 11 52  1  0
 12 53  1  0
 12 54  1  0
 17 55  1  0
 18 56  1  0
 25 57  1  0
M  CHG  2  27   1  29  -1
M  END
>  <Binding energies>  (1) 
[-6.12]

>  <Ligand effiencies>  (1) 
[-0.2110344827586207]

>  <Interactions>  (1) 
["V-A:ILE:369:CG2:3237, V-A:ILE:369:CB:3236, V-A:GLU:543:C:4902, V-B:GLU:543:CB:9878, H-A:TYR:531:OH:4795, V-A:TYR:484:CE2:4346, V-B:TYR:539:CE2:9848, V-B:GLU:543:CG:9879, V-A:GLY:544:C:4912, V-A:ASP:366:CG:3213, V-B:TYR:539:CZ:9849, V-A:TYR:531:CE2:4793, H-B:TYR:539:OH:9850, V-A:TYR:484:CZ:4347, V-A:GLU:543:CD:4908, V-B:HIS:456:CE1:9041, H-A:GLY:454:N:4050, V-A:HIS:456:CE1:4070, V-A:TYR:531:CZ:4794, V-B:GLU:543:CD:9880, V-A:ASP:366:CB:3212, V-A:LEU:475:CD2:4259, H-A:ARG:545:NH2:4928, V-A:GLU:543:CB:4906"]

$$$$
ZINC102306417
     RDKit          3D

 63 68  0  0  0  0  0  0  0  0999 V2000
  133.9570  123.7000   62.9630 C   0  0  0  0  0  0  0  0  0  0  0  0
  133.2940  124.3610   61.7580 C   0  0  0  0  0  0  0  0  0  0  0  0
  133.8640  124.2300   60.5330 C   0  0  0  0  0  0  0  0  0  0  0  0
  133.2690  124.8420   59.3590 C   0  0  0  0  0  0  0  0  0  0  0  0
  132.1320  125.5410   59.5350 C   0  0  0  0  0  0  0  0  0  0  0  0
  131.4870  125.7220   60.7570 N   0  0  0  0  0  0  0  0  0  0  0  0
  130.3210  126.4680   60.7760 C   0  0  0  0  0  0  0  0  0  0  0  0
  129.7930  126.9840   59.7850 O   0  0  0  0  0  0  0  0  0  0  0  0
  129.7300  126.6140   62.1100 C   0  0  0  0  0  0  0  0  0  0  0  0
  128.5120  127.4170   62.2460 C   0  0  0  0  0  0  0  0  0  0  0  0
  128.3540  128.7380   61.9920 C   0  0  0  0  0  0  0  0  0  0  0  0
  126.8730  129.6420   62.2660 S   0  0  0  0  0  0  0  0  0  0  0  0
  127.6070  131.1310   61.7450 C   0  0  0  0  0  0  0  0  0  0  0  0
  126.7250  132.5470   61.8020 S   0  0  0  0  0  0  0  0  0  0  0  0
  128.8860  130.8780   61.3270 N   0  0  0  0  0  0  0  0  0  0  0  0
  129.7620  131.9670   60.8330 C   0  0  0  0  0  0  0  0  0  0  0  0
  131.2080  131.8110   61.2670 C   0  0  0  0  0  0  0  0  0  0  0  0
  132.3820  131.4850   60.6030 C   0  0  0  0  0  0  0  0  0  0  0  0
  133.4060  131.5020   61.5500 C   0  0  0  0  0  0  0  0  0  0  0  0
  132.8120  131.8340   62.7550 C   0  0  0  0  0  0  0  0  0  0  0  0
  131.4810  132.0320   62.5820 O   0  0  0  0  0  0  0  0  0  0  0  0
  129.3780  129.6190   61.4590 C   0  0  0  0  0  0  0  0  0  0  0  0
  130.5290  129.2920   61.1550 O   0  0  0  0  0  0  0  0  0  0  0  0
  130.3330  126.0070   63.1730 C   0  0  0  0  0  0  0  0  0  0  0  0
  129.8540  126.1200   64.4650 N   0  0  0  0  0  0  0  0  0  0  0  0
  129.7450  124.9690   65.3600 C   0  0  0  0  0  0  0  0  0  0  0  0
  129.8910  125.3790   66.8390 C   0  0  0  0  0  0  0  0  0  0  0  0
  129.0320  126.4900   67.2750 N   0  0  0  0  0  0  0  0  0  0  0  0
  128.7770  126.7410   68.6230 C   0  0  0  0  0  0  0  0  0  0  0  0
  127.4730  126.7120   69.1490 C   0  0  0  0  0  0  0  0  0  0  0  0
  127.2330  126.9780   70.4970 C   0  0  0  0  0  0  0  0  0  0  0  0
  128.2940  127.2850   71.3470 C   0  0  0  0  0  0  0  0  0  0  0  0
  129.5930  127.3250   70.8470 C   0  0  0  0  0  0  0  0  0  0  0  0
  130.9090  127.7150   71.8940 Cl  0  0  0  0  0  0  0  0  0  0  0  0
  129.8310  127.0570   69.4970 C   0  0  0  0  0  0  0  0  0  0  0  0
  129.0620  127.5990   66.3060 C   0  0  0  0  0  0  0  0  0  0  0  0
  128.9300  127.1930   64.8230 C   0  0  0  0  0  0  0  0  0  0  0  0
  131.4830  125.2800   63.0560 N   0  0  0  0  0  0  0  0  0  0  0  0
  132.0520  125.1360   61.9080 C   0  0  0  0  0  0  0  0  0  0  0  0
  133.5363  124.1194   63.8888 H   0  0  0  0  0  0  0  0  0  0  0  0
  133.7722  122.6160   62.9344 H   0  0  0  0  0  0  0  0  0  0  0  0
  135.0404  123.8881   62.9344 H   0  0  0  0  0  0  0  0  0  0  0  0
  134.7928  123.6501   60.4282 H   0  0  0  0  0  0  0  0  0  0  0  0
  133.7288  124.7388   58.3651 H   0  0  0  0  0  0  0  0  0  0  0  0
  131.6776  126.0044   58.6469 H   0  0  0  0  0  0  0  0  0  0  0  0
  127.6172  126.8820   62.5970 H   0  0  0  0  0  0  0  0  0  0  0  0
  129.7253  131.9744   59.7336 H   0  0  0  0  0  0  0  0  0  0  0  0
  129.3899  132.9083   61.2638 H   0  0  0  0  0  0  0  0  0  0  0  0
  132.4856  131.2563   59.5320 H   0  0  0  0  0  0  0  0  0  0  0  0
  134.4716  131.2934   61.3743 H   0  0  0  0  0  0  0  0  0  0  0  0
  133.3424  131.9243   63.7145 H   0  0  0  0  0  0  0  0  0  0  0  0
  128.7614  124.4980   65.2164 H   0  0  0  0  0  0  0  0  0  0  0  0
  130.5576  124.2685   65.1172 H   0  0  0  0  0  0  0  0  0  0  0  0
  129.6522  124.5023   67.4590 H   0  0  0  0  0  0  0  0  0  0  0  0
  130.9258  125.7340   66.9536 H   0  0  0  0  0  0  0  0  0  0  0  0
  126.6278  126.4755   68.4859 H   0  0  0  0  0  0  0  0  0  0  0  0
  126.2059  126.9455   70.8894 H   0  0  0  0  0  0  0  0  0  0  0  0
  128.1057  127.4952   72.4102 H   0  0  0  0  0  0  0  0  0  0  0  0
  130.8606  127.0939   69.1116 H   0  0  0  0  0  0  0  0  0  0  0  0
  128.2321  128.2801   66.5455 H   0  0  0  0  0  0  0  0  0  0  0  0
  130.0569  128.0578   66.4048 H   0  0  0  0  0  0  0  0  0  0  0  0
  127.9007  126.8516   64.6386 H   0  0  0  0  0  0  0  0  0  0  0  0
  129.1743  128.0712   64.2073 H   0  0  0  0  0  0  0  0  0  0  0  0
  1  2  1  0
  2  3  2  0
  3  4  1  0
  4  5  2  0
  5  6  1  0
  6  7  1  0
  7  8  2  0
  7  9  1  0
  9 10  1  0
 10 11  2  0
 11 12  1  0
 12 13  1  0
 13 14  2  0
 13 15  1  0
 15 16  1  0
 16 17  1  0
 17 18  2  0
 18 19  1  0
 19 20  2  0
 20 21  1  0
 15 22  1  0
 22 23  2  0
  9 24  2  0
 24 25  1  0
 25 26  1  0
 26 27  1  0
 27 28  1  0
 28 29  1  0
 29 30  2  0
 30 31  1  0
 31 32  2  0
 32 33  1  0
 33 34  1  0
 33 35  2  0
 28 36  1  0
 36 37  1  0
 24 38  1  0
 38 39  2  0
 39  2  1  0
 39  6  1  0
 22 11  1  0
 37 25  1  0
 21 17  1  0
 35 29  1  0
  1 40  1  0
  1 41  1  0
  1 42  1  0
  3 43  1  0
  4 44  1  0
  5 45  1  0
 10 46  1  0
 16 47  1  0
 16 48  1  0
 18 49  1  0
 19 50  1  0
 20 51  1  0
 26 52  1  0
 26 53  1  0
 27 54  1  0
 27 55  1  0
 30 56  1  0
 31 57  1  0
 32 58  1  0
 35 59  1  0
 36 60  1  0
 36 61  1  0
 37 62  1  0
 37 63  1  0
M  END
>  <Binding energies>  (1) 
[-8.66]

>  <Ligand effiencies>  (1) 
[-0.22205128205128205]

>  <Interactions>  (1) 
["V-A:ILE:369:CG2:3237, V-A:ASP:366:CA:3210, V-A:ALA:541:C:4888, V-A:GLY:454:CA:4049, V-B:GLU:543:C:9874, V-B:HIS:456:CD2:9039, H-A:ALA:541:N:4891, V-B:GLU:543:CB:9878, V-B:GLU:543:CG:9879, V-A:GLY:544:C:4912, V-A:ASP:366:CG:3213, V-A:HIS:456:CD2:4068, V-A:ASN:362:CB:3176, V-A:GLU:543:CD:4908, V-B:HIS:456:CE1:9041, V-B:GLU:543:CA:9876, V-A:GLY:453:C:4042, V-A:ILE:369:CD1:3239, V-A:HIS:456:CE1:4070, V-B:GLY:544:C:9884, V-B:GLY:544:CA:9886, V-A:GLU:543:CG:4907, V-B:GLU:543:CD:9880, V-A:ASP:366:CB:3212, H-A:ARG:545:NH2:4928, V-A:ASN:362:C:3172, V-A:GLU:543:CB:4906, V-A:PRO:540:CB:4885, V-A:PRO:540:CA:4883"]

$$$$
ZINC102411132
     RDKit          3D

 72 77  0  0  0  0  0  0  0  0999 V2000
  129.8630  131.1520   73.2700 C   0  0  0  0  0  0  0  0  0  0  0  0
  130.3380  129.9030   72.7810 O   0  0  0  0  0  0  0  0  0  0  0  0
  129.4390  128.9930   72.2540 C   0  0  0  0  0  0  0  0  0  0  0  0
  129.4470  128.5660   70.9160 C   0  0  0  0  0  0  0  0  0  0  0  0
  128.5100  127.6400   70.4500 C   0  0  0  0  0  0  0  0  0  0  0  0
  128.5190  127.1810   68.9890 C   0  0  2  0  0  0  0  0  0  0  0  0
  129.4230  125.9510   68.7560 C   0  0  0  0  0  0  0  0  0  0  0  0
  129.4750  125.5210   67.2780 C   0  0  0  0  0  0  0  0  0  0  0  0
  129.9130  124.4100   66.9810 O   0  0  0  0  0  0  0  0  0  0  0  0
  129.1140  126.5270   66.2450 C   0  0  0  0  0  0  0  0  0  0  0  0
  128.8560  127.8280   66.5890 C   0  0  0  0  0  0  0  0  0  0  0  0
  128.8970  128.3320   68.0320 C   0  0  0  0  0  0  0  0  0  0  0  0
  128.3880  128.7690   65.6840 N   0  0  0  0  0  0  0  0  0  0  0  0
  128.1840  128.3870   64.3800 C   0  0  0  0  0  0  0  0  0  0  0  0
  128.4900  127.1290   63.8950 C   0  0  0  0  0  0  0  0  0  0  0  0
  128.0970  127.1860   62.5450 C   0  0  0  0  0  0  0  0  0  0  0  0
  128.1870  126.1110   61.4880 C   0  0  0  0  0  0  0  0  0  0  0  0
  127.6010  128.3660   62.2280 N   0  0  0  0  0  0  0  0  0  0  0  0
  127.6360  129.1050   63.3490 N   0  0  0  0  0  0  0  0  0  0  0  0
  127.1880  130.4470   63.3480 C   0  0  0  0  0  0  0  0  0  0  0  0
  125.8700  130.6820   63.7610 C   0  0  0  0  0  0  0  0  0  0  0  0
  125.3640  131.9780   63.8140 C   0  0  0  0  0  0  0  0  0  0  0  0
  126.1710  133.0540   63.4530 C   0  0  0  0  0  0  0  0  0  0  0  0
  127.4800  132.8320   63.0290 C   0  0  0  0  0  0  0  0  0  0  0  0
  128.0120  131.5350   62.9600 C   0  0  0  0  0  0  0  0  0  0  0  0
  129.4100  131.3580   62.4430 C   0  0  0  0  0  0  0  0  0  0  0  0
  130.2630  132.2120   62.7780 O   0  0  0  0  0  0  0  0  0  0  0  0
  129.6290  130.3740   61.7000 O   0  0  0  0  0  0  0  0  0  0  0  0
  129.1460  126.0530   64.7620 C   0  0  1  0  0  0  0  0  0  0  0  0
  130.5490  125.7100   64.2460 C   0  0  0  0  0  0  0  0  0  0  0  0
  131.5820  125.4300   65.1480 C   0  0  0  0  0  0  0  0  0  0  0  0
  132.8560  125.1190   64.6810 C   0  0  0  0  0  0  0  0  0  0  0  0
  133.1000  125.0860   63.3100 C   0  0  0  0  0  0  0  0  0  0  0  0
  134.6790  124.7000   62.7300 Cl  0  0  0  0  0  0  0  0  0  0  0  0
  132.0790  125.3640   62.4020 C   0  0  0  0  0  0  0  0  0  0  0  0
  130.8050  125.6750   62.8700 C   0  0  0  0  0  0  0  0  0  0  0  0
  127.5410  127.1510   71.3300 C   0  0  0  0  0  0  0  0  0  0  0  0
  127.5050  127.5650   72.6710 C   0  0  0  0  0  0  0  0  0  0  0  0
  126.5700  127.1240   73.5900 O   0  0  0  0  0  0  0  0  0  0  0  0
  125.7080  128.0670   74.2200 C   0  0  0  0  0  0  0  0  0  0  0  0
  128.4680  128.4770   73.1230 C   0  0  0  0  0  0  0  0  0  0  0  0
  128.4400  128.8960   74.4330 O   0  0  0  0  0  0  0  0  0  0  0  0
  129.1120  128.0240   75.3310 C   0  0  0  0  0  0  0  0  0  0  0  0
  129.8673  131.1407   74.3699 H   0  0  0  0  0  0  0  0  0  0  0  0
  130.5167  131.9597   72.9090 H   0  0  0  0  0  0  0  0  0  0  0  0
  128.8378  131.3212   72.9090 H   0  0  0  0  0  0  0  0  0  0  0  0
  130.2026  128.9667   70.2242 H   0  0  0  0  0  0  0  0  0  0  0  0
  127.4889  126.8703   68.7600 H   0  0  0  0  0  0  0  0  0  0  0  0
  130.4429  126.1965   69.0869 H   0  0  0  0  0  0  0  0  0  0  0  0
  128.9986  125.1141   69.3300 H   0  0  0  0  0  0  0  0  0  0  0  0
  129.9110  128.6872   68.2679 H   0  0  0  0  0  0  0  0  0  0  0  0
  128.1820  129.1592   68.1523 H   0  0  0  0  0  0  0  0  0  0  0  0
  128.3730  129.7440   65.9480 H   0  0  0  0  0  0  0  0  0  0  0  0
  128.2694  125.1267   61.9722 H   0  0  0  0  0  0  0  0  0  0  0  0
  127.2836  126.1367   60.8610 H   0  0  0  0  0  0  0  0  0  0  0  0
  129.0736  126.2866   60.8610 H   0  0  0  0  0  0  0  0  0  0  0  0
  125.2290  129.8347   64.0460 H   0  0  0  0  0  0  0  0  0  0  0  0
  124.3281  132.1518   64.1406 H   0  0  0  0  0  0  0  0  0  0  0  0
  125.7753  134.0792   63.5025 H   0  0  0  0  0  0  0  0  0  0  0  0
  128.1077  133.6890   62.7432 H   0  0  0  0  0  0  0  0  0  0  0  0
  128.5854  125.1084   64.7029 H   0  0  0  0  0  0  0  0  0  0  0  0
  131.3864  125.4558   66.2302 H   0  0  0  0  0  0  0  0  0  0  0  0
  133.6666  124.9002   65.3917 H   0  0  0  0  0  0  0  0  0  0  0  0
  132.2791  125.3377   61.3207 H   0  0  0  0  0  0  0  0  0  0  0  0
  129.9971  125.8939   62.1563 H   0  0  0  0  0  0  0  0  0  0  0  0
  126.7942  126.4299   70.9661 H   0  0  0  0  0  0  0  0  0  0  0  0
  125.7956  127.9712   75.3123 H   0  0  0  0  0  0  0  0  0  0  0  0
  125.9943  129.0850   73.9171 H   0  0  0  0  0  0  0  0  0  0  0  0
  124.6685  127.8730   73.9171 H   0  0  0  0  0  0  0  0  0  0  0  0
  128.8853  128.3182   76.3664 H   0  0  0  0  0  0  0  0  0  0  0  0
  128.7741  126.9911   75.1609 H   0  0  0  0  0  0  0  0  0  0  0  0
  130.1969  128.0876   75.1609 H   0  0  0  0  0  0  0  0  0  0  0  0
  1  2  1  0
  2  3  1  0
  3  4  2  0
  4  5  1  0
  5  6  1  0
  6  7  1  0
  7  8  1  0
  8  9  2  0
  8 10  1  0
 10 11  2  0
 11 12  1  0
 11 13  1  0
 13 14  1  0
 14 15  2  0
 15 16  1  0
 16 17  1  0
 16 18  2  0
 18 19  1  0
 19 20  1  0
 20 21  2  0
 21 22  1  0
 22 23  2  0
 23 24  1  0
 24 25  2  0
 25 26  1  0
 26 27  2  0
 26 28  1  0
 15 29  1  0
 29 30  1  0
 30 31  2  0
 31 32  1  0
 32 33  2  0
 33 34  1  0
 33 35  1  0
 35 36  2  0
  5 37  2  0
 37 38  1  0
 38 39  1  0
 39 40  1  0
 38 41  2  0
 41 42  1  0
 42 43  1  0
 41  3  1  0
 12  6  1  0
 19 14  1  0
 25 20  1  0
 36 30  1  0
 29 10  1  0
  1 44  1  0
  1 45  1  0
  1 46  1  0
  4 47  1  0
  6 48  1  6
  7 49  1  0
  7 50  1  0
 12 51  1  0
 12 52  1  0
 13 53  1  0
 17 54  1  0
 17 55  1  0
 17 56  1  0
 21 57  1  0
 22 58  1  0
 23 59  1  0
 24 60  1  0
 29 61  1  1
 31 62  1  0
 32 63  1  0
 35 64  1  0
 36 65  1  0
 37 66  1  0
 40 67  1  0
 40 68  1  0
 40 69  1  0
 43 70  1  0
 43 71  1  0
 43 72  1  0
M  CHG  1  28  -1
M  END
>  <Binding energies>  (1) 
[-7.85]

>  <Ligand effiencies>  (1) 
[-0.1784090909090909]

>  <Interactions>  (1) 
["V-B:GLU:543:C:9874, H-A:GLU:543:OE2:4910, V-B:HIS:456:CD2:9039, H-A:ALA:541:N:4891, V-A:GLU:543:C:4902, V-B:GLU:543:CB:9878, H-B:LYS:547:NZ:9923, V-B:HIS:456:CB:9036, V-A:GLY:544:CA:4914, V-B:GLU:543:CG:9879, V-B:LEU:475:CD2:9230, V-A:ALA:541:CB:4892, V-B:LYS:547:CE:9922, V-A:GLU:543:CD:4908, H-B:TYR:484:OH:9319, V-B:GLY:454:CA:9020, V-B:HIS:456:CE1:9041, V-B:GLU:543:CA:9876, V-A:GLY:453:C:4042, V-A:HIS:456:CE1:4070, V-A:ILE:369:CD1:3239, V-B:GLY:544:C:9884, V-A:GLU:543:CG:4907, V-B:GLU:543:CD:9880, V-B:HIS:456:CG:9037, H-A:LYS:547:NZ:4951, V-A:ARG:545:CZ:4926, H-A:GLU:543:OE1:4909, V-A:GLU:543:CB:4906, V-A:GLY:453:CA:4044, V-A:LYS:547:CE:4950, H-A:TYR:484:OH:4348"]

$$$$
ZINC102453838
     RDKit          3D

 59 63  0  0  0  0  0  0  0  0999 V2000
  130.2260  119.6730   61.5380 N   0  0  0  0  0  0  0  0  0  0  0  0
  131.2670  119.5500   60.6600 C   0  0  0  0  0  0  0  0  0  0  0  0
  131.2410  118.6570   59.7040 N   0  0  0  0  0  0  0  0  0  0  0  0
  132.4520  118.8330   59.0320 O   0  0  0  0  0  0  0  0  0  0  0  0
  133.2120  119.8540   59.6000 N   0  0  0  0  0  0  0  0  0  0  0  0
  132.4610  120.2670   60.5870 C   0  0  0  0  0  0  0  0  0  0  0  0
  132.8100  121.2960   61.4270 N   0  0  0  0  0  0  0  0  0  0  0  0
  134.0750  121.4010   61.8280 N   0  0  0  0  0  0  0  0  0  0  0  0
  134.1300  122.5180   62.6330 N   0  0  0  0  0  0  0  0  0  0  0  0
  132.9250  123.0750   62.7040 C   0  0  0  0  0  0  0  0  0  0  0  0
  132.5980  124.2420   63.5040 C   0  0  0  0  0  0  0  0  0  0  0  0
  133.2700  124.5480   64.4930 O   0  0  0  0  0  0  0  0  0  0  0  0
  131.5220  124.9370   63.0770 N   0  0  0  0  0  0  0  0  0  0  0  0
  131.0900  126.0510   63.6990 N   0  0  0  0  0  0  0  0  0  0  0  0
  129.8250  126.0850   63.8380 C   0  0  0  0  0  0  0  0  0  0  0  0
  129.1100  127.1990   64.4750 C   0  0  0  0  0  0  0  0  0  0  0  0
  128.9400  127.2010   65.8670 C   0  0  0  0  0  0  0  0  0  0  0  0
  128.2710  128.2470   66.5050 C   0  0  0  0  0  0  0  0  0  0  0  0
  127.7580  129.3040   65.7600 C   0  0  0  0  0  0  0  0  0  0  0  0
  127.9020  129.3160   64.3700 C   0  0  0  0  0  0  0  0  0  0  0  0
  127.4150  130.3630   63.6190 O   0  0  0  0  0  0  0  0  0  0  0  0
  128.0720  131.5650   63.6140 C   0  0  0  0  0  0  0  0  0  0  0  0
  128.3360  132.2140   64.6320 O   0  0  0  0  0  0  0  0  0  0  0  0
  128.4410  132.0250   62.2320 C   0  0  0  0  0  0  0  0  0  0  0  0
  127.5650  132.7860   61.4440 C   0  0  0  0  0  0  0  0  0  0  0  0
  127.9420  133.2060   60.1720 C   0  0  0  0  0  0  0  0  0  0  0  0
  129.2000  132.8750   59.6530 C   0  0  0  0  0  0  0  0  0  0  0  0
  129.6000  133.3240   58.2960 N   0  0  0  0  0  0  0  0  0  0  0  0
  130.7910  133.2970   57.9950 O   0  0  0  0  0  0  0  0  0  0  0  0
  128.7280  133.7060   57.5220 O   0  0  0  0  0  0  0  0  0  0  0  0
  130.0740  132.1130   60.4400 C   0  0  0  0  0  0  0  0  0  0  0  0
  129.6990  131.6940   61.7140 C   0  0  0  0  0  0  0  0  0  0  0  0
  128.5860  128.2740   63.7380 C   0  0  0  0  0  0  0  0  0  0  0  0
  132.0260  122.3140   61.9290 C   0  0  0  0  0  0  0  0  0  0  0  0
  130.5710  122.4720   61.6170 C   0  0  0  0  0  0  0  0  0  0  0  0
  129.6300  122.4680   62.6500 C   0  0  0  0  0  0  0  0  0  0  0  0
  128.2750  122.6210   62.3660 C   0  0  0  0  0  0  0  0  0  0  0  0
  127.8510  122.7820   61.0480 C   0  0  0  0  0  0  0  0  0  0  0  0
  128.7750  122.7860   59.9930 C   0  0  0  0  0  0  0  0  0  0  0  0
  128.3280  122.9560   58.5900 N   0  0  0  0  0  0  0  0  0  0  0  0
  127.5990  122.0980   58.0970 O   0  0  0  0  0  0  0  0  0  0  0  0
  128.7020  123.9470   57.9690 O   0  0  0  0  0  0  0  0  0  0  0  0
  130.1360  122.6270   60.2970 C   0  0  0  0  0  0  0  0  0  0  0  0
  129.2800  119.4290   61.2810 H   0  0  0  0  0  0  0  0  0  0  0  0
  130.3670  120.0240   62.4750 H   0  0  0  0  0  0  0  0  0  0  0  0
  130.9920  124.6520   62.2650 H   0  0  0  0  0  0  0  0  0  0  0  0
  129.2364  125.2355   63.4613 H   0  0  0  0  0  0  0  0  0  0  0  0
  129.3390  126.3676   66.4639 H   0  0  0  0  0  0  0  0  0  0  0  0
  128.1493  128.2355   67.5982 H   0  0  0  0  0  0  0  0  0  0  0  0
  127.2384  130.1313   66.2656 H   0  0  0  0  0  0  0  0  0  0  0  0
  126.5720  133.0530   61.8347 H   0  0  0  0  0  0  0  0  0  0  0  0
  127.2444  133.8044   59.5676 H   0  0  0  0  0  0  0  0  0  0  0  0
  131.0656  131.8433   60.0477 H   0  0  0  0  0  0  0  0  0  0  0  0
  130.3976  131.0974   62.3190 H   0  0  0  0  0  0  0  0  0  0  0  0
  128.7162  128.2960   62.6459 H   0  0  0  0  0  0  0  0  0  0  0  0
  129.9607  122.3435   63.6917 H   0  0  0  0  0  0  0  0  0  0  0  0
  127.5385  122.6148   63.1830 H   0  0  0  0  0  0  0  0  0  0  0  0
  126.7795  122.9073   60.8329 H   0  0  0  0  0  0  0  0  0  0  0  0
  130.8743  122.6243   59.4816 H   0  0  0  0  0  0  0  0  0  0  0  0
  1  2  1  0
  2  3  2  0
  3  4  1  0
  4  5  1  0
  5  6  2  0
  6  7  1  0
  7  8  1  0
  8  9  2  0
  9 10  1  0
 10 11  1  0
 11 12  2  0
 11 13  1  0
 13 14  1  0
 14 15  2  0
 15 16  1  0
 16 17  2  0
 17 18  1  0
 18 19  2  0
 19 20  1  0
 20 21  1  0
 21 22  1  0
 22 23  2  0
 22 24  1  0
 24 25  2  0
 25 26  1  0
 26 27  2  0
 27 28  1  0
 28 29  2  0
 28 30  1  0
 27 31  1  0
 31 32  2  0
 20 33  2  0
 10 34  2  0
 34 35  1  0
 35 36  2  0
 36 37  1  0
 37 38  2  0
 38 39  1  0
 39 40  1  0
 40 41  2  0
 40 42  1  0
 39 43  2  0
  6  2  1  0
 34  7  1  0
 43 35  1  0
 33 16  1  0
 32 24  1  0
  1 44  1  0
  1 45  1  0
 13 46  1  0
 15 47  1  0
 17 48  1  0
 18 49  1  0
 19 50  1  0
 25 51  1  0
 26 52  1  0
 31 53  1  0
 32 54  1  0
 33 55  1  0
 36 56  1  0
 37 57  1  0
 38 58  1  0
 43 59  1  0
M  CHG  4  28   1  30  -1  40   1  42  -1
M  END
>  <Binding energies>  (1) 
[-11.28]

>  <Ligand effiencies>  (1) 
[-0.2452173913043478]

>  <Interactions>  (1) 
["V-A:ILE:369:CG2:3237, V-B:PRO:540:CA:9855, V-B:GLU:543:CB:9878, V-B:ALA:541:CB:9864, V-B:TYR:539:CE2:9848, V-B:GLU:543:CG:9879, V-B:TYR:539:C:9839, V-A:TYR:539:CD1:4873, V-B:TYR:539:CZ:9849, H-B:TYR:539:OH:9850, V-A:TYR:539:CA:4869, V-A:GLU:543:CD:4908, H-B:TYR:484:OH:9319, H-A:GLY:454:N:4050, V-B:PRO:540:N:9856, V-B:TYR:539:CD2:9846, V-A:GLU:543:CG:4907, V-A:SER:385:CB:3409, H-A:SER:385:OG:3410, V-B:GLU:543:CD:9880, V-A:TYR:539:C:4867, V-A:LEU:475:CD2:4259, H-A:ARG:545:NH2:4928, V-A:GLU:543:CB:4906, H-A:HIS:383:HE2:3395, V-A:PRO:540:N:4884, H-A:TYR:539:N:4870, V-A:PRO:540:CB:4885, V-A:PRO:540:CA:4883, H-B:TYR:539:O:9840, V-B:PRO:540:C:9853, V-B:ALA:541:CA:9862, V-A:TYR:539:CE1:4875, H-A:TYR:484:OH:4348"]

$$$$
ZINC102470368
     RDKit          3D

 51 55  0  0  0  0  0  0  0  0999 V2000
  128.3530  129.6320   62.0670 H   0  0  0  0  0  0  0  0  0  0  0  0
  128.4450  128.7430   62.5380 N   0  0  0  0  0  0  0  0  0  0  0  0
  129.1800  127.9310   61.8980 C   0  0  0  0  0  0  0  0  0  0  0  0
  129.5110  126.5460   62.3070 C   0  0  0  0  0  0  0  0  0  0  0  0
  129.4450  126.1190   63.6030 C   0  0  0  0  0  0  0  0  0  0  0  0
  129.1010  126.8190   64.8350 C   0  0  0  0  0  0  0  0  0  0  0  0
  128.3690  128.0030   64.9660 C   0  0  0  0  0  0  0  0  0  0  0  0
  128.2700  128.3550   66.2990 C   0  0  0  0  0  0  0  0  0  0  0  0
  127.5800  129.5390   66.9450 C   0  0  0  0  0  0  0  0  0  0  0  0
  128.9700  127.4040   67.0180 N   0  0  0  0  0  0  0  0  0  0  0  0
  129.1260  127.3850   68.4210 C   0  0  0  0  0  0  0  0  0  0  0  0
  128.0560  126.9990   69.2300 C   0  0  0  0  0  0  0  0  0  0  0  0
  128.2090  126.9770   70.6130 C   0  0  0  0  0  0  0  0  0  0  0  0
  129.4300  127.3380   71.2020 C   0  0  0  0  0  0  0  0  0  0  0  0
  129.5920  127.3130   72.6770 N   0  0  0  0  0  0  0  0  0  0  0  0
  129.2080  126.3230   73.2950 O   0  0  0  0  0  0  0  0  0  0  0  0
  130.1030  128.2820   73.2290 O   0  0  0  0  0  0  0  0  0  0  0  0
  130.4960  127.7260   70.3750 C   0  0  0  0  0  0  0  0  0  0  0  0
  130.3460  127.7500   68.9920 C   0  0  0  0  0  0  0  0  0  0  0  0
  129.4940  126.4760   66.1280 C   0  0  0  0  0  0  0  0  0  0  0  0
  130.3210  125.2940   66.6020 C   0  0  0  0  0  0  0  0  0  0  0  0
  130.0000  125.5640   61.2960 C   0  0  0  0  0  0  0  0  0  0  0  0
  129.8480  124.3590   61.5080 O   0  0  0  0  0  0  0  0  0  0  0  0
  130.5920  126.1060   60.1370 N   0  0  0  0  0  0  0  0  0  0  0  0
  130.4540  127.3450   59.8540 C   0  0  0  0  0  0  0  0  0  0  0  0
  131.0900  128.1660   58.4230 S   0  0  0  0  0  0  0  0  0  0  0  0
  130.3440  129.7130   59.0180 C   0  0  0  0  0  0  0  0  0  0  0  0
  130.4690  130.9610   58.2360 C   0  0  0  0  0  0  0  0  0  0  0  0
  131.6970  131.3680   57.6850 C   0  0  0  0  0  0  0  0  0  0  0  0
  131.7560  132.5580   56.9560 C   0  0  0  0  0  0  0  0  0  0  0  0
  130.6760  133.3520   56.7480 N   0  0  0  0  0  0  0  0  0  0  0  0
  129.4940  132.9570   57.2820 C   0  0  0  0  0  0  0  0  0  0  0  0
  129.3480  131.7840   58.0240 C   0  0  0  0  0  0  0  0  0  0  0  0
  129.7280  129.6000   60.1310 N   0  0  0  0  0  0  0  0  0  0  0  0
  129.7740  128.2970   60.6390 N   0  0  0  0  0  0  0  0  0  0  0  0
  129.6963  125.0572   63.7420 H   0  0  0  0  0  0  0  0  0  0  0  0
  127.9352  128.5715   64.1302 H   0  0  0  0  0  0  0  0  0  0  0  0
  127.6357  129.4435   68.0394 H   0  0  0  0  0  0  0  0  0  0  0  0
  128.0777  130.4688   66.6323 H   0  0  0  0  0  0  0  0  0  0  0  0
  126.5257  129.5644   66.6323 H   0  0  0  0  0  0  0  0  0  0  0  0
  127.0956  126.7133   68.7761 H   0  0  0  0  0  0  0  0  0  0  0  0
  127.3650  126.6738   71.2500 H   0  0  0  0  0  0  0  0  0  0  0  0
  131.4580  128.0135   70.8242 H   0  0  0  0  0  0  0  0  0  0  0  0
  131.1860  128.0556   68.3509 H   0  0  0  0  0  0  0  0  0  0  0  0
  130.3351  125.2738   67.7017 H   0  0  0  0  0  0  0  0  0  0  0  0
  129.8776  124.3611   66.2238 H   0  0  0  0  0  0  0  0  0  0  0  0
  131.3494  125.3908   66.2238 H   0  0  0  0  0  0  0  0  0  0  0  0
  132.6004  130.7565   57.8264 H   0  0  0  0  0  0  0  0  0  0  0  0
  132.7229  132.8655   56.5310 H   0  0  0  0  0  0  0  0  0  0  0  0
  128.6089  133.5905   57.1230 H   0  0  0  0  0  0  0  0  0  0  0  0
  128.3676  131.5062   58.4383 H   0  0  0  0  0  0  0  0  0  0  0  0
  1  2  1  0
  2  3  2  0
  3  4  1  0
  4  5  2  0
  5  6  1  0
  6  7  1  0
  7  8  2  0
  8  9  1  0
  8 10  1  0
 10 11  1  0
 11 12  2  0
 12 13  1  0
 13 14  2  0
 14 15  1  0
 15 16  2  0
 15 17  1  0
 14 18  1  0
 18 19  2  0
 10 20  1  0
 20 21  1  0
  4 22  1  0
 22 23  2  0
 22 24  1  0
 24 25  2  0
 25 26  1  0
 26 27  1  0
 27 28  1  0
 28 29  2  0
 29 30  1  0
 30 31  2  0
 31 32  1  0
 32 33  2  0
 27 34  2  0
 34 35  1  0
 35  3  1  0
 20  6  2  0
 35 25  1  0
 19 11  1  0
 33 28  1  0
  5 36  1  0
  7 37  1  0
  9 38  1  0
  9 39  1  0
  9 40  1  0
 12 41  1  0
 13 42  1  0
 18 43  1  0
 19 44  1  0
 21 45  1  0
 21 46  1  0
 21 47  1  0
 29 48  1  0
 30 49  1  0
 32 50  1  0
 33 51  1  0
M  CHG  2  15   1  17  -1
M  END
>  <Binding energies>  (1) 
[-9.39]

>  <Ligand effiencies>  (1) 
[-0.2682857142857143]

>  <Interactions>  (1) 
["V-B:GLU:543:C:9874, V-A:GLU:543:C:4902, V-B:GLU:543:CB:9878, H-B:LYS:547:NZ:9923, V-A:ILE:538:CB:4862, H-A:TYR:531:OH:4795, V-B:GLU:543:CG:9879, V-A:LEU:363:CD1:3189, V-B:TYR:484:CE2:9317, V-A:GLU:543:CD:4908, V-B:HIS:456:CE1:9041, V-A:HIS:456:CE1:4070, V-B:TYR:484:CZ:9318, V-A:GLU:543:CG:4907, V-B:GLU:543:CD:9880, V-A:TYR:539:C:4867, H-A:LYS:547:NZ:4951, H-A:GLU:543:OE1:4909, V-A:GLU:543:CB:4906, V-A:PRO:540:N:4884, H-A:TYR:539:N:4870, V-A:PRO:540:CB:4885, V-A:PRO:540:CD:4887"]

$$$$
ZINC102500416
     RDKit          3D

 38 40  0  0  0  0  0  0  0  0999 V2000
  127.3030  123.4360   57.5180 C   0  0  0  0  0  0  0  0  0  0  0  0
  127.6960  123.2660   58.9710 C   0  0  0  0  0  0  0  0  0  0  0  0
  126.8750  123.2520   60.0340 C   0  0  0  0  0  0  0  0  0  0  0  0
  127.4360  123.0750   61.3640 C   0  0  0  0  0  0  0  0  0  0  0  0
  126.5610  123.0380   62.4090 O   0  0  0  0  0  0  0  0  0  0  0  0
  128.7910  122.9320   61.5160 C   0  0  0  0  0  0  0  0  0  0  0  0
  129.3770  122.7560   62.8580 C   0  0  0  0  0  0  0  0  0  0  0  0
  130.1660  121.8340   63.0840 O   0  0  0  0  0  0  0  0  0  0  0  0
  129.0220  123.7420   63.8810 C   0  0  0  0  0  0  0  0  0  0  0  0
  129.9400  124.4270   64.5950 C   0  0  0  0  0  0  0  0  0  0  0  0
  129.6730  125.4200   65.6210 C   0  0  0  0  0  0  0  0  0  0  0  0
  129.1050  126.6800   65.4630 C   0  0  0  0  0  0  0  0  0  0  0  0
  128.9940  127.3870   66.6640 C   0  0  0  0  0  0  0  0  0  0  0  0
  129.4650  126.6890   67.7760 C   0  0  0  0  0  0  0  0  0  0  0  0
  129.5210  127.1280   69.2100 C   0  0  0  0  0  0  0  0  0  0  0  0
  130.6870  127.7380   69.6880 C   0  0  0  0  0  0  0  0  0  0  0  0
  130.7720  128.1610   71.0120 C   0  0  0  0  0  0  0  0  0  0  0  0
  129.6870  127.9800   71.8650 C   0  0  0  0  0  0  0  0  0  0  0  0
  129.7680  128.3920   73.1510 F   0  0  0  0  0  0  0  0  0  0  0  0
  128.5190  127.3790   71.4040 C   0  0  0  0  0  0  0  0  0  0  0  0
  128.4360  126.9540   70.0810 C   0  0  0  0  0  0  0  0  0  0  0  0
  130.0650  125.1220   67.2860 S   0  0  0  0  0  0  0  0  0  0  0  0
  129.6790  122.9510   60.3170 C   0  0  0  0  0  0  0  0  0  0  0  0
  130.9040  122.8400   60.2650 O   0  0  0  0  0  0  0  0  0  0  0  0
  129.0420  123.1180   59.1020 O   0  0  0  0  0  0  0  0  0  0  0  0
  126.2948  123.8721   57.4595 H   0  0  0  0  0  0  0  0  0  0  0  0
  128.0210  124.1040   57.0197 H   0  0  0  0  0  0  0  0  0  0  0  0
  127.3078  122.4553   57.0197 H   0  0  0  0  0  0  0  0  0  0  0  0
  125.7899  123.3731   59.9000 H   0  0  0  0  0  0  0  0  0  0  0  0
  126.4350  123.9260   62.7530 H   0  0  0  0  0  0  0  0  0  0  0  0
  127.9566  123.9334   64.0768 H   0  0  0  0  0  0  0  0  0  0  0  0
  130.9967  124.2116   64.3781 H   0  0  0  0  0  0  0  0  0  0  0  0
  128.7767  127.0794   64.4921 H   0  0  0  0  0  0  0  0  0  0  0  0
  128.5734  128.4015   66.7263 H   0  0  0  0  0  0  0  0  0  0  0  0
  131.5427  127.8843   69.0124 H   0  0  0  0  0  0  0  0  0  0  0  0
  131.6925  128.6361   71.3822 H   0  0  0  0  0  0  0  0  0  0  0  0
  127.6646  127.2404   72.0828 H   0  0  0  0  0  0  0  0  0  0  0  0
  127.5134  126.4786   69.7165 H   0  0  0  0  0  0  0  0  0  0  0  0
  1  2  1  0
  2  3  2  0
  3  4  1  0
  4  5  1  0
  4  6  2  0
  6  7  1  0
  7  8  2  0
  7  9  1  0
  9 10  2  0
 10 11  1  0
 11 12  2  0
 12 13  1  0
 13 14  2  0
 14 15  1  0
 15 16  2  0
 16 17  1  0
 17 18  2  0
 18 19  1  0
 18 20  1  0
 20 21  2  0
 14 22  1  0
  6 23  1  0
 23 24  2  0
 23 25  1  0
 25  2  1  0
 22 11  1  0
 21 15  1  0
  1 26  1  0
  1 27  1  0
  1 28  1  0
  3 29  1  0
  5 30  1  0
  9 31  1  0
 10 32  1  0
 12 33  1  0
 13 34  1  0
 16 35  1  0
 17 36  1  0
 20 37  1  0
 21 38  1  0
M  END
>  <Binding energies>  (1) 
[-7.49]

>  <Ligand effiencies>  (1) 
[-0.28807692307692306]

>  <Interactions>  (1) 
["V-B:PRO:540:CA:9855, V-B:GLU:543:C:9874, V-B:HIS:456:CD2:9039, V-A:GLU:543:C:4902, V-B:GLU:543:CB:9878, V-B:ALA:541:CB:9864, V-B:TYR:539:CE2:9848, V-A:TYR:484:CE2:4346, V-B:GLU:543:CG:9879, V-A:GLY:544:C:4912, H-B:GLU:543:OE1:9881, H-B:ALA:541:N:9863, V-A:GLU:543:CD:4908, V-B:PRO:540:CB:9857, V-A:TYR:484:CZ:4347, V-B:GLU:543:CA:9876, V-B:HIS:456:CE1:9041, V-B:PRO:540:N:9856, V-A:HIS:456:CE1:4070, V-B:TYR:539:CD2:9846, V-B:GLU:543:CD:9880, V-A:GLU:543:CB:4906, V-B:PRO:540:C:9853"]

$$$$
ZINC102500416-again1
     RDKit          3D

 37 39  0  0  0  0  0  0  0  0999 V2000
  128.6220  132.2100   74.9810 C   0  0  0  0  0  0  0  0  0  0  0  0
  128.5170  130.7880   74.4690 C   0  0  0  0  0  0  0  0  0  0  0  0
  127.5990  129.8720   74.8230 C   0  0  0  0  0  0  0  0  0  0  0  0
  127.6500  128.5450   74.2220 C   0  0  0  0  0  0  0  0  0  0  0  0
  126.7720  127.6850   74.5580 O   0  0  0  0  0  0  0  0  0  0  0  0
  128.6890  128.2730   73.2680 C   0  0  0  0  0  0  0  0  0  0  0  0
  128.7920  127.0020   72.6340 C   0  0  0  0  0  0  0  0  0  0  0  0
  129.1110  125.9390   73.2650 O   0  0  0  0  0  0  0  0  0  0  0  0
  128.5030  126.9990   71.1930 C   0  0  0  0  0  0  0  0  0  0  0  0
  129.4210  127.2310   70.2300 C   0  0  0  0  0  0  0  0  0  0  0  0
  129.1920  127.2440   68.7970 C   0  0  0  0  0  0  0  0  0  0  0  0
  129.5270  126.2670   67.8680 C   0  0  0  0  0  0  0  0  0  0  0  0
  129.1550  126.5960   66.5620 C   0  0  0  0  0  0  0  0  0  0  0  0
  128.5210  127.8340   66.4480 C   0  0  0  0  0  0  0  0  0  0  0  0
  127.9930  128.5180   65.2170 C   0  0  0  0  0  0  0  0  0  0  0  0
  128.3910  128.0510   63.9570 C   0  0  0  0  0  0  0  0  0  0  0  0
  127.9180  128.6550   62.7950 C   0  0  0  0  0  0  0  0  0  0  0  0
  127.0390  129.7320   62.8840 C   0  0  0  0  0  0  0  0  0  0  0  0
  126.5800  130.3190   61.7570 F   0  0  0  0  0  0  0  0  0  0  0  0
  126.6320  130.2070   64.1270 C   0  0  0  0  0  0  0  0  0  0  0  0
  127.1050  129.6010   65.2880 C   0  0  0  0  0  0  0  0  0  0  0  0
  128.4090  128.5860   68.0220 S   0  0  0  0  0  0  0  0  0  0  0  0
  129.6320  129.3100   72.9570 C   0  0  0  0  0  0  0  0  0  0  0  0
  130.6170  129.2110   72.1540 O   0  0  0  0  0  0  0  0  0  0  0  0
  129.4980  130.5250   73.5710 O   0  0  0  0  0  0  0  0  0  0  0  0
  128.6216  132.2046   76.0810 H   0  0  0  0  0  0  0  0  0  0  0  0
  129.5560  132.6628   74.6169 H   0  0  0  0  0  0  0  0  0  0  0  0
  127.7646  132.7951   74.6169 H   0  0  0  0  0  0  0  0  0  0  0  0
  126.8187  130.1209   75.5574 H   0  0  0  0  0  0  0  0  0  0  0  0
  127.4693  126.7940   70.8776 H   0  0  0  0  0  0  0  0  0  0  0  0
  130.4489  127.4308   70.5668 H   0  0  0  0  0  0  0  0  0  0  0  0
  130.0345  125.3280   68.1340 H   0  0  0  0  0  0  0  0  0  0  0  0
  129.3448  125.9383   65.7010 H   0  0  0  0  0  0  0  0  0  0  0  0
  129.0835  127.1994   63.8853 H   0  0  0  0  0  0  0  0  0  0  0  0
  128.2373  128.2830   61.8103 H   0  0  0  0  0  0  0  0  0  0  0  0
  125.9388  131.0586   64.1922 H   0  0  0  0  0  0  0  0  0  0  0  0
  126.7791  129.9752   66.2697 H   0  0  0  0  0  0  0  0  0  0  0  0
  1  2  1  0
  2  3  2  0
  3  4  1  0
  4  5  1  0
  4  6  2  0
  6  7  1  0
  7  8  2  0
  7  9  1  0
  9 10  2  0
 10 11  1  0
 11 12  2  0
 12 13  1  0
 13 14  2  0
 14 15  1  0
 15 16  2  0
 16 17  1  0
 17 18  2  0
 18 19  1  0
 18 20  1  0
 20 21  2  0
 14 22  1  0
  6 23  1  0
 23 24  2  0
 23 25  1  0
 25  2  1  0
 22 11  1  0
 21 15  1  0
  1 26  1  0
  1 27  1  0
  1 28  1  0
  3 29  1  0
  9 30  1  0
 10 31  1  0
 12 32  1  0
 13 33  1  0
 16 34  1  0
 17 35  1  0
 20 36  1  0
 21 37  1  0
M  CHG  1   5  -1
M  END
>  <Binding energies>  (1) 
[-8.03]

>  <Ligand effiencies>  (1) 
[-0.3212]

>  <Interactions>  (1) 
["V-A:HIS:456:CE1:4070, V-B:TYR:484:CZ:9318, V-B:HIS:456:CD2:9039, V-B:GLU:543:CB:9878, H-B:LYS:547:NZ:9923, V-A:GLU:543:CG:4907, V-B:GLU:543:CD:9880, V-A:GLU:543:CD:4908, H-A:LYS:547:NZ:4951, V-B:GLU:543:CG:9879, V-B:HIS:456:CE1:9041, V-A:GLU:543:CB:4906"]

$$$$
ZINC102538078
     RDKit          3D

 70 73  0  0  0  0  0  0  0  0999 V2000
  133.9560  123.0010   61.0460 C   0  0  0  0  0  0  0  0  0  0  0  0
  134.2540  124.0280   60.2340 C   0  0  0  0  0  0  0  0  0  0  0  0
  133.6240  124.3120   58.8830 C   0  0  0  0  0  0  0  0  0  0  0  0
  132.2280  124.5890   58.9940 O   0  0  0  0  0  0  0  0  0  0  0  0
  131.8020  125.8880   59.2030 C   0  0  0  0  0  0  0  0  0  0  0  0
  131.5690  126.8050   58.1630 C   0  0  0  0  0  0  0  0  0  0  0  0
  131.1210  128.0930   58.4400 C   0  0  0  0  0  0  0  0  0  0  0  0
  130.8900  128.4920   59.7560 C   0  0  0  0  0  0  0  0  0  0  0  0
  130.3180  129.8880   60.0310 C   0  0  1  0  0  0  0  0  0  0  0  0
  129.5960  130.0340   61.3470 C   0  0  0  0  0  0  0  0  0  0  0  0
  128.4860  129.1610   61.7710 C   0  0  0  0  0  0  0  0  0  0  0  0
  127.4540  129.1060   61.1020 O   0  0  0  0  0  0  0  0  0  0  0  0
  128.5510  128.5100   63.1110 C   0  0  0  0  0  0  0  0  0  0  0  0
  129.0450  127.2020   63.2520 C   0  0  0  0  0  0  0  0  0  0  0  0
  129.1490  126.6160   64.5170 C   0  0  0  0  0  0  0  0  0  0  0  0
  128.7300  127.3480   65.6230 C   0  0  0  0  0  0  0  0  0  0  0  0
  128.2100  128.6220   65.5030 C   0  0  0  0  0  0  0  0  0  0  0  0
  128.1130  129.2150   64.2440 C   0  0  0  0  0  0  0  0  0  0  0  0
  127.9700  129.1520   66.8790 C   0  0  0  0  0  0  0  0  0  0  0  0
  128.1560  127.8870   67.7350 C   0  0  2  0  0  0  0  0  0  0  0  0
  128.9220  128.0940   69.0490 C   0  0  0  0  0  0  0  0  0  0  0  0
  128.8230  126.9180   66.9220 O   0  0  0  0  0  0  0  0  0  0  0  0
  130.1830  131.0250   62.0390 C   0  0  0  0  0  0  0  0  0  0  0  0
  129.9630  131.5640   63.2700 O   0  0  0  0  0  0  0  0  0  0  0  0
  131.2840  131.6110   61.3000 C   0  0  0  0  0  0  0  0  0  0  0  0
  132.0230  132.5380   61.6390 O   0  0  0  0  0  0  0  0  0  0  0  0
  131.3310  130.9230   60.1360 N   0  0  0  0  0  0  0  0  0  0  0  0
  132.2940  131.2290   59.0710 C   0  0  0  0  0  0  0  0  0  0  0  0
  131.6550  131.4450   57.6830 C   0  0  0  0  0  0  0  0  0  0  0  0
  131.5850  132.9220   57.2400 C   0  0  0  0  0  0  0  0  0  0  0  0
  130.2480  133.3940   57.1110 O   0  0  0  0  0  0  0  0  0  0  0  0
  129.3560  132.9710   58.1350 C   0  0  0  0  0  0  0  0  0  0  0  0
  131.1400  127.5920   60.7970 C   0  0  0  0  0  0  0  0  0  0  0  0
  131.5940  126.2890   60.5320 C   0  0  0  0  0  0  0  0  0  0  0  0
  131.8430  125.3490   61.5180 O   0  0  0  0  0  0  0  0  0  0  0  0
  131.9020  125.7550   62.8820 C   0  0  0  0  0  0  0  0  0  0  0  0
  132.7800  124.7640   63.6500 C   0  0  0  0  0  0  0  0  0  0  0  0
  134.4778  122.8912   62.0081 H   0  0  0  0  0  0  0  0  0  0  0  0
  133.1901  122.2694   60.7491 H   0  0  0  0  0  0  0  0  0  0  0  0
  135.0274  124.7293   60.5806 H   0  0  0  0  0  0  0  0  0  0  0  0
  134.1245  125.1821   58.4331 H   0  0  0  0  0  0  0  0  0  0  0  0
  133.7449  123.4166   58.2556 H   0  0  0  0  0  0  0  0  0  0  0  0
  131.7426  126.5013   57.1201 H   0  0  0  0  0  0  0  0  0  0  0  0
  130.9480  128.8007   57.6158 H   0  0  0  0  0  0  0  0  0  0  0  0
  129.6488  130.0019   59.1654 H   0  0  0  0  0  0  0  0  0  0  0  0
  129.3520  126.6352   62.3607 H   0  0  0  0  0  0  0  0  0  0  0  0
  129.5528  125.5996   64.6349 H   0  0  0  0  0  0  0  0  0  0  0  0
  127.6964  130.2277   64.1394 H   0  0  0  0  0  0  0  0  0  0  0  0
  128.7038  129.9274   67.1441 H   0  0  0  0  0  0  0  0  0  0  0  0
  126.9918  129.6387   67.0066 H   0  0  0  0  0  0  0  0  0  0  0  0
  127.1563  127.5563   68.0532 H   0  0  0  0  0  0  0  0  0  0  0  0
  128.2479  127.9118   69.8990 H   0  0  0  0  0  0  0  0  0  0  0  0
  129.7678  127.3922   69.0948 H   0  0  0  0  0  0  0  0  0  0  0  0
  129.2992  129.1263   69.0948 H   0  0  0  0  0  0  0  0  0  0  0  0
  130.5570  131.1580   63.9050 H   0  0  0  0  0  0  0  0  0  0  0  0
  132.8350  132.1458   59.3481 H   0  0  0  0  0  0  0  0  0  0  0  0
  132.9551  130.3544   58.9819 H   0  0  0  0  0  0  0  0  0  0  0  0
  132.2475  130.8902   56.9406 H   0  0  0  0  0  0  0  0  0  0  0  0
  130.6172  131.0875   57.7544 H   0  0  0  0  0  0  0  0  0  0  0  0
  132.1053  133.5387   57.9876 H   0  0  0  0  0  0  0  0  0  0  0  0
  132.0601  132.9951   56.2506 H   0  0  0  0  0  0  0  0  0  0  0  0
  129.8007  133.1819   59.1188 H   0  0  0  0  0  0  0  0  0  0  0  0
  128.4039  133.5135   58.0391 H   0  0  0  0  0  0  0  0  0  0  0  0
  129.1736  131.8905   58.0391 H   0  0  0  0  0  0  0  0  0  0  0  0
  130.9789  127.9088   61.8380 H   0  0  0  0  0  0  0  0  0  0  0  0
  132.3355  126.7637   62.9498 H   0  0  0  0  0  0  0  0  0  0  0  0
  130.8900  125.7719   63.3127 H   0  0  0  0  0  0  0  0  0  0  0  0
  132.6452  124.9161   64.7311 H   0  0  0  0  0  0  0  0  0  0  0  0
  132.4906  123.7363   63.3854 H   0  0  0  0  0  0  0  0  0  0  0  0
  133.8351  124.9275   63.3854 H   0  0  0  0  0  0  0  0  0  0  0  0
  1  2  2  0
  2  3  1  0
  3  4  1  0
  4  5  1  0
  5  6  2  0
  6  7  1  0
  7  8  2  0
  8  9  1  0
  9 10  1  0
 10 11  1  0
 11 12  2  0
 11 13  1  0
 13 14  2  0
 14 15  1  0
 15 16  2  0
 16 17  1  0
 17 18  2  0
 17 19  1  0
 19 20  1  0
 20 21  1  0
 20 22  1  0
 10 23  2  0
 23 24  1  0
 23 25  1  0
 25 26  2  0
 25 27  1  0
 27 28  1  0
 28 29  1  0
 29 30  1  0
 30 31  1  0
 31 32  1  0
  8 33  1  0
 33 34  2  0
 34 35  1  0
 35 36  1  0
 36 37  1  0
 34  5  1  0
 27  9  1  0
 18 13  1  0
 22 16  1  0
  1 38  1  0
  1 39  1  0
  2 40  1  0
  3 41  1  0
  3 42  1  0
  6 43  1  0
  7 44  1  0
  9 45  1  6
 14 46  1  0
 15 47  1  0
 18 48  1  0
 19 49  1  0
 19 50  1  0
 20 51  1  1
 21 52  1  0
 21 53  1  0
 21 54  1  0
 24 55  1  0
 28 56  1  0
 28 57  1  0
 29 58  1  0
 29 59  1  0
 30 60  1  0
 30 61  1  0
 32 62  1  0
 32 63  1  0
 32 64  1  0
 33 65  1  0
 36 66  1  0
 36 67  1  0
 37 68  1  0
 37 69  1  0
 37 70  1  0
M  END
>  <Binding energies>  (1) 
[-7.1]

>  <Ligand effiencies>  (1) 
[-0.1868421052631579]

>  <Interactions>  (1) 
["V-A:ILE:369:CG2:3237, V-A:ASP:366:CA:3210, V-A:PRO:540:CG:4886, H-A:GLU:543:OE2:4910, V-A:ILE:369:CB:3236, H-A:ALA:541:N:4891, V-B:GLU:543:CB:9878, V-A:ILE:538:CB:4862, V-B:TYR:539:CE2:9848, V-B:GLU:543:CG:9879, V-A:ASP:366:CG:3213, V-A:LEU:363:CD1:3189, V-A:TYR:539:CD1:4873, H-B:TYR:539:OH:9850, V-A:GLU:543:CD:4908, V-B:HIS:456:CE1:9041, V-A:ILE:369:CD1:3239, V-B:TYR:484:CZ:9318, V-A:ASP:366:C:3208, V-A:GLU:543:CG:4907, V-B:GLU:543:CD:9880, V-A:TYR:539:C:4867, V-A:ASP:366:CB:3212, V-A:ARG:545:CZ:4926, H-A:GLU:543:OE1:4909, V-A:GLU:543:CB:4906, V-A:PRO:540:N:4884, H-A:TYR:539:N:4870, V-A:PRO:540:CB:4885, V-A:PRO:540:CA:4883, V-A:PRO:540:CD:4887"]

$$$$
ZINC102556678
     RDKit          3D

 62 66  0  0  0  0  0  0  0  0999 V2000
  125.6800  128.5660   75.3250 C   0  0  0  0  0  0  0  0  0  0  0  0
  126.3820  128.1160   74.0350 C   0  0  0  0  0  0  0  0  0  0  0  0
  127.8650  128.5180   73.9690 C   0  0  0  0  0  0  0  0  0  0  0  0
  128.6280  127.4450   73.4240 O   0  0  0  0  0  0  0  0  0  0  0  0
  128.8110  127.3670   72.0560 C   0  0  0  0  0  0  0  0  0  0  0  0
  127.6950  127.0010   71.3000 C   0  0  0  0  0  0  0  0  0  0  0  0
  127.7840  126.8850   69.9160 C   0  0  0  0  0  0  0  0  0  0  0  0
  129.0010  127.1350   69.2780 C   0  0  0  0  0  0  0  0  0  0  0  0
  129.1010  127.0050   67.8860 N   0  0  0  0  0  0  0  0  0  0  0  0
  129.4940  125.8550   67.2490 C   0  0  0  0  0  0  0  0  0  0  0  0
  129.6840  124.7280   67.7110 O   0  0  0  0  0  0  0  0  0  0  0  0
  129.7730  126.3020   65.8240 C   0  0  2  0  0  0  0  0  0  0  0  0
  128.6810  127.2780   65.7040 C   0  0  2  0  0  0  0  0  0  0  0  0
  128.8860  127.7600   64.4000 O   0  0  0  0  0  0  0  0  0  0  0  0
  129.1910  126.5650   63.5940 N   0  0  0  0  0  0  0  0  0  0  0  0
  128.4140  126.4580   62.4220 C   0  0  0  0  0  0  0  0  0  0  0  0
  128.0600  127.5600   61.6250 C   0  0  0  0  0  0  0  0  0  0  0  0
  127.3050  127.3960   60.4650 C   0  0  0  0  0  0  0  0  0  0  0  0
  126.8950  126.1250   60.0740 C   0  0  0  0  0  0  0  0  0  0  0  0
  127.2350  125.0000   60.8360 C   0  0  0  0  0  0  0  0  0  0  0  0
  126.8050  123.6420   60.4190 N   0  0  0  0  0  0  0  0  0  0  0  0
  126.7850  123.3740   59.2210 O   0  0  0  0  0  0  0  0  0  0  0  0
  126.4850  122.8340   61.2860 O   0  0  0  0  0  0  0  0  0  0  0  0
  127.9930  125.1870   62.0030 C   0  0  0  0  0  0  0  0  0  0  0  0
  129.4950  125.4960   64.5730 C   0  0  1  0  0  0  0  0  0  0  0  0
  130.6640  124.6100   64.1280 C   0  0  0  0  0  0  0  0  0  0  0  0
  131.9380  124.7440   64.6930 C   0  0  0  0  0  0  0  0  0  0  0  0
  132.9860  123.9260   64.2770 C   0  0  0  0  0  0  0  0  0  0  0  0
  132.7850  122.9500   63.2870 C   0  0  0  0  0  0  0  0  0  0  0  0
  133.7750  122.1040   62.8220 O   0  0  0  0  0  0  0  0  0  0  0  0
  134.3240  122.3180   61.5260 C   0  0  0  0  0  0  0  0  0  0  0  0
  131.5060  122.8130   62.7330 C   0  0  0  0  0  0  0  0  0  0  0  0
  131.1680  121.5020   61.3900 Br  0  0  0  0  0  0  0  0  0  0  0  0
  130.4580  123.6320   63.1520 C   0  0  0  0  0  0  0  0  0  0  0  0
  128.8280  128.0190   67.0070 C   0  0  0  0  0  0  0  0  0  0  0  0
  128.6100  129.2140   67.2110 O   0  0  0  0  0  0  0  0  0  0  0  0
  130.1230  127.5100   70.0220 C   0  0  0  0  0  0  0  0  0  0  0  0
  130.0280  127.6260   71.4050 C   0  0  0  0  0  0  0  0  0  0  0  0
  126.2457  128.2034   76.1959 H   0  0  0  0  0  0  0  0  0  0  0  0
  125.6305  129.6646   75.3514 H   0  0  0  0  0  0  0  0  0  0  0  0
  124.6611  128.1523   75.3514 H   0  0  0  0  0  0  0  0  0  0  0  0
  126.3153  127.0201   73.9669 H   0  0  0  0  0  0  0  0  0  0  0  0
  125.8739  128.6187   73.1989 H   0  0  0  0  0  0  0  0  0  0  0  0
  127.9752  129.4068   73.3303 H   0  0  0  0  0  0  0  0  0  0  0  0
  128.2270  128.7454   74.9825 H   0  0  0  0  0  0  0  0  0  0  0  0
  126.7371  126.8027   71.8031 H   0  0  0  0  0  0  0  0  0  0  0  0
  126.9002  126.5978   69.3275 H   0  0  0  0  0  0  0  0  0  0  0  0
  130.8610  126.4612   65.7947 H   0  0  0  0  0  0  0  0  0  0  0  0
  127.5973  127.0904   65.6833 H   0  0  0  0  0  0  0  0  0  0  0  0
  128.3841  128.5685   61.9215 H   0  0  0  0  0  0  0  0  0  0  0  0
  127.0330  128.2721   59.8580 H   0  0  0  0  0  0  0  0  0  0  0  0
  126.2984  126.0027   59.1580 H   0  0  0  0  0  0  0  0  0  0  0  0
  128.2653  124.3094   62.6077 H   0  0  0  0  0  0  0  0  0  0  0  0
  128.6887  124.7602   64.7090 H   0  0  0  0  0  0  0  0  0  0  0  0
  132.1128  125.5012   65.4715 H   0  0  0  0  0  0  0  0  0  0  0  0
  133.9818  124.0457   64.7287 H   0  0  0  0  0  0  0  0  0  0  0  0
  135.3450  122.7160   61.6215 H   0  0  0  0  0  0  0  0  0  0  0  0
  134.3518  121.3649   60.9776 H   0  0  0  0  0  0  0  0  0  0  0  0
  133.6994  123.0385   60.9776 H   0  0  0  0  0  0  0  0  0  0  0  0
  129.4588  123.5066   62.7094 H   0  0  0  0  0  0  0  0  0  0  0  0
  131.0782  127.7128   69.5156 H   0  0  0  0  0  0  0  0  0  0  0  0
  130.9103  127.9220   71.9914 H   0  0  0  0  0  0  0  0  0  0  0  0
  1  2  1  0
  2  3  1  0
  3  4  1  0
  4  5  1  0
  5  6  2  0
  6  7  1  0
  7  8  2  0
  8  9  1  0
  9 10  1  0
 10 11  2  0
 10 12  1  0
 12 13  1  0
 13 14  1  0
 14 15  1  0
 15 16  1  0
 16 17  2  0
 17 18  1  0
 18 19  2  0
 19 20  1  0
 20 21  1  0
 21 22  2  0
 21 23  1  0
 20 24  2  0
 15 25  1  0
 25 26  1  0
 26 27  2  0
 27 28  1  0
 28 29  2  0
 29 30  1  0
 30 31  1  0
 29 32  1  0
 32 33  1  0
 32 34  2  0
 13 35  1  0
 35 36  2  0
  8 37  1  0
 37 38  2  0
 38  5  1  0
 35  9  1  0
 25 12  1  0
 34 26  1  0
 24 16  1  0
  1 39  1  0
  1 40  1  0
  1 41  1  0
  2 42  1  0
  2 43  1  0
  3 44  1  0
  3 45  1  0
  6 46  1  0
  7 47  1  0
 12 48  1  1
 13 49  1  6
 17 50  1  0
 18 51  1  0
 19 52  1  0
 24 53  1  0
 25 54  1  1
 27 55  1  0
 28 56  1  0
 31 57  1  0
 31 58  1  0
 31 59  1  0
 34 60  1  0
 37 61  1  0
 38 62  1  0
M  CHG  2  21   1  23  -1
M  END
>  <Binding energies>  (1) 
[-8.44]

>  <Ligand effiencies>  (1) 
[-0.22210526315789472]

>  <Interactions>  (1) 
["V-A:ILE:369:CG2:3237, V-B:PRO:540:CA:9855, V-A:GLY:454:CA:4049, V-B:HIS:456:CD2:9039, V-B:GLU:543:C:9874, V-B:GLU:543:CB:9878, H-B:LYS:547:NZ:9923, V-B:HIS:456:CB:9036, V-B:TYR:539:CE2:9848, V-B:GLU:543:CG:9879, V-B:LYS:547:CE:9922, H-B:ALA:541:N:9863, V-A:GLU:543:CD:4908, V-B:PRO:540:CB:9857, V-B:HIS:456:CE1:9041, H-A:GLY:454:N:4050, V-B:GLU:543:CA:9876, V-A:HIS:456:CE1:4070, V-A:ILE:369:CD1:3239, V-B:GLY:544:C:9884, V-B:TYR:539:CD2:9846, V-A:GLU:543:CG:4907, V-B:GLU:543:CD:9880, V-B:HIS:456:CG:9037, V-A:LEU:475:CD2:4259, V-A:GLU:543:CB:4906, H-A:TYR:484:OH:4348"]

$$$$
ZINC102637783
     RDKit          3D

 48 50  0  0  0  0  0  0  0  0999 V2000
  128.7380  124.3300   57.2020 C   0  0  0  0  0  0  0  0  0  0  0  0
  128.1590  123.2110   58.0900 C   0  0  2  0  0  0  0  0  0  0  0  0
  126.9480  122.4700   57.4620 C   0  0  0  0  0  0  0  0  0  0  0  0
  125.6350  123.2680   57.5380 C   0  0  0  0  0  0  0  0  0  0  0  0
  125.3820  123.8350   58.9460 C   0  0  0  0  0  0  0  0  0  0  0  0
  126.6240  124.5740   59.5100 C   0  0  1  0  0  0  0  0  0  0  0  0
  126.3090  125.3090   60.8330 C   0  0  0  0  0  0  0  0  0  0  0  0
  127.7780  123.6240   59.4690 N   0  0  0  0  0  0  0  0  0  0  0  0
  128.0030  122.7260   60.4820 C   0  0  0  0  0  0  0  0  0  0  0  0
  127.1820  122.5370   61.3820 O   0  0  0  0  0  0  0  0  0  0  0  0
  129.3380  121.9120   60.5420 C   0  0  2  0  0  0  0  0  0  0  0  0
  129.2810  120.7350   61.5500 C   0  0  0  0  0  0  0  0  0  0  0  0
  130.5600  122.6900   60.8400 N   0  0  0  0  0  0  0  0  0  0  0  0
  131.2800  123.2040   59.8300 N   0  0  0  0  0  0  0  0  0  0  0  0
  132.2660  123.8710   60.3870 C   0  0  0  0  0  0  0  0  0  0  0  0
  133.3190  124.5600   59.5340 C   0  0  0  0  0  0  0  0  0  0  0  0
  133.5700  123.8560   58.4310 F   0  0  0  0  0  0  0  0  0  0  0  0
  132.9030  125.7690   59.1560 F   0  0  0  0  0  0  0  0  0  0  0  0
  134.4760  124.7200   60.1790 F   0  0  0  0  0  0  0  0  0  0  0  0
  132.1590  123.8420   61.7860 C   0  0  0  0  0  0  0  0  0  0  0  0
  133.3140  124.7150   63.0240 Br  0  0  0  0  0  0  0  0  0  0  0  0
  131.0380  123.0730   62.0760 C   0  0  0  0  0  0  0  0  0  0  0  0
  130.3490  122.7090   63.3810 C   0  0  0  0  0  0  0  0  0  0  0  0
  130.3540  123.6600   64.5550 C   0  0  0  0  0  0  0  0  0  0  0  0
  129.0650  123.3760   63.8100 C   0  0  0  0  0  0  0  0  0  0  0  0
  129.1503  125.1268   57.8385 H   0  0  0  0  0  0  0  0  0  0  0  0
  129.5361  123.9181   56.5669 H   0  0  0  0  0  0  0  0  0  0  0  0
  127.9408  124.7436   56.5669 H   0  0  0  0  0  0  0  0  0  0  0  0
  129.0176  122.5271   58.1609 H   0  0  0  0  0  0  0  0  0  0  0  0
  127.1729  122.2692   56.4041 H   0  0  0  0  0  0  0  0  0  0  0  0
  126.7991  121.5454   58.0391 H   0  0  0  0  0  0  0  0  0  0  0  0
  125.6856  124.1028   56.8234 H   0  0  0  0  0  0  0  0  0  0  0  0
  124.8086  122.5838   57.2952 H   0  0  0  0  0  0  0  0  0  0  0  0
  124.5405  124.5418   58.8977 H   0  0  0  0  0  0  0  0  0  0  0  0
  125.1572  122.9914   59.6152 H   0  0  0  0  0  0  0  0  0  0  0  0
  126.9354  125.4258   58.8876 H   0  0  0  0  0  0  0  0  0  0  0  0
  126.5839  124.6675   61.6833 H   0  0  0  0  0  0  0  0  0  0  0  0
  126.8850  126.2450   60.8786 H   0  0  0  0  0  0  0  0  0  0  0  0
  125.2339  125.5374   60.8786 H   0  0  0  0  0  0  0  0  0  0  0  0
  129.4190  121.5466   59.5076 H   0  0  0  0  0  0  0  0  0  0  0  0
  129.3001  121.1301   62.5764 H   0  0  0  0  0  0  0  0  0  0  0  0
  128.3541  120.1635   61.3943 H   0  0  0  0  0  0  0  0  0  0  0  0
  130.1483  120.0766   61.3943 H   0  0  0  0  0  0  0  0  0  0  0  0
  130.6623  121.6670   63.2199 H   0  0  0  0  0  0  0  0  0  0  0  0
  130.4966  123.2743   65.5753 H   0  0  0  0  0  0  0  0  0  0  0  0
  130.9167  124.5672   64.8201 H   0  0  0  0  0  0  0  0  0  0  0  0
  128.2712  122.7844   64.2896 H   0  0  0  0  0  0  0  0  0  0  0  0
  128.3033  123.9921   63.3099 H   0  0  0  0  0  0  0  0  0  0  0  0
  1  2  1  0
  2  3  1  0
  3  4  1  0
  4  5  1  0
  5  6  1  0
  6  7  1  0
  6  8  1  0
  8  9  1  0
  9 10  2  0
  9 11  1  0
 11 12  1  0
 11 13  1  0
 13 14  1  0
 14 15  2  0
 15 16  1  0
 16 17  1  0
 16 18  1  0
 16 19  1  0
 15 20  1  0
 20 21  1  0
 20 22  2  0
 22 23  1  0
 23 24  1  0
 24 25  1  0
  8  2  1  0
 22 13  1  0
 25 23  1  0
  1 26  1  0
  1 27  1  0
  1 28  1  0
  2 29  1  1
  3 30  1  0
  3 31  1  0
  4 32  1  0
  4 33  1  0
  5 34  1  0
  5 35  1  0
  6 36  1  6
  7 37  1  0
  7 38  1  0
  7 39  1  0
 11 40  1  6
 12 41  1  0
 12 42  1  0
 12 43  1  0
 23 44  1  0
 24 45  1  0
 24 46  1  0
 25 47  1  0
 25 48  1  0
M  END
>  <Binding energies>  (1) 
[-6.58]

>  <Ligand effiencies>  (1) 
[-0.2632]

>  <Interactions>  (1) 
["V-A:ILE:369:CG2:3237, V-A:ASP:366:CA:3210, V-B:PRO:540:CA:9855, V-A:ILE:369:CB:3236, V-B:ALA:541:CB:9864, V-B:TYR:539:CE2:9848, V-B:GLU:543:CG:9879, V-B:TYR:539:C:9839, V-A:ASP:366:CG:3213, V-B:TYR:539:CZ:9849, H-B:ALA:541:N:9863, V-B:PRO:540:CB:9857, V-B:PRO:540:N:9856, V-A:ILE:369:CD1:3239, V-B:TYR:539:CD2:9846, V-B:PRO:540:CD:9859, V-B:GLU:543:CD:9880, V-A:ASP:366:CB:3212, V-A:LEU:475:CD2:4259, V-A:ARG:545:CZ:4926, V-B:PRO:540:C:9853, V-B:ALA:541:CA:9862, V-B:TYR:539:CE1:9847"]

$$$$
ZINC102648399
     RDKit          3D

 72 75  0  0  0  0  0  0  0  0999 V2000
  131.0210  125.4580   65.4280 C   0  0  0  0  0  0  0  0  0  0  0  0
  131.5430  125.3730   64.1100 O   0  0  0  0  0  0  0  0  0  0  0  0
  132.6220  124.5940   63.8320 C   0  0  0  0  0  0  0  0  0  0  0  0
  133.5540  124.4270   64.6190 O   0  0  0  0  0  0  0  0  0  0  0  0
  132.5600  123.9870   62.4840 C   0  0  0  0  0  0  0  0  0  0  0  0
  133.9110  124.2160   61.3820 S   0  0  0  0  0  0  0  0  0  0  0  0
  133.1880  123.2190   60.1810 C   0  0  0  0  0  0  0  0  0  0  0  0
  131.9590  122.7450   60.5900 C   0  0  0  0  0  0  0  0  0  0  0  0
  131.5660  123.1840   61.8660 C   0  0  0  0  0  0  0  0  0  0  0  0
  129.9390  122.6720   62.5320 S   0  0  0  0  0  0  0  0  0  0  0  0
  129.9200  121.2150   62.6870 O   0  0  0  0  0  0  0  0  0  0  0  0
  129.6700  123.5430   63.6840 O   0  0  0  0  0  0  0  0  0  0  0  0
  128.8450  123.1340   61.2130 N   0  0  0  0  0  0  0  0  0  0  0  0
  127.4880  123.5710   61.6140 C   0  0  0  0  0  0  0  0  0  0  0  0
  126.7920  124.2450   60.4090 C   0  0  0  0  0  0  0  0  0  0  0  0
  126.7190  123.2940   59.2830 N   0  0  0  0  0  0  0  0  0  0  0  0
  125.9750  123.8940   58.1700 C   0  0  0  0  0  0  0  0  0  0  0  0
  126.8350  124.8700   57.3440 C   0  0  0  0  0  0  0  0  0  0  0  0
  127.3590  125.8610   58.2240 O   0  0  0  0  0  0  0  0  0  0  0  0
  128.7270  125.9920   58.3580 C   0  0  0  0  0  0  0  0  0  0  0  0
  129.6460  125.8960   57.2990 C   0  0  0  0  0  0  0  0  0  0  0  0
  131.0120  126.0580   57.5310 C   0  0  0  0  0  0  0  0  0  0  0  0
  131.4770  126.3200   58.8190 C   0  0  0  0  0  0  0  0  0  0  0  0
  130.5750  126.4220   59.8810 C   0  0  0  0  0  0  0  0  0  0  0  0
  131.0820  126.6950   61.2910 C   0  0  0  0  0  0  0  0  0  0  0  0
  130.1650  127.6100   62.1400 N   0  0  2  0  0  0  0  0  0  0  0  0
  129.0540  126.7800   62.8170 C   0  0  0  0  0  0  0  0  0  0  0  0
  129.6270  128.8160   61.3240 C   0  0  0  0  0  0  0  0  0  0  0  0
  130.7350  129.5470   60.5200 C   0  0  1  0  0  0  0  0  0  0  0  0
  130.2070  130.7510   59.7460 C   0  0  0  0  0  0  0  0  0  0  0  0
  130.4570  131.9430   60.6530 C   0  0  0  0  0  0  0  0  0  0  0  0
  131.5790  131.5040   61.5900 C   0  0  0  0  0  0  0  0  0  0  0  0
  132.2210  132.2280   62.3460 O   0  0  0  0  0  0  0  0  0  0  0  0
  131.7100  130.1770   61.4100 N   0  0  0  0  0  0  0  0  0  0  0  0
  129.2100  126.2430   59.6450 C   0  0  0  0  0  0  0  0  0  0  0  0
  128.0770  122.8770   58.8780 C   0  0  0  0  0  0  0  0  0  0  0  0
  128.7860  122.1940   60.0690 C   0  0  0  0  0  0  0  0  0  0  0  0
  131.8362  125.3253   66.1545 H   0  0  0  0  0  0  0  0  0  0  0  0
  130.5556  126.4438   65.5752 H   0  0  0  0  0  0  0  0  0  0  0  0
  130.2669  124.6708   65.5752 H   0  0  0  0  0  0  0  0  0  0  0  0
  133.6481  122.9884   59.2088 H   0  0  0  0  0  0  0  0  0  0  0  0
  131.3393  122.0801   59.9704 H   0  0  0  0  0  0  0  0  0  0  0  0
  126.9011  122.6983   61.9365 H   0  0  0  0  0  0  0  0  0  0  0  0
  127.5620  124.2876   62.4453 H   0  0  0  0  0  0  0  0  0  0  0  0
  125.7751  124.5496   60.6972 H   0  0  0  0  0  0  0  0  0  0  0  0
  127.3690  125.1300   60.1025 H   0  0  0  0  0  0  0  0  0  0  0  0
  125.6202  123.0899   57.5086 H   0  0  0  0  0  0  0  0  0  0  0  0
  125.1376  124.4653   58.5970 H   0  0  0  0  0  0  0  0  0  0  0  0
  127.6611  124.3238   56.8651 H   0  0  0  0  0  0  0  0  0  0  0  0
  126.2241  125.3436   56.5613 H   0  0  0  0  0  0  0  0  0  0  0  0
  129.2856  125.6917   56.2800 H   0  0  0  0  0  0  0  0  0  0  0  0
  131.7237  125.9789   56.6960 H   0  0  0  0  0  0  0  0  0  0  0  0
  132.5548  126.4465   58.9992 H   0  0  0  0  0  0  0  0  0  0  0  0
  131.1825  125.7315   61.8120 H   0  0  0  0  0  0  0  0  0  0  0  0
  132.0381  127.2277   61.1808 H   0  0  0  0  0  0  0  0  0  0  0  0
  130.7430  127.9870   62.8790 H   0  0  0  0  0  0  0  0  0  0  0  0
  129.1545  126.8551   63.9098 H   0  0  0  0  0  0  0  0  0  0  0  0
  128.0702  127.1662   62.5119 H   0  0  0  0  0  0  0  0  0  0  0  0
  129.1453  125.7271   62.5119 H   0  0  0  0  0  0  0  0  0  0  0  0
  128.8657  128.4506   60.6191 H   0  0  0  0  0  0  0  0  0  0  0  0
  129.2099  129.5385   62.0410 H   0  0  0  0  0  0  0  0  0  0  0  0
  131.1479  128.7612   59.8703 H   0  0  0  0  0  0  0  0  0  0  0  0
  130.7492  130.8678   58.7961 H   0  0  0  0  0  0  0  0  0  0  0  0
  129.1426  130.6429   59.4904 H   0  0  0  0  0  0  0  0  0  0  0  0
  130.7671  132.8182   60.0632 H   0  0  0  0  0  0  0  0  0  0  0  0
  129.5519  132.2371   61.2046 H   0  0  0  0  0  0  0  0  0  0  0  0
  132.3690  129.6260   61.9400 H   0  0  0  0  0  0  0  0  0  0  0  0
  128.5035  126.3006   60.4862 H   0  0  0  0  0  0  0  0  0  0  0  0
  128.0077  122.1695   58.0385 H   0  0  0  0  0  0  0  0  0  0  0  0
  128.6534  123.7610   58.5677 H   0  0  0  0  0  0  0  0  0  0  0  0
  128.2257  121.2940   60.3623 H   0  0  0  0  0  0  0  0  0  0  0  0
  129.8071  121.9100   59.7744 H   0  0  0  0  0  0  0  0  0  0  0  0
  1  2  1  0
  2  3  1  0
  3  4  2  0
  3  5  1  0
  5  6  1  0
  6  7  1  0
  7  8  2  0
  8  9  1  0
  9 10  1  0
 10 11  2  0
 10 12  2  0
 10 13  1  0
 13 14  1  0
 14 15  1  0
 15 16  1  0
 16 17  1  0
 17 18  1  0
 18 19  1  0
 19 20  1  0
 20 21  2  0
 21 22  1  0
 22 23  2  0
 23 24  1  0
 24 25  1  0
 25 26  1  0
 26 27  1  0
 26 28  1  0
 28 29  1  0
 29 30  1  0
 30 31  1  0
 31 32  1  0
 32 33  2  0
 32 34  1  0
 24 35  2  0
 16 36  1  0
 36 37  1  0
  9  5  2  0
 37 13  1  0
 35 20  1  0
 34 29  1  0
  1 38  1  0
  1 39  1  0
  1 40  1  0
  7 41  1  0
  8 42  1  0
 14 43  1  0
 14 44  1  0
 15 45  1  0
 15 46  1  0
 17 47  1  0
 17 48  1  0
 18 49  1  0
 18 50  1  0
 21 51  1  0
 22 52  1  0
 23 53  1  0
 25 54  1  0
 25 55  1  0
 26 56  1  1
 27 57  1  0
 27 58  1  0
 27 59  1  0
 28 60  1  0
 28 61  1  0
 29 62  1  6
 30 63  1  0
 30 64  1  0
 31 65  1  0
 31 66  1  0
 34 67  1  0
 35 68  1  0
 36 69  1  0
 36 70  1  0
 37 71  1  0
 37 72  1  0
M  CHG  1  26   1
M  END
>  <Binding energies>  (1) 
[-8.21]

>  <Ligand effiencies>  (1) 
[-0.21051282051282053]

>  <Interactions>  (1) 
["V-A:ILE:369:CG2:3237, V-B:PRO:540:CA:9855, H-A:GLU:543:OE2:4910, H-A:ALA:541:N:4891, V-B:TYR:539:CE2:9848, V-B:TYR:539:C:9839, V-A:ASP:366:CG:3213, V-B:TYR:539:CZ:9849, V-A:GLU:543:CD:4908, V-B:PRO:540:CB:9857, H-A:GLY:454:N:4050, V-B:PRO:540:N:9856, V-A:ILE:369:CD1:3239, V-B:TYR:539:CD2:9846, V-B:GLU:543:CD:9880, V-A:ASP:366:CB:3212, V-A:LEU:475:CD2:4259, H-A:ARG:545:NH2:4928, V-A:ARG:545:CZ:4926, H-A:GLU:543:OE1:4909, V-A:PRO:540:CB:4885, V-A:PRO:540:CA:4883, H-A:ASP:366:OD2:3215, H-A:TYR:484:OH:4348"]

$$$$
ZINC102701356-again1
     RDKit          3D

 48 50  0  0  0  0  0  0  0  0999 V2000
  129.5610  127.6800   69.1750 C   0  0  0  0  0  0  0  0  0  0  0  0
  128.6240  128.2520   68.2760 O   0  0  0  0  0  0  0  0  0  0  0  0
  128.4510  127.4990   67.0830 C   0  0  0  0  0  0  0  0  0  0  0  0
  129.5070  126.3860   67.0160 C   0  0  0  0  0  0  0  0  0  0  0  0
  129.5560  125.6860   65.6430 C   0  0  0  0  0  0  0  0  0  0  0  0
  130.9100  125.3820   65.1710 N   0  0  0  0  0  0  0  0  0  0  0  0
  131.9720  125.3490   66.0040 C   0  0  0  0  0  0  0  0  0  0  0  0
  131.9930  125.4750   67.2300 O   0  0  0  0  0  0  0  0  0  0  0  0
  133.2150  125.0930   65.0880 C   0  0  0  0  0  0  0  0  0  0  0  0
  134.3920  124.9670   65.5590 O   0  0  0  0  0  0  0  0  0  0  0  0
  132.7460  125.0560   63.7600 C   0  0  0  0  0  0  0  0  0  0  0  0
  133.5180  124.7780   62.5940 C   0  0  0  0  0  0  0  0  0  0  0  0
  134.6850  124.2690   62.6420 O   0  0  0  0  0  0  0  0  0  0  0  0
  132.9200  125.0430   61.2760 C   0  0  0  0  0  0  0  0  0  0  0  0
  132.1460  126.1370   60.8830 C   0  0  0  0  0  0  0  0  0  0  0  0
  131.7190  126.0750   59.5530 C   0  0  0  0  0  0  0  0  0  0  0  0
  132.1410  124.9230   58.9110 C   0  0  0  0  0  0  0  0  0  0  0  0
  133.0710  123.9020   59.9570 S   0  0  0  0  0  0  0  0  0  0  0  0
  131.2500  125.2980   63.7540 C   0  0  1  0  0  0  0  0  0  0  0  0
  130.4600  124.2420   62.9770 C   0  0  0  0  0  0  0  0  0  0  0  0
  129.1470  124.4800   62.5610 C   0  0  0  0  0  0  0  0  0  0  0  0
  128.4520  123.5080   61.8470 C   0  0  0  0  0  0  0  0  0  0  0  0
  129.0580  122.2880   61.5470 C   0  0  0  0  0  0  0  0  0  0  0  0
  128.3450  121.3490   60.8470 O   0  0  0  0  0  0  0  0  0  0  0  0
  130.3740  122.0260   61.9580 C   0  0  0  0  0  0  0  0  0  0  0  0
  130.9140  120.7930   61.6370 O   0  0  0  0  0  0  0  0  0  0  0  0
  132.1150  120.7350   60.8750 C   0  0  0  0  0  0  0  0  0  0  0  0
  131.0670  123.0220   62.6670 C   0  0  0  0  0  0  0  0  0  0  0  0
  129.2423  127.8746   70.2097 H   0  0  0  0  0  0  0  0  0  0  0  0
  129.6156  126.5944   69.0061 H   0  0  0  0  0  0  0  0  0  0  0  0
  130.5515  128.1276   69.0061 H   0  0  0  0  0  0  0  0  0  0  0  0
  127.4464  127.0509   67.0758 H   0  0  0  0  0  0  0  0  0  0  0  0
  128.5655  128.1627   66.2133 H   0  0  0  0  0  0  0  0  0  0  0  0
  130.4941  126.8261   67.2208 H   0  0  0  0  0  0  0  0  0  0  0  0
  129.2337  125.6268   67.7636 H   0  0  0  0  0  0  0  0  0  0  0  0
  128.9965  124.7418   65.7171 H   0  0  0  0  0  0  0  0  0  0  0  0
  129.1177  126.3855   64.9160 H   0  0  0  0  0  0  0  0  0  0  0  0
  131.8957  126.9697   61.5568 H   0  0  0  0  0  0  0  0  0  0  0  0
  131.1139  126.8561   59.0695 H   0  0  0  0  0  0  0  0  0  0  0  0
  131.9129  124.6845   57.8617 H   0  0  0  0  0  0  0  0  0  0  0  0
  130.9742  126.2152   63.2130 H   0  0  0  0  0  0  0  0  0  0  0  0
  128.6616  125.4381   62.7985 H   0  0  0  0  0  0  0  0  0  0  0  0
  127.4206  123.7028   61.5180 H   0  0  0  0  0  0  0  0  0  0  0  0
  128.8210  120.5210   60.7450 H   0  0  0  0  0  0  0  0  0  0  0  0
  132.9788  120.6933   61.5547 H   0  0  0  0  0  0  0  0  0  0  0  0
  132.1038  119.8364   60.2407 H   0  0  0  0  0  0  0  0  0  0  0  0
  132.1904  121.6305   60.2407 H   0  0  0  0  0  0  0  0  0  0  0  0
  132.1044  122.8383   62.9832 H   0  0  0  0  0  0  0  0  0  0  0  0
  1  2  1  0
  2  3  1  0
  3  4  1  0
  4  5  1  0
  5  6  1  0
  6  7  1  0
  7  8  2  0
  7  9  1  0
  9 10  1  0
  9 11  2  0
 11 12  1  0
 12 13  2  0
 12 14  1  0
 14 15  2  0
 15 16  1  0
 16 17  2  0
 17 18  1  0
 11 19  1  0
 19 20  1  0
 20 21  2  0
 21 22  1  0
 22 23  2  0
 23 24  1  0
 23 25  1  0
 25 26  1  0
 26 27  1  0
 25 28  2  0
 19  6  1  0
 28 20  1  0
 18 14  1  0
  1 29  1  0
  1 30  1  0
  1 31  1  0
  3 32  1  0
  3 33  1  0
  4 34  1  0
  4 35  1  0
  5 36  1  0
  5 37  1  0
 15 38  1  0
 16 39  1  0
 17 40  1  0
 19 41  1  6
 21 42  1  0
 22 43  1  0
 24 44  1  0
 27 45  1  0
 27 46  1  0
 27 47  1  0
 28 48  1  0
M  CHG  1  10  -1
M  END
>  <Binding energies>  (1) 
[-5.47]

>  <Ligand effiencies>  (1) 
[-0.1886206896551724]

>  <Interactions>  (1) 
["V-A:ILE:369:CG2:3237, V-B:GLU:543:CB:9878, V-B:ALA:541:CB:9864, H-A:ARG:545:NH1:4927, V-B:TYR:539:CE2:9848, V-B:GLU:543:CG:9879, V-A:ASP:366:CG:3213, V-B:TYR:539:CZ:9849, H-B:ALA:541:N:9863, V-A:GLU:543:CD:4908, V-A:TYR:484:CZ:4347, H-A:GLY:454:N:4050, V-A:HIS:456:CE1:4070, V-B:TYR:539:CD2:9846, V-B:GLU:543:CD:9880, V-A:ASP:366:CB:3212, V-A:ARG:545:CD:4923, V-A:LEU:475:CD2:4259, V-A:ARG:545:CZ:4926, V-A:GLU:543:CB:4906, H-B:TYR:539:O:9840, H-A:ARG:545:NE:4924, H-A:HIS:456:ND1:4067, H-A:TYR:484:OH:4348"]

$$$$
ZINC102736093
     RDKit          3D

 51 54  0  0  0  0  0  0  0  0999 V2000
  130.7810  117.9710   60.5740 C   0  0  0  0  0  0  0  0  0  0  0  0
  131.0070  119.4510   60.7820 C   0  0  0  0  0  0  0  0  0  0  0  0
  130.1140  120.2370   61.3320 N   0  0  0  0  0  0  0  0  0  0  0  0
  130.5040  121.4950   61.4180 C   0  0  0  0  0  0  0  0  0  0  0  0
  129.5060  122.4480   62.0460 C   0  0  0  0  0  0  0  0  0  0  0  0
  131.7770  121.7650   60.9010 C   0  0  0  0  0  0  0  0  0  0  0  0
  132.5300  123.0180   60.8570 C   0  0  0  0  0  0  0  0  0  0  0  0
  133.3760  123.2630   61.7170 O   0  0  0  0  0  0  0  0  0  0  0  0
  132.2310  123.9900   59.7960 C   0  0  0  0  0  0  0  0  0  0  0  0
  133.0590  124.4620   58.8510 C   0  0  0  0  0  0  0  0  0  0  0  0
  134.3600  124.2100   58.5380 O   0  0  0  0  0  0  0  0  0  0  0  0
  132.3990  125.4400   58.0090 C   0  0  0  0  0  0  0  0  0  0  0  0
  132.8620  126.0500   57.0430 O   0  0  0  0  0  0  0  0  0  0  0  0
  131.1470  125.5440   58.5090 N   0  0  0  0  0  0  0  0  0  0  0  0
  130.1060  126.3670   57.8870 C   0  0  0  0  0  0  0  0  0  0  0  0
  129.1000  125.5420   57.0670 C   0  0  0  0  0  0  0  0  0  0  0  0
  127.7860  125.2950   57.8290 C   0  0  0  0  0  0  0  0  0  0  0  0
  127.1100  124.1090   57.3250 N   0  0  0  0  0  0  0  0  0  0  0  0
  125.7600  123.8940   57.2180 C   0  0  0  0  0  0  0  0  0  0  0  0
  125.6300  122.6300   56.6640 C   0  0  0  0  0  0  0  0  0  0  0  0
  126.8030  122.0720   56.4250 N   0  0  0  0  0  0  0  0  0  0  0  0
  127.6810  122.9650   56.8200 C   0  0  0  0  0  0  0  0  0  0  0  0
  130.8950  124.6680   59.6410 C   0  0  2  0  0  0  0  0  0  0  0  0
  130.4060  125.3940   60.8990 C   0  0  0  0  0  0  0  0  0  0  0  0
  131.3360  125.8760   61.8280 C   0  0  0  0  0  0  0  0  0  0  0  0
  130.8700  126.5420   62.9640 C   0  0  0  0  0  0  0  0  0  0  0  0
  129.5520  126.7420   63.2120 N   0  0  0  0  0  0  0  0  0  0  0  0
  128.6590  126.2670   62.3070 C   0  0  0  0  0  0  0  0  0  0  0  0
  129.0410  125.5920   61.1460 C   0  0  0  0  0  0  0  0  0  0  0  0
  132.4650  120.2680   60.3220 S   0  0  0  0  0  0  0  0  0  0  0  0
  130.7046  117.4709   61.5508 H   0  0  0  0  0  0  0  0  0  0  0  0
  129.8491  117.8181   60.0099 H   0  0  0  0  0  0  0  0  0  0  0  0
  131.6248  117.5469   60.0099 H   0  0  0  0  0  0  0  0  0  0  0  0
  129.5753  122.3818   63.1418 H   0  0  0  0  0  0  0  0  0  0  0  0
  129.7296  123.4764   61.7259 H   0  0  0  0  0  0  0  0  0  0  0  0
  128.4890  122.1773   61.7259 H   0  0  0  0  0  0  0  0  0  0  0  0
  134.6130  124.7390   57.7770 H   0  0  0  0  0  0  0  0  0  0  0  0
  129.5597  126.8996   58.6794 H   0  0  0  0  0  0  0  0  0  0  0  0
  130.6045  127.0617   57.1949 H   0  0  0  0  0  0  0  0  0  0  0  0
  128.8728  126.0843   56.1373 H   0  0  0  0  0  0  0  0  0  0  0  0
  129.5576  124.5632   56.8607 H   0  0  0  0  0  0  0  0  0  0  0  0
  128.0094  125.1560   58.8971 H   0  0  0  0  0  0  0  0  0  0  0  0
  127.1269  126.1638   57.6850 H   0  0  0  0  0  0  0  0  0  0  0  0
  124.9510  124.5797   57.5101 H   0  0  0  0  0  0  0  0  0  0  0  0
  124.6645  122.1488   56.4490 H   0  0  0  0  0  0  0  0  0  0  0  0
  128.7683  122.8124   56.7532 H   0  0  0  0  0  0  0  0  0  0  0  0
  130.0639  123.9659   59.4786 H   0  0  0  0  0  0  0  0  0  0  0  0
  132.4146  125.7328   61.6662 H   0  0  0  0  0  0  0  0  0  0  0  0
  131.6048  126.9210   63.6895 H   0  0  0  0  0  0  0  0  0  0  0  0
  127.5864  126.4207   62.4967 H   0  0  0  0  0  0  0  0  0  0  0  0
  128.2843  125.2225   60.4383 H   0  0  0  0  0  0  0  0  0  0  0  0
  1  2  1  0
  2  3  2  0
  3  4  1  0
  4  5  1  0
  4  6  2  0
  6  7  1  0
  7  8  2  0
  7  9  1  0
  9 10  2  0
 10 11  1  0
 10 12  1  0
 12 13  2  0
 12 14  1  0
 14 15  1  0
 15 16  1  0
 16 17  1  0
 17 18  1  0
 18 19  1  0
 19 20  2  0
 20 21  1  0
 21 22  2  0
 14 23  1  0
 23 24  1  0
 24 25  2  0
 25 26  1  0
 26 27  2  0
 27 28  1  0
 28 29  2  0
  6 30  1  0
 30  2  1  0
 23  9  1  0
 29 24  1  0
 22 18  1  0
  1 31  1  0
  1 32  1  0
  1 33  1  0
  5 34  1  0
  5 35  1  0
  5 36  1  0
 11 37  1  0
 15 38  1  0
 15 39  1  0
 16 40  1  0
 16 41  1  0
 17 42  1  0
 17 43  1  0
 19 44  1  0
 20 45  1  0
 22 46  1  0
 23 47  1  6
 25 48  1  0
 26 49  1  0
 28 50  1  0
 29 51  1  0
M  END
>  <Binding energies>  (1) 
[-6.88]

>  <Ligand effiencies>  (1) 
[-0.22193548387096773]

>  <Interactions>  (1) 
["V-A:ILE:369:CG2:3237, V-A:ASP:366:CA:3210, V-B:PRO:540:CA:9855, V-B:ALA:541:CB:9864, V-B:TYR:539:CE2:9848, H-A:TYR:531:OH:4795, H-B:TYR:539:N:9842, V-B:TYR:539:CZ:9849, H-B:TYR:539:OH:9850, V-A:GLU:543:CD:4908, V-B:PRO:540:CB:9857, V-A:HIS:383:NE2:3394, V-B:PRO:540:N:9856, V-B:TYR:539:CD2:9846, V-B:PRO:540:CD:9859, V-A:SER:385:CB:3409, V-B:GLU:543:CD:9880, V-A:ASP:366:CB:3212, V-A:LEU:475:CD2:4259, V-B:TYR:539:CG:9844, H-A:ASP:366:O:3209, V-B:TYR:539:CD1:9845, V-B:LEU:363:CD1:8160, V-B:MET:535:CE:9807, V-B:TYR:539:CE1:9847"]

$$$$
ZINC102760149
     RDKit          3D

 35 38  0  0  0  0  0  0  0  0999 V2000
  125.9530  123.2230   60.6720 C   0  0  0  0  0  0  0  0  0  0  0  0
  127.2770  123.6530   61.1540 N   0  0  0  0  0  0  0  0  0  0  0  0
  127.6110  123.3630   62.4390 C   0  0  0  0  0  0  0  0  0  0  0  0
  126.9050  122.7150   63.2190 O   0  0  0  0  0  0  0  0  0  0  0  0
  128.9020  123.9200   62.7600 C   0  0  0  0  0  0  0  0  0  0  0  0
  129.4490  123.7680   63.9890 C   0  0  0  0  0  0  0  0  0  0  0  0
  130.7630  124.2750   64.4490 C   0  0  0  0  0  0  0  0  0  0  0  0
  130.8630  124.9880   65.6490 C   0  0  0  0  0  0  0  0  0  0  0  0
  132.0810  125.4770   66.1090 C   0  0  0  0  0  0  0  0  0  0  0  0
  133.2480  125.2710   65.3820 C   0  0  0  0  0  0  0  0  0  0  0  0
  133.2030  124.5610   64.1620 C   0  0  0  0  0  0  0  0  0  0  0  0
  134.3570  124.3690   63.4600 N   0  0  0  0  0  0  0  0  0  0  0  0
  134.2740  123.6810   62.2960 C   0  0  0  0  0  0  0  0  0  0  0  0
  133.0640  123.1850   61.8220 C   0  0  0  0  0  0  0  0  0  0  0  0
  131.9040  123.3650   62.5010 N   0  0  0  0  0  0  0  0  0  0  0  0
  131.9500  124.0550   63.6830 C   0  0  0  0  0  0  0  0  0  0  0  0
  129.5320  124.7970   61.3730 S   0  0  0  0  0  0  0  0  0  0  0  0
  128.1410  124.3560   60.3570 C   0  0  0  0  0  0  0  0  0  0  0  0
  128.1820  124.7650   59.1420 N   0  0  0  0  0  0  0  0  0  0  0  0
  127.3270  124.3370   58.1740 C   0  0  0  0  0  0  0  0  0  0  0  0
  126.2420  124.9340   57.7250 N   0  0  0  0  0  0  0  0  0  0  0  0
  125.6210  124.2160   56.8100 C   0  0  0  0  0  0  0  0  0  0  0  0
  126.1890  122.9840   56.5060 C   0  0  0  0  0  0  0  0  0  0  0  0
  127.6090  122.7670   57.4840 S   0  0  0  0  0  0  0  0  0  0  0  0
  125.3007  123.0112   61.5320 H   0  0  0  0  0  0  0  0  0  0  0  0
  125.5074  124.0226   60.0620 H   0  0  0  0  0  0  0  0  0  0  0  0
  126.0623  122.3142   60.0620 H   0  0  0  0  0  0  0  0  0  0  0  0
  128.8539  123.2078   64.7253 H   0  0  0  0  0  0  0  0  0  0  0  0
  129.9549  125.1663   66.2437 H   0  0  0  0  0  0  0  0  0  0  0  0
  132.1214  126.0324   67.0576 H   0  0  0  0  0  0  0  0  0  0  0  0
  134.2059  125.6608   65.7568 H   0  0  0  0  0  0  0  0  0  0  0  0
  135.1887  123.5099   61.7095 H   0  0  0  0  0  0  0  0  0  0  0  0
  133.0476  122.6321   60.8712 H   0  0  0  0  0  0  0  0  0  0  0  0
  124.7052  124.5716   56.3151 H   0  0  0  0  0  0  0  0  0  0  0  0
  125.8032  122.2652   55.7681 H   0  0  0  0  0  0  0  0  0  0  0  0
  1  2  1  0
  2  3  1  0
  3  4  2  0
  3  5  1  0
  5  6  2  0
  6  7  1  0
  7  8  2  0
  8  9  1  0
  9 10  2  0
 10 11  1  0
 11 12  2  0
 12 13  1  0
 13 14  2  0
 14 15  1  0
 15 16  2  0
  5 17  1  0
 17 18  1  0
 18 19  2  0
 19 20  1  0
 20 21  2  0
 21 22  1  0
 22 23  2  0
 23 24  1  0
 18  2  1  0
 24 20  1  0
 16  7  1  0
 16 11  1  0
  1 25  1  0
  1 26  1  0
  1 27  1  0
  6 28  1  0
  8 29  1  0
  9 30  1  0
 10 31  1  0
 13 32  1  0
 14 33  1  0
 22 34  1  0
 23 35  1  0
M  END
>  <Binding energies>  (1) 
[-6.75]

>  <Ligand effiencies>  (1) 
[-0.28125]

>  <Interactions>  (1) 
["V-B:PRO:540:CA:9855, V-A:GLY:454:CA:4049, V-B:TYR:539:CE2:9848, V-B:GLU:543:CG:9879, V-B:TYR:539:C:9839, V-B:TYR:539:CZ:9849, H-B:ALA:541:N:9863, V-B:TYR:531:CE2:9765, V-A:TYR:484:CZ:4347, V-B:PRO:540:CB:9857, V-A:GLU:543:CD:4908, H-A:GLY:454:N:4050, V-A:GLY:453:C:4042, V-B:PRO:540:N:9856, V-A:HIS:456:CE1:4070, V-A:ILE:369:CD1:3239, V-B:TYR:539:CD2:9846, V-B:GLU:543:CD:9880, V-A:ARG:545:CD:4923, H-A:ARG:545:NH2:4928, V-A:ARG:545:CZ:4926, V-B:TYR:539:CG:9844, V-B:TYR:539:CD1:9845, V-B:LEU:363:CD1:8160, V-B:PRO:540:C:9853, V-B:MET:535:CE:9807, V-B:TYR:539:CE1:9847"]

$$$$
ZINC102875577-again1
     RDKit          3D

 33 34  0  0  0  0  0  0  0  0999 V2000
  130.1920  122.5210   75.1740 C   0  0  0  0  0  0  0  0  0  0  0  0
  129.8230  123.8560   75.5220 O   0  0  0  0  0  0  0  0  0  0  0  0
  130.6160  124.9100   75.1070 C   0  0  0  0  0  0  0  0  0  0  0  0
  131.9660  124.9160   75.4670 C   0  0  0  0  0  0  0  0  0  0  0  0
  132.7480  125.9930   75.0400 C   0  0  0  0  0  0  0  0  0  0  0  0
  134.0860  126.0180   75.3870 O   0  0  0  0  0  0  0  0  0  0  0  0
  134.9560  126.9630   74.7670 C   0  0  0  0  0  0  0  0  0  0  0  0
  132.2240  127.0110   74.2960 N   0  0  0  0  0  0  0  0  0  0  0  0
  130.9050  126.9250   73.9890 C   0  0  0  0  0  0  0  0  0  0  0  0
  130.4160  127.9820   73.2430 O   0  0  0  0  0  0  0  0  0  0  0  0
  130.0430  127.8160   71.9240 C   0  0  0  0  0  0  0  0  0  0  0  0
  131.0060  128.0530   70.9400 C   0  0  0  0  0  0  0  0  0  0  0  0
  130.6920  127.8980   69.5920 C   0  0  0  0  0  0  0  0  0  0  0  0
  129.4090  127.5050   69.2230 C   0  0  0  0  0  0  0  0  0  0  0  0
  128.4420  127.2720   70.2000 C   0  0  0  0  0  0  0  0  0  0  0  0
  128.7370  127.4230   71.5670 C   0  0  0  0  0  0  0  0  0  0  0  0
  127.7120  127.1800   72.5980 C   0  0  0  0  0  0  0  0  0  0  0  0
  127.3410  128.0470   73.4510 N   0  0  0  0  0  0  0  0  0  0  0  0
  126.3530  127.5350   74.3030 O   0  0  0  0  0  0  0  0  0  0  0  0
  130.0690  125.9140   74.3620 N   0  0  0  0  0  0  0  0  0  0  0  0
  130.3541  121.9347   76.0905 H   0  0  0  0  0  0  0  0  0  0  0  0
  129.3874  122.0607   74.5817 H   0  0  0  0  0  0  0  0  0  0  0  0
  131.1188  122.5393   74.5817 H   0  0  0  0  0  0  0  0  0  0  0  0
  132.3986  124.1011   76.0659 H   0  0  0  0  0  0  0  0  0  0  0  0
  135.4850  127.5376   75.5416 H   0  0  0  0  0  0  0  0  0  0  0  0
  135.6878  126.4318   74.1406 H   0  0  0  0  0  0  0  0  0  0  0  0
  134.3662  127.6484   74.1406 H   0  0  0  0  0  0  0  0  0  0  0  0
  132.0198  128.3643   71.2321 H   0  0  0  0  0  0  0  0  0  0  0  0
  131.4550  128.0855   68.8221 H   0  0  0  0  0  0  0  0  0  0  0  0
  129.1576  127.3781   68.1597 H   0  0  0  0  0  0  0  0  0  0  0  0
  127.4304  126.9646   69.8964 H   0  0  0  0  0  0  0  0  0  0  0  0
  127.2389  126.1875   72.6316 H   0  0  0  0  0  0  0  0  0  0  0  0
  125.6420  127.3350   73.6900 H   0  0  0  0  0  0  0  0  0  0  0  0
  1  2  1  0
  2  3  1  0
  3  4  2  0
  4  5  1  0
  5  6  1  0
  6  7  1  0
  5  8  2  0
  8  9  1  0
  9 10  1  0
 10 11  1  0
 11 12  2  0
 12 13  1  0
 13 14  2  0
 14 15  1  0
 15 16  2  0
 16 17  1  0
 17 18  2  0
 18 19  1  0
  9 20  2  0
 20  3  1  0
 16 11  1  0
  1 21  1  0
  1 22  1  0
  1 23  1  0
  4 24  1  0
  7 25  1  0
  7 26  1  0
  7 27  1  0
 12 28  1  0
 13 29  1  0
 14 30  1  0
 15 31  1  0
 17 32  1  0
 19 33  1  0
M  END
>  <Binding energies>  (1) 
[-5.67]

>  <Ligand effiencies>  (1) 
[-0.27]

>  <Interactions>  (1) 
["V-B:HIS:456:CD2:9039, V-A:GLU:543:C:4902, H-B:LYS:547:NZ:9923, V-A:GLY:544:CA:4914, V-A:GLY:544:C:4912, V-A:HIS:456:CD2:4068, V-A:VAL:457:C:4073, V-A:LYS:547:CG:4948, V-A:LYS:547:CB:4947, V-A:HIS:456:CB:4065, V-B:LYS:547:CE:9922, V-B:HIS:456:CE1:9041, V-A:HIS:456:CE1:4070, V-B:GLY:544:C:9884, H-A:LYS:547:NZ:4951, V-A:HIS:456:C:4061, V-A:ARG:545:C:4917, V-A:HIS:456:CG:4066, V-A:GLU:543:CB:4906, H-B:GLY:544:O:9885, V-A:ILE:546:C:4934"]

$$$$
ZINC102886943
     RDKit          3D

 73 77  0  0  0  0  0  0  0  0999 V2000
  129.4940  126.4510   67.6870 C   0  0  0  0  0  0  0  0  0  0  0  0
  129.9110  125.1580   66.9740 C   0  0  0  0  0  0  0  0  0  0  0  0
  130.9750  125.3880   65.8900 C   0  0  0  0  0  0  0  0  0  0  0  0
  130.5240  124.7940   64.6760 O   0  0  0  0  0  0  0  0  0  0  0  0
  130.3640  125.5790   63.5480 C   0  0  0  0  0  0  0  0  0  0  0  0
  129.1150  126.0080   63.0680 C   0  0  0  0  0  0  0  0  0  0  0  0
  129.0250  126.8020   61.9280 C   0  0  0  0  0  0  0  0  0  0  0  0
  130.1770  127.1760   61.2380 C   0  0  0  0  0  0  0  0  0  0  0  0
  130.0590  128.0450   59.9800 C   0  0  2  0  0  0  0  0  0  0  0  0
  131.0500  127.7160   58.8920 C   0  0  0  0  0  0  0  0  0  0  0  0
  131.2270  126.3680   58.3280 C   0  0  0  0  0  0  0  0  0  0  0  0
  132.0840  126.1830   57.4620 O   0  0  0  0  0  0  0  0  0  0  0  0
  130.4880  125.2110   58.9210 C   0  0  0  0  0  0  0  0  0  0  0  0
  129.1400  124.9980   58.5880 C   0  0  0  0  0  0  0  0  0  0  0  0
  128.4270  123.9350   59.1430 C   0  0  0  0  0  0  0  0  0  0  0  0
  129.0530  123.0830   60.0510 C   0  0  0  0  0  0  0  0  0  0  0  0
  130.3850  123.3110   60.4250 C   0  0  0  0  0  0  0  0  0  0  0  0
  131.0990  124.3700   59.8640 C   0  0  0  0  0  0  0  0  0  0  0  0
  131.0540  122.4770   61.2980 O   0  0  0  0  0  0  0  0  0  0  0  0
  130.1950  121.6640   62.1040 C   0  0  0  0  0  0  0  0  0  0  0  0
  129.0670  121.0460   61.2430 C   0  0  0  0  0  0  0  0  0  0  0  0
  128.2960  122.0750   60.6130 O   0  0  0  0  0  0  0  0  0  0  0  0
  131.7510  128.8280   58.6110 C   0  0  0  0  0  0  0  0  0  0  0  0
  132.7660  129.0970   57.7440 O   0  0  0  0  0  0  0  0  0  0  0  0
  131.3200  129.9480   59.4220 C   0  0  0  0  0  0  0  0  0  0  0  0
  131.7430  131.1060   59.4100 O   0  0  0  0  0  0  0  0  0  0  0  0
  130.3410  129.4520   60.2120 N   0  0  0  0  0  0  0  0  0  0  0  0
  129.6000  130.2760   61.1720 C   0  0  0  0  0  0  0  0  0  0  0  0
  128.6710  131.3100   60.5080 C   0  0  0  0  0  0  0  0  0  0  0  0
  129.4080  132.6030   60.1200 C   0  0  0  0  0  0  0  0  0  0  0  0
  129.3820  132.7950   58.6780 N   0  0  0  0  0  0  0  0  0  0  0  0
  128.3240  132.6070   57.8270 C   0  0  0  0  0  0  0  0  0  0  0  0
  128.7990  132.9440   56.5680 C   0  0  0  0  0  0  0  0  0  0  0  0
  130.0630  133.3270   56.6040 N   0  0  0  0  0  0  0  0  0  0  0  0
  130.4000  133.2380   57.8690 C   0  0  0  0  0  0  0  0  0  0  0  0
  131.4230  126.7460   61.7050 C   0  0  0  0  0  0  0  0  0  0  0  0
  131.5290  125.9550   62.8610 C   0  0  0  0  0  0  0  0  0  0  0  0
  132.7360  125.5160   63.3790 O   0  0  0  0  0  0  0  0  0  0  0  0
  133.4500  124.4760   62.7170 C   0  0  0  0  0  0  0  0  0  0  0  0
  133.1580  123.1520   63.4280 C   0  0  0  0  0  0  0  0  0  0  0  0
  129.5423  126.3013   68.7757 H   0  0  0  0  0  0  0  0  0  0  0  0
  130.1752  127.2650   67.3982 H   0  0  0  0  0  0  0  0  0  0  0  0
  128.4656  126.7137   67.3982 H   0  0  0  0  0  0  0  0  0  0  0  0
  130.3169  124.4605   67.7215 H   0  0  0  0  0  0  0  0  0  0  0  0
  129.0171  124.7524   66.4776 H   0  0  0  0  0  0  0  0  0  0  0  0
  131.1246  126.4675   65.7410 H   0  0  0  0  0  0  0  0  0  0  0  0
  131.9288  124.9349   66.1980 H   0  0  0  0  0  0  0  0  0  0  0  0
  128.1979  125.7131   63.5990 H   0  0  0  0  0  0  0  0  0  0  0  0
  128.0399  127.1359   61.5700 H   0  0  0  0  0  0  0  0  0  0  0  0
  129.0180  127.8396   59.6901 H   0  0  0  0  0  0  0  0  0  0  0  0
  128.6408  125.6773   57.8814 H   0  0  0  0  0  0  0  0  0  0  0  0
  127.3755  123.7701   58.8652 H   0  0  0  0  0  0  0  0  0  0  0  0
  132.1433  124.5463   60.1614 H   0  0  0  0  0  0  0  0  0  0  0  0
  130.7854  120.8561   62.5608 H   0  0  0  0  0  0  0  0  0  0  0  0
  129.7421  122.2918   62.8855 H   0  0  0  0  0  0  0  0  0  0  0  0
  129.5128  120.4029   60.4698 H   0  0  0  0  0  0  0  0  0  0  0  0
  128.4063  120.4543   61.8937 H   0  0  0  0  0  0  0  0  0  0  0  0
  132.9170  128.3330   57.1840 H   0  0  0  0  0  0  0  0  0  0  0  0
  128.9886  129.6123   61.8011 H   0  0  0  0  0  0  0  0  0  0  0  0
  130.3433  130.8380   61.7565 H   0  0  0  0  0  0  0  0  0  0  0  0
  128.2395  130.8641   59.5997 H   0  0  0  0  0  0  0  0  0  0  0  0
  127.8924  131.5762   61.2380 H   0  0  0  0  0  0  0  0  0  0  0  0
  128.9177  133.4586   60.6074 H   0  0  0  0  0  0  0  0  0  0  0  0
  130.4550  132.5263   60.4484 H   0  0  0  0  0  0  0  0  0  0  0  0
  127.3125  132.2620   58.0873 H   0  0  0  0  0  0  0  0  0  0  0  0
  128.1955  132.8979   55.6495 H   0  0  0  0  0  0  0  0  0  0  0  0
  131.4015  133.4936   58.2455 H   0  0  0  0  0  0  0  0  0  0  0  0
  132.3341  127.0315   61.1587 H   0  0  0  0  0  0  0  0  0  0  0  0
  133.1244  124.4128   61.6682 H   0  0  0  0  0  0  0  0  0  0  0  0
  134.5294  124.6861   62.7436 H   0  0  0  0  0  0  0  0  0  0  0  0
  133.1918  123.3052   64.5167 H   0  0  0  0  0  0  0  0  0  0  0  0
  132.1591  122.7932   63.1391 H   0  0  0  0  0  0  0  0  0  0  0  0
  133.9133  122.4063   63.1391 H   0  0  0  0  0  0  0  0  0  0  0  0
  1  2  1  0
  2  3  1  0
  3  4  1  0
  4  5  1  0
  5  6  2  0
  6  7  1  0
  7  8  2  0
  8  9  1  0
  9 10  1  0
 10 11  1  0
 11 12  2  0
 11 13  1  0
 13 14  2  0
 14 15  1  0
 15 16  2  0
 16 17  1  0
 17 18  2  0
 17 19  1  0
 19 20  1  0
 20 21  1  0
 21 22  1  0
 10 23  2  0
 23 24  1  0
 23 25  1  0
 25 26  2  0
 25 27  1  0
 27 28  1  0
 28 29  1  0
 29 30  1  0
 30 31  1  0
 31 32  1  0
 32 33  2  0
 33 34  1  0
 34 35  2  0
  8 36  1  0
 36 37  2  0
 37 38  1  0
 38 39  1  0
 39 40  1  0
 37  5  1  0
 27  9  1  0
 35 31  1  0
 18 13  1  0
 22 16  1  0
  1 41  1  0
  1 42  1  0
  1 43  1  0
  2 44  1  0
  2 45  1  0
  3 46  1  0
  3 47  1  0
  6 48  1  0
  7 49  1  0
  9 50  1  6
 14 51  1  0
 15 52  1  0
 18 53  1  0
 20 54  1  0
 20 55  1  0
 21 56  1  0
 21 57  1  0
 24 58  1  0
 28 59  1  0
 28 60  1  0
 29 61  1  0
 29 62  1  0
 30 63  1  0
 30 64  1  0
 32 65  1  0
 33 66  1  0
 35 67  1  0
 36 68  1  0
 39 69  1  0
 39 70  1  0
 40 71  1  0
 40 72  1  0
 40 73  1  0
M  END
>  <Binding energies>  (1) 
[-5.87]

>  <Ligand effiencies>  (1) 
[-0.1431707317073171]

>  <Interactions>  (1) 
["V-B:PRO:540:CA:9855, V-A:GLY:454:CA:4049, V-B:GLU:543:CB:9878, V-B:ALA:541:CB:9864, H-A:TYR:531:OH:4795, V-A:TYR:484:CE2:4346, V-B:TYR:539:CE2:9848, V-B:GLU:543:CG:9879, V-B:TYR:539:C:9839, V-A:ASP:366:CG:3213, V-A:TYR:539:CD1:4873, H-B:TYR:539:OH:9850, H-B:ALA:541:N:9863, V-A:TYR:539:CA:4869, V-B:GLU:543:CA:9876, V-A:HIS:456:CE1:4070, V-B:TYR:539:CD2:9846, V-B:GLU:543:CD:9880, V-A:MET:535:CE:4835, V-A:TYR:539:C:4867, V-A:ASP:366:CB:3212, V-A:LEU:475:CD2:4259, H-A:ARG:545:NH2:4928, V-A:ARG:545:CZ:4926, V-A:PRO:540:N:4884, V-A:TYR:539:CG:4872, H-A:TYR:539:N:4870, V-A:PRO:540:CB:4885, V-A:PRO:540:CA:4883, V-B:PRO:540:C:9853, H-A:ASP:366:OD2:3215, V-A:PRO:540:CD:4887, V-A:TYR:539:CE1:4875"]

$$$$
ZINC102886943-again1
     RDKit          3D

 73 77  0  0  0  0  0  0  0  0999 V2000
  129.1010  123.3930   59.2680 C   0  0  0  0  0  0  0  0  0  0  0  0
  128.1670  123.3630   58.0500 C   0  0  0  0  0  0  0  0  0  0  0  0
  127.6910  124.7600   57.6260 C   0  0  0  0  0  0  0  0  0  0  0  0
  128.7350  125.3870   56.8870 O   0  0  0  0  0  0  0  0  0  0  0  0
  129.0460  126.7130   57.1290 C   0  0  0  0  0  0  0  0  0  0  0  0
  128.4990  127.7880   56.4070 C   0  0  0  0  0  0  0  0  0  0  0  0
  128.8420  129.1010   56.7170 C   0  0  0  0  0  0  0  0  0  0  0  0
  129.7440  129.3670   57.7490 C   0  0  0  0  0  0  0  0  0  0  0  0
  130.0810  130.8030   58.1580 C   0  0  2  0  0  0  0  0  0  0  0  0
  128.9100  131.7730   58.1520 C   0  0  0  0  0  0  0  0  0  0  0  0
  127.6220  131.5020   58.7160 C   0  0  0  0  0  0  0  0  0  0  0  0
  126.6090  131.2320   57.9870 O   0  0  0  0  0  0  0  0  0  0  0  0
  127.5570  131.3970   60.1350 C   0  0  0  0  0  0  0  0  0  0  0  0
  127.4190  132.5460   60.9310 C   0  0  0  0  0  0  0  0  0  0  0  0
  127.4090  132.4530   62.3240 C   0  0  0  0  0  0  0  0  0  0  0  0
  127.5300  131.2060   62.9330 C   0  0  0  0  0  0  0  0  0  0  0  0
  127.6540  130.0490   62.1480 C   0  0  0  0  0  0  0  0  0  0  0  0
  127.6390  130.1410   60.7580 C   0  0  0  0  0  0  0  0  0  0  0  0
  127.7560  128.7930   62.7080 O   0  0  0  0  0  0  0  0  0  0  0  0
  128.2110  128.8020   64.0640 C   0  0  0  0  0  0  0  0  0  0  0  0
  127.4420  129.8670   64.8810 C   0  0  0  0  0  0  0  0  0  0  0  0
  127.6120  131.1700   64.3110 O   0  0  0  0  0  0  0  0  0  0  0  0
  129.3310  132.9690   57.5300 C   0  0  0  0  0  0  0  0  0  0  0  0
  128.7340  134.0820   57.3660 O   0  0  0  0  0  0  0  0  0  0  0  0
  130.7890  132.7290   57.0070 C   0  0  0  0  0  0  0  0  0  0  0  0
  131.4970  133.5600   56.4360 O   0  0  0  0  0  0  0  0  0  0  0  0
  131.0650  131.4400   57.2890 N   0  0  0  0  0  0  0  0  0  0  0  0
  132.3720  130.8460   56.9940 C   0  0  0  0  0  0  0  0  0  0  0  0
  133.1030  130.3220   58.2420 C   0  0  0  0  0  0  0  0  0  0  0  0
  133.6790  131.4670   59.0960 C   0  0  0  0  0  0  0  0  0  0  0  0
  133.0380  131.5260   60.4020 N   0  0  0  0  0  0  0  0  0  0  0  0
  131.6960  131.2820   60.6690 C   0  0  0  0  0  0  0  0  0  0  0  0
  131.4810  131.4560   62.0330 C   0  0  0  0  0  0  0  0  0  0  0  0
  132.6950  131.8130   62.5900 N   0  0  0  0  0  0  0  0  0  0  0  0
  133.6470  131.8590   61.5960 C   0  0  0  0  0  0  0  0  0  0  0  0
  130.3040  128.3020   58.4570 C   0  0  0  0  0  0  0  0  0  0  0  0
  129.9560  126.9740   58.1650 C   0  0  0  0  0  0  0  0  0  0  0  0
  130.4510  125.8820   58.8580 O   0  0  0  0  0  0  0  0  0  0  0  0
  131.7310  125.9600   59.4780 C   0  0  0  0  0  0  0  0  0  0  0  0
  132.6030  124.8140   58.9570 C   0  0  0  0  0  0  0  0  0  0  0  0
  128.5017  123.3737   60.1902 H   0  0  0  0  0  0  0  0  0  0  0  0
  129.7641  122.5157   59.2433 H   0  0  0  0  0  0  0  0  0  0  0  0
  129.7064  124.3111   59.2433 H   0  0  0  0  0  0  0  0  0  0  0  0
  128.7047  122.9047   57.2069 H   0  0  0  0  0  0  0  0  0  0  0  0
  127.2761  122.7827   58.3321 H   0  0  0  0  0  0  0  0  0  0  0  0
  126.7927  124.6712   56.9973 H   0  0  0  0  0  0  0  0  0  0  0  0
  127.4442  125.3603   58.5141 H   0  0  0  0  0  0  0  0  0  0  0  0
  127.7921  127.5894   55.5880 H   0  0  0  0  0  0  0  0  0  0  0  0
  128.4009  129.9319   56.1469 H   0  0  0  0  0  0  0  0  0  0  0  0
  130.4537  130.6422   59.1804 H   0  0  0  0  0  0  0  0  0  0  0  0
  127.3176  133.5307   60.4512 H   0  0  0  0  0  0  0  0  0  0  0  0
  127.3061  133.3601   62.9377 H   0  0  0  0  0  0  0  0  0  0  0  0
  127.6915  129.2278   60.1470 H   0  0  0  0  0  0  0  0  0  0  0  0
  128.0422  127.8108   64.5100 H   0  0  0  0  0  0  0  0  0  0  0  0
  129.2838  129.0445   64.0800 H   0  0  0  0  0  0  0  0  0  0  0  0
  126.3717  129.6131   64.8863 H   0  0  0  0  0  0  0  0  0  0  0  0
  127.8396  129.8776   65.9066 H   0  0  0  0  0  0  0  0  0  0  0  0
  132.2241  130.0064   56.2988 H   0  0  0  0  0  0  0  0  0  0  0  0
  132.9983  131.6401   56.5614 H   0  0  0  0  0  0  0  0  0  0  0  0
  132.3934  129.7452   58.8533 H   0  0  0  0  0  0  0  0  0  0  0  0
  133.9410  129.6935   57.9063 H   0  0  0  0  0  0  0  0  0  0  0  0
  134.7581  131.3039   59.2334 H   0  0  0  0  0  0  0  0  0  0  0  0
  133.4928  132.4173   58.5742 H   0  0  0  0  0  0  0  0  0  0  0  0
  130.9335  130.9994   59.9282 H   0  0  0  0  0  0  0  0  0  0  0  0
  130.5269  131.3329   62.5663 H   0  0  0  0  0  0  0  0  0  0  0  0
  132.8580  132.0110   63.5690 H   0  0  0  0  0  0  0  0  0  0  0  0
  134.7081  132.1163   61.7298 H   0  0  0  0  0  0  0  0  0  0  0  0
  131.0303  128.5071   59.2573 H   0  0  0  0  0  0  0  0  0  0  0  0
  132.2020  126.9235   59.2334 H   0  0  0  0  0  0  0  0  0  0  0  0
  131.6227  125.8803   60.5698 H   0  0  0  0  0  0  0  0  0  0  0  0
  133.0254  124.2588   59.8075 H   0  0  0  0  0  0  0  0  0  0  0  0
  131.9902  124.1361   58.3446 H   0  0  0  0  0  0  0  0  0  0  0  0
  133.4197  125.2239   58.3446 H   0  0  0  0  0  0  0  0  0  0  0  0
  1  2  1  0
  2  3  1  0
  3  4  1  0
  4  5  1  0
  5  6  2  0
  6  7  1  0
  7  8  2  0
  8  9  1  0
  9 10  1  0
 10 11  1  0
 11 12  2  0
 11 13  1  0
 13 14  2  0
 14 15  1  0
 15 16  2  0
 16 17  1  0
 17 18  2  0
 17 19  1  0
 19 20  1  0
 20 21  1  0
 21 22  1  0
 10 23  2  0
 23 24  1  0
 23 25  1  0
 25 26  2  0
 25 27  1  0
 27 28  1  0
 28 29  1  0
 29 30  1  0
 30 31  1  0
 31 32  1  0
 32 33  2  0
 33 34  1  0
 34 35  2  0
  8 36  1  0
 36 37  2  0
 37 38  1  0
 38 39  1  0
 39 40  1  0
 37  5  1  0
 27  9  1  0
 35 31  1  0
 18 13  1  0
 22 16  1  0
  1 41  1  0
  1 42  1  0
  1 43  1  0
  2 44  1  0
  2 45  1  0
  3 46  1  0
  3 47  1  0
  6 48  1  0
  7 49  1  0
  9 50  1  1
 14 51  1  0
 15 52  1  0
 18 53  1  0
 20 54  1  0
 20 55  1  0
 21 56  1  0
 21 57  1  0
 28 58  1  0
 28 59  1  0
 29 60  1  0
 29 61  1  0
 30 62  1  0
 30 63  1  0
 32 64  1  0
 33 65  1  0
 34 66  1  0
 35 67  1  0
 36 68  1  0
 39 69  1  0
 39 70  1  0
 40 71  1  0
 40 72  1  0
 40 73  1  0
M  CHG  2  24  -1  34   1
M  END
>  <Binding energies>  (1) 
[-7.13]

>  <Ligand effiencies>  (1) 
[-0.17390243902439023]

>  <Interactions>  (1) 
["V-A:ALA:541:C:4888, V-A:ILE:538:CB:4862, H-A:ALA:541:O:4889, V-B:TYR:539:CE2:9848, V-A:ASP:366:CG:3213, V-A:ASN:362:CB:3176, V-A:TYR:539:CD1:4873, V-A:LEU:363:CD1:3189, V-A:LEU:363:CB:3187, V-B:TYR:539:CZ:9849, V-A:LEU:363:CG:3188, V-A:TYR:531:CE2:4793, H-B:TYR:539:OH:9850, V-A:GLU:543:CD:4908, H-B:TYR:484:OH:9319, V-B:TYR:539:CD2:9846, V-A:TYR:531:CZ:4794, V-A:GLU:543:CG:4907, V-A:MET:535:CE:4835, V-B:GLU:543:CD:9880, V-A:TYR:539:C:4867, V-A:ASP:366:CB:3212, V-A:ASN:362:C:3172, H-A:GLU:543:OE1:4909, V-A:PRO:540:N:4884, H-A:TYR:539:N:4870, V-A:PRO:540:CB:4885, V-A:LEU:363:CA:3185, V-A:PRO:540:CA:4883, V-A:TYR:539:CE1:4875"]

$$$$
ZINC102895390
     RDKit          3D

 61 62  0  0  0  0  0  0  0  0999 V2000
  132.0960  130.1300   61.6520 N   0  0  0  0  0  0  0  0  0  0  0  0
  130.8740  130.0570   60.7810 C   0  0  1  0  0  0  0  0  0  0  0  0
  130.5730  128.6290   60.2580 C   0  0  0  0  0  0  0  0  0  0  0  0
  130.1400  127.4930   61.6090 S   0  0  0  0  0  0  0  0  0  0  0  0
  129.7820  130.6150   61.6820 C   0  0  0  0  0  0  0  0  0  0  0  0
  128.6670  130.0980   61.7840 O   0  0  0  0  0  0  0  0  0  0  0  0
  130.2730  132.1780   62.5360 S   0  0  0  0  0  0  0  0  0  0  0  0
  128.6890  133.1000   62.5200 C   0  0  1  0  0  0  0  0  0  0  0  0
  127.9350  132.9330   61.2230 C   0  0  0  0  0  0  0  0  0  0  0  0
  126.7000  132.1320   61.5800 C   0  0  0  0  0  0  0  0  0  0  0  0
  125.8640  131.7330   60.7690 O   0  0  0  0  0  0  0  0  0  0  0  0
  126.7030  131.9610   62.9250 N   0  0  0  0  0  0  0  0  0  0  0  0
  125.6260  131.2570   63.6340 C   0  0  0  0  0  0  0  0  0  0  0  0
  125.8970  129.7510   63.8110 C   0  0  0  0  0  0  0  0  0  0  0  0
  127.3600  129.4570   64.1850 C   0  0  0  0  0  0  0  0  0  0  0  0
  127.5710  129.3160   65.7030 C   0  0  0  0  0  0  0  0  0  0  0  0
  128.4140  128.0820   66.0820 C   0  0  0  0  0  0  0  0  0  0  0  0
  128.0380  127.4830   67.3600 N   0  0  0  0  0  0  0  0  0  0  0  0
  128.7930  127.5190   68.4750 C   0  0  0  0  0  0  0  0  0  0  0  0
  129.8850  128.0840   68.5060 O   0  0  0  0  0  0  0  0  0  0  0  0
  128.2720  126.8570   69.7710 C   0  0  0  0  0  0  0  0  0  0  0  0
  128.2730  127.7400   70.9440 N   0  0  0  0  0  0  0  0  0  0  0  0
  128.4810  127.3470   72.2160 C   0  0  0  0  0  0  0  0  0  0  0  0
  128.6870  126.1710   72.5260 O   0  0  0  0  0  0  0  0  0  0  0  0
  128.4170  128.4270   73.2750 C   0  0  0  0  0  0  0  0  0  0  0  0
  127.7680  128.2230   74.5050 C   0  0  0  0  0  0  0  0  0  0  0  0
  127.7200  129.2350   75.4630 C   0  0  0  0  0  0  0  0  0  0  0  0
  128.3160  130.4680   75.2070 C   0  0  0  0  0  0  0  0  0  0  0  0
  128.9590  130.6900   73.9910 C   0  0  0  0  0  0  0  0  0  0  0  0
  129.8520  132.5410   73.6010 I   0  0  0  0  0  0  0  0  0  0  0  0
  129.0080  129.6770   73.0310 C   0  0  0  0  0  0  0  0  0  0  0  0
  127.7630  132.5070   63.5710 C   0  0  0  0  0  0  0  0  0  0  0  0
  127.9830  132.5150   64.7830 O   0  0  0  0  0  0  0  0  0  0  0  0
  131.8470  130.5470   62.5370 H   0  0  0  0  0  0  0  0  0  0  0  0
  132.7970  130.6930   61.1910 H   0  0  0  0  0  0  0  0  0  0  0  0
  132.4490  129.1960   61.8010 H   0  0  0  0  0  0  0  0  0  0  0  0
  130.9844  130.6244   59.8451 H   0  0  0  0  0  0  0  0  0  0  0  0
  129.7317  128.6787   59.5511 H   0  0  0  0  0  0  0  0  0  0  0  0
  131.4799  128.2464   59.7669 H   0  0  0  0  0  0  0  0  0  0  0  0
  129.9300  128.4360   62.5320 H   0  0  0  0  0  0  0  0  0  0  0  0
  128.9459  134.1563   62.6879 H   0  0  0  0  0  0  0  0  0  0  0  0
  127.6530  133.9136   60.8121 H   0  0  0  0  0  0  0  0  0  0  0  0
  128.5430  132.4301   60.4566 H   0  0  0  0  0  0  0  0  0  0  0  0
  125.5086  131.7101   64.6294 H   0  0  0  0  0  0  0  0  0  0  0  0
  124.7156  131.3552   63.0244 H   0  0  0  0  0  0  0  0  0  0  0  0
  125.2446  129.3663   64.6087 H   0  0  0  0  0  0  0  0  0  0  0  0
  125.6919  129.2586   62.8490 H   0  0  0  0  0  0  0  0  0  0  0  0
  127.6651  128.5185   63.6991 H   0  0  0  0  0  0  0  0  0  0  0  0
  127.9665  130.3090   63.8442 H   0  0  0  0  0  0  0  0  0  0  0  0
  128.0836  130.2171   66.0708 H   0  0  0  0  0  0  0  0  0  0  0  0
  126.5796  129.1910   66.1628 H   0  0  0  0  0  0  0  0  0  0  0  0
  128.2930  127.3238   65.2943 H   0  0  0  0  0  0  0  0  0  0  0  0
  129.4552  128.4226   66.1810 H   0  0  0  0  0  0  0  0  0  0  0  0
  127.1510  127.0020   67.3880 H   0  0  0  0  0  0  0  0  0  0  0  0
  127.2399  126.5199   69.5946 H   0  0  0  0  0  0  0  0  0  0  0  0
  128.9593  126.0292   69.9997 H   0  0  0  0  0  0  0  0  0  0  0  0
  128.1020  128.7180   70.7630 H   0  0  0  0  0  0  0  0  0  0  0  0
  127.2923  127.2535   74.7143 H   0  0  0  0  0  0  0  0  0  0  0  0
  127.2109  129.0596   76.4222 H   0  0  0  0  0  0  0  0  0  0  0  0
  128.2790  131.2653   75.9640 H   0  0  0  0  0  0  0  0  0  0  0  0
  129.5155  129.8605   72.0725 H   0  0  0  0  0  0  0  0  0  0  0  0
  1  2  1  0
  2  3  1  0
  3  4  1  0
  2  5  1  0
  5  6  2  0
  5  7  1  0
  7  8  1  0
  8  9  1  0
  9 10  1  0
 10 11  2  0
 10 12  1  0
 12 13  1  0
 13 14  1  0
 14 15  1  0
 15 16  1  0
 16 17  1  0
 17 18  1  0
 18 19  1  0
 19 20  2  0
 19 21  1  0
 21 22  1  0
 22 23  1  0
 23 24  2  0
 23 25  1  0
 25 26  2  0
 26 27  1  0
 27 28  2  0
 28 29  1  0
 29 30  1  0
 29 31  2  0
 12 32  1  0
 32 33  2  0
 32  8  1  0
 31 25  1  0
  1 34  1  0
  1 35  1  0
  1 36  1  0
  2 37  1  6
  3 38  1  0
  3 39  1  0
  4 40  1  0
  8 41  1  1
  9 42  1  0
  9 43  1  0
 13 44  1  0
 13 45  1  0
 14 46  1  0
 14 47  1  0
 15 48  1  0
 15 49  1  0
 16 50  1  0
 16 51  1  0
 17 52  1  0
 17 53  1  0
 18 54  1  0
 21 55  1  0
 21 56  1  0
 22 57  1  0
 26 58  1  0
 27 59  1  0
 28 60  1  0
 31 61  1  0
M  CHG  1   1   1
M  END
>  <Binding energies>  (1) 
[-8.16]

>  <Ligand effiencies>  (1) 
[-0.20923076923076925]

>  <Interactions>  (1) 
["V-B:GLU:543:C:9874, V-B:HIS:456:CD2:9039, H-A:ALA:541:N:4891, V-B:GLU:543:CB:9878, H-B:LYS:547:NZ:9923, V-B:GLU:543:CG:9879, V-B:LEU:475:CD2:9230, V-A:ASP:366:CG:3213, V-A:ALA:541:CB:4892, V-A:GLU:543:CD:4908, H-B:TYR:484:OH:9319, V-B:HIS:456:CE1:9041, H-B:HIS:456:NE2:9042, V-A:GLU:543:CG:4907, V-B:GLU:543:CD:9880, H-A:GLU:543:OE1:4909, H-A:ASP:366:OD1:3214, H-B:GLU:543:OE2:9882, V-A:LYS:547:CE:4950, H-A:ASP:366:OD2:3215, H-A:GLU:543:O:4903"]

$$$$
ZINC102960513
     RDKit          3D

 64 67  0  0  0  0  0  0  0  0999 V2000
  130.8970  118.8940   60.9160 C   0  0  0  0  0  0  0  0  0  0  0  0
  130.9620  120.2560   60.5070 O   0  0  0  0  0  0  0  0  0  0  0  0
  131.9340  121.0830   61.0430 C   0  0  0  0  0  0  0  0  0  0  0  0
  131.6640  122.1270   61.9470 C   0  0  0  0  0  0  0  0  0  0  0  0
  132.6870  122.9360   62.4540 C   0  0  0  0  0  0  0  0  0  0  0  0
  132.3310  124.0310   63.3830 C   0  0  0  0  0  0  0  0  0  0  0  0
  131.3720  123.9920   64.3330 C   0  0  0  0  0  0  0  0  0  0  0  0
  131.1000  125.1100   65.2400 C   0  0  0  0  0  0  0  0  0  0  0  0
  131.7000  125.2310   66.3090 O   0  0  0  0  0  0  0  0  0  0  0  0
  130.1300  126.1410   64.8030 C   0  0  0  0  0  0  0  0  0  0  0  0
  129.2410  126.7580   65.6400 C   0  0  0  0  0  0  0  0  0  0  0  0
  129.2120  126.6190   67.1000 C   0  0  0  0  0  0  0  0  0  0  0  0
  129.0650  127.6210   67.9950 C   0  0  0  0  0  0  0  0  0  0  0  0
  128.9890  127.4640   69.4620 C   0  0  0  0  0  0  0  0  0  0  0  0
  127.8210  126.9410   70.0240 C   0  0  0  0  0  0  0  0  0  0  0  0
  127.7090  126.7840   71.4030 C   0  0  0  0  0  0  0  0  0  0  0  0
  128.7650  127.1450   72.2400 C   0  0  0  0  0  0  0  0  0  0  0  0
  128.6240  126.9780   73.5940 O   0  0  0  0  0  0  0  0  0  0  0  0
  129.9490  127.6690   71.7040 C   0  0  0  0  0  0  0  0  0  0  0  0
  130.9600  128.0040   72.5900 O   0  0  0  0  0  0  0  0  0  0  0  0
  131.6720  126.9730   73.2640 C   0  0  0  0  0  0  0  0  0  0  0  0
  130.0460  127.8240   70.3100 C   0  0  0  0  0  0  0  0  0  0  0  0
  128.3420  127.6450   65.1200 N   0  0  0  0  0  0  0  0  0  0  0  0
  128.4170  128.2090   63.8830 C   0  0  0  0  0  0  0  0  0  0  0  0
  127.7450  129.6820   63.5390 S   0  0  0  0  0  0  0  0  0  0  0  0
  129.2170  127.5550   62.9930 N   0  0  0  0  0  0  0  0  0  0  0  0
  130.0450  126.3500   63.2620 C   0  0  2  0  0  0  0  0  0  0  0  0
  129.5620  125.1100   62.5050 C   0  0  0  0  0  0  0  0  0  0  0  0
  129.9500  124.9100   61.1760 C   0  0  0  0  0  0  0  0  0  0  0  0
  129.5200  123.7790   60.4870 C   0  0  0  0  0  0  0  0  0  0  0  0
  128.7020  122.8490   61.1260 C   0  0  0  0  0  0  0  0  0  0  0  0
  128.2810  121.7370   60.4470 O   0  0  0  0  0  0  0  0  0  0  0  0
  128.3100  123.0410   62.4490 C   0  0  0  0  0  0  0  0  0  0  0  0
  128.7400  124.1710   63.1390 C   0  0  0  0  0  0  0  0  0  0  0  0
  134.0040  122.6880   62.0480 C   0  0  0  0  0  0  0  0  0  0  0  0
  134.2880  121.6590   61.1550 C   0  0  0  0  0  0  0  0  0  0  0  0
  133.2610  120.8610   60.6540 C   0  0  0  0  0  0  0  0  0  0  0  0
  133.5710  119.8570   59.7710 O   0  0  0  0  0  0  0  0  0  0  0  0
  130.8945  118.8408   62.0147 H   0  0  0  0  0  0  0  0  0  0  0  0
  129.9760  118.4372   60.5247 H   0  0  0  0  0  0  0  0  0  0  0  0
  131.7703  118.3516   60.5247 H   0  0  0  0  0  0  0  0  0  0  0  0
  130.6263  122.3112   62.2619 H   0  0  0  0  0  0  0  0  0  0  0  0
  132.9022  124.9666   63.2911 H   0  0  0  0  0  0  0  0  0  0  0  0
  130.7670  123.0785   64.4304 H   0  0  0  0  0  0  0  0  0  0  0  0
  129.3202  125.6021   67.5051 H   0  0  0  0  0  0  0  0  0  0  0  0
  128.9958  128.6437   67.5959 H   0  0  0  0  0  0  0  0  0  0  0  0
  126.9839  126.6512   69.3719 H   0  0  0  0  0  0  0  0  0  0  0  0
  126.7840  126.3736   71.8342 H   0  0  0  0  0  0  0  0  0  0  0  0
  129.3670  127.3240   74.0940 H   0  0  0  0  0  0  0  0  0  0  0  0
  131.5763  127.1116   74.3510 H   0  0  0  0  0  0  0  0  0  0  0  0
  131.2560  125.9948   72.9810 H   0  0  0  0  0  0  0  0  0  0  0  0
  132.7341  127.0155   72.9810 H   0  0  0  0  0  0  0  0  0  0  0  0
  130.9692  128.2357   69.8761 H   0  0  0  0  0  0  0  0  0  0  0  0
  127.7030  128.1350   65.7290 H   0  0  0  0  0  0  0  0  0  0  0  0
  129.2680  127.9840   62.0800 H   0  0  0  0  0  0  0  0  0  0  0  0
  131.0602  126.5158   62.8722 H   0  0  0  0  0  0  0  0  0  0  0  0
  130.5952  125.6467   60.6749 H   0  0  0  0  0  0  0  0  0  0  0  0
  129.8248  123.6201   59.4421 H   0  0  0  0  0  0  0  0  0  0  0  0
  128.9090  121.0130   60.4900 H   0  0  0  0  0  0  0  0  0  0  0  0
  127.6635  122.3029   62.9462 H   0  0  0  0  0  0  0  0  0  0  0  0
  128.4334  124.3262   64.1839 H   0  0  0  0  0  0  0  0  0  0  0  0
  134.8214  123.3121   62.4384 H   0  0  0  0  0  0  0  0  0  0  0  0
  135.3268  121.4748   60.8435 H   0  0  0  0  0  0  0  0  0  0  0  0
  132.7950  119.4240   59.4080 H   0  0  0  0  0  0  0  0  0  0  0  0
  1  2  1  0
  2  3  1  0
  3  4  2  0
  4  5  1  0
  5  6  1  0
  6  7  2  0
  7  8  1  0
  8  9  2  0
  8 10  1  0
 10 11  2  0
 11 12  1  0
 12 13  2  0
 13 14  1  0
 14 15  2  0
 15 16  1  0
 16 17  2  0
 17 18  1  0
 17 19  1  0
 19 20  1  0
 20 21  1  0
 19 22  2  0
 11 23  1  0
 23 24  1  0
 24 25  2  0
 24 26  1  0
 26 27  1  0
 27 28  1  0
 28 29  2  0
 29 30  1  0
 30 31  2  0
 31 32  1  0
 31 33  1  0
 33 34  2  0
  5 35  2  0
 35 36  1  0
 36 37  2  0
 37 38  1  0
 37  3  1  0
 27 10  1  0
 34 28  1  0
 22 14  1  0
  1 39  1  0
  1 40  1  0
  1 41  1  0
  4 42  1  0
  6 43  1  0
  7 44  1  0
 12 45  1  0
 13 46  1  0
 15 47  1  0
 16 48  1  0
 18 49  1  0
 21 50  1  0
 21 51  1  0
 21 52  1  0
 22 53  1  0
 23 54  1  0
 26 55  1  0
 27 56  1  6
 29 57  1  0
 30 58  1  0
 32 59  1  0
 33 60  1  0
 34 61  1  0
 35 62  1  0
 36 63  1  0
 38 64  1  0
M  END
>  <Binding energies>  (1) 
[-7.59]

>  <Ligand effiencies>  (1) 
[-0.17651162790697675]

>  <Interactions>  (1) 
["V-A:ILE:369:CG2:3237, V-A:GLY:454:CA:4049, V-B:GLU:543:C:9874, V-A:ILE:369:CB:3236, V-B:GLU:543:CB:9878, H-B:LYS:547:NZ:9923, V-B:ALA:541:CB:9864, V-B:TYR:539:CE2:9848, V-B:GLU:543:CG:9879, V-A:GLY:544:C:4912, V-A:HIS:456:CD2:4068, H-B:ALA:541:N:9863, V-A:GLU:543:CD:4908, V-B:HIS:456:CE1:9041, V-A:SER:385:C:3405, V-A:ILE:369:CD1:3239, V-A:HIS:456:CE1:4070, V-B:GLY:544:C:9884, V-B:TYR:539:CD2:9846, V-B:GLY:544:CA:9886, V-A:SER:385:CB:3409, H-A:SER:385:OG:3410, V-B:GLU:543:CD:9880, V-A:ILE:369:CG1:3238, H-A:LYS:547:NZ:4951, V-A:LEU:475:CD2:4259, H-A:GLU:543:OE1:4909, V-A:GLU:543:CB:4906, V-A:HIS:456:CG:4066, H-B:GLU:543:OE2:9882, H-B:TYR:539:O:9840, V-A:SER:385:CA:3407, H-A:TYR:484:OH:4348"]

$$$$
ZINC102968104
     RDKit          3D

 75 82  0  0  0  0  0  0  0  0999 V2000
  126.9900  129.1960   62.3520 O   0  0  0  0  0  0  0  0  0  0  0  0
  127.8820  128.4040   62.6710 C   0  0  0  0  0  0  0  0  0  0  0  0
  128.1830  128.2210   64.1500 C   0  0  0  0  0  0  0  0  0  0  0  0
  127.8660  129.2430   65.0480 C   0  0  0  0  0  0  0  0  0  0  0  0
  128.1360  129.1070   66.4050 C   0  0  0  0  0  0  0  0  0  0  0  0
  128.7420  127.9520   66.9250 C   0  0  0  0  0  0  0  0  0  0  0  0
  128.8990  127.8170   68.3060 N   0  0  0  0  0  0  0  0  0  0  0  0
  130.2700  127.6900   68.8350 C   0  0  0  0  0  0  0  0  0  0  0  0
  130.3460  127.9810   70.3490 C   0  0  0  0  0  0  0  0  0  0  0  0
  129.4630  127.1160   71.0510 O   0  0  0  0  0  0  0  0  0  0  0  0
  128.1160  127.2690   70.6260 C   0  0  0  0  0  0  0  0  0  0  0  0
  128.0060  126.9670   69.1160 C   0  0  0  0  0  0  0  0  0  0  0  0
  129.1120  126.9250   66.0180 C   0  0  0  0  0  0  0  0  0  0  0  0
  129.8970  125.7300   66.4280 N   0  0  0  0  0  0  0  0  0  0  0  0
  130.8330  125.3580   65.7250 O   0  0  0  0  0  0  0  0  0  0  0  0
  129.5410  125.1210   67.4320 O   0  0  0  0  0  0  0  0  0  0  0  0
  128.8340  127.0860   64.6510 C   0  0  0  0  0  0  0  0  0  0  0  0
  128.5640  127.6960   61.7230 N   0  0  0  0  0  0  0  0  0  0  0  0
  128.8650  126.3710   61.8250 N   0  0  0  0  0  0  0  0  0  0  0  0
  129.3440  125.9300   60.7330 C   0  0  0  0  0  0  0  0  0  0  0  0
  129.9070  124.6140   60.4640 C   0  0  0  0  0  0  0  0  0  0  0  0
  129.5440  123.5780   61.2640 C   0  0  0  0  0  0  0  0  0  0  0  0
  130.0440  122.1890   61.2290 C   0  0  0  0  0  0  0  0  0  0  0  0
  131.3480  121.9520   60.7520 C   0  0  0  0  0  0  0  0  0  0  0  0
  131.8730  120.6530   60.6850 C   0  0  0  0  0  0  0  0  0  0  0  0
  131.0590  119.6090   61.1070 C   0  0  0  0  0  0  0  0  0  0  0  0
  129.7900  119.8260   61.5630 C   0  0  0  0  0  0  0  0  0  0  0  0
  129.2440  121.1030   61.6320 C   0  0  0  0  0  0  0  0  0  0  0  0
  129.2090  118.6350   61.8620 O   0  0  0  0  0  0  0  0  0  0  0  0
  130.2340  117.6810   61.7790 C   0  0  0  0  0  0  0  0  0  0  0  0
  131.3160  118.2750   61.1110 O   0  0  0  0  0  0  0  0  0  0  0  0
  130.8920  124.4830   59.2850 C   0  0  0  0  0  0  0  0  0  0  0  0
  130.6170  125.4580   58.1230 C   0  0  0  0  0  0  0  0  0  0  0  0
  130.4080  126.8900   58.6370 C   0  0  0  0  0  0  0  0  0  0  0  0
  129.2130  126.9440   59.6170 C   0  0  2  0  0  0  0  0  0  0  0  0
  128.9400  128.2270   60.4010 C   0  0  2  0  0  0  0  0  0  0  0  0
  130.0810  129.2590   60.4430 C   0  0  0  0  0  0  0  0  0  0  0  0
  130.7620  129.5800   59.2520 C   0  0  0  0  0  0  0  0  0  0  0  0
  131.7980  130.5250   59.2410 C   0  0  0  0  0  0  0  0  0  0  0  0
  132.1300  131.1290   60.4480 C   0  0  0  0  0  0  0  0  0  0  0  0
  131.4720  130.8300   61.6070 C   0  0  0  0  0  0  0  0  0  0  0  0
  130.4350  129.9050   61.6440 C   0  0  0  0  0  0  0  0  0  0  0  0
  131.9740  131.5880   62.6170 O   0  0  0  0  0  0  0  0  0  0  0  0
  133.1150  132.2110   62.0900 C   0  0  0  0  0  0  0  0  0  0  0  0
  133.0640  132.0840   60.6930 O   0  0  0  0  0  0  0  0  0  0  0  0
  127.3972  130.1664   64.6770 H   0  0  0  0  0  0  0  0  0  0  0  0
  127.8679  129.9256   67.0892 H   0  0  0  0  0  0  0  0  0  0  0  0
  130.6248  126.6646   68.6541 H   0  0  0  0  0  0  0  0  0  0  0  0
  130.8984  128.4309   68.3192 H   0  0  0  0  0  0  0  0  0  0  0  0
  131.3750  127.8164   70.7012 H   0  0  0  0  0  0  0  0  0  0  0  0
  130.0536  129.0253   70.5330 H   0  0  0  0  0  0  0  0  0  0  0  0
  127.4752  126.5716   71.1854 H   0  0  0  0  0  0  0  0  0  0  0  0
  127.7913  128.3030   70.8139 H   0  0  0  0  0  0  0  0  0  0  0  0
  128.2716  125.9131   68.9463 H   0  0  0  0  0  0  0  0  0  0  0  0
  126.9715  127.1768   68.8065 H   0  0  0  0  0  0  0  0  0  0  0  0
  129.1375  126.2945   63.9500 H   0  0  0  0  0  0  0  0  0  0  0  0
  128.7865  123.8005   62.0300 H   0  0  0  0  0  0  0  0  0  0  0  0
  131.9661  122.8015   60.4260 H   0  0  0  0  0  0  0  0  0  0  0  0
  132.8912  120.4677   60.3123 H   0  0  0  0  0  0  0  0  0  0  0  0
  128.2163  121.2601   61.9912 H   0  0  0  0  0  0  0  0  0  0  0  0
  130.5411  117.3721   62.7891 H   0  0  0  0  0  0  0  0  0  0  0  0
  129.8878  116.7895   61.2355 H   0  0  0  0  0  0  0  0  0  0  0  0
  131.9082  124.6721   59.6613 H   0  0  0  0  0  0  0  0  0  0  0  0
  130.7702  123.4669   58.8817 H   0  0  0  0  0  0  0  0  0  0  0  0
  131.4743  125.4457   57.4338 H   0  0  0  0  0  0  0  0  0  0  0  0
  129.7002  125.1357   57.6076 H   0  0  0  0  0  0  0  0  0  0  0  0
  131.3179  127.2246   59.1567 H   0  0  0  0  0  0  0  0  0  0  0  0
  130.1967  127.5481   57.7813 H   0  0  0  0  0  0  0  0  0  0  0  0
  128.4064  126.7844   58.8863 H   0  0  0  0  0  0  0  0  0  0  0  0
  128.1655  128.8437   59.9216 H   0  0  0  0  0  0  0  0  0  0  0  0
  130.4760  129.0806   58.3145 H   0  0  0  0  0  0  0  0  0  0  0  0
  132.3284  130.7789   58.3114 H   0  0  0  0  0  0  0  0  0  0  0  0
  129.9065  129.6840   62.5831 H   0  0  0  0  0  0  0  0  0  0  0  0
  133.1237  133.2749   62.3694 H   0  0  0  0  0  0  0  0  0  0  0  0
  134.0277  131.7420   62.4863 H   0  0  0  0  0  0  0  0  0  0  0  0
  1  2  2  0
  2  3  1  0
  3  4  2  0
  4  5  1  0
  5  6  2  0
  6  7  1  0
  7  8  1  0
  8  9  1  0
  9 10  1  0
 10 11  1  0
 11 12  1  0
  6 13  1  0
 13 14  1  0
 14 15  2  0
 14 16  1  0
 13 17  2  0
  2 18  1  0
 18 19  1  0
 19 20  2  0
 20 21  1  0
 21 22  2  0
 22 23  1  0
 23 24  2  0
 24 25  1  0
 25 26  2  0
 26 27  1  0
 27 28  2  0
 27 29  1  0
 29 30  1  0
 30 31  1  0
 21 32  1  0
 32 33  1  0
 33 34  1  0
 34 35  1  0
 35 36  1  0
 36 37  1  0
 37 38  2  0
 38 39  1  0
 39 40  2  0
 40 41  1  0
 41 42  2  0
 41 43  1  0
 43 44  1  0
 44 45  1  0
 17  3  1  0
 36 18  1  0
 42 37  1  0
 12  7  1  0
 35 20  1  0
 45 40  1  0
 28 23  1  0
 31 26  1  0
  4 46  1  0
  5 47  1  0
  8 48  1  0
  8 49  1  0
  9 50  1  0
  9 51  1  0
 11 52  1  0
 11 53  1  0
 12 54  1  0
 12 55  1  0
 17 56  1  0
 22 57  1  0
 24 58  1  0
 25 59  1  0
 28 60  1  0
 30 61  1  0
 30 62  1  0
 32 63  1  0
 32 64  1  0
 33 65  1  0
 33 66  1  0
 34 67  1  0
 34 68  1  0
 35 69  1  6
 36 70  1  6
 38 71  1  0
 39 72  1  0
 42 73  1  0
 44 74  1  0
 44 75  1  0
M  CHG  2  14   1  16  -1
M  END
>  <Binding energies>  (1) 
[-8.55]

>  <Ligand effiencies>  (1) 
[-0.19]

>  <Interactions>  (1) 
["V-B:PRO:540:CA:9855, V-A:ALA:541:C:4888, V-B:GLU:543:C:9874, V-B:HIS:456:CD2:9039, V-A:GLU:543:C:4902, H-A:ALA:541:N:4891, V-B:GLU:543:CB:9878, V-A:PRO:540:C:4881, V-B:ALA:541:CB:9864, V-B:TYR:539:CE2:9848, V-A:LEU:475:CG:4257, V-B:GLU:543:CG:9879, V-B:TYR:539:C:9839, V-A:ASN:362:CB:3176, V-B:TYR:539:CZ:9849, H-B:ALA:541:N:9863, V-A:LEU:475:CD1:4258, V-A:GLU:543:CD:4908, V-B:HIS:456:CE1:9041, V-A:HIS:456:CE1:4070, V-A:PRO:482:CB:4326, V-B:TYR:539:CD2:9846, V-A:GLU:543:CG:4907, H-A:SER:385:OG:3410, V-B:GLU:543:CD:9880, V-A:LEU:475:CD2:4259, V-A:GLU:543:CB:4906, H-A:HIS:383:HE2:3395, V-A:PRO:540:CB:4885, V-A:PRO:540:CA:4883, V-A:PRO:482:CG:4327, V-B:PRO:540:C:9853, V-B:ALA:541:CA:9862, H-A:TYR:484:OH:4348"]

$$$$
ZINC102973632
     RDKit          3D

 49 51  0  0  0  0  0  0  0  0999 V2000
  133.7930  124.0120   58.0800 O   0  0  0  0  0  0  0  0  0  0  0  0
  133.3070  123.5760   59.1190 N   0  0  0  0  0  0  0  0  0  0  0  0
  133.2260  122.3800   59.3800 O   0  0  0  0  0  0  0  0  0  0  0  0
  132.7440  124.5360   60.0910 C   0  0  0  0  0  0  0  0  0  0  0  0
  132.8560  124.2590   61.4590 C   0  0  0  0  0  0  0  0  0  0  0  0
  132.3310  125.1280   62.4160 C   0  0  0  0  0  0  0  0  0  0  0  0
  132.3880  124.6860   64.1510 S   0  0  0  0  0  0  0  0  0  0  0  0
  133.0150  123.3660   64.2670 O   0  0  0  0  0  0  0  0  0  0  0  0
  132.9310  125.8350   64.8850 O   0  0  0  0  0  0  0  0  0  0  0  0
  130.6800  124.5080   64.6480 N   0  0  0  0  0  0  0  0  0  0  0  0
  130.0070  125.6140   65.2020 C   0  0  0  0  0  0  0  0  0  0  0  0
  129.4390  126.5840   64.3690 C   0  0  0  0  0  0  0  0  0  0  0  0
  128.7390  127.6620   64.9090 C   0  0  0  0  0  0  0  0  0  0  0  0
  128.5980  127.7800   66.2910 C   0  0  0  0  0  0  0  0  0  0  0  0
  129.1670  126.8260   67.1430 C   0  0  0  0  0  0  0  0  0  0  0  0
  129.0210  126.9260   68.6600 C   0  0  0  0  0  0  0  0  0  0  0  0
  127.7340  127.0770   68.9740 F   0  0  0  0  0  0  0  0  0  0  0  0
  129.4760  125.8100   69.2300 F   0  0  0  0  0  0  0  0  0  0  0  0
  129.6960  127.9590   69.1700 F   0  0  0  0  0  0  0  0  0  0  0  0
  129.8760  125.7560   66.5890 C   0  0  0  0  0  0  0  0  0  0  0  0
  129.7790  122.9810   64.4100 S   0  0  0  0  0  0  0  0  0  0  0  0
  130.7120  122.0050   63.8310 O   0  0  0  0  0  0  0  0  0  0  0  0
  129.0970  122.6840   65.6740 O   0  0  0  0  0  0  0  0  0  0  0  0
  128.4930  123.2770   63.1800 C   0  0  0  0  0  0  0  0  0  0  0  0
  128.7160  123.1000   61.8620 C   0  0  0  0  0  0  0  0  0  0  0  0
  127.7580  123.3060   60.7520 C   0  0  0  0  0  0  0  0  0  0  0  0
  126.4770  123.8480   60.9390 C   0  0  0  0  0  0  0  0  0  0  0  0
  125.6180  124.0180   59.8560 C   0  0  0  0  0  0  0  0  0  0  0  0
  126.0330  123.6470   58.5810 C   0  0  0  0  0  0  0  0  0  0  0  0
  127.3000  123.1080   58.3790 C   0  0  0  0  0  0  0  0  0  0  0  0
  128.1580  122.9370   59.4620 C   0  0  0  0  0  0  0  0  0  0  0  0
  131.6920  126.2990   62.0070 C   0  0  0  0  0  0  0  0  0  0  0  0
  131.5970  126.6020   60.6510 C   0  0  0  0  0  0  0  0  0  0  0  0
  132.1210  125.7340   59.6900 C   0  0  0  0  0  0  0  0  0  0  0  0
  131.9950  126.1990   58.0280 Cl  0  0  0  0  0  0  0  0  0  0  0  0
  133.3666  123.3407   61.7847 H   0  0  0  0  0  0  0  0  0  0  0  0
  129.5457  126.4953   63.2778 H   0  0  0  0  0  0  0  0  0  0  0  0
  128.2979  128.4196   64.2446 H   0  0  0  0  0  0  0  0  0  0  0  0
  128.0371  128.6265   66.7138 H   0  0  0  0  0  0  0  0  0  0  0  0
  130.3391  125.0125   67.2544 H   0  0  0  0  0  0  0  0  0  0  0  0
  127.4997  123.6110   63.5143 H   0  0  0  0  0  0  0  0  0  0  0  0
  129.7246  122.7643   61.5792 H   0  0  0  0  0  0  0  0  0  0  0  0
  126.1493  124.1404   61.9475 H   0  0  0  0  0  0  0  0  0  0  0  0
  124.6153  124.4440   60.0081 H   0  0  0  0  0  0  0  0  0  0  0  0
  125.3543  123.7808   57.7258 H   0  0  0  0  0  0  0  0  0  0  0  0
  127.6222  122.8183   57.3679 H   0  0  0  0  0  0  0  0  0  0  0  0
  129.1585  122.5084   59.3029 H   0  0  0  0  0  0  0  0  0  0  0  0
  131.2636  126.9823   62.7550 H   0  0  0  0  0  0  0  0  0  0  0  0
  131.1049  127.5332   60.3338 H   0  0  0  0  0  0  0  0  0  0  0  0
  1  2  2  0
  2  3  1  0
  2  4  1  0
  4  5  2  0
  5  6  1  0
  6  7  1  0
  7  8  2  0
  7  9  2  0
  7 10  1  0
 10 11  1  0
 11 12  2  0
 12 13  1  0
 13 14  2  0
 14 15  1  0
 15 16  1  0
 16 17  1  0
 16 18  1  0
 16 19  1  0
 15 20  2  0
 10 21  1  0
 21 22  2  0
 21 23  2  0
 21 24  1  0
 24 25  2  0
 25 26  1  0
 26 27  2  0
 27 28  1  0
 28 29  2  0
 29 30  1  0
 30 31  2  0
  6 32  2  0
 32 33  1  0
 33 34  2  0
 34 35  1  0
 34  4  1  0
 20 11  1  0
 31 26  1  0
  5 36  1  0
 12 37  1  0
 13 38  1  0
 14 39  1  0
 20 40  1  0
 24 41  1  0
 25 42  1  0
 27 43  1  0
 28 44  1  0
 29 45  1  0
 30 46  1  0
 31 47  1  0
 32 48  1  0
 33 49  1  0
M  CHG  2   2   1   3  -1
M  END
>  <Binding energies>  (1) 
[-9.02]

>  <Ligand effiencies>  (1) 
[-0.25771428571428573]

>  <Interactions>  (1) 
["V-A:ILE:369:CG2:3237, V-B:PRO:540:CA:9855, V-B:GLU:543:C:9874, V-A:ILE:369:CB:3236, V-B:GLU:543:CB:9878, V-B:ALA:541:CB:9864, V-B:TYR:539:CE2:9848, V-A:TYR:484:CE2:4346, V-B:GLU:543:CG:9879, V-B:TYR:539:C:9839, V-A:ASP:366:CG:3213, V-B:TYR:539:CZ:9849, H-B:TYR:539:OH:9850, V-A:GLU:543:CD:4908, V-B:PRO:540:CB:9857, V-B:HIS:456:CE1:9041, H-A:GLY:454:N:4050, V-B:GLU:543:CA:9876, V-B:PRO:540:N:9856, V-A:HIS:456:CE1:4070, V-B:TYR:539:CD2:9846, V-A:GLU:543:CG:4907, V-B:GLU:543:CD:9880, V-A:ASP:366:CB:3212, H-A:ARG:545:NH2:4928, V-A:ARG:545:CZ:4926, V-A:GLU:543:CB:4906, H-A:ARG:545:NE:4924, H-A:TYR:484:OH:4348"]

$$$$
ZINC102983939
     RDKit          3D

 87 88  0  0  0  0  0  0  0  0999 V2000
  128.8460  132.3360   58.8940 C   0  0  0  0  0  0  0  0  0  0  0  0
  129.1640  133.3190   57.7600 C   0  0  0  0  0  0  0  0  0  0  0  0
  129.8900  132.6560   56.5760 C   0  0  0  0  0  0  0  0  0  0  0  0
  131.4150  132.8550   56.6200 C   0  0  0  0  0  0  0  0  0  0  0  0
  132.1740  131.5850   57.0570 C   0  0  0  0  0  0  0  0  0  0  0  0
  132.2890  131.4090   58.5860 C   0  0  2  0  0  0  0  0  0  0  0  0
  133.6510  131.4090   58.9760 O   0  0  0  0  0  0  0  0  0  0  0  0
  131.5820  130.1510   59.0900 C   0  0  0  0  0  0  0  0  0  0  0  0
  131.7020  128.8950   58.6180 C   0  0  0  0  0  0  0  0  0  0  0  0
  130.9600  127.6900   59.1800 C   0  0  1  0  0  0  0  0  0  0  0  0
  130.1120  126.9950   58.1160 C   0  0  0  0  0  0  0  0  0  0  0  0
  130.9770  125.8950   57.5090 C   0  0  0  0  0  0  0  0  0  0  0  0
  131.9510  125.5090   58.6210 C   0  0  0  0  0  0  0  0  0  0  0  0
  132.6240  124.4800   58.6510 O   0  0  0  0  0  0  0  0  0  0  0  0
  131.9380  126.6120   59.6990 C   0  0  2  0  0  0  0  0  0  0  0  0
  131.5850  125.9950   61.0790 C   0  0  0  0  0  0  0  0  0  0  0  0
  132.5190  124.8570   61.5460 C   0  0  0  0  0  0  0  0  0  0  0  0
  131.7850  123.6090   62.0770 C   0  0  0  0  0  0  0  0  0  0  0  0
  132.1890  123.2400   63.5150 C   0  0  0  0  0  0  0  0  0  0  0  0
  131.0440  123.4340   64.5250 C   0  0  0  0  0  0  0  0  0  0  0  0
  130.3000  124.7700   64.3330 C   0  0  0  0  0  0  0  0  0  0  0  0
  129.8690  125.3820   65.6700 C   0  0  0  0  0  0  0  0  0  0  0  0
  130.0730  124.7700   66.7200 O   0  0  0  0  0  0  0  0  0  0  0  0
  129.2740  126.5910   65.6210 N   0  0  0  0  0  0  0  0  0  0  0  0
  128.7190  127.3740   66.7430 C   0  0  1  0  0  0  0  0  0  0  0  0
  129.8000  127.6050   67.8350 C   0  0  0  0  0  0  0  0  0  0  0  0
  129.2710  127.4750   69.2610 C   0  0  0  0  0  0  0  0  0  0  0  0
  128.0690  126.8140   69.5090 C   0  0  0  0  0  0  0  0  0  0  0  0
  127.5820  126.7090   70.8100 C   0  0  0  0  0  0  0  0  0  0  0  0
  128.2890  127.2610   71.8940 C   0  0  0  0  0  0  0  0  0  0  0  0
  127.8320  127.2080   73.1980 O   0  0  0  0  0  0  0  0  0  0  0  0
  126.7140  127.9980   73.5900 C   0  0  0  0  0  0  0  0  0  0  0  0
  129.5120  127.9180   71.6450 C   0  0  0  0  0  0  0  0  0  0  0  0
  130.3070  128.5150   72.7410 N   0  0  0  0  0  0  0  0  0  0  0  0
  130.2870  129.7330   72.8890 O   0  0  0  0  0  0  0  0  0  0  0  0
  130.9380  127.7570   73.4730 O   0  0  0  0  0  0  0  0  0  0  0  0
  129.9850  128.0190   70.3300 C   0  0  0  0  0  0  0  0  0  0  0  0
  128.1350  128.6990   66.2420 C   0  0  0  0  0  0  0  0  0  0  0  0
  127.6120  129.5120   67.0080 O   0  0  0  0  0  0  0  0  0  0  0  0
  128.3160  128.8860   64.9110 O   0  0  0  0  0  0  0  0  0  0  0  0
  127.2020  128.9280   64.0310 C   0  0  0  0  0  0  0  0  0  0  0  0
  129.0060  132.8305   59.8635 H   0  0  0  0  0  0  0  0  0  0  0  0
  127.7975  132.0128   58.8158 H   0  0  0  0  0  0  0  0  0  0  0  0
  129.5066  131.4599   58.8158 H   0  0  0  0  0  0  0  0  0  0  0  0
  128.2203  133.7507   57.3953 H   0  0  0  0  0  0  0  0  0  0  0  0
  129.8358  134.0878   58.1694 H   0  0  0  0  0  0  0  0  0  0  0  0
  129.6764  131.5771   56.5932 H   0  0  0  0  0  0  0  0  0  0  0  0
  129.5219  133.1321   55.6552 H   0  0  0  0  0  0  0  0  0  0  0  0
  131.7605  133.1423   55.6160 H   0  0  0  0  0  0  0  0  0  0  0  0
  131.6244  133.6372   57.3645 H   0  0  0  0  0  0  0  0  0  0  0  0
  131.6466  130.7105   56.6482 H   0  0  0  0  0  0  0  0  0  0  0  0
  133.2001  131.6831   56.6729 H   0  0  0  0  0  0  0  0  0  0  0  0
  131.7771  132.2643   59.0513 H   0  0  0  0  0  0  0  0  0  0  0  0
  133.8020  130.6570   59.5530 H   0  0  0  0  0  0  0  0  0  0  0  0
  130.8944  130.2873   59.9377 H   0  0  0  0  0  0  0  0  0  0  0  0
  132.3819  128.7287   57.7694 H   0  0  0  0  0  0  0  0  0  0  0  0
  130.3327  128.0908   59.9899 H   0  0  0  0  0  0  0  0  0  0  0  0
  129.2123  126.5589   58.5747 H   0  0  0  0  0  0  0  0  0  0  0  0
  129.7844  127.7085   57.3456 H   0  0  0  0  0  0  0  0  0  0  0  0
  130.3596  125.0325   57.2175 H   0  0  0  0  0  0  0  0  0  0  0  0
  131.4962  126.2288   56.5985 H   0  0  0  0  0  0  0  0  0  0  0  0
  132.9154  127.0882   59.8663 H   0  0  0  0  0  0  0  0  0  0  0  0
  131.6230  126.7972   61.8307 H   0  0  0  0  0  0  0  0  0  0  0  0
  130.5870  125.5460   60.9676 H   0  0  0  0  0  0  0  0  0  0  0  0
  133.1433  124.5523   60.6931 H   0  0  0  0  0  0  0  0  0  0  0  0
  133.1064  125.2571   62.3856 H   0  0  0  0  0  0  0  0  0  0  0  0
  130.7026  123.8036   62.0561 H   0  0  0  0  0  0  0  0  0  0  0  0
  132.0630  122.7639   61.4301 H   0  0  0  0  0  0  0  0  0  0  0  0
  132.4985  122.1846   63.5332 H   0  0  0  0  0  0  0  0  0  0  0  0
  133.0088  123.9110   63.8111 H   0  0  0  0  0  0  0  0  0  0  0  0
  130.3249  122.6104   64.4039 H   0  0  0  0  0  0  0  0  0  0  0  0
  131.4875  123.4429   65.5316 H   0  0  0  0  0  0  0  0  0  0  0  0
  130.9662  125.4769   63.8167 H   0  0  0  0  0  0  0  0  0  0  0  0
  129.3942  124.5734   63.7406 H   0  0  0  0  0  0  0  0  0  0  0  0
  129.1960  127.0390   64.7200 H   0  0  0  0  0  0  0  0  0  0  0  0
  127.8989  126.8002   67.1992 H   0  0  0  0  0  0  0  0  0  0  0  0
  130.6006  126.8642   67.6930 H   0  0  0  0  0  0  0  0  0  0  0  0
  130.1581  128.6385   67.7185 H   0  0  0  0  0  0  0  0  0  0  0  0
  127.5032  126.3739   68.6747 H   0  0  0  0  0  0  0  0  0  0  0  0
  126.6311  126.1870   70.9924 H   0  0  0  0  0  0  0  0  0  0  0  0
  126.6593  128.0367   74.6880 H   0  0  0  0  0  0  0  0  0  0  0  0
  126.8278  129.0173   73.1924 H   0  0  0  0  0  0  0  0  0  0  0  0
  125.7912  127.5503   73.1924 H   0  0  0  0  0  0  0  0  0  0  0  0
  130.9363  128.5364   70.1365 H   0  0  0  0  0  0  0  0  0  0  0  0
  126.2723  128.9631   64.6178 H   0  0  0  0  0  0  0  0  0  0  0  0
  127.2693  129.8242   63.3968 H   0  0  0  0  0  0  0  0  0  0  0  0
  127.2016  128.0292   63.3968 H   0  0  0  0  0  0  0  0  0  0  0  0
  1  2  1  0
  2  3  1  0
  3  4  1  0
  4  5  1  0
  5  6  1  0
  6  7  1  0
  6  8  1  0
  8  9  2  0
  9 10  1  0
 10 11  1  0
 11 12  1  0
 12 13  1  0
 13 14  2  0
 13 15  1  0
 15 16  1  0
 16 17  1  0
 17 18  1  0
 18 19  1  0
 19 20  1  0
 20 21  1  0
 21 22  1  0
 22 23  2  0
 22 24  1  0
 24 25  1  0
 25 26  1  0
 26 27  1  0
 27 28  2  0
 28 29  1  0
 29 30  2  0
 30 31  1  0
 31 32  1  0
 30 33  1  0
 33 34  1  0
 34 35  2  0
 34 36  1  0
 33 37  2  0
 25 38  1  0
 38 39  2  0
 38 40  1  0
 40 41  1  0
 15 10  1  0
 37 27  1  0
  1 42  1  0
  1 43  1  0
  1 44  1  0
  2 45  1  0
  2 46  1  0
  3 47  1  0
  3 48  1  0
  4 49  1  0
  4 50  1  0
  5 51  1  0
  5 52  1  0
  6 53  1  1
  7 54  1  0
  8 55  1  0
  9 56  1  0
 10 57  1  1
 11 58  1  0
 11 59  1  0
 12 60  1  0
 12 61  1  0
 15 62  1  1
 16 63  1  0
 16 64  1  0
 17 65  1  0
 17 66  1  0
 18 67  1  0
 18 68  1  0
 19 69  1  0
 19 70  1  0
 20 71  1  0
 20 72  1  0
 21 73  1  0
 21 74  1  0
 24 75  1  0
 25 76  1  1
 26 77  1  0
 26 78  1  0
 28 79  1  0
 29 80  1  0
 32 81  1  0
 32 82  1  0
 32 83  1  0
 37 84  1  0
 41 85  1  0
 41 86  1  0
 41 87  1  0
M  CHG  2  34   1  36  -1
M  END
>  <Binding energies>  (1) 
[-8.63]

>  <Ligand effiencies>  (1) 
[-0.20069767441860467]

>  <Interactions>  (1) 
["V-B:GLU:543:C:9874, H-A:GLU:543:OE2:4910, V-A:GLU:543:C:4902, V-B:HIS:456:CD2:9039, V-B:GLU:543:CB:9878, H-B:LYS:547:NZ:9923, V-A:ILE:538:CB:4862, V-B:HIS:456:CB:9036, V-B:TYR:539:CE2:9848, V-A:TYR:484:CE2:4346, V-B:GLU:543:CG:9879, V-A:GLY:544:C:4912, V-A:ASP:366:CG:3213, V-A:ILE:538:CG2:4863, V-A:LEU:363:CD1:3189, V-A:TYR:539:CD1:4873, V-B:TYR:539:CZ:9849, V-A:ILE:538:CA:4860, V-A:TYR:531:CE2:4793, H-B:TYR:539:OH:9850, V-B:LYS:547:CE:9922, V-A:TYR:539:CA:4869, V-A:TYR:484:CZ:4347, V-A:GLU:543:CD:4908, H-B:TYR:484:OH:9319, V-B:HIS:456:CE1:9041, V-A:HIS:456:CE1:4070, V-B:GLY:544:C:9884, V-B:GLY:544:CA:9886, V-A:GLU:543:CG:4907, V-A:MET:535:CE:4835, V-B:GLU:543:CD:9880, V-B:HIS:456:CG:9037, V-A:TYR:539:C:4867, V-A:ASP:366:CB:3212, H-A:LYS:547:NZ:4951, V-A:LEU:475:CD2:4259, H-A:GLU:543:OE1:4909, V-A:GLU:543:CB:4906, V-A:PRO:540:N:4884, V-A:TYR:539:CG:4872, H-B:GLU:543:OE2:9882, V-A:PRO:540:CB:4885, V-A:PRO:540:CA:4883, H-A:ASP:366:OD2:3215, V-A:PRO:540:CD:4887, V-A:TYR:539:CE1:4875, H-A:TYR:484:OH:4348"]

$$$$
ZINC103001690-again1
     RDKit          3D

 52 55  0  0  0  0  0  0  0  0999 V2000
  132.2680  125.7170   58.3520 C   0  0  0  0  0  0  0  0  0  0  0  0
  133.4130  124.9680   59.0670 C   0  0  0  0  0  0  0  0  0  0  0  0
  133.6340  123.5990   58.3920 C   0  0  0  0  0  0  0  0  0  0  0  0
  133.1860  124.8070   60.6020 C   0  0  0  0  0  0  0  0  0  0  0  0
  132.5280  123.4740   61.1270 C   0  0  2  0  0  0  0  0  0  0  0  0
  133.6460  122.3960   61.3890 C   0  0  0  0  0  0  0  0  0  0  0  0
  133.5560  121.3200   60.7500 O   0  0  0  0  0  0  0  0  0  0  0  0
  134.5730  122.6170   62.2060 O   0  0  0  0  0  0  0  0  0  0  0  0
  131.5000  122.9720   60.1690 N   0  0  0  0  0  0  0  0  0  0  0  0
  130.1240  123.2710   60.6250 C   0  0  2  0  0  0  0  0  0  0  0  0
  129.2460  123.7980   59.4620 C   0  0  0  0  0  0  0  0  0  0  0  0
  129.3060  125.1670   59.1540 C   0  0  0  0  0  0  0  0  0  0  0  0
  128.5350  125.7160   58.1380 C   0  0  0  0  0  0  0  0  0  0  0  0
  128.6450  127.4020   57.7850 Cl  0  0  0  0  0  0  0  0  0  0  0  0
  127.6740  124.9050   57.4090 C   0  0  0  0  0  0  0  0  0  0  0  0
  127.5710  123.5430   57.6930 C   0  0  0  0  0  0  0  0  0  0  0  0
  126.4520  122.6270   56.7240 Cl  0  0  0  0  0  0  0  0  0  0  0  0
  128.3520  122.9750   58.7260 C   0  0  0  0  0  0  0  0  0  0  0  0
  128.2390  121.7270   58.9860 O   0  0  0  0  0  0  0  0  0  0  0  0
  130.3560  124.2710   61.7500 C   0  0  1  0  0  0  0  0  0  0  0  0
  129.5550  124.3960   63.0300 C   0  0  0  0  0  0  0  0  0  0  0  0
  128.3400  124.2380   63.1470 O   0  0  0  0  0  0  0  0  0  0  0  0
  130.4820  124.8250   63.9580 N   0  0  0  0  0  0  0  0  0  0  0  0
  130.1490  125.3840   65.2210 C   0  0  0  0  0  0  0  0  0  0  0  0
  129.4040  126.5720   65.3000 C   0  0  0  0  0  0  0  0  0  0  0  0
  129.0770  127.1180   66.5380 C   0  0  0  0  0  0  0  0  0  0  0  0
  129.4900  126.4810   67.7050 C   0  0  0  0  0  0  0  0  0  0  0  0
  128.9980  127.3010   69.5650 I   0  0  0  0  0  0  0  0  0  0  0  0
  130.2290  125.3020   67.6440 C   0  0  0  0  0  0  0  0  0  0  0  0
  130.5570  124.7550   66.4080 C   0  0  0  0  0  0  0  0  0  0  0  0
  131.7700  124.6390   63.5060 C   0  0  0  0  0  0  0  0  0  0  0  0
  132.8360  125.0470   63.9670 O   0  0  0  0  0  0  0  0  0  0  0  0
  131.5850  123.7110   62.3270 C   0  0  2  0  0  0  0  0  0  0  0  0
  131.5941  126.1578   59.1013 H   0  0  0  0  0  0  0  0  0  0  0  0
  132.6887  126.5150   57.7226 H   0  0  0  0  0  0  0  0  0  0  0  0
  131.7054  125.0118   57.7226 H   0  0  0  0  0  0  0  0  0  0  0  0
  134.3189  125.5838   58.9658 H   0  0  0  0  0  0  0  0  0  0  0  0
  133.7589  122.8254   59.1640 H   0  0  0  0  0  0  0  0  0  0  0  0
  132.7637  123.3544   57.7653 H   0  0  0  0  0  0  0  0  0  0  0  0
  134.5370  123.6407   57.7653 H   0  0  0  0  0  0  0  0  0  0  0  0
  134.1690  124.8975   61.0873 H   0  0  0  0  0  0  0  0  0  0  0  0
  132.4511  125.5871   60.8499 H   0  0  0  0  0  0  0  0  0  0  0  0
  131.6580  123.4210   59.2790 H   0  0  0  0  0  0  0  0  0  0  0  0
  129.5569  122.3966   60.9770 H   0  0  0  0  0  0  0  0  0  0  0  0
  129.9788  125.8189   59.7305 H   0  0  0  0  0  0  0  0  0  0  0  0
  127.0682  125.3407   56.6008 H   0  0  0  0  0  0  0  0  0  0  0  0
  130.1986  125.2360   61.2460 H   0  0  0  0  0  0  0  0  0  0  0  0
  129.0768  127.0742   64.3776 H   0  0  0  0  0  0  0  0  0  0  0  0
  128.4944  128.0494   66.5940 H   0  0  0  0  0  0  0  0  0  0  0  0
  130.5523  124.8050   68.5705 H   0  0  0  0  0  0  0  0  0  0  0  0
  131.1399  123.8234   66.3602 H   0  0  0  0  0  0  0  0  0  0  0  0
  131.7074  122.7191   62.7865 H   0  0  0  0  0  0  0  0  0  0  0  0
  1  2  1  0
  2  3  1  0
  2  4  1  0
  5  4  1  6
  5  6  1  0
  6  7  2  0
  6  8  1  0
  5  9  1  0
  9 10  1  0
 10 11  1  0
 11 12  2  0
 12 13  1  0
 13 14  1  0
 13 15  2  0
 15 16  1  0
 16 17  1  0
 16 18  2  0
 18 19  1  0
 10 20  1  0
 20 21  1  0
 21 22  2  0
 21 23  1  0
 23 24  1  0
 24 25  2  0
 25 26  1  0
 26 27  2  0
 27 28  1  0
 27 29  1  0
 29 30  2  0
 23 31  1  0
 31 32  2  0
 31 33  1  0
 33  5  1  0
 18 11  1  0
 33 20  1  0
 30 24  1  0
  1 34  1  0
  1 35  1  0
  1 36  1  0
  2 37  1  0
  3 38  1  0
  3 39  1  0
  3 40  1  0
  4 41  1  0
  4 42  1  0
  9 43  1  0
 10 44  1  1
 12 45  1  0
 15 46  1  0
 20 47  1  6
 25 48  1  0
 26 49  1  0
 29 50  1  0
 30 51  1  0
 33 52  1  1
M  CHG  2   8  -1  19  -1
M  END
>  <Binding energies>  (1) 
[-7.42]

>  <Ligand effiencies>  (1) 
[-0.21823529411764706]

>  <Interactions>  (1) 
["V-A:ILE:369:CG2:3237, V-A:ASP:366:CA:3210, V-B:PRO:540:CA:9855, V-A:ILE:369:CB:3236, V-B:GLU:543:CB:9878, V-B:TYR:539:CE2:9848, V-A:TYR:484:CE2:4346, V-B:GLU:543:CG:9879, V-B:TYR:539:C:9839, V-A:ASP:366:CG:3213, V-B:TYR:539:CZ:9849, H-B:TYR:539:OH:9850, V-A:GLU:543:CD:4908, V-A:TYR:484:CZ:4347, V-B:HIS:456:CE1:9041, H-A:GLY:454:N:4050, V-B:PRO:540:N:9856, V-A:ILE:369:CD1:3239, V-A:HIS:456:CE1:4070, V-A:ASP:366:C:3208, V-B:TYR:539:CD2:9846, V-B:PRO:540:CD:9859, H-A:SER:385:OG:3410, V-B:GLU:543:CD:9880, V-A:ASP:366:CB:3212, H-A:ARG:545:NH2:4928"]

$$$$
ZINC103009662
     RDKit          3D

 36 35  0  0  0  0  0  0  0  0999 V2000
  129.8590  117.9460   61.9800 C   0  0  0  0  0  0  0  0  0  0  0  0
  130.4890  117.3840   60.6980 C   0  0  0  0  0  0  0  0  0  0  0  0
  131.3230  118.4260   59.9320 C   0  0  0  0  0  0  0  0  0  0  0  0
  131.2930  119.8190   60.5910 C   0  0  0  0  0  0  0  0  0  0  0  0
  132.6250  120.5870   60.5110 C   0  0  0  0  0  0  0  0  0  0  0  0
  132.7990  121.6740   61.5900 C   0  0  0  0  0  0  0  0  0  0  0  0
  134.1990  122.3120   61.5760 C   0  0  0  0  0  0  0  0  0  0  0  0
  134.1870  123.7810   61.1050 C   0  0  0  0  0  0  0  0  0  0  0  0
  132.8270  124.3340   61.0440 N   0  0  0  0  0  0  0  0  0  0  0  0
  132.5880  125.0320   59.7760 C   0  0  0  0  0  0  0  0  0  0  0  0
  133.3390  124.4380   58.6530 C   0  0  0  0  0  0  0  0  0  0  0  0
  133.9280  123.9720   57.7730 N   0  0  0  0  0  0  0  0  0  0  0  0
  132.5350  125.2470   62.1580 C   0  0  0  0  0  0  0  0  0  0  0  0
  133.3190  124.9410   63.3690 C   0  0  0  0  0  0  0  0  0  0  0  0
  133.9320  124.7050   64.3220 N   0  0  0  0  0  0  0  0  0  0  0  0
  130.3549  117.5037   62.8566 H   0  0  0  0  0  0  0  0  0  0  0  0
  129.9832  119.0388   62.0010 H   0  0  0  0  0  0  0  0  0  0  0  0
  128.7875  117.6983   62.0010 H   0  0  0  0  0  0  0  0  0  0  0  0
  131.1428  116.5418   60.9686 H   0  0  0  0  0  0  0  0  0  0  0  0
  129.6673  117.0698   60.0376 H   0  0  0  0  0  0  0  0  0  0  0  0
  132.3662  118.0794   59.8909 H   0  0  0  0  0  0  0  0  0  0  0  0
  130.8854  118.5260   58.9278 H   0  0  0  0  0  0  0  0  0  0  0  0
  130.5186  120.4197   60.0916 H   0  0  0  0  0  0  0  0  0  0  0  0
  131.0864  119.6575   61.6593 H   0  0  0  0  0  0  0  0  0  0  0  0
  133.4464  119.8630   60.6164 H   0  0  0  0  0  0  0  0  0  0  0  0
  132.6313  121.1044   59.5403 H   0  0  0  0  0  0  0  0  0  0  0  0
  132.0520  122.4628   61.4174 H   0  0  0  0  0  0  0  0  0  0  0  0
  132.6656  121.1915   62.5695 H   0  0  0  0  0  0  0  0  0  0  0  0
  134.6118  122.2739   62.5949 H   0  0  0  0  0  0  0  0  0  0  0  0
  134.8131  121.7427   60.8627 H   0  0  0  0  0  0  0  0  0  0  0  0
  134.7828  124.3828   61.8070 H   0  0  0  0  0  0  0  0  0  0  0  0
  134.6102  123.8134   60.0902 H   0  0  0  0  0  0  0  0  0  0  0  0
  131.5135  124.9860   59.5452 H   0  0  0  0  0  0  0  0  0  0  0  0
  132.9321  126.0699   59.8961 H   0  0  0  0  0  0  0  0  0  0  0  0
  132.7662  126.2744   61.8401 H   0  0  0  0  0  0  0  0  0  0  0  0
  131.4717  125.1280   62.4133 H   0  0  0  0  0  0  0  0  0  0  0  0
  1  2  1  0
  2  3  1  0
  3  4  1  0
  4  5  1  0
  5  6  1  0
  6  7  1  0
  7  8  1  0
  8  9  1  0
  9 10  1  0
 10 11  1  0
 11 12  3  0
  9 13  1  0
 13 14  1  0
 14 15  3  0
  1 16  1  0
  1 17  1  0
  1 18  1  0
  2 19  1  0
  2 20  1  0
  3 21  1  0
  3 22  1  0
  4 23  1  0
  4 24  1  0
  5 25  1  0
  5 26  1  0
  6 27  1  0
  6 28  1  0
  7 29  1  0
  7 30  1  0
  8 31  1  0
  8 32  1  0
 10 33  1  0
 10 34  1  0
 13 35  1  0
 13 36  1  0
M  END
>  <Binding energies>  (1) 
[-4.99]

>  <Ligand effiencies>  (1) 
[-0.33266666666666667]

>  <Interactions>  (1) 
["V-A:ILE:369:CG2:3237, V-A:ASP:366:CA:3210, V-B:ALA:541:CB:9864, H-A:ARG:545:NH1:4927, V-B:TYR:539:CE2:9848, V-A:LEU:475:CG:4257, V-A:ASP:366:CG:3213, V-B:TYR:539:CZ:9849, H-A:ASN:370:N:3244, H-B:TYR:539:OH:9850, V-A:LEU:475:CD1:4258, V-B:TYR:539:CB:9843, V-A:HIS:383:CE1:3393, H-A:GLY:454:N:4050, V-A:ILE:369:CD1:3239, V-A:PRO:482:CB:4326, V-B:TYR:539:CD2:9846, V-A:SER:385:CB:3409, V-A:ASP:366:CB:3212, V-A:LEU:475:CD2:4259, H-A:ARG:545:NH2:4928, V-A:ARG:545:CZ:4926, V-B:TYR:539:CG:9844, V-A:PRO:482:CG:4327, H-A:ARG:545:NE:4924, V-A:HIS:383:NE2:3394, H-A:TYR:484:OH:4348"]

$$$$
ZINC103011627
     RDKit          3D

 36 36  0  0  0  0  0  0  0  0999 V2000
  129.9490  125.4650   67.2780 C   0  0  0  0  0  0  0  0  0  0  0  0
  129.1670  126.7720   67.4630 C   0  0  0  0  0  0  0  0  0  0  0  0
  128.5850  126.9280   68.8790 C   0  0  0  0  0  0  0  0  0  0  0  0
  129.1570  128.1420   69.6320 C   0  0  0  0  0  0  0  0  0  0  0  0
  130.6850  128.0780   69.8030 C   0  0  0  0  0  0  0  0  0  0  0  0
  131.1150  127.7260   71.2380 C   0  0  0  0  0  0  0  0  0  0  0  0
  129.9370  127.6940   72.2280 C   0  0  0  0  0  0  0  0  0  0  0  0
  130.1300  126.6570   73.3520 C   0  0  0  0  0  0  0  0  0  0  0  0
  130.8240  127.1790   74.4880 O   0  0  0  0  0  0  0  0  0  0  0  0
  131.4530  126.2880   75.3680 C   0  0  0  0  0  0  0  0  0  0  0  0
  132.8920  126.2960   75.2340 N   0  0  0  0  0  0  0  0  0  0  0  0
  133.8080  125.3310   75.5550 C   0  0  0  0  0  0  0  0  0  0  0  0
  135.0200  125.7290   75.2680 N   0  0  0  0  0  0  0  0  0  0  0  0
  134.7940  126.9350   74.7700 C   0  0  0  0  0  0  0  0  0  0  0  0
  133.5460  127.3420   74.7140 N   0  0  0  0  0  0  0  0  0  0  0  0
  130.2001  125.0453   68.2633 H   0  0  0  0  0  0  0  0  0  0  0  0
  129.3331  124.7452   66.7190 H   0  0  0  0  0  0  0  0  0  0  0  0
  130.8745  125.6674   66.7190 H   0  0  0  0  0  0  0  0  0  0  0  0
  129.8440  127.6165   67.2671 H   0  0  0  0  0  0  0  0  0  0  0  0
  128.3215  126.7525   66.7596 H   0  0  0  0  0  0  0  0  0  0  0  0
  127.4944  127.0468   68.7989 H   0  0  0  0  0  0  0  0  0  0  0  0
  128.8584  126.0277   69.4489 H   0  0  0  0  0  0  0  0  0  0  0  0
  128.9050  129.0535   69.0702 H   0  0  0  0  0  0  0  0  0  0  0  0
  128.7130  128.1441   70.6384 H   0  0  0  0  0  0  0  0  0  0  0  0
  131.0824  127.3126   69.1202 H   0  0  0  0  0  0  0  0  0  0  0  0
  131.0838  129.0777   69.5758 H   0  0  0  0  0  0  0  0  0  0  0  0
  131.5915  126.7346   71.2279 H   0  0  0  0  0  0  0  0  0  0  0  0
  131.8075  128.5110   71.5759 H   0  0  0  0  0  0  0  0  0  0  0  0
  129.8329  128.6901   72.6828 H   0  0  0  0  0  0  0  0  0  0  0  0
  129.0374  127.4074   71.6635 H   0  0  0  0  0  0  0  0  0  0  0  0
  129.1396  126.3068   73.6782 H   0  0  0  0  0  0  0  0  0  0  0  0
  130.7429  125.8409   72.9416 H   0  0  0  0  0  0  0  0  0  0  0  0
  131.1938  126.5697   76.3992 H   0  0  0  0  0  0  0  0  0  0  0  0
  131.1016  125.2748   75.1232 H   0  0  0  0  0  0  0  0  0  0  0  0
  133.5586  124.3539   75.9945 H   0  0  0  0  0  0  0  0  0  0  0  0
  135.6189  127.5713   74.4170 H   0  0  0  0  0  0  0  0  0  0  0  0
  1  2  1  0
  2  3  1  0
  3  4  1  0
  4  5  1  0
  5  6  1  0
  6  7  1  0
  7  8  1  0
  8  9  1  0
  9 10  1  0
 10 11  1  0
 11 12  1  0
 12 13  2  0
 13 14  1  0
 14 15  2  0
 15 11  1  0
  1 16  1  0
  1 17  1  0
  1 18  1  0
  2 19  1  0
  2 20  1  0
  3 21  1  0
  3 22  1  0
  4 23  1  0
  4 24  1  0
  5 25  1  0
  5 26  1  0
  6 27  1  0
  6 28  1  0
  7 29  1  0
  7 30  1  0
  8 31  1  0
  8 32  1  0
 10 33  1  0
 10 34  1  0
 12 35  1  0
 14 36  1  0
M  END
>  <Binding energies>  (1) 
[-3.89]

>  <Ligand effiencies>  (1) 
[-0.25933333333333336]

>  <Interactions>  (1) 
["V-A:HIS:456:CE1:4070, V-B:GLU:543:C:9874, V-A:LYS:547:CG:4948, V-A:GLU:543:C:4902, V-A:LYS:547:CB:4947, V-B:GLU:543:CB:9878, V-A:HIS:456:CB:4065, H-A:VAL:457:N:4076, V-A:VAL:457:C:4073, V-B:GLU:543:CG:9879, H-A:LYS:547:NZ:4951, V-A:VAL:458:CG2:4087, V-A:GLY:544:C:4912, V-B:HIS:456:CE1:9041, V-A:HIS:456:CD2:4068, V-A:ARG:545:C:4917, V-A:GLU:543:CB:4906"]

$$$$
ZINC103019763
     RDKit          3D

 54 59  0  0  0  0  0  0  0  0999 V2000
  130.5320  122.5360   64.8250 C   0  0  0  0  0  0  0  0  0  0  0  0
  131.0380  123.6740   64.0590 N   0  0  0  0  0  0  0  0  0  0  0  0
  130.3350  124.9150   64.4000 C   0  0  0  0  0  0  0  0  0  0  0  0
  130.1650  125.7160   63.0970 C   0  0  2  0  0  0  0  0  0  0  0  0
  129.1030  126.8350   63.0680 C   0  0  0  0  0  0  0  0  0  0  0  0
  128.7350  127.4580   64.2670 C   0  0  0  0  0  0  0  0  0  0  0  0
  127.7750  128.4650   64.2730 C   0  0  0  0  0  0  0  0  0  0  0  0
  127.1700  128.8480   63.0790 C   0  0  0  0  0  0  0  0  0  0  0  0
  125.9810  130.0990   63.0840 Cl  0  0  0  0  0  0  0  0  0  0  0  0
  127.5180  128.2310   61.8800 C   0  0  0  0  0  0  0  0  0  0  0  0
  128.4790  127.2230   61.8750 C   0  0  0  0  0  0  0  0  0  0  0  0
  130.1770  124.6450   61.9660 C   0  0  2  0  0  0  0  0  0  0  0  0
  130.6170  125.3440   60.3340 S   0  0  0  0  0  0  0  0  0  0  0  0
  129.0420  124.9880   59.6550 C   0  0  0  0  0  0  0  0  0  0  0  0
  128.7560  125.4160   58.0680 S   0  0  0  0  0  0  0  0  0  0  0  0
  128.2270  124.3840   60.5720 N   0  0  0  0  0  0  0  0  0  0  0  0
  126.8560  123.9430   60.2220 C   0  0  0  0  0  0  0  0  0  0  0  0
  126.7640  123.3180   58.8420 C   0  0  0  0  0  0  0  0  0  0  0  0
  125.8160  123.3670   57.8280 C   0  0  0  0  0  0  0  0  0  0  0  0
  126.3010  122.5870   56.7780 C   0  0  0  0  0  0  0  0  0  0  0  0
  127.5260  122.0970   57.1960 C   0  0  0  0  0  0  0  0  0  0  0  0
  127.8100  122.5470   58.4440 O   0  0  0  0  0  0  0  0  0  0  0  0
  128.7330  124.0960   61.7890 C   0  0  0  0  0  0  0  0  0  0  0  0
  128.1250  123.5020   62.6830 O   0  0  0  0  0  0  0  0  0  0  0  0
  131.1520  123.5440   62.5860 C   0  0  1  0  0  0  0  0  0  0  0  0
  132.6390  123.9440   62.2790 C   0  0  0  0  0  0  0  0  0  0  0  0
  133.2340  124.9420   62.6860 O   0  0  0  0  0  0  0  0  0  0  0  0
  133.1560  123.0130   61.4600 N   0  0  0  0  0  0  0  0  0  0  0  0
  132.3100  121.9460   61.2560 C   0  0  0  0  0  0  0  0  0  0  0  0
  132.5520  120.7780   60.5350 C   0  0  0  0  0  0  0  0  0  0  0  0
  131.5830  119.7740   60.5330 C   0  0  0  0  0  0  0  0  0  0  0  0
  130.3980  119.9460   61.2520 C   0  0  0  0  0  0  0  0  0  0  0  0
  129.4730  118.9610   61.2690 F   0  0  0  0  0  0  0  0  0  0  0  0
  130.1710  121.1300   61.9570 C   0  0  0  0  0  0  0  0  0  0  0  0
  131.1330  122.1490   61.9550 C   0  0  0  0  0  0  0  0  0  0  0  0
  130.6259  122.7471   65.9005 H   0  0  0  0  0  0  0  0  0  0  0  0
  129.4741  122.3673   64.5754 H   0  0  0  0  0  0  0  0  0  0  0  0
  131.1154  121.6375   64.5754 H   0  0  0  0  0  0  0  0  0  0  0  0
  129.3498  124.6835   64.8311 H   0  0  0  0  0  0  0  0  0  0  0  0
  130.9039  125.4941   65.1423 H   0  0  0  0  0  0  0  0  0  0  0  0
  130.9967  126.4204   62.9485 H   0  0  0  0  0  0  0  0  0  0  0  0
  129.2083  127.1490   65.2107 H   0  0  0  0  0  0  0  0  0  0  0  0
  127.4953  128.9562   65.2166 H   0  0  0  0  0  0  0  0  0  0  0  0
  127.0357  128.5386   60.9405 H   0  0  0  0  0  0  0  0  0  0  0  0
  128.7494  126.7291   60.9300 H   0  0  0  0  0  0  0  0  0  0  0  0
  126.5269  123.2012   60.9646 H   0  0  0  0  0  0  0  0  0  0  0  0
  126.2152  124.8371   60.2198 H   0  0  0  0  0  0  0  0  0  0  0  0
  124.8634  123.9166   57.8489 H   0  0  0  0  0  0  0  0  0  0  0  0
  125.8089  122.3992   55.8123 H   0  0  0  0  0  0  0  0  0  0  0  0
  128.1758  121.4376   56.6019 H   0  0  0  0  0  0  0  0  0  0  0  0
  134.1030  123.0510   61.1160 H   0  0  0  0  0  0  0  0  0  0  0  0
  133.4912  120.6498   59.9769 H   0  0  0  0  0  0  0  0  0  0  0  0
  131.7523  118.8472   59.9652 H   0  0  0  0  0  0  0  0  0  0  0  0
  129.2332  121.2633   62.5162 H   0  0  0  0  0  0  0  0  0  0  0  0
  1  2  1  0
  2  3  1  0
  3  4  1  0
  4  5  1  0
  5  6  2  0
  6  7  1  0
  7  8  2  0
  8  9  1  0
  8 10  1  0
 10 11  2  0
  4 12  1  0
 12 13  1  6
 13 14  1  0
 14 15  2  0
 14 16  1  0
 16 17  1  0
 17 18  1  0
 18 19  2  0
 19 20  1  0
 20 21  2  0
 21 22  1  0
 16 23  1  0
 23 24  2  0
 12 25  1  0
 25 26  1  0
 26 27  2  0
 26 28  1  0
 28 29  1  0
 29 30  2  0
 30 31  1  0
 31 32  2  0
 32 33  1  0
 32 34  1  0
 34 35  2  0
 25  2  1  1
 35 29  1  0
 11  5  1  0
 23 12  1  0
 35 25  1  0
 22 18  1  0
  1 36  1  0
  1 37  1  0
  1 38  1  0
  3 39  1  0
  3 40  1  0
  4 41  1  6
  6 42  1  0
  7 43  1  0
 10 44  1  0
 11 45  1  0
 17 46  1  0
 17 47  1  0
 19 48  1  0
 20 49  1  0
 21 50  1  0
 28 51  1  0
 30 52  1  0
 31 53  1  0
 34 54  1  0
M  END
>  <Binding energies>  (1) 
[-7.41]

>  <Ligand effiencies>  (1) 
[-0.20583333333333334]

>  <Interactions>  (1) 
["V-A:ILE:369:CG2:3237, V-B:TYR:539:CA:9841, V-B:PRO:540:CA:9855, V-B:ALA:541:CB:9864, V-B:TYR:539:CE2:9848, V-A:TYR:484:CE2:4346, V-B:GLU:543:CG:9879, V-B:TYR:539:C:9839, V-B:TYR:539:CZ:9849, V-A:TYR:484:CZ:4347, V-A:GLU:543:CD:4908, V-B:PRO:540:CB:9857, V-B:PRO:540:N:9856, V-B:TYR:539:CD2:9846, V-B:PRO:540:CD:9859, V-B:GLU:543:CD:9880, V-A:LEU:475:CD2:4259, H-A:ARG:545:NH2:4928, V-B:TYR:539:CG:9844, V-B:TYR:539:CD1:9845, V-B:PRO:540:C:9853, V-B:TYR:539:CE1:9847, H-A:TYR:484:OH:4348"]

$$$$
ZINC103150902
     RDKit          3D

 66 69  0  0  0  0  0  0  0  0999 V2000
  125.5390  130.8680   57.0800 C   0  0  0  0  0  0  0  0  0  0  0  0
  126.7600  131.5810   56.9680 O   0  0  0  0  0  0  0  0  0  0  0  0
  127.8130  131.0230   57.7400 C   0  0  0  0  0  0  0  0  0  0  0  0
  128.8880  130.4810   56.7850 C   0  0  0  0  0  0  0  0  0  0  0  0
  130.2660  130.8320   57.2260 N   0  0  0  0  0  0  0  0  0  0  0  0
  131.0420  129.7830   57.8970 C   0  0  0  0  0  0  0  0  0  0  0  0
  130.2390  128.9710   58.9470 C   0  0  0  0  0  0  0  0  0  0  0  0
  129.3060  129.5150   59.5460 O   0  0  0  0  0  0  0  0  0  0  0  0
  130.5880  127.6740   59.1830 N   0  0  0  0  0  0  0  0  0  0  0  0
  130.0520  126.9620   60.3670 C   0  0  0  0  0  0  0  0  0  0  0  0
  131.2430  126.4100   61.1830 C   0  0  0  0  0  0  0  0  0  0  0  0
  132.1280  125.6000   60.2560 C   0  0  0  0  0  0  0  0  0  0  0  0
  133.2600  124.3980   60.7890 S   0  0  0  0  0  0  0  0  0  0  0  0
  133.7850  124.1420   59.1580 C   0  0  0  0  0  0  0  0  0  0  0  0
  133.1210  124.9680   58.2630 C   0  0  0  0  0  0  0  0  0  0  0  0
  132.1700  125.8010   58.8740 C   0  0  0  0  0  0  0  0  0  0  0  0
  131.2840  126.8380   58.1680 C   0  0  1  0  0  0  0  0  0  0  0  0
  130.3160  126.1780   57.1590 C   0  0  0  0  0  0  0  0  0  0  0  0
  128.9700  126.4370   57.5480 O   0  0  0  0  0  0  0  0  0  0  0  0
  128.0240  125.4320   57.4540 C   0  0  0  0  0  0  0  0  0  0  0  0
  128.3310  124.0990   57.1330 C   0  0  0  0  0  0  0  0  0  0  0  0
  127.3260  123.1370   57.0590 C   0  0  0  0  0  0  0  0  0  0  0  0
  126.0050  123.4930   57.3040 C   0  0  0  0  0  0  0  0  0  0  0  0
  125.6860  124.8110   57.6210 C   0  0  0  0  0  0  0  0  0  0  0  0
  126.6900  125.7930   57.6980 C   0  0  0  0  0  0  0  0  0  0  0  0
  126.4430  127.1190   58.0060 O   0  0  0  0  0  0  0  0  0  0  0  0
  126.6870  127.5900   59.3270 C   0  0  0  0  0  0  0  0  0  0  0  0
  130.5170  132.4970   57.7870 S   0  0  0  0  0  0  0  0  0  0  0  0
  131.9470  132.8080   57.6920 O   0  0  0  0  0  0  0  0  0  0  0  0
  129.5290  133.3430   57.1090 O   0  0  0  0  0  0  0  0  0  0  0  0
  130.1050  132.4570   59.5320 C   0  0  0  0  0  0  0  0  0  0  0  0
  128.9020  133.0000   59.9870 C   0  0  0  0  0  0  0  0  0  0  0  0
  128.5820  132.9320   61.3400 C   0  0  0  0  0  0  0  0  0  0  0  0
  129.4600  132.3130   62.2290 C   0  0  0  0  0  0  0  0  0  0  0  0
  129.0580  132.2220   63.9050 Cl  0  0  0  0  0  0  0  0  0  0  0  0
  130.6580  131.7640   61.7750 C   0  0  0  0  0  0  0  0  0  0  0  0
  130.9830  131.8350   60.4220 C   0  0  0  0  0  0  0  0  0  0  0  0
  125.2941  130.7250   58.1428 H   0  0  0  0  0  0  0  0  0  0  0  0
  124.7351  131.4386   56.5920 H   0  0  0  0  0  0  0  0  0  0  0  0
  125.6409  129.8874   56.5920 H   0  0  0  0  0  0  0  0  0  0  0  0
  128.2491  131.7984   58.3869 H   0  0  0  0  0  0  0  0  0  0  0  0
  127.4258  130.2089   58.3704 H   0  0  0  0  0  0  0  0  0  0  0  0
  128.7999  129.3855   56.7387 H   0  0  0  0  0  0  0  0  0  0  0  0
  128.7237  130.9399   55.7989 H   0  0  0  0  0  0  0  0  0  0  0  0
  131.4130  129.0854   57.1317 H   0  0  0  0  0  0  0  0  0  0  0  0
  131.8528  130.2890   58.4415 H   0  0  0  0  0  0  0  0  0  0  0  0
  129.4678  127.6583   60.9866 H   0  0  0  0  0  0  0  0  0  0  0  0
  129.3969  126.1377   60.0486 H   0  0  0  0  0  0  0  0  0  0  0  0
  131.8186  127.2445   61.6100 H   0  0  0  0  0  0  0  0  0  0  0  0
  130.8758  125.7753   62.0029 H   0  0  0  0  0  0  0  0  0  0  0  0
  134.5537  123.4111   58.8667 H   0  0  0  0  0  0  0  0  0  0  0  0
  133.3199  124.9702   57.1811 H   0  0  0  0  0  0  0  0  0  0  0  0
  131.9204  127.5029   57.5656 H   0  0  0  0  0  0  0  0  0  0  0  0
  130.4935  126.5934   56.1560 H   0  0  0  0  0  0  0  0  0  0  0  0
  130.4892  125.0918   57.1438 H   0  0  0  0  0  0  0  0  0  0  0  0
  129.3749  123.8122   56.9382 H   0  0  0  0  0  0  0  0  0  0  0  0
  127.5778  122.0963   56.8068 H   0  0  0  0  0  0  0  0  0  0  0  0
  125.2113  122.7335   57.2475 H   0  0  0  0  0  0  0  0  0  0  0  0
  124.6386  125.0868   57.8130 H   0  0  0  0  0  0  0  0  0  0  0  0
  126.3072  126.8568   60.0537 H   0  0  0  0  0  0  0  0  0  0  0  0
  127.7687  127.7255   59.4740 H   0  0  0  0  0  0  0  0  0  0  0  0
  126.1737  128.5517   59.4740 H   0  0  0  0  0  0  0  0  0  0  0  0
  128.2099  133.4796   59.2792 H   0  0  0  0  0  0  0  0  0  0  0  0
  127.6397  133.3651   61.7067 H   0  0  0  0  0  0  0  0  0  0  0  0
  131.3446  131.2763   62.4826 H   0  0  0  0  0  0  0  0  0  0  0  0
  131.9265  131.4032   60.0567 H   0  0  0  0  0  0  0  0  0  0  0  0
  1  2  1  0
  2  3  1  0
  3  4  1  0
  4  5  1  0
  5  6  1  0
  6  7  1  0
  7  8  2  0
  7  9  1  0
  9 10  1  0
 10 11  1  0
 11 12  1  0
 12 13  1  0
 13 14  1  0
 14 15  2  0
 15 16  1  0
 16 17  1  0
 17 18  1  0
 18 19  1  0
 19 20  1  0
 20 21  2  0
 21 22  1  0
 22 23  2  0
 23 24  1  0
 24 25  2  0
 25 26  1  0
 26 27  1  0
  5 28  1  0
 28 29  2  0
 28 30  2  0
 28 31  1  0
 31 32  2  0
 32 33  1  0
 33 34  2  0
 34 35  1  0
 34 36  1  0
 36 37  2  0
 17  9  1  0
 25 20  1  0
 37 31  1  0
 16 12  2  0
  1 38  1  0
  1 39  1  0
  1 40  1  0
  3 41  1  0
  3 42  1  0
  4 43  1  0
  4 44  1  0
  6 45  1  0
  6 46  1  0
 10 47  1  0
 10 48  1  0
 11 49  1  0
 11 50  1  0
 14 51  1  0
 15 52  1  0
 17 53  1  6
 18 54  1  0
 18 55  1  0
 21 56  1  0
 22 57  1  0
 23 58  1  0
 24 59  1  0
 27 60  1  0
 27 61  1  0
 27 62  1  0
 32 63  1  0
 33 64  1  0
 36 65  1  0
 37 66  1  0
M  END
>  <Binding energies>  (1) 
[-7.31]

>  <Ligand effiencies>  (1) 
[-0.19756756756756755]

>  <Interactions>  (1) 
["V-A:ILE:369:CG2:3237, V-A:ASP:366:CA:3210, V-A:ILE:369:CB:3236, V-B:TYR:539:CE1:9847, V-B:ASP:366:CG:8184, H-A:TYR:531:OH:4795, V-B:TYR:539:CE2:9848, V-A:ASP:366:CG:3213, V-A:TYR:539:CD1:4873, V-B:TYR:539:CZ:9849, V-A:TYR:539:CZ:4877, V-A:ALA:541:CB:4892, V-A:GLU:543:CD:4908, V-B:PRO:540:CB:9857, V-A:ASP:366:C:3208, V-A:GLU:543:CG:4907, V-A:MET:535:CE:4835, V-A:TYR:539:C:4867, H-B:TYR:531:OH:9767, V-A:ASP:366:CB:3212, V-A:PRO:540:N:4884, H-A:TYR:539:N:4870, V-A:PRO:540:CB:4885, V-A:PRO:540:CA:4883, H-A:TYR:539:OH:4878, V-A:TYR:539:CE1:4875"]

$$$$
ZINC103204425
     RDKit          3D

 69 72  0  0  0  0  0  0  0  0999 V2000
  131.9920  131.4800   62.0360 C   0  0  0  0  0  0  0  0  0  0  0  0
  130.7960  132.2420   62.1190 O   0  0  0  0  0  0  0  0  0  0  0  0
  129.5880  131.6780   61.8590 C   0  0  0  0  0  0  0  0  0  0  0  0
  129.0500  131.7020   60.7480 O   0  0  0  0  0  0  0  0  0  0  0  0
  128.9800  131.0020   63.0540 C   0  0  0  0  0  0  0  0  0  0  0  0
  128.4670  129.6960   62.9870 C   0  0  0  0  0  0  0  0  0  0  0  0
  127.9110  129.0970   64.1140 C   0  0  0  0  0  0  0  0  0  0  0  0
  127.8570  129.7940   65.3210 C   0  0  0  0  0  0  0  0  0  0  0  0
  127.2480  129.1360   66.5470 C   0  0  0  0  0  0  0  0  0  0  0  0
  128.1680  129.2330   67.6300 O   0  0  0  0  0  0  0  0  0  0  0  0
  129.0420  128.1160   67.7970 C   0  0  2  0  0  0  0  0  0  0  0  0
  128.3750  126.9100   67.0910 C   0  0  0  0  0  0  0  0  0  0  0  0
  129.3480  126.0320   66.4230 N   0  0  0  0  0  0  0  0  0  0  0  0
  130.6880  126.1560   67.0290 C   0  0  0  0  0  0  0  0  0  0  0  0
  131.6450  125.1240   66.3840 C   0  0  0  0  0  0  0  0  0  0  0  0
  131.6970  125.3470   64.9200 N   0  0  0  0  0  0  0  0  0  0  0  0
  132.9780  124.4790   64.0600 S   0  0  0  0  0  0  0  0  0  0  0  0
  134.2650  125.0860   64.4180 O   0  0  0  0  0  0  0  0  0  0  0  0
  132.7590  123.0420   64.2640 O   0  0  0  0  0  0  0  0  0  0  0  0
  132.7020  124.8490   62.3220 C   0  0  0  0  0  0  0  0  0  0  0  0
  132.0120  126.0180   61.9780 C   0  0  0  0  0  0  0  0  0  0  0  0
  131.7730  126.3320   60.6400 C   0  0  0  0  0  0  0  0  0  0  0  0
  132.2230  125.4800   59.6340 C   0  0  0  0  0  0  0  0  0  0  0  0
  132.9110  124.3140   59.9670 C   0  0  0  0  0  0  0  0  0  0  0  0
  133.1550  123.9910   61.3030 C   0  0  0  0  0  0  0  0  0  0  0  0
  134.0220  122.5330   61.6440 Cl  0  0  0  0  0  0  0  0  0  0  0  0
  130.3510  125.2610   64.3090 C   0  0  0  0  0  0  0  0  0  0  0  0
  129.4250  126.3050   64.9740 C   0  0  0  0  0  0  0  0  0  0  0  0
  129.3580  127.8790   69.2790 C   0  0  0  0  0  0  0  0  0  0  0  0
  130.6350  128.1360   69.7910 C   0  0  0  0  0  0  0  0  0  0  0  0
  130.9070  127.9170   71.1390 C   0  0  0  0  0  0  0  0  0  0  0  0
  129.9040  127.4450   71.9850 C   0  0  0  0  0  0  0  0  0  0  0  0
  128.6210  127.1870   71.4990 C   0  0  0  0  0  0  0  0  0  0  0  0
  127.6880  126.7370   72.4130 O   0  0  0  0  0  0  0  0  0  0  0  0
  126.9850  127.6850   73.2090 C   0  0  0  0  0  0  0  0  0  0  0  0
  128.3600  127.4010   70.1350 C   0  0  0  0  0  0  0  0  0  0  0  0
  128.3680  131.0890   65.4020 C   0  0  0  0  0  0  0  0  0  0  0  0
  128.9260  131.6890   64.2760 C   0  0  0  0  0  0  0  0  0  0  0  0
  132.3518  131.2508   63.0499 H   0  0  0  0  0  0  0  0  0  0  0  0
  131.7926  130.5421   61.4969 H   0  0  0  0  0  0  0  0  0  0  0  0
  132.7578  132.0571   61.4969 H   0  0  0  0  0  0  0  0  0  0  0  0
  128.5049  129.1426   62.0371 H   0  0  0  0  0  0  0  0  0  0  0  0
  127.5139  128.0730   64.0526 H   0  0  0  0  0  0  0  0  0  0  0  0
  126.3106  129.6467   66.8124 H   0  0  0  0  0  0  0  0  0  0  0  0
  127.0347  128.0781   66.3339 H   0  0  0  0  0  0  0  0  0  0  0  0
  130.0244  128.2935   67.3351 H   0  0  0  0  0  0  0  0  0  0  0  0
  127.8280  126.3214   67.8422 H   0  0  0  0  0  0  0  0  0  0  0  0
  127.7027  127.3091   66.3172 H   0  0  0  0  0  0  0  0  0  0  0  0
  131.0749  127.1714   66.8580 H   0  0  0  0  0  0  0  0  0  0  0  0
  130.6198  125.9662   68.1103 H   0  0  0  0  0  0  0  0  0  0  0  0
  132.6526  125.2425   66.8091 H   0  0  0  0  0  0  0  0  0  0  0  0
  131.2788  124.1069   66.5874 H   0  0  0  0  0  0  0  0  0  0  0  0
  131.6556  126.6941   62.7692 H   0  0  0  0  0  0  0  0  0  0  0  0
  131.2294  127.2521   60.3794 H   0  0  0  0  0  0  0  0  0  0  0  0
  132.0358  125.7268   58.5785 H   0  0  0  0  0  0  0  0  0  0  0  0
  133.2645  123.6429   59.1703 H   0  0  0  0  0  0  0  0  0  0  0  0
  130.4224  125.4660   63.2306 H   0  0  0  0  0  0  0  0  0  0  0  0
  129.9397  124.2520   64.4598 H   0  0  0  0  0  0  0  0  0  0  0  0
  129.8312  127.3141   64.8107 H   0  0  0  0  0  0  0  0  0  0  0  0
  128.4197  126.2423   64.5320 H   0  0  0  0  0  0  0  0  0  0  0  0
  131.4265  128.5123   69.1262 H   0  0  0  0  0  0  0  0  0  0  0  0
  131.9131  128.1163   71.5365 H   0  0  0  0  0  0  0  0  0  0  0  0
  130.1265  127.2738   73.0486 H   0  0  0  0  0  0  0  0  0  0  0  0
  127.1493  127.4634   74.2738 H   0  0  0  0  0  0  0  0  0  0  0  0
  127.3526  128.6971   72.9841 H   0  0  0  0  0  0  0  0  0  0  0  0
  125.9098  127.6271   72.9841 H   0  0  0  0  0  0  0  0  0  0  0  0
  127.3574  127.1898   69.7348 H   0  0  0  0  0  0  0  0  0  0  0  0
  128.3303  131.6365   66.3553 H   0  0  0  0  0  0  0  0  0  0  0  0
  129.3280  132.7106   64.3453 H   0  0  0  0  0  0  0  0  0  0  0  0
  1  2  1  0
  2  3  1  0
  3  4  2  0
  3  5  1  0
  5  6  2  0
  6  7  1  0
  7  8  2  0
  8  9  1  0
  9 10  1  0
 10 11  1  0
 11 12  1  0
 12 13  1  0
 13 14  1  0
 14 15  1  0
 15 16  1  0
 16 17  1  0
 17 18  2  0
 17 19  2  0
 17 20  1  0
 20 21  2  0
 21 22  1  0
 22 23  2  0
 23 24  1  0
 24 25  2  0
 25 26  1  0
 16 27  1  0
 27 28  1  0
 11 29  1  0
 29 30  2  0
 30 31  1  0
 31 32  2  0
 32 33  1  0
 33 34  1  0
 34 35  1  0
 33 36  2  0
  8 37  1  0
 37 38  2  0
 38  5  1  0
 28 13  1  0
 36 29  1  0
 25 20  1  0
  1 39  1  0
  1 40  1  0
  1 41  1  0
  6 42  1  0
  7 43  1  0
  9 44  1  0
  9 45  1  0
 11 46  1  6
 12 47  1  0
 12 48  1  0
 14 49  1  0
 14 50  1  0
 15 51  1  0
 15 52  1  0
 21 53  1  0
 22 54  1  0
 23 55  1  0
 24 56  1  0
 27 57  1  0
 27 58  1  0
 28 59  1  0
 28 60  1  0
 30 61  1  0
 31 62  1  0
 32 63  1  0
 35 64  1  0
 35 65  1  0
 35 66  1  0
 36 67  1  0
 37 68  1  0
 38 69  1  0
M  END
>  <Binding energies>  (1) 
[-9.11]

>  <Ligand effiencies>  (1) 
[-0.23973684210526314]

>  <Interactions>  (1) 
["V-A:ILE:369:CG2:3237, V-A:GLU:543:CA:4904, V-B:HIS:456:CD2:9039, V-A:GLU:543:C:4902, H-A:ALA:541:N:4891, V-B:GLU:543:CB:9878, H-B:LYS:547:NZ:9923, H-A:ARG:545:NH1:4927, V-A:TYR:484:CE2:4346, V-B:TYR:539:CE2:9848, V-B:GLU:543:CG:9879, V-A:GLY:544:C:4912, V-A:ASP:366:CG:3213, V-A:HIS:456:CD2:4068, V-B:TYR:484:CE2:9317, V-A:ALA:541:CB:4892, V-B:LYS:547:CE:9922, V-A:GLU:543:CD:4908, V-A:TYR:484:CZ:4347, H-B:TYR:484:OH:9319, V-B:HIS:456:CE1:9041, H-A:GLY:454:N:4050, V-B:TYR:484:CZ:9318, V-A:HIS:456:CE1:4070, V-A:ILE:369:CD1:3239, V-B:GLY:544:C:9884, V-A:GLU:543:CG:4907, V-B:GLU:543:CD:9880, V-B:HIS:456:CG:9037, V-A:ASP:366:CB:3212, H-A:ARG:545:NH2:4928, V-A:ARG:545:CZ:4926, V-A:GLU:543:CB:4906, V-A:PRO:540:CB:4885, H-A:ARG:545:NE:4924, H-A:TYR:484:OH:4348"]

$$$$
ZINC103527498
     RDKit          3D

 26 25  0  0  0  0  0  0  0  0999 V2000
  126.5310  123.9880   58.6080 F   0  0  0  0  0  0  0  0  0  0  0  0
  127.6420  123.2770   58.4110 C   0  0  0  0  0  0  0  0  0  0  0  0
  127.2810  122.1290   57.8360 F   0  0  0  0  0  0  0  0  0  0  0  0
  128.3780  123.9480   57.5240 F   0  0  0  0  0  0  0  0  0  0  0  0
  128.4140  123.0250   59.7340 C   0  0  0  0  0  0  0  0  0  0  0  0
  128.7410  121.7320   59.7910 F   0  0  0  0  0  0  0  0  0  0  0  0
  129.5680  123.6960   59.6800 F   0  0  0  0  0  0  0  0  0  0  0  0
  127.6160  123.4350   61.0130 C   0  0  0  0  0  0  0  0  0  0  0  0
  127.5440  124.7670   61.0770 F   0  0  0  0  0  0  0  0  0  0  0  0
  126.3550  123.0120   60.8970 F   0  0  0  0  0  0  0  0  0  0  0  0
  128.2280  122.8790   62.3430 C   0  0  0  0  0  0  0  0  0  0  0  0
  127.2520  122.7150   63.2400 F   0  0  0  0  0  0  0  0  0  0  0  0
  128.7250  121.6590   62.1210 F   0  0  0  0  0  0  0  0  0  0  0  0
  129.3450  123.7890   62.9550 C   0  0  0  0  0  0  0  0  0  0  0  0
  130.2900  124.0100   62.0370 F   0  0  0  0  0  0  0  0  0  0  0  0
  128.8290  124.9860   63.2350 F   0  0  0  0  0  0  0  0  0  0  0  0
  130.0150  123.1890   64.2350 C   0  0  0  0  0  0  0  0  0  0  0  0
  129.0900  122.7120   65.0710 F   0  0  0  0  0  0  0  0  0  0  0  0
  130.7490  122.1340   63.8810 F   0  0  0  0  0  0  0  0  0  0  0  0
  130.9210  124.2010   65.0050 C   0  0  1  0  0  0  0  0  0  0  0  0
  132.5460  124.6310   63.9280 Br  0  0  0  0  0  0  0  0  0  0  0  0
  130.2500  125.5490   65.3400 C   0  0  0  0  0  0  0  0  0  0  0  0
  129.8580  125.7060   67.2890 Br  0  0  0  0  0  0  0  0  0  0  0  0
  131.1544  123.6896   65.9505 H   0  0  0  0  0  0  0  0  0  0  0  0
  130.9234  126.3668   65.0439 H   0  0  0  0  0  0  0  0  0  0  0  0
  129.2986  125.6068   64.7909 H   0  0  0  0  0  0  0  0  0  0  0  0
  1  2  1  0
  2  3  1  0
  2  4  1  0
  2  5  1  0
  5  6  1  0
  5  7  1  0
  5  8  1  0
  8  9  1  0
  8 10  1  0
  8 11  1  0
 11 12  1  0
 11 13  1  0
 11 14  1  0
 14 15  1  0
 14 16  1  0
 14 17  1  0
 17 18  1  0
 17 19  1  0
 17 20  1  0
 20 21  1  0
 20 22  1  0
 22 23  1  0
 20 24  1  1
 22 25  1  0
 22 26  1  0
M  END
>  <Binding energies>  (1) 
[-2.4]

>  <Ligand effiencies>  (1) 
[-0.10434782608695652]

>  <Interactions>  (1) 
["V-B:TYR:539:CA:9841, V-B:PRO:540:CA:9855, V-B:GLU:543:CB:9878, V-B:ALA:541:CB:9864, V-B:TYR:539:CE2:9848, V-A:TYR:484:CE2:4346, V-B:GLU:543:CG:9879, V-B:TYR:539:C:9839, V-B:TYR:539:CZ:9849, V-A:TYR:484:CZ:4347, V-B:PRO:540:CB:9857, V-A:GLU:543:CD:4908, V-B:GLU:543:CA:9876, V-B:PRO:540:N:9856, V-A:HIS:456:CE1:4070, V-B:ALA:541:C:9860, V-B:TYR:539:CD2:9846, V-B:PRO:540:CD:9859, V-B:GLU:543:CD:9880, V-A:LEU:475:CD2:4259, V-A:ARG:545:CZ:4926, V-B:TYR:539:CG:9844, V-B:PRO:540:C:9853, V-B:ALA:541:CA:9862, V-B:TYR:539:CE1:9847"]

$$$$
ZINC1035949
     RDKit          3D

 38 40  0  0  0  0  0  0  0  0999 V2000
  127.1600  127.6610   73.3570 C   0  0  0  0  0  0  0  0  0  0  0  0
  128.5920  127.7910   72.7710 C   0  0  0  0  0  0  0  0  0  0  0  0
  129.4560  126.6730   73.4040 C   0  0  0  0  0  0  0  0  0  0  0  0
  129.1440  129.1720   73.2060 C   0  0  0  0  0  0  0  0  0  0  0  0
  128.6360  127.6710   71.2250 C   0  0  0  0  0  0  0  0  0  0  0  0
  127.6010  127.0710   70.4900 C   0  0  0  0  0  0  0  0  0  0  0  0
  127.6730  126.9800   69.1030 C   0  0  0  0  0  0  0  0  0  0  0  0
  128.7800  127.4870   68.4180 C   0  0  0  0  0  0  0  0  0  0  0  0
  128.8560  127.3920   66.9290 C   0  0  0  0  0  0  0  0  0  0  0  0
  128.3610  128.2130   66.0310 N   0  0  0  0  0  0  0  0  0  0  0  0
  128.7020  127.6840   64.7890 N   0  0  0  0  0  0  0  0  0  0  0  0
  129.4040  126.6090   65.0390 C   0  0  0  0  0  0  0  0  0  0  0  0
  130.0530  125.4430   63.8920 S   0  0  0  0  0  0  0  0  0  0  0  0
  131.6640  125.2150   64.5550 C   0  0  0  0  0  0  0  0  0  0  0  0
  132.8230  124.8290   63.8910 C   0  0  0  0  0  0  0  0  0  0  0  0
  133.9160  124.7240   64.6200 N   0  0  0  0  0  0  0  0  0  0  0  0
  133.6940  125.0070   65.8840 C   0  0  0  0  0  0  0  0  0  0  0  0
  134.7130  124.9720   66.8940 N   0  0  0  0  0  0  0  0  0  0  0  0
  134.3640  124.8070   68.0600 O   0  0  0  0  0  0  0  0  0  0  0  0
  135.8810  125.1100   66.5440 O   0  0  0  0  0  0  0  0  0  0  0  0
  132.0400  125.4330   66.2390 S   0  0  0  0  0  0  0  0  0  0  0  0
  129.5120  126.3460   66.3640 O   0  0  0  0  0  0  0  0  0  0  0  0
  129.8160  128.0830   69.1410 C   0  0  0  0  0  0  0  0  0  0  0  0
  129.7430  128.1720   70.5270 C   0  0  0  0  0  0  0  0  0  0  0  0
  127.2116  127.6657   74.4558 H   0  0  0  0  0  0  0  0  0  0  0  0
  126.5457  128.5071   73.0152 H   0  0  0  0  0  0  0  0  0  0  0  0
  126.7081  126.7181   73.0152 H   0  0  0  0  0  0  0  0  0  0  0  0
  129.4013  126.7437   74.5004 H   0  0  0  0  0  0  0  0  0  0  0  0
  129.0796  125.6913   73.0807 H   0  0  0  0  0  0  0  0  0  0  0  0
  130.5009  126.7897   73.0807 H   0  0  0  0  0  0  0  0  0  0  0  0
  129.1666  129.2284   74.3043 H   0  0  0  0  0  0  0  0  0  0  0  0
  130.1626  129.3006   72.8112 H   0  0  0  0  0  0  0  0  0  0  0  0
  128.4947  129.9673   72.8112 H   0  0  0  0  0  0  0  0  0  0  0  0
  126.7231  126.6682   71.0164 H   0  0  0  0  0  0  0  0  0  0  0  0
  126.8534  126.5061   68.5429 H   0  0  0  0  0  0  0  0  0  0  0  0
  132.8275  124.6215   62.8108 H   0  0  0  0  0  0  0  0  0  0  0  0
  130.6932  128.4836   68.6119 H   0  0  0  0  0  0  0  0  0  0  0  0
  130.5667  128.6428   71.0837 H   0  0  0  0  0  0  0  0  0  0  0  0
  1  2  1  0
  2  3  1  0
  2  4  1  0
  2  5  1  0
  5  6  2  0
  6  7  1  0
  7  8  2  0
  8  9  1  0
  9 10  2  0
 10 11  1  0
 11 12  2  0
 12 13  1  0
 13 14  1  0
 14 15  2  0
 15 16  1  0
 16 17  2  0
 17 18  1  0
 18 19  2  0
 18 20  1  0
 17 21  1  0
 12 22  1  0
  8 23  1  0
 23 24  2  0
 24  5  1  0
 22  9  1  0
 21 14  1  0
  1 25  1  0
  1 26  1  0
  1 27  1  0
  3 28  1  0
  3 29  1  0
  3 30  1  0
  4 31  1  0
  4 32  1  0
  4 33  1  0
  6 34  1  0
  7 35  1  0
 15 36  1  0
 23 37  1  0
 24 38  1  0
M  CHG  2  18   1  20  -1
M  END
>  <Binding energies>  (1) 
[-7.97]

>  <Ligand effiencies>  (1) 
[-0.33208333333333334]

>  <Interactions>  (1) 
["V-A:GLY:454:CA:4049, V-B:HIS:456:CD2:9039, V-B:GLU:543:C:9874, V-A:GLU:543:C:4902, V-B:GLU:543:CB:9878, V-B:GLU:543:CG:9879, V-A:HIS:456:CD2:4068, V-B:LYS:547:CE:9922, V-A:GLU:543:CD:4908, V-A:TYR:484:CZ:4347, V-A:ILE:455:C:4052, V-B:HIS:456:CE1:9041, H-A:GLY:454:N:4050, V-A:ARG:545:CG:4922, V-A:GLY:453:C:4042, H-A:GLY:453:N:4045, V-A:HIS:456:CE1:4070, V-B:GLY:544:C:9884, V-B:GLU:543:CD:9880, V-B:HIS:456:CG:9037, V-A:ARG:545:CD:4923, V-A:ARG:545:CB:4921, H-A:ARG:545:NH2:4928, H-A:ILE:455:N:4055, V-A:ARG:545:CZ:4926, V-A:GLU:543:CB:4906, V-A:GLY:453:CA:4044, H-A:ARG:545:NE:4924, V-A:GLY:454:C:4047, H-A:HIS:456:ND1:4067, H-A:TYR:484:OH:4348"]

$$$$
ZINC1037635-again1
     RDKit          3D

 53 55  0  0  0  0  0  0  0  0999 V2000
  130.0910  121.2100   61.6280 C   0  0  0  0  0  0  0  0  0  0  0  0
  131.1500  120.6360   60.6710 C   0  0  0  0  0  0  0  0  0  0  0  0
  131.3520  119.1240   60.8590 C   0  0  0  0  0  0  0  0  0  0  0  0
  132.8120  121.5190   60.9380 S   0  0  0  0  0  0  0  0  0  0  0  0
  133.7100  120.6270   61.6840 O   0  0  0  0  0  0  0  0  0  0  0  0
  133.2460  122.1100   59.6680 O   0  0  0  0  0  0  0  0  0  0  0  0
  132.3880  122.8910   62.0560 C   0  0  0  0  0  0  0  0  0  0  0  0
  132.4040  122.7520   63.4370 C   0  0  0  0  0  0  0  0  0  0  0  0
  131.9520  124.2020   64.2630 S   0  0  0  0  0  0  0  0  0  0  0  0
  131.6940  125.0480   62.7530 C   0  0  0  0  0  0  0  0  0  0  0  0
  131.3160  126.4540   62.7400 C   0  0  0  0  0  0  0  0  0  0  0  0
  130.7640  126.9730   63.7150 O   0  0  0  0  0  0  0  0  0  0  0  0
  131.6840  127.1310   61.6280 N   0  0  0  0  0  0  0  0  0  0  0  0
  131.2480  128.4420   61.4850 N   0  0  0  0  0  0  0  0  0  0  0  0
  130.7700  128.8060   60.2750 C   0  0  0  0  0  0  0  0  0  0  0  0
  130.7940  128.0820   59.2730 O   0  0  0  0  0  0  0  0  0  0  0  0
  130.2130  130.2110   60.1810 C   0  0  0  0  0  0  0  0  0  0  0  0
  129.5840  130.8300   61.2730 C   0  0  0  0  0  0  0  0  0  0  0  0
  129.0650  132.1260   61.1720 C   0  0  0  0  0  0  0  0  0  0  0  0
  128.3830  132.7890   62.3670 C   0  0  0  0  0  0  0  0  0  0  0  0
  129.1080  132.6480   63.4780 F   0  0  0  0  0  0  0  0  0  0  0  0
  128.2410  134.0900   62.1160 F   0  0  0  0  0  0  0  0  0  0  0  0
  127.1750  132.2700   62.5970 F   0  0  0  0  0  0  0  0  0  0  0  0
  129.1770  132.8100   59.9570 C   0  0  0  0  0  0  0  0  0  0  0  0
  129.7940  132.2160   58.8520 C   0  0  0  0  0  0  0  0  0  0  0  0
  129.9060  132.9810   57.5330 C   0  0  0  0  0  0  0  0  0  0  0  0
  129.9430  132.1570   56.4840 F   0  0  0  0  0  0  0  0  0  0  0  0
  128.8450  133.7780   57.4060 F   0  0  0  0  0  0  0  0  0  0  0  0
  131.0080  133.7310   57.5060 F   0  0  0  0  0  0  0  0  0  0  0  0
  130.3060  130.9200   58.9740 C   0  0  0  0  0  0  0  0  0  0  0  0
  132.0040  124.1970   61.6710 C   0  0  0  0  0  0  0  0  0  0  0  0
  131.9180  124.5810   60.3520 N   0  0  0  0  0  0  0  0  0  0  0  0
  130.7630  124.6790   59.6070 C   0  0  0  0  0  0  0  0  0  0  0  0
  131.0930  125.0820   58.3220 C   0  0  0  0  0  0  0  0  0  0  0  0
  132.4820  125.2230   58.2740 C   0  0  0  0  0  0  0  0  0  0  0  0
  132.9740  124.9040   59.5310 C   0  0  0  0  0  0  0  0  0  0  0  0
  130.4058  121.0394   62.6681 H   0  0  0  0  0  0  0  0  0  0  0  0
  129.9830  122.2901   61.4501 H   0  0  0  0  0  0  0  0  0  0  0  0
  129.1270  120.7109   61.4501 H   0  0  0  0  0  0  0  0  0  0  0  0
  130.7830  120.8049   59.6479 H   0  0  0  0  0  0  0  0  0  0  0  0
  131.3834  118.8890   61.9332 H   0  0  0  0  0  0  0  0  0  0  0  0
  130.5184  118.5815   60.3892 H   0  0  0  0  0  0  0  0  0  0  0  0
  132.2988  118.8194   60.3892 H   0  0  0  0  0  0  0  0  0  0  0  0
  132.6755  121.8183   63.9513 H   0  0  0  0  0  0  0  0  0  0  0  0
  131.8460  126.6750   60.7420 H   0  0  0  0  0  0  0  0  0  0  0  0
  130.8430  128.7950   62.3400 H   0  0  0  0  0  0  0  0  0  0  0  0
  129.4975  130.2865   62.2254 H   0  0  0  0  0  0  0  0  0  0  0  0
  128.7739  133.8297   59.8697 H   0  0  0  0  0  0  0  0  0  0  0  0
  130.7909  130.4477   58.1069 H   0  0  0  0  0  0  0  0  0  0  0  0
  129.7462  124.4716   59.9718 H   0  0  0  0  0  0  0  0  0  0  0  0
  130.3910  125.2581   57.4937 H   0  0  0  0  0  0  0  0  0  0  0  0
  133.0759  125.5303   57.4006 H   0  0  0  0  0  0  0  0  0  0  0  0
  134.0344  124.9085   59.8236 H   0  0  0  0  0  0  0  0  0  0  0  0
  1  2  1  0
  2  3  1  0
  2  4  1  0
  4  5  2  0
  4  6  2  0
  4  7  1  0
  7  8  2  0
  8  9  1  0
  9 10  1  0
 10 11  1  0
 11 12  2  0
 11 13  1  0
 13 14  1  0
 14 15  1  0
 15 16  2  0
 15 17  1  0
 17 18  2  0
 18 19  1  0
 19 20  1  0
 20 21  1  0
 20 22  1  0
 20 23  1  0
 19 24  2  0
 24 25  1  0
 25 26  1  0
 26 27  1  0
 26 28  1  0
 26 29  1  0
 25 30  2  0
 10 31  2  0
 31 32  1  0
 32 33  1  0
 33 34  2  0
 34 35  1  0
 35 36  2  0
 31  7  1  0
 36 32  1  0
 30 17  1  0
  1 37  1  0
  1 38  1  0
  1 39  1  0
  2 40  1  0
  3 41  1  0
  3 42  1  0
  3 43  1  0
  8 44  1  0
 13 45  1  0
 14 46  1  0
 18 47  1  0
 24 48  1  0
 30 49  1  0
 33 50  1  0
 34 51  1  0
 35 52  1  0
 36 53  1  0
M  END
>  <Binding energies>  (1) 
[-5.97]

>  <Ligand effiencies>  (1) 
[-0.15710526315789472]

>  <Interactions>  (1) 
["V-A:ILE:369:CG2:3237, V-A:ASP:366:CA:3210, V-A:ILE:538:C:4858, V-A:PRO:540:CG:4886, V-A:GLY:454:CA:4049, H-A:GLU:543:OE2:4910, V-A:PRO:540:C:4881, V-A:ILE:538:CB:4862, V-B:ALA:541:CB:9864, V-B:TYR:539:CE2:9848, V-B:LEU:475:CD2:9230, V-A:ASP:366:CG:3213, V-A:TYR:539:CD1:4873, V-B:TYR:539:CZ:9849, V-A:ILE:538:CA:4860, V-A:TYR:539:CZ:4877, V-A:ALA:541:CB:4892, V-A:TYR:539:CA:4869, V-A:GLU:543:CD:4908, V-A:TYR:539:CB:4871, V-A:ALA:541:CA:4890, V-B:TYR:539:CD2:9846, V-A:GLU:543:CG:4907, V-A:SER:385:CB:3409, H-A:SER:385:OG:3410, V-A:MET:535:CE:4835, V-A:TYR:539:C:4867, V-A:ASP:366:CB:3212, V-A:LEU:475:CD2:4259, H-A:ARG:545:NH2:4928, H-A:GLU:543:OE1:4909, H-A:ASP:366:OD1:3214, V-A:PRO:540:N:4884, V-A:TYR:539:CG:4872, V-A:PRO:540:CB:4885, V-A:PRO:540:CA:4883, V-A:TYR:539:CD2:4874, H-A:ASP:366:OD2:3215, V-A:PRO:540:CD:4887, V-A:TYR:539:CE1:4875"]

$$$$
ZINC103842757
     RDKit          3D

 57 60  0  0  0  0  0  0  0  0999 V2000
  130.1200  118.1640   61.5990 C   0  0  0  0  0  0  0  0  0  0  0  0
  130.8240  119.3320   60.9020 C   0  0  0  0  0  0  0  0  0  0  0  0
  129.8610  120.3430   60.6290 O   0  0  0  0  0  0  0  0  0  0  0  0
  130.3670  121.6760   60.5430 C   0  0  1  0  0  0  0  0  0  0  0  0
  129.2230  122.6780   60.3190 C   0  0  0  0  0  0  0  0  0  0  0  0
  128.3540  122.4680   59.2480 C   0  0  0  0  0  0  0  0  0  0  0  0
  127.2570  123.2950   59.0050 C   0  0  0  0  0  0  0  0  0  0  0  0
  126.3140  123.0300   57.8150 C   0  0  0  0  0  0  0  0  0  0  0  0
  126.9800  122.1270   56.7590 C   0  0  0  0  0  0  0  0  0  0  0  0
  125.7260  124.2980   57.1580 C   0  0  0  0  0  0  0  0  0  0  0  0
  127.0160  124.3490   59.8940 C   0  0  0  0  0  0  0  0  0  0  0  0
  125.9240  125.1660   59.7070 O   0  0  0  0  0  0  0  0  0  0  0  0
  127.8750  124.5770   60.9800 C   0  0  0  0  0  0  0  0  0  0  0  0
  127.5280  125.5830   61.8470 O   0  0  0  0  0  0  0  0  0  0  0  0
  129.0270  123.7800   61.1970 C   0  0  0  0  0  0  0  0  0  0  0  0
  130.0560  123.9850   62.3700 C   0  0  2  0  0  0  0  0  0  0  0  0
  130.1080  125.4230   63.0040 C   0  0  0  0  0  0  0  0  0  0  0  0
  131.4100  125.8660   63.7040 C   0  0  0  0  0  0  0  0  0  0  0  0
  132.6500  125.4150   62.9220 C   0  0  0  0  0  0  0  0  0  0  0  0
  132.7310  123.8720   62.7740 C   0  0  0  0  0  0  0  0  0  0  0  0
  134.0320  123.5850   61.9850 C   0  0  0  0  0  0  0  0  0  0  0  0
  132.8450  123.2350   64.1890 C   0  0  0  0  0  0  0  0  0  0  0  0
  131.4670  123.4910   61.9150 C   0  0  1  0  0  0  0  0  0  0  0  0
  131.1870  121.9900   61.8260 C   0  0  1  0  0  0  0  0  0  0  0  0
  130.4160  121.7540   63.0100 O   0  0  0  0  0  0  0  0  0  0  0  0
  129.7260  122.8640   63.3680 C   0  0  0  0  0  0  0  0  0  0  0  0
  129.0200  122.9020   64.3740 O   0  0  0  0  0  0  0  0  0  0  0  0
  130.1951  118.2886   62.6893 H   0  0  0  0  0  0  0  0  0  0  0  0
  129.0604  118.1459   61.3041 H   0  0  0  0  0  0  0  0  0  0  0  0
  130.5989  117.2186   61.3041 H   0  0  0  0  0  0  0  0  0  0  0  0
  131.6098  119.7357   61.5574 H   0  0  0  0  0  0  0  0  0  0  0  0
  131.2849  118.9881   59.9643 H   0  0  0  0  0  0  0  0  0  0  0  0
  131.0368  121.7691   59.6754 H   0  0  0  0  0  0  0  0  0  0  0  0
  128.5402  121.6208   58.5715 H   0  0  0  0  0  0  0  0  0  0  0  0
  125.4542  122.5026   58.2540 H   0  0  0  0  0  0  0  0  0  0  0  0
  127.5604  121.3401   57.2629 H   0  0  0  0  0  0  0  0  0  0  0  0
  126.2047  121.6650   56.1301 H   0  0  0  0  0  0  0  0  0  0  0  0
  127.6504  122.7312   56.1301 H   0  0  0  0  0  0  0  0  0  0  0  0
  125.4008  124.9993   57.9406 H   0  0  0  0  0  0  0  0  0  0  0  0
  126.4940  124.7768   56.5327 H   0  0  0  0  0  0  0  0  0  0  0  0
  124.8644  124.0211   56.5327 H   0  0  0  0  0  0  0  0  0  0  0  0
  125.7340  125.7130   60.4730 H   0  0  0  0  0  0  0  0  0  0  0  0
  126.5880  125.7760   61.8230 H   0  0  0  0  0  0  0  0  0  0  0  0
  129.9113  126.1428   62.1958 H   0  0  0  0  0  0  0  0  0  0  0  0
  129.3621  125.3912   63.8119 H   0  0  0  0  0  0  0  0  0  0  0  0
  131.4174  126.9631   63.7841 H   0  0  0  0  0  0  0  0  0  0  0  0
  131.4419  125.4005   64.7001 H   0  0  0  0  0  0  0  0  0  0  0  0
  132.6169  125.8643   61.9185 H   0  0  0  0  0  0  0  0  0  0  0  0
  133.5369  125.7438   63.4834 H   0  0  0  0  0  0  0  0  0  0  0  0
  134.8561  123.4032   62.6905 H   0  0  0  0  0  0  0  0  0  0  0  0
  133.8886  122.6969   61.3520 H   0  0  0  0  0  0  0  0  0  0  0  0
  134.2755  124.4510   61.3520 H   0  0  0  0  0  0  0  0  0  0  0  0
  132.7057  124.0133   64.9538 H   0  0  0  0  0  0  0  0  0  0  0  0
  132.0708  122.4625   64.3068 H   0  0  0  0  0  0  0  0  0  0  0  0
  133.8390  122.7789   64.3068 H   0  0  0  0  0  0  0  0  0  0  0  0
  131.8022  123.9916   60.9946 H   0  0  0  0  0  0  0  0  0  0  0  0
  132.0883  121.3623   61.7653 H   0  0  0  0  0  0  0  0  0  0  0  0
  1  2  1  0
  2  3  1  0
  3  4  1  0
  4  5  1  0
  5  6  2  0
  6  7  1  0
  7  8  1  0
  8  9  1  0
  8 10  1  0
  7 11  2  0
 11 12  1  0
 11 13  1  0
 13 14  1  0
 13 15  2  0
 15 16  1  0
 16 17  1  1
 17 18  1  0
 18 19  1  0
 19 20  1  0
 20 21  1  0
 20 22  1  0
 20 23  1  0
 23 24  1  0
 24 25  1  0
 25 26  1  0
 26 27  2  0
 24  4  1  0
 15  5  1  0
 23 16  1  0
 26 16  1  0
  1 28  1  0
  1 29  1  0
  1 30  1  0
  2 31  1  0
  2 32  1  0
  4 33  1  6
  6 34  1  0
  8 35  1  0
  9 36  1  0
  9 37  1  0
  9 38  1  0
 10 39  1  0
 10 40  1  0
 10 41  1  0
 12 42  1  0
 14 43  1  0
 17 44  1  0
 17 45  1  0
 18 46  1  0
 18 47  1  0
 19 48  1  0
 19 49  1  0
 21 50  1  0
 21 51  1  0
 21 52  1  0
 22 53  1  0
 22 54  1  0
 22 55  1  0
 23 56  1  6
 24 57  1  1
M  END
>  <Binding energies>  (1) 
[-6.58]

>  <Ligand effiencies>  (1) 
[-0.22689655172413795]

>  <Interactions>  (1) 
["V-B:TYR:539:CA:9841, V-B:PRO:540:CA:9855, V-A:GLY:454:CA:4049, V-B:ALA:541:CB:9864, V-B:TYR:539:CE2:9848, V-A:LEU:475:CG:4257, V-B:TYR:539:C:9839, H-B:GLU:543:OE1:9881, V-A:LEU:475:CD1:4258, V-A:GLU:543:CD:4908, V-B:PRO:540:CB:9857, V-A:TYR:484:CZ:4347, H-B:ASP:366:OD1:8185, V-B:PRO:540:N:9856, V-A:ILE:369:CD1:3239, V-A:PRO:482:CB:4326, V-B:TYR:539:CD2:9846, V-B:PRO:540:CD:9859, V-A:LEU:475:CD2:4259, V-A:ARG:545:CZ:4926, V-B:TYR:539:CG:9844, V-B:TYR:539:CD1:9845, V-B:MET:535:CE:9807, V-B:TYR:539:CE1:9847"]

$$$$
ZINC103852344
     RDKit          3D

 53 53  0  0  0  0  0  0  0  0999 V2000
  127.4040  122.9560   57.5420 C   0  0  0  0  0  0  0  0  0  0  0  0
  127.9470  123.4450   58.8890 C   0  0  0  0  0  0  0  0  0  0  0  0
  128.0030  122.3530   59.7970 O   0  0  0  0  0  0  0  0  0  0  0  0
  127.9570  122.5520   61.1420 C   0  0  0  0  0  0  0  0  0  0  0  0
  126.9240  122.8620   61.7450 O   0  0  0  0  0  0  0  0  0  0  0  0
  129.2680  122.3540   61.8190 C   0  0  0  0  0  0  0  0  0  0  0  0
  129.4820  122.9590   63.0200 C   0  0  0  0  0  0  0  0  0  0  0  0
  130.6050  122.9510   63.8260 N   0  0  0  0  0  0  0  0  0  0  0  0
  130.7580  123.7590   64.9350 C   0  0  0  0  0  0  0  0  0  0  0  0
  131.6900  124.7210   65.1740 C   0  0  0  0  0  0  0  0  0  0  0  0
  131.6970  125.4700   66.4570 C   0  0  0  0  0  0  0  0  0  0  0  0
  132.6850  126.0840   66.8750 O   0  0  0  0  0  0  0  0  0  0  0  0
  130.5160  125.4120   67.1380 O   0  0  0  0  0  0  0  0  0  0  0  0
  129.4810  126.3700   66.9350 C   0  0  0  0  0  0  0  0  0  0  0  0
  129.2250  127.2080   68.1990 C   0  0  0  0  0  0  0  0  0  0  0  0
  132.7200  125.0410   64.1510 C   0  0  0  0  0  0  0  0  0  0  0  0
  133.9130  125.0730   64.4620 O   0  0  0  0  0  0  0  0  0  0  0  0
  132.3160  125.2250   62.7200 C   0  0  0  0  0  0  0  0  0  0  0  0
  133.1830  124.7550   61.7240 C   0  0  0  0  0  0  0  0  0  0  0  0
  132.8830  124.8980   60.3630 C   0  0  0  0  0  0  0  0  0  0  0  0
  133.8340  124.3720   59.3600 N   0  0  0  0  0  0  0  0  0  0  0  0
  135.0260  124.3490   59.6560 O   0  0  0  0  0  0  0  0  0  0  0  0
  133.3920  123.9530   58.2960 O   0  0  0  0  0  0  0  0  0  0  0  0
  131.7060  125.5730   59.9980 C   0  0  0  0  0  0  0  0  0  0  0  0
  131.2810  125.8610   58.3440 Cl  0  0  0  0  0  0  0  0  0  0  0  0
  130.8510  126.0650   60.9830 C   0  0  0  0  0  0  0  0  0  0  0  0
  131.1460  125.9060   62.3370 C   0  0  0  0  0  0  0  0  0  0  0  0
  130.0430  126.5960   63.4830 Cl  0  0  0  0  0  0  0  0  0  0  0  0
  130.3220  121.5050   61.1820 C   0  0  0  0  0  0  0  0  0  0  0  0
  130.0580  120.4960   60.5190 O   0  0  0  0  0  0  0  0  0  0  0  0
  131.5980  121.9230   61.4050 O   0  0  0  0  0  0  0  0  0  0  0  0
  132.7030  121.2950   60.7670 C   0  0  0  0  0  0  0  0  0  0  0  0
  133.9710  121.5490   61.5880 C   0  0  0  0  0  0  0  0  0  0  0  0
  126.5967  122.2290   57.7142 H   0  0  0  0  0  0  0  0  0  0  0  0
  127.0117  123.8114   56.9724 H   0  0  0  0  0  0  0  0  0  0  0  0
  128.2138  122.4766   56.9724 H   0  0  0  0  0  0  0  0  0  0  0  0
  128.9564  123.8593   58.7498 H   0  0  0  0  0  0  0  0  0  0  0  0
  127.2850  124.2257   59.2918 H   0  0  0  0  0  0  0  0  0  0  0  0
  128.6333  123.5420   63.4072 H   0  0  0  0  0  0  0  0  0  0  0  0
  131.3590  122.3220   63.5840 H   0  0  0  0  0  0  0  0  0  0  0  0
  130.0230  123.6031   65.7384 H   0  0  0  0  0  0  0  0  0  0  0  0
  129.7734  127.0422   66.1149 H   0  0  0  0  0  0  0  0  0  0  0  0
  128.5557  125.8281   66.6899 H   0  0  0  0  0  0  0  0  0  0  0  0
  129.4130  126.5926   69.0912 H   0  0  0  0  0  0  0  0  0  0  0  0
  129.8984  128.0778   68.2049 H   0  0  0  0  0  0  0  0  0  0  0  0
  128.1805  127.5529   68.2049 H   0  0  0  0  0  0  0  0  0  0  0  0
  134.1214  124.2621   62.0180 H   0  0  0  0  0  0  0  0  0  0  0  0
  129.9289  126.5870   60.6877 H   0  0  0  0  0  0  0  0  0  0  0  0
  132.5208  120.2124   60.6973 H   0  0  0  0  0  0  0  0  0  0  0  0
  132.8291  121.7086   59.7556 H   0  0  0  0  0  0  0  0  0  0  0  0
  133.7295  121.5006   62.6601 H   0  0  0  0  0  0  0  0  0  0  0  0
  134.7234  120.7837   61.3468 H   0  0  0  0  0  0  0  0  0  0  0  0
  134.3706  122.5450   61.3468 H   0  0  0  0  0  0  0  0  0  0  0  0
  1  2  1  0
  2  3  1  0
  3  4  1  0
  4  5  2  0
  4  6  1  0
  6  7  2  3
  7  8  1  0
  8  9  1  0
  9 10  2  0
 10 11  1  0
 11 12  2  0
 11 13  1  0
 13 14  1  0
 14 15  1  0
 10 16  1  0
 16 17  2  0
 16 18  1  0
 18 19  2  0
 19 20  1  0
 20 21  1  0
 21 22  2  0
 21 23  1  0
 20 24  2  0
 24 25  1  0
 24 26  1  0
 26 27  2  0
 27 28  1  0
  6 29  1  0
 29 30  2  0
 29 31  1  0
 31 32  1  0
 32 33  1  0
 27 18  1  0
  1 34  1  0
  1 35  1  0
  1 36  1  0
  2 37  1  0
  2 38  1  0
  7 39  1  0
  8 40  1  0
  9 41  1  0
 14 42  1  0
 14 43  1  0
 15 44  1  0
 15 45  1  0
 15 46  1  0
 19 47  1  0
 26 48  1  0
 32 49  1  0
 32 50  1  0
 33 51  1  0
 33 52  1  0
 33 53  1  0
M  CHG  2  21   1  23  -1
M  END
>  <Binding energies>  (1) 
[-7.19]

>  <Ligand effiencies>  (1) 
[-0.21147058823529413]

>  <Interactions>  (1) 
["V-A:ILE:369:CG2:3237, V-A:ASP:366:CA:3210, V-B:PRO:540:CA:9855, V-A:ILE:369:CB:3236, V-B:GLU:543:CB:9878, V-B:ALA:541:CB:9864, H-A:ARG:545:NH1:4927, V-B:TYR:539:CE2:9848, V-A:TYR:484:CE2:4346, V-B:GLU:543:CG:9879, V-B:TYR:539:C:9839, V-A:ASP:366:CG:3213, V-B:TYR:539:CZ:9849, H-B:TYR:539:OH:9850, H-B:ALA:541:N:9863, V-A:TYR:484:CZ:4347, V-A:GLU:543:CD:4908, H-A:GLY:454:N:4050, V-A:SER:385:C:3405, V-B:PRO:540:N:9856, V-A:ILE:369:CD1:3239, V-A:HIS:456:CE1:4070, V-B:TYR:539:CD2:9846, V-A:SER:385:CB:3409, V-B:GLU:543:CD:9880, V-A:ASP:366:CB:3212, V-A:LEU:475:CD2:4259, H-A:ARG:545:NH2:4928, V-A:ARG:545:CZ:4926, V-A:GLU:543:CB:4906, H-A:ARG:545:NE:4924, V-A:SER:385:CA:3407, V-B:PRO:540:C:9853, H-A:TYR:484:OH:4348"]

$$$$
ZINC103988354
     RDKit          3D

 50 54  0  0  0  0  0  0  0  0999 V2000
  126.1750  125.3670   59.6640 O   0  0  0  0  0  0  0  0  0  0  0  0
  126.4890  125.3340   60.8510 N   0  0  0  0  0  0  0  0  0  0  0  0
  126.4110  124.3190   61.5370 O   0  0  0  0  0  0  0  0  0  0  0  0
  127.0470  126.5700   61.4570 C   0  0  0  0  0  0  0  0  0  0  0  0
  126.1930  127.6780   61.5800 C   0  0  0  0  0  0  0  0  0  0  0  0
  126.6540  128.8920   62.0790 C   0  0  0  0  0  0  0  0  0  0  0  0
  127.9810  129.0220   62.4700 C   0  0  0  0  0  0  0  0  0  0  0  0
  128.8410  127.9310   62.3770 C   0  0  0  0  0  0  0  0  0  0  0  0
  128.3940  126.6930   61.8880 C   0  0  0  0  0  0  0  0  0  0  0  0
  129.3530  125.5590   61.9060 C   0  0  0  0  0  0  0  0  0  0  0  0
  129.9140  125.0560   60.8720 N   0  0  0  0  0  0  0  0  0  0  0  0
  129.1030  124.4470   59.8940 C   0  0  0  0  0  0  0  0  0  0  0  0
  128.8470  125.1150   58.6910 C   0  0  0  0  0  0  0  0  0  0  0  0
  128.0650  124.5350   57.6960 C   0  0  0  0  0  0  0  0  0  0  0  0
  127.5180  123.2690   57.8900 C   0  0  0  0  0  0  0  0  0  0  0  0
  126.4520  122.4740   56.5280 Br  0  0  0  0  0  0  0  0  0  0  0  0
  127.7500  122.5850   59.0810 C   0  0  0  0  0  0  0  0  0  0  0  0
  128.5270  123.1600   60.0940 C   0  0  0  0  0  0  0  0  0  0  0  0
  128.7380  122.4170   61.3560 C   0  0  0  0  0  0  0  0  0  0  0  0
  129.6840  121.2730   61.3720 C   0  0  0  0  0  0  0  0  0  0  0  0
  129.1570  119.9960   61.6260 C   0  0  0  0  0  0  0  0  0  0  0  0
  129.9620  118.8610   61.5750 C   0  0  0  0  0  0  0  0  0  0  0  0
  131.3100  118.9820   61.2650 C   0  0  0  0  0  0  0  0  0  0  0  0
  131.8560  120.2380   61.0220 C   0  0  0  0  0  0  0  0  0  0  0  0
  131.0710  121.4000   61.0870 C   0  0  0  0  0  0  0  0  0  0  0  0
  131.7490  122.7050   60.8810 N   0  0  0  0  0  0  0  0  0  0  0  0
  131.9700  123.4190   61.8540 O   0  0  0  0  0  0  0  0  0  0  0  0
  132.1080  122.9920   59.7430 O   0  0  0  0  0  0  0  0  0  0  0  0
  128.1770  122.9150   62.3900 N   0  0  0  0  0  0  0  0  0  0  0  0
  128.9880  123.5270   63.3680 C   0  0  0  0  0  0  0  0  0  0  0  0
  129.2430  122.8590   64.5720 C   0  0  0  0  0  0  0  0  0  0  0  0
  130.0250  123.4410   65.5660 C   0  0  0  0  0  0  0  0  0  0  0  0
  130.5710  124.7070   65.3730 C   0  0  0  0  0  0  0  0  0  0  0  0
  131.6360  125.5020   66.7350 Br  0  0  0  0  0  0  0  0  0  0  0  0
  130.3400  125.3890   64.1810 C   0  0  0  0  0  0  0  0  0  0  0  0
  129.5640  124.8140   63.1670 C   0  0  0  0  0  0  0  0  0  0  0  0
  125.1400  127.5842   61.2761 H   0  0  0  0  0  0  0  0  0  0  0  0
  125.9686  129.7482   62.1639 H   0  0  0  0  0  0  0  0  0  0  0  0
  128.3513  129.9847   62.8522 H   0  0  0  0  0  0  0  0  0  0  0  0
  129.8891  128.0408   62.6922 H   0  0  0  0  0  0  0  0  0  0  0  0
  129.2715  126.1167   58.5288 H   0  0  0  0  0  0  0  0  0  0  0  0
  127.8792  125.0765   56.7567 H   0  0  0  0  0  0  0  0  0  0  0  0
  127.3187  121.5837   59.2271 H   0  0  0  0  0  0  0  0  0  0  0  0
  128.0895  119.8907   61.8695 H   0  0  0  0  0  0  0  0  0  0  0  0
  129.5307  117.8701   61.7800 H   0  0  0  0  0  0  0  0  0  0  0  0
  131.9454  118.0856   61.2116 H   0  0  0  0  0  0  0  0  0  0  0  0
  132.9243  120.3225   60.7739 H   0  0  0  0  0  0  0  0  0  0  0  0
  128.8183  121.8575   64.7352 H   0  0  0  0  0  0  0  0  0  0  0  0
  130.2117  122.8997   66.5052 H   0  0  0  0  0  0  0  0  0  0  0  0
  130.7717  126.3901   64.0344 H   0  0  0  0  0  0  0  0  0  0  0  0
  1  2  2  0
  2  3  1  0
  2  4  1  0
  4  5  2  0
  5  6  1  0
  6  7  2  0
  7  8  1  0
  8  9  2  0
  9 10  1  0
 10 11  2  0
 11 12  1  0
 12 13  2  0
 13 14  1  0
 14 15  2  0
 15 16  1  0
 15 17  1  0
 17 18  2  0
 18 19  1  0
 19 20  1  0
 20 21  2  0
 21 22  1  0
 22 23  2  0
 23 24  1  0
 24 25  2  0
 25 26  1  0
 26 27  2  0
 26 28  1  0
 19 29  2  0
 29 30  1  0
 30 31  2  0
 31 32  1  0
 32 33  2  0
 33 34  1  0
 33 35  1  0
 35 36  2  0
  9  4  1  0
 36 10  1  0
 18 12  1  0
 25 20  1  0
 36 30  1  0
  5 37  1  0
  6 38  1  0
  7 39  1  0
  8 40  1  0
 13 41  1  0
 14 42  1  0
 17 43  1  0
 21 44  1  0
 22 45  1  0
 23 46  1  0
 24 47  1  0
 31 48  1  0
 32 49  1  0
 35 50  1  0
M  CHG  4   2   1   3  -1  26   1  28  -1
M  END
>  <Binding energies>  (1) 
[-7.48]

>  <Ligand effiencies>  (1) 
[-0.20777777777777778]

>  <Interactions>  (1) 
["V-B:PRO:540:CA:9855, V-B:ALA:541:CB:9864, V-B:ASP:366:CG:8184, V-B:TYR:539:CE2:9848, V-A:TYR:484:CE2:4346, V-A:LEU:475:CG:4257, V-B:GLU:543:CG:9879, V-B:TYR:539:C:9839, H-B:ALA:541:N:9863, V-A:LEU:475:CD1:4258, V-A:TYR:484:CZ:4347, V-B:PRO:540:CB:9857, V-B:PRO:540:N:9856, V-A:HIS:456:CE1:4070, V-B:PRO:540:CD:9859, V-B:TYR:539:CD2:9846, V-A:SER:385:CB:3409, V-B:GLU:543:CD:9880, V-A:LEU:475:CD2:4259, V-B:PRO:540:C:9853, V-B:ALA:541:CA:9862"]

$$$$
ZINC1040700
     RDKit          3D

 46 48  0  0  0  0  0  0  0  0999 V2000
  128.7430  131.1360   63.3140 C   0  0  0  0  0  0  0  0  0  0  0  0
  127.6370  130.4310   62.7680 O   0  0  0  0  0  0  0  0  0  0  0  0
  127.1370  129.3390   63.3880 C   0  0  0  0  0  0  0  0  0  0  0  0
  126.5300  128.4320   62.8130 O   0  0  0  0  0  0  0  0  0  0  0  0
  127.4090  129.3700   64.8270 C   0  0  0  0  0  0  0  0  0  0  0  0
  128.1300  128.4500   65.5180 C   0  0  0  0  0  0  0  0  0  0  0  0
  128.9380  126.9900   64.9570 S   0  0  0  0  0  0  0  0  0  0  0  0
  129.5530  126.6010   66.5950 C   0  0  0  0  0  0  0  0  0  0  0  0
  130.2820  125.5770   66.8550 N   0  0  0  0  0  0  0  0  0  0  0  0
  130.6640  124.6530   65.8770 C   0  0  0  0  0  0  0  0  0  0  0  0
  129.8580  123.5430   65.5910 C   0  0  0  0  0  0  0  0  0  0  0  0
  130.2030  122.6440   64.5820 C   0  0  0  0  0  0  0  0  0  0  0  0
  131.3560  122.8530   63.8280 C   0  0  0  0  0  0  0  0  0  0  0  0
  132.1600  123.9610   64.0870 C   0  0  0  0  0  0  0  0  0  0  0  0
  133.6020  124.2500   63.1160 S   0  0  0  0  0  0  0  0  0  0  0  0
  133.9600  122.6440   62.3580 C   0  0  0  0  0  0  0  0  0  0  0  0
  131.8150  124.8560   65.1020 C   0  0  0  0  0  0  0  0  0  0  0  0
  129.0960  127.5780   67.4320 N   0  0  0  0  0  0  0  0  0  0  0  0
  129.3990  127.5420   68.8140 C   0  0  0  0  0  0  0  0  0  0  0  0
  130.6360  128.0090   69.2790 C   0  0  0  0  0  0  0  0  0  0  0  0
  130.9320  127.9690   70.6400 C   0  0  0  0  0  0  0  0  0  0  0  0
  129.9990  127.4610   71.5430 C   0  0  0  0  0  0  0  0  0  0  0  0
  128.7640  126.9900   71.0910 C   0  0  0  0  0  0  0  0  0  0  0  0
  127.6130  126.3480   72.2750 S   0  0  0  0  0  0  0  0  0  0  0  0
  127.0130  127.7130   73.3090 C   0  0  0  0  0  0  0  0  0  0  0  0
  128.4640  127.0310   69.7260 C   0  0  0  0  0  0  0  0  0  0  0  0
  128.3300  128.5940   66.9420 C   0  0  0  0  0  0  0  0  0  0  0  0
  127.8700  129.5120   67.6290 O   0  0  0  0  0  0  0  0  0  0  0  0
  128.6923  131.1037   64.4124 H   0  0  0  0  0  0  0  0  0  0  0  0
  129.6793  130.6677   62.9762 H   0  0  0  0  0  0  0  0  0  0  0  0
  128.7137  132.1824   62.9762 H   0  0  0  0  0  0  0  0  0  0  0  0
  126.9925  130.2128   65.3981 H   0  0  0  0  0  0  0  0  0  0  0  0
  128.9384  123.3780   66.1716 H   0  0  0  0  0  0  0  0  0  0  0  0
  129.5652  121.7705   64.3816 H   0  0  0  0  0  0  0  0  0  0  0  0
  131.6304  122.1459   63.0313 H   0  0  0  0  0  0  0  0  0  0  0  0
  134.1269  121.8954   63.1465 H   0  0  0  0  0  0  0  0  0  0  0  0
  133.1086  122.3353   61.7336 H   0  0  0  0  0  0  0  0  0  0  0  0
  134.8619  122.7261   61.7336 H   0  0  0  0  0  0  0  0  0  0  0  0
  132.4536  125.7304   65.2959 H   0  0  0  0  0  0  0  0  0  0  0  0
  131.3746  128.4079   68.5681 H   0  0  0  0  0  0  0  0  0  0  0  0
  131.9026  128.3385   71.0023 H   0  0  0  0  0  0  0  0  0  0  0  0
  130.2366  127.4310   72.6166 H   0  0  0  0  0  0  0  0  0  0  0  0
  127.1296  127.4478   74.3702 H   0  0  0  0  0  0  0  0  0  0  0  0
  127.5951  128.6208   73.0918 H   0  0  0  0  0  0  0  0  0  0  0  0
  125.9506  127.8979   73.0918 H   0  0  0  0  0  0  0  0  0  0  0  0
  127.4923  126.6616   69.3665 H   0  0  0  0  0  0  0  0  0  0  0  0
  1  2  1  0
  2  3  1  0
  3  4  2  0
  3  5  1  0
  5  6  2  0
  6  7  1  0
  7  8  1  0
  8  9  2  0
  9 10  1  0
 10 11  2  0
 11 12  1  0
 12 13  2  0
 13 14  1  0
 14 15  1  0
 15 16  1  0
 14 17  2  0
  8 18  1  0
 18 19  1  0
 19 20  2  0
 20 21  1  0
 21 22  2  0
 22 23  1  0
 23 24  1  0
 24 25  1  0
 23 26  2  0
 18 27  1  0
 27 28  2  0
 27  6  1  0
 17 10  1  0
 26 19  1  0
  1 29  1  0
  1 30  1  0
  1 31  1  0
  5 32  1  0
 11 33  1  0
 12 34  1  0
 13 35  1  0
 16 36  1  0
 16 37  1  0
 16 38  1  0
 17 39  1  0
 20 40  1  0
 21 41  1  0
 22 42  1  0
 25 43  1  0
 25 44  1  0
 25 45  1  0
 26 46  1  0
M  END
>  <Binding energies>  (1) 
[-7.3]

>  <Ligand effiencies>  (1) 
[-0.26071428571428573]

>  <Interactions>  (1) 
["V-A:GLU:543:CA:4904, V-A:GLY:454:CA:4049, V-B:GLU:543:C:9874, V-B:HIS:456:CD2:9039, V-A:GLU:543:C:4902, V-B:GLU:543:CB:9878, H-B:LYS:547:NZ:9923, V-B:ALA:541:CB:9864, V-A:TYR:484:CE2:4346, V-B:GLU:543:CG:9879, V-A:GLY:544:C:4912, V-A:HIS:456:CD2:4068, V-B:LYS:547:CE:9922, V-A:GLU:543:CD:4908, V-A:TYR:484:CZ:4347, H-B:TYR:484:OH:9319, V-B:HIS:456:CE1:9041, H-A:GLY:454:N:4050, V-A:HIS:456:CE1:4070, V-A:ILE:369:CD1:3239, V-A:GLU:543:CG:4907, V-B:GLU:543:CD:9880, V-B:HIS:456:CG:9037, V-A:LEU:475:CD2:4259, H-B:ARG:545:NH2:9900, V-A:GLU:543:CB:4906"]

$$$$
ZINC104100434-again1
     RDKit          3D

 32 34  0  0  0  0  0  0  0  0999 V2000
  131.9820  128.1570   58.2970 O   0  0  0  0  0  0  0  0  0  0  0  0
  130.9270  128.7230   58.0210 C   0  0  0  0  0  0  0  0  0  0  0  0
  130.8990  129.8430   57.2740 O   0  0  0  0  0  0  0  0  0  0  0  0
  129.5830  130.3400   57.0860 C   0  0  2  0  0  0  0  0  0  0  0  0
  129.5300  131.7770   57.7010 C   0  0  0  0  0  0  0  0  0  0  0  0
  129.5480  131.7190   59.4820 Cl  0  0  0  0  0  0  0  0  0  0  0  0
  130.9160  132.7680   57.1540 Cl  0  0  0  0  0  0  0  0  0  0  0  0
  128.0140  132.5890   57.2160 Cl  0  0  0  0  0  0  0  0  0  0  0  0
  128.7050  129.2730   57.7070 C   0  0  0  0  0  0  0  0  0  0  0  0
  127.3210  129.0750   57.6770 C   0  0  0  0  0  0  0  0  0  0  0  0
  126.5540  129.9590   56.9480 O   0  0  0  0  0  0  0  0  0  0  0  0
  126.7600  127.9560   58.3300 C   0  0  0  0  0  0  0  0  0  0  0  0
  125.4970  127.7370   58.2780 O   0  0  0  0  0  0  0  0  0  0  0  0
  127.6100  127.0700   59.0290 C   0  0  0  0  0  0  0  0  0  0  0  0
  128.9970  127.3070   59.1100 C   0  0  0  0  0  0  0  0  0  0  0  0
  129.5270  128.3630   58.3530 C   0  0  0  0  0  0  0  0  0  0  0  0
  129.8190  126.3670   60.0030 C   0  0  1  0  0  0  0  0  0  0  0  0
  130.2050  126.9580   61.4140 C   0  0  0  0  0  0  0  0  0  0  0  0
  131.0320  128.5270   61.2510 Cl  0  0  0  0  0  0  0  0  0  0  0  0
  128.7880  127.2270   62.4760 Cl  0  0  0  0  0  0  0  0  0  0  0  0
  131.3460  125.8610   62.2430 Cl  0  0  0  0  0  0  0  0  0  0  0  0
  129.1510  125.1020   60.0910 O   0  0  0  0  0  0  0  0  0  0  0  0
  127.8140  125.2250   60.5030 C   0  0  2  0  0  0  0  0  0  0  0  0
  127.2300  123.8170   60.6650 C   0  0  0  0  0  0  0  0  0  0  0  0
  125.4600  123.8990   60.9010 Cl  0  0  0  0  0  0  0  0  0  0  0  0
  127.5850  122.8520   59.2050 Cl  0  0  0  0  0  0  0  0  0  0  0  0
  127.9760  123.0160   62.0760 Cl  0  0  0  0  0  0  0  0  0  0  0  0
  127.0520  125.9020   59.5400 O   0  0  0  0  0  0  0  0  0  0  0  0
  129.2365  130.4898   56.0528 H   0  0  0  0  0  0  0  0  0  0  0  0
  125.6820  129.6070   56.7530 H   0  0  0  0  0  0  0  0  0  0  0  0
  130.7977  126.2321   59.5193 H   0  0  0  0  0  0  0  0  0  0  0  0
  127.7842  125.7897   61.4465 H   0  0  0  0  0  0  0  0  0  0  0  0
  1  2  2  0
  2  3  1  0
  3  4  1  0
  4  5  1  0
  5  6  1  0
  5  7  1  0
  5  8  1  0
  4  9  1  0
  9 10  2  0
 10 11  1  0
 10 12  1  0
 12 13  1  0
 12 14  2  0
 14 15  1  0
 15 16  2  0
 15 17  1  0
 17 18  1  0
 18 19  1  0
 18 20  1  0
 18 21  1  0
 17 22  1  0
 22 23  1  0
 23 24  1  0
 24 25  1  0
 24 26  1  0
 24 27  1  0
 23 28  1  0
 16  2  1  0
 16  9  1  0
 28 14  1  0
  4 29  1  6
 11 30  1  0
 17 31  1  6
 23 32  1  1
M  CHG  1  13  -1
M  END
>  <Binding energies>  (1) 
[-4.4]

>  <Ligand effiencies>  (1) 
[-0.1517241379310345]

>  <Interactions>  (1) 
["V-A:PRO:540:N:4884, V-A:TYR:539:CD1:4873, V-A:TYR:539:CG:4872, V-A:PRO:540:CB:4885, V-A:PRO:540:CA:4883, V-A:TYR:539:CZ:4877, V-B:PRO:540:CA:9855, V-A:MET:535:CE:4835, V-B:GLU:543:CD:9880, V-B:ALA:541:CB:9864, H-A:TYR:531:OH:4795, V-B:PRO:540:CB:9857, H-B:TYR:531:OH:9767, V-A:PRO:540:CD:4887, V-A:TYR:539:CE1:4875, V-B:TYR:539:C:9839, V-A:ASP:366:CG:3213, V-B:PRO:540:N:9856"]

$$$$
ZINC104151943
     RDKit          3D

 50 51  0  0  0  0  0  0  0  0999 V2000
  132.3510  125.1270   65.0480 C   0  0  0  0  0  0  0  0  0  0  0  0
  133.5740  124.6660   64.4820 O   0  0  0  0  0  0  0  0  0  0  0  0
  133.6360  124.4230   63.1230 C   0  0  0  0  0  0  0  0  0  0  0  0
  134.7740  124.6230   62.3320 C   0  0  0  0  0  0  0  0  0  0  0  0
  134.7390  124.3490   60.9680 C   0  0  0  0  0  0  0  0  0  0  0  0
  133.5700  123.8780   60.3560 C   0  0  0  0  0  0  0  0  0  0  0  0
  133.5760  123.5780   58.9140 C   0  0  0  0  0  0  0  0  0  0  0  0
  133.2940  124.3490   57.9340 N   0  0  0  0  0  0  0  0  0  0  0  0
  132.8330  125.7190   58.1360 C   0  0  0  0  0  0  0  0  0  0  0  0
  131.2910  125.7780   58.2350 C   0  0  0  0  0  0  0  0  0  0  0  0
  130.8480  126.9580   58.9660 N   0  0  0  0  0  0  0  0  0  0  0  0
  131.5800  128.0010   58.9160 C   0  0  0  0  0  0  0  0  0  0  0  0
  131.2610  129.2710   59.5990 C   0  0  0  0  0  0  0  0  0  0  0  0
  130.5950  129.2620   60.8360 C   0  0  0  0  0  0  0  0  0  0  0  0
  130.2840  130.4450   61.4970 C   0  0  0  0  0  0  0  0  0  0  0  0
  130.6240  131.6780   60.9480 C   0  0  0  0  0  0  0  0  0  0  0  0
  130.2740  132.7990   61.6750 O   0  0  0  0  0  0  0  0  0  0  0  0
  128.9370  133.2840   61.6070 C   0  0  0  0  0  0  0  0  0  0  0  0
  131.2890  131.7010   59.7140 C   0  0  0  0  0  0  0  0  0  0  0  0
  131.6130  130.5140   59.0290 C   0  0  0  0  0  0  0  0  0  0  0  0
  132.2700  130.5150   57.8070 O   0  0  0  0  0  0  0  0  0  0  0  0
  131.8310  131.3740   56.7600 C   0  0  0  0  0  0  0  0  0  0  0  0
  132.4220  123.6610   61.1400 C   0  0  0  0  0  0  0  0  0  0  0  0
  131.2810  123.1820   60.5110 O   0  0  0  0  0  0  0  0  0  0  0  0
  130.0230  123.7990   60.7620 C   0  0  0  0  0  0  0  0  0  0  0  0
  132.4750  123.9430   62.5170 C   0  0  0  0  0  0  0  0  0  0  0  0
  132.4218  125.1003   66.1454 H   0  0  0  0  0  0  0  0  0  0  0  0
  132.1601  126.1588   64.7179 H   0  0  0  0  0  0  0  0  0  0  0  0
  131.5265  124.4779   64.7179 H   0  0  0  0  0  0  0  0  0  0  0  0
  135.7004  124.9986   62.7911 H   0  0  0  0  0  0  0  0  0  0  0  0
  135.6431  124.5046   60.3610 H   0  0  0  0  0  0  0  0  0  0  0  0
  133.8620  122.5509   58.6435 H   0  0  0  0  0  0  0  0  0  0  0  0
  133.2681  126.1110   59.0671 H   0  0  0  0  0  0  0  0  0  0  0  0
  133.1515  126.3255   57.2754 H   0  0  0  0  0  0  0  0  0  0  0  0
  130.8684  125.8068   57.2198 H   0  0  0  0  0  0  0  0  0  0  0  0
  130.9454  124.8857   58.7776 H   0  0  0  0  0  0  0  0  0  0  0  0
  132.5077  127.9517   58.3269 H   0  0  0  0  0  0  0  0  0  0  0  0
  130.3142  128.3004   61.2904 H   0  0  0  0  0  0  0  0  0  0  0  0
  129.7632  130.4060   62.4651 H   0  0  0  0  0  0  0  0  0  0  0  0
  128.5461  133.4258   62.6254 H   0  0  0  0  0  0  0  0  0  0  0  0
  128.9223  134.2448   61.0715 H   0  0  0  0  0  0  0  0  0  0  0  0
  128.3097  132.5561   61.0715 H   0  0  0  0  0  0  0  0  0  0  0  0
  131.5642  132.6692   59.2703 H   0  0  0  0  0  0  0  0  0  0  0  0
  131.3708  132.2744   57.1931 H   0  0  0  0  0  0  0  0  0  0  0  0
  132.6912  131.6644   56.1390 H   0  0  0  0  0  0  0  0  0  0  0  0
  131.0917  130.8469   56.1390 H   0  0  0  0  0  0  0  0  0  0  0  0
  129.8631  123.8774   61.8475 H   0  0  0  0  0  0  0  0  0  0  0  0
  130.0124  124.8046   60.3162 H   0  0  0  0  0  0  0  0  0  0  0  0
  129.2214  123.1918   60.3162 H   0  0  0  0  0  0  0  0  0  0  0  0
  131.5775  123.7808   63.1320 H   0  0  0  0  0  0  0  0  0  0  0  0
  1  2  1  0
  2  3  1  0
  3  4  2  0
  4  5  1  0
  5  6  2  0
  6  7  1  0
  7  8  2  0
  8  9  1  0
  9 10  1  0
 10 11  1  0
 11 12  2  0
 12 13  1  0
 13 14  2  0
 14 15  1  0
 15 16  2  0
 16 17  1  0
 17 18  1  0
 16 19  1  0
 19 20  2  0
 20 21  1  0
 21 22  1  0
  6 23  1  0
 23 24  1  0
 24 25  1  0
 23 26  2  0
 26  3  1  0
 20 13  1  0
  1 27  1  0
  1 28  1  0
  1 29  1  0
  4 30  1  0
  5 31  1  0
  7 32  1  0
  9 33  1  0
  9 34  1  0
 10 35  1  0
 10 36  1  0
 12 37  1  0
 14 38  1  0
 15 39  1  0
 18 40  1  0
 18 41  1  0
 18 42  1  0
 19 43  1  0
 22 44  1  0
 22 45  1  0
 22 46  1  0
 25 47  1  0
 25 48  1  0
 25 49  1  0
 26 50  1  0
M  END
>  <Binding energies>  (1) 
[-4.74]

>  <Ligand effiencies>  (1) 
[-0.1823076923076923]

>  <Interactions>  (1) 
["V-A:ILE:369:CG2:3237, V-A:ASP:366:CA:3210, V-A:ILE:369:CB:3236, H-A:ALA:541:N:4891, V-A:PRO:540:C:4881, H-A:TYR:531:OH:4795, V-B:TYR:539:CE2:9848, V-A:ASP:366:CG:3213, V-A:LEU:363:CD1:3189, V-B:TYR:539:CZ:9849, V-A:TYR:531:CE2:4793, H-B:TYR:539:OH:9850, V-A:ALA:541:CB:4892, H-A:GLY:454:N:4050, V-A:GLY:453:C:4042, V-A:ILE:369:CD1:3239, V-A:ASP:366:C:3208, V-A:ASP:366:CB:3212, H-A:ARG:545:NH2:4928, V-A:ARG:545:CZ:4926, V-A:GLY:453:CA:4044, V-A:PRO:540:CB:4885, V-A:PRO:540:CA:4883, H-A:ARG:545:NE:4924, H-A:TYR:484:OH:4348"]

$$$$
ZINC104151943-again1
     RDKit          3D

 51 52  0  0  0  0  0  0  0  0999 V2000
  130.4600  132.7540   57.5650 C   0  0  0  0  0  0  0  0  0  0  0  0
  129.2030  133.1480   58.1060 O   0  0  0  0  0  0  0  0  0  0  0  0
  128.9910  133.0340   59.4650 C   0  0  0  0  0  0  0  0  0  0  0  0
  127.7880  133.3490   60.1120 C   0  0  0  0  0  0  0  0  0  0  0  0
  127.6640  133.1840   61.4890 C   0  0  0  0  0  0  0  0  0  0  0  0
  128.7300  132.6940   62.2520 C   0  0  0  0  0  0  0  0  0  0  0  0
  128.5370  132.4920   63.6970 C   0  0  0  0  0  0  0  0  0  0  0  0
  128.0540  131.4530   64.2680 N   0  0  0  0  0  0  0  0  0  0  0  0
  127.5950  130.3230   63.4750 C   0  0  0  0  0  0  0  0  0  0  0  0
  127.6170  129.0310   64.3180 C   0  0  0  0  0  0  0  0  0  0  0  0
  128.8210  128.2250   63.9870 N   0  0  0  0  0  0  0  0  0  0  0  0
  129.0240  127.0190   64.5010 C   0  0  0  0  0  0  0  0  0  0  0  0
  130.2420  126.2520   64.2510 C   0  0  0  0  0  0  0  0  0  0  0  0
  130.7910  125.4220   65.2410 C   0  0  0  0  0  0  0  0  0  0  0  0
  131.9510  124.6900   65.0080 C   0  0  0  0  0  0  0  0  0  0  0  0
  132.5980  124.7640   63.7690 C   0  0  0  0  0  0  0  0  0  0  0  0
  133.7510  124.0750   63.4440 O   0  0  0  0  0  0  0  0  0  0  0  0
  134.3590  124.2980   62.1770 C   0  0  0  0  0  0  0  0  0  0  0  0
  132.0580  125.5850   62.7810 C   0  0  0  0  0  0  0  0  0  0  0  0
  130.8870  126.3340   62.9980 C   0  0  0  0  0  0  0  0  0  0  0  0
  130.3330  127.1530   62.0240 O   0  0  0  0  0  0  0  0  0  0  0  0
  131.1460  127.6570   60.9680 C   0  0  0  0  0  0  0  0  0  0  0  0
  129.9510  132.3900   61.6220 C   0  0  0  0  0  0  0  0  0  0  0  0
  130.9920  131.9130   62.4040 O   0  0  0  0  0  0  0  0  0  0  0  0
  132.1880  131.4510   61.7840 C   0  0  0  0  0  0  0  0  0  0  0  0
  130.0590  132.5660   60.2300 C   0  0  0  0  0  0  0  0  0  0  0  0
  131.1596  132.5347   58.3850 H   0  0  0  0  0  0  0  0  0  0  0  0
  130.3270  131.8544   56.9460 H   0  0  0  0  0  0  0  0  0  0  0  0
  130.8643  133.5685   56.9460 H   0  0  0  0  0  0  0  0  0  0  0  0
  126.9366  133.7289   59.5282 H   0  0  0  0  0  0  0  0  0  0  0  0
  126.7159  133.4421   61.9835 H   0  0  0  0  0  0  0  0  0  0  0  0
  128.8393  133.3201   64.3549 H   0  0  0  0  0  0  0  0  0  0  0  0
  126.5676  130.5145   63.1317 H   0  0  0  0  0  0  0  0  0  0  0  0
  128.2646  130.1973   62.6113 H   0  0  0  0  0  0  0  0  0  0  0  0
  127.6376  129.2938   65.3859 H   0  0  0  0  0  0  0  0  0  0  0  0
  126.7162  128.4404   64.0949 H   0  0  0  0  0  0  0  0  0  0  0  0
  129.5370  128.6500   63.4040 H   0  0  0  0  0  0  0  0  0  0  0  0
  128.2446  126.5792   65.1406 H   0  0  0  0  0  0  0  0  0  0  0  0
  130.2945  125.3489   66.2199 H   0  0  0  0  0  0  0  0  0  0  0  0
  132.3621  124.0494   65.8021 H   0  0  0  0  0  0  0  0  0  0  0  0
  135.3827  124.6735   62.3225 H   0  0  0  0  0  0  0  0  0  0  0  0
  134.3915  123.3533   61.6145 H   0  0  0  0  0  0  0  0  0  0  0  0
  133.7729  125.0397   61.6145 H   0  0  0  0  0  0  0  0  0  0  0  0
  132.5610  125.6492   61.8048 H   0  0  0  0  0  0  0  0  0  0  0  0
  132.0085  128.1917   61.3925 H   0  0  0  0  0  0  0  0  0  0  0  0
  131.5018  126.8208   60.3481 H   0  0  0  0  0  0  0  0  0  0  0  0
  130.5553  128.3476   60.3481 H   0  0  0  0  0  0  0  0  0  0  0  0
  132.9171  131.1694   62.5580 H   0  0  0  0  0  0  0  0  0  0  0  0
  131.9617  130.5756   61.1575 H   0  0  0  0  0  0  0  0  0  0  0  0
  132.6090  132.2512   61.1575 H   0  0  0  0  0  0  0  0  0  0  0  0
  131.0107  132.3282   59.7323 H   0  0  0  0  0  0  0  0  0  0  0  0
  1  2  1  0
  2  3  1  0
  3  4  2  0
  4  5  1  0
  5  6  2  0
  6  7  1  0
  7  8  2  0
  8  9  1  0
  9 10  1  0
 10 11  1  0
 11 12  2  0
 12 13  1  0
 13 14  2  0
 14 15  1  0
 15 16  2  0
 16 17  1  0
 17 18  1  0
 16 19  1  0
 19 20  2  0
 20 21  1  0
 21 22  1  0
  6 23  1  0
 23 24  1  0
 24 25  1  0
 23 26  2  0
 26  3  1  0
 20 13  1  0
  1 27  1  0
  1 28  1  0
  1 29  1  0
  4 30  1  0
  5 31  1  0
  7 32  1  0
  9 33  1  0
  9 34  1  0
 10 35  1  0
 10 36  1  0
 11 37  1  0
 12 38  1  0
 14 39  1  0
 15 40  1  0
 18 41  1  0
 18 42  1  0
 18 43  1  0
 19 44  1  0
 22 45  1  0
 22 46  1  0
 22 47  1  0
 25 48  1  0
 25 49  1  0
 25 50  1  0
 26 51  1  0
M  CHG  1  11   1
M  END
>  <Binding energies>  (1) 
[-6.65]

>  <Ligand effiencies>  (1) 
[-0.24629629629629632]

>  <Interactions>  (1) 
["H-A:GLU:543:OE2:4910, H-A:ALA:541:N:4891, V-A:PRO:540:C:4881, V-B:GLU:543:CG:9879, V-A:ASP:366:CG:3213, V-A:TYR:539:CD1:4873, V-A:ALA:541:CB:4892, V-A:GLU:543:CD:4908, H-B:TYR:484:OH:9319, H-A:GLY:454:N:4050, V-A:ILE:369:CD1:3239, V-B:GLU:543:CD:9880, V-A:TYR:539:C:4867, V-A:ARG:545:CZ:4926, H-A:GLU:543:OE1:4909, V-A:PRO:540:N:4884, H-A:TYR:539:N:4870, V-A:PRO:540:CB:4885, V-A:PRO:540:CA:4883, V-A:GLY:453:CA:4044, V-A:TYR:539:CE1:4875"]

$$$$
ZINC1041883
     RDKit          3D

 43 44  0  0  0  0  0  0  0  0999 V2000
  134.2830  123.9130   61.6770 C   0  0  0  0  0  0  0  0  0  0  0  0
  133.7490  122.5720   61.1480 C   0  0  0  0  0  0  0  0  0  0  0  0
  132.4260  122.1010   61.7970 C   0  0  2  0  0  0  0  0  0  0  0  0
  131.6130  121.1490   60.8940 C   0  0  0  0  0  0  0  0  0  0  0  0
  130.2890  120.7300   61.5550 C   0  0  0  0  0  0  0  0  0  0  0  0
  129.4340  121.9300   62.0390 C   0  0  2  0  0  0  0  0  0  0  0  0
  128.7310  122.6630   60.8800 C   0  0  0  0  0  0  0  0  0  0  0  0
  130.3220  122.7990   62.8550 N   0  0  0  0  0  0  0  0  0  0  0  0
  129.9370  123.1840   64.1190 C   0  0  0  0  0  0  0  0  0  0  0  0
  129.1460  122.1390   65.1750 S   0  0  0  0  0  0  0  0  0  0  0  0
  130.2370  124.4880   64.4160 N   0  0  0  0  0  0  0  0  0  0  0  0
  129.9370  125.2480   65.5590 C   0  0  0  0  0  0  0  0  0  0  0  0
  130.1780  124.7160   66.8330 C   0  0  0  0  0  0  0  0  0  0  0  0
  129.8550  125.4520   67.9720 C   0  0  0  0  0  0  0  0  0  0  0  0
  129.2810  126.7160   67.8460 C   0  0  0  0  0  0  0  0  0  0  0  0
  128.8390  127.7180   69.4020 Br  0  0  0  0  0  0  0  0  0  0  0  0
  129.0250  127.2440   66.5800 C   0  0  0  0  0  0  0  0  0  0  0  0
  129.3420  126.5150   65.4280 C   0  0  0  0  0  0  0  0  0  0  0  0
  129.0470  127.1180   64.0600 C   0  0  0  0  0  0  0  0  0  0  0  0
  131.5640  123.3150   62.2260 C   0  0  0  0  0  0  0  0  0  0  0  0
  134.2783  123.9013   62.7769 H   0  0  0  0  0  0  0  0  0  0  0  0
  135.3108  124.0664   61.3163 H   0  0  0  0  0  0  0  0  0  0  0  0
  133.6420  124.7309   61.3163 H   0  0  0  0  0  0  0  0  0  0  0  0
  133.5826  122.6727   60.0653 H   0  0  0  0  0  0  0  0  0  0  0  0
  134.5057  121.8149   61.4013 H   0  0  0  0  0  0  0  0  0  0  0  0
  132.7056  121.5227   62.6900 H   0  0  0  0  0  0  0  0  0  0  0  0
  131.3917  121.6599   59.9453 H   0  0  0  0  0  0  0  0  0  0  0  0
  132.2128  120.2428   60.7233 H   0  0  0  0  0  0  0  0  0  0  0  0
  129.7011  120.1556   60.8240 H   0  0  0  0  0  0  0  0  0  0  0  0
  130.5446  120.1346   62.4439 H   0  0  0  0  0  0  0  0  0  0  0  0
  128.5964  121.5834   62.6622 H   0  0  0  0  0  0  0  0  0  0  0  0
  128.0238  123.4003   61.2877 H   0  0  0  0  0  0  0  0  0  0  0  0
  129.4819  123.1776   60.2625 H   0  0  0  0  0  0  0  0  0  0  0  0
  128.1855  121.9343   60.2625 H   0  0  0  0  0  0  0  0  0  0  0  0
  130.9190  124.9200   63.8100 H   0  0  0  0  0  0  0  0  0  0  0  0
  130.6231  123.7152   66.9344 H   0  0  0  0  0  0  0  0  0  0  0  0
  130.0532  125.0352   68.9705 H   0  0  0  0  0  0  0  0  0  0  0  0
  128.5704  128.2413   66.4866 H   0  0  0  0  0  0  0  0  0  0  0  0
  128.5669  128.0994   64.1877 H   0  0  0  0  0  0  0  0  0  0  0  0
  129.9874  127.2396   63.5024 H   0  0  0  0  0  0  0  0  0  0  0  0
  128.3738  126.4502   63.5024 H   0  0  0  0  0  0  0  0  0  0  0  0
  131.3110  123.9228   61.3447 H   0  0  0  0  0  0  0  0  0  0  0  0
  132.1188  123.9441   62.9376 H   0  0  0  0  0  0  0  0  0  0  0  0
  1  2  1  0
  2  3  1  0
  3  4  1  0
  4  5  1  0
  5  6  1  0
  6  7  1  0
  6  8  1  0
  8  9  1  0
  9 10  2  0
  9 11  1  0
 11 12  1  0
 12 13  2  0
 13 14  1  0
 14 15  2  0
 15 16  1  0
 15 17  1  0
 17 18  2  0
 18 19  1  0
  8 20  1  0
 20  3  1  0
 18 12  1  0
  1 21  1  0
  1 22  1  0
  1 23  1  0
  2 24  1  0
  2 25  1  0
  3 26  1  1
  4 27  1  0
  4 28  1  0
  5 29  1  0
  5 30  1  0
  6 31  1  1
  7 32  1  0
  7 33  1  0
  7 34  1  0
 11 35  1  0
 13 36  1  0
 14 37  1  0
 17 38  1  0
 19 39  1  0
 19 40  1  0
 19 41  1  0
 20 42  1  0
 20 43  1  0
M  END
>  <Binding energies>  (1) 
[-6.26]

>  <Ligand effiencies>  (1) 
[-0.2980952380952381]

>  <Interactions>  (1) 
["V-A:ILE:369:CG2:3237, V-B:PRO:540:CA:9855, V-A:ILE:369:CD1:3239, V-A:HIS:456:CE1:4070, V-B:HIS:456:CE1:9041, V-B:GLU:543:CB:9878, V-B:TYR:539:CD2:9846, V-B:GLU:543:CD:9880, V-B:ALA:541:CB:9864, V-B:TYR:539:CE2:9848, V-A:TYR:484:CE2:4346, V-A:TYR:484:CZ:4347, V-A:GLU:543:CD:4908, V-A:LEU:475:CD2:4259, V-B:GLU:543:CG:9879, V-B:GLU:543:CA:9876"]

$$$$
ZINC104202951
     RDKit          3D

 50 51  0  0  0  0  0  0  0  0999 V2000
  128.8860  132.2250   64.6480 C   0  0  0  0  0  0  0  0  0  0  0  0
  128.9480  132.1010   63.1940 N   0  0  0  0  0  0  0  0  0  0  0  0
  128.2470  133.0900   62.3810 C   0  0  0  0  0  0  0  0  0  0  0  0
  129.1060  130.8010   62.6630 C   0  0  0  0  0  0  0  0  0  0  0  0
  128.2380  129.7340   63.0210 C   0  0  0  0  0  0  0  0  0  0  0  0
  127.2080  129.8300   64.0860 N   0  0  0  0  0  0  0  0  0  0  0  0
  127.5150  129.5770   65.2450 O   0  0  0  0  0  0  0  0  0  0  0  0
  126.0580  130.1000   63.7510 O   0  0  0  0  0  0  0  0  0  0  0  0
  128.3790  128.4940   62.3840 C   0  0  0  0  0  0  0  0  0  0  0  0
  129.3440  128.2720   61.4050 C   0  0  0  0  0  0  0  0  0  0  0  0
  129.4730  126.9550   60.7240 C   0  0  0  0  0  0  0  0  0  0  0  0
  128.5340  126.4840   59.8600 C   0  0  0  0  0  0  0  0  0  0  0  0
  128.6990  124.9620   58.9680 Cl  0  0  0  0  0  0  0  0  0  0  0  0
  127.0180  127.3290   59.5100 Cl  0  0  0  0  0  0  0  0  0  0  0  0
  130.7120  126.1990   61.0650 C   0  0  0  0  0  0  0  0  0  0  0  0
  131.0430  125.9030   62.3840 C   0  0  0  0  0  0  0  0  0  0  0  0
  132.2150  125.2130   62.7200 C   0  0  0  0  0  0  0  0  0  0  0  0
  132.4860  125.0100   64.1660 N   0  0  0  0  0  0  0  0  0  0  0  0
  133.6420  124.7770   64.5060 O   0  0  0  0  0  0  0  0  0  0  0  0
  131.5530  125.0110   64.9590 O   0  0  0  0  0  0  0  0  0  0  0  0
  133.0980  124.8000   61.6860 C   0  0  0  0  0  0  0  0  0  0  0  0
  134.2410  124.0120   61.9540 N   0  0  0  0  0  0  0  0  0  0  0  0
  134.0350  122.6390   62.4000 C   0  0  0  0  0  0  0  0  0  0  0  0
  135.4450  124.7120   62.3930 C   0  0  0  0  0  0  0  0  0  0  0  0
  132.7660  125.0880   60.3340 C   0  0  0  0  0  0  0  0  0  0  0  0
  133.6210  124.7090   59.1750 N   0  0  0  0  0  0  0  0  0  0  0  0
  134.7740  124.3510   59.4030 O   0  0  0  0  0  0  0  0  0  0  0  0
  133.1550  124.7090   58.0410 O   0  0  0  0  0  0  0  0  0  0  0  0
  131.5870  125.7930   60.0600 C   0  0  0  0  0  0  0  0  0  0  0  0
  130.1850  129.3270   61.0570 C   0  0  0  0  0  0  0  0  0  0  0  0
  130.0840  130.5910   61.6530 C   0  0  0  0  0  0  0  0  0  0  0  0
  131.0420  131.6370   61.2010 N   0  0  0  0  0  0  0  0  0  0  0  0
  131.1090  131.9360   60.0140 O   0  0  0  0  0  0  0  0  0  0  0  0
  131.7090  132.2150   62.0560 O   0  0  0  0  0  0  0  0  0  0  0  0
  129.3321  131.3327   65.1114 H   0  0  0  0  0  0  0  0  0  0  0  0
  129.4429  133.1195   64.9638 H   0  0  0  0  0  0  0  0  0  0  0  0
  127.8363  132.3162   64.9638 H   0  0  0  0  0  0  0  0  0  0  0  0
  127.7369  133.8097   63.0381 H   0  0  0  0  0  0  0  0  0  0  0  0
  128.9707  133.6222   61.7461 H   0  0  0  0  0  0  0  0  0  0  0  0
  127.5052  132.5834   61.7461 H   0  0  0  0  0  0  0  0  0  0  0  0
  127.7066  127.6704   62.6660 H   0  0  0  0  0  0  0  0  0  0  0  0
  130.3629  126.2209   63.1880 H   0  0  0  0  0  0  0  0  0  0  0  0
  134.0303  122.6075   63.4995 H   0  0  0  0  0  0  0  0  0  0  0  0
  133.0715  122.2702   62.0184 H   0  0  0  0  0  0  0  0  0  0  0  0
  134.8479  122.0037   62.0184 H   0  0  0  0  0  0  0  0  0  0  0  0
  135.4778  124.7311   63.4923 H   0  0  0  0  0  0  0  0  0  0  0  0
  136.3335  124.1897   62.0087 H   0  0  0  0  0  0  0  0  0  0  0  0
  135.4307  125.7426   62.0087 H   0  0  0  0  0  0  0  0  0  0  0  0
  131.3436  126.0344   59.0148 H   0  0  0  0  0  0  0  0  0  0  0  0
  130.9543  129.1619   60.2883 H   0  0  0  0  0  0  0  0  0  0  0  0
  1  2  1  0
  2  3  1  0
  2  4  1  0
  4  5  2  0
  5  6  1  0
  6  7  2  0
  6  8  1  0
  5  9  1  0
  9 10  2  0
 10 11  1  0
 11 12  2  3
 12 13  1  0
 12 14  1  0
 11 15  1  0
 15 16  2  0
 16 17  1  0
 17 18  1  0
 18 19  2  0
 18 20  1  0
 17 21  2  0
 21 22  1  0
 22 23  1  0
 22 24  1  0
 21 25  1  0
 25 26  1  0
 26 27  2  0
 26 28  1  0
 25 29  2  0
 10 30  1  0
 30 31  2  0
 31 32  1  0
 32 33  2  0
 32 34  1  0
 31  4  1  0
 29 15  1  0
  1 35  1  0
  1 36  1  0
  1 37  1  0
  3 38  1  0
  3 39  1  0
  3 40  1  0
  9 41  1  0
 16 42  1  0
 23 43  1  0
 23 44  1  0
 23 45  1  0
 24 46  1  0
 24 47  1  0
 24 48  1  0
 29 49  1  0
 30 50  1  0
M  CHG  8   6   1   8  -1  18   1  20  -1  26   1  28  -1  32   1  34  -1
M  END
>  <Binding energies>  (1) 
[-7.33]

>  <Ligand effiencies>  (1) 
[-0.21558823529411764]

>  <Interactions>  (1) 
["V-A:ILE:369:CG2:3237, V-A:ASP:366:CA:3210, V-A:GLY:454:CA:4049, H-A:ALA:541:N:4891, V-B:LEU:475:CD2:9230, V-A:ASP:366:CG:3213, V-B:TYR:484:CE2:9317, H-B:TYR:539:OH:9850, V-A:ALA:541:CB:4892, V-A:GLU:543:CD:4908, H-B:TYR:484:OH:9319, H-A:GLY:454:N:4050, V-A:GLY:453:C:4042, V-A:ILE:369:CD1:3239, V-A:ASP:366:C:3208, V-A:GLU:543:CG:4907, V-A:ASP:366:CB:3212, V-A:LEU:475:CD2:4259, H-A:ARG:545:NH2:4928, V-A:ARG:545:CZ:4926, V-A:PRO:540:CB:4885, V-A:PRO:540:CA:4883, V-A:GLY:453:CA:4044, H-A:ARG:545:NE:4924, H-A:TYR:484:OH:4348"]

$$$$
ZINC104379513
     RDKit          3D

 73 74  0  0  0  0  0  0  0  0999 V2000
  127.5900  129.4060   65.1040 C   0  0  0  0  0  0  0  0  0  0  0  0
  127.9650  129.1400   63.7560 O   0  0  0  0  0  0  0  0  0  0  0  0
  128.4450  127.8880   63.4140 C   0  0  0  0  0  0  0  0  0  0  0  0
  129.1570  127.0550   64.2900 C   0  0  0  0  0  0  0  0  0  0  0  0
  129.5860  125.7720   63.9090 C   0  0  0  0  0  0  0  0  0  0  0  0
  130.2870  124.8080   64.7990 C   0  0  0  0  0  0  0  0  0  0  0  0
  131.1510  123.8900   64.5690 N   0  0  0  0  0  0  0  0  0  0  0  0
  131.5840  123.7400   63.3070 N   0  0  0  0  0  0  0  0  0  0  0  0
  132.8600  123.9570   62.9340 C   0  0  0  0  0  0  0  0  0  0  0  0
  133.7250  124.4370   63.6710 O   0  0  0  0  0  0  0  0  0  0  0  0
  133.2240  123.5150   61.5030 C   0  0  2  0  0  0  0  0  0  0  0  0
  134.3930  124.3460   60.9430 C   0  0  0  0  0  0  0  0  0  0  0  0
  131.7740  123.5090   60.3960 S   0  0  0  0  0  0  0  0  0  0  0  0
  131.6350  125.2540   59.8760 C   0  0  1  0  0  0  0  0  0  0  0  0
  132.0550  126.2340   60.9860 C   0  0  0  0  0  0  0  0  0  0  0  0
  132.4050  125.5690   58.5650 C   0  0  0  0  0  0  0  0  0  0  0  0
  133.1110  124.6990   58.0570 O   0  0  0  0  0  0  0  0  0  0  0  0
  132.3200  126.7830   57.9840 N   0  0  0  0  0  0  0  0  0  0  0  0
  131.5390  127.7730   58.4500 N   0  0  0  0  0  0  0  0  0  0  0  0
  132.0310  128.9320   58.2770 C   0  0  0  0  0  0  0  0  0  0  0  0
  131.3260  130.1650   58.6560 C   0  0  0  0  0  0  0  0  0  0  0  0
  131.2610  130.5370   60.0020 C   0  0  0  0  0  0  0  0  0  0  0  0
  130.6010  131.7080   60.4070 C   0  0  0  0  0  0  0  0  0  0  0  0
  130.5080  132.1270   61.7220 O   0  0  0  0  0  0  0  0  0  0  0  0
  129.6210  131.4550   62.6090 C   0  0  0  0  0  0  0  0  0  0  0  0
  130.0040  132.5200   59.4340 C   0  0  0  0  0  0  0  0  0  0  0  0
  129.3250  133.6550   59.8090 O   0  0  0  0  0  0  0  0  0  0  0  0
  128.0090  133.4210   60.2910 C   0  0  0  0  0  0  0  0  0  0  0  0
  130.0610  132.1770   58.0760 C   0  0  0  0  0  0  0  0  0  0  0  0
  129.4590  133.0410   57.1790 O   0  0  0  0  0  0  0  0  0  0  0  0
  128.3340  132.5960   56.4280 C   0  0  0  0  0  0  0  0  0  0  0  0
  130.7220  130.9970   57.7040 C   0  0  0  0  0  0  0  0  0  0  0  0
  129.3460  125.3760   62.5870 C   0  0  0  0  0  0  0  0  0  0  0  0
  128.6570  126.1950   61.6790 C   0  0  0  0  0  0  0  0  0  0  0  0
  128.3920  125.8470   60.3670 O   0  0  0  0  0  0  0  0  0  0  0  0
  127.1370  125.2600   60.0390 C   0  0  0  0  0  0  0  0  0  0  0  0
  128.1890  127.4390   62.1150 C   0  0  0  0  0  0  0  0  0  0  0  0
  127.4940  128.2470   61.2470 O   0  0  0  0  0  0  0  0  0  0  0  0
  126.1110  128.3630   61.5480 C   0  0  0  0  0  0  0  0  0  0  0  0
  128.2941  128.9066   65.7858 H   0  0  0  0  0  0  0  0  0  0  0  0
  127.6128  130.4910   65.2836 H   0  0  0  0  0  0  0  0  0  0  0  0
  126.5735  129.0259   65.2836 H   0  0  0  0  0  0  0  0  0  0  0  0
  129.3859  127.4162   65.3035 H   0  0  0  0  0  0  0  0  0  0  0  0
  130.0102  124.9012   65.8595 H   0  0  0  0  0  0  0  0  0  0  0  0
  130.9020  123.3720   62.6600 H   0  0  0  0  0  0  0  0  0  0  0  0
  133.5684  122.4717   61.5563 H   0  0  0  0  0  0  0  0  0  0  0  0
  134.9788  124.7624   61.7757 H   0  0  0  0  0  0  0  0  0  0  0  0
  135.0380  123.7026   60.3266 H   0  0  0  0  0  0  0  0  0  0  0  0
  133.9973  125.1667   60.3266 H   0  0  0  0  0  0  0  0  0  0  0  0
  130.5643  125.4010   59.6712 H   0  0  0  0  0  0  0  0  0  0  0  0
  131.8604  125.7800   61.9689 H   0  0  0  0  0  0  0  0  0  0  0  0
  133.1279  126.4574   60.8912 H   0  0  0  0  0  0  0  0  0  0  0  0
  131.4768  127.1650   60.8912 H   0  0  0  0  0  0  0  0  0  0  0  0
  132.8490  127.0040   57.1530 H   0  0  0  0  0  0  0  0  0  0  0  0
  133.0295  129.0163   57.8232 H   0  0  0  0  0  0  0  0  0  0  0  0
  131.7374  129.8982   60.7603 H   0  0  0  0  0  0  0  0  0  0  0  0
  129.9077  131.6722   63.6485 H   0  0  0  0  0  0  0  0  0  0  0  0
  128.5925  131.8026   62.4321 H   0  0  0  0  0  0  0  0  0  0  0  0
  129.6772  130.3708   62.4321 H   0  0  0  0  0  0  0  0  0  0  0  0
  128.0158  133.4222   61.3910 H   0  0  0  0  0  0  0  0  0  0  0  0
  127.3390  134.2141   59.9276 H   0  0  0  0  0  0  0  0  0  0  0  0
  127.6534  132.4455   59.9276 H   0  0  0  0  0  0  0  0  0  0  0  0
  127.5357  132.2802   57.1157 H   0  0  0  0  0  0  0  0  0  0  0  0
  127.9683  133.4172   55.7941 H   0  0  0  0  0  0  0  0  0  0  0  0
  128.6290  131.7468   55.7941 H   0  0  0  0  0  0  0  0  0  0  0  0
  130.7672  130.7185   56.6408 H   0  0  0  0  0  0  0  0  0  0  0  0
  129.7085  124.3935   62.2503 H   0  0  0  0  0  0  0  0  0  0  0  0
  126.5974  125.0076   60.9637 H   0  0  0  0  0  0  0  0  0  0  0  0
  126.5415  125.9730   59.4499 H   0  0  0  0  0  0  0  0  0  0  0  0
  127.3025  124.3459   59.4499 H   0  0  0  0  0  0  0  0  0  0  0  0
  125.9730  128.3746   62.6392 H   0  0  0  0  0  0  0  0  0  0  0  0
  125.7195  129.2971   61.1190 H   0  0  0  0  0  0  0  0  0  0  0  0
  125.5693  127.5071   61.1190 H   0  0  0  0  0  0  0  0  0  0  0  0
  1  2  1  0
  2  3  1  0
  3  4  2  0
  4  5  1  0
  5  6  1  0
  6  7  2  0
  7  8  1  0
  8  9  1  0
  9 10  2  0
  9 11  1  0
 11 12  1  0
 11 13  1  0
 13 14  1  0
 14 15  1  0
 14 16  1  0
 16 17  2  0
 16 18  1  0
 18 19  1  0
 19 20  2  0
 20 21  1  0
 21 22  2  0
 22 23  1  0
 23 24  1  0
 24 25  1  0
 23 26  2  0
 26 27  1  0
 27 28  1  0
 26 29  1  0
 29 30  1  0
 30 31  1  0
 29 32  2  0
  5 33  2  0
 33 34  1  0
 34 35  1  0
 35 36  1  0
 34 37  2  0
 37 38  1  0
 38 39  1  0
 37  3  1  0
 32 21  1  0
  1 40  1  0
  1 41  1  0
  1 42  1  0
  4 43  1  0
  6 44  1  0
  8 45  1  0
 11 46  1  1
 12 47  1  0
 12 48  1  0
 12 49  1  0
 14 50  1  6
 15 51  1  0
 15 52  1  0
 15 53  1  0
 18 54  1  0
 20 55  1  0
 22 56  1  0
 25 57  1  0
 25 58  1  0
 25 59  1  0
 28 60  1  0
 28 61  1  0
 28 62  1  0
 31 63  1  0
 31 64  1  0
 31 65  1  0
 32 66  1  0
 33 67  1  0
 36 68  1  0
 36 69  1  0
 36 70  1  0
 39 71  1  0
 39 72  1  0
 39 73  1  0
M  END
>  <Binding energies>  (1) 
[-6.23]

>  <Ligand effiencies>  (1) 
[-0.15195121951219515]

>  <Interactions>  (1) 
["V-A:ASP:366:CA:3210, H-A:ALA:541:N:4891, V-B:ASP:366:CG:8184, H-A:TYR:531:OH:4795, V-B:GLU:543:CG:9879, V-A:TYR:539:CE2:4876, V-A:ASP:366:CG:3213, V-A:TYR:539:CD1:4873, V-A:TYR:539:CZ:4877, H-B:TYR:539:OH:9850, V-A:GLU:543:CD:4908, H-A:GLY:454:N:4050, V-A:ILE:369:CD1:3239, V-A:TYR:531:CZ:4794, V-A:GLU:543:CG:4907, V-B:GLU:543:CD:9880, V-A:MET:535:CE:4835, V-A:TYR:539:C:4867, V-A:ASP:366:CB:3212, H-A:ARG:545:NH2:4928, H-A:ASP:366:O:3209, V-A:PRO:540:N:4884, H-A:TYR:539:N:4870, V-A:PRO:540:CB:4885, V-A:PRO:540:CA:4883, V-A:TYR:539:CE1:4875, H-A:TYR:484:OH:4348"]

$$$$
ZINC104402697
     RDKit          3D

 87 89  0  0  0  0  0  0  0  0999 V2000
  128.6680  130.7230   63.0590 C   0  0  0  0  0  0  0  0  0  0  0  0
  129.4430  132.0380   63.1920 C   0  0  0  0  0  0  0  0  0  0  0  0
  130.2530  132.2220   62.0410 O   0  0  0  0  0  0  0  0  0  0  0  0
  131.4840  131.6660   61.9600 C   0  0  0  0  0  0  0  0  0  0  0  0
  132.4030  131.8520   62.7630 O   0  0  0  0  0  0  0  0  0  0  0  0
  131.6080  130.7730   60.7380 C   0  0  2  0  0  0  0  0  0  0  0  0
  130.7460  131.2400   59.5340 C   0  0  0  0  0  0  0  0  0  0  0  0
  131.5390  131.7530   58.3170 C   0  0  0  0  0  0  0  0  0  0  0  0
  130.6650  132.8970   57.2070 S   0  0  0  0  0  0  0  0  0  0  0  0
  129.0440  132.9700   58.0110 C   0  0  0  0  0  0  0  0  0  0  0  0
  131.1260  129.4840   61.2310 N   0  0  0  0  0  0  0  0  0  0  0  0
  130.9550  128.3560   60.5150 C   0  0  0  0  0  0  0  0  0  0  0  0
  131.1540  128.3290   59.2980 O   0  0  0  0  0  0  0  0  0  0  0  0
  130.5830  127.2550   61.2360 N   0  0  0  0  0  0  0  0  0  0  0  0
  129.1760  127.0720   61.6360 C   0  0  0  0  0  0  0  0  0  0  0  0
  128.3780  126.2510   60.6050 C   0  0  0  0  0  0  0  0  0  0  0  0
  128.4540  124.7560   60.8750 C   0  0  0  0  0  0  0  0  0  0  0  0
  128.1690  124.2580   62.1530 C   0  0  0  0  0  0  0  0  0  0  0  0
  128.2380  122.8880   62.4070 C   0  0  0  0  0  0  0  0  0  0  0  0
  128.5920  122.0060   61.3870 C   0  0  0  0  0  0  0  0  0  0  0  0
  128.8770  122.4940   60.1120 C   0  0  0  0  0  0  0  0  0  0  0  0
  128.8100  123.8630   59.8540 C   0  0  0  0  0  0  0  0  0  0  0  0
  129.0900  124.3200   58.6120 F   0  0  0  0  0  0  0  0  0  0  0  0
  131.4870  126.1470   61.6520 C   0  0  2  0  0  0  0  0  0  0  0  0
  131.7940  125.1210   60.5380 C   0  0  0  0  0  0  0  0  0  0  0  0
  132.7400  123.9940   61.0280 C   0  0  0  0  0  0  0  0  0  0  0  0
  132.9090  122.9590   59.9000 C   0  0  0  0  0  0  0  0  0  0  0  0
  134.0950  124.5350   61.5470 C   0  0  0  0  0  0  0  0  0  0  0  0
  132.0570  123.2870   62.0750 O   0  0  0  0  0  0  0  0  0  0  0  0
  131.5130  124.0450   63.1000 C   0  0  0  0  0  0  0  0  0  0  0  0
  131.2450  123.3520   64.2770 C   0  0  0  0  0  0  0  0  0  0  0  0
  130.6370  124.0030   65.3470 C   0  0  0  0  0  0  0  0  0  0  0  0
  130.2840  125.3590   65.2540 C   0  0  0  0  0  0  0  0  0  0  0  0
  129.6130  126.0910   66.3980 C   0  0  0  0  0  0  0  0  0  0  0  0
  129.0230  127.1570   66.2050 O   0  0  0  0  0  0  0  0  0  0  0  0
  129.6800  125.5070   67.6100 N   0  0  0  0  0  0  0  0  0  0  0  0
  129.1010  126.0310   68.8510 C   0  0  0  0  0  0  0  0  0  0  0  0
  129.6290  127.4270   69.2740 C   0  0  2  0  0  0  0  0  0  0  0  0
  130.8170  127.7340   68.5690 O   0  0  0  0  0  0  0  0  0  0  0  0
  129.9070  127.5910   70.7870 C   0  0  0  0  0  0  0  0  0  0  0  0
  128.7710  127.0970   71.6950 C   0  0  0  0  0  0  0  0  0  0  0  0
  130.5670  126.0390   64.0590 C   0  0  0  0  0  0  0  0  0  0  0  0
  131.1670  125.4040   62.9630 C   0  0  0  0  0  0  0  0  0  0  0  0
  128.4368  130.3308   64.0603 H   0  0  0  0  0  0  0  0  0  0  0  0
  127.7316  130.9031   62.5106 H   0  0  0  0  0  0  0  0  0  0  0  0
  129.2791  129.9911   62.5106 H   0  0  0  0  0  0  0  0  0  0  0  0
  128.7347  132.8749   63.2808 H   0  0  0  0  0  0  0  0  0  0  0  0
  130.0788  132.0027   64.0890 H   0  0  0  0  0  0  0  0  0  0  0  0
  132.6365  130.7655   60.3480 H   0  0  0  0  0  0  0  0  0  0  0  0
  130.1317  130.3888   59.2052 H   0  0  0  0  0  0  0  0  0  0  0  0
  130.1561  132.0952   59.8955 H   0  0  0  0  0  0  0  0  0  0  0  0
  132.4334  132.2704   58.6942 H   0  0  0  0  0  0  0  0  0  0  0  0
  131.7513  130.8610   57.7093 H   0  0  0  0  0  0  0  0  0  0  0  0
  129.1758  132.9641   59.1031 H   0  0  0  0  0  0  0  0  0  0  0  0
  128.5262  133.8924   57.7092 H   0  0  0  0  0  0  0  0  0  0  0  0
  128.4454  132.0979   57.7092 H   0  0  0  0  0  0  0  0  0  0  0  0
  130.9450  129.4490   62.2250 H   0  0  0  0  0  0  0  0  0  0  0  0
  129.1482  126.5487   62.6031 H   0  0  0  0  0  0  0  0  0  0  0  0
  128.7131  128.0675   61.7050 H   0  0  0  0  0  0  0  0  0  0  0  0
  127.3242  126.5642   60.6424 H   0  0  0  0  0  0  0  0  0  0  0  0
  128.8171  126.4370   59.6137 H   0  0  0  0  0  0  0  0  0  0  0  0
  127.8894  124.9508   62.9604 H   0  0  0  0  0  0  0  0  0  0  0  0
  128.0130  122.5034   63.4127 H   0  0  0  0  0  0  0  0  0  0  0  0
  128.6465  120.9258   61.5877 H   0  0  0  0  0  0  0  0  0  0  0  0
  129.1554  121.7973   59.3076 H   0  0  0  0  0  0  0  0  0  0  0  0
  132.3897  126.7364   61.8706 H   0  0  0  0  0  0  0  0  0  0  0  0
  130.8491  124.6696   60.2012 H   0  0  0  0  0  0  0  0  0  0  0  0
  132.2971  125.6526   59.7169 H   0  0  0  0  0  0  0  0  0  0  0  0
  133.0716  121.9630   60.3376 H   0  0  0  0  0  0  0  0  0  0  0  0
  132.0016  122.9427   59.2784 H   0  0  0  0  0  0  0  0  0  0  0  0
  133.7744  123.2321   59.2784 H   0  0  0  0  0  0  0  0  0  0  0  0
  134.0930  124.5342   62.6470 H   0  0  0  0  0  0  0  0  0  0  0  0
  134.9103  123.8934   61.1813 H   0  0  0  0  0  0  0  0  0  0  0  0
  134.2442  125.5617   61.1813 H   0  0  0  0  0  0  0  0  0  0  0  0
  131.5139  122.2888   64.3619 H   0  0  0  0  0  0  0  0  0  0  0  0
  130.4310  123.4494   66.2749 H   0  0  0  0  0  0  0  0  0  0  0  0
  130.1590  124.6210   67.6850 H   0  0  0  0  0  0  0  0  0  0  0  0
  128.0115  126.1029   68.7171 H   0  0  0  0  0  0  0  0  0  0  0  0
  129.3939  125.3332   69.6493 H   0  0  0  0  0  0  0  0  0  0  0  0
  128.8126  128.1209   69.0249 H   0  0  0  0  0  0  0  0  0  0  0  0
  130.6270  127.7300   67.6290 H   0  0  0  0  0  0  0  0  0  0  0  0
  130.8167  127.0239   71.0337 H   0  0  0  0  0  0  0  0  0  0  0  0
  130.0126  128.6700   70.9730 H   0  0  0  0  0  0  0  0  0  0  0  0
  129.0621  127.2236   72.7482 H   0  0  0  0  0  0  0  0  0  0  0  0
  127.8605  127.6805   71.4935 H   0  0  0  0  0  0  0  0  0  0  0  0
  128.5768  126.0332   71.4935 H   0  0  0  0  0  0  0  0  0  0  0  0
  130.3093  127.1055   63.9801 H   0  0  0  0  0  0  0  0  0  0  0  0
  1  2  1  0
  2  3  1  0
  3  4  1  0
  4  5  2  0
  4  6  1  0
  6  7  1  0
  7  8  1  0
  8  9  1  0
  9 10  1  0
  6 11  1  0
 11 12  1  0
 12 13  2  0
 12 14  1  0
 14 15  1  0
 15 16  1  0
 16 17  1  0
 17 18  2  0
 18 19  1  0
 19 20  2  0
 20 21  1  0
 21 22  2  0
 22 23  1  0
 14 24  1  0
 24 25  1  0
 25 26  1  0
 26 27  1  0
 26 28  1  0
 26 29  1  0
 29 30  1  0
 30 31  2  0
 31 32  1  0
 32 33  2  0
 33 34  1  0
 34 35  2  0
 34 36  1  0
 36 37  1  0
 37 38  1  0
 38 39  1  0
 38 40  1  0
 40 41  1  0
 33 42  1  0
 42 43  2  0
 22 17  1  0
 43 24  1  0
 43 30  1  0
  1 44  1  0
  1 45  1  0
  1 46  1  0
  2 47  1  0
  2 48  1  0
  6 49  1  6
  7 50  1  0
  7 51  1  0
  8 52  1  0
  8 53  1  0
 10 54  1  0
 10 55  1  0
 10 56  1  0
 11 57  1  0
 15 58  1  0
 15 59  1  0
 16 60  1  0
 16 61  1  0
 18 62  1  0
 19 63  1  0
 20 64  1  0
 21 65  1  0
 24 66  1  1
 25 67  1  0
 25 68  1  0
 27 69  1  0
 27 70  1  0
 27 71  1  0
 28 72  1  0
 28 73  1  0
 28 74  1  0
 31 75  1  0
 32 76  1  0
 36 77  1  0
 37 78  1  0
 37 79  1  0
 38 80  1  6
 39 81  1  0
 40 82  1  0
 40 83  1  0
 41 84  1  0
 41 85  1  0
 41 86  1  0
 42 87  1  0
M  END
>  <Binding energies>  (1) 
[-8.13]

>  <Ligand effiencies>  (1) 
[-0.17673913043478262]

>  <Interactions>  (1) 
["V-A:ILE:369:CG2:3237, V-B:PRO:540:CA:9855, V-B:GLU:543:C:9874, H-A:GLU:543:OE2:4910, H-B:GLU:543:O:9875, H-A:ALA:541:N:4891, V-B:GLU:543:CB:9878, V-B:ALA:541:CB:9864, V-B:TYR:539:CE2:9848, V-A:TYR:484:CE2:4346, V-B:GLU:543:CG:9879, V-A:ASP:366:CG:3213, V-A:TYR:539:CD1:4873, V-B:TYR:539:CZ:9849, V-A:ALA:541:CB:4892, V-A:GLU:543:CD:4908, V-A:TYR:484:CZ:4347, V-B:GLU:543:CA:9876, V-A:ILE:369:CD1:3239, V-A:HIS:456:CE1:4070, V-B:TYR:539:CD2:9846, V-A:GLU:543:CG:4907, V-B:GLU:543:CD:9880, V-A:TYR:539:C:4867, V-A:LEU:475:CD2:4259, H-A:GLU:543:OE1:4909, V-A:GLU:543:CB:4906, V-A:PRO:540:N:4884, H-A:TYR:539:N:4870, V-A:PRO:540:CB:4885, V-A:PRO:540:CA:4883, V-B:PRO:540:C:9853, H-A:ASP:366:OD2:3215, V-A:TYR:539:CE1:4875, H-A:HIS:456:NE2:4071, H-A:TYR:484:OH:4348"]

$$$$
ZINC104594227
     RDKit          3D

 41 45  0  0  0  0  0  0  0  0999 V2000
  129.5540  123.4960   63.2590 O   0  0  0  0  0  0  0  0  0  0  0  0
  130.7820  123.5280   63.3580 C   0  0  0  0  0  0  0  0  0  0  0  0
  131.7230  122.4770   62.7820 C   0  0  2  0  0  0  0  0  0  0  0  0
  133.1040  122.8760   63.2710 C   0  0  2  0  0  0  0  0  0  0  0  0
  132.8800  124.1370   64.0970 C   0  0  0  0  0  0  0  0  0  0  0  0
  133.7580  124.7160   64.7390 O   0  0  0  0  0  0  0  0  0  0  0  0
  131.5550  124.4480   64.0050 N   0  0  0  0  0  0  0  0  0  0  0  0
  131.0110  125.5040   64.6870 N   0  0  0  0  0  0  0  0  0  0  0  0
  130.2020  125.1950   65.6290 C   0  0  0  0  0  0  0  0  0  0  0  0
  129.5540  126.2230   66.4260 C   0  0  0  0  0  0  0  0  0  0  0  0
  128.7260  127.2990   66.1370 C   0  0  0  0  0  0  0  0  0  0  0  0
  128.4260  127.9230   67.3480 C   0  0  0  0  0  0  0  0  0  0  0  0
  129.0800  127.2110   68.3460 C   0  0  0  0  0  0  0  0  0  0  0  0
  129.1650  127.3550   69.8290 C   0  0  0  0  0  0  0  0  0  0  0  0
  128.0730  126.9860   70.6230 C   0  0  0  0  0  0  0  0  0  0  0  0
  128.1390  127.1120   72.0090 C   0  0  0  0  0  0  0  0  0  0  0  0
  129.2960  127.6100   72.6030 C   0  0  0  0  0  0  0  0  0  0  0  0
  129.3770  127.7660   74.3210 Cl  0  0  0  0  0  0  0  0  0  0  0  0
  130.3890  127.9810   71.8220 C   0  0  0  0  0  0  0  0  0  0  0  0
  130.3230  127.8540   70.4370 C   0  0  0  0  0  0  0  0  0  0  0  0
  129.7610  126.1830   67.7700 O   0  0  0  0  0  0  0  0  0  0  0  0
  133.9050  123.0610   61.9430 C   0  0  1  0  0  0  0  0  0  0  0  0
  134.0510  121.6820   61.3030 C   0  0  0  0  0  0  0  0  0  0  0  0
  132.8220  121.3290   60.8680 C   0  0  0  0  0  0  0  0  0  0  0  0
  131.8860  122.4820   61.2290 C   0  0  2  0  0  0  0  0  0  0  0  0
  132.8680  123.6220   60.9730 C   0  0  0  0  0  0  0  0  0  0  0  0
  131.3177  121.4997   63.0831 H   0  0  0  0  0  0  0  0  0  0  0  0
  133.6594  122.1782   63.9149 H   0  0  0  0  0  0  0  0  0  0  0  0
  129.9939  124.1354   65.8387 H   0  0  0  0  0  0  0  0  0  0  0  0
  128.3728  127.6025   65.1404 H   0  0  0  0  0  0  0  0  0  0  0  0
  127.7916  128.8109   67.4867 H   0  0  0  0  0  0  0  0  0  0  0  0
  127.1595  126.5951   70.1511 H   0  0  0  0  0  0  0  0  0  0  0  0
  127.2807  126.8193   72.6316 H   0  0  0  0  0  0  0  0  0  0  0  0
  131.3002  128.3726   72.2978 H   0  0  0  0  0  0  0  0  0  0  0  0
  131.1840  128.1469   69.8183 H   0  0  0  0  0  0  0  0  0  0  0  0
  134.8379  123.6174   62.1167 H   0  0  0  0  0  0  0  0  0  0  0  0
  134.9753  121.0923   61.2139 H   0  0  0  0  0  0  0  0  0  0  0  0
  132.5485  120.3953   60.3548 H   0  0  0  0  0  0  0  0  0  0  0  0
  130.9073  122.4911   60.7270 H   0  0  0  0  0  0  0  0  0  0  0  0
  133.2229  123.6669   59.9328 H   0  0  0  0  0  0  0  0  0  0  0  0
  132.5224  124.6572   61.1105 H   0  0  0  0  0  0  0  0  0  0  0  0
  1  2  2  0
  2  3  1  0
  3  4  1  0
  4  5  1  0
  5  6  2  0
  5  7  1  0
  7  8  1  0
  8  9  2  0
  9 10  1  0
 10 11  2  0
 11 12  1  0
 12 13  2  0
 13 14  1  0
 14 15  2  0
 15 16  1  0
 16 17  2  0
 17 18  1  0
 17 19  1  0
 19 20  2  0
 13 21  1  0
  4 22  1  0
 22 23  1  0
 23 24  2  0
 24 25  1  0
 25 26  1  0
  7  2  1  0
 21 10  1  0
 26 22  1  0
 25  3  1  0
 20 14  1  0
  3 27  1  1
  4 28  1  1
  9 29  1  0
 11 30  1  0
 12 31  1  0
 15 32  1  0
 16 33  1  0
 19 34  1  0
 20 35  1  0
 22 36  1  1
 23 37  1  0
 24 38  1  0
 25 39  1  6
 26 40  1  0
 26 41  1  0
M  END
>  <Binding energies>  (1) 
[-8.5]

>  <Ligand effiencies>  (1) 
[-0.3269230769230769]

>  <Interactions>  (1) 
["V-A:ILE:369:CG2:3237, V-A:GLY:454:CA:4049, V-B:GLU:543:C:9874, V-B:HIS:456:CD2:9039, V-A:GLU:543:C:4902, V-B:GLU:543:CB:9878, V-B:TYR:539:CE2:9848, V-B:GLU:543:CG:9879, V-A:GLY:544:C:4912, V-A:GLU:543:CD:4908, V-B:HIS:456:CE1:9041, H-A:GLY:454:N:4050, V-A:SER:385:C:3405, V-A:ILE:369:CD1:3239, V-A:HIS:456:CE1:4070, V-B:TYR:539:CD2:9846, V-B:GLU:543:CD:9880, V-A:LEU:475:CD2:4259, H-A:ARG:545:NH2:4928, V-A:GLU:543:CB:4906, H-A:ARG:545:NE:4924, H-A:TYR:484:OH:4348"]

$$$$
ZINC1047041
     RDKit          3D

 35 38  0  0  0  0  0  0  0  0999 V2000
  129.2610  122.3690   65.2340 C   0  0  0  0  0  0  0  0  0  0  0  0
  130.2080  122.8820   64.1730 C   0  0  0  0  0  0  0  0  0  0  0  0
  131.4790  123.1100   64.5840 O   0  0  0  0  0  0  0  0  0  0  0  0
  132.2210  123.5870   63.5080 N   0  0  0  0  0  0  0  0  0  0  0  0
  131.4010  123.6210   62.4810 C   0  0  0  0  0  0  0  0  0  0  0  0
  131.9050  124.0620   61.1430 C   0  0  0  0  0  0  0  0  0  0  0  0
  132.7610  123.2110   60.4240 C   0  0  0  0  0  0  0  0  0  0  0  0
  133.1380  122.0170   60.9380 F   0  0  0  0  0  0  0  0  0  0  0  0
  133.2430  123.5890   59.1710 C   0  0  0  0  0  0  0  0  0  0  0  0
  132.8810  124.8160   58.6230 C   0  0  0  0  0  0  0  0  0  0  0  0
  132.0330  125.6690   59.3260 C   0  0  0  0  0  0  0  0  0  0  0  0
  131.5430  125.3000   60.5800 C   0  0  0  0  0  0  0  0  0  0  0  0
  130.4670  126.3880   61.3910 Cl  0  0  0  0  0  0  0  0  0  0  0  0
  130.1020  123.2030   62.8260 C   0  0  0  0  0  0  0  0  0  0  0  0
  128.9130  123.1300   61.9800 C   0  0  0  0  0  0  0  0  0  0  0  0
  128.8480  123.2820   60.6850 N   0  0  0  0  0  0  0  0  0  0  0  0
  127.5640  123.1030   60.4300 C   0  0  0  0  0  0  0  0  0  0  0  0
  127.0190  123.1820   59.0310 C   0  0  0  0  0  0  0  0  0  0  0  0
  125.8950  123.9610   58.7150 C   0  0  0  0  0  0  0  0  0  0  0  0
  125.4400  123.9930   57.3960 C   0  0  0  0  0  0  0  0  0  0  0  0
  126.1090  123.2540   56.4190 C   0  0  0  0  0  0  0  0  0  0  0  0
  127.2190  122.5010   56.8010 C   0  0  0  0  0  0  0  0  0  0  0  0
  127.6750  122.4580   58.0780 N   0  0  0  0  0  0  0  0  0  0  0  0
  126.8080  122.8540   61.4850 N   0  0  0  0  0  0  0  0  0  0  0  0
  127.7100  122.8680   62.5450 O   0  0  0  0  0  0  0  0  0  0  0  0
  129.6713  122.5913   66.2301 H   0  0  0  0  0  0  0  0  0  0  0  0
  128.2836  122.8610   65.1219 H   0  0  0  0  0  0  0  0  0  0  0  0
  129.1391  121.2815   65.1219 H   0  0  0  0  0  0  0  0  0  0  0  0
  133.9111  122.9154   58.6143 H   0  0  0  0  0  0  0  0  0  0  0  0
  133.2642  125.1121   57.6354 H   0  0  0  0  0  0  0  0  0  0  0  0
  131.7481  126.6382   58.8907 H   0  0  0  0  0  0  0  0  0  0  0  0
  125.3796  124.5386   59.4965 H   0  0  0  0  0  0  0  0  0  0  0  0
  124.5602  124.5965   57.1282 H   0  0  0  0  0  0  0  0  0  0  0  0
  125.7689  123.2652   55.3729 H   0  0  0  0  0  0  0  0  0  0  0  0
  127.7477  121.9166   56.0336 H   0  0  0  0  0  0  0  0  0  0  0  0
  1  2  1  0
  2  3  1  0
  3  4  1  0
  4  5  2  0
  5  6  1  0
  6  7  2  0
  7  8  1  0
  7  9  1  0
  9 10  2  0
 10 11  1  0
 11 12  2  0
 12 13  1  0
  5 14  1  0
 14 15  1  0
 15 16  2  0
 16 17  1  0
 17 18  1  0
 18 19  2  0
 19 20  1  0
 20 21  2  0
 21 22  1  0
 22 23  2  0
 17 24  2  0
 24 25  1  0
 14  2  2  0
 25 15  1  0
 12  6  1  0
 23 18  1  0
  1 26  1  0
  1 27  1  0
  1 28  1  0
  9 29  1  0
 10 30  1  0
 11 31  1  0
 19 32  1  0
 20 33  1  0
 21 34  1  0
 22 35  1  0
M  END
>  <Binding energies>  (1) 
[-6.88]

>  <Ligand effiencies>  (1) 
[-0.2752]

>  <Interactions>  (1) 
["V-A:ILE:369:CG2:3237, V-A:ASP:366:CA:3210, V-B:PRO:540:CA:9855, V-A:ILE:369:CB:3236, V-B:ALA:541:CB:9864, V-B:TYR:539:CE2:9848, V-A:TYR:484:CE2:4346, V-B:GLU:543:CG:9879, V-B:TYR:539:C:9839, V-A:ASP:366:CG:3213, V-B:TYR:539:CZ:9849, H-B:ALA:541:N:9863, V-B:PRO:540:CB:9857, V-B:GLU:543:CA:9876, V-B:PRO:540:N:9856, V-B:TYR:539:CD2:9846, V-A:ASP:366:CB:3212, V-A:LEU:475:CD2:4259, V-B:TYR:539:CG:9844, V-B:TYR:539:CD1:9845, V-B:LEU:363:CD1:8160, V-B:MET:535:CE:9807, V-B:TYR:539:CE1:9847, H-A:TYR:484:OH:4348"]

$$$$
ZINC105190678
     RDKit          3D

 66 71  0  0  0  0  0  0  0  0999 V2000
  129.8080  131.5930   62.4290 C   0  0  0  0  0  0  0  0  0  0  0  0
  129.8810  130.4050   61.4500 C   0  0  2  0  0  0  0  0  0  0  0  0
  131.1020  130.3910   60.4740 C   0  0  1  0  0  0  0  0  0  0  0  0
  131.0160  129.1230   59.5930 C   0  0  0  0  0  0  0  0  0  0  0  0
  130.1380  129.9710   58.6570 C   0  0  1  0  0  0  0  0  0  0  0  0
  128.6640  129.9090   59.1480 C   0  0  0  0  0  0  0  0  0  0  0  0
  128.5150  130.1880   60.6900 C   0  0  1  0  0  0  0  0  0  0  0  0
  127.7710  129.0970   61.3300 N   0  0  0  0  0  0  0  0  0  0  0  0
  128.0840  128.6030   62.6070 C   0  0  0  0  0  0  0  0  0  0  0  0
  127.5800  129.3060   63.6490 N   0  0  0  0  0  0  0  0  0  0  0  0
  127.8820  128.8540   64.8930 C   0  0  0  0  0  0  0  0  0  0  0  0
  128.6710  127.7200   65.1260 C   0  0  0  0  0  0  0  0  0  0  0  0
  128.9990  127.3380   66.5310 C   0  0  0  0  0  0  0  0  0  0  0  0
  129.4730  126.1690   66.8830 N   0  0  0  0  0  0  0  0  0  0  0  0
  129.6460  126.0840   68.1880 C   0  0  0  0  0  0  0  0  0  0  0  0
  129.3140  127.2040   68.9540 C   0  0  0  0  0  0  0  0  0  0  0  0
  129.3740  127.4190   70.4350 C   0  0  0  0  0  0  0  0  0  0  0  0
  130.5870  127.5640   71.1220 C   0  0  0  0  0  0  0  0  0  0  0  0
  130.6040  127.7630   72.5020 C   0  0  0  0  0  0  0  0  0  0  0  0
  129.4090  127.8180   73.2200 C   0  0  0  0  0  0  0  0  0  0  0  0
  129.4710  128.0690   74.9310 Cl  0  0  0  0  0  0  0  0  0  0  0  0
  128.1900  127.6730   72.5480 C   0  0  0  0  0  0  0  0  0  0  0  0
  126.6830  127.7350   73.3930 Cl  0  0  0  0  0  0  0  0  0  0  0  0
  128.1800  127.4730   71.1660 C   0  0  0  0  0  0  0  0  0  0  0  0
  128.7370  128.4350   67.8510 S   0  0  0  0  0  0  0  0  0  0  0  0
  129.1380  127.0390   63.9810 C   0  0  0  0  0  0  0  0  0  0  0  0
  129.9600  125.7940   64.0190 C   0  0  0  0  0  0  0  0  0  0  0  0
  129.3720  124.5370   63.8430 C   0  0  0  0  0  0  0  0  0  0  0  0
  130.1420  123.3770   63.8800 C   0  0  0  0  0  0  0  0  0  0  0  0
  131.5170  123.4590   64.0860 C   0  0  0  0  0  0  0  0  0  0  0  0
  132.1410  124.7030   64.2590 C   0  0  0  0  0  0  0  0  0  0  0  0
  133.6060  124.7940   64.4750 N   0  0  0  0  0  0  0  0  0  0  0  0
  134.0230  124.9370   65.6210 O   0  0  0  0  0  0  0  0  0  0  0  0
  134.3500  124.7220   63.5010 O   0  0  0  0  0  0  0  0  0  0  0  0
  131.3460  125.8600   64.2210 C   0  0  0  0  0  0  0  0  0  0  0  0
  128.8470  127.4820   62.7260 N   0  0  0  0  0  0  0  0  0  0  0  0
  130.9270  131.2140   59.1560 C   0  0  0  0  0  0  0  0  0  0  0  0
  132.2580  131.4720   58.3970 C   0  0  0  0  0  0  0  0  0  0  0  0
  130.1610  132.5630   59.2180 C   0  0  0  0  0  0  0  0  0  0  0  0
  129.8310  131.2181   63.4629 H   0  0  0  0  0  0  0  0  0  0  0  0
  130.6669  132.2595   62.2614 H   0  0  0  0  0  0  0  0  0  0  0  0
  128.8740  132.1493   62.2614 H   0  0  0  0  0  0  0  0  0  0  0  0
  130.0639  129.5388   62.1029 H   0  0  0  0  0  0  0  0  0  0  0  0
  131.9264  130.6384   61.1590 H   0  0  0  0  0  0  0  0  0  0  0  0
  131.9715  128.7911   59.1607 H   0  0  0  0  0  0  0  0  0  0  0  0
  130.6937  128.1478   59.9867 H   0  0  0  0  0  0  0  0  0  0  0  0
  130.0250  129.7904   57.5778 H   0  0  0  0  0  0  0  0  0  0  0  0
  128.0798  130.6614   58.5980 H   0  0  0  0  0  0  0  0  0  0  0  0
  128.2990  128.8881   58.9624 H   0  0  0  0  0  0  0  0  0  0  0  0
  127.9654  131.1379   60.7651 H   0  0  0  0  0  0  0  0  0  0  0  0
  126.9140  128.7900   60.8940 H   0  0  0  0  0  0  0  0  0  0  0  0
  127.4882  129.4048   65.7599 H   0  0  0  0  0  0  0  0  0  0  0  0
  130.0362  125.1675   68.6545 H   0  0  0  0  0  0  0  0  0  0  0  0
  131.5355  127.5204   70.5667 H   0  0  0  0  0  0  0  0  0  0  0  0
  131.5639  127.8771   73.0269 H   0  0  0  0  0  0  0  0  0  0  0  0
  127.2194  127.3560   70.6430 H   0  0  0  0  0  0  0  0  0  0  0  0
  128.2877  124.4638   63.6732 H   0  0  0  0  0  0  0  0  0  0  0  0
  129.6638  122.3954   63.7464 H   0  0  0  0  0  0  0  0  0  0  0  0
  132.1194  122.5390   64.1133 H   0  0  0  0  0  0  0  0  0  0  0  0
  131.8225  126.8426   64.3530 H   0  0  0  0  0  0  0  0  0  0  0  0
  133.0694  131.6293   59.1228 H   0  0  0  0  0  0  0  0  0  0  0  0
  132.4943  130.6029   57.7654 H   0  0  0  0  0  0  0  0  0  0  0  0
  132.1525  132.3664   57.7654 H   0  0  0  0  0  0  0  0  0  0  0  0
  130.0005  132.8456   60.2689 H   0  0  0  0  0  0  0  0  0  0  0  0
  130.7509  133.3431   58.7145 H   0  0  0  0  0  0  0  0  0  0  0  0
  129.1889  132.4561   58.7145 H   0  0  0  0  0  0  0  0  0  0  0  0
  1  2  1  0
  2  3  1  0
  3  4  1  0
  4  5  1  0
  5  6  1  0
  6  7  1  0
  7  8  1  0
  8  9  1  0
  9 10  2  0
 10 11  1  0
 11 12  2  0
 12 13  1  0
 13 14  2  0
 14 15  1  0
 15 16  2  0
 16 17  1  0
 17 18  2  0
 18 19  1  0
 19 20  2  0
 20 21  1  0
 20 22  1  0
 22 23  1  0
 22 24  2  0
 16 25  1  0
 12 26  1  0
 26 27  1  0
 27 28  2  0
 28 29  1  0
 29 30  2  0
 30 31  1  0
 31 32  1  0
 32 33  2  0
 32 34  1  0
 31 35  2  0
 26 36  2  0
  5 37  1  0
 37 38  1  0
 37 39  1  0
  7  2  1  0
 36  9  1  0
 37  3  1  0
 25 13  1  0
 35 27  1  0
 24 17  1  0
  1 40  1  0
  1 41  1  0
  1 42  1  0
  2 43  1  1
  3 44  1  1
  4 45  1  0
  4 46  1  0
  5 47  1  6
  6 48  1  0
  6 49  1  0
  7 50  1  6
  8 51  1  0
 11 52  1  0
 15 53  1  0
 18 54  1  0
 19 55  1  0
 24 56  1  0
 28 57  1  0
 29 58  1  0
 30 59  1  0
 35 60  1  0
 38 61  1  0
 38 62  1  0
 38 63  1  0
 39 64  1  0
 39 65  1  0
 39 66  1  0
M  CHG  2  32   1  34  -1
M  END
>  <Binding energies>  (1) 
[-10.13]

>  <Ligand effiencies>  (1) 
[-0.25325000000000003]

>  <Interactions>  (1) 
["V-A:GLY:454:CA:4049, V-B:HIS:456:CD2:9039, V-B:GLU:543:CB:9878, V-B:HIS:456:CB:9036, H-A:ARG:545:NH1:4927, V-B:GLU:543:CG:9879, V-A:GLY:544:C:4912, V-A:ASP:366:CG:3213, V-A:HIS:456:CD2:4068, V-A:LEU:363:CD1:3189, V-B:LYS:547:CE:9922, V-A:GLU:543:CD:4908, V-B:HIS:456:CE1:9041, H-A:GLY:454:N:4050, V-A:HIS:456:CE1:4070, V-B:GLY:544:C:9884, V-A:GLU:543:CG:4907, V-B:GLU:543:CD:9880, V-B:HIS:456:CG:9037, V-A:TYR:539:C:4867, V-A:LEU:475:CD2:4259, H-A:ARG:545:NH2:4928, V-A:ARG:545:CZ:4926, V-A:GLU:543:CB:4906, V-A:PRO:540:N:4884, V-A:PRO:540:CB:4885, V-A:PRO:540:CA:4883, H-A:ARG:545:NE:4924, H-A:TYR:484:OH:4348"]

$$$$
ZINC105270676-again1
     RDKit          3D

 23 24  0  0  0  0  0  0  0  0999 V2000
  135.0830  126.4840   75.2550 C   0  0  0  0  0  0  0  0  0  0  0  0
  133.7610  126.2690   75.1640 C   0  0  0  0  0  0  0  0  0  0  0  0
  132.9130  126.5990   73.9530 C   0  0  0  0  0  0  0  0  0  0  0  0
  131.1260  126.4690   74.2660 S   0  0  0  0  0  0  0  0  0  0  0  0
  130.4820  127.5310   72.9610 C   0  0  0  0  0  0  0  0  0  0  0  0
  130.2090  128.7690   73.0280 N   0  0  0  0  0  0  0  0  0  0  0  0
  129.7570  129.0680   71.7620 N   0  0  0  0  0  0  0  0  0  0  0  0
  129.7750  127.9580   70.9530 C   0  0  0  0  0  0  0  0  0  0  0  0
  129.4180  127.8230   69.6600 C   0  0  0  0  0  0  0  0  0  0  0  0
  129.4800  126.6000   68.9030 C   0  0  0  0  0  0  0  0  0  0  0  0
  129.0460  126.8590   67.6690 C   0  0  0  0  0  0  0  0  0  0  0  0
  128.7290  128.2420   67.7090 C   0  0  0  0  0  0  0  0  0  0  0  0
  128.9410  128.7840   68.8370 N   0  0  0  0  0  0  0  0  0  0  0  0
  130.2450  126.9690   71.7330 O   0  0  0  0  0  0  0  0  0  0  0  0
  135.6222  126.2134   76.1748 H   0  0  0  0  0  0  0  0  0  0  0  0
  135.6270  126.9308   74.4098 H   0  0  0  0  0  0  0  0  0  0  0  0
  133.2566  125.8203   76.0325 H   0  0  0  0  0  0  0  0  0  0  0  0
  133.1382  127.6291   73.6398 H   0  0  0  0  0  0  0  0  0  0  0  0
  133.1605  125.8640   73.1730 H   0  0  0  0  0  0  0  0  0  0  0  0
  129.4930  130.0360   71.6490 H   0  0  0  0  0  0  0  0  0  0  0  0
  129.8245  125.6244   69.2765 H   0  0  0  0  0  0  0  0  0  0  0  0
  128.9551  126.1649   66.8205 H   0  0  0  0  0  0  0  0  0  0  0  0
  128.3358  128.7933   66.8422 H   0  0  0  0  0  0  0  0  0  0  0  0
  1  2  2  0
  2  3  1  0
  3  4  1  0
  4  5  1  0
  5  6  2  0
  6  7  1  0
  7  8  1  0
  8  9  2  0
  9 10  1  0
 10 11  2  0
 11 12  1  0
 12 13  2  0
  8 14  1  0
 14  5  1  0
 13  9  1  0
  1 15  1  0
  1 16  1  0
  2 17  1  0
  3 18  1  0
  3 19  1  0
  7 20  1  0
 10 21  1  0
 11 22  1  0
 12 23  1  0
M  END
>  <Binding energies>  (1) 
[-5.37]

>  <Ligand effiencies>  (1) 
[-0.358]

>  <Interactions>  (1) 
["V-B:HIS:456:CD2:9039, V-A:GLU:543:C:4902, V-B:GLU:543:CB:9878, V-A:VAL:457:CA:4075, V-A:GLY:544:C:4912, V-B:GLU:543:CG:9879, V-A:HIS:456:CD2:4068, V-A:VAL:457:C:4073, V-A:LYS:547:CG:4948, V-A:LYS:547:CB:4947, V-A:HIS:456:CB:4065, V-A:GLU:543:CD:4908, V-B:HIS:456:CE1:9041, V-A:HIS:456:CE1:4070, H-B:HIS:456:NE2:9042, V-A:GLU:543:CG:4907, H-A:LYS:547:NZ:4951, V-A:HIS:456:C:4061, V-A:GLU:543:CB:4906, V-A:HIS:456:CG:4066, V-A:VAL:458:CG2:4087, H-A:GLU:543:O:4903"]

$$$$
ZINC105349520
     RDKit          3D

 54 57  0  0  0  0  0  0  0  0999 V2000
  130.5880  127.7220   71.1390 C   0  0  0  0  0  0  0  0  0  0  0  0
  130.1690  128.3030   69.7820 C   0  0  0  0  0  0  0  0  0  0  0  0
  130.4840  127.3630   68.6040 C   0  0  0  0  0  0  0  0  0  0  0  0
  129.2810  126.4950   68.1940 C   0  0  0  0  0  0  0  0  0  0  0  0
  129.5010  125.7740   66.8710 C   0  0  0  0  0  0  0  0  0  0  0  0
  129.3270  126.4560   65.6660 C   0  0  0  0  0  0  0  0  0  0  0  0
  129.5310  125.7950   64.4590 C   0  0  0  0  0  0  0  0  0  0  0  0
  129.9140  124.4450   64.4370 C   0  0  0  0  0  0  0  0  0  0  0  0
  130.1270  123.7450   63.2200 N   0  0  0  0  0  0  0  0  0  0  0  0
  129.1180  123.5270   62.2600 C   0  0  0  0  0  0  0  0  0  0  0  0
  127.8550  123.6290   62.4670 N   0  0  0  0  0  0  0  0  0  0  0  0
  126.9570  123.4110   61.4420 C   0  0  0  0  0  0  0  0  0  0  0  0
  125.8680  122.8700   61.6470 O   0  0  0  0  0  0  0  0  0  0  0  0
  127.2050  124.2900   60.1930 C   0  0  1  0  0  0  0  0  0  0  0  0
  127.3260  123.4130   58.9350 C   0  0  0  0  0  0  0  0  0  0  0  0
  125.9190  123.3990   58.3830 C   0  0  0  0  0  0  0  0  0  0  0  0
  125.4520  124.8150   58.6910 C   0  0  0  0  0  0  0  0  0  0  0  0
  126.0670  125.1300   59.9420 O   0  0  0  0  0  0  0  0  0  0  0  0
  129.9390  123.0540   60.6810 S   0  0  0  0  0  0  0  0  0  0  0  0
  131.5140  122.8270   61.4890 C   0  0  1  0  0  0  0  0  0  0  0  0
  132.8240  123.0290   60.7220 C   0  0  0  0  0  0  0  0  0  0  0  0
  134.0620  123.3410   62.1060 S   0  0  0  0  0  0  0  0  0  0  0  0
  134.7990  122.1120   62.4190 O   0  0  0  0  0  0  0  0  0  0  0  0
  134.7810  124.5900   61.8310 O   0  0  0  0  0  0  0  0  0  0  0  0
  132.7460  123.6230   63.4300 C   0  0  0  0  0  0  0  0  0  0  0  0
  131.4560  123.8390   62.6170 C   0  0  2  0  0  0  0  0  0  0  0  0
  130.0830  123.7730   65.6550 C   0  0  0  0  0  0  0  0  0  0  0  0
  129.8790  124.4320   66.8630 C   0  0  0  0  0  0  0  0  0  0  0  0
  130.1517  128.3271   71.9474 H   0  0  0  0  0  0  0  0  0  0  0  0
  130.2279  126.6859   71.2212 H   0  0  0  0  0  0  0  0  0  0  0  0
  131.6848  127.7366   71.2212 H   0  0  0  0  0  0  0  0  0  0  0  0
  129.0854  128.4914   69.8005 H   0  0  0  0  0  0  0  0  0  0  0  0
  130.7432  129.2285   69.6280 H   0  0  0  0  0  0  0  0  0  0  0  0
  130.7882  127.9722   67.7401 H   0  0  0  0  0  0  0  0  0  0  0  0
  131.2865  126.6841   68.9281 H   0  0  0  0  0  0  0  0  0  0  0  0
  129.1046  125.7446   68.9787 H   0  0  0  0  0  0  0  0  0  0  0  0
  128.4162  127.1632   68.0687 H   0  0  0  0  0  0  0  0  0  0  0  0
  129.0289  127.5148   65.6705 H   0  0  0  0  0  0  0  0  0  0  0  0
  129.3906  126.3363   63.5117 H   0  0  0  0  0  0  0  0  0  0  0  0
  128.1197  124.8694   60.3870 H   0  0  0  0  0  0  0  0  0  0  0  0
  128.0281  123.8550   58.2127 H   0  0  0  0  0  0  0  0  0  0  0  0
  127.7143  122.4062   59.1484 H   0  0  0  0  0  0  0  0  0  0  0  0
  125.9149  123.2020   57.3008 H   0  0  0  0  0  0  0  0  0  0  0  0
  125.2788  122.6145   58.8126 H   0  0  0  0  0  0  0  0  0  0  0  0
  125.7836  125.5128   57.9080 H   0  0  0  0  0  0  0  0  0  0  0  0
  124.3556  124.8944   58.7319 H   0  0  0  0  0  0  0  0  0  0  0  0
  131.5895  121.7567   61.7314 H   0  0  0  0  0  0  0  0  0  0  0  0
  133.0899  122.1306   60.1457 H   0  0  0  0  0  0  0  0  0  0  0  0
  132.7785  123.8421   59.9826 H   0  0  0  0  0  0  0  0  0  0  0  0
  132.6544  122.7449   64.0862 H   0  0  0  0  0  0  0  0  0  0  0  0
  132.9805  124.4689   64.0929 H   0  0  0  0  0  0  0  0  0  0  0  0
  131.4964  124.9114   62.3754 H   0  0  0  0  0  0  0  0  0  0  0  0
  130.3799  122.7138   65.6559 H   0  0  0  0  0  0  0  0  0  0  0  0
  130.0160  123.8939   67.8126 H   0  0  0  0  0  0  0  0  0  0  0  0
  1  2  1  0
  2  3  1  0
  3  4  1  0
  4  5  1  0
  5  6  2  0
  6  7  1  0
  7  8  2  0
  8  9  1  0
  9 10  1  0
 10 11  2  0
 11 12  1  0
 12 13  2  0
 12 14  1  0
 14 15  1  0
 15 16  1  0
 16 17  1  0
 17 18  1  0
 10 19  1  0
 19 20  1  0
 20 21  1  0
 21 22  1  0
 22 23  2  0
 22 24  2  0
 22 25  1  0
 25 26  1  0
  8 27  1  0
 27 28  2  0
 28  5  1  0
 26  9  1  0
 18 14  1  0
 26 20  1  0
  1 29  1  0
  1 30  1  0
  1 31  1  0
  2 32  1  0
  2 33  1  0
  3 34  1  0
  3 35  1  0
  4 36  1  0
  4 37  1  0
  6 38  1  0
  7 39  1  0
 14 40  1  1
 15 41  1  0
 15 42  1  0
 16 43  1  0
 16 44  1  0
 17 45  1  0
 17 46  1  0
 20 47  1  1
 21 48  1  0
 21 49  1  0
 25 50  1  0
 25 51  1  0
 26 52  1  6
 27 53  1  0
 28 54  1  0
M  END
>  <Binding energies>  (1) 
[-7.43]

>  <Ligand effiencies>  (1) 
[-0.26535714285714285]

>  <Interactions>  (1) 
["V-A:ILE:369:CG2:3237, V-B:PRO:540:CA:9855, V-A:GLU:543:CA:4904, V-A:GLU:543:C:4902, V-B:GLU:543:CB:9878, V-B:TYR:539:CE2:9848, V-A:TYR:484:CE2:4346, V-B:GLU:543:CG:9879, V-A:GLY:544:C:4912, H-B:ALA:541:N:9863, V-A:GLU:543:CD:4908, V-A:TYR:484:CZ:4347, V-B:PRO:540:CB:9857, V-B:GLU:543:CA:9876, H-A:GLY:454:N:4050, V-B:PRO:540:N:9856, V-A:HIS:456:CE1:4070, V-A:ILE:369:CD1:3239, V-B:GLU:543:CD:9880, V-A:GLU:543:CB:4906"]

$$$$
ZINC105540379
     RDKit          3D

 43 47  0  0  0  0  0  0  0  0999 V2000
  126.2080  129.3970   64.2150 C   0  0  0  0  0  0  0  0  0  0  0  0
  127.4290  129.6940   64.8840 O   0  0  0  0  0  0  0  0  0  0  0  0
  128.1090  128.6820   65.5430 C   0  0  0  0  0  0  0  0  0  0  0  0
  128.7240  127.5990   64.8900 C   0  0  0  0  0  0  0  0  0  0  0  0
  129.4010  126.6000   65.6070 C   0  0  0  0  0  0  0  0  0  0  0  0
  130.0510  125.4600   64.9470 C   0  0  0  0  0  0  0  0  0  0  0  0
  131.0610  125.5680   64.1660 N   0  0  0  0  0  0  0  0  0  0  0  0
  131.5380  124.3980   63.6400 N   0  0  0  0  0  0  0  0  0  0  0  0
  130.7890  123.6410   62.7860 C   0  0  0  0  0  0  0  0  0  0  0  0
  129.6240  123.8210   62.4260 O   0  0  0  0  0  0  0  0  0  0  0  0
  131.6480  122.4500   62.3780 C   0  0  2  0  0  0  0  0  0  0  0  0
  133.0200  122.7320   62.9860 C   0  0  2  0  0  0  0  0  0  0  0  0
  132.8590  124.0660   63.7050 C   0  0  0  0  0  0  0  0  0  0  0  0
  133.7720  124.6740   64.2660 O   0  0  0  0  0  0  0  0  0  0  0  0
  133.9830  122.7350   61.7550 C   0  0  1  0  0  0  0  0  0  0  0  0
  134.0070  121.3050   61.2090 C   0  0  0  0  0  0  0  0  0  0  0  0
  132.7880  121.0540   60.6690 C   0  0  0  0  0  0  0  0  0  0  0  0
  131.9350  122.3130   60.8480 C   0  0  2  0  0  0  0  0  0  0  0  0
  133.0830  123.2760   60.6730 C   0  0  0  0  0  0  0  0  0  0  0  0
  133.5660  123.8010   59.3350 C   0  0  0  0  0  0  0  0  0  0  0  0
  132.9310  124.7440   60.3320 C   0  0  0  0  0  0  0  0  0  0  0  0
  129.4540  126.7030   67.0010 C   0  0  0  0  0  0  0  0  0  0  0  0
  128.8530  127.7700   67.6670 C   0  0  0  0  0  0  0  0  0  0  0  0
  128.9650  127.8520   69.5690 Br  0  0  0  0  0  0  0  0  0  0  0  0
  128.1820  128.7570   66.9390 C   0  0  0  0  0  0  0  0  0  0  0  0
  127.5920  129.8090   67.5960 O   0  0  0  0  0  0  0  0  0  0  0  0
  125.4200  129.2053   64.9581 H   0  0  0  0  0  0  0  0  0  0  0  0
  125.9180  130.2508   63.5850 H   0  0  0  0  0  0  0  0  0  0  0  0
  126.3426  128.5054   63.5850 H   0  0  0  0  0  0  0  0  0  0  0  0
  128.6734  127.5332   63.7931 H   0  0  0  0  0  0  0  0  0  0  0  0
  129.6468  124.4542   65.1343 H   0  0  0  0  0  0  0  0  0  0  0  0
  131.1134  121.5444   62.7008 H   0  0  0  0  0  0  0  0  0  0  0  0
  133.4197  122.0185   63.7216 H   0  0  0  0  0  0  0  0  0  0  0  0
  134.9516  123.2019   61.9869 H   0  0  0  0  0  0  0  0  0  0  0  0
  134.8573  120.6082   61.2475 H   0  0  0  0  0  0  0  0  0  0  0  0
  132.4701  120.1164   60.1896 H   0  0  0  0  0  0  0  0  0  0  0  0
  131.0183  122.3907   60.2450 H   0  0  0  0  0  0  0  0  0  0  0  0
  134.6441  123.8657   59.1264 H   0  0  0  0  0  0  0  0  0  0  0  0
  133.3781  123.5394   58.2832 H   0  0  0  0  0  0  0  0  0  0  0  0
  133.5474  125.4948   60.8480 H   0  0  0  0  0  0  0  0  0  0  0  0
  132.0899  125.4524   60.3048 H   0  0  0  0  0  0  0  0  0  0  0  0
  129.9785  125.9294   67.5811 H   0  0  0  0  0  0  0  0  0  0  0  0
  126.9350  130.2550   67.0570 H   0  0  0  0  0  0  0  0  0  0  0  0
  1  2  1  0
  2  3  1  0
  3  4  2  0
  4  5  1  0
  5  6  1  0
  6  7  2  0
  7  8  1  0
  8  9  1  0
  9 10  2  0
  9 11  1  0
 11 12  1  0
 12 13  1  0
 13 14  2  0
 12 15  1  0
 15 16  1  0
 16 17  2  0
 17 18  1  0
 18 19  1  0
 19 20  1  0
 20 21  1  0
  5 22  2  0
 22 23  1  0
 23 24  1  0
 23 25  2  0
 25 26  1  0
 25  3  1  0
 13  8  1  0
 19 15  1  0
 18 11  1  0
 21 19  1  0
  1 27  1  0
  1 28  1  0
  1 29  1  0
  4 30  1  0
  6 31  1  0
 11 32  1  1
 12 33  1  1
 15 34  1  1
 16 35  1  0
 17 36  1  0
 18 37  1  6
 20 38  1  0
 20 39  1  0
 21 40  1  0
 21 41  1  0
 22 42  1  0
 26 43  1  0
M  END
>  <Binding energies>  (1) 
[-7.73]

>  <Ligand effiencies>  (1) 
[-0.2862962962962963]

>  <Interactions>  (1) 
["V-A:ILE:369:CG2:3237, V-A:GLY:454:CA:4049, V-A:ILE:369:CB:3236, V-B:GLU:543:CB:9878, V-B:TYR:539:CE2:9848, V-B:GLU:543:CG:9879, V-A:ASP:366:CG:3213, V-A:GLU:543:CD:4908, H-B:TYR:484:OH:9319, V-B:HIS:456:CE1:9041, H-A:GLY:454:N:4050, V-A:SER:385:C:3405, V-A:ILE:369:CD1:3239, H-B:HIS:456:NE2:9042, V-B:TYR:539:CD2:9846, V-A:GLU:543:CG:4907, V-A:SER:385:CB:3409, V-B:GLU:543:CD:9880, V-A:ASP:366:CB:3212, V-A:LEU:475:CD2:4259, H-A:ARG:545:NH2:4928, V-A:GLU:543:CB:4906, H-A:ARG:545:NE:4924, V-A:SER:385:CA:3407, H-A:TYR:484:OH:4348"]

$$$$
ZINC105760081
     RDKit          3D

 47 49  0  0  0  0  0  0  0  0999 V2000
  130.9940  119.2430   60.8800 C   0  0  0  0  0  0  0  0  0  0  0  0
  130.8340  120.5250   61.2460 C   0  0  0  0  0  0  0  0  0  0  0  0
  129.5460  121.1150   61.7850 C   0  0  0  0  0  0  0  0  0  0  0  0
  128.6230  121.3520   60.6900 N   0  0  0  0  0  0  0  0  0  0  0  0
  128.6890  122.4210   59.9920 C   0  0  0  0  0  0  0  0  0  0  0  0
  127.8160  122.5590   58.4460 S   0  0  0  0  0  0  0  0  0  0  0  0
  128.4690  124.1810   58.1750 C   0  0  0  0  0  0  0  0  0  0  0  0
  129.2560  124.6180   59.1780 C   0  0  0  0  0  0  0  0  0  0  0  0
  129.9790  125.9270   59.1490 C   0  0  0  0  0  0  0  0  0  0  0  0
  130.8400  126.2630   58.0980 C   0  0  0  0  0  0  0  0  0  0  0  0
  131.4980  127.4890   58.0710 C   0  0  0  0  0  0  0  0  0  0  0  0
  131.3050  128.4180   59.0930 C   0  0  0  0  0  0  0  0  0  0  0  0
  131.9740  129.6140   58.9950 O   0  0  0  0  0  0  0  0  0  0  0  0
  130.4340  128.1200   60.1610 C   0  0  0  0  0  0  0  0  0  0  0  0
  130.2060  129.0940   61.2980 C   0  0  0  0  0  0  0  0  0  0  0  0
  131.2360  129.8800   61.6310 N   0  0  0  0  0  0  0  0  0  0  0  0
  129.1320  129.1540   61.8970 O   0  0  0  0  0  0  0  0  0  0  0  0
  129.7810  126.8760   60.1630 C   0  0  0  0  0  0  0  0  0  0  0  0
  129.3260  123.6850   60.2320 N   0  0  0  0  0  0  0  0  0  0  0  0
  129.5160  124.2360   61.5410 N   0  0  0  0  0  0  0  0  0  0  0  0
  130.6020  124.0310   62.1850 C   0  0  0  0  0  0  0  0  0  0  0  0
  130.8730  124.5620   63.5310 C   0  0  0  0  0  0  0  0  0  0  0  0
  129.7830  124.9560   64.3280 C   0  0  0  0  0  0  0  0  0  0  0  0
  129.9610  125.4070   65.6330 C   0  0  0  0  0  0  0  0  0  0  0  0
  131.2380  125.4670   66.1750 C   0  0  0  0  0  0  0  0  0  0  0  0
  132.3330  125.0890   65.4060 C   0  0  0  0  0  0  0  0  0  0  0  0
  132.1800  124.6470   64.0820 C   0  0  0  0  0  0  0  0  0  0  0  0
  133.4140  124.3020   63.3240 N   0  0  0  0  0  0  0  0  0  0  0  0
  133.3710  123.4160   62.4760 O   0  0  0  0  0  0  0  0  0  0  0  0
  134.4280  124.9570   63.5460 O   0  0  0  0  0  0  0  0  0  0  0  0
  131.9659  118.8973   60.4979 H   0  0  0  0  0  0  0  0  0  0  0  0
  130.1532  118.5385   60.9623 H   0  0  0  0  0  0  0  0  0  0  0  0
  131.7004  121.1956   61.1475 H   0  0  0  0  0  0  0  0  0  0  0  0
  129.0929  120.4128   62.5002 H   0  0  0  0  0  0  0  0  0  0  0  0
  129.7641  122.0669   62.2913 H   0  0  0  0  0  0  0  0  0  0  0  0
  128.2534  124.7753   57.2748 H   0  0  0  0  0  0  0  0  0  0  0  0
  130.9993  125.5458   57.2793 H   0  0  0  0  0  0  0  0  0  0  0  0
  132.1752  127.7270   57.2375 H   0  0  0  0  0  0  0  0  0  0  0  0
  132.8500  129.5860   59.3820 H   0  0  0  0  0  0  0  0  0  0  0  0
  132.1150  129.8030   61.1430 H   0  0  0  0  0  0  0  0  0  0  0  0
  131.1400  130.5440   62.3850 H   0  0  0  0  0  0  0  0  0  0  0  0
  129.0918  126.6383   60.9867 H   0  0  0  0  0  0  0  0  0  0  0  0
  131.3807  123.4209   61.7039 H   0  0  0  0  0  0  0  0  0  0  0  0
  128.7665  124.9066   63.9105 H   0  0  0  0  0  0  0  0  0  0  0  0
  129.0922  125.7150   66.2333 H   0  0  0  0  0  0  0  0  0  0  0  0
  131.3829  125.8124   67.2093 H   0  0  0  0  0  0  0  0  0  0  0  0
  133.3408  125.1372   65.8442 H   0  0  0  0  0  0  0  0  0  0  0  0
  1  2  2  0
  2  3  1  0
  3  4  1  0
  4  5  2  0
  5  6  1  0
  6  7  1  0
  7  8  2  0
  8  9  1  0
  9 10  2  0
 10 11  1  0
 11 12  2  0
 12 13  1  0
 12 14  1  0
 14 15  1  0
 15 16  1  0
 15 17  2  0
 14 18  2  0
  8 19  1  0
 19 20  1  0
 20 21  2  0
 21 22  1  0
 22 23  2  0
 23 24  1  0
 24 25  2  0
 25 26  1  0
 26 27  2  0
 27 28  1  0
 28 29  2  0
 28 30  1  0
 19  5  1  0
 27 22  1  0
 18  9  1  0
  1 31  1  0
  1 32  1  0
  2 33  1  0
  3 34  1  0
  3 35  1  0
  7 36  1  0
 10 37  1  0
 11 38  1  0
 13 39  1  0
 16 40  1  0
 16 41  1  0
 18 42  1  0
 21 43  1  0
 23 44  1  0
 24 45  1  0
 25 46  1  0
 26 47  1  0
M  CHG  2  28   1  30  -1
M  END
>  <Binding energies>  (1) 
[-6.47]

>  <Ligand effiencies>  (1) 
[-0.19606060606060605]

>  <Interactions>  (1) 
["V-B:PRO:540:CA:9855, V-B:GLU:543:CB:9878, V-B:ALA:541:CB:9864, H-A:ARG:545:NH1:4927, V-B:TYR:539:CE2:9848, V-B:GLU:543:CG:9879, V-B:TYR:539:C:9839, V-A:ASP:366:CG:3213, V-B:TYR:539:CZ:9849, H-B:ALA:541:N:9863, V-A:GLU:543:CD:4908, H-A:GLY:454:N:4050, V-B:PRO:540:N:9856, V-A:HIS:456:CE1:4070, V-B:TYR:539:CD2:9846, V-A:TYR:531:CZ:4794, V-B:GLU:543:CD:9880, V-A:ASP:366:CB:3212, V-A:LEU:475:CD2:4259, H-A:ARG:545:NH2:4928, V-A:ARG:545:CZ:4926, H-A:GLU:543:OE1:4909, V-B:TYR:539:CG:9844, H-A:ARG:545:NE:4924, H-A:ASP:366:OD2:3215"]

$$$$
ZINC105760081-again1
     RDKit          3D

 47 49  0  0  0  0  0  0  0  0999 V2000
  128.0150  128.1440   67.7110 C   0  0  0  0  0  0  0  0  0  0  0  0
  128.7290  127.6500   66.6870 C   0  0  0  0  0  0  0  0  0  0  0  0
  129.3720  126.2780   66.6740 C   0  0  0  0  0  0  0  0  0  0  0  0
  129.4490  125.8360   65.2780 N   0  0  0  0  0  0  0  0  0  0  0  0
  130.6050  125.5170   64.6190 C   0  0  0  0  0  0  0  0  0  0  0  0
  132.1470  125.3200   65.4130 S   0  0  0  0  0  0  0  0  0  0  0  0
  132.9380  125.0280   63.8930 C   0  0  0  0  0  0  0  0  0  0  0  0
  132.0650  125.0810   62.8100 C   0  0  0  0  0  0  0  0  0  0  0  0
  132.4700  124.8680   61.3820 C   0  0  0  0  0  0  0  0  0  0  0  0
  133.3440  123.8290   61.0670 C   0  0  0  0  0  0  0  0  0  0  0  0
  133.7250  123.6020   59.7470 C   0  0  0  0  0  0  0  0  0  0  0  0
  133.2440  124.4090   58.7090 C   0  0  0  0  0  0  0  0  0  0  0  0
  133.6190  124.0930   57.5270 O   0  0  0  0  0  0  0  0  0  0  0  0
  132.3690  125.4910   59.0140 C   0  0  0  0  0  0  0  0  0  0  0  0
  131.7700  126.4430   57.9920 C   0  0  0  0  0  0  0  0  0  0  0  0
  131.9070  127.7520   58.2210 N   0  0  0  0  0  0  0  0  0  0  0  0
  131.1360  126.0200   57.0250 O   0  0  0  0  0  0  0  0  0  0  0  0
  132.0060  125.6950   60.3540 C   0  0  0  0  0  0  0  0  0  0  0  0
  130.7410  125.3200   63.2320 N   0  0  0  0  0  0  0  0  0  0  0  0
  129.7180  125.4020   62.2890 N   0  0  0  0  0  0  0  0  0  0  0  0
  129.4010  124.3430   61.6510 C   0  0  0  0  0  0  0  0  0  0  0  0
  128.3600  124.3070   60.6120 C   0  0  0  0  0  0  0  0  0  0  0  0
  128.6770  124.8080   59.3350 C   0  0  0  0  0  0  0  0  0  0  0  0
  127.7670  124.7460   58.2850 C   0  0  0  0  0  0  0  0  0  0  0  0
  126.5160  124.1760   58.4870 C   0  0  0  0  0  0  0  0  0  0  0  0
  126.1760  123.6800   59.7420 C   0  0  0  0  0  0  0  0  0  0  0  0
  127.0730  123.7450   60.8220 C   0  0  0  0  0  0  0  0  0  0  0  0
  126.6070  123.2280   62.1380 N   0  0  0  0  0  0  0  0  0  0  0  0
  125.4000  123.2230   62.3630 O   0  0  0  0  0  0  0  0  0  0  0  0
  127.4360  122.8680   62.9700 O   0  0  0  0  0  0  0  0  0  0  0  0
  127.5797  129.1519   67.6423 H   0  0  0  0  0  0  0  0  0  0  0  0
  127.8653  127.5409   68.6187 H   0  0  0  0  0  0  0  0  0  0  0  0
  128.8558  128.2842   65.7972 H   0  0  0  0  0  0  0  0  0  0  0  0
  130.3822  126.3334   67.1059 H   0  0  0  0  0  0  0  0  0  0  0  0
  128.7798  125.5688   67.2710 H   0  0  0  0  0  0  0  0  0  0  0  0
  128.5740  125.7750   64.7780 H   0  0  0  0  0  0  0  0  0  0  0  0
  134.0145  124.8230   63.7970 H   0  0  0  0  0  0  0  0  0  0  0  0
  133.7357  123.1836   61.8670 H   0  0  0  0  0  0  0  0  0  0  0  0
  134.4142  122.7763   59.5164 H   0  0  0  0  0  0  0  0  0  0  0  0
  132.4650  128.0730   59.0000 H   0  0  0  0  0  0  0  0  0  0  0  0
  131.4980  128.4240   57.5890 H   0  0  0  0  0  0  0  0  0  0  0  0
  131.3360  126.5309   60.6036 H   0  0  0  0  0  0  0  0  0  0  0  0
  129.9329  123.4103   61.8900 H   0  0  0  0  0  0  0  0  0  0  0  0
  129.6659  125.2583   59.1640 H   0  0  0  0  0  0  0  0  0  0  0  0
  128.0370  125.1472   57.2970 H   0  0  0  0  0  0  0  0  0  0  0  0
  125.7963  124.1170   57.6572 H   0  0  0  0  0  0  0  0  0  0  0  0
  125.1846  123.2277   59.8918 H   0  0  0  0  0  0  0  0  0  0  0  0
  1  2  2  0
  2  3  1  0
  3  4  1  0
  4  5  1  0
  5  6  1  0
  6  7  1  0
  7  8  2  0
  8  9  1  0
  9 10  2  0
 10 11  1  0
 11 12  2  0
 12 13  1  0
 12 14  1  0
 14 15  1  0
 15 16  1  0
 15 17  2  0
 14 18  2  0
  8 19  1  0
 19 20  1  0
 20 21  2  0
 21 22  1  0
 22 23  2  0
 23 24  1  0
 24 25  2  0
 25 26  1  0
 26 27  2  0
 27 28  1  0
 28 29  2  0
 28 30  1  0
 19  5  2  0
 27 22  1  0
 18  9  1  0
  1 31  1  0
  1 32  1  0
  2 33  1  0
  3 34  1  0
  3 35  1  0
  4 36  1  0
  7 37  1  0
 10 38  1  0
 11 39  1  0
 16 40  1  0
 16 41  1  0
 18 42  1  0
 21 43  1  0
 23 44  1  0
 24 45  1  0
 25 46  1  0
 26 47  1  0
M  CHG  4  13  -1  19   1  28   1  30  -1
M  END
>  <Binding energies>  (1) 
[-8.47]

>  <Ligand effiencies>  (1) 
[-0.2566666666666667]

>  <Interactions>  (1) 
["V-A:ILE:369:CG2:3237, V-A:ASP:366:CA:3210, V-B:PRO:540:CA:9855, V-A:ILE:369:CB:3236, V-B:GLU:543:CB:9878, H-A:TYR:531:OH:4795, V-B:TYR:539:CE2:9848, V-B:GLU:543:CG:9879, V-A:ASP:366:CG:3213, V-B:TYR:539:CZ:9849, H-A:ASN:370:N:3244, H-B:GLU:543:OE1:9881, H-B:TYR:539:OH:9850, H-B:ALA:541:N:9863, V-A:GLU:543:CD:4908, V-B:PRO:540:CB:9857, V-B:HIS:456:CE1:9041, V-A:ILE:369:CD1:3239, V-A:GLU:543:CG:4907, V-A:TYR:531:CZ:4794, V-B:GLU:543:CD:9880, V-A:ASP:366:CB:3212, V-A:ARG:545:CZ:4926, V-A:GLU:543:CB:4906, H-A:ASP:366:OD1:3214, H-B:GLU:543:OE2:9882, V-B:PRO:540:C:9853, H-A:ASP:366:OD2:3215"]

$$$$
ZINC105979369
     RDKit          3D

 54 57  0  0  0  0  0  0  0  0999 V2000
  132.6260  121.9680   60.8850 C   0  0  0  0  0  0  0  0  0  0  0  0
  131.4570  122.6600   60.4590 O   0  0  0  0  0  0  0  0  0  0  0  0
  130.4920  123.0040   61.3870 C   0  0  0  0  0  0  0  0  0  0  0  0
  130.7760  123.4000   62.7060 C   0  0  0  0  0  0  0  0  0  0  0  0
  129.7550  123.7410   63.5980 C   0  0  0  0  0  0  0  0  0  0  0  0
  130.1190  124.1620   64.9670 C   0  0  0  0  0  0  0  0  0  0  0  0
  129.8230  125.3320   65.5850 C   0  0  0  0  0  0  0  0  0  0  0  0
  128.8520  126.6860   64.9990 S   0  0  0  0  0  0  0  0  0  0  0  0
  129.1020  127.5810   66.5230 C   0  0  0  0  0  0  0  0  0  0  0  0
  128.6280  128.6970   66.7390 O   0  0  0  0  0  0  0  0  0  0  0  0
  129.8660  126.8250   67.3350 N   0  0  0  0  0  0  0  0  0  0  0  0
  130.2370  127.3470   68.6720 C   0  0  0  0  0  0  0  0  0  0  0  0
  129.1120  127.4060   69.7170 C   0  0  0  0  0  0  0  0  0  0  0  0
  127.8180  127.0060   69.3510 C   0  0  0  0  0  0  0  0  0  0  0  0
  126.7900  126.9570   70.2880 C   0  0  0  0  0  0  0  0  0  0  0  0
  127.0420  127.3010   71.6120 C   0  0  0  0  0  0  0  0  0  0  0  0
  128.3200  127.7050   71.9920 C   0  0  0  0  0  0  0  0  0  0  0  0
  129.3640  127.7740   71.0590 C   0  0  0  0  0  0  0  0  0  0  0  0
  130.6900  128.2480   71.5190 N   0  0  0  0  0  0  0  0  0  0  0  0
  131.6960  127.8030   70.9760 O   0  0  0  0  0  0  0  0  0  0  0  0
  130.7220  129.1040   72.3980 O   0  0  0  0  0  0  0  0  0  0  0  0
  130.2940  125.6030   66.9270 C   0  0  0  0  0  0  0  0  0  0  0  0
  130.9930  124.8460   67.6080 O   0  0  0  0  0  0  0  0  0  0  0  0
  128.4280  123.6890   63.1570 C   0  0  0  0  0  0  0  0  0  0  0  0
  128.1270  123.3020   61.8530 C   0  0  0  0  0  0  0  0  0  0  0  0
  126.3070  123.2560   61.2910 Br  0  0  0  0  0  0  0  0  0  0  0  0
  129.1540  122.9570   60.9700 C   0  0  0  0  0  0  0  0  0  0  0  0
  128.8420  122.5970   59.6810 O   0  0  0  0  0  0  0  0  0  0  0  0
  129.0630  123.6160   58.7120 C   0  0  0  0  0  0  0  0  0  0  0  0
  127.7780  124.4120   58.5280 C   0  0  0  0  0  0  0  0  0  0  0  0
  127.6410  125.6490   59.1680 C   0  0  0  0  0  0  0  0  0  0  0  0
  126.4760  126.4020   59.0130 C   0  0  0  0  0  0  0  0  0  0  0  0
  125.4380  125.9220   58.2170 C   0  0  0  0  0  0  0  0  0  0  0  0
  125.5640  124.6910   57.5750 C   0  0  0  0  0  0  0  0  0  0  0  0
  126.7280  123.9340   57.7250 C   0  0  0  0  0  0  0  0  0  0  0  0
  126.8360  122.4120   56.9070 Cl  0  0  0  0  0  0  0  0  0  0  0  0
  132.6600  121.9479   61.9843 H   0  0  0  0  0  0  0  0  0  0  0  0
  132.6031  120.9379   60.4999 H   0  0  0  0  0  0  0  0  0  0  0  0
  133.5181  122.4836   60.4999 H   0  0  0  0  0  0  0  0  0  0  0  0
  131.8224  123.4423   63.0427 H   0  0  0  0  0  0  0  0  0  0  0  0
  130.7009  123.4381   65.5564 H   0  0  0  0  0  0  0  0  0  0  0  0
  131.0337  126.7036   69.0735 H   0  0  0  0  0  0  0  0  0  0  0  0
  130.5371  128.3921   68.5054 H   0  0  0  0  0  0  0  0  0  0  0  0
  127.6127  126.7267   68.3070 H   0  0  0  0  0  0  0  0  0  0  0  0
  125.7800  126.6468   69.9820 H   0  0  0  0  0  0  0  0  0  0  0  0
  126.2342  127.2542   72.3572 H   0  0  0  0  0  0  0  0  0  0  0  0
  128.5130  127.9742   73.0410 H   0  0  0  0  0  0  0  0  0  0  0  0
  127.6142  123.9564   63.8470 H   0  0  0  0  0  0  0  0  0  0  0  0
  129.8652  124.2851   59.0568 H   0  0  0  0  0  0  0  0  0  0  0  0
  129.3587  123.1611   57.7551 H   0  0  0  0  0  0  0  0  0  0  0  0
  128.4578  126.0308   59.7981 H   0  0  0  0  0  0  0  0  0  0  0  0
  126.3774  127.3738   59.5189 H   0  0  0  0  0  0  0  0  0  0  0  0
  124.5192  126.5144   58.0952 H   0  0  0  0  0  0  0  0  0  0  0  0
  124.7429  124.3142   56.9474 H   0  0  0  0  0  0  0  0  0  0  0  0
  1  2  1  0
  2  3  1  0
  3  4  2  0
  4  5  1  0
  5  6  1  0
  6  7  2  0
  7  8  1  0
  8  9  1  0
  9 10  2  0
  9 11  1  0
 11 12  1  0
 12 13  1  0
 13 14  2  0
 14 15  1  0
 15 16  2  0
 16 17  1  0
 17 18  2  0
 18 19  1  0
 19 20  2  0
 19 21  1  0
 11 22  1  0
 22 23  2  0
  5 24  2  0
 24 25  1  0
 25 26  1  0
 25 27  2  0
 27 28  1  0
 28 29  1  0
 29 30  1  0
 30 31  2  0
 31 32  1  0
 32 33  2  0
 33 34  1  0
 34 35  2  0
 35 36  1  0
 27  3  1  0
 35 30  1  0
 22  7  1  0
 18 13  1  0
  1 37  1  0
  1 38  1  0
  1 39  1  0
  4 40  1  0
  6 41  1  0
 12 42  1  0
 12 43  1  0
 14 44  1  0
 15 45  1  0
 16 46  1  0
 17 47  1  0
 24 48  1  0
 29 49  1  0
 29 50  1  0
 31 51  1  0
 32 52  1  0
 33 53  1  0
 34 54  1  0
M  CHG  2  19   1  21  -1
M  END
>  <Binding energies>  (1) 
[-8.18]

>  <Ligand effiencies>  (1) 
[-0.22722222222222221]

>  <Interactions>  (1) 
["V-A:ILE:369:CG2:3237, V-B:PRO:540:CA:9855, V-B:GLU:543:C:9874, V-B:HIS:456:CD2:9039, V-A:GLU:543:C:4902, V-B:GLU:543:CB:9878, V-B:ASP:366:CG:8184, V-B:TYR:539:CE2:9848, V-A:GLY:544:CA:4914, V-B:GLU:543:CG:9879, V-A:GLY:544:C:4912, V-B:TYR:539:C:9839, H-A:ARG:545:N:4920, V-B:TYR:539:CZ:9849, V-B:TYR:531:CZ:9766, V-B:TYR:531:CE2:9765, V-A:GLU:543:CD:4908, V-B:PRO:540:CB:9857, V-B:ASP:366:CB:8183, V-B:HIS:456:CE1:9041, V-B:PRO:540:N:9856, V-A:HIS:456:CE1:4070, V-B:GLY:544:C:9884, V-B:TYR:539:CD2:9846, V-A:GLU:543:CG:4907, V-B:PRO:540:CD:9859, V-B:GLY:544:CA:9886, V-B:GLU:543:CD:9880, V-B:HIS:456:CG:9037, H-A:LYS:547:NZ:4951, V-A:LEU:475:CD2:4259, V-A:GLU:543:CB:4906, V-B:TYR:539:CD1:9845, V-B:PRO:540:C:9853, H-A:HIS:456:ND1:4067, H-A:TYR:484:OH:4348"]

$$$$
ZINC106739286
     RDKit          3D

 46 48  0  0  0  0  0  0  0  0999 V2000
  135.1090  124.7320   62.3970 C   0  0  0  0  0  0  0  0  0  0  0  0
  134.4730  123.5040   62.7340 O   0  0  0  0  0  0  0  0  0  0  0  0
  133.1090  123.4880   62.9710 C   0  0  0  0  0  0  0  0  0  0  0  0
  132.5050  124.0330   64.1170 C   0  0  0  0  0  0  0  0  0  0  0  0
  131.1170  123.9880   64.2980 C   0  0  0  0  0  0  0  0  0  0  0  0
  130.4480  124.5630   65.4830 C   0  0  0  0  0  0  0  0  0  0  0  0
  129.7860  125.7410   65.5750 C   0  0  0  0  0  0  0  0  0  0  0  0
  129.4420  126.9300   64.3130 S   0  0  0  0  0  0  0  0  0  0  0  0
  128.5620  127.9690   65.4680 C   0  0  0  0  0  0  0  0  0  0  0  0
  128.0440  129.0400   65.1530 O   0  0  0  0  0  0  0  0  0  0  0  0
  128.5840  127.3690   66.6740 N   0  0  0  0  0  0  0  0  0  0  0  0
  127.9010  128.0080   67.8170 C   0  0  0  0  0  0  0  0  0  0  0  0
  128.5220  127.6910   69.1730 C   0  0  0  0  0  0  0  0  0  0  0  0
  129.8090  128.1390   69.4710 C   0  0  0  0  0  0  0  0  0  0  0  0
  130.3700  127.8660   70.7150 C   0  0  0  0  0  0  0  0  0  0  0  0
  129.6490  127.1500   71.6810 C   0  0  0  0  0  0  0  0  0  0  0  0
  130.2450  126.8600   73.0090 N   0  0  0  0  0  0  0  0  0  0  0  0
  131.1270  127.6020   73.4330 O   0  0  0  0  0  0  0  0  0  0  0  0
  129.8370  125.8870   73.6370 O   0  0  0  0  0  0  0  0  0  0  0  0
  128.3520  126.7130   71.3730 C   0  0  0  0  0  0  0  0  0  0  0  0
  127.7900  126.9860   70.1280 C   0  0  0  0  0  0  0  0  0  0  0  0
  129.2040  126.1720   66.8310 C   0  0  0  0  0  0  0  0  0  0  0  0
  129.2610  125.5510   67.8970 O   0  0  0  0  0  0  0  0  0  0  0  0
  130.3300  123.3680   63.3230 C   0  0  0  0  0  0  0  0  0  0  0  0
  130.9120  122.8190   62.1820 C   0  0  0  0  0  0  0  0  0  0  0  0
  129.8000  121.9790   60.8810 Br  0  0  0  0  0  0  0  0  0  0  0  0
  132.2980  122.8860   62.0010 C   0  0  0  0  0  0  0  0  0  0  0  0
  132.8620  122.3380   60.8750 O   0  0  0  0  0  0  0  0  0  0  0  0
  133.7340  123.2200   60.1610 C   0  0  0  0  0  0  0  0  0  0  0  0
  132.9640  123.9230   59.0210 C   0  0  0  0  0  0  0  0  0  0  0  0
  131.8210  124.3930   59.2310 O   0  0  0  0  0  0  0  0  0  0  0  0
  133.5520  123.9840   57.9180 O   0  0  0  0  0  0  0  0  0  0  0  0
  135.3858  125.2664   63.3178 H   0  0  0  0  0  0  0  0  0  0  0  0
  136.0139  124.5263   61.8064 H   0  0  0  0  0  0  0  0  0  0  0  0
  134.4188  125.3524   61.8064 H   0  0  0  0  0  0  0  0  0  0  0  0
  133.1344  124.5039   64.8865 H   0  0  0  0  0  0  0  0  0  0  0  0
  130.4930  123.9611   66.4026 H   0  0  0  0  0  0  0  0  0  0  0  0
  127.9299  129.0978   67.6707 H   0  0  0  0  0  0  0  0  0  0  0  0
  126.8767  127.6076   67.8371 H   0  0  0  0  0  0  0  0  0  0  0  0
  130.3804  128.7080   68.7228 H   0  0  0  0  0  0  0  0  0  0  0  0
  131.3881  128.2151   70.9424 H   0  0  0  0  0  0  0  0  0  0  0  0
  127.7741  126.1501   72.1208 H   0  0  0  0  0  0  0  0  0  0  0  0
  126.7695  126.6457   69.8983 H   0  0  0  0  0  0  0  0  0  0  0  0
  129.2397  123.3129   63.4579 H   0  0  0  0  0  0  0  0  0  0  0  0
  134.1307  123.9776   60.8528 H   0  0  0  0  0  0  0  0  0  0  0  0
  134.5606  122.6364   59.7296 H   0  0  0  0  0  0  0  0  0  0  0  0
  1  2  1  0
  2  3  1  0
  3  4  2  0
  4  5  1  0
  5  6  1  0
  6  7  2  0
  7  8  1  0
  8  9  1  0
  9 10  2  0
  9 11  1  0
 11 12  1  0
 12 13  1  0
 13 14  2  0
 14 15  1  0
 15 16  2  0
 16 17  1  0
 17 18  2  0
 17 19  1  0
 16 20  1  0
 20 21  2  0
 11 22  1  0
 22 23  2  0
  5 24  2  0
 24 25  1  0
 25 26  1  0
 25 27  2  0
 27 28  1  0
 28 29  1  0
 29 30  1  0
 30 31  2  0
 30 32  1  0
 27  3  1  0
 22  7  1  0
 21 13  1  0
  1 33  1  0
  1 34  1  0
  1 35  1  0
  4 36  1  0
  6 37  1  0
 12 38  1  0
 12 39  1  0
 14 40  1  0
 15 41  1  0
 20 42  1  0
 21 43  1  0
 24 44  1  0
 29 45  1  0
 29 46  1  0
M  CHG  3  17   1  19  -1  32  -1
M  END
>  <Binding energies>  (1) 
[-8.1]

>  <Ligand effiencies>  (1) 
[-0.253125]

>  <Interactions>  (1) 
["V-A:ILE:369:CG2:3237, V-A:GLY:454:CA:4049, V-B:GLU:543:C:9874, V-A:ILE:369:CB:3236, V-A:GLU:543:C:4902, V-B:GLU:543:CB:9878, H-B:LYS:547:NZ:9923, V-B:TYR:539:CE2:9848, V-A:TYR:484:CE2:4346, V-B:GLU:543:CG:9879, V-A:GLY:544:C:4912, V-A:ASP:366:CG:3213, V-A:HIS:456:CD2:4068, V-B:TYR:539:CZ:9849, H-B:TYR:539:OH:9850, V-A:GLU:543:CD:4908, V-B:HIS:456:CE1:9041, H-A:GLY:454:N:4050, V-A:GLY:453:C:4042, V-A:ILE:369:CD1:3239, V-A:HIS:456:CE1:4070, V-B:TYR:539:CD2:9846, V-A:GLU:543:CG:4907, V-B:GLU:543:CD:9880, H-A:LYS:547:NZ:4951, V-A:LEU:475:CD2:4259, V-A:ARG:545:CZ:4926, V-A:GLU:543:CB:4906, V-A:GLY:453:CA:4044"]

$$$$
ZINC106894695
     RDKit          3D

 39 41  0  0  0  0  0  0  0  0999 V2000
  127.7450  122.4720   62.9180 O   0  0  0  0  0  0  0  0  0  0  0  0
  128.6160  123.1370   62.3590 C   0  0  0  0  0  0  0  0  0  0  0  0
  129.9520  123.5250   62.9570 C   0  0  2  0  0  0  0  0  0  0  0  0
  130.1280  123.7990   64.4680 C   0  0  0  0  0  0  0  0  0  0  0  0
  131.2530  124.8490   64.7640 C   0  0  0  0  0  0  0  0  0  0  0  0
  132.3940  124.8280   63.7170 C   0  0  0  0  0  0  0  0  0  0  0  0
  133.6060  124.7220   64.0990 N   0  0  0  0  0  0  0  0  0  0  0  0
  134.5400  124.7430   63.0500 O   0  0  0  0  0  0  0  0  0  0  0  0
  131.8950  124.9700   62.2420 C   0  0  0  0  0  0  0  0  0  0  0  0
  130.3730  124.6950   62.1350 C   0  0  1  0  0  0  0  0  0  0  0  0
  129.7240  124.4040   60.7950 C   0  0  0  0  0  0  0  0  0  0  0  0
  130.0650  124.8860   59.7140 O   0  0  0  0  0  0  0  0  0  0  0  0
  128.6540  123.5990   61.0720 N   0  0  0  0  0  0  0  0  0  0  0  0
  127.6330  123.2580   60.0570 C   0  0  0  0  0  0  0  0  0  0  0  0
  126.4750  124.2860   59.9330 C   0  0  0  0  0  0  0  0  0  0  0  0
  125.4220  123.9070   58.8730 C   0  0  0  0  0  0  0  0  0  0  0  0
  126.0570  123.5860   57.5110 C   0  0  0  0  0  0  0  0  0  0  0  0
  127.1180  122.4820   57.6400 C   0  0  0  0  0  0  0  0  0  0  0  0
  128.2030  122.8330   58.6760 C   0  0  0  0  0  0  0  0  0  0  0  0
  130.5753  122.6195   62.9170 H   0  0  0  0  0  0  0  0  0  0  0  0
  129.1772  124.1788   64.8701 H   0  0  0  0  0  0  0  0  0  0  0  0
  130.4219  122.8528   64.9457 H   0  0  0  0  0  0  0  0  0  0  0  0
  130.8024  125.8524   64.7707 H   0  0  0  0  0  0  0  0  0  0  0  0
  131.6958  124.5900   65.7371 H   0  0  0  0  0  0  0  0  0  0  0  0
  134.4780  125.6520   62.7450 H   0  0  0  0  0  0  0  0  0  0  0  0
  132.1003  125.9920   61.8908 H   0  0  0  0  0  0  0  0  0  0  0  0
  132.4262  124.2324   61.6225 H   0  0  0  0  0  0  0  0  0  0  0  0
  130.0353  125.6895   62.4620 H   0  0  0  0  0  0  0  0  0  0  0  0
  127.1749  122.3485   60.4729 H   0  0  0  0  0  0  0  0  0  0  0  0
  125.9733  124.3636   60.9089 H   0  0  0  0  0  0  0  0  0  0  0  0
  126.9232  125.2389   59.6151 H   0  0  0  0  0  0  0  0  0  0  0  0
  124.8695  123.0226   59.2232 H   0  0  0  0  0  0  0  0  0  0  0  0
  124.7535  124.7701   58.7383 H   0  0  0  0  0  0  0  0  0  0  0  0
  125.2711  123.2494   56.8189 H   0  0  0  0  0  0  0  0  0  0  0  0
  126.5447  124.4956   57.1306 H   0  0  0  0  0  0  0  0  0  0  0  0
  126.6227  121.5495   57.9484 H   0  0  0  0  0  0  0  0  0  0  0  0
  127.6093  122.3711   56.6621 H   0  0  0  0  0  0  0  0  0  0  0  0
  128.8431  121.9503   58.8212 H   0  0  0  0  0  0  0  0  0  0  0  0
  128.7600  123.6945   58.2790 H   0  0  0  0  0  0  0  0  0  0  0  0
  1  2  2  0
  2  3  1  0
  3  4  1  0
  4  5  1  0
  5  6  1  0
  6  7  2  0
  7  8  1  0
  6  9  1  0
  9 10  1  0
 10 11  1  0
 11 12  2  0
 11 13  1  0
 13 14  1  0
 14 15  1  0
 15 16  1  0
 16 17  1  0
 17 18  1  0
 18 19  1  0
 13  2  1  0
 19 14  1  0
 10  3  1  0
  3 20  1  6
  4 21  1  0
  4 22  1  0
  5 23  1  0
  5 24  1  0
  8 25  1  0
  9 26  1  0
  9 27  1  0
 10 28  1  1
 14 29  1  0
 15 30  1  0
 15 31  1  0
 16 32  1  0
 16 33  1  0
 17 34  1  0
 17 35  1  0
 18 36  1  0
 18 37  1  0
 19 38  1  0
 19 39  1  0
M  END
>  <Binding energies>  (1) 
[-7.05]

>  <Ligand effiencies>  (1) 
[-0.3525]

>  <Interactions>  (1) 
["V-B:PRO:540:CA:9855, V-B:ALA:541:CB:9864, H-A:ARG:545:NH1:4927, V-B:TYR:539:CE2:9848, V-B:GLU:543:CG:9879, V-B:TYR:539:C:9839, V-B:TYR:539:CZ:9849, H-B:ALA:541:N:9863, V-B:PRO:540:CB:9857, H-A:GLY:454:N:4050, V-B:PRO:540:N:9856, V-B:TYR:539:CD2:9846, V-B:PRO:540:CD:9859, H-A:ARG:545:NH2:4928, V-A:ARG:545:CZ:4926, V-B:TYR:539:CG:9844, H-A:ASP:366:OD1:3214, H-A:ARG:545:NE:4924, H-A:TYR:484:OH:4348"]

$$$$
ZINC1074653141
     RDKit          3D

 68 72  0  0  0  0  0  0  0  0999 V2000
  127.2460  122.4400   57.0940 C   0  0  0  0  0  0  0  0  0  0  0  0
  127.0700  122.6840   58.4830 O   0  0  0  0  0  0  0  0  0  0  0  0
  127.2020  124.0450   58.8860 C   0  0  2  0  0  0  0  0  0  0  0  0
  128.4160  124.6360   58.1830 C   0  0  0  0  0  0  0  0  0  0  0  0
  129.3200  125.4830   58.7240 C   0  0  0  0  0  0  0  0  0  0  0  0
  130.5760  125.9080   57.9500 C   0  0  0  0  0  0  0  0  0  0  0  0
  131.8260  125.8810   58.8610 C   0  0  0  0  0  0  0  0  0  0  0  0
  131.6610  124.9230   60.0640 C   0  0  2  0  0  0  0  0  0  0  0  0
  130.5430  125.4930   60.9920 C   0  0  2  0  0  0  0  0  0  0  0  0
  130.3170  124.4330   62.0920 C   0  0  0  0  0  0  0  0  0  0  0  0
  131.5530  124.2450   62.9880 C   0  0  0  0  0  0  0  0  0  0  0  0
  132.9240  124.0530   62.2570 C   0  0  2  0  0  0  0  0  0  0  0  0
  134.0160  124.7240   63.1520 C   0  0  0  0  0  0  0  0  0  0  0  0
  133.0060  124.7010   60.8260 C   0  0  1  0  0  0  0  0  0  0  0  0
  134.0090  123.8300   60.0330 C   0  0  0  0  0  0  0  0  0  0  0  0
  134.3500  122.6090   60.8930 C   0  0  0  0  0  0  0  0  0  0  0  0
  133.2830  122.5390   62.0060 C   0  0  1  0  0  0  0  0  0  0  0  0
  133.7790  121.8670   63.1540 O   0  0  0  0  0  0  0  0  0  0  0  0
  132.0730  121.6540   61.5710 C   0  0  0  0  0  0  0  0  0  0  0  0
  132.3270  120.3720   60.2940 S   0  0  0  0  0  0  0  0  0  0  0  0
  131.1520  119.1560   60.8300 C   0  0  0  0  0  0  0  0  0  0  0  0
  131.3330  117.8520   60.7620 N   0  0  0  0  0  0  0  0  0  0  0  0
  130.2400  117.3070   61.2630 C   0  0  0  0  0  0  0  0  0  0  0  0
  129.3290  118.2690   61.6580 C   0  0  0  0  0  0  0  0  0  0  0  0
  129.9230  119.4710   61.3720 N   0  0  0  0  0  0  0  0  0  0  0  0
  129.3650  120.7930   61.6040 C   0  0  0  0  0  0  0  0  0  0  0  0
  129.2440  125.9920   60.1930 C   0  0  1  0  0  0  0  0  0  0  0  0
  129.2510  127.5490   60.1600 C   0  0  0  0  0  0  0  0  0  0  0  0
  127.8550  125.5930   60.8080 C   0  0  0  0  0  0  0  0  0  0  0  0
  127.3460  124.1950   60.4160 C   0  0  0  0  0  0  0  0  0  0  0  0
  127.8844  121.5550   56.9552 H   0  0  0  0  0  0  0  0  0  0  0  0
  126.2665  122.2627   56.6259 H   0  0  0  0  0  0  0  0  0  0  0  0
  127.7234  123.3135   56.6259 H   0  0  0  0  0  0  0  0  0  0  0  0
  126.2857  124.5838   58.6031 H   0  0  0  0  0  0  0  0  0  0  0  0
  128.5727  124.3458   57.1336 H   0  0  0  0  0  0  0  0  0  0  0  0
  130.7301  125.2174   57.1078 H   0  0  0  0  0  0  0  0  0  0  0  0
  130.4311  126.9356   57.5852 H   0  0  0  0  0  0  0  0  0  0  0  0
  132.6902  125.5530   58.2647 H   0  0  0  0  0  0  0  0  0  0  0  0
  131.9716  126.8960   59.2593 H   0  0  0  0  0  0  0  0  0  0  0  0
  131.3636  123.9271   59.7038 H   0  0  0  0  0  0  0  0  0  0  0  0
  130.8472  126.4334   61.4747 H   0  0  0  0  0  0  0  0  0  0  0  0
  129.4708  124.7498   62.7194 H   0  0  0  0  0  0  0  0  0  0  0  0
  130.1134  123.4727   61.5956 H   0  0  0  0  0  0  0  0  0  0  0  0
  131.6384  125.1340   63.6301 H   0  0  0  0  0  0  0  0  0  0  0  0
  131.3785  123.3041   63.5305 H   0  0  0  0  0  0  0  0  0  0  0  0
  133.7662  124.5705   64.2122 H   0  0  0  0  0  0  0  0  0  0  0  0
  134.9953  124.2716   62.9368 H   0  0  0  0  0  0  0  0  0  0  0  0
  134.0549  125.8020   62.9368 H   0  0  0  0  0  0  0  0  0  0  0  0
  133.3378  125.7436   60.9397 H   0  0  0  0  0  0  0  0  0  0  0  0
  133.5549  123.5052   59.0852 H   0  0  0  0  0  0  0  0  0  0  0  0
  134.9186  124.4042   59.8027 H   0  0  0  0  0  0  0  0  0  0  0  0
  134.3210  121.6948   60.2819 H   0  0  0  0  0  0  0  0  0  0  0  0
  135.3608  122.6944   61.3185 H   0  0  0  0  0  0  0  0  0  0  0  0
  134.5740  121.3890   62.9040 H   0  0  0  0  0  0  0  0  0  0  0  0
  131.7072  121.1421   62.4733 H   0  0  0  0  0  0  0  0  0  0  0  0
  131.3824  122.3664   61.0960 H   0  0  0  0  0  0  0  0  0  0  0  0
  130.0748  116.2233   61.3547 H   0  0  0  0  0  0  0  0  0  0  0  0
  128.3381  118.1048   62.1065 H   0  0  0  0  0  0  0  0  0  0  0  0
  129.2886  120.9740   62.6863 H   0  0  0  0  0  0  0  0  0  0  0  0
  130.0195  121.5520   61.1506 H   0  0  0  0  0  0  0  0  0  0  0  0
  128.3646  120.8535   61.1506 H   0  0  0  0  0  0  0  0  0  0  0  0
  129.2527  127.9376   61.1891 H   0  0  0  0  0  0  0  0  0  0  0  0
  130.1507  127.9006   59.6338 H   0  0  0  0  0  0  0  0  0  0  0  0
  128.3545  127.9086   59.6338 H   0  0  0  0  0  0  0  0  0  0  0  0
  127.9445  125.6284   61.9038 H   0  0  0  0  0  0  0  0  0  0  0  0
  127.1240  126.3096   60.4053 H   0  0  0  0  0  0  0  0  0  0  0  0
  128.0585  123.4411   60.7821 H   0  0  0  0  0  0  0  0  0  0  0  0
  126.3533  124.0535   60.8682 H   0  0  0  0  0  0  0  0  0  0  0  0
  1  2  1  0
  2  3  1  0
  3  4  1  0
  4  5  2  0
  5  6  1  0
  6  7  1  0
  7  8  1  0
  8  9  1  0
  9 10  1  0
 10 11  1  0
 11 12  1  0
 12 13  1  1
 12 14  1  0
 14 15  1  0
 15 16  1  0
 16 17  1  0
 17 18  1  1
 17 19  1  0
 19 20  1  0
 20 21  1  0
 21 22  2  0
 22 23  1  0
 23 24  2  0
 24 25  1  0
 25 26  1  0
  9 27  1  0
 27 28  1  6
 27 29  1  0
 29 30  1  0
 30  3  1  0
 27  5  1  0
 14  8  1  0
 25 21  1  0
 17 12  1  0
  1 31  1  0
  1 32  1  0
  1 33  1  0
  3 34  1  6
  4 35  1  0
  6 36  1  0
  6 37  1  0
  7 38  1  0
  7 39  1  0
  8 40  1  6
  9 41  1  1
 10 42  1  0
 10 43  1  0
 11 44  1  0
 11 45  1  0
 13 46  1  0
 13 47  1  0
 13 48  1  0
 14 49  1  1
 15 50  1  0
 15 51  1  0
 16 52  1  0
 16 53  1  0
 18 54  1  0
 19 55  1  0
 19 56  1  0
 23 57  1  0
 24 58  1  0
 26 59  1  0
 26 60  1  0
 26 61  1  0
 28 62  1  0
 28 63  1  0
 28 64  1  0
 29 65  1  0
 29 66  1  0
 30 67  1  0
 30 68  1  0
M  END
>  <Binding energies>  (1) 
[-8.0]

>  <Ligand effiencies>  (1) 
[-0.25806451612903225]

>  <Interactions>  (1) 
["V-A:ILE:369:CG2:3237, V-A:ASP:366:CA:3210, V-B:TYR:539:CA:9841, V-B:PRO:540:CA:9855, V-A:ILE:369:CB:3236, V-B:ALA:541:CB:9864, V-B:TYR:539:CE2:9848, V-B:TYR:539:C:9839, V-A:ASP:366:CG:3213, V-B:TYR:539:CZ:9849, V-A:LEU:475:CD1:4258, H-A:GLY:454:N:4050, V-A:GLY:453:C:4042, V-A:HIS:383:NE2:3394, V-B:PRO:540:N:9856, V-A:ILE:369:CD1:3239, V-A:PRO:482:CB:4326, V-B:PRO:540:CD:9859, V-B:TYR:539:CD2:9846, H-A:SER:385:OG:3410, V-A:ILE:369:CG1:3238, V-A:ASP:366:CB:3212, V-A:LEU:475:CD2:4259, V-A:ARG:545:CZ:4926, V-B:TYR:539:CG:9844, H-A:HIS:383:HE2:3395, V-B:TYR:539:CD1:9845, V-A:GLY:453:CA:4044, V-A:PRO:482:CG:4327, H-A:SER:385:O:3406, V-B:PRO:540:C:9853, V-B:ALA:541:CA:9862, V-B:TYR:539:CE1:9847"]

$$$$
ZINC1074653141-again1
     RDKit          3D

 69 73  0  0  0  0  0  0  0  0999 V2000
  132.6260  125.4660   64.1220 C   0  0  0  0  0  0  0  0  0  0  0  0
  133.6630  124.4930   64.0890 O   0  0  0  0  0  0  0  0  0  0  0  0
  134.0160  124.0230   62.7900 C   0  0  2  0  0  0  0  0  0  0  0  0
  133.5930  125.0770   61.7770 C   0  0  0  0  0  0  0  0  0  0  0  0
  133.0040  124.8490   60.5810 C   0  0  0  0  0  0  0  0  0  0  0  0
  132.4980  126.0080   59.7100 C   0  0  0  0  0  0  0  0  0  0  0  0
  131.0840  125.7050   59.1580 C   0  0  0  0  0  0  0  0  0  0  0  0
  130.3220  124.6730   60.0210 C   0  0  2  0  0  0  0  0  0  0  0  0
  131.0610  123.3020   59.9090 C   0  0  2  0  0  0  0  0  0  0  0  0
  130.3510  122.3390   60.8860 C   0  0  0  0  0  0  0  0  0  0  0  0
  128.8830  122.0780   60.5040 C   0  0  0  0  0  0  0  0  0  0  0  0
  128.0090  123.3330   60.1660 C   0  0  2  0  0  0  0  0  0  0  0  0
  126.9950  122.8990   59.0600 C   0  0  0  0  0  0  0  0  0  0  0  0
  128.8170  124.5700   59.6230 C   0  0  1  0  0  0  0  0  0  0  0  0
  128.0050  125.8160   60.0460 C   0  0  0  0  0  0  0  0  0  0  0  0
  126.8840  125.3480   60.9770 C   0  0  0  0  0  0  0  0  0  0  0  0
  127.2340  123.9100   61.4140 C   0  0  1  0  0  0  0  0  0  0  0  0
  126.0640  123.1830   61.7580 O   0  0  0  0  0  0  0  0  0  0  0  0
  128.0560  123.8940   62.7410 C   0  0  0  0  0  0  0  0  0  0  0  0
  129.5490  124.9440   62.8680 S   0  0  0  0  0  0  0  0  0  0  0  0
  129.6810  124.9610   64.6270 C   0  0  0  0  0  0  0  0  0  0  0  0
  129.8280  126.0890   65.4060 N   0  0  0  0  0  0  0  0  0  0  0  0
  129.9300  125.7370   66.7370 C   0  0  0  0  0  0  0  0  0  0  0  0
  129.8360  124.3540   66.7910 C   0  0  0  0  0  0  0  0  0  0  0  0
  129.6870  123.8770   65.4950 N   0  0  0  0  0  0  0  0  0  0  0  0
  129.5200  122.4790   65.1290 C   0  0  0  0  0  0  0  0  0  0  0  0
  132.6540  123.4290   60.0550 C   0  0  1  0  0  0  0  0  0  0  0  0
  133.2950  123.2670   58.6450 C   0  0  0  0  0  0  0  0  0  0  0  0
  133.3630  122.3560   60.9560 C   0  0  0  0  0  0  0  0  0  0  0  0
  133.3610  122.6620   62.4640 C   0  0  0  0  0  0  0  0  0  0  0  0
  132.3762  125.7004   65.1673 H   0  0  0  0  0  0  0  0  0  0  0  0
  132.9645  126.3800   63.6121 H   0  0  0  0  0  0  0  0  0  0  0  0
  131.7354  125.0701   63.6121 H   0  0  0  0  0  0  0  0  0  0  0  0
  135.1033  123.8610   62.7505 H   0  0  0  0  0  0  0  0  0  0  0  0
  133.7850  126.1268   62.0435 H   0  0  0  0  0  0  0  0  0  0  0  0
  132.4593  126.9247   60.3167 H   0  0  0  0  0  0  0  0  0  0  0  0
  133.1867  126.1383   58.8622 H   0  0  0  0  0  0  0  0  0  0  0  0
  130.5062  126.6407   59.1343 H   0  0  0  0  0  0  0  0  0  0  0  0
  131.2019  125.2779   58.1512 H   0  0  0  0  0  0  0  0  0  0  0  0
  130.3203  125.0011   61.0709 H   0  0  0  0  0  0  0  0  0  0  0  0
  130.9849  122.8774   58.8971 H   0  0  0  0  0  0  0  0  0  0  0  0
  130.8896  121.3799   60.8879 H   0  0  0  0  0  0  0  0  0  0  0  0
  130.3560  122.8115   61.8794 H   0  0  0  0  0  0  0  0  0  0  0  0
  128.8802  121.4225   59.6207 H   0  0  0  0  0  0  0  0  0  0  0  0
  128.4243  121.6406   61.4031 H   0  0  0  0  0  0  0  0  0  0  0  0
  126.0819  122.5082   59.5327 H   0  0  0  0  0  0  0  0  0  0  0  0
  126.7411  123.7673   58.4342 H   0  0  0  0  0  0  0  0  0  0  0  0
  127.4479  122.1159   58.4342 H   0  0  0  0  0  0  0  0  0  0  0  0
  128.9091  124.4626   58.5321 H   0  0  0  0  0  0  0  0  0  0  0  0
  128.6577  126.5269   60.5737 H   0  0  0  0  0  0  0  0  0  0  0  0
  127.5863  126.3206   59.1628 H   0  0  0  0  0  0  0  0  0  0  0  0
  126.8232  126.0062   61.8563 H   0  0  0  0  0  0  0  0  0  0  0  0
  125.9103  125.3779   60.4662 H   0  0  0  0  0  0  0  0  0  0  0  0
  125.6440  123.6170   62.5050 H   0  0  0  0  0  0  0  0  0  0  0  0
  127.3742  124.2032   63.5470 H   0  0  0  0  0  0  0  0  0  0  0  0
  128.4479  122.8677   62.7979 H   0  0  0  0  0  0  0  0  0  0  0  0
  129.8630  127.0350   65.0510 H   0  0  0  0  0  0  0  0  0  0  0  0
  130.0605  126.4203   67.5891 H   0  0  0  0  0  0  0  0  0  0  0  0
  129.8731  123.7406   67.7033 H   0  0  0  0  0  0  0  0  0  0  0  0
  129.4470  121.8676   66.0405 H   0  0  0  0  0  0  0  0  0  0  0  0
  128.6016  122.3627   64.5349 H   0  0  0  0  0  0  0  0  0  0  0  0
  130.3852  122.1496   64.5349 H   0  0  0  0  0  0  0  0  0  0  0  0
  134.3563  122.9988   58.7533 H   0  0  0  0  0  0  0  0  0  0  0  0
  132.7707  122.4731   58.0929 H   0  0  0  0  0  0  0  0  0  0  0  0
  133.2108  124.2147   58.0929 H   0  0  0  0  0  0  0  0  0  0  0  0
  132.8534  121.3932   60.8035 H   0  0  0  0  0  0  0  0  0  0  0  0
  134.4189  122.3480   60.6476 H   0  0  0  0  0  0  0  0  0  0  0  0
  132.3203  122.6765   62.8201 H   0  0  0  0  0  0  0  0  0  0  0  0
  133.9480  121.8787   62.9658 H   0  0  0  0  0  0  0  0  0  0  0  0
  1  2  1  0
  2  3  1  0
  3  4  1  0
  4  5  2  0
  5  6  1  0
  6  7  1  0
  7  8  1  0
  8  9  1  0
  9 10  1  0
 10 11  1  0
 11 12  1  0
 12 13  1  6
 12 14  1  0
 14 15  1  0
 15 16  1  0
 16 17  1  0
 17 18  1  1
 17 19  1  0
 19 20  1  0
 20 21  1  0
 21 22  2  0
 22 23  1  0
 23 24  2  0
 24 25  1  0
 25 26  1  0
  9 27  1  0
 27 28  1  6
 27 29  1  0
 29 30  1  0
 30  3  1  0
 27  5  1  0
 14  8  1  0
 25 21  1  0
 17 12  1  0
  1 31  1  0
  1 32  1  0
  1 33  1  0
  3 34  1  1
  4 35  1  0
  6 36  1  0
  6 37  1  0
  7 38  1  0
  7 39  1  0
  8 40  1  1
  9 41  1  6
 10 42  1  0
 10 43  1  0
 11 44  1  0
 11 45  1  0
 13 46  1  0
 13 47  1  0
 13 48  1  0
 14 49  1  6
 15 50  1  0
 15 51  1  0
 16 52  1  0
 16 53  1  0
 18 54  1  0
 19 55  1  0
 19 56  1  0
 22 57  1  0
 23 58  1  0
 24 59  1  0
 26 60  1  0
 26 61  1  0
 26 62  1  0
 28 63  1  0
 28 64  1  0
 28 65  1  0
 29 66  1  0
 29 67  1  0
 30 68  1  0
 30 69  1  0
M  CHG  1  22   1
M  END
>  <Binding energies>  (1) 
[-8.57]

>  <Ligand effiencies>  (1) 
[-0.2678125]

>  <Interactions>  (1) 
["V-A:ILE:369:CG2:3237, V-A:ASP:366:CA:3210, V-B:PRO:540:CA:9855, V-A:GLY:454:CA:4049, H-A:GLU:543:OE2:4910, V-A:ILE:369:CB:3236, V-B:GLU:543:CB:9878, V-B:ALA:541:CB:9864, V-B:TYR:539:CE2:9848, V-A:TYR:484:CE2:4346, H-B:ALA:541:O:9861, V-B:GLU:543:CG:9879, V-B:TYR:539:C:9839, V-A:ASP:366:CG:3213, V-B:TYR:539:CZ:9849, H-B:GLU:543:OE1:9881, H-B:ALA:541:N:9863, V-A:GLU:543:CD:4908, V-B:PRO:540:CB:9857, V-A:TYR:484:CZ:4347, V-B:GLU:543:CA:9876, H-A:GLY:454:N:4050, V-A:GLY:453:C:4042, V-B:PRO:540:N:9856, V-A:HIS:456:CE1:4070, V-B:TYR:539:CD2:9846, V-B:GLU:543:CD:9880, V-A:ASP:366:CB:3212, V-A:LEU:475:CD2:4259, H-A:ARG:545:NH2:4928, V-A:ARG:545:CZ:4926, H-A:GLU:543:OE1:4909, H-A:TYR:484:OH:4348"]

$$$$
ZINC1075997443-again1
     RDKit          3D

 68 73  0  0  0  0  0  0  0  0999 V2000
  126.8390  128.5330   58.4700 C   0  0  0  0  0  0  0  0  0  0  0  0
  127.0580  127.3480   59.0690 C   0  0  0  0  0  0  0  0  0  0  0  0
  126.1060  126.4400   59.4790 N   0  0  0  0  0  0  0  0  0  0  0  0
  125.9740  125.0450   59.0730 C   0  0  1  0  0  0  0  0  0  0  0  0
  126.2060  124.9350   57.5430 C   0  0  0  0  0  0  0  0  0  0  0  0
  126.3920  123.4770   57.0760 C   0  0  0  0  0  0  0  0  0  0  0  0
  127.6400  122.8020   57.6970 C   0  0  0  0  0  0  0  0  0  0  0  0
  127.7100  123.1180   59.1860 C   0  0  0  0  0  0  0  0  0  0  0  0
  126.9770  124.1400   59.7770 C   0  0  0  0  0  0  0  0  0  0  0  0
  127.2430  124.1600   61.1240 N   0  0  0  0  0  0  0  0  0  0  0  0
  128.1750  123.1960   61.4430 C   0  0  0  0  0  0  0  0  0  0  0  0
  128.7610  122.8540   62.6640 C   0  0  0  0  0  0  0  0  0  0  0  0
  129.6850  121.8110   62.6520 C   0  0  0  0  0  0  0  0  0  0  0  0
  130.0270  121.1200   61.4890 C   0  0  0  0  0  0  0  0  0  0  0  0
  130.9560  120.1070   61.6320 O   0  0  0  0  0  0  0  0  0  0  0  0
  130.9700  119.0370   60.6940 C   0  0  0  0  0  0  0  0  0  0  0  0
  129.4290  121.4730   60.2680 C   0  0  0  0  0  0  0  0  0  0  0  0
  128.4940  122.5190   60.2300 C   0  0  0  0  0  0  0  0  0  0  0  0
  128.4310  126.8620   59.3690 C   0  0  0  0  0  0  0  0  0  0  0  0
  129.3350  126.5320   58.2960 C   0  0  0  0  0  0  0  0  0  0  0  0
  129.0060  126.6230   57.0680 O   0  0  0  0  0  0  0  0  0  0  0  0
  130.6690  126.0370   58.6190 C   0  0  0  0  0  0  0  0  0  0  0  0
  131.1460  126.1570   59.8680 C   0  0  0  0  0  0  0  0  0  0  0  0
  132.2820  125.6010   60.3320 O   0  0  0  0  0  0  0  0  0  0  0  0
  132.1400  125.4670   61.6930 C   0  0  0  0  0  0  0  0  0  0  0  0
  133.0340  124.7580   62.5060 C   0  0  0  0  0  0  0  0  0  0  0  0
  134.2490  124.0960   61.8900 C   0  0  0  0  0  0  0  0  0  0  0  0
  134.0170  122.7440   61.2130 C   0  0  0  0  0  0  0  0  0  0  0  0
  135.4090  124.4820   62.0350 O   0  0  0  0  0  0  0  0  0  0  0  0
  132.7540  124.7600   63.9100 C   0  0  0  0  0  0  0  0  0  0  0  0
  133.5020  124.1250   64.7440 O   0  0  0  0  0  0  0  0  0  0  0  0
  131.6190  125.4560   64.4190 C   0  0  0  0  0  0  0  0  0  0  0  0
  131.2780  125.4780   65.9250 C   0  0  0  0  0  0  0  0  0  0  0  0
  130.7760  126.1530   63.5360 C   0  0  0  0  0  0  0  0  0  0  0  0
  129.7230  126.8980   64.0040 O   0  0  0  0  0  0  0  0  0  0  0  0
  131.0240  126.1390   62.1650 C   0  0  0  0  0  0  0  0  0  0  0  0
  130.3840  126.8420   60.9810 C   0  0  1  0  0  0  0  0  0  0  0  0
  130.7040  128.3590   61.0050 C   0  0  0  0  0  0  0  0  0  0  0  0
  128.8480  126.7160   60.7400 C   0  0  0  0  0  0  0  0  0  0  0  0
  127.9990  126.4800   61.6620 O   0  0  0  0  0  0  0  0  0  0  0  0
  127.6887  129.1726   58.1890 H   0  0  0  0  0  0  0  0  0  0  0  0
  125.8103  128.8620   58.2614 H   0  0  0  0  0  0  0  0  0  0  0  0
  125.4820  126.6960   60.2300 H   0  0  0  0  0  0  0  0  0  0  0  0
  124.9613  124.7167   59.3500 H   0  0  0  0  0  0  0  0  0  0  0  0
  125.3366  125.3636   57.0229 H   0  0  0  0  0  0  0  0  0  0  0  0
  127.1303  125.4820   57.3054 H   0  0  0  0  0  0  0  0  0  0  0  0
  125.5008  122.8997   57.3631 H   0  0  0  0  0  0  0  0  0  0  0  0
  126.5333  123.4943   55.9853 H   0  0  0  0  0  0  0  0  0  0  0  0
  127.5737  121.7129   57.5575 H   0  0  0  0  0  0  0  0  0  0  0  0
  128.5445  123.1846   57.2014 H   0  0  0  0  0  0  0  0  0  0  0  0
  126.7980  124.8170   61.7500 H   0  0  0  0  0  0  0  0  0  0  0  0
  128.5046  123.3841   63.5931 H   0  0  0  0  0  0  0  0  0  0  0  0
  130.1646  121.5204   63.5984 H   0  0  0  0  0  0  0  0  0  0  0  0
  130.9826  118.0777   61.2322 H   0  0  0  0  0  0  0  0  0  0  0  0
  130.0711  119.0913   60.0624 H   0  0  0  0  0  0  0  0  0  0  0  0
  131.8672  119.1148   60.0624 H   0  0  0  0  0  0  0  0  0  0  0  0
  129.6921  120.9326   59.3467 H   0  0  0  0  0  0  0  0  0  0  0  0
  131.2842  125.5652   57.8386 H   0  0  0  0  0  0  0  0  0  0  0  0
  133.8838  121.9676   61.9807 H   0  0  0  0  0  0  0  0  0  0  0  0
  133.1150  122.7980   60.5857 H   0  0  0  0  0  0  0  0  0  0  0  0
  134.8854  122.4942   60.5857 H   0  0  0  0  0  0  0  0  0  0  0  0
  132.2063  125.4181   66.5121 H   0  0  0  0  0  0  0  0  0  0  0  0
  130.7502  126.4121   66.1678 H   0  0  0  0  0  0  0  0  0  0  0  0
  130.6346  124.6195   66.1678 H   0  0  0  0  0  0  0  0  0  0  0  0
  129.1800  127.2460   63.2930 H   0  0  0  0  0  0  0  0  0  0  0  0
  130.7764  128.7020   62.0476 H   0  0  0  0  0  0  0  0  0  0  0  0
  131.6601  128.5402   60.4922 H   0  0  0  0  0  0  0  0  0  0  0  0
  129.9025  128.9110   60.4922 H   0  0  0  0  0  0  0  0  0  0  0  0
  1  2  2  0
  2  3  1  0
  3  4  1  0
  4  5  1  0
  5  6  1  0
  6  7  1  0
  7  8  1  0
  8  9  2  0
  9 10  1  0
 10 11  1  0
 11 12  2  0
 12 13  1  0
 13 14  2  0
 14 15  1  0
 15 16  1  0
 14 17  1  0
 17 18  2  0
  2 19  1  0
 19 20  2  0
 20 21  1  0
 20 22  1  0
 22 23  2  0
 23 24  1  0
 24 25  1  0
 25 26  2  0
 26 27  1  0
 27 28  1  0
 27 29  2  0
 26 30  1  0
 30 31  1  0
 30 32  2  0
 32 33  1  0
 32 34  1  0
 34 35  1  0
 34 36  2  0
 36 37  1  0
 37 38  1  1
 37 39  1  0
 39 40  2  0
  9  4  1  0
 18 11  1  0
 39 19  1  0
 18  8  1  0
 37 23  1  0
 36 25  1  0
  1 41  1  0
  1 42  1  0
  3 43  1  0
  4 44  1  6
  5 45  1  0
  5 46  1  0
  6 47  1  0
  6 48  1  0
  7 49  1  0
  7 50  1  0
 10 51  1  0
 12 52  1  0
 13 53  1  0
 16 54  1  0
 16 55  1  0
 16 56  1  0
 17 57  1  0
 22 58  1  0
 28 59  1  0
 28 60  1  0
 28 61  1  0
 33 62  1  0
 33 63  1  0
 33 64  1  0
 35 65  1  0
 38 66  1  0
 38 67  1  0
 38 68  1  0
M  CHG  2  21  -1  31  -1
M  END
>  <Binding energies>  (1) 
[-7.09]

>  <Ligand effiencies>  (1) 
[-0.16488372093023254]

>  <Interactions>  (1) 
["V-A:ILE:369:CG2:3237, V-B:PRO:540:CA:9855, V-B:ASP:366:CG:8184, V-B:ALA:541:CB:9864, H-A:TYR:531:OH:4795, V-B:TYR:539:CE2:9848, V-B:GLU:543:CG:9879, V-B:TYR:539:C:9839, H-B:ASP:366:OD2:8186, V-A:ASP:366:CG:3213, V-B:TYR:539:CZ:9849, H-B:GLU:543:OE1:9881, V-A:GLU:543:CD:4908, H-B:ASP:366:OD1:8185, H-A:GLY:454:N:4050, V-B:PRO:540:N:9856, V-A:ILE:369:CD1:3239, V-B:TYR:539:CD2:9846, H-A:SER:385:OG:3410, V-A:LEU:475:CD2:4259, V-A:ARG:545:CZ:4926, H-A:GLU:543:OE1:4909, V-B:TYR:539:CG:9844, V-B:TYR:539:CE1:9847, H-A:TYR:484:OH:4348"]

$$$$
ZINC1083920294-again1
     RDKit          3D

 27 28  0  0  0  0  0  0  0  0999 V2000
  127.3740  126.9900   71.5990 C   0  0  0  0  0  0  0  0  0  0  0  0
  128.7620  127.3810   71.0700 C   0  0  0  0  0  0  0  0  0  0  0  0
  128.9140  127.5120   69.6760 C   0  0  0  0  0  0  0  0  0  0  0  0
  127.5930  127.2440   68.5860 Cl  0  0  0  0  0  0  0  0  0  0  0  0
  130.1420  127.8640   69.1280 C   0  0  0  0  0  0  0  0  0  0  0  0
  131.2310  128.0900   69.9560 C   0  0  0  0  0  0  0  0  0  0  0  0
  131.0910  127.9630   71.3340 C   0  0  0  0  0  0  0  0  0  0  0  0
  129.8630  127.6070   71.9420 C   0  0  0  0  0  0  0  0  0  0  0  0
  129.6770  127.4700   73.3110 N   0  0  0  0  0  0  0  0  0  0  0  0
  129.4630  126.2280   73.7180 N   0  0  0  0  0  0  0  0  0  0  0  0
  130.3600  125.5290   74.3330 C   0  0  0  0  0  0  0  0  0  0  0  0
  130.0150  124.1750   74.7350 C   0  0  0  0  0  0  0  0  0  0  0  0
  130.8400  123.3250   75.3820 C   0  0  0  0  0  0  0  0  0  0  0  0
  130.2300  121.5130   75.8630 Br  0  0  0  0  0  0  0  0  0  0  0  0
  132.1810  123.7570   75.7190 C   0  0  0  0  0  0  0  0  0  0  0  0
  132.6250  124.9910   75.4020 C   0  0  0  0  0  0  0  0  0  0  0  0
  134.4680  125.5220   75.8910 Br  0  0  0  0  0  0  0  0  0  0  0  0
  131.7770  125.9830   74.6910 C   0  0  0  0  0  0  0  0  0  0  0  0
  132.2130  127.1010   74.4160 O   0  0  0  0  0  0  0  0  0  0  0  0
  127.3865  126.9935   72.6989 H   0  0  0  0  0  0  0  0  0  0  0  0
  126.6272  127.7127   71.2385 H   0  0  0  0  0  0  0  0  0  0  0  0
  127.1143  125.9837   71.2385 H   0  0  0  0  0  0  0  0  0  0  0  0
  130.2498  127.9632   68.0378 H   0  0  0  0  0  0  0  0  0  0  0  0
  132.2034  128.3691   69.5241 H   0  0  0  0  0  0  0  0  0  0  0  0
  131.9662  128.1458   71.9747 H   0  0  0  0  0  0  0  0  0  0  0  0
  129.0038  123.8157   74.4932 H   0  0  0  0  0  0  0  0  0  0  0  0
  132.8527  123.0630   76.2455 H   0  0  0  0  0  0  0  0  0  0  0  0
  1  2  1  0
  2  3  2  0
  3  4  1  0
  3  5  1  0
  5  6  2  0
  6  7  1  0
  7  8  2  0
  8  9  1  0
  9 10  1  0
 10 11  2  0
 11 12  1  0
 12 13  2  0
 13 14  1  0
 13 15  1  0
 15 16  2  0
 16 17  1  0
 16 18  1  0
 18 19  2  0
  8  2  1  0
 18 11  1  0
  1 20  1  0
  1 21  1  0
  1 22  1  0
  5 23  1  0
  6 24  1  0
  7 25  1  0
 12 26  1  0
 15 27  1  0
M  CHG  1   9  -1
M  END
>  <Binding energies>  (1) 
[-7.04]

>  <Ligand effiencies>  (1) 
[-0.3705263157894737]

>  <Interactions>  (1) 
["V-A:ARG:545:CA:4919, V-B:HIS:456:CD2:9039, V-B:GLU:543:C:9874, V-A:GLU:543:C:4902, V-B:GLU:543:CB:9878, H-B:LYS:547:NZ:9923, V-A:GLY:544:CA:4914, V-A:GLY:544:C:4912, V-A:HIS:456:CD2:4068, V-A:VAL:457:C:4073, V-A:HIS:456:CB:4065, V-B:LYS:547:CE:9922, V-A:ASP:473:CG:4240, V-B:HIS:456:CE1:9041, V-A:HIS:456:CE1:4070, V-B:GLY:544:C:9884, V-B:GLY:544:CA:9886, H-A:LYS:547:NZ:4951, V-A:HIS:456:C:4061, V-A:HIS:456:CG:4066, V-A:GLU:543:CB:4906, V-A:VAL:458:CG2:4087"]

$$$$
ZINC1084008255
     RDKit          3D

 25 26  0  0  0  0  0  0  0  0999 V2000
  128.7710  127.1610   64.7610 O   0  0  0  0  0  0  0  0  0  0  0  0
  128.9270  127.1530   66.1280 C   0  0  0  0  0  0  0  0  0  0  0  0
  128.2100  128.0800   66.8970 C   0  0  0  0  0  0  0  0  0  0  0  0
  127.1400  129.2240   66.1590 Cl  0  0  0  0  0  0  0  0  0  0  0  0
  128.3490  128.0950   68.2820 C   0  0  0  0  0  0  0  0  0  0  0  0
  129.2020  127.1900   68.9030 C   0  0  0  0  0  0  0  0  0  0  0  0
  129.3960  127.2110   70.7970 Br  0  0  0  0  0  0  0  0  0  0  0  0
  129.9140  126.2680   68.1400 C   0  0  0  0  0  0  0  0  0  0  0  0
  129.7960  126.2220   66.7340 C   0  0  0  0  0  0  0  0  0  0  0  0
  130.4940  125.3120   65.9080 N   0  0  0  0  0  0  0  0  0  0  0  0
  130.7340  125.6920   64.7220 N   0  0  0  0  0  0  0  0  0  0  0  0
  131.4180  124.7030   64.0170 C   0  0  0  0  0  0  0  0  0  0  0  0
  132.7320  124.9390   63.5910 C   0  0  0  0  0  0  0  0  0  0  0  0
  133.4470  123.9810   62.8710 C   0  0  0  0  0  0  0  0  0  0  0  0
  135.0690  124.3370   62.3850 Cl  0  0  0  0  0  0  0  0  0  0  0  0
  132.8430  122.7580   62.5570 C   0  0  0  0  0  0  0  0  0  0  0  0
  133.6870  121.5390   61.6660 Cl  0  0  0  0  0  0  0  0  0  0  0  0
  131.5340  122.5120   62.9640 C   0  0  0  0  0  0  0  0  0  0  0  0
  130.8210  123.4730   63.6840 C   0  0  0  0  0  0  0  0  0  0  0  0
  129.1950  123.1120   64.1530 Cl  0  0  0  0  0  0  0  0  0  0  0  0
  129.3550  126.5440   64.3160 H   0  0  0  0  0  0  0  0  0  0  0  0
  127.7845  128.8221   68.8843 H   0  0  0  0  0  0  0  0  0  0  0  0
  130.5850  125.5579   68.6454 H   0  0  0  0  0  0  0  0  0  0  0  0
  133.2103  125.9005   63.8294 H   0  0  0  0  0  0  0  0  0  0  0  0
  131.0574  121.5521   62.7161 H   0  0  0  0  0  0  0  0  0  0  0  0
  1  2  1  0
  2  3  2  0
  3  4  1  0
  3  5  1  0
  5  6  2  0
  6  7  1  0
  6  8  1  0
  8  9  2  0
  9 10  1  0
 10 11  2  0
 11 12  1  0
 12 13  2  0
 13 14  1  0
 14 15  1  0
 14 16  2  0
 16 17  1  0
 16 18  1  0
 18 19  2  0
 19 20  1  0
  9  2  1  0
 19 12  1  0
  1 21  1  0
  5 22  1  0
  8 23  1  0
 13 24  1  0
 18 25  1  0
M  END
>  <Binding energies>  (1) 
[-5.84]

>  <Ligand effiencies>  (1) 
[-0.27809523809523806]

>  <Interactions>  (1) 
["V-A:ILE:369:CG2:3237, H-A:GLU:543:OE2:4910, V-B:GLU:543:CB:9878, V-B:ALA:541:CB:9864, V-B:GLU:543:CG:9879, H-B:GLU:543:OE1:9881, V-A:GLU:543:CD:4908, V-B:HIS:456:CE1:9041, V-A:GLY:453:C:4042, V-B:TYR:484:CZ:9318, V-A:HIS:456:CE1:4070, V-A:ILE:369:CD1:3239, V-A:SER:385:CB:3409, V-B:GLU:543:CD:9880, V-A:LEU:475:CD2:4259, V-A:ARG:545:CZ:4926, H-A:GLU:543:OE1:4909, V-A:GLU:543:CB:4906, H-B:GLU:543:OE2:9882, V-A:GLY:453:CA:4044, H-A:TYR:484:OH:4348"]

$$$$
ZINC1084363891
     RDKit          3D

 60 63  0  0  0  0  0  0  0  0999 V2000
  129.5800  124.9420   56.8090 O   0  0  0  0  0  0  0  0  0  0  0  0
  128.5170  125.4000   57.2280 C   0  0  0  0  0  0  0  0  0  0  0  0
  127.2670  124.5100   57.3160 C   0  0  0  0  0  0  0  0  0  0  0  0
  127.5620  122.7670   57.7860 S   0  0  0  0  0  0  0  0  0  0  0  0
  128.0150  122.9480   59.4840 C   0  0  0  0  0  0  0  0  0  0  0  0
  128.1250  124.0940   60.1050 N   0  0  0  0  0  0  0  0  0  0  0  0
  128.4750  123.7820   61.3490 C   0  0  0  0  0  0  0  0  0  0  0  0
  128.6760  124.7760   62.2640 N   0  0  0  0  0  0  0  0  0  0  0  0
  129.1870  125.8510   61.8180 N   0  0  0  0  0  0  0  0  0  0  0  0
  129.3720  126.8600   62.8370 C   0  0  0  0  0  0  0  0  0  0  0  0
  130.1210  126.2680   64.0220 C   0  0  0  0  0  0  0  0  0  0  0  0
  129.4890  126.1270   65.2590 C   0  0  0  0  0  0  0  0  0  0  0  0
  130.1640  125.5750   66.3560 C   0  0  0  0  0  0  0  0  0  0  0  0
  129.4880  125.4310   67.6690 N   0  0  0  0  0  0  0  0  0  0  0  0
  129.5050  124.3360   68.2220 O   0  0  0  0  0  0  0  0  0  0  0  0
  128.9360  126.4130   68.1580 O   0  0  0  0  0  0  0  0  0  0  0  0
  131.4930  125.1610   66.1840 C   0  0  0  0  0  0  0  0  0  0  0  0
  132.1480  125.2860   64.9490 C   0  0  0  0  0  0  0  0  0  0  0  0
  133.5540  124.8400   64.7850 N   0  0  0  0  0  0  0  0  0  0  0  0
  134.3290  124.9810   65.7250 O   0  0  0  0  0  0  0  0  0  0  0  0
  133.8910  124.3440   63.7140 O   0  0  0  0  0  0  0  0  0  0  0  0
  131.4440  125.8440   63.8740 C   0  0  0  0  0  0  0  0  0  0  0  0
  128.5950  122.4750   61.5590 N   0  0  0  0  0  0  0  0  0  0  0  0
  128.3020  121.9550   60.3720 N   0  0  0  0  0  0  0  0  0  0  0  0
  128.3340  126.6670   57.6600 N   0  0  0  0  0  0  0  0  0  0  0  0
  129.2450  127.7390   57.7340 C   0  0  0  0  0  0  0  0  0  0  0  0
  130.3990  127.4980   58.4850 C   0  0  0  0  0  0  0  0  0  0  0  0
  131.3710  128.4850   58.6220 C   0  0  0  0  0  0  0  0  0  0  0  0
  131.1930  129.7230   58.0040 C   0  0  0  0  0  0  0  0  0  0  0  0
  132.4340  131.0030   58.1880 S   0  0  0  0  0  0  0  0  0  0  0  0
  133.7530  130.3690   58.0850 O   0  0  0  0  0  0  0  0  0  0  0  0
  132.0660  132.1010   57.2860 O   0  0  0  0  0  0  0  0  0  0  0  0
  132.2460  131.5850   59.8420 N   0  0  0  0  0  0  0  0  0  0  0  0
  133.4360  131.6110   60.7410 C   0  0  0  0  0  0  0  0  0  0  0  0
  132.8500  131.1010   62.0620 C   0  0  0  0  0  0  0  0  0  0  0  0
  131.3950  131.5200   62.0320 C   0  0  0  0  0  0  0  0  0  0  0  0
  131.0040  131.2580   60.5880 C   0  0  0  0  0  0  0  0  0  0  0  0
  130.0400  129.9790   57.2620 C   0  0  0  0  0  0  0  0  0  0  0  0
  129.0670  128.9920   57.1250 C   0  0  0  0  0  0  0  0  0  0  0  0
  126.5906  124.9511   58.0629 H   0  0  0  0  0  0  0  0  0  0  0  0
  126.8505  124.4785   56.2984 H   0  0  0  0  0  0  0  0  0  0  0  0
  129.9515  127.6971   62.4205 H   0  0  0  0  0  0  0  0  0  0  0  0
  128.3884  127.2197   63.1733 H   0  0  0  0  0  0  0  0  0  0  0  0
  128.4451  126.4543   65.3742 H   0  0  0  0  0  0  0  0  0  0  0  0
  132.0350  124.7279   67.0376 H   0  0  0  0  0  0  0  0  0  0  0  0
  131.9406  125.9500   62.8982 H   0  0  0  0  0  0  0  0  0  0  0  0
  128.2960  120.9620   60.1860 H   0  0  0  0  0  0  0  0  0  0  0  0
  127.4110  126.8880   58.0030 H   0  0  0  0  0  0  0  0  0  0  0  0
  130.5401  126.5214   58.9712 H   0  0  0  0  0  0  0  0  0  0  0  0
  132.2763  128.2895   59.2155 H   0  0  0  0  0  0  0  0  0  0  0  0
  134.2298  130.9446   60.3724 H   0  0  0  0  0  0  0  0  0  0  0  0
  133.9105  132.6003   60.8194 H   0  0  0  0  0  0  0  0  0  0  0  0
  132.9360  130.0062   62.1262 H   0  0  0  0  0  0  0  0  0  0  0  0
  133.3802  131.5099   62.9348 H   0  0  0  0  0  0  0  0  0  0  0  0
  130.7925  130.9121   62.7230 H   0  0  0  0  0  0  0  0  0  0  0  0
  131.2333  132.5615   62.3468 H   0  0  0  0  0  0  0  0  0  0  0  0
  130.7191  130.2059   60.4400 H   0  0  0  0  0  0  0  0  0  0  0  0
  130.1338  131.8458   60.2606 H   0  0  0  0  0  0  0  0  0  0  0  0
  129.8992  130.9602   56.7851 H   0  0  0  0  0  0  0  0  0  0  0  0
  128.1581  129.1940   56.5392 H   0  0  0  0  0  0  0  0  0  0  0  0
  1  2  2  0
  2  3  1  0
  3  4  1  0
  4  5  1  0
  5  6  2  0
  6  7  1  0
  7  8  1  0
  8  9  2  0
  9 10  1  0
 10 11  1  0
 11 12  2  0
 12 13  1  0
 13 14  1  0
 14 15  2  0
 14 16  1  0
 13 17  2  0
 17 18  1  0
 18 19  1  0
 19 20  2  0
 19 21  1  0
 18 22  2  0
  7 23  2  0
 23 24  1  0
  2 25  1  0
 25 26  1  0
 26 27  2  0
 27 28  1  0
 28 29  2  0
 29 30  1  0
 30 31  2  0
 30 32  2  0
 30 33  1  0
 33 34  1  0
 34 35  1  0
 35 36  1  0
 36 37  1  0
 29 38  1  0
 38 39  2  0
 24  5  1  0
 39 26  1  0
 22 11  1  0
 37 33  1  0
  3 40  1  0
  3 41  1  0
 10 42  1  0
 10 43  1  0
 12 44  1  0
 17 45  1  0
 22 46  1  0
 24 47  1  0
 25 48  1  0
 27 49  1  0
 28 50  1  0
 34 51  1  0
 34 52  1  0
 35 53  1  0
 35 54  1  0
 36 55  1  0
 36 56  1  0
 37 57  1  0
 37 58  1  0
 38 59  1  0
 39 60  1  0
M  CHG  4  14   1  16  -1  19   1  21  -1
M  END
>  <Binding energies>  (1) 
[-9.63]

>  <Ligand effiencies>  (1) 
[-0.23487804878048782]

>  <Interactions>  (1) 
["V-B:PRO:540:CA:9855, V-A:GLY:454:CA:4049, V-B:GLU:543:C:9874, V-B:GLU:543:CB:9878, V-B:TYR:539:CE2:9848, V-B:GLU:543:CG:9879, V-B:TYR:539:C:9839, V-A:ASP:366:CG:3213, V-A:ASN:362:CB:3176, V-A:LEU:363:CD1:3189, H-B:TYR:539:OH:9850, H-B:ALA:541:N:9863, V-A:GLU:543:CD:4908, V-A:TYR:484:CZ:4347, V-B:GLU:543:CA:9876, H-A:GLY:454:N:4050, V-B:PRO:540:N:9856, V-A:HIS:456:CE1:4070, V-B:TYR:539:CD2:9846, V-A:MET:535:CE:4835, V-B:GLU:543:CD:9880, H-B:TYR:531:OH:9767, V-A:ASP:366:CB:3212, H-A:ARG:545:NH2:4928, V-A:ASN:362:C:3172, V-A:ARG:545:CZ:4926, V-A:LEU:363:CA:3185, V-A:PRO:540:CB:4885, V-A:PRO:540:CA:4883, H-B:TYR:539:O:9840, H-A:ARG:545:NE:4924, V-B:PRO:540:C:9853, H-A:TYR:484:OH:4348"]

$$$$
ZINC1084363891-again1
     RDKit          3D

 60 63  0  0  0  0  0  0  0  0999 V2000
  131.7070  127.7230   68.8660 O   0  0  0  0  0  0  0  0  0  0  0  0
  130.5840  127.2740   68.6320 C   0  0  0  0  0  0  0  0  0  0  0  0
  129.3830  127.6990   69.4930 C   0  0  0  0  0  0  0  0  0  0  0  0
  127.7360  127.3650   68.7700 S   0  0  0  0  0  0  0  0  0  0  0  0
  127.9010  128.0540   67.1480 C   0  0  0  0  0  0  0  0  0  0  0  0
  128.4610  127.4190   66.1350 N   0  0  0  0  0  0  0  0  0  0  0  0
  128.3660  128.3190   65.1590 N   0  0  0  0  0  0  0  0  0  0  0  0
  127.7540  129.4500   65.6140 C   0  0  0  0  0  0  0  0  0  0  0  0
  127.5630  130.4860   64.7550 N   0  0  0  0  0  0  0  0  0  0  0  0
  128.5270  131.3070   64.7100 N   0  0  0  0  0  0  0  0  0  0  0  0
  128.2950  132.4060   63.7950 C   0  0  0  0  0  0  0  0  0  0  0  0
  129.2330  132.3250   62.5950 C   0  0  0  0  0  0  0  0  0  0  0  0
  130.5660  131.9470   62.7690 C   0  0  0  0  0  0  0  0  0  0  0  0
  131.4410  131.8580   61.6770 C   0  0  0  0  0  0  0  0  0  0  0  0
  132.8560  131.4560   61.8690 N   0  0  0  0  0  0  0  0  0  0  0  0
  133.6320  131.5680   60.9230 O   0  0  0  0  0  0  0  0  0  0  0  0
  133.2040  131.0270   62.9650 O   0  0  0  0  0  0  0  0  0  0  0  0
  130.9470  132.1560   60.3970 C   0  0  0  0  0  0  0  0  0  0  0  0
  129.6110  132.5320   60.1960 C   0  0  0  0  0  0  0  0  0  0  0  0
  129.1050  132.8430   58.8360 N   0  0  0  0  0  0  0  0  0  0  0  0
  129.8670  133.3700   58.0310 O   0  0  0  0  0  0  0  0  0  0  0  0
  127.9410  132.5620   58.5630 O   0  0  0  0  0  0  0  0  0  0  0  0
  128.7640  132.6080   61.3090 C   0  0  0  0  0  0  0  0  0  0  0  0
  127.4520  129.2730   66.8850 N   0  0  0  0  0  0  0  0  0  0  0  0
  130.2940  126.3930   67.6500 N   0  0  0  0  0  0  0  0  0  0  0  0
  131.1370  125.8390   66.6670 C   0  0  0  0  0  0  0  0  0  0  0  0
  130.5000  125.3440   65.5250 C   0  0  0  0  0  0  0  0  0  0  0  0
  131.2440  124.7800   64.4930 C   0  0  0  0  0  0  0  0  0  0  0  0
  132.6340  124.7240   64.5910 C   0  0  0  0  0  0  0  0  0  0  0  0
  133.6020  123.9800   63.2800 S   0  0  0  0  0  0  0  0  0  0  0  0
  134.8740  124.7070   63.1870 O   0  0  0  0  0  0  0  0  0  0  0  0
  133.5920  122.5290   63.5020 O   0  0  0  0  0  0  0  0  0  0  0  0
  132.6900  124.3020   61.8050 N   0  0  0  0  0  0  0  0  0  0  0  0
  132.9920  123.5150   60.5760 C   0  0  0  0  0  0  0  0  0  0  0  0
  132.9260  124.5900   59.4860 C   0  0  0  0  0  0  0  0  0  0  0  0
  131.9460  125.6180   60.0080 C   0  0  0  0  0  0  0  0  0  0  0  0
  132.3030  125.7000   61.4830 C   0  0  0  0  0  0  0  0  0  0  0  0
  133.2810  125.2220   65.7220 C   0  0  0  0  0  0  0  0  0  0  0  0
  132.5370  125.7830   66.7570 C   0  0  0  0  0  0  0  0  0  0  0  0
  129.4470  127.1632   70.4515 H   0  0  0  0  0  0  0  0  0  0  0  0
  129.4535  128.7925   69.5898 H   0  0  0  0  0  0  0  0  0  0  0  0
  128.7090  128.1600   64.2230 H   0  0  0  0  0  0  0  0  0  0  0  0
  127.2541  132.3661   63.4414 H   0  0  0  0  0  0  0  0  0  0  0  0
  128.4856  133.3504   64.3259 H   0  0  0  0  0  0  0  0  0  0  0  0
  130.9355  131.7154   63.7789 H   0  0  0  0  0  0  0  0  0  0  0  0
  131.6235  132.0931   59.5319 H   0  0  0  0  0  0  0  0  0  0  0  0
  127.7115  132.8954   61.1686 H   0  0  0  0  0  0  0  0  0  0  0  0
  129.3490  126.0390   67.6330 H   0  0  0  0  0  0  0  0  0  0  0  0
  129.4046  125.4007   65.4418 H   0  0  0  0  0  0  0  0  0  0  0  0
  130.7372  124.3796   63.6026 H   0  0  0  0  0  0  0  0  0  0  0  0
  133.9920  123.0597   60.6285 H   0  0  0  0  0  0  0  0  0  0  0  0
  132.3060  122.6714   60.4095 H   0  0  0  0  0  0  0  0  0  0  0  0
  133.9159  125.0438   59.3302 H   0  0  0  0  0  0  0  0  0  0  0  0
  132.6129  124.1761   58.5161 H   0  0  0  0  0  0  0  0  0  0  0  0
  132.0873  126.5891   59.5110 H   0  0  0  0  0  0  0  0  0  0  0  0
  130.8945  125.3503   59.8273 H   0  0  0  0  0  0  0  0  0  0  0  0
  133.1416  126.3920   61.6500 H   0  0  0  0  0  0  0  0  0  0  0  0
  131.4829  126.0807   62.1095 H   0  0  0  0  0  0  0  0  0  0  0  0
  134.3773  125.1717   65.7963 H   0  0  0  0  0  0  0  0  0  0  0  0
  133.0468  126.1827   67.6460 H   0  0  0  0  0  0  0  0  0  0  0  0
  1  2  2  0
  2  3  1  0
  3  4  1  0
  4  5  1  0
  5  6  2  0
  6  7  1  0
  7  8  1  0
  8  9  1  0
  9 10  2  0
 10 11  1  0
 11 12  1  0
 12 13  2  0
 13 14  1  0
 14 15  1  0
 15 16  2  0
 15 17  1  0
 14 18  2  0
 18 19  1  0
 19 20  1  0
 20 21  2  0
 20 22  1  0
 19 23  2  0
  8 24  2  0
  2 25  1  0
 25 26  1  0
 26 27  2  0
 27 28  1  0
 28 29  2  0
 29 30  1  0
 30 31  2  0
 30 32  2  0
 30 33  1  0
 33 34  1  0
 34 35  1  0
 35 36  1  0
 36 37  1  0
 29 38  1  0
 38 39  2  0
 24  5  1  0
 39 26  1  0
 23 12  1  0
 37 33  1  0
  3 40  1  0
  3 41  1  0
  7 42  1  0
 11 43  1  0
 11 44  1  0
 13 45  1  0
 18 46  1  0
 23 47  1  0
 25 48  1  0
 27 49  1  0
 28 50  1  0
 34 51  1  0
 34 52  1  0
 35 53  1  0
 35 54  1  0
 36 55  1  0
 36 56  1  0
 37 57  1  0
 37 58  1  0
 38 59  1  0
 39 60  1  0
M  CHG  4  15   1  17  -1  20   1  22  -1
M  END
>  <Binding energies>  (1) 
[-9.72]

>  <Ligand effiencies>  (1) 
[-0.23707317073170733]

>  <Interactions>  (1) 
["V-A:ILE:369:CG2:3237, V-A:GLY:454:CA:4049, H-A:GLU:543:OE2:4910, H-B:GLU:543:O:9875, V-B:GLU:543:CB:9878, V-A:PRO:540:C:4881, H-A:ARG:545:NH1:4927, V-B:TYR:539:CE2:9848, V-B:GLU:543:CG:9879, V-A:ASP:366:CG:3213, H-A:ARG:545:N:4920, V-A:ASN:362:CB:3176, V-A:TYR:539:CD1:4873, V-A:ALA:541:CB:4892, V-A:GLU:543:CD:4908, H-B:TYR:484:OH:9319, V-B:HIS:456:CE1:9041, H-A:GLY:454:N:4050, V-A:ARG:545:CG:4922, V-A:HIS:456:CE1:4070, V-A:ALA:541:CA:4890, V-A:GLU:543:CG:4907, V-B:GLU:543:CD:9880, V-A:TYR:539:C:4867, V-A:ASP:366:CB:3212, V-A:ARG:545:CD:4923, H-A:ARG:545:NH2:4928, H-A:LEU:363:N:3186, H-A:GLU:543:OE1:4909, V-A:ARG:545:CZ:4926, V-A:GLU:543:CB:4906, V-A:PRO:540:N:4884, H-A:ASN:362:ND2:3179, H-A:TYR:539:N:4870, H-B:GLU:543:OE2:9882, V-A:PRO:540:CA:4883, V-A:PRO:540:CB:4885, H-A:TYR:484:OH:4348"]

$$$$
ZINC1084472172-again1
     RDKit          3D

 65 68  0  0  0  0  0  0  0  0999 V2000
  133.2720  131.2230   62.8680 C   0  0  0  0  0  0  0  0  0  0  0  0
  132.3270  131.6780   61.7610 C   0  0  0  0  0  0  0  0  0  0  0  0
  131.2590  132.2140   62.0650 O   0  0  0  0  0  0  0  0  0  0  0  0
  132.7480  131.4600   60.4980 N   0  0  0  0  0  0  0  0  0  0  0  0
  131.8950  131.7520   59.4390 N   0  0  0  0  0  0  0  0  0  0  0  0
  132.1930  131.2930   58.2040 C   0  0  0  0  0  0  0  0  0  0  0  0
  133.2410  130.7030   57.9190 O   0  0  0  0  0  0  0  0  0  0  0  0
  131.1230  131.5490   57.1270 C   0  0  1  0  0  0  0  0  0  0  0  0
  130.1820  130.3490   56.8950 C   0  0  0  0  0  0  0  0  0  0  0  0
  130.1520  133.0280   57.5820 S   0  0  0  0  0  0  0  0  0  0  0  0
  129.3600  132.3810   59.0120 C   0  0  0  0  0  0  0  0  0  0  0  0
  129.1130  131.1070   59.1800 N   0  0  0  0  0  0  0  0  0  0  0  0
  128.5240  131.0580   60.3520 C   0  0  0  0  0  0  0  0  0  0  0  0
  128.1180  129.8660   60.8810 N   0  0  0  0  0  0  0  0  0  0  0  0
  128.6470  129.5470   61.9920 N   0  0  0  0  0  0  0  0  0  0  0  0
  128.1920  128.2720   62.4960 C   0  0  0  0  0  0  0  0  0  0  0  0
  127.9940  128.4280   63.9920 C   0  0  0  0  0  0  0  0  0  0  0  0
  127.1510  129.3350   64.6570 C   0  0  0  0  0  0  0  0  0  0  0  0
  126.2070  130.3620   64.0720 C   0  0  0  0  0  0  0  0  0  0  0  0
  127.2390  129.2240   65.9610 N   0  0  0  0  0  0  0  0  0  0  0  0
  128.1180  128.2390   66.2050 N   0  0  0  0  0  0  0  0  0  0  0  0
  128.3970  127.8770   67.5520 C   0  0  0  0  0  0  0  0  0  0  0  0
  129.6880  128.0330   68.0760 C   0  0  0  0  0  0  0  0  0  0  0  0
  129.9560  127.6810   69.3970 C   0  0  0  0  0  0  0  0  0  0  0  0
  128.9380  127.1660   70.1940 C   0  0  0  0  0  0  0  0  0  0  0  0
  127.6530  126.9960   69.6830 C   0  0  0  0  0  0  0  0  0  0  0  0
  127.3830  127.3490   68.3640 C   0  0  0  0  0  0  0  0  0  0  0  0
  128.6270  127.7320   65.0210 C   0  0  0  0  0  0  0  0  0  0  0  0
  129.5680  126.7450   64.9960 N   0  0  0  0  0  0  0  0  0  0  0  0
  130.1570  126.3580   63.7060 C   0  0  0  0  0  0  0  0  0  0  0  0
  131.5230  125.6580   63.8570 C   0  0  0  0  0  0  0  0  0  0  0  0
  131.4560  124.4600   64.8110 C   0  0  0  0  0  0  0  0  0  0  0  0
  130.8220  124.8930   66.1390 C   0  0  0  0  0  0  0  0  0  0  0  0
  129.4730  125.6100   65.9270 C   0  0  0  0  0  0  0  0  0  0  0  0
  128.4150  132.2560   60.8920 N   0  0  0  0  0  0  0  0  0  0  0  0
  128.9760  133.1340   60.0010 N   0  0  0  0  0  0  0  0  0  0  0  0
  132.8209  131.4402   63.8475 H   0  0  0  0  0  0  0  0  0  0  0  0
  133.4487  130.1411   62.7775 H   0  0  0  0  0  0  0  0  0  0  0  0
  134.2280  131.7595   62.7775 H   0  0  0  0  0  0  0  0  0  0  0  0
  133.5360  130.8830   60.2400 H   0  0  0  0  0  0  0  0  0  0  0  0
  130.9850  132.0810   59.7280 H   0  0  0  0  0  0  0  0  0  0  0  0
  131.6544  131.7092   56.1773 H   0  0  0  0  0  0  0  0  0  0  0  0
  129.8621  129.9410   57.8651 H   0  0  0  0  0  0  0  0  0  0  0  0
  129.2997  130.6793   56.3272 H   0  0  0  0  0  0  0  0  0  0  0  0
  130.7132  129.5709   56.3272 H   0  0  0  0  0  0  0  0  0  0  0  0
  127.2417  127.9943   62.0166 H   0  0  0  0  0  0  0  0  0  0  0  0
  128.9251  127.4812   62.2787 H   0  0  0  0  0  0  0  0  0  0  0  0
  125.7067  130.9062   64.8866 H   0  0  0  0  0  0  0  0  0  0  0  0
  126.7751  131.0711   63.4520 H   0  0  0  0  0  0  0  0  0  0  0  0
  125.4526  129.8555   63.4520 H   0  0  0  0  0  0  0  0  0  0  0  0
  130.4921  128.4347   67.4419 H   0  0  0  0  0  0  0  0  0  0  0  0
  130.9680  127.8096   69.8084 H   0  0  0  0  0  0  0  0  0  0  0  0
  129.1499  126.8905   71.2376 H   0  0  0  0  0  0  0  0  0  0  0  0
  126.8554  126.5846   70.3191 H   0  0  0  0  0  0  0  0  0  0  0  0
  126.3701  127.2132   67.9569 H   0  0  0  0  0  0  0  0  0  0  0  0
  129.4652  125.6716   63.1958 H   0  0  0  0  0  0  0  0  0  0  0  0
  130.3198  127.2792   63.1273 H   0  0  0  0  0  0  0  0  0  0  0  0
  131.8520  125.3058   62.8682 H   0  0  0  0  0  0  0  0  0  0  0  0
  132.2316  126.3864   64.2780 H   0  0  0  0  0  0  0  0  0  0  0  0
  130.8469  123.6644   64.3570 H   0  0  0  0  0  0  0  0  0  0  0  0
  132.4731  124.0849   64.9975 H   0  0  0  0  0  0  0  0  0  0  0  0
  130.6565  124.0012   66.7613 H   0  0  0  0  0  0  0  0  0  0  0  0
  131.5087  125.5981   66.6301 H   0  0  0  0  0  0  0  0  0  0  0  0
  128.7499  124.8854   65.5244 H   0  0  0  0  0  0  0  0  0  0  0  0
  129.1542  126.0083   66.9015 H   0  0  0  0  0  0  0  0  0  0  0  0
  1  2  1  0
  2  3  2  0
  2  4  1  0
  4  5  1  0
  5  6  1  0
  6  7  2  0
  6  8  1  0
  8  9  1  0
  8 10  1  0
 10 11  1  0
 11 12  2  0
 12 13  1  0
 13 14  1  0
 14 15  2  0
 15 16  1  0
 16 17  1  0
 17 18  1  0
 18 19  1  0
 18 20  2  0
 20 21  1  0
 21 22  1  0
 22 23  2  0
 23 24  1  0
 24 25  2  0
 25 26  1  0
 26 27  2  0
 21 28  1  0
 28 29  1  0
 29 30  1  0
 30 31  1  0
 31 32  1  0
 32 33  1  0
 33 34  1  0
 13 35  2  0
 35 36  1  0
 36 11  1  0
 28 17  2  0
 34 29  1  0
 27 22  1  0
  1 37  1  0
  1 38  1  0
  1 39  1  0
  4 40  1  0
  5 41  1  0
  8 42  1  6
  9 43  1  0
  9 44  1  0
  9 45  1  0
 16 46  1  0
 16 47  1  0
 19 48  1  0
 19 49  1  0
 19 50  1  0
 23 51  1  0
 24 52  1  0
 25 53  1  0
 26 54  1  0
 27 55  1  0
 30 56  1  0
 30 57  1  0
 31 58  1  0
 31 59  1  0
 32 60  1  0
 32 61  1  0
 33 62  1  0
 33 63  1  0
 34 64  1  0
 34 65  1  0
M  CHG  1  36  -1
M  END
>  <Binding energies>  (1) 
[-7.71]

>  <Ligand effiencies>  (1) 
[-0.20289473684210527]

>  <Interactions>  (1) 
["V-B:GLU:543:C:9874, H-A:ALA:541:N:4891, V-B:GLU:543:CB:9878, V-A:TYR:484:CE2:4346, V-B:GLU:543:CG:9879, V-A:ASN:362:CB:3176, V-A:LEU:363:CD1:3189, V-A:GLU:543:CD:4908, V-A:TYR:484:CZ:4347, H-B:TYR:484:OH:9319, V-A:ASN:362:CG:3177, V-B:HIS:456:CE1:9041, V-A:HIS:456:CE1:4070, V-A:GLU:543:CG:4907, V-A:MET:535:CE:4835, V-B:GLU:543:CD:9880, V-A:ARG:545:CZ:4926, V-A:GLU:543:CB:4906, V-A:PRO:540:N:4884, H-A:TYR:539:N:4870, V-A:PRO:540:CB:4885, V-A:PRO:540:CA:4883, H-A:ASP:366:OD2:3215"]

$$$$
ZINC1085210861
     RDKit          3D

 81 84  0  0  0  0  0  0  0  0999 V2000
  127.6610  133.7380   61.9090 C   0  0  0  0  0  0  0  0  0  0  0  0
  128.7410  132.9630   62.6840 C   0  0  0  0  0  0  0  0  0  0  0  0
  128.2000  132.0520   63.7940 C   0  0  0  0  0  0  0  0  0  0  0  0
  128.3320  132.3160   64.9920 O   0  0  0  0  0  0  0  0  0  0  0  0
  127.5840  130.9640   63.2900 O   0  0  0  0  0  0  0  0  0  0  0  0
  128.2370  129.6990   63.2840 C   0  0  0  0  0  0  0  0  0  0  0  0
  129.0750  129.5120   62.0060 C   0  0  0  0  0  0  0  0  0  0  0  0
  129.8010  130.4250   61.6150 O   0  0  0  0  0  0  0  0  0  0  0  0
  128.9420  128.1420   61.2330 C   0  0  2  0  0  0  0  0  0  0  0  0
  129.6780  128.3310   59.9900 O   0  0  0  0  0  0  0  0  0  0  0  0
  129.2610  127.9800   58.7300 C   0  0  0  0  0  0  0  0  0  0  0  0
  128.3720  128.5370   58.0830 O   0  0  0  0  0  0  0  0  0  0  0  0
  130.0470  126.7800   58.1920 C   0  0  0  0  0  0  0  0  0  0  0  0
  131.5510  126.8050   58.5130 C   0  0  0  0  0  0  0  0  0  0  0  0
  127.4830  127.5900   60.8930 C   0  0  2  0  0  0  0  0  0  0  0  0
  126.2390  128.1600   61.6140 C   0  0  0  0  0  0  0  0  0  0  0  0
  127.5630  126.0520   61.0590 C   0  0  0  0  0  0  0  0  0  0  0  0
  129.0540  125.7460   61.2120 C   0  0  2  0  0  0  0  0  0  0  0  0
  129.5000  124.3490   61.7350 C   0  0  1  0  0  0  0  0  0  0  0  0
  128.8670  123.1950   60.9170 C   0  0  0  0  0  0  0  0  0  0  0  0
  129.3270  121.8050   61.3870 C   0  0  0  0  0  0  0  0  0  0  0  0
  130.8530  121.7390   61.3460 C   0  0  0  0  0  0  0  0  0  0  0  0
  131.5130  120.8350   60.5830 C   0  0  0  0  0  0  0  0  0  0  0  0
  132.9690  120.7300   60.4710 C   0  0  0  0  0  0  0  0  0  0  0  0
  133.5300  119.8870   59.7740 O   0  0  0  0  0  0  0  0  0  0  0  0
  133.6900  121.7250   61.2600 C   0  0  0  0  0  0  0  0  0  0  0  0
  133.0880  122.6480   62.0360 C   0  0  0  0  0  0  0  0  0  0  0  0
  131.5690  122.8070   62.2210 C   0  0  2  0  0  0  0  0  0  0  0  0
  131.2730  122.4740   63.7090 C   0  0  0  0  0  0  0  0  0  0  0  0
  131.0680  124.2340   61.7450 C   0  0  1  0  0  0  0  0  0  0  0  0
  131.4560  124.3370   60.4640 F   0  0  0  0  0  0  0  0  0  0  0  0
  131.7530  125.4690   62.4380 C   0  0  2  0  0  0  0  0  0  0  0  0
  131.6920  125.3960   63.8630 O   0  0  0  0  0  0  0  0  0  0  0  0
  132.7870  125.1460   64.6180 C   0  0  0  0  0  0  0  0  0  0  0  0
  133.8690  124.7280   64.2040 O   0  0  0  0  0  0  0  0  0  0  0  0
  132.5290  125.4480   66.0990 C   0  0  0  0  0  0  0  0  0  0  0  0
  131.0530  125.3510   66.5230 C   0  0  0  0  0  0  0  0  0  0  0  0
  131.1860  126.8220   61.9080 C   0  0  0  0  0  0  0  0  0  0  0  0
  129.6270  126.9420   62.0160 C   0  0  1  0  0  0  0  0  0  0  0  0
  129.1760  126.9300   63.5170 C   0  0  0  0  0  0  0  0  0  0  0  0
  126.9793  134.2272   62.6203 H   0  0  0  0  0  0  0  0  0  0  0  0
  128.1395  134.5001   61.2764 H   0  0  0  0  0  0  0  0  0  0  0  0
  127.0922  133.0407   61.2764 H   0  0  0  0  0  0  0  0  0  0  0  0
  129.2961  132.3391   61.9680 H   0  0  0  0  0  0  0  0  0  0  0  0
  129.3715  133.7166   63.1785 H   0  0  0  0  0  0  0  0  0  0  0  0
  128.8988  129.6325   64.1601 H   0  0  0  0  0  0  0  0  0  0  0  0
  127.4705  128.9108   63.3168 H   0  0  0  0  0  0  0  0  0  0  0  0
  129.6182  125.8655   58.6277 H   0  0  0  0  0  0  0  0  0  0  0  0
  129.9611  126.8165   57.0960 H   0  0  0  0  0  0  0  0  0  0  0  0
  131.6931  126.8074   59.6038 H   0  0  0  0  0  0  0  0  0  0  0  0
  132.0327  125.9147   58.0824 H   0  0  0  0  0  0  0  0  0  0  0  0
  132.0028  127.7108   58.0824 H   0  0  0  0  0  0  0  0  0  0  0  0
  127.2743  127.9507   59.8750 H   0  0  0  0  0  0  0  0  0  0  0  0
  126.3836  128.0937   62.7024 H   0  0  0  0  0  0  0  0  0  0  0  0
  126.0985  129.2123   61.3262 H   0  0  0  0  0  0  0  0  0  0  0  0
  125.3502  127.5793   61.3262 H   0  0  0  0  0  0  0  0  0  0  0  0
  127.0088  125.7305   61.9532 H   0  0  0  0  0  0  0  0  0  0  0  0
  127.1183  125.5210   60.2044 H   0  0  0  0  0  0  0  0  0  0  0  0
  129.4804  125.6471   60.2029 H   0  0  0  0  0  0  0  0  0  0  0  0
  129.1355  124.2532   62.7684 H   0  0  0  0  0  0  0  0  0  0  0  0
  127.7730  123.2543   61.0152 H   0  0  0  0  0  0  0  0  0  0  0  0
  129.1917  123.3142   59.8728 H   0  0  0  0  0  0  0  0  0  0  0  0
  128.9789  121.6309   62.4159 H   0  0  0  0  0  0  0  0  0  0  0  0
  128.9063  121.0337   60.7251 H   0  0  0  0  0  0  0  0  0  0  0  0
  130.9074  120.1239   60.0019 H   0  0  0  0  0  0  0  0  0  0  0  0
  134.7892  121.7210   61.2186 H   0  0  0  0  0  0  0  0  0  0  0  0
  133.7377  123.3467   62.5834 H   0  0  0  0  0  0  0  0  0  0  0  0
  131.8632  123.1380   64.3577 H   0  0  0  0  0  0  0  0  0  0  0  0
  130.2018  122.6208   63.9115 H   0  0  0  0  0  0  0  0  0  0  0  0
  131.5444  121.4274   63.9115 H   0  0  0  0  0  0  0  0  0  0  0  0
  132.8173  125.4295   62.1630 H   0  0  0  0  0  0  0  0  0  0  0  0
  133.1071  124.7318   66.7013 H   0  0  0  0  0  0  0  0  0  0  0  0
  132.8332  126.4924   66.2626 H   0  0  0  0  0  0  0  0  0  0  0  0
  130.9864  125.3466   67.6210 H   0  0  0  0  0  0  0  0  0  0  0  0
  130.4998  126.2147   66.1256 H   0  0  0  0  0  0  0  0  0  0  0  0
  130.6176  124.4223   66.1256 H   0  0  0  0  0  0  0  0  0  0  0  0
  131.6376  127.6388   62.4902 H   0  0  0  0  0  0  0  0  0  0  0  0
  131.4376  126.8771   60.8386 H   0  0  0  0  0  0  0  0  0  0  0  0
  130.0633  126.9536   64.1667 H   0  0  0  0  0  0  0  0  0  0  0  0
  128.5502  127.8118   63.7189 H   0  0  0  0  0  0  0  0  0  0  0  0
  128.5980  126.0162   63.7189 H   0  0  0  0  0  0  0  0  0  0  0  0
  1  2  1  0
  2  3  1  0
  3  4  2  0
  3  5  1  0
  5  6  1  0
  6  7  1  0
  7  8  2  0
  7  9  1  0
  9 10  1  6
 10 11  1  0
 11 12  2  0
 11 13  1  0
 13 14  1  0
  9 15  1  0
 15 16  1  0
 15 17  1  0
 17 18  1  0
 18 19  1  0
 19 20  1  0
 20 21  1  0
 21 22  1  0
 22 23  2  0
 23 24  1  0
 24 25  2  0
 24 26  1  0
 26 27  2  0
 27 28  1  0
 28 29  1  1
 28 30  1  0
 30 31  1  6
 30 32  1  0
 32 33  1  0
 33 34  1  0
 34 35  2  0
 34 36  1  0
 36 37  1  0
 32 38  1  0
 38 39  1  0
 39 40  1  1
 39  9  1  0
 39 18  1  0
 30 19  1  0
 28 22  1  0
  1 41  1  0
  1 42  1  0
  1 43  1  0
  2 44  1  0
  2 45  1  0
  6 46  1  0
  6 47  1  0
 13 48  1  0
 13 49  1  0
 14 50  1  0
 14 51  1  0
 14 52  1  0
 15 53  1  6
 16 54  1  0
 16 55  1  0
 16 56  1  0
 17 57  1  0
 17 58  1  0
 18 59  1  6
 19 60  1  1
 20 61  1  0
 20 62  1  0
 21 63  1  0
 21 64  1  0
 23 65  1  0
 26 66  1  0
 27 67  1  0
 29 68  1  0
 29 69  1  0
 29 70  1  0
 32 71  1  1
 36 72  1  0
 36 73  1  0
 37 74  1  0
 37 75  1  0
 37 76  1  0
 38 77  1  0
 38 78  1  0
 40 79  1  0
 40 80  1  0
 40 81  1  0
M  END
>  <Binding energies>  (1) 
[-7.79]

>  <Ligand effiencies>  (1) 
[-0.19475]

>  <Interactions>  (1) 
["V-A:ILE:369:CG2:3237, V-B:ALA:541:CB:9864, V-B:ASP:366:CG:8184, H-A:ARG:545:NH1:4927, V-B:TYR:539:CE2:9848, V-B:LEU:475:CD2:9230, V-A:ASP:366:CG:3213, V-A:ALA:541:CB:4892, V-A:GLU:543:CD:4908, V-A:TYR:484:CZ:4347, H-B:TYR:484:OH:9319, V-A:ARG:545:CG:4922, H-A:GLY:454:N:4050, V-A:ILE:369:CD1:3239, V-A:HIS:456:CE1:4070, V-B:TYR:539:CD2:9846, V-A:SER:385:CB:3409, H-A:SER:385:OG:3410, V-B:GLU:543:CD:9880, V-A:ASP:366:CB:3212, V-A:ARG:545:CD:4923, V-A:LEU:475:CD2:4259, H-A:ARG:545:NH2:4928, V-A:ARG:545:CZ:4926, H-A:ARG:545:NE:4924, H-A:TYR:484:OH:4348"]

$$$$
ZINC108733563
     RDKit          3D

 40 42  0  0  0  0  0  0  0  0999 V2000
  132.0860  123.9010   63.8430 C   0  0  0  0  0  0  0  0  0  0  0  0
  130.9090  123.3140   64.6440 C   0  0  0  0  0  0  0  0  0  0  0  0
  129.8890  122.6230   63.7140 C   0  0  0  0  0  0  0  0  0  0  0  0
  130.2880  124.3750   65.5460 C   0  0  0  0  0  0  0  0  0  0  0  0
  130.1430  124.3440   66.9360 C   0  0  0  0  0  0  0  0  0  0  0  0
  129.5640  125.5450   67.2970 C   0  0  0  0  0  0  0  0  0  0  0  0
  129.2140  125.9880   68.5580 N   0  0  0  0  0  0  0  0  0  0  0  0
  129.8510  127.0040   69.1780 C   0  0  0  0  0  0  0  0  0  0  0  0
  130.7810  127.6470   68.6840 O   0  0  0  0  0  0  0  0  0  0  0  0
  129.3310  127.3460   70.5540 C   0  0  0  0  0  0  0  0  0  0  0  0
  130.1960  127.8590   71.5340 C   0  0  0  0  0  0  0  0  0  0  0  0
  129.7220  128.1670   72.8100 C   0  0  0  0  0  0  0  0  0  0  0  0
  128.3810  127.9620   73.1240 C   0  0  0  0  0  0  0  0  0  0  0  0
  127.9220  128.2600   74.3600 F   0  0  0  0  0  0  0  0  0  0  0  0
  127.5130  127.4460   72.1630 C   0  0  0  0  0  0  0  0  0  0  0  0
  127.9810  127.1350   70.8850 C   0  0  0  0  0  0  0  0  0  0  0  0
  127.1090  126.6200   69.9850 F   0  0  0  0  0  0  0  0  0  0  0  0
  129.3510  126.2250   66.1070 N   0  0  0  0  0  0  0  0  0  0  0  0
  128.7320  127.4820   65.8730 C   0  0  0  0  0  0  0  0  0  0  0  0
  128.4040  128.2330   66.9640 N   0  0  0  0  0  0  0  0  0  0  0  0
  127.8380  129.4430   66.7230 C   0  0  0  0  0  0  0  0  0  0  0  0
  127.5920  129.9130   65.4310 C   0  0  0  0  0  0  0  0  0  0  0  0
  127.9600  129.0740   64.3770 C   0  0  0  0  0  0  0  0  0  0  0  0
  128.5300  127.8590   64.5760 N   0  0  0  0  0  0  0  0  0  0  0  0
  129.8190  125.5070   65.0630 N   0  0  0  0  0  0  0  0  0  0  0  0
  132.8490  124.2815   64.5380 H   0  0  0  0  0  0  0  0  0  0  0  0
  132.5257  123.1167   63.2094 H   0  0  0  0  0  0  0  0  0  0  0  0
  131.7240  124.7241   63.2094 H   0  0  0  0  0  0  0  0  0  0  0  0
  131.2897  122.5252   65.3095 H   0  0  0  0  0  0  0  0  0  0  0  0
  129.1294  122.1084   64.3208 H   0  0  0  0  0  0  0  0  0  0  0  0
  129.4016  123.3777   63.0792 H   0  0  0  0  0  0  0  0  0  0  0  0
  130.4091  121.8905   63.0792 H   0  0  0  0  0  0  0  0  0  0  0  0
  130.4330  123.5243   67.6098 H   0  0  0  0  0  0  0  0  0  0  0  0
  128.5680  125.4220   69.0880 H   0  0  0  0  0  0  0  0  0  0  0  0
  131.2573  128.0196   71.2937 H   0  0  0  0  0  0  0  0  0  0  0  0
  130.4083  128.5720   73.5683 H   0  0  0  0  0  0  0  0  0  0  0  0
  126.4542  127.2831   72.4128 H   0  0  0  0  0  0  0  0  0  0  0  0
  127.5625  130.0778   67.5781 H   0  0  0  0  0  0  0  0  0  0  0  0
  127.1311  130.8957   65.2524 H   0  0  0  0  0  0  0  0  0  0  0  0
  127.7808  129.4113   63.3454 H   0  0  0  0  0  0  0  0  0  0  0  0
  1  2  1  0
  2  3  1  0
  2  4  1  0
  4  5  1  0
  5  6  2  0
  6  7  1  0
  7  8  1  0
  8  9  2  0
  8 10  1  0
 10 11  2  0
 11 12  1  0
 12 13  2  0
 13 14  1  0
 13 15  1  0
 15 16  2  0
 16 17  1  0
  6 18  1  0
 18 19  1  0
 19 20  2  0
 20 21  1  0
 21 22  2  0
 22 23  1  0
 23 24  2  0
 18 25  1  0
 25  4  2  0
 16 10  1  0
 24 19  1  0
  1 26  1  0
  1 27  1  0
  1 28  1  0
  2 29  1  0
  3 30  1  0
  3 31  1  0
  3 32  1  0
  5 33  1  0
  7 34  1  0
 11 35  1  0
 12 36  1  0
 15 37  1  0
 21 38  1  0
 22 39  1  0
 23 40  1  0
M  END
>  <Binding energies>  (1) 
[-5.98]

>  <Ligand effiencies>  (1) 
[-0.23]

>  <Interactions>  (1) 
["V-B:GLU:543:C:9874, V-B:HIS:456:CD2:9039, H-B:GLU:543:O:9875, V-B:GLU:543:CB:9878, V-B:ALA:541:CB:9864, V-A:TYR:484:CE2:4346, V-B:GLU:543:CG:9879, V-A:GLY:544:C:4912, V-A:TYR:484:CZ:4347, V-A:GLU:543:CD:4908, V-B:HIS:456:CE1:9041, V-B:GLU:543:CA:9876, V-A:HIS:456:CE1:4070, V-B:TYR:484:CZ:9318, V-B:GLY:544:C:9884, V-B:GLY:544:CA:9886, V-A:GLU:543:CG:4907, V-B:GLU:543:CD:9880, V-B:HIS:456:CG:9037, V-A:LEU:475:CD2:4259, V-A:GLU:543:CB:4906, H-A:HIS:456:NE2:4071"]

$$$$
ZINC1087866955
     RDKit          3D

 47 49  0  0  0  0  0  0  0  0999 V2000
  133.2140  125.0530   58.2220 C   0  0  0  0  0  0  0  0  0  0  0  0
  132.8480  124.0990   59.3730 C   0  0  2  0  0  0  0  0  0  0  0  0
  131.4320  124.2160   59.5710 O   0  0  0  0  0  0  0  0  0  0  0  0
  130.7200  123.2460   60.2620 C   0  0  0  0  0  0  0  0  0  0  0  0
  131.3000  122.1200   60.8730 C   0  0  0  0  0  0  0  0  0  0  0  0
  130.5090  121.1970   61.5570 C   0  0  0  0  0  0  0  0  0  0  0  0
  129.1300  121.3810   61.6350 C   0  0  0  0  0  0  0  0  0  0  0  0
  128.5420  122.4900   61.0270 C   0  0  0  0  0  0  0  0  0  0  0  0
  129.3320  123.4150   60.3450 C   0  0  0  0  0  0  0  0  0  0  0  0
  128.7430  124.4850   59.7630 F   0  0  0  0  0  0  0  0  0  0  0  0
  133.6070  124.4810   60.6620 C   0  0  0  0  0  0  0  0  0  0  0  0
  134.8320  124.3430   60.7190 O   0  0  0  0  0  0  0  0  0  0  0  0
  132.8520  124.9990   61.6530 N   0  0  0  0  0  0  0  0  0  0  0  0
  133.4510  125.3040   62.8770 N   0  0  0  0  0  0  0  0  0  0  0  0
  133.2920  124.4840   63.9440 C   0  0  0  0  0  0  0  0  0  0  0  0
  133.9720  124.6540   64.9540 O   0  0  0  0  0  0  0  0  0  0  0  0
  132.2690  123.4550   63.8870 C   0  0  0  0  0  0  0  0  0  0  0  0
  130.9670  123.5670   64.2440 C   0  0  0  0  0  0  0  0  0  0  0  0
  130.2260  124.6730   64.8600 C   0  0  0  0  0  0  0  0  0  0  0  0
  130.3140  124.8630   66.1900 C   0  0  0  0  0  0  0  0  0  0  0  0
  129.6410  125.9700   66.8670 C   0  0  0  0  0  0  0  0  0  0  0  0
  129.4750  126.0100   68.2540 C   0  0  0  0  0  0  0  0  0  0  0  0
  128.7890  127.0770   68.8390 C   0  0  0  0  0  0  0  0  0  0  0  0
  128.5900  127.1360   70.5530 Cl  0  0  0  0  0  0  0  0  0  0  0  0
  128.2630  128.0970   68.0410 C   0  0  0  0  0  0  0  0  0  0  0  0
  128.4150  128.0500   66.6540 C   0  0  0  0  0  0  0  0  0  0  0  0
  129.0930  126.9790   66.0730 C   0  0  0  0  0  0  0  0  0  0  0  0
  129.2510  126.9720   64.7000 O   0  0  0  0  0  0  0  0  0  0  0  0
  129.3530  125.6730   64.0750 C   0  0  0  0  0  0  0  0  0  0  0  0
  133.5790  126.0044   58.6363 H   0  0  0  0  0  0  0  0  0  0  0  0
  134.0008  124.5965   57.6035 H   0  0  0  0  0  0  0  0  0  0  0  0
  132.3237  125.2399   57.6035 H   0  0  0  0  0  0  0  0  0  0  0  0
  133.1290  123.0642   59.1275 H   0  0  0  0  0  0  0  0  0  0  0  0
  132.3874  121.9657   60.8109 H   0  0  0  0  0  0  0  0  0  0  0  0
  130.9744  120.3227   62.0355 H   0  0  0  0  0  0  0  0  0  0  0  0
  128.5065  120.6532   62.1749 H   0  0  0  0  0  0  0  0  0  0  0  0
  127.4532  122.6353   61.0855 H   0  0  0  0  0  0  0  0  0  0  0  0
  131.8440  124.9490   61.6950 H   0  0  0  0  0  0  0  0  0  0  0  0
  134.2710  125.8830   62.7620 H   0  0  0  0  0  0  0  0  0  0  0  0
  132.5879  122.4717   63.5108 H   0  0  0  0  0  0  0  0  0  0  0  0
  130.3601  122.6735   64.0358 H   0  0  0  0  0  0  0  0  0  0  0  0
  130.9133  124.1607   66.7880 H   0  0  0  0  0  0  0  0  0  0  0  0
  129.8828  125.2046   68.8825 H   0  0  0  0  0  0  0  0  0  0  0  0
  127.7284  128.9381   68.5066 H   0  0  0  0  0  0  0  0  0  0  0  0
  128.0029  128.8521   66.0241 H   0  0  0  0  0  0  0  0  0  0  0  0
  128.3410  125.2520   63.9823 H   0  0  0  0  0  0  0  0  0  0  0  0
  129.8366  125.8237   63.0985 H   0  0  0  0  0  0  0  0  0  0  0  0
  1  2  1  0
  2  3  1  0
  3  4  1  0
  4  5  2  0
  5  6  1  0
  6  7  2  0
  7  8  1  0
  8  9  2  0
  9 10  1  0
  2 11  1  0
 11 12  2  0
 11 13  1  0
 13 14  1  0
 14 15  1  0
 15 16  2  0
 15 17  1  0
 17 18  2  0
 18 19  1  0
 19 20  2  0
 20 21  1  0
 21 22  2  0
 22 23  1  0
 23 24  1  0
 23 25  2  0
 25 26  1  0
 26 27  2  0
 27 28  1  0
 28 29  1  0
  9  4  1  0
 29 19  1  0
 27 21  1  0
  1 30  1  0
  1 31  1  0
  1 32  1  0
  2 33  1  6
  5 34  1  0
  6 35  1  0
  7 36  1  0
  8 37  1  0
 13 38  1  0
 14 39  1  0
 17 40  1  0
 18 41  1  0
 20 42  1  0
 22 43  1  0
 25 44  1  0
 26 45  1  0
 29 46  1  0
 29 47  1  0
M  END
>  <Binding energies>  (1) 
[-7.33]

>  <Ligand effiencies>  (1) 
[-0.2364516129032258]

>  <Interactions>  (1) 
["V-A:ILE:369:CG2:3237, V-A:ASP:366:CA:3210, V-B:PRO:540:CA:9855, V-A:GLY:454:CA:4049, V-B:GLU:543:C:9874, V-B:GLU:543:CB:9878, V-B:ALA:541:CB:9864, V-B:TYR:539:CE2:9848, V-A:TYR:484:CE2:4346, V-B:GLU:543:CG:9879, V-A:ASP:366:CG:3213, V-B:TYR:539:CZ:9849, V-A:TYR:484:CZ:4347, V-A:GLU:543:CD:4908, V-B:GLU:543:CA:9876, H-A:GLY:454:N:4050, V-B:HIS:456:CE1:9041, V-A:HIS:456:CE1:4070, V-A:ASP:366:C:3208, V-B:TYR:539:CD2:9846, V-A:GLU:543:CG:4907, V-B:GLU:543:CD:9880, V-A:ASP:366:CB:3212, V-A:LEU:475:CD2:4259, H-A:ARG:545:NH2:4928, V-A:ARG:545:CZ:4926, V-A:GLU:543:CB:4906, H-A:ASP:366:OD1:3214, H-A:ARG:545:NE:4924, V-B:PRO:540:C:9853, H-A:ASP:366:OD2:3215, H-A:TYR:484:OH:4348"]

$$$$
ZINC1088685774
     RDKit          3D

 29 30  0  0  0  0  0  0  0  0999 V2000
  128.4330  130.2800   62.6070 C   0  0  0  0  0  0  0  0  0  0  0  0
  127.5530  129.4920   63.4630 N   0  0  0  0  0  0  0  0  0  0  0  0
  126.4910  128.8560   62.6870 C   0  0  0  0  0  0  0  0  0  0  0  0
  127.7720  129.4070   64.8320 C   0  0  0  0  0  0  0  0  0  0  0  0
  128.3570  128.4720   65.6210 C   0  0  0  0  0  0  0  0  0  0  0  0
  129.1000  126.9290   65.2040 S   0  0  0  0  0  0  0  0  0  0  0  0
  129.4790  126.5770   66.8620 C   0  0  0  0  0  0  0  0  0  0  0  0
  130.2550  125.1470   67.2450 S   0  0  0  0  0  0  0  0  0  0  0  0
  129.0500  127.6090   67.6540 N   0  0  0  0  0  0  0  0  0  0  0  0
  129.2200  127.5950   69.0600 C   0  0  0  0  0  0  0  0  0  0  0  0
  130.4080  128.0840   69.6200 C   0  0  0  0  0  0  0  0  0  0  0  0
  130.5820  128.0790   71.0040 C   0  0  0  0  0  0  0  0  0  0  0  0
  129.5730  127.5920   71.8340 C   0  0  0  0  0  0  0  0  0  0  0  0
  129.7920  127.5880   73.5470 Cl  0  0  0  0  0  0  0  0  0  0  0  0
  128.3870  127.1080   71.2820 C   0  0  0  0  0  0  0  0  0  0  0  0
  128.2050  127.1090   69.8980 C   0  0  0  0  0  0  0  0  0  0  0  0
  127.0460  126.6370   69.3790 F   0  0  0  0  0  0  0  0  0  0  0  0
  128.4360  128.6670   67.0560 C   0  0  0  0  0  0  0  0  0  0  0  0
  128.0070  129.6560   67.6630 O   0  0  0  0  0  0  0  0  0  0  0  0
  129.1075  130.8840   63.2316 H   0  0  0  0  0  0  0  0  0  0  0  0
  129.0267  129.6060   61.9720 H   0  0  0  0  0  0  0  0  0  0  0  0
  127.8284  130.9442   61.9720 H   0  0  0  0  0  0  0  0  0  0  0  0
  125.7519  128.4134   63.3710 H   0  0  0  0  0  0  0  0  0  0  0  0
  125.9993  129.6084   62.0529 H   0  0  0  0  0  0  0  0  0  0  0  0
  126.9222  128.0674   62.0529 H   0  0  0  0  0  0  0  0  0  0  0  0
  127.3935  130.2759   65.3904 H   0  0  0  0  0  0  0  0  0  0  0  0
  131.2040  128.4721   68.9675 H   0  0  0  0  0  0  0  0  0  0  0  0
  131.5167  128.4599   71.4413 H   0  0  0  0  0  0  0  0  0  0  0  0
  127.5927  126.7244   71.9393 H   0  0  0  0  0  0  0  0  0  0  0  0
  1  2  1  0
  2  3  1  0
  2  4  1  0
  4  5  2  0
  5  6  1  0
  6  7  1  0
  7  8  2  0
  7  9  1  0
  9 10  1  0
 10 11  2  0
 11 12  1  0
 12 13  2  0
 13 14  1  0
 13 15  1  0
 15 16  2  0
 16 17  1  0
  9 18  1  0
 18 19  2  0
 18  5  1  0
 16 10  1  0
  1 20  1  0
  1 21  1  0
  1 22  1  0
  3 23  1  0
  3 24  1  0
  3 25  1  0
  4 26  1  0
 11 27  1  0
 12 28  1  0
 15 29  1  0
M  END
>  <Binding energies>  (1) 
[-5.76]

>  <Ligand effiencies>  (1) 
[-0.30315789473684207]

>  <Interactions>  (1) 
["V-A:HIS:456:CE1:4070, V-B:GLU:543:C:9874, V-B:GLY:544:C:9884, V-A:GLU:543:C:4902, V-B:GLU:543:CB:9878, V-A:GLU:543:CG:4907, V-B:GLU:543:CD:9880, V-A:GLU:543:CD:4908, V-A:TYR:484:CZ:4347, V-A:TYR:484:CE2:4346, H-B:TYR:484:OH:9319, V-B:GLU:543:CG:9879, V-A:GLY:544:C:4912, V-B:HIS:456:CE1:9041, V-B:GLU:543:CA:9876, V-A:GLU:543:CB:4906"]

$$$$
ZINC1088727029
     RDKit          3D

 35 36  0  0  0  0  0  0  0  0999 V2000
  129.6100  131.1670   73.2790 C   0  0  0  0  0  0  0  0  0  0  0  0
  129.1080  129.7330   73.4740 C   0  0  0  0  0  0  0  0  0  0  0  0
  130.2180  128.8480   73.3970 O   0  0  0  0  0  0  0  0  0  0  0  0
  130.5970  128.4950   72.1450 C   0  0  0  0  0  0  0  0  0  0  0  0
  129.7500  128.0030   71.2220 C   0  0  0  0  0  0  0  0  0  0  0  0
  128.0270  127.7070   71.3990 S   0  0  0  0  0  0  0  0  0  0  0  0
  127.9090  127.1140   69.7660 C   0  0  0  0  0  0  0  0  0  0  0  0
  126.4300  126.5970   69.1850 S   0  0  0  0  0  0  0  0  0  0  0  0
  129.1430  127.1650   69.1690 N   0  0  0  0  0  0  0  0  0  0  0  0
  129.3480  126.7350   67.8340 C   0  0  0  0  0  0  0  0  0  0  0  0
  130.0210  125.5260   67.6040 C   0  0  0  0  0  0  0  0  0  0  0  0
  130.2260  125.0770   66.3020 C   0  0  0  0  0  0  0  0  0  0  0  0
  129.7590  125.8270   65.2250 C   0  0  0  0  0  0  0  0  0  0  0  0
  129.0860  127.0270   65.4470 C   0  0  0  0  0  0  0  0  0  0  0  0
  128.8670  127.5000   66.7540 C   0  0  0  0  0  0  0  0  0  0  0  0
  128.2060  128.6800   67.0460 O   0  0  0  0  0  0  0  0  0  0  0  0
  127.2500  129.1980   66.1280 C   0  0  0  0  0  0  0  0  0  0  0  0
  127.9930  129.9900   65.0480 C   0  0  0  0  0  0  0  0  0  0  0  0
  130.1920  127.6360   69.8970 C   0  0  0  0  0  0  0  0  0  0  0  0
  131.3520  127.7340   69.4820 O   0  0  0  0  0  0  0  0  0  0  0  0
  129.7738  131.6349   74.2610 H   0  0  0  0  0  0  0  0  0  0  0  0
  130.5561  131.1512   72.7180 H   0  0  0  0  0  0  0  0  0  0  0  0
  128.8607  131.7447   72.7180 H   0  0  0  0  0  0  0  0  0  0  0  0
  128.6275  129.6396   74.4591 H   0  0  0  0  0  0  0  0  0  0  0  0
  128.3740  129.4831   72.6937 H   0  0  0  0  0  0  0  0  0  0  0  0
  131.6545  128.6172   71.8678 H   0  0  0  0  0  0  0  0  0  0  0  0
  130.3875  124.9315   68.4538 H   0  0  0  0  0  0  0  0  0  0  0  0
  130.7567  124.1301   66.1239 H   0  0  0  0  0  0  0  0  0  0  0  0
  129.9218  125.4712   64.1969 H   0  0  0  0  0  0  0  0  0  0  0  0
  128.7214  127.6118   64.5896 H   0  0  0  0  0  0  0  0  0  0  0  0
  126.6941  128.3698   65.6644 H   0  0  0  0  0  0  0  0  0  0  0  0
  126.5390  129.8526   66.6534 H   0  0  0  0  0  0  0  0  0  0  0  0
  128.6712  130.7130   65.5248 H   0  0  0  0  0  0  0  0  0  0  0  0
  128.5757  129.2984   64.4218 H   0  0  0  0  0  0  0  0  0  0  0  0
  127.2657  130.5274   64.4218 H   0  0  0  0  0  0  0  0  0  0  0  0
  1  2  1  0
  2  3  1  0
  3  4  1  0
  4  5  2  0
  5  6  1  0
  6  7  1  0
  7  8  2  0
  7  9  1  0
  9 10  1  0
 10 11  2  0
 11 12  1  0
 12 13  2  0
 13 14  1  0
 14 15  2  0
 15 16  1  0
 16 17  1  0
 17 18  1  0
  9 19  1  0
 19 20  2  0
 19  5  1  0
 15 10  1  0
  1 21  1  0
  1 22  1  0
  1 23  1  0
  2 24  1  0
  2 25  1  0
  4 26  1  0
 11 27  1  0
 12 28  1  0
 13 29  1  0
 14 30  1  0
 17 31  1  0
 17 32  1  0
 18 33  1  0
 18 34  1  0
 18 35  1  0
M  END
>  <Binding energies>  (1) 
[-5.36]

>  <Ligand effiencies>  (1) 
[-0.268]

>  <Interactions>  (1) 
["V-B:GLU:543:C:9874, V-B:HIS:456:CD2:9039, V-A:GLU:543:C:4902, V-B:GLU:543:CB:9878, V-A:TYR:484:CE2:4346, V-A:GLY:544:CA:4914, V-B:GLU:543:CG:9879, V-A:GLY:544:C:4912, H-A:ARG:545:N:4920, V-B:ARG:545:CG:9894, V-A:GLU:543:CD:4908, V-B:HIS:456:CE1:9041, V-B:GLU:543:CA:9876, V-A:HIS:456:CE1:4070, V-B:TYR:484:CZ:9318, V-B:GLY:544:C:9884, V-B:GLY:544:CA:9886, V-A:GLU:543:CG:4907, V-B:GLU:543:CD:9880, H-A:LYS:547:NZ:4951, V-A:GLU:543:CB:4906, V-B:ARG:545:CA:9891, V-A:LYS:547:CE:4950"]

$$$$
ZINC108985779
     RDKit          3D

 61 64  0  0  0  0  0  0  0  0999 V2000
  127.5990  134.0450   74.3680 C   0  0  0  0  0  0  0  0  0  0  0  0
  128.1410  132.6390   74.1630 C   0  0  0  0  0  0  0  0  0  0  0  0
  127.5060  131.5590   74.7790 C   0  0  0  0  0  0  0  0  0  0  0  0
  127.9880  130.2630   74.6070 C   0  0  0  0  0  0  0  0  0  0  0  0
  129.1270  130.0030   73.8260 C   0  0  0  0  0  0  0  0  0  0  0  0
  129.6590  128.7560   73.5980 N   0  0  0  0  0  0  0  0  0  0  0  0
  128.8370  127.4780   73.1770 S   0  0  0  0  0  0  0  0  0  0  0  0
  129.4110  126.1840   73.5640 O   0  0  0  0  0  0  0  0  0  0  0  0
  127.3920  127.6550   73.3650 O   0  0  0  0  0  0  0  0  0  0  0  0
  129.0710  127.4860   71.3850 C   0  0  0  0  0  0  0  0  0  0  0  0
  128.0350  127.0170   70.5740 C   0  0  0  0  0  0  0  0  0  0  0  0
  128.1890  126.9780   69.1910 C   0  0  0  0  0  0  0  0  0  0  0  0
  129.3810  127.4040   68.6000 C   0  0  0  0  0  0  0  0  0  0  0  0
  129.4310  127.3160   67.1960 N   0  0  0  0  0  0  0  0  0  0  0  0
  129.4800  126.2280   66.3970 C   0  0  0  0  0  0  0  0  0  0  0  0
  129.5110  125.0620   66.7930 O   0  0  0  0  0  0  0  0  0  0  0  0
  129.4880  126.5440   64.8870 C   0  0  0  0  0  0  0  0  0  0  0  0
  130.0060  125.4860   64.0320 N   0  0  0  0  0  0  0  0  0  0  0  0
  129.1380  124.7520   63.1900 C   0  0  0  0  0  0  0  0  0  0  0  0
  128.8160  123.4300   63.5170 C   0  0  0  0  0  0  0  0  0  0  0  0
  127.9710  122.6870   62.6980 C   0  0  0  0  0  0  0  0  0  0  0  0
  127.4460  123.2640   61.5450 C   0  0  0  0  0  0  0  0  0  0  0  0
  127.7610  124.5750   61.2020 C   0  0  0  0  0  0  0  0  0  0  0  0
  128.6080  125.3170   62.0200 C   0  0  0  0  0  0  0  0  0  0  0  0
  131.5300  124.7050   64.5620 S   0  0  0  0  0  0  0  0  0  0  0  0
  132.2730  125.6370   65.4180 O   0  0  0  0  0  0  0  0  0  0  0  0
  131.1900  123.3550   65.0280 O   0  0  0  0  0  0  0  0  0  0  0  0
  132.4670  124.5180   63.0460 C   0  0  0  0  0  0  0  0  0  0  0  0
  132.1110  125.2410   61.9050 C   0  0  0  0  0  0  0  0  0  0  0  0
  132.8610  125.1060   60.7390 C   0  0  0  0  0  0  0  0  0  0  0  0
  133.9650  124.2550   60.7210 C   0  0  0  0  0  0  0  0  0  0  0  0
  134.6920  124.1250   59.5890 F   0  0  0  0  0  0  0  0  0  0  0  0
  134.3260  123.5390   61.8610 C   0  0  0  0  0  0  0  0  0  0  0  0
  133.5780  123.6720   63.0280 C   0  0  0  0  0  0  0  0  0  0  0  0
  130.4300  127.8600   69.4150 C   0  0  0  0  0  0  0  0  0  0  0  0
  130.2750  127.8930   70.7990 C   0  0  0  0  0  0  0  0  0  0  0  0
  129.7370  131.0960   73.1980 C   0  0  0  0  0  0  0  0  0  0  0  0
  129.2650  132.3990   73.3620 C   0  0  0  0  0  0  0  0  0  0  0  0
  130.0910  133.6920   72.5600 Cl  0  0  0  0  0  0  0  0  0  0  0  0
  127.5186  134.2536   75.4451 H   0  0  0  0  0  0  0  0  0  0  0  0
  128.2812  134.7723   73.9036 H   0  0  0  0  0  0  0  0  0  0  0  0
  126.6051  134.1262   73.9036 H   0  0  0  0  0  0  0  0  0  0  0  0
  126.6183  131.7325   75.4050 H   0  0  0  0  0  0  0  0  0  0  0  0
  127.4659  129.4256   75.0929 H   0  0  0  0  0  0  0  0  0  0  0  0
  127.0935  126.6770   71.0300 H   0  0  0  0  0  0  0  0  0  0  0  0
  127.3671  126.6095   68.5597 H   0  0  0  0  0  0  0  0  0  0  0  0
  129.4500  128.2100   66.7290 H   0  0  0  0  0  0  0  0  0  0  0  0
  128.4533  126.7541   64.5784 H   0  0  0  0  0  0  0  0  0  0  0  0
  130.1687  127.3986   64.7591 H   0  0  0  0  0  0  0  0  0  0  0  0
  129.2335  122.9751   64.4274 H   0  0  0  0  0  0  0  0  0  0  0  0
  127.7192  121.6489   62.9604 H   0  0  0  0  0  0  0  0  0  0  0  0
  126.7758  122.6779   60.8990 H   0  0  0  0  0  0  0  0  0  0  0  0
  127.3426  125.0230   60.2886 H   0  0  0  0  0  0  0  0  0  0  0  0
  128.8633  126.3518   61.7479 H   0  0  0  0  0  0  0  0  0  0  0  0
  131.2416  125.9145   61.9272 H   0  0  0  0  0  0  0  0  0  0  0  0
  132.5831  125.6689   59.8357 H   0  0  0  0  0  0  0  0  0  0  0  0
  135.1994  122.8707   61.8389 H   0  0  0  0  0  0  0  0  0  0  0  0
  133.8611  123.1129   63.9321 H   0  0  0  0  0  0  0  0  0  0  0  0
  131.3750  128.1915   68.9600 H   0  0  0  0  0  0  0  0  0  0  0  0
  131.1029  128.2406   71.4343 H   0  0  0  0  0  0  0  0  0  0  0  0
  130.6137  130.9224   72.5568 H   0  0  0  0  0  0  0  0  0  0  0  0
  1  2  1  0
  2  3  2  0
  3  4  1  0
  4  5  2  0
  5  6  1  0
  6  7  1  0
  7  8  2  0
  7  9  2  0
  7 10  1  0
 10 11  2  0
 11 12  1  0
 12 13  2  0
 13 14  1  0
 14 15  1  0
 15 16  2  0
 15 17  1  0
 17 18  1  0
 18 19  1  0
 19 20  2  0
 20 21  1  0
 21 22  2  0
 22 23  1  0
 23 24  2  0
 18 25  1  0
 25 26  2  0
 25 27  2  0
 25 28  1  0
 28 29  2  0
 29 30  1  0
 30 31  2  0
 31 32  1  0
 31 33  1  0
 33 34  2  0
 13 35  1  0
 35 36  2  0
  5 37  1  0
 37 38  2  0
 38 39  1  0
 38  2  1  0
 36 10  1  0
 24 19  1  0
 34 28  1  0
  1 40  1  0
  1 41  1  0
  1 42  1  0
  3 43  1  0
  4 44  1  0
 11 45  1  0
 12 46  1  0
 14 47  1  0
 17 48  1  0
 17 49  1  0
 20 50  1  0
 21 51  1  0
 22 52  1  0
 23 53  1  0
 24 54  1  0
 29 55  1  0
 30 56  1  0
 33 57  1  0
 34 58  1  0
 35 59  1  0
 36 60  1  0
 37 61  1  0
M  CHG  1   6  -1
M  END
>  <Binding energies>  (1) 
[-10.85]

>  <Ligand effiencies>  (1) 
[-0.27125]

>  <Interactions>  (1) 
["V-A:ILE:369:CG2:3237, V-A:ASP:366:CA:3210, V-B:PRO:540:CA:9855, V-A:GLY:454:CA:4049, V-B:GLU:543:C:9874, H-A:GLU:543:OE2:4910, V-A:GLU:543:C:4902, V-B:HIS:456:CD2:9039, V-A:ILE:369:CB:3236, V-B:GLU:543:CB:9878, H-B:LYS:547:NZ:9923, V-B:TYR:484:C:9308, V-B:ALA:541:CB:9864, V-A:GLY:544:CA:4914, V-A:GLY:544:C:4912, V-B:GLU:543:CG:9879, V-A:ASP:366:CG:3213, V-A:GLU:543:CD:4908, V-B:TYR:484:CB:9312, V-B:HIS:456:CE1:9041, V-A:HIS:456:CE1:4070, V-A:ILE:369:CD1:3239, V-A:ASP:366:C:3208, V-A:GLU:543:CG:4907, V-B:GLU:543:CD:9880, V-A:ILE:369:CG1:3238, V-A:ASP:366:CB:3212, H-A:LYS:547:NZ:4951, H-A:ARG:545:NH2:4928, H-A:GLU:543:OE1:4909, V-A:GLU:543:CB:4906, V-A:LYS:547:CE:4950, V-B:ASP:473:CB:9210, H-A:ARG:545:NE:4924, V-B:ASP:473:CG:9211, V-B:ALA:541:CA:9862, H-A:TYR:484:OH:4348"]

$$$$
ZINC108999366
     RDKit          3D

 30 31  0  0  0  0  0  0  0  0999 V2000
  130.8890  126.9230   74.5380 C   0  0  0  0  0  0  0  0  0  0  0  0
  129.4490  127.4120   74.2730 C   0  0  1  0  0  0  0  0  0  0  0  0
  129.4830  128.8440   74.3930 O   0  0  0  0  0  0  0  0  0  0  0  0
  128.3390  129.5790   74.6590 C   0  0  0  0  0  0  0  0  0  0  0  0
  127.1740  129.0360   75.2300 C   0  0  0  0  0  0  0  0  0  0  0  0
  126.0590  129.8360   75.4700 C   0  0  0  0  0  0  0  0  0  0  0  0
  126.0910  131.1890   75.1470 C   0  0  0  0  0  0  0  0  0  0  0  0
  127.2360  131.7490   74.5830 C   0  0  0  0  0  0  0  0  0  0  0  0
  127.2320  133.4360   74.1980 Cl  0  0  0  0  0  0  0  0  0  0  0  0
  128.3600  130.9450   74.3380 C   0  0  0  0  0  0  0  0  0  0  0  0
  129.7880  131.6310   73.6330 Cl  0  0  0  0  0  0  0  0  0  0  0  0
  128.9390  126.9180   72.8880 C   0  0  0  0  0  0  0  0  0  0  0  0
  128.4150  125.7870   72.8920 O   0  0  0  0  0  0  0  0  0  0  0  0
  129.1480  127.7550   71.9300 N   0  0  0  0  0  0  0  0  0  0  0  0
  128.7510  127.5690   70.6350 C   0  0  0  0  0  0  0  0  0  0  0  0
  127.6530  127.0070   70.1770 N   0  0  0  0  0  0  0  0  0  0  0  0
  127.5720  127.0260   68.7910 N   0  0  0  0  0  0  0  0  0  0  0  0
  128.5950  127.6170   68.2180 C   0  0  0  0  0  0  0  0  0  0  0  0
  128.7310  127.7660   66.7200 C   0  0  0  0  0  0  0  0  0  0  0  0
  128.7450  126.5830   66.1050 F   0  0  0  0  0  0  0  0  0  0  0  0
  127.7420  128.4940   66.2030 F   0  0  0  0  0  0  0  0  0  0  0  0
  129.7610  128.2050   69.3720 S   0  0  0  0  0  0  0  0  0  0  0  0
  131.0625  126.8641   75.6226 H   0  0  0  0  0  0  0  0  0  0  0  0
  131.0265  125.9278   74.0901 H   0  0  0  0  0  0  0  0  0  0  0  0
  131.6041  127.6287   74.0901 H   0  0  0  0  0  0  0  0  0  0  0  0
  128.7315  126.9989   74.9972 H   0  0  0  0  0  0  0  0  0  0  0  0
  127.1429  127.9676   75.4900 H   0  0  0  0  0  0  0  0  0  0  0  0
  125.1533  129.3980   75.9149 H   0  0  0  0  0  0  0  0  0  0  0  0
  125.2096  131.8189   75.3374 H   0  0  0  0  0  0  0  0  0  0  0  0
  129.6900  128.2788   66.5545 H   0  0  0  0  0  0  0  0  0  0  0  0
  1  2  1  0
  2  3  1  0
  3  4  1  0
  4  5  2  0
  5  6  1  0
  6  7  2  0
  7  8  1  0
  8  9  1  0
  8 10  2  0
 10 11  1  0
  2 12  1  0
 12 13  1  0
 12 14  2  0
 14 15  1  0
 15 16  2  0
 16 17  1  0
 17 18  2  0
 18 19  1  0
 19 20  1  0
 19 21  1  0
 18 22  1  0
 10  4  1  0
 22 15  1  0
  1 23  1  0
  1 24  1  0
  1 25  1  0
  2 26  1  1
  5 27  1  0
  6 28  1  0
  7 29  1  0
 19 30  1  0
M  CHG  1  13  -1
M  END
>  <Binding energies>  (1) 
[-5.93]

>  <Ligand effiencies>  (1) 
[-0.26954545454545453]

>  <Interactions>  (1) 
["V-B:HIS:456:CD2:9039, V-A:GLU:543:C:4902, V-B:GLU:543:CB:9878, H-B:LYS:547:NZ:9923, V-B:HIS:456:CB:9036, V-A:GLY:544:CA:4914, V-B:GLU:543:CG:9879, V-A:HIS:456:CD2:4068, V-B:TYR:484:CB:9312, V-A:GLU:543:CD:4908, V-B:HIS:456:CE1:9041, V-A:GLU:543:CG:4907, V-B:GLU:543:CD:9880, V-B:HIS:456:CG:9037, H-A:LYS:547:NZ:4951, V-A:GLU:543:CB:4906, V-A:LYS:547:CE:4950, V-B:ASP:473:CB:9210, V-B:ASP:473:CG:9211"]

$$$$
ZINC110002844
     RDKit          3D

 61 63  0  0  0  0  0  0  0  0999 V2000
  134.3740  124.3140   59.9250 C   0  0  0  0  0  0  0  0  0  0  0  0
  133.4780  124.0850   61.1350 C   0  0  0  0  0  0  0  0  0  0  0  0
  132.1850  123.6020   60.9440 C   0  0  0  0  0  0  0  0  0  0  0  0
  131.3440  123.3910   62.0320 C   0  0  0  0  0  0  0  0  0  0  0  0
  131.7640  123.6660   63.3430 C   0  0  0  0  0  0  0  0  0  0  0  0
  130.7710  123.4100   64.4470 C   0  0  0  0  0  0  0  0  0  0  0  0
  130.2300  122.3150   64.6300 O   0  0  0  0  0  0  0  0  0  0  0  0
  130.4400  124.5280   65.1550 O   0  0  0  0  0  0  0  0  0  0  0  0
  130.5850  125.8520   64.6290 C   0  0  0  0  0  0  0  0  0  0  0  0
  129.5400  126.1030   63.5280 C   0  0  0  0  0  0  0  0  0  0  0  0
  128.7310  125.2230   63.2200 O   0  0  0  0  0  0  0  0  0  0  0  0
  129.6140  127.3050   62.9250 N   0  0  0  0  0  0  0  0  0  0  0  0
  128.7220  127.7920   61.9600 C   0  0  0  0  0  0  0  0  0  0  0  0
  127.3380  127.6930   62.1580 C   0  0  0  0  0  0  0  0  0  0  0  0
  126.4540  128.1670   61.1900 C   0  0  0  0  0  0  0  0  0  0  0  0
  126.9440  128.7390   60.0190 C   0  0  0  0  0  0  0  0  0  0  0  0
  128.3200  128.8310   59.8090 C   0  0  0  0  0  0  0  0  0  0  0  0
  129.2190  128.3520   60.7680 C   0  0  0  0  0  0  0  0  0  0  0  0
  130.9880  128.4980   60.4560 S   0  0  0  0  0  0  0  0  0  0  0  0
  131.7000  128.0120   61.6450 O   0  0  0  0  0  0  0  0  0  0  0  0
  131.2230  127.8710   59.1510 O   0  0  0  0  0  0  0  0  0  0  0  0
  131.3020  130.2390   60.3040 N   0  0  0  0  0  0  0  0  0  0  0  0
  131.1050  131.0610   61.5250 C   0  0  0  0  0  0  0  0  0  0  0  0
  131.0420  130.8440   58.9650 C   0  0  0  0  0  0  0  0  0  0  0  0
  130.2640  132.1730   59.0970 C   0  0  0  0  0  0  0  0  0  0  0  0
  129.9190  132.6940   57.6860 C   0  0  0  0  0  0  0  0  0  0  0  0
  131.1870  132.8460   56.8080 C   0  0  0  0  0  0  0  0  0  0  0  0
  132.0790  131.5790   56.7980 C   0  0  0  0  0  0  0  0  0  0  0  0
  132.3780  131.0840   58.2290 C   0  0  0  0  0  0  0  0  0  0  0  0
  133.0840  124.1390   63.5380 C   0  0  0  0  0  0  0  0  0  0  0  0
  133.5870  124.3810   64.7970 O   0  0  0  0  0  0  0  0  0  0  0  0
  133.9300  124.3520   62.4340 C   0  0  0  0  0  0  0  0  0  0  0  0
  135.2120  124.8170   62.6180 O   0  0  0  0  0  0  0  0  0  0  0  0
  135.3880  124.5732   60.2635 H   0  0  0  0  0  0  0  0  0  0  0  0
  134.4130  123.3969   59.3188 H   0  0  0  0  0  0  0  0  0  0  0  0
  133.9682  125.1373   59.3188 H   0  0  0  0  0  0  0  0  0  0  0  0
  131.8270  123.3862   59.9265 H   0  0  0  0  0  0  0  0  0  0  0  0
  130.3297  123.0009   61.8616 H   0  0  0  0  0  0  0  0  0  0  0  0
  130.4423  126.5825   65.4389 H   0  0  0  0  0  0  0  0  0  0  0  0
  131.5920  125.9597   64.1997 H   0  0  0  0  0  0  0  0  0  0  0  0
  130.2460  127.9850   63.3210 H   0  0  0  0  0  0  0  0  0  0  0  0
  126.9478  127.2394   63.0810 H   0  0  0  0  0  0  0  0  0  0  0  0
  125.3687  128.0891   61.3514 H   0  0  0  0  0  0  0  0  0  0  0  0
  126.2455  129.1187   59.2588 H   0  0  0  0  0  0  0  0  0  0  0  0
  128.7013  129.2838   58.8819 H   0  0  0  0  0  0  0  0  0  0  0  0
  131.2551  130.4347   62.4168 H   0  0  0  0  0  0  0  0  0  0  0  0
  131.8304  131.8879   61.5313 H   0  0  0  0  0  0  0  0  0  0  0  0
  130.0836  131.4692   61.5313 H   0  0  0  0  0  0  0  0  0  0  0  0
  130.4256  130.1429   58.3832 H   0  0  0  0  0  0  0  0  0  0  0  0
  129.3371  132.0032   59.6645 H   0  0  0  0  0  0  0  0  0  0  0  0
  130.8804  132.9141   59.6269 H   0  0  0  0  0  0  0  0  0  0  0  0
  129.2323  131.9843   57.2015 H   0  0  0  0  0  0  0  0  0  0  0  0
  129.4517  133.6844   57.7897 H   0  0  0  0  0  0  0  0  0  0  0  0
  130.8736  133.0609   55.7757 H   0  0  0  0  0  0  0  0  0  0  0  0
  131.7853  133.6632   57.2372 H   0  0  0  0  0  0  0  0  0  0  0  0
  131.5605  130.7816   56.2454 H   0  0  0  0  0  0  0  0  0  0  0  0
  133.0340  131.8341   56.3154 H   0  0  0  0  0  0  0  0  0  0  0  0
  132.9481  130.1444   58.1830 H   0  0  0  0  0  0  0  0  0  0  0  0
  132.9700  131.8383   58.7680 H   0  0  0  0  0  0  0  0  0  0  0  0
  132.9220  124.3560   65.4880 H   0  0  0  0  0  0  0  0  0  0  0  0
  135.3930  125.6430   62.1640 H   0  0  0  0  0  0  0  0  0  0  0  0
  1  2  1  0
  2  3  2  0
  3  4  1  0
  4  5  2  0
  5  6  1  0
  6  7  2  0
  6  8  1  0
  8  9  1  0
  9 10  1  0
 10 11  2  0
 10 12  1  0
 12 13  1  0
 13 14  2  0
 14 15  1  0
 15 16  2  0
 16 17  1  0
 17 18  2  0
 18 19  1  0
 19 20  2  0
 19 21  2  0
 19 22  1  0
 22 23  1  0
 22 24  1  0
 24 25  1  0
 25 26  1  0
 26 27  1  0
 27 28  1  0
 28 29  1  0
  5 30  1  0
 30 31  1  0
 30 32  2  0
 32 33  1  0
 32  2  1  0
 18 13  1  0
 29 24  1  0
  1 34  1  0
  1 35  1  0
  1 36  1  0
  3 37  1  0
  4 38  1  0
  9 39  1  0
  9 40  1  0
 12 41  1  0
 14 42  1  0
 15 43  1  0
 16 44  1  0
 17 45  1  0
 23 46  1  0
 23 47  1  0
 23 48  1  0
 24 49  1  0
 25 50  1  0
 25 51  1  0
 26 52  1  0
 26 53  1  0
 27 54  1  0
 27 55  1  0
 28 56  1  0
 28 57  1  0
 29 58  1  0
 29 59  1  0
 31 60  1  0
 33 61  1  0
M  END
>  <Binding energies>  (1) 
[-7.03]

>  <Ligand effiencies>  (1) 
[-0.19527777777777777]

>  <Interactions>  (1) 
["V-A:ILE:369:CG2:3237, V-A:ASP:366:CA:3210, H-A:GLU:543:OE2:4910, V-A:ILE:369:CB:3236, V-A:ILE:538:CB:4862, V-B:ASP:366:CG:8184, H-A:ARG:545:NH1:4927, V-A:TYR:484:CE2:4346, V-A:ASP:366:CG:3213, V-A:LEU:363:CD1:3189, V-A:TYR:531:CE2:4793, V-A:GLU:543:CD:4908, H-A:GLY:454:N:4050, V-A:ILE:369:CD1:3239, V-B:GLU:543:CD:9880, V-A:TYR:539:C:4867, V-A:ASP:366:CB:3212, H-A:ARG:545:NH2:4928, H-A:GLU:543:OE1:4909, H-A:ASP:366:OD1:3214, V-A:PRO:540:N:4884, V-A:PRO:540:CB:4885, V-A:PRO:540:CA:4883, V-A:PRO:540:CD:4887, H-A:TYR:484:OH:4348"]

$$$$
ZINC11113095
     RDKit          3D

 45 47  0  0  0  0  0  0  0  0999 V2000
  129.1870  126.2030   61.5830 O   0  0  0  0  0  0  0  0  0  0  0  0
  129.1690  124.9900   61.3700 C   0  0  0  0  0  0  0  0  0  0  0  0
  128.4040  124.4130   60.2230 C   0  0  0  0  0  0  0  0  0  0  0  0
  128.7300  123.1250   59.7780 C   0  0  0  0  0  0  0  0  0  0  0  0
  128.0290  122.5400   58.7250 C   0  0  0  0  0  0  0  0  0  0  0  0
  126.9940  123.2370   58.1050 C   0  0  0  0  0  0  0  0  0  0  0  0
  126.1220  122.5130   56.8040 Cl  0  0  0  0  0  0  0  0  0  0  0  0
  126.6600  124.5200   58.5400 C   0  0  0  0  0  0  0  0  0  0  0  0
  127.3550  125.1120   59.5970 C   0  0  0  0  0  0  0  0  0  0  0  0
  126.8540  126.6900   60.1130 Cl  0  0  0  0  0  0  0  0  0  0  0  0
  129.9020  124.0170   62.3540 C   0  0  2  0  0  0  0  0  0  0  0  0
  129.6400  124.2060   63.8660 C   0  0  0  0  0  0  0  0  0  0  0  0
  129.3190  122.8840   64.8410 S   0  0  0  0  0  0  0  0  0  0  0  0
  129.6920  125.5160   64.2650 N   0  0  0  0  0  0  0  0  0  0  0  0
  129.5210  126.0740   65.5390 C   0  0  0  0  0  0  0  0  0  0  0  0
  130.0710  125.4020   66.6310 C   0  0  0  0  0  0  0  0  0  0  0  0
  129.8960  125.9130   67.9140 C   0  0  0  0  0  0  0  0  0  0  0  0
  129.1630  127.0850   68.1050 C   0  0  0  0  0  0  0  0  0  0  0  0
  128.9710  127.6960   69.7600 S   0  0  0  0  0  0  0  0  0  0  0  0
  130.5860  127.7180   70.5880 C   0  0  0  0  0  0  0  0  0  0  0  0
  131.5380  128.1980   69.7870 F   0  0  0  0  0  0  0  0  0  0  0  0
  130.5420  128.4500   71.6990 F   0  0  0  0  0  0  0  0  0  0  0  0
  128.5990  127.7500   67.0120 C   0  0  0  0  0  0  0  0  0  0  0  0
  128.7730  127.2400   65.7270 C   0  0  0  0  0  0  0  0  0  0  0  0
  131.3850  123.9440   62.1290 N   0  0  0  0  0  0  0  0  0  0  0  0
  131.8910  123.4990   60.9450 C   0  0  0  0  0  0  0  0  0  0  0  0
  133.2710  123.4550   60.7370 C   0  0  0  0  0  0  0  0  0  0  0  0
  134.1300  123.8760   61.7520 C   0  0  0  0  0  0  0  0  0  0  0  0
  133.5950  124.3360   62.9600 C   0  0  0  0  0  0  0  0  0  0  0  0
  134.3590  124.7300   63.8970 O   0  0  0  0  0  0  0  0  0  0  0  0
  132.2060  124.3630   63.1270 C   0  0  0  0  0  0  0  0  0  0  0  0
  129.5464  122.5707   60.2640 H   0  0  0  0  0  0  0  0  0  0  0  0
  128.2928  121.5282   58.3834 H   0  0  0  0  0  0  0  0  0  0  0  0
  125.8439  125.0688   58.0472 H   0  0  0  0  0  0  0  0  0  0  0  0
  129.4228  123.0654   62.0805 H   0  0  0  0  0  0  0  0  0  0  0  0
  129.7940  126.1960   63.5260 H   0  0  0  0  0  0  0  0  0  0  0  0
  130.6401  124.4730   66.4789 H   0  0  0  0  0  0  0  0  0  0  0  0
  130.3357  125.3927   68.7777 H   0  0  0  0  0  0  0  0  0  0  0  0
  130.8284  126.6765   70.8459 H   0  0  0  0  0  0  0  0  0  0  0  0
  128.0200  128.6725   67.1660 H   0  0  0  0  0  0  0  0  0  0  0  0
  128.3236  127.7528   64.8639 H   0  0  0  0  0  0  0  0  0  0  0  0
  131.2077  123.1721   60.1474 H   0  0  0  0  0  0  0  0  0  0  0  0
  133.6770  123.0916   59.7814 H   0  0  0  0  0  0  0  0  0  0  0  0
  135.2196  123.8466   61.6038 H   0  0  0  0  0  0  0  0  0  0  0  0
  131.7761  124.7258   64.0723 H   0  0  0  0  0  0  0  0  0  0  0  0
  1  2  2  0
  2  3  1  0
  3  4  2  0
  4  5  1  0
  5  6  2  0
  6  7  1  0
  6  8  1  0
  8  9  2  0
  9 10  1  0
  2 11  1  0
 11 12  1  0
 12 13  2  0
 12 14  1  0
 14 15  1  0
 15 16  2  0
 16 17  1  0
 17 18  2  0
 18 19  1  0
 19 20  1  0
 20 21  1  0
 20 22  1  0
 18 23  1  0
 23 24  2  0
 11 25  1  0
 25 26  2  0
 26 27  1  0
 27 28  2  0
 28 29  1  0
 29 30  1  0
 29 31  2  0
  9  3  1  0
 24 15  1  0
 31 25  1  0
  4 32  1  0
  5 33  1  0
  8 34  1  0
 11 35  1  6
 14 36  1  0
 16 37  1  0
 17 38  1  0
 20 39  1  0
 23 40  1  0
 24 41  1  0
 26 42  1  0
 27 43  1  0
 28 44  1  0
 31 45  1  0
M  CHG  2  25   1  30  -1
M  END
>  <Binding energies>  (1) 
[-7.2]

>  <Ligand effiencies>  (1) 
[-0.225]

>  <Interactions>  (1) 
["V-A:ILE:369:CG2:3237, V-B:PRO:540:CA:9855, V-A:GLU:543:CA:4904, V-A:ARG:545:CA:4919, H-A:GLU:543:OE2:4910, V-A:GLU:543:C:4902, V-B:GLU:543:CB:9878, V-B:ALA:541:CB:9864, H-A:ARG:545:NH1:4927, V-A:TYR:484:CE2:4346, V-B:TYR:539:CE2:9848, V-A:GLY:544:CA:4914, V-B:GLU:543:CG:9879, V-A:GLY:544:C:4912, V-B:TYR:539:C:9839, V-A:GLU:543:CD:4908, V-B:PRO:540:CB:9857, V-A:ARG:545:CG:4922, H-A:GLY:454:N:4050, V-B:PRO:540:N:9856, V-A:ILE:369:CD1:3239, V-A:HIS:456:CE1:4070, V-B:TYR:539:CD2:9846, V-B:PRO:540:CD:9859, V-B:GLU:543:CD:9880, H-A:ARG:545:NH2:4928, V-A:ARG:545:CZ:4926, H-A:GLU:543:OE1:4909, V-B:TYR:539:CG:9844, V-A:GLU:543:CB:4906, H-A:ARG:545:NE:4924"]

$$$$
ZINC111218768
     RDKit          3D

 35 37  0  0  0  0  0  0  0  0999 V2000
  132.8840  125.1760   61.4610 C   0  0  0  0  0  0  0  0  0  0  0  0
  133.1550  125.0650   62.9410 C   0  0  0  0  0  0  0  0  0  0  0  0
  134.2340  124.6230   63.5390 N   0  0  0  0  0  0  0  0  0  0  0  0
  133.9790  124.7180   64.9040 N   0  0  0  0  0  0  0  0  0  0  0  0
  132.7680  125.2080   65.0120 C   0  0  0  0  0  0  0  0  0  0  0  0
  131.9820  125.4760   66.2800 C   0  0  0  0  0  0  0  0  0  0  0  0
  130.7170  124.7260   66.3610 N   0  0  0  0  0  0  0  0  0  0  0  0
  129.8600  124.9080   67.5450 C   0  0  0  0  0  0  0  0  0  0  0  0
  129.3930  126.3300   67.7860 C   0  0  0  0  0  0  0  0  0  0  0  0
  129.3680  127.0570   68.9750 C   0  0  0  0  0  0  0  0  0  0  0  0
  128.8530  128.3510   68.8500 C   0  0  0  0  0  0  0  0  0  0  0  0
  128.4750  128.6470   67.5540 C   0  0  0  0  0  0  0  0  0  0  0  0
  128.7620  127.3150   66.4870 S   0  0  0  0  0  0  0  0  0  0  0  0
  130.1950  124.1370   65.1750 C   0  0  0  0  0  0  0  0  0  0  0  0
  130.3520  122.7620   64.9360 C   0  0  0  0  0  0  0  0  0  0  0  0
  129.8410  122.1700   63.7840 C   0  0  0  0  0  0  0  0  0  0  0  0
  129.1660  122.9470   62.8510 C   0  0  0  0  0  0  0  0  0  0  0  0
  128.4680  122.1410   61.2740 Br  0  0  0  0  0  0  0  0  0  0  0  0
  128.9980  124.3120   63.0620 C   0  0  0  0  0  0  0  0  0  0  0  0
  129.5080  124.9010   64.2150 C   0  0  0  0  0  0  0  0  0  0  0  0
  132.1900  125.4540   63.8100 O   0  0  0  0  0  0  0  0  0  0  0  0
  131.8767  125.5886   61.3026 H   0  0  0  0  0  0  0  0  0  0  0  0
  133.6293  125.8413   61.0007 H   0  0  0  0  0  0  0  0  0  0  0  0
  132.9484  124.1790   61.0007 H   0  0  0  0  0  0  0  0  0  0  0  0
  132.6068  125.1976   67.1415 H   0  0  0  0  0  0  0  0  0  0  0  0
  131.7228  126.5450   66.2782 H   0  0  0  0  0  0  0  0  0  0  0  0
  128.9703  124.2728   67.4230 H   0  0  0  0  0  0  0  0  0  0  0  0
  130.4757  124.6353   68.4148 H   0  0  0  0  0  0  0  0  0  0  0  0
  129.7237  126.6470   69.9318 H   0  0  0  0  0  0  0  0  0  0  0  0
  128.7591  129.0551   69.6899 H   0  0  0  0  0  0  0  0  0  0  0  0
  128.0452  129.6095   67.2398 H   0  0  0  0  0  0  0  0  0  0  0  0
  130.8873  122.1427   65.6708 H   0  0  0  0  0  0  0  0  0  0  0  0
  129.9713  121.0912   63.6133 H   0  0  0  0  0  0  0  0  0  0  0  0
  128.4638  124.9235   62.3199 H   0  0  0  0  0  0  0  0  0  0  0  0
  129.3717  125.9803   64.3779 H   0  0  0  0  0  0  0  0  0  0  0  0
  1  2  1  0
  2  3  2  0
  3  4  1  0
  4  5  2  0
  5  6  1  0
  6  7  1  0
  7  8  1  0
  8  9  1  0
  9 10  2  0
 10 11  1  0
 11 12  2  0
 12 13  1  0
  7 14  1  0
 14 15  2  0
 15 16  1  0
 16 17  2  0
 17 18  1  0
 17 19  1  0
 19 20  2  0
  5 21  1  0
 21  2  1  0
 13  9  1  0
 20 14  1  0
  1 22  1  0
  1 23  1  0
  1 24  1  0
  6 25  1  0
  6 26  1  0
  8 27  1  0
  8 28  1  0
 10 29  1  0
 11 30  1  0
 12 31  1  0
 15 32  1  0
 16 33  1  0
 19 34  1  0
 20 35  1  0
M  END
>  <Binding energies>  (1) 
[-6.42]

>  <Ligand effiencies>  (1) 
[-0.3057142857142857]

>  <Interactions>  (1) 
["V-B:PRO:540:CA:9855, V-B:GLU:543:CB:9878, V-B:ALA:541:CB:9864, H-A:ARG:545:NH1:4927, V-A:TYR:484:CE2:4346, V-B:GLU:543:CG:9879, V-A:ASP:366:CG:3213, V-A:TYR:484:CZ:4347, V-A:GLU:543:CD:4908, V-B:HIS:456:CE1:9041, V-B:GLU:543:CA:9876, H-A:GLY:454:N:4050, V-A:HIS:456:CE1:4070, V-A:GLU:543:CG:4907, V-B:GLU:543:CD:9880, V-A:LEU:475:CD2:4259, H-A:ARG:545:NH2:4928, V-A:ARG:545:CZ:4926, V-A:GLU:543:CB:4906, H-A:ARG:545:NE:4924, V-B:PRO:540:C:9853, H-A:TYR:484:OH:4348"]

$$$$
ZINC1115858697
     RDKit          3D

 62 64  0  0  0  0  0  0  0  0999 V2000
  132.8510  121.2710   60.4250 C   0  0  0  0  0  0  0  0  0  0  0  0
  132.1980  122.6430   60.6520 C   0  0  0  0  0  0  0  0  0  0  0  0
  133.1690  123.6840   61.0790 N   0  0  0  0  0  0  0  0  0  0  0  0
  133.9810  124.3490   60.0260 C   0  0  0  0  0  0  0  0  0  0  0  0
  133.2530  124.3510   58.6740 C   0  0  0  0  0  0  0  0  0  0  0  0
  133.8980  123.5200   62.6870 S   0  0  0  0  0  0  0  0  0  0  0  0
  134.1110  122.0940   62.9570 O   0  0  0  0  0  0  0  0  0  0  0  0
  135.0160  124.4670   62.7740 O   0  0  0  0  0  0  0  0  0  0  0  0
  132.6290  124.0760   63.8170 C   0  0  0  0  0  0  0  0  0  0  0  0
  132.8970  125.0790   64.7530 C   0  0  0  0  0  0  0  0  0  0  0  0
  131.8980  125.4680   65.6470 C   0  0  0  0  0  0  0  0  0  0  0  0
  130.6480  124.8410   65.5860 C   0  0  0  0  0  0  0  0  0  0  0  0
  129.6650  125.2350   66.5090 N   0  0  0  0  0  0  0  0  0  0  0  0
  129.3470  126.6360   66.7780 C   0  0  0  0  0  0  0  0  0  0  0  0
  129.2430  126.9100   68.2730 C   0  0  0  0  0  0  0  0  0  0  0  0
  128.0290  126.7350   68.9400 C   0  0  0  0  0  0  0  0  0  0  0  0
  127.9360  126.9860   70.3070 C   0  0  0  0  0  0  0  0  0  0  0  0
  129.0530  127.4070   71.0480 C   0  0  0  0  0  0  0  0  0  0  0  0
  128.9550  127.6800   72.4130 N   0  0  0  0  0  0  0  0  0  0  0  0
  127.6630  127.7250   73.1050 C   0  0  0  0  0  0  0  0  0  0  0  0
  127.7680  128.5280   74.4130 C   0  0  2  0  0  0  0  0  0  0  0  0
  128.2980  129.9710   74.2650 C   0  0  0  0  0  0  0  0  0  0  0  0
  128.5310  127.7490   75.3230 O   0  0  0  0  0  0  0  0  0  0  0  0
  129.8160  127.3310   74.8530 C   0  0  1  0  0  0  0  0  0  0  0  0
  130.4490  126.2540   75.7420 C   0  0  0  0  0  0  0  0  0  0  0  0
  129.9710  127.0950   73.3150 C   0  0  0  0  0  0  0  0  0  0  0  0
  130.2620  127.6160   70.3570 C   0  0  0  0  0  0  0  0  0  0  0  0
  131.3590  128.0870   70.9970 F   0  0  0  0  0  0  0  0  0  0  0  0
  130.3540  127.3630   68.9880 C   0  0  0  0  0  0  0  0  0  0  0  0
  130.3780  123.8660   64.6730 N   0  0  0  0  0  0  0  0  0  0  0  0
  131.3580  123.4980   63.8090 C   0  0  0  0  0  0  0  0  0  0  0  0
  133.0727  120.8052   61.3965 H   0  0  0  0  0  0  0  0  0  0  0  0
  132.1629  120.6268   59.8580 H   0  0  0  0  0  0  0  0  0  0  0  0
  133.7849  121.3987   59.8580 H   0  0  0  0  0  0  0  0  0  0  0  0
  131.7272  122.9671   59.7122 H   0  0  0  0  0  0  0  0  0  0  0  0
  131.4619  122.5275   61.4612 H   0  0  0  0  0  0  0  0  0  0  0  0
  134.1770  125.3883   60.3283 H   0  0  0  0  0  0  0  0  0  0  0  0
  134.9222  123.7914   59.9113 H   0  0  0  0  0  0  0  0  0  0  0  0
  132.1660  124.3540   58.8429 H   0  0  0  0  0  0  0  0  0  0  0  0
  133.5382  125.2484   58.1053 H   0  0  0  0  0  0  0  0  0  0  0  0
  133.5333  123.4521   58.1053 H   0  0  0  0  0  0  0  0  0  0  0  0
  133.8868  125.5577   64.7848 H   0  0  0  0  0  0  0  0  0  0  0  0
  132.0905  126.2566   66.3894 H   0  0  0  0  0  0  0  0  0  0  0  0
  129.2720  124.5350   67.1230 H   0  0  0  0  0  0  0  0  0  0  0  0
  130.1392  127.2699   66.3531 H   0  0  0  0  0  0  0  0  0  0  0  0
  128.3738  126.8625   66.3180 H   0  0  0  0  0  0  0  0  0  0  0  0
  127.1422  126.3975   68.3836 H   0  0  0  0  0  0  0  0  0  0  0  0
  126.9700  126.8521   70.8159 H   0  0  0  0  0  0  0  0  0  0  0  0
  126.9195  128.2012   72.4489 H   0  0  0  0  0  0  0  0  0  0  0  0
  127.3586  126.6962   73.3479 H   0  0  0  0  0  0  0  0  0  0  0  0
  126.7508  128.6985   74.7954 H   0  0  0  0  0  0  0  0  0  0  0  0
  128.4581  130.4069   75.2622 H   0  0  0  0  0  0  0  0  0  0  0  0
  129.2498  129.9573   73.7137 H   0  0  0  0  0  0  0  0  0  0  0  0
  127.5636  130.5766   73.7137 H   0  0  0  0  0  0  0  0  0  0  0  0
  130.4359  128.2317   74.9738 H   0  0  0  0  0  0  0  0  0  0  0  0
  130.2957  126.5149   76.7996 H   0  0  0  0  0  0  0  0  0  0  0  0
  129.9784  125.2822   75.5321 H   0  0  0  0  0  0  0  0  0  0  0  0
  131.5270  126.1923   75.5321 H   0  0  0  0  0  0  0  0  0  0  0  0
  130.9468  127.5071   73.0183 H   0  0  0  0  0  0  0  0  0  0  0  0
  129.8517  126.0084   73.1922 H   0  0  0  0  0  0  0  0  0  0  0  0
  131.3098  127.5217   68.4673 H   0  0  0  0  0  0  0  0  0  0  0  0
  131.1418  122.7112   63.0713 H   0  0  0  0  0  0  0  0  0  0  0  0
  1  2  1  0
  2  3  1  0
  3  4  1  0
  4  5  1  0
  3  6  1  0
  6  7  2  0
  6  8  2  0
  6  9  1  0
  9 10  2  0
 10 11  1  0
 11 12  2  0
 12 13  1  0
 13 14  1  0
 14 15  1  0
 15 16  2  0
 16 17  1  0
 17 18  2  0
 18 19  1  0
 19 20  1  0
 20 21  1  0
 21 22  1  0
 21 23  1  0
 23 24  1  0
 24 25  1  0
 24 26  1  0
 18 27  1  0
 27 28  1  0
 27 29  2  0
 12 30  1  0
 30 31  2  0
 31  9  1  0
 29 15  1  0
 26 19  1  0
  1 32  1  0
  1 33  1  0
  1 34  1  0
  2 35  1  0
  2 36  1  0
  4 37  1  0
  4 38  1  0
  5 39  1  0
  5 40  1  0
  5 41  1  0
 10 42  1  0
 11 43  1  0
 13 44  1  0
 14 45  1  0
 14 46  1  0
 16 47  1  0
 17 48  1  0
 20 49  1  0
 20 50  1  0
 21 51  1  1
 22 52  1  0
 22 53  1  0
 22 54  1  0
 24 55  1  1
 25 56  1  0
 25 57  1  0
 25 58  1  0
 26 59  1  0
 26 60  1  0
 29 61  1  0
 31 62  1  0
M  END
>  <Binding energies>  (1) 
[-7.47]

>  <Ligand effiencies>  (1) 
[-0.2334375]

>  <Interactions>  (1) 
["V-A:ILE:369:CG2:3237, V-A:ASP:366:CA:3210, V-A:ARG:545:CA:4919, V-A:GLY:454:CA:4049, V-B:GLU:543:C:9874, V-A:ILE:369:CB:3236, H-B:GLU:543:O:9875, V-A:GLU:543:C:4902, V-B:HIS:456:CD2:9039, V-B:GLU:543:CB:9878, H-B:LYS:547:NZ:9923, H-A:ARG:545:NH1:4927, V-B:TYR:539:CE2:9848, V-A:GLY:544:CA:4914, V-B:GLU:543:CG:9879, V-A:GLY:544:C:4912, V-A:ASP:366:CG:3213, V-A:HIS:456:CD2:4068, V-B:TYR:539:CZ:9849, V-B:LYS:547:CE:9922, V-A:GLU:543:CD:4908, V-B:GLU:543:CA:9876, H-A:GLY:454:N:4050, V-B:HIS:456:CE1:9041, V-A:ILE:369:CD1:3239, V-A:HIS:456:CE1:4070, V-B:TYR:539:CD2:9846, V-B:GLU:543:CD:9880, V-B:HIS:456:CG:9037, V-A:ASP:366:CB:3212, V-A:LEU:475:CD2:4259, V-A:ARG:545:CZ:4926, V-A:GLU:543:CB:4906, H-A:TYR:484:OH:4348"]

$$$$
ZINC1118723
     RDKit          3D

 50 54  0  0  0  0  0  0  0  0999 V2000
  131.0490  133.3710   57.0330 O   0  0  0  0  0  0  0  0  0  0  0  0
  129.9180  133.1850   57.4710 N   0  0  0  0  0  0  0  0  0  0  0  0
  128.8830  133.4800   56.8840 O   0  0  0  0  0  0  0  0  0  0  0  0
  129.8080  132.5800   58.7570 C   0  0  0  0  0  0  0  0  0  0  0  0
  129.0760  132.9240   59.8850 C   0  0  0  0  0  0  0  0  0  0  0  0
  129.3630  131.9580   60.8500 C   0  0  0  0  0  0  0  0  0  0  0  0
  130.2570  131.0570   60.2860 C   0  0  0  0  0  0  0  0  0  0  0  0
  130.8930  129.8640   60.8030 C   0  0  0  0  0  0  0  0  0  0  0  0
  130.2930  128.6930   61.0860 C   0  0  0  0  0  0  0  0  0  0  0  0
  131.0200  127.4900   61.6370 C   0  0  2  0  0  0  0  0  0  0  0  0
  131.6520  126.7740   60.5970 N   0  0  0  0  0  0  0  0  0  0  0  0
  132.3910  125.5940   60.7800 C   0  0  0  0  0  0  0  0  0  0  0  0
  133.1270  125.1370   59.6800 C   0  0  0  0  0  0  0  0  0  0  0  0
  133.8910  123.9790   59.7290 C   0  0  0  0  0  0  0  0  0  0  0  0
  133.9310  123.2390   60.8970 C   0  0  0  0  0  0  0  0  0  0  0  0
  133.2120  123.6660   62.0080 C   0  0  0  0  0  0  0  0  0  0  0  0
  132.4330  124.8460   61.9990 C   0  0  0  0  0  0  0  0  0  0  0  0
  131.6910  125.1800   63.2870 C   0  0  0  0  0  0  0  0  0  0  0  0
  132.1130  124.5430   64.4240 N   0  0  0  0  0  0  0  0  0  0  0  0
  131.4640  124.6850   65.5930 N   0  0  0  0  0  0  0  0  0  0  0  0
  130.3620  125.4750   65.6170 C   0  0  0  0  0  0  0  0  0  0  0  0
  129.4790  125.6490   67.1380 S   0  0  0  0  0  0  0  0  0  0  0  0
  129.5790  127.3970   67.6330 C   0  0  0  0  0  0  0  0  0  0  0  0
  129.5100  127.5510   69.1450 C   0  0  0  0  0  0  0  0  0  0  0  0
  130.6280  128.0040   69.8540 C   0  0  0  0  0  0  0  0  0  0  0  0
  130.5740  128.1460   71.2420 C   0  0  0  0  0  0  0  0  0  0  0  0
  129.4010  127.8360   71.9290 C   0  0  0  0  0  0  0  0  0  0  0  0
  128.2820  127.3840   71.2300 C   0  0  0  0  0  0  0  0  0  0  0  0
  128.3330  127.2420   69.8420 C   0  0  0  0  0  0  0  0  0  0  0  0
  127.2370  126.8060   69.1780 F   0  0  0  0  0  0  0  0  0  0  0  0
  129.8770  126.1550   64.5550 N   0  0  0  0  0  0  0  0  0  0  0  0
  130.5640  126.0240   63.3920 C   0  0  0  0  0  0  0  0  0  0  0  0
  130.0850  126.7760   62.3590 O   0  0  0  0  0  0  0  0  0  0  0  0
  130.5210  131.4490   59.0080 O   0  0  0  0  0  0  0  0  0  0  0  0
  128.4031  133.7870   59.9961 H   0  0  0  0  0  0  0  0  0  0  0  0
  128.9556  131.9174   61.8710 H   0  0  0  0  0  0  0  0  0  0  0  0
  131.9767  129.9201   60.9829 H   0  0  0  0  0  0  0  0  0  0  0  0
  129.2113  128.6075   60.9056 H   0  0  0  0  0  0  0  0  0  0  0  0
  131.8483  127.7550   62.3106 H   0  0  0  0  0  0  0  0  0  0  0  0
  131.9180  127.2960   59.7750 H   0  0  0  0  0  0  0  0  0  0  0  0
  133.0988  125.7155   58.7448 H   0  0  0  0  0  0  0  0  0  0  0  0
  134.4600  123.6525   58.8461 H   0  0  0  0  0  0  0  0  0  0  0  0
  134.5288  122.3170   60.9467 H   0  0  0  0  0  0  0  0  0  0  0  0
  133.2507  123.0637   62.9276 H   0  0  0  0  0  0  0  0  0  0  0  0
  130.5301  127.8168   67.2736 H   0  0  0  0  0  0  0  0  0  0  0  0
  128.7247  127.9311   67.1915 H   0  0  0  0  0  0  0  0  0  0  0  0
  131.5548  128.2497   69.3148 H   0  0  0  0  0  0  0  0  0  0  0  0
  131.4566  128.5023   71.7933 H   0  0  0  0  0  0  0  0  0  0  0  0
  129.3581  127.9479   73.0224 H   0  0  0  0  0  0  0  0  0  0  0  0
  127.3575  127.1389   71.7733 H   0  0  0  0  0  0  0  0  0  0  0  0
  1  2  2  0
  2  3  1  0
  2  4  1  0
  4  5  2  0
  5  6  1  0
  6  7  2  0
  7  8  1  0
  8  9  2  0
  9 10  1  0
 10 11  1  0
 11 12  1  0
 12 13  2  0
 13 14  1  0
 14 15  2  0
 15 16  1  0
 16 17  2  0
 17 18  1  0
 18 19  2  0
 19 20  1  0
 20 21  2  0
 21 22  1  0
 22 23  1  0
 23 24  1  0
 24 25  2  0
 25 26  1  0
 26 27  2  0
 27 28  1  0
 28 29  2  0
 29 30  1  0
 21 31  1  0
 31 32  2  0
 32 33  1  0
  7 34  1  0
 34  4  1  0
 33 10  1  0
 17 12  1  0
 32 18  1  0
 29 24  1  0
  5 35  1  0
  6 36  1  0
  8 37  1  0
  9 38  1  0
 10 39  1  1
 11 40  1  0
 13 41  1  0
 14 42  1  0
 15 43  1  0
 16 44  1  0
 23 45  1  0
 23 46  1  0
 25 47  1  0
 26 48  1  0
 27 49  1  0
 28 50  1  0
M  CHG  2   2   1   3  -1
M  END
>  <Binding energies>  (1) 
[-9.02]

>  <Ligand effiencies>  (1) 
[-0.25771428571428573]

>  <Interactions>  (1) 
["V-A:ILE:369:CG2:3237, V-A:ASP:366:CA:3210, V-B:HIS:456:CD2:9039, V-A:ILE:369:CB:3236, V-A:GLU:543:C:4902, V-B:GLU:543:C:9874, V-B:GLU:543:CB:9878, V-B:GLU:543:CG:9879, V-A:GLY:544:C:4912, V-A:ASP:366:CG:3213, V-A:TYR:539:CA:4869, V-A:GLU:543:CD:4908, V-B:HIS:456:CE1:9041, V-B:GLU:543:CA:9876, V-A:ILE:369:CD1:3239, V-A:HIS:456:CE1:4070, V-B:GLY:544:C:9884, V-A:GLU:543:CG:4907, V-A:TYR:539:C:4867, V-A:ASP:366:CB:3212, V-A:GLU:543:CB:4906, H-A:ASP:366:OD1:3214, V-A:PRO:540:N:4884, H-A:TYR:539:N:4870, V-A:PRO:540:CA:4883, H-A:ASP:366:OD2:3215, V-A:PRO:540:CD:4887, H-A:TYR:484:OH:4348"]

$$$$
ZINC111904884
     RDKit          3D

 55 59  0  0  0  0  0  0  0  0999 V2000
  125.8590  123.2100   62.3850 N   0  0  0  0  0  0  0  0  0  0  0  0
  126.9940  123.1390   62.3250 N   0  0  0  0  0  0  0  0  0  0  0  0
  128.3760  123.0560   62.2530 C   0  0  0  0  0  0  0  0  0  0  0  0
  129.0770  124.1310   62.7840 C   0  0  0  0  0  0  0  0  0  0  0  0
  130.4600  124.1590   62.7770 C   0  0  0  0  0  0  0  0  0  0  0  0
  131.2190  123.0950   62.2270 C   0  0  0  0  0  0  0  0  0  0  0  0
  132.6560  123.0970   62.2410 C   0  0  0  0  0  0  0  0  0  0  0  0
  133.6250  124.4480   62.9520 S   0  0  0  0  0  0  0  0  0  0  0  0
  133.5820  124.3560   64.4160 O   0  0  0  0  0  0  0  0  0  0  0  0
  134.9060  124.5170   62.2400 O   0  0  0  0  0  0  0  0  0  0  0  0
  132.6850  125.7490   62.4700 O   0  0  0  0  0  0  0  0  0  0  0  0
  132.4820  125.9510   61.1290 C   0  0  0  0  0  0  0  0  0  0  0  0
  133.0700  125.1060   60.1850 C   0  0  0  0  0  0  0  0  0  0  0  0
  132.8610  125.3270   58.8230 C   0  0  0  0  0  0  0  0  0  0  0  0
  133.4440  124.5050   57.8960 O   0  0  0  0  0  0  0  0  0  0  0  0
  132.0590  126.3910   58.4020 C   0  0  0  0  0  0  0  0  0  0  0  0
  131.4590  127.2290   59.3430 C   0  0  0  0  0  0  0  0  0  0  0  0
  130.6910  128.2800   58.9240 O   0  0  0  0  0  0  0  0  0  0  0  0
  129.0560  128.2240   59.2590 S   0  0  0  0  0  0  0  0  0  0  0  0
  128.3020  128.4930   58.0290 O   0  0  0  0  0  0  0  0  0  0  0  0
  128.7930  127.0310   60.0740 O   0  0  0  0  0  0  0  0  0  0  0  0
  128.9720  129.6890   60.3080 C   0  0  0  0  0  0  0  0  0  0  0  0
  129.2560  130.9200   59.7200 C   0  0  0  0  0  0  0  0  0  0  0  0
  129.2400  132.0880   60.4630 C   0  0  0  0  0  0  0  0  0  0  0  0
  128.9420  132.0560   61.8160 C   0  0  0  0  0  0  0  0  0  0  0  0
  128.6380  130.8280   62.4910 C   0  0  0  0  0  0  0  0  0  0  0  0
  128.3170  130.7550   63.9020 C   0  0  0  0  0  0  0  0  0  0  0  0
  128.2980  131.8200   64.6240 O   0  0  0  0  0  0  0  0  0  0  0  0
  128.0190  129.4970   64.4780 C   0  0  0  0  0  0  0  0  0  0  0  0
  127.6990  129.3200   65.8150 N   0  0  0  0  0  0  0  0  0  0  0  0
  127.4360  129.1710   66.9130 N   0  0  0  0  0  0  0  0  0  0  0  0
  128.0350  128.3470   63.7010 C   0  0  0  0  0  0  0  0  0  0  0  0
  128.3410  128.3980   62.3520 C   0  0  0  0  0  0  0  0  0  0  0  0
  128.6550  129.6220   61.7080 C   0  0  0  0  0  0  0  0  0  0  0  0
  131.6680  127.0020   60.7040 C   0  0  0  0  0  0  0  0  0  0  0  0
  133.3550  122.0220   61.6970 C   0  0  0  0  0  0  0  0  0  0  0  0
  132.6900  120.9420   61.1450 C   0  0  0  0  0  0  0  0  0  0  0  0
  131.3050  120.9040   61.1270 C   0  0  0  0  0  0  0  0  0  0  0  0
  130.5170  121.9720   61.6690 C   0  0  0  0  0  0  0  0  0  0  0  0
  129.0680  121.9600   61.6870 C   0  0  0  0  0  0  0  0  0  0  0  0
  128.4160  120.9650   61.1970 O   0  0  0  0  0  0  0  0  0  0  0  0
  128.5222  124.9758   63.2182 H   0  0  0  0  0  0  0  0  0  0  0  0
  130.9826  125.0259   63.2076 H   0  0  0  0  0  0  0  0  0  0  0  0
  133.6983  124.2657   60.5154 H   0  0  0  0  0  0  0  0  0  0  0  0
  134.3360  124.7750   57.6660 H   0  0  0  0  0  0  0  0  0  0  0  0
  131.9004  126.5682   57.3280 H   0  0  0  0  0  0  0  0  0  0  0  0
  129.4969  130.9644   58.6476 H   0  0  0  0  0  0  0  0  0  0  0  0
  129.4654  133.0482   59.9760 H   0  0  0  0  0  0  0  0  0  0  0  0
  128.9386  132.9964   62.3866 H   0  0  0  0  0  0  0  0  0  0  0  0
  127.8003  127.3779   64.1655 H   0  0  0  0  0  0  0  0  0  0  0  0
  128.3406  127.4673   61.7657 H   0  0  0  0  0  0  0  0  0  0  0  0
  131.1879  127.6559   61.4469 H   0  0  0  0  0  0  0  0  0  0  0  0
  134.4549  122.0321   61.7065 H   0  0  0  0  0  0  0  0  0  0  0  0
  133.2648  120.1073   60.7173 H   0  0  0  0  0  0  0  0  0  0  0  0
  130.7978  120.0332   60.6861 H   0  0  0  0  0  0  0  0  0  0  0  0
  1  2  3  0
  2  3  1  0
  3  4  2  0
  4  5  1  0
  5  6  2  0
  6  7  1  0
  7  8  1  0
  8  9  2  0
  8 10  2  0
  8 11  1  0
 11 12  1  0
 12 13  2  0
 13 14  1  0
 14 15  1  0
 14 16  2  0
 16 17  1  0
 17 18  1  0
 18 19  1  0
 19 20  2  0
 19 21  2  0
 19 22  1  0
 22 23  2  0
 23 24  1  0
 24 25  2  0
 25 26  1  0
 26 27  2  0
 27 28  1  0
 27 29  1  0
 29 30  1  0
 30 31  3  0
 29 32  2  0
 32 33  1  0
 33 34  2  0
 17 35  2  0
  7 36  2  0
 36 37  1  0
 37 38  2  0
 38 39  1  0
 39 40  2  0
 40 41  1  0
 40  3  1  0
 39  6  1  0
 35 12  1  0
 34 22  1  0
 34 26  1  0
  4 42  1  0
  5 43  1  0
 13 44  1  0
 15 45  1  0
 16 46  1  0
 23 47  1  0
 24 48  1  0
 25 49  1  0
 32 50  1  0
 33 51  1  0
 35 52  1  0
 36 53  1  0
 37 54  1  0
 38 55  1  0
M  CHG  4   2   1  28  -1  30   1  41  -1
M  END
>  <Binding energies>  (1) 
[-9.88]

>  <Ligand effiencies>  (1) 
[-0.23523809523809525]

>  <Interactions>  (1) 
["V-A:ASP:366:CA:3210, V-B:PRO:540:CA:9855, V-B:ALA:541:CB:9864, H-A:TYR:531:OH:4795, V-B:TYR:539:CE2:9848, V-B:GLU:543:CG:9879, V-A:ASP:366:CG:3213, H-B:TYR:539:OH:9850, H-B:ALA:541:N:9863, V-A:GLU:543:CD:4908, H-B:TYR:484:OH:9319, H-A:GLY:454:N:4050, V-B:TYR:539:CD2:9846, V-A:GLU:543:CG:4907, V-A:SER:385:CB:3409, V-B:GLU:543:CD:9880, V-A:ASP:366:CB:3212, V-A:LEU:475:CD2:4259, H-A:ARG:545:NH2:4928, V-A:ARG:545:CZ:4926, H-A:ASP:366:O:3209, V-A:PRO:540:CA:4883, V-B:PRO:540:C:9853, V-B:ALA:541:CA:9862, H-A:TYR:484:OH:4348"]

$$$$
ZINC111904884-again1
     RDKit          3D

 57 61  0  0  0  0  0  0  0  0999 V2000
  129.5090  125.3670   67.7240 N   0  0  0  0  0  0  0  0  0  0  0  0
  129.8820  124.8530   66.7780 N   0  0  0  0  0  0  0  0  0  0  0  0
  130.3300  124.2300   65.6340 C   0  0  0  0  0  0  0  0  0  0  0  0
  129.5660  123.1960   65.1060 C   0  0  0  0  0  0  0  0  0  0  0  0
  129.9670  122.5300   63.9560 C   0  0  0  0  0  0  0  0  0  0  0  0
  131.1710  122.8800   63.2840 C   0  0  0  0  0  0  0  0  0  0  0  0
  131.6210  122.2170   62.0940 C   0  0  0  0  0  0  0  0  0  0  0  0
  130.7350  120.8270   61.3660 S   0  0  0  0  0  0  0  0  0  0  0  0
  131.7080  119.8530   60.8560 O   0  0  0  0  0  0  0  0  0  0  0  0
  129.6600  120.4270   62.2820 O   0  0  0  0  0  0  0  0  0  0  0  0
  130.0660  121.6370   60.0690 O   0  0  0  0  0  0  0  0  0  0  0  0
  128.9600  122.4020   60.3190 C   0  0  0  0  0  0  0  0  0  0  0  0
  128.2430  122.2370   61.5050 C   0  0  0  0  0  0  0  0  0  0  0  0
  127.1160  123.0220   61.7560 C   0  0  0  0  0  0  0  0  0  0  0  0
  126.4130  122.8550   62.9190 O   0  0  0  0  0  0  0  0  0  0  0  0
  126.7080  123.9760   60.8220 C   0  0  0  0  0  0  0  0  0  0  0  0
  127.4250  124.1450   59.6340 C   0  0  0  0  0  0  0  0  0  0  0  0
  127.0400  125.0780   58.7070 O   0  0  0  0  0  0  0  0  0  0  0  0
  128.2310  125.8440   57.8100 S   0  0  0  0  0  0  0  0  0  0  0  0
  128.6850  124.9220   56.7650 O   0  0  0  0  0  0  0  0  0  0  0  0
  127.7970  127.2100   57.4860 O   0  0  0  0  0  0  0  0  0  0  0  0
  129.5670  125.9450   59.0230 C   0  0  0  0  0  0  0  0  0  0  0  0
  130.8580  125.5610   58.6510 C   0  0  0  0  0  0  0  0  0  0  0  0
  131.9070  125.5960   59.5560 C   0  0  0  0  0  0  0  0  0  0  0  0
  131.7010  126.0220   60.8600 C   0  0  0  0  0  0  0  0  0  0  0  0
  130.4160  126.4470   61.2940 C   0  0  0  0  0  0  0  0  0  0  0  0
  130.1850  126.9050   62.6290 C   0  0  0  0  0  0  0  0  0  0  0  0
  131.2160  126.9340   63.5410 O   0  0  0  0  0  0  0  0  0  0  0  0
  128.9060  127.3300   63.0100 C   0  0  0  0  0  0  0  0  0  0  0  0
  128.6550  127.7760   64.2880 N   0  0  0  0  0  0  0  0  0  0  0  0
  128.4490  128.1450   65.3470 N   0  0  0  0  0  0  0  0  0  0  0  0
  127.8590  127.3160   62.0970 C   0  0  0  0  0  0  0  0  0  0  0  0
  128.0550  126.8730   60.7960 C   0  0  0  0  0  0  0  0  0  0  0  0
  129.3290  126.4160   60.3570 C   0  0  0  0  0  0  0  0  0  0  0  0
  128.5530  123.3610   59.3890 C   0  0  0  0  0  0  0  0  0  0  0  0
  132.8050  122.6270   61.4800 C   0  0  0  0  0  0  0  0  0  0  0  0
  133.5600  123.6670   62.0000 C   0  0  0  0  0  0  0  0  0  0  0  0
  133.1540  124.3260   63.1520 C   0  0  0  0  0  0  0  0  0  0  0  0
  131.9560  123.9540   63.8220 C   0  0  0  0  0  0  0  0  0  0  0  0
  131.5200  124.6230   65.0080 C   0  0  0  0  0  0  0  0  0  0  0  0
  132.2700  125.6520   65.5340 O   0  0  0  0  0  0  0  0  0  0  0  0
  128.6314  122.9016   65.6059 H   0  0  0  0  0  0  0  0  0  0  0  0
  129.3426  121.7170   63.5571 H   0  0  0  0  0  0  0  0  0  0  0  0
  128.5661  121.4878   62.2427 H   0  0  0  0  0  0  0  0  0  0  0  0
  126.5010  123.5950   63.5240 H   0  0  0  0  0  0  0  0  0  0  0  0
  125.8211  124.5955   61.0212 H   0  0  0  0  0  0  0  0  0  0  0  0
  131.0452  125.2246   57.6206 H   0  0  0  0  0  0  0  0  0  0  0  0
  132.9123  125.2831   59.2373 H   0  0  0  0  0  0  0  0  0  0  0  0
  132.5433  126.0310   61.5675 H   0  0  0  0  0  0  0  0  0  0  0  0
  130.9180  127.0510   64.4460 H   0  0  0  0  0  0  0  0  0  0  0  0
  126.8619  127.6603   62.4089 H   0  0  0  0  0  0  0  0  0  0  0  0
  127.2100  126.8753   60.0917 H   0  0  0  0  0  0  0  0  0  0  0  0
  129.1242  123.4990   58.4591 H   0  0  0  0  0  0  0  0  0  0  0  0
  133.1454  122.1160   60.5673 H   0  0  0  0  0  0  0  0  0  0  0  0
  134.4885  123.9724   61.4954 H   0  0  0  0  0  0  0  0  0  0  0  0
  133.7670  125.1470   63.5522 H   0  0  0  0  0  0  0  0  0  0  0  0
  132.0490  126.5100   65.1660 H   0  0  0  0  0  0  0  0  0  0  0  0
  1  2  3  0
  2  3  1  0
  3  4  2  0
  4  5  1  0
  5  6  2  0
  6  7  1  0
  7  8  1  0
  8  9  2  0
  8 10  2  0
  8 11  1  0
 11 12  1  0
 12 13  2  0
 13 14  1  0
 14 15  1  0
 14 16  2  0
 16 17  1  0
 17 18  1  0
 18 19  1  0
 19 20  2  0
 19 21  2  0
 19 22  1  0
 22 23  2  0
 23 24  1  0
 24 25  2  0
 25 26  1  0
 26 27  2  0
 27 28  1  0
 27 29  1  0
 29 30  1  0
 30 31  3  0
 29 32  2  0
 32 33  1  0
 33 34  2  0
 17 35  2  0
  7 36  2  0
 36 37  1  0
 37 38  2  0
 38 39  1  0
 39 40  2  0
 40 41  1  0
 40  3  1  0
 39  6  1  0
 35 12  1  0
 34 22  1  0
 34 26  1  0
  4 42  1  0
  5 43  1  0
 13 44  1  0
 15 45  1  0
 16 46  1  0
 23 47  1  0
 24 48  1  0
 25 49  1  0
 28 50  1  0
 32 51  1  0
 33 52  1  0
 35 53  1  0
 36 54  1  0
 37 55  1  0
 38 56  1  0
 41 57  1  0
M  CHG  2   2   1  30   1
M  END
>  <Binding energies>  (1) 
[-10.54]

>  <Ligand effiencies>  (1) 
[-0.23954545454545453]

>  <Interactions>  (1) 
["V-B:PRO:540:CA:9855, H-A:GLU:543:OE2:4910, V-B:GLU:543:CB:9878, V-B:ALA:541:CB:9864, V-B:TYR:539:CE2:9848, V-A:TYR:484:CE2:4346, H-B:ALA:541:O:9861, V-B:GLU:543:CG:9879, V-A:ASP:366:CG:3213, H-B:GLU:543:OE1:9881, H-B:TYR:539:OH:9850, H-B:ALA:541:N:9863, V-A:TYR:484:CZ:4347, V-A:GLU:543:CD:4908, V-B:GLU:543:CA:9876, V-A:HIS:456:CE1:4070, V-B:TYR:539:CD2:9846, H-A:SER:385:OG:3410, V-B:GLU:543:CD:9880, H-B:TYR:531:OH:9767, V-A:ASP:366:CB:3212, V-A:LEU:475:CD2:4259, H-A:ARG:545:NH2:4928, H-A:GLU:543:OE1:4909, H-B:GLU:543:OE2:9882, H-A:ARG:545:NE:4924, V-B:PRO:540:C:9853, H-A:TYR:484:OH:4348"]

$$$$
ZINC1123613550
     RDKit          3D

 61 64  0  0  0  0  0  0  0  0999 V2000
  130.2500  121.6050   61.4740 C   0  0  0  0  0  0  0  0  0  0  0  0
  131.3810  121.4950   61.0270 C   0  0  0  0  0  0  0  0  0  0  0  0
  132.7540  121.3690   60.5020 C   0  0  0  0  0  0  0  0  0  0  0  0
  133.6670  122.6100   60.6930 C   0  0  2  0  0  0  0  0  0  0  0  0
  133.7410  123.0830   62.1710 C   0  0  0  0  0  0  0  0  0  0  0  0
  134.5920  124.3460   62.3820 C   0  0  0  0  0  0  0  0  0  0  0  0
  133.2170  123.7410   59.7670 C   0  0  0  0  0  0  0  0  0  0  0  0
  133.7320  123.9490   58.5790 N   0  0  0  0  0  0  0  0  0  0  0  0
  133.0340  124.9980   57.9970 N   0  0  0  0  0  0  0  0  0  0  0  0
  132.1410  125.4090   58.8710 C   0  0  0  0  0  0  0  0  0  0  0  0
  131.2020  126.4080   58.6690 N   0  0  0  0  0  0  0  0  0  0  0  0
  130.0210  126.0290   57.8810 C   0  0  0  0  0  0  0  0  0  0  0  0
  128.9060  127.0860   57.7310 C   0  0  0  0  0  0  0  0  0  0  0  0
  128.8000  128.0810   58.9040 C   0  0  0  0  0  0  0  0  0  0  0  0
  129.8140  129.2570   58.9230 C   0  0  2  0  0  0  0  0  0  0  0  0
  129.6880  130.0230   57.7220 O   0  0  0  0  0  0  0  0  0  0  0  0
  130.2080  131.3510   57.7540 C   0  0  0  0  0  0  0  0  0  0  0  0
  129.5870  132.3270   56.7460 C   0  0  0  0  0  0  0  0  0  0  0  0
  129.5370  133.3590   57.8830 C   0  0  0  0  0  0  0  0  0  0  0  0
  129.6140  132.1960   58.8850 C   0  0  0  0  0  0  0  0  0  0  0  0
  131.3040  128.8940   59.0880 C   0  0  0  0  0  0  0  0  0  0  0  0
  131.7820  127.6900   58.2560 C   0  0  0  0  0  0  0  0  0  0  0  0
  132.2080  124.6510   60.0320 N   0  0  0  0  0  0  0  0  0  0  0  0
  131.3480  124.7380   61.2210 C   0  0  0  0  0  0  0  0  0  0  0  0
  131.4800  126.0570   62.0310 C   0  0  0  0  0  0  0  0  0  0  0  0
  130.2900  126.9600   62.2570 C   0  0  0  0  0  0  0  0  0  0  0  0
  130.9070  126.2260   63.4260 C   0  0  0  0  0  0  0  0  0  0  0  0
  129.2312  121.7041   61.8767 H   0  0  0  0  0  0  0  0  0  0  0  0
  133.2320  120.5173   61.0081 H   0  0  0  0  0  0  0  0  0  0  0  0
  132.6475  121.2410   59.4147 H   0  0  0  0  0  0  0  0  0  0  0  0
  134.6896  122.3104   60.4200 H   0  0  0  0  0  0  0  0  0  0  0  0
  132.7187  123.2928   62.5185 H   0  0  0  0  0  0  0  0  0  0  0  0
  134.2245  122.2750   62.7397 H   0  0  0  0  0  0  0  0  0  0  0  0
  134.7154  124.5292   63.4596 H   0  0  0  0  0  0  0  0  0  0  0  0
  135.5796  124.2044   61.9187 H   0  0  0  0  0  0  0  0  0  0  0  0
  134.0899  125.2081   61.9187 H   0  0  0  0  0  0  0  0  0  0  0  0
  130.3673  125.7671   56.8703 H   0  0  0  0  0  0  0  0  0  0  0  0
  129.5574  125.2045   58.4424 H   0  0  0  0  0  0  0  0  0  0  0  0
  129.0983  127.6590   56.8119 H   0  0  0  0  0  0  0  0  0  0  0  0
  127.9552  126.5334   57.7053 H   0  0  0  0  0  0  0  0  0  0  0  0
  127.7892  128.5144   58.8816 H   0  0  0  0  0  0  0  0  0  0  0  0
  129.0304  127.4898   59.8026 H   0  0  0  0  0  0  0  0  0  0  0  0
  129.5399  129.8140   59.8311 H   0  0  0  0  0  0  0  0  0  0  0  0
  131.2805  131.1129   57.6993 H   0  0  0  0  0  0  0  0  0  0  0  0
  130.2436  132.5999   55.9067 H   0  0  0  0  0  0  0  0  0  0  0  0
  128.6929  132.0653   56.1611 H   0  0  0  0  0  0  0  0  0  0  0  0
  130.3970  134.0442   57.9140 H   0  0  0  0  0  0  0  0  0  0  0  0
  128.7333  134.1079   57.9388 H   0  0  0  0  0  0  0  0  0  0  0  0
  130.2912  132.3665   59.7349 H   0  0  0  0  0  0  0  0  0  0  0  0
  128.7339  131.8637   59.4552 H   0  0  0  0  0  0  0  0  0  0  0  0
  131.9019  129.7693   58.7943 H   0  0  0  0  0  0  0  0  0  0  0  0
  131.4331  128.6069   60.1420 H   0  0  0  0  0  0  0  0  0  0  0  0
  131.5126  127.8681   57.2045 H   0  0  0  0  0  0  0  0  0  0  0  0
  132.8684  127.6103   58.4090 H   0  0  0  0  0  0  0  0  0  0  0  0
  130.3023  124.6417   60.8937 H   0  0  0  0  0  0  0  0  0  0  0  0
  131.6709  123.9300   61.8940 H   0  0  0  0  0  0  0  0  0  0  0  0
  132.4824  126.1693   61.5921 H   0  0  0  0  0  0  0  0  0  0  0  0
  130.4040  128.0507   62.1713 H   0  0  0  0  0  0  0  0  0  0  0  0
  129.2779  127.0313   61.8320 H   0  0  0  0  0  0  0  0  0  0  0  0
  131.4712  126.7820   64.1892 H   0  0  0  0  0  0  0  0  0  0  0  0
  130.5321  125.5425   64.2020 H   0  0  0  0  0  0  0  0  0  0  0  0
  1  2  3  0
  2  3  1  0
  3  4  1  0
  4  5  1  0
  5  6  1  0
  4  7  1  0
  7  8  2  0
  8  9  1  0
  9 10  2  0
 10 11  1  0
 11 12  1  0
 12 13  1  0
 13 14  1  0
 14 15  1  0
 15 16  1  0
 16 17  1  0
 17 18  1  0
 18 19  1  0
 19 20  1  0
 15 21  1  0
 21 22  1  0
 10 23  1  0
 23 24  1  0
 24 25  1  0
 25 26  1  0
 26 27  1  0
 23  7  1  0
 27 25  1  0
 22 11  1  0
 20 17  1  0
  1 28  1  0
  3 29  1  0
  3 30  1  0
  4 31  1  6
  5 32  1  0
  5 33  1  0
  6 34  1  0
  6 35  1  0
  6 36  1  0
 12 37  1  0
 12 38  1  0
 13 39  1  0
 13 40  1  0
 14 41  1  0
 14 42  1  0
 15 43  1  1
 17 44  1  0
 18 45  1  0
 18 46  1  0
 19 47  1  0
 19 48  1  0
 20 49  1  0
 20 50  1  0
 21 51  1  0
 21 52  1  0
 22 53  1  0
 22 54  1  0
 24 55  1  0
 24 56  1  0
 25 57  1  0
 26 58  1  0
 26 59  1  0
 27 60  1  0
 27 61  1  0
M  END
>  <Binding energies>  (1) 
[-3.42]

>  <Ligand effiencies>  (1) 
[-0.11793103448275861]

>  <Interactions>  (1) 
["V-A:ILE:369:CG2:3237, V-B:TYR:539:CE2:9848, V-A:ASP:366:CG:3213, V-A:TYR:539:CD1:4873, H-B:TYR:539:OH:9850, V-A:TYR:539:CA:4869, V-A:GLU:543:CD:4908, V-A:GLY:453:C:4042, V-A:ILE:369:CD1:3239, V-B:TYR:539:CD2:9846, V-A:TYR:531:CZ:4794, V-A:MET:535:CE:4835, V-A:TYR:539:C:4867, V-A:ASP:366:CB:3212, V-A:LEU:475:CD2:4259, V-A:PRO:540:N:4884, V-A:TYR:539:CG:4872, V-A:GLY:453:CA:4044, V-A:PRO:540:CA:4883"]

$$$$
ZINC1129160
     RDKit          3D

 53 55  0  0  0  0  0  0  0  0999 V2000
  132.6510  131.4390   62.3700 C   0  0  0  0  0  0  0  0  0  0  0  0
  131.4680  132.2210   62.4190 O   0  0  0  0  0  0  0  0  0  0  0  0
  130.5370  132.1300   61.4360 C   0  0  0  0  0  0  0  0  0  0  0  0
  130.7880  131.9640   60.2400 O   0  0  0  0  0  0  0  0  0  0  0  0
  129.0720  132.2740   61.9410 C   0  0  1  0  0  0  0  0  0  0  0  0
  128.0380  132.4210   60.8150 C   0  0  0  0  0  0  0  0  0  0  0  0
  128.7060  131.2430   62.9700 N   0  0  0  0  0  0  0  0  0  0  0  0
  128.3290  131.6080   64.2190 C   0  0  0  0  0  0  0  0  0  0  0  0
  128.2150  132.7410   64.6840 O   0  0  0  0  0  0  0  0  0  0  0  0
  127.9860  130.1360   65.1660 S   0  0  0  0  0  0  0  0  0  0  0  0
  128.3380  129.1100   63.7800 C   0  0  0  0  0  0  0  0  0  0  0  0
  128.2610  127.7580   63.7910 C   0  0  0  0  0  0  0  0  0  0  0  0
  128.4830  126.7600   62.7550 C   0  0  0  0  0  0  0  0  0  0  0  0
  128.1560  126.8410   61.3980 C   0  0  0  0  0  0  0  0  0  0  0  0
  128.5090  125.6730   60.7500 C   0  0  0  0  0  0  0  0  0  0  0  0
  128.3660  125.2820   59.2940 C   0  0  0  0  0  0  0  0  0  0  0  0
  129.0340  124.8270   61.7090 N   0  0  0  0  0  0  0  0  0  0  0  0
  129.5140  123.5180   61.4770 C   0  0  0  0  0  0  0  0  0  0  0  0
  130.8180  123.3580   61.0020 C   0  0  0  0  0  0  0  0  0  0  0  0
  131.3270  122.0820   60.7760 C   0  0  0  0  0  0  0  0  0  0  0  0
  130.5460  120.9450   61.0160 C   0  0  0  0  0  0  0  0  0  0  0  0
  131.0930  119.5860   60.7760 N   0  0  0  0  0  0  0  0  0  0  0  0
  130.5070  118.6220   61.2620 O   0  0  0  0  0  0  0  0  0  0  0  0
  132.1120  119.4730   60.1020 O   0  0  0  0  0  0  0  0  0  0  0  0
  129.2350  121.1210   61.4860 C   0  0  0  0  0  0  0  0  0  0  0  0
  128.7010  122.4010   61.7200 C   0  0  0  0  0  0  0  0  0  0  0  0
  127.4060  122.6230   62.1580 O   0  0  0  0  0  0  0  0  0  0  0  0
  126.4690  123.2530   61.2920 C   0  0  0  0  0  0  0  0  0  0  0  0
  129.0150  125.4820   62.9330 C   0  0  0  0  0  0  0  0  0  0  0  0
  129.5440  124.8250   64.1970 C   0  0  0  0  0  0  0  0  0  0  0  0
  128.7470  129.9200   62.6470 C   0  0  0  0  0  0  0  0  0  0  0  0
  129.0940  129.4900   61.5450 O   0  0  0  0  0  0  0  0  0  0  0  0
  132.9866  131.2172   63.3938 H   0  0  0  0  0  0  0  0  0  0  0  0
  132.4465  130.4976   61.8391 H   0  0  0  0  0  0  0  0  0  0  0  0
  133.4370  131.9960   61.8391 H   0  0  0  0  0  0  0  0  0  0  0  0
  129.0375  133.2393   62.4673 H   0  0  0  0  0  0  0  0  0  0  0  0
  127.0383  132.5631   61.2514 H   0  0  0  0  0  0  0  0  0  0  0  0
  128.2939  133.2918   60.1935 H   0  0  0  0  0  0  0  0  0  0  0  0
  128.0411  131.5134   60.1935 H   0  0  0  0  0  0  0  0  0  0  0  0
  127.9775  127.3346   64.7658 H   0  0  0  0  0  0  0  0  0  0  0  0
  127.6851  127.7102   60.9155 H   0  0  0  0  0  0  0  0  0  0  0  0
  127.9889  124.2509   59.2266 H   0  0  0  0  0  0  0  0  0  0  0  0
  127.6591  125.9641   58.7989 H   0  0  0  0  0  0  0  0  0  0  0  0
  129.3461  125.3471   58.7989 H   0  0  0  0  0  0  0  0  0  0  0  0
  131.4435  124.2414   60.8063 H   0  0  0  0  0  0  0  0  0  0  0  0
  132.3557  121.9657   60.4042 H   0  0  0  0  0  0  0  0  0  0  0  0
  128.6099  120.2360   61.6760 H   0  0  0  0  0  0  0  0  0  0  0  0
  125.7038  123.7675   61.8918 H   0  0  0  0  0  0  0  0  0  0  0  0
  126.9906  123.9846   60.6574 H   0  0  0  0  0  0  0  0  0  0  0  0
  125.9883  122.4939   60.6574 H   0  0  0  0  0  0  0  0  0  0  0  0
  129.1306  125.3384   65.0777 H   0  0  0  0  0  0  0  0  0  0  0  0
  129.2426  123.7672   64.2142 H   0  0  0  0  0  0  0  0  0  0  0  0
  130.6417  124.8938   64.2142 H   0  0  0  0  0  0  0  0  0  0  0  0
  1  2  1  0
  2  3  1  0
  3  4  2  0
  3  5  1  0
  5  6  1  0
  5  7  1  0
  7  8  1  0
  8  9  2  0
  8 10  1  0
 10 11  1  0
 11 12  2  0
 12 13  1  0
 13 14  1  0
 14 15  2  0
 15 16  1  0
 15 17  1  0
 17 18  1  0
 18 19  2  0
 19 20  1  0
 20 21  2  0
 21 22  1  0
 22 23  2  0
 22 24  1  0
 21 25  1  0
 25 26  2  0
 26 27  1  0
 27 28  1  0
 17 29  1  0
 29 30  1  0
 11 31  1  0
 31 32  2  0
 31  7  1  0
 29 13  2  0
 26 18  1  0
  1 33  1  0
  1 34  1  0
  1 35  1  0
  5 36  1  1
  6 37  1  0
  6 38  1  0
  6 39  1  0
 12 40  1  0
 14 41  1  0
 16 42  1  0
 16 43  1  0
 16 44  1  0
 19 45  1  0
 20 46  1  0
 25 47  1  0
 28 48  1  0
 28 49  1  0
 28 50  1  0
 30 51  1  0
 30 52  1  0
 30 53  1  0
M  CHG  2  22   1  24  -1
M  END
>  <Binding energies>  (1) 
[-6.84]

>  <Ligand effiencies>  (1) 
[-0.21375]

>  <Interactions>  (1) 
["V-B:PRO:540:CA:9855, H-A:ALA:541:N:4891, V-A:PRO:540:C:4881, V-B:ALA:541:CB:9864, V-B:TYR:539:CE2:9848, V-B:GLU:543:CG:9879, V-A:ASN:362:CB:3176, H-B:ALA:541:N:9863, V-A:GLU:543:CD:4908, V-B:PRO:540:CB:9857, H-B:TYR:484:OH:9319, V-B:TYR:539:CD2:9846, V-A:GLU:543:CG:4907, H-A:SER:385:OG:3410, V-B:GLU:543:CD:9880, V-A:LEU:475:CD2:4259, H-A:HIS:383:HE2:3395, V-A:PRO:540:CB:4885, V-A:PRO:540:CA:4883, V-B:PRO:540:C:9853"]

$$$$
ZINC1136178
     RDKit          3D

 41 44  0  0  0  0  0  0  0  0999 V2000
  126.6960  126.7510   69.2490 O   0  0  0  0  0  0  0  0  0  0  0  0
  127.8200  127.2370   69.0840 C   0  0  0  0  0  0  0  0  0  0  0  0
  128.3470  127.6450   67.8900 O   0  0  0  0  0  0  0  0  0  0  0  0
  129.0520  126.7520   67.1130 C   0  0  0  0  0  0  0  0  0  0  0  0
  129.1090  126.9450   65.7320 C   0  0  0  0  0  0  0  0  0  0  0  0
  129.8340  126.0630   64.9360 C   0  0  0  0  0  0  0  0  0  0  0  0
  130.5110  124.9840   65.5120 C   0  0  0  0  0  0  0  0  0  0  0  0
  131.2570  124.0680   64.6250 C   0  0  0  0  0  0  0  0  0  0  0  0
  130.8000  123.4300   63.5210 C   0  0  0  0  0  0  0  0  0  0  0  0
  129.2170  123.5360   62.7480 S   0  0  0  0  0  0  0  0  0  0  0  0
  129.6790  122.4150   61.5010 C   0  0  0  0  0  0  0  0  0  0  0  0
  128.5700  121.9860   60.3270 S   0  0  0  0  0  0  0  0  0  0  0  0
  130.9830  122.0450   61.6890 N   0  0  0  0  0  0  0  0  0  0  0  0
  131.6340  121.0420   60.8130 C   0  0  0  0  0  0  0  0  0  0  0  0
  130.9800  119.6730   60.8940 C   0  0  0  0  0  0  0  0  0  0  0  0
  129.9700  119.1410   61.6820 C   0  0  0  0  0  0  0  0  0  0  0  0
  129.7850  117.8190   61.2710 C   0  0  0  0  0  0  0  0  0  0  0  0
  130.6860  117.6050   60.2440 C   0  0  0  0  0  0  0  0  0  0  0  0
  131.4090  118.7300   60.0140 O   0  0  0  0  0  0  0  0  0  0  0  0
  131.6490  122.5290   62.7710 C   0  0  0  0  0  0  0  0  0  0  0  0
  132.8120  122.2320   63.0630 O   0  0  0  0  0  0  0  0  0  0  0  0
  130.4700  124.8100   66.9000 C   0  0  0  0  0  0  0  0  0  0  0  0
  129.7480  125.6910   67.6990 C   0  0  0  0  0  0  0  0  0  0  0  0
  128.7740  127.4580   70.1700 C   0  0  0  0  0  0  0  0  0  0  0  0
  130.0320  128.0640   70.1550 C   0  0  0  0  0  0  0  0  0  0  0  0
  130.6500  128.0890   71.4110 C   0  0  0  0  0  0  0  0  0  0  0  0
  129.8780  127.5010   72.4000 C   0  0  0  0  0  0  0  0  0  0  0  0
  128.3710  126.9110   71.7740 S   0  0  0  0  0  0  0  0  0  0  0  0
  128.5812  127.7938   65.2728 H   0  0  0  0  0  0  0  0  0  0  0  0
  129.8745  126.2158   63.8474 H   0  0  0  0  0  0  0  0  0  0  0  0
  132.3076  123.8821   64.8927 H   0  0  0  0  0  0  0  0  0  0  0  0
  131.5793  121.3961   59.7730 H   0  0  0  0  0  0  0  0  0  0  0  0
  132.6741  120.9316   61.1537 H   0  0  0  0  0  0  0  0  0  0  0  0
  129.4192  119.6615   62.4793 H   0  0  0  0  0  0  0  0  0  0  0  0
  129.0670  117.0939   61.6817 H   0  0  0  0  0  0  0  0  0  0  0  0
  130.8001  116.6597   59.6933 H   0  0  0  0  0  0  0  0  0  0  0  0
  131.0119  123.9716   67.3621 H   0  0  0  0  0  0  0  0  0  0  0  0
  129.7250  125.5527   68.7900 H   0  0  0  0  0  0  0  0  0  0  0  0
  130.4917  128.4804   69.2466 H   0  0  0  0  0  0  0  0  0  0  0  0
  131.6419  128.5283   71.5931 H   0  0  0  0  0  0  0  0  0  0  0  0
  130.1832  127.4183   73.4536 H   0  0  0  0  0  0  0  0  0  0  0  0
  1  2  2  0
  2  3  1  0
  3  4  1  0
  4  5  2  0
  5  6  1  0
  6  7  2  0
  7  8  1  0
  8  9  2  0
  9 10  1  0
 10 11  1  0
 11 12  2  0
 11 13  1  0
 13 14  1  0
 14 15  1  0
 15 16  2  0
 16 17  1  0
 17 18  2  0
 18 19  1  0
 13 20  1  0
 20 21  2  0
  7 22  1  0
 22 23  2  0
  2 24  1  0
 24 25  2  0
 25 26  1  0
 26 27  2  0
 27 28  1  0
 23  4  1  0
 28 24  1  0
 20  9  1  0
 19 15  1  0
  5 29  1  0
  6 30  1  0
  8 31  1  0
 14 32  1  0
 14 33  1  0
 16 34  1  0
 17 35  1  0
 18 36  1  0
 22 37  1  0
 23 38  1  0
 25 39  1  0
 26 40  1  0
 27 41  1  0
M  END
>  <Binding energies>  (1) 
[-7.54]

>  <Ligand effiencies>  (1) 
[-0.2692857142857143]

>  <Interactions>  (1) 
["V-B:PRO:540:CA:9855, V-B:GLU:543:C:9874, V-A:GLU:543:C:4902, V-B:GLU:543:CB:9878, V-B:ALA:541:CB:9864, V-B:TYR:539:CE2:9848, V-A:TYR:484:CE2:4346, V-A:LEU:475:CG:4257, V-B:GLU:543:CG:9879, V-A:GLY:544:C:4912, V-B:TYR:539:C:9839, H-B:HIS:456:ND1:9038, H-B:ARG:545:N:9892, V-A:LEU:475:CD1:4258, V-B:TYR:539:CB:9843, V-A:HIS:383:CE1:3393, V-A:GLU:543:CD:4908, V-A:TYR:484:CZ:4347, V-B:HIS:456:CE1:9041, V-B:GLU:543:CA:9876, V-B:PRO:540:N:9856, V-A:HIS:456:CE1:4070, V-A:PRO:482:CB:4326, V-B:TYR:539:CD2:9846, H-A:SER:385:OG:3410, V-B:GLU:543:CD:9880, V-A:LEU:475:CD2:4259, V-A:GLU:543:CB:4906, H-A:HIS:383:HE2:3395, V-A:PRO:482:CG:4327, V-B:PRO:540:C:9853, V-A:HIS:383:NE2:3394"]

$$$$
ZINC1136766
     RDKit          3D

 28 30  0  0  0  0  0  0  0  0999 V2000
  134.0140  124.8110   64.2390 O   0  0  0  0  0  0  0  0  0  0  0  0
  132.8810  124.3360   64.1160 C   0  0  0  0  0  0  0  0  0  0  0  0
  131.7500  124.6330   64.9690 C   0  0  0  0  0  0  0  0  0  0  0  0
  131.8660  125.4740   66.0220 C   0  0  0  0  0  0  0  0  0  0  0  0
  130.8430  125.8750   66.9710 C   0  0  0  0  0  0  0  0  0  0  0  0
  129.4810  125.6120   67.0990 C   0  0  0  0  0  0  0  0  0  0  0  0
  129.0270  126.2940   68.2260 C   0  0  0  0  0  0  0  0  0  0  0  0
  130.1220  126.9580   68.7460 C   0  0  0  0  0  0  0  0  0  0  0  0
  130.3300  128.0960   70.2560 Br  0  0  0  0  0  0  0  0  0  0  0  0
  131.2150  126.7040   67.9840 O   0  0  0  0  0  0  0  0  0  0  0  0
  130.3290  123.7570   64.4050 S   0  0  0  0  0  0  0  0  0  0  0  0
  131.2140  123.0400   63.0890 C   0  0  0  0  0  0  0  0  0  0  0  0
  130.4300  122.0180   62.0270 S   0  0  0  0  0  0  0  0  0  0  0  0
  132.5190  123.4530   63.1480 N   0  0  0  0  0  0  0  0  0  0  0  0
  133.5030  123.0520   62.1140 C   0  0  0  0  0  0  0  0  0  0  0  0
  133.3410  123.8250   60.8170 C   0  0  0  0  0  0  0  0  0  0  0  0
  132.4020  124.7390   60.3560 C   0  0  0  0  0  0  0  0  0  0  0  0
  132.7750  125.0850   59.0570 C   0  0  0  0  0  0  0  0  0  0  0  0
  133.9210  124.3640   58.7760 C   0  0  0  0  0  0  0  0  0  0  0  0
  134.2610  123.5960   59.8420 O   0  0  0  0  0  0  0  0  0  0  0  0
  132.8635  125.9101   66.1796 H   0  0  0  0  0  0  0  0  0  0  0  0
  128.8748  124.9812   66.4322 H   0  0  0  0  0  0  0  0  0  0  0  0
  128.0011  126.3023   68.6229 H   0  0  0  0  0  0  0  0  0  0  0  0
  134.5158  123.2295   62.5049 H   0  0  0  0  0  0  0  0  0  0  0  0
  133.3331  121.9886   61.8895 H   0  0  0  0  0  0  0  0  0  0  0  0
  131.5303  125.1178   60.9098 H   0  0  0  0  0  0  0  0  0  0  0  0
  132.2599  125.7910   58.3891 H   0  0  0  0  0  0  0  0  0  0  0  0
  134.4759  124.4067   57.8272 H   0  0  0  0  0  0  0  0  0  0  0  0
  1  2  2  0
  2  3  1  0
  3  4  2  0
  4  5  1  0
  5  6  2  0
  6  7  1  0
  7  8  2  0
  8  9  1  0
  8 10  1  0
  3 11  1  0
 11 12  1  0
 12 13  2  0
 12 14  1  0
 14 15  1  0
 15 16  1  0
 16 17  2  0
 17 18  1  0
 18 19  2  0
 19 20  1  0
 14  2  1  0
 20 16  1  0
 10  5  1  0
  4 21  1  0
  6 22  1  0
  7 23  1  0
 15 24  1  0
 15 25  1  0
 17 26  1  0
 18 27  1  0
 19 28  1  0
M  END
>  <Binding energies>  (1) 
[-6.27]

>  <Ligand effiencies>  (1) 
[-0.3135]

>  <Interactions>  (1) 
["V-A:ILE:369:CG2:3237, V-A:ASP:366:CA:3210, V-B:GLU:543:C:9874, V-A:ILE:369:CB:3236, V-A:GLU:543:C:4902, V-B:GLU:543:CB:9878, H-A:ARG:545:NH1:4927, V-B:TYR:539:CE2:9848, V-B:GLU:543:CG:9879, V-A:ASP:366:CG:3213, V-A:GLU:543:CD:4908, V-B:GLU:543:CA:9876, H-A:GLY:454:N:4050, V-A:HIS:456:CE1:4070, V-A:ASP:366:C:3208, V-B:GLU:543:CD:9880, V-A:ASP:366:CB:3212, V-A:LEU:475:CD2:4259, H-A:ARG:545:NH2:4928, V-A:GLU:543:CB:4906, H-A:ARG:545:NE:4924, H-A:TYR:484:OH:4348"]

$$$$
ZINC114229958-again1
     RDKit          3D

 73 77  0  0  0  0  0  0  0  0999 V2000
  130.4210  118.4050   61.2990 C   0  0  0  0  0  0  0  0  0  0  0  0
  131.2730  119.3300   60.6370 O   0  0  0  0  0  0  0  0  0  0  0  0
  131.1420  120.6570   60.8350 C   0  0  0  0  0  0  0  0  0  0  0  0
  132.0500  121.3950   61.2200 O   0  0  0  0  0  0  0  0  0  0  0  0
  129.8330  121.0170   60.5270 N   0  0  0  0  0  0  0  0  0  0  0  0
  129.2150  122.2780   60.5790 C   0  0  0  0  0  0  0  0  0  0  0  0
  128.2320  122.6450   61.5090 C   0  0  0  0  0  0  0  0  0  0  0  0
  127.6730  123.9200   61.4730 C   0  0  0  0  0  0  0  0  0  0  0  0
  128.0750  124.8640   60.5180 C   0  0  0  0  0  0  0  0  0  0  0  0
  129.0780  124.4970   59.5920 C   0  0  0  0  0  0  0  0  0  0  0  0
  129.6230  123.2090   59.6230 C   0  0  0  0  0  0  0  0  0  0  0  0
  129.5530  125.3460   58.5810 N   0  0  0  0  0  0  0  0  0  0  0  0
  129.9780  126.6200   58.7190 C   0  0  0  0  0  0  0  0  0  0  0  0
  130.4240  127.2190   57.7430 O   0  0  0  0  0  0  0  0  0  0  0  0
  129.9580  127.3220   60.0950 C   0  0  0  0  0  0  0  0  0  0  0  0
  130.2490  128.8560   60.0950 C   0  0  2  0  0  0  0  0  0  0  0  0
  131.2400  129.1900   61.2300 C   0  0  0  0  0  0  0  0  0  0  0  0
  128.9720  129.7360   60.2240 C   0  0  0  0  0  0  0  0  0  0  0  0
  128.7400  130.3910   61.6070 C   0  0  0  0  0  0  0  0  0  0  0  0
  127.2470  130.5730   61.9820 C   0  0  0  0  0  0  0  0  0  0  0  0
  126.4780  129.2740   62.3440 C   0  0  2  0  0  0  0  0  0  0  0  0
  126.8270  128.8340   63.7010 N   0  0  0  0  0  0  0  0  0  0  0  0
  127.1970  129.6440   64.7100 C   0  0  0  0  0  0  0  0  0  0  0  0
  127.3510  130.8610   64.5820 O   0  0  0  0  0  0  0  0  0  0  0  0
  127.4250  128.9350   65.9490 C   0  0  0  0  0  0  0  0  0  0  0  0
  128.6630  128.7280   66.4510 C   0  0  0  0  0  0  0  0  0  0  0  0
  128.9970  127.9970   67.7010 C   0  0  0  0  0  0  0  0  0  0  0  0
  128.9680  128.6700   68.9330 C   0  0  0  0  0  0  0  0  0  0  0  0
  129.2400  128.0050   70.1270 C   0  0  0  0  0  0  0  0  0  0  0  0
  129.1880  128.8610   71.6250 Cl  0  0  0  0  0  0  0  0  0  0  0  0
  129.5480  126.6480   70.1130 C   0  0  0  0  0  0  0  0  0  0  0  0
  129.5910  125.9590   68.9040 C   0  0  0  0  0  0  0  0  0  0  0  0
  129.3320  126.6220   67.6970 C   0  0  0  0  0  0  0  0  0  0  0  0
  129.4290  125.8610   66.5110 N   0  0  0  0  0  0  0  0  0  0  0  0
  129.8790  124.5720   66.3470 C   0  0  0  0  0  0  0  0  0  0  0  0
  129.8700  124.2300   65.0830 N   0  0  0  0  0  0  0  0  0  0  0  0
  129.4100  125.3560   64.4080 N   0  0  0  0  0  0  0  0  0  0  0  0
  129.1500  126.3760   65.3040 N   0  0  0  0  0  0  0  0  0  0  0  0
  126.7070  128.1630   61.3270 C   0  0  0  0  0  0  0  0  0  0  0  0
  126.0640  128.0000   60.1940 N   0  0  0  0  0  0  0  0  0  0  0  0
  126.4840  126.8330   59.7320 C   0  0  0  0  0  0  0  0  0  0  0  0
  127.4000  126.2010   60.5750 C   0  0  0  0  0  0  0  0  0  0  0  0
  127.5640  127.1260   61.5700 N   0  0  0  0  0  0  0  0  0  0  0  0
  130.5285  118.5217   62.3875 H   0  0  0  0  0  0  0  0  0  0  0  0
  129.3769  118.5972   61.0109 H   0  0  0  0  0  0  0  0  0  0  0  0
  130.6982  117.3802   61.0109 H   0  0  0  0  0  0  0  0  0  0  0  0
  129.2390  120.2670   60.2040 H   0  0  0  0  0  0  0  0  0  0  0  0
  127.9010  121.9230   62.2700 H   0  0  0  0  0  0  0  0  0  0  0  0
  126.9011  124.1915   62.2082 H   0  0  0  0  0  0  0  0  0  0  0  0
  130.3851  122.9257   58.8821 H   0  0  0  0  0  0  0  0  0  0  0  0
  129.6650  124.9210   57.6720 H   0  0  0  0  0  0  0  0  0  0  0  0
  128.9608  127.1704   60.5338 H   0  0  0  0  0  0  0  0  0  0  0  0
  130.7807  126.8681   60.6670 H   0  0  0  0  0  0  0  0  0  0  0  0
  130.6861  129.0963   59.1146 H   0  0  0  0  0  0  0  0  0  0  0  0
  130.7527  129.0258   62.2024 H   0  0  0  0  0  0  0  0  0  0  0  0
  132.1237  128.5400   61.1483 H   0  0  0  0  0  0  0  0  0  0  0  0
  131.5500  130.2423   61.1483 H   0  0  0  0  0  0  0  0  0  0  0  0
  129.0402  130.5406   59.4771 H   0  0  0  0  0  0  0  0  0  0  0  0
  128.1231  129.0533   60.0715 H   0  0  0  0  0  0  0  0  0  0  0  0
  129.2131  129.7579   62.3721 H   0  0  0  0  0  0  0  0  0  0  0  0
  129.1782  131.3987   61.5567 H   0  0  0  0  0  0  0  0  0  0  0  0
  127.1967  131.2477   62.8493 H   0  0  0  0  0  0  0  0  0  0  0  0
  126.7582  130.9677   61.0790 H   0  0  0  0  0  0  0  0  0  0  0  0
  125.4035  129.5076   62.3157 H   0  0  0  0  0  0  0  0  0  0  0  0
  126.5530  127.8920   63.9390 H   0  0  0  0  0  0  0  0  0  0  0  0
  126.5577  128.5491   66.5047 H   0  0  0  0  0  0  0  0  0  0  0  0
  129.5060  129.1413   65.8779 H   0  0  0  0  0  0  0  0  0  0  0  0
  128.7259  129.7428   68.9561 H   0  0  0  0  0  0  0  0  0  0  0  0
  129.7571  126.1207   71.0555 H   0  0  0  0  0  0  0  0  0  0  0  0
  129.8303  124.8854   68.8962 H   0  0  0  0  0  0  0  0  0  0  0  0
  130.2033  123.9157   67.1681 H   0  0  0  0  0  0  0  0  0  0  0  0
  126.1448  126.4034   58.7779 H   0  0  0  0  0  0  0  0  0  0  0  0
  128.1440  127.0160   62.3900 H   0  0  0  0  0  0  0  0  0  0  0  0
  1  2  1  0
  2  3  1  0
  3  4  2  0
  3  5  1  0
  5  6  1  0
  6  7  2  0
  7  8  1  0
  8  9  2  0
  9 10  1  0
 10 11  2  0
 10 12  1  0
 12 13  1  0
 13 14  2  0
 13 15  1  0
 15 16  1  0
 16 17  1  0
 16 18  1  0
 18 19  1  0
 19 20  1  0
 20 21  1  0
 21 22  1  0
 22 23  1  0
 23 24  2  0
 23 25  1  0
 25 26  2  0
 26 27  1  0
 27 28  2  0
 28 29  1  0
 29 30  1  0
 29 31  2  0
 31 32  1  0
 32 33  2  0
 33 34  1  0
 34 35  1  0
 35 36  2  0
 36 37  1  0
 37 38  2  0
 21 39  1  0
 39 40  2  0
 40 41  1  0
 41 42  2  0
 42 43  1  0
 11  6  1  0
 33 27  1  0
 38 34  1  0
 43 39  1  0
 42  9  1  0
  1 44  1  0
  1 45  1  0
  1 46  1  0
  5 47  1  0
  7 48  1  0
  8 49  1  0
 11 50  1  0
 12 51  1  0
 15 52  1  0
 15 53  1  0
 16 54  1  6
 17 55  1  0
 17 56  1  0
 17 57  1  0
 18 58  1  0
 18 59  1  0
 19 60  1  0
 19 61  1  0
 20 62  1  0
 20 63  1  0
 21 64  1  1
 22 65  1  0
 25 66  1  0
 26 67  1  0
 28 68  1  0
 31 69  1  0
 32 70  1  0
 35 71  1  0
 41 72  1  0
 43 73  1  0
M  END
>  <Binding energies>  (1) 
[-4.97]

>  <Ligand effiencies>  (1) 
[-0.10142857142857142]

>  <Interactions>  (1) 
["V-B:PRO:540:CA:9855, V-A:GLU:543:CA:4904, V-B:GLU:543:C:9874, V-B:HIS:456:CD2:9039, V-A:GLU:543:C:4902, V-B:GLU:543:CB:9878, V-B:ASP:366:CG:8184, V-B:ALA:541:CB:9864, H-A:TYR:531:OH:4795, V-B:TYR:539:CE2:9848, V-A:TYR:484:CE2:4346, V-A:LEU:475:CG:4257, V-B:GLU:543:CG:9879, V-B:TYR:539:C:9839, V-A:HIS:456:CD2:4068, V-A:ASP:366:CG:3213, V-B:TYR:539:CZ:9849, H-B:GLU:543:OE1:9881, H-B:TYR:539:OH:9850, V-A:GLU:543:CD:4908, V-A:TYR:484:CZ:4347, H-B:TYR:484:OH:9319, V-B:HIS:456:CE1:9041, V-B:GLU:543:CA:9876, V-A:HIS:456:CE1:4070, V-B:TYR:539:CD2:9846, V-A:GLU:543:CG:4907, H-A:SER:385:OG:3410, V-B:GLU:543:CD:9880, V-A:LEU:475:CD2:4259, V-A:GLU:543:CB:4906, H-A:HIS:383:HE2:3395, H-B:GLU:543:OE2:9882, H-B:TYR:539:O:9840, V-B:PRO:540:C:9853"]

$$$$
ZINC114383234
     RDKit          3D

 66 71  0  0  0  0  0  0  0  0999 V2000
  125.8600  123.2970   56.9930 C   0  0  0  0  0  0  0  0  0  0  0  0
  126.5920  124.3770   57.5620 O   0  0  0  0  0  0  0  0  0  0  0  0
  127.6230  124.1090   58.4430 C   0  0  0  0  0  0  0  0  0  0  0  0
  128.9820  124.3350   58.1550 C   0  0  0  0  0  0  0  0  0  0  0  0
  129.9700  124.0430   59.0960 C   0  0  0  0  0  0  0  0  0  0  0  0
  129.6020  123.5410   60.3440 C   0  0  0  0  0  0  0  0  0  0  0  0
  128.2720  123.3010   60.6390 C   0  0  0  0  0  0  0  0  0  0  0  0
  127.2740  123.5670   59.6890 C   0  0  0  0  0  0  0  0  0  0  0  0
  125.9500  123.3400   59.9840 O   0  0  0  0  0  0  0  0  0  0  0  0
  125.3580  124.2930   60.8600 C   0  0  0  0  0  0  0  0  0  0  0  0
  128.2080  122.7990   62.0320 C   0  0  0  0  0  0  0  0  0  0  0  0
  127.2390  122.4820   62.7180 O   0  0  0  0  0  0  0  0  0  0  0  0
  129.4770  122.7230   62.4980 O   0  0  0  0  0  0  0  0  0  0  0  0
  130.4280  123.1870   61.5470 C   0  0  2  0  0  0  0  0  0  0  0  0
  131.3080  124.3380   62.1380 C   0  0  1  0  0  0  0  0  0  0  0  0
  130.4800  125.4920   62.7570 C   0  0  0  0  0  0  0  0  0  0  0  0
  130.3180  125.5710   64.1730 C   0  0  0  0  0  0  0  0  0  0  0  0
  129.4310  126.5240   64.7350 C   0  0  0  0  0  0  0  0  0  0  0  0
  129.2150  126.6630   66.2020 C   0  0  0  0  0  0  0  0  0  0  0  0
  129.5200  125.6110   67.0720 C   0  0  0  0  0  0  0  0  0  0  0  0
  129.3190  125.7490   68.4430 C   0  0  0  0  0  0  0  0  0  0  0  0
  128.8120  126.9450   68.9550 C   0  0  0  0  0  0  0  0  0  0  0  0
  128.6080  127.1010   70.4520 C   0  0  0  0  0  0  0  0  0  0  0  0
  128.5160  128.0030   68.0960 C   0  0  0  0  0  0  0  0  0  0  0  0
  128.7180  127.8610   66.7250 C   0  0  0  0  0  0  0  0  0  0  0  0
  128.7360  127.3570   63.8620 C   0  0  0  0  0  0  0  0  0  0  0  0
  128.9100  127.3050   62.5140 C   0  0  0  0  0  0  0  0  0  0  0  0
  129.7840  126.4000   61.9330 C   0  0  0  0  0  0  0  0  0  0  0  0
  129.9100  126.4110   60.5680 O   0  0  0  0  0  0  0  0  0  0  0  0
  130.3570  127.6520   60.0380 C   0  0  0  0  0  0  0  0  0  0  0  0
  128.1530  128.2640   61.9170 O   0  0  0  0  0  0  0  0  0  0  0  0
  127.3210  128.7620   62.9270 C   0  0  0  0  0  0  0  0  0  0  0  0
  127.8620  128.3590   64.1550 O   0  0  0  0  0  0  0  0  0  0  0  0
  131.1270  124.6250   65.0740 C   0  0  0  0  0  0  0  0  0  0  0  0
  131.7890  123.4480   64.3230 C   0  0  0  0  0  0  0  0  0  0  0  0
  132.3650  123.8430   63.0350 N   0  0  0  0  0  0  0  0  0  0  0  0
  133.4630  124.8040   63.1820 C   0  0  0  0  0  0  0  0  0  0  0  0
  125.4388  122.6756   57.7970 H   0  0  0  0  0  0  0  0  0  0  0  0
  125.0443  123.6943   56.3711 H   0  0  0  0  0  0  0  0  0  0  0  0
  126.5312  122.6865   56.3711 H   0  0  0  0  0  0  0  0  0  0  0  0
  129.2687  124.7468   57.1761 H   0  0  0  0  0  0  0  0  0  0  0  0
  131.0307  124.2074   58.8554 H   0  0  0  0  0  0  0  0  0  0  0  0
  125.5423  123.9963   61.9031 H   0  0  0  0  0  0  0  0  0  0  0  0
  125.8000  125.2835   60.6769 H   0  0  0  0  0  0  0  0  0  0  0  0
  124.2742  124.3357   60.6769 H   0  0  0  0  0  0  0  0  0  0  0  0
  131.1859  122.4417   61.2640 H   0  0  0  0  0  0  0  0  0  0  0  0
  131.8252  124.7846   61.2760 H   0  0  0  0  0  0  0  0  0  0  0  0
  129.9212  124.6687   66.6706 H   0  0  0  0  0  0  0  0  0  0  0  0
  129.5592  124.9172   69.1215 H   0  0  0  0  0  0  0  0  0  0  0  0
  129.3707  126.5177   70.9887 H   0  0  0  0  0  0  0  0  0  0  0  0
  128.6984  128.1626   70.7257 H   0  0  0  0  0  0  0  0  0  0  0  0
  127.6072  126.7357   70.7257 H   0  0  0  0  0  0  0  0  0  0  0  0
  128.1238  128.9478   68.5003 H   0  0  0  0  0  0  0  0  0  0  0  0
  128.4850  128.6970   66.0491 H   0  0  0  0  0  0  0  0  0  0  0  0
  130.6033  128.3359   60.8636 H   0  0  0  0  0  0  0  0  0  0  0  0
  131.2518  127.4858   59.4201 H   0  0  0  0  0  0  0  0  0  0  0  0
  129.5618  128.0946   59.4201 H   0  0  0  0  0  0  0  0  0  0  0  0
  127.2835  129.8601   62.8754 H   0  0  0  0  0  0  0  0  0  0  0  0
  126.2969  128.3778   62.8100 H   0  0  0  0  0  0  0  0  0  0  0  0
  131.9186  125.2096   65.5656 H   0  0  0  0  0  0  0  0  0  0  0  0
  130.4165  124.1845   65.7890 H   0  0  0  0  0  0  0  0  0  0  0  0
  132.5904  123.0359   64.9539 H   0  0  0  0  0  0  0  0  0  0  0  0
  131.0043  122.7047   64.1187 H   0  0  0  0  0  0  0  0  0  0  0  0
  133.6593  124.9758   64.2506 H   0  0  0  0  0  0  0  0  0  0  0  0
  134.3682  124.4027   62.7028 H   0  0  0  0  0  0  0  0  0  0  0  0
  133.1851  125.7544   62.7028 H   0  0  0  0  0  0  0  0  0  0  0  0
  1  2  1  0
  2  3  1  0
  3  4  2  0
  4  5  1  0
  5  6  2  0
  6  7  1  0
  7  8  2  0
  8  9  1  0
  9 10  1  0
  7 11  1  0
 11 12  2  0
 11 13  1  0
 13 14  1  0
 14 15  1  0
 15 16  1  0
 16 17  2  0
 17 18  1  0
 18 19  1  0
 19 20  2  0
 20 21  1  0
 21 22  2  0
 22 23  1  0
 22 24  1  0
 24 25  2  0
 18 26  2  0
 26 27  1  0
 27 28  2  0
 28 29  1  0
 29 30  1  0
 27 31  1  0
 31 32  1  0
 32 33  1  0
 17 34  1  0
 34 35  1  0
 35 36  1  0
 36 37  1  0
  8  3  1  0
 36 15  1  0
 14  6  1  0
 28 16  1  0
 25 19  1  0
 33 26  1  0
  1 38  1  0
  1 39  1  0
  1 40  1  0
  4 41  1  0
  5 42  1  0
 10 43  1  0
 10 44  1  0
 10 45  1  0
 14 46  1  6
 15 47  1  6
 20 48  1  0
 21 49  1  0
 23 50  1  0
 23 51  1  0
 23 52  1  0
 24 53  1  0
 25 54  1  0
 30 55  1  0
 30 56  1  0
 30 57  1  0
 32 58  1  0
 32 59  1  0
 34 60  1  0
 34 61  1  0
 35 62  1  0
 35 63  1  0
 37 64  1  0
 37 65  1  0
 37 66  1  0
M  END
>  <Binding energies>  (1) 
[-6.99]

>  <Ligand effiencies>  (1) 
[-0.18891891891891893]

>  <Interactions>  (1) 
["V-B:PRO:540:CA:9855, V-B:GLU:543:C:9874, V-B:GLU:543:CB:9878, V-B:ALA:541:CB:9864, V-B:TYR:539:CE2:9848, V-B:GLU:543:CG:9879, V-B:TYR:539:CZ:9849, H-B:ALA:541:N:9863, V-A:TYR:484:CZ:4347, V-A:GLU:543:CD:4908, V-B:PRO:540:CB:9857, V-B:GLU:543:CA:9876, V-B:HIS:456:CE1:9041, V-A:HIS:456:CE1:4070, V-B:TYR:539:CD2:9846, V-A:GLU:543:CG:4907, V-B:GLU:543:CD:9880, V-A:LEU:475:CD2:4259, V-A:ARG:545:CZ:4926, V-A:GLU:543:CB:4906, V-B:MET:535:CE:9807"]

$$$$
ZINC116344415
     RDKit          3D

 51 55  0  0  0  0  0  0  0  0999 V2000
  132.3100  125.4710   66.2410 N   0  0  0  0  0  0  0  0  0  0  0  0
  132.3770  125.1860   64.8820 C   0  0  0  0  0  0  0  0  0  0  0  0
  133.6080  124.9660   64.3530 N   0  0  0  0  0  0  0  0  0  0  0  0
  133.6510  124.6940   63.0220 C   0  0  0  0  0  0  0  0  0  0  0  0
  132.5030  124.6430   62.2290 C   0  0  0  0  0  0  0  0  0  0  0  0
  131.2750  124.8890   62.8620 C   0  0  0  0  0  0  0  0  0  0  0  0
  129.9710  124.8560   62.1230 C   0  0  0  0  0  0  0  0  0  0  0  0
  129.6390  123.7680   61.4350 N   0  0  0  0  0  0  0  0  0  0  0  0
  128.4470  123.9850   60.9460 C   0  0  0  0  0  0  0  0  0  0  0  0
  127.6710  122.9950   60.0960 C   0  0  0  0  0  0  0  0  0  0  0  0
  126.6870  123.4720   59.0550 C   0  0  0  0  0  0  0  0  0  0  0  0
  127.9900  122.8190   58.6310 C   0  0  0  0  0  0  0  0  0  0  0  0
  127.9870  125.2230   61.2960 N   0  0  0  0  0  0  0  0  0  0  0  0
  128.9550  125.8310   62.0530 C   0  0  0  0  0  0  0  0  0  0  0  0
  128.8120  127.2270   62.5770 C   0  0  0  0  0  0  0  0  0  0  0  0
  128.4640  127.4200   63.9170 C   0  0  0  0  0  0  0  0  0  0  0  0
  128.3250  128.7030   64.4400 C   0  0  0  0  0  0  0  0  0  0  0  0
  127.8860  128.9170   66.0940 Cl  0  0  0  0  0  0  0  0  0  0  0  0
  128.5450  129.8130   63.6260 C   0  0  0  0  0  0  0  0  0  0  0  0
  128.9070  129.6490   62.2840 C   0  0  0  0  0  0  0  0  0  0  0  0
  129.1490  130.7410   61.4340 N   0  0  0  0  0  0  0  0  0  0  0  0
  130.7640  131.3870   61.0740 S   0  0  0  0  0  0  0  0  0  0  0  0
  130.9620  132.5510   61.9450 O   0  0  0  0  0  0  0  0  0  0  0  0
  131.7030  130.2620   61.1550 O   0  0  0  0  0  0  0  0  0  0  0  0
  130.6720  131.9470   59.3640 C   0  0  0  0  0  0  0  0  0  0  0  0
  131.7800  131.8090   58.5120 C   0  0  0  0  0  0  0  0  0  0  0  0
  132.9230  131.2220   58.9340 F   0  0  0  0  0  0  0  0  0  0  0  0
  131.7140  132.2670   57.1950 C   0  0  0  0  0  0  0  0  0  0  0  0
  130.5500  132.8630   56.7160 C   0  0  0  0  0  0  0  0  0  0  0  0
  129.4440  132.9960   57.5530 C   0  0  0  0  0  0  0  0  0  0  0  0
  129.5000  132.5410   58.8710 C   0  0  0  0  0  0  0  0  0  0  0  0
  128.4000  132.6740   59.6480 F   0  0  0  0  0  0  0  0  0  0  0  0
  129.0370  128.3520   61.7650 C   0  0  0  0  0  0  0  0  0  0  0  0
  129.3730  128.1890   60.4610 F   0  0  0  0  0  0  0  0  0  0  0  0
  131.2060  125.1530   64.1970 N   0  0  0  0  0  0  0  0  0  0  0  0
  132.1080  126.4140   66.5390 H   0  0  0  0  0  0  0  0  0  0  0  0
  132.4640  124.7300   66.9100 H   0  0  0  0  0  0  0  0  0  0  0  0
  134.6276  124.5069   62.5516 H   0  0  0  0  0  0  0  0  0  0  0  0
  132.5588  124.4194   61.1534 H   0  0  0  0  0  0  0  0  0  0  0  0
  127.6152  122.3226   60.9647 H   0  0  0  0  0  0  0  0  0  0  0  0
  125.7339  122.9412   58.9143 H   0  0  0  0  0  0  0  0  0  0  0  0
  126.1868  124.4268   58.8357 H   0  0  0  0  0  0  0  0  0  0  0  0
  127.9820  121.8145   58.1827 H   0  0  0  0  0  0  0  0  0  0  0  0
  128.8270  123.1037   57.9765 H   0  0  0  0  0  0  0  0  0  0  0  0
  127.0980  125.6250   61.0330 H   0  0  0  0  0  0  0  0  0  0  0  0
  128.2979  126.5477   64.5662 H   0  0  0  0  0  0  0  0  0  0  0  0
  128.4333  130.8254   64.0415 H   0  0  0  0  0  0  0  0  0  0  0  0
  128.3540  131.1900   61.0040 H   0  0  0  0  0  0  0  0  0  0  0  0
  132.5852  132.1567   56.5326 H   0  0  0  0  0  0  0  0  0  0  0  0
  130.5039  133.2279   55.6793 H   0  0  0  0  0  0  0  0  0  0  0  0
  128.5227  133.4617   57.1732 H   0  0  0  0  0  0  0  0  0  0  0  0
  1  2  1  0
  2  3  2  0
  3  4  1  0
  4  5  2  0
  5  6  1  0
  6  7  1  0
  7  8  1  0
  8  9  2  0
  9 10  1  0
 10 11  1  0
 11 12  1  0
  9 13  1  0
 13 14  1  0
 14 15  1  0
 15 16  2  0
 16 17  1  0
 17 18  1  0
 17 19  2  0
 19 20  1  0
 20 21  1  0
 21 22  1  0
 22 23  2  0
 22 24  2  0
 22 25  1  0
 25 26  2  0
 26 27  1  0
 26 28  1  0
 28 29  2  0
 29 30  1  0
 30 31  2  0
 31 32  1  0
 20 33  2  0
 33 34  1  0
  6 35  2  0
 35  2  1  0
 14  7  2  0
 33 15  1  0
 12 10  1  0
 31 25  1  0
  1 36  1  0
  1 37  1  0
  4 38  1  0
  5 39  1  0
 10 40  1  0
 11 41  1  0
 11 42  1  0
 12 43  1  0
 12 44  1  0
 13 45  1  0
 16 46  1  0
 19 47  1  0
 21 48  1  0
 28 49  1  0
 29 50  1  0
 30 51  1  0
M  END
>  <Binding energies>  (1) 
[-8.01]

>  <Ligand effiencies>  (1) 
[-0.2053846153846154]

>  <Interactions>  (1) 
["V-B:PRO:540:CA:9855, H-A:GLU:543:OE2:4910, H-A:ALA:541:N:4891, V-A:ILE:538:CB:4862, H-A:ARG:545:NH1:4927, V-B:TYR:539:CE2:9848, V-B:TYR:539:C:9839, V-A:ASP:366:CG:3213, V-A:LEU:363:CD1:3189, V-A:TYR:539:CD1:4873, V-A:ILE:538:CA:4860, H-B:GLU:543:OE1:9881, V-A:GLU:543:CD:4908, V-A:TYR:484:CZ:4347, V-B:PRO:540:CB:9857, H-B:ASP:366:OD1:8185, H-A:GLY:454:N:4050, V-B:PRO:540:N:9856, V-A:HIS:456:CE1:4070, V-B:TYR:539:CD2:9846, V-A:GLU:543:CG:4907, V-B:GLU:543:CD:9880, V-A:TYR:539:C:4867, V-A:ARG:545:CD:4923, H-A:ARG:545:NH2:4928, V-A:ARG:545:CZ:4926, V-A:PRO:540:N:4884, V-A:PRO:540:CB:4885, V-A:PRO:540:CA:4883, V-A:LEU:363:CA:3185, H-A:ARG:545:NE:4924, H-A:TYR:484:OH:4348"]

$$$$
ZINC116344415-again1
     RDKit          3D

 50 54  0  0  0  0  0  0  0  0999 V2000
  134.2100  124.4730   58.1250 N   0  0  0  0  0  0  0  0  0  0  0  0
  133.9580  123.9420   59.3860 C   0  0  0  0  0  0  0  0  0  0  0  0
  134.6770  124.4400   60.4240 N   0  0  0  0  0  0  0  0  0  0  0  0
  134.4100  123.9130   61.6480 C   0  0  0  0  0  0  0  0  0  0  0  0
  133.4480  122.9180   61.8430 C   0  0  0  0  0  0  0  0  0  0  0  0
  132.7520  122.4700   60.7110 C   0  0  0  0  0  0  0  0  0  0  0  0
  131.7000  121.4050   60.7880 C   0  0  0  0  0  0  0  0  0  0  0  0
  132.0620  120.1260   60.7510 N   0  0  0  0  0  0  0  0  0  0  0  0
  130.9550  119.4270   60.7800 C   0  0  0  0  0  0  0  0  0  0  0  0
  130.8640  117.9170   60.7530 C   0  0  0  0  0  0  0  0  0  0  0  0
  130.6530  117.1500   62.0330 C   0  0  0  0  0  0  0  0  0  0  0  0
  129.5500  117.2150   60.9930 C   0  0  0  0  0  0  0  0  0  0  0  0
  129.8580  120.2370   60.8510 N   0  0  0  0  0  0  0  0  0  0  0  0
  130.2990  121.5340   60.8710 C   0  0  0  0  0  0  0  0  0  0  0  0
  129.3640  122.7000   60.9940 C   0  0  0  0  0  0  0  0  0  0  0  0
  129.5970  123.6510   61.9890 C   0  0  0  0  0  0  0  0  0  0  0  0
  128.7480  124.7420   62.1350 C   0  0  0  0  0  0  0  0  0  0  0  0
  129.0560  125.9160   63.3620 Cl  0  0  0  0  0  0  0  0  0  0  0  0
  127.6470  124.8820   61.2950 C   0  0  0  0  0  0  0  0  0  0  0  0
  127.3670  123.9430   60.2850 C   0  0  0  0  0  0  0  0  0  0  0  0
  126.2890  124.0300   59.4330 N   0  0  0  0  0  0  0  0  0  0  0  0
  126.2640  124.9440   58.1580 S   0  0  0  0  0  0  0  0  0  0  0  0
  126.1780  124.2100   56.8890 O   0  0  0  0  0  0  0  0  0  0  0  0
  125.3880  126.1160   58.2680 O   0  0  0  0  0  0  0  0  0  0  0  0
  127.9520  125.5870   58.2350 C   0  0  0  0  0  0  0  0  0  0  0  0
  128.2120  126.8410   58.8140 C   0  0  0  0  0  0  0  0  0  0  0  0
  127.2240  127.5810   59.3670 F   0  0  0  0  0  0  0  0  0  0  0  0
  129.5140  127.3440   58.8470 C   0  0  0  0  0  0  0  0  0  0  0  0
  130.5660  126.6090   58.3100 C   0  0  0  0  0  0  0  0  0  0  0  0
  130.3190  125.3620   57.7390 C   0  0  0  0  0  0  0  0  0  0  0  0
  129.0220  124.8500   57.7010 C   0  0  0  0  0  0  0  0  0  0  0  0
  128.8320  123.6250   57.1570 F   0  0  0  0  0  0  0  0  0  0  0  0
  128.2490  122.8530   60.1520 C   0  0  0  0  0  0  0  0  0  0  0  0
  128.0260  121.9310   59.1810 F   0  0  0  0  0  0  0  0  0  0  0  0
  133.0110  122.9750   59.4720 N   0  0  0  0  0  0  0  0  0  0  0  0
  134.7290  123.9260   57.4540 H   0  0  0  0  0  0  0  0  0  0  0  0
  133.8420  125.3830   57.8880 H   0  0  0  0  0  0  0  0  0  0  0  0
  134.9722  124.2835   62.5179 H   0  0  0  0  0  0  0  0  0  0  0  0
  133.2455  122.5040   62.8418 H   0  0  0  0  0  0  0  0  0  0  0  0
  131.6114  117.8982   59.9462 H   0  0  0  0  0  0  0  0  0  0  0  0
  131.1925  116.2069   62.2049 H   0  0  0  0  0  0  0  0  0  0  0  0
  130.7279  117.3875   63.1044 H   0  0  0  0  0  0  0  0  0  0  0  0
  129.2895  116.3195   60.4098 H   0  0  0  0  0  0  0  0  0  0  0  0
  128.4929  117.5193   60.9960 H   0  0  0  0  0  0  0  0  0  0  0  0
  128.8950  119.9340   60.8930 H   0  0  0  0  0  0  0  0  0  0  0  0
  130.4590  123.5362   62.6626 H   0  0  0  0  0  0  0  0  0  0  0  0
  126.9800  125.7472   61.4237 H   0  0  0  0  0  0  0  0  0  0  0  0
  129.7091  128.3271   59.3002 H   0  0  0  0  0  0  0  0  0  0  0  0
  131.5896  127.0109   58.3360 H   0  0  0  0  0  0  0  0  0  0  0  0
  131.1505  124.7789   57.3164 H   0  0  0  0  0  0  0  0  0  0  0  0
  1  2  1  0
  2  3  2  0
  3  4  1  0
  4  5  2  0
  5  6  1  0
  6  7  1  0
  7  8  1  0
  8  9  2  0
  9 10  1  0
 10 11  1  0
 11 12  1  0
  9 13  1  0
 13 14  1  0
 14 15  1  0
 15 16  2  0
 16 17  1  0
 17 18  1  0
 17 19  2  0
 19 20  1  0
 20 21  1  0
 21 22  1  0
 22 23  2  0
 22 24  2  0
 22 25  1  0
 25 26  2  0
 26 27  1  0
 26 28  1  0
 28 29  2  0
 29 30  1  0
 30 31  2  0
 31 32  1  0
 20 33  2  0
 33 34  1  0
  6 35  2  0
 35  2  1  0
 14  7  2  0
 33 15  1  0
 12 10  1  0
 31 25  1  0
  1 36  1  0
  1 37  1  0
  4 38  1  0
  5 39  1  0
 10 40  1  0
 11 41  1  0
 11 42  1  0
 12 43  1  0
 12 44  1  0
 13 45  1  0
 16 46  1  0
 19 47  1  0
 28 48  1  0
 29 49  1  0
 30 50  1  0
M  CHG  1  21  -1
M  END
>  <Binding energies>  (1) 
[-6.8]

>  <Ligand effiencies>  (1) 
[-0.17894736842105263]

>  <Interactions>  (1) 
["V-A:ILE:369:CG2:3237, V-A:ASP:366:CA:3210, V-B:PRO:540:CA:9855, V-A:ILE:369:CB:3236, V-B:TYR:539:CE1:9847, V-B:ALA:541:CB:9864, V-B:TYR:539:CE2:9848, V-A:LEU:475:CG:4257, V-B:GLU:543:CG:9879, V-B:TYR:539:C:9839, V-B:TYR:539:CZ:9849, H-B:TYR:539:OH:9850, V-B:VAL:344:CG1:7972, V-A:LEU:475:CD1:4258, V-B:PRO:540:CB:9857, V-B:PRO:540:N:9856, V-A:ILE:369:CD1:3239, V-A:ASP:366:C:3208, V-A:PRO:482:CB:4326, V-B:TYR:539:CD2:9846, H-A:SER:385:OG:3410, V-B:GLU:543:CD:9880, H-B:TYR:531:OH:9767, V-A:ASP:366:CB:3212, V-A:LEU:475:CD2:4259, V-B:TYR:539:CG:9844, H-A:ASP:366:O:3209, V-B:TYR:539:CD1:9845, V-A:PRO:482:CG:4327, H-B:TYR:539:O:9840, V-B:PRO:540:C:9853, V-A:HIS:383:NE2:3394, H-B:PRO:540:O:9854"]

$$$$
ZINC1164217
     RDKit          3D

 35 37  0  0  0  0  0  0  0  0999 V2000
  130.5510  123.6060   65.1540 C   0  0  0  0  0  0  0  0  0  0  0  0
  129.8570  124.9070   64.7450 C   0  0  0  0  0  0  0  0  0  0  0  0
  129.5250  125.9180   65.6020 C   0  0  0  0  0  0  0  0  0  0  0  0
  128.7320  127.4410   65.1830 S   0  0  0  0  0  0  0  0  0  0  0  0
  128.7410  127.9950   66.8270 C   0  0  0  0  0  0  0  0  0  0  0  0
  128.0700  129.4810   67.2000 S   0  0  0  0  0  0  0  0  0  0  0  0
  129.3460  127.0550   67.6170 N   0  0  0  0  0  0  0  0  0  0  0  0
  129.5020  127.2430   69.0110 C   0  0  0  0  0  0  0  0  0  0  0  0
  130.5190  128.0750   69.4990 C   0  0  0  0  0  0  0  0  0  0  0  0
  130.6790  128.2450   70.8740 C   0  0  0  0  0  0  0  0  0  0  0  0
  129.8310  127.5860   71.7650 C   0  0  0  0  0  0  0  0  0  0  0  0
  128.8210  126.7520   71.2820 C   0  0  0  0  0  0  0  0  0  0  0  0
  127.9930  126.1030   72.1600 O   0  0  0  0  0  0  0  0  0  0  0  0
  128.6560  126.5780   69.9080 C   0  0  0  0  0  0  0  0  0  0  0  0
  129.8070  125.9140   67.0310 C   0  0  0  0  0  0  0  0  0  0  0  0
  130.3840  125.0150   67.6520 O   0  0  0  0  0  0  0  0  0  0  0  0
  129.5280  124.9820   63.3020 C   0  0  0  0  0  0  0  0  0  0  0  0
  128.6990  124.0240   62.7060 C   0  0  0  0  0  0  0  0  0  0  0  0
  128.4010  124.0980   61.3480 C   0  0  0  0  0  0  0  0  0  0  0  0
  128.9390  125.1270   60.5780 C   0  0  0  0  0  0  0  0  0  0  0  0
  128.5700  125.2210   58.8950 Cl  0  0  0  0  0  0  0  0  0  0  0  0
  129.7730  126.0810   61.1570 C   0  0  0  0  0  0  0  0  0  0  0  0
  130.0690  126.0060   62.5160 C   0  0  0  0  0  0  0  0  0  0  0  0
  130.5868  123.5388   66.2514 H   0  0  0  0  0  0  0  0  0  0  0  0
  129.9901  122.7492   64.7523 H   0  0  0  0  0  0  0  0  0  0  0  0
  131.5750  123.5947   64.7523 H   0  0  0  0  0  0  0  0  0  0  0  0
  131.1901  128.5933   68.7983 H   0  0  0  0  0  0  0  0  0  0  0  0
  131.4754  128.9000   71.2570 H   0  0  0  0  0  0  0  0  0  0  0  0
  129.9585  127.7238   72.8489 H   0  0  0  0  0  0  0  0  0  0  0  0
  127.5990  125.3110   71.7870 H   0  0  0  0  0  0  0  0  0  0  0  0
  127.8615  125.9185   69.5287 H   0  0  0  0  0  0  0  0  0  0  0  0
  128.2808  123.2083   63.3141 H   0  0  0  0  0  0  0  0  0  0  0  0
  127.7436  123.3473   60.8850 H   0  0  0  0  0  0  0  0  0  0  0  0
  130.1960  126.8901   60.5435 H   0  0  0  0  0  0  0  0  0  0  0  0
  130.7314  126.7554   62.9739 H   0  0  0  0  0  0  0  0  0  0  0  0
  1  2  1  0
  2  3  2  0
  3  4  1  0
  4  5  1  0
  5  6  2  0
  5  7  1  0
  7  8  1  0
  8  9  2  0
  9 10  1  0
 10 11  2  0
 11 12  1  0
 12 13  1  0
 12 14  2  0
  7 15  1  0
 15 16  2  0
  2 17  1  0
 17 18  2  0
 18 19  1  0
 19 20  2  0
 20 21  1  0
 20 22  1  0
 22 23  2  0
 15  3  1  0
 23 17  1  0
 14  8  1  0
  1 24  1  0
  1 25  1  0
  1 26  1  0
  9 27  1  0
 10 28  1  0
 11 29  1  0
 13 30  1  0
 14 31  1  0
 18 32  1  0
 19 33  1  0
 22 34  1  0
 23 35  1  0
M  END
>  <Binding energies>  (1) 
[-6.77]

>  <Ligand effiencies>  (1) 
[-0.2820833333333333]

>  <Interactions>  (1) 
["V-A:GLU:543:CA:4904, V-B:GLU:543:C:9874, H-B:GLU:543:O:9875, V-A:GLU:543:C:4902, V-B:GLU:543:CB:9878, H-B:LYS:547:NZ:9923, V-A:TYR:484:CE2:4346, V-B:GLU:543:CG:9879, V-A:GLY:544:C:4912, V-B:TYR:484:CE2:9317, V-A:TYR:484:CZ:4347, V-A:GLU:543:CD:4908, V-B:HIS:456:CE1:9041, V-B:TYR:484:CZ:9318, V-A:HIS:456:CE1:4070, V-A:GLU:543:CG:4907, V-B:GLU:543:CD:9880, V-A:GLU:543:CB:4906, H-B:GLY:544:O:9885, H-A:TYR:484:OH:4348"]

$$$$
ZINC1168140-again1
     RDKit          3D

 74 78  0  0  0  0  0  0  0  0999 V2000
  134.2190  125.0870   66.3530 C   0  0  0  0  0  0  0  0  0  0  0  0
  133.7520  124.4090   65.1930 O   0  0  0  0  0  0  0  0  0  0  0  0
  132.7650  124.9890   64.4150 C   0  0  0  0  0  0  0  0  0  0  0  0
  131.4820  125.3080   64.8960 C   0  0  0  0  0  0  0  0  0  0  0  0
  130.5230  125.8870   64.0600 C   0  0  0  0  0  0  0  0  0  0  0  0
  129.1180  126.2250   64.5820 C   0  0  1  0  0  0  0  0  0  0  0  0
  129.1120  126.5450   66.0920 C   0  0  0  0  0  0  0  0  0  0  0  0
  129.4180  125.6200   67.0300 C   0  0  0  0  0  0  0  0  0  0  0  0
  129.7240  124.3170   66.7800 O   0  0  0  0  0  0  0  0  0  0  0  0
  129.4760  125.9120   68.5300 C   0  0  0  0  0  0  0  0  0  0  0  0
  129.7430  127.4280   68.8480 C   0  0  0  0  0  0  0  0  0  0  0  0
  131.2620  127.7060   68.7880 C   0  0  0  0  0  0  0  0  0  0  0  0
  129.1150  127.7760   70.2130 C   0  0  0  0  0  0  0  0  0  0  0  0
  129.0840  128.3170   67.7860 C   0  0  0  0  0  0  0  0  0  0  0  0
  128.7980  127.9020   66.5350 C   0  0  0  0  0  0  0  0  0  0  0  0
  128.2080  128.7680   65.6500 N   0  0  0  0  0  0  0  0  0  0  0  0
  127.9630  128.4920   64.3250 C   0  0  0  0  0  0  0  0  0  0  0  0
  128.3980  127.3310   63.7560 C   0  0  0  0  0  0  0  0  0  0  0  0
  128.1830  127.0730   62.3110 C   0  0  0  0  0  0  0  0  0  0  0  0
  128.3270  125.9560   61.8130 O   0  0  0  0  0  0  0  0  0  0  0  0
  127.5690  128.2150   61.4780 C   0  0  0  0  0  0  0  0  0  0  0  0
  127.8270  129.6350   62.0530 C   0  0  0  0  0  0  0  0  0  0  0  0
  129.3400  129.9810   61.9760 C   0  0  0  0  0  0  0  0  0  0  0  0
  126.9610  130.6300   61.2510 C   0  0  0  0  0  0  0  0  0  0  0  0
  127.3310  129.6370   63.5280 C   0  0  0  0  0  0  0  0  0  0  0  0
  130.8530  126.1570   62.7310 C   0  0  0  0  0  0  0  0  0  0  0  0
  132.1200  125.8510   62.2430 C   0  0  0  0  0  0  0  0  0  0  0  0
  133.0850  125.2620   63.0770 C   0  0  0  0  0  0  0  0  0  0  0  0
  134.3590  124.9240   62.6560 O   0  0  0  0  0  0  0  0  0  0  0  0
  134.5500  124.3820   61.3500 C   0  0  0  0  0  0  0  0  0  0  0  0
  133.6970  123.1330   61.1920 C   0  0  0  0  0  0  0  0  0  0  0  0
  134.2180  121.8820   61.5300 C   0  0  0  0  0  0  0  0  0  0  0  0
  133.4350  120.7390   61.3820 C   0  0  0  0  0  0  0  0  0  0  0  0
  132.1300  120.8450   60.8970 C   0  0  0  0  0  0  0  0  0  0  0  0
  131.2850  119.5940   60.7410 C   0  0  0  0  0  0  0  0  0  0  0  0
  131.6050  122.0960   60.5680 C   0  0  0  0  0  0  0  0  0  0  0  0
  132.3870  123.2380   60.7150 C   0  0  0  0  0  0  0  0  0  0  0  0
  133.8596  124.5653   67.2522 H   0  0  0  0  0  0  0  0  0  0  0  0
  135.3189  125.1005   66.3519 H   0  0  0  0  0  0  0  0  0  0  0  0
  133.8396  126.1195   66.3519 H   0  0  0  0  0  0  0  0  0  0  0  0
  131.2297  125.0986   65.9460 H   0  0  0  0  0  0  0  0  0  0  0  0
  128.5286  125.3072   64.4400 H   0  0  0  0  0  0  0  0  0  0  0  0
  130.6680  124.1830   66.8940 H   0  0  0  0  0  0  0  0  0  0  0  0
  128.5155  125.6225   68.9813 H   0  0  0  0  0  0  0  0  0  0  0  0
  130.3145  125.3346   68.9466 H   0  0  0  0  0  0  0  0  0  0  0  0
  131.6620  127.7792   69.8101 H   0  0  0  0  0  0  0  0  0  0  0  0
  131.7643  126.8849   68.2556 H   0  0  0  0  0  0  0  0  0  0  0  0
  131.4409  128.6518   68.2556 H   0  0  0  0  0  0  0  0  0  0  0  0
  129.7685  127.4138   71.0203 H   0  0  0  0  0  0  0  0  0  0  0  0
  128.9996  128.8668   70.2961 H   0  0  0  0  0  0  0  0  0  0  0  0
  128.1290  127.2956   70.2961 H   0  0  0  0  0  0  0  0  0  0  0  0
  128.8303  129.3516   68.0602 H   0  0  0  0  0  0  0  0  0  0  0  0
  127.9520  129.6820   65.9930 H   0  0  0  0  0  0  0  0  0  0  0  0
  127.9956  128.1706   60.4651 H   0  0  0  0  0  0  0  0  0  0  0  0
  126.4796  128.0633   61.4897 H   0  0  0  0  0  0  0  0  0  0  0  0
  129.7471  130.0741   62.9936 H   0  0  0  0  0  0  0  0  0  0  0  0
  129.8722  129.1814   61.4399 H   0  0  0  0  0  0  0  0  0  0  0  0
  129.4717  130.9325   61.4399 H   0  0  0  0  0  0  0  0  0  0  0  0
  126.4016  131.2727   61.9467 H   0  0  0  0  0  0  0  0  0  0  0  0
  127.6097  131.2528   60.6174 H   0  0  0  0  0  0  0  0  0  0  0  0
  126.2547  130.0735   60.6174 H   0  0  0  0  0  0  0  0  0  0  0  0
  127.6032  130.5940   63.9971 H   0  0  0  0  0  0  0  0  0  0  0  0
  126.2393  129.5019   63.5292 H   0  0  0  0  0  0  0  0  0  0  0  0
  130.1068  126.6147   62.0649 H   0  0  0  0  0  0  0  0  0  0  0  0
  132.3681  126.0724   61.1945 H   0  0  0  0  0  0  0  0  0  0  0  0
  134.2535  125.1267   60.5966 H   0  0  0  0  0  0  0  0  0  0  0  0
  135.6100  124.1231   61.2109 H   0  0  0  0  0  0  0  0  0  0  0  0
  135.2459  121.7991   61.9128 H   0  0  0  0  0  0  0  0  0  0  0  0
  133.8449  119.7533   61.6472 H   0  0  0  0  0  0  0  0  0  0  0  0
  131.0212  119.2034   61.7349 H   0  0  0  0  0  0  0  0  0  0  0  0
  130.3664  119.8387   60.1875 H   0  0  0  0  0  0  0  0  0  0  0  0
  131.8550  118.8332   60.1875 H   0  0  0  0  0  0  0  0  0  0  0  0
  130.5743  122.1791   60.1929 H   0  0  0  0  0  0  0  0  0  0  0  0
  131.9740  124.2240   60.4557 H   0  0  0  0  0  0  0  0  0  0  0  0
  1  2  1  0
  2  3  1  0
  3  4  2  0
  4  5  1  0
  5  6  1  0
  6  7  1  0
  7  8  2  0
  8  9  1  0
  8 10  1  0
 10 11  1  0
 11 12  1  0
 11 13  1  0
 11 14  1  0
 14 15  2  0
 15 16  1  0
 16 17  1  0
 17 18  2  0
 18 19  1  0
 19 20  2  0
 19 21  1  0
 21 22  1  0
 22 23  1  0
 22 24  1  0
 22 25  1  0
  5 26  2  0
 26 27  1  0
 27 28  2  0
 28 29  1  0
 29 30  1  0
 30 31  1  0
 31 32  2  0
 32 33  1  0
 33 34  2  0
 34 35  1  0
 34 36  1  0
 36 37  2  0
 28  3  1  0
 37 31  1  0
 18  6  1  0
 15  7  1  0
 25 17  1  0
  1 38  1  0
  1 39  1  0
  1 40  1  0
  4 41  1  0
  6 42  1  1
  9 43  1  0
 10 44  1  0
 10 45  1  0
 12 46  1  0
 12 47  1  0
 12 48  1  0
 13 49  1  0
 13 50  1  0
 13 51  1  0
 14 52  1  0
 16 53  1  0
 21 54  1  0
 21 55  1  0
 23 56  1  0
 23 57  1  0
 23 58  1  0
 24 59  1  0
 24 60  1  0
 24 61  1  0
 25 62  1  0
 25 63  1  0
 26 64  1  0
 27 65  1  0
 30 66  1  0
 30 67  1  0
 32 68  1  0
 33 69  1  0
 35 70  1  0
 35 71  1  0
 35 72  1  0
 36 73  1  0
 37 74  1  0
M  END
>  <Binding energies>  (1) 
[-8.15]

>  <Ligand effiencies>  (1) 
[-0.20897435897435898]

>  <Interactions>  (1) 
["V-A:ILE:369:CG2:3237, V-A:GLY:454:CA:4049, V-B:GLU:543:C:9874, V-A:GLU:543:C:4902, V-B:GLU:543:CB:9878, H-A:ARG:545:NH1:4927, V-B:TYR:539:CE2:9848, V-B:GLU:543:CG:9879, V-A:ASP:366:CG:3213, V-A:GLU:543:CD:4908, H-B:TYR:484:OH:9319, V-A:ARG:545:CG:4922, H-A:GLY:454:N:4050, V-A:SER:385:C:3405, V-A:GLY:453:C:4042, V-B:GLU:543:CA:9876, V-B:HIS:456:CE1:9041, V-A:ILE:369:CD1:3239, V-A:HIS:456:CE1:4070, V-B:TYR:539:CD2:9846, V-A:GLU:543:CG:4907, V-A:SER:385:CB:3409, V-B:GLU:543:CD:9880, V-A:ARG:545:CD:4923, V-A:LEU:475:CD2:4259, H-A:ARG:545:NH2:4928, V-A:ARG:545:CZ:4926, V-A:GLU:543:CB:4906, H-A:ARG:545:NE:4924, V-A:SER:385:CA:3407, H-A:TYR:484:OH:4348"]

$$$$
ZINC1175764-again1
     RDKit          3D

 41 44  0  0  0  0  0  0  0  0999 V2000
  131.1590  127.3450   59.4120 O   0  0  0  0  0  0  0  0  0  0  0  0
  130.3670  127.7940   58.5700 C   0  0  0  0  0  0  0  0  0  0  0  0
  129.3430  126.9380   57.9290 C   0  0  0  0  0  0  0  0  0  0  0  0
  129.4190  125.5910   58.1710 C   0  0  0  0  0  0  0  0  0  0  0  0
  128.6280  124.4580   57.6950 C   0  0  0  0  0  0  0  0  0  0  0  0
  128.1350  124.1590   56.4280 C   0  0  0  0  0  0  0  0  0  0  0  0
  127.4960  122.9230   56.4790 C   0  0  0  0  0  0  0  0  0  0  0  0
  127.6140  122.4710   57.7790 C   0  0  0  0  0  0  0  0  0  0  0  0
  128.2960  123.4010   58.5360 N   0  0  0  0  0  0  0  0  0  0  0  0
  128.5800  123.2640   59.9150 C   0  0  0  0  0  0  0  0  0  0  0  0
  128.1720  124.2510   60.8190 C   0  0  0  0  0  0  0  0  0  0  0  0
  128.4590  124.1100   62.1740 C   0  0  0  0  0  0  0  0  0  0  0  0
  129.1460  122.9840   62.6230 C   0  0  0  0  0  0  0  0  0  0  0  0
  129.5030  122.8140   64.3030 Cl  0  0  0  0  0  0  0  0  0  0  0  0
  129.5480  121.9940   61.7270 C   0  0  0  0  0  0  0  0  0  0  0  0
  129.2630  122.1310   60.3710 C   0  0  0  0  0  0  0  0  0  0  0  0
  128.3400  127.6200   57.0900 C   0  0  0  0  0  0  0  0  0  0  0  0
  127.3330  127.0450   56.6450 O   0  0  0  0  0  0  0  0  0  0  0  0
  128.4190  128.8630   56.8150 N   0  0  0  0  0  0  0  0  0  0  0  0
  129.4380  129.6780   57.2930 C   0  0  0  0  0  0  0  0  0  0  0  0
  129.4210  131.2710   56.7630 S   0  0  0  0  0  0  0  0  0  0  0  0
  130.3790  129.1310   58.1800 N   0  0  0  0  0  0  0  0  0  0  0  0
  131.4080  129.9280   58.7550 C   0  0  0  0  0  0  0  0  0  0  0  0
  132.5530  130.2440   58.0120 C   0  0  0  0  0  0  0  0  0  0  0  0
  133.5650  131.0150   58.5850 C   0  0  0  0  0  0  0  0  0  0  0  0
  133.4400  131.4700   59.8980 C   0  0  0  0  0  0  0  0  0  0  0  0
  132.3050  131.1510   60.6440 C   0  0  0  0  0  0  0  0  0  0  0  0
  132.1550  131.7120   62.2700 Cl  0  0  0  0  0  0  0  0  0  0  0  0
  131.2890  130.3800   60.0770 C   0  0  0  0  0  0  0  0  0  0  0  0
  130.2323  125.3082   58.8556 H   0  0  0  0  0  0  0  0  0  0  0  0
  128.2338  124.7937   55.5350 H   0  0  0  0  0  0  0  0  0  0  0  0
  126.9950  122.4071   55.6466 H   0  0  0  0  0  0  0  0  0  0  0  0
  127.2230  121.5137   58.1541 H   0  0  0  0  0  0  0  0  0  0  0  0
  127.6260  125.1359   60.4601 H   0  0  0  0  0  0  0  0  0  0  0  0
  128.1443  124.8853   62.8881 H   0  0  0  0  0  0  0  0  0  0  0  0
  130.0886  121.1076   62.0903 H   0  0  0  0  0  0  0  0  0  0  0  0
  129.5738  121.3510   59.6604 H   0  0  0  0  0  0  0  0  0  0  0  0
  132.6541  129.8844   56.9774 H   0  0  0  0  0  0  0  0  0  0  0  0
  134.4629  131.2645   58.0006 H   0  0  0  0  0  0  0  0  0  0  0  0
  134.2375  132.0812   60.3457 H   0  0  0  0  0  0  0  0  0  0  0  0
  130.3956  130.1271   60.6668 H   0  0  0  0  0  0  0  0  0  0  0  0
  1  2  2  0
  2  3  1  0
  3  4  2  0
  4  5  1  0
  5  6  2  0
  6  7  1  0
  7  8  2  0
  8  9  1  0
  9 10  1  0
 10 11  2  0
 11 12  1  0
 12 13  2  0
 13 14  1  0
 13 15  1  0
 15 16  2  0
  3 17  1  0
 17 18  1  0
 17 19  2  0
 19 20  1  0
 20 21  2  0
 20 22  1  0
 22 23  1  0
 23 24  2  0
 24 25  1  0
 25 26  2  0
 26 27  1  0
 27 28  1  0
 27 29  2  0
 22  2  1  0
 29 23  1  0
  9  5  1  0
 16 10  1  0
  4 30  1  0
  6 31  1  0
  7 32  1  0
  8 33  1  0
 11 34  1  0
 12 35  1  0
 15 36  1  0
 16 37  1  0
 24 38  1  0
 25 39  1  0
 26 40  1  0
 29 41  1  0
M  CHG  1  18  -1
M  END
>  <Binding energies>  (1) 
[-6.62]

>  <Ligand effiencies>  (1) 
[-0.22827586206896552]

>  <Interactions>  (1) 
["V-B:PRO:540:CA:9855, V-B:ALA:541:CB:9864, V-B:TYR:539:CE2:9848, V-B:GLU:543:CG:9879, V-B:TYR:539:C:9839, V-A:ASP:366:CG:3213, V-A:LEU:363:CD1:3189, V-A:LEU:363:CB:3187, V-B:TYR:539:CZ:9849, V-A:TYR:531:CE2:4793, V-A:GLU:543:CD:4908, V-B:PRO:540:N:9856, V-B:TYR:539:CD2:9846, V-A:MET:535:CE:4835, V-B:GLU:543:CD:9880, H-B:TYR:531:OH:9767, V-A:ASP:366:CB:3212, V-B:TYR:539:CG:9844, V-B:TYR:539:CD1:9845, V-A:PRO:540:CB:4885, V-A:LEU:363:CA:3185, V-A:PRO:540:CA:4883, V-B:TYR:539:CE1:9847"]

$$$$
ZINC118918676
     RDKit          3D

 86 90  0  0  0  0  0  0  0  0999 V2000
  131.2520  133.2700   57.3060 C   0  0  0  0  0  0  0  0  0  0  0  0
  131.4300  132.2640   57.9770 C   0  0  0  0  0  0  0  0  0  0  0  0
  131.6360  131.0510   58.8040 C   0  0  1  0  0  0  0  0  0  0  0  0
  132.8300  130.4620   58.3070 O   0  0  0  0  0  0  0  0  0  0  0  0
  131.8300  131.4010   60.3090 C   0  0  0  0  0  0  0  0  0  0  0  0
  131.2980  130.2030   61.1240 C   0  0  0  0  0  0  0  0  0  0  0  0
  130.8330  129.1900   60.0700 C   0  0  1  0  0  0  0  0  0  0  0  0
  129.7730  128.1140   60.4410 C   0  0  2  0  0  0  0  0  0  0  0  0
  130.2030  127.2960   61.6720 C   0  0  0  0  0  0  0  0  0  0  0  0
  129.1470  126.2480   62.0440 C   0  0  0  0  0  0  0  0  0  0  0  0
  128.8970  125.3120   60.8580 C   0  0  0  0  0  0  0  0  0  0  0  0
  128.9810  123.9690   60.9910 C   0  0  0  0  0  0  0  0  0  0  0  0
  128.6490  122.9840   59.9860 C   0  0  0  0  0  0  0  0  0  0  0  0
  128.8400  121.7230   60.0500 N   0  0  0  0  0  0  0  0  0  0  0  0
  129.5100  121.3400   61.2370 O   0  0  0  0  0  0  0  0  0  0  0  0
  130.6880  120.5860   60.9290 C   0  0  0  0  0  0  0  0  0  0  0  0
  131.9800  121.3840   61.2070 C   0  0  0  0  0  0  0  0  0  0  0  0
  133.0480  120.7830   61.3200 O   0  0  0  0  0  0  0  0  0  0  0  0
  131.8780  122.7230   61.3110 N   0  0  0  0  0  0  0  0  0  0  0  0
  132.9790  123.6870   61.4850 C   0  0  1  0  0  0  0  0  0  0  0  0
  132.5040  125.0310   60.9130 C   0  0  0  0  0  0  0  0  0  0  0  0
  132.8410  126.1180   61.3890 O   0  0  0  0  0  0  0  0  0  0  0  0
  131.7360  124.8940   59.7990 O   0  0  0  0  0  0  0  0  0  0  0  0
  132.2170  125.2870   58.5210 C   0  0  0  0  0  0  0  0  0  0  0  0
  133.5990  124.6670   58.2950 C   0  0  0  0  0  0  0  0  0  0  0  0
  133.4450  123.7790   62.9740 C   0  0  1  0  0  0  0  0  0  0  0  0
  134.4510  124.7680   63.1470 O   0  0  0  0  0  0  0  0  0  0  0  0
  132.2410  123.9910   63.8970 C   0  0  0  0  0  0  0  0  0  0  0  0
  131.3350  122.9530   64.1580 C   0  0  0  0  0  0  0  0  0  0  0  0
  130.2580  123.1620   65.0150 C   0  0  0  0  0  0  0  0  0  0  0  0
  130.0850  124.4080   65.6130 C   0  0  0  0  0  0  0  0  0  0  0  0
  130.9790  125.4460   65.3630 C   0  0  0  0  0  0  0  0  0  0  0  0
  132.0570  125.2370   64.5070 C   0  0  0  0  0  0  0  0  0  0  0  0
  128.0010  123.5480   58.7200 C   0  0  0  0  0  0  0  0  0  0  0  0
  128.5740  124.9400   58.3750 C   0  0  0  0  0  0  0  0  0  0  0  0
  128.5160  126.0020   59.5200 C   0  0  1  0  0  0  0  0  0  0  0  0
  127.0650  126.5370   59.6490 C   0  0  0  0  0  0  0  0  0  0  0  0
  129.5640  127.1480   59.2270 C   0  0  1  0  0  0  0  0  0  0  0  0
  129.2880  127.9330   57.9020 C   0  0  0  0  0  0  0  0  0  0  0  0
  130.3250  129.0530   57.6380 C   0  0  0  0  0  0  0  0  0  0  0  0
  130.4260  130.0400   58.8380 C   0  0  2  0  0  0  0  0  0  0  0  0
  129.0570  130.7840   59.0300 C   0  0  0  0  0  0  0  0  0  0  0  0
  131.0918  134.1754   56.7021 H   0  0  0  0  0  0  0  0  0  0  0  0
  133.2350  129.9560   59.0140 H   0  0  0  0  0  0  0  0  0  0  0  0
  132.8967  131.5609   60.5251 H   0  0  0  0  0  0  0  0  0  0  0  0
  131.2905  132.3234   60.5699 H   0  0  0  0  0  0  0  0  0  0  0  0
  132.0954  129.7742   61.7487 H   0  0  0  0  0  0  0  0  0  0  0  0
  130.4872  130.4928   61.8086 H   0  0  0  0  0  0  0  0  0  0  0  0
  131.6787  128.5083   59.8967 H   0  0  0  0  0  0  0  0  0  0  0  0
  128.8338  128.6324   60.6843 H   0  0  0  0  0  0  0  0  0  0  0  0
  131.1512  126.7851   61.4488 H   0  0  0  0  0  0  0  0  0  0  0  0
  130.3214  127.9849   62.5214 H   0  0  0  0  0  0  0  0  0  0  0  0
  129.5037  125.6604   62.9028 H   0  0  0  0  0  0  0  0  0  0  0  0
  128.2082  126.7584   62.3051 H   0  0  0  0  0  0  0  0  0  0  0  0
  129.3371  123.5882   61.9596 H   0  0  0  0  0  0  0  0  0  0  0  0
  130.6957  119.6739   61.5438 H   0  0  0  0  0  0  0  0  0  0  0  0
  130.6640  120.3451   59.8560 H   0  0  0  0  0  0  0  0  0  0  0  0
  130.9590  123.1360   61.2490 H   0  0  0  0  0  0  0  0  0  0  0  0
  133.8748  123.3565   60.9389 H   0  0  0  0  0  0  0  0  0  0  0  0
  131.5238  124.9361   57.7423 H   0  0  0  0  0  0  0  0  0  0  0  0
  132.2897  126.3835   58.4728 H   0  0  0  0  0  0  0  0  0  0  0  0
  134.0695  124.4559   59.2666 H   0  0  0  0  0  0  0  0  0  0  0  0
  133.4924  123.7304   57.7280 H   0  0  0  0  0  0  0  0  0  0  0  0
  134.2277  125.3693   57.7280 H   0  0  0  0  0  0  0  0  0  0  0  0
  133.9093  122.8224   63.2558 H   0  0  0  0  0  0  0  0  0  0  0  0
  134.3830  125.3990   62.4270 H   0  0  0  0  0  0  0  0  0  0  0  0
  131.4758  121.9704   63.6840 H   0  0  0  0  0  0  0  0  0  0  0  0
  129.5474  122.3474   65.2188 H   0  0  0  0  0  0  0  0  0  0  0  0
  129.2336  124.5737   66.2895 H   0  0  0  0  0  0  0  0  0  0  0  0
  130.8341  126.4267   65.8397 H   0  0  0  0  0  0  0  0  0  0  0  0
  132.7665  126.0541   64.3095 H   0  0  0  0  0  0  0  0  0  0  0  0
  128.1937  122.8623   57.8817 H   0  0  0  0  0  0  0  0  0  0  0  0
  126.9199  123.6490   58.8961 H   0  0  0  0  0  0  0  0  0  0  0  0
  129.6280  124.8096   58.0886 H   0  0  0  0  0  0  0  0  0  0  0  0
  127.9371  125.3341   57.5694 H   0  0  0  0  0  0  0  0  0  0  0  0
  126.8031  126.6336   60.7130 H   0  0  0  0  0  0  0  0  0  0  0  0
  126.9924  127.5210   59.1627 H   0  0  0  0  0  0  0  0  0  0  0  0
  126.3710  125.8356   59.1627 H   0  0  0  0  0  0  0  0  0  0  0  0
  130.5153  126.6176   59.0733 H   0  0  0  0  0  0  0  0  0  0  0  0
  129.3156  127.2238   57.0616 H   0  0  0  0  0  0  0  0  0  0  0  0
  128.3027  128.4120   58.0011 H   0  0  0  0  0  0  0  0  0  0  0  0
  131.3104  128.5939   57.4703 H   0  0  0  0  0  0  0  0  0  0  0  0
  129.9986  129.6206   56.7541 H   0  0  0  0  0  0  0  0  0  0  0  0
  128.8487  130.8972   60.1041 H   0  0  0  0  0  0  0  0  0  0  0  0
  129.1104  131.7772   58.5602 H   0  0  0  0  0  0  0  0  0  0  0  0
  128.2527  130.1989   58.5602 H   0  0  0  0  0  0  0  0  0  0  0  0
  1  2  3  0
  3  2  1  6
  3  4  1  0
  3  5  1  0
  5  6  1  0
  6  7  1  0
  7  8  1  0
  8  9  1  0
  9 10  1  0
 10 11  1  0
 11 12  2  0
 12 13  1  0
 13 14  2  0
 14 15  1  0
 15 16  1  0
 16 17  1  0
 17 18  2  0
 17 19  1  0
 19 20  1  0
 20 21  1  0
 21 22  2  0
 21 23  1  0
 23 24  1  0
 24 25  1  0
 20 26  1  0
 26 27  1  0
 26 28  1  0
 28 29  2  0
 29 30  1  0
 30 31  2  0
 31 32  1  0
 32 33  2  0
 13 34  1  0
 34 35  1  0
 35 36  1  0
 36 37  1  1
 36 38  1  0
 38 39  1  0
 39 40  1  0
 40 41  1  0
 41 42  1  1
 41  3  1  0
 41  7  1  0
 38  8  1  0
 36 11  1  0
 33 28  1  0
  1 43  1  0
  4 44  1  0
  5 45  1  0
  5 46  1  0
  6 47  1  0
  6 48  1  0
  7 49  1  6
  8 50  1  1
  9 51  1  0
  9 52  1  0
 10 53  1  0
 10 54  1  0
 12 55  1  0
 16 56  1  0
 16 57  1  0
 19 58  1  0
 20 59  1  6
 24 60  1  0
 24 61  1  0
 25 62  1  0
 25 63  1  0
 25 64  1  0
 26 65  1  1
 27 66  1  0
 29 67  1  0
 30 68  1  0
 31 69  1  0
 32 70  1  0
 33 71  1  0
 34 72  1  0
 34 73  1  0
 35 74  1  0
 35 75  1  0
 37 76  1  0
 37 77  1  0
 37 78  1  0
 38 79  1  6
 39 80  1  0
 39 81  1  0
 40 82  1  0
 40 83  1  0
 42 84  1  0
 42 85  1  0
 42 86  1  0
M  END
>  <Binding energies>  (1) 
[-8.75]

>  <Ligand effiencies>  (1) 
[-0.19444444444444445]

>  <Interactions>  (1) 
["V-A:ILE:369:CG2:3237, V-A:ASP:366:CA:3210, V-B:PRO:540:CA:9855, V-A:PRO:540:CG:4886, V-A:GLY:454:CA:4049, V-A:ILE:369:CB:3236, V-B:GLU:543:CB:9878, V-A:ILE:538:CB:4862, H-A:ARG:545:NH1:4927, V-B:TYR:539:CE2:9848, V-A:TYR:484:CE2:4346, V-B:GLU:543:CG:9879, V-A:ASP:366:CG:3213, V-A:LEU:363:CD1:3189, V-B:TYR:539:CZ:9849, V-A:TYR:484:CZ:4347, V-A:GLU:543:CD:4908, H-A:GLY:454:N:4050, V-A:ASP:366:C:3208, V-B:TYR:539:CD2:9846, H-A:SER:385:OG:3410, V-A:TYR:539:C:4867, V-A:ASP:366:CB:3212, V-A:LEU:475:CD2:4259, H-A:ARG:545:NH2:4928, V-A:ARG:545:CZ:4926, H-A:ASP:366:OD1:3214, V-A:PRO:540:N:4884, V-A:PRO:540:CB:4885, V-A:PRO:540:CA:4883, H-A:ASP:366:OD2:3215, V-A:PRO:540:CD:4887"]

$$$$
ZINC118921763
     RDKit          3D

 89 93  0  0  0  0  0  0  0  0999 V2000
  129.1800  125.7730   57.6150 C   0  0  0  0  0  0  0  0  0  0  0  0
  130.5740  125.9380   58.2520 C   0  0  0  0  0  0  0  0  0  0  0  0
  130.7070  127.2680   59.0350 C   0  0  0  0  0  0  0  0  0  0  0  0
  130.8660  124.6990   59.1460 C   0  0  0  0  0  0  0  0  0  0  0  0
  132.3450  124.6010   59.6140 C   0  0  1  0  0  0  0  0  0  0  0  0
  132.6820  123.3590   60.5090 C   0  0  1  0  0  0  0  0  0  0  0  0
  132.8260  123.7600   62.0140 C   0  0  0  0  0  0  0  0  0  0  0  0
  134.2640  123.7610   62.5980 C   0  0  0  0  0  0  0  0  0  0  0  0
  134.9450  122.7300   62.3930 O   0  0  0  0  0  0  0  0  0  0  0  0
  134.6690  124.7420   63.2630 O   0  0  0  0  0  0  0  0  0  0  0  0
  131.7100  122.2620   60.3830 N   0  0  0  0  0  0  0  0  0  0  0  0
  131.8830  120.9800   60.7620 C   0  0  0  0  0  0  0  0  0  0  0  0
  132.9450  120.5430   61.2040 O   0  0  0  0  0  0  0  0  0  0  0  0
  130.6790  120.0260   60.6170 C   0  0  0  0  0  0  0  0  0  0  0  0
  129.5620  120.4380   61.4120 O   0  0  0  0  0  0  0  0  0  0  0  0
  129.3500  121.8290   61.2730 N   0  0  0  0  0  0  0  0  0  0  0  0
  129.7050  122.4850   62.3070 C   0  0  0  0  0  0  0  0  0  0  0  0
  129.5580  123.9120   62.3470 C   0  0  0  0  0  0  0  0  0  0  0  0
  129.8750  124.7350   63.3720 C   0  0  0  0  0  0  0  0  0  0  0  0
  129.7750  126.2550   63.2230 C   0  0  0  0  0  0  0  0  0  0  0  0
  128.9780  126.8440   64.3910 C   0  0  0  0  0  0  0  0  0  0  0  0
  129.6560  126.5210   65.7350 C   0  0  2  0  0  0  0  0  0  0  0  0
  129.6850  124.9680   65.9170 C   0  0  2  0  0  0  0  0  0  0  0  0
  130.1970  124.5590   67.3380 C   0  0  0  0  0  0  0  0  0  0  0  0
  129.4660  125.3130   68.4760 C   0  0  0  0  0  0  0  0  0  0  0  0
  129.5640  126.8560   68.2960 C   0  0  1  0  0  0  0  0  0  0  0  0
  131.0590  127.3140   68.3840 C   0  0  0  0  0  0  0  0  0  0  0  0
  128.9070  127.1770   66.9300 C   0  0  1  0  0  0  0  0  0  0  0  0
  128.6790  128.6920   66.9450 C   0  0  0  0  0  0  0  0  0  0  0  0
  128.4480  129.0380   68.4290 C   0  0  0  0  0  0  0  0  0  0  0  0
  128.6890  127.7410   69.2530 C   0  0  1  0  0  0  0  0  0  0  0  0
  127.3380  127.1040   69.6800 C   0  0  0  0  0  0  0  0  0  0  0  0
  129.2890  128.0270   70.5070 O   0  0  0  0  0  0  0  0  0  0  0  0
  130.4110  124.2110   64.7330 C   0  0  2  0  0  0  0  0  0  0  0  0
  131.9490  124.4210   64.7460 C   0  0  0  0  0  0  0  0  0  0  0  0
  130.0890  122.6860   64.8330 C   0  0  0  0  0  0  0  0  0  0  0  0
  130.3360  121.8450   63.5610 C   0  0  0  0  0  0  0  0  0  0  0  0
  133.2260  124.6670   58.3400 C   0  0  0  0  0  0  0  0  0  0  0  0
  132.8830  125.8840   57.4590 C   0  0  0  0  0  0  0  0  0  0  0  0
  131.4870  125.8910   57.1460 O   0  0  0  0  0  0  0  0  0  0  0  0
  128.4228  125.6834   58.4079 H   0  0  0  0  0  0  0  0  0  0  0  0
  128.9556  126.6509   56.9913 H   0  0  0  0  0  0  0  0  0  0  0  0
  129.1668  124.8670   56.9913 H   0  0  0  0  0  0  0  0  0  0  0  0
  130.6863  127.0612   60.1152 H   0  0  0  0  0  0  0  0  0  0  0  0
  131.6582  127.7542   58.7729 H   0  0  0  0  0  0  0  0  0  0  0  0
  129.8709  127.9330   58.7729 H   0  0  0  0  0  0  0  0  0  0  0  0
  130.2228  124.7540   60.0367 H   0  0  0  0  0  0  0  0  0  0  0  0
  130.6621  123.8069   58.5356 H   0  0  0  0  0  0  0  0  0  0  0  0
  132.5514  125.4432   60.2908 H   0  0  0  0  0  0  0  0  0  0  0  0
  133.6462  122.9862   60.1330 H   0  0  0  0  0  0  0  0  0  0  0  0
  132.4181  124.7750   62.1295 H   0  0  0  0  0  0  0  0  0  0  0  0
  132.2858  122.9828   62.5744 H   0  0  0  0  0  0  0  0  0  0  0  0
  130.7910  122.5310   60.0610 H   0  0  0  0  0  0  0  0  0  0  0  0
  130.3720  120.0014   59.5610 H   0  0  0  0  0  0  0  0  0  0  0  0
  130.9930  119.0314   60.9667 H   0  0  0  0  0  0  0  0  0  0  0  0
  129.1425  124.3877   61.4464 H   0  0  0  0  0  0  0  0  0  0  0  0
  130.7862  126.6878   63.2169 H   0  0  0  0  0  0  0  0  0  0  0  0
  129.2621  126.4926   62.2793 H   0  0  0  0  0  0  0  0  0  0  0  0
  128.9168  127.9358   64.2714 H   0  0  0  0  0  0  0  0  0  0  0  0
  127.9711  126.4010   64.3891 H   0  0  0  0  0  0  0  0  0  0  0  0
  130.6772  126.9296   65.7218 H   0  0  0  0  0  0  0  0  0  0  0  0
  128.6418  124.6241   65.8583 H   0  0  0  0  0  0  0  0  0  0  0  0
  130.0375  123.4789   67.4722 H   0  0  0  0  0  0  0  0  0  0  0  0
  131.2633  124.8228   67.3958 H   0  0  0  0  0  0  0  0  0  0  0  0
  128.4057  125.0201   68.4748 H   0  0  0  0  0  0  0  0  0  0  0  0
  129.9460  125.0465   69.4292 H   0  0  0  0  0  0  0  0  0  0  0  0
  131.3533  127.4042   69.4401 H   0  0  0  0  0  0  0  0  0  0  0  0
  131.7000  126.5710   67.8869 H   0  0  0  0  0  0  0  0  0  0  0  0
  131.1738  128.2885   67.8869 H   0  0  0  0  0  0  0  0  0  0  0  0
  127.9242  126.7096   66.7701 H   0  0  0  0  0  0  0  0  0  0  0  0
  129.5616  129.2210   66.5561 H   0  0  0  0  0  0  0  0  0  0  0  0
  127.8316  128.9917   66.3109 H   0  0  0  0  0  0  0  0  0  0  0  0
  129.1523  129.8211   68.7463 H   0  0  0  0  0  0  0  0  0  0  0  0
  127.4257  129.4127   68.5854 H   0  0  0  0  0  0  0  0  0  0  0  0
  127.2770  127.0752   70.7779 H   0  0  0  0  0  0  0  0  0  0  0  0
  126.5072  127.7052   69.2822 H   0  0  0  0  0  0  0  0  0  0  0  0
  127.2732  126.0805   69.2822 H   0  0  0  0  0  0  0  0  0  0  0  0
  129.4370  128.9740   70.5620 H   0  0  0  0  0  0  0  0  0  0  0  0
  132.3037  124.4694   65.7861 H   0  0  0  0  0  0  0  0  0  0  0  0
  132.4381  123.5813   64.2305 H   0  0  0  0  0  0  0  0  0  0  0  0
  132.1951  125.3611   64.2305 H   0  0  0  0  0  0  0  0  0  0  0  0
  130.7099  122.2653   65.6377 H   0  0  0  0  0  0  0  0  0  0  0  0
  129.0056  122.6283   65.0146 H   0  0  0  0  0  0  0  0  0  0  0  0
  131.4206  121.7516   63.4033 H   0  0  0  0  0  0  0  0  0  0  0  0
  129.8667  120.8614   63.7103 H   0  0  0  0  0  0  0  0  0  0  0  0
  134.2816  124.7343   58.6421 H   0  0  0  0  0  0  0  0  0  0  0  0
  133.0362  123.7582   57.7501 H   0  0  0  0  0  0  0  0  0  0  0  0
  133.1386  126.8072   57.9997 H   0  0  0  0  0  0  0  0  0  0  0  0
  133.4596  125.8237   56.5242 H   0  0  0  0  0  0  0  0  0  0  0  0
  1  2  1  0
  2  3  1  0
  2  4  1  0
  4  5  1  0
  5  6  1  0
  6  7  1  0
  7  8  1  0
  8  9  2  0
  8 10  1  0
  6 11  1  0
 11 12  1  0
 12 13  2  0
 12 14  1  0
 14 15  1  0
 15 16  1  0
 16 17  2  0
 17 18  1  0
 18 19  2  0
 19 20  1  0
 20 21  1  0
 21 22  1  0
 22 23  1  0
 23 24  1  0
 24 25  1  0
 25 26  1  0
 26 27  1  6
 26 28  1  0
 28 29  1  0
 29 30  1  0
 30 31  1  0
 31 32  1  0
 31 33  1  1
 23 34  1  0
 34 35  1  6
 34 36  1  0
 36 37  1  0
  5 38  1  0
 38 39  1  0
 39 40  1  0
 40  2  1  0
 37 17  1  0
 34 19  1  0
 28 22  1  0
 31 26  1  0
  1 41  1  0
  1 42  1  0
  1 43  1  0
  3 44  1  0
  3 45  1  0
  3 46  1  0
  4 47  1  0
  4 48  1  0
  5 49  1  1
  6 50  1  6
  7 51  1  0
  7 52  1  0
 11 53  1  0
 14 54  1  0
 14 55  1  0
 18 56  1  0
 20 57  1  0
 20 58  1  0
 21 59  1  0
 21 60  1  0
 22 61  1  6
 23 62  1  1
 24 63  1  0
 24 64  1  0
 25 65  1  0
 25 66  1  0
 27 67  1  0
 27 68  1  0
 27 69  1  0
 28 70  1  1
 29 71  1  0
 29 72  1  0
 30 73  1  0
 30 74  1  0
 32 75  1  0
 32 76  1  0
 32 77  1  0
 33 78  1  0
 35 79  1  0
 35 80  1  0
 35 81  1  0
 36 82  1  0
 36 83  1  0
 37 84  1  0
 37 85  1  0
 38 86  1  0
 38 87  1  0
 39 88  1  0
 39 89  1  0
M  CHG  1  10  -1
M  END
>  <Binding energies>  (1) 
[-8.37]

>  <Ligand effiencies>  (1) 
[-0.19928571428571426]

>  <Interactions>  (1) 
["V-A:ASP:366:CA:3210, V-A:GLU:543:CA:4904, V-A:GLY:454:CA:4049, V-B:GLU:543:C:9874, V-B:GLU:543:CB:9878, V-B:ALA:541:CB:9864, H-A:TYR:531:OH:4795, H-A:ARG:545:NH1:4927, V-B:TYR:539:CE2:9848, V-A:TYR:484:CE2:4346, V-B:GLU:543:CG:9879, V-A:ASP:366:CG:3213, V-B:TYR:539:CZ:9849, H-B:TYR:539:OH:9850, H-B:ALA:541:N:9863, V-A:TYR:484:CZ:4347, V-A:GLU:543:CD:4908, V-B:GLU:543:CA:9876, H-A:GLY:454:N:4050, V-B:HIS:456:CE1:9041, V-A:GLY:453:C:4042, V-A:ARG:545:CG:4922, V-A:ILE:369:CD1:3239, V-A:HIS:456:CE1:4070, V-A:ASP:366:C:3208, V-B:GLY:544:C:9884, H-B:HIS:456:NE2:9042, V-B:TYR:539:CD2:9846, V-A:TYR:531:CZ:4794, V-A:GLU:543:CG:4907, H-A:SER:385:OG:3410, V-B:GLU:543:CD:9880, V-A:ASP:366:CB:3212, V-A:LEU:475:CD2:4259, H-A:ARG:545:NH2:4928, V-A:GLU:543:CB:4906, V-A:GLY:453:CA:4044, H-A:GLU:543:O:4903"]

$$$$
ZINC118929793
     RDKit          3D

 62 65  0  0  0  0  0  0  0  0999 V2000
  133.6580  131.8400   61.3590 C   0  0  0  0  0  0  0  0  0  0  0  0
  132.1530  131.7580   61.1380 C   0  0  0  0  0  0  0  0  0  0  0  0
  131.3630  132.2200   61.9630 O   0  0  0  0  0  0  0  0  0  0  0  0
  131.8310  131.1460   59.9800 O   0  0  0  0  0  0  0  0  0  0  0  0
  131.9440  131.8360   58.7370 C   0  0  0  0  0  0  0  0  0  0  0  0
  130.5630  132.2960   58.2280 C   0  0  0  0  0  0  0  0  0  0  0  0
  130.4700  133.2430   57.4430 O   0  0  0  0  0  0  0  0  0  0  0  0
  129.2960  131.5350   58.7310 C   0  0  1  0  0  0  0  0  0  0  0  0
  129.1670  131.8730   60.1100 O   0  0  0  0  0  0  0  0  0  0  0  0
  127.9980  131.9500   57.9710 C   0  0  0  0  0  0  0  0  0  0  0  0
  127.0840  130.7070   57.9480 C   0  0  0  0  0  0  0  0  0  0  0  0
  127.8740  129.6240   58.6980 C   0  0  1  0  0  0  0  0  0  0  0  0
  127.5690  128.1240   58.4520 C   0  0  2  0  0  0  0  0  0  0  0  0
  126.0780  127.8000   58.6460 C   0  0  0  0  0  0  0  0  0  0  0  0
  125.7820  126.3340   58.3160 C   0  0  0  0  0  0  0  0  0  0  0  0
  126.6000  125.4310   59.2410 C   0  0  0  0  0  0  0  0  0  0  0  0
  125.9940  124.4800   59.9880 C   0  0  0  0  0  0  0  0  0  0  0  0
  126.6810  123.5490   60.8660 C   0  0  0  0  0  0  0  0  0  0  0  0
  126.0580  122.8680   61.6800 O   0  0  0  0  0  0  0  0  0  0  0  0
  128.2050  123.4510   60.6570 C   0  0  2  0  0  0  0  0  0  0  0  0
  128.9030  122.7200   61.8260 C   0  0  0  0  0  0  0  0  0  0  0  0
  128.7940  124.8570   60.4030 C   0  0  0  0  0  0  0  0  0  0  0  0
  128.1430  125.6620   59.2220 C   0  0  1  0  0  0  0  0  0  0  0  0
  128.6750  125.1060   57.8700 C   0  0  0  0  0  0  0  0  0  0  0  0
  128.4280  127.2160   59.4000 C   0  0  1  0  0  0  0  0  0  0  0  0
  129.9340  127.6410   59.4110 C   0  0  0  0  0  0  0  0  0  0  0  0
  130.8740  126.8530   59.3260 O   0  0  0  0  0  0  0  0  0  0  0  0
  130.1900  129.1590   59.5210 C   0  0  0  0  0  0  0  0  0  0  0  0
  129.3670  129.9820   58.4850 C   0  0  2  0  0  0  0  0  0  0  0  0
  129.8610  129.6320   57.0360 C   0  0  0  0  0  0  0  0  0  0  0  0
  133.8700  131.8516   62.4383 H   0  0  0  0  0  0  0  0  0  0  0  0
  134.1442  130.9670   60.8991 H   0  0  0  0  0  0  0  0  0  0  0  0
  134.0465  132.7606   60.8991 H   0  0  0  0  0  0  0  0  0  0  0  0
  132.5883  132.7172   58.8729 H   0  0  0  0  0  0  0  0  0  0  0  0
  132.3780  131.1494   57.9953 H   0  0  0  0  0  0  0  0  0  0  0  0
  129.9110  131.4970   60.5870 H   0  0  0  0  0  0  0  0  0  0  0  0
  127.4993  132.7782   58.4958 H   0  0  0  0  0  0  0  0  0  0  0  0
  128.2277  132.2923   56.9512 H   0  0  0  0  0  0  0  0  0  0  0  0
  126.1326  130.9163   58.4590 H   0  0  0  0  0  0  0  0  0  0  0  0
  126.8280  130.3992   56.9234 H   0  0  0  0  0  0  0  0  0  0  0  0
  127.5376  129.6661   59.7444 H   0  0  0  0  0  0  0  0  0  0  0  0
  127.8340  127.9143   57.4052 H   0  0  0  0  0  0  0  0  0  0  0  0
  125.8018  127.9949   59.6927 H   0  0  0  0  0  0  0  0  0  0  0  0
  125.4922  128.4353   57.9654 H   0  0  0  0  0  0  0  0  0  0  0  0
  124.7101  126.1341   58.4614 H   0  0  0  0  0  0  0  0  0  0  0  0
  126.0528  126.1305   57.2694 H   0  0  0  0  0  0  0  0  0  0  0  0
  124.8982  124.4061   59.9258 H   0  0  0  0  0  0  0  0  0  0  0  0
  128.3963  122.8373   59.7644 H   0  0  0  0  0  0  0  0  0  0  0  0
  128.5268  123.1140   62.7817 H   0  0  0  0  0  0  0  0  0  0  0  0
  128.6899  121.6426   61.7642 H   0  0  0  0  0  0  0  0  0  0  0  0
  129.9891  122.8831   61.7642 H   0  0  0  0  0  0  0  0  0  0  0  0
  128.6707  125.4469   61.3232 H   0  0  0  0  0  0  0  0  0  0  0  0
  129.8434  124.6962   60.1152 H   0  0  0  0  0  0  0  0  0  0  0  0
  129.4235  124.3237   58.0643 H   0  0  0  0  0  0  0  0  0  0  0  0
  127.8399  124.6796   57.2948 H   0  0  0  0  0  0  0  0  0  0  0  0
  129.1378  125.9215   57.2948 H   0  0  0  0  0  0  0  0  0  0  0  0
  128.0862  127.4003   60.4292 H   0  0  0  0  0  0  0  0  0  0  0  0
  129.9144  129.4903   60.5331 H   0  0  0  0  0  0  0  0  0  0  0  0
  131.2561  129.3330   59.3134 H   0  0  0  0  0  0  0  0  0  0  0  0
  130.7572  128.9971   57.0975 H   0  0  0  0  0  0  0  0  0  0  0  0
  129.0667  129.0940   56.4978 H   0  0  0  0  0  0  0  0  0  0  0  0
  130.1052  130.5597   56.4978 H   0  0  0  0  0  0  0  0  0  0  0  0
  1  2  1  0
  2  3  2  0
  2  4  1  0
  4  5  1  0
  5  6  1  0
  6  7  2  0
  6  8  1  0
  8  9  1  1
  8 10  1  0
 10 11  1  0
 11 12  1  0
 12 13  1  0
 13 14  1  0
 14 15  1  0
 15 16  1  0
 16 17  2  0
 17 18  1  0
 18 19  2  0
 18 20  1  0
 20 21  1  0
 20 22  1  0
 22 23  1  0
 23 24  1  6
 23 25  1  0
 25 26  1  0
 26 27  2  0
 26 28  1  0
 28 29  1  0
 29 30  1  6
 29  8  1  0
 29 12  1  0
 25 13  1  0
 23 16  1  0
  1 31  1  0
  1 32  1  0
  1 33  1  0
  5 34  1  0
  5 35  1  0
  9 36  1  0
 10 37  1  0
 10 38  1  0
 11 39  1  0
 11 40  1  0
 12 41  1  1
 13 42  1  6
 14 43  1  0
 14 44  1  0
 15 45  1  0
 15 46  1  0
 17 47  1  0
 20 48  1  6
 21 49  1  0
 21 50  1  0
 21 51  1  0
 22 52  1  0
 22 53  1  0
 24 54  1  0
 24 55  1  0
 24 56  1  0
 25 57  1  1
 28 58  1  0
 28 59  1  0
 30 60  1  0
 30 61  1  0
 30 62  1  0
M  END
>  <Binding energies>  (1) 
[-7.36]

>  <Ligand effiencies>  (1) 
[-0.23741935483870968]

>  <Interactions>  (1) 
["V-A:PRO:540:N:4884, V-A:LEU:363:CD1:3189, H-A:TYR:539:N:4870, V-A:PRO:540:CB:4885, V-A:PRO:540:CA:4883, V-A:LEU:363:CA:3185, V-A:TYR:539:CD1:4873, H-A:ALA:541:N:4891, V-B:PRO:540:CA:9855, H-B:ALA:541:N:9863, V-A:MET:535:CE:4835, V-B:ASP:366:CG:8184, V-B:ALA:541:CB:9864, V-B:ASP:366:CB:8183, V-B:PRO:540:CB:9857, V-A:ASN:362:C:3172, V-A:TYR:539:CE1:4875, V-A:ASN:362:CB:3176"]

$$$$
ZINC118930262
     RDKit          3D

101105  0  0  0  0  0  0  0  0999 V2000
  129.2400  121.8970   60.5310 C   0  0  0  0  0  0  0  0  0  0  0  0
  129.9090  120.7950   61.3700 C   0  0  0  0  0  0  0  0  0  0  0  0
  131.0040  119.9720   60.6300 C   0  0  1  0  0  0  0  0  0  0  0  0
  132.4260  120.5440   60.9130 C   0  0  0  0  0  0  0  0  0  0  0  0
  132.7910  121.8490   60.1650 C   0  0  0  0  0  0  0  0  0  0  0  0
  133.6800  122.8570   60.9440 C   0  0  2  0  0  0  0  0  0  0  0  0
  134.3850  122.1660   62.1380 C   0  0  0  0  0  0  0  0  0  0  0  0
  132.9070  124.1380   61.4210 C   0  0  1  0  0  0  0  0  0  0  0  0
  131.7590  124.5390   60.4480 C   0  0  0  0  0  0  0  0  0  0  0  0
  130.6450  125.1940   61.2750 C   0  0  0  0  0  0  0  0  0  0  0  0
  131.2680  125.3570   62.6610 C   0  0  1  0  0  0  0  0  0  0  0  0
  130.3320  125.5870   63.8800 C   0  0  2  0  0  0  0  0  0  0  0  0
  129.3820  126.7830   63.6290 C   0  0  0  0  0  0  0  0  0  0  0  0
  128.7480  127.2880   64.9140 C   0  0  0  0  0  0  0  0  0  0  0  0
  129.1000  126.9340   66.1690 C   0  0  0  0  0  0  0  0  0  0  0  0
  128.3300  127.4680   67.3810 C   0  0  0  0  0  0  0  0  0  0  0  0
  129.2970  128.1070   68.3970 C   0  0  1  0  0  0  0  0  0  0  0  0
  128.5910  128.5610   69.5540 O   0  0  0  0  0  0  0  0  0  0  0  0
  129.0790  128.1380   70.7950 C   0  0  1  0  0  0  0  0  0  0  0  0
  128.7160  129.0310   71.8230 O   0  0  0  0  0  0  0  0  0  0  0  0
  129.2840  128.6730   73.0910 C   0  0  1  0  0  0  0  0  0  0  0  0
  129.1640  129.8570   74.0770 C   0  0  0  0  0  0  0  0  0  0  0  0
  129.4700  131.1060   73.4880 O   0  0  0  0  0  0  0  0  0  0  0  0
  128.6700  127.3310   73.5720 C   0  0  1  0  0  0  0  0  0  0  0  0
  127.2810  127.4260   73.8440 O   0  0  0  0  0  0  0  0  0  0  0  0
  128.9520  126.2600   72.4880 C   0  0  1  0  0  0  0  0  0  0  0  0
  128.4460  124.9800   72.8270 O   0  0  0  0  0  0  0  0  0  0  0  0
  128.4960  126.7370   71.0810 C   0  0  1  0  0  0  0  0  0  0  0  0
  127.0860  126.6910   70.9220 O   0  0  0  0  0  0  0  0  0  0  0  0
  130.3540  127.0860   68.8390 C   0  0  0  0  0  0  0  0  0  0  0  0
  131.1440  126.5770   67.6200 C   0  0  0  0  0  0  0  0  0  0  0  0
  130.2730  125.9600   66.4740 C   0  0  1  0  0  0  0  0  0  0  0  0
  129.6620  124.6060   66.9350 C   0  0  0  0  0  0  0  0  0  0  0  0
  131.1690  125.7880   65.1850 C   0  0  1  0  0  0  0  0  0  0  0  0
  132.3100  124.7280   65.3320 C   0  0  0  0  0  0  0  0  0  0  0  0
  133.1260  124.5170   64.0340 C   0  0  0  0  0  0  0  0  0  0  0  0
  132.2140  124.1380   62.8290 C   0  0  2  0  0  0  0  0  0  0  0  0
  131.4560  122.7930   63.0700 C   0  0  0  0  0  0  0  0  0  0  0  0
  130.8740  118.4320   60.8760 C   0  0  0  0  0  0  0  0  0  0  0  0
  130.6420  117.6240   59.5830 C   0  0  0  0  0  0  0  0  0  0  0  0
  129.8320  118.0580   61.9510 C   0  0  0  0  0  0  0  0  0  0  0  0
  128.7870  122.6433   61.2002 H   0  0  0  0  0  0  0  0  0  0  0  0
  129.9950  122.3840   59.8964 H   0  0  0  0  0  0  0  0  0  0  0  0
  128.4596  121.4518   59.8964 H   0  0  0  0  0  0  0  0  0  0  0  0
  130.3741  121.2696   62.2466 H   0  0  0  0  0  0  0  0  0  0  0  0
  129.1126  120.0814   61.6279 H   0  0  0  0  0  0  0  0  0  0  0  0
  130.8368  120.0895   59.5491 H   0  0  0  0  0  0  0  0  0  0  0  0
  132.5009  120.7420   61.9924 H   0  0  0  0  0  0  0  0  0  0  0  0
  133.1311  119.7835   60.5462 H   0  0  0  0  0  0  0  0  0  0  0  0
  133.3255  121.5707   59.2448 H   0  0  0  0  0  0  0  0  0  0  0  0
  131.8365  122.3681   59.9931 H   0  0  0  0  0  0  0  0  0  0  0  0
  134.4402  123.2052   60.2293 H   0  0  0  0  0  0  0  0  0  0  0  0
  133.9810  122.5619   63.0814 H   0  0  0  0  0  0  0  0  0  0  0  0
  134.2086  121.0813   62.0902 H   0  0  0  0  0  0  0  0  0  0  0  0
  135.4660  122.3641   62.0902 H   0  0  0  0  0  0  0  0  0  0  0  0
  133.7599  124.8316   61.4599 H   0  0  0  0  0  0  0  0  0  0  0  0
  132.1359  125.2510   59.6990 H   0  0  0  0  0  0  0  0  0  0  0  0
  131.3747  123.6518   59.9234 H   0  0  0  0  0  0  0  0  0  0  0  0
  130.3665  126.1710   60.8531 H   0  0  0  0  0  0  0  0  0  0  0  0
  129.7207  124.5979   61.2914 H   0  0  0  0  0  0  0  0  0  0  0  0
  131.7893  126.3255   62.6795 H   0  0  0  0  0  0  0  0  0  0  0  0
  129.7085  124.6906   64.0131 H   0  0  0  0  0  0  0  0  0  0  0  0
  129.9560  127.6019   63.1709 H   0  0  0  0  0  0  0  0  0  0  0  0
  128.5749  126.4411   62.9644 H   0  0  0  0  0  0  0  0  0  0  0  0
  127.9245  128.0102   64.8127 H   0  0  0  0  0  0  0  0  0  0  0  0
  127.6061  128.2250   67.0450 H   0  0  0  0  0  0  0  0  0  0  0  0
  127.8064  126.6312   67.8664 H   0  0  0  0  0  0  0  0  0  0  0  0
  129.7825  128.9627   67.9050 H   0  0  0  0  0  0  0  0  0  0  0  0
  130.1781  128.1059   70.7642 H   0  0  0  0  0  0  0  0  0  0  0  0
  130.3649  128.4851   73.0112 H   0  0  0  0  0  0  0  0  0  0  0  0
  128.1321  129.8928   74.4563 H   0  0  0  0  0  0  0  0  0  0  0  0
  129.8945  129.6874   74.8818 H   0  0  0  0  0  0  0  0  0  0  0  0
  129.4850  131.0010   72.5340 H   0  0  0  0  0  0  0  0  0  0  0  0
  129.1389  127.0503   74.5266 H   0  0  0  0  0  0  0  0  0  0  0  0
  126.8030  127.0350   73.1080 H   0  0  0  0  0  0  0  0  0  0  0  0
  130.0440  126.1353   72.4444 H   0  0  0  0  0  0  0  0  0  0  0  0
  127.8220  124.7070   72.1510 H   0  0  0  0  0  0  0  0  0  0  0  0
  128.8932  126.0369   70.3313 H   0  0  0  0  0  0  0  0  0  0  0  0
  126.8140  127.4760   70.4390 H   0  0  0  0  0  0  0  0  0  0  0  0
  131.0469  127.5638   69.5473 H   0  0  0  0  0  0  0  0  0  0  0  0
  129.8512  126.2350   69.3216 H   0  0  0  0  0  0  0  0  0  0  0  0
  131.7075  127.4239   67.2014 H   0  0  0  0  0  0  0  0  0  0  0  0
  131.7856  125.7632   67.9889 H   0  0  0  0  0  0  0  0  0  0  0  0
  129.6444  124.5670   68.0342 H   0  0  0  0  0  0  0  0  0  0  0  0
  128.6361  124.5161   66.5484 H   0  0  0  0  0  0  0  0  0  0  0  0
  130.2734  123.7773   66.5484 H   0  0  0  0  0  0  0  0  0  0  0  0
  131.6859  126.7533   65.0806 H   0  0  0  0  0  0  0  0  0  0  0  0
  132.9960  125.0621   66.1243 H   0  0  0  0  0  0  0  0  0  0  0  0
  131.8310  123.7676   65.5734 H   0  0  0  0  0  0  0  0  0  0  0  0
  133.6617  125.4477   63.7955 H   0  0  0  0  0  0  0  0  0  0  0  0
  133.8281  123.6875   64.2040 H   0  0  0  0  0  0  0  0  0  0  0  0
  131.3567  122.6167   64.1512 H   0  0  0  0  0  0  0  0  0  0  0  0
  130.4564  122.8487   62.6142 H   0  0  0  0  0  0  0  0  0  0  0  0
  132.0213  121.9668   62.6142 H   0  0  0  0  0  0  0  0  0  0  0  0
  131.8586  118.1432   61.2724 H   0  0  0  0  0  0  0  0  0  0  0  0
  130.3469  116.5962   59.8409 H   0  0  0  0  0  0  0  0  0  0  0  0
  129.8436  118.0976   58.9929 H   0  0  0  0  0  0  0  0  0  0  0  0
  131.5701  117.6019   58.9929 H   0  0  0  0  0  0  0  0  0  0  0  0
  130.2644  118.2132   62.9505 H   0  0  0  0  0  0  0  0  0  0  0  0
  128.9410  118.6924   61.8344 H   0  0  0  0  0  0  0  0  0  0  0  0
  129.5478  117.0018   61.8344 H   0  0  0  0  0  0  0  0  0  0  0  0
  1  2  1  0
  2  3  1  0
  3  4  1  0
  4  5  1  0
  5  6  1  0
  6  7  1  0
  6  8  1  0
  8  9  1  0
  9 10  1  0
 10 11  1  0
 11 12  1  0
 12 13  1  0
 13 14  1  0
 14 15  2  0
 15 16  1  0
 16 17  1  0
 17 18  1  0
 18 19  1  0
 19 20  1  0
 20 21  1  0
 21 22  1  0
 22 23  1  0
 21 24  1  0
 24 25  1  0
 24 26  1  0
 26 27  1  0
 26 28  1  0
 28 29  1  0
 17 30  1  0
 30 31  1  0
 31 32  1  0
 32 33  1  1
 32 34  1  0
 34 35  1  0
 35 36  1  0
 36 37  1  0
 37 38  1  1
  3 39  1  0
 39 40  1  0
 39 41  1  0
 37  8  1  0
 37 11  1  0
 34 12  1  0
 32 15  1  0
 28 19  1  0
  1 42  1  0
  1 43  1  0
  1 44  1  0
  2 45  1  0
  2 46  1  0
  3 47  1  6
  4 48  1  0
  4 49  1  0
  5 50  1  0
  5 51  1  0
  6 52  1  6
  7 53  1  0
  7 54  1  0
  7 55  1  0
  8 56  1  1
  9 57  1  0
  9 58  1  0
 10 59  1  0
 10 60  1  0
 11 61  1  6
 12 62  1  1
 13 63  1  0
 13 64  1  0
 14 65  1  0
 16 66  1  0
 16 67  1  0
 17 68  1  6
 19 69  1  6
 21 70  1  6
 22 71  1  0
 22 72  1  0
 23 73  1  0
 24 74  1  1
 25 75  1  0
 26 76  1  6
 27 77  1  0
 28 78  1  6
 29 79  1  0
 30 80  1  0
 30 81  1  0
 31 82  1  0
 31 83  1  0
 33 84  1  0
 33 85  1  0
 33 86  1  0
 34 87  1  6
 35 88  1  0
 35 89  1  0
 36 90  1  0
 36 91  1  0
 38 92  1  0
 38 93  1  0
 38 94  1  0
 39 95  1  0
 40 96  1  0
 40 97  1  0
 40 98  1  0
 41 99  1  0
 41100  1  0
 41101  1  0
M  END
>  <Binding energies>  (1) 
[-9.66]

>  <Ligand effiencies>  (1) 
[-0.21466666666666667]

>  <Interactions>  (1) 
["V-A:ILE:369:CG2:3237, V-B:TYR:539:CA:9841, V-B:PRO:540:CA:9855, V-A:GLY:454:CA:4049, V-B:HIS:456:CD2:9039, V-B:GLU:543:C:9874, H-B:GLU:543:O:9875, V-B:GLU:543:CB:9878, H-B:LYS:547:NZ:9923, V-B:ALA:541:CB:9864, V-B:TYR:539:CE2:9848, V-A:TYR:484:CE2:4346, V-A:LEU:475:CG:4257, V-B:GLU:543:CG:9879, V-B:TYR:539:C:9839, V-A:HIS:456:CD2:4068, V-B:LYS:547:CE:9922, V-A:LEU:475:CD1:4258, V-B:TYR:539:CB:9843, V-A:HIS:383:CE1:3393, V-A:GLU:543:CD:4908, V-A:TYR:484:CZ:4347, V-A:ARG:545:CG:4922, V-B:HIS:456:CE1:9041, V-B:GLU:543:CA:9876, V-A:SER:385:C:3405, V-A:HIS:456:CE1:4070, V-A:ILE:369:CD1:3239, H-B:HIS:456:NE2:9042, V-A:PRO:482:CB:4326, V-B:TYR:539:CD2:9846, V-A:GLU:543:CG:4907, V-A:SER:385:CB:3409, V-B:GLU:543:CD:9880, H-A:LYS:547:NZ:4951, V-A:LEU:475:CD2:4259, V-A:ARG:545:CZ:4926, V-B:TYR:539:CG:9844, V-A:GLU:543:CB:4906, V-A:HIS:383:CD2:3392, H-B:GLY:544:O:9885, V-A:PRO:482:CG:4327, V-A:LYS:547:CE:4950, V-A:HIS:383:NE2:3394, H-A:HIS:456:NE2:4071, H-A:GLU:543:O:4903"]

$$$$
ZINC118931684
     RDKit          3D

 81 84  0  0  0  0  0  0  0  0999 V2000
  132.3330  126.6100   74.0400 C   0  0  0  0  0  0  0  0  0  0  0  0
  130.8590  126.9540   74.3310 C   0  0  0  0  0  0  0  0  0  0  0  0
  130.4130  126.3380   75.6700 C   0  0  0  0  0  0  0  0  0  0  0  0
  129.9070  126.5360   73.1850 C   0  0  0  0  0  0  0  0  0  0  0  0
  128.6340  127.3970   73.0520 C   0  0  0  0  0  0  0  0  0  0  0  0
  128.1850  127.5730   71.5860 C   0  0  0  0  0  0  0  0  0  0  0  0
  129.2830  127.3450   70.5100 C   0  0  2  0  0  0  0  0  0  0  0  0
  130.3570  128.4600   70.5750 C   0  0  0  0  0  0  0  0  0  0  0  0
  128.7190  127.2060   69.0530 C   0  0  1  0  0  0  0  0  0  0  0  0
  128.3810  128.5800   68.4030 C   0  0  0  0  0  0  0  0  0  0  0  0
  128.5980  128.4500   66.8880 C   0  0  0  0  0  0  0  0  0  0  0  0
  128.8400  126.9540   66.6840 C   0  0  1  0  0  0  0  0  0  0  0  0
  129.5050  126.4690   65.3640 C   0  0  2  0  0  0  0  0  0  0  0  0
  128.7470  127.0220   64.1330 C   0  0  0  0  0  0  0  0  0  0  0  0
  129.0670  126.2480   62.8660 C   0  0  0  0  0  0  0  0  0  0  0  0
  129.7480  125.0850   62.7940 C   0  0  0  0  0  0  0  0  0  0  0  0
  130.0550  124.4350   61.4390 C   0  0  0  0  0  0  0  0  0  0  0  0
  129.5350  122.9820   61.4200 C   0  0  2  0  0  0  0  0  0  0  0  0
  128.1220  122.8950   61.6120 O   0  0  0  0  0  0  0  0  0  0  0  0
  127.3100  123.3010   60.5160 C   0  0  0  0  0  0  0  0  0  0  0  0
  125.9090  123.6670   61.0270 C   0  0  0  0  0  0  0  0  0  0  0  0
  125.7230  123.2060   62.3500 O   0  0  0  0  0  0  0  0  0  0  0  0
  130.2290  122.1890   62.5380 C   0  0  0  0  0  0  0  0  0  0  0  0
  129.9410  122.8130   63.9180 C   0  0  0  0  0  0  0  0  0  0  0  0
  130.2840  124.3370   64.0480 C   0  0  1  0  0  0  0  0  0  0  0  0
  131.8250  124.5320   64.0950 C   0  0  0  0  0  0  0  0  0  0  0  0
  129.5820  124.9080   65.3420 C   0  0  1  0  0  0  0  0  0  0  0  0
  130.1420  124.3270   66.6810 C   0  0  0  0  0  0  0  0  0  0  0  0
  129.4750  124.9320   67.9390 C   0  0  0  0  0  0  0  0  0  0  0  0
  129.5830  126.4840   67.9630 C   0  0  2  0  0  0  0  0  0  0  0  0
  131.0690  126.9630   68.0250 C   0  0  0  0  0  0  0  0  0  0  0  0
  132.8743  126.4837   74.9892 H   0  0  0  0  0  0  0  0  0  0  0  0
  132.3842  125.6758   73.4616 H   0  0  0  0  0  0  0  0  0  0  0  0
  132.7924  127.4251   73.4616 H   0  0  0  0  0  0  0  0  0  0  0  0
  130.7959  128.0497   74.4044 H   0  0  0  0  0  0  0  0  0  0  0  0
  130.8357  126.9218   76.5010 H   0  0  0  0  0  0  0  0  0  0  0  0
  129.3149  126.3528   75.7327 H   0  0  0  0  0  0  0  0  0  0  0  0
  130.7699  125.2994   75.7327 H   0  0  0  0  0  0  0  0  0  0  0  0
  130.4633  126.5998   72.2382 H   0  0  0  0  0  0  0  0  0  0  0  0
  129.5671  125.5171   73.4222 H   0  0  0  0  0  0  0  0  0  0  0  0
  127.8213  126.9128   73.6133 H   0  0  0  0  0  0  0  0  0  0  0  0
  128.8649  128.3957   73.4511 H   0  0  0  0  0  0  0  0  0  0  0  0
  127.3711  126.8583   71.3943 H   0  0  0  0  0  0  0  0  0  0  0  0
  127.8868  128.6274   71.4896 H   0  0  0  0  0  0  0  0  0  0  0  0
  129.7470  126.3775   70.7521 H   0  0  0  0  0  0  0  0  0  0  0  0
  130.5810  128.6925   71.6266 H   0  0  0  0  0  0  0  0  0  0  0  0
  131.2731  128.1164   70.0723 H   0  0  0  0  0  0  0  0  0  0  0  0
  129.9794  129.3626   70.0723 H   0  0  0  0  0  0  0  0  0  0  0  0
  127.8524  126.5687   69.2829 H   0  0  0  0  0  0  0  0  0  0  0  0
  127.3332  128.8438   68.6095 H   0  0  0  0  0  0  0  0  0  0  0  0
  129.0259  129.3693   68.8167 H   0  0  0  0  0  0  0  0  0  0  0  0
  127.7077  128.7825   66.3342 H   0  0  0  0  0  0  0  0  0  0  0  0
  129.4292  129.0703   66.5215 H   0  0  0  0  0  0  0  0  0  0  0  0
  127.8591  126.4770   66.5411 H   0  0  0  0  0  0  0  0  0  0  0  0
  130.5324  126.8592   65.3176 H   0  0  0  0  0  0  0  0  0  0  0  0
  127.6657  126.9568   64.3243 H   0  0  0  0  0  0  0  0  0  0  0  0
  129.0649  128.0641   63.9811 H   0  0  0  0  0  0  0  0  0  0  0  0
  128.7100  126.6757   61.9175 H   0  0  0  0  0  0  0  0  0  0  0  0
  129.5624  125.0086   60.6400 H   0  0  0  0  0  0  0  0  0  0  0  0
  131.1433  124.4309   61.2791 H   0  0  0  0  0  0  0  0  0  0  0  0
  129.7627  122.5680   60.4266 H   0  0  0  0  0  0  0  0  0  0  0  0
  127.7631  124.1767   60.0282 H   0  0  0  0  0  0  0  0  0  0  0  0
  127.2330  122.4774   59.7910 H   0  0  0  0  0  0  0  0  0  0  0  0
  125.7913  124.7605   61.0059 H   0  0  0  0  0  0  0  0  0  0  0  0
  125.1602  123.1896   60.3779 H   0  0  0  0  0  0  0  0  0  0  0  0
  126.4490  123.5270   62.8910 H   0  0  0  0  0  0  0  0  0  0  0  0
  129.8591  121.1531   62.5273 H   0  0  0  0  0  0  0  0  0  0  0  0
  131.3146  122.2122   62.3624 H   0  0  0  0  0  0  0  0  0  0  0  0
  128.8694  122.6863   64.1314 H   0  0  0  0  0  0  0  0  0  0  0  0
  130.5966  122.2914   64.6308 H   0  0  0  0  0  0  0  0  0  0  0  0
  132.1575  124.5741   65.1427 H   0  0  0  0  0  0  0  0  0  0  0  0
  132.3169  123.6889   63.5878 H   0  0  0  0  0  0  0  0  0  0  0  0
  132.0914  125.4710   63.5878 H   0  0  0  0  0  0  0  0  0  0  0  0
  128.5466  124.5433   65.2718 H   0  0  0  0  0  0  0  0  0  0  0  0
  129.9750  123.2398   66.6864 H   0  0  0  0  0  0  0  0  0  0  0  0
  131.2108  124.5833   66.7247 H   0  0  0  0  0  0  0  0  0  0  0  0
  128.4120  124.6492   67.9488 H   0  0  0  0  0  0  0  0  0  0  0  0
  129.9976  124.5400   68.8240 H   0  0  0  0  0  0  0  0  0  0  0  0
  131.3785  127.0628   69.0758 H   0  0  0  0  0  0  0  0  0  0  0  0
  131.7128  126.2269   67.5214 H   0  0  0  0  0  0  0  0  0  0  0  0
  131.1617  127.9365   67.5214 H   0  0  0  0  0  0  0  0  0  0  0  0
  1  2  1  0
  2  3  1  0
  2  4  1  0
  4  5  1  0
  5  6  1  0
  6  7  1  0
  7  8  1  0
  7  9  1  0
  9 10  1  0
 10 11  1  0
 11 12  1  0
 12 13  1  0
 13 14  1  0
 14 15  1  0
 15 16  2  0
 16 17  1  0
 17 18  1  0
 18 19  1  0
 19 20  1  0
 20 21  1  0
 21 22  1  0
 18 23  1  0
 23 24  1  0
 24 25  1  0
 25 26  1  1
 25 27  1  0
 27 28  1  0
 28 29  1  0
 29 30  1  0
 30 31  1  6
 30  9  1  0
 30 12  1  0
 27 13  1  0
 25 16  1  0
  1 32  1  0
  1 33  1  0
  1 34  1  0
  2 35  1  0
  3 36  1  0
  3 37  1  0
  3 38  1  0
  4 39  1  0
  4 40  1  0
  5 41  1  0
  5 42  1  0
  6 43  1  0
  6 44  1  0
  7 45  1  1
  8 46  1  0
  8 47  1  0
  8 48  1  0
  9 49  1  1
 10 50  1  0
 10 51  1  0
 11 52  1  0
 11 53  1  0
 12 54  1  1
 13 55  1  1
 14 56  1  0
 14 57  1  0
 15 58  1  0
 17 59  1  0
 17 60  1  0
 18 61  1  6
 20 62  1  0
 20 63  1  0
 21 64  1  0
 21 65  1  0
 22 66  1  0
 23 67  1  0
 23 68  1  0
 24 69  1  0
 24 70  1  0
 26 71  1  0
 26 72  1  0
 26 73  1  0
 27 74  1  6
 28 75  1  0
 28 76  1  0
 29 77  1  0
 29 78  1  0
 31 79  1  0
 31 80  1  0
 31 81  1  0
M  END
>  <Binding energies>  (1) 
[-8.52]

>  <Ligand effiencies>  (1) 
[-0.26625]

>  <Interactions>  (1) 
["V-B:PRO:540:CA:9855, V-B:GLU:543:C:9874, V-B:HIS:456:CD2:9039, V-A:GLU:543:C:4902, V-B:GLU:543:CB:9878, V-B:ALA:541:CB:9864, V-A:TYR:484:CE2:4346, H-B:ALA:541:O:9861, V-B:GLU:543:CG:9879, V-A:GLY:544:C:4912, V-A:HIS:456:CD2:4068, H-B:GLU:543:OE1:9881, V-A:HIS:456:CB:4065, H-B:ALA:541:N:9863, V-A:GLU:543:CD:4908, V-A:TYR:484:CZ:4347, V-B:PRO:540:CB:9857, V-A:ARG:545:CG:4922, V-B:HIS:456:CE1:9041, V-B:GLU:543:CA:9876, V-A:HIS:456:CE1:4070, V-A:GLU:543:CG:4907, V-B:GLU:543:CD:9880, V-A:LEU:475:CD2:4259, V-A:GLU:543:CB:4906, V-A:HIS:456:CG:4066"]

$$$$
ZINC118932343
     RDKit          3D

 61 64  0  0  0  0  0  0  0  0999 V2000
  127.1650  131.8720   58.9570 C   0  0  0  0  0  0  0  0  0  0  0  0
  128.1750  133.0000   59.1290 C   0  0  0  0  0  0  0  0  0  0  0  0
  128.2010  133.6810   60.1540 O   0  0  0  0  0  0  0  0  0  0  0  0
  128.9960  133.1320   58.0560 O   0  0  0  0  0  0  0  0  0  0  0  0
  129.5670  132.0040   57.3840 C   0  0  0  0  0  0  0  0  0  0  0  0
  131.0310  131.7300   57.7920 C   0  0  0  0  0  0  0  0  0  0  0  0
  131.9330  132.1620   57.0730 O   0  0  0  0  0  0  0  0  0  0  0  0
  131.3470  130.9340   59.1010 C   0  0  1  0  0  0  0  0  0  0  0  0
  132.7150  131.1880   59.4110 O   0  0  0  0  0  0  0  0  0  0  0  0
  130.4540  131.3760   60.3020 C   0  0  0  0  0  0  0  0  0  0  0  0
  130.2540  130.1250   61.1860 C   0  0  0  0  0  0  0  0  0  0  0  0
  131.0490  129.0160   60.4810 C   0  0  1  0  0  0  0  0  0  0  0  0
  130.7110  127.5260   60.7340 C   0  0  2  0  0  0  0  0  0  0  0  0
  130.6410  127.1870   62.2410 C   0  0  0  0  0  0  0  0  0  0  0  0
  130.3470  125.6940   62.4720 C   0  0  0  0  0  0  0  0  0  0  0  0
  131.4100  124.7930   61.7860 C   0  0  2  0  0  0  0  0  0  0  0  0
  132.8230  124.9380   62.4590 C   0  0  1  0  0  0  0  0  0  0  0  0
  132.7670  124.3960   64.1670 Cl  0  0  0  0  0  0  0  0  0  0  0  0
  133.9480  124.1740   61.7230 C   0  0  0  0  0  0  0  0  0  0  0  0
  134.7830  123.4640   62.2830 O   0  0  0  0  0  0  0  0  0  0  0  0
  133.9410  124.3580   60.2020 C   0  0  0  0  0  0  0  0  0  0  0  0
  132.5290  124.0830   59.6620 C   0  0  0  0  0  0  0  0  0  0  0  0
  131.4390  125.0440   60.2310 C   0  0  1  0  0  0  0  0  0  0  0  0
  130.0910  124.5920   59.5920 C   0  0  0  0  0  0  0  0  0  0  0  0
  131.7180  126.5860   59.9690 C   0  0  1  0  0  0  0  0  0  0  0  0
  131.8980  127.0200   58.4780 C   0  0  0  0  0  0  0  0  0  0  0  0
  131.8600  126.2490   57.5210 O   0  0  0  0  0  0  0  0  0  0  0  0
  132.1140  128.5340   58.2640 C   0  0  0  0  0  0  0  0  0  0  0  0
  131.0320  129.3960   58.9770 C   0  0  2  0  0  0  0  0  0  0  0  0
  129.6330  129.1230   58.3130 C   0  0  0  0  0  0  0  0  0  0  0  0
  126.8439  131.5134   59.9461 H   0  0  0  0  0  0  0  0  0  0  0  0
  126.2919  132.2433   58.4004 H   0  0  0  0  0  0  0  0  0  0  0  0
  127.6301  131.0451   58.4004 H   0  0  0  0  0  0  0  0  0  0  0  0
  128.9655  131.1142   57.6215 H   0  0  0  0  0  0  0  0  0  0  0  0
  129.5643  132.2291   56.3073 H   0  0  0  0  0  0  0  0  0  0  0  0
  133.1130  130.3710   59.7170 H   0  0  0  0  0  0  0  0  0  0  0  0
  130.9547  132.1700   60.8754 H   0  0  0  0  0  0  0  0  0  0  0  0
  129.4896  131.7747   59.9541 H   0  0  0  0  0  0  0  0  0  0  0  0
  130.6464  130.2993   62.1987 H   0  0  0  0  0  0  0  0  0  0  0  0
  129.1917  129.8645   61.3030 H   0  0  0  0  0  0  0  0  0  0  0  0
  132.0465  129.0095   60.9446 H   0  0  0  0  0  0  0  0  0  0  0  0
  129.7041  127.3446   60.3301 H   0  0  0  0  0  0  0  0  0  0  0  0
  131.6046  127.4377   62.7086 H   0  0  0  0  0  0  0  0  0  0  0  0
  129.8238  127.7721   62.6880 H   0  0  0  0  0  0  0  0  0  0  0  0
  130.3508  125.4918   63.5533 H   0  0  0  0  0  0  0  0  0  0  0  0
  129.3644  125.4635   62.0346 H   0  0  0  0  0  0  0  0  0  0  0  0
  131.1160  123.7434   61.9339 H   0  0  0  0  0  0  0  0  0  0  0  0
  133.0672  126.0089   62.4005 H   0  0  0  0  0  0  0  0  0  0  0  0
  134.2339  125.3892   59.9556 H   0  0  0  0  0  0  0  0  0  0  0  0
  134.6533  123.6563   59.7434 H   0  0  0  0  0  0  0  0  0  0  0  0
  132.5492  124.1907   58.5675 H   0  0  0  0  0  0  0  0  0  0  0  0
  132.2568  123.0657   59.9799 H   0  0  0  0  0  0  0  0  0  0  0  0
  129.3708  124.3505   60.3876 H   0  0  0  0  0  0  0  0  0  0  0  0
  129.6899  125.4048   58.9687 H   0  0  0  0  0  0  0  0  0  0  0  0
  130.2610  123.7017   58.9687 H   0  0  0  0  0  0  0  0  0  0  0  0
  132.7192  126.7239   60.4032 H   0  0  0  0  0  0  0  0  0  0  0  0
  133.1023  128.8091   58.6609 H   0  0  0  0  0  0  0  0  0  0  0  0
  132.0425  128.7330   57.1845 H   0  0  0  0  0  0  0  0  0  0  0  0
  128.8770  128.9755   59.0983 H   0  0  0  0  0  0  0  0  0  0  0  0
  129.3497  129.9828   57.6881 H   0  0  0  0  0  0  0  0  0  0  0  0
  129.6937  128.2198   57.6881 H   0  0  0  0  0  0  0  0  0  0  0  0
  1  2  1  0
  2  3  2  0
  2  4  1  0
  4  5  1  0
  5  6  1  0
  6  7  2  0
  6  8  1  0
  8  9  1  1
  8 10  1  0
 10 11  1  0
 11 12  1  0
 12 13  1  0
 13 14  1  0
 14 15  1  0
 15 16  1  0
 16 17  1  0
 17 18  1  0
 17 19  1  0
 19 20  2  0
 19 21  1  0
 21 22  1  0
 22 23  1  0
 23 24  1  6
 23 25  1  0
 25 26  1  0
 26 27  2  0
 26 28  1  0
 28 29  1  0
 29 30  1  6
 29  8  1  0
 29 12  1  0
 25 13  1  0
 23 16  1  0
  1 31  1  0
  1 32  1  0
  1 33  1  0
  5 34  1  0
  5 35  1  0
  9 36  1  0
 10 37  1  0
 10 38  1  0
 11 39  1  0
 11 40  1  0
 12 41  1  1
 13 42  1  6
 14 43  1  0
 14 44  1  0
 15 45  1  0
 15 46  1  0
 16 47  1  6
 17 48  1  1
 21 49  1  0
 21 50  1  0
 22 51  1  0
 22 52  1  0
 24 53  1  0
 24 54  1  0
 24 55  1  0
 25 56  1  1
 28 57  1  0
 28 58  1  0
 30 59  1  0
 30 60  1  0
 30 61  1  0
M  END
>  <Binding energies>  (1) 
[-7.39]

>  <Ligand effiencies>  (1) 
[-0.23838709677419354]

>  <Interactions>  (1) 
["V-A:ILE:369:CG2:3237, V-A:TYR:539:CD1:4873, V-A:ASP:366:CA:3210, H-A:TYR:539:N:4870, V-A:ILE:369:CD1:3239, V-A:PRO:540:CA:4883, H-B:TYR:539:OH:9850, V-A:TYR:531:CZ:4794, H-A:TYR:531:OH:4795, H-A:ASP:366:OD2:3215, V-A:TYR:539:C:4867, V-A:ASP:366:CB:3212, V-A:GLU:543:CD:4908, V-B:TYR:539:CE2:9848, V-A:ARG:545:CZ:4926, V-A:TYR:539:CE1:4875, H-A:GLY:454:N:4050, V-A:ASP:366:CG:3213"]

$$$$
ZINC118933046
     RDKit          3D

 56 59  0  0  0  0  0  0  0  0999 V2000
  129.9570  124.3480   66.3000 C   0  0  0  0  0  0  0  0  0  0  0  0
  130.1350  125.1500   64.9920 C   0  0  2  0  0  0  0  0  0  0  0  0
  129.2400  124.6210   63.8480 C   0  0  0  0  0  0  0  0  0  0  0  0
  129.3510  125.3890   62.4790 C   0  0  1  0  0  0  0  0  0  0  0  0
  128.5360  126.7080   62.6080 C   0  0  0  0  0  0  0  0  0  0  0  0
  130.8420  125.7870   62.2390 C   0  0  0  0  0  0  0  0  0  0  0  0
  131.8110  125.6730   63.1770 C   0  0  0  0  0  0  0  0  0  0  0  0
  131.6030  125.1850   64.5290 C   0  0  0  0  0  0  0  0  0  0  0  0
  132.5550  124.8770   65.2470 O   0  0  0  0  0  0  0  0  0  0  0  0
  131.1660  126.3710   60.8620 C   0  0  0  0  0  0  0  0  0  0  0  0
  130.7010  125.4090   59.7650 C   0  0  0  0  0  0  0  0  0  0  0  0
  129.1870  125.1450   59.8730 C   0  0  1  0  0  0  0  0  0  0  0  0
  128.6440  124.2920   58.6950 C   0  0  2  0  0  0  0  0  0  0  0  0
  128.9390  124.7150   57.2480 C   0  0  0  0  0  0  0  0  0  0  0  0
  127.7960  124.1000   56.4140 C   0  0  0  0  0  0  0  0  0  0  0  0
  126.8630  123.3570   57.4060 C   0  0  1  0  0  0  0  0  0  0  0  0
  125.3970  123.2810   56.9190 C   0  0  0  0  0  0  0  0  0  0  0  0
  127.2430  121.9880   57.4810 O   0  0  0  0  0  0  0  0  0  0  0  0
  127.1080  124.1140   58.7590 C   0  0  2  0  0  0  0  0  0  0  0  0
  126.3140  125.4640   58.7730 C   0  0  0  0  0  0  0  0  0  0  0  0
  126.8220  123.3160   60.0600 C   0  0  0  0  0  0  0  0  0  0  0  0
  127.3190  124.0530   61.3360 C   0  0  1  0  0  0  0  0  0  0  0  0
  127.0200  123.2140   62.4360 O   0  0  0  0  0  0  0  0  0  0  0  0
  128.8400  124.4890   61.2640 C   0  0  2  0  0  0  0  0  0  0  0  0
  129.5340  123.3430   61.3050 F   0  0  0  0  0  0  0  0  0  0  0  0
  130.1050  125.0150   67.1621 H   0  0  0  0  0  0  0  0  0  0  0  0
  128.9428  123.9235   66.3347 H   0  0  0  0  0  0  0  0  0  0  0  0
  130.6964  123.5343   66.3347 H   0  0  0  0  0  0  0  0  0  0  0  0
  129.8178  126.1762   65.2293 H   0  0  0  0  0  0  0  0  0  0  0  0
  129.5092  123.5698   63.6678 H   0  0  0  0  0  0  0  0  0  0  0  0
  128.2041  124.7663   64.1883 H   0  0  0  0  0  0  0  0  0  0  0  0
  128.3891  126.9457   63.6719 H   0  0  0  0  0  0  0  0  0  0  0  0
  129.0854  127.5275   62.1216 H   0  0  0  0  0  0  0  0  0  0  0  0
  127.5573  126.5833   62.1216 H   0  0  0  0  0  0  0  0  0  0  0  0
  132.8312  125.9720   62.8946 H   0  0  0  0  0  0  0  0  0  0  0  0
  130.6499  127.3353   60.7442 H   0  0  0  0  0  0  0  0  0  0  0  0
  132.2529  126.5180   60.7777 H   0  0  0  0  0  0  0  0  0  0  0  0
  130.9207  125.8504   58.7817 H   0  0  0  0  0  0  0  0  0  0  0  0
  131.2343  124.4544   59.8846 H   0  0  0  0  0  0  0  0  0  0  0  0
  128.6805  126.1193   59.8075 H   0  0  0  0  0  0  0  0  0  0  0  0
  129.2254  123.3763   58.8780 H   0  0  0  0  0  0  0  0  0  0  0  0
  128.9377  125.8113   57.1573 H   0  0  0  0  0  0  0  0  0  0  0  0
  129.9285  124.3732   56.9101 H   0  0  0  0  0  0  0  0  0  0  0  0
  127.2393  124.8927   55.8928 H   0  0  0  0  0  0  0  0  0  0  0  0
  128.1909  123.4103   55.6534 H   0  0  0  0  0  0  0  0  0  0  0  0
  124.7233  123.2461   57.7879 H   0  0  0  0  0  0  0  0  0  0  0  0
  125.1660  124.1684   56.3114 H   0  0  0  0  0  0  0  0  0  0  0  0
  125.2590  122.3745   56.3114 H   0  0  0  0  0  0  0  0  0  0  0  0
  127.9970  121.9140   58.0710 H   0  0  0  0  0  0  0  0  0  0  0  0
  126.1328  125.7720   59.8133 H   0  0  0  0  0  0  0  0  0  0  0  0
  126.8999  126.2394   58.2578 H   0  0  0  0  0  0  0  0  0  0  0  0
  125.3516  125.3287   58.2578 H   0  0  0  0  0  0  0  0  0  0  0  0
  125.7367  123.1580   60.1448 H   0  0  0  0  0  0  0  0  0  0  0  0
  127.3671  122.3630   59.9925 H   0  0  0  0  0  0  0  0  0  0  0  0
  126.7969  125.0152   61.4440 H   0  0  0  0  0  0  0  0  0  0  0  0
  126.6000  123.7450   63.1160 H   0  0  0  0  0  0  0  0  0  0  0  0
  1  2  1  0
  2  3  1  0
  3  4  1  0
  4  5  1  1
  4  6  1  0
  6  7  2  0
  7  8  1  0
  8  9  2  0
  6 10  1  0
 10 11  1  0
 11 12  1  0
 12 13  1  0
 13 14  1  0
 14 15  1  0
 15 16  1  0
 16 17  1  0
 16 18  1  1
 16 19  1  0
 19 20  1  6
 19 21  1  0
 21 22  1  0
 22 23  1  0
 22 24  1  0
 24 25  1  6
  8  2  1  0
 24 12  1  0
 24  4  1  0
 19 13  1  0
  1 26  1  0
  1 27  1  0
  1 28  1  0
  2 29  1  1
  3 30  1  0
  3 31  1  0
  5 32  1  0
  5 33  1  0
  5 34  1  0
  7 35  1  0
 10 36  1  0
 10 37  1  0
 11 38  1  0
 11 39  1  0
 12 40  1  1
 13 41  1  1
 14 42  1  0
 14 43  1  0
 15 44  1  0
 15 45  1  0
 17 46  1  0
 17 47  1  0
 17 48  1  0
 18 49  1  0
 20 50  1  0
 20 51  1  0
 20 52  1  0
 21 53  1  0
 21 54  1  0
 22 55  1  1
 23 56  1  0
M  END
>  <Binding energies>  (1) 
[-7.91]

>  <Ligand effiencies>  (1) 
[-0.292962962962963]

>  <Interactions>  (1) 
["V-B:PRO:540:CA:9855, V-B:GLU:543:CB:9878, V-B:TYR:539:CE2:9848, V-A:TYR:484:CE2:4346, H-B:TYR:539:N:9842, H-B:ALA:541:O:9861, V-B:GLU:543:CG:9879, V-A:ASP:366:CG:3213, V-B:TYR:539:CZ:9849, H-B:GLU:543:OE1:9881, H-B:ALA:541:N:9863, V-A:TYR:484:CZ:4347, V-B:PRO:540:CB:9857, V-B:GLU:543:CA:9876, V-B:PRO:540:N:9856, V-B:GLU:543:CD:9880, V-A:ARG:545:CZ:4926, V-B:LEU:363:CD1:8160, H-B:TYR:539:O:9840, H-A:ARG:545:NE:4924, V-B:MET:535:CE:9807, V-B:TYR:539:CE1:9847, H-A:TYR:484:OH:4348"]

$$$$
ZINC118936587
     RDKit          3D

 59 63  0  0  0  0  0  0  0  0999 V2000
  128.6360  126.9320   71.1550 C   0  0  0  0  0  0  0  0  0  0  0  0
  129.6030  127.8450   70.4130 C   0  0  0  0  0  0  0  0  0  0  0  0
  130.7200  128.1010   70.8660 O   0  0  0  0  0  0  0  0  0  0  0  0
  129.0850  128.3050   69.2560 O   0  0  0  0  0  0  0  0  0  0  0  0
  128.3110  127.4510   68.4170 C   0  0  0  0  0  0  0  0  0  0  0  0
  128.9300  127.3480   67.0200 C   0  0  0  0  0  0  0  0  0  0  0  0
  128.7140  128.1770   66.1350 O   0  0  0  0  0  0  0  0  0  0  0  0
  129.8730  126.1650   66.7740 C   0  0  2  0  0  0  0  0  0  0  0  0
  130.1370  125.2770   67.8340 O   0  0  0  0  0  0  0  0  0  0  0  0
  131.2050  126.1120   67.4810 C   0  0  1  0  0  0  0  0  0  0  0  0
  132.2140  125.4580   66.5280 C   0  0  0  0  0  0  0  0  0  0  0  0
  131.5590  125.5900   65.1490 C   0  0  1  0  0  0  0  0  0  0  0  0
  132.0830  124.7450   63.9630 C   0  0  2  0  0  0  0  0  0  0  0  0
  133.6250  124.8000   63.8310 C   0  0  0  0  0  0  0  0  0  0  0  0
  134.1180  124.0350   62.5890 C   0  0  0  0  0  0  0  0  0  0  0  0
  133.4330  124.5530   61.3000 C   0  0  1  0  0  0  0  0  0  0  0  0
  134.0340  123.9060   60.0240 C   0  0  0  0  0  0  0  0  0  0  0  0
  133.3380  124.3580   58.7270 C   0  0  0  0  0  0  0  0  0  0  0  0
  133.9680  124.7000   57.7290 O   0  0  0  0  0  0  0  0  0  0  0  0
  131.8040  124.4000   58.7850 C   0  0  0  0  0  0  0  0  0  0  0  0
  131.3160  125.0850   60.0800 C   0  0  0  0  0  0  0  0  0  0  0  0
  131.8690  124.4350   61.3830 C   0  0  1  0  0  0  0  0  0  0  0  0
  131.4080  122.9470   61.4760 C   0  0  0  0  0  0  0  0  0  0  0  0
  131.4130  125.2640   62.6470 C   0  0  1  0  0  0  0  0  0  0  0  0
  129.8600  125.4300   62.7580 C   0  0  0  0  0  0  0  0  0  0  0  0
  129.3610  126.0420   64.0890 C   0  0  0  0  0  0  0  0  0  0  0  0
  128.5210  126.9390   64.0950 O   0  0  0  0  0  0  0  0  0  0  0  0
  130.0290  125.4600   65.3740 C   0  0  2  0  0  0  0  0  0  0  0  0
  129.5210  123.9840   65.4890 C   0  0  0  0  0  0  0  0  0  0  0  0
  128.7706  127.0591   72.2393 H   0  0  0  0  0  0  0  0  0  0  0  0
  127.6029  127.1918   70.8808 H   0  0  0  0  0  0  0  0  0  0  0  0
  128.8361  125.8857   70.8808 H   0  0  0  0  0  0  0  0  0  0  0  0
  128.2678  126.4479   68.8664 H   0  0  0  0  0  0  0  0  0  0  0  0
  127.3001  127.8743   68.3225 H   0  0  0  0  0  0  0  0  0  0  0  0
  131.8721  126.7789   68.0469 H   0  0  0  0  0  0  0  0  0  0  0  0
  133.1779  125.9873   66.5555 H   0  0  0  0  0  0  0  0  0  0  0  0
  132.4335  124.4136   66.7947 H   0  0  0  0  0  0  0  0  0  0  0  0
  131.8617  126.5756   64.7655 H   0  0  0  0  0  0  0  0  0  0  0  0
  131.8191  123.6931   64.1469 H   0  0  0  0  0  0  0  0  0  0  0  0
  133.9386  125.8512   63.7499 H   0  0  0  0  0  0  0  0  0  0  0  0
  134.0625  124.3257   64.7219 H   0  0  0  0  0  0  0  0  0  0  0  0
  135.2059  124.1679   62.4948 H   0  0  0  0  0  0  0  0  0  0  0  0
  133.8650  122.9717   62.7132 H   0  0  0  0  0  0  0  0  0  0  0  0
  133.6493  125.6284   61.2183 H   0  0  0  0  0  0  0  0  0  0  0  0
  135.0980  124.1781   59.9625 H   0  0  0  0  0  0  0  0  0  0  0  0
  133.8888  122.8190   60.1102 H   0  0  0  0  0  0  0  0  0  0  0  0
  131.4268  124.9613   57.9174 H   0  0  0  0  0  0  0  0  0  0  0  0
  131.4251  123.3674   58.7714 H   0  0  0  0  0  0  0  0  0  0  0  0
  131.6336  126.1379   60.0561 H   0  0  0  0  0  0  0  0  0  0  0  0
  130.2218  124.9753   60.1072 H   0  0  0  0  0  0  0  0  0  0  0  0
  131.3180  122.6564   62.5331 H   0  0  0  0  0  0  0  0  0  0  0  0
  130.4326  122.8337   60.9802 H   0  0  0  0  0  0  0  0  0  0  0  0
  132.1485  122.3021   60.9802 H   0  0  0  0  0  0  0  0  0  0  0  0
  131.7878  126.2870   62.4956 H   0  0  0  0  0  0  0  0  0  0  0  0
  129.5269  126.0816   61.9368 H   0  0  0  0  0  0  0  0  0  0  0  0
  129.4381  124.4153   62.7090 H   0  0  0  0  0  0  0  0  0  0  0  0
  129.4268  123.7103   66.5502 H   0  0  0  0  0  0  0  0  0  0  0  0
  128.5403  123.8945   64.9988 H   0  0  0  0  0  0  0  0  0  0  0  0
  130.2388  123.3099   64.9988 H   0  0  0  0  0  0  0  0  0  0  0  0
  1  2  1  0
  2  3  2  0
  2  4  1  0
  4  5  1  0
  5  6  1  0
  6  7  2  0
  8  6  1  1
  8  9  1  0
  9 10  1  0
 10 11  1  0
 11 12  1  0
 12 13  1  0
 13 14  1  0
 14 15  1  0
 15 16  1  0
 16 17  1  0
 17 18  1  0
 18 19  2  0
 18 20  1  0
 20 21  1  0
 21 22  1  0
 22 23  1  1
 22 24  1  0
 24 25  1  0
 25 26  1  0
 26 27  2  0
 26 28  1  0
 28 29  1  1
 10  8  1  0
 28 12  1  0
 28  8  1  0
 24 13  1  0
 22 16  1  0
  1 30  1  0
  1 31  1  0
  1 32  1  0
  5 33  1  0
  5 34  1  0
 10 35  1  1
 11 36  1  0
 11 37  1  0
 12 38  1  6
 13 39  1  1
 14 40  1  0
 14 41  1  0
 15 42  1  0
 15 43  1  0
 16 44  1  6
 17 45  1  0
 17 46  1  0
 20 47  1  0
 20 48  1  0
 21 49  1  0
 21 50  1  0
 23 51  1  0
 23 52  1  0
 23 53  1  0
 24 54  1  6
 25 55  1  0
 25 56  1  0
 29 57  1  0
 29 58  1  0
 29 59  1  0
M  END
>  <Binding energies>  (1) 
[-7.26]

>  <Ligand effiencies>  (1) 
[-0.2503448275862069]

>  <Interactions>  (1) 
["V-A:ILE:369:CG2:3237, V-A:ASP:366:CA:3210, V-A:GLY:454:CA:4049, V-A:ILE:369:CB:3236, V-B:GLU:543:CB:9878, V-B:TYR:539:CE2:9848, V-A:TYR:484:CE2:4346, V-B:GLU:543:CG:9879, V-A:ASP:366:CG:3213, V-B:TYR:539:CZ:9849, H-B:TYR:539:OH:9850, V-A:GLU:543:CD:4908, V-A:TYR:484:CZ:4347, V-A:ARG:545:CG:4922, V-B:HIS:456:CE1:9041, V-B:GLU:543:CA:9876, V-A:GLY:453:C:4042, V-A:HIS:456:CE1:4070, V-A:ILE:369:CD1:3239, V-B:GLU:543:CD:9880, V-A:ASP:366:CB:3212, V-A:ARG:545:CZ:4926, H-A:TYR:484:OH:4348"]

$$$$
ZINC118937023
     RDKit          3D

 76 81  0  0  0  0  0  0  0  0999 V2000
  128.7310  133.3050   56.4460 C   0  0  0  0  0  0  0  0  0  0  0  0
  129.5440  133.2050   57.7560 C   0  0  2  0  0  0  0  0  0  0  0  0
  130.7000  132.1910   57.6250 C   0  0  0  0  0  0  0  0  0  0  0  0
  130.1820  130.7490   57.4670 C   0  0  0  0  0  0  0  0  0  0  0  0
  129.2620  130.3340   58.6470 C   0  0  2  0  0  0  0  0  0  0  0  0
  130.0890  130.2320   59.8040 O   0  0  0  0  0  0  0  0  0  0  0  0
  129.8100  129.0270   60.4980 C   0  0  2  0  0  0  0  0  0  0  0  0
  130.8020  128.2590   61.3860 C   0  0  0  0  0  0  0  0  0  0  0  0
  130.7650  126.8130   60.8230 C   0  0  1  0  0  0  0  0  0  0  0  0
  130.8670  125.5720   61.7430 C   0  0  2  0  0  0  0  0  0  0  0  0
  132.0330  125.6830   62.7540 C   0  0  0  0  0  0  0  0  0  0  0  0
  132.1760  124.4120   63.6180 C   0  0  0  0  0  0  0  0  0  0  0  0
  132.3150  123.1200   62.7640 C   0  0  2  0  0  0  0  0  0  0  0  0
  133.7080  123.0440   62.0650 C   0  0  0  0  0  0  0  0  0  0  0  0
  133.9030  121.7790   61.2040 C   0  0  1  0  0  0  0  0  0  0  0  0
  133.9950  120.6290   62.0260 O   0  0  0  0  0  0  0  0  0  0  0  0
  132.7450  121.6400   60.1930 C   0  0  0  0  0  0  0  0  0  0  0  0
  131.3740  121.6770   60.8980 C   0  0  0  0  0  0  0  0  0  0  0  0
  131.1280  122.9730   61.7370 C   0  0  1  0  0  0  0  0  0  0  0  0
  129.8050  122.7270   62.5240 C   0  0  0  0  0  0  0  0  0  0  0  0
  131.0440  124.2820   60.8580 C   0  0  1  0  0  0  0  0  0  0  0  0
  130.0380  124.2030   59.6570 C   0  0  0  0  0  0  0  0  0  0  0  0
  129.8470  125.5440   58.8960 C   0  0  0  0  0  0  0  0  0  0  0  0
  129.5400  126.7140   59.8650 C   0  0  1  0  0  0  0  0  0  0  0  0
  128.1530  126.5080   60.5540 C   0  0  0  0  0  0  0  0  0  0  0  0
  129.6900  128.1330   59.2770 C   0  0  1  0  0  0  0  0  0  0  0  0
  128.6640  128.8730   58.4500 C   0  0  2  0  0  0  0  0  0  0  0  0
  128.5080  128.3800   56.9960 C   0  0  0  0  0  0  0  0  0  0  0  0
  128.2460  131.3770   58.9300 N   0  0  0  0  0  0  0  0  0  0  0  0
  127.2280  130.9980   59.7170 N   0  0  0  0  0  0  0  0  0  0  0  0
  126.1430  130.8960   59.1800 O   0  0  0  0  0  0  0  0  0  0  0  0
  128.6680  132.7980   58.9600 C   0  0  0  0  0  0  0  0  0  0  0  0
  127.6653  133.4361   56.6850 H   0  0  0  0  0  0  0  0  0  0  0  0
  129.0841  134.1665   55.8602 H   0  0  0  0  0  0  0  0  0  0  0  0
  128.8648  132.3836   55.8602 H   0  0  0  0  0  0  0  0  0  0  0  0
  129.9493  134.2117   57.9357 H   0  0  0  0  0  0  0  0  0  0  0  0
  131.3033  132.4511   56.7428 H   0  0  0  0  0  0  0  0  0  0  0  0
  131.3021  132.2388   58.5443 H   0  0  0  0  0  0  0  0  0  0  0  0
  129.6124  130.6761   56.5288 H   0  0  0  0  0  0  0  0  0  0  0  0
  131.0499  130.0733   57.4562 H   0  0  0  0  0  0  0  0  0  0  0  0
  129.0279  129.2719   61.2317 H   0  0  0  0  0  0  0  0  0  0  0  0
  131.8126  128.6854   61.3033 H   0  0  0  0  0  0  0  0  0  0  0  0
  130.5398  128.3055   62.4533 H   0  0  0  0  0  0  0  0  0  0  0  0
  131.7487  126.7191   60.3397 H   0  0  0  0  0  0  0  0  0  0  0  0
  129.9372  125.5093   62.3274 H   0  0  0  0  0  0  0  0  0  0  0  0
  132.9695  125.8418   62.1992 H   0  0  0  0  0  0  0  0  0  0  0  0
  131.8190  126.5270   63.4262 H   0  0  0  0  0  0  0  0  0  0  0  0
  133.0706  124.5145   64.2498 H   0  0  0  0  0  0  0  0  0  0  0  0
  131.2615  124.3152   64.2216 H   0  0  0  0  0  0  0  0  0  0  0  0
  132.2522  122.2619   63.4493 H   0  0  0  0  0  0  0  0  0  0  0  0
  133.8195  123.9256   61.4167 H   0  0  0  0  0  0  0  0  0  0  0  0
  134.4655  123.0097   62.8619 H   0  0  0  0  0  0  0  0  0  0  0  0
  134.8446  121.8739   60.6432 H   0  0  0  0  0  0  0  0  0  0  0  0
  134.7130  120.7560   62.6510 H   0  0  0  0  0  0  0  0  0  0  0  0
  132.7987  122.4685   59.4714 H   0  0  0  0  0  0  0  0  0  0  0  0
  132.8456  120.6706   59.6830 H   0  0  0  0  0  0  0  0  0  0  0  0
  130.5883  121.6063   60.1314 H   0  0  0  0  0  0  0  0  0  0  0  0
  131.3541  120.8322   61.6022 H   0  0  0  0  0  0  0  0  0  0  0  0
  130.0086  122.7649   63.6043 H   0  0  0  0  0  0  0  0  0  0  0  0
  129.0723  123.5043   62.2615 H   0  0  0  0  0  0  0  0  0  0  0  0
  129.4006  121.7383   62.2615 H   0  0  0  0  0  0  0  0  0  0  0  0
  132.0234  124.3659   60.3642 H   0  0  0  0  0  0  0  0  0  0  0  0
  130.4100  123.4521   58.9444 H   0  0  0  0  0  0  0  0  0  0  0  0
  129.0585  123.9390   60.0824 H   0  0  0  0  0  0  0  0  0  0  0  0
  130.7685  125.7733   58.3409 H   0  0  0  0  0  0  0  0  0  0  0  0
  128.9927  125.4317   58.2123 H   0  0  0  0  0  0  0  0  0  0  0  0
  128.2799  126.5268   61.6465 H   0  0  0  0  0  0  0  0  0  0  0  0
  127.4693  127.3145   60.2503 H   0  0  0  0  0  0  0  0  0  0  0  0
  127.7332  125.5377   60.2503 H   0  0  0  0  0  0  0  0  0  0  0  0
  130.4901  127.9504   58.5445 H   0  0  0  0  0  0  0  0  0  0  0  0
  127.6123  128.7525   58.7490 H   0  0  0  0  0  0  0  0  0  0  0  0
  128.1761  127.3313   56.9980 H   0  0  0  0  0  0  0  0  0  0  0  0
  127.7620  128.9996   56.4768 H   0  0  0  0  0  0  0  0  0  0  0  0
  129.4746  128.4577   56.4768 H   0  0  0  0  0  0  0  0  0  0  0  0
  127.7669  133.4289   58.9642 H   0  0  0  0  0  0  0  0  0  0  0  0
  129.2776  132.9358   59.8652 H   0  0  0  0  0  0  0  0  0  0  0  0
  1  2  1  0
  2  3  1  0
  3  4  1  0
  4  5  1  0
  5  6  1  1
  6  7  1  0
  7  8  1  0
  8  9  1  0
  9 10  1  0
 10 11  1  0
 11 12  1  0
 12 13  1  0
 13 14  1  0
 14 15  1  0
 15 16  1  0
 15 17  1  0
 17 18  1  0
 18 19  1  0
 19 20  1  1
 19 21  1  0
 21 22  1  0
 22 23  1  0
 23 24  1  0
 24 25  1  1
 24 26  1  0
 26 27  1  0
 27 28  1  0
  5 29  1  0
 29 30  1  0
 30 31  2  0
 29 32  1  0
 32  2  1  0
 27  5  1  0
 26  7  1  0
 24  9  1  0
 21 10  1  0
 19 13  1  0
  1 33  1  0
  1 34  1  0
  1 35  1  0
  2 36  1  1
  3 37  1  0
  3 38  1  0
  4 39  1  0
  4 40  1  0
  7 41  1  1
  8 42  1  0
  8 43  1  0
  9 44  1  6
 10 45  1  1
 11 46  1  0
 11 47  1  0
 12 48  1  0
 12 49  1  0
 13 50  1  1
 14 51  1  0
 14 52  1  0
 15 53  1  6
 16 54  1  0
 17 55  1  0
 17 56  1  0
 18 57  1  0
 18 58  1  0
 20 59  1  0
 20 60  1  0
 20 61  1  0
 21 62  1  6
 22 63  1  0
 22 64  1  0
 23 65  1  0
 23 66  1  0
 25 67  1  0
 25 68  1  0
 25 69  1  0
 26 70  1  6
 27 71  1  1
 28 72  1  0
 28 73  1  0
 28 74  1  0
 32 75  1  0
 32 76  1  0
M  END
>  <Binding energies>  (1) 
[-7.96]

>  <Ligand effiencies>  (1) 
[-0.2412121212121212]

>  <Interactions>  (1) 
["V-A:ILE:369:CG2:3237, V-A:ILE:538:C:4858, V-B:TYR:539:CE2:9848, V-A:TYR:539:CE2:4876, V-A:TYR:539:CD1:4873, V-A:ILE:538:CA:4860, V-A:TYR:539:CZ:4877, V-A:TYR:539:CA:4869, V-A:ILE:369:CD1:3239, V-B:TYR:539:CD2:9846, H-A:SER:385:OG:3410, V-A:MET:535:CE:4835, V-A:TYR:539:C:4867, V-A:LEU:475:CD2:4259, V-A:ARG:545:CZ:4926, V-A:PRO:540:N:4884, V-A:TYR:539:CG:4872, V-A:PRO:540:CA:4883, V-A:TYR:539:CD2:4874, H-A:SER:385:O:3406, V-A:TYR:539:CE1:4875"]

$$$$
ZINC11913792
     RDKit          3D

 44 47  0  0  0  0  0  0  0  0999 V2000
  128.4900  127.4410   64.1520 O   0  0  0  0  0  0  0  0  0  0  0  0
  129.2820  126.7960   64.8380 C   0  0  0  0  0  0  0  0  0  0  0  0
  130.3620  126.0340   64.1960 C   0  0  0  0  0  0  0  0  0  0  0  0
  131.4870  125.5670   64.7540 C   0  0  0  0  0  0  0  0  0  0  0  0
  132.0110  125.6510   66.0090 O   0  0  0  0  0  0  0  0  0  0  0  0
  132.2810  124.8200   63.8000 C   0  0  0  0  0  0  0  0  0  0  0  0
  133.3690  124.2730   63.9880 O   0  0  0  0  0  0  0  0  0  0  0  0
  131.5710  124.8520   62.6410 N   0  0  0  0  0  0  0  0  0  0  0  0
  131.9870  124.2800   61.3460 C   0  0  2  0  0  0  0  0  0  0  0  0
  132.7720  122.9510   61.5040 C   0  0  0  0  0  0  0  0  0  0  0  0
  133.2790  122.5160   60.1250 C   0  0  0  0  0  0  0  0  0  0  0  0
  133.7950  124.1210   59.2960 S   0  0  0  0  0  0  0  0  0  0  0  0
  135.2330  124.3450   59.4730 O   0  0  0  0  0  0  0  0  0  0  0  0
  133.1950  124.1800   57.9590 O   0  0  0  0  0  0  0  0  0  0  0  0
  132.8480  125.2310   60.4840 C   0  0  0  0  0  0  0  0  0  0  0  0
  130.3200  125.5840   62.7600 C   0  0  1  0  0  0  0  0  0  0  0  0
  129.0860  124.7500   62.3940 C   0  0  0  0  0  0  0  0  0  0  0  0
  128.7460  123.6100   63.1380 C   0  0  0  0  0  0  0  0  0  0  0  0
  127.6220  122.8560   62.8030 C   0  0  0  0  0  0  0  0  0  0  0  0
  126.8260  123.2340   61.7230 C   0  0  0  0  0  0  0  0  0  0  0  0
  127.1540  124.3660   60.9780 C   0  0  0  0  0  0  0  0  0  0  0  0
  128.2790  125.1220   61.3100 C   0  0  0  0  0  0  0  0  0  0  0  0
  128.5790  126.2170   60.5740 F   0  0  0  0  0  0  0  0  0  0  0  0
  129.1650  126.8090   66.2990 C   0  0  0  0  0  0  0  0  0  0  0  0
  128.7270  127.8590   67.1060 C   0  0  0  0  0  0  0  0  0  0  0  0
  128.7080  127.5460   68.4690 C   0  0  0  0  0  0  0  0  0  0  0  0
  129.1100  126.2440   68.7230 C   0  0  0  0  0  0  0  0  0  0  0  0
  129.5120  125.3950   67.2670 S   0  0  0  0  0  0  0  0  0  0  0  0
  131.9880  126.5650   66.3020 H   0  0  0  0  0  0  0  0  0  0  0  0
  131.0320  124.1010   60.8303 H   0  0  0  0  0  0  0  0  0  0  0  0
  133.6251  123.1028   62.1816 H   0  0  0  0  0  0  0  0  0  0  0  0
  132.1162  122.1749   61.9253 H   0  0  0  0  0  0  0  0  0  0  0  0
  134.1365  121.8338   60.2220 H   0  0  0  0  0  0  0  0  0  0  0  0
  132.5171  121.9703   59.5490 H   0  0  0  0  0  0  0  0  0  0  0  0
  133.5455  125.7980   61.1181 H   0  0  0  0  0  0  0  0  0  0  0  0
  132.2295  125.9661   59.9482 H   0  0  0  0  0  0  0  0  0  0  0  0
  130.2266  126.4205   62.0518 H   0  0  0  0  0  0  0  0  0  0  0  0
  129.3708  123.3089   63.9918 H   0  0  0  0  0  0  0  0  0  0  0  0
  127.3635  121.9630   63.3909 H   0  0  0  0  0  0  0  0  0  0  0  0
  125.9392  122.6393   61.4585 H   0  0  0  0  0  0  0  0  0  0  0  0
  126.5245  124.6639   60.1265 H   0  0  0  0  0  0  0  0  0  0  0  0
  128.4254  128.8393   66.7085 H   0  0  0  0  0  0  0  0  0  0  0  0
  128.4069  128.2556   69.2537 H   0  0  0  0  0  0  0  0  0  0  0  0
  129.1670  125.8024   69.7289 H   0  0  0  0  0  0  0  0  0  0  0  0
  1  2  2  0
  2  3  1  0
  3  4  2  0
  4  5  1  0
  4  6  1  0
  6  7  2  0
  6  8  1  0
  8  9  1  0
  9 10  1  0
 10 11  1  0
 11 12  1  0
 12 13  2  0
 12 14  2  0
 12 15  1  0
  8 16  1  0
 16 17  1  0
 17 18  2  0
 18 19  1  0
 19 20  2  0
 20 21  1  0
 21 22  2  0
 22 23  1  0
  2 24  1  0
 24 25  2  0
 25 26  1  0
 26 27  2  0
 27 28  1  0
 16  3  1  0
 22 17  1  0
 28 24  1  0
 15  9  1  0
  5 29  1  0
  9 30  1  6
 10 31  1  0
 10 32  1  0
 11 33  1  0
 11 34  1  0
 15 35  1  0
 15 36  1  0
 16 37  1  6
 18 38  1  0
 19 39  1  0
 20 40  1  0
 21 41  1  0
 25 42  1  0
 26 43  1  0
 27 44  1  0
M  END
>  <Binding energies>  (1) 
[-7.43]

>  <Ligand effiencies>  (1) 
[-0.25620689655172413]

>  <Interactions>  (1) 
["V-A:ILE:369:CG2:3237, V-A:ASP:366:CA:3210, V-B:PRO:540:CA:9855, V-B:GLU:543:C:9874, H-A:GLU:543:OE2:4910, V-A:ILE:369:CB:3236, V-B:GLU:543:CB:9878, V-B:ALA:541:CB:9864, V-B:TYR:539:CE2:9848, V-B:GLU:543:CG:9879, V-A:ASP:366:CG:3213, H-B:TYR:539:OH:9850, V-A:GLU:543:CD:4908, V-B:HIS:456:CE1:9041, V-B:GLU:543:CA:9876, H-A:GLY:454:N:4050, H-A:ASP:366:N:3211, V-A:HIS:456:CE1:4070, V-A:ILE:369:CD1:3239, V-A:GLU:543:CG:4907, V-B:GLU:543:CD:9880, V-A:ASP:366:CB:3212, V-A:ARG:545:CZ:4926, H-A:GLU:543:OE1:4909, V-A:GLU:543:CB:4906, H-A:ARG:545:NE:4924, V-B:PRO:540:C:9853, V-B:ALA:541:CA:9862, H-A:TYR:484:OH:4348"]

$$$$
ZINC120276016
     RDKit          3D

 29 31  0  0  0  0  0  0  0  0999 V2000
  133.6020  124.9330   64.8140 N   0  0  0  0  0  0  0  0  0  0  0  0
  132.5030  125.0740   65.1490 C   0  0  0  0  0  0  0  0  0  0  0  0
  131.0980  125.2540   65.5770 C   0  0  0  0  0  0  0  0  0  0  0  0
  131.0010  125.8480   66.9130 N   0  0  0  0  0  0  0  0  0  0  0  0
  129.8670  126.2910   67.4910 C   0  0  0  0  0  0  0  0  0  0  0  0
  128.7700  126.1980   66.9360 O   0  0  0  0  0  0  0  0  0  0  0  0
  129.9950  126.9060   68.8720 C   0  0  0  0  0  0  0  0  0  0  0  0
  131.0860  127.7550   69.1500 C   0  0  0  0  0  0  0  0  0  0  0  0
  131.2720  128.3600   70.3970 C   0  0  0  0  0  0  0  0  0  0  0  0
  130.3280  128.1040   71.4000 C   0  0  0  0  0  0  0  0  0  0  0  0
  130.2440  128.5420   72.6920 N   0  0  0  0  0  0  0  0  0  0  0  0
  129.1470  127.9690   73.1370 C   0  0  0  0  0  0  0  0  0  0  0  0
  128.4520  128.1130   74.7440 S   0  0  0  0  0  0  0  0  0  0  0  0
  128.4830  127.1750   72.2440 O   0  0  0  0  0  0  0  0  0  0  0  0
  129.2450  127.2590   71.1200 C   0  0  0  0  0  0  0  0  0  0  0  0
  129.0450  126.6470   69.8800 C   0  0  0  0  0  0  0  0  0  0  0  0
  130.2210  125.9090   64.4900 C   0  0  0  0  0  0  0  0  0  0  0  0
  129.8400  124.5020   64.0100 C   0  0  0  0  0  0  0  0  0  0  0  0
  130.2600  123.9760   65.3910 C   0  0  0  0  0  0  0  0  0  0  0  0
  131.8760  126.0360   67.3810 H   0  0  0  0  0  0  0  0  0  0  0  0
  131.8201  127.9492   68.3542 H   0  0  0  0  0  0  0  0  0  0  0  0
  132.1338  129.0173   70.5847 H   0  0  0  0  0  0  0  0  0  0  0  0
  128.1816  125.9901   69.6981 H   0  0  0  0  0  0  0  0  0  0  0  0
  129.3794  126.5006   64.8794 H   0  0  0  0  0  0  0  0  0  0  0  0
  130.6346  126.6561   63.7966 H   0  0  0  0  0  0  0  0  0  0  0  0
  128.7729  124.3722   63.7768 H   0  0  0  0  0  0  0  0  0  0  0  0
  130.2556  124.0790   63.0835 H   0  0  0  0  0  0  0  0  0  0  0  0
  129.4323  123.8663   66.1072 H   0  0  0  0  0  0  0  0  0  0  0  0
  130.7078  122.9783   65.5091 H   0  0  0  0  0  0  0  0  0  0  0  0
  1  2  3  0
  2  3  1  0
  3  4  1  0
  4  5  1  0
  5  6  2  0
  5  7  1  0
  7  8  2  0
  8  9  1  0
  9 10  2  0
 10 11  1  0
 11 12  2  0
 12 13  1  0
 12 14  1  0
 14 15  1  0
 15 16  2  0
  3 17  1  0
 17 18  1  0
 18 19  1  0
 19  3  1  0
 16  7  1  0
 15 10  1  0
  4 20  1  0
  8 21  1  0
  9 22  1  0
 16 23  1  0
 17 24  1  0
 17 25  1  0
 18 26  1  0
 18 27  1  0
 19 28  1  0
 19 29  1  0
M  CHG  1  13  -1
M  END
>  <Binding energies>  (1) 
[-7.12]

>  <Ligand effiencies>  (1) 
[-0.356]

>  <Interactions>  (1) 
["V-A:ARG:545:CA:4919, V-A:GLU:543:CA:4904, V-B:GLU:543:C:9874, H-A:GLU:543:OE2:4910, V-A:GLU:543:C:4902, V-B:GLU:543:CB:9878, V-A:TYR:484:CE2:4346, V-A:GLY:544:CA:4914, V-B:GLU:543:CG:9879, V-A:GLY:544:C:4912, V-A:GLU:543:CD:4908, V-A:TYR:484:CZ:4347, V-A:ARG:545:CG:4922, H-A:GLY:454:N:4050, V-A:HIS:456:CE1:4070, V-B:GLU:543:CD:9880, H-A:LYS:547:NZ:4951, H-A:ARG:545:NH2:4928, V-A:ARG:545:CZ:4926, V-A:GLU:543:CB:4906, H-A:ARG:545:NE:4924, H-A:TYR:484:OH:4348"]

$$$$
ZINC120276016-again1
     RDKit          3D

 30 32  0  0  0  0  0  0  0  0999 V2000
  133.6260  124.6650   64.3190 N   0  0  0  0  0  0  0  0  0  0  0  0
  132.5070  124.7930   64.5850 C   0  0  0  0  0  0  0  0  0  0  0  0
  131.0760  124.9580   64.9230 C   0  0  0  0  0  0  0  0  0  0  0  0
  130.8860  125.7470   66.1430 N   0  0  0  0  0  0  0  0  0  0  0  0
  130.1270  125.3840   67.1960 C   0  0  0  0  0  0  0  0  0  0  0  0
  129.4820  124.3340   67.2100 O   0  0  0  0  0  0  0  0  0  0  0  0
  130.0940  126.3330   68.3780 C   0  0  0  0  0  0  0  0  0  0  0  0
  131.0670  127.3560   68.4780 C   0  0  0  0  0  0  0  0  0  0  0  0
  131.0760  128.2530   69.5530 C   0  0  0  0  0  0  0  0  0  0  0  0
  130.0950  128.1140   70.5270 C   0  0  0  0  0  0  0  0  0  0  0  0
  129.8000  128.7860   71.6820 N   0  0  0  0  0  0  0  0  0  0  0  0
  128.7170  128.2720   72.3220 C   0  0  0  0  0  0  0  0  0  0  0  0
  127.9860  128.7380   73.7340 S   0  0  0  0  0  0  0  0  0  0  0  0
  128.2990  127.1990   71.5150 O   0  0  0  0  0  0  0  0  0  0  0  0
  129.1470  127.1320   70.4450 C   0  0  0  0  0  0  0  0  0  0  0  0
  129.1150  126.2260   69.3900 C   0  0  0  0  0  0  0  0  0  0  0  0
  130.2420  125.4390   63.7220 C   0  0  0  0  0  0  0  0  0  0  0  0
  129.9310  123.9700   63.4010 C   0  0  0  0  0  0  0  0  0  0  0  0
  130.2890  123.6330   64.8560 C   0  0  0  0  0  0  0  0  0  0  0  0
  131.4620  126.5710   66.2310 H   0  0  0  0  0  0  0  0  0  0  0  0
  131.8330  127.4484   67.6939 H   0  0  0  0  0  0  0  0  0  0  0  0
  131.8370  129.0441   69.6243 H   0  0  0  0  0  0  0  0  0  0  0  0
  130.2980  129.5790   72.0610 H   0  0  0  0  0  0  0  0  0  0  0  0
  128.3437  125.4430   69.3450 H   0  0  0  0  0  0  0  0  0  0  0  0
  129.3622  126.0419   63.9914 H   0  0  0  0  0  0  0  0  0  0  0  0
  130.6704  126.1099   62.9628 H   0  0  0  0  0  0  0  0  0  0  0  0
  128.8830  123.7733   63.1310 H   0  0  0  0  0  0  0  0  0  0  0  0
  130.4102  123.4525   62.5568 H   0  0  0  0  0  0  0  0  0  0  0  0
  129.4266  123.5806   65.5368 H   0  0  0  0  0  0  0  0  0  0  0  0
  130.7602  122.6750   65.1209 H   0  0  0  0  0  0  0  0  0  0  0  0
  1  2  3  0
  2  3  1  0
  3  4  1  0
  4  5  1  0
  5  6  2  0
  5  7  1  0
  7  8  2  0
  8  9  1  0
  9 10  2  0
 10 11  1  0
 11 12  1  0
 12 13  2  0
 12 14  1  0
 14 15  1  0
 15 16  2  0
  3 17  1  0
 17 18  1  0
 18 19  1  0
 19  3  1  0
 16  7  1  0
 15 10  1  0
  4 20  1  0
  8 21  1  0
  9 22  1  0
 11 23  1  0
 16 24  1  0
 17 25  1  0
 17 26  1  0
 18 27  1  0
 18 28  1  0
 19 29  1  0
 19 30  1  0
M  END
>  <Binding energies>  (1) 
[-6.39]

>  <Ligand effiencies>  (1) 
[-0.30428571428571427]

>  <Interactions>  (1) 
["V-A:GLU:543:CA:4904, V-B:HIS:456:CD2:9039, H-A:GLU:543:OE2:4910, V-A:GLU:543:C:4902, V-B:GLU:543:C:9874, V-B:GLU:543:CB:9878, V-A:TYR:484:CE2:4346, V-A:GLY:544:C:4912, V-B:GLU:543:CG:9879, V-A:GLU:543:CD:4908, V-A:ARG:545:CG:4922, V-B:HIS:456:CE1:9041, H-A:GLY:454:N:4050, V-A:HIS:456:CE1:4070, V-B:HIS:456:CG:9037, H-A:ARG:545:NH2:4928, V-A:ARG:545:CZ:4926, H-A:GLU:543:OE1:4909, V-A:GLU:543:CB:4906, H-A:ARG:545:NE:4924, H-A:GLY:544:O:4913, H-A:TYR:484:OH:4348, H-A:GLU:543:O:4903"]

$$$$
ZINC1203242
     RDKit          3D

 33 35  0  0  0  0  0  0  0  0999 V2000
  129.0190  127.3120   64.1530 O   0  0  0  0  0  0  0  0  0  0  0  0
  129.3990  126.3140   64.7770 C   0  0  0  0  0  0  0  0  0  0  0  0
  129.4820  126.2180   66.2190 C   0  0  0  0  0  0  0  0  0  0  0  0
  129.1180  127.2530   67.0140 C   0  0  0  0  0  0  0  0  0  0  0  0
  129.1720  127.3160   68.4870 C   0  0  0  0  0  0  0  0  0  0  0  0
  128.0800  126.9650   69.2870 C   0  0  0  0  0  0  0  0  0  0  0  0
  128.1700  127.0400   70.6740 C   0  0  0  0  0  0  0  0  0  0  0  0
  129.3550  127.4650   71.2890 C   0  0  0  0  0  0  0  0  0  0  0  0
  129.4520  127.5480   72.7670 N   0  0  0  0  0  0  0  0  0  0  0  0
  129.8690  128.5870   73.2730 O   0  0  0  0  0  0  0  0  0  0  0  0
  129.1100  126.5760   73.4340 O   0  0  0  0  0  0  0  0  0  0  0  0
  130.4500  127.8070   70.4830 C   0  0  0  0  0  0  0  0  0  0  0  0
  130.3580  127.7320   69.0960 C   0  0  0  0  0  0  0  0  0  0  0  0
  130.0590  124.6160   66.6760 S   0  0  0  0  0  0  0  0  0  0  0  0
  130.1890  124.1180   65.0130 C   0  0  0  0  0  0  0  0  0  0  0  0
  130.7280  122.5780   64.6570 S   0  0  0  0  0  0  0  0  0  0  0  0
  129.7970  125.1480   64.1960 N   0  0  0  0  0  0  0  0  0  0  0  0
  129.7980  125.0280   62.7870 C   0  0  0  0  0  0  0  0  0  0  0  0
  128.8230  124.2470   62.1560 C   0  0  0  0  0  0  0  0  0  0  0  0
  128.8360  124.1150   60.7690 C   0  0  0  0  0  0  0  0  0  0  0  0
  129.8210  124.7570   60.0220 C   0  0  0  0  0  0  0  0  0  0  0  0
  129.8330  124.6260   58.6770 F   0  0  0  0  0  0  0  0  0  0  0  0
  130.7970  125.5320   60.6480 C   0  0  0  0  0  0  0  0  0  0  0  0
  130.7890  125.6690   62.0330 C   0  0  0  0  0  0  0  0  0  0  0  0
  128.7385  128.1497   66.5022 H   0  0  0  0  0  0  0  0  0  0  0  0
  127.1443  126.6276   68.8173 H   0  0  0  0  0  0  0  0  0  0  0  0
  127.3035  126.7633   71.2925 H   0  0  0  0  0  0  0  0  0  0  0  0
  131.3894  128.1373   70.9504 H   0  0  0  0  0  0  0  0  0  0  0  0
  131.2252  128.0022   68.4755 H   0  0  0  0  0  0  0  0  0  0  0  0
  128.0501  123.7398   62.7522 H   0  0  0  0  0  0  0  0  0  0  0  0
  128.0709  123.5058   60.2655 H   0  0  0  0  0  0  0  0  0  0  0  0
  131.5711  126.0337   60.0487 H   0  0  0  0  0  0  0  0  0  0  0  0
  131.5570  126.2776   62.5328 H   0  0  0  0  0  0  0  0  0  0  0  0
  1  2  2  0
  2  3  1  0
  3  4  2  0
  4  5  1  0
  5  6  2  0
  6  7  1  0
  7  8  2  0
  8  9  1  0
  9 10  2  0
  9 11  1  0
  8 12  1  0
 12 13  2  0
  3 14  1  0
 14 15  1  0
 15 16  2  0
 15 17  1  0
 17 18  1  0
 18 19  2  0
 19 20  1  0
 20 21  2  0
 21 22  1  0
 21 23  1  0
 23 24  2  0
 17  2  1  0
 24 18  1  0
 13  5  1  0
  4 25  1  0
  6 26  1  0
  7 27  1  0
 12 28  1  0
 13 29  1  0
 19 30  1  0
 20 31  1  0
 23 32  1  0
 24 33  1  0
M  CHG  2   9   1  11  -1
M  END
>  <Binding energies>  (1) 
[-7.11]

>  <Ligand effiencies>  (1) 
[-0.29625]

>  <Interactions>  (1) 
["V-A:HIS:456:CE1:4070, V-B:TYR:539:CZ:9849, V-B:GLU:543:C:9874, V-A:GLU:543:C:4902, V-B:GLU:543:CB:9878, H-B:LYS:547:NZ:9923, V-B:GLU:543:CD:9880, V-A:GLU:543:CB:4906, V-A:GLU:543:CD:4908, V-A:TYR:484:CE2:4346, V-A:TYR:484:CZ:4347, V-B:TYR:539:CE2:9848, H-A:LYS:547:NZ:4951, V-A:LEU:475:CD2:4259, V-B:GLU:543:CG:9879, V-A:GLY:544:C:4912, V-B:HIS:456:CE1:9041, H-A:TYR:484:OH:4348"]

$$$$
ZINC1212750
     RDKit          3D

 37 40  0  0  0  0  0  0  0  0999 V2000
  128.9800  126.4340   63.5260 O   0  0  0  0  0  0  0  0  0  0  0  0
  129.0230  126.8230   64.6960 C   0  0  0  0  0  0  0  0  0  0  0  0
  129.6570  126.1300   65.8030 C   0  0  0  0  0  0  0  0  0  0  0  0
  130.2980  124.9400   65.7170 C   0  0  0  0  0  0  0  0  0  0  0  0
  130.4690  124.0420   64.5530 C   0  0  0  0  0  0  0  0  0  0  0  0
  129.4190  123.1950   64.1880 C   0  0  0  0  0  0  0  0  0  0  0  0
  129.5340  122.3230   63.1140 C   0  0  0  0  0  0  0  0  0  0  0  0
  130.7090  122.2640   62.3760 C   0  0  0  0  0  0  0  0  0  0  0  0
  131.8060  123.0920   62.7100 C   0  0  0  0  0  0  0  0  0  0  0  0
  133.0140  123.0410   61.9690 C   0  0  0  0  0  0  0  0  0  0  0  0
  134.0850  123.8610   62.3080 C   0  0  0  0  0  0  0  0  0  0  0  0
  133.9860  124.7430   63.3780 C   0  0  0  0  0  0  0  0  0  0  0  0
  132.8160  124.8190   64.1260 C   0  0  0  0  0  0  0  0  0  0  0  0
  131.6950  123.9960   63.8150 C   0  0  0  0  0  0  0  0  0  0  0  0
  129.4860  127.0760   67.2750 S   0  0  0  0  0  0  0  0  0  0  0  0
  128.5670  128.3070   66.4580 C   0  0  0  0  0  0  0  0  0  0  0  0
  127.9820  129.6100   67.3220 S   0  0  0  0  0  0  0  0  0  0  0  0
  128.4750  127.9900   65.1290 N   0  0  0  0  0  0  0  0  0  0  0  0
  127.6970  128.8310   64.1880 C   0  0  0  0  0  0  0  0  0  0  0  0
  128.3410  130.1830   63.9400 C   0  0  0  0  0  0  0  0  0  0  0  0
  129.1060  130.7060   62.9070 C   0  0  0  0  0  0  0  0  0  0  0  0
  129.3840  132.0330   63.2350 C   0  0  0  0  0  0  0  0  0  0  0  0
  128.7710  132.2660   64.4530 C   0  0  0  0  0  0  0  0  0  0  0  0
  128.1360  131.1460   64.8790 O   0  0  0  0  0  0  0  0  0  0  0  0
  130.7603  124.5887   66.6513 H   0  0  0  0  0  0  0  0  0  0  0  0
  128.4820  123.2198   64.7637 H   0  0  0  0  0  0  0  0  0  0  0  0
  128.6878  121.6736   62.8454 H   0  0  0  0  0  0  0  0  0  0  0  0
  130.7870  121.5693   61.5267 H   0  0  0  0  0  0  0  0  0  0  0  0
  133.1047  122.3477   61.1198 H   0  0  0  0  0  0  0  0  0  0  0  0
  135.0168  123.8113   61.7255 H   0  0  0  0  0  0  0  0  0  0  0  0
  134.8404  125.3863   63.6352 H   0  0  0  0  0  0  0  0  0  0  0  0
  132.7551  125.5235   64.9686 H   0  0  0  0  0  0  0  0  0  0  0  0
  127.6132  128.2999   63.2284 H   0  0  0  0  0  0  0  0  0  0  0  0
  126.7110  129.0111   64.6411 H   0  0  0  0  0  0  0  0  0  0  0  0
  129.4317  130.1745   62.0007 H   0  0  0  0  0  0  0  0  0  0  0  0
  129.9725  132.7501   62.6439 H   0  0  0  0  0  0  0  0  0  0  0  0
  128.7951  133.2216   64.9973 H   0  0  0  0  0  0  0  0  0  0  0  0
  1  2  2  0
  2  3  1  0
  3  4  2  0
  4  5  1  0
  5  6  2  0
  6  7  1  0
  7  8  2  0
  8  9  1  0
  9 10  2  0
 10 11  1  0
 11 12  2  0
 12 13  1  0
 13 14  2  0
  3 15  1  0
 15 16  1  0
 16 17  2  0
 16 18  1  0
 18 19  1  0
 19 20  1  0
 20 21  2  0
 21 22  1  0
 22 23  2  0
 23 24  1  0
 18  2  1  0
 24 20  1  0
 14  5  1  0
 14  9  1  0
  4 25  1  0
  6 26  1  0
  7 27  1  0
  8 28  1  0
 10 29  1  0
 11 30  1  0
 12 31  1  0
 13 32  1  0
 19 33  1  0
 19 34  1  0
 21 35  1  0
 22 36  1  0
 23 37  1  0
M  END
>  <Binding energies>  (1) 
[-6.5]

>  <Ligand effiencies>  (1) 
[-0.2708333333333333]

>  <Interactions>  (1) 
["V-B:TYR:484:CZ:9318, V-B:TYR:484:CE2:9317, V-A:GLY:453:CA:4044, V-A:ILE:369:CD1:3239, V-B:GLU:543:CB:9878, V-A:ALA:541:CB:4892, V-A:GLU:543:CG:4907, V-B:GLU:543:CD:9880, V-B:ALA:541:CB:9864, V-A:ARG:545:CZ:4926, V-A:GLU:543:CD:4908, H-B:TYR:484:OH:9319, V-A:LEU:475:CD2:4259, V-B:GLU:543:CG:9879, V-B:HIS:456:CE1:9041, V-A:GLY:453:C:4042, V-A:GLU:543:CB:4906"]

$$$$
ZINC12140826
     RDKit          3D

 67 69  0  0  0  0  0  0  0  0999 V2000
  133.8620  124.3150   58.2670 C   0  0  0  0  0  0  0  0  0  0  0  0
  133.9540  124.3510   59.6050 C   0  0  0  0  0  0  0  0  0  0  0  0
  132.9130  124.9700   60.5180 C   0  0  0  0  0  0  0  0  0  0  0  0
  132.3970  123.9940   61.5130 N   0  0  0  0  0  0  0  0  0  0  0  0
  131.7780  122.7730   60.9300 C   0  0  0  0  0  0  0  0  0  0  0  0
  130.2950  122.6140   61.2480 C   0  0  0  0  0  0  0  0  0  0  0  0
  129.6690  121.5050   61.6800 C   0  0  0  0  0  0  0  0  0  0  0  0
  133.3950  123.7080   62.9570 S   0  0  0  0  0  0  0  0  0  0  0  0
  133.6440  122.2640   63.0510 O   0  0  0  0  0  0  0  0  0  0  0  0
  134.5220  124.6480   62.9510 O   0  0  0  0  0  0  0  0  0  0  0  0
  132.3480  124.1800   64.3300 C   0  0  0  0  0  0  0  0  0  0  0  0
  132.7950  125.1070   65.2730 C   0  0  0  0  0  0  0  0  0  0  0  0
  131.9660  125.4690   66.3310 C   0  0  0  0  0  0  0  0  0  0  0  0
  130.6870  124.9120   66.4420 C   0  0  0  0  0  0  0  0  0  0  0  0
  129.7640  125.3430   67.5560 C   0  0  0  0  0  0  0  0  0  0  0  0
  129.4800  124.4920   68.4030 O   0  0  0  0  0  0  0  0  0  0  0  0
  129.3450  126.6510   67.6390 N   0  0  0  0  0  0  0  0  0  0  0  0
  129.4120  127.3110   68.9630 C   0  0  0  0  0  0  0  0  0  0  0  0
  128.2140  126.9660   69.8770 C   0  0  0  0  0  0  0  0  0  0  0  0
  128.6030  126.8070   71.2810 N   0  0  0  0  0  0  0  0  0  0  0  0
  129.8060  127.5910   71.5500 C   0  0  0  0  0  0  0  0  0  0  0  0
  127.5460  127.2260   72.2010 C   0  0  0  0  0  0  0  0  0  0  0  0
  128.8220  127.3930   66.5510 C   0  0  0  0  0  0  0  0  0  0  0  0
  128.9240  127.0450   65.2920 N   0  0  0  0  0  0  0  0  0  0  0  0
  128.3620  127.9430   64.4390 C   0  0  0  0  0  0  0  0  0  0  0  0
  128.3800  127.8420   63.0300 C   0  0  0  0  0  0  0  0  0  0  0  0
  129.0670  126.6840   62.3050 C   0  0  0  0  0  0  0  0  0  0  0  0
  127.7400  128.8650   62.2990 C   0  0  0  0  0  0  0  0  0  0  0  0
  127.7260  128.8520   60.7760 C   0  0  0  0  0  0  0  0  0  0  0  0
  127.1170  129.9330   62.9520 C   0  0  0  0  0  0  0  0  0  0  0  0
  127.1000  130.0430   64.3400 C   0  0  0  0  0  0  0  0  0  0  0  0
  127.7330  129.0410   65.0790 C   0  0  0  0  0  0  0  0  0  0  0  0
  127.9130  128.8800   66.8200 S   0  0  0  0  0  0  0  0  0  0  0  0
  130.2580  123.9580   65.5140 C   0  0  0  0  0  0  0  0  0  0  0  0
  131.0850  123.5980   64.4550 C   0  0  0  0  0  0  0  0  0  0  0  0
  134.6609  123.8468   57.6732 H   0  0  0  0  0  0  0  0  0  0  0  0
  132.9877  124.7537   57.7638 H   0  0  0  0  0  0  0  0  0  0  0  0
  134.8435  123.9017   60.0708 H   0  0  0  0  0  0  0  0  0  0  0  0
  133.3678  125.8166   61.0532 H   0  0  0  0  0  0  0  0  0  0  0  0
  132.0683  125.3013   59.8961 H   0  0  0  0  0  0  0  0  0  0  0  0
  131.8943  122.8150   59.8370 H   0  0  0  0  0  0  0  0  0  0  0  0
  132.2929  121.9110   61.3793 H   0  0  0  0  0  0  0  0  0  0  0  0
  129.6671  123.5063   61.1084 H   0  0  0  0  0  0  0  0  0  0  0  0
  128.5863  121.5246   61.8734 H   0  0  0  0  0  0  0  0  0  0  0  0
  130.2396  120.5783   61.8400 H   0  0  0  0  0  0  0  0  0  0  0  0
  133.7978  125.5495   65.1805 H   0  0  0  0  0  0  0  0  0  0  0  0
  132.3166  126.1937   67.0806 H   0  0  0  0  0  0  0  0  0  0  0  0
  130.3377  126.9936   69.4653 H   0  0  0  0  0  0  0  0  0  0  0  0
  129.3878  128.3968   68.7885 H   0  0  0  0  0  0  0  0  0  0  0  0
  127.4726  127.7755   69.8065 H   0  0  0  0  0  0  0  0  0  0  0  0
  127.8003  126.0057   69.5354 H   0  0  0  0  0  0  0  0  0  0  0  0
  129.9479  127.6835   72.6369 H   0  0  0  0  0  0  0  0  0  0  0  0
  130.6783  127.0874   71.1078 H   0  0  0  0  0  0  0  0  0  0  0  0
  129.6976  128.5924   71.1078 H   0  0  0  0  0  0  0  0  0  0  0  0
  127.8875  127.0906   73.2379 H   0  0  0  0  0  0  0  0  0  0  0  0
  127.3088  128.2862   72.0285 H   0  0  0  0  0  0  0  0  0  0  0  0
  126.6468  126.6163   72.0285 H   0  0  0  0  0  0  0  0  0  0  0  0
  129.4826  125.9835   63.0443 H   0  0  0  0  0  0  0  0  0  0  0  0
  128.3339  126.1595   61.6746 H   0  0  0  0  0  0  0  0  0  0  0  0
  129.8787  127.0760   61.6746 H   0  0  0  0  0  0  0  0  0  0  0  0
  126.9627  128.1432   60.4224 H   0  0  0  0  0  0  0  0  0  0  0  0
  127.4914  129.8598   60.4029 H   0  0  0  0  0  0  0  0  0  0  0  0
  128.7137  128.5435   60.4029 H   0  0  0  0  0  0  0  0  0  0  0  0
  126.6247  130.7110   62.3501 H   0  0  0  0  0  0  0  0  0  0  0  0
  126.6050  130.8901   64.8375 H   0  0  0  0  0  0  0  0  0  0  0  0
  129.2672  123.4925   65.6214 H   0  0  0  0  0  0  0  0  0  0  0  0
  130.7446  122.8562   63.7175 H   0  0  0  0  0  0  0  0  0  0  0  0
  1  2  2  0
  2  3  1  0
  3  4  1  0
  4  5  1  0
  5  6  1  0
  6  7  2  0
  4  8  1  0
  8  9  2  0
  8 10  2  0
  8 11  1  0
 11 12  2  0
 12 13  1  0
 13 14  2  0
 14 15  1  0
 15 16  2  0
 15 17  1  0
 17 18  1  0
 18 19  1  0
 19 20  1  0
 20 21  1  0
 20 22  1  0
 17 23  1  0
 23 24  2  0
 24 25  1  0
 25 26  2  0
 26 27  1  0
 26 28  1  0
 28 29  1  0
 28 30  2  0
 30 31  1  0
 31 32  2  0
 32 33  1  0
 14 34  1  0
 34 35  2  0
 35 11  1  0
 33 23  1  0
 32 25  1  0
  1 36  1  0
  1 37  1  0
  2 38  1  0
  3 39  1  0
  3 40  1  0
  5 41  1  0
  5 42  1  0
  6 43  1  0
  7 44  1  0
  7 45  1  0
 12 46  1  0
 13 47  1  0
 18 48  1  0
 18 49  1  0
 19 50  1  0
 19 51  1  0
 21 52  1  0
 21 53  1  0
 21 54  1  0
 22 55  1  0
 22 56  1  0
 22 57  1  0
 27 58  1  0
 27 59  1  0
 27 60  1  0
 29 61  1  0
 29 62  1  0
 29 63  1  0
 30 64  1  0
 31 65  1  0
 34 66  1  0
 35 67  1  0
M  END
>  <Binding energies>  (1) 
[-7.78]

>  <Ligand effiencies>  (1) 
[-0.22228571428571428]

>  <Interactions>  (1) 
["V-A:ILE:369:CG2:3237, V-A:ASP:366:CA:3210, V-A:GLY:454:CA:4049, V-B:GLU:543:C:9874, V-A:ILE:369:CB:3236, V-B:HIS:456:CD2:9039, V-B:GLU:543:CB:9878, V-B:ALA:541:CB:9864, H-A:ARG:545:NH1:4927, V-A:TYR:484:CE2:4346, V-B:TYR:539:CE2:9848, V-B:GLU:543:CG:9879, V-A:ASP:366:CG:3213, V-B:TYR:539:CZ:9849, V-A:TYR:484:CZ:4347, V-A:GLU:543:CD:4908, V-B:GLU:543:CA:9876, H-A:GLY:454:N:4050, V-B:HIS:456:CE1:9041, V-A:HIS:456:CE1:4070, V-A:ILE:369:CD1:3239, V-A:ASP:366:C:3208, V-B:GLY:544:C:9884, V-A:GLU:543:CG:4907, V-B:GLU:543:CD:9880, V-B:HIS:456:CG:9037, V-A:ASP:366:CB:3212, V-A:LEU:475:CD2:4259, H-A:ARG:545:NH2:4928, V-A:ARG:545:CZ:4926, V-A:GLU:543:CB:4906"]

$$$$
ZINC12140826-again1
     RDKit          3D

 68 70  0  0  0  0  0  0  0  0999 V2000
  133.3060  124.6490   59.0090 C   0  0  0  0  0  0  0  0  0  0  0  0
  132.4960  125.4490   59.7180 C   0  0  0  0  0  0  0  0  0  0  0  0
  132.2340  125.3000   61.2030 C   0  0  0  0  0  0  0  0  0  0  0  0
  132.4640  123.9030   61.6600 N   0  0  0  0  0  0  0  0  0  0  0  0
  131.3290  122.9580   61.4700 C   0  0  0  0  0  0  0  0  0  0  0  0
  131.8030  121.6190   60.9410 C   0  0  0  0  0  0  0  0  0  0  0  0
  131.0470  120.5130   60.8990 C   0  0  0  0  0  0  0  0  0  0  0  0
  133.3870  123.7170   63.1670 S   0  0  0  0  0  0  0  0  0  0  0  0
  133.5800  122.2840   63.4180 O   0  0  0  0  0  0  0  0  0  0  0  0
  134.5490  124.6130   63.1080 O   0  0  0  0  0  0  0  0  0  0  0  0
  132.2970  124.3400   64.4450 C   0  0  0  0  0  0  0  0  0  0  0  0
  130.9320  124.0530   64.3940 C   0  0  0  0  0  0  0  0  0  0  0  0
  130.0840  124.5460   65.3810 C   0  0  0  0  0  0  0  0  0  0  0  0
  130.5960  125.3150   66.4340 C   0  0  0  0  0  0  0  0  0  0  0  0
  129.6860  125.8550   67.5180 C   0  0  0  0  0  0  0  0  0  0  0  0
  129.4680  125.1190   68.4850 O   0  0  0  0  0  0  0  0  0  0  0  0
  129.2120  127.1450   67.4490 N   0  0  0  0  0  0  0  0  0  0  0  0
  128.9260  127.8470   68.7200 C   0  0  0  0  0  0  0  0  0  0  0  0
  129.8230  127.3770   69.8840 C   0  0  0  0  0  0  0  0  0  0  0  0
  129.0270  126.5230   70.8970 N   0  0  0  0  0  0  0  0  0  0  0  0
  129.5910  126.5890   72.3300 C   0  0  0  0  0  0  0  0  0  0  0  0
  127.5310  126.8960   70.8840 C   0  0  0  0  0  0  0  0  0  0  0  0
  128.7330  127.7390   66.2580 C   0  0  0  0  0  0  0  0  0  0  0  0
  128.8960  127.2450   65.0550 N   0  0  0  0  0  0  0  0  0  0  0  0
  128.3480  128.0230   64.0810 C   0  0  0  0  0  0  0  0  0  0  0  0
  128.4130  127.7560   62.6960 C   0  0  0  0  0  0  0  0  0  0  0  0
  129.1280  126.5290   62.1320 C   0  0  0  0  0  0  0  0  0  0  0  0
  127.7910  128.6780   61.8290 C   0  0  0  0  0  0  0  0  0  0  0  0
  127.8330  128.4870   60.3170 C   0  0  0  0  0  0  0  0  0  0  0  0
  127.1330  129.8070   62.3270 C   0  0  0  0  0  0  0  0  0  0  0  0
  127.0640  130.0770   63.6910 C   0  0  0  0  0  0  0  0  0  0  0  0
  127.6810  129.1780   64.5650 C   0  0  0  0  0  0  0  0  0  0  0  0
  127.7920  129.2260   66.3180 S   0  0  0  0  0  0  0  0  0  0  0  0
  131.9630  125.6210   66.4630 C   0  0  0  0  0  0  0  0  0  0  0  0
  132.8110  125.1300   65.4750 C   0  0  0  0  0  0  0  0  0  0  0  0
  133.4448  124.8223   57.9316 H   0  0  0  0  0  0  0  0  0  0  0  0
  133.8315  123.8196   59.5049 H   0  0  0  0  0  0  0  0  0  0  0  0
  131.9883  126.2673   59.1864 H   0  0  0  0  0  0  0  0  0  0  0  0
  132.9084  125.9719   61.7541 H   0  0  0  0  0  0  0  0  0  0  0  0
  131.1819  125.5571   61.3952 H   0  0  0  0  0  0  0  0  0  0  0  0
  130.8274  122.8031   62.4366 H   0  0  0  0  0  0  0  0  0  0  0  0
  130.6367  123.3939   60.7347 H   0  0  0  0  0  0  0  0  0  0  0  0
  132.8352  121.5504   60.5670 H   0  0  0  0  0  0  0  0  0  0  0  0
  131.4639  119.5767   60.4997 H   0  0  0  0  0  0  0  0  0  0  0  0
  130.0097  120.5417   61.2639 H   0  0  0  0  0  0  0  0  0  0  0  0
  130.5277  123.4388   63.5759 H   0  0  0  0  0  0  0  0  0  0  0  0
  129.0063  124.3308   65.3341 H   0  0  0  0  0  0  0  0  0  0  0  0
  129.0848  128.9249   68.5684 H   0  0  0  0  0  0  0  0  0  0  0  0
  127.8853  127.6195   68.9943 H   0  0  0  0  0  0  0  0  0  0  0  0
  130.6494  126.7746   69.4788 H   0  0  0  0  0  0  0  0  0  0  0  0
  130.2083  128.2653   70.4059 H   0  0  0  0  0  0  0  0  0  0  0  0
  129.0900  125.5610   70.5890 H   0  0  0  0  0  0  0  0  0  0  0  0
  128.7675  126.4926   73.0529 H   0  0  0  0  0  0  0  0  0  0  0  0
  130.3084  125.7687   72.4799 H   0  0  0  0  0  0  0  0  0  0  0  0
  130.0996  127.5528   72.4799 H   0  0  0  0  0  0  0  0  0  0  0  0
  127.1668  126.9868   71.9180 H   0  0  0  0  0  0  0  0  0  0  0  0
  127.3968  127.8551   70.3624 H   0  0  0  0  0  0  0  0  0  0  0  0
  126.9622  126.1122   70.3624 H   0  0  0  0  0  0  0  0  0  0  0  0
  129.4923  125.9038   62.9605 H   0  0  0  0  0  0  0  0  0  0  0  0
  128.4272  125.9477   61.5147 H   0  0  0  0  0  0  0  0  0  0  0  0
  129.9792  126.8521   61.5147 H   0  0  0  0  0  0  0  0  0  0  0  0
  128.0640  127.4365   60.0864 H   0  0  0  0  0  0  0  0  0  0  0  0
  126.8555  128.7504   59.8868 H   0  0  0  0  0  0  0  0  0  0  0  0
  128.6098  129.1362   59.8868 H   0  0  0  0  0  0  0  0  0  0  0  0
  126.6560  130.5020   61.6203 H   0  0  0  0  0  0  0  0  0  0  0  0
  126.5412  130.9683   64.0682 H   0  0  0  0  0  0  0  0  0  0  0  0
  132.3670  126.2511   67.2690 H   0  0  0  0  0  0  0  0  0  0  0  0
  133.8854  125.3641   65.5055 H   0  0  0  0  0  0  0  0  0  0  0  0
  1  2  2  0
  2  3  1  0
  3  4  1  0
  4  5  1  0
  5  6  1  0
  6  7  2  0
  4  8  1  0
  8  9  2  0
  8 10  2  0
  8 11  1  0
 11 12  2  0
 12 13  1  0
 13 14  2  0
 14 15  1  0
 15 16  2  0
 15 17  1  0
 17 18  1  0
 18 19  1  0
 19 20  1  0
 20 21  1  0
 20 22  1  0
 17 23  1  0
 23 24  2  0
 24 25  1  0
 25 26  2  0
 26 27  1  0
 26 28  1  0
 28 29  1  0
 28 30  2  0
 30 31  1  0
 31 32  2  0
 32 33  1  0
 14 34  1  0
 34 35  2  0
 35 11  1  0
 33 23  1  0
 32 25  1  0
  1 36  1  0
  1 37  1  0
  2 38  1  0
  3 39  1  0
  3 40  1  0
  5 41  1  0
  5 42  1  0
  6 43  1  0
  7 44  1  0
  7 45  1  0
 12 46  1  0
 13 47  1  0
 18 48  1  0
 18 49  1  0
 19 50  1  0
 19 51  1  0
 20 52  1  0
 21 53  1  0
 21 54  1  0
 21 55  1  0
 22 56  1  0
 22 57  1  0
 22 58  1  0
 27 59  1  0
 27 60  1  0
 27 61  1  0
 29 62  1  0
 29 63  1  0
 29 64  1  0
 30 65  1  0
 31 66  1  0
 34 67  1  0
 35 68  1  0
M  CHG  1  20   1
M  END
>  <Binding energies>  (1) 
[-7.03]

>  <Ligand effiencies>  (1) 
[-0.19527777777777777]

>  <Interactions>  (1) 
["V-A:ASP:366:CA:3210, V-A:GLY:454:CA:4049, V-B:GLU:543:C:9874, H-B:GLU:543:O:9875, V-B:GLU:543:CB:9878, H-A:ARG:545:NH1:4927, V-B:TYR:539:CE2:9848, V-B:GLU:543:CG:9879, V-A:ASP:366:CG:3213, V-A:HIS:456:CD2:4068, V-A:TYR:484:CZ:4347, V-A:GLU:543:CD:4908, V-B:HIS:456:CE1:9041, H-A:GLY:454:N:4050, V-A:HIS:456:CE1:4070, V-B:GLY:544:C:9884, V-B:TYR:539:CD2:9846, V-B:GLY:544:CA:9886, V-A:GLU:543:CG:4907, V-B:GLU:543:CD:9880, V-A:ASP:366:CB:3212, V-A:LEU:475:CD2:4259, H-A:ARG:545:NH2:4928, V-A:ARG:545:CZ:4926, V-A:GLU:543:CB:4906, H-A:HIS:456:NE2:4071"]

$$$$
ZINC1217544
     RDKit          3D

 33 35  0  0  0  0  0  0  0  0999 V2000
  128.4820  127.5480   64.9560 O   0  0  0  0  0  0  0  0  0  0  0  0
  129.1080  126.6390   65.5010 C   0  0  0  0  0  0  0  0  0  0  0  0
  129.5190  125.5100   64.8250 N   0  0  0  0  0  0  0  0  0  0  0  0
  130.1440  124.6670   65.5280 C   0  0  0  0  0  0  0  0  0  0  0  0
  130.6530  123.4600   65.0740 N   0  0  0  0  0  0  0  0  0  0  0  0
  130.5720  122.9150   63.7780 C   0  0  0  0  0  0  0  0  0  0  0  0
  129.3580  122.4060   63.2950 C   0  0  0  0  0  0  0  0  0  0  0  0
  129.2760  121.8600   62.0170 C   0  0  0  0  0  0  0  0  0  0  0  0
  130.4070  121.8170   61.2060 C   0  0  0  0  0  0  0  0  0  0  0  0
  131.6230  122.3200   61.6670 C   0  0  0  0  0  0  0  0  0  0  0  0
  132.9980  122.2450   60.6200 Cl  0  0  0  0  0  0  0  0  0  0  0  0
  131.7120  122.8720   62.9550 C   0  0  0  0  0  0  0  0  0  0  0  0
  133.2320  123.4940   63.5230 Cl  0  0  0  0  0  0  0  0  0  0  0  0
  130.3700  125.0870   67.2220 S   0  0  0  0  0  0  0  0  0  0  0  0
  129.5050  126.5990   66.8990 C   0  0  0  0  0  0  0  0  0  0  0  0
  129.1820  127.6060   67.7460 C   0  0  0  0  0  0  0  0  0  0  0  0
  129.5280  127.7370   69.1770 C   0  0  0  0  0  0  0  0  0  0  0  0
  128.5690  127.6410   70.1920 C   0  0  0  0  0  0  0  0  0  0  0  0
  128.9410  127.7730   71.5280 C   0  0  0  0  0  0  0  0  0  0  0  0
  130.2770  127.9980   71.8540 C   0  0  0  0  0  0  0  0  0  0  0  0
  130.6430  128.1300   73.1660 O   0  0  0  0  0  0  0  0  0  0  0  0
  131.2420  128.0890   70.8530 C   0  0  0  0  0  0  0  0  0  0  0  0
  130.8670  127.9560   69.5190 C   0  0  0  0  0  0  0  0  0  0  0  0
  130.9970  122.8160   65.7710 H   0  0  0  0  0  0  0  0  0  0  0  0
  128.4618  122.4384   63.9320 H   0  0  0  0  0  0  0  0  0  0  0  0
  128.3187  121.4630   61.6483 H   0  0  0  0  0  0  0  0  0  0  0  0
  130.3409  121.3842   60.1969 H   0  0  0  0  0  0  0  0  0  0  0  0
  128.5895  128.4269   67.3158 H   0  0  0  0  0  0  0  0  0  0  0  0
  127.5153  127.4602   69.9332 H   0  0  0  0  0  0  0  0  0  0  0  0
  128.1834  127.6999   72.3222 H   0  0  0  0  0  0  0  0  0  0  0  0
  131.5930  128.0880   73.2970 H   0  0  0  0  0  0  0  0  0  0  0  0
  132.2955  128.2652   71.1157 H   0  0  0  0  0  0  0  0  0  0  0  0
  131.6287  128.0235   68.7282 H   0  0  0  0  0  0  0  0  0  0  0  0
  1  2  2  0
  2  3  1  0
  3  4  2  0
  4  5  1  0
  5  6  1  0
  6  7  2  0
  7  8  1  0
  8  9  2  0
  9 10  1  0
 10 11  1  0
 10 12  2  0
 12 13  1  0
  4 14  1  0
 14 15  1  0
 15 16  2  0
 16 17  1  0
 17 18  2  0
 18 19  1  0
 19 20  2  0
 20 21  1  0
 20 22  1  0
 22 23  2  0
 15  2  1  0
 23 17  1  0
 12  6  1  0
  5 24  1  0
  7 25  1  0
  8 26  1  0
  9 27  1  0
 16 28  1  0
 18 29  1  0
 19 30  1  0
 21 31  1  0
 22 32  1  0
 23 33  1  0
M  END
>  <Binding energies>  (1) 
[-7.85]

>  <Ligand effiencies>  (1) 
[-0.314]

>  <Interactions>  (1) 
["V-A:ILE:369:CG2:3237, V-A:ARG:545:CA:4919, V-A:GLY:454:CA:4049, V-B:HIS:456:CD2:9039, V-A:GLU:543:C:4902, V-B:GLU:543:CB:9878, V-B:ALA:541:CB:9864, V-B:TYR:539:CE2:9848, V-A:TYR:484:CE2:4346, V-A:GLY:544:CA:4914, V-B:GLU:543:CG:9879, V-A:GLY:544:C:4912, V-A:GLU:543:CD:4908, V-A:TYR:484:CZ:4347, V-B:HIS:456:CE1:9041, V-A:HIS:456:CE1:4070, V-B:TYR:539:CD2:9846, V-B:GLU:543:CD:9880, H-A:LYS:547:NZ:4951, V-A:LEU:475:CD2:4259, V-A:GLU:543:CB:4906, H-A:GLY:544:O:4913, H-A:TYR:484:OH:4348"]

$$$$
ZINC123221886
     RDKit          3D

 77 80  0  0  0  0  0  0  0  0999 V2000
  133.7240  123.6430   60.1120 C   0  0  0  0  0  0  0  0  0  0  0  0
  133.2510  122.8120   61.3210 C   0  0  0  0  0  0  0  0  0  0  0  0
  134.3490  122.7420   62.3970 C   0  0  0  0  0  0  0  0  0  0  0  0
  132.7660  121.3950   60.9270 C   0  0  0  0  0  0  0  0  0  0  0  0
  131.2430  121.2730   60.7190 C   0  0  0  0  0  0  0  0  0  0  0  0
  130.5150  122.6340   60.7680 C   0  0  0  0  0  0  0  0  0  0  0  0
  129.0230  122.5980   60.3240 C   0  0  1  0  0  0  0  0  0  0  0  0
  128.1000  122.4390   61.5530 C   0  0  0  0  0  0  0  0  0  0  0  0
  128.6540  123.8310   59.4280 C   0  0  1  0  0  0  0  0  0  0  0  0
  127.1450  124.2040   59.4960 C   0  0  0  0  0  0  0  0  0  0  0  0
  127.0240  125.7200   59.2840 C   0  0  0  0  0  0  0  0  0  0  0  0
  128.4400  126.1490   58.9020 C   0  0  1  0  0  0  0  0  0  0  0  0
  128.8380  127.6450   59.0410 C   0  0  2  0  0  0  0  0  0  0  0  0
  127.8640  128.5720   58.2760 C   0  0  0  0  0  0  0  0  0  0  0  0
  128.2960  130.0460   58.3580 C   0  0  0  0  0  0  0  0  0  0  0  0
  129.7460  130.2370   57.8340 C   0  0  1  0  0  0  0  0  0  0  0  0
  130.1840  131.7360   57.7610 C   0  0  2  0  0  0  0  0  0  0  0  0
  129.2440  132.5280   56.8870 N   0  0  0  0  0  0  0  0  0  0  0  0
  129.5080  133.7030   56.6510 O   0  0  0  0  0  0  0  0  0  0  0  0
  128.2520  131.9510   56.4540 O   0  0  0  0  0  0  0  0  0  0  0  0
  131.6200  131.9160   57.2080 C   0  0  0  0  0  0  0  0  0  0  0  0
  132.6420  131.0320   57.9430 C   0  0  0  0  0  0  0  0  0  0  0  0
  132.1700  129.5630   57.9920 C   0  0  0  0  0  0  0  0  0  0  0  0
  130.7710  129.3700   58.6580 C   0  0  1  0  0  0  0  0  0  0  0  0
  130.8350  129.8120   60.1540 C   0  0  0  0  0  0  0  0  0  0  0  0
  130.3020  127.8670   58.5210 C   0  0  1  0  0  0  0  0  0  0  0  0
  131.3000  126.8130   59.1030 C   0  0  0  0  0  0  0  0  0  0  0  0
  130.7740  125.3590   59.0160 C   0  0  0  0  0  0  0  0  0  0  0  0
  129.3800  125.1970   59.6870 C   0  0  2  0  0  0  0  0  0  0  0  0
  129.4430  125.5050   61.2180 C   0  0  0  0  0  0  0  0  0  0  0  0
  134.2389  124.5476   60.4677 H   0  0  0  0  0  0  0  0  0  0  0  0
  134.4159  123.0429   59.5027 H   0  0  0  0  0  0  0  0  0  0  0  0
  132.8548  123.9315   59.5027 H   0  0  0  0  0  0  0  0  0  0  0  0
  132.3774  123.3325   61.7405 H   0  0  0  0  0  0  0  0  0  0  0  0
  133.8870  122.7715   63.3948 H   0  0  0  0  0  0  0  0  0  0  0  0
  134.9153  121.8059   62.2826 H   0  0  0  0  0  0  0  0  0  0  0  0
  135.0296  123.5986   62.2826 H   0  0  0  0  0  0  0  0  0  0  0  0
  133.2644  121.1103   59.9886 H   0  0  0  0  0  0  0  0  0  0  0  0
  133.0199  120.7333   61.7682 H   0  0  0  0  0  0  0  0  0  0  0  0
  131.0594  120.8127   59.7370 H   0  0  0  0  0  0  0  0  0  0  0  0
  130.8473  120.6591   61.5415 H   0  0  0  0  0  0  0  0  0  0  0  0
  130.5543  123.0051   61.8028 H   0  0  0  0  0  0  0  0  0  0  0  0
  131.0339  123.2864   60.0503 H   0  0  0  0  0  0  0  0  0  0  0  0
  128.8660  121.7147   59.6874 H   0  0  0  0  0  0  0  0  0  0  0  0
  128.6939  122.5413   62.4732 H   0  0  0  0  0  0  0  0  0  0  0  0
  127.3221  123.2164   61.5303 H   0  0  0  0  0  0  0  0  0  0  0  0
  127.6270  121.4461   61.5303 H   0  0  0  0  0  0  0  0  0  0  0  0
  128.9907  123.4290   58.4611 H   0  0  0  0  0  0  0  0  0  0  0  0
  126.5923  123.6711   58.7082 H   0  0  0  0  0  0  0  0  0  0  0  0
  126.7231  123.9184   60.4709 H   0  0  0  0  0  0  0  0  0  0  0  0
  126.3141  125.9471   58.4750 H   0  0  0  0  0  0  0  0  0  0  0  0
  126.6460  126.2450   60.1736 H   0  0  0  0  0  0  0  0  0  0  0  0
  128.5235  126.0610   57.8087 H   0  0  0  0  0  0  0  0  0  0  0  0
  128.7830  127.9038   60.1087 H   0  0  0  0  0  0  0  0  0  0  0  0
  127.8377  128.2668   57.2195 H   0  0  0  0  0  0  0  0  0  0  0  0
  126.8702  128.4805   58.7386 H   0  0  0  0  0  0  0  0  0  0  0  0
  127.6114  130.6548   57.7491 H   0  0  0  0  0  0  0  0  0  0  0  0
  128.2623  130.3605   59.4115 H   0  0  0  0  0  0  0  0  0  0  0  0
  129.7492  129.8728   56.7960 H   0  0  0  0  0  0  0  0  0  0  0  0
  130.1567  132.1056   58.7967 H   0  0  0  0  0  0  0  0  0  0  0  0
  131.6243  131.6497   56.1407 H   0  0  0  0  0  0  0  0  0  0  0  0
  131.9109  132.9658   57.3605 H   0  0  0  0  0  0  0  0  0  0  0  0
  133.6061  131.0825   57.4157 H   0  0  0  0  0  0  0  0  0  0  0  0
  132.7464  131.4008   58.9741 H   0  0  0  0  0  0  0  0  0  0  0  0
  132.1188  129.1811   56.9617 H   0  0  0  0  0  0  0  0  0  0  0  0
  132.8963  129.0147   58.6100 H   0  0  0  0  0  0  0  0  0  0  0  0
  130.7076  128.9323   60.8020 H   0  0  0  0  0  0  0  0  0  0  0  0
  131.8101  130.2788   60.3570 H   0  0  0  0  0  0  0  0  0  0  0  0
  130.0324  130.5363   60.3570 H   0  0  0  0  0  0  0  0  0  0  0  0
  130.2992  127.6810   57.4368 H   0  0  0  0  0  0  0  0  0  0  0  0
  132.2432  126.8774   58.5407 H   0  0  0  0  0  0  0  0  0  0  0  0
  131.4365  127.0471   60.1691 H   0  0  0  0  0  0  0  0  0  0  0  0
  130.6923  125.0747   57.9565 H   0  0  0  0  0  0  0  0  0  0  0  0
  131.4836  124.7107   59.5510 H   0  0  0  0  0  0  0  0  0  0  0  0
  129.2542  124.5820   61.7858 H   0  0  0  0  0  0  0  0  0  0  0  0
  130.4395  125.8949   61.4729 H   0  0  0  0  0  0  0  0  0  0  0  0
  128.6796  126.2549   61.4729 H   0  0  0  0  0  0  0  0  0  0  0  0
  1  2  1  0
  2  3  1  0
  2  4  1  0
  4  5  1  0
  5  6  1  0
  6  7  1  0
  7  8  1  0
  7  9  1  0
  9 10  1  0
 10 11  1  0
 11 12  1  0
 12 13  1  0
 13 14  1  0
 14 15  1  0
 15 16  1  0
 16 17  1  0
 17 18  1  0
 18 19  2  0
 18 20  1  0
 17 21  1  0
 21 22  1  0
 22 23  1  0
 23 24  1  0
 24 25  1  1
 24 26  1  0
 26 27  1  0
 27 28  1  0
 28 29  1  0
 29 30  1  1
 29  9  1  0
 29 12  1  0
 26 13  1  0
 24 16  1  0
  1 31  1  0
  1 32  1  0
  1 33  1  0
  2 34  1  0
  3 35  1  0
  3 36  1  0
  3 37  1  0
  4 38  1  0
  4 39  1  0
  5 40  1  0
  5 41  1  0
  6 42  1  0
  6 43  1  0
  7 44  1  6
  8 45  1  0
  8 46  1  0
  8 47  1  0
  9 48  1  6
 10 49  1  0
 10 50  1  0
 11 51  1  0
 11 52  1  0
 12 53  1  6
 13 54  1  1
 14 55  1  0
 14 56  1  0
 15 57  1  0
 15 58  1  0
 16 59  1  6
 17 60  1  1
 21 61  1  0
 21 62  1  0
 22 63  1  0
 22 64  1  0
 23 65  1  0
 23 66  1  0
 25 67  1  0
 25 68  1  0
 25 69  1  0
 26 70  1  6
 27 71  1  0
 27 72  1  0
 28 73  1  0
 28 74  1  0
 30 75  1  0
 30 76  1  0
 30 77  1  0
M  CHG  2  18   1  20  -1
M  END
>  <Binding energies>  (1) 
[-8.02]

>  <Ligand effiencies>  (1) 
[-0.2673333333333333]

>  <Interactions>  (1) 
["V-A:ILE:369:CG2:3237, V-A:LEU:363:CD1:3189, V-A:ILE:369:CD1:3239, H-A:TYR:539:N:4870, V-A:GLY:454:CA:4049, V-B:PRO:540:CA:9855, V-A:ILE:369:CB:3236, V-A:TYR:531:CE2:4793, V-B:TYR:539:CD2:9846, V-A:TYR:531:CZ:4794, V-B:PRO:540:C:9853, V-B:ALA:541:CB:9864, V-A:MET:535:CE:4835, V-B:TYR:539:CE2:9848, V-A:ASP:366:CB:3212, V-A:LEU:475:CD2:4259, V-A:ASP:366:CG:3213, V-A:GLY:453:C:4042"]

$$$$
ZINC1233604563
     RDKit          3D

 63 63  0  0  0  0  0  0  0  0999 V2000
  130.0890  127.8890   70.4850 C   0  0  0  0  0  0  0  0  0  0  0  0
  129.8800  127.9400   69.1570 C   0  0  0  0  0  0  0  0  0  0  0  0
  128.7590  127.2690   68.3540 C   0  0  0  0  0  0  0  0  0  0  0  0
  127.5050  126.9780   69.2220 C   0  0  0  0  0  0  0  0  0  0  0  0
  128.3440  128.2270   67.2120 C   0  0  0  0  0  0  0  0  0  0  0  0
  129.3230  125.9410   67.7630 C   0  0  0  0  0  0  0  0  0  0  0  0
  130.7980  125.9430   67.2880 C   0  0  0  0  0  0  0  0  0  0  0  0
  131.0200  125.1270   66.0960 N   0  0  0  0  0  0  0  0  0  0  0  0
  130.5800  125.4170   64.8540 C   0  0  0  0  0  0  0  0  0  0  0  0
  129.7820  126.3390   64.6620 O   0  0  0  0  0  0  0  0  0  0  0  0
  131.0290  124.6000   63.8550 N   0  0  0  0  0  0  0  0  0  0  0  0
  130.2820  124.5380   62.5880 C   0  0  0  0  0  0  0  0  0  0  0  0
  132.3140  123.8390   63.8950 C   0  0  2  0  0  0  0  0  0  0  0  0
  133.6050  124.6610   63.6920 C   0  0  0  0  0  0  0  0  0  0  0  0
  133.9000  124.8620   62.1950 C   0  0  0  0  0  0  0  0  0  0  0  0
  133.9650  123.5350   61.3960 C   0  0  2  0  0  0  0  0  0  0  0  0
  134.2360  123.7540   59.9700 N   0  0  0  0  0  0  0  0  0  0  0  0
  133.3320  124.2480   59.0310 C   0  0  0  0  0  0  0  0  0  0  0  0
  133.6290  124.4750   57.8600 O   0  0  0  0  0  0  0  0  0  0  0  0
  132.0910  124.4400   59.5720 O   0  0  0  0  0  0  0  0  0  0  0  0
  131.2470  125.5830   59.3450 C   0  0  0  0  0  0  0  0  0  0  0  0
  131.4120  126.6390   60.4650 C   0  0  0  0  0  0  0  0  0  0  0  0
  131.5040  126.2060   57.9510 C   0  0  0  0  0  0  0  0  0  0  0  0
  129.8140  125.0120   59.3920 C   0  0  0  0  0  0  0  0  0  0  0  0
  132.7740  122.5780   61.6930 C   0  0  0  0  0  0  0  0  0  0  0  0
  132.4070  122.4660   63.1910 C   0  0  0  0  0  0  0  0  0  0  0  0
  130.9415  128.4243   70.9286 H   0  0  0  0  0  0  0  0  0  0  0  0
  129.4074  127.3120   71.1273 H   0  0  0  0  0  0  0  0  0  0  0  0
  130.6005  128.5352   68.5768 H   0  0  0  0  0  0  0  0  0  0  0  0
  127.7736  127.0403   70.2869 H   0  0  0  0  0  0  0  0  0  0  0  0
  126.7234  127.7186   68.9970 H   0  0  0  0  0  0  0  0  0  0  0  0
  127.1295  125.9688   68.9970 H   0  0  0  0  0  0  0  0  0  0  0  0
  127.9414  129.1564   67.6411 H   0  0  0  0  0  0  0  0  0  0  0  0
  129.2219  128.4599   66.5915 H   0  0  0  0  0  0  0  0  0  0  0  0
  127.5736  127.7458   66.5915 H   0  0  0  0  0  0  0  0  0  0  0  0
  129.2271  125.1673   68.5390 H   0  0  0  0  0  0  0  0  0  0  0  0
  128.7335  125.7656   66.8510 H   0  0  0  0  0  0  0  0  0  0  0  0
  131.0912  126.9789   67.0621 H   0  0  0  0  0  0  0  0  0  0  0  0
  131.4029  125.5097   68.0981 H   0  0  0  0  0  0  0  0  0  0  0  0
  131.5970  124.3070   66.2200 H   0  0  0  0  0  0  0  0  0  0  0  0
  129.2064  124.4487   62.8005 H   0  0  0  0  0  0  0  0  0  0  0  0
  130.4664  125.4545   62.0084 H   0  0  0  0  0  0  0  0  0  0  0  0
  130.6150  123.6644   62.0084 H   0  0  0  0  0  0  0  0  0  0  0  0
  132.2511  123.5724   64.9603 H   0  0  0  0  0  0  0  0  0  0  0  0
  133.4846  125.6442   64.1703 H   0  0  0  0  0  0  0  0  0  0  0  0
  134.4446  124.1131   64.1446 H   0  0  0  0  0  0  0  0  0  0  0  0
  133.1058  125.4896   61.7644 H   0  0  0  0  0  0  0  0  0  0  0  0
  134.8904  125.3347   62.1201 H   0  0  0  0  0  0  0  0  0  0  0  0
  134.8416  122.9854   61.7695 H   0  0  0  0  0  0  0  0  0  0  0  0
  135.1820  123.5910   59.6570 H   0  0  0  0  0  0  0  0  0  0  0  0
  131.3353  126.1478   61.4462 H   0  0  0  0  0  0  0  0  0  0  0  0
  132.3964  127.1211   60.3723 H   0  0  0  0  0  0  0  0  0  0  0  0
  130.6216  127.3984   60.3723 H   0  0  0  0  0  0  0  0  0  0  0  0
  131.9209  127.2167   58.0723 H   0  0  0  0  0  0  0  0  0  0  0  0
  132.2171  125.5795   57.3952 H   0  0  0  0  0  0  0  0  0  0  0  0
  130.5566  126.2645   57.3952 H   0  0  0  0  0  0  0  0  0  0  0  0
  129.5029  124.8880   60.4398 H   0  0  0  0  0  0  0  0  0  0  0  0
  129.1264  125.7048   58.8849 H   0  0  0  0  0  0  0  0  0  0  0  0
  129.7913  124.0361   58.8849 H   0  0  0  0  0  0  0  0  0  0  0  0
  131.8919  122.9463   61.1487 H   0  0  0  0  0  0  0  0  0  0  0  0
  133.0874  121.5745   61.3692 H   0  0  0  0  0  0  0  0  0  0  0  0
  131.4331  121.9617   63.2764 H   0  0  0  0  0  0  0  0  0  0  0  0
  133.2090  121.8972   63.6843 H   0  0  0  0  0  0  0  0  0  0  0  0
  1  2  2  0
  2  3  1  0
  3  4  1  0
  3  5  1  0
  3  6  1  0
  6  7  1  0
  7  8  1  0
  8  9  1  0
  9 10  2  0
  9 11  1  0
 11 12  1  0
 11 13  1  0
 13 14  1  0
 14 15  1  0
 15 16  1  0
 16 17  1  0
 17 18  1  0
 18 19  2  0
 18 20  1  0
 20 21  1  0
 21 22  1  0
 21 23  1  0
 21 24  1  0
 16 25  1  0
 25 26  1  0
 26 13  1  0
  1 27  1  0
  1 28  1  0
  2 29  1  0
  4 30  1  0
  4 31  1  0
  4 32  1  0
  5 33  1  0
  5 34  1  0
  5 35  1  0
  6 36  1  0
  6 37  1  0
  7 38  1  0
  7 39  1  0
  8 40  1  0
 12 41  1  0
 12 42  1  0
 12 43  1  0
 13 44  1  6
 14 45  1  0
 14 46  1  0
 15 47  1  0
 15 48  1  0
 16 49  1  6
 17 50  1  0
 22 51  1  0
 22 52  1  0
 22 53  1  0
 23 54  1  0
 23 55  1  0
 23 56  1  0
 24 57  1  0
 24 58  1  0
 24 59  1  0
 25 60  1  0
 25 61  1  0
 26 62  1  0
 26 63  1  0
M  END
>  <Binding energies>  (1) 
[-6.39]

>  <Ligand effiencies>  (1) 
[-0.2282142857142857]

>  <Interactions>  (1) 
["V-A:ILE:369:CG2:3237, V-A:ASP:366:CA:3210, V-B:GLU:543:C:9874, V-A:ILE:369:CB:3236, V-A:GLU:543:C:4902, V-B:GLU:543:CB:9878, V-B:TYR:539:CE2:9848, V-B:GLU:543:CG:9879, V-A:ASP:366:CG:3213, H-B:TYR:539:OH:9850, V-A:TYR:484:CZ:4347, V-A:GLU:543:CD:4908, V-B:HIS:456:CE1:9041, V-B:GLU:543:CA:9876, V-A:HIS:456:CE1:4070, V-A:ILE:369:CD1:3239, V-A:GLU:543:CG:4907, V-A:ILE:369:CG1:3238, V-A:ASP:366:CB:3212, V-A:LEU:475:CD2:4259, V-A:ARG:545:CZ:4926, V-A:GLU:543:CB:4906, H-A:TYR:484:OH:4348"]

$$$$
ZINC123600179
     RDKit          3D

 39 40  0  0  0  0  0  0  0  0999 V2000
  134.5640  126.5920   74.8840 C   0  0  0  0  0  0  0  0  0  0  0  0
  133.3520  126.8490   75.7900 C   0  0  0  0  0  0  0  0  0  0  0  0
  132.0710  126.2890   75.2090 C   0  0  0  0  0  0  0  0  0  0  0  0
  131.4970  126.6260   74.0780 N   0  0  0  0  0  0  0  0  0  0  0  0
  130.4110  125.8680   73.9870 C   0  0  0  0  0  0  0  0  0  0  0  0
  129.4400  125.8760   72.8710 C   0  0  0  0  0  0  0  0  0  0  0  0
  128.7250  124.8280   72.7220 O   0  0  0  0  0  0  0  0  0  0  0  0
  129.3200  127.0210   72.0110 C   0  0  0  0  0  0  0  0  0  0  0  0
  130.0610  128.2440   72.3100 C   0  0  0  0  0  0  0  0  0  0  0  0
  130.6420  129.2200   72.5420 N   0  0  0  0  0  0  0  0  0  0  0  0
  128.5010  127.0960   70.8490 C   0  0  0  0  0  0  0  0  0  0  0  0
  127.2300  126.9960   70.8810 O   0  0  0  0  0  0  0  0  0  0  0  0
  129.2310  127.2880   69.6750 N   0  0  0  0  0  0  0  0  0  0  0  0
  128.6400  127.3830   68.3380 C   0  0  0  0  0  0  0  0  0  0  0  0
  128.2400  128.8280   67.9550 C   0  0  0  0  0  0  0  0  0  0  0  0
  127.6410  128.9460   66.5390 C   0  0  0  0  0  0  0  0  0  0  0  0
  128.5430  128.3040   65.4730 C   0  0  0  0  0  0  0  0  0  0  0  0
  128.8610  126.8400   65.8180 C   0  0  0  0  0  0  0  0  0  0  0  0
  129.4680  126.6880   67.2260 C   0  0  0  0  0  0  0  0  0  0  0  0
  130.3690  125.0320   75.1060 C   0  0  0  0  0  0  0  0  0  0  0  0
  131.4340  125.3070   75.8890 O   0  0  0  0  0  0  0  0  0  0  0  0
  135.4524  126.4036   75.5047 H   0  0  0  0  0  0  0  0  0  0  0  0
  134.3678  125.7155   74.2490 H   0  0  0  0  0  0  0  0  0  0  0  0
  134.7404  127.4727   74.2490 H   0  0  0  0  0  0  0  0  0  0  0  0
  133.5338  126.3763   76.7665 H   0  0  0  0  0  0  0  0  0  0  0  0
  133.2295  127.9378   75.8872 H   0  0  0  0  0  0  0  0  0  0  0  0
  130.2370  127.3250   69.7450 H   0  0  0  0  0  0  0  0  0  0  0  0
  127.7070  126.8047   68.4092 H   0  0  0  0  0  0  0  0  0  0  0  0
  127.4939  129.1863   68.6795 H   0  0  0  0  0  0  0  0  0  0  0  0
  129.1590  129.4324   67.9688 H   0  0  0  0  0  0  0  0  0  0  0  0
  126.6627  128.4433   66.5250 H   0  0  0  0  0  0  0  0  0  0  0  0
  127.5444  130.0155   66.3007 H   0  0  0  0  0  0  0  0  0  0  0  0
  128.0298  128.3396   64.5007 H   0  0  0  0  0  0  0  0  0  0  0  0
  129.4885  128.8649   65.4349 H   0  0  0  0  0  0  0  0  0  0  0  0
  127.9306  126.2552   65.7692 H   0  0  0  0  0  0  0  0  0  0  0  0
  129.6030  126.4773   65.0914 H   0  0  0  0  0  0  0  0  0  0  0  0
  129.5355  125.6156   67.4616 H   0  0  0  0  0  0  0  0  0  0  0  0
  130.4541  127.1751   67.2062 H   0  0  0  0  0  0  0  0  0  0  0  0
  129.5973  124.2762   75.3141 H   0  0  0  0  0  0  0  0  0  0  0  0
  1  2  1  0
  2  3  1  0
  3  4  2  0
  4  5  1  0
  5  6  1  0
  6  7  1  0
  6  8  2  0
  8  9  1  0
  9 10  3  0
  8 11  1  0
 11 12  2  0
 11 13  1  0
 13 14  1  0
 14 15  1  0
 15 16  1  0
 16 17  1  0
 17 18  1  0
 18 19  1  0
  5 20  2  0
 20 21  1  0
 21  3  1  0
 19 14  1  0
  1 22  1  0
  1 23  1  0
  1 24  1  0
  2 25  1  0
  2 26  1  0
 13 27  1  0
 14 28  1  0
 15 29  1  0
 15 30  1  0
 16 31  1  0
 16 32  1  0
 17 33  1  0
 17 34  1  0
 18 35  1  0
 18 36  1  0
 19 37  1  0
 19 38  1  0
 20 39  1  0
M  CHG  1   7  -1
M  END
>  <Binding energies>  (1) 
[-6.09]

>  <Ligand effiencies>  (1) 
[-0.2768181818181818]

>  <Interactions>  (1) 
["V-B:GLU:543:CB:9878, H-B:LYS:547:NZ:9923, V-B:GLU:543:CG:9879, V-A:GLY:544:C:4912, V-A:HIS:456:CD2:4068, H-B:HIS:456:ND1:9038, V-A:LYS:547:CG:4948, V-A:HIS:456:CB:4065, V-A:GLU:543:CD:4908, V-B:HIS:456:CE1:9041, V-A:HIS:456:CE1:4070, V-A:GLU:543:CG:4907, V-B:GLU:543:CD:9880, H-A:LYS:547:NZ:4951, V-A:HIS:456:C:4061, V-A:ARG:545:C:4917, V-A:GLU:543:CB:4906, V-A:HIS:456:CG:4066, H-A:HIS:456:NE2:4071"]

$$$$
ZINC12360551
     RDKit          3D

 53 57  0  0  0  0  0  0  0  0999 V2000
  133.9800  124.2140   57.8320 N   0  0  0  0  0  0  0  0  0  0  0  0
  132.9980  124.4460   58.3990 C   0  0  0  0  0  0  0  0  0  0  0  0
  131.7820  124.7510   59.0860 C   0  0  0  0  0  0  0  0  0  0  0  0
  131.6680  124.6370   60.4330 C   0  0  0  0  0  0  0  0  0  0  0  0
  132.7750  124.2690   61.2300 N   0  0  0  0  0  0  0  0  0  0  0  0
  133.3540  123.0210   61.2880 C   0  0  0  0  0  0  0  0  0  0  0  0
  134.4130  123.0550   62.1830 C   0  0  0  0  0  0  0  0  0  0  0  0
  134.4800  124.3530   62.6950 C   0  0  0  0  0  0  0  0  0  0  0  0
  133.4640  125.0840   62.1000 C   0  0  0  0  0  0  0  0  0  0  0  0
  130.4080  124.7690   61.0540 N   0  0  0  0  0  0  0  0  0  0  0  0
  130.3130  124.8250   62.4670 C   0  0  0  0  0  0  0  0  0  0  0  0
  130.4200  126.0770   63.0900 C   0  0  0  0  0  0  0  0  0  0  0  0
  130.2800  126.2070   64.4680 C   0  0  0  0  0  0  0  0  0  0  0  0
  130.0270  125.0840   65.2580 C   0  0  0  0  0  0  0  0  0  0  0  0
  129.8740  125.1980   66.7740 C   0  0  0  0  0  0  0  0  0  0  0  0
  131.0410  125.5600   67.3080 F   0  0  0  0  0  0  0  0  0  0  0  0
  128.9610  126.1220   67.0740 F   0  0  0  0  0  0  0  0  0  0  0  0
  129.4980  124.0460   67.3350 F   0  0  0  0  0  0  0  0  0  0  0  0
  129.9190  123.8340   64.6430 C   0  0  0  0  0  0  0  0  0  0  0  0
  130.0520  123.6780   63.2530 C   0  0  0  0  0  0  0  0  0  0  0  0
  129.9690  122.3070   62.6840 N   0  0  0  0  0  0  0  0  0  0  0  0
  128.8700  121.8080   62.4720 O   0  0  0  0  0  0  0  0  0  0  0  0
  131.0180  121.7400   62.3930 O   0  0  0  0  0  0  0  0  0  0  0  0
  129.2410  124.6030   60.2790 C   0  0  0  0  0  0  0  0  0  0  0  0
  129.3100  124.7410   58.9190 C   0  0  0  0  0  0  0  0  0  0  0  0
  128.1610  124.4660   58.0260 C   0  0  0  0  0  0  0  0  0  0  0  0
  128.1670  124.7980   56.8400 O   0  0  0  0  0  0  0  0  0  0  0  0
  126.8720  123.9350   58.6740 C   0  0  0  0  0  0  0  0  0  0  0  0
  127.1300  123.2420   60.0200 C   0  0  0  0  0  0  0  0  0  0  0  0
  127.9430  124.1400   60.9700 C   0  0  0  0  0  0  0  0  0  0  0  0
  130.6040  125.2890   58.2690 C   0  0  1  0  0  0  0  0  0  0  0  0
  130.5930  126.8190   58.2430 C   0  0  0  0  0  0  0  0  0  0  0  0
  131.4150  127.7480   58.8970 C   0  0  0  0  0  0  0  0  0  0  0  0
  131.1340  129.0870   58.6130 C   0  0  0  0  0  0  0  0  0  0  0  0
  130.0880  129.2300   57.7230 C   0  0  0  0  0  0  0  0  0  0  0  0
  129.4400  127.6870   57.2550 S   0  0  0  0  0  0  0  0  0  0  0  0
  133.0290  122.1391   60.7165 H   0  0  0  0  0  0  0  0  0  0  0  0
  135.0763  122.2164   62.4414 H   0  0  0  0  0  0  0  0  0  0  0  0
  135.2049  124.7258   63.4336 H   0  0  0  0  0  0  0  0  0  0  0  0
  133.2435  126.1445   62.2919 H   0  0  0  0  0  0  0  0  0  0  0  0
  130.6178  126.9703   62.4794 H   0  0  0  0  0  0  0  0  0  0  0  0
  130.3690  127.1981   64.9368 H   0  0  0  0  0  0  0  0  0  0  0  0
  129.7244  122.9474   65.2644 H   0  0  0  0  0  0  0  0  0  0  0  0
  126.1865  124.7794   58.8382 H   0  0  0  0  0  0  0  0  0  0  0  0
  126.4395  123.1880   57.9921 H   0  0  0  0  0  0  0  0  0  0  0  0
  126.1646  123.0051   60.4909 H   0  0  0  0  0  0  0  0  0  0  0  0
  127.7088  122.3259   59.8312 H   0  0  0  0  0  0  0  0  0  0  0  0
  127.3418  125.0200   61.2424 H   0  0  0  0  0  0  0  0  0  0  0  0
  128.2002  123.5685   61.8740 H   0  0  0  0  0  0  0  0  0  0  0  0
  130.6863  124.9599   57.2226 H   0  0  0  0  0  0  0  0  0  0  0  0
  132.2206  127.4454   59.5822 H   0  0  0  0  0  0  0  0  0  0  0  0
  131.6848  129.9330   59.0498 H   0  0  0  0  0  0  0  0  0  0  0  0
  129.7128  130.1971   57.3570 H   0  0  0  0  0  0  0  0  0  0  0  0
  1  2  3  0
  2  3  1  0
  3  4  2  0
  4  5  1  0
  5  6  1  0
  6  7  2  0
  7  8  1  0
  8  9  2  0
  4 10  1  0
 10 11  1  0
 11 12  2  0
 12 13  1  0
 13 14  2  0
 14 15  1  0
 15 16  1  0
 15 17  1  0
 15 18  1  0
 14 19  1  0
 19 20  2  0
 20 21  1  0
 21 22  2  0
 21 23  1  0
 10 24  1  0
 24 25  2  0
 25 26  1  0
 26 27  2  0
 26 28  1  0
 28 29  1  0
 29 30  1  0
 25 31  1  0
 31 32  1  0
 32 33  2  0
 33 34  1  0
 34 35  2  0
 35 36  1  0
 31  3  1  0
 36 32  1  0
  9  5  1  0
 20 11  1  0
 30 24  1  0
  6 37  1  0
  7 38  1  0
  8 39  1  0
  9 40  1  0
 12 41  1  0
 13 42  1  0
 19 43  1  0
 28 44  1  0
 28 45  1  0
 29 46  1  0
 29 47  1  0
 30 48  1  0
 30 49  1  0
 31 50  1  6
 33 51  1  0
 34 52  1  0
 35 53  1  0
M  CHG  2  21   1  23  -1
M  END
>  <Binding energies>  (1) 
[-7.43]

>  <Ligand effiencies>  (1) 
[-0.20638888888888887]

>  <Interactions>  (1) 
["V-A:ILE:369:CG2:3237, V-A:ASP:366:CA:3210, V-B:PRO:540:CA:9855, V-A:GLY:454:CA:4049, V-B:GLU:543:C:9874, V-B:GLU:543:CB:9878, V-B:ALA:541:CB:9864, V-B:TYR:539:CE2:9848, V-A:TYR:484:CE2:4346, V-B:GLU:543:CG:9879, V-A:ASP:366:CG:3213, V-B:TYR:539:CZ:9849, H-A:ASN:370:N:3244, H-B:TYR:539:OH:9850, H-B:ALA:541:N:9863, V-A:GLU:543:CD:4908, V-B:PRO:540:CB:9857, V-A:TYR:484:CZ:4347, V-B:GLU:543:CA:9876, V-A:GLY:453:C:4042, V-B:PRO:540:N:9856, V-A:TYR:484:CD2:4344, V-A:ILE:369:CD1:3239, V-A:HIS:456:CE1:4070, V-B:GLU:543:CD:9880, V-A:ASP:366:CB:3212, V-A:LEU:475:CD2:4259, V-A:ARG:545:CZ:4926, V-A:GLY:453:CA:4044"]

$$$$
ZINC12360551-again1
     RDKit          3D

 52 56  0  0  0  0  0  0  0  0999 V2000
  133.9630  124.0920   57.8920 N   0  0  0  0  0  0  0  0  0  0  0  0
  132.9700  124.3400   58.4300 C   0  0  0  0  0  0  0  0  0  0  0  0
  131.7480  124.6700   59.0950 C   0  0  0  0  0  0  0  0  0  0  0  0
  131.5780  124.4310   60.4220 C   0  0  0  0  0  0  0  0  0  0  0  0
  132.6290  123.9080   61.2090 N   0  0  0  0  0  0  0  0  0  0  0  0
  133.7060  124.6100   61.7020 C   0  0  0  0  0  0  0  0  0  0  0  0
  134.5160  123.7460   62.4240 C   0  0  0  0  0  0  0  0  0  0  0  0
  133.9280  122.4800   62.3640 C   0  0  0  0  0  0  0  0  0  0  0  0
  132.7740  122.5980   61.6060 C   0  0  0  0  0  0  0  0  0  0  0  0
  130.3140  124.5640   61.0280 N   0  0  0  0  0  0  0  0  0  0  0  0
  130.2050  124.6350   62.4390 C   0  0  0  0  0  0  0  0  0  0  0  0
  130.8010  125.7370   63.0610 C   0  0  0  0  0  0  0  0  0  0  0  0
  130.7700  125.8810   64.4450 C   0  0  0  0  0  0  0  0  0  0  0  0
  130.1360  124.9240   65.2380 C   0  0  0  0  0  0  0  0  0  0  0  0
  130.0870  125.0600   66.7590 C   0  0  0  0  0  0  0  0  0  0  0  0
  129.4990  123.9820   67.2780 F   0  0  0  0  0  0  0  0  0  0  0  0
  131.3210  125.1540   67.2540 F   0  0  0  0  0  0  0  0  0  0  0  0
  129.4020  126.1380   67.1490 F   0  0  0  0  0  0  0  0  0  0  0  0
  129.5340  123.8240   64.6200 C   0  0  0  0  0  0  0  0  0  0  0  0
  129.5600  123.6480   63.2260 C   0  0  0  0  0  0  0  0  0  0  0  0
  128.8590  122.4720   62.6430 N   0  0  0  0  0  0  0  0  0  0  0  0
  129.5030  121.5990   62.0700 O   0  0  0  0  0  0  0  0  0  0  0  0
  127.6340  122.4300   62.7270 O   0  0  0  0  0  0  0  0  0  0  0  0
  129.1510  124.5820   60.2320 C   0  0  0  0  0  0  0  0  0  0  0  0
  127.8920  124.5340   60.7430 C   0  0  0  0  0  0  0  0  0  0  0  0
  126.6480  124.3840   59.8700 C   0  0  0  0  0  0  0  0  0  0  0  0
  126.9950  123.6270   58.5570 C   0  0  0  0  0  0  0  0  0  0  0  0
  128.3010  124.1850   57.9790 C   0  0  0  0  0  0  0  0  0  0  0  0
  128.3020  124.1990   56.6880 O   0  0  0  0  0  0  0  0  0  0  0  0
  129.3140  124.6350   58.7650 C   0  0  0  0  0  0  0  0  0  0  0  0
  130.6190  125.2810   58.2540 C   0  0  1  0  0  0  0  0  0  0  0  0
  130.5450  126.8000   58.3970 C   0  0  0  0  0  0  0  0  0  0  0  0
  131.2670  127.6750   59.2180 C   0  0  0  0  0  0  0  0  0  0  0  0
  130.9240  129.0230   59.0820 C   0  0  0  0  0  0  0  0  0  0  0  0
  129.9270  129.2200   58.1480 C   0  0  0  0  0  0  0  0  0  0  0  0
  129.4140  127.7270   57.4400 S   0  0  0  0  0  0  0  0  0  0  0  0
  133.8938  125.6829   61.5481 H   0  0  0  0  0  0  0  0  0  0  0  0
  135.4477  124.0086   62.9465 H   0  0  0  0  0  0  0  0  0  0  0  0
  134.3101  121.5605   62.8316 H   0  0  0  0  0  0  0  0  0  0  0  0
  132.0845  121.7767   61.3609 H   0  0  0  0  0  0  0  0  0  0  0  0
  131.3014  126.5008   62.4476 H   0  0  0  0  0  0  0  0  0  0  0  0
  131.2474  126.7531   64.9157 H   0  0  0  0  0  0  0  0  0  0  0  0
  129.0249  123.0741   65.2433 H   0  0  0  0  0  0  0  0  0  0  0  0
  127.7638  124.6064   61.8331 H   0  0  0  0  0  0  0  0  0  0  0  0
  125.8833  123.8188   60.4229 H   0  0  0  0  0  0  0  0  0  0  0  0
  126.2683  125.3844   59.6152 H   0  0  0  0  0  0  0  0  0  0  0  0
  127.1171  122.5552   58.7723 H   0  0  0  0  0  0  0  0  0  0  0  0
  126.1824  123.7628   57.8282 H   0  0  0  0  0  0  0  0  0  0  0  0
  130.7930  125.0858   57.1855 H   0  0  0  0  0  0  0  0  0  0  0  0
  132.0436  127.3284   59.9156 H   0  0  0  0  0  0  0  0  0  0  0  0
  131.3954  129.8353   59.6547 H   0  0  0  0  0  0  0  0  0  0  0  0
  129.5104  130.2039   57.8863 H   0  0  0  0  0  0  0  0  0  0  0  0
  1  2  3  0
  2  3  1  0
  3  4  2  0
  4  5  1  0
  5  6  1  0
  6  7  2  0
  7  8  1  0
  8  9  2  0
  4 10  1  0
 10 11  1  0
 11 12  2  0
 12 13  1  0
 13 14  2  0
 14 15  1  0
 15 16  1  0
 15 17  1  0
 15 18  1  0
 14 19  1  0
 19 20  2  0
 20 21  1  0
 21 22  2  0
 21 23  1  0
 10 24  1  0
 24 25  2  0
 25 26  1  0
 26 27  1  0
 27 28  1  0
 28 29  1  0
 28 30  2  0
 30 31  1  0
 31 32  1  0
 32 33  2  0
 33 34  1  0
 34 35  2  0
 35 36  1  0
 31  3  1  0
 36 32  1  0
  9  5  1  0
 20 11  1  0
 30 24  1  0
  6 37  1  0
  7 38  1  0
  8 39  1  0
  9 40  1  0
 12 41  1  0
 13 42  1  0
 19 43  1  0
 25 44  1  0
 26 45  1  0
 26 46  1  0
 27 47  1  0
 27 48  1  0
 31 49  1  6
 33 50  1  0
 34 51  1  0
 35 52  1  0
M  CHG  3  21   1  23  -1  29  -1
M  END
>  <Binding energies>  (1) 
[-7.26]

>  <Ligand effiencies>  (1) 
[-0.20166666666666666]

>  <Interactions>  (1) 
["V-A:ILE:369:CG2:3237, V-B:PRO:540:CA:9855, V-A:GLY:454:CA:4049, V-B:GLU:543:C:9874, V-B:GLU:543:CB:9878, V-B:ALA:541:CB:9864, V-B:TYR:539:CE2:9848, V-A:TYR:484:CE2:4346, V-B:GLU:543:CG:9879, V-A:ASP:366:CG:3213, V-B:TYR:539:CZ:9849, H-A:ASN:370:N:3244, H-B:TYR:539:OH:9850, H-B:ALA:541:N:9863, V-A:GLU:543:CD:4908, V-A:TYR:484:CZ:4347, V-B:GLU:543:CA:9876, V-A:GLY:453:C:4042, V-A:TYR:484:CD2:4344, V-A:ILE:369:CD1:3239, V-A:HIS:456:CE1:4070, V-B:GLU:543:CD:9880, V-A:ASP:366:CB:3212, V-A:LEU:475:CD2:4259, V-A:GLY:453:CA:4044"]

$$$$
ZINC12369223
     RDKit          3D

 35 37  0  0  0  0  0  0  0  0999 V2000
  134.4370  123.2100   62.4490 O   0  0  0  0  0  0  0  0  0  0  0  0
  134.0680  124.2320   63.0160 N   0  0  0  0  0  0  0  0  0  0  0  0
  134.7850  125.2000   63.2500 O   0  0  0  0  0  0  0  0  0  0  0  0
  132.7000  124.3080   63.4290 C   0  0  0  0  0  0  0  0  0  0  0  0
  131.6240  124.0100   62.5840 C   0  0  0  0  0  0  0  0  0  0  0  0
  131.6710  123.5000   60.8980 S   0  0  0  0  0  0  0  0  0  0  0  0
  131.2200  121.7790   60.9810 C   0  0  0  0  0  0  0  0  0  0  0  0
  132.0610  120.7580   60.5170 C   0  0  0  0  0  0  0  0  0  0  0  0
  131.6590  119.4290   60.6110 C   0  0  0  0  0  0  0  0  0  0  0  0
  130.4220  119.1170   61.1710 C   0  0  0  0  0  0  0  0  0  0  0  0
  129.9240  117.4680   61.2870 Cl  0  0  0  0  0  0  0  0  0  0  0  0
  129.5840  120.1270   61.6420 C   0  0  0  0  0  0  0  0  0  0  0  0
  129.9850  121.4570   61.5490 C   0  0  0  0  0  0  0  0  0  0  0  0
  130.1020  124.2250   63.3820 S   0  0  0  0  0  0  0  0  0  0  0  0
  130.8810  124.7650   64.8300 C   0  0  0  0  0  0  0  0  0  0  0  0
  129.9140  125.2250   66.2300 S   0  0  0  0  0  0  0  0  0  0  0  0
  129.1170  126.7250   65.6950 C   0  0  0  0  0  0  0  0  0  0  0  0
  129.0080  126.9490   64.3210 C   0  0  0  0  0  0  0  0  0  0  0  0
  128.3930  128.1060   63.8480 C   0  0  0  0  0  0  0  0  0  0  0  0
  127.8810  129.0350   64.7510 C   0  0  0  0  0  0  0  0  0  0  0  0
  127.1190  130.4680   64.1660 Cl  0  0  0  0  0  0  0  0  0  0  0  0
  127.9770  128.8140   66.1240 C   0  0  0  0  0  0  0  0  0  0  0  0
  128.5920  127.6580   66.5980 C   0  0  0  0  0  0  0  0  0  0  0  0
  132.2760  124.7360   64.7120 C   0  0  0  0  0  0  0  0  0  0  0  0
  133.1660  125.0970   65.7730 N   0  0  0  0  0  0  0  0  0  0  0  0
  134.3280  124.7120   65.6990 O   0  0  0  0  0  0  0  0  0  0  0  0
  132.7090  125.7670   66.6940 O   0  0  0  0  0  0  0  0  0  0  0  0
  133.0386  121.0073   60.0786 H   0  0  0  0  0  0  0  0  0  0  0  0
  132.3162  118.6269   60.2441 H   0  0  0  0  0  0  0  0  0  0  0  0
  128.6097  119.8739   62.0854 H   0  0  0  0  0  0  0  0  0  0  0  0
  129.3281  122.2559   61.9235 H   0  0  0  0  0  0  0  0  0  0  0  0
  129.4085  126.2105   63.6109 H   0  0  0  0  0  0  0  0  0  0  0  0
  128.3120  128.2853   62.7657 H   0  0  0  0  0  0  0  0  0  0  0  0
  127.5681  129.5507   66.8311 H   0  0  0  0  0  0  0  0  0  0  0  0
  128.6654  127.4778   67.6807 H   0  0  0  0  0  0  0  0  0  0  0  0
  1  2  2  0
  2  3  1  0
  2  4  1  0
  4  5  2  0
  5  6  1  0
  6  7  1  0
  7  8  2  0
  8  9  1  0
  9 10  2  0
 10 11  1  0
 10 12  1  0
 12 13  2  0
  5 14  1  0
 14 15  1  0
 15 16  1  0
 16 17  1  0
 17 18  2  0
 18 19  1  0
 19 20  2  0
 20 21  1  0
 20 22  1  0
 22 23  2  0
 15 24  2  0
 24 25  1  0
 25 26  2  0
 25 27  1  0
 24  4  1  0
 13  7  1  0
 23 17  1  0
  8 28  1  0
  9 29  1  0
 12 30  1  0
 13 31  1  0
 18 32  1  0
 19 33  1  0
 22 34  1  0
 23 35  1  0
M  CHG  4   2   1   3  -1  25   1  27  -1
M  END
>  <Binding energies>  (1) 
[-8.18]

>  <Ligand effiencies>  (1) 
[-0.30296296296296293]

>  <Interactions>  (1) 
["V-A:GLY:454:CA:4049, V-B:GLU:543:CB:9878, V-B:ALA:541:CB:9864, H-A:ARG:545:NH1:4927, V-B:TYR:539:CE2:9848, V-B:GLU:543:CG:9879, V-B:TYR:539:C:9839, V-A:TYR:484:CZ:4347, V-A:GLU:543:CD:4908, H-A:GLY:454:N:4050, V-A:GLY:453:C:4042, V-A:PRO:482:CB:4326, V-B:TYR:539:CD2:9846, V-A:GLU:543:CG:4907, V-A:SER:385:CB:3409, V-B:GLU:543:CD:9880, V-A:ARG:545:CD:4923, V-A:LEU:475:CD2:4259, H-A:ARG:545:NH2:4928, V-A:ARG:545:CZ:4926, V-A:GLY:453:CA:4044, V-A:PRO:482:CG:4327, H-A:ARG:545:NE:4924, V-B:PRO:540:C:9853, V-B:ALA:541:CA:9862, V-A:HIS:383:NE2:3394, H-A:TYR:484:OH:4348"]

$$$$
ZINC123969459
     RDKit          3D

 38 39  0  0  0  0  0  0  0  0999 V2000
  126.4230  122.8570   62.2530 O   0  0  0  0  0  0  0  0  0  0  0  0
  127.4300  122.9250   61.2600 C   0  0  2  0  0  0  0  0  0  0  0  0
  128.5940  123.8210   61.7400 C   0  0  0  0  0  0  0  0  0  0  0  0
  128.5230  124.0620   63.1800 N   0  0  0  0  0  0  0  0  0  0  0  0
  129.4000  123.1790   63.9450 C   0  0  0  0  0  0  0  0  0  0  0  0
  130.8260  123.7210   64.0760 C   0  0  0  0  0  0  0  0  0  0  0  0
  131.1270  124.7200   65.0210 C   0  0  0  0  0  0  0  0  0  0  0  0
  129.9140  125.3790   66.0660 Cl  0  0  0  0  0  0  0  0  0  0  0  0
  132.4280  125.2080   65.1320 C   0  0  0  0  0  0  0  0  0  0  0  0
  133.4350  124.7170   64.3090 C   0  0  0  0  0  0  0  0  0  0  0  0
  133.1460  123.7300   63.3710 C   0  0  0  0  0  0  0  0  0  0  0  0
  131.8450  123.2150   63.2470 C   0  0  0  0  0  0  0  0  0  0  0  0
  131.5040  122.2490   62.3160 O   0  0  0  0  0  0  0  0  0  0  0  0
  131.9640  122.3710   60.9740 C   0  0  0  0  0  0  0  0  0  0  0  0
  132.2960  121.1620   60.5230 F   0  0  0  0  0  0  0  0  0  0  0  0
  131.0150  122.8790   60.1880 F   0  0  0  0  0  0  0  0  0  0  0  0
  126.8740  123.3950   59.9120 C   0  0  0  0  0  0  0  0  0  0  0  0
  127.3760  122.8660   58.7120 C   0  0  0  0  0  0  0  0  0  0  0  0
  128.3560  121.9320   58.7250 F   0  0  0  0  0  0  0  0  0  0  0  0
  126.8720  123.2970   57.4850 C   0  0  0  0  0  0  0  0  0  0  0  0
  125.8660  124.2590   57.4390 C   0  0  0  0  0  0  0  0  0  0  0  0
  125.3630  124.7950   58.6230 C   0  0  0  0  0  0  0  0  0  0  0  0
  125.8630  124.3690   59.8530 C   0  0  0  0  0  0  0  0  0  0  0  0
  125.3590  124.9080   60.9870 F   0  0  0  0  0  0  0  0  0  0  0  0
  126.4310  123.6810   62.7460 H   0  0  0  0  0  0  0  0  0  0  0  0
  127.8190  121.9086   61.0999 H   0  0  0  0  0  0  0  0  0  0  0  0
  129.5475  123.3245   61.5069 H   0  0  0  0  0  0  0  0  0  0  0  0
  128.5214  124.7892   61.2230 H   0  0  0  0  0  0  0  0  0  0  0  0
  127.5720  123.9780   63.5080 H   0  0  0  0  0  0  0  0  0  0  0  0
  128.9785  123.0535   64.9532 H   0  0  0  0  0  0  0  0  0  0  0  0
  129.4591  122.2234   63.4035 H   0  0  0  0  0  0  0  0  0  0  0  0
  132.6591  125.9858   65.8748 H   0  0  0  0  0  0  0  0  0  0  0  0
  134.4592  125.1081   64.3989 H   0  0  0  0  0  0  0  0  0  0  0  0
  133.9459  123.3488   62.7191 H   0  0  0  0  0  0  0  0  0  0  0  0
  132.8318  123.0467   60.9582 H   0  0  0  0  0  0  0  0  0  0  0  0
  127.2705  122.8756   56.5503 H   0  0  0  0  0  0  0  0  0  0  0  0
  125.4691  124.5952   56.4697 H   0  0  0  0  0  0  0  0  0  0  0  0
  124.5696  125.5560   58.5872 H   0  0  0  0  0  0  0  0  0  0  0  0
  1  2  1  0
  2  3  1  0
  3  4  1  0
  4  5  1  0
  5  6  1  0
  6  7  2  0
  7  8  1  0
  7  9  1  0
  9 10  2  0
 10 11  1  0
 11 12  2  0
 12 13  1  0
 13 14  1  0
 14 15  1  0
 14 16  1  0
  2 17  1  0
 17 18  2  0
 18 19  1  0
 18 20  1  0
 20 21  2  0
 21 22  1  0
 22 23  2  0
 23 24  1  0
 12  6  1  0
 23 17  1  0
  1 25  1  0
  2 26  1  6
  3 27  1  0
  3 28  1  0
  4 29  1  0
  5 30  1  0
  5 31  1  0
  9 32  1  0
 10 33  1  0
 11 34  1  0
 14 35  1  0
 20 36  1  0
 21 37  1  0
 22 38  1  0
M  END
>  <Binding energies>  (1) 
[-5.39]

>  <Ligand effiencies>  (1) 
[-0.2073076923076923]

>  <Interactions>  (1) 
["V-B:TYR:539:CA:9841, V-A:ILE:369:CG2:3237, V-B:PRO:540:CA:9855, V-A:GLY:454:CA:4049, V-B:GLU:543:CB:9878, V-B:ASP:366:CG:8184, V-B:ALA:541:CB:9864, V-B:TYR:539:CE2:9848, H-B:ALA:541:O:9861, V-B:GLU:543:CG:9879, V-B:TYR:539:C:9839, V-B:TYR:539:CZ:9849, H-B:GLU:543:OE1:9881, H-B:ALA:541:N:9863, V-B:PRO:540:CB:9857, V-B:PRO:540:N:9856, V-B:TYR:539:CD2:9846, V-B:GLU:543:CD:9880, V-A:LEU:475:CD2:4259, V-A:ARG:545:CZ:4926, V-B:TYR:539:CG:9844, H-B:GLU:543:OE2:9882, V-B:PRO:540:C:9853"]

$$$$
ZINC12405677
     RDKit          3D

 36 38  0  0  0  0  0  0  0  0999 V2000
  134.2950  123.3050   62.3870 C   0  0  0  0  0  0  0  0  0  0  0  0
  132.9940  123.5600   63.0470 N   0  0  0  0  0  0  0  0  0  0  0  0
  133.0610  124.4990   64.0690 C   0  0  0  0  0  0  0  0  0  0  0  0
  134.0940  125.0810   64.4140 O   0  0  0  0  0  0  0  0  0  0  0  0
  131.7550  124.6910   64.6600 C   0  0  0  0  0  0  0  0  0  0  0  0
  131.4270  125.4940   65.6450 N   0  0  0  0  0  0  0  0  0  0  0  0
  130.1090  125.2690   65.7780 N   0  0  0  0  0  0  0  0  0  0  0  0
  129.3140  125.9800   66.7950 C   0  0  0  0  0  0  0  0  0  0  0  0
  130.2190  126.2790   68.0200 C   0  0  0  0  0  0  0  0  0  0  0  0
  129.5130  127.1770   69.0540 C   0  0  0  0  0  0  0  0  0  0  0  0
  128.9660  128.4690   68.4160 C   0  0  0  0  0  0  0  0  0  0  0  0
  128.0460  128.1680   67.2170 C   0  0  0  0  0  0  0  0  0  0  0  0
  128.7400  127.2780   66.1680 C   0  0  0  0  0  0  0  0  0  0  0  0
  129.5740  124.3670   64.9330 N   0  0  0  0  0  0  0  0  0  0  0  0
  130.6210  124.0060   64.2300 C   0  0  0  0  0  0  0  0  0  0  0  0
  130.7120  123.0930   63.1910 N   0  0  0  0  0  0  0  0  0  0  0  0
  129.4890  122.3930   62.7710 C   0  0  0  0  0  0  0  0  0  0  0  0
  131.9080  122.8360   62.5600 C   0  0  0  0  0  0  0  0  0  0  0  0
  131.9920  122.0220   61.6330 O   0  0  0  0  0  0  0  0  0  0  0  0
  135.0707  123.1530   63.1520 H   0  0  0  0  0  0  0  0  0  0  0  0
  134.2176  122.4049   61.7594 H   0  0  0  0  0  0  0  0  0  0  0  0
  134.5631  124.1677   61.7594 H   0  0  0  0  0  0  0  0  0  0  0  0
  128.4683  125.3656   67.1377 H   0  0  0  0  0  0  0  0  0  0  0  0
  130.4900  125.3280   68.5018 H   0  0  0  0  0  0  0  0  0  0  0  0
  131.1118  126.8118   67.6607 H   0  0  0  0  0  0  0  0  0  0  0  0
  128.6762  126.6179   69.4979 H   0  0  0  0  0  0  0  0  0  0  0  0
  130.2509  127.4608   69.8188 H   0  0  0  0  0  0  0  0  0  0  0  0
  128.3942  129.0259   69.1730 H   0  0  0  0  0  0  0  0  0  0  0  0
  129.8198  129.0600   68.0529 H   0  0  0  0  0  0  0  0  0  0  0  0
  127.1453  127.6520   67.5809 H   0  0  0  0  0  0  0  0  0  0  0  0
  127.7894  129.1236   66.7365 H   0  0  0  0  0  0  0  0  0  0  0  0
  128.0079  127.0048   65.3939 H   0  0  0  0  0  0  0  0  0  0  0  0
  129.5779  127.8478   65.7399 H   0  0  0  0  0  0  0  0  0  0  0  0
  128.9269  122.0713   63.6602 H   0  0  0  0  0  0  0  0  0  0  0  0
  128.8664  123.0715   62.1693 H   0  0  0  0  0  0  0  0  0  0  0  0
  129.7587  121.5125   62.1693 H   0  0  0  0  0  0  0  0  0  0  0  0
  1  2  1  0
  2  3  1  0
  3  4  2  0
  3  5  1  0
  5  6  2  0
  6  7  1  0
  7  8  1  0
  8  9  1  0
  9 10  1  0
 10 11  1  0
 11 12  1  0
 12 13  1  0
  7 14  1  0
 14 15  2  0
 15 16  1  0
 16 17  1  0
 16 18  1  0
 18 19  2  0
 18  2  1  0
 15  5  1  0
 13  8  1  0
  1 20  1  0
  1 21  1  0
  1 22  1  0
  8 23  1  0
  9 24  1  0
  9 25  1  0
 10 26  1  0
 10 27  1  0
 11 28  1  0
 11 29  1  0
 12 30  1  0
 12 31  1  0
 13 32  1  0
 13 33  1  0
 17 34  1  0
 17 35  1  0
 17 36  1  0
M  END
>  <Binding energies>  (1) 
[-5.75]

>  <Ligand effiencies>  (1) 
[-0.3026315789473684]

>  <Interactions>  (1) 
["V-A:GLY:454:CA:4049, V-B:GLU:543:CB:9878, V-B:ALA:541:CB:9864, H-A:ARG:545:NH1:4927, V-B:GLU:543:CG:9879, V-A:GLU:543:CD:4908, V-B:HIS:456:CE1:9041, H-A:GLY:454:N:4050, V-A:GLY:453:C:4042, V-A:ILE:369:CD1:3239, V-A:HIS:456:CE1:4070, V-A:GLU:543:CG:4907, V-B:GLU:543:CD:9880, V-A:LEU:475:CD2:4259, H-A:ARG:545:NH2:4928, V-A:ARG:545:CZ:4926, V-A:GLU:543:CB:4906, H-A:ARG:545:NE:4924, H-A:TYR:484:OH:4348"]

$$$$
ZINC12412002
     RDKit          3D

 65 70  0  0  0  0  0  0  0  0999 V2000
  125.3970  129.7450   62.8190 C   0  0  0  0  0  0  0  0  0  0  0  0
  125.9260  129.8420   61.3810 C   0  0  0  0  0  0  0  0  0  0  0  0
  127.0160  128.9000   61.1150 N   0  0  0  0  0  0  0  0  0  0  0  0
  126.8470  127.5620   61.2640 C   0  0  0  0  0  0  0  0  0  0  0  0
  125.8360  126.9640   61.6400 O   0  0  0  0  0  0  0  0  0  0  0  0
  128.1860  126.8870   60.8560 C   0  0  1  0  0  0  0  0  0  0  0  0
  128.7630  126.2190   62.1220 C   0  0  0  0  0  0  0  0  0  0  0  0
  128.9260  127.0190   63.3050 C   0  0  0  0  0  0  0  0  0  0  0  0
  129.0550  127.6800   64.2450 N   0  0  0  0  0  0  0  0  0  0  0  0
  129.2030  124.9390   62.1230 C   0  0  0  0  0  0  0  0  0  0  0  0
  129.7880  124.3880   63.2900 N   0  0  0  0  0  0  0  0  0  0  0  0
  130.9600  124.7960   63.8880 C   0  0  0  0  0  0  0  0  0  0  0  0
  131.1900  124.0150   65.0100 C   0  0  0  0  0  0  0  0  0  0  0  0
  130.1280  123.1120   65.1120 C   0  0  0  0  0  0  0  0  0  0  0  0
  129.2740  123.3610   64.0490 C   0  0  0  0  0  0  0  0  0  0  0  0
  129.1240  124.1250   60.9820 N   0  0  0  0  0  0  0  0  0  0  0  0
  129.7000  122.8300   61.0060 C   0  0  0  0  0  0  0  0  0  0  0  0
  128.9340  121.7220   61.3840 C   0  0  0  0  0  0  0  0  0  0  0  0
  129.5120  120.4550   61.4140 C   0  0  0  0  0  0  0  0  0  0  0  0
  130.8520  120.2980   61.0650 C   0  0  0  0  0  0  0  0  0  0  0  0
  131.4120  119.0690   61.0950 F   0  0  0  0  0  0  0  0  0  0  0  0
  131.6190  121.3970   60.6850 C   0  0  0  0  0  0  0  0  0  0  0  0
  131.0430  122.6640   60.6540 C   0  0  0  0  0  0  0  0  0  0  0  0
  128.4570  124.5530   59.8200 C   0  0  0  0  0  0  0  0  0  0  0  0
  127.9690  125.8310   59.7140 C   0  0  0  0  0  0  0  0  0  0  0  0
  127.2600  126.2700   58.4670 C   0  0  0  0  0  0  0  0  0  0  0  0
  127.0700  127.4540   58.1910 O   0  0  0  0  0  0  0  0  0  0  0  0
  126.9550  125.2040   57.4020 C   0  0  0  0  0  0  0  0  0  0  0  0
  126.8650  123.7660   57.9580 C   0  0  0  0  0  0  0  0  0  0  0  0
  125.6410  123.6180   58.9040 C   0  0  0  0  0  0  0  0  0  0  0  0
  126.7880  122.8010   56.7550 C   0  0  0  0  0  0  0  0  0  0  0  0
  128.1950  123.5000   58.7120 C   0  0  0  0  0  0  0  0  0  0  0  0
  129.0260  128.0710   60.4580 C   0  0  0  0  0  0  0  0  0  0  0  0
  130.3360  128.1450   59.9790 C   0  0  0  0  0  0  0  0  0  0  0  0
  130.8930  129.3940   59.6880 C   0  0  0  0  0  0  0  0  0  0  0  0
  130.1420  130.5570   59.8740 C   0  0  0  0  0  0  0  0  0  0  0  0
  128.8310  130.4790   60.3500 C   0  0  0  0  0  0  0  0  0  0  0  0
  128.2850  129.2260   60.6380 C   0  0  0  0  0  0  0  0  0  0  0  0
  126.2261  129.8970   63.5257 H   0  0  0  0  0  0  0  0  0  0  0  0
  124.6309  130.5177   62.9808 H   0  0  0  0  0  0  0  0  0  0  0  0
  124.9549  128.7508   62.9808 H   0  0  0  0  0  0  0  0  0  0  0  0
  125.0996  129.6291   60.6869 H   0  0  0  0  0  0  0  0  0  0  0  0
  126.3233  130.8581   61.2409 H   0  0  0  0  0  0  0  0  0  0  0  0
  131.6087  125.6102   63.5326 H   0  0  0  0  0  0  0  0  0  0  0  0
  132.0488  124.0917   65.6931 H   0  0  0  0  0  0  0  0  0  0  0  0
  129.9948  122.3465   65.8906 H   0  0  0  0  0  0  0  0  0  0  0  0
  128.3360  122.8240   63.8447 H   0  0  0  0  0  0  0  0  0  0  0  0
  127.8763  121.8512   61.6572 H   0  0  0  0  0  0  0  0  0  0  0  0
  128.9131  119.5818   61.7120 H   0  0  0  0  0  0  0  0  0  0  0  0
  132.6759  121.2642   60.4104 H   0  0  0  0  0  0  0  0  0  0  0  0
  131.6443  123.5344   60.3526 H   0  0  0  0  0  0  0  0  0  0  0  0
  125.9932  125.4527   56.9296 H   0  0  0  0  0  0  0  0  0  0  0  0
  127.7935  125.2173   56.6902 H   0  0  0  0  0  0  0  0  0  0  0  0
  125.9790  123.6589   59.9500 H   0  0  0  0  0  0  0  0  0  0  0  0
  124.9310  124.4368   58.7158 H   0  0  0  0  0  0  0  0  0  0  0  0
  125.1466  122.6535   58.7158 H   0  0  0  0  0  0  0  0  0  0  0  0
  126.7054  121.7664   57.1195 H   0  0  0  0  0  0  0  0  0  0  0  0
  125.9065  123.0460   56.1442 H   0  0  0  0  0  0  0  0  0  0  0  0
  127.6971  122.9031   56.1442 H   0  0  0  0  0  0  0  0  0  0  0  0
  128.1477  122.5029   59.1741 H   0  0  0  0  0  0  0  0  0  0  0  0
  129.0165  123.5630   57.9832 H   0  0  0  0  0  0  0  0  0  0  0  0
  130.9249  127.2277   59.8318 H   0  0  0  0  0  0  0  0  0  0  0  0
  131.9245  129.4609   59.3119 H   0  0  0  0  0  0  0  0  0  0  0  0
  130.5845  131.5377   59.6449 H   0  0  0  0  0  0  0  0  0  0  0  0
  128.2362  131.3927   60.4962 H   0  0  0  0  0  0  0  0  0  0  0  0
  1  2  1  0
  2  3  1  0
  3  4  1  0
  4  5  2  0
  6  4  1  1
  6  7  1  0
  7  8  1  0
  8  9  3  0
  7 10  2  0
 10 11  1  0
 11 12  1  0
 12 13  2  0
 13 14  1  0
 14 15  2  0
 10 16  1  0
 16 17  1  0
 17 18  2  0
 18 19  1  0
 19 20  2  0
 20 21  1  0
 20 22  1  0
 22 23  2  0
 16 24  1  0
 24 25  2  0
 25 26  1  0
 26 27  2  0
 26 28  1  0
 28 29  1  0
 29 30  1  0
 29 31  1  0
 29 32  1  0
  6 33  1  0
 33 34  2  0
 34 35  1  0
 35 36  2  0
 36 37  1  0
 37 38  2  0
 38  3  1  0
 25  6  1  0
 38 33  1  0
 15 11  1  0
 23 17  1  0
 32 24  1  0
  1 39  1  0
  1 40  1  0
  1 41  1  0
  2 42  1  0
  2 43  1  0
 12 44  1  0
 13 45  1  0
 14 46  1  0
 15 47  1  0
 18 48  1  0
 19 49  1  0
 22 50  1  0
 23 51  1  0
 28 52  1  0
 28 53  1  0
 30 54  1  0
 30 55  1  0
 30 56  1  0
 31 57  1  0
 31 58  1  0
 31 59  1  0
 32 60  1  0
 32 61  1  0
 34 62  1  0
 35 63  1  0
 36 64  1  0
 37 65  1  0
M  END
>  <Binding energies>  (1) 
[-6.77]

>  <Ligand effiencies>  (1) 
[-0.1781578947368421]

>  <Interactions>  (1) 
["V-B:PRO:540:CA:9855, V-B:TYR:539:CD2:9846, V-A:SER:385:CB:3409, V-B:GLU:543:CD:9880, V-B:PRO:540:C:9853, V-B:ALA:541:CB:9864, V-A:GLU:543:CD:4908, V-B:PRO:540:CB:9857, H-B:TYR:531:OH:9767, V-B:TYR:539:CE2:9848, V-A:TYR:484:CE2:4346, V-A:TYR:484:CZ:4347, V-B:GLU:543:CG:9879, V-A:LEU:475:CD2:4259, V-B:TYR:539:C:9839, V-A:LEU:475:CG:4257, H-B:ARG:545:NH2:9900, V-B:PRO:540:N:9856"]

$$$$
ZINC12414050
     RDKit          3D

 39 41  0  0  0  0  0  0  0  0999 V2000
  127.4510  127.6960   73.2090 C   0  0  0  0  0  0  0  0  0  0  0  0
  128.6640  128.0600   72.4770 N   0  0  0  0  0  0  0  0  0  0  0  0
  129.4130  129.2120   72.9830 C   0  0  0  0  0  0  0  0  0  0  0  0
  128.8480  127.6240   71.1340 C   0  0  0  0  0  0  0  0  0  0  0  0
  127.8000  127.0280   70.4120 C   0  0  0  0  0  0  0  0  0  0  0  0
  127.9850  126.5930   69.1030 C   0  0  0  0  0  0  0  0  0  0  0  0
  129.2250  126.7360   68.4760 C   0  0  0  0  0  0  0  0  0  0  0  0
  129.4760  126.2830   67.0920 C   0  0  0  0  0  0  0  0  0  0  0  0
  130.6500  125.8890   66.5390 C   0  0  0  0  0  0  0  0  0  0  0  0
  132.2610  125.8530   67.2570 S   0  0  0  0  0  0  0  0  0  0  0  0
  132.9740  125.2440   65.7380 C   0  0  0  0  0  0  0  0  0  0  0  0
  134.1730  124.9910   65.6150 O   0  0  0  0  0  0  0  0  0  0  0  0
  131.9890  125.1240   64.8190 N   0  0  0  0  0  0  0  0  0  0  0  0
  132.2970  124.6670   63.5150 C   0  0  0  0  0  0  0  0  0  0  0  0
  132.0890  125.5060   62.4120 C   0  0  0  0  0  0  0  0  0  0  0  0
  132.3960  125.0560   61.1310 C   0  0  0  0  0  0  0  0  0  0  0  0
  132.9080  123.7720   60.9500 C   0  0  0  0  0  0  0  0  0  0  0  0
  133.2870  123.2170   59.3610 Cl  0  0  0  0  0  0  0  0  0  0  0  0
  133.1170  122.9320   62.0430 C   0  0  0  0  0  0  0  0  0  0  0  0
  132.8120  123.3770   63.3270 C   0  0  0  0  0  0  0  0  0  0  0  0
  130.7120  125.4500   65.1600 C   0  0  0  0  0  0  0  0  0  0  0  0
  129.7470  125.3820   64.3910 O   0  0  0  0  0  0  0  0  0  0  0  0
  130.2720  127.3330   69.1780 C   0  0  0  0  0  0  0  0  0  0  0  0
  130.0880  127.7680   70.4870 C   0  0  0  0  0  0  0  0  0  0  0  0
  127.6440  127.7539   74.2904 H   0  0  0  0  0  0  0  0  0  0  0  0
  126.6403  128.3904   72.9435 H   0  0  0  0  0  0  0  0  0  0  0  0
  127.1565  126.6699   72.9435 H   0  0  0  0  0  0  0  0  0  0  0  0
  129.4052  129.2000   74.0829 H   0  0  0  0  0  0  0  0  0  0  0  0
  130.4512  129.1611   72.6231 H   0  0  0  0  0  0  0  0  0  0  0  0
  128.9452  130.1403   72.6231 H   0  0  0  0  0  0  0  0  0  0  0  0
  126.8169  126.9032   70.8895 H   0  0  0  0  0  0  0  0  0  0  0  0
  127.1479  126.1328   68.5577 H   0  0  0  0  0  0  0  0  0  0  0  0
  128.6004  126.2628   66.4265 H   0  0  0  0  0  0  0  0  0  0  0  0
  131.6839  126.5182   62.5582 H   0  0  0  0  0  0  0  0  0  0  0  0
  132.2349  125.7123   60.2631 H   0  0  0  0  0  0  0  0  0  0  0  0
  133.5217  121.9204   61.8916 H   0  0  0  0  0  0  0  0  0  0  0  0
  132.9750  122.7173   64.1920 H   0  0  0  0  0  0  0  0  0  0  0  0
  131.2510  127.4610   68.6930 H   0  0  0  0  0  0  0  0  0  0  0  0
  130.9274  128.2327   71.0250 H   0  0  0  0  0  0  0  0  0  0  0  0
  1  2  1  0
  2  3  1  0
  2  4  1  0
  4  5  2  0
  5  6  1  0
  6  7  2  0
  7  8  1  0
  8  9  2  0
  9 10  1  0
 10 11  1  0
 11 12  2  0
 11 13  1  0
 13 14  1  0
 14 15  2  0
 15 16  1  0
 16 17  2  0
 17 18  1  0
 17 19  1  0
 19 20  2  0
 13 21  1  0
 21 22  2  0
  7 23  1  0
 23 24  2  0
 24  4  1  0
 21  9  1  0
 20 14  1  0
  1 25  1  0
  1 26  1  0
  1 27  1  0
  3 28  1  0
  3 29  1  0
  3 30  1  0
  5 31  1  0
  6 32  1  0
  8 33  1  0
 15 34  1  0
 16 35  1  0
 19 36  1  0
 20 37  1  0
 23 38  1  0
 24 39  1  0
M  END
>  <Binding energies>  (1) 
[-7.14]

>  <Ligand effiencies>  (1) 
[-0.2975]

>  <Interactions>  (1) 
["V-A:ILE:369:CG2:3237, V-A:GLY:454:CA:4049, V-B:HIS:456:CD2:9039, V-B:GLU:543:C:9874, V-A:ILE:369:CB:3236, V-B:GLU:543:CB:9878, V-B:TYR:539:CE2:9848, V-B:GLU:543:CG:9879, V-A:ASP:366:CG:3213, V-B:TYR:539:CZ:9849, V-B:LYS:547:CE:9922, V-A:GLU:543:CD:4908, V-B:HIS:456:CE1:9041, H-A:GLY:454:N:4050, V-B:GLU:543:CA:9876, V-A:HIS:456:CE1:4070, V-B:GLY:544:C:9884, V-B:GLU:543:CD:9880, V-B:HIS:456:CG:9037, V-A:ARG:545:CD:4923, V-A:LEU:475:CD2:4259, V-A:ARG:545:CZ:4926, V-A:GLU:543:CB:4906, H-A:ARG:545:NE:4924, H-A:HIS:456:ND1:4067, H-A:TYR:484:OH:4348"]

$$$$
ZINC12462530
     RDKit          3D

 54 58  0  0  0  0  0  0  0  0999 V2000
  131.6390  131.0910   59.3820 C   0  0  0  0  0  0  0  0  0  0  0  0
  131.3270  129.6270   59.5870 C   0  0  0  0  0  0  0  0  0  0  0  0
  130.9790  128.9510   60.7450 C   0  0  0  0  0  0  0  0  0  0  0  0
  130.7590  127.5850   60.5660 C   0  0  0  0  0  0  0  0  0  0  0  0
  130.9410  127.1250   59.2640 C   0  0  0  0  0  0  0  0  0  0  0  0
  130.7780  125.6880   58.7450 C   0  0  1  0  0  0  0  0  0  0  0  0
  131.8310  124.7210   59.2990 C   0  0  0  0  0  0  0  0  0  0  0  0
  133.0150  124.4980   58.5320 C   0  0  0  0  0  0  0  0  0  0  0  0
  133.9720  124.3350   57.9030 N   0  0  0  0  0  0  0  0  0  0  0  0
  131.6440  124.1500   60.5170 C   0  0  0  0  0  0  0  0  0  0  0  0
  132.6510  123.3620   61.1180 N   0  0  0  0  0  0  0  0  0  0  0  0
  132.9000  122.0310   60.8670 C   0  0  0  0  0  0  0  0  0  0  0  0
  133.9710  121.6180   61.6450 C   0  0  0  0  0  0  0  0  0  0  0  0
  134.3840  122.7180   62.4000 C   0  0  0  0  0  0  0  0  0  0  0  0
  133.5580  123.7800   62.0660 C   0  0  0  0  0  0  0  0  0  0  0  0
  130.3890  124.2390   61.1560 N   0  0  0  0  0  0  0  0  0  0  0  0
  130.2290  123.8000   62.4930 C   0  0  0  0  0  0  0  0  0  0  0  0
  130.3970  124.7060   63.5500 C   0  0  0  0  0  0  0  0  0  0  0  0
  130.2230  124.3100   64.8790 C   0  0  0  0  0  0  0  0  0  0  0  0
  130.4000  125.3330   65.9980 C   0  0  0  0  0  0  0  0  0  0  0  0
  131.6800  125.6460   66.2070 F   0  0  0  0  0  0  0  0  0  0  0  0
  129.7430  126.4520   65.6900 F   0  0  0  0  0  0  0  0  0  0  0  0
  129.9020  124.8400   67.1330 F   0  0  0  0  0  0  0  0  0  0  0  0
  129.8860  122.9790   65.1510 C   0  0  0  0  0  0  0  0  0  0  0  0
  129.7230  122.0660   64.1110 C   0  0  0  0  0  0  0  0  0  0  0  0
  129.8930  122.4680   62.7850 C   0  0  0  0  0  0  0  0  0  0  0  0
  129.6820  121.2910   61.5330 Cl  0  0  0  0  0  0  0  0  0  0  0  0
  129.2450  124.5330   60.3850 C   0  0  0  0  0  0  0  0  0  0  0  0
  129.3950  125.1310   59.1600 C   0  0  0  0  0  0  0  0  0  0  0  0
  128.2660  125.3110   58.2160 C   0  0  0  0  0  0  0  0  0  0  0  0
  128.3880  125.9230   57.1560 O   0  0  0  0  0  0  0  0  0  0  0  0
  126.8850  124.8060   58.6610 C   0  0  0  0  0  0  0  0  0  0  0  0
  126.9810  123.6580   59.6760 C   0  0  0  0  0  0  0  0  0  0  0  0
  127.8710  124.0360   60.8730 C   0  0  0  0  0  0  0  0  0  0  0  0
  131.3640  128.5010   58.2660 S   0  0  0  0  0  0  0  0  0  0  0  0
  131.7440  131.5839   60.3597 H   0  0  0  0  0  0  0  0  0  0  0  0
  132.5785  131.1903   58.8185 H   0  0  0  0  0  0  0  0  0  0  0  0
  130.8216  131.5647   58.8185 H   0  0  0  0  0  0  0  0  0  0  0  0
  130.8843  129.4484   61.7215 H   0  0  0  0  0  0  0  0  0  0  0  0
  130.4638  126.9208   61.3916 H   0  0  0  0  0  0  0  0  0  0  0  0
  130.8918  125.7505   57.6527 H   0  0  0  0  0  0  0  0  0  0  0  0
  132.3399  121.3979   60.1632 H   0  0  0  0  0  0  0  0  0  0  0  0
  134.4132  120.6110   61.6640 H   0  0  0  0  0  0  0  0  0  0  0  0
  135.2111  122.7380   63.1250 H   0  0  0  0  0  0  0  0  0  0  0  0
  133.6175  124.7933   62.4899 H   0  0  0  0  0  0  0  0  0  0  0  0
  130.6709  125.7482   63.3290 H   0  0  0  0  0  0  0  0  0  0  0  0
  129.7490  122.6517   66.1922 H   0  0  0  0  0  0  0  0  0  0  0  0
  129.4588  121.0222   64.3362 H   0  0  0  0  0  0  0  0  0  0  0  0
  126.3355  125.6400   59.1219 H   0  0  0  0  0  0  0  0  0  0  0  0
  126.3646  124.4238   57.7704 H   0  0  0  0  0  0  0  0  0  0  0  0
  125.9716  123.4196   60.0424 H   0  0  0  0  0  0  0  0  0  0  0  0
  127.4304  122.7893   59.1727 H   0  0  0  0  0  0  0  0  0  0  0  0
  127.3814  124.8337   61.4510 H   0  0  0  0  0  0  0  0  0  0  0  0
  128.0168  123.1468   61.5040 H   0  0  0  0  0  0  0  0  0  0  0  0
  1  2  1  0
  2  3  2  0
  3  4  1  0
  4  5  2  0
  5  6  1  0
  6  7  1  0
  7  8  1  0
  8  9  3  0
  7 10  2  0
 10 11  1  0
 11 12  1  0
 12 13  2  0
 13 14  1  0
 14 15  2  0
 10 16  1  0
 16 17  1  0
 17 18  2  0
 18 19  1  0
 19 20  1  0
 20 21  1  0
 20 22  1  0
 20 23  1  0
 19 24  2  0
 24 25  1  0
 25 26  2  0
 26 27  1  0
 16 28  1  0
 28 29  2  0
 29 30  1  0
 30 31  2  0
 30 32  1  0
 32 33  1  0
 33 34  1  0
  5 35  1  0
 35  2  1  0
 29  6  1  0
 15 11  1  0
 26 17  1  0
 34 28  1  0
  1 36  1  0
  1 37  1  0
  1 38  1  0
  3 39  1  0
  4 40  1  0
  6 41  1  6
 12 42  1  0
 13 43  1  0
 14 44  1  0
 15 45  1  0
 18 46  1  0
 24 47  1  0
 25 48  1  0
 32 49  1  0
 32 50  1  0
 33 51  1  0
 33 52  1  0
 34 53  1  0
 34 54  1  0
M  END
>  <Binding energies>  (1) 
[-8.05]

>  <Ligand effiencies>  (1) 
[-0.23]

>  <Interactions>  (1) 
["V-A:ILE:369:CG2:3237, V-A:ASP:366:CA:3210, V-B:PRO:540:CA:9855, V-A:GLY:454:CA:4049, V-B:GLU:543:CB:9878, V-B:ALA:541:CB:9864, V-B:TYR:539:CE2:9848, V-A:TYR:484:CE2:4346, V-B:GLU:543:CG:9879, V-A:ASP:366:CG:3213, V-B:TYR:539:CZ:9849, H-B:TYR:539:OH:9850, V-A:TYR:484:CZ:4347, V-B:PRO:540:CB:9857, V-A:GLU:543:CD:4908, V-B:GLU:543:CA:9876, V-A:SER:385:C:3405, V-A:GLY:453:C:4042, V-A:ILE:369:CD1:3239, V-A:HIS:456:CE1:4070, V-A:SER:385:CB:3409, V-B:GLU:543:CD:9880, V-A:ASP:366:CB:3212, V-A:LEU:475:CD2:4259, V-A:PRO:540:CB:4885"]

$$$$
ZINC12462530-again1
     RDKit          3D

 53 57  0  0  0  0  0  0  0  0999 V2000
  130.9000  118.1410   60.5710 C   0  0  0  0  0  0  0  0  0  0  0  0
  130.9700  119.6140   60.9000 C   0  0  0  0  0  0  0  0  0  0  0  0
  130.0340  120.4270   61.5190 C   0  0  0  0  0  0  0  0  0  0  0  0
  130.4360  121.7550   61.6620 C   0  0  0  0  0  0  0  0  0  0  0  0
  131.7010  122.0420   61.1580 C   0  0  0  0  0  0  0  0  0  0  0  0
  132.4200  123.3950   61.1610 C   0  0  1  0  0  0  0  0  0  0  0  0
  132.0340  124.3200   59.9980 C   0  0  0  0  0  0  0  0  0  0  0  0
  132.9090  124.3670   58.8680 C   0  0  0  0  0  0  0  0  0  0  0  0
  133.6050  124.3890   57.9440 N   0  0  0  0  0  0  0  0  0  0  0  0
  130.9180  125.0920   60.0570 C   0  0  0  0  0  0  0  0  0  0  0  0
  130.5530  125.9250   58.9740 N   0  0  0  0  0  0  0  0  0  0  0  0
  130.7180  127.2900   58.9130 C   0  0  0  0  0  0  0  0  0  0  0  0
  130.2390  127.7490   57.6960 C   0  0  0  0  0  0  0  0  0  0  0  0
  129.7570  126.6410   56.9970 C   0  0  0  0  0  0  0  0  0  0  0  0
  129.9520  125.5290   57.8020 C   0  0  0  0  0  0  0  0  0  0  0  0
  130.1740  125.2110   61.2450 N   0  0  0  0  0  0  0  0  0  0  0  0
  128.8530  125.7200   61.1950 C   0  0  0  0  0  0  0  0  0  0  0  0
  128.6040  126.9870   61.7330 C   0  0  0  0  0  0  0  0  0  0  0  0
  127.3130  127.5290   61.7410 C   0  0  0  0  0  0  0  0  0  0  0  0
  127.0750  128.9130   62.3430 C   0  0  0  0  0  0  0  0  0  0  0  0
  127.7660  129.0960   63.4710 F   0  0  0  0  0  0  0  0  0  0  0  0
  127.4320  129.8660   61.4820 F   0  0  0  0  0  0  0  0  0  0  0  0
  125.7780  129.0500   62.6200 F   0  0  0  0  0  0  0  0  0  0  0  0
  126.2620  126.7830   61.1970 C   0  0  0  0  0  0  0  0  0  0  0  0
  126.4970  125.5200   60.6570 C   0  0  0  0  0  0  0  0  0  0  0  0
  127.7840  124.9820   60.6550 C   0  0  0  0  0  0  0  0  0  0  0  0
  128.0190  123.4080   59.9710 Cl  0  0  0  0  0  0  0  0  0  0  0  0
  130.7390  124.8160   62.4720 C   0  0  0  0  0  0  0  0  0  0  0  0
  130.1290  124.9940   63.6750 C   0  0  0  0  0  0  0  0  0  0  0  0
  130.8260  124.7130   65.0050 C   0  0  0  0  0  0  0  0  0  0  0  0
  132.3630  124.9030   64.8580 C   0  0  0  0  0  0  0  0  0  0  0  0
  132.8310  124.2080   63.5730 C   0  0  0  0  0  0  0  0  0  0  0  0
  133.9800  123.6370   63.7080 O   0  0  0  0  0  0  0  0  0  0  0  0
  132.0650  124.1660   62.4500 C   0  0  0  0  0  0  0  0  0  0  0  0
  132.3720  120.5620   60.5070 S   0  0  0  0  0  0  0  0  0  0  0  0
  130.8723  117.5580   61.5034 H   0  0  0  0  0  0  0  0  0  0  0  0
  129.9912  117.9390   59.9851 H   0  0  0  0  0  0  0  0  0  0  0  0
  131.7855  117.8537   59.9851 H   0  0  0  0  0  0  0  0  0  0  0  0
  129.0584  120.0571   61.8674 H   0  0  0  0  0  0  0  0  0  0  0  0
  129.8013  122.5175   62.1371 H   0  0  0  0  0  0  0  0  0  0  0  0
  133.4887  123.1488   61.0759 H   0  0  0  0  0  0  0  0  0  0  0  0
  131.1590  127.9159   59.7028 H   0  0  0  0  0  0  0  0  0  0  0  0
  130.2387  128.7919   57.3462 H   0  0  0  0  0  0  0  0  0  0  0  0
  129.3061  126.6486   55.9937 H   0  0  0  0  0  0  0  0  0  0  0  0
  129.6714  124.4970   57.5448 H   0  0  0  0  0  0  0  0  0  0  0  0
  129.4366  127.5674   62.1570 H   0  0  0  0  0  0  0  0  0  0  0  0
  125.2426  127.1964   61.1955 H   0  0  0  0  0  0  0  0  0  0  0  0
  125.6628  124.9440   60.2299 H   0  0  0  0  0  0  0  0  0  0  0  0
  129.0902  125.3555   63.6906 H   0  0  0  0  0  0  0  0  0  0  0  0
  130.4456  125.4077   65.7683 H   0  0  0  0  0  0  0  0  0  0  0  0
  130.6202  123.6750   65.3053 H   0  0  0  0  0  0  0  0  0  0  0  0
  132.5985  125.9761   64.8038 H   0  0  0  0  0  0  0  0  0  0  0  0
  132.8766  124.4644   65.7262 H   0  0  0  0  0  0  0  0  0  0  0  0
  1  2  1  0
  2  3  2  0
  3  4  1  0
  4  5  2  0
  5  6  1  0
  6  7  1  0
  7  8  1  0
  8  9  3  0
  7 10  2  0
 10 11  1  0
 11 12  1  0
 12 13  2  0
 13 14  1  0
 14 15  2  0
 10 16  1  0
 16 17  1  0
 17 18  2  0
 18 19  1  0
 19 20  1  0
 20 21  1  0
 20 22  1  0
 20 23  1  0
 19 24  2  0
 24 25  1  0
 25 26  2  0
 26 27  1  0
 16 28  1  0
 28 29  2  0
 29 30  1  0
 30 31  1  0
 31 32  1  0
 32 33  1  0
 32 34  2  0
  5 35  1  0
 35  2  1  0
 34  6  1  0
 15 11  1  0
 26 17  1  0
 34 28  1  0
  1 36  1  0
  1 37  1  0
  1 38  1  0
  3 39  1  0
  4 40  1  0
  6 41  1  1
 12 42  1  0
 13 43  1  0
 14 44  1  0
 15 45  1  0
 18 46  1  0
 24 47  1  0
 25 48  1  0
 29 49  1  0
 30 50  1  0
 30 51  1  0
 31 52  1  0
 31 53  1  0
M  CHG  1  33  -1
M  END
>  <Binding energies>  (1) 
[-7.46]

>  <Ligand effiencies>  (1) 
[-0.21314285714285713]

>  <Interactions>  (1) 
["V-A:ILE:369:CG2:3237, V-B:PRO:540:CA:9855, V-B:TYR:539:CZ:9849, H-B:TYR:539:OH:9850, V-B:TYR:539:CD2:9846, V-B:GLU:543:CD:9880, V-B:ALA:541:CB:9864, V-B:ASP:366:CG:8184, V-B:TYR:539:CE2:9848, V-B:ARG:545:CZ:9898, V-A:LEU:475:CD2:4259, V-A:ARG:545:CZ:4926, V-A:HIS:383:NE2:3394, H-A:GLY:454:N:4050, H-A:TYR:484:OH:4348"]

$$$$
ZINC1252771983
     RDKit          3D

 58 59  0  0  0  0  0  0  0  0999 V2000
  130.5950  127.4140   72.4740 C   0  0  0  0  0  0  0  0  0  0  0  0
  129.6350  128.0030   71.7430 C   0  0  0  0  0  0  0  0  0  0  0  0
  128.3130  127.3620   71.3710 C   0  0  0  0  0  0  0  0  0  0  0  0
  128.1940  127.0370   69.8760 C   0  0  0  0  0  0  0  0  0  0  0  0
  129.7130  127.3300   68.9270 S   0  0  0  0  0  0  0  0  0  0  0  0
  129.4660  126.1450   67.5760 C   0  0  0  0  0  0  0  0  0  0  0  0
  130.7350  125.3760   67.1680 C   0  0  0  0  0  0  0  0  0  0  0  0
  131.0510  125.5090   65.7470 N   0  0  0  0  0  0  0  0  0  0  0  0
  130.8650  124.5570   64.8080 C   0  0  0  0  0  0  0  0  0  0  0  0
  130.2630  123.5110   65.0690 O   0  0  0  0  0  0  0  0  0  0  0  0
  131.4050  124.8200   63.5800 N   0  0  0  0  0  0  0  0  0  0  0  0
  130.6810  125.6920   62.6400 C   0  0  0  0  0  0  0  0  0  0  0  0
  132.6990  124.2370   63.1110 C   0  0  2  0  0  0  0  0  0  0  0  0
  133.6190  125.0720   62.1990 C   0  0  0  0  0  0  0  0  0  0  0  0
  133.2830  124.1300   61.0310 C   0  0  2  0  0  0  0  0  0  0  0  0
  132.3340  124.7160   60.1420 O   0  0  0  0  0  0  0  0  0  0  0  0
  132.8590  125.1030   58.8790 C   0  0  0  0  0  0  0  0  0  0  0  0
  133.9830  124.1360   58.5030 C   0  0  0  0  0  0  0  0  0  0  0  0
  132.6400  123.1210   62.0280 C   0  0  0  0  0  0  0  0  0  0  0  0
  133.5830  121.9410   62.3870 C   0  0  0  0  0  0  0  0  0  0  0  0
  133.6330  120.8660   61.2810 C   0  0  0  0  0  0  0  0  0  0  0  0
  132.2270  120.3700   60.8890 C   0  0  0  0  0  0  0  0  0  0  0  0
  131.2850  121.5330   60.5250 C   0  0  0  0  0  0  0  0  0  0  0  0
  131.2250  122.5950   61.6410 C   0  0  0  0  0  0  0  0  0  0  0  0
  131.5264  127.9551   72.6970 H   0  0  0  0  0  0  0  0  0  0  0  0
  130.4501  126.3904   72.8499 H   0  0  0  0  0  0  0  0  0  0  0  0
  129.8220  129.0271   71.3877 H   0  0  0  0  0  0  0  0  0  0  0  0
  128.2059  126.4272   71.9409 H   0  0  0  0  0  0  0  0  0  0  0  0
  127.5212  128.0871   71.6103 H   0  0  0  0  0  0  0  0  0  0  0  0
  127.9232  125.9757   69.7743 H   0  0  0  0  0  0  0  0  0  0  0  0
  127.4298  127.7135   69.4656 H   0  0  0  0  0  0  0  0  0  0  0  0
  128.7074  125.4143   67.8931 H   0  0  0  0  0  0  0  0  0  0  0  0
  129.1557  126.7294   66.6973 H   0  0  0  0  0  0  0  0  0  0  0  0
  131.5825  125.7624   67.7533 H   0  0  0  0  0  0  0  0  0  0  0  0
  130.5516  124.3096   67.3660 H   0  0  0  0  0  0  0  0  0  0  0  0
  131.5130  126.3650   65.4750 H   0  0  0  0  0  0  0  0  0  0  0  0
  130.0778  126.4185   63.2042 H   0  0  0  0  0  0  0  0  0  0  0  0
  131.4032  126.2282   62.0068 H   0  0  0  0  0  0  0  0  0  0  0  0
  130.0212  125.0807   62.0068 H   0  0  0  0  0  0  0  0  0  0  0  0
  133.0223  124.0107   64.1378 H   0  0  0  0  0  0  0  0  0  0  0  0
  133.2876  126.1105   62.0518 H   0  0  0  0  0  0  0  0  0  0  0  0
  134.6638  125.2687   62.4813 H   0  0  0  0  0  0  0  0  0  0  0  0
  134.0595  123.7907   60.3297 H   0  0  0  0  0  0  0  0  0  0  0  0
  132.0649  125.0623   58.1189 H   0  0  0  0  0  0  0  0  0  0  0  0
  133.2481  126.1305   58.9317 H   0  0  0  0  0  0  0  0  0  0  0  0
  134.4457  123.7380   59.4181 H   0  0  0  0  0  0  0  0  0  0  0  0
  133.5701  123.3065   57.9102 H   0  0  0  0  0  0  0  0  0  0  0  0
  134.7416  124.6682   57.9102 H   0  0  0  0  0  0  0  0  0  0  0  0
  134.5982  122.3353   62.5416 H   0  0  0  0  0  0  0  0  0  0  0  0
  133.1905  121.4651   63.2978 H   0  0  0  0  0  0  0  0  0  0  0  0
  134.1184  121.2945   60.3918 H   0  0  0  0  0  0  0  0  0  0  0  0
  134.1987  120.0065   61.6700 H   0  0  0  0  0  0  0  0  0  0  0  0
  132.3160  119.7002   60.0210 H   0  0  0  0  0  0  0  0  0  0  0  0
  131.7986  119.8444   61.7552 H   0  0  0  0  0  0  0  0  0  0  0  0
  131.6469  122.0080   59.6012 H   0  0  0  0  0  0  0  0  0  0  0  0
  130.2733  121.1228   60.3900 H   0  0  0  0  0  0  0  0  0  0  0  0
  130.6153  123.4416   61.2923 H   0  0  0  0  0  0  0  0  0  0  0  0
  130.7836  122.1247   62.5321 H   0  0  0  0  0  0  0  0  0  0  0  0
  1  2  2  0
  2  3  1  0
  3  4  1  0
  4  5  1  0
  5  6  1  0
  6  7  1  0
  7  8  1  0
  8  9  1  0
  9 10  2  0
  9 11  1  0
 11 12  1  0
 11 13  1  0
 13 14  1  0
 14 15  1  0
 15 16  1  0
 16 17  1  0
 17 18  1  0
 15 19  1  0
 19 20  1  0
 20 21  1  0
 21 22  1  0
 22 23  1  0
 23 24  1  0
 19 13  1  0
 24 19  1  0
  1 25  1  0
  1 26  1  0
  2 27  1  0
  3 28  1  0
  3 29  1  0
  4 30  1  0
  4 31  1  0
  6 32  1  0
  6 33  1  0
  7 34  1  0
  7 35  1  0
  8 36  1  0
 12 37  1  0
 12 38  1  0
 12 39  1  0
 13 40  1  1
 14 41  1  0
 14 42  1  0
 15 43  1  6
 17 44  1  0
 17 45  1  0
 18 46  1  0
 18 47  1  0
 18 48  1  0
 20 49  1  0
 20 50  1  0
 21 51  1  0
 21 52  1  0
 22 53  1  0
 22 54  1  0
 23 55  1  0
 23 56  1  0
 24 57  1  0
 24 58  1  0
M  END
>  <Binding energies>  (1) 
[-5.89]

>  <Ligand effiencies>  (1) 
[-0.23559999999999998]

>  <Interactions>  (1) 
["V-A:ILE:369:CG2:3237, V-A:ASP:366:CA:3210, V-A:GLY:454:CA:4049, V-B:GLU:543:C:9874, H-A:GLU:543:OE2:4910, V-B:HIS:456:CD2:9039, V-A:ILE:369:CB:3236, V-B:GLU:543:CB:9878, V-B:TYR:539:CE2:9848, V-A:TYR:484:CE2:4346, V-A:GLY:544:C:4912, V-B:GLU:543:CG:9879, V-A:ASP:366:CG:3213, V-A:HIS:456:CD2:4068, V-A:TYR:484:CZ:4347, V-A:GLU:543:CD:4908, V-B:HIS:456:CE1:9041, V-A:SER:385:C:3405, V-A:HIS:456:CE1:4070, V-A:ASP:366:C:3208, V-B:TYR:539:CD2:9846, V-A:SER:385:CB:3409, V-A:ASP:366:CB:3212, V-A:LEU:475:CD2:4259, V-A:ARG:545:CZ:4926, H-A:GLU:543:OE1:4909, V-A:SER:385:CA:3407, H-A:TYR:484:OH:4348"]

$$$$
ZINC1258278248-again1
     RDKit          3D

 40 41  0  0  0  0  0  0  0  0999 V2000
  129.4890  122.3820   64.7890 C   0  0  0  0  0  0  0  0  0  0  0  0
  129.8850  122.9700   63.4150 C   0  0  0  0  0  0  0  0  0  0  0  0
  129.7710  124.5160   63.4120 C   0  0  0  0  0  0  0  0  0  0  0  0
  131.3320  122.4960   63.0960 C   0  0  0  0  0  0  0  0  0  0  0  0
  131.7990  122.9200   61.6850 C   0  0  0  0  0  0  0  0  0  0  0  0
  130.8240  122.4220   60.5920 C   0  0  0  0  0  0  0  0  0  0  0  0
  129.3460  122.7670   60.9030 C   0  0  1  0  0  0  0  0  0  0  0  0
  128.4910  122.0660   59.9430 N   0  0  0  0  0  0  0  0  0  0  0  0
  127.6340  122.7510   59.0600 C   0  0  0  0  0  0  0  0  0  0  0  0
  127.6340  122.4260   57.7350 N   0  0  0  0  0  0  0  0  0  0  0  0
  126.7980  123.1020   56.9050 C   0  0  0  0  0  0  0  0  0  0  0  0
  125.9580  124.1050   57.3880 C   0  0  0  0  0  0  0  0  0  0  0  0
  125.9420  124.4400   58.7030 N   0  0  0  0  0  0  0  0  0  0  0  0
  126.7780  123.7630   59.5400 C   0  0  0  0  0  0  0  0  0  0  0  0
  126.6990  124.1770   61.0090 C   0  0  0  0  0  0  0  0  0  0  0  0
  126.0280  125.5370   61.2320 N   0  0  0  0  0  0  0  0  0  0  0  0
  128.9680  122.3200   62.3410 C   0  0  0  0  0  0  0  0  0  0  0  0
  129.9099  123.0070   65.5904 H   0  0  0  0  0  0  0  0  0  0  0  0
  128.3927  122.3620   64.8771 H   0  0  0  0  0  0  0  0  0  0  0  0
  129.8826  121.3586   64.8771 H   0  0  0  0  0  0  0  0  0  0  0  0
  129.7439  124.8837   64.4484 H   0  0  0  0  0  0  0  0  0  0  0  0
  130.6398  124.9467   62.8927 H   0  0  0  0  0  0  0  0  0  0  0  0
  128.8484  124.8146   62.8927 H   0  0  0  0  0  0  0  0  0  0  0  0
  132.0169  122.9305   63.8391 H   0  0  0  0  0  0  0  0  0  0  0  0
  131.3380  121.3966   63.1325 H   0  0  0  0  0  0  0  0  0  0  0  0
  131.8542  124.0178   61.6416 H   0  0  0  0  0  0  0  0  0  0  0  0
  132.7856  122.4707   61.4983 H   0  0  0  0  0  0  0  0  0  0  0  0
  131.1001  122.8895   59.6353 H   0  0  0  0  0  0  0  0  0  0  0  0
  130.9062  121.3259   60.5495 H   0  0  0  0  0  0  0  0  0  0  0  0
  129.2067  123.8554   60.8262 H   0  0  0  0  0  0  0  0  0  0  0  0
  128.2210  121.1260   60.1910 H   0  0  0  0  0  0  0  0  0  0  0  0
  126.7832  122.8541   55.8334 H   0  0  0  0  0  0  0  0  0  0  0  0
  125.2949  124.6354   56.6888 H   0  0  0  0  0  0  0  0  0  0  0  0
  126.1251  123.4133   61.5544 H   0  0  0  0  0  0  0  0  0  0  0  0
  127.7331  124.2658   61.3734 H   0  0  0  0  0  0  0  0  0  0  0  0
  126.7270  126.2390   61.4280 H   0  0  0  0  0  0  0  0  0  0  0  0
  125.3920  125.4860   62.0150 H   0  0  0  0  0  0  0  0  0  0  0  0
  125.5160  125.8130   60.4060 H   0  0  0  0  0  0  0  0  0  0  0  0
  127.9262  122.6112   62.5407 H   0  0  0  0  0  0  0  0  0  0  0  0
  129.0958  121.2291   62.4014 H   0  0  0  0  0  0  0  0  0  0  0  0
  1  2  1  0
  2  3  1  0
  2  4  1  0
  4  5  1  0
  5  6  1  0
  6  7  1  0
  7  8  1  0
  8  9  1  0
  9 10  2  0
 10 11  1  0
 11 12  2  0
 12 13  1  0
 13 14  2  0
 14 15  1  0
 15 16  1  0
  7 17  1  0
 17  2  1  0
 14  9  1  0
  1 18  1  0
  1 19  1  0
  1 20  1  0
  3 21  1  0
  3 22  1  0
  3 23  1  0
  4 24  1  0
  4 25  1  0
  5 26  1  0
  5 27  1  0
  6 28  1  0
  6 29  1  0
  7 30  1  1
  8 31  1  0
 11 32  1  0
 12 33  1  0
 15 34  1  0
 15 35  1  0
 16 36  1  0
 16 37  1  0
 16 38  1  0
 17 39  1  0
 17 40  1  0
M  CHG  1  16   1
M  END
>  <Binding energies>  (1) 
[-6.46]

>  <Ligand effiencies>  (1) 
[-0.3076190476190476]

>  <Interactions>  (1) 
["V-B:PRO:540:CA:9855, H-B:GLU:543:OE1:9881, V-B:TYR:539:CD2:9846, H-B:TYR:539:O:9840, V-B:PRO:540:C:9853, V-B:ALA:541:CB:9864, V-B:GLU:543:CD:9880, V-B:TYR:539:CE2:9848, V-B:PRO:540:CB:9857, V-A:TYR:484:CE2:4346, V-B:GLU:543:CG:9879, V-A:LEU:475:CD2:4259, V-B:ASP:366:CG:8184, H-B:ASP:366:OD1:8185, V-B:TYR:539:C:9839, V-B:PRO:540:N:9856"]

$$$$
ZINC12659311
     RDKit          3D

 28 29  0  0  0  0  0  0  0  0999 V2000
  129.2110  125.5720   62.8930 C   0  0  0  0  0  0  0  0  0  0  0  0
  129.8250  124.8770   63.9730 O   0  0  0  0  0  0  0  0  0  0  0  0
  129.7330  125.4000   65.2490 C   0  0  0  0  0  0  0  0  0  0  0  0
  129.1070  126.6390   65.3710 C   0  0  0  0  0  0  0  0  0  0  0  0
  128.9730  127.2460   66.6160 C   0  0  0  0  0  0  0  0  0  0  0  0
  129.4620  126.6240   67.7730 C   0  0  0  0  0  0  0  0  0  0  0  0
  129.3070  127.3090   69.1190 C   0  0  0  0  0  0  0  0  0  0  0  0
  129.3430  128.5400   69.1930 O   0  0  0  0  0  0  0  0  0  0  0  0
  129.1220  126.4920   70.1850 N   0  0  0  0  0  0  0  0  0  0  0  0
  128.9570  126.8640   71.5130 C   0  0  0  0  0  0  0  0  0  0  0  0
  128.9070  125.9440   72.4380 N   0  0  0  0  0  0  0  0  0  0  0  0
  128.7440  126.6270   73.6170 N   0  0  0  0  0  0  0  0  0  0  0  0
  128.7000  127.8860   73.2680 C   0  0  0  0  0  0  0  0  0  0  0  0
  128.5570  129.0120   74.2800 C   0  0  0  0  0  0  0  0  0  0  0  0
  129.0350  128.6720   75.4790 F   0  0  0  0  0  0  0  0  0  0  0  0
  129.2160  130.1020   73.8860 F   0  0  0  0  0  0  0  0  0  0  0  0
  127.2770  129.3470   74.4400 F   0  0  0  0  0  0  0  0  0  0  0  0
  128.8450  128.0880   71.9800 N   0  0  0  0  0  0  0  0  0  0  0  0
  130.0910  125.3740   67.6470 C   0  0  0  0  0  0  0  0  0  0  0  0
  130.2260  124.7690   66.4000 C   0  0  0  0  0  0  0  0  0  0  0  0
  128.5319  126.3407   63.2904 H   0  0  0  0  0  0  0  0  0  0  0  0
  129.9864  126.0508   62.2770 H   0  0  0  0  0  0  0  0  0  0  0  0
  128.6402  124.8615   62.2770 H   0  0  0  0  0  0  0  0  0  0  0  0
  128.7151  127.1420   64.4747 H   0  0  0  0  0  0  0  0  0  0  0  0
  128.4777  128.2251   66.6930 H   0  0  0  0  0  0  0  0  0  0  0  0
  129.0850  125.5000   70.0060 H   0  0  0  0  0  0  0  0  0  0  0  0
  130.4808  124.8680   68.5426 H   0  0  0  0  0  0  0  0  0  0  0  0
  130.7221  123.7907   66.3175 H   0  0  0  0  0  0  0  0  0  0  0  0
  1  2  1  0
  2  3  1  0
  3  4  2  0
  4  5  1  0
  5  6  2  0
  6  7  1  0
  7  8  2  0
  7  9  1  0
  9 10  1  0
 10 11  2  0
 11 12  1  0
 12 13  1  0
 13 14  1  0
 14 15  1  0
 14 16  1  0
 14 17  1  0
 13 18  2  0
  6 19  1  0
 19 20  2  0
 20  3  1  0
 18 10  1  0
  1 21  1  0
  1 22  1  0
  1 23  1  0
  4 24  1  0
  5 25  1  0
  9 26  1  0
 19 27  1  0
 20 28  1  0
M  CHG  1  12  -1
M  END
>  <Binding energies>  (1) 
[-4.79]

>  <Ligand effiencies>  (1) 
[-0.2280952380952381]

>  <Interactions>  (1) 
["V-A:HIS:456:CE1:4070, V-B:GLU:543:C:9874, V-B:HIS:456:CD2:9039, H-B:GLU:543:O:9875, V-A:LYS:547:CE:4950, V-B:GLU:543:CB:9878, H-B:LYS:547:NZ:9923, V-B:GLU:543:CD:9880, V-B:HIS:456:CB:9036, V-B:HIS:456:CG:9037, V-A:GLU:543:CD:4908, V-A:TYR:484:CE2:4346, V-A:TYR:484:CZ:4347, V-B:GLU:543:CG:9879, H-A:HIS:456:NE2:4071"]

$$$$
ZINC12767718
     RDKit          3D

 49 52  0  0  0  0  0  0  0  0999 V2000
  135.0660  124.0450   62.3780 C   0  0  0  0  0  0  0  0  0  0  0  0
  133.5950  124.4600   62.3470 C   0  0  0  0  0  0  0  0  0  0  0  0
  132.8870  124.7100   63.5350 C   0  0  0  0  0  0  0  0  0  0  0  0
  133.4840  124.5940   64.7650 O   0  0  0  0  0  0  0  0  0  0  0  0
  131.5460  125.0910   63.4850 C   0  0  0  0  0  0  0  0  0  0  0  0
  130.8940  125.2220   62.2630 C   0  0  0  0  0  0  0  0  0  0  0  0
  131.5750  124.9690   61.0660 C   0  0  0  0  0  0  0  0  0  0  0  0
  130.9520  125.0830   59.7240 C   0  0  0  0  0  0  0  0  0  0  0  0
  129.4790  125.4780   59.6130 C   0  0  0  0  0  0  0  0  0  0  0  0
  128.7580  124.9050   58.4670 N   0  0  0  0  0  0  0  0  0  0  0  0
  128.1310  125.9610   57.6730 C   0  0  0  0  0  0  0  0  0  0  0  0
  127.7510  123.9260   58.8880 C   0  0  0  0  0  0  0  0  0  0  0  0
  128.1100  123.2870   60.2140 C   0  0  0  0  0  0  0  0  0  0  0  0
  127.5690  123.3480   61.4900 C   0  0  0  0  0  0  0  0  0  0  0  0
  128.3200  122.4870   62.2900 C   0  0  0  0  0  0  0  0  0  0  0  0
  129.2790  121.9140   61.4700 C   0  0  0  0  0  0  0  0  0  0  0  0
  130.4070  120.9340   61.6900 C   0  0  2  0  0  0  0  0  0  0  0  0
  131.6900  120.9190   60.8960 C   0  0  0  0  0  0  0  0  0  0  0  0
  130.6320  119.8370   60.6900 C   0  0  1  0  0  0  0  0  0  0  0  0
  130.9310  118.4090   61.1640 C   0  0  0  0  0  0  0  0  0  0  0  0
  129.1510  122.4130   60.2130 O   0  0  0  0  0  0  0  0  0  0  0  0
  131.7000  124.8750   58.6190 C   0  0  0  0  0  0  0  0  0  0  0  0
  133.1150  124.4950   58.6910 C   0  0  0  0  0  0  0  0  0  0  0  0
  133.8710  124.2840   57.7460 O   0  0  0  0  0  0  0  0  0  0  0  0
  133.6580  124.3520   59.9560 O   0  0  0  0  0  0  0  0  0  0  0  0
  132.9290  124.5950   61.1170 C   0  0  0  0  0  0  0  0  0  0  0  0
  135.3986  123.9512   63.4223 H   0  0  0  0  0  0  0  0  0  0  0  0
  135.1851  123.0782   61.8670 H   0  0  0  0  0  0  0  0  0  0  0  0
  135.6728  124.8070   61.8670 H   0  0  0  0  0  0  0  0  0  0  0  0
  132.8750  124.3120   65.4510 H   0  0  0  0  0  0  0  0  0  0  0  0
  130.9998  125.2894   64.4190 H   0  0  0  0  0  0  0  0  0  0  0  0
  129.8372  125.5261   62.2370 H   0  0  0  0  0  0  0  0  0  0  0  0
  128.9699  125.1520   60.5319 H   0  0  0  0  0  0  0  0  0  0  0  0
  129.4674  126.5679   59.4647 H   0  0  0  0  0  0  0  0  0  0  0  0
  127.6863  126.7099   58.3449 H   0  0  0  0  0  0  0  0  0  0  0  0
  128.8898  126.4422   57.0385 H   0  0  0  0  0  0  0  0  0  0  0  0
  127.3453  125.5251   57.0385 H   0  0  0  0  0  0  0  0  0  0  0  0
  126.7804  124.4338   58.9883 H   0  0  0  0  0  0  0  0  0  0  0  0
  127.7046  123.1332   58.1269 H   0  0  0  0  0  0  0  0  0  0  0  0
  126.7117  123.9586   61.8097 H   0  0  0  0  0  0  0  0  0  0  0  0
  128.1784  122.2990   63.3645 H   0  0  0  0  0  0  0  0  0  0  0  0
  130.2028  121.0080   62.7684 H   0  0  0  0  0  0  0  0  0  0  0  0
  131.8656  121.6749   60.1164 H   0  0  0  0  0  0  0  0  0  0  0  0
  132.7621  120.9278   61.1420 H   0  0  0  0  0  0  0  0  0  0  0  0
  130.0630  119.4450   59.8340 H   0  0  0  0  0  0  0  0  0  0  0  0
  130.9368  118.3813   62.2636 H   0  0  0  0  0  0  0  0  0  0  0  0
  130.1562  117.7268   60.7841 H   0  0  0  0  0  0  0  0  0  0  0  0
  131.9144  118.0949   60.7841 H   0  0  0  0  0  0  0  0  0  0  0  0
  131.2320  124.9947   57.6307 H   0  0  0  0  0  0  0  0  0  0  0  0
  1  2  1  0
  2  3  2  0
  3  4  1  0
  3  5  1  0
  5  6  2  0
  6  7  1  0
  7  8  1  0
  8  9  1  0
  9 10  1  0
 10 11  1  0
 10 12  1  0
 12 13  1  0
 13 14  2  0
 14 15  1  0
 15 16  2  0
 16 17  1  0
 17 18  1  0
 18 19  1  0
 19 20  1  0
 16 21  1  0
  8 22  2  0
 22 23  1  0
 23 24  2  0
 23 25  1  0
 25 26  1  0
 26  2  1  0
 26  7  2  0
 21 13  1  0
 19 17  1  0
  1 27  1  0
  1 28  1  0
  1 29  1  0
  4 30  1  0
  5 31  1  0
  6 32  1  0
  9 33  1  0
  9 34  1  0
 11 35  1  0
 11 36  1  0
 11 37  1  0
 12 38  1  0
 12 39  1  0
 14 40  1  0
 15 41  1  0
 17 42  1  1
 18 43  1  0
 18 44  1  0
 19 45  1  6
 20 46  1  0
 20 47  1  0
 20 48  1  0
 22 49  1  0
M  END
>  <Binding energies>  (1) 
[-6.68]

>  <Ligand effiencies>  (1) 
[-0.2474074074074074]

>  <Interactions>  (1) 
["V-A:ASP:366:CA:3210, V-B:PRO:540:CA:9855, V-A:GLY:454:CA:4049, V-B:ALA:541:CB:9864, V-B:TYR:539:CE2:9848, V-A:LEU:475:CG:4257, V-B:TYR:539:C:9839, V-A:ASP:366:CG:3213, V-B:TYR:539:CZ:9849, H-A:ASN:370:N:3244, H-B:TYR:539:OH:9850, H-A:GLY:454:N:4050, V-A:GLY:453:C:4042, V-A:ILE:369:CD1:3239, V-B:TYR:539:CD2:9846, V-A:ASP:366:CB:3212, V-A:LEU:475:CD2:4259, H-A:ARG:545:NH2:4928, V-A:ARG:545:CZ:4926, V-A:GLY:453:CA:4044, H-A:ARG:545:NE:4924, V-B:ALA:541:CA:9862, V-A:HIS:383:NE2:3394, H-A:TYR:484:OH:4348"]

$$$$
ZINC1289045549
     RDKit          3D

 57 60  0  0  0  0  0  0  0  0999 V2000
  133.1960  123.2780   59.3820 C   0  0  0  0  0  0  0  0  0  0  0  0
  132.5770  122.7860   60.7140 C   0  0  0  0  0  0  0  0  0  0  0  0
  132.2290  121.2850   60.6180 C   0  0  0  0  0  0  0  0  0  0  0  0
  133.8010  123.0160   62.0280 S   0  0  0  0  0  0  0  0  0  0  0  0
  133.4150  124.7600   62.2930 C   0  0  0  0  0  0  0  0  0  0  0  0
  131.9990  125.0030   61.7430 C   0  0  0  0  0  0  0  0  0  0  0  0
  131.4060  123.6750   61.2130 C   0  0  1  0  0  0  0  0  0  0  0  0
  130.2910  123.8890   60.1550 C   0  0  0  0  0  0  0  0  0  0  0  0
  128.9690  123.5270   60.6790 N   0  0  0  0  0  0  0  0  0  0  0  0
  127.8730  123.0140   60.0090 C   0  0  0  0  0  0  0  0  0  0  0  0
  127.8230  122.7090   58.5100 C   0  0  0  0  0  0  0  0  0  0  0  0
  126.4490  122.8160   57.8160 C   0  0  0  0  0  0  0  0  0  0  0  0
  126.8010  124.2540   57.4130 C   0  0  0  0  0  0  0  0  0  0  0  0
  128.2720  123.8490   57.5760 C   0  0  0  0  0  0  0  0  0  0  0  0
  126.8680  122.8440   60.8400 N   0  0  0  0  0  0  0  0  0  0  0  0
  127.2880  123.2370   62.1050 N   0  0  0  0  0  0  0  0  0  0  0  0
  128.5300  123.6390   61.9850 C   0  0  0  0  0  0  0  0  0  0  0  0
  129.3410  124.0910   62.9870 N   0  0  0  0  0  0  0  0  0  0  0  0
  129.5180  123.1800   64.1350 C   0  0  0  0  0  0  0  0  0  0  0  0
  130.7070  123.5890   65.0290 C   0  0  0  0  0  0  0  0  0  0  0  0
  130.5280  125.0140   65.5770 C   0  0  0  0  0  0  0  0  0  0  0  0
  131.6950  125.4630   66.4790 C   0  0  0  0  0  0  0  0  0  0  0  0
  133.0310  125.2540   65.8930 C   0  0  0  0  0  0  0  0  0  0  0  0
  134.0790  125.0890   65.4320 N   0  0  0  0  0  0  0  0  0  0  0  0
  130.3100  125.9410   64.3710 C   0  0  0  0  0  0  0  0  0  0  0  0
  129.1310  125.4590   63.4970 C   0  0  0  0  0  0  0  0  0  0  0  0
  134.0407  123.9494   59.5961 H   0  0  0  0  0  0  0  0  0  0  0  0
  133.5523  122.4139   58.8020 H   0  0  0  0  0  0  0  0  0  0  0  0
  132.4346  123.8201   58.8020 H   0  0  0  0  0  0  0  0  0  0  0  0
  132.1318  120.8657   61.6303 H   0  0  0  0  0  0  0  0  0  0  0  0
  131.2787  121.1628   60.0777 H   0  0  0  0  0  0  0  0  0  0  0  0
  133.0286  120.7571   60.0777 H   0  0  0  0  0  0  0  0  0  0  0  0
  133.4469  124.9937   63.3674 H   0  0  0  0  0  0  0  0  0  0  0  0
  134.1471  125.4031   61.7826 H   0  0  0  0  0  0  0  0  0  0  0  0
  131.3576  125.3942   62.5464 H   0  0  0  0  0  0  0  0  0  0  0  0
  132.0495  125.7315   60.9204 H   0  0  0  0  0  0  0  0  0  0  0  0
  130.8880  123.1516   62.0302 H   0  0  0  0  0  0  0  0  0  0  0  0
  130.2792  124.9483   59.8588 H   0  0  0  0  0  0  0  0  0  0  0  0
  130.5074  123.2410   59.2929 H   0  0  0  0  0  0  0  0  0  0  0  0
  128.3604  121.7520   58.5827 H   0  0  0  0  0  0  0  0  0  0  0  0
  126.3136  122.1275   56.9688 H   0  0  0  0  0  0  0  0  0  0  0  0
  125.5197  122.5904   58.3596 H   0  0  0  0  0  0  0  0  0  0  0  0
  126.5094  124.5307   56.3891 H   0  0  0  0  0  0  0  0  0  0  0  0
  126.3745  125.1266   57.9294 H   0  0  0  0  0  0  0  0  0  0  0  0
  128.7548  123.5108   56.6473 H   0  0  0  0  0  0  0  0  0  0  0  0
  129.0287  124.5799   57.8972 H   0  0  0  0  0  0  0  0  0  0  0  0
  128.5997  123.1914   64.7405 H   0  0  0  0  0  0  0  0  0  0  0  0
  129.7252  122.1751   63.7384 H   0  0  0  0  0  0  0  0  0  0  0  0
  130.7794  122.8869   65.8727 H   0  0  0  0  0  0  0  0  0  0  0  0
  131.6238  123.5626   64.4217 H   0  0  0  0  0  0  0  0  0  0  0  0
  129.6530  125.0529   66.2424 H   0  0  0  0  0  0  0  0  0  0  0  0
  131.5750  126.5362   66.6885 H   0  0  0  0  0  0  0  0  0  0  0  0
  131.6486  124.8420   67.3857 H   0  0  0  0  0  0  0  0  0  0  0  0
  130.0946  126.9567   64.7343 H   0  0  0  0  0  0  0  0  0  0  0  0
  131.2229  125.9320   63.7573 H   0  0  0  0  0  0  0  0  0  0  0  0
  128.2119  125.4751   64.1012 H   0  0  0  0  0  0  0  0  0  0  0  0
  129.0522  126.1344   62.6323 H   0  0  0  0  0  0  0  0  0  0  0  0
  1  2  1  0
  2  3  1  0
  2  4  1  0
  4  5  1  0
  5  6  1  0
  6  7  1  0
  7  8  1  0
  8  9  1  0
  9 10  1  0
 10 11  1  0
 11 12  1  0
 12 13  1  0
 13 14  1  0
 10 15  2  0
 15 16  1  0
 16 17  2  0
 17 18  1  0
 18 19  1  0
 19 20  1  0
 20 21  1  0
 21 22  1  0
 22 23  1  0
 23 24  3  0
 21 25  1  0
 25 26  1  0
  7  2  1  0
 17  9  1  0
 26 18  1  0
 14 11  1  0
  1 27  1  0
  1 28  1  0
  1 29  1  0
  3 30  1  0
  3 31  1  0
  3 32  1  0
  5 33  1  0
  5 34  1  0
  6 35  1  0
  6 36  1  0
  7 37  1  1
  8 38  1  0
  8 39  1  0
 11 40  1  0
 12 41  1  0
 12 42  1  0
 13 43  1  0
 13 44  1  0
 14 45  1  0
 14 46  1  0
 19 47  1  0
 19 48  1  0
 20 49  1  0
 20 50  1  0
 21 51  1  0
 22 52  1  0
 22 53  1  0
 25 54  1  0
 25 55  1  0
 26 56  1  0
 26 57  1  0
M  END
>  <Binding energies>  (1) 
[-7.87]

>  <Ligand effiencies>  (1) 
[-0.3026923076923077]

>  <Interactions>  (1) 
["V-A:ILE:369:CG2:3237, V-B:PRO:540:CA:9855, V-A:ILE:369:CB:3236, V-B:ALA:541:CB:9864, H-A:ARG:545:NH1:4927, V-B:TYR:539:CE2:9848, V-A:TYR:484:CE2:4346, V-B:GLU:543:CG:9879, V-B:TYR:539:C:9839, V-A:ASP:366:CG:3213, V-B:TYR:539:CZ:9849, H-B:ALA:541:N:9863, V-A:TYR:484:CZ:4347, V-B:PRO:540:CB:9857, V-A:GLU:543:CD:4908, V-A:ARG:545:CG:4922, H-A:GLY:454:N:4050, V-B:PRO:540:N:9856, V-A:HIS:456:CE1:4070, V-B:TYR:539:CD2:9846, V-B:PRO:540:CD:9859, V-B:GLU:543:CD:9880, V-A:ARG:545:CD:4923, V-A:LEU:475:CD2:4259, H-A:ARG:545:NH2:4928, V-A:ARG:545:CZ:4926, H-A:ARG:545:NE:4924, V-B:TYR:539:CE1:9847, H-A:TYR:484:OH:4348"]

$$$$
ZINC1289254741
     RDKit          3D

 62 65  0  0  0  0  0  0  0  0999 V2000
  133.0760  125.4720   66.4300 C   0  0  0  0  0  0  0  0  0  0  0  0
  132.8890  124.9030   65.0440 C   0  0  0  0  0  0  0  0  0  0  0  0
  134.0220  124.8640   64.2860 O   0  0  0  0  0  0  0  0  0  0  0  0
  133.6610  124.3450   63.0830 C   0  0  0  0  0  0  0  0  0  0  0  0
  134.5160  124.1300   61.9970 C   0  0  0  0  0  0  0  0  0  0  0  0
  133.9480  123.5880   60.8450 C   0  0  0  0  0  0  0  0  0  0  0  0
  132.5890  123.2760   60.7870 C   0  0  0  0  0  0  0  0  0  0  0  0
  131.7440  123.4950   61.8780 C   0  0  0  0  0  0  0  0  0  0  0  0
  132.2820  124.0410   63.0580 C   0  0  0  0  0  0  0  0  0  0  0  0
  131.7810  124.3980   64.3600 C   0  0  0  0  0  0  0  0  0  0  0  0
  130.3550  124.2710   64.8750 C   0  0  0  0  0  0  0  0  0  0  0  0
  129.6890  125.5630   65.0590 N   0  0  0  0  0  0  0  0  0  0  0  0
  129.3230  126.1470   66.2580 C   0  0  0  0  0  0  0  0  0  0  0  0
  129.5350  125.5310   67.6320 C   0  0  0  0  0  0  0  0  0  0  0  0
  129.5890  126.5600   68.7550 C   0  0  0  0  0  0  0  0  0  0  0  0
  128.5300  126.6690   69.6650 C   0  0  0  0  0  0  0  0  0  0  0  0
  128.6140  127.6210   70.6840 C   0  0  0  0  0  0  0  0  0  0  0  0
  129.6810  128.4460   70.8370 N   0  0  0  0  0  0  0  0  0  0  0  0
  130.7040  128.3260   69.9530 C   0  0  0  0  0  0  0  0  0  0  0  0
  130.6990  127.4020   68.9060 C   0  0  0  0  0  0  0  0  0  0  0  0
  128.7610  127.3120   66.0630 N   0  0  0  0  0  0  0  0  0  0  0  0
  128.7360  127.5310   64.6940 N   0  0  0  0  0  0  0  0  0  0  0  0
  129.2680  126.4840   64.1080 C   0  0  0  0  0  0  0  0  0  0  0  0
  129.4030  126.3560   62.7370 N   0  0  0  0  0  0  0  0  0  0  0  0
  130.5230  126.9410   61.9970 C   0  0  0  0  0  0  0  0  0  0  0  0
  128.3460  125.7270   61.9280 C   0  0  1  0  0  0  0  0  0  0  0  0
  127.6790  126.7630   60.9930 C   0  0  0  0  0  0  0  0  0  0  0  0
  128.7710  124.4050   61.2070 C   0  0  2  0  0  0  0  0  0  0  0  0
  128.4050  124.3910   59.7060 C   0  0  0  0  0  0  0  0  0  0  0  0
  127.9570  122.8870   62.0400 S   0  0  0  0  0  0  0  0  0  0  0  0
  128.7960  121.3910   61.2500 C   0  0  0  0  0  0  0  0  0  0  0  0
  128.3270  122.8750   63.4600 O   0  0  0  0  0  0  0  0  0  0  0  0
  126.5420  122.8560   61.6590 O   0  0  0  0  0  0  0  0  0  0  0  0
  132.8242  124.7058   67.1780 H   0  0  0  0  0  0  0  0  0  0  0  0
  134.1233  125.7820   66.5609 H   0  0  0  0  0  0  0  0  0  0  0  0
  132.4168  126.3428   66.5609 H   0  0  0  0  0  0  0  0  0  0  0  0
  135.5866  124.3771   62.0495 H   0  0  0  0  0  0  0  0  0  0  0  0
  134.5825  123.4029   59.9657 H   0  0  0  0  0  0  0  0  0  0  0  0
  132.1741  122.8484   59.8623 H   0  0  0  0  0  0  0  0  0  0  0  0
  130.6747  123.2445   61.8154 H   0  0  0  0  0  0  0  0  0  0  0  0
  129.7743  123.6784   64.1528 H   0  0  0  0  0  0  0  0  0  0  0  0
  130.4063  123.7870   65.8615 H   0  0  0  0  0  0  0  0  0  0  0  0
  128.7060  124.8370   67.8346 H   0  0  0  0  0  0  0  0  0  0  0  0
  130.5092  125.0206   67.6122 H   0  0  0  0  0  0  0  0  0  0  0  0
  127.6483  126.0170   69.5790 H   0  0  0  0  0  0  0  0  0  0  0  0
  127.7782  127.7058   71.3940 H   0  0  0  0  0  0  0  0  0  0  0  0
  131.5763  128.9864   70.0665 H   0  0  0  0  0  0  0  0  0  0  0  0
  131.5505  127.3363   68.2127 H   0  0  0  0  0  0  0  0  0  0  0  0
  131.2680  127.3301   62.7066 H   0  0  0  0  0  0  0  0  0  0  0  0
  130.9870  126.1701   61.3642 H   0  0  0  0  0  0  0  0  0  0  0  0
  130.1554  127.7623   61.3642 H   0  0  0  0  0  0  0  0  0  0  0  0
  127.5791  125.3807   62.6364 H   0  0  0  0  0  0  0  0  0  0  0  0
  127.1815  127.5357   61.5975 H   0  0  0  0  0  0  0  0  0  0  0  0
  128.4457  127.2312   60.3583 H   0  0  0  0  0  0  0  0  0  0  0  0
  126.9354  126.2588   60.3583 H   0  0  0  0  0  0  0  0  0  0  0  0
  129.8663  124.3552   61.2953 H   0  0  0  0  0  0  0  0  0  0  0  0
  127.3113  124.3492   59.5956 H   0  0  0  0  0  0  0  0  0  0  0  0
  128.7872  125.3044   59.2269 H   0  0  0  0  0  0  0  0  0  0  0  0
  128.8559  123.5094   59.2269 H   0  0  0  0  0  0  0  0  0  0  0  0
  129.1711  120.7221   62.0386 H   0  0  0  0  0  0  0  0  0  0  0  0
  128.0694  120.8504   60.6256 H   0  0  0  0  0  0  0  0  0  0  0  0
  129.6362  121.7291   60.6256 H   0  0  0  0  0  0  0  0  0  0  0  0
  1  2  1  0
  2  3  1  0
  3  4  1  0
  4  5  2  0
  5  6  1  0
  6  7  2  0
  7  8  1  0
  8  9  2  0
  9 10  1  0
 10 11  1  0
 11 12  1  0
 12 13  1  0
 13 14  1  0
 14 15  1  0
 15 16  2  0
 16 17  1  0
 17 18  2  0
 18 19  1  0
 19 20  2  0
 13 21  2  0
 21 22  1  0
 22 23  2  0
 23 24  1  0
 24 25  1  0
 24 26  1  0
 26 27  1  0
 26 28  1  0
 28 29  1  0
 28 30  1  0
 30 31  1  0
 30 32  2  0
 30 33  2  0
 10  2  2  0
 23 12  1  0
  9  4  1  0
 20 15  1  0
  1 34  1  0
  1 35  1  0
  1 36  1  0
  5 37  1  0
  6 38  1  0
  7 39  1  0
  8 40  1  0
 11 41  1  0
 11 42  1  0
 14 43  1  0
 14 44  1  0
 16 45  1  0
 17 46  1  0
 19 47  1  0
 20 48  1  0
 25 49  1  0
 25 50  1  0
 25 51  1  0
 26 52  1  1
 27 53  1  0
 27 54  1  0
 27 55  1  0
 28 56  1  6
 29 57  1  0
 29 58  1  0
 29 59  1  0
 31 60  1  0
 31 61  1  0
 31 62  1  0
M  END
>  <Binding energies>  (1) 
[-7.89]

>  <Ligand effiencies>  (1) 
[-0.23909090909090908]

>  <Interactions>  (1) 
["V-A:ILE:369:CG2:3237, V-B:PRO:540:CA:9855, V-A:GLU:543:CA:4904, V-B:GLU:543:C:9874, V-B:HIS:456:CD2:9039, V-A:GLU:543:C:4902, V-B:GLU:543:CB:9878, V-B:ALA:541:CB:9864, H-A:ARG:545:NH1:4927, V-B:TYR:539:CE2:9848, V-B:GLU:543:CG:9879, V-A:GLY:544:C:4912, V-B:TYR:539:C:9839, H-B:ALA:541:N:9863, V-A:GLU:543:CD:4908, V-A:TYR:484:CZ:4347, V-A:ARG:545:CG:4922, H-A:GLY:454:N:4050, V-B:GLU:543:CA:9876, V-B:HIS:456:CE1:9041, V-A:ILE:369:CD1:3239, V-A:HIS:456:CE1:4070, V-B:GLU:543:CD:9880, V-A:ARG:545:CD:4923, H-A:ARG:545:NH2:4928, V-A:ARG:545:CZ:4926, V-A:GLU:543:CB:4906, V-A:GLY:453:CA:4044, H-A:ARG:545:NE:4924, V-B:PRO:540:C:9853, H-A:TYR:484:OH:4348"]

$$$$
ZINC1289972553
     RDKit          3D

 66 69  0  0  0  0  0  0  0  0999 V2000
  127.5490  122.3790   56.7190 C   0  0  0  0  0  0  0  0  0  0  0  0
  127.0420  123.2670   57.8390 C   0  0  0  0  0  0  0  0  0  0  0  0
  126.0920  124.2660   57.6100 C   0  0  0  0  0  0  0  0  0  0  0  0
  125.6800  125.0470   58.6900 C   0  0  0  0  0  0  0  0  0  0  0  0
  126.2230  124.8170   59.9550 C   0  0  0  0  0  0  0  0  0  0  0  0
  127.1760  123.7990   60.1160 C   0  0  0  0  0  0  0  0  0  0  0  0
  127.8040  123.5210   61.4570 C   0  0  0  0  0  0  0  0  0  0  0  0
  127.4720  122.4770   62.1840 N   0  0  0  0  0  0  0  0  0  0  0  0
  128.2200  122.5010   63.3540 N   0  0  0  0  0  0  0  0  0  0  0  0
  128.9840  123.5630   63.2950 C   0  0  0  0  0  0  0  0  0  0  0  0
  129.8640  123.9810   64.2550 N   0  0  0  0  0  0  0  0  0  0  0  0
  131.2400  124.2550   63.7910 C   0  0  0  0  0  0  0  0  0  0  0  0
  132.2620  124.4310   64.9450 C   0  0  0  0  0  0  0  0  0  0  0  0
  131.8100  125.4760   65.9800 C   0  0  0  0  0  0  0  0  0  0  0  0
  130.3490  125.2050   66.3690 C   0  0  1  0  0  0  0  0  0  0  0  0
  129.7510  126.1370   67.4550 C   0  0  0  0  0  0  0  0  0  0  0  0
  130.7290  127.0330   68.0860 N   0  0  0  0  0  0  0  0  0  0  0  0
  130.6100  127.5590   69.3730 C   0  0  0  0  0  0  0  0  0  0  0  0
  131.4580  128.2740   69.9020 O   0  0  0  0  0  0  0  0  0  0  0  0
  129.4440  127.1560   69.9720 O   0  0  0  0  0  0  0  0  0  0  0  0
  129.0490  127.4380   71.3250 C   0  0  0  0  0  0  0  0  0  0  0  0
  129.8470  126.5770   72.3360 C   0  0  0  0  0  0  0  0  0  0  0  0
  129.1850  128.9450   71.6470 C   0  0  0  0  0  0  0  0  0  0  0  0
  127.5630  127.0260   71.3740 C   0  0  0  0  0  0  0  0  0  0  0  0
  129.4960  125.1420   65.0820 C   0  0  0  0  0  0  0  0  0  0  0  0
  128.7780  124.2630   62.1190 N   0  0  0  0  0  0  0  0  0  0  0  0
  129.4500  125.5010   61.6930 C   0  0  0  0  0  0  0  0  0  0  0  0
  130.4130  125.3210   60.5290 C   0  0  0  0  0  0  0  0  0  0  0  0
  130.0980  125.4870   59.2650 N   0  0  0  0  0  0  0  0  0  0  0  0
  131.1540  125.2500   58.3970 N   0  0  0  0  0  0  0  0  0  0  0  0
  132.2630  124.9190   59.0110 C   0  0  0  0  0  0  0  0  0  0  0  0
  133.5530  124.6060   58.2900 C   0  0  0  0  0  0  0  0  0  0  0  0
  132.0810  124.8760   60.7410 S   0  0  0  0  0  0  0  0  0  0  0  0
  127.5750  123.0320   59.0640 N   0  0  0  0  0  0  0  0  0  0  0  0
  128.0513  121.4992   57.1475 H   0  0  0  0  0  0  0  0  0  0  0  0
  126.7017  122.0515   56.0986 H   0  0  0  0  0  0  0  0  0  0  0  0
  128.2617  122.9422   56.0986 H   0  0  0  0  0  0  0  0  0  0  0  0
  125.6796  124.4323   56.6039 H   0  0  0  0  0  0  0  0  0  0  0  0
  124.9313  125.8398   58.5454 H   0  0  0  0  0  0  0  0  0  0  0  0
  125.9080  125.4260   60.8152 H   0  0  0  0  0  0  0  0  0  0  0  0
  131.5682  123.4150   63.1611 H   0  0  0  0  0  0  0  0  0  0  0  0
  131.2105  125.2059   63.2389 H   0  0  0  0  0  0  0  0  0  0  0  0
  132.3898  123.4639   65.4532 H   0  0  0  0  0  0  0  0  0  0  0  0
  133.2056  124.7847   64.5039 H   0  0  0  0  0  0  0  0  0  0  0  0
  132.4472  125.4074   66.8740 H   0  0  0  0  0  0  0  0  0  0  0  0
  131.8958  126.4840   65.5481 H   0  0  0  0  0  0  0  0  0  0  0  0
  130.3310  124.2308   66.8794 H   0  0  0  0  0  0  0  0  0  0  0  0
  128.9695  126.7541   66.9875 H   0  0  0  0  0  0  0  0  0  0  0  0
  129.3610  125.4850   68.2505 H   0  0  0  0  0  0  0  0  0  0  0  0
  131.5630  127.2550   67.5630 H   0  0  0  0  0  0  0  0  0  0  0  0
  129.5758  126.8696   73.3611 H   0  0  0  0  0  0  0  0  0  0  0  0
  129.6072  125.5145   72.1824 H   0  0  0  0  0  0  0  0  0  0  0  0
  130.9246  126.7356   72.1824 H   0  0  0  0  0  0  0  0  0  0  0  0
  129.1978  129.0872   72.7377 H   0  0  0  0  0  0  0  0  0  0  0  0
  130.1214  129.3290   71.2161 H   0  0  0  0  0  0  0  0  0  0  0  0
  128.3324  129.4904   71.2161 H   0  0  0  0  0  0  0  0  0  0  0  0
  127.2416  126.9369   72.4222 H   0  0  0  0  0  0  0  0  0  0  0  0
  126.9540  127.7892   70.8674 H   0  0  0  0  0  0  0  0  0  0  0  0
  127.4339  126.0582   70.8674 H   0  0  0  0  0  0  0  0  0  0  0  0
  128.4343  125.0631   65.3588 H   0  0  0  0  0  0  0  0  0  0  0  0
  129.6781  126.0566   64.4986 H   0  0  0  0  0  0  0  0  0  0  0  0
  128.6790  126.2261   61.3935 H   0  0  0  0  0  0  0  0  0  0  0  0
  130.0501  125.8445   62.5485 H   0  0  0  0  0  0  0  0  0  0  0  0
  134.3472  124.4133   59.0263 H   0  0  0  0  0  0  0  0  0  0  0  0
  133.4138  123.7156   57.6593 H   0  0  0  0  0  0  0  0  0  0  0  0
  133.8374  125.4612   57.6593 H   0  0  0  0  0  0  0  0  0  0  0  0
  1  2  1  0
  2  3  2  0
  3  4  1  0
  4  5  2  0
  5  6  1  0
  6  7  1  0
  7  8  2  0
  8  9  1  0
  9 10  2  0
 10 11  1  0
 11 12  1  0
 12 13  1  0
 13 14  1  0
 14 15  1  0
 15 16  1  0
 16 17  1  0
 17 18  1  0
 18 19  2  0
 18 20  1  0
 20 21  1  0
 21 22  1  0
 21 23  1  0
 21 24  1  0
 15 25  1  0
 10 26  1  0
 26 27  1  0
 27 28  1  0
 28 29  2  0
 29 30  1  0
 30 31  2  0
 31 32  1  0
 31 33  1  0
  6 34  2  0
 34  2  1  0
 26  7  1  0
 33 28  1  0
 25 11  1  0
  1 35  1  0
  1 36  1  0
  1 37  1  0
  3 38  1  0
  4 39  1  0
  5 40  1  0
 12 41  1  0
 12 42  1  0
 13 43  1  0
 13 44  1  0
 14 45  1  0
 14 46  1  0
 15 47  1  1
 16 48  1  0
 16 49  1  0
 17 50  1  0
 22 51  1  0
 22 52  1  0
 22 53  1  0
 23 54  1  0
 23 55  1  0
 23 56  1  0
 24 57  1  0
 24 58  1  0
 24 59  1  0
 25 60  1  0
 25 61  1  0
 27 62  1  0
 27 63  1  0
 32 64  1  0
 32 65  1  0
 32 66  1  0
M  END
>  <Binding energies>  (1) 
[-7.96]

>  <Ligand effiencies>  (1) 
[-0.22742857142857142]

>  <Interactions>  (1) 
["V-B:TYR:539:CA:9841, V-A:ILE:369:CG2:3237, V-B:PRO:540:CA:9855, V-A:ASP:366:CA:3210, V-B:HIS:456:CD2:9039, H-A:GLU:543:OE2:4910, V-A:ILE:369:CB:3236, V-A:GLU:543:C:4902, V-B:GLU:543:CB:9878, V-B:TYR:539:CE2:9848, V-A:TYR:484:CE2:4346, V-B:GLU:543:CG:9879, V-B:TYR:539:C:9839, V-A:HIS:456:CD2:4068, H-A:ARG:545:N:4920, V-B:TYR:539:CZ:9849, H-B:TYR:539:OH:9850, H-B:ALA:541:N:9863, V-A:TYR:484:CZ:4347, V-A:GLU:543:CD:4908, V-B:HIS:456:CE1:9041, V-B:PRO:540:N:9856, V-A:HIS:456:CE1:4070, V-A:ASP:366:C:3208, V-B:GLY:544:C:9884, V-B:TYR:539:CD2:9846, V-B:GLU:543:CD:9880, V-A:ASP:366:CB:3212, V-B:TYR:539:CG:9844, V-A:GLU:543:CB:4906, V-B:TYR:539:CD1:9845, V-B:TYR:539:CE1:9847"]

$$$$
ZINC12908424
     RDKit          3D

 28 30  0  0  0  0  0  0  0  0999 V2000
  129.4690  130.5710   73.2800 C   0  0  0  0  0  0  0  0  0  0  0  0
  130.2030  129.3980   72.9420 O   0  0  0  0  0  0  0  0  0  0  0  0
  129.6800  128.5080   72.0190 C   0  0  0  0  0  0  0  0  0  0  0  0
  129.4980  128.8110   70.6580 C   0  0  0  0  0  0  0  0  0  0  0  0
  128.9450  127.8700   69.7840 C   0  0  0  0  0  0  0  0  0  0  0  0
  128.7600  128.1970   68.3770 C   0  0  0  0  0  0  0  0  0  0  0  0
  128.6140  128.4580   67.2590 N   0  0  0  0  0  0  0  0  0  0  0  0
  128.5640  126.6180   70.2660 C   0  0  0  0  0  0  0  0  0  0  0  0
  128.7410  126.3060   71.6120 C   0  0  0  0  0  0  0  0  0  0  0  0
  129.3060  127.2360   72.4860 C   0  0  0  0  0  0  0  0  0  0  0  0
  129.4460  126.8730   73.8080 O   0  0  0  0  0  0  0  0  0  0  0  0
  130.6340  126.3510   74.2750 C   0  0  0  0  0  0  0  0  0  0  0  0
  130.7140  125.1240   74.9560 C   0  0  0  0  0  0  0  0  0  0  0  0
  131.9470  124.6650   75.4310 C   0  0  0  0  0  0  0  0  0  0  0  0
  133.0730  125.4750   75.2130 C   0  0  0  0  0  0  0  0  0  0  0  0
  134.3860  125.3640   75.5180 N   0  0  0  0  0  0  0  0  0  0  0  0
  134.9730  126.5180   75.0230 N   0  0  0  0  0  0  0  0  0  0  0  0
  134.0370  127.3440   74.4140 N   0  0  0  0  0  0  0  0  0  0  0  0
  132.8620  126.6850   74.5370 N   0  0  0  0  0  0  0  0  0  0  0  0
  131.7020  127.1680   74.0670 N   0  0  0  0  0  0  0  0  0  0  0  0
  129.4106  130.6643   74.3745 H   0  0  0  0  0  0  0  0  0  0  0  0
  129.9762  131.4537   72.8633 H   0  0  0  0  0  0  0  0  0  0  0  0
  128.4534  130.5008   72.8633 H   0  0  0  0  0  0  0  0  0  0  0  0
  129.7940  129.7994   70.2766 H   0  0  0  0  0  0  0  0  0  0  0  0
  128.1236  125.8766   69.5831 H   0  0  0  0  0  0  0  0  0  0  0  0
  128.4332  125.3195   71.9888 H   0  0  0  0  0  0  0  0  0  0  0  0
  129.8059  124.5240   75.1156 H   0  0  0  0  0  0  0  0  0  0  0  0
  132.0316  123.7027   75.9572 H   0  0  0  0  0  0  0  0  0  0  0  0
  1  2  1  0
  2  3  1  0
  3  4  2  0
  4  5  1  0
  5  6  1  0
  6  7  3  0
  5  8  2  0
  8  9  1  0
  9 10  2  0
 10 11  1  0
 11 12  1  0
 12 13  1  0
 13 14  2  0
 14 15  1  0
 15 16  2  0
 16 17  1  0
 17 18  2  0
 18 19  1  0
 19 20  1  0
 10  3  1  0
 20 12  2  0
 19 15  1  0
  1 21  1  0
  1 22  1  0
  1 23  1  0
  4 24  1  0
  8 25  1  0
  9 26  1  0
 13 27  1  0
 14 28  1  0
M  END
>  <Binding energies>  (1) 
[-6.65]

>  <Ligand effiencies>  (1) 
[-0.3325]

>  <Interactions>  (1) 
["V-A:HIS:456:CE1:4070, V-B:HIS:456:CD2:9039, V-B:GLU:543:C:9874, V-A:GLU:543:C:4902, V-A:LYS:547:CE:4950, V-A:LYS:547:CG:4948, V-A:HIS:456:CB:4065, H-B:LYS:547:NZ:9923, H-A:VAL:457:N:4076, V-A:HIS:456:CG:4066, H-A:LYS:547:NZ:4951, V-B:HIS:456:CE1:9041, V-A:HIS:456:CD2:4068, V-A:GLU:543:CB:4906"]

$$$$
ZINC1291414944
     RDKit          3D

 70 73  0  0  0  0  0  0  0  0999 V2000
  131.8140  124.6740   63.8880 C   0  0  0  0  0  0  0  0  0  0  0  0
  130.3080  124.7770   63.5980 C   0  0  0  0  0  0  0  0  0  0  0  0
  129.6420  123.4860   63.0490 C   0  0  1  0  0  0  0  0  0  0  0  0
  129.1340  122.6090   64.2120 C   0  0  0  0  0  0  0  0  0  0  0  0
  128.5340  123.7070   61.9720 C   0  0  1  0  0  0  0  0  0  0  0  0
  129.0340  123.5240   60.5160 C   0  0  0  0  0  0  0  0  0  0  0  0
  130.4940  123.3930   60.4690 N   0  0  0  0  0  0  0  0  0  0  0  0
  131.2740  122.2600   60.6420 C   0  0  0  0  0  0  0  0  0  0  0  0
  130.8130  120.8940   60.9260 C   0  0  0  0  0  0  0  0  0  0  0  0
  129.6550  120.5320   61.6370 C   0  0  0  0  0  0  0  0  0  0  0  0
  129.4780  119.2340   61.7350 N   0  0  0  0  0  0  0  0  0  0  0  0
  130.5170  118.7090   61.0790 N   0  0  0  0  0  0  0  0  0  0  0  0
  130.6450  117.2660   60.9810 C   0  0  0  0  0  0  0  0  0  0  0  0
  131.3550  119.6660   60.5720 C   0  0  0  0  0  0  0  0  0  0  0  0
  132.5450  122.5570   60.4950 N   0  0  0  0  0  0  0  0  0  0  0  0
  132.6410  123.9150   60.2220 N   0  0  0  0  0  0  0  0  0  0  0  0
  131.4190  124.3880   60.2010 C   0  0  0  0  0  0  0  0  0  0  0  0
  131.0540  125.6800   59.9340 N   0  0  0  0  0  0  0  0  0  0  0  0
  131.5110  126.2230   58.6470 C   0  0  0  0  0  0  0  0  0  0  0  0
  130.8080  127.5500   58.2780 C   0  0  0  0  0  0  0  0  0  0  0  0
  130.9860  128.6050   59.2860 N   0  0  0  0  0  0  0  0  0  0  0  0
  130.6410  129.9090   58.9370 C   0  0  0  0  0  0  0  0  0  0  0  0
  129.3570  130.3910   59.2380 C   0  0  0  0  0  0  0  0  0  0  0  0
  128.9510  131.6590   58.8380 C   0  0  0  0  0  0  0  0  0  0  0  0
  129.8180  132.4680   58.1140 C   0  0  0  0  0  0  0  0  0  0  0  0
  131.0990  132.0180   57.7880 C   0  0  0  0  0  0  0  0  0  0  0  0
  132.0010  132.9390   56.9750 C   0  0  0  0  0  0  0  0  0  0  0  0
  131.5190  130.7350   58.1940 C   0  0  0  0  0  0  0  0  0  0  0  0
  132.9440  130.2750   57.8660 C   0  0  0  0  0  0  0  0  0  0  0  0
  130.6670  128.0560   60.6130 C   0  0  0  0  0  0  0  0  0  0  0  0
  131.3970  126.7260   60.9070 C   0  0  0  0  0  0  0  0  0  0  0  0
  127.4290  122.8230   62.1700 O   0  0  0  0  0  0  0  0  0  0  0  0
  126.1940  123.2270   61.5950 C   0  0  0  0  0  0  0  0  0  0  0  0
  131.9780  124.6628   64.9756 H   0  0  0  0  0  0  0  0  0  0  0  0
  132.2096  123.7467   63.4479 H   0  0  0  0  0  0  0  0  0  0  0  0
  132.3321  125.5388   63.4479 H   0  0  0  0  0  0  0  0  0  0  0  0
  129.8003  125.0477   64.5355 H   0  0  0  0  0  0  0  0  0  0  0  0
  130.2048  125.5308   62.8036 H   0  0  0  0  0  0  0  0  0  0  0  0
  130.4386  122.9582   62.5041 H   0  0  0  0  0  0  0  0  0  0  0  0
  129.4051  123.0771   65.1698 H   0  0  0  0  0  0  0  0  0  0  0  0
  128.0401  122.5124   64.1478 H   0  0  0  0  0  0  0  0  0  0  0  0
  129.5945  121.6121   64.1478 H   0  0  0  0  0  0  0  0  0  0  0  0
  128.2251  124.7545   62.1039 H   0  0  0  0  0  0  0  0  0  0  0  0
  128.5786  122.6171   60.0916 H   0  0  0  0  0  0  0  0  0  0  0  0
  128.7451  124.4118   59.9344 H   0  0  0  0  0  0  0  0  0  0  0  0
  128.9617  121.2675   62.0709 H   0  0  0  0  0  0  0  0  0  0  0  0
  130.6835  116.8319   61.9910 H   0  0  0  0  0  0  0  0  0  0  0  0
  129.7796  116.8571   60.4389 H   0  0  0  0  0  0  0  0  0  0  0  0
  131.5689  117.0158   60.4389 H   0  0  0  0  0  0  0  0  0  0  0  0
  132.2770  119.4952   59.9969 H   0  0  0  0  0  0  0  0  0  0  0  0
  132.5946  126.4028   58.7054 H   0  0  0  0  0  0  0  0  0  0  0  0
  131.2632  125.4869   57.8680 H   0  0  0  0  0  0  0  0  0  0  0  0
  131.2185  127.9080   57.3223 H   0  0  0  0  0  0  0  0  0  0  0  0
  129.7301  127.3398   58.2149 H   0  0  0  0  0  0  0  0  0  0  0  0
  128.6593  129.7534   59.8008 H   0  0  0  0  0  0  0  0  0  0  0  0
  127.9445  132.0214   59.0944 H   0  0  0  0  0  0  0  0  0  0  0  0
  129.4932  133.4695   57.7955 H   0  0  0  0  0  0  0  0  0  0  0  0
  132.6051  133.5558   57.6566 H   0  0  0  0  0  0  0  0  0  0  0  0
  132.6661  132.3345   56.3408 H   0  0  0  0  0  0  0  0  0  0  0  0
  131.3828  133.5914   56.3408 H   0  0  0  0  0  0  0  0  0  0  0  0
  133.4960  130.0968   58.8006 H   0  0  0  0  0  0  0  0  0  0  0  0
  132.9034  129.3443   57.2810 H   0  0  0  0  0  0  0  0  0  0  0  0
  133.4552  131.0538   57.2810 H   0  0  0  0  0  0  0  0  0  0  0  0
  130.9587  128.7923   61.3764 H   0  0  0  0  0  0  0  0  0  0  0  0
  129.5866  127.8501   60.6331 H   0  0  0  0  0  0  0  0  0  0  0  0
  132.4823  126.9017   60.8710 H   0  0  0  0  0  0  0  0  0  0  0  0
  131.0814  126.3794   61.9021 H   0  0  0  0  0  0  0  0  0  0  0  0
  125.4764  123.4617   62.3950 H   0  0  0  0  0  0  0  0  0  0  0  0
  126.3540  124.1196   60.9724 H   0  0  0  0  0  0  0  0  0  0  0  0
  125.7955  122.4124   60.9724 H   0  0  0  0  0  0  0  0  0  0  0  0
  1  2  1  0
  2  3  1  0
  3  4  1  0
  3  5  1  0
  5  6  1  0
  6  7  1  0
  7  8  1  0
  8  9  1  0
  9 10  1  0
 10 11  2  0
 11 12  1  0
 12 13  1  0
 12 14  1  0
  8 15  2  0
 15 16  1  0
 16 17  2  0
 17 18  1  0
 18 19  1  0
 19 20  1  0
 20 21  1  0
 21 22  1  0
 22 23  2  0
 23 24  1  0
 24 25  2  0
 25 26  1  0
 26 27  1  0
 26 28  2  0
 28 29  1  0
 21 30  1  0
 30 31  1  0
  5 32  1  0
 32 33  1  0
 17  7  1  0
 31 18  1  0
 14  9  2  0
 28 22  1  0
  1 34  1  0
  1 35  1  0
  1 36  1  0
  2 37  1  0
  2 38  1  0
  3 39  1  6
  4 40  1  0
  4 41  1  0
  4 42  1  0
  5 43  1  6
  6 44  1  0
  6 45  1  0
 10 46  1  0
 13 47  1  0
 13 48  1  0
 13 49  1  0
 14 50  1  0
 19 51  1  0
 19 52  1  0
 20 53  1  0
 20 54  1  0
 23 55  1  0
 24 56  1  0
 25 57  1  0
 27 58  1  0
 27 59  1  0
 27 60  1  0
 29 61  1  0
 29 62  1  0
 29 63  1  0
 30 64  1  0
 30 65  1  0
 31 66  1  0
 31 67  1  0
 33 68  1  0
 33 69  1  0
 33 70  1  0
M  END
>  <Binding energies>  (1) 
[-6.96]

>  <Ligand effiencies>  (1) 
[-0.2109090909090909]

>  <Interactions>  (1) 
["V-B:PRO:540:CA:9855, V-A:PRO:540:CG:4886, V-A:ILE:538:CB:4862, V-B:ALA:541:CB:9864, V-B:TYR:539:CE2:9848, V-B:GLU:543:CG:9879, V-A:ASP:366:CG:3213, V-A:LEU:363:CD1:3189, V-A:TYR:531:CE2:4793, H-B:ALA:541:N:9863, V-A:HIS:383:CE1:3393, V-B:PRO:540:CB:9857, V-A:PRO:482:CB:4326, V-B:TYR:539:CD2:9846, V-A:TYR:531:CZ:4794, V-A:ASP:366:CB:3212, V-A:LEU:475:CD2:4259, V-A:PRO:540:N:4884, V-A:PRO:540:CB:4885, V-A:PRO:540:CA:4883, V-B:PRO:540:C:9853, V-A:PRO:540:CD:4887, V-A:HIS:383:NE2:3394"]

$$$$
ZINC12972083
     RDKit          3D

 42 44  0  0  0  0  0  0  0  0999 V2000
  130.4860  128.0160   70.2910 C   0  0  0  0  0  0  0  0  0  0  0  0
  130.2780  127.6950   69.0060 C   0  0  0  0  0  0  0  0  0  0  0  0
  128.9370  127.2630   68.4340 C   0  0  0  0  0  0  0  0  0  0  0  0
  128.8530  127.3930   66.9580 N   0  0  0  0  0  0  0  0  0  0  0  0
  129.4540  126.4240   66.1350 C   0  0  0  0  0  0  0  0  0  0  0  0
  130.3330  124.9840   66.8220 S   0  0  0  0  0  0  0  0  0  0  0  0
  132.0840  125.4720   66.6950 C   0  0  0  0  0  0  0  0  0  0  0  0
  132.6680  125.1490   65.3410 C   0  0  0  0  0  0  0  0  0  0  0  0
  132.0330  124.9840   64.2150 N   0  0  0  0  0  0  0  0  0  0  0  0
  133.0160  124.7340   63.3670 C   0  0  0  0  0  0  0  0  0  0  0  0
  132.7400  124.4650   61.8740 C   0  0  0  0  0  0  0  0  0  0  0  0
  132.0610  125.6740   61.1770 C   0  0  0  0  0  0  0  0  0  0  0  0
  134.0740  124.1740   61.1450 C   0  0  0  0  0  0  0  0  0  0  0  0
  131.8060  123.2400   61.7310 C   0  0  0  0  0  0  0  0  0  0  0  0
  134.2290  124.7290   63.8890 N   0  0  0  0  0  0  0  0  0  0  0  0
  134.0100  125.0110   65.2350 O   0  0  0  0  0  0  0  0  0  0  0  0
  129.3950  126.5240   64.8480 N   0  0  0  0  0  0  0  0  0  0  0  0
  128.7330  127.5850   64.3220 C   0  0  0  0  0  0  0  0  0  0  0  0
  128.5910  127.8330   62.6130 S   0  0  0  0  0  0  0  0  0  0  0  0
  127.6730  129.2820   62.8920 C   0  0  0  0  0  0  0  0  0  0  0  0
  127.4950  129.5430   64.2470 C   0  0  0  0  0  0  0  0  0  0  0  0
  128.1030  128.5780   65.0630 C   0  0  0  0  0  0  0  0  0  0  0  0
  128.1310  128.5090   66.5220 C   0  0  0  0  0  0  0  0  0  0  0  0
  127.5900  129.3260   67.2750 O   0  0  0  0  0  0  0  0  0  0  0  0
  131.4886  128.3195   70.6268 H   0  0  0  0  0  0  0  0  0  0  0  0
  129.6541  127.9759   71.0095 H   0  0  0  0  0  0  0  0  0  0  0  0
  131.1355  127.7477   68.3190 H   0  0  0  0  0  0  0  0  0  0  0  0
  128.7679  126.2093   68.7008 H   0  0  0  0  0  0  0  0  0  0  0  0
  128.1733  127.9295   68.8613 H   0  0  0  0  0  0  0  0  0  0  0  0
  132.1632  126.5558   66.8658 H   0  0  0  0  0  0  0  0  0  0  0  0
  132.6485  124.9059   67.4506 H   0  0  0  0  0  0  0  0  0  0  0  0
  131.6725  126.3657   61.9389 H   0  0  0  0  0  0  0  0  0  0  0  0
  132.7977  126.1964   60.5490 H   0  0  0  0  0  0  0  0  0  0  0  0
  131.2315  125.3168   60.5490 H   0  0  0  0  0  0  0  0  0  0  0  0
  134.8673  124.0010   61.8872 H   0  0  0  0  0  0  0  0  0  0  0  0
  133.9600  123.2796   60.5149 H   0  0  0  0  0  0  0  0  0  0  0  0
  134.3428  125.0346   60.5149 H   0  0  0  0  0  0  0  0  0  0  0  0
  131.5265  122.8734   62.7298 H   0  0  0  0  0  0  0  0  0  0  0  0
  130.8995  123.5323   61.1808 H   0  0  0  0  0  0  0  0  0  0  0  0
  132.3279  122.4432   61.1808 H   0  0  0  0  0  0  0  0  0  0  0  0
  127.2775  129.9205   62.0883 H   0  0  0  0  0  0  0  0  0  0  0  0
  126.9394  130.4095   64.6349 H   0  0  0  0  0  0  0  0  0  0  0  0
  1  2  2  0
  2  3  1  0
  3  4  1  0
  4  5  1  0
  5  6  1  0
  6  7  1  0
  7  8  1  0
  8  9  2  0
  9 10  1  0
 10 11  1  0
 11 12  1  0
 11 13  1  0
 11 14  1  0
 10 15  2  0
 15 16  1  0
  5 17  2  0
 17 18  1  0
 18 19  1  0
 19 20  1  0
 20 21  2  0
 21 22  1  0
 22 23  1  0
 23 24  2  0
 23  4  1  0
 16  8  1  0
 22 18  2  0
  1 25  1  0
  1 26  1  0
  2 27  1  0
  3 28  1  0
  3 29  1  0
  7 30  1  0
  7 31  1  0
 12 32  1  0
 12 33  1  0
 12 34  1  0
 13 35  1  0
 13 36  1  0
 13 37  1  0
 14 38  1  0
 14 39  1  0
 14 40  1  0
 20 41  1  0
 21 42  1  0
M  END
>  <Binding energies>  (1) 
[-6.81]

>  <Ligand effiencies>  (1) 
[-0.28375]

>  <Interactions>  (1) 
["V-A:GLU:543:C:4902, V-B:GLU:543:CB:9878, H-A:ARG:545:NH1:4927, V-B:GLU:543:CG:9879, V-A:GLY:544:C:4912, V-A:ASP:366:CG:3213, V-A:GLU:543:CD:4908, V-A:TYR:484:CZ:4347, H-B:TYR:484:OH:9319, V-A:ARG:545:CG:4922, H-A:GLY:454:N:4050, V-A:HIS:456:CE1:4070, V-A:ILE:369:CD1:3239, V-A:GLU:543:CG:4907, V-B:GLU:543:CD:9880, H-A:ARG:545:NH2:4928, V-A:ARG:545:CZ:4926, V-A:GLU:543:CB:4906, H-A:ARG:545:NE:4924, H-A:TYR:484:OH:4348"]

$$$$
ZINC12982420
     RDKit          3D

 30 32  0  0  0  0  0  0  0  0999 V2000
  134.0210  124.3870   59.9360 C   0  0  0  0  0  0  0  0  0  0  0  0
  133.4380  123.0560   61.0280 S   0  0  0  0  0  0  0  0  0  0  0  0
  133.3430  123.8660   62.5980 C   0  0  0  0  0  0  0  0  0  0  0  0
  134.3600  124.4960   63.1310 N   0  0  0  0  0  0  0  0  0  0  0  0
  134.0760  125.0620   64.3660 N   0  0  0  0  0  0  0  0  0  0  0  0
  132.8450  124.8560   64.7650 C   0  0  0  0  0  0  0  0  0  0  0  0
  132.2260  125.4690   66.3050 S   0  0  0  0  0  0  0  0  0  0  0  0
  130.4240  125.4160   66.0620 C   0  0  0  0  0  0  0  0  0  0  0  0
  129.6870  126.2270   67.1000 C   0  0  0  0  0  0  0  0  0  0  0  0
  129.8590  126.2200   68.3930 N   0  0  0  0  0  0  0  0  0  0  0  0
  128.9570  127.0970   68.8050 C   0  0  0  0  0  0  0  0  0  0  0  0
  128.7700  127.4350   70.2610 C   0  0  0  0  0  0  0  0  0  0  0  0
  129.7230  128.2060   70.9420 C   0  0  0  0  0  0  0  0  0  0  0  0
  129.5510  128.5200   72.2880 C   0  0  0  0  0  0  0  0  0  0  0  0
  128.4230  128.0620   72.9650 C   0  0  0  0  0  0  0  0  0  0  0  0
  128.2100  128.4500   74.6340 Cl  0  0  0  0  0  0  0  0  0  0  0  0
  127.4670  127.2950   72.3050 C   0  0  0  0  0  0  0  0  0  0  0  0
  127.6400  126.9830   70.9590 C   0  0  0  0  0  0  0  0  0  0  0  0
  128.2320  127.6530   67.8540 N   0  0  0  0  0  0  0  0  0  0  0  0
  128.7160  127.0740   66.6840 O   0  0  0  0  0  0  0  0  0  0  0  0
  131.9220  123.9280   63.6100 S   0  0  0  0  0  0  0  0  0  0  0  0
  134.3886  125.2262   60.5448 H   0  0  0  0  0  0  0  0  0  0  0  0
  134.8363  124.0098   59.3012 H   0  0  0  0  0  0  0  0  0  0  0  0
  133.1909  124.7305   59.3012 H   0  0  0  0  0  0  0  0  0  0  0  0
  130.1885  125.8175   65.0653 H   0  0  0  0  0  0  0  0  0  0  0  0
  130.1000  124.3691   66.1573 H   0  0  0  0  0  0  0  0  0  0  0  0
  130.6148  128.5662   70.4081 H   0  0  0  0  0  0  0  0  0  0  0  0
  130.3025  129.1270   72.8141 H   0  0  0  0  0  0  0  0  0  0  0  0
  126.5781  126.9367   72.8448 H   0  0  0  0  0  0  0  0  0  0  0  0
  126.8840  126.3768   70.4384 H   0  0  0  0  0  0  0  0  0  0  0  0
  1  2  1  0
  2  3  1  0
  3  4  2  0
  4  5  1  0
  5  6  2  0
  6  7  1  0
  7  8  1  0
  8  9  1  0
  9 10  2  0
 10 11  1  0
 11 12  1  0
 12 13  2  0
 13 14  1  0
 14 15  2  0
 15 16  1  0
 15 17  1  0
 17 18  2  0
 11 19  2  0
 19 20  1  0
  6 21  1  0
 21  3  1  0
 20  9  1  0
 18 12  1  0
  1 22  1  0
  1 23  1  0
  1 24  1  0
  8 25  1  0
  8 26  1  0
 13 27  1  0
 14 28  1  0
 17 29  1  0
 18 30  1  0
M  END
>  <Binding energies>  (1) 
[-7.11]

>  <Ligand effiencies>  (1) 
[-0.3385714285714286]

>  <Interactions>  (1) 
["V-A:ILE:369:CG2:3237, V-A:ASP:366:CA:3210, V-B:HIS:456:CD2:9039, V-A:ILE:369:CB:3236, V-A:GLU:543:C:4902, V-B:GLU:543:C:9874, V-B:GLU:543:CB:9878, H-A:ARG:545:NH1:4927, V-B:GLU:543:CG:9879, V-A:ASP:366:CG:3213, V-A:GLU:543:CD:4908, V-B:HIS:456:CE1:9041, H-A:GLY:454:N:4050, V-A:ILE:369:CD1:3239, V-A:HIS:456:CE1:4070, V-B:GLY:544:C:9884, V-B:HIS:456:CG:9037, V-A:ASP:366:CB:3212, H-A:ARG:545:NH2:4928, V-A:ARG:545:CZ:4926, H-A:ARG:545:NE:4924, H-A:TYR:484:OH:4348"]

$$$$
ZINC1299908787
     RDKit          3D

 67 70  0  0  0  0  0  0  0  0999 V2000
  127.8110  128.4660   57.6770 C   0  0  0  0  0  0  0  0  0  0  0  0
  129.1820  128.0940   57.7600 O   0  0  0  0  0  0  0  0  0  0  0  0
  130.1570  129.0760   57.7520 C   0  0  0  0  0  0  0  0  0  0  0  0
  129.9220  130.4000   57.3370 C   0  0  0  0  0  0  0  0  0  0  0  0
  130.9410  131.3510   57.3740 C   0  0  0  0  0  0  0  0  0  0  0  0
  130.6290  132.9710   56.8680 Cl  0  0  0  0  0  0  0  0  0  0  0  0
  132.2100  130.9940   57.8190 C   0  0  0  0  0  0  0  0  0  0  0  0
  132.4590  129.6870   58.2310 C   0  0  0  0  0  0  0  0  0  0  0  0
  131.4410  128.7280   58.2060 C   0  0  0  0  0  0  0  0  0  0  0  0
  131.7560  127.3430   58.6670 C   0  0  0  0  0  0  0  0  0  0  0  0
  132.3120  126.4390   57.8960 N   0  0  0  0  0  0  0  0  0  0  0  0
  132.4760  125.2840   58.6520 N   0  0  0  0  0  0  0  0  0  0  0  0
  132.0070  125.5400   59.8480 C   0  0  0  0  0  0  0  0  0  0  0  0
  131.9700  124.6640   60.8970 N   0  0  0  0  0  0  0  0  0  0  0  0
  131.1510  123.4540   60.8040 C   0  0  0  0  0  0  0  0  0  0  0  0
  130.8420  122.8300   62.1850 C   0  0  0  0  0  0  0  0  0  0  0  0
  131.7470  123.2450   63.2770 N   0  0  0  0  0  0  0  0  0  0  0  0
  131.3690  122.8090   64.6250 C   0  0  0  0  0  0  0  0  0  0  0  0
  132.8810  123.9850   63.0930 C   0  0  0  0  0  0  0  0  0  0  0  0
  133.6010  124.3690   64.0180 O   0  0  0  0  0  0  0  0  0  0  0  0
  133.2170  124.3570   61.6220 C   0  0  1  0  0  0  0  0  0  0  0  0
  134.1380  123.2840   61.0230 C   0  0  0  0  0  0  0  0  0  0  0  0
  131.5110  126.8300   59.9300 N   0  0  0  0  0  0  0  0  0  0  0  0
  130.8160  127.4720   61.0610 C   0  0  0  0  0  0  0  0  0  0  0  0
  129.3770  126.9280   61.3440 C   0  0  1  0  0  0  0  0  0  0  0  0
  129.0850  126.1370   60.1810 O   0  0  0  0  0  0  0  0  0  0  0  0
  128.0280  125.1820   60.2120 C   0  0  0  0  0  0  0  0  0  0  0  0
  129.4170  126.0700   62.6540 C   0  0  0  0  0  0  0  0  0  0  0  0
  129.4740  126.9220   63.9410 C   0  0  0  0  0  0  0  0  0  0  0  0
  128.3040  127.9260   64.0010 C   0  0  1  0  0  0  0  0  0  0  0  0
  128.3020  128.7160   65.3220 C   0  0  0  0  0  0  0  0  0  0  0  0
  128.4090  128.8610   62.7830 C   0  0  0  0  0  0  0  0  0  0  0  0
  128.3220  128.0770   61.4550 C   0  0  0  0  0  0  0  0  0  0  0  0
  127.3994  128.5777   58.6909 H   0  0  0  0  0  0  0  0  0  0  0  0
  127.7221  129.4207   57.1380 H   0  0  0  0  0  0  0  0  0  0  0  0
  127.2517  127.6871   57.1380 H   0  0  0  0  0  0  0  0  0  0  0  0
  128.9225  130.6881   56.9792 H   0  0  0  0  0  0  0  0  0  0  0  0
  133.0154  131.7428   57.8454 H   0  0  0  0  0  0  0  0  0  0  0  0
  133.4642  129.4067   58.5788 H   0  0  0  0  0  0  0  0  0  0  0  0
  130.2002  123.7103   60.3138 H   0  0  0  0  0  0  0  0  0  0  0  0
  131.7218  122.7121   60.2263 H   0  0  0  0  0  0  0  0  0  0  0  0
  129.8169  123.1138   62.4655 H   0  0  0  0  0  0  0  0  0  0  0  0
  130.9798  121.7449   62.0686 H   0  0  0  0  0  0  0  0  0  0  0  0
  131.8990  123.4203   65.3702 H   0  0  0  0  0  0  0  0  0  0  0  0
  130.2836  122.9281   64.7580 H   0  0  0  0  0  0  0  0  0  0  0  0
  131.6408  121.7514   64.7580 H   0  0  0  0  0  0  0  0  0  0  0  0
  133.8037  125.2838   61.5396 H   0  0  0  0  0  0  0  0  0  0  0  0
  134.6214  122.7209   61.8349 H   0  0  0  0  0  0  0  0  0  0  0  0
  133.5446  122.5963   60.4025 H   0  0  0  0  0  0  0  0  0  0  0  0
  134.9077  123.7663   60.4025 H   0  0  0  0  0  0  0  0  0  0  0  0
  131.4229  127.3200   61.9658 H   0  0  0  0  0  0  0  0  0  0  0  0
  130.6975  128.5313   60.7892 H   0  0  0  0  0  0  0  0  0  0  0  0
  127.7727  124.9514   61.2568 H   0  0  0  0  0  0  0  0  0  0  0  0
  127.1455  125.5951   59.7016 H   0  0  0  0  0  0  0  0  0  0  0  0
  128.3497  124.2623   59.7016 H   0  0  0  0  0  0  0  0  0  0  0  0
  128.5130  125.4443   62.6893 H   0  0  0  0  0  0  0  0  0  0  0  0
  130.3369  125.4678   62.6210 H   0  0  0  0  0  0  0  0  0  0  0  0
  129.4195  126.2557   64.8145 H   0  0  0  0  0  0  0  0  0  0  0  0
  130.4173  127.4878   63.9413 H   0  0  0  0  0  0  0  0  0  0  0  0
  127.3486  127.3818   63.9686 H   0  0  0  0  0  0  0  0  0  0  0  0
  128.3038  128.0141   66.1690 H   0  0  0  0  0  0  0  0  0  0  0  0
  129.1985  129.3515   65.3705 H   0  0  0  0  0  0  0  0  0  0  0  0
  127.4023  129.3470   65.3705 H   0  0  0  0  0  0  0  0  0  0  0  0
  127.5868  129.5907   62.8212 H   0  0  0  0  0  0  0  0  0  0  0  0
  129.3852  129.3666   62.8206 H   0  0  0  0  0  0  0  0  0  0  0  0
  127.3170  127.6370   61.3746 H   0  0  0  0  0  0  0  0  0  0  0  0
  128.5294  128.7889   60.6425 H   0  0  0  0  0  0  0  0  0  0  0  0
  1  2  1  0
  2  3  1  0
  3  4  2  0
  4  5  1  0
  5  6  1  0
  5  7  2  0
  7  8  1  0
  8  9  2  0
  9 10  1  0
 10 11  2  0
 11 12  1  0
 12 13  2  0
 13 14  1  0
 14 15  1  0
 15 16  1  0
 16 17  1  0
 17 18  1  0
 17 19  1  0
 19 20  2  0
 19 21  1  0
 21 22  1  0
 13 23  1  0
 23 24  1  0
 24 25  1  0
 25 26  1  1
 26 27  1  0
 25 28  1  0
 28 29  1  0
 29 30  1  0
 30 31  1  0
 30 32  1  0
 32 33  1  0
  9  3  1  0
 23 10  1  0
 33 25  1  0
 21 14  1  0
  1 34  1  0
  1 35  1  0
  1 36  1  0
  4 37  1  0
  7 38  1  0
  8 39  1  0
 15 40  1  0
 15 41  1  0
 16 42  1  0
 16 43  1  0
 18 44  1  0
 18 45  1  0
 18 46  1  0
 21 47  1  1
 22 48  1  0
 22 49  1  0
 22 50  1  0
 24 51  1  0
 24 52  1  0
 27 53  1  0
 27 54  1  0
 27 55  1  0
 28 56  1  0
 28 57  1  0
 29 58  1  0
 29 59  1  0
 30 60  1  1
 31 61  1  0
 31 62  1  0
 31 63  1  0
 32 64  1  0
 32 65  1  0
 33 66  1  0
 33 67  1  0
M  END
>  <Binding energies>  (1) 
[-6.0]

>  <Ligand effiencies>  (1) 
[-0.18181818181818182]

>  <Interactions>  (1) 
["V-A:ILE:369:CG2:3237, V-A:ILE:369:CB:3236, V-A:ILE:538:CB:4862, H-A:TYR:531:OH:4795, V-B:TYR:539:CE2:9848, V-A:TYR:484:CE2:4346, V-A:ASP:366:CG:3213, V-A:LEU:363:CD1:3189, V-A:ILE:538:CA:4860, V-A:TYR:531:CE2:4793, H-B:TYR:539:OH:9850, V-A:GLU:543:CD:4908, V-A:TYR:484:CZ:4347, H-A:GLY:454:N:4050, V-A:ILE:369:CD1:3239, V-A:TYR:531:CZ:4794, V-A:GLU:543:CG:4907, V-A:MET:535:CE:4835, V-B:GLU:543:CD:9880, V-A:ASP:366:CB:3212, V-A:LEU:475:CD2:4259, H-A:ARG:545:NH2:4928, V-A:PRO:540:N:4884, V-A:PRO:540:CD:4887, H-A:TYR:484:OH:4348"]

$$$$
ZINC1300733753
     RDKit          3D

 55 56  0  0  0  0  0  0  0  0999 V2000
  127.8860  122.7880   58.0020 C   0  0  0  0  0  0  0  0  0  0  0  0
  127.9180  122.9590   59.2110 C   0  0  0  0  0  0  0  0  0  0  0  0
  127.9690  123.1870   60.6620 C   0  0  0  0  0  0  0  0  0  0  0  0
  129.3420  122.2840   61.4330 S   0  0  0  0  0  0  0  0  0  0  0  0
  129.6550  123.3010   62.9090 C   0  0  0  0  0  0  0  0  0  0  0  0
  130.7350  122.8040   63.8930 C   0  0  0  0  0  0  0  0  0  0  0  0
  131.9640  123.6030   63.8390 N   0  0  0  0  0  0  0  0  0  0  0  0
  132.9670  123.4900   62.8930 C   0  0  0  0  0  0  0  0  0  0  0  0
  132.9320  122.5390   61.7010 C   0  0  2  0  0  0  0  0  0  0  0  0
  134.3130  121.9480   61.3620 C   0  0  0  0  0  0  0  0  0  0  0  0
  132.3910  123.2820   60.5450 N   0  0  0  0  0  0  0  0  0  0  0  0
  133.4190  124.3140   59.5550 S   0  0  0  0  0  0  0  0  0  0  0  0
  132.3570  125.8420   59.2590 C   0  0  0  0  0  0  0  0  0  0  0  0
  134.5810  124.7080   60.3590 O   0  0  0  0  0  0  0  0  0  0  0  0
  133.5980  123.6390   58.2650 O   0  0  0  0  0  0  0  0  0  0  0  0
  133.9490  124.3190   63.1500 N   0  0  0  0  0  0  0  0  0  0  0  0
  133.6270  124.9870   64.3220 N   0  0  0  0  0  0  0  0  0  0  0  0
  132.4540  124.5600   64.7230 C   0  0  0  0  0  0  0  0  0  0  0  0
  131.8440  124.9980   65.8880 N   0  0  0  0  0  0  0  0  0  0  0  0
  132.5090  125.8390   66.8820 C   0  0  0  0  0  0  0  0  0  0  0  0
  130.4000  124.8020   66.0870 C   0  0  0  0  0  0  0  0  0  0  0  0
  129.6530  126.0280   66.6190 C   0  0  0  0  0  0  0  0  0  0  0  0
  129.5490  126.1860   68.0060 C   0  0  0  0  0  0  0  0  0  0  0  0
  128.8910  127.2870   68.5500 C   0  0  0  0  0  0  0  0  0  0  0  0
  128.3330  128.2490   67.7090 C   0  0  0  0  0  0  0  0  0  0  0  0
  128.4370  128.1080   66.3270 C   0  0  0  0  0  0  0  0  0  0  0  0
  129.0950  127.0050   65.7700 C   0  0  0  0  0  0  0  0  0  0  0  0
  129.2010  126.9060   64.2550 C   0  0  0  0  0  0  0  0  0  0  0  0
  127.8572  122.6340   56.9132 H   0  0  0  0  0  0  0  0  0  0  0  0
  128.0993  124.2630   60.8498 H   0  0  0  0  0  0  0  0  0  0  0  0
  127.0284  122.8225   61.1006 H   0  0  0  0  0  0  0  0  0  0  0  0
  129.9570  124.3008   62.5638 H   0  0  0  0  0  0  0  0  0  0  0  0
  128.7153  123.2683   63.4798 H   0  0  0  0  0  0  0  0  0  0  0  0
  130.3290  122.8522   64.9142 H   0  0  0  0  0  0  0  0  0  0  0  0
  130.9962  121.7747   63.6060 H   0  0  0  0  0  0  0  0  0  0  0  0
  132.2928  121.6811   61.9567 H   0  0  0  0  0  0  0  0  0  0  0  0
  134.8517  121.7175   62.2929 H   0  0  0  0  0  0  0  0  0  0  0  0
  134.1835  121.0265   60.7755 H   0  0  0  0  0  0  0  0  0  0  0  0
  134.8902  122.6779   60.7755 H   0  0  0  0  0  0  0  0  0  0  0  0
  131.3820  123.4540   60.5300 H   0  0  0  0  0  0  0  0  0  0  0  0
  132.0574  126.2731   60.2256 H   0  0  0  0  0  0  0  0  0  0  0  0
  132.9343  126.5850   58.6893 H   0  0  0  0  0  0  0  0  0  0  0  0
  131.4593  125.5599   58.6893 H   0  0  0  0  0  0  0  0  0  0  0  0
  132.2384  125.4968   67.8918 H   0  0  0  0  0  0  0  0  0  0  0  0
  133.5990  125.7694   66.7510 H   0  0  0  0  0  0  0  0  0  0  0  0
  132.1899  126.8835   66.7510 H   0  0  0  0  0  0  0  0  0  0  0  0
  129.9559  124.5238   65.1198 H   0  0  0  0  0  0  0  0  0  0  0  0
  130.2964  124.0196   66.8533 H   0  0  0  0  0  0  0  0  0  0  0  0
  129.9918  125.4324   68.6739 H   0  0  0  0  0  0  0  0  0  0  0  0
  128.8118  127.3972   69.6416 H   0  0  0  0  0  0  0  0  0  0  0  0
  127.8114  129.1181   68.1362 H   0  0  0  0  0  0  0  0  0  0  0  0
  127.9979  128.8707   65.6671 H   0  0  0  0  0  0  0  0  0  0  0  0
  129.9810  126.1775   63.9888 H   0  0  0  0  0  0  0  0  0  0  0  0
  128.2363  126.5781   63.8406 H   0  0  0  0  0  0  0  0  0  0  0  0
  129.4623  127.8909   63.8406 H   0  0  0  0  0  0  0  0  0  0  0  0
  1  2  3  0
  2  3  1  0
  3  4  1  0
  4  5  1  0
  5  6  1  0
  6  7  1  0
  7  8  1  0
  8  9  1  0
  9 10  1  0
  9 11  1  0
 11 12  1  0
 12 13  1  0
 12 14  2  0
 12 15  2  0
  8 16  2  0
 16 17  1  0
 17 18  2  0
 18 19  1  0
 19 20  1  0
 19 21  1  0
 21 22  1  0
 22 23  2  0
 23 24  1  0
 24 25  2  0
 25 26  1  0
 26 27  2  0
 27 28  1  0
 18  7  1  0
 27 22  1  0
  1 29  1  0
  3 30  1  0
  3 31  1  0
  5 32  1  0
  5 33  1  0
  6 34  1  0
  6 35  1  0
  9 36  1  1
 10 37  1  0
 10 38  1  0
 10 39  1  0
 11 40  1  0
 13 41  1  0
 13 42  1  0
 13 43  1  0
 20 44  1  0
 20 45  1  0
 20 46  1  0
 21 47  1  0
 21 48  1  0
 23 49  1  0
 24 50  1  0
 25 51  1  0
 26 52  1  0
 28 53  1  0
 28 54  1  0
 28 55  1  0
M  END
>  <Binding energies>  (1) 
[-7.52]

>  <Ligand effiencies>  (1) 
[-0.2593103448275862]

>  <Interactions>  (1) 
["V-A:ILE:369:CG2:3237, V-A:ASP:366:CA:3210, V-B:PRO:540:CA:9855, V-B:GLU:543:CB:9878, H-A:ARG:545:NH1:4927, V-B:TYR:539:CE2:9848, V-A:TYR:484:CE2:4346, V-B:GLU:543:CG:9879, V-B:TYR:539:C:9839, V-A:ASP:366:CG:3213, V-B:TYR:539:CZ:9849, H-B:TYR:539:OH:9850, V-A:TYR:484:CZ:4347, V-A:GLU:543:CD:4908, V-A:ARG:545:CG:4922, H-A:GLY:454:N:4050, V-A:SER:385:C:3405, V-B:HIS:456:CE1:9041, V-B:PRO:540:N:9856, V-A:ILE:369:CD1:3239, V-A:HIS:456:CE1:4070, V-B:TYR:539:CD2:9846, V-A:GLU:543:CG:4907, V-B:GLU:543:CD:9880, V-A:ASP:366:CB:3212, V-A:ARG:545:CD:4923, V-A:LEU:475:CD2:4259, H-A:ARG:545:NH2:4928, V-A:ARG:545:CZ:4926, V-B:TYR:539:CG:9844, V-A:GLU:543:CB:4906, H-A:ARG:545:NE:4924, H-A:TYR:484:OH:4348"]

$$$$
ZINC1300733753-again1
     RDKit          3D

 56 57  0  0  0  0  0  0  0  0999 V2000
  129.1000  133.0280   57.8330 C   0  0  0  0  0  0  0  0  0  0  0  0
  130.2770  132.9140   57.5270 C   0  0  0  0  0  0  0  0  0  0  0  0
  131.6990  132.7910   57.1710 C   0  0  0  0  0  0  0  0  0  0  0  0
  132.1160  131.1640   56.4700 S   0  0  0  0  0  0  0  0  0  0  0  0
  132.1250  130.0760   57.9320 C   0  0  0  0  0  0  0  0  0  0  0  0
  130.9350  129.1160   58.1680 C   0  0  0  0  0  0  0  0  0  0  0  0
  130.9550  128.4630   59.4860 N   0  0  0  0  0  0  0  0  0  0  0  0
  131.2530  127.1250   59.8190 C   0  0  0  0  0  0  0  0  0  0  0  0
  131.5500  126.0950   58.9350 N   0  0  0  0  0  0  0  0  0  0  0  0
  132.4620  126.2290   57.7990 C   0  0  0  0  0  0  0  0  0  0  0  0
  131.2400  124.7020   59.3030 C   0  0  0  0  0  0  0  0  0  0  0  0
  132.2100  124.0830   60.3130 C   0  0  0  0  0  0  0  0  0  0  0  0
  133.4420  124.7150   60.5210 C   0  0  0  0  0  0  0  0  0  0  0  0
  134.3610  124.2000   61.4320 C   0  0  0  0  0  0  0  0  0  0  0  0
  134.0550  123.0480   62.1530 C   0  0  0  0  0  0  0  0  0  0  0  0
  132.8270  122.4160   61.9640 C   0  0  0  0  0  0  0  0  0  0  0  0
  131.8970  122.9230   61.0500 C   0  0  0  0  0  0  0  0  0  0  0  0
  130.5640  122.2080   60.8930 C   0  0  0  0  0  0  0  0  0  0  0  0
  131.2380  126.9310   61.1240 N   0  0  0  0  0  0  0  0  0  0  0  0
  130.9160  128.1250   61.6460 N   0  0  0  0  0  0  0  0  0  0  0  0
  130.7270  129.0990   60.7010 C   0  0  0  0  0  0  0  0  0  0  0  0
  130.3290  130.5330   61.0240 C   0  0  2  0  0  0  0  0  0  0  0  0
  131.5100  131.5170   60.9760 C   0  0  0  0  0  0  0  0  0  0  0  0
  129.6520  130.5840   62.3340 N   0  0  0  0  0  0  0  0  0  0  0  0
  129.4220  132.1010   63.1930 S   0  0  0  0  0  0  0  0  0  0  0  0
  128.7270  133.2470   61.8670 C   0  0  0  0  0  0  0  0  0  0  0  0
  128.3900  131.8880   64.2150 O   0  0  0  0  0  0  0  0  0  0  0  0
  130.7510  132.5950   63.5620 O   0  0  0  0  0  0  0  0  0  0  0  0
  128.0400  133.1307   58.1086 H   0  0  0  0  0  0  0  0  0  0  0  0
  131.9433  133.5657   56.4293 H   0  0  0  0  0  0  0  0  0  0  0  0
  132.2822  132.9110   58.0959 H   0  0  0  0  0  0  0  0  0  0  0  0
  133.0301  129.4546   57.8642 H   0  0  0  0  0  0  0  0  0  0  0  0
  132.0670  130.7761   58.7784 H   0  0  0  0  0  0  0  0  0  0  0  0
  130.0017  129.6914   58.0795 H   0  0  0  0  0  0  0  0  0  0  0  0
  131.0098  128.3194   57.4132 H   0  0  0  0  0  0  0  0  0  0  0  0
  133.4873  126.3797   58.1677 H   0  0  0  0  0  0  0  0  0  0  0  0
  132.4228  125.3154   57.1875 H   0  0  0  0  0  0  0  0  0  0  0  0
  132.1616  127.0927   57.1875 H   0  0  0  0  0  0  0  0  0  0  0  0
  130.2296  124.6777   59.7372 H   0  0  0  0  0  0  0  0  0  0  0  0
  131.3255  124.1077   58.3813 H   0  0  0  0  0  0  0  0  0  0  0  0
  133.6867  125.6282   59.9587 H   0  0  0  0  0  0  0  0  0  0  0  0
  135.3279  124.7026   61.5821 H   0  0  0  0  0  0  0  0  0  0  0  0
  134.7812  122.6378   62.8702 H   0  0  0  0  0  0  0  0  0  0  0  0
  132.5868  121.5097   62.5392 H   0  0  0  0  0  0  0  0  0  0  0  0
  130.1483  121.9850   61.8867 H   0  0  0  0  0  0  0  0  0  0  0  0
  129.8652  122.8524   60.3394 H   0  0  0  0  0  0  0  0  0  0  0  0
  130.7143  121.2694   60.3394 H   0  0  0  0  0  0  0  0  0  0  0  0
  130.8270  128.2650   62.6430 H   0  0  0  0  0  0  0  0  0  0  0  0
  129.6328  130.8592   60.2373 H   0  0  0  0  0  0  0  0  0  0  0  0
  131.8164  131.7723   62.0011 H   0  0  0  0  0  0  0  0  0  0  0  0
  132.3541  131.0512   60.4463 H   0  0  0  0  0  0  0  0  0  0  0  0
  131.2042  132.4313   60.4463 H   0  0  0  0  0  0  0  0  0  0  0  0
  129.5300  129.7070   62.8470 H   0  0  0  0  0  0  0  0  0  0  0  0
  128.2136  134.0935   62.3464 H   0  0  0  0  0  0  0  0  0  0  0  0
  129.5489  133.6238   61.2405 H   0  0  0  0  0  0  0  0  0  0  0  0
  128.0130  132.6923   61.2405 H   0  0  0  0  0  0  0  0  0  0  0  0
  1  2  3  0
  2  3  1  0
  3  4  1  0
  4  5  1  0
  5  6  1  0
  6  7  1  0
  7  8  1  0
  8  9  1  0
  9 10  1  0
  9 11  1  0
 11 12  1  0
 12 13  2  0
 13 14  1  0
 14 15  2  0
 15 16  1  0
 16 17  2  0
 17 18  1  0
  8 19  2  0
 19 20  1  0
 20 21  2  0
 21 22  1  0
 22 23  1  0
 22 24  1  0
 24 25  1  0
 25 26  1  0
 25 27  2  0
 25 28  2  0
 21  7  1  0
 17 12  1  0
  1 29  1  0
  3 30  1  0
  3 31  1  0
  5 32  1  0
  5 33  1  0
  6 34  1  0
  6 35  1  0
 10 36  1  0
 10 37  1  0
 10 38  1  0
 11 39  1  0
 11 40  1  0
 13 41  1  0
 14 42  1  0
 15 43  1  0
 16 44  1  0
 18 45  1  0
 18 46  1  0
 18 47  1  0
 20 48  1  0
 22 49  1  6
 23 50  1  0
 23 51  1  0
 23 52  1  0
 24 53  1  0
 26 54  1  0
 26 55  1  0
 26 56  1  0
M  CHG  1  20   1
M  END
>  <Binding energies>  (1) 
[-8.12]

>  <Ligand effiencies>  (1) 
[-0.27066666666666667]

>  <Interactions>  (1) 
["V-A:ASP:366:CA:3210, V-A:GLY:454:CA:4049, H-A:GLU:543:OE2:4910, H-A:ALA:541:N:4891, V-A:PRO:540:C:4881, V-A:ILE:538:CB:4862, H-A:TYR:531:OH:4795, V-B:TYR:539:CE2:9848, V-A:ASP:366:CG:3213, V-A:LEU:363:CD1:3189, V-A:TYR:539:CD1:4873, V-B:TYR:539:CZ:9849, V-A:TYR:531:CE2:4793, V-A:ALA:541:CB:4892, V-A:GLU:543:CD:4908, H-B:TYR:484:OH:9319, V-A:ILE:369:CD1:3239, V-B:TYR:539:CD2:9846, V-A:TYR:531:CZ:4794, V-A:GLU:543:CG:4907, V-A:TYR:539:C:4867, V-A:ASP:366:CB:3212, V-A:LEU:475:CD2:4259, H-A:ARG:545:NH2:4928, H-A:GLU:543:OE1:4909, V-A:PRO:540:N:4884, V-A:TYR:539:CG:4872, V-A:PRO:540:CB:4885, V-A:PRO:540:CA:4883, V-A:PRO:540:CD:4887, V-A:TYR:539:CE1:4875"]

$$$$
ZINC1301330343
     RDKit          3D

 49 50  0  0  0  0  0  0  0  0999 V2000
  125.8500  122.3780   56.4280 C   0  0  0  0  0  0  0  0  0  0  0  0
  127.1170  122.6510   56.7760 C   0  0  0  0  0  0  0  0  0  0  0  0
  127.6970  122.4310   58.1620 C   0  0  0  0  0  0  0  0  0  0  0  0
  127.4310  123.4700   59.1570 N   0  0  0  0  0  0  0  0  0  0  0  0
  127.5520  123.2240   60.5120 C   0  0  0  0  0  0  0  0  0  0  0  0
  126.5390  123.0970   61.3350 N   0  0  0  0  0  0  0  0  0  0  0  0
  127.0590  122.8480   62.5980 N   0  0  0  0  0  0  0  0  0  0  0  0
  128.3640  122.8230   62.4890 C   0  0  0  0  0  0  0  0  0  0  0  0
  129.3050  122.5690   63.6630 C   0  0  0  0  0  0  0  0  0  0  0  0
  130.0620  123.8240   64.1990 C   0  0  0  0  0  0  0  0  0  0  0  0
  129.8840  123.8860   65.7340 C   0  0  0  0  0  0  0  0  0  0  0  0
  131.5740  123.7500   63.8830 C   0  0  0  0  0  0  0  0  0  0  0  0
  129.4840  125.1230   63.5870 C   0  0  0  0  0  0  0  0  0  0  0  0
  128.7530  123.0510   61.1830 N   0  0  0  0  0  0  0  0  0  0  0  0
  130.1090  123.0150   60.6330 C   0  0  0  0  0  0  0  0  0  0  0  0
  130.6850  124.4380   60.5240 C   0  0  0  0  0  0  0  0  0  0  0  0
  131.6080  124.7850   58.9980 S   0  0  0  0  0  0  0  0  0  0  0  0
  133.2150  124.0050   59.3300 C   0  0  0  0  0  0  0  0  0  0  0  0
  133.9440  123.9720   58.2160 F   0  0  0  0  0  0  0  0  0  0  0  0
  133.8960  124.6890   60.2490 F   0  0  0  0  0  0  0  0  0  0  0  0
  133.0590  122.7530   59.7570 F   0  0  0  0  0  0  0  0  0  0  0  0
  127.0250  124.7580   58.5910 C   0  0  0  0  0  0  0  0  0  0  0  0
  125.5420  125.0880   58.5990 C   0  0  0  0  0  0  0  0  0  0  0  0
  126.4620  125.8040   59.5400 C   0  0  0  0  0  0  0  0  0  0  0  0
  125.5091  122.5675   55.3995 H   0  0  0  0  0  0  0  0  0  0  0  0
  125.1523  121.9648   57.1713 H   0  0  0  0  0  0  0  0  0  0  0  0
  127.7821  123.0631   56.0029 H   0  0  0  0  0  0  0  0  0  0  0  0
  127.2875  121.4862   58.5488 H   0  0  0  0  0  0  0  0  0  0  0  0
  128.7882  122.4355   58.0233 H   0  0  0  0  0  0  0  0  0  0  0  0
  128.7110  122.1524   64.4898 H   0  0  0  0  0  0  0  0  0  0  0  0
  130.0805  121.8855   63.2869 H   0  0  0  0  0  0  0  0  0  0  0  0
  130.8139  123.5621   66.2243 H   0  0  0  0  0  0  0  0  0  0  0  0
  129.6512  124.9182   66.0347 H   0  0  0  0  0  0  0  0  0  0  0  0
  129.0603  123.2218   66.0347 H   0  0  0  0  0  0  0  0  0  0  0  0
  132.1442  123.7221   64.8233 H   0  0  0  0  0  0  0  0  0  0  0  0
  131.7828  122.8406   63.3005 H   0  0  0  0  0  0  0  0  0  0  0  0
  131.8706  124.6347   63.3005 H   0  0  0  0  0  0  0  0  0  0  0  0
  129.1804  125.8053   64.3946 H   0  0  0  0  0  0  0  0  0  0  0  0
  130.2510  125.6085   62.9657 H   0  0  0  0  0  0  0  0  0  0  0  0
  128.6099  124.8783   62.9657 H   0  0  0  0  0  0  0  0  0  0  0  0
  130.7515  122.4141   61.2934 H   0  0  0  0  0  0  0  0  0  0  0  0
  130.0735  122.5679   59.6286 H   0  0  0  0  0  0  0  0  0  0  0  0
  129.8481  125.1493   60.5846 H   0  0  0  0  0  0  0  0  0  0  0  0
  131.4078  124.5383   61.3471 H   0  0  0  0  0  0  0  0  0  0  0  0
  127.8223  124.7389   57.8334 H   0  0  0  0  0  0  0  0  0  0  0  0
  125.0956  125.6281   57.7511 H   0  0  0  0  0  0  0  0  0  0  0  0
  124.6184  124.5018   58.7144 H   0  0  0  0  0  0  0  0  0  0  0  0
  126.6898  126.8684   59.3812 H   0  0  0  0  0  0  0  0  0  0  0  0
  126.4906  125.9585   60.6287 H   0  0  0  0  0  0  0  0  0  0  0  0
  1  2  2  0
  2  3  1  0
  3  4  1  0
  4  5  1  0
  5  6  2  0
  6  7  1  0
  7  8  2  0
  8  9  1  0
  9 10  1  0
 10 11  1  0
 10 12  1  0
 10 13  1  0
  8 14  1  0
 14 15  1  0
 15 16  1  0
 16 17  1  0
 17 18  1  0
 18 19  1  0
 18 20  1  0
 18 21  1  0
  4 22  1  0
 22 23  1  0
 23 24  1  0
 14  5  1  0
 24 22  1  0
  1 25  1  0
  1 26  1  0
  2 27  1  0
  3 28  1  0
  3 29  1  0
  9 30  1  0
  9 31  1  0
 11 32  1  0
 11 33  1  0
 11 34  1  0
 12 35  1  0
 12 36  1  0
 12 37  1  0
 13 38  1  0
 13 39  1  0
 13 40  1  0
 15 41  1  0
 15 42  1  0
 16 43  1  0
 16 44  1  0
 22 45  1  0
 23 46  1  0
 23 47  1  0
 24 48  1  0
 24 49  1  0
M  END
>  <Binding energies>  (1) 
[-5.19]

>  <Ligand effiencies>  (1) 
[-0.21625000000000003]

>  <Interactions>  (1) 
["V-A:ILE:369:CG2:3237, V-A:ASP:366:CA:3210, V-B:PRO:540:CA:9855, V-A:ILE:369:CB:3236, V-B:GLU:543:CB:9878, V-B:ALA:541:CB:9864, V-B:ASP:366:CG:8184, V-B:TYR:539:CE2:9848, V-A:TYR:484:CE2:4346, V-B:GLU:543:CG:9879, V-B:TYR:539:C:9839, V-A:ASP:366:CG:3213, V-B:TYR:539:CZ:9849, V-B:ILE:538:CG2:9835, H-B:TYR:539:OH:9850, H-B:ALA:541:N:9863, V-A:TYR:484:CZ:4347, V-B:PRO:540:CB:9857, V-B:PRO:540:N:9856, V-A:ILE:369:CD1:3239, V-A:ASP:366:C:3208, V-B:TYR:539:CD2:9846, V-B:PRO:540:CD:9859, V-B:GLU:543:CD:9880, V-A:ASP:366:CB:3212, V-B:TYR:539:CG:9844, V-B:TYR:539:CD1:9845, V-B:MET:535:CE:9807, V-B:TYR:539:CE1:9847"]

$$$$
ZINC1301704272
     RDKit          3D

 59 62  0  0  0  0  0  0  0  0999 V2000
  134.7860  124.3360   59.7700 C   0  0  0  0  0  0  0  0  0  0  0  0
  133.4950  124.2880   58.9470 C   0  0  0  0  0  0  0  0  0  0  0  0
  133.5940  124.3310   57.7190 O   0  0  0  0  0  0  0  0  0  0  0  0
  132.3060  124.1650   59.5980 N   0  0  0  0  0  0  0  0  0  0  0  0
  131.8600  122.8740   60.1440 C   0  0  0  0  0  0  0  0  0  0  0  0
  132.6780  122.3430   61.3390 C   0  0  0  0  0  0  0  0  0  0  0  0
  133.1040  123.3890   62.3910 C   0  0  0  0  0  0  0  0  0  0  0  0
  132.1070  124.4310   62.6850 N   0  0  0  0  0  0  0  0  0  0  0  0
  132.0320  124.7640   64.0280 C   0  0  0  0  0  0  0  0  0  0  0  0
  133.0320  125.1220   64.8030 N   0  0  0  0  0  0  0  0  0  0  0  0
  132.5170  125.3370   66.0750 N   0  0  0  0  0  0  0  0  0  0  0  0
  131.2250  125.1310   66.0130 C   0  0  0  0  0  0  0  0  0  0  0  0
  130.3060  125.1800   67.2200 C   0  0  0  0  0  0  0  0  0  0  0  0
  129.3560  126.7280   67.3190 S   0  0  0  0  0  0  0  0  0  0  0  0
  129.3640  127.1790   69.0240 C   0  0  0  0  0  0  0  0  0  0  0  0
  128.2130  126.9940   69.7900 C   0  0  0  0  0  0  0  0  0  0  0  0
  128.2010  127.3980   71.1220 C   0  0  0  0  0  0  0  0  0  0  0  0
  129.3380  127.9810   71.6780 C   0  0  0  0  0  0  0  0  0  0  0  0
  129.3140  128.4990   73.3230 Cl  0  0  0  0  0  0  0  0  0  0  0  0
  130.4940  128.1530   70.9150 C   0  0  0  0  0  0  0  0  0  0  0  0
  130.5090  127.7490   69.5830 C   0  0  0  0  0  0  0  0  0  0  0  0
  130.8370  124.7930   64.7290 N   0  0  0  0  0  0  0  0  0  0  0  0
  129.4740  124.5530   64.2370 C   0  0  0  0  0  0  0  0  0  0  0  0
  129.4270  123.6340   62.9920 C   0  0  2  0  0  0  0  0  0  0  0  0
  128.1570  123.8400   62.1200 C   0  0  0  0  0  0  0  0  0  0  0  0
  128.0510  122.7300   61.0880 C   0  0  0  0  0  0  0  0  0  0  0  0
  128.7700  121.5980   61.1700 C   0  0  0  0  0  0  0  0  0  0  0  0
  129.7160  121.3190   62.3290 C   0  0  0  0  0  0  0  0  0  0  0  0
  129.5220  122.2640   63.3900 O   0  0  0  0  0  0  0  0  0  0  0  0
  132.2210  125.5590   61.7440 C   0  0  0  0  0  0  0  0  0  0  0  0
  131.7330  125.3300   60.2920 C   0  0  0  0  0  0  0  0  0  0  0  0
  134.5382  124.3268   60.8417 H   0  0  0  0  0  0  0  0  0  0  0  0
  135.4068  123.4603   59.5297 H   0  0  0  0  0  0  0  0  0  0  0  0
  135.3401  125.2554   59.5297 H   0  0  0  0  0  0  0  0  0  0  0  0
  130.8157  122.9863   60.4707 H   0  0  0  0  0  0  0  0  0  0  0  0
  131.9937  122.1404   59.3353 H   0  0  0  0  0  0  0  0  0  0  0  0
  132.0705  121.5814   61.8497 H   0  0  0  0  0  0  0  0  0  0  0  0
  133.6148  121.9602   60.9079 H   0  0  0  0  0  0  0  0  0  0  0  0
  133.3254  122.8571   63.3281 H   0  0  0  0  0  0  0  0  0  0  0  0
  133.9722  123.9122   61.9638 H   0  0  0  0  0  0  0  0  0  0  0  0
  129.6008  124.3380   67.1594 H   0  0  0  0  0  0  0  0  0  0  0  0
  130.9365  125.1198   68.1194 H   0  0  0  0  0  0  0  0  0  0  0  0
  127.3201  126.5316   69.3441 H   0  0  0  0  0  0  0  0  0  0  0  0
  127.2974  127.2576   71.7334 H   0  0  0  0  0  0  0  0  0  0  0  0
  131.3899  128.6061   71.3646 H   0  0  0  0  0  0  0  0  0  0  0  0
  131.4167  127.8780   68.9752 H   0  0  0  0  0  0  0  0  0  0  0  0
  128.8901  124.0818   65.0414 H   0  0  0  0  0  0  0  0  0  0  0  0
  129.0580  125.5269   63.9398 H   0  0  0  0  0  0  0  0  0  0  0  0
  130.2891  123.9117   62.3678 H   0  0  0  0  0  0  0  0  0  0  0  0
  127.2658  123.8246   62.7646 H   0  0  0  0  0  0  0  0  0  0  0  0
  128.2264  124.8086   61.6033 H   0  0  0  0  0  0  0  0  0  0  0  0
  127.3597  122.8580   60.2420 H   0  0  0  0  0  0  0  0  0  0  0  0
  128.6715  120.8472   60.3721 H   0  0  0  0  0  0  0  0  0  0  0  0
  129.5270  120.3051   62.7114 H   0  0  0  0  0  0  0  0  0  0  0  0
  130.7506  121.4075   61.9659 H   0  0  0  0  0  0  0  0  0  0  0  0
  131.6390  126.3949   62.1594 H   0  0  0  0  0  0  0  0  0  0  0  0
  133.3022  125.7391   61.6515 H   0  0  0  0  0  0  0  0  0  0  0  0
  130.6408  125.2024   60.3196 H   0  0  0  0  0  0  0  0  0  0  0  0
  132.0674  126.2100   59.7230 H   0  0  0  0  0  0  0  0  0  0  0  0
  1  2  1  0
  2  3  2  0
  2  4  1  0
  4  5  1  0
  5  6  1  0
  6  7  1  0
  7  8  1  0
  8  9  1  0
  9 10  2  0
 10 11  1  0
 11 12  2  0
 12 13  1  0
 13 14  1  0
 14 15  1  0
 15 16  2  0
 16 17  1  0
 17 18  2  0
 18 19  1  0
 18 20  1  0
 20 21  2  0
 12 22  1  0
 22 23  1  0
 23 24  1  0
 24 25  1  0
 25 26  1  0
 26 27  2  0
 27 28  1  0
 28 29  1  0
  8 30  1  0
 30 31  1  0
 31  4  1  0
 22  9  1  0
 29 24  1  0
 21 15  1  0
  1 32  1  0
  1 33  1  0
  1 34  1  0
  5 35  1  0
  5 36  1  0
  6 37  1  0
  6 38  1  0
  7 39  1  0
  7 40  1  0
 13 41  1  0
 13 42  1  0
 16 43  1  0
 17 44  1  0
 20 45  1  0
 21 46  1  0
 23 47  1  0
 23 48  1  0
 24 49  1  6
 25 50  1  0
 25 51  1  0
 26 52  1  0
 27 53  1  0
 28 54  1  0
 28 55  1  0
 30 56  1  0
 30 57  1  0
 31 58  1  0
 31 59  1  0
M  END
>  <Binding energies>  (1) 
[-6.25]

>  <Ligand effiencies>  (1) 
[-0.1893939393939394]

>  <Interactions>  (1) 
["V-A:ILE:369:CG2:3237, V-A:ASP:366:CA:3210, V-B:PRO:540:CA:9855, V-B:GLU:543:C:9874, V-A:ILE:369:CB:3236, V-A:GLU:543:C:4902, V-B:HIS:456:CD2:9039, V-B:GLU:543:CB:9878, V-B:ALA:541:CB:9864, V-B:TYR:539:CE2:9848, V-A:TYR:484:CE2:4346, V-B:GLU:543:CG:9879, V-A:GLY:544:C:4912, V-B:TYR:539:C:9839, V-A:ASP:366:CG:3213, H-B:TYR:539:OH:9850, V-A:TYR:484:CZ:4347, V-B:HIS:456:CE1:9041, V-A:ILE:369:CD1:3239, V-A:HIS:456:CE1:4070, V-A:ASP:366:C:3208, V-B:TYR:539:CD2:9846, V-B:GLU:543:CD:9880, V-A:ILE:369:CG1:3238, V-A:ASP:366:CB:3212, V-A:LEU:475:CD2:4259, H-A:ARG:545:NH2:4928, V-A:GLU:543:CB:4906, H-A:ARG:545:NE:4924, V-B:PRO:540:C:9853, H-A:TYR:484:OH:4348"]

$$$$
ZINC1303198543
     RDKit          3D

 71 74  0  0  0  0  0  0  0  0999 V2000
  131.0020  127.0700   58.7220 C   0  0  0  0  0  0  0  0  0  0  0  0
  129.6080  127.2300   59.3520 C   0  0  0  0  0  0  0  0  0  0  0  0
  129.5050  126.4170   60.6570 C   0  0  0  0  0  0  0  0  0  0  0  0
  128.5080  126.8820   58.3170 C   0  0  0  0  0  0  0  0  0  0  0  0
  127.8720  125.5640   58.4900 N   0  0  0  0  0  0  0  0  0  0  0  0
  126.5210  125.5740   59.0870 C   0  0  0  0  0  0  0  0  0  0  0  0
  125.8650  124.1860   59.2250 C   0  0  0  0  0  0  0  0  0  0  0  0
  126.8470  123.1510   59.5480 N   0  0  0  0  0  0  0  0  0  0  0  0
  127.1780  122.9620   60.8650 C   0  0  0  0  0  0  0  0  0  0  0  0
  126.3680  123.0820   61.8910 N   0  0  0  0  0  0  0  0  0  0  0  0
  127.1110  122.8160   63.0350 N   0  0  0  0  0  0  0  0  0  0  0  0
  128.3480  122.6070   62.6560 C   0  0  0  0  0  0  0  0  0  0  0  0
  129.4830  122.2710   63.6010 C   0  0  0  0  0  0  0  0  0  0  0  0
  129.4600  123.1920   64.6880 O   0  0  0  0  0  0  0  0  0  0  0  0
  130.5930  123.9290   64.9790 C   0  0  0  0  0  0  0  0  0  0  0  0
  131.7520  123.9470   64.1830 C   0  0  0  0  0  0  0  0  0  0  0  0
  132.8570  124.7150   64.5530 C   0  0  0  0  0  0  0  0  0  0  0  0
  132.8180  125.4750   65.7200 C   0  0  0  0  0  0  0  0  0  0  0  0
  131.6730  125.4700   66.5160 C   0  0  0  0  0  0  0  0  0  0  0  0
  130.5680  124.7020   66.1470 C   0  0  0  0  0  0  0  0  0  0  0  0
  129.4670  124.7070   66.9330 F   0  0  0  0  0  0  0  0  0  0  0  0
  128.4620  122.6590   61.2810 N   0  0  0  0  0  0  0  0  0  0  0  0
  129.6750  122.4880   60.4690 C   0  0  0  0  0  0  0  0  0  0  0  0
  130.7910  121.7090   61.2310 C   0  0  1  0  0  0  0  0  0  0  0  0
  130.5590  120.2040   61.1530 C   0  0  0  0  0  0  0  0  0  0  0  0
  131.2120  119.1680   60.4970 C   0  0  0  0  0  0  0  0  0  0  0  0
  130.5460  117.9890   60.8330 C   0  0  0  0  0  0  0  0  0  0  0  0
  129.5170  118.3530   61.6840 C   0  0  0  0  0  0  0  0  0  0  0  0
  129.5260  119.6970   61.8790 O   0  0  0  0  0  0  0  0  0  0  0  0
  132.1610  122.0500   60.7860 N   0  0  0  0  0  0  0  0  0  0  0  0
  133.1560  121.7600   61.8200 C   0  0  0  0  0  0  0  0  0  0  0  0
  132.3350  123.4360   60.3480 C   0  0  0  0  0  0  0  0  0  0  0  0
  127.8740  123.0680   58.4890 C   0  0  1  0  0  0  0  0  0  0  0  0
  127.3820  122.5310   57.1410 C   0  0  0  0  0  0  0  0  0  0  0  0
  128.5980  124.4290   58.2530 C   0  0  0  0  0  0  0  0  0  0  0  0
  129.7720  124.4490   57.8770 O   0  0  0  0  0  0  0  0  0  0  0  0
  131.7563  126.9834   59.5179 H   0  0  0  0  0  0  0  0  0  0  0  0
  131.0209  126.1638   58.0988 H   0  0  0  0  0  0  0  0  0  0  0  0
  131.2257  127.9484   58.0988 H   0  0  0  0  0  0  0  0  0  0  0  0
  129.4487  128.2810   59.6350 H   0  0  0  0  0  0  0  0  0  0  0  0
  129.5909  127.0949   61.5190 H   0  0  0  0  0  0  0  0  0  0  0  0
  128.5343  125.9008   60.6918 H   0  0  0  0  0  0  0  0  0  0  0  0
  130.3163  125.6750   60.6918 H   0  0  0  0  0  0  0  0  0  0  0  0
  127.7228  127.6493   58.3852 H   0  0  0  0  0  0  0  0  0  0  0  0
  129.0109  126.8500   57.3392 H   0  0  0  0  0  0  0  0  0  0  0  0
  126.5935  126.0195   60.0901 H   0  0  0  0  0  0  0  0  0  0  0  0
  125.8835  126.1509   58.4009 H   0  0  0  0  0  0  0  0  0  0  0  0
  125.1128  124.2258   60.0266 H   0  0  0  0  0  0  0  0  0  0  0  0
  125.4019  123.9292   58.2608 H   0  0  0  0  0  0  0  0  0  0  0  0
  129.3572  121.2465   63.9811 H   0  0  0  0  0  0  0  0  0  0  0  0
  130.4446  122.3401   63.0714 H   0  0  0  0  0  0  0  0  0  0  0  0
  131.7881  123.3500   63.2598 H   0  0  0  0  0  0  0  0  0  0  0  0
  133.7588  124.7203   63.9232 H   0  0  0  0  0  0  0  0  0  0  0  0
  133.6897  126.0785   66.0133 H   0  0  0  0  0  0  0  0  0  0  0  0
  131.6409  126.0722   67.4359 H   0  0  0  0  0  0  0  0  0  0  0  0
  129.4147  121.9314   59.5567 H   0  0  0  0  0  0  0  0  0  0  0  0
  130.0650  123.4886   60.2308 H   0  0  0  0  0  0  0  0  0  0  0  0
  130.7187  122.0303   62.2805 H   0  0  0  0  0  0  0  0  0  0  0  0
  132.0878  119.2598   59.8378 H   0  0  0  0  0  0  0  0  0  0  0  0
  130.7901  116.9728   60.4900 H   0  0  0  0  0  0  0  0  0  0  0  0
  128.7968  117.6554   62.1365 H   0  0  0  0  0  0  0  0  0  0  0  0
  132.7020  121.8923   62.8132 H   0  0  0  0  0  0  0  0  0  0  0  0
  133.5055  120.7226   61.7119 H   0  0  0  0  0  0  0  0  0  0  0  0
  134.0081  122.4472   61.7119 H   0  0  0  0  0  0  0  0  0  0  0  0
  132.4172  124.0910   61.2279 H   0  0  0  0  0  0  0  0  0  0  0  0
  133.2504  123.5173   59.7435 H   0  0  0  0  0  0  0  0  0  0  0  0
  131.4681  123.7411   59.7435 H   0  0  0  0  0  0  0  0  0  0  0  0
  128.5807  122.3274   58.8916 H   0  0  0  0  0  0  0  0  0  0  0  0
  126.6479  121.7297   57.3114 H   0  0  0  0  0  0  0  0  0  0  0  0
  126.9102  123.3456   56.5719 H   0  0  0  0  0  0  0  0  0  0  0  0
  128.2347  122.1321   56.5719 H   0  0  0  0  0  0  0  0  0  0  0  0
  1  2  1  0
  2  3  1  0
  2  4  1  0
  4  5  1  0
  5  6  1  0
  6  7  1  0
  7  8  1  0
  8  9  1  0
  9 10  2  0
 10 11  1  0
 11 12  2  0
 12 13  1  0
 13 14  1  0
 14 15  1  0
 15 16  2  0
 16 17  1  0
 17 18  2  0
 18 19  1  0
 19 20  2  0
 20 21  1  0
 12 22  1  0
 22 23  1  0
 23 24  1  0
 24 25  1  0
 25 26  2  0
 26 27  1  0
 27 28  2  0
 28 29  1  0
 24 30  1  0
 30 31  1  0
 30 32  1  0
  8 33  1  0
 33 34  1  0
 33 35  1  0
 35 36  2  0
 35  5  1  0
 22  9  1  0
 29 25  1  0
 20 15  1  0
  1 37  1  0
  1 38  1  0
  1 39  1  0
  2 40  1  0
  3 41  1  0
  3 42  1  0
  3 43  1  0
  4 44  1  0
  4 45  1  0
  6 46  1  0
  6 47  1  0
  7 48  1  0
  7 49  1  0
 13 50  1  0
 13 51  1  0
 16 52  1  0
 17 53  1  0
 18 54  1  0
 19 55  1  0
 23 56  1  0
 23 57  1  0
 24 58  1  1
 26 59  1  0
 27 60  1  0
 28 61  1  0
 31 62  1  0
 31 63  1  0
 31 64  1  0
 32 65  1  0
 32 66  1  0
 32 67  1  0
 33 68  1  1
 34 69  1  0
 34 70  1  0
 34 71  1  0
M  END
>  <Binding energies>  (1) 
[-7.43]

>  <Ligand effiencies>  (1) 
[-0.20638888888888887]

>  <Interactions>  (1) 
["V-B:PRO:540:CA:9855, V-B:GLU:543:CB:9878, V-B:ALA:541:CB:9864, V-B:TYR:539:CE2:9848, V-A:TYR:484:CE2:4346, V-B:GLU:543:CG:9879, V-B:TYR:539:C:9839, V-B:TYR:539:CZ:9849, H-B:TYR:539:OH:9850, H-B:ALA:541:N:9863, V-A:LEU:475:CD1:4258, V-A:TYR:484:CZ:4347, V-B:PRO:540:CB:9857, V-A:ARG:545:CG:4922, V-B:GLU:543:CA:9876, V-A:HIS:383:NE2:3394, V-B:PRO:540:N:9856, V-A:HIS:456:CE1:4070, V-A:PRO:482:CB:4326, V-B:TYR:539:CD2:9846, V-B:GLU:543:CD:9880, V-A:ARG:545:CD:4923, V-A:LEU:475:CD2:4259, V-A:ARG:545:CZ:4926, V-B:TYR:539:CG:9844, V-B:TYR:539:CD1:9845, V-B:PRO:540:C:9853, V-B:ALA:541:CA:9862, V-B:TYR:539:CE1:9847"]

$$$$
ZINC1303198543-again1
     RDKit          3D

 72 75  0  0  0  0  0  0  0  0999 V2000
  133.6090  121.0690   60.9130 C   0  0  0  0  0  0  0  0  0  0  0  0
  133.1110  122.4670   61.3200 C   0  0  0  0  0  0  0  0  0  0  0  0
  133.9460  123.5640   60.6290 C   0  0  0  0  0  0  0  0  0  0  0  0
  133.0760  122.5950   62.8640 C   0  0  0  0  0  0  0  0  0  0  0  0
  132.1420  123.6030   63.3980 N   0  0  0  0  0  0  0  0  0  0  0  0
  130.7560  123.5300   62.8920 C   0  0  0  0  0  0  0  0  0  0  0  0
  129.7900  124.5590   63.5110 C   0  0  0  0  0  0  0  0  0  0  0  0
  130.4490  125.8410   63.7570 N   0  0  0  0  0  0  0  0  0  0  0  0
  130.5170  126.7400   62.7250 C   0  0  0  0  0  0  0  0  0  0  0  0
  131.5130  126.8750   61.8810 N   0  0  0  0  0  0  0  0  0  0  0  0
  131.1710  127.8960   61.0020 N   0  0  0  0  0  0  0  0  0  0  0  0
  130.0110  128.3700   61.3860 C   0  0  0  0  0  0  0  0  0  0  0  0
  129.2710  129.4880   60.6810 C   0  0  0  0  0  0  0  0  0  0  0  0
  129.6590  130.7270   61.2650 O   0  0  0  0  0  0  0  0  0  0  0  0
  130.9890  131.1000   61.2450 C   0  0  0  0  0  0  0  0  0  0  0  0
  131.7210  131.4830   62.3840 C   0  0  0  0  0  0  0  0  0  0  0  0
  133.0620  131.8510   62.2750 C   0  0  0  0  0  0  0  0  0  0  0  0
  133.6910  131.8390   61.0320 C   0  0  0  0  0  0  0  0  0  0  0  0
  132.9770  131.4590   59.8970 C   0  0  0  0  0  0  0  0  0  0  0  0
  131.6350  131.0910   60.0040 C   0  0  0  0  0  0  0  0  0  0  0  0
  130.9580  130.7280   58.8890 F   0  0  0  0  0  0  0  0  0  0  0  0
  129.5240  127.6690   62.4720 N   0  0  0  0  0  0  0  0  0  0  0  0
  128.2700  127.8910   63.2010 C   0  0  0  0  0  0  0  0  0  0  0  0
  128.4020  129.0450   64.2360 C   0  0  1  0  0  0  0  0  0  0  0  0
  127.6250  130.2890   63.8300 C   0  0  0  0  0  0  0  0  0  0  0  0
  126.5170  130.5050   63.0210 C   0  0  0  0  0  0  0  0  0  0  0  0
  126.2490  131.8730   63.0540 C   0  0  0  0  0  0  0  0  0  0  0  0
  127.2040  132.4360   63.8820 C   0  0  0  0  0  0  0  0  0  0  0  0
  128.0380  131.4750   64.3520 O   0  0  0  0  0  0  0  0  0  0  0  0
  127.9470  128.5920   65.6550 N   0  0  0  0  0  0  0  0  0  0  0  0
  128.7320  127.3790   66.2040 C   0  0  0  0  0  0  0  0  0  0  0  0
  127.9790  129.7350   66.6970 C   0  0  0  0  0  0  0  0  0  0  0  0
  131.5860  125.6680   64.6860 C   0  0  1  0  0  0  0  0  0  0  0  0
  131.2030  125.3140   66.1270 C   0  0  0  0  0  0  0  0  0  0  0  0
  132.6230  124.6220   64.1750 C   0  0  0  0  0  0  0  0  0  0  0  0
  133.8150  124.7360   64.4690 O   0  0  0  0  0  0  0  0  0  0  0  0
  133.8197  120.4775   61.8162 H   0  0  0  0  0  0  0  0  0  0  0  0
  132.8356  120.5637   60.3159 H   0  0  0  0  0  0  0  0  0  0  0  0
  134.5277  121.1665   60.3159 H   0  0  0  0  0  0  0  0  0  0  0  0
  132.0771  122.6075   60.9718 H   0  0  0  0  0  0  0  0  0  0  0  0
  134.4260  124.1946   61.3919 H   0  0  0  0  0  0  0  0  0  0  0  0
  134.7185  123.0960   60.0011 H   0  0  0  0  0  0  0  0  0  0  0  0
  133.2891  124.1839   60.0011 H   0  0  0  0  0  0  0  0  0  0  0  0
  132.7914  121.6166   63.2785 H   0  0  0  0  0  0  0  0  0  0  0  0
  134.0812  122.9283   63.1615 H   0  0  0  0  0  0  0  0  0  0  0  0
  130.7792  123.6927   61.8044 H   0  0  0  0  0  0  0  0  0  0  0  0
  130.3744  122.5372   63.1727 H   0  0  0  0  0  0  0  0  0  0  0  0
  128.9483  124.7177   62.8208 H   0  0  0  0  0  0  0  0  0  0  0  0
  129.4400  124.1631   64.4758 H   0  0  0  0  0  0  0  0  0  0  0  0
  129.5277  129.4858   59.6114 H   0  0  0  0  0  0  0  0  0  0  0  0
  128.1854  129.3458   60.7866 H   0  0  0  0  0  0  0  0  0  0  0  0
  131.2314  131.4923   63.3690 H   0  0  0  0  0  0  0  0  0  0  0  0
  133.6237  132.1511   63.1719 H   0  0  0  0  0  0  0  0  0  0  0  0
  134.7487  132.1288   60.9466 H   0  0  0  0  0  0  0  0  0  0  0  0
  133.4722  131.4491   58.9148 H   0  0  0  0  0  0  0  0  0  0  0  0
  127.4794  128.1473   62.4804 H   0  0  0  0  0  0  0  0  0  0  0  0
  128.0227  126.9683   63.7463 H   0  0  0  0  0  0  0  0  0  0  0  0
  129.4707  129.3041   64.2613 H   0  0  0  0  0  0  0  0  0  0  0  0
  125.9571  129.7418   62.4606 H   0  0  0  0  0  0  0  0  0  0  0  0
  125.4398  132.3996   62.5269 H   0  0  0  0  0  0  0  0  0  0  0  0
  127.2763  133.5067   64.1238 H   0  0  0  0  0  0  0  0  0  0  0  0
  126.9830  128.3030   65.5720 H   0  0  0  0  0  0  0  0  0  0  0  0
  128.7181  127.4005   67.3037 H   0  0  0  0  0  0  0  0  0  0  0  0
  128.2643  126.4486   65.8495 H   0  0  0  0  0  0  0  0  0  0  0  0
  129.7723  127.4246   65.8495 H   0  0  0  0  0  0  0  0  0  0  0  0
  127.9670  129.3076   67.7105 H   0  0  0  0  0  0  0  0  0  0  0  0
  128.8942  130.3299   66.5607 H   0  0  0  0  0  0  0  0  0  0  0  0
  127.0986  130.3802   66.5607 H   0  0  0  0  0  0  0  0  0  0  0  0
  132.0380  126.6706   64.7062 H   0  0  0  0  0  0  0  0  0  0  0  0
  131.8275  125.8912   66.8247 H   0  0  0  0  0  0  0  0  0  0  0  0
  130.1437  125.5579   66.2953 H   0  0  0  0  0  0  0  0  0  0  0  0
  131.3629  124.2388   66.2953 H   0  0  0  0  0  0  0  0  0  0  0  0
  1  2  1  0
  2  3  1  0
  2  4  1  0
  4  5  1  0
  5  6  1  0
  6  7  1  0
  7  8  1  0
  8  9  1  0
  9 10  2  0
 10 11  1  0
 11 12  2  0
 12 13  1  0
 13 14  1  0
 14 15  1  0
 15 16  2  0
 16 17  1  0
 17 18  2  0
 18 19  1  0
 19 20  2  0
 20 21  1  0
 12 22  1  0
 22 23  1  0
 23 24  1  0
 24 25  1  0
 25 26  2  0
 26 27  1  0
 27 28  2  0
 28 29  1  0
 24 30  1  0
 30 31  1  0
 30 32  1  0
  8 33  1  0
 33 34  1  0
 33 35  1  0
 35 36  2  0
 35  5  1  0
 22  9  1  0
 29 25  1  0
 20 15  1  0
  1 37  1  0
  1 38  1  0
  1 39  1  0
  2 40  1  0
  3 41  1  0
  3 42  1  0
  3 43  1  0
  4 44  1  0
  4 45  1  0
  6 46  1  0
  6 47  1  0
  7 48  1  0
  7 49  1  0
 13 50  1  0
 13 51  1  0
 16 52  1  0
 17 53  1  0
 18 54  1  0
 19 55  1  0
 23 56  1  0
 23 57  1  0
 24 58  1  1
 26 59  1  0
 27 60  1  0
 28 61  1  0
 30 62  1  0
 31 63  1  0
 31 64  1  0
 31 65  1  0
 32 66  1  0
 32 67  1  0
 32 68  1  0
 33 69  1  1
 34 70  1  0
 34 71  1  0
 34 72  1  0
M  CHG  1  30   1
M  END
>  <Binding energies>  (1) 
[-7.97]

>  <Ligand effiencies>  (1) 
[-0.2154054054054054]

>  <Interactions>  (1) 
["V-A:ILE:369:CG2:3237, V-A:GLY:454:CA:4049, V-A:ILE:369:CB:3236, V-B:GLU:543:CB:9878, V-B:GLU:543:CG:9879, V-B:LEU:475:CD2:9230, V-A:ASP:366:CG:3213, V-A:ASN:362:CB:3176, V-B:TYR:484:CE2:9317, H-B:GLU:543:OE1:9881, V-A:GLU:543:CD:4908, V-A:TYR:484:CZ:4347, H-B:TYR:484:OH:9319, V-B:HIS:456:CE1:9041, H-A:GLY:454:N:4050, V-A:HIS:456:CE1:4070, V-A:ILE:369:CD1:3239, V-B:TYR:484:CZ:9318, V-A:GLU:543:CG:4907, V-A:SER:385:CB:3409, V-B:GLU:543:CD:9880, V-A:LEU:475:CD2:4259, H-A:ARG:545:NH2:4928, V-A:ARG:545:CZ:4926, V-A:ASN:362:C:3172, V-A:GLU:543:CB:4906, H-B:GLU:543:OE2:9882, V-A:PRO:540:CB:4885, V-A:PRO:540:CA:4883, V-A:LEU:363:CA:3185, H-A:ARG:545:NE:4924, V-A:SER:385:CA:3407, H-A:TYR:484:OH:4348"]

$$$$
ZINC1309809118
     RDKit          3D

 51 53  0  0  0  0  0  0  0  0999 V2000
  130.9850  121.7450   61.1070 C   0  0  0  0  0  0  0  0  0  0  0  0
  129.9910  121.4170   61.9470 C   0  0  0  0  0  0  0  0  0  0  0  0
  129.0320  122.4040   62.5850 C   0  0  0  0  0  0  0  0  0  0  0  0
  129.4810  122.8690   63.9790 C   0  0  0  0  0  0  0  0  0  0  0  0
  129.6000  124.4020   64.0910 C   0  0  0  0  0  0  0  0  0  0  0  0
  130.5070  124.8810   65.2480 C   0  0  1  0  0  0  0  0  0  0  0  0
  131.7310  125.5150   64.7060 N   0  0  0  0  0  0  0  0  0  0  0  0
  133.0540  124.4930   64.1450 S   0  0  0  0  0  0  0  0  0  0  0  0
  134.3150  125.0810   64.6120 O   0  0  0  0  0  0  0  0  0  0  0  0
  132.7040  123.1050   64.4650 O   0  0  0  0  0  0  0  0  0  0  0  0
  133.0110  124.6350   62.3620 C   0  0  0  0  0  0  0  0  0  0  0  0
  133.8440  123.8520   61.5600 C   0  0  0  0  0  0  0  0  0  0  0  0
  133.8450  124.0270   60.1780 C   0  0  0  0  0  0  0  0  0  0  0  0
  133.0080  124.9800   59.5950 C   0  0  0  0  0  0  0  0  0  0  0  0
  132.1470  125.7670   60.3870 C   0  0  0  0  0  0  0  0  0  0  0  0
  132.1610  125.5740   61.7720 C   0  0  0  0  0  0  0  0  0  0  0  0
  131.2270  126.7860   59.7300 C   0  0  0  0  0  0  0  0  0  0  0  0
  131.7400  127.1520   58.3290 C   0  0  0  0  0  0  0  0  0  0  0  0
  132.1170  125.8710   57.5630 C   0  0  0  0  0  0  0  0  0  0  0  0
  133.1610  125.1570   58.2310 O   0  0  0  0  0  0  0  0  0  0  0  0
  129.8010  125.8370   66.2120 C   0  0  0  0  0  0  0  0  0  0  0  0
  129.8630  125.5950   67.5890 C   0  0  0  0  0  0  0  0  0  0  0  0
  129.2520  126.4740   68.4800 C   0  0  0  0  0  0  0  0  0  0  0  0
  128.5710  127.5860   67.9940 C   0  0  0  0  0  0  0  0  0  0  0  0
  128.4920  127.8280   66.6250 C   0  0  0  0  0  0  0  0  0  0  0  0
  129.1050  126.9540   65.7330 C   0  0  0  0  0  0  0  0  0  0  0  0
  131.6343  120.9609   60.6904 H   0  0  0  0  0  0  0  0  0  0  0  0
  131.1504  122.7980   60.8351 H   0  0  0  0  0  0  0  0  0  0  0  0
  129.8620  120.3522   62.1912 H   0  0  0  0  0  0  0  0  0  0  0  0
  128.9512  123.2852   61.9316 H   0  0  0  0  0  0  0  0  0  0  0  0
  128.0670  121.8902   62.7067 H   0  0  0  0  0  0  0  0  0  0  0  0
  128.7464  122.5190   64.7192 H   0  0  0  0  0  0  0  0  0  0  0  0
  130.4799  122.4463   64.1619 H   0  0  0  0  0  0  0  0  0  0  0  0
  130.0125  124.7866   63.1466 H   0  0  0  0  0  0  0  0  0  0  0  0
  128.5900  124.7845   64.2999 H   0  0  0  0  0  0  0  0  0  0  0  0
  130.7737  123.9869   65.8307 H   0  0  0  0  0  0  0  0  0  0  0  0
  132.0060  126.3930   65.1520 H   0  0  0  0  0  0  0  0  0  0  0  0
  134.4992  123.0972   62.0194 H   0  0  0  0  0  0  0  0  0  0  0  0
  134.5051  123.4144   59.5463 H   0  0  0  0  0  0  0  0  0  0  0  0
  131.4913  126.1717   62.4079 H   0  0  0  0  0  0  0  0  0  0  0  0
  130.2167  126.3593   59.6452 H   0  0  0  0  0  0  0  0  0  0  0  0
  131.2049  127.6952   60.3487 H   0  0  0  0  0  0  0  0  0  0  0  0
  130.9520  127.6879   57.7796 H   0  0  0  0  0  0  0  0  0  0  0  0
  132.6277  127.7948   58.4227 H   0  0  0  0  0  0  0  0  0  0  0  0
  131.2307  125.2238   57.4881 H   0  0  0  0  0  0  0  0  0  0  0  0
  132.4749  126.1560   56.5626 H   0  0  0  0  0  0  0  0  0  0  0  0
  130.3948  124.7098   67.9680 H   0  0  0  0  0  0  0  0  0  0  0  0
  129.3075  126.2900   69.5631 H   0  0  0  0  0  0  0  0  0  0  0  0
  128.0903  128.2808   68.6984 H   0  0  0  0  0  0  0  0  0  0  0  0
  127.9470  128.7069   66.2503 H   0  0  0  0  0  0  0  0  0  0  0  0
  129.0430  127.1404   64.6507 H   0  0  0  0  0  0  0  0  0  0  0  0
  1  2  2  0
  2  3  1  0
  3  4  1  0
  4  5  1  0
  5  6  1  0
  6  7  1  0
  7  8  1  0
  8  9  2  0
  8 10  2  0
  8 11  1  0
 11 12  2  0
 12 13  1  0
 13 14  2  0
 14 15  1  0
 15 16  2  0
 15 17  1  0
 17 18  1  0
 18 19  1  0
 19 20  1  0
  6 21  1  0
 21 22  2  0
 22 23  1  0
 23 24  2  0
 24 25  1  0
 25 26  2  0
 16 11  1  0
 26 21  1  0
 20 14  1  0
  1 27  1  0
  1 28  1  0
  2 29  1  0
  3 30  1  0
  3 31  1  0
  4 32  1  0
  4 33  1  0
  5 34  1  0
  5 35  1  0
  6 36  1  1
  7 37  1  0
 12 38  1  0
 13 39  1  0
 16 40  1  0
 17 41  1  0
 17 42  1  0
 18 43  1  0
 18 44  1  0
 19 45  1  0
 19 46  1  0
 22 47  1  0
 23 48  1  0
 24 49  1  0
 25 50  1  0
 26 51  1  0
M  END
>  <Binding energies>  (1) 
[-7.87]

>  <Ligand effiencies>  (1) 
[-0.2914814814814815]

>  <Interactions>  (1) 
["V-A:ILE:369:CG2:3237, V-A:ASP:366:CA:3210, H-A:GLU:543:OE2:4910, V-A:ILE:369:CB:3236, V-B:GLU:543:CB:9878, V-B:ALA:541:CB:9864, H-A:ARG:545:NH1:4927, V-B:TYR:539:CE2:9848, V-B:GLU:543:CG:9879, V-A:ASP:366:CG:3213, V-B:TYR:539:CZ:9849, H-B:TYR:539:OH:9850, V-A:GLU:543:CD:4908, V-B:HIS:456:CE1:9041, H-A:GLY:454:N:4050, V-A:ILE:369:CD1:3239, V-A:HIS:456:CE1:4070, V-B:TYR:539:CD2:9846, V-A:TYR:531:CZ:4794, V-B:GLU:543:CD:9880, V-A:ASP:366:CB:3212, V-A:LEU:475:CD2:4259, H-A:ARG:545:NH2:4928, V-A:ARG:545:CZ:4926, H-A:GLU:543:OE1:4909, H-A:ARG:545:NE:4924, H-A:TYR:484:OH:4348"]

$$$$
ZINC13111873
     RDKit          3D

 32 33  0  0  0  0  0  0  0  0999 V2000
  128.8040  124.7230   57.1200 C   0  0  0  0  0  0  0  0  0  0  0  0
  127.6230  124.0870   56.6530 O   0  0  0  0  0  0  0  0  0  0  0  0
  127.1640  122.9640   57.2520 C   0  0  0  0  0  0  0  0  0  0  0  0
  126.5110  122.0740   56.7020 O   0  0  0  0  0  0  0  0  0  0  0  0
  127.5450  122.9350   58.6570 C   0  0  0  0  0  0  0  0  0  0  0  0
  127.0880  123.6240   59.7750 C   0  0  0  0  0  0  0  0  0  0  0  0
  127.8430  123.1730   60.8580 C   0  0  0  0  0  0  0  0  0  0  0  0
  128.7350  122.2310   60.3650 C   0  0  0  0  0  0  0  0  0  0  0  0
  129.8040  121.3700   60.9910 C   0  0  0  0  0  0  0  0  0  0  0  0
  131.0780  121.9150   60.6610 O   0  0  0  0  0  0  0  0  0  0  0  0
  131.6990  122.8090   61.5190 C   0  0  0  0  0  0  0  0  0  0  0  0
  131.3030  122.9640   62.8620 C   0  0  0  0  0  0  0  0  0  0  0  0
  131.9440  123.8700   63.6990 C   0  0  0  0  0  0  0  0  0  0  0  0
  132.9930  124.6410   63.2130 C   0  0  0  0  0  0  0  0  0  0  0  0
  133.3990  124.5010   61.8890 C   0  0  0  0  0  0  0  0  0  0  0  0
  132.7680  123.5920   61.0210 C   0  0  0  0  0  0  0  0  0  0  0  0
  133.2200  123.4590   59.6190 C   0  0  0  0  0  0  0  0  0  0  0  0
  133.1120  124.3820   58.7490 N   0  0  0  0  0  0  0  0  0  0  0  0
  133.6310  123.9570   57.5180 O   0  0  0  0  0  0  0  0  0  0  0  0
  128.5440  122.0880   59.0260 O   0  0  0  0  0  0  0  0  0  0  0  0
  128.8087  124.7255   58.2200 H   0  0  0  0  0  0  0  0  0  0  0  0
  129.6848  124.1773   56.7508 H   0  0  0  0  0  0  0  0  0  0  0  0
  128.8331  125.7588   56.7508 H   0  0  0  0  0  0  0  0  0  0  0  0
  126.2872  124.3778   59.8005 H   0  0  0  0  0  0  0  0  0  0  0  0
  127.7492  123.5015   61.9036 H   0  0  0  0  0  0  0  0  0  0  0  0
  129.6777  121.3584   62.0837 H   0  0  0  0  0  0  0  0  0  0  0  0
  129.7265  120.3402   60.6123 H   0  0  0  0  0  0  0  0  0  0  0  0
  130.4730  122.3582   63.2547 H   0  0  0  0  0  0  0  0  0  0  0  0
  131.6211  123.9765   64.7451 H   0  0  0  0  0  0  0  0  0  0  0  0
  133.5010  125.3598   63.8727 H   0  0  0  0  0  0  0  0  0  0  0  0
  134.2312  125.1145   61.5135 H   0  0  0  0  0  0  0  0  0  0  0  0
  133.6761  122.5069   59.3100 H   0  0  0  0  0  0  0  0  0  0  0  0
  1  2  1  0
  2  3  1  0
  3  4  2  0
  3  5  1  0
  5  6  2  0
  6  7  1  0
  7  8  2  0
  8  9  1  0
  9 10  1  0
 10 11  1  0
 11 12  2  0
 12 13  1  0
 13 14  2  0
 14 15  1  0
 15 16  2  0
 16 17  1  0
 17 18  2  0
 18 19  1  0
  8 20  1  0
 20  5  1  0
 16 11  1  0
  1 21  1  0
  1 22  1  0
  1 23  1  0
  6 24  1  0
  7 25  1  0
  9 26  1  0
  9 27  1  0
 12 28  1  0
 13 29  1  0
 14 30  1  0
 15 31  1  0
 17 32  1  0
M  CHG  1  19  -1
M  END
>  <Binding energies>  (1) 
[-5.12]

>  <Ligand effiencies>  (1) 
[-0.256]

>  <Interactions>  (1) 
["V-A:ILE:369:CG2:3237, V-B:PRO:540:CA:9855, V-B:TYR:539:CZ:9849, H-A:ASN:370:N:3244, H-B:TYR:539:OH:9850, V-B:TYR:539:CD2:9846, V-B:TYR:539:CE2:9848, V-B:PRO:540:CB:9857, H-B:TYR:539:N:9842, V-A:LEU:475:CD2:4259, V-A:ARG:545:CZ:4926, V-B:TYR:539:C:9839, V-B:PRO:540:N:9856"]

$$$$
ZINC13111873-again1
     RDKit          3D

 33 34  0  0  0  0  0  0  0  0999 V2000
  128.4210  129.0120   62.9470 C   0  0  0  0  0  0  0  0  0  0  0  0
  127.5060  130.0090   63.3770 O   0  0  0  0  0  0  0  0  0  0  0  0
  127.9520  131.1950   63.8490 C   0  0  0  0  0  0  0  0  0  0  0  0
  128.3700  131.4020   64.9900 O   0  0  0  0  0  0  0  0  0  0  0  0
  127.8780  132.2230   62.8190 C   0  0  0  0  0  0  0  0  0  0  0  0
  127.5960  133.5840   62.8600 C   0  0  0  0  0  0  0  0  0  0  0  0
  127.6680  134.0470   61.5460 C   0  0  0  0  0  0  0  0  0  0  0  0
  127.9930  132.9570   60.7520 C   0  0  0  0  0  0  0  0  0  0  0  0
  128.2020  132.7630   59.2690 C   0  0  0  0  0  0  0  0  0  0  0  0
  129.4330  133.3800   58.9020 O   0  0  0  0  0  0  0  0  0  0  0  0
  130.4510  132.6290   58.3330 C   0  0  0  0  0  0  0  0  0  0  0  0
  130.6860  132.6070   56.9450 C   0  0  0  0  0  0  0  0  0  0  0  0
  131.7150  131.8430   56.4050 C   0  0  0  0  0  0  0  0  0  0  0  0
  132.5290  131.0890   57.2400 C   0  0  0  0  0  0  0  0  0  0  0  0
  132.3110  131.0990   58.6150 C   0  0  0  0  0  0  0  0  0  0  0  0
  131.2770  131.8630   59.1860 C   0  0  0  0  0  0  0  0  0  0  0  0
  131.0650  131.8580   60.6480 C   0  0  0  0  0  0  0  0  0  0  0  0
  131.9770  132.0910   61.5020 N   0  0  0  0  0  0  0  0  0  0  0  0
  131.4830  132.0190   62.8130 O   0  0  0  0  0  0  0  0  0  0  0  0
  128.1170  131.8510   61.5330 O   0  0  0  0  0  0  0  0  0  0  0  0
  128.8696  128.5232   63.8244 H   0  0  0  0  0  0  0  0  0  0  0  0
  127.8894  128.2629   62.3418 H   0  0  0  0  0  0  0  0  0  0  0  0
  129.2128  129.4775   62.3418 H   0  0  0  0  0  0  0  0  0  0  0  0
  127.3617  134.1797   63.7546 H   0  0  0  0  0  0  0  0  0  0  0  0
  127.4993  135.0791   61.2048 H   0  0  0  0  0  0  0  0  0  0  0  0
  128.2418  131.6884   59.0372 H   0  0  0  0  0  0  0  0  0  0  0  0
  127.3711  133.2162   58.7085 H   0  0  0  0  0  0  0  0  0  0  0  0
  130.0461  133.2030   56.2777 H   0  0  0  0  0  0  0  0  0  0  0  0
  131.8838  131.8360   55.3181 H   0  0  0  0  0  0  0  0  0  0  0  0
  133.3446  130.4849   56.8158 H   0  0  0  0  0  0  0  0  0  0  0  0
  132.9603  130.4974   59.2680 H   0  0  0  0  0  0  0  0  0  0  0  0
  130.0537  131.6387   61.0211 H   0  0  0  0  0  0  0  0  0  0  0  0
  131.3650  131.0730   62.9310 H   0  0  0  0  0  0  0  0  0  0  0  0
  1  2  1  0
  2  3  1  0
  3  4  2  0
  3  5  1  0
  5  6  2  0
  6  7  1  0
  7  8  2  0
  8  9  1  0
  9 10  1  0
 10 11  1  0
 11 12  2  0
 12 13  1  0
 13 14  2  0
 14 15  1  0
 15 16  2  0
 16 17  1  0
 17 18  2  0
 18 19  1  0
  8 20  1  0
 20  5  1  0
 16 11  1  0
  1 21  1  0
  1 22  1  0
  1 23  1  0
  6 24  1  0
  7 25  1  0
  9 26  1  0
  9 27  1  0
 12 28  1  0
 13 29  1  0
 14 30  1  0
 15 31  1  0
 17 32  1  0
 19 33  1  0
M  END
>  <Binding energies>  (1) 
[-5.5]

>  <Ligand effiencies>  (1) 
[-0.2619047619047619]

>  <Interactions>  (1) 
["V-A:TYR:539:CD1:4873, V-A:PRO:540:N:4884, V-A:LEU:363:CD1:3189, V-A:PRO:540:CB:4885, V-A:PRO:540:CA:4883, V-A:TYR:531:CE2:4793, H-A:ALA:541:N:4891, V-A:ALA:541:CB:4892, V-A:TYR:531:CZ:4794, V-A:GLU:543:CD:4908, V-A:TYR:539:C:4867, H-B:TYR:484:OH:9319, V-B:LEU:475:CD2:9230, H-A:GLU:543:OE1:4909, V-A:TYR:539:CE1:4875"]

$$$$
ZINC13130933
     RDKit          3D

 67 71  0  0  0  0  0  0  0  0999 V2000
  133.5500  131.5240   60.9090 C   0  0  0  0  0  0  0  0  0  0  0  0
  132.0450  131.3370   60.9750 C   0  0  0  0  0  0  0  0  0  0  0  0
  131.4150  131.8490   62.2650 C   0  0  0  0  0  0  0  0  0  0  0  0
  131.3680  130.7690   59.9520 C   0  0  0  0  0  0  0  0  0  0  0  0
  129.8770  130.4890   59.8510 C   0  0  0  0  0  0  0  0  0  0  0  0
  129.2940  129.9590   61.1620 C   0  0  0  0  0  0  0  0  0  0  0  0
  128.4370  130.7490   61.9270 C   0  0  0  0  0  0  0  0  0  0  0  0
  127.9310  130.2910   63.1510 C   0  0  0  0  0  0  0  0  0  0  0  0
  128.2450  129.0000   63.5990 C   0  0  0  0  0  0  0  0  0  0  0  0
  127.7010  128.5760   64.7890 O   0  0  0  0  0  0  0  0  0  0  0  0
  129.0950  128.1660   62.8350 C   0  0  0  0  0  0  0  0  0  0  0  0
  129.4710  126.7610   63.2560 C   0  0  0  0  0  0  0  0  0  0  0  0
  129.0850  126.2540   64.3100 O   0  0  0  0  0  0  0  0  0  0  0  0
  130.3260  126.0520   62.2910 C   0  0  0  0  0  0  0  0  0  0  0  0
  130.7330  126.6470   61.1520 C   0  0  0  0  0  0  0  0  0  0  0  0
  130.4350  127.9250   60.8100 O   0  0  0  0  0  0  0  0  0  0  0  0
  129.6060  128.6720   61.6210 C   0  0  0  0  0  0  0  0  0  0  0  0
  131.6300  125.9590   60.2160 C   0  0  0  0  0  0  0  0  0  0  0  0
  131.9250  126.4470   58.9370 C   0  0  0  0  0  0  0  0  0  0  0  0
  132.7800  125.7340   58.0930 C   0  0  0  0  0  0  0  0  0  0  0  0
  133.0490  126.2300   56.8420 O   0  0  0  0  0  0  0  0  0  0  0  0
  133.3540  124.5310   58.5280 C   0  0  0  0  0  0  0  0  0  0  0  0
  134.1990  123.8170   57.7160 O   0  0  0  0  0  0  0  0  0  0  0  0
  133.0730  124.0480   59.8080 C   0  0  0  0  0  0  0  0  0  0  0  0
  132.2120  124.7600   60.6420 C   0  0  0  0  0  0  0  0  0  0  0  0
  132.0210  124.2870   61.9310 O   0  0  0  0  0  0  0  0  0  0  0  0
  130.7610  124.6000   62.5690 C   0  0  2  0  0  0  0  0  0  0  0  0
  129.7000  123.6020   62.1130 C   0  0  0  0  0  0  0  0  0  0  0  0
  129.8790  122.3480   61.6470 C   0  0  0  0  0  0  0  0  0  0  0  0
  128.6960  121.4920   61.2240 C   0  0  0  0  0  0  0  0  0  0  0  0
  131.2250  121.6520   61.4970 C   0  0  0  0  0  0  0  0  0  0  0  0
  127.0090  131.1920   63.8640 C   0  0  0  0  0  0  0  0  0  0  0  0
  126.4830  132.2620   63.2470 C   0  0  0  0  0  0  0  0  0  0  0  0
  126.7840  132.5060   61.7650 C   0  0  0  0  0  0  0  0  0  0  0  0
  126.8160  134.0210   61.5020 C   0  0  0  0  0  0  0  0  0  0  0  0
  125.7600  131.7380   60.8960 C   0  0  0  0  0  0  0  0  0  0  0  0
  128.1170  132.0220   61.4660 O   0  0  0  0  0  0  0  0  0  0  0  0
  133.9583  131.5747   61.9292 H   0  0  0  0  0  0  0  0  0  0  0  0
  134.0019  130.6751   60.3750 H   0  0  0  0  0  0  0  0  0  0  0  0
  133.7804  132.4577   60.3750 H   0  0  0  0  0  0  0  0  0  0  0  0
  131.9446  131.4186   63.1277 H   0  0  0  0  0  0  0  0  0  0  0  0
  131.4893  132.9460   62.2991 H   0  0  0  0  0  0  0  0  0  0  0  0
  130.3564  131.5520   62.2991 H   0  0  0  0  0  0  0  0  0  0  0  0
  131.9725  130.4717   59.0824 H   0  0  0  0  0  0  0  0  0  0  0  0
  129.3592  131.4226   59.5859 H   0  0  0  0  0  0  0  0  0  0  0  0
  129.7319  129.7158   59.0822 H   0  0  0  0  0  0  0  0  0  0  0  0
  127.4780  127.6430   64.7830 H   0  0  0  0  0  0  0  0  0  0  0  0
  131.4823  127.3944   58.5959 H   0  0  0  0  0  0  0  0  0  0  0  0
  132.8690  127.1710   56.7710 H   0  0  0  0  0  0  0  0  0  0  0  0
  134.4810  124.3090   56.9420 H   0  0  0  0  0  0  0  0  0  0  0  0
  133.5291  123.1097   60.1567 H   0  0  0  0  0  0  0  0  0  0  0  0
  130.8870  124.5148   63.6584 H   0  0  0  0  0  0  0  0  0  0  0  0
  128.6577  123.9486   62.1716 H   0  0  0  0  0  0  0  0  0  0  0  0
  128.1769  121.1164   62.1181 H   0  0  0  0  0  0  0  0  0  0  0  0
  128.0011  122.0978   60.6239 H   0  0  0  0  0  0  0  0  0  0  0  0
  129.0541  120.6425   60.6239 H   0  0  0  0  0  0  0  0  0  0  0  0
  131.6399  121.4375   62.4929 H   0  0  0  0  0  0  0  0  0  0  0  0
  131.0912  120.7101   60.9449 H   0  0  0  0  0  0  0  0  0  0  0  0
  131.9163  122.3057   60.9449 H   0  0  0  0  0  0  0  0  0  0  0  0
  126.7489  130.9859   64.9127 H   0  0  0  0  0  0  0  0  0  0  0  0
  125.8393  132.9598   63.8027 H   0  0  0  0  0  0  0  0  0  0  0  0
  126.8274  134.5595   62.4611 H   0  0  0  0  0  0  0  0  0  0  0  0
  127.7197  134.2746   60.9284 H   0  0  0  0  0  0  0  0  0  0  0  0
  125.9238  134.3125   60.9284 H   0  0  0  0  0  0  0  0  0  0  0  0
  125.0513  131.2065   61.5481 H   0  0  0  0  0  0  0  0  0  0  0  0
  125.2114  132.4493   60.2610 H   0  0  0  0  0  0  0  0  0  0  0  0
  126.2892  131.0122   60.2610 H   0  0  0  0  0  0  0  0  0  0  0  0
  1  2  1  0
  2  3  1  0
  2  4  2  3
  4  5  1  0
  5  6  1  0
  6  7  2  0
  7  8  1  0
  8  9  2  0
  9 10  1  0
  9 11  1  0
 11 12  1  0
 12 13  2  0
 12 14  1  0
 14 15  2  0
 15 16  1  0
 16 17  1  0
 15 18  1  0
 18 19  2  0
 19 20  1  0
 20 21  1  0
 20 22  2  0
 22 23  1  0
 22 24  1  0
 24 25  2  0
 25 26  1  0
 26 27  1  0
 27 28  1  0
 28 29  2  3
 29 30  1  0
 29 31  1  0
  8 32  1  0
 32 33  2  0
 33 34  1  0
 34 35  1  0
 34 36  1  0
 34 37  1  0
 17  6  1  0
 25 18  1  0
 37  7  1  0
 17 11  2  0
 27 14  1  0
  1 38  1  0
  1 39  1  0
  1 40  1  0
  3 41  1  0
  3 42  1  0
  3 43  1  0
  4 44  1  0
  5 45  1  0
  5 46  1  0
 10 47  1  0
 19 48  1  0
 21 49  1  0
 23 50  1  0
 24 51  1  0
 27 52  1  1
 28 53  1  0
 30 54  1  0
 30 55  1  0
 30 56  1  0
 31 57  1  0
 31 58  1  0
 31 59  1  0
 32 60  1  0
 33 61  1  0
 35 62  1  0
 35 63  1  0
 35 64  1  0
 36 65  1  0
 36 66  1  0
 36 67  1  0
M  END
>  <Binding energies>  (1) 
[-7.66]

>  <Ligand effiencies>  (1) 
[-0.1915]

>  <Interactions>  (1) 
["V-A:ILE:369:CG2:3237, V-A:ASP:366:CA:3210, V-B:PRO:540:CA:9855, V-B:ALA:541:CB:9864, H-A:TYR:531:OH:4795, V-B:TYR:539:CE2:9848, V-B:LEU:475:CD2:9230, V-B:TYR:539:C:9839, V-A:ASP:366:CG:3213, V-A:ASN:362:CB:3176, V-A:TYR:539:CD1:4873, V-B:TYR:539:CZ:9849, H-B:GLU:543:OE1:9881, H-A:ASN:370:N:3244, H-B:TYR:539:OH:9850, V-A:GLU:543:CD:4908, V-A:ASP:366:C:3208, V-A:GLU:543:CG:4907, V-B:GLU:543:CD:9880, V-A:ASP:366:CB:3212, V-A:LEU:475:CD2:4259, V-A:ASN:362:C:3172, H-A:ASP:366:O:3209, H-B:GLU:543:OE2:9882, V-A:PRO:540:CB:4885, V-A:PRO:540:CA:4883, V-A:LEU:363:CA:3185, V-B:PRO:540:C:9853"]

$$$$
ZINC13144751
     RDKit          3D

 59 62  0  0  0  0  0  0  0  0999 V2000
  132.9490  124.1890   62.8970 C   0  0  0  0  0  0  0  0  0  0  0  0
  132.2000  122.8460   62.8690 C   0  0  0  0  0  0  0  0  0  0  0  0
  130.8740  122.9020   62.2240 N   0  0  0  0  0  0  0  0  0  0  0  0
  130.8050  122.2800   60.8890 C   0  0  0  0  0  0  0  0  0  0  0  0
  130.5280  120.7670   60.9290 C   0  0  0  0  0  0  0  0  0  0  0  0
  129.7260  123.2600   62.8710 C   0  0  0  0  0  0  0  0  0  0  0  0
  128.6130  122.9140   62.4630 O   0  0  0  0  0  0  0  0  0  0  0  0
  129.7860  124.1300   64.1100 C   0  0  0  0  0  0  0  0  0  0  0  0
  130.2540  123.5850   65.3110 C   0  0  0  0  0  0  0  0  0  0  0  0
  130.2840  124.3470   66.4760 C   0  0  0  0  0  0  0  0  0  0  0  0
  129.8440  125.6700   66.4610 C   0  0  0  0  0  0  0  0  0  0  0  0
  129.3460  126.2420   65.2690 C   0  0  0  0  0  0  0  0  0  0  0  0
  129.3140  125.4520   64.1140 C   0  0  0  0  0  0  0  0  0  0  0  0
  128.8580  127.6870   65.3240 C   0  0  1  0  0  0  0  0  0  0  0  0
  127.8720  128.2700   64.3060 C   0  0  2  0  0  0  0  0  0  0  0  0
  128.6550  128.5500   62.7190 Cl  0  0  0  0  0  0  0  0  0  0  0  0
  127.4080  129.5890   64.9890 C   0  0  2  0  0  0  0  0  0  0  0  0
  128.5150  131.0250   64.7040 S   0  0  0  0  0  0  0  0  0  0  0  0
  127.9060  132.0370   63.3660 C   0  0  0  0  0  0  0  0  0  0  0  0
  126.5330  132.3030   63.2730 C   0  0  0  0  0  0  0  0  0  0  0  0
  126.0200  133.0430   62.2110 C   0  0  0  0  0  0  0  0  0  0  0  0
  126.8720  133.5260   61.2240 C   0  0  0  0  0  0  0  0  0  0  0  0
  128.2390  133.2730   61.3060 C   0  0  0  0  0  0  0  0  0  0  0  0
  128.7790  132.5380   62.3720 C   0  0  0  0  0  0  0  0  0  0  0  0
  130.2470  132.3370   62.4100 N   0  0  0  0  0  0  0  0  0  0  0  0
  130.8570  132.2080   61.3530 O   0  0  0  0  0  0  0  0  0  0  0  0
  130.7830  132.2490   63.5100 O   0  0  0  0  0  0  0  0  0  0  0  0
  127.3980  129.2360   66.5010 C   0  0  0  0  0  0  0  0  0  0  0  0
  128.1150  127.8800   66.6450 C   0  0  2  0  0  0  0  0  0  0  0  0
  129.1170  127.6760   67.8200 C   0  0  1  0  0  0  0  0  0  0  0  0
  128.5170  127.7060   69.2540 C   0  0  0  0  0  0  0  0  0  0  0  0
  129.1390  128.3640   70.1200 O   0  0  0  0  0  0  0  0  0  0  0  0
  127.4490  127.0910   69.4850 O   0  0  0  0  0  0  0  0  0  0  0  0
  129.8100  126.3760   67.6870 N   0  0  0  0  0  0  0  0  0  0  0  0
  133.1184  124.4927   63.9406 H   0  0  0  0  0  0  0  0  0  0  0  0
  133.9166  124.0800   62.3852 H   0  0  0  0  0  0  0  0  0  0  0  0
  132.3478  124.9549   62.3852 H   0  0  0  0  0  0  0  0  0  0  0  0
  132.8181  122.1184   62.3226 H   0  0  0  0  0  0  0  0  0  0  0  0
  132.0279  122.5601   63.9172 H   0  0  0  0  0  0  0  0  0  0  0  0
  129.9991  122.7663   60.3198 H   0  0  0  0  0  0  0  0  0  0  0  0
  131.7898  122.4157   60.4181 H   0  0  0  0  0  0  0  0  0  0  0  0
  130.4668  120.4330   61.9753 H   0  0  0  0  0  0  0  0  0  0  0  0
  129.5761  120.5549   60.4202 H   0  0  0  0  0  0  0  0  0  0  0  0
  131.3430  120.2314   60.4202 H   0  0  0  0  0  0  0  0  0  0  0  0
  130.6024  122.5419   65.3350 H   0  0  0  0  0  0  0  0  0  0  0  0
  130.6561  123.9037   67.4114 H   0  0  0  0  0  0  0  0  0  0  0  0
  128.9082  125.8784   63.1848 H   0  0  0  0  0  0  0  0  0  0  0  0
  129.8096  128.2040   65.1310 H   0  0  0  0  0  0  0  0  0  0  0  0
  127.0314  127.6001   64.0724 H   0  0  0  0  0  0  0  0  0  0  0  0
  126.4383  129.9060   64.5777 H   0  0  0  0  0  0  0  0  0  0  0  0
  125.8523  131.9224   64.0487 H   0  0  0  0  0  0  0  0  0  0  0  0
  124.9404  133.2456   62.1528 H   0  0  0  0  0  0  0  0  0  0  0  0
  126.4677  134.1060   60.3813 H   0  0  0  0  0  0  0  0  0  0  0  0
  128.9073  133.6563   60.5209 H   0  0  0  0  0  0  0  0  0  0  0  0
  127.9308  130.0091   67.0741 H   0  0  0  0  0  0  0  0  0  0  0  0
  126.3695  129.1822   66.8875 H   0  0  0  0  0  0  0  0  0  0  0  0
  127.3320  127.1457   66.8852 H   0  0  0  0  0  0  0  0  0  0  0  0
  129.7854  128.5446   67.7269 H   0  0  0  0  0  0  0  0  0  0  0  0
  130.3700  126.0920   68.4790 H   0  0  0  0  0  0  0  0  0  0  0  0
  1  2  1  0
  2  3  1  0
  3  4  1  0
  4  5  1  0
  3  6  1  0
  6  7  2  0
  6  8  1  0
  8  9  2  0
  9 10  1  0
 10 11  2  0
 11 12  1  0
 12 13  2  0
 12 14  1  0
 14 15  1  0
 15 16  1  0
 15 17  1  0
 17 18  1  0
 18 19  1  0
 19 20  2  0
 20 21  1  0
 21 22  2  0
 22 23  1  0
 23 24  2  0
 24 25  1  0
 25 26  2  0
 25 27  1  0
 17 28  1  0
 28 29  1  0
 29 30  1  0
 30 31  1  0
 31 32  2  0
 31 33  1  0
 30 34  1  0
 13  8  1  0
 29 14  1  0
 34 11  1  0
 24 19  1  0
  1 35  1  0
  1 36  1  0
  1 37  1  0
  2 38  1  0
  2 39  1  0
  4 40  1  0
  4 41  1  0
  5 42  1  0
  5 43  1  0
  5 44  1  0
  9 45  1  0
 10 46  1  0
 13 47  1  0
 14 48  1  1
 15 49  1  6
 17 50  1  6
 20 51  1  0
 21 52  1  0
 22 53  1  0
 23 54  1  0
 28 55  1  0
 28 56  1  0
 29 57  1  1
 30 58  1  1
 34 59  1  0
M  CHG  3  25   1  27  -1  33  -1
M  END
>  <Binding energies>  (1) 
[-7.08]

>  <Ligand effiencies>  (1) 
[-0.2022857142857143]

>  <Interactions>  (1) 
["H-A:GLU:543:OE2:4910, H-A:ALA:541:N:4891, V-B:GLU:543:CB:9878, V-A:PRO:540:C:4881, V-B:TYR:539:CE2:9848, V-A:TYR:484:CE2:4346, V-B:LEU:475:CD2:9230, V-B:GLU:543:CG:9879, V-A:TYR:539:CD1:4873, V-A:ALA:541:CB:4892, V-A:TYR:484:CZ:4347, V-A:GLU:543:CD:4908, H-B:TYR:484:OH:9319, V-B:HIS:456:CE1:9041, V-A:HIS:456:CE1:4070, V-B:TYR:484:CZ:9318, V-A:ALA:541:CA:4890, V-B:TYR:539:CD2:9846, V-A:GLU:543:CG:4907, V-B:GLU:543:CD:9880, V-A:LEU:475:CD2:4259, V-A:GLU:543:CB:4906, V-A:PRO:540:CA:4883, H-A:HIS:456:NE2:4071"]

$$$$
ZINC13339722
     RDKit          3D

 41 43  0  0  0  0  0  0  0  0999 V2000
  131.7460  127.9200   69.5860 C   0  0  0  0  0  0  0  0  0  0  0  0
  130.6900  128.7980   69.9540 O   0  0  0  0  0  0  0  0  0  0  0  0
  129.6540  128.1850   70.6210 C   0  0  0  0  0  0  0  0  0  0  0  0
  128.8360  127.2420   69.9690 C   0  0  0  0  0  0  0  0  0  0  0  0
  129.0320  126.8420   68.5430 C   0  0  0  0  0  0  0  0  0  0  0  0
  128.7070  127.4680   67.3420 C   0  0  0  0  0  0  0  0  0  0  0  0
  129.1320  126.5970   66.2940 C   0  0  0  0  0  0  0  0  0  0  0  0
  129.1190  126.6140   64.8900 C   0  0  0  0  0  0  0  0  0  0  0  0
  129.6570  125.5240   64.1930 C   0  0  0  0  0  0  0  0  0  0  0  0
  129.6600  125.5340   62.6720 C   0  0  0  0  0  0  0  0  0  0  0  0
  128.3560  124.9680   62.0730 C   0  0  0  0  0  0  0  0  0  0  0  0
  128.1220  123.4740   62.3630 C   0  0  0  0  0  0  0  0  0  0  0  0
  126.7420  123.1710   62.4010 O   0  0  0  0  0  0  0  0  0  0  0  0
  130.1980  124.4300   64.8810 C   0  0  0  0  0  0  0  0  0  0  0  0
  130.2230  124.3830   66.2750 C   0  0  0  0  0  0  0  0  0  0  0  0
  129.6840  125.4790   66.9550 C   0  0  0  0  0  0  0  0  0  0  0  0
  129.6150  125.6280   68.3100 O   0  0  0  0  0  0  0  0  0  0  0  0
  127.7880  126.6450   70.6780 C   0  0  0  0  0  0  0  0  0  0  0  0
  127.5600  126.9640   72.0150 C   0  0  0  0  0  0  0  0  0  0  0  0
  128.3780  127.8860   72.6650 C   0  0  0  0  0  0  0  0  0  0  0  0
  128.1350  128.1800   73.9830 O   0  0  0  0  0  0  0  0  0  0  0  0
  129.4280  128.4980   71.9690 C   0  0  0  0  0  0  0  0  0  0  0  0
  130.2350  129.4080   72.6080 O   0  0  0  0  0  0  0  0  0  0  0  0
  132.2247  127.5220   70.4928 H   0  0  0  0  0  0  0  0  0  0  0  0
  131.3409  127.0888   68.9902 H   0  0  0  0  0  0  0  0  0  0  0  0
  132.4893  128.4700   68.9902 H   0  0  0  0  0  0  0  0  0  0  0  0
  128.2170  128.4457   67.2238 H   0  0  0  0  0  0  0  0  0  0  0  0
  128.6931  127.4698   64.3457 H   0  0  0  0  0  0  0  0  0  0  0  0
  129.7855  126.5708   62.3267 H   0  0  0  0  0  0  0  0  0  0  0  0
  130.4875  124.8918   62.3360 H   0  0  0  0  0  0  0  0  0  0  0  0
  127.5108  125.5362   62.4887 H   0  0  0  0  0  0  0  0  0  0  0  0
  128.4418  125.0673   60.9809 H   0  0  0  0  0  0  0  0  0  0  0  0
  128.5991  122.8760   61.5726 H   0  0  0  0  0  0  0  0  0  0  0  0
  128.5579  123.2372   63.3448 H   0  0  0  0  0  0  0  0  0  0  0  0
  126.2740  123.9280   62.7610 H   0  0  0  0  0  0  0  0  0  0  0  0
  130.6131  123.5877   64.3081 H   0  0  0  0  0  0  0  0  0  0  0  0
  130.6473  123.5232   66.8142 H   0  0  0  0  0  0  0  0  0  0  0  0
  127.1367  125.9156   70.1742 H   0  0  0  0  0  0  0  0  0  0  0  0
  126.7317  126.4866   72.5591 H   0  0  0  0  0  0  0  0  0  0  0  0
  128.7010  128.8770   74.3230 H   0  0  0  0  0  0  0  0  0  0  0  0
  130.7710  129.9170   71.9950 H   0  0  0  0  0  0  0  0  0  0  0  0
  1  2  1  0
  2  3  1  0
  3  4  2  0
  4  5  1  0
  5  6  2  0
  6  7  1  0
  7  8  2  0
  8  9  1  0
  9 10  1  0
 10 11  1  0
 11 12  1  0
 12 13  1  0
  9 14  2  0
 14 15  1  0
 15 16  2  0
 16 17  1  0
  4 18  1  0
 18 19  2  0
 19 20  1  0
 20 21  1  0
 20 22  2  0
 22 23  1  0
 22  3  1  0
 17  5  1  0
 16  7  1  0
  1 24  1  0
  1 25  1  0
  1 26  1  0
  6 27  1  0
  8 28  1  0
 10 29  1  0
 10 30  1  0
 11 31  1  0
 11 32  1  0
 12 33  1  0
 12 34  1  0
 13 35  1  0
 14 36  1  0
 15 37  1  0
 18 38  1  0
 19 39  1  0
 21 40  1  0
 23 41  1  0
M  END
>  <Binding energies>  (1) 
[-5.87]

>  <Ligand effiencies>  (1) 
[-0.22576923076923078]

>  <Interactions>  (1) 
["V-A:ARG:545:CA:4919, V-B:HIS:456:CD2:9039, V-B:GLU:543:C:9874, V-A:GLU:543:C:4902, V-B:GLU:543:CB:9878, H-B:LYS:547:NZ:9923, V-A:TYR:484:CE2:4346, V-B:GLU:543:CG:9879, V-A:GLY:544:C:4912, H-B:GLU:543:OE1:9881, H-B:ALA:541:N:9863, V-A:GLU:543:CD:4908, V-A:TYR:484:CZ:4347, V-B:HIS:456:CE1:9041, V-B:GLU:543:CA:9876, V-A:ARG:545:CG:4922, V-A:HIS:456:CE1:4070, V-B:GLY:544:C:9884, V-B:GLY:544:CA:9886, V-B:GLU:543:CD:9880, H-A:LYS:547:NZ:4951, V-A:GLU:543:CB:4906, H-A:GLY:544:N:4915, H-A:GLY:544:O:4913, H-A:GLU:543:O:4903"]

$$$$
ZINC13373258-again1
     RDKit          3D

 67 71  0  0  0  0  0  0  0  0999 V2000
  129.8020  122.2210   64.4710 C   0  0  0  0  0  0  0  0  0  0  0  0
  130.8480  123.0020   64.1370 C   0  0  0  0  0  0  0  0  0  0  0  0
  132.2790  122.4970   64.2480 C   0  0  0  0  0  0  0  0  0  0  0  0
  130.6940  124.4580   63.6760 C   0  0  1  0  0  0  0  0  0  0  0  0
  129.9500  124.4630   62.3080 C   0  0  0  0  0  0  0  0  0  0  0  0
  129.8290  125.8900   61.7880 C   0  0  0  0  0  0  0  0  0  0  0  0
  129.5120  126.8710   62.6620 C   0  0  0  0  0  0  0  0  0  0  0  0
  129.4490  128.1820   62.3020 O   0  0  0  0  0  0  0  0  0  0  0  0
  129.5940  128.5410   60.9800 C   0  0  0  0  0  0  0  0  0  0  0  0
  129.4390  129.8950   60.7070 C   0  0  0  0  0  0  0  0  0  0  0  0
  129.5740  130.3600   59.4050 C   0  0  0  0  0  0  0  0  0  0  0  0
  129.4250  131.7040   59.1800 O   0  0  0  0  0  0  0  0  0  0  0  0
  129.8630  129.4660   58.3620 C   0  0  0  0  0  0  0  0  0  0  0  0
  129.9980  129.9790   56.9230 C   0  0  0  0  0  0  0  0  0  0  0  0
  131.0350  131.0860   56.7990 C   0  0  0  0  0  0  0  0  0  0  0  0
  130.8340  132.4060   56.5870 C   0  0  0  0  0  0  0  0  0  0  0  0
  132.0040  133.3700   56.4960 C   0  0  0  0  0  0  0  0  0  0  0  0
  129.4760  133.0710   56.4120 C   0  0  0  0  0  0  0  0  0  0  0  0
  130.0230  128.0960   58.6490 C   0  0  0  0  0  0  0  0  0  0  0  0
  130.3160  127.2450   57.6090 O   0  0  0  0  0  0  0  0  0  0  0  0
  129.8900  127.6120   59.9710 C   0  0  0  0  0  0  0  0  0  0  0  0
  130.0490  126.1620   60.3550 C   0  0  0  0  0  0  0  0  0  0  0  0
  130.3300  125.2850   59.5360 O   0  0  0  0  0  0  0  0  0  0  0  0
  129.4260  126.6350   64.1370 C   0  0  0  0  0  0  0  0  0  0  0  0
  128.7780  127.5560   64.9940 C   0  0  0  0  0  0  0  0  0  0  0  0
  128.1280  128.6650   64.5020 O   0  0  0  0  0  0  0  0  0  0  0  0
  128.7560  127.3390   66.3740 C   0  0  0  0  0  0  0  0  0  0  0  0
  129.4170  126.2330   66.9060 C   0  0  0  0  0  0  0  0  0  0  0  0
  130.0420  125.3030   66.0760 C   0  0  0  0  0  0  0  0  0  0  0  0
  130.6820  124.2520   66.6830 O   0  0  0  0  0  0  0  0  0  0  0  0
  130.0300  125.4620   64.6710 C   0  0  0  0  0  0  0  0  0  0  0  0
  129.4240  126.0040   68.2790 O   0  0  0  0  0  0  0  0  0  0  0  0
  129.4430  127.1690   69.1410 C   0  0  0  0  0  0  0  0  0  0  0  0
  129.0230  126.6730   70.5360 C   0  0  0  0  0  0  0  0  0  0  0  0
  130.8540  127.7960   69.0970 C   0  0  0  0  0  0  0  0  0  0  0  0
  128.4140  128.1880   68.6430 C   0  0  0  0  0  0  0  0  0  0  0  0
  128.1350  128.2680   67.3330 C   0  0  0  0  0  0  0  0  0  0  0  0
  128.7762  122.6081   64.3824 H   0  0  0  0  0  0  0  0  0  0  0  0
  129.9739  121.1963   64.8323 H   0  0  0  0  0  0  0  0  0  0  0  0
  132.5525  122.4005   65.3091 H   0  0  0  0  0  0  0  0  0  0  0  0
  132.3606  121.5158   63.7576 H   0  0  0  0  0  0  0  0  0  0  0  0
  132.9584  123.2097   63.7576 H   0  0  0  0  0  0  0  0  0  0  0  0
  131.7209  124.8450   63.6005 H   0  0  0  0  0  0  0  0  0  0  0  0
  130.5146  123.8576   61.5836 H   0  0  0  0  0  0  0  0  0  0  0  0
  128.9434  124.0401   62.4420 H   0  0  0  0  0  0  0  0  0  0  0  0
  129.2096  130.5979   61.5214 H   0  0  0  0  0  0  0  0  0  0  0  0
  130.1660  132.2200   59.5030 H   0  0  0  0  0  0  0  0  0  0  0  0
  130.2958  129.1412   56.2753 H   0  0  0  0  0  0  0  0  0  0  0  0
  129.0251  130.3942   56.6212 H   0  0  0  0  0  0  0  0  0  0  0  0
  132.0847  130.7711   56.8943 H   0  0  0  0  0  0  0  0  0  0  0  0
  132.3344  133.6423   57.5093 H   0  0  0  0  0  0  0  0  0  0  0  0
  132.8336  132.8898   55.9564 H   0  0  0  0  0  0  0  0  0  0  0  0
  131.6914  134.2762   55.9564 H   0  0  0  0  0  0  0  0  0  0  0  0
  129.0418  133.2836   57.4001 H   0  0  0  0  0  0  0  0  0  0  0  0
  129.5974  134.0116   55.8547 H   0  0  0  0  0  0  0  0  0  0  0  0
  128.8074  132.3983   55.8547 H   0  0  0  0  0  0  0  0  0  0  0  0
  131.1720  127.4290   57.2140 H   0  0  0  0  0  0  0  0  0  0  0  0
  128.6330  129.1240   63.8280 H   0  0  0  0  0  0  0  0  0  0  0  0
  130.7960  124.3890   67.6280 H   0  0  0  0  0  0  0  0  0  0  0  0
  129.5304  127.2722   71.3063 H   0  0  0  0  0  0  0  0  0  0  0  0
  127.9338  126.7765   70.6494 H   0  0  0  0  0  0  0  0  0  0  0  0
  129.3046  125.6157   70.6494 H   0  0  0  0  0  0  0  0  0  0  0  0
  131.2159  127.9568   70.1232 H   0  0  0  0  0  0  0  0  0  0  0  0
  131.5402  127.1181   68.5682 H   0  0  0  0  0  0  0  0  0  0  0  0
  130.8107  128.7596   68.5682 H   0  0  0  0  0  0  0  0  0  0  0  0
  127.9052  128.8523   69.3570 H   0  0  0  0  0  0  0  0  0  0  0  0
  127.4350  129.0357   66.9716 H   0  0  0  0  0  0  0  0  0  0  0  0
  1  2  2  0
  2  3  1  0
  2  4  1  0
  4  5  1  0
  5  6  1  0
  6  7  2  0
  7  8  1  0
  8  9  1  0
  9 10  2  0
 10 11  1  0
 11 12  1  0
 11 13  2  0
 13 14  1  0
 14 15  1  0
 15 16  2  3
 16 17  1  0
 16 18  1  0
 13 19  1  0
 19 20  1  0
 19 21  2  0
 21 22  1  0
 22 23  2  0
  7 24  1  0
 24 25  2  0
 25 26  1  0
 25 27  1  0
 27 28  2  0
 28 29  1  0
 29 30  1  0
 29 31  2  0
 28 32  1  0
 32 33  1  0
 33 34  1  0
 33 35  1  0
 33 36  1  0
 36 37  2  0
 31  4  1  0
 22  6  1  0
 31 24  1  0
 21  9  1  0
 37 27  1  0
  1 38  1  0
  1 39  1  0
  3 40  1  0
  3 41  1  0
  3 42  1  0
  4 43  1  6
  5 44  1  0
  5 45  1  0
 10 46  1  0
 12 47  1  0
 14 48  1  0
 14 49  1  0
 15 50  1  0
 17 51  1  0
 17 52  1  0
 17 53  1  0
 18 54  1  0
 18 55  1  0
 18 56  1  0
 20 57  1  0
 26 58  1  0
 30 59  1  0
 34 60  1  0
 34 61  1  0
 34 62  1  0
 35 63  1  0
 35 64  1  0
 35 65  1  0
 36 66  1  0
 37 67  1  0
M  END
>  <Binding energies>  (1) 
[-6.07]

>  <Ligand effiencies>  (1) 
[-0.1480487804878049]

>  <Interactions>  (1) 
["V-A:ILE:538:C:4858, V-A:PRO:540:CG:4886, V-A:GLY:454:CA:4049, V-A:GLU:543:C:4902, V-B:GLU:543:CB:9878, V-A:ILE:538:CB:4862, V-B:ALA:541:CB:9864, H-A:TYR:531:OH:4795, V-A:TYR:484:CE2:4346, V-B:GLU:543:CG:9879, V-A:ILE:538:CG2:4863, V-A:LEU:363:CD1:3189, V-A:ILE:538:CA:4860, V-A:GLU:543:CD:4908, V-A:TYR:484:CZ:4347, V-B:HIS:456:CE1:9041, V-A:HIS:456:CE1:4070, V-B:GLU:543:CD:9880, V-A:MET:535:CE:4835, V-A:LEU:475:CD2:4259, H-A:GLU:543:OE1:4909, V-A:GLU:543:CB:4906, V-A:PRO:540:N:4884, V-A:PRO:540:CB:4885, V-A:PRO:540:CD:4887, H-A:HIS:456:NE2:4071, H-A:TYR:484:OH:4348"]

$$$$
ZINC13373827
     RDKit          3D

 64 66  0  0  0  0  0  0  0  0999 V2000
  126.5910  126.4280   58.4660 C   0  0  0  0  0  0  0  0  0  0  0  0
  128.0730  126.1120   58.3100 C   0  0  0  0  0  0  0  0  0  0  0  0
  128.6430  125.0990   58.9900 C   0  0  0  0  0  0  0  0  0  0  0  0
  130.1220  124.7720   58.8430 C   0  0  2  0  0  0  0  0  0  0  0  0
  130.5520  123.6930   59.8490 C   0  0  0  0  0  0  0  0  0  0  0  0
  129.7650  122.8400   60.5450 C   0  0  0  0  0  0  0  0  0  0  0  0
  128.2420  122.8060   60.4740 C   0  0  0  0  0  0  0  0  0  0  0  0
  130.3770  121.8040   61.4810 C   0  0  0  0  0  0  0  0  0  0  0  0
  131.7750  122.1500   62.0510 C   0  0  0  0  0  0  0  0  0  0  0  0
  133.0000  121.6960   61.1960 C   0  0  2  0  0  0  0  0  0  0  0  0
  133.7870  120.7890   61.9500 O   0  0  0  0  0  0  0  0  0  0  0  0
  133.9210  122.8390   60.6750 C   0  0  2  0  0  0  0  0  0  0  0  0
  134.3950  123.6400   61.7490 O   0  0  0  0  0  0  0  0  0  0  0  0
  133.2500  123.7060   59.6140 C   0  0  0  0  0  0  0  0  0  0  0  0
  133.2710  125.0530   59.5320 C   0  0  0  0  0  0  0  0  0  0  0  0
  132.4510  125.7700   58.5550 C   0  0  0  0  0  0  0  0  0  0  0  0
  132.9350  126.0780   57.4630 O   0  0  0  0  0  0  0  0  0  0  0  0
  130.9530  126.1270   58.8920 C   0  0  2  0  0  0  0  0  0  0  0  0
  130.8500  126.8440   60.2750 C   0  0  0  0  0  0  0  0  0  0  0  0
  130.9950  126.3380   61.3870 O   0  0  0  0  0  0  0  0  0  0  0  0
  130.5810  128.1350   60.0330 N   0  0  0  0  0  0  0  0  0  0  0  0
  130.4960  128.5360   58.6410 C   0  0  1  0  0  0  0  0  0  0  0  0
  131.7260  129.3840   58.2220 C   0  0  0  0  0  0  0  0  0  0  0  0
  131.4680  130.8960   58.0040 C   0  0  0  0  0  0  0  0  0  0  0  0
  130.0480  131.3270   58.4210 C   0  0  0  0  0  0  0  0  0  0  0  0
  131.7510  131.2960   56.5430 C   0  0  0  0  0  0  0  0  0  0  0  0
  130.3770  127.1970   57.8890 C   0  0  2  0  0  0  0  0  0  0  0  0
  128.9390  126.9030   57.3150 C   0  0  2  0  0  0  0  0  0  0  0  0
  128.1880  128.0470   56.5950 C   0  0  0  0  0  0  0  0  0  0  0  0
  126.3382  126.4819   59.5352 H   0  0  0  0  0  0  0  0  0  0  0  0
  126.3696  127.3935   57.9877 H   0  0  0  0  0  0  0  0  0  0  0  0
  125.9950  125.6367   57.9877 H   0  0  0  0  0  0  0  0  0  0  0  0
  128.0244  124.4930   59.6683 H   0  0  0  0  0  0  0  0  0  0  0  0
  130.3340  124.3158   57.8648 H   0  0  0  0  0  0  0  0  0  0  0  0
  131.6340  123.6027   60.0253 H   0  0  0  0  0  0  0  0  0  0  0  0
  127.8276  122.7967   61.4929 H   0  0  0  0  0  0  0  0  0  0  0  0
  127.8799  123.6963   59.9389 H   0  0  0  0  0  0  0  0  0  0  0  0
  127.9200  121.9004   59.9389 H   0  0  0  0  0  0  0  0  0  0  0  0
  129.6906  121.6695   62.3300 H   0  0  0  0  0  0  0  0  0  0  0  0
  130.5193  120.8993   60.8717 H   0  0  0  0  0  0  0  0  0  0  0  0
  131.8306  123.2429   62.1631 H   0  0  0  0  0  0  0  0  0  0  0  0
  131.8534  121.5931   62.9964 H   0  0  0  0  0  0  0  0  0  0  0  0
  132.5642  121.2323   60.2987 H   0  0  0  0  0  0  0  0  0  0  0  0
  134.6700  121.1540   62.0390 H   0  0  0  0  0  0  0  0  0  0  0  0
  134.7784  122.3497   60.1898 H   0  0  0  0  0  0  0  0  0  0  0  0
  134.5330  123.0760   62.5130 H   0  0  0  0  0  0  0  0  0  0  0  0
  132.6882  123.1758   58.8309 H   0  0  0  0  0  0  0  0  0  0  0  0
  133.9182  125.6239   60.2140 H   0  0  0  0  0  0  0  0  0  0  0  0
  130.5230  128.8190   60.7740 H   0  0  0  0  0  0  0  0  0  0  0  0
  129.6439  129.1955   58.4197 H   0  0  0  0  0  0  0  0  0  0  0  0
  132.4879  129.2829   59.0089 H   0  0  0  0  0  0  0  0  0  0  0  0
  132.0354  128.9923   57.2418 H   0  0  0  0  0  0  0  0  0  0  0  0
  132.1681  131.4315   58.6622 H   0  0  0  0  0  0  0  0  0  0  0  0
  129.9787  131.3480   59.5186 H   0  0  0  0  0  0  0  0  0  0  0  0
  129.8368  132.3297   58.0210 H   0  0  0  0  0  0  0  0  0  0  0  0
  129.3151  130.6108   58.0210 H   0  0  0  0  0  0  0  0  0  0  0  0
  132.3862  132.1939   56.5251 H   0  0  0  0  0  0  0  0  0  0  0  0
  132.2676  130.4711   56.0305 H   0  0  0  0  0  0  0  0  0  0  0  0
  130.8012  131.5086   56.0305 H   0  0  0  0  0  0  0  0  0  0  0  0
  130.9549  127.1925   56.9531 H   0  0  0  0  0  0  0  0  0  0  0  0
  129.1540  126.2528   56.4542 H   0  0  0  0  0  0  0  0  0  0  0  0
  127.7449  128.7219   57.3421 H   0  0  0  0  0  0  0  0  0  0  0  0
  128.8932  128.6093   55.9654 H   0  0  0  0  0  0  0  0  0  0  0  0
  127.3916  127.6235   55.9654 H   0  0  0  0  0  0  0  0  0  0  0  0
  1  2  1  0
  2  3  2  0
  3  4  1  0
  4  5  1  0
  5  6  2  0
  6  7  1  0
  6  8  1  0
  8  9  1  0
  9 10  1  0
 10 11  1  0
 10 12  1  0
 12 13  1  0
 12 14  1  0
 14 15  2  0
 15 16  1  0
 16 17  2  0
 18 16  1  6
 18 19  1  0
 19 20  2  0
 19 21  1  0
 21 22  1  0
 22 23  1  0
 23 24  1  0
 24 25  1  0
 24 26  1  0
 22 27  1  0
 27 28  1  0
 28 29  1  0
 28  2  1  0
 18  4  1  0
 27 18  1  0
  1 30  1  0
  1 31  1  0
  1 32  1  0
  3 33  1  0
  4 34  1  6
  5 35  1  0
  7 36  1  0
  7 37  1  0
  7 38  1  0
  8 39  1  0
  8 40  1  0
  9 41  1  0
  9 42  1  0
 10 43  1  6
 11 44  1  0
 12 45  1  6
 13 46  1  0
 14 47  1  0
 15 48  1  0
 21 49  1  0
 22 50  1  1
 23 51  1  0
 23 52  1  0
 24 53  1  0
 25 54  1  0
 25 55  1  0
 25 56  1  0
 26 57  1  0
 26 58  1  0
 26 59  1  0
 27 60  1  6
 28 61  1  6
 29 62  1  0
 29 63  1  0
 29 64  1  0
M  END
>  <Binding energies>  (1) 
[-4.48]

>  <Ligand effiencies>  (1) 
[-0.13176470588235295]

>  <Interactions>  (1) 
["V-A:ILE:369:CG2:3237, V-A:ASP:366:CA:3210, V-B:PRO:540:CA:9855, V-A:ILE:369:CB:3236, H-A:TYR:531:OH:4795, V-B:TYR:539:CE2:9848, V-A:ASP:366:CG:3213, V-A:LEU:363:CD1:3189, V-B:TYR:539:CZ:9849, V-A:TYR:531:CE2:4793, H-B:TYR:539:OH:9850, H-A:GLY:454:N:4050, V-A:ILE:369:CD1:3239, V-B:TYR:539:CD2:9846, V-A:TYR:531:CZ:4794, H-A:SER:385:OG:3410, V-A:MET:535:CE:4835, V-A:ASP:366:CB:3212, V-A:LEU:475:CD2:4259, H-A:GLU:543:OE1:4909, H-A:SER:385:O:3406, H-A:ASP:366:OD2:3215"]

$$$$
ZINC13386425
     RDKit          3D

 38 37  0  0  0  0  0  0  0  0999 V2000
  126.8290  122.4680   56.4250 C   0  0  0  0  0  0  0  0  0  0  0  0
  126.4020  123.0040   57.4360 C   0  0  0  0  0  0  0  0  0  0  0  0
  125.8390  123.5980   58.6080 C   0  0  0  0  0  0  0  0  0  0  0  0
  126.4230  123.6730   59.8200 C   0  0  0  0  0  0  0  0  0  0  0  0
  127.8040  123.1580   60.2190 C   0  0  0  0  0  0  0  0  0  0  0  0
  127.8820  122.6090   61.6610 C   0  0  2  0  0  0  0  0  0  0  0  0
  126.7170  122.9670   62.3830 O   0  0  0  0  0  0  0  0  0  0  0  0
  129.1610  123.0570   62.4210 C   0  0  1  0  0  0  0  0  0  0  0  0
  129.0890  122.5710   64.1410 Cl  0  0  0  0  0  0  0  0  0  0  0  0
  130.4930  122.5570   61.8200 C   0  0  0  0  0  0  0  0  0  0  0  0
  130.4640  121.1220   61.3140 C   0  0  0  0  0  0  0  0  0  0  0  0
  131.4730  120.4440   60.7340 C   0  0  0  0  0  0  0  0  0  0  0  0
  132.8590  120.9650   60.3960 C   0  0  0  0  0  0  0  0  0  0  0  0
  133.7330  121.1590   61.6260 C   0  0  0  0  0  0  0  0  0  0  0  0
  134.1610  122.3170   62.1650 C   0  0  0  0  0  0  0  0  0  0  0  0
  133.8860  123.7310   61.6790 C   0  0  0  0  0  0  0  0  0  0  0  0
  133.5470  124.6990   62.8190 C   0  0  0  0  0  0  0  0  0  0  0  0
  127.2136  121.9853   55.5145 H   0  0  0  0  0  0  0  0  0  0  0  0
  124.8342  124.0351   58.5113 H   0  0  0  0  0  0  0  0  0  0  0  0
  125.8377  124.1613   60.6131 H   0  0  0  0  0  0  0  0  0  0  0  0
  128.0845  122.3505   59.5267 H   0  0  0  0  0  0  0  0  0  0  0  0
  128.4885  124.0177   60.1702 H   0  0  0  0  0  0  0  0  0  0  0  0
  127.9428  121.5136   61.5810 H   0  0  0  0  0  0  0  0  0  0  0  0
  126.7750  123.8980   62.6130 H   0  0  0  0  0  0  0  0  0  0  0  0
  129.1622  124.1521   62.3178 H   0  0  0  0  0  0  0  0  0  0  0  0
  130.7556  123.2124   60.9765 H   0  0  0  0  0  0  0  0  0  0  0  0
  131.2309  122.5838   62.6353 H   0  0  0  0  0  0  0  0  0  0  0  0
  129.5151  120.5790   61.4352 H   0  0  0  0  0  0  0  0  0  0  0  0
  131.2703  119.3941   60.4759 H   0  0  0  0  0  0  0  0  0  0  0  0
  133.3510  120.2451   59.7254 H   0  0  0  0  0  0  0  0  0  0  0  0
  132.7355  121.9487   59.9195 H   0  0  0  0  0  0  0  0  0  0  0  0
  134.0552  120.2405   62.1384 H   0  0  0  0  0  0  0  0  0  0  0  0
  134.7854  122.2288   63.0663 H   0  0  0  0  0  0  0  0  0  0  0  0
  134.7801  124.1028   61.1572 H   0  0  0  0  0  0  0  0  0  0  0  0
  133.0117  123.6867   61.0129 H   0  0  0  0  0  0  0  0  0  0  0  0
  133.7208  124.2028   63.7852 H   0  0  0  0  0  0  0  0  0  0  0  0
  134.1862  125.5911   62.7448 H   0  0  0  0  0  0  0  0  0  0  0  0
  132.4909  124.9974   62.7448 H   0  0  0  0  0  0  0  0  0  0  0  0
  1  2  3  0
  2  3  1  0
  3  4  2  0
  4  5  1  0
  5  6  1  0
  6  7  1  0
  6  8  1  0
  8  9  1  0
  8 10  1  0
 10 11  1  0
 11 12  2  0
 12 13  1  0
 13 14  1  0
 14 15  2  0
 15 16  1  0
 16 17  1  0
  1 18  1  0
  3 19  1  0
  4 20  1  0
  5 21  1  0
  5 22  1  0
  6 23  1  6
  7 24  1  0
  8 25  1  1
 10 26  1  0
 10 27  1  0
 11 28  1  0
 12 29  1  0
 13 30  1  0
 13 31  1  0
 14 32  1  0
 15 33  1  0
 16 34  1  0
 16 35  1  0
 17 36  1  0
 17 37  1  0
 17 38  1  0
M  END
>  <Binding energies>  (1) 
[-5.76]

>  <Ligand effiencies>  (1) 
[-0.32]

>  <Interactions>  (1) 
["V-A:ILE:369:CG2:3237, V-B:PRO:540:CA:9855, V-A:GLY:454:CA:4049, V-B:ALA:541:CB:9864, V-B:TYR:539:CE2:9848, V-B:GLU:543:CG:9879, V-B:TYR:539:C:9839, H-B:GLU:543:OE1:9881, H-B:ALA:541:N:9863, V-B:PRO:540:CB:9857, V-A:SER:385:C:3405, V-B:PRO:540:N:9856, V-A:ILE:369:CD1:3239, V-B:PRO:540:CD:9859, V-B:TYR:539:CD2:9846, V-A:SER:385:CB:3409, V-A:LEU:475:CD2:4259, V-A:ARG:545:CZ:4926, V-B:TYR:539:CD1:9845, V-A:SER:385:CA:3407, V-B:PRO:540:C:9853, V-B:TYR:539:CE1:9847"]

$$$$
ZINC134254218
     RDKit          3D

 37 39  0  0  0  0  0  0  0  0999 V2000
  129.6580  123.0050   75.3450 C   0  0  0  0  0  0  0  0  0  0  0  0
  129.9950  124.3380   75.7090 O   0  0  0  0  0  0  0  0  0  0  0  0
  131.2880  124.7940   75.5170 C   0  0  0  0  0  0  0  0  0  0  0  0
  132.4320  124.0400   75.8320 C   0  0  0  0  0  0  0  0  0  0  0  0
  133.7080  124.5590   75.6240 C   0  0  0  0  0  0  0  0  0  0  0  0
  133.8620  125.8390   75.0980 C   0  0  0  0  0  0  0  0  0  0  0  0
  132.7390  126.5980   74.7820 C   0  0  0  0  0  0  0  0  0  0  0  0
  131.4520  126.0850   74.9820 C   0  0  0  0  0  0  0  0  0  0  0  0
  130.2400  126.9540   74.6200 C   0  0  0  0  0  0  0  0  0  0  0  0
  129.5220  126.5550   73.3170 C   0  0  0  0  0  0  0  0  0  0  0  0
  129.1170  125.3770   73.2640 O   0  0  0  0  0  0  0  0  0  0  0  0
  129.4360  127.5290   72.4770 N   0  0  0  0  0  0  0  0  0  0  0  0
  128.8720  127.4380   71.2340 C   0  0  0  0  0  0  0  0  0  0  0  0
  127.7150  126.9190   70.8800 N   0  0  0  0  0  0  0  0  0  0  0  0
  127.4880  126.9780   69.5110 N   0  0  0  0  0  0  0  0  0  0  0  0
  128.4810  127.5200   68.8420 C   0  0  0  0  0  0  0  0  0  0  0  0
  128.4990  127.7080   67.3490 C   0  0  0  0  0  0  0  0  0  0  0  0
  127.9090  128.8490   66.7860 C   0  0  0  0  0  0  0  0  0  0  0  0
  127.9150  129.0450   65.4080 C   0  0  0  0  0  0  0  0  0  0  0  0
  128.5090  128.0990   64.5780 C   0  0  0  0  0  0  0  0  0  0  0  0
  128.5180  128.3420   62.8690 Cl  0  0  0  0  0  0  0  0  0  0  0  0
  129.0980  126.9580   65.1180 C   0  0  0  0  0  0  0  0  0  0  0  0
  129.0920  126.7650   66.4970 C   0  0  0  0  0  0  0  0  0  0  0  0
  129.7990  128.0140   69.8800 S   0  0  0  0  0  0  0  0  0  0  0  0
  129.5061  122.4040   76.2537 H   0  0  0  0  0  0  0  0  0  0  0  0
  128.7329  123.0102   74.7499 H   0  0  0  0  0  0  0  0  0  0  0  0
  130.4744  122.5699   74.7499 H   0  0  0  0  0  0  0  0  0  0  0  0
  132.3182  123.0280   76.2477 H   0  0  0  0  0  0  0  0  0  0  0  0
  134.5940  123.9575   75.8753 H   0  0  0  0  0  0  0  0  0  0  0  0
  134.8691  126.2494   74.9326 H   0  0  0  0  0  0  0  0  0  0  0  0
  132.8640  127.6107   74.3711 H   0  0  0  0  0  0  0  0  0  0  0  0
  129.5142  126.8884   75.4440 H   0  0  0  0  0  0  0  0  0  0  0  0
  130.6265  127.9714   74.4602 H   0  0  0  0  0  0  0  0  0  0  0  0
  127.4367  129.5967   67.4401 H   0  0  0  0  0  0  0  0  0  0  0  0
  127.4518  129.9446   64.9765 H   0  0  0  0  0  0  0  0  0  0  0  0
  129.5658  126.2127   64.4579 H   0  0  0  0  0  0  0  0  0  0  0  0
  129.5572  125.8636   66.9225 H   0  0  0  0  0  0  0  0  0  0  0  0
  1  2  1  0
  2  3  1  0
  3  4  2  0
  4  5  1  0
  5  6  2  0
  6  7  1  0
  7  8  2  0
  8  9  1  0
  9 10  1  0
 10 11  1  0
 10 12  2  0
 12 13  1  0
 13 14  2  0
 14 15  1  0
 15 16  2  0
 16 17  1  0
 17 18  2  0
 18 19  1  0
 19 20  2  0
 20 21  1  0
 20 22  1  0
 22 23  2  0
 16 24  1  0
  8  3  1  0
 24 13  1  0
 23 17  1  0
  1 25  1  0
  1 26  1  0
  1 27  1  0
  4 28  1  0
  5 29  1  0
  6 30  1  0
  7 31  1  0
  9 32  1  0
  9 33  1  0
 18 34  1  0
 19 35  1  0
 22 36  1  0
 23 37  1  0
M  CHG  1  11  -1
M  END
>  <Binding energies>  (1) 
[-7.74]

>  <Ligand effiencies>  (1) 
[-0.3225]

>  <Interactions>  (1) 
["V-A:HIS:456:CE1:4070, V-A:LYS:547:CG:4948, V-A:GLU:543:C:4902, V-A:HIS:456:CB:4065, H-B:LYS:547:NZ:9923, V-B:GLU:543:CB:9878, V-B:LYS:547:CE:9922, V-A:GLU:543:CG:4907, V-B:GLU:543:CD:9880, V-A:GLU:543:CB:4906, V-A:GLU:543:CD:4908, V-A:HIS:456:C:4061, V-B:GLU:543:CG:9879, V-B:HIS:456:CE1:9041, V-A:HIS:456:CD2:4068, V-A:HIS:456:CG:4066"]

$$$$
ZINC134254218-again1
     RDKit          3D

 38 40  0  0  0  0  0  0  0  0999 V2000
  128.5370  127.7200   70.5280 C   0  0  0  0  0  0  0  0  0  0  0  0
  129.2750  128.5050   69.5980 O   0  0  0  0  0  0  0  0  0  0  0  0
  128.8780  128.5480   68.2730 C   0  0  0  0  0  0  0  0  0  0  0  0
  128.2950  129.6800   67.6750 C   0  0  0  0  0  0  0  0  0  0  0  0
  127.9350  129.6700   66.3300 C   0  0  0  0  0  0  0  0  0  0  0  0
  128.1550  128.5340   65.5580 C   0  0  0  0  0  0  0  0  0  0  0  0
  128.7300  127.4040   66.1340 C   0  0  0  0  0  0  0  0  0  0  0  0
  129.0890  127.3980   67.4870 C   0  0  0  0  0  0  0  0  0  0  0  0
  129.7120  126.1290   68.0730 C   0  0  0  0  0  0  0  0  0  0  0  0
  130.2460  125.1790   66.9890 C   0  0  0  0  0  0  0  0  0  0  0  0
  129.6610  124.1180   66.7680 O   0  0  0  0  0  0  0  0  0  0  0  0
  131.3510  125.6020   66.3380 N   0  0  0  0  0  0  0  0  0  0  0  0
  132.0260  124.9270   65.3300 C   0  0  0  0  0  0  0  0  0  0  0  0
  133.2790  125.0640   64.9560 N   0  0  0  0  0  0  0  0  0  0  0  0
  133.6120  124.2220   63.9020 N   0  0  0  0  0  0  0  0  0  0  0  0
  132.6130  123.4660   63.5020 C   0  0  0  0  0  0  0  0  0  0  0  0
  132.7030  122.4670   62.3800 C   0  0  0  0  0  0  0  0  0  0  0  0
  131.5370  122.0800   61.7020 C   0  0  0  0  0  0  0  0  0  0  0  0
  131.5930  121.1580   60.6610 C   0  0  0  0  0  0  0  0  0  0  0  0
  132.8180  120.6110   60.2870 C   0  0  0  0  0  0  0  0  0  0  0  0
  132.8890  119.4670   58.9960 Cl  0  0  0  0  0  0  0  0  0  0  0  0
  133.9860  120.9830   60.9480 C   0  0  0  0  0  0  0  0  0  0  0  0
  133.9270  121.9060   61.9890 C   0  0  0  0  0  0  0  0  0  0  0  0
  131.1460  123.7440   64.4160 S   0  0  0  0  0  0  0  0  0  0  0  0
  128.8110  128.0115   71.5527 H   0  0  0  0  0  0  0  0  0  0  0  0
  127.4604  127.8861   70.3750 H   0  0  0  0  0  0  0  0  0  0  0  0
  128.7692  126.6557   70.3750 H   0  0  0  0  0  0  0  0  0  0  0  0
  128.1214  130.5840   68.2772 H   0  0  0  0  0  0  0  0  0  0  0  0
  127.4761  130.5614   65.8774 H   0  0  0  0  0  0  0  0  0  0  0  0
  127.8752  128.5282   64.4942 H   0  0  0  0  0  0  0  0  0  0  0  0
  128.9037  126.5079   65.5201 H   0  0  0  0  0  0  0  0  0  0  0  0
  130.5452  126.4168   68.7310 H   0  0  0  0  0  0  0  0  0  0  0  0
  128.9247  125.5955   68.6258 H   0  0  0  0  0  0  0  0  0  0  0  0
  131.7300  126.5010   66.5950 H   0  0  0  0  0  0  0  0  0  0  0  0
  130.5683  122.5100   61.9965 H   0  0  0  0  0  0  0  0  0  0  0  0
  130.6730  120.8623   60.1355 H   0  0  0  0  0  0  0  0  0  0  0  0
  134.9516  120.5493   60.6489 H   0  0  0  0  0  0  0  0  0  0  0  0
  134.8506  122.1981   62.5102 H   0  0  0  0  0  0  0  0  0  0  0  0
  1  2  1  0
  2  3  1  0
  3  4  2  0
  4  5  1  0
  5  6  2  0
  6  7  1  0
  7  8  2  0
  8  9  1  0
  9 10  1  0
 10 11  2  0
 10 12  1  0
 12 13  1  0
 13 14  2  0
 14 15  1  0
 15 16  2  0
 16 17  1  0
 17 18  2  0
 18 19  1  0
 19 20  2  0
 20 21  1  0
 20 22  1  0
 22 23  2  0
 16 24  1  0
  8  3  1  0
 24 13  1  0
 23 17  1  0
  1 25  1  0
  1 26  1  0
  1 27  1  0
  4 28  1  0
  5 29  1  0
  6 30  1  0
  7 31  1  0
  9 32  1  0
  9 33  1  0
 12 34  1  0
 18 35  1  0
 19 36  1  0
 22 37  1  0
 23 38  1  0
M  END
>  <Binding energies>  (1) 
[-6.88]

>  <Ligand effiencies>  (1) 
[-0.2752]

>  <Interactions>  (1) 
["V-A:ILE:369:CG2:3237, V-A:GLU:543:CA:4904, V-A:GLY:454:CA:4049, V-B:HIS:456:CD2:9039, H-A:GLU:543:OE2:4910, V-B:GLU:543:CB:9878, V-B:TYR:539:CE2:9848, V-A:TYR:484:CE2:4346, V-B:GLU:543:CG:9879, V-B:TYR:484:CE2:9317, V-A:TYR:484:CZ:4347, V-A:GLU:543:CD:4908, V-B:HIS:456:CE1:9041, H-A:GLY:454:N:4050, V-A:SER:385:C:3405, V-A:HIS:456:CE1:4070, V-B:TYR:484:CZ:9318, V-A:ILE:369:CD1:3239, V-B:TYR:539:CD2:9846, V-A:GLU:543:CG:4907, V-A:SER:385:CB:3409, V-B:GLU:543:CD:9880, V-A:LEU:475:CD2:4259, H-A:ARG:545:NH2:4928, V-B:TYR:539:CG:9844, V-A:GLU:543:CB:4906, H-A:ARG:545:NE:4924, V-A:SER:385:CA:3407, H-A:TYR:484:OH:4348"]

$$$$
ZINC13467174
     RDKit          3D

 61 64  0  0  0  0  0  0  0  0999 V2000
  132.3040  125.4620   65.4730 C   0  0  0  0  0  0  0  0  0  0  0  0
  133.5500  124.7330   64.9890 C   0  0  0  0  0  0  0  0  0  0  0  0
  134.6740  125.2050   65.1570 O   0  0  0  0  0  0  0  0  0  0  0  0
  133.2540  123.5590   64.3830 O   0  0  0  0  0  0  0  0  0  0  0  0
  133.0870  123.4570   62.9670 C   0  0  2  0  0  0  0  0  0  0  0  0
  132.5020  124.7640   62.3830 C   0  0  0  0  0  0  0  0  0  0  0  0
  131.8370  124.5610   61.0110 C   0  0  0  0  0  0  0  0  0  0  0  0
  130.7360  123.4830   61.0030 C   0  0  0  0  0  0  0  0  0  0  0  0
  129.8080  123.4090   60.0030 C   0  0  0  0  0  0  0  0  0  0  0  0
  129.7940  124.3130   58.7640 C   0  0  0  0  0  0  0  0  0  0  0  0
  128.4220  124.9930   58.6350 C   0  0  0  0  0  0  0  0  0  0  0  0
  127.2420  123.9840   58.5260 C   0  0  2  0  0  0  0  0  0  0  0  0
  127.2390  123.2890   57.1420 C   0  0  0  0  0  0  0  0  0  0  0  0
  125.9050  124.7120   58.7800 C   0  0  0  0  0  0  0  0  0  0  0  0
  125.7310  124.7960   60.3020 C   0  0  0  0  0  0  0  0  0  0  0  0
  126.6610  123.7290   60.8960 C   0  0  0  0  0  0  0  0  0  0  0  0
  127.2860  122.9740   59.7020 C   0  0  2  0  0  0  0  0  0  0  0  0
  128.6930  122.3370   59.9400 C   0  0  2  0  0  0  0  0  0  0  0  0
  128.7180  121.3530   61.1360 C   0  0  0  0  0  0  0  0  0  0  0  0
  130.1450  121.1080   61.6680 C   0  0  1  0  0  0  0  0  0  0  0  0
  130.9490  120.4990   60.6470 O   0  0  0  0  0  0  0  0  0  0  0  0
  131.0440  119.1570   60.5150 C   0  0  0  0  0  0  0  0  0  0  0  0
  130.2030  118.4170   61.5470 C   0  0  0  0  0  0  0  0  0  0  0  0
  131.7170  118.5500   59.6810 O   0  0  0  0  0  0  0  0  0  0  0  0
  130.7780  122.4510   62.1680 C   0  0  2  0  0  0  0  0  0  0  0  0
  129.9680  122.9840   63.3870 C   0  0  0  0  0  0  0  0  0  0  0  0
  132.2580  122.2010   62.6010 C   0  0  0  0  0  0  0  0  0  0  0  0
  132.2885  125.4711   66.5729 H   0  0  0  0  0  0  0  0  0  0  0  0
  132.3152  126.4960   65.0979 H   0  0  0  0  0  0  0  0  0  0  0  0
  131.4081  124.9456   65.0979 H   0  0  0  0  0  0  0  0  0  0  0  0
  134.0744  123.3262   62.5002 H   0  0  0  0  0  0  0  0  0  0  0  0
  131.7495  125.1555   63.0834 H   0  0  0  0  0  0  0  0  0  0  0  0
  133.3369  125.4667   62.2446 H   0  0  0  0  0  0  0  0  0  0  0  0
  131.3888  125.5158   60.6989 H   0  0  0  0  0  0  0  0  0  0  0  0
  132.6238  124.2182   60.3229 H   0  0  0  0  0  0  0  0  0  0  0  0
  130.5751  125.0812   58.8629 H   0  0  0  0  0  0  0  0  0  0  0  0
  129.9853  123.7053   57.8673 H   0  0  0  0  0  0  0  0  0  0  0  0
  128.2607  125.6243   59.5212 H   0  0  0  0  0  0  0  0  0  0  0  0
  128.4356  125.5797   57.7046 H   0  0  0  0  0  0  0  0  0  0  0  0
  127.2343  122.1977   57.2797 H   0  0  0  0  0  0  0  0  0  0  0  0
  126.3422  123.5917   56.5816 H   0  0  0  0  0  0  0  0  0  0  0  0
  128.1384  123.5840   56.5816 H   0  0  0  0  0  0  0  0  0  0  0  0
  125.9348  125.7221   58.3455 H   0  0  0  0  0  0  0  0  0  0  0  0
  125.0664  124.1730   58.3150 H   0  0  0  0  0  0  0  0  0  0  0  0
  126.0155  125.7949   60.6643 H   0  0  0  0  0  0  0  0  0  0  0  0
  124.6849  124.6267   60.5970 H   0  0  0  0  0  0  0  0  0  0  0  0
  127.4488  124.2050   61.4984 H   0  0  0  0  0  0  0  0  0  0  0  0
  126.1079  123.0424   61.5538 H   0  0  0  0  0  0  0  0  0  0  0  0
  126.7049  122.0634   59.4945 H   0  0  0  0  0  0  0  0  0  0  0  0
  128.9118  121.7166   59.0584 H   0  0  0  0  0  0  0  0  0  0  0  0
  128.1050  121.7696   61.9488 H   0  0  0  0  0  0  0  0  0  0  0  0
  128.3216  120.3889   60.7847 H   0  0  0  0  0  0  0  0  0  0  0  0
  130.0995  120.4200   62.5251 H   0  0  0  0  0  0  0  0  0  0  0  0
  130.5281  118.7030   62.5582 H   0  0  0  0  0  0  0  0  0  0  0  0
  129.1435  118.6810   61.4141 H   0  0  0  0  0  0  0  0  0  0  0  0
  130.3301  117.3325   61.4141 H   0  0  0  0  0  0  0  0  0  0  0  0
  130.4553  122.6633   64.3196 H   0  0  0  0  0  0  0  0  0  0  0  0
  129.9320  124.0828   63.3512 H   0  0  0  0  0  0  0  0  0  0  0  0
  128.9446  122.5823   63.3512 H   0  0  0  0  0  0  0  0  0  0  0  0
  132.2429  121.5412   63.4810 H   0  0  0  0  0  0  0  0  0  0  0  0
  132.7531  121.7695   61.7185 H   0  0  0  0  0  0  0  0  0  0  0  0
  1  2  1  0
  2  3  2  0
  2  4  1  0
  4  5  1  0
  5  6  1  0
  6  7  1  0
  7  8  1  0
  8  9  2  0
  9 10  1  0
 10 11  1  0
 11 12  1  0
 12 13  1  6
 12 14  1  0
 14 15  1  0
 15 16  1  0
 16 17  1  0
 17 18  1  0
 18 19  1  0
 19 20  1  0
 20 21  1  0
 21 22  1  0
 22 23  1  0
 22 24  2  0
 20 25  1  0
 25 26  1  1
 25 27  1  0
 27  5  1  0
 25  8  1  0
 18  9  1  0
 17 12  1  0
  1 28  1  0
  1 29  1  0
  1 30  1  0
  5 31  1  6
  6 32  1  0
  6 33  1  0
  7 34  1  0
  7 35  1  0
 10 36  1  0
 10 37  1  0
 11 38  1  0
 11 39  1  0
 13 40  1  0
 13 41  1  0
 13 42  1  0
 14 43  1  0
 14 44  1  0
 15 45  1  0
 15 46  1  0
 16 47  1  0
 16 48  1  0
 17 49  1  6
 18 50  1  6
 19 51  1  0
 19 52  1  0
 20 53  1  1
 23 54  1  0
 23 55  1  0
 23 56  1  0
 26 57  1  0
 26 58  1  0
 26 59  1  0
 27 60  1  0
 27 61  1  0
M  END
>  <Binding energies>  (1) 
[-7.93]

>  <Ligand effiencies>  (1) 
[-0.2937037037037037]

>  <Interactions>  (1) 
["V-B:PRO:540:CA:9855, V-A:GLY:454:CA:4049, V-B:ASP:366:CG:8184, V-B:ALA:541:CB:9864, H-A:ARG:545:NH1:4927, V-B:TYR:539:CE2:9848, V-A:LEU:475:CG:4257, V-B:TYR:539:C:9839, V-B:TYR:539:CZ:9849, V-A:LEU:475:CD1:4258, V-A:GLU:543:CD:4908, V-B:PRO:540:CB:9857, H-A:GLY:454:N:4050, V-B:PRO:540:N:9856, V-A:PRO:482:CB:4326, V-B:TYR:539:CD2:9846, H-A:SER:385:OG:3410, V-A:LEU:475:CD2:4259, H-A:ARG:545:NH2:4928, V-A:ARG:545:CZ:4926, H-A:HIS:383:HE2:3395, H-A:ARG:545:NE:4924, V-B:PRO:540:C:9853, H-A:TYR:484:OH:4348"]

$$$$
ZINC13535685
     RDKit          3D

 48 51  0  0  0  0  0  0  0  0999 V2000
  128.1120  123.9210   62.0280 C   0  0  0  0  0  0  0  0  0  0  0  0
  129.0970  123.6470   63.0670 N   0  0  0  0  0  0  0  0  0  0  0  0
  128.7060  122.5290   63.9180 C   0  0  0  0  0  0  0  0  0  0  0  0
  130.4390  123.8650   62.8130 C   0  0  0  0  0  0  0  0  0  0  0  0
  130.7800  123.7870   61.4910 N   0  0  0  0  0  0  0  0  0  0  0  0
  132.0030  123.9640   61.1340 C   0  0  0  0  0  0  0  0  0  0  0  0
  132.4020  123.8820   59.7370 C   0  0  0  0  0  0  0  0  0  0  0  0
  133.6850  124.0640   59.3460 C   0  0  0  0  0  0  0  0  0  0  0  0
  134.7070  124.3500   60.3420 C   0  0  0  0  0  0  0  0  0  0  0  0
  134.3150  124.4250   61.6320 C   0  0  0  0  0  0  0  0  0  0  0  0
  133.0050  124.2460   62.0820 N   0  0  0  0  0  0  0  0  0  0  0  0
  132.7470  124.3600   63.4360 C   0  0  0  0  0  0  0  0  0  0  0  0
  133.5970  124.6370   64.2920 O   0  0  0  0  0  0  0  0  0  0  0  0
  131.3440  124.1220   63.8010 C   0  0  0  0  0  0  0  0  0  0  0  0
  130.9590  124.2230   65.2090 C   0  0  0  0  0  0  0  0  0  0  0  0
  130.2150  125.2280   65.7260 C   0  0  0  0  0  0  0  0  0  0  0  0
  129.5640  126.6410   64.8990 S   0  0  0  0  0  0  0  0  0  0  0  0
  128.8250  127.2310   66.3590 C   0  0  0  0  0  0  0  0  0  0  0  0
  127.9560  128.6550   66.3260 S   0  0  0  0  0  0  0  0  0  0  0  0
  129.1020  126.3640   67.3830 N   0  0  0  0  0  0  0  0  0  0  0  0
  128.6000  126.6030   68.7570 C   0  0  0  0  0  0  0  0  0  0  0  0
  129.0270  127.9530   69.3830 C   0  0  2  0  0  0  0  0  0  0  0  0
  130.5460  128.1110   69.5330 C   0  0  0  0  0  0  0  0  0  0  0  0
  130.8090  127.7260   70.9690 C   0  0  0  0  0  0  0  0  0  0  0  0
  129.5810  128.3040   71.6550 C   0  0  0  0  0  0  0  0  0  0  0  0
  128.5330  128.0350   70.7290 O   0  0  0  0  0  0  0  0  0  0  0  0
  129.8500  125.2610   67.1250 C   0  0  0  0  0  0  0  0  0  0  0  0
  130.1640  124.4160   67.9680 O   0  0  0  0  0  0  0  0  0  0  0  0
  127.1521  124.1880   62.4941 H   0  0  0  0  0  0  0  0  0  0  0  0
  128.4610  124.7562   61.4029 H   0  0  0  0  0  0  0  0  0  0  0  0
  127.9796  123.0256   61.4029 H   0  0  0  0  0  0  0  0  0  0  0  0
  128.8075  122.8191   64.9742 H   0  0  0  0  0  0  0  0  0  0  0  0
  127.6600  122.2588   63.7108 H   0  0  0  0  0  0  0  0  0  0  0  0
  129.3556  121.6658   63.7108 H   0  0  0  0  0  0  0  0  0  0  0  0
  131.6379  123.6656   58.9758 H   0  0  0  0  0  0  0  0  0  0  0  0
  133.9537  123.9961   58.2815 H   0  0  0  0  0  0  0  0  0  0  0  0
  135.7583  124.4993   60.0549 H   0  0  0  0  0  0  0  0  0  0  0  0
  135.0859  124.6437   62.3856 H   0  0  0  0  0  0  0  0  0  0  0  0
  131.2966  123.4297   65.8922 H   0  0  0  0  0  0  0  0  0  0  0  0
  127.5008  126.5721   68.7291 H   0  0  0  0  0  0  0  0  0  0  0  0
  129.0426  125.8177   69.3874 H   0  0  0  0  0  0  0  0  0  0  0  0
  128.6281  128.7204   68.7033 H   0  0  0  0  0  0  0  0  0  0  0  0
  131.0796  127.4402   68.8436 H   0  0  0  0  0  0  0  0  0  0  0  0
  130.8932  129.1273   69.2950 H   0  0  0  0  0  0  0  0  0  0  0  0
  130.8632  126.6341   71.0909 H   0  0  0  0  0  0  0  0  0  0  0  0
  131.7660  128.0930   71.3685 H   0  0  0  0  0  0  0  0  0  0  0  0
  129.3950  127.8043   72.6171 H   0  0  0  0  0  0  0  0  0  0  0  0
  129.6829  129.3733   71.8919 H   0  0  0  0  0  0  0  0  0  0  0  0
  1  2  1  0
  2  3  1  0
  2  4  1  0
  4  5  1  0
  5  6  2  0
  6  7  1  0
  7  8  2  0
  8  9  1  0
  9 10  2  0
 10 11  1  0
 11 12  1  0
 12 13  2  0
 12 14  1  0
 14 15  1  0
 15 16  2  0
 16 17  1  0
 17 18  1  0
 18 19  2  0
 18 20  1  0
 20 21  1  0
 21 22  1  0
 22 23  1  0
 23 24  1  0
 24 25  1  0
 25 26  1  0
 20 27  1  0
 27 28  2  0
 14  4  2  0
 27 16  1  0
 11  6  1  0
 26 22  1  0
  1 29  1  0
  1 30  1  0
  1 31  1  0
  3 32  1  0
  3 33  1  0
  3 34  1  0
  7 35  1  0
  8 36  1  0
  9 37  1  0
 10 38  1  0
 15 39  1  0
 21 40  1  0
 21 41  1  0
 22 42  1  6
 23 43  1  0
 23 44  1  0
 24 45  1  0
 24 46  1  0
 25 47  1  0
 25 48  1  0
M  END
>  <Binding energies>  (1) 
[-7.5]

>  <Ligand effiencies>  (1) 
[-0.26785714285714285]

>  <Interactions>  (1) 
["V-A:ILE:369:CG2:3237, V-A:ASP:366:CA:3210, V-A:GLU:543:CA:4904, V-B:GLU:543:C:9874, V-A:ILE:369:CB:3236, V-A:GLU:543:C:4902, V-B:HIS:456:CD2:9039, V-B:GLU:543:CB:9878, V-B:ALA:541:CB:9864, V-B:TYR:539:CE2:9848, V-A:TYR:484:CE2:4346, V-B:GLU:543:CG:9879, V-A:GLY:544:C:4912, V-A:ASP:366:CG:3213, V-A:TYR:484:CZ:4347, V-A:GLU:543:CD:4908, V-B:GLU:543:CA:9876, H-A:GLY:454:N:4050, V-B:HIS:456:CE1:9041, V-A:ILE:369:CD1:3239, V-A:HIS:456:CE1:4070, V-A:GLU:543:CG:4907, V-B:GLU:543:CD:9880, V-A:ILE:369:CG1:3238, V-A:ASP:366:CB:3212, H-A:ARG:545:NH2:4928, V-A:GLU:543:CB:4906, H-A:ARG:545:NE:4924, V-B:ALA:541:CA:9862, H-A:TYR:484:OH:4348"]

$$$$
ZINC13559370
     RDKit          3D

 45 47  0  0  0  0  0  0  0  0999 V2000
  127.6600  131.8880   63.5860 C   0  0  0  0  0  0  0  0  0  0  0  0
  128.3480  130.9860   64.6310 C   0  0  0  0  0  0  0  0  0  0  0  0
  127.6200  129.6560   64.9710 C   0  0  2  0  0  0  0  0  0  0  0  0
  126.1360  129.6550   64.5430 C   0  0  0  0  0  0  0  0  0  0  0  0
  127.6700  129.4380   66.3740 O   0  0  0  0  0  0  0  0  0  0  0  0
  128.3360  128.2860   66.5770 C   0  0  0  0  0  0  0  0  0  0  0  0
  128.4380  127.8890   67.9990 C   0  0  0  0  0  0  0  0  0  0  0  0
  127.3300  127.3230   68.6400 C   0  0  0  0  0  0  0  0  0  0  0  0
  127.3990  126.9640   69.9840 C   0  0  0  0  0  0  0  0  0  0  0  0
  128.5810  127.1680   70.6950 C   0  0  0  0  0  0  0  0  0  0  0  0
  128.6780  126.7190   72.4270 S   0  0  0  0  0  0  0  0  0  0  0  0
  130.3500  127.4110   72.9560 C   0  0  0  0  0  0  0  0  0  0  0  0
  127.6230  127.4510   73.1360 O   0  0  0  0  0  0  0  0  0  0  0  0
  128.7360  125.2540   72.4960 O   0  0  0  0  0  0  0  0  0  0  0  0
  129.6920  127.7330   70.0670 C   0  0  0  0  0  0  0  0  0  0  0  0
  129.6170  128.0920   68.7250 C   0  0  0  0  0  0  0  0  0  0  0  0
  128.7140  127.6330   65.4640 C   0  0  0  0  0  0  0  0  0  0  0  0
  129.4740  126.3700   65.3560 C   0  0  0  0  0  0  0  0  0  0  0  0
  130.2540  125.9270   66.4310 C   0  0  0  0  0  0  0  0  0  0  0  0
  130.9660  124.7300   66.3460 C   0  0  0  0  0  0  0  0  0  0  0  0
  130.8990  123.9610   65.1860 C   0  0  0  0  0  0  0  0  0  0  0  0
  130.1170  124.3870   64.1130 C   0  0  0  0  0  0  0  0  0  0  0  0
  129.4040  125.5830   64.1960 C   0  0  0  0  0  0  0  0  0  0  0  0
  128.6450  125.9730   63.1440 F   0  0  0  0  0  0  0  0  0  0  0  0
  128.3300  128.4470   64.3330 C   0  0  0  0  0  0  0  0  0  0  0  0
  128.5450  128.1970   63.1460 O   0  0  0  0  0  0  0  0  0  0  0  0
  127.0703  132.6611   64.1004 H   0  0  0  0  0  0  0  0  0  0  0  0
  128.4236  132.3678   62.9562 H   0  0  0  0  0  0  0  0  0  0  0  0
  126.9954  131.2784   62.9562 H   0  0  0  0  0  0  0  0  0  0  0  0
  129.3487  130.7336   64.2504 H   0  0  0  0  0  0  0  0  0  0  0  0
  128.3536  131.5670   65.5650 H   0  0  0  0  0  0  0  0  0  0  0  0
  125.4963  129.6546   65.4379 H   0  0  0  0  0  0  0  0  0  0  0  0
  125.9268  130.5530   63.9432 H   0  0  0  0  0  0  0  0  0  0  0  0
  125.9280  128.7567   63.9432 H   0  0  0  0  0  0  0  0  0  0  0  0
  126.3982  127.1606   68.0784 H   0  0  0  0  0  0  0  0  0  0  0  0
  126.5242  126.5212   70.4827 H   0  0  0  0  0  0  0  0  0  0  0  0
  130.4063  127.4343   74.0543 H   0  0  0  0  0  0  0  0  0  0  0  0
  131.1531  126.7714   72.5612 H   0  0  0  0  0  0  0  0  0  0  0  0
  130.4662  128.4311   72.5612 H   0  0  0  0  0  0  0  0  0  0  0  0
  130.6228  127.8937   70.6307 H   0  0  0  0  0  0  0  0  0  0  0  0
  130.4919  128.5392   68.2304 H   0  0  0  0  0  0  0  0  0  0  0  0
  130.3060  126.5280   67.3508 H   0  0  0  0  0  0  0  0  0  0  0  0
  131.5800  124.3936   67.1945 H   0  0  0  0  0  0  0  0  0  0  0  0
  131.4624  123.0188   65.1168 H   0  0  0  0  0  0  0  0  0  0  0  0
  130.0622  123.7782   63.1985 H   0  0  0  0  0  0  0  0  0  0  0  0
  1  2  1  0
  3  2  1  1
  3  4  1  0
  3  5  1  0
  5  6  1  0
  6  7  1  0
  7  8  2  0
  8  9  1  0
  9 10  2  0
 10 11  1  0
 11 12  1  0
 11 13  2  0
 11 14  2  0
 10 15  1  0
 15 16  2  0
  6 17  2  0
 17 18  1  0
 18 19  2  0
 19 20  1  0
 20 21  2  0
 21 22  1  0
 22 23  2  0
 23 24  1  0
 17 25  1  0
 25 26  2  0
 25  3  1  0
 16  7  1  0
 23 18  1  0
  1 27  1  0
  1 28  1  0
  1 29  1  0
  2 30  1  0
  2 31  1  0
  4 32  1  0
  4 33  1  0
  4 34  1  0
  8 35  1  0
  9 36  1  0
 12 37  1  0
 12 38  1  0
 12 39  1  0
 15 40  1  0
 16 41  1  0
 19 42  1  0
 20 43  1  0
 21 44  1  0
 22 45  1  0
M  END
>  <Binding energies>  (1) 
[-7.08]

>  <Ligand effiencies>  (1) 
[-0.2723076923076923]

>  <Interactions>  (1) 
["V-A:HIS:456:CE1:4070, V-B:GLU:543:C:9874, V-B:GLY:544:C:9884, V-B:GLU:543:CB:9878, H-B:LYS:547:NZ:9923, V-A:GLU:543:CG:4907, V-B:GLU:543:CD:9880, V-A:GLU:543:CD:4908, V-A:TYR:484:CE2:4346, V-A:TYR:484:CZ:4347, H-B:TYR:484:OH:9319, V-B:GLU:543:CG:9879, V-B:HIS:456:CE1:9041, V-A:HIS:456:CD2:4068, V-A:GLU:543:CB:4906"]

$$$$
ZINC135707061-again1
     RDKit          3D

 43 45  0  0  0  0  0  0  0  0999 V2000
  128.9990  122.4770   63.6840 C   0  0  0  0  0  0  0  0  0  0  0  0
  130.4850  122.8870   63.7320 C   0  0  2  0  0  0  0  0  0  0  0  0
  130.7620  123.8480   64.9210 C   0  0  0  0  0  0  0  0  0  0  0  0
  131.8210  124.9060   64.5710 C   0  0  1  0  0  0  0  0  0  0  0  0
  132.7930  125.4780   65.5750 C   0  0  0  0  0  0  0  0  0  0  0  0
  133.2730  124.5250   64.4870 C   0  0  2  0  0  0  0  0  0  0  0  0
  133.8900  124.9590   63.1800 C   0  0  0  0  0  0  0  0  0  0  0  0
  134.3480  124.0910   62.2600 C   0  0  0  0  0  0  0  0  0  0  0  0
  134.1820  124.3480   60.8400 C   0  0  0  0  0  0  0  0  0  0  0  0
  132.9280  124.4700   60.3570 C   0  0  0  0  0  0  0  0  0  0  0  0
  132.5380  124.5680   58.9680 C   0  0  0  0  0  0  0  0  0  0  0  0
  133.3260  124.4360   58.0320 O   0  0  0  0  0  0  0  0  0  0  0  0
  131.0350  124.7690   58.6970 C   0  0  0  0  0  0  0  0  0  0  0  0
  130.3480  125.6440   59.7740 C   0  0  0  0  0  0  0  0  0  0  0  0
  130.1670  127.0170   59.4780 C   0  0  0  0  0  0  0  0  0  0  0  0
  130.7220  127.6550   57.9470 Cl  0  0  0  0  0  0  0  0  0  0  0  0
  129.5400  127.8650   60.4100 C   0  0  0  0  0  0  0  0  0  0  0  0
  129.3560  129.1100   60.1940 O   0  0  0  0  0  0  0  0  0  0  0  0
  129.0850  127.3460   61.6170 C   0  0  0  0  0  0  0  0  0  0  0  0
  129.2460  126.0020   61.9230 C   0  0  0  0  0  0  0  0  0  0  0  0
  128.7100  125.5950   63.1230 O   0  0  0  0  0  0  0  0  0  0  0  0
  129.8960  125.1230   61.0270 C   0  0  0  0  0  0  0  0  0  0  0  0
  130.0470  123.6670   61.4230 C   0  0  0  0  0  0  0  0  0  0  0  0
  129.5900  122.7180   60.7850 O   0  0  0  0  0  0  0  0  0  0  0  0
  130.8860  123.5070   62.5000 O   0  0  0  0  0  0  0  0  0  0  0  0
  128.6146  122.3709   64.7092 H   0  0  0  0  0  0  0  0  0  0  0  0
  128.4224  123.2496   63.1543 H   0  0  0  0  0  0  0  0  0  0  0  0
  128.9001  121.5180   63.1543 H   0  0  0  0  0  0  0  0  0  0  0  0
  131.0762  121.9707   63.8764 H   0  0  0  0  0  0  0  0  0  0  0  0
  129.8257  124.3583   65.1909 H   0  0  0  0  0  0  0  0  0  0  0  0
  131.1445  123.2488   65.7605 H   0  0  0  0  0  0  0  0  0  0  0  0
  131.0793  125.3594   63.8969 H   0  0  0  0  0  0  0  0  0  0  0  0
  133.0648  126.5431   65.5346 H   0  0  0  0  0  0  0  0  0  0  0  0
  132.8563  125.5058   66.6728 H   0  0  0  0  0  0  0  0  0  0  0  0
  133.9302  123.6459   64.5596 H   0  0  0  0  0  0  0  0  0  0  0  0
  133.9689  126.0358   62.9697 H   0  0  0  0  0  0  0  0  0  0  0  0
  134.8562  123.1723   62.5881 H   0  0  0  0  0  0  0  0  0  0  0  0
  135.0546  124.4406   60.1767 H   0  0  0  0  0  0  0  0  0  0  0  0
  132.1161  124.4979   61.0987 H   0  0  0  0  0  0  0  0  0  0  0  0
  130.9155  125.2564   57.7182 H   0  0  0  0  0  0  0  0  0  0  0  0
  130.5572  123.7784   58.7177 H   0  0  0  0  0  0  0  0  0  0  0  0
  128.5900  128.0107   62.3402 H   0  0  0  0  0  0  0  0  0  0  0  0
  127.7840  125.3550   63.0490 H   0  0  0  0  0  0  0  0  0  0  0  0
  1  2  1  0
  2  3  1  0
  3  4  1  0
  4  5  1  0
  5  6  1  0
  6  7  1  0
  7  8  2  0
  8  9  1  0
  9 10  2  0
 10 11  1  0
 11 12  2  0
 11 13  1  0
 13 14  1  0
 14 15  2  0
 15 16  1  0
 15 17  1  0
 17 18  1  0
 17 19  2  0
 19 20  1  0
 20 21  1  0
 20 22  2  0
 22 23  1  0
 23 24  2  0
 23 25  1  0
 25  2  1  0
  6  4  1  0
 22 14  1  0
  1 26  1  0
  1 27  1  0
  1 28  1  0
  2 29  1  1
  3 30  1  0
  3 31  1  0
  4 32  1  6
  5 33  1  0
  5 34  1  0
  6 35  1  1
  7 36  1  0
  8 37  1  0
  9 38  1  0
 10 39  1  0
 13 40  1  0
 13 41  1  0
 19 42  1  0
 21 43  1  0
M  CHG  1  18  -1
M  END
>  <Binding energies>  (1) 
[-2.4]

>  <Ligand effiencies>  (1) 
[-0.08571428571428572]

>  <Interactions>  (1) 
["V-A:ASP:366:CA:3210, V-A:ILE:369:CD1:3239, V-B:TYR:539:CZ:9849, H-B:GLU:543:OE2:9882, H-B:GLU:543:OE1:9881, V-A:GLY:453:CA:4044, V-A:GLY:454:CA:4049, H-B:TYR:539:OH:9850, V-A:ARG:545:CZ:4926, V-B:ALA:541:CB:9864, V-B:TYR:539:CE2:9848, V-A:TYR:484:CZ:4347, V-A:TYR:484:CE2:4346, V-A:ARG:545:CD:4923, V-A:LEU:475:CD2:4259, V-B:GLU:543:CG:9879, V-A:ASP:366:CG:3213"]

$$$$
ZINC13586114
     RDKit          3D

 42 45  0  0  0  0  0  0  0  0999 V2000
  132.4850  125.8420   67.0850 C   0  0  0  0  0  0  0  0  0  0  0  0
  131.1840  125.5190   66.4980 N   0  0  0  0  0  0  0  0  0  0  0  0
  130.0200  125.6630   67.3720 C   0  0  0  0  0  0  0  0  0  0  0  0
  131.1120  124.6820   65.3480 C   0  0  0  0  0  0  0  0  0  0  0  0
  129.8900  124.1370   64.9150 C   0  0  0  0  0  0  0  0  0  0  0  0
  129.8180  123.3130   63.7920 C   0  0  0  0  0  0  0  0  0  0  0  0
  130.9590  123.0060   63.0470 C   0  0  0  0  0  0  0  0  0  0  0  0
  132.1860  123.5290   63.4870 C   0  0  0  0  0  0  0  0  0  0  0  0
  132.2620  124.3540   64.6090 C   0  0  0  0  0  0  0  0  0  0  0  0
  133.3780  123.2380   62.8540 O   0  0  0  0  0  0  0  0  0  0  0  0
  133.4060  122.2070   61.9720 C   0  0  0  0  0  0  0  0  0  0  0  0
  134.7150  121.9170   61.6920 N   0  0  0  0  0  0  0  0  0  0  0  0
  132.3110  121.6100   61.4550 C   0  0  0  0  0  0  0  0  0  0  0  0
  132.4410  120.5320   60.5260 C   0  0  0  0  0  0  0  0  0  0  0  0
  132.5270  119.6630   59.7680 N   0  0  0  0  0  0  0  0  0  0  0  0
  130.9030  122.0960   61.8090 C   0  0  2  0  0  0  0  0  0  0  0  0
  130.1900  122.7720   60.6370 C   0  0  0  0  0  0  0  0  0  0  0  0
  130.7200  123.9480   60.0660 C   0  0  0  0  0  0  0  0  0  0  0  0
  130.0840  124.5760   58.9880 C   0  0  0  0  0  0  0  0  0  0  0  0
  130.8050  126.1620   58.2210 Br  0  0  0  0  0  0  0  0  0  0  0  0
  128.9140  124.0020   58.5020 C   0  0  0  0  0  0  0  0  0  0  0  0
  128.3950  122.8640   59.0470 C   0  0  0  0  0  0  0  0  0  0  0  0
  129.0060  122.2160   60.1170 C   0  0  0  0  0  0  0  0  0  0  0  0
  127.2620  122.5180   58.3840 O   0  0  0  0  0  0  0  0  0  0  0  0
  127.0640  123.4980   57.3980 C   0  0  0  0  0  0  0  0  0  0  0  0
  128.1240  124.4140   57.4760 O   0  0  0  0  0  0  0  0  0  0  0  0
  132.4072  125.8227   68.1821 H   0  0  0  0  0  0  0  0  0  0  0  0
  133.2293  125.1014   66.7571 H   0  0  0  0  0  0  0  0  0  0  0  0
  132.7964  126.8447   66.7571 H   0  0  0  0  0  0  0  0  0  0  0  0
  130.3432  125.6230   68.4227 H   0  0  0  0  0  0  0  0  0  0  0  0
  129.5310  126.6285   67.1753 H   0  0  0  0  0  0  0  0  0  0  0  0
  129.3104  124.8458   67.1753 H   0  0  0  0  0  0  0  0  0  0  0  0
  128.9708  124.3656   65.4743 H   0  0  0  0  0  0  0  0  0  0  0  0
  128.8459  122.8977   63.4877 H   0  0  0  0  0  0  0  0  0  0  0  0
  133.2379  124.7546   64.9208 H   0  0  0  0  0  0  0  0  0  0  0  0
  135.4460  122.1580   62.3460 H   0  0  0  0  0  0  0  0  0  0  0  0
  134.9520  121.2840   60.9420 H   0  0  0  0  0  0  0  0  0  0  0  0
  130.2968  121.2095   62.0470 H   0  0  0  0  0  0  0  0  0  0  0  0
  131.6467  124.3781   60.4736 H   0  0  0  0  0  0  0  0  0  0  0  0
  128.5765  121.2973   60.5432 H   0  0  0  0  0  0  0  0  0  0  0  0
  127.0490  123.0286   56.4033 H   0  0  0  0  0  0  0  0  0  0  0  0
  126.1041  124.0110   57.5573 H   0  0  0  0  0  0  0  0  0  0  0  0
  1  2  1  0
  2  3  1  0
  2  4  1  0
  4  5  2  0
  5  6  1  0
  6  7  2  0
  7  8  1  0
  8  9  2  0
  8 10  1  0
 10 11  1  0
 11 12  1  0
 11 13  2  0
 13 14  1  0
 14 15  3  0
 13 16  1  0
 16 17  1  0
 17 18  2  0
 18 19  1  0
 19 20  1  0
 19 21  2  0
 21 22  1  0
 22 23  2  0
 22 24  1  0
 24 25  1  0
 25 26  1  0
  9  4  1  0
 23 17  1  0
 16  7  1  0
 26 21  1  0
  1 27  1  0
  1 28  1  0
  1 29  1  0
  3 30  1  0
  3 31  1  0
  3 32  1  0
  5 33  1  0
  6 34  1  0
  9 35  1  0
 12 36  1  0
 12 37  1  0
 16 38  1  1
 18 39  1  0
 23 40  1  0
 25 41  1  0
 25 42  1  0
M  END
>  <Binding energies>  (1) 
[-6.51]

>  <Ligand effiencies>  (1) 
[-0.23249999999999998]

>  <Interactions>  (1) 
["V-A:ILE:369:CG2:3237, V-B:PRO:540:CA:9855, V-A:GLY:454:CA:4049, V-B:GLU:543:CB:9878, V-B:TYR:539:CE2:9848, V-B:GLU:543:CG:9879, V-B:TYR:539:C:9839, V-B:TYR:539:CZ:9849, V-A:TYR:484:CZ:4347, V-A:ARG:545:CG:4922, H-A:GLY:454:N:4050, V-A:SER:385:C:3405, V-B:PRO:540:N:9856, V-A:HIS:456:CE1:4070, V-A:ILE:369:CD1:3239, V-B:TYR:539:CD2:9846, V-A:SER:385:CB:3409, H-A:SER:385:OG:3410, V-B:GLU:543:CD:9880, V-A:ILE:369:CG1:3238, V-A:ARG:545:CD:4923, V-A:LEU:475:CD2:4259, H-A:HIS:383:HE2:3395, H-A:SER:385:O:3406, V-A:SER:385:CA:3407"]

$$$$
ZINC1358955172
     RDKit          3D

 60 62  0  0  0  0  0  0  0  0999 V2000
  132.6900  120.5750   60.5390 C   0  0  0  0  0  0  0  0  0  0  0  0
  133.2500  121.6070   60.8770 C   0  0  0  0  0  0  0  0  0  0  0  0
  133.9390  122.8450   61.2800 C   0  0  0  0  0  0  0  0  0  0  0  0
  132.9960  123.9330   61.5740 N   0  0  0  0  0  0  0  0  0  0  0  0
  132.9740  124.3760   62.8830 C   0  0  0  0  0  0  0  0  0  0  0  0
  134.0490  124.6500   63.5780 N   0  0  0  0  0  0  0  0  0  0  0  0
  133.6310  125.0780   64.8320 N   0  0  0  0  0  0  0  0  0  0  0  0
  132.3190  125.0410   64.8480 C   0  0  0  0  0  0  0  0  0  0  0  0
  131.4500  125.4870   66.0230 C   0  0  0  0  0  0  0  0  0  0  0  0
  132.3190  125.8450   67.2420 C   0  0  0  0  0  0  0  0  0  0  0  0
  130.3790  124.4420   66.3970 C   0  0  0  0  0  0  0  0  0  0  0  0
  131.8310  124.6010   63.6320 N   0  0  0  0  0  0  0  0  0  0  0  0
  130.4310  124.4110   63.2430 C   0  0  0  0  0  0  0  0  0  0  0  0
  129.9570  122.9710   63.5430 C   0  0  0  0  0  0  0  0  0  0  0  0
  128.7070  122.5290   62.7370 C   0  0  2  0  0  0  0  0  0  0  0  0
  129.0680  121.3830   61.7610 C   0  0  0  0  0  0  0  0  0  0  0  0
  129.8200  121.8840   60.5130 C   0  0  0  0  0  0  0  0  0  0  0  0
  129.0330  122.8690   59.8540 O   0  0  0  0  0  0  0  0  0  0  0  0
  128.7980  124.0460   60.6240 C   0  0  1  0  0  0  0  0  0  0  0  0
  128.0060  125.0540   59.7790 C   0  0  0  0  0  0  0  0  0  0  0  0
  128.0670  123.7030   61.9460 C   0  0  0  0  0  0  0  0  0  0  0  0
  132.8580  124.9090   60.4780 C   0  0  2  0  0  0  0  0  0  0  0  0
  131.8490  126.0590   60.7620 C   0  0  0  0  0  0  0  0  0  0  0  0
  131.7300  126.9630   59.5300 C   0  0  0  0  0  0  0  0  0  0  0  0
  131.8400  125.7840   58.0790 S   0  0  0  0  0  0  0  0  0  0  0  0
  130.5010  125.4900   57.5580 O   0  0  0  0  0  0  0  0  0  0  0  0
  132.9050  126.2330   57.1780 O   0  0  0  0  0  0  0  0  0  0  0  0
  132.4330  124.3280   59.1080 C   0  0  0  0  0  0  0  0  0  0  0  0
  132.1858  119.6459   60.2347 H   0  0  0  0  0  0  0  0  0  0  0  0
  134.5368  122.6410   62.1806 H   0  0  0  0  0  0  0  0  0  0  0  0
  134.5754  123.1661   60.4422 H   0  0  0  0  0  0  0  0  0  0  0  0
  130.9122  126.3898   65.6978 H   0  0  0  0  0  0  0  0  0  0  0  0
  131.7666  125.6174   68.1656 H   0  0  0  0  0  0  0  0  0  0  0  0
  133.2478  125.2563   67.2158 H   0  0  0  0  0  0  0  0  0  0  0  0
  132.5636  126.9171   67.2158 H   0  0  0  0  0  0  0  0  0  0  0  0
  130.3044  124.3692   67.4920 H   0  0  0  0  0  0  0  0  0  0  0  0
  129.4072  124.7486   65.9828 H   0  0  0  0  0  0  0  0  0  0  0  0
  130.6616  123.4629   65.9828 H   0  0  0  0  0  0  0  0  0  0  0  0
  129.8036  125.1193   63.8040 H   0  0  0  0  0  0  0  0  0  0  0  0
  130.3436  124.5876   62.1608 H   0  0  0  0  0  0  0  0  0  0  0  0
  130.7806  122.2811   63.3071 H   0  0  0  0  0  0  0  0  0  0  0  0
  129.6711  122.9484   64.6050 H   0  0  0  0  0  0  0  0  0  0  0  0
  127.9668  122.1745   63.4694 H   0  0  0  0  0  0  0  0  0  0  0  0
  129.7048  120.6579   62.2889 H   0  0  0  0  0  0  0  0  0  0  0  0
  128.1273  120.9246   61.4221 H   0  0  0  0  0  0  0  0  0  0  0  0
  130.7817  122.3240   60.8154 H   0  0  0  0  0  0  0  0  0  0  0  0
  130.0034  121.0413   59.8302 H   0  0  0  0  0  0  0  0  0  0  0  0
  129.7599  124.5022   60.9009 H   0  0  0  0  0  0  0  0  0  0  0  0
  127.4642  125.7435   60.4431 H   0  0  0  0  0  0  0  0  0  0  0  0
  128.6994  125.6252   59.1443 H   0  0  0  0  0  0  0  0  0  0  0  0
  127.2869  124.5154   59.1443 H   0  0  0  0  0  0  0  0  0  0  0  0
  128.0748  124.5967   62.5872 H   0  0  0  0  0  0  0  0  0  0  0  0
  127.0498  123.3853   61.6734 H   0  0  0  0  0  0  0  0  0  0  0  0
  133.8919  125.2811   60.4271 H   0  0  0  0  0  0  0  0  0  0  0  0
  130.8635  125.6302   60.9966 H   0  0  0  0  0  0  0  0  0  0  0  0
  132.2077  126.6538   61.6150 H   0  0  0  0  0  0  0  0  0  0  0  0
  130.7669  127.4945   59.5282 H   0  0  0  0  0  0  0  0  0  0  0  0
  132.5091  127.7390   59.5011 H   0  0  0  0  0  0  0  0  0  0  0  0
  131.6204  123.5983   59.2393 H   0  0  0  0  0  0  0  0  0  0  0  0
  133.2685  123.8062   58.6184 H   0  0  0  0  0  0  0  0  0  0  0  0
  1  2  3  0
  2  3  1  0
  3  4  1  0
  4  5  1  0
  5  6  2  0
  6  7  1  0
  7  8  2  0
  8  9  1  0
  9 10  1  0
  9 11  1  0
  8 12  1  0
 12 13  1  0
 13 14  1  0
 14 15  1  0
 15 16  1  0
 16 17  1  0
 17 18  1  0
 18 19  1  0
 19 20  1  0
 19 21  1  0
  4 22  1  0
 22 23  1  0
 23 24  1  0
 24 25  1  0
 25 26  2  0
 25 27  2  0
 25 28  1  0
 12  5  1  0
 21 15  1  0
 28 22  1  0
  1 29  1  0
  3 30  1  0
  3 31  1  0
  9 32  1  0
 10 33  1  0
 10 34  1  0
 10 35  1  0
 11 36  1  0
 11 37  1  0
 11 38  1  0
 13 39  1  0
 13 40  1  0
 14 41  1  0
 14 42  1  0
 15 43  1  1
 16 44  1  0
 16 45  1  0
 17 46  1  0
 17 47  1  0
 19 48  1  1
 20 49  1  0
 20 50  1  0
 20 51  1  0
 21 52  1  0
 21 53  1  0
 22 54  1  6
 23 55  1  0
 23 56  1  0
 24 57  1  0
 24 58  1  0
 28 59  1  0
 28 60  1  0
M  END
>  <Binding energies>  (1) 
[-7.46]

>  <Ligand effiencies>  (1) 
[-0.2664285714285714]

>  <Interactions>  (1) 
["V-A:ILE:369:CG2:3237, V-B:PRO:540:CA:9855, V-B:GLU:543:CB:9878, V-B:ALA:541:CB:9864, H-A:ARG:545:NH1:4927, H-A:TYR:531:OH:4795, V-B:TYR:539:CE2:9848, V-A:TYR:484:CE2:4346, V-B:GLU:543:CG:9879, V-A:ASP:366:CG:3213, V-B:TYR:539:CZ:9849, H-B:TYR:539:OH:9850, V-A:GLU:543:CD:4908, V-A:TYR:484:CZ:4347, V-A:ARG:545:CG:4922, H-A:GLY:454:N:4050, V-A:ILE:369:CD1:3239, V-A:HIS:456:CE1:4070, V-B:TYR:539:CD2:9846, V-A:SER:385:CB:3409, V-B:GLU:543:CD:9880, V-A:ASP:366:CB:3212, V-A:ARG:545:CD:4923, V-A:LEU:475:CD2:4259, H-A:ARG:545:NH2:4928, V-A:ARG:545:CZ:4926, H-A:ARG:545:NE:4924, V-B:PRO:540:C:9853, V-B:ALA:541:CA:9862, H-A:TYR:484:OH:4348"]

$$$$
ZINC1359056529
     RDKit          3D

 62 64  0  0  0  0  0  0  0  0999 V2000
  132.9240  121.0070   60.6500 C   0  0  0  0  0  0  0  0  0  0  0  0
  131.7310  121.0190   60.9140 C   0  0  0  0  0  0  0  0  0  0  0  0
  130.3000  121.0200   61.2470 C   0  0  0  0  0  0  0  0  0  0  0  0
  129.4640  122.4930   60.5950 S   0  0  0  0  0  0  0  0  0  0  0  0
  129.3590  123.5660   62.0620 C   0  0  0  0  0  0  0  0  0  0  0  0
  130.2010  124.8630   62.0770 C   0  0  0  0  0  0  0  0  0  0  0  0
  131.6040  124.6430   62.4480 N   0  0  0  0  0  0  0  0  0  0  0  0
  132.6930  124.4480   61.6160 C   0  0  0  0  0  0  0  0  0  0  0  0
  132.6470  124.4150   60.0910 C   0  0  2  0  0  0  0  0  0  0  0  0
  134.0420  124.2330   59.4500 C   0  0  0  0  0  0  0  0  0  0  0  0
  133.9720  124.2920   57.9120 C   0  0  0  0  0  0  0  0  0  0  0  0
  133.1730  125.5160   57.4290 C   0  0  0  0  0  0  0  0  0  0  0  0
  131.8810  125.5060   58.0300 O   0  0  0  0  0  0  0  0  0  0  0  0
  131.9130  125.6230   59.4510 C   0  0  0  0  0  0  0  0  0  0  0  0
  133.7860  124.2600   62.3200 N   0  0  0  0  0  0  0  0  0  0  0  0
  133.4480  124.3780   63.6620 N   0  0  0  0  0  0  0  0  0  0  0  0
  132.1580  124.6110   63.7170 C   0  0  0  0  0  0  0  0  0  0  0  0
  131.4220  124.8230   64.8520 N   0  0  0  0  0  0  0  0  0  0  0  0
  132.1970  125.2880   66.0150 C   0  0  0  0  0  0  0  0  0  0  0  0
  131.3060  125.8590   67.1400 C   0  0  0  0  0  0  0  0  0  0  0  0
  130.2350  124.8660   67.6210 C   0  0  0  0  0  0  0  0  0  0  0  0
  129.3240  125.4150   68.6260 N   0  0  0  0  0  0  0  0  0  0  0  0
  128.7280  126.6210   68.5710 C   0  0  0  0  0  0  0  0  0  0  0  0
  128.8640  127.4010   67.6270 O   0  0  0  0  0  0  0  0  0  0  0  0
  127.8220  126.9960   69.7520 C   0  0  0  0  0  0  0  0  0  0  0  0
  128.5850  127.3550   71.0490 C   0  0  0  0  0  0  0  0  0  0  0  0
  130.0520  127.7720   70.8530 C   0  0  0  0  0  0  0  0  0  0  0  0
  129.5700  124.1580   66.4240 C   0  0  0  0  0  0  0  0  0  0  0  0
  130.5820  123.7170   65.3450 C   0  0  0  0  0  0  0  0  0  0  0  0
  133.9980  120.9962   60.4123 H   0  0  0  0  0  0  0  0  0  0  0  0
  129.8322  120.1232   60.8147 H   0  0  0  0  0  0  0  0  0  0  0  0
  130.2015  121.0248   62.3426 H   0  0  0  0  0  0  0  0  0  0  0  0
  128.3051  123.8593   62.1775 H   0  0  0  0  0  0  0  0  0  0  0  0
  129.7786  122.9577   62.8768 H   0  0  0  0  0  0  0  0  0  0  0  0
  130.1720  125.3092   61.0720 H   0  0  0  0  0  0  0  0  0  0  0  0
  129.7637  125.5252   62.8387 H   0  0  0  0  0  0  0  0  0  0  0  0
  132.0457  123.5219   59.8656 H   0  0  0  0  0  0  0  0  0  0  0  0
  134.7064  125.0332   59.8080 H   0  0  0  0  0  0  0  0  0  0  0  0
  134.4268  123.2439   59.7390 H   0  0  0  0  0  0  0  0  0  0  0  0
  134.9942  124.3513   57.5099 H   0  0  0  0  0  0  0  0  0  0  0  0
  133.4622  123.3849   57.5552 H   0  0  0  0  0  0  0  0  0  0  0  0
  133.7034  126.4364   57.7147 H   0  0  0  0  0  0  0  0  0  0  0  0
  133.0691  125.4780   56.3346 H   0  0  0  0  0  0  0  0  0  0  0  0
  132.4391  126.5496   59.7241 H   0  0  0  0  0  0  0  0  0  0  0  0
  130.8787  125.6432   59.8248 H   0  0  0  0  0  0  0  0  0  0  0  0
  132.7700  124.4395   66.4172 H   0  0  0  0  0  0  0  0  0  0  0  0
  132.8553  126.0992   65.6707 H   0  0  0  0  0  0  0  0  0  0  0  0
  131.9467  126.1244   67.9939 H   0  0  0  0  0  0  0  0  0  0  0  0
  130.7820  126.7357   66.7316 H   0  0  0  0  0  0  0  0  0  0  0  0
  130.7404  124.0719   68.1901 H   0  0  0  0  0  0  0  0  0  0  0  0
  129.1950  124.8580   69.4590 H   0  0  0  0  0  0  0  0  0  0  0  0
  127.2141  127.8644   69.4580 H   0  0  0  0  0  0  0  0  0  0  0  0
  127.2149  126.1072   69.9787 H   0  0  0  0  0  0  0  0  0  0  0  0
  128.0565  128.1885   71.5348 H   0  0  0  0  0  0  0  0  0  0  0  0
  128.6076  126.4362   71.6534 H   0  0  0  0  0  0  0  0  0  0  0  0
  130.5290  127.9076   71.8349 H   0  0  0  0  0  0  0  0  0  0  0  0
  130.5838  126.9894   70.2919 H   0  0  0  0  0  0  0  0  0  0  0  0
  130.0927  128.7173   70.2919 H   0  0  0  0  0  0  0  0  0  0  0  0
  129.0412  123.2670   66.7935 H   0  0  0  0  0  0  0  0  0  0  0  0
  128.8834  124.8787   65.9558 H   0  0  0  0  0  0  0  0  0  0  0  0
  131.2371  122.9448   65.7745 H   0  0  0  0  0  0  0  0  0  0  0  0
  130.0039  123.3382   64.4892 H   0  0  0  0  0  0  0  0  0  0  0  0
  1  2  3  0
  2  3  1  0
  3  4  1  0
  4  5  1  0
  5  6  1  0
  6  7  1  0
  7  8  1  0
  8  9  1  0
  9 10  1  0
 10 11  1  0
 11 12  1  0
 12 13  1  0
 13 14  1  0
  8 15  2  0
 15 16  1  0
 16 17  2  0
 17 18  1  0
 18 19  1  0
 19 20  1  0
 20 21  1  0
 21 22  1  0
 22 23  1  0
 23 24  2  0
 23 25  1  0
 25 26  1  0
 26 27  1  0
 21 28  1  0
 28 29  1  0
 17  7  1  0
 29 18  1  0
 14  9  1  0
  1 30  1  0
  3 31  1  0
  3 32  1  0
  5 33  1  0
  5 34  1  0
  6 35  1  0
  6 36  1  0
  9 37  1  1
 10 38  1  0
 10 39  1  0
 11 40  1  0
 11 41  1  0
 12 42  1  0
 12 43  1  0
 14 44  1  0
 14 45  1  0
 19 46  1  0
 19 47  1  0
 20 48  1  0
 20 49  1  0
 21 50  1  0
 22 51  1  0
 25 52  1  0
 25 53  1  0
 26 54  1  0
 26 55  1  0
 27 56  1  0
 27 57  1  0
 27 58  1  0
 28 59  1  0
 28 60  1  0
 29 61  1  0
 29 62  1  0
M  END
>  <Binding energies>  (1) 
[-6.73]

>  <Ligand effiencies>  (1) 
[-0.22433333333333336]

>  <Interactions>  (1) 
["V-A:ILE:369:CG2:3237, V-A:ASP:366:CA:3210, V-B:GLU:543:C:9874, V-A:ILE:369:CB:3236, H-B:GLU:543:O:9875, V-B:GLU:543:CB:9878, H-A:TYR:531:OH:4795, V-B:TYR:539:CE2:9848, V-A:TYR:484:CE2:4346, V-B:GLU:543:CG:9879, V-A:ASP:366:CG:3213, V-B:TYR:539:CZ:9849, H-B:TYR:539:OH:9850, V-A:TYR:484:CZ:4347, V-A:GLU:543:CD:4908, V-B:GLU:543:CA:9876, H-A:GLY:454:N:4050, V-B:HIS:456:CE1:9041, V-A:ILE:369:CD1:3239, V-A:HIS:456:CE1:4070, V-A:ASP:366:C:3208, V-B:TYR:539:CD2:9846, V-A:TYR:531:CZ:4794, V-B:GLU:543:CD:9880, V-A:ASP:366:CB:3212, V-A:LEU:475:CD2:4259, H-A:ARG:545:NH2:4928, H-A:HIS:456:NE2:4071"]

$$$$
ZINC1359247358
     RDKit          3D

 58 61  0  0  0  0  0  0  0  0999 V2000
  133.2610  124.4360   58.8560 C   0  0  0  0  0  0  0  0  0  0  0  0
  132.1690  124.5150   59.6350 C   0  0  0  0  0  0  0  0  0  0  0  0
  132.1100  124.4790   61.1600 C   0  0  0  0  0  0  0  0  0  0  0  0
  132.2710  123.2070   61.8830 N   0  0  0  0  0  0  0  0  0  0  0  0
  132.3180  121.9680   61.2550 C   0  0  0  0  0  0  0  0  0  0  0  0
  133.3170  121.5320   60.5240 N   0  0  0  0  0  0  0  0  0  0  0  0
  132.9750  120.2760   60.0480 N   0  0  0  0  0  0  0  0  0  0  0  0
  131.7810  119.9870   60.5100 C   0  0  0  0  0  0  0  0  0  0  0  0
  131.0020  118.7130   60.1730 C   0  0  1  0  0  0  0  0  0  0  0  0
  131.6790  117.9590   59.0110 C   0  0  0  0  0  0  0  0  0  0  0  0
  130.7860  117.7710   61.3870 C   0  0  0  0  0  0  0  0  0  0  0  0
  129.4420  117.9730   62.1080 C   0  0  0  0  0  0  0  0  0  0  0  0
  131.3010  121.0240   61.2910 N   0  0  0  0  0  0  0  0  0  0  0  0
  129.9840  121.1240   61.9380 C   0  0  0  0  0  0  0  0  0  0  0  0
  128.9320  121.9670   61.2130 C   0  0  0  0  0  0  0  0  0  0  0  0
  128.1310  122.8490   61.9350 C   0  0  0  0  0  0  0  0  0  0  0  0
  127.1820  123.6020   61.2440 C   0  0  0  0  0  0  0  0  0  0  0  0
  127.0510  123.4870   59.8550 C   0  0  0  0  0  0  0  0  0  0  0  0
  127.9370  122.6120   59.1860 C   0  0  0  0  0  0  0  0  0  0  0  0
  128.8260  121.8400   59.8650 N   0  0  0  0  0  0  0  0  0  0  0  0
  127.9190  122.4810   57.6650 C   0  0  0  0  0  0  0  0  0  0  0  0
  126.5450  122.8320   57.0730 C   0  0  0  0  0  0  0  0  0  0  0  0
  126.1010  124.2130   57.5800 C   0  0  0  0  0  0  0  0  0  0  0  0
  125.9330  124.2230   59.1130 C   0  0  0  0  0  0  0  0  0  0  0  0
  132.4160  123.4220   63.3340 C   0  0  0  0  0  0  0  0  0  0  0  0
  131.6870  124.5890   63.9740 C   0  0  0  0  0  0  0  0  0  0  0  0
  131.2310  123.1820   64.2570 C   0  0  0  0  0  0  0  0  0  0  0  0
  133.1597  124.4750   57.7614 H   0  0  0  0  0  0  0  0  0  0  0  0
  134.2562  124.3323   59.3129 H   0  0  0  0  0  0  0  0  0  0  0  0
  131.2060  124.6175   59.1134 H   0  0  0  0  0  0  0  0  0  0  0  0
  132.9027  125.1501   61.5222 H   0  0  0  0  0  0  0  0  0  0  0  0
  131.0672  124.7557   61.3743 H   0  0  0  0  0  0  0  0  0  0  0  0
  129.9983  119.0405   59.8642 H   0  0  0  0  0  0  0  0  0  0  0  0
  132.3622  117.1981   59.4163 H   0  0  0  0  0  0  0  0  0  0  0  0
  130.9106  117.4704   58.3938 H   0  0  0  0  0  0  0  0  0  0  0  0
  132.2472  118.6705   58.3938 H   0  0  0  0  0  0  0  0  0  0  0  0
  130.8338  116.7315   61.0304 H   0  0  0  0  0  0  0  0  0  0  0  0
  131.5754  118.0071   62.1158 H   0  0  0  0  0  0  0  0  0  0  0  0
  129.6023  117.9489   63.1960 H   0  0  0  0  0  0  0  0  0  0  0  0
  129.0149  118.9454   61.8218 H   0  0  0  0  0  0  0  0  0  0  0  0
  128.7479  117.1691   61.8218 H   0  0  0  0  0  0  0  0  0  0  0  0
  129.5834  120.1047   62.0408 H   0  0  0  0  0  0  0  0  0  0  0  0
  130.1655  121.6404   62.8921 H   0  0  0  0  0  0  0  0  0  0  0  0
  128.2444  122.9492   63.0245 H   0  0  0  0  0  0  0  0  0  0  0  0
  126.5293  124.2939   61.7965 H   0  0  0  0  0  0  0  0  0  0  0  0
  128.6725  123.1610   57.2411 H   0  0  0  0  0  0  0  0  0  0  0  0
  128.1406  121.4338   57.4116 H   0  0  0  0  0  0  0  0  0  0  0  0
  126.6134  122.8500   55.9753 H   0  0  0  0  0  0  0  0  0  0  0  0
  125.8097  122.0755   57.3845 H   0  0  0  0  0  0  0  0  0  0  0  0
  126.8594  124.9583   57.2983 H   0  0  0  0  0  0  0  0  0  0  0  0
  125.1292  124.4529   57.1239 H   0  0  0  0  0  0  0  0  0  0  0  0
  125.9180  125.2685   59.4547 H   0  0  0  0  0  0  0  0  0  0  0  0
  124.9940  123.6965   59.3388 H   0  0  0  0  0  0  0  0  0  0  0  0
  133.4561  123.0655   63.3002 H   0  0  0  0  0  0  0  0  0  0  0  0
  132.1780  125.1762   64.7640 H   0  0  0  0  0  0  0  0  0  0  0  0
  131.2007  125.5006   63.5965 H   0  0  0  0  0  0  0  0  0  0  0  0
  131.3902  122.7425   65.2528 H   0  0  0  0  0  0  0  0  0  0  0  0
  130.2761  122.6428   64.1710 H   0  0  0  0  0  0  0  0  0  0  0  0
  1  2  2  0
  2  3  1  0
  3  4  1  0
  4  5  1  0
  5  6  2  0
  6  7  1  0
  7  8  2  0
  8  9  1  0
  9 10  1  0
  9 11  1  0
 11 12  1  0
  8 13  1  0
 13 14  1  0
 14 15  1  0
 15 16  2  0
 16 17  1  0
 17 18  2  0
 18 19  1  0
 19 20  2  0
 19 21  1  0
 21 22  1  0
 22 23  1  0
 23 24  1  0
  4 25  1  0
 25 26  1  0
 26 27  1  0
 13  5  1  0
 20 15  1  0
 27 25  1  0
 24 18  1  0
  1 28  1  0
  1 29  1  0
  2 30  1  0
  3 31  1  0
  3 32  1  0
  9 33  1  6
 10 34  1  0
 10 35  1  0
 10 36  1  0
 11 37  1  0
 11 38  1  0
 12 39  1  0
 12 40  1  0
 12 41  1  0
 14 42  1  0
 14 43  1  0
 16 44  1  0
 17 45  1  0
 21 46  1  0
 21 47  1  0
 22 48  1  0
 22 49  1  0
 23 50  1  0
 23 51  1  0
 24 52  1  0
 24 53  1  0
 25 54  1  0
 26 55  1  0
 26 56  1  0
 27 57  1  0
 27 58  1  0
M  END
>  <Binding energies>  (1) 
[-7.55]

>  <Ligand effiencies>  (1) 
[-0.2796296296296296]

>  <Interactions>  (1) 
["V-A:ILE:369:CG2:3237, V-A:ASP:366:CA:3210, V-B:PRO:540:CA:9855, V-B:ALA:541:CB:9864, V-B:TYR:539:CE2:9848, V-A:LEU:475:CG:4257, V-B:TYR:539:C:9839, V-B:TYR:539:CZ:9849, V-A:LEU:475:CD1:4258, V-B:TYR:539:CB:9843, V-A:HIS:383:CE1:3393, V-B:PRO:540:CB:9857, V-A:HIS:383:NE2:3394, V-B:PRO:540:N:9856, V-A:PRO:482:CB:4326, V-B:TYR:539:CD2:9846, V-B:PRO:540:CD:9859, H-A:SER:385:OG:3410, V-A:ASP:366:CB:3212, V-A:LEU:475:CD2:4259, V-B:TYR:539:CG:9844, V-A:HIS:383:CD2:3392, V-B:TYR:539:CD1:9845, V-A:PRO:482:CG:4327, V-B:PRO:540:C:9853, V-B:ALA:541:CA:9862, V-B:TYR:539:CE1:9847"]

$$$$
ZINC1359251439
     RDKit          3D

 61 63  0  0  0  0  0  0  0  0999 V2000
  126.7140  126.4800   58.2720 C   0  0  0  0  0  0  0  0  0  0  0  0
  125.5810  125.7660   58.1990 C   0  0  0  0  0  0  0  0  0  0  0  0
  125.4480  124.3020   58.5810 C   0  0  0  0  0  0  0  0  0  0  0  0
  126.6730  123.6230   59.0190 N   0  0  0  0  0  0  0  0  0  0  0  0
  127.0900  123.5280   60.3380 C   0  0  0  0  0  0  0  0  0  0  0  0
  126.4580  122.8420   61.2610 N   0  0  0  0  0  0  0  0  0  0  0  0
  127.1490  122.9950   62.4540 N   0  0  0  0  0  0  0  0  0  0  0  0
  128.1610  123.7940   62.2200 C   0  0  0  0  0  0  0  0  0  0  0  0
  129.1690  124.2620   63.2630 C   0  0  1  0  0  0  0  0  0  0  0  0
  130.6450  123.9360   62.9190 C   0  0  0  0  0  0  0  0  0  0  0  0
  131.5380  124.4980   63.9600 N   0  0  0  0  0  0  0  0  0  0  0  0
  133.2220  123.9530   63.8960 S   0  0  0  0  0  0  0  0  0  0  0  0
  133.8070  124.5190   62.1940 C   0  0  0  0  0  0  0  0  0  0  0  0
  133.9750  124.7000   64.9100 O   0  0  0  0  0  0  0  0  0  0  0  0
  133.2280  122.4860   63.9110 O   0  0  0  0  0  0  0  0  0  0  0  0
  131.3400  125.9460   64.1950 C   0  0  0  0  0  0  0  0  0  0  0  0
  129.8510  126.2150   64.4900 C   0  0  0  0  0  0  0  0  0  0  0  0
  129.0350  125.6740   63.4500 O   0  0  0  0  0  0  0  0  0  0  0  0
  128.1950  124.1630   60.8870 N   0  0  0  0  0  0  0  0  0  0  0  0
  129.1290  125.1060   60.2670 C   0  0  0  0  0  0  0  0  0  0  0  0
  130.0110  124.3970   59.2210 C   0  0  0  0  0  0  0  0  0  0  0  0
  131.4520  124.1740   59.7190 C   0  0  0  0  0  0  0  0  0  0  0  0
  132.5090  125.1050   59.0770 C   0  0  0  0  0  0  0  0  0  0  0  0
  131.9460  125.9310   57.9040 C   0  0  0  0  0  0  0  0  0  0  0  0
  133.7490  124.3060   58.6340 C   0  0  0  0  0  0  0  0  0  0  0  0
  127.2810  122.7840   57.9820 C   0  0  0  0  0  0  0  0  0  0  0  0
  126.4690  122.4690   56.7340 C   0  0  0  0  0  0  0  0  0  0  0  0
  127.6240  123.4210   56.6450 C   0  0  0  0  0  0  0  0  0  0  0  0
  126.7172  127.5386   57.9732 H   0  0  0  0  0  0  0  0  0  0  0  0
  127.6401  126.0070   58.6307 H   0  0  0  0  0  0  0  0  0  0  0  0
  124.6792  126.2799   57.8347 H   0  0  0  0  0  0  0  0  0  0  0  0
  124.7184  124.2362   59.4016 H   0  0  0  0  0  0  0  0  0  0  0  0
  125.1460  123.7875   57.6568 H   0  0  0  0  0  0  0  0  0  0  0  0
  128.9353  123.7052   64.1824 H   0  0  0  0  0  0  0  0  0  0  0  0
  130.7773  122.8449   62.8743 H   0  0  0  0  0  0  0  0  0  0  0  0
  130.8979  124.3797   61.9448 H   0  0  0  0  0  0  0  0  0  0  0  0
  134.5931  125.2796   62.3107 H   0  0  0  0  0  0  0  0  0  0  0  0
  134.2090  123.6582   61.6395 H   0  0  0  0  0  0  0  0  0  0  0  0
  132.9600  124.9492   61.6395 H   0  0  0  0  0  0  0  0  0  0  0  0
  131.9484  126.2655   65.0540 H   0  0  0  0  0  0  0  0  0  0  0  0
  131.6465  126.5097   63.3015 H   0  0  0  0  0  0  0  0  0  0  0  0
  129.5796  125.7443   65.4464 H   0  0  0  0  0  0  0  0  0  0  0  0
  129.6873  127.3013   64.5453 H   0  0  0  0  0  0  0  0  0  0  0  0
  128.5584  125.9068   59.7740 H   0  0  0  0  0  0  0  0  0  0  0  0
  129.7787  125.5241   61.0500 H   0  0  0  0  0  0  0  0  0  0  0  0
  129.5636  123.4199   58.9861 H   0  0  0  0  0  0  0  0  0  0  0  0
  130.0605  125.0429   58.3320 H   0  0  0  0  0  0  0  0  0  0  0  0
  131.4677  124.3365   60.8068 H   0  0  0  0  0  0  0  0  0  0  0  0
  131.7253  123.1482   59.4309 H   0  0  0  0  0  0  0  0  0  0  0  0
  132.8075  125.8225   59.8556 H   0  0  0  0  0  0  0  0  0  0  0  0
  131.3675  126.7798   58.2976 H   0  0  0  0  0  0  0  0  0  0  0  0
  132.7765  126.3072   57.2886 H   0  0  0  0  0  0  0  0  0  0  0  0
  131.2922  125.2956   57.2886 H   0  0  0  0  0  0  0  0  0  0  0  0
  134.2949  123.9542   59.5218 H   0  0  0  0  0  0  0  0  0  0  0  0
  133.4323  123.4416   58.0319 H   0  0  0  0  0  0  0  0  0  0  0  0
  134.4053  124.9516   58.0319 H   0  0  0  0  0  0  0  0  0  0  0  0
  127.8267  122.1917   58.7312 H   0  0  0  0  0  0  0  0  0  0  0  0
  126.5403  121.4745   56.2693 H   0  0  0  0  0  0  0  0  0  0  0  0
  125.4022  122.5174   56.4704 H   0  0  0  0  0  0  0  0  0  0  0  0
  128.5406  123.1234   56.1146 H   0  0  0  0  0  0  0  0  0  0  0  0
  127.7509  124.4540   56.2888 H   0  0  0  0  0  0  0  0  0  0  0  0
  1  2  2  0
  2  3  1  0
  3  4  1  0
  4  5  1  0
  5  6  2  0
  6  7  1  0
  7  8  2  0
  8  9  1  0
  9 10  1  0
 10 11  1  0
 11 12  1  0
 12 13  1  0
 12 14  2  0
 12 15  2  0
 11 16  1  0
 16 17  1  0
 17 18  1  0
  8 19  1  0
 19 20  1  0
 20 21  1  0
 21 22  1  0
 22 23  1  0
 23 24  1  0
 23 25  1  0
  4 26  1  0
 26 27  1  0
 27 28  1  0
 19  5  1  0
 28 26  1  0
 18  9  1  0
  1 29  1  0
  1 30  1  0
  2 31  1  0
  3 32  1  0
  3 33  1  0
  9 34  1  1
 10 35  1  0
 10 36  1  0
 13 37  1  0
 13 38  1  0
 13 39  1  0
 16 40  1  0
 16 41  1  0
 17 42  1  0
 17 43  1  0
 20 44  1  0
 20 45  1  0
 21 46  1  0
 21 47  1  0
 22 48  1  0
 22 49  1  0
 23 50  1  0
 24 51  1  0
 24 52  1  0
 24 53  1  0
 25 54  1  0
 25 55  1  0
 25 56  1  0
 26 57  1  0
 27 58  1  0
 27 59  1  0
 28 60  1  0
 28 61  1  0
M  END
>  <Binding energies>  (1) 
[-7.14]

>  <Ligand effiencies>  (1) 
[-0.255]

>  <Interactions>  (1) 
["V-A:ILE:369:CG2:3237, V-A:ASP:366:CA:3210, V-B:PRO:540:CA:9855, V-A:GLY:454:CA:4049, V-A:ILE:369:CB:3236, V-B:ASP:366:CG:8184, V-B:TYR:539:CE2:9848, V-B:GLU:543:CG:9879, V-B:TYR:539:C:9839, V-A:ASP:366:CG:3213, V-B:TYR:539:CZ:9849, H-B:ALA:541:N:9863, V-B:ASP:366:CB:8183, V-B:PRO:540:CB:9857, V-A:GLU:543:CD:4908, H-A:GLY:454:N:4050, V-B:PRO:540:N:9856, V-A:ASP:366:C:3208, V-B:TYR:539:CD2:9846, V-B:PRO:540:CD:9859, V-B:GLU:543:CD:9880, V-A:ASP:366:CB:3212, H-A:ARG:545:NH2:4928, V-A:ARG:545:CZ:4926, V-B:TYR:539:CD1:9845, H-A:ARG:545:NE:4924, V-B:TYR:539:CE1:9847, H-A:TYR:484:OH:4348"]

$$$$
ZINC13638489
     RDKit          3D

 48 52  0  0  0  0  0  0  0  0999 V2000
  128.9980  128.5700   74.1480 Br  0  0  0  0  0  0  0  0  0  0  0  0
  128.7780  128.0660   72.3260 C   0  0  0  0  0  0  0  0  0  0  0  0
  129.7520  128.4100   71.3910 C   0  0  0  0  0  0  0  0  0  0  0  0
  129.5920  128.0410   70.0580 C   0  0  0  0  0  0  0  0  0  0  0  0
  128.4550  127.3320   69.6580 C   0  0  0  0  0  0  0  0  0  0  0  0
  128.3020  126.9210   68.1930 C   0  0  2  0  0  0  0  0  0  0  0  0
  129.1130  125.7480   67.8000 N   0  0  0  0  0  0  0  0  0  0  0  0
  129.6680  125.6180   66.5020 C   0  0  0  0  0  0  0  0  0  0  0  0
  130.5810  124.5920   66.2660 C   0  0  0  0  0  0  0  0  0  0  0  0
  131.1940  124.4700   65.0200 C   0  0  0  0  0  0  0  0  0  0  0  0
  130.9210  125.3850   64.0020 C   0  0  0  0  0  0  0  0  0  0  0  0
  131.5640  125.2030   62.7650 N   0  0  0  0  0  0  0  0  0  0  0  0
  132.3340  124.1530   62.2360 C   0  0  0  0  0  0  0  0  0  0  0  0
  133.5500  123.8660   62.8650 C   0  0  0  0  0  0  0  0  0  0  0  0
  134.3660  122.8460   62.3860 C   0  0  0  0  0  0  0  0  0  0  0  0
  133.9740  122.1180   61.2640 C   0  0  0  0  0  0  0  0  0  0  0  0
  132.7770  122.4090   60.6160 C   0  0  0  0  0  0  0  0  0  0  0  0
  131.9600  123.4290   61.0960 C   0  0  0  0  0  0  0  0  0  0  0  0
  129.9940  126.4070   64.2390 C   0  0  0  0  0  0  0  0  0  0  0  0
  129.3720  126.5510   65.4850 C   0  0  0  0  0  0  0  0  0  0  0  0
  128.3570  127.6410   65.7910 C   0  0  2  0  0  0  0  0  0  0  0  0
  128.3600  128.9670   65.0600 C   0  0  0  0  0  0  0  0  0  0  0  0
  127.9610  129.9390   65.9060 C   0  0  0  0  0  0  0  0  0  0  0  0
  127.7880  129.3980   67.3180 C   0  0  0  0  0  0  0  0  0  0  0  0
  128.5830  128.0980   67.2260 C   0  0  1  0  0  0  0  0  0  0  0  0
  127.4840  126.9850   70.6050 C   0  0  0  0  0  0  0  0  0  0  0  0
  127.6440  127.3540   71.9380 C   0  0  0  0  0  0  0  0  0  0  0  0
  130.6444  128.9713   71.7049 H   0  0  0  0  0  0  0  0  0  0  0  0
  130.3613  128.3076   69.3183 H   0  0  0  0  0  0  0  0  0  0  0  0
  127.2471  126.6214   68.1065 H   0  0  0  0  0  0  0  0  0  0  0  0
  129.3740  125.1250   68.5510 H   0  0  0  0  0  0  0  0  0  0  0  0
  130.8189  123.8756   67.0661 H   0  0  0  0  0  0  0  0  0  0  0  0
  131.8989  123.6455   64.8375 H   0  0  0  0  0  0  0  0  0  0  0  0
  131.5170  126.0130   62.1650 H   0  0  0  0  0  0  0  0  0  0  0  0
  133.8628  124.4499   63.7432 H   0  0  0  0  0  0  0  0  0  0  0  0
  135.3159  122.6152   62.8904 H   0  0  0  0  0  0  0  0  0  0  0  0
  134.6154  121.3074   60.8878 H   0  0  0  0  0  0  0  0  0  0  0  0
  132.4773  121.8346   59.7270 H   0  0  0  0  0  0  0  0  0  0  0  0
  131.0187  123.6671   60.5791 H   0  0  0  0  0  0  0  0  0  0  0  0
  129.7494  127.1110   63.4300 H   0  0  0  0  0  0  0  0  0  0  0  0
  127.4321  127.1220   65.4990 H   0  0  0  0  0  0  0  0  0  0  0  0
  128.6425  129.1142   64.0071 H   0  0  0  0  0  0  0  0  0  0  0  0
  127.7840  130.9846   65.6139 H   0  0  0  0  0  0  0  0  0  0  0  0
  128.2139  130.0807   68.0680 H   0  0  0  0  0  0  0  0  0  0  0  0
  126.7414  129.2704   67.6317 H   0  0  0  0  0  0  0  0  0  0  0  0
  129.6079  128.3491   67.5366 H   0  0  0  0  0  0  0  0  0  0  0  0
  126.5927  126.4196   70.2953 H   0  0  0  0  0  0  0  0  0  0  0  0
  126.8792  127.0850   72.6815 H   0  0  0  0  0  0  0  0  0  0  0  0
  1  2  1  0
  2  3  2  0
  3  4  1  0
  4  5  2  0
  5  6  1  0
  6  7  1  0
  7  8  1  0
  8  9  2  0
  9 10  1  0
 10 11  2  0
 11 12  1  0
 12 13  1  0
 13 14  2  0
 14 15  1  0
 15 16  2  0
 16 17  1  0
 17 18  2  0
 11 19  1  0
 19 20  2  0
 20 21  1  0
 21 22  1  0
 22 23  2  0
 23 24  1  0
 24 25  1  0
  5 26  1  0
 26 27  2  0
 27  2  1  0
 25  6  1  0
 20  8  1  0
 25 21  1  0
 18 13  1  0
  3 28  1  0
  4 29  1  0
  6 30  1  1
  7 31  1  0
  9 32  1  0
 10 33  1  0
 12 34  1  0
 14 35  1  0
 15 36  1  0
 16 37  1  0
 17 38  1  0
 18 39  1  0
 19 40  1  0
 21 41  1  1
 22 42  1  0
 23 43  1  0
 24 44  1  0
 24 45  1  0
 25 46  1  6
 26 47  1  0
 27 48  1  0
M  END
>  <Binding energies>  (1) 
[-7.92]

>  <Ligand effiencies>  (1) 
[-0.2731034482758621]

>  <Interactions>  (1) 
["V-A:ILE:369:CG2:3237, V-A:GLY:454:CA:4049, V-B:GLU:543:C:9874, V-B:HIS:456:CD2:9039, H-B:GLU:543:O:9875, V-A:GLU:543:C:4902, V-B:GLU:543:CB:9878, V-B:TYR:539:CE2:9848, V-A:TYR:484:CE2:4346, V-B:GLU:543:CG:9879, V-B:TYR:484:CE2:9317, V-A:TYR:484:CZ:4347, V-A:GLU:543:CD:4908, V-B:HIS:456:CE1:9041, V-B:GLU:543:CA:9876, V-A:GLY:453:C:4042, V-A:HIS:456:CE1:4070, V-B:TYR:484:CZ:9318, V-A:ILE:369:CD1:3239, V-B:GLY:544:C:9884, V-A:GLU:543:CG:4907, V-B:GLU:543:CD:9880, V-B:HIS:456:CG:9037, V-A:GLU:543:CB:4906, H-A:HIS:456:NE2:4071"]

$$$$
ZINC13639177
     RDKit          3D

 47 50  0  0  0  0  0  0  0  0999 V2000
  132.8620  125.4910   57.9160 C   0  0  0  0  0  0  0  0  0  0  0  0
  133.6030  124.3240   58.2380 O   0  0  0  0  0  0  0  0  0  0  0  0
  133.6380  124.0430   59.6320 C   0  0  0  0  0  0  0  0  0  0  0  0
  132.2790  124.3810   60.2570 C   0  0  0  0  0  0  0  0  0  0  0  0
  132.4240  125.5020   61.1270 O   0  0  0  0  0  0  0  0  0  0  0  0
  131.9390  125.4230   62.4190 C   0  0  0  0  0  0  0  0  0  0  0  0
  132.5360  124.6780   63.4480 C   0  0  0  0  0  0  0  0  0  0  0  0
  131.9770  124.6600   64.7240 C   0  0  0  0  0  0  0  0  0  0  0  0
  130.8070  125.3730   64.9920 C   0  0  0  0  0  0  0  0  0  0  0  0
  130.2020  126.1420   63.9750 C   0  0  0  0  0  0  0  0  0  0  0  0
  130.7750  126.1420   62.6990 C   0  0  0  0  0  0  0  0  0  0  0  0
  128.9330  126.9040   64.3260 C   0  0  2  0  0  0  0  0  0  0  0  0
  128.5000  128.1380   63.5620 C   0  0  0  0  0  0  0  0  0  0  0  0
  127.8910  128.9930   64.4090 C   0  0  0  0  0  0  0  0  0  0  0  0
  127.9760  128.4930   65.8450 C   0  0  0  0  0  0  0  0  0  0  0  0
  129.1060  127.4740   65.7260 C   0  0  1  0  0  0  0  0  0  0  0  0
  129.2420  126.3170   66.7470 C   0  0  2  0  0  0  0  0  0  0  0  0
  129.3930  126.8320   68.1780 C   0  0  0  0  0  0  0  0  0  0  0  0
  128.2970  126.7840   69.0470 C   0  0  0  0  0  0  0  0  0  0  0  0
  128.4130  127.2680   70.3460 C   0  0  0  0  0  0  0  0  0  0  0  0
  129.6250  127.8030   70.7790 C   0  0  0  0  0  0  0  0  0  0  0  0
  129.7820  128.4660   72.5570 Br  0  0  0  0  0  0  0  0  0  0  0  0
  130.7210  127.8600   69.9210 C   0  0  0  0  0  0  0  0  0  0  0  0
  130.6050  127.3770   68.6200 C   0  0  0  0  0  0  0  0  0  0  0  0
  130.3120  125.3890   66.3190 N   0  0  0  0  0  0  0  0  0  0  0  0
  132.5445  125.9911   58.8429 H   0  0  0  0  0  0  0  0  0  0  0  0
  133.4918  126.1746   57.3278 H   0  0  0  0  0  0  0  0  0  0  0  0
  131.9754  125.2117   57.3278 H   0  0  0  0  0  0  0  0  0  0  0  0
  133.8567  122.9759   59.7854 H   0  0  0  0  0  0  0  0  0  0  0  0
  134.4215  124.6506   60.1085 H   0  0  0  0  0  0  0  0  0  0  0  0
  131.5594  124.6244   59.4614 H   0  0  0  0  0  0  0  0  0  0  0  0
  131.9123  123.5163   60.8295 H   0  0  0  0  0  0  0  0  0  0  0  0
  133.4522  124.1040   63.2454 H   0  0  0  0  0  0  0  0  0  0  0  0
  132.4601  124.0808   65.5247 H   0  0  0  0  0  0  0  0  0  0  0  0
  130.2970  126.7227   61.8963 H   0  0  0  0  0  0  0  0  0  0  0  0
  128.1845  126.1255   64.1168 H   0  0  0  0  0  0  0  0  0  0  0  0
  128.6572  128.3097   62.4869 H   0  0  0  0  0  0  0  0  0  0  0  0
  127.3982  129.9276   64.1031 H   0  0  0  0  0  0  0  0  0  0  0  0
  128.2340  129.3043   66.5416 H   0  0  0  0  0  0  0  0  0  0  0  0
  127.0347  128.0852   66.2420 H   0  0  0  0  0  0  0  0  0  0  0  0
  130.0330  128.0231   65.9475 H   0  0  0  0  0  0  0  0  0  0  0  0
  128.3081  125.7360   66.7623 H   0  0  0  0  0  0  0  0  0  0  0  0
  127.3414  126.3625   68.7019 H   0  0  0  0  0  0  0  0  0  0  0  0
  127.5515  127.2286   71.0288 H   0  0  0  0  0  0  0  0  0  0  0  0
  131.6739  128.2847   70.2696 H   0  0  0  0  0  0  0  0  0  0  0  0
  131.4670  127.4236   67.9382 H   0  0  0  0  0  0  0  0  0  0  0  0
  130.7820  124.8910   67.0630 H   0  0  0  0  0  0  0  0  0  0  0  0
  1  2  1  0
  2  3  1  0
  3  4  1  0
  4  5  1  0
  5  6  1  0
  6  7  2  0
  7  8  1  0
  8  9  2  0
  9 10  1  0
 10 11  2  0
 10 12  1  0
 12 13  1  0
 13 14  2  0
 14 15  1  0
 15 16  1  0
 16 17  1  0
 17 18  1  0
 18 19  2  0
 19 20  1  0
 20 21  2  0
 21 22  1  0
 21 23  1  0
 23 24  2  0
 17 25  1  0
 11  6  1  0
 16 12  1  0
 24 18  1  0
 25  9  1  0
  1 26  1  0
  1 27  1  0
  1 28  1  0
  3 29  1  0
  3 30  1  0
  4 31  1  0
  4 32  1  0
  7 33  1  0
  8 34  1  0
 11 35  1  0
 12 36  1  1
 13 37  1  0
 14 38  1  0
 15 39  1  0
 15 40  1  0
 16 41  1  6
 17 42  1  1
 19 43  1  0
 20 44  1  0
 23 45  1  0
 24 46  1  0
 25 47  1  0
M  END
>  <Binding energies>  (1) 
[-6.77]

>  <Ligand effiencies>  (1) 
[-0.2603846153846154]

>  <Interactions>  (1) 
["V-A:ILE:369:CG2:3237, V-A:ASP:366:CA:3210, V-B:GLU:543:C:9874, H-A:GLU:543:OE2:4910, V-A:ILE:369:CB:3236, V-A:GLU:543:C:4902, V-B:GLU:543:CB:9878, V-B:TYR:539:CE2:9848, V-B:GLU:543:CG:9879, V-A:GLY:544:C:4912, V-A:ASP:366:CG:3213, V-B:TYR:539:CZ:9849, H-B:TYR:539:OH:9850, V-A:GLU:543:CD:4908, V-B:HIS:456:CE1:9041, V-A:ILE:369:CD1:3239, V-A:HIS:456:CE1:4070, V-A:ASP:366:C:3208, V-A:GLU:543:CG:4907, V-B:GLU:543:CD:9880, V-A:ASP:366:CB:3212, H-A:ARG:545:NH2:4928, V-A:GLU:543:CB:4906, H-A:TYR:484:OH:4348"]

$$$$
ZINC13654311
     RDKit          3D

 47 49  0  0  0  0  0  0  0  0999 V2000
  131.0160  119.4290   60.8680 C   0  0  0  0  0  0  0  0  0  0  0  0
  131.6800  120.6850   60.9530 O   0  0  0  0  0  0  0  0  0  0  0  0
  131.1090  121.7110   61.6850 C   0  0  0  0  0  0  0  0  0  0  0  0
  129.7340  121.8160   61.9500 C   0  0  0  0  0  0  0  0  0  0  0  0
  129.2100  122.8810   62.7040 C   0  0  0  0  0  0  0  0  0  0  0  0
  127.8600  123.0190   62.9900 O   0  0  0  0  0  0  0  0  0  0  0  0
  126.9350  123.2610   61.9360 C   0  0  0  0  0  0  0  0  0  0  0  0
  130.0860  123.8620   63.1990 C   0  0  0  0  0  0  0  0  0  0  0  0
  129.5640  124.9270   63.9570 N   0  0  0  0  0  0  0  0  0  0  0  0
  129.6460  125.0620   65.3260 C   0  0  0  0  0  0  0  0  0  0  0  0
  129.2930  126.1020   66.1160 C   0  0  0  0  0  0  0  0  0  0  0  0
  129.4250  126.0860   67.5460 C   0  0  0  0  0  0  0  0  0  0  0  0
  129.8530  125.1930   68.2800 O   0  0  0  0  0  0  0  0  0  0  0  0
  128.9590  127.2970   67.8930 N   0  0  0  0  0  0  0  0  0  0  0  0
  128.8810  127.7760   69.2880 C   0  0  2  0  0  0  0  0  0  0  0  0
  130.2710  127.7270   69.9780 C   0  0  0  0  0  0  0  0  0  0  0  0
  130.1000  128.0100   71.4730 C   0  0  0  0  0  0  0  0  0  0  0  0
  128.5050  127.1320   71.9310 S   0  0  0  0  0  0  0  0  0  0  0  0
  128.7940  125.8090   72.4960 O   0  0  0  0  0  0  0  0  0  0  0  0
  127.6360  128.0710   72.6480 O   0  0  0  0  0  0  0  0  0  0  0  0
  127.9190  126.9290   70.1550 C   0  0  0  0  0  0  0  0  0  0  0  0
  128.5690  128.0500   66.8520 N   0  0  0  0  0  0  0  0  0  0  0  0
  128.7550  127.3880   65.7940 C   0  0  0  0  0  0  0  0  0  0  0  0
  128.4480  127.8930   64.3970 C   0  0  0  0  0  0  0  0  0  0  0  0
  131.4580  123.7590   62.9320 C   0  0  0  0  0  0  0  0  0  0  0  0
  131.9640  122.6990   62.1870 C   0  0  0  0  0  0  0  0  0  0  0  0
  133.6670  122.6240   61.8940 Cl  0  0  0  0  0  0  0  0  0  0  0  0
  130.8160  119.0507   61.8813 H   0  0  0  0  0  0  0  0  0  0  0  0
  130.0654  119.5526   60.3285 H   0  0  0  0  0  0  0  0  0  0  0  0
  131.6534  118.7130   60.3285 H   0  0  0  0  0  0  0  0  0  0  0  0
  129.0511  121.0475   61.5588 H   0  0  0  0  0  0  0  0  0  0  0  0
  125.9535  123.5178   62.3612 H   0  0  0  0  0  0  0  0  0  0  0  0
  127.2955  124.0950   61.3160 H   0  0  0  0  0  0  0  0  0  0  0  0
  126.8409  122.3572   61.3160 H   0  0  0  0  0  0  0  0  0  0  0  0
  129.5980  125.7810   63.4170 H   0  0  0  0  0  0  0  0  0  0  0  0
  130.0613  124.1926   65.8567 H   0  0  0  0  0  0  0  0  0  0  0  0
  128.5079  128.8085   69.2192 H   0  0  0  0  0  0  0  0  0  0  0  0
  130.7153  126.7301   69.8405 H   0  0  0  0  0  0  0  0  0  0  0  0
  130.9326  128.4839   69.5315 H   0  0  0  0  0  0  0  0  0  0  0  0
  130.9468  127.6041   72.0459 H   0  0  0  0  0  0  0  0  0  0  0  0
  130.0664  129.0866   71.6960 H   0  0  0  0  0  0  0  0  0  0  0  0
  127.9658  125.8715   69.8558 H   0  0  0  0  0  0  0  0  0  0  0  0
  126.8756  127.2563   70.0355 H   0  0  0  0  0  0  0  0  0  0  0  0
  127.8776  128.8312   64.4634 H   0  0  0  0  0  0  0  0  0  0  0  0
  129.3893  128.0735   63.8573 H   0  0  0  0  0  0  0  0  0  0  0  0
  127.8544  127.1404   63.8573 H   0  0  0  0  0  0  0  0  0  0  0  0
  132.1445  124.5274   63.3171 H   0  0  0  0  0  0  0  0  0  0  0  0
  1  2  1  0
  2  3  1  0
  3  4  2  0
  4  5  1  0
  5  6  1  0
  6  7  1  0
  5  8  2  0
  8  9  1  0
  9 10  1  0
 10 11  2  0
 11 12  1  0
 12 13  2  0
 12 14  1  0
 14 15  1  0
 15 16  1  0
 16 17  1  0
 17 18  1  0
 18 19  2  0
 18 20  2  0
 18 21  1  0
 14 22  1  0
 22 23  2  0
 23 24  1  0
  8 25  1  0
 25 26  2  0
 26 27  1  0
 26  3  1  0
 23 11  1  0
 21 15  1  0
  1 28  1  0
  1 29  1  0
  1 30  1  0
  4 31  1  0
  7 32  1  0
  7 33  1  0
  7 34  1  0
  9 35  1  0
 10 36  1  0
 15 37  1  6
 16 38  1  0
 16 39  1  0
 17 40  1  0
 17 41  1  0
 21 42  1  0
 21 43  1  0
 24 44  1  0
 24 45  1  0
 24 46  1  0
 25 47  1  0
M  END
>  <Binding energies>  (1) 
[-7.0]

>  <Ligand effiencies>  (1) 
[-0.25]

>  <Interactions>  (1) 
["V-A:ILE:369:CD1:3239, V-B:PRO:540:CA:9855, V-A:HIS:456:CE1:4070, V-B:GLU:543:C:9874, H-B:GLU:543:OE1:9881, V-B:GLU:543:CB:9878, H-B:LYS:547:NZ:9923, V-B:TYR:539:CD2:9846, H-B:ALA:541:N:9863, H-A:SER:385:OG:3410, V-B:ALA:541:CB:9864, V-B:GLU:543:CD:9880, V-A:GLU:543:CD:4908, V-A:LEU:475:CD2:4259, V-B:GLU:543:CG:9879, V-A:GLY:544:C:4912, V-B:HIS:456:CE1:9041, V-A:GLU:543:CB:4906"]

$$$$
ZINC13660701
     RDKit          3D

 41 44  0  0  0  0  0  0  0  0999 V2000
  133.9880  124.3280   63.3300 O   0  0  0  0  0  0  0  0  0  0  0  0
  132.9000  123.7820   63.1450 C   0  0  0  0  0  0  0  0  0  0  0  0
  132.8280  122.6870   62.3540 N   0  0  0  0  0  0  0  0  0  0  0  0
  131.7470  121.9430   62.0050 C   0  0  0  0  0  0  0  0  0  0  0  0
  131.8910  120.9770   61.2540 O   0  0  0  0  0  0  0  0  0  0  0  0
  130.5570  122.3860   62.5430 N   0  0  0  0  0  0  0  0  0  0  0  0
  129.3410  121.6440   62.1200 C   0  0  0  0  0  0  0  0  0  0  0  0
  128.3650  122.5070   61.3380 C   0  0  0  0  0  0  0  0  0  0  0  0
  128.3630  123.0270   60.0510 C   0  0  0  0  0  0  0  0  0  0  0  0
  127.1670  123.7270   59.8950 C   0  0  0  0  0  0  0  0  0  0  0  0
  126.4840  123.5980   61.0930 C   0  0  0  0  0  0  0  0  0  0  0  0
  127.2110  122.8550   61.9660 O   0  0  0  0  0  0  0  0  0  0  0  0
  130.3710  123.5100   63.3230 C   0  0  0  0  0  0  0  0  0  0  0  0
  129.2460  123.9120   63.6350 O   0  0  0  0  0  0  0  0  0  0  0  0
  131.6150  124.1980   63.7230 C   0  0  0  0  0  0  0  0  0  0  0  0
  131.6350  125.2210   64.6250 C   0  0  0  0  0  0  0  0  0  0  0  0
  130.5850  125.8470   65.4170 C   0  0  0  0  0  0  0  0  0  0  0  0
  129.2760  126.2310   65.1530 C   0  0  0  0  0  0  0  0  0  0  0  0
  128.7480  126.7480   66.3340 C   0  0  0  0  0  0  0  0  0  0  0  0
  129.7400  126.6480   67.2980 C   0  0  0  0  0  0  0  0  0  0  0  0
  129.8110  127.0110   68.7440 C   0  0  0  0  0  0  0  0  0  0  0  0
  130.9110  127.7270   69.2290 C   0  0  0  0  0  0  0  0  0  0  0  0
  130.9930  128.0730   70.5770 C   0  0  0  0  0  0  0  0  0  0  0  0
  129.9760  127.7080   71.4600 C   0  0  0  0  0  0  0  0  0  0  0  0
  130.1150  128.1560   73.1260 Cl  0  0  0  0  0  0  0  0  0  0  0  0
  128.8700  126.9910   70.9870 C   0  0  0  0  0  0  0  0  0  0  0  0
  127.5870  126.5160   72.0450 Cl  0  0  0  0  0  0  0  0  0  0  0  0
  128.7940  126.6460   69.6360 C   0  0  0  0  0  0  0  0  0  0  0  0
  130.8430  126.0880   66.7300 O   0  0  0  0  0  0  0  0  0  0  0  0
  133.7060  122.3830   61.9580 H   0  0  0  0  0  0  0  0  0  0  0  0
  129.6480  120.7988   61.4864 H   0  0  0  0  0  0  0  0  0  0  0  0
  128.8263  121.3059   63.0315 H   0  0  0  0  0  0  0  0  0  0  0  0
  129.1550  122.9092   59.2968 H   0  0  0  0  0  0  0  0  0  0  0  0
  126.8330  124.2723   58.9999 H   0  0  0  0  0  0  0  0  0  0  0  0
  125.4968  124.0339   61.3059 H   0  0  0  0  0  0  0  0  0  0  0  0
  132.6329  125.6555   64.7845 H   0  0  0  0  0  0  0  0  0  0  0  0
  128.7531  126.1430   64.1893 H   0  0  0  0  0  0  0  0  0  0  0  0
  127.7369  127.1575   66.4750 H   0  0  0  0  0  0  0  0  0  0  0  0
  131.7179  128.0193   68.5409 H   0  0  0  0  0  0  0  0  0  0  0  0
  131.8629  128.6360   70.9461 H   0  0  0  0  0  0  0  0  0  0  0  0
  127.9252  126.0808   69.2676 H   0  0  0  0  0  0  0  0  0  0  0  0
  1  2  2  0
  2  3  1  0
  3  4  1  0
  4  5  2  0
  4  6  1  0
  6  7  1  0
  7  8  1  0
  8  9  2  0
  9 10  1  0
 10 11  2  0
 11 12  1  0
  6 13  1  0
 13 14  2  0
 13 15  1  0
 15 16  2  0
 16 17  1  0
 17 18  2  0
 18 19  1  0
 19 20  2  0
 20 21  1  0
 21 22  2  0
 22 23  1  0
 23 24  2  0
 24 25  1  0
 24 26  1  0
 26 27  1  0
 26 28  2  0
 20 29  1  0
 15  2  1  0
 29 17  1  0
 12  8  1  0
 28 21  1  0
  3 30  1  0
  7 31  1  0
  7 32  1  0
  9 33  1  0
 10 34  1  0
 11 35  1  0
 16 36  1  0
 18 37  1  0
 19 38  1  0
 22 39  1  0
 23 40  1  0
 28 41  1  0
M  END
>  <Binding energies>  (1) 
[-7.53]

>  <Ligand effiencies>  (1) 
[-0.251]

>  <Interactions>  (1) 
["V-B:PRO:540:CA:9855, V-B:GLU:543:C:9874, V-A:GLU:543:C:4902, V-B:GLU:543:CB:9878, V-B:ALA:541:CB:9864, V-B:GLU:543:CG:9879, V-A:GLY:544:C:4912, V-B:LYS:547:CE:9922, H-B:ALA:541:N:9863, V-A:GLU:543:CD:4908, V-B:PRO:540:CB:9857, H-A:GLY:454:N:4050, V-A:HIS:456:CE1:4070, V-B:GLY:544:C:9884, V-B:GLY:544:CA:9886, V-B:GLU:543:CD:9880, V-A:LEU:475:CD2:4259, H-A:ARG:545:NH2:4928, V-A:GLU:543:CB:4906, H-A:SER:385:O:3406, V-B:PRO:540:C:9853"]

$$$$
ZINC13660701-again1
     RDKit          3D

 40 43  0  0  0  0  0  0  0  0999 V2000
  129.1730  133.2200   60.7600 O   0  0  0  0  0  0  0  0  0  0  0  0
  128.6590  132.5180   61.6340 C   0  0  0  0  0  0  0  0  0  0  0  0
  127.5720  132.9270   62.4260 N   0  0  0  0  0  0  0  0  0  0  0  0
  127.1880  132.2390   63.4350 C   0  0  0  0  0  0  0  0  0  0  0  0
  126.2220  132.7160   64.0590 O   0  0  0  0  0  0  0  0  0  0  0  0
  127.7990  130.9540   63.8130 C   0  0  0  0  0  0  0  0  0  0  0  0
  127.5490  130.3340   65.0100 C   0  0  0  0  0  0  0  0  0  0  0  0
  128.0800  129.1200   65.6160 C   0  0  0  0  0  0  0  0  0  0  0  0
  128.4130  127.8640   65.1260 C   0  0  0  0  0  0  0  0  0  0  0  0
  128.9180  127.1200   66.1900 C   0  0  0  0  0  0  0  0  0  0  0  0
  128.8980  127.9470   67.3050 C   0  0  0  0  0  0  0  0  0  0  0  0
  129.3030  127.7650   68.7300 C   0  0  0  0  0  0  0  0  0  0  0  0
  130.6150  128.0500   69.1230 C   0  0  0  0  0  0  0  0  0  0  0  0
  131.0090  127.8850   70.4510 C   0  0  0  0  0  0  0  0  0  0  0  0
  130.0970  127.4300   71.4040 C   0  0  0  0  0  0  0  0  0  0  0  0
  130.6260  127.2370   73.0400 Cl  0  0  0  0  0  0  0  0  0  0  0  0
  128.7820  127.1410   71.0220 C   0  0  0  0  0  0  0  0  0  0  0  0
  127.6170  126.5750   72.1690 Cl  0  0  0  0  0  0  0  0  0  0  0  0
  128.3920  127.3100   69.6910 C   0  0  0  0  0  0  0  0  0  0  0  0
  128.3980  129.1600   66.9380 O   0  0  0  0  0  0  0  0  0  0  0  0
  128.7280  130.3640   62.8290 C   0  0  0  0  0  0  0  0  0  0  0  0
  129.0660  129.1750   62.8470 O   0  0  0  0  0  0  0  0  0  0  0  0
  129.1600  131.2390   61.8490 N   0  0  0  0  0  0  0  0  0  0  0  0
  130.1560  130.7090   60.8740 C   0  0  0  0  0  0  0  0  0  0  0  0
  131.5640  131.2090   61.1440 C   0  0  0  0  0  0  0  0  0  0  0  0
  132.7360  131.2220   60.4020 C   0  0  0  0  0  0  0  0  0  0  0  0
  133.7090  131.8460   61.1840 C   0  0  0  0  0  0  0  0  0  0  0  0
  133.0860  132.1940   62.3700 C   0  0  0  0  0  0  0  0  0  0  0  0
  131.7840  131.8100   62.3430 O   0  0  0  0  0  0  0  0  0  0  0  0
  126.8048  130.8526   65.6323 H   0  0  0  0  0  0  0  0  0  0  0  0
  128.2989  127.5196   64.0876 H   0  0  0  0  0  0  0  0  0  0  0  0
  129.2659  126.0771   66.1537 H   0  0  0  0  0  0  0  0  0  0  0  0
  131.3420  128.4072   68.3787 H   0  0  0  0  0  0  0  0  0  0  0  0
  132.0429  128.1145   70.7481 H   0  0  0  0  0  0  0  0  0  0  0  0
  127.3573  127.0830   69.3947 H   0  0  0  0  0  0  0  0  0  0  0  0
  130.1554  129.6106   60.9324 H   0  0  0  0  0  0  0  0  0  0  0  0
  129.8636  131.0635   59.8746 H   0  0  0  0  0  0  0  0  0  0  0  0
  132.8726  130.8169   59.3885 H   0  0  0  0  0  0  0  0  0  0  0  0
  134.7598  132.0252   60.9124 H   0  0  0  0  0  0  0  0  0  0  0  0
  133.5745  132.7069   63.2116 H   0  0  0  0  0  0  0  0  0  0  0  0
  1  2  2  0
  2  3  1  0
  3  4  2  0
  4  5  1  0
  4  6  1  0
  6  7  2  0
  7  8  1  0
  8  9  2  0
  9 10  1  0
 10 11  2  0
 11 12  1  0
 12 13  2  0
 13 14  1  0
 14 15  2  0
 15 16  1  0
 15 17  1  0
 17 18  1  0
 17 19  2  0
 11 20  1  0
  6 21  1  0
 21 22  2  0
 21 23  1  0
 23 24  1  0
 24 25  1  0
 25 26  2  0
 26 27  1  0
 27 28  2  0
 28 29  1  0
 23  2  1  0
 29 25  1  0
 20  8  1  0
 19 12  1  0
  7 30  1  0
  9 31  1  0
 10 32  1  0
 13 33  1  0
 14 34  1  0
 19 35  1  0
 24 36  1  0
 24 37  1  0
 26 38  1  0
 27 39  1  0
 28 40  1  0
M  CHG  1   5  -1
M  END
>  <Binding energies>  (1) 
[-6.77]

>  <Ligand effiencies>  (1) 
[-0.23344827586206895]

>  <Interactions>  (1) 
["V-A:GLU:543:CA:4904, V-A:ALA:541:C:4888, V-A:GLU:543:C:4902, H-A:ALA:541:N:4891, V-B:GLU:543:CB:9878, V-A:PRO:540:C:4881, V-B:GLU:543:CG:9879, V-B:LEU:475:CD2:9230, V-A:GLY:544:C:4912, V-A:HIS:456:CD2:4068, V-A:ASP:366:CG:3213, V-A:ASN:362:CB:3176, V-B:LYS:547:CE:9922, V-A:GLU:543:CD:4908, H-B:TYR:484:OH:9319, V-B:HIS:456:CE1:9041, V-B:TYR:484:CZ:9318, V-A:HIS:456:CE1:4070, V-B:GLY:544:C:9884, V-B:GLY:544:CA:9886, V-A:GLU:543:CG:4907, V-B:GLU:543:CD:9880, V-A:ASN:362:C:3172, V-A:GLU:543:CB:4906, V-A:PRO:540:CB:4885, V-A:PRO:540:CA:4883, V-A:LEU:363:CA:3185"]

$$$$
ZINC13690305
     RDKit          3D

 37 38  0  0  0  0  0  0  0  0999 V2000
  127.0320  129.2220   66.6900 C   0  0  0  0  0  0  0  0  0  0  0  0
  128.0170  128.2280   67.3380 C   0  0  0  0  0  0  0  0  0  0  0  0
  128.7280  127.3840   66.2650 C   0  0  0  0  0  0  0  0  0  0  0  0
  127.3390  127.3200   68.3950 C   0  0  0  0  0  0  0  0  0  0  0  0
  128.0210  127.3330   69.7590 C   0  0  0  0  0  0  0  0  0  0  0  0
  127.1980  127.0930   70.8120 N   0  0  0  0  0  0  0  0  0  0  0  0
  127.7260  127.0400   72.0690 C   0  0  0  0  0  0  0  0  0  0  0  0
  126.8720  126.7850   73.1330 O   0  0  0  0  0  0  0  0  0  0  0  0
  126.1850  127.8660   73.7810 C   0  0  0  0  0  0  0  0  0  0  0  0
  127.0770  128.4800   74.8820 C   0  0  0  0  0  0  0  0  0  0  0  0
  127.2690  127.7690   75.8940 O   0  0  0  0  0  0  0  0  0  0  0  0
  127.5610  129.6270   74.7310 O   0  0  0  0  0  0  0  0  0  0  0  0
  129.0990  127.2290   72.3050 C   0  0  0  0  0  0  0  0  0  0  0  0
  129.6480  127.1400   73.6550 C   0  0  0  0  0  0  0  0  0  0  0  0
  130.0850  127.0690   74.7240 N   0  0  0  0  0  0  0  0  0  0  0  0
  129.9330  127.5030   71.2110 C   0  0  0  0  0  0  0  0  0  0  0  0
  129.3910  127.5570   69.9230 C   0  0  0  0  0  0  0  0  0  0  0  0
  130.4760  127.7700   68.8880 C   0  0  0  0  0  0  0  0  0  0  0  0
  131.7160  128.1130   69.7130 C   0  0  0  0  0  0  0  0  0  0  0  0
  131.4400  127.6750   71.1520 C   0  0  0  0  0  0  0  0  0  0  0  0
  126.4911  129.7679   67.4770 H   0  0  0  0  0  0  0  0  0  0  0  0
  127.5891  129.9358   66.0654 H   0  0  0  0  0  0  0  0  0  0  0  0
  126.3132  128.6714   66.0654 H   0  0  0  0  0  0  0  0  0  0  0  0
  128.7694  128.8278   67.8710 H   0  0  0  0  0  0  0  0  0  0  0  0
  129.3632  126.6300   66.7530 H   0  0  0  0  0  0  0  0  0  0  0  0
  127.9776  126.8808   65.6376 H   0  0  0  0  0  0  0  0  0  0  0  0
  129.3514  128.0381   65.6376 H   0  0  0  0  0  0  0  0  0  0  0  0
  126.3004  127.6581   68.5252 H   0  0  0  0  0  0  0  0  0  0  0  0
  127.4070  126.2892   68.0170 H   0  0  0  0  0  0  0  0  0  0  0  0
  125.9410  128.6392   73.0376 H   0  0  0  0  0  0  0  0  0  0  0  0
  125.2619  127.4816   74.2393 H   0  0  0  0  0  0  0  0  0  0  0  0
  130.6393  126.8551   68.2995 H   0  0  0  0  0  0  0  0  0  0  0  0
  130.2198  128.5572   68.1637 H   0  0  0  0  0  0  0  0  0  0  0  0
  132.5914  127.5769   69.3176 H   0  0  0  0  0  0  0  0  0  0  0  0
  131.9278  129.1915   69.6679 H   0  0  0  0  0  0  0  0  0  0  0  0
  131.9493  126.7257   71.3745 H   0  0  0  0  0  0  0  0  0  0  0  0
  131.8085  128.4026   71.8901 H   0  0  0  0  0  0  0  0  0  0  0  0
  1  2  1  0
  2  3  1  0
  2  4  1  0
  4  5  1  0
  5  6  2  0
  6  7  1  0
  7  8  1  0
  8  9  1  0
  9 10  1  0
 10 11  2  0
 10 12  1  0
  7 13  2  0
 13 14  1  0
 14 15  3  0
 13 16  1  0
 16 17  2  0
 17 18  1  0
 18 19  1  0
 19 20  1  0
 17  5  1  0
 20 16  1  0
  1 21  1  0
  1 22  1  0
  1 23  1  0
  2 24  1  0
  3 25  1  0
  3 26  1  0
  3 27  1  0
  4 28  1  0
  4 29  1  0
  9 30  1  0
  9 31  1  0
 18 32  1  0
 18 33  1  0
 19 34  1  0
 19 35  1  0
 20 36  1  0
 20 37  1  0
M  CHG  1  12  -1
M  END
>  <Binding energies>  (1) 
[-6.28]

>  <Ligand effiencies>  (1) 
[-0.314]

>  <Interactions>  (1) 
["V-A:ARG:545:CA:4919, V-A:GLU:543:CA:4904, V-B:HIS:456:CD2:9039, V-A:GLU:543:C:4902, V-B:GLU:543:CB:9878, H-B:LYS:547:NZ:9923, V-B:HIS:456:CB:9036, V-B:GLU:543:CG:9879, V-A:GLY:544:C:4912, V-A:HIS:456:CD2:4068, H-B:HIS:456:ND1:9038, V-B:LYS:547:CE:9922, V-A:GLU:543:CD:4908, V-A:ARG:545:CG:4922, V-B:HIS:456:CE1:9041, V-A:HIS:456:CE1:4070, V-B:TYR:484:CZ:9318, V-B:GLY:544:C:9884, V-B:GLU:543:CD:9880, V-B:HIS:456:CG:9037, H-A:LYS:547:NZ:4951, V-A:HIS:456:CG:4066, V-A:GLU:543:CB:4906"]

$$$$
ZINC137336185
     RDKit          3D

 90 95  0  0  0  0  0  0  0  0999 V2000
  130.8010  125.4720   58.2320 C   0  0  0  0  0  0  0  0  0  0  0  0
  129.6260  124.7870   57.8140 O   0  0  0  0  0  0  0  0  0  0  0  0
  128.5430  124.7790   58.7470 C   0  0  1  0  0  0  0  0  0  0  0  0
  128.1870  126.2490   59.0840 C   0  0  0  0  0  0  0  0  0  0  0  0
  126.8710  126.4700   59.7000 N   0  0  0  0  0  0  0  0  0  0  0  0
  126.6060  127.8930   59.9440 C   0  0  0  0  0  0  0  0  0  0  0  0
  126.8570  128.3150   61.3870 C   0  0  0  0  0  0  0  0  0  0  0  0
  125.8070  128.8050   62.1660 C   0  0  0  0  0  0  0  0  0  0  0  0
  126.0460  129.2320   63.4700 C   0  0  0  0  0  0  0  0  0  0  0  0
  127.3400  129.1820   63.9920 C   0  0  0  0  0  0  0  0  0  0  0  0
  127.6070  129.6350   65.4150 C   0  0  0  0  0  0  0  0  0  0  0  0
  128.3940  128.7030   63.2100 C   0  0  0  0  0  0  0  0  0  0  0  0
  128.1540  128.2780   61.9060 C   0  0  0  0  0  0  0  0  0  0  0  0
  126.5250  125.5770   60.8130 C   0  0  0  0  0  0  0  0  0  0  0  0
  126.4600  124.0800   60.5220 C   0  0  2  0  0  0  0  0  0  0  0  0
  127.6810  123.5320   60.9110 O   0  0  0  0  0  0  0  0  0  0  0  0
  128.1690  123.9970   62.1680 C   0  0  0  0  0  0  0  0  0  0  0  0
  129.7380  123.8450   62.2240 C   0  0  1  0  0  0  0  0  0  0  0  0
  130.0610  122.6310   61.2600 C   0  0  0  0  0  0  0  0  0  0  0  0
  131.5530  122.3020   61.1050 C   0  0  2  0  0  0  0  0  0  0  0  0
  132.0830  121.0220   60.4460 C   0  0  2  0  0  0  0  0  0  0  0  0
  131.3540  119.7330   60.8750 C   0  0  0  0  0  0  0  0  0  0  0  0
  133.5830  121.0410   60.8480 C   0  0  0  0  0  0  0  0  0  0  0  0
  133.7620  122.1040   61.9620 C   0  0  0  0  0  0  0  0  0  0  0  0
  132.3330  122.4400   62.4140 C   0  0  1  0  0  0  0  0  0  0  0  0
  131.9690  123.7730   63.1630 C   0  0  1  0  0  0  0  0  0  0  0  0
  132.9740  123.9800   64.3320 C   0  0  0  0  0  0  0  0  0  0  0  0
  133.9710  124.6970   64.2530 O   0  0  0  0  0  0  0  0  0  0  0  0
  131.9790  124.9880   62.1700 C   0  0  0  0  0  0  0  0  0  0  0  0
  130.4640  125.1890   61.9330 C   0  0  2  0  0  0  0  0  0  0  0  0
  130.0310  125.9720   63.1570 C   0  0  0  0  0  0  0  0  0  0  0  0
  130.0250  125.1250   64.2120 C   0  0  0  0  0  0  0  0  0  0  0  0
  129.6640  125.4230   65.6740 C   0  0  0  0  0  0  0  0  0  0  0  0
  129.1060  126.8460   65.8880 C   0  0  0  0  0  0  0  0  0  0  0  0
  130.8160  125.1550   66.6590 C   0  0  0  0  0  0  0  0  0  0  0  0
  130.4180  123.7160   63.6470 C   0  0  1  0  0  0  0  0  0  0  0  0
  129.9370  122.5100   64.5500 C   0  0  0  0  0  0  0  0  0  0  0  0
  130.7940  121.7290   65.0240 O   0  0  0  0  0  0  0  0  0  0  0  0
  128.7120  122.3280   64.7300 O   0  0  0  0  0  0  0  0  0  0  0  0
  126.2360  123.8760   59.1630 O   0  0  0  0  0  0  0  0  0  0  0  0
  127.3410  123.9130   58.2660 C   0  0  2  0  0  0  0  0  0  0  0  0
  127.7360  122.4470   58.0240 C   0  0  0  0  0  0  0  0  0  0  0  0
  130.8406  125.4951   59.3310 H   0  0  0  0  0  0  0  0  0  0  0  0
  131.6877  124.9493   57.8441 H   0  0  0  0  0  0  0  0  0  0  0  0
  130.7831  126.5012   57.8441 H   0  0  0  0  0  0  0  0  0  0  0  0
  128.8483  124.2803   59.6787 H   0  0  0  0  0  0  0  0  0  0  0  0
  128.9511  126.6294   59.7778 H   0  0  0  0  0  0  0  0  0  0  0  0
  128.1533  126.7741   58.1180 H   0  0  0  0  0  0  0  0  0  0  0  0
  127.2592  128.4871   59.2880 H   0  0  0  0  0  0  0  0  0  0  0  0
  125.5400  128.0661   59.7350 H   0  0  0  0  0  0  0  0  0  0  0  0
  124.7901  128.8538   61.7495 H   0  0  0  0  0  0  0  0  0  0  0  0
  125.2169  129.6079   64.0874 H   0  0  0  0  0  0  0  0  0  0  0  0
  127.1776  128.9064   66.1184 H   0  0  0  0  0  0  0  0  0  0  0  0
  128.6923  129.7075   65.5792 H   0  0  0  0  0  0  0  0  0  0  0  0
  127.1448  130.6196   65.5792 H   0  0  0  0  0  0  0  0  0  0  0  0
  129.4123  128.6617   63.6240 H   0  0  0  0  0  0  0  0  0  0  0  0
  128.9851  127.9132   61.2845 H   0  0  0  0  0  0  0  0  0  0  0  0
  127.2771  125.7269   61.6016 H   0  0  0  0  0  0  0  0  0  0  0  0
  125.4959  125.8543   61.0850 H   0  0  0  0  0  0  0  0  0  0  0  0
  125.6367  123.6008   61.0721 H   0  0  0  0  0  0  0  0  0  0  0  0
  127.9004  125.0562   62.2944 H   0  0  0  0  0  0  0  0  0  0  0  0
  127.7182  123.4004   62.9748 H   0  0  0  0  0  0  0  0  0  0  0  0
  129.5543  121.7381   61.6548 H   0  0  0  0  0  0  0  0  0  0  0  0
  129.7076  122.9296   60.2620 H   0  0  0  0  0  0  0  0  0  0  0  0
  131.7221  123.0727   60.3386 H   0  0  0  0  0  0  0  0  0  0  0  0
  131.9170  121.0102   59.3587 H   0  0  0  0  0  0  0  0  0  0  0  0
  131.3227  119.6776   61.9732 H   0  0  0  0  0  0  0  0  0  0  0  0
  130.3278  119.7430   60.4790 H   0  0  0  0  0  0  0  0  0  0  0  0
  131.8914  118.8587   60.4790 H   0  0  0  0  0  0  0  0  0  0  0  0
  133.8822  120.0514   61.2236 H   0  0  0  0  0  0  0  0  0  0  0  0
  134.2106  121.2864   59.9785 H   0  0  0  0  0  0  0  0  0  0  0  0
  134.3472  121.6944   62.7985 H   0  0  0  0  0  0  0  0  0  0  0  0
  134.3055  122.9918   61.6065 H   0  0  0  0  0  0  0  0  0  0  0  0
  132.0976  121.7684   63.2527 H   0  0  0  0  0  0  0  0  0  0  0  0
  132.7832  123.4571   65.2808 H   0  0  0  0  0  0  0  0  0  0  0  0
  132.4381  125.8779   62.6253 H   0  0  0  0  0  0  0  0  0  0  0  0
  132.5626  124.8190   61.2530 H   0  0  0  0  0  0  0  0  0  0  0  0
  130.2663  125.6049   60.9340 H   0  0  0  0  0  0  0  0  0  0  0  0
  129.7682  127.0398   63.1827 H   0  0  0  0  0  0  0  0  0  0  0  0
  128.8597  124.7070   65.8987 H   0  0  0  0  0  0  0  0  0  0  0  0
  129.0259  127.0502   66.9659 H   0  0  0  0  0  0  0  0  0  0  0  0
  129.7833  127.5789   65.4253 H   0  0  0  0  0  0  0  0  0  0  0  0
  128.1110  126.9231   65.4253 H   0  0  0  0  0  0  0  0  0  0  0  0
  130.4440  125.2415   67.6906 H   0  0  0  0  0  0  0  0  0  0  0  0
  131.2101  124.1412   66.4952 H   0  0  0  0  0  0  0  0  0  0  0  0
  131.6171  125.8908   66.4952 H   0  0  0  0  0  0  0  0  0  0  0  0
  127.0404  124.4172   57.3357 H   0  0  0  0  0  0  0  0  0  0  0  0
  127.8727  121.9398   58.9904 H   0  0  0  0  0  0  0  0  0  0  0  0
  126.9418  121.9425   57.4542 H   0  0  0  0  0  0  0  0  0  0  0  0
  128.6762  122.4098   57.4542 H   0  0  0  0  0  0  0  0  0  0  0  0
  1  2  1  0
  2  3  1  0
  3  4  1  0
  4  5  1  0
  5  6  1  0
  6  7  1  0
  7  8  2  0
  8  9  1  0
  9 10  2  0
 10 11  1  0
 10 12  1  0
 12 13  2  0
  5 14  1  0
 14 15  1  0
 15 16  1  0
 16 17  1  0
 18 17  1  1
 18 19  1  0
 19 20  1  0
 20 21  1  0
 21 22  1  0
 21 23  1  0
 23 24  1  0
 24 25  1  0
 25 26  1  0
 26 27  1  1
 27 28  2  0
 26 29  1  0
 29 30  1  0
 30 31  1  0
 31 32  2  0
 32 33  1  0
 33 34  1  0
 33 35  1  0
 32 36  1  0
 36 37  1  1
 37 38  2  0
 37 39  1  0
 15 40  1  0
 40 41  1  0
 41 42  1  0
 41  3  1  0
 13  7  1  0
 30 18  1  0
 36 18  1  0
 25 20  1  0
 36 26  1  0
  1 43  1  0
  1 44  1  0
  1 45  1  0
  3 46  1  1
  4 47  1  0
  4 48  1  0
  6 49  1  0
  6 50  1  0
  8 51  1  0
  9 52  1  0
 11 53  1  0
 11 54  1  0
 11 55  1  0
 12 56  1  0
 13 57  1  0
 14 58  1  0
 14 59  1  0
 15 60  1  1
 17 61  1  0
 17 62  1  0
 19 63  1  0
 19 64  1  0
 20 65  1  6
 21 66  1  6
 22 67  1  0
 22 68  1  0
 22 69  1  0
 23 70  1  0
 23 71  1  0
 24 72  1  0
 24 73  1  0
 25 74  1  1
 27 75  1  0
 29 76  1  0
 29 77  1  0
 30 78  1  6
 31 79  1  0
 33 80  1  0
 34 81  1  0
 34 82  1  0
 34 83  1  0
 35 84  1  0
 35 85  1  0
 35 86  1  0
 41 87  1  6
 42 88  1  0
 42 89  1  0
 42 90  1  0
M  CHG  1  39  -1
M  END
>  <Binding energies>  (1) 
[-6.11]

>  <Ligand effiencies>  (1) 
[-0.13886363636363638]

>  <Interactions>  (1) 
["V-A:ILE:369:CG2:3237, V-B:PRO:540:CA:9855, V-A:GLY:454:CA:4049, V-B:GLU:543:CB:9878, V-B:ASP:366:CG:8184, V-B:ALA:541:CB:9864, H-A:ARG:545:NH1:4927, V-B:TYR:539:CE2:9848, V-A:TYR:484:CE2:4346, V-B:GLU:543:CG:9879, V-B:TYR:539:C:9839, V-B:TYR:539:CZ:9849, H-B:TYR:539:OH:9850, V-A:GLU:543:CD:4908, V-B:PRO:540:CB:9857, V-A:TYR:484:CZ:4347, H-A:GLY:454:N:4050, V-B:PRO:540:N:9856, V-A:ILE:369:CD1:3239, V-A:HIS:456:CE1:4070, V-B:TYR:539:CD2:9846, V-A:GLU:543:CG:4907, V-A:SER:385:CB:3409, V-B:GLU:543:CD:9880, V-A:LEU:475:CD2:4259, H-A:ARG:545:NH2:4928, V-B:TYR:539:CG:9844, V-B:TYR:539:CD1:9845, H-A:ARG:545:NE:4924, V-A:SER:385:CA:3407, H-A:TYR:484:OH:4348"]

$$$$
ZINC13756570
     RDKit          3D

 69 74  0  0  0  0  0  0  0  0999 V2000
  129.8690  124.3430   68.0030 O   0  0  0  0  0  0  0  0  0  0  0  0
  129.9040  124.7550   66.8440 C   0  0  0  0  0  0  0  0  0  0  0  0
  130.4700  123.8870   65.9330 O   0  0  0  0  0  0  0  0  0  0  0  0
  130.5900  124.1460   64.6000 C   0  0  0  0  0  0  0  0  0  0  0  0
  131.2660  122.9790   63.8770 C   0  0  0  0  0  0  0  0  0  0  0  0
  132.8140  123.0590   63.8470 C   0  0  0  0  0  0  0  0  0  0  0  0
  133.3590  124.3820   63.2710 C   0  0  0  0  0  0  0  0  0  0  0  0
  134.5840  124.3990   62.3970 C   0  0  0  0  0  0  0  0  0  0  0  0
  133.2090  124.6850   61.8030 C   0  0  0  0  0  0  0  0  0  0  0  0
  130.6950  122.7610   62.4550 C   0  0  0  0  0  0  0  0  0  0  0  0
  129.3250  122.0520   62.4270 C   0  0  0  0  0  0  0  0  0  0  0  0
  128.0590  122.8510   62.5840 C   0  0  0  0  0  0  0  0  0  0  0  0
  128.4000  122.2010   61.2490 C   0  0  0  0  0  0  0  0  0  0  0  0
  130.1650  125.3100   64.0750 C   0  0  0  0  0  0  0  0  0  0  0  0
  129.5540  126.2980   64.9450 C   0  0  0  0  0  0  0  0  0  0  0  0
  129.1150  127.4580   64.3860 O   0  0  0  0  0  0  0  0  0  0  0  0
  129.4170  126.0560   66.2810 C   0  0  0  0  0  0  0  0  0  0  0  0
  128.7780  127.0630   67.2710 C   0  0  1  0  0  0  0  0  0  0  0  0
  129.5500  127.2630   68.5850 C   0  0  0  0  0  0  0  0  0  0  0  0
  130.8690  127.7280   68.6130 C   0  0  0  0  0  0  0  0  0  0  0  0
  131.5210  127.9180   69.8280 C   0  0  0  0  0  0  0  0  0  0  0  0
  130.8610  127.6450   71.0230 C   0  0  0  0  0  0  0  0  0  0  0  0
  129.5450  127.1670   71.0410 C   0  0  0  0  0  0  0  0  0  0  0  0
  128.9610  126.9410   72.2640 N   0  0  0  0  0  0  0  0  0  0  0  0
  129.2340  127.7940   73.5570 S   0  0  0  0  0  0  0  0  0  0  0  0
  129.8600  129.0900   73.2710 O   0  0  0  0  0  0  0  0  0  0  0  0
  128.1740  127.7620   74.5750 O   0  0  0  0  0  0  0  0  0  0  0  0
  130.5450  126.7860   74.2600 C   0  0  0  0  0  0  0  0  0  0  0  0
  131.8660  126.9680   73.8390 C   0  0  0  0  0  0  0  0  0  0  0  0
  132.8870  126.2060   74.4010 C   0  0  0  0  0  0  0  0  0  0  0  0
  132.5850  125.2740   75.3910 C   0  0  0  0  0  0  0  0  0  0  0  0
  131.2740  125.0970   75.8280 C   0  0  0  0  0  0  0  0  0  0  0  0
  130.2510  125.8580   75.2650 C   0  0  0  0  0  0  0  0  0  0  0  0
  128.9050  127.0000   69.8000 C   0  0  0  0  0  0  0  0  0  0  0  0
  128.3410  128.4240   66.6680 C   0  0  0  0  0  0  0  0  0  0  0  0
  126.9380  128.9320   66.8940 C   0  0  0  0  0  0  0  0  0  0  0  0
  128.1140  129.6160   67.5670 C   0  0  0  0  0  0  0  0  0  0  0  0
  131.0201  122.0971   64.4868 H   0  0  0  0  0  0  0  0  0  0  0  0
  133.1867  122.9494   64.8761 H   0  0  0  0  0  0  0  0  0  0  0  0
  133.1632  122.2536   63.1841 H   0  0  0  0  0  0  0  0  0  0  0  0
  133.0741  124.8912   64.2035 H   0  0  0  0  0  0  0  0  0  0  0  0
  135.3207  125.2098   62.4966 H   0  0  0  0  0  0  0  0  0  0  0  0
  135.3960  123.6899   62.1783 H   0  0  0  0  0  0  0  0  0  0  0  0
  132.9515  125.7024   61.4736 H   0  0  0  0  0  0  0  0  0  0  0  0
  132.6136  124.2689   60.9769 H   0  0  0  0  0  0  0  0  0  0  0  0
  130.5852  123.7435   61.9727 H   0  0  0  0  0  0  0  0  0  0  0  0
  131.4022  122.1045   61.9269 H   0  0  0  0  0  0  0  0  0  0  0  0
  129.7727  121.1927   62.9478 H   0  0  0  0  0  0  0  0  0  0  0  0
  127.2313  122.4582   63.1928 H   0  0  0  0  0  0  0  0  0  0  0  0
  127.8165  123.8714   62.9156 H   0  0  0  0  0  0  0  0  0  0  0  0
  127.8190  121.3379   60.8919 H   0  0  0  0  0  0  0  0  0  0  0  0
  128.5067  122.5557   60.2132 H   0  0  0  0  0  0  0  0  0  0  0  0
  130.2793  125.5102   62.9994 H   0  0  0  0  0  0  0  0  0  0  0  0
  129.8600  127.9380   64.0190 H   0  0  0  0  0  0  0  0  0  0  0  0
  127.8463  126.5364   67.5250 H   0  0  0  0  0  0  0  0  0  0  0  0
  131.3933  127.9445   67.6706 H   0  0  0  0  0  0  0  0  0  0  0  0
  132.5582  128.2840   69.8440 H   0  0  0  0  0  0  0  0  0  0  0  0
  131.3858  127.8087   71.9758 H   0  0  0  0  0  0  0  0  0  0  0  0
  132.0986  127.7131   73.0639 H   0  0  0  0  0  0  0  0  0  0  0  0
  133.9259  126.3393   74.0651 H   0  0  0  0  0  0  0  0  0  0  0  0
  133.3913  124.6704   75.8332 H   0  0  0  0  0  0  0  0  0  0  0  0
  131.0475  124.3606   76.6131 H   0  0  0  0  0  0  0  0  0  0  0  0
  129.2145  125.7293   75.6101 H   0  0  0  0  0  0  0  0  0  0  0  0
  127.8620  126.6508   69.7830 H   0  0  0  0  0  0  0  0  0  0  0  0
  128.9644  128.2298   65.7827 H   0  0  0  0  0  0  0  0  0  0  0  0
  126.3984  129.4389   66.0804 H   0  0  0  0  0  0  0  0  0  0  0  0
  125.9945  128.4852   67.2406 H   0  0  0  0  0  0  0  0  0  0  0  0
  128.4277  130.6188   67.2414 H   0  0  0  0  0  0  0  0  0  0  0  0
  128.3777  129.8711   68.6040 H   0  0  0  0  0  0  0  0  0  0  0  0
  1  2  2  0
  2  3  1  0
  3  4  1  0
  4  5  1  0
  5  6  1  0
  6  7  1  0
  7  8  1  0
  8  9  1  0
  5 10  1  0
 10 11  1  0
 11 12  1  0
 12 13  1  0
  4 14  2  0
 14 15  1  0
 15 16  1  0
 15 17  2  0
 17 18  1  0
 18 19  1  0
 19 20  2  0
 20 21  1  0
 21 22  2  0
 22 23  1  0
 23 24  1  0
 24 25  1  0
 25 26  2  0
 25 27  2  0
 25 28  1  0
 28 29  2  0
 29 30  1  0
 30 31  2  0
 31 32  1  0
 32 33  2  0
 23 34  2  0
 18 35  1  0
 35 36  1  0
 36 37  1  0
 17  2  1  0
 34 19  1  0
 37 35  1  0
  9  7  1  0
 13 11  1  0
 33 28  1  0
  5 38  1  0
  6 39  1  0
  6 40  1  0
  7 41  1  0
  8 42  1  0
  8 43  1  0
  9 44  1  0
  9 45  1  0
 10 46  1  0
 10 47  1  0
 11 48  1  0
 12 49  1  0
 12 50  1  0
 13 51  1  0
 13 52  1  0
 14 53  1  0
 16 54  1  0
 18 55  1  1
 20 56  1  0
 21 57  1  0
 22 58  1  0
 29 59  1  0
 30 60  1  0
 31 61  1  0
 32 62  1  0
 33 63  1  0
 34 64  1  0
 35 65  1  0
 36 66  1  0
 36 67  1  0
 37 68  1  0
 37 69  1  0
M  CHG  1  24  -1
M  END
>  <Binding energies>  (1) 
[-9.5]

>  <Ligand effiencies>  (1) 
[-0.25]

>  <Interactions>  (1) 
["V-B:PRO:540:CA:9855, V-A:ARG:545:CA:4919, V-A:GLY:454:CA:4049, V-A:GLU:543:CA:4904, H-A:GLU:543:OE2:4910, V-A:GLU:543:C:4902, V-B:GLU:543:CB:9878, H-B:LYS:547:NZ:9923, V-B:ALA:541:CB:9864, V-A:TYR:484:CE2:4346, V-B:GLU:543:CG:9879, V-A:GLY:544:C:4912, V-A:ASP:366:CG:3213, V-A:HIS:456:CD2:4068, V-B:TYR:484:CE2:9317, V-A:HIS:456:CB:4065, V-A:GLU:543:CD:4908, V-A:TYR:484:CZ:4347, V-B:GLU:543:CA:9876, V-A:ARG:545:CG:4922, V-B:HIS:456:CE1:9041, V-A:GLY:453:C:4042, V-A:HIS:456:CE1:4070, V-A:ILE:369:CD1:3239, V-B:TYR:484:CZ:9318, V-A:GLU:543:CG:4907, V-B:GLU:543:CD:9880, H-A:LYS:547:NZ:4951, V-A:LEU:475:CD2:4259, V-A:ARG:545:CZ:4926, H-A:GLU:543:OE1:4909, V-A:GLU:543:CB:4906, V-A:HIS:456:CG:4066, V-A:GLY:453:CA:4044, V-B:PRO:540:C:9853, V-B:ALA:541:CA:9862, H-A:TYR:484:OH:4348"]

$$$$
ZINC13758307-again1
     RDKit          3D

 31 31  0  0  0  0  0  0  0  0999 V2000
  134.8650  126.6000   74.8130 C   0  0  0  0  0  0  0  0  0  0  0  0
  133.5490  126.5800   75.0790 C   0  0  0  0  0  0  0  0  0  0  0  0
  132.4570  126.6250   74.0330 C   0  0  0  0  0  0  0  0  0  0  0  0
  131.1160  126.3540   74.5220 N   0  0  0  0  0  0  0  0  0  0  0  0
  130.0120  127.1730   74.4150 C   0  0  0  0  0  0  0  0  0  0  0  0
  129.3530  127.7560   75.4410 C   0  0  0  0  0  0  0  0  0  0  0  0
  128.1380  128.6610   75.3370 C   0  0  0  0  0  0  0  0  0  0  0  0
  129.6210  127.3460   72.9860 C   0  0  0  0  0  0  0  0  0  0  0  0
  129.9740  128.5520   72.2910 C   0  0  0  0  0  0  0  0  0  0  0  0
  130.6080  129.4920   72.8760 O   0  0  0  0  0  0  0  0  0  0  0  0
  129.6240  128.7770   70.8100 C   0  0  0  0  0  0  0  0  0  0  0  0
  129.2870  127.4640   70.0940 C   0  0  0  0  0  0  0  0  0  0  0  0
  128.3340  126.6000   70.9270 C   0  0  0  0  0  0  0  0  0  0  0  0
  128.9000  126.2940   72.3240 C   0  0  0  0  0  0  0  0  0  0  0  0
  128.7270  125.1480   72.8550 O   0  0  0  0  0  0  0  0  0  0  0  0
  135.5932  126.5639   75.6366 H   0  0  0  0  0  0  0  0  0  0  0  0
  135.2149  126.6525   73.7714 H   0  0  0  0  0  0  0  0  0  0  0  0
  133.2427  126.5270   76.1342 H   0  0  0  0  0  0  0  0  0  0  0  0
  132.4582  127.6291   73.5837 H   0  0  0  0  0  0  0  0  0  0  0  0
  132.6878  125.8214   73.3182 H   0  0  0  0  0  0  0  0  0  0  0  0
  131.0210  125.4540   74.9690 H   0  0  0  0  0  0  0  0  0  0  0  0
  129.7351  127.5548   76.4527 H   0  0  0  0  0  0  0  0  0  0  0  0
  127.7877  128.9219   76.3465 H   0  0  0  0  0  0  0  0  0  0  0  0
  128.4096  129.5786   74.7946 H   0  0  0  0  0  0  0  0  0  0  0  0
  127.3366  128.1380   74.7946 H   0  0  0  0  0  0  0  0  0  0  0  0
  128.7548  129.4484   70.7485 H   0  0  0  0  0  0  0  0  0  0  0  0
  130.5027  129.2176   70.3162 H   0  0  0  0  0  0  0  0  0  0  0  0
  128.8104  127.6945   69.1298 H   0  0  0  0  0  0  0  0  0  0  0  0
  130.2209  126.9025   69.9441 H   0  0  0  0  0  0  0  0  0  0  0  0
  127.3791  127.1341   71.0406 H   0  0  0  0  0  0  0  0  0  0  0  0
  128.1971  125.6438   70.4007 H   0  0  0  0  0  0  0  0  0  0  0  0
  1  2  2  0
  2  3  1  0
  3  4  1  0
  4  5  1  0
  5  6  2  0
  6  7  1  0
  5  8  1  0
  8  9  2  0
  9 10  1  0
  9 11  1  0
 11 12  1  0
 12 13  1  0
 13 14  1  0
 14 15  2  0
 14  8  1  0
  1 16  1  0
  1 17  1  0
  2 18  1  0
  3 19  1  0
  3 20  1  0
  4 21  1  0
  6 22  1  0
  7 23  1  0
  7 24  1  0
  7 25  1  0
 11 26  1  0
 11 27  1  0
 12 28  1  0
 12 29  1  0
 13 30  1  0
 13 31  1  0
M  CHG  1  10  -1
M  END
>  <Binding energies>  (1) 
[-5.96]

>  <Ligand effiencies>  (1) 
[-0.3725]

>  <Interactions>  (1) 
["V-A:HIS:456:CE1:4070, V-B:HIS:456:CD2:9039, V-A:LYS:547:CG:4948, V-A:GLU:543:C:4902, V-B:GLU:543:C:9874, V-A:HIS:456:CA:4063, V-A:HIS:456:CB:4065, H-B:LYS:547:NZ:9923, V-A:VAL:457:C:4073, H-A:LYS:547:NZ:4951, V-A:HIS:456:C:4061, V-A:GLY:544:C:4912, V-B:HIS:456:CE1:9041, V-A:HIS:456:CD2:4068, V-A:ARG:545:C:4917, V-A:HIS:456:CG:4066"]

$$$$
ZINC138204338
     RDKit          3D

 67 72  0  0  0  0  0  0  0  0999 V2000
  133.1280  120.2130   59.0910 C   0  0  0  0  0  0  0  0  0  0  0  0
  132.5280  120.9450   59.8640 C   0  0  0  0  0  0  0  0  0  0  0  0
  131.8230  121.8210   60.7870 C   0  0  0  0  0  0  0  0  0  0  0  0
  130.9850  122.8230   60.2910 C   0  0  0  0  0  0  0  0  0  0  0  0
  130.3090  123.6600   61.1740 C   0  0  0  0  0  0  0  0  0  0  0  0
  130.4720  123.4980   62.5530 C   0  0  0  0  0  0  0  0  0  0  0  0
  129.7900  124.3420   63.4430 N   0  0  0  0  0  0  0  0  0  0  0  0
  129.2850  125.5730   62.9960 C   0  0  0  0  0  0  0  0  0  0  0  0
  128.1850  126.1480   63.6360 C   0  0  0  0  0  0  0  0  0  0  0  0
  127.6840  127.3690   63.1940 C   0  0  0  0  0  0  0  0  0  0  0  0
  128.2830  128.0150   62.1100 C   0  0  0  0  0  0  0  0  0  0  0  0
  127.7600  129.2920   61.6470 C   0  0  0  0  0  0  0  0  0  0  0  0
  127.3210  130.3600   61.2490 C   0  0  0  0  0  0  0  0  0  0  0  0
  126.7890  131.6310   60.7820 C   0  0  0  0  0  0  0  0  0  0  0  0
  126.0360  131.6920   59.6030 C   0  0  0  0  0  0  0  0  0  0  0  0
  125.5450  132.9330   59.1900 C   0  0  0  0  0  0  0  0  0  0  0  0
  125.7650  134.0810   59.8800 N   0  0  0  0  0  0  0  0  0  0  0  0
  126.4970  134.0040   61.0200 C   0  0  0  0  0  0  0  0  0  0  0  0
  127.0260  132.8050   61.5050 C   0  0  0  0  0  0  0  0  0  0  0  0
  129.3820  127.4400   61.4670 C   0  0  0  0  0  0  0  0  0  0  0  0
  129.8830  126.2190   61.9120 C   0  0  0  0  0  0  0  0  0  0  0  0
  129.6140  123.9560   64.7800 C   0  0  0  0  0  0  0  0  0  0  0  0
  128.6340  123.0150   65.1110 C   0  0  0  0  0  0  0  0  0  0  0  0
  128.4570  122.6320   66.4370 C   0  0  0  0  0  0  0  0  0  0  0  0
  129.2610  123.1900   67.4350 C   0  0  0  0  0  0  0  0  0  0  0  0
  129.0760  122.7900   68.8210 C   0  0  0  0  0  0  0  0  0  0  0  0
  128.9310  122.4560   69.9870 C   0  0  0  0  0  0  0  0  0  0  0  0
  128.7670  122.0590   71.3770 C   0  0  0  0  0  0  0  0  0  0  0  0
  128.6850  120.7040   71.7210 C   0  0  0  0  0  0  0  0  0  0  0  0
  128.5280  120.3660   73.0660 C   0  0  0  0  0  0  0  0  0  0  0  0
  128.4510  121.2920   74.0570 N   0  0  0  0  0  0  0  0  0  0  0  0
  128.5320  122.6010   73.7070 C   0  0  0  0  0  0  0  0  0  0  0  0
  128.6890  123.0260   72.3850 C   0  0  0  0  0  0  0  0  0  0  0  0
  130.2390  124.1310   67.1060 C   0  0  0  0  0  0  0  0  0  0  0  0
  130.4150  124.5140   65.7790 C   0  0  0  0  0  0  0  0  0  0  0  0
  131.3110  122.4960   63.0470 C   0  0  0  0  0  0  0  0  0  0  0  0
  131.9880  121.6580   62.1640 C   0  0  0  0  0  0  0  0  0  0  0  0
  133.8440  119.3370   58.1770 C   0  0  0  0  0  0  0  0  0  0  0  0
  133.1620  118.3360   57.4760 C   0  0  0  0  0  0  0  0  0  0  0  0
  133.8870  117.5180   56.6070 C   0  0  0  0  0  0  0  0  0  0  0  0
  135.2240  117.6510   56.4110 N   0  0  0  0  0  0  0  0  0  0  0  0
  135.8720  118.6250   57.1000 C   0  0  0  0  0  0  0  0  0  0  0  0
  135.2230  119.4860   57.9880 C   0  0  0  0  0  0  0  0  0  0  0  0
  130.8599  122.9500   59.2055 H   0  0  0  0  0  0  0  0  0  0  0  0
  129.6468  124.4485   60.7870 H   0  0  0  0  0  0  0  0  0  0  0  0
  127.7149  125.6363   64.4888 H   0  0  0  0  0  0  0  0  0  0  0  0
  126.8183  127.8243   63.6972 H   0  0  0  0  0  0  0  0  0  0  0  0
  125.8357  130.7838   59.0156 H   0  0  0  0  0  0  0  0  0  0  0  0
  124.9534  132.9820   58.2639 H   0  0  0  0  0  0  0  0  0  0  0  0
  126.6824  134.9275   61.5882 H   0  0  0  0  0  0  0  0  0  0  0  0
  127.6151  132.7847   62.4337 H   0  0  0  0  0  0  0  0  0  0  0  0
  129.8501  127.9499   60.6121 H   0  0  0  0  0  0  0  0  0  0  0  0
  130.7493  125.7638   61.4098 H   0  0  0  0  0  0  0  0  0  0  0  0
  128.0031  122.5776   64.3232 H   0  0  0  0  0  0  0  0  0  0  0  0
  127.6864  121.8921   66.6991 H   0  0  0  0  0  0  0  0  0  0  0  0
  128.7430  119.9233   70.9482 H   0  0  0  0  0  0  0  0  0  0  0  0
  128.4637  119.3016   73.3359 H   0  0  0  0  0  0  0  0  0  0  0  0
  128.4713  123.3614   74.4995 H   0  0  0  0  0  0  0  0  0  0  0  0
  128.7499  124.0972   72.1423 H   0  0  0  0  0  0  0  0  0  0  0  0
  130.8693  124.5689   67.8940 H   0  0  0  0  0  0  0  0  0  0  0  0
  131.1843  125.2555   65.5175 H   0  0  0  0  0  0  0  0  0  0  0  0
  131.4368  122.3690   64.1324 H   0  0  0  0  0  0  0  0  0  0  0  0
  132.6509  120.8698   62.5504 H   0  0  0  0  0  0  0  0  0  0  0  0
  132.0787  118.1967   57.6067 H   0  0  0  0  0  0  0  0  0  0  0  0
  133.3510  116.7307   56.0566 H   0  0  0  0  0  0  0  0  0  0  0  0
  136.9558  118.7412   56.9524 H   0  0  0  0  0  0  0  0  0  0  0  0
  135.7833  120.2641   58.5270 H   0  0  0  0  0  0  0  0  0  0  0  0
  1  2  3  0
  2  3  1  0
  3  4  2  0
  4  5  1  0
  5  6  2  0
  6  7  1  0
  7  8  1  0
  8  9  2  0
  9 10  1  0
 10 11  2  0
 11 12  1  0
 12 13  3  0
 13 14  1  0
 14 15  2  0
 15 16  1  0
 16 17  2  0
 17 18  1  0
 18 19  2  0
 11 20  1  0
 20 21  2  0
  7 22  1  0
 22 23  2  0
 23 24  1  0
 24 25  2  0
 25 26  1  0
 26 27  3  0
 27 28  1  0
 28 29  2  0
 29 30  1  0
 30 31  2  0
 31 32  1  0
 32 33  2  0
 25 34  1  0
 34 35  2  0
  6 36  1  0
 36 37  2  0
  1 38  1  0
 38 39  2  0
 39 40  1  0
 40 41  2  0
 41 42  1  0
 42 43  2  0
 37  3  1  0
 43 38  1  0
 21  8  1  0
 35 22  1  0
 19 14  1  0
 33 28  1  0
  4 44  1  0
  5 45  1  0
  9 46  1  0
 10 47  1  0
 15 48  1  0
 16 49  1  0
 18 50  1  0
 19 51  1  0
 20 52  1  0
 21 53  1  0
 23 54  1  0
 24 55  1  0
 29 56  1  0
 30 57  1  0
 32 58  1  0
 33 59  1  0
 34 60  1  0
 35 61  1  0
 36 62  1  0
 37 63  1  0
 39 64  1  0
 40 65  1  0
 42 66  1  0
 43 67  1  0
M  END
>  <Binding energies>  (1) 
[85.69]

>  <Ligand effiencies>  (1) 
[1.9927906976744185]

>  <Interactions>  (1) 
["V-A:ILE:369:CG2:3237, V-A:ILE:369:C:3232, V-B:GLU:543:C:9874, V-A:ILE:369:CB:3236, V-A:HIS:383:CB:3389, V-B:GLU:543:CB:9878, V-B:ALA:541:CB:9864, V-B:TYR:539:CE2:9848, V-A:VAL:384:C:3397, V-A:TYR:484:CE2:4346, V-B:GLU:543:CG:9879, V-B:LEU:475:CD2:9230, V-A:TYR:539:CE1:4875, V-A:HIS:456:CD2:4068, V-A:VAL:384:CG1:3402, V-A:LEU:373:CG:3279, V-A:TYR:539:CD1:4873, V-A:TYR:539:CZ:4877, V-B:LYS:547:CE:9922, V-B:TYR:539:CB:9843, V-A:TYR:484:CA:4339, V-A:TYR:484:CZ:4347, V-B:GLU:543:CA:9876, V-B:ILE:369:CG2:8208, V-A:HIS:383:CG:3390, V-A:TYR:484:CD2:4344, V-A:HIS:456:CE1:4070, V-A:TYR:484:CG:4342, V-B:TYR:539:CD2:9846, V-A:ILE:369:CA:3234, V-B:GLY:544:CA:9886, V-B:GLU:543:CD:9880, V-A:LEU:373:CD2:3281, V-A:LEU:475:CD2:4259, V-B:TYR:539:CG:9844, V-A:TYR:484:CB:4341, V-B:VAL:542:C:9866, V-A:HIS:383:CD2:3392, V-A:LEU:373:CD1:3280, V-A:SER:385:CA:3407, V-A:HIS:383:NE2:3394"]

$$$$
ZINC138369985
     RDKit          3D

 33 32  0  0  0  0  0  0  0  0999 V2000
  133.2020  121.2530   60.7700 C   0  0  0  0  0  0  0  0  0  0  0  0
  132.3830  122.2190   60.1420 O   0  0  0  0  0  0  0  0  0  0  0  0
  132.9440  123.8490   60.1660 P   0  0  0  0  0  0  0  0  0  0  0  0
  134.4210  124.0070   59.8650 O   0  0  0  0  0  0  0  0  0  0  0  0
  131.9030  124.7210   59.0980 O   0  0  0  0  0  0  0  0  0  0  0  0
  132.4610  125.8310   58.4220 C   0  0  0  0  0  0  0  0  0  0  0  0
  132.3560  124.4570   61.8610 C   0  0  1  0  0  0  0  0  0  0  0  0
  132.5780  125.8570   61.8250 O   0  0  0  0  0  0  0  0  0  0  0  0
  130.8280  124.2140   62.0320 C   0  0  0  0  0  0  0  0  0  0  0  0
  129.9290  125.4710   62.0970 C   0  0  0  0  0  0  0  0  0  0  0  0
  129.8990  126.0890   63.5030 C   0  0  0  0  0  0  0  0  0  0  0  0
  131.3030  126.5590   63.8960 N   0  0  0  0  0  0  0  0  0  0  0  0
  133.2420  123.9200   63.4450 P   0  0  1  0  0  5  0  0  0  0  0  0
  133.8930  122.5720   63.2290 O   0  0  0  0  0  0  0  0  0  0  0  0
  133.9830  125.0960   64.0450 O   0  0  0  0  0  0  0  0  0  0  0  0
  131.8300  123.6640   64.3840 O   0  0  0  0  0  0  0  0  0  0  0  0
  133.1165  121.3539   61.8620 H   0  0  0  0  0  0  0  0  0  0  0  0
  132.8783  120.2459   60.4683 H   0  0  0  0  0  0  0  0  0  0  0  0
  134.2485  121.4075   60.4683 H   0  0  0  0  0  0  0  0  0  0  0  0
  132.8283  126.5616   59.1577 H   0  0  0  0  0  0  0  0  0  0  0  0
  133.2968  125.4939   57.7913 H   0  0  0  0  0  0  0  0  0  0  0  0
  131.6919  126.3007   57.7913 H   0  0  0  0  0  0  0  0  0  0  0  0
  133.4670  126.0300   62.1450 H   0  0  0  0  0  0  0  0  0  0  0  0
  130.4896  123.6056   61.1803 H   0  0  0  0  0  0  0  0  0  0  0  0
  130.7198  123.7295   63.0136 H   0  0  0  0  0  0  0  0  0  0  0  0
  130.3143  126.2194   61.3889 H   0  0  0  0  0  0  0  0  0  0  0  0
  128.9037  125.1674   61.8389 H   0  0  0  0  0  0  0  0  0  0  0  0
  129.2118  126.9479   63.5093 H   0  0  0  0  0  0  0  0  0  0  0  0
  129.5553  125.3325   64.2238 H   0  0  0  0  0  0  0  0  0  0  0  0
  131.2900  126.9520   64.8260 H   0  0  0  0  0  0  0  0  0  0  0  0
  131.6280  127.2620   63.2480 H   0  0  0  0  0  0  0  0  0  0  0  0
  131.9450  125.7800   63.8810 H   0  0  0  0  0  0  0  0  0  0  0  0
  131.8390  123.2530   65.2690 H   0  0  0  0  0  0  0  0  0  0  0  0
  1  2  1  0
  2  3  1  0
  3  4  2  0
  3  5  1  0
  5  6  1  0
  3  7  1  0
  7  8  1  6
  7  9  1  0
  9 10  1  0
 10 11  1  0
 11 12  1  0
  7 13  1  0
 13 14  2  0
 13 15  1  1
 13 16  1  0
  1 17  1  0
  1 18  1  0
  1 19  1  0
  6 20  1  0
  6 21  1  0
  6 22  1  0
  8 23  1  0
  9 24  1  0
  9 25  1  0
 10 26  1  0
 10 27  1  0
 11 28  1  0
 11 29  1  0
 12 30  1  0
 12 31  1  0
 12 32  1  0
 16 33  1  0
M  CHG  2  12   1  15  -1
M  END
>  <Binding energies>  (1) 
[-3.27]

>  <Ligand effiencies>  (1) 
[-0.15571428571428572]

>  <Interactions>  (1) 
["V-A:ILE:369:CG2:3237, V-A:ASP:366:CA:3210, V-A:GLY:454:CA:4049, H-A:GLU:543:OE2:4910, H-A:ARG:545:NH1:4927, V-B:TYR:539:CE2:9848, V-A:ASP:366:CG:3213, H-B:TYR:539:OH:9850, V-A:GLU:543:CD:4908, H-A:GLY:454:N:4050, V-A:ASP:366:CB:3212, V-A:LEU:475:CD2:4259, H-A:ARG:545:NH2:4928, V-A:ARG:545:CZ:4926, H-A:GLU:543:OE1:4909, H-A:ASP:366:OD1:3214, H-A:ARG:545:NE:4924, H-A:ASP:366:OD2:3215, H-A:TYR:484:OH:4348"]

$$$$
ZINC1385194
     RDKit          3D

 34 34  0  0  0  0  0  0  0  0999 V2000
  133.6040  126.5970   74.0390 C   0  0  0  0  0  0  0  0  0  0  0  0
  132.1500  126.5350   73.9080 N   0  0  0  0  0  0  0  0  0  0  0  0
  131.5750  125.6210   74.8850 C   0  0  0  0  0  0  0  0  0  0  0  0
  131.5720  126.9660   72.7210 C   0  0  0  0  0  0  0  0  0  0  0  0
  130.5060  127.7400   72.3690 C   0  0  0  0  0  0  0  0  0  0  0  0
  130.4160  127.9880   70.9180 C   0  0  0  0  0  0  0  0  0  0  0  0
  131.3670  128.5000   70.3220 O   0  0  0  0  0  0  0  0  0  0  0  0
  129.1490  127.5450   70.1190 C   0  0  0  0  0  0  0  0  0  0  0  0
  127.9280  127.2870   71.0400 C   0  0  0  0  0  0  0  0  0  0  0  0
  128.7920  128.6460   69.0900 C   0  0  0  0  0  0  0  0  0  0  0  0
  129.4560  126.2340   69.3460 C   0  0  0  0  0  0  0  0  0  0  0  0
  129.4520  128.3600   73.2220 C   0  0  0  0  0  0  0  0  0  0  0  0
  128.6400  127.6790   73.9970 N   0  0  0  0  0  0  0  0  0  0  0  0
  127.7810  128.4290   74.6590 C   0  0  0  0  0  0  0  0  0  0  0  0
  126.9670  127.8600   75.4480 O   0  0  0  0  0  0  0  0  0  0  0  0
  127.8530  129.7950   74.4240 C   0  0  0  0  0  0  0  0  0  0  0  0
  129.1130  130.0840   73.2640 S   0  0  0  0  0  0  0  0  0  0  0  0
  133.8760  126.6086   75.1048 H   0  0  0  0  0  0  0  0  0  0  0  0
  134.0536  125.7172   73.5554 H   0  0  0  0  0  0  0  0  0  0  0  0
  133.9770  127.5119   73.5554 H   0  0  0  0  0  0  0  0  0  0  0  0
  131.8007  125.9798   75.9000 H   0  0  0  0  0  0  0  0  0  0  0  0
  130.4847  125.5746   74.7465 H   0  0  0  0  0  0  0  0  0  0  0  0
  132.0052  124.6181   74.7465 H   0  0  0  0  0  0  0  0  0  0  0  0
  132.1115  126.5863   71.8407 H   0  0  0  0  0  0  0  0  0  0  0  0
  128.2419  127.3533   72.0922 H   0  0  0  0  0  0  0  0  0  0  0  0
  127.1524  128.0411   70.8405 H   0  0  0  0  0  0  0  0  0  0  0  0
  127.5238  126.2836   70.8405 H   0  0  0  0  0  0  0  0  0  0  0  0
  128.4949  129.5621   69.6215 H   0  0  0  0  0  0  0  0  0  0  0  0
  129.6681  128.8560   68.4588 H   0  0  0  0  0  0  0  0  0  0  0  0
  127.9594  128.3019   68.4588 H   0  0  0  0  0  0  0  0  0  0  0  0
  129.6462  125.4216   70.0629 H   0  0  0  0  0  0  0  0  0  0  0  0
  128.5952  125.9710   68.7137 H   0  0  0  0  0  0  0  0  0  0  0  0
  130.3441  126.3805   68.7137 H   0  0  0  0  0  0  0  0  0  0  0  0
  127.2202  130.5633   74.8924 H   0  0  0  0  0  0  0  0  0  0  0  0
  1  2  1  0
  2  3  1  0
  2  4  1  0
  4  5  2  0
  5  6  1  0
  6  7  2  0
  6  8  1  0
  8  9  1  0
  8 10  1  0
  8 11  1  0
  5 12  1  0
 12 13  2  0
 13 14  1  0
 14 15  1  0
 14 16  2  0
 16 17  1  0
 17 12  1  0
  1 18  1  0
  1 19  1  0
  1 20  1  0
  3 21  1  0
  3 22  1  0
  3 23  1  0
  4 24  1  0
  9 25  1  0
  9 26  1  0
  9 27  1  0
 10 28  1  0
 10 29  1  0
 10 30  1  0
 11 31  1  0
 11 32  1  0
 11 33  1  0
 16 34  1  0
M  CHG  1  15  -1
M  END
>  <Binding energies>  (1) 
[-5.54]

>  <Ligand effiencies>  (1) 
[-0.32588235294117646]

>  <Interactions>  (1) 
["V-A:HIS:456:CE1:4070, V-B:HIS:456:CD2:9039, V-A:LYS:547:CG:4948, V-A:GLU:543:C:4902, V-B:GLU:543:C:9874, V-A:HIS:456:CA:4063, V-A:HIS:456:CB:4065, H-B:LYS:547:NZ:9923, V-A:ARG:545:C:4917, V-B:HIS:456:CG:9037, V-A:GLU:543:CB:4906, H-A:GLY:544:N:4915, V-A:GLY:544:C:4912, V-B:HIS:456:CE1:9041, V-A:HIS:456:CD2:4068, H-A:ARG:545:N:4920, V-A:HIS:456:CG:4066"]

$$$$
ZINC139114201
     RDKit          3D

 60 63  0  0  0  0  0  0  0  0999 V2000
  125.6250  132.9720   60.1870 C   0  0  0  0  0  0  0  0  0  0  0  0
  127.0940  132.6930   60.4010 C   0  0  0  0  0  0  0  0  0  0  0  0
  127.8020  132.3920   59.2820 O   0  0  0  0  0  0  0  0  0  0  0  0
  129.0730  132.1870   59.6920 C   0  0  0  0  0  0  0  0  0  0  0  0
  129.2020  132.3420   61.0540 C   0  0  0  0  0  0  0  0  0  0  0  0
  127.9180  132.6800   61.5330 C   0  0  0  0  0  0  0  0  0  0  0  0
  127.5050  132.9550   62.9680 C   0  0  0  0  0  0  0  0  0  0  0  0
  127.9480  131.8320   63.9110 C   0  0  0  0  0  0  0  0  0  0  0  0
  128.4010  132.1180   65.0200 O   0  0  0  0  0  0  0  0  0  0  0  0
  127.8160  130.5780   63.4250 N   0  0  0  0  0  0  0  0  0  0  0  0
  128.1670  129.4010   64.0670 C   0  0  0  0  0  0  0  0  0  0  0  0
  128.7260  128.3320   63.5450 N   0  0  0  0  0  0  0  0  0  0  0  0
  128.9390  127.3680   64.4290 C   0  0  0  0  0  0  0  0  0  0  0  0
  129.5730  126.0720   64.0040 C   0  0  0  0  0  0  0  0  0  0  0  0
  128.8430  125.0960   63.3100 C   0  0  0  0  0  0  0  0  0  0  0  0
  129.4390  123.8960   62.9170 C   0  0  0  0  0  0  0  0  0  0  0  0
  128.4980  122.7320   62.0510 Cl  0  0  0  0  0  0  0  0  0  0  0  0
  130.7820  123.6480   63.2220 C   0  0  0  0  0  0  0  0  0  0  0  0
  131.3740  122.4710   62.8280 O   0  0  0  0  0  0  0  0  0  0  0  0
  131.8490  122.4690   61.4840 C   0  0  0  0  0  0  0  0  0  0  0  0
  133.3910  122.4780   61.4770 C   0  0  0  0  0  0  0  0  0  0  0  0
  133.9610  123.5170   60.4920 C   0  0  0  0  0  0  0  0  0  0  0  0
  133.9550  121.0750   61.1890 C   0  0  0  0  0  0  0  0  0  0  0  0
  131.5230  124.6170   63.9070 C   0  0  0  0  0  0  0  0  0  0  0  0
  133.1910  124.3550   64.2790 Cl  0  0  0  0  0  0  0  0  0  0  0  0
  130.9190  125.8130   64.2960 C   0  0  0  0  0  0  0  0  0  0  0  0
  128.5260  127.7010   65.7260 C   0  0  0  0  0  0  0  0  0  0  0  0
  127.8480  129.3010   65.7620 S   0  0  0  0  0  0  0  0  0  0  0  0
  130.4900  132.1690   61.7080 C   0  0  0  0  0  0  0  0  0  0  0  0
  130.6930  132.3060   62.9170 O   0  0  0  0  0  0  0  0  0  0  0  0
  131.4730  131.8210   60.7860 N   0  0  0  0  0  0  0  0  0  0  0  0
  132.8330  131.6370   61.3440 C   0  0  0  0  0  0  0  0  0  0  0  0
  131.3920  131.6700   59.4020 C   0  0  0  0  0  0  0  0  0  0  0  0
  132.3570  131.3820   58.6850 O   0  0  0  0  0  0  0  0  0  0  0  0
  130.1370  131.8610   58.8770 N   0  0  0  0  0  0  0  0  0  0  0  0
  129.9280  131.7270   57.4310 C   0  0  0  0  0  0  0  0  0  0  0  0
  125.1241  133.0671   61.1617 H   0  0  0  0  0  0  0  0  0  0  0  0
  125.5082  133.9084   59.6217 H   0  0  0  0  0  0  0  0  0  0  0  0
  125.1730  132.1436   59.6217 H   0  0  0  0  0  0  0  0  0  0  0  0
  127.9651  133.8986   63.2966 H   0  0  0  0  0  0  0  0  0  0  0  0
  126.4074  133.0182   63.0025 H   0  0  0  0  0  0  0  0  0  0  0  0
  127.4750  130.4800   62.4800 H   0  0  0  0  0  0  0  0  0  0  0  0
  127.7848  125.2787   63.0717 H   0  0  0  0  0  0  0  0  0  0  0  0
  131.4864  121.5669   60.9695 H   0  0  0  0  0  0  0  0  0  0  0  0
  131.4774  123.3650   60.9653 H   0  0  0  0  0  0  0  0  0  0  0  0
  133.7145  122.7762   62.4852 H   0  0  0  0  0  0  0  0  0  0  0  0
  134.4155  124.3454   61.0552 H   0  0  0  0  0  0  0  0  0  0  0  0
  134.7246  123.0416   59.8588 H   0  0  0  0  0  0  0  0  0  0  0  0
  133.1498  123.9056   59.8588 H   0  0  0  0  0  0  0  0  0  0  0  0
  134.1617  120.5608   62.1392 H   0  0  0  0  0  0  0  0  0  0  0  0
  133.2198  120.4958   60.6110 H   0  0  0  0  0  0  0  0  0  0  0  0
  134.8865  121.1658   60.6110 H   0  0  0  0  0  0  0  0  0  0  0  0
  131.5089  126.5649   64.8407 H   0  0  0  0  0  0  0  0  0  0  0  0
  128.6182  127.0407   66.6009 H   0  0  0  0  0  0  0  0  0  0  0  0
  132.7825  131.6438   62.4428 H   0  0  0  0  0  0  0  0  0  0  0  0
  133.2427  130.6752   61.0017 H   0  0  0  0  0  0  0  0  0  0  0  0
  133.4836  132.4553   61.0017 H   0  0  0  0  0  0  0  0  0  0  0  0
  129.0153  131.1418   57.2451 H   0  0  0  0  0  0  0  0  0  0  0  0
  129.8212  132.7254   56.9819 H   0  0  0  0  0  0  0  0  0  0  0  0
  130.7908  131.2133   56.9819 H   0  0  0  0  0  0  0  0  0  0  0  0
  1  2  1  0
  2  3  1  0
  3  4  1  0
  4  5  2  0
  5  6  1  0
  6  7  1  0
  7  8  1  0
  8  9  2  0
  8 10  1  0
 10 11  1  0
 11 12  2  0
 12 13  1  0
 13 14  1  0
 14 15  2  0
 15 16  1  0
 16 17  1  0
 16 18  2  0
 18 19  1  0
 19 20  1  0
 20 21  1  0
 21 22  1  0
 21 23  1  0
 18 24  1  0
 24 25  1  0
 24 26  2  0
 13 27  2  0
 27 28  1  0
  5 29  1  0
 29 30  2  0
 29 31  1  0
 31 32  1  0
 31 33  1  0
 33 34  2  0
 33 35  1  0
 35 36  1  0
  6  2  2  0
 28 11  1  0
 35  4  1  0
 26 14  1  0
  1 37  1  0
  1 38  1  0
  1 39  1  0
  7 40  1  0
  7 41  1  0
 10 42  1  0
 15 43  1  0
 20 44  1  0
 20 45  1  0
 21 46  1  0
 22 47  1  0
 22 48  1  0
 22 49  1  0
 23 50  1  0
 23 51  1  0
 23 52  1  0
 26 53  1  0
 27 54  1  0
 32 55  1  0
 32 56  1  0
 32 57  1  0
 36 58  1  0
 36 59  1  0
 36 60  1  0
M  END
>  <Binding energies>  (1) 
[-7.89]

>  <Ligand effiencies>  (1) 
[-0.21324324324324323]

>  <Interactions>  (1) 
["V-A:ILE:369:CG2:3237, V-A:GLY:454:CA:4049, V-A:ILE:369:CB:3236, H-A:ALA:541:N:4891, V-A:PRO:540:C:4881, V-B:ALA:541:CB:9864, V-B:LEU:475:CD2:9230, V-B:GLU:543:CG:9879, V-A:TYR:539:CD1:4873, V-A:ALA:541:CB:4892, V-A:GLU:543:CD:4908, H-B:TYR:484:OH:9319, V-A:SER:385:C:3405, V-A:ILE:369:CD1:3239, V-A:GLU:543:CG:4907, V-A:SER:385:CB:3409, V-B:GLU:543:CD:9880, V-A:LEU:475:CD2:4259, V-A:ARG:545:CZ:4926, V-A:PRO:540:CB:4885, V-A:PRO:540:CA:4883, V-A:SER:385:CA:3407, V-A:TYR:539:CE1:4875"]

$$$$
ZINC139362492
     RDKit          3D

 41 43  0  0  0  0  0  0  0  0999 V2000
  132.0440  123.8380   64.2470 C   0  0  0  0  0  0  0  0  0  0  0  0
  130.8170  124.5930   64.7750 C   0  0  2  0  0  0  0  0  0  0  0  0
  130.4500  125.8040   63.8890 C   0  0  0  0  0  0  0  0  0  0  0  0
  129.2380  126.5780   64.4520 C   0  0  2  0  0  0  0  0  0  0  0  0
  128.9890  127.8380   63.5960 N   0  0  0  0  0  0  0  0  0  0  0  0
  127.8550  128.7380   64.1220 C   0  0  2  0  0  0  0  0  0  0  0  0
  127.8560  130.0080   63.2540 C   0  0  0  0  0  0  0  0  0  0  0  0
  128.0800  129.0070   65.6220 C   0  0  0  0  0  0  0  0  0  0  0  0
  128.3460  127.7240   66.4420 C   0  0  2  0  0  0  0  0  0  0  0  0
  128.5180  128.1070   67.8450 N   0  0  0  0  0  0  0  0  0  0  0  0
  128.8750  126.9890   68.7160 C   0  0  2  0  0  0  0  0  0  0  0  0
  129.1340  127.4250   70.1660 C   0  0  0  0  0  0  0  0  0  0  0  0
  130.0740  126.2200   68.1190 C   0  0  0  0  0  0  0  0  0  0  0  0
  129.8180  125.7960   66.6570 C   0  0  2  0  0  0  0  0  0  0  0  0
  130.9580  125.0150   66.1700 N   0  0  0  0  0  0  0  0  0  0  0  0
  129.4810  126.9850   65.8500 N   0  0  0  0  0  0  0  0  0  0  0  0
  132.6412  123.4706   65.0946 H   0  0  0  0  0  0  0  0  0  0  0  0
  131.7146  122.9862   63.6339 H   0  0  0  0  0  0  0  0  0  0  0  0
  132.6559  124.5160   63.6339 H   0  0  0  0  0  0  0  0  0  0  0  0
  129.9923  123.8664   64.7311 H   0  0  0  0  0  0  0  0  0  0  0  0
  131.3139  126.4830   63.8379 H   0  0  0  0  0  0  0  0  0  0  0  0
  130.1831  125.4292   62.8899 H   0  0  0  0  0  0  0  0  0  0  0  0
  128.3582  125.9184   64.4209 H   0  0  0  0  0  0  0  0  0  0  0  0
  129.8420  128.3750   63.5430 H   0  0  0  0  0  0  0  0  0  0  0  0
  128.7720  127.5540   62.6500 H   0  0  0  0  0  0  0  0  0  0  0  0
  126.8623  128.2704   64.0456 H   0  0  0  0  0  0  0  0  0  0  0  0
  127.8567  130.8959   63.9033 H   0  0  0  0  0  0  0  0  0  0  0  0
  128.7542  130.0174   62.6190 H   0  0  0  0  0  0  0  0  0  0  0  0
  126.9579  130.0188   62.6190 H   0  0  0  0  0  0  0  0  0  0  0  0
  128.9464  129.6760   65.7303 H   0  0  0  0  0  0  0  0  0  0  0  0
  127.1559  129.4572   66.0136 H   0  0  0  0  0  0  0  0  0  0  0  0
  127.4997  127.0220   66.4099 H   0  0  0  0  0  0  0  0  0  0  0  0
  127.6670  128.5350   68.1800 H   0  0  0  0  0  0  0  0  0  0  0  0
  128.0111  126.3098   68.7636 H   0  0  0  0  0  0  0  0  0  0  0  0
  128.6959  126.6874   70.8545 H   0  0  0  0  0  0  0  0  0  0  0  0
  130.2180  127.4912   70.3409 H   0  0  0  0  0  0  0  0  0  0  0  0
  128.6736  128.4086   70.3409 H   0  0  0  0  0  0  0  0  0  0  0  0
  130.9627  126.8675   68.1507 H   0  0  0  0  0  0  0  0  0  0  0  0
  130.2247  125.3085   68.7160 H   0  0  0  0  0  0  0  0  0  0  0  0
  128.9467  125.1297   66.5742 H   0  0  0  0  0  0  0  0  0  0  0  0
  131.0740  124.2000   66.7550 H   0  0  0  0  0  0  0  0  0  0  0  0
  1  2  1  0
  2  3  1  0
  3  4  1  0
  4  5  1  0
  5  6  1  0
  6  7  1  0
  6  8  1  0
  8  9  1  0
  9 10  1  0
 10 11  1  0
 11 12  1  0
 11 13  1  0
 13 14  1  0
 14 15  1  0
 14 16  1  0
 15  2  1  0
 16  4  1  0
 16  9  1  0
  1 17  1  0
  1 18  1  0
  1 19  1  0
  2 20  1  1
  3 21  1  0
  3 22  1  0
  4 23  1  1
  5 24  1  0
  5 25  1  0
  6 26  1  1
  7 27  1  0
  7 28  1  0
  7 29  1  0
  8 30  1  0
  8 31  1  0
  9 32  1  1
 10 33  1  0
 11 34  1  1
 12 35  1  0
 12 36  1  0
 12 37  1  0
 13 38  1  0
 13 39  1  0
 14 40  1  1
 15 41  1  0
M  CHG  1   5   1
M  END
>  <Binding energies>  (1) 
[-6.37]

>  <Ligand effiencies>  (1) 
[-0.3185]

>  <Interactions>  (1) 
["V-A:HIS:456:CE1:4070, H-B:GLU:543:OE1:9881, H-A:GLU:543:OE2:4910, H-B:HIS:456:NE2:9042, V-B:GLU:543:CB:9878, V-A:GLU:543:CG:4907, V-B:GLU:543:CD:9880, V-A:GLU:543:CD:4908, V-B:GLU:543:CG:9879, H-A:GLU:543:OE1:4909, V-B:HIS:456:CE1:9041, H-A:TYR:484:OH:4348"]

$$$$
ZINC13943587
     RDKit          3D

 47 49  0  0  0  0  0  0  0  0999 V2000
  128.7270  133.5600   61.3640 O   0  0  0  0  0  0  0  0  0  0  0  0
  129.5070  132.6780   61.7130 N   0  0  0  0  0  0  0  0  0  0  0  0
  130.6600  132.6080   61.2960 O   0  0  0  0  0  0  0  0  0  0  0  0
  129.0370  131.6560   62.6810 C   0  0  0  0  0  0  0  0  0  0  0  0
  128.8010  130.3380   62.2680 C   0  0  0  0  0  0  0  0  0  0  0  0
  128.3650  129.3780   63.1770 C   0  0  0  0  0  0  0  0  0  0  0  0
  128.1620  129.7150   64.5160 C   0  0  0  0  0  0  0  0  0  0  0  0
  127.7140  128.7020   65.3820 N   0  0  0  0  0  0  0  0  0  0  0  0
  128.3790  127.8980   66.3200 C   0  0  0  0  0  0  0  0  0  0  0  0
  129.0680  126.8000   65.9080 N   0  0  0  0  0  0  0  0  0  0  0  0
  129.6720  126.0850   66.8960 C   0  0  0  0  0  0  0  0  0  0  0  0
  130.3980  124.9590   66.5220 N   0  0  0  0  0  0  0  0  0  0  0  0
  130.0110  124.5250   65.3970 N   0  0  0  0  0  0  0  0  0  0  0  0
  130.7230  123.3410   64.9700 C   0  0  0  0  0  0  0  0  0  0  0  0
  131.9480  123.7170   64.1450 C   0  0  0  0  0  0  0  0  0  0  0  0
  132.1760  123.1480   62.8840 C   0  0  0  0  0  0  0  0  0  0  0  0
  133.3060  123.5170   62.1530 C   0  0  0  0  0  0  0  0  0  0  0  0
  134.1780  124.4570   62.7050 C   0  0  0  0  0  0  0  0  0  0  0  0
  133.9760  125.0270   63.9200 N   0  0  0  0  0  0  0  0  0  0  0  0
  132.8720  124.6550   64.6190 C   0  0  0  0  0  0  0  0  0  0  0  0
  129.6100  126.3780   68.2220 N   0  0  0  0  0  0  0  0  0  0  0  0
  128.8820  127.4920   68.5230 C   0  0  0  0  0  0  0  0  0  0  0  0
  128.7410  127.9010   69.8370 O   0  0  0  0  0  0  0  0  0  0  0  0
  129.2450  127.1100   70.9250 C   0  0  0  0  0  0  0  0  0  0  0  0
  128.0740  126.9020   71.9130 C   0  0  0  0  0  0  0  0  0  0  0  0
  126.9000  127.0020   71.2880 F   0  0  0  0  0  0  0  0  0  0  0  0
  128.1120  125.6920   72.4740 F   0  0  0  0  0  0  0  0  0  0  0  0
  128.0800  127.7990   72.9000 F   0  0  0  0  0  0  0  0  0  0  0  0
  130.4830  127.8040   71.5490 C   0  0  0  0  0  0  0  0  0  0  0  0
  131.4160  128.0700   70.6350 F   0  0  0  0  0  0  0  0  0  0  0  0
  130.1620  128.9580   72.1350 F   0  0  0  0  0  0  0  0  0  0  0  0
  131.0580  127.0370   72.4760 F   0  0  0  0  0  0  0  0  0  0  0  0
  128.2470  128.2810   67.6170 N   0  0  0  0  0  0  0  0  0  0  0  0
  128.3770  131.0340   64.9320 C   0  0  0  0  0  0  0  0  0  0  0  0
  128.8160  131.9930   64.0220 C   0  0  0  0  0  0  0  0  0  0  0  0
  128.9617  130.0594   61.2161 H   0  0  0  0  0  0  0  0  0  0  0  0
  128.1795  128.3481   62.8380 H   0  0  0  0  0  0  0  0  0  0  0  0
  126.7150  128.5590   65.3660 H   0  0  0  0  0  0  0  0  0  0  0  0
  131.0446  122.7739   65.8560 H   0  0  0  0  0  0  0  0  0  0  0  0
  130.0521  122.7299   64.3484 H   0  0  0  0  0  0  0  0  0  0  0  0
  131.4674  122.4140   62.4728 H   0  0  0  0  0  0  0  0  0  0  0  0
  133.5050  123.0773   61.1646 H   0  0  0  0  0  0  0  0  0  0  0  0
  135.0688  124.7488   62.1294 H   0  0  0  0  0  0  0  0  0  0  0  0
  132.6962  125.1126   65.6037 H   0  0  0  0  0  0  0  0  0  0  0  0
  129.5997  126.1209   70.5997 H   0  0  0  0  0  0  0  0  0  0  0  0
  128.1988  131.3142   65.9807 H   0  0  0  0  0  0  0  0  0  0  0  0
  128.9907  133.0250   64.3602 H   0  0  0  0  0  0  0  0  0  0  0  0
  1  2  2  0
  2  3  1  0
  2  4  1  0
  4  5  2  0
  5  6  1  0
  6  7  2  0
  7  8  1  0
  8  9  1  0
  9 10  2  0
 10 11  1  0
 11 12  1  0
 12 13  2  0
 13 14  1  0
 14 15  1  0
 15 16  2  0
 16 17  1  0
 17 18  2  0
 18 19  1  0
 19 20  2  0
 11 21  2  0
 21 22  1  0
 22 23  1  0
 23 24  1  0
 24 25  1  0
 25 26  1  0
 25 27  1  0
 25 28  1  0
 24 29  1  0
 29 30  1  0
 29 31  1  0
 29 32  1  0
 22 33  2  0
  7 34  1  0
 34 35  2  0
 35  4  1  0
 33  9  1  0
 20 15  1  0
  5 36  1  0
  6 37  1  0
  8 38  1  0
 14 39  1  0
 14 40  1  0
 16 41  1  0
 17 42  1  0
 18 43  1  0
 20 44  1  0
 24 45  1  0
 34 46  1  0
 35 47  1  0
M  CHG  2   2   1   3  -1
M  END
>  <Binding energies>  (1) 
[-6.81]

>  <Ligand effiencies>  (1) 
[-0.18916666666666665]

>  <Interactions>  (1) 
["V-A:ARG:545:CA:4919, V-B:GLU:543:C:9874, V-B:HIS:456:CD2:9039, V-A:GLU:543:C:4902, H-A:ALA:541:N:4891, V-B:GLU:543:CB:9878, V-A:PRO:540:C:4881, H-A:ARG:545:NH1:4927, V-A:TYR:484:CE2:4346, V-A:GLY:544:CA:4914, V-B:GLU:543:CG:9879, V-A:GLY:544:C:4912, V-A:HIS:456:CD2:4068, V-B:TYR:484:CE2:9317, H-B:GLU:543:OE1:9881, V-A:ALA:541:CB:4892, V-B:LYS:547:CE:9922, V-A:GLU:543:CD:4908, V-A:TYR:484:CZ:4347, H-B:TYR:484:OH:9319, V-B:HIS:456:CE1:9041, H-A:GLY:454:N:4050, V-A:GLY:453:C:4042, V-B:TYR:484:CZ:9318, V-A:HIS:456:CE1:4070, V-B:GLY:544:C:9884, V-B:GLY:544:CA:9886, V-A:GLU:543:CG:4907, V-B:GLU:543:CD:9880, V-B:HIS:456:CG:9037, V-A:LEU:475:CD2:4259, H-A:ARG:545:NH2:4928, V-A:ARG:545:CZ:4926, V-A:GLU:543:CB:4906, V-A:HIS:456:CG:4066, H-B:GLU:543:OE2:9882, V-A:PRO:540:CA:4883, V-A:GLY:453:CA:4044, H-A:ARG:545:NE:4924, H-A:TYR:484:OH:4348"]

$$$$
ZINC13960111
     RDKit          3D

 43 45  0  0  0  0  0  0  0  0999 V2000
  130.1720  119.9970   61.4330 C   0  0  0  0  0  0  0  0  0  0  0  0
  129.3360  121.2500   61.2930 C   0  0  0  0  0  0  0  0  0  0  0  0
  128.8920  121.7200   60.2030 N   0  0  0  0  0  0  0  0  0  0  0  0
  128.1550  122.8520   60.4080 N   0  0  0  0  0  0  0  0  0  0  0  0
  127.4360  123.4650   59.4150 C   0  0  0  0  0  0  0  0  0  0  0  0
  126.2090  123.3550   59.3370 O   0  0  0  0  0  0  0  0  0  0  0  0
  128.1300  124.2620   58.4110 C   0  0  0  0  0  0  0  0  0  0  0  0
  127.9810  124.1860   57.0100 C   0  0  0  0  0  0  0  0  0  0  0  0
  128.8750  125.0900   56.4770 C   0  0  0  0  0  0  0  0  0  0  0  0
  129.5480  125.6150   57.5480 N   0  0  0  0  0  0  0  0  0  0  0  0
  130.5580  126.6460   57.5590 C   0  0  0  0  0  0  0  0  0  0  0  0
  131.8190  126.1220   57.8690 O   0  0  0  0  0  0  0  0  0  0  0  0
  132.0750  125.8470   59.1940 C   0  0  0  0  0  0  0  0  0  0  0  0
  131.4060  126.5490   60.2000 C   0  0  0  0  0  0  0  0  0  0  0  0
  131.6550  126.2660   61.5420 C   0  0  0  0  0  0  0  0  0  0  0  0
  132.5790  125.2750   61.9070 C   0  0  0  0  0  0  0  0  0  0  0  0
  132.8420  124.9710   63.3350 N   0  0  0  0  0  0  0  0  0  0  0  0
  133.9910  124.7100   63.6790 O   0  0  0  0  0  0  0  0  0  0  0  0
  131.9000  124.9890   64.1220 O   0  0  0  0  0  0  0  0  0  0  0  0
  133.2500  124.5800   60.8900 C   0  0  0  0  0  0  0  0  0  0  0  0
  133.0050  124.8630   59.5440 C   0  0  0  0  0  0  0  0  0  0  0  0
  133.8580  123.9770   58.3290 Cl  0  0  0  0  0  0  0  0  0  0  0  0
  129.1150  125.0920   58.7060 N   0  0  0  0  0  0  0  0  0  0  0  0
  128.0180  123.1350   61.8530 C   0  0  2  0  0  0  0  0  0  0  0  0
  126.6920  122.8860   62.3140 O   0  0  0  0  0  0  0  0  0  0  0  0
  128.3650  124.6010   62.2400 C   0  0  0  0  0  0  0  0  0  0  0  0
  129.5280  124.7130   62.8840 F   0  0  0  0  0  0  0  0  0  0  0  0
  128.3920  125.4260   61.1920 F   0  0  0  0  0  0  0  0  0  0  0  0
  128.9850  122.1210   62.4610 C   0  0  0  0  0  0  0  0  0  0  0  0
  130.3214  119.7731   62.4996 H   0  0  0  0  0  0  0  0  0  0  0  0
  129.6541  119.1549   60.9506 H   0  0  0  0  0  0  0  0  0  0  0  0
  131.1484  120.1519   60.9506 H   0  0  0  0  0  0  0  0  0  0  0  0
  127.2897  123.5355   56.4542 H   0  0  0  0  0  0  0  0  0  0  0  0
  129.0178  125.3376   55.4148 H   0  0  0  0  0  0  0  0  0  0  0  0
  130.6002  127.1164   56.5656 H   0  0  0  0  0  0  0  0  0  0  0  0
  130.2908  127.3844   58.3293 H   0  0  0  0  0  0  0  0  0  0  0  0
  130.6787  127.3294   59.9314 H   0  0  0  0  0  0  0  0  0  0  0  0
  131.1210  126.8260   62.3239 H   0  0  0  0  0  0  0  0  0  0  0  0
  133.9796  123.8010   61.1561 H   0  0  0  0  0  0  0  0  0  0  0  0
  126.3090  123.7160   62.6080 H   0  0  0  0  0  0  0  0  0  0  0  0
  127.5472  124.8946   62.9145 H   0  0  0  0  0  0  0  0  0  0  0  0
  129.8783  122.6194   62.8654 H   0  0  0  0  0  0  0  0  0  0  0  0
  128.5543  121.5625   63.3051 H   0  0  0  0  0  0  0  0  0  0  0  0
  1  2  1  0
  2  3  2  0
  3  4  1  0
  4  5  1  0
  5  6  2  0
  5  7  1  0
  7  8  1  0
  8  9  2  0
  9 10  1  0
 10 11  1  0
 11 12  1  0
 12 13  1  0
 13 14  2  0
 14 15  1  0
 15 16  2  0
 16 17  1  0
 17 18  2  0
 17 19  1  0
 16 20  1  0
 20 21  2  0
 21 22  1  0
 10 23  1  0
  4 24  1  0
 24 25  1  1
 24 26  1  0
 26 27  1  0
 26 28  1  0
 24 29  1  0
 29  2  1  0
 23  7  2  0
 21 13  1  0
  1 30  1  0
  1 31  1  0
  1 32  1  0
  8 33  1  0
  9 34  1  0
 11 35  1  0
 11 36  1  0
 14 37  1  0
 15 38  1  0
 20 39  1  0
 25 40  1  0
 26 41  1  0
 29 42  1  0
 29 43  1  0
M  CHG  2  17   1  19  -1
M  END
>  <Binding energies>  (1) 
[-6.69]

>  <Ligand effiencies>  (1) 
[-0.223]

>  <Interactions>  (1) 
["V-A:ILE:369:CG2:3237, V-A:ASP:366:CA:3210, V-B:PRO:540:CA:9855, V-A:ILE:369:CB:3236, V-B:ALA:541:CB:9864, H-A:TYR:531:OH:4795, H-A:ARG:545:NH1:4927, V-B:TYR:539:CE2:9848, H-B:ALA:541:O:9861, V-B:GLU:543:CG:9879, V-A:ASP:366:CG:3213, V-B:TYR:539:CZ:9849, H-B:GLU:543:OE1:9881, H-B:TYR:539:OH:9850, H-B:ALA:541:N:9863, H-A:GLY:454:N:4050, V-A:ASP:366:C:3208, V-B:TYR:539:CD2:9846, V-B:GLU:543:CD:9880, V-A:ASP:366:CB:3212, V-A:LEU:475:CD2:4259, H-A:ARG:545:NH2:4928, V-A:ARG:545:CZ:4926, V-B:PRO:540:C:9853, V-B:TYR:539:CE1:9847"]

$$$$
ZINC139893125
     RDKit          3D

 54 57  0  0  0  0  0  0  0  0999 V2000
  126.5310  125.7080   60.5770 C   0  0  0  0  0  0  0  0  0  0  0  0
  126.8730  124.4450   59.7260 C   0  0  0  0  0  0  0  0  0  0  0  0
  125.5920  123.5930   59.4710 C   0  0  0  0  0  0  0  0  0  0  0  0
  127.3750  124.8950   58.3010 C   0  0  1  0  0  0  0  0  0  0  0  0
  126.2810  126.1150   57.5640 Cl  0  0  0  0  0  0  0  0  0  0  0  0
  128.8280  125.4240   58.2770 C   0  0  2  0  0  0  0  0  0  0  0  0
  129.3330  125.7820   56.5990 Cl  0  0  0  0  0  0  0  0  0  0  0  0
  129.7750  124.3490   58.8290 C   0  0  0  0  0  0  0  0  0  0  0  0
  129.4940  123.9600   60.3060 C   0  0  2  0  0  0  0  0  0  0  0  0
  129.8290  125.1730   61.2340 C   0  0  0  0  0  0  0  0  0  0  0  0
  130.3470  122.6650   60.5980 C   0  0  1  0  0  0  0  0  0  0  0  0
  131.8550  122.8740   60.7460 C   0  0  0  0  0  0  0  0  0  0  0  0
  132.2830  121.9780   61.9100 C   0  0  1  0  0  0  0  0  0  0  0  0
  133.4420  122.5110   62.7970 C   0  0  1  0  0  0  0  0  0  0  0  0
  134.6810  122.9130   62.0230 C   0  0  0  0  0  0  0  0  0  0  0  0
  134.9360  124.3590   62.4020 C   0  0  0  0  0  0  0  0  0  0  0  0
  135.8750  125.0440   62.0050 O   0  0  0  0  0  0  0  0  0  0  0  0
  133.9540  124.7380   63.2410 N   0  0  0  0  0  0  0  0  0  0  0  0
  133.0360  123.7930   63.5230 C   0  0  0  0  0  0  0  0  0  0  0  0
  132.0680  123.9180   64.2720 O   0  0  0  0  0  0  0  0  0  0  0  0
  131.1090  121.9430   62.7140 O   0  0  0  0  0  0  0  0  0  0  0  0
  129.9460  121.8860   61.8860 C   0  0  2  0  0  0  0  0  0  0  0  0
  129.6510  120.3880   61.6220 C   0  0  0  0  0  0  0  0  0  0  0  0
  128.8090  122.5280   62.7140 C   0  0  0  0  0  0  0  0  0  0  0  0
  127.6250  123.0080   61.8640 C   0  0  0  0  0  0  0  0  0  0  0  0
  126.4880  122.9970   62.3290 O   0  0  0  0  0  0  0  0  0  0  0  0
  127.9750  123.5190   60.4270 C   0  0  1  0  0  0  0  0  0  0  0  0
  126.5984  125.4589   61.6463 H   0  0  0  0  0  0  0  0  0  0  0  0
  127.2437  126.5123   60.3422 H   0  0  0  0  0  0  0  0  0  0  0  0
  125.5098  126.0428   60.3422 H   0  0  0  0  0  0  0  0  0  0  0  0
  125.1496  123.2988   60.4342 H   0  0  0  0  0  0  0  0  0  0  0  0
  124.8640  124.1875   58.8995 H   0  0  0  0  0  0  0  0  0  0  0  0
  125.8588  122.6918   58.8995 H   0  0  0  0  0  0  0  0  0  0  0  0
  127.3597  123.9729   57.7015 H   0  0  0  0  0  0  0  0  0  0  0  0
  128.8718  126.3377   58.8880 H   0  0  0  0  0  0  0  0  0  0  0  0
  129.6738  123.4466   58.2081 H   0  0  0  0  0  0  0  0  0  0  0  0
  130.7900  124.7718   58.7981 H   0  0  0  0  0  0  0  0  0  0  0  0
  129.7437  124.8641   62.2863 H   0  0  0  0  0  0  0  0  0  0  0  0
  130.8552  125.5150   61.0343 H   0  0  0  0  0  0  0  0  0  0  0  0
  129.1238  125.9932   61.0343 H   0  0  0  0  0  0  0  0  0  0  0  0
  130.1144  122.0990   59.6839 H   0  0  0  0  0  0  0  0  0  0  0  0
  132.3758  122.5792   59.8230 H   0  0  0  0  0  0  0  0  0  0  0  0
  132.1030  123.9293   60.9325 H   0  0  0  0  0  0  0  0  0  0  0  0
  132.6614  121.0239   61.5143 H   0  0  0  0  0  0  0  0  0  0  0  0
  133.6569  121.6674   63.4694 H   0  0  0  0  0  0  0  0  0  0  0  0
  135.5359  122.2828   62.3094 H   0  0  0  0  0  0  0  0  0  0  0  0
  134.5454  122.7905   60.9383 H   0  0  0  0  0  0  0  0  0  0  0  0
  133.9050  125.6700   63.6270 H   0  0  0  0  0  0  0  0  0  0  0  0
  129.5470  119.8601   62.5815 H   0  0  0  0  0  0  0  0  0  0  0  0
  128.7170  120.2937   61.0486 H   0  0  0  0  0  0  0  0  0  0  0  0
  130.4795  119.9467   61.0486 H   0  0  0  0  0  0  0  0  0  0  0  0
  128.4403  121.7831   63.4345 H   0  0  0  0  0  0  0  0  0  0  0  0
  129.2316  123.4152   63.2083 H   0  0  0  0  0  0  0  0  0  0  0  0
  127.9000  122.6465   59.7613 H   0  0  0  0  0  0  0  0  0  0  0  0
  1  2  1  0
  2  3  1  0
  2  4  1  0
  4  5  1  0
  4  6  1  0
  6  7  1  0
  6  8  1  0
  8  9  1  0
  9 10  1  1
  9 11  1  0
 11 12  1  0
 12 13  1  0
 13 14  1  0
 14 15  1  0
 15 16  1  0
 16 17  2  0
 16 18  1  0
 18 19  1  0
 19 20  2  0
 13 21  1  0
 21 22  1  0
 22 23  1  6
 22 24  1  0
 24 25  1  0
 25 26  2  0
 25 27  1  0
 27  2  1  0
 27  9  1  0
 22 11  1  0
 19 14  1  0
  1 28  1  0
  1 29  1  0
  1 30  1  0
  3 31  1  0
  3 32  1  0
  3 33  1  0
  4 34  1  6
  6 35  1  1
  8 36  1  0
  8 37  1  0
 10 38  1  0
 10 39  1  0
 10 40  1  0
 11 41  1  6
 12 42  1  0
 12 43  1  0
 13 44  1  6
 14 45  1  1
 15 46  1  0
 15 47  1  0
 18 48  1  0
 23 49  1  0
 23 50  1  0
 23 51  1  0
 24 52  1  0
 24 53  1  0
 27 54  1  6
M  END
>  <Binding energies>  (1) 
[-7.21]

>  <Ligand effiencies>  (1) 
[-0.2575]

>  <Interactions>  (1) 
["V-A:ILE:369:CG2:3237, V-B:PRO:540:CA:9855, V-A:GLY:454:CA:4049, V-B:ALA:541:CB:9864, H-A:ARG:545:NH1:4927, V-B:TYR:539:CE2:9848, V-B:TYR:539:CZ:9849, V-B:TYR:531:CZ:9766, H-B:ALA:541:N:9863, V-B:PRO:540:CB:9857, H-A:GLY:454:N:4050, V-A:GLY:453:C:4042, V-A:ILE:369:CD1:3239, V-B:TYR:539:CD2:9846, V-A:LEU:475:CD2:4259, V-A:ARG:545:CZ:4926, H-A:ASP:366:OD1:3214, V-A:GLY:453:CA:4044, V-B:PRO:540:C:9853, H-A:TYR:484:OH:4348"]

$$$$
ZINC140143438
     RDKit          3D

 74 78  0  0  0  0  0  0  0  0999 V2000
  130.8870  126.9660   73.4810 C   0  0  0  0  0  0  0  0  0  0  0  0
  129.5020  127.6240   73.5500 C   0  0  0  0  0  0  0  0  0  0  0  0
  129.2650  128.6420   72.4220 C   0  0  0  0  0  0  0  0  0  0  0  0
  129.4270  128.0240   71.0420 C   0  0  0  0  0  0  0  0  0  0  0  0
  130.6260  128.1180   70.3320 C   0  0  0  0  0  0  0  0  0  0  0  0
  130.7820  127.5820   69.0940 N   0  0  0  0  0  0  0  0  0  0  0  0
  129.7060  126.9450   68.5430 C   0  0  0  0  0  0  0  0  0  0  0  0
  129.8640  126.3530   67.2820 N   0  0  0  0  0  0  0  0  0  0  0  0
  129.0850  126.8340   66.1140 C   0  0  0  0  0  0  0  0  0  0  0  0
  129.6230  126.3860   64.7400 C   0  0  0  0  0  0  0  0  0  0  0  0
  129.7660  124.8590   64.6610 C   0  0  0  0  0  0  0  0  0  0  0  0
  130.1980  124.3680   63.2470 C   0  0  2  0  0  0  0  0  0  0  0  0
  131.4380  125.0960   62.6820 C   0  0  0  0  0  0  0  0  0  0  0  0
  130.8220  126.1560   61.8280 C   0  0  0  0  0  0  0  0  0  0  0  0
  131.3560  127.2490   61.1480 C   0  0  0  0  0  0  0  0  0  0  0  0
  130.5270  128.0680   60.3540 C   0  0  0  0  0  0  0  0  0  0  0  0
  131.0620  129.2540   59.6260 C   0  0  0  0  0  0  0  0  0  0  0  0
  131.2370  130.4360   60.2750 C   0  0  0  0  0  0  0  0  0  0  0  0
  131.6190  131.7590   59.6020 C   0  0  0  0  0  0  0  0  0  0  0  0
  131.4150  131.6830   58.1300 N   0  0  0  0  0  0  0  0  0  0  0  0
  129.8470  132.2810   57.5310 S   0  0  0  0  0  0  0  0  0  0  0  0
  129.9810  133.7180   57.2610 O   0  0  0  0  0  0  0  0  0  0  0  0
  129.3740  131.3740   56.4780 O   0  0  0  0  0  0  0  0  0  0  0  0
  128.6960  132.1110   59.0290 C   0  0  0  0  0  0  0  0  0  0  0  0
  128.7590  133.3500   59.9380 C   0  0  0  0  0  0  0  0  0  0  0  0
  127.5430  133.4630   60.8670 C   0  0  0  0  0  0  0  0  0  0  0  0
  131.9030  130.4120   57.5460 C   0  0  0  0  0  0  0  0  0  0  0  0
  131.0750  129.2270   58.0870 C   0  0  0  0  0  0  0  0  0  0  0  0
  129.1690  127.7180   60.2270 C   0  0  0  0  0  0  0  0  0  0  0  0
  128.6420  126.5990   60.8790 C   0  0  0  0  0  0  0  0  0  0  0  0
  127.3390  126.2690   60.7300 F   0  0  0  0  0  0  0  0  0  0  0  0
  129.4920  125.8340   61.6700 C   0  0  0  0  0  0  0  0  0  0  0  0
  129.1360  124.6890   62.3370 O   0  0  0  0  0  0  0  0  0  0  0  0
  130.7860  124.5210   65.7580 C   0  0  0  0  0  0  0  0  0  0  0  0
  130.2750  124.9330   67.1540 C   0  0  0  0  0  0  0  0  0  0  0  0
  128.5060  126.7970   69.1780 N   0  0  0  0  0  0  0  0  0  0  0  0
  128.3800  127.3430   70.4160 C   0  0  0  0  0  0  0  0  0  0  0  0
  131.2600  126.7888   74.5006 H   0  0  0  0  0  0  0  0  0  0  0  0
  130.8114  126.0076   72.9465 H   0  0  0  0  0  0  0  0  0  0  0  0
  131.5822  127.6301   72.9465 H   0  0  0  0  0  0  0  0  0  0  0  0
  128.7361  126.8376   73.4794 H   0  0  0  0  0  0  0  0  0  0  0  0
  129.4432  128.1691   74.5036 H   0  0  0  0  0  0  0  0  0  0  0  0
  128.2435  129.0397   72.5136 H   0  0  0  0  0  0  0  0  0  0  0  0
  130.0173  129.4380   72.5242 H   0  0  0  0  0  0  0  0  0  0  0  0
  131.4747  128.6452   70.7922 H   0  0  0  0  0  0  0  0  0  0  0  0
  128.0549  126.4616   66.2146 H   0  0  0  0  0  0  0  0  0  0  0  0
  129.1572  127.9315   66.1284 H   0  0  0  0  0  0  0  0  0  0  0  0
  128.9263  126.7205   63.9572 H   0  0  0  0  0  0  0  0  0  0  0  0
  130.6178  126.8332   64.5969 H   0  0  0  0  0  0  0  0  0  0  0  0
  128.8088  124.3411   64.8210 H   0  0  0  0  0  0  0  0  0  0  0  0
  130.4259  123.2963   63.3449 H   0  0  0  0  0  0  0  0  0  0  0  0
  132.0437  125.5357   63.4881 H   0  0  0  0  0  0  0  0  0  0  0  0
  132.1266  124.4347   62.1357 H   0  0  0  0  0  0  0  0  0  0  0  0
  132.4295  127.4740   61.2311 H   0  0  0  0  0  0  0  0  0  0  0  0
  131.0936  130.4432   61.3656 H   0  0  0  0  0  0  0  0  0  0  0  0
  130.9929  132.5655   60.0114 H   0  0  0  0  0  0  0  0  0  0  0  0
  132.6821  131.9605   59.8000 H   0  0  0  0  0  0  0  0  0  0  0  0
  127.6634  131.9826   58.6724 H   0  0  0  0  0  0  0  0  0  0  0  0
  129.0220  131.2389   59.6148 H   0  0  0  0  0  0  0  0  0  0  0  0
  129.6684  133.2892   60.5539 H   0  0  0  0  0  0  0  0  0  0  0  0
  128.7666  134.2386   59.2897 H   0  0  0  0  0  0  0  0  0  0  0  0
  127.8776  133.4319   61.9144 H   0  0  0  0  0  0  0  0  0  0  0  0
  127.0229  134.4133   60.6763 H   0  0  0  0  0  0  0  0  0  0  0  0
  126.8567  132.6248   60.6763 H   0  0  0  0  0  0  0  0  0  0  0  0
  131.8059  130.4538   56.4511 H   0  0  0  0  0  0  0  0  0  0  0  0
  132.9580  130.2702   57.8232 H   0  0  0  0  0  0  0  0  0  0  0  0
  130.0435  129.3021   57.7125 H   0  0  0  0  0  0  0  0  0  0  0  0
  131.5276  128.2842   57.7459 H   0  0  0  0  0  0  0  0  0  0  0  0
  128.5092  128.3377   59.6020 H   0  0  0  0  0  0  0  0  0  0  0  0
  130.9715  123.4368   65.7513 H   0  0  0  0  0  0  0  0  0  0  0  0
  131.7113  125.0788   65.5515 H   0  0  0  0  0  0  0  0  0  0  0  0
  129.4062  124.3039   67.3978 H   0  0  0  0  0  0  0  0  0  0  0  0
  131.1225  124.7971   67.8419 H   0  0  0  0  0  0  0  0  0  0  0  0
  127.4199  127.2453   70.9438 H   0  0  0  0  0  0  0  0  0  0  0  0
  1  2  1  0
  2  3  1  0
  3  4  1  0
  4  5  2  0
  5  6  1  0
  6  7  2  0
  7  8  1  0
  8  9  1  0
  9 10  1  0
 10 11  1  0
 11 12  1  0
 12 13  1  0
 13 14  1  0
 14 15  2  0
 15 16  1  0
 16 17  1  0
 17 18  2  0
 18 19  1  0
 19 20  1  0
 20 21  1  0
 21 22  2  0
 21 23  2  0
 21 24  1  0
 24 25  1  0
 25 26  1  0
 20 27  1  0
 27 28  1  0
 16 29  2  0
 29 30  1  0
 30 31  1  0
 30 32  2  0
 32 33  1  0
 11 34  1  0
 34 35  1  0
  7 36  1  0
 36 37  2  0
 37  4  1  0
 35  8  1  0
 33 12  1  0
 32 14  1  0
 28 17  1  0
  1 38  1  0
  1 39  1  0
  1 40  1  0
  2 41  1  0
  2 42  1  0
  3 43  1  0
  3 44  1  0
  5 45  1  0
  9 46  1  0
  9 47  1  0
 10 48  1  0
 10 49  1  0
 11 50  1  0
 12 51  1  1
 13 52  1  0
 13 53  1  0
 15 54  1  0
 18 55  1  0
 19 56  1  0
 19 57  1  0
 24 58  1  0
 24 59  1  0
 25 60  1  0
 25 61  1  0
 26 62  1  0
 26 63  1  0
 26 64  1  0
 27 65  1  0
 27 66  1  0
 28 67  1  0
 28 68  1  0
 29 69  1  0
 34 70  1  0
 34 71  1  0
 35 72  1  0
 35 73  1  0
 37 74  1  0
M  END
>  <Binding energies>  (1) 
[-8.07]

>  <Ligand effiencies>  (1) 
[-0.21810810810810813]

>  <Interactions>  (1) 
["V-B:HIS:456:CD2:9039, V-A:GLU:543:C:4902, V-B:GLU:543:CB:9878, V-A:TYR:484:CE2:4346, V-B:GLU:543:CG:9879, V-A:GLY:544:C:4912, V-A:HIS:456:CD2:4068, V-A:ASP:366:CG:3213, V-A:TYR:539:CD1:4873, V-A:TYR:531:CE2:4793, V-A:GLU:543:CD:4908, V-A:TYR:484:CZ:4347, V-B:HIS:456:CE1:9041, V-A:HIS:456:CE1:4070, V-A:TYR:531:CZ:4794, V-B:GLU:543:CD:9880, V-A:TYR:539:C:4867, V-A:GLU:543:CB:4906, V-A:PRO:540:N:4884, H-A:TYR:539:N:4870, V-A:PRO:540:CB:4885, V-A:PRO:540:CA:4883"]

$$$$
ZINC142785
     RDKit          3D

 26 27  0  0  0  0  0  0  0  0999 V2000
  127.5970  131.0560   56.8010 C   0  0  0  0  0  0  0  0  0  0  0  0
  129.0220  130.7840   57.2400 C   0  0  0  0  0  0  0  0  0  0  0  0
  129.3550  129.5510   57.5500 N   0  0  0  0  0  0  0  0  0  0  0  0
  130.6530  129.5930   57.8590 N   0  0  0  0  0  0  0  0  0  0  0  0
  131.3000  128.3600   58.2850 C   0  0  0  0  0  0  0  0  0  0  0  0
  131.1800  130.8610   57.8030 C   0  0  0  0  0  0  0  0  0  0  0  0
  132.8480  131.2720   58.2070 S   0  0  0  0  0  0  0  0  0  0  0  0
  132.6520  131.4760   59.9450 C   0  0  0  0  0  0  0  0  0  0  0  0
  131.3950  131.3610   60.4480 N   0  0  0  0  0  0  0  0  0  0  0  0
  131.2650  131.5470   61.7880 C   0  0  0  0  0  0  0  0  0  0  0  0
  132.3530  131.8440   62.6140 C   0  0  0  0  0  0  0  0  0  0  0  0
  133.6020  131.9430   61.9960 C   0  0  0  0  0  0  0  0  0  0  0  0
  133.7720  131.7620   60.6610 N   0  0  0  0  0  0  0  0  0  0  0  0
  130.1170  131.6680   57.3830 C   0  0  0  0  0  0  0  0  0  0  0  0
  130.1280  133.0860   57.1650 N   0  0  0  0  0  0  0  0  0  0  0  0
  131.1370  133.5870   56.6790 O   0  0  0  0  0  0  0  0  0  0  0  0
  129.1280  133.7270   57.4710 O   0  0  0  0  0  0  0  0  0  0  0  0
  126.9572  131.1781   57.6874 H   0  0  0  0  0  0  0  0  0  0  0  0
  127.5682  131.9759   56.1985 H   0  0  0  0  0  0  0  0  0  0  0  0
  127.2314  130.2114   56.1985 H   0  0  0  0  0  0  0  0  0  0  0  0
  131.3219  128.3182   59.3840 H   0  0  0  0  0  0  0  0  0  0  0  0
  130.7381  127.4979   57.8964 H   0  0  0  0  0  0  0  0  0  0  0  0
  132.3287  128.3325   57.8964 H   0  0  0  0  0  0  0  0  0  0  0  0
  130.2658  131.4606   62.2397 H   0  0  0  0  0  0  0  0  0  0  0  0
  132.2317  131.9924   63.6972 H   0  0  0  0  0  0  0  0  0  0  0  0
  134.4812  132.1765   62.6144 H   0  0  0  0  0  0  0  0  0  0  0  0
  1  2  1  0
  2  3  2  0
  3  4  1  0
  4  5  1  0
  4  6  1  0
  6  7  1  0
  7  8  1  0
  8  9  2  0
  9 10  1  0
 10 11  2  0
 11 12  1  0
 12 13  2  0
  6 14  2  0
 14 15  1  0
 15 16  2  0
 15 17  1  0
 14  2  1  0
 13  8  1  0
  1 18  1  0
  1 19  1  0
  1 20  1  0
  5 21  1  0
  5 22  1  0
  5 23  1  0
 10 24  1  0
 11 25  1  0
 12 26  1  0
M  CHG  2  15   1  17  -1
M  END
>  <Binding energies>  (1) 
[-5.6]

>  <Ligand effiencies>  (1) 
[-0.32941176470588235]

>  <Interactions>  (1) 
["V-A:PRO:540:N:4884, H-A:TYR:539:N:4870, V-A:PRO:540:CB:4885, V-A:PRO:540:CA:4883, V-A:ALA:541:C:4888, V-A:GLU:543:CG:4907, V-A:MET:535:CE:4835, H-A:TYR:531:OH:4795, V-A:TYR:539:C:4867, V-A:ASP:366:CB:3212, V-A:GLU:543:CD:4908, V-A:ASN:362:C:3172, H-A:LEU:363:N:3186, V-A:ASP:366:CG:3213, V-A:ASN:362:CB:3176"]

$$$$
ZINC142808574
     RDKit          3D

 80 81  0  0  0  0  0  0  0  0999 V2000
  134.3340  122.9670   61.3620 C   0  0  0  0  0  0  0  0  0  0  0  0
  133.6100  122.8510   60.1380 O   0  0  0  0  0  0  0  0  0  0  0  0
  133.0040  123.9850   59.7030 C   0  0  0  0  0  0  0  0  0  0  0  0
  132.1030  124.6310   60.4960 C   0  0  0  0  0  0  0  0  0  0  0  0
  131.7820  124.1540   61.9250 C   0  0  0  0  0  0  0  0  0  0  0  0
  132.4770  124.9240   63.0840 C   0  0  2  0  0  0  0  0  0  0  0  0
  132.8890  123.9910   64.2400 C   0  0  0  0  0  0  0  0  0  0  0  0
  131.6780  126.1440   63.6130 C   0  0  0  0  0  0  0  0  0  0  0  0
  130.1420  126.0340   63.4600 C   0  0  2  0  0  0  0  0  0  0  0  0
  129.6550  127.3730   63.3340 O   0  0  0  0  0  0  0  0  0  0  0  0
  128.3400  127.5040   62.8100 C   0  0  0  0  0  0  0  0  0  0  0  0
  129.4270  125.2660   64.6270 C   0  0  2  0  0  0  0  0  0  0  0  0
  130.1740  125.4310   65.8190 O   0  0  0  0  0  0  0  0  0  0  0  0
  129.0900  123.7540   64.4310 C   0  0  2  0  0  0  0  0  0  0  0  0
  129.7220  122.8140   65.4750 C   0  0  0  0  0  0  0  0  0  0  0  0
  129.3530  123.2910   63.0000 C   0  0  0  0  0  0  0  0  0  0  0  0
  128.4470  122.9180   62.0650 C   0  0  0  0  0  0  0  0  0  0  0  0
  126.9410  122.9060   62.3120 C   0  0  0  0  0  0  0  0  0  0  0  0
  128.8380  122.5770   60.6190 C   0  0  2  0  0  0  0  0  0  0  0  0
  130.1950  122.1280   60.5300 O   0  0  0  0  0  0  0  0  0  0  0  0
  130.6030  120.9370   61.0220 C   0  0  0  0  0  0  0  0  0  0  0  0
  131.9480  120.7780   60.7730 N   0  0  0  0  0  0  0  0  0  0  0  0
  129.8900  120.1180   61.6010 O   0  0  0  0  0  0  0  0  0  0  0  0
  128.5800  123.6650   59.5410 C   0  0  1  0  0  0  0  0  0  0  0  0
  128.5700  123.0660   58.2440 O   0  0  0  0  0  0  0  0  0  0  0  0
  127.3030  122.6010   57.7960 C   0  0  0  0  0  0  0  0  0  0  0  0
  127.3000  124.4550   59.8090 C   0  0  0  0  0  0  0  0  0  0  0  0
  127.1410  125.7860   59.6640 C   0  0  0  0  0  0  0  0  0  0  0  0
  128.1900  126.6970   59.2240 C   0  0  0  0  0  0  0  0  0  0  0  0
  128.8540  126.6480   58.0430 C   0  0  0  0  0  0  0  0  0  0  0  0
  128.6550  125.6160   56.9340 C   0  0  0  0  0  0  0  0  0  0  0  0
  129.8950  127.6270   57.7520 C   0  0  0  0  0  0  0  0  0  0  0  0
  129.6400  128.6430   57.1080 O   0  0  0  0  0  0  0  0  0  0  0  0
  131.1560  127.4210   58.2150 N   0  0  0  0  0  0  0  0  0  0  0  0
  131.7330  126.2580   58.6650 C   0  0  0  0  0  0  0  0  0  0  0  0
  132.6200  125.5740   57.8930 C   0  0  0  0  0  0  0  0  0  0  0  0
  133.3280  124.3640   58.3080 C   0  0  0  0  0  0  0  0  0  0  0  0
  134.0930  123.7490   57.5660 O   0  0  0  0  0  0  0  0  0  0  0  0
  131.4150  125.8830   60.0670 C   0  0  0  0  0  0  0  0  0  0  0  0
  130.6540  126.5330   60.7890 O   0  0  0  0  0  0  0  0  0  0  0  0
  133.6416  122.8561   62.2095 H   0  0  0  0  0  0  0  0  0  0  0  0
  135.1014  122.1804   61.4101 H   0  0  0  0  0  0  0  0  0  0  0  0
  134.8172  123.9540   61.4101 H   0  0  0  0  0  0  0  0  0  0  0  0
  130.6951  124.2404   62.0703 H   0  0  0  0  0  0  0  0  0  0  0  0
  132.1694  123.1261   61.9837 H   0  0  0  0  0  0  0  0  0  0  0  0
  133.3899  125.3365   62.6297 H   0  0  0  0  0  0  0  0  0  0  0  0
  132.6728  124.4805   65.2011 H   0  0  0  0  0  0  0  0  0  0  0  0
  132.3225  123.0506   64.1719 H   0  0  0  0  0  0  0  0  0  0  0  0
  133.9657  123.7762   64.1719 H   0  0  0  0  0  0  0  0  0  0  0  0
  131.9070  126.2647   64.6821 H   0  0  0  0  0  0  0  0  0  0  0  0
  131.9878  127.0040   63.0011 H   0  0  0  0  0  0  0  0  0  0  0  0
  129.9110  125.4254   62.5733 H   0  0  0  0  0  0  0  0  0  0  0  0
  127.6204  127.5757   63.6389 H   0  0  0  0  0  0  0  0  0  0  0  0
  128.2801  128.4126   62.1928 H   0  0  0  0  0  0  0  0  0  0  0  0
  128.1020  126.6251   62.1928 H   0  0  0  0  0  0  0  0  0  0  0  0
  128.4329  125.7357   64.6627 H   0  0  0  0  0  0  0  0  0  0  0  0
  130.6280  126.2750   65.7790 H   0  0  0  0  0  0  0  0  0  0  0  0
  128.0077  123.6796   64.6126 H   0  0  0  0  0  0  0  0  0  0  0  0
  129.4803  123.1735   66.4861 H   0  0  0  0  0  0  0  0  0  0  0  0
  129.3232  121.7975   65.3422 H   0  0  0  0  0  0  0  0  0  0  0  0
  130.8139  122.7997   65.3422 H   0  0  0  0  0  0  0  0  0  0  0  0
  130.4080  123.2561   62.6904 H   0  0  0  0  0  0  0  0  0  0  0  0
  126.7470  122.9045   63.3948 H   0  0  0  0  0  0  0  0  0  0  0  0
  126.4881  123.8006   61.8596 H   0  0  0  0  0  0  0  0  0  0  0  0
  126.5024  122.0043   61.8596 H   0  0  0  0  0  0  0  0  0  0  0  0
  128.1365  121.7663   60.3726 H   0  0  0  0  0  0  0  0  0  0  0  0
  132.4490  121.5040   60.2830 H   0  0  0  0  0  0  0  0  0  0  0  0
  132.4110  119.9360   61.0800 H   0  0  0  0  0  0  0  0  0  0  0  0
  129.4018  124.3948   59.5875 H   0  0  0  0  0  0  0  0  0  0  0  0
  126.6696  122.3685   58.6648 H   0  0  0  0  0  0  0  0  0  0  0  0
  126.8202  123.3805   57.1883 H   0  0  0  0  0  0  0  0  0  0  0  0
  127.4391  121.6942   57.1883 H   0  0  0  0  0  0  0  0  0  0  0  0
  126.4252  123.8837   60.1529 H   0  0  0  0  0  0  0  0  0  0  0  0
  126.1534  126.2129   59.8931 H   0  0  0  0  0  0  0  0  0  0  0  0
  128.4704  127.5031   59.9179 H   0  0  0  0  0  0  0  0  0  0  0  0
  128.4647  124.6292   57.3813 H   0  0  0  0  0  0  0  0  0  0  0  0
  127.7966  125.9080   56.3112 H   0  0  0  0  0  0  0  0  0  0  0  0
  129.5604  125.5679   56.3112 H   0  0  0  0  0  0  0  0  0  0  0  0
  131.7800  128.2150   58.1780 H   0  0  0  0  0  0  0  0  0  0  0  0
  132.8192  125.9596   56.8822 H   0  0  0  0  0  0  0  0  0  0  0  0
  1  2  1  0
  2  3  1  0
  3  4  2  0
  4  5  1  0
  5  6  1  0
  6  7  1  0
  6  8  1  0
  8  9  1  0
  9 10  1  0
 10 11  1  0
  9 12  1  0
 12 13  1  0
 12 14  1  0
 14 15  1  0
 14 16  1  0
 16 17  2  0
 17 18  1  0
 17 19  1  0
 19 20  1  0
 20 21  1  0
 21 22  1  0
 21 23  2  0
 19 24  1  0
 24 25  1  0
 25 26  1  0
 24 27  1  0
 27 28  2  0
 28 29  1  0
 29 30  2  0
 30 31  1  0
 30 32  1  0
 32 33  2  0
 32 34  1  0
 34 35  1  0
 35 36  2  0
 36 37  1  0
 37 38  2  0
 35 39  1  0
 39 40  2  0
 37  3  1  0
 39  4  1  0
  1 41  1  0
  1 42  1  0
  1 43  1  0
  5 44  1  0
  5 45  1  0
  6 46  1  6
  7 47  1  0
  7 48  1  0
  7 49  1  0
  8 50  1  0
  8 51  1  0
  9 52  1  6
 11 53  1  0
 11 54  1  0
 11 55  1  0
 12 56  1  1
 13 57  1  0
 14 58  1  1
 15 59  1  0
 15 60  1  0
 15 61  1  0
 16 62  1  0
 18 63  1  0
 18 64  1  0
 18 65  1  0
 19 66  1  6
 22 67  1  0
 22 68  1  0
 24 69  1  6
 26 70  1  0
 26 71  1  0
 26 72  1  0
 27 73  1  0
 28 74  1  0
 29 75  1  0
 31 76  1  0
 31 77  1  0
 31 78  1  0
 34 79  1  0
 36 80  1  0
M  END
>  <Binding energies>  (1) 
[-3.49]

>  <Ligand effiencies>  (1) 
[-0.07586956521739131]

>  <Interactions>  (1) 
["V-A:ILE:369:CG2:3237, V-A:ASP:366:CA:3210, V-B:PRO:540:CA:9855, V-A:GLY:454:CA:4049, H-A:GLU:543:OE2:4910, V-B:GLU:543:CB:9878, V-B:ALA:541:CB:9864, H-A:TYR:531:OH:4795, V-B:TYR:539:CE2:9848, V-A:TYR:484:CE2:4346, V-B:GLU:543:CG:9879, V-B:TYR:539:C:9839, V-A:ASP:366:CG:3213, V-B:TYR:539:CZ:9849, H-A:ASN:370:N:3244, H-B:TYR:539:OH:9850, V-A:GLU:543:CD:4908, V-A:TYR:484:CZ:4347, V-B:PRO:540:CB:9857, V-B:PRO:540:N:9856, V-A:ILE:369:CD1:3239, V-A:ASP:366:C:3208, V-B:TYR:539:CD2:9846, V-B:PRO:540:CD:9859, H-A:SER:385:OG:3410, V-B:GLU:543:CD:9880, V-A:ASP:366:CB:3212, V-A:LEU:475:CD2:4259, V-A:ARG:545:CZ:4926, H-A:GLU:543:OE1:4909, V-B:TYR:539:CG:9844, V-B:PRO:540:C:9853, H-A:ASP:366:OD2:3215, V-B:ALA:541:CA:9862"]

$$$$
ZINC144057150
     RDKit          3D

 65 69  0  0  0  0  0  0  0  0999 V2000
  126.1790  126.9590   68.9690 C   0  0  0  0  0  0  0  0  0  0  0  0
  127.5050  126.6190   68.5790 O   0  0  0  0  0  0  0  0  0  0  0  0
  128.5800  127.2110   69.2220 C   0  0  0  0  0  0  0  0  0  0  0  0
  128.4730  127.8680   70.4600 C   0  0  0  0  0  0  0  0  0  0  0  0
  129.5930  128.4360   71.0740 C   0  0  0  0  0  0  0  0  0  0  0  0
  129.4630  129.1400   72.4260 C   0  0  0  0  0  0  0  0  0  0  0  0
  129.2190  128.1620   73.6010 C   0  0  0  0  0  0  0  0  0  0  0  0
  129.4720  128.5900   74.7490 O   0  0  0  0  0  0  0  0  0  0  0  0
  128.8280  126.9980   73.3540 O   0  0  0  0  0  0  0  0  0  0  0  0
  130.8360  128.3400   70.4500 C   0  0  0  0  0  0  0  0  0  0  0  0
  130.9550  127.6930   69.2240 C   0  0  0  0  0  0  0  0  0  0  0  0
  129.8380  127.1310   68.5940 C   0  0  0  0  0  0  0  0  0  0  0  0
  130.0140  126.4570   67.2770 C   0  0  0  0  0  0  0  0  0  0  0  0
  130.9170  125.3930   67.1860 C   0  0  0  0  0  0  0  0  0  0  0  0
  131.1040  124.7190   65.9850 C   0  0  0  0  0  0  0  0  0  0  0  0
  130.3970  125.1090   64.8540 C   0  0  0  0  0  0  0  0  0  0  0  0
  130.5900  124.4440   63.6910 F   0  0  0  0  0  0  0  0  0  0  0  0
  129.5040  126.1840   64.9120 C   0  0  0  0  0  0  0  0  0  0  0  0
  129.3020  126.8610   66.1270 C   0  0  0  0  0  0  0  0  0  0  0  0
  128.2810  128.0020   66.1330 C   0  0  0  0  0  0  0  0  0  0  0  0
  128.3690  128.8360   64.9120 N   0  0  0  0  0  0  0  0  0  0  0  0
  127.8180  130.0810   64.9350 C   0  0  0  0  0  0  0  0  0  0  0  0
  128.3600  131.0350   65.5040 O   0  0  0  0  0  0  0  0  0  0  0  0
  126.5560  130.3510   64.0810 C   0  0  0  0  0  0  0  0  0  0  0  0
  126.7260  130.1170   62.5620 C   0  0  0  0  0  0  0  0  0  0  0  0
  127.6430  131.1460   61.9300 C   0  0  0  0  0  0  0  0  0  0  0  0
  127.4210  132.5110   61.7880 C   0  0  0  0  0  0  0  0  0  0  0  0
  126.2550  133.3830   62.1940 C   0  0  0  0  0  0  0  0  0  0  0  0
  128.5030  133.0740   61.1570 N   0  0  0  0  0  0  0  0  0  0  0  0
  129.4570  132.1230   60.8790 C   0  0  0  0  0  0  0  0  0  0  0  0
  130.7070  132.2260   60.2600 C   0  0  0  0  0  0  0  0  0  0  0  0
  131.4470  131.0510   60.1280 C   0  0  0  0  0  0  0  0  0  0  0  0
  130.9680  129.8280   60.5900 C   0  0  0  0  0  0  0  0  0  0  0  0
  129.7230  129.7280   61.2070 C   0  0  0  0  0  0  0  0  0  0  0  0
  128.9400  130.8860   61.3620 C   0  0  0  0  0  0  0  0  0  0  0  0
  128.7330  128.2150   63.6150 C   0  0  0  0  0  0  0  0  0  0  0  0
  128.7280  126.6700   63.6960 C   0  0  0  0  0  0  0  0  0  0  0  0
  126.1127  126.9760   70.0669 H   0  0  0  0  0  0  0  0  0  0  0  0
  125.9229  127.9519   68.5708 H   0  0  0  0  0  0  0  0  0  0  0  0
  125.4767  126.2119   68.5708 H   0  0  0  0  0  0  0  0  0  0  0  0
  127.4923  127.9363   70.9535 H   0  0  0  0  0  0  0  0  0  0  0  0
  130.3915  129.6965   72.6212 H   0  0  0  0  0  0  0  0  0  0  0  0
  128.5883  129.8044   72.3662 H   0  0  0  0  0  0  0  0  0  0  0  0
  131.7250  128.7769   70.9282 H   0  0  0  0  0  0  0  0  0  0  0  0
  131.9414  127.6219   68.7424 H   0  0  0  0  0  0  0  0  0  0  0  0
  131.4862  125.0858   68.0758 H   0  0  0  0  0  0  0  0  0  0  0  0
  131.8108  123.8779   65.9298 H   0  0  0  0  0  0  0  0  0  0  0  0
  127.2702  127.5729   66.1972 H   0  0  0  0  0  0  0  0  0  0  0  0
  128.4976  128.6454   66.9985 H   0  0  0  0  0  0  0  0  0  0  0  0
  125.7544  129.6886   64.4397 H   0  0  0  0  0  0  0  0  0  0  0  0
  126.3293  131.4206   64.2014 H   0  0  0  0  0  0  0  0  0  0  0  0
  127.1518  129.1154   62.4020 H   0  0  0  0  0  0  0  0  0  0  0  0
  125.7363  130.2074   62.0905 H   0  0  0  0  0  0  0  0  0  0  0  0
  126.1952  133.4277   63.2915 H   0  0  0  0  0  0  0  0  0  0  0  0
  126.3985  134.3972   61.7930 H   0  0  0  0  0  0  0  0  0  0  0  0
  125.3227  132.9587   61.7930 H   0  0  0  0  0  0  0  0  0  0  0  0
  128.5490  134.0610   60.9500 H   0  0  0  0  0  0  0  0  0  0  0  0
  131.0893  133.1902   59.8938 H   0  0  0  0  0  0  0  0  0  0  0  0
  132.4350  131.0917   59.6462 H   0  0  0  0  0  0  0  0  0  0  0  0
  131.5835  128.9248   60.4656 H   0  0  0  0  0  0  0  0  0  0  0  0
  129.3570  128.7557   61.5684 H   0  0  0  0  0  0  0  0  0  0  0  0
  128.0080  128.5338   62.8517 H   0  0  0  0  0  0  0  0  0  0  0  0
  129.7509  128.5403   63.3540 H   0  0  0  0  0  0  0  0  0  0  0  0
  127.6886  126.3171   63.7682 H   0  0  0  0  0  0  0  0  0  0  0  0
  129.2092  126.2705   62.7911 H   0  0  0  0  0  0  0  0  0  0  0  0
  1  2  1  0
  2  3  1  0
  3  4  2  0
  4  5  1  0
  5  6  1  0
  6  7  1  0
  7  8  2  0
  7  9  1  0
  5 10  2  0
 10 11  1  0
 11 12  2  0
 12 13  1  0
 13 14  2  0
 14 15  1  0
 15 16  2  0
 16 17  1  0
 16 18  1  0
 18 19  2  0
 19 20  1  0
 20 21  1  0
 21 22  1  0
 22 23  2  0
 22 24  1  0
 24 25  1  0
 25 26  1  0
 26 27  2  0
 27 28  1  0
 27 29  1  0
 29 30  1  0
 30 31  2  0
 31 32  1  0
 32 33  2  0
 33 34  1  0
 34 35  2  0
 21 36  1  0
 36 37  1  0
 12  3  1  0
 19 13  1  0
 35 26  1  0
 37 18  1  0
 35 30  1  0
  1 38  1  0
  1 39  1  0
  1 40  1  0
  4 41  1  0
  6 42  1  0
  6 43  1  0
 10 44  1  0
 11 45  1  0
 14 46  1  0
 15 47  1  0
 20 48  1  0
 20 49  1  0
 24 50  1  0
 24 51  1  0
 25 52  1  0
 25 53  1  0
 28 54  1  0
 28 55  1  0
 28 56  1  0
 29 57  1  0
 31 58  1  0
 32 59  1  0
 33 60  1  0
 34 61  1  0
 36 62  1  0
 36 63  1  0
 37 64  1  0
 37 65  1  0
M  CHG  1   9  -1
M  END
>  <Binding energies>  (1) 
[-7.65]

>  <Ligand effiencies>  (1) 
[-0.20131578947368423]

>  <Interactions>  (1) 
["V-B:HIS:456:CD2:9039, V-B:GLU:543:C:9874, V-A:GLU:543:C:4902, V-B:GLU:543:CB:9878, H-B:LYS:547:NZ:9923, V-A:PRO:540:C:4881, V-A:TYR:484:CE2:4346, V-A:GLY:544:CA:4914, V-B:GLU:543:CG:9879, V-A:GLY:544:C:4912, V-B:LEU:475:CD2:9230, V-B:ARG:545:CG:9894, V-A:GLU:543:CD:4908, V-A:TYR:484:CZ:4347, H-B:TYR:484:OH:9319, V-B:HIS:456:CE1:9041, V-B:GLU:543:CA:9876, V-A:HIS:456:CE1:4070, V-B:GLY:544:C:9884, V-A:GLU:543:CG:4907, V-B:GLU:543:CD:9880, H-A:LYS:547:NZ:4951, V-A:GLU:543:CB:4906, H-A:TYR:539:O:4868, V-A:PRO:540:N:4884, V-A:PRO:540:CB:4885, V-A:PRO:540:CA:4883, V-B:ARG:545:CA:9891"]

$$$$
ZINC144245786
     RDKit          3D

 80 81  0  0  0  0  0  0  0  0999 V2000
  133.6130  124.6860   64.4180 O   0  0  0  0  0  0  0  0  0  0  0  0
  133.3050  123.9280   63.4970 C   0  0  0  0  0  0  0  0  0  0  0  0
  134.1480  123.8990   62.2150 C   0  0  0  0  0  0  0  0  0  0  0  0
  133.9680  122.5820   61.4250 C   0  0  0  0  0  0  0  0  0  0  0  0
  133.0130  122.6990   60.2220 C   0  0  0  0  0  0  0  0  0  0  0  0
  131.5500  123.0100   60.6010 C   0  0  0  0  0  0  0  0  0  0  0  0
  130.9440  124.2190   59.8420 C   0  0  2  0  0  0  0  0  0  0  0  0
  131.6200  125.7950   60.4180 S   0  0  0  0  0  0  0  0  0  0  0  0
  130.3860  125.9160   61.7240 C   0  0  0  0  0  0  0  0  0  0  0  0
  129.0810  125.3910   61.1050 C   0  0  2  0  0  0  0  0  0  0  0  0
  128.2550  124.5610   61.9590 N   0  0  0  0  0  0  0  0  0  0  0  0
  127.9650  123.3350   61.4890 C   0  0  0  0  0  0  0  0  0  0  0  0
  127.2740  122.4700   62.0210 O   0  0  0  0  0  0  0  0  0  0  0  0
  128.5970  123.2690   60.3060 N   0  0  0  0  0  0  0  0  0  0  0  0
  129.4100  124.4230   59.9760 C   0  0  2  0  0  0  0  0  0  0  0  0
  132.2440  123.1030   63.5400 N   0  0  0  0  0  0  0  0  0  0  0  0
  131.2850  123.0150   64.6410 C   0  0  0  0  0  0  0  0  0  0  0  0
  130.0400  123.9170   64.4710 C   0  0  0  0  0  0  0  0  0  0  0  0
  130.1560  125.2920   65.1590 C   0  0  0  0  0  0  0  0  0  0  0  0
  130.6480  125.2010   66.6140 C   0  0  0  0  0  0  0  0  0  0  0  0
  129.6160  125.7330   67.6230 C   0  0  0  0  0  0  0  0  0  0  0  0
  130.0830  127.0050   68.3540 C   0  0  0  0  0  0  0  0  0  0  0  0
  129.0100  127.5770   69.2960 C   0  0  0  0  0  0  0  0  0  0  0  0
  129.5870  128.0770   70.6350 C   0  0  0  0  0  0  0  0  0  0  0  0
  128.6040  128.0000   71.8210 C   0  0  0  0  0  0  0  0  0  0  0  0
  129.0000  126.9810   72.9130 C   0  0  0  0  0  0  0  0  0  0  0  0
  129.5810  127.6090   74.1980 C   0  0  0  0  0  0  0  0  0  0  0  0
  128.5790  128.4630   74.9770 C   0  0  0  0  0  0  0  0  0  0  0  0
  127.4180  128.0880   75.1510 O   0  0  0  0  0  0  0  0  0  0  0  0
  129.1170  129.6190   75.4150 O   0  0  0  0  0  0  0  0  0  0  0  0
  128.6010  130.8730   74.9790 C   0  0  0  0  0  0  0  0  0  0  0  0
  129.1090  131.2360   73.5690 C   0  0  2  0  0  0  0  0  0  0  0  0
  130.1870  130.3780   73.2400 O   0  0  0  0  0  0  0  0  0  0  0  0
  129.5360  132.7150   73.4310 C   0  0  0  0  0  0  0  0  0  0  0  0
  130.8460  132.8240   72.9100 O   0  0  0  0  0  0  0  0  0  0  0  0
  133.8462  124.7403   61.5739 H   0  0  0  0  0  0  0  0  0  0  0  0
  135.2061  123.9755   62.5058 H   0  0  0  0  0  0  0  0  0  0  0  0
  134.9535  122.2632   61.0547 H   0  0  0  0  0  0  0  0  0  0  0  0
  133.5202  121.8540   62.1174 H   0  0  0  0  0  0  0  0  0  0  0  0
  133.3786  123.5052   59.5690 H   0  0  0  0  0  0  0  0  0  0  0  0
  133.0083  121.7168   59.7267 H   0  0  0  0  0  0  0  0  0  0  0  0
  130.9395  122.1220   60.3803 H   0  0  0  0  0  0  0  0  0  0  0  0
  131.5473  123.2718   61.6694 H   0  0  0  0  0  0  0  0  0  0  0  0
  131.2029  123.9604   58.8047 H   0  0  0  0  0  0  0  0  0  0  0  0
  130.6776  125.2993   62.5869 H   0  0  0  0  0  0  0  0  0  0  0  0
  130.2783  126.9478   62.0896 H   0  0  0  0  0  0  0  0  0  0  0  0
  128.5517  126.3173   60.8369 H   0  0  0  0  0  0  0  0  0  0  0  0
  127.6490  125.0150   62.6270 H   0  0  0  0  0  0  0  0  0  0  0  0
  128.8100  122.3840   59.8680 H   0  0  0  0  0  0  0  0  0  0  0  0
  129.1668  124.7598   58.9575 H   0  0  0  0  0  0  0  0  0  0  0  0
  132.0700  122.4990   62.7490 H   0  0  0  0  0  0  0  0  0  0  0  0
  130.9466  121.9714   64.7211 H   0  0  0  0  0  0  0  0  0  0  0  0
  131.8074  123.3641   65.5439 H   0  0  0  0  0  0  0  0  0  0  0  0
  129.8781  124.0821   63.3956 H   0  0  0  0  0  0  0  0  0  0  0  0
  129.2019  123.3924   64.9531 H   0  0  0  0  0  0  0  0  0  0  0  0
  130.8646  125.9101   64.5882 H   0  0  0  0  0  0  0  0  0  0  0  0
  129.1485  125.7330   65.1811 H   0  0  0  0  0  0  0  0  0  0  0  0
  130.8594  124.1474   66.8490 H   0  0  0  0  0  0  0  0  0  0  0  0
  131.5496  125.8252   66.6999 H   0  0  0  0  0  0  0  0  0  0  0  0
  128.6851  125.9616   67.0834 H   0  0  0  0  0  0  0  0  0  0  0  0
  129.4709  124.9527   68.3846 H   0  0  0  0  0  0  0  0  0  0  0  0
  130.9776  126.7620   68.9462 H   0  0  0  0  0  0  0  0  0  0  0  0
  130.2950  127.7678   67.5903 H   0  0  0  0  0  0  0  0  0  0  0  0
  128.5143  128.4196   68.7917 H   0  0  0  0  0  0  0  0  0  0  0  0
  128.3063  126.7632   69.5250 H   0  0  0  0  0  0  0  0  0  0  0  0
  130.4689  127.4665   70.8790 H   0  0  0  0  0  0  0  0  0  0  0  0
  129.8274  129.1413   70.4953 H   0  0  0  0  0  0  0  0  0  0  0  0
  128.5455  128.9958   72.2846 H   0  0  0  0  0  0  0  0  0  0  0  0
  127.6416  127.6614   71.4097 H   0  0  0  0  0  0  0  0  0  0  0  0
  128.1031  126.4062   73.1873 H   0  0  0  0  0  0  0  0  0  0  0  0
  129.7975  126.3573   72.4828 H   0  0  0  0  0  0  0  0  0  0  0  0
  129.9283  126.7972   74.8541 H   0  0  0  0  0  0  0  0  0  0  0  0
  130.3969  128.2777   73.8865 H   0  0  0  0  0  0  0  0  0  0  0  0
  127.5024  130.8200   74.9601 H   0  0  0  0  0  0  0  0  0  0  0  0
  128.9446  131.6488   75.6790 H   0  0  0  0  0  0  0  0  0  0  0  0
  128.2722  131.0991   72.8682 H   0  0  0  0  0  0  0  0  0  0  0  0
  130.6160  130.7150   72.4500 H   0  0  0  0  0  0  0  0  0  0  0  0
  128.8371  133.2283   72.7542 H   0  0  0  0  0  0  0  0  0  0  0  0
  129.5195  133.1763   74.4295 H   0  0  0  0  0  0  0  0  0  0  0  0
  130.9760  132.1280   72.2610 H   0  0  0  0  0  0  0  0  0  0  0  0
  1  2  2  0
  2  3  1  0
  3  4  1  0
  4  5  1  0
  5  6  1  0
  6  7  1  0
  7  8  1  0
  8  9  1  0
  9 10  1  0
 10 11  1  0
 11 12  1  0
 12 13  2  0
 12 14  1  0
 14 15  1  0
  2 16  1  0
 16 17  1  0
 17 18  1  0
 18 19  1  0
 19 20  1  0
 20 21  1  0
 21 22  1  0
 22 23  1  0
 23 24  1  0
 24 25  1  0
 25 26  1  0
 26 27  1  0
 27 28  1  0
 28 29  2  0
 28 30  1  0
 30 31  1  0
 31 32  1  0
 32 33  1  0
 32 34  1  0
 34 35  1  0
 15  7  1  0
 15 10  1  0
  3 36  1  0
  3 37  1  0
  4 38  1  0
  4 39  1  0
  5 40  1  0
  5 41  1  0
  6 42  1  0
  6 43  1  0
  7 44  1  6
  9 45  1  0
  9 46  1  0
 10 47  1  6
 11 48  1  0
 14 49  1  0
 15 50  1  6
 16 51  1  0
 17 52  1  0
 17 53  1  0
 18 54  1  0
 18 55  1  0
 19 56  1  0
 19 57  1  0
 20 58  1  0
 20 59  1  0
 21 60  1  0
 21 61  1  0
 22 62  1  0
 22 63  1  0
 23 64  1  0
 23 65  1  0
 24 66  1  0
 24 67  1  0
 25 68  1  0
 25 69  1  0
 26 70  1  0
 26 71  1  0
 27 72  1  0
 27 73  1  0
 31 74  1  0
 31 75  1  0
 32 76  1  6
 33 77  1  0
 34 78  1  0
 34 79  1  0
 35 80  1  0
M  END
>  <Binding energies>  (1) 
[-6.45]

>  <Ligand effiencies>  (1) 
[-0.16125]

>  <Interactions>  (1) 
["V-A:ILE:369:CG2:3237, V-A:GLY:454:CA:4049, V-B:HIS:456:CD2:9039, V-B:GLU:543:CB:9878, H-B:LYS:547:NZ:9923, V-B:TYR:539:CE2:9848, V-A:TYR:484:CE2:4346, V-B:GLU:543:CG:9879, H-B:GLU:543:OE1:9881, H-B:ALA:541:N:9863, V-A:TYR:484:CZ:4347, V-B:GLU:543:CA:9876, H-A:GLY:454:N:4050, V-B:HIS:456:CE1:9041, V-A:HIS:456:CE1:4070, V-A:ILE:369:CD1:3239, V-B:TYR:539:CD2:9846, V-B:GLU:543:CD:9880, H-A:LYS:547:NZ:4951, H-A:ARG:545:NH2:4928, V-A:LEU:475:CD2:4259, V-A:GLU:543:CB:4906, H-B:GLU:543:OE2:9882, V-A:LYS:547:CE:4950, H-B:TYR:539:O:9840, H-A:ARG:545:NE:4924, H-A:GLY:544:N:4915, H-A:GLY:544:O:4913, H-A:TYR:484:OH:4348, H-A:GLU:543:O:4903"]

$$$$
ZINC14445077-again1
     RDKit          3D

 33 34  0  0  0  0  0  0  0  0999 V2000
  125.9820  133.2270   62.5010 C   0  0  0  0  0  0  0  0  0  0  0  0
  127.3680  132.8250   62.0130 C   0  0  0  0  0  0  0  0  0  0  0  0
  127.7460  132.8570   60.7190 C   0  0  0  0  0  0  0  0  0  0  0  0
  129.0920  132.4800   60.2010 C   0  0  0  0  0  0  0  0  0  0  0  0
  129.3200  132.3950   58.8110 C   0  0  0  0  0  0  0  0  0  0  0  0
  128.2070  132.6330   57.7650 C   0  0  0  0  0  0  0  0  0  0  0  0
  127.2680  131.4260   57.5360 C   0  0  0  0  0  0  0  0  0  0  0  0
  128.7880  133.1520   56.4370 C   0  0  0  0  0  0  0  0  0  0  0  0
  130.6070  132.1130   58.3570 C   0  0  0  0  0  0  0  0  0  0  0  0
  131.6530  131.8420   59.2350 C   0  0  0  0  0  0  0  0  0  0  0  0
  132.7900  131.5930   58.7060 O   0  0  0  0  0  0  0  0  0  0  0  0
  131.4270  131.8500   60.6310 C   0  0  0  0  0  0  0  0  0  0  0  0
  132.5700  131.4760   61.6040 C   0  0  0  0  0  0  0  0  0  0  0  0
  130.1340  132.1860   61.1250 C   0  0  0  0  0  0  0  0  0  0  0  0
  129.8250  132.2830   62.6160 C   0  0  0  0  0  0  0  0  0  0  0  0
  130.6550  132.2370   63.5270 O   0  0  0  0  0  0  0  0  0  0  0  0
  128.3200  132.4290   63.0550 C   0  0  0  0  0  0  0  0  0  0  0  0
  128.0560  132.2250   64.2420 O   0  0  0  0  0  0  0  0  0  0  0  0
  125.9675  133.2312   63.6009 H   0  0  0  0  0  0  0  0  0  0  0  0
  125.7391  134.2326   62.1272 H   0  0  0  0  0  0  0  0  0  0  0  0
  125.2387  132.5074   62.1272 H   0  0  0  0  0  0  0  0  0  0  0  0
  126.9982  133.1892   59.9838 H   0  0  0  0  0  0  0  0  0  0  0  0
  127.5666  133.4137   58.2014 H   0  0  0  0  0  0  0  0  0  0  0  0
  126.9510  131.0186   58.5074 H   0  0  0  0  0  0  0  0  0  0  0  0
  126.3836  131.7519   56.9689 H   0  0  0  0  0  0  0  0  0  0  0  0
  127.8014  130.6489   56.9689 H   0  0  0  0  0  0  0  0  0  0  0  0
  129.5935  133.8715   56.6455 H   0  0  0  0  0  0  0  0  0  0  0  0
  129.1911  132.3078   55.8584 H   0  0  0  0  0  0  0  0  0  0  0  0
  127.9945  133.6475   55.8584 H   0  0  0  0  0  0  0  0  0  0  0  0
  130.8020  132.1043   57.2745 H   0  0  0  0  0  0  0  0  0  0  0  0
  132.2210  131.5902   62.6409 H   0  0  0  0  0  0  0  0  0  0  0  0
  132.8716  130.4323   61.4315 H   0  0  0  0  0  0  0  0  0  0  0  0
  133.4302  132.1395   61.4315 H   0  0  0  0  0  0  0  0  0  0  0  0
  1  2  1  0
  2  3  2  0
  3  4  1  0
  4  5  2  0
  5  6  1  0
  6  7  1  0
  6  8  1  0
  5  9  1  0
  9 10  2  0
 10 11  1  0
 10 12  1  0
 12 13  1  0
 12 14  2  0
 14 15  1  0
 15 16  2  0
 15 17  1  0
 17 18  2  0
 17  2  1  0
 14  4  1  0
  1 19  1  0
  1 20  1  0
  1 21  1  0
  3 22  1  0
  6 23  1  0
  7 24  1  0
  7 25  1  0
  7 26  1  0
  8 27  1  0
  8 28  1  0
  8 29  1  0
  9 30  1  0
 13 31  1  0
 13 32  1  0
 13 33  1  0
M  CHG  1  11  -1
M  END
>  <Binding energies>  (1) 
[-5.78]

>  <Ligand effiencies>  (1) 
[-0.3211111111111111]

>  <Interactions>  (1) 
["V-A:TYR:539:CD1:4873, V-A:PRO:540:N:4884, V-A:TYR:539:CG:4872, V-A:PRO:540:CB:4885, V-A:PRO:540:CA:4883, V-A:TYR:539:CZ:4877, V-A:ILE:538:C:4858, H-A:ALA:541:N:4891, V-A:ALA:541:CA:4890, V-A:PRO:540:C:4881, V-A:ALA:541:CB:4892, V-A:ILE:538:CA:4860, V-A:TYR:539:CD2:4874, V-A:MET:535:CE:4835, H-B:TYR:484:OH:9319, V-A:TYR:539:CE2:4876, V-B:LEU:475:CD2:9230, V-A:TYR:539:CE1:4875"]

$$$$
ZINC14465246
     RDKit          3D

 59 63  0  0  0  0  0  0  0  0999 V2000
  128.7960  127.1210   63.8590 C   0  0  0  0  0  0  0  0  0  0  0  0
  129.2790  126.1560   64.8580 N   0  0  0  0  0  0  0  0  0  0  0  0
  129.8240  124.9490   64.5230 C   0  0  0  0  0  0  0  0  0  0  0  0
  129.2280  123.8770   64.6290 O   0  0  0  0  0  0  0  0  0  0  0  0
  131.2610  124.9130   64.0560 C   0  0  0  0  0  0  0  0  0  0  0  0
  132.2640  124.8030   65.0250 C   0  0  0  0  0  0  0  0  0  0  0  0
  133.6030  124.7410   64.6530 C   0  0  0  0  0  0  0  0  0  0  0  0
  133.9550  124.7940   63.3100 C   0  0  0  0  0  0  0  0  0  0  0  0
  132.9810  124.9160   62.3130 C   0  0  0  0  0  0  0  0  0  0  0  0
  131.6180  124.9980   62.6910 C   0  0  0  0  0  0  0  0  0  0  0  0
  130.6130  125.1080   61.6890 N   0  0  0  0  0  0  0  0  0  0  0  0
  130.9140  125.0590   60.2450 C   0  0  2  0  0  0  0  0  0  0  0  0
  129.7850  124.4780   59.3950 C   0  0  0  0  0  0  0  0  0  0  0  0
  129.4890  125.0510   58.1540 C   0  0  0  0  0  0  0  0  0  0  0  0
  128.4660  124.5260   57.3670 C   0  0  0  0  0  0  0  0  0  0  0  0
  127.7420  123.4250   57.8200 C   0  0  0  0  0  0  0  0  0  0  0  0
  126.4760  122.7730   56.8460 Cl  0  0  0  0  0  0  0  0  0  0  0  0
  128.0350  122.8420   59.0520 C   0  0  0  0  0  0  0  0  0  0  0  0
  129.0590  123.3660   59.8370 C   0  0  0  0  0  0  0  0  0  0  0  0
  132.2510  124.3170   60.0340 C   0  0  1  0  0  0  0  0  0  0  0  0
  132.8620  124.1790   58.6410 C   0  0  0  0  0  0  0  0  0  0  0  0
  134.3290  123.9770   58.9970 C   0  0  0  0  0  0  0  0  0  0  0  0
  134.5800  124.3750   60.2610 C   0  0  0  0  0  0  0  0  0  0  0  0
  133.3350  125.0190   60.8350 C   0  0  2  0  0  0  0  0  0  0  0  0
  129.0850  126.5820   66.2670 C   0  0  0  0  0  0  0  0  0  0  0  0
  129.8550  125.8280   67.3880 C   0  0  0  0  0  0  0  0  0  0  0  0
  129.4450  126.2260   68.8180 C   0  0  0  0  0  0  0  0  0  0  0  0
  129.3560  127.7480   69.0040 C   0  0  0  0  0  0  0  0  0  0  0  0
  128.3510  128.3610   68.0190 C   0  0  0  0  0  0  0  0  0  0  0  0
  128.6960  128.0630   66.5460 C   0  0  0  0  0  0  0  0  0  0  0  0
  128.3602  127.9916   64.3710 H   0  0  0  0  0  0  0  0  0  0  0  0
  129.6364  127.4486   63.2294 H   0  0  0  0  0  0  0  0  0  0  0  0
  128.0301  126.6446   63.2294 H   0  0  0  0  0  0  0  0  0  0  0  0
  131.9916  124.7652   66.0901 H   0  0  0  0  0  0  0  0  0  0  0  0
  134.3836  124.6500   65.4226 H   0  0  0  0  0  0  0  0  0  0  0  0
  135.0163  124.7392   63.0260 H   0  0  0  0  0  0  0  0  0  0  0  0
  129.6310  125.1270   61.9290 H   0  0  0  0  0  0  0  0  0  0  0  0
  131.0100  126.0949   59.8878 H   0  0  0  0  0  0  0  0  0  0  0  0
  130.0651  125.9180   57.7985 H   0  0  0  0  0  0  0  0  0  0  0  0
  128.2310  124.9787   56.3924 H   0  0  0  0  0  0  0  0  0  0  0  0
  127.4600  121.9722   59.4024 H   0  0  0  0  0  0  0  0  0  0  0  0
  129.2978  122.9049   60.8067 H   0  0  0  0  0  0  0  0  0  0  0  0
  131.9559  123.2996   60.3304 H   0  0  0  0  0  0  0  0  0  0  0  0
  132.4522  123.3118   58.1024 H   0  0  0  0  0  0  0  0  0  0  0  0
  132.6671  125.0285   57.9699 H   0  0  0  0  0  0  0  0  0  0  0  0
  135.0841  123.5614   58.3135 H   0  0  0  0  0  0  0  0  0  0  0  0
  135.5362  124.2516   60.7905 H   0  0  0  0  0  0  0  0  0  0  0  0
  133.4761  126.1075   60.7618 H   0  0  0  0  0  0  0  0  0  0  0  0
  128.0993  126.1108   66.3951 H   0  0  0  0  0  0  0  0  0  0  0  0
  129.6735  124.7501   67.2652 H   0  0  0  0  0  0  0  0  0  0  0  0
  130.9154  126.0988   67.2780 H   0  0  0  0  0  0  0  0  0  0  0  0
  128.4612  125.7859   69.0380 H   0  0  0  0  0  0  0  0  0  0  0  0
  130.2192  125.8509   69.5035 H   0  0  0  0  0  0  0  0  0  0  0  0
  129.0323  127.9671   70.0322 H   0  0  0  0  0  0  0  0  0  0  0  0
  130.3474  128.1846   68.8127 H   0  0  0  0  0  0  0  0  0  0  0  0
  127.3532  127.9517   68.2355 H   0  0  0  0  0  0  0  0  0  0  0  0
  128.3833  129.4526   68.1511 H   0  0  0  0  0  0  0  0  0  0  0  0
  127.8192  128.3110   65.9297 H   0  0  0  0  0  0  0  0  0  0  0  0
  129.5778  128.6725   66.2992 H   0  0  0  0  0  0  0  0  0  0  0  0
  1  2  1  0
  2  3  1  0
  3  4  2  0
  3  5  1  0
  5  6  2  0
  6  7  1  0
  7  8  2  0
  8  9  1  0
  9 10  2  0
 10 11  1  0
 11 12  1  0
 12 13  1  0
 13 14  2  0
 14 15  1  0
 15 16  2  0
 16 17  1  0
 16 18  1  0
 18 19  2  0
 12 20  1  0
 20 21  1  0
 21 22  1  0
 22 23  2  0
 23 24  1  0
  2 25  1  0
 25 26  1  0
 26 27  1  0
 27 28  1  0
 28 29  1  0
 29 30  1  0
 10  5  1  0
 19 13  1  0
 24 20  1  0
 30 25  1  0
 24  9  1  0
  1 31  1  0
  1 32  1  0
  1 33  1  0
  6 34  1  0
  7 35  1  0
  8 36  1  0
 11 37  1  0
 12 38  1  6
 14 39  1  0
 15 40  1  0
 18 41  1  0
 19 42  1  0
 20 43  1  1
 21 44  1  0
 21 45  1  0
 22 46  1  0
 23 47  1  0
 24 48  1  6
 25 49  1  0
 26 50  1  0
 26 51  1  0
 27 52  1  0
 27 53  1  0
 28 54  1  0
 28 55  1  0
 29 56  1  0
 29 57  1  0
 30 58  1  0
 30 59  1  0
M  END
>  <Binding energies>  (1) 
[-8.24]

>  <Ligand effiencies>  (1) 
[-0.2658064516129032]

>  <Interactions>  (1) 
["V-A:ILE:369:CG2:3237, V-A:ASP:366:CA:3210, V-B:PRO:540:CA:9855, V-A:GLY:454:CA:4049, V-B:GLU:543:C:9874, V-A:ILE:369:CB:3236, V-B:GLU:543:CB:9878, V-B:TYR:539:CE2:9848, V-B:GLU:543:CG:9879, V-B:TYR:539:C:9839, V-A:ASP:366:CG:3213, V-B:TYR:539:CZ:9849, V-A:GLU:543:CD:4908, V-B:HIS:456:CE1:9041, V-B:PRO:540:N:9856, V-A:ILE:369:CD1:3239, V-A:HIS:456:CE1:4070, V-A:ASP:366:C:3208, V-B:TYR:539:CD2:9846, V-A:GLU:543:CG:4907, V-B:PRO:540:CD:9859, V-B:GLU:543:CD:9880, V-A:ILE:369:CG1:3238, V-A:ASP:366:CB:3212, V-A:ARG:545:CZ:4926, V-A:GLU:543:CB:4906, V-A:GLY:453:CA:4044"]

$$$$
ZINC14467918
     RDKit          3D

 50 53  0  0  0  0  0  0  0  0999 V2000
  130.6190  127.9430   72.3480 C   0  0  0  0  0  0  0  0  0  0  0  0
  129.4360  128.1870   71.3890 C   0  0  0  0  0  0  0  0  0  0  0  0
  128.2110  127.3340   71.7760 C   0  0  0  0  0  0  0  0  0  0  0  0
  129.8460  127.9380   69.9230 C   0  0  0  0  0  0  0  0  0  0  0  0
  131.0390  127.8050   69.6440 O   0  0  0  0  0  0  0  0  0  0  0  0
  128.8310  127.8630   69.0330 N   0  0  0  0  0  0  0  0  0  0  0  0
  128.8830  127.6590   67.6410 C   0  0  0  0  0  0  0  0  0  0  0  0
  128.2510  128.4760   66.6930 C   0  0  0  0  0  0  0  0  0  0  0  0
  128.3530  128.1790   65.3360 C   0  0  0  0  0  0  0  0  0  0  0  0
  129.0930  127.0750   64.9070 C   0  0  0  0  0  0  0  0  0  0  0  0
  129.7160  126.2240   65.8420 C   0  0  0  0  0  0  0  0  0  0  0  0
  129.5920  126.5390   67.2020 C   0  0  0  0  0  0  0  0  0  0  0  0
  130.5140  124.9940   65.3960 C   0  0  2  0  0  0  0  0  0  0  0  0
  131.9840  125.0780   65.7630 C   0  0  0  0  0  0  0  0  0  0  0  0
  132.7560  125.2930   64.6850 C   0  0  0  0  0  0  0  0  0  0  0  0
  131.9320  125.3520   63.4170 C   0  0  0  0  0  0  0  0  0  0  0  0
  130.5650  124.8160   63.8670 C   0  0  2  0  0  0  0  0  0  0  0  0
  129.3290  125.3890   63.1240 C   0  0  2  0  0  0  0  0  0  0  0  0
  129.3890  125.1330   61.6100 C   0  0  0  0  0  0  0  0  0  0  0  0
  130.4060  125.7090   60.8350 C   0  0  0  0  0  0  0  0  0  0  0  0
  130.4780  125.4750   59.4630 C   0  0  0  0  0  0  0  0  0  0  0  0
  131.7370  126.1950   58.5280 Cl  0  0  0  0  0  0  0  0  0  0  0  0
  129.5350  124.6550   58.8480 C   0  0  0  0  0  0  0  0  0  0  0  0
  128.5200  124.0670   59.6000 C   0  0  0  0  0  0  0  0  0  0  0  0
  127.3690  123.0530   58.7990 Cl  0  0  0  0  0  0  0  0  0  0  0  0
  128.4430  124.3000   60.9810 C   0  0  0  0  0  0  0  0  0  0  0  0
  127.4410  123.7080   61.7110 O   0  0  0  0  0  0  0  0  0  0  0  0
  129.0890  126.7740   63.5340 N   0  0  0  0  0  0  0  0  0  0  0  0
  130.2687  128.0153   73.3882 H   0  0  0  0  0  0  0  0  0  0  0  0
  131.0346  126.9402   72.1699 H   0  0  0  0  0  0  0  0  0  0  0  0
  131.3975  128.6995   72.1699 H   0  0  0  0  0  0  0  0  0  0  0  0
  129.1472  129.2442   71.4831 H   0  0  0  0  0  0  0  0  0  0  0  0
  128.1333  127.2799   72.8719 H   0  0  0  0  0  0  0  0  0  0  0  0
  127.2997  127.7939   71.3661 H   0  0  0  0  0  0  0  0  0  0  0  0
  128.3262  126.3198   71.3661 H   0  0  0  0  0  0  0  0  0  0  0  0
  127.8980  127.9050   69.4150 H   0  0  0  0  0  0  0  0  0  0  0  0
  127.6737  129.3529   67.0214 H   0  0  0  0  0  0  0  0  0  0  0  0
  127.8473  128.8182   64.5973 H   0  0  0  0  0  0  0  0  0  0  0  0
  130.0678  125.8838   67.9465 H   0  0  0  0  0  0  0  0  0  0  0  0
  129.9832  124.1750   65.9034 H   0  0  0  0  0  0  0  0  0  0  0  0
  132.3706  124.9753   66.7877 H   0  0  0  0  0  0  0  0  0  0  0  0
  133.8491  125.4112   64.7195 H   0  0  0  0  0  0  0  0  0  0  0  0
  131.8493  126.3846   63.0471 H   0  0  0  0  0  0  0  0  0  0  0  0
  132.3710  124.7774   62.5880 H   0  0  0  0  0  0  0  0  0  0  0  0
  130.4880  123.7553   63.5860 H   0  0  0  0  0  0  0  0  0  0  0  0
  128.4268  124.8382   63.4282 H   0  0  0  0  0  0  0  0  0  0  0  0
  131.1564  126.3536   61.3161 H   0  0  0  0  0  0  0  0  0  0  0  0
  129.5917  124.4710   57.7650 H   0  0  0  0  0  0  0  0  0  0  0  0
  126.8990  124.3480   62.1800 H   0  0  0  0  0  0  0  0  0  0  0  0
  128.6050  127.3580   62.8650 H   0  0  0  0  0  0  0  0  0  0  0  0
  1  2  1  0
  2  3  1  0
  2  4  1  0
  4  5  2  0
  4  6  1  0
  6  7  1  0
  7  8  2  0
  8  9  1  0
  9 10  2  0
 10 11  1  0
 11 12  2  0
 11 13  1  0
 13 14  1  0
 14 15  2  0
 15 16  1  0
 16 17  1  0
 17 18  1  0
 18 19  1  0
 19 20  2  0
 20 21  1  0
 21 22  1  0
 21 23  2  0
 23 24  1  0
 24 25  1  0
 24 26  2  0
 26 27  1  0
 18 28  1  0
 12  7  1  0
 17 13  1  0
 26 19  1  0
 28 10  1  0
  1 29  1  0
  1 30  1  0
  1 31  1  0
  2 32  1  0
  3 33  1  0
  3 34  1  0
  3 35  1  0
  6 36  1  0
  8 37  1  0
  9 38  1  0
 12 39  1  0
 13 40  1  1
 14 41  1  0
 15 42  1  0
 16 43  1  0
 16 44  1  0
 17 45  1  1
 18 46  1  1
 20 47  1  0
 23 48  1  0
 27 49  1  0
 28 50  1  0
M  END
>  <Binding energies>  (1) 
[-7.34]

>  <Ligand effiencies>  (1) 
[-0.23677419354838708]

>  <Interactions>  (1) 
["V-B:PRO:540:CA:9855, V-B:HIS:456:CD2:9039, V-A:GLU:543:C:4902, V-B:GLU:543:CB:9878, V-B:TYR:539:CE2:9848, V-A:GLY:544:C:4912, V-B:GLU:543:CG:9879, V-B:TYR:539:C:9839, V-A:ASP:366:CG:3213, V-B:TYR:539:CZ:9849, H-B:GLU:543:OE1:9881, V-A:GLU:543:CD:4908, V-A:TYR:484:CZ:4347, V-B:PRO:540:CB:9857, V-B:HIS:456:CE1:9041, V-B:PRO:540:N:9856, V-A:HIS:456:CE1:4070, H-B:HIS:456:NE2:9042, V-A:GLU:543:CG:4907, V-B:GLU:543:CD:9880, V-A:ASP:366:CB:3212, V-A:ARG:545:CZ:4926, H-A:GLU:543:OE1:4909, V-A:GLU:543:CB:4906"]

$$$$
ZINC145772661
     RDKit          3D

 58 58  0  0  0  0  0  0  0  0999 V2000
  128.7370  128.7590   68.3080 C   0  0  0  0  0  0  0  0  0  0  0  0
  129.2070  127.3150   68.2420 C   0  0  0  0  0  0  0  0  0  0  0  0
  129.1790  126.6140   69.6030 C   0  0  0  0  0  0  0  0  0  0  0  0
  129.5690  126.8200   67.1210 N   0  0  0  0  0  0  0  0  0  0  0  0
  129.9800  125.4690   67.2160 O   0  0  0  0  0  0  0  0  0  0  0  0
  129.9980  124.8320   66.0130 C   0  0  0  0  0  0  0  0  0  0  0  0
  129.5690  123.6950   65.7870 O   0  0  0  0  0  0  0  0  0  0  0  0
  130.5730  125.6830   65.0810 N   0  0  0  0  0  0  0  0  0  0  0  0
  130.7730  125.3290   63.6710 C   0  0  0  0  0  0  0  0  0  0  0  0
  132.0540  124.4830   63.3920 C   0  0  1  0  0  0  0  0  0  0  0  0
  133.2150  124.9410   64.3220 C   0  0  0  0  0  0  0  0  0  0  0  0
  131.8130  122.9610   63.6600 C   0  0  0  0  0  0  0  0  0  0  0  0
  131.0570  122.1810   62.5660 C   0  0  1  0  0  0  0  0  0  0  0  0
  129.6590  122.5970   62.4640 N   0  0  0  0  0  0  0  0  0  0  0  0
  128.7270  121.9780   61.6450 C   0  0  0  0  0  0  0  0  0  0  0  0
  128.9230  120.9720   60.9540 O   0  0  0  0  0  0  0  0  0  0  0  0
  127.5690  122.6810   61.7200 O   0  0  0  0  0  0  0  0  0  0  0  0
  127.7660  124.0750   61.5880 N   0  0  0  0  0  0  0  0  0  0  0  0
  126.8560  124.6460   60.8930 C   0  0  0  0  0  0  0  0  0  0  0  0
  126.9230  126.1430   60.6530 C   0  0  0  0  0  0  0  0  0  0  0  0
  125.6360  123.9860   60.2420 C   0  0  0  0  0  0  0  0  0  0  0  0
  131.8590  122.3080   61.2500 C   0  0  0  0  0  0  0  0  0  0  0  0
  132.1310  123.7530   60.7350 C   0  0  0  0  0  0  0  0  0  0  0  0
  133.3310  123.6890   59.7510 C   0  0  0  0  0  0  0  0  0  0  0  0
  130.8810  124.2890   59.9950 C   0  0  0  0  0  0  0  0  0  0  0  0
  132.4460  124.7690   61.8940 C   0  0  0  0  0  0  0  0  0  0  0  0
  128.6376  129.0645   69.3600 H   0  0  0  0  0  0  0  0  0  0  0  0
  129.4707  129.4067   67.8059 H   0  0  0  0  0  0  0  0  0  0  0  0
  127.7626  128.8508   67.8059 H   0  0  0  0  0  0  0  0  0  0  0  0
  129.2091  127.3672   70.4041 H   0  0  0  0  0  0  0  0  0  0  0  0
  128.2565  126.0214   69.6913 H   0  0  0  0  0  0  0  0  0  0  0  0
  130.0513  125.9497   69.6913 H   0  0  0  0  0  0  0  0  0  0  0  0
  130.8510  126.6050   65.3820 H   0  0  0  0  0  0  0  0  0  0  0  0
  129.8996  124.7511   63.3346 H   0  0  0  0  0  0  0  0  0  0  0  0
  130.8983  126.2759   63.1253 H   0  0  0  0  0  0  0  0  0  0  0  0
  132.9121  124.8215   65.3727 H   0  0  0  0  0  0  0  0  0  0  0  0
  134.1063  124.3271   64.1253 H   0  0  0  0  0  0  0  0  0  0  0  0
  133.4471  125.9981   64.1253 H   0  0  0  0  0  0  0  0  0  0  0  0
  132.7960  122.4850   63.7910 H   0  0  0  0  0  0  0  0  0  0  0  0
  131.1640  122.9209   64.5472 H   0  0  0  0  0  0  0  0  0  0  0  0
  130.9923  121.1137   62.8243 H   0  0  0  0  0  0  0  0  0  0  0  0
  129.3670  123.4100   62.9880 H   0  0  0  0  0  0  0  0  0  0  0  0
  126.9465  126.6685   61.6191 H   0  0  0  0  0  0  0  0  0  0  0  0
  127.8328  126.3826   60.0830 H   0  0  0  0  0  0  0  0  0  0  0  0
  126.0383  126.4629   60.0830 H   0  0  0  0  0  0  0  0  0  0  0  0
  124.9565  123.6184   61.0251 H   0  0  0  0  0  0  0  0  0  0  0  0
  125.1105  124.7228   59.6168 H   0  0  0  0  0  0  0  0  0  0  0  0
  125.9652  123.1429   59.6168 H   0  0  0  0  0  0  0  0  0  0  0  0
  132.8327  121.8200   61.4043 H   0  0  0  0  0  0  0  0  0  0  0  0
  131.2283  121.8398   60.4799 H   0  0  0  0  0  0  0  0  0  0  0  0
  134.2704  123.6389   60.3211 H   0  0  0  0  0  0  0  0  0  0  0  0
  133.2384  122.7945   59.1175 H   0  0  0  0  0  0  0  0  0  0  0  0
  133.3341  124.5883   59.1175 H   0  0  0  0  0  0  0  0  0  0  0  0
  130.1294  124.6113   60.7307 H   0  0  0  0  0  0  0  0  0  0  0  0
  131.1667  125.1437   59.3643 H   0  0  0  0  0  0  0  0  0  0  0  0
  130.4588  123.4928   59.3643 H   0  0  0  0  0  0  0  0  0  0  0  0
  133.5361  124.9161   61.8850 H   0  0  0  0  0  0  0  0  0  0  0  0
  131.7868  125.6131   61.6429 H   0  0  0  0  0  0  0  0  0  0  0  0
  1  2  1  0
  2  3  1  0
  2  4  2  3
  4  5  1  0
  5  6  1  0
  6  7  2  0
  6  8  1  0
  8  9  1  0
 10  9  1  1
 10 11  1  0
 10 12  1  0
 12 13  1  0
 13 14  1  0
 14 15  1  0
 15 16  2  0
 15 17  1  0
 17 18  1  0
 18 19  2  3
 19 20  1  0
 19 21  1  0
 13 22  1  0
 22 23  1  0
 23 24  1  0
 23 25  1  0
 23 26  1  0
 26 10  1  0
  1 27  1  0
  1 28  1  0
  1 29  1  0
  3 30  1  0
  3 31  1  0
  3 32  1  0
  8 33  1  0
  9 34  1  0
  9 35  1  0
 11 36  1  0
 11 37  1  0
 11 38  1  0
 12 39  1  0
 12 40  1  0
 13 41  1  1
 14 42  1  0
 20 43  1  0
 20 44  1  0
 20 45  1  0
 21 46  1  0
 21 47  1  0
 21 48  1  0
 22 49  1  0
 22 50  1  0
 24 51  1  0
 24 52  1  0
 24 53  1  0
 25 54  1  0
 25 55  1  0
 25 56  1  0
 26 57  1  0
 26 58  1  0
M  END
>  <Binding energies>  (1) 
[-6.46]

>  <Ligand effiencies>  (1) 
[-0.2307142857142857]

>  <Interactions>  (1) 
["V-A:ILE:369:CG2:3237, V-B:PRO:540:CA:9855, V-A:GLU:543:CA:4904, V-B:GLU:543:C:9874, H-A:GLU:543:OE2:4910, V-B:GLU:543:CB:9878, V-B:ALA:541:CB:9864, V-B:TYR:539:CE2:9848, V-A:TYR:484:CE2:4346, V-B:GLU:543:CG:9879, H-B:ALA:541:N:9863, V-A:GLU:543:CD:4908, V-B:PRO:540:CB:9857, V-B:HIS:456:CE1:9041, V-A:HIS:456:CE1:4070, V-A:GLU:543:CG:4907, V-B:GLU:543:CD:9880, V-A:LEU:475:CD2:4259, V-A:ARG:545:CZ:4926, H-A:GLU:543:OE1:4909, V-A:GLU:543:CB:4906, V-B:PRO:540:C:9853, H-A:TYR:484:OH:4348"]

$$$$
ZINC1458122490
     RDKit          3D

 30 31  0  0  0  0  0  0  0  0999 V2000
  127.6050  122.5090   61.8710 N   0  0  0  0  0  0  0  0  0  0  0  0
  128.4930  122.9740   62.4500 C   0  0  0  0  0  0  0  0  0  0  0  0
  129.6060  123.5560   63.1770 C   0  0  0  0  0  0  0  0  0  0  0  0
  129.5730  124.3050   64.3430 C   0  0  0  0  0  0  0  0  0  0  0  0
  130.8440  124.7130   64.7760 C   0  0  0  0  0  0  0  0  0  0  0  0
  131.0440  125.4650   65.9090 N   0  0  0  0  0  0  0  0  0  0  0  0
  130.3430  125.3420   67.1790 C   0  0  0  0  0  0  0  0  0  0  0  0
  129.4760  126.5740   67.4790 C   0  0  0  0  0  0  0  0  0  0  0  0
  129.7050  127.1190   68.8800 C   0  0  0  0  0  0  0  0  0  0  0  0
  130.9150  127.7410   69.2050 C   0  0  0  0  0  0  0  0  0  0  0  0
  131.1250  128.2370   70.4920 C   0  0  0  0  0  0  0  0  0  0  0  0
  130.1270  128.1160   71.4600 C   0  0  0  0  0  0  0  0  0  0  0  0
  130.3410  128.6020   72.7050 F   0  0  0  0  0  0  0  0  0  0  0  0
  128.9160  127.4960   71.1410 C   0  0  0  0  0  0  0  0  0  0  0  0
  127.5440  127.3220   72.4500 Br  0  0  0  0  0  0  0  0  0  0  0  0
  128.7070  126.9990   69.8540 C   0  0  0  0  0  0  0  0  0  0  0  0
  131.8820  124.2780   63.9330 C   0  0  0  0  0  0  0  0  0  0  0  0
  133.3020  124.5010   64.0470 N   0  0  0  0  0  0  0  0  0  0  0  0
  134.0280  124.1040   63.1410 O   0  0  0  0  0  0  0  0  0  0  0  0
  133.7230  125.0780   65.0450 O   0  0  0  0  0  0  0  0  0  0  0  0
  131.2260  123.3520   62.5990 S   0  0  0  0  0  0  0  0  0  0  0  0
  128.6435  124.5546   64.8756 H   0  0  0  0  0  0  0  0  0  0  0  0
  131.7360  126.2030   65.9110 H   0  0  0  0  0  0  0  0  0  0  0  0
  129.6964  124.4528   67.1432 H   0  0  0  0  0  0  0  0  0  0  0  0
  131.0962  125.2542   67.9759 H   0  0  0  0  0  0  0  0  0  0  0  0
  129.7177  127.3616   66.7501 H   0  0  0  0  0  0  0  0  0  0  0  0
  128.4221  126.2669   67.4075 H   0  0  0  0  0  0  0  0  0  0  0  0
  131.7030  127.8393   68.4439 H   0  0  0  0  0  0  0  0  0  0  0  0
  132.0785  128.7241   70.7441 H   0  0  0  0  0  0  0  0  0  0  0  0
  127.7536  126.5107   69.6038 H   0  0  0  0  0  0  0  0  0  0  0  0
  1  2  3  0
  2  3  1  0
  3  4  2  0
  4  5  1  0
  5  6  1  0
  6  7  1  0
  7  8  1  0
  8  9  1  0
  9 10  2  0
 10 11  1  0
 11 12  2  0
 12 13  1  0
 12 14  1  0
 14 15  1  0
 14 16  2  0
  5 17  2  0
 17 18  1  0
 18 19  2  0
 18 20  1  0
 17 21  1  0
 21  3  1  0
 16  9  1  0
  4 22  1  0
  6 23  1  0
  7 24  1  0
  7 25  1  0
  8 26  1  0
  8 27  1  0
 10 28  1  0
 11 29  1  0
 16 30  1  0
M  CHG  2  18   1  20  -1
M  END
>  <Binding energies>  (1) 
[-7.66]

>  <Ligand effiencies>  (1) 
[-0.3481818181818182]

>  <Interactions>  (1) 
["V-A:GLY:454:CA:4049, V-B:HIS:456:CD2:9039, H-A:GLU:543:OE2:4910, V-A:GLU:543:C:4902, V-B:GLU:543:CB:9878, V-B:ALA:541:CB:9864, H-A:ARG:545:NH1:4927, V-A:TYR:484:CE2:4346, V-A:GLY:544:CA:4914, V-B:GLU:543:CG:9879, V-A:GLY:544:C:4912, V-B:LYS:547:CE:9922, H-B:ALA:541:N:9863, V-A:GLU:543:CD:4908, V-A:TYR:484:CZ:4347, V-B:HIS:456:CE1:9041, H-A:GLY:454:N:4050, V-A:HIS:456:CE1:4070, V-B:GLY:544:C:9884, V-B:GLU:543:CD:9880, V-B:HIS:456:CG:9037, H-A:ARG:545:NH2:4928, V-A:ARG:545:CZ:4926, H-A:GLU:543:OE1:4909, V-A:GLU:543:CB:4906, H-A:ARG:545:NE:4924, H-A:TYR:484:OH:4348"]

$$$$
ZINC146064152
     RDKit          3D

 76 78  0  0  0  0  0  0  0  0999 V2000
  129.5770  127.0720   61.0180 C   0  0  0  0  0  0  0  0  0  0  0  0
  129.4250  126.8470   59.5150 C   0  0  0  0  0  0  0  0  0  0  0  0
  129.8740  127.7100   58.5720 C   0  0  0  0  0  0  0  0  0  0  0  0
  130.5230  129.0180   58.6670 C   0  0  0  0  0  0  0  0  0  0  0  0
  129.9230  130.1890   59.1210 C   0  0  0  0  0  0  0  0  0  0  0  0
  131.0750  131.4860   59.0880 S   0  0  0  0  0  0  0  0  0  0  0  0
  132.2560  130.3660   58.4870 C   0  0  0  0  0  0  0  0  0  0  0  0
  133.6820  130.7510   58.1680 C   0  0  0  0  0  0  0  0  0  0  0  0
  131.7960  129.1470   58.3370 N   0  0  0  0  0  0  0  0  0  0  0  0
  128.7560  125.5350   59.0900 C   0  0  2  0  0  0  0  0  0  0  0  0
  127.8270  124.9270   60.1730 C   0  0  0  0  0  0  0  0  0  0  0  0
  127.8410  123.3820   60.2790 C   0  0  2  0  0  0  0  0  0  0  0  0
  126.8170  122.7570   61.0220 O   0  0  0  0  0  0  0  0  0  0  0  0
  128.0960  122.6690   61.5830 C   0  0  1  0  0  0  0  0  0  0  0  0
  128.8150  121.3110   61.4920 C   0  0  0  0  0  0  0  0  0  0  0  0
  128.3190  123.4480   62.9030 C   0  0  0  0  0  0  0  0  0  0  0  0
  129.7130  124.0730   63.0900 C   0  0  0  0  0  0  0  0  0  0  0  0
  129.8420  125.0230   64.3030 C   0  0  0  0  0  0  0  0  0  0  0  0
  130.7260  124.4550   65.4460 C   0  0  2  0  0  0  0  0  0  0  0  0
  130.1700  124.8680   66.8290 C   0  0  0  0  0  0  0  0  0  0  0  0
  132.2440  124.7890   65.3270 C   0  0  2  0  0  0  0  0  0  0  0  0
  132.5790  125.9480   66.0760 O   0  0  0  0  0  0  0  0  0  0  0  0
  132.8450  124.7890   63.8790 C   0  0  2  0  0  0  0  0  0  0  0  0
  132.1110  125.8080   62.9740 C   0  0  0  0  0  0  0  0  0  0  0  0
  132.9060  123.4160   63.1590 C   0  0  0  0  0  0  0  0  0  0  0  0
  132.4620  122.4210   63.7350 O   0  0  0  0  0  0  0  0  0  0  0  0
  133.4070  123.3430   61.6760 C   0  0  0  0  0  0  0  0  0  0  0  0
  134.2080  124.6500   61.4000 C   0  0  0  0  0  0  0  0  0  0  0  0
  134.3520  122.1290   61.4690 C   0  0  0  0  0  0  0  0  0  0  0  0
  132.1960  123.2850   60.6540 C   0  0  1  0  0  0  0  0  0  0  0  0
  131.2120  122.3300   61.0300 O   0  0  0  0  0  0  0  0  0  0  0  0
  131.5150  124.6240   60.2140 C   0  0  0  0  0  0  0  0  0  0  0  0
  131.0700  124.8170   58.7550 C   0  0  0  0  0  0  0  0  0  0  0  0
  131.8420  125.1360   57.8480 O   0  0  0  0  0  0  0  0  0  0  0  0
  129.7390  124.6050   58.6250 O   0  0  0  0  0  0  0  0  0  0  0  0
  129.0422  126.2803   61.5632 H   0  0  0  0  0  0  0  0  0  0  0  0
  130.6434  127.0461   61.2866 H   0  0  0  0  0  0  0  0  0  0  0  0
  129.1549  128.0516   61.2866 H   0  0  0  0  0  0  0  0  0  0  0  0
  129.7219  127.3615   57.5398 H   0  0  0  0  0  0  0  0  0  0  0  0
  128.8774  130.2785   59.4506 H   0  0  0  0  0  0  0  0  0  0  0  0
  134.2394  130.9015   59.1043 H   0  0  0  0  0  0  0  0  0  0  0  0
  134.1564  129.9488   57.5837 H   0  0  0  0  0  0  0  0  0  0  0  0
  133.6882  131.6830   57.5837 H   0  0  0  0  0  0  0  0  0  0  0  0
  128.0821  125.7740   58.2541 H   0  0  0  0  0  0  0  0  0  0  0  0
  128.1318  125.3355   61.1478 H   0  0  0  0  0  0  0  0  0  0  0  0
  126.8030  125.1980   59.8764 H   0  0  0  0  0  0  0  0  0  0  0  0
  128.2727  123.3195   59.2692 H   0  0  0  0  0  0  0  0  0  0  0  0
  129.0150  120.9333   62.5056 H   0  0  0  0  0  0  0  0  0  0  0  0
  128.1782  120.5943   60.9527 H   0  0  0  0  0  0  0  0  0  0  0  0
  129.7657  121.4349   60.9527 H   0  0  0  0  0  0  0  0  0  0  0  0
  127.5779  124.2598   62.9441 H   0  0  0  0  0  0  0  0  0  0  0  0
  128.2169  122.7044   63.7072 H   0  0  0  0  0  0  0  0  0  0  0  0
  130.4395  123.2568   63.2162 H   0  0  0  0  0  0  0  0  0  0  0  0
  129.8990  124.6864   62.1960 H   0  0  0  0  0  0  0  0  0  0  0  0
  130.2848  125.9691   63.9582 H   0  0  0  0  0  0  0  0  0  0  0  0
  128.8311  125.1598   64.7146 H   0  0  0  0  0  0  0  0  0  0  0  0
  130.6680  123.3616   65.3407 H   0  0  0  0  0  0  0  0  0  0  0  0
  130.7826  124.4130   67.6212 H   0  0  0  0  0  0  0  0  0  0  0  0
  130.2016  125.9634   66.9247 H   0  0  0  0  0  0  0  0  0  0  0  0
  129.1304  124.5214   66.9247 H   0  0  0  0  0  0  0  0  0  0  0  0
  132.7516  123.9272   65.7849 H   0  0  0  0  0  0  0  0  0  0  0  0
  131.8500  126.5690   66.0180 H   0  0  0  0  0  0  0  0  0  0  0  0
  133.8938  125.0795   64.0393 H   0  0  0  0  0  0  0  0  0  0  0  0
  131.5828  126.5414   63.6010 H   0  0  0  0  0  0  0  0  0  0  0  0
  132.8431  126.3283   62.3389 H   0  0  0  0  0  0  0  0  0  0  0  0
  131.3856  125.2784   62.3389 H   0  0  0  0  0  0  0  0  0  0  0  0
  134.4926  125.1144   62.3557 H   0  0  0  0  0  0  0  0  0  0  0  0
  135.1143  124.4100   60.8247 H   0  0  0  0  0  0  0  0  0  0  0  0
  133.5828  125.3486   60.8247 H   0  0  0  0  0  0  0  0  0  0  0  0
  134.6602  121.7331   62.4479 H   0  0  0  0  0  0  0  0  0  0  0  0
  133.8240  121.3451   60.9062 H   0  0  0  0  0  0  0  0  0  0  0  0
  135.2415  122.4485   60.9062 H   0  0  0  0  0  0  0  0  0  0  0  0
  132.7232  122.9653   59.7430 H   0  0  0  0  0  0  0  0  0  0  0  0
  131.3800  122.0600   61.9350 H   0  0  0  0  0  0  0  0  0  0  0  0
  130.6173  124.7438   60.8383 H   0  0  0  0  0  0  0  0  0  0  0  0
  132.3172  125.3670   60.3340 H   0  0  0  0  0  0  0  0  0  0  0  0
  1  2  1  0
  2  3  2  0
  3  4  1  0
  4  5  2  0
  5  6  1  0
  6  7  1  0
  7  8  1  0
  7  9  2  0
  2 10  1  0
 10 11  1  0
 11 12  1  0
 12 13  1  0
 13 14  1  0
 14 15  1  6
 14 16  1  0
 16 17  1  0
 17 18  1  0
 18 19  1  0
 19 20  1  0
 19 21  1  0
 21 22  1  0
 21 23  1  0
 23 24  1  0
 23 25  1  0
 25 26  2  0
 25 27  1  0
 27 28  1  0
 27 29  1  0
 27 30  1  0
 30 31  1  0
 30 32  1  0
 32 33  1  0
 33 34  2  0
 33 35  1  0
  9  4  1  0
 35 10  1  0
 14 12  1  0
  1 36  1  0
  1 37  1  0
  1 38  1  0
  3 39  1  0
  5 40  1  0
  8 41  1  0
  8 42  1  0
  8 43  1  0
 10 44  1  6
 11 45  1  0
 11 46  1  0
 12 47  1  6
 15 48  1  0
 15 49  1  0
 15 50  1  0
 16 51  1  0
 16 52  1  0
 17 53  1  0
 17 54  1  0
 18 55  1  0
 18 56  1  0
 19 57  1  1
 20 58  1  0
 20 59  1  0
 20 60  1  0
 21 61  1  1
 22 62  1  0
 23 63  1  1
 24 64  1  0
 24 65  1  0
 24 66  1  0
 28 67  1  0
 28 68  1  0
 28 69  1  0
 29 70  1  0
 29 71  1  0
 29 72  1  0
 30 73  1  6
 31 74  1  0
 32 75  1  0
 32 76  1  0
M  END
>  <Binding energies>  (1) 
[-3.71]

>  <Ligand effiencies>  (1) 
[-0.09512820512820512]

>  <Interactions>  (1) 
["V-A:ILE:369:CG2:3237, V-B:PRO:540:CA:9855, V-A:GLY:454:CA:4049, H-A:GLU:543:OE2:4910, V-B:GLU:543:CB:9878, V-B:ALA:541:CB:9864, H-A:TYR:531:OH:4795, V-B:TYR:539:CE2:9848, V-A:TYR:484:CE2:4346, V-B:GLU:543:CG:9879, V-B:TYR:539:C:9839, V-A:ASP:366:CG:3213, V-A:LEU:363:CB:3187, V-A:LEU:363:CD1:3189, V-A:LEU:363:CG:3188, V-B:TYR:539:CZ:9849, V-A:TYR:531:CE2:4793, H-B:TYR:539:OH:9850, H-B:ALA:541:N:9863, V-A:TYR:484:CZ:4347, V-A:SER:385:C:3405, V-A:ILE:369:CD1:3239, V-A:HIS:456:CE1:4070, V-B:GLU:543:CD:9880, V-A:ASP:366:CB:3212, V-A:LEU:475:CD2:4259, H-A:ARG:545:NH2:4928, V-A:ARG:545:CZ:4926, H-A:GLU:543:OE1:4909, V-A:PRO:540:CB:4885, V-A:PRO:540:CA:4883, V-A:LEU:363:CA:3185, H-A:ARG:545:NE:4924, V-B:PRO:540:C:9853, V-B:ALA:541:CA:9862, H-A:TYR:484:OH:4348"]

$$$$
ZINC14619276
     RDKit          3D

 36 38  0  0  0  0  0  0  0  0999 V2000
  128.1870  130.7210   57.8930 C   0  0  0  0  0  0  0  0  0  0  0  0
  129.1160  131.9610   57.9010 C   0  0  0  0  0  0  0  0  0  0  0  0
  129.4740  132.3560   56.4380 C   0  0  0  0  0  0  0  0  0  0  0  0
  128.3770  133.1990   58.4930 C   0  0  0  0  0  0  0  0  0  0  0  0
  128.1470  133.1610   60.0070 C   0  0  0  0  0  0  0  0  0  0  0  0
  129.4730  132.9590   60.7480 C   0  0  0  0  0  0  0  0  0  0  0  0
  130.2580  131.6870   60.3200 C   0  0  1  0  0  0  0  0  0  0  0  0
  129.5580  130.3940   60.8210 C   0  0  0  0  0  0  0  0  0  0  0  0
  130.4040  131.6730   58.7520 C   0  0  0  0  0  0  0  0  0  0  0  0
  131.6110  131.4190   58.1710 C   0  0  0  0  0  0  0  0  0  0  0  0
  132.8830  131.2050   58.8570 C   0  0  0  0  0  0  0  0  0  0  0  0
  133.9180  130.8880   58.2730 O   0  0  0  0  0  0  0  0  0  0  0  0
  132.8090  131.4520   60.2910 C   0  0  0  0  0  0  0  0  0  0  0  0
  131.6690  131.6810   60.9580 C   0  0  0  0  0  0  0  0  0  0  0  0
  132.0190  131.8500   62.3680 C   0  0  0  0  0  0  0  0  0  0  0  0
  131.2560  132.0680   63.3070 O   0  0  0  0  0  0  0  0  0  0  0  0
  133.3510  131.7250   62.4950 O   0  0  0  0  0  0  0  0  0  0  0  0
  133.9630  131.4760   61.2490 C   0  0  0  0  0  0  0  0  0  0  0  0
  127.9639  130.4233   58.9282 H   0  0  0  0  0  0  0  0  0  0  0  0
  127.2500  130.9682   57.3726 H   0  0  0  0  0  0  0  0  0  0  0  0
  128.6876  129.8912   57.3726 H   0  0  0  0  0  0  0  0  0  0  0  0
  130.2127  133.1710   56.4486 H   0  0  0  0  0  0  0  0  0  0  0  0
  129.8966  131.4849   55.9160 H   0  0  0  0  0  0  0  0  0  0  0  0
  128.5656  132.6912   55.9160 H   0  0  0  0  0  0  0  0  0  0  0  0
  128.9739  134.0937   58.2622 H   0  0  0  0  0  0  0  0  0  0  0  0
  127.3777  133.2056   58.0333 H   0  0  0  0  0  0  0  0  0  0  0  0
  127.6943  134.1107   60.3280 H   0  0  0  0  0  0  0  0  0  0  0  0
  127.4767  132.3215   60.2434 H   0  0  0  0  0  0  0  0  0  0  0  0
  130.1097  133.8362   60.5602 H   0  0  0  0  0  0  0  0  0  0  0  0
  129.2232  132.8319   61.8117 H   0  0  0  0  0  0  0  0  0  0  0  0
  129.5520  130.3829   61.9209 H   0  0  0  0  0  0  0  0  0  0  0  0
  128.5233  130.3693   60.4484 H   0  0  0  0  0  0  0  0  0  0  0  0
  130.1030  129.5141   60.4484 H   0  0  0  0  0  0  0  0  0  0  0  0
  131.6289  131.3702   57.0722 H   0  0  0  0  0  0  0  0  0  0  0  0
  134.6712  132.2774   60.9916 H   0  0  0  0  0  0  0  0  0  0  0  0
  134.5488  130.5450   61.2377 H   0  0  0  0  0  0  0  0  0  0  0  0
  1  2  1  0
  2  3  1  0
  2  4  1  0
  4  5  1  0
  5  6  1  0
  6  7  1  0
  7  8  1  1
  7  9  1  0
  9 10  2  0
 10 11  1  0
 11 12  2  0
 11 13  1  0
 13 14  2  0
 14 15  1  0
 15 16  2  0
 15 17  1  0
 17 18  1  0
  9  2  1  0
 18 13  1  0
 14  7  1  0
  1 19  1  0
  1 20  1  0
  1 21  1  0
  3 22  1  0
  3 23  1  0
  3 24  1  0
  4 25  1  0
  4 26  1  0
  5 27  1  0
  5 28  1  0
  6 29  1  0
  6 30  1  0
  8 31  1  0
  8 32  1  0
  8 33  1  0
 10 34  1  0
 18 35  1  0
 18 36  1  0
M  END
>  <Binding energies>  (1) 
[-6.78]

>  <Ligand effiencies>  (1) 
[-0.3766666666666667]

>  <Interactions>  (1) 
["V-A:TYR:539:CD1:4873, V-A:PRO:540:N:4884, V-A:TYR:539:CG:4872, V-A:PRO:540:CB:4885, V-A:PRO:540:CA:4883, V-A:LEU:363:CA:3185, V-A:LEU:363:CD1:3189, H-A:ALA:541:N:4891, V-A:ASN:362:CA:3174, V-A:PRO:540:C:4881, V-A:GLU:543:CG:4907, V-A:MET:535:CE:4835, V-A:GLU:543:CD:4908, V-A:TYR:539:C:4867, V-A:ASN:362:C:3172, V-A:TYR:539:CE1:4875, V-A:ASP:366:CG:3213, V-A:ASN:362:CB:3176"]

$$$$
ZINC1461980
     RDKit          3D

 35 38  0  0  0  0  0  0  0  0999 V2000
  129.8380  126.0680   67.5830 I   0  0  0  0  0  0  0  0  0  0  0  0
  131.0450  125.3420   66.0360 C   0  0  0  0  0  0  0  0  0  0  0  0
  132.4290  125.4770   66.1090 C   0  0  0  0  0  0  0  0  0  0  0  0
  133.2310  124.9980   65.0750 C   0  0  0  0  0  0  0  0  0  0  0  0
  132.6530  124.3890   63.9590 C   0  0  0  0  0  0  0  0  0  0  0  0
  131.2480  124.2270   63.8850 C   0  0  0  0  0  0  0  0  0  0  0  0
  130.4610  124.7220   64.9320 C   0  0  0  0  0  0  0  0  0  0  0  0
  130.6540  123.5510   62.6550 C   0  0  2  0  0  0  0  0  0  0  0  0
  129.3760  122.7400   62.7360 C   0  0  0  0  0  0  0  0  0  0  0  0
  129.4570  121.6780   61.9070 C   0  0  0  0  0  0  0  0  0  0  0  0
  130.8380  121.5720   61.2750 C   0  0  0  0  0  0  0  0  0  0  0  0
  131.6350  122.4810   62.2060 C   0  0  1  0  0  0  0  0  0  0  0  0
  133.0000  123.0980   61.8050 C   0  0  1  0  0  0  0  0  0  0  0  0
  132.9570  123.8580   60.4730 C   0  0  0  0  0  0  0  0  0  0  0  0
  133.9670  123.6480   59.5250 C   0  0  0  0  0  0  0  0  0  0  0  0
  133.9140  124.3430   58.3150 C   0  0  0  0  0  0  0  0  0  0  0  0
  132.9250  125.2200   58.0100 N   0  0  0  0  0  0  0  0  0  0  0  0
  131.9510  125.4190   58.9340 C   0  0  0  0  0  0  0  0  0  0  0  0
  131.9300  124.7650   60.1670 C   0  0  0  0  0  0  0  0  0  0  0  0
  133.5130  123.8900   62.9460 N   0  0  0  0  0  0  0  0  0  0  0  0
  132.8891  125.9617   66.9827 H   0  0  0  0  0  0  0  0  0  0  0  0
  134.3244  125.1000   65.1381 H   0  0  0  0  0  0  0  0  0  0  0  0
  129.3668  124.6203   64.8829 H   0  0  0  0  0  0  0  0  0  0  0  0
  130.4414  124.4310   62.0301 H   0  0  0  0  0  0  0  0  0  0  0  0
  128.5129  122.9806   63.3741 H   0  0  0  0  0  0  0  0  0  0  0  0
  128.6307  120.9784   61.7128 H   0  0  0  0  0  0  0  0  0  0  0  0
  131.2157  120.5390   61.2934 H   0  0  0  0  0  0  0  0  0  0  0  0
  130.8803  121.8513   60.2119 H   0  0  0  0  0  0  0  0  0  0  0  0
  132.0223  121.7994   62.9777 H   0  0  0  0  0  0  0  0  0  0  0  0
  133.7177  122.2901   61.5994 H   0  0  0  0  0  0  0  0  0  0  0  0
  134.7890  122.9465   59.7307 H   0  0  0  0  0  0  0  0  0  0  0  0
  134.7103  124.1716   57.5757 H   0  0  0  0  0  0  0  0  0  0  0  0
  131.1422  126.1271   58.7009 H   0  0  0  0  0  0  0  0  0  0  0  0
  131.1214  124.9573   60.8876 H   0  0  0  0  0  0  0  0  0  0  0  0
  134.5110  123.8430   63.0940 H   0  0  0  0  0  0  0  0  0  0  0  0
  1  2  1  0
  2  3  2  0
  3  4  1  0
  4  5  2  0
  5  6  1  0
  6  7  2  0
  6  8  1  0
  8  9  1  0
  9 10  2  0
 10 11  1  0
 11 12  1  0
 12 13  1  0
 13 14  1  0
 14 15  2  0
 15 16  1  0
 16 17  2  0
 17 18  1  0
 18 19  2  0
 13 20  1  0
  7  2  1  0
 12  8  1  0
 19 14  1  0
 20  5  1  0
  3 21  1  0
  4 22  1  0
  7 23  1  0
  8 24  1  6
  9 25  1  0
 10 26  1  0
 11 27  1  0
 11 28  1  0
 12 29  1  1
 13 30  1  6
 15 31  1  0
 16 32  1  0
 18 33  1  0
 19 34  1  0
 20 35  1  0
M  END
>  <Binding energies>  (1) 
[-6.81]

>  <Ligand effiencies>  (1) 
[-0.3242857142857143]

>  <Interactions>  (1) 
["V-A:ILE:369:CG2:3237, V-A:ASP:366:CA:3210, V-A:GLY:454:CA:4049, V-A:ILE:369:CB:3236, V-B:GLU:543:CB:9878, V-B:ALA:541:CB:9864, V-B:TYR:539:CE2:9848, V-B:GLU:543:CG:9879, V-A:ASP:366:CG:3213, H-B:TYR:539:OH:9850, V-A:TYR:484:CZ:4347, V-A:ARG:545:CG:4922, V-A:HIS:456:CE1:4070, V-A:ILE:369:CD1:3239, V-A:ASP:366:C:3208, V-B:TYR:539:CD2:9846, V-A:ASP:366:CB:3212, V-A:ARG:545:CD:4923, V-A:LEU:475:CD2:4259, V-A:ARG:545:CZ:4926"]

$$$$
ZINC1464590
     RDKit          3D

 57 61  0  0  0  0  0  0  0  0999 V2000
  131.9400  124.3580   59.0110 C   0  0  0  0  0  0  0  0  0  0  0  0
  132.8670  124.4490   60.2190 C   0  0  0  0  0  0  0  0  0  0  0  0
  134.2060  124.5650   60.0230 C   0  0  0  0  0  0  0  0  0  0  0  0
  135.1210  124.6710   61.1450 C   0  0  0  0  0  0  0  0  0  0  0  0
  134.5890  124.6600   62.3820 C   0  0  0  0  0  0  0  0  0  0  0  0
  133.2300  124.5530   62.6640 N   0  0  0  0  0  0  0  0  0  0  0  0
  132.8310  124.5670   63.9890 C   0  0  0  0  0  0  0  0  0  0  0  0
  133.5980  124.6500   64.9570 O   0  0  0  0  0  0  0  0  0  0  0  0
  131.3790  124.4760   64.1780 C   0  0  0  0  0  0  0  0  0  0  0  0
  130.8510  124.5180   65.5400 C   0  0  0  0  0  0  0  0  0  0  0  0
  130.0590  125.5100   66.0040 C   0  0  0  0  0  0  0  0  0  0  0  0
  129.4800  126.9340   65.1420 S   0  0  0  0  0  0  0  0  0  0  0  0
  128.5710  127.4740   66.5230 C   0  0  0  0  0  0  0  0  0  0  0  0
  127.6570  128.8650   66.4150 S   0  0  0  0  0  0  0  0  0  0  0  0
  128.7740  126.6050   67.5630 N   0  0  0  0  0  0  0  0  0  0  0  0
  128.0730  126.7780   68.8580 C   0  0  0  0  0  0  0  0  0  0  0  0
  128.9950  127.2510   69.9680 C   0  0  0  0  0  0  0  0  0  0  0  0
  130.2250  127.8920   69.9880 C   0  0  0  0  0  0  0  0  0  0  0  0
  130.5620  128.0900   71.3280 C   0  0  0  0  0  0  0  0  0  0  0  0
  129.5190  127.5640   72.0700 C   0  0  0  0  0  0  0  0  0  0  0  0
  128.5680  127.0570   71.2450 O   0  0  0  0  0  0  0  0  0  0  0  0
  129.5410  125.5030   67.3540 C   0  0  0  0  0  0  0  0  0  0  0  0
  129.7550  124.6270   68.1980 O   0  0  0  0  0  0  0  0  0  0  0  0
  130.5750  124.3450   63.0860 C   0  0  0  0  0  0  0  0  0  0  0  0
  129.1960  124.2350   63.1660 N   0  0  0  0  0  0  0  0  0  0  0  0
  128.5700  122.9570   63.5040 C   0  0  0  0  0  0  0  0  0  0  0  0
  128.3380  125.1150   62.3650 C   0  0  0  0  0  0  0  0  0  0  0  0
  127.7680  124.4110   61.1390 C   0  0  0  0  0  0  0  0  0  0  0  0
  128.6090  123.6750   60.2990 C   0  0  0  0  0  0  0  0  0  0  0  0
  128.0920  123.0710   59.1570 C   0  0  0  0  0  0  0  0  0  0  0  0
  126.7370  123.2080   58.8560 C   0  0  0  0  0  0  0  0  0  0  0  0
  125.8960  123.9440   59.6860 C   0  0  0  0  0  0  0  0  0  0  0  0
  126.4120  124.5460   60.8300 C   0  0  0  0  0  0  0  0  0  0  0  0
  131.0650  124.3090   61.8100 N   0  0  0  0  0  0  0  0  0  0  0  0
  132.3280  124.4320   61.5870 C   0  0  0  0  0  0  0  0  0  0  0  0
  130.8998  124.2559   59.3539 H   0  0  0  0  0  0  0  0  0  0  0  0
  132.0381  125.2701   58.4040 H   0  0  0  0  0  0  0  0  0  0  0  0
  132.2136  123.4824   58.4040 H   0  0  0  0  0  0  0  0  0  0  0  0
  134.6035  124.5788   58.9974 H   0  0  0  0  0  0  0  0  0  0  0  0
  136.2067  124.7570   60.9907 H   0  0  0  0  0  0  0  0  0  0  0  0
  135.2803  124.7417   63.2337 H   0  0  0  0  0  0  0  0  0  0  0  0
  131.1124  123.6977   66.2247 H   0  0  0  0  0  0  0  0  0  0  0  0
  127.2712  127.5197   68.7272 H   0  0  0  0  0  0  0  0  0  0  0  0
  127.6761  125.7956   69.1534 H   0  0  0  0  0  0  0  0  0  0  0  0
  130.8221  128.1883   69.1130 H   0  0  0  0  0  0  0  0  0  0  0  0
  131.4735  128.5681   71.7162 H   0  0  0  0  0  0  0  0  0  0  0  0
  129.4681  127.5577   73.1688 H   0  0  0  0  0  0  0  0  0  0  0  0
  128.5185  122.8519   64.5978 H   0  0  0  0  0  0  0  0  0  0  0  0
  127.5538  122.9241   63.0842 H   0  0  0  0  0  0  0  0  0  0  0  0
  129.1669  122.1339   63.0842 H   0  0  0  0  0  0  0  0  0  0  0  0
  127.5041  125.4623   62.9926 H   0  0  0  0  0  0  0  0  0  0  0  0
  128.9544  125.9554   62.0132 H   0  0  0  0  0  0  0  0  0  0  0  0
  129.6774  123.5736   60.5404 H   0  0  0  0  0  0  0  0  0  0  0  0
  128.7489  122.4881   58.4946 H   0  0  0  0  0  0  0  0  0  0  0  0
  126.3287  122.7296   57.9535 H   0  0  0  0  0  0  0  0  0  0  0  0
  124.8293  124.0493   59.4391 H   0  0  0  0  0  0  0  0  0  0  0  0
  125.7525  125.1279   61.4907 H   0  0  0  0  0  0  0  0  0  0  0  0
  1  2  1  0
  2  3  2  0
  3  4  1  0
  4  5  2  0
  5  6  1  0
  6  7  1  0
  7  8  2  0
  7  9  1  0
  9 10  1  0
 10 11  2  0
 11 12  1  0
 12 13  1  0
 13 14  2  0
 13 15  1  0
 15 16  1  0
 16 17  1  0
 17 18  2  0
 18 19  1  0
 19 20  2  0
 20 21  1  0
 15 22  1  0
 22 23  2  0
  9 24  2  0
 24 25  1  0
 25 26  1  0
 25 27  1  0
 27 28  1  0
 28 29  2  0
 29 30  1  0
 30 31  2  0
 31 32  1  0
 32 33  2  0
 24 34  1  0
 34 35  2  0
 35  2  1  0
 35  6  1  0
 22 11  1  0
 33 28  1  0
 21 17  1  0
  1 36  1  0
  1 37  1  0
  1 38  1  0
  3 39  1  0
  4 40  1  0
  5 41  1  0
 10 42  1  0
 16 43  1  0
 16 44  1  0
 18 45  1  0
 19 46  1  0
 20 47  1  0
 26 48  1  0
 26 49  1  0
 26 50  1  0
 27 51  1  0
 27 52  1  0
 29 53  1  0
 30 54  1  0
 31 55  1  0
 32 56  1  0
 33 57  1  0
M  END
>  <Binding energies>  (1) 
[-7.85]

>  <Ligand effiencies>  (1) 
[-0.22428571428571428]

>  <Interactions>  (1) 
["V-A:ILE:369:CG2:3237, V-A:ASP:366:CA:3210, V-B:PRO:540:CA:9855, V-B:GLU:543:C:9874, V-A:ILE:369:CB:3236, V-A:GLU:543:C:4902, V-B:GLU:543:CB:9878, V-B:ALA:541:CB:9864, V-B:TYR:539:CE2:9848, V-A:TYR:484:CE2:4346, V-B:GLU:543:CG:9879, V-A:GLY:544:C:4912, V-A:ASP:366:CG:3213, V-B:TYR:539:CZ:9849, V-A:TYR:484:CZ:4347, V-B:PRO:540:CB:9857, V-A:GLU:543:CD:4908, V-B:GLU:543:CA:9876, H-A:GLY:454:N:4050, V-B:HIS:456:CE1:9041, V-A:GLY:453:C:4042, V-B:PRO:540:N:9856, V-A:ILE:369:CD1:3239, V-A:HIS:456:CE1:4070, V-B:TYR:539:CD2:9846, V-B:GLU:543:CD:9880, V-A:ASP:366:CB:3212, H-A:ARG:545:NH2:4928, V-A:ARG:545:CZ:4926, V-A:GLU:543:CB:4906, V-A:GLY:453:CA:4044, H-A:ARG:545:NE:4924, H-A:TYR:484:OH:4348"]

$$$$
ZINC14687137
     RDKit          3D

 37 38  0  0  0  0  0  0  0  0999 V2000
  131.8040  132.0700   57.8420 C   0  0  0  0  0  0  0  0  0  0  0  0
  130.4620  132.6790   58.2300 C   0  0  0  0  0  0  0  0  0  0  0  0
  129.8640  133.4340   57.4610 O   0  0  0  0  0  0  0  0  0  0  0  0
  130.0610  132.2820   59.4720 O   0  0  0  0  0  0  0  0  0  0  0  0
  130.5230  131.0370   59.9300 C   0  0  2  0  0  0  0  0  0  0  0  0
  129.4930  130.0640   59.8900 O   0  0  0  0  0  0  0  0  0  0  0  0
  128.9520  129.5830   61.1280 C   0  0  0  0  0  0  0  0  0  0  0  0
  128.7720  130.6700   62.2040 C   0  0  2  0  0  0  0  0  0  0  0  0
  127.8410  131.6320   61.7440 O   0  0  0  0  0  0  0  0  0  0  0  0
  128.1870  132.8600   62.2910 C   0  0  0  0  0  0  0  0  0  0  0  0
  127.7250  133.9740   61.3630 C   0  0  0  0  0  0  0  0  0  0  0  0
  127.6040  133.0000   63.7020 C   0  0  0  0  0  0  0  0  0  0  0  0
  129.5750  132.8510   62.3550 O   0  0  0  0  0  0  0  0  0  0  0  0
  130.0380  131.5080   62.4100 C   0  0  2  0  0  0  0  0  0  0  0  0
  131.1280  131.2360   61.3360 C   0  0  2  0  0  0  0  0  0  0  0  0
  132.1240  132.2650   61.3620 O   0  0  0  0  0  0  0  0  0  0  0  0
  133.3190  132.0880   61.9680 C   0  0  0  0  0  0  0  0  0  0  0  0
  133.2240  131.1550   63.1680 C   0  0  0  0  0  0  0  0  0  0  0  0
  134.3910  132.5960   61.6330 O   0  0  0  0  0  0  0  0  0  0  0  0
  132.3673  131.8144   58.7516 H   0  0  0  0  0  0  0  0  0  0  0  0
  131.6355  131.1602   57.2472 H   0  0  0  0  0  0  0  0  0  0  0  0
  132.3778  132.7959   57.2472 H   0  0  0  0  0  0  0  0  0  0  0  0
  131.3109  130.6466   59.2691 H   0  0  0  0  0  0  0  0  0  0  0  0
  127.9688  129.1342   60.9234 H   0  0  0  0  0  0  0  0  0  0  0  0
  129.6765  128.8588   61.5289 H   0  0  0  0  0  0  0  0  0  0  0  0
  128.4783  130.1343   63.1188 H   0  0  0  0  0  0  0  0  0  0  0  0
  127.3714  134.8266   61.9613 H   0  0  0  0  0  0  0  0  0  0  0  0
  128.5644  134.2944   60.7284 H   0  0  0  0  0  0  0  0  0  0  0  0
  126.9052  133.6063   60.7284 H   0  0  0  0  0  0  0  0  0  0  0  0
  128.3927  132.8106   64.4451 H   0  0  0  0  0  0  0  0  0  0  0  0
  127.2102  134.0182   63.8367 H   0  0  0  0  0  0  0  0  0  0  0  0
  126.7908  132.2716   63.8367 H   0  0  0  0  0  0  0  0  0  0  0  0
  130.5339  131.2629   63.3608 H   0  0  0  0  0  0  0  0  0  0  0  0
  131.6225  130.2859   61.5867 H   0  0  0  0  0  0  0  0  0  0  0  0
  133.2839  131.7433   64.0955 H   0  0  0  0  0  0  0  0  0  0  0  0
  132.2662  130.6149   63.1376 H   0  0  0  0  0  0  0  0  0  0  0  0
  134.0533  130.4329   63.1376 H   0  0  0  0  0  0  0  0  0  0  0  0
  1  2  1  0
  2  3  2  0
  2  4  1  0
  4  5  1  0
  5  6  1  0
  6  7  1  0
  7  8  1  0
  8  9  1  0
  9 10  1  0
 10 11  1  0
 10 12  1  0
 10 13  1  0
 13 14  1  0
 14 15  1  0
 15 16  1  0
 16 17  1  0
 17 18  1  0
 17 19  2  0
 15  5  1  0
 14  8  1  0
  1 20  1  0
  1 21  1  0
  1 22  1  0
  5 23  1  6
  7 24  1  0
  7 25  1  0
  8 26  1  1
 11 27  1  0
 11 28  1  0
 11 29  1  0
 12 30  1  0
 12 31  1  0
 12 32  1  0
 14 33  1  1
 15 34  1  1
 18 35  1  0
 18 36  1  0
 18 37  1  0
M  END
>  <Binding energies>  (1) 
[-5.21]

>  <Ligand effiencies>  (1) 
[-0.27421052631578946]

>  <Interactions>  (1) 
["V-A:TYR:539:CD1:4873, V-A:PRO:540:N:4884, H-A:TYR:539:N:4870, V-A:PRO:540:CB:4885, V-A:PRO:540:CA:4883, V-A:LEU:363:CD1:3189, H-A:ALA:541:N:4891, V-A:ALA:541:CB:4892, V-A:GLU:543:CG:4907, V-A:ARG:545:CZ:4926, V-B:LEU:475:CD2:9230, V-A:GLU:543:CD:4908, V-A:TYR:539:C:4867, V-A:ASN:362:CG:3177, H-A:LEU:363:N:3186, V-A:ASN:362:CB:3176"]

$$$$
ZINC14690703
     RDKit          3D

 41 42  0  0  0  0  0  0  0  0999 V2000
  131.3760  126.0990   62.3960 C   0  0  0  0  0  0  0  0  0  0  0  0
  131.9930  124.9050   62.4140 C   0  0  0  0  0  0  0  0  0  0  0  0
  132.5490  124.1320   61.2090 C   0  0  1  0  0  0  0  0  0  0  0  0
  134.0920  124.1300   61.2890 C   0  0  0  0  0  0  0  0  0  0  0  0
  134.3700  123.0930   62.3920 C   0  0  0  0  0  0  0  0  0  0  0  0
  132.9440  122.7740   62.9060 C   0  0  2  0  0  0  0  0  0  0  0  0
  132.1810  122.7070   61.5900 C   0  0  0  0  0  0  0  0  0  0  0  0
  132.2700  123.9880   63.6260 C   0  0  1  0  0  0  0  0  0  0  0  0
  133.1940  124.7040   64.6500 C   0  0  0  0  0  0  0  0  0  0  0  0
  130.9330  123.5980   64.3310 C   0  0  0  0  0  0  0  0  0  0  0  0
  129.8660  123.0200   63.4150 C   0  0  0  0  0  0  0  0  0  0  0  0
  128.9770  123.7560   62.7170 C   0  0  0  0  0  0  0  0  0  0  0  0
  127.8720  123.2610   61.7800 C   0  0  1  0  0  0  0  0  0  0  0  0
  128.3540  122.0270   60.9880 C   0  0  0  0  0  0  0  0  0  0  0  0
  126.7490  122.8460   62.5450 O   0  0  0  0  0  0  0  0  0  0  0  0
  127.4120  124.4060   60.8390 C   0  0  0  0  0  0  0  0  0  0  0  0
  126.0560  124.7810   61.0240 O   0  0  0  0  0  0  0  0  0  0  0  0
  131.0217  126.5492   63.3350 H   0  0  0  0  0  0  0  0  0  0  0  0
  131.2254  126.6259   61.4422 H   0  0  0  0  0  0  0  0  0  0  0  0
  132.1977  124.5195   60.2413 H   0  0  0  0  0  0  0  0  0  0  0  0
  134.5388  123.8215   60.3323 H   0  0  0  0  0  0  0  0  0  0  0  0
  134.5202  125.1206   61.5020 H   0  0  0  0  0  0  0  0  0  0  0  0
  134.8567  122.1955   61.9825 H   0  0  0  0  0  0  0  0  0  0  0  0
  135.0522  123.4535   63.1760 H   0  0  0  0  0  0  0  0  0  0  0  0
  132.9545  121.9085   63.5848 H   0  0  0  0  0  0  0  0  0  0  0  0
  132.5764  121.9528   60.8938 H   0  0  0  0  0  0  0  0  0  0  0  0
  131.1187  122.4222   61.6086 H   0  0  0  0  0  0  0  0  0  0  0  0
  132.8718  124.4544   65.6717 H   0  0  0  0  0  0  0  0  0  0  0  0
  134.2322  124.3723   64.5016 H   0  0  0  0  0  0  0  0  0  0  0  0
  133.1320  125.7922   64.5016 H   0  0  0  0  0  0  0  0  0  0  0  0
  131.1610  122.8491   65.1037 H   0  0  0  0  0  0  0  0  0  0  0  0
  130.5162  124.5320   64.7359 H   0  0  0  0  0  0  0  0  0  0  0  0
  129.8156  121.9258   63.3146 H   0  0  0  0  0  0  0  0  0  0  0  0
  129.0556  124.8468   62.8356 H   0  0  0  0  0  0  0  0  0  0  0  0
  128.6621  121.2382   61.6900 H   0  0  0  0  0  0  0  0  0  0  0  0
  127.5351  121.6549   60.3548 H   0  0  0  0  0  0  0  0  0  0  0  0
  129.2083  122.3085   60.3548 H   0  0  0  0  0  0  0  0  0  0  0  0
  126.2820  123.6310   62.8400 H   0  0  0  0  0  0  0  0  0  0  0  0
  128.0451  125.2859   61.0261 H   0  0  0  0  0  0  0  0  0  0  0  0
  127.5071  124.0350   59.8078 H   0  0  0  0  0  0  0  0  0  0  0  0
  125.8510  124.7310   61.9610 H   0  0  0  0  0  0  0  0  0  0  0  0
  1  2  2  0
  2  3  1  0
  3  4  1  0
  4  5  1  0
  5  6  1  0
  6  7  1  0
  6  8  1  0
  8  9  1  1
  8 10  1  0
 10 11  1  0
 11 12  2  0
 12 13  1  0
 13 14  1  0
 13 15  1  1
 13 16  1  0
 16 17  1  0
  8  2  1  0
  7  3  1  0
  1 18  1  0
  1 19  1  0
  3 20  1  6
  4 21  1  0
  4 22  1  0
  5 23  1  0
  5 24  1  0
  6 25  1  1
  7 26  1  0
  7 27  1  0
  9 28  1  0
  9 29  1  0
  9 30  1  0
 10 31  1  0
 10 32  1  0
 11 33  1  0
 12 34  1  0
 14 35  1  0
 14 36  1  0
 14 37  1  0
 15 38  1  0
 16 39  1  0
 16 40  1  0
 17 41  1  0
M  END
>  <Binding energies>  (1) 
[-5.71]

>  <Ligand effiencies>  (1) 
[-0.3005263157894737]

>  <Interactions>  (1) 
["V-A:ILE:369:CD1:3239, V-B:PRO:540:CA:9855, V-A:GLY:454:CA:4049, H-B:GLU:543:OE1:9881, H-B:ALA:541:N:9863, V-B:GLU:543:CD:9880, V-A:ARG:545:CZ:4926, V-B:ALA:541:CB:9864, V-B:PRO:540:C:9853, V-B:GLU:543:CG:9879, V-A:LEU:475:CD2:4259, H-B:ALA:541:O:9861, H-B:ASP:366:OD1:8185, V-B:TYR:539:C:9839, V-A:ASP:366:CG:3213, V-A:GLY:453:C:4042, V-B:PRO:540:N:9856"]

$$$$
ZINC147067691
     RDKit          3D

 73 73  0  0  0  0  0  0  0  0999 V2000
  128.5120  131.9770   75.8800 C   0  0  0  0  0  0  0  0  0  0  0  0
  128.6340  130.9080   74.8060 C   0  0  0  0  0  0  0  0  0  0  0  0
  127.4800  129.9120   74.8000 C   0  0  0  0  0  0  0  0  0  0  0  0
  129.6870  130.8890   73.9590 C   0  0  0  0  0  0  0  0  0  0  0  0
  129.9250  129.9310   72.8910 C   0  0  0  0  0  0  0  0  0  0  0  0
  128.9410  129.1800   72.3540 C   0  0  0  0  0  0  0  0  0  0  0  0
  129.1120  128.1950   71.2920 C   0  0  0  0  0  0  0  0  0  0  0  0
  129.2530  126.7360   71.7110 C   0  0  0  0  0  0  0  0  0  0  0  0
  129.0910  128.5890   69.9950 C   0  0  0  0  0  0  0  0  0  0  0  0
  129.2520  127.7400   68.8250 C   0  0  0  0  0  0  0  0  0  0  0  0
  130.4560  127.3380   68.3800 C   0  0  0  0  0  0  0  0  0  0  0  0
  130.6210  126.4750   67.2190 C   0  0  0  0  0  0  0  0  0  0  0  0
  130.0480  125.2630   67.0220 C   0  0  0  0  0  0  0  0  0  0  0  0
  129.0880  124.6200   68.0160 C   0  0  0  0  0  0  0  0  0  0  0  0
  130.3020  124.5370   65.7830 C   0  0  0  0  0  0  0  0  0  0  0  0
  130.4180  123.1980   65.6800 C   0  0  0  0  0  0  0  0  0  0  0  0
  130.6750  122.5280   64.4130 C   0  0  0  0  0  0  0  0  0  0  0  0
  129.8310  122.4200   63.3580 C   0  0  0  0  0  0  0  0  0  0  0  0
  128.4250  123.0230   63.3540 C   0  0  0  0  0  0  0  0  0  0  0  0
  130.3170  121.6940   62.1860 C   0  0  0  0  0  0  0  0  0  0  0  0
  131.4880  121.0280   62.1080 C   0  0  0  0  0  0  0  0  0  0  0  0
  131.9460  120.2990   60.9220 C   0  0  0  0  0  0  0  0  0  0  0  0
  131.2660  119.2050   60.4560 C   0  0  0  0  0  0  0  0  0  0  0  0
  130.0000  118.6400   61.1010 C   0  0  0  0  0  0  0  0  0  0  0  0
  131.7280  118.3830   59.2510 C   0  0  0  0  0  0  0  0  0  0  0  0
  132.6780  119.1650   58.3330 C   0  0  2  0  0  0  0  0  0  0  0  0
  133.2330  118.3270   57.3410 O   0  0  0  0  0  0  0  0  0  0  0  0
  133.7700  119.8450   59.1630 C   0  0  0  0  0  0  0  0  0  0  0  0
  133.2130  120.8560   60.2110 C   0  0  0  0  0  0  0  0  0  0  0  0
  132.8120  122.1640   59.4850 C   0  0  0  0  0  0  0  0  0  0  0  0
  134.3350  121.0820   61.2570 C   0  0  0  0  0  0  0  0  0  0  0  0
  128.5657  131.5069   76.8730 H   0  0  0  0  0  0  0  0  0  0  0  0
  129.3334  132.7006   75.7720 H   0  0  0  0  0  0  0  0  0  0  0  0
  127.5487  132.4970   75.7720 H   0  0  0  0  0  0  0  0  0  0  0  0
  127.1993  129.6698   75.8356 H   0  0  0  0  0  0  0  0  0  0  0  0
  126.6171  130.3537   74.2800 H   0  0  0  0  0  0  0  0  0  0  0  0
  127.7908  128.9938   74.2800 H   0  0  0  0  0  0  0  0  0  0  0  0
  130.4411  131.6789   74.0909 H   0  0  0  0  0  0  0  0  0  0  0  0
  130.9485  129.8139   72.5054 H   0  0  0  0  0  0  0  0  0  0  0  0
  127.9248  129.3226   72.7503 H   0  0  0  0  0  0  0  0  0  0  0  0
  129.2595  126.6688   72.8089 H   0  0  0  0  0  0  0  0  0  0  0  0
  128.4066  126.1568   71.3132 H   0  0  0  0  0  0  0  0  0  0  0  0
  130.1946  126.3296   71.3132 H   0  0  0  0  0  0  0  0  0  0  0  0
  128.9362  129.6619   69.8081 H   0  0  0  0  0  0  0  0  0  0  0  0
  128.3527  127.4135   68.2821 H   0  0  0  0  0  0  0  0  0  0  0  0
  131.3549  127.6759   68.9165 H   0  0  0  0  0  0  0  0  0  0  0  0
  131.2789  126.8452   66.4190 H   0  0  0  0  0  0  0  0  0  0  0  0
  129.4190  124.8417   69.0413 H   0  0  0  0  0  0  0  0  0  0  0  0
  128.0763  125.0233   67.8620 H   0  0  0  0  0  0  0  0  0  0  0  0
  129.0759  123.5309   67.8620 H   0  0  0  0  0  0  0  0  0  0  0  0
  130.4071  125.1278   64.8611 H   0  0  0  0  0  0  0  0  0  0  0  0
  130.3144  122.5873   66.5890 H   0  0  0  0  0  0  0  0  0  0  0  0
  131.6629  122.0577   64.2996 H   0  0  0  0  0  0  0  0  0  0  0  0
  128.0855  123.1686   64.3901 H   0  0  0  0  0  0  0  0  0  0  0  0
  128.4433  123.9924   62.8345 H   0  0  0  0  0  0  0  0  0  0  0  0
  127.7353  122.3416   62.8345 H   0  0  0  0  0  0  0  0  0  0  0  0
  129.6745  121.6903   61.2931 H   0  0  0  0  0  0  0  0  0  0  0  0
  132.1417  121.0326   62.9927 H   0  0  0  0  0  0  0  0  0  0  0  0
  130.0959  118.6828   62.1960 H   0  0  0  0  0  0  0  0  0  0  0  0
  129.1306  119.2355   60.7855 H   0  0  0  0  0  0  0  0  0  0  0  0
  129.8627  117.5952   60.7855 H   0  0  0  0  0  0  0  0  0  0  0  0
  132.2494  117.4857   59.6155 H   0  0  0  0  0  0  0  0  0  0  0  0
  130.8355  118.1225   58.6631 H   0  0  0  0  0  0  0  0  0  0  0  0
  132.1008  119.9449   57.8147 H   0  0  0  0  0  0  0  0  0  0  0  0
  133.0200  118.6920   56.4800 H   0  0  0  0  0  0  0  0  0  0  0  0
  134.3376  119.0679   59.6959 H   0  0  0  0  0  0  0  0  0  0  0  0
  134.4001  120.4156   58.4649 H   0  0  0  0  0  0  0  0  0  0  0  0
  132.5746  122.9384   60.2292 H   0  0  0  0  0  0  0  0  0  0  0  0
  133.6470  122.5045   58.8551 H   0  0  0  0  0  0  0  0  0  0  0  0
  131.9296  121.9780   58.8551 H   0  0  0  0  0  0  0  0  0  0  0  0
  133.9145  120.9973   62.2699 H   0  0  0  0  0  0  0  0  0  0  0  0
  135.1206  120.3241   61.1216 H   0  0  0  0  0  0  0  0  0  0  0  0
  134.7659  122.0850   61.1216 H   0  0  0  0  0  0  0  0  0  0  0  0
  1  2  1  0
  2  3  1  0
  2  4  2  0
  4  5  1  0
  5  6  2  0
  6  7  1  0
  7  8  1  0
  7  9  2  0
  9 10  1  0
 10 11  2  0
 11 12  1  0
 12 13  2  0
 13 14  1  0
 13 15  1  0
 15 16  2  0
 16 17  1  0
 17 18  2  0
 18 19  1  0
 18 20  1  0
 20 21  2  0
 21 22  1  0
 22 23  2  0
 23 24  1  0
 23 25  1  0
 25 26  1  0
 26 27  1  0
 26 28  1  0
 28 29  1  0
 29 30  1  0
 29 31  1  0
 29 22  1  0
  1 32  1  0
  1 33  1  0
  1 34  1  0
  3 35  1  0
  3 36  1  0
  3 37  1  0
  4 38  1  0
  5 39  1  0
  6 40  1  0
  8 41  1  0
  8 42  1  0
  8 43  1  0
  9 44  1  0
 10 45  1  0
 11 46  1  0
 12 47  1  0
 14 48  1  0
 14 49  1  0
 14 50  1  0
 15 51  1  0
 16 52  1  0
 17 53  1  0
 19 54  1  0
 19 55  1  0
 19 56  1  0
 20 57  1  0
 21 58  1  0
 24 59  1  0
 24 60  1  0
 24 61  1  0
 25 62  1  0
 25 63  1  0
 26 64  1  6
 27 65  1  0
 28 66  1  0
 28 67  1  0
 30 68  1  0
 30 69  1  0
 30 70  1  0
 31 71  1  0
 31 72  1  0
 31 73  1  0
M  END
>  <Binding energies>  (1) 
[4.24]

>  <Ligand effiencies>  (1) 
[0.1325]

>  <Interactions>  (1) 
["V-A:ILE:369:CG2:3237, V-B:GLU:543:C:9874, V-B:HIS:456:CD2:9039, V-A:GLU:543:C:4902, V-B:GLU:543:CB:9878, V-B:HIS:456:CB:9036, V-B:ALA:541:CB:9864, V-B:TYR:539:CE2:9848, V-A:TYR:484:CE2:4346, V-A:LEU:475:CG:4257, V-A:GLY:544:CA:4914, V-B:GLU:543:CG:9879, V-A:GLY:544:C:4912, V-B:TYR:539:C:9839, V-A:HIS:456:CD2:4068, V-B:TYR:539:CZ:9849, V-B:TYR:539:CB:9843, V-A:GLU:543:CD:4908, V-A:TYR:484:CZ:4347, V-B:HIS:456:CE1:9041, V-B:GLU:543:CA:9876, V-A:SER:385:C:3405, V-A:HIS:456:CE1:4070, V-A:ILE:369:CD1:3239, V-B:TYR:539:CD2:9846, V-A:SER:385:CB:3409, V-B:GLU:543:CD:9880, V-B:HIS:456:CG:9037, V-A:LEU:475:CD2:4259, V-B:TYR:539:CG:9844, V-A:GLU:543:CB:4906, H-A:HIS:383:HE2:3395, V-A:HIS:383:CD2:3392, V-A:LYS:547:CE:4950, V-A:SER:385:CA:3407, V-A:HIS:383:NE2:3394"]

$$$$
ZINC14725302-again1
     RDKit          3D

 42 45  0  0  0  0  0  0  0  0999 V2000
  134.6700  123.0240   62.4580 C   0  0  0  0  0  0  0  0  0  0  0  0
  134.3640  124.4070   62.3180 O   0  0  0  0  0  0  0  0  0  0  0  0
  133.1460  124.8010   62.8370 C   0  0  0  0  0  0  0  0  0  0  0  0
  132.8460  124.6410   64.2050 C   0  0  0  0  0  0  0  0  0  0  0  0
  133.6160  124.0100   65.0040 O   0  0  0  0  0  0  0  0  0  0  0  0
  131.6700  125.1810   64.7180 C   0  0  0  0  0  0  0  0  0  0  0  0
  130.7910  125.9070   63.9170 C   0  0  0  0  0  0  0  0  0  0  0  0
  131.0550  126.0210   62.5370 C   0  0  0  0  0  0  0  0  0  0  0  0
  132.1990  125.4000   61.9780 C   0  0  0  0  0  0  0  0  0  0  0  0
  132.3940  125.5020   60.4760 C   0  0  0  0  0  0  0  0  0  0  0  0
  131.8800  126.6510   59.8320 C   0  0  0  0  0  0  0  0  0  0  0  0
  132.0830  126.8280   58.4600 C   0  0  0  0  0  0  0  0  0  0  0  0
  132.7440  125.8690   57.7050 C   0  0  0  0  0  0  0  0  0  0  0  0
  133.1700  124.6900   58.3050 C   0  0  0  0  0  0  0  0  0  0  0  0
  133.7590  123.7260   57.5210 O   0  0  0  0  0  0  0  0  0  0  0  0
  132.9740  124.4880   59.6780 C   0  0  0  0  0  0  0  0  0  0  0  0
  133.2850  123.2540   60.1960 O   0  0  0  0  0  0  0  0  0  0  0  0
  131.0460  127.6420   60.6340 C   0  0  0  0  0  0  0  0  0  0  0  0
  130.1400  126.8330   61.5940 C   0  0  2  0  0  0  0  0  0  0  0  0
  129.1780  127.7550   62.3900 N   0  0  1  0  0  0  0  0  0  0  0  0
  128.0780  128.3490   61.4830 C   0  0  0  0  0  0  0  0  0  0  0  0
  128.5070  126.9870   63.5470 C   0  0  0  0  0  0  0  0  0  0  0  0
  129.5930  126.5980   64.5580 C   0  0  0  0  0  0  0  0  0  0  0  0
  134.7268  122.7673   63.5261 H   0  0  0  0  0  0  0  0  0  0  0  0
  133.8829  122.4239   61.9780 H   0  0  0  0  0  0  0  0  0  0  0  0
  135.6368  122.8120   61.9780 H   0  0  0  0  0  0  0  0  0  0  0  0
  131.4290  125.0310   65.7807 H   0  0  0  0  0  0  0  0  0  0  0  0
  131.7131  127.7415   57.9713 H   0  0  0  0  0  0  0  0  0  0  0  0
  132.9302  126.0417   56.6347 H   0  0  0  0  0  0  0  0  0  0  0  0
  134.6280  123.9820   57.2060 H   0  0  0  0  0  0  0  0  0  0  0  0
  133.0330  123.1700   61.1180 H   0  0  0  0  0  0  0  0  0  0  0  0
  131.7066  128.3044   61.2127 H   0  0  0  0  0  0  0  0  0  0  0  0
  130.4350  128.2618   59.9612 H   0  0  0  0  0  0  0  0  0  0  0  0
  129.4980  126.1530   61.0148 H   0  0  0  0  0  0  0  0  0  0  0  0
  129.7150  128.5140   62.7850 H   0  0  0  0  0  0  0  0  0  0  0  0
  127.2810  128.7794   62.1071 H   0  0  0  0  0  0  0  0  0  0  0  0
  128.5116  129.1356   60.8480 H   0  0  0  0  0  0  0  0  0  0  0  0
  127.6580  127.5550   60.8480 H   0  0  0  0  0  0  0  0  0  0  0  0
  127.7574  127.6280   64.0340 H   0  0  0  0  0  0  0  0  0  0  0  0
  128.0045  126.0865   63.1641 H   0  0  0  0  0  0  0  0  0  0  0  0
  129.9443  127.5104   65.0621 H   0  0  0  0  0  0  0  0  0  0  0  0
  129.1424  125.8837   65.2628 H   0  0  0  0  0  0  0  0  0  0  0  0
  1  2  1  0
  2  3  1  0
  3  4  2  0
  4  5  1  0
  4  6  1  0
  6  7  2  0
  7  8  1  0
  8  9  2  0
  9 10  1  0
 10 11  2  0
 11 12  1  0
 12 13  2  0
 13 14  1  0
 14 15  1  0
 14 16  2  0
 16 17  1  0
 11 18  1  0
 18 19  1  0
 19 20  1  0
 20 21  1  0
 20 22  1  0
 22 23  1  0
  9  3  1  0
 16 10  1  0
 23  7  1  0
 19  8  1  0
  1 24  1  0
  1 25  1  0
  1 26  1  0
  6 27  1  0
 12 28  1  0
 13 29  1  0
 15 30  1  0
 17 31  1  0
 18 32  1  0
 18 33  1  0
 19 34  1  6
 20 35  1  1
 21 36  1  0
 21 37  1  0
 21 38  1  0
 22 39  1  0
 22 40  1  0
 23 41  1  0
 23 42  1  0
M  CHG  2   5  -1  20   1
M  END
>  <Binding energies>  (1) 
[-6.02]

>  <Ligand effiencies>  (1) 
[-0.23153846153846153]

>  <Interactions>  (1) 
["V-A:ASP:366:CA:3210, V-A:GLY:454:CA:4049, H-A:GLU:543:OE2:4910, V-B:TYR:539:CE2:9848, V-B:GLU:543:CG:9879, V-A:ASP:366:CG:3213, V-B:TYR:539:CZ:9849, H-A:ASN:370:N:3244, H-B:TYR:539:OH:9850, V-A:GLU:543:CD:4908, H-A:GLY:454:N:4050, V-A:GLY:453:C:4042, V-A:ILE:369:CD1:3239, V-A:ASP:366:C:3208, V-A:TYR:531:CZ:4794, V-B:GLU:543:CD:9880, V-A:ASP:366:CB:3212, V-A:ARG:545:CZ:4926, H-A:GLU:543:OE1:4909, H-A:ASP:366:O:3209, V-A:GLY:453:CA:4044, H-A:TYR:484:OH:4348"]

$$$$
ZINC14725429
     RDKit          3D

 30 32  0  0  0  0  0  0  0  0999 V2000
  126.5520  126.9350   68.8790 O   0  0  0  0  0  0  0  0  0  0  0  0
  127.6900  126.9720   69.3470 C   0  0  0  0  0  0  0  0  0  0  0  0
  128.9310  126.6550   68.6360 C   0  0  0  0  0  0  0  0  0  0  0  0
  129.0360  126.2750   67.3430 C   0  0  0  0  0  0  0  0  0  0  0  0
  130.2630  125.9180   66.5990 C   0  0  0  0  0  0  0  0  0  0  0  0
  130.1660  125.6980   65.2200 C   0  0  0  0  0  0  0  0  0  0  0  0
  131.2930  125.3630   64.4690 C   0  0  0  0  0  0  0  0  0  0  0  0
  132.5370  125.2410   65.0880 C   0  0  0  0  0  0  0  0  0  0  0  0
  133.6320  124.9090   64.3290 O   0  0  0  0  0  0  0  0  0  0  0  0
  132.6500  125.4560   66.4670 C   0  0  0  0  0  0  0  0  0  0  0  0
  133.8590  125.3400   67.1060 O   0  0  0  0  0  0  0  0  0  0  0  0
  131.5170  125.7920   67.2130 C   0  0  0  0  0  0  0  0  0  0  0  0
  129.9880  126.8130   69.4730 O   0  0  0  0  0  0  0  0  0  0  0  0
  129.5110  127.2060   70.6900 C   0  0  0  0  0  0  0  0  0  0  0  0
  128.1410  127.3210   70.6920 C   0  0  0  0  0  0  0  0  0  0  0  0
  127.4700  127.7110   71.8480 C   0  0  0  0  0  0  0  0  0  0  0  0
  128.2120  127.9800   73.0020 C   0  0  0  0  0  0  0  0  0  0  0  0
  129.6150  127.8630   73.0040 C   0  0  0  0  0  0  0  0  0  0  0  0
  130.2430  128.1210   74.0840 O   0  0  0  0  0  0  0  0  0  0  0  0
  130.2840  127.4690   71.8210 C   0  0  0  0  0  0  0  0  0  0  0  0
  131.6520  127.3310   71.7260 O   0  0  0  0  0  0  0  0  0  0  0  0
  128.0949  126.2253   66.7757 H   0  0  0  0  0  0  0  0  0  0  0  0
  129.1893  125.7904   64.7224 H   0  0  0  0  0  0  0  0  0  0  0  0
  131.2003  125.1946   63.3859 H   0  0  0  0  0  0  0  0  0  0  0  0
  133.6900  125.4090   63.5120 H   0  0  0  0  0  0  0  0  0  0  0  0
  133.9700  124.4940   67.5470 H   0  0  0  0  0  0  0  0  0  0  0  0
  131.6104  125.9598   68.2961 H   0  0  0  0  0  0  0  0  0  0  0  0
  126.3741  127.8059   71.8532 H   0  0  0  0  0  0  0  0  0  0  0  0
  127.6922  128.2874   73.9214 H   0  0  0  0  0  0  0  0  0  0  0  0
  132.1030  127.5300   72.5490 H   0  0  0  0  0  0  0  0  0  0  0  0
  1  2  2  0
  2  3  1  0
  3  4  2  0
  4  5  1  0
  5  6  2  0
  6  7  1  0
  7  8  2  0
  8  9  1  0
  8 10  1  0
 10 11  1  0
 10 12  2  0
  3 13  1  0
 13 14  1  0
 14 15  2  0
 15 16  1  0
 16 17  2  0
 17 18  1  0
 18 19  1  0
 18 20  2  0
 20 21  1  0
 15  2  1  0
 12  5  1  0
 20 14  1  0
  4 22  1  0
  6 23  1  0
  7 24  1  0
  9 25  1  0
 11 26  1  0
 12 27  1  0
 16 28  1  0
 17 29  1  0
 21 30  1  0
M  CHG  1  19  -1
M  END
>  <Binding energies>  (1) 
[-6.44]

>  <Ligand effiencies>  (1) 
[-0.26833333333333337]

>  <Interactions>  (1) 
["V-B:GLU:543:C:9874, V-B:HIS:456:CD2:9039, V-B:GLU:543:CB:9878, V-B:GLU:543:CG:9879, V-A:HIS:456:CD2:4068, H-A:ARG:545:N:4920, H-B:HIS:456:ND1:9038, H-B:ARG:545:N:9892, H-A:ILE:455:O:4053, V-A:GLU:543:CD:4908, V-A:TYR:484:CZ:4347, V-B:HIS:456:CE1:9041, H-A:GLY:454:N:4050, V-B:GLU:543:CA:9876, V-A:ARG:545:CG:4922, V-A:HIS:456:CE1:4070, V-B:GLY:544:C:9884, V-B:GLU:543:CD:9880, V-B:HIS:456:CG:9037, V-A:ARG:545:CD:4923, H-A:LYS:547:NZ:4951, H-A:ARG:545:NH2:4928, V-A:ARG:545:CZ:4926, H-A:ASP:366:OD1:3214, H-A:ARG:545:NE:4924, H-A:GLY:544:O:4913, H-A:HIS:456:NE2:4071, H-A:HIS:456:ND1:4067, H-A:TYR:484:OH:4348"]

$$$$
ZINC14725429-again1
     RDKit          3D

 30 32  0  0  0  0  0  0  0  0999 V2000
  126.4540  126.9700   68.8130 O   0  0  0  0  0  0  0  0  0  0  0  0
  127.5770  126.9680   69.3190 C   0  0  0  0  0  0  0  0  0  0  0  0
  128.8330  126.6520   68.6380 C   0  0  0  0  0  0  0  0  0  0  0  0
  128.9730  126.3150   67.3360 C   0  0  0  0  0  0  0  0  0  0  0  0
  130.2160  125.9610   66.6170 C   0  0  0  0  0  0  0  0  0  0  0  0
  130.1520  125.7710   65.2320 C   0  0  0  0  0  0  0  0  0  0  0  0
  131.2940  125.4400   64.5020 C   0  0  0  0  0  0  0  0  0  0  0  0
  132.5210  125.2930   65.1470 C   0  0  0  0  0  0  0  0  0  0  0  0
  133.6300  124.9650   64.4090 O   0  0  0  0  0  0  0  0  0  0  0  0
  132.6020  125.4790   66.5330 C   0  0  0  0  0  0  0  0  0  0  0  0
  133.7940  125.3360   67.1980 O   0  0  0  0  0  0  0  0  0  0  0  0
  131.4550  125.8110   67.2580 C   0  0  0  0  0  0  0  0  0  0  0  0
  129.8640  126.7610   69.5140 O   0  0  0  0  0  0  0  0  0  0  0  0
  129.3610  127.1220   70.7330 C   0  0  0  0  0  0  0  0  0  0  0  0
  127.9900  127.2620   70.6890 C   0  0  0  0  0  0  0  0  0  0  0  0
  127.2810  127.6250   71.8310 C   0  0  0  0  0  0  0  0  0  0  0  0
  127.9820  127.8420   73.0210 C   0  0  0  0  0  0  0  0  0  0  0  0
  129.3770  127.7020   73.0730 C   0  0  0  0  0  0  0  0  0  0  0  0
  129.9880  127.9380   74.2860 O   0  0  0  0  0  0  0  0  0  0  0  0
  130.0940  127.3340   71.9090 C   0  0  0  0  0  0  0  0  0  0  0  0
  131.3640  127.1920   71.9020 O   0  0  0  0  0  0  0  0  0  0  0  0
  128.0495  126.3026   66.7385 H   0  0  0  0  0  0  0  0  0  0  0  0
  129.1891  125.8841   64.7123 H   0  0  0  0  0  0  0  0  0  0  0  0
  131.2259  125.2945   63.4138 H   0  0  0  0  0  0  0  0  0  0  0  0
  134.4410  124.9820   64.9210 H   0  0  0  0  0  0  0  0  0  0  0  0
  133.8590  124.5060   67.6740 H   0  0  0  0  0  0  0  0  0  0  0  0
  131.5241  125.9568   68.3461 H   0  0  0  0  0  0  0  0  0  0  0  0
  126.1875  127.7392   71.7975 H   0  0  0  0  0  0  0  0  0  0  0  0
  127.4317  128.1267   73.9299 H   0  0  0  0  0  0  0  0  0  0  0  0
  130.9150  127.6930   74.2900 H   0  0  0  0  0  0  0  0  0  0  0  0
  1  2  2  0
  2  3  1  0
  3  4  2  0
  4  5  1  0
  5  6  2  0
  6  7  1  0
  7  8  2  0
  8  9  1  0
  8 10  1  0
 10 11  1  0
 10 12  2  0
  3 13  1  0
 13 14  1  0
 14 15  2  0
 15 16  1  0
 16 17  2  0
 17 18  1  0
 18 19  1  0
 18 20  2  0
 20 21  1  0
 15  2  1  0
 12  5  1  0
 20 14  1  0
  4 22  1  0
  6 23  1  0
  7 24  1  0
  9 25  1  0
 11 26  1  0
 12 27  1  0
 16 28  1  0
 17 29  1  0
 19 30  1  0
M  CHG  1  21  -1
M  END
>  <Binding energies>  (1) 
[-4.62]

>  <Ligand effiencies>  (1) 
[-0.1925]

>  <Interactions>  (1) 
["V-B:GLU:543:C:9874, V-B:HIS:456:CD2:9039, V-B:GLU:543:CB:9878, H-A:ARG:545:NH1:4927, V-B:GLU:543:CG:9879, V-A:HIS:456:CD2:4068, H-B:HIS:456:ND1:9038, H-B:ARG:545:N:9892, H-A:ILE:455:O:4053, V-A:GLU:543:CD:4908, V-A:TYR:484:CZ:4347, V-B:HIS:456:CE1:9041, H-A:GLY:454:N:4050, V-B:GLU:543:CA:9876, V-A:ARG:545:CG:4922, V-A:HIS:456:CE1:4070, V-B:GLY:544:C:9884, V-B:GLU:543:CD:9880, V-B:HIS:456:CG:9037, V-A:ARG:545:CD:4923, H-A:LYS:547:NZ:4951, H-A:ARG:545:NH2:4928, V-A:ARG:545:CZ:4926, H-A:ARG:545:NE:4924, H-A:GLY:544:O:4913, H-A:HIS:456:ND1:4067, H-A:TYR:484:OH:4348"]

$$$$
ZINC14725429-again2
     RDKit          3D

 31 33  0  0  0  0  0  0  0  0999 V2000
  130.0230  124.8110   67.0040 O   0  0  0  0  0  0  0  0  0  0  0  0
  129.5220  125.9350   67.0340 C   0  0  0  0  0  0  0  0  0  0  0  0
  129.1990  126.7080   68.2370 C   0  0  0  0  0  0  0  0  0  0  0  0
  129.4050  126.3200   69.5140 C   0  0  0  0  0  0  0  0  0  0  0  0
  129.0690  127.0570   70.7510 C   0  0  0  0  0  0  0  0  0  0  0  0
  127.9110  126.6970   71.4500 C   0  0  0  0  0  0  0  0  0  0  0  0
  127.5520  127.3560   72.6260 C   0  0  0  0  0  0  0  0  0  0  0  0
  128.3460  128.3900   73.1210 C   0  0  0  0  0  0  0  0  0  0  0  0
  127.9730  129.0260   74.2780 O   0  0  0  0  0  0  0  0  0  0  0  0
  129.5070  128.7650   72.4310 C   0  0  0  0  0  0  0  0  0  0  0  0
  130.3040  129.7830   72.8890 O   0  0  0  0  0  0  0  0  0  0  0  0
  129.8610  128.0990   71.2560 C   0  0  0  0  0  0  0  0  0  0  0  0
  128.6650  127.9060   67.8790 O   0  0  0  0  0  0  0  0  0  0  0  0
  128.6150  127.9550   66.5170 C   0  0  0  0  0  0  0  0  0  0  0  0
  129.1110  126.8090   65.9390 C   0  0  0  0  0  0  0  0  0  0  0  0
  129.1390  126.6750   64.5510 C   0  0  0  0  0  0  0  0  0  0  0  0
  128.6570  127.7250   63.7610 C   0  0  0  0  0  0  0  0  0  0  0  0
  128.1530  128.8920   64.3540 C   0  0  0  0  0  0  0  0  0  0  0  0
  127.6880  129.9020   63.5490 O   0  0  0  0  0  0  0  0  0  0  0  0
  128.1290  129.0160   65.7520 C   0  0  0  0  0  0  0  0  0  0  0  0
  127.6470  130.1410   66.3740 O   0  0  0  0  0  0  0  0  0  0  0  0
  129.8800  125.3373   69.6503 H   0  0  0  0  0  0  0  0  0  0  0  0
  127.2761  125.8843   71.0673 H   0  0  0  0  0  0  0  0  0  0  0  0
  126.6399  127.0591   73.1644 H   0  0  0  0  0  0  0  0  0  0  0  0
  128.5410  129.7650   74.5040 H   0  0  0  0  0  0  0  0  0  0  0  0
  130.3860  130.5080   72.2650 H   0  0  0  0  0  0  0  0  0  0  0  0
  130.7739  128.3956   70.7186 H   0  0  0  0  0  0  0  0  0  0  0  0
  129.5332  125.7598   64.0852 H   0  0  0  0  0  0  0  0  0  0  0  0
  128.6736  127.6342   62.6649 H   0  0  0  0  0  0  0  0  0  0  0  0
  127.3860  130.6670   64.0440 H   0  0  0  0  0  0  0  0  0  0  0  0
  126.8630  129.9690   66.9010 H   0  0  0  0  0  0  0  0  0  0  0  0
  1  2  2  0
  2  3  1  0
  3  4  2  0
  4  5  1  0
  5  6  2  0
  6  7  1  0
  7  8  2  0
  8  9  1  0
  8 10  1  0
 10 11  1  0
 10 12  2  0
  3 13  1  0
 13 14  1  0
 14 15  2  0
 15 16  1  0
 16 17  2  0
 17 18  1  0
 18 19  1  0
 18 20  2  0
 20 21  1  0
 15  2  1  0
 12  5  1  0
 20 14  1  0
  4 22  1  0
  6 23  1  0
  7 24  1  0
  9 25  1  0
 11 26  1  0
 12 27  1  0
 16 28  1  0
 17 29  1  0
 19 30  1  0
 21 31  1  0
M  END
>  <Binding energies>  (1) 
[-5.13]

>  <Ligand effiencies>  (1) 
[-0.2052]

>  <Interactions>  (1) 
["V-B:GLU:543:C:9874, V-B:HIS:456:CD2:9039, V-B:GLU:543:CB:9878, V-B:GLU:543:CG:9879, V-B:LYS:547:CE:9922, V-A:GLU:543:CD:4908, H-B:TYR:484:OH:9319, V-B:HIS:456:CE1:9041, V-A:HIS:456:CE1:4070, V-B:GLY:544:C:9884, H-B:HIS:456:NE2:9042, V-B:GLY:544:CA:9886, V-A:GLU:543:CG:4907, V-B:GLU:543:CD:9880, V-B:HIS:456:CG:9037, H-A:LYS:547:NZ:4951, V-A:GLU:543:CB:4906, H-A:GLY:544:O:4913, H-A:TYR:484:OH:4348, H-A:GLU:543:O:4903"]

$$$$
ZINC14815108
     RDKit          3D

 36 39  0  0  0  0  0  0  0  0999 V2000
  128.5840  133.1260   60.0070 C   0  0  0  0  0  0  0  0  0  0  0  0
  129.3530  131.9000   59.5490 C   0  0  0  0  0  0  0  0  0  0  0  0
  129.9490  131.8720   58.2930 C   0  0  0  0  0  0  0  0  0  0  0  0
  130.6570  130.7550   57.8620 C   0  0  0  0  0  0  0  0  0  0  0  0
  131.2230  130.7850   56.6120 O   0  0  0  0  0  0  0  0  0  0  0  0
  130.7820  129.6140   58.7110 C   0  0  0  0  0  0  0  0  0  0  0  0
  131.4900  128.4580   58.3170 C   0  0  0  0  0  0  0  0  0  0  0  0
  131.6170  127.3360   59.1440 C   0  0  0  0  0  0  0  0  0  0  0  0
  131.0210  127.3390   60.4270 C   0  0  0  0  0  0  0  0  0  0  0  0
  130.3040  128.4880   60.8470 C   0  0  0  0  0  0  0  0  0  0  0  0
  129.7020  128.5490   62.0850 O   0  0  0  0  0  0  0  0  0  0  0  0
  130.1770  129.6310   60.0000 C   0  0  0  0  0  0  0  0  0  0  0  0
  129.4620  130.8000   60.3940 C   0  0  0  0  0  0  0  0  0  0  0  0
  131.1620  126.1210   61.3200 C   0  0  0  0  0  0  0  0  0  0  0  0
  130.6620  126.0710   62.4470 O   0  0  0  0  0  0  0  0  0  0  0  0
  131.9410  124.9480   60.7900 C   0  0  0  0  0  0  0  0  0  0  0  0
  132.0760  123.8140   61.6100 C   0  0  0  0  0  0  0  0  0  0  0  0
  132.7810  122.6950   61.1870 C   0  0  0  0  0  0  0  0  0  0  0  0
  133.3670  122.6890   59.9310 C   0  0  0  0  0  0  0  0  0  0  0  0
  133.2520  123.7950   59.0920 C   0  0  0  0  0  0  0  0  0  0  0  0
  133.8690  123.6870   57.8690 O   0  0  0  0  0  0  0  0  0  0  0  0
  132.5370  124.9490   59.5030 C   0  0  0  0  0  0  0  0  0  0  0  0
  132.3980  126.1610   58.6120 C   0  0  0  0  0  0  0  0  0  0  0  0
  132.9030  126.2000   57.4860 O   0  0  0  0  0  0  0  0  0  0  0  0
  128.5645  133.1571   61.1064 H   0  0  0  0  0  0  0  0  0  0  0  0
  129.0760  134.0319   59.6233 H   0  0  0  0  0  0  0  0  0  0  0  0
  127.5543  133.0774   59.6233 H   0  0  0  0  0  0  0  0  0  0  0  0
  129.8593  132.7457   57.6308 H   0  0  0  0  0  0  0  0  0  0  0  0
  131.7600  130.0110   56.4280 H   0  0  0  0  0  0  0  0  0  0  0  0
  131.9596  128.4383   57.3225 H   0  0  0  0  0  0  0  0  0  0  0  0
  130.2470  128.1770   62.7820 H   0  0  0  0  0  0  0  0  0  0  0  0
  128.9871  130.8329   61.3857 H   0  0  0  0  0  0  0  0  0  0  0  0
  131.6133  123.8132   62.6079 H   0  0  0  0  0  0  0  0  0  0  0  0
  132.8739  121.8184   61.8449 H   0  0  0  0  0  0  0  0  0  0  0  0
  133.9271  121.8042   59.5942 H   0  0  0  0  0  0  0  0  0  0  0  0
  134.2620  124.5110   57.5730 H   0  0  0  0  0  0  0  0  0  0  0  0
  1  2  1  0
  2  3  2  0
  3  4  1  0
  4  5  1  0
  4  6  2  0
  6  7  1  0
  7  8  2  0
  8  9  1  0
  9 10  2  0
 10 11  1  0
 10 12  1  0
 12 13  2  0
  9 14  1  0
 14 15  2  0
 14 16  1  0
 16 17  2  0
 17 18  1  0
 18 19  2  0
 19 20  1  0
 20 21  1  0
 20 22  2  0
 22 23  1  0
 23 24  2  0
 13  2  1  0
 22 16  1  0
 12  6  1  0
 23  8  1  0
  1 25  1  0
  1 26  1  0
  1 27  1  0
  3 28  1  0
  5 29  1  0
  7 30  1  0
 11 31  1  0
 13 32  1  0
 17 33  1  0
 18 34  1  0
 19 35  1  0
 21 36  1  0
M  END
>  <Binding energies>  (1) 
[-6.03]

>  <Ligand effiencies>  (1) 
[-0.22333333333333336]

>  <Interactions>  (1) 
["V-A:ILE:369:CG2:3237, V-A:TYR:539:CD1:4873, V-A:PRO:540:N:4884, V-A:ASP:366:CA:3210, V-B:TYR:539:CZ:9849, V-A:PRO:540:CA:4883, H-A:ASN:370:N:3244, H-A:GLU:543:OE2:4910, V-A:ILE:369:CB:3236, H-B:TYR:539:OH:9850, H-A:TYR:531:OH:4795, V-A:TYR:539:C:4867, V-A:ASP:366:CB:3212, V-B:TYR:539:CE2:9848, H-A:GLU:543:OE1:4909, V-A:ASP:366:CG:3213, H-A:ASP:366:O:3209"]

$$$$
ZINC14922536
     RDKit          3D

 54 55  0  0  0  0  0  0  0  0999 V2000
  134.7050  124.0970   61.9740 C   0  0  0  0  0  0  0  0  0  0  0  0
  134.3470  125.0710   63.1010 C   0  0  0  0  0  0  0  0  0  0  0  0
  133.5680  124.3780   64.0710 O   0  0  0  0  0  0  0  0  0  0  0  0
  132.3160  124.8550   64.4190 C   0  0  0  0  0  0  0  0  0  0  0  0
  131.9150  125.1020   65.7440 C   0  0  0  0  0  0  0  0  0  0  0  0
  130.6350  125.5850   66.0450 C   0  0  0  0  0  0  0  0  0  0  0  0
  130.2640  125.8290   67.4470 C   0  0  0  0  0  0  0  0  0  0  0  0
  129.0900  126.1490   67.8180 N   0  0  0  0  0  0  0  0  0  0  0  0
  128.9880  126.3280   69.1480 N   0  0  0  0  0  0  0  0  0  0  0  0
  129.3400  127.4820   69.7550 C   0  0  0  0  0  0  0  0  0  0  0  0
  129.7780  128.4770   69.1610 O   0  0  0  0  0  0  0  0  0  0  0  0
  129.1500  127.4420   71.2310 C   0  0  0  0  0  0  0  0  0  0  0  0
  128.7090  126.4540   71.8300 O   0  0  0  0  0  0  0  0  0  0  0  0
  129.5050  128.5880   71.8480 N   0  0  0  0  0  0  0  0  0  0  0  0
  129.4520  128.8330   73.2900 C   0  0  0  0  0  0  0  0  0  0  0  0
  129.1000  130.2870   73.6540 C   0  0  0  0  0  0  0  0  0  0  0  0
  130.1640  131.1600   73.2920 O   0  0  0  0  0  0  0  0  0  0  0  0
  129.7560  132.5060   73.1110 C   0  0  0  0  0  0  0  0  0  0  0  0
  129.7500  125.8200   64.9850 C   0  0  0  0  0  0  0  0  0  0  0  0
  130.1320  125.5790   63.6690 C   0  0  0  0  0  0  0  0  0  0  0  0
  131.4160  125.0960   63.3720 C   0  0  0  0  0  0  0  0  0  0  0  0
  131.8610  124.8370   62.0880 O   0  0  0  0  0  0  0  0  0  0  0  0
  130.9380  124.3820   61.0990 C   0  0  0  0  0  0  0  0  0  0  0  0
  130.8610  122.8600   61.1090 C   0  0  0  0  0  0  0  0  0  0  0  0
  129.6360  122.2330   61.3530 C   0  0  0  0  0  0  0  0  0  0  0  0
  129.5520  120.8430   61.3530 C   0  0  0  0  0  0  0  0  0  0  0  0
  130.6930  120.0820   61.1070 C   0  0  0  0  0  0  0  0  0  0  0  0
  130.5880  118.3580   61.1090 Cl  0  0  0  0  0  0  0  0  0  0  0  0
  131.9170  120.7000   60.8580 C   0  0  0  0  0  0  0  0  0  0  0  0
  132.0000  122.0890   60.8560 C   0  0  0  0  0  0  0  0  0  0  0  0
  135.0539  123.1478   62.4068 H   0  0  0  0  0  0  0  0  0  0  0  0
  133.8161  123.9121   61.3530 H   0  0  0  0  0  0  0  0  0  0  0  0
  135.5021  124.5318   61.3530 H   0  0  0  0  0  0  0  0  0  0  0  0
  135.2674  125.4515   63.5681 H   0  0  0  0  0  0  0  0  0  0  0  0
  133.7753  125.9193   62.6967 H   0  0  0  0  0  0  0  0  0  0  0  0
  132.6234  124.9114   66.5637 H   0  0  0  0  0  0  0  0  0  0  0  0
  131.0438  125.7294   68.2164 H   0  0  0  0  0  0  0  0  0  0  0  0
  128.6330  125.5410   69.6730 H   0  0  0  0  0  0  0  0  0  0  0  0
  129.8470  129.3490   71.2760 H   0  0  0  0  0  0  0  0  0  0  0  0
  128.6908  128.1705   73.7279 H   0  0  0  0  0  0  0  0  0  0  0  0
  130.4577  128.6343   73.6889 H   0  0  0  0  0  0  0  0  0  0  0  0
  128.1878  130.5847   73.1161 H   0  0  0  0  0  0  0  0  0  0  0  0
  128.9371  130.3538   74.7398 H   0  0  0  0  0  0  0  0  0  0  0  0
  129.6121  132.9807   74.0928 H   0  0  0  0  0  0  0  0  0  0  0  0
  130.5292  133.0512   72.5499 H   0  0  0  0  0  0  0  0  0  0  0  0
  128.8102  132.5302   72.5499 H   0  0  0  0  0  0  0  0  0  0  0  0
  128.7395  126.2001   65.1958 H   0  0  0  0  0  0  0  0  0  0  0  0
  129.4200  125.7691   62.8524 H   0  0  0  0  0  0  0  0  0  0  0  0
  129.9422  124.7973   61.3134 H   0  0  0  0  0  0  0  0  0  0  0  0
  131.2802  124.7168   60.1087 H   0  0  0  0  0  0  0  0  0  0  0  0
  128.7376  122.8379   61.5452 H   0  0  0  0  0  0  0  0  0  0  0  0
  128.5890  120.3479   61.5464 H   0  0  0  0  0  0  0  0  0  0  0  0
  132.8133  120.0926   60.6639 H   0  0  0  0  0  0  0  0  0  0  0  0
  132.9629  122.5813   60.6551 H   0  0  0  0  0  0  0  0  0  0  0  0
  1  2  1  0
  2  3  1  0
  3  4  1  0
  4  5  2  0
  5  6  1  0
  6  7  1  0
  7  8  2  0
  8  9  1  0
  9 10  1  0
 10 11  2  0
 10 12  1  0
 12 13  2  0
 12 14  1  0
 14 15  1  0
 15 16  1  0
 16 17  1  0
 17 18  1  0
  6 19  2  0
 19 20  1  0
 20 21  2  0
 21 22  1  0
 22 23  1  0
 23 24  1  0
 24 25  2  0
 25 26  1  0
 26 27  2  0
 27 28  1  0
 27 29  1  0
 29 30  2  0
 21  4  1  0
 30 24  1  0
  1 31  1  0
  1 32  1  0
  1 33  1  0
  2 34  1  0
  2 35  1  0
  5 36  1  0
  7 37  1  0
  9 38  1  0
 14 39  1  0
 15 40  1  0
 15 41  1  0
 16 42  1  0
 16 43  1  0
 18 44  1  0
 18 45  1  0
 18 46  1  0
 19 47  1  0
 20 48  1  0
 23 49  1  0
 23 50  1  0
 25 51  1  0
 26 52  1  0
 29 53  1  0
 30 54  1  0
M  END
>  <Binding energies>  (1) 
[-6.89]

>  <Ligand effiencies>  (1) 
[-0.2153125]

>  <Interactions>  (1) 
["V-B:GLU:543:C:9874, V-B:HIS:456:CD2:9039, H-B:GLU:543:O:9875, V-A:GLU:543:C:4902, V-B:GLU:543:CB:9878, V-B:ALA:541:CB:9864, V-B:TYR:539:CE2:9848, V-A:GLY:544:CA:4914, V-B:GLU:543:CG:9879, V-B:TYR:539:C:9839, V-A:GLU:543:CD:4908, V-A:TYR:484:CZ:4347, H-A:GLY:454:N:4050, V-A:GLY:453:C:4042, V-A:HIS:456:CE1:4070, V-A:ILE:369:CD1:3239, H-B:HIS:456:NE2:9042, V-B:TYR:539:CD2:9846, V-B:GLU:543:CD:9880, H-A:LYS:547:NZ:4951, H-A:ARG:545:NH2:4928, V-A:ARG:545:CZ:4926, V-A:LEU:475:CD2:4259, V-A:GLY:453:CA:4044, V-A:LYS:547:CE:4950, V-B:PRO:540:C:9853, H-A:HIS:456:NE2:4071, H-A:TYR:484:OH:4348, H-A:GLU:543:O:4903"]

$$$$
ZINC14944139
     RDKit          3D

 55 60  0  0  0  0  0  0  0  0999 V2000
  131.3760  132.9780   56.9550 C   0  0  0  0  0  0  0  0  0  0  0  0
  131.9460  131.6800   57.0830 O   0  0  0  0  0  0  0  0  0  0  0  0
  131.6250  130.9110   58.1850 C   0  0  0  0  0  0  0  0  0  0  0  0
  131.7070  131.3540   59.5180 C   0  0  0  0  0  0  0  0  0  0  0  0
  131.3700  130.5030   60.5710 C   0  0  0  0  0  0  0  0  0  0  0  0
  130.9360  129.2130   60.2820 C   0  0  0  0  0  0  0  0  0  0  0  0
  130.8170  128.7580   58.9830 C   0  0  0  0  0  0  0  0  0  0  0  0
  131.1860  129.6070   57.9330 C   0  0  0  0  0  0  0  0  0  0  0  0
  130.2430  127.3410   59.0000 C   0  0  2  0  0  0  0  0  0  0  0  0
  130.3460  127.0330   60.5270 C   0  0  0  0  0  0  0  0  0  0  0  0
  130.1710  125.9430   61.0730 O   0  0  0  0  0  0  0  0  0  0  0  0
  130.6410  128.1850   61.1540 N   0  0  0  0  0  0  0  0  0  0  0  0
  131.0290  126.2940   58.3120 N   0  0  0  0  0  0  0  0  0  0  0  0
  132.4630  126.4910   58.1130 C   0  0  0  0  0  0  0  0  0  0  0  0
  130.3150  125.8830   57.1180 C   0  0  0  0  0  0  0  0  0  0  0  0
  128.8440  125.8900   57.5320 C   0  0  1  0  0  0  0  0  0  0  0  0
  128.3920  124.5500   58.1060 C   0  0  0  0  0  0  0  0  0  0  0  0
  128.5760  123.9230   59.3320 C   0  0  0  0  0  0  0  0  0  0  0  0
  127.9300  122.6890   59.2660 C   0  0  0  0  0  0  0  0  0  0  0  0
  127.3740  122.6130   58.0020 C   0  0  0  0  0  0  0  0  0  0  0  0
  127.6530  123.7420   57.3010 O   0  0  0  0  0  0  0  0  0  0  0  0
  128.7260  127.1430   58.4680 C   0  0  1  0  0  0  0  0  0  0  0  0
  127.3530  127.0250   59.6860 S   0  0  0  0  0  0  0  0  0  0  0  0
  126.8070  128.6550   59.3460 C   0  0  0  0  0  0  0  0  0  0  0  0
  125.6090  129.3100   60.3050 S   0  0  0  0  0  0  0  0  0  0  0  0
  127.4550  129.1680   58.2590 N   0  0  0  0  0  0  0  0  0  0  0  0
  127.0790  130.4750   57.6690 C   0  0  0  0  0  0  0  0  0  0  0  0
  127.5530  131.6670   58.4840 C   0  0  0  0  0  0  0  0  0  0  0  0
  127.1330  132.2370   59.6780 C   0  0  0  0  0  0  0  0  0  0  0  0
  127.9830  133.3130   59.9400 C   0  0  0  0  0  0  0  0  0  0  0  0
  128.8900  133.3510   58.8960 C   0  0  0  0  0  0  0  0  0  0  0  0
  128.6310  132.3500   58.0160 O   0  0  0  0  0  0  0  0  0  0  0  0
  128.2730  128.3360   57.5810 C   0  0  0  0  0  0  0  0  0  0  0  0
  128.6540  128.5080   56.4180 O   0  0  0  0  0  0  0  0  0  0  0  0
  131.1917  133.3977   57.9549 H   0  0  0  0  0  0  0  0  0  0  0  0
  132.0703  133.6308   56.4056 H   0  0  0  0  0  0  0  0  0  0  0  0
  130.4256  132.9085   56.4056 H   0  0  0  0  0  0  0  0  0  0  0  0
  132.0398  132.3804   59.7318 H   0  0  0  0  0  0  0  0  0  0  0  0
  131.4462  130.8465   61.6132 H   0  0  0  0  0  0  0  0  0  0  0  0
  131.1300  129.2440   56.8961 H   0  0  0  0  0  0  0  0  0  0  0  0
  130.7570  128.2490   62.1540 H   0  0  0  0  0  0  0  0  0  0  0  0
  132.9628  126.5597   59.0905 H   0  0  0  0  0  0  0  0  0  0  0  0
  132.8751  125.6410   57.5493 H   0  0  0  0  0  0  0  0  0  0  0  0
  132.6307  127.4206   57.5493 H   0  0  0  0  0  0  0  0  0  0  0  0
  130.4911  126.5923   56.2959 H   0  0  0  0  0  0  0  0  0  0  0  0
  130.6424  124.8986   56.7522 H   0  0  0  0  0  0  0  0  0  0  0  0
  128.1383  125.9899   56.6941 H   0  0  0  0  0  0  0  0  0  0  0  0
  129.1283  124.3251   60.1941 H   0  0  0  0  0  0  0  0  0  0  0  0
  127.8739  121.9291   60.0594 H   0  0  0  0  0  0  0  0  0  0  0  0
  126.7908  121.7621   57.6202 H   0  0  0  0  0  0  0  0  0  0  0  0
  127.5202  130.5430   56.6637 H   0  0  0  0  0  0  0  0  0  0  0  0
  125.9800  130.5153   57.6459 H   0  0  0  0  0  0  0  0  0  0  0  0
  126.2895  131.9037   60.3004 H   0  0  0  0  0  0  0  0  0  0  0  0
  127.9402  133.9937   60.8030 H   0  0  0  0  0  0  0  0  0  0  0  0
  129.7026  134.0853   58.7938 H   0  0  0  0  0  0  0  0  0  0  0  0
  1  2  1  0
  2  3  1  0
  3  4  2  0
  4  5  1  0
  5  6  2  0
  6  7  1  0
  7  8  2  0
  7  9  1  0
  9 10  1  0
 10 11  2  0
 10 12  1  0
  9 13  1  6
 13 14  1  0
 13 15  1  0
 15 16  1  0
 16 17  1  0
 17 18  2  0
 18 19  1  0
 19 20  2  0
 20 21  1  0
 16 22  1  0
 22 23  1  1
 23 24  1  0
 24 25  2  0
 24 26  1  0
 26 27  1  0
 27 28  1  0
 28 29  2  0
 29 30  1  0
 30 31  2  0
 31 32  1  0
 26 33  1  0
 33 34  2  0
  8  3  1  0
 22  9  1  0
 32 28  1  0
 12  6  1  0
 21 17  1  0
 33 22  1  0
  1 35  1  0
  1 36  1  0
  1 37  1  0
  4 38  1  0
  5 39  1  0
  8 40  1  0
 12 41  1  0
 14 42  1  0
 14 43  1  0
 14 44  1  0
 15 45  1  0
 15 46  1  0
 16 47  1  6
 18 48  1  0
 19 49  1  0
 20 50  1  0
 27 51  1  0
 27 52  1  0
 29 53  1  0
 30 54  1  0
 31 55  1  0
M  END
>  <Binding energies>  (1) 
[-6.01]

>  <Ligand effiencies>  (1) 
[-0.1717142857142857]

>  <Interactions>  (1) 
["V-A:ASP:366:CA:3210, V-B:PRO:540:CA:9855, V-A:ILE:538:CB:4862, V-B:ASP:366:CG:8184, H-A:TYR:531:OH:4795, V-B:TYR:539:CE2:9848, V-B:TYR:539:C:9839, V-A:ASP:366:CG:3213, V-A:LEU:363:CD1:3189, V-A:TYR:539:CD1:4873, V-B:TYR:539:CZ:9849, H-B:TYR:539:OH:9850, V-A:TYR:539:CA:4869, V-B:ASP:366:CB:8183, V-B:PRO:540:CB:9857, V-B:PRO:540:N:9856, V-B:TYR:539:CD2:9846, V-A:TYR:539:C:4867, H-B:TYR:531:OH:9767, V-A:ASP:366:CB:3212, H-A:GLU:543:OE1:4909, V-B:TYR:539:CG:9844, V-A:PRO:540:N:4884, V-A:TYR:539:CG:4872, V-A:PRO:540:CB:4885, V-A:PRO:540:CA:4883, H-A:ASP:366:OD2:3215, V-A:PRO:540:CD:4887, V-A:TYR:539:CE1:4875"]

$$$$
ZINC14977405
     RDKit          3D

 53 56  0  0  0  0  0  0  0  0999 V2000
  130.8250  127.2920   58.2080 N   0  0  0  0  0  0  0  0  0  0  0  0
  130.7260  126.9440   59.3080 C   0  0  0  0  0  0  0  0  0  0  0  0
  130.6000  126.5030   60.6960 C   0  0  0  0  0  0  0  0  0  0  0  0
  131.0150  125.2070   60.9890 C   0  0  0  0  0  0  0  0  0  0  0  0
  130.8850  124.6260   62.2000 N   0  0  0  0  0  0  0  0  0  0  0  0
  130.3010  125.3310   63.2070 C   0  0  0  0  0  0  0  0  0  0  0  0
  130.1430  124.7100   64.4790 C   0  0  0  0  0  0  0  0  0  0  0  0
  130.6720  123.0860   64.7710 Cl  0  0  0  0  0  0  0  0  0  0  0  0
  129.5500  125.4100   65.5250 C   0  0  0  0  0  0  0  0  0  0  0  0
  129.1020  126.7230   65.3590 C   0  0  0  0  0  0  0  0  0  0  0  0
  128.5010  127.4620   66.3910 N   0  0  0  0  0  0  0  0  0  0  0  0
  129.2460  127.8790   67.5740 C   0  0  0  0  0  0  0  0  0  0  0  0
  128.5240  127.4400   68.8370 C   0  0  0  0  0  0  0  0  0  0  0  0
  127.2040  126.9960   68.7830 C   0  0  0  0  0  0  0  0  0  0  0  0
  126.5170  126.6070   69.8810 N   0  0  0  0  0  0  0  0  0  0  0  0
  127.1440  126.6670   71.0820 C   0  0  0  0  0  0  0  0  0  0  0  0
  128.4700  127.1160   71.2710 C   0  0  0  0  0  0  0  0  0  0  0  0
  129.1060  127.1440   72.7180 C   0  0  0  0  0  0  0  0  0  0  0  0
  129.1300  125.8370   73.2580 O   0  0  0  0  0  0  0  0  0  0  0  0
  130.5840  127.6950   72.6420 C   0  0  0  0  0  0  0  0  0  0  0  0
  131.3140  127.0500   71.7260 F   0  0  0  0  0  0  0  0  0  0  0  0
  130.6590  128.9890   72.3290 F   0  0  0  0  0  0  0  0  0  0  0  0
  131.2380  127.5810   73.8040 F   0  0  0  0  0  0  0  0  0  0  0  0
  128.2370  128.0830   73.6360 C   0  0  0  0  0  0  0  0  0  0  0  0
  126.9320  127.8030   73.5540 F   0  0  0  0  0  0  0  0  0  0  0  0
  128.5690  127.9920   74.9290 F   0  0  0  0  0  0  0  0  0  0  0  0
  128.3560  129.3770   73.3280 F   0  0  0  0  0  0  0  0  0  0  0  0
  129.1490  127.5030   70.0880 C   0  0  0  0  0  0  0  0  0  0  0  0
  129.2490  127.3440   64.1210 C   0  0  0  0  0  0  0  0  0  0  0  0
  129.8470  126.6750   63.0150 C   0  0  0  0  0  0  0  0  0  0  0  0
  130.0290  127.2850   61.7260 C   0  0  0  0  0  0  0  0  0  0  0  0
  129.5820  128.6130   61.5300 N   0  0  0  0  0  0  0  0  0  0  0  0
  130.0740  129.6400   60.7100 C   0  0  0  0  0  0  0  0  0  0  0  0
  131.3230  130.1920   61.0110 C   0  0  0  0  0  0  0  0  0  0  0  0
  131.8610  131.2020   60.2140 C   0  0  0  0  0  0  0  0  0  0  0  0
  131.1610  131.6610   59.0980 C   0  0  0  0  0  0  0  0  0  0  0  0
  131.6930  132.6420   58.3320 F   0  0  0  0  0  0  0  0  0  0  0  0
  129.9200  131.1040   58.7780 C   0  0  0  0  0  0  0  0  0  0  0  0
  129.0430  131.6500   57.3940 Cl  0  0  0  0  0  0  0  0  0  0  0  0
  129.3840  130.0930   59.5760 C   0  0  0  0  0  0  0  0  0  0  0  0
  131.4781  124.6195   60.1826 H   0  0  0  0  0  0  0  0  0  0  0  0
  129.4315  124.9198   66.5026 H   0  0  0  0  0  0  0  0  0  0  0  0
  127.6550  127.9700   66.1760 H   0  0  0  0  0  0  0  0  0  0  0  0
  130.2467  127.4229   67.5515 H   0  0  0  0  0  0  0  0  0  0  0  0
  129.3303  128.9758   67.5742 H   0  0  0  0  0  0  0  0  0  0  0  0
  126.6997  126.9605   67.8061 H   0  0  0  0  0  0  0  0  0  0  0  0
  126.5813  126.3438   71.9702 H   0  0  0  0  0  0  0  0  0  0  0  0
  130.1874  127.8598   70.1545 H   0  0  0  0  0  0  0  0  0  0  0  0
  128.8942  128.3775   63.9943 H   0  0  0  0  0  0  0  0  0  0  0  0
  128.9250  128.9320   62.2270 H   0  0  0  0  0  0  0  0  0  0  0  0
  131.8854  129.8268   61.8830 H   0  0  0  0  0  0  0  0  0  0  0  0
  132.8392  131.6376   60.4658 H   0  0  0  0  0  0  0  0  0  0  0  0
  128.4129  129.6477   59.3139 H   0  0  0  0  0  0  0  0  0  0  0  0
  1  2  3  0
  2  3  1  0
  3  4  2  0
  4  5  1  0
  5  6  2  0
  6  7  1  0
  7  8  1  0
  7  9  2  0
  9 10  1  0
 10 11  1  0
 11 12  1  0
 12 13  1  0
 13 14  2  0
 14 15  1  0
 15 16  2  0
 16 17  1  0
 17 18  1  0
 18 19  1  0
 18 20  1  0
 20 21  1  0
 20 22  1  0
 20 23  1  0
 18 24  1  0
 24 25  1  0
 24 26  1  0
 24 27  1  0
 17 28  2  0
 10 29  2  0
 29 30  1  0
 30 31  2  0
 31 32  1  0
 32 33  1  0
 33 34  2  0
 34 35  1  0
 35 36  2  0
 36 37  1  0
 36 38  1  0
 38 39  1  0
 38 40  2  0
 31  3  1  0
 40 33  1  0
 30  6  1  0
 28 13  1  0
  4 41  1  0
  9 42  1  0
 11 43  1  0
 12 44  1  0
 12 45  1  0
 14 46  1  0
 16 47  1  0
 28 48  1  0
 29 49  1  0
 32 50  1  0
 34 51  1  0
 35 52  1  0
 40 53  1  0
M  CHG  1  19  -1
M  END
>  <Binding energies>  (1) 
[-7.14]

>  <Ligand effiencies>  (1) 
[-0.16999999999999998]

>  <Interactions>  (1) 
["V-A:PRO:540:CG:4886, V-B:GLU:543:C:9874, V-B:HIS:456:CD2:9039, V-A:GLU:543:C:4902, V-B:GLU:543:CB:9878, H-B:LYS:547:NZ:9923, V-B:HIS:456:CB:9036, H-A:TYR:531:OH:4795, V-A:TYR:484:CE2:4346, V-A:GLY:544:CA:4914, V-B:GLU:543:CG:9879, V-A:GLY:544:C:4912, V-A:HIS:456:CD2:4068, H-B:HIS:456:ND1:9038, V-A:LEU:363:CD1:3189, H-B:ARG:545:N:9892, V-B:LYS:547:CE:9922, V-A:GLU:543:CD:4908, V-A:TYR:484:CZ:4347, V-B:HIS:456:CE1:9041, H-B:GLY:544:N:9887, V-B:GLU:543:CA:9876, V-A:HIS:456:CE1:4070, V-B:GLY:544:C:9884, V-B:GLY:544:CA:9886, V-A:GLU:543:CG:4907, V-B:GLU:543:CD:9880, V-A:MET:535:CE:4835, V-B:HIS:456:CG:9037, V-A:LEU:475:CD2:4259, H-A:GLU:543:OE1:4909, V-A:GLU:543:CB:4906, V-A:HIS:456:CG:4066, V-A:PRO:540:N:4884, H-B:GLU:543:OE2:9882, V-A:PRO:540:CA:4883, V-A:PRO:540:CB:4885, V-A:LYS:547:CE:4950, V-A:PRO:540:CD:4887"]

$$$$
ZINC14977405-again1
     RDKit          3D

 54 57  0  0  0  0  0  0  0  0999 V2000
  132.7300  124.7050   59.0890 N   0  0  0  0  0  0  0  0  0  0  0  0
  132.7020  124.7440   60.2450 C   0  0  0  0  0  0  0  0  0  0  0  0
  132.6650  124.7940   61.7060 C   0  0  0  0  0  0  0  0  0  0  0  0
  133.8800  124.6590   62.3740 C   0  0  0  0  0  0  0  0  0  0  0  0
  134.0220  124.7660   63.7110 N   0  0  0  0  0  0  0  0  0  0  0  0
  132.9270  125.0400   64.4700 C   0  0  0  0  0  0  0  0  0  0  0  0
  133.0820  125.1770   65.8780 C   0  0  0  0  0  0  0  0  0  0  0  0
  134.6260  125.0020   66.6450 Cl  0  0  0  0  0  0  0  0  0  0  0  0
  131.9770  125.4590   66.6750 C   0  0  0  0  0  0  0  0  0  0  0  0
  130.7030  125.6130   66.1230 C   0  0  0  0  0  0  0  0  0  0  0  0
  129.5640  125.9050   66.8940 N   0  0  0  0  0  0  0  0  0  0  0  0
  129.3200  127.2430   67.4230 C   0  0  0  0  0  0  0  0  0  0  0  0
  128.5460  127.1660   68.7280 C   0  0  0  0  0  0  0  0  0  0  0  0
  127.1580  127.0150   68.7280 C   0  0  0  0  0  0  0  0  0  0  0  0
  126.4280  126.9150   69.8630 N   0  0  0  0  0  0  0  0  0  0  0  0
  127.0870  126.9610   71.0480 C   0  0  0  0  0  0  0  0  0  0  0  0
  128.4790  127.1040   71.1630 C   0  0  0  0  0  0  0  0  0  0  0  0
  129.1680  127.1380   72.5520 C   0  0  0  0  0  0  0  0  0  0  0  0
  129.3400  125.8250   73.0840 O   0  0  0  0  0  0  0  0  0  0  0  0
  130.6120  127.7310   72.4520 C   0  0  0  0  0  0  0  0  0  0  0  0
  131.2550  127.6560   73.6200 F   0  0  0  0  0  0  0  0  0  0  0  0
  131.3700  127.1070   71.5480 F   0  0  0  0  0  0  0  0  0  0  0  0
  130.6040  129.0200   72.1060 F   0  0  0  0  0  0  0  0  0  0  0  0
  128.2780  127.8940   73.5920 C   0  0  0  0  0  0  0  0  0  0  0  0
  127.0460  127.3810   73.6490 F   0  0  0  0  0  0  0  0  0  0  0  0
  128.7760  127.8220   74.8290 F   0  0  0  0  0  0  0  0  0  0  0  0
  128.1470  129.1930   73.3150 F   0  0  0  0  0  0  0  0  0  0  0  0
  129.2040  127.2050   69.9620 C   0  0  0  0  0  0  0  0  0  0  0  0
  130.5330  125.4810   64.7480 C   0  0  0  0  0  0  0  0  0  0  0  0
  131.6300  125.1930   63.8840 C   0  0  0  0  0  0  0  0  0  0  0  0
  131.4930  125.0330   62.4610 C   0  0  0  0  0  0  0  0  0  0  0  0
  130.2150  125.1750   61.8770 N   0  0  0  0  0  0  0  0  0  0  0  0
  129.5730  124.4250   60.8750 C   0  0  0  0  0  0  0  0  0  0  0  0
  129.2170  123.1040   61.1600 C   0  0  0  0  0  0  0  0  0  0  0  0
  128.5960  122.3160   60.1900 C   0  0  0  0  0  0  0  0  0  0  0  0
  128.3350  122.8390   58.9230 C   0  0  0  0  0  0  0  0  0  0  0  0
  127.7310  122.0640   57.9920 F   0  0  0  0  0  0  0  0  0  0  0  0
  128.7030  124.1530   58.6240 C   0  0  0  0  0  0  0  0  0  0  0  0
  128.4000  124.8160   57.0580 Cl  0  0  0  0  0  0  0  0  0  0  0  0
  129.3260  124.9390   59.5950 C   0  0  0  0  0  0  0  0  0  0  0  0
  134.7787  124.4525   61.7743 H   0  0  0  0  0  0  0  0  0  0  0  0
  132.1093  125.5628   67.7621 H   0  0  0  0  0  0  0  0  0  0  0  0
  129.1130  125.1340   67.3660 H   0  0  0  0  0  0  0  0  0  0  0  0
  130.2834  127.7426   67.6024 H   0  0  0  0  0  0  0  0  0  0  0  0
  128.7281  127.8125   66.6913 H   0  0  0  0  0  0  0  0  0  0  0  0
  126.6341  126.9755   67.7616 H   0  0  0  0  0  0  0  0  0  0  0  0
  126.4963  126.8816   71.9726 H   0  0  0  0  0  0  0  0  0  0  0  0
  130.2800  125.6250   73.1050 H   0  0  0  0  0  0  0  0  0  0  0  0
  130.2980  127.3156   69.9932 H   0  0  0  0  0  0  0  0  0  0  0  0
  129.5280  125.6018   64.3174 H   0  0  0  0  0  0  0  0  0  0  0  0
  129.5920  125.7850   62.3860 H   0  0  0  0  0  0  0  0  0  0  0  0
  129.4274  122.6831   62.1543 H   0  0  0  0  0  0  0  0  0  0  0  0
  128.3115  121.2797   60.4249 H   0  0  0  0  0  0  0  0  0  0  0  0
  129.6253  125.9696   59.3535 H   0  0  0  0  0  0  0  0  0  0  0  0
  1  2  3  0
  2  3  1  0
  3  4  2  0
  4  5  1  0
  5  6  2  0
  6  7  1  0
  7  8  1  0
  7  9  2  0
  9 10  1  0
 10 11  1  0
 11 12  1  0
 12 13  1  0
 13 14  2  0
 14 15  1  0
 15 16  2  0
 16 17  1  0
 17 18  1  0
 18 19  1  0
 18 20  1  0
 20 21  1  0
 20 22  1  0
 20 23  1  0
 18 24  1  0
 24 25  1  0
 24 26  1  0
 24 27  1  0
 17 28  2  0
 10 29  2  0
 29 30  1  0
 30 31  2  0
 31 32  1  0
 32 33  1  0
 33 34  2  0
 34 35  1  0
 35 36  2  0
 36 37  1  0
 36 38  1  0
 38 39  1  0
 38 40  2  0
 31  3  1  0
 40 33  1  0
 30  6  1  0
 28 13  1  0
  4 41  1  0
  9 42  1  0
 11 43  1  0
 12 44  1  0
 12 45  1  0
 14 46  1  0
 16 47  1  0
 19 48  1  0
 28 49  1  0
 29 50  1  0
 32 51  1  0
 34 52  1  0
 35 53  1  0
 40 54  1  0
M  END
>  <Binding energies>  (1) 
[-8.02]

>  <Ligand effiencies>  (1) 
[-0.18651162790697673]

>  <Interactions>  (1) 
["V-B:TYR:539:CA:9841, V-B:PRO:540:CA:9855, V-A:GLY:454:CA:4049, V-B:GLU:543:C:9874, V-B:HIS:456:CD2:9039, H-B:GLU:543:O:9875, V-A:GLU:543:C:4902, V-B:GLU:543:CB:9878, H-B:LYS:547:NZ:9923, H-A:ARG:545:NH1:4927, V-B:TYR:539:CE2:9848, V-A:GLY:544:CA:4914, V-B:GLU:543:CG:9879, V-A:GLY:544:C:4912, V-B:TYR:539:C:9839, V-A:ASP:366:CG:3213, V-A:HIS:456:CD2:4068, H-B:HIS:456:ND1:9038, V-B:TYR:539:CZ:9849, H-B:TYR:539:OH:9850, H-B:ARG:545:N:9892, V-B:LYS:547:CE:9922, V-A:GLU:543:CD:4908, V-A:TYR:484:CZ:4347, V-B:PRO:540:CB:9857, V-A:ARG:545:CG:4922, H-A:GLY:454:N:4050, V-B:HIS:456:CE1:9041, V-A:GLY:453:C:4042, V-B:GLU:543:CA:9876, V-B:PRO:540:N:9856, V-A:HIS:456:CE1:4070, V-B:GLY:544:C:9884, V-B:TYR:539:CD2:9846, V-B:PRO:540:CD:9859, V-B:GLY:544:CA:9886, V-B:GLU:543:CD:9880, V-B:HIS:456:CG:9037, V-A:ARG:545:CD:4923, H-A:ARG:545:NH2:4928, V-A:ARG:545:CZ:4926, V-B:TYR:539:CG:9844, V-A:GLU:543:CB:4906, V-A:HIS:456:CG:4066, V-B:TYR:539:CD1:9845, V-A:GLY:453:CA:4044, V-A:LYS:547:CE:4950, V-A:GLY:454:C:4047, H-A:HIS:456:NE2:4071"]

$$$$
ZINC1500978128
     RDKit          3D

 85 89  0  0  0  0  0  0  0  0999 V2000
  126.5740  134.0950   61.8610 C   0  0  0  0  0  0  0  0  0  0  0  0
  127.9950  133.8610   61.3650 C   0  0  0  0  0  0  0  0  0  0  0  0
  128.9370  133.7410   62.1500 O   0  0  0  0  0  0  0  0  0  0  0  0
  128.0630  133.8060   60.0160 O   0  0  0  0  0  0  0  0  0  0  0  0
  127.9310  132.5720   59.2990 C   0  0  2  0  0  0  0  0  0  0  0  0
  127.4080  131.4680   60.2300 C   0  0  0  0  0  0  0  0  0  0  0  0
  127.0420  130.2180   59.4240 C   0  0  0  0  0  0  0  0  0  0  0  0
  128.0860  129.6810   58.3700 C   0  0  1  0  0  0  0  0  0  0  0  0
  127.1930  129.1760   57.1810 C   0  0  0  0  0  0  0  0  0  0  0  0
  129.0710  130.8170   57.7910 C   0  0  2  0  0  0  0  0  0  0  0  0
  130.4170  130.2500   57.2250 C   0  0  0  0  0  0  0  0  0  0  0  0
  131.0190  129.0050   57.9220 C   0  0  0  0  0  0  0  0  0  0  0  0
  130.0360  127.8070   58.1350 C   0  0  2  0  0  0  0  0  0  0  0  0
  129.5490  127.2920   56.7350 C   0  0  0  0  0  0  0  0  0  0  0  0
  128.8790  128.4420   59.0110 C   0  0  1  0  0  0  0  0  0  0  0  0
  129.3680  128.7750   60.4510 C   0  0  0  0  0  0  0  0  0  0  0  0
  130.2700  127.7360   61.0560 C   0  0  0  0  0  0  0  0  0  0  0  0
  130.8590  126.7190   60.4040 C   0  0  0  0  0  0  0  0  0  0  0  0
  131.5660  125.5620   61.1520 C   0  0  1  0  0  0  0  0  0  0  0  0
  131.9620  125.8300   62.6390 C   0  0  0  0  0  0  0  0  0  0  0  0
  132.7310  124.6350   63.2900 C   0  0  1  0  0  0  0  0  0  0  0  0
  134.1570  124.5100   62.6690 C   0  0  0  0  0  0  0  0  0  0  0  0
  132.9120  124.8980   64.8150 C   0  0  0  0  0  0  0  0  0  0  0  0
  133.9930  124.9780   65.4010 O   0  0  0  0  0  0  0  0  0  0  0  0
  131.3520  125.1030   65.7350 Cl  0  0  0  0  0  0  0  0  0  0  0  0
  131.9490  123.2970   63.0830 C   0  0  0  0  0  0  0  0  0  0  0  0
  131.5160  123.0890   61.6120 C   0  0  0  0  0  0  0  0  0  0  0  0
  130.6850  124.2710   61.0220 C   0  0  1  0  0  0  0  0  0  0  0  0
  129.3070  124.3900   61.7400 C   0  0  0  0  0  0  0  0  0  0  0  0
  130.4430  123.9900   59.5120 C   0  0  0  0  0  0  0  0  0  0  0  0
  129.9010  125.2080   58.7200 C   0  0  0  0  0  0  0  0  0  0  0  0
  130.7350  126.5370   58.8660 C   0  0  1  0  0  0  0  0  0  0  0  0
  132.1690  126.3200   58.2690 C   0  0  0  0  0  0  0  0  0  0  0  0
  129.2670  132.1850   58.5930 C   0  0  0  0  0  0  0  0  0  0  0  0
  129.5290  133.3090   57.5420 C   0  0  0  0  0  0  0  0  0  0  0  0
  130.4250  132.1580   59.6390 C   0  0  0  0  0  0  0  0  0  0  0  0
  126.5652  134.0965   62.9610 H   0  0  0  0  0  0  0  0  0  0  0  0
  126.2112  135.0650   61.4901 H   0  0  0  0  0  0  0  0  0  0  0  0
  125.9194  133.2926   61.4901 H   0  0  0  0  0  0  0  0  0  0  0  0
  127.1871  132.7016   58.4991 H   0  0  0  0  0  0  0  0  0  0  0  0
  128.1881  131.2116   60.9620 H   0  0  0  0  0  0  0  0  0  0  0  0
  126.5092  131.8343   60.7477 H   0  0  0  0  0  0  0  0  0  0  0  0
  126.8586  129.4071   60.1443 H   0  0  0  0  0  0  0  0  0  0  0  0
  126.1765  130.5263   58.8191 H   0  0  0  0  0  0  0  0  0  0  0  0
  126.3010  128.6716   57.5809 H   0  0  0  0  0  0  0  0  0  0  0  0
  126.8841  130.0331   56.5646 H   0  0  0  0  0  0  0  0  0  0  0  0
  127.7684  128.4696   56.5646 H   0  0  0  0  0  0  0  0  0  0  0  0
  128.4506  131.1700   56.9541 H   0  0  0  0  0  0  0  0  0  0  0  0
  130.2459  129.9866   56.1708 H   0  0  0  0  0  0  0  0  0  0  0  0
  131.1521  131.0500   57.3975 H   0  0  0  0  0  0  0  0  0  0  0  0
  131.8598  128.6478   57.3093 H   0  0  0  0  0  0  0  0  0  0  0  0
  131.3114  129.3365   58.9293 H   0  0  0  0  0  0  0  0  0  0  0  0
  128.7995  126.4994   56.8763 H   0  0  0  0  0  0  0  0  0  0  0  0
  129.1005  128.1249   56.1736 H   0  0  0  0  0  0  0  0  0  0  0  0
  130.4056  126.8907   56.1736 H   0  0  0  0  0  0  0  0  0  0  0  0
  128.1259  127.6412   59.0486 H   0  0  0  0  0  0  0  0  0  0  0  0
  129.9158  129.7283   60.4165 H   0  0  0  0  0  0  0  0  0  0  0  0
  128.4703  128.8192   61.0851 H   0  0  0  0  0  0  0  0  0  0  0  0
  130.4668  127.8156   62.1353 H   0  0  0  0  0  0  0  0  0  0  0  0
  132.5419  125.4400   60.6593 H   0  0  0  0  0  0  0  0  0  0  0  0
  132.6045  126.7221   62.6755 H   0  0  0  0  0  0  0  0  0  0  0  0
  131.0310  125.9716   63.2075 H   0  0  0  0  0  0  0  0  0  0  0  0
  134.9033  124.4446   63.4745 H   0  0  0  0  0  0  0  0  0  0  0  0
  134.2081  123.6039   62.0474 H   0  0  0  0  0  0  0  0  0  0  0  0
  134.3649  125.3934   62.0474 H   0  0  0  0  0  0  0  0  0  0  0  0
  132.5961  122.4595   63.3827 H   0  0  0  0  0  0  0  0  0  0  0  0
  131.0380  123.3421   63.6979 H   0  0  0  0  0  0  0  0  0  0  0  0
  132.4210  122.9627   60.9995 H   0  0  0  0  0  0  0  0  0  0  0  0
  130.8654  122.2022   61.5940 H   0  0  0  0  0  0  0  0  0  0  0  0
  129.4588  124.3769   62.8294 H   0  0  0  0  0  0  0  0  0  0  0  0
  128.8220  125.3334   61.4487 H   0  0  0  0  0  0  0  0  0  0  0  0
  128.6675  123.5437   61.4487 H   0  0  0  0  0  0  0  0  0  0  0  0
  131.3976  123.6816   59.0607 H   0  0  0  0  0  0  0  0  0  0  0  0
  129.6731  123.2065   59.4547 H   0  0  0  0  0  0  0  0  0  0  0  0
  129.8792  124.9368   57.6542 H   0  0  0  0  0  0  0  0  0  0  0  0
  128.9089  125.4258   59.1422 H   0  0  0  0  0  0  0  0  0  0  0  0
  132.8946  126.2102   59.0885 H   0  0  0  0  0  0  0  0  0  0  0  0
  132.1747  125.4108   57.6499 H   0  0  0  0  0  0  0  0  0  0  0  0
  132.4435  127.1868   57.6499 H   0  0  0  0  0  0  0  0  0  0  0  0
  129.7491  134.2531   58.0619 H   0  0  0  0  0  0  0  0  0  0  0  0
  130.3860  133.0291   56.9117 H   0  0  0  0  0  0  0  0  0  0  0  0
  128.6366  133.4369   56.9117 H   0  0  0  0  0  0  0  0  0  0  0  0
  130.0022  132.1679   60.6544 H   0  0  0  0  0  0  0  0  0  0  0  0
  131.0236  131.2457   59.4999 H   0  0  0  0  0  0  0  0  0  0  0  0
  131.0654  133.0415   59.4999 H   0  0  0  0  0  0  0  0  0  0  0  0
  1  2  1  0
  2  3  2  0
  2  4  1  0
  4  5  1  0
  5  6  1  0
  6  7  1  0
  7  8  1  0
  8  9  1  6
  8 10  1  0
 10 11  1  0
 11 12  1  0
 12 13  1  0
 13 14  1  6
 13 15  1  0
 15 16  1  0
 16 17  1  0
 17 18  2  0
 18 19  1  0
 19 20  1  0
 20 21  1  0
 21 22  1  6
 21 23  1  0
 23 24  2  0
 23 25  1  0
 21 26  1  0
 26 27  1  0
 27 28  1  0
 28 29  1  1
 28 30  1  0
 30 31  1  0
 31 32  1  0
 32 33  1  6
 10 34  1  0
 34 35  1  0
 34 36  1  0
 34  5  1  0
 15  8  1  0
 32 18  1  0
 32 13  1  0
 28 19  1  0
  1 37  1  0
  1 38  1  0
  1 39  1  0
  5 40  1  6
  6 41  1  0
  6 42  1  0
  7 43  1  0
  7 44  1  0
  9 45  1  0
  9 46  1  0
  9 47  1  0
 10 48  1  6
 11 49  1  0
 11 50  1  0
 12 51  1  0
 12 52  1  0
 14 53  1  0
 14 54  1  0
 14 55  1  0
 15 56  1  1
 16 57  1  0
 16 58  1  0
 17 59  1  0
 19 60  1  6
 20 61  1  0
 20 62  1  0
 22 63  1  0
 22 64  1  0
 22 65  1  0
 26 66  1  0
 26 67  1  0
 27 68  1  0
 27 69  1  0
 29 70  1  0
 29 71  1  0
 29 72  1  0
 30 73  1  0
 30 74  1  0
 31 75  1  0
 31 76  1  0
 33 77  1  0
 33 78  1  0
 33 79  1  0
 35 80  1  0
 35 81  1  0
 35 82  1  0
 36 83  1  0
 36 84  1  0
 36 85  1  0
M  END
>  <Binding energies>  (1) 
[-8.96]

>  <Ligand effiencies>  (1) 
[-0.2488888888888889]

>  <Interactions>  (1) 
["H-A:ALA:541:N:4891, V-B:TYR:539:CE2:9848, V-B:LEU:475:CD2:9230, V-A:ASP:366:CG:3213, V-A:TYR:539:CD1:4873, V-B:TYR:539:CZ:9849, V-A:TYR:539:CA:4869, V-A:TYR:484:CZ:4347, H-A:GLY:454:N:4050, V-B:TYR:539:CD2:9846, V-A:TYR:531:CZ:4794, V-A:MET:535:CE:4835, V-A:TYR:539:C:4867, V-A:ASP:366:CB:3212, V-A:LEU:475:CD2:4259, H-A:ARG:545:NH2:4928, V-A:ARG:545:CZ:4926, V-A:PRO:540:N:4884, V-A:TYR:539:CG:4872, V-A:GLY:453:CA:4044, V-A:PRO:540:CA:4883, V-A:PRO:540:CB:4885, H-A:ARG:545:NE:4924, V-A:TYR:539:CE1:4875, H-A:TYR:484:OH:4348"]

$$$$
ZINC1501018232
     RDKit          3D

 76 75  0  0  0  0  0  0  0  0999 V2000
  132.6040  122.8910   62.1940 C   0  0  0  0  0  0  0  0  0  0  0  0
  133.1810  124.3180   62.0320 C   0  0  0  0  0  0  0  0  0  0  0  0
  132.7380  124.9380   60.6820 C   0  0  0  0  0  0  0  0  0  0  0  0
  134.7220  124.2630   62.0770 C   0  0  0  0  0  0  0  0  0  0  0  0
  132.8270  125.1340   63.1640 O   0  0  0  0  0  0  0  0  0  0  0  0
  132.9310  124.7600   64.4750 C   0  0  0  0  0  0  0  0  0  0  0  0
  133.9840  124.7290   65.1100 O   0  0  0  0  0  0  0  0  0  0  0  0
  131.6960  124.4070   65.0180 N   0  0  0  0  0  0  0  0  0  0  0  0
  130.3780  124.5670   64.3840 C   0  0  0  0  0  0  0  0  0  0  0  0
  129.6200  125.8620   64.7620 C   0  0  0  0  0  0  0  0  0  0  0  0
  129.5500  126.8940   63.6340 C   0  0  0  0  0  0  0  0  0  0  0  0
  130.0520  126.6680   62.5310 O   0  0  0  0  0  0  0  0  0  0  0  0
  128.8710  127.9980   63.9890 O   0  0  0  0  0  0  0  0  0  0  0  0
  127.7400  128.4240   63.2380 C   0  0  0  0  0  0  0  0  0  0  0  0
  127.0650  129.6880   63.8450 C   0  0  0  0  0  0  0  0  0  0  0  0
  125.7010  129.9660   63.1440 C   0  0  0  0  0  0  0  0  0  0  0  0
  126.8440  129.5190   65.3740 C   0  0  0  0  0  0  0  0  0  0  0  0
  127.9880  129.9070   66.1260 O   0  0  0  0  0  0  0  0  0  0  0  0
  128.2570  129.3420   67.3220 C   0  0  0  0  0  0  0  0  0  0  0  0
  128.7150  129.9220   68.3080 O   0  0  0  0  0  0  0  0  0  0  0  0
  127.9250  127.8420   67.3740 C   0  0  0  0  0  0  0  0  0  0  0  0
  129.0610  126.9140   67.8710 C   0  0  0  0  0  0  0  0  0  0  0  0
  130.2330  127.6490   68.3640 N   0  0  0  0  0  0  0  0  0  0  0  0
  130.6450  127.7030   69.6920 C   0  0  0  0  0  0  0  0  0  0  0  0
  131.5880  128.3880   70.0830 O   0  0  0  0  0  0  0  0  0  0  0  0
  129.8760  126.9030   70.4930 O   0  0  0  0  0  0  0  0  0  0  0  0
  129.0880  127.3530   71.6100 C   0  0  0  0  0  0  0  0  0  0  0  0
  127.5720  127.1670   71.3590 C   0  0  0  0  0  0  0  0  0  0  0  0
  129.5280  126.6390   72.9120 C   0  0  0  0  0  0  0  0  0  0  0  0
  129.4030  128.8590   71.7120 C   0  0  0  0  0  0  0  0  0  0  0  0
  128.0300  130.8860   63.6290 C   0  0  0  0  0  0  0  0  0  0  0  0
  127.9830  131.9080   64.3200 O   0  0  0  0  0  0  0  0  0  0  0  0
  128.9030  130.6800   62.6120 O   0  0  0  0  0  0  0  0  0  0  0  0
  130.0010  131.5600   62.4000 C   0  0  0  0  0  0  0  0  0  0  0  0
  131.0980  130.8480   61.5970 C   0  0  0  0  0  0  0  0  0  0  0  0
  130.5820  129.1550   61.1940 S   0  0  0  0  0  0  0  0  0  0  0  0
  132.5080  122.6536   63.2638 H   0  0  0  0  0  0  0  0  0  0  0  0
  131.6143  122.8393   61.7167 H   0  0  0  0  0  0  0  0  0  0  0  0
  133.2796  122.1659   61.7167 H   0  0  0  0  0  0  0  0  0  0  0  0
  132.1082  125.8195   60.8725 H   0  0  0  0  0  0  0  0  0  0  0  0
  133.6265  125.2394   60.1078 H   0  0  0  0  0  0  0  0  0  0  0  0
  132.1650  124.1951   60.1078 H   0  0  0  0  0  0  0  0  0  0  0  0
  135.0580  124.2510   63.1243 H   0  0  0  0  0  0  0  0  0  0  0  0
  135.0714  123.3518   61.5694 H   0  0  0  0  0  0  0  0  0  0  0  0
  135.1354  125.1470   61.5694 H   0  0  0  0  0  0  0  0  0  0  0  0
  131.6990  124.0610   65.9670 H   0  0  0  0  0  0  0  0  0  0  0  0
  130.5218  124.5624   63.2934 H   0  0  0  0  0  0  0  0  0  0  0  0
  129.7599  123.7332   64.7482 H   0  0  0  0  0  0  0  0  0  0  0  0
  128.5927  125.5909   65.0470 H   0  0  0  0  0  0  0  0  0  0  0  0
  130.1790  126.3289   65.5863 H   0  0  0  0  0  0  0  0  0  0  0  0
  128.0638  128.6548   62.2124 H   0  0  0  0  0  0  0  0  0  0  0  0
  127.0011  127.6093   63.2544 H   0  0  0  0  0  0  0  0  0  0  0  0
  124.9231  130.1246   63.9054 H   0  0  0  0  0  0  0  0  0  0  0  0
  125.7880  130.8649   62.5159 H   0  0  0  0  0  0  0  0  0  0  0  0
  125.4293  129.1048   62.5159 H   0  0  0  0  0  0  0  0  0  0  0  0
  125.9904  130.1417   65.6800 H   0  0  0  0  0  0  0  0  0  0  0  0
  126.6528  128.4542   65.5731 H   0  0  0  0  0  0  0  0  0  0  0  0
  127.0642  127.7106   68.0461 H   0  0  0  0  0  0  0  0  0  0  0  0
  127.7315  127.5440   66.3330 H   0  0  0  0  0  0  0  0  0  0  0  0
  128.6704  126.2897   68.6881 H   0  0  0  0  0  0  0  0  0  0  0  0
  129.3903  126.3108   67.0121 H   0  0  0  0  0  0  0  0  0  0  0  0
  130.7850  128.1490   67.6820 H   0  0  0  0  0  0  0  0  0  0  0  0
  127.0460  127.1025   72.3229 H   0  0  0  0  0  0  0  0  0  0  0  0
  127.1870  128.0246   70.7879 H   0  0  0  0  0  0  0  0  0  0  0  0
  127.4057  126.2417   70.7879 H   0  0  0  0  0  0  0  0  0  0  0  0
  129.1748  127.2122   73.7819 H   0  0  0  0  0  0  0  0  0  0  0  0
  129.0963  125.6276   72.9394 H   0  0  0  0  0  0  0  0  0  0  0  0
  130.6255  126.5700   72.9394 H   0  0  0  0  0  0  0  0  0  0  0  0
  129.4639  129.1500   72.7711 H   0  0  0  0  0  0  0  0  0  0  0  0
  130.3640  129.0668   71.2188 H   0  0  0  0  0  0  0  0  0  0  0  0
  128.6058  129.4346   71.2188 H   0  0  0  0  0  0  0  0  0  0  0  0
  129.6570  132.4436   61.8425 H   0  0  0  0  0  0  0  0  0  0  0  0
  130.4093  131.8684   63.3737 H   0  0  0  0  0  0  0  0  0  0  0  0
  131.2841  131.4025   60.6654 H   0  0  0  0  0  0  0  0  0  0  0  0
  132.0165  130.8089   62.2010 H   0  0  0  0  0  0  0  0  0  0  0  0
  130.1010  128.8620   62.4060 H   0  0  0  0  0  0  0  0  0  0  0  0
  1  2  1  0
  2  3  1  0
  2  4  1  0
  2  5  1  0
  5  6  1  0
  6  7  2  0
  6  8  1  0
  8  9  1  0
  9 10  1  0
 10 11  1  0
 11 12  2  0
 11 13  1  0
 13 14  1  0
 14 15  1  0
 15 16  1  0
 15 17  1  0
 17 18  1  0
 18 19  1  0
 19 20  2  0
 19 21  1  0
 21 22  1  0
 22 23  1  0
 23 24  1  0
 24 25  2  0
 24 26  1  0
 26 27  1  0
 27 28  1  0
 27 29  1  0
 27 30  1  0
 15 31  1  0
 31 32  2  0
 31 33  1  0
 33 34  1  0
 34 35  1  0
 35 36  1  0
  1 37  1  0
  1 38  1  0
  1 39  1  0
  3 40  1  0
  3 41  1  0
  3 42  1  0
  4 43  1  0
  4 44  1  0
  4 45  1  0
  8 46  1  0
  9 47  1  0
  9 48  1  0
 10 49  1  0
 10 50  1  0
 14 51  1  0
 14 52  1  0
 16 53  1  0
 16 54  1  0
 16 55  1  0
 17 56  1  0
 17 57  1  0
 21 58  1  0
 21 59  1  0
 22 60  1  0
 22 61  1  0
 23 62  1  0
 28 63  1  0
 28 64  1  0
 28 65  1  0
 29 66  1  0
 29 67  1  0
 29 68  1  0
 30 69  1  0
 30 70  1  0
 30 71  1  0
 34 72  1  0
 34 73  1  0
 35 74  1  0
 35 75  1  0
 36 76  1  0
M  END
>  <Binding energies>  (1) 
[-5.39]

>  <Ligand effiencies>  (1) 
[-0.1382051282051282]

>  <Interactions>  (1) 
["V-B:HIS:456:CD2:9039, H-A:GLU:543:OE2:4910, V-A:GLU:543:C:4902, V-B:GLU:543:CB:9878, V-B:GLU:543:CG:9879, V-A:ASP:366:CG:3213, H-A:ARG:545:N:4920, V-A:HIS:456:CD2:4068, V-A:GLU:543:CD:4908, V-A:TYR:484:CZ:4347, H-B:TYR:484:OH:9319, V-B:HIS:456:CE1:9041, H-A:GLY:454:N:4050, V-A:GLY:453:C:4042, V-A:ILE:369:CD1:3239, V-B:TYR:484:CZ:9318, V-A:HIS:456:CE1:4070, V-B:GLY:544:C:9884, V-A:GLU:543:CG:4907, V-B:GLU:543:CD:9880, V-A:LEU:475:CD2:4259, H-A:ARG:545:NH2:4928, V-A:ARG:545:CZ:4926, H-A:GLU:543:OE1:4909, V-A:GLU:543:CB:4906, V-A:GLY:453:CA:4044, H-A:ARG:545:NE:4924, H-A:GLY:544:N:4915, H-A:TYR:484:OH:4348"]

$$$$
ZINC1501069216
     RDKit          3D

 80 82  0  0  0  0  0  0  0  0999 V2000
  130.7700  132.3550   57.1520 C   0  0  0  0  0  0  0  0  0  0  0  0
  132.0500  131.8360   57.7840 C   0  0  0  0  0  0  0  0  0  0  0  0
  132.2030  130.7140   58.5130 C   0  0  0  0  0  0  0  0  0  0  0  0
  131.1360  129.6840   58.8500 C   0  0  0  0  0  0  0  0  0  0  0  0
  130.8770  129.5110   60.3570 C   0  0  0  0  0  0  0  0  0  0  0  0
  129.3830  129.4370   60.7260 C   0  0  0  0  0  0  0  0  0  0  0  0
  129.1240  128.6490   62.0220 C   0  0  0  0  0  0  0  0  0  0  0  0
  128.3650  127.3270   61.7750 C   0  0  0  0  0  0  0  0  0  0  0  0
  129.2170  126.1200   61.2890 C   0  0  2  0  0  0  0  0  0  0  0  0
  128.7770  125.6450   59.8870 C   0  0  0  0  0  0  0  0  0  0  0  0
  129.7480  124.6160   59.3000 C   0  0  1  0  0  0  0  0  0  0  0  0
  131.7420  125.4880   58.9760 I   0  0  0  0  0  0  0  0  0  0  0  0
  129.8550  123.3730   60.1970 C   0  0  2  0  0  0  0  0  0  0  0  0
  128.7690  122.4810   59.9640 O   0  0  0  0  0  0  0  0  0  0  0  0
  128.1230  122.1190   61.1450 C   0  0  2  0  0  0  0  0  0  0  0  0
  126.9920  122.9030   61.3790 O   0  0  0  0  0  0  0  0  0  0  0  0
  126.4660  123.5450   60.2260 C   0  0  0  0  0  0  0  0  0  0  0  0
  129.1420  122.3520   62.2450 C   0  0  0  0  0  0  0  0  0  0  0  0
  129.8850  123.5880   61.7280 C   0  0  2  0  0  0  0  0  0  0  0  0
  129.2950  124.9310   62.3030 C   0  0  1  0  0  0  0  0  0  0  0  0
  129.8640  125.3620   63.6870 C   0  0  0  0  0  0  0  0  0  0  0  0
  131.3560  125.7970   63.7360 C   0  0  2  0  0  0  0  0  0  0  0  0
  132.0780  125.0280   62.8010 O   0  0  0  0  0  0  0  0  0  0  0  0
  133.1020  124.3130   63.4030 C   0  0  0  0  0  0  0  0  0  0  0  0
  132.7850  122.8290   63.2870 C   0  0  0  0  0  0  0  0  0  0  0  0
  134.4210  124.7260   62.7670 C   0  0  0  0  0  0  0  0  0  0  0  0
  133.1250  124.6560   64.7480 O   0  0  0  0  0  0  0  0  0  0  0  0
  132.1230  125.6010   65.0590 C   0  0  2  0  0  0  0  0  0  0  0  0
  131.3310  125.0850   66.2820 C   0  0  0  0  0  0  0  0  0  0  0  0
  130.0560  125.8960   66.5700 C   0  0  0  0  0  0  0  0  0  0  0  0
  130.0020  126.4300   67.9920 C   0  0  0  0  0  0  0  0  0  0  0  0
  129.2610  127.4560   68.4540 C   0  0  0  0  0  0  0  0  0  0  0  0
  128.3240  128.3490   67.6600 C   0  0  0  0  0  0  0  0  0  0  0  0
  130.0611  132.6424   57.9425 H   0  0  0  0  0  0  0  0  0  0  0  0
  130.9984  133.2315   56.5279 H   0  0  0  0  0  0  0  0  0  0  0  0
  130.3235  131.5669   56.5279 H   0  0  0  0  0  0  0  0  0  0  0  0
  132.9530  132.4447   57.6289 H   0  0  0  0  0  0  0  0  0  0  0  0
  133.2112  130.5212   58.9084 H   0  0  0  0  0  0  0  0  0  0  0  0
  130.1949  129.9937   58.3719 H   0  0  0  0  0  0  0  0  0  0  0  0
  131.5046  128.7158   58.4803 H   0  0  0  0  0  0  0  0  0  0  0  0
  131.3626  128.5811   60.6880 H   0  0  0  0  0  0  0  0  0  0  0  0
  131.2871  130.4008   60.8571 H   0  0  0  0  0  0  0  0  0  0  0  0
  129.0026  130.4609   60.8559 H   0  0  0  0  0  0  0  0  0  0  0  0
  128.8676  128.9089   59.9103 H   0  0  0  0  0  0  0  0  0  0  0  0
  130.0912  128.4169   62.4918 H   0  0  0  0  0  0  0  0  0  0  0  0
  128.4958  129.2760   62.6718 H   0  0  0  0  0  0  0  0  0  0  0  0
  127.8823  127.0368   62.7199 H   0  0  0  0  0  0  0  0  0  0  0  0
  127.6662  127.5409   60.9528 H   0  0  0  0  0  0  0  0  0  0  0  0
  130.2458  126.5030   61.2197 H   0  0  0  0  0  0  0  0  0  0  0  0
  127.7791  125.1886   59.9634 H   0  0  0  0  0  0  0  0  0  0  0  0
  128.7640  126.5196   59.2200 H   0  0  0  0  0  0  0  0  0  0  0  0
  129.3415  124.3079   58.3254 H   0  0  0  0  0  0  0  0  0  0  0  0
  130.8404  122.9827   59.9026 H   0  0  0  0  0  0  0  0  0  0  0  0
  127.7757  121.0764   61.0965 H   0  0  0  0  0  0  0  0  0  0  0  0
  125.7968  124.3618   60.5343 H   0  0  0  0  0  0  0  0  0  0  0  0
  127.2917  123.9544   59.6255 H   0  0  0  0  0  0  0  0  0  0  0  0
  125.9022  122.8159   59.6255 H   0  0  0  0  0  0  0  0  0  0  0  0
  128.6517  122.5536   63.2089 H   0  0  0  0  0  0  0  0  0  0  0  0
  129.7951  121.4880   62.4373 H   0  0  0  0  0  0  0  0  0  0  0  0
  130.9251  123.6986   62.0685 H   0  0  0  0  0  0  0  0  0  0  0  0
  128.2480  124.6513   62.4916 H   0  0  0  0  0  0  0  0  0  0  0  0
  129.2601  126.2092   64.0441 H   0  0  0  0  0  0  0  0  0  0  0  0
  129.8112  124.4572   64.3103 H   0  0  0  0  0  0  0  0  0  0  0  0
  131.2990  126.8797   63.5504 H   0  0  0  0  0  0  0  0  0  0  0  0
  132.6921  122.3942   64.2931 H   0  0  0  0  0  0  0  0  0  0  0  0
  131.8386  122.6977   62.7420 H   0  0  0  0  0  0  0  0  0  0  0  0
  133.5952  122.3225   62.7420 H   0  0  0  0  0  0  0  0  0  0  0  0
  135.1526  124.9551   63.5559 H   0  0  0  0  0  0  0  0  0  0  0  0
  134.8004  123.9037   62.1427 H   0  0  0  0  0  0  0  0  0  0  0  0
  134.2636  125.6179   62.1427 H   0  0  0  0  0  0  0  0  0  0  0  0
  132.4637  126.5949   65.3848 H   0  0  0  0  0  0  0  0  0  0  0  0
  131.0447  124.0393   66.0962 H   0  0  0  0  0  0  0  0  0  0  0  0
  131.9860  125.1868   67.1598 H   0  0  0  0  0  0  0  0  0  0  0  0
  130.0168  126.7469   65.8740 H   0  0  0  0  0  0  0  0  0  0  0  0
  129.1985  125.2196   66.4391 H   0  0  0  0  0  0  0  0  0  0  0  0
  130.6411  125.9205   68.7282 H   0  0  0  0  0  0  0  0  0  0  0  0
  129.3443  127.6715   69.5295 H   0  0  0  0  0  0  0  0  0  0  0  0
  127.7052  128.9387   68.3523 H   0  0  0  0  0  0  0  0  0  0  0  0
  128.9137  129.0277   67.0263 H   0  0  0  0  0  0  0  0  0  0  0  0
  127.6744  127.7274   67.0263 H   0  0  0  0  0  0  0  0  0  0  0  0
  1  2  1  0
  2  3  2  0
  3  4  1  0
  4  5  1  0
  5  6  1  0
  6  7  1  0
  7  8  1  0
  8  9  1  0
  9 10  1  0
 10 11  1  0
 11 12  1  0
 11 13  1  0
 13 14  1  0
 14 15  1  0
 15 16  1  0
 16 17  1  0
 15 18  1  0
 18 19  1  0
 19 20  1  0
 20 21  1  0
 21 22  1  0
 22 23  1  0
 23 24  1  0
 24 25  1  0
 24 26  1  0
 24 27  1  0
 27 28  1  0
 28 29  1  0
 29 30  1  0
 30 31  1  0
 31 32  2  0
 32 33  1  0
 20  9  1  0
 28 22  1  0
 19 13  1  0
  1 34  1  0
  1 35  1  0
  1 36  1  0
  2 37  1  0
  3 38  1  0
  4 39  1  0
  4 40  1  0
  5 41  1  0
  5 42  1  0
  6 43  1  0
  6 44  1  0
  7 45  1  0
  7 46  1  0
  8 47  1  0
  8 48  1  0
  9 49  1  6
 10 50  1  0
 10 51  1  0
 11 52  1  6
 13 53  1  6
 15 54  1  6
 17 55  1  0
 17 56  1  0
 17 57  1  0
 18 58  1  0
 18 59  1  0
 19 60  1  1
 20 61  1  1
 21 62  1  0
 21 63  1  0
 22 64  1  6
 25 65  1  0
 25 66  1  0
 25 67  1  0
 26 68  1  0
 26 69  1  0
 26 70  1  0
 28 71  1  1
 29 72  1  0
 29 73  1  0
 30 74  1  0
 30 75  1  0
 31 76  1  0
 32 77  1  0
 33 78  1  0
 33 79  1  0
 33 80  1  0
M  END
>  <Binding energies>  (1) 
[-7.32]

>  <Ligand effiencies>  (1) 
[-0.22181818181818183]

>  <Interactions>  (1) 
["V-B:PRO:540:CA:9855, V-A:GLY:454:CA:4049, V-B:GLU:543:CB:9878, V-B:ALA:541:CB:9864, V-B:TYR:539:CE2:9848, V-A:TYR:484:CE2:4346, V-B:GLU:543:CG:9879, V-A:LEU:363:CD1:3189, H-B:ALA:541:N:9863, V-A:GLU:543:CD:4908, V-A:TYR:484:CZ:4347, V-B:PRO:540:CB:9857, V-B:HIS:456:CE1:9041, H-A:GLY:454:N:4050, V-A:GLY:453:C:4042, V-A:ILE:369:CD1:3239, V-A:HIS:456:CE1:4070, V-B:TYR:539:CD2:9846, V-B:GLU:543:CD:9880, V-A:LEU:475:CD2:4259, H-A:ARG:545:NH2:4928, V-A:ARG:545:CZ:4926, V-A:GLU:543:CB:4906, V-A:PRO:540:CB:4885, V-A:GLY:453:CA:4044, H-A:ARG:545:NE:4924, V-B:PRO:540:C:9853, H-A:TYR:484:OH:4348"]

$$$$
ZINC15011896
     RDKit          3D

 31 32  0  0  0  0  0  0  0  0999 V2000
  131.2840  126.9810   73.3130 C   0  0  0  0  0  0  0  0  0  0  0  0
  130.6110  128.1340   72.5470 C   0  0  0  0  0  0  0  0  0  0  0  0
  129.5180  127.6900   71.6520 N   0  0  0  0  0  0  0  0  0  0  0  0
  129.7860  127.3690   70.3600 C   0  0  0  0  0  0  0  0  0  0  0  0
  130.9140  127.4170   69.8630 O   0  0  0  0  0  0  0  0  0  0  0  0
  128.5650  126.9690   69.6810 C   0  0  0  0  0  0  0  0  0  0  0  0
  128.4580  126.5890   68.3840 C   0  0  0  0  0  0  0  0  0  0  0  0
  129.4970  126.4880   67.3660 C   0  0  0  0  0  0  0  0  0  0  0  0
  129.8930  125.3070   66.8530 C   0  0  0  0  0  0  0  0  0  0  0  0
  130.9390  125.0900   65.8300 C   0  0  0  0  0  0  0  0  0  0  0  0
  132.2800  125.4440   66.0380 C   0  0  0  0  0  0  0  0  0  0  0  0
  133.2280  125.2270   65.0410 C   0  0  0  0  0  0  0  0  0  0  0  0
  132.8410  124.6560   63.8320 C   0  0  0  0  0  0  0  0  0  0  0  0
  134.1380  124.3590   62.4710 Br  0  0  0  0  0  0  0  0  0  0  0  0
  131.5130  124.3000   63.6120 C   0  0  0  0  0  0  0  0  0  0  0  0
  130.5660  124.5180   64.6090 C   0  0  0  0  0  0  0  0  0  0  0  0
  127.2130  127.0470   70.8040 S   0  0  0  0  0  0  0  0  0  0  0  0
  128.2300  127.5890   72.1060 C   0  0  0  0  0  0  0  0  0  0  0  0
  127.5640  127.8880   73.6060 S   0  0  0  0  0  0  0  0  0  0  0  0
  131.1841  127.1521   74.3950 H   0  0  0  0  0  0  0  0  0  0  0  0
  130.7987  126.0307   73.0457 H   0  0  0  0  0  0  0  0  0  0  0  0
  132.3501  126.9362   73.0457 H   0  0  0  0  0  0  0  0  0  0  0  0
  130.1957  128.8425   73.2788 H   0  0  0  0  0  0  0  0  0  0  0  0
  131.3823  128.5943   71.9120 H   0  0  0  0  0  0  0  0  0  0  0  0
  127.4444  126.3188   68.0530 H   0  0  0  0  0  0  0  0  0  0  0  0
  129.9750  127.4100   67.0036 H   0  0  0  0  0  0  0  0  0  0  0  0
  129.3849  124.4094   67.2352 H   0  0  0  0  0  0  0  0  0  0  0  0
  132.5847  125.8955   66.9937 H   0  0  0  0  0  0  0  0  0  0  0  0
  134.2788  125.5059   65.2084 H   0  0  0  0  0  0  0  0  0  0  0  0
  131.2134  123.8485   62.6547 H   0  0  0  0  0  0  0  0  0  0  0  0
  129.5164  124.2383   64.4353 H   0  0  0  0  0  0  0  0  0  0  0  0
  1  2  1  0
  2  3  1  0
  3  4  1  0
  4  5  2  0
  4  6  1  0
  6  7  2  0
  7  8  1  0
  8  9  2  0
  9 10  1  0
 10 11  2  0
 11 12  1  0
 12 13  2  0
 13 14  1  0
 13 15  1  0
 15 16  2  0
  6 17  1  0
 17 18  1  0
 18 19  2  0
 18  3  1  0
 16 10  1  0
  1 20  1  0
  1 21  1  0
  1 22  1  0
  2 23  1  0
  2 24  1  0
  7 25  1  0
  8 26  1  0
  9 27  1  0
 11 28  1  0
 12 29  1  0
 15 30  1  0
 16 31  1  0
M  END
>  <Binding energies>  (1) 
[-6.59]

>  <Ligand effiencies>  (1) 
[-0.3468421052631579]

>  <Interactions>  (1) 
["H-B:HIS:456:ND1:9038, V-A:HIS:456:CE1:4070, V-A:ILE:369:CD1:3239, V-B:GLU:543:C:9874, V-B:HIS:456:CD2:9039, V-A:HIS:456:CD2:4068, V-B:GLU:543:CB:9878, V-B:LYS:547:CE:9922, V-A:ARG:545:CZ:4926, V-B:HIS:456:CG:9037, V-A:TYR:484:CZ:4347, V-A:ARG:545:CD:4923, V-B:GLU:543:CG:9879, V-A:GLY:544:C:4912, V-B:HIS:456:CE1:9041, V-B:GLU:543:CA:9876, H-A:HIS:456:ND1:4067, V-A:HIS:456:CG:4066"]

$$$$
ZINC15018844
     RDKit          3D

 31 33  0  0  0  0  0  0  0  0999 V2000
  130.2300  129.2270   72.6050 O   0  0  0  0  0  0  0  0  0  0  0  0
  130.0400  128.4710   71.4760 C   0  0  0  0  0  0  0  0  0  0  0  0
  131.0240  128.4600   70.4900 C   0  0  0  0  0  0  0  0  0  0  0  0
  130.8590  127.6990   69.3300 C   0  0  0  0  0  0  0  0  0  0  0  0
  131.8720  127.7380   68.4020 O   0  0  0  0  0  0  0  0  0  0  0  0
  129.6930  126.9280   69.1390 C   0  0  0  0  0  0  0  0  0  0  0  0
  129.4950  126.1160   67.9200 C   0  0  0  0  0  0  0  0  0  0  0  0
  130.4400  125.6550   67.2100 N   0  0  0  0  0  0  0  0  0  0  0  0
  130.0750  124.9030   66.0870 N   0  0  0  0  0  0  0  0  0  0  0  0
  130.9490  124.4750   65.1140 C   0  0  0  0  0  0  0  0  0  0  0  0
  132.0450  125.0820   64.7480 N   0  0  0  0  0  0  0  0  0  0  0  0
  132.6790  124.3950   63.7610 C   0  0  0  0  0  0  0  0  0  0  0  0
  133.8820  124.7860   63.1550 C   0  0  0  0  0  0  0  0  0  0  0  0
  134.4160  123.9740   62.1530 C   0  0  0  0  0  0  0  0  0  0  0  0
  133.7760  122.8000   61.7550 C   0  0  0  0  0  0  0  0  0  0  0  0
  132.5790  122.3890   62.3400 C   0  0  0  0  0  0  0  0  0  0  0  0
  132.0340  123.1960   63.3490 C   0  0  0  0  0  0  0  0  0  0  0  0
  130.5610  122.9850   64.2890 S   0  0  0  0  0  0  0  0  0  0  0  0
  128.7130  126.9540   70.1480 C   0  0  0  0  0  0  0  0  0  0  0  0
  128.8800  127.7140   71.3040 C   0  0  0  0  0  0  0  0  0  0  0  0
  127.5080  127.7000   72.6300 Br  0  0  0  0  0  0  0  0  0  0  0  0
  130.2380  130.1690   72.4260 H   0  0  0  0  0  0  0  0  0  0  0  0
  131.9388  129.0556   70.6259 H   0  0  0  0  0  0  0  0  0  0  0  0
  131.5980  127.4230   67.5370 H   0  0  0  0  0  0  0  0  0  0  0  0
  128.4629  125.8975   67.6086 H   0  0  0  0  0  0  0  0  0  0  0  0
  129.0890  124.6860   66.0490 H   0  0  0  0  0  0  0  0  0  0  0  0
  134.3926  125.7107   63.4621 H   0  0  0  0  0  0  0  0  0  0  0  0
  135.3593  124.2653   61.6680 H   0  0  0  0  0  0  0  0  0  0  0  0
  134.2259  122.1848   60.9618 H   0  0  0  0  0  0  0  0  0  0  0  0
  132.0789  121.4627   62.0207 H   0  0  0  0  0  0  0  0  0  0  0  0
  127.7949  126.3615   70.0217 H   0  0  0  0  0  0  0  0  0  0  0  0
  1  2  1  0
  2  3  2  0
  3  4  1  0
  4  5  1  0
  4  6  2  0
  6  7  1  0
  7  8  2  0
  8  9  1  0
  9 10  1  0
 10 11  2  0
 11 12  1  0
 12 13  2  0
 13 14  1  0
 14 15  2  0
 15 16  1  0
 16 17  2  0
 17 18  1  0
  6 19  1  0
 19 20  2  0
 20 21  1  0
 20  2  1  0
 18 10  1  0
 17 12  1  0
  1 22  1  0
  3 23  1  0
  5 24  1  0
  7 25  1  0
  9 26  1  0
 13 27  1  0
 14 28  1  0
 15 29  1  0
 16 30  1  0
 19 31  1  0
M  END
>  <Binding energies>  (1) 
[-7.01]

>  <Ligand effiencies>  (1) 
[-0.2920833333333333]

>  <Interactions>  (1) 
["V-A:GLU:543:CA:4904, V-B:HIS:456:CD2:9039, H-A:GLU:543:OE2:4910, V-A:GLU:543:C:4902, V-B:GLU:543:CB:9878, V-A:TYR:484:CE2:4346, V-A:GLY:544:CA:4914, V-B:GLU:543:CG:9879, V-A:GLY:544:C:4912, V-B:HIS:456:CE1:9041, V-A:GLY:453:C:4042, V-A:HIS:456:CE1:4070, V-A:ILE:369:CD1:3239, V-B:HIS:456:CG:9037, H-A:LYS:547:NZ:4951, H-A:ARG:545:NH2:4928, V-A:LEU:475:CD2:4259, V-A:ARG:545:CZ:4926, V-A:GLU:543:CB:4906, H-B:GLU:543:OE2:9882, V-A:GLY:453:CA:4044, H-A:GLY:544:O:4913, H-A:TYR:484:OH:4348, H-A:GLU:543:O:4903"]

$$$$
ZINC15018844-again1
     RDKit          3D

 29 31  0  0  0  0  0  0  0  0999 V2000
  129.3050  123.3100   75.4470 O   0  0  0  0  0  0  0  0  0  0  0  0
  128.8590  122.4490   74.6080 C   0  0  0  0  0  0  0  0  0  0  0  0
  128.6690  121.1490   75.1010 C   0  0  0  0  0  0  0  0  0  0  0  0
  128.1900  120.1350   74.2770 C   0  0  0  0  0  0  0  0  0  0  0  0
  128.0160  118.8780   74.7970 O   0  0  0  0  0  0  0  0  0  0  0  0
  127.8940  120.4070   72.9440 C   0  0  0  0  0  0  0  0  0  0  0  0
  127.2330  119.0460   71.7820 Br  0  0  0  0  0  0  0  0  0  0  0  0
  128.0820  121.6930   72.4430 C   0  0  0  0  0  0  0  0  0  0  0  0
  128.5640  122.7450   73.2470 C   0  0  0  0  0  0  0  0  0  0  0  0
  128.7200  124.0940   72.6320 C   0  0  0  0  0  0  0  0  0  0  0  0
  129.1230  125.1230   73.2670 N   0  0  0  0  0  0  0  0  0  0  0  0
  129.2040  126.2130   72.5310 N   0  0  0  0  0  0  0  0  0  0  0  0
  128.7700  127.3370   73.1470 C   0  0  0  0  0  0  0  0  0  0  0  0
  127.7080  127.5430   73.8930 N   0  0  0  0  0  0  0  0  0  0  0  0
  127.6310  128.8260   74.3340 C   0  0  0  0  0  0  0  0  0  0  0  0
  126.6070  129.3360   75.1470 C   0  0  0  0  0  0  0  0  0  0  0  0
  126.6660  130.6790   75.5220 C   0  0  0  0  0  0  0  0  0  0  0  0
  127.7120  131.5030   75.1050 C   0  0  0  0  0  0  0  0  0  0  0  0
  128.7380  131.0190   74.2940 C   0  0  0  0  0  0  0  0  0  0  0  0
  128.6900  129.6720   73.9110 C   0  0  0  0  0  0  0  0  0  0  0  0
  129.7940  128.7400   72.9110 S   0  0  0  0  0  0  0  0  0  0  0  0
  128.9019  120.9284   76.1532 H   0  0  0  0  0  0  0  0  0  0  0  0
  128.3420  118.1910   74.2120 H   0  0  0  0  0  0  0  0  0  0  0  0
  127.8470  121.8935   71.3873 H   0  0  0  0  0  0  0  0  0  0  0  0
  128.4725  124.2082   71.5663 H   0  0  0  0  0  0  0  0  0  0  0  0
  125.7788  128.6934   75.4803 H   0  0  0  0  0  0  0  0  0  0  0  0
  125.8721  131.0962   76.1590 H   0  0  0  0  0  0  0  0  0  0  0  0
  127.7276  132.5561   75.4225 H   0  0  0  0  0  0  0  0  0  0  0  0
  129.5587  131.6737   73.9655 H   0  0  0  0  0  0  0  0  0  0  0  0
  1  2  1  0
  2  3  2  0
  3  4  1  0
  4  5  1  0
  4  6  2  0
  6  7  1  0
  6  8  1  0
  8  9  2  0
  9 10  1  0
 10 11  2  0
 11 12  1  0
 12 13  1  0
 13 14  2  0
 14 15  1  0
 15 16  2  0
 16 17  1  0
 17 18  2  0
 18 19  1  0
 19 20  2  0
 20 21  1  0
  9  2  1  0
 21 13  1  0
 20 15  1  0
  3 22  1  0
  5 23  1  0
  8 24  1  0
 10 25  1  0
 16 26  1  0
 17 27  1  0
 18 28  1  0
 19 29  1  0
M  CHG  2   1  -1  12  -1
M  END
>  <Binding energies>  (1) 
[-6.7]

>  <Ligand effiencies>  (1) 
[-0.30454545454545456]

>  <Interactions>  (1) 
["H-A:TYR:484:O:4338, V-B:GLU:543:C:9874, V-B:HIS:456:CD2:9039, V-B:GLY:544:CA:9886, H-B:LYS:547:NZ:9923, V-B:LYS:547:CE:9922, V-B:HIS:456:CB:9036, V-B:HIS:456:CG:9037, V-A:TYR:484:CA:4339, V-A:TYR:484:C:4337, V-B:VAL:542:CG1:9871, V-A:TYR:484:CB:4341, V-A:HIS:456:CD2:4068"]

$$$$
ZINC150339993
     RDKit          3D

117124  0  0  0  0  0  0  0  0999 V2000
  126.8840  121.0590   72.5560 C   0  0  0  0  0  0  0  0  0  0  0  0
  128.4180  120.9200   72.5190 N   0  0  0  0  0  0  0  0  0  0  0  0
  128.9370  120.1970   73.7780 C   0  0  0  0  0  0  0  0  0  0  0  0
  129.1020  122.2870   72.2680 C   0  0  0  0  0  0  0  0  0  0  0  0
  128.5120  123.4030   73.1510 C   0  0  0  0  0  0  0  0  0  0  0  0
  128.7520  124.6750   72.5520 O   0  0  0  0  0  0  0  0  0  0  0  0
  129.4200  125.6600   73.2580 C   0  0  0  0  0  0  0  0  0  0  0  0
  130.5960  125.4200   73.9870 C   0  0  0  0  0  0  0  0  0  0  0  0
  131.2120  126.4440   74.6980 C   0  0  0  0  0  0  0  0  0  0  0  0
  130.6640  127.7210   74.6920 C   0  0  0  0  0  0  0  0  0  0  0  0
  129.5000  127.9970   73.9690 C   0  0  0  0  0  0  0  0  0  0  0  0
  128.9450  129.3730   74.0190 C   0  0  0  0  0  0  0  0  0  0  0  0
  127.8500  129.6550   74.8410 C   0  0  0  0  0  0  0  0  0  0  0  0
  127.3160  130.9400   74.8840 C   0  0  0  0  0  0  0  0  0  0  0  0
  127.8820  131.9490   74.1080 C   0  0  0  0  0  0  0  0  0  0  0  0
  127.2200  133.5420   74.1580 Cl  0  0  0  0  0  0  0  0  0  0  0  0
  128.9800  131.6820   73.2920 C   0  0  0  0  0  0  0  0  0  0  0  0
  129.5110  130.3950   73.2500 C   0  0  0  0  0  0  0  0  0  0  0  0
  128.8760  126.9580   73.2460 C   0  0  0  0  0  0  0  0  0  0  0  0
  127.5920  127.2310   72.4480 C   0  0  0  0  0  0  0  0  0  0  0  0
  127.8650  127.5160   71.0360 N   0  0  0  0  0  0  0  0  0  0  0  0
  126.8270  126.9680   70.1640 C   0  0  0  0  0  0  0  0  0  0  0  0
  127.0990  127.3540   68.6940 C   0  0  0  0  0  0  0  0  0  0  0  0
  128.4320  126.9600   68.1870 N   0  0  0  0  0  0  0  0  0  0  0  0
  128.7230  126.9610   66.8170 C   0  0  0  0  0  0  0  0  0  0  0  0
  128.1620  127.9160   65.9560 C   0  0  0  0  0  0  0  0  0  0  0  0
  128.4710  127.9390   64.5980 C   0  0  0  0  0  0  0  0  0  0  0  0
  129.3680  127.0180   64.0410 C   0  0  0  0  0  0  0  0  0  0  0  0
  129.6450  127.0690   62.5920 C   0  0  0  0  0  0  0  0  0  0  0  0
  128.7640  127.7320   62.0140 O   0  0  0  0  0  0  0  0  0  0  0  0
  130.6800  126.4380   62.1940 N   0  0  0  0  0  0  0  0  0  0  0  0
  131.1230  126.3820   60.4800 S   0  0  0  0  0  0  0  0  0  0  0  0
  132.5410  126.2610   60.1170 O   0  0  0  0  0  0  0  0  0  0  0  0
  130.2050  125.6430   59.6050 O   0  0  0  0  0  0  0  0  0  0  0  0
  130.7640  128.1110   60.1660 C   0  0  0  0  0  0  0  0  0  0  0  0
  129.8700  128.4840   59.1690 C   0  0  0  0  0  0  0  0  0  0  0  0
  129.5910  129.8290   58.9560 C   0  0  0  0  0  0  0  0  0  0  0  0
  130.1890  130.8350   59.7360 C   0  0  0  0  0  0  0  0  0  0  0  0
  129.8890  132.1930   59.4970 N   0  0  0  0  0  0  0  0  0  0  0  0
  128.9640  133.0130   60.2770 C   0  0  0  0  0  0  0  0  0  0  0  0
  128.6800  132.4690   61.6950 C   0  0  0  0  0  0  0  0  0  0  0  0
  128.2160  133.5880   62.6520 C   0  0  0  0  0  0  0  0  0  0  0  0
  127.9250  133.0310   64.0600 C   0  0  0  0  0  0  0  0  0  0  0  0
  126.9580  131.9820   63.9760 O   0  0  0  0  0  0  0  0  0  0  0  0
  127.3730  130.8690   63.1830 C   0  0  0  0  0  0  0  0  0  0  0  0
  127.6390  131.3260   61.7350 C   0  0  0  0  0  0  0  0  0  0  0  0
  131.0960  130.4620   60.7650 C   0  0  0  0  0  0  0  0  0  0  0  0
  131.7810  131.4400   61.6680 N   0  0  0  0  0  0  0  0  0  0  0  0
  131.2230  131.8520   62.6810 O   0  0  0  0  0  0  0  0  0  0  0  0
  132.9120  131.8160   61.3710 O   0  0  0  0  0  0  0  0  0  0  0  0
  131.3630  129.0940   60.9530 C   0  0  0  0  0  0  0  0  0  0  0  0
  129.9370  126.0460   64.8870 C   0  0  0  0  0  0  0  0  0  0  0  0
  130.8110  125.1100   64.3640 O   0  0  0  0  0  0  0  0  0  0  0  0
  130.3460  124.0190   63.6600 C   0  0  0  0  0  0  0  0  0  0  0  0
  128.9930  123.6620   63.6580 C   0  0  0  0  0  0  0  0  0  0  0  0
  128.5130  122.5660   62.9420 C   0  0  0  0  0  0  0  0  0  0  0  0
  129.4470  121.8330   62.2030 C   0  0  0  0  0  0  0  0  0  0  0  0
  129.2970  120.7160   61.4050 N   0  0  0  0  0  0  0  0  0  0  0  0
  130.5090  120.3520   60.8750 C   0  0  0  0  0  0  0  0  0  0  0  0
  131.4800  121.2250   61.3180 C   0  0  0  0  0  0  0  0  0  0  0  0
  130.8310  122.1810   62.1680 C   0  0  0  0  0  0  0  0  0  0  0  0
  131.2670  123.2930   62.9050 C   0  0  0  0  0  0  0  0  0  0  0  0
  129.6280  126.0460   66.2550 C   0  0  0  0  0  0  0  0  0  0  0  0
  129.4770  127.2960   69.1780 C   0  0  0  0  0  0  0  0  0  0  0  0
  129.1310  126.9070   70.6330 C   0  0  0  0  0  0  0  0  0  0  0  0
  126.5437  121.0898   73.6016 H   0  0  0  0  0  0  0  0  0  0  0  0
  126.5876  121.9877   72.0464 H   0  0  0  0  0  0  0  0  0  0  0  0
  126.4255  120.1987   72.0464 H   0  0  0  0  0  0  0  0  0  0  0  0
  128.6400  120.3340   71.7250 H   0  0  0  0  0  0  0  0  0  0  0  0
  128.5666  120.7130   74.6761 H   0  0  0  0  0  0  0  0  0  0  0  0
  128.5777  119.1573   73.7781 H   0  0  0  0  0  0  0  0  0  0  0  0
  130.0370  120.2048   73.7781 H   0  0  0  0  0  0  0  0  0  0  0  0
  130.1756  122.1917   72.4876 H   0  0  0  0  0  0  0  0  0  0  0  0
  128.9316  122.5622   71.2167 H   0  0  0  0  0  0  0  0  0  0  0  0
  127.4281  123.2489   73.2576 H   0  0  0  0  0  0  0  0  0  0  0  0
  128.9914  123.3729   74.1406 H   0  0  0  0  0  0  0  0  0  0  0  0
  131.0345  124.4112   73.9957 H   0  0  0  0  0  0  0  0  0  0  0  0
  132.1329  126.2432   75.2651 H   0  0  0  0  0  0  0  0  0  0  0  0
  131.1522  128.5244   75.2632 H   0  0  0  0  0  0  0  0  0  0  0  0
  127.4082  128.8578   75.4568 H   0  0  0  0  0  0  0  0  0  0  0  0
  126.4510  131.1576   75.5278 H   0  0  0  0  0  0  0  0  0  0  0  0
  129.4250  132.4836   72.6842 H   0  0  0  0  0  0  0  0  0  0  0  0
  130.3792  130.1815   72.6093 H   0  0  0  0  0  0  0  0  0  0  0  0
  126.9414  126.3463   72.5110 H   0  0  0  0  0  0  0  0  0  0  0  0
  127.1074  128.1176   72.8829 H   0  0  0  0  0  0  0  0  0  0  0  0
  126.8187  125.8718   70.2552 H   0  0  0  0  0  0  0  0  0  0  0  0
  125.8530  127.3802   70.4665 H   0  0  0  0  0  0  0  0  0  0  0  0
  126.3368  126.8695   68.0660 H   0  0  0  0  0  0  0  0  0  0  0  0
  127.0624  128.4525   68.6497 H   0  0  0  0  0  0  0  0  0  0  0  0
  127.4633  128.6624   66.3619 H   0  0  0  0  0  0  0  0  0  0  0  0
  128.0019  128.6945   63.9506 H   0  0  0  0  0  0  0  0  0  0  0  0
  129.3840  127.7159   58.5495 H   0  0  0  0  0  0  0  0  0  0  0  0
  128.8870  130.1128   58.1599 H   0  0  0  0  0  0  0  0  0  0  0  0
  130.4730  132.6770   58.8290 H   0  0  0  0  0  0  0  0  0  0  0  0
  129.3933  134.0212   60.3734 H   0  0  0  0  0  0  0  0  0  0  0  0
  128.0051  133.0091   59.7380 H   0  0  0  0  0  0  0  0  0  0  0  0
  129.6442  132.0566   62.0270 H   0  0  0  0  0  0  0  0  0  0  0  0
  129.0063  134.3498   62.7236 H   0  0  0  0  0  0  0  0  0  0  0  0
  127.2899  134.0270   62.2523 H   0  0  0  0  0  0  0  0  0  0  0  0
  128.8547  132.6364   64.4958 H   0  0  0  0  0  0  0  0  0  0  0  0
  127.5308  133.8380   64.6952 H   0  0  0  0  0  0  0  0  0  0  0  0
  128.2948  130.4433   63.6062 H   0  0  0  0  0  0  0  0  0  0  0  0
  126.5781  130.1086   63.1823 H   0  0  0  0  0  0  0  0  0  0  0  0
  128.0189  130.4733   61.1531 H   0  0  0  0  0  0  0  0  0  0  0  0
  126.6961  131.6966   61.3065 H   0  0  0  0  0  0  0  0  0  0  0  0
  132.0648  128.7907   61.7439 H   0  0  0  0  0  0  0  0  0  0  0  0
  128.2834  124.2670   64.2415 H   0  0  0  0  0  0  0  0  0  0  0  0
  127.4482  122.2905   62.9577 H   0  0  0  0  0  0  0  0  0  0  0  0
  128.4460  120.2110   61.2090 H   0  0  0  0  0  0  0  0  0  0  0  0
  130.6793  119.4982   60.2026 H   0  0  0  0  0  0  0  0  0  0  0  0
  132.5505  121.1942   61.0669 H   0  0  0  0  0  0  0  0  0  0  0  0
  132.3261  123.5895   62.8873 H   0  0  0  0  0  0  0  0  0  0  0  0
  130.1104  125.3049   66.9093 H   0  0  0  0  0  0  0  0  0  0  0  0
  130.4014  126.7722   68.8932 H   0  0  0  0  0  0  0  0  0  0  0  0
  129.5804  128.3910   69.1637 H   0  0  0  0  0  0  0  0  0  0  0  0
  129.0459  125.8127   70.7051 H   0  0  0  0  0  0  0  0  0  0  0  0
  129.9287  127.2688   71.2984 H   0  0  0  0  0  0  0  0  0  0  0  0
  1  2  1  0
  2  3  1  0
  2  4  1  0
  4  5  1  0
  5  6  1  0
  6  7  1  0
  7  8  2  0
  8  9  1  0
  9 10  2  0
 10 11  1  0
 11 12  1  0
 12 13  2  0
 13 14  1  0
 14 15  2  0
 15 16  1  0
 15 17  1  0
 17 18  2  0
 11 19  2  0
 19 20  1  0
 20 21  1  0
 21 22  1  0
 22 23  1  0
 23 24  1  0
 24 25  1  0
 25 26  2  0
 26 27  1  0
 27 28  2  0
 28 29  1  0
 29 30  1  0
 29 31  2  0
 31 32  1  0
 32 33  2  0
 32 34  2  0
 32 35  1  0
 35 36  2  0
 36 37  1  0
 37 38  2  0
 38 39  1  0
 39 40  1  0
 40 41  1  0
 41 42  1  0
 42 43  1  0
 43 44  1  0
 44 45  1  0
 45 46  1  0
 38 47  1  0
 47 48  1  0
 48 49  2  0
 48 50  1  0
 47 51  2  0
 28 52  1  0
 52 53  1  0
 53 54  1  0
 54 55  2  0
 55 56  1  0
 56 57  2  0
 57 58  1  0
 58 59  1  0
 59 60  2  0
 60 61  1  0
 61 62  2  0
 52 63  2  0
 24 64  1  0
 64 65  1  0
 19  7  1  0
 65 21  1  0
 18 12  1  0
 63 25  1  0
 51 35  1  0
 62 54  1  0
 46 41  1  0
 61 57  1  0
  1 66  1  0
  1 67  1  0
  1 68  1  0
  2 69  1  0
  3 70  1  0
  3 71  1  0
  3 72  1  0
  4 73  1  0
  4 74  1  0
  5 75  1  0
  5 76  1  0
  8 77  1  0
  9 78  1  0
 10 79  1  0
 13 80  1  0
 14 81  1  0
 17 82  1  0
 18 83  1  0
 20 84  1  0
 20 85  1  0
 22 86  1  0
 22 87  1  0
 23 88  1  0
 23 89  1  0
 26 90  1  0
 27 91  1  0
 36 92  1  0
 37 93  1  0
 39 94  1  0
 40 95  1  0
 40 96  1  0
 41 97  1  0
 42 98  1  0
 42 99  1  0
 43100  1  0
 43101  1  0
 45102  1  0
 45103  1  0
 46104  1  0
 46105  1  0
 51106  1  0
 55107  1  0
 56108  1  0
 58109  1  0
 59110  1  0
 60111  1  0
 62112  1  0
 63113  1  0
 64114  1  0
 64115  1  0
 65116  1  0
 65117  1  0
M  CHG  4   2   1  30  -1  48   1  50  -1
M  END
>  <Binding energies>  (1) 
[-5.63]

>  <Ligand effiencies>  (1) 
[-0.08279411764705882]

>  <Interactions>  (1) 
["V-B:PRO:540:CA:9855, V-B:GLU:543:C:9874, V-B:HIS:456:CD2:9039, H-A:ALA:541:N:4891, V-B:GLU:543:CB:9878, H-B:LYS:547:NZ:9923, V-B:HIS:456:CB:9036, V-B:ALA:541:CB:9864, V-B:TYR:539:CE2:9848, V-B:GLU:543:CG:9879, V-B:LEU:475:CD2:9230, V-B:TYR:539:C:9839, V-A:HIS:456:CD2:4068, V-A:ASP:366:CG:3213, V-B:TYR:484:CE2:9317, V-A:ALA:541:CB:4892, V-B:LYS:547:CE:9922, V-B:TYR:484:CB:9312, V-A:GLU:543:CD:4908, H-B:TYR:484:OH:9319, V-B:HIS:456:CE1:9041, V-A:TYR:484:CD2:4344, V-A:HIS:456:CE1:4070, V-B:GLY:544:C:9884, V-A:TYR:484:CG:4342, V-B:GLY:544:CA:9886, V-B:TYR:539:CD2:9846, V-B:GLU:543:CD:9880, V-B:HIS:456:CG:9037, V-A:TYR:539:C:4867, V-A:LEU:475:CD2:4259, V-A:TYR:484:CB:4341, V-A:HIS:456:CG:4066, V-A:PRO:540:N:4884, V-A:PRO:540:CB:4885, V-A:PRO:540:CA:4883, V-A:LYS:547:CE:4950, V-B:ASP:473:CB:9210, H-B:TYR:539:O:9840, V-B:ASP:473:CG:9211, V-B:PRO:540:C:9853, V-B:ALA:541:CA:9862, H-B:PRO:540:O:9854"]

$$$$
ZINC150339993-again1
     RDKit          3D

118125  0  0  0  0  0  0  0  0999 V2000
  131.9370  119.9900   60.6120 C   0  0  0  0  0  0  0  0  0  0  0  0
  130.8040  119.0690   60.1200 N   0  0  0  0  0  0  0  0  0  0  0  0
  131.3560  117.9580   59.2020 C   0  0  0  0  0  0  0  0  0  0  0  0
  129.9680  118.5250   61.3030 C   0  0  0  0  0  0  0  0  0  0  0  0
  129.5190  119.6460   62.2620 C   0  0  0  0  0  0  0  0  0  0  0  0
  129.0480  120.7690   61.5190 O   0  0  0  0  0  0  0  0  0  0  0  0
  129.5010  122.0410   61.8250 C   0  0  0  0  0  0  0  0  0  0  0  0
  130.7170  122.2860   62.4830 C   0  0  0  0  0  0  0  0  0  0  0  0
  131.1340  123.5860   62.7420 C   0  0  0  0  0  0  0  0  0  0  0  0
  130.3450  124.6590   62.3450 C   0  0  0  0  0  0  0  0  0  0  0  0
  129.1210  124.4560   61.7020 C   0  0  0  0  0  0  0  0  0  0  0  0
  128.3530  125.6560   61.2680 C   0  0  0  0  0  0  0  0  0  0  0  0
  126.9540  125.6130   61.2390 C   0  0  0  0  0  0  0  0  0  0  0  0
  126.2180  126.7410   60.8890 C   0  0  0  0  0  0  0  0  0  0  0  0
  126.8820  127.9150   60.5430 C   0  0  0  0  0  0  0  0  0  0  0  0
  125.9690  129.3210   60.1320 Cl  0  0  0  0  0  0  0  0  0  0  0  0
  128.2740  127.9620   60.5270 C   0  0  0  0  0  0  0  0  0  0  0  0
  129.0070  126.8320   60.8820 C   0  0  0  0  0  0  0  0  0  0  0  0
  128.6970  123.1300   61.4390 C   0  0  0  0  0  0  0  0  0  0  0  0
  127.3610  122.8430   60.7390 C   0  0  0  0  0  0  0  0  0  0  0  0
  127.3790  122.9120   59.1920 N   0  0  0  0  0  0  0  0  0  0  0  0
  128.7780  123.2980   58.6640 C   0  0  0  0  0  0  0  0  0  0  0  0
  128.7140  123.4960   57.1340 C   0  0  0  0  0  0  0  0  0  0  0  0
  127.8080  124.6000   56.7690 N   0  0  0  0  0  0  0  0  0  0  0  0
  128.1830  125.9410   56.9450 C   0  0  0  0  0  0  0  0  0  0  0  0
  127.2650  126.9810   56.7550 C   0  0  0  0  0  0  0  0  0  0  0  0
  127.6220  128.3090   56.9670 C   0  0  0  0  0  0  0  0  0  0  0  0
  128.9270  128.6720   57.3540 C   0  0  0  0  0  0  0  0  0  0  0  0
  129.2570  130.0860   57.6740 C   0  0  0  0  0  0  0  0  0  0  0  0
  128.2470  130.8090   57.5800 O   0  0  0  0  0  0  0  0  0  0  0  0
  130.4800  130.3310   57.9460 N   0  0  0  0  0  0  0  0  0  0  0  0
  131.0320  131.9790   58.2770 S   0  0  0  0  0  0  0  0  0  0  0  0
  132.4580  132.1300   58.5910 O   0  0  0  0  0  0  0  0  0  0  0  0
  130.4470  133.0860   57.5100 O   0  0  0  0  0  0  0  0  0  0  0  0
  130.2280  132.0920   59.8770 C   0  0  0  0  0  0  0  0  0  0  0  0
  130.9490  131.8840   61.0480 C   0  0  0  0  0  0  0  0  0  0  0  0
  130.3140  131.9800   62.2810 C   0  0  0  0  0  0  0  0  0  0  0  0
  128.9490  132.2970   62.3750 C   0  0  0  0  0  0  0  0  0  0  0  0
  128.3360  132.3750   63.6410 N   0  0  0  0  0  0  0  0  0  0  0  0
  127.4830  131.3330   64.2010 C   0  0  0  0  0  0  0  0  0  0  0  0
  128.2660  130.0880   64.6690 C   0  0  0  0  0  0  0  0  0  0  0  0
  127.8930  129.6360   66.1010 C   0  0  0  0  0  0  0  0  0  0  0  0
  128.6720  128.3670   66.4990 C   0  0  0  0  0  0  0  0  0  0  0  0
  128.4310  127.3310   65.5450 O   0  0  0  0  0  0  0  0  0  0  0  0
  128.8390  127.6530   64.2140 C   0  0  0  0  0  0  0  0  0  0  0  0
  128.0650  128.8910   63.7160 C   0  0  0  0  0  0  0  0  0  0  0  0
  128.2060  132.5340   61.1870 C   0  0  0  0  0  0  0  0  0  0  0  0
  126.7550  132.8990   61.1690 N   0  0  0  0  0  0  0  0  0  0  0  0
  125.9060  132.0980   61.5470 O   0  0  0  0  0  0  0  0  0  0  0  0
  126.4390  134.0180   60.7710 O   0  0  0  0  0  0  0  0  0  0  0  0
  128.8750  132.4170   59.9550 C   0  0  0  0  0  0  0  0  0  0  0  0
  129.8760  127.6300   57.4920 C   0  0  0  0  0  0  0  0  0  0  0  0
  131.1810  127.8190   57.9090 O   0  0  0  0  0  0  0  0  0  0  0  0
  131.9290  126.7820   58.4230 C   0  0  0  0  0  0  0  0  0  0  0  0
  132.5330  125.9110   57.5170 C   0  0  0  0  0  0  0  0  0  0  0  0
  133.3010  124.8220   57.9270 C   0  0  0  0  0  0  0  0  0  0  0  0
  133.4590  124.6400   59.3040 C   0  0  0  0  0  0  0  0  0  0  0  0
  134.1400  123.6760   60.0190 N   0  0  0  0  0  0  0  0  0  0  0  0
  134.0130  123.9110   61.3650 C   0  0  0  0  0  0  0  0  0  0  0  0
  133.2420  125.0390   61.5580 C   0  0  0  0  0  0  0  0  0  0  0  0
  132.8720  125.5230   60.2610 C   0  0  0  0  0  0  0  0  0  0  0  0
  132.1080  126.6070   59.8010 C   0  0  0  0  0  0  0  0  0  0  0  0
  129.4960  126.3030   57.2860 C   0  0  0  0  0  0  0  0  0  0  0  0
  126.4610  124.1520   57.1770 C   0  0  0  0  0  0  0  0  0  0  0  0
  126.3490  123.9630   58.7100 C   0  0  0  0  0  0  0  0  0  0  0  0
  131.9497  120.0003   61.7119 H   0  0  0  0  0  0  0  0  0  0  0  0
  132.9016  119.6167   60.2377 H   0  0  0  0  0  0  0  0  0  0  0  0
  131.7686  121.0106   60.2377 H   0  0  0  0  0  0  0  0  0  0  0  0
  130.1840  119.6390   59.5600 H   0  0  0  0  0  0  0  0  0  0  0  0
  131.7616  117.1416   59.8176 H   0  0  0  0  0  0  0  0  0  0  0  0
  130.5456  117.5706   58.5671 H   0  0  0  0  0  0  0  0  0  0  0  0
  132.1542  118.3699   58.5671 H   0  0  0  0  0  0  0  0  0  0  0  0
  129.0752  118.0212   60.9040 H   0  0  0  0  0  0  0  0  0  0  0  0
  130.6005  117.8272   61.8713 H   0  0  0  0  0  0  0  0  0  0  0  0
  128.7100  119.2710   62.9062 H   0  0  0  0  0  0  0  0  0  0  0  0
  130.3757  119.9564   62.8783 H   0  0  0  0  0  0  0  0  0  0  0  0
  131.3461  121.4400   62.7967 H   0  0  0  0  0  0  0  0  0  0  0  0
  132.0873  123.7656   63.2606 H   0  0  0  0  0  0  0  0  0  0  0  0
  130.6897  125.6852   62.5402 H   0  0  0  0  0  0  0  0  0  0  0  0
  126.4319  124.6793   61.4951 H   0  0  0  0  0  0  0  0  0  0  0  0
  125.1186  126.7054   60.8857 H   0  0  0  0  0  0  0  0  0  0  0  0
  128.7922  128.8874   60.2353 H   0  0  0  0  0  0  0  0  0  0  0  0
  130.1063  126.8639   60.8589 H   0  0  0  0  0  0  0  0  0  0  0  0
  127.0400  121.8312   61.0274 H   0  0  0  0  0  0  0  0  0  0  0  0
  126.6772  123.6408   61.0644 H   0  0  0  0  0  0  0  0  0  0  0  0
  127.1330  122.0140   58.8000 H   0  0  0  0  0  0  0  0  0  0  0  0
  129.1049  124.2335   59.1415 H   0  0  0  0  0  0  0  0  0  0  0  0
  129.4932  122.4964   58.9004 H   0  0  0  0  0  0  0  0  0  0  0  0
  129.7233  123.7238   56.7606 H   0  0  0  0  0  0  0  0  0  0  0  0
  128.3287  122.5700   56.6822 H   0  0  0  0  0  0  0  0  0  0  0  0
  126.2408  126.7434   56.4316 H   0  0  0  0  0  0  0  0  0  0  0  0
  126.8657  129.0957   56.8289 H   0  0  0  0  0  0  0  0  0  0  0  0
  132.0213  131.6436   60.9986 H   0  0  0  0  0  0  0  0  0  0  0  0
  130.8917  131.8043   63.2005 H   0  0  0  0  0  0  0  0  0  0  0  0
  128.4490  133.2260   64.1750 H   0  0  0  0  0  0  0  0  0  0  0  0
  126.9429  131.7503   65.0637 H   0  0  0  0  0  0  0  0  0  0  0  0
  126.8005  131.0070   63.4023 H   0  0  0  0  0  0  0  0  0  0  0  0
  129.3204  130.4014   64.6633 H   0  0  0  0  0  0  0  0  0  0  0  0
  128.1350  130.4434   66.8078 H   0  0  0  0  0  0  0  0  0  0  0  0
  126.8168  129.4102   66.1286 H   0  0  0  0  0  0  0  0  0  0  0  0
  129.7481  128.5933   66.5281 H   0  0  0  0  0  0  0  0  0  0  0  0
  128.3364  128.0316   67.4914 H   0  0  0  0  0  0  0  0  0  0  0  0
  129.9177  127.8684   64.2046 H   0  0  0  0  0  0  0  0  0  0  0  0
  128.6258  126.8006   63.5522 H   0  0  0  0  0  0  0  0  0  0  0  0
  128.4284  129.1636   62.7142 H   0  0  0  0  0  0  0  0  0  0  0  0
  126.9934  128.6449   63.6830 H   0  0  0  0  0  0  0  0  0  0  0  0
  128.3130  132.5872   59.0248 H   0  0  0  0  0  0  0  0  0  0  0  0
  132.3987  126.0895   56.4399 H   0  0  0  0  0  0  0  0  0  0  0  0
  133.7617  124.1371   57.1999 H   0  0  0  0  0  0  0  0  0  0  0  0
  134.6650  122.8970   59.6520 H   0  0  0  0  0  0  0  0  0  0  0  0
  134.4556  123.2974   62.1635 H   0  0  0  0  0  0  0  0  0  0  0  0
  132.9638  125.4830   62.5252 H   0  0  0  0  0  0  0  0  0  0  0  0
  131.6551  127.3110   60.5146 H   0  0  0  0  0  0  0  0  0  0  0  0
  130.2526  125.5120   57.3947 H   0  0  0  0  0  0  0  0  0  0  0  0
  125.7251  124.9047   56.8578 H   0  0  0  0  0  0  0  0  0  0  0  0
  126.2692  123.1791   56.7010 H   0  0  0  0  0  0  0  0  0  0  0  0
  126.5465  124.9224   59.2105 H   0  0  0  0  0  0  0  0  0  0  0  0
  125.3355  123.6143   58.9572 H   0  0  0  0  0  0  0  0  0  0  0  0
  1  2  1  0
  2  3  1  0
  2  4  1  0
  4  5  1  0
  5  6  1  0
  6  7  1  0
  7  8  2  0
  8  9  1  0
  9 10  2  0
 10 11  1  0
 11 12  1  0
 12 13  2  0
 13 14  1  0
 14 15  2  0
 15 16  1  0
 15 17  1  0
 17 18  2  0
 11 19  2  0
 19 20  1  0
 20 21  1  0
 21 22  1  0
 22 23  1  0
 23 24  1  0
 24 25  1  0
 25 26  2  0
 26 27  1  0
 27 28  2  0
 28 29  1  0
 29 30  1  0
 29 31  2  0
 31 32  1  0
 32 33  2  0
 32 34  2  0
 32 35  1  0
 35 36  2  0
 36 37  1  0
 37 38  2  0
 38 39  1  0
 39 40  1  0
 40 41  1  0
 41 42  1  0
 42 43  1  0
 43 44  1  0
 44 45  1  0
 45 46  1  0
 38 47  1  0
 47 48  1  0
 48 49  2  0
 48 50  1  0
 47 51  2  0
 28 52  1  0
 52 53  1  0
 53 54  1  0
 54 55  2  0
 55 56  1  0
 56 57  2  0
 57 58  1  0
 58 59  1  0
 59 60  2  0
 60 61  1  0
 61 62  2  0
 52 63  2  0
 24 64  1  0
 64 65  1  0
 19  7  1  0
 65 21  1  0
 18 12  1  0
 63 25  1  0
 51 35  1  0
 62 54  1  0
 46 41  1  0
 61 57  1  0
  1 66  1  0
  1 67  1  0
  1 68  1  0
  2 69  1  0
  3 70  1  0
  3 71  1  0
  3 72  1  0
  4 73  1  0
  4 74  1  0
  5 75  1  0
  5 76  1  0
  8 77  1  0
  9 78  1  0
 10 79  1  0
 13 80  1  0
 14 81  1  0
 17 82  1  0
 18 83  1  0
 20 84  1  0
 20 85  1  0
 21 86  1  0
 22 87  1  0
 22 88  1  0
 23 89  1  0
 23 90  1  0
 26 91  1  0
 27 92  1  0
 36 93  1  0
 37 94  1  0
 39 95  1  0
 40 96  1  0
 40 97  1  0
 41 98  1  0
 42 99  1  0
 42100  1  0
 43101  1  0
 43102  1  0
 45103  1  0
 45104  1  0
 46105  1  0
 46106  1  0
 51107  1  0
 55108  1  0
 56109  1  0
 58110  1  0
 59111  1  0
 60112  1  0
 62113  1  0
 63114  1  0
 64115  1  0
 64116  1  0
 65117  1  0
 65118  1  0
M  CHG  5   2   1  21   1  30  -1  48   1  50  -1
M  END
>  <Binding energies>  (1) 
[-5.38]

>  <Ligand effiencies>  (1) 
[-0.07797101449275362]

>  <Interactions>  (1) 
["V-A:ILE:369:CG2:3237, V-A:ASP:366:CA:3210, V-B:PRO:540:CA:9855, V-A:ILE:369:CB:3236, V-B:ALA:541:CB:9864, V-B:ASP:366:CG:8184, H-A:TYR:531:OH:4795, V-B:TYR:539:CE2:9848, V-A:LEU:475:CG:4257, V-B:TYR:539:C:9839, V-A:ASP:366:CG:3213, V-B:TYR:539:CZ:9849, V-B:TYR:531:CZ:9766, V-A:ALA:541:CB:4892, H-B:ALA:541:N:9863, V-A:LEU:475:CD1:4258, V-B:TYR:539:CB:9843, V-A:HIS:383:CE1:3393, V-A:GLU:543:CD:4908, V-B:PRO:540:CB:9857, V-A:HIS:383:NE2:3394, V-B:PRO:540:N:9856, V-A:ILE:369:CD1:3239, V-B:TYR:484:CZ:9318, V-A:ASP:366:C:3208, V-A:PRO:482:CB:4326, V-B:TYR:539:CD2:9846, V-A:TYR:531:CZ:4794, V-A:SER:385:CB:3409, V-A:GLU:543:CG:4907, V-B:GLU:543:CD:9880, V-A:MET:535:CE:4835, V-A:ILE:369:CG1:3238, V-A:ASP:366:CB:3212, V-A:LEU:475:CD2:4259, V-B:TYR:539:CG:9844, V-A:GLU:543:CB:4906, V-A:HIS:383:CD2:3392, V-B:TYR:539:CD1:9845, H-A:TYR:539:N:4870, V-A:PRO:540:CB:4885, V-A:PRO:540:CA:4883, H-B:TYR:539:O:9840, V-B:PRO:540:C:9853, V-B:ALA:541:CA:9862, V-B:TYR:539:CE1:9847"]

$$$$
ZINC150352944
     RDKit          3D

134141  0  0  0  0  0  0  0  0999 V2000
  128.7900  122.6540   74.6900 C   0  0  0  0  0  0  0  0  0  0  0  0
  128.5950  121.2300   74.4700 N   0  0  0  0  0  0  0  0  0  0  0  0
  129.6240  120.7110   73.5780 C   0  0  0  0  0  0  0  0  0  0  0  0
  130.0840  121.7310   72.5210 N   0  0  0  0  0  0  0  0  0  0  0  0
  128.9880  122.3740   71.6290 C   0  0  1  0  0  0  0  0  0  0  0  0
  129.6150  122.7650   70.2590 C   0  0  0  0  0  0  0  0  0  0  0  0
  128.7560  122.4520   69.0080 C   0  0  0  0  0  0  0  0  0  0  0  0
  129.1860  123.2360   67.7610 C   0  0  0  0  0  0  0  0  0  0  0  0
  129.2470  122.6720   66.6700 O   0  0  0  0  0  0  0  0  0  0  0  0
  129.4670  124.5370   67.9420 N   0  0  0  0  0  0  0  0  0  0  0  0
  129.8630  125.4710   66.8870 C   0  0  1  0  0  0  0  0  0  0  0  0
  129.1160  125.1780   65.5650 C   0  0  0  0  0  0  0  0  0  0  0  0
  129.9400  123.9570   64.4790 S   0  0  0  0  0  0  0  0  0  0  0  0
  128.9630  124.0980   62.9320 C   0  0  1  0  0  0  0  0  0  0  0  0
  129.3240  125.3910   62.1940 C   0  0  0  0  0  0  0  0  0  0  0  0
  128.5990  126.2630   61.4790 C   0  0  0  0  0  0  0  0  0  0  0  0
  127.1160  126.2600   61.1740 C   0  0  2  0  0  0  0  0  0  0  0  0
  126.7150  126.5250   59.6970 C   0  0  0  0  0  0  0  0  0  0  0  0
  126.1000  125.3570   58.8780 C   0  0  0  0  0  0  0  0  0  0  0  0
  125.9740  123.9940   59.5920 C   0  0  0  0  0  0  0  0  0  0  0  0
  127.3330  123.3160   59.9040 C   0  0  0  0  0  0  0  0  0  0  0  0
  127.4740  122.7390   61.3230 C   0  0  0  0  0  0  0  0  0  0  0  0
  128.8800  122.8090   62.0250 C   0  0  0  0  0  0  0  0  0  0  0  0
  130.0550  122.6930   61.0270 C   0  0  0  0  0  0  0  0  0  0  0  0
  130.2090  121.2040   60.6890 C   0  0  0  0  0  0  0  0  0  0  0  0
  129.5800  120.4300   61.8560 C   0  0  0  0  0  0  0  0  0  0  0  0
  129.0390  121.4870   62.8300 C   0  0  0  0  0  0  0  0  0  0  0  0
  126.5240  127.2730   62.1690 C   0  0  0  0  0  0  0  0  0  0  0  0
  127.2790  128.6130   62.2400 C   0  0  0  0  0  0  0  0  0  0  0  0
  126.4670  129.6960   62.9670 C   0  0  0  0  0  0  0  0  0  0  0  0
  126.6800  129.6970   64.4770 C   0  0  0  0  0  0  0  0  0  0  0  0
  125.6780  129.2180   65.3300 C   0  0  0  0  0  0  0  0  0  0  0  0
  125.9070  129.2400   66.7080 C   0  0  0  0  0  0  0  0  0  0  0  0
  127.0540  129.7100   67.2590 N   0  0  0  0  0  0  0  0  0  0  0  0
  128.0180  130.1680   66.4190 C   0  0  0  0  0  0  0  0  0  0  0  0
  127.8720  130.1770   65.0300 C   0  0  0  0  0  0  0  0  0  0  0  0
  128.5640  128.7790   61.7750 C   0  0  0  0  0  0  0  0  0  0  0  0
  129.1720  130.2200   61.7400 C   0  0  1  0  0  0  0  0  0  0  0  0
  130.6940  130.3230   61.4970 N   0  0  0  0  0  0  0  0  0  0  0  0
  131.2630  131.6940   61.9090 C   0  0  0  0  0  0  0  0  0  0  0  0
  130.5470  132.8070   61.1230 C   0  0  0  0  0  0  0  0  0  0  0  0
  129.0020  132.6870   61.1540 C   0  0  0  0  0  0  0  0  0  0  0  0
  128.4660  131.2700   60.7950 C   0  0  1  0  0  0  0  0  0  0  0  0
  128.3060  130.9420   59.2630 C   0  0  0  0  0  0  0  0  0  0  0  0
  129.4090  131.3070   58.2440 C   0  0  0  0  0  0  0  0  0  0  0  0
  129.6140  132.6700   57.9780 C   0  0  0  0  0  0  0  0  0  0  0  0
  130.5970  133.1010   57.0920 C   0  0  0  0  0  0  0  0  0  0  0  0
  131.3770  132.1700   56.4190 C   0  0  0  0  0  0  0  0  0  0  0  0
  131.1390  130.8120   56.6010 C   0  0  0  0  0  0  0  0  0  0  0  0
  130.1440  130.3600   57.4800 C   0  0  0  0  0  0  0  0  0  0  0  0
  129.8440  128.8560   57.4360 C   0  0  0  0  0  0  0  0  0  0  0  0
  129.9150  128.1780   58.7300 C   0  0  0  0  0  0  0  0  0  0  0  0
  129.7630  127.7630   59.8660 C   0  0  0  0  0  0  0  0  0  0  0  0
  129.4040  127.5420   61.2770 C   0  0  2  0  0  0  0  0  0  0  0  0
  130.6590  127.1250   62.0750 C   0  0  0  0  0  0  0  0  0  0  0  0
  131.6680  127.7740   62.3540 O   0  0  0  0  0  0  0  0  0  0  0  0
  130.5630  125.8440   62.4400 O   0  0  0  0  0  0  0  0  0  0  0  0
  129.7090  126.9380   67.3360 C   0  0  0  0  0  0  0  0  0  0  0  0
  129.2510  127.7750   66.5560 O   0  0  0  0  0  0  0  0  0  0  0  0
  130.1160  127.2040   68.5880 N   0  0  0  0  0  0  0  0  0  0  0  0
  130.0460  128.5120   69.2510 C   0  0  1  0  0  0  0  0  0  0  0  0
  129.0470  129.3420   68.6770 O   0  0  0  0  0  0  0  0  0  0  0  0
  129.8190  128.2710   70.7920 C   0  0  0  0  0  0  0  0  0  0  0  0
  130.1190  127.1160   71.1770 O   0  0  0  0  0  0  0  0  0  0  0  0
  129.3370  129.2170   71.4620 O   0  0  0  0  0  0  0  0  0  0  0  0
  127.8150  121.3680   71.4360 C   0  0  0  0  0  0  0  0  0  0  0  0
  126.7500  121.6600   72.0220 O   0  0  0  0  0  0  0  0  0  0  0  0
  127.9520  120.3550   70.7060 O   0  0  0  0  0  0  0  0  0  0  0  0
  128.8179  122.8576   75.7706 H   0  0  0  0  0  0  0  0  0  0  0  0
  129.7397  122.9690   74.2329 H   0  0  0  0  0  0  0  0  0  0  0  0
  127.9600  123.2127   74.2329 H   0  0  0  0  0  0  0  0  0  0  0  0
  127.6770  121.0660   74.0780 H   0  0  0  0  0  0  0  0  0  0  0  0
  130.4949  120.4179   74.1827 H   0  0  0  0  0  0  0  0  0  0  0  0
  129.1877  119.8572   73.0389 H   0  0  0  0  0  0  0  0  0  0  0  0
  130.5990  122.4630   72.9880 H   0  0  0  0  0  0  0  0  0  0  0  0
  130.7260  121.2570   71.9010 H   0  0  0  0  0  0  0  0  0  0  0  0
  128.5899  123.2797   72.1099 H   0  0  0  0  0  0  0  0  0  0  0  0
  129.8077  123.8479   70.2733 H   0  0  0  0  0  0  0  0  0  0  0  0
  130.5212  122.1494   70.1597 H   0  0  0  0  0  0  0  0  0  0  0  0
  128.8376  121.3771   68.7892 H   0  0  0  0  0  0  0  0  0  0  0  0
  127.7235  122.7523   69.2400 H   0  0  0  0  0  0  0  0  0  0  0  0
  129.4180  124.9290   68.8700 H   0  0  0  0  0  0  0  0  0  0  0  0
  130.9340  125.3156   66.6898 H   0  0  0  0  0  0  0  0  0  0  0  0
  128.1152  124.7955   65.8139 H   0  0  0  0  0  0  0  0  0  0  0  0
  129.0891  126.1248   65.0056 H   0  0  0  0  0  0  0  0  0  0  0  0
  127.9112  124.1708   63.2457 H   0  0  0  0  0  0  0  0  0  0  0  0
  126.7058  125.2470   61.2992 H   0  0  0  0  0  0  0  0  0  0  0  0
  125.9787  127.3422   59.7014 H   0  0  0  0  0  0  0  0  0  0  0  0
  127.6687  126.7372   59.1916 H   0  0  0  0  0  0  0  0  0  0  0  0
  125.0904  125.6642   58.5676 H   0  0  0  0  0  0  0  0  0  0  0  0
  126.8050  125.1838   58.0515 H   0  0  0  0  0  0  0  0  0  0  0  0
  125.4391  124.1489   60.5407 H   0  0  0  0  0  0  0  0  0  0  0  0
  125.4351  123.3244   58.9055 H   0  0  0  0  0  0  0  0  0  0  0  0
  127.4736  122.4930   59.1878 H   0  0  0  0  0  0  0  0  0  0  0  0
  128.0918  124.1083   59.8230 H   0  0  0  0  0  0  0  0  0  0  0  0
  126.7630  123.2792   61.9654 H   0  0  0  0  0  0  0  0  0  0  0  0
  127.2898  121.6621   61.1955 H   0  0  0  0  0  0  0  0  0  0  0  0
  129.8344  123.2669   60.1149 H   0  0  0  0  0  0  0  0  0  0  0  0
  130.9817  123.0954   61.4621 H   0  0  0  0  0  0  0  0  0  0  0  0
  129.6850  120.9703   59.7505 H   0  0  0  0  0  0  0  0  0  0  0  0
  131.2661  120.9322   60.5526 H   0  0  0  0  0  0  0  0  0  0  0  0
  128.7611  119.7917   61.4927 H   0  0  0  0  0  0  0  0  0  0  0  0
  130.3158  119.7743   62.3446 H   0  0  0  0  0  0  0  0  0  0  0  0
  128.0649  121.1688   63.2298 H   0  0  0  0  0  0  0  0  0  0  0  0
  129.7240  121.6249   63.6796 H   0  0  0  0  0  0  0  0  0  0  0  0
  125.4850  127.4792   61.8723 H   0  0  0  0  0  0  0  0  0  0  0  0
  126.6035  126.8155   63.1662 H   0  0  0  0  0  0  0  0  0  0  0  0
  126.7633  130.6789   62.5718 H   0  0  0  0  0  0  0  0  0  0  0  0
  125.4032  129.4812   62.7879 H   0  0  0  0  0  0  0  0  0  0  0  0
  124.7311  128.8328   64.9238 H   0  0  0  0  0  0  0  0  0  0  0  0
  125.1213  128.8588   67.3768 H   0  0  0  0  0  0  0  0  0  0  0  0
  128.9550  130.5486   66.8517 H   0  0  0  0  0  0  0  0  0  0  0  0
  128.6783  130.5540   64.3837 H   0  0  0  0  0  0  0  0  0  0  0  0
  128.9589  130.4901   62.7848 H   0  0  0  0  0  0  0  0  0  0  0  0
  131.1650  129.5970   62.0200 H   0  0  0  0  0  0  0  0  0  0  0  0
  130.8860  130.1580   60.5180 H   0  0  0  0  0  0  0  0  0  0  0  0
  131.1050  131.8471   62.9868 H   0  0  0  0  0  0  0  0  0  0  0  0
  132.3399  131.7245   61.6869 H   0  0  0  0  0  0  0  0  0  0  0  0
  130.8300  133.7774   61.5567 H   0  0  0  0  0  0  0  0  0  0  0  0
  130.8587  132.7142   60.0722 H   0  0  0  0  0  0  0  0  0  0  0  0
  128.6563  132.9404   62.1670 H   0  0  0  0  0  0  0  0  0  0  0  0
  128.6155  133.3753   60.3879 H   0  0  0  0  0  0  0  0  0  0  0  0
  127.3906  131.2124   61.0192 H   0  0  0  0  0  0  0  0  0  0  0  0
  128.1636  129.8536   59.1910 H   0  0  0  0  0  0  0  0  0  0  0  0
  127.4773  131.6004   58.9635 H   0  0  0  0  0  0  0  0  0  0  0  0
  128.9821  133.4159   58.4823 H   0  0  0  0  0  0  0  0  0  0  0  0
  130.7556  134.1767   56.9253 H   0  0  0  0  0  0  0  0  0  0  0  0
  132.1793  132.5050   55.7451 H   0  0  0  0  0  0  0  0  0  0  0  0
  131.7422  130.0789   56.0454 H   0  0  0  0  0  0  0  0  0  0  0  0
  128.8289  128.7212   57.0344 H   0  0  0  0  0  0  0  0  0  0  0  0
  130.6238  128.4031   56.8061 H   0  0  0  0  0  0  0  0  0  0  0  0
  130.5130  126.4620   69.1450 H   0  0  0  0  0  0  0  0  0  0  0  0
  130.9917  129.0551   69.1069 H   0  0  0  0  0  0  0  0  0  0  0  0
  128.3780  128.7770   68.2830 H   0  0  0  0  0  0  0  0  0  0  0  0
  1  2  1  0
  2  3  1  0
  3  4  1  0
  4  5  1  0
  5  6  1  0
  6  7  1  0
  7  8  1  0
  8  9  2  0
  8 10  1  0
 10 11  1  0
 11 12  1  0
 12 13  1  0
 13 14  1  0
 14 15  1  0
 15 16  2  0
 16 17  1  0
 17 18  1  0
 18 19  1  0
 19 20  1  0
 20 21  1  0
 21 22  1  0
 22 23  1  0
 23 24  1  0
 24 25  1  0
 25 26  1  0
 26 27  1  0
 17 28  1  0
 28 29  1  0
 29 30  1  0
 30 31  1  0
 31 32  2  0
 32 33  1  0
 33 34  2  0
 34 35  1  0
 35 36  2  0
 29 37  2  0
 37 38  1  0
 38 39  1  0
 39 40  1  0
 40 41  1  0
 41 42  1  0
 42 43  1  0
 43 44  1  0
 44 45  1  0
 45 46  2  0
 46 47  1  0
 47 48  2  0
 48 49  1  0
 49 50  2  0
 50 51  1  0
 51 52  1  0
 52 53  3  0
 54 53  1  6
 54 55  1  0
 55 56  2  0
 55 57  1  0
 11 58  1  0
 58 59  2  0
 58 60  1  0
 60 61  1  0
 61 62  1  0
 61 63  1  0
 63 64  2  0
 63 65  1  0
  5 66  1  0
 66 67  2  0
 66 68  1  0
 23 14  1  0
 36 31  1  0
 54 37  1  0
 57 15  1  0
 54 16  1  0
 27 23  1  0
 43 38  1  0
 50 45  1  0
  1 69  1  0
  1 70  1  0
  1 71  1  0
  2 72  1  0
  3 73  1  0
  3 74  1  0
  4 75  1  0
  4 76  1  0
  5 77  1  1
  6 78  1  0
  6 79  1  0
  7 80  1  0
  7 81  1  0
 10 82  1  0
 11 83  1  6
 12 84  1  0
 12 85  1  0
 14 86  1  1
 17 87  1  1
 18 88  1  0
 18 89  1  0
 19 90  1  0
 19 91  1  0
 20 92  1  0
 20 93  1  0
 21 94  1  0
 21 95  1  0
 22 96  1  0
 22 97  1  0
 24 98  1  0
 24 99  1  0
 25100  1  0
 25101  1  0
 26102  1  0
 26103  1  0
 27104  1  0
 27105  1  0
 28106  1  0
 28107  1  0
 30108  1  0
 30109  1  0
 32110  1  0
 33111  1  0
 35112  1  0
 36113  1  0
 38114  1  1
 39115  1  0
 39116  1  0
 40117  1  0
 40118  1  0
 41119  1  0
 41120  1  0
 42121  1  0
 42122  1  0
 43123  1  1
 44124  1  0
 44125  1  0
 46126  1  0
 47127  1  0
 48128  1  0
 49129  1  0
 51130  1  0
 51131  1  0
 60132  1  0
 61133  1  1
 62134  1  0
M  CHG  4   4   1  39   1  65  -1  68  -1
M  END
>  <Binding energies>  (1) 
[28.15]

>  <Ligand effiencies>  (1) 
[0.351875]

>  <Interactions>  (1) 
["V-B:PRO:540:CA:9855, V-A:GLU:543:CA:4904, V-B:GLU:543:C:9874, H-B:GLU:543:O:9875, V-A:GLU:543:C:4902, V-B:GLU:543:CB:9878, V-A:ILE:538:CB:4862, V-A:PRO:540:C:4881, V-B:ALA:541:CB:9864, V-B:TYR:539:CE2:9848, V-A:TYR:484:CE2:4346, V-B:GLU:543:CG:9879, V-A:HIS:456:CD2:4068, V-A:ILE:538:CG2:4863, V-A:LEU:363:CD1:3189, V-B:TYR:484:CE2:9317, V-A:ILE:538:CA:4860, V-A:TYR:531:CE2:4793, V-B:LYS:547:CE:9922, V-A:TYR:484:CZ:4347, V-A:GLU:543:CD:4908, V-B:PRO:540:CB:9857, H-B:TYR:484:OH:9319, V-A:TYR:484:CD1:4343, V-B:GLU:543:CA:9876, H-B:GLY:544:N:9887, V-B:HIS:456:CE1:9041, V-A:TYR:484:CD2:4344, V-A:HIS:456:CE1:4070, V-B:TYR:484:CZ:9318, H-B:HIS:456:NE2:9042, V-A:TYR:484:CG:4342, V-B:GLY:544:CA:9886, V-A:TYR:531:CZ:4794, V-A:GLU:543:CG:4907, V-B:TYR:539:CD2:9846, H-A:TYR:484:N:4340, V-B:GLU:543:CD:9880, V-A:MET:535:CE:4835, V-B:ARG:545:CZ:9898, V-A:TYR:539:C:4867, V-A:LEU:475:CD2:4259, H-A:ARG:545:NH2:4928, H-A:GLU:543:OE1:4909, V-A:TYR:484:CB:4341, V-A:TYR:484:CE1:4345, V-B:VAL:542:C:9866, V-A:HIS:456:CG:4066, V-A:GLU:543:CB:4906, V-A:PRO:540:N:4884, V-A:PRO:540:CB:4885, V-A:PRO:540:CA:4883, V-B:PRO:540:C:9853, H-A:ASP:366:OD2:3215, V-B:ALA:541:CA:9862, V-A:PRO:540:CD:4887, H-A:HIS:456:NE2:4071, H-A:TYR:484:OH:4348"]

$$$$
ZINC150362008
     RDKit          3D

 59 63  0  0  0  0  0  0  0  0999 V2000
  126.5230  123.7840   61.1500 C   0  0  0  0  0  0  0  0  0  0  0  0
  127.3620  123.2380   62.3030 C   0  0  0  0  0  0  0  0  0  0  0  0
  126.8480  122.4880   63.1310 O   0  0  0  0  0  0  0  0  0  0  0  0
  128.8590  123.6520   62.3740 C   0  0  2  0  0  0  0  0  0  0  0  0
  129.7610  122.5250   61.7530 C   0  0  0  0  0  0  0  0  0  0  0  0
  130.7910  122.8300   61.1450 O   0  0  0  0  0  0  0  0  0  0  0  0
  129.3420  121.2460   61.9130 N   0  0  0  0  0  0  0  0  0  0  0  0
  129.9180  120.0510   61.4520 C   0  0  0  0  0  0  0  0  0  0  0  0
  129.3600  118.8710   61.9530 C   0  0  0  0  0  0  0  0  0  0  0  0
  129.8560  117.6350   61.5500 C   0  0  0  0  0  0  0  0  0  0  0  0
  130.9060  117.5760   60.6370 C   0  0  0  0  0  0  0  0  0  0  0  0
  131.4610  118.7440   60.1200 C   0  0  0  0  0  0  0  0  0  0  0  0
  130.9680  119.9840   60.5220 C   0  0  0  0  0  0  0  0  0  0  0  0
  129.4220  124.1930   63.7370 C   0  0  1  0  0  0  0  0  0  0  0  0
  130.9050  123.4750   64.4450 Cl  0  0  0  0  0  0  0  0  0  0  0  0
  129.6690  125.5270   62.9990 C   0  0  0  0  0  0  0  0  0  0  0  0
  130.1340  126.6160   63.3290 O   0  0  0  0  0  0  0  0  0  0  0  0
  129.1140  125.0310   61.8040 N   0  0  0  0  0  0  0  0  0  0  0  0
  128.6890  125.7050   60.5670 N   0  0  0  0  0  0  0  0  0  0  0  0
  128.5710  127.1010   60.6640 C   0  0  0  0  0  0  0  0  0  0  0  0
  127.4780  127.6950   61.2350 C   0  0  0  0  0  0  0  0  0  0  0  0
  126.4510  126.9660   61.7540 O   0  0  0  0  0  0  0  0  0  0  0  0
  127.3680  129.1460   61.2310 C   0  0  0  0  0  0  0  0  0  0  0  0
  128.2770  129.9080   60.5980 C   0  0  0  0  0  0  0  0  0  0  0  0
  129.4090  129.2840   59.9210 C   0  0  0  0  0  0  0  0  0  0  0  0
  130.3110  129.9270   59.1510 C   0  0  0  0  0  0  0  0  0  0  0  0
  130.4160  131.7070   58.7350 P   0  0  0  0  0  0  0  0  0  0  0  0
  132.3630  131.7510   57.8910 Cl  0  0  0  0  0  0  0  0  0  0  0  0
  129.2980  131.7100   56.9310 Cl  0  0  0  0  0  0  0  0  0  0  0  0
  131.4200  128.6730   58.5700 P   0  0  0  0  0  0  0  0  0  0  0  0
  130.8360  127.4510   59.5500 C   0  0  0  0  0  0  0  0  0  0  0  0
  131.6730  126.3020   59.9020 C   0  0  0  0  0  0  0  0  0  0  0  0
  132.0890  125.4100   58.9060 C   0  0  0  0  0  0  0  0  0  0  0  0
  132.9150  124.3380   59.2350 C   0  0  0  0  0  0  0  0  0  0  0  0
  133.3230  124.1600   60.5540 C   0  0  0  0  0  0  0  0  0  0  0  0
  132.9170  125.0470   61.5490 C   0  0  0  0  0  0  0  0  0  0  0  0
  132.0970  126.1230   61.2220 C   0  0  0  0  0  0  0  0  0  0  0  0
  129.5920  127.8830   60.0550 N   0  0  0  0  0  0  0  0  0  0  0  0
  128.8670  125.1970   59.2270 N   0  0  0  0  0  0  0  0  0  0  0  0
  129.4430  124.1210   59.0800 O   0  0  0  0  0  0  0  0  0  0  0  0
  128.4300  125.8660   58.2990 O   0  0  0  0  0  0  0  0  0  0  0  0
  125.6651  124.3423   61.5530 H   0  0  0  0  0  0  0  0  0  0  0  0
  127.1396  124.4543   60.5332 H   0  0  0  0  0  0  0  0  0  0  0  0
  126.1598  122.9488   60.5332 H   0  0  0  0  0  0  0  0  0  0  0  0
  128.5320  121.1150   62.5000 H   0  0  0  0  0  0  0  0  0  0  0  0
  128.5258  118.9199   62.6684 H   0  0  0  0  0  0  0  0  0  0  0  0
  129.4204  116.7080   61.9510 H   0  0  0  0  0  0  0  0  0  0  0  0
  131.3003  116.5987   60.3216 H   0  0  0  0  0  0  0  0  0  0  0  0
  132.2870  118.6879   59.3957 H   0  0  0  0  0  0  0  0  0  0  0  0
  131.4005  120.9084   60.1116 H   0  0  0  0  0  0  0  0  0  0  0  0
  128.8187  124.0788   64.6497 H   0  0  0  0  0  0  0  0  0  0  0  0
  126.6870  126.6620   62.6340 H   0  0  0  0  0  0  0  0  0  0  0  0
  126.5282  129.6268   61.7540 H   0  0  0  0  0  0  0  0  0  0  0  0
  128.1673  131.0025   60.5905 H   0  0  0  0  0  0  0  0  0  0  0  0
  131.7639  125.5557   57.8653 H   0  0  0  0  0  0  0  0  0  0  0  0
  133.2437  123.6347   58.4557 H   0  0  0  0  0  0  0  0  0  0  0  0
  133.9723  123.3108   60.8133 H   0  0  0  0  0  0  0  0  0  0  0  0
  133.2433  124.8974   62.5888 H   0  0  0  0  0  0  0  0  0  0  0  0
  131.7827  126.8322   62.0019 H   0  0  0  0  0  0  0  0  0  0  0  0
  1  2  1  0
  2  3  2  0
  4  2  1  1
  4  5  1  0
  5  6  2  0
  5  7  1  0
  7  8  1  0
  8  9  2  0
  9 10  1  0
 10 11  2  0
 11 12  1  0
 12 13  2  0
  4 14  1  0
 14 15  1  0
 14 16  1  0
 16 17  2  0
 16 18  1  0
 18 19  1  0
 19 20  1  0
 20 21  2  0
 21 22  1  0
 21 23  1  0
 23 24  2  0
 24 25  1  0
 25 26  2  0
 26 27  1  0
 27 28  1  0
 27 29  1  0
 26 30  1  0
 30 31  2  0
 31 32  1  0
 32 33  2  0
 33 34  1  0
 34 35  2  0
 35 36  1  0
 36 37  2  0
 31 38  1  0
 19 39  1  0
 39 40  2  0
 39 41  1  0
 18  4  1  0
 38 20  1  0
 13  8  1  0
 38 25  1  0
 37 32  1  0
  1 42  1  0
  1 43  1  0
  1 44  1  0
  7 45  1  0
  9 46  1  0
 10 47  1  0
 11 48  1  0
 12 49  1  0
 13 50  1  0
 14 51  1  1
 22 52  1  0
 23 53  1  0
 24 54  1  0
 33 55  1  0
 34 56  1  0
 35 57  1  0
 36 58  1  0
 37 59  1  0
M  CHG  2  39   1  41  -1
M  END
>  <Binding energies>  (1) 
[-7.61]

>  <Ligand effiencies>  (1) 
[-0.17697674418604653]

>  <Interactions>  (1) 
["V-B:PRO:540:CA:9855, V-B:ALA:541:CB:9864, V-B:TYR:539:CE2:9848, V-A:TYR:484:CE2:4346, V-B:GLU:543:CG:9879, V-A:ASP:366:CG:3213, V-A:LEU:363:CD1:3189, H-B:GLU:543:OE1:9881, H-B:ALA:541:N:9863, V-A:LEU:475:CD1:4258, V-B:TYR:539:CB:9843, V-A:HIS:383:CE1:3393, V-B:PRO:540:CB:9857, V-A:PRO:482:CB:4326, V-B:TYR:539:CD2:9846, V-B:GLU:543:CD:9880, V-A:MET:535:CE:4835, V-A:ASP:366:CB:3212, V-A:LEU:475:CD2:4259, V-B:TYR:539:CG:9844, H-B:ARG:545:NH2:9900, H-B:GLU:543:OE2:9882, V-A:PRO:482:CG:4327, V-A:PRO:540:CA:4883, V-A:PRO:540:CB:4885, V-B:PRO:540:C:9853, V-B:ALA:541:CA:9862, V-A:HIS:383:NE2:3394"]

$$$$
ZINC150362008-again1
     RDKit          3D

 58 62  0  0  0  0  0  0  0  0999 V2000
  128.7550  127.0970   63.6200 C   0  0  0  0  0  0  0  0  0  0  0  0
  130.0770  126.3950   63.2950 C   0  0  0  0  0  0  0  0  0  0  0  0
  130.6300  126.6400   62.2240 O   0  0  0  0  0  0  0  0  0  0  0  0
  130.7110  125.3690   64.2890 C   0  0  2  0  0  0  0  0  0  0  0  0
  129.9170  125.2530   65.6330 C   0  0  0  0  0  0  0  0  0  0  0  0
  129.5180  124.1550   66.0240 O   0  0  0  0  0  0  0  0  0  0  0  0
  129.7520  126.4040   66.3280 N   0  0  0  0  0  0  0  0  0  0  0  0
  129.0600  126.6070   67.5340 C   0  0  0  0  0  0  0  0  0  0  0  0
  129.7860  126.3910   68.7090 C   0  0  0  0  0  0  0  0  0  0  0  0
  129.1820  126.5810   69.9490 C   0  0  0  0  0  0  0  0  0  0  0  0
  127.8540  126.9970   70.0150 C   0  0  0  0  0  0  0  0  0  0  0  0
  127.1260  127.2320   68.8500 C   0  0  0  0  0  0  0  0  0  0  0  0
  127.7270  127.0430   67.6090 C   0  0  0  0  0  0  0  0  0  0  0  0
  132.2730  125.4250   64.4970 C   0  0  1  0  0  0  0  0  0  0  0  0
  132.9600  125.4700   66.1530 Cl  0  0  0  0  0  0  0  0  0  0  0  0
  132.3200  124.0230   63.8470 C   0  0  0  0  0  0  0  0  0  0  0  0
  133.2010  123.1900   63.6380 O   0  0  0  0  0  0  0  0  0  0  0  0
  130.9430  124.0390   63.6190 N   0  0  0  0  0  0  0  0  0  0  0  0
  130.0620  123.0110   63.1000 N   0  0  0  0  0  0  0  0  0  0  0  0
  129.1620  123.4300   62.0980 C   0  0  0  0  0  0  0  0  0  0  0  0
  127.7890  123.3510   62.1840 C   0  0  0  0  0  0  0  0  0  0  0  0
  127.1700  122.8570   63.2040 O   0  0  0  0  0  0  0  0  0  0  0  0
  126.9580  123.9590   61.1490 C   0  0  0  0  0  0  0  0  0  0  0  0
  127.5090  124.6890   60.1630 C   0  0  0  0  0  0  0  0  0  0  0  0
  128.9580  124.8370   60.0900 C   0  0  0  0  0  0  0  0  0  0  0  0
  129.6320  125.6480   59.2480 C   0  0  0  0  0  0  0  0  0  0  0  0
  128.9790  126.7890   57.9750 P   0  0  0  0  0  0  0  0  0  0  0  0
  127.7690  125.4300   56.8820 Cl  0  0  0  0  0  0  0  0  0  0  0  0
  127.4450  127.7300   59.1010 Cl  0  0  0  0  0  0  0  0  0  0  0  0
  131.3500  125.3740   59.6060 P   0  0  0  0  0  0  0  0  0  0  0  0
  131.0980  124.0240   60.5570 C   0  0  0  0  0  0  0  0  0  0  0  0
  132.0890  122.9500   60.6840 C   0  0  0  0  0  0  0  0  0  0  0  0
  131.6900  121.6150   60.5550 C   0  0  0  0  0  0  0  0  0  0  0  0
  132.6260  120.5920   60.6790 C   0  0  0  0  0  0  0  0  0  0  0  0
  133.9620  120.9050   60.9210 C   0  0  0  0  0  0  0  0  0  0  0  0
  134.3710  122.2320   61.0380 C   0  0  0  0  0  0  0  0  0  0  0  0
  133.4350  123.2550   60.9140 C   0  0  0  0  0  0  0  0  0  0  0  0
  129.7570  124.0840   60.9830 N   0  0  0  0  0  0  0  0  0  0  0  0
  129.8560  121.7250   63.7120 N   0  0  0  0  0  0  0  0  0  0  0  0
  129.8000  120.7290   62.9930 O   0  0  0  0  0  0  0  0  0  0  0  0
  129.7820  121.7000   64.9360 O   0  0  0  0  0  0  0  0  0  0  0  0
  128.6329  127.1618   64.7113 H   0  0  0  0  0  0  0  0  0  0  0  0
  128.7626  128.1099   63.1911 H   0  0  0  0  0  0  0  0  0  0  0  0
  127.9201  126.5234   63.1911 H   0  0  0  0  0  0  0  0  0  0  0  0
  130.2380  127.2150   65.9790 H   0  0  0  0  0  0  0  0  0  0  0  0
  130.8367  126.0702   68.6538 H   0  0  0  0  0  0  0  0  0  0  0  0
  129.7513  126.4033   70.8733 H   0  0  0  0  0  0  0  0  0  0  0  0
  127.3759  127.1412   70.9951 H   0  0  0  0  0  0  0  0  0  0  0  0
  126.0797  127.5658   68.9112 H   0  0  0  0  0  0  0  0  0  0  0  0
  127.1582  127.2350   66.6873 H   0  0  0  0  0  0  0  0  0  0  0  0
  132.8272  126.3058   64.1407 H   0  0  0  0  0  0  0  0  0  0  0  0
  125.8674  123.8182   61.1760 H   0  0  0  0  0  0  0  0  0  0  0  0
  126.8675  125.1739   59.4125 H   0  0  0  0  0  0  0  0  0  0  0  0
  130.6355  121.3736   60.3554 H   0  0  0  0  0  0  0  0  0  0  0  0
  132.3124  119.5417   60.5864 H   0  0  0  0  0  0  0  0  0  0  0  0
  134.7012  120.0966   61.0207 H   0  0  0  0  0  0  0  0  0  0  0  0
  135.4281  122.4700   61.2274 H   0  0  0  0  0  0  0  0  0  0  0  0
  133.7540  124.3044   60.9969 H   0  0  0  0  0  0  0  0  0  0  0  0
  1  2  1  0
  2  3  2  0
  4  2  1  6
  4  5  1  0
  5  6  2  0
  5  7  1  0
  7  8  1  0
  8  9  2  0
  9 10  1  0
 10 11  2  0
 11 12  1  0
 12 13  2  0
  4 14  1  0
 14 15  1  0
 14 16  1  0
 16 17  2  0
 16 18  1  0
 18 19  1  0
 19 20  1  0
 20 21  2  0
 21 22  1  0
 21 23  1  0
 23 24  2  0
 24 25  1  0
 25 26  2  0
 26 27  1  0
 27 28  1  0
 27 29  1  0
 26 30  1  0
 30 31  2  0
 31 32  1  0
 32 33  2  0
 33 34  1  0
 34 35  2  0
 35 36  1  0
 36 37  2  0
 31 38  1  0
 19 39  1  0
 39 40  2  0
 39 41  1  0
 18  4  1  0
 38 20  1  0
 13  8  1  0
 38 25  1  0
 37 32  1  0
  1 42  1  0
  1 43  1  0
  1 44  1  0
  7 45  1  0
  9 46  1  0
 10 47  1  0
 11 48  1  0
 12 49  1  0
 13 50  1  0
 14 51  1  6
 23 52  1  0
 24 53  1  0
 33 54  1  0
 34 55  1  0
 35 56  1  0
 36 57  1  0
 37 58  1  0
M  CHG  3  22  -1  39   1  41  -1
M  END
>  <Binding energies>  (1) 
[-6.81]

>  <Ligand effiencies>  (1) 
[-0.16214285714285714]

>  <Interactions>  (1) 
["V-A:ILE:369:CG2:3237, V-B:PRO:540:CA:9855, V-B:GLU:543:C:9874, H-A:GLU:543:OE2:4910, V-A:ILE:369:CB:3236, V-B:GLU:543:CB:9878, V-B:ALA:541:CB:9864, V-B:TYR:539:CE2:9848, V-B:GLU:543:CG:9879, H-B:ALA:541:N:9863, V-A:GLU:543:CD:4908, V-B:HIS:456:CE1:9041, V-A:ARG:545:CG:4922, H-A:GLY:454:N:4050, V-A:SER:385:C:3405, V-A:HIS:456:CE1:4070, V-A:ILE:369:CD1:3239, V-B:TYR:539:CD2:9846, V-A:SER:385:CB:3409, V-B:GLU:543:CD:9880, V-A:ILE:369:CG1:3238, V-A:ARG:545:CD:4923, V-A:LEU:475:CD2:4259, H-A:ARG:545:NH2:4928, V-A:ARG:545:CZ:4926, H-A:GLU:543:OE1:4909, V-A:SER:385:CA:3407, H-A:TYR:484:OH:4348"]

$$$$
ZINC150383089
     RDKit          3D

 99103  0  0  0  0  0  0  0  0999 V2000
  128.1900  126.6120   71.6630 C   0  0  0  0  0  0  0  0  0  0  0  0
  129.1980  127.6650   72.1880 C   0  0  0  0  0  0  0  0  0  0  0  0
  130.4340  126.9830   72.8230 C   0  0  0  0  0  0  0  0  0  0  0  0
  128.4940  128.5480   73.2390 C   0  0  0  0  0  0  0  0  0  0  0  0
  129.6050  128.5830   71.1560 O   0  0  0  0  0  0  0  0  0  0  0  0
  130.1400  128.2260   69.9490 C   0  0  0  0  0  0  0  0  0  0  0  0
  131.2550  127.7390   69.7630 O   0  0  0  0  0  0  0  0  0  0  0  0
  129.1800  128.4620   68.7660 C   0  0  0  0  0  0  0  0  0  0  0  0
  129.4050  127.4970   67.6820 N   0  0  0  0  0  0  0  0  0  0  0  0
  128.8060  127.5410   66.4780 C   0  0  0  0  0  0  0  0  0  0  0  0
  128.0340  128.4300   66.1170 O   0  0  0  0  0  0  0  0  0  0  0  0
  129.1050  126.3690   65.5330 C   0  0  2  0  0  0  0  0  0  0  0  0
  129.9310  125.2650   66.2260 C   0  0  0  0  0  0  0  0  0  0  0  0
  130.9260  124.5720   65.3100 C   0  0  0  0  0  0  0  0  0  0  0  0
  132.1980  125.1400   65.0850 C   0  0  0  0  0  0  0  0  0  0  0  0
  133.1440  124.4530   64.3360 C   0  0  0  0  0  0  0  0  0  0  0  0
  132.8520  123.1950   63.8260 C   0  0  0  0  0  0  0  0  0  0  0  0
  131.6180  122.6070   64.0690 C   0  0  0  0  0  0  0  0  0  0  0  0
  130.6590  123.2750   64.8190 C   0  0  0  0  0  0  0  0  0  0  0  0
  129.8280  126.8570   64.3600 N   0  0  0  0  0  0  0  0  0  0  0  0
  129.2680  127.0840   63.1600 C   0  0  0  0  0  0  0  0  0  0  0  0
  128.0780  126.8680   62.9110 O   0  0  0  0  0  0  0  0  0  0  0  0
  130.2180  127.6170   62.0650 C   0  0  1  0  0  0  0  0  0  0  0  0
  131.1360  126.4600   61.5900 C   0  0  0  0  0  0  0  0  0  0  0  0
  130.5550  124.7950   62.0620 S   0  0  0  0  0  0  0  0  0  0  0  0
  130.2280  123.9250   60.4550 C   0  0  0  0  0  0  0  0  0  0  0  0
  130.6950  122.4470   60.6220 C   0  0  0  0  0  0  0  0  0  0  0  0
  129.7940  121.4010   60.8850 C   0  0  0  0  0  0  0  0  0  0  0  0
  130.2420  120.0910   61.0310 C   0  0  0  0  0  0  0  0  0  0  0  0
  131.6000  119.8090   60.9240 C   0  0  0  0  0  0  0  0  0  0  0  0
  132.5140  120.8290   60.6830 C   0  0  0  0  0  0  0  0  0  0  0  0
  132.0640  122.1390   60.5400 C   0  0  0  0  0  0  0  0  0  0  0  0
  128.7070  123.8490   60.1120 C   0  0  0  0  0  0  0  0  0  0  0  0
  127.7830  124.3420   61.0490 C   0  0  0  0  0  0  0  0  0  0  0  0
  126.4160  124.3220   60.7920 C   0  0  0  0  0  0  0  0  0  0  0  0
  125.9510  123.8150   59.5840 C   0  0  0  0  0  0  0  0  0  0  0  0
  126.8440  123.3330   58.6320 C   0  0  0  0  0  0  0  0  0  0  0  0
  128.2110  123.3540   58.8930 C   0  0  0  0  0  0  0  0  0  0  0  0
  131.0590  124.7350   59.4060 C   0  0  0  0  0  0  0  0  0  0  0  0
  130.3960  125.5500   58.4720 C   0  0  0  0  0  0  0  0  0  0  0  0
  131.1040  126.2650   57.5110 C   0  0  0  0  0  0  0  0  0  0  0  0
  132.4910  126.1660   57.4620 C   0  0  0  0  0  0  0  0  0  0  0  0
  133.1710  125.3550   58.3640 C   0  0  0  0  0  0  0  0  0  0  0  0
  132.4600  124.6430   59.3260 C   0  0  0  0  0  0  0  0  0  0  0  0
  129.3620  128.1980   61.0080 N   0  0  0  0  0  0  0  0  0  0  0  0
  129.3890  129.9770   60.8280 S   0  0  0  0  0  0  0  0  0  0  0  0
  130.8930  130.3010   59.9340 C   0  0  0  0  0  0  0  0  0  0  0  0
  131.1190  129.6540   58.7110 C   0  0  0  0  0  0  0  0  0  0  0  0
  132.2780  129.9050   57.9810 C   0  0  0  0  0  0  0  0  0  0  0  0
  133.2210  130.8110   58.4600 C   0  0  0  0  0  0  0  0  0  0  0  0
  133.0020  131.4650   59.6700 C   0  0  0  0  0  0  0  0  0  0  0  0
  131.8460  131.2190   60.4220 C   0  0  0  0  0  0  0  0  0  0  0  0
  131.6710  131.9360   61.6990 N   0  0  0  0  0  0  0  0  0  0  0  0
  130.5350  132.2470   62.0450 O   0  0  0  0  0  0  0  0  0  0  0  0
  132.6750  132.1560   62.3690 O   0  0  0  0  0  0  0  0  0  0  0  0
  127.7084  126.1089   72.5145 H   0  0  0  0  0  0  0  0  0  0  0  0
  127.4242  127.1108   71.0509 H   0  0  0  0  0  0  0  0  0  0  0  0
  128.7217  125.8687   71.0509 H   0  0  0  0  0  0  0  0  0  0  0  0
  130.3543  127.0270   73.9192 H   0  0  0  0  0  0  0  0  0  0  0  0
  130.4791  125.9323   72.5005 H   0  0  0  0  0  0  0  0  0  0  0  0
  131.3469  127.5051   72.5005 H   0  0  0  0  0  0  0  0  0  0  0  0
  128.7671  128.2054   74.2480 H   0  0  0  0  0  0  0  0  0  0  0  0
  128.8087  129.5940   73.1092 H   0  0  0  0  0  0  0  0  0  0  0  0
  127.4042  128.4742   73.1092 H   0  0  0  0  0  0  0  0  0  0  0  0
  128.1441  128.3624   69.1224 H   0  0  0  0  0  0  0  0  0  0  0  0
  129.3658  129.4713   68.3701 H   0  0  0  0  0  0  0  0  0  0  0  0
  130.0320  126.7320   67.8840 H   0  0  0  0  0  0  0  0  0  0  0  0
  128.1432  125.9290   65.2309 H   0  0  0  0  0  0  0  0  0  0  0  0
  130.4865  125.7199   67.0594 H   0  0  0  0  0  0  0  0  0  0  0  0
  129.2185  124.4971   66.5617 H   0  0  0  0  0  0  0  0  0  0  0  0
  132.4404  126.1280   65.5034 H   0  0  0  0  0  0  0  0  0  0  0  0
  134.1279  124.9068   64.1461 H   0  0  0  0  0  0  0  0  0  0  0  0
  133.6032  122.6609   63.2256 H   0  0  0  0  0  0  0  0  0  0  0  0
  131.3989  121.6074   63.6656 H   0  0  0  0  0  0  0  0  0  0  0  0
  129.6924  122.7944   65.0304 H   0  0  0  0  0  0  0  0  0  0  0  0
  130.8100  127.0470   64.4950 H   0  0  0  0  0  0  0  0  0  0  0  0
  130.8986  128.4060   62.4175 H   0  0  0  0  0  0  0  0  0  0  0  0
  131.2038  126.5027   60.4929 H   0  0  0  0  0  0  0  0  0  0  0  0
  132.1073  126.6060   62.0853 H   0  0  0  0  0  0  0  0  0  0  0  0
  128.7200  121.6204   60.9768 H   0  0  0  0  0  0  0  0  0  0  0  0
  129.5244  119.2815   61.2303 H   0  0  0  0  0  0  0  0  0  0  0  0
  131.9531  118.7727   61.0307 H   0  0  0  0  0  0  0  0  0  0  0  0
  133.5875  120.6020   60.6057 H   0  0  0  0  0  0  0  0  0  0  0  0
  132.7908  122.9449   60.3602 H   0  0  0  0  0  0  0  0  0  0  0  0
  128.1473  124.7511   62.0029 H   0  0  0  0  0  0  0  0  0  0  0  0
  125.7069  124.7053   61.5405 H   0  0  0  0  0  0  0  0  0  0  0  0
  124.8704  123.7947   59.3795 H   0  0  0  0  0  0  0  0  0  0  0  0
  126.4708  122.9366   57.6762 H   0  0  0  0  0  0  0  0  0  0  0  0
  128.9135  122.9779   58.1347 H   0  0  0  0  0  0  0  0  0  0  0  0
  129.2989  125.6237   58.5014 H   0  0  0  0  0  0  0  0  0  0  0  0
  130.5699  126.9053   56.7936 H   0  0  0  0  0  0  0  0  0  0  0  0
  133.0531  126.7327   56.7051 H   0  0  0  0  0  0  0  0  0  0  0  0
  134.2672  125.2763   58.3175 H   0  0  0  0  0  0  0  0  0  0  0  0
  133.0021  123.9989   60.0340 H   0  0  0  0  0  0  0  0  0  0  0  0
  128.4000  127.9210   61.1450 H   0  0  0  0  0  0  0  0  0  0  0  0
  130.3746  128.9421   58.3248 H   0  0  0  0  0  0  0  0  0  0  0  0
  132.4488  129.3874   57.0255 H   0  0  0  0  0  0  0  0  0  0  0  0
  134.1368  131.0096   57.8839 H   0  0  0  0  0  0  0  0  0  0  0  0
  133.7470  132.1846   60.0403 H   0  0  0  0  0  0  0  0  0  0  0  0
  1  2  1  0
  2  3  1  0
  2  4  1  0
  2  5  1  0
  5  6  1  0
  6  7  2  0
  6  8  1  0
  8  9  1  0
  9 10  1  0
 10 11  2  0
 10 12  1  0
 12 13  1  0
 13 14  1  0
 14 15  2  0
 15 16  1  0
 16 17  2  0
 17 18  1  0
 18 19  2  0
 12 20  1  0
 20 21  1  0
 21 22  2  0
 21 23  1  0
 23 24  1  0
 24 25  1  0
 25 26  1  0
 26 27  1  0
 27 28  2  0
 28 29  1  0
 29 30  2  0
 30 31  1  0
 31 32  2  0
 26 33  1  0
 33 34  2  0
 34 35  1  0
 35 36  2  0
 36 37  1  0
 37 38  2  0
 26 39  1  0
 39 40  2  0
 40 41  1  0
 41 42  2  0
 42 43  1  0
 43 44  2  0
 23 45  1  0
 45 46  1  0
 46 47  1  0
 47 48  2  0
 48 49  1  0
 49 50  2  0
 50 51  1  0
 51 52  2  0
 52 53  1  0
 53 54  2  0
 53 55  1  0
 19 14  1  0
 32 27  1  0
 38 33  1  0
 44 39  1  0
 52 47  1  0
  1 56  1  0
  1 57  1  0
  1 58  1  0
  3 59  1  0
  3 60  1  0
  3 61  1  0
  4 62  1  0
  4 63  1  0
  4 64  1  0
  8 65  1  0
  8 66  1  0
  9 67  1  0
 12 68  1  6
 13 69  1  0
 13 70  1  0
 15 71  1  0
 16 72  1  0
 17 73  1  0
 18 74  1  0
 19 75  1  0
 20 76  1  0
 23 77  1  1
 24 78  1  0
 24 79  1  0
 28 80  1  0
 29 81  1  0
 30 82  1  0
 31 83  1  0
 32 84  1  0
 34 85  1  0
 35 86  1  0
 36 87  1  0
 37 88  1  0
 38 89  1  0
 40 90  1  0
 41 91  1  0
 42 92  1  0
 43 93  1  0
 44 94  1  0
 45 95  1  0
 48 96  1  0
 49 97  1  0
 50 98  1  0
 51 99  1  0
M  CHG  2  53   1  55  -1
M  END
>  <Binding energies>  (1) 
[-11.13]

>  <Ligand effiencies>  (1) 
[-0.19189655172413794]

>  <Interactions>  (1) 
["V-A:ILE:369:CG2:3237, V-A:ASP:366:CA:3210, V-B:PRO:540:CA:9855, V-A:GLU:543:CA:4904, V-A:GLY:454:CA:4049, V-B:HIS:456:CD2:9039, H-A:GLU:543:OE2:4910, V-A:GLU:543:C:4902, H-A:ALA:541:N:4891, V-B:GLU:543:CB:9878, V-A:PRO:540:C:4881, V-B:TYR:539:CE2:9848, V-A:TYR:484:CE2:4346, V-B:GLU:543:CG:9879, V-B:TYR:539:C:9839, V-A:HIS:456:CD2:4068, H-A:ARG:545:N:4920, V-A:ASP:366:CG:3213, V-A:LEU:363:CD1:3189, V-B:TYR:539:CZ:9849, V-A:TYR:531:CE2:4793, V-A:GLU:543:CD:4908, V-A:TYR:484:CZ:4347, V-B:PRO:540:CB:9857, V-B:HIS:456:CE1:9041, V-B:PRO:540:N:9856, V-A:HIS:456:CE1:4070, V-B:GLY:544:C:9884, V-A:ASP:366:C:3208, V-B:TYR:539:CD2:9846, V-A:GLU:543:CG:4907, V-A:TYR:531:CZ:4794, V-B:GLU:543:CD:9880, V-A:ASP:366:CB:3212, V-A:LEU:475:CD2:4259, V-A:ARG:545:CZ:4926, H-A:GLU:543:OE1:4909, V-A:GLU:543:CB:4906, V-A:PRO:540:CB:4885, V-A:PRO:540:CA:4883, V-A:LEU:363:CA:3185"]

$$$$
ZINC150383485
     RDKit          3D

127128  0  0  0  0  0  0  0  0999 V2000
  132.8200  131.6620   62.5670 C   0  0  0  0  0  0  0  0  0  0  0  0
  131.4240  131.4000   61.9810 C   0  0  0  0  0  0  0  0  0  0  0  0
  131.4400  130.6950   60.6020 C   0  0  2  0  0  0  0  0  0  0  0  0
  131.4270  131.7520   59.4700 C   0  0  0  0  0  0  0  0  0  0  0  0
  130.2840  129.6550   60.4940 C   0  0  2  0  0  0  0  0  0  0  0  0
  129.2610  129.8710   61.5170 N   0  0  0  0  0  0  0  0  0  0  0  0
  128.2450  129.0290   61.7730 C   0  0  0  0  0  0  0  0  0  0  0  0
  127.9930  128.0650   61.0400 O   0  0  0  0  0  0  0  0  0  0  0  0
  127.3990  129.3580   63.0500 C   0  0  1  0  0  0  0  0  0  0  0  0
  126.7050  128.0990   63.5070 N   0  0  0  0  0  0  0  0  0  0  0  0
  128.2420  130.0410   64.1890 C   0  0  0  0  0  0  0  0  0  0  0  0
  127.8440  129.6160   65.6180 C   0  0  0  0  0  0  0  0  0  0  0  0
  128.2820  131.5860   64.1170 C   0  0  0  0  0  0  0  0  0  0  0  0
  130.8580  128.2380   60.6760 C   0  0  0  0  0  0  0  0  0  0  0  0
  131.6780  128.0270   61.5720 O   0  0  0  0  0  0  0  0  0  0  0  0
  130.4040  127.3050   59.8260 N   0  0  0  0  0  0  0  0  0  0  0  0
  130.8230  125.9060   59.8340 C   0  0  1  0  0  0  0  0  0  0  0  0
  132.3540  125.8210   59.6660 C   0  0  0  0  0  0  0  0  0  0  0  0
  132.9710  124.5870   60.3020 C   0  0  0  0  0  0  0  0  0  0  0  0
  132.7440  123.3130   59.7390 C   0  0  0  0  0  0  0  0  0  0  0  0
  133.3970  122.2000   60.2520 C   0  0  0  0  0  0  0  0  0  0  0  0
  134.2970  122.3380   61.3020 C   0  0  0  0  0  0  0  0  0  0  0  0
  134.5610  123.5900   61.8390 C   0  0  0  0  0  0  0  0  0  0  0  0
  133.9170  124.7150   61.3410 C   0  0  0  0  0  0  0  0  0  0  0  0
  130.3340  125.2320   61.1210 C   0  0  0  0  0  0  0  0  0  0  0  0
  130.8800  124.2040   61.5210 O   0  0  0  0  0  0  0  0  0  0  0  0
  129.3260  125.8560   61.7510 N   0  0  0  0  0  0  0  0  0  0  0  0
  128.6850  125.3900   62.9800 C   0  0  1  0  0  0  0  0  0  0  0  0
  128.2730  123.9130   62.8100 C   0  0  0  0  0  0  0  0  0  0  0  0
  127.9420  123.5130   61.3820 C   0  0  0  0  0  0  0  0  0  0  0  0
  128.7180  122.5360   60.7220 C   0  0  0  0  0  0  0  0  0  0  0  0
  128.4070  122.1600   59.4010 C   0  0  0  0  0  0  0  0  0  0  0  0
  127.3170  122.7550   58.7350 C   0  0  0  0  0  0  0  0  0  0  0  0
  127.0120  122.3820   57.4600 O   0  0  0  0  0  0  0  0  0  0  0  0
  126.5400  123.7290   59.3920 C   0  0  0  0  0  0  0  0  0  0  0  0
  126.8530  124.1090   60.7110 C   0  0  0  0  0  0  0  0  0  0  0  0
  129.6300  125.5670   64.1780 C   0  0  0  0  0  0  0  0  0  0  0  0
  130.2630  126.6180   64.2980 O   0  0  0  0  0  0  0  0  0  0  0  0
  129.6920  124.5370   65.0370 N   0  0  0  0  0  0  0  0  0  0  0  0
  130.4720  124.5290   66.2750 C   0  0  1  0  0  0  0  0  0  0  0  0
  131.8890  125.0880   65.9980 C   0  0  0  0  0  0  0  0  0  0  0  0
  132.4820  124.7260   64.6160 C   0  0  0  0  0  0  0  0  0  0  0  0
  132.2190  123.2560   64.2230 C   0  0  0  0  0  0  0  0  0  0  0  0
  133.9800  125.0950   64.5420 C   0  0  0  0  0  0  0  0  0  0  0  0
  129.7670  125.3840   67.3360 C   0  0  0  0  0  0  0  0  0  0  0  0
  129.1540  124.8410   68.2560 O   0  0  0  0  0  0  0  0  0  0  0  0
  129.8430  126.7120   67.1510 N   0  0  0  0  0  0  0  0  0  0  0  0
  129.1590  127.7090   67.9720 C   0  0  1  0  0  0  0  0  0  0  0  0
  127.6870  127.2910   68.1170 C   0  0  0  0  0  0  0  0  0  0  0  0
  129.8190  127.8450   69.3530 C   0  0  0  0  0  0  0  0  0  0  0  0
  130.9670  128.2840   69.4470 O   0  0  0  0  0  0  0  0  0  0  0  0
  129.0800  127.4290   70.3950 N   0  0  0  0  0  0  0  0  0  0  0  0
  129.5120  127.4370   71.8010 C   0  0  1  0  0  0  0  0  0  0  0  0
  129.0560  128.7600   72.4990 C   0  0  0  0  0  0  0  0  0  0  0  0
  128.5240  128.6160   73.9460 C   0  0  0  0  0  0  0  0  0  0  0  0
  127.0420  128.1840   73.9470 C   0  0  0  0  0  0  0  0  0  0  0  0
  128.7630  129.8880   74.7890 C   0  0  0  0  0  0  0  0  0  0  0  0
  128.8770  126.1850   72.5120 C   0  0  0  0  0  0  0  0  0  0  0  0
  129.5650  125.6370   73.4080 O   0  0  0  0  0  0  0  0  0  0  0  0
  127.7430  125.8680   72.0860 O   0  0  0  0  0  0  0  0  0  0  0  0
  132.7644  131.6516   63.6655 H   0  0  0  0  0  0  0  0  0  0  0  0
  133.5132  130.8783   62.2275 H   0  0  0  0  0  0  0  0  0  0  0  0
  133.1818  132.6437   62.2275 H   0  0  0  0  0  0  0  0  0  0  0  0
  130.8664  130.7665   62.6865 H   0  0  0  0  0  0  0  0  0  0  0  0
  130.9536  132.3828   61.8298 H   0  0  0  0  0  0  0  0  0  0  0  0
  132.3707  130.1192   60.4916 H   0  0  0  0  0  0  0  0  0  0  0  0
  131.4146  132.7602   59.9098 H   0  0  0  0  0  0  0  0  0  0  0  0
  132.3267  131.6343   58.8481 H   0  0  0  0  0  0  0  0  0  0  0  0
  130.5305  131.6122   58.8481 H   0  0  0  0  0  0  0  0  0  0  0  0
  129.8204  129.7728   59.5035 H   0  0  0  0  0  0  0  0  0  0  0  0
  129.4140  130.6610   62.1270 H   0  0  0  0  0  0  0  0  0  0  0  0
  126.6401  130.1102   62.7888 H   0  0  0  0  0  0  0  0  0  0  0  0
  127.2170  127.6990   64.2790 H   0  0  0  0  0  0  0  0  0  0  0  0
  126.6780  127.4420   62.7390 H   0  0  0  0  0  0  0  0  0  0  0  0
  125.7630  128.3280   63.7920 H   0  0  0  0  0  0  0  0  0  0  0  0
  129.2535  129.6604   63.9842 H   0  0  0  0  0  0  0  0  0  0  0  0
  128.4059  130.2160   66.3489 H   0  0  0  0  0  0  0  0  0  0  0  0
  126.7656  129.7784   65.7619 H   0  0  0  0  0  0  0  0  0  0  0  0
  128.0767  128.5506   65.7619 H   0  0  0  0  0  0  0  0  0  0  0  0
  128.2927  132.0004   65.1359 H   0  0  0  0  0  0  0  0  0  0  0  0
  129.1887  131.9048   63.5820 H   0  0  0  0  0  0  0  0  0  0  0  0
  127.3930  131.9513   63.5820 H   0  0  0  0  0  0  0  0  0  0  0  0
  129.7320  127.5610   59.1160 H   0  0  0  0  0  0  0  0  0  0  0  0
  130.3722  125.3659   58.9884 H   0  0  0  0  0  0  0  0  0  0  0  0
  132.5852  125.8098   58.5906 H   0  0  0  0  0  0  0  0  0  0  0  0
  132.7825  126.6949   60.1785 H   0  0  0  0  0  0  0  0  0  0  0  0
  132.0494  123.2016   58.8933 H   0  0  0  0  0  0  0  0  0  0  0  0
  133.2011  121.2051   59.8256 H   0  0  0  0  0  0  0  0  0  0  0  0
  134.8027  121.4502   61.7095 H   0  0  0  0  0  0  0  0  0  0  0  0
  135.2833  123.6917   62.6624 H   0  0  0  0  0  0  0  0  0  0  0  0
  134.1447  125.7074   61.7572 H   0  0  0  0  0  0  0  0  0  0  0  0
  128.9500  126.7070   61.3570 H   0  0  0  0  0  0  0  0  0  0  0  0
  127.7839  125.9898   63.1756 H   0  0  0  0  0  0  0  0  0  0  0  0
  129.1032  123.2820   63.1602 H   0  0  0  0  0  0  0  0  0  0  0  0
  127.3521  123.7750   63.3956 H   0  0  0  0  0  0  0  0  0  0  0  0
  129.5674  122.0674   61.2406 H   0  0  0  0  0  0  0  0  0  0  0  0
  129.0158  121.4007   58.8883 H   0  0  0  0  0  0  0  0  0  0  0  0
  127.1430  123.0860   56.8200 H   0  0  0  0  0  0  0  0  0  0  0  0
  125.6878  124.1932   58.8740 H   0  0  0  0  0  0  0  0  0  0  0  0
  126.2468  124.8728   61.2201 H   0  0  0  0  0  0  0  0  0  0  0  0
  129.1490  123.7050   64.8560 H   0  0  0  0  0  0  0  0  0  0  0  0
  130.5584  123.4975   66.6473 H   0  0  0  0  0  0  0  0  0  0  0  0
  131.8425  126.1846   66.0715 H   0  0  0  0  0  0  0  0  0  0  0  0
  132.5509  124.6248   66.7446 H   0  0  0  0  0  0  0  0  0  0  0  0
  131.9541  125.3336   63.8663 H   0  0  0  0  0  0  0  0  0  0  0  0
  132.1101  122.6471   65.1326 H   0  0  0  0  0  0  0  0  0  0  0  0
  131.2957  123.1950   63.6282 H   0  0  0  0  0  0  0  0  0  0  0  0
  133.0639  122.8787   63.6282 H   0  0  0  0  0  0  0  0  0  0  0  0
  134.3839  125.1945   65.5603 H   0  0  0  0  0  0  0  0  0  0  0  0
  134.5263  124.3046   64.0065 H   0  0  0  0  0  0  0  0  0  0  0  0
  134.0967  126.0487   64.0065 H   0  0  0  0  0  0  0  0  0  0  0  0
  130.3550  127.0720   66.3590 H   0  0  0  0  0  0  0  0  0  0  0  0
  129.2273  128.6917   67.4824 H   0  0  0  0  0  0  0  0  0  0  0  0
  127.4300  127.2180   69.1841 H   0  0  0  0  0  0  0  0  0  0  0  0
  127.0434  128.0419   67.6354 H   0  0  0  0  0  0  0  0  0  0  0  0
  127.5341  126.3139   67.6354 H   0  0  0  0  0  0  0  0  0  0  0  0
  128.1520  127.0660   70.2300 H   0  0  0  0  0  0  0  0  0  0  0  0
  130.6090  127.3871   71.8650 H   0  0  0  0  0  0  0  0  0  0  0  0
  129.9188  129.4419   72.5240 H   0  0  0  0  0  0  0  0  0  0  0  0
  128.2064  129.1302   71.9064 H   0  0  0  0  0  0  0  0  0  0  0  0
  129.1031  127.8175   74.4328 H   0  0  0  0  0  0  0  0  0  0  0  0
  126.6906  128.0816   74.9843 H   0  0  0  0  0  0  0  0  0  0  0  0
  126.4383  128.9436   73.4287 H   0  0  0  0  0  0  0  0  0  0  0  0
  126.9410  127.2190   73.4287 H   0  0  0  0  0  0  0  0  0  0  0  0
  128.7152  129.6337   75.8581 H   0  0  0  0  0  0  0  0  0  0  0  0
  129.7547  130.3022   74.5546 H   0  0  0  0  0  0  0  0  0  0  0  0
  127.9893  130.6340   74.5546 H   0  0  0  0  0  0  0  0  0  0  0  0
  1  2  1  0
  2  3  1  0
  3  4  1  0
  3  5  1  0
  5  6  1  0
  6  7  1  0
  7  8  2  0
  7  9  1  0
  9 10  1  0
  9 11  1  0
 11 12  1  0
 11 13  1  0
  5 14  1  0
 14 15  2  0
 14 16  1  0
 16 17  1  0
 17 18  1  0
 18 19  1  0
 19 20  2  0
 20 21  1  0
 21 22  2  0
 22 23  1  0
 23 24  2  0
 17 25  1  0
 25 26  2  0
 25 27  1  0
 27 28  1  0
 28 29  1  0
 29 30  1  0
 30 31  2  0
 31 32  1  0
 32 33  2  0
 33 34  1  0
 33 35  1  0
 35 36  2  0
 28 37  1  0
 37 38  2  0
 37 39  1  0
 39 40  1  0
 40 41  1  0
 41 42  1  0
 42 43  1  0
 42 44  1  0
 40 45  1  0
 45 46  2  0
 45 47  1  0
 47 48  1  0
 48 49  1  0
 48 50  1  0
 50 51  2  0
 50 52  1  0
 52 53  1  0
 53 54  1  0
 54 55  1  0
 55 56  1  0
 55 57  1  0
 53 58  1  0
 58 59  2  0
 58 60  1  0
 24 19  1  0
 36 30  1  0
  1 61  1  0
  1 62  1  0
  1 63  1  0
  2 64  1  0
  2 65  1  0
  3 66  1  1
  4 67  1  0
  4 68  1  0
  4 69  1  0
  5 70  1  6
  6 71  1  0
  9 72  1  6
 10 73  1  0
 10 74  1  0
 10 75  1  0
 11 76  1  0
 12 77  1  0
 12 78  1  0
 12 79  1  0
 13 80  1  0
 13 81  1  0
 13 82  1  0
 16 83  1  0
 17 84  1  6
 18 85  1  0
 18 86  1  0
 20 87  1  0
 21 88  1  0
 22 89  1  0
 23 90  1  0
 24 91  1  0
 27 92  1  0
 28 93  1  1
 29 94  1  0
 29 95  1  0
 31 96  1  0
 32 97  1  0
 34 98  1  0
 35 99  1  0
 36100  1  0
 39101  1  0
 40102  1  1
 41103  1  0
 41104  1  0
 42105  1  0
 43106  1  0
 43107  1  0
 43108  1  0
 44109  1  0
 44110  1  0
 44111  1  0
 47112  1  0
 48113  1  6
 49114  1  0
 49115  1  0
 49116  1  0
 52117  1  0
 53118  1  6
 54119  1  0
 54120  1  0
 55121  1  0
 56122  1  0
 56123  1  0
 56124  1  0
 57125  1  0
 57126  1  0
 57127  1  0
M  CHG  2  10   1  60  -1
M  END
>  <Binding energies>  (1) 
[-9.94]

>  <Ligand effiencies>  (1) 
[-0.142]

>  <Interactions>  (1) 
["V-A:ILE:369:CG2:3237, H-B:MET:535:SD:9806, V-B:PRO:540:CA:9855, V-A:ALA:541:C:4888, V-A:GLY:454:CA:4049, V-B:HIS:456:CD2:9039, H-A:GLU:543:OE2:4910, H-B:GLU:543:O:9875, V-A:ILE:369:CB:3236, V-B:GLU:543:CB:9878, H-B:LYS:547:NZ:9923, V-B:HIS:456:CB:9036, V-B:TYR:539:CE2:9848, V-A:TYR:484:CE2:4346, H-B:TYR:539:N:9842, V-B:GLU:543:CG:9879, V-B:TYR:539:C:9839, V-A:ASP:366:CG:3213, V-A:ASN:362:CB:3176, V-A:HIS:456:CD2:4068, H-B:GLU:543:OE1:9881, V-B:LYS:547:CE:9922, V-A:GLU:543:CD:4908, V-B:PRO:540:CB:9857, V-A:TYR:484:CZ:4347, V-B:GLU:543:CA:9876, V-B:HIS:456:CE1:9041, V-A:GLY:453:C:4042, V-B:PRO:540:N:9856, V-A:ILE:369:CD1:3239, V-A:HIS:456:CE1:4070, H-B:HIS:456:NE2:9042, V-B:TYR:539:CD2:9846, V-A:GLU:543:CG:4907, V-B:GLU:543:CD:9880, V-B:HIS:456:CG:9037, V-A:ILE:369:CG1:3238, V-A:ASP:366:CB:3212, V-A:ARG:545:CD:4923, V-A:LEU:475:CD2:4259, H-A:ARG:545:NH2:4928, V-A:ARG:545:CZ:4926, H-A:GLU:543:OE1:4909, V-B:TYR:539:CG:9844, V-A:GLU:543:CB:4906, H-B:GLU:543:OE2:9882, V-A:PRO:540:CA:4883, V-A:PRO:540:CB:4885, V-A:GLY:453:CA:4044"]

$$$$
ZINC150387612
     RDKit          3D

 86 89  0  0  0  0  0  0  0  0999 V2000
  128.0030  122.3000   57.7650 C   0  0  0  0  0  0  0  0  0  0  0  0
  127.6750  122.4680   59.1410 O   0  0  0  0  0  0  0  0  0  0  0  0
  128.7470  122.5230   60.0880 C   0  0  1  0  0  0  0  0  0  0  0  0
  129.7690  123.6030   59.7260 C   0  0  0  0  0  0  0  0  0  0  0  0
  129.5310  124.8220   59.2030 C   0  0  0  0  0  0  0  0  0  0  0  0
  128.2360  125.4430   58.9390 C   0  0  0  0  0  0  0  0  0  0  0  0
  127.9560  126.6970   58.4930 C   0  0  0  0  0  0  0  0  0  0  0  0
  126.5180  127.0760   58.1300 C   0  0  0  0  0  0  0  0  0  0  0  0
  129.0010  127.6520   58.1030 C   0  0  0  0  0  0  0  0  0  0  0  0
  128.9560  128.2320   57.0180 O   0  0  0  0  0  0  0  0  0  0  0  0
  130.0430  127.9470   58.9270 N   0  0  0  0  0  0  0  0  0  0  0  0
  130.4220  127.4070   60.1290 C   0  0  0  0  0  0  0  0  0  0  0  0
  129.6240  127.6770   61.1960 C   0  0  0  0  0  0  0  0  0  0  0  0
  129.9080  127.2300   62.5270 C   0  0  0  0  0  0  0  0  0  0  0  0
  129.1560  127.4780   63.5330 N   0  0  0  0  0  0  0  0  0  0  0  0
  129.5030  126.9900   64.8030 C   0  0  0  0  0  0  0  0  0  0  0  0
  128.6760  127.2750   65.8920 C   0  0  0  0  0  0  0  0  0  0  0  0
  129.0090  126.7900   67.1610 C   0  0  0  0  0  0  0  0  0  0  0  0
  127.8840  127.1760   68.6460 Br  0  0  0  0  0  0  0  0  0  0  0  0
  130.1640  126.0210   67.3420 C   0  0  0  0  0  0  0  0  0  0  0  0
  130.9960  125.7320   66.2590 C   0  0  0  0  0  0  0  0  0  0  0  0
  130.6590  126.2190   64.9970 C   0  0  0  0  0  0  0  0  0  0  0  0
  131.4710  125.9450   63.9090 O   0  0  0  0  0  0  0  0  0  0  0  0
  131.1340  126.4420   62.6690 C   0  0  0  0  0  0  0  0  0  0  0  0
  131.9840  126.1610   61.6410 C   0  0  0  0  0  0  0  0  0  0  0  0
  131.7140  126.6500   60.2470 C   0  0  0  0  0  0  0  0  0  0  0  0
  132.4690  126.4500   59.2980 O   0  0  0  0  0  0  0  0  0  0  0  0
  133.2370  125.2810   61.7930 C   0  0  0  0  0  0  0  0  0  0  0  0
  133.0020  123.8750   62.4060 C   0  0  1  0  0  0  0  0  0  0  0  0
  132.9010  123.9330   63.9430 C   0  0  0  0  0  0  0  0  0  0  0  0
  131.7810  123.1470   61.7690 C   0  0  0  0  0  0  0  0  0  0  0  0
  132.1110  122.3860   60.4480 C   0  0  1  0  0  0  0  0  0  0  0  0
  133.4930  122.5750   60.1410 O   0  0  0  0  0  0  0  0  0  0  0  0
  133.7880  123.6580   59.2660 C   0  0  0  0  0  0  0  0  0  0  0  0
  131.8680  120.8350   60.4670 C   0  0  1  0  0  0  0  0  0  0  0  0
  132.8780  120.1640   61.2020 O   0  0  0  0  0  0  0  0  0  0  0  0
  130.4760  120.4000   61.0220 C   0  0  1  0  0  0  0  0  0  0  0  0
  130.3400  118.8730   61.1740 C   0  0  0  0  0  0  0  0  0  0  0  0
  130.1390  121.0880   62.3470 C   0  0  0  0  0  0  0  0  0  0  0  0
  129.1970  122.0270   62.5980 C   0  0  0  0  0  0  0  0  0  0  0  0
  129.0440  122.6000   64.0010 C   0  0  0  0  0  0  0  0  0  0  0  0
  128.2060  122.5640   61.5500 C   0  0  1  0  0  0  0  0  0  0  0  0
  127.7490  123.8800   61.8880 O   0  0  0  0  0  0  0  0  0  0  0  0
  126.6840  124.4500   61.2790 C   0  0  0  0  0  0  0  0  0  0  0  0
  126.7530  125.8160   61.4290 N   0  0  0  0  0  0  0  0  0  0  0  0
  125.7930  123.8460   60.6840 O   0  0  0  0  0  0  0  0  0  0  0  0
  128.9791  121.8001   57.6791 H   0  0  0  0  0  0  0  0  0  0  0  0
  127.2322  121.6857   57.2767 H   0  0  0  0  0  0  0  0  0  0  0  0
  128.0511  123.2845   57.2767 H   0  0  0  0  0  0  0  0  0  0  0  0
  129.3240  121.5880   60.0349 H   0  0  0  0  0  0  0  0  0  0  0  0
  130.8238  123.3547   59.9153 H   0  0  0  0  0  0  0  0  0  0  0  0
  130.4172  125.4201   58.9443 H   0  0  0  0  0  0  0  0  0  0  0  0
  127.3606  124.8044   59.1282 H   0  0  0  0  0  0  0  0  0  0  0  0
  125.9357  127.2295   59.0506 H   0  0  0  0  0  0  0  0  0  0  0  0
  126.5214  128.0039   57.5393 H   0  0  0  0  0  0  0  0  0  0  0  0
  126.0636  126.2670   57.5393 H   0  0  0  0  0  0  0  0  0  0  0  0
  130.6690  128.6600   58.5840 H   0  0  0  0  0  0  0  0  0  0  0  0
  128.7126  128.2697   61.0285 H   0  0  0  0  0  0  0  0  0  0  0  0
  127.7668  127.8782   65.7522 H   0  0  0  0  0  0  0  0  0  0  0  0
  130.4177  125.6422   68.3431 H   0  0  0  0  0  0  0  0  0  0  0  0
  131.9048  125.1284   66.3994 H   0  0  0  0  0  0  0  0  0  0  0  0
  133.6774  125.1448   60.7943 H   0  0  0  0  0  0  0  0  0  0  0  0
  133.8913  125.8110   62.5009 H   0  0  0  0  0  0  0  0  0  0  0  0
  133.8877  123.2704   62.1609 H   0  0  0  0  0  0  0  0  0  0  0  0
  133.7738  123.4318   64.3870 H   0  0  0  0  0  0  0  0  0  0  0  0
  132.8758  124.9831   64.2694 H   0  0  0  0  0  0  0  0  0  0  0  0
  131.9813  123.4254   64.2694 H   0  0  0  0  0  0  0  0  0  0  0  0
  131.3929  122.4207   62.4983 H   0  0  0  0  0  0  0  0  0  0  0  0
  131.0469  123.9248   61.5119 H   0  0  0  0  0  0  0  0  0  0  0  0
  131.4182  122.8096   59.7060 H   0  0  0  0  0  0  0  0  0  0  0  0
  134.0316  124.5522   59.8585 H   0  0  0  0  0  0  0  0  0  0  0  0
  134.6468  123.3934   58.6316 H   0  0  0  0  0  0  0  0  0  0  0  0
  132.9136  123.8655   58.6316 H   0  0  0  0  0  0  0  0  0  0  0  0
  131.8988  120.5448   59.4064 H   0  0  0  0  0  0  0  0  0  0  0  0
  133.6350  120.7490   61.2910 H   0  0  0  0  0  0  0  0  0  0  0  0
  129.7492  120.7274   60.2640 H   0  0  0  0  0  0  0  0  0  0  0  0
  130.3167  118.6115   62.2422 H   0  0  0  0  0  0  0  0  0  0  0  0
  129.4085  118.5383   60.6942 H   0  0  0  0  0  0  0  0  0  0  0  0
  131.1977  118.3789   60.6942 H   0  0  0  0  0  0  0  0  0  0  0  0
  130.7438  120.7775   63.2118 H   0  0  0  0  0  0  0  0  0  0  0  0
  129.2536  121.8150   64.7425 H   0  0  0  0  0  0  0  0  0  0  0  0
  129.7517  123.4311   64.1368 H   0  0  0  0  0  0  0  0  0  0  0  0
  128.0162  122.9677   64.1368 H   0  0  0  0  0  0  0  0  0  0  0  0
  127.3505  121.8730   61.5765 H   0  0  0  0  0  0  0  0  0  0  0  0
  127.5260  126.2210   61.9370 H   0  0  0  0  0  0  0  0  0  0  0  0
  126.0270  126.3940   61.0300 H   0  0  0  0  0  0  0  0  0  0  0  0
  1  2  1  0
  2  3  1  0
  3  4  1  0
  4  5  2  0
  5  6  1  0
  6  7  2  0
  7  8  1  0
  7  9  1  0
  9 10  2  0
  9 11  1  0
 11 12  1  0
 12 13  2  0
 13 14  1  0
 14 15  2  0
 15 16  1  0
 16 17  2  0
 17 18  1  0
 18 19  1  0
 18 20  2  0
 20 21  1  0
 21 22  2  0
 22 23  1  0
 23 24  1  0
 24 25  2  0
 25 26  1  0
 26 27  2  0
 25 28  1  0
 28 29  1  0
 29 30  1  0
 29 31  1  0
 31 32  1  0
 32 33  1  0
 33 34  1  0
 32 35  1  0
 35 36  1  0
 35 37  1  0
 37 38  1  0
 37 39  1  0
 39 40  2  0
 40 41  1  0
 40 42  1  0
 42 43  1  0
 43 44  1  0
 44 45  1  0
 44 46  2  0
 42  3  1  0
 26 12  1  0
 24 14  1  0
 22 16  1  0
  1 47  1  0
  1 48  1  0
  1 49  1  0
  3 50  1  1
  4 51  1  0
  5 52  1  0
  6 53  1  0
  8 54  1  0
  8 55  1  0
  8 56  1  0
 11 57  1  0
 13 58  1  0
 17 59  1  0
 20 60  1  0
 21 61  1  0
 28 62  1  0
 28 63  1  0
 29 64  1  1
 30 65  1  0
 30 66  1  0
 30 67  1  0
 31 68  1  0
 31 69  1  0
 32 70  1  6
 34 71  1  0
 34 72  1  0
 34 73  1  0
 35 74  1  6
 36 75  1  0
 37 76  1  6
 38 77  1  0
 38 78  1  0
 38 79  1  0
 39 80  1  0
 41 81  1  0
 41 82  1  0
 41 83  1  0
 42 84  1  6
 45 85  1  0
 45 86  1  0
M  END
>  <Binding energies>  (1) 
[-2.7]

>  <Ligand effiencies>  (1) 
[-0.051923076923076926]

>  <Interactions>  (1) 
["V-B:TYR:539:CA:9841, V-A:ASP:366:CA:3210, V-B:PRO:540:CA:9855, V-A:ILE:369:CG2:3237, V-A:GLY:454:CA:4049, V-B:GLU:543:C:9874, V-A:ILE:369:CB:3236, V-B:GLU:543:CB:9878, V-B:ALA:541:CB:9864, H-A:TYR:531:OH:4795, V-B:TYR:539:CE2:9848, V-B:GLU:543:CG:9879, V-B:TYR:539:C:9839, V-A:ASP:366:CG:3213, V-B:TYR:539:CZ:9849, H-B:GLU:543:OE1:9881, V-A:GLU:543:CD:4908, H-B:ASP:366:OD1:8185, V-B:HIS:456:CE1:9041, V-B:PRO:540:N:9856, V-A:HIS:456:CE1:4070, V-A:ILE:369:CD1:3239, V-B:TYR:539:CD2:9846, H-A:SER:385:OG:3410, V-B:GLU:543:CD:9880, V-A:ASP:366:CB:3212, V-A:LEU:475:CD2:4259, H-A:ARG:545:NH2:4928, V-A:ARG:545:CZ:4926, V-B:TYR:539:CG:9844, V-B:TYR:539:CD1:9845, H-A:SER:385:O:3406, V-B:PRO:540:C:9853, V-B:TYR:539:CE1:9847"]

$$$$
ZINC150391173
     RDKit          3D

 62 65  0  0  0  0  0  0  0  0999 V2000
  134.1270  122.4730   61.9120 O   0  0  0  0  0  0  0  0  0  0  0  0
  134.1590  123.5560   62.4890 N   0  0  0  0  0  0  0  0  0  0  0  0
  135.0440  124.3850   62.2980 O   0  0  0  0  0  0  0  0  0  0  0  0
  133.0810  123.8790   63.4570 C   0  0  0  0  0  0  0  0  0  0  0  0
  133.2200  124.9400   64.3530 C   0  0  0  0  0  0  0  0  0  0  0  0
  132.2060  125.2430   65.2550 C   0  0  0  0  0  0  0  0  0  0  0  0
  131.0130  124.5080   65.2830 C   0  0  0  0  0  0  0  0  0  0  0  0
  130.0170  124.8460   66.2200 N   0  0  0  0  0  0  0  0  0  0  0  0
  129.5650  126.0670   66.7580 C   0  0  0  0  0  0  0  0  0  0  0  0
  129.8100  126.4210   68.0920 C   0  0  0  0  0  0  0  0  0  0  0  0
  129.3690  127.6420   68.5980 C   0  0  0  0  0  0  0  0  0  0  0  0
  129.6760  128.0570   70.2450 Cl  0  0  0  0  0  0  0  0  0  0  0  0
  128.6870  128.5300   67.7720 C   0  0  0  0  0  0  0  0  0  0  0  0
  128.4590  128.2020   66.4380 C   0  0  0  0  0  0  0  0  0  0  0  0
  128.9030  126.9750   65.9100 C   0  0  0  0  0  0  0  0  0  0  0  0
  128.7130  126.6060   64.5860 O   0  0  0  0  0  0  0  0  0  0  0  0
  128.8740  127.5800   63.5600 C   0  0  0  0  0  0  0  0  0  0  0  0
  127.7280  128.5960   63.6090 C   0  0  0  0  0  0  0  0  0  0  0  0
  127.8980  129.4620   62.4930 O   0  0  0  0  0  0  0  0  0  0  0  0
  129.0870  130.1390   62.2960 C   0  0  0  0  0  0  0  0  0  0  0  0
  129.4020  131.3310   62.9700 C   0  0  0  0  0  0  0  0  0  0  0  0
  130.6360  131.9500   62.7860 C   0  0  0  0  0  0  0  0  0  0  0  0
  131.5790  131.3830   61.9340 C   0  0  0  0  0  0  0  0  0  0  0  0
  133.1150  132.1420   61.7160 Cl  0  0  0  0  0  0  0  0  0  0  0  0
  131.2830  130.2010   61.2580 C   0  0  0  0  0  0  0  0  0  0  0  0
  130.0400  129.5790   61.4150 C   0  0  0  0  0  0  0  0  0  0  0  0
  129.8280  128.3940   60.6830 N   0  0  0  0  0  0  0  0  0  0  0  0
  130.7410  127.4660   60.1480 C   0  0  0  0  0  0  0  0  0  0  0  0
  131.0150  126.3540   60.9480 C   0  0  0  0  0  0  0  0  0  0  0  0
  131.7970  125.3060   60.4720 C   0  0  0  0  0  0  0  0  0  0  0  0
  132.3400  125.3490   59.1840 C   0  0  0  0  0  0  0  0  0  0  0  0
  133.1360  124.2150   58.6550 N   0  0  0  0  0  0  0  0  0  0  0  0
  133.6530  124.3250   57.5470 O   0  0  0  0  0  0  0  0  0  0  0  0
  133.2420  123.2010   59.3400 O   0  0  0  0  0  0  0  0  0  0  0  0
  132.1170  126.4940   58.4070 C   0  0  0  0  0  0  0  0  0  0  0  0
  131.3470  127.5730   58.8710 C   0  0  0  0  0  0  0  0  0  0  0  0
  131.2250  128.7790   58.0080 N   0  0  0  0  0  0  0  0  0  0  0  0
  130.1520  129.0280   57.4680 O   0  0  0  0  0  0  0  0  0  0  0  0
  132.2020  129.5140   57.8980 O   0  0  0  0  0  0  0  0  0  0  0  0
  130.8600  123.4040   64.4050 C   0  0  0  0  0  0  0  0  0  0  0  0
  129.6470  122.5260   64.3790 N   0  0  0  0  0  0  0  0  0  0  0  0
  129.0520  122.2550   65.4170 O   0  0  0  0  0  0  0  0  0  0  0  0
  129.2710  122.0840   63.2970 O   0  0  0  0  0  0  0  0  0  0  0  0
  131.9030  123.1240   63.5020 C   0  0  0  0  0  0  0  0  0  0  0  0
  134.1404  125.5423   64.3456 H   0  0  0  0  0  0  0  0  0  0  0  0
  132.3429  126.0759   65.9604 H   0  0  0  0  0  0  0  0  0  0  0  0
  129.5030  124.0480   66.5650 H   0  0  0  0  0  0  0  0  0  0  0  0
  130.3568  125.7267   68.7470 H   0  0  0  0  0  0  0  0  0  0  0  0
  128.3284  129.4898   68.1722 H   0  0  0  0  0  0  0  0  0  0  0  0
  127.9249  128.9110   65.7883 H   0  0  0  0  0  0  0  0  0  0  0  0
  129.8304  128.1041   63.7036 H   0  0  0  0  0  0  0  0  0  0  0  0
  128.8646  127.0758   62.5824 H   0  0  0  0  0  0  0  0  0  0  0  0
  126.7598  128.0782   63.5424 H   0  0  0  0  0  0  0  0  0  0  0  0
  127.7418  129.1611   64.5526 H   0  0  0  0  0  0  0  0  0  0  0  0
  128.6649  131.7808   63.6514 H   0  0  0  0  0  0  0  0  0  0  0  0
  130.8653  132.8872   63.3142 H   0  0  0  0  0  0  0  0  0  0  0  0
  132.0355  129.7519   60.5932 H   0  0  0  0  0  0  0  0  0  0  0  0
  128.8750  128.2680   60.3730 H   0  0  0  0  0  0  0  0  0  0  0  0
  130.6069  126.3062   61.9684 H   0  0  0  0  0  0  0  0  0  0  0  0
  131.9900  124.4349   61.1154 H   0  0  0  0  0  0  0  0  0  0  0  0
  132.5593  126.5493   57.4014 H   0  0  0  0  0  0  0  0  0  0  0  0
  131.7881  122.2803   62.8056 H   0  0  0  0  0  0  0  0  0  0  0  0
  1  2  2  0
  2  3  1  0
  2  4  1  0
  4  5  2  0
  5  6  1  0
  6  7  2  0
  7  8  1  0
  8  9  1  0
  9 10  2  0
 10 11  1  0
 11 12  1  0
 11 13  2  0
 13 14  1  0
 14 15  2  0
 15 16  1  0
 16 17  1  0
 17 18  1  0
 18 19  1  0
 19 20  1  0
 20 21  2  0
 21 22  1  0
 22 23  2  0
 23 24  1  0
 23 25  1  0
 25 26  2  0
 26 27  1  0
 27 28  1  0
 28 29  2  0
 29 30  1  0
 30 31  2  0
 31 32  1  0
 32 33  2  0
 32 34  1  0
 31 35  1  0
 35 36  2  0
 36 37  1  0
 37 38  2  0
 37 39  1  0
  7 40  1  0
 40 41  1  0
 41 42  2  0
 41 43  1  0
 40 44  2  0
 44  4  1  0
 15  9  1  0
 26 20  1  0
 36 28  1  0
  5 45  1  0
  6 46  1  0
  8 47  1  0
 10 48  1  0
 13 49  1  0
 14 50  1  0
 17 51  1  0
 17 52  1  0
 18 53  1  0
 18 54  1  0
 21 55  1  0
 22 56  1  0
 25 57  1  0
 27 58  1  0
 29 59  1  0
 30 60  1  0
 35 61  1  0
 44 62  1  0
M  CHG  8   2   1   3  -1  32   1  34  -1  37   1  39  -1  41   1  43  -1
M  END
>  <Binding energies>  (1) 
[-8.61]

>  <Ligand effiencies>  (1) 
[-0.18717391304347825]

>  <Interactions>  (1) 
["V-A:ILE:369:CG2:3237, V-A:ASP:366:CA:3210, V-A:GLY:454:CA:4049, V-A:GLU:543:C:4902, V-B:GLU:543:CB:9878, V-A:PRO:540:C:4881, V-B:ALA:541:CB:9864, H-A:TYR:531:OH:4795, V-A:TYR:484:CE2:4346, V-B:TYR:539:CE2:9848, V-B:GLU:543:CG:9879, V-A:ASP:366:CG:3213, V-A:ASN:362:CB:3176, V-B:TYR:539:CZ:9849, H-A:ASN:370:N:3244, H-B:TYR:539:OH:9850, V-A:ALA:541:CB:4892, V-A:GLU:543:CD:4908, V-A:TYR:484:CZ:4347, V-B:HIS:456:CE1:9041, H-A:GLY:454:N:4050, V-A:GLY:453:C:4042, V-A:HIS:456:CE1:4070, V-A:ILE:369:CD1:3239, V-A:ALA:541:CA:4890, V-A:GLU:543:CG:4907, V-A:TYR:531:CZ:4794, V-B:GLU:543:CD:9880, V-A:ASP:366:CB:3212, V-A:LEU:475:CD2:4259, V-A:ARG:545:CZ:4926, V-A:GLU:543:CB:4906, V-A:PRO:540:CB:4885, V-A:PRO:540:CA:4883, H-A:TYR:484:OH:4348"]

$$$$
ZINC150399047
     RDKit          3D

 92 94  0  0  0  0  0  0  0  0999 V2000
  132.1080  125.5040   59.2740 C   0  0  0  0  0  0  0  0  0  0  0  0
  131.1720  125.2580   60.3140 O   0  0  0  0  0  0  0  0  0  0  0  0
  131.4260  125.6680   61.5840 C   0  0  0  0  0  0  0  0  0  0  0  0
  132.5470  125.8990   62.0440 O   0  0  0  0  0  0  0  0  0  0  0  0
  130.1660  125.7920   62.4340 C   0  0  2  0  0  0  0  0  0  0  0  0
  129.2150  126.8680   61.8450 C   0  0  0  0  0  0  0  0  0  0  0  0
  129.8250  128.5780   61.7790 S   0  0  0  0  0  0  0  0  0  0  0  0
  130.7290  128.8170   59.9650 S   0  0  0  0  0  0  0  0  0  0  0  0
  129.8260  130.2110   59.2450 C   0  0  0  0  0  0  0  0  0  0  0  0
  130.2200  131.6170   59.7650 C   0  0  1  0  0  0  0  0  0  0  0  0
  129.1330  132.2340   60.6740 C   0  0  0  0  0  0  0  0  0  0  0  0
  128.8330  133.4170   60.5270 O   0  0  0  0  0  0  0  0  0  0  0  0
  128.5610  131.4140   61.5700 N   0  0  0  0  0  0  0  0  0  0  0  0
  127.4860  131.7720   62.4950 C   0  0  1  0  0  0  0  0  0  0  0  0
  126.2600  130.8910   62.1820 C   0  0  0  0  0  0  0  0  0  0  0  0
  126.0100  130.6350   60.7050 C   0  0  0  0  0  0  0  0  0  0  0  0
  125.5810  131.6810   59.8620 C   0  0  0  0  0  0  0  0  0  0  0  0
  125.4610  131.4660   58.4950 C   0  0  0  0  0  0  0  0  0  0  0  0
  125.7880  130.2300   57.9480 C   0  0  0  0  0  0  0  0  0  0  0  0
  126.2470  129.2010   58.7610 C   0  0  0  0  0  0  0  0  0  0  0  0
  126.3720  129.3970   60.1300 C   0  0  0  0  0  0  0  0  0  0  0  0
  127.8910  131.6050   63.9730 C   0  0  0  0  0  0  0  0  0  0  0  0
  128.1150  132.6110   64.6450 O   0  0  0  0  0  0  0  0  0  0  0  0
  127.9730  130.3480   64.4470 N   0  0  0  0  0  0  0  0  0  0  0  0
  128.3260  129.9810   65.8220 C   0  0  0  0  0  0  0  0  0  0  0  0
  128.2830  128.4610   66.0770 C   0  0  0  0  0  0  0  0  0  0  0  0
  128.7160  127.6890   65.2210 O   0  0  0  0  0  0  0  0  0  0  0  0
  127.7810  128.0980   67.3010 O   0  0  0  0  0  0  0  0  0  0  0  0
  128.5380  127.4550   68.3440 C   0  0  0  0  0  0  0  0  0  0  0  0
  129.3420  126.2460   67.8000 C   0  0  0  0  0  0  0  0  0  0  0  0
  129.4690  128.4660   69.0580 C   0  0  0  0  0  0  0  0  0  0  0  0
  127.4850  126.9440   69.3470 C   0  0  0  0  0  0  0  0  0  0  0  0
  131.5810  131.6100   60.3690 N   0  0  0  0  0  0  0  0  0  0  0  0
  132.7470  131.4760   59.6760 C   0  0  0  0  0  0  0  0  0  0  0  0
  132.8930  131.3610   58.4610 O   0  0  0  0  0  0  0  0  0  0  0  0
  133.8930  131.4940   60.6670 C   0  0  0  0  0  0  0  0  0  0  0  0
  133.2390  131.6590   62.0080 C   0  0  0  0  0  0  0  0  0  0  0  0
  131.7530  131.7230   61.7130 C   0  0  0  0  0  0  0  0  0  0  0  0
  130.8840  131.8570   62.5760 O   0  0  0  0  0  0  0  0  0  0  0  0
  130.5800  126.1930   63.7960 N   0  0  0  0  0  0  0  0  0  0  0  0
  131.0550  125.3140   64.7730 C   0  0  0  0  0  0  0  0  0  0  0  0
  131.4030  125.6740   65.8970 O   0  0  0  0  0  0  0  0  0  0  0  0
  131.1070  124.0320   64.3330 O   0  0  0  0  0  0  0  0  0  0  0  0
  129.9700  123.1800   64.4360 C   0  0  0  0  0  0  0  0  0  0  0  0
  129.4370  122.8000   63.0620 C   0  0  0  0  0  0  0  0  0  0  0  0
  128.1410  123.1840   62.7110 C   0  0  0  0  0  0  0  0  0  0  0  0
  127.6220  122.8360   61.4660 C   0  0  0  0  0  0  0  0  0  0  0  0
  128.4000  122.0970   60.5780 C   0  0  0  0  0  0  0  0  0  0  0  0
  129.6920  121.7050   60.9220 C   0  0  0  0  0  0  0  0  0  0  0  0
  130.2100  122.0530   62.1660 C   0  0  0  0  0  0  0  0  0  0  0  0
  133.0839  125.7605   59.7121 H   0  0  0  0  0  0  0  0  0  0  0  0
  132.2107  124.6024   58.6523 H   0  0  0  0  0  0  0  0  0  0  0  0
  131.7541  126.3396   58.6523 H   0  0  0  0  0  0  0  0  0  0  0  0
  129.6295  124.8319   62.4513 H   0  0  0  0  0  0  0  0  0  0  0  0
  128.9710  126.5649   60.8161 H   0  0  0  0  0  0  0  0  0  0  0  0
  128.3627  126.9003   62.5396 H   0  0  0  0  0  0  0  0  0  0  0  0
  129.9935  130.1951   58.1579 H   0  0  0  0  0  0  0  0  0  0  0  0
  128.7761  130.0688   59.5408 H   0  0  0  0  0  0  0  0  0  0  0  0
  130.2773  132.2919   58.8982 H   0  0  0  0  0  0  0  0  0  0  0  0
  128.8720  130.4560   61.6230 H   0  0  0  0  0  0  0  0  0  0  0  0
  127.2526  132.8375   62.3528 H   0  0  0  0  0  0  0  0  0  0  0  0
  126.4036  129.9191   62.6767 H   0  0  0  0  0  0  0  0  0  0  0  0
  125.3833  131.4445   62.5495 H   0  0  0  0  0  0  0  0  0  0  0  0
  125.3415  132.6669   60.2869 H   0  0  0  0  0  0  0  0  0  0  0  0
  125.1057  132.2770   57.8422 H   0  0  0  0  0  0  0  0  0  0  0  0
  125.6827  130.0660   56.8654 H   0  0  0  0  0  0  0  0  0  0  0  0
  126.5119  128.2291   58.3193 H   0  0  0  0  0  0  0  0  0  0  0  0
  126.7538  128.5863   60.7679 H   0  0  0  0  0  0  0  0  0  0  0  0
  127.7670  129.5840   63.8200 H   0  0  0  0  0  0  0  0  0  0  0  0
  129.3445  130.3412   66.0291 H   0  0  0  0  0  0  0  0  0  0  0  0
  127.5802  130.4441   66.4848 H   0  0  0  0  0  0  0  0  0  0  0  0
  129.7336  125.6571   68.6425 H   0  0  0  0  0  0  0  0  0  0  0  0
  128.6835  125.6142   67.1858 H   0  0  0  0  0  0  0  0  0  0  0  0
  130.1793  126.6089   67.1858 H   0  0  0  0  0  0  0  0  0  0  0  0
  129.3655  128.3536   70.1473 H   0  0  0  0  0  0  0  0  0  0  0  0
  130.5120  128.2728   68.7669 H   0  0  0  0  0  0  0  0  0  0  0  0
  129.1907  129.4896   68.7669 H   0  0  0  0  0  0  0  0  0  0  0  0
  127.8416  127.1171   70.3731 H   0  0  0  0  0  0  0  0  0  0  0  0
  126.5388  127.4832   69.1918 H   0  0  0  0  0  0  0  0  0  0  0  0
  127.3231  125.8671   69.1918 H   0  0  0  0  0  0  0  0  0  0  0  0
  134.4567  130.5504   60.6245 H   0  0  0  0  0  0  0  0  0  0  0  0
  134.6125  132.2985   60.4546 H   0  0  0  0  0  0  0  0  0  0  0  0
  133.4678  130.8017   62.6581 H   0  0  0  0  0  0  0  0  0  0  0  0
  133.5954  132.5566   62.5345 H   0  0  0  0  0  0  0  0  0  0  0  0
  130.4970  127.1720   64.0330 H   0  0  0  0  0  0  0  0  0  0  0  0
  130.2558  122.2647   64.9751 H   0  0  0  0  0  0  0  0  0  0  0  0
  129.1795  123.7201   64.9777 H   0  0  0  0  0  0  0  0  0  0  0  0
  127.5290  123.7622   63.4188 H   0  0  0  0  0  0  0  0  0  0  0  0
  126.6036  123.1431   61.1858 H   0  0  0  0  0  0  0  0  0  0  0  0
  127.9904  121.8201   59.5954 H   0  0  0  0  0  0  0  0  0  0  0  0
  130.2999  121.1231   60.2136 H   0  0  0  0  0  0  0  0  0  0  0  0
  131.2272  121.7408   62.4450 H   0  0  0  0  0  0  0  0  0  0  0  0
  1  2  1  0
  2  3  1  0
  3  4  2  0
  3  5  1  0
  5  6  1  0
  6  7  1  0
  7  8  1  0
  8  9  1  0
  9 10  1  0
 10 11  1  0
 11 12  2  0
 11 13  1  0
 13 14  1  0
 14 15  1  0
 15 16  1  0
 16 17  2  0
 17 18  1  0
 18 19  2  0
 19 20  1  0
 20 21  2  0
 14 22  1  0
 22 23  2  0
 22 24  1  0
 24 25  1  0
 25 26  1  0
 26 27  2  0
 26 28  1  0
 28 29  1  0
 29 30  1  0
 29 31  1  0
 29 32  1  0
 10 33  1  0
 33 34  1  0
 34 35  2  0
 34 36  1  0
 36 37  1  0
 37 38  1  0
 38 39  2  0
  5 40  1  0
 40 41  1  0
 41 42  2  0
 41 43  1  0
 43 44  1  0
 44 45  1  0
 45 46  2  0
 46 47  1  0
 47 48  2  0
 48 49  1  0
 49 50  2  0
 21 16  1  0
 38 33  1  0
 50 45  1  0
  1 51  1  0
  1 52  1  0
  1 53  1  0
  5 54  1  1
  6 55  1  0
  6 56  1  0
  9 57  1  0
  9 58  1  0
 10 59  1  6
 13 60  1  0
 14 61  1  1
 15 62  1  0
 15 63  1  0
 17 64  1  0
 18 65  1  0
 19 66  1  0
 20 67  1  0
 21 68  1  0
 24 69  1  0
 25 70  1  0
 25 71  1  0
 30 72  1  0
 30 73  1  0
 30 74  1  0
 31 75  1  0
 31 76  1  0
 31 77  1  0
 32 78  1  0
 32 79  1  0
 32 80  1  0
 36 81  1  0
 36 82  1  0
 37 83  1  0
 37 84  1  0
 40 85  1  0
 44 86  1  0
 44 87  1  0
 46 88  1  0
 47 89  1  0
 48 90  1  0
 49 91  1  0
 50 92  1  0
M  END
>  <Binding energies>  (1) 
[-7.22]

>  <Ligand effiencies>  (1) 
[-0.1362264150943396]

>  <Interactions>  (1) 
["V-B:PRO:540:CA:9855, V-A:GLU:543:CA:4904, V-B:GLU:543:C:9874, H-A:GLU:543:OE2:4910, V-A:GLU:543:C:4902, H-A:ALA:541:N:4891, V-B:GLU:543:CB:9878, V-B:ALA:541:CB:9864, V-B:TYR:539:CE2:9848, V-A:TYR:484:CE2:4346, V-B:GLU:543:CG:9879, V-B:TYR:539:C:9839, V-A:ASP:366:CG:3213, V-A:ASN:362:CB:3176, V-A:LEU:363:CB:3187, V-B:TYR:484:CE2:9317, V-A:TYR:539:CZ:4877, V-A:GLU:543:CD:4908, H-B:TYR:484:OH:9319, V-B:HIS:456:CE1:9041, V-B:PRO:540:N:9856, V-B:TYR:484:CZ:9318, V-A:HIS:456:CE1:4070, V-B:TYR:539:CD2:9846, V-A:GLU:543:CG:4907, V-B:GLU:543:CD:9880, V-A:ASP:366:CB:3212, V-A:LEU:475:CD2:4259, H-A:ARG:545:NH2:4928, V-A:ASN:362:C:3172, H-A:GLU:543:OE1:4909, V-A:GLU:543:CB:4906, V-A:PRO:540:CB:4885, V-A:PRO:540:CA:4883, V-A:LEU:363:CA:3185, V-B:PRO:540:C:9853, V-A:TYR:539:CE1:4875, H-A:TYR:484:OH:4348"]

$$$$
ZINC150399055
     RDKit          3D

 90 91  0  0  0  0  0  0  0  0999 V2000
  133.9510  124.1160   60.1380 C   0  0  0  0  0  0  0  0  0  0  0  0
  134.3040  124.0560   61.6270 C   0  0  0  0  0  0  0  0  0  0  0  0
  133.1160  123.9880   62.4060 O   0  0  0  0  0  0  0  0  0  0  0  0
  133.1100  124.4280   63.6900 C   0  0  0  0  0  0  0  0  0  0  0  0
  134.0820  124.9100   64.2760 O   0  0  0  0  0  0  0  0  0  0  0  0
  131.7610  124.3010   64.4320 C   0  0  0  0  0  0  0  0  0  0  0  0
  130.8560  125.4430   64.2440 N   0  0  0  0  0  0  0  0  0  0  0  0
  129.7940  125.7230   65.0190 C   0  0  0  0  0  0  0  0  0  0  0  0
  129.4790  125.0600   66.0070 O   0  0  0  0  0  0  0  0  0  0  0  0
  128.9560  126.9550   64.6090 C   0  0  1  0  0  0  0  0  0  0  0  0
  128.7230  127.9650   65.7590 C   0  0  0  0  0  0  0  0  0  0  0  0
  128.1320  127.2330   67.3130 S   0  0  0  0  0  0  0  0  0  0  0  0
  129.8180  126.5820   68.2600 S   0  0  0  0  0  0  0  0  0  0  0  0
  130.2610  127.8780   69.4590 C   0  0  0  0  0  0  0  0  0  0  0  0
  129.6290  127.7840   70.8810 C   0  0  1  0  0  0  0  0  0  0  0  0
  129.0330  126.4730   71.2190 N   0  0  0  0  0  0  0  0  0  0  0  0
  128.7120  126.0680   72.5130 C   0  0  0  0  0  0  0  0  0  0  0  0
  128.8190  126.7310   73.5470 O   0  0  0  0  0  0  0  0  0  0  0  0
  128.2460  124.8070   72.4560 O   0  0  0  0  0  0  0  0  0  0  0  0
  129.0120  123.7140   72.9490 C   0  0  0  0  0  0  0  0  0  0  0  0
  128.2950  122.4170   72.6250 C   0  0  0  0  0  0  0  0  0  0  0  0
  128.6180  121.7260   71.4540 C   0  0  0  0  0  0  0  0  0  0  0  0
  127.9690  120.5320   71.1520 C   0  0  0  0  0  0  0  0  0  0  0  0
  126.9990  120.0360   72.0200 C   0  0  0  0  0  0  0  0  0  0  0  0
  126.6710  120.7230   73.1870 C   0  0  0  0  0  0  0  0  0  0  0  0
  127.3210  121.9170   73.4930 C   0  0  0  0  0  0  0  0  0  0  0  0
  130.5780  128.1750   72.0110 C   0  0  0  0  0  0  0  0  0  0  0  0
  130.5160  129.2570   72.6030 O   0  0  0  0  0  0  0  0  0  0  0  0
  131.4550  127.1830   72.3000 O   0  0  0  0  0  0  0  0  0  0  0  0
  131.7760  126.8690   73.6470 C   0  0  0  0  0  0  0  0  0  0  0  0
  129.4850  127.6430   63.4250 N   0  0  0  0  0  0  0  0  0  0  0  0
  128.7760  128.3450   62.5220 C   0  0  0  0  0  0  0  0  0  0  0  0
  127.5610  128.5350   62.5960 O   0  0  0  0  0  0  0  0  0  0  0  0
  129.5810  128.9160   61.3220 C   0  0  2  0  0  0  0  0  0  0  0  0
  130.9570  128.3850   61.2220 N   0  0  0  0  0  0  0  0  0  0  0  0
  131.2940  127.0330   61.3340 C   0  0  0  0  0  0  0  0  0  0  0  0
  132.4500  126.6130   61.2940 O   0  0  0  0  0  0  0  0  0  0  0  0
  130.2030  126.2410   61.4780 O   0  0  0  0  0  0  0  0  0  0  0  0
  129.8830  125.2500   60.5050 C   0  0  0  0  0  0  0  0  0  0  0  0
  129.8500  123.8480   61.1060 C   0  0  0  0  0  0  0  0  0  0  0  0
  130.6450  122.8580   60.5230 C   0  0  0  0  0  0  0  0  0  0  0  0
  130.6430  121.5640   61.0370 C   0  0  0  0  0  0  0  0  0  0  0  0
  129.8400  121.2590   62.1340 C   0  0  0  0  0  0  0  0  0  0  0  0
  129.0420  122.2370   62.7220 C   0  0  0  0  0  0  0  0  0  0  0  0
  129.0460  123.5310   62.2080 C   0  0  0  0  0  0  0  0  0  0  0  0
  129.6260  130.4810   61.4170 C   0  0  0  0  0  0  0  0  0  0  0  0
  130.9910  131.1220   61.0760 C   0  0  0  0  0  0  0  0  0  0  0  0
  129.0990  131.0390   62.7540 C   0  0  0  0  0  0  0  0  0  0  0  0
  132.8724  124.2993   60.0240 H   0  0  0  0  0  0  0  0  0  0  0  0
  134.5140  124.9313   59.6603 H   0  0  0  0  0  0  0  0  0  0  0  0
  134.2130  123.1604   59.6603 H   0  0  0  0  0  0  0  0  0  0  0  0
  134.9179  123.1639   61.8202 H   0  0  0  0  0  0  0  0  0  0  0  0
  134.8649  124.9614   61.9020 H   0  0  0  0  0  0  0  0  0  0  0  0
  131.2525  123.3955   64.0692 H   0  0  0  0  0  0  0  0  0  0  0  0
  131.9957  124.2594   65.5059 H   0  0  0  0  0  0  0  0  0  0  0  0
  131.0480  126.0380   63.4510 H   0  0  0  0  0  0  0  0  0  0  0  0
  127.9749  126.5326   64.3461 H   0  0  0  0  0  0  0  0  0  0  0  0
  129.6754  128.4763   65.9628 H   0  0  0  0  0  0  0  0  0  0  0  0
  127.9284  128.6441   65.4164 H   0  0  0  0  0  0  0  0  0  0  0  0
  131.3540  127.8552   69.5812 H   0  0  0  0  0  0  0  0  0  0  0  0
  129.8568  128.8075   69.0317 H   0  0  0  0  0  0  0  0  0  0  0  0
  128.8184  128.5240   70.8075 H   0  0  0  0  0  0  0  0  0  0  0  0
  128.8890  125.8220   70.4620 H   0  0  0  0  0  0  0  0  0  0  0  0
  130.0037  123.7152   72.4730 H   0  0  0  0  0  0  0  0  0  0  0  0
  129.1321  123.8081   74.0384 H   0  0  0  0  0  0  0  0  0  0  0  0
  129.3836  122.1248   70.7722 H   0  0  0  0  0  0  0  0  0  0  0  0
  128.2209  119.9831   70.2326 H   0  0  0  0  0  0  0  0  0  0  0  0
  126.4867  119.0922   71.7817 H   0  0  0  0  0  0  0  0  0  0  0  0
  125.9016  120.3242   73.8644 H   0  0  0  0  0  0  0  0  0  0  0  0
  127.0684  122.4634   74.4137 H   0  0  0  0  0  0  0  0  0  0  0  0
  131.1556  127.4759   74.3228 H   0  0  0  0  0  0  0  0  0  0  0  0
  131.5825  125.8019   73.8309 H   0  0  0  0  0  0  0  0  0  0  0  0
  132.8386  127.0860   73.8309 H   0  0  0  0  0  0  0  0  0  0  0  0
  130.4780  127.5380   63.2790 H   0  0  0  0  0  0  0  0  0  0  0  0
  129.0556  128.5933   60.4110 H   0  0  0  0  0  0  0  0  0  0  0  0
  131.7000  129.0530   61.0750 H   0  0  0  0  0  0  0  0  0  0  0  0
  128.8946  125.4770   60.0788 H   0  0  0  0  0  0  0  0  0  0  0  0
  130.6643  125.2693   59.7309 H   0  0  0  0  0  0  0  0  0  0  0  0
  131.2748  123.1018   59.6547 H   0  0  0  0  0  0  0  0  0  0  0  0
  131.2722  120.7864   60.5793 H   0  0  0  0  0  0  0  0  0  0  0  0
  129.8364  120.2364   62.5393 H   0  0  0  0  0  0  0  0  0  0  0  0
  128.4115  121.9885   63.5884 H   0  0  0  0  0  0  0  0  0  0  0  0
  128.4161  124.3062   62.6686 H   0  0  0  0  0  0  0  0  0  0  0  0
  128.9296  130.7817   60.6203 H   0  0  0  0  0  0  0  0  0  0  0  0
  131.5218  131.3712   62.0067 H   0  0  0  0  0  0  0  0  0  0  0  0
  131.5930  130.4124   60.4894 H   0  0  0  0  0  0  0  0  0  0  0  0
  130.8294  132.0384   60.4894 H   0  0  0  0  0  0  0  0  0  0  0  0
  129.5912  130.5178   63.5883 H   0  0  0  0  0  0  0  0  0  0  0  0
  129.3178  132.1154   62.8138 H   0  0  0  0  0  0  0  0  0  0  0  0
  128.0119  130.8820   62.8138 H   0  0  0  0  0  0  0  0  0  0  0  0
  1  2  1  0
  2  3  1  0
  3  4  1  0
  4  5  2  0
  4  6  1  0
  6  7  1  0
  7  8  1  0
  8  9  2  0
  8 10  1  0
 10 11  1  0
 11 12  1  0
 12 13  1  0
 13 14  1  0
 14 15  1  0
 15 16  1  0
 16 17  1  0
 17 18  2  0
 17 19  1  0
 19 20  1  0
 20 21  1  0
 21 22  2  0
 22 23  1  0
 23 24  2  0
 24 25  1  0
 25 26  2  0
 15 27  1  0
 27 28  2  0
 27 29  1  0
 29 30  1  0
 10 31  1  0
 31 32  1  0
 32 33  2  0
 32 34  1  0
 34 35  1  0
 35 36  1  0
 36 37  2  0
 36 38  1  0
 38 39  1  0
 39 40  1  0
 40 41  2  0
 41 42  1  0
 42 43  2  0
 43 44  1  0
 44 45  2  0
 34 46  1  0
 46 47  1  0
 46 48  1  0
 26 21  1  0
 45 40  1  0
  1 49  1  0
  1 50  1  0
  1 51  1  0
  2 52  1  0
  2 53  1  0
  6 54  1  0
  6 55  1  0
  7 56  1  0
 10 57  1  6
 11 58  1  0
 11 59  1  0
 14 60  1  0
 14 61  1  0
 15 62  1  6
 16 63  1  0
 20 64  1  0
 20 65  1  0
 22 66  1  0
 23 67  1  0
 24 68  1  0
 25 69  1  0
 26 70  1  0
 30 71  1  0
 30 72  1  0
 30 73  1  0
 31 74  1  0
 34 75  1  6
 35 76  1  0
 39 77  1  0
 39 78  1  0
 41 79  1  0
 42 80  1  0
 43 81  1  0
 44 82  1  0
 45 83  1  0
 46 84  1  0
 47 85  1  0
 47 86  1  0
 47 87  1  0
 48 88  1  0
 48 89  1  0
 48 90  1  0
M  END
>  <Binding energies>  (1) 
[-7.3]

>  <Ligand effiencies>  (1) 
[-0.14038461538461539]

>  <Interactions>  (1) 
["V-A:ILE:369:CG2:3237, V-A:ASP:366:CA:3210, V-B:GLU:543:C:9874, H-A:GLU:543:OE2:4910, H-B:GLU:543:O:9875, V-A:ILE:369:CB:3236, V-A:GLU:543:C:4902, H-B:LYS:547:NZ:9923, V-B:ALA:541:CB:9864, H-A:ARG:545:NH1:4927, V-B:TYR:539:CE2:9848, V-B:GLU:543:CG:9879, V-A:GLY:544:C:4912, V-A:ASP:366:CG:3213, V-A:HIS:456:CD2:4068, V-B:LYS:547:CE:9922, V-A:TYR:484:CA:4339, V-A:GLU:543:CD:4908, H-A:GLY:454:N:4050, V-A:TYR:484:CD2:4344, V-A:ILE:369:CD1:3239, V-A:HIS:456:CE1:4070, V-A:TYR:484:CG:4342, V-B:TYR:539:CD2:9846, V-A:GLU:543:CG:4907, V-B:GLY:544:CA:9886, V-B:GLU:543:CD:9880, H-A:LYS:547:NZ:4951, H-A:ARG:545:NH2:4928, V-A:ARG:545:CZ:4926, H-A:GLU:543:OE1:4909, V-A:LEU:475:CD2:4259, V-A:TYR:484:CB:4341, V-B:VAL:542:CG1:9871, V-A:GLU:543:CB:4906, V-A:HIS:456:CG:4066, H-A:ARG:545:NE:4924, H-A:ASP:366:OD2:3215, H-A:HIS:456:NE2:4071, H-A:HIS:456:ND1:4067, H-A:TYR:484:OH:4348"]

$$$$
ZINC150409982
     RDKit          3D

 71 74  0  0  0  0  0  0  0  0999 V2000
  131.9630  131.4900   59.5190 C   0  0  0  0  0  0  0  0  0  0  0  0
  130.9740  131.5770   60.6890 C   0  0  0  0  0  0  0  0  0  0  0  0
  129.5740  131.6090   60.4640 C   0  0  0  0  0  0  0  0  0  0  0  0
  128.9540  131.3860   59.1120 C   0  0  0  0  0  0  0  0  0  0  0  0
  129.4560  131.7810   58.0550 O   0  0  0  0  0  0  0  0  0  0  0  0
  127.7220  130.7890   59.2010 O   0  0  0  0  0  0  0  0  0  0  0  0
  127.5850  129.4490   58.9150 C   0  0  0  0  0  0  0  0  0  0  0  0
  126.3840  128.8020   59.2030 C   0  0  0  0  0  0  0  0  0  0  0  0
  126.2320  127.4530   58.8960 C   0  0  0  0  0  0  0  0  0  0  0  0
  127.2720  126.7300   58.2920 C   0  0  0  0  0  0  0  0  0  0  0  0
  127.0560  125.2280   57.9680 C   0  0  0  0  0  0  0  0  0  0  0  0
  125.5690  125.0570   57.5430 C   0  0  0  0  0  0  0  0  0  0  0  0
  127.9020  124.7350   56.7590 C   0  0  0  0  0  0  0  0  0  0  0  0
  127.4480  124.3550   59.1890 C   0  0  0  0  0  0  0  0  0  0  0  0
  127.2160  124.7630   60.5130 C   0  0  0  0  0  0  0  0  0  0  0  0
  127.5650  123.9400   61.5810 C   0  0  0  0  0  0  0  0  0  0  0  0
  128.1600  122.7010   61.3410 C   0  0  0  0  0  0  0  0  0  0  0  0
  128.4670  121.8690   62.3940 O   0  0  0  0  0  0  0  0  0  0  0  0
  129.2240  122.3340   63.4370 C   0  0  0  0  0  0  0  0  0  0  0  0
  128.7880  122.5200   64.5770 O   0  0  0  0  0  0  0  0  0  0  0  0
  130.6230  122.6940   63.0070 C   0  0  0  0  0  0  0  0  0  0  0  0
  131.1250  122.0970   61.8400 C   0  0  0  0  0  0  0  0  0  0  0  0
  132.4280  122.3290   61.3900 C   0  0  0  0  0  0  0  0  0  0  0  0
  132.9300  121.6920   60.1470 N   0  0  0  0  0  0  0  0  0  0  0  0
  133.0540  120.4700   60.1220 O   0  0  0  0  0  0  0  0  0  0  0  0
  133.2060  122.4060   59.1880 O   0  0  0  0  0  0  0  0  0  0  0  0
  133.2500  123.1650   62.1480 C   0  0  0  0  0  0  0  0  0  0  0  0
  132.7960  123.7670   63.3250 C   0  0  0  0  0  0  0  0  0  0  0  0
  133.7490  124.6020   64.0850 N   0  0  0  0  0  0  0  0  0  0  0  0
  133.5790  124.7240   65.2950 O   0  0  0  0  0  0  0  0  0  0  0  0
  134.6850  125.1060   63.4720 O   0  0  0  0  0  0  0  0  0  0  0  0
  131.4660  123.5550   63.7540 C   0  0  0  0  0  0  0  0  0  0  0  0
  130.9380  124.3250   64.9720 C   0  0  0  0  0  0  0  0  0  0  0  0
  128.3930  122.2810   60.0330 C   0  0  0  0  0  0  0  0  0  0  0  0
  128.0430  123.1040   58.9670 C   0  0  0  0  0  0  0  0  0  0  0  0
  128.4710  127.3990   57.9950 C   0  0  0  0  0  0  0  0  0  0  0  0
  128.6240  128.7490   58.3000 C   0  0  0  0  0  0  0  0  0  0  0  0
  128.7150  131.7970   61.5570 C   0  0  0  0  0  0  0  0  0  0  0  0
  129.1970  131.9580   62.8600 C   0  0  0  0  0  0  0  0  0  0  0  0
  128.2680  132.1640   63.9980 N   0  0  0  0  0  0  0  0  0  0  0  0
  128.6490  131.8760   65.1290 O   0  0  0  0  0  0  0  0  0  0  0  0
  127.1500  132.6190   63.7710 O   0  0  0  0  0  0  0  0  0  0  0  0
  130.5780  131.9060   63.0640 C   0  0  0  0  0  0  0  0  0  0  0  0
  131.4680  131.7050   62.0050 C   0  0  0  0  0  0  0  0  0  0  0  0
  132.9090  131.6250   62.3200 N   0  0  0  0  0  0  0  0  0  0  0  0
  133.6170  132.5910   62.0540 O   0  0  0  0  0  0  0  0  0  0  0  0
  133.3330  130.5790   62.8040 O   0  0  0  0  0  0  0  0  0  0  0  0
  132.9870  131.3999   59.9104 H   0  0  0  0  0  0  0  0  0  0  0  0
  131.7268  130.6092   58.9039 H   0  0  0  0  0  0  0  0  0  0  0  0
  131.8842  132.3985   58.9039 H   0  0  0  0  0  0  0  0  0  0  0  0
  125.5580  129.3568   59.6720 H   0  0  0  0  0  0  0  0  0  0  0  0
  125.2839  126.9468   59.1300 H   0  0  0  0  0  0  0  0  0  0  0  0
  124.9372  124.9843   58.4405 H   0  0  0  0  0  0  0  0  0  0  0  0
  125.2567  125.9251   56.9440 H   0  0  0  0  0  0  0  0  0  0  0  0
  125.4619  124.1406   56.9440 H   0  0  0  0  0  0  0  0  0  0  0  0
  128.7977  124.2130   57.1268 H   0  0  0  0  0  0  0  0  0  0  0  0
  127.3010  124.0457   56.1477 H   0  0  0  0  0  0  0  0  0  0  0  0
  128.2054  125.5977   56.1477 H   0  0  0  0  0  0  0  0  0  0  0  0
  126.7542  125.7421   60.7082 H   0  0  0  0  0  0  0  0  0  0  0  0
  127.3716  124.2667   62.6134 H   0  0  0  0  0  0  0  0  0  0  0  0
  130.4729  121.4259   61.2617 H   0  0  0  0  0  0  0  0  0  0  0  0
  134.2798  123.3545   61.8109 H   0  0  0  0  0  0  0  0  0  0  0  0
  131.2773  123.8301   65.8939 H   0  0  0  0  0  0  0  0  0  0  0  0
  131.3198  125.3563   64.9475 H   0  0  0  0  0  0  0  0  0  0  0  0
  129.8384  124.3405   64.9475 H   0  0  0  0  0  0  0  0  0  0  0  0
  128.8531  121.3000   59.8433 H   0  0  0  0  0  0  0  0  0  0  0  0
  128.2353  122.7694   57.9369 H   0  0  0  0  0  0  0  0  0  0  0  0
  129.2966  126.8513   57.5171 H   0  0  0  0  0  0  0  0  0  0  0  0
  129.5647  129.2642   58.0560 H   0  0  0  0  0  0  0  0  0  0  0  0
  127.6289  131.8185   61.3839 H   0  0  0  0  0  0  0  0  0  0  0  0
  130.9748  132.0262   64.0829 H   0  0  0  0  0  0  0  0  0  0  0  0
  1  2  1  0
  2  3  2  0
  3  4  1  0
  4  5  2  0
  4  6  1  0
  6  7  1  0
  7  8  2  0
  8  9  1  0
  9 10  2  0
 10 11  1  0
 11 12  1  0
 11 13  1  0
 11 14  1  0
 14 15  2  0
 15 16  1  0
 16 17  2  0
 17 18  1  0
 18 19  1  0
 19 20  2  0
 19 21  1  0
 21 22  2  0
 22 23  1  0
 23 24  1  0
 24 25  2  0
 24 26  1  0
 23 27  2  0
 27 28  1  0
 28 29  1  0
 29 30  2  0
 29 31  1  0
 28 32  2  0
 32 33  1  0
 17 34  1  0
 34 35  2  0
 10 36  1  0
 36 37  2  0
  3 38  1  0
 38 39  2  0
 39 40  1  0
 40 41  2  0
 40 42  1  0
 39 43  1  0
 43 44  2  0
 44 45  1  0
 45 46  2  0
 45 47  1  0
 44  2  1  0
 37  7  1  0
 35 14  1  0
 32 21  1  0
  1 48  1  0
  1 49  1  0
  1 50  1  0
  8 51  1  0
  9 52  1  0
 12 53  1  0
 12 54  1  0
 12 55  1  0
 13 56  1  0
 13 57  1  0
 13 58  1  0
 15 59  1  0
 16 60  1  0
 22 61  1  0
 27 62  1  0
 33 63  1  0
 33 64  1  0
 33 65  1  0
 34 66  1  0
 35 67  1  0
 36 68  1  0
 37 69  1  0
 38 70  1  0
 43 71  1  0
M  CHG  8  24   1  26  -1  29   1  31  -1  40   1  42  -1  45   1  47  -1
M  END
>  <Binding energies>  (1) 
[-10.81]

>  <Ligand effiencies>  (1) 
[-0.23]

>  <Interactions>  (1) 
["V-A:ILE:369:CG2:3237, V-B:PRO:540:CA:9855, V-A:GLY:454:CA:4049, H-A:ALA:541:N:4891, V-B:ASP:366:CG:8184, V-B:ALA:541:CB:9864, H-A:ARG:545:NH1:4927, V-B:TYR:539:CE2:9848, V-B:GLU:543:CG:9879, V-B:TYR:539:C:9839, V-A:ASN:362:CB:3176, V-B:TYR:531:CZ:9766, V-A:ALA:541:CB:4892, H-B:ALA:541:N:9863, V-B:TYR:531:CE2:9765, V-B:ASP:366:CB:8183, V-A:GLU:543:CD:4908, H-B:TYR:484:OH:9319, H-A:GLY:454:N:4050, V-A:GLY:453:C:4042, V-B:PRO:540:N:9856, V-A:ALA:541:CA:4890, V-B:TYR:539:CD2:9846, V-A:GLU:543:CG:4907, H-A:SER:385:OG:3410, V-B:GLU:543:CD:9880, V-A:LEU:475:CD2:4259, H-A:ARG:545:NH2:4928, V-A:ARG:545:CZ:4926, V-A:PRO:540:CB:4885, V-A:PRO:540:CA:4883, V-A:GLY:453:CA:4044, H-A:ARG:545:NE:4924, V-B:PRO:540:C:9853, H-A:TYR:484:OH:4348"]

$$$$
ZINC150413332
     RDKit          3D

 41 42  0  0  0  0  0  0  0  0999 V2000
  130.0440  122.4720   63.7120 C   0  0  0  0  0  0  0  0  0  0  0  0
  129.2040  122.6270   62.4400 C   0  0  0  0  0  0  0  0  0  0  0  0
  130.0790  122.6530   61.3160 O   0  0  0  0  0  0  0  0  0  0  0  0
  129.7280  123.3760   60.1900 C   0  0  0  0  0  0  0  0  0  0  0  0
  130.3650  124.5630   59.7900 C   0  0  0  0  0  0  0  0  0  0  0  0
  129.9680  125.2570   58.6360 C   0  0  0  0  0  0  0  0  0  0  0  0
  130.6190  126.4990   58.1990 C   0  0  0  0  0  0  0  0  0  0  0  0
  131.6600  126.9840   58.7500 N   0  0  0  0  0  0  0  0  0  0  0  0
  132.0710  128.1270   58.1690 N   0  0  0  0  0  0  0  0  0  0  0  0
  131.5180  129.3270   58.4420 C   0  0  0  0  0  0  0  0  0  0  0  0
  130.5980  129.4910   59.2480 O   0  0  0  0  0  0  0  0  0  0  0  0
  132.0540  130.5500   57.6810 C   0  0  0  0  0  0  0  0  0  0  0  0
  132.1860  131.6710   58.5610 O   0  0  0  0  0  0  0  0  0  0  0  0
  131.0140  132.1040   59.1330 C   0  0  0  0  0  0  0  0  0  0  0  0
  130.8540  132.0610   60.5240 C   0  0  0  0  0  0  0  0  0  0  0  0
  132.2500  131.4130   61.6470 Br  0  0  0  0  0  0  0  0  0  0  0  0
  129.6620  132.4950   61.1040 C   0  0  0  0  0  0  0  0  0  0  0  0
  128.6230  132.9670   60.3010 C   0  0  0  0  0  0  0  0  0  0  0  0
  126.9980  133.5580   61.0960 Br  0  0  0  0  0  0  0  0  0  0  0  0
  128.7730  133.0010   58.9160 C   0  0  0  0  0  0  0  0  0  0  0  0
  129.9640  132.5690   58.3300 C   0  0  0  0  0  0  0  0  0  0  0  0
  130.1330  132.6140   56.4310 Br  0  0  0  0  0  0  0  0  0  0  0  0
  128.9110  124.7380   57.8800 C   0  0  0  0  0  0  0  0  0  0  0  0
  128.2650  123.5630   58.2590 C   0  0  0  0  0  0  0  0  0  0  0  0
  126.6900  122.8550   57.0710 I   0  0  0  0  0  0  0  0  0  0  0  0
  128.6720  122.8830   59.4100 C   0  0  0  0  0  0  0  0  0  0  0  0
  128.0360  121.7260   59.7840 O   0  0  0  0  0  0  0  0  0  0  0  0
  129.3983  122.5911   64.5946 H   0  0  0  0  0  0  0  0  0  0  0  0
  130.5054  121.4736   63.7273 H   0  0  0  0  0  0  0  0  0  0  0  0
  130.8313  123.2400   63.7273 H   0  0  0  0  0  0  0  0  0  0  0  0
  128.5096  121.7787   62.3492 H   0  0  0  0  0  0  0  0  0  0  0  0
  128.6236  123.5603   62.4852 H   0  0  0  0  0  0  0  0  0  0  0  0
  131.1943  124.9577   60.3954 H   0  0  0  0  0  0  0  0  0  0  0  0
  130.1826  127.0413   57.3472 H   0  0  0  0  0  0  0  0  0  0  0  0
  132.8150  128.0310   57.4940 H   0  0  0  0  0  0  0  0  0  0  0  0
  133.0383  130.3075   57.2539 H   0  0  0  0  0  0  0  0  0  0  0  0
  131.3457  130.8085   56.8801 H   0  0  0  0  0  0  0  0  0  0  0  0
  129.5408  132.4651   62.1969 H   0  0  0  0  0  0  0  0  0  0  0  0
  127.9516  133.3688   58.2835 H   0  0  0  0  0  0  0  0  0  0  0  0
  128.5848  125.2661   56.9719 H   0  0  0  0  0  0  0  0  0  0  0  0
  128.5600  121.2010   60.3930 H   0  0  0  0  0  0  0  0  0  0  0  0
  1  2  1  0
  2  3  1  0
  3  4  1  0
  4  5  2  0
  5  6  1  0
  6  7  1  0
  7  8  2  0
  8  9  1  0
  9 10  1  0
 10 11  2  0
 10 12  1  0
 12 13  1  0
 13 14  1  0
 14 15  2  0
 15 16  1  0
 15 17  1  0
 17 18  2  0
 18 19  1  0
 18 20  1  0
 20 21  2  0
 21 22  1  0
  6 23  2  0
 23 24  1  0
 24 25  1  0
 24 26  2  0
 26 27  1  0
 26  4  1  0
 21 14  1  0
  1 28  1  0
  1 29  1  0
  1 30  1  0
  2 31  1  0
  2 32  1  0
  5 33  1  0
  7 34  1  0
  9 35  1  0
 12 36  1  0
 12 37  1  0
 17 38  1  0
 20 39  1  0
 23 40  1  0
 27 41  1  0
M  END
>  <Binding energies>  (1) 
[-7.19]

>  <Ligand effiencies>  (1) 
[-0.24793103448275863]

>  <Interactions>  (1) 
["V-B:PRO:540:CA:9855, V-A:PRO:540:C:4881, V-A:ILE:538:CB:4862, V-B:ALA:541:CB:9864, H-A:TYR:531:OH:4795, V-B:TYR:539:CE2:9848, V-A:ASP:366:CG:3213, V-A:LEU:363:CD1:3189, V-A:TYR:539:CD1:4873, V-B:TYR:539:CZ:9849, V-A:ILE:538:CA:4860, V-A:TYR:531:CE2:4793, H-B:ALA:541:N:9863, V-B:PRO:540:N:9856, V-B:TYR:539:CD2:9846, V-A:TYR:531:CZ:4794, V-B:PRO:540:CD:9859, V-A:MET:535:CE:4835, V-A:TYR:539:C:4867, V-A:ASP:366:CB:3212, V-A:LEU:475:CD2:4259, V-A:PRO:540:N:4884, V-A:PRO:540:CB:4885, V-A:PRO:540:CA:4883, H-B:TYR:539:O:9840, H-A:ASP:366:OD2:3215, V-A:TYR:539:CE1:4875"]

$$$$
ZINC150420708
     RDKit          3D

 64 70  0  0  0  0  0  0  0  0999 V2000
  130.5990  129.0430   60.0100 O   0  0  0  0  0  0  0  0  0  0  0  0
  131.0230  129.1300   58.8530 C   0  0  0  0  0  0  0  0  0  0  0  0
  131.4060  128.0690   58.1110 N   0  0  0  0  0  0  0  0  0  0  0  0
  131.3760  126.8080   58.5770 N   0  0  0  0  0  0  0  0  0  0  0  0
  130.3210  126.5580   59.2400 C   0  0  0  0  0  0  0  0  0  0  0  0
  129.9940  125.1850   59.8760 C   0  0  2  0  0  0  0  0  0  0  0  0
  131.2440  124.3030   60.1830 C   0  0  0  0  0  0  0  0  0  0  0  0
  132.5940  124.6470   60.0230 C   0  0  0  0  0  0  0  0  0  0  0  0
  133.6000  123.7450   60.3690 C   0  0  0  0  0  0  0  0  0  0  0  0
  133.2720  122.4900   60.8810 C   0  0  0  0  0  0  0  0  0  0  0  0
  131.9350  122.1340   61.0510 C   0  0  0  0  0  0  0  0  0  0  0  0
  130.9240  123.0310   60.7070 C   0  0  0  0  0  0  0  0  0  0  0  0
  129.4150  122.7660   60.8710 C   0  0  2  0  0  0  0  0  0  0  0  0
  128.8020  123.0290   59.4910 C   0  0  0  0  0  0  0  0  0  0  0  0
  128.0080  122.1260   58.7820 C   0  0  0  0  0  0  0  0  0  0  0  0
  127.4910  122.4790   57.5380 C   0  0  0  0  0  0  0  0  0  0  0  0
  127.7630  123.7350   57.0000 C   0  0  0  0  0  0  0  0  0  0  0  0
  128.5560  124.6420   57.7030 C   0  0  0  0  0  0  0  0  0  0  0  0
  129.0910  124.3040   58.9570 C   0  0  0  0  0  0  0  0  0  0  0  0
  128.8220  123.8970   61.7880 C   0  0  1  0  0  0  0  0  0  0  0  0
  129.3260  123.8660   63.2240 C   0  0  0  0  0  0  0  0  0  0  0  0
  129.1680  122.9150   63.9900 O   0  0  0  0  0  0  0  0  0  0  0  0
  129.9310  125.0540   63.4920 N   0  0  0  0  0  0  0  0  0  0  0  0
  130.5300  125.3410   64.7360 C   0  0  0  0  0  0  0  0  0  0  0  0
  129.7090  125.8180   65.7690 C   0  0  0  0  0  0  0  0  0  0  0  0
  130.2400  126.0830   67.0290 C   0  0  0  0  0  0  0  0  0  0  0  0
  131.5940  125.8710   67.2710 C   0  0  0  0  0  0  0  0  0  0  0  0
  132.4200  125.3990   66.2520 C   0  0  0  0  0  0  0  0  0  0  0  0
  131.9090  125.1340   64.9750 C   0  0  0  0  0  0  0  0  0  0  0  0
  132.8310  124.6510   63.9240 N   0  0  0  0  0  0  0  0  0  0  0  0
  132.4070  123.8510   63.0950 O   0  0  0  0  0  0  0  0  0  0  0  0
  133.9750  125.0940   63.9180 O   0  0  0  0  0  0  0  0  0  0  0  0
  129.9360  125.9310   62.4510 C   0  0  0  0  0  0  0  0  0  0  0  0
  130.4130  127.0670   62.4520 O   0  0  0  0  0  0  0  0  0  0  0  0
  129.1970  125.2970   61.2610 C   0  0  1  0  0  0  0  0  0  0  0  0
  131.1510  130.4790   58.1720 C   0  0  0  0  0  0  0  0  0  0  0  0
  130.0040  131.1250   57.6790 C   0  0  0  0  0  0  0  0  0  0  0  0
  130.0890  132.3700   57.0590 C   0  0  0  0  0  0  0  0  0  0  0  0
  128.5160  133.2150   56.4000 Br  0  0  0  0  0  0  0  0  0  0  0  0
  131.3250  132.9970   56.9240 C   0  0  0  0  0  0  0  0  0  0  0  0
  132.4730  132.3770   57.4090 C   0  0  0  0  0  0  0  0  0  0  0  0
  132.3980  131.1280   58.0290 C   0  0  0  0  0  0  0  0  0  0  0  0
  133.5750  130.5690   58.4650 O   0  0  0  0  0  0  0  0  0  0  0  0
  131.7430  128.1770   57.1650 H   0  0  0  0  0  0  0  0  0  0  0  0
  129.5918  127.3712   59.3706 H   0  0  0  0  0  0  0  0  0  0  0  0
  132.8616  125.6356   59.6216 H   0  0  0  0  0  0  0  0  0  0  0  0
  134.6557  124.0245   60.2376 H   0  0  0  0  0  0  0  0  0  0  0  0
  134.0685  121.7809   61.1508 H   0  0  0  0  0  0  0  0  0  0  0  0
  131.6771  121.1447   61.4569 H   0  0  0  0  0  0  0  0  0  0  0  0
  129.2236  121.7597   61.2719 H   0  0  0  0  0  0  0  0  0  0  0  0
  127.7905  121.1347   59.2063 H   0  0  0  0  0  0  0  0  0  0  0  0
  126.8673  121.7654   56.9796 H   0  0  0  0  0  0  0  0  0  0  0  0
  127.3513  124.0121   56.0183 H   0  0  0  0  0  0  0  0  0  0  0  0
  128.7645  125.6319   57.2710 H   0  0  0  0  0  0  0  0  0  0  0  0
  127.7390  123.7057   61.7671 H   0  0  0  0  0  0  0  0  0  0  0  0
  128.6377  125.9839   65.5823 H   0  0  0  0  0  0  0  0  0  0  0  0
  129.5897  126.4596   67.8323 H   0  0  0  0  0  0  0  0  0  0  0  0
  132.0128  126.0761   68.2673 H   0  0  0  0  0  0  0  0  0  0  0  0
  133.4884  125.2323   66.4537 H   0  0  0  0  0  0  0  0  0  0  0  0
  128.3554  125.9444   60.9735 H   0  0  0  0  0  0  0  0  0  0  0  0
  129.0226  130.6394   57.7844 H   0  0  0  0  0  0  0  0  0  0  0  0
  131.3940  133.9800   56.4352 H   0  0  0  0  0  0  0  0  0  0  0  0
  133.4479  132.8753   57.3030 H   0  0  0  0  0  0  0  0  0  0  0  0
  133.4790  130.0880   59.2890 H   0  0  0  0  0  0  0  0  0  0  0  0
  1  2  2  0
  2  3  1  0
  3  4  1  0
  4  5  2  0
  6  5  1  6
  6  7  1  0
  7  8  2  0
  8  9  1  0
  9 10  2  0
 10 11  1  0
 11 12  2  0
 12 13  1  0
 13 14  1  0
 14 15  2  0
 15 16  1  0
 16 17  2  0
 17 18  1  0
 18 19  2  0
 13 20  1  0
 20 21  1  0
 21 22  2  0
 21 23  1  0
 23 24  1  0
 24 25  2  0
 25 26  1  0
 26 27  2  0
 27 28  1  0
 28 29  2  0
 29 30  1  0
 30 31  2  0
 30 32  1  0
 23 33  1  0
 33 34  2  0
 33 35  1  0
  2 36  1  0
 36 37  2  0
 37 38  1  0
 38 39  1  0
 38 40  2  0
 40 41  1  0
 41 42  2  0
 42 43  1  0
 19  6  1  0
 35 20  1  0
 42 36  1  0
 35  6  1  0
 12  7  1  0
 19 14  1  0
 29 24  1  0
  3 44  1  0
  5 45  1  0
  8 46  1  0
  9 47  1  0
 10 48  1  0
 11 49  1  0
 13 50  1  1
 15 51  1  0
 16 52  1  0
 17 53  1  0
 18 54  1  0
 20 55  1  1
 25 56  1  0
 26 57  1  0
 27 58  1  0
 28 59  1  0
 35 60  1  6
 37 61  1  0
 40 62  1  0
 41 63  1  0
 43 64  1  0
M  CHG  2  30   1  32  -1
M  END
>  <Binding energies>  (1) 
[-11.34]

>  <Ligand effiencies>  (1) 
[-0.252]

>  <Interactions>  (1) 
["V-B:TYR:539:CA:9841, V-A:ILE:369:CG2:3237, V-B:PRO:540:CA:9855, V-A:PRO:540:CG:4886, V-B:TYR:539:CE1:9847, V-B:GLU:543:CB:9878, V-A:ILE:538:CB:4862, H-A:TYR:531:OH:4795, H-A:ARG:545:NH1:4927, V-B:TYR:539:CE2:9848, V-B:GLU:543:CG:9879, V-A:TYR:539:CE2:4876, V-B:TYR:539:C:9839, V-A:ASP:366:CG:3213, V-A:LEU:363:CD1:3189, V-A:TYR:539:CD1:4873, V-B:TYR:539:CZ:9849, V-A:ILE:538:CA:4860, V-A:TYR:539:CZ:4877, V-A:GLU:543:CD:4908, V-B:PRO:540:CB:9857, V-A:TYR:484:CZ:4347, V-A:ARG:545:CG:4922, H-A:GLY:454:N:4050, V-B:PRO:540:N:9856, V-A:ILE:369:CD1:3239, V-A:HIS:456:CE1:4070, V-B:TYR:539:CD2:9846, V-A:TYR:531:CZ:4794, V-A:MET:535:CE:4835, V-B:GLU:543:CD:9880, V-A:ASP:366:CB:3212, V-A:ARG:545:CD:4923, V-A:LEU:475:CD2:4259, H-A:ARG:545:NH2:4928, V-A:ARG:545:CZ:4926, V-B:TYR:539:CG:9844, V-B:TYR:539:CD1:9845, V-A:PRO:540:N:4884, V-A:TYR:539:CG:4872, V-A:PRO:540:CB:4885, V-A:PRO:540:CA:4883, H-A:ARG:545:NE:4924, V-A:TYR:539:CD2:4874, H-A:ASP:366:OD2:3215, V-A:PRO:540:CD:4887, V-A:TYR:539:CE1:4875"]

$$$$
ZINC150420708-again1
     RDKit          3D

 63 69  0  0  0  0  0  0  0  0999 V2000
  131.1940  129.2160   60.2730 O   0  0  0  0  0  0  0  0  0  0  0  0
  131.2610  129.2840   59.0400 C   0  0  0  0  0  0  0  0  0  0  0  0
  131.2600  128.1810   58.2630 N   0  0  0  0  0  0  0  0  0  0  0  0
  131.2560  126.9300   58.7580 N   0  0  0  0  0  0  0  0  0  0  0  0
  130.1420  126.6190   59.2830 C   0  0  0  0  0  0  0  0  0  0  0  0
  129.8230  125.2320   59.8940 C   0  0  2  0  0  0  0  0  0  0  0  0
  131.0800  124.3910   60.2760 C   0  0  0  0  0  0  0  0  0  0  0  0
  132.4260  124.7750   60.1910 C   0  0  0  0  0  0  0  0  0  0  0  0
  133.4400  123.8950   60.5710 C   0  0  0  0  0  0  0  0  0  0  0  0
  133.1220  122.6240   61.0460 C   0  0  0  0  0  0  0  0  0  0  0  0
  131.7900  122.2310   61.1520 C   0  0  0  0  0  0  0  0  0  0  0  0
  130.7700  123.1070   60.7730 C   0  0  0  0  0  0  0  0  0  0  0  0
  129.2650  122.7920   60.8500 C   0  0  2  0  0  0  0  0  0  0  0  0
  128.7320  123.0380   59.4340 C   0  0  0  0  0  0  0  0  0  0  0  0
  128.0150  122.1100   58.6760 C   0  0  0  0  0  0  0  0  0  0  0  0
  127.5700  122.4470   57.4000 C   0  0  0  0  0  0  0  0  0  0  0  0
  127.8350  123.7130   56.8790 C   0  0  0  0  0  0  0  0  0  0  0  0
  128.5490  124.6450   57.6320 C   0  0  0  0  0  0  0  0  0  0  0  0
  129.0110  124.3230   58.9190 C   0  0  0  0  0  0  0  0  0  0  0  0
  128.5780  123.9020   61.7290 C   0  0  1  0  0  0  0  0  0  0  0  0
  128.9850  123.8960   63.1960 C   0  0  0  0  0  0  0  0  0  0  0  0
  128.8180  122.9420   63.9570 O   0  0  0  0  0  0  0  0  0  0  0  0
  129.5130  125.1110   63.4980 N   0  0  0  0  0  0  0  0  0  0  0  0
  129.9750  125.4440   64.7850 C   0  0  0  0  0  0  0  0  0  0  0  0
  129.1450  126.1940   65.6300 C   0  0  0  0  0  0  0  0  0  0  0  0
  129.5830  126.5600   66.9010 C   0  0  0  0  0  0  0  0  0  0  0  0
  130.8530  126.1820   67.3370 C   0  0  0  0  0  0  0  0  0  0  0  0
  131.6840  125.4340   66.5040 C   0  0  0  0  0  0  0  0  0  0  0  0
  131.2540  125.0580   65.2270 C   0  0  0  0  0  0  0  0  0  0  0  0
  132.1500  124.2650   64.3770 N   0  0  0  0  0  0  0  0  0  0  0  0
  131.6980  123.2440   63.8720 O   0  0  0  0  0  0  0  0  0  0  0  0
  133.2910  124.6810   64.2170 O   0  0  0  0  0  0  0  0  0  0  0  0
  129.5570  125.9840   62.4550 C   0  0  0  0  0  0  0  0  0  0  0  0
  129.9770  127.1420   62.4870 O   0  0  0  0  0  0  0  0  0  0  0  0
  128.9340  125.3150   61.2210 C   0  0  1  0  0  0  0  0  0  0  0  0
  131.3140  130.6540   58.3490 C   0  0  0  0  0  0  0  0  0  0  0  0
  130.1000  131.1440   57.8300 C   0  0  0  0  0  0  0  0  0  0  0  0
  130.0130  132.3680   57.1730 C   0  0  0  0  0  0  0  0  0  0  0  0
  128.3410  132.9680   56.4880 Br  0  0  0  0  0  0  0  0  0  0  0  0
  131.1470  133.1510   57.0170 C   0  0  0  0  0  0  0  0  0  0  0  0
  132.3650  132.7100   57.5210 C   0  0  0  0  0  0  0  0  0  0  0  0
  132.4740  131.4790   58.1860 C   0  0  0  0  0  0  0  0  0  0  0  0
  133.6460  131.2010   58.6170 O   0  0  0  0  0  0  0  0  0  0  0  0
  131.2950  128.2520   57.2560 H   0  0  0  0  0  0  0  0  0  0  0  0
  129.3524  127.3846   59.3052 H   0  0  0  0  0  0  0  0  0  0  0  0
  132.6846  125.7783   59.8217 H   0  0  0  0  0  0  0  0  0  0  0  0
  134.4927  124.2052   60.4955 H   0  0  0  0  0  0  0  0  0  0  0  0
  133.9242  121.9301   61.3376 H   0  0  0  0  0  0  0  0  0  0  0  0
  131.5410  121.2301   61.5344 H   0  0  0  0  0  0  0  0  0  0  0  0
  129.0824  121.7807   61.2423 H   0  0  0  0  0  0  0  0  0  0  0  0
  127.8015  121.1122   59.0869 H   0  0  0  0  0  0  0  0  0  0  0  0
  127.0088  121.7135   56.8024 H   0  0  0  0  0  0  0  0  0  0  0  0
  127.4802  123.9773   55.8719 H   0  0  0  0  0  0  0  0  0  0  0  0
  128.7523  125.6420   57.2140 H   0  0  0  0  0  0  0  0  0  0  0  0
  127.5072  123.6655   61.6421 H   0  0  0  0  0  0  0  0  0  0  0  0
  128.1437  126.4948   65.2881 H   0  0  0  0  0  0  0  0  0  0  0  0
  128.9272  127.1471   67.5607 H   0  0  0  0  0  0  0  0  0  0  0  0
  131.1993  126.4744   68.3393 H   0  0  0  0  0  0  0  0  0  0  0  0
  132.6841  125.1376   66.8532 H   0  0  0  0  0  0  0  0  0  0  0  0
  128.0908  125.9287   60.8713 H   0  0  0  0  0  0  0  0  0  0  0  0
  129.1892  130.5386   57.9479 H   0  0  0  0  0  0  0  0  0  0  0  0
  131.0828  134.1178   56.4962 H   0  0  0  0  0  0  0  0  0  0  0  0
  133.2599  133.3374   57.3963 H   0  0  0  0  0  0  0  0  0  0  0  0
  1  2  2  0
  2  3  1  0
  3  4  1  0
  4  5  2  0
  6  5  1  6
  6  7  1  0
  7  8  2  0
  8  9  1  0
  9 10  2  0
 10 11  1  0
 11 12  2  0
 12 13  1  0
 13 14  1  0
 14 15  2  0
 15 16  1  0
 16 17  2  0
 17 18  1  0
 18 19  2  0
 13 20  1  0
 20 21  1  0
 21 22  2  0
 21 23  1  0
 23 24  1  0
 24 25  2  0
 25 26  1  0
 26 27  2  0
 27 28  1  0
 28 29  2  0
 29 30  1  0
 30 31  2  0
 30 32  1  0
 23 33  1  0
 33 34  2  0
 33 35  1  0
  2 36  1  0
 36 37  2  0
 37 38  1  0
 38 39  1  0
 38 40  2  0
 40 41  1  0
 41 42  2  0
 42 43  1  0
 19  6  1  0
 35 20  1  0
 42 36  1  0
 35  6  1  0
 12  7  1  0
 19 14  1  0
 29 24  1  0
  3 44  1  0
  5 45  1  0
  8 46  1  0
  9 47  1  0
 10 48  1  0
 11 49  1  0
 13 50  1  1
 15 51  1  0
 16 52  1  0
 17 53  1  0
 18 54  1  0
 20 55  1  1
 25 56  1  0
 26 57  1  0
 27 58  1  0
 28 59  1  0
 35 60  1  6
 37 61  1  0
 40 62  1  0
 41 63  1  0
M  CHG  3  30   1  32  -1  43  -1
M  END
>  <Binding energies>  (1) 
[-9.63]

>  <Ligand effiencies>  (1) 
[-0.21886363636363637]

>  <Interactions>  (1) 
["V-B:TYR:539:CA:9841, V-A:ILE:369:CG2:3237, V-B:PRO:540:CA:9855, V-A:PRO:540:CG:4886, V-B:GLU:543:CB:9878, V-A:ILE:538:CB:4862, H-A:TYR:531:OH:4795, V-B:TYR:539:CE2:9848, V-B:GLU:543:CG:9879, V-B:TYR:539:C:9839, V-A:TYR:539:CE2:4876, V-A:ASP:366:CG:3213, V-A:TYR:539:CE1:4875, V-A:LEU:363:CD1:3189, V-A:TYR:539:CD1:4873, V-B:TYR:539:CZ:9849, V-A:ILE:538:CA:4860, V-A:TYR:539:CZ:4877, V-A:GLU:543:CD:4908, V-A:TYR:484:CZ:4347, H-A:GLY:454:N:4050, V-B:PRO:540:N:9856, V-A:ILE:369:CD1:3239, V-A:HIS:456:CE1:4070, V-B:TYR:539:CD2:9846, V-B:GLU:543:CD:9880, V-A:MET:535:CE:4835, V-A:TYR:539:C:4867, V-A:ASP:366:CB:3212, V-A:LEU:475:CD2:4259, H-A:ARG:545:NH2:4928, V-B:TYR:539:CG:9844, V-B:TYR:539:CD1:9845, V-A:PRO:540:N:4884, V-A:TYR:539:CG:4872, V-A:PRO:540:CB:4885, V-A:PRO:540:CA:4883, V-A:TYR:539:CD2:4874, V-A:PRO:540:CD:4887, V-B:TYR:539:CE1:9847, H-A:TYR:484:OH:4348"]

$$$$
ZINC150439584
     RDKit          3D

 68 72  0  0  0  0  0  0  0  0999 V2000
  126.5630  123.0020   57.9300 C   0  0  0  0  0  0  0  0  0  0  0  0
  126.5470  123.9450   59.1080 C   0  0  0  0  0  0  0  0  0  0  0  0
  125.5910  124.3090   60.0400 C   0  0  0  0  0  0  0  0  0  0  0  0
  126.1940  125.2350   60.8900 C   0  0  0  0  0  0  0  0  0  0  0  0
  127.4970  125.4070   60.4490 C   0  0  0  0  0  0  0  0  0  0  0  0
  128.7350  126.4980   61.1800 P   0  0  2  0  0  5  0  0  0  0  0  0
  130.4410  125.8790   61.1240 C   0  0  0  0  0  0  0  0  0  0  0  0
  130.8620  124.5930   61.2220 C   0  0  0  0  0  0  0  0  0  0  0  0
  130.1210  123.4420   61.4890 N   0  0  0  0  0  0  0  0  0  0  0  0
  128.8990  123.3710   62.2910 C   0  0  0  0  0  0  0  0  0  0  0  0
  130.8270  122.2640   61.2290 C   0  0  0  0  0  0  0  0  0  0  0  0
  130.4140  120.9260   61.2400 C   0  0  0  0  0  0  0  0  0  0  0  0
  131.3160  119.9230   60.8770 C   0  0  0  0  0  0  0  0  0  0  0  0
  132.6180  120.2560   60.5000 C   0  0  0  0  0  0  0  0  0  0  0  0
  133.0230  121.5910   60.4870 C   0  0  0  0  0  0  0  0  0  0  0  0
  132.1150  122.5940   60.8430 C   0  0  0  0  0  0  0  0  0  0  0  0
  132.3010  124.0880   60.9890 C   0  0  0  0  0  0  0  0  0  0  0  0
  132.9230  124.7020   59.7090 C   0  0  0  0  0  0  0  0  0  0  0  0
  133.1740  124.3940   62.2280 C   0  0  0  0  0  0  0  0  0  0  0  0
  128.3320  126.7660   62.6760 N   0  0  0  0  0  0  0  0  0  0  0  0
  127.5870  128.2410   63.2610 S   0  0  0  0  0  0  0  0  0  0  0  0
  128.1680  129.5000   62.7820 O   0  0  0  0  0  0  0  0  0  0  0  0
  126.1290  128.2480   63.4230 O   0  0  0  0  0  0  0  0  0  0  0  0
  128.2020  128.0670   64.9380 C   0  0  0  0  0  0  0  0  0  0  0  0
  127.8910  129.0400   65.8900 C   0  0  0  0  0  0  0  0  0  0  0  0
  128.3490  128.9050   67.1970 C   0  0  0  0  0  0  0  0  0  0  0  0
  129.1210  127.7960   67.5720 C   0  0  0  0  0  0  0  0  0  0  0  0
  129.6070  127.6510   68.9660 N   0  0  0  0  0  0  0  0  0  0  0  0
  128.7900  127.4140   69.8520 O   0  0  0  0  0  0  0  0  0  0  0  0
  130.8090  127.7740   69.1860 O   0  0  0  0  0  0  0  0  0  0  0  0
  129.4220  126.8230   66.6070 C   0  0  0  0  0  0  0  0  0  0  0  0
  128.9650  126.9560   65.3000 C   0  0  0  0  0  0  0  0  0  0  0  0
  128.6050  127.9200   60.3770 O   0  0  0  0  0  0  0  0  0  0  0  0
  129.6370  128.7560   60.0160 C   0  0  0  0  0  0  0  0  0  0  0  0
  130.0460  128.7670   58.6830 C   0  0  0  0  0  0  0  0  0  0  0  0
  131.1080  129.5740   58.2760 C   0  0  0  0  0  0  0  0  0  0  0  0
  131.7650  130.3870   59.2000 C   0  0  0  0  0  0  0  0  0  0  0  0
  133.2230  131.4640   58.6080 Br  0  0  0  0  0  0  0  0  0  0  0  0
  131.3470  130.3990   60.5360 C   0  0  0  0  0  0  0  0  0  0  0  0
  132.2130  131.4870   61.8400 Br  0  0  0  0  0  0  0  0  0  0  0  0
  130.2800  129.5930   60.9360 C   0  0  0  0  0  0  0  0  0  0  0  0
  127.7010  124.6170   59.3620 O   0  0  0  0  0  0  0  0  0  0  0  0
  126.5806  121.9634   58.2919 H   0  0  0  0  0  0  0  0  0  0  0  0
  125.6620  123.1624   57.3197 H   0  0  0  0  0  0  0  0  0  0  0  0
  127.4580  123.1928   57.3197 H   0  0  0  0  0  0  0  0  0  0  0  0
  124.5566  123.9396   60.0987 H   0  0  0  0  0  0  0  0  0  0  0  0
  125.7240  125.7354   61.7495 H   0  0  0  0  0  0  0  0  0  0  0  0
  131.2273  126.6374   60.9952 H   0  0  0  0  0  0  0  0  0  0  0  0
  129.1602  123.3862   63.3594 H   0  0  0  0  0  0  0  0  0  0  0  0
  128.2570  124.2334   62.0582 H   0  0  0  0  0  0  0  0  0  0  0  0
  128.3612  122.4401   62.0582 H   0  0  0  0  0  0  0  0  0  0  0  0
  129.3859  120.6664   61.5326 H   0  0  0  0  0  0  0  0  0  0  0  0
  130.9998  118.8695   60.8883 H   0  0  0  0  0  0  0  0  0  0  0  0
  133.3259  119.4646   60.2127 H   0  0  0  0  0  0  0  0  0  0  0  0
  134.0514  121.8537   60.1982 H   0  0  0  0  0  0  0  0  0  0  0  0
  133.6797  125.4489   59.9910 H   0  0  0  0  0  0  0  0  0  0  0  0
  133.3963  123.9072   59.1138 H   0  0  0  0  0  0  0  0  0  0  0  0
  132.1344  125.1856   59.1138 H   0  0  0  0  0  0  0  0  0  0  0  0
  132.5968  124.1917   63.1423 H   0  0  0  0  0  0  0  0  0  0  0  0
  134.0702  123.7564   62.2116 H   0  0  0  0  0  0  0  0  0  0  0  0
  133.4760  125.4516   62.2116 H   0  0  0  0  0  0  0  0  0  0  0  0
  127.2843  129.9128   65.6069 H   0  0  0  0  0  0  0  0  0  0  0  0
  128.1032  129.6752   67.9429 H   0  0  0  0  0  0  0  0  0  0  0  0
  130.0251  125.9466   66.8867 H   0  0  0  0  0  0  0  0  0  0  0  0
  129.2049  126.1859   64.5521 H   0  0  0  0  0  0  0  0  0  0  0  0
  129.5273  128.1347   57.9473 H   0  0  0  0  0  0  0  0  0  0  0  0
  131.4285  129.5695   57.2237 H   0  0  0  0  0  0  0  0  0  0  0  0
  129.9415  129.6155   61.9824 H   0  0  0  0  0  0  0  0  0  0  0  0
  1  2  1  0
  2  3  2  0
  3  4  1  0
  4  5  2  0
  5  6  1  0
  6  7  1  0
  7  8  2  0
  8  9  1  0
  9 10  1  0
  9 11  1  0
 11 12  2  0
 12 13  1  0
 13 14  2  0
 14 15  1  0
 15 16  2  0
 16 17  1  0
 17 18  1  0
 17 19  1  0
  6 20  2  0
 20 21  1  0
 21 22  2  0
 21 23  2  0
 21 24  1  0
 24 25  2  0
 25 26  1  0
 26 27  2  0
 27 28  1  0
 28 29  2  0
 28 30  1  0
 27 31  1  0
 31 32  2  0
  6 33  1  6
 33 34  1  0
 34 35  2  0
 35 36  1  0
 36 37  2  0
 37 38  1  0
 37 39  1  0
 39 40  1  0
 39 41  2  0
  5 42  1  0
 42  2  1  0
 17  8  1  0
 32 24  1  0
 41 34  1  0
 16 11  1  0
  1 43  1  0
  1 44  1  0
  1 45  1  0
  3 46  1  0
  4 47  1  0
  7 48  1  0
 10 49  1  0
 10 50  1  0
 10 51  1  0
 12 52  1  0
 13 53  1  0
 14 54  1  0
 15 55  1  0
 18 56  1  0
 18 57  1  0
 18 58  1  0
 19 59  1  0
 19 60  1  0
 19 61  1  0
 25 62  1  0
 26 63  1  0
 31 64  1  0
 32 65  1  0
 35 66  1  0
 36 67  1  0
 41 68  1  0
M  CHG  2  28   1  30  -1
M  END
>  <Binding energies>  (1) 
[-9.41]

>  <Ligand effiencies>  (1) 
[-0.22404761904761905]

>  <Interactions>  (1) 
["V-A:ILE:369:CG2:3237, V-B:PRO:540:CA:9855, V-B:GLU:543:CB:9878, V-B:TYR:539:CE2:9848, V-B:GLU:543:CG:9879, V-B:TYR:539:C:9839, V-A:ASP:366:CG:3213, V-A:LEU:363:CB:3187, V-A:LEU:363:CD1:3189, V-A:GLU:543:CD:4908, V-B:PRO:540:CB:9857, V-B:HIS:456:CE1:9041, V-B:PRO:540:N:9856, V-A:HIS:456:CE1:4070, V-B:PRO:540:CD:9859, V-B:TYR:539:CD2:9846, V-A:SER:385:CB:3409, V-A:GLU:543:CG:4907, V-B:GLU:543:CD:9880, V-A:ASP:366:CB:3212, V-A:LEU:475:CD2:4259, H-B:ARG:545:NH2:9900, V-A:GLU:543:CB:4906, V-A:PRO:540:CB:4885, V-A:PRO:540:CA:4883, V-A:LEU:363:CA:3185"]

$$$$
ZINC150444831
     RDKit          3D

 64 67  0  0  0  0  0  0  0  0999 V2000
  127.0720  132.2300   64.2860 O   0  0  0  0  0  0  0  0  0  0  0  0
  127.9830  131.6170   63.7320 C   0  0  0  0  0  0  0  0  0  0  0  0
  127.8420  130.0920   63.5230 C   0  0  0  0  0  0  0  0  0  0  0  0
  127.0480  129.6190   62.2720 C   0  0  0  0  0  0  0  0  0  0  0  0
  127.8130  128.9140   61.2110 N   0  0  0  0  0  0  0  0  0  0  0  0
  128.9920  128.3100   61.5140 C   0  0  0  0  0  0  0  0  0  0  0  0
  129.4940  128.3740   62.6370 O   0  0  0  0  0  0  0  0  0  0  0  0
  129.5290  127.6110   60.3490 C   0  0  0  0  0  0  0  0  0  0  0  0
  130.6230  126.7890   60.2700 C   0  0  0  0  0  0  0  0  0  0  0  0
  131.1880  126.0700   58.7530 S   0  0  0  0  0  0  0  0  0  0  0  0
  132.5400  125.2920   59.5070 C   0  0  0  0  0  0  0  0  0  0  0  0
  133.6150  124.4130   58.5800 S   0  0  0  0  0  0  0  0  0  0  0  0
  132.4980  125.5440   60.8480 N   0  0  0  0  0  0  0  0  0  0  0  0
  133.5200  124.9670   61.7520 C   0  0  0  0  0  0  0  0  0  0  0  0
  133.3360  123.4570   62.0280 C   0  0  0  0  0  0  0  0  0  0  0  0
  132.6810  123.1220   63.3750 C   0  0  0  0  0  0  0  0  0  0  0  0
  133.1790  122.2750   64.1220 O   0  0  0  0  0  0  0  0  0  0  0  0
  131.5720  123.8300   63.6720 N   0  0  0  0  0  0  0  0  0  0  0  0
  130.9930  123.7960   64.9570 N   0  0  0  0  0  0  0  0  0  0  0  0
  130.3920  124.9210   65.5460 C   0  0  0  0  0  0  0  0  0  0  0  0
  129.7160  125.8210   64.7200 C   0  0  0  0  0  0  0  0  0  0  0  0
  129.1090  126.9530   65.2580 C   0  0  0  0  0  0  0  0  0  0  0  0
  129.1720  127.2100   66.6340 C   0  0  0  0  0  0  0  0  0  0  0  0
  128.5250  128.4160   67.2080 N   0  0  0  0  0  0  0  0  0  0  0  0
  127.9040  129.1650   66.4580 O   0  0  0  0  0  0  0  0  0  0  0  0
  128.6320  128.6230   68.4130 O   0  0  0  0  0  0  0  0  0  0  0  0
  129.8580  126.3080   67.4590 C   0  0  0  0  0  0  0  0  0  0  0  0
  130.4630  125.1770   66.9200 C   0  0  0  0  0  0  0  0  0  0  0  0
  131.5000  126.3230   61.3460 C   0  0  0  0  0  0  0  0  0  0  0  0
  131.3910  126.5620   62.5490 O   0  0  0  0  0  0  0  0  0  0  0  0
  128.5030  128.0030   58.9590 S   0  0  0  0  0  0  0  0  0  0  0  0
  127.3620  128.8820   59.9220 C   0  0  0  0  0  0  0  0  0  0  0  0
  125.9930  129.5190   59.2120 S   0  0  0  0  0  0  0  0  0  0  0  0
  129.0940  132.2670   63.3280 N   0  0  0  0  0  0  0  0  0  0  0  0
  130.1410  131.6210   62.6500 N   0  0  0  0  0  0  0  0  0  0  0  0
  130.4260  131.8380   61.2920 C   0  0  0  0  0  0  0  0  0  0  0  0
  131.6610  131.4050   60.8080 C   0  0  0  0  0  0  0  0  0  0  0  0
  131.9990  131.5880   59.4700 C   0  0  0  0  0  0  0  0  0  0  0  0
  131.1040  132.2080   58.5880 C   0  0  0  0  0  0  0  0  0  0  0  0
  131.4630  132.4050   57.1620 N   0  0  0  0  0  0  0  0  0  0  0  0
  131.0220  133.3890   56.5740 O   0  0  0  0  0  0  0  0  0  0  0  0
  132.1880  131.5760   56.6180 O   0  0  0  0  0  0  0  0  0  0  0  0
  129.8640  132.6410   59.0770 C   0  0  0  0  0  0  0  0  0  0  0  0
  129.5280  132.4570   60.4150 C   0  0  0  0  0  0  0  0  0  0  0  0
  128.8562  129.6723   63.4500 H   0  0  0  0  0  0  0  0  0  0  0  0
  127.2539  129.7399   64.3833 H   0  0  0  0  0  0  0  0  0  0  0  0
  126.2579  128.9371   62.6194 H   0  0  0  0  0  0  0  0  0  0  0  0
  126.6887  130.5437   61.7968 H   0  0  0  0  0  0  0  0  0  0  0  0
  134.5095  125.1170   61.2956 H   0  0  0  0  0  0  0  0  0  0  0  0
  133.4164  125.4818   62.7186 H   0  0  0  0  0  0  0  0  0  0  0  0
  132.7075  123.0375   61.2286 H   0  0  0  0  0  0  0  0  0  0  0  0
  134.3465  123.0235   62.0598 H   0  0  0  0  0  0  0  0  0  0  0  0
  131.1820  124.5390   63.0680 H   0  0  0  0  0  0  0  0  0  0  0  0
  131.5250  123.1790   65.5540 H   0  0  0  0  0  0  0  0  0  0  0  0
  129.6625  125.6347   63.6372 H   0  0  0  0  0  0  0  0  0  0  0  0
  128.5753  127.6516   64.5969 H   0  0  0  0  0  0  0  0  0  0  0  0
  129.9185  126.4958   68.5412 H   0  0  0  0  0  0  0  0  0  0  0  0
  131.0009  124.4791   67.5785 H   0  0  0  0  0  0  0  0  0  0  0  0
  129.1990  133.2700   63.3830 H   0  0  0  0  0  0  0  0  0  0  0  0
  130.9140  131.4530   63.2760 H   0  0  0  0  0  0  0  0  0  0  0  0
  132.3729  130.9154   61.4888 H   0  0  0  0  0  0  0  0  0  0  0  0
  132.9766  131.2431   59.1022 H   0  0  0  0  0  0  0  0  0  0  0  0
  129.1505  133.1303   58.3977 H   0  0  0  0  0  0  0  0  0  0  0  0
  128.5507  132.8002   60.7854 H   0  0  0  0  0  0  0  0  0  0  0  0
  1  2  2  0
  2  3  1  0
  3  4  1  0
  4  5  1  0
  5  6  1  0
  6  7  2  0
  6  8  1  0
  8  9  2  0
  9 10  1  0
 10 11  1  0
 11 12  2  0
 11 13  1  0
 13 14  1  0
 14 15  1  0
 15 16  1  0
 16 17  2  0
 16 18  1  0
 18 19  1  0
 19 20  1  0
 20 21  2  0
 21 22  1  0
 22 23  2  0
 23 24  1  0
 24 25  2  0
 24 26  1  0
 23 27  1  0
 27 28  2  0
 13 29  1  0
 29 30  2  0
  8 31  1  0
 31 32  1  0
 32 33  2  0
  2 34  1  0
 34 35  1  0
 35 36  1  0
 36 37  2  0
 37 38  1  0
 38 39  2  0
 39 40  1  0
 40 41  2  0
 40 42  1  0
 39 43  1  0
 43 44  2  0
 32  5  1  0
 44 36  1  0
 29  9  1  0
 28 20  1  0
  3 45  1  0
  3 46  1  0
  4 47  1  0
  4 48  1  0
 14 49  1  0
 14 50  1  0
 15 51  1  0
 15 52  1  0
 18 53  1  0
 19 54  1  0
 21 55  1  0
 22 56  1  0
 27 57  1  0
 28 58  1  0
 34 59  1  0
 35 60  1  0
 37 61  1  0
 38 62  1  0
 43 63  1  0
 44 64  1  0
M  CHG  4  24   1  26  -1  40   1  42  -1
M  END
>  <Binding energies>  (1) 
[-9.02]

>  <Ligand effiencies>  (1) 
[-0.18791666666666665]

>  <Interactions>  (1) 
["V-A:ILE:369:CG2:3237, V-A:ASP:366:CA:3210, V-A:GLY:454:CA:4049, V-A:ILE:369:CB:3236, V-B:GLU:543:CB:9878, H-A:ALA:541:O:4889, V-B:ASP:366:CG:8184, H-A:TYR:531:OH:4795, V-B:TYR:539:CE2:9848, V-A:TYR:484:CE2:4346, V-B:GLU:543:CG:9879, V-A:ASP:366:CG:3213, V-A:LEU:363:CD1:3189, V-A:ALA:541:CB:4892, V-A:GLU:543:CD:4908, V-A:TYR:484:CZ:4347, H-B:TYR:484:OH:9319, V-B:HIS:456:CE1:9041, H-A:GLY:454:N:4050, V-A:HIS:456:CE1:4070, V-A:ASP:366:C:3208, V-A:GLU:543:CG:4907, V-B:GLU:543:CD:9880, V-A:TYR:539:C:4867, V-A:ASP:366:CB:3212, V-A:LEU:475:CD2:4259, H-A:ARG:545:NH2:4928, H-A:GLU:543:OE1:4909, V-A:GLU:543:CB:4906, V-A:PRO:540:N:4884, H-A:TYR:539:N:4870, V-A:PRO:540:CB:4885, V-A:PRO:540:CA:4883, H-A:TYR:484:OH:4348"]

$$$$
ZINC150450419
     RDKit          3D

 88 94  0  0  0  0  0  0  0  0999 V2000
  132.5060  131.2520   61.8960 C   0  0  0  0  0  0  0  0  0  0  0  0
  131.3830  131.0820   60.8670 C   0  0  0  0  0  0  0  0  0  0  0  0
  130.8210  129.6480   60.8380 C   0  0  0  0  0  0  0  0  0  0  0  0
  130.4310  129.1990   59.4850 N   0  0  0  0  0  0  0  0  0  0  0  0
  128.9890  129.2760   59.1640 C   0  0  0  0  0  0  0  0  0  0  0  0
  128.2200  128.0190   59.5200 C   0  0  0  0  0  0  0  0  0  0  0  0
  127.6250  127.7280   60.6490 N   0  0  0  0  0  0  0  0  0  0  0  0
  127.0390  126.4800   60.4580 N   0  0  0  0  0  0  0  0  0  0  0  0
  127.3270  126.1230   59.2290 C   0  0  0  0  0  0  0  0  0  0  0  0
  126.9320  124.9040   58.5410 C   0  0  0  0  0  0  0  0  0  0  0  0
  125.6410  124.4770   58.2330 C   0  0  0  0  0  0  0  0  0  0  0  0
  125.6050  123.2530   57.5580 C   0  0  0  0  0  0  0  0  0  0  0  0
  126.8680  122.7270   57.3410 C   0  0  0  0  0  0  0  0  0  0  0  0
  128.1120  123.7510   57.9760 S   0  0  0  0  0  0  0  0  0  0  0  0
  128.0760  127.0530   58.5810 O   0  0  0  0  0  0  0  0  0  0  0  0
  131.3160  128.5020   58.7210 C   0  0  0  0  0  0  0  0  0  0  0  0
  132.3700  129.0060   58.3180 O   0  0  0  0  0  0  0  0  0  0  0  0
  130.9810  127.0320   58.3490 C   0  0  0  0  0  0  0  0  0  0  0  0
  131.4380  126.0750   59.3770 N   0  0  0  0  0  0  0  0  0  0  0  0
  131.1480  126.2290   60.6900 C   0  0  0  0  0  0  0  0  0  0  0  0
  130.2230  126.8750   61.1860 O   0  0  0  0  0  0  0  0  0  0  0  0
  132.0130  125.4060   61.3200 N   0  0  0  0  0  0  0  0  0  0  0  0
  132.1990  125.4820   62.7820 C   0  0  0  0  0  0  0  0  0  0  0  0
  131.6330  124.2390   63.5150 C   0  0  0  0  0  0  0  0  0  0  0  0
  132.3330  123.2310   63.6510 O   0  0  0  0  0  0  0  0  0  0  0  0
  130.3680  124.3060   64.0100 N   0  0  0  0  0  0  0  0  0  0  0  0
  129.2040  124.4560   63.1230 C   0  0  0  0  0  0  0  0  0  0  0  0
  128.2930  123.2150   63.0860 C   0  0  0  0  0  0  0  0  0  0  0  0
  127.2240  123.3060   61.9910 C   0  0  0  0  0  0  0  0  0  0  0  0
  130.0310  124.0660   65.4220 C   0  0  0  0  0  0  0  0  0  0  0  0
  129.7060  125.3570   66.1470 C   0  0  0  0  0  0  0  0  0  0  0  0
  129.2250  126.4690   65.6520 N   0  0  0  0  0  0  0  0  0  0  0  0
  129.0890  127.3380   66.7320 N   0  0  0  0  0  0  0  0  0  0  0  0
  129.4930  126.6750   67.7900 C   0  0  0  0  0  0  0  0  0  0  0  0
  129.5440  127.1380   69.1680 C   0  0  0  0  0  0  0  0  0  0  0  0
  130.6090  127.7530   69.8230 C   0  0  0  0  0  0  0  0  0  0  0  0
  130.3320  128.0770   71.1550 C   0  0  0  0  0  0  0  0  0  0  0  0
  129.0500  127.7150   71.5340 C   0  0  0  0  0  0  0  0  0  0  0  0
  128.1750  126.9680   70.2380 S   0  0  0  0  0  0  0  0  0  0  0  0
  129.8990  125.4160   67.4880 O   0  0  0  0  0  0  0  0  0  0  0  0
  132.5220  124.3510   60.4550 C   0  0  1  0  0  0  0  0  0  0  0  0
  134.0540  124.0730   60.5650 C   0  0  0  0  0  0  0  0  0  0  0  0
  134.3650  123.0270   61.6460 C   0  0  0  0  0  0  0  0  0  0  0  0
  133.7300  121.7930   61.3180 O   0  0  0  0  0  0  0  0  0  0  0  0
  132.3750  121.8620   61.0510 C   0  0  0  0  0  0  0  0  0  0  0  0
  131.6820  120.6640   61.2230 C   0  0  0  0  0  0  0  0  0  0  0  0
  130.3170  120.6010   60.9580 C   0  0  0  0  0  0  0  0  0  0  0  0
  129.6460  121.7380   60.5200 C   0  0  0  0  0  0  0  0  0  0  0  0
  130.3410  122.9340   60.3440 C   0  0  0  0  0  0  0  0  0  0  0  0
  131.7250  123.0280   60.5860 C   0  0  0  0  0  0  0  0  0  0  0  0
  132.2660  125.0410   59.1130 C   0  0  0  0  0  0  0  0  0  0  0  0
  132.7300  124.7070   58.0190 O   0  0  0  0  0  0  0  0  0  0  0  0
  132.0862  131.1885   62.9108 H   0  0  0  0  0  0  0  0  0  0  0  0
  133.2533  130.4568   61.7579 H   0  0  0  0  0  0  0  0  0  0  0  0
  132.9845  132.2328   61.7579 H   0  0  0  0  0  0  0  0  0  0  0  0
  130.5669  131.7756   61.1178 H   0  0  0  0  0  0  0  0  0  0  0  0
  131.8048  131.2956   59.8738 H   0  0  0  0  0  0  0  0  0  0  0  0
  131.5907  128.9637   61.2244 H   0  0  0  0  0  0  0  0  0  0  0  0
  129.9119  129.6423   61.4573 H   0  0  0  0  0  0  0  0  0  0  0  0
  128.5535  130.1193   59.7201 H   0  0  0  0  0  0  0  0  0  0  0  0
  128.9075  129.4064   58.0748 H   0  0  0  0  0  0  0  0  0  0  0  0
  124.7381  125.0478   58.4956 H   0  0  0  0  0  0  0  0  0  0  0  0
  124.6755  122.7616   57.2347 H   0  0  0  0  0  0  0  0  0  0  0  0
  127.0580  121.7732   56.8270 H   0  0  0  0  0  0  0  0  0  0  0  0
  129.8911  126.9355   58.2356 H   0  0  0  0  0  0  0  0  0  0  0  0
  131.5053  126.7945   57.4116 H   0  0  0  0  0  0  0  0  0  0  0  0
  133.2748  125.5598   62.9977 H   0  0  0  0  0  0  0  0  0  0  0  0
  131.6504  126.3638   63.1445 H   0  0  0  0  0  0  0  0  0  0  0  0
  128.6096  125.3135   63.4714 H   0  0  0  0  0  0  0  0  0  0  0  0
  129.5917  124.6020   62.1040 H   0  0  0  0  0  0  0  0  0  0  0  0
  128.9142  122.3264   62.9000 H   0  0  0  0  0  0  0  0  0  0  0  0
  127.7757  123.1502   64.0546 H   0  0  0  0  0  0  0  0  0  0  0  0
  126.2302  123.3906   62.4549 H   0  0  0  0  0  0  0  0  0  0  0  0
  127.4135  124.1913   61.3662 H   0  0  0  0  0  0  0  0  0  0  0  0
  127.2612  122.4014   61.3662 H   0  0  0  0  0  0  0  0  0  0  0  0
  129.1575  123.3993   65.4719 H   0  0  0  0  0  0  0  0  0  0  0  0
  130.9040  123.6083   65.9104 H   0  0  0  0  0  0  0  0  0  0  0  0
  131.5743  127.9633   69.3392 H   0  0  0  0  0  0  0  0  0  0  0  0
  131.0527  128.5654   71.8274 H   0  0  0  0  0  0  0  0  0  0  0  0
  128.6359  127.8820   72.5393 H   0  0  0  0  0  0  0  0  0  0  0  0
  134.4198  123.7036   59.5956 H   0  0  0  0  0  0  0  0  0  0  0  0
  134.5541  125.0125   60.8428 H   0  0  0  0  0  0  0  0  0  0  0  0
  135.4527  122.8742   61.7046 H   0  0  0  0  0  0  0  0  0  0  0  0
  133.9891  123.3833   62.6164 H   0  0  0  0  0  0  0  0  0  0  0  0
  132.2156  119.7665   61.5690 H   0  0  0  0  0  0  0  0  0  0  0  0
  129.7711  119.6558   61.0944 H   0  0  0  0  0  0  0  0  0  0  0  0
  128.5667  121.6937   60.3124 H   0  0  0  0  0  0  0  0  0  0  0  0
  129.7940  123.8271   60.0074 H   0  0  0  0  0  0  0  0  0  0  0  0
  1  2  1  0
  2  3  1  0
  3  4  1  0
  4  5  1  0
  5  6  1  0
  6  7  2  0
  7  8  1  0
  8  9  2  0
  9 10  1  0
 10 11  2  0
 11 12  1  0
 12 13  2  0
 13 14  1  0
  9 15  1  0
  4 16  1  0
 16 17  2  0
 16 18  1  0
 18 19  1  0
 19 20  1  0
 20 21  2  0
 20 22  1  0
 22 23  1  0
 23 24  1  0
 24 25  2  0
 24 26  1  0
 26 27  1  0
 27 28  1  0
 28 29  1  0
 26 30  1  0
 30 31  1  0
 31 32  2  0
 32 33  1  0
 33 34  2  0
 34 35  1  0
 35 36  2  0
 36 37  1  0
 37 38  2  0
 38 39  1  0
 34 40  1  0
 41 22  1  1
 41 42  1  0
 42 43  1  0
 43 44  1  0
 44 45  1  0
 45 46  2  0
 46 47  1  0
 47 48  2  0
 48 49  1  0
 49 50  2  0
 41 51  1  0
 51 52  2  0
 15  6  1  0
 51 19  1  0
 14 10  1  0
 40 31  1  0
 50 41  1  0
 39 35  1  0
 50 45  1  0
  1 53  1  0
  1 54  1  0
  1 55  1  0
  2 56  1  0
  2 57  1  0
  3 58  1  0
  3 59  1  0
  5 60  1  0
  5 61  1  0
 11 62  1  0
 12 63  1  0
 13 64  1  0
 18 65  1  0
 18 66  1  0
 23 67  1  0
 23 68  1  0
 27 69  1  0
 27 70  1  0
 28 71  1  0
 28 72  1  0
 29 73  1  0
 29 74  1  0
 29 75  1  0
 30 76  1  0
 30 77  1  0
 36 78  1  0
 37 79  1  0
 38 80  1  0
 42 81  1  0
 42 82  1  0
 43 83  1  0
 43 84  1  0
 46 85  1  0
 47 86  1  0
 48 87  1  0
 49 88  1  0
M  END
>  <Binding energies>  (1) 
[-8.6]

>  <Ligand effiencies>  (1) 
[-0.16538461538461538]

>  <Interactions>  (1) 
["V-A:ILE:369:CG2:3237, V-A:ASP:366:CA:3210, V-B:PRO:540:CA:9855, V-B:GLU:543:C:9874, V-B:HIS:456:CD2:9039, V-A:GLU:543:C:4902, V-B:GLU:543:CB:9878, V-B:ALA:541:CB:9864, H-A:TYR:531:OH:4795, V-B:TYR:539:CE2:9848, V-A:TYR:484:CE2:4346, V-B:GLU:543:CG:9879, V-A:GLY:544:C:4912, V-B:TYR:539:C:9839, V-A:ASP:366:CG:3213, V-B:TYR:539:CZ:9849, H-B:TYR:539:OH:9850, V-A:TYR:484:CZ:4347, V-B:PRO:540:CB:9857, V-B:HIS:456:CE1:9041, V-B:PRO:540:N:9856, V-A:ILE:369:CD1:3239, V-A:HIS:456:CE1:4070, V-B:TYR:539:CD2:9846, V-B:PRO:540:CD:9859, V-B:GLU:543:CD:9880, V-A:ASP:366:CB:3212, V-A:LEU:475:CD2:4259, V-A:ARG:545:CZ:4926, V-A:GLU:543:CB:4906, V-A:PRO:540:CB:4885, H-A:TYR:484:OH:4348"]

$$$$
ZINC150469741
     RDKit          3D

 90 97  0  0  0  0  0  0  0  0999 V2000
  130.9430  132.2320   62.1430 O   0  0  0  0  0  0  0  0  0  0  0  0
  129.7920  131.8460   61.9440 C   0  0  0  0  0  0  0  0  0  0  0  0
  128.8350  131.6820   63.1360 C   0  0  0  0  0  0  0  0  0  0  0  0
  127.4200  131.1720   62.7740 C   0  0  0  0  0  0  0  0  0  0  0  0
  127.4010  129.7630   62.1380 C   0  0  0  0  0  0  0  0  0  0  0  0
  128.1530  128.7530   62.9180 N   0  0  0  0  0  0  0  0  0  0  0  0
  129.0120  127.9090   62.2860 C   0  0  0  0  0  0  0  0  0  0  0  0
  129.1980  127.9540   61.0700 O   0  0  0  0  0  0  0  0  0  0  0  0
  129.6340  126.9910   63.2420 C   0  0  0  0  0  0  0  0  0  0  0  0
  130.5500  125.9960   63.0110 C   0  0  0  0  0  0  0  0  0  0  0  0
  131.1970  124.9580   64.2940 S   0  0  0  0  0  0  0  0  0  0  0  0
  132.1990  124.0580   63.2040 C   0  0  0  0  0  0  0  0  0  0  0  0
  133.1520  122.8150   63.7820 S   0  0  0  0  0  0  0  0  0  0  0  0
  132.0280  124.5550   61.9440 N   0  0  0  0  0  0  0  0  0  0  0  0
  132.7730  123.9860   60.7970 C   0  0  0  0  0  0  0  0  0  0  0  0
  132.4470  122.5010   60.5170 C   0  0  0  0  0  0  0  0  0  0  0  0
  131.2460  121.9660   61.3250 C   0  0  0  0  0  0  0  0  0  0  0  0
  129.8980  122.2370   60.6410 C   0  0  0  0  0  0  0  0  0  0  0  0
  128.9960  121.4040   60.7260 O   0  0  0  0  0  0  0  0  0  0  0  0
  129.7820  123.4110   59.9900 N   0  0  0  0  0  0  0  0  0  0  0  0
  128.5940  123.9560   59.3150 C   0  0  2  0  0  0  0  0  0  0  0  0
  127.9350  122.9390   58.3280 C   0  0  0  0  0  0  0  0  0  0  0  0
  126.7140  123.5390   57.5840 C   0  0  1  0  0  0  0  0  0  0  0  0
  125.6770  124.0020   58.6430 C   0  0  0  0  0  0  0  0  0  0  0  0
  126.2670  125.0550   59.6170 C   0  0  2  0  0  0  0  0  0  0  0  0
  126.7570  126.2670   58.7830 C   0  0  0  0  0  0  0  0  0  0  0  0
  127.8190  125.8560   57.7310 C   0  0  2  0  0  0  0  0  0  0  0  0
  127.1910  124.7880   56.7980 C   0  0  0  0  0  0  0  0  0  0  0  0
  129.0120  125.2030   58.4780 C   0  0  0  0  0  0  0  0  0  0  0  0
  127.4980  124.4270   60.3230 C   0  0  0  0  0  0  0  0  0  0  0  0
  131.1630  125.5860   61.7470 C   0  0  0  0  0  0  0  0  0  0  0  0
  130.9610  126.0680   60.6320 O   0  0  0  0  0  0  0  0  0  0  0  0
  128.9950  127.3640   64.8520 S   0  0  0  0  0  0  0  0  0  0  0  0
  127.9850  128.6460   64.2690 C   0  0  0  0  0  0  0  0  0  0  0  0
  127.0260  129.4990   65.3360 S   0  0  0  0  0  0  0  0  0  0  0  0
  129.3010  131.5440   60.7260 N   0  0  0  0  0  0  0  0  0  0  0  0
  129.9790  131.6390   59.4240 C   0  0  2  0  0  0  0  0  0  0  0  0
  131.5360  131.6270   59.5490 C   0  0  0  0  0  0  0  0  0  0  0  0
  132.2440  131.6780   58.1690 C   0  0  1  0  0  0  0  0  0  0  0  0
  131.7830  130.4480   57.3450 C   0  0  0  0  0  0  0  0  0  0  0  0
  130.2450  130.4240   57.1500 C   0  0  2  0  0  0  0  0  0  0  0  0
  129.8250  131.7320   56.4310 C   0  0  0  0  0  0  0  0  0  0  0  0
  130.2390  132.9930   57.2330 C   0  0  2  0  0  0  0  0  0  0  0  0
  131.7780  132.9600   57.4290 C   0  0  0  0  0  0  0  0  0  0  0  0
  129.5680  132.9190   58.6300 C   0  0  0  0  0  0  0  0  0  0  0  0
  129.5810  130.4090   58.5530 C   0  0  0  0  0  0  0  0  0  0  0  0
  129.2858  130.9665   63.8394 H   0  0  0  0  0  0  0  0  0  0  0  0
  128.6996  132.6872   63.5616 H   0  0  0  0  0  0  0  0  0  0  0  0
  126.8170  131.1442   63.6936 H   0  0  0  0  0  0  0  0  0  0  0  0
  127.0155  131.8653   62.0218 H   0  0  0  0  0  0  0  0  0  0  0  0
  126.3552  129.4319   62.0562 H   0  0  0  0  0  0  0  0  0  0  0  0
  127.8906  129.8443   61.1563 H   0  0  0  0  0  0  0  0  0  0  0  0
  132.5262  124.5707   59.8986 H   0  0  0  0  0  0  0  0  0  0  0  0
  133.8419  124.0371   61.0517 H   0  0  0  0  0  0  0  0  0  0  0  0
  132.2216  122.3910   59.4460 H   0  0  0  0  0  0  0  0  0  0  0  0
  133.3266  121.9157   60.8233 H   0  0  0  0  0  0  0  0  0  0  0  0
  131.3636  120.8796   61.4511 H   0  0  0  0  0  0  0  0  0  0  0  0
  131.2376  122.4914   62.2914 H   0  0  0  0  0  0  0  0  0  0  0  0
  130.5940  124.0100   59.9720 H   0  0  0  0  0  0  0  0  0  0  0  0
  128.6854  122.6325   57.5844 H   0  0  0  0  0  0  0  0  0  0  0  0
  127.5782  122.0829   58.9194 H   0  0  0  0  0  0  0  0  0  0  0  0
  126.2710  122.7959   56.9047 H   0  0  0  0  0  0  0  0  0  0  0  0
  124.8134  124.4436   58.1242 H   0  0  0  0  0  0  0  0  0  0  0  0
  125.3812  123.1227   59.2340 H   0  0  0  0  0  0  0  0  0  0  0  0
  125.5120  125.3678   60.3533 H   0  0  0  0  0  0  0  0  0  0  0  0
  125.8957  126.7120   58.2632 H   0  0  0  0  0  0  0  0  0  0  0  0
  127.2218  126.9880   59.4716 H   0  0  0  0  0  0  0  0  0  0  0  0
  128.1516  126.7305   57.1526 H   0  0  0  0  0  0  0  0  0  0  0  0
  126.3285  125.2322   56.2795 H   0  0  0  0  0  0  0  0  0  0  0  0
  127.9621  124.4656   56.0828 H   0  0  0  0  0  0  0  0  0  0  0  0
  129.7629  124.8925   57.7365 H   0  0  0  0  0  0  0  0  0  0  0  0
  129.4129  125.9511   59.1777 H   0  0  0  0  0  0  0  0  0  0  0  0
  127.9381  125.1769   60.9967 H   0  0  0  0  0  0  0  0  0  0  0  0
  127.1496  123.5409   60.8738 H   0  0  0  0  0  0  0  0  0  0  0  0
  128.3440  131.2260   60.6810 H   0  0  0  0  0  0  0  0  0  0  0  0
  131.8492  132.5013   60.1386 H   0  0  0  0  0  0  0  0  0  0  0  0
  131.8246  130.6848   60.0378 H   0  0  0  0  0  0  0  0  0  0  0  0
  133.3371  131.6780   58.2924 H   0  0  0  0  0  0  0  0  0  0  0  0
  132.2659  130.4808   56.3572 H   0  0  0  0  0  0  0  0  0  0  0  0
  132.0700  129.5413   57.8978 H   0  0  0  0  0  0  0  0  0  0  0  0
  129.9412  129.5442   56.5638 H   0  0  0  0  0  0  0  0  0  0  0  0
  130.3074  131.7650   55.4430 H   0  0  0  0  0  0  0  0  0  0  0  0
  128.7289  131.7324   56.3382 H   0  0  0  0  0  0  0  0  0  0  0  0
  129.9356  133.9086   56.7042 H   0  0  0  0  0  0  0  0  0  0  0  0
  132.2623  132.9959   56.4420 H   0  0  0  0  0  0  0  0  0  0  0  0
  132.0603  133.8277   58.0433 H   0  0  0  0  0  0  0  0  0  0  0  0
  129.8644  133.8048   59.2110 H   0  0  0  0  0  0  0  0  0  0  0  0
  128.4794  132.8816   58.4762 H   0  0  0  0  0  0  0  0  0  0  0  0
  128.4885  130.4083   58.4246 H   0  0  0  0  0  0  0  0  0  0  0  0
  129.9316  129.5066   59.0752 H   0  0  0  0  0  0  0  0  0  0  0  0
  1  2  2  0
  2  3  1  0
  3  4  1  0
  4  5  1  0
  5  6  1  0
  6  7  1  0
  7  8  2  0
  7  9  1  0
  9 10  2  0
 10 11  1  0
 11 12  1  0
 12 13  2  0
 12 14  1  0
 14 15  1  0
 15 16  1  0
 16 17  1  0
 17 18  1  0
 18 19  2  0
 18 20  1  0
 21 20  1  1
 21 22  1  0
 22 23  1  0
 23 24  1  0
 24 25  1  0
 25 26  1  0
 26 27  1  0
 27 28  1  0
 27 29  1  0
 25 30  1  0
 14 31  1  0
 31 32  2  0
  9 33  1  0
 33 34  1  0
 34 35  2  0
  2 36  1  0
 37 36  1  1
 37 38  1  0
 38 39  1  0
 39 40  1  0
 40 41  1  0
 41 42  1  0
 42 43  1  0
 43 44  1  0
 43 45  1  0
 41 46  1  0
 34  6  1  0
 45 37  1  0
 31 10  1  0
 46 37  1  0
 29 21  1  0
 44 39  1  0
 30 21  1  0
 28 23  1  0
  3 47  1  0
  3 48  1  0
  4 49  1  0
  4 50  1  0
  5 51  1  0
  5 52  1  0
 15 53  1  0
 15 54  1  0
 16 55  1  0
 16 56  1  0
 17 57  1  0
 17 58  1  0
 20 59  1  0
 22 60  1  0
 22 61  1  0
 23 62  1  6
 24 63  1  0
 24 64  1  0
 25 65  1  1
 26 66  1  0
 26 67  1  0
 27 68  1  6
 28 69  1  0
 28 70  1  0
 29 71  1  0
 29 72  1  0
 30 73  1  0
 30 74  1  0
 36 75  1  0
 38 76  1  0
 38 77  1  0
 39 78  1  1
 40 79  1  0
 40 80  1  0
 41 81  1  6
 42 82  1  0
 42 83  1  0
 43 84  1  6
 44 85  1  0
 44 86  1  0
 45 87  1  0
 45 88  1  0
 46 89  1  0
 46 90  1  0
M  END
>  <Binding energies>  (1) 
[-10.83]

>  <Ligand effiencies>  (1) 
[-0.225625]

>  <Interactions>  (1) 
["V-A:ILE:369:CG2:3237, V-B:PRO:540:CA:9855, V-A:PRO:540:CG:4886, V-A:GLY:454:CA:4049, H-A:ALA:541:N:4891, V-B:TYR:539:CE2:9848, V-B:TYR:539:C:9839, V-A:LEU:363:CD1:3189, V-B:TYR:539:CZ:9849, V-A:TYR:531:CE2:4793, H-B:ALA:541:N:9863, V-A:GLU:543:CD:4908, V-B:PRO:540:CB:9857, V-B:PRO:540:N:9856, V-B:TYR:539:CD2:9846, V-A:GLU:543:CG:4907, V-A:TYR:531:CZ:4794, V-B:GLU:543:CD:9880, V-A:MET:535:CE:4835, V-A:TYR:539:C:4867, V-A:LEU:475:CD2:4259, V-A:PRO:540:N:4884, V-A:PRO:540:CB:4885, V-A:PRO:540:CA:4883, V-A:PRO:540:CD:4887"]

$$$$
ZINC150528848
     RDKit          3D

 90 96  0  0  0  0  0  0  0  0999 V2000
  130.9920  131.8340   62.8730 O   0  0  0  0  0  0  0  0  0  0  0  0
  131.7280  131.6940   61.7240 C   0  0  0  0  0  0  0  0  0  0  0  0
  133.1010  131.9460   61.7790 C   0  0  0  0  0  0  0  0  0  0  0  0
  133.8870  131.8040   60.6370 C   0  0  0  0  0  0  0  0  0  0  0  0
  133.3040  131.4060   59.4370 C   0  0  0  0  0  0  0  0  0  0  0  0
  131.9330  131.1560   59.3760 C   0  0  0  0  0  0  0  0  0  0  0  0
  131.1240  131.3080   60.5150 C   0  0  0  0  0  0  0  0  0  0  0  0
  129.6190  131.0120   60.4720 C   0  0  0  0  0  0  0  0  0  0  0  0
  129.2370  129.8100   59.7210 N   0  0  0  0  0  0  0  0  0  0  0  0
  128.7430  130.0950   58.3770 C   0  0  0  0  0  0  0  0  0  0  0  0
  127.6270  129.0750   58.1440 C   0  0  0  0  0  0  0  0  0  0  0  0
  127.6990  128.1720   59.2820 N   0  0  0  0  0  0  0  0  0  0  0  0
  126.4300  127.4980   59.5680 C   0  0  0  0  0  0  0  0  0  0  0  0
  126.4140  126.0580   59.0640 C   0  0  0  0  0  0  0  0  0  0  0  0
  126.0170  125.8000   57.7470 C   0  0  0  0  0  0  0  0  0  0  0  0
  125.9800  124.4920   57.2630 C   0  0  0  0  0  0  0  0  0  0  0  0
  126.3320  123.4300   58.0960 C   0  0  0  0  0  0  0  0  0  0  0  0
  126.7160  123.6760   59.4140 C   0  0  0  0  0  0  0  0  0  0  0  0
  126.7560  124.9830   59.9030 C   0  0  0  0  0  0  0  0  0  0  0  0
  127.1260  125.1890   61.2080 O   0  0  0  0  0  0  0  0  0  0  0  0
  128.1620  129.0480   60.3530 C   0  0  0  0  0  0  0  0  0  0  0  0
  128.6460  128.2730   61.5820 C   0  0  0  0  0  0  0  0  0  0  0  0
  128.0160  128.4710   62.8130 C   0  0  0  0  0  0  0  0  0  0  0  0
  128.4440  127.7710   63.9370 C   0  0  0  0  0  0  0  0  0  0  0  0
  129.5120  126.8680   63.8430 C   0  0  0  0  0  0  0  0  0  0  0  0
  130.0010  126.0620   65.0580 C   0  0  0  0  0  0  0  0  0  0  0  0
  129.1470  126.1060   66.2470 N   0  0  0  0  0  0  0  0  0  0  0  0
  129.1110  127.4230   66.8900 C   0  0  0  0  0  0  0  0  0  0  0  0
  129.0210  127.3280   68.4120 C   0  0  0  0  0  0  0  0  0  0  0  0
  127.7750  127.0830   69.0020 C   0  0  0  0  0  0  0  0  0  0  0  0
  127.6550  126.9970   70.3900 C   0  0  0  0  0  0  0  0  0  0  0  0
  128.7800  127.1570   71.1970 C   0  0  0  0  0  0  0  0  0  0  0  0
  130.0240  127.4040   70.6190 C   0  0  0  0  0  0  0  0  0  0  0  0
  130.1500  127.4920   69.2310 C   0  0  0  0  0  0  0  0  0  0  0  0
  131.3890  127.7430   68.6980 O   0  0  0  0  0  0  0  0  0  0  0  0
  129.7310  125.0720   67.0940 C   0  0  0  0  0  0  0  0  0  0  0  0
  130.4710  124.1350   66.1320 C   0  0  0  0  0  0  0  0  0  0  0  0
  130.2240  124.6370   64.7810 N   0  0  0  0  0  0  0  0  0  0  0  0
  129.0880  123.9240   64.1630 C   0  0  0  0  0  0  0  0  0  0  0  0
  129.4400  123.0190   62.9710 C   0  0  0  0  0  0  0  0  0  0  0  0
  130.7710  122.6890   62.6610 C   0  0  0  0  0  0  0  0  0  0  0  0
  131.0670  121.8830   61.5630 C   0  0  0  0  0  0  0  0  0  0  0  0
  130.0410  121.4040   60.7510 C   0  0  0  0  0  0  0  0  0  0  0  0
  128.7180  121.7350   61.0370 C   0  0  0  0  0  0  0  0  0  0  0  0
  128.4150  122.5410   62.1370 C   0  0  0  0  0  0  0  0  0  0  0  0
  127.1010  122.8510   62.3780 O   0  0  0  0  0  0  0  0  0  0  0  0
  130.1370  126.6690   62.6090 C   0  0  0  0  0  0  0  0  0  0  0  0
  129.7100  127.3690   61.4860 C   0  0  0  0  0  0  0  0  0  0  0  0
  130.7700  130.9960   63.2810 H   0  0  0  0  0  0  0  0  0  0  0  0
  133.5634  132.2577   62.7272 H   0  0  0  0  0  0  0  0  0  0  0  0
  134.9672  132.0062   60.6837 H   0  0  0  0  0  0  0  0  0  0  0  0
  133.9248  131.2886   58.5365 H   0  0  0  0  0  0  0  0  0  0  0  0
  131.4801  130.8364   58.4259 H   0  0  0  0  0  0  0  0  0  0  0  0
  129.2666  130.8922   61.5071 H   0  0  0  0  0  0  0  0  0  0  0  0
  129.1574  131.8597   59.9444 H   0  0  0  0  0  0  0  0  0  0  0  0
  128.3487  131.1203   58.3188 H   0  0  0  0  0  0  0  0  0  0  0  0
  129.5370  130.0208   57.6193 H   0  0  0  0  0  0  0  0  0  0  0  0
  126.6477  129.5747   58.1083 H   0  0  0  0  0  0  0  0  0  0  0  0
  127.7449  128.5447   57.1875 H   0  0  0  0  0  0  0  0  0  0  0  0
  126.2687  127.4940   60.6561 H   0  0  0  0  0  0  0  0  0  0  0  0
  125.6320  128.0466   59.0462 H   0  0  0  0  0  0  0  0  0  0  0  0
  125.7322  126.6342   57.0890 H   0  0  0  0  0  0  0  0  0  0  0  0
  125.6733  124.2982   56.2246 H   0  0  0  0  0  0  0  0  0  0  0  0
  126.3067  122.3989   57.7136 H   0  0  0  0  0  0  0  0  0  0  0  0
  126.9885  122.8368   60.0709 H   0  0  0  0  0  0  0  0  0  0  0  0
  126.4710  124.8800   61.8360 H   0  0  0  0  0  0  0  0  0  0  0  0
  127.3598  129.6871   60.7506 H   0  0  0  0  0  0  0  0  0  0  0  0
  127.1801  129.1815   62.8940 H   0  0  0  0  0  0  0  0  0  0  0  0
  127.9421  127.9270   64.9033 H   0  0  0  0  0  0  0  0  0  0  0  0
  130.9449  126.5862   65.2682 H   0  0  0  0  0  0  0  0  0  0  0  0
  130.0272  127.9706   66.6242 H   0  0  0  0  0  0  0  0  0  0  0  0
  128.2106  127.9447   66.5336 H   0  0  0  0  0  0  0  0  0  0  0  0
  126.8851  126.9575   68.3677 H   0  0  0  0  0  0  0  0  0  0  0  0
  126.6732  126.8031   70.8466 H   0  0  0  0  0  0  0  0  0  0  0  0
  128.6861  127.0883   72.2908 H   0  0  0  0  0  0  0  0  0  0  0  0
  130.9100  127.5301   71.2586 H   0  0  0  0  0  0  0  0  0  0  0  0
  131.3800  127.7950   67.7390 H   0  0  0  0  0  0  0  0  0  0  0  0
  130.4322  125.5155   67.8163 H   0  0  0  0  0  0  0  0  0  0  0  0
  128.9668  124.5400   67.6796 H   0  0  0  0  0  0  0  0  0  0  0  0
  131.5495  124.1446   66.3484 H   0  0  0  0  0  0  0  0  0  0  0  0
  130.1172  123.0990   66.2393 H   0  0  0  0  0  0  0  0  0  0  0  0
  128.6204  123.2975   64.9369 H   0  0  0  0  0  0  0  0  0  0  0  0
  128.4252  124.7050   63.7620 H   0  0  0  0  0  0  0  0  0  0  0  0
  131.5874  123.0709   63.2916 H   0  0  0  0  0  0  0  0  0  0  0  0
  132.1121  121.6247   61.3372 H   0  0  0  0  0  0  0  0  0  0  0  0
  130.2749  120.7659   59.8860 H   0  0  0  0  0  0  0  0  0  0  0  0
  127.9085  121.3599   60.3936 H   0  0  0  0  0  0  0  0  0  0  0  0
  126.9910  123.7120   62.7900 H   0  0  0  0  0  0  0  0  0  0  0  0
  130.9702  125.9557   62.5257 H   0  0  0  0  0  0  0  0  0  0  0  0
  130.2102  127.2117   60.5190 H   0  0  0  0  0  0  0  0  0  0  0  0
  1  2  1  0
  2  3  2  0
  3  4  1  0
  4  5  2  0
  5  6  1  0
  6  7  2  0
  7  8  1  0
  8  9  1  0
  9 10  1  0
 10 11  1  0
 11 12  1  0
 12 13  1  0
 13 14  1  0
 14 15  2  0
 15 16  1  0
 16 17  2  0
 17 18  1  0
 18 19  2  0
 19 20  1  0
 12 21  1  0
 21 22  1  0
 22 23  2  0
 23 24  1  0
 24 25  2  0
 25 26  1  0
 26 27  1  0
 27 28  1  0
 28 29  1  0
 29 30  2  0
 30 31  1  0
 31 32  2  0
 32 33  1  0
 33 34  2  0
 34 35  1  0
 27 36  1  0
 36 37  1  0
 37 38  1  0
 38 39  1  0
 39 40  1  0
 40 41  2  0
 41 42  1  0
 42 43  2  0
 43 44  1  0
 44 45  2  0
 45 46  1  0
 25 47  1  0
 47 48  2  0
  7  2  1  0
 21  9  1  0
 48 22  1  0
 19 14  1  0
 38 26  1  0
 45 40  1  0
 34 29  1  0
  1 49  1  0
  3 50  1  0
  4 51  1  0
  5 52  1  0
  6 53  1  0
  8 54  1  0
  8 55  1  0
 10 56  1  0
 10 57  1  0
 11 58  1  0
 11 59  1  0
 13 60  1  0
 13 61  1  0
 15 62  1  0
 16 63  1  0
 17 64  1  0
 18 65  1  0
 20 66  1  0
 21 67  1  0
 23 68  1  0
 24 69  1  0
 26 70  1  0
 28 71  1  0
 28 72  1  0
 30 73  1  0
 31 74  1  0
 32 75  1  0
 33 76  1  0
 35 77  1  0
 36 78  1  0
 36 79  1  0
 37 80  1  0
 37 81  1  0
 39 82  1  0
 39 83  1  0
 41 84  1  0
 42 85  1  0
 43 86  1  0
 44 87  1  0
 46 88  1  0
 47 89  1  0
 48 90  1  0
M  END
>  <Binding energies>  (1) 
[-11.19]

>  <Ligand effiencies>  (1) 
[-0.21519230769230768]

>  <Interactions>  (1) 
["V-B:PRO:540:CA:9855, V-B:GLU:543:C:9874, H-A:GLU:543:OE2:4910, H-A:ALA:541:N:4891, V-B:GLU:543:CB:9878, V-B:ASP:366:CG:8184, V-B:ALA:541:CB:9864, V-B:TYR:539:CE2:9848, V-A:TYR:484:CE2:4346, V-B:GLU:543:CG:9879, V-B:TYR:539:C:9839, V-A:ASP:366:CG:3213, V-A:ASN:362:CB:3176, V-A:LEU:363:CB:3187, V-A:LEU:363:CD1:3189, H-B:GLU:543:OE1:9881, V-B:TYR:531:CZ:9766, H-B:ALA:541:N:9863, V-B:TYR:531:CE2:9765, V-A:GLU:543:CD:4908, V-B:PRO:540:CB:9857, V-A:TYR:484:CZ:4347, H-B:ASP:366:OD1:8185, V-B:GLU:543:CA:9876, V-B:HIS:456:CE1:9041, V-B:PRO:540:N:9856, V-A:HIS:456:CE1:4070, V-B:GLY:544:C:9884, V-B:TYR:539:CD2:9846, V-A:GLU:543:CG:4907, V-B:GLU:543:CD:9880, V-A:LEU:475:CD2:4259, V-A:ASN:362:C:3172, H-A:GLU:543:OE1:4909, V-A:GLU:543:CB:4906, V-A:PRO:540:CB:4885, V-A:PRO:540:CA:4883, V-A:LEU:363:CA:3185, V-B:PRO:540:C:9853"]

$$$$
ZINC150534012
     RDKit          3D

 87 93  0  0  0  0  0  0  0  0999 V2000
  125.8060  129.3710   62.2810 C   0  0  0  0  0  0  0  0  0  0  0  0
  126.4860  128.9660   61.1900 C   0  0  0  0  0  0  0  0  0  0  0  0
  126.1840  129.5630   59.8220 C   0  0  0  0  0  0  0  0  0  0  0  0
  127.5810  127.8880   61.2410 C   0  0  2  0  0  0  0  0  0  0  0  0
  127.1060  126.5280   60.6700 C   0  0  0  0  0  0  0  0  0  0  0  0
  128.2010  125.4140   60.6620 C   0  0  1  0  0  0  0  0  0  0  0  0
  128.7310  125.2620   59.2110 C   0  0  0  0  0  0  0  0  0  0  0  0
  129.3490  125.7080   61.7250 C   0  0  1  0  0  0  0  0  0  0  0  0
  130.2820  126.6810   61.1900 O   0  0  0  0  0  0  0  0  0  0  0  0
  129.8310  128.0250   61.1340 C   0  0  2  0  0  0  0  0  0  0  0  0
  130.9690  128.8670   60.5660 C   0  0  0  0  0  0  0  0  0  0  0  0
  130.5170  130.1970   59.9750 C   0  0  0  0  0  0  0  0  0  0  0  0
  129.8860  131.1440   60.7870 C   0  0  0  0  0  0  0  0  0  0  0  0
  129.4940  132.3670   60.2510 C   0  0  0  0  0  0  0  0  0  0  0  0
  129.7320  132.6390   58.9050 C   0  0  0  0  0  0  0  0  0  0  0  0
  130.3600  131.6990   58.0900 C   0  0  0  0  0  0  0  0  0  0  0  0
  130.7530  130.4750   58.6270 C   0  0  0  0  0  0  0  0  0  0  0  0
  129.4730  128.4760   62.3900 O   0  0  0  0  0  0  0  0  0  0  0  0
  128.2710  127.7750   62.6380 C   0  0  2  0  0  0  0  0  0  0  0  0
  128.6830  126.3300   63.0150 C   0  0  2  0  0  0  0  0  0  0  0  0
  129.5230  126.3190   64.3000 C   0  0  0  0  0  0  0  0  0  0  0  0
  130.0220  125.2590   64.9890 C   0  0  0  0  0  0  0  0  0  0  0  0
  130.7660  125.4930   66.3110 C   0  0  0  0  0  0  0  0  0  0  0  0
  129.9500  125.8490   67.4310 O   0  0  0  0  0  0  0  0  0  0  0  0
  130.2070  126.9550   68.1680 C   0  0  0  0  0  0  0  0  0  0  0  0
  131.3280  127.3670   68.4750 O   0  0  0  0  0  0  0  0  0  0  0  0
  128.9080  127.6510   68.6090 C   0  0  0  0  0  0  0  0  0  0  0  0
  128.7980  127.7740   70.1260 C   0  0  0  0  0  0  0  0  0  0  0  0
  127.9470  126.9270   70.8350 C   0  0  0  0  0  0  0  0  0  0  0  0
  127.8410  127.0380   72.2210 C   0  0  0  0  0  0  0  0  0  0  0  0
  127.0110  126.2000   72.8870 F   0  0  0  0  0  0  0  0  0  0  0  0
  128.5840  128.0050   72.9080 C   0  0  0  0  0  0  0  0  0  0  0  0
  128.4670  128.1000   74.2980 N   0  0  0  0  0  0  0  0  0  0  0  0
  129.4430  128.8710   72.2080 C   0  0  0  0  0  0  0  0  0  0  0  0
  130.1570  129.8070   72.9390 O   0  0  0  0  0  0  0  0  0  0  0  0
  129.5300  131.0280   73.3180 C   0  0  0  0  0  0  0  0  0  0  0  0
  129.5350  128.7440   70.8110 C   0  0  0  0  0  0  0  0  0  0  0  0
  129.9740  123.7830   64.5600 C   0  0  0  0  0  0  0  0  0  0  0  0
  129.5610  123.4450   63.0990 C   0  0  2  0  0  0  0  0  0  0  0  0
  128.1440  123.3490   63.1320 O   0  0  0  0  0  0  0  0  0  0  0  0
  130.0170  122.0660   62.6060 C   0  0  0  0  0  0  0  0  0  0  0  0
  129.8690  120.9750   63.1630 O   0  0  0  0  0  0  0  0  0  0  0  0
  130.6590  122.2520   61.3050 C   0  0  0  0  0  0  0  0  0  0  0  0
  131.1520  121.0320   60.5470 C   0  0  0  0  0  0  0  0  0  0  0  0
  130.7580  123.5590   61.0140 C   0  0  0  0  0  0  0  0  0  0  0  0
  130.1890  124.4380   62.0980 C   0  0  1  0  0  0  0  0  0  0  0  0
  128.6780  128.2150   60.3930 O   0  0  0  0  0  0  0  0  0  0  0  0
  126.0325  128.9329   63.2643 H   0  0  0  0  0  0  0  0  0  0  0  0
  125.0246  130.1396   62.1881 H   0  0  0  0  0  0  0  0  0  0  0  0
  125.6907  130.5381   59.9483 H   0  0  0  0  0  0  0  0  0  0  0  0
  127.1230  129.6965   59.2648 H   0  0  0  0  0  0  0  0  0  0  0  0
  125.5201  128.8857   59.2648 H   0  0  0  0  0  0  0  0  0  0  0  0
  126.2608  126.1753   61.2793 H   0  0  0  0  0  0  0  0  0  0  0  0
  126.8322  126.7068   59.6197 H   0  0  0  0  0  0  0  0  0  0  0  0
  127.7668  124.4535   60.9765 H   0  0  0  0  0  0  0  0  0  0  0  0
  129.7881  124.9588   59.2366 H   0  0  0  0  0  0  0  0  0  0  0  0
  128.1427  124.4964   58.6841 H   0  0  0  0  0  0  0  0  0  0  0  0
  128.6379  126.2231   58.6841 H   0  0  0  0  0  0  0  0  0  0  0  0
  131.6849  129.0730   61.3754 H   0  0  0  0  0  0  0  0  0  0  0  0
  131.4158  128.2877   59.7445 H   0  0  0  0  0  0  0  0  0  0  0  0
  129.6996  130.9227   61.8483 H   0  0  0  0  0  0  0  0  0  0  0  0
  128.9986  133.1156   60.8868 H   0  0  0  0  0  0  0  0  0  0  0  0
  129.4210  133.6055   58.4816 H   0  0  0  0  0  0  0  0  0  0  0  0
  130.5443  131.9222   57.0288 H   0  0  0  0  0  0  0  0  0  0  0  0
  131.2488  129.7281   57.9896 H   0  0  0  0  0  0  0  0  0  0  0  0
  127.6127  128.1306   63.4443 H   0  0  0  0  0  0  0  0  0  0  0  0
  127.8326  125.6866   63.2849 H   0  0  0  0  0  0  0  0  0  0  0  0
  129.7534  127.3081   64.7225 H   0  0  0  0  0  0  0  0  0  0  0  0
  131.3020  124.5666   66.5650 H   0  0  0  0  0  0  0  0  0  0  0  0
  131.4237  126.3569   66.1344 H   0  0  0  0  0  0  0  0  0  0  0  0
  128.8814  128.6594   68.1703 H   0  0  0  0  0  0  0  0  0  0  0  0
  128.0645  127.0367   68.2610 H   0  0  0  0  0  0  0  0  0  0  0  0
  127.3573  126.1687   70.2992 H   0  0  0  0  0  0  0  0  0  0  0  0
  127.7490  127.5690   74.7710 H   0  0  0  0  0  0  0  0  0  0  0  0
  129.0950  128.7030   74.8110 H   0  0  0  0  0  0  0  0  0  0  0  0
  129.4946  131.0969   74.4153 H   0  0  0  0  0  0  0  0  0  0  0  0
  130.1045  131.8755   72.9158 H   0  0  0  0  0  0  0  0  0  0  0  0
  128.5065  131.0549   72.9158 H   0  0  0  0  0  0  0  0  0  0  0  0
  130.1972  129.4184   70.2484 H   0  0  0  0  0  0  0  0  0  0  0  0
  130.9801  123.3669   64.7170 H   0  0  0  0  0  0  0  0  0  0  0  0
  129.1686  123.3518   65.1728 H   0  0  0  0  0  0  0  0  0  0  0  0
  127.7900  124.1850   63.4410 H   0  0  0  0  0  0  0  0  0  0  0  0
  131.4650  120.2575   61.2626 H   0  0  0  0  0  0  0  0  0  0  0  0
  130.3413  120.6409   59.9146 H   0  0  0  0  0  0  0  0  0  0  0  0
  132.0068  121.3139   59.9146 H   0  0  0  0  0  0  0  0  0  0  0  0
  131.2052  123.9457   60.0864 H   0  0  0  0  0  0  0  0  0  0  0  0
  130.9996  125.0354   62.5407 H   0  0  0  0  0  0  0  0  0  0  0  0
  1  2  2  0
  2  3  1  0
  4  2  1  1
  4  5  1  0
  5  6  1  0
  6  7  1  0
  6  8  1  0
  8  9  1  6
  9 10  1  0
 10 11  1  6
 11 12  1  0
 12 13  2  0
 13 14  1  0
 14 15  2  0
 15 16  1  0
 16 17  2  0
 10 18  1  0
 18 19  1  0
 19 20  1  0
 20 21  1  0
 21 22  2  0
 22 23  1  0
 23 24  1  0
 24 25  1  0
 25 26  2  0
 25 27  1  0
 27 28  1  0
 28 29  2  0
 29 30  1  0
 30 31  1  0
 30 32  2  0
 32 33  1  0
 32 34  1  0
 34 35  1  0
 35 36  1  0
 34 37  2  0
 22 38  1  0
 38 39  1  0
 39 40  1  1
 39 41  1  0
 41 42  2  0
 41 43  1  0
 43 44  1  0
 43 45  2  0
 45 46  1  0
 10 47  1  0
 19  4  1  0
 37 28  1  0
 46 39  1  0
 47  4  1  0
 20  8  1  0
 46  8  1  0
 17 12  1  0
  1 48  1  0
  1 49  1  0
  3 50  1  0
  3 51  1  0
  3 52  1  0
  5 53  1  0
  5 54  1  0
  6 55  1  1
  7 56  1  0
  7 57  1  0
  7 58  1  0
 11 59  1  0
 11 60  1  0
 13 61  1  0
 14 62  1  0
 15 63  1  0
 16 64  1  0
 17 65  1  0
 19 66  1  1
 20 67  1  1
 21 68  1  0
 23 69  1  0
 23 70  1  0
 27 71  1  0
 27 72  1  0
 29 73  1  0
 33 74  1  0
 33 75  1  0
 36 76  1  0
 36 77  1  0
 36 78  1  0
 37 79  1  0
 38 80  1  0
 38 81  1  0
 40 82  1  0
 44 83  1  0
 44 84  1  0
 44 85  1  0
 45 86  1  0
 46 87  1  1
M  END
>  <Binding energies>  (1) 
[-6.61]

>  <Ligand effiencies>  (1) 
[-0.12711538461538463]

>  <Interactions>  (1) 
["V-B:GLU:543:C:9874, V-B:HIS:456:CD2:9039, V-A:GLU:543:C:4902, V-B:ASP:366:CG:8184, V-B:ALA:541:CB:9864, V-B:TYR:539:CE2:9848, V-B:GLU:543:CG:9879, V-A:ASP:366:CG:3213, H-B:GLU:543:OE1:9881, V-B:LYS:547:CE:9922, V-A:GLU:543:CD:4908, V-B:HIS:456:CE1:9041, V-A:HIS:456:CE1:4070, V-B:GLY:544:C:9884, V-B:TYR:539:CD2:9846, V-B:GLY:544:CA:9886, V-B:GLU:543:CD:9880, V-A:TYR:539:C:4867, H-A:LYS:547:NZ:4951, V-A:LEU:475:CD2:4259, V-A:GLU:543:CB:4906, V-A:PRO:540:N:4884, H-B:GLU:543:OE2:9882, V-A:PRO:540:CA:4883, V-A:LYS:547:CE:4950"]

$$$$
ZINC150602022
     RDKit          3D

112119  0  0  0  0  0  0  0  0999 V2000
  133.3280  124.2570   63.7590 C   0  0  0  0  0  0  0  0  0  0  0  0
  132.5820  123.4310   64.6400 O   0  0  0  0  0  0  0  0  0  0  0  0
  131.4840  122.7750   64.2010 C   0  0  0  0  0  0  0  0  0  0  0  0
  131.3260  122.3350   63.0590 O   0  0  0  0  0  0  0  0  0  0  0  0
  130.4230  122.5740   65.3190 C   0  0  0  0  0  0  0  0  0  0  0  0
  129.1680  121.7450   64.9020 C   0  0  0  0  0  0  0  0  0  0  0  0
  128.4220  122.2960   63.7540 C   0  0  0  0  0  0  0  0  0  0  0  0
  127.8700  122.8630   62.8250 C   0  0  0  0  0  0  0  0  0  0  0  0
  127.3150  123.6520   61.7390 C   0  0  0  0  0  0  0  0  0  0  0  0
  126.4190  123.0890   60.8240 C   0  0  0  0  0  0  0  0  0  0  0  0
  125.9190  123.8610   59.7720 C   0  0  0  0  0  0  0  0  0  0  0  0
  126.3280  125.1890   59.6540 C   0  0  0  0  0  0  0  0  0  0  0  0
  127.2000  125.7670   60.5570 C   0  0  0  0  0  0  0  0  0  0  0  0
  127.6980  124.9890   61.6070 C   0  0  0  0  0  0  0  0  0  0  0  0
  127.4580  127.2160   60.1520 C   0  0  2  0  0  0  0  0  0  0  0  0
  126.6060  127.2970   58.8490 C   0  0  0  0  0  0  0  0  0  0  0  0
  126.4970  128.2700   58.1030 O   0  0  0  0  0  0  0  0  0  0  0  0
  125.9960  126.1110   58.6830 N   0  0  0  0  0  0  0  0  0  0  0  0
  128.9390  127.6380   59.8150 C   0  0  2  0  0  0  0  0  0  0  0  0
  130.0200  126.5910   60.1340 C   0  0  0  0  0  0  0  0  0  0  0  0
  131.0810  126.9510   60.9700 C   0  0  0  0  0  0  0  0  0  0  0  0
  132.1150  126.0530   61.2180 C   0  0  0  0  0  0  0  0  0  0  0  0
  132.1090  124.7840   60.6380 C   0  0  0  0  0  0  0  0  0  0  0  0
  133.1910  123.9710   60.9160 O   0  0  0  0  0  0  0  0  0  0  0  0
  133.6330  123.0370   59.9330 C   0  0  0  0  0  0  0  0  0  0  0  0
  133.6540  121.6330   60.5490 C   0  0  0  0  0  0  0  0  0  0  0  0
  133.7300  121.7090   61.9580 O   0  0  0  0  0  0  0  0  0  0  0  0
  131.0320  124.4130   59.8190 C   0  0  0  0  0  0  0  0  0  0  0  0
  129.9990  125.3100   59.5670 C   0  0  0  0  0  0  0  0  0  0  0  0
  129.2230  128.9260   60.4680 N   0  0  0  0  0  0  0  0  0  0  0  0
  130.2080  129.8200   59.8600 C   0  0  2  0  0  0  0  0  0  0  0  0
  131.0080  130.6800   60.8480 C   0  0  0  0  0  0  0  0  0  0  0  0
  132.3270  131.0680   60.5800 C   0  0  0  0  0  0  0  0  0  0  0  0
  133.0270  131.8490   61.4950 C   0  0  0  0  0  0  0  0  0  0  0  0
  132.4110  132.2480   62.6770 C   0  0  0  0  0  0  0  0  0  0  0  0
  131.0980  131.8740   62.9530 C   0  0  0  0  0  0  0  0  0  0  0  0
  130.3990  131.0910   62.0390 C   0  0  0  0  0  0  0  0  0  0  0  0
  129.5200  130.5710   58.6850 C   0  0  2  0  0  0  0  0  0  0  0  0
  130.4580  131.4970   57.9110 C   0  0  0  0  0  0  0  0  0  0  0  0
  130.1560  132.8590   57.8230 C   0  0  0  0  0  0  0  0  0  0  0  0
  130.9920  133.7140   57.1120 C   0  0  0  0  0  0  0  0  0  0  0  0
  132.1290  133.2070   56.4880 C   0  0  0  0  0  0  0  0  0  0  0  0
  132.4380  131.8510   56.5690 C   0  0  0  0  0  0  0  0  0  0  0  0
  131.6020  130.9950   57.2800 C   0  0  0  0  0  0  0  0  0  0  0  0
  128.2770  131.2070   59.0040 O   0  0  0  0  0  0  0  0  0  0  0  0
  127.4220  130.6670   59.9250 C   0  0  0  0  0  0  0  0  0  0  0  0
  126.2870  131.1400   59.9390 O   0  0  0  0  0  0  0  0  0  0  0  0
  127.9510  129.5410   60.8610 C   0  0  1  0  0  0  0  0  0  0  0  0
  126.9740  128.3640   61.1150 C   0  0  2  0  0  0  0  0  0  0  0  0
  126.9940  127.9680   62.6180 C   0  0  0  0  0  0  0  0  0  0  0  0
  125.9440  127.8900   63.2620 O   0  0  0  0  0  0  0  0  0  0  0  0
  128.2010  127.7400   63.1680 N   0  0  0  0  0  0  0  0  0  0  0  0
  128.4280  127.3990   64.5750 C   0  0  0  0  0  0  0  0  0  0  0  0
  128.1000  128.5430   65.5670 C   0  0  2  0  0  0  0  0  0  0  0  0
  128.4880  129.7890   65.0100 O   0  0  0  0  0  0  0  0  0  0  0  0
  128.6920  128.2760   66.9530 C   0  0  0  0  0  0  0  0  0  0  0  0
  129.4530  127.1190   67.1500 C   0  0  0  0  0  0  0  0  0  0  0  0
  130.0060  126.8460   68.3980 C   0  0  0  0  0  0  0  0  0  0  0  0
  129.8070  127.7370   69.4500 C   0  0  0  0  0  0  0  0  0  0  0  0
  129.0600  128.8980   69.2630 C   0  0  0  0  0  0  0  0  0  0  0  0
  128.5040  129.1690   68.0150 C   0  0  0  0  0  0  0  0  0  0  0  0
  129.9750  123.9240   65.9250 C   0  0  0  0  0  0  0  0  0  0  0  0
  129.4010  124.0160   67.0160 O   0  0  0  0  0  0  0  0  0  0  0  0
  130.2820  124.9620   65.1150 O   0  0  0  0  0  0  0  0  0  0  0  0
  129.7940  125.0110   63.7830 C   0  0  0  0  0  0  0  0  0  0  0  0
  133.9521  124.9480   64.3446 H   0  0  0  0  0  0  0  0  0  0  0  0
  133.9715  123.6295   63.1248 H   0  0  0  0  0  0  0  0  0  0  0  0
  132.6384  124.8335   63.1248 H   0  0  0  0  0  0  0  0  0  0  0  0
  130.9472  121.9732   66.0768 H   0  0  0  0  0  0  0  0  0  0  0  0
  129.4991  120.7291   64.6405 H   0  0  0  0  0  0  0  0  0  0  0  0
  128.4804  121.7668   65.7603 H   0  0  0  0  0  0  0  0  0  0  0  0
  126.1083  122.0394   60.9326 H   0  0  0  0  0  0  0  0  0  0  0  0
  125.2134  123.4277   59.0478 H   0  0  0  0  0  0  0  0  0  0  0  0
  128.3953  125.4323   62.3331 H   0  0  0  0  0  0  0  0  0  0  0  0
  125.3820  125.9110   57.9080 H   0  0  0  0  0  0  0  0  0  0  0  0
  128.9945  127.7306   58.7203 H   0  0  0  0  0  0  0  0  0  0  0  0
  131.0987  127.9483   61.4338 H   0  0  0  0  0  0  0  0  0  0  0  0
  132.9449  126.3465   61.8776 H   0  0  0  0  0  0  0  0  0  0  0  0
  132.9453  123.0524   59.0746 H   0  0  0  0  0  0  0  0  0  0  0  0
  134.6433  123.3075   59.5924 H   0  0  0  0  0  0  0  0  0  0  0  0
  132.7348  121.0998   60.2648 H   0  0  0  0  0  0  0  0  0  0  0  0
  134.5374  121.0948   60.1748 H   0  0  0  0  0  0  0  0  0  0  0  0
  133.4050  122.5670   62.2380 H   0  0  0  0  0  0  0  0  0  0  0  0
  131.0043  123.4075   59.3738 H   0  0  0  0  0  0  0  0  0  0  0  0
  129.1614  125.0120   58.9192 H   0  0  0  0  0  0  0  0  0  0  0  0
  131.0305  129.2225   59.4399 H   0  0  0  0  0  0  0  0  0  0  0  0
  132.8111  130.7544   59.6434 H   0  0  0  0  0  0  0  0  0  0  0  0
  134.0639  132.1498   61.2843 H   0  0  0  0  0  0  0  0  0  0  0  0
  132.9658  132.8642   63.3999 H   0  0  0  0  0  0  0  0  0  0  0  0
  130.6162  132.1957   63.8881 H   0  0  0  0  0  0  0  0  0  0  0  0
  129.3620  130.7936   62.2540 H   0  0  0  0  0  0  0  0  0  0  0  0
  129.2480  129.7519   58.0030 H   0  0  0  0  0  0  0  0  0  0  0  0
  129.2563  133.2552   58.3165 H   0  0  0  0  0  0  0  0  0  0  0  0
  130.7558  134.7861   57.0430 H   0  0  0  0  0  0  0  0  0  0  0  0
  132.7894  133.8836   55.9258 H   0  0  0  0  0  0  0  0  0  0  0  0
  133.3383  131.4587   56.0734 H   0  0  0  0  0  0  0  0  0  0  0  0
  131.8406  129.9232   57.3460 H   0  0  0  0  0  0  0  0  0  0  0  0
  128.0843  130.1330   61.7785 H   0  0  0  0  0  0  0  0  0  0  0  0
  125.9235  128.6124   60.9033 H   0  0  0  0  0  0  0  0  0  0  0  0
  129.0240  127.8240   62.5880 H   0  0  0  0  0  0  0  0  0  0  0  0
  127.7975  126.5333   64.8261 H   0  0  0  0  0  0  0  0  0  0  0  0
  129.5026  127.1885   64.6797 H   0  0  0  0  0  0  0  0  0  0  0  0
  127.0124  128.5863   65.7258 H   0  0  0  0  0  0  0  0  0  0  0  0
  128.9380  129.6220   64.1790 H   0  0  0  0  0  0  0  0  0  0  0  0
  129.6152  126.4216   66.3149 H   0  0  0  0  0  0  0  0  0  0  0  0
  130.5971  125.9313   68.5526 H   0  0  0  0  0  0  0  0  0  0  0  0
  130.2433  127.5222   70.4367 H   0  0  0  0  0  0  0  0  0  0  0  0
  128.9098  129.5982   70.0980 H   0  0  0  0  0  0  0  0  0  0  0  0
  127.9161  130.0863   67.8634 H   0  0  0  0  0  0  0  0  0  0  0  0
  128.6996  125.1209   63.7973 H   0  0  0  0  0  0  0  0  0  0  0  0
  130.2418  125.8687   63.2597 H   0  0  0  0  0  0  0  0  0  0  0  0
  130.0624  124.0814   63.2597 H   0  0  0  0  0  0  0  0  0  0  0  0
  1  2  1  0
  2  3  1  0
  3  4  2  0
  3  5  1  0
  5  6  1  0
  6  7  1  0
  7  8  3  0
  8  9  1  0
  9 10  2  0
 10 11  1  0
 11 12  2  0
 12 13  1  0
 13 14  2  0
 13 15  1  0
 15 16  1  6
 16 17  2  0
 16 18  1  0
 15 19  1  0
 19 20  1  0
 20 21  2  0
 21 22  1  0
 22 23  2  0
 23 24  1  0
 24 25  1  0
 25 26  1  0
 26 27  1  0
 23 28  1  0
 28 29  2  0
 19 30  1  0
 30 31  1  0
 31 32  1  0
 32 33  2  0
 33 34  1  0
 34 35  2  0
 35 36  1  0
 36 37  2  0
 31 38  1  0
 38 39  1  0
 39 40  2  0
 40 41  1  0
 41 42  2  0
 42 43  1  0
 43 44  2  0
 38 45  1  0
 45 46  1  0
 46 47  2  0
 46 48  1  0
 48 49  1  0
 49 50  1  0
 50 51  2  0
 50 52  1  0
 52 53  1  0
 53 54  1  0
 54 55  1  0
 54 56  1  0
 56 57  2  0
 57 58  1  0
 58 59  2  0
 59 60  1  0
 60 61  2  0
  5 62  1  0
 62 63  2  0
 62 64  1  0
 64 65  1  0
 14  9  1  0
 49 15  1  0
 61 56  1  0
 18 12  1  0
 29 20  1  0
 48 30  1  0
 37 32  1  0
 44 39  1  0
  1 66  1  0
  1 67  1  0
  1 68  1  0
  5 69  1  0
  6 70  1  0
  6 71  1  0
 10 72  1  0
 11 73  1  0
 14 74  1  0
 18 75  1  0
 19 76  1  6
 21 77  1  0
 22 78  1  0
 25 79  1  0
 25 80  1  0
 26 81  1  0
 26 82  1  0
 27 83  1  0
 28 84  1  0
 29 85  1  0
 31 86  1  6
 33 87  1  0
 34 88  1  0
 35 89  1  0
 36 90  1  0
 37 91  1  0
 38 92  1  6
 40 93  1  0
 41 94  1  0
 42 95  1  0
 43 96  1  0
 44 97  1  0
 48 98  1  1
 49 99  1  6
 52100  1  0
 53101  1  0
 53102  1  0
 54103  1  1
 55104  1  0
 57105  1  0
 58106  1  0
 59107  1  0
 60108  1  0
 61109  1  0
 65110  1  0
 65111  1  0
 65112  1  0
M  END
>  <Binding energies>  (1) 
[-4.28]

>  <Ligand effiencies>  (1) 
[-0.06202898550724638]

>  <Interactions>  (1) 
["V-A:ILE:369:CG2:3237, V-B:PRO:540:CA:9855, V-A:GLU:543:CA:4904, V-A:GLY:454:CA:4049, V-A:ALA:541:C:4888, H-A:GLU:543:OE2:4910, V-A:ILE:369:CB:3236, V-A:GLU:543:C:4902, V-A:PRO:540:CG:4886, V-B:GLU:543:CB:9878, V-A:PRO:540:C:4881, V-A:ILE:538:CB:4862, V-B:ALA:541:CB:9864, V-B:ASP:366:CG:8184, V-B:TYR:539:CE2:9848, V-A:TYR:484:CE2:4346, V-B:GLU:543:CG:9879, V-A:ASP:366:CG:3213, V-A:ASN:362:CB:3176, V-A:ILE:538:CG2:4863, V-A:ILE:538:C:4858, V-A:LEU:363:CD1:3189, V-A:ILE:538:CA:4860, V-A:TYR:531:CE2:4793, V-A:ALA:541:CB:4892, V-A:TYR:539:CA:4869, V-A:LEU:475:CD1:4258, V-A:TYR:484:CZ:4347, V-B:PRO:540:CB:9857, V-A:GLU:543:CD:4908, H-B:TYR:484:OH:9319, H-B:ASP:366:OD1:8185, V-B:GLU:543:CA:9876, H-A:GLY:454:N:4050, V-B:HIS:456:CE1:9041, V-A:ILE:369:CD1:3239, V-A:HIS:456:CE1:4070, V-A:ALA:541:CA:4890, V-A:GLU:543:CG:4907, V-B:GLU:543:CD:9880, V-A:TYR:539:C:4867, H-B:TYR:531:OH:9767, V-A:LEU:475:CD2:4259, V-A:ARG:545:CZ:4926, H-A:GLU:543:OE1:4909, H-B:ARG:545:NH2:9900, V-A:GLU:543:CB:4906, V-A:PRO:540:N:4884, V-A:PRO:540:CB:4885, V-A:PRO:540:CA:4883, V-B:PRO:540:C:9853, V-B:ALA:541:CA:9862, V-A:PRO:540:CD:4887, H-A:TYR:484:OH:4348"]

$$$$
ZINC15061028
     RDKit          3D

 58 61  0  0  0  0  0  0  0  0999 V2000
  126.5170  126.0690   57.7470 C   0  0  0  0  0  0  0  0  0  0  0  0
  127.4110  125.5080   58.5820 C   0  0  0  0  0  0  0  0  0  0  0  0
  128.1270  126.2600   59.6220 C   0  0  0  0  0  0  0  0  0  0  0  0
  127.9820  127.4600   59.8620 O   0  0  0  0  0  0  0  0  0  0  0  0
  129.1130  125.2460   60.2680 C   0  0  1  0  0  0  0  0  0  0  0  0
  130.4130  125.9990   60.6400 C   0  0  0  0  0  0  0  0  0  0  0  0
  131.3760  125.1010   61.4130 C   0  0  0  0  0  0  0  0  0  0  0  0
  130.7200  124.6250   62.7360 C   0  0  2  0  0  0  0  0  0  0  0  0
  131.7610  124.1010   63.8170 C   0  0  1  0  0  0  0  0  0  0  0  0
  132.4750  122.7830   63.4140 C   0  0  0  0  0  0  0  0  0  0  0  0
  132.8380  125.1900   64.1090 C   0  0  0  0  0  0  0  0  0  0  0  0
  133.9330  124.7110   64.8880 O   0  0  0  0  0  0  0  0  0  0  0  0
  134.0920  125.1010   66.1660 C   0  0  0  0  0  0  0  0  0  0  0  0
  132.8560  125.8070   66.7100 C   0  0  0  0  0  0  0  0  0  0  0  0
  135.0950  124.9370   66.8610 O   0  0  0  0  0  0  0  0  0  0  0  0
  130.9730  123.8920   65.1410 C   0  0  0  0  0  0  0  0  0  0  0  0
  129.7560  122.9650   64.9880 C   0  0  0  0  0  0  0  0  0  0  0  0
  128.8020  123.4770   63.8870 C   0  0  0  0  0  0  0  0  0  0  0  0
  129.4470  123.7060   62.4700 C   0  0  2  0  0  0  0  0  0  0  0  0
  129.8180  122.3350   61.8280 C   0  0  0  0  0  0  0  0  0  0  0  0
  128.4380  124.5190   61.5170 C   0  0  2  0  0  0  0  0  0  0  0  0
  127.0790  123.8160   61.0830 C   0  0  2  0  0  0  0  0  0  0  0  0
  126.5270  122.8650   61.9630 O   0  0  0  0  0  0  0  0  0  0  0  0
  127.0750  123.2240   59.6420 C   0  0  0  0  0  0  0  0  0  0  0  0
  127.8790  124.0630   58.6200 C   0  0  2  0  0  0  0  0  0  0  0  0
  129.3080  124.2640   59.1010 C   0  0  0  0  0  0  0  0  0  0  0  0
  126.0123  125.4538   56.9876 H   0  0  0  0  0  0  0  0  0  0  0  0
  126.2910  127.1428   57.8239 H   0  0  0  0  0  0  0  0  0  0  0  0
  130.9050  126.3407   59.7174 H   0  0  0  0  0  0  0  0  0  0  0  0
  130.1469  126.8530   61.2803 H   0  0  0  0  0  0  0  0  0  0  0  0
  131.6295  124.2252   60.7975 H   0  0  0  0  0  0  0  0  0  0  0  0
  132.2869  125.6707   61.6488 H   0  0  0  0  0  0  0  0  0  0  0  0
  130.3083  125.5126   63.2386 H   0  0  0  0  0  0  0  0  0  0  0  0
  132.7719  122.2349   64.3203 H   0  0  0  0  0  0  0  0  0  0  0  0
  131.7898  122.1622   62.8180 H   0  0  0  0  0  0  0  0  0  0  0  0
  133.3692  123.0178   62.8180 H   0  0  0  0  0  0  0  0  0  0  0  0
  133.2285  125.5600   63.1495 H   0  0  0  0  0  0  0  0  0  0  0  0
  132.3474  125.9830   64.6925 H   0  0  0  0  0  0  0  0  0  0  0  0
  132.8801  125.7932   67.8097 H   0  0  0  0  0  0  0  0  0  0  0  0
  132.8433  126.8486   66.3565 H   0  0  0  0  0  0  0  0  0  0  0  0
  131.9524  125.2888   66.3565 H   0  0  0  0  0  0  0  0  0  0  0  0
  131.6534  123.4540   65.8861 H   0  0  0  0  0  0  0  0  0  0  0  0
  130.5938  124.8767   65.4519 H   0  0  0  0  0  0  0  0  0  0  0  0
  130.1041  121.9562   64.7211 H   0  0  0  0  0  0  0  0  0  0  0  0
  129.2095  122.9455   65.9424 H   0  0  0  0  0  0  0  0  0  0  0  0
  127.9924  122.7410   63.7737 H   0  0  0  0  0  0  0  0  0  0  0  0
  128.4639  124.4682   64.2236 H   0  0  0  0  0  0  0  0  0  0  0  0
  130.0169  121.6001   62.6220 H   0  0  0  0  0  0  0  0  0  0  0  0
  128.9825  121.9840   61.2045 H   0  0  0  0  0  0  0  0  0  0  0  0
  130.7164  122.4533   61.2045 H   0  0  0  0  0  0  0  0  0  0  0  0
  128.1316  125.2878   62.2416 H   0  0  0  0  0  0  0  0  0  0  0  0
  126.4194  124.6954   61.1221 H   0  0  0  0  0  0  0  0  0  0  0  0
  126.1930  123.3230   62.7380 H   0  0  0  0  0  0  0  0  0  0  0  0
  127.5100  122.2144   59.6806 H   0  0  0  0  0  0  0  0  0  0  0  0
  126.0294  123.2190   59.3005 H   0  0  0  0  0  0  0  0  0  0  0  0
  127.7672  123.5221   57.6687 H   0  0  0  0  0  0  0  0  0  0  0  0
  129.7518  123.3177   59.4439 H   0  0  0  0  0  0  0  0  0  0  0  0
  129.9927  124.6294   58.3215 H   0  0  0  0  0  0  0  0  0  0  0  0
  1  2  2  0
  2  3  1  0
  3  4  2  0
  3  5  1  0
  5  6  1  1
  6  7  1  0
  7  8  1  0
  8  9  1  0
  9 10  1  6
  9 11  1  0
 11 12  1  0
 12 13  1  0
 13 14  1  0
 13 15  2  0
  9 16  1  0
 16 17  1  0
 17 18  1  0
 18 19  1  0
 19 20  1  6
 19 21  1  0
 21 22  1  0
 22 23  1  0
 22 24  1  0
 24 25  1  0
 25 26  1  0
 25  2  1  0
 21  5  1  0
 26  5  1  0
 19  8  1  0
  1 27  1  0
  1 28  1  0
  6 29  1  0
  6 30  1  0
  7 31  1  0
  7 32  1  0
  8 33  1  1
 10 34  1  0
 10 35  1  0
 10 36  1  0
 11 37  1  0
 11 38  1  0
 14 39  1  0
 14 40  1  0
 14 41  1  0
 16 42  1  0
 16 43  1  0
 17 44  1  0
 17 45  1  0
 18 46  1  0
 18 47  1  0
 20 48  1  0
 20 49  1  0
 20 50  1  0
 21 51  1  1
 22 52  1  6
 23 53  1  0
 24 54  1  0
 24 55  1  0
 25 56  1  6
 26 57  1  0
 26 58  1  0
M  END
>  <Binding energies>  (1) 
[-7.69]

>  <Ligand effiencies>  (1) 
[-0.28481481481481485]

>  <Interactions>  (1) 
["V-B:PRO:540:CA:9855, V-A:GLY:454:CA:4049, V-B:ALA:541:CB:9864, V-B:TYR:539:CE2:9848, V-A:TYR:484:CE2:4346, H-B:ALA:541:O:9861, V-B:GLU:543:CG:9879, V-B:TYR:539:CZ:9849, H-B:GLU:543:OE1:9881, H-B:ALA:541:N:9863, V-A:TYR:484:CZ:4347, V-B:PRO:540:CB:9857, V-A:ARG:545:CG:4922, H-A:GLY:454:N:4050, V-B:PRO:540:N:9856, V-A:HIS:456:CE1:4070, V-B:GLU:543:CD:9880, V-A:ARG:545:CD:4923, V-A:LEU:475:CD2:4259, H-A:ILE:455:N:4055, H-A:ARG:545:NH2:4928, V-A:ARG:545:CZ:4926, H-A:ARG:545:NE:4924, H-A:TYR:484:OH:4348"]

$$$$
ZINC150640867
     RDKit          3D

 66 70  0  0  0  0  0  0  0  0999 V2000
  131.6240  124.6440   58.7310 O   0  0  0  0  0  0  0  0  0  0  0  0
  130.5450  125.2380   58.7990 C   0  0  0  0  0  0  0  0  0  0  0  0
  129.3230  124.5480   58.2570 C   0  0  0  0  0  0  0  0  0  0  0  0
  128.7220  123.5030   58.9710 C   0  0  0  0  0  0  0  0  0  0  0  0
  127.6010  122.8590   58.4550 C   0  0  0  0  0  0  0  0  0  0  0  0
  127.0890  123.2470   57.2190 C   0  0  0  0  0  0  0  0  0  0  0  0
  125.7000  122.4470   56.5780 Cl  0  0  0  0  0  0  0  0  0  0  0  0
  127.6920  124.2740   56.4930 C   0  0  0  0  0  0  0  0  0  0  0  0
  128.8110  124.9200   57.0090 C   0  0  0  0  0  0  0  0  0  0  0  0
  130.3980  126.4800   59.4990 N   0  0  0  0  0  0  0  0  0  0  0  0
  130.2870  126.4590   60.9010 C   0  0  0  0  0  0  0  0  0  0  0  0
  131.4270  126.6310   61.6880 C   0  0  0  0  0  0  0  0  0  0  0  0
  131.3250  126.6010   63.0750 C   0  0  0  0  0  0  0  0  0  0  0  0
  130.0820  126.4010   63.6810 C   0  0  0  0  0  0  0  0  0  0  0  0
  129.9930  126.3700   65.0860 N   0  0  0  0  0  0  0  0  0  0  0  0
  129.0480  127.2070   65.7660 C   0  0  0  0  0  0  0  0  0  0  0  0
  128.2680  127.9410   65.1590 O   0  0  0  0  0  0  0  0  0  0  0  0
  129.0170  127.2010   67.2770 C   0  0  0  0  0  0  0  0  0  0  0  0
  127.8000  127.0170   67.9440 C   0  0  0  0  0  0  0  0  0  0  0  0
  127.7560  127.0250   69.3350 C   0  0  0  0  0  0  0  0  0  0  0  0
  128.9310  127.2070   70.0640 C   0  0  0  0  0  0  0  0  0  0  0  0
  128.8750  127.2250   71.7880 Cl  0  0  0  0  0  0  0  0  0  0  0  0
  130.1500  127.3740   69.4100 C   0  0  0  0  0  0  0  0  0  0  0  0
  130.1950  127.3650   68.0190 C   0  0  0  0  0  0  0  0  0  0  0  0
  130.6540  124.9000   65.8720 S   0  0  0  0  0  0  0  0  0  0  0  0
  131.8150  125.3130   66.6730 O   0  0  0  0  0  0  0  0  0  0  0  0
  129.5310  124.1810   66.4860 O   0  0  0  0  0  0  0  0  0  0  0  0
  131.2710  123.9000   64.5200 C   0  0  0  0  0  0  0  0  0  0  0  0
  130.3870  123.1610   63.7290 C   0  0  0  0  0  0  0  0  0  0  0  0
  130.8730  122.4250   62.6520 C   0  0  0  0  0  0  0  0  0  0  0  0
  132.2360  122.4390   62.3630 C   0  0  0  0  0  0  0  0  0  0  0  0
  132.9020  121.4360   60.8890 Br  0  0  0  0  0  0  0  0  0  0  0  0
  133.1180  123.1870   63.1420 C   0  0  0  0  0  0  0  0  0  0  0  0
  132.6350  123.9230   64.2200 C   0  0  0  0  0  0  0  0  0  0  0  0
  128.9420  126.2130   62.8890 C   0  0  0  0  0  0  0  0  0  0  0  0
  129.0430  126.2470   61.5040 C   0  0  0  0  0  0  0  0  0  0  0  0
  130.3650  128.1100   58.7350 S   0  0  0  0  0  0  0  0  0  0  0  0
  131.7210  128.4640   58.3000 O   0  0  0  0  0  0  0  0  0  0  0  0
  129.2470  128.1010   57.7830 O   0  0  0  0  0  0  0  0  0  0  0  0
  129.9440  129.2380   60.0630 C   0  0  0  0  0  0  0  0  0  0  0  0
  128.6570  129.2300   60.6100 C   0  0  0  0  0  0  0  0  0  0  0  0
  128.3500  130.0850   61.6650 C   0  0  0  0  0  0  0  0  0  0  0  0
  129.3310  130.9320   62.1780 C   0  0  0  0  0  0  0  0  0  0  0  0
  128.9080  132.1100   63.6120 Br  0  0  0  0  0  0  0  0  0  0  0  0
  130.6210  130.9250   61.6490 C   0  0  0  0  0  0  0  0  0  0  0  0
  130.9300  130.0730   60.5930 C   0  0  0  0  0  0  0  0  0  0  0  0
  129.1367  123.1910   59.9409 H   0  0  0  0  0  0  0  0  0  0  0  0
  127.1213  122.0469   59.0210 H   0  0  0  0  0  0  0  0  0  0  0  0
  127.2843  124.5722   55.5158 H   0  0  0  0  0  0  0  0  0  0  0  0
  129.2940  125.7245   56.4350 H   0  0  0  0  0  0  0  0  0  0  0  0
  132.4056  126.7902   61.2116 H   0  0  0  0  0  0  0  0  0  0  0  0
  132.2236  126.7348   63.6952 H   0  0  0  0  0  0  0  0  0  0  0  0
  126.8758  126.8657   67.3670 H   0  0  0  0  0  0  0  0  0  0  0  0
  126.7978  126.8883   69.8577 H   0  0  0  0  0  0  0  0  0  0  0  0
  131.0736  127.5125   69.9911 H   0  0  0  0  0  0  0  0  0  0  0  0
  131.1574  127.4869   67.5005 H   0  0  0  0  0  0  0  0  0  0  0  0
  129.3108  123.1609   63.9567 H   0  0  0  0  0  0  0  0  0  0  0  0
  130.1833  121.8343   62.0312 H   0  0  0  0  0  0  0  0  0  0  0  0
  134.1922  123.1954   62.9053 H   0  0  0  0  0  0  0  0  0  0  0  0
  133.3251  124.5207   64.8336 H   0  0  0  0  0  0  0  0  0  0  0  0
  127.9656  126.0382   63.3644 H   0  0  0  0  0  0  0  0  0  0  0  0
  128.1461  126.1074   60.8826 H   0  0  0  0  0  0  0  0  0  0  0  0
  127.8904  128.5510   60.2084 H   0  0  0  0  0  0  0  0  0  0  0  0
  127.3364  130.0921   62.0924 H   0  0  0  0  0  0  0  0  0  0  0  0
  131.3917  131.5906   62.0649 H   0  0  0  0  0  0  0  0  0  0  0  0
  131.9481  130.0573   60.1769 H   0  0  0  0  0  0  0  0  0  0  0  0
  1  2  2  0
  2  3  1  0
  3  4  2  0
  4  5  1  0
  5  6  2  0
  6  7  1  0
  6  8  1  0
  8  9  2  0
  2 10  1  0
 10 11  1  0
 11 12  2  0
 12 13  1  0
 13 14  2  0
 14 15  1  0
 15 16  1  0
 16 17  2  0
 16 18  1  0
 18 19  2  0
 19 20  1  0
 20 21  2  0
 21 22  1  0
 21 23  1  0
 23 24  2  0
 15 25  1  0
 25 26  2  0
 25 27  2  0
 25 28  1  0
 28 29  2  0
 29 30  1  0
 30 31  2  0
 31 32  1  0
 31 33  1  0
 33 34  2  0
 14 35  1  0
 35 36  2  0
 10 37  1  0
 37 38  2  0
 37 39  2  0
 37 40  1  0
 40 41  2  0
 41 42  1  0
 42 43  2  0
 43 44  1  0
 43 45  1  0
 45 46  2  0
  9  3  1  0
 36 11  1  0
 46 40  1  0
 24 18  1  0
 34 28  1  0
  4 47  1  0
  5 48  1  0
  8 49  1  0
  9 50  1  0
 12 51  1  0
 13 52  1  0
 19 53  1  0
 20 54  1  0
 23 55  1  0
 24 56  1  0
 29 57  1  0
 30 58  1  0
 33 59  1  0
 34 60  1  0
 35 61  1  0
 36 62  1  0
 41 63  1  0
 42 64  1  0
 45 65  1  0
 46 66  1  0
M  END
>  <Binding energies>  (1) 
[-10.06]

>  <Ligand effiencies>  (1) 
[-0.21869565217391304]

>  <Interactions>  (1) 
["V-A:ILE:369:CG2:3237, V-B:PRO:540:CA:9855, V-A:GLY:454:CA:4049, V-B:GLU:543:C:9874, V-B:GLU:543:CB:9878, H-A:TYR:531:OH:4795, V-B:TYR:539:CE2:9848, V-A:TYR:484:CE2:4346, V-B:GLU:543:CG:9879, V-B:TYR:539:C:9839, V-A:ASP:366:CG:3213, V-B:TYR:539:CZ:9849, V-B:ILE:538:CG2:9835, H-B:TYR:539:OH:9850, V-A:ALA:541:CB:4892, V-A:GLU:543:CD:4908, V-B:PRO:540:CB:9857, V-A:TYR:484:CZ:4347, V-B:HIS:456:CE1:9041, V-B:PRO:540:N:9856, V-A:HIS:456:CE1:4070, V-B:TYR:539:CD2:9846, V-B:PRO:540:CD:9859, V-A:GLU:543:CG:4907, V-B:GLU:543:CD:9880, V-A:LEU:475:CD2:4259, V-A:ARG:545:CZ:4926, V-A:GLU:543:CB:4906, V-B:LEU:363:CD1:8160, V-B:MET:535:CE:9807, H-A:TYR:484:OH:4348"]

$$$$
ZINC150653483
     RDKit          3D

 75 78  0  0  0  0  0  0  0  0999 V2000
  134.0580  125.0960   65.8850 C   0  0  0  0  0  0  0  0  0  0  0  0
  132.9120  125.1090   64.8680 C   0  0  0  0  0  0  0  0  0  0  0  0
  133.2020  124.1920   63.8200 O   0  0  0  0  0  0  0  0  0  0  0  0
  133.8730  124.5870   62.7130 C   0  0  0  0  0  0  0  0  0  0  0  0
  135.1000  124.5320   62.5870 O   0  0  0  0  0  0  0  0  0  0  0  0
  132.9470  124.9430   61.5950 C   0  0  0  0  0  0  0  0  0  0  0  0
  132.3540  126.2140   61.6510 C   0  0  0  0  0  0  0  0  0  0  0  0
  131.4610  126.5620   60.6310 C   0  0  0  0  0  0  0  0  0  0  0  0
  131.1550  125.6660   59.5940 C   0  0  0  0  0  0  0  0  0  0  0  0
  131.7210  124.3900   59.5480 C   0  0  0  0  0  0  0  0  0  0  0  0
  132.6070  124.0360   60.5680 C   0  0  0  0  0  0  0  0  0  0  0  0
  133.2380  122.4210   60.5100 Cl  0  0  0  0  0  0  0  0  0  0  0  0
  130.2550  126.3040   58.7400 N   0  0  0  0  0  0  0  0  0  0  0  0
  129.7330  125.7430   57.4920 C   0  0  0  0  0  0  0  0  0  0  0  0
  129.0720  124.3790   57.7410 C   0  0  0  0  0  0  0  0  0  0  0  0
  129.9890  127.5570   59.2570 C   0  0  0  0  0  0  0  0  0  0  0  0
  129.0760  128.5400   58.6870 C   0  0  0  0  0  0  0  0  0  0  0  0
  127.8420  128.8580   59.1210 C   0  0  0  0  0  0  0  0  0  0  0  0
  127.2210  128.2730   60.2920 C   0  0  0  0  0  0  0  0  0  0  0  0
  127.8340  127.4500   61.3270 C   0  0  0  0  0  0  0  0  0  0  0  0
  128.2800  127.9360   62.5390 N   0  0  0  0  0  0  0  0  0  0  0  0
  128.2220  129.3280   62.9900 C   0  0  0  0  0  0  0  0  0  0  0  0
  127.2320  129.4810   64.1540 C   0  0  0  0  0  0  0  0  0  0  0  0
  128.7440  126.8630   63.2970 C   0  0  0  0  0  0  0  0  0  0  0  0
  129.2540  126.8050   64.5990 C   0  0  0  0  0  0  0  0  0  0  0  0
  129.6250  125.5500   65.0860 C   0  0  0  0  0  0  0  0  0  0  0  0
  130.3180  125.4530   66.8600 Br  0  0  0  0  0  0  0  0  0  0  0  0
  129.4930  124.3960   64.3040 C   0  0  0  0  0  0  0  0  0  0  0  0
  130.0050  122.6910   64.9890 Br  0  0  0  0  0  0  0  0  0  0  0  0
  128.9870  124.4500   63.0040 C   0  0  0  0  0  0  0  0  0  0  0  0
  128.6170  125.7070   62.5080 C   0  0  0  0  0  0  0  0  0  0  0  0
  128.1020  126.0930   61.2700 N   0  0  0  0  0  0  0  0  0  0  0  0
  127.7330  125.1680   60.1980 C   0  0  0  0  0  0  0  0  0  0  0  0
  126.2990  124.6530   60.3950 C   0  0  0  0  0  0  0  0  0  0  0  0
  130.7330  127.7300   60.4060 N   0  0  0  0  0  0  0  0  0  0  0  0
  130.7210  128.9060   61.2830 C   0  0  0  0  0  0  0  0  0  0  0  0
  131.0990  130.1930   60.5160 C   0  0  0  0  0  0  0  0  0  0  0  0
  131.3900  131.4050   61.4220 C   0  0  0  0  0  0  0  0  0  0  0  0
  133.2480  131.6250   61.6890 S   0  0  0  0  0  0  0  0  0  0  0  0
  133.5950  130.5560   62.6300 O   0  0  0  0  0  0  0  0  0  0  0  0
  133.8180  131.4710   60.3460 O   0  0  0  0  0  0  0  0  0  0  0  0
  133.3510  132.9800   62.2440 O   0  0  0  0  0  0  0  0  0  0  0  0
  133.6439  125.1007   66.9041 H   0  0  0  0  0  0  0  0  0  0  0  0
  134.6662  124.1909   65.7405 H   0  0  0  0  0  0  0  0  0  0  0  0
  134.6866  125.9871   65.7405 H   0  0  0  0  0  0  0  0  0  0  0  0
  131.9762  124.8143   65.3654 H   0  0  0  0  0  0  0  0  0  0  0  0
  132.8010  126.1210   64.4514 H   0  0  0  0  0  0  0  0  0  0  0  0
  132.5834  126.9129   62.4689 H   0  0  0  0  0  0  0  0  0  0  0  0
  131.4775  123.6883   58.7367 H   0  0  0  0  0  0  0  0  0  0  0  0
  128.9875  126.4333   57.0704 H   0  0  0  0  0  0  0  0  0  0  0  0
  130.5689  125.6066   56.7902 H   0  0  0  0  0  0  0  0  0  0  0  0
  128.9875  124.2047   58.8238 H   0  0  0  0  0  0  0  0  0  0  0  0
  128.0693  124.3694   57.2888 H   0  0  0  0  0  0  0  0  0  0  0  0
  129.6858  123.5861   57.2888 H   0  0  0  0  0  0  0  0  0  0  0  0
  129.4364  129.0839   57.8014 H   0  0  0  0  0  0  0  0  0  0  0  0
  127.2710  129.6068   58.5525 H   0  0  0  0  0  0  0  0  0  0  0  0
  126.1471  128.4765   60.4161 H   0  0  0  0  0  0  0  0  0  0  0  0
  129.2223  129.6415   63.3233 H   0  0  0  0  0  0  0  0  0  0  0  0
  127.8838  129.9569   62.1533 H   0  0  0  0  0  0  0  0  0  0  0  0
  127.7725  129.3975   65.1084 H   0  0  0  0  0  0  0  0  0  0  0  0
  126.7444  130.4652   64.0937 H   0  0  0  0  0  0  0  0  0  0  0  0
  126.4700  128.6900   64.0937 H   0  0  0  0  0  0  0  0  0  0  0  0
  129.3584  127.7112   65.2137 H   0  0  0  0  0  0  0  0  0  0  0  0
  128.8829  123.5412   62.3930 H   0  0  0  0  0  0  0  0  0  0  0  0
  127.7998  125.6897   59.2319 H   0  0  0  0  0  0  0  0  0  0  0  0
  128.4224  124.3110   60.2173 H   0  0  0  0  0  0  0  0  0  0  0  0
  126.0819  124.5750   61.4705 H   0  0  0  0  0  0  0  0  0  0  0  0
  125.5906  125.3529   59.9278 H   0  0  0  0  0  0  0  0  0  0  0  0
  126.1978  123.6623   59.9278 H   0  0  0  0  0  0  0  0  0  0  0  0
  129.7124  129.0257   61.7055 H   0  0  0  0  0  0  0  0  0  0  0  0
  131.4646  128.7491   62.0782 H   0  0  0  0  0  0  0  0  0  0  0  0
  131.9981  129.9862   59.9169 H   0  0  0  0  0  0  0  0  0  0  0  0
  130.2285  130.4609   59.8991 H   0  0  0  0  0  0  0  0  0  0  0  0
  130.9851  132.3121   60.9495 H   0  0  0  0  0  0  0  0  0  0  0  0
  130.9148  131.2327   62.3990 H   0  0  0  0  0  0  0  0  0  0  0  0
  1  2  1  0
  2  3  1  0
  3  4  1  0
  4  5  2  0
  4  6  1  0
  6  7  2  0
  7  8  1  0
  8  9  2  0
  9 10  1  0
 10 11  2  0
 11 12  1  0
  9 13  1  0
 13 14  1  0
 14 15  1  0
 13 16  1  0
 16 17  1  0
 17 18  2  0
 18 19  1  0
 19 20  1  0
 20 21  1  0
 21 22  1  0
 22 23  1  0
 21 24  1  0
 24 25  2  0
 25 26  1  0
 26 27  1  0
 26 28  2  0
 28 29  1  0
 28 30  1  0
 30 31  2  0
 31 32  1  0
 32 33  1  0
 33 34  1  0
 16 35  2  0
 35 36  1  0
 36 37  1  0
 37 38  1  0
 38 39  1  0
 39 40  2  0
 39 41  2  0
 39 42  1  0
 11  6  1  0
 32 20  2  0
 35  8  1  0
 31 24  1  0
  1 43  1  0
  1 44  1  0
  1 45  1  0
  2 46  1  0
  2 47  1  0
  7 48  1  0
 10 49  1  0
 14 50  1  0
 14 51  1  0
 15 52  1  0
 15 53  1  0
 15 54  1  0
 17 55  1  0
 18 56  1  0
 19 57  1  0
 22 58  1  0
 22 59  1  0
 23 60  1  0
 23 61  1  0
 23 62  1  0
 25 63  1  0
 30 64  1  0
 33 65  1  0
 33 66  1  0
 34 67  1  0
 34 68  1  0
 34 69  1  0
 36 70  1  0
 36 71  1  0
 37 72  1  0
 37 73  1  0
 38 74  1  0
 38 75  1  0
M  CHG  4  19  -1  32   1  35   1  42  -1
M  END
>  <Binding energies>  (1) 
[-6.85]

>  <Ligand effiencies>  (1) 
[-0.1630952380952381]

>  <Interactions>  (1) 
["V-A:ILE:369:CG2:3237, V-A:GLY:454:CA:4049, H-A:ALA:541:N:4891, V-B:GLU:543:CB:9878, V-B:ALA:541:CB:9864, H-A:ARG:545:NH1:4927, V-B:TYR:539:CE2:9848, V-A:TYR:484:CE2:4346, V-B:GLU:543:CG:9879, V-A:ASP:366:CG:3213, V-A:ASN:362:CB:3176, V-B:TYR:539:CZ:9849, V-A:GLU:543:CD:4908, V-A:TYR:484:CZ:4347, V-A:ARG:545:CG:4922, H-A:GLY:454:N:4050, V-A:GLY:453:C:4042, V-A:HIS:456:CE1:4070, V-B:GLU:543:CD:9880, V-A:ARG:545:CD:4923, V-A:LEU:475:CD2:4259, H-A:ARG:545:NH2:4928, V-A:ARG:545:CZ:4926, H-A:LEU:363:N:3186, V-A:GLY:453:CA:4044, V-A:PRO:540:CB:4885, V-A:PRO:540:CA:4883, H-A:TYR:484:OH:4348"]

$$$$
ZINC150662146
     RDKit          3D

116125  0  0  0  0  0  0  0  0999 V2000
  127.0720  133.5560   61.0740 C   0  0  0  0  0  0  0  0  0  0  0  0
  128.4030  133.8450   61.7830 C   0  0  0  0  0  0  0  0  0  0  0  0
  128.6230  132.9640   63.0260 C   0  0  0  0  0  0  0  0  0  0  0  0
  127.3390  132.2940   63.5390 C   0  0  0  0  0  0  0  0  0  0  0  0
  127.1670  131.0340   62.9030 O   0  0  0  0  0  0  0  0  0  0  0  0
  128.3770  130.3060   62.7490 C   0  0  0  0  0  0  0  0  0  0  0  0
  128.7770  129.7030   64.1010 C   0  0  0  0  0  0  0  0  0  0  0  0
  128.0700  128.4800   64.2810 O   0  0  0  0  0  0  0  0  0  0  0  0
  128.5750  127.6650   65.2710 C   0  0  0  0  0  0  0  0  0  0  0  0
  129.0060  126.3510   64.9810 C   0  0  0  0  0  0  0  0  0  0  0  0
  129.6160  125.5990   66.0120 C   0  0  0  0  0  0  0  0  0  0  0  0
  129.6310  126.1030   67.3180 C   0  0  0  0  0  0  0  0  0  0  0  0
  129.0860  127.3650   67.6750 C   0  0  0  0  0  0  0  0  0  0  0  0
  128.6610  128.1930   66.5950 C   0  0  0  0  0  0  0  0  0  0  0  0
  128.3630  129.5490   66.8580 C   0  0  0  0  0  0  0  0  0  0  0  0
  128.5400  130.0830   68.1210 C   0  0  0  0  0  0  0  0  0  0  0  0
  128.8980  129.2640   69.2090 C   0  0  0  0  0  0  0  0  0  0  0  0
  129.1070  129.8480   70.4730 C   0  0  0  0  0  0  0  0  0  0  0  0
  129.4220  129.0680   71.5710 C   0  0  0  0  0  0  0  0  0  0  0  0
  129.4150  127.6570   71.4890 C   0  0  0  0  0  0  0  0  0  0  0  0
  129.6050  126.8530   72.6530 C   0  0  0  0  0  0  0  0  0  0  0  0
  129.8430  127.4990   73.8460 O   0  0  0  0  0  0  0  0  0  0  0  0
  128.6790  127.7460   74.6340 C   0  0  0  0  0  0  0  0  0  0  0  0
  128.7280  129.1820   75.1650 C   0  0  0  0  0  0  0  0  0  0  0  0
  129.2010  130.0400   74.1360 O   0  0  0  0  0  0  0  0  0  0  0  0
  128.5290  131.2900   74.0750 C   0  0  0  0  0  0  0  0  0  0  0  0
  129.5360  132.4240   74.3290 C   0  0  0  0  0  0  0  0  0  0  0  0
  129.5560  133.4870   73.2150 C   0  0  0  0  0  0  0  0  0  0  0  0
  130.9210  133.6070   72.5240 C   0  0  0  0  0  0  0  0  0  0  0  0
  129.5140  125.4430   72.5920 C   0  0  0  0  0  0  0  0  0  0  0  0
  129.2140  124.8360   71.3520 C   0  0  0  0  0  0  0  0  0  0  0  0
  128.9720  125.6410   70.2310 C   0  0  0  0  0  0  0  0  0  0  0  0
  129.1680  127.0480   70.2230 C   0  0  0  0  0  0  0  0  0  0  0  0
  129.0530  127.8530   69.0320 C   0  0  0  0  0  0  0  0  0  0  0  0
  129.1310  123.3420   71.1570 C   0  0  0  0  0  0  0  0  0  0  0  0
  128.7550  122.8500   70.0890 O   0  0  0  0  0  0  0  0  0  0  0  0
  129.5860  122.4810   72.3580 C   0  0  2  0  0  0  0  0  0  0  0  0
  129.0270  121.0340   72.2650 C   0  0  0  0  0  0  0  0  0  0  0  0
  129.2520  120.2280   73.5380 C   0  0  0  0  0  0  0  0  0  0  0  0
  129.5670  120.7920   74.7330 C   0  0  0  0  0  0  0  0  0  0  0  0
  129.8480  122.2780   74.9100 C   0  0  0  0  0  0  0  0  0  0  0  0
  129.3030  123.1340   73.7330 C   0  0  1  0  0  0  0  0  0  0  0  0
  129.7700  124.6050   73.8260 C   0  0  0  0  0  0  0  0  0  0  0  0
  130.2720  125.0760   74.8490 O   0  0  0  0  0  0  0  0  0  0  0  0
  129.7630  119.8250   75.8910 C   0  0  0  0  0  0  0  0  0  0  0  0
  128.7710  118.3440   75.3560 S   0  0  0  0  0  0  0  0  0  0  0  0
  127.3620  118.5320   75.7180 O   0  0  0  0  0  0  0  0  0  0  0  0
  129.4720  117.1050   75.7130 O   0  0  0  0  0  0  0  0  0  0  0  0
  129.0120  118.7250   73.5480 C   0  0  0  0  0  0  0  0  0  0  0  0
  130.2760  124.2610   65.7790 C   0  0  0  0  0  0  0  0  0  0  0  0
  130.7390  123.5840   66.6980 O   0  0  0  0  0  0  0  0  0  0  0  0
  130.3670  123.8150   64.3100 C   0  0  2  0  0  0  0  0  0  0  0  0
  131.7380  124.2160   63.6990 C   0  0  0  0  0  0  0  0  0  0  0  0
  131.7620  124.0840   62.1800 C   0  0  0  0  0  0  0  0  0  0  0  0
  130.6440  123.9320   61.4190 C   0  0  0  0  0  0  0  0  0  0  0  0
  129.2490  123.7520   62.0100 C   0  0  0  0  0  0  0  0  0  0  0  0
  129.1490  124.2700   63.4710 C   0  0  2  0  0  0  0  0  0  0  0  0
  128.9030  125.7960   63.5750 C   0  0  0  0  0  0  0  0  0  0  0  0
  128.6080  126.4930   62.6020 O   0  0  0  0  0  0  0  0  0  0  0  0
  130.8680  123.8020   59.9190 C   0  0  0  0  0  0  0  0  0  0  0  0
  132.6850  123.4070   59.7900 S   0  0  0  0  0  0  0  0  0  0  0  0
  133.2920  124.1560   58.6850 O   0  0  0  0  0  0  0  0  0  0  0  0
  132.8870  121.9590   59.9080 O   0  0  0  0  0  0  0  0  0  0  0  0
  133.0680  124.2310   61.4170 C   0  0  0  0  0  0  0  0  0  0  0  0
  126.2862  133.3854   61.8246 H   0  0  0  0  0  0  0  0  0  0  0  0
  126.7976  134.4155   60.4447 H   0  0  0  0  0  0  0  0  0  0  0  0
  127.1787  132.6601   60.4447 H   0  0  0  0  0  0  0  0  0  0  0  0
  129.2247  133.6639   61.0745 H   0  0  0  0  0  0  0  0  0  0  0  0
  128.3769  134.8916   62.1205 H   0  0  0  0  0  0  0  0  0  0  0  0
  129.3480  132.1771   62.7708 H   0  0  0  0  0  0  0  0  0  0  0  0
  128.9864  133.6227   63.8285 H   0  0  0  0  0  0  0  0  0  0  0  0
  127.4130  132.1472   64.6266 H   0  0  0  0  0  0  0  0  0  0  0  0
  126.4767  132.9375   63.3101 H   0  0  0  0  0  0  0  0  0  0  0  0
  128.2306  129.4997   62.0152 H   0  0  0  0  0  0  0  0  0  0  0  0
  129.1714  130.9793   62.3946 H   0  0  0  0  0  0  0  0  0  0  0  0
  129.8599  129.5103   64.1148 H   0  0  0  0  0  0  0  0  0  0  0  0
  128.5288  130.4030   64.9124 H   0  0  0  0  0  0  0  0  0  0  0  0
  130.0885  125.4899   68.1085 H   0  0  0  0  0  0  0  0  0  0  0  0
  127.9850  130.1885   66.0468 H   0  0  0  0  0  0  0  0  0  0  0  0
  128.3992  131.1626   68.2780 H   0  0  0  0  0  0  0  0  0  0  0  0
  129.0187  130.9383   70.5888 H   0  0  0  0  0  0  0  0  0  0  0  0
  129.6821  129.5536   72.5232 H   0  0  0  0  0  0  0  0  0  0  0  0
  127.7798  127.6129   74.0145 H   0  0  0  0  0  0  0  0  0  0  0  0
  128.6459  127.0403   75.4771 H   0  0  0  0  0  0  0  0  0  0  0  0
  127.7196  129.4961   75.4725 H   0  0  0  0  0  0  0  0  0  0  0  0
  129.4028  129.2347   76.0321 H   0  0  0  0  0  0  0  0  0  0  0  0
  128.0778  131.4159   73.0797 H   0  0  0  0  0  0  0  0  0  0  0  0
  127.7400  131.3208   74.8408 H   0  0  0  0  0  0  0  0  0  0  0  0
  129.2736  132.9172   75.2766 H   0  0  0  0  0  0  0  0  0  0  0  0
  130.5366  131.9680   74.3599 H   0  0  0  0  0  0  0  0  0  0  0  0
  128.8034  133.2170   72.4596 H   0  0  0  0  0  0  0  0  0  0  0  0
  129.3382  134.4582   73.6834 H   0  0  0  0  0  0  0  0  0  0  0  0
  131.7123  133.6766   73.2849 H   0  0  0  0  0  0  0  0  0  0  0  0
  131.0932  132.7205   71.8959 H   0  0  0  0  0  0  0  0  0  0  0  0
  130.9359  134.5099   71.8959 H   0  0  0  0  0  0  0  0  0  0  0  0
  128.6119  125.1589   69.3102 H   0  0  0  0  0  0  0  0  0  0  0  0
  130.6822  122.4188   72.2905 H   0  0  0  0  0  0  0  0  0  0  0  0
  127.9457  121.0874   72.0700 H   0  0  0  0  0  0  0  0  0  0  0  0
  129.5651  120.5241   71.4523 H   0  0  0  0  0  0  0  0  0  0  0  0
  129.3729  122.6177   75.8421 H   0  0  0  0  0  0  0  0  0  0  0  0
  130.9397  122.4092   74.9396 H   0  0  0  0  0  0  0  0  0  0  0  0
  128.2073  123.1618   73.8255 H   0  0  0  0  0  0  0  0  0  0  0  0
  130.8248  119.5670   76.0175 H   0  0  0  0  0  0  0  0  0  0  0  0
  129.4476  120.2353   76.8616 H   0  0  0  0  0  0  0  0  0  0  0  0
  129.8802  118.1843   73.1433 H   0  0  0  0  0  0  0  0  0  0  0  0
  128.1577  118.4205   72.9255 H   0  0  0  0  0  0  0  0  0  0  0  0
  130.3198  122.7163   64.2843 H   0  0  0  0  0  0  0  0  0  0  0  0
  131.9505  125.2619   63.9655 H   0  0  0  0  0  0  0  0  0  0  0  0
  132.4977  123.5323   64.1057 H   0  0  0  0  0  0  0  0  0  0  0  0
  128.5291  124.3059   61.3896 H   0  0  0  0  0  0  0  0  0  0  0  0
  129.0284  122.6744   62.0222 H   0  0  0  0  0  0  0  0  0  0  0  0
  128.2494  123.8057   63.9012 H   0  0  0  0  0  0  0  0  0  0  0  0
  130.2572  122.9896   59.4982 H   0  0  0  0  0  0  0  0  0  0  0  0
  130.5832  124.7062   59.3611 H   0  0  0  0  0  0  0  0  0  0  0  0
  133.8912  123.7192   61.9370 H   0  0  0  0  0  0  0  0  0  0  0  0
  133.3972  125.2752   61.3112 H   0  0  0  0  0  0  0  0  0  0  0  0
  1  2  1  0
  2  3  1  0
  3  4  1  0
  4  5  1  0
  5  6  1  0
  6  7  1  0
  7  8  1  0
  8  9  1  0
  9 10  2  0
 10 11  1  0
 11 12  2  0
 12 13  1  0
 13 14  2  0
 14 15  1  0
 15 16  2  0
 16 17  1  0
 17 18  2  0
 18 19  1  0
 19 20  2  0
 20 21  1  0
 21 22  1  0
 22 23  1  0
 23 24  1  0
 24 25  1  0
 25 26  1  0
 26 27  1  0
 27 28  1  0
 28 29  1  0
 21 30  2  0
 30 31  1  0
 31 32  2  0
 32 33  1  0
 33 34  2  0
 31 35  1  0
 35 36  2  0
 35 37  1  0
 37 38  1  0
 38 39  1  0
 39 40  2  0
 40 41  1  0
 41 42  1  0
 42 43  1  0
 43 44  2  0
 40 45  1  0
 45 46  1  0
 46 47  2  0
 46 48  2  0
 46 49  1  0
 11 50  1  0
 50 51  2  0
 50 52  1  0
 52 53  1  0
 53 54  1  0
 54 55  2  0
 55 56  1  0
 56 57  1  0
 57 58  1  0
 58 59  2  0
 55 60  1  0
 60 61  1  0
 61 62  2  0
 61 63  2  0
 61 64  1  0
 14  9  1  0
 34 17  1  0
 42 37  1  0
 57 52  1  0
 58 10  1  0
 34 13  1  0
 49 39  1  0
 64 54  1  0
 33 20  1  0
 43 30  1  0
  1 65  1  0
  1 66  1  0
  1 67  1  0
  2 68  1  0
  2 69  1  0
  3 70  1  0
  3 71  1  0
  4 72  1  0
  4 73  1  0
  6 74  1  0
  6 75  1  0
  7 76  1  0
  7 77  1  0
 12 78  1  0
 15 79  1  0
 16 80  1  0
 18 81  1  0
 19 82  1  0
 23 83  1  0
 23 84  1  0
 24 85  1  0
 24 86  1  0
 26 87  1  0
 26 88  1  0
 27 89  1  0
 27 90  1  0
 28 91  1  0
 28 92  1  0
 29 93  1  0
 29 94  1  0
 29 95  1  0
 32 96  1  0
 37 97  1  6
 38 98  1  0
 38 99  1  0
 41100  1  0
 41101  1  0
 42102  1  1
 45103  1  0
 45104  1  0
 49105  1  0
 49106  1  0
 52107  1  1
 53108  1  0
 53109  1  0
 56110  1  0
 56111  1  0
 57112  1  1
 60113  1  0
 60114  1  0
 64115  1  0
 64116  1  0
M  END
>  <Binding energies>  (1) 
[70.96]

>  <Ligand effiencies>  (1) 
[1.10875]

>  <Interactions>  (1) 
["V-A:ILE:369:CG2:3237, V-A:GLU:543:CA:4904, V-B:HIS:456:CD2:9039, V-B:GLU:543:C:9874, V-A:GLU:543:C:4902, V-B:GLU:543:CB:9878, H-B:LYS:547:NZ:9923, V-A:PRO:540:C:4881, V-B:TYR:539:CE2:9848, V-A:TYR:484:CE2:4346, V-A:GLY:544:CA:4914, V-B:GLU:543:CG:9879, V-B:LEU:475:CD2:9230, V-A:HIS:456:CD2:4068, V-A:TYR:539:CD1:4873, V-B:TYR:484:CE2:9317, H-B:TYR:539:OH:9850, V-A:ALA:541:CB:4892, V-B:LYS:547:CE:9922, V-A:TYR:484:CA:4339, V-A:GLU:543:CD:4908, V-A:TYR:484:CZ:4347, V-B:TYR:484:CB:9312, V-B:HIS:456:CE1:9041, H-B:GLY:544:N:9887, V-B:GLU:543:CA:9876, V-A:TYR:484:CD2:4344, V-A:HIS:456:CE1:4070, V-B:TYR:484:CZ:9318, V-A:TYR:484:CG:4342, V-B:GLY:544:CA:9886, V-A:GLU:543:CG:4907, V-B:TYR:539:CD2:9846, V-B:GLU:543:CD:9880, H-A:LYS:547:NZ:4951, V-A:TYR:484:CB:4341, V-A:GLU:543:CB:4906, V-A:HIS:456:CG:4066, V-A:PRO:540:CA:4883, V-A:LYS:547:CE:4950, V-A:TYR:484:C:4337, V-A:TYR:539:CE1:4875, H-A:TYR:484:OH:4348"]

$$$$
ZINC1508027165
     RDKit          3D

 58 61  0  0  0  0  0  0  0  0999 V2000
  132.8800  125.1570   58.2920 C   0  0  0  0  0  0  0  0  0  0  0  0
  132.9530  124.6730   59.5420 C   0  0  0  0  0  0  0  0  0  0  0  0
  134.0710  123.7860   60.0590 C   0  0  0  0  0  0  0  0  0  0  0  0
  133.8270  123.1180   61.3400 N   0  0  0  0  0  0  0  0  0  0  0  0
  133.5890  121.6730   61.2300 C   0  0  0  0  0  0  0  0  0  0  0  0
  132.5720  121.2850   60.1380 C   0  0  0  0  0  0  0  0  0  0  0  0
  131.5090  120.3580   60.6830 C   0  0  0  0  0  0  0  0  0  0  0  0
  131.3580  118.9790   60.7070 C   0  0  0  0  0  0  0  0  0  0  0  0
  130.1310  118.7130   61.3180 C   0  0  0  0  0  0  0  0  0  0  0  0
  129.5860  119.9430   61.6400 C   0  0  0  0  0  0  0  0  0  0  0  0
  130.4210  120.9420   61.2530 O   0  0  0  0  0  0  0  0  0  0  0  0
  133.6160  123.8480   62.4990 C   0  0  0  0  0  0  0  0  0  0  0  0
  134.5710  124.4490   63.1670 N   0  0  0  0  0  0  0  0  0  0  0  0
  133.9880  125.0680   64.2620 N   0  0  0  0  0  0  0  0  0  0  0  0
  132.7010  124.8120   64.2350 C   0  0  0  0  0  0  0  0  0  0  0  0
  131.7860  125.3010   65.2830 C   0  0  0  0  0  0  0  0  0  0  0  0
  132.1140  125.5240   66.6340 C   0  0  0  0  0  0  0  0  0  0  0  0
  131.1150  125.9700   67.3580 N   0  0  0  0  0  0  0  0  0  0  0  0
  130.0940  126.0430   66.5010 N   0  0  0  0  0  0  0  0  0  0  0  0
  128.8070  126.5360   66.9620 C   0  0  0  0  0  0  0  0  0  0  0  0
  130.4430  125.6600   65.2330 C   0  0  0  0  0  0  0  0  0  0  0  0
  132.3900  124.0450   63.1210 N   0  0  0  0  0  0  0  0  0  0  0  0
  131.0930  123.4700   62.7590 C   0  0  0  0  0  0  0  0  0  0  0  0
  130.2890  124.4540   61.8800 C   0  0  0  0  0  0  0  0  0  0  0  0
  128.7600  124.3470   62.0290 C   0  0  2  0  0  0  0  0  0  0  0  0
  128.2760  122.9160   62.3760 C   0  0  0  0  0  0  0  0  0  0  0  0
  126.8520  122.9170   62.4360 O   0  0  0  0  0  0  0  0  0  0  0  0
  126.2480  123.2940   61.2000 C   0  0  0  0  0  0  0  0  0  0  0  0
  126.7510  124.6950   60.7900 C   0  0  0  0  0  0  0  0  0  0  0  0
  128.1770  124.6940   60.7710 O   0  0  0  0  0  0  0  0  0  0  0  0
  132.0334  125.7947   57.9977 H   0  0  0  0  0  0  0  0  0  0  0  0
  133.6668  124.9159   57.5621 H   0  0  0  0  0  0  0  0  0  0  0  0
  132.1458  124.9378   60.2408 H   0  0  0  0  0  0  0  0  0  0  0  0
  134.2577  123.0074   59.3047 H   0  0  0  0  0  0  0  0  0  0  0  0
  134.9229  124.4591   60.2356 H   0  0  0  0  0  0  0  0  0  0  0  0
  134.5461  121.1815   61.0013 H   0  0  0  0  0  0  0  0  0  0  0  0
  133.1636  121.3471   62.1906 H   0  0  0  0  0  0  0  0  0  0  0  0
  132.0905  122.1973   59.7561 H   0  0  0  0  0  0  0  0  0  0  0  0
  133.1091  120.7626   59.3326 H   0  0  0  0  0  0  0  0  0  0  0  0
  132.0700  118.2360   60.3183 H   0  0  0  0  0  0  0  0  0  0  0  0
  129.6870  117.7242   61.5056 H   0  0  0  0  0  0  0  0  0  0  0  0
  128.6162  120.0907   62.1377 H   0  0  0  0  0  0  0  0  0  0  0  0
  133.1176  125.3407   67.0454 H   0  0  0  0  0  0  0  0  0  0  0  0
  128.7895  126.5427   68.0618 H   0  0  0  0  0  0  0  0  0  0  0  0
  128.6499  127.5579   66.5866 H   0  0  0  0  0  0  0  0  0  0  0  0
  128.0074  125.8805   66.5866 H   0  0  0  0  0  0  0  0  0  0  0  0
  129.7893  125.6402   64.3485 H   0  0  0  0  0  0  0  0  0  0  0  0
  131.2546  122.5358   62.2011 H   0  0  0  0  0  0  0  0  0  0  0  0
  130.5243  123.2698   63.6790 H   0  0  0  0  0  0  0  0  0  0  0  0
  130.5888  125.4776   62.1491 H   0  0  0  0  0  0  0  0  0  0  0  0
  130.5185  124.1967   60.8354 H   0  0  0  0  0  0  0  0  0  0  0  0
  128.4622  125.0142   62.8513 H   0  0  0  0  0  0  0  0  0  0  0  0
  128.6133  122.2129   61.6002 H   0  0  0  0  0  0  0  0  0  0  0  0
  128.6917  122.6047   63.3457 H   0  0  0  0  0  0  0  0  0  0  0  0
  126.5182  122.5648   60.4220 H   0  0  0  0  0  0  0  0  0  0  0  0
  125.1544  123.3158   61.3169 H   0  0  0  0  0  0  0  0  0  0  0  0
  126.3698  124.9443   59.7887 H   0  0  0  0  0  0  0  0  0  0  0  0
  126.3914  125.4428   61.5121 H   0  0  0  0  0  0  0  0  0  0  0  0
  1  2  2  0
  2  3  1  0
  3  4  1  0
  4  5  1  0
  5  6  1  0
  6  7  1  0
  7  8  2  0
  8  9  1  0
  9 10  2  0
 10 11  1  0
  4 12  1  0
 12 13  2  0
 13 14  1  0
 14 15  2  0
 15 16  1  0
 16 17  1  0
 17 18  2  0
 18 19  1  0
 19 20  1  0
 19 21  1  0
 15 22  1  0
 22 23  1  0
 23 24  1  0
 24 25  1  0
 25 26  1  0
 26 27  1  0
 27 28  1  0
 28 29  1  0
 29 30  1  0
 11  7  1  0
 22 12  1  0
 30 25  1  0
 21 16  2  0
  1 31  1  0
  1 32  1  0
  2 33  1  0
  3 34  1  0
  3 35  1  0
  5 36  1  0
  5 37  1  0
  6 38  1  0
  6 39  1  0
  8 40  1  0
  9 41  1  0
 10 42  1  0
 17 43  1  0
 20 44  1  0
 20 45  1  0
 20 46  1  0
 21 47  1  0
 23 48  1  0
 23 49  1  0
 24 50  1  0
 24 51  1  0
 25 52  1  1
 26 53  1  0
 26 54  1  0
 28 55  1  0
 28 56  1  0
 29 57  1  0
 29 58  1  0
M  END
>  <Binding energies>  (1) 
[-6.37]

>  <Ligand effiencies>  (1) 
[-0.21233333333333335]

>  <Interactions>  (1) 
["V-A:ILE:369:CG2:3237, V-A:ASP:366:CA:3210, V-B:PRO:540:CA:9855, V-A:ILE:369:CB:3236, V-B:GLU:543:CB:9878, V-B:ALA:541:CB:9864, H-A:ARG:545:NH1:4927, V-B:TYR:539:CE2:9848, V-B:GLU:543:CG:9879, V-B:TYR:539:C:9839, V-A:ASP:366:CG:3213, V-B:TYR:539:CZ:9849, H-B:ALA:541:N:9863, V-A:GLU:543:CD:4908, V-B:PRO:540:CB:9857, V-A:TYR:484:CZ:4347, V-A:ARG:545:CG:4922, H-A:GLY:454:N:4050, V-A:ILE:369:CD1:3239, V-A:HIS:456:CE1:4070, V-A:ASP:366:C:3208, V-B:TYR:539:CD2:9846, V-A:SER:385:CB:3409, V-B:GLU:543:CD:9880, V-A:ASP:366:CB:3212, V-A:LEU:475:CD2:4259, H-A:ARG:545:NH2:4928, V-A:ARG:545:CZ:4926, H-A:ARG:545:NE:4924, V-B:PRO:540:C:9853, V-B:ALA:541:CA:9862, H-A:TYR:484:OH:4348"]

$$$$
ZINC15265085
     RDKit          3D

 43 44  0  0  0  0  0  0  0  0999 V2000
  131.7250  125.3130   65.4760 C   0  0  0  0  0  0  0  0  0  0  0  0
  131.5160  124.1320   64.8620 C   0  0  0  0  0  0  0  0  0  0  0  0
  130.1840  123.4220   65.0460 C   0  0  0  0  0  0  0  0  0  0  0  0
  129.1610  123.6450   63.9180 C   0  0  0  0  0  0  0  0  0  0  0  0
  129.4490  122.9770   62.5430 C   0  0  1  0  0  0  0  0  0  0  0  0
  128.2620  123.1550   61.5280 C   0  0  0  0  0  0  0  0  0  0  0  0
  128.1090  124.6140   61.0420 C   0  0  0  0  0  0  0  0  0  0  0  0
  128.3420  122.1920   60.3200 C   0  0  0  0  0  0  0  0  0  0  0  0
  127.0460  122.8660   62.2000 O   0  0  0  0  0  0  0  0  0  0  0  0
  130.8440  123.3460   61.9450 C   0  0  0  0  0  0  0  0  0  0  0  0
  132.0820  122.7600   62.6930 C   0  0  2  0  0  0  0  0  0  0  0  0
  132.5820  123.5520   63.9300 C   0  0  1  0  0  0  0  0  0  0  0  0
  133.5990  124.5660   63.3710 C   0  0  0  0  0  0  0  0  0  0  0  0
  134.0790  123.9970   62.0250 C   0  0  0  0  0  0  0  0  0  0  0  0
  133.3770  122.6370   61.8330 C   0  0  2  0  0  0  0  0  0  0  0  0
  133.1830  122.2320   60.3550 C   0  0  0  0  0  0  0  0  0  0  0  0
  134.1790  121.5880   62.3580 O   0  0  0  0  0  0  0  0  0  0  0  0
  132.6845  125.8360   65.3504 H   0  0  0  0  0  0  0  0  0  0  0  0
  130.9361  125.7542   66.1029 H   0  0  0  0  0  0  0  0  0  0  0  0
  130.3811  122.3422   65.1180 H   0  0  0  0  0  0  0  0  0  0  0  0
  129.7340  123.8482   65.9547 H   0  0  0  0  0  0  0  0  0  0  0  0
  128.1918  123.2641   64.2725 H   0  0  0  0  0  0  0  0  0  0  0  0
  129.1977  124.7258   63.7169 H   0  0  0  0  0  0  0  0  0  0  0  0
  129.5144  121.8974   62.7435 H   0  0  0  0  0  0  0  0  0  0  0  0
  128.0387  125.2845   61.9112 H   0  0  0  0  0  0  0  0  0  0  0  0
  128.9830  124.8917   60.4345 H   0  0  0  0  0  0  0  0  0  0  0  0
  127.1965  124.7043   60.4345 H   0  0  0  0  0  0  0  0  0  0  0  0
  128.4280  121.1567   60.6815 H   0  0  0  0  0  0  0  0  0  0  0  0
  127.4324  122.2929   59.7098 H   0  0  0  0  0  0  0  0  0  0  0  0
  129.2225  122.4416   59.7098 H   0  0  0  0  0  0  0  0  0  0  0  0
  126.6800  123.6890   62.5310 H   0  0  0  0  0  0  0  0  0  0  0  0
  130.8732  122.9815   60.9076 H   0  0  0  0  0  0  0  0  0  0  0  0
  130.9289  124.4387   62.0388 H   0  0  0  0  0  0  0  0  0  0  0  0
  131.6494  121.7885   62.9741 H   0  0  0  0  0  0  0  0  0  0  0  0
  133.0508  122.8644   64.6493 H   0  0  0  0  0  0  0  0  0  0  0  0
  133.1189  125.5444   63.2217 H   0  0  0  0  0  0  0  0  0  0  0  0
  134.4392  124.7144   64.0653 H   0  0  0  0  0  0  0  0  0  0  0  0
  133.8072  124.6809   61.2075 H   0  0  0  0  0  0  0  0  0  0  0  0
  135.1726  123.8784   62.0170 H   0  0  0  0  0  0  0  0  0  0  0  0
  132.7083  121.2409   60.3057 H   0  0  0  0  0  0  0  0  0  0  0  0
  132.5413  122.9713   59.8534 H   0  0  0  0  0  0  0  0  0  0  0  0
  134.1613  122.1953   59.8534 H   0  0  0  0  0  0  0  0  0  0  0  0
  135.0820  121.7170   62.0570 H   0  0  0  0  0  0  0  0  0  0  0  0
  1  2  2  0
  2  3  1  0
  3  4  1  0
  4  5  1  0
  5  6  1  0
  6  7  1  0
  6  8  1  0
  6  9  1  0
  5 10  1  0
 10 11  1  0
 11 12  1  0
 12 13  1  0
 13 14  1  0
 14 15  1  0
 15 16  1  0
 15 17  1  1
 12  2  1  0
 15 11  1  0
  1 18  1  0
  1 19  1  0
  3 20  1  0
  3 21  1  0
  4 22  1  0
  4 23  1  0
  5 24  1  1
  7 25  1  0
  7 26  1  0
  7 27  1  0
  8 28  1  0
  8 29  1  0
  8 30  1  0
  9 31  1  0
 10 32  1  0
 10 33  1  0
 11 34  1  1
 12 35  1  1
 13 36  1  0
 13 37  1  0
 14 38  1  0
 14 39  1  0
 16 40  1  0
 16 41  1  0
 16 42  1  0
 17 43  1  0
M  END
>  <Binding energies>  (1) 
[-4.82]

>  <Ligand effiencies>  (1) 
[-0.22952380952380955]

>  <Interactions>  (1) 
["V-A:ILE:369:CG2:3237, V-B:PRO:540:CA:9855, V-A:GLY:454:CA:4049, V-B:TYR:539:CE2:9848, V-A:TYR:484:CE2:4346, V-B:GLU:543:CG:9879, V-B:TYR:539:C:9839, H-B:GLU:543:OE1:9881, H-B:ALA:541:N:9863, V-A:TYR:484:CZ:4347, H-A:GLY:454:N:4050, V-B:PRO:540:N:9856, V-A:ILE:369:CD1:3239, V-B:TYR:539:CD2:9846, V-B:GLU:543:CD:9880, V-A:LEU:475:CD2:4259, V-A:ARG:545:CZ:4926, H-A:SER:385:O:3406, V-B:PRO:540:C:9853"]

$$$$
ZINC153021048
     RDKit          3D

 33 36  0  0  0  0  0  0  0  0999 V2000
  128.0860  126.4710   59.7120 Br  0  0  0  0  0  0  0  0  0  0  0  0
  129.1830  126.7290   61.3570 C   0  0  2  0  0  0  0  0  0  0  0  0
  130.2250  127.8250   61.1220 C   0  0  0  0  0  0  0  0  0  0  0  0
  131.4740  127.1000   60.6090 C   0  0  2  0  0  0  0  0  0  0  0  0
  131.4400  127.0140   58.6170 Br  0  0  0  0  0  0  0  0  0  0  0  0
  131.3270  125.6960   61.1600 C   0  0  0  0  0  0  0  0  0  0  0  0
  130.0130  125.4840   61.5890 C   0  0  0  0  0  0  0  0  0  0  0  0
  129.6570  124.2640   62.1710 C   0  0  0  0  0  0  0  0  0  0  0  0
  130.6160  123.2560   62.3240 C   0  0  0  0  0  0  0  0  0  0  0  0
  131.9280  123.4690   61.8960 C   0  0  0  0  0  0  0  0  0  0  0  0
  132.2850  124.6900   61.3140 C   0  0  0  0  0  0  0  0  0  0  0  0
  133.7610  124.6940   60.9780 C   0  0  2  0  0  0  0  0  0  0  0  0
  133.9760  124.3470   59.0260 Br  0  0  0  0  0  0  0  0  0  0  0  0
  134.3230  123.5170   61.7810 C   0  0  0  0  0  0  0  0  0  0  0  0
  133.1410  122.5660   61.9940 C   0  0  2  0  0  0  0  0  0  0  0  0
  133.0680  121.2330   60.5140 Br  0  0  0  0  0  0  0  0  0  0  0  0
  130.0020  122.0570   63.0180 C   0  0  2  0  0  0  0  0  0  0  0  0
  129.5860  120.6670   61.6500 Br  0  0  0  0  0  0  0  0  0  0  0  0
  128.7030  122.6060   63.6150 C   0  0  0  0  0  0  0  0  0  0  0  0
  128.3320  123.8130   62.7490 C   0  0  2  0  0  0  0  0  0  0  0  0
  127.1420  123.2380   61.2550 Br  0  0  0  0  0  0  0  0  0  0  0  0
  128.5006  126.9657   62.1866 H   0  0  0  0  0  0  0  0  0  0  0  0
  129.8635  128.5448   60.3728 H   0  0  0  0  0  0  0  0  0  0  0  0
  130.4321  128.3945   62.0400 H   0  0  0  0  0  0  0  0  0  0  0  0
  132.4069  127.5986   60.9108 H   0  0  0  0  0  0  0  0  0  0  0  0
  134.2639  125.6440   61.2118 H   0  0  0  0  0  0  0  0  0  0  0  0
  135.1238  123.0150   61.2182 H   0  0  0  0  0  0  0  0  0  0  0  0
  134.7599  123.8455   62.7356 H   0  0  0  0  0  0  0  0  0  0  0  0
  133.2068  122.0158   62.9442 H   0  0  0  0  0  0  0  0  0  0  0  0
  130.6568  121.6021   63.7758 H   0  0  0  0  0  0  0  0  0  0  0  0
  127.9096  121.8452   63.5740 H   0  0  0  0  0  0  0  0  0  0  0  0
  128.8258  122.8848   64.6720 H   0  0  0  0  0  0  0  0  0  0  0  0
  127.8085  124.5960   63.3172 H   0  0  0  0  0  0  0  0  0  0  0  0
  1  2  1  0
  2  3  1  0
  3  4  1  0
  4  5  1  0
  4  6  1  0
  6  7  2  0
  7  8  1  0
  8  9  2  0
  9 10  1  0
 10 11  2  0
 11 12  1  0
 12 13  1  0
 12 14  1  0
 14 15  1  0
 15 16  1  0
  9 17  1  0
 17 18  1  0
 17 19  1  0
 19 20  1  0
 20 21  1  0
  7  2  1  0
 20  8  1  0
 11  6  1  0
 15 10  1  0
  2 22  1  1
  3 23  1  0
  3 24  1  0
  4 25  1  6
 12 26  1  1
 14 27  1  0
 14 28  1  0
 15 29  1  1
 17 30  1  1
 19 31  1  0
 19 32  1  0
 20 33  1  1
M  END
>  <Binding energies>  (1) 
[-7.17]

>  <Ligand effiencies>  (1) 
[-0.3414285714285714]

>  <Interactions>  (1) 
["V-A:ILE:369:CG2:3237, V-A:ASP:366:CA:3210, V-B:PRO:540:CA:9855, V-A:ILE:369:CD1:3239, V-A:ASP:366:C:3208, V-A:ILE:369:CB:3236, V-B:TYR:539:CD2:9846, V-B:PRO:540:C:9853, V-B:GLU:543:CD:9880, V-B:ALA:541:CB:9864, V-B:TYR:539:CE2:9848, V-A:ASP:366:CB:3212, V-B:ALA:541:CA:9862, V-A:LEU:475:CD2:4259, V-B:GLU:543:CG:9879, V-A:ASP:366:CG:3213"]

$$$$
ZINC1531173910
     RDKit          3D

 57 59  0  0  0  0  0  0  0  0999 V2000
  131.4170  126.1640   57.9000 C   0  0  0  0  0  0  0  0  0  0  0  0
  130.0410  126.4270   58.1280 O   0  0  0  0  0  0  0  0  0  0  0  0
  129.0930  125.8710   57.3380 C   0  0  0  0  0  0  0  0  0  0  0  0
  129.3040  125.0400   56.4510 O   0  0  0  0  0  0  0  0  0  0  0  0
  127.6820  126.4100   57.6440 C   0  0  2  0  0  0  0  0  0  0  0  0
  127.6340  127.9620   57.7280 C   0  0  0  0  0  0  0  0  0  0  0  0
  127.1540  125.7000   58.7810 O   0  0  0  0  0  0  0  0  0  0  0  0
  127.8340  124.5860   59.2200 C   0  0  0  0  0  0  0  0  0  0  0  0
  128.6860  124.7060   60.3240 C   0  0  0  0  0  0  0  0  0  0  0  0
  128.9450  126.2430   61.0720 Cl  0  0  0  0  0  0  0  0  0  0  0  0
  129.3080  123.5770   60.8570 C   0  0  0  0  0  0  0  0  0  0  0  0
  129.0800  122.3110   60.3110 C   0  0  0  0  0  0  0  0  0  0  0  0
  129.6440  121.1250   60.9800 C   0  0  0  0  0  0  0  0  0  0  0  0
  130.3700  121.0840   62.0510 N   0  0  0  0  0  0  0  0  0  0  0  0
  130.7720  122.2490   62.6960 N   0  0  0  0  0  0  0  0  0  0  0  0
  132.0290  122.8080   62.4000 C   0  0  0  0  0  0  0  0  0  0  0  0
  132.8470  122.4300   61.1020 C   0  0  0  0  0  0  0  0  0  0  0  0
  134.3550  122.8090   61.2390 C   0  0  0  0  0  0  0  0  0  0  0  0
  132.7910  120.8990   60.8600 C   0  0  0  0  0  0  0  0  0  0  0  0
  132.3180  123.1960   59.8570 C   0  0  0  0  0  0  0  0  0  0  0  0
  132.5400  123.6880   63.1950 N   0  0  0  0  0  0  0  0  0  0  0  0
  131.8450  124.1570   64.3140 C   0  0  0  0  0  0  0  0  0  0  0  0
  132.4800  125.0580   65.1700 C   0  0  0  0  0  0  0  0  0  0  0  0
  131.7920  125.5720   66.2700 C   0  0  0  0  0  0  0  0  0  0  0  0
  130.4650  125.1990   66.5050 C   0  0  0  0  0  0  0  0  0  0  0  0
  129.5350  125.8960   68.0120 Br  0  0  0  0  0  0  0  0  0  0  0  0
  129.8210  124.3110   65.6420 C   0  0  0  0  0  0  0  0  0  0  0  0
  130.5230  123.7800   64.5540 C   0  0  0  0  0  0  0  0  0  0  0  0
  129.8720  122.7790   63.6220 C   0  0  0  0  0  0  0  0  0  0  0  0
  128.6880  122.4420   63.7270 O   0  0  0  0  0  0  0  0  0  0  0  0
  128.2840  122.2140   59.1620 C   0  0  0  0  0  0  0  0  0  0  0  0
  127.6510  123.3320   58.6100 C   0  0  0  0  0  0  0  0  0  0  0  0
  126.7900  123.1640   57.4220 N   0  0  0  0  0  0  0  0  0  0  0  0
  125.9930  124.0560   57.1460 O   0  0  0  0  0  0  0  0  0  0  0  0
  126.9200  122.1410   56.7560 O   0  0  0  0  0  0  0  0  0  0  0  0
  131.9361  126.0648   58.8647 H   0  0  0  0  0  0  0  0  0  0  0  0
  131.5220  125.2295   57.3293 H   0  0  0  0  0  0  0  0  0  0  0  0
  131.8593  126.9939   57.3293 H   0  0  0  0  0  0  0  0  0  0  0  0
  127.0047  126.2067   56.8014 H   0  0  0  0  0  0  0  0  0  0  0  0
  127.6244  128.2720   58.7834 H   0  0  0  0  0  0  0  0  0  0  0  0
  128.5195  128.3837   57.2300 H   0  0  0  0  0  0  0  0  0  0  0  0
  126.7241  128.3282   57.2300 H   0  0  0  0  0  0  0  0  0  0  0  0
  129.9856  123.6844   61.7168 H   0  0  0  0  0  0  0  0  0  0  0  0
  129.4205  120.1552   60.5115 H   0  0  0  0  0  0  0  0  0  0  0  0
  134.6210  122.8758   62.3043 H   0  0  0  0  0  0  0  0  0  0  0  0
  134.9723  122.0381   60.7546 H   0  0  0  0  0  0  0  0  0  0  0  0
  134.5345  123.7802   60.7546 H   0  0  0  0  0  0  0  0  0  0  0  0
  132.7718  120.3754   61.8272 H   0  0  0  0  0  0  0  0  0  0  0  0
  131.8832  120.6507   60.2906 H   0  0  0  0  0  0  0  0  0  0  0  0
  133.6783  120.5851   60.2906 H   0  0  0  0  0  0  0  0  0  0  0  0
  131.7212  124.0601   60.1844 H   0  0  0  0  0  0  0  0  0  0  0  0
  133.1683  123.5453   59.2528 H   0  0  0  0  0  0  0  0  0  0  0  0
  131.6902  122.5246   59.2528 H   0  0  0  0  0  0  0  0  0  0  0  0
  133.5196  125.3621   64.9782 H   0  0  0  0  0  0  0  0  0  0  0  0
  132.2946  126.2720   66.9536 H   0  0  0  0  0  0  0  0  0  0  0  0
  128.7714  124.0311   65.8154 H   0  0  0  0  0  0  0  0  0  0  0  0
  128.1537  121.2330   58.6818 H   0  0  0  0  0  0  0  0  0  0  0  0
  1  2  1  0
  2  3  1  0
  3  4  2  0
  3  5  1  0
  5  6  1  0
  5  7  1  0
  7  8  1  0
  8  9  2  0
  9 10  1  0
  9 11  1  0
 11 12  2  0
 12 13  1  0
 13 14  2  0
 14 15  1  0
 15 16  1  0
 16 17  1  0
 17 18  1  0
 17 19  1  0
 17 20  1  0
 16 21  2  0
 21 22  1  0
 22 23  2  0
 23 24  1  0
 24 25  2  0
 25 26  1  0
 25 27  1  0
 27 28  2  0
 28 29  1  0
 29 30  2  0
 12 31  1  0
 31 32  2  0
 32 33  1  0
 33 34  2  0
 33 35  1  0
 32  8  1  0
 29 15  1  0
 28 22  1  0
  1 36  1  0
  1 37  1  0
  1 38  1  0
  5 39  1  6
  6 40  1  0
  6 41  1  0
  6 42  1  0
 11 43  1  0
 13 44  1  0
 18 45  1  0
 18 46  1  0
 18 47  1  0
 19 48  1  0
 19 49  1  0
 19 50  1  0
 20 51  1  0
 20 52  1  0
 20 53  1  0
 23 54  1  0
 24 55  1  0
 27 56  1  0
 31 57  1  0
M  CHG  2  33   1  35  -1
M  END
>  <Binding energies>  (1) 
[-7.24]

>  <Ligand effiencies>  (1) 
[-0.20685714285714285]

>  <Interactions>  (1) 
["V-A:ILE:369:CG2:3237, V-B:PRO:540:CA:9855, V-A:ILE:369:CB:3236, V-B:GLU:543:CB:9878, V-B:ALA:541:CB:9864, V-B:TYR:539:CE2:9848, H-A:TYR:531:OH:4795, V-A:TYR:484:CE2:4346, H-B:TYR:539:N:9842, V-B:GLU:543:CG:9879, V-B:TYR:539:C:9839, V-B:TYR:539:CZ:9849, H-B:TYR:539:OH:9850, V-A:TYR:484:CZ:4347, V-A:GLU:543:CD:4908, V-B:GLU:543:CA:9876, V-B:PRO:540:N:9856, V-A:HIS:456:CE1:4070, V-A:ILE:369:CD1:3239, V-B:TYR:539:CD2:9846, V-A:SER:385:CB:3409, V-B:GLU:543:CD:9880, V-A:ILE:369:CG1:3238, V-A:LEU:475:CD2:4259, V-A:ARG:545:CZ:4926, V-B:TYR:539:CG:9844"]

$$$$
ZINC1531192176
     RDKit          3D

 56 58  0  0  0  0  0  0  0  0999 V2000
  127.8930  133.2370   60.2160 C   0  0  0  0  0  0  0  0  0  0  0  0
  129.0460  133.2880   60.9020 C   0  0  0  0  0  0  0  0  0  0  0  0
  129.1540  133.2550   62.4120 C   0  0  0  0  0  0  0  0  0  0  0  0
  130.1140  132.2810   62.8040 O   0  0  0  0  0  0  0  0  0  0  0  0
  129.9680  131.0630   62.1870 C   0  0  0  0  0  0  0  0  0  0  0  0
  130.9640  130.6350   61.3020 C   0  0  0  0  0  0  0  0  0  0  0  0
  132.0400  131.4820   61.1010 O   0  0  0  0  0  0  0  0  0  0  0  0
  133.1080  131.4970   62.0440 C   0  0  0  0  0  0  0  0  0  0  0  0
  130.8260  129.3870   60.6770 C   0  0  0  0  0  0  0  0  0  0  0  0
  129.7330  128.5490   60.9320 C   0  0  0  0  0  0  0  0  0  0  0  0
  129.5550  127.2180   60.3130 C   0  0  0  0  0  0  0  0  0  0  0  0
  129.8680  126.0390   60.7450 N   0  0  0  0  0  0  0  0  0  0  0  0
  130.3760  125.8300   62.0160 N   0  0  0  0  0  0  0  0  0  0  0  0
  131.6660  125.2800   62.1690 C   0  0  0  0  0  0  0  0  0  0  0  0
  132.5250  124.7400   60.9570 C   0  0  0  0  0  0  0  0  0  0  0  0
  131.9600  123.3960   60.3970 C   0  0  0  0  0  0  0  0  0  0  0  0
  132.5170  125.7400   59.7650 C   0  0  0  0  0  0  0  0  0  0  0  0
  133.9790  124.4500   61.4130 C   0  0  0  0  0  0  0  0  0  0  0  0
  132.1880  125.1960   63.3470 N   0  0  0  0  0  0  0  0  0  0  0  0
  131.4870  125.5690   64.4960 C   0  0  0  0  0  0  0  0  0  0  0  0
  132.1270  125.4700   65.7310 C   0  0  0  0  0  0  0  0  0  0  0  0
  131.4360  125.8000   66.8980 C   0  0  0  0  0  0  0  0  0  0  0  0
  130.1060  126.2220   66.8310 C   0  0  0  0  0  0  0  0  0  0  0  0
  129.1700  126.6640   68.4270 Br  0  0  0  0  0  0  0  0  0  0  0  0
  129.4620  126.3220   65.5960 C   0  0  0  0  0  0  0  0  0  0  0  0
  130.1620  126.0020   64.4270 C   0  0  0  0  0  0  0  0  0  0  0  0
  129.5010  126.1060   63.0690 C   0  0  0  0  0  0  0  0  0  0  0  0
  128.3130  126.4260   62.9360 O   0  0  0  0  0  0  0  0  0  0  0  0
  128.7420  129.0150   61.8020 C   0  0  0  0  0  0  0  0  0  0  0  0
  128.8370  130.2620   62.4310 C   0  0  0  0  0  0  0  0  0  0  0  0
  127.7570  130.7030   63.3410 N   0  0  0  0  0  0  0  0  0  0  0  0
  128.0530  131.3510   64.3390 O   0  0  0  0  0  0  0  0  0  0  0  0
  126.6000  130.4120   63.0470 O   0  0  0  0  0  0  0  0  0  0  0  0
  127.9054  133.2665   59.1165 H   0  0  0  0  0  0  0  0  0  0  0  0
  126.9359  133.1657   60.7535 H   0  0  0  0  0  0  0  0  0  0  0  0
  129.9800  133.3589   60.3252 H   0  0  0  0  0  0  0  0  0  0  0  0
  129.4667  134.2442   62.7777 H   0  0  0  0  0  0  0  0  0  0  0  0
  128.1753  132.9944   62.8411 H   0  0  0  0  0  0  0  0  0  0  0  0
  132.6965  131.4912   63.0641 H   0  0  0  0  0  0  0  0  0  0  0  0
  133.7386  130.6076   61.8980 H   0  0  0  0  0  0  0  0  0  0  0  0
  133.7134  132.4037   61.8980 H   0  0  0  0  0  0  0  0  0  0  0  0
  131.5981  129.0569   59.9664 H   0  0  0  0  0  0  0  0  0  0  0  0
  129.0779  127.2324   59.3220 H   0  0  0  0  0  0  0  0  0  0  0  0
  131.6832  122.7377   61.2337 H   0  0  0  0  0  0  0  0  0  0  0  0
  131.0714  123.5999   59.7815 H   0  0  0  0  0  0  0  0  0  0  0  0
  132.7274  122.9038   59.7815 H   0  0  0  0  0  0  0  0  0  0  0  0
  132.5088  126.7701   60.1507 H   0  0  0  0  0  0  0  0  0  0  0  0
  133.4164  125.5856   59.1508 H   0  0  0  0  0  0  0  0  0  0  0  0
  131.6202  125.5712   59.1508 H   0  0  0  0  0  0  0  0  0  0  0  0
  134.0237  124.4411   62.5121 H   0  0  0  0  0  0  0  0  0  0  0  0
  134.2965  123.4708   61.0252 H   0  0  0  0  0  0  0  0  0  0  0  0
  134.6479  125.2324   61.0252 H   0  0  0  0  0  0  0  0  0  0  0  0
  133.1727  125.1330   65.7853 H   0  0  0  0  0  0  0  0  0  0  0  0
  131.9401  125.7276   67.8730 H   0  0  0  0  0  0  0  0  0  0  0  0
  128.4133  126.6495   65.5423 H   0  0  0  0  0  0  0  0  0  0  0  0
  127.8628  128.3836   61.9976 H   0  0  0  0  0  0  0  0  0  0  0  0
  1  2  2  0
  2  3  1  0
  3  4  1  0
  4  5  1  0
  5  6  2  0
  6  7  1  0
  7  8  1  0
  6  9  1  0
  9 10  2  0
 10 11  1  0
 11 12  2  0
 12 13  1  0
 13 14  1  0
 14 15  1  0
 15 16  1  0
 15 17  1  0
 15 18  1  0
 14 19  2  0
 19 20  1  0
 20 21  2  0
 21 22  1  0
 22 23  2  0
 23 24  1  0
 23 25  1  0
 25 26  2  0
 26 27  1  0
 27 28  2  0
 10 29  1  0
 29 30  2  0
 30 31  1  0
 31 32  2  0
 31 33  1  0
 30  5  1  0
 27 13  1  0
 26 20  1  0
  1 34  1  0
  1 35  1  0
  2 36  1  0
  3 37  1  0
  3 38  1  0
  8 39  1  0
  8 40  1  0
  8 41  1  0
  9 42  1  0
 11 43  1  0
 16 44  1  0
 16 45  1  0
 16 46  1  0
 17 47  1  0
 17 48  1  0
 17 49  1  0
 18 50  1  0
 18 51  1  0
 18 52  1  0
 21 53  1  0
 22 54  1  0
 25 55  1  0
 29 56  1  0
M  CHG  2  31   1  33  -1
M  END
>  <Binding energies>  (1) 
[-6.06]

>  <Ligand effiencies>  (1) 
[-0.18363636363636363]

>  <Interactions>  (1) 
["H-A:ALA:541:N:4891, V-A:PRO:540:C:4881, V-B:GLU:543:CB:9878, V-B:TYR:539:CE2:9848, V-B:GLU:543:CG:9879, V-A:ASP:366:CG:3213, V-A:ASN:362:CB:3176, V-A:TYR:539:CD1:4873, V-A:ALA:541:CB:4892, V-A:GLU:543:CD:4908, H-B:TYR:484:OH:9319, V-A:HIS:456:CE1:4070, V-A:ILE:369:CD1:3239, V-A:ALA:541:CA:4890, V-B:GLU:543:CD:9880, V-A:TYR:539:C:4867, V-A:ASP:366:CB:3212, H-A:ARG:545:NH2:4928, V-A:ARG:545:CZ:4926, V-A:PRO:540:N:4884, V-A:PRO:540:CB:4885, V-A:PRO:540:CA:4883, V-A:TYR:539:CE1:4875"]

$$$$
ZINC1531203740
     RDKit          3D

 60 62  0  0  0  0  0  0  0  0999 V2000
  128.2210  133.0050   62.3520 C   0  0  0  0  0  0  0  0  0  0  0  0
  129.5700  132.2710   62.3820 C   0  0  0  0  0  0  0  0  0  0  0  0
  130.1270  132.0350   60.9650 C   0  0  0  0  0  0  0  0  0  0  0  0
  129.3770  131.0350   63.0700 O   0  0  0  0  0  0  0  0  0  0  0  0
  128.5640  130.9360   64.1470 C   0  0  0  0  0  0  0  0  0  0  0  0
  128.3870  131.8060   65.0040 O   0  0  0  0  0  0  0  0  0  0  0  0
  127.8510  129.5830   64.1980 C   0  0  0  0  0  0  0  0  0  0  0  0
  128.2070  128.8810   65.3860 O   0  0  0  0  0  0  0  0  0  0  0  0
  128.7330  127.6080   65.2800 C   0  0  0  0  0  0  0  0  0  0  0  0
  128.8690  126.9430   64.0520 C   0  0  0  0  0  0  0  0  0  0  0  0
  129.3730  125.6460   63.9930 C   0  0  0  0  0  0  0  0  0  0  0  0
  129.7530  124.9680   65.1560 C   0  0  0  0  0  0  0  0  0  0  0  0
  130.2470  123.5800   65.0340 C   0  0  0  0  0  0  0  0  0  0  0  0
  130.3590  122.8210   63.9930 N   0  0  0  0  0  0  0  0  0  0  0  0
  130.0840  123.2780   62.7130 N   0  0  0  0  0  0  0  0  0  0  0  0
  131.1330  123.7710   61.9110 C   0  0  0  0  0  0  0  0  0  0  0  0
  132.5930  124.0270   62.4610 C   0  0  0  0  0  0  0  0  0  0  0  0
  133.5460  124.5620   61.3450 C   0  0  0  0  0  0  0  0  0  0  0  0
  132.5990  125.1030   63.5850 C   0  0  0  0  0  0  0  0  0  0  0  0
  133.2100  122.7000   62.9730 C   0  0  0  0  0  0  0  0  0  0  0  0
  130.9110  124.0460   60.6690 N   0  0  0  0  0  0  0  0  0  0  0  0
  129.6390  123.9310   60.1030 C   0  0  0  0  0  0  0  0  0  0  0  0
  129.4840  124.2120   58.7450 C   0  0  0  0  0  0  0  0  0  0  0  0
  128.2160  124.1480   58.1650 C   0  0  0  0  0  0  0  0  0  0  0  0
  127.1040  123.8150   58.9430 C   0  0  0  0  0  0  0  0  0  0  0  0
  125.3770  123.7390   58.1450 Br  0  0  0  0  0  0  0  0  0  0  0  0
  127.2550  123.5380   60.3030 C   0  0  0  0  0  0  0  0  0  0  0  0
  128.5300  123.5870   60.8780 C   0  0  0  0  0  0  0  0  0  0  0  0
  128.7370  123.2770   62.3450 C   0  0  0  0  0  0  0  0  0  0  0  0
  127.7970  123.0250   63.1070 O   0  0  0  0  0  0  0  0  0  0  0  0
  129.6600  125.6560   66.3730 C   0  0  0  0  0  0  0  0  0  0  0  0
  129.1520  126.9580   66.4550 C   0  0  0  0  0  0  0  0  0  0  0  0
  129.0510  127.6060   67.7810 N   0  0  0  0  0  0  0  0  0  0  0  0
  127.9430  127.9360   68.1940 O   0  0  0  0  0  0  0  0  0  0  0  0
  130.0890  127.8030   68.4050 O   0  0  0  0  0  0  0  0  0  0  0  0
  127.8812  133.1899   63.3817 H   0  0  0  0  0  0  0  0  0  0  0  0
  128.3371  133.9643   61.8264 H   0  0  0  0  0  0  0  0  0  0  0  0
  127.4786  132.3864   61.8264 H   0  0  0  0  0  0  0  0  0  0  0  0
  130.3148  132.8892   62.9045 H   0  0  0  0  0  0  0  0  0  0  0  0
  131.1378  131.6067   61.0350 H   0  0  0  0  0  0  0  0  0  0  0  0
  129.4701  131.3379   60.4242 H   0  0  0  0  0  0  0  0  0  0  0  0
  130.1708  132.9919   60.4242 H   0  0  0  0  0  0  0  0  0  0  0  0
  126.7631  129.7453   64.1846 H   0  0  0  0  0  0  0  0  0  0  0  0
  128.1536  128.9859   63.3252 H   0  0  0  0  0  0  0  0  0  0  0  0
  128.5735  127.4530   63.1232 H   0  0  0  0  0  0  0  0  0  0  0  0
  129.4737  125.1475   63.0176 H   0  0  0  0  0  0  0  0  0  0  0  0
  130.5708  123.1196   65.9791 H   0  0  0  0  0  0  0  0  0  0  0  0
  134.4158  125.0503   61.8087 H   0  0  0  0  0  0  0  0  0  0  0  0
  133.8863  123.7231   60.7202 H   0  0  0  0  0  0  0  0  0  0  0  0
  133.0070  125.2894   60.7202 H   0  0  0  0  0  0  0  0  0  0  0  0
  132.5962  124.6074   64.5670 H   0  0  0  0  0  0  0  0  0  0  0  0
  133.5006  125.7261   63.4913 H   0  0  0  0  0  0  0  0  0  0  0  0
  131.7044  125.7361   63.4913 H   0  0  0  0  0  0  0  0  0  0  0  0
  133.2115  122.6967   64.0730 H   0  0  0  0  0  0  0  0  0  0  0  0
  132.6137  121.8522   62.6046 H   0  0  0  0  0  0  0  0  0  0  0  0
  134.2425  122.6096   62.6046 H   0  0  0  0  0  0  0  0  0  0  0  0
  130.3576  124.4829   58.1340 H   0  0  0  0  0  0  0  0  0  0  0  0
  128.0918  124.3602   57.0928 H   0  0  0  0  0  0  0  0  0  0  0  0
  126.3790  123.2833   60.9176 H   0  0  0  0  0  0  0  0  0  0  0  0
  129.9970  125.1571   67.2936 H   0  0  0  0  0  0  0  0  0  0  0  0
  1  2  1  0
  2  3  1  0
  2  4  1  0
  4  5  1  0
  5  6  2  0
  5  7  1  0
  7  8  1  0
  8  9  1  0
  9 10  2  0
 10 11  1  0
 11 12  2  0
 12 13  1  0
 13 14  2  0
 14 15  1  0
 15 16  1  0
 16 17  1  0
 17 18  1  0
 17 19  1  0
 17 20  1  0
 16 21  2  0
 21 22  1  0
 22 23  2  0
 23 24  1  0
 24 25  2  0
 25 26  1  0
 25 27  1  0
 27 28  2  0
 28 29  1  0
 29 30  2  0
 12 31  1  0
 31 32  2  0
 32 33  1  0
 33 34  2  0
 33 35  1  0
 32  9  1  0
 29 15  1  0
 28 22  1  0
  1 36  1  0
  1 37  1  0
  1 38  1  0
  2 39  1  0
  3 40  1  0
  3 41  1  0
  3 42  1  0
  7 43  1  0
  7 44  1  0
 10 45  1  0
 11 46  1  0
 13 47  1  0
 18 48  1  0
 18 49  1  0
 18 50  1  0
 19 51  1  0
 19 52  1  0
 19 53  1  0
 20 54  1  0
 20 55  1  0
 20 56  1  0
 23 57  1  0
 24 58  1  0
 27 59  1  0
 31 60  1  0
M  CHG  2  33   1  35  -1
M  END
>  <Binding energies>  (1) 
[-7.32]

>  <Ligand effiencies>  (1) 
[-0.20914285714285716]

>  <Interactions>  (1) 
["V-B:PRO:540:CA:9855, V-A:GLY:454:CA:4049, V-B:GLU:543:CB:9878, V-B:TYR:539:CE2:9848, V-A:TYR:484:CE2:4346, V-B:GLU:543:CG:9879, V-A:ASP:366:CG:3213, V-B:TYR:539:CZ:9849, V-A:ALA:541:CB:4892, H-B:ALA:541:N:9863, V-A:GLU:543:CD:4908, V-A:TYR:484:CZ:4347, V-B:PRO:540:CB:9857, H-B:TYR:484:OH:9319, V-B:TYR:539:CD2:9846, V-A:GLU:543:CG:4907, V-B:GLU:543:CD:9880, V-A:LEU:475:CD2:4259, V-A:ARG:545:CZ:4926, V-A:GLU:543:CB:4906, V-A:PRO:540:CA:4883"]

$$$$
ZINC1531256737
     RDKit          3D

 64 66  0  0  0  0  0  0  0  0999 V2000
  133.4960  123.7590   59.6270 C   0  0  0  0  0  0  0  0  0  0  0  0
  134.3640  123.0460   60.6690 C   0  0  0  0  0  0  0  0  0  0  0  0
  133.5350  122.1700   61.4260 O   0  0  0  0  0  0  0  0  0  0  0  0
  132.2770  122.5860   61.8220 C   0  0  0  0  0  0  0  0  0  0  0  0
  132.0480  123.5400   62.8270 C   0  0  0  0  0  0  0  0  0  0  0  0
  130.7490  123.9320   63.1780 C   0  0  0  0  0  0  0  0  0  0  0  0
  130.4890  124.9300   64.2220 C   0  0  0  0  0  0  0  0  0  0  0  0
  129.3430  125.4750   64.4190 N   0  0  0  0  0  0  0  0  0  0  0  0
  129.2640  126.4100   65.4340 N   0  0  0  0  0  0  0  0  0  0  0  0
  128.6590  127.6530   65.1930 C   0  0  0  0  0  0  0  0  0  0  0  0
  128.1520  128.0490   63.7770 C   0  0  2  0  0  0  0  0  0  0  0  0
  129.2410  127.8270   62.7010 C   0  0  0  0  0  0  0  0  0  0  0  0
  127.6280  129.5090   63.7500 C   0  0  0  0  0  0  0  0  0  0  0  0
  128.5400  130.5030   63.0070 C   0  0  0  0  0  0  0  0  0  0  0  0
  128.4960  128.5110   66.1420 N   0  0  0  0  0  0  0  0  0  0  0  0
  128.9070  128.2220   67.4480 C   0  0  0  0  0  0  0  0  0  0  0  0
  128.7190  129.1920   68.4340 C   0  0  0  0  0  0  0  0  0  0  0  0
  129.1030  128.9270   69.7490 C   0  0  0  0  0  0  0  0  0  0  0  0
  129.6710  127.6940   70.0810 C   0  0  0  0  0  0  0  0  0  0  0  0
  130.1860  127.3410   71.8780 Br  0  0  0  0  0  0  0  0  0  0  0  0
  129.8600  126.7200   69.0980 C   0  0  0  0  0  0  0  0  0  0  0  0
  129.4800  126.9900   67.7780 C   0  0  0  0  0  0  0  0  0  0  0  0
  129.6670  125.9540   66.6870 C   0  0  0  0  0  0  0  0  0  0  0  0
  130.1280  124.8290   66.9130 O   0  0  0  0  0  0  0  0  0  0  0  0
  129.6730  123.3400   62.5130 C   0  0  0  0  0  0  0  0  0  0  0  0
  129.8680  122.3780   61.5140 C   0  0  0  0  0  0  0  0  0  0  0  0
  128.6930  121.7540   60.8690 N   0  0  0  0  0  0  0  0  0  0  0  0
  128.1340  122.3720   59.9670 O   0  0  0  0  0  0  0  0  0  0  0  0
  128.3150  120.6590   61.2730 O   0  0  0  0  0  0  0  0  0  0  0  0
  131.1810  122.0210   61.1580 C   0  0  0  0  0  0  0  0  0  0  0  0
  131.4280  121.1050   60.1600 O   0  0  0  0  0  0  0  0  0  0  0  0
  131.6860  119.7520   60.5610 C   0  0  1  0  0  0  0  0  0  0  0  0
  130.4930  119.0920   61.2960 C   0  0  0  0  0  0  0  0  0  0  0  0
  132.1190  118.9300   59.3380 C   0  0  0  0  0  0  0  0  0  0  0  0
  131.4510  117.9820   58.9160 O   0  0  0  0  0  0  0  0  0  0  0  0
  133.2790  119.3750   58.8060 O   0  0  0  0  0  0  0  0  0  0  0  0
  133.7570  118.8490   57.5760 C   0  0  0  0  0  0  0  0  0  0  0  0
  132.7433  124.3773   60.1380 H   0  0  0  0  0  0  0  0  0  0  0  0
  134.1309  124.3998   58.9975 H   0  0  0  0  0  0  0  0  0  0  0  0
  132.9907  123.0118   58.9975 H   0  0  0  0  0  0  0  0  0  0  0  0
  135.1506  122.4671   60.1629 H   0  0  0  0  0  0  0  0  0  0  0  0
  134.8373  123.7840   61.3333 H   0  0  0  0  0  0  0  0  0  0  0  0
  132.9058  123.9887   63.3494 H   0  0  0  0  0  0  0  0  0  0  0  0
  131.3237  125.2284   64.8733 H   0  0  0  0  0  0  0  0  0  0  0  0
  127.3075  127.3866   63.5361 H   0  0  0  0  0  0  0  0  0  0  0  0
  130.2060  127.6303   63.1911 H   0  0  0  0  0  0  0  0  0  0  0  0
  128.9663  126.9664   62.0734 H   0  0  0  0  0  0  0  0  0  0  0  0
  129.3251  128.7265   62.0734 H   0  0  0  0  0  0  0  0  0  0  0  0
  126.6444  129.5116   63.2576 H   0  0  0  0  0  0  0  0  0  0  0  0
  127.5870  129.8453   64.7965 H   0  0  0  0  0  0  0  0  0  0  0  0
  129.0954  131.1083   63.7385 H   0  0  0  0  0  0  0  0  0  0  0  0
  129.2498  129.9481   62.3759 H   0  0  0  0  0  0  0  0  0  0  0  0
  127.9262  131.1625   62.3759 H   0  0  0  0  0  0  0  0  0  0  0  0
  128.2696  130.1621   68.1752 H   0  0  0  0  0  0  0  0  0  0  0  0
  128.9582  129.6911   70.5269 H   0  0  0  0  0  0  0  0  0  0  0  0
  130.3041  125.7481   69.3591 H   0  0  0  0  0  0  0  0  0  0  0  0
  128.6479  123.6364   62.7802 H   0  0  0  0  0  0  0  0  0  0  0  0
  132.5035  119.7742   61.2967 H   0  0  0  0  0  0  0  0  0  0  0  0
  130.6412  119.1740   62.3829 H   0  0  0  0  0  0  0  0  0  0  0  0
  129.5605  119.6025   61.0136 H   0  0  0  0  0  0  0  0  0  0  0  0
  130.4300  118.0307   61.0136 H   0  0  0  0  0  0  0  0  0  0  0  0
  134.4843  118.0487   57.7774 H   0  0  0  0  0  0  0  0  0  0  0  0
  132.9137  118.4415   56.9991 H   0  0  0  0  0  0  0  0  0  0  0  0
  134.2431  119.6495   56.9991 H   0  0  0  0  0  0  0  0  0  0  0  0
  1  2  1  0
  2  3  1  0
  3  4  1  0
  4  5  2  0
  5  6  1  0
  6  7  1  0
  7  8  2  0
  8  9  1  0
  9 10  1  0
 10 11  1  0
 11 12  1  0
 11 13  1  0
 13 14  1  0
 10 15  2  0
 15 16  1  0
 16 17  2  0
 17 18  1  0
 18 19  2  0
 19 20  1  0
 19 21  1  0
 21 22  2  0
 22 23  1  0
 23 24  2  0
  6 25  2  0
 25 26  1  0
 26 27  1  0
 27 28  2  0
 27 29  1  0
 26 30  2  0
 30 31  1  0
 31 32  1  0
 32 33  1  0
 32 34  1  0
 34 35  2  0
 34 36  1  0
 36 37  1  0
 30  4  1  0
 23  9  1  0
 22 16  1  0
  1 38  1  0
  1 39  1  0
  1 40  1  0
  2 41  1  0
  2 42  1  0
  5 43  1  0
  7 44  1  0
 11 45  1  6
 12 46  1  0
 12 47  1  0
 12 48  1  0
 13 49  1  0
 13 50  1  0
 14 51  1  0
 14 52  1  0
 14 53  1  0
 17 54  1  0
 18 55  1  0
 21 56  1  0
 25 57  1  0
 32 58  1  1
 33 59  1  0
 33 60  1  0
 33 61  1  0
 37 62  1  0
 37 63  1  0
 37 64  1  0
M  CHG  2  27   1  29  -1
M  END
>  <Binding energies>  (1) 
[-5.48]

>  <Ligand effiencies>  (1) 
[-0.14810810810810812]

>  <Interactions>  (1) 
["V-A:ILE:369:CG2:3237, V-B:PRO:540:CA:9855, V-A:GLU:543:CA:4904, V-B:HIS:456:CD2:9039, V-A:ILE:369:CB:3236, V-A:GLU:543:C:4902, V-B:GLU:543:CB:9878, V-B:ALA:541:CB:9864, V-B:TYR:539:CE2:9848, V-A:LEU:475:CG:4257, V-B:GLU:543:CG:9879, V-B:TYR:539:C:9839, V-A:HIS:456:CD2:4068, H-B:ALA:541:N:9863, V-B:TYR:539:CB:9843, V-A:GLU:543:CD:4908, V-B:HIS:456:CE1:9041, V-B:PRO:540:N:9856, V-A:ILE:369:CD1:3239, V-A:HIS:456:CE1:4070, V-B:TYR:539:CD2:9846, V-A:GLU:543:CG:4907, H-A:SER:385:OG:3410, V-B:GLU:543:CD:9880, V-A:ILE:369:CG1:3238, V-A:LEU:373:CD2:3281, V-A:LEU:475:CD2:4259, V-B:TYR:539:CG:9844, V-A:GLU:543:CB:4906, V-A:HIS:383:CD2:3392, H-A:HIS:383:HE2:3395, V-A:LEU:373:CD1:3280, V-B:PRO:540:C:9853, V-A:HIS:383:NE2:3394, H-A:TYR:484:OH:4348"]

$$$$
ZINC1531268857
     RDKit          3D

 60 62  0  0  0  0  0  0  0  0999 V2000
  126.0200  123.5800   61.2830 C   0  0  0  0  0  0  0  0  0  0  0  0
  127.4960  123.8600   61.5850 C   0  0  0  0  0  0  0  0  0  0  0  0
  128.0020  122.8300   62.4210 O   0  0  0  0  0  0  0  0  0  0  0  0
  129.1120  122.1380   62.0770 C   0  0  0  0  0  0  0  0  0  0  0  0
  129.4180  121.7920   60.9330 O   0  0  0  0  0  0  0  0  0  0  0  0
  130.0240  121.7920   63.2750 C   0  0  2  0  0  0  0  0  0  0  0  0
  129.3970  122.2690   64.5950 C   0  0  0  0  0  0  0  0  0  0  0  0
  131.3150  122.4120   63.1870 O   0  0  0  0  0  0  0  0  0  0  0  0
  131.8130  122.8960   61.9840 C   0  0  0  0  0  0  0  0  0  0  0  0
  132.3710  122.0580   61.0030 C   0  0  0  0  0  0  0  0  0  0  0  0
  132.8620  122.5780   59.8110 C   0  0  0  0  0  0  0  0  0  0  0  0
  132.8160  123.9520   59.5580 C   0  0  0  0  0  0  0  0  0  0  0  0
  133.3390  124.5100   58.2870 N   0  0  0  0  0  0  0  0  0  0  0  0
  133.9690  123.7720   57.5350 O   0  0  0  0  0  0  0  0  0  0  0  0
  133.1220  125.6910   58.0310 O   0  0  0  0  0  0  0  0  0  0  0  0
  132.2620  124.7880   60.5360 C   0  0  0  0  0  0  0  0  0  0  0  0
  131.7570  124.2860   61.7470 C   0  0  0  0  0  0  0  0  0  0  0  0
  131.1710  125.1980   62.7470 C   0  0  0  0  0  0  0  0  0  0  0  0
  130.0350  125.0100   63.3170 N   0  0  0  0  0  0  0  0  0  0  0  0
  129.6370  125.9660   64.2320 N   0  0  0  0  0  0  0  0  0  0  0  0
  128.9080  127.0860   63.8040 C   0  0  0  0  0  0  0  0  0  0  0  0
  128.6070  127.3350   62.2990 C   0  0  2  0  0  0  0  0  0  0  0  0
  129.3300  128.6030   61.7870 C   0  0  0  0  0  0  0  0  0  0  0  0
  127.0820  127.4090   62.0260 C   0  0  0  0  0  0  0  0  0  0  0  0
  126.4290  128.7480   62.4160 C   0  0  0  0  0  0  0  0  0  0  0  0
  128.4580  127.9510   64.6470 N   0  0  0  0  0  0  0  0  0  0  0  0
  128.6730  127.7920   66.0200 C   0  0  0  0  0  0  0  0  0  0  0  0
  128.1720  128.7640   66.8880 C   0  0  0  0  0  0  0  0  0  0  0  0
  128.3620  128.6280   68.2640 C   0  0  0  0  0  0  0  0  0  0  0  0
  129.0460  127.5220   68.7730 C   0  0  0  0  0  0  0  0  0  0  0  0
  129.2970  127.3440   70.6520 Br  0  0  0  0  0  0  0  0  0  0  0  0
  129.5460  126.5450   67.9100 C   0  0  0  0  0  0  0  0  0  0  0  0
  129.3610  126.6860   66.5300 C   0  0  0  0  0  0  0  0  0  0  0  0
  129.8850  125.6420   65.5630 C   0  0  0  0  0  0  0  0  0  0  0  0
  130.4690  124.6200   65.9450 O   0  0  0  0  0  0  0  0  0  0  0  0
  125.4660  123.4749   62.2275 H   0  0  0  0  0  0  0  0  0  0  0  0
  125.5998  124.4145   60.7024 H   0  0  0  0  0  0  0  0  0  0  0  0
  125.9346  122.6496   60.7024 H   0  0  0  0  0  0  0  0  0  0  0  0
  128.0662  123.8848   60.6447 H   0  0  0  0  0  0  0  0  0  0  0  0
  127.5930  124.8310   62.0928 H   0  0  0  0  0  0  0  0  0  0  0  0
  130.1355  120.6979   63.2502 H   0  0  0  0  0  0  0  0  0  0  0  0
  129.9562  121.8436   65.4414 H   0  0  0  0  0  0  0  0  0  0  0  0
  129.4369  123.3672   64.6441 H   0  0  0  0  0  0  0  0  0  0  0  0
  128.3493  121.9376   64.6441 H   0  0  0  0  0  0  0  0  0  0  0  0
  132.4199  120.9737   61.1814 H   0  0  0  0  0  0  0  0  0  0  0  0
  133.2916  121.9006   59.0583 H   0  0  0  0  0  0  0  0  0  0  0  0
  132.2211  125.8714   60.3499 H   0  0  0  0  0  0  0  0  0  0  0  0
  131.7429  126.0964   63.0224 H   0  0  0  0  0  0  0  0  0  0  0  0
  128.9993  126.4740   61.7379 H   0  0  0  0  0  0  0  0  0  0  0  0
  129.6714  129.2018   62.6443 H   0  0  0  0  0  0  0  0  0  0  0  0
  130.1966  128.3096   61.1763 H   0  0  0  0  0  0  0  0  0  0  0  0
  128.6361  129.1993   61.1763 H   0  0  0  0  0  0  0  0  0  0  0  0
  126.9169  127.2463   60.9507 H   0  0  0  0  0  0  0  0  0  0  0  0
  126.6133  126.6371   62.6541 H   0  0  0  0  0  0  0  0  0  0  0  0
  126.3886  128.8307   63.5121 H   0  0  0  0  0  0  0  0  0  0  0  0
  127.0232  129.5785   62.0072 H   0  0  0  0  0  0  0  0  0  0  0  0
  125.4087  128.7912   62.0072 H   0  0  0  0  0  0  0  0  0  0  0  0
  127.6296  129.6338   66.4889 H   0  0  0  0  0  0  0  0  0  0  0  0
  127.9717  129.3945   68.9497 H   0  0  0  0  0  0  0  0  0  0  0  0
  130.0809  125.6717   68.3114 H   0  0  0  0  0  0  0  0  0  0  0  0
  1  2  1  0
  2  3  1  0
  3  4  1  0
  4  5  2  0
  4  6  1  0
  6  7  1  0
  6  8  1  0
  8  9  1  0
  9 10  2  0
 10 11  1  0
 11 12  2  0
 12 13  1  0
 13 14  2  0
 13 15  1  0
 12 16  1  0
 16 17  2  0
 17 18  1  0
 18 19  2  0
 19 20  1  0
 20 21  1  0
 21 22  1  0
 22 23  1  0
 22 24  1  0
 24 25  1  0
 21 26  2  0
 26 27  1  0
 27 28  2  0
 28 29  1  0
 29 30  2  0
 30 31  1  0
 30 32  1  0
 32 33  2  0
 33 34  1  0
 34 35  2  0
 17  9  1  0
 34 20  1  0
 33 27  1  0
  1 36  1  0
  1 37  1  0
  1 38  1  0
  2 39  1  0
  2 40  1  0
  6 41  1  1
  7 42  1  0
  7 43  1  0
  7 44  1  0
 10 45  1  0
 11 46  1  0
 16 47  1  0
 18 48  1  0
 22 49  1  6
 23 50  1  0
 23 51  1  0
 23 52  1  0
 24 53  1  0
 24 54  1  0
 25 55  1  0
 25 56  1  0
 25 57  1  0
 28 58  1  0
 29 59  1  0
 32 60  1  0
M  CHG  2  13   1  15  -1
M  END
>  <Binding energies>  (1) 
[-7.16]

>  <Ligand effiencies>  (1) 
[-0.20457142857142857]

>  <Interactions>  (1) 
["V-A:ILE:369:CG2:3237, V-A:ASP:366:CA:3210, V-B:PRO:540:CA:9855, V-B:GLU:543:CB:9878, V-B:ALA:541:CB:9864, H-A:TYR:531:OH:4795, V-B:TYR:539:CE2:9848, V-A:TYR:484:CE2:4346, V-B:GLU:543:CG:9879, V-A:ASP:366:CG:3213, V-B:TYR:539:CZ:9849, H-A:ASN:370:N:3244, H-B:TYR:539:OH:9850, H-B:ALA:541:N:9863, V-A:GLU:543:CD:4908, V-B:PRO:540:CB:9857, V-B:HIS:456:CE1:9041, V-A:HIS:456:CE1:4070, V-A:ASP:366:C:3208, V-B:TYR:539:CD2:9846, V-A:GLU:543:CG:4907, V-B:GLU:543:CD:9880, V-A:ASP:366:CB:3212, V-A:LEU:475:CD2:4259, V-A:GLU:543:CB:4906, H-A:TYR:484:OH:4348"]

$$$$
ZINC1534676399
     RDKit          3D

 65 68  0  0  0  0  0  0  0  0999 V2000
  133.9840  123.9520   59.6390 C   0  0  0  0  0  0  0  0  0  0  0  0
  133.4200  125.0380   60.3620 O   0  0  0  0  0  0  0  0  0  0  0  0
  132.1450  124.7800   60.9420 C   0  0  2  0  0  0  0  0  0  0  0  0
  131.3200  126.0720   61.1670 C   0  0  0  0  0  0  0  0  0  0  0  0
  129.8360  126.0300   60.7410 C   0  0  0  0  0  0  0  0  0  0  0  0
  128.9520  126.2720   61.5650 O   0  0  0  0  0  0  0  0  0  0  0  0
  129.5070  125.6400   59.2510 C   0  0  2  0  0  0  0  0  0  0  0  0
  130.8290  125.6750   58.4250 C   0  0  0  0  0  0  0  0  0  0  0  0
  131.6710  124.7840   58.3310 O   0  0  0  0  0  0  0  0  0  0  0  0
  130.9010  126.9050   57.8600 N   0  0  0  0  0  0  0  0  0  0  0  0
  129.7180  127.7590   57.9940 C   0  0  2  0  0  0  0  0  0  0  0  0
  129.9860  128.9740   58.9210 C   0  0  0  0  0  0  0  0  0  0  0  0
  130.7720  130.1410   58.2700 C   0  0  0  0  0  0  0  0  0  0  0  0
  130.2150  130.4680   56.8730 C   0  0  0  0  0  0  0  0  0  0  0  0
  132.2890  129.8730   58.2010 C   0  0  0  0  0  0  0  0  0  0  0  0
  128.7140  126.6920   58.4400 C   0  0  2  0  0  0  0  0  0  0  0  0
  127.2960  126.9550   58.9370 C   0  0  0  0  0  0  0  0  0  0  0  0
  126.6060  128.2660   58.5990 C   0  0  0  0  0  0  0  0  0  0  0  0
  126.6240  125.9420   59.5260 C   0  0  0  0  0  0  0  0  0  0  0  0
  127.1900  124.5590   59.8690 C   0  0  2  0  0  0  0  0  0  0  0  0
  127.0650  124.4310   61.2690 O   0  0  0  0  0  0  0  0  0  0  0  0
  128.6390  124.3190   59.2590 C   0  0  2  0  0  0  0  0  0  0  0  0
  129.4220  123.1000   59.7910 C   0  0  0  0  0  0  0  0  0  0  0  0
  129.0170  122.1080   60.6040 C   0  0  0  0  0  0  0  0  0  0  0  0
  129.9380  121.0830   61.2360 C   0  0  0  0  0  0  0  0  0  0  0  0
  131.4300  121.5030   61.2560 C   0  0  0  0  0  0  0  0  0  0  0  0
  131.9400  122.4520   62.3780 C   0  0  1  0  0  0  0  0  0  0  0  0
  133.2500  122.9370   62.2790 O   0  0  0  0  0  0  0  0  0  0  0  0
  132.2600  123.9390   62.2540 C   0  0  1  0  0  0  0  0  0  0  0  0
  132.1300  124.7850   63.5340 C   0  0  0  0  0  0  0  0  0  0  0  0
  134.3726  123.2037   60.3454 H   0  0  0  0  0  0  0  0  0  0  0  0
  133.2109  123.4920   59.0060 H   0  0  0  0  0  0  0  0  0  0  0  0
  134.8050  124.3199   59.0060 H   0  0  0  0  0  0  0  0  0  0  0  0
  131.5913  124.1749   60.2090 H   0  0  0  0  0  0  0  0  0  0  0  0
  131.3519  126.3050   62.2416 H   0  0  0  0  0  0  0  0  0  0  0  0
  131.7856  126.8290   60.5189 H   0  0  0  0  0  0  0  0  0  0  0  0
  131.7310  127.2360   57.3910 H   0  0  0  0  0  0  0  0  0  0  0  0
  129.3587  128.3086   57.1115 H   0  0  0  0  0  0  0  0  0  0  0  0
  129.0149  129.3647   59.2590 H   0  0  0  0  0  0  0  0  0  0  0  0
  130.6183  128.5995   59.7395 H   0  0  0  0  0  0  0  0  0  0  0  0
  130.6313  131.0156   58.9222 H   0  0  0  0  0  0  0  0  0  0  0  0
  129.2705  131.0225   56.9754 H   0  0  0  0  0  0  0  0  0  0  0  0
  130.9429  131.0821   56.3226 H   0  0  0  0  0  0  0  0  0  0  0  0
  130.0335  129.5331   56.3226 H   0  0  0  0  0  0  0  0  0  0  0  0
  132.6954  129.8012   59.2206 H   0  0  0  0  0  0  0  0  0  0  0  0
  132.4706  128.9289   57.6666 H   0  0  0  0  0  0  0  0  0  0  0  0
  132.7831  130.6978   57.6666 H   0  0  0  0  0  0  0  0  0  0  0  0
  128.3016  126.3651   57.4741 H   0  0  0  0  0  0  0  0  0  0  0  0
  126.3321  128.7865   59.5286 H   0  0  0  0  0  0  0  0  0  0  0  0
  127.2880  128.8986   58.0119 H   0  0  0  0  0  0  0  0  0  0  0  0
  125.6984  128.0620   58.0119 H   0  0  0  0  0  0  0  0  0  0  0  0
  125.5708  126.1269   59.7840 H   0  0  0  0  0  0  0  0  0  0  0  0
  126.6288  123.7415   59.3929 H   0  0  0  0  0  0  0  0  0  0  0  0
  127.0090  125.3090   61.6520 H   0  0  0  0  0  0  0  0  0  0  0  0
  128.4296  124.0354   58.2170 H   0  0  0  0  0  0  0  0  0  0  0  0
  130.4673  123.0324   59.4551 H   0  0  0  0  0  0  0  0  0  0  0  0
  127.9421  122.0353   60.8259 H   0  0  0  0  0  0  0  0  0  0  0  0
  129.6114  120.9176   62.2733 H   0  0  0  0  0  0  0  0  0  0  0  0
  129.8717  120.1736   60.6207 H   0  0  0  0  0  0  0  0  0  0  0  0
  132.0224  120.5787   61.3240 H   0  0  0  0  0  0  0  0  0  0  0  0
  131.5444  122.0997   60.3390 H   0  0  0  0  0  0  0  0  0  0  0  0
  131.2938  121.8901   63.0685 H   0  0  0  0  0  0  0  0  0  0  0  0
  132.2300  124.1343   64.4153 H   0  0  0  0  0  0  0  0  0  0  0  0
  132.9213  125.5489   63.5506 H   0  0  0  0  0  0  0  0  0  0  0  0
  131.1458  125.2761   63.5506 H   0  0  0  0  0  0  0  0  0  0  0  0
  1  2  1  0
  2  3  1  0
  3  4  1  0
  4  5  1  0
  5  6  2  0
  7  5  1  1
  7  8  1  0
  8  9  2  0
  8 10  1  0
 10 11  1  0
 11 12  1  0
 12 13  1  0
 13 14  1  0
 13 15  1  0
 11 16  1  0
 16 17  1  0
 17 18  1  0
 17 19  2  0
 19 20  1  0
 20 21  1  0
 20 22  1  0
 22 23  1  0
 23 24  2  0
 24 25  1  0
 25 26  1  0
 26 27  1  0
 27 28  1  0
 28 29  1  0
 29 30  1  1
 29  3  1  0
 16  7  1  0
 29 27  1  0
 22  7  1  0
  1 31  1  0
  1 32  1  0
  1 33  1  0
  3 34  1  6
  4 35  1  0
  4 36  1  0
 10 37  1  0
 11 38  1  6
 12 39  1  0
 12 40  1  0
 13 41  1  0
 14 42  1  0
 14 43  1  0
 14 44  1  0
 15 45  1  0
 15 46  1  0
 15 47  1  0
 16 48  1  6
 18 49  1  0
 18 50  1  0
 18 51  1  0
 19 52  1  0
 20 53  1  6
 21 54  1  0
 22 55  1  6
 23 56  1  0
 24 57  1  0
 25 58  1  0
 25 59  1  0
 26 60  1  0
 26 61  1  0
 27 62  1  1
 30 63  1  0
 30 64  1  0
 30 65  1  0
M  END
>  <Binding energies>  (1) 
[-3.94]

>  <Ligand effiencies>  (1) 
[-0.11588235294117646]

>  <Interactions>  (1) 
["V-A:ILE:369:CG2:3237, V-A:ASP:366:CA:3210, V-A:ILE:369:CD1:3239, V-B:PRO:540:CA:9855, V-A:ILE:369:CB:3236, H-B:GLU:543:OE1:9881, H-B:TYR:539:OH:9850, V-B:TYR:539:CD2:9846, V-A:MET:535:CE:4835, V-B:ALA:541:CB:9864, H-A:TYR:531:OH:4795, V-B:TYR:539:CE2:9848, V-A:ASP:366:CB:3212, V-A:LEU:475:CD2:4259, V-A:ASP:366:CG:3213"]

$$$$
ZINC1535645006
     RDKit          3D

 51 55  0  0  0  0  0  0  0  0999 V2000
  128.3330  128.1460   63.6500 O   0  0  0  0  0  0  0  0  0  0  0  0
  128.4050  128.1050   64.8780 C   0  0  0  0  0  0  0  0  0  0  0  0
  127.8390  129.0840   65.6380 N   0  0  0  0  0  0  0  0  0  0  0  0
  127.8880  129.1160   67.0020 C   0  0  0  0  0  0  0  0  0  0  0  0
  128.4930  128.1930   67.7710 C   0  0  0  0  0  0  0  0  0  0  0  0
  129.1490  127.0640   67.0950 C   0  0  0  0  0  0  0  0  0  0  0  0
  129.8040  126.0620   67.8070 C   0  0  0  0  0  0  0  0  0  0  0  0
  130.4160  125.0100   67.1260 C   0  0  0  0  0  0  0  0  0  0  0  0
  130.3850  124.9340   65.7250 C   0  0  0  0  0  0  0  0  0  0  0  0
  131.0170  123.8720   65.0310 N   0  0  0  0  0  0  0  0  0  0  0  0
  130.2210  122.6800   64.7020 C   0  0  0  0  0  0  0  0  0  0  0  0
  129.6320  122.7020   63.3040 C   0  0  0  0  0  0  0  0  0  0  0  0
  129.9830  122.0750   62.1140 C   0  0  0  0  0  0  0  0  0  0  0  0
  129.0230  122.4980   61.1430 C   0  0  0  0  0  0  0  0  0  0  0  0
  128.7580  122.2820   59.7830 C   0  0  0  0  0  0  0  0  0  0  0  0
  127.7110  122.8810   59.1530 N   0  0  0  0  0  0  0  0  0  0  0  0
  126.9020  123.7120   59.8610 C   0  0  0  0  0  0  0  0  0  0  0  0
  127.0680  123.9990   61.2170 C   0  0  0  0  0  0  0  0  0  0  0  0
  128.1540  123.3660   61.8360 C   0  0  0  0  0  0  0  0  0  0  0  0
  128.5220  123.4800   63.1420 O   0  0  0  0  0  0  0  0  0  0  0  0
  132.6420  124.0000   64.2680 S   0  0  0  0  0  0  0  0  0  0  0  0
  133.4640  124.8970   65.0900 O   0  0  0  0  0  0  0  0  0  0  0  0
  133.0890  122.6310   63.9810 O   0  0  0  0  0  0  0  0  0  0  0  0
  132.3620  124.7940   62.6860 C   0  0  0  0  0  0  0  0  0  0  0  0
  131.3600  125.7580   62.5390 C   0  0  0  0  0  0  0  0  0  0  0  0
  131.1030  126.3170   61.2860 C   0  0  0  0  0  0  0  0  0  0  0  0
  131.8330  125.9020   60.1730 C   0  0  0  0  0  0  0  0  0  0  0  0
  132.8300  124.9320   60.3130 C   0  0  0  0  0  0  0  0  0  0  0  0
  133.7370  124.3590   58.8840 S   0  0  0  0  0  0  0  0  0  0  0  0
  133.1830  124.9760   57.6730 O   0  0  0  0  0  0  0  0  0  0  0  0
  135.1720  124.3450   59.1830 O   0  0  0  0  0  0  0  0  0  0  0  0
  133.2630  122.8030   58.8560 F   0  0  0  0  0  0  0  0  0  0  0  0
  133.1030  124.3920   61.5710 C   0  0  0  0  0  0  0  0  0  0  0  0
  129.7220  125.9510   65.0170 C   0  0  0  0  0  0  0  0  0  0  0  0
  129.1070  127.0140   65.6870 C   0  0  0  0  0  0  0  0  0  0  0  0
  127.3680  129.8180   65.1290 H   0  0  0  0  0  0  0  0  0  0  0  0
  127.3964  129.9589   67.5097 H   0  0  0  0  0  0  0  0  0  0  0  0
  128.4969  128.2798   68.8676 H   0  0  0  0  0  0  0  0  0  0  0  0
  129.8386  126.1004   68.9058 H   0  0  0  0  0  0  0  0  0  0  0  0
  130.9327  124.2251   67.6977 H   0  0  0  0  0  0  0  0  0  0  0  0
  130.8686  121.7953   64.7913 H   0  0  0  0  0  0  0  0  0  0  0  0
  129.3753  122.6563   65.4050 H   0  0  0  0  0  0  0  0  0  0  0  0
  130.8292  121.3910   61.9521 H   0  0  0  0  0  0  0  0  0  0  0  0
  129.4141  121.6103   59.2100 H   0  0  0  0  0  0  0  0  0  0  0  0
  126.0634  124.1886   59.3323 H   0  0  0  0  0  0  0  0  0  0  0  0
  126.3929  124.6753   61.7619 H   0  0  0  0  0  0  0  0  0  0  0  0
  130.7728  126.0767   63.4129 H   0  0  0  0  0  0  0  0  0  0  0  0
  130.3238  127.0857   61.1766 H   0  0  0  0  0  0  0  0  0  0  0  0
  131.6245  126.3378   59.1848 H   0  0  0  0  0  0  0  0  0  0  0  0
  133.9044  123.6472   61.6853 H   0  0  0  0  0  0  0  0  0  0  0  0
  129.6861  125.9105   63.9183 H   0  0  0  0  0  0  0  0  0  0  0  0
  1  2  2  0
  2  3  1  0
  3  4  1  0
  4  5  2  0
  5  6  1  0
  6  7  2  0
  7  8  1  0
  8  9  2  0
  9 10  1  0
 10 11  1  0
 11 12  1  0
 12 13  2  0
 13 14  1  0
 14 15  2  0
 15 16  1  0
 16 17  2  0
 17 18  1  0
 18 19  2  0
 19 20  1  0
 10 21  1  0
 21 22  2  0
 21 23  2  0
 21 24  1  0
 24 25  2  0
 25 26  1  0
 26 27  2  0
 27 28  1  0
 28 29  1  0
 29 30  2  0
 29 31  2  0
 29 32  1  0
 28 33  2  0
  9 34  1  0
 34 35  2  0
 35  2  1  0
 35  6  1  0
 20 12  1  0
 33 24  1  0
 19 14  1  0
  3 36  1  0
  4 37  1  0
  5 38  1  0
  7 39  1  0
  8 40  1  0
 11 41  1  0
 11 42  1  0
 13 43  1  0
 15 44  1  0
 17 45  1  0
 18 46  1  0
 25 47  1  0
 26 48  1  0
 27 49  1  0
 33 50  1  0
 34 51  1  0
M  END
>  <Binding energies>  (1) 
[-8.85]

>  <Ligand effiencies>  (1) 
[-0.24583333333333332]

>  <Interactions>  (1) 
["V-A:ILE:369:CG2:3237, V-A:ASP:366:CA:3210, V-B:PRO:540:CA:9855, V-A:GLY:454:CA:4049, V-A:ILE:369:CB:3236, V-B:GLU:543:CB:9878, V-B:ALA:541:CB:9864, V-B:TYR:539:CE2:9848, V-A:TYR:484:CE2:4346, V-B:GLU:543:CG:9879, V-B:TYR:539:C:9839, V-A:ASP:366:CG:3213, V-B:TYR:539:CZ:9849, H-B:TYR:539:OH:9850, V-A:TYR:484:CZ:4347, V-A:GLU:543:CD:4908, V-B:PRO:540:CB:9857, H-B:TYR:484:OH:9319, V-B:HIS:456:CE1:9041, H-A:GLY:454:N:4050, V-B:PRO:540:N:9856, H-A:ASP:366:N:3211, V-B:TYR:484:CZ:9318, V-A:HIS:456:CE1:4070, V-A:ASP:366:C:3208, V-B:TYR:539:CD2:9846, V-A:GLU:543:CG:4907, V-B:GLU:543:CD:9880, V-A:ASP:366:CB:3212, V-A:LEU:475:CD2:4259, H-A:ARG:545:NH2:4928, V-A:GLU:543:CB:4906, H-B:GLU:543:OE2:9882, H-A:ARG:545:NE:4924, H-A:TYR:484:OH:4348"]

$$$$
ZINC1540174762
     RDKit          3D

 51 52  0  0  0  0  0  0  0  0999 V2000
  133.8910  124.3330   58.3470 C   0  0  0  0  0  0  0  0  0  0  0  0
  133.9940  124.3580   59.6850 C   0  0  0  0  0  0  0  0  0  0  0  0
  133.0220  125.0660   60.6120 C   0  0  0  0  0  0  0  0  0  0  0  0
  132.5050  124.2810   61.7350 N   0  0  0  0  0  0  0  0  0  0  0  0
  131.9140  122.9970   61.3430 C   0  0  0  0  0  0  0  0  0  0  0  0
  132.8220  121.7770   61.3740 C   0  0  0  0  0  0  0  0  0  0  0  0
  133.9970  121.7170   62.0180 C   0  0  0  0  0  0  0  0  0  0  0  0
  132.7830  124.6090   63.0490 C   0  0  0  0  0  0  0  0  0  0  0  0
  133.9880  124.6800   63.5640 N   0  0  0  0  0  0  0  0  0  0  0  0
  133.8540  125.0250   64.9040 N   0  0  0  0  0  0  0  0  0  0  0  0
  132.5740  125.1620   65.1410 C   0  0  0  0  0  0  0  0  0  0  0  0
  131.9840  125.4760   66.5020 C   0  0  0  0  0  0  0  0  0  0  0  0
  130.5790  125.2490   66.4570 O   0  0  0  0  0  0  0  0  0  0  0  0
  129.7240  126.2090   66.9630 C   0  0  0  0  0  0  0  0  0  0  0  0
  129.4820  126.1730   68.3380 C   0  0  0  0  0  0  0  0  0  0  0  0
  128.6270  127.0980   68.9430 C   0  0  0  0  0  0  0  0  0  0  0  0
  128.3840  127.0400   70.4390 C   0  0  0  0  0  0  0  0  0  0  0  0
  128.0140  128.0820   68.1640 C   0  0  0  0  0  0  0  0  0  0  0  0
  128.2450  128.1370   66.7890 C   0  0  0  0  0  0  0  0  0  0  0  0
  127.5750  129.2130   65.9530 C   0  0  0  0  0  0  0  0  0  0  0  0
  129.0960  127.2030   66.1920 C   0  0  0  0  0  0  0  0  0  0  0  0
  131.8280  124.8900   64.0130 N   0  0  0  0  0  0  0  0  0  0  0  0
  130.3660  124.8440   63.9110 C   0  0  0  0  0  0  0  0  0  0  0  0
  129.7410  123.4600   64.0480 C   0  0  0  0  0  0  0  0  0  0  0  0
  129.9660  122.5520   65.0130 C   0  0  0  0  0  0  0  0  0  0  0  0
  128.6110  123.1060   62.7380 Cl  0  0  0  0  0  0  0  0  0  0  0  0
  134.6404  123.7952   57.7476 H   0  0  0  0  0  0  0  0  0  0  0  0
  133.0572  124.8503   57.8498 H   0  0  0  0  0  0  0  0  0  0  0  0
  134.8426  123.8281   60.1423 H   0  0  0  0  0  0  0  0  0  0  0  0
  133.5356  125.9458   61.0269 H   0  0  0  0  0  0  0  0  0  0  0  0
  132.1448  125.3015   59.9914 H   0  0  0  0  0  0  0  0  0  0  0  0
  131.0709  122.7996   62.0213 H   0  0  0  0  0  0  0  0  0  0  0  0
  131.6409  123.1212   60.2847 H   0  0  0  0  0  0  0  0  0  0  0  0
  132.4915  120.8802   60.8295 H   0  0  0  0  0  0  0  0  0  0  0  0
  134.5932  120.7931   61.9895 H   0  0  0  0  0  0  0  0  0  0  0  0
  134.3644  122.5917   62.5746 H   0  0  0  0  0  0  0  0  0  0  0  0
  132.4396  124.8239   67.2617 H   0  0  0  0  0  0  0  0  0  0  0  0
  132.1846  126.5256   66.7630 H   0  0  0  0  0  0  0  0  0  0  0  0
  129.9720  125.4047   68.9542 H   0  0  0  0  0  0  0  0  0  0  0  0
  129.3202  127.2635   70.9715 H   0  0  0  0  0  0  0  0  0  0  0  0
  127.6193  127.7808   70.7152 H   0  0  0  0  0  0  0  0  0  0  0  0
  128.0363  126.0336   70.7152 H   0  0  0  0  0  0  0  0  0  0  0  0
  127.3460  128.8171   68.6367 H   0  0  0  0  0  0  0  0  0  0  0  0
  127.1114  129.9575   66.6169 H   0  0  0  0  0  0  0  0  0  0  0  0
  128.3265  129.7052   65.3182 H   0  0  0  0  0  0  0  0  0  0  0  0
  126.8017  128.7557   65.3182 H   0  0  0  0  0  0  0  0  0  0  0  0
  129.2764  127.2459   65.1077 H   0  0  0  0  0  0  0  0  0  0  0  0
  129.9508  125.4832   64.7041 H   0  0  0  0  0  0  0  0  0  0  0  0
  130.1237  125.1851   62.8937 H   0  0  0  0  0  0  0  0  0  0  0  0
  129.4432  121.5844   64.9905 H   0  0  0  0  0  0  0  0  0  0  0  0
  130.6729  122.7764   65.8253 H   0  0  0  0  0  0  0  0  0  0  0  0
  1  2  2  0
  2  3  1  0
  3  4  1  0
  4  5  1  0
  5  6  1  0
  6  7  2  0
  4  8  1  0
  8  9  2  0
  9 10  1  0
 10 11  2  0
 11 12  1  0
 12 13  1  0
 13 14  1  0
 14 15  2  0
 15 16  1  0
 16 17  1  0
 16 18  2  0
 18 19  1  0
 19 20  1  0
 19 21  2  0
 11 22  1  0
 22 23  1  0
 23 24  1  0
 24 25  2  0
 24 26  1  0
 22  8  1  0
 21 14  1  0
  1 27  1  0
  1 28  1  0
  2 29  1  0
  3 30  1  0
  3 31  1  0
  5 32  1  0
  5 33  1  0
  6 34  1  0
  7 35  1  0
  7 36  1  0
 12 37  1  0
 12 38  1  0
 15 39  1  0
 17 40  1  0
 17 41  1  0
 17 42  1  0
 18 43  1  0
 20 44  1  0
 20 45  1  0
 20 46  1  0
 21 47  1  0
 23 48  1  0
 23 49  1  0
 25 50  1  0
 25 51  1  0
M  END
>  <Binding energies>  (1) 
[-6.95]

>  <Ligand effiencies>  (1) 
[-0.2673076923076923]

>  <Interactions>  (1) 
["V-A:ILE:369:CG2:3237, V-A:ASP:366:CA:3210, V-A:GLY:454:CA:4049, V-A:ILE:369:CB:3236, V-B:GLU:543:CB:9878, V-B:ALA:541:CB:9864, H-A:ARG:545:NH1:4927, V-B:TYR:539:CE2:9848, V-A:TYR:484:CE2:4346, V-B:GLU:543:CG:9879, V-A:ASP:366:CG:3213, V-A:TYR:484:CZ:4347, V-A:GLU:543:CD:4908, V-B:HIS:456:CE1:9041, H-A:GLY:454:N:4050, V-A:SER:385:C:3405, V-A:ILE:369:CD1:3239, V-A:HIS:456:CE1:4070, V-A:ASP:366:C:3208, V-A:GLU:543:CG:4907, V-B:GLU:543:CD:9880, V-A:ASP:366:CB:3212, V-A:LEU:475:CD2:4259, H-A:ARG:545:NH2:4928, V-A:ARG:545:CZ:4926, V-A:GLU:543:CB:4906, H-A:ARG:545:NE:4924, H-A:TYR:484:OH:4348"]

$$$$
ZINC1541296257
     RDKit          3D

 67 69  0  0  0  0  0  0  0  0999 V2000
  129.3830  123.2710   60.3690 C   0  0  0  0  0  0  0  0  0  0  0  0
  129.9110  122.6820   61.7010 C   0  0  0  0  0  0  0  0  0  0  0  0
  129.8980  121.1380   61.6160 C   0  0  0  0  0  0  0  0  0  0  0  0
  129.2220  123.2590   62.9890 C   0  0  2  0  0  0  0  0  0  0  0  0
  127.7340  122.8460   63.0990 C   0  0  0  0  0  0  0  0  0  0  0  0
  129.2260  124.6730   62.8620 O   0  0  0  0  0  0  0  0  0  0  0  0
  130.0390  122.8890   64.2720 C   0  0  0  0  0  0  0  0  0  0  0  0
  131.1070  123.8400   64.6140 N   0  0  0  0  0  0  0  0  0  0  0  0
  132.3810  123.9150   64.0790 C   0  0  0  0  0  0  0  0  0  0  0  0
  132.9220  123.0400   62.9510 C   0  0  0  0  0  0  0  0  0  0  0  0
  133.4630  123.8080   61.7050 C   0  0  0  0  0  0  0  0  0  0  0  0
  134.8680  124.3580   62.0400 C   0  0  0  0  0  0  0  0  0  0  0  0
  133.5820  122.8710   60.4790 C   0  0  0  0  0  0  0  0  0  0  0  0
  132.5450  125.0000   61.3430 C   0  0  0  0  0  0  0  0  0  0  0  0
  133.0830  124.8510   64.6710 N   0  0  0  0  0  0  0  0  0  0  0  0
  132.2650  125.4500   65.6180 N   0  0  0  0  0  0  0  0  0  0  0  0
  131.0980  124.8550   65.5540 C   0  0  0  0  0  0  0  0  0  0  0  0
  130.0040  125.1710   66.3400 N   0  0  0  0  0  0  0  0  0  0  0  0
  129.7680  124.6680   67.7010 C   0  0  0  0  0  0  0  0  0  0  0  0
  129.0930  125.9620   68.1120 C   0  0  1  0  0  0  0  0  0  0  0  0
  129.6160  126.6060   69.4140 C   0  0  0  0  0  0  0  0  0  0  0  0
  130.1680  128.0430   69.2650 C   0  0  0  0  0  0  0  0  0  0  0  0
  129.0950  129.1420   69.0740 C   0  0  0  0  0  0  0  0  0  0  0  0
  128.7110  129.4950   67.6160 C   0  0  0  0  0  0  0  0  0  0  0  0
  127.9300  128.4500   66.7890 C   0  0  0  0  0  0  0  0  0  0  0  0
  128.7490  127.4090   65.9950 C   0  0  0  0  0  0  0  0  0  0  0  0
  129.6940  126.5210   66.8320 C   0  0  2  0  0  0  0  0  0  0  0  0
  128.6628  124.0744   60.5833 H   0  0  0  0  0  0  0  0  0  0  0  0
  130.2244  123.6779   59.7890 H   0  0  0  0  0  0  0  0  0  0  0  0
  128.8869  122.4789   59.7890 H   0  0  0  0  0  0  0  0  0  0  0  0
  130.9524  123.0135   61.8261 H   0  0  0  0  0  0  0  0  0  0  0  0
  129.8944  120.7149   62.6314 H   0  0  0  0  0  0  0  0  0  0  0  0
  128.9970  120.8080   61.0781 H   0  0  0  0  0  0  0  0  0  0  0  0
  130.7933  120.7928   61.0781 H   0  0  0  0  0  0  0  0  0  0  0  0
  127.4526  122.7679   64.1595 H   0  0  0  0  0  0  0  0  0  0  0  0
  127.1059  123.6038   62.6078 H   0  0  0  0  0  0  0  0  0  0  0  0
  127.5863  121.8729   62.6078 H   0  0  0  0  0  0  0  0  0  0  0  0
  128.3760  125.0090   63.1540 H   0  0  0  0  0  0  0  0  0  0  0  0
  129.3407  122.8379   65.1204 H   0  0  0  0  0  0  0  0  0  0  0  0
  130.5328  121.9291   64.0606 H   0  0  0  0  0  0  0  0  0  0  0  0
  133.7439  122.4326   63.3578 H   0  0  0  0  0  0  0  0  0  0  0  0
  132.0676  122.4471   62.5926 H   0  0  0  0  0  0  0  0  0  0  0  0
  134.9920  124.4065   63.1319 H   0  0  0  0  0  0  0  0  0  0  0  0
  135.6334  123.6931   61.6133 H   0  0  0  0  0  0  0  0  0  0  0  0
  134.9786  125.3658   61.6133 H   0  0  0  0  0  0  0  0  0  0  0  0
  133.7137  121.8340   60.8215 H   0  0  0  0  0  0  0  0  0  0  0  0
  132.6675  122.9434   59.8721 H   0  0  0  0  0  0  0  0  0  0  0  0
  134.4494  123.1697   59.8721 H   0  0  0  0  0  0  0  0  0  0  0  0
  132.1795  125.4747   62.2655 H   0  0  0  0  0  0  0  0  0  0  0  0
  133.1131  125.7343   60.7531 H   0  0  0  0  0  0  0  0  0  0  0  0
  131.6899  124.6383   60.7531 H   0  0  0  0  0  0  0  0  0  0  0  0
  129.1045  123.7915   67.7396 H   0  0  0  0  0  0  0  0  0  0  0  0
  130.6144  124.2878   68.2918 H   0  0  0  0  0  0  0  0  0  0  0  0
  128.0224  126.0243   68.3567 H   0  0  0  0  0  0  0  0  0  0  0  0
  128.7869  126.6336   70.1364 H   0  0  0  0  0  0  0  0  0  0  0  0
  130.4644  125.9865   69.7404 H   0  0  0  0  0  0  0  0  0  0  0  0
  130.7436  128.2826   70.1712 H   0  0  0  0  0  0  0  0  0  0  0  0
  130.7747  128.0445   68.3475 H   0  0  0  0  0  0  0  0  0  0  0  0
  128.1813  128.8082   69.5876 H   0  0  0  0  0  0  0  0  0  0  0  0
  129.5446  130.0585   69.4838 H   0  0  0  0  0  0  0  0  0  0  0  0
  128.0959  130.4062   67.6531 H   0  0  0  0  0  0  0  0  0  0  0  0
  129.6762  129.5850   67.0962 H   0  0  0  0  0  0  0  0  0  0  0  0
  127.2818  127.8973   67.4850 H   0  0  0  0  0  0  0  0  0  0  0  0
  127.4054  129.0372   66.0209 H   0  0  0  0  0  0  0  0  0  0  0  0
  128.0409  126.7496   65.4718 H   0  0  0  0  0  0  0  0  0  0  0  0
  129.3991  127.9884   65.3229 H   0  0  0  0  0  0  0  0  0  0  0  0
  130.5144  127.2529   66.8683 H   0  0  0  0  0  0  0  0  0  0  0  0
  1  2  1  0
  2  3  1  0
  2  4  1  0
  4  5  1  0
  4  6  1  6
  4  7  1  0
  7  8  1  0
  8  9  1  0
  9 10  1  0
 10 11  1  0
 11 12  1  0
 11 13  1  0
 11 14  1  0
  9 15  2  0
 15 16  1  0
 16 17  2  0
 17 18  1  0
 18 19  1  0
 19 20  1  0
 20 21  1  0
 21 22  1  0
 22 23  1  0
 23 24  1  0
 24 25  1  0
 25 26  1  0
 26 27  1  0
 17  8  1  0
 27 18  1  0
 27 20  1  0
  1 28  1  0
  1 29  1  0
  1 30  1  0
  2 31  1  0
  3 32  1  0
  3 33  1  0
  3 34  1  0
  5 35  1  0
  5 36  1  0
  5 37  1  0
  6 38  1  0
  7 39  1  0
  7 40  1  0
 10 41  1  0
 10 42  1  0
 12 43  1  0
 12 44  1  0
 12 45  1  0
 13 46  1  0
 13 47  1  0
 13 48  1  0
 14 49  1  0
 14 50  1  0
 14 51  1  0
 19 52  1  0
 19 53  1  0
 20 54  1  6
 21 55  1  0
 21 56  1  0
 22 57  1  0
 22 58  1  0
 23 59  1  0
 23 60  1  0
 24 61  1  0
 24 62  1  0
 25 63  1  0
 25 64  1  0
 26 65  1  0
 26 66  1  0
 27 67  1  1
M  END
>  <Binding energies>  (1) 
[-4.65]

>  <Ligand effiencies>  (1) 
[-0.155]

>  <Interactions>  (1) 
["V-A:ILE:369:CG2:3237, V-A:GLU:543:CA:4904, V-A:GLY:454:CA:4049, V-B:GLU:543:C:9874, V-A:ILE:369:CB:3236, V-A:GLU:543:C:4902, V-B:GLU:543:CB:9878, V-B:ALA:541:CB:9864, V-B:TYR:539:CE2:9848, V-A:TYR:484:CE2:4346, V-B:GLU:543:CG:9879, V-A:ASP:366:CG:3213, V-B:TYR:484:CE2:9317, H-B:GLU:543:OE1:9881, V-A:TYR:484:CZ:4347, V-A:GLU:543:CD:4908, V-B:GLU:543:CA:9876, H-A:GLY:454:N:4050, V-B:HIS:456:CE1:9041, V-A:GLY:453:C:4042, V-A:ILE:369:CD1:3239, V-A:HIS:456:CE1:4070, V-A:GLU:543:CG:4907, V-B:GLU:543:CD:9880, V-A:LEU:475:CD2:4259, H-A:ARG:545:NH2:4928, V-A:GLU:543:CB:4906, V-A:GLY:453:CA:4044, H-A:ARG:545:NE:4924, V-B:ALA:541:CA:9862, H-A:TYR:484:OH:4348"]

$$$$
ZINC1547138353-again1
     RDKit          3D

 55 60  0  0  0  0  0  0  0  0999 V2000
  128.5810  127.0410   59.8480 C   0  0  0  0  0  0  0  0  0  0  0  0
  129.3460  126.0500   58.9710 C   0  0  0  0  0  0  0  0  0  0  0  0
  128.9530  125.8740   57.8180 O   0  0  0  0  0  0  0  0  0  0  0  0
  130.6240  125.4810   59.5320 C   0  0  0  0  0  0  0  0  0  0  0  0
  131.7210  125.1940   58.6860 C   0  0  0  0  0  0  0  0  0  0  0  0
  131.6520  125.4740   57.3390 O   0  0  0  0  0  0  0  0  0  0  0  0
  132.9090  124.6200   59.1890 C   0  0  0  0  0  0  0  0  0  0  0  0
  134.0750  124.3450   58.2160 C   0  0  0  0  0  0  0  0  0  0  0  0
  133.0070  124.3030   60.5670 C   0  0  0  0  0  0  0  0  0  0  0  0
  134.0270  123.6880   61.0270 O   0  0  0  0  0  0  0  0  0  0  0  0
  131.9400  124.6130   61.4290 C   0  0  0  0  0  0  0  0  0  0  0  0
  130.7840  125.1680   60.8860 C   0  0  0  0  0  0  0  0  0  0  0  0
  129.7980  125.3510   61.8240 O   0  0  0  0  0  0  0  0  0  0  0  0
  130.3730  125.1990   63.0290 C   0  0  0  0  0  0  0  0  0  0  0  0
  129.9630  125.8050   64.1590 C   0  0  0  0  0  0  0  0  0  0  0  0
  130.8210  125.7460   65.3280 C   0  0  0  0  0  0  0  0  0  0  0  0
  132.1260  125.2650   65.2460 C   0  0  0  0  0  0  0  0  0  0  0  0
  132.6640  125.4440   66.5350 C   0  0  0  0  0  0  0  0  0  0  0  0
  134.0460  125.1270   67.0690 C   0  0  0  0  0  0  0  0  0  0  0  0
  131.7660  125.9510   67.3550 N   0  0  0  0  0  0  0  0  0  0  0  0
  130.6540  126.1570   66.6290 N   0  0  0  0  0  0  0  0  0  0  0  0
  129.4920  126.6890   67.2260 C   0  0  0  0  0  0  0  0  0  0  0  0
  129.2260  126.3630   68.5590 C   0  0  0  0  0  0  0  0  0  0  0  0
  128.0970  126.8890   69.1760 C   0  0  0  0  0  0  0  0  0  0  0  0
  127.2220  127.7120   68.5550 N   0  0  0  0  0  0  0  0  0  0  0  0
  127.4470  128.0370   67.2520 C   0  0  0  0  0  0  0  0  0  0  0  0
  126.5160  128.8910   66.6100 C   0  0  0  0  0  0  0  0  0  0  0  0
  126.6910  129.2420   65.2740 C   0  0  0  0  0  0  0  0  0  0  0  0
  125.5490  130.2820   64.5060 Cl  0  0  0  0  0  0  0  0  0  0  0  0
  127.7780  128.7560   64.5550 C   0  0  0  0  0  0  0  0  0  0  0  0
  128.7110  127.9180   65.1560 C   0  0  0  0  0  0  0  0  0  0  0  0
  128.5770  127.5450   66.5250 C   0  0  0  0  0  0  0  0  0  0  0  0
  132.7170  124.7530   63.9960 C   0  0  0  0  0  0  0  0  0  0  0  0
  133.9320  124.6400   63.8470 O   0  0  0  0  0  0  0  0  0  0  0  0
  131.6490  124.3670   62.9100 C   0  0  2  0  0  0  0  0  0  0  0  0
  131.3180  122.8720   63.1540 C   0  0  0  0  0  0  0  0  0  0  0  0
  128.7611  126.8077   60.9078 H   0  0  0  0  0  0  0  0  0  0  0  0
  128.9266  128.0631   59.6337 H   0  0  0  0  0  0  0  0  0  0  0  0
  127.5047  126.9654   59.6337 H   0  0  0  0  0  0  0  0  0  0  0  0
  130.8400  125.1510   56.9390 H   0  0  0  0  0  0  0  0  0  0  0  0
  134.9884  124.1296   58.7899 H   0  0  0  0  0  0  0  0  0  0  0  0
  133.8277  123.4805   57.5823 H   0  0  0  0  0  0  0  0  0  0  0  0
  134.2400  125.2289   57.5823 H   0  0  0  0  0  0  0  0  0  0  0  0
  128.9988  126.3333   64.1955 H   0  0  0  0  0  0  0  0  0  0  0  0
  134.0242  125.1320   68.1688 H   0  0  0  0  0  0  0  0  0  0  0  0
  134.3578  124.1340   66.7130 H   0  0  0  0  0  0  0  0  0  0  0  0
  134.7594  125.8848   66.7130 H   0  0  0  0  0  0  0  0  0  0  0  0
  129.9032  125.6971   69.1140 H   0  0  0  0  0  0  0  0  0  0  0  0
  127.9050  126.6215   70.2256 H   0  0  0  0  0  0  0  0  0  0  0  0
  125.6516  129.2782   67.1694 H   0  0  0  0  0  0  0  0  0  0  0  0
  127.9011  129.0378   63.4988 H   0  0  0  0  0  0  0  0  0  0  0  0
  129.5607  127.5393   64.5690 H   0  0  0  0  0  0  0  0  0  0  0  0
  131.2750  122.6778   64.2359 H   0  0  0  0  0  0  0  0  0  0  0  0
  130.3452  122.6329   62.6996 H   0  0  0  0  0  0  0  0  0  0  0  0
  132.0990  122.2446   62.6996 H   0  0  0  0  0  0  0  0  0  0  0  0
  1  2  1  0
  2  3  2  0
  2  4  1  0
  4  5  2  0
  5  6  1  0
  5  7  1  0
  7  8  1  0
  7  9  2  0
  9 10  1  0
  9 11  1  0
 11 12  2  0
 12 13  1  0
 13 14  1  0
 14 15  2  0
 15 16  1  0
 16 17  2  0
 17 18  1  0
 18 19  1  0
 18 20  2  0
 20 21  1  0
 21 22  1  0
 22 23  2  0
 23 24  1  0
 24 25  2  0
 25 26  1  0
 26 27  2  0
 27 28  1  0
 28 29  1  0
 28 30  2  0
 30 31  1  0
 31 32  2  0
 17 33  1  0
 33 34  2  0
 33 35  1  0
 35 36  1  6
 12  4  1  0
 35 14  1  0
 35 11  1  0
 21 16  1  0
 32 22  1  0
 32 26  1  0
  1 37  1  0
  1 38  1  0
  1 39  1  0
  6 40  1  0
  8 41  1  0
  8 42  1  0
  8 43  1  0
 15 44  1  0
 19 45  1  0
 19 46  1  0
 19 47  1  0
 23 48  1  0
 24 49  1  0
 27 50  1  0
 30 51  1  0
 31 52  1  0
 36 53  1  0
 36 54  1  0
 36 55  1  0
M  CHG  1  10  -1
M  END
>  <Binding energies>  (1) 
[-6.57]

>  <Ligand effiencies>  (1) 
[-0.17756756756756759]

>  <Interactions>  (1) 
["V-A:ILE:369:CG2:3237, V-A:ASP:366:CA:3210, V-B:GLU:543:C:9874, V-A:ILE:369:CB:3236, V-B:GLU:543:CB:9878, H-A:TYR:531:OH:4795, V-B:TYR:539:CE2:9848, V-B:GLU:543:CG:9879, V-A:ASP:366:CG:3213, H-B:HIS:456:ND1:9038, V-B:TYR:539:CZ:9849, H-B:TYR:539:OH:9850, V-A:GLU:543:CD:4908, V-A:TYR:484:CZ:4347, V-A:ARG:545:CG:4922, H-A:GLY:454:N:4050, V-B:HIS:456:CE1:9041, V-A:HIS:456:CE1:4070, V-B:TYR:484:CZ:9318, V-A:ASP:366:C:3208, V-A:GLU:543:CG:4907, V-B:GLU:543:CD:9880, V-A:ASP:366:CB:3212, V-A:ARG:545:CD:4923, V-A:LEU:475:CD2:4259, H-A:ARG:545:NH2:4928, V-A:ARG:545:CZ:4926, H-A:HIS:456:ND1:4067, H-A:TYR:484:OH:4348"]

$$$$
ZINC1547138754-again2
     RDKit          3D

 61 66  0  0  0  0  0  0  0  0999 V2000
  127.9260  134.0910   60.9280 C   0  0  0  0  0  0  0  0  0  0  0  0
  128.8310  133.4770   61.8370 O   0  0  0  0  0  0  0  0  0  0  0  0
  128.6680  132.1440   62.1670 C   0  0  0  0  0  0  0  0  0  0  0  0
  128.1290  131.6990   63.3930 C   0  0  0  0  0  0  0  0  0  0  0  0
  127.9870  130.3280   63.6760 C   0  0  0  0  0  0  0  0  0  0  0  0
  127.4720  129.8100   64.8490 O   0  0  0  0  0  0  0  0  0  0  0  0
  128.3450  129.1410   65.7520 C   0  0  0  0  0  0  0  0  0  0  0  0
  128.3940  129.4050   62.7090 C   0  0  0  0  0  0  0  0  0  0  0  0
  128.9210  129.8380   61.5070 C   0  0  0  0  0  0  0  0  0  0  0  0
  129.0650  131.1920   61.2160 C   0  0  0  0  0  0  0  0  0  0  0  0
  129.7300  131.6840   59.6950 Cl  0  0  0  0  0  0  0  0  0  0  0  0
  129.2670  128.8250   60.6500 O   0  0  0  0  0  0  0  0  0  0  0  0
  128.9770  127.5870   61.3000 C   0  0  2  0  0  0  0  0  0  0  0  0
  128.3850  127.9410   62.6780 C   0  0  0  0  0  0  0  0  0  0  0  0
  127.9810  127.1630   63.5430 O   0  0  0  0  0  0  0  0  0  0  0  0
  130.2790  126.7870   61.5150 C   0  0  0  0  0  0  0  0  0  0  0  0
  131.3660  127.5280   61.8770 O   0  0  0  0  0  0  0  0  0  0  0  0
  130.3320  125.4310   61.4240 C   0  0  0  0  0  0  0  0  0  0  0  0
  129.1230  124.6900   61.0540 C   0  0  0  0  0  0  0  0  0  0  0  0
  128.0290  125.3160   60.5770 C   0  0  0  0  0  0  0  0  0  0  0  0
  127.9440  126.8280   60.3860 C   0  0  1  0  0  0  0  0  0  0  0  0
  126.4670  127.2800   60.3800 C   0  0  0  0  0  0  0  0  0  0  0  0
  129.1090  123.3190   61.1240 N   0  0  0  0  0  0  0  0  0  0  0  0
  130.2620  122.5340   61.1930 C   0  0  0  0  0  0  0  0  0  0  0  0
  130.0970  121.2110   60.9430 N   0  0  0  0  0  0  0  0  0  0  0  0
  131.2260  120.4680   60.8940 C   0  0  0  0  0  0  0  0  0  0  0  0
  131.0780  119.1100   60.6390 N   0  0  0  0  0  0  0  0  0  0  0  0
  132.4840  120.9340   61.0590 N   0  0  0  0  0  0  0  0  0  0  0  0
  132.6130  122.2610   61.3220 C   0  0  0  0  0  0  0  0  0  0  0  0
  133.8220  122.6340   61.4620 O   0  0  0  0  0  0  0  0  0  0  0  0
  131.5110  123.1420   61.4380 C   0  0  0  0  0  0  0  0  0  0  0  0
  131.6150  124.6490   61.7900 C   0  0  2  0  0  0  0  0  0  0  0  0
  132.0110  124.8270   63.2620 C   0  0  0  0  0  0  0  0  0  0  0  0
  133.3580  124.9150   63.6290 C   0  0  0  0  0  0  0  0  0  0  0  0
  133.7160  125.0990   64.9640 C   0  0  0  0  0  0  0  0  0  0  0  0
  132.7310  125.2050   65.9470 C   0  0  0  0  0  0  0  0  0  0  0  0
  133.1080  125.3860   67.2530 O   0  0  0  0  0  0  0  0  0  0  0  0
  131.3800  125.1250   65.5890 C   0  0  0  0  0  0  0  0  0  0  0  0
  130.1280  125.2590   66.7760 Cl  0  0  0  0  0  0  0  0  0  0  0  0
  131.0270  124.9370   64.2520 C   0  0  0  0  0  0  0  0  0  0  0  0
  127.1441  134.6215   61.4912 H   0  0  0  0  0  0  0  0  0  0  0  0
  128.4712  134.8065   60.2948 H   0  0  0  0  0  0  0  0  0  0  0  0
  127.4627  133.3200   60.2948 H   0  0  0  0  0  0  0  0  0  0  0  0
  127.8133  132.4393   64.1429 H   0  0  0  0  0  0  0  0  0  0  0  0
  128.0476  129.3689   66.7862 H   0  0  0  0  0  0  0  0  0  0  0  0
  128.2848  128.0556   65.5839 H   0  0  0  0  0  0  0  0  0  0  0  0
  129.3774  129.4814   65.5839 H   0  0  0  0  0  0  0  0  0  0  0  0
  131.0980  128.4400   62.0140 H   0  0  0  0  0  0  0  0  0  0  0  0
  127.1527  124.7063   60.3118 H   0  0  0  0  0  0  0  0  0  0  0  0
  128.2914  127.1348   59.3884 H   0  0  0  0  0  0  0  0  0  0  0  0
  126.1125  127.3885   61.4157 H   0  0  0  0  0  0  0  0  0  0  0  0
  126.3811  128.2455   59.8600 H   0  0  0  0  0  0  0  0  0  0  0  0
  125.8555  126.5279   59.8600 H   0  0  0  0  0  0  0  0  0  0  0  0
  128.2430  122.8420   60.9270 H   0  0  0  0  0  0  0  0  0  0  0  0
  131.7930  118.4690   60.9520 H   0  0  0  0  0  0  0  0  0  0  0  0
  130.2580  118.7880   60.1470 H   0  0  0  0  0  0  0  0  0  0  0  0
  132.4125  125.0860   61.1712 H   0  0  0  0  0  0  0  0  0  0  0  0
  134.1401  124.8385   62.8592 H   0  0  0  0  0  0  0  0  0  0  0  0
  134.7782  125.1608   65.2433 H   0  0  0  0  0  0  0  0  0  0  0  0
  132.8590  124.6530   67.8190 H   0  0  0  0  0  0  0  0  0  0  0  0
  129.9648  124.8746   63.9730 H   0  0  0  0  0  0  0  0  0  0  0  0
  1  2  1  0
  2  3  1  0
  3  4  2  0
  4  5  1  0
  5  6  1  0
  6  7  1  0
  5  8  2  0
  8  9  1  0
  9 10  2  0
 10 11  1  0
  9 12  1  0
 13 12  1  6
 13 14  1  0
 14 15  2  0
 13 16  1  0
 16 17  1  0
 16 18  2  0
 18 19  1  0
 19 20  2  0
 20 21  1  0
 21 22  1  0
 19 23  1  0
 23 24  1  0
 24 25  2  0
 25 26  1  0
 26 27  1  0
 26 28  2  0
 28 29  1  0
 29 30  1  0
 29 31  2  0
 31 32  1  0
 32 33  1  0
 33 34  2  0
 34 35  1  0
 35 36  2  0
 36 37  1  0
 36 38  1  0
 38 39  1  0
 38 40  2  0
 10  3  1  0
 21 13  1  0
 31 24  1  0
 40 33  1  0
 14  8  1  0
 32 18  1  0
  1 41  1  0
  1 42  1  0
  1 43  1  0
  4 44  1  0
  7 45  1  0
  7 46  1  0
  7 47  1  0
 17 48  1  0
 20 49  1  0
 21 50  1  6
 22 51  1  0
 22 52  1  0
 22 53  1  0
 23 54  1  0
 27 55  1  0
 27 56  1  0
 32 57  1  6
 34 58  1  0
 35 59  1  0
 37 60  1  0
 40 61  1  0
M  CHG  1  30  -1
M  END
>  <Binding energies>  (1) 
[-6.72]

>  <Ligand effiencies>  (1) 
[-0.14933333333333332]

>  <Interactions>  (1) 
["V-A:GLY:454:CA:4049, H-A:ALA:541:N:4891, V-B:GLU:543:CB:9878, V-B:ASP:366:CG:8184, V-B:TYR:539:CE2:9848, V-A:TYR:484:CE2:4346, V-B:GLU:543:CG:9879, V-A:TYR:539:CD1:4873, V-A:GLU:543:CD:4908, V-A:TYR:484:CZ:4347, H-B:TYR:484:OH:9319, V-A:HIS:456:CE1:4070, V-B:TYR:539:CD2:9846, V-A:GLU:543:CG:4907, H-A:SER:385:OG:3410, V-B:GLU:543:CD:9880, V-A:TYR:539:C:4867, V-A:ARG:545:CD:4923, V-A:LEU:475:CD2:4259, H-A:ARG:545:NH2:4928, V-A:ARG:545:CZ:4926, H-A:GLU:543:OE1:4909, V-A:GLU:543:CB:4906, V-A:PRO:540:CA:4883, H-B:TYR:539:O:9840, H-A:ARG:545:NE:4924, H-A:ASP:366:OD2:3215, H-A:HIS:456:NE2:4071, H-A:HIS:456:ND1:4067, H-A:TYR:484:OH:4348"]

$$$$
ZINC1547138754-again4
     RDKit          3D

 60 65  0  0  0  0  0  0  0  0999 V2000
  128.1230  133.3660   60.1490 C   0  0  0  0  0  0  0  0  0  0  0  0
  128.2710  132.1980   59.3480 O   0  0  0  0  0  0  0  0  0  0  0  0
  128.2280  130.9510   59.9460 C   0  0  0  0  0  0  0  0  0  0  0  0
  127.8030  130.7320   61.2720 C   0  0  0  0  0  0  0  0  0  0  0  0
  127.7800  129.4390   61.8300 C   0  0  0  0  0  0  0  0  0  0  0  0
  127.3740  129.1390   63.1170 O   0  0  0  0  0  0  0  0  0  0  0  0
  128.3490  128.7480   64.0770 C   0  0  0  0  0  0  0  0  0  0  0  0
  128.1940  128.3670   61.0360 C   0  0  0  0  0  0  0  0  0  0  0  0
  128.6080  128.5780   59.7340 C   0  0  0  0  0  0  0  0  0  0  0  0
  128.6330  129.8530   59.1720 C   0  0  0  0  0  0  0  0  0  0  0  0
  129.1560  130.0650   57.5360 Cl  0  0  0  0  0  0  0  0  0  0  0  0
  128.9700  127.4370   59.0670 O   0  0  0  0  0  0  0  0  0  0  0  0
  128.8260  126.3360   59.9770 C   0  0  2  0  0  0  0  0  0  0  0  0
  128.2920  126.9280   61.2990 C   0  0  0  0  0  0  0  0  0  0  0  0
  128.0000  126.3210   62.3300 O   0  0  0  0  0  0  0  0  0  0  0  0
  130.1780  125.6010   60.2320 C   0  0  0  0  0  0  0  0  0  0  0  0
  131.2500  126.3280   60.2040 O   0  0  0  0  0  0  0  0  0  0  0  0
  130.2410  124.2530   60.4770 C   0  0  0  0  0  0  0  0  0  0  0  0
  128.9830  123.4880   60.4370 C   0  0  0  0  0  0  0  0  0  0  0  0
  127.8560  123.9820   59.8890 C   0  0  0  0  0  0  0  0  0  0  0  0
  127.7700  125.3840   59.3020 C   0  0  1  0  0  0  0  0  0  0  0  0
  126.2930  125.8300   59.2240 C   0  0  0  0  0  0  0  0  0  0  0  0
  128.9570  122.2160   60.9470 N   0  0  0  0  0  0  0  0  0  0  0  0
  130.0740  121.4330   60.9910 C   0  0  0  0  0  0  0  0  0  0  0  0
  129.8520  120.0760   60.9200 N   0  0  0  0  0  0  0  0  0  0  0  0
  130.9340  119.2110   60.8600 C   0  0  0  0  0  0  0  0  0  0  0  0
  130.6770  117.8250   60.8330 N   0  0  0  0  0  0  0  0  0  0  0  0
  132.1500  119.6290   60.8330 N   0  0  0  0  0  0  0  0  0  0  0  0
  132.4800  121.0060   60.8410 C   0  0  0  0  0  0  0  0  0  0  0  0
  133.6160  121.4720   60.7830 O   0  0  0  0  0  0  0  0  0  0  0  0
  131.3300  121.9420   60.8980 C   0  0  0  0  0  0  0  0  0  0  0  0
  131.5640  123.4740   60.8150 C   0  0  2  0  0  0  0  0  0  0  0  0
  132.3040  124.0130   62.0470 C   0  0  0  0  0  0  0  0  0  0  0  0
  133.6830  124.2370   62.0130 C   0  0  0  0  0  0  0  0  0  0  0  0
  134.3470  124.7290   63.1360 C   0  0  0  0  0  0  0  0  0  0  0  0
  133.6420  125.0090   64.3130 C   0  0  0  0  0  0  0  0  0  0  0  0
  134.2900  125.4580   65.3160 O   0  0  0  0  0  0  0  0  0  0  0  0
  132.2500  124.7860   64.3550 C   0  0  0  0  0  0  0  0  0  0  0  0
  131.2810  125.1000   65.7640 Cl  0  0  0  0  0  0  0  0  0  0  0  0
  131.5990  124.2900   63.2230 C   0  0  0  0  0  0  0  0  0  0  0  0
  128.1582  133.0880   61.2127 H   0  0  0  0  0  0  0  0  0  0  0  0
  128.9392  134.0690   59.9265 H   0  0  0  0  0  0  0  0  0  0  0  0
  127.1572  133.8432   59.9265 H   0  0  0  0  0  0  0  0  0  0  0  0
  127.4827  131.5884   61.8835 H   0  0  0  0  0  0  0  0  0  0  0  0
  127.9509  128.9077   65.0899 H   0  0  0  0  0  0  0  0  0  0  0  0
  128.5906  127.6834   63.9416 H   0  0  0  0  0  0  0  0  0  0  0  0
  129.2592  129.3507   63.9416 H   0  0  0  0  0  0  0  0  0  0  0  0
  126.9595  123.3451   59.8646 H   0  0  0  0  0  0  0  0  0  0  0  0
  128.0852  125.4217   58.2488 H   0  0  0  0  0  0  0  0  0  0  0  0
  125.8923  125.9510   60.2413 H   0  0  0  0  0  0  0  0  0  0  0  0
  126.2271  126.7881   58.6876 H   0  0  0  0  0  0  0  0  0  0  0  0
  125.7079  125.0685   58.6876 H   0  0  0  0  0  0  0  0  0  0  0  0
  128.0590  121.7580   60.9850 H   0  0  0  0  0  0  0  0  0  0  0  0
  128.9110  119.7140   60.9300 H   0  0  0  0  0  0  0  0  0  0  0  0
  131.3320  117.1520   61.2030 H   0  0  0  0  0  0  0  0  0  0  0  0
  129.8060  117.4420   60.5000 H   0  0  0  0  0  0  0  0  0  0  0  0
  132.2391  123.6598   59.9667 H   0  0  0  0  0  0  0  0  0  0  0  0
  134.2485  124.0237   61.0939 H   0  0  0  0  0  0  0  0  0  0  0  0
  135.4332  124.8985   63.0970 H   0  0  0  0  0  0  0  0  0  0  0  0
  130.5137  124.1143   63.2569 H   0  0  0  0  0  0  0  0  0  0  0  0
  1  2  1  0
  2  3  1  0
  3  4  2  0
  4  5  1  0
  5  6  1  0
  6  7  1  0
  5  8  2  0
  8  9  1  0
  9 10  2  0
 10 11  1  0
  9 12  1  0
 13 12  1  6
 13 14  1  0
 14 15  2  0
 13 16  1  0
 16 17  1  0
 16 18  2  0
 18 19  1  0
 19 20  2  0
 20 21  1  0
 21 22  1  0
 19 23  1  0
 23 24  1  0
 24 25  1  0
 25 26  1  0
 26 27  1  0
 26 28  2  0
 28 29  1  0
 29 30  2  0
 29 31  1  0
 31 32  1  0
 32 33  1  0
 33 34  2  0
 34 35  1  0
 35 36  2  0
 36 37  1  0
 36 38  1  0
 38 39  1  0
 38 40  2  0
 10  3  1  0
 21 13  1  0
 31 24  2  0
 40 33  1  0
 14  8  1  0
 32 18  1  0
  1 41  1  0
  1 42  1  0
  1 43  1  0
  4 44  1  0
  7 45  1  0
  7 46  1  0
  7 47  1  0
 20 48  1  0
 21 49  1  6
 22 50  1  0
 22 51  1  0
 22 52  1  0
 23 53  1  0
 25 54  1  0
 27 55  1  0
 27 56  1  0
 32 57  1  6
 34 58  1  0
 35 59  1  0
 40 60  1  0
M  CHG  2  17  -1  37  -1
M  END
>  <Binding energies>  (1) 
[-5.22]

>  <Ligand effiencies>  (1) 
[-0.11863636363636364]

>  <Interactions>  (1) 
["V-A:ILE:369:CG2:3237, V-B:PRO:540:CA:9855, V-B:ASP:366:CG:8184, V-B:ALA:541:CB:9864, H-A:ARG:545:NH1:4927, V-B:TYR:539:CE2:9848, V-B:TYR:539:C:9839, V-A:TYR:539:CD1:4873, V-A:GLU:543:CD:4908, V-A:TYR:484:CZ:4347, H-A:GLY:454:N:4050, V-A:GLY:453:C:4042, V-A:HIS:383:NE2:3394, V-B:TYR:539:CD2:9846, H-A:SER:385:OG:3410, V-A:MET:535:CE:4835, V-A:TYR:539:C:4867, V-A:LEU:475:CD2:4259, H-A:ARG:545:NH2:4928, V-A:ARG:545:CZ:4926, H-A:HIS:383:HE2:3395, V-A:GLY:453:CA:4044, V-A:PRO:540:CA:4883, H-B:TYR:539:O:9840, H-A:ARG:545:NE:4924, V-A:TYR:539:CE1:4875, H-A:TYR:484:OH:4348, H-B:PRO:540:O:9854"]

$$$$
ZINC1547139116-again2
     RDKit          3D

 70 76  0  0  0  0  0  0  0  0999 V2000
  127.0850  134.0880   61.2000 C   0  0  0  0  0  0  0  0  0  0  0  0
  128.3370  133.5110   60.8480 O   0  0  0  0  0  0  0  0  0  0  0  0
  128.3890  132.1900   60.4400 C   0  0  0  0  0  0  0  0  0  0  0  0
  127.4610  131.6050   59.5530 C   0  0  0  0  0  0  0  0  0  0  0  0
  127.5610  130.2530   59.1750 C   0  0  0  0  0  0  0  0  0  0  0  0
  126.6970  129.6060   58.3120 O   0  0  0  0  0  0  0  0  0  0  0  0
  125.7700  130.3750   57.5540 C   0  0  0  0  0  0  0  0  0  0  0  0
  128.6060  129.4920   59.7040 C   0  0  0  0  0  0  0  0  0  0  0  0
  129.5200  130.0640   60.5680 C   0  0  0  0  0  0  0  0  0  0  0  0
  129.4330  131.4020   60.9480 C   0  0  0  0  0  0  0  0  0  0  0  0
  130.6030  132.0700   62.0330 Cl  0  0  0  0  0  0  0  0  0  0  0  0
  130.5000  129.2060   60.9980 O   0  0  0  0  0  0  0  0  0  0  0  0
  130.2340  127.9240   60.4240 C   0  0  2  0  0  0  0  0  0  0  0  0
  128.9920  128.0890   59.5290 C   0  0  0  0  0  0  0  0  0  0  0  0
  128.4600  127.2360   58.8190 O   0  0  0  0  0  0  0  0  0  0  0  0
  129.9210  126.9050   61.5410 C   0  0  0  0  0  0  0  0  0  0  0  0
  129.2110  127.3910   62.5990 O   0  0  0  0  0  0  0  0  0  0  0  0
  130.2970  125.6020   61.4660 C   0  0  0  0  0  0  0  0  0  0  0  0
  131.0230  125.1380   60.2780 C   0  0  0  0  0  0  0  0  0  0  0  0
  131.6060  126.0060   59.4290 C   0  0  0  0  0  0  0  0  0  0  0  0
  131.5190  127.5200   59.6050 C   0  0  1  0  0  0  0  0  0  0  0  0
  131.8050  128.2270   58.2630 C   0  0  0  0  0  0  0  0  0  0  0  0
  131.1250  123.7920   60.0350 N   0  0  0  0  0  0  0  0  0  0  0  0
  130.6960  122.8240   60.9020 C   0  0  0  0  0  0  0  0  0  0  0  0
  130.8400  121.5450   60.4390 N   0  0  0  0  0  0  0  0  0  0  0  0
  130.4700  120.5640   61.1890 C   0  0  0  0  0  0  0  0  0  0  0  0
  130.5980  119.2260   60.7610 N   0  0  0  0  0  0  0  0  0  0  0  0
  129.9370  120.8040   62.4290 N   0  0  0  0  0  0  0  0  0  0  0  0
  129.7390  122.0310   62.9850 C   0  0  0  0  0  0  0  0  0  0  0  0
  129.2350  122.1510   64.1000 O   0  0  0  0  0  0  0  0  0  0  0  0
  130.1680  123.1360   62.1220 C   0  0  0  0  0  0  0  0  0  0  0  0
  129.9900  124.5970   62.6080 C   0  0  1  0  0  0  0  0  0  0  0  0
  130.7560  124.9140   63.8950 C   0  0  0  0  0  0  0  0  0  0  0  0
  132.1460  125.0820   63.8660 C   0  0  0  0  0  0  0  0  0  0  0  0
  132.8480  125.3620   65.0390 C   0  0  0  0  0  0  0  0  0  0  0  0
  132.1660  125.4740   66.2500 C   0  0  0  0  0  0  0  0  0  0  0  0
  130.7820  125.3030   66.2930 C   0  0  0  0  0  0  0  0  0  0  0  0
  130.1170  125.4180   67.4930 O   0  0  0  0  0  0  0  0  0  0  0  0
  129.6690  126.6420   67.9560 C   0  0  0  0  0  0  0  0  0  0  0  0
  129.0580  127.4110   67.0160 N   0  0  0  0  0  0  0  0  0  0  0  0
  128.5960  128.6180   67.4340 C   0  0  0  0  0  0  0  0  0  0  0  0
  128.7330  129.0610   68.7530 C   0  0  0  0  0  0  0  0  0  0  0  0
  129.3790  128.2000   69.6430 C   0  0  0  0  0  0  0  0  0  0  0  0
  129.8590  126.9870   69.2650 N   0  0  0  0  0  0  0  0  0  0  0  0
  130.0790  125.0340   65.1150 C   0  0  0  0  0  0  0  0  0  0  0  0
  126.9954  134.1293   62.2956 H   0  0  0  0  0  0  0  0  0  0  0  0
  127.0218  135.1061   60.7883 H   0  0  0  0  0  0  0  0  0  0  0  0
  126.2699  133.4747   60.7883 H   0  0  0  0  0  0  0  0  0  0  0  0
  126.6423  132.2182   59.1484 H   0  0  0  0  0  0  0  0  0  0  0  0
  125.1060  130.9258   58.2364 H   0  0  0  0  0  0  0  0  0  0  0  0
  126.3172  131.0880   56.9198 H   0  0  0  0  0  0  0  0  0  0  0  0
  125.1703  129.7055   56.9198 H   0  0  0  0  0  0  0  0  0  0  0  0
  129.5460  128.2590   62.8380 H   0  0  0  0  0  0  0  0  0  0  0  0
  132.1688  125.6070   58.5723 H   0  0  0  0  0  0  0  0  0  0  0  0
  132.3183  127.9071   60.2541 H   0  0  0  0  0  0  0  0  0  0  0  0
  132.2111  129.2308   58.4566 H   0  0  0  0  0  0  0  0  0  0  0  0
  132.5365  127.6402   57.6880 H   0  0  0  0  0  0  0  0  0  0  0  0
  130.8713  128.3138   57.6880 H   0  0  0  0  0  0  0  0  0  0  0  0
  131.5180  123.4900   59.1570 H   0  0  0  0  0  0  0  0  0  0  0  0
  129.8540  118.7450   60.2750 H   0  0  0  0  0  0  0  0  0  0  0  0
  131.4240  118.6750   60.9420 H   0  0  0  0  0  0  0  0  0  0  0  0
  129.6540  120.0190   62.9940 H   0  0  0  0  0  0  0  0  0  0  0  0
  128.9304  124.7116   62.8800 H   0  0  0  0  0  0  0  0  0  0  0  0
  132.6877  124.9927   62.9128 H   0  0  0  0  0  0  0  0  0  0  0  0
  133.9396  125.4944   65.0083 H   0  0  0  0  0  0  0  0  0  0  0  0
  132.7203  125.6977   67.1734 H   0  0  0  0  0  0  0  0  0  0  0  0
  128.0944  129.2727   66.7062 H   0  0  0  0  0  0  0  0  0  0  0  0
  128.3503  130.0409   69.0745 H   0  0  0  0  0  0  0  0  0  0  0  0
  129.5037  128.5161   70.6892 H   0  0  0  0  0  0  0  0  0  0  0  0
  128.9858  124.9157   65.1466 H   0  0  0  0  0  0  0  0  0  0  0  0
  1  2  1  0
  2  3  1  0
  3  4  2  0
  4  5  1  0
  5  6  1  0
  6  7  1  0
  5  8  2  0
  8  9  1  0
  9 10  2  0
 10 11  1  0
  9 12  1  0
 13 12  1  1
 13 14  1  0
 14 15  2  0
 13 16  1  0
 16 17  1  0
 16 18  2  0
 18 19  1  0
 19 20  2  0
 20 21  1  0
 21 22  1  0
 19 23  1  0
 23 24  1  0
 24 25  1  0
 25 26  2  0
 26 27  1  0
 26 28  1  0
 28 29  1  0
 29 30  2  0
 29 31  1  0
 31 32  1  0
 32 33  1  0
 33 34  2  0
 34 35  1  0
 35 36  2  0
 36 37  1  0
 37 38  1  0
 38 39  1  0
 39 40  2  0
 40 41  1  0
 41 42  2  0
 42 43  1  0
 43 44  2  0
 37 45  2  0
 10  3  1  0
 21 13  1  0
 31 24  2  0
 45 33  1  0
 14  8  1  0
 32 18  1  0
 44 39  1  0
  1 46  1  0
  1 47  1  0
  1 48  1  0
  4 49  1  0
  7 50  1  0
  7 51  1  0
  7 52  1  0
 17 53  1  0
 20 54  1  0
 21 55  1  1
 22 56  1  0
 22 57  1  0
 22 58  1  0
 23 59  1  0
 27 60  1  0
 27 61  1  0
 28 62  1  0
 32 63  1  1
 34 64  1  0
 35 65  1  0
 36 66  1  0
 41 67  1  0
 42 68  1  0
 43 69  1  0
 45 70  1  0
M  END
>  <Binding energies>  (1) 
[-6.4]

>  <Ligand effiencies>  (1) 
[-0.128]

>  <Interactions>  (1) 
["V-A:GLU:543:CA:4904, V-A:GLU:543:C:4902, V-A:PRO:540:C:4881, V-B:GLU:543:CB:9878, V-B:ALA:541:CB:9864, V-B:TYR:539:CE2:9848, V-B:LEU:475:CD2:9230, V-B:GLU:543:CG:9879, V-B:TYR:539:C:9839, V-A:ASP:366:CG:3213, V-A:TYR:539:CD1:4873, H-B:TYR:539:OH:9850, V-A:TYR:484:CZ:4347, V-A:GLU:543:CD:4908, V-B:HIS:456:CE1:9041, V-A:HIS:456:CE1:4070, V-B:TYR:539:CD2:9846, V-A:TYR:531:CZ:4794, V-A:GLU:543:CG:4907, H-A:SER:385:OG:3410, V-B:GLU:543:CD:9880, H-B:TYR:531:OH:9767, V-A:ASP:366:CB:3212, V-A:LEU:475:CD2:4259, V-A:ARG:545:CD:4923, V-A:ARG:545:CZ:4926, H-A:GLU:543:OE1:4909, V-A:GLU:543:CB:4906, V-A:PRO:540:CA:4883, H-B:TYR:539:O:9840, V-A:TYR:539:CE1:4875"]

$$$$
ZINC1547139190
     RDKit          3D

 53 58  0  0  0  0  0  0  0  0999 V2000
  129.8450  121.7470   63.5630 C   0  0  0  0  0  0  0  0  0  0  0  0
  129.3350  121.7350   62.1200 C   0  0  0  0  0  0  0  0  0  0  0  0
  128.9700  120.6590   61.6450 O   0  0  0  0  0  0  0  0  0  0  0  0
  129.1680  123.0670   61.4390 C   0  0  0  0  0  0  0  0  0  0  0  0
  128.8630  123.1400   60.0570 C   0  0  0  0  0  0  0  0  0  0  0  0
  128.6690  121.9960   59.3120 O   0  0  0  0  0  0  0  0  0  0  0  0
  128.7420  124.3800   59.3980 C   0  0  0  0  0  0  0  0  0  0  0  0
  128.3990  124.4280   57.9060 C   0  0  0  0  0  0  0  0  0  0  0  0
  128.9390  125.5730   60.1120 C   0  0  0  0  0  0  0  0  0  0  0  0
  128.9130  126.7830   59.4670 O   0  0  0  0  0  0  0  0  0  0  0  0
  129.2200  125.5290   61.4800 C   0  0  0  0  0  0  0  0  0  0  0  0
  129.3390  124.2910   62.1000 C   0  0  0  0  0  0  0  0  0  0  0  0
  129.6600  124.4130   63.4310 O   0  0  0  0  0  0  0  0  0  0  0  0
  129.4730  125.7070   63.7580 C   0  0  0  0  0  0  0  0  0  0  0  0
  129.1070  126.1530   64.9740 C   0  0  0  0  0  0  0  0  0  0  0  0
  128.6900  127.5400   65.1130 C   0  0  0  0  0  0  0  0  0  0  0  0
  128.4660  128.3410   63.9910 C   0  0  0  0  0  0  0  0  0  0  0  0
  127.9800  129.5610   64.4990 C   0  0  0  0  0  0  0  0  0  0  0  0
  127.5400  130.8170   63.7740 C   0  0  0  0  0  0  0  0  0  0  0  0
  127.9410  129.5420   65.8150 N   0  0  0  0  0  0  0  0  0  0  0  0
  128.3660  128.3250   66.1980 N   0  0  0  0  0  0  0  0  0  0  0  0
  128.4130  127.9980   67.5480 C   0  0  0  0  0  0  0  0  0  0  0  0
  129.4880  128.1410   68.2800 N   0  0  0  0  0  0  0  0  0  0  0  0
  129.2910  127.7410   69.5650 C   0  0  0  0  0  0  0  0  0  0  0  0
  130.2660  127.7760   70.5720 C   0  0  0  0  0  0  0  0  0  0  0  0
  129.9200  127.3300   71.8490 C   0  0  0  0  0  0  0  0  0  0  0  0
  131.1010  127.3600   73.1080 Cl  0  0  0  0  0  0  0  0  0  0  0  0
  128.6350  126.8600   72.1270 C   0  0  0  0  0  0  0  0  0  0  0  0
  127.6490  126.8160   71.1410 C   0  0  0  0  0  0  0  0  0  0  0  0
  127.9870  127.2610   69.8560 C   0  0  0  0  0  0  0  0  0  0  0  0
  127.0130  127.3480   68.3970 S   0  0  0  0  0  0  0  0  0  0  0  0
  128.6760  127.8740   62.6080 C   0  0  0  0  0  0  0  0  0  0  0  0
  128.2040  128.4550   61.6340 O   0  0  0  0  0  0  0  0  0  0  0  0
  129.5630  126.5860   62.5130 C   0  0  2  0  0  0  0  0  0  0  0  0
  131.0190  127.0810   62.3190 C   0  0  0  0  0  0  0  0  0  0  0  0
  128.9897  121.7269   64.2544 H   0  0  0  0  0  0  0  0  0  0  0  0
  130.4771  120.8635   63.7359 H   0  0  0  0  0  0  0  0  0  0  0  0
  130.4348  122.6593   63.7359 H   0  0  0  0  0  0  0  0  0  0  0  0
  128.5600  121.2130   59.8590 H   0  0  0  0  0  0  0  0  0  0  0  0
  127.3164  124.5795   57.7833 H   0  0  0  0  0  0  0  0  0  0  0  0
  128.9416  125.2590   57.4316 H   0  0  0  0  0  0  0  0  0  0  0  0
  128.6927  123.4800   57.4316 H   0  0  0  0  0  0  0  0  0  0  0  0
  128.5650  127.4880   60.0170 H   0  0  0  0  0  0  0  0  0  0  0  0
  129.1228  125.4821   65.8456 H   0  0  0  0  0  0  0  0  0  0  0  0
  127.2695  131.5891   64.5093 H   0  0  0  0  0  0  0  0  0  0  0  0
  128.3632  131.1837   63.1432 H   0  0  0  0  0  0  0  0  0  0  0  0
  126.6679  130.5898   63.1432 H   0  0  0  0  0  0  0  0  0  0  0  0
  131.2801  128.1463   70.3608 H   0  0  0  0  0  0  0  0  0  0  0  0
  128.3951  126.5174   73.1444 H   0  0  0  0  0  0  0  0  0  0  0  0
  126.6384  126.4438   71.3652 H   0  0  0  0  0  0  0  0  0  0  0  0
  131.4863  127.2399   63.3020 H   0  0  0  0  0  0  0  0  0  0  0  0
  131.5911  126.3269   61.7586 H   0  0  0  0  0  0  0  0  0  0  0  0
  131.0129  128.0276   61.7586 H   0  0  0  0  0  0  0  0  0  0  0  0
  1  2  1  0
  2  3  2  0
  2  4  1  0
  4  5  2  0
  5  6  1  0
  5  7  1  0
  7  8  1  0
  7  9  2  0
  9 10  1  0
  9 11  1  0
 11 12  2  0
 12 13  1  0
 13 14  1  0
 14 15  2  0
 15 16  1  0
 16 17  2  0
 17 18  1  0
 18 19  1  0
 18 20  2  0
 20 21  1  0
 21 22  1  0
 22 23  2  0
 23 24  1  0
 24 25  2  0
 25 26  1  0
 26 27  1  0
 26 28  2  0
 28 29  1  0
 29 30  2  0
 30 31  1  0
 17 32  1  0
 32 33  2  0
 32 34  1  0
 34 35  1  6
 12  4  1  0
 34 14  1  0
 34 11  1  0
 21 16  1  0
 31 22  1  0
 30 24  1  0
  1 36  1  0
  1 37  1  0
  1 38  1  0
  6 39  1  0
  8 40  1  0
  8 41  1  0
  8 42  1  0
 10 43  1  0
 15 44  1  0
 19 45  1  0
 19 46  1  0
 19 47  1  0
 25 48  1  0
 28 49  1  0
 29 50  1  0
 35 51  1  0
 35 52  1  0
 35 53  1  0
M  END
>  <Binding energies>  (1) 
[-7.05]

>  <Ligand effiencies>  (1) 
[-0.19054054054054054]

>  <Interactions>  (1) 
["V-B:GLU:543:C:9874, V-B:GLU:543:CB:9878, V-B:ALA:541:CB:9864, V-B:TYR:539:CE2:9848, V-B:GLU:543:CG:9879, V-A:GLY:544:C:4912, V-A:HIS:456:CD2:4068, V-B:TYR:539:CZ:9849, H-B:ALA:541:N:9863, V-A:GLU:543:CD:4908, H-B:TYR:484:OH:9319, V-B:HIS:456:CE1:9041, V-A:HIS:456:CE1:4070, V-B:GLY:544:C:9884, V-B:TYR:539:CD2:9846, V-A:GLU:543:CG:4907, V-B:GLY:544:CA:9886, V-B:GLU:543:CD:9880, V-A:LEU:475:CD2:4259, V-A:GLU:543:CB:4906, H-B:TYR:539:O:9840"]

$$$$
ZINC1547201206
     RDKit          3D

 35 37  0  0  0  0  0  0  0  0999 V2000
  134.1520  124.2940   60.7510 C   0  0  0  0  0  0  0  0  0  0  0  0
  133.6420  124.3470   62.1740 C   0  0  0  0  0  0  0  0  0  0  0  0
  134.4170  124.7230   63.1690 N   0  0  0  0  0  0  0  0  0  0  0  0
  133.5670  124.6560   64.2690 O   0  0  0  0  0  0  0  0  0  0  0  0
  132.3790  124.2380   63.7650 C   0  0  0  0  0  0  0  0  0  0  0  0
  131.2060  124.0930   64.7100 C   0  0  0  0  0  0  0  0  0  0  0  0
  130.4520  122.7830   64.4310 C   0  0  0  0  0  0  0  0  0  0  0  0
  129.8670  122.7460   63.1010 N   0  0  0  0  0  0  0  0  0  0  0  0
  128.5250  122.8930   62.8210 C   0  0  0  0  0  0  0  0  0  0  0  0
  127.8940  123.1240   61.6400 C   0  0  0  0  0  0  0  0  0  0  0  0
  126.4110  123.2210   61.6750 C   0  0  0  0  0  0  0  0  0  0  0  0
  125.6760  123.1580   62.6610 O   0  0  0  0  0  0  0  0  0  0  0  0
  125.7470  123.4050   60.4900 O   0  0  0  0  0  0  0  0  0  0  0  0
  126.4020  123.4710   59.2770 C   0  0  0  0  0  0  0  0  0  0  0  0
  125.5890  123.6060   58.1490 C   0  0  0  0  0  0  0  0  0  0  0  0
  126.1650  123.6970   56.8840 C   0  0  0  0  0  0  0  0  0  0  0  0
  127.5520  123.6580   56.7470 C   0  0  0  0  0  0  0  0  0  0  0  0
  128.3620  123.5230   57.8750 C   0  0  0  0  0  0  0  0  0  0  0  0
  127.7990  123.4240   59.1570 C   0  0  0  0  0  0  0  0  0  0  0  0
  128.6580  123.2670   60.3700 C   0  0  0  0  0  0  0  0  0  0  0  0
  129.8880  123.2510   60.2730 O   0  0  0  0  0  0  0  0  0  0  0  0
  132.3930  124.0540   62.4730 N   0  0  0  0  0  0  0  0  0  0  0  0
  135.2461  124.1803   60.7576 H   0  0  0  0  0  0  0  0  0  0  0  0
  133.6976  123.4382   60.2303 H   0  0  0  0  0  0  0  0  0  0  0  0
  133.8832  125.2249   60.2303 H   0  0  0  0  0  0  0  0  0  0  0  0
  131.5743  124.0855   65.7465 H   0  0  0  0  0  0  0  0  0  0  0  0
  130.5194  124.9390   64.5590 H   0  0  0  0  0  0  0  0  0  0  0  0
  131.1561  121.9436   64.5294 H   0  0  0  0  0  0  0  0  0  0  0  0
  129.6298  122.7110   65.1582 H   0  0  0  0  0  0  0  0  0  0  0  0
  130.5360  122.8730   62.3550 H   0  0  0  0  0  0  0  0  0  0  0  0
  127.8590  122.8101   63.6926 H   0  0  0  0  0  0  0  0  0  0  0  0
  124.4951  123.6404   58.2597 H   0  0  0  0  0  0  0  0  0  0  0  0
  125.5264  123.7995   55.9942 H   0  0  0  0  0  0  0  0  0  0  0  0
  128.0080  123.7337   55.7488 H   0  0  0  0  0  0  0  0  0  0  0  0
  129.4554  123.4938   57.7582 H   0  0  0  0  0  0  0  0  0  0  0  0
  1  2  1  0
  2  3  2  0
  3  4  1  0
  4  5  1  0
  5  6  1  0
  6  7  1  0
  7  8  1  0
  8  9  1  0
  9 10  2  0
 10 11  1  0
 11 12  2  0
 11 13  1  0
 13 14  1  0
 14 15  2  0
 15 16  1  0
 16 17  2  0
 17 18  1  0
 18 19  2  0
 19 20  1  0
 20 21  2  0
  5 22  2  0
 22  2  1  0
 20 10  1  0
 19 14  1  0
  1 23  1  0
  1 24  1  0
  1 25  1  0
  6 26  1  0
  6 27  1  0
  7 28  1  0
  7 29  1  0
  8 30  1  0
  9 31  1  0
 15 32  1  0
 16 33  1  0
 17 34  1  0
 18 35  1  0
M  END
>  <Binding energies>  (1) 
[-6.83]

>  <Ligand effiencies>  (1) 
[-0.29695652173913045]

>  <Interactions>  (1) 
["V-A:ILE:369:CG2:3237, V-A:ASP:366:CA:3210, V-B:PRO:540:CA:9855, V-B:ALA:541:CB:9864, H-A:ARG:545:NH1:4927, V-A:TYR:484:CE2:4346, V-B:TYR:539:CE2:9848, V-B:GLU:543:CG:9879, V-A:ASP:366:CG:3213, V-B:TYR:539:CZ:9849, H-B:ALA:541:N:9863, V-B:PRO:540:CB:9857, H-A:GLY:454:N:4050, V-B:PRO:540:N:9856, V-A:ILE:369:CD1:3239, V-B:TYR:539:CD2:9846, V-B:GLU:543:CD:9880, V-A:LEU:475:CD2:4259, H-A:ARG:545:NH2:4928, H-A:ARG:545:NE:4924, V-B:PRO:540:C:9853, V-B:MET:535:CE:9807, V-B:TYR:539:CE1:9847, H-A:TYR:484:OH:4348"]

$$$$
ZINC1547208629
     RDKit          3D

112117  0  0  0  0  0  0  0  0999 V2000
  134.7060  124.0840   62.1600 C   0  0  0  0  0  0  0  0  0  0  0  0
  134.0840  124.7560   63.3910 C   0  0  0  0  0  0  0  0  0  0  0  0
  132.8930  123.9660   64.0040 C   0  0  2  0  0  0  0  0  0  0  0  0
  132.7810  122.5800   63.3360 C   0  0  0  0  0  0  0  0  0  0  0  0
  131.5180  124.7320   63.9840 C   0  0  2  0  0  0  0  0  0  0  0  0
  131.3540  125.5800   65.1730 N   0  0  0  0  0  0  0  0  0  0  0  0
  130.8920  125.1580   66.3610 C   0  0  0  0  0  0  0  0  0  0  0  0
  130.6290  123.9790   66.5960 O   0  0  0  0  0  0  0  0  0  0  0  0
  130.6500  126.2350   67.4350 C   0  0  0  0  0  0  0  0  0  0  0  0
  129.1650  126.6750   67.6310 C   0  0  1  0  0  0  0  0  0  0  0  0
  128.7470  126.9580   69.0840 C   0  0  0  0  0  0  0  0  0  0  0  0
  127.4120  126.7520   69.4460 C   0  0  0  0  0  0  0  0  0  0  0  0
  126.9860  126.9980   70.7480 C   0  0  0  0  0  0  0  0  0  0  0  0
  127.8960  127.4530   71.7140 C   0  0  0  0  0  0  0  0  0  0  0  0
  127.5650  127.7290   73.0270 O   0  0  0  0  0  0  0  0  0  0  0  0
  128.2670  128.7560   73.7190 C   0  0  0  0  0  0  0  0  0  0  0  0
  129.2290  127.6490   71.3530 C   0  0  0  0  0  0  0  0  0  0  0  0
  129.6560  127.4040   70.0500 C   0  0  0  0  0  0  0  0  0  0  0  0
  128.6980  127.7880   66.6600 C   0  0  0  0  0  0  0  0  0  0  0  0
  128.4320  129.0780   67.1430 C   0  0  0  0  0  0  0  0  0  0  0  0
  128.5600  129.3950   68.4720 O   0  0  0  0  0  0  0  0  0  0  0  0
  128.0260  130.0850   66.2750 C   0  0  0  0  0  0  0  0  0  0  0  0
  127.8640  129.8470   64.9100 C   0  0  0  0  0  0  0  0  0  0  0  0
  128.1210  128.5550   64.3980 C   0  0  0  0  0  0  0  0  0  0  0  0
  128.5520  127.5360   65.2810 C   0  0  0  0  0  0  0  0  0  0  0  0
  128.8450  126.2810   64.7950 O   0  0  0  0  0  0  0  0  0  0  0  0
  127.9110  128.2580   62.9390 C   0  0  0  0  0  0  0  0  0  0  0  0
  126.9380  127.6510   62.4860 O   0  0  0  0  0  0  0  0  0  0  0  0
  129.0240  128.5650   62.2290 O   0  0  0  0  0  0  0  0  0  0  0  0
  128.9700  129.1310   60.9240 C   0  0  1  0  0  0  0  0  0  0  0  0
  129.0180  127.9990   59.8830 C   0  0  0  0  0  0  0  0  0  0  0  0
  127.6880  129.9890   60.8150 C   0  0  0  0  0  0  0  0  0  0  0  0
  127.2290  130.2990   59.3700 C   0  0  0  0  0  0  0  0  0  0  0  0
  127.9500  131.4900   58.7010 C   0  0  0  0  0  0  0  0  0  0  0  0
  128.6700  132.4050   59.6920 C   0  0  0  0  0  0  0  0  0  0  0  0
  128.2410  133.5290   59.9450 O   0  0  0  0  0  0  0  0  0  0  0  0
  129.9290  131.8610   60.3790 C   0  0  0  0  0  0  0  0  0  0  0  0
  130.1770  132.4360   61.7920 C   0  0  0  0  0  0  0  0  0  0  0  0
  129.6540  131.5640   62.9540 C   0  0  0  0  0  0  0  0  0  0  0  0
  128.1560  131.6850   63.1910 C   0  0  0  0  0  0  0  0  0  0  0  0
  127.4120  130.9800   64.0680 C   0  0  0  0  0  0  0  0  0  0  0  0
  130.3120  123.7480   63.8600 C   0  0  0  0  0  0  0  0  0  0  0  0
  130.2260  122.8230   64.6740 O   0  0  0  0  0  0  0  0  0  0  0  0
  129.3960  123.9150   62.8610 N   0  0  0  0  0  0  0  0  0  0  0  0
  128.0850  123.2230   62.7980 C   0  0  0  0  0  0  0  0  0  0  0  0
  127.9070  122.5110   61.4180 C   0  0  1  0  0  0  0  0  0  0  0  0
  128.1220  123.5050   60.2850 C   0  0  0  0  0  0  0  0  0  0  0  0
  129.5260  124.0890   60.4330 C   0  0  1  0  0  0  0  0  0  0  0  0
  129.6700  124.8720   61.7610 C   0  0  0  0  0  0  0  0  0  0  0  0
  130.6180  123.0140   60.3160 C   0  0  0  0  0  0  0  0  0  0  0  0
  131.9130  123.3680   60.1390 C   0  0  0  0  0  0  0  0  0  0  0  0
  132.9280  122.3370   60.1570 C   0  0  0  0  0  0  0  0  0  0  0  0
  132.5650  121.0690   60.4300 C   0  0  0  0  0  0  0  0  0  0  0  0
  131.2060  120.6960   60.8040 C   0  0  0  0  0  0  0  0  0  0  0  0
  130.9850  119.5630   61.2400 O   0  0  0  0  0  0  0  0  0  0  0  0
  130.2590  121.7020   60.6900 N   0  0  0  0  0  0  0  0  0  0  0  0
  128.9070  121.3420   61.2140 C   0  0  0  0  0  0  0  0  0  0  0  0
  135.4199  123.3127   62.4848 H   0  0  0  0  0  0  0  0  0  0  0  0
  133.9129  123.6186   61.5563 H   0  0  0  0  0  0  0  0  0  0  0  0
  135.2312  124.8388   61.5563 H   0  0  0  0  0  0  0  0  0  0  0  0
  134.8635  124.8599   64.1601 H   0  0  0  0  0  0  0  0  0  0  0  0
  133.6871  125.7268   63.0592 H   0  0  0  0  0  0  0  0  0  0  0  0
  133.1224  123.8436   65.0728 H   0  0  0  0  0  0  0  0  0  0  0  0
  132.7182  121.8029   64.1120 H   0  0  0  0  0  0  0  0  0  0  0  0
  131.8772  122.5467   62.7098 H   0  0  0  0  0  0  0  0  0  0  0  0
  133.6677  122.4020   62.7098 H   0  0  0  0  0  0  0  0  0  0  0  0
  131.5305  125.3789   63.0944 H   0  0  0  0  0  0  0  0  0  0  0  0
  131.5570  126.5600   65.0400 H   0  0  0  0  0  0  0  0  0  0  0  0
  131.0156  125.8425   68.3954 H   0  0  0  0  0  0  0  0  0  0  0  0
  131.1843  127.1311   67.0863 H   0  0  0  0  0  0  0  0  0  0  0  0
  128.6118  125.7668   67.3497 H   0  0  0  0  0  0  0  0  0  0  0  0
  126.6926  126.3926   68.6955 H   0  0  0  0  0  0  0  0  0  0  0  0
  125.9328  126.8352   71.0204 H   0  0  0  0  0  0  0  0  0  0  0  0
  128.1633  128.6043   74.8035 H   0  0  0  0  0  0  0  0  0  0  0  0
  129.3315  128.7218   73.4441 H   0  0  0  0  0  0  0  0  0  0  0  0
  127.8486  129.7355   73.4441 H   0  0  0  0  0  0  0  0  0  0  0  0
  129.9505  128.0007   72.1051 H   0  0  0  0  0  0  0  0  0  0  0  0
  130.7105  127.5615   69.7796 H   0  0  0  0  0  0  0  0  0  0  0  0
  129.1250  130.1560   68.6220 H   0  0  0  0  0  0  0  0  0  0  0  0
  127.8282  131.0912   66.6730 H   0  0  0  0  0  0  0  0  0  0  0  0
  128.4100  126.0970   63.9590 H   0  0  0  0  0  0  0  0  0  0  0  0
  129.8317  129.7871   60.7315 H   0  0  0  0  0  0  0  0  0  0  0  0
  129.0592  127.0282   60.3986 H   0  0  0  0  0  0  0  0  0  0  0  0
  128.1172  128.0417   59.2531 H   0  0  0  0  0  0  0  0  0  0  0  0
  129.9119  128.1178   59.2531 H   0  0  0  0  0  0  0  0  0  0  0  0
  126.8738  129.4521   61.3238 H   0  0  0  0  0  0  0  0  0  0  0  0
  127.9271  130.9586   61.2761 H   0  0  0  0  0  0  0  0  0  0  0  0
  127.4055  129.4037   58.7557 H   0  0  0  0  0  0  0  0  0  0  0  0
  126.1672  130.5785   59.4364 H   0  0  0  0  0  0  0  0  0  0  0  0
  128.6915  131.0936   57.9918 H   0  0  0  0  0  0  0  0  0  0  0  0
  127.1783  132.0964   58.2043 H   0  0  0  0  0  0  0  0  0  0  0  0
  129.8316  130.7686   60.4631 H   0  0  0  0  0  0  0  0  0  0  0  0
  130.7848  132.1655   59.7586 H   0  0  0  0  0  0  0  0  0  0  0  0
  131.2618  132.5633   61.9227 H   0  0  0  0  0  0  0  0  0  0  0  0
  129.6164  133.3811   61.8413 H   0  0  0  0  0  0  0  0  0  0  0  0
  129.8850  130.5124   62.7288 H   0  0  0  0  0  0  0  0  0  0  0  0
  130.1513  131.9197   63.8684 H   0  0  0  0  0  0  0  0  0  0  0  0
  127.6216  132.4281   62.5809 H   0  0  0  0  0  0  0  0  0  0  0  0
  126.3578  131.2776   64.1690 H   0  0  0  0  0  0  0  0  0  0  0  0
  128.0324  122.4735   63.6014 H   0  0  0  0  0  0  0  0  0  0  0  0
  127.2840  123.9670   62.9202 H   0  0  0  0  0  0  0  0  0  0  0  0
  126.8839  122.1071   61.4097 H   0  0  0  0  0  0  0  0  0  0  0  0
  128.0305  122.9927   59.3159 H   0  0  0  0  0  0  0  0  0  0  0  0
  127.3678  124.3046   60.3284 H   0  0  0  0  0  0  0  0  0  0  0  0
  129.6667  124.7914   59.5982 H   0  0  0  0  0  0  0  0  0  0  0  0
  130.6901  125.2729   61.8544 H   0  0  0  0  0  0  0  0  0  0  0  0
  128.9697  125.7196   61.7947 H   0  0  0  0  0  0  0  0  0  0  0  0
  132.1887  124.4216   59.9841 H   0  0  0  0  0  0  0  0  0  0  0  0
  133.9797  122.5849   59.9509 H   0  0  0  0  0  0  0  0  0  0  0  0
  133.3282  120.2793   60.3680 H   0  0  0  0  0  0  0  0  0  0  0  0
  128.4524  120.6336   60.5058 H   0  0  0  0  0  0  0  0  0  0  0  0
  129.0850  120.9338   62.2198 H   0  0  0  0  0  0  0  0  0  0  0  0
  1  2  1  0
  2  3  1  0
  3  4  1  0
  3  5  1  0
  5  6  1  0
  6  7  1  0
  7  8  2  0
  7  9  1  0
  9 10  1  0
 10 11  1  0
 11 12  2  0
 12 13  1  0
 13 14  2  0
 14 15  1  0
 15 16  1  0
 14 17  1  0
 17 18  2  0
 10 19  1  0
 19 20  2  0
 20 21  1  0
 20 22  1  0
 22 23  2  0
 23 24  1  0
 24 25  2  0
 25 26  1  0
 24 27  1  0
 27 28  2  0
 27 29  1  0
 29 30  1  0
 30 31  1  0
 30 32  1  0
 32 33  1  0
 33 34  1  0
 34 35  1  0
 35 36  2  0
 35 37  1  0
 37 38  1  0
 38 39  1  0
 39 40  1  0
 40 41  2  0
  5 42  1  0
 42 43  2  0
 42 44  1  0
 44 45  1  0
 45 46  1  0
 46 47  1  0
 47 48  1  0
 48 49  1  0
 48 50  1  0
 50 51  2  0
 51 52  1  0
 52 53  2  0
 53 54  1  0
 54 55  2  0
 54 56  1  0
 56 57  1  0
 18 11  1  0
 25 19  1  0
 49 44  1  0
 56 50  1  0
 41 23  1  0
 57 46  1  0
  1 58  1  0
  1 59  1  0
  1 60  1  0
  2 61  1  0
  2 62  1  0
  3 63  1  1
  4 64  1  0
  4 65  1  0
  4 66  1  0
  5 67  1  6
  6 68  1  0
  9 69  1  0
  9 70  1  0
 10 71  1  6
 12 72  1  0
 13 73  1  0
 16 74  1  0
 16 75  1  0
 16 76  1  0
 17 77  1  0
 18 78  1  0
 21 79  1  0
 22 80  1  0
 26 81  1  0
 30 82  1  6
 31 83  1  0
 31 84  1  0
 31 85  1  0
 32 86  1  0
 32 87  1  0
 33 88  1  0
 33 89  1  0
 34 90  1  0
 34 91  1  0
 37 92  1  0
 37 93  1  0
 38 94  1  0
 38 95  1  0
 39 96  1  0
 39 97  1  0
 40 98  1  0
 41 99  1  0
 45100  1  0
 45101  1  0
 46102  1  1
 47103  1  0
 47104  1  0
 48105  1  6
 49106  1  0
 49107  1  0
 51108  1  0
 52109  1  0
 53110  1  0
 57111  1  0
 57112  1  0
M  END
>  <Binding energies>  (1) 
[-6.77]

>  <Ligand effiencies>  (1) 
[-0.10919354838709677]

>  <Interactions>  (1) 
["V-A:ILE:369:CG2:3237, V-B:PRO:540:CA:9855, V-A:GLY:454:CA:4049, V-B:GLU:543:C:9874, H-A:GLU:543:OE2:4910, V-B:HIS:456:CD2:9039, V-B:GLU:543:CB:9878, H-B:LYS:547:NZ:9923, V-A:PRO:540:C:4881, V-B:ALA:541:CB:9864, V-B:TYR:539:CE2:9848, V-A:TYR:484:CE2:4346, V-B:GLU:543:CG:9879, V-B:TYR:539:C:9839, V-B:TYR:484:CE2:9317, H-B:GLU:543:OE1:9881, V-A:ALA:541:CB:4892, V-A:GLU:543:CD:4908, V-A:TYR:484:CZ:4347, V-B:HIS:456:CE1:9041, V-B:GLU:543:CA:9876, V-A:GLY:453:C:4042, V-B:TYR:484:CZ:9318, V-A:HIS:456:CE1:4070, V-A:ILE:369:CD1:3239, V-B:GLY:544:C:9884, H-B:HIS:456:NE2:9042, V-B:TYR:539:CD2:9846, V-A:GLU:543:CG:4907, V-B:GLY:544:CA:9886, H-A:SER:385:OG:3410, V-B:GLU:543:CD:9880, V-B:HIS:456:CG:9037, V-A:LEU:475:CD2:4259, V-A:ARG:545:CZ:4926, H-A:GLU:543:OE1:4909, H-B:ARG:545:NH2:9900, V-A:GLU:543:CB:4906, H-B:GLU:543:OE2:9882, V-A:GLY:453:CA:4044, V-A:PRO:540:CA:4883, V-B:PRO:540:C:9853, H-A:TYR:484:OH:4348, H-A:GLU:543:O:4903"]

$$$$
ZINC1547211045
     RDKit          3D

 89 95  0  0  0  0  0  0  0  0999 V2000
  127.8950  127.9330   67.5630 C   0  0  0  0  0  0  0  0  0  0  0  0
  128.3290  126.6010   67.8180 O   0  0  0  0  0  0  0  0  0  0  0  0
  129.4780  126.1310   67.2070 C   0  0  0  0  0  0  0  0  0  0  0  0
  129.4810  125.3850   66.0150 C   0  0  0  0  0  0  0  0  0  0  0  0
  130.6760  124.9360   65.4390 C   0  0  0  0  0  0  0  0  0  0  0  0
  130.6230  124.1400   64.1200 C   0  0  2  0  0  0  0  0  0  0  0  0
  131.9900  123.5420   63.6290 C   0  0  0  0  0  0  0  0  0  0  0  0
  133.1240  124.5480   63.3130 C   0  0  0  0  0  0  0  0  0  0  0  0
  133.6380  125.1710   64.2450 O   0  0  0  0  0  0  0  0  0  0  0  0
  133.4560  124.7860   62.0150 N   0  0  0  0  0  0  0  0  0  0  0  0
  132.7630  125.8410   61.2370 C   0  0  0  0  0  0  0  0  0  0  0  0
  132.2870  125.2660   59.8650 C   0  0  1  0  0  0  0  0  0  0  0  0
  133.4730  124.6640   59.1230 C   0  0  0  0  0  0  0  0  0  0  0  0
  134.0710  123.5630   60.0010 C   0  0  1  0  0  0  0  0  0  0  0  0
  134.6030  124.1320   61.3400 C   0  0  0  0  0  0  0  0  0  0  0  0
  133.0690  122.4250   60.2530 C   0  0  0  0  0  0  0  0  0  0  0  0
  133.4930  121.2310   60.7230 C   0  0  0  0  0  0  0  0  0  0  0  0
  132.5120  120.2220   61.0470 C   0  0  0  0  0  0  0  0  0  0  0  0
  131.1940  120.5020   60.9220 C   0  0  0  0  0  0  0  0  0  0  0  0
  130.2330  119.4420   61.2700 N   0  0  0  0  0  0  0  0  0  0  0  0
  130.5860  118.2830   61.0710 O   0  0  0  0  0  0  0  0  0  0  0  0
  129.1470  119.7920   61.7230 O   0  0  0  0  0  0  0  0  0  0  0  0
  130.7170  121.8300   60.5060 C   0  0  0  0  0  0  0  0  0  0  0  0
  129.5090  122.0850   60.4660 O   0  0  0  0  0  0  0  0  0  0  0  0
  131.7010  122.7600   60.2170 N   0  0  0  0  0  0  0  0  0  0  0  0
  131.2050  124.1590   60.0140 C   0  0  0  0  0  0  0  0  0  0  0  0
  129.8080  124.9220   63.0220 C   0  0  1  0  0  0  0  0  0  0  0  0
  128.4410  124.2920   62.6500 C   0  0  0  0  0  0  0  0  0  0  0  0
  127.9890  123.2650   63.1560 O   0  0  0  0  0  0  0  0  0  0  0  0
  127.6720  125.0430   61.5560 C   0  0  0  0  0  0  0  0  0  0  0  0
  127.5600  126.5640   61.8410 C   0  0  2  0  0  0  0  0  0  0  0  0
  126.7110  127.2300   60.7360 C   0  0  0  0  0  0  0  0  0  0  0  0
  128.9270  127.2390   62.2010 C   0  0  2  0  0  0  0  0  0  0  0  0
  128.6480  128.5190   62.7760 O   0  0  0  0  0  0  0  0  0  0  0  0
  129.2910  129.4670   62.0250 C   0  0  0  0  0  0  0  0  0  0  0  0
  129.2490  130.8350   62.2900 C   0  0  0  0  0  0  0  0  0  0  0  0
  128.3510  131.4240   63.6460 Cl  0  0  0  0  0  0  0  0  0  0  0  0
  129.9390  131.7160   61.4450 C   0  0  0  0  0  0  0  0  0  0  0  0
  129.8680  133.0650   61.7440 O   0  0  0  0  0  0  0  0  0  0  0  0
  128.6920  133.7960   61.4160 C   0  0  0  0  0  0  0  0  0  0  0  0
  130.6560  131.1920   60.3490 C   0  0  0  0  0  0  0  0  0  0  0  0
  130.6900  129.8080   60.0910 C   0  0  0  0  0  0  0  0  0  0  0  0
  131.3650  129.2140   59.0410 O   0  0  0  0  0  0  0  0  0  0  0  0
  132.2500  130.0040   58.2530 C   0  0  0  0  0  0  0  0  0  0  0  0
  129.9930  128.9550   60.9510 C   0  0  0  0  0  0  0  0  0  0  0  0
  129.8210  127.4980   60.9720 C   0  0  0  0  0  0  0  0  0  0  0  0
  130.2760  126.6690   60.1840 O   0  0  0  0  0  0  0  0  0  0  0  0
  129.7120  126.4490   63.2840 C   0  0  0  0  0  0  0  0  0  0  0  0
  130.2410  127.0000   64.2530 O   0  0  0  0  0  0  0  0  0  0  0  0
  131.8850  125.2460   66.0700 C   0  0  0  0  0  0  0  0  0  0  0  0
  131.9010  125.9830   67.2510 C   0  0  0  0  0  0  0  0  0  0  0  0
  130.7060  126.4240   67.8170 C   0  0  0  0  0  0  0  0  0  0  0  0
  130.7530  127.1510   68.9790 O   0  0  0  0  0  0  0  0  0  0  0  0
  127.7257  128.4526   68.5177 H   0  0  0  0  0  0  0  0  0  0  0  0
  128.6660  128.4659   66.9872 H   0  0  0  0  0  0  0  0  0  0  0  0
  126.9581  127.9095   66.9872 H   0  0  0  0  0  0  0  0  0  0  0  0
  128.5249  125.1492   65.5248 H   0  0  0  0  0  0  0  0  0  0  0  0
  130.0604  123.2216   64.3437 H   0  0  0  0  0  0  0  0  0  0  0  0
  132.3568  122.8642   64.4139 H   0  0  0  0  0  0  0  0  0  0  0  0
  131.7615  123.0578   62.6681 H   0  0  0  0  0  0  0  0  0  0  0  0
  131.8912  126.1989   61.8043 H   0  0  0  0  0  0  0  0  0  0  0  0
  133.4587  126.6740   61.0580 H   0  0  0  0  0  0  0  0  0  0  0  0
  131.8456  126.1073   59.3105 H   0  0  0  0  0  0  0  0  0  0  0  0
  133.1372  124.2374   58.1663 H   0  0  0  0  0  0  0  0  0  0  0  0
  134.2263  125.4381   58.9150 H   0  0  0  0  0  0  0  0  0  0  0  0
  134.9228  123.1409   59.4475 H   0  0  0  0  0  0  0  0  0  0  0  0
  134.9973  123.3186   61.9668 H   0  0  0  0  0  0  0  0  0  0  0  0
  135.4194  124.8486   61.1671 H   0  0  0  0  0  0  0  0  0  0  0  0
  134.5664  121.0312   60.8564 H   0  0  0  0  0  0  0  0  0  0  0  0
  132.8350  119.2294   61.3941 H   0  0  0  0  0  0  0  0  0  0  0  0
  130.5917  124.1666   59.1009 H   0  0  0  0  0  0  0  0  0  0  0  0
  130.6582  124.4096   60.9350 H   0  0  0  0  0  0  0  0  0  0  0  0
  130.4235  124.8051   62.1179 H   0  0  0  0  0  0  0  0  0  0  0  0
  128.1943  124.9017   60.5983 H   0  0  0  0  0  0  0  0  0  0  0  0
  126.6513  124.6340   61.5263 H   0  0  0  0  0  0  0  0  0  0  0  0
  127.0072  126.7294   62.7775 H   0  0  0  0  0  0  0  0  0  0  0  0
  125.9256  127.8461   61.1982 H   0  0  0  0  0  0  0  0  0  0  0  0
  127.3557  127.8658   60.1114 H   0  0  0  0  0  0  0  0  0  0  0  0
  126.2470  126.4525   60.1114 H   0  0  0  0  0  0  0  0  0  0  0  0
  128.1860  134.1106   62.3406 H   0  0  0  0  0  0  0  0  0  0  0  0
  128.9646  134.6840   60.8269 H   0  0  0  0  0  0  0  0  0  0  0  0
  128.0163  133.1585   60.8269 H   0  0  0  0  0  0  0  0  0  0  0  0
  131.1994  131.8781   59.6826 H   0  0  0  0  0  0  0  0  0  0  0  0
  132.9059  130.5895   58.9140 H   0  0  0  0  0  0  0  0  0  0  0  0
  132.8619  129.3463   57.6182 H   0  0  0  0  0  0  0  0  0  0  0  0
  131.6657  130.6864   57.6182 H   0  0  0  0  0  0  0  0  0  0  0  0
  132.8328  124.9041   65.6287 H   0  0  0  0  0  0  0  0  0  0  0  0
  132.8587  126.2178   67.7385 H   0  0  0  0  0  0  0  0  0  0  0  0
  129.8830  127.4020   69.2980 H   0  0  0  0  0  0  0  0  0  0  0  0
  1  2  1  0
  2  3  1  0
  3  4  2  0
  4  5  1  0
  5  6  1  0
  6  7  1  0
  7  8  1  0
  8  9  2  0
  8 10  1  0
 10 11  1  0
 11 12  1  0
 12 13  1  0
 13 14  1  0
 14 15  1  0
 14 16  1  0
 16 17  2  0
 17 18  1  0
 18 19  2  0
 19 20  1  0
 20 21  2  0
 20 22  1  0
 19 23  1  0
 23 24  2  0
 23 25  1  0
 25 26  1  0
  6 27  1  0
 27 28  1  0
 28 29  2  0
 28 30  1  0
 30 31  1  0
 31 32  1  0
 31 33  1  0
 33 34  1  1
 34 35  1  0
 35 36  2  0
 36 37  1  0
 36 38  1  0
 38 39  1  0
 39 40  1  0
 38 41  2  0
 41 42  1  0
 42 43  1  0
 43 44  1  0
 42 45  2  0
 45 46  1  0
 46 47  2  0
 33 48  1  0
 48 49  2  0
  5 50  2  0
 50 51  1  0
 51 52  2  0
 52 53  1  0
 52  3  1  0
 15 10  1  0
 25 16  1  0
 48 27  1  0
 26 12  1  0
 46 33  1  0
 45 35  1  0
  1 54  1  0
  1 55  1  0
  1 56  1  0
  4 57  1  0
  6 58  1  1
  7 59  1  0
  7 60  1  0
 11 61  1  0
 11 62  1  0
 12 63  1  6
 13 64  1  0
 13 65  1  0
 14 66  1  6
 15 67  1  0
 15 68  1  0
 17 69  1  0
 18 70  1  0
 26 71  1  0
 26 72  1  0
 27 73  1  6
 30 74  1  0
 30 75  1  0
 31 76  1  1
 32 77  1  0
 32 78  1  0
 32 79  1  0
 40 80  1  0
 40 81  1  0
 40 82  1  0
 41 83  1  0
 44 84  1  0
 44 85  1  0
 44 86  1  0
 50 87  1  0
 51 88  1  0
 53 89  1  0
M  CHG  2  20   1  22  -1
M  END
>  <Binding energies>  (1) 
[-7.23]

>  <Ligand effiencies>  (1) 
[-0.1338888888888889]

>  <Interactions>  (1) 
["V-A:ILE:369:CG2:3237, V-A:ASP:366:CA:3210, V-A:ILE:369:CB:3236, H-A:ALA:541:N:4891, V-B:GLU:543:CB:9878, V-A:PRO:540:C:4881, V-B:ASP:366:CG:8184, V-B:ALA:541:CB:9864, H-A:ARG:545:NH1:4927, V-B:TYR:539:CE2:9848, V-B:GLU:543:CG:9879, V-A:ASP:366:CG:3213, V-A:ALA:541:CB:4892, H-B:ALA:541:N:9863, V-A:GLU:543:CD:4908, V-A:TYR:484:CZ:4347, V-B:HIS:456:CE1:9041, V-A:ARG:545:CG:4922, H-A:GLY:454:N:4050, V-A:HIS:456:CE1:4070, V-A:ILE:369:CD1:3239, V-B:TYR:539:CD2:9846, V-A:GLU:543:CG:4907, V-A:SER:385:CB:3409, H-A:SER:385:OG:3410, V-B:GLU:543:CD:9880, V-A:TYR:539:C:4867, V-A:ASP:366:CB:3212, V-A:LEU:475:CD2:4259, H-A:ARG:545:NH2:4928, V-A:ARG:545:CZ:4926, H-A:HIS:383:HE2:3395, V-A:PRO:540:CA:4883, H-A:ARG:545:NE:4924, H-A:HIS:456:NE2:4071"]

$$$$
ZINC1565503745
     RDKit          3D

 64 66  0  0  0  0  0  0  0  0999 V2000
  133.5670  125.0580   62.5240 C   0  0  0  0  0  0  0  0  0  0  0  0
  133.2930  123.6290   61.9800 C   0  0  0  0  0  0  0  0  0  0  0  0
  133.5930  122.6670   63.1730 C   0  0  0  0  0  0  0  0  0  0  0  0
  134.0150  123.2770   60.6430 C   0  0  2  0  0  0  0  0  0  0  0  0
  133.9780  124.4370   59.5540 C   0  0  0  0  0  0  0  0  0  0  0  0
  132.5070  124.5740   59.0910 C   0  0  2  0  0  0  0  0  0  0  0  0
  131.9250  125.5360   58.2530 O   0  0  0  0  0  0  0  0  0  0  0  0
  130.5900  125.1200   58.2690 B   0  0  0  0  0  0  0  0  0  0  0  0
  129.4770  125.5970   57.2640 C   0  0  1  0  0  0  0  0  0  0  0  0
  128.2590  124.3030   57.1030 Cl  0  0  0  0  0  0  0  0  0  0  0  0
  128.8110  126.9240   57.6820 C   0  0  0  0  0  0  0  0  0  0  0  0
  129.6910  128.1670   57.4480 C   0  0  0  0  0  0  0  0  0  0  0  0
  130.5350  128.5390   58.6750 C   0  0  0  0  0  0  0  0  0  0  0  0
  131.5060  129.4970   58.3010 O   0  0  0  0  0  0  0  0  0  0  0  0
  131.5890  131.0890   58.8360 Si  0  0  0  0  0  4  0  0  0  0  0  0
  130.7060  131.2030   60.5020 C   0  0  0  0  0  0  0  0  0  0  0  0
  133.4200  131.4850   59.0610 C   0  0  0  0  0  0  0  0  0  0  0  0
  130.7990  132.2370   57.5300 C   0  0  0  0  0  0  0  0  0  0  0  0
  130.1090  131.3840   56.4440 C   0  0  0  0  0  0  0  0  0  0  0  0
  129.7460  133.1440   58.1990 C   0  0  0  0  0  0  0  0  0  0  0  0
  131.8690  133.1200   56.8520 C   0  0  0  0  0  0  0  0  0  0  0  0
  130.3760  124.2120   59.3290 O   0  0  0  0  0  0  0  0  0  0  0  0
  131.4580  124.4380   60.2340 C   0  0  2  0  0  0  0  0  0  0  0  0
  131.0180  125.7230   61.0250 C   0  0  0  0  0  0  0  0  0  0  0  0
  131.9610  123.2810   61.1930 C   0  0  1  0  0  0  0  0  0  0  0  0
  132.8570  122.2440   60.4450 C   0  0  0  0  0  0  0  0  0  0  0  0
  133.5633  125.0386   63.6238 H   0  0  0  0  0  0  0  0  0  0  0  0
  134.5479  125.4045   62.1667 H   0  0  0  0  0  0  0  0  0  0  0  0
  132.7838  125.7428   62.1667 H   0  0  0  0  0  0  0  0  0  0  0  0
  133.4276  123.1975   64.1223 H   0  0  0  0  0  0  0  0  0  0  0  0
  132.9240  121.7956   63.1185 H   0  0  0  0  0  0  0  0  0  0  0  0
  134.6388  122.3303   63.1185 H   0  0  0  0  0  0  0  0  0  0  0  0
  135.0839  123.0206   60.6026 H   0  0  0  0  0  0  0  0  0  0  0  0
  134.3246  125.3824   59.9968 H   0  0  0  0  0  0  0  0  0  0  0  0
  134.6370  124.2010   58.7055 H   0  0  0  0  0  0  0  0  0  0  0  0
  132.7294  123.7545   58.3917 H   0  0  0  0  0  0  0  0  0  0  0  0
  129.9584  125.7957   56.2951 H   0  0  0  0  0  0  0  0  0  0  0  0
  127.8832  127.0429   57.1031 H   0  0  0  0  0  0  0  0  0  0  0  0
  128.6290  126.8618   58.7651 H   0  0  0  0  0  0  0  0  0  0  0  0
  130.3675  127.9647   56.6045 H   0  0  0  0  0  0  0  0  0  0  0  0
  129.0197  129.0131   57.2395 H   0  0  0  0  0  0  0  0  0  0  0  0
  129.8838  128.9608   59.4548 H   0  0  0  0  0  0  0  0  0  0  0  0
  131.0350  127.6401   59.0648 H   0  0  0  0  0  0  0  0  0  0  0  0
  131.4417  131.1080   61.3142 H   0  0  0  0  0  0  0  0  0  0  0  0
  130.1960  132.1744   60.5810 H   0  0  0  0  0  0  0  0  0  0  0  0
  129.9660  130.3929   60.5810 H   0  0  0  0  0  0  0  0  0  0  0  0
  133.6549  131.5358   60.1344 H   0  0  0  0  0  0  0  0  0  0  0  0
  134.0261  130.6972   58.5899 H   0  0  0  0  0  0  0  0  0  0  0  0
  133.6464  132.4529   58.5899 H   0  0  0  0  0  0  0  0  0  0  0  0
  129.4863  130.6142   56.9231 H   0  0  0  0  0  0  0  0  0  0  0  0
  129.4762  132.0299   55.8175 H   0  0  0  0  0  0  0  0  0  0  0  0
  130.8728  130.9002   55.8175 H   0  0  0  0  0  0  0  0  0  0  0  0
  129.8365  133.0660   59.2925 H   0  0  0  0  0  0  0  0  0  0  0  0
  129.9114  134.1869   57.8908 H   0  0  0  0  0  0  0  0  0  0  0  0
  128.7391  132.8259   57.8908 H   0  0  0  0  0  0  0  0  0  0  0  0
  132.4743  133.6195   57.6228 H   0  0  0  0  0  0  0  0  0  0  0  0
  132.5191  132.4920   56.2251 H   0  0  0  0  0  0  0  0  0  0  0  0
  131.3758  133.8775   56.2251 H   0  0  0  0  0  0  0  0  0  0  0  0
  131.0844  125.5290   62.1057 H   0  0  0  0  0  0  0  0  0  0  0  0
  131.6805  126.5606   60.7614 H   0  0  0  0  0  0  0  0  0  0  0  0
  129.9811  125.9787   60.7614 H   0  0  0  0  0  0  0  0  0  0  0  0
  131.0161  123.0351   61.6997 H   0  0  0  0  0  0  0  0  0  0  0  0
  132.9941  121.2853   60.9667 H   0  0  0  0  0  0  0  0  0  0  0  0
  132.5917  121.8311   59.4606 H   0  0  0  0  0  0  0  0  0  0  0  0
  1  2  1  0
  2  3  1  0
  2  4  1  0
  4  5  1  0
  5  6  1  0
  6  7  1  0
  7  8  1  0
  8  9  1  0
  9 10  1  0
  9 11  1  0
 11 12  1  0
 12 13  1  0
 13 14  1  0
 14 15  1  0
 15 16  1  0
 15 17  1  0
 15 18  1  0
 18 19  1  0
 18 20  1  0
 18 21  1  0
  8 22  1  0
 22 23  1  0
 23 24  1  1
 23 25  1  0
 25 26  1  0
 25  2  1  0
 26  4  1  0
 23  6  1  0
  1 27  1  0
  1 28  1  0
  1 29  1  0
  3 30  1  0
  3 31  1  0
  3 32  1  0
  4 33  1  1
  5 34  1  0
  5 35  1  0
  6 36  1  6
  9 37  1  6
 11 38  1  0
 11 39  1  0
 12 40  1  0
 12 41  1  0
 13 42  1  0
 13 43  1  0
 16 44  1  0
 16 45  1  0
 16 46  1  0
 17 47  1  0
 17 48  1  0
 17 49  1  0
 19 50  1  0
 19 51  1  0
 19 52  1  0
 20 53  1  0
 20 54  1  0
 20 55  1  0
 21 56  1  0
 21 57  1  0
 21 58  1  0
 24 59  1  0
 24 60  1  0
 24 61  1  0
 25 62  1  1
 26 63  1  0
 26 64  1  0
M  END
>  <Binding energies>  (1) 
[-6.18]

>  <Ligand effiencies>  (1) 
[-0.23769230769230767]

>  <Interactions>  (1) 
["V-A:ILE:369:CG2:3237, V-A:ASP:366:CA:3210, V-A:PRO:540:CG:4886, V-A:GLY:454:CA:4049, V-A:ILE:369:CB:3236, V-A:ILE:538:CB:4862, V-B:TYR:539:CE2:9848, H-A:TYR:531:OH:4795, V-A:ASP:366:CG:3213, V-A:ILE:538:CG2:4863, V-A:LEU:363:CB:3187, V-A:LEU:363:CD1:3189, V-B:TYR:539:CZ:9849, H-B:TYR:539:OH:9850, V-A:TYR:539:CA:4869, V-A:ILE:369:CD1:3239, V-B:TYR:539:CD2:9846, V-A:MET:535:CE:4835, V-A:TYR:539:C:4867, V-A:ASP:366:CB:3212, V-A:LEU:475:CD2:4259, V-A:ARG:545:CZ:4926, V-A:PRO:540:N:4884, V-A:PRO:540:CB:4885, V-A:PRO:540:CA:4883, V-A:LEU:363:CA:3185, V-A:PRO:540:CD:4887, V-B:TYR:539:CE1:9847"]

$$$$
ZINC1565531821
     RDKit          3D

 53 57  0  0  0  0  0  0  0  0999 V2000
  130.7990  129.5390   59.7910 C   0  0  0  0  0  0  0  0  0  0  0  0
  129.8830  128.9600   60.8610 C   0  0  0  0  0  0  0  0  0  0  0  0
  128.6150  129.5260   61.0920 C   0  0  0  0  0  0  0  0  0  0  0  0
  128.0520  130.8790   60.1720 Cl  0  0  0  0  0  0  0  0  0  0  0  0
  127.7790  129.0020   62.0830 C   0  0  0  0  0  0  0  0  0  0  0  0
  128.1880  127.9080   62.8480 C   0  0  0  0  0  0  0  0  0  0  0  0
  129.4380  127.3330   62.6160 C   0  0  0  0  0  0  0  0  0  0  0  0
  130.2680  127.8640   61.6450 C   0  0  0  0  0  0  0  0  0  0  0  0
  131.4650  127.1630   61.6470 N   0  0  0  0  0  0  0  0  0  0  0  0
  131.5080  126.1870   62.5720 C   0  0  0  0  0  0  0  0  0  0  0  0
  132.4700  125.4600   62.8210 O   0  0  0  0  0  0  0  0  0  0  0  0
  130.1020  126.1390   63.2460 C   0  0  1  0  0  0  0  0  0  0  0  0
  130.2800  126.2200   64.6960 N   0  0  0  0  0  0  0  0  0  0  0  0
  130.3960  124.8580   65.2020 C   0  0  1  0  0  0  0  0  0  0  0  0
  130.1700  124.6960   66.7190 C   0  0  0  0  0  0  0  0  0  0  0  0
  130.2460  126.0290   67.5010 C   0  0  0  0  0  0  0  0  0  0  0  0
  128.8990  126.7530   67.6540 C   0  0  0  0  0  0  0  0  0  0  0  0
  128.3730  127.2760   66.5430 N   0  0  0  0  0  0  0  0  0  0  0  0
  128.3320  126.8450   68.7410 O   0  0  0  0  0  0  0  0  0  0  0  0
  129.4430  124.0290   64.3230 C   0  0  2  0  0  0  0  0  0  0  0  0
  129.9610  122.6560   63.9210 C   0  0  0  0  0  0  0  0  0  0  0  0
  130.1850  121.7390   64.7130 O   0  0  0  0  0  0  0  0  0  0  0  0
  130.0830  122.6320   62.5660 N   0  0  0  0  0  0  0  0  0  0  0  0
  130.5390  121.5090   61.8590 C   0  0  0  0  0  0  0  0  0  0  0  0
  131.6670  121.6110   61.0380 C   0  0  0  0  0  0  0  0  0  0  0  0
  132.1160  120.4960   60.3300 C   0  0  0  0  0  0  0  0  0  0  0  0
  131.4430  119.2780   60.4400 C   0  0  0  0  0  0  0  0  0  0  0  0
  131.8880  118.2040   59.7470 F   0  0  0  0  0  0  0  0  0  0  0  0
  130.3150  119.1730   61.2620 C   0  0  0  0  0  0  0  0  0  0  0  0
  129.4710  117.6730   61.4070 Cl  0  0  0  0  0  0  0  0  0  0  0  0
  129.8640  120.2880   61.9710 C   0  0  0  0  0  0  0  0  0  0  0  0
  129.7400  123.7960   61.9550 C   0  0  0  0  0  0  0  0  0  0  0  0
  129.7230  124.0380   60.7460 O   0  0  0  0  0  0  0  0  0  0  0  0
  129.3200  124.7910   63.0380 C   0  0  2  0  0  0  0  0  0  0  0  0
  131.6355  130.0677   60.2713 H   0  0  0  0  0  0  0  0  0  0  0  0
  131.1915  128.7245   59.1644 H   0  0  0  0  0  0  0  0  0  0  0  0
  130.2317  130.2429   59.1644 H   0  0  0  0  0  0  0  0  0  0  0  0
  126.7925  129.4548   62.2610 H   0  0  0  0  0  0  0  0  0  0  0  0
  127.5286  127.5017   63.6291 H   0  0  0  0  0  0  0  0  0  0  0  0
  132.2500  127.3970   61.0590 H   0  0  0  0  0  0  0  0  0  0  0  0
  131.0770  126.7850   64.9510 H   0  0  0  0  0  0  0  0  0  0  0  0
  131.4335  124.5013   65.1219 H   0  0  0  0  0  0  0  0  0  0  0  0
  129.1745  124.2558   66.8775 H   0  0  0  0  0  0  0  0  0  0  0  0
  130.9767  124.0519   67.0990 H   0  0  0  0  0  0  0  0  0  0  0  0
  130.6383  125.8162   68.5064 H   0  0  0  0  0  0  0  0  0  0  0  0
  130.8975  126.6976   66.9191 H   0  0  0  0  0  0  0  0  0  0  0  0
  128.8540  127.1930   65.6600 H   0  0  0  0  0  0  0  0  0  0  0  0
  127.4900  127.7610   66.5850 H   0  0  0  0  0  0  0  0  0  0  0  0
  128.5200  123.8769   64.9017 H   0  0  0  0  0  0  0  0  0  0  0  0
  132.1995  122.5696   60.9508 H   0  0  0  0  0  0  0  0  0  0  0  0
  133.0024  120.5768   59.6836 H   0  0  0  0  0  0  0  0  0  0  0  0
  128.9780  120.2069   62.6178 H   0  0  0  0  0  0  0  0  0  0  0  0
  128.3295  125.1407   62.7116 H   0  0  0  0  0  0  0  0  0  0  0  0
  1  2  1  0
  2  3  2  0
  3  4  1  0
  3  5  1  0
  5  6  2  0
  6  7  1  0
  7  8  2  0
  8  9  1  0
  9 10  1  0
 10 11  2  0
 10 12  1  0
 12 13  1  1
 13 14  1  0
 14 15  1  0
 15 16  1  0
 16 17  1  0
 17 18  1  0
 17 19  2  0
 14 20  1  0
 20 21  1  0
 21 22  2  0
 21 23  1  0
 23 24  1  0
 24 25  2  0
 25 26  1  0
 26 27  2  0
 27 28  1  0
 27 29  1  0
 29 30  1  0
 29 31  2  0
 23 32  1  0
 32 33  2  0
 32 34  1  0
  8  2  1  0
 34 12  1  0
 12  7  1  0
 34 20  1  0
 31 24  1  0
  1 35  1  0
  1 36  1  0
  1 37  1  0
  5 38  1  0
  6 39  1  0
  9 40  1  0
 13 41  1  0
 14 42  1  1
 15 43  1  0
 15 44  1  0
 16 45  1  0
 16 46  1  0
 18 47  1  0
 18 48  1  0
 20 49  1  1
 25 50  1  0
 26 51  1  0
 31 52  1  0
 34 53  1  6
M  END
>  <Binding energies>  (1) 
[-7.53]

>  <Ligand effiencies>  (1) 
[-0.19815789473684212]

>  <Interactions>  (1) 
["H-A:GLU:543:OE2:4910, V-B:GLU:543:CB:9878, V-B:ALA:541:CB:9864, V-B:TYR:539:CE2:9848, V-A:TYR:484:CE2:4346, V-B:GLU:543:CG:9879, V-B:TYR:539:C:9839, V-A:ASP:366:CG:3213, V-B:TYR:539:CB:9843, V-A:HIS:383:CE1:3393, V-A:TYR:484:CZ:4347, V-A:GLU:543:CD:4908, V-A:HIS:456:CE1:4070, V-A:PRO:482:CB:4326, V-B:TYR:539:CD2:9846, V-A:SER:385:CB:3409, V-B:GLU:543:CD:9880, V-A:LEU:475:CD2:4259, H-A:ARG:545:NH2:4928, H-A:GLU:543:OE1:4909, H-A:ASP:366:OD1:3214, V-A:HIS:383:CD2:3392, H-B:GLU:543:OE2:9882, V-A:PRO:482:CG:4327, H-A:ASP:366:OD2:3215, V-A:HIS:383:NE2:3394, H-A:TYR:484:OH:4348"]

$$$$
ZINC1565536843
     RDKit          3D

 80 84  0  0  0  0  0  0  0  0999 V2000
  130.7440  124.9500   64.3810 C   0  0  0  0  0  0  0  0  0  0  0  0
  130.7720  124.5520   62.8780 C   0  0  1  0  0  0  0  0  0  0  0  0
  131.9120  125.3270   62.1360 C   0  0  0  0  0  0  0  0  0  0  0  0
  133.3390  124.9470   62.5920 C   0  0  0  0  0  0  0  0  0  0  0  0
  133.5770  123.4320   62.5530 C   0  0  0  0  0  0  0  0  0  0  0  0
  134.7050  122.9530   62.4610 O   0  0  0  0  0  0  0  0  0  0  0  0
  132.4020  122.5820   62.6960 C   0  0  0  0  0  0  0  0  0  0  0  0
  131.1340  123.0390   62.8190 C   0  0  0  0  0  0  0  0  0  0  0  0
  129.9370  122.0930   62.8490 C   0  0  0  0  0  0  0  0  0  0  0  0
  129.1180  122.2980   61.5510 C   0  0  0  0  0  0  0  0  0  0  0  0
  129.0750  123.7720   61.0540 C   0  0  2  0  0  0  0  0  0  0  0  0
  129.3430  124.7730   62.2200 C   0  0  2  0  0  0  0  0  0  0  0  0
  128.8850  126.2280   61.8690 C   0  0  1  0  0  0  0  0  0  0  0  0
  129.4700  127.2740   62.6170 O   0  0  0  0  0  0  0  0  0  0  0  0
  128.9010  126.5400   60.3570 C   0  0  0  0  0  0  0  0  0  0  0  0
  127.9980  125.5850   59.5040 C   0  0  2  0  0  0  0  0  0  0  0  0
  126.5670  126.2120   59.5000 C   0  0  0  0  0  0  0  0  0  0  0  0
  127.8890  124.1400   60.1160 C   0  0  1  0  0  0  0  0  0  0  0  0
  127.7050  123.1740   58.9160 C   0  0  0  0  0  0  0  0  0  0  0  0
  127.7720  124.0220   57.6410 C   0  0  0  0  0  0  0  0  0  0  0  0
  128.5440  125.2950   58.0530 C   0  0  2  0  0  0  0  0  0  0  0  0
  129.9390  125.0160   58.0070 O   0  0  0  0  0  0  0  0  0  0  0  0
  128.3190  126.4730   57.0550 C   0  0  0  0  0  0  0  0  0  0  0  0
  127.2280  126.6470   56.5070 O   0  0  0  0  0  0  0  0  0  0  0  0
  129.4890  127.4490   56.7870 C   0  0  0  0  0  0  0  0  0  0  0  0
  129.0880  128.8240   56.8100 O   0  0  0  0  0  0  0  0  0  0  0  0
  127.9650  129.2340   57.4530 C   0  0  0  0  0  0  0  0  0  0  0  0
  127.5580  128.8030   58.5350 O   0  0  0  0  0  0  0  0  0  0  0  0
  127.2280  130.3310   56.6750 C   0  0  0  0  0  0  0  0  0  0  0  0
  127.3850  131.7510   57.2700 C   0  0  0  0  0  0  0  0  0  0  0  0
  128.8440  132.1680   57.4940 C   0  0  0  0  0  0  0  0  0  0  0  0
  129.2430  133.2720   57.1220 O   0  0  0  0  0  0  0  0  0  0  0  0
  129.6260  131.2720   58.1230 N   0  0  0  0  0  0  0  0  0  0  0  0
  131.0290  131.4770   58.4830 C   0  0  0  0  0  0  0  0  0  0  0  0
  131.2720  131.6370   59.9790 C   0  0  0  0  0  0  0  0  0  0  0  0
  130.2000  131.8690   60.8490 C   0  0  0  0  0  0  0  0  0  0  0  0
  130.4590  131.9840   62.2170 C   0  0  0  0  0  0  0  0  0  0  0  0
  131.7050  131.8700   62.7430 N   0  0  0  0  0  0  0  0  0  0  0  0
  132.7330  131.6320   61.8890 C   0  0  0  0  0  0  0  0  0  0  0  0
  132.5600  131.5030   60.5100 C   0  0  0  0  0  0  0  0  0  0  0  0
  130.8077  124.0439   65.0015 H   0  0  0  0  0  0  0  0  0  0  0  0
  131.5982  125.6068   64.6024 H   0  0  0  0  0  0  0  0  0  0  0  0
  129.8063  125.4808   64.6024 H   0  0  0  0  0  0  0  0  0  0  0  0
  131.8269  125.1177   61.0594 H   0  0  0  0  0  0  0  0  0  0  0  0
  131.7773  126.3921   62.3758 H   0  0  0  0  0  0  0  0  0  0  0  0
  134.0654  125.4367   61.9268 H   0  0  0  0  0  0  0  0  0  0  0  0
  133.4603  125.2807   63.6331 H   0  0  0  0  0  0  0  0  0  0  0  0
  132.5564  121.4929   62.7046 H   0  0  0  0  0  0  0  0  0  0  0  0
  130.2878  121.0520   62.9062 H   0  0  0  0  0  0  0  0  0  0  0  0
  129.3105  122.3046   63.7280 H   0  0  0  0  0  0  0  0  0  0  0  0
  129.5649  121.6791   60.7590 H   0  0  0  0  0  0  0  0  0  0  0  0
  128.0815  122.0100   61.7807 H   0  0  0  0  0  0  0  0  0  0  0  0
  129.9198  123.8757   60.3572 H   0  0  0  0  0  0  0  0  0  0  0  0
  128.6807  124.5466   63.0686 H   0  0  0  0  0  0  0  0  0  0  0  0
  127.8359  126.2091   62.1991 H   0  0  0  0  0  0  0  0  0  0  0  0
  130.4250  127.1830   62.5720 H   0  0  0  0  0  0  0  0  0  0  0  0
  128.5482  127.5718   60.2122 H   0  0  0  0  0  0  0  0  0  0  0  0
  129.9353  126.3959   60.0114 H   0  0  0  0  0  0  0  0  0  0  0  0
  126.2287  126.3602   60.5361 H   0  0  0  0  0  0  0  0  0  0  0  0
  126.5928  127.1813   58.9805 H   0  0  0  0  0  0  0  0  0  0  0  0
  125.8719  125.5360   58.9805 H   0  0  0  0  0  0  0  0  0  0  0  0
  127.0258  124.0679   60.7939 H   0  0  0  0  0  0  0  0  0  0  0  0
  128.5070  122.4212   58.9111 H   0  0  0  0  0  0  0  0  0  0  0  0
  126.7436  122.6439   58.9838 H   0  0  0  0  0  0  0  0  0  0  0  0
  128.3086  123.4839   56.8457 H   0  0  0  0  0  0  0  0  0  0  0  0
  126.7727  124.2532   57.2434 H   0  0  0  0  0  0  0  0  0  0  0  0
  130.1520  124.6830   57.1330 H   0  0  0  0  0  0  0  0  0  0  0  0
  130.2575  127.2951   57.5588 H   0  0  0  0  0  0  0  0  0  0  0  0
  129.8713  127.2348   55.7780 H   0  0  0  0  0  0  0  0  0  0  0  0
  127.6171  130.3439   55.6462 H   0  0  0  0  0  0  0  0  0  0  0  0
  126.1568  130.0860   56.7248 H   0  0  0  0  0  0  0  0  0  0  0  0
  126.9204  132.4702   56.5794 H   0  0  0  0  0  0  0  0  0  0  0  0
  126.8983  131.7418   58.2564 H   0  0  0  0  0  0  0  0  0  0  0  0
  129.2140  130.3980   58.4160 H   0  0  0  0  0  0  0  0  0  0  0  0
  131.6061  130.6095   58.1304 H   0  0  0  0  0  0  0  0  0  0  0  0
  131.3432  132.4185   58.0088 H   0  0  0  0  0  0  0  0  0  0  0  0
  129.1739  131.9590   60.4630 H   0  0  0  0  0  0  0  0  0  0  0  0
  129.6163  132.1753   62.8976 H   0  0  0  0  0  0  0  0  0  0  0  0
  133.7479  131.5365   62.3023 H   0  0  0  0  0  0  0  0  0  0  0  0
  133.4190  131.3000   59.8535 H   0  0  0  0  0  0  0  0  0  0  0  0
  2  1  1  1
  2  3  1  0
  3  4  1  0
  4  5  1  0
  5  6  2  0
  5  7  1  0
  7  8  2  0
  8  9  1  0
  9 10  1  0
 10 11  1  0
 11 12  1  0
 12 13  1  0
 13 14  1  0
 13 15  1  0
 15 16  1  0
 16 17  1  6
 16 18  1  0
 18 19  1  0
 19 20  1  0
 20 21  1  0
 21 22  1  1
 21 23  1  0
 23 24  2  0
 23 25  1  0
 25 26  1  0
 26 27  1  0
 27 28  2  0
 27 29  1  0
 29 30  1  0
 30 31  1  0
 31 32  2  0
 31 33  1  0
 33 34  1  0
 34 35  1  0
 35 36  2  0
 36 37  1  0
 37 38  2  0
 38 39  1  0
 39 40  2  0
  8  2  1  0
 18 11  1  0
 40 35  1  0
 12  2  1  0
 21 16  1  0
  1 41  1  0
  1 42  1  0
  1 43  1  0
  3 44  1  0
  3 45  1  0
  4 46  1  0
  4 47  1  0
  7 48  1  0
  9 49  1  0
  9 50  1  0
 10 51  1  0
 10 52  1  0
 11 53  1  6
 12 54  1  1
 13 55  1  1
 14 56  1  0
 15 57  1  0
 15 58  1  0
 17 59  1  0
 17 60  1  0
 17 61  1  0
 18 62  1  1
 19 63  1  0
 19 64  1  0
 20 65  1  0
 20 66  1  0
 22 67  1  0
 25 68  1  0
 25 69  1  0
 29 70  1  0
 29 71  1  0
 30 72  1  0
 30 73  1  0
 33 74  1  0
 34 75  1  0
 34 76  1  0
 36 77  1  0
 37 78  1  0
 39 79  1  0
 40 80  1  0
M  END
>  <Binding energies>  (1) 
[-8.21]

>  <Ligand effiencies>  (1) 
[-0.19093023255813957]

>  <Interactions>  (1) 
["V-B:PRO:540:CA:9855, V-A:GLY:454:CA:4049, H-A:GLU:543:OE2:4910, H-A:ALA:541:N:4891, V-B:ALA:541:CB:9864, H-A:TYR:531:OH:4795, V-B:TYR:539:CE2:9848, V-A:ASN:362:CB:3176, V-A:TYR:539:CD1:4873, V-B:TYR:539:CZ:9849, V-A:TYR:539:CZ:4877, H-B:TYR:539:OH:9850, H-A:GLY:454:N:4050, V-B:PRO:540:N:9856, V-A:MET:535:CE:4835, H-B:TYR:531:OH:9767, V-A:LEU:475:CD2:4259, V-A:ARG:545:CZ:4926, H-A:GLU:543:OE1:4909, H-A:TYR:539:N:4870, V-A:PRO:540:CB:4885, V-A:PRO:540:CA:4883, V-A:TYR:539:CE1:4875"]

$$$$
ZINC156675514
     RDKit          3D

 30 30  0  0  0  0  0  0  0  0999 V2000
  129.9710  118.6650   61.6420 C   0  0  0  0  0  0  0  0  0  0  0  0
  130.3050  120.0810   61.1620 C   0  0  0  0  0  0  0  0  0  0  0  0
  132.0510  120.3280   60.7350 S   0  0  0  0  0  0  0  0  0  0  0  0
  132.3450  121.9380   61.5160 C   0  0  0  0  0  0  0  0  0  0  0  0
  133.8310  122.2490   61.7690 C   0  0  0  0  0  0  0  0  0  0  0  0
  134.3390  123.5400   61.0880 C   0  0  1  0  0  0  0  0  0  0  0  0
  133.5800  123.8450   59.7790 C   0  0  0  0  0  0  0  0  0  0  0  0
  134.2630  124.6670   62.0120 N   0  0  0  0  0  0  0  0  0  0  0  0
  133.3190  124.9070   62.9810 C   0  0  0  0  0  0  0  0  0  0  0  0
  133.5970  125.0900   64.2420 N   0  0  0  0  0  0  0  0  0  0  0  0
  132.4780  125.3060   64.9050 C   0  0  0  0  0  0  0  0  0  0  0  0
  132.5390  125.5200   66.2490 N   0  0  0  0  0  0  0  0  0  0  0  0
  131.3020  125.3210   64.3120 N   0  0  0  0  0  0  0  0  0  0  0  0
  131.6190  125.0210   62.6550 S   0  0  0  0  0  0  0  0  0  0  0  0
  129.9657  118.6424   62.7418 H   0  0  0  0  0  0  0  0  0  0  0  0
  128.9796  118.3742   61.2644 H   0  0  0  0  0  0  0  0  0  0  0  0
  130.7279  117.9618   61.2644 H   0  0  0  0  0  0  0  0  0  0  0  0
  129.6979  120.2952   60.2701 H   0  0  0  0  0  0  0  0  0  0  0  0
  130.0851  120.7592   61.9997 H   0  0  0  0  0  0  0  0  0  0  0  0
  131.9345  122.7204   60.8607 H   0  0  0  0  0  0  0  0  0  0  0  0
  131.8539  121.9089   62.4999 H   0  0  0  0  0  0  0  0  0  0  0  0
  133.9812  122.3506   62.8540 H   0  0  0  0  0  0  0  0  0  0  0  0
  134.4040  121.4178   61.3322 H   0  0  0  0  0  0  0  0  0  0  0  0
  135.3923  123.3776   60.8155 H   0  0  0  0  0  0  0  0  0  0  0  0
  132.5836  124.2454   60.0176 H   0  0  0  0  0  0  0  0  0  0  0  0
  134.1426  124.5869   59.1933 H   0  0  0  0  0  0  0  0  0  0  0  0
  133.4728  122.9201   59.1933 H   0  0  0  0  0  0  0  0  0  0  0  0
  135.0870  125.2480   61.9740 H   0  0  0  0  0  0  0  0  0  0  0  0
  132.3350  126.4250   66.6470 H   0  0  0  0  0  0  0  0  0  0  0  0
  132.7920  124.7830   66.8910 H   0  0  0  0  0  0  0  0  0  0  0  0
  1  2  1  0
  2  3  1  0
  3  4  1  0
  4  5  1  0
  5  6  1  0
  6  7  1  0
  6  8  1  0
  8  9  1  0
  9 10  2  0
 10 11  1  0
 11 12  1  0
 11 13  2  0
 13 14  1  0
 14  9  1  0
  1 15  1  0
  1 16  1  0
  1 17  1  0
  2 18  1  0
  2 19  1  0
  4 20  1  0
  4 21  1  0
  5 22  1  0
  5 23  1  0
  6 24  1  6
  7 25  1  0
  7 26  1  0
  7 27  1  0
  8 28  1  0
 12 29  1  0
 12 30  1  0
M  END
>  <Binding energies>  (1) 
[-4.48]

>  <Ligand effiencies>  (1) 
[-0.2635294117647059]

>  <Interactions>  (1) 
["V-A:ILE:369:CG2:3237, H-A:GLU:543:OE2:4910, V-A:ILE:369:CB:3236, V-B:ALA:541:CB:9864, H-A:ARG:545:NH1:4927, V-B:TYR:539:CE2:9848, V-A:LEU:475:CG:4257, V-A:ASP:366:CG:3213, V-A:LEU:475:CD1:4258, V-A:TYR:484:CZ:4347, V-A:ARG:545:CG:4922, H-A:GLY:454:N:4050, V-A:ILE:369:CD1:3239, V-A:HIS:456:CE1:4070, V-A:PRO:482:CB:4326, V-B:TYR:539:CD2:9846, H-A:SER:385:OG:3410, V-A:ARG:545:CD:4923, V-A:LEU:475:CD2:4259, H-A:ARG:545:NH2:4928, V-A:ARG:545:CZ:4926, H-A:ASP:366:OD1:3214, H-A:ARG:545:NE:4924, H-A:TYR:484:OH:4348"]

$$$$
ZINC156750686
     RDKit          3D

 43 44  0  0  0  0  0  0  0  0999 V2000
  132.3420  120.8030   60.4900 C   0  0  0  0  0  0  0  0  0  0  0  0
  132.0310  121.9460   61.1330 C   0  0  0  0  0  0  0  0  0  0  0  0
  130.8170  122.8090   60.8240 C   0  0  1  0  0  0  0  0  0  0  0  0
  131.2090  123.8800   59.7860 C   0  0  0  0  0  0  0  0  0  0  0  0
  132.6500  124.4330   60.1380 C   0  0  0  0  0  0  0  0  0  0  0  0
  133.2550  124.0560   61.5710 C   0  0  2  0  0  0  0  0  0  0  0  0
  134.7690  124.3600   61.5970 C   0  0  0  0  0  0  0  0  0  0  0  0
  132.7910  122.6580   62.2490 C   0  0  2  0  0  0  0  0  0  0  0  0
  133.9810  121.7930   62.7530 C   0  0  0  0  0  0  0  0  0  0  0  0
  131.7260  122.8050   63.4430 C   0  0  0  0  0  0  0  0  0  0  0  0
  130.2560  122.2430   63.2040 C   0  0  0  0  0  0  0  0  0  0  0  0
  129.6020  122.4530   61.7480 C   0  0  2  0  0  0  0  0  0  0  0  0
  128.9890  121.1050   61.2760 C   0  0  0  0  0  0  0  0  0  0  0  0
  128.5160  123.6010   61.7890 C   0  0  2  0  0  0  0  0  0  0  0  0
  128.2040  123.9490   63.1290 O   0  0  0  0  0  0  0  0  0  0  0  0
  127.1790  123.2460   61.0850 C   0  0  0  0  0  0  0  0  0  0  0  0
  126.1400  123.0460   62.0240 O   0  0  0  0  0  0  0  0  0  0  0  0
  133.2411  120.2378   60.7767 H   0  0  0  0  0  0  0  0  0  0  0  0
  131.6968  120.4354   59.6785 H   0  0  0  0  0  0  0  0  0  0  0  0
  131.0974  123.4946   61.6373 H   0  0  0  0  0  0  0  0  0  0  0  0
  131.2204  123.4332   58.7809 H   0  0  0  0  0  0  0  0  0  0  0  0
  130.4792  124.7028   59.8060 H   0  0  0  0  0  0  0  0  0  0  0  0
  133.3450  124.0510   59.3758 H   0  0  0  0  0  0  0  0  0  0  0  0
  132.5331  125.5265   60.1614 H   0  0  0  0  0  0  0  0  0  0  0  0
  132.7615  124.7268   62.2896 H   0  0  0  0  0  0  0  0  0  0  0  0
  135.1113  124.4287   62.6401 H   0  0  0  0  0  0  0  0  0  0  0  0
  135.3138  123.5533   61.0847 H   0  0  0  0  0  0  0  0  0  0  0  0
  134.9602  125.3145   61.0847 H   0  0  0  0  0  0  0  0  0  0  0  0
  133.9897  121.7867   63.8529 H   0  0  0  0  0  0  0  0  0  0  0  0
  133.8694  120.7637   62.3813 H   0  0  0  0  0  0  0  0  0  0  0  0
  134.9256  122.2167   62.3813 H   0  0  0  0  0  0  0  0  0  0  0  0
  132.1392  122.2800   64.3169 H   0  0  0  0  0  0  0  0  0  0  0  0
  131.5905  123.8904   63.5594 H   0  0  0  0  0  0  0  0  0  0  0  0
  130.2823  121.1608   63.3993 H   0  0  0  0  0  0  0  0  0  0  0  0
  129.6199  122.8311   63.8819 H   0  0  0  0  0  0  0  0  0  0  0  0
  128.7140  120.5003   62.1528 H   0  0  0  0  0  0  0  0  0  0  0  0
  128.0920  121.3021   60.6706 H   0  0  0  0  0  0  0  0  0  0  0  0
  129.7272  120.5585   60.6706 H   0  0  0  0  0  0  0  0  0  0  0  0
  128.9796  124.4355   61.2425 H   0  0  0  0  0  0  0  0  0  0  0  0
  127.3260  124.3380   63.1450 H   0  0  0  0  0  0  0  0  0  0  0  0
  126.8993  124.0694   60.4113 H   0  0  0  0  0  0  0  0  0  0  0  0
  127.3212  122.3123   60.5210 H   0  0  0  0  0  0  0  0  0  0  0  0
  126.1110  123.8030   62.6140 H   0  0  0  0  0  0  0  0  0  0  0  0
  1  2  2  0
  2  3  1  0
  3  4  1  0
  4  5  1  0
  5  6  1  0
  6  7  1  0
  6  8  1  0
  8  9  1  1
  8 10  1  0
 10 11  1  0
 11 12  1  0
 12 13  1  6
 12 14  1  0
 14 15  1  0
 14 16  1  0
 16 17  1  0
  8  2  1  0
 12  3  1  0
  1 18  1  0
  1 19  1  0
  3 20  1  6
  4 21  1  0
  4 22  1  0
  5 23  1  0
  5 24  1  0
  6 25  1  1
  7 26  1  0
  7 27  1  0
  7 28  1  0
  9 29  1  0
  9 30  1  0
  9 31  1  0
 10 32  1  0
 10 33  1  0
 11 34  1  0
 11 35  1  0
 13 36  1  0
 13 37  1  0
 13 38  1  0
 14 39  1  6
 15 40  1  0
 16 41  1  0
 16 42  1  0
 17 43  1  0
M  END
>  <Binding energies>  (1) 
[-6.08]

>  <Ligand effiencies>  (1) 
[-0.32]

>  <Interactions>  (1) 
["V-A:ILE:369:CG2:3237, V-B:PRO:540:CA:9855, V-A:ILE:369:CD1:3239, H-B:GLU:543:OE2:9882, V-B:TYR:539:CZ:9849, H-B:GLU:543:OE1:9881, V-A:GLY:454:CA:4049, V-B:TYR:539:CD2:9846, H-B:ALA:541:N:9863, V-B:PRO:540:C:9853, V-B:ALA:541:CB:9864, V-B:TYR:539:CE2:9848, V-B:PRO:540:CB:9857, V-A:LEU:475:CD2:4259, H-B:ALA:541:O:9861, V-B:TYR:539:C:9839, V-A:ASP:366:CG:3213"]

$$$$
ZINC1569999045
     RDKit          3D

 59 63  0  0  0  0  0  0  0  0999 V2000
  125.6410  123.6050   56.7930 C   0  0  0  0  0  0  0  0  0  0  0  0
  127.0630  123.4780   57.3250 C   0  0  0  0  0  0  0  0  0  0  0  0
  127.9880  123.1150   56.5980 O   0  0  0  0  0  0  0  0  0  0  0  0
  127.2970  123.8460   58.7960 C   0  0  2  0  0  0  0  0  0  0  0  0
  127.2700  122.8130   59.7550 O   0  0  0  0  0  0  0  0  0  0  0  0
  126.2000  123.7260   59.7950 C   0  0  1  0  0  0  0  0  0  0  0  0
  126.4060  124.8000   60.8700 C   0  0  0  0  0  0  0  0  0  0  0  0
  127.8600  125.3110   60.7210 C   0  0  1  0  0  0  0  0  0  0  0  0
  128.8270  124.5820   61.7230 C   0  0  2  0  0  0  0  0  0  0  0  0
  128.7680  125.2710   63.1000 C   0  0  0  0  0  0  0  0  0  0  0  0
  129.5180  124.4540   64.1540 C   0  0  0  0  0  0  0  0  0  0  0  0
  130.9860  124.3480   63.7480 C   0  0  0  0  0  0  0  0  0  0  0  0
  131.9610  124.7190   64.6100 C   0  0  0  0  0  0  0  0  0  0  0  0
  133.3850  124.6250   64.3460 C   0  0  0  0  0  0  0  0  0  0  0  0
  134.2230  125.0920   65.1150 O   0  0  0  0  0  0  0  0  0  0  0  0
  133.7720  123.7890   63.1290 C   0  0  0  0  0  0  0  0  0  0  0  0
  132.7730  123.9940   61.9750 C   0  0  0  0  0  0  0  0  0  0  0  0
  131.2580  123.7700   62.3220 C   0  0  1  0  0  0  0  0  0  0  0  0
  130.9790  122.2440   62.3640 C   0  0  0  0  0  0  0  0  0  0  0  0
  130.3220  124.5140   61.2710 C   0  0  1  0  0  0  0  0  0  0  0  0
  130.3610  123.9510   59.8170 C   0  0  2  0  0  0  0  0  0  0  0  0
  131.6830  123.7560   59.3330 O   0  0  0  0  0  0  0  0  0  0  0  0
  132.6150  125.1010   58.9880 S   0  0  0  0  0  0  0  0  0  0  0  0
  134.3050  124.3270   59.2950 C   0  0  0  0  0  0  0  0  0  0  0  0
  132.4860  125.4140   57.5590 O   0  0  0  0  0  0  0  0  0  0  0  0
  132.3580  126.1200   60.0120 O   0  0  0  0  0  0  0  0  0  0  0  0
  129.6490  124.9440   58.8840 C   0  0  0  0  0  0  0  0  0  0  0  0
  128.1410  125.1020   59.1930 C   0  0  1  0  0  0  0  0  0  0  0  0
  127.6330  126.3530   58.4190 C   0  0  0  0  0  0  0  0  0  0  0  0
  124.9381  123.6678   57.6368 H   0  0  0  0  0  0  0  0  0  0  0  0
  125.5590  124.5140   56.1791 H   0  0  0  0  0  0  0  0  0  0  0  0
  125.3992  122.7249   56.1791 H   0  0  0  0  0  0  0  0  0  0  0  0
  125.1036  123.6372   59.7940 H   0  0  0  0  0  0  0  0  0  0  0  0
  125.6968  125.6272   60.7193 H   0  0  0  0  0  0  0  0  0  0  0  0
  126.2338  124.3891   61.8757 H   0  0  0  0  0  0  0  0  0  0  0  0
  128.0242  126.3637   60.9946 H   0  0  0  0  0  0  0  0  0  0  0  0
  128.4647  123.5441   61.7625 H   0  0  0  0  0  0  0  0  0  0  0  0
  129.2271  126.2677   63.0236 H   0  0  0  0  0  0  0  0  0  0  0  0
  127.7146  125.3546   63.4054 H   0  0  0  0  0  0  0  0  0  0  0  0
  129.4406  124.9529   65.1313 H   0  0  0  0  0  0  0  0  0  0  0  0
  129.0787  123.4481   64.2267 H   0  0  0  0  0  0  0  0  0  0  0  0
  131.6506  125.1226   65.5851 H   0  0  0  0  0  0  0  0  0  0  0  0
  134.7758  124.0876   62.7925 H   0  0  0  0  0  0  0  0  0  0  0  0
  133.7605  122.7273   63.4165 H   0  0  0  0  0  0  0  0  0  0  0  0
  132.8854  125.0267   61.6132 H   0  0  0  0  0  0  0  0  0  0  0  0
  133.0215  123.2238   61.2300 H   0  0  0  0  0  0  0  0  0  0  0  0
  130.9181  121.9111   63.4106 H   0  0  0  0  0  0  0  0  0  0  0  0
  130.0271  122.0312   61.8556 H   0  0  0  0  0  0  0  0  0  0  0  0
  131.7941  121.7081   61.8556 H   0  0  0  0  0  0  0  0  0  0  0  0
  130.7628  125.5216   61.2491 H   0  0  0  0  0  0  0  0  0  0  0  0
  129.8627  122.9705   59.8341 H   0  0  0  0  0  0  0  0  0  0  0  0
  134.4803  124.2467   60.3780 H   0  0  0  0  0  0  0  0  0  0  0  0
  134.3368  123.3246   58.8431 H   0  0  0  0  0  0  0  0  0  0  0  0
  135.0847  124.9578   58.8431 H   0  0  0  0  0  0  0  0  0  0  0  0
  130.1313  125.9272   58.9874 H   0  0  0  0  0  0  0  0  0  0  0  0
  129.7318  124.5466   57.8616 H   0  0  0  0  0  0  0  0  0  0  0  0
  127.3193  127.1256   59.1364 H   0  0  0  0  0  0  0  0  0  0  0  0
  128.4425  126.7467   57.7868 H   0  0  0  0  0  0  0  0  0  0  0  0
  126.7782  126.0709   57.7868 H   0  0  0  0  0  0  0  0  0  0  0  0
  1  2  1  0
  2  3  2  0
  4  2  1  6
  4  5  1  0
  5  6  1  0
  6  7  1  0
  7  8  1  0
  8  9  1  0
  9 10  1  0
 10 11  1  0
 11 12  1  0
 12 13  2  0
 13 14  1  0
 14 15  2  0
 14 16  1  0
 16 17  1  0
 17 18  1  0
 18 19  1  1
 18 20  1  0
 20 21  1  0
 21 22  1  0
 22 23  1  0
 23 24  1  0
 23 25  2  0
 23 26  2  0
 21 27  1  0
 27 28  1  0
 28 29  1  6
  6  4  1  0
 28  8  1  0
 28  4  1  0
 20  9  1  0
 18 12  1  0
  1 30  1  0
  1 31  1  0
  1 32  1  0
  6 33  1  6
  7 34  1  0
  7 35  1  0
  8 36  1  1
  9 37  1  1
 10 38  1  0
 10 39  1  0
 11 40  1  0
 11 41  1  0
 13 42  1  0
 16 43  1  0
 16 44  1  0
 17 45  1  0
 17 46  1  0
 19 47  1  0
 19 48  1  0
 19 49  1  0
 20 50  1  6
 21 51  1  1
 24 52  1  0
 24 53  1  0
 24 54  1  0
 27 55  1  0
 27 56  1  0
 29 57  1  0
 29 58  1  0
 29 59  1  0
M  END
>  <Binding energies>  (1) 
[-7.78]

>  <Ligand effiencies>  (1) 
[-0.26827586206896553]

>  <Interactions>  (1) 
["V-A:ILE:369:CG2:3237, V-A:ASP:366:CA:3210, V-B:PRO:540:CA:9855, V-A:GLY:454:CA:4049, V-A:ILE:369:CB:3236, H-A:ARG:545:NH1:4927, H-A:TYR:531:OH:4795, V-B:TYR:539:CE2:9848, V-B:GLU:543:CG:9879, V-A:ASP:366:CG:3213, H-B:TYR:539:OH:9850, V-B:PRO:540:CB:9857, H-A:GLY:454:N:4050, V-A:GLY:453:C:4042, V-A:ILE:369:CD1:3239, V-A:ASP:366:C:3208, V-B:GLU:543:CD:9880, V-A:ASP:366:CB:3212, V-A:LEU:475:CD2:4259, H-A:ARG:545:NH2:4928, V-A:ARG:545:CZ:4926, V-B:LEU:363:CD1:8160, H-A:ARG:545:NE:4924, V-B:MET:535:CE:9807, H-A:TYR:484:OH:4348"]

$$$$
ZINC15836411-again1
     RDKit          3D

 40 42  0  0  0  0  0  0  0  0999 V2000
  133.3540  126.5980   74.8310 C   0  0  0  0  0  0  0  0  0  0  0  0
  132.2310  126.6070   73.7900 C   0  0  0  0  0  0  0  0  0  0  0  0
  131.1350  127.3610   74.3010 O   0  0  0  0  0  0  0  0  0  0  0  0
  129.9420  127.4340   73.5890 C   0  0  0  0  0  0  0  0  0  0  0  0
  129.8900  127.2400   72.1970 C   0  0  0  0  0  0  0  0  0  0  0  0
  128.6910  127.3240   71.4850 C   0  0  0  0  0  0  0  0  0  0  0  0
  128.6150  127.0990   70.0220 C   0  0  0  0  0  0  0  0  0  0  0  0
  129.5810  127.0660   69.0490 C   0  0  0  0  0  0  0  0  0  0  0  0
  129.1730  126.5960   67.7130 C   0  0  0  0  0  0  0  0  0  0  0  0
  127.9980  126.6180   67.3250 O   0  0  0  0  0  0  0  0  0  0  0  0
  130.2190  126.1210   66.9380 N   0  0  0  0  0  0  0  0  0  0  0  0
  129.8730  125.4930   65.7140 C   0  0  0  0  0  0  0  0  0  0  0  0
  129.9020  124.0980   65.6070 C   0  0  0  0  0  0  0  0  0  0  0  0
  129.5630  123.4850   64.4020 C   0  0  0  0  0  0  0  0  0  0  0  0
  129.1960  124.2540   63.2970 C   0  0  0  0  0  0  0  0  0  0  0  0
  128.7830  123.4510   61.8210 Cl  0  0  0  0  0  0  0  0  0  0  0  0
  129.1680  125.6530   63.4000 C   0  0  0  0  0  0  0  0  0  0  0  0
  128.7180  126.6440   62.0560 Cl  0  0  0  0  0  0  0  0  0  0  0  0
  129.5060  126.2680   64.6060 C   0  0  0  0  0  0  0  0  0  0  0  0
  131.5690  126.2150   67.2690 C   0  0  0  0  0  0  0  0  0  0  0  0
  132.3990  125.6000   66.5920 O   0  0  0  0  0  0  0  0  0  0  0  0
  131.8990  127.0360   68.3620 N   0  0  0  0  0  0  0  0  0  0  0  0
  131.0050  127.4050   69.2020 C   0  0  0  0  0  0  0  0  0  0  0  0
  131.3890  128.2260   70.0510 O   0  0  0  0  0  0  0  0  0  0  0  0
  127.5130  127.5710   72.1870 C   0  0  0  0  0  0  0  0  0  0  0  0
  127.5210  127.7640   73.5680 C   0  0  0  0  0  0  0  0  0  0  0  0
  125.8340  128.1050   74.4090 Br  0  0  0  0  0  0  0  0  0  0  0  0
  128.7380  127.7010   74.2780 C   0  0  0  0  0  0  0  0  0  0  0  0
  128.7450  127.8800   75.5450 O   0  0  0  0  0  0  0  0  0  0  0  0
  132.9179  126.6015   75.8408 H   0  0  0  0  0  0  0  0  0  0  0  0
  133.9682  125.6949   74.7000 H   0  0  0  0  0  0  0  0  0  0  0  0
  133.9826  127.4911   74.7000 H   0  0  0  0  0  0  0  0  0  0  0  0
  132.5939  127.0672   72.8591 H   0  0  0  0  0  0  0  0  0  0  0  0
  131.9090  125.5764   73.5797 H   0  0  0  0  0  0  0  0  0  0  0  0
  130.8197  127.0158   71.6535 H   0  0  0  0  0  0  0  0  0  0  0  0
  127.5952  126.9266   69.6473 H   0  0  0  0  0  0  0  0  0  0  0  0
  130.1922  123.4856   66.4734 H   0  0  0  0  0  0  0  0  0  0  0  0
  129.5849  122.3882   64.3216 H   0  0  0  0  0  0  0  0  0  0  0  0
  129.4843  127.3648   64.6871 H   0  0  0  0  0  0  0  0  0  0  0  0
  126.5588  127.6146   71.6415 H   0  0  0  0  0  0  0  0  0  0  0  0
  1  2  1  0
  2  3  1  0
  3  4  1  0
  4  5  2  0
  5  6  1  0
  6  7  1  0
  7  8  2  0
  8  9  1  0
  9 10  2  0
  9 11  1  0
 11 12  1  0
 12 13  2  0
 13 14  1  0
 14 15  2  0
 15 16  1  0
 15 17  1  0
 17 18  1  0
 17 19  2  0
 11 20  1  0
 20 21  2  0
 20 22  1  0
 22 23  2  0
 23 24  1  0
  6 25  2  0
 25 26  1  0
 26 27  1  0
 26 28  2  0
 28 29  1  0
 28  4  1  0
 23  8  1  0
 19 12  1  0
  1 30  1  0
  1 31  1  0
  1 32  1  0
  2 33  1  0
  2 34  1  0
  5 35  1  0
  7 36  1  0
 13 37  1  0
 14 38  1  0
 19 39  1  0
 25 40  1  0
M  CHG  2  24  -1  29  -1
M  END
>  <Binding energies>  (1) 
[-7.43]

>  <Ligand effiencies>  (1) 
[-0.25620689655172413]

>  <Interactions>  (1) 
["V-B:HIS:456:CD2:9039, V-B:GLU:543:CB:9878, H-B:LYS:547:NZ:9923, V-B:HIS:456:CB:9036, V-A:TYR:484:CE2:4346, V-B:GLU:543:CG:9879, V-A:HIS:456:CD2:4068, H-A:ARG:545:N:4920, V-A:LYS:547:CG:4948, V-A:HIS:456:CB:4065, V-B:LYS:547:CE:9922, V-A:GLU:543:CD:4908, V-A:TYR:484:CZ:4347, V-B:HIS:456:CE1:9041, V-A:ARG:545:CG:4922, V-A:HIS:456:CE1:4070, V-B:GLY:544:C:9884, V-B:GLU:543:CD:9880, V-B:HIS:456:CG:9037, H-A:LYS:547:NZ:4951, V-A:HIS:456:CG:4066, V-A:GLU:543:CB:4906, H-A:ARG:545:NE:4924, H-A:HIS:456:ND1:4067, H-A:TYR:484:OH:4348"]

$$$$
ZINC15855846
     RDKit          3D

 52 54  0  0  0  0  0  0  0  0999 V2000
  129.4800  124.1670   69.3600 H   0  0  0  0  0  0  0  0  0  0  0  0
  129.6900  123.9760   68.3910 N   0  0  0  0  0  0  0  0  0  0  0  0
  129.5990  125.0130   67.6650 C   0  0  0  0  0  0  0  0  0  0  0  0
  129.8500  125.0700   66.2080 C   0  0  0  0  0  0  0  0  0  0  0  0
  130.5840  124.0770   65.6210 C   0  0  0  0  0  0  0  0  0  0  0  0
  131.0940  123.9360   64.2380 C   0  0  0  0  0  0  0  0  0  0  0  0
  132.4350  124.1650   63.9210 C   0  0  0  0  0  0  0  0  0  0  0  0
  132.8940  124.0060   62.6150 C   0  0  0  0  0  0  0  0  0  0  0  0
  134.5470  124.3700   62.2640 Cl  0  0  0  0  0  0  0  0  0  0  0  0
  132.0180  123.5800   61.6090 C   0  0  0  0  0  0  0  0  0  0  0  0
  132.4770  123.4160   60.3230 O   0  0  0  0  0  0  0  0  0  0  0  0
  132.1050  124.5680   59.1580 S   0  0  0  0  0  0  0  0  0  0  0  0
  132.1100  126.1240   60.2280 C   0  0  0  0  0  0  0  0  0  0  0  0
  133.2030  124.6560   58.1880 O   0  0  0  0  0  0  0  0  0  0  0  0
  130.7330  124.3160   58.7070 O   0  0  0  0  0  0  0  0  0  0  0  0
  130.6610  123.3740   61.9040 C   0  0  0  0  0  0  0  0  0  0  0  0
  129.8290  123.0290   60.8540 O   0  0  0  0  0  0  0  0  0  0  0  0
  128.9730  121.8980   60.9690 C   0  0  0  0  0  0  0  0  0  0  0  0
  129.8230  120.6810   61.3500 C   0  0  0  0  0  0  0  0  0  0  0  0
  130.2180  123.5380   63.2280 C   0  0  0  0  0  0  0  0  0  0  0  0
  129.3400  126.2250   65.4140 C   0  0  0  0  0  0  0  0  0  0  0  0
  129.0530  126.0550   64.2270 O   0  0  0  0  0  0  0  0  0  0  0  0
  129.1670  127.4330   66.1190 N   0  0  0  0  0  0  0  0  0  0  0  0
  129.0910  127.4270   67.3960 C   0  0  0  0  0  0  0  0  0  0  0  0
  128.8010  128.8340   68.4310 S   0  0  0  0  0  0  0  0  0  0  0  0
  128.9080  127.7360   69.8600 C   0  0  0  0  0  0  0  0  0  0  0  0
  128.7420  128.2500   71.2840 C   0  0  0  0  0  0  0  0  0  0  0  0
  128.3870  127.1330   72.2930 C   0  0  0  0  0  0  0  0  0  0  0  0
  129.6030  126.4280   72.9290 C   0  0  0  0  0  0  0  0  0  0  0  0
  130.8940  127.2480   72.8200 C   0  0  0  0  0  0  0  0  0  0  0  0
  129.1270  126.5090   69.6020 N   0  0  0  0  0  0  0  0  0  0  0  0
  129.2480  126.2930   68.2230 N   0  0  0  0  0  0  0  0  0  0  0  0
  130.8388  123.2413   66.2893 H   0  0  0  0  0  0  0  0  0  0  0  0
  133.1359  124.4740   64.7105 H   0  0  0  0  0  0  0  0  0  0  0  0
  132.1091  125.8385   61.2903 H   0  0  0  0  0  0  0  0  0  0  0  0
  133.0101  126.7171   60.0085 H   0  0  0  0  0  0  0  0  0  0  0  0
  131.2138  126.7228   60.0085 H   0  0  0  0  0  0  0  0  0  0  0  0
  128.2181  122.0817   61.7477 H   0  0  0  0  0  0  0  0  0  0  0  0
  128.4602  121.7150   60.0132 H   0  0  0  0  0  0  0  0  0  0  0  0
  129.8787  120.6012   62.4457 H   0  0  0  0  0  0  0  0  0  0  0  0
  129.3639  119.7699   60.9389 H   0  0  0  0  0  0  0  0  0  0  0  0
  130.8365  120.7984   60.9389 H   0  0  0  0  0  0  0  0  0  0  0  0
  129.1621  123.3492   63.4719 H   0  0  0  0  0  0  0  0  0  0  0  0
  129.6853  128.7199   71.5991 H   0  0  0  0  0  0  0  0  0  0  0  0
  127.9073  128.9664   71.2796 H   0  0  0  0  0  0  0  0  0  0  0  0
  127.7883  127.5788   73.1009 H   0  0  0  0  0  0  0  0  0  0  0  0
  127.8435  126.3632   71.7255 H   0  0  0  0  0  0  0  0  0  0  0  0
  129.3887  126.2510   73.9933 H   0  0  0  0  0  0  0  0  0  0  0  0
  129.7626  125.4877   72.3810 H   0  0  0  0  0  0  0  0  0  0  0  0
  131.2650  127.4836   73.8284 H   0  0  0  0  0  0  0  0  0  0  0  0
  131.6532  126.6662   72.2767 H   0  0  0  0  0  0  0  0  0  0  0  0
  130.6901  128.1825   72.2767 H   0  0  0  0  0  0  0  0  0  0  0  0
  1  2  1  0
  2  3  2  0
  3  4  1  0
  4  5  2  0
  5  6  1  0
  6  7  2  0
  7  8  1  0
  8  9  1  0
  8 10  2  0
 10 11  1  0
 11 12  1  0
 12 13  1  0
 12 14  2  0
 12 15  2  0
 10 16  1  0
 16 17  1  0
 17 18  1  0
 18 19  1  0
 16 20  2  0
  4 21  1  0
 21 22  2  0
 21 23  1  0
 23 24  2  0
 24 25  1  0
 25 26  1  0
 26 27  1  0
 27 28  1  0
 28 29  1  0
 29 30  1  0
 26 31  2  0
 31 32  1  0
 32  3  1  0
 20  6  1  0
 32 24  1  0
  5 33  1  0
  7 34  1  0
 13 35  1  0
 13 36  1  0
 13 37  1  0
 18 38  1  0
 18 39  1  0
 19 40  1  0
 19 41  1  0
 19 42  1  0
 20 43  1  0
 27 44  1  0
 27 45  1  0
 28 46  1  0
 28 47  1  0
 29 48  1  0
 29 49  1  0
 30 50  1  0
 30 51  1  0
 30 52  1  0
M  END
>  <Binding energies>  (1) 
[-7.14]

>  <Ligand effiencies>  (1) 
[-0.223125]

>  <Interactions>  (1) 
["V-B:PRO:540:CA:9855, V-B:GLU:543:C:9874, V-B:HIS:456:CD2:9039, H-B:GLU:543:O:9875, V-B:GLU:543:CB:9878, V-B:ALA:541:CB:9864, V-B:TYR:539:CE2:9848, V-A:TYR:484:CE2:4346, V-B:GLU:543:CG:9879, V-A:GLY:544:C:4912, V-A:HIS:456:CD2:4068, V-A:ASP:366:CG:3213, V-B:TYR:539:CZ:9849, H-B:TYR:539:OH:9850, V-A:TYR:484:CZ:4347, V-A:GLU:543:CD:4908, V-B:HIS:456:CE1:9041, V-B:GLU:543:CA:9876, V-A:GLY:453:C:4042, V-A:HIS:456:CE1:4070, V-A:ILE:369:CD1:3239, V-B:TYR:539:CD2:9846, V-B:GLU:543:CD:9880, V-A:ASP:366:CB:3212, V-A:LEU:475:CD2:4259, V-A:GLU:543:CB:4906, V-A:GLY:453:CA:4044, V-B:PRO:540:C:9853, H-A:HIS:456:NE2:4071, H-A:TYR:484:OH:4348"]

$$$$
ZINC15856770
     RDKit          3D

 31 33  0  0  0  0  0  0  0  0999 V2000
  129.7410  122.5760   64.0550 S   0  0  0  0  0  0  0  0  0  0  0  0
  128.9620  122.4840   62.5810 C   0  0  0  0  0  0  0  0  0  0  0  0
  127.6080  122.5880   62.3880 N   0  0  0  0  0  0  0  0  0  0  0  0
  127.2520  122.6000   61.1830 N   0  0  0  0  0  0  0  0  0  0  0  0
  128.3970  122.5080   60.3350 C   0  0  1  0  0  0  0  0  0  0  0  0
  128.5950  123.7330   59.4190 C   0  0  0  0  0  0  0  0  0  0  0  0
  129.3350  124.8480   59.8480 C   0  0  0  0  0  0  0  0  0  0  0  0
  129.5050  125.9560   59.0210 C   0  0  0  0  0  0  0  0  0  0  0  0
  128.9330  125.9710   57.7500 C   0  0  0  0  0  0  0  0  0  0  0  0
  129.1440  127.3420   56.7230 Cl  0  0  0  0  0  0  0  0  0  0  0  0
  128.1900  124.8770   57.3110 C   0  0  0  0  0  0  0  0  0  0  0  0
  128.0160  123.7630   58.1360 C   0  0  0  0  0  0  0  0  0  0  0  0
  127.0710  122.4440   57.5310 Cl  0  0  0  0  0  0  0  0  0  0  0  0
  129.4530  122.3140   61.3100 N   0  0  0  0  0  0  0  0  0  0  0  0
  130.7760  122.2110   60.9530 N   0  0  0  0  0  0  0  0  0  0  0  0
  131.3420  121.0620   60.8430 C   0  0  0  0  0  0  0  0  0  0  0  0
  130.7580  119.7080   60.9050 C   0  0  0  0  0  0  0  0  0  0  0  0
  131.2040  118.7350   59.9980 C   0  0  0  0  0  0  0  0  0  0  0  0
  130.6550  117.4530   60.0440 C   0  0  0  0  0  0  0  0  0  0  0  0
  129.6900  117.0950   60.9260 N   0  0  0  0  0  0  0  0  0  0  0  0
  129.2480  118.0410   61.7910 C   0  0  0  0  0  0  0  0  0  0  0  0
  129.7460  119.3450   61.8090 C   0  0  0  0  0  0  0  0  0  0  0  0
  128.3364  121.7027   59.5881 H   0  0  0  0  0  0  0  0  0  0  0  0
  129.7864  124.8458   60.8511 H   0  0  0  0  0  0  0  0  0  0  0  0
  130.0905  126.8189   59.3709 H   0  0  0  0  0  0  0  0  0  0  0  0
  127.7376  124.8906   56.3085 H   0  0  0  0  0  0  0  0  0  0  0  0
  132.4290  121.0927   60.6771 H   0  0  0  0  0  0  0  0  0  0  0  0
  131.9794  118.9805   59.2574 H   0  0  0  0  0  0  0  0  0  0  0  0
  131.0219  116.6988   59.3323 H   0  0  0  0  0  0  0  0  0  0  0  0
  128.4619  117.7688   62.5107 H   0  0  0  0  0  0  0  0  0  0  0  0
  129.3498  120.0810   62.5241 H   0  0  0  0  0  0  0  0  0  0  0  0
  1  2  2  0
  2  3  1  0
  3  4  2  0
  4  5  1  0
  5  6  1  0
  6  7  2  0
  7  8  1  0
  8  9  2  0
  9 10  1  0
  9 11  1  0
 11 12  2  0
 12 13  1  0
  5 14  1  0
 14 15  1  0
 15 16  2  0
 16 17  1  0
 17 18  2  0
 18 19  1  0
 19 20  2  0
 20 21  1  0
 21 22  2  0
 14  2  1  0
 22 17  1  0
 12  6  1  0
  5 23  1  6
  7 24  1  0
  8 25  1  0
 11 26  1  0
 16 27  1  0
 18 28  1  0
 19 29  1  0
 21 30  1  0
 22 31  1  0
M  END
>  <Binding energies>  (1) 
[-6.53]

>  <Ligand effiencies>  (1) 
[-0.2968181818181818]

>  <Interactions>  (1) 
["V-B:PRO:540:CA:9855, V-B:ALA:541:CB:9864, V-B:TYR:539:CE2:9848, V-A:LEU:475:CG:4257, V-B:GLU:543:CG:9879, V-B:TYR:539:C:9839, V-B:TYR:539:CZ:9849, H-B:ALA:541:N:9863, V-A:LEU:475:CD1:4258, V-B:TYR:539:CB:9843, V-A:HIS:383:CE1:3393, V-B:PRO:540:CB:9857, V-B:PRO:540:N:9856, V-A:PRO:482:CB:4326, V-B:TYR:539:CD2:9846, V-B:PRO:540:CD:9859, V-A:LEU:475:CD2:4259, V-B:TYR:539:CG:9844, V-A:HIS:383:CD2:3392, H-A:HIS:383:HE2:3395, V-A:PRO:482:CG:4327, V-B:PRO:540:C:9853, V-B:ALA:541:CA:9862, V-A:HIS:383:NE2:3394"]

$$$$
ZINC1587556874
     RDKit          3D

 52 54  0  0  0  0  0  0  0  0999 V2000
  129.3440  126.1740   68.2730 C   0  0  0  0  0  0  0  0  0  0  0  0
  129.7330  125.8070   67.1750 C   0  0  0  0  0  0  0  0  0  0  0  0
  130.2010  125.3700   65.8380 C   0  0  1  0  0  0  0  0  0  0  0  0
  129.6280  126.2520   64.7060 C   0  0  0  0  0  0  0  0  0  0  0  0
  131.6580  125.1380   65.7240 N   0  0  0  0  0  0  0  0  0  0  0  0
  132.4280  125.7360   66.8170 C   0  0  0  0  0  0  0  0  0  0  0  0
  132.3570  124.5950   64.6530 C   0  0  0  0  0  0  0  0  0  0  0  0
  133.6540  124.7100   64.5150 N   0  0  0  0  0  0  0  0  0  0  0  0
  134.0050  124.0650   63.3430 N   0  0  0  0  0  0  0  0  0  0  0  0
  132.9220  123.5330   62.8200 C   0  0  0  0  0  0  0  0  0  0  0  0
  132.9400  122.7200   61.4990 C   0  0  0  0  0  0  0  0  0  0  0  0
  131.8980  121.5660   61.5540 C   0  0  0  0  0  0  0  0  0  0  0  0
  132.5550  123.5960   60.2810 C   0  0  0  0  0  0  0  0  0  0  0  0
  134.3250  122.0620   61.2860 C   0  0  0  0  0  0  0  0  0  0  0  0
  131.8230  123.8310   63.6230 N   0  0  0  0  0  0  0  0  0  0  0  0
  130.4360  123.3720   63.4740 C   0  0  0  0  0  0  0  0  0  0  0  0
  129.8400  123.7000   62.1150 C   0  0  0  0  0  0  0  0  0  0  0  0
  129.1890  122.6780   61.4840 O   0  0  0  0  0  0  0  0  0  0  0  0
  128.7350  123.1780   60.3050 C   0  0  0  0  0  0  0  0  0  0  0  0
  127.9930  122.4760   59.3470 C   0  0  0  0  0  0  0  0  0  0  0  0
  127.6240  123.1770   58.1990 C   0  0  0  0  0  0  0  0  0  0  0  0
  127.9840  124.5140   58.0190 C   0  0  0  0  0  0  0  0  0  0  0  0
  128.7280  125.2040   58.9810 C   0  0  0  0  0  0  0  0  0  0  0  0
  129.1140  124.5290   60.1530 C   0  0  0  0  0  0  0  0  0  0  0  0
  129.8560  124.8570   61.3340 C   0  0  0  0  0  0  0  0  0  0  0  0
  130.5080  126.1880   61.6390 C   0  0  0  0  0  0  0  0  0  0  0  0
  128.9936  126.5045   69.2619 H   0  0  0  0  0  0  0  0  0  0  0  0
  129.7776  124.3632   65.7069 H   0  0  0  0  0  0  0  0  0  0  0  0
  129.0781  127.0984   65.1433 H   0  0  0  0  0  0  0  0  0  0  0  0
  130.4521  126.6320   64.0844 H   0  0  0  0  0  0  0  0  0  0  0  0
  128.9458  125.6534   64.0844 H   0  0  0  0  0  0  0  0  0  0  0  0
  132.0095  125.4110   67.7810 H   0  0  0  0  0  0  0  0  0  0  0  0
  133.4773  125.4137   66.7455 H   0  0  0  0  0  0  0  0  0  0  0  0
  132.3755  126.8324   66.7455 H   0  0  0  0  0  0  0  0  0  0  0  0
  131.6770  121.3212   62.6034 H   0  0  0  0  0  0  0  0  0  0  0  0
  130.9735  121.8823   61.0487 H   0  0  0  0  0  0  0  0  0  0  0  0
  132.3067  120.6785   61.0487 H   0  0  0  0  0  0  0  0  0  0  0  0
  132.1357  124.5500   60.6334 H   0  0  0  0  0  0  0  0  0  0  0  0
  133.4502  123.7914   59.6723 H   0  0  0  0  0  0  0  0  0  0  0  0
  131.8057  123.0687   59.6723 H   0  0  0  0  0  0  0  0  0  0  0  0
  134.7819  121.8449   62.2628 H   0  0  0  0  0  0  0  0  0  0  0  0
  134.2032  121.1255   60.7219 H   0  0  0  0  0  0  0  0  0  0  0  0
  134.9740  122.7480   60.7219 H   0  0  0  0  0  0  0  0  0  0  0  0
  130.4119  122.2810   63.6123 H   0  0  0  0  0  0  0  0  0  0  0  0
  129.8345  123.8975   64.2304 H   0  0  0  0  0  0  0  0  0  0  0  0
  127.7144  121.4219   59.4929 H   0  0  0  0  0  0  0  0  0  0  0  0
  127.0381  122.6667   57.4204 H   0  0  0  0  0  0  0  0  0  0  0  0
  127.6758  125.0356   57.1009 H   0  0  0  0  0  0  0  0  0  0  0  0
  129.0066  126.2565   58.8239 H   0  0  0  0  0  0  0  0  0  0  0  0
  130.5740  126.3228   62.7287 H   0  0  0  0  0  0  0  0  0  0  0  0
  131.5185  126.2093   61.2050 H   0  0  0  0  0  0  0  0  0  0  0  0
  129.9054  126.9995   61.2050 H   0  0  0  0  0  0  0  0  0  0  0  0
  1  2  3  0
  2  3  1  0
  3  4  1  0
  3  5  1  0
  5  6  1  0
  5  7  1  0
  7  8  2  0
  8  9  1  0
  9 10  2  0
 10 11  1  0
 11 12  1  0
 11 13  1  0
 11 14  1  0
 10 15  1  0
 15 16  1  0
 16 17  1  0
 17 18  1  0
 18 19  1  0
 19 20  2  0
 20 21  1  0
 21 22  2  0
 22 23  1  0
 23 24  2  0
 24 25  1  0
 25 26  1  0
 15  7  1  0
 25 17  2  0
 24 19  1  0
  1 27  1  0
  3 28  1  6
  4 29  1  0
  4 30  1  0
  4 31  1  0
  6 32  1  0
  6 33  1  0
  6 34  1  0
 12 35  1  0
 12 36  1  0
 12 37  1  0
 13 38  1  0
 13 39  1  0
 13 40  1  0
 14 41  1  0
 14 42  1  0
 14 43  1  0
 16 44  1  0
 16 45  1  0
 20 46  1  0
 21 47  1  0
 22 48  1  0
 23 49  1  0
 26 50  1  0
 26 51  1  0
 26 52  1  0
M  END
>  <Binding energies>  (1) 
[-6.67]

>  <Ligand effiencies>  (1) 
[-0.25653846153846155]

>  <Interactions>  (1) 
["V-A:ILE:369:CG2:3237, V-B:PRO:540:CA:9855, V-A:ILE:369:CB:3236, V-B:GLU:543:CB:9878, V-B:TYR:539:CE2:9848, V-B:GLU:543:CG:9879, V-B:TYR:539:C:9839, V-A:TYR:484:CZ:4347, V-A:GLU:543:CD:4908, V-A:ARG:545:CG:4922, H-A:GLY:454:N:4050, V-A:SER:385:C:3405, V-B:PRO:540:N:9856, V-A:HIS:456:CE1:4070, V-A:ILE:369:CD1:3239, V-B:TYR:539:CD2:9846, V-B:GLU:543:CD:9880, V-A:ILE:369:CG1:3238, V-A:ARG:545:CD:4923, V-A:LEU:475:CD2:4259, H-A:ARG:545:NH2:4928, H-A:ARG:545:NE:4924, H-A:TYR:484:OH:4348"]

$$$$
ZINC1595234209-again1
     RDKit          3D

 58 60  0  0  0  0  0  0  0  0999 V2000
  127.9730  129.4550   65.9920 C   0  0  0  0  0  0  0  0  0  0  0  0
  127.9460  128.8560   67.1930 C   0  0  0  0  0  0  0  0  0  0  0  0
  128.2190  127.3790   67.4290 C   0  0  0  0  0  0  0  0  0  0  0  0
  129.6080  126.9330   67.3000 N   0  0  0  0  0  0  0  0  0  0  0  0
  130.4580  127.3530   68.4170 C   0  0  0  0  0  0  0  0  0  0  0  0
  129.7660  127.6750   69.7310 C   0  0  0  0  0  0  0  0  0  0  0  0
  130.4030  127.9900   70.8710 C   0  0  0  0  0  0  0  0  0  0  0  0
  129.9410  125.8500   66.5140 C   0  0  0  0  0  0  0  0  0  0  0  0
  130.5050  124.7550   66.9810 N   0  0  0  0  0  0  0  0  0  0  0  0
  130.6390  123.9690   65.8920 N   0  0  0  0  0  0  0  0  0  0  0  0
  130.1800  124.5570   64.7370 C   0  0  0  0  0  0  0  0  0  0  0  0
  130.1600  123.9610   63.3370 C   0  0  2  0  0  0  0  0  0  0  0  0
  128.8470  123.2840   62.9780 C   0  0  0  0  0  0  0  0  0  0  0  0
  129.2380  122.1110   62.0800 C   0  0  0  0  0  0  0  0  0  0  0  0
  130.6510  122.2040   61.9250 O   0  0  0  0  0  0  0  0  0  0  0  0
  131.2240  122.8820   63.0440 C   0  0  1  0  0  0  0  0  0  0  0  0
  132.6700  123.3400   62.6490 C   0  0  0  0  0  0  0  0  0  0  0  0
  133.1900  124.4020   63.6450 C   0  0  0  0  0  0  0  0  0  0  0  0
  133.6230  122.1200   62.7210 C   0  0  0  0  0  0  0  0  0  0  0  0
  132.7370  123.9260   61.2150 C   0  0  0  0  0  0  0  0  0  0  0  0
  129.7050  125.7910   65.1360 N   0  0  0  0  0  0  0  0  0  0  0  0
  129.0880  126.8010   64.2770 C   0  0  0  0  0  0  0  0  0  0  0  0
  129.7660  126.9300   62.9270 C   0  0  0  0  0  0  0  0  0  0  0  0
  129.3370  127.2060   61.6340 C   0  0  0  0  0  0  0  0  0  0  0  0
  130.4660  127.1930   60.8140 C   0  0  0  0  0  0  0  0  0  0  0  0
  131.5380  126.9070   61.6410 C   0  0  0  0  0  0  0  0  0  0  0  0
  131.1130  126.7470   62.9190 O   0  0  0  0  0  0  0  0  0  0  0  0
  127.7629  130.5316   65.9095 H   0  0  0  0  0  0  0  0  0  0  0  0
  128.2053  128.8693   65.0904 H   0  0  0  0  0  0  0  0  0  0  0  0
  127.7095  129.4781   68.0689 H   0  0  0  0  0  0  0  0  0  0  0  0
  127.8862  127.1385   68.4495 H   0  0  0  0  0  0  0  0  0  0  0  0
  127.6743  126.8554   66.6295 H   0  0  0  0  0  0  0  0  0  0  0  0
  131.1755  126.5420   68.6105 H   0  0  0  0  0  0  0  0  0  0  0  0
  130.9065  128.3032   68.0915 H   0  0  0  0  0  0  0  0  0  0  0  0
  128.6665  127.6483   69.7500 H   0  0  0  0  0  0  0  0  0  0  0  0
  129.8255  128.2102   71.7810 H   0  0  0  0  0  0  0  0  0  0  0  0
  131.5021  128.0278   70.8945 H   0  0  0  0  0  0  0  0  0  0  0  0
  131.0430  123.0460   65.9470 H   0  0  0  0  0  0  0  0  0  0  0  0
  130.3538  124.8662   62.7429 H   0  0  0  0  0  0  0  0  0  0  0  0
  128.3375  122.9240   63.8840 H   0  0  0  0  0  0  0  0  0  0  0  0
  128.1509  123.9729   62.4773 H   0  0  0  0  0  0  0  0  0  0  0  0
  128.9654  121.1566   62.5540 H   0  0  0  0  0  0  0  0  0  0  0  0
  128.7182  122.1480   61.1113 H   0  0  0  0  0  0  0  0  0  0  0  0
  131.4078  122.3166   63.9695 H   0  0  0  0  0  0  0  0  0  0  0  0
  133.0195  124.0538   64.6744 H   0  0  0  0  0  0  0  0  0  0  0  0
  134.2669  124.5589   63.4846 H   0  0  0  0  0  0  0  0  0  0  0  0
  132.6536  125.3489   63.4846 H   0  0  0  0  0  0  0  0  0  0  0  0
  133.8188  121.8693   63.7740 H   0  0  0  0  0  0  0  0  0  0  0  0
  133.1555  121.2595   62.2200 H   0  0  0  0  0  0  0  0  0  0  0  0
  134.5711  122.3653   62.2200 H   0  0  0  0  0  0  0  0  0  0  0  0
  132.8618  125.0175   61.2704 H   0  0  0  0  0  0  0  0  0  0  0  0
  133.5907  123.4861   60.6786 H   0  0  0  0  0  0  0  0  0  0  0  0
  131.8060  123.6901   60.6786 H   0  0  0  0  0  0  0  0  0  0  0  0
  128.0352  126.5266   64.1149 H   0  0  0  0  0  0  0  0  0  0  0  0
  129.1878  127.7702   64.7875 H   0  0  0  0  0  0  0  0  0  0  0  0
  128.3015  127.3986   61.3166 H   0  0  0  0  0  0  0  0  0  0  0  0
  130.4975  127.3736   59.7294 H   0  0  0  0  0  0  0  0  0  0  0  0
  132.5835  126.8218   61.3098 H   0  0  0  0  0  0  0  0  0  0  0  0
  1  2  2  0
  2  3  1  0
  3  4  1  0
  4  5  1  0
  5  6  1  0
  6  7  2  0
  4  8  1  0
  8  9  2  0
  9 10  1  0
 10 11  2  0
 11 12  1  0
 12 13  1  0
 13 14  1  0
 14 15  1  0
 15 16  1  0
 16 17  1  0
 17 18  1  0
 17 19  1  0
 17 20  1  0
 11 21  1  0
 21 22  1  0
 22 23  1  0
 23 24  2  0
 24 25  1  0
 25 26  2  0
 26 27  1  0
 21  8  1  0
 27 23  1  0
 16 12  1  0
  1 28  1  0
  1 29  1  0
  2 30  1  0
  3 31  1  0
  3 32  1  0
  5 33  1  0
  5 34  1  0
  6 35  1  0
  7 36  1  0
  7 37  1  0
 10 38  1  0
 12 39  1  6
 13 40  1  0
 13 41  1  0
 14 42  1  0
 14 43  1  0
 16 44  1  1
 18 45  1  0
 18 46  1  0
 18 47  1  0
 19 48  1  0
 19 49  1  0
 19 50  1  0
 20 51  1  0
 20 52  1  0
 20 53  1  0
 22 54  1  0
 22 55  1  0
 24 56  1  0
 25 57  1  0
 26 58  1  0
M  CHG  1  10   1
M  END
>  <Binding energies>  (1) 
[-6.45]

>  <Ligand effiencies>  (1) 
[-0.23035714285714287]

>  <Interactions>  (1) 
["V-A:GLY:454:CA:4049, V-A:GLU:543:C:4902, V-B:GLU:543:CB:9878, V-B:ALA:541:CB:9864, V-A:TYR:484:CE2:4346, V-B:GLU:543:CG:9879, V-A:GLY:544:C:4912, V-A:ASP:366:CG:3213, V-A:GLU:543:CD:4908, V-A:TYR:484:CZ:4347, V-B:HIS:456:CE1:9041, V-A:HIS:456:CE1:4070, V-A:GLU:543:CG:4907, V-B:GLU:543:CD:9880, V-A:LEU:475:CD2:4259, H-A:ARG:545:NH2:4928, V-A:ARG:545:CZ:4926, V-A:GLU:543:CB:4906, H-A:TYR:484:OH:4348"]

$$$$
ZINC159723163
     RDKit          3D

 47 47  0  0  0  0  0  0  0  0999 V2000
  125.8360  129.7050   75.5610 C   0  0  0  0  0  0  0  0  0  0  0  0
  127.1590  129.7590   74.7820 C   0  0  0  0  0  0  0  0  0  0  0  0
  127.9500  131.0790   74.9690 C   0  0  2  0  0  0  0  0  0  0  0  0
  127.1250  132.3560   74.6760 C   0  0  0  0  0  0  0  0  0  0  0  0
  127.9190  133.1770   73.6560 C   0  0  0  0  0  0  0  0  0  0  0  0
  129.3660  132.7330   73.8530 C   0  0  0  0  0  0  0  0  0  0  0  0
  129.2700  131.2320   74.1560 C   0  0  2  0  0  0  0  0  0  0  0  0
  129.3100  130.4730   72.8970 N   0  0  0  0  0  0  0  0  0  0  0  0
  129.5660  129.1570   72.7820 C   0  0  0  0  0  0  0  0  0  0  0  0
  129.8260  128.4300   73.7430 O   0  0  0  0  0  0  0  0  0  0  0  0
  129.4860  128.5660   71.3590 C   0  0  1  0  0  0  0  0  0  0  0  0
  130.8570  128.0290   70.9090 C   0  0  0  0  0  0  0  0  0  0  0  0
  128.5760  127.4650   71.3360 O   0  0  0  0  0  0  0  0  0  0  0  0
  128.6780  126.5980   70.2070 C   0  0  0  0  0  0  0  0  0  0  0  0
  127.6160  126.9850   69.1620 C   0  0  0  0  0  0  0  0  0  0  0  0
  128.1730  127.3360   67.7610 C   0  0  0  0  0  0  0  0  0  0  0  0
  129.4880  126.5850   67.4870 C   0  0  0  0  0  0  0  0  0  0  0  0
  128.3570  128.8530   67.5500 C   0  0  0  0  0  0  0  0  0  0  0  0
  126.0457  129.7136   76.6408 H   0  0  0  0  0  0  0  0  0  0  0  0
  125.2209  130.5788   75.3000 H   0  0  0  0  0  0  0  0  0  0  0  0
  125.2941  128.7840   75.3000 H   0  0  0  0  0  0  0  0  0  0  0  0
  127.7928  128.9257   75.1194 H   0  0  0  0  0  0  0  0  0  0  0  0
  126.9017  129.6918   73.7146 H   0  0  0  0  0  0  0  0  0  0  0  0
  128.2011  130.9873   76.0360 H   0  0  0  0  0  0  0  0  0  0  0  0
  126.1433  132.0846   74.2606 H   0  0  0  0  0  0  0  0  0  0  0  0
  126.9538  132.9329   75.5968 H   0  0  0  0  0  0  0  0  0  0  0  0
  127.5808  132.9580   72.6324 H   0  0  0  0  0  0  0  0  0  0  0  0
  127.7902  134.2601   73.7988 H   0  0  0  0  0  0  0  0  0  0  0  0
  129.9541  132.9084   72.9401 H   0  0  0  0  0  0  0  0  0  0  0  0
  129.8686  133.2905   74.6571 H   0  0  0  0  0  0  0  0  0  0  0  0
  130.1079  130.8294   74.7441 H   0  0  0  0  0  0  0  0  0  0  0  0
  129.0730  130.9900   72.0630 H   0  0  0  0  0  0  0  0  0  0  0  0
  129.1522  129.3711   70.6879 H   0  0  0  0  0  0  0  0  0  0  0  0
  131.4657  127.7906   71.7936 H   0  0  0  0  0  0  0  0  0  0  0  0
  130.7148  127.1201   70.3059 H   0  0  0  0  0  0  0  0  0  0  0  0
  131.3699  128.7927   70.3059 H   0  0  0  0  0  0  0  0  0  0  0  0
  129.6800  126.6915   69.7628 H   0  0  0  0  0  0  0  0  0  0  0  0
  128.5134  125.5588   70.5280 H   0  0  0  0  0  0  0  0  0  0  0  0
  126.9224  126.1385   69.0510 H   0  0  0  0  0  0  0  0  0  0  0  0
  127.1336  127.8991   69.5385 H   0  0  0  0  0  0  0  0  0  0  0  0
  127.4167  127.0051   67.0340 H   0  0  0  0  0  0  0  0  0  0  0  0
  129.9617  126.3145   68.4422 H   0  0  0  0  0  0  0  0  0  0  0  0
  129.2757  125.6719   66.9115 H   0  0  0  0  0  0  0  0  0  0  0  0
  130.1666  127.2318   66.9115 H   0  0  0  0  0  0  0  0  0  0  0  0
  128.4178  129.3544   68.5272 H   0  0  0  0  0  0  0  0  0  0  0  0
  129.2838  129.0350   66.9862 H   0  0  0  0  0  0  0  0  0  0  0  0
  127.5006  129.2513   66.9862 H   0  0  0  0  0  0  0  0  0  0  0  0
  1  2  1  0
  2  3  1  0
  3  4  1  0
  4  5  1  0
  5  6  1  0
  6  7  1  0
  7  8  1  0
  8  9  1  0
  9 10  2  0
  9 11  1  0
 11 12  1  0
 11 13  1  0
 13 14  1  0
 14 15  1  0
 15 16  1  0
 16 17  1  0
 16 18  1  0
  7  3  1  0
  1 19  1  0
  1 20  1  0
  1 21  1  0
  2 22  1  0
  2 23  1  0
  3 24  1  1
  4 25  1  0
  4 26  1  0
  5 27  1  0
  5 28  1  0
  6 29  1  0
  6 30  1  0
  7 31  1  1
  8 32  1  0
 11 33  1  6
 12 34  1  0
 12 35  1  0
 12 36  1  0
 14 37  1  0
 14 38  1  0
 15 39  1  0
 15 40  1  0
 16 41  1  0
 17 42  1  0
 17 43  1  0
 17 44  1  0
 18 45  1  0
 18 46  1  0
 18 47  1  0
M  END
>  <Binding energies>  (1) 
[-5.23]

>  <Ligand effiencies>  (1) 
[-0.2752631578947369]

>  <Interactions>  (1) 
["V-B:HIS:456:CD2:9039, V-B:GLU:543:C:9874, V-A:GLU:543:C:4902, V-B:GLU:543:CB:9878, V-B:HIS:456:CB:9036, V-B:GLU:543:CG:9879, V-A:GLY:544:C:4912, V-B:TYR:484:CB:9312, V-A:GLU:543:CD:4908, V-B:HIS:456:CE1:9041, V-A:HIS:456:CE1:4070, H-B:HIS:456:NE2:9042, V-A:GLU:543:CG:4907, V-B:GLU:543:CD:9880, V-B:HIS:456:CG:9037, H-A:LYS:547:NZ:4951, V-A:GLU:543:CB:4906, V-A:LYS:547:CE:4950, V-B:ASP:473:CB:9210, V-B:ASP:473:CG:9211, H-A:GLU:543:O:4903"]

$$$$
ZINC159742643
     RDKit          3D

 46 46  0  0  0  0  0  0  0  0999 V2000
  129.4620  126.4690   67.8180 C   0  0  0  0  0  0  0  0  0  0  0  0
  129.8600  125.0710   67.3250 C   0  0  0  0  0  0  0  0  0  0  0  0
  130.9330  125.1090   66.2190 C   0  0  0  0  0  0  0  0  0  0  0  0
  130.4130  124.7960   64.7930 C   0  0  2  0  0  0  0  0  0  0  0  0
  129.8390  123.3700   64.6650 C   0  0  0  0  0  0  0  0  0  0  0  0
  131.4830  125.0330   63.7010 C   0  0  0  0  0  0  0  0  0  0  0  0
  133.0660  124.0270   64.0010 S   0  0  0  0  0  0  0  0  0  0  0  0
  133.8860  124.7360   64.9880 O   0  0  0  0  0  0  0  0  0  0  0  0
  132.6760  122.6340   64.2510 O   0  0  0  0  0  0  0  0  0  0  0  0
  133.8880  124.0840   62.4190 N   0  0  0  0  0  0  0  0  0  0  0  0
  135.2280  124.7230   62.3910 C   0  0  0  0  0  0  0  0  0  0  0  0
  133.0740  123.9670   61.1580 C   0  0  1  0  0  0  0  0  0  0  0  0
  133.8990  124.1960   59.8590 C   0  0  0  0  0  0  0  0  0  0  0  0
  133.0780  124.7310   58.6730 C   0  0  0  0  0  0  0  0  0  0  0  0
  132.2880  122.6550   61.1020 C   0  0  0  0  0  0  0  0  0  0  0  0
  130.9090  122.6490   61.3470 C   0  0  0  0  0  0  0  0  0  0  0  0
  130.2210  121.4360   61.2840 C   0  0  0  0  0  0  0  0  0  0  0  0
  130.8260  120.2580   60.9850 N   0  0  0  0  0  0  0  0  0  0  0  0
  132.1600  120.2780   60.7370 C   0  0  0  0  0  0  0  0  0  0  0  0
  132.9220  121.4480   60.7790 C   0  0  0  0  0  0  0  0  0  0  0  0
  129.4581  126.4826   68.9179 H   0  0  0  0  0  0  0  0  0  0  0  0
  130.1851  127.2091   67.4447 H   0  0  0  0  0  0  0  0  0  0  0  0
  128.4575  126.7172   67.4447 H   0  0  0  0  0  0  0  0  0  0  0  0
  130.2539  124.4972   68.1768 H   0  0  0  0  0  0  0  0  0  0  0  0
  128.9610  124.6030   66.8974 H   0  0  0  0  0  0  0  0  0  0  0  0
  131.3762  126.1157   66.2076 H   0  0  0  0  0  0  0  0  0  0  0  0
  131.6561  124.3171   66.4640 H   0  0  0  0  0  0  0  0  0  0  0  0
  129.5921  125.5095   64.6284 H   0  0  0  0  0  0  0  0  0  0  0  0
  129.6704  122.9512   65.6681 H   0  0  0  0  0  0  0  0  0  0  0  0
  128.8854  123.4063   64.1178 H   0  0  0  0  0  0  0  0  0  0  0  0
  130.5518  122.7356   64.1178 H   0  0  0  0  0  0  0  0  0  0  0  0
  131.0618  124.7452   62.7264 H   0  0  0  0  0  0  0  0  0  0  0  0
  131.7550  126.0985   63.7261 H   0  0  0  0  0  0  0  0  0  0  0  0
  135.5766  124.8892   63.4210 H   0  0  0  0  0  0  0  0  0  0  0  0
  135.9367  124.0659   61.8656 H   0  0  0  0  0  0  0  0  0  0  0  0
  135.1635  125.6873   61.8656 H   0  0  0  0  0  0  0  0  0  0  0  0
  132.3472  124.7915   61.2022 H   0  0  0  0  0  0  0  0  0  0  0  0
  134.6963  124.9206   60.0807 H   0  0  0  0  0  0  0  0  0  0  0  0
  134.2870  123.2126   59.5551 H   0  0  0  0  0  0  0  0  0  0  0  0
  132.2125  125.2950   59.0509 H   0  0  0  0  0  0  0  0  0  0  0  0
  133.7076  125.3927   58.0600 H   0  0  0  0  0  0  0  0  0  0  0  0
  132.7269  123.8878   58.0600 H   0  0  0  0  0  0  0  0  0  0  0  0
  130.3781  123.5826   61.5846 H   0  0  0  0  0  0  0  0  0  0  0  0
  129.1397  121.4346   61.4858 H   0  0  0  0  0  0  0  0  0  0  0  0
  132.6635  119.3312   60.4921 H   0  0  0  0  0  0  0  0  0  0  0  0
  134.0002  121.4222   60.5624 H   0  0  0  0  0  0  0  0  0  0  0  0
  1  2  1  0
  2  3  1  0
  3  4  1  0
  4  5  1  0
  4  6  1  0
  6  7  1  0
  7  8  2  0
  7  9  2  0
  7 10  1  0
 10 11  1  0
 10 12  1  0
 12 13  1  0
 13 14  1  0
 12 15  1  0
 15 16  2  0
 16 17  1  0
 17 18  2  0
 18 19  1  0
 19 20  2  0
 20 15  1  0
  1 21  1  0
  1 22  1  0
  1 23  1  0
  2 24  1  0
  2 25  1  0
  3 26  1  0
  3 27  1  0
  4 28  1  6
  5 29  1  0
  5 30  1  0
  5 31  1  0
  6 32  1  0
  6 33  1  0
 11 34  1  0
 11 35  1  0
 11 36  1  0
 12 37  1  1
 13 38  1  0
 13 39  1  0
 14 40  1  0
 14 41  1  0
 14 42  1  0
 16 43  1  0
 17 44  1  0
 19 45  1  0
 20 46  1  0
M  END
>  <Binding energies>  (1) 
[-5.79]

>  <Ligand effiencies>  (1) 
[-0.2895]

>  <Interactions>  (1) 
["V-A:ILE:369:CG2:3237, V-A:ASP:366:CA:3210, V-A:GLY:454:CA:4049, V-A:ILE:369:CB:3236, V-B:GLU:543:CB:9878, V-B:TYR:539:CE2:9848, V-A:TYR:484:CE2:4346, V-B:GLU:543:CG:9879, V-A:ASP:366:CG:3213, V-B:TYR:539:CZ:9849, V-A:TYR:484:CZ:4347, V-B:GLU:543:CA:9876, H-A:GLY:454:N:4050, V-A:GLY:453:C:4042, V-A:HIS:456:CE1:4070, V-A:ILE:369:CD1:3239, V-B:TYR:539:CD2:9846, V-A:SER:385:CB:3409, V-A:ASP:366:CB:3212, V-A:LEU:475:CD2:4259, H-A:ARG:545:NH2:4928, V-A:ARG:545:CZ:4926, V-A:GLY:453:CA:4044, H-A:ARG:545:NE:4924, H-A:TYR:484:OH:4348"]

$$$$
ZINC159800671
     RDKit          3D

 38 39  0  0  0  0  0  0  0  0999 V2000
  131.5070  128.0870   69.9000 C   0  0  0  0  0  0  0  0  0  0  0  0
  130.0430  128.4720   70.1690 C   0  0  0  0  0  0  0  0  0  0  0  0
  129.1230  127.3000   70.5960 C   0  0  1  0  0  0  0  0  0  0  0  0
  129.0830  126.2110   69.6240 N   0  0  0  0  0  0  0  0  0  0  0  0
  129.2340  126.3110   68.2640 C   0  0  0  0  0  0  0  0  0  0  0  0
  129.9610  125.5470   67.4980 N   0  0  0  0  0  0  0  0  0  0  0  0
  129.8530  125.9350   66.2360 C   0  0  0  0  0  0  0  0  0  0  0  0
  130.6220  125.1530   65.1470 C   0  0  0  0  0  0  0  0  0  0  0  0
  132.1610  125.2260   65.3360 C   0  0  0  0  0  0  0  0  0  0  0  0
  130.2070  123.6620   65.1860 C   0  0  0  0  0  0  0  0  0  0  0  0
  130.2860  125.7370   63.7520 C   0  0  0  0  0  0  0  0  0  0  0  0
  129.0940  126.9750   65.9240 N   0  0  0  0  0  0  0  0  0  0  0  0
  128.4160  127.5470   67.3890 S   0  0  0  0  0  0  0  0  0  0  0  0
  129.4840  126.7680   71.9770 C   0  0  0  0  0  0  0  0  0  0  0  0
  128.8710  125.7210   72.4880 N   0  0  0  0  0  0  0  0  0  0  0  0
  129.4870  125.5650   73.7280 O   0  0  0  0  0  0  0  0  0  0  0  0
  130.4050  126.5590   73.7830 C   0  0  0  0  0  0  0  0  0  0  0  0
  131.2620  126.6740   75.0210 C   0  0  0  0  0  0  0  0  0  0  0  0
  130.4290  127.3160   72.7210 N   0  0  0  0  0  0  0  0  0  0  0  0
  132.0316  127.9490   70.8569 H   0  0  0  0  0  0  0  0  0  0  0  0
  131.5400  127.1496   69.3253 H   0  0  0  0  0  0  0  0  0  0  0  0
  131.9968  128.8869   69.3253 H   0  0  0  0  0  0  0  0  0  0  0  0
  130.0304  129.2248   70.9710 H   0  0  0  0  0  0  0  0  0  0  0  0
  129.6432  128.8430   69.2137 H   0  0  0  0  0  0  0  0  0  0  0  0
  128.1103  127.7272   70.6396 H   0  0  0  0  0  0  0  0  0  0  0  0
  129.0090  125.3020   70.0600 H   0  0  0  0  0  0  0  0  0  0  0  0
  132.3984  125.2373   66.4100 H   0  0  0  0  0  0  0  0  0  0  0  0
  132.6302  124.3491   64.8660 H   0  0  0  0  0  0  0  0  0  0  0  0
  132.5450  126.1434   64.8660 H   0  0  0  0  0  0  0  0  0  0  0  0
  130.1157  123.3340   66.2320 H   0  0  0  0  0  0  0  0  0  0  0  0
  129.2400  123.5371   64.6769 H   0  0  0  0  0  0  0  0  0  0  0  0
  130.9705  123.0555   64.6769 H   0  0  0  0  0  0  0  0  0  0  0  0
  129.7408  126.6847   63.8729 H   0  0  0  0  0  0  0  0  0  0  0  0
  131.2178  125.9184   63.1963 H   0  0  0  0  0  0  0  0  0  0  0  0
  129.6608  125.0226   63.1963 H   0  0  0  0  0  0  0  0  0  0  0  0
  130.6274  126.5888   75.9154 H   0  0  0  0  0  0  0  0  0  0  0  0
  132.0109  125.8683   75.0247 H   0  0  0  0  0  0  0  0  0  0  0  0
  131.7720  127.6486   75.0247 H   0  0  0  0  0  0  0  0  0  0  0  0
  1  2  1  0
  2  3  1  0
  3  4  1  0
  4  5  1  0
  5  6  2  0
  6  7  1  0
  7  8  1  0
  8  9  1  0
  8 10  1  0
  8 11  1  0
  7 12  2  0
 12 13  1  0
  3 14  1  0
 14 15  2  0
 15 16  1  0
 16 17  1  0
 17 18  1  0
 17 19  2  0
 13  5  1  0
 19 14  1  0
  1 20  1  0
  1 21  1  0
  1 22  1  0
  2 23  1  0
  2 24  1  0
  3 25  1  1
  4 26  1  0
  9 27  1  0
  9 28  1  0
  9 29  1  0
 10 30  1  0
 10 31  1  0
 10 32  1  0
 11 33  1  0
 11 34  1  0
 11 35  1  0
 18 36  1  0
 18 37  1  0
 18 38  1  0
M  END
>  <Binding energies>  (1) 
[-6.13]

>  <Ligand effiencies>  (1) 
[-0.3065]

>  <Interactions>  (1) 
["V-A:ARG:545:CA:4919, V-A:GLU:543:CA:4904, V-B:GLU:543:C:9874, H-B:GLU:543:O:9875, V-A:GLU:543:C:4902, V-B:GLU:543:CB:9878, H-B:LYS:547:NZ:9923, V-A:TYR:484:CE2:4346, V-B:GLU:543:CG:9879, V-A:GLY:544:C:4912, V-A:HIS:456:CD2:4068, V-A:GLU:543:CD:4908, V-A:TYR:484:CZ:4347, V-A:ARG:545:CG:4922, V-A:HIS:456:CE1:4070, V-B:GLU:543:CD:9880, V-A:ARG:545:CZ:4926, V-A:GLU:543:CB:4906, H-A:HIS:456:NE2:4071"]

$$$$
ZINC159976979
     RDKit          3D

 42 44  0  0  0  0  0  0  0  0999 V2000
  125.9910  124.4760   57.8220 C   0  0  0  0  0  0  0  0  0  0  0  0
  127.3390  123.8270   57.4230 C   0  0  0  0  0  0  0  0  0  0  0  0
  128.1990  124.8690   56.6680 C   0  0  0  0  0  0  0  0  0  0  0  0
  127.0340  122.6600   56.4440 C   0  0  0  0  0  0  0  0  0  0  0  0
  128.0880  123.3570   58.6910 C   0  0  0  0  0  0  0  0  0  0  0  0
  128.0160  122.0970   59.0990 N   0  0  0  0  0  0  0  0  0  0  0  0
  128.9720  121.9840   60.5160 S   0  0  0  0  0  0  0  0  0  0  0  0
  129.3630  123.6570   60.4010 C   0  0  0  0  0  0  0  0  0  0  0  0
  130.1770  124.2450   61.3350 N   0  0  0  0  0  0  0  0  0  0  0  0
  131.5630  123.8860   61.6150 C   0  0  1  0  0  0  0  0  0  0  0  0
  132.4110  123.9370   60.3130 C   0  0  0  0  0  0  0  0  0  0  0  0
  133.9000  123.5660   60.5750 C   0  0  0  0  0  0  0  0  0  0  0  0
  134.5270  124.3450   61.7640 C   0  0  0  0  0  0  0  0  0  0  0  0
  133.5990  124.2340   62.9890 C   0  0  1  0  0  0  0  0  0  0  0  0
  133.9790  124.9330   64.1630 O   0  0  0  0  0  0  0  0  0  0  0  0
  132.8140  125.0910   64.9810 C   0  0  0  0  0  0  0  0  0  0  0  0
  131.6020  124.9640   64.0410 C   0  0  0  0  0  0  0  0  0  0  0  0
  132.2240  124.7980   62.6670 C   0  0  2  0  0  0  0  0  0  0  0  0
  128.8120  124.2340   59.3700 N   0  0  0  0  0  0  0  0  0  0  0  0
  125.9126  124.5138   58.9186 H   0  0  0  0  0  0  0  0  0  0  0  0
  125.9410  125.4969   57.4155 H   0  0  0  0  0  0  0  0  0  0  0  0
  125.1618  123.8784   57.4155 H   0  0  0  0  0  0  0  0  0  0  0  0
  128.7248  125.5060   57.3945 H   0  0  0  0  0  0  0  0  0  0  0  0
  128.9344  124.3491   56.0365 H   0  0  0  0  0  0  0  0  0  0  0  0
  127.5490  125.4925   56.0365 H   0  0  0  0  0  0  0  0  0  0  0  0
  126.7968  121.7522   57.0182 H   0  0  0  0  0  0  0  0  0  0  0  0
  126.1757  122.9278   55.8103 H   0  0  0  0  0  0  0  0  0  0  0  0
  127.9136  122.4736   55.8103 H   0  0  0  0  0  0  0  0  0  0  0  0
  129.8940  125.1020   61.7880 H   0  0  0  0  0  0  0  0  0  0  0  0
  131.5345  122.8645   62.0220 H   0  0  0  0  0  0  0  0  0  0  0  0
  131.9900  123.2265   59.5864 H   0  0  0  0  0  0  0  0  0  0  0  0
  132.3792  124.9660   59.9256 H   0  0  0  0  0  0  0  0  0  0  0  0
  133.9585  122.4894   60.7932 H   0  0  0  0  0  0  0  0  0  0  0  0
  134.4672  123.8372   59.6723 H   0  0  0  0  0  0  0  0  0  0  0  0
  135.5102  123.9158   62.0073 H   0  0  0  0  0  0  0  0  0  0  0  0
  134.6500  125.4028   61.4886 H   0  0  0  0  0  0  0  0  0  0  0  0
  133.6382  123.1543   63.1955 H   0  0  0  0  0  0  0  0  0  0  0  0
  132.7813  124.3070   65.7518 H   0  0  0  0  0  0  0  0  0  0  0  0
  132.8181  126.0624   65.4971 H   0  0  0  0  0  0  0  0  0  0  0  0
  130.9928  124.0866   64.3038 H   0  0  0  0  0  0  0  0  0  0  0  0
  130.9261  125.8299   64.0997 H   0  0  0  0  0  0  0  0  0  0  0  0
  132.1490  125.7758   62.1688 H   0  0  0  0  0  0  0  0  0  0  0  0
  1  2  1  0
  2  3  1  0
  2  4  1  0
  2  5  1  0
  5  6  2  0
  6  7  1  0
  7  8  1  0
  8  9  1  0
  9 10  1  0
 10 11  1  0
 11 12  1  0
 12 13  1  0
 13 14  1  0
 14 15  1  0
 15 16  1  0
 16 17  1  0
 17 18  1  0
  8 19  2  0
 19  5  1  0
 18 10  1  0
 18 14  1  0
  1 20  1  0
  1 21  1  0
  1 22  1  0
  3 23  1  0
  3 24  1  0
  3 25  1  0
  4 26  1  0
  4 27  1  0
  4 28  1  0
  9 29  1  0
 10 30  1  1
 11 31  1  0
 11 32  1  0
 12 33  1  0
 12 34  1  0
 13 35  1  0
 13 36  1  0
 14 37  1  1
 16 38  1  0
 16 39  1  0
 17 40  1  0
 17 41  1  0
 18 42  1  6
M  END
>  <Binding energies>  (1) 
[-6.37]

>  <Ligand effiencies>  (1) 
[-0.3185]

>  <Interactions>  (1) 
["V-B:TYR:539:CD1:9845, V-A:ILE:369:CG2:3237, V-B:PRO:540:CA:9855, V-A:ILE:369:CD1:3239, V-B:TYR:539:CZ:9849, V-B:TYR:539:CE1:9847, V-A:ILE:369:CB:3236, V-B:TYR:539:CD2:9846, H-A:ARG:545:NE:4924, H-A:ARG:545:NH1:4927, V-B:TYR:539:CE2:9848, H-A:ARG:545:NH2:4928, V-A:ARG:545:CZ:4926, V-B:TYR:539:C:9839, H-A:GLY:454:N:4050, V-A:ASP:366:CG:3213, V-B:PRO:540:N:9856"]

$$$$
ZINC159997795
     RDKit          3D

 48 49  0  0  0  0  0  0  0  0999 V2000
  132.8590  124.6940   61.5830 C   0  0  0  0  0  0  0  0  0  0  0  0
  132.9870  124.8700   63.0800 C   0  0  0  0  0  0  0  0  0  0  0  0
  134.1670  124.7230   63.6390 N   0  0  0  0  0  0  0  0  0  0  0  0
  133.9840  124.9380   65.0010 O   0  0  0  0  0  0  0  0  0  0  0  0
  132.6750  125.2120   65.2190 C   0  0  0  0  0  0  0  0  0  0  0  0
  132.2790  125.4730   66.6520 C   0  0  0  0  0  0  0  0  0  0  0  0
  131.9900  125.1820   64.0160 C   0  0  0  0  0  0  0  0  0  0  0  0
  130.5150  125.4270   63.7710 C   0  0  0  0  0  0  0  0  0  0  0  0
  129.6320  124.6540   64.7610 C   0  0  0  0  0  0  0  0  0  0  0  0
  129.5440  122.8280   64.2770 S   0  0  0  0  0  0  0  0  0  0  0  0
  130.8820  122.3670   63.8940 O   0  0  0  0  0  0  0  0  0  0  0  0
  128.7680  122.1120   65.2940 O   0  0  0  0  0  0  0  0  0  0  0  0
  128.5140  122.8770   62.7770 C   0  0  0  0  0  0  0  0  0  0  0  0
  127.2270  123.1110   62.8120 N   0  0  0  0  0  0  0  0  0  0  0  0
  126.8530  123.1960   61.5490 C   0  0  0  0  0  0  0  0  0  0  0  0
  125.4010  123.4690   61.2260 C   0  0  0  0  0  0  0  0  0  0  0  0
  127.9340  123.0250   60.6820 C   0  0  0  0  0  0  0  0  0  0  0  0
  128.0140  123.0840   59.1680 C   0  0  0  0  0  0  0  0  0  0  0  0
  129.0250  122.7810   61.4990 N   0  0  0  0  0  0  0  0  0  0  0  0
  130.4060  122.5110   61.0800 C   0  0  0  0  0  0  0  0  0  0  0  0
  130.6510  121.0170   60.7290 C   0  0  0  0  0  0  0  0  0  0  0  0
  129.7910  120.1050   61.6220 C   0  0  0  0  0  0  0  0  0  0  0  0
  132.1310  120.5960   60.7880 C   0  0  0  0  0  0  0  0  0  0  0  0
  132.2243  123.8213   61.3693 H   0  0  0  0  0  0  0  0  0  0  0  0
  132.4034  125.5946   61.1455 H   0  0  0  0  0  0  0  0  0  0  0  0
  133.8562  124.5381   61.1455 H   0  0  0  0  0  0  0  0  0  0  0  0
  133.0049  124.9946   67.3260 H   0  0  0  0  0  0  0  0  0  0  0  0
  132.2660  126.5572   66.8372 H   0  0  0  0  0  0  0  0  0  0  0  0
  131.2775  125.0574   66.8372 H   0  0  0  0  0  0  0  0  0  0  0  0
  130.3110  126.5026   63.8779 H   0  0  0  0  0  0  0  0  0  0  0  0
  130.2759  125.0759   62.7563 H   0  0  0  0  0  0  0  0  0  0  0  0
  130.0579  124.7412   65.7714 H   0  0  0  0  0  0  0  0  0  0  0  0
  128.6173  125.0782   64.7412 H   0  0  0  0  0  0  0  0  0  0  0  0
  124.8313  123.5761   62.1609 H   0  0  0  0  0  0  0  0  0  0  0  0
  125.3238  124.3974   60.6411 H   0  0  0  0  0  0  0  0  0  0  0  0
  124.9918  122.6320   60.6411 H   0  0  0  0  0  0  0  0  0  0  0  0
  128.8662  123.7125   58.8701 H   0  0  0  0  0  0  0  0  0  0  0  0
  128.1500  122.0683   58.7681 H   0  0  0  0  0  0  0  0  0  0  0  0
  127.0838  123.5140   58.7681 H   0  0  0  0  0  0  0  0  0  0  0  0
  130.6290  123.1211   60.1923 H   0  0  0  0  0  0  0  0  0  0  0  0
  131.0626  122.7631   61.9258 H   0  0  0  0  0  0  0  0  0  0  0  0
  130.3466  120.8984   59.6786 H   0  0  0  0  0  0  0  0  0  0  0  0
  129.9989  120.3255   62.6794 H   0  0  0  0  0  0  0  0  0  0  0  0
  128.7263  120.2850   61.4124 H   0  0  0  0  0  0  0  0  0  0  0  0
  130.0331  119.0527   61.4124 H   0  0  0  0  0  0  0  0  0  0  0  0
  132.4452  120.5066   61.8384 H   0  0  0  0  0  0  0  0  0  0  0  0
  132.2568  119.6264   60.2839 H   0  0  0  0  0  0  0  0  0  0  0  0
  132.7483  121.3542   60.2839 H   0  0  0  0  0  0  0  0  0  0  0  0
  1  2  1  0
  2  3  2  0
  3  4  1  0
  4  5  1  0
  5  6  1  0
  5  7  2  0
  7  8  1  0
  8  9  1  0
  9 10  1  0
 10 11  2  0
 10 12  2  0
 10 13  1  0
 13 14  2  0
 14 15  1  0
 15 16  1  0
 15 17  2  0
 17 18  1  0
 17 19  1  0
 19 20  1  0
 20 21  1  0
 21 22  1  0
 21 23  1  0
  7  2  1  0
 19 13  1  0
  1 24  1  0
  1 25  1  0
  1 26  1  0
  6 27  1  0
  6 28  1  0
  6 29  1  0
  8 30  1  0
  8 31  1  0
  9 32  1  0
  9 33  1  0
 16 34  1  0
 16 35  1  0
 16 36  1  0
 18 37  1  0
 18 38  1  0
 18 39  1  0
 20 40  1  0
 20 41  1  0
 21 42  1  0
 22 43  1  0
 22 44  1  0
 22 45  1  0
 23 46  1  0
 23 47  1  0
 23 48  1  0
M  END
>  <Binding energies>  (1) 
[-7.41]

>  <Ligand effiencies>  (1) 
[-0.32217391304347825]

>  <Interactions>  (1) 
["V-B:PRO:540:CA:9855, V-B:ALA:541:CB:9864, H-A:ARG:545:NH1:4927, V-B:TYR:539:CE2:9848, V-B:GLU:543:CG:9879, V-A:ASP:366:CG:3213, H-B:ALA:541:N:9863, V-A:TYR:484:CZ:4347, V-B:PRO:540:CB:9857, V-A:ARG:545:CG:4922, H-A:GLY:454:N:4050, V-B:PRO:540:N:9856, V-A:HIS:456:CE1:4070, V-B:TYR:539:CD2:9846, V-B:GLU:543:CD:9880, V-A:ARG:545:CD:4923, V-A:LEU:475:CD2:4259, H-A:ARG:545:NH2:4928, V-A:ARG:545:CZ:4926, H-A:ARG:545:NE:4924, V-B:PRO:540:C:9853, H-A:TYR:484:OH:4348"]

$$$$
ZINC160107148
     RDKit          3D

 50 50  0  0  0  0  0  0  0  0999 V2000
  130.0690  125.5860   66.9410 C   0  0  0  0  0  0  0  0  0  0  0  0
  131.5520  125.4650   66.5510 C   0  0  0  0  0  0  0  0  0  0  0  0
  131.7510  125.0630   65.1480 N   0  0  0  0  0  0  0  0  0  0  0  0
  130.5250  124.6020   64.4660 C   0  0  0  0  0  0  0  0  0  0  0  0
  130.3360  123.0580   64.3420 C   0  0  0  0  0  0  0  0  0  0  0  0
  129.3180  122.5760   65.3950 C   0  0  0  0  0  0  0  0  0  0  0  0
  129.9010  122.6280   62.9260 C   0  0  0  0  0  0  0  0  0  0  0  0
  131.5440  122.3750   64.6230 O   0  0  0  0  0  0  0  0  0  0  0  0
  132.9950  125.0700   64.5910 C   0  0  0  0  0  0  0  0  0  0  0  0
  134.0160  125.0330   65.2820 O   0  0  0  0  0  0  0  0  0  0  0  0
  133.1640  125.0900   63.0520 C   0  0  0  0  0  0  0  0  0  0  0  0
  132.8810  123.7390   62.3220 C   0  0  2  0  0  0  0  0  0  0  0  0
  133.9780  122.6690   62.6100 C   0  0  0  0  0  0  0  0  0  0  0  0
  133.6220  121.2910   62.0110 C   0  0  0  0  0  0  0  0  0  0  0  0
  133.2580  121.3740   60.5140 C   0  0  0  0  0  0  0  0  0  0  0  0
  132.2090  122.4780   60.2610 C   0  0  0  0  0  0  0  0  0  0  0  0
  132.6530  123.8850   60.7700 C   0  0  0  0  0  0  0  0  0  0  0  0
  131.4660  124.8440   60.4940 C   0  0  0  0  0  0  0  0  0  0  0  0
  133.9300  124.3490   60.0170 C   0  0  0  0  0  0  0  0  0  0  0  0
  129.9776  125.5935   68.0372 H   0  0  0  0  0  0  0  0  0  0  0  0
  129.6575  126.5207   66.5324 H   0  0  0  0  0  0  0  0  0  0  0  0
  129.5114  124.7304   66.5324 H   0  0  0  0  0  0  0  0  0  0  0  0
  132.0355  126.4406   66.7073 H   0  0  0  0  0  0  0  0  0  0  0  0
  131.9935  124.6798   67.1823 H   0  0  0  0  0  0  0  0  0  0  0  0
  129.6634  125.0006   65.0217 H   0  0  0  0  0  0  0  0  0  0  0  0
  130.6113  124.9687   63.4325 H   0  0  0  0  0  0  0  0  0  0  0  0
  129.7160  122.7645   66.4030 H   0  0  0  0  0  0  0  0  0  0  0  0
  128.3715  123.1216   65.2666 H   0  0  0  0  0  0  0  0  0  0  0  0
  129.1402  121.4981   65.2666 H   0  0  0  0  0  0  0  0  0  0  0  0
  129.1205  121.8565   63.0007 H   0  0  0  0  0  0  0  0  0  0  0  0
  129.5047  123.4992   62.3838 H   0  0  0  0  0  0  0  0  0  0  0  0
  130.7675  122.2217   62.3838 H   0  0  0  0  0  0  0  0  0  0  0  0
  131.9900  122.8290   65.3420 H   0  0  0  0  0  0  0  0  0  0  0  0
  132.4741  125.8445   62.6460 H   0  0  0  0  0  0  0  0  0  0  0  0
  134.2258  125.3125   62.8699 H   0  0  0  0  0  0  0  0  0  0  0  0
  131.9297  123.3898   62.7499 H   0  0  0  0  0  0  0  0  0  0  0  0
  134.9284  123.0099   62.1735 H   0  0  0  0  0  0  0  0  0  0  0  0
  134.0569  122.5522   63.7009 H   0  0  0  0  0  0  0  0  0  0  0  0
  134.4872  120.6217   62.1271 H   0  0  0  0  0  0  0  0  0  0  0  0
  132.7411  120.9102   62.5487 H   0  0  0  0  0  0  0  0  0  0  0  0
  134.1655  121.6003   59.9350 H   0  0  0  0  0  0  0  0  0  0  0  0
  132.8333  120.4084   60.2022 H   0  0  0  0  0  0  0  0  0  0  0  0
  132.0241  122.5414   59.1785 H   0  0  0  0  0  0  0  0  0  0  0  0
  131.3046  122.2007   60.8224 H   0  0  0  0  0  0  0  0  0  0  0  0
  131.0418  125.1867   61.4493 H   0  0  0  0  0  0  0  0  0  0  0  0
  131.8216  125.7114   59.9185 H   0  0  0  0  0  0  0  0  0  0  0  0
  130.6927  124.3141   59.9185 H   0  0  0  0  0  0  0  0  0  0  0  0
  134.7039  124.6302   60.7464 H   0  0  0  0  0  0  0  0  0  0  0  0
  134.3019  123.5285   59.3857 H   0  0  0  0  0  0  0  0  0  0  0  0
  133.6885  125.2168   59.3857 H   0  0  0  0  0  0  0  0  0  0  0  0
  1  2  1  0
  2  3  1  0
  3  4  1  0
  4  5  1  0
  5  6  1  0
  5  7  1  0
  5  8  1  0
  3  9  1  0
  9 10  2  0
  9 11  1  0
 11 12  1  0
 12 13  1  0
 13 14  1  0
 14 15  1  0
 15 16  1  0
 16 17  1  0
 17 18  1  0
 17 19  1  0
 17 12  1  0
  1 20  1  0
  1 21  1  0
  1 22  1  0
  2 23  1  0
  2 24  1  0
  4 25  1  0
  4 26  1  0
  6 27  1  0
  6 28  1  0
  6 29  1  0
  7 30  1  0
  7 31  1  0
  7 32  1  0
  8 33  1  0
 11 34  1  0
 11 35  1  0
 12 36  1  1
 13 37  1  0
 13 38  1  0
 14 39  1  0
 14 40  1  0
 15 41  1  0
 15 42  1  0
 16 43  1  0
 16 44  1  0
 18 45  1  0
 18 46  1  0
 18 47  1  0
 19 48  1  0
 19 49  1  0
 19 50  1  0
M  END
>  <Binding energies>  (1) 
[-5.57]

>  <Ligand effiencies>  (1) 
[-0.2785]

>  <Interactions>  (1) 
["V-A:ILE:369:CG2:3237, V-A:ASP:366:CA:3210, V-A:GLY:454:CA:4049, V-A:ILE:369:CB:3236, V-B:GLU:543:CB:9878, V-B:ALA:541:CB:9864, H-A:ARG:545:NH1:4927, V-A:TYR:484:CE2:4346, V-B:TYR:539:CE2:9848, V-B:GLU:543:CG:9879, V-A:ASP:366:CG:3213, V-A:TYR:484:CZ:4347, V-B:GLU:543:CA:9876, H-A:GLY:454:N:4050, V-A:SER:385:C:3405, V-A:HIS:456:CE1:4070, V-A:ILE:369:CD1:3239, V-B:TYR:539:CD2:9846, V-A:SER:385:CB:3409, V-A:ASP:366:CB:3212, V-A:LEU:475:CD2:4259, H-A:ARG:545:NH2:4928, V-A:ARG:545:CZ:4926, H-A:ARG:545:NE:4924, H-A:TYR:484:OH:4348"]

$$$$
ZINC160170370
     RDKit          3D

 52 53  0  0  0  0  0  0  0  0999 V2000
  126.7780  129.5350   64.4250 C   0  0  0  0  0  0  0  0  0  0  0  0
  128.0230  128.7780   64.9120 C   0  0  0  0  0  0  0  0  0  0  0  0
  128.0320  128.5620   66.4400 C   0  0  0  0  0  0  0  0  0  0  0  0
  129.0130  127.4640   66.9460 C   0  0  2  0  0  0  0  0  0  0  0  0
  129.4750  126.5790   65.7480 C   0  0  0  0  0  0  0  0  0  0  0  0
  130.4060  125.4940   66.1030 N   0  0  0  0  0  0  0  0  0  0  0  0
  131.4810  125.1380   65.3230 C   0  0  0  0  0  0  0  0  0  0  0  0
  131.4190  124.5430   64.1610 N   0  0  0  0  0  0  0  0  0  0  0  0
  132.6340  124.3480   63.6690 C   0  0  0  0  0  0  0  0  0  0  0  0
  132.7790  123.6530   62.2960 C   0  0  0  0  0  0  0  0  0  0  0  0
  133.1330  124.7050   61.2160 C   0  0  0  0  0  0  0  0  0  0  0  0
  133.9080  122.5960   62.3620 C   0  0  0  0  0  0  0  0  0  0  0  0
  131.4770  122.9320   61.8530 C   0  0  0  0  0  0  0  0  0  0  0  0
  133.6980  124.7420   64.3510 N   0  0  0  0  0  0  0  0  0  0  0  0
  133.1200  125.4530   65.7950 S   0  0  0  0  0  0  0  0  0  0  0  0
  129.8580  124.7130   67.2210 C   0  0  0  0  0  0  0  0  0  0  0  0
  129.4600  125.6020   68.4110 C   0  0  0  0  0  0  0  0  0  0  0  0
  128.4650  126.6030   68.0150 N   0  0  0  0  0  0  0  0  0  0  0  0
  128.0510  127.3540   69.2140 C   0  0  0  0  0  0  0  0  0  0  0  0
  129.2750  127.6940   70.0820 C   0  0  0  0  0  0  0  0  0  0  0  0
  129.0020  127.3990   71.4460 O   0  0  0  0  0  0  0  0  0  0  0  0
  127.6700  126.9630   71.6720 C   0  0  0  0  0  0  0  0  0  0  0  0
  126.2000  129.8865   65.2924 H   0  0  0  0  0  0  0  0  0  0  0  0
  127.0879  130.3977   63.8170 H   0  0  0  0  0  0  0  0  0  0  0  0
  126.1547  128.8629   63.8170 H   0  0  0  0  0  0  0  0  0  0  0  0
  128.0526  127.7956   64.4180 H   0  0  0  0  0  0  0  0  0  0  0  0
  128.9021  129.3888   64.6587 H   0  0  0  0  0  0  0  0  0  0  0  0
  128.3100  129.5134   66.9170 H   0  0  0  0  0  0  0  0  0  0  0  0
  127.0221  128.2169   66.7066 H   0  0  0  0  0  0  0  0  0  0  0  0
  129.8631  128.0007   67.3923 H   0  0  0  0  0  0  0  0  0  0  0  0
  128.5816  126.1275   65.2919 H   0  0  0  0  0  0  0  0  0  0  0  0
  130.0225  127.2449   65.0648 H   0  0  0  0  0  0  0  0  0  0  0  0
  133.4475  125.6395   61.7036 H   0  0  0  0  0  0  0  0  0  0  0  0
  133.9527  124.3249   60.5886 H   0  0  0  0  0  0  0  0  0  0  0  0
  132.2502  124.8978   60.5886 H   0  0  0  0  0  0  0  0  0  0  0  0
  134.1431  122.3759   63.4138 H   0  0  0  0  0  0  0  0  0  0  0  0
  133.5777  121.6749   61.8596 H   0  0  0  0  0  0  0  0  0  0  0  0
  134.8054  122.9862   61.8596 H   0  0  0  0  0  0  0  0  0  0  0  0
  130.9107  122.6184   62.7424 H   0  0  0  0  0  0  0  0  0  0  0  0
  130.8639  123.6191   61.2514 H   0  0  0  0  0  0  0  0  0  0  0  0
  131.7341  122.0477   61.2514 H   0  0  0  0  0  0  0  0  0  0  0  0
  128.9676  124.1702   66.8710 H   0  0  0  0  0  0  0  0  0  0  0  0
  130.6403  124.0200   67.5641 H   0  0  0  0  0  0  0  0  0  0  0  0
  129.0366  124.9698   69.2054 H   0  0  0  0  0  0  0  0  0  0  0  0
  130.3579  126.1263   68.7700 H   0  0  0  0  0  0  0  0  0  0  0  0
  127.5555  128.2862   68.9049 H   0  0  0  0  0  0  0  0  0  0  0  0
  127.3574  126.7346   69.8016 H   0  0  0  0  0  0  0  0  0  0  0  0
  130.1365  127.0982   69.7460 H   0  0  0  0  0  0  0  0  0  0  0  0
  129.5008  128.7660   69.9830 H   0  0  0  0  0  0  0  0  0  0  0  0
  127.4829  126.9018   72.7542 H   0  0  0  0  0  0  0  0  0  0  0  0
  126.9681  127.6783   71.2184 H   0  0  0  0  0  0  0  0  0  0  0  0
  127.5269  125.9711   71.2184 H   0  0  0  0  0  0  0  0  0  0  0  0
  1  2  1  0
  2  3  1  0
  3  4  1  0
  4  5  1  0
  5  6  1  0
  6  7  1  0
  7  8  2  0
  8  9  1  0
  9 10  1  0
 10 11  1  0
 10 12  1  0
 10 13  1  0
  9 14  2  0
 14 15  1  0
  6 16  1  0
 16 17  1  0
 17 18  1  0
 18 19  1  0
 19 20  1  0
 20 21  1  0
 21 22  1  0
 18  4  1  0
 15  7  1  0
  1 23  1  0
  1 24  1  0
  1 25  1  0
  2 26  1  0
  2 27  1  0
  3 28  1  0
  3 29  1  0
  4 30  1  1
  5 31  1  0
  5 32  1  0
 11 33  1  0
 11 34  1  0
 11 35  1  0
 12 36  1  0
 12 37  1  0
 12 38  1  0
 13 39  1  0
 13 40  1  0
 13 41  1  0
 16 42  1  0
 16 43  1  0
 17 44  1  0
 17 45  1  0
 19 46  1  0
 19 47  1  0
 20 48  1  0
 20 49  1  0
 22 50  1  0
 22 51  1  0
 22 52  1  0
M  END
>  <Binding energies>  (1) 
[-5.75]

>  <Ligand effiencies>  (1) 
[-0.26136363636363635]

>  <Interactions>  (1) 
["V-A:GLY:454:CA:4049, V-B:GLU:543:C:9874, V-B:HIS:456:CD2:9039, V-B:GLU:543:CB:9878, V-A:TYR:484:CE2:4346, V-B:GLU:543:CG:9879, V-A:ASP:366:CG:3213, V-A:GLU:543:CD:4908, V-A:TYR:484:CZ:4347, V-B:HIS:456:CE1:9041, V-B:GLU:543:CA:9876, H-A:GLY:454:N:4050, V-A:ARG:545:CG:4922, V-A:HIS:456:CE1:4070, V-A:ILE:369:CD1:3239, V-B:GLY:544:C:9884, V-A:GLU:543:CG:4907, V-B:GLU:543:CD:9880, V-A:ARG:545:CD:4923, V-A:LEU:475:CD2:4259, H-A:ARG:545:NH2:4928, V-A:ARG:545:CZ:4926, V-A:GLU:543:CB:4906, H-A:ARG:545:NE:4924, H-A:TYR:484:OH:4348"]

$$$$
ZINC160491547
     RDKit          3D

 54 57  0  0  0  0  0  0  0  0999 V2000
  130.2650  119.9460   61.2700 C   0  0  0  0  0  0  0  0  0  0  0  0
  129.6800  121.2780   61.6990 C   0  0  0  0  0  0  0  0  0  0  0  0
  130.2180  122.0050   62.7650 C   0  0  0  0  0  0  0  0  0  0  0  0
  129.6140  123.2310   63.0840 C   0  0  0  0  0  0  0  0  0  0  0  0
  130.0700  124.0140   64.1570 N   0  0  0  0  0  0  0  0  0  0  0  0
  129.8370  123.6600   65.5590 C   0  0  0  0  0  0  0  0  0  0  0  0
  130.5060  124.6820   66.4720 C   0  0  0  0  0  0  0  0  0  0  0  0
  131.4930  125.3970   65.5640 C   0  0  0  0  0  0  0  0  0  0  0  0
  131.3850  124.6680   64.2140 C   0  0  2  0  0  0  0  0  0  0  0  0
  131.8040  125.5500   63.0060 C   0  0  0  0  0  0  0  0  0  0  0  0
  132.7780  124.9310   62.0940 N   0  0  0  0  0  0  0  0  0  0  0  0
  132.8610  123.4680   62.2360 C   0  0  0  0  0  0  0  0  0  0  0  0
  133.9050  122.8950   61.2470 C   0  0  1  0  0  0  0  0  0  0  0  0
  133.9790  121.3660   61.3330 C   0  0  0  0  0  0  0  0  0  0  0  0
  133.5260  123.2720   59.9250 O   0  0  0  0  0  0  0  0  0  0  0  0
  133.5260  124.6860   59.7430 C   0  0  1  0  0  0  0  0  0  0  0  0
  133.2040  125.0060   58.2770 C   0  0  0  0  0  0  0  0  0  0  0  0
  132.4820  125.3060   60.7030 C   0  0  0  0  0  0  0  0  0  0  0  0
  128.5390  123.6900   62.3790 N   0  0  0  0  0  0  0  0  0  0  0  0
  128.0850  122.9100   61.3640 C   0  0  0  0  0  0  0  0  0  0  0  0
  126.8730  123.4380   60.6020 C   0  0  0  0  0  0  0  0  0  0  0  0
  125.5140  123.5930   61.2640 C   0  0  0  0  0  0  0  0  0  0  0  0
  126.2920  124.8150   60.8790 C   0  0  0  0  0  0  0  0  0  0  0  0
  128.6080  121.7130   60.9860 N   0  0  0  0  0  0  0  0  0  0  0  0
  130.5244  119.3554   62.1610 H   0  0  0  0  0  0  0  0  0  0  0  0
  129.5251  119.3971   60.6689 H   0  0  0  0  0  0  0  0  0  0  0  0
  131.1698  120.1194   60.6689 H   0  0  0  0  0  0  0  0  0  0  0  0
  131.0825  121.6301   63.3326 H   0  0  0  0  0  0  0  0  0  0  0  0
  128.7550  123.6477   65.7568 H   0  0  0  0  0  0  0  0  0  0  0  0
  130.2631  122.6653   65.7563 H   0  0  0  0  0  0  0  0  0  0  0  0
  129.7659  125.3876   66.8773 H   0  0  0  0  0  0  0  0  0  0  0  0
  130.9921  124.2174   67.3425 H   0  0  0  0  0  0  0  0  0  0  0  0
  131.2209  126.4572   65.4546 H   0  0  0  0  0  0  0  0  0  0  0  0
  132.5167  125.3765   65.9660 H   0  0  0  0  0  0  0  0  0  0  0  0
  132.1318  123.8646   64.1315 H   0  0  0  0  0  0  0  0  0  0  0  0
  130.8993  125.7895   62.4280 H   0  0  0  0  0  0  0  0  0  0  0  0
  132.2986  126.4368   63.4291 H   0  0  0  0  0  0  0  0  0  0  0  0
  133.1598  123.2189   63.2649 H   0  0  0  0  0  0  0  0  0  0  0  0
  131.8771  123.0288   62.0147 H   0  0  0  0  0  0  0  0  0  0  0  0
  134.8956  123.2979   61.5048 H   0  0  0  0  0  0  0  0  0  0  0  0
  133.9939  121.0584   62.3890 H   0  0  0  0  0  0  0  0  0  0  0  0
  133.1010  120.9279   60.8358 H   0  0  0  0  0  0  0  0  0  0  0  0
  134.8952  121.0147   60.8358 H   0  0  0  0  0  0  0  0  0  0  0  0
  134.5129  125.1132   59.9744 H   0  0  0  0  0  0  0  0  0  0  0  0
  132.4244  125.7808   58.2335 H   0  0  0  0  0  0  0  0  0  0  0  0
  134.1115  125.3703   57.7734 H   0  0  0  0  0  0  0  0  0  0  0  0
  132.8453  124.0962   57.7734 H   0  0  0  0  0  0  0  0  0  0  0  0
  132.5093  126.4017   60.6094 H   0  0  0  0  0  0  0  0  0  0  0  0
  131.4838  124.9285   60.4364 H   0  0  0  0  0  0  0  0  0  0  0  0
  127.2560  122.9124   59.7148 H   0  0  0  0  0  0  0  0  0  0  0  0
  124.6009  123.3271   60.7112 H   0  0  0  0  0  0  0  0  0  0  0  0
  125.0593  123.2253   62.1957 H   0  0  0  0  0  0  0  0  0  0  0  0
  125.9486  125.4438   60.0443 H   0  0  0  0  0  0  0  0  0  0  0  0
  126.6420  125.7111   61.4124 H   0  0  0  0  0  0  0  0  0  0  0  0
  1  2  1  0
  2  3  2  0
  3  4  1  0
  4  5  1  0
  5  6  1  0
  6  7  1  0
  7  8  1  0
  8  9  1  0
  9 10  1  0
 10 11  1  0
 11 12  1  0
 12 13  1  0
 13 14  1  0
 13 15  1  0
 15 16  1  0
 16 17  1  0
 16 18  1  0
  4 19  2  0
 19 20  1  0
 20 21  1  0
 21 22  1  0
 22 23  1  0
 20 24  2  0
 24  2  1  0
  9  5  1  0
 18 11  1  0
 23 21  1  0
  1 25  1  0
  1 26  1  0
  1 27  1  0
  3 28  1  0
  6 29  1  0
  6 30  1  0
  7 31  1  0
  7 32  1  0
  8 33  1  0
  8 34  1  0
  9 35  1  1
 10 36  1  0
 10 37  1  0
 12 38  1  0
 12 39  1  0
 13 40  1  1
 14 41  1  0
 14 42  1  0
 14 43  1  0
 16 44  1  1
 17 45  1  0
 17 46  1  0
 17 47  1  0
 18 48  1  0
 18 49  1  0
 21 50  1  0
 22 51  1  0
 22 52  1  0
 23 53  1  0
 23 54  1  0
M  END
>  <Binding energies>  (1) 
[-6.49]

>  <Ligand effiencies>  (1) 
[-0.2704166666666667]

>  <Interactions>  (1) 
["V-A:ILE:369:CG2:3237, V-A:ASP:366:CA:3210, V-B:PRO:540:CA:9855, V-B:GLU:543:CB:9878, V-B:ALA:541:CB:9864, V-B:TYR:539:CE2:9848, V-A:TYR:484:CE2:4346, V-B:GLU:543:CG:9879, V-A:ASP:366:CG:3213, V-B:TYR:539:CZ:9849, H-B:ALA:541:N:9863, V-A:TYR:484:CZ:4347, V-A:GLU:543:CD:4908, V-B:PRO:540:CB:9857, V-A:SER:385:C:3405, V-A:HIS:456:CE1:4070, V-A:ILE:369:CD1:3239, V-A:ASP:366:C:3208, V-B:TYR:539:CD2:9846, V-A:SER:385:CB:3409, V-A:ASP:366:CB:3212, V-A:LEU:475:CD2:4259, H-A:ARG:545:NH2:4928, V-A:ARG:545:CZ:4926, V-A:SER:385:CA:3407"]

$$$$
ZINC160491547-again1
     RDKit          3D

 55 58  0  0  0  0  0  0  0  0999 V2000
  129.4810  123.9770   64.6530 C   0  0  0  0  0  0  0  0  0  0  0  0
  129.1490  123.1340   63.4370 C   0  0  0  0  0  0  0  0  0  0  0  0
  129.8440  121.9620   63.1120 C   0  0  0  0  0  0  0  0  0  0  0  0
  129.4590  121.2460   61.9630 C   0  0  0  0  0  0  0  0  0  0  0  0
  130.0940  120.0540   61.5730 N   0  0  0  0  0  0  0  0  0  0  0  0
  129.7750  118.7120   62.0660 C   0  0  0  0  0  0  0  0  0  0  0  0
  130.1090  117.7480   60.9360 C   0  0  0  0  0  0  0  0  0  0  0  0
  131.3360  118.3760   60.3090 C   0  0  0  0  0  0  0  0  0  0  0  0
  131.1050  119.8860   60.5140 C   0  0  2  0  0  0  0  0  0  0  0  0
  132.4360  120.6540   60.7760 C   0  0  0  0  0  0  0  0  0  0  0  0
  132.3050  122.1170   60.8120 N   0  0  0  0  0  0  0  0  0  0  0  0
  132.6460  122.6310   62.1470 C   0  0  0  0  0  0  0  0  0  0  0  0
  132.9110  124.1630   62.2440 C   0  0  1  0  0  0  0  0  0  0  0  0
  133.7860  124.6020   63.4250 C   0  0  0  0  0  0  0  0  0  0  0  0
  133.2350  124.8500   61.0340 O   0  0  0  0  0  0  0  0  0  0  0  0
  132.6700  124.3170   59.8440 C   0  0  1  0  0  0  0  0  0  0  0  0
  133.2260  125.1210   58.6610 C   0  0  0  0  0  0  0  0  0  0  0  0
  133.0170  122.8200   59.7440 C   0  0  0  0  0  0  0  0  0  0  0  0
  128.4350  121.6900   61.1730 N   0  0  0  0  0  0  0  0  0  0  0  0
  127.8010  122.8370   61.5340 C   0  0  0  0  0  0  0  0  0  0  0  0
  126.6530  123.3480   60.6790 C   0  0  0  0  0  0  0  0  0  0  0  0
  125.3880  123.9510   61.2530 C   0  0  0  0  0  0  0  0  0  0  0  0
  126.3790  124.8240   60.5120 C   0  0  0  0  0  0  0  0  0  0  0  0
  128.1430  123.5330   62.6350 N   0  0  0  0  0  0  0  0  0  0  0  0
  129.2565  123.4070   65.5667 H   0  0  0  0  0  0  0  0  0  0  0  0
  130.5493  124.2386   64.6372 H   0  0  0  0  0  0  0  0  0  0  0  0
  128.8780  124.8968   64.6372 H   0  0  0  0  0  0  0  0  0  0  0  0
  130.6736  121.6085   63.7419 H   0  0  0  0  0  0  0  0  0  0  0  0
  130.3794  118.4798   62.9552 H   0  0  0  0  0  0  0  0  0  0  0  0
  128.7167  118.6350   62.3560 H   0  0  0  0  0  0  0  0  0  0  0  0
  130.3332  116.7439   61.3253 H   0  0  0  0  0  0  0  0  0  0  0  0
  129.2812  117.6072   60.2254 H   0  0  0  0  0  0  0  0  0  0  0  0
  132.2526  118.0447   60.8190 H   0  0  0  0  0  0  0  0  0  0  0  0
  131.4687  118.1002   59.2524 H   0  0  0  0  0  0  0  0  0  0  0  0
  130.7163  120.3425   59.5918 H   0  0  0  0  0  0  0  0  0  0  0  0
  132.8378  120.3222   61.7448 H   0  0  0  0  0  0  0  0  0  0  0  0
  133.0994  120.4227   59.9296 H   0  0  0  0  0  0  0  0  0  0  0  0
  131.8120  122.3907   62.8228 H   0  0  0  0  0  0  0  0  0  0  0  0
  133.5976  122.1488   62.4152 H   0  0  0  0  0  0  0  0  0  0  0  0
  131.8934  124.5142   62.4701 H   0  0  0  0  0  0  0  0  0  0  0  0
  133.2815  124.3489   64.3691 H   0  0  0  0  0  0  0  0  0  0  0  0
  134.7547  124.0832   63.3764 H   0  0  0  0  0  0  0  0  0  0  0  0
  133.9492  125.6887   63.3764 H   0  0  0  0  0  0  0  0  0  0  0  0
  131.5730  124.3984   59.8422 H   0  0  0  0  0  0  0  0  0  0  0  0
  133.8136  125.9707   59.0390 H   0  0  0  0  0  0  0  0  0  0  0  0
  133.8702  124.4735   58.0480 H   0  0  0  0  0  0  0  0  0  0  0  0
  132.3928  125.4952   58.0480 H   0  0  0  0  0  0  0  0  0  0  0  0
  132.7022  122.4287   58.7654 H   0  0  0  0  0  0  0  0  0  0  0  0
  134.1021  122.6721   59.8473 H   0  0  0  0  0  0  0  0  0  0  0  0
  126.8651  122.5050   60.0049 H   0  0  0  0  0  0  0  0  0  0  0  0
  124.4128  123.7187   60.8002 H   0  0  0  0  0  0  0  0  0  0  0  0
  124.9192  123.9765   62.2478 H   0  0  0  0  0  0  0  0  0  0  0  0
  126.1231  125.2270   59.5210 H   0  0  0  0  0  0  0  0  0  0  0  0
  126.9281  125.7479   60.7463 H   0  0  0  0  0  0  0  0  0  0  0  0
  127.6360  124.3770   62.8610 H   0  0  0  0  0  0  0  0  0  0  0  0
  1  2  1  0
  2  3  2  0
  3  4  1  0
  4  5  1  0
  5  6  1  0
  6  7  1  0
  7  8  1  0
  8  9  1  0
  9 10  1  0
 10 11  1  0
 11 12  1  0
 12 13  1  0
 13 14  1  0
 13 15  1  0
 15 16  1  0
 16 17  1  0
 16 18  1  0
  4 19  2  0
 19 20  1  0
 20 21  1  0
 21 22  1  0
 22 23  1  0
 20 24  2  0
 24  2  1  0
  9  5  1  0
 18 11  1  0
 23 21  1  0
  1 25  1  0
  1 26  1  0
  1 27  1  0
  3 28  1  0
  6 29  1  0
  6 30  1  0
  7 31  1  0
  7 32  1  0
  8 33  1  0
  8 34  1  0
  9 35  1  6
 10 36  1  0
 10 37  1  0
 12 38  1  0
 12 39  1  0
 13 40  1  1
 14 41  1  0
 14 42  1  0
 14 43  1  0
 16 44  1  1
 17 45  1  0
 17 46  1  0
 17 47  1  0
 18 48  1  0
 18 49  1  0
 21 50  1  0
 22 51  1  0
 22 52  1  0
 23 53  1  0
 23 54  1  0
 24 55  1  0
M  CHG  1  24   1
M  END
>  <Binding energies>  (1) 
[-7.21]

>  <Ligand effiencies>  (1) 
[-0.2884]

>  <Interactions>  (1) 
["V-A:ILE:369:CG2:3237, V-A:ASP:366:CA:3210, V-B:PRO:540:CA:9855, V-B:GLU:543:CB:9878, V-B:ALA:541:CB:9864, V-B:TYR:539:CE2:9848, V-A:LEU:475:CG:4257, V-B:GLU:543:CG:9879, V-B:TYR:539:C:9839, V-A:ASP:366:CG:3213, H-B:GLU:543:OE1:9881, H-B:ALA:541:N:9863, V-A:LEU:475:CD1:4258, V-B:PRO:540:CB:9857, V-A:ASP:366:C:3208, V-A:PRO:482:CB:4326, V-B:TYR:539:CD2:9846, V-A:SER:385:CB:3409, V-B:GLU:543:CD:9880, V-A:ASP:366:CB:3212, V-A:LEU:475:CD2:4259, V-A:ARG:545:CZ:4926, V-B:PRO:540:C:9853, V-A:HIS:383:NE2:3394"]

$$$$
ZINC160495620
     RDKit          3D

 47 49  0  0  0  0  0  0  0  0999 V2000
  126.2730  123.5980   61.2480 C   0  0  0  0  0  0  0  0  0  0  0  0
  127.6290  123.3280   61.9120 C   0  0  2  0  0  0  0  0  0  0  0  0
  128.6710  124.4810   61.7960 C   0  0  0  0  0  0  0  0  0  0  0  0
  130.0860  124.0790   61.8810 N   0  0  0  0  0  0  0  0  0  0  0  0
  131.0000  125.1000   61.3540 C   0  0  0  0  0  0  0  0  0  0  0  0
  132.4870  124.9080   61.7580 C   0  0  2  0  0  0  0  0  0  0  0  0
  133.2710  124.2570   60.6070 C   0  0  0  0  0  0  0  0  0  0  0  0
  134.2980  123.4240   61.3360 C   0  0  0  0  0  0  0  0  0  0  0  0
  133.5040  122.9590   62.5490 C   0  0  0  0  0  0  0  0  0  0  0  0
  132.7030  124.1090   62.9850 N   0  0  0  0  0  0  0  0  0  0  0  0
  132.7340  124.6210   64.2980 C   0  0  0  0  0  0  0  0  0  0  0  0
  133.9450  124.6720   64.9230 N   0  0  0  0  0  0  0  0  0  0  0  0
  133.9610  125.1080   66.2090 C   0  0  0  0  0  0  0  0  0  0  0  0
  132.7990  125.4750   66.8890 C   0  0  0  0  0  0  0  0  0  0  0  0
  131.5940  125.3730   66.1850 C   0  0  0  0  0  0  0  0  0  0  0  0
  130.2520  125.7270   66.8240 C   0  0  0  0  0  0  0  0  0  0  0  0
  129.6670  124.6110   67.2590 F   0  0  0  0  0  0  0  0  0  0  0  0
  130.4020  126.5540   67.8600 F   0  0  0  0  0  0  0  0  0  0  0  0
  129.4450  126.3180   65.9400 F   0  0  0  0  0  0  0  0  0  0  0  0
  131.5520  124.9450   64.8920 N   0  0  0  0  0  0  0  0  0  0  0  0
  130.3340  122.7690   61.2840 C   0  0  0  0  0  0  0  0  0  0  0  0
  129.4550  121.7470   62.0270 C   0  0  2  0  0  0  0  0  0  0  0  0
  129.7780  120.3030   61.6220 C   0  0  0  0  0  0  0  0  0  0  0  0
  128.0940  121.9910   61.7020 O   0  0  0  0  0  0  0  0  0  0  0  0
  125.5085  123.7502   62.0241 H   0  0  0  0  0  0  0  0  0  0  0  0
  126.3444  124.4996   60.6218 H   0  0  0  0  0  0  0  0  0  0  0  0
  125.9936  122.7379   60.6218 H   0  0  0  0  0  0  0  0  0  0  0  0
  127.4475  123.3585   62.9965 H   0  0  0  0  0  0  0  0  0  0  0  0
  128.5189  124.9767   60.8259 H   0  0  0  0  0  0  0  0  0  0  0  0
  128.4933  125.1321   62.6646 H   0  0  0  0  0  0  0  0  0  0  0  0
  130.9379  125.0820   60.2559 H   0  0  0  0  0  0  0  0  0  0  0  0
  130.6804  126.0585   61.7890 H   0  0  0  0  0  0  0  0  0  0  0  0
  132.8516  125.9228   61.9754 H   0  0  0  0  0  0  0  0  0  0  0  0
  132.6161  123.6268   59.9874 H   0  0  0  0  0  0  0  0  0  0  0  0
  133.7132  124.9861   59.9121 H   0  0  0  0  0  0  0  0  0  0  0  0
  134.6331  122.5732   60.7246 H   0  0  0  0  0  0  0  0  0  0  0  0
  135.2217  123.9669   61.5851 H   0  0  0  0  0  0  0  0  0  0  0  0
  132.8475  122.1199   62.2752 H   0  0  0  0  0  0  0  0  0  0  0  0
  134.1699  122.6093   63.3516 H   0  0  0  0  0  0  0  0  0  0  0  0
  134.9254  125.1743   66.7340 H   0  0  0  0  0  0  0  0  0  0  0  0
  132.8289  125.8282   67.9303 H   0  0  0  0  0  0  0  0  0  0  0  0
  130.0687  122.7866   60.2166 H   0  0  0  0  0  0  0  0  0  0  0  0
  131.3971  122.4997   61.3695 H   0  0  0  0  0  0  0  0  0  0  0  0
  129.6498  121.8634   63.1033 H   0  0  0  0  0  0  0  0  0  0  0  0
  129.9150  119.6907   62.5255 H   0  0  0  0  0  0  0  0  0  0  0  0
  128.9488  119.8954   61.0251 H   0  0  0  0  0  0  0  0  0  0  0  0
  130.7018  120.2875   61.0251 H   0  0  0  0  0  0  0  0  0  0  0  0
  1  2  1  0
  2  3  1  0
  3  4  1  0
  4  5  1  0
  5  6  1  0
  6  7  1  0
  7  8  1  0
  8  9  1  0
  9 10  1  0
 10 11  1  0
 11 12  2  0
 12 13  1  0
 13 14  2  0
 14 15  1  0
 15 16  1  0
 16 17  1  0
 16 18  1  0
 16 19  1  0
 15 20  2  0
  4 21  1  0
 21 22  1  0
 22 23  1  0
 22 24  1  0
 24  2  1  0
 10  6  1  0
 20 11  1  0
  1 25  1  0
  1 26  1  0
  1 27  1  0
  2 28  1  1
  3 29  1  0
  3 30  1  0
  5 31  1  0
  5 32  1  0
  6 33  1  1
  7 34  1  0
  7 35  1  0
  8 36  1  0
  8 37  1  0
  9 38  1  0
  9 39  1  0
 13 40  1  0
 14 41  1  0
 21 42  1  0
 21 43  1  0
 22 44  1  1
 23 45  1  0
 23 46  1  0
 23 47  1  0
M  END
>  <Binding energies>  (1) 
[-5.65]

>  <Ligand effiencies>  (1) 
[-0.2354166666666667]

>  <Interactions>  (1) 
["V-A:ILE:369:CG2:3237, V-B:PRO:540:CA:9855, V-A:GLY:454:CA:4049, V-B:GLU:543:C:9874, V-B:GLU:543:CB:9878, V-B:ALA:541:CB:9864, V-A:TYR:484:CE2:4346, V-B:GLU:543:CG:9879, V-A:ASP:366:CG:3213, H-B:ALA:541:N:9863, V-A:TYR:484:CZ:4347, V-B:PRO:540:CB:9857, V-A:GLU:543:CD:4908, V-A:ARG:545:CG:4922, H-A:GLY:454:N:4050, V-B:GLU:543:CA:9876, V-A:ILE:369:CD1:3239, V-A:HIS:456:CE1:4070, V-B:GLU:543:CD:9880, V-A:ARG:545:CD:4923, V-A:LEU:475:CD2:4259, H-A:ARG:545:NH2:4928, V-A:ARG:545:CZ:4926, H-A:ARG:545:NE:4924, H-A:TYR:484:OH:4348"]

$$$$
ZINC160829817-again1
     RDKit          3D

 39 39  0  0  0  0  0  0  0  0999 V2000
  133.1940  124.6810   60.8650 C   0  0  0  0  0  0  0  0  0  0  0  0
  133.9780  123.8530   61.8960 C   0  0  0  0  0  0  0  0  0  0  0  0
  133.9580  122.3490   61.5810 C   0  0  0  0  0  0  0  0  0  0  0  0
  133.2640  124.1300   63.6370 S   0  0  0  0  0  0  0  0  0  0  0  0
  132.9870  122.8210   64.2380 O   0  0  0  0  0  0  0  0  0  0  0  0
  134.1400  125.0750   64.3370 O   0  0  0  0  0  0  0  0  0  0  0  0
  131.6090  125.0000   63.3420 C   0  0  0  0  0  0  0  0  0  0  0  0
  130.6840  124.7910   64.5510 C   0  0  0  0  0  0  0  0  0  0  0  0
  129.8530  126.0460   64.8720 C   0  0  0  0  0  0  0  0  0  0  0  0
  129.8760  126.3820   66.3850 N   0  0  2  0  0  0  0  0  0  0  0  0
  129.9440  125.1210   67.2760 C   0  0  0  0  0  0  0  0  0  0  0  0
  128.7000  127.2860   66.8290 C   0  0  0  0  0  0  0  0  0  0  0  0
  128.5310  127.2460   68.3350 C   0  0  0  0  0  0  0  0  0  0  0  0
  127.4610  126.9850   69.1780 C   0  0  0  0  0  0  0  0  0  0  0  0
  127.9350  127.1070   70.4850 C   0  0  0  0  0  0  0  0  0  0  0  0
  129.2730  127.4480   70.3860 C   0  0  0  0  0  0  0  0  0  0  0  0
  130.6060  127.7890   71.7010 Br  0  0  0  0  0  0  0  0  0  0  0  0
  129.6300  127.5370   69.0800 O   0  0  0  0  0  0  0  0  0  0  0  0
  132.5288  125.3836   61.3884 H   0  0  0  0  0  0  0  0  0  0  0  0
  133.8983  125.2435   60.2345 H   0  0  0  0  0  0  0  0  0  0  0  0
  132.5939  124.0084   60.2345 H   0  0  0  0  0  0  0  0  0  0  0  0
  135.0224  124.1953   61.8498 H   0  0  0  0  0  0  0  0  0  0  0  0
  133.9504  121.7776   62.5209 H   0  0  0  0  0  0  0  0  0  0  0  0
  133.0566  122.1084   60.9983 H   0  0  0  0  0  0  0  0  0  0  0  0
  134.8527  122.0845   60.9983 H   0  0  0  0  0  0  0  0  0  0  0  0
  131.7836  126.0765   63.1984 H   0  0  0  0  0  0  0  0  0  0  0  0
  131.1329  124.5770   62.4451 H   0  0  0  0  0  0  0  0  0  0  0  0
  129.9986  123.9587   64.3328 H   0  0  0  0  0  0  0  0  0  0  0  0
  131.3152  124.5717   65.4248 H   0  0  0  0  0  0  0  0  0  0  0  0
  130.2651  126.8984   64.3120 H   0  0  0  0  0  0  0  0  0  0  0  0
  128.8105  125.8483   64.5821 H   0  0  0  0  0  0  0  0  0  0  0  0
  130.7210  126.9080   66.5590 H   0  0  0  0  0  0  0  0  0  0  0  0
  129.9279  125.4189   68.3348 H   0  0  0  0  0  0  0  0  0  0  0  0
  129.0794  124.4750   67.0637 H   0  0  0  0  0  0  0  0  0  0  0  0
  130.8731  124.5717   67.0637 H   0  0  0  0  0  0  0  0  0  0  0  0
  128.9022  128.3209   66.5159 H   0  0  0  0  0  0  0  0  0  0  0  0
  127.7754  126.9185   66.3599 H   0  0  0  0  0  0  0  0  0  0  0  0
  126.4348  126.7305   68.8744 H   0  0  0  0  0  0  0  0  0  0  0  0
  127.3592  126.9610   71.4108 H   0  0  0  0  0  0  0  0  0  0  0  0
  1  2  1  0
  2  3  1  0
  2  4  1  0
  4  5  2  0
  4  6  2  0
  4  7  1  0
  7  8  1  0
  8  9  1  0
  9 10  1  0
 10 11  1  0
 10 12  1  0
 12 13  1  0
 13 14  2  0
 14 15  1  0
 15 16  2  0
 16 17  1  0
 16 18  1  0
 18 13  1  0
  1 19  1  0
  1 20  1  0
  1 21  1  0
  2 22  1  0
  3 23  1  0
  3 24  1  0
  3 25  1  0
  7 26  1  0
  7 27  1  0
  8 28  1  0
  8 29  1  0
  9 30  1  0
  9 31  1  0
 10 32  1  6
 11 33  1  0
 11 34  1  0
 11 35  1  0
 12 36  1  0
 12 37  1  0
 14 38  1  0
 15 39  1  0
M  CHG  1  10   1
M  END
>  <Binding energies>  (1) 
[-6.57]

>  <Ligand effiencies>  (1) 
[-0.34578947368421054]

>  <Interactions>  (1) 
["V-A:ILE:369:CG2:3237, V-A:GLY:454:CA:4049, V-B:GLU:543:C:9874, H-A:GLU:543:OE2:4910, V-B:GLU:543:CB:9878, H-A:ARG:545:NH1:4927, V-A:TYR:484:CE2:4346, V-B:GLU:543:CG:9879, V-A:GLY:544:C:4912, V-A:ASP:366:CG:3213, V-A:GLU:543:CD:4908, V-A:TYR:484:CZ:4347, V-B:GLU:543:CA:9876, H-A:GLY:454:N:4050, V-B:HIS:456:CE1:9041, V-A:ILE:369:CD1:3239, V-A:HIS:456:CE1:4070, V-B:GLU:543:CD:9880, H-A:ARG:545:NH2:4928, H-A:GLU:543:OE1:4909, H-A:ARG:545:NE:4924, H-A:TYR:484:OH:4348"]

$$$$
ZINC160964442
     RDKit          3D

 34 34  0  0  0  0  0  0  0  0999 V2000
  133.2950  124.7320   61.7010 C   0  0  0  0  0  0  0  0  0  0  0  0
  133.2810  124.2520   63.5250 S   0  0  0  0  0  0  0  0  0  0  0  0
  133.3730  122.7900   63.6010 O   0  0  0  0  0  0  0  0  0  0  0  0
  134.2730  125.0790   64.2200 O   0  0  0  0  0  0  0  0  0  0  0  0
  131.5570  124.7510   64.1290 C   0  0  0  0  0  0  0  0  0  0  0  0
  131.5850  125.1390   65.6170 C   0  0  0  0  0  0  0  0  0  0  0  0
  130.2240  124.9360   66.3080 C   0  0  0  0  0  0  0  0  0  0  0  0
  129.9910  125.8570   67.5180 C   0  0  0  0  0  0  0  0  0  0  0  0
  128.9140  127.2910   67.2160 S   0  0  0  0  0  0  0  0  0  0  0  0
  127.9600  127.3480   68.7630 C   0  0  0  0  0  0  0  0  0  0  0  0
  128.8640  127.4430   69.9850 C   0  0  0  0  0  0  0  0  0  0  0  0
  130.1380  128.0090   69.8610 C   0  0  0  0  0  0  0  0  0  0  0  0
  130.9780  128.1040   70.9700 C   0  0  0  0  0  0  0  0  0  0  0  0
  130.5490  127.6370   72.2120 C   0  0  0  0  0  0  0  0  0  0  0  0
  131.3640  127.7280   73.2880 F   0  0  0  0  0  0  0  0  0  0  0  0
  129.2810  127.0740   72.3450 C   0  0  0  0  0  0  0  0  0  0  0  0
  128.4380  126.9770   71.2370 C   0  0  0  0  0  0  0  0  0  0  0  0
  127.2110  126.4260   71.3840 F   0  0  0  0  0  0  0  0  0  0  0  0
  133.3270  125.8278   61.6105 H   0  0  0  0  0  0  0  0  0  0  0  0
  134.1809  124.2979   61.2144 H   0  0  0  0  0  0  0  0  0  0  0  0
  132.3853  124.3503   61.2144 H   0  0  0  0  0  0  0  0  0  0  0  0
  131.2042  125.6103   63.5398 H   0  0  0  0  0  0  0  0  0  0  0  0
  130.8798  123.8933   64.0032 H   0  0  0  0  0  0  0  0  0  0  0  0
  132.3358  124.5189   66.1286 H   0  0  0  0  0  0  0  0  0  0  0  0
  131.8329  126.2090   65.6775 H   0  0  0  0  0  0  0  0  0  0  0  0
  129.4303  125.1267   65.5707 H   0  0  0  0  0  0  0  0  0  0  0  0
  130.2116  123.9037   66.6877 H   0  0  0  0  0  0  0  0  0  0  0  0
  129.5371  125.2553   68.3192 H   0  0  0  0  0  0  0  0  0  0  0  0
  130.9771  126.2698   67.7771 H   0  0  0  0  0  0  0  0  0  0  0  0
  127.2987  128.2268   68.7408 H   0  0  0  0  0  0  0  0  0  0  0  0
  127.3798  126.4167   68.8400 H   0  0  0  0  0  0  0  0  0  0  0  0
  130.4785  128.3809   68.8834 H   0  0  0  0  0  0  0  0  0  0  0  0
  131.9792  128.5474   70.8651 H   0  0  0  0  0  0  0  0  0  0  0  0
  128.9440  126.7054   73.3251 H   0  0  0  0  0  0  0  0  0  0  0  0
  1  2  1  0
  2  3  2  0
  2  4  2  0
  2  5  1  0
  5  6  1  0
  6  7  1  0
  7  8  1  0
  8  9  1  0
  9 10  1  0
 10 11  1  0
 11 12  2  0
 12 13  1  0
 13 14  2  0
 14 15  1  0
 14 16  1  0
 16 17  2  0
 17 18  1  0
 17 11  1  0
  1 19  1  0
  1 20  1  0
  1 21  1  0
  5 22  1  0
  5 23  1  0
  6 24  1  0
  6 25  1  0
  7 26  1  0
  7 27  1  0
  8 28  1  0
  8 29  1  0
 10 30  1  0
 10 31  1  0
 12 32  1  0
 13 33  1  0
 16 34  1  0
M  END
>  <Binding energies>  (1) 
[-5.47]

>  <Ligand effiencies>  (1) 
[-0.3038888888888889]

>  <Interactions>  (1) 
["V-A:GLY:454:CA:4049, V-B:GLU:543:C:9874, V-A:GLU:543:C:4902, V-B:GLU:543:CB:9878, H-A:ARG:545:NH1:4927, V-A:TYR:484:CE2:4346, V-A:GLY:544:CA:4914, V-B:GLU:543:CG:9879, V-A:GLY:544:C:4912, V-A:HIS:456:CD2:4068, V-A:ASP:366:CG:3213, V-A:TYR:484:CZ:4347, V-B:HIS:456:CE1:9041, H-A:GLY:454:N:4050, V-A:HIS:456:CE1:4070, V-B:GLY:544:C:9884, V-B:GLY:544:CA:9886, H-A:ARG:545:NH2:4928, V-A:GLU:543:CB:4906, V-A:LYS:547:CE:4950, H-A:ARG:545:NE:4924, H-A:TYR:484:OH:4348"]

$$$$
ZINC161080047
     RDKit          3D

 50 50  0  0  0  0  0  0  0  0999 V2000
  130.1860  118.6360   61.6460 C   0  0  0  0  0  0  0  0  0  0  0  0
  131.0000  119.4540   60.6260 C   0  0  0  0  0  0  0  0  0  0  0  0
  131.4770  120.8430   61.1270 C   0  0  1  0  0  0  0  0  0  0  0  0
  132.8540  121.2160   60.5060 C   0  0  0  0  0  0  0  0  0  0  0  0
  133.7440  122.1870   61.3270 C   0  0  0  0  0  0  0  0  0  0  0  0
  133.9300  123.5780   60.6730 C   0  0  0  0  0  0  0  0  0  0  0  0
  133.4470  124.6150   61.6930 C   0  0  0  0  0  0  0  0  0  0  0  0
  133.5670  123.9150   63.0440 C   0  0  0  0  0  0  0  0  0  0  0  0
  133.1810  122.4690   62.7350 C   0  0  0  0  0  0  0  0  0  0  0  0
  130.4190  121.9420   60.8890 C   0  0  0  0  0  0  0  0  0  0  0  0
  130.7400  123.1310   60.9390 O   0  0  0  0  0  0  0  0  0  0  0  0
  129.1640  121.5240   60.6470 N   0  0  0  0  0  0  0  0  0  0  0  0
  127.9980  122.3890   60.4300 C   0  0  1  0  0  0  0  0  0  0  0  0
  127.7470  123.3490   61.6220 C   0  0  0  0  0  0  0  0  0  0  0  0
  126.4610  123.1930   62.1940 O   0  0  0  0  0  0  0  0  0  0  0  0
  128.1030  123.1460   59.0790 C   0  0  0  0  0  0  0  0  0  0  0  0
  127.0120  122.8270   58.0240 C   0  0  0  0  0  0  0  0  0  0  0  0
  127.5690  122.9630   56.5950 C   0  0  0  0  0  0  0  0  0  0  0  0
  125.7370  123.6780   58.1960 C   0  0  0  0  0  0  0  0  0  0  0  0
  130.4767  118.9281   62.6659 H   0  0  0  0  0  0  0  0  0  0  0  0
  129.1133  118.8314   61.5003 H   0  0  0  0  0  0  0  0  0  0  0  0
  130.3866  117.5643   61.5003 H   0  0  0  0  0  0  0  0  0  0  0  0
  131.8888  118.8675   60.3503 H   0  0  0  0  0  0  0  0  0  0  0  0
  130.3242  119.6488   59.7802 H   0  0  0  0  0  0  0  0  0  0  0  0
  131.6109  120.7729   62.2166 H   0  0  0  0  0  0  0  0  0  0  0  0
  133.4199  120.2836   60.3636 H   0  0  0  0  0  0  0  0  0  0  0  0
  132.6177  121.7538   59.5760 H   0  0  0  0  0  0  0  0  0  0  0  0
  134.7043  121.6523   61.3722 H   0  0  0  0  0  0  0  0  0  0  0  0
  134.9908  123.7460   60.4355 H   0  0  0  0  0  0  0  0  0  0  0  0
  133.3607  123.6523   59.7347 H   0  0  0  0  0  0  0  0  0  0  0  0
  134.0818  125.5129   61.6636 H   0  0  0  0  0  0  0  0  0  0  0  0
  132.4201  124.9524   61.4889 H   0  0  0  0  0  0  0  0  0  0  0  0
  134.5967  123.9735   63.4265 H   0  0  0  0  0  0  0  0  0  0  0  0
  132.9331  124.3703   63.8191 H   0  0  0  0  0  0  0  0  0  0  0  0
  133.6276  121.7855   63.4721 H   0  0  0  0  0  0  0  0  0  0  0  0
  132.0923  122.3180   62.7781 H   0  0  0  0  0  0  0  0  0  0  0  0
  128.9820  120.5310   60.6440 H   0  0  0  0  0  0  0  0  0  0  0  0
  127.1146  121.7361   60.3720 H   0  0  0  0  0  0  0  0  0  0  0  0
  128.5022  123.1512   62.3970 H   0  0  0  0  0  0  0  0  0  0  0  0
  127.8146  124.3774   61.2375 H   0  0  0  0  0  0  0  0  0  0  0  0
  126.2790  123.9560   62.7470 H   0  0  0  0  0  0  0  0  0  0  0  0
  128.0554  124.2236   59.2945 H   0  0  0  0  0  0  0  0  0  0  0  0
  129.0504  122.8130   58.6300 H   0  0  0  0  0  0  0  0  0  0  0  0
  126.7168  121.7809   58.1926 H   0  0  0  0  0  0  0  0  0  0  0  0
  128.6367  123.2237   56.6409 H   0  0  0  0  0  0  0  0  0  0  0  0
  127.4472  122.0087   56.0616 H   0  0  0  0  0  0  0  0  0  0  0  0
  127.0211  123.7537   56.0616 H   0  0  0  0  0  0  0  0  0  0  0  0
  125.5301  123.8161   59.2675 H   0  0  0  0  0  0  0  0  0  0  0  0
  125.8844  124.6594   57.7216 H   0  0  0  0  0  0  0  0  0  0  0  0
  124.8872  123.1654   57.7216 H   0  0  0  0  0  0  0  0  0  0  0  0
  1  2  1  0
  2  3  1  0
  3  4  1  0
  4  5  1  0
  5  6  1  0
  6  7  1  0
  7  8  1  0
  8  9  1  0
  3 10  1  0
 10 11  2  0
 10 12  1  0
 12 13  1  0
 13 14  1  0
 14 15  1  0
 13 16  1  0
 16 17  1  0
 17 18  1  0
 17 19  1  0
  9  5  1  0
  1 20  1  0
  1 21  1  0
  1 22  1  0
  2 23  1  0
  2 24  1  0
  3 25  1  1
  4 26  1  0
  4 27  1  0
  5 28  1  0
  6 29  1  0
  6 30  1  0
  7 31  1  0
  7 32  1  0
  8 33  1  0
  8 34  1  0
  9 35  1  0
  9 36  1  0
 12 37  1  0
 13 38  1  6
 14 39  1  0
 14 40  1  0
 15 41  1  0
 16 42  1  0
 16 43  1  0
 17 44  1  0
 18 45  1  0
 18 46  1  0
 18 47  1  0
 19 48  1  0
 19 49  1  0
 19 50  1  0
M  END
>  <Binding energies>  (1) 
[-6.74]

>  <Ligand effiencies>  (1) 
[-0.320952380952381]

>  <Interactions>  (1) 
["V-A:ILE:369:CG2:3237, V-B:PRO:540:CA:9855, V-A:GLY:454:CA:4049, V-A:ILE:369:CB:3236, V-B:ALA:541:CB:9864, V-B:TYR:539:CE2:9848, V-A:LEU:475:CG:4257, V-B:TYR:539:C:9839, V-A:ASP:366:CG:3213, V-B:TYR:539:CZ:9849, H-B:GLU:543:OE1:9881, H-B:ALA:541:N:9863, V-A:LEU:475:CD1:4258, V-B:PRO:540:CB:9857, V-B:PRO:540:N:9856, V-A:ILE:369:CD1:3239, V-A:PRO:482:CB:4326, V-B:TYR:539:CD2:9846, V-A:LEU:475:CD2:4259, V-B:TYR:539:CG:9844, V-B:TYR:539:CD1:9845, H-B:TYR:539:O:9840, V-B:PRO:540:C:9853, V-B:TYR:539:CE1:9847"]

$$$$
ZINC1611258
     RDKit          3D

 34 35  0  0  0  0  0  0  0  0999 V2000
  126.6360  131.8540   75.1730 C   0  0  0  0  0  0  0  0  0  0  0  0
  127.8860  131.3520   74.4610 C   0  0  0  0  0  0  0  0  0  0  0  0
  128.9240  132.1730   74.2070 C   0  0  0  0  0  0  0  0  0  0  0  0
  130.1300  131.7110   73.5160 C   0  0  0  0  0  0  0  0  0  0  0  0
  131.1270  132.3760   73.2430 O   0  0  0  0  0  0  0  0  0  0  0  0
  130.1480  130.3870   73.1190 O   0  0  0  0  0  0  0  0  0  0  0  0
  129.1150  129.4880   73.3950 C   0  0  0  0  0  0  0  0  0  0  0  0
  129.2560  128.1400   72.9790 C   0  0  0  0  0  0  0  0  0  0  0  0
  130.5240  127.7160   72.2640 C   0  0  0  0  0  0  0  0  0  0  0  0
  131.5250  127.3570   72.8900 O   0  0  0  0  0  0  0  0  0  0  0  0
  130.5680  127.9000   70.8120 C   0  0  0  0  0  0  0  0  0  0  0  0
  129.6300  127.4070   69.9750 C   0  0  0  0  0  0  0  0  0  0  0  0
  129.5510  127.5160   68.6000 N   0  0  0  0  0  0  0  0  0  0  0  0
  128.6610  128.5000   67.9960 C   0  0  0  0  0  0  0  0  0  0  0  0
  129.8630  126.4050   67.7050 C   0  0  0  0  0  0  0  0  0  0  0  0
  128.1710  127.2490   73.2130 C   0  0  0  0  0  0  0  0  0  0  0  0
  128.1740  126.0070   72.8950 O   0  0  0  0  0  0  0  0  0  0  0  0
  127.0170  127.7100   73.8570 C   0  0  0  0  0  0  0  0  0  0  0  0
  126.9060  129.0310   74.2710 C   0  0  0  0  0  0  0  0  0  0  0  0
  127.9480  129.9310   74.0450 C   0  0  0  0  0  0  0  0  0  0  0  0
  126.7849  131.7942   76.2612 H   0  0  0  0  0  0  0  0  0  0  0  0
  126.4450  132.8986   74.8859 H   0  0  0  0  0  0  0  0  0  0  0  0
  125.7756  131.2317   74.8859 H   0  0  0  0  0  0  0  0  0  0  0  0
  128.8637  133.2232   74.5287 H   0  0  0  0  0  0  0  0  0  0  0  0
  131.4063  128.4677   70.3819 H   0  0  0  0  0  0  0  0  0  0  0  0
  128.8173  126.8409   70.4536 H   0  0  0  0  0  0  0  0  0  0  0  0
  128.1489  129.0662   68.7880 H   0  0  0  0  0  0  0  0  0  0  0  0
  129.2474  129.1906   67.3721 H   0  0  0  0  0  0  0  0  0  0  0  0
  127.9152  127.9857   67.3721 H   0  0  0  0  0  0  0  0  0  0  0  0
  130.1132  125.5141   68.2998 H   0  0  0  0  0  0  0  0  0  0  0  0
  128.9907  126.1892   67.0705 H   0  0  0  0  0  0  0  0  0  0  0  0
  130.7201  126.6748   67.0705 H   0  0  0  0  0  0  0  0  0  0  0  0
  126.1842  127.0145   74.0382 H   0  0  0  0  0  0  0  0  0  0  0  0
  125.9915  129.3697   74.7799 H   0  0  0  0  0  0  0  0  0  0  0  0
  1  2  1  0
  2  3  2  0
  3  4  1  0
  4  5  2  0
  4  6  1  0
  6  7  1  0
  7  8  2  0
  8  9  1  0
  9 10  2  0
  9 11  1  0
 11 12  2  0
 12 13  1  0
 13 14  1  0
 13 15  1  0
  8 16  1  0
 16 17  1  0
 16 18  2  0
 18 19  1  0
 19 20  2  0
 20  2  1  0
 20  7  1  0
  1 21  1  0
  1 22  1  0
  1 23  1  0
  3 24  1  0
 11 25  1  0
 12 26  1  0
 14 27  1  0
 14 28  1  0
 14 29  1  0
 15 30  1  0
 15 31  1  0
 15 32  1  0
 18 33  1  0
 19 34  1  0
M  CHG  1  17  -1
M  END
>  <Binding energies>  (1) 
[-5.56]

>  <Ligand effiencies>  (1) 
[-0.27799999999999997]

>  <Interactions>  (1) 
["V-B:HIS:456:CD2:9039, V-A:GLU:543:C:4902, V-B:GLU:543:CB:9878, H-B:LYS:547:NZ:9923, V-B:HIS:456:CB:9036, V-A:GLY:544:CA:4914, V-A:GLY:544:C:4912, V-A:HIS:456:CD2:4068, V-B:LYS:547:CE:9922, V-A:GLU:543:CD:4908, V-B:HIS:456:CE1:9041, V-A:HIS:456:CE1:4070, V-A:GLU:543:CG:4907, V-B:HIS:456:CG:9037, H-A:LYS:547:NZ:4951, V-A:GLU:543:CB:4906, V-A:LYS:547:CE:4950, V-B:ASP:473:CB:9210, V-B:ASP:473:CG:9211, H-A:GLY:544:N:4915"]

$$$$
ZINC16115056
     RDKit          3D

 55 58  0  0  0  0  0  0  0  0999 V2000
  132.3190  123.3920   59.7520 O   0  0  0  0  0  0  0  0  0  0  0  0
  131.1500  123.3330   60.1510 C   0  0  0  0  0  0  0  0  0  0  0  0
  130.0730  124.1550   59.6080 C   0  0  0  0  0  0  0  0  0  0  0  0
  128.8150  123.7000   59.4530 C   0  0  0  0  0  0  0  0  0  0  0  0
  127.6670  124.5280   58.8830 C   0  0  2  0  0  0  0  0  0  0  0  0
  126.3870  123.6540   58.7430 C   0  0  0  0  0  0  0  0  0  0  0  0
  126.4220  122.7690   57.4990 C   0  0  0  0  0  0  0  0  0  0  0  0
  127.2940  122.9280   56.4840 C   0  0  0  0  0  0  0  0  0  0  0  0
  128.3350  124.0380   56.4210 C   0  0  0  0  0  0  0  0  0  0  0  0
  128.0540  125.1140   57.5010 C   0  0  0  0  0  0  0  0  0  0  0  0
  130.7000  122.5120   61.1420 O   0  0  0  0  0  0  0  0  0  0  0  0
  130.5200  123.0010   62.4180 C   0  0  0  0  0  0  0  0  0  0  0  0
  130.9490  124.2880   62.7570 C   0  0  0  0  0  0  0  0  0  0  0  0
  130.7370  124.7770   64.0420 C   0  0  0  0  0  0  0  0  0  0  0  0
  130.0790  123.9930   64.9960 C   0  0  0  0  0  0  0  0  0  0  0  0
  129.8270  124.4740   66.3720 C   0  0  0  0  0  0  0  0  0  0  0  0
  129.4330  125.7100   66.7610 C   0  0  0  0  0  0  0  0  0  0  0  0
  129.0180  127.1090   65.7740 S   0  0  0  0  0  0  0  0  0  0  0  0
  128.6650  128.0780   67.1750 C   0  0  0  0  0  0  0  0  0  0  0  0
  128.1850  129.6620   66.9580 S   0  0  0  0  0  0  0  0  0  0  0  0
  128.8530  127.3280   68.3070 N   0  0  0  0  0  0  0  0  0  0  0  0
  128.6080  127.9210   69.6570 C   0  0  2  0  0  0  0  0  0  0  0  0
  129.8970  128.0310   70.5240 C   0  0  0  0  0  0  0  0  0  0  0  0
  129.5350  128.0900   72.0120 C   0  0  0  0  0  0  0  0  0  0  0  0
  128.1720  126.8180   72.1570 S   0  0  0  0  0  0  0  0  0  0  0  0
  128.7630  125.4750   72.1410 O   0  0  0  0  0  0  0  0  0  0  0  0
  127.2200  127.1980   73.2060 O   0  0  0  0  0  0  0  0  0  0  0  0
  127.4760  127.2180   70.4600 C   0  0  0  0  0  0  0  0  0  0  0  0
  129.2640  126.0360   68.1610 C   0  0  0  0  0  0  0  0  0  0  0  0
  129.4650  125.2570   69.0970 O   0  0  0  0  0  0  0  0  0  0  0  0
  129.6470  122.7100   64.6500 C   0  0  0  0  0  0  0  0  0  0  0  0
  129.8600  122.2170   63.3650 C   0  0  0  0  0  0  0  0  0  0  0  0
  130.2985  125.1904   59.3128 H   0  0  0  0  0  0  0  0  0  0  0  0
  128.6012  122.6647   59.7569 H   0  0  0  0  0  0  0  0  0  0  0  0
  127.4622  125.3567   59.5767 H   0  0  0  0  0  0  0  0  0  0  0  0
  126.2985  123.0117   59.6316 H   0  0  0  0  0  0  0  0  0  0  0  0
  125.5257  124.3317   58.6494 H   0  0  0  0  0  0  0  0  0  0  0  0
  125.6900  121.9510   57.4270 H   0  0  0  0  0  0  0  0  0  0  0  0
  127.2514  122.2122   55.6498 H   0  0  0  0  0  0  0  0  0  0  0  0
  129.3328  123.6074   56.5912 H   0  0  0  0  0  0  0  0  0  0  0  0
  128.2879  124.5114   55.4292 H   0  0  0  0  0  0  0  0  0  0  0  0
  128.9599  125.7255   57.6251 H   0  0  0  0  0  0  0  0  0  0  0  0
  127.1933  125.7024   57.1504 H   0  0  0  0  0  0  0  0  0  0  0  0
  131.4545  124.9142   62.0071 H   0  0  0  0  0  0  0  0  0  0  0  0
  131.0883  125.7846   64.3093 H   0  0  0  0  0  0  0  0  0  0  0  0
  129.9778  123.7390   67.1764 H   0  0  0  0  0  0  0  0  0  0  0  0
  128.2618  128.9411   69.4345 H   0  0  0  0  0  0  0  0  0  0  0  0
  130.5337  127.1531   70.3402 H   0  0  0  0  0  0  0  0  0  0  0  0
  130.4344  128.9509   70.2502 H   0  0  0  0  0  0  0  0  0  0  0  0
  130.3967  127.8208   72.6405 H   0  0  0  0  0  0  0  0  0  0  0  0
  129.2323  129.0930   72.3473 H   0  0  0  0  0  0  0  0  0  0  0  0
  127.1698  126.2928   69.9498 H   0  0  0  0  0  0  0  0  0  0  0  0
  126.5919  127.8674   70.5419 H   0  0  0  0  0  0  0  0  0  0  0  0
  129.1355  122.0855   65.3972 H   0  0  0  0  0  0  0  0  0  0  0  0
  129.5081  121.2099   63.0967 H   0  0  0  0  0  0  0  0  0  0  0  0
  1  2  2  0
  2  3  1  0
  3  4  2  0
  4  5  1  0
  5  6  1  0
  6  7  1  0
  7  8  2  0
  8  9  1  0
  9 10  1  0
  2 11  1  0
 11 12  1  0
 12 13  2  0
 13 14  1  0
 14 15  2  0
 15 16  1  0
 16 17  2  0
 17 18  1  0
 18 19  1  0
 19 20  2  0
 19 21  1  0
 21 22  1  0
 22 23  1  0
 23 24  1  0
 24 25  1  0
 25 26  2  0
 25 27  2  0
 25 28  1  0
 21 29  1  0
 29 30  2  0
 15 31  1  0
 31 32  2  0
 10  5  1  0
 32 12  1  0
 29 17  1  0
 28 22  1  0
  3 33  1  0
  4 34  1  0
  5 35  1  1
  6 36  1  0
  6 37  1  0
  7 38  1  0
  8 39  1  0
  9 40  1  0
  9 41  1  0
 10 42  1  0
 10 43  1  0
 13 44  1  0
 14 45  1  0
 16 46  1  0
 22 47  1  6
 23 48  1  0
 23 49  1  0
 24 50  1  0
 24 51  1  0
 28 52  1  0
 28 53  1  0
 31 54  1  0
 32 55  1  0
M  END
>  <Binding energies>  (1) 
[-8.92]

>  <Ligand effiencies>  (1) 
[-0.27875]

>  <Interactions>  (1) 
["V-B:PRO:540:CA:9855, V-B:GLU:543:C:9874, V-B:HIS:456:CD2:9039, V-A:GLU:543:C:4902, V-B:GLU:543:CB:9878, H-B:LYS:547:NZ:9923, V-B:ALA:541:CB:9864, V-B:TYR:539:CE2:9848, V-A:TYR:484:CE2:4346, V-B:GLU:543:CG:9879, V-B:TYR:539:C:9839, V-B:TYR:484:CE2:9317, V-B:TYR:539:CZ:9849, V-A:TYR:484:CZ:4347, V-B:PRO:540:CB:9857, V-A:GLU:543:CD:4908, V-B:GLU:543:CA:9876, V-B:HIS:456:CE1:9041, V-B:PRO:540:N:9856, V-A:HIS:456:CE1:4070, V-B:TYR:484:CZ:9318, V-B:GLY:544:C:9884, V-B:TYR:539:CD2:9846, V-B:PRO:540:CD:9859, V-A:GLU:543:CG:4907, V-B:GLU:543:CD:9880, V-A:LEU:475:CD2:4259, V-A:GLU:543:CB:4906, V-B:TYR:539:CD1:9845, V-B:TYR:539:CE1:9847"]

$$$$
ZINC161287532
     RDKit          3D

 32 33  0  0  0  0  0  0  0  0999 V2000
  133.9510  123.9940   59.6030 C   0  0  0  0  0  0  0  0  0  0  0  0
  134.0210  123.8770   61.1370 C   0  0  0  0  0  0  0  0  0  0  0  0
  133.9690  122.3970   61.5700 C   0  0  0  0  0  0  0  0  0  0  0  0
  132.9300  124.7480   61.8090 C   0  0  0  0  0  0  0  0  0  0  0  0
  133.0920  124.8940   63.3120 C   0  0  0  0  0  0  0  0  0  0  0  0
  134.2630  124.7510   63.8960 N   0  0  0  0  0  0  0  0  0  0  0  0
  133.9700  124.9510   65.2430 O   0  0  0  0  0  0  0  0  0  0  0  0
  132.6370  125.1960   65.2740 C   0  0  0  0  0  0  0  0  0  0  0  0
  131.9840  125.4730   66.6090 C   0  0  0  0  0  0  0  0  0  0  0  0
  130.2360  124.9770   66.6720 S   0  0  0  0  0  0  0  0  0  0  0  0
  129.3700  126.5490   66.9840 C   0  0  0  0  0  0  0  0  0  0  0  0
  129.3960  126.9880   68.4350 C   0  0  0  0  0  0  0  0  0  0  0  0
  130.4110  127.6730   69.1010 C   0  0  0  0  0  0  0  0  0  0  0  0
  129.9500  127.9450   70.7540 S   0  0  0  0  0  0  0  0  0  0  0  0
  128.4630  127.1350   70.4010 C   0  0  0  0  0  0  0  0  0  0  0  0
  128.3340  126.7080   69.1710 N   0  0  0  0  0  0  0  0  0  0  0  0
  132.0690  125.1630   64.0990 N   0  0  0  0  0  0  0  0  0  0  0  0
  133.4040  124.9083   59.3296 H   0  0  0  0  0  0  0  0  0  0  0  0
  134.9703  124.0397   59.1919 H   0  0  0  0  0  0  0  0  0  0  0  0
  133.4288  123.1175   59.1919 H   0  0  0  0  0  0  0  0  0  0  0  0
  134.9867  124.2729   61.4843 H   0  0  0  0  0  0  0  0  0  0  0  0
  133.9669  122.3362   62.6683 H   0  0  0  0  0  0  0  0  0  0  0  0
  133.0539  121.9314   61.1752 H   0  0  0  0  0  0  0  0  0  0  0  0
  134.8491  121.8683   61.1752 H   0  0  0  0  0  0  0  0  0  0  0  0
  132.9630  125.7512   61.3589 H   0  0  0  0  0  0  0  0  0  0  0  0
  131.9695  124.2386   61.6414 H   0  0  0  0  0  0  0  0  0  0  0  0
  132.5318  124.9207   67.3868 H   0  0  0  0  0  0  0  0  0  0  0  0
  132.0198  126.5606   66.7695 H   0  0  0  0  0  0  0  0  0  0  0  0
  129.8459  127.3329   66.3765 H   0  0  0  0  0  0  0  0  0  0  0  0
  128.3146  126.3901   66.7176 H   0  0  0  0  0  0  0  0  0  0  0  0
  131.3610  127.9932   68.6482 H   0  0  0  0  0  0  0  0  0  0  0  0
  127.6793  126.9888   71.1589 H   0  0  0  0  0  0  0  0  0  0  0  0
  1  2  1  0
  2  3  1  0
  2  4  1  0
  4  5  1  0
  5  6  2  0
  6  7  1  0
  7  8  1  0
  8  9  1  0
  9 10  1  0
 10 11  1  0
 11 12  1  0
 12 13  2  0
 13 14  1  0
 14 15  1  0
 15 16  2  0
  8 17  2  0
 17  5  1  0
 16 12  1  0
  1 18  1  0
  1 19  1  0
  1 20  1  0
  2 21  1  0
  3 22  1  0
  3 23  1  0
  3 24  1  0
  4 25  1  0
  4 26  1  0
  9 27  1  0
  9 28  1  0
 11 29  1  0
 11 30  1  0
 13 31  1  0
 15 32  1  0
M  END
>  <Binding energies>  (1) 
[-5.92]

>  <Ligand effiencies>  (1) 
[-0.34823529411764703]

>  <Interactions>  (1) 
["V-A:ILE:369:CG2:3237, V-A:ASP:366:CA:3210, V-A:ILE:369:CB:3236, V-B:GLU:543:CB:9878, H-A:ARG:545:NH1:4927, V-B:GLU:543:CG:9879, V-A:ASP:366:CG:3213, V-A:TYR:484:CZ:4347, V-A:GLU:543:CD:4908, V-B:HIS:456:CE1:9041, H-A:GLY:454:N:4050, V-A:ILE:369:CD1:3239, V-A:HIS:456:CE1:4070, V-B:GLU:543:CD:9880, H-A:ARG:545:NH2:4928, V-A:ARG:545:CZ:4926, V-A:GLU:543:CB:4906, H-A:ARG:545:NE:4924, H-A:TYR:484:OH:4348"]

$$$$
ZINC161339144
     RDKit          3D

 29 31  0  0  0  0  0  0  0  0999 V2000
  132.1380  125.3970   59.0240 C   0  0  0  0  0  0  0  0  0  0  0  0
  132.1710  125.4950   60.4160 C   0  0  0  0  0  0  0  0  0  0  0  0
  133.1610  124.8000   61.1310 C   0  0  0  0  0  0  0  0  0  0  0  0
  133.2320  124.8790   62.6290 C   0  0  0  0  0  0  0  0  0  0  0  0
  134.3500  124.6540   63.2940 N   0  0  0  0  0  0  0  0  0  0  0  0
  133.9840  124.8370   64.6250 O   0  0  0  0  0  0  0  0  0  0  0  0
  132.6670  125.1470   64.5770 C   0  0  0  0  0  0  0  0  0  0  0  0
  131.9400  125.4190   65.8740 C   0  0  0  0  0  0  0  0  0  0  0  0
  130.1820  124.9580   65.8210 S   0  0  0  0  0  0  0  0  0  0  0  0
  129.3670  126.5350   66.2340 C   0  0  0  0  0  0  0  0  0  0  0  0
  129.4640  126.9510   67.6930 C   0  0  0  0  0  0  0  0  0  0  0  0
  130.5820  127.3580   68.4290 C   0  0  0  0  0  0  0  0  0  0  0  0
  130.1140  127.7200   70.0610 S   0  0  0  0  0  0  0  0  0  0  0  0
  128.4940  127.3130   69.6150 C   0  0  0  0  0  0  0  0  0  0  0  0
  128.3290  126.9410   68.3710 N   0  0  0  0  0  0  0  0  0  0  0  0
  132.1780  125.1780   63.3670 N   0  0  0  0  0  0  0  0  0  0  0  0
  134.0800  124.0300   60.4000 C   0  0  0  0  0  0  0  0  0  0  0  0
  133.9780  123.9830   59.0090 C   0  0  0  0  0  0  0  0  0  0  0  0
  133.0240  124.6530   58.3160 N   0  0  0  0  0  0  0  0  0  0  0  0
  131.3587  125.9477   58.4768 H   0  0  0  0  0  0  0  0  0  0  0  0
  131.4298  126.1098   60.9476 H   0  0  0  0  0  0  0  0  0  0  0  0
  132.4279  124.8446   66.6752 H   0  0  0  0  0  0  0  0  0  0  0  0
  131.9880  126.5031   66.0542 H   0  0  0  0  0  0  0  0  0  0  0  0
  129.8269  127.3259   65.6233 H   0  0  0  0  0  0  0  0  0  0  0  0
  128.2963  126.3882   66.0289 H   0  0  0  0  0  0  0  0  0  0  0  0
  131.6051  127.4369   68.0326 H   0  0  0  0  0  0  0  0  0  0  0  0
  127.6583  127.3633   70.3285 H   0  0  0  0  0  0  0  0  0  0  0  0
  134.8720  123.4697   60.9184 H   0  0  0  0  0  0  0  0  0  0  0  0
  134.7042  123.3751   58.4494 H   0  0  0  0  0  0  0  0  0  0  0  0
  1  2  2  0
  2  3  1  0
  3  4  1  0
  4  5  2  0
  5  6  1  0
  6  7  1  0
  7  8  1  0
  8  9  1  0
  9 10  1  0
 10 11  1  0
 11 12  2  0
 12 13  1  0
 13 14  1  0
 14 15  2  0
  7 16  2  0
  3 17  2  0
 17 18  1  0
 18 19  2  0
 19  1  1  0
 16  4  1  0
 15 11  1  0
  1 20  1  0
  2 21  1  0
  8 22  1  0
  8 23  1  0
 10 24  1  0
 10 25  1  0
 12 26  1  0
 14 27  1  0
 17 28  1  0
 18 29  1  0
M  END
>  <Binding energies>  (1) 
[-6.34]

>  <Ligand effiencies>  (1) 
[-0.3336842105263158]

>  <Interactions>  (1) 
["V-A:ILE:369:CG2:3237, V-A:ASP:366:CA:3210, V-A:ILE:369:CB:3236, V-B:GLU:543:CB:9878, H-A:ARG:545:NH1:4927, V-B:TYR:539:CE2:9848, V-B:GLU:543:CG:9879, V-A:ASP:366:CG:3213, H-B:TYR:539:OH:9850, V-A:GLU:543:CD:4908, V-B:HIS:456:CE1:9041, H-A:GLY:454:N:4050, V-A:ILE:369:CD1:3239, V-A:HIS:456:CE1:4070, V-B:GLU:543:CD:9880, V-A:ASP:366:CB:3212, H-A:ARG:545:NH2:4928, V-A:ARG:545:CZ:4926, V-A:GLU:543:CB:4906, H-A:ARG:545:NE:4924, H-A:TYR:484:OH:4348"]

$$$$
ZINC161433681
     RDKit          3D

 46 47  0  0  0  0  0  0  0  0999 V2000
  127.4900  129.3950   64.9190 C   0  0  0  0  0  0  0  0  0  0  0  0
  128.3470  128.1170   64.9010 C   0  0  0  0  0  0  0  0  0  0  0  0
  128.9690  127.7180   66.2660 C   0  0  1  0  0  0  0  0  0  0  0  0
  127.9940  127.9850   67.4460 C   0  0  0  0  0  0  0  0  0  0  0  0
  128.6160  127.6610   68.8150 C   0  0  0  0  0  0  0  0  0  0  0  0
  129.1280  126.2120   68.8630 C   0  0  0  0  0  0  0  0  0  0  0  0
  130.0820  125.9080   67.6940 C   0  0  0  0  0  0  0  0  0  0  0  0
  129.4640  126.2350   66.3110 C   0  0  2  0  0  0  0  0  0  0  0  0
  130.4020  125.8670   65.2520 N   0  0  0  0  0  0  0  0  0  0  0  0
  131.5530  125.1020   65.7310 C   0  0  0  0  0  0  0  0  0  0  0  0
  132.5470  124.7290   64.6370 C   0  0  0  0  0  0  0  0  0  0  0  0
  133.8460  124.9370   64.7200 N   0  0  0  0  0  0  0  0  0  0  0  0
  134.3250  124.4490   63.5080 O   0  0  0  0  0  0  0  0  0  0  0  0
  133.2280  123.9970   62.8500 C   0  0  0  0  0  0  0  0  0  0  0  0
  133.4190  123.3930   61.4560 C   0  0  0  0  0  0  0  0  0  0  0  0
  132.0700  123.2740   60.7070 C   0  0  0  0  0  0  0  0  0  0  0  0
  134.3670  124.2990   60.6380 C   0  0  0  0  0  0  0  0  0  0  0  0
  134.0410  121.9840   61.5860 C   0  0  0  0  0  0  0  0  0  0  0  0
  132.1200  124.1610   63.5270 N   0  0  0  0  0  0  0  0  0  0  0  0
  127.2926  129.6894   65.9603 H   0  0  0  0  0  0  0  0  0  0  0  0
  128.0284  130.2048   64.4048 H   0  0  0  0  0  0  0  0  0  0  0  0
  126.5365  129.2043   64.4048 H   0  0  0  0  0  0  0  0  0  0  0  0
  127.7115  127.2861   64.5609 H   0  0  0  0  0  0  0  0  0  0  0  0
  129.1931  128.3268   64.2301 H   0  0  0  0  0  0  0  0  0  0  0  0
  129.8529  128.3629   66.3793 H   0  0  0  0  0  0  0  0  0  0  0  0
  127.7073  129.0469   67.4322 H   0  0  0  0  0  0  0  0  0  0  0  0
  127.1229  127.3266   67.3127 H   0  0  0  0  0  0  0  0  0  0  0  0
  129.4575  128.3453   68.9980 H   0  0  0  0  0  0  0  0  0  0  0  0
  127.8423  127.7833   69.5873 H   0  0  0  0  0  0  0  0  0  0  0  0
  129.6634  126.0540   69.8108 H   0  0  0  0  0  0  0  0  0  0  0  0
  128.2618  125.5387   68.7836 H   0  0  0  0  0  0  0  0  0  0  0  0
  130.9952  126.5079   67.8211 H   0  0  0  0  0  0  0  0  0  0  0  0
  130.2951  124.8290   67.7137 H   0  0  0  0  0  0  0  0  0  0  0  0
  128.5618  125.6301   66.1375 H   0  0  0  0  0  0  0  0  0  0  0  0
  130.7200  126.7040   64.7830 H   0  0  0  0  0  0  0  0  0  0  0  0
  132.0792  125.7047   66.4859 H   0  0  0  0  0  0  0  0  0  0  0  0
  131.1611  124.1593   66.1404 H   0  0  0  0  0  0  0  0  0  0  0  0
  131.2504  123.2017   61.4371 H   0  0  0  0  0  0  0  0  0  0  0  0
  131.9215  124.1625   60.0758 H   0  0  0  0  0  0  0  0  0  0  0  0
  132.0793  122.3732   60.0758 H   0  0  0  0  0  0  0  0  0  0  0  0
  134.9887  124.8932   61.3239 H   0  0  0  0  0  0  0  0  0  0  0  0
  135.0140  123.6750   60.0040 H   0  0  0  0  0  0  0  0  0  0  0  0
  133.7730  124.9736   60.0040 H   0  0  0  0  0  0  0  0  0  0  0  0
  134.1533  121.7296   62.6503 H   0  0  0  0  0  0  0  0  0  0  0  0
  133.3845  121.2471   61.1001 H   0  0  0  0  0  0  0  0  0  0  0  0
  135.0278  121.9726   61.1001 H   0  0  0  0  0  0  0  0  0  0  0  0
  1  2  1  0
  2  3  1  0
  3  4  1  0
  4  5  1  0
  5  6  1  0
  6  7  1  0
  7  8  1  0
  8  9  1  0
  9 10  1  0
 10 11  1  0
 11 12  2  0
 12 13  1  0
 13 14  1  0
 14 15  1  0
 15 16  1  0
 15 17  1  0
 15 18  1  0
 14 19  2  0
  8  3  1  0
 19 11  1  0
  1 20  1  0
  1 21  1  0
  1 22  1  0
  2 23  1  0
  2 24  1  0
  3 25  1  1
  4 26  1  0
  4 27  1  0
  5 28  1  0
  5 29  1  0
  6 30  1  0
  6 31  1  0
  7 32  1  0
  7 33  1  0
  8 34  1  6
  9 35  1  0
 10 36  1  0
 10 37  1  0
 16 38  1  0
 16 39  1  0
 16 40  1  0
 17 41  1  0
 17 42  1  0
 17 43  1  0
 18 44  1  0
 18 45  1  0
 18 46  1  0
M  END
>  <Binding energies>  (1) 
[-6.7]

>  <Ligand effiencies>  (1) 
[-0.335]

>  <Interactions>  (1) 
["V-A:ILE:369:CG2:3237, V-A:ASP:366:CA:3210, V-B:GLU:543:C:9874, H-A:GLU:543:OE2:4910, V-A:ILE:369:CB:3236, V-B:GLU:543:CB:9878, H-A:ARG:545:NH1:4927, V-B:TYR:539:CE2:9848, V-B:GLU:543:CG:9879, V-A:ASP:366:CG:3213, V-A:GLU:543:CD:4908, V-A:TYR:484:CZ:4347, V-B:HIS:456:CE1:9041, H-A:GLY:454:N:4050, V-B:GLU:543:CA:9876, V-A:HIS:456:CE1:4070, V-A:ILE:369:CD1:3239, V-A:GLU:543:CG:4907, V-B:GLU:543:CD:9880, V-A:ASP:366:CB:3212, V-A:LEU:475:CD2:4259, H-A:ARG:545:NH2:4928, V-A:ARG:545:CZ:4926, H-A:GLU:543:OE1:4909, V-A:GLU:543:CB:4906, H-A:ARG:545:NE:4924, H-A:TYR:484:OH:4348"]

$$$$
ZINC161468044
     RDKit          3D

 40 42  0  0  0  0  0  0  0  0999 V2000
  130.9770  118.4310   60.5080 C   0  0  0  0  0  0  0  0  0  0  0  0
  131.0770  119.9600   60.5750 C   0  0  1  0  0  0  0  0  0  0  0  0
  129.8630  120.5860   61.2970 C   0  0  0  0  0  0  0  0  0  0  0  0
  130.0170  122.0440   61.4110 N   0  0  0  0  0  0  0  0  0  0  0  0
  128.8800  122.6740   62.0930 C   0  0  0  0  0  0  0  0  0  0  0  0
  127.7790  123.0960   61.1350 C   0  0  0  0  0  0  0  0  0  0  0  0
  126.5170  123.5840   61.4530 C   0  0  0  0  0  0  0  0  0  0  0  0
  125.6460  123.9270   59.9920 S   0  0  0  0  0  0  0  0  0  0  0  0
  127.0260  123.3900   59.0860 C   0  0  0  0  0  0  0  0  0  0  0  0
  127.0660  123.3880   57.5660 C   0  0  0  0  0  0  0  0  0  0  0  0
  127.3440  122.1060   56.8120 C   0  0  0  0  0  0  0  0  0  0  0  0
  125.9640  122.7250   56.7680 C   0  0  0  0  0  0  0  0  0  0  0  0
  128.0260  122.9940   59.8410 N   0  0  0  0  0  0  0  0  0  0  0  0
  131.2760  122.3670   62.0980 C   0  0  0  0  0  0  0  0  0  0  0  0
  132.5200  121.7260   61.4150 C   0  0  0  0  0  0  0  0  0  0  0  0
  132.7880  122.3870   60.0390 C   0  0  0  0  0  0  0  0  0  0  0  0
  133.7290  121.8480   62.3590 C   0  0  0  0  0  0  0  0  0  0  0  0
  132.2730  120.3210   61.2670 O   0  0  0  0  0  0  0  0  0  0  0  0
  130.9501  118.0203   61.5281 H   0  0  0  0  0  0  0  0  0  0  0  0
  130.0583  118.1467   59.9739 H   0  0  0  0  0  0  0  0  0  0  0  0
  131.8508  118.0295   59.9739 H   0  0  0  0  0  0  0  0  0  0  0  0
  131.0923  120.3446   59.5445 H   0  0  0  0  0  0  0  0  0  0  0  0
  128.9497  120.3636   60.7256 H   0  0  0  0  0  0  0  0  0  0  0  0
  129.7960  120.1588   62.3084 H   0  0  0  0  0  0  0  0  0  0  0  0
  128.4620  121.9570   62.8149 H   0  0  0  0  0  0  0  0  0  0  0  0
  129.2532  123.5820   62.5892 H   0  0  0  0  0  0  0  0  0  0  0  0
  126.1305  123.7301   62.4724 H   0  0  0  0  0  0  0  0  0  0  0  0
  127.5127  124.3930   57.5863 H   0  0  0  0  0  0  0  0  0  0  0  0
  127.9828  122.1221   55.9166 H   0  0  0  0  0  0  0  0  0  0  0  0
  127.7447  121.1173   57.0802 H   0  0  0  0  0  0  0  0  0  0  0  0
  125.5996  123.1912   55.8407 H   0  0  0  0  0  0  0  0  0  0  0  0
  124.9460  122.3729   56.9910 H   0  0  0  0  0  0  0  0  0  0  0  0
  131.4026  123.4597   62.1036 H   0  0  0  0  0  0  0  0  0  0  0  0
  131.2109  121.9575   63.1169 H   0  0  0  0  0  0  0  0  0  0  0  0
  133.1974  123.3967   60.1907 H   0  0  0  0  0  0  0  0  0  0  0  0
  133.5108  121.7793   59.4748 H   0  0  0  0  0  0  0  0  0  0  0  0
  131.8461  122.4542   59.4748 H   0  0  0  0  0  0  0  0  0  0  0  0
  133.3841  121.8132   63.4029 H   0  0  0  0  0  0  0  0  0  0  0  0
  134.4238  121.0154   62.1745 H   0  0  0  0  0  0  0  0  0  0  0  0
  134.2434  122.8026   62.1745 H   0  0  0  0  0  0  0  0  0  0  0  0
  1  2  1  0
  2  3  1  0
  3  4  1  0
  4  5  1  0
  5  6  1  0
  6  7  2  0
  7  8  1  0
  8  9  1  0
  9 10  1  0
 10 11  1  0
 11 12  1  0
  9 13  2  0
  4 14  1  0
 14 15  1  0
 15 16  1  0
 15 17  1  0
 15 18  1  0
 18  2  1  0
 13  6  1  0
 12 10  1  0
  1 19  1  0
  1 20  1  0
  1 21  1  0
  2 22  1  6
  3 23  1  0
  3 24  1  0
  5 25  1  0
  5 26  1  0
  7 27  1  0
 10 28  1  0
 11 29  1  0
 11 30  1  0
 12 31  1  0
 12 32  1  0
 14 33  1  0
 14 34  1  0
 16 35  1  0
 16 36  1  0
 16 37  1  0
 17 38  1  0
 17 39  1  0
 17 40  1  0
M  END
>  <Binding energies>  (1) 
[-5.81]

>  <Ligand effiencies>  (1) 
[-0.3227777777777778]

>  <Interactions>  (1) 
["V-A:ILE:369:CG2:3237, V-B:TYR:539:CA:9841, V-B:PRO:540:CA:9855, V-A:GLY:454:CA:4049, V-B:ALA:541:CB:9864, V-B:TYR:539:CE2:9848, V-B:TYR:539:C:9839, V-B:TYR:539:CZ:9849, V-B:PRO:540:CB:9857, V-A:HIS:383:NE2:3394, V-B:PRO:540:N:9856, V-B:TYR:539:CD2:9846, V-B:PRO:540:CD:9859, H-A:SER:385:OG:3410, V-B:GLU:543:CD:9880, V-A:LEU:475:CD2:4259, V-B:TYR:539:CG:9844, V-B:TYR:539:CD1:9845, V-B:MET:535:CE:9807, V-B:TYR:539:CE1:9847"]

$$$$
ZINC1615243590
     RDKit          3D

 57 60  0  0  0  0  0  0  0  0999 V2000
  132.1170  131.7600   57.7850 C   0  0  0  0  0  0  0  0  0  0  0  0
  131.4970  132.5410   58.7990 O   0  0  0  0  0  0  0  0  0  0  0  0
  130.2900  132.1290   59.3360 C   0  0  0  0  0  0  0  0  0  0  0  0
  129.0370  132.4030   58.7510 C   0  0  0  0  0  0  0  0  0  0  0  0
  127.8390  131.9590   59.3410 C   0  0  0  0  0  0  0  0  0  0  0  0
  126.5740  132.1860   58.8330 O   0  0  0  0  0  0  0  0  0  0  0  0
  125.9180  131.1470   58.1170 C   0  0  0  0  0  0  0  0  0  0  0  0
  127.9160  131.2340   60.5340 C   0  0  0  0  0  0  0  0  0  0  0  0
  129.1430  130.9660   61.1090 C   0  0  0  0  0  0  0  0  0  0  0  0
  130.3350  131.3990   60.5320 C   0  0  0  0  0  0  0  0  0  0  0  0
  131.8460  131.0310   61.2920 Cl  0  0  0  0  0  0  0  0  0  0  0  0
  129.0700  130.2410   62.2710 O   0  0  0  0  0  0  0  0  0  0  0  0
  127.6900  130.0000   62.5520 C   0  0  2  0  0  0  0  0  0  0  0  0
  127.4560  130.7360   63.9040 C   0  0  0  0  0  0  0  0  0  0  0  0
  127.1230  131.9190   63.9900 O   0  0  0  0  0  0  0  0  0  0  0  0
  127.6230  129.9430   65.1160 C   0  0  0  0  0  0  0  0  0  0  0  0
  127.9890  128.6450   65.1350 C   0  0  0  0  0  0  0  0  0  0  0  0
  128.0540  127.9630   66.3340 N   0  0  0  0  0  0  0  0  0  0  0  0
  129.1320  127.1200   66.8310 C   0  0  0  0  0  0  0  0  0  0  0  0
  129.3600  127.3830   68.3090 C   0  0  0  0  0  0  0  0  0  0  0  0
  128.2880  127.3010   69.2010 C   0  0  0  0  0  0  0  0  0  0  0  0
  128.4910  127.5460   70.5560 C   0  0  0  0  0  0  0  0  0  0  0  0
  129.7660  127.8770   71.0170 C   0  0  0  0  0  0  0  0  0  0  0  0
  130.0040  128.1850   72.7640 S   0  0  0  0  0  0  0  0  0  0  0  0
  130.2470  129.9180   72.8810 N   0  0  0  0  0  0  0  0  0  0  0  0
  128.7330  127.8720   73.4260 O   0  0  0  0  0  0  0  0  0  0  0  0
  131.2520  127.5320   73.1740 O   0  0  0  0  0  0  0  0  0  0  0  0
  130.8400  127.9600   70.1280 C   0  0  0  0  0  0  0  0  0  0  0  0
  130.6360  127.7140   68.7730 C   0  0  0  0  0  0  0  0  0  0  0  0
  128.1930  127.8230   63.8550 C   0  0  0  0  0  0  0  0  0  0  0  0
  127.4570  128.4530   62.6410 C   0  0  2  0  0  0  0  0  0  0  0  0
  127.7610  127.6190   61.3750 C   0  0  0  0  0  0  0  0  0  0  0  0
  126.8910  130.6390   61.3970 C   0  0  0  0  0  0  0  0  0  0  0  0
  125.6700  130.6380   61.2400 O   0  0  0  0  0  0  0  0  0  0  0  0
  132.7366  130.9795   58.2507 H   0  0  0  0  0  0  0  0  0  0  0  0
  131.3435  131.2898   57.1600 H   0  0  0  0  0  0  0  0  0  0  0  0
  132.7504  132.4066   57.1600 H   0  0  0  0  0  0  0  0  0  0  0  0
  128.9948  132.9762   57.8131 H   0  0  0  0  0  0  0  0  0  0  0  0
  125.4701  130.4376   58.8285 H   0  0  0  0  0  0  0  0  0  0  0  0
  125.1288  131.5794   57.4844 H   0  0  0  0  0  0  0  0  0  0  0  0
  126.6477  130.6204   57.4844 H   0  0  0  0  0  0  0  0  0  0  0  0
  127.4378  130.4372   66.0811 H   0  0  0  0  0  0  0  0  0  0  0  0
  127.1750  127.7430   66.7790 H   0  0  0  0  0  0  0  0  0  0  0  0
  128.8636  126.0631   66.6866 H   0  0  0  0  0  0  0  0  0  0  0  0
  130.0542  127.3506   66.2775 H   0  0  0  0  0  0  0  0  0  0  0  0
  127.2841  127.0430   68.8327 H   0  0  0  0  0  0  0  0  0  0  0  0
  127.6494  127.4790   71.2611 H   0  0  0  0  0  0  0  0  0  0  0  0
  129.4710  130.4810   72.5240 H   0  0  0  0  0  0  0  0  0  0  0  0
  131.1640  130.2410   72.5620 H   0  0  0  0  0  0  0  0  0  0  0  0
  131.8434  128.2188   70.4971 H   0  0  0  0  0  0  0  0  0  0  0  0
  131.4782  127.7801   68.0684 H   0  0  0  0  0  0  0  0  0  0  0  0
  129.2690  127.7726   63.6320 H   0  0  0  0  0  0  0  0  0  0  0  0
  127.7765  126.8189   64.0236 H   0  0  0  0  0  0  0  0  0  0  0  0
  126.3656  128.3967   62.7662 H   0  0  0  0  0  0  0  0  0  0  0  0
  128.1239  126.6234   61.6702 H   0  0  0  0  0  0  0  0  0  0  0  0
  126.8439  127.5125   60.7771 H   0  0  0  0  0  0  0  0  0  0  0  0
  128.5315  128.1277   60.7771 H   0  0  0  0  0  0  0  0  0  0  0  0
  1  2  1  0
  2  3  1  0
  3  4  2  0
  4  5  1  0
  5  6  1  0
  6  7  1  0
  5  8  2  0
  8  9  1  0
  9 10  2  0
 10 11  1  0
  9 12  1  0
 13 12  1  6
 13 14  1  0
 14 15  2  0
 14 16  1  0
 16 17  2  0
 17 18  1  0
 18 19  1  0
 19 20  1  0
 20 21  2  0
 21 22  1  0
 22 23  2  0
 23 24  1  0
 24 25  1  0
 24 26  2  0
 24 27  2  0
 23 28  1  0
 28 29  2  0
 17 30  1  0
 30 31  1  0
 31 32  1  0
 13 33  1  0
 33 34  2  0
 10  3  1  0
 31 13  1  0
 33  8  1  0
 29 20  1  0
  1 35  1  0
  1 36  1  0
  1 37  1  0
  4 38  1  0
  7 39  1  0
  7 40  1  0
  7 41  1  0
 16 42  1  0
 18 43  1  0
 19 44  1  0
 19 45  1  0
 21 46  1  0
 22 47  1  0
 25 48  1  0
 25 49  1  0
 28 50  1  0
 29 51  1  0
 30 52  1  0
 30 53  1  0
 31 54  1  1
 32 55  1  0
 32 56  1  0
 32 57  1  0
M  END
>  <Binding energies>  (1) 
[-8.21]

>  <Ligand effiencies>  (1) 
[-0.2218918918918919]

>  <Interactions>  (1) 
["V-B:HIS:456:CD2:9039, V-A:GLU:543:C:4902, V-B:GLU:543:CB:9878, H-B:LYS:547:NZ:9923, V-B:GLU:543:CG:9879, V-A:GLY:544:C:4912, V-A:LEU:363:CD1:3189, V-A:TYR:539:CZ:4877, V-A:GLU:543:CD:4908, H-B:TYR:484:OH:9319, V-B:HIS:456:CE1:9041, V-B:TYR:484:CZ:9318, H-A:GLY:544:O:4913, V-A:HIS:456:CE1:4070, H-B:HIS:456:NE2:9042, V-A:GLU:543:CG:4907, V-B:GLU:543:CD:9880, H-A:LYS:547:NZ:4951, V-A:GLU:543:CB:4906, V-A:PRO:540:N:4884, H-B:GLU:543:OE2:9882, V-A:PRO:540:CB:4885, V-A:PRO:540:CA:4883, V-A:TYR:539:CE1:4875, H-A:GLU:543:O:4903"]

$$$$
ZINC1615243590-again2
     RDKit          3D

 56 59  0  0  0  0  0  0  0  0999 V2000
  133.9010  122.1680   62.1240 C   0  0  0  0  0  0  0  0  0  0  0  0
  133.5460  122.3770   60.7620 O   0  0  0  0  0  0  0  0  0  0  0  0
  132.2760  122.8260   60.4500 C   0  0  0  0  0  0  0  0  0  0  0  0
  131.0970  122.1030   60.7300 C   0  0  0  0  0  0  0  0  0  0  0  0
  129.8290  122.6100   60.3900 C   0  0  0  0  0  0  0  0  0  0  0  0
  128.6280  121.9680   60.6310 O   0  0  0  0  0  0  0  0  0  0  0  0
  127.7690  122.4680   61.6490 C   0  0  0  0  0  0  0  0  0  0  0  0
  129.7590  123.8560   59.7600 C   0  0  0  0  0  0  0  0  0  0  0  0
  130.9130  124.5640   59.4830 C   0  0  0  0  0  0  0  0  0  0  0  0
  132.1730  124.0730   59.8170 C   0  0  0  0  0  0  0  0  0  0  0  0
  133.5860  125.0030   59.4530 Cl  0  0  0  0  0  0  0  0  0  0  0  0
  130.6960  125.7720   58.8750 O   0  0  0  0  0  0  0  0  0  0  0  0
  129.2890  125.9210   58.6840 C   0  0  2  0  0  0  0  0  0  0  0  0
  128.6320  124.6610   59.2830 C   0  0  0  0  0  0  0  0  0  0  0  0
  127.4300  124.4040   59.3560 O   0  0  0  0  0  0  0  0  0  0  0  0
  129.0520  126.0560   57.1690 C   0  0  0  0  0  0  0  0  0  0  0  0
  128.9960  124.9220   56.4140 O   0  0  0  0  0  0  0  0  0  0  0  0
  129.0000  127.2690   56.5880 C   0  0  0  0  0  0  0  0  0  0  0  0
  129.1080  128.5730   57.2880 C   0  0  0  0  0  0  0  0  0  0  0  0
  129.2700  129.8870   56.7840 N   0  0  0  0  0  0  0  0  0  0  0  0
  130.6170  130.3950   56.6530 C   0  0  0  0  0  0  0  0  0  0  0  0
  131.2040  130.7440   58.0260 C   0  0  0  0  0  0  0  0  0  0  0  0
  130.3590  130.9950   59.1190 C   0  0  0  0  0  0  0  0  0  0  0  0
  130.8970  131.3070   60.3640 C   0  0  0  0  0  0  0  0  0  0  0  0
  132.2820  131.3710   60.5280 C   0  0  0  0  0  0  0  0  0  0  0  0
  132.9950  131.7700   62.1210 S   0  0  0  0  0  0  0  0  0  0  0  0
  131.6200  132.1770   63.1280 N   0  0  0  0  0  0  0  0  0  0  0  0
  133.5780  130.5320   62.6490 O   0  0  0  0  0  0  0  0  0  0  0  0
  133.8070  132.9830   61.9650 O   0  0  0  0  0  0  0  0  0  0  0  0
  133.1300  131.1250   59.4490 C   0  0  0  0  0  0  0  0  0  0  0  0
  132.5960  130.8110   58.2020 C   0  0  0  0  0  0  0  0  0  0  0  0
  129.0250  128.4870   58.6390 C   0  0  0  0  0  0  0  0  0  0  0  0
  128.8230  127.2070   59.4590 C   0  0  2  0  0  0  0  0  0  0  0  0
  129.3730  127.4170   60.8870 C   0  0  0  0  0  0  0  0  0  0  0  0
  133.1370  122.6178   62.7752 H   0  0  0  0  0  0  0  0  0  0  0  0
  133.9645  121.0884   62.3248 H   0  0  0  0  0  0  0  0  0  0  0  0
  134.8759  122.6363   62.3248 H   0  0  0  0  0  0  0  0  0  0  0  0
  131.1706  121.1230   61.2242 H   0  0  0  0  0  0  0  0  0  0  0  0
  128.1889  122.2236   62.6359 H   0  0  0  0  0  0  0  0  0  0  0  0
  127.6788  123.5597   61.5491 H   0  0  0  0  0  0  0  0  0  0  0  0
  126.7751  122.0073   61.5491 H   0  0  0  0  0  0  0  0  0  0  0  0
  129.7880  124.4000   56.5630 H   0  0  0  0  0  0  0  0  0  0  0  0
  128.8654  127.2961   55.4966 H   0  0  0  0  0  0  0  0  0  0  0  0
  131.2463  129.6292   56.1760 H   0  0  0  0  0  0  0  0  0  0  0  0
  130.5913  131.3071   56.0387 H   0  0  0  0  0  0  0  0  0  0  0  0
  129.2677  130.9448   58.9907 H   0  0  0  0  0  0  0  0  0  0  0  0
  130.2318  131.5030   61.2179 H   0  0  0  0  0  0  0  0  0  0  0  0
  131.0110  131.3840   63.3490 H   0  0  0  0  0  0  0  0  0  0  0  0
  131.8480  132.7500   63.9450 H   0  0  0  0  0  0  0  0  0  0  0  0
  134.2205  131.1790   59.5828 H   0  0  0  0  0  0  0  0  0  0  0  0
  133.2662  130.6148   57.3521 H   0  0  0  0  0  0  0  0  0  0  0  0
  129.1111  129.4281   59.2020 H   0  0  0  0  0  0  0  0  0  0  0  0
  127.7522  126.9986   59.5999 H   0  0  0  0  0  0  0  0  0  0  0  0
  128.6078  127.1248   61.6213 H   0  0  0  0  0  0  0  0  0  0  0  0
  130.2718  126.7988   61.0283 H   0  0  0  0  0  0  0  0  0  0  0  0
  129.6311  128.4769   61.0283 H   0  0  0  0  0  0  0  0  0  0  0  0
  1  2  1  0
  2  3  1  0
  3  4  2  0
  4  5  1  0
  5  6  1  0
  6  7  1  0
  5  8  2  0
  8  9  1  0
  9 10  2  0
 10 11  1  0
  9 12  1  0
 13 12  1  6
 13 14  1  0
 14 15  2  0
 13 16  1  0
 16 17  1  0
 16 18  2  0
 18 19  1  0
 19 20  1  0
 20 21  1  0
 21 22  1  0
 22 23  2  0
 23 24  1  0
 24 25  2  0
 25 26  1  0
 26 27  1  0
 26 28  2  0
 26 29  2  0
 25 30  1  0
 30 31  2  0
 19 32  2  0
 32 33  1  0
 33 34  1  0
 10  3  1  0
 33 13  1  0
 14  8  1  0
 31 22  1  0
  1 35  1  0
  1 36  1  0
  1 37  1  0
  4 38  1  0
  7 39  1  0
  7 40  1  0
  7 41  1  0
 17 42  1  0
 18 43  1  0
 21 44  1  0
 21 45  1  0
 23 46  1  0
 24 47  1  0
 27 48  1  0
 27 49  1  0
 30 50  1  0
 31 51  1  0
 32 52  1  0
 33 53  1  1
 34 54  1  0
 34 55  1  0
 34 56  1  0
M  CHG  1  20  -1
M  END
>  <Binding energies>  (1) 
[-6.42]

>  <Ligand effiencies>  (1) 
[-0.17351351351351352]

>  <Interactions>  (1) 
["V-A:ASP:366:CA:3210, V-B:PRO:540:CA:9855, V-A:GLY:454:CA:4049, H-A:ALA:541:N:4891, H-A:ALA:541:O:4889, V-B:ALA:541:CB:9864, H-A:TYR:531:OH:4795, V-B:TYR:539:CE2:9848, V-A:ASP:366:CG:3213, V-A:ASN:362:CB:3176, V-A:LEU:363:CD1:3189, V-B:TYR:539:CZ:9849, H-B:TYR:539:OH:9850, H-B:ALA:541:N:9863, V-A:ILE:369:CD1:3239, V-B:TYR:539:CD2:9846, V-A:TYR:531:CZ:4794, V-A:MET:535:CE:4835, V-A:ASP:366:CB:3212, V-A:LEU:475:CD2:4259, H-A:ARG:545:NH2:4928, H-A:GLU:543:OE1:4909, V-A:LEU:363:CA:3185, V-A:PRO:540:CA:4883, V-A:PRO:540:CB:4885, V-B:PRO:540:C:9853, V-B:ALA:541:CA:9862"]

$$$$
ZINC1615244375
     RDKit          3D

 64 67  0  0  0  0  0  0  0  0999 V2000
  132.4690  131.2030   57.2140 C   0  0  0  0  0  0  0  0  0  0  0  0
  131.8910  132.2440   57.9920 O   0  0  0  0  0  0  0  0  0  0  0  0
  130.6660  132.0410   58.6040 C   0  0  0  0  0  0  0  0  0  0  0  0
  129.4260  132.2360   57.9600 C   0  0  0  0  0  0  0  0  0  0  0  0
  128.2100  132.0170   58.6330 C   0  0  0  0  0  0  0  0  0  0  0  0
  126.9550  132.1860   58.0780 O   0  0  0  0  0  0  0  0  0  0  0  0
  126.3000  131.0660   57.4950 C   0  0  0  0  0  0  0  0  0  0  0  0
  128.2540  131.5980   59.9660 C   0  0  0  0  0  0  0  0  0  0  0  0
  129.4690  131.4040   60.5970 C   0  0  0  0  0  0  0  0  0  0  0  0
  130.6790  131.6200   59.9410 C   0  0  0  0  0  0  0  0  0  0  0  0
  132.1710  131.3680   60.7800 Cl  0  0  0  0  0  0  0  0  0  0  0  0
  129.3630  131.0010   61.9020 O   0  0  0  0  0  0  0  0  0  0  0  0
  127.9740  130.8870   62.2150 C   0  0  1  0  0  0  0  0  0  0  0  0
  127.8000  129.3780   62.5580 C   0  0  0  0  0  0  0  0  0  0  0  0
  127.6030  128.5040   61.7120 O   0  0  0  0  0  0  0  0  0  0  0  0
  127.8210  129.0230   63.9720 C   0  0  0  0  0  0  0  0  0  0  0  0
  128.1280  129.8810   64.9680 C   0  0  0  0  0  0  0  0  0  0  0  0
  127.9920  129.4900   66.2870 N   0  0  0  0  0  0  0  0  0  0  0  0
  128.5060  128.3550   66.9390 C   0  0  0  0  0  0  0  0  0  0  0  0
  128.8360  127.1680   66.2730 C   0  0  0  0  0  0  0  0  0  0  0  0
  129.3370  126.0790   66.9820 C   0  0  0  0  0  0  0  0  0  0  0  0
  129.5050  126.1610   68.3620 C   0  0  0  0  0  0  0  0  0  0  0  0
  129.1620  127.3300   69.0560 C   0  0  0  0  0  0  0  0  0  0  0  0
  129.3210  127.4220   70.4570 N   0  0  0  0  0  0  0  0  0  0  0  0
  130.6000  127.8100   71.0290 C   0  0  0  0  0  0  0  0  0  0  0  0
  130.5300  128.1910   72.5200 C   0  0  0  0  0  0  0  0  0  0  0  0
  130.5590  127.1830   73.3940 N   0  0  0  0  0  0  0  0  0  0  0  0
  130.4770  129.3620   72.8940 O   0  0  0  0  0  0  0  0  0  0  0  0
  128.0580  126.7300   71.5350 S   0  0  0  0  0  0  0  0  0  0  0  0
  127.6790  128.1450   72.7300 C   0  0  0  0  0  0  0  0  0  0  0  0
  126.8630  126.4880   70.7200 O   0  0  0  0  0  0  0  0  0  0  0  0
  128.6780  125.6330   72.2860 O   0  0  0  0  0  0  0  0  0  0  0  0
  128.6630  128.4180   68.3270 C   0  0  0  0  0  0  0  0  0  0  0  0
  128.3550  131.3790   64.7200 C   0  0  0  0  0  0  0  0  0  0  0  0
  127.6510  131.8430   63.4150 C   0  0  1  0  0  0  0  0  0  0  0  0
  127.9070  133.3530   63.2040 C   0  0  0  0  0  0  0  0  0  0  0  0
  127.2040  131.2830   60.9390 C   0  0  0  0  0  0  0  0  0  0  0  0
  125.9830  131.3330   60.7860 O   0  0  0  0  0  0  0  0  0  0  0  0
  132.8934  130.4387   57.8816 H   0  0  0  0  0  0  0  0  0  0  0  0
  131.6951  130.7466   56.5793 H   0  0  0  0  0  0  0  0  0  0  0  0
  133.2655  131.6186   56.5793 H   0  0  0  0  0  0  0  0  0  0  0  0
  129.4095  132.5658   56.9107 H   0  0  0  0  0  0  0  0  0  0  0  0
  125.9166  130.4104   58.2907 H   0  0  0  0  0  0  0  0  0  0  0  0
  125.4632  131.4142   56.8717 H   0  0  0  0  0  0  0  0  0  0  0  0
  127.0137  130.5073   56.8717 H   0  0  0  0  0  0  0  0  0  0  0  0
  127.5701  127.9875   64.2453 H   0  0  0  0  0  0  0  0  0  0  0  0
  127.3020  129.9710   66.8450 H   0  0  0  0  0  0  0  0  0  0  0  0
  128.6987  127.0954   65.1840 H   0  0  0  0  0  0  0  0  0  0  0  0
  129.6005  125.1524   66.4510 H   0  0  0  0  0  0  0  0  0  0  0  0
  129.9109  125.2999   68.9132 H   0  0  0  0  0  0  0  0  0  0  0  0
  131.2978  126.9667   70.9199 H   0  0  0  0  0  0  0  0  0  0  0  0
  130.9320  128.7075   70.4865 H   0  0  0  0  0  0  0  0  0  0  0  0
  130.6120  126.2270   73.0730 H   0  0  0  0  0  0  0  0  0  0  0  0
  130.5260  127.3730   74.3850 H   0  0  0  0  0  0  0  0  0  0  0  0
  127.7751  127.7862   73.7654 H   0  0  0  0  0  0  0  0  0  0  0  0
  128.3882  128.9684   72.5600 H   0  0  0  0  0  0  0  0  0  0  0  0
  126.6531  128.5037   72.5600 H   0  0  0  0  0  0  0  0  0  0  0  0
  128.3889  129.3414   68.8582 H   0  0  0  0  0  0  0  0  0  0  0  0
  127.9498  131.9491   65.5690 H   0  0  0  0  0  0  0  0  0  0  0  0
  129.4357  131.5560   64.6159 H   0  0  0  0  0  0  0  0  0  0  0  0
  126.5578  131.7524   63.4971 H   0  0  0  0  0  0  0  0  0  0  0  0
  127.9914  133.8507   64.1813 H   0  0  0  0  0  0  0  0  0  0  0  0
  128.8414  133.4912   62.6403 H   0  0  0  0  0  0  0  0  0  0  0  0
  127.0704  133.7915   62.6403 H   0  0  0  0  0  0  0  0  0  0  0  0
  1  2  1  0
  2  3  1  0
  3  4  2  0
  4  5  1  0
  5  6  1  0
  6  7  1  0
  5  8  2  0
  8  9  1  0
  9 10  2  0
 10 11  1  0
  9 12  1  0
 13 12  1  6
 13 14  1  0
 14 15  2  0
 14 16  1  0
 16 17  2  0
 17 18  1  0
 18 19  1  0
 19 20  2  0
 20 21  1  0
 21 22  2  0
 22 23  1  0
 23 24  1  0
 24 25  1  0
 25 26  1  0
 26 27  1  0
 26 28  2  0
 24 29  1  0
 29 30  1  0
 29 31  2  0
 29 32  2  0
 23 33  2  0
 17 34  1  0
 34 35  1  0
 35 36  1  0
 13 37  1  0
 37 38  2  0
 10  3  1  0
 35 13  1  0
 37  8  1  0
 33 19  1  0
  1 39  1  0
  1 40  1  0
  1 41  1  0
  4 42  1  0
  7 43  1  0
  7 44  1  0
  7 45  1  0
 16 46  1  0
 18 47  1  0
 20 48  1  0
 21 49  1  0
 22 50  1  0
 25 51  1  0
 25 52  1  0
 27 53  1  0
 27 54  1  0
 30 55  1  0
 30 56  1  0
 30 57  1  0
 33 58  1  0
 34 59  1  0
 34 60  1  0
 35 61  1  1
 36 62  1  0
 36 63  1  0
 36 64  1  0
M  END
>  <Binding energies>  (1) 
[-8.18]

>  <Ligand effiencies>  (1) 
[-0.1995121951219512]

>  <Interactions>  (1) 
["V-B:HIS:456:CD2:9039, V-B:GLU:543:CB:9878, H-B:LYS:547:NZ:9923, V-B:GLU:543:CG:9879, V-B:LEU:475:CD2:9230, V-A:GLY:544:C:4912, V-A:HIS:456:CD2:4068, V-A:TYR:539:CD1:4873, V-B:TYR:484:CE2:9317, V-A:LEU:363:CD1:3189, V-A:TYR:539:CZ:4877, V-A:TYR:531:CE2:4793, V-A:ALA:541:CB:4892, H-B:ARG:545:N:9892, V-A:GLU:543:CD:4908, H-B:TYR:484:OH:9319, V-B:HIS:456:CE1:9041, H-B:GLY:544:N:9887, V-A:HIS:456:CE1:4070, V-B:TYR:484:CZ:9318, V-B:GLY:544:C:9884, V-A:GLU:543:CG:4907, V-B:GLU:543:CD:9880, V-B:HIS:456:CG:9037, H-A:LYS:547:NZ:4951, V-A:GLU:543:CB:4906, V-A:PRO:540:N:4884, V-A:PRO:540:CB:4885, V-A:PRO:540:CA:4883, V-A:TYR:539:CE1:4875, H-A:HIS:456:NE2:4071"]

$$$$
ZINC1615247278
     RDKit          3D

 70 73  0  0  0  0  0  0  0  0999 V2000
  134.3500  124.7640   62.8700 C   0  0  0  0  0  0  0  0  0  0  0  0
  133.9760  124.5870   64.2310 O   0  0  0  0  0  0  0  0  0  0  0  0
  132.6370  124.4620   64.5590 C   0  0  0  0  0  0  0  0  0  0  0  0
  131.8960  125.4570   65.2230 C   0  0  0  0  0  0  0  0  0  0  0  0
  130.5430  125.2730   65.5320 C   0  0  0  0  0  0  0  0  0  0  0  0
  129.7800  126.4030   66.2530 C   0  0  2  0  0  0  0  0  0  0  0  0
  129.1880  126.0280   67.6550 C   0  0  0  0  0  0  0  0  0  0  0  0
  129.5890  126.9680   68.8060 C   0  0  0  0  0  0  0  0  0  0  0  0
  130.2170  128.0010   68.5680 O   0  0  0  0  0  0  0  0  0  0  0  0
  129.2090  126.5970   70.0410 N   0  0  0  0  0  0  0  0  0  0  0  0
  129.4840  127.3440   71.2710 C   0  0  0  0  0  0  0  0  0  0  0  0
  128.6930  126.8560   72.5010 C   0  0  0  0  0  0  0  0  0  0  0  0
  128.3890  125.4770   72.4210 O   0  0  0  0  0  0  0  0  0  0  0  0
  128.7800  127.1380   65.2820 C   0  0  1  0  0  0  0  0  0  0  0  0
  128.1330  128.4240   65.8600 C   0  0  0  0  0  0  0  0  0  0  0  0
  128.2490  128.7790   67.0320 O   0  0  0  0  0  0  0  0  0  0  0  0
  127.2680  129.2350   64.8810 C   0  0  0  0  0  0  0  0  0  0  0  0
  127.0370  128.5500   63.5110 C   0  0  1  0  0  0  0  0  0  0  0  0
  126.1370  129.4500   62.6370 C   0  0  0  0  0  0  0  0  0  0  0  0
  128.3640  128.0280   62.8590 C   0  0  2  0  0  0  0  0  0  0  0  0
  129.1010  129.1490   62.3650 O   0  0  0  0  0  0  0  0  0  0  0  0
  129.2640  128.9800   61.0140 C   0  0  0  0  0  0  0  0  0  0  0  0
  129.9280  129.8830   60.1870 C   0  0  0  0  0  0  0  0  0  0  0  0
  130.6140  131.3230   60.8570 Cl  0  0  0  0  0  0  0  0  0  0  0  0
  130.0280  129.6090   58.8150 C   0  0  0  0  0  0  0  0  0  0  0  0
  130.6950  130.5330   58.0320 O   0  0  0  0  0  0  0  0  0  0  0  0
  132.0970  130.3950   57.8230 C   0  0  0  0  0  0  0  0  0  0  0  0
  129.4510  128.4240   58.3110 C   0  0  0  0  0  0  0  0  0  0  0  0
  128.7820  127.5190   59.1560 C   0  0  0  0  0  0  0  0  0  0  0  0
  128.1920  126.3390   58.7440 O   0  0  0  0  0  0  0  0  0  0  0  0
  128.1290  126.0450   57.3530 C   0  0  0  0  0  0  0  0  0  0  0  0
  128.6980  127.8200   60.5180 C   0  0  0  0  0  0  0  0  0  0  0  0
  128.0900  127.1150   61.6500 C   0  0  0  0  0  0  0  0  0  0  0  0
  127.4850  126.0420   61.6440 O   0  0  0  0  0  0  0  0  0  0  0  0
  129.3440  127.3460   63.8550 C   0  0  0  0  0  0  0  0  0  0  0  0
  130.4640  126.9610   63.5110 O   0  0  0  0  0  0  0  0  0  0  0  0
  129.9220  124.0740   65.1610 C   0  0  0  0  0  0  0  0  0  0  0  0
  130.6420  123.0810   64.5030 C   0  0  0  0  0  0  0  0  0  0  0  0
  131.9900  123.2710   64.2040 C   0  0  0  0  0  0  0  0  0  0  0  0
  132.6710  122.2730   63.5530 O   0  0  0  0  0  0  0  0  0  0  0  0
  135.3433  125.2341   62.8209 H   0  0  0  0  0  0  0  0  0  0  0  0
  134.3822  123.7856   62.3684 H   0  0  0  0  0  0  0  0  0  0  0  0
  133.6138  125.4092   62.3684 H   0  0  0  0  0  0  0  0  0  0  0  0
  132.3899  126.3986   65.5050 H   0  0  0  0  0  0  0  0  0  0  0  0
  130.5414  127.1465   66.5313 H   0  0  0  0  0  0  0  0  0  0  0  0
  128.0910  126.0362   67.5749 H   0  0  0  0  0  0  0  0  0  0  0  0
  129.6016  125.0406   67.9078 H   0  0  0  0  0  0  0  0  0  0  0  0
  128.7150  125.7230   70.1510 H   0  0  0  0  0  0  0  0  0  0  0  0
  130.5574  127.2558   71.4947 H   0  0  0  0  0  0  0  0  0  0  0  0
  129.1692  128.3816   71.0859 H   0  0  0  0  0  0  0  0  0  0  0  0
  129.2944  127.0355   73.4044 H   0  0  0  0  0  0  0  0  0  0  0  0
  127.7446  127.4120   72.5382 H   0  0  0  0  0  0  0  0  0  0  0  0
  128.0620  125.2850   71.5390 H   0  0  0  0  0  0  0  0  0  0  0  0
  127.9468  126.4263   65.1857 H   0  0  0  0  0  0  0  0  0  0  0  0
  126.2876  129.4065   65.3493 H   0  0  0  0  0  0  0  0  0  0  0  0
  127.8154  130.1671   64.6771 H   0  0  0  0  0  0  0  0  0  0  0  0
  126.4779  127.6119   63.6431 H   0  0  0  0  0  0  0  0  0  0  0  0
  125.5082  130.0788   63.2844 H   0  0  0  0  0  0  0  0  0  0  0  0
  126.7659  130.0913   62.0020 H   0  0  0  0  0  0  0  0  0  0  0  0
  125.4957  128.8211   62.0020 H   0  0  0  0  0  0  0  0  0  0  0  0
  132.6094  130.3446   58.7951 H   0  0  0  0  0  0  0  0  0  0  0  0
  132.2942  129.4731   57.2563 H   0  0  0  0  0  0  0  0  0  0  0  0
  132.4702  131.2608   57.2563 H   0  0  0  0  0  0  0  0  0  0  0  0
  129.5256  128.2032   57.2360 H   0  0  0  0  0  0  0  0  0  0  0  0
  127.9004  124.9781   57.2137 H   0  0  0  0  0  0  0  0  0  0  0  0
  127.3408  126.6530   56.8851 H   0  0  0  0  0  0  0  0  0  0  0  0
  129.0972  126.2767   56.8851 H   0  0  0  0  0  0  0  0  0  0  0  0
  128.8580  123.9158   65.3911 H   0  0  0  0  0  0  0  0  0  0  0  0
  130.1449  122.1421   64.2177 H   0  0  0  0  0  0  0  0  0  0  0  0
  133.6000  122.4760   63.4260 H   0  0  0  0  0  0  0  0  0  0  0  0
  1  2  1  0
  2  3  1  0
  3  4  2  0
  4  5  1  0
  5  6  1  0
  6  7  1  0
  7  8  1  0
  8  9  2  0
  8 10  1  0
 10 11  1  0
 11 12  1  0
 12 13  1  0
  6 14  1  0
 14 15  1  0
 15 16  2  0
 15 17  1  0
 17 18  1  0
 18 19  1  0
 18 20  1  0
 20 21  1  6
 21 22  1  0
 22 23  2  0
 23 24  1  0
 23 25  1  0
 25 26  1  0
 26 27  1  0
 25 28  2  0
 28 29  1  0
 29 30  1  0
 30 31  1  0
 29 32  2  0
 32 33  1  0
 33 34  2  0
 20 35  1  0
 35 36  2  0
  5 37  2  0
 37 38  1  0
 38 39  2  0
 39 40  1  0
 39  3  1  0
 35 14  1  0
 33 20  1  0
 32 22  1  0
  1 41  1  0
  1 42  1  0
  1 43  1  0
  4 44  1  0
  6 45  1  1
  7 46  1  0
  7 47  1  0
 10 48  1  0
 11 49  1  0
 11 50  1  0
 12 51  1  0
 12 52  1  0
 13 53  1  0
 14 54  1  6
 17 55  1  0
 17 56  1  0
 18 57  1  1
 19 58  1  0
 19 59  1  0
 19 60  1  0
 27 61  1  0
 27 62  1  0
 27 63  1  0
 28 64  1  0
 31 65  1  0
 31 66  1  0
 31 67  1  0
 37 68  1  0
 38 69  1  0
 40 70  1  0
M  END
>  <Binding energies>  (1) 
[-6.41]

>  <Ligand effiencies>  (1) 
[-0.14906976744186046]

>  <Interactions>  (1) 
["H-B:GLU:543:O:9875, V-B:GLU:543:CB:9878, H-B:LYS:547:NZ:9923, V-A:TYR:484:CE2:4346, V-B:GLU:543:CG:9879, V-A:TYR:531:CE2:4793, V-A:GLU:543:CD:4908, V-A:TYR:484:CZ:4347, V-B:GLU:543:CA:9876, H-A:GLY:454:N:4050, V-A:GLY:453:C:4042, V-A:HIS:456:CE1:4070, V-A:GLU:543:CG:4907, V-B:GLU:543:CD:9880, V-A:LEU:475:CD2:4259, H-A:ARG:545:NH2:4928, V-A:ARG:545:CZ:4926, H-B:GLY:544:O:9885, V-A:GLY:453:CA:4044, V-A:PRO:540:CA:4883, H-A:ARG:545:NE:4924, H-A:HIS:456:NE2:4071, H-A:TYR:484:OH:4348"]

$$$$
ZINC1615248073
     RDKit          3D

 60 64  0  0  0  0  0  0  0  0999 V2000
  133.1840  120.8520   60.5200 C   0  0  0  0  0  0  0  0  0  0  0  0
  132.7050  121.5420   61.6690 O   0  0  0  0  0  0  0  0  0  0  0  0
  131.4640  122.1560   61.6320 C   0  0  0  0  0  0  0  0  0  0  0  0
  130.3530  121.6130   60.9650 C   0  0  0  0  0  0  0  0  0  0  0  0
  129.1210  122.2640   60.9810 C   0  0  0  0  0  0  0  0  0  0  0  0
  128.9600  123.4720   61.6610 C   0  0  0  0  0  0  0  0  0  0  0  0
  127.6840  124.0630   61.6410 N   0  0  0  0  0  0  0  0  0  0  0  0
  127.0560  124.7580   60.6220 C   0  0  0  0  0  0  0  0  0  0  0  0
  126.9520  126.1010   60.4020 C   0  0  0  0  0  0  0  0  0  0  0  0
  126.1960  126.5390   59.1990 C   0  0  0  0  0  0  0  0  0  0  0  0
  125.7060  125.7450   58.3930 O   0  0  0  0  0  0  0  0  0  0  0  0
  126.0830  128.0420   58.9170 C   0  0  0  0  0  0  0  0  0  0  0  0
  126.0380  128.9020   60.1920 C   0  0  2  0  0  0  0  0  0  0  0  0
  125.7860  130.3760   59.8000 C   0  0  0  0  0  0  0  0  0  0  0  0
  127.2570  128.6080   61.1200 C   0  0  1  0  0  0  0  0  0  0  0  0
  128.4410  129.1000   60.4870 O   0  0  0  0  0  0  0  0  0  0  0  0
  129.0200  130.0150   61.3270 C   0  0  0  0  0  0  0  0  0  0  0  0
  130.2100  130.6860   61.0520 C   0  0  0  0  0  0  0  0  0  0  0  0
  131.0550  130.3720   59.5760 Cl  0  0  0  0  0  0  0  0  0  0  0  0
  130.7060  131.6080   61.9850 C   0  0  0  0  0  0  0  0  0  0  0  0
  131.8950  132.2440   61.6750 O   0  0  0  0  0  0  0  0  0  0  0  0
  133.1310  131.6430   62.0430 C   0  0  0  0  0  0  0  0  0  0  0  0
  129.9820  131.8360   63.1730 C   0  0  0  0  0  0  0  0  0  0  0  0
  128.7780  131.1540   63.4390 C   0  0  0  0  0  0  0  0  0  0  0  0
  128.0060  131.3210   64.5730 O   0  0  0  0  0  0  0  0  0  0  0  0
  128.0110  130.3040   65.5690 C   0  0  0  0  0  0  0  0  0  0  0  0
  128.3140  130.2350   62.4950 C   0  0  0  0  0  0  0  0  0  0  0  0
  127.1350  129.3640   62.4600 C   0  0  0  0  0  0  0  0  0  0  0  0
  126.2430  129.2560   63.3010 O   0  0  0  0  0  0  0  0  0  0  0  0
  127.5730  127.0950   61.3310 C   0  0  0  0  0  0  0  0  0  0  0  0
  128.3180  126.7390   62.2520 O   0  0  0  0  0  0  0  0  0  0  0  0
  130.0630  124.0250   62.3260 C   0  0  0  0  0  0  0  0  0  0  0  0
  131.3040  123.3780   62.3090 C   0  0  0  0  0  0  0  0  0  0  0  0
  132.3790  123.9790   62.9940 N   0  0  0  0  0  0  0  0  0  0  0  0
  133.5390  124.5090   62.4810 C   0  0  0  0  0  0  0  0  0  0  0  0
  134.3140  124.9490   63.4400 N   0  0  0  0  0  0  0  0  0  0  0  0
  133.6220  124.6810   64.6170 N   0  0  0  0  0  0  0  0  0  0  0  0
  132.4170  124.0650   64.3310 N   0  0  0  0  0  0  0  0  0  0  0  0
  133.7848  119.9865   60.8360 H   0  0  0  0  0  0  0  0  0  0  0  0
  132.3309  120.5059   59.9180 H   0  0  0  0  0  0  0  0  0  0  0  0
  133.8065  121.5303   59.9180 H   0  0  0  0  0  0  0  0  0  0  0  0
  130.4571  120.6615   60.4230 H   0  0  0  0  0  0  0  0  0  0  0  0
  128.2651  121.8204   60.4513 H   0  0  0  0  0  0  0  0  0  0  0  0
  127.1940  123.9820   62.5210 H   0  0  0  0  0  0  0  0  0  0  0  0
  126.5615  124.1269   59.8689 H   0  0  0  0  0  0  0  0  0  0  0  0
  126.9530  128.3508   58.3188 H   0  0  0  0  0  0  0  0  0  0  0  0
  125.1339  128.2017   58.3843 H   0  0  0  0  0  0  0  0  0  0  0  0
  125.1862  128.6310   60.8330 H   0  0  0  0  0  0  0  0  0  0  0  0
  125.6819  130.9848   60.7102 H   0  0  0  0  0  0  0  0  0  0  0  0
  126.6337  130.7474   59.2054 H   0  0  0  0  0  0  0  0  0  0  0  0
  124.8631  130.4447   59.2054 H   0  0  0  0  0  0  0  0  0  0  0  0
  133.2083  131.6054   63.1396 H   0  0  0  0  0  0  0  0  0  0  0  0
  133.1774  130.6217   61.6369 H   0  0  0  0  0  0  0  0  0  0  0  0
  133.9629  132.2372   61.6369 H   0  0  0  0  0  0  0  0  0  0  0  0
  130.3646  132.5607   63.9068 H   0  0  0  0  0  0  0  0  0  0  0  0
  128.0087  130.7677   66.5665 H   0  0  0  0  0  0  0  0  0  0  0  0
  127.1159  129.6748   65.4551 H   0  0  0  0  0  0  0  0  0  0  0  0
  128.9122  129.6836   65.4551 H   0  0  0  0  0  0  0  0  0  0  0  0
  129.9522  124.9767   62.8665 H   0  0  0  0  0  0  0  0  0  0  0  0
  133.7831  124.5569   61.4095 H   0  0  0  0  0  0  0  0  0  0  0  0
  1  2  1  0
  2  3  1  0
  3  4  2  0
  4  5  1  0
  5  6  2  0
  6  7  1  0
  7  8  1  0
  8  9  2  0
  9 10  1  0
 10 11  2  0
 10 12  1  0
 12 13  1  0
 13 14  1  0
 13 15  1  0
 15 16  1  6
 16 17  1  0
 17 18  2  0
 18 19  1  0
 18 20  1  0
 20 21  1  0
 21 22  1  0
 20 23  2  0
 23 24  1  0
 24 25  1  0
 25 26  1  0
 24 27  2  0
 27 28  1  0
 28 29  2  0
 15 30  1  0
 30 31  2  0
  6 32  1  0
 32 33  2  0
 33 34  1  0
 34 35  1  0
 35 36  2  0
 36 37  1  0
 37 38  2  0
 33  3  1  0
 38 34  1  0
 30  9  1  0
 28 15  1  0
 27 17  1  0
  1 39  1  0
  1 40  1  0
  1 41  1  0
  4 42  1  0
  5 43  1  0
  7 44  1  0
  8 45  1  0
 12 46  1  0
 12 47  1  0
 13 48  1  1
 14 49  1  0
 14 50  1  0
 14 51  1  0
 22 52  1  0
 22 53  1  0
 22 54  1  0
 23 55  1  0
 26 56  1  0
 26 57  1  0
 26 58  1  0
 32 59  1  0
 35 60  1  0
M  END
>  <Binding energies>  (1) 
[-8.55]

>  <Ligand effiencies>  (1) 
[-0.21923076923076926]

>  <Interactions>  (1) 
["V-A:ILE:369:CG2:3237, V-B:PRO:540:CA:9855, H-A:ALA:541:N:4891, V-B:ASP:366:CG:8184, H-A:ARG:545:NH1:4927, V-B:TYR:539:CE2:9848, V-A:ASN:362:CB:3176, V-B:TYR:484:CE2:9317, H-B:GLU:543:OE1:9881, V-A:ALA:541:CB:4892, V-B:ASP:366:CB:8183, V-A:GLU:543:CD:4908, H-B:TYR:484:OH:9319, H-A:GLY:454:N:4050, V-B:TYR:484:CZ:9318, V-B:TYR:539:CD2:9846, V-A:GLU:543:CG:4907, V-A:SER:385:CB:3409, V-B:GLU:543:CD:9880, H-B:TYR:531:OH:9767, V-A:LEU:475:CD2:4259, H-A:ARG:545:NH2:4928, H-B:ARG:545:NH2:9900, V-A:GLU:543:CB:4906, V-A:PRO:540:CB:4885, V-A:PRO:540:CA:4883, H-A:ARG:545:NE:4924, H-A:TYR:484:OH:4348"]

$$$$
ZINC1615248558-again1
     RDKit          3D

 80 84  0  0  0  0  0  0  0  0999 V2000
  133.3250  130.8880   58.2530 C   0  0  0  0  0  0  0  0  0  0  0  0
  132.4080  131.8390   57.7200 O   0  0  0  0  0  0  0  0  0  0  0  0
  131.0590  131.5310   57.6810 C   0  0  0  0  0  0  0  0  0  0  0  0
  130.5140  130.3300   58.1670 C   0  0  0  0  0  0  0  0  0  0  0  0
  129.1390  130.0750   58.1080 C   0  0  0  0  0  0  0  0  0  0  0  0
  128.5960  128.7380   58.6410 C   0  0  2  0  0  0  0  0  0  0  0  0
  127.6520  128.8800   59.8810 C   0  0  0  0  0  0  0  0  0  0  0  0
  128.0720  129.9510   60.9170 C   0  0  0  0  0  0  0  0  0  0  0  0
  129.0180  130.6920   60.6370 O   0  0  0  0  0  0  0  0  0  0  0  0
  127.3180  130.1380   62.0340 N   0  0  0  0  0  0  0  0  0  0  0  0
  127.6030  131.2660   62.9520 C   0  0  0  0  0  0  0  0  0  0  0  0
  128.2060  130.6810   64.2490 C   0  0  0  0  0  0  0  0  0  0  0  0
  127.2610  129.6990   64.8310 N   0  0  0  0  0  0  0  0  0  0  0  0
  127.5960  129.2280   66.5050 S   0  0  0  0  0  0  0  0  0  0  0  0
  128.7310  127.7310   66.3300 C   0  0  0  0  0  0  0  0  0  0  0  0
  128.3520  130.3170   67.1350 O   0  0  0  0  0  0  0  0  0  0  0  0
  126.3380  128.7680   67.1030 O   0  0  0  0  0  0  0  0  0  0  0  0
  127.0270  128.5770   63.8910 C   0  0  0  0  0  0  0  0  0  0  0  0
  126.4000  129.1090   62.5800 C   0  0  0  0  0  0  0  0  0  0  0  0
  129.7070  127.6550   58.7910 C   0  0  0  0  0  0  0  0  0  0  0  0
  130.2370  126.9880   57.6350 C   0  0  0  0  0  0  0  0  0  0  0  0
  129.8500  127.2900   56.4590 O   0  0  0  0  0  0  0  0  0  0  0  0
  131.2570  125.8340   57.7350 C   0  0  0  0  0  0  0  0  0  0  0  0
  131.7850  125.5620   59.1670 C   0  0  2  0  0  0  0  0  0  0  0  0
  132.5080  124.2000   59.2260 C   0  0  0  0  0  0  0  0  0  0  0  0
  130.7120  125.8500   60.2520 C   0  0  2  0  0  0  0  0  0  0  0  0
  131.3270  125.7670   61.5430 O   0  0  0  0  0  0  0  0  0  0  0  0
  130.5540  124.9420   62.3170 C   0  0  0  0  0  0  0  0  0  0  0  0
  130.7960  124.6820   63.6640 C   0  0  0  0  0  0  0  0  0  0  0  0
  132.1330  125.4370   64.4620 Cl  0  0  0  0  0  0  0  0  0  0  0  0
  129.9450  123.8080   64.3570 C   0  0  0  0  0  0  0  0  0  0  0  0
  130.2210  123.5830   65.6930 O   0  0  0  0  0  0  0  0  0  0  0  0
  129.8990  124.5820   66.6540 C   0  0  0  0  0  0  0  0  0  0  0  0
  128.8700  123.2110   63.6650 C   0  0  0  0  0  0  0  0  0  0  0  0
  128.6390  123.4760   62.3020 C   0  0  0  0  0  0  0  0  0  0  0  0
  127.6140  122.9300   61.5520 O   0  0  0  0  0  0  0  0  0  0  0  0
  126.5110  123.7500   61.1870 C   0  0  0  0  0  0  0  0  0  0  0  0
  129.4990  124.3580   61.6430 C   0  0  0  0  0  0  0  0  0  0  0  0
  129.5430  124.8410   60.2600 C   0  0  0  0  0  0  0  0  0  0  0  0
  128.8160  124.5160   59.3230 O   0  0  0  0  0  0  0  0  0  0  0  0
  130.2000  127.3110   60.0920 C   0  0  0  0  0  0  0  0  0  0  0  0
  130.2620  128.1810   61.0250 O   0  0  0  0  0  0  0  0  0  0  0  0
  128.3010  131.0360   57.5290 C   0  0  0  0  0  0  0  0  0  0  0  0
  128.8240  132.2310   57.0430 C   0  0  0  0  0  0  0  0  0  0  0  0
  130.1950  132.4790   57.1180 C   0  0  0  0  0  0  0  0  0  0  0  0
  130.6830  133.6650   56.6310 O   0  0  0  0  0  0  0  0  0  0  0  0
  133.2917  130.9226   59.3520 H   0  0  0  0  0  0  0  0  0  0  0  0
  133.0492  129.8801   57.9093 H   0  0  0  0  0  0  0  0  0  0  0  0
  134.3422  131.1270   57.9093 H   0  0  0  0  0  0  0  0  0  0  0  0
  131.1830  129.5737   58.6034 H   0  0  0  0  0  0  0  0  0  0  0  0
  127.9269  128.3545   57.8566 H   0  0  0  0  0  0  0  0  0  0  0  0
  126.6473  129.1379   59.5147 H   0  0  0  0  0  0  0  0  0  0  0  0
  127.6968  127.9153   60.4077 H   0  0  0  0  0  0  0  0  0  0  0  0
  128.3204  131.9565   62.4844 H   0  0  0  0  0  0  0  0  0  0  0  0
  126.6802  131.8218   63.1747 H   0  0  0  0  0  0  0  0  0  0  0  0
  129.1586  130.1816   64.0183 H   0  0  0  0  0  0  0  0  0  0  0  0
  128.3840  131.4922   64.9703 H   0  0  0  0  0  0  0  0  0  0  0  0
  129.0097  127.3634   67.3286 H   0  0  0  0  0  0  0  0  0  0  0  0
  128.2068  126.9358   65.7797 H   0  0  0  0  0  0  0  0  0  0  0  0
  129.6382  128.0210   65.7797 H   0  0  0  0  0  0  0  0  0  0  0  0
  127.9847  128.0858   63.6640 H   0  0  0  0  0  0  0  0  0  0  0  0
  126.3387  127.8547   64.3541 H   0  0  0  0  0  0  0  0  0  0  0  0
  126.2846  128.2871   61.8580 H   0  0  0  0  0  0  0  0  0  0  0  0
  125.4057  129.5386   62.7718 H   0  0  0  0  0  0  0  0  0  0  0  0
  130.7743  124.9165   57.3672 H   0  0  0  0  0  0  0  0  0  0  0  0
  132.1276  126.1343   57.1334 H   0  0  0  0  0  0  0  0  0  0  0  0
  132.5690  126.2885   59.4271 H   0  0  0  0  0  0  0  0  0  0  0  0
  132.6612  123.9114   60.2764 H   0  0  0  0  0  0  0  0  0  0  0  0
  131.8958  123.4377   58.7219 H   0  0  0  0  0  0  0  0  0  0  0  0
  133.4824  124.2800   58.7219 H   0  0  0  0  0  0  0  0  0  0  0  0
  130.0309  124.1728   67.6665 H   0  0  0  0  0  0  0  0  0  0  0  0
  130.5634  125.4482   66.5192 H   0  0  0  0  0  0  0  0  0  0  0  0
  128.8538  124.8971   66.5192 H   0  0  0  0  0  0  0  0  0  0  0  0
  128.1987  122.5244   64.2017 H   0  0  0  0  0  0  0  0  0  0  0  0
  126.0130  124.1202   62.0952 H   0  0  0  0  0  0  0  0  0  0  0  0
  126.8693  124.6028   60.5917 H   0  0  0  0  0  0  0  0  0  0  0  0
  125.7976  123.1612   60.5917 H   0  0  0  0  0  0  0  0  0  0  0  0
  127.2201  130.8449   57.4576 H   0  0  0  0  0  0  0  0  0  0  0  0
  128.1544  132.9820   56.5985 H   0  0  0  0  0  0  0  0  0  0  0  0
  131.6340  133.7420   56.7420 H   0  0  0  0  0  0  0  0  0  0  0  0
  1  2  1  0
  2  3  1  0
  3  4  2  0
  4  5  1  0
  5  6  1  0
  6  7  1  0
  7  8  1  0
  8  9  2  0
  8 10  1  0
 10 11  1  0
 11 12  1  0
 12 13  1  0
 13 14  1  0
 14 15  1  0
 14 16  2  0
 14 17  2  0
 13 18  1  0
 18 19  1  0
  6 20  1  0
 20 21  2  0
 21 22  1  0
 21 23  1  0
 23 24  1  0
 24 25  1  0
 24 26  1  0
 26 27  1  1
 27 28  1  0
 28 29  2  0
 29 30  1  0
 29 31  1  0
 31 32  1  0
 32 33  1  0
 31 34  2  0
 34 35  1  0
 35 36  1  0
 36 37  1  0
 35 38  2  0
 38 39  1  0
 39 40  2  0
 26 41  1  0
 41 42  2  0
  5 43  2  0
 43 44  1  0
 44 45  2  0
 45 46  1  0
 45  3  1  0
 19 10  1  0
 41 20  1  0
 39 26  1  0
 38 28  1  0
  1 47  1  0
  1 48  1  0
  1 49  1  0
  4 50  1  0
  6 51  1  6
  7 52  1  0
  7 53  1  0
 11 54  1  0
 11 55  1  0
 12 56  1  0
 12 57  1  0
 15 58  1  0
 15 59  1  0
 15 60  1  0
 18 61  1  0
 18 62  1  0
 19 63  1  0
 19 64  1  0
 23 65  1  0
 23 66  1  0
 24 67  1  1
 25 68  1  0
 25 69  1  0
 25 70  1  0
 33 71  1  0
 33 72  1  0
 33 73  1  0
 34 74  1  0
 37 75  1  0
 37 76  1  0
 37 77  1  0
 43 78  1  0
 44 79  1  0
 46 80  1  0
M  CHG  1  22  -1
M  END
>  <Binding energies>  (1) 
[-6.88]

>  <Ligand effiencies>  (1) 
[-0.14638297872340425]

>  <Interactions>  (1) 
["V-B:PRO:540:CA:9855, V-B:GLU:543:CB:9878, V-B:ALA:541:CB:9864, H-A:TYR:531:OH:4795, V-B:TYR:539:CE2:9848, V-A:TYR:484:CE2:4346, V-B:GLU:543:CG:9879, V-A:ASP:366:CG:3213, V-A:LEU:363:CD1:3189, V-B:TYR:539:CZ:9849, H-B:ALA:541:N:9863, V-A:GLU:543:CD:4908, V-B:PRO:540:CB:9857, V-A:TYR:484:CZ:4347, H-B:TYR:484:OH:9319, V-B:HIS:456:CE1:9041, V-B:GLU:543:CA:9876, V-B:TYR:484:CZ:9318, V-A:HIS:456:CE1:4070, V-A:GLU:543:CG:4907, V-A:MET:535:CE:4835, V-B:GLU:543:CD:9880, V-A:ASP:366:CB:3212, V-A:ARG:545:CZ:4926, H-A:TYR:539:N:4870, V-A:LEU:363:CA:3185, H-A:TYR:484:OH:4348"]

$$$$
ZINC1615587021-again1
     RDKit          3D

 35 36  0  0  0  0  0  0  0  0999 V2000
  131.2470  128.1030   70.0880 C   0  0  0  0  0  0  0  0  0  0  0  0
  130.0930  127.5050   70.4680 C   0  0  0  0  0  0  0  0  0  0  0  0
  129.4270  126.5370   69.7210 N   0  0  0  0  0  0  0  0  0  0  0  0
  129.4530  126.1390   68.3610 C   0  0  0  0  0  0  0  0  0  0  0  0
  129.8370  124.8760   68.0450 N   0  0  0  0  0  0  0  0  0  0  0  0
  129.8760  124.4520   66.7790 N   0  0  0  0  0  0  0  0  0  0  0  0
  129.5320  125.2840   65.7650 C   0  0  0  0  0  0  0  0  0  0  0  0
  129.6400  124.6110   64.4000 C   0  0  0  0  0  0  0  0  0  0  0  0
  129.1240  126.6130   65.9960 C   0  0  0  0  0  0  0  0  0  0  0  0
  128.7340  127.5620   64.8520 C   0  0  0  0  0  0  0  0  0  0  0  0
  129.0860  127.0510   67.3410 C   0  0  0  0  0  0  0  0  0  0  0  0
  128.6720  128.4250   67.6610 C   0  0  0  0  0  0  0  0  0  0  0  0
  128.3470  129.5070   67.9120 N   0  0  0  0  0  0  0  0  0  0  0  0
  129.5110  127.9140   71.7640 C   0  0  0  0  0  0  0  0  0  0  0  0
  128.9110  127.2060   72.7540 C   0  0  0  0  0  0  0  0  0  0  0  0
  128.6700  125.9430   72.8530 O   0  0  0  0  0  0  0  0  0  0  0  0
  128.5370  128.0810   73.9140 C   0  0  0  0  0  0  0  0  0  0  0  0
  129.3190  129.2680   73.6690 N   0  0  0  0  0  0  0  0  0  0  0  0
  128.6560  130.4450   74.2120 C   0  0  0  0  0  0  0  0  0  0  0  0
  129.4900  129.2400   72.2420 N   0  0  0  0  0  0  0  0  0  0  0  0
  131.7130  128.8606   70.7353 H   0  0  0  0  0  0  0  0  0  0  0  0
  131.7185  127.8312   69.1321 H   0  0  0  0  0  0  0  0  0  0  0  0
  128.7700  125.9760   70.2460 H   0  0  0  0  0  0  0  0  0  0  0  0
  129.8130  123.5331   64.5353 H   0  0  0  0  0  0  0  0  0  0  0  0
  128.7056  124.7650   63.8403 H   0  0  0  0  0  0  0  0  0  0  0  0
  130.4792  125.0496   63.8403 H   0  0  0  0  0  0  0  0  0  0  0  0
  128.3475  128.5026   65.2715 H   0  0  0  0  0  0  0  0  0  0  0  0
  129.6184  127.7728   64.2328 H   0  0  0  0  0  0  0  0  0  0  0  0
  127.9569  127.0900   64.2328 H   0  0  0  0  0  0  0  0  0  0  0  0
  127.4603  128.3060   73.9122 H   0  0  0  0  0  0  0  0  0  0  0  0
  128.7314  127.6202   74.8937 H   0  0  0  0  0  0  0  0  0  0  0  0
  128.6789  130.4044   75.3110 H   0  0  0  0  0  0  0  0  0  0  0  0
  129.1766  131.3507   73.8676 H   0  0  0  0  0  0  0  0  0  0  0  0
  127.6116  130.4691   73.8676 H   0  0  0  0  0  0  0  0  0  0  0  0
  130.2520  129.8780   72.0630 H   0  0  0  0  0  0  0  0  0  0  0  0
  1  2  2  0
  2  3  1  0
  3  4  1  0
  4  5  2  0
  5  6  1  0
  6  7  2  0
  7  8  1  0
  7  9  1  0
  9 10  1  0
  9 11  2  0
 11 12  1  0
 12 13  3  0
  2 14  1  0
 14 15  2  0
 15 16  1  0
 15 17  1  0
 17 18  1  0
 18 19  1  0
 18 20  1  0
 11  4  1  0
 20 14  1  0
  1 21  1  0
  1 22  1  0
  3 23  1  0
  8 24  1  0
  8 25  1  0
  8 26  1  0
 10 27  1  0
 10 28  1  0
 10 29  1  0
 17 30  1  0
 17 31  1  0
 19 32  1  0
 19 33  1  0
 19 34  1  0
 20 35  1  0
M  CHG  1  16  -1
M  END
>  <Binding energies>  (1) 
[-7.31]

>  <Ligand effiencies>  (1) 
[-0.3322727272727273]

>  <Interactions>  (1) 
["V-A:ARG:545:CA:4919, V-B:HIS:456:CD2:9039, H-B:GLU:543:O:9875, V-A:GLU:543:C:4902, V-B:GLU:543:CB:9878, H-B:LYS:547:NZ:9923, V-B:GLU:543:CG:9879, V-A:GLY:544:C:4912, V-A:GLU:543:CD:4908, H-B:TYR:484:OH:9319, V-B:HIS:456:CE1:9041, V-A:HIS:456:CE1:4070, H-B:HIS:456:NE2:9042, V-A:GLU:543:CG:4907, V-B:GLU:543:CD:9880, H-A:LYS:547:NZ:4951, V-A:GLU:543:CB:4906, H-A:GLY:544:O:4913, H-A:HIS:456:NE2:4071, H-A:TYR:484:OH:4348, H-A:GLU:543:O:4903"]

$$$$
ZINC1615695381
     RDKit          3D

 95 99  0  0  0  0  0  0  0  0999 V2000
  128.8280  126.6420   67.8840 C   0  0  0  0  0  0  0  0  0  0  0  0
  128.5710  127.8340   66.9790 C   0  0  0  0  0  0  0  0  0  0  0  0
  128.2870  129.0840   67.5340 C   0  0  0  0  0  0  0  0  0  0  0  0
  128.0380  130.1720   66.7010 C   0  0  0  0  0  0  0  0  0  0  0  0
  128.0660  130.0040   65.3180 C   0  0  0  0  0  0  0  0  0  0  0  0
  127.7340  131.3840   64.2690 S   0  0  0  0  0  0  0  0  0  0  0  0
  126.5370  130.7890   63.0370 C   0  0  0  0  0  0  0  0  0  0  0  0
  126.4260  131.7580   61.8320 C   0  0  0  0  0  0  0  0  0  0  0  0
  125.5790  131.1740   60.6760 C   0  0  0  0  0  0  0  0  0  0  0  0
  126.1590  129.8600   60.3430 N   0  0  0  0  0  0  0  0  0  0  0  0
  127.0340  129.7340   59.3080 C   0  0  0  0  0  0  0  0  0  0  0  0
  127.2110  130.6440   58.4940 O   0  0  0  0  0  0  0  0  0  0  0  0
  127.8390  128.4180   59.0980 C   0  0  2  0  0  0  0  0  0  0  0  0
  129.3250  128.7500   58.7600 C   0  0  0  0  0  0  0  0  0  0  0  0
  130.3370  127.8410   59.4360 C   0  0  0  0  0  0  0  0  0  0  0  0
  130.3300  127.7200   60.8260 C   0  0  0  0  0  0  0  0  0  0  0  0
  131.2510  126.8900   61.4520 C   0  0  0  0  0  0  0  0  0  0  0  0
  132.1850  126.1820   60.6990 C   0  0  0  0  0  0  0  0  0  0  0  0
  132.1770  126.2870   59.3000 C   0  0  0  0  0  0  0  0  0  0  0  0
  131.2520  127.1160   58.6710 C   0  0  0  0  0  0  0  0  0  0  0  0
  133.0820  125.4230   61.4160 O   0  0  0  0  0  0  0  0  0  0  0  0
  133.9530  124.5310   60.7330 C   0  0  0  0  0  0  0  0  0  0  0  0
  133.1060  123.7250   59.7560 C   0  0  0  0  0  0  0  0  0  0  0  0
  133.4980  123.6020   58.5980 O   0  0  0  0  0  0  0  0  0  0  0  0
  131.9350  123.1760   60.1330 N   0  0  0  0  0  0  0  0  0  0  0  0
  131.2940  123.0040   61.4470 C   0  0  2  0  0  0  0  0  0  0  0  0
  132.2250  122.7040   62.6630 C   0  0  0  0  0  0  0  0  0  0  0  0
  132.5230  123.9760   63.4790 C   0  0  0  0  0  0  0  0  0  0  0  0
  133.5790  122.1120   62.2210 C   0  0  0  0  0  0  0  0  0  0  0  0
  129.9190  122.2740   61.3260 C   0  0  0  0  0  0  0  0  0  0  0  0
  129.9480  121.1040   61.7130 O   0  0  0  0  0  0  0  0  0  0  0  0
  128.7410  122.8280   60.9040 N   0  0  0  0  0  0  0  0  0  0  0  0
  128.2740  122.4810   59.5470 C   0  0  0  0  0  0  0  0  0  0  0  0
  126.8870  123.0900   59.3840 C   0  0  0  0  0  0  0  0  0  0  0  0
  126.4570  123.2970   60.8200 C   0  0  0  0  0  0  0  0  0  0  0  0
  127.7450  123.7290   61.5420 C   0  0  2  0  0  0  0  0  0  0  0  0
  128.0970  125.2260   61.3120 C   0  0  0  0  0  0  0  0  0  0  0  0
  128.5370  125.8790   62.2570 O   0  0  0  0  0  0  0  0  0  0  0  0
  127.9230  125.8270   60.1190 N   0  0  0  0  0  0  0  0  0  0  0  0
  127.8110  125.2680   58.7670 C   0  0  2  0  0  0  0  0  0  0  0  0
  129.2630  124.9960   58.3130 C   0  0  0  0  0  0  0  0  0  0  0  0
  127.0960  126.2970   57.8450 C   0  0  0  0  0  0  0  0  0  0  0  0
  126.4320  125.8710   56.9000 O   0  0  0  0  0  0  0  0  0  0  0  0
  127.1770  127.6310   58.0480 N   0  0  0  0  0  0  0  0  0  0  0  0
  125.9920  128.8760   61.4180 C   0  0  0  0  0  0  0  0  0  0  0  0
  126.8710  129.3410   62.6010 C   0  0  0  0  0  0  0  0  0  0  0  0
  128.3490  128.7580   64.7590 C   0  0  0  0  0  0  0  0  0  0  0  0
  128.5990  127.6700   65.5920 C   0  0  0  0  0  0  0  0  0  0  0  0
  128.7598  126.9584   68.9353 H   0  0  0  0  0  0  0  0  0  0  0  0
  128.0772  125.8628   67.6861 H   0  0  0  0  0  0  0  0  0  0  0  0
  129.8332  126.2414   67.6861 H   0  0  0  0  0  0  0  0  0  0  0  0
  128.2601  129.2088   68.6266 H   0  0  0  0  0  0  0  0  0  0  0  0
  127.8201  131.1599   67.1330 H   0  0  0  0  0  0  0  0  0  0  0  0
  125.5435  130.7675   63.5088 H   0  0  0  0  0  0  0  0  0  0  0  0
  125.9587  132.6933   62.1737 H   0  0  0  0  0  0  0  0  0  0  0  0
  127.4421  131.9297   61.4473 H   0  0  0  0  0  0  0  0  0  0  0  0
  124.5330  131.0560   60.9953 H   0  0  0  0  0  0  0  0  0  0  0  0
  125.5900  131.8425   59.8025 H   0  0  0  0  0  0  0  0  0  0  0  0
  127.8560  127.8145   60.0175 H   0  0  0  0  0  0  0  0  0  0  0  0
  129.4582  128.6647   57.6714 H   0  0  0  0  0  0  0  0  0  0  0  0
  129.5142  129.7666   59.1350 H   0  0  0  0  0  0  0  0  0  0  0  0
  129.5969  128.2806   61.4246 H   0  0  0  0  0  0  0  0  0  0  0  0
  131.2429  126.7912   62.5475 H   0  0  0  0  0  0  0  0  0  0  0  0
  132.9007  125.7150   58.7007 H   0  0  0  0  0  0  0  0  0  0  0  0
  131.2423  127.1993   57.5742 H   0  0  0  0  0  0  0  0  0  0  0  0
  134.7195  125.0994   60.1858 H   0  0  0  0  0  0  0  0  0  0  0  0
  134.4633  123.8656   61.4449 H   0  0  0  0  0  0  0  0  0  0  0  0
  131.4250  122.7090   59.3980 H   0  0  0  0  0  0  0  0  0  0  0  0
  131.0141  124.0076   61.7999 H   0  0  0  0  0  0  0  0  0  0  0  0
  131.6791  121.9746   63.2794 H   0  0  0  0  0  0  0  0  0  0  0  0
  132.4686  123.7439   64.5529 H   0  0  0  0  0  0  0  0  0  0  0  0
  133.5311  124.3414   63.2334 H   0  0  0  0  0  0  0  0  0  0  0  0
  131.7821  124.7511   63.2334 H   0  0  0  0  0  0  0  0  0  0  0  0
  134.1732  121.8522   63.1095 H   0  0  0  0  0  0  0  0  0  0  0  0
  133.4049  121.2079   61.6191 H   0  0  0  0  0  0  0  0  0  0  0  0
  134.1245  122.8537   61.6191 H   0  0  0  0  0  0  0  0  0  0  0  0
  128.9598  122.8962   58.7938 H   0  0  0  0  0  0  0  0  0  0  0  0
  128.2424  121.3901   59.4097 H   0  0  0  0  0  0  0  0  0  0  0  0
  126.9323  124.0449   58.8398 H   0  0  0  0  0  0  0  0  0  0  0  0
  126.1953  122.4629   58.8024 H   0  0  0  0  0  0  0  0  0  0  0  0
  125.6897  124.0823   60.8880 H   0  0  0  0  0  0  0  0  0  0  0  0
  126.0105  122.3932   61.2602 H   0  0  0  0  0  0  0  0  0  0  0  0
  127.6832  123.6495   62.6374 H   0  0  0  0  0  0  0  0  0  0  0  0
  128.0660  126.8280   60.1090 H   0  0  0  0  0  0  0  0  0  0  0  0
  127.2171  124.3429   58.7296 H   0  0  0  0  0  0  0  0  0  0  0  0
  129.9069  124.8754   59.1966 H   0  0  0  0  0  0  0  0  0  0  0  0
  129.2924  124.0767   57.7096 H   0  0  0  0  0  0  0  0  0  0  0  0
  129.6231  125.8423   57.7096 H   0  0  0  0  0  0  0  0  0  0  0  0
  126.6810  128.2080   57.3850 H   0  0  0  0  0  0  0  0  0  0  0  0
  124.9373  128.8302   61.7269 H   0  0  0  0  0  0  0  0  0  0  0  0
  126.2900  127.8726   61.0798 H   0  0  0  0  0  0  0  0  0  0  0  0
  126.7052  128.6661   63.4536 H   0  0  0  0  0  0  0  0  0  0  0  0
  127.9210  129.3179   62.2741 H   0  0  0  0  0  0  0  0  0  0  0  0
  128.3746  128.6351   63.6662 H   0  0  0  0  0  0  0  0  0  0  0  0
  128.8181  126.6831   65.1583 H   0  0  0  0  0  0  0  0  0  0  0  0
  1  2  1  0
  2  3  2  0
  3  4  1  0
  4  5  2  0
  5  6  1  0
  6  7  1  0
  7  8  1  0
  8  9  1  0
  9 10  1  0
 10 11  1  0
 11 12  2  0
 11 13  1  0
 13 14  1  0
 14 15  1  0
 15 16  2  0
 16 17  1  0
 17 18  2  0
 18 19  1  0
 19 20  2  0
 18 21  1  0
 21 22  1  0
 22 23  1  0
 23 24  2  0
 23 25  1  0
 25 26  1  0
 26 27  1  0
 27 28  1  0
 27 29  1  0
 26 30  1  0
 30 31  2  0
 30 32  1  0
 32 33  1  0
 33 34  1  0
 34 35  1  0
 35 36  1  0
 36 37  1  0
 37 38  2  0
 37 39  1  0
 39 40  1  0
 40 41  1  0
 40 42  1  0
 42 43  2  0
 42 44  1  0
 10 45  1  0
 45 46  1  0
  5 47  1  0
 47 48  2  0
 48  2  1  0
 46  7  1  0
 44 13  1  0
 20 15  1  0
 36 32  1  0
  1 49  1  0
  1 50  1  0
  1 51  1  0
  3 52  1  0
  4 53  1  0
  7 54  1  0
  8 55  1  0
  8 56  1  0
  9 57  1  0
  9 58  1  0
 13 59  1  1
 14 60  1  0
 14 61  1  0
 16 62  1  0
 17 63  1  0
 19 64  1  0
 20 65  1  0
 22 66  1  0
 22 67  1  0
 25 68  1  0
 26 69  1  1
 27 70  1  0
 28 71  1  0
 28 72  1  0
 28 73  1  0
 29 74  1  0
 29 75  1  0
 29 76  1  0
 33 77  1  0
 33 78  1  0
 34 79  1  0
 34 80  1  0
 35 81  1  0
 35 82  1  0
 36 83  1  1
 39 84  1  0
 40 85  1  1
 41 86  1  0
 41 87  1  0
 41 88  1  0
 44 89  1  0
 45 90  1  0
 45 91  1  0
 46 92  1  0
 46 93  1  0
 47 94  1  0
 48 95  1  0
M  END
>  <Binding energies>  (1) 
[-4.62]

>  <Ligand effiencies>  (1) 
[-0.08716981132075471]

>  <Interactions>  (1) 
["V-A:ILE:369:CG2:3237, V-A:ASP:366:CA:3210, V-B:PRO:540:CA:9855, V-A:GLY:454:CA:4049, V-B:GLU:543:CB:9878, V-B:ASP:366:CG:8184, V-B:TYR:539:CE2:9848, V-B:GLU:543:CG:9879, V-B:TYR:539:C:9839, V-A:ASP:366:CG:3213, V-B:TYR:484:CE2:9317, V-B:TYR:539:CZ:9849, H-B:TYR:539:OH:9850, V-A:GLU:543:CD:4908, V-B:PRO:540:CB:9857, H-B:TYR:484:OH:9319, V-B:HIS:456:CE1:9041, V-B:PRO:540:N:9856, V-B:TYR:484:CZ:9318, V-A:ILE:369:CD1:3239, V-B:TYR:539:CD2:9846, V-A:GLU:543:CG:4907, V-B:GLU:543:CD:9880, H-B:TYR:531:OH:9767, V-A:ASP:366:CB:3212, V-A:LEU:475:CD2:4259, H-A:ARG:545:NH2:4928, V-A:GLU:543:CB:4906, V-B:PRO:540:C:9853"]

$$$$
ZINC1615885752
     RDKit          3D

112117  0  0  0  0  0  0  0  0999 V2000
  128.4190  133.3010   58.2470 C   0  0  0  0  0  0  0  0  0  0  0  0
  128.0270  133.2160   59.7160 C   0  0  0  0  0  0  0  0  0  0  0  0
  127.0190  133.7850   60.1330 O   0  0  0  0  0  0  0  0  0  0  0  0
  128.9230  132.4650   60.4320 O   0  0  0  0  0  0  0  0  0  0  0  0
  128.7050  131.2960   61.2950 C   0  0  2  0  0  0  0  0  0  0  0  0
  127.5140  131.5550   62.2530 C   0  0  0  0  0  0  0  0  0  0  0  0
  128.4960  132.0540   63.2870 O   0  0  0  0  0  0  0  0  0  0  0  0
  129.5540  131.2890   62.5740 C   0  0  2  0  0  0  0  0  0  0  0  0
  130.9890  131.7410   62.2460 C   0  0  0  0  0  0  0  0  0  0  0  0
  131.4680  131.0190   60.9270 C   0  0  2  0  0  0  0  0  0  0  0  0
  131.6490  131.9730   59.8920 O   0  0  0  0  0  0  0  0  0  0  0  0
  130.6060  129.7230   60.5280 C   0  0  2  0  0  0  0  0  0  0  0  0
  130.9610  128.8830   61.6180 O   0  0  0  0  0  0  0  0  0  0  0  0
  131.2490  129.0040   59.2880 C   0  0  0  0  0  0  0  0  0  0  0  0
  131.5780  129.6630   58.2980 O   0  0  0  0  0  0  0  0  0  0  0  0
  131.5060  127.4620   59.3200 C   0  0  2  0  0  0  0  0  0  0  0  0
  131.9590  126.9820   58.0640 O   0  0  0  0  0  0  0  0  0  0  0  0
  130.2640  126.6740   59.7750 C   0  0  0  0  0  0  0  0  0  0  0  0
  130.2340  126.0070   60.9750 C   0  0  0  0  0  0  0  0  0  0  0  0
  131.4590  125.7490   61.8530 C   0  0  0  0  0  0  0  0  0  0  0  0
  128.9140  125.5300   61.6300 C   0  0  2  0  0  0  0  0  0  0  0  0
  128.9350  124.1150   61.8230 O   0  0  0  0  0  0  0  0  0  0  0  0
  128.8310  123.2550   60.7780 C   0  0  0  0  0  0  0  0  0  0  0  0
  127.9310  123.2620   59.9320 O   0  0  0  0  0  0  0  0  0  0  0  0
  129.9840  122.2260   60.7600 C   0  0  2  0  0  0  0  0  0  0  0  0
  129.4580  120.9560   61.1180 O   0  0  0  0  0  0  0  0  0  0  0  0
  131.1620  122.5830   61.7230 C   0  0  2  0  0  0  0  0  0  0  0  0
  132.2780  121.6150   61.6650 N   0  0  0  0  0  0  0  0  0  0  0  0
  133.1310  121.4130   60.5820 C   0  0  0  0  0  0  0  0  0  0  0  0
  134.0800  120.6310   60.6010 O   0  0  0  0  0  0  0  0  0  0  0  0
  132.7740  122.1850   59.5110 O   0  0  0  0  0  0  0  0  0  0  0  0
  133.1720  123.5480   59.2870 C   0  0  0  0  0  0  0  0  0  0  0  0
  131.8400  124.3100   59.1370 C   0  0  0  0  0  0  0  0  0  0  0  0
  133.9470  124.1080   60.5050 C   0  0  0  0  0  0  0  0  0  0  0  0
  133.9980  123.6920   57.9850 C   0  0  0  0  0  0  0  0  0  0  0  0
  130.6630  122.8340   63.1530 C   0  0  0  0  0  0  0  0  0  0  0  0
  131.3330  123.7460   63.9750 C   0  0  0  0  0  0  0  0  0  0  0  0
  130.9000  123.9600   65.2810 C   0  0  0  0  0  0  0  0  0  0  0  0
  129.7960  123.2600   65.7650 C   0  0  0  0  0  0  0  0  0  0  0  0
  129.1210  122.3500   64.9540 C   0  0  0  0  0  0  0  0  0  0  0  0
  129.5550  122.1380   63.6480 C   0  0  0  0  0  0  0  0  0  0  0  0
  127.6150  126.0460   60.9170 C   0  0  0  0  0  0  0  0  0  0  0  0
  127.8720  127.2900   59.9990 C   0  0  1  0  0  0  0  0  0  0  0  0
  126.6230  127.5050   59.3610 O   0  0  0  0  0  0  0  0  0  0  0  0
  128.1190  128.6500   60.9030 C   0  0  1  0  0  0  0  0  0  0  0  0
  128.4170  128.3610   62.2860 O   0  0  0  0  0  0  0  0  0  0  0  0
  127.5440  128.5260   63.3350 C   0  0  0  0  0  0  0  0  0  0  0  0
  126.3830  128.9200   63.1970 O   0  0  0  0  0  0  0  0  0  0  0  0
  128.1230  128.1100   64.6550 C   0  0  0  0  0  0  0  0  0  0  0  0
  128.9180  126.9600   64.7880 C   0  0  0  0  0  0  0  0  0  0  0  0
  129.4200  126.5870   66.0320 C   0  0  0  0  0  0  0  0  0  0  0  0
  129.1360  127.3640   67.1520 C   0  0  0  0  0  0  0  0  0  0  0  0
  128.3530  128.5100   67.0370 C   0  0  0  0  0  0  0  0  0  0  0  0
  127.8490  128.8800   65.7950 C   0  0  0  0  0  0  0  0  0  0  0  0
  128.9610  129.9520   60.4310 C   0  0  1  0  0  0  0  0  0  0  0  0
  128.4320  130.3120   58.9950 C   0  0  0  0  0  0  0  0  0  0  0  0
  128.9620  126.7520   58.9390 C   0  0  0  0  0  0  0  0  0  0  0  0
  129.0320  127.5270   57.5750 C   0  0  0  0  0  0  0  0  0  0  0  0
  128.7050  125.2810   58.4290 C   0  0  0  0  0  0  0  0  0  0  0  0
  129.4911  133.5335   58.1665 H   0  0  0  0  0  0  0  0  0  0  0  0
  128.2148  132.3377   57.7567 H   0  0  0  0  0  0  0  0  0  0  0  0
  127.8342  134.0932   57.7567 H   0  0  0  0  0  0  0  0  0  0  0  0
  126.8031  132.3157   61.8980 H   0  0  0  0  0  0  0  0  0  0  0  0
  126.7943  130.7582   62.4919 H   0  0  0  0  0  0  0  0  0  0  0  0
  129.9039  130.4338   63.1708 H   0  0  0  0  0  0  0  0  0  0  0  0
  131.0071  132.8307   62.0970 H   0  0  0  0  0  0  0  0  0  0  0  0
  131.6598  131.4783   63.0773 H   0  0  0  0  0  0  0  0  0  0  0  0
  132.4537  130.5719   61.1232 H   0  0  0  0  0  0  0  0  0  0  0  0
  130.8140  132.0740   59.4250 H   0  0  0  0  0  0  0  0  0  0  0  0
  130.3840  129.0840   62.3570 H   0  0  0  0  0  0  0  0  0  0  0  0
  132.2999  127.2963   60.0632 H   0  0  0  0  0  0  0  0  0  0  0  0
  132.1040  127.7350   57.4860 H   0  0  0  0  0  0  0  0  0  0  0  0
  131.1700  125.8099   62.9126 H   0  0  0  0  0  0  0  0  0  0  0  0
  131.8590  124.7469   61.6390 H   0  0  0  0  0  0  0  0  0  0  0  0
  132.2292  126.5046   61.6390 H   0  0  0  0  0  0  0  0  0  0  0  0
  128.8618  126.0029   62.6218 H   0  0  0  0  0  0  0  0  0  0  0  0
  130.4031  122.2258   59.7430 H   0  0  0  0  0  0  0  0  0  0  0  0
  128.6820  120.7830   60.5790 H   0  0  0  0  0  0  0  0  0  0  0  0
  131.5882  123.5298   61.3598 H   0  0  0  0  0  0  0  0  0  0  0  0
  132.4490  121.0690   62.4970 H   0  0  0  0  0  0  0  0  0  0  0  0
  131.4357  124.5413   60.1335 H   0  0  0  0  0  0  0  0  0  0  0  0
  132.0130  125.2458   58.5852 H   0  0  0  0  0  0  0  0  0  0  0  0
  131.1210  123.6866   58.5852 H   0  0  0  0  0  0  0  0  0  0  0  0
  133.4693  123.7628   61.4338 H   0  0  0  0  0  0  0  0  0  0  0  0
  134.9871  123.7515   60.4732 H   0  0  0  0  0  0  0  0  0  0  0  0
  133.9351  125.2075   60.4732 H   0  0  0  0  0  0  0  0  0  0  0  0
  135.0525  123.8758   58.2382 H   0  0  0  0  0  0  0  0  0  0  0  0
  133.9183  122.7664   57.3960 H   0  0  0  0  0  0  0  0  0  0  0  0
  133.6098  124.5360   57.3960 H   0  0  0  0  0  0  0  0  0  0  0  0
  132.2041  124.2955   63.5888 H   0  0  0  0  0  0  0  0  0  0  0  0
  131.4264  124.6777   65.9274 H   0  0  0  0  0  0  0  0  0  0  0  0
  129.4544  123.4276   66.7971 H   0  0  0  0  0  0  0  0  0  0  0  0
  128.2502  121.8022   65.3433 H   0  0  0  0  0  0  0  0  0  0  0  0
  129.0251  121.4211   63.0036 H   0  0  0  0  0  0  0  0  0  0  0  0
  127.2081  125.2324   60.2986 H   0  0  0  0  0  0  0  0  0  0  0  0
  126.9106  126.3572   61.7025 H   0  0  0  0  0  0  0  0  0  0  0  0
  125.9520  126.9970   59.8240 H   0  0  0  0  0  0  0  0  0  0  0  0
  127.1102  129.0356   60.6943 H   0  0  0  0  0  0  0  0  0  0  0  0
  129.1460  126.3490   63.9022 H   0  0  0  0  0  0  0  0  0  0  0  0
  130.0383  125.6824   66.1296 H   0  0  0  0  0  0  0  0  0  0  0  0
  129.5330  127.0705   68.1350 H   0  0  0  0  0  0  0  0  0  0  0  0
  128.1340  129.1203   67.9256 H   0  0  0  0  0  0  0  0  0  0  0  0
  127.2298  129.7848   65.7056 H   0  0  0  0  0  0  0  0  0  0  0  0
  127.5255  130.9289   59.0822 H   0  0  0  0  0  0  0  0  0  0  0  0
  129.2055  130.8720   58.4490 H   0  0  0  0  0  0  0  0  0  0  0  0
  128.1949  129.3870   58.4490 H   0  0  0  0  0  0  0  0  0  0  0  0
  129.1294  128.6051   57.7704 H   0  0  0  0  0  0  0  0  0  0  0  0
  129.9023  127.1786   56.9996 H   0  0  0  0  0  0  0  0  0  0  0  0
  128.1133  127.3402   56.9996 H   0  0  0  0  0  0  0  0  0  0  0  0
  128.5876  124.6090   59.2919 H   0  0  0  0  0  0  0  0  0  0  0  0
  127.7894  125.2589   57.8198 H   0  0  0  0  0  0  0  0  0  0  0  0
  129.5589  124.9497   57.8198 H   0  0  0  0  0  0  0  0  0  0  0  0
  1  2  1  0
  2  3  2  0
  2  4  1  0
  5  4  1  6
  5  6  1  0
  6  7  1  0
  7  8  1  0
  8  9  1  0
  9 10  1  0
 10 11  1  0
 10 12  1  0
 12 13  1  1
 12 14  1  0
 14 15  2  0
 14 16  1  0
 16 17  1  0
 16 18  1  0
 18 19  2  0
 19 20  1  0
 19 21  1  0
 21 22  1  0
 22 23  1  0
 23 24  2  0
 23 25  1  0
 25 26  1  0
 25 27  1  0
 27 28  1  0
 28 29  1  0
 29 30  2  0
 29 31  1  0
 31 32  1  0
 32 33  1  0
 32 34  1  0
 32 35  1  0
 27 36  1  0
 36 37  2  0
 37 38  1  0
 38 39  2  0
 39 40  1  0
 40 41  2  0
 21 42  1  0
 42 43  1  0
 43 44  1  6
 43 45  1  0
 45 46  1  0
 46 47  1  0
 47 48  2  0
 47 49  1  0
 49 50  2  0
 50 51  1  0
 51 52  2  0
 52 53  1  0
 53 54  2  0
 45 55  1  0
 55 56  1  6
 43 57  1  0
 57 58  1  0
 57 59  1  0
  8  5  1  0
 55 12  1  0
 55  5  1  0
 57 18  1  0
 41 36  1  0
 54 49  1  0
  1 60  1  0
  1 61  1  0
  1 62  1  0
  6 63  1  0
  6 64  1  0
  8 65  1  1
  9 66  1  0
  9 67  1  0
 10 68  1  1
 11 69  1  0
 13 70  1  0
 16 71  1  1
 17 72  1  0
 20 73  1  0
 20 74  1  0
 20 75  1  0
 21 76  1  1
 25 77  1  6
 26 78  1  0
 27 79  1  6
 28 80  1  0
 33 81  1  0
 33 82  1  0
 33 83  1  0
 34 84  1  0
 34 85  1  0
 34 86  1  0
 35 87  1  0
 35 88  1  0
 35 89  1  0
 37 90  1  0
 38 91  1  0
 39 92  1  0
 40 93  1  0
 41 94  1  0
 42 95  1  0
 42 96  1  0
 44 97  1  0
 45 98  1  1
 50 99  1  0
 51100  1  0
 52101  1  0
 53102  1  0
 54103  1  0
 56104  1  0
 56105  1  0
 56106  1  0
 58107  1  0
 58108  1  0
 58109  1  0
 59110  1  0
 59111  1  0
 59112  1  0
M  END
>  <Binding energies>  (1) 
[-5.26]

>  <Ligand effiencies>  (1) 
[-0.07850746268656716]

>  <Interactions>  (1) 
["V-A:ILE:369:CG2:3237, V-A:ASP:366:CA:3210, V-A:ILE:369:C:3232, V-A:ILE:369:CB:3236, V-B:GLU:543:CB:9878, V-B:ALA:541:CB:9864, H-A:TYR:531:OH:4795, V-B:TYR:539:CE2:9848, V-A:TYR:484:CE2:4346, V-B:GLU:543:CG:9879, V-A:ASP:366:CG:3213, V-A:TYR:539:CD1:4873, V-B:TYR:539:CZ:9849, V-A:TYR:539:CA:4869, V-A:GLU:543:CD:4908, V-A:TYR:484:CZ:4347, H-B:ASP:366:OD1:8185, V-B:HIS:456:CE1:9041, V-B:GLU:543:CA:9876, V-A:ILE:369:CD1:3239, V-A:ASP:366:C:3208, V-B:TYR:539:CD2:9846, V-A:GLU:543:CG:4907, H-A:SER:385:OG:3410, V-B:GLU:543:CD:9880, V-A:TYR:539:C:4867, V-A:ASP:366:CB:3212, V-A:LEU:475:CD2:4259, H-A:ARG:545:NH2:4928, H-A:GLU:543:OE1:4909, H-B:ARG:545:NH2:9900, V-A:GLU:543:CB:4906, V-A:PRO:540:N:4884, V-A:TYR:539:CG:4872, V-A:PRO:540:CA:4883, H-B:TYR:539:O:9840, V-A:TYR:539:CE1:4875"]

$$$$
ZINC1616046115
     RDKit          3D

 51 55  0  0  0  0  0  0  0  0999 V2000
  134.4090  124.1800   61.2800 O   0  0  0  0  0  0  0  0  0  0  0  0
  133.3370  124.4370   61.8360 C   0  0  0  0  0  0  0  0  0  0  0  0
  133.2210  124.7180   63.2310 C   0  0  0  0  0  0  0  0  0  0  0  0
  134.1650  124.7380   64.0260 O   0  0  0  0  0  0  0  0  0  0  0  0
  131.9210  124.9480   63.4580 N   0  0  0  0  0  0  0  0  0  0  0  0
  131.3770  125.2690   64.7240 C   0  0  0  0  0  0  0  0  0  0  0  0
  129.9920  125.3980   64.9070 C   0  0  0  0  0  0  0  0  0  0  0  0
  129.4850  125.7110   66.1690 C   0  0  0  0  0  0  0  0  0  0  0  0
  130.3750  125.8860   67.2310 C   0  0  0  0  0  0  0  0  0  0  0  0
  129.8560  126.1870   68.4790 O   0  0  0  0  0  0  0  0  0  0  0  0
  129.6460  127.5500   68.8870 C   0  0  2  0  0  0  0  0  0  0  0  0
  129.1390  127.6190   70.3320 C   0  0  0  0  0  0  0  0  0  0  0  0
  128.0610  126.8100   70.7520 C   0  0  0  0  0  0  0  0  0  0  0  0
  127.6000  126.8500   72.0750 C   0  0  0  0  0  0  0  0  0  0  0  0
  128.2380  127.7210   72.9510 C   0  0  0  0  0  0  0  0  0  0  0  0
  129.2800  128.5090   72.5530 C   0  0  0  0  0  0  0  0  0  0  0  0
  129.7630  128.4840   71.2480 C   0  0  0  0  0  0  0  0  0  0  0  0
  129.7330  129.2270   73.6140 O   0  0  0  0  0  0  0  0  0  0  0  0
  128.8000  129.0150   74.6400 C   0  0  0  0  0  0  0  0  0  0  0  0
  128.0050  127.9190   74.2750 O   0  0  0  0  0  0  0  0  0  0  0  0
  128.6790  128.2150   67.8840 C   0  0  0  0  0  0  0  0  0  0  0  0
  127.5370  127.5330   67.7970 F   0  0  0  0  0  0  0  0  0  0  0  0
  128.3740  129.4660   68.2320 F   0  0  0  0  0  0  0  0  0  0  0  0
  129.2040  128.2570   66.6590 F   0  0  0  0  0  0  0  0  0  0  0  0
  131.7250  125.7710   67.0720 N   0  0  0  0  0  0  0  0  0  0  0  0
  132.2040  125.4660   65.8390 C   0  0  0  0  0  0  0  0  0  0  0  0
  131.2050  124.8350   62.3130 C   0  0  0  0  0  0  0  0  0  0  0  0
  129.9870  125.0200   62.2100 O   0  0  0  0  0  0  0  0  0  0  0  0
  132.0870  124.4980   61.3240 N   0  0  0  0  0  0  0  0  0  0  0  0
  131.7860  124.2680   60.0000 C   0  0  0  0  0  0  0  0  0  0  0  0
  132.6160  124.3580   59.0890 O   0  0  0  0  0  0  0  0  0  0  0  0
  130.3690  123.9030   59.6130 C   0  0  0  0  0  0  0  0  0  0  0  0
  129.6910  124.6950   58.6750 C   0  0  0  0  0  0  0  0  0  0  0  0
  128.3890  124.3840   58.2870 C   0  0  0  0  0  0  0  0  0  0  0  0
  127.7490  123.2720   58.8280 C   0  0  0  0  0  0  0  0  0  0  0  0
  128.4130  122.4690   59.7530 C   0  0  0  0  0  0  0  0  0  0  0  0
  129.7190  122.7720   60.1490 C   0  0  0  0  0  0  0  0  0  0  0  0
  130.4870  121.7070   61.2810 Cl  0  0  0  0  0  0  0  0  0  0  0  0
  129.3076  125.2528   64.0581 H   0  0  0  0  0  0  0  0  0  0  0  0
  128.4014  125.8182   66.3248 H   0  0  0  0  0  0  0  0  0  0  0  0
  130.5967  128.1032   68.8761 H   0  0  0  0  0  0  0  0  0  0  0  0
  127.5752  126.1376   70.0296 H   0  0  0  0  0  0  0  0  0  0  0  0
  126.7648  126.2161   72.4077 H   0  0  0  0  0  0  0  0  0  0  0  0
  130.6063  129.1209   70.9429 H   0  0  0  0  0  0  0  0  0  0  0  0
  129.3233  128.8003   75.5835 H   0  0  0  0  0  0  0  0  0  0  0  0
  128.1777  129.9103   74.7853 H   0  0  0  0  0  0  0  0  0  0  0  0
  133.2919  125.3689   65.7085 H   0  0  0  0  0  0  0  0  0  0  0  0
  130.1928  125.5721   58.2403 H   0  0  0  0  0  0  0  0  0  0  0  0
  127.8673  125.0167   57.5538 H   0  0  0  0  0  0  0  0  0  0  0  0
  126.7201  123.0277   58.5254 H   0  0  0  0  0  0  0  0  0  0  0  0
  127.9053  121.5892   60.1752 H   0  0  0  0  0  0  0  0  0  0  0  0
  1  2  2  0
  2  3  1  0
  3  4  2  0
  3  5  1  0
  5  6  1  0
  6  7  2  0
  7  8  1  0
  8  9  2  0
  9 10  1  0
 10 11  1  0
 11 12  1  0
 12 13  2  0
 13 14  1  0
 14 15  2  0
 15 16  1  0
 16 17  2  0
 16 18  1  0
 18 19  1  0
 19 20  1  0
 11 21  1  0
 21 22  1  0
 21 23  1  0
 21 24  1  0
  9 25  1  0
 25 26  2  0
  5 27  1  0
 27 28  2  0
 27 29  1  0
 29 30  1  0
 30 31  2  0
 30 32  1  0
 32 33  2  0
 33 34  1  0
 34 35  2  0
 35 36  1  0
 36 37  2  0
 37 38  1  0
 29  2  1  0
 37 32  1  0
 26  6  1  0
 17 12  1  0
 20 15  1  0
  7 39  1  0
  8 40  1  0
 11 41  1  1
 13 42  1  0
 14 43  1  0
 17 44  1  0
 19 45  1  0
 19 46  1  0
 26 47  1  0
 33 48  1  0
 34 49  1  0
 35 50  1  0
 36 51  1  0
M  END
>  <Binding energies>  (1) 
[-8.3]

>  <Ligand effiencies>  (1) 
[-0.21842105263157896]

>  <Interactions>  (1) 
["V-B:PRO:540:CA:9855, V-A:GLU:543:CA:4904, V-B:GLU:543:C:9874, V-B:HIS:456:CD2:9039, V-A:GLU:543:C:4902, V-B:GLU:543:CB:9878, H-B:LYS:547:NZ:9923, H-A:ARG:545:NH1:4927, V-B:TYR:539:CE2:9848, V-B:GLU:543:CG:9879, V-B:TYR:539:C:9839, V-B:TYR:484:CE2:9317, V-B:TYR:539:CZ:9849, H-B:TYR:539:OH:9850, V-B:LYS:547:CE:9922, V-A:GLU:543:CD:4908, V-B:HIS:456:CE1:9041, H-A:GLY:454:N:4050, V-B:PRO:540:N:9856, V-A:HIS:456:CE1:4070, V-B:TYR:484:CZ:9318, V-B:GLY:544:C:9884, V-B:TYR:539:CD2:9846, V-B:GLY:544:CA:9886, V-A:GLU:543:CG:4907, V-B:GLU:543:CD:9880, H-A:LYS:547:NZ:4951, H-A:ARG:545:NH2:4928, V-A:ARG:545:CZ:4926, V-A:LEU:475:CD2:4259, V-A:GLU:543:CB:4906, H-A:ARG:545:NE:4924, H-A:TYR:484:OH:4348"]

$$$$
ZINC1616107078
     RDKit          3D

104108  0  0  0  0  0  0  0  0999 V2000
  131.4350  126.5400   74.6950 C   0  0  0  0  0  0  0  0  0  0  0  0
  129.9830  126.9910   74.4570 C   0  0  0  0  0  0  0  0  0  0  0  0
  129.6890  127.1260   73.0340 N   0  0  0  0  0  0  0  0  0  0  0  0
  130.5620  127.4070   72.0210 C   0  0  0  0  0  0  0  0  0  0  0  0
  129.8100  127.4600   70.8490 C   0  0  0  0  0  0  0  0  0  0  0  0
  130.2750  127.6320   69.4790 C   0  0  0  0  0  0  0  0  0  0  0  0
  131.3400  128.2230   69.2800 O   0  0  0  0  0  0  0  0  0  0  0  0
  129.5060  127.1610   68.4550 N   0  0  0  0  0  0  0  0  0  0  0  0
  129.8590  125.9940   67.6250 C   0  0  0  0  0  0  0  0  0  0  0  0
  129.3280  126.3540   66.2240 C   0  0  2  0  0  0  0  0  0  0  0  0
  130.3180  126.0680   65.1800 N   0  0  0  0  0  0  0  0  0  0  0  0
  130.4030  125.0030   64.3600 C   0  0  0  0  0  0  0  0  0  0  0  0
  131.3850  124.8480   63.6340 O   0  0  0  0  0  0  0  0  0  0  0  0
  129.2600  123.9520   64.3220 C   0  0  2  0  0  0  0  0  0  0  0  0
  129.8310  122.5130   64.2700 C   0  0  0  0  0  0  0  0  0  0  0  0
  130.5950  122.1900   62.9970 C   0  0  0  0  0  0  0  0  0  0  0  0
  129.8990  121.7560   61.8490 C   0  0  0  0  0  0  0  0  0  0  0  0
  130.5770  121.5770   60.6520 C   0  0  0  0  0  0  0  0  0  0  0  0
  131.9380  121.8470   60.5700 C   0  0  0  0  0  0  0  0  0  0  0  0
  132.6300  122.3090   61.6830 C   0  0  0  0  0  0  0  0  0  0  0  0
  131.9690  122.4960   62.8900 C   0  0  0  0  0  0  0  0  0  0  0  0
  128.3560  124.1510   63.1790 N   0  0  0  0  0  0  0  0  0  0  0  0
  128.7070  124.4470   61.9150 C   0  0  0  0  0  0  0  0  0  0  0  0
  127.8650  124.4690   61.0170 O   0  0  0  0  0  0  0  0  0  0  0  0
  130.1930  124.7440   61.6120 C   0  0  0  0  0  0  0  0  0  0  0  0
  130.4110  125.6740   60.4870 N   0  0  0  0  0  0  0  0  0  0  0  0
  131.8320  125.8770   60.1360 C   0  0  0  0  0  0  0  0  0  0  0  0
  132.1500  125.4380   58.6970 C   0  0  0  0  0  0  0  0  0  0  0  0
  132.6730  124.1160   58.6980 O   0  0  0  0  0  0  0  0  0  0  0  0
  133.8960  123.9920   59.4070 C   0  0  0  0  0  0  0  0  0  0  0  0
  129.4500  126.4850   59.9380 C   0  0  0  0  0  0  0  0  0  0  0  0
  129.4550  127.7050   60.1230 O   0  0  0  0  0  0  0  0  0  0  0  0
  128.3220  125.9250   58.9890 C   0  0  2  0  0  0  0  0  0  0  0  0
  128.8180  125.1920   57.6950 C   0  0  0  0  0  0  0  0  0  0  0  0
  128.1360  123.8310   57.4000 C   0  0  0  0  0  0  0  0  0  0  0  0
  126.6870  123.9560   56.9010 C   0  0  0  0  0  0  0  0  0  0  0  0
  128.2200  122.8880   58.6190 C   0  0  0  0  0  0  0  0  0  0  0  0
  127.2630  126.8780   58.6270 N   0  0  0  0  0  0  0  0  0  0  0  0
  126.4050  127.5600   59.4080 C   0  0  0  0  0  0  0  0  0  0  0  0
  125.6130  128.3490   58.8980 O   0  0  0  0  0  0  0  0  0  0  0  0
  126.3860  127.3570   60.9420 C   0  0  0  0  0  0  0  0  0  0  0  0
  127.4960  128.0100   61.5770 O   0  0  0  0  0  0  0  0  0  0  0  0
  127.3050  128.3990   62.8840 C   0  0  0  0  0  0  0  0  0  0  0  0
  126.2910  129.2960   63.2300 C   0  0  0  0  0  0  0  0  0  0  0  0
  126.1420  129.7030   64.5570 C   0  0  0  0  0  0  0  0  0  0  0  0
  127.0140  129.2270   65.5370 C   0  0  0  0  0  0  0  0  0  0  0  0
  128.0350  128.3320   65.2000 C   0  0  0  0  0  0  0  0  0  0  0  0
  128.1550  127.9040   63.8740 C   0  0  0  0  0  0  0  0  0  0  0  0
  129.0270  127.8530   66.2620 C   0  0  1  0  0  0  0  0  0  0  0  0
  128.6150  128.0680   67.7180 C   0  0  0  0  0  0  0  0  0  0  0  0
  128.5030  127.1090   71.2800 C   0  0  0  0  0  0  0  0  0  0  0  0
  127.2220  126.9330   70.4860 C   0  0  0  0  0  0  0  0  0  0  0  0
  128.4440  126.9430   72.5860 N   0  0  0  0  0  0  0  0  0  0  0  0
  131.6278  126.4801   75.7763 H   0  0  0  0  0  0  0  0  0  0  0  0
  131.5911  125.5510   74.2394 H   0  0  0  0  0  0  0  0  0  0  0  0
  132.1240  127.2665   74.2394 H   0  0  0  0  0  0  0  0  0  0  0  0
  129.3016  126.2457   74.8932 H   0  0  0  0  0  0  0  0  0  0  0  0
  129.8458  127.9739   74.9315 H   0  0  0  0  0  0  0  0  0  0  0  0
  131.6472  127.5613   72.1128 H   0  0  0  0  0  0  0  0  0  0  0  0
  130.9487  125.8457   67.6032 H   0  0  0  0  0  0  0  0  0  0  0  0
  129.4308  125.0570   68.0106 H   0  0  0  0  0  0  0  0  0  0  0  0
  128.4365  125.7563   65.9830 H   0  0  0  0  0  0  0  0  0  0  0  0
  131.0810  126.7300   65.1350 H   0  0  0  0  0  0  0  0  0  0  0  0
  128.6829  124.0899   65.2482 H   0  0  0  0  0  0  0  0  0  0  0  0
  130.5122  122.3815   65.1236 H   0  0  0  0  0  0  0  0  0  0  0  0
  128.9691  121.8303   64.3023 H   0  0  0  0  0  0  0  0  0  0  0  0
  128.8181  121.5594   61.9031 H   0  0  0  0  0  0  0  0  0  0  0  0
  130.0351  121.2198   59.7639 H   0  0  0  0  0  0  0  0  0  0  0  0
  132.4700  121.6942   59.6194 H   0  0  0  0  0  0  0  0  0  0  0  0
  133.7055  122.5274   61.6077 H   0  0  0  0  0  0  0  0  0  0  0  0
  132.5160  122.8825   63.7626 H   0  0  0  0  0  0  0  0  0  0  0  0
  127.3810  123.9690   63.3710 H   0  0  0  0  0  0  0  0  0  0  0  0
  130.6472  125.1815   62.5132 H   0  0  0  0  0  0  0  0  0  0  0  0
  130.6520  123.7872   61.3223 H   0  0  0  0  0  0  0  0  0  0  0  0
  132.0723  126.9453   60.2405 H   0  0  0  0  0  0  0  0  0  0  0  0
  132.4366  125.2589   60.8161 H   0  0  0  0  0  0  0  0  0  0  0  0
  131.2294  125.4654   58.0956 H   0  0  0  0  0  0  0  0  0  0  0  0
  132.8963  126.1220   58.2666 H   0  0  0  0  0  0  0  0  0  0  0  0
  133.6965  124.0122   60.4886 H   0  0  0  0  0  0  0  0  0  0  0  0
  134.3792  123.0403   59.1410 H   0  0  0  0  0  0  0  0  0  0  0  0
  134.5604  124.8274   59.1410 H   0  0  0  0  0  0  0  0  0  0  0  0
  127.8817  125.1670   59.6536 H   0  0  0  0  0  0  0  0  0  0  0  0
  128.6355  125.8562   56.8374 H   0  0  0  0  0  0  0  0  0  0  0  0
  129.8821  124.9685   57.8617 H   0  0  0  0  0  0  0  0  0  0  0  0
  128.7046  123.3894   56.5683 H   0  0  0  0  0  0  0  0  0  0  0  0
  126.0061  124.0147   57.7630 H   0  0  0  0  0  0  0  0  0  0  0  0
  126.5863  124.8662   56.2915 H   0  0  0  0  0  0  0  0  0  0  0  0
  126.4319  123.0765   56.2915 H   0  0  0  0  0  0  0  0  0  0  0  0
  128.1673  123.4798   59.5447 H   0  0  0  0  0  0  0  0  0  0  0  0
  127.3817  122.1764   58.5905 H   0  0  0  0  0  0  0  0  0  0  0  0
  129.1709  122.3357   58.5905 H   0  0  0  0  0  0  0  0  0  0  0  0
  127.2040  127.0530   57.6340 H   0  0  0  0  0  0  0  0  0  0  0  0
  125.4502  127.7715   61.3451 H   0  0  0  0  0  0  0  0  0  0  0  0
  126.4592  126.2787   61.1465 H   0  0  0  0  0  0  0  0  0  0  0  0
  125.6102  129.6814   62.4567 H   0  0  0  0  0  0  0  0  0  0  0  0
  125.3361  130.3999   64.8305 H   0  0  0  0  0  0  0  0  0  0  0  0
  126.8979  129.5572   66.5798 H   0  0  0  0  0  0  0  0  0  0  0  0
  128.9285  127.1685   63.6082 H   0  0  0  0  0  0  0  0  0  0  0  0
  129.8865  128.4805   65.9834 H   0  0  0  0  0  0  0  0  0  0  0  0
  128.7748  129.1126   68.0233 H   0  0  0  0  0  0  0  0  0  0  0  0
  127.5487  127.8677   67.8993 H   0  0  0  0  0  0  0  0  0  0  0  0
  126.3748  126.8166   71.1779 H   0  0  0  0  0  0  0  0  0  0  0  0
  127.0590  127.8172   69.8522 H   0  0  0  0  0  0  0  0  0  0  0  0
  127.3035  126.0376   69.8522 H   0  0  0  0  0  0  0  0  0  0  0  0
  1  2  1  0
  2  3  1  0
  3  4  1  0
  4  5  2  0
  5  6  1  0
  6  7  2  0
  6  8  1  0
  8  9  1  0
  9 10  1  0
 10 11  1  0
 11 12  1  0
 12 13  2  0
 12 14  1  0
 14 15  1  0
 15 16  1  0
 16 17  2  0
 17 18  1  0
 18 19  2  0
 19 20  1  0
 20 21  2  0
 14 22  1  0
 22 23  1  0
 23 24  2  0
 23 25  1  0
 25 26  1  0
 26 27  1  0
 27 28  1  0
 28 29  1  0
 29 30  1  0
 26 31  1  0
 31 32  2  0
 31 33  1  0
 33 34  1  0
 34 35  1  0
 35 36  1  0
 35 37  1  0
 33 38  1  0
 38 39  1  0
 39 40  2  0
 39 41  1  0
 41 42  1  0
 42 43  1  0
 43 44  2  0
 44 45  1  0
 45 46  2  0
 46 47  1  0
 47 48  2  0
 47 49  1  0
 49 50  1  0
  5 51  1  0
 51 52  1  0
 51 53  2  0
 53  3  1  0
 50  8  1  0
 49 10  1  0
 21 16  1  0
 48 43  1  0
  1 54  1  0
  1 55  1  0
  1 56  1  0
  2 57  1  0
  2 58  1  0
  4 59  1  0
  9 60  1  0
  9 61  1  0
 10 62  1  6
 11 63  1  0
 14 64  1  1
 15 65  1  0
 15 66  1  0
 17 67  1  0
 18 68  1  0
 19 69  1  0
 20 70  1  0
 21 71  1  0
 22 72  1  0
 25 73  1  0
 25 74  1  0
 27 75  1  0
 27 76  1  0
 28 77  1  0
 28 78  1  0
 30 79  1  0
 30 80  1  0
 30 81  1  0
 33 82  1  1
 34 83  1  0
 34 84  1  0
 35 85  1  0
 36 86  1  0
 36 87  1  0
 36 88  1  0
 37 89  1  0
 37 90  1  0
 37 91  1  0
 38 92  1  0
 41 93  1  0
 41 94  1  0
 44 95  1  0
 45 96  1  0
 46 97  1  0
 48 98  1  0
 49 99  1  6
 50100  1  0
 50101  1  0
 52102  1  0
 52103  1  0
 52104  1  0
M  END
>  <Binding energies>  (1) 
[-5.64]

>  <Ligand effiencies>  (1) 
[-0.09724137931034482]

>  <Interactions>  (1) 
["V-A:ILE:369:CG2:3237, V-A:ASP:366:CA:3210, V-B:PRO:540:CA:9855, V-B:GLU:543:C:9874, H-A:GLU:543:OE2:4910, V-A:ILE:369:CB:3236, V-B:GLU:543:CB:9878, H-B:LYS:547:NZ:9923, V-B:ASP:366:CG:8184, V-B:ALA:541:CB:9864, V-B:TYR:539:CE2:9848, V-A:TYR:484:CE2:4346, V-A:GLY:544:C:4912, V-B:GLU:543:CG:9879, V-B:TYR:539:C:9839, V-A:HIS:456:CD2:4068, H-A:ARG:545:N:4920, V-A:ASP:366:CG:3213, V-B:TYR:539:CZ:9849, H-B:GLU:543:OE1:9881, H-B:TYR:539:OH:9850, V-A:GLU:543:CD:4908, V-B:HIS:456:CE1:9041, V-B:PRO:540:N:9856, V-A:HIS:456:CE1:4070, V-A:ILE:369:CD1:3239, V-B:GLY:544:C:9884, V-B:GLY:544:CA:9886, V-A:GLU:543:CG:4907, V-B:TYR:539:CD2:9846, V-B:GLU:543:CD:9880, H-B:TYR:531:OH:9767, V-A:ASP:366:CB:3212, V-A:LEU:475:CD2:4259, H-A:GLU:543:OE1:4909, V-A:GLU:543:CB:4906, H-B:GLU:543:OE2:9882, V-B:TYR:539:CE1:9847"]

$$$$
ZINC1616117509
     RDKit          3D

 71 75  0  0  0  0  0  0  0  0999 V2000
  130.0700  126.8580   74.0250 C   0  0  0  0  0  0  0  0  0  0  0  0
  129.8140  127.1640   72.5560 C   0  0  0  0  0  0  0  0  0  0  0  0
  130.9050  127.3860   71.7070 C   0  0  0  0  0  0  0  0  0  0  0  0
  130.7050  127.6680   70.3570 C   0  0  0  0  0  0  0  0  0  0  0  0
  129.4090  127.7390   69.8390 C   0  0  0  0  0  0  0  0  0  0  0  0
  129.1880  128.0320   68.3630 C   0  0  0  0  0  0  0  0  0  0  0  0
  129.2650  126.7770   67.4690 N   0  0  1  0  0  0  0  0  0  0  0  0
  128.6960  126.9710   66.0470 C   0  0  0  0  0  0  0  0  0  0  0  0
  129.4760  125.9890   65.1370 C   0  0  1  0  0  0  0  0  0  0  0  0
  129.9090  126.5920   63.7590 C   0  0  0  0  0  0  0  0  0  0  0  0
  129.0420  126.2840   62.5160 C   0  0  0  0  0  0  0  0  0  0  0  0
  128.7870  127.1650   61.6990 O   0  0  0  0  0  0  0  0  0  0  0  0
  128.5500  125.0450   62.3330 N   0  0  0  0  0  0  0  0  0  0  0  0
  128.7910  123.8460   63.1380 C   0  0  0  0  0  0  0  0  0  0  0  0
  128.4670  122.5410   62.3710 C   0  0  0  0  0  0  0  0  0  0  0  0
  129.4300  122.2290   61.3030 N   0  0  0  0  0  0  0  0  0  0  0  0
  129.7550  120.7980   61.1980 C   0  0  0  0  0  0  0  0  0  0  0  0
  129.7710  123.1750   60.3810 C   0  0  0  0  0  0  0  0  0  0  0  0
  128.9650  123.6470   59.5780 O   0  0  0  0  0  0  0  0  0  0  0  0
  131.1730  123.5310   60.2940 C   0  0  0  0  0  0  0  0  0  0  0  0
  131.6030  124.2250   59.2040 C   0  0  0  0  0  0  0  0  0  0  0  0
  132.9520  124.7560   59.1680 C   0  0  0  0  0  0  0  0  0  0  0  0
  133.6780  124.6270   60.2940 C   0  0  0  0  0  0  0  0  0  0  0  0
  133.2550  123.9920   61.4420 N   0  0  0  0  0  0  0  0  0  0  0  0
  132.0720  123.2680   61.4360 C   0  0  0  0  0  0  0  0  0  0  0  0
  131.7710  122.4630   62.3240 O   0  0  0  0  0  0  0  0  0  0  0  0
  134.0880  123.9660   62.6660 C   0  0  0  0  0  0  0  0  0  0  0  0
  133.3290  124.3440   63.9320 C   0  0  0  0  0  0  0  0  0  0  0  0
  131.9600  124.4160   64.1400 C   0  0  0  0  0  0  0  0  0  0  0  0
  131.8140  124.9540   65.3920 N   0  0  0  0  0  0  0  0  0  0  0  0
  133.0120  125.1580   65.9520 N   0  0  0  0  0  0  0  0  0  0  0  0
  133.9550  124.7480   65.0260 N   0  0  0  0  0  0  0  0  0  0  0  0
  130.5650  125.3570   66.0450 C   0  0  1  0  0  0  0  0  0  0  0  0
  130.7010  126.2670   67.2680 C   0  0  0  0  0  0  0  0  0  0  0  0
  128.3180  127.5100   70.6800 C   0  0  0  0  0  0  0  0  0  0  0  0
  128.5090  127.2270   72.0370 C   0  0  0  0  0  0  0  0  0  0  0  0
  127.2930  126.9910   72.9230 C   0  0  0  0  0  0  0  0  0  0  0  0
  129.4895  127.5519   74.6507 H   0  0  0  0  0  0  0  0  0  0  0  0
  129.7639  125.8242   74.2429 H   0  0  0  0  0  0  0  0  0  0  0  0
  131.1416  126.9768   74.2429 H   0  0  0  0  0  0  0  0  0  0  0  0
  131.9279  127.3374   72.1087 H   0  0  0  0  0  0  0  0  0  0  0  0
  131.5694  127.8351   69.6975 H   0  0  0  0  0  0  0  0  0  0  0  0
  128.1927  128.4846   68.2430 H   0  0  0  0  0  0  0  0  0  0  0  0
  129.9946  128.7079   68.0426 H   0  0  0  0  0  0  0  0  0  0  0  0
  128.7420  126.0430   67.9240 H   0  0  0  0  0  0  0  0  0  0  0  0
  127.6215  126.7363   66.0300 H   0  0  0  0  0  0  0  0  0  0  0  0
  128.8081  128.0110   65.7067 H   0  0  0  0  0  0  0  0  0  0  0  0
  128.8450  125.1757   64.7491 H   0  0  0  0  0  0  0  0  0  0  0  0
  129.9331  127.6855   63.8758 H   0  0  0  0  0  0  0  0  0  0  0  0
  130.8728  126.1077   63.5430 H   0  0  0  0  0  0  0  0  0  0  0  0
  127.9570  124.9050   61.5270 H   0  0  0  0  0  0  0  0  0  0  0  0
  129.8502  123.8272   63.4342 H   0  0  0  0  0  0  0  0  0  0  0  0
  128.1265  123.8925   64.0134 H   0  0  0  0  0  0  0  0  0  0  0  0
  128.4626  121.7078   63.0892 H   0  0  0  0  0  0  0  0  0  0  0  0
  127.4883  122.6849   61.8899 H   0  0  0  0  0  0  0  0  0  0  0  0
  129.8524  120.3692   62.2063 H   0  0  0  0  0  0  0  0  0  0  0  0
  128.9520  120.2785   60.6546 H   0  0  0  0  0  0  0  0  0  0  0  0
  130.7036  120.6764   60.6546 H   0  0  0  0  0  0  0  0  0  0  0  0
  130.9270  124.3828   58.3507 H   0  0  0  0  0  0  0  0  0  0  0  0
  133.3604  125.2388   58.2679 H   0  0  0  0  0  0  0  0  0  0  0  0
  134.6881  125.0625   60.2985 H   0  0  0  0  0  0  0  0  0  0  0  0
  134.4886  122.9493   62.7918 H   0  0  0  0  0  0  0  0  0  0  0  0
  134.8812  124.7161   62.5309 H   0  0  0  0  0  0  0  0  0  0  0  0
  131.1622  124.1075   63.4484 H   0  0  0  0  0  0  0  0  0  0  0  0
  130.2356  124.3569   66.3633 H   0  0  0  0  0  0  0  0  0  0  0  0
  131.0483  125.7027   68.1460 H   0  0  0  0  0  0  0  0  0  0  0  0
  131.4365  127.0737   67.1330 H   0  0  0  0  0  0  0  0  0  0  0  0
  127.2976  127.5525   70.2714 H   0  0  0  0  0  0  0  0  0  0  0  0
  127.5925  127.0491   73.9798 H   0  0  0  0  0  0  0  0  0  0  0  0
  126.5330  127.7584   72.7146 H   0  0  0  0  0  0  0  0  0  0  0  0
  126.8752  125.9950   72.7146 H   0  0  0  0  0  0  0  0  0  0  0  0
  1  2  1  0
  2  3  2  0
  3  4  1  0
  4  5  2  0
  5  6  1  0
  6  7  1  0
  7  8  1  0
  8  9  1  0
  9 10  1  0
 10 11  1  0
 11 12  2  0
 11 13  1  0
 13 14  1  0
 14 15  1  0
 15 16  1  0
 16 17  1  0
 16 18  1  0
 18 19  2  0
 18 20  1  0
 20 21  2  0
 21 22  1  0
 22 23  2  0
 23 24  1  0
 24 25  1  0
 25 26  2  0
 24 27  1  0
 27 28  1  0
 28 29  2  0
 29 30  1  0
 30 31  1  0
 31 32  2  0
 30 33  1  0
 33 34  1  0
  5 35  1  0
 35 36  2  0
 36 37  1  0
 36  2  1  0
 34  7  1  0
 33  9  1  0
 25 20  1  0
 32 28  1  0
  1 38  1  0
  1 39  1  0
  1 40  1  0
  3 41  1  0
  4 42  1  0
  6 43  1  0
  6 44  1  0
  7 45  1  1
  8 46  1  0
  8 47  1  0
  9 48  1  6
 10 49  1  0
 10 50  1  0
 13 51  1  0
 14 52  1  0
 14 53  1  0
 15 54  1  0
 15 55  1  0
 17 56  1  0
 17 57  1  0
 17 58  1  0
 21 59  1  0
 22 60  1  0
 23 61  1  0
 27 62  1  0
 27 63  1  0
 29 64  1  0
 33 65  1  1
 34 66  1  0
 34 67  1  0
 35 68  1  0
 37 69  1  0
 37 70  1  0
 37 71  1  0
M  CHG  1   7   1
M  END
>  <Binding energies>  (1) 
[-6.16]

>  <Ligand effiencies>  (1) 
[-0.15024390243902438]

>  <Interactions>  (1) 
["V-A:ASP:366:CA:3210, V-A:GLY:454:CA:4049, V-B:HIS:456:CD2:9039, H-B:GLU:543:O:9875, V-A:GLU:543:C:4902, V-B:GLU:543:CB:9878, V-B:ALA:541:CB:9864, V-B:TYR:539:CE2:9848, V-B:GLU:543:CG:9879, V-A:GLY:544:C:4912, V-B:TYR:539:C:9839, V-A:HIS:456:CD2:4068, V-A:ASP:366:CG:3213, V-B:TYR:539:CZ:9849, H-B:GLU:543:OE1:9881, V-B:LYS:547:CE:9922, V-A:TYR:484:CZ:4347, V-A:GLU:543:CD:4908, V-B:HIS:456:CE1:9041, H-A:GLY:454:N:4050, V-A:GLY:453:C:4042, V-A:HIS:456:CE1:4070, V-A:ILE:369:CD1:3239, V-B:GLY:544:C:9884, V-B:TYR:539:CD2:9846, V-B:GLU:543:CD:9880, V-A:ASP:366:CB:3212, V-A:LEU:475:CD2:4259, H-A:ARG:545:NH2:4928, V-A:ARG:545:CZ:4926, V-A:GLU:543:CB:4906, V-A:HIS:456:CG:4066, H-A:ARG:545:NE:4924, H-A:TYR:484:OH:4348"]

$$$$
ZINC1616172626
     RDKit          3D

 63 64  0  0  0  0  0  0  0  0999 V2000
  130.1900  127.9300   69.7610 C   0  0  0  0  0  0  0  0  0  0  0  0
  129.4130  126.7660   69.1230 C   0  0  2  0  0  0  0  0  0  0  0  0
  129.9300  126.5620   67.7660 N   0  0  0  0  0  0  0  0  0  0  0  0
  129.9210  125.4030   67.0770 C   0  0  0  0  0  0  0  0  0  0  0  0
  129.4990  124.3550   67.5720 O   0  0  0  0  0  0  0  0  0  0  0  0
  130.4730  125.4700   65.7230 C   0  0  0  0  0  0  0  0  0  0  0  0
  129.6930  125.8830   64.6930 C   0  0  0  0  0  0  0  0  0  0  0  0
  130.1420  125.9930   63.2370 C   0  0  2  0  0  0  0  0  0  0  0  0
  129.1840  125.3840   62.3690 O   0  0  0  0  0  0  0  0  0  0  0  0
  129.2090  124.0280   62.1020 C   0  0  0  0  0  0  0  0  0  0  0  0
  129.6850  123.0510   62.9950 C   0  0  0  0  0  0  0  0  0  0  0  0
  129.6690  121.7010   62.6440 C   0  0  0  0  0  0  0  0  0  0  0  0
  129.1770  121.3080   61.4010 C   0  0  0  0  0  0  0  0  0  0  0  0
  128.7010  122.2660   60.5080 C   0  0  0  0  0  0  0  0  0  0  0  0
  128.7150  123.6170   60.8570 C   0  0  0  0  0  0  0  0  0  0  0  0
  128.0390  124.8990   59.6160 Br  0  0  0  0  0  0  0  0  0  0  0  0
  131.5010  125.2960   62.9990 C   0  0  1  0  0  0  0  0  0  0  0  0
  132.0070  125.7500   61.7380 O   0  0  0  0  0  0  0  0  0  0  0  0
  131.3170  126.6050   60.9510 C   0  0  0  0  0  0  0  0  0  0  0  0
  130.7780  126.3040   59.8840 O   0  0  0  0  0  0  0  0  0  0  0  0
  131.3090  127.8540   61.5520 N   0  0  0  0  0  0  0  0  0  0  0  0
  130.5790  128.9980   61.0080 C   0  0  0  0  0  0  0  0  0  0  0  0
  131.2970  130.3430   61.2310 C   0  0  0  0  0  0  0  0  0  0  0  0
  131.7140  131.1440   59.6920 Cl  0  0  0  0  0  0  0  0  0  0  0  0
  132.4970  125.5630   64.1480 C   0  0  2  0  0  0  0  0  0  0  0  0
  133.7520  124.9410   63.8610 O   0  0  0  0  0  0  0  0  0  0  0  0
  133.8730  123.9490   62.9520 C   0  0  0  0  0  0  0  0  0  0  0  0
  133.7550  122.7470   63.2000 O   0  0  0  0  0  0  0  0  0  0  0  0
  134.1410  124.5100   61.7130 N   0  0  0  0  0  0  0  0  0  0  0  0
  134.2750  123.7220   60.4880 C   0  0  0  0  0  0  0  0  0  0  0  0
  132.9560  123.0760   60.0290 C   0  0  0  0  0  0  0  0  0  0  0  0
  132.8430  121.3660   60.5260 Cl  0  0  0  0  0  0  0  0  0  0  0  0
  131.9350  125.0420   65.4950 C   0  0  0  0  0  0  0  0  0  0  0  0
  127.8980  127.0530   69.1250 C   0  0  0  0  0  0  0  0  0  0  0  0
  127.2010  126.6050   70.1730 N   0  0  0  0  0  0  0  0  0  0  0  0
  127.3840  127.6890   68.2040 O   0  0  0  0  0  0  0  0  0  0  0  0
  130.1364  127.8497   70.8568 H   0  0  0  0  0  0  0  0  0  0  0  0
  131.2417  127.8877   69.4413 H   0  0  0  0  0  0  0  0  0  0  0  0
  129.7476  128.8850   69.4413 H   0  0  0  0  0  0  0  0  0  0  0  0
  129.5560  125.8447   69.7067 H   0  0  0  0  0  0  0  0  0  0  0  0
  130.2850  127.3910   67.3130 H   0  0  0  0  0  0  0  0  0  0  0  0
  128.6542  126.1609   64.9246 H   0  0  0  0  0  0  0  0  0  0  0  0
  130.2383  127.0671   63.0200 H   0  0  0  0  0  0  0  0  0  0  0  0
  130.0732  123.3541   63.9786 H   0  0  0  0  0  0  0  0  0  0  0  0
  130.0453  120.9456   63.3495 H   0  0  0  0  0  0  0  0  0  0  0  0
  129.1644  120.2432   61.1251 H   0  0  0  0  0  0  0  0  0  0  0  0
  128.3135  121.9567   59.5261 H   0  0  0  0  0  0  0  0  0  0  0  0
  131.3628  124.2049   62.9782 H   0  0  0  0  0  0  0  0  0  0  0  0
  131.7880  127.9660   62.4330 H   0  0  0  0  0  0  0  0  0  0  0  0
  130.4495  128.8468   59.9262 H   0  0  0  0  0  0  0  0  0  0  0  0
  129.6165  129.0514   61.5379 H   0  0  0  0  0  0  0  0  0  0  0  0
  130.6364  131.0063   61.8086 H   0  0  0  0  0  0  0  0  0  0  0  0
  132.2329  130.1418   61.7728 H   0  0  0  0  0  0  0  0  0  0  0  0
  132.6466  126.6493   64.2352 H   0  0  0  0  0  0  0  0  0  0  0  0
  134.2070  125.5150   61.6460 H   0  0  0  0  0  0  0  0  0  0  0  0
  134.6371  124.3826   59.6864 H   0  0  0  0  0  0  0  0  0  0  0  0
  134.9790  122.9046   60.7033 H   0  0  0  0  0  0  0  0  0  0  0  0
  132.1156  123.6310   60.4714 H   0  0  0  0  0  0  0  0  0  0  0  0
  132.9225  123.1141   58.9302 H   0  0  0  0  0  0  0  0  0  0  0  0
  131.9866  123.9432   65.4985 H   0  0  0  0  0  0  0  0  0  0  0  0
  132.5425  125.4753   66.3032 H   0  0  0  0  0  0  0  0  0  0  0  0
  127.6600  126.0900   70.9090 H   0  0  0  0  0  0  0  0  0  0  0  0
  126.2070  126.7730   70.2280 H   0  0  0  0  0  0  0  0  0  0  0  0
  1  2  1  0
  2  3  1  0
  3  4  1  0
  4  5  2  0
  4  6  1  0
  6  7  2  0
  7  8  1  0
  8  9  1  0
  9 10  1  0
 10 11  2  0
 11 12  1  0
 12 13  2  0
 13 14  1  0
 14 15  2  0
 15 16  1  0
  8 17  1  0
 17 18  1  0
 18 19  1  0
 19 20  2  0
 19 21  1  0
 21 22  1  0
 22 23  1  0
 23 24  1  0
 17 25  1  0
 25 26  1  0
 26 27  1  0
 27 28  2  0
 27 29  1  0
 29 30  1  0
 30 31  1  0
 31 32  1  0
 25 33  1  0
  2 34  1  0
 34 35  1  0
 34 36  2  0
 33  6  1  0
 15 10  1  0
  1 37  1  0
  1 38  1  0
  1 39  1  0
  2 40  1  1
  3 41  1  0
  7 42  1  0
  8 43  1  6
 11 44  1  0
 12 45  1  0
 13 46  1  0
 14 47  1  0
 17 48  1  6
 21 49  1  0
 22 50  1  0
 22 51  1  0
 23 52  1  0
 23 53  1  0
 25 54  1  1
 29 55  1  0
 30 56  1  0
 30 57  1  0
 31 58  1  0
 31 59  1  0
 33 60  1  0
 33 61  1  0
 35 62  1  0
 35 63  1  0
M  END
>  <Binding energies>  (1) 
[-7.46]

>  <Ligand effiencies>  (1) 
[-0.18195121951219512]

>  <Interactions>  (1) 
["V-A:ILE:369:CG2:3237, V-B:PRO:540:CA:9855, V-A:GLY:454:CA:4049, V-B:GLU:543:C:9874, H-A:GLU:543:OE2:4910, H-B:GLU:543:O:9875, V-A:GLU:543:C:4902, V-A:ILE:369:CB:3236, V-B:GLU:543:CB:9878, V-B:ALA:541:CB:9864, H-A:ARG:545:NH1:4927, V-B:TYR:539:CE2:9848, V-B:GLU:543:CG:9879, V-B:TYR:539:C:9839, V-A:ASP:366:CG:3213, V-A:GLU:543:CD:4908, V-A:TYR:484:CZ:4347, V-B:HIS:456:CE1:9041, H-A:GLY:454:N:4050, V-A:GLY:453:C:4042, V-A:HIS:456:CE1:4070, V-A:ILE:369:CD1:3239, V-B:GLY:544:C:9884, V-B:GLY:544:CA:9886, V-B:TYR:539:CD2:9846, V-B:GLU:543:CD:9880, V-A:ILE:369:CG1:3238, V-A:LEU:475:CD2:4259, H-A:ARG:545:NH2:4928, V-A:ARG:545:CZ:4926, H-A:GLU:543:OE1:4909, V-A:GLU:543:CB:4906, H-A:ASP:366:OD1:3214, H-B:GLY:544:O:9885, V-A:PRO:540:CB:4885, V-A:PRO:540:CA:4883, H-A:ARG:545:NE:4924, V-B:PRO:540:C:9853, H-A:ASP:366:OD2:3215, H-A:TYR:484:OH:4348"]

$$$$
ZINC16193656
     RDKit          3D

 42 45  0  0  0  0  0  0  0  0999 V2000
  134.2800  124.6160   62.6850 C   0  0  0  0  0  0  0  0  0  0  0  0
  133.9170  124.4590   64.0520 O   0  0  0  0  0  0  0  0  0  0  0  0
  132.5800  124.3760   64.3890 C   0  0  0  0  0  0  0  0  0  0  0  0
  131.9880  123.1130   64.3060 C   0  0  0  0  0  0  0  0  0  0  0  0
  130.6430  122.9280   64.6250 C   0  0  0  0  0  0  0  0  0  0  0  0
  129.8680  124.0130   65.0310 C   0  0  0  0  0  0  0  0  0  0  0  0
  130.4400  125.2880   65.1180 C   0  0  0  0  0  0  0  0  0  0  0  0
  129.6550  126.3960   65.5400 N   0  0  0  0  0  0  0  0  0  0  0  0
  129.7440  126.7200   66.8860 C   0  0  0  0  0  0  0  0  0  0  0  0
  130.4090  126.0450   67.6810 O   0  0  0  0  0  0  0  0  0  0  0  0
  128.9730  127.9060   67.3220 C   0  0  0  0  0  0  0  0  0  0  0  0
  129.0800  128.4300   68.5780 C   0  0  0  0  0  0  0  0  0  0  0  0
  129.9250  128.0690   69.7080 C   0  0  0  0  0  0  0  0  0  0  0  0
  131.2850  127.8110   69.7030 C   0  0  0  0  0  0  0  0  0  0  0  0
  131.7250  127.5200   70.9670 N   0  0  0  0  0  0  0  0  0  0  0  0
  130.6740  127.5910   71.8520 C   0  0  0  0  0  0  0  0  0  0  0  0
  130.6220  127.3850   73.2350 C   0  0  0  0  0  0  0  0  0  0  0  0
  129.3810  127.5420   73.8510 C   0  0  0  0  0  0  0  0  0  0  0  0
  128.2390  127.8860   73.1310 C   0  0  0  0  0  0  0  0  0  0  0  0
  126.5790  128.0820   74.0420 Br  0  0  0  0  0  0  0  0  0  0  0  0
  128.2940  128.0890   71.7540 C   0  0  0  0  0  0  0  0  0  0  0  0
  129.5200  127.9440   71.0840 C   0  0  0  0  0  0  0  0  0  0  0  0
  128.0520  128.5730   66.3930 C   0  0  0  0  0  0  0  0  0  0  0  0
  127.2900  129.5000   66.6730 O   0  0  0  0  0  0  0  0  0  0  0  0
  128.0840  128.1050   65.1250 N   0  0  0  0  0  0  0  0  0  0  0  0
  128.8390  127.0770   64.6330 C   0  0  0  0  0  0  0  0  0  0  0  0
  128.6630  126.7630   62.9960 S   0  0  0  0  0  0  0  0  0  0  0  0
  131.7950  125.4660   64.8000 C   0  0  0  0  0  0  0  0  0  0  0  0
  135.2879  125.0519   62.6210 H   0  0  0  0  0  0  0  0  0  0  0  0
  134.2729  123.6344   62.1887 H   0  0  0  0  0  0  0  0  0  0  0  0
  133.5598  125.2831   62.1887 H   0  0  0  0  0  0  0  0  0  0  0  0
  132.5919  122.2517   63.9842 H   0  0  0  0  0  0  0  0  0  0  0  0
  130.1940  121.9262   64.5562 H   0  0  0  0  0  0  0  0  0  0  0  0
  128.8072  123.8676   65.2830 H   0  0  0  0  0  0  0  0  0  0  0  0
  128.4065  129.2779   68.7716 H   0  0  0  0  0  0  0  0  0  0  0  0
  131.9239  127.8362   68.8079 H   0  0  0  0  0  0  0  0  0  0  0  0
  132.6890  127.2960   71.1700 H   0  0  0  0  0  0  0  0  0  0  0  0
  131.5191  127.1117   73.8100 H   0  0  0  0  0  0  0  0  0  0  0  0
  129.3013  127.3898   74.9375 H   0  0  0  0  0  0  0  0  0  0  0  0
  127.3855  128.3604   71.1963 H   0  0  0  0  0  0  0  0  0  0  0  0
  127.4840  128.5400   64.4410 H   0  0  0  0  0  0  0  0  0  0  0  0
  132.2459  126.4667   64.8731 H   0  0  0  0  0  0  0  0  0  0  0  0
  1  2  1  0
  2  3  1  0
  3  4  2  0
  4  5  1  0
  5  6  2  0
  6  7  1  0
  7  8  1  0
  8  9  1  0
  9 10  2  0
  9 11  1  0
 11 12  2  0
 12 13  1  0
 13 14  2  0
 14 15  1  0
 15 16  1  0
 16 17  2  0
 17 18  1  0
 18 19  2  0
 19 20  1  0
 19 21  1  0
 21 22  2  0
 11 23  1  0
 23 24  2  0
 23 25  1  0
 25 26  1  0
 26 27  2  0
  7 28  2  0
 28  3  1  0
 26  8  1  0
 22 13  1  0
 22 16  1  0
  1 29  1  0
  1 30  1  0
  1 31  1  0
  4 32  1  0
  5 33  1  0
  6 34  1  0
 12 35  1  0
 14 36  1  0
 15 37  1  0
 17 38  1  0
 18 39  1  0
 21 40  1  0
 25 41  1  0
 28 42  1  0
M  END
>  <Binding energies>  (1) 
[-7.93]

>  <Ligand effiencies>  (1) 
[-0.2643333333333333]

>  <Interactions>  (1) 
["V-A:ARG:545:CA:4919, V-B:HIS:456:CD2:9039, V-A:GLU:543:C:4902, V-B:GLU:543:CB:9878, V-B:HIS:456:CB:9036, V-A:TYR:484:CE2:4346, V-B:GLU:543:CG:9879, V-A:GLY:544:C:4912, V-A:HIS:456:CD2:4068, H-B:GLU:543:OE1:9881, V-B:LYS:547:CE:9922, V-A:GLU:543:CD:4908, V-A:TYR:484:CZ:4347, H-B:TYR:484:OH:9319, V-B:HIS:456:CE1:9041, H-A:GLY:454:N:4050, V-A:ARG:545:CG:4922, V-A:GLY:453:C:4042, V-A:ILE:369:CD1:3239, V-A:HIS:456:CE1:4070, V-A:GLU:543:CG:4907, V-B:GLU:543:CD:9880, V-B:HIS:456:CG:9037, V-A:LEU:475:CD2:4259, H-A:ARG:545:NH2:4928, V-A:ARG:545:CZ:4926, V-A:GLU:543:CB:4906, V-A:HIS:456:CG:4066, H-B:GLU:543:OE2:9882, V-A:GLY:453:CA:4044, H-A:GLY:544:O:4913, H-A:HIS:456:NE2:4071, H-A:TYR:484:OH:4348"]

$$$$
ZINC162338119
     RDKit          3D

 73 78  0  0  0  0  0  0  0  0999 V2000
  128.2350  128.6910   62.1510 C   0  0  0  0  0  0  0  0  0  0  0  0
  127.7370  128.6650   60.7000 C   0  0  0  0  0  0  0  0  0  0  0  0
  126.4790  127.7950   60.5160 C   0  0  0  0  0  0  0  0  0  0  0  0
  126.6940  126.5880   59.5880 C   0  0  0  0  0  0  0  0  0  0  0  0
  126.4620  125.3790   60.3080 O   0  0  0  0  0  0  0  0  0  0  0  0
  127.5420  124.6620   60.7870 C   0  0  0  0  0  0  0  0  0  0  0  0
  127.4680  123.2700   60.6900 C   0  0  0  0  0  0  0  0  0  0  0  0
  128.5170  122.4670   61.1340 C   0  0  0  0  0  0  0  0  0  0  0  0
  129.6580  123.0500   61.6790 C   0  0  0  0  0  0  0  0  0  0  0  0
  129.7530  124.4390   61.7940 C   0  0  0  0  0  0  0  0  0  0  0  0
  131.0220  125.0700   62.3820 C   0  0  1  0  0  0  0  0  0  0  0  0
  131.6740  124.2000   63.4340 C   0  0  0  0  0  0  0  0  0  0  0  0
  131.0080  123.7410   64.6130 C   0  0  0  0  0  0  0  0  0  0  0  0
  130.8920  122.4940   64.8590 O   0  0  0  0  0  0  0  0  0  0  0  0
  130.3630  124.7330   65.4140 C   0  0  0  0  0  0  0  0  0  0  0  0
  130.2570  124.5680   66.8110 C   0  0  0  0  0  0  0  0  0  0  0  0
  129.6020  125.5160   67.6010 C   0  0  0  0  0  0  0  0  0  0  0  0
  129.0590  126.6350   66.9790 C   0  0  0  0  0  0  0  0  0  0  0  0
  129.1350  126.8190   65.6120 C   0  0  0  0  0  0  0  0  0  0  0  0
  129.7640  125.8590   64.8190 C   0  0  0  0  0  0  0  0  0  0  0  0
  128.3600  128.0500   65.2720 C   0  0  0  0  0  0  0  0  0  0  0  0
  128.1130  128.6550   66.6650 C   0  0  1  0  0  0  0  0  0  0  0  0
  126.7180  129.2570   66.8810 C   0  0  0  0  0  0  0  0  0  0  0  0
  128.3660  127.6260   67.6250 O   0  0  0  0  0  0  0  0  0  0  0  0
  132.9700  123.8630   63.0040 C   0  0  0  0  0  0  0  0  0  0  0  0
  133.8630  123.1320   63.5430 O   0  0  0  0  0  0  0  0  0  0  0  0
  133.2080  124.6060   61.6490 C   0  0  0  0  0  0  0  0  0  0  0  0
  134.2490  124.5370   60.9880 O   0  0  0  0  0  0  0  0  0  0  0  0
  132.0800  125.3200   61.3900 N   0  0  0  0  0  0  0  0  0  0  0  0
  131.8800  126.1990   60.3130 C   0  0  0  0  0  0  0  0  0  0  0  0
  132.2970  125.9720   59.0880 N   0  0  0  0  0  0  0  0  0  0  0  0
  131.9720  126.9910   58.1980 N   0  0  0  0  0  0  0  0  0  0  0  0
  131.2930  127.9700   58.7500 C   0  0  0  0  0  0  0  0  0  0  0  0
  130.7090  129.4290   57.9460 S   0  0  0  0  0  0  0  0  0  0  0  0
  131.9410  130.6680   58.4810 C   0  0  0  0  0  0  0  0  0  0  0  0
  131.7760  131.0840   59.9410 C   0  0  0  0  0  0  0  0  0  0  0  0
  130.5130  131.0360   60.5430 C   0  0  0  0  0  0  0  0  0  0  0  0
  130.3520  131.4080   61.8770 C   0  0  0  0  0  0  0  0  0  0  0  0
  131.4510  131.8390   62.6190 C   0  0  0  0  0  0  0  0  0  0  0  0
  132.7110  131.9000   62.0240 C   0  0  0  0  0  0  0  0  0  0  0  0
  132.8750  131.5260   60.6900 C   0  0  0  0  0  0  0  0  0  0  0  0
  134.1040  131.6020   60.1280 F   0  0  0  0  0  0  0  0  0  0  0  0
  131.0220  127.7170   60.4560 S   0  0  0  0  0  0  0  0  0  0  0  0
  128.6930  125.2390   61.3500 C   0  0  0  0  0  0  0  0  0  0  0  0
  127.3746  128.6461   62.8348 H   0  0  0  0  0  0  0  0  0  0  0  0
  128.8906  127.8259   62.3292 H   0  0  0  0  0  0  0  0  0  0  0  0
  128.7969  129.6197   62.3292 H   0  0  0  0  0  0  0  0  0  0  0  0
  127.5010  129.6940   60.3910 H   0  0  0  0  0  0  0  0  0  0  0  0
  128.5357  128.2268   60.0836 H   0  0  0  0  0  0  0  0  0  0  0  0
  126.1662  127.4232   61.5029 H   0  0  0  0  0  0  0  0  0  0  0  0
  125.7140  128.4304   60.0458 H   0  0  0  0  0  0  0  0  0  0  0  0
  125.9945  126.6490   58.7412 H   0  0  0  0  0  0  0  0  0  0  0  0
  127.7287  126.5961   59.2147 H   0  0  0  0  0  0  0  0  0  0  0  0
  126.5710  122.8023   60.2580 H   0  0  0  0  0  0  0  0  0  0  0  0
  128.4435  121.3724   61.0539 H   0  0  0  0  0  0  0  0  0  0  0  0
  130.4881  122.4141   62.0205 H   0  0  0  0  0  0  0  0  0  0  0  0
  130.6481  126.0157   62.8012 H   0  0  0  0  0  0  0  0  0  0  0  0
  130.6971  123.6787   67.2859 H   0  0  0  0  0  0  0  0  0  0  0  0
  129.5178  125.3805   68.6894 H   0  0  0  0  0  0  0  0  0  0  0  0
  129.7919  125.9824   63.7263 H   0  0  0  0  0  0  0  0  0  0  0  0
  128.9461  128.7306   64.6370 H   0  0  0  0  0  0  0  0  0  0  0  0
  127.4412  127.8562   64.6991 H   0  0  0  0  0  0  0  0  0  0  0  0
  128.7931  129.5124   66.7759 H   0  0  0  0  0  0  0  0  0  0  0  0
  126.5187  129.3430   67.9594 H   0  0  0  0  0  0  0  0  0  0  0  0
  126.6735  130.2544   66.4192 H   0  0  0  0  0  0  0  0  0  0  0  0
  125.9618  128.6051   66.4192 H   0  0  0  0  0  0  0  0  0  0  0  0
  132.9464  130.2414   58.3499 H   0  0  0  0  0  0  0  0  0  0  0  0
  131.7918  131.5668   57.8646 H   0  0  0  0  0  0  0  0  0  0  0  0
  129.6420  130.7026   59.9597 H   0  0  0  0  0  0  0  0  0  0  0  0
  129.3573  131.3614   62.3444 H   0  0  0  0  0  0  0  0  0  0  0  0
  131.3245  132.1305   63.6721 H   0  0  0  0  0  0  0  0  0  0  0  0
  133.5775  132.2438   62.6080 H   0  0  0  0  0  0  0  0  0  0  0  0
  128.7622  126.3329   61.4431 H   0  0  0  0  0  0  0  0  0  0  0  0
  1  2  1  0
  2  3  1  0
  3  4  1  0
  4  5  1  0
  5  6  1  0
  6  7  2  0
  7  8  1  0
  8  9  2  0
  9 10  1  0
 10 11  1  0
 11 12  1  0
 12 13  1  0
 13 14  2  0
 13 15  1  0
 15 16  2  0
 16 17  1  0
 17 18  2  0
 18 19  1  0
 19 20  2  0
 19 21  1  0
 21 22  1  0
 22 23  1  0
 22 24  1  0
 12 25  2  0
 25 26  1  0
 25 27  1  0
 27 28  2  0
 27 29  1  0
 29 30  1  0
 30 31  2  0
 31 32  1  0
 32 33  2  0
 33 34  1  0
 34 35  1  0
 35 36  1  0
 36 37  2  0
 37 38  1  0
 38 39  2  0
 39 40  1  0
 40 41  2  0
 41 42  1  0
 33 43  1  0
 10 44  2  0
 44  6  1  0
 29 11  1  0
 43 30  1  0
 20 15  1  0
 41 36  1  0
 24 18  1  0
  1 45  1  0
  1 46  1  0
  1 47  1  0
  2 48  1  0
  2 49  1  0
  3 50  1  0
  3 51  1  0
  4 52  1  0
  4 53  1  0
  7 54  1  0
  8 55  1  0
  9 56  1  0
 11 57  1  1
 16 58  1  0
 17 59  1  0
 20 60  1  0
 21 61  1  0
 21 62  1  0
 22 63  1  1
 23 64  1  0
 23 65  1  0
 23 66  1  0
 35 67  1  0
 35 68  1  0
 37 69  1  0
 38 70  1  0
 39 71  1  0
 40 72  1  0
 44 73  1  0
M  CHG  1  26  -1
M  END
>  <Binding energies>  (1) 
[-7.23]

>  <Ligand effiencies>  (1) 
[-0.16431818181818184]

>  <Interactions>  (1) 
["V-B:PRO:540:CA:9855, V-B:GLU:543:CB:9878, V-B:ASP:366:CG:8184, H-A:TYR:531:OH:4795, V-A:TYR:484:CE2:4346, V-B:GLU:543:CG:9879, V-A:ASP:366:CG:3213, V-A:ASN:362:CB:3176, V-A:LEU:363:CB:3187, V-A:LEU:363:CD1:3189, V-A:TYR:484:CZ:4347, V-A:GLU:543:CD:4908, V-B:HIS:456:CE1:9041, V-B:GLU:543:CA:9876, H-A:GLY:454:N:4050, V-A:HIS:456:CE1:4070, V-B:TYR:484:CZ:9318, V-A:ALA:541:CA:4890, V-A:GLU:543:CG:4907, V-B:GLU:543:CD:9880, V-A:ASP:366:CB:3212, V-A:ASN:362:C:3172, V-A:GLU:543:CB:4906, V-A:PRO:540:CB:4885, V-A:PRO:540:CA:4883, V-A:LEU:363:CA:3185, H-A:TYR:484:OH:4348"]

$$$$
ZINC16247617
     RDKit          3D

 40 43  0  0  0  0  0  0  0  0999 V2000
  131.3310  123.6240   60.5360 H   0  0  0  0  0  0  0  0  0  0  0  0
  130.6030  123.5190   59.8430 N   0  0  0  0  0  0  0  0  0  0  0  0
  129.4360  123.5250   60.3460 C   0  0  0  0  0  0  0  0  0  0  0  0
  129.0780  123.6760   61.7740 C   0  0  0  0  0  0  0  0  0  0  0  0
  129.9870  124.2340   62.6280 C   0  0  0  0  0  0  0  0  0  0  0  0
  129.8700  124.6110   64.0550 C   0  0  0  0  0  0  0  0  0  0  0  0
  129.9610  123.6580   65.0770 C   0  0  0  0  0  0  0  0  0  0  0  0
  129.8400  124.0460   66.4090 C   0  0  0  0  0  0  0  0  0  0  0  0
  129.6280  125.3910   66.7260 C   0  0  0  0  0  0  0  0  0  0  0  0
  129.4920  125.8010   68.0350 O   0  0  0  0  0  0  0  0  0  0  0  0
  128.6490  126.8340   68.3540 C   0  0  0  0  0  0  0  0  0  0  0  0
  127.8980  127.3870   67.5450 O   0  0  0  0  0  0  0  0  0  0  0  0
  128.7160  127.2010   69.8120 C   0  0  0  0  0  0  0  0  0  0  0  0
  127.5940  126.9730   70.6290 C   0  0  0  0  0  0  0  0  0  0  0  0
  127.6040  127.3130   71.9810 C   0  0  0  0  0  0  0  0  0  0  0  0
  128.7390  127.8840   72.5460 C   0  0  0  0  0  0  0  0  0  0  0  0
  128.7530  128.3100   74.2190 Cl  0  0  0  0  0  0  0  0  0  0  0  0
  129.8640  128.1100   71.7580 C   0  0  0  0  0  0  0  0  0  0  0  0
  129.8670  127.7730   70.4030 C   0  0  0  0  0  0  0  0  0  0  0  0
  131.3360  128.0690   69.5290 Cl  0  0  0  0  0  0  0  0  0  0  0  0
  129.5060  126.3370   65.7090 C   0  0  0  0  0  0  0  0  0  0  0  0
  129.6260  125.9470   64.3780 C   0  0  0  0  0  0  0  0  0  0  0  0
  127.7300  123.2570   62.2410 C   0  0  0  0  0  0  0  0  0  0  0  0
  127.5870  122.8650   63.3990 O   0  0  0  0  0  0  0  0  0  0  0  0
  126.7190  123.2920   61.2670 N   0  0  0  0  0  0  0  0  0  0  0  0
  127.0290  123.3170   60.0260 C   0  0  0  0  0  0  0  0  0  0  0  0
  125.8160  123.2620   58.7180 S   0  0  0  0  0  0  0  0  0  0  0  0
  127.1050  123.2880   57.5220 C   0  0  0  0  0  0  0  0  0  0  0  0
  128.3120  123.3590   58.1010 C   0  0  0  0  0  0  0  0  0  0  0  0
  128.3160  123.4050   59.4870 N   0  0  0  0  0  0  0  0  0  0  0  0
  130.9709  124.4373   62.1801 H   0  0  0  0  0  0  0  0  0  0  0  0
  130.1285  122.6000   64.8270 H   0  0  0  0  0  0  0  0  0  0  0  0
  129.9111  123.2956   67.2102 H   0  0  0  0  0  0  0  0  0  0  0  0
  126.6922  126.5181   70.1932 H   0  0  0  0  0  0  0  0  0  0  0  0
  126.7140  127.1295   72.6008 H   0  0  0  0  0  0  0  0  0  0  0  0
  130.7614  128.5595   72.2082 H   0  0  0  0  0  0  0  0  0  0  0  0
  129.3150  127.3912   65.9583 H   0  0  0  0  0  0  0  0  0  0  0  0
  129.5281  126.6949   63.5773 H   0  0  0  0  0  0  0  0  0  0  0  0
  126.9414  123.2507   56.4349 H   0  0  0  0  0  0  0  0  0  0  0  0
  129.2415  123.3795   57.5132 H   0  0  0  0  0  0  0  0  0  0  0  0
  1  2  1  0
  2  3  2  0
  3  4  1  0
  4  5  2  0
  5  6  1  0
  6  7  2  0
  7  8  1  0
  8  9  2  0
  9 10  1  0
 10 11  1  0
 11 12  2  0
 11 13  1  0
 13 14  2  0
 14 15  1  0
 15 16  2  0
 16 17  1  0
 16 18  1  0
 18 19  2  0
 19 20  1  0
  9 21  1  0
 21 22  2  0
  4 23  1  0
 23 24  2  0
 23 25  1  0
 25 26  2  0
 26 27  1  0
 27 28  1  0
 28 29  2  0
 29 30  1  0
 30  3  1  0
 22  6  1  0
 30 26  1  0
 19 13  1  0
  5 31  1  0
  7 32  1  0
  8 33  1  0
 14 34  1  0
 15 35  1  0
 18 36  1  0
 21 37  1  0
 22 38  1  0
 28 39  1  0
 29 40  1  0
M  END
>  <Binding energies>  (1) 
[-8.01]

>  <Ligand effiencies>  (1) 
[-0.267]

>  <Interactions>  (1) 
["V-B:PRO:540:CA:9855, V-A:GLU:543:CA:4904, V-A:ARG:545:CA:4919, V-B:GLU:543:C:9874, V-B:HIS:456:CD2:9039, V-A:GLU:543:C:4902, V-B:GLU:543:CB:9878, V-B:TYR:539:CE2:9848, V-A:TYR:484:CE2:4346, V-B:GLU:543:CG:9879, V-A:GLY:544:C:4912, V-B:TYR:539:CZ:9849, H-B:ALA:541:N:9863, V-A:GLU:543:CD:4908, V-A:TYR:484:CZ:4347, V-B:PRO:540:CB:9857, V-B:HIS:456:CE1:9041, V-B:GLU:543:CA:9876, V-A:ARG:545:CG:4922, V-B:PRO:540:N:9856, V-A:HIS:456:CE1:4070, V-B:GLY:544:C:9884, V-B:TYR:539:CD2:9846, V-B:GLU:543:CD:9880, V-B:HIS:456:CG:9037, V-A:GLU:543:CB:4906"]

$$$$
ZINC16310599
     RDKit          3D

 39 41  0  0  0  0  0  0  0  0999 V2000
  133.2440  124.0790   59.2250 C   0  0  0  0  0  0  0  0  0  0  0  0
  131.8940  124.4660   59.6370 N   0  0  0  0  0  0  0  0  0  0  0  0
  131.0760  125.1520   58.6370 C   0  0  0  0  0  0  0  0  0  0  0  0
  131.5700  124.5680   61.0200 C   0  0  0  0  0  0  0  0  0  0  0  0
  130.2880  124.2430   61.4920 C   0  0  0  0  0  0  0  0  0  0  0  0
  129.9680  124.3520   62.8430 C   0  0  0  0  0  0  0  0  0  0  0  0
  130.9200  124.7950   63.7630 C   0  0  0  0  0  0  0  0  0  0  0  0
  130.6270  124.9330   65.2050 C   0  0  0  0  0  0  0  0  0  0  0  0
  129.8850  125.8900   65.8150 C   0  0  0  0  0  0  0  0  0  0  0  0
  129.0980  127.3040   65.1180 S   0  0  0  0  0  0  0  0  0  0  0  0
  128.5010  127.8180   66.6690 C   0  0  0  0  0  0  0  0  0  0  0  0
  127.5840  129.2110   66.7780 S   0  0  0  0  0  0  0  0  0  0  0  0
  128.9090  126.9310   67.6310 N   0  0  0  0  0  0  0  0  0  0  0  0
  128.5670  127.0960   68.9960 C   0  0  0  0  0  0  0  0  0  0  0  0
  127.2550  126.8170   69.4060 C   0  0  0  0  0  0  0  0  0  0  0  0
  126.8880  126.9750   70.7420 C   0  0  0  0  0  0  0  0  0  0  0  0
  127.8250  127.4150   71.6750 C   0  0  0  0  0  0  0  0  0  0  0  0
  129.1300  127.7010   71.2750 C   0  0  0  0  0  0  0  0  0  0  0  0
  129.5090  127.5460   69.9410 C   0  0  0  0  0  0  0  0  0  0  0  0
  131.1390  127.9200   69.4910 Cl  0  0  0  0  0  0  0  0  0  0  0  0
  129.6670  125.8670   67.2470 C   0  0  0  0  0  0  0  0  0  0  0  0
  130.1020  125.0040   68.0180 O   0  0  0  0  0  0  0  0  0  0  0  0
  132.2000  125.1120   63.3110 C   0  0  0  0  0  0  0  0  0  0  0  0
  132.5210  125.0050   61.9600 C   0  0  0  0  0  0  0  0  0  0  0  0
  133.8629  123.9016   60.1169 H   0  0  0  0  0  0  0  0  0  0  0  0
  133.1944  123.1589   58.6242 H   0  0  0  0  0  0  0  0  0  0  0  0
  133.6894  124.8856   58.6242 H   0  0  0  0  0  0  0  0  0  0  0  0
  130.3277  125.7795   59.1432 H   0  0  0  0  0  0  0  0  0  0  0  0
  131.7197  125.7843   58.0079 H   0  0  0  0  0  0  0  0  0  0  0  0
  130.5654  124.4080   58.0079 H   0  0  0  0  0  0  0  0  0  0  0  0
  129.5228  123.8961   60.7819 H   0  0  0  0  0  0  0  0  0  0  0  0
  128.9576  124.0871   63.1878 H   0  0  0  0  0  0  0  0  0  0  0  0
  131.0635  124.1669   65.8627 H   0  0  0  0  0  0  0  0  0  0  0  0
  126.5128  126.4723   68.6709 H   0  0  0  0  0  0  0  0  0  0  0  0
  125.8586  126.7523   71.0595 H   0  0  0  0  0  0  0  0  0  0  0  0
  127.5347  127.5370   72.7290 H   0  0  0  0  0  0  0  0  0  0  0  0
  129.8647  128.0507   72.0152 H   0  0  0  0  0  0  0  0  0  0  0  0
  132.9632  125.4496   64.0276 H   0  0  0  0  0  0  0  0  0  0  0  0
  133.5348  125.2665   61.6225 H   0  0  0  0  0  0  0  0  0  0  0  0
  1  2  1  0
  2  3  1  0
  2  4  1  0
  4  5  2  0
  5  6  1  0
  6  7  2  0
  7  8  1  0
  8  9  2  0
  9 10  1  0
 10 11  1  0
 11 12  2  0
 11 13  1  0
 13 14  1  0
 14 15  2  0
 15 16  1  0
 16 17  2  0
 17 18  1  0
 18 19  2  0
 19 20  1  0
 13 21  1  0
 21 22  2  0
  7 23  1  0
 23 24  2  0
 24  4  1  0
 21  9  1  0
 19 14  1  0
  1 25  1  0
  1 26  1  0
  1 27  1  0
  3 28  1  0
  3 29  1  0
  3 30  1  0
  5 31  1  0
  6 32  1  0
  8 33  1  0
 15 34  1  0
 16 35  1  0
 17 36  1  0
 18 37  1  0
 23 38  1  0
 24 39  1  0
M  END
>  <Binding energies>  (1) 
[-6.67]

>  <Ligand effiencies>  (1) 
[-0.27791666666666665]

>  <Interactions>  (1) 
["V-A:ILE:369:CG2:3237, V-B:GLU:543:C:9874, V-B:HIS:456:CD2:9039, V-A:GLU:543:C:4902, V-B:GLU:543:CB:9878, V-B:TYR:539:CE2:9848, V-B:GLU:543:CG:9879, V-A:GLY:544:C:4912, V-B:TYR:539:CZ:9849, V-A:GLU:543:CD:4908, V-B:HIS:456:CE1:9041, V-B:GLU:543:CA:9876, V-A:ARG:545:CG:4922, V-B:TYR:484:CZ:9318, V-A:HIS:456:CE1:4070, V-B:GLY:544:C:9884, V-B:GLY:544:CA:9886, V-B:GLU:543:CD:9880, V-B:HIS:456:CG:9037, V-A:ARG:545:CZ:4926, V-A:GLU:543:CB:4906, H-A:TYR:484:OH:4348"]

$$$$
ZINC163417696
     RDKit          3D

113116  0  0  0  0  0  0  0  0999 V2000
  130.4760  124.6350   65.1170 C   0  0  0  0  0  0  0  0  0  0  0  0
  131.3840  124.6130   63.8950 C   0  0  0  0  0  0  0  0  0  0  0  0
  132.6090  124.5810   64.0150 O   0  0  0  0  0  0  0  0  0  0  0  0
  130.6710  124.6270   62.7340 O   0  0  0  0  0  0  0  0  0  0  0  0
  131.0130  125.3050   61.5000 C   0  0  1  0  0  0  0  0  0  0  0  0
  129.8570  124.9360   60.4630 C   0  0  2  0  0  0  0  0  0  0  0  0
  129.8880  123.3450   60.2800 C   0  0  1  0  0  0  0  0  0  0  0  0
  130.8260  122.5910   61.2660 C   0  0  0  0  0  0  0  0  0  0  0  0
  128.5680  122.5550   60.1070 C   0  0  0  0  0  0  0  0  0  0  0  0
  128.2220  121.7000   60.9220 O   0  0  0  0  0  0  0  0  0  0  0  0
  127.6580  122.9330   58.9010 C   0  0  0  0  0  0  0  0  0  0  0  0
  127.4020  122.1210   58.0130 O   0  0  0  0  0  0  0  0  0  0  0  0
  127.1940  124.3140   58.8960 C   0  0  0  0  0  0  0  0  0  0  0  0
  126.5490  124.8170   59.9890 C   0  0  0  0  0  0  0  0  0  0  0  0
  125.8960  123.9650   61.0880 C   0  0  0  0  0  0  0  0  0  0  0  0
  126.4690  126.3420   60.1920 C   0  0  1  0  0  0  0  0  0  0  0  0
  126.4610  126.6540   61.5890 O   0  0  0  0  0  0  0  0  0  0  0  0
  127.1160  127.7350   62.0930 C   0  0  0  0  0  0  0  0  0  0  0  0
  128.3380  127.8930   62.0900 O   0  0  0  0  0  0  0  0  0  0  0  0
  126.1870  128.8370   62.6440 C   0  0  2  0  0  0  0  0  0  0  0  0
  125.6780  129.6130   61.5680 O   0  0  0  0  0  0  0  0  0  0  0  0
  126.8970  129.7400   63.6990 C   0  0  2  0  0  0  0  0  0  0  0  0
  126.8260  129.1700   65.1440 C   0  0  0  0  0  0  0  0  0  0  0  0
  128.1750  128.9140   65.8640 C   0  0  0  0  0  0  0  0  0  0  0  0
  128.6950  127.4980   65.5560 C   0  0  0  0  0  0  0  0  0  0  0  0
  128.0960  129.1450   67.3870 C   0  0  0  0  0  0  0  0  0  0  0  0
  126.3890  131.1250   63.6630 N   0  0  0  0  0  0  0  0  0  0  0  0
  126.8360  132.1400   62.8200 C   0  0  0  0  0  0  0  0  0  0  0  0
  126.3980  133.2900   62.8500 O   0  0  0  0  0  0  0  0  0  0  0  0
  127.8010  131.6960   61.9580 O   0  0  0  0  0  0  0  0  0  0  0  0
  129.2080  131.9750   62.0580 C   0  0  0  0  0  0  0  0  0  0  0  0
  129.6160  132.2770   63.5210 C   0  0  0  0  0  0  0  0  0  0  0  0
  130.0590  130.8230   61.4680 C   0  0  0  0  0  0  0  0  0  0  0  0
  129.4010  133.2420   61.2000 C   0  0  0  0  0  0  0  0  0  0  0  0
  127.6260  127.1260   59.4740 C   0  0  0  0  0  0  0  0  0  0  0  0
  128.5080  126.3500   58.4370 C   0  0  1  0  0  0  0  0  0  0  0  0
  128.9290  127.3080   57.4650 O   0  0  0  0  0  0  0  0  0  0  0  0
  129.8860  125.8350   59.1250 C   0  0  1  0  0  0  0  0  0  0  0  0
  130.7160  126.9880   59.3820 O   0  0  0  0  0  0  0  0  0  0  0  0
  131.5120  127.5650   58.4320 C   0  0  0  0  0  0  0  0  0  0  0  0
  132.3510  126.9500   57.7690 O   0  0  0  0  0  0  0  0  0  0  0  0
  131.3510  129.0500   58.3810 C   0  0  0  0  0  0  0  0  0  0  0  0
  132.4610  129.9100   58.3640 C   0  0  0  0  0  0  0  0  0  0  0  0
  132.2870  131.2930   58.3170 C   0  0  0  0  0  0  0  0  0  0  0  0
  131.0030  131.8350   58.2960 C   0  0  0  0  0  0  0  0  0  0  0  0
  129.8920  130.9930   58.3230 C   0  0  0  0  0  0  0  0  0  0  0  0
  128.3010  131.6630   58.2980 Cl  0  0  0  0  0  0  0  0  0  0  0  0
  130.0640  129.6090   58.3710 C   0  0  0  0  0  0  0  0  0  0  0  0
  127.6900  125.2120   57.7370 C   0  0  0  0  0  0  0  0  0  0  0  0
  128.5260  124.5040   56.6090 C   0  0  0  0  0  0  0  0  0  0  0  0
  126.4150  125.7700   57.0290 C   0  0  0  0  0  0  0  0  0  0  0  0
  131.3270  126.8120   61.6950 C   0  0  0  0  0  0  0  0  0  0  0  0
  132.7900  126.5530   61.6010 O   0  0  0  0  0  0  0  0  0  0  0  0
  132.5230  125.1750   61.0990 C   0  0  2  0  0  0  0  0  0  0  0  0
  132.9330  125.1260   59.6120 C   0  0  0  0  0  0  0  0  0  0  0  0
  133.9120  123.9890   59.2820 C   0  0  0  0  0  0  0  0  0  0  0  0
  134.0000  123.8020   57.8850 O   0  0  0  0  0  0  0  0  0  0  0  0
  131.0895  124.6201   66.0299 H   0  0  0  0  0  0  0  0  0  0  0  0
  129.8630  125.5483   65.1020 H   0  0  0  0  0  0  0  0  0  0  0  0
  129.8195  123.7525   65.1020 H   0  0  0  0  0  0  0  0  0  0  0  0
  128.8618  125.2032   60.8478 H   0  0  0  0  0  0  0  0  0  0  0  0
  130.3166  123.3477   59.2669 H   0  0  0  0  0  0  0  0  0  0  0  0
  130.5348  122.8251   62.3006 H   0  0  0  0  0  0  0  0  0  0  0  0
  130.7405  121.5074   61.0973 H   0  0  0  0  0  0  0  0  0  0  0  0
  131.8659  122.9074   61.0973 H   0  0  0  0  0  0  0  0  0  0  0  0
  126.1915  124.3505   62.0750 H   0  0  0  0  0  0  0  0  0  0  0  0
  124.8016  124.0136   60.9880 H   0  0  0  0  0  0  0  0  0  0  0  0
  126.2273  122.9209   60.9880 H   0  0  0  0  0  0  0  0  0  0  0  0
  125.5280  126.6702   59.7265 H   0  0  0  0  0  0  0  0  0  0  0  0
  125.3526  128.3465   63.1667 H   0  0  0  0  0  0  0  0  0  0  0  0
  126.3600  130.2300   61.2880 H   0  0  0  0  0  0  0  0  0  0  0  0
  127.9589  129.7488   63.4120 H   0  0  0  0  0  0  0  0  0  0  0  0
  126.2534  129.8834   65.7549 H   0  0  0  0  0  0  0  0  0  0  0  0
  126.3644  128.1772   65.0383 H   0  0  0  0  0  0  0  0  0  0  0  0
  128.8879  129.6529   65.4695 H   0  0  0  0  0  0  0  0  0  0  0  0
  128.8904  126.9660   66.4988 H   0  0  0  0  0  0  0  0  0  0  0  0
  127.9400  126.9485   64.9746 H   0  0  0  0  0  0  0  0  0  0  0  0
  129.6262  127.5678   64.9746 H   0  0  0  0  0  0  0  0  0  0  0  0
  128.4086  128.2310   67.9132 H   0  0  0  0  0  0  0  0  0  0  0  0
  128.7614  129.9750   67.6670 H   0  0  0  0  0  0  0  0  0  0  0  0
  127.0617  129.3937   67.6670 H   0  0  0  0  0  0  0  0  0  0  0  0
  125.6880  131.3670   64.3480 H   0  0  0  0  0  0  0  0  0  0  0  0
  128.9251  131.7656   64.2074 H   0  0  0  0  0  0  0  0  0  0  0  0
  130.6407  131.9181   63.6974 H   0  0  0  0  0  0  0  0  0  0  0  0
  129.5720  133.3619   63.6974 H   0  0  0  0  0  0  0  0  0  0  0  0
  130.4951  130.2326   62.2873 H   0  0  0  0  0  0  0  0  0  0  0  0
  129.4207  130.1755   60.8489 H   0  0  0  0  0  0  0  0  0  0  0  0
  130.8655  131.2428   60.8489 H   0  0  0  0  0  0  0  0  0  0  0  0
  129.5338  134.1136   61.8578 H   0  0  0  0  0  0  0  0  0  0  0  0
  130.2913  133.1228   60.5651 H   0  0  0  0  0  0  0  0  0  0  0  0
  128.5155  133.3933   60.5651 H   0  0  0  0  0  0  0  0  0  0  0  0
  127.1668  127.9732   58.9436 H   0  0  0  0  0  0  0  0  0  0  0  0
  128.3224  127.3899   60.2836 H   0  0  0  0  0  0  0  0  0  0  0  0
  129.8740  127.2090   57.3290 H   0  0  0  0  0  0  0  0  0  0  0  0
  130.2594  125.1203   58.3768 H   0  0  0  0  0  0  0  0  0  0  0  0
  133.4770  129.4890   58.3880 H   0  0  0  0  0  0  0  0  0  0  0  0
  133.1640  131.9567   58.2965 H   0  0  0  0  0  0  0  0  0  0  0  0
  130.8664  132.9258   58.2582 H   0  0  0  0  0  0  0  0  0  0  0  0
  129.1832  128.9507   58.4013 H   0  0  0  0  0  0  0  0  0  0  0  0
  129.2887  123.8581   57.0685 H   0  0  0  0  0  0  0  0  0  0  0  0
  127.8566  123.8939   55.9847 H   0  0  0  0  0  0  0  0  0  0  0  0
  129.0175  125.2647   55.9847 H   0  0  0  0  0  0  0  0  0  0  0  0
  125.6848  126.0896   57.7871 H   0  0  0  0  0  0  0  0  0  0  0  0
  126.6911  126.6296   56.4006 H   0  0  0  0  0  0  0  0  0  0  0  0
  125.9709  124.9840   56.4006 H   0  0  0  0  0  0  0  0  0  0  0  0
  130.9372  127.4544   60.8917 H   0  0  0  0  0  0  0  0  0  0  0  0
  130.9224  127.3450   62.5680 H   0  0  0  0  0  0  0  0  0  0  0  0
  133.0123  124.2542   61.4492 H   0  0  0  0  0  0  0  0  0  0  0  0
  132.0255  124.9909   59.0052 H   0  0  0  0  0  0  0  0  0  0  0  0
  133.4487  126.0714   59.3879 H   0  0  0  0  0  0  0  0  0  0  0  0
  134.9071  124.2421   59.6767 H   0  0  0  0  0  0  0  0  0  0  0  0
  133.5463  123.0596   59.7430 H   0  0  0  0  0  0  0  0  0  0  0  0
  134.4380  124.5660   57.5020 H   0  0  0  0  0  0  0  0  0  0  0  0
  1  2  1  0
  2  3  2  0
  2  4  1  0
  5  4  1  1
  5  6  1  0
  6  7  1  0
  7  8  1  0
  7  9  1  0
  9 10  2  0
  9 11  1  0
 11 12  2  0
 11 13  1  0
 13 14  2  0
 14 15  1  0
 14 16  1  0
 16 17  1  0
 17 18  1  0
 18 19  2  0
 18 20  1  0
 20 21  1  0
 20 22  1  0
 22 23  1  0
 23 24  1  0
 24 25  1  0
 24 26  1  0
 22 27  1  0
 27 28  1  0
 28 29  2  0
 28 30  1  0
 30 31  1  0
 31 32  1  0
 31 33  1  0
 31 34  1  0
 16 35  1  0
 35 36  1  0
 36 37  1  6
 36 38  1  0
 38 39  1  0
 39 40  1  0
 40 41  2  0
 40 42  1  0
 42 43  2  0
 43 44  1  0
 44 45  2  0
 45 46  1  0
 46 47  1  0
 46 48  2  0
 36 49  1  0
 49 50  1  0
 49 51  1  0
  5 52  1  0
 52 53  1  0
 53 54  1  0
 54 55  1  0
 55 56  1  0
 56 57  1  0
 54  5  1  0
 38  6  1  0
 48 42  1  0
 49 13  1  0
  1 58  1  0
  1 59  1  0
  1 60  1  0
  6 61  1  1
  7 62  1  6
  8 63  1  0
  8 64  1  0
  8 65  1  0
 15 66  1  0
 15 67  1  0
 15 68  1  0
 16 69  1  6
 20 70  1  1
 21 71  1  0
 22 72  1  6
 23 73  1  0
 23 74  1  0
 24 75  1  0
 25 76  1  0
 25 77  1  0
 25 78  1  0
 26 79  1  0
 26 80  1  0
 26 81  1  0
 27 82  1  0
 32 83  1  0
 32 84  1  0
 32 85  1  0
 33 86  1  0
 33 87  1  0
 33 88  1  0
 34 89  1  0
 34 90  1  0
 34 91  1  0
 35 92  1  0
 35 93  1  0
 37 94  1  0
 38 95  1  6
 43 96  1  0
 44 97  1  0
 45 98  1  0
 48 99  1  0
 50100  1  0
 50101  1  0
 50102  1  0
 51103  1  0
 51104  1  0
 51105  1  0
 52106  1  0
 52107  1  0
 54108  1  1
 55109  1  0
 55110  1  0
 56111  1  0
 56112  1  0
 57113  1  0
M  END
>  <Binding energies>  (1) 
[-5.57]

>  <Ligand effiencies>  (1) 
[-0.08841269841269842]

>  <Interactions>  (1) 
["V-A:ILE:369:CG2:3237, V-A:ASP:366:CA:3210, V-B:PRO:540:CA:9855, V-A:ILE:369:CB:3236, V-A:PRO:540:C:4881, V-B:ASP:366:CG:8184, H-A:TYR:531:OH:4795, V-B:TYR:539:CE2:9848, H-B:TYR:539:N:9842, V-B:GLU:543:CG:9879, V-B:TYR:539:C:9839, V-A:ASP:366:CG:3213, V-A:LEU:363:CD1:3189, V-B:TYR:539:CZ:9849, H-A:ASN:370:N:3244, V-B:TYR:531:CZ:9766, H-B:TYR:539:OH:9850, V-A:ALA:541:CB:4892, H-B:ALA:541:N:9863, V-B:TYR:531:CE2:9765, V-A:GLU:543:CD:4908, V-B:PRO:540:CB:9857, H-B:TYR:484:OH:9319, V-B:HIS:456:CE1:9041, V-B:PRO:540:N:9856, V-A:ILE:369:CD1:3239, V-B:TYR:484:CZ:9318, V-A:ALA:541:CA:4890, V-B:TYR:539:CD2:9846, V-A:GLU:543:CG:4907, V-B:GLU:543:CD:9880, V-A:TYR:539:C:4867, V-A:ASP:366:CB:3212, H-A:ARG:545:NH2:4928, H-B:ARG:545:NH2:9900, H-A:ASP:366:O:3209, V-A:GLU:543:CB:4906, V-A:PRO:540:N:4884, V-A:PRO:540:CB:4885, V-A:PRO:540:CA:4883, V-B:TYR:539:CE1:9847, H-A:TYR:484:OH:4348"]

$$$$
ZINC163484766
     RDKit          3D

 34 34  0  0  0  0  0  0  0  0999 V2000
  129.6480  132.9700   56.4310 C   0  0  0  0  0  0  0  0  0  0  0  0
  130.7420  132.4560   56.6080 C   0  0  0  0  0  0  0  0  0  0  0  0
  132.0640  131.8480   56.8310 C   0  0  0  0  0  0  0  0  0  0  0  0
  132.0930  130.8270   57.9860 C   0  0  0  0  0  0  0  0  0  0  0  0
  132.1990  131.4970   59.3710 C   0  0  0  0  0  0  0  0  0  0  0  0
  131.3990  130.8140   60.5160 C   0  0  1  0  0  0  0  0  0  0  0  0
  132.2900  130.6910   61.7730 N   0  0  0  0  0  0  0  0  0  0  0  0
  133.2780  131.8470   61.9970 C   0  0  0  0  0  0  0  0  0  0  0  0
  130.0980  131.5570   60.9310 C   0  0  2  0  0  0  0  0  0  0  0  0
  129.6580  132.5990   59.8780 C   0  0  0  0  0  0  0  0  0  0  0  0
  128.0350  133.2960   60.2950 S   0  0  0  0  0  0  0  0  0  0  0  0
  128.5000  133.8550   61.9610 C   0  0  0  0  0  0  0  0  0  0  0  0
  129.1160  132.7180   62.7960 C   0  0  0  0  0  0  0  0  0  0  0  0
  130.3020  132.2160   62.1830 O   0  0  0  0  0  0  0  0  0  0  0  0
  128.6629  133.4328   56.2716 H   0  0  0  0  0  0  0  0  0  0  0  0
  132.3701  131.3353   55.9072 H   0  0  0  0  0  0  0  0  0  0  0  0
  132.7489  132.6633   57.1071 H   0  0  0  0  0  0  0  0  0  0  0  0
  131.1684  130.2320   57.9529 H   0  0  0  0  0  0  0  0  0  0  0  0
  132.9862  130.1992   57.8517 H   0  0  0  0  0  0  0  0  0  0  0  0
  133.2602  131.5076   59.6605 H   0  0  0  0  0  0  0  0  0  0  0  0
  131.7573  132.4975   59.2535 H   0  0  0  0  0  0  0  0  0  0  0  0
  131.1018  129.8342   60.1139 H   0  0  0  0  0  0  0  0  0  0  0  0
  131.6960  130.5860   62.5830 H   0  0  0  0  0  0  0  0  0  0  0  0
  132.8260  129.8390   61.6870 H   0  0  0  0  0  0  0  0  0  0  0  0
  133.4155  132.0079   63.0765 H   0  0  0  0  0  0  0  0  0  0  0  0
  134.2455  131.5967   61.5374 H   0  0  0  0  0  0  0  0  0  0  0  0
  132.8800  132.7637   61.5374 H   0  0  0  0  0  0  0  0  0  0  0  0
  129.3012  130.8032   61.0141 H   0  0  0  0  0  0  0  0  0  0  0  0
  130.3999  133.4103   59.8424 H   0  0  0  0  0  0  0  0  0  0  0  0
  129.5857  132.1010   58.8998 H   0  0  0  0  0  0  0  0  0  0  0  0
  129.2347  134.6687   61.8711 H   0  0  0  0  0  0  0  0  0  0  0  0
  127.5888  134.1988   62.4723 H   0  0  0  0  0  0  0  0  0  0  0  0
  129.3633  133.1007   63.7972 H   0  0  0  0  0  0  0  0  0  0  0  0
  128.3847  131.8992   62.8652 H   0  0  0  0  0  0  0  0  0  0  0  0
  1  2  3  0
  2  3  1  0
  3  4  1  0
  4  5  1  0
  5  6  1  0
  6  7  1  0
  7  8  1  0
  6  9  1  0
  9 10  1  0
 10 11  1  0
 11 12  1  0
 12 13  1  0
 13 14  1  0
 14  9  1  0
  1 15  1  0
  3 16  1  0
  3 17  1  0
  4 18  1  0
  4 19  1  0
  5 20  1  0
  5 21  1  0
  6 22  1  6
  7 23  1  0
  7 24  1  0
  8 25  1  0
  8 26  1  0
  8 27  1  0
  9 28  1  1
 10 29  1  0
 10 30  1  0
 12 31  1  0
 12 32  1  0
 13 33  1  0
 13 34  1  0
M  CHG  1   7   1
M  END
>  <Binding energies>  (1) 
[-6.35]

>  <Ligand effiencies>  (1) 
[-0.396875]

>  <Interactions>  (1) 
["V-A:ILE:538:C:4858, H-A:ALA:541:N:4891, V-A:PRO:540:C:4881, V-A:ILE:538:CB:4862, V-B:LEU:475:CD2:9230, V-A:ASP:366:CG:3213, V-A:ASN:362:CB:3176, V-A:LEU:363:CD1:3189, V-A:ILE:538:CA:4860, V-A:ALA:541:CB:4892, V-A:GLU:543:CD:4908, V-A:ALA:541:CA:4890, V-A:MET:535:CE:4835, V-A:TYR:539:C:4867, H-A:GLU:543:OE1:4909, H-A:ASP:366:OD1:3214, V-A:PRO:540:N:4884, V-A:PRO:540:CB:4885, V-A:PRO:540:CA:4883, H-A:ASP:366:OD2:3215"]

$$$$
ZINC163523315-again1
     RDKit          3D

 95 97  0  0  0  0  0  0  0  0999 V2000
  134.4040  126.7130   74.7180 C   0  0  0  0  0  0  0  0  0  0  0  0
  133.0890  127.2200   74.8870 O   0  0  0  0  0  0  0  0  0  0  0  0
  132.1380  126.6250   74.0140 C   0  0  0  0  0  0  0  0  0  0  0  0
  130.8370  126.3630   74.7820 C   0  0  0  0  0  0  0  0  0  0  0  0
  130.2790  127.5790   75.2670 O   0  0  0  0  0  0  0  0  0  0  0  0
  129.1330  128.0670   74.7440 C   0  0  0  0  0  0  0  0  0  0  0  0
  128.0380  128.0900   75.3120 O   0  0  0  0  0  0  0  0  0  0  0  0
  129.3340  128.6200   73.3120 C   0  0  2  0  0  0  0  0  0  0  0  0
  129.1540  130.1490   73.2690 C   0  0  0  0  0  0  0  0  0  0  0  0
  128.4460  128.0540   72.3330 O   0  0  0  0  0  0  0  0  0  0  0  0
  128.4920  126.7510   71.9460 C   0  0  0  0  0  0  0  0  0  0  0  0
  127.9700  125.8060   72.5410 O   0  0  0  0  0  0  0  0  0  0  0  0
  129.2920  126.5680   70.6500 C   0  0  0  0  0  0  0  0  0  0  0  0
  129.4220  127.8470   69.7880 C   0  0  0  0  0  0  0  0  0  0  0  0
  128.5810  127.7960   68.5050 C   0  0  0  0  0  0  0  0  0  0  0  0
  127.4860  127.2320   68.5020 O   0  0  0  0  0  0  0  0  0  0  0  0
  129.1030  128.4080   67.4250 N   0  0  0  0  0  0  0  0  0  0  0  0
  128.4800  128.4840   66.1010 C   0  0  0  0  0  0  0  0  0  0  0  0
  127.0210  128.9860   66.1080 C   0  0  0  0  0  0  0  0  0  0  0  0
  126.7270  129.8330   64.9590 N   0  0  0  0  0  0  0  0  0  0  0  0
  127.9020  130.1030   64.1540 C   0  0  0  0  0  0  0  0  0  0  0  0
  127.9670  131.5810   63.7180 C   0  0  0  0  0  0  0  0  0  0  0  0
  127.6030  132.4930   64.4710 O   0  0  0  0  0  0  0  0  0  0  0  0
  128.4420  131.7610   62.4630 N   0  0  0  0  0  0  0  0  0  0  0  0
  128.5790  132.9240   61.7900 C   0  0  0  0  0  0  0  0  0  0  0  0
  128.2630  134.0480   62.1960 O   0  0  0  0  0  0  0  0  0  0  0  0
  129.1320  132.5970   60.5660 O   0  0  0  0  0  0  0  0  0  0  0  0
  128.6680  131.4060   59.9230 C   0  0  1  0  0  0  0  0  0  0  0  0
  128.1420  131.7070   58.5000 C   0  0  0  0  0  0  0  0  0  0  0  0
  127.6670  130.4210   57.8070 C   0  0  0  0  0  0  0  0  0  0  0  0
  128.7920  129.3640   57.7630 C   0  0  1  0  0  0  0  0  0  0  0  0
  128.7800  128.3490   56.6640 C   0  0  0  0  0  0  0  0  0  0  0  0
  129.6780  129.4370   56.6810 O   0  0  0  0  0  0  0  0  0  0  0  0
  129.3960  129.0400   59.1620 C   0  0  1  0  0  0  0  0  0  0  0  0
  130.4360  127.8740   59.2540 C   0  0  1  0  0  0  0  0  0  0  0  0
  131.7760  128.1710   58.5460 C   0  0  0  0  0  0  0  0  0  0  0  0
  130.5320  127.1890   60.4870 O   0  0  0  0  0  0  0  0  0  0  0  0
  129.9670  126.4450   59.4480 C   0  0  2  0  0  0  0  0  0  0  0  0
  130.7610  125.2470   58.9010 C   0  0  0  0  0  0  0  0  0  0  0  0
  131.7710  124.7050   59.8990 C   0  0  0  0  0  0  0  0  0  0  0  0
  133.0450  124.3310   59.6570 C   0  0  0  0  0  0  0  0  0  0  0  0
  133.9470  123.8320   60.7740 C   0  0  0  0  0  0  0  0  0  0  0  0
  133.7040  124.3440   58.2840 C   0  0  0  0  0  0  0  0  0  0  0  0
  129.8200  130.3630   59.8800 C   0  0  2  0  0  0  0  0  0  0  0  0
  130.4100  130.1560   61.1720 O   0  0  0  0  0  0  0  0  0  0  0  0
  131.6330  130.8300   61.4550 C   0  0  0  0  0  0  0  0  0  0  0  0
  134.8589  126.5376   75.7041 H   0  0  0  0  0  0  0  0  0  0  0  0
  134.3630  125.7662   74.1595 H   0  0  0  0  0  0  0  0  0  0  0  0
  135.0092  127.4423   74.1595 H   0  0  0  0  0  0  0  0  0  0  0  0
  131.9371  127.3040   73.1723 H   0  0  0  0  0  0  0  0  0  0  0  0
  132.5360  125.6743   73.6295 H   0  0  0  0  0  0  0  0  0  0  0  0
  130.1138  125.8778   74.1100 H   0  0  0  0  0  0  0  0  0  0  0  0
  131.0609  125.7125   75.6403 H   0  0  0  0  0  0  0  0  0  0  0  0
  130.3638  128.3318   73.0544 H   0  0  0  0  0  0  0  0  0  0  0  0
  129.1078  130.5418   74.2955 H   0  0  0  0  0  0  0  0  0  0  0  0
  130.0048  130.6036   72.7404 H   0  0  0  0  0  0  0  0  0  0  0  0
  128.2209  130.3936   72.7404 H   0  0  0  0  0  0  0  0  0  0  0  0
  130.3041  126.2292   70.9163 H   0  0  0  0  0  0  0  0  0  0  0  0
  128.7387  125.8369   70.0422 H   0  0  0  0  0  0  0  0  0  0  0  0
  129.0935  128.7085   70.3880 H   0  0  0  0  0  0  0  0  0  0  0  0
  130.4762  127.9335   69.4861 H   0  0  0  0  0  0  0  0  0  0  0  0
  130.0170  128.8270   67.5100 H   0  0  0  0  0  0  0  0  0  0  0  0
  129.0759  129.1688   65.4797 H   0  0  0  0  0  0  0  0  0  0  0  0
  128.4555  127.4571   65.7075 H   0  0  0  0  0  0  0  0  0  0  0  0
  126.3468  128.1170   66.0898 H   0  0  0  0  0  0  0  0  0  0  0  0
  126.8738  129.5864   67.0179 H   0  0  0  0  0  0  0  0  0  0  0  0
  126.3840  130.7080   65.3320 H   0  0  0  0  0  0  0  0  0  0  0  0
  128.8001  129.8652   64.7430 H   0  0  0  0  0  0  0  0  0  0  0  0
  127.8482  129.4803   63.2488 H   0  0  0  0  0  0  0  0  0  0  0  0
  128.7240  130.9280   61.9670 H   0  0  0  0  0  0  0  0  0  0  0  0
  127.8276  130.9934   60.5004 H   0  0  0  0  0  0  0  0  0  0  0  0
  127.2996  132.4110   58.5690 H   0  0  0  0  0  0  0  0  0  0  0  0
  128.9602  132.1432   57.9081 H   0  0  0  0  0  0  0  0  0  0  0  0
  126.8098  130.0103   58.3607 H   0  0  0  0  0  0  0  0  0  0  0  0
  127.3788  130.6671   56.7744 H   0  0  0  0  0  0  0  0  0  0  0  0
  129.1411  127.3262   56.8468 H   0  0  0  0  0  0  0  0  0  0  0  0
  128.0326  127.9496   55.9626 H   0  0  0  0  0  0  0  0  0  0  0  0
  128.5760  128.5776   59.7309 H   0  0  0  0  0  0  0  0  0  0  0  0
  132.5583  128.3444   59.2996 H   0  0  0  0  0  0  0  0  0  0  0  0
  132.0564  127.3132   57.9171 H   0  0  0  0  0  0  0  0  0  0  0  0
  131.6677  129.0669   57.9171 H   0  0  0  0  0  0  0  0  0  0  0  0
  129.0254  125.9123   59.2490 H   0  0  0  0  0  0  0  0  0  0  0  0
  130.0540  124.4441   58.6451 H   0  0  0  0  0  0  0  0  0  0  0  0
  131.3199  125.5946   58.0196 H   0  0  0  0  0  0  0  0  0  0  0  0
  131.4237  124.6062   60.9381 H   0  0  0  0  0  0  0  0  0  0  0  0
  133.4977  124.0806   61.7468 H   0  0  0  0  0  0  0  0  0  0  0  0
  134.0633  122.7413   60.6918 H   0  0  0  0  0  0  0  0  0  0  0  0
  134.9328  124.3131   60.6918 H   0  0  0  0  0  0  0  0  0  0  0  0
  134.7974  124.3656   58.4023 H   0  0  0  0  0  0  0  0  0  0  0  0
  133.4130  123.4399   57.7290 H   0  0  0  0  0  0  0  0  0  0  0  0
  133.3776  125.2359   57.7290 H   0  0  0  0  0  0  0  0  0  0  0  0
  130.6201  130.7880   59.2562 H   0  0  0  0  0  0  0  0  0  0  0  0
  131.7673  130.9040   62.5443 H   0  0  0  0  0  0  0  0  0  0  0  0
  132.4714  130.2666   61.0196 H   0  0  0  0  0  0  0  0  0  0  0  0
  131.6044  131.8398   61.0196 H   0  0  0  0  0  0  0  0  0  0  0  0
  1  2  1  0
  2  3  1  0
  3  4  1  0
  4  5  1  0
  5  6  1  0
  6  7  2  0
  6  8  1  0
  8  9  1  0
  8 10  1  0
 10 11  1  0
 11 12  2  0
 11 13  1  0
 13 14  1  0
 14 15  1  0
 15 16  2  0
 15 17  1  0
 17 18  1  0
 18 19  1  0
 19 20  1  0
 20 21  1  0
 21 22  1  0
 22 23  2  0
 22 24  1  0
 24 25  1  0
 25 26  2  0
 25 27  1  0
 27 28  1  0
 28 29  1  0
 29 30  1  0
 30 31  1  0
 31 32  1  0
 32 33  1  0
 31 34  1  0
 34 35  1  0
 35 36  1  6
 35 37  1  0
 37 38  1  0
 38 39  1  0
 39 40  1  0
 40 41  2  3
 41 42  1  0
 41 43  1  0
 34 44  1  0
 44 45  1  0
 45 46  1  0
 44 28  1  0
 31 33  1  6
 38 35  1  0
  1 47  1  0
  1 48  1  0
  1 49  1  0
  3 50  1  0
  3 51  1  0
  4 52  1  0
  4 53  1  0
  8 54  1  6
  9 55  1  0
  9 56  1  0
  9 57  1  0
 13 58  1  0
 13 59  1  0
 14 60  1  0
 14 61  1  0
 17 62  1  0
 18 63  1  0
 18 64  1  0
 19 65  1  0
 19 66  1  0
 20 67  1  0
 21 68  1  0
 21 69  1  0
 24 70  1  0
 28 71  1  1
 29 72  1  0
 29 73  1  0
 30 74  1  0
 30 75  1  0
 32 76  1  0
 32 77  1  0
 34 78  1  1
 36 79  1  0
 36 80  1  0
 36 81  1  0
 38 82  1  1
 39 83  1  0
 39 84  1  0
 40 85  1  0
 42 86  1  0
 42 87  1  0
 42 88  1  0
 43 89  1  0
 43 90  1  0
 43 91  1  0
 44 92  1  6
 46 93  1  0
 46 94  1  0
 46 95  1  0
M  END
>  <Binding energies>  (1) 
[-6.17]

>  <Ligand effiencies>  (1) 
[-0.1259183673469388]

>  <Interactions>  (1) 
["V-A:ILE:369:CG2:3237, V-A:ASP:366:CA:3210, V-B:HIS:456:CD2:9039, H-A:GLU:543:OE2:4910, V-A:ILE:369:CB:3236, H-A:ALA:541:N:4891, H-B:LYS:547:NZ:9923, H-A:TYR:531:OH:4795, V-B:TYR:539:CE2:9848, V-A:HIS:456:CD2:4068, V-A:ASP:366:CG:3213, V-B:TYR:539:CZ:9849, V-A:LYS:547:CG:4948, V-A:HIS:456:CB:4065, V-A:ALA:541:CB:4892, V-A:GLU:543:CD:4908, H-B:TYR:484:OH:9319, V-B:HIS:456:CE1:9041, V-A:HIS:456:CE1:4070, V-A:ILE:369:CD1:3239, V-A:ASP:366:C:3208, V-A:GLU:543:CG:4907, V-B:GLU:543:CD:9880, V-A:MET:535:CE:4835, V-A:ASP:366:CB:3212, H-A:LYS:547:NZ:4951, H-A:GLU:543:OE1:4909, V-A:ARG:545:C:4917, V-A:HIS:456:CG:4066, V-A:GLU:543:CB:4906"]

$$$$
ZINC1637321
     RDKit          3D

 48 51  0  0  0  0  0  0  0  0999 V2000
  135.0650  123.0530   62.3920 O   0  0  0  0  0  0  0  0  0  0  0  0
  135.0580  124.1980   61.9460 N   0  0  0  0  0  0  0  0  0  0  0  0
  136.0120  124.9620   62.0580 O   0  0  0  0  0  0  0  0  0  0  0  0
  133.8440  124.6780   61.2410 C   0  0  0  0  0  0  0  0  0  0  0  0
  133.7390  124.5760   59.8380 C   0  0  0  0  0  0  0  0  0  0  0  0
  132.6010  125.0270   59.1610 C   0  0  0  0  0  0  0  0  0  0  0  0
  131.5710  125.5840   59.9110 C   0  0  0  0  0  0  0  0  0  0  0  0
  130.3460  126.1010   59.5760 N   0  0  0  0  0  0  0  0  0  0  0  0
  129.6050  126.5460   60.6280 C   0  0  0  0  0  0  0  0  0  0  0  0
  128.0760  127.2110   60.5550 S   0  0  0  0  0  0  0  0  0  0  0  0
  130.4620  126.3020   61.6780 N   0  0  0  0  0  0  0  0  0  0  0  0
  130.1510  126.5750   62.9820 C   0  0  0  0  0  0  0  0  0  0  0  0
  129.8160  125.7170   63.9740 C   0  0  0  0  0  0  0  0  0  0  0  0
  129.5040  126.1870   65.3370 C   0  0  0  0  0  0  0  0  0  0  0  0
  130.0330  125.4760   66.4220 C   0  0  0  0  0  0  0  0  0  0  0  0
  129.7980  125.8960   67.7310 C   0  0  0  0  0  0  0  0  0  0  0  0
  129.0340  127.0380   67.9690 C   0  0  0  0  0  0  0  0  0  0  0  0
  128.7460  127.5610   69.5880 Cl  0  0  0  0  0  0  0  0  0  0  0  0
  128.5080  127.7580   66.8980 C   0  0  0  0  0  0  0  0  0  0  0  0
  128.7400  127.3440   65.5840 C   0  0  0  0  0  0  0  0  0  0  0  0
  128.0760  128.3030   64.3010 Cl  0  0  0  0  0  0  0  0  0  0  0  0
  129.7950  123.9210   63.6960 S   0  0  0  0  0  0  0  0  0  0  0  0
  130.6970  123.6470   62.5730 O   0  0  0  0  0  0  0  0  0  0  0  0
  130.0010  123.2410   64.9800 O   0  0  0  0  0  0  0  0  0  0  0  0
  128.0180  123.5530   63.1390 C   0  0  0  0  0  0  0  0  0  0  0  0
  127.9220  123.3530   61.6330 C   0  0  0  0  0  0  0  0  0  0  0  0
  127.1650  124.2550   60.8800 C   0  0  0  0  0  0  0  0  0  0  0  0
  127.0530  124.1060   59.4980 C   0  0  0  0  0  0  0  0  0  0  0  0
  127.7000  123.0500   58.8570 C   0  0  0  0  0  0  0  0  0  0  0  0
  127.5630  122.8640   57.1470 Cl  0  0  0  0  0  0  0  0  0  0  0  0
  128.4600  122.1460   59.6000 C   0  0  0  0  0  0  0  0  0  0  0  0
  128.5770  122.2920   60.9840 C   0  0  0  0  0  0  0  0  0  0  0  0
  129.5440  121.1510   61.8540 Cl  0  0  0  0  0  0  0  0  0  0  0  0
  131.6510  125.6980   61.2730 C   0  0  0  0  0  0  0  0  0  0  0  0
  132.7770  125.2450   61.9620 C   0  0  0  0  0  0  0  0  0  0  0  0
  134.5676  124.1335   59.2656 H   0  0  0  0  0  0  0  0  0  0  0  0
  132.5232  124.9434   58.0669 H   0  0  0  0  0  0  0  0  0  0  0  0
  129.9770  126.1640   58.6380 H   0  0  0  0  0  0  0  0  0  0  0  0
  130.1767  127.6382   63.2631 H   0  0  0  0  0  0  0  0  0  0  0  0
  130.6401  124.5770   66.2396 H   0  0  0  0  0  0  0  0  0  0  0  0
  130.2150  125.3269   68.5750 H   0  0  0  0  0  0  0  0  0  0  0  0
  127.9059  128.6586   67.0886 H   0  0  0  0  0  0  0  0  0  0  0  0
  127.6706  122.6382   63.6415 H   0  0  0  0  0  0  0  0  0  0  0  0
  127.3921  124.4168   63.4075 H   0  0  0  0  0  0  0  0  0  0  0  0
  126.6533  125.0895   61.3818 H   0  0  0  0  0  0  0  0  0  0  0  0
  126.4548  124.8209   58.9140 H   0  0  0  0  0  0  0  0  0  0  0  0
  128.9699  121.3137   59.0928 H   0  0  0  0  0  0  0  0  0  0  0  0
  132.8298  125.3303   63.0574 H   0  0  0  0  0  0  0  0  0  0  0  0
  1  2  2  0
  2  3  1  0
  2  4  1  0
  4  5  2  0
  5  6  1  0
  6  7  2  0
  7  8  1  0
  8  9  1  0
  9 10  2  0
  9 11  1  0
 11 12  1  0
 12 13  2  0
 13 14  1  0
 14 15  2  0
 15 16  1  0
 16 17  2  0
 17 18  1  0
 17 19  1  0
 19 20  2  0
 20 21  1  0
 13 22  1  0
 22 23  2  0
 22 24  2  0
 22 25  1  0
 25 26  1  0
 26 27  2  0
 27 28  1  0
 28 29  2  0
 29 30  1  0
 29 31  1  0
 31 32  2  0
 32 33  1  0
 11 34  1  0
 34 35  2  0
 35  4  1  0
 34  7  1  0
 20 14  1  0
 32 26  1  0
  5 36  1  0
  6 37  1  0
  8 38  1  0
 12 39  1  0
 15 40  1  0
 16 41  1  0
 19 42  1  0
 25 43  1  0
 25 44  1  0
 27 45  1  0
 28 46  1  0
 31 47  1  0
 35 48  1  0
M  CHG  2   2   1   3  -1
M  END
>  <Binding energies>  (1) 
[-8.51]

>  <Ligand effiencies>  (1) 
[-0.23638888888888887]

>  <Interactions>  (1) 
["V-A:ILE:369:CG2:3237, V-A:ASP:366:CA:3210, V-B:PRO:540:CA:9855, V-B:GLU:543:CB:9878, V-B:ALA:541:CB:9864, H-A:ARG:545:NH1:4927, V-B:TYR:539:CE2:9848, V-B:GLU:543:CG:9879, V-B:TYR:539:C:9839, V-A:ASP:366:CG:3213, V-B:TYR:539:CZ:9849, V-A:GLU:543:CD:4908, V-B:HIS:456:CE1:9041, H-A:GLY:454:N:4050, V-A:GLY:453:C:4042, V-B:PRO:540:N:9856, V-A:ILE:369:CD1:3239, V-A:HIS:456:CE1:4070, V-B:TYR:539:CD2:9846, V-B:GLU:543:CD:9880, V-A:ASP:366:CB:3212, V-A:LEU:475:CD2:4259, V-B:TYR:539:CG:9844, V-B:TYR:539:CD1:9845, V-A:GLY:453:CA:4044, V-B:PRO:540:C:9853, V-B:TYR:539:CE1:9847, H-A:TYR:484:OH:4348"]

$$$$
ZINC1638729
     RDKit          3D

 29 29  0  0  0  0  0  0  0  0999 V2000
  127.4110  131.1030   56.7080 C   0  0  0  0  0  0  0  0  0  0  0  0
  127.8780  132.3590   56.8230 C   0  0  0  0  0  0  0  0  0  0  0  0
  129.2450  132.7780   57.3510 C   0  0  1  0  0  0  0  0  0  0  0  0
  129.3480  133.3180   58.7970 C   0  0  0  0  0  0  0  0  0  0  0  0
  129.2660  132.2100   59.8680 C   0  0  0  0  0  0  0  0  0  0  0  0
  130.3640  132.2970   60.9580 C   0  0  1  0  0  0  0  0  0  0  0  0
  129.4990  132.0440   62.7450 Br  0  0  0  0  0  0  0  0  0  0  0  0
  131.5650  131.3100   60.7890 C   0  0  0  0  0  0  0  0  0  0  0  0
  131.1370  129.8340   60.9560 C   0  0  0  0  0  0  0  0  0  0  0  0
  132.2410  131.4730   59.4090 C   0  0  0  0  0  0  0  0  0  0  0  0
  132.8050  131.6470   62.0350 Cl  0  0  0  0  0  0  0  0  0  0  0  0
  130.4470  132.0760   56.7950 C   0  0  0  0  0  0  0  0  0  0  0  0
  130.0980  133.3810   56.4120 O   0  0  0  0  0  0  0  0  0  0  0  0
  126.4009  130.9261   56.3101 H   0  0  0  0  0  0  0  0  0  0  0  0
  128.0392  130.2527   57.0119 H   0  0  0  0  0  0  0  0  0  0  0  0
  127.2039  133.1672   56.5030 H   0  0  0  0  0  0  0  0  0  0  0  0
  130.3099  133.8401   58.9073 H   0  0  0  0  0  0  0  0  0  0  0  0
  128.4918  133.9900   58.9563 H   0  0  0  0  0  0  0  0  0  0  0  0
  128.2848  132.2784   60.3606 H   0  0  0  0  0  0  0  0  0  0  0  0
  129.4149  131.2537   59.3452 H   0  0  0  0  0  0  0  0  0  0  0  0
  130.8202  133.2930   60.8584 H   0  0  0  0  0  0  0  0  0  0  0  0
  131.0667  129.5915   62.0266 H   0  0  0  0  0  0  0  0  0  0  0  0
  130.1573  129.6802   60.4801 H   0  0  0  0  0  0  0  0  0  0  0  0
  131.8825  129.1800   60.4801 H   0  0  0  0  0  0  0  0  0  0  0  0
  133.3018  131.7288   59.5482 H   0  0  0  0  0  0  0  0  0  0  0  0
  132.1618  130.5300   58.8482 H   0  0  0  0  0  0  0  0  0  0  0  0
  131.7407  132.2762   58.8482 H   0  0  0  0  0  0  0  0  0  0  0  0
  131.3297  131.8993   57.4272 H   0  0  0  0  0  0  0  0  0  0  0  0
  130.6378  131.1243   56.2774 H   0  0  0  0  0  0  0  0  0  0  0  0
  1  2  2  0
  2  3  1  0
  3  4  1  1
  4  5  1  0
  5  6  1  0
  6  7  1  0
  6  8  1  0
  8  9  1  0
  8 10  1  0
  8 11  1  0
  3 12  1  0
 12 13  1  0
 13  3  1  0
  1 14  1  0
  1 15  1  0
  2 16  1  0
  4 17  1  0
  4 18  1  0
  5 19  1  0
  5 20  1  0
  6 21  1  1
  9 22  1  0
  9 23  1  0
  9 24  1  0
 10 25  1  0
 10 26  1  0
 10 27  1  0
 12 28  1  0
 12 29  1  0
M  END
>  <Binding energies>  (1) 
[-4.75]

>  <Ligand effiencies>  (1) 
[-0.36538461538461536]

>  <Interactions>  (1) 
["V-A:TYR:539:CD1:4873, V-A:PRO:540:N:4884, H-A:TYR:539:N:4870, V-A:PRO:540:CB:4885, V-A:PRO:540:CA:4883, V-A:TYR:539:CZ:4877, V-A:PRO:540:C:4881, V-A:ALA:541:CB:4892, V-A:TYR:539:CA:4869, V-A:MET:535:CE:4835, V-A:TYR:539:C:4867, V-A:TYR:539:CE1:4875, V-A:ASN:362:CB:3176"]

$$$$
ZINC16426390
     RDKit          3D

 61 66  0  0  0  0  0  0  0  0999 V2000
  128.9070  128.4560   66.8720 C   0  0  0  0  0  0  0  0  0  0  0  0
  128.0180  128.6470   65.6560 C   0  0  0  0  0  0  0  0  0  0  0  0
  126.8690  129.4370   65.7440 C   0  0  0  0  0  0  0  0  0  0  0  0
  126.0610  129.6260   64.6260 C   0  0  0  0  0  0  0  0  0  0  0  0
  126.4040  129.0250   63.4150 C   0  0  0  0  0  0  0  0  0  0  0  0
  125.5620  129.2540   62.3470 O   0  0  0  0  0  0  0  0  0  0  0  0
  125.8690  128.6750   61.1590 C   0  0  0  0  0  0  0  0  0  0  0  0
  126.9380  127.8860   60.9020 C   0  0  0  0  0  0  0  0  0  0  0  0
  127.2290  127.2330   59.5300 C   0  0  1  0  0  0  0  0  0  0  0  0
  127.6060  128.1800   58.4770 N   0  0  0  0  0  0  0  0  0  0  0  0
  128.7840  128.9230   58.6550 C   0  0  0  0  0  0  0  0  0  0  0  0
  128.7450  130.3190   58.5740 C   0  0  0  0  0  0  0  0  0  0  0  0
  129.8660  131.1080   58.8260 C   0  0  0  0  0  0  0  0  0  0  0  0
  129.7430  132.6240   58.7620 C   0  0  0  0  0  0  0  0  0  0  0  0
  131.0790  130.4860   59.1500 C   0  0  0  0  0  0  0  0  0  0  0  0
  132.3360  131.2930   59.4410 C   0  0  0  0  0  0  0  0  0  0  0  0
  131.1400  129.0920   59.1780 C   0  0  0  0  0  0  0  0  0  0  0  0
  130.0250  128.2930   58.9070 C   0  0  0  0  0  0  0  0  0  0  0  0
  130.1770  126.8990   58.8080 N   0  0  0  0  0  0  0  0  0  0  0  0
  129.3800  125.8530   59.2250 C   0  0  0  0  0  0  0  0  0  0  0  0
  128.0760  125.9430   59.6030 C   0  0  0  0  0  0  0  0  0  0  0  0
  127.3430  124.7460   60.1030 C   0  0  0  0  0  0  0  0  0  0  0  0
  126.1250  124.7380   60.2850 O   0  0  0  0  0  0  0  0  0  0  0  0
  128.1390  123.4380   60.2470 C   0  0  0  0  0  0  0  0  0  0  0  0
  129.6470  123.6730   60.4700 C   0  0  1  0  0  0  0  0  0  0  0  0
  130.4250  122.3770   60.6340 C   0  0  0  0  0  0  0  0  0  0  0  0
  129.9360  121.0920   60.8720 C   0  0  0  0  0  0  0  0  0  0  0  0
  130.9200  120.1040   60.9750 C   0  0  0  0  0  0  0  0  0  0  0  0
  132.1960  120.6110   60.8190 C   0  0  0  0  0  0  0  0  0  0  0  0
  132.1720  122.3180   60.5440 S   0  0  0  0  0  0  0  0  0  0  0  0
  130.2050  124.5670   59.3380 C   0  0  0  0  0  0  0  0  0  0  0  0
  127.9080  127.5920   61.9870 C   0  0  0  0  0  0  0  0  0  0  0  0
  128.9170  126.8950   61.8620 O   0  0  0  0  0  0  0  0  0  0  0  0
  127.5550  128.2290   63.3000 C   0  0  0  0  0  0  0  0  0  0  0  0
  128.3580  128.0510   64.4370 C   0  0  0  0  0  0  0  0  0  0  0  0
  128.3096  128.5843   67.7867 H   0  0  0  0  0  0  0  0  0  0  0  0
  129.3390  127.4445   66.8551 H   0  0  0  0  0  0  0  0  0  0  0  0
  129.7164  129.2008   66.8551 H   0  0  0  0  0  0  0  0  0  0  0  0
  126.6018  129.9113   66.6999 H   0  0  0  0  0  0  0  0  0  0  0  0
  125.1558  130.2468   64.6975 H   0  0  0  0  0  0  0  0  0  0  0  0
  125.1811  128.8657   60.3221 H   0  0  0  0  0  0  0  0  0  0  0  0
  126.2509  126.8634   59.1885 H   0  0  0  0  0  0  0  0  0  0  0  0
  126.8300  128.7910   58.2680 H   0  0  0  0  0  0  0  0  0  0  0  0
  127.7988  130.8100   58.3026 H   0  0  0  0  0  0  0  0  0  0  0  0
  129.7098  133.0326   59.7828 H   0  0  0  0  0  0  0  0  0  0  0  0
  130.6103  133.0400   58.2285 H   0  0  0  0  0  0  0  0  0  0  0  0
  128.8199  132.8948   58.2285 H   0  0  0  0  0  0  0  0  0  0  0  0
  132.4720  131.3803   60.5291 H   0  0  0  0  0  0  0  0  0  0  0  0
  133.2075  130.7852   59.0021 H   0  0  0  0  0  0  0  0  0  0  0  0
  132.2371  132.2968   59.0021 H   0  0  0  0  0  0  0  0  0  0  0  0
  132.0964  128.6060   59.4212 H   0  0  0  0  0  0  0  0  0  0  0  0
  131.1370  126.6310   58.6500 H   0  0  0  0  0  0  0  0  0  0  0  0
  127.7406  122.8777   61.1057 H   0  0  0  0  0  0  0  0  0  0  0  0
  128.0282  122.8795   59.3058 H   0  0  0  0  0  0  0  0  0  0  0  0
  129.7777  124.2031   61.4249 H   0  0  0  0  0  0  0  0  0  0  0  0
  128.8624  120.8738   60.9707 H   0  0  0  0  0  0  0  0  0  0  0  0
  130.7026  119.0416   61.1596 H   0  0  0  0  0  0  0  0  0  0  0  0
  133.1125  120.0044   60.8641 H   0  0  0  0  0  0  0  0  0  0  0  0
  131.2510  124.8246   59.5604 H   0  0  0  0  0  0  0  0  0  0  0  0
  130.1479  124.0188   58.3861 H   0  0  0  0  0  0  0  0  0  0  0  0
  129.2666  127.4348   64.3688 H   0  0  0  0  0  0  0  0  0  0  0  0
  1  2  1  0
  2  3  2  0
  3  4  1  0
  4  5  2  0
  5  6  1  0
  6  7  1  0
  7  8  2  0
  8  9  1  0
  9 10  1  0
 10 11  1  0
 11 12  2  0
 12 13  1  0
 13 14  1  0
 13 15  2  0
 15 16  1  0
 15 17  1  0
 17 18  2  0
 18 19  1  0
 19 20  1  0
 20 21  2  0
 21 22  1  0
 22 23  2  0
 22 24  1  0
 24 25  1  0
 25 26  1  0
 26 27  2  0
 27 28  1  0
 28 29  2  0
 29 30  1  0
 25 31  1  0
  8 32  1  0
 32 33  2  0
 32 34  1  0
 34 35  2  0
 35  2  1  0
 34  5  1  0
 21  9  1  0
 30 26  1  0
 18 11  1  0
 31 20  1  0
  1 36  1  0
  1 37  1  0
  1 38  1  0
  3 39  1  0
  4 40  1  0
  7 41  1  0
  9 42  1  6
 10 43  1  0
 12 44  1  0
 14 45  1  0
 14 46  1  0
 14 47  1  0
 16 48  1  0
 16 49  1  0
 16 50  1  0
 17 51  1  0
 19 52  1  0
 24 53  1  0
 24 54  1  0
 25 55  1  1
 27 56  1  0
 28 57  1  0
 29 58  1  0
 31 59  1  0
 31 60  1  0
 35 61  1  0
M  END
>  <Binding energies>  (1) 
[-5.03]

>  <Ligand effiencies>  (1) 
[-0.128974358974359]

>  <Interactions>  (1) 
["V-B:PRO:540:CA:9855, V-B:ASP:366:CG:8184, H-A:TYR:531:OH:4795, V-B:TYR:539:CE2:9848, V-A:ASP:366:CG:3213, V-B:TYR:539:CZ:9849, V-A:GLU:543:CD:4908, V-B:TYR:484:CZ:9318, V-B:TYR:539:CD2:9846, V-A:GLU:543:CG:4907, V-B:GLU:543:CD:9880, V-A:TYR:539:C:4867, H-B:TYR:531:OH:9767, V-A:LEU:475:CD2:4259, H-B:ARG:545:NH2:9900, V-A:GLU:543:CB:4906, V-A:PRO:540:N:4884, V-A:PRO:540:CB:4885, V-A:PRO:540:CA:4883"]

$$$$
ZINC164376467
     RDKit          3D

 66 73  0  0  0  0  0  0  0  0999 V2000
  130.5730  126.9010   63.6990 O   0  0  0  0  0  0  0  0  0  0  0  0
  130.9700  125.7490   63.8720 C   0  0  0  0  0  0  0  0  0  0  0  0
  131.8920  124.9760   62.9650 C   0  0  2  0  0  0  0  0  0  0  0  0
  132.2860  125.1810   61.4590 C   0  0  1  0  0  0  0  0  0  0  0  0
  133.6060  124.3750   61.4230 C   0  0  0  0  0  0  0  0  0  0  0  0
  133.5090  123.0800   61.8160 C   0  0  0  0  0  0  0  0  0  0  0  0
  132.0960  122.5750   62.1910 C   0  0  2  0  0  0  0  0  0  0  0  0
  131.2780  122.8620   60.8920 C   0  0  0  0  0  0  0  0  0  0  0  0
  130.3360  122.0290   60.3600 C   0  0  0  0  0  0  0  0  0  0  0  0
  130.2060  120.6350   60.8360 C   0  0  0  0  0  0  0  0  0  0  0  0
  131.1820  119.6880   60.5070 C   0  0  0  0  0  0  0  0  0  0  0  0
  131.0610  118.3730   60.9470 C   0  0  0  0  0  0  0  0  0  0  0  0
  129.9600  118.0010   61.7130 C   0  0  0  0  0  0  0  0  0  0  0  0
  128.9790  118.9320   62.0420 C   0  0  0  0  0  0  0  0  0  0  0  0
  129.1010  120.2480   61.6020 C   0  0  0  0  0  0  0  0  0  0  0  0
  129.2840  122.5220   59.3420 C   0  0  0  0  0  0  0  0  0  0  0  0
  129.4790  124.0090   58.9530 C   0  0  1  0  0  0  0  0  0  0  0  0
  128.3220  124.8440   58.4390 C   0  0  0  0  0  0  0  0  0  0  0  0
  127.3440  124.4060   57.8310 O   0  0  0  0  0  0  0  0  0  0  0  0
  128.6310  126.1460   58.7420 N   0  0  0  0  0  0  0  0  0  0  0  0
  127.9060  127.2600   58.2490 C   0  0  0  0  0  0  0  0  0  0  0  0
  128.3640  127.9590   57.1210 C   0  0  0  0  0  0  0  0  0  0  0  0
  127.6530  129.0530   56.6370 C   0  0  0  0  0  0  0  0  0  0  0  0
  126.4810  129.4540   57.2760 C   0  0  0  0  0  0  0  0  0  0  0  0
  125.4140  131.0980   56.5470 I   0  0  0  0  0  0  0  0  0  0  0  0
  126.0150  128.7700   58.3970 C   0  0  0  0  0  0  0  0  0  0  0  0
  126.7240  127.6750   58.8820 C   0  0  0  0  0  0  0  0  0  0  0  0
  129.7120  126.2510   59.5780 C   0  0  0  0  0  0  0  0  0  0  0  0
  130.3150  127.2680   59.9290 O   0  0  0  0  0  0  0  0  0  0  0  0
  129.9920  124.8470   60.0740 C   0  0  2  0  0  0  0  0  0  0  0  0
  131.4090  124.3620   60.4270 C   0  0  1  0  0  0  0  0  0  0  0  0
  131.3670  123.5960   63.1540 C   0  0  1  0  0  0  0  0  0  0  0  0
  131.1790  123.5960   64.6530 C   0  0  0  0  0  0  0  0  0  0  0  0
  131.3000  122.6240   65.4000 O   0  0  0  0  0  0  0  0  0  0  0  0
  130.7660  124.8870   64.9360 N   0  0  0  0  0  0  0  0  0  0  0  0
  130.1990  125.2840   66.1750 C   0  0  0  0  0  0  0  0  0  0  0  0
  130.0710  124.3620   67.2270 C   0  0  0  0  0  0  0  0  0  0  0  0
  129.5160  124.7540   68.4420 C   0  0  0  0  0  0  0  0  0  0  0  0
  129.0840  126.0670   68.6130 C   0  0  0  0  0  0  0  0  0  0  0  0
  128.2470  126.6540   70.4380 I   0  0  0  0  0  0  0  0  0  0  0  0
  129.2040  126.9930   67.5800 C   0  0  0  0  0  0  0  0  0  0  0  0
  129.7610  126.6050   66.3640 C   0  0  0  0  0  0  0  0  0  0  0  0
  132.8712  125.3650   63.2809 H   0  0  0  0  0  0  0  0  0  0  0  0
  132.2420  126.2491   61.1997 H   0  0  0  0  0  0  0  0  0  0  0  0
  134.5583  124.8214   61.1007 H   0  0  0  0  0  0  0  0  0  0  0  0
  134.3899  122.4231   61.8654 H   0  0  0  0  0  0  0  0  0  0  0  0
  132.1587  121.5563   62.6011 H   0  0  0  0  0  0  0  0  0  0  0  0
  132.0488  119.9840   59.8979 H   0  0  0  0  0  0  0  0  0  0  0  0
  131.8318  117.6313   60.6906 H   0  0  0  0  0  0  0  0  0  0  0  0
  129.8643  116.9620   62.0614 H   0  0  0  0  0  0  0  0  0  0  0  0
  128.1113  118.6299   62.6468 H   0  0  0  0  0  0  0  0  0  0  0  0
  128.3259  120.9855   61.8576 H   0  0  0  0  0  0  0  0  0  0  0  0
  129.3593  121.9076   58.4327 H   0  0  0  0  0  0  0  0  0  0  0  0
  128.2952  122.4293   59.8149 H   0  0  0  0  0  0  0  0  0  0  0  0
  130.1657  123.8161   58.1156 H   0  0  0  0  0  0  0  0  0  0  0  0
  129.2888  127.6406   56.6176 H   0  0  0  0  0  0  0  0  0  0  0  0
  128.0146  129.5993   55.7534 H   0  0  0  0  0  0  0  0  0  0  0  0
  125.0903  129.0943   58.8967 H   0  0  0  0  0  0  0  0  0  0  0  0
  126.3564  127.1323   59.7654 H   0  0  0  0  0  0  0  0  0  0  0  0
  129.5320  124.7892   61.0715 H   0  0  0  0  0  0  0  0  0  0  0  0
  131.9875  124.5153   59.5041 H   0  0  0  0  0  0  0  0  0  0  0  0
  130.4042  123.2027   62.7959 H   0  0  0  0  0  0  0  0  0  0  0  0
  130.4111  123.3249   67.0900 H   0  0  0  0  0  0  0  0  0  0  0  0
  129.4190  124.0295   69.2640 H   0  0  0  0  0  0  0  0  0  0  0  0
  128.8599  128.0278   67.7240 H   0  0  0  0  0  0  0  0  0  0  0  0
  129.8583  127.3363   65.5481 H   0  0  0  0  0  0  0  0  0  0  0  0
  1  2  2  0
  2  3  1  0
  3  4  1  0
  4  5  1  0
  5  6  2  0
  6  7  1  0
  7  8  1  0
  8  9  2  0
  9 10  1  0
 10 11  2  0
 11 12  1  0
 12 13  2  0
 13 14  1  0
 14 15  2  0
  9 16  1  0
 16 17  1  0
 17 18  1  0
 18 19  2  0
 18 20  1  0
 20 21  1  0
 21 22  2  0
 22 23  1  0
 23 24  2  0
 24 25  1  0
 24 26  1  0
 26 27  2  0
 20 28  1  0
 28 29  2  0
 28 30  1  0
 30 31  1  0
  7 32  1  0
 32 33  1  0
 33 34  2  0
 33 35  1  0
 35 36  1  0
 36 37  2  0
 37 38  1  0
 38 39  2  0
 39 40  1  0
 39 41  1  0
 41 42  2  0
 35  2  1  0
 42 36  1  0
 32  3  1  0
 31  4  1  0
 31  8  1  0
 15 10  1  0
 30 17  1  0
 27 21  1  0
  3 43  1  1
  4 44  1  6
  5 45  1  0
  6 46  1  0
  7 47  1  1
 11 48  1  0
 12 49  1  0
 13 50  1  0
 14 51  1  0
 15 52  1  0
 16 53  1  0
 16 54  1  0
 17 55  1  6
 22 56  1  0
 23 57  1  0
 26 58  1  0
 27 59  1  0
 30 60  1  1
 31 61  1  6
 32 62  1  6
 37 63  1  0
 38 64  1  0
 41 65  1  0
 42 66  1  0
M  END
>  <Binding energies>  (1) 
[-4.29]

>  <Ligand effiencies>  (1) 
[-0.10214285714285715]

>  <Interactions>  (1) 
["V-B:PRO:540:CA:9855, V-B:GLU:543:C:9874, V-B:GLU:543:CB:9878, V-B:ASP:366:CG:8184, V-B:ALA:541:CB:9864, V-B:TYR:539:CE2:9848, V-A:TYR:484:CE2:4346, V-A:LEU:475:CG:4257, V-B:GLU:543:CG:9879, V-B:TYR:539:C:9839, V-A:ASP:366:CG:3213, V-B:TYR:539:CZ:9849, V-A:TYR:539:CZ:4877, V-B:TYR:531:CZ:9766, V-A:LEU:475:CD1:4258, V-A:GLU:543:CD:4908, V-A:TYR:484:CZ:4347, V-B:ASP:366:CB:8183, V-B:GLU:543:CA:9876, V-B:HIS:456:CE1:9041, V-A:HIS:383:NE2:3394, V-A:ILE:369:CD1:3239, V-A:HIS:456:CE1:4070, V-A:PRO:482:CB:4326, V-B:TYR:539:CD2:9846, V-A:MET:535:CE:4835, V-B:GLU:543:CD:9880, V-A:LEU:475:CD2:4259, H-A:ARG:545:NH2:4928, V-B:TYR:539:CG:9844, V-B:PRO:540:C:9853, V-B:ALA:541:CA:9862, V-A:TYR:539:CE1:4875, H-A:TYR:484:OH:4348"]

$$$$
ZINC16478112
     RDKit          3D

 35 37  0  0  0  0  0  0  0  0999 V2000
  126.8100  122.8480   61.8110 N   0  0  0  0  0  0  0  0  0  0  0  0
  127.7240  123.2430   61.2200 C   0  0  0  0  0  0  0  0  0  0  0  0
  128.8390  123.7430   60.4780 C   0  0  0  0  0  0  0  0  0  0  0  0
  130.1000  123.3930   60.8310 C   0  0  0  0  0  0  0  0  0  0  0  0
  130.3960  122.5740   61.8980 N   0  0  0  0  0  0  0  0  0  0  0  0
  131.2110  123.8660   60.1400 N   0  0  0  0  0  0  0  0  0  0  0  0
  131.0600  124.6720   59.0150 C   0  0  0  0  0  0  0  0  0  0  0  0
  129.8450  125.0780   58.5790 C   0  0  0  0  0  0  0  0  0  0  0  0
  129.7300  125.9070   57.4210 C   0  0  0  0  0  0  0  0  0  0  0  0
  129.6160  126.5780   56.4860 N   0  0  0  0  0  0  0  0  0  0  0  0
  128.5310  124.6360   59.2580 C   0  0  1  0  0  0  0  0  0  0  0  0
  127.5660  123.9650   58.2760 C   0  0  0  0  0  0  0  0  0  0  0  0
  126.2460  124.4160   58.1700 C   0  0  0  0  0  0  0  0  0  0  0  0
  125.3690  123.8070   57.2770 C   0  0  0  0  0  0  0  0  0  0  0  0
  125.8120  122.7490   56.4880 C   0  0  0  0  0  0  0  0  0  0  0  0
  127.1240  122.2910   56.5860 C   0  0  0  0  0  0  0  0  0  0  0  0
  128.0010  122.8990   57.4800 C   0  0  0  0  0  0  0  0  0  0  0  0
  132.6430  125.0670   58.2790 S   0  0  0  0  0  0  0  0  0  0  0  0
  133.4930  123.9720   59.4150 C   0  0  0  0  0  0  0  0  0  0  0  0
  132.5880  123.9300   60.6420 C   0  0  1  0  0  0  0  0  0  0  0  0
  132.8280  125.1020   61.6210 C   0  0  0  0  0  0  0  0  0  0  0  0
  132.8330  124.4930   63.7200 I   0  0  0  0  0  0  0  0  0  0  0  0
  129.6980  122.3570   62.5950 H   0  0  0  0  0  0  0  0  0  0  0  0
  131.3130  122.1680   62.0090 H   0  0  0  0  0  0  0  0  0  0  0  0
  128.0119  125.5373   59.6162 H   0  0  0  0  0  0  0  0  0  0  0  0
  125.9004  125.2536   58.7937 H   0  0  0  0  0  0  0  0  0  0  0  0
  124.3305  124.1601   57.1951 H   0  0  0  0  0  0  0  0  0  0  0  0
  125.1193  122.2700   55.7803 H   0  0  0  0  0  0  0  0  0  0  0  0
  127.4653  121.4532   55.9602 H   0  0  0  0  0  0  0  0  0  0  0  0
  129.0379  122.5409   57.5610 H   0  0  0  0  0  0  0  0  0  0  0  0
  133.6057  122.9685   58.9788 H   0  0  0  0  0  0  0  0  0  0  0  0
  134.5096  124.3184   59.6529 H   0  0  0  0  0  0  0  0  0  0  0  0
  132.8147  123.0448   61.2544 H   0  0  0  0  0  0  0  0  0  0  0  0
  133.8018  125.5572   61.3878 H   0  0  0  0  0  0  0  0  0  0  0  0
  131.9961  125.8097   61.4903 H   0  0  0  0  0  0  0  0  0  0  0  0
  1  2  3  0
  2  3  1  0
  3  4  2  0
  4  5  1  0
  4  6  1  0
  6  7  1  0
  7  8  2  0
  8  9  1  0
  9 10  3  0
  8 11  1  0
 11 12  1  0
 12 13  2  0
 13 14  1  0
 14 15  2  0
 15 16  1  0
 16 17  2  0
  7 18  1  0
 18 19  1  0
 19 20  1  0
 20 21  1  0
 21 22  1  0
 11  3  1  0
 17 12  1  0
 20  6  1  0
  5 23  1  0
  5 24  1  0
 11 25  1  1
 13 26  1  0
 14 27  1  0
 15 28  1  0
 16 29  1  0
 17 30  1  0
 19 31  1  0
 19 32  1  0
 20 33  1  1
 21 34  1  0
 21 35  1  0
M  END
>  <Binding energies>  (1) 
[-7.23]

>  <Ligand effiencies>  (1) 
[-0.30125]

>  <Interactions>  (1) 
["V-A:ILE:369:CG2:3237, V-A:ASP:366:CA:3210, V-B:PRO:540:CA:9855, V-B:TYR:539:CA:9841, V-A:ILE:369:CB:3236, H-A:TYR:531:OH:4795, V-B:TYR:539:CE2:9848, V-B:TYR:539:C:9839, V-A:ASP:366:CG:3213, V-B:TYR:539:CZ:9849, H-B:TYR:539:OH:9850, H-B:ALA:541:N:9863, V-B:PRO:540:CB:9857, V-B:PRO:540:N:9856, V-B:TYR:539:CD2:9846, V-B:PRO:540:CD:9859, V-A:LEU:475:CD2:4259, V-A:ARG:545:CZ:4926, V-B:TYR:539:CG:9844, V-B:TYR:539:CD1:9845, V-B:LEU:363:CD1:8160, V-B:MET:535:CE:9807, V-B:TYR:539:CE1:9847"]

$$$$
ZINC1652037
     RDKit          3D

 40 39  0  0  0  0  0  0  0  0999 V2000
  131.2850  125.8290   66.6740 N   0  0  0  0  0  0  0  0  0  0  0  0
  130.0080  125.6630   67.5050 C   0  0  0  0  0  0  0  0  0  0  0  0
  129.7920  126.8970   68.3970 C   0  0  0  0  0  0  0  0  0  0  0  0
  128.3800  127.4930   68.2340 C   0  0  0  0  0  0  0  0  0  0  0  0
  128.2030  128.3880   66.9910 C   0  0  0  0  0  0  0  0  0  0  0  0
  128.7360  127.7780   65.6810 C   0  0  0  0  0  0  0  0  0  0  0  0
  128.0870  128.4220   64.4380 C   0  0  0  0  0  0  0  0  0  0  0  0
  128.8840  128.1640   63.1310 N   0  0  0  0  0  0  0  0  0  0  0  0
  128.5970  129.1700   61.9830 C   0  0  0  0  0  0  0  0  0  0  0  0
  129.8280  129.4450   61.0950 C   0  0  0  0  0  0  0  0  0  0  0  0
  130.9090  128.5880   61.4040 O   0  0  0  0  0  0  0  0  0  0  0  0
  128.8250  126.7030   62.6090 C   0  0  0  0  0  0  0  0  0  0  0  0
  130.0990  125.8930   62.9280 C   0  0  0  0  0  0  0  0  0  0  0  0
  131.0470  126.6550   63.6520 O   0  0  0  0  0  0  0  0  0  0  0  0
  131.7730  124.9470   66.6090 H   0  0  0  0  0  0  0  0  0  0  0  0
  131.8980  126.5070   67.1050 H   0  0  0  0  0  0  0  0  0  0  0  0
  131.0570  126.1420   65.7420 H   0  0  0  0  0  0  0  0  0  0  0  0
  129.1473  125.5473   66.8298 H   0  0  0  0  0  0  0  0  0  0  0  0
  130.1072  124.7719   68.1422 H   0  0  0  0  0  0  0  0  0  0  0  0
  129.9337  126.6038   69.4477 H   0  0  0  0  0  0  0  0  0  0  0  0
  130.5196  127.6643   68.0940 H   0  0  0  0  0  0  0  0  0  0  0  0
  127.6624  126.6622   68.1641 H   0  0  0  0  0  0  0  0  0  0  0  0
  128.2092  128.1366   69.1096 H   0  0  0  0  0  0  0  0  0  0  0  0
  127.1292  128.5899   66.8636 H   0  0  0  0  0  0  0  0  0  0  0  0
  128.7940  129.2974   67.1747 H   0  0  0  0  0  0  0  0  0  0  0  0
  129.8241  127.9327   65.6340 H   0  0  0  0  0  0  0  0  0  0  0  0
  128.4862  126.7067   65.6785 H   0  0  0  0  0  0  0  0  0  0  0  0
  127.0747  128.0086   64.3180 H   0  0  0  0  0  0  0  0  0  0  0  0
  128.0714  129.5095   64.6029 H   0  0  0  0  0  0  0  0  0  0  0  0
  129.8540  128.3150   63.3750 H   0  0  0  0  0  0  0  0  0  0  0  0
  127.7947  128.7605   61.3516 H   0  0  0  0  0  0  0  0  0  0  0  0
  128.3096  130.1243   62.4485 H   0  0  0  0  0  0  0  0  0  0  0  0
  129.5464  129.2953   60.0422 H   0  0  0  0  0  0  0  0  0  0  0  0
  130.1532  130.4798   61.2780 H   0  0  0  0  0  0  0  0  0  0  0  0
  130.9590  128.4840   62.3570 H   0  0  0  0  0  0  0  0  0  0  0  0
  127.9647  126.1997   63.0744 H   0  0  0  0  0  0  0  0  0  0  0  0
  128.7325  126.7500   61.5139 H   0  0  0  0  0  0  0  0  0  0  0  0
  129.8195  125.0133   63.5264 H   0  0  0  0  0  0  0  0  0  0  0  0
  130.5598  125.5968   61.9741 H   0  0  0  0  0  0  0  0  0  0  0  0
  131.3390  127.3860   63.1010 H   0  0  0  0  0  0  0  0  0  0  0  0
  1  2  1  0
  2  3  1  0
  3  4  1  0
  4  5  1  0
  5  6  1  0
  6  7  1  0
  7  8  1  0
  8  9  1  0
  9 10  1  0
 10 11  1  0
  8 12  1  0
 12 13  1  0
 13 14  1  0
  1 15  1  0
  1 16  1  0
  1 17  1  0
  2 18  1  0
  2 19  1  0
  3 20  1  0
  3 21  1  0
  4 22  1  0
  4 23  1  0
  5 24  1  0
  5 25  1  0
  6 26  1  0
  6 27  1  0
  7 28  1  0
  7 29  1  0
  8 30  1  0
  9 31  1  0
  9 32  1  0
 10 33  1  0
 10 34  1  0
 11 35  1  0
 12 36  1  0
 12 37  1  0
 13 38  1  0
 13 39  1  0
 14 40  1  0
M  CHG  2   1   1   8   1
M  END
>  <Binding energies>  (1) 
[-3.93]

>  <Ligand effiencies>  (1) 
[-0.1965]

>  <Interactions>  (1) 
["V-A:HIS:456:CE1:4070, H-A:GLU:543:OE2:4910, V-B:GLU:543:CB:9878, V-A:GLU:543:CG:4907, V-B:GLU:543:CD:9880, V-A:GLU:543:CB:4906, V-A:GLU:543:CD:4908, H-A:ASP:366:OD2:3215, H-A:ARG:545:NH2:4928, V-B:GLU:543:CG:9879, H-A:GLU:543:OE1:4909, V-B:HIS:456:CE1:9041, H-A:TYR:484:OH:4348"]

$$$$
ZINC165222552-again1
     RDKit          3D

111117  0  0  0  0  0  0  0  0999 V2000
  131.6070  129.9060   57.5290 C   0  0  0  0  0  0  0  0  0  0  0  0
  132.3080  130.9720   58.4110 C   0  0  0  0  0  0  0  0  0  0  0  0
  133.8420  130.7890   58.4180 C   0  0  0  0  0  0  0  0  0  0  0  0
  132.0000  132.4120   57.9220 C   0  0  0  0  0  0  0  0  0  0  0  0
  130.4880  132.7190   57.8850 C   0  0  0  0  0  0  0  0  0  0  0  0
  129.7700  132.2440   59.1570 C   0  0  0  0  0  0  0  0  0  0  0  0
  128.3260  132.7340   59.2910 C   0  0  0  0  0  0  0  0  0  0  0  0
  127.2890  131.8530   58.5580 N   0  0  0  0  0  0  0  0  0  0  0  0
  126.4090  131.0590   59.5480 C   0  0  0  0  0  0  0  0  0  0  0  0
  125.4270  130.1730   58.7490 C   0  0  0  0  0  0  0  0  0  0  0  0
  126.1280  129.1890   57.9000 N   0  0  0  0  0  0  0  0  0  0  0  0
  126.5470  127.9630   58.4310 C   0  0  0  0  0  0  0  0  0  0  0  0
  125.7440  126.8200   58.3120 C   0  0  0  0  0  0  0  0  0  0  0  0
  126.1530  125.5900   58.8210 C   0  0  0  0  0  0  0  0  0  0  0  0
  127.3950  125.4420   59.4540 C   0  0  0  0  0  0  0  0  0  0  0  0
  127.7720  124.1170   59.9910 C   0  0  0  0  0  0  0  0  0  0  0  0
  126.8000  123.3400   59.9330 O   0  0  0  0  0  0  0  0  0  0  0  0
  128.9670  124.0010   60.4270 N   0  0  0  0  0  0  0  0  0  0  0  0
  129.5670  122.4680   61.0810 S   0  0  0  0  0  0  0  0  0  0  0  0
  128.6170  121.3670   61.2920 O   0  0  0  0  0  0  0  0  0  0  0  0
  130.8900  122.0460   60.6080 O   0  0  0  0  0  0  0  0  0  0  0  0
  129.8570  123.0920   62.7380 C   0  0  0  0  0  0  0  0  0  0  0  0
  130.3400  122.2380   63.7230 C   0  0  0  0  0  0  0  0  0  0  0  0
  130.5660  122.7160   65.0080 C   0  0  0  0  0  0  0  0  0  0  0  0
  130.3130  124.0570   65.3410 C   0  0  0  0  0  0  0  0  0  0  0  0
  130.5840  124.5170   66.6450 N   0  0  0  0  0  0  0  0  0  0  0  0
  129.5520  124.9030   67.6040 C   0  0  0  0  0  0  0  0  0  0  0  0
  129.7110  126.3300   68.1760 C   0  0  0  0  0  0  0  0  0  0  0  0
  129.1770  126.4690   69.6250 N   0  0  0  0  0  0  0  0  0  0  0  0
  130.0730  127.3830   70.4910 C   0  0  0  0  0  0  0  0  0  0  0  0
  129.4410  127.5150   71.8920 C   0  0  0  0  0  0  0  0  0  0  0  0
  128.0990  127.9840   71.7970 O   0  0  0  0  0  0  0  0  0  0  0  0
  127.2290  127.1270   71.0640 C   0  0  0  0  0  0  0  0  0  0  0  0
  127.7160  126.9720   69.6110 C   0  0  0  0  0  0  0  0  0  0  0  0
  129.7960  124.9340   64.3490 C   0  0  0  0  0  0  0  0  0  0  0  0
  129.4620  126.3710   64.6040 N   0  0  0  0  0  0  0  0  0  0  0  0
  128.8060  126.6920   65.5900 O   0  0  0  0  0  0  0  0  0  0  0  0
  129.8510  127.2120   63.7980 O   0  0  0  0  0  0  0  0  0  0  0  0
  129.5810  124.4220   63.0570 C   0  0  0  0  0  0  0  0  0  0  0  0
  128.2200  126.5800   59.5740 C   0  0  0  0  0  0  0  0  0  0  0  0
  129.4340  126.4790   60.2280 O   0  0  0  0  0  0  0  0  0  0  0  0
  130.5730  126.1580   59.5240 C   0  0  0  0  0  0  0  0  0  0  0  0
  130.6980  126.4760   58.1650 C   0  0  0  0  0  0  0  0  0  0  0  0
  131.8610  126.1430   57.4710 C   0  0  0  0  0  0  0  0  0  0  0  0
  132.9020  125.4880   58.1270 C   0  0  0  0  0  0  0  0  0  0  0  0
  132.7830  125.1650   59.4800 C   0  0  0  0  0  0  0  0  0  0  0  0
  134.0840  124.3530   60.2780 Cl  0  0  0  0  0  0  0  0  0  0  0  0
  131.6180  125.4980   60.1780 C   0  0  0  0  0  0  0  0  0  0  0  0
  131.5010  125.1890   61.4920 F   0  0  0  0  0  0  0  0  0  0  0  0
  127.7940  127.8110   59.0550 C   0  0  0  0  0  0  0  0  0  0  0  0
  126.9370  129.9630   56.9380 C   0  0  0  0  0  0  0  0  0  0  0  0
  128.0010  130.8510   57.6230 C   0  0  0  0  0  0  0  0  0  0  0  0
  130.3300  131.3220   59.9930 C   0  0  0  0  0  0  0  0  0  0  0  0
  129.6490  130.9190   61.2380 C   0  0  0  0  0  0  0  0  0  0  0  0
  129.5850  131.8090   62.3140 C   0  0  0  0  0  0  0  0  0  0  0  0
  128.9210  131.4430   63.4830 C   0  0  0  0  0  0  0  0  0  0  0  0
  128.3110  130.1940   63.5690 C   0  0  0  0  0  0  0  0  0  0  0  0
  127.4930  129.7370   65.0190 Cl  0  0  0  0  0  0  0  0  0  0  0  0
  128.3480  129.3120   62.4910 C   0  0  0  0  0  0  0  0  0  0  0  0
  129.0100  129.6790   61.3230 C   0  0  0  0  0  0  0  0  0  0  0  0
  131.8040  130.9100   59.8780 C   0  0  0  0  0  0  0  0  0  0  0  0
  131.1173  129.1612   58.1736 H   0  0  0  0  0  0  0  0  0  0  0  0
  130.8529  130.3938   56.8939 H   0  0  0  0  0  0  0  0  0  0  0  0
  132.3537  129.4069   56.8939 H   0  0  0  0  0  0  0  0  0  0  0  0
  134.2014  130.7461   59.4567 H   0  0  0  0  0  0  0  0  0  0  0  0
  134.1020  129.8535   57.9011 H   0  0  0  0  0  0  0  0  0  0  0  0
  134.3148  131.6371   57.9011 H   0  0  0  0  0  0  0  0  0  0  0  0
  132.4873  133.1261   58.6021 H   0  0  0  0  0  0  0  0  0  0  0  0
  132.3821  132.5023   56.8945 H   0  0  0  0  0  0  0  0  0  0  0  0
  130.3492  133.8055   57.7842 H   0  0  0  0  0  0  0  0  0  0  0  0
  130.0540  132.1799   57.0300 H   0  0  0  0  0  0  0  0  0  0  0  0
  128.0666  132.7558   60.3598 H   0  0  0  0  0  0  0  0  0  0  0  0
  128.2842  133.7285   58.8227 H   0  0  0  0  0  0  0  0  0  0  0  0
  126.6860  132.4390   57.9980 H   0  0  0  0  0  0  0  0  0  0  0  0
  127.0466  130.4246   60.1812 H   0  0  0  0  0  0  0  0  0  0  0  0
  125.8459  131.7559   60.1862 H   0  0  0  0  0  0  0  0  0  0  0  0
  124.7805  129.6334   59.4568 H   0  0  0  0  0  0  0  0  0  0  0  0
  124.8393  130.8294   58.0904 H   0  0  0  0  0  0  0  0  0  0  0  0
  124.7703  126.8964   57.8059 H   0  0  0  0  0  0  0  0  0  0  0  0
  125.4891  124.7183   58.7246 H   0  0  0  0  0  0  0  0  0  0  0  0
  130.5433  121.1835   63.4850 H   0  0  0  0  0  0  0  0  0  0  0  0
  130.9501  122.0316   65.7788 H   0  0  0  0  0  0  0  0  0  0  0  0
  131.5490  124.6370   66.9140 H   0  0  0  0  0  0  0  0  0  0  0  0
  128.5754  124.8410   67.1016 H   0  0  0  0  0  0  0  0  0  0  0  0
  129.6419  124.2125   68.4556 H   0  0  0  0  0  0  0  0  0  0  0  0
  130.7793  126.5922   68.1702 H   0  0  0  0  0  0  0  0  0  0  0  0
  129.1171  127.0049   67.5421 H   0  0  0  0  0  0  0  0  0  0  0  0
  129.1690  125.5550   70.0550 H   0  0  0  0  0  0  0  0  0  0  0  0
  131.0767  126.9416   70.5782 H   0  0  0  0  0  0  0  0  0  0  0  0
  130.1572  128.3753   70.0238 H   0  0  0  0  0  0  0  0  0  0  0  0
  129.4457  126.5314   72.3844 H   0  0  0  0  0  0  0  0  0  0  0  0
  130.0276  128.2379   72.4779 H   0  0  0  0  0  0  0  0  0  0  0  0
  127.2066  126.1380   71.5450 H   0  0  0  0  0  0  0  0  0  0  0  0
  126.2218  127.5692   71.0545 H   0  0  0  0  0  0  0  0  0  0  0  0
  127.0802  126.2455   69.0837 H   0  0  0  0  0  0  0  0  0  0  0  0
  127.6599  127.9409   69.0932 H   0  0  0  0  0  0  0  0  0  0  0  0
  129.1844  125.0882   62.2766 H   0  0  0  0  0  0  0  0  0  0  0  0
  129.8765  126.9897   57.6441 H   0  0  0  0  0  0  0  0  0  0  0  0
  131.9569  126.3974   56.4051 H   0  0  0  0  0  0  0  0  0  0  0  0
  133.8183  125.2253   57.5780 H   0  0  0  0  0  0  0  0  0  0  0  0
  128.4579  128.6840   59.1398 H   0  0  0  0  0  0  0  0  0  0  0  0
  127.4480  129.2600   56.2638 H   0  0  0  0  0  0  0  0  0  0  0  0
  126.2526  130.6296   56.3927 H   0  0  0  0  0  0  0  0  0  0  0  0
  128.6858  130.2209   58.2096 H   0  0  0  0  0  0  0  0  0  0  0  0
  128.5776  131.3966   56.8615 H   0  0  0  0  0  0  0  0  0  0  0  0
  130.0590  132.7987   62.2378 H   0  0  0  0  0  0  0  0  0  0  0  0
  128.8788  132.1379   64.3347 H   0  0  0  0  0  0  0  0  0  0  0  0
  127.8565  128.3305   62.5627 H   0  0  0  0  0  0  0  0  0  0  0  0
  129.0303  128.9914   60.4647 H   0  0  0  0  0  0  0  0  0  0  0  0
  132.4125  131.5898   60.4924 H   0  0  0  0  0  0  0  0  0  0  0  0
  131.8965  129.8711   60.2273 H   0  0  0  0  0  0  0  0  0  0  0  0
  1  2  1  0
  2  3  1  0
  2  4  1  0
  4  5  1  0
  5  6  1  0
  6  7  1  0
  7  8  1  0
  8  9  1  0
  9 10  1  0
 10 11  1  0
 11 12  1  0
 12 13  2  0
 13 14  1  0
 14 15  2  0
 15 16  1  0
 16 17  1  0
 16 18  2  0
 18 19  1  0
 19 20  2  0
 19 21  2  0
 19 22  1  0
 22 23  2  0
 23 24  1  0
 24 25  2  0
 25 26  1  0
 26 27  1  0
 27 28  1  0
 28 29  1  0
 29 30  1  0
 30 31  1  0
 31 32  1  0
 32 33  1  0
 33 34  1  0
 25 35  1  0
 35 36  1  0
 36 37  2  0
 36 38  1  0
 35 39  2  0
 15 40  1  0
 40 41  1  0
 41 42  1  0
 42 43  2  0
 43 44  1  0
 44 45  2  0
 45 46  1  0
 46 47  1  0
 46 48  2  0
 48 49  1  0
 40 50  2  0
 11 51  1  0
 51 52  1  0
  6 53  2  0
 53 54  1  0
 54 55  2  0
 55 56  1  0
 56 57  2  0
 57 58  1  0
 57 59  1  0
 59 60  2  0
 53 61  1  0
 61  2  1  0
 52  8  1  0
 60 54  1  0
 50 12  1  0
 39 22  1  0
 48 42  1  0
 34 29  1  0
  1 62  1  0
  1 63  1  0
  1 64  1  0
  3 65  1  0
  3 66  1  0
  3 67  1  0
  4 68  1  0
  4 69  1  0
  5 70  1  0
  5 71  1  0
  7 72  1  0
  7 73  1  0
  8 74  1  0
  9 75  1  0
  9 76  1  0
 10 77  1  0
 10 78  1  0
 13 79  1  0
 14 80  1  0
 23 81  1  0
 24 82  1  0
 26 83  1  0
 27 84  1  0
 27 85  1  0
 28 86  1  0
 28 87  1  0
 29 88  1  0
 30 89  1  0
 30 90  1  0
 31 91  1  0
 31 92  1  0
 33 93  1  0
 33 94  1  0
 34 95  1  0
 34 96  1  0
 39 97  1  0
 43 98  1  0
 44 99  1  0
 45100  1  0
 50101  1  0
 51102  1  0
 51103  1  0
 52104  1  0
 52105  1  0
 55106  1  0
 56107  1  0
 59108  1  0
 60109  1  0
 61110  1  0
 61111  1  0
M  CHG  5   8   1  17  -1  29   1  36   1  38  -1
M  END
>  <Binding energies>  (1) 
[-9.84]

>  <Ligand effiencies>  (1) 
[-0.15375]

>  <Interactions>  (1) 
["V-A:ILE:369:CG2:3237, V-A:ASP:366:CA:3210, V-A:PRO:540:CG:4886, V-B:GLU:543:C:9874, V-A:ILE:369:CB:3236, H-B:GLU:543:O:9875, V-B:HIS:456:CD2:9039, V-B:GLU:543:CB:9878, V-B:ASP:366:CG:8184, V-B:ALA:541:CB:9864, V-A:TYR:484:CE2:4346, V-B:GLU:543:CG:9879, V-A:ASP:366:CG:3213, V-A:TYR:539:CD1:4873, V-A:LEU:363:CD1:3189, V-A:LEU:363:CB:3187, V-A:LEU:363:CG:3188, V-A:TYR:531:CE2:4793, V-B:TYR:531:CZ:9766, H-B:ALA:541:N:9863, V-B:ASP:366:CB:8183, V-A:GLU:543:CD:4908, V-A:TYR:484:CZ:4347, V-B:GLU:543:CA:9876, V-B:HIS:456:CE1:9041, V-A:ILE:369:CD1:3239, V-A:HIS:456:CE1:4070, V-A:ASP:366:C:3208, V-B:GLY:544:C:9884, V-B:GLY:544:CA:9886, V-A:TYR:531:CZ:4794, V-A:GLU:543:CG:4907, V-A:MET:535:CE:4835, V-B:GLU:543:CD:9880, V-B:HIS:456:CG:9037, V-A:TYR:539:C:4867, V-A:ASP:366:CB:3212, V-A:LEU:475:CD2:4259, V-A:PRO:540:N:4884, V-A:PRO:540:CB:4885, V-A:PRO:540:CA:4883, V-A:LEU:363:CA:3185, H-A:TYR:539:OH:4878, V-A:PRO:540:CD:4887, V-A:TYR:539:CE1:4875, H-A:HIS:456:NE2:4071, H-A:TYR:484:OH:4348"]

$$$$
ZINC16676166
     RDKit          3D

 48 50  0  0  0  0  0  0  0  0999 V2000
  132.6400  123.9070   59.7420 C   0  0  0  0  0  0  0  0  0  0  0  0
  132.9440  122.4060   59.8980 C   0  0  0  0  0  0  0  0  0  0  0  0
  132.0130  121.6890   60.7800 N   0  0  0  0  0  0  0  0  0  0  0  0
  132.1190  120.2240   60.7620 C   0  0  0  0  0  0  0  0  0  0  0  0
  130.7680  119.5020   60.9040 C   0  0  0  0  0  0  0  0  0  0  0  0
  131.6010  122.2640   62.0140 C   0  0  0  0  0  0  0  0  0  0  0  0
  130.2820  122.1520   62.4840 C   0  0  0  0  0  0  0  0  0  0  0  0
  129.9040  122.7320   63.6900 C   0  0  0  0  0  0  0  0  0  0  0  0
  130.8330  123.4440   64.4510 C   0  0  0  0  0  0  0  0  0  0  0  0
  130.4640  124.0520   65.7480 C   0  0  0  0  0  0  0  0  0  0  0  0
  129.9580  125.2880   66.0390 C   0  0  0  0  0  0  0  0  0  0  0  0
  129.7770  126.3150   65.0010 C   0  0  0  0  0  0  0  0  0  0  0  0
  130.1910  126.2710   63.8430 O   0  0  0  0  0  0  0  0  0  0  0  0
  129.1060  127.4170   65.4050 N   0  0  0  0  0  0  0  0  0  0  0  0
  128.6650  127.7120   66.6650 C   0  0  0  0  0  0  0  0  0  0  0  0
  127.8610  129.1740   66.8320 S   0  0  0  0  0  0  0  0  0  0  0  0
  128.9460  126.7850   67.6710 N   0  0  0  0  0  0  0  0  0  0  0  0
  128.5750  127.0410   69.0220 C   0  0  0  0  0  0  0  0  0  0  0  0
  127.2620  126.7640   69.4320 C   0  0  0  0  0  0  0  0  0  0  0  0
  126.8720  126.9980   70.7490 C   0  0  0  0  0  0  0  0  0  0  0  0
  127.7890  127.5070   71.6690 C   0  0  0  0  0  0  0  0  0  0  0  0
  127.3050  127.7970   73.3000 Cl  0  0  0  0  0  0  0  0  0  0  0  0
  129.0980  127.7810   71.2710 C   0  0  0  0  0  0  0  0  0  0  0  0
  129.5000  127.5490   69.9540 C   0  0  0  0  0  0  0  0  0  0  0  0
  131.1380  127.9000   69.5130 Cl  0  0  0  0  0  0  0  0  0  0  0  0
  129.5970  125.5810   67.4430 C   0  0  0  0  0  0  0  0  0  0  0  0
  129.8610  124.7870   68.3570 O   0  0  0  0  0  0  0  0  0  0  0  0
  132.1510  123.5420   64.0080 C   0  0  0  0  0  0  0  0  0  0  0  0
  132.5280  122.9640   62.7990 C   0  0  0  0  0  0  0  0  0  0  0  0
  132.5467  124.3675   60.7366 H   0  0  0  0  0  0  0  0  0  0  0  0
  133.4583  124.3913   59.1890 H   0  0  0  0  0  0  0  0  0  0  0  0
  131.6977  124.0347   59.1890 H   0  0  0  0  0  0  0  0  0  0  0  0
  132.9025  121.9408   58.9021 H   0  0  0  0  0  0  0  0  0  0  0  0
  133.9382  122.3326   60.3630 H   0  0  0  0  0  0  0  0  0  0  0  0
  132.5756  119.9210   59.8082 H   0  0  0  0  0  0  0  0  0  0  0  0
  132.7290  119.9362   61.6310 H   0  0  0  0  0  0  0  0  0  0  0  0
  130.5304  119.3750   61.9705 H   0  0  0  0  0  0  0  0  0  0  0  0
  129.9805  120.0995   60.4215 H   0  0  0  0  0  0  0  0  0  0  0  0
  130.8271  118.5152   60.4215 H   0  0  0  0  0  0  0  0  0  0  0  0
  129.5390  121.5987   61.8908 H   0  0  0  0  0  0  0  0  0  0  0  0
  128.8683  122.6293   64.0460 H   0  0  0  0  0  0  0  0  0  0  0  0
  130.6229  123.4029   66.6218 H   0  0  0  0  0  0  0  0  0  0  0  0
  128.9380  128.1460   64.7280 H   0  0  0  0  0  0  0  0  0  0  0  0
  126.5370  126.3601   68.7101 H   0  0  0  0  0  0  0  0  0  0  0  0
  125.8405  126.7813   71.0636 H   0  0  0  0  0  0  0  0  0  0  0  0
  129.8179  128.1824   71.9994 H   0  0  0  0  0  0  0  0  0  0  0  0
  132.8954  124.0776   64.6155 H   0  0  0  0  0  0  0  0  0  0  0  0
  133.5685  123.0579   62.4545 H   0  0  0  0  0  0  0  0  0  0  0  0
  1  2  1  0
  2  3  1  0
  3  4  1  0
  4  5  1  0
  3  6  1  0
  6  7  2  0
  7  8  1  0
  8  9  2  0
  9 10  1  0
 10 11  2  0
 11 12  1  0
 12 13  2  0
 12 14  1  0
 14 15  1  0
 15 16  2  0
 15 17  1  0
 17 18  1  0
 18 19  2  0
 19 20  1  0
 20 21  2  0
 21 22  1  0
 21 23  1  0
 23 24  2  0
 24 25  1  0
 17 26  1  0
 26 27  2  0
  9 28  1  0
 28 29  2  0
 29  6  1  0
 26 11  1  0
 24 18  1  0
  1 30  1  0
  1 31  1  0
  1 32  1  0
  2 33  1  0
  2 34  1  0
  4 35  1  0
  4 36  1  0
  5 37  1  0
  5 38  1  0
  5 39  1  0
  7 40  1  0
  8 41  1  0
 10 42  1  0
 14 43  1  0
 19 44  1  0
 20 45  1  0
 23 46  1  0
 28 47  1  0
 29 48  1  0
M  END
>  <Binding energies>  (1) 
[-7.77]

>  <Ligand effiencies>  (1) 
[-0.259]

>  <Interactions>  (1) 
["V-A:ILE:369:CG2:3237, V-B:GLU:543:C:9874, H-A:GLU:543:OE2:4910, V-B:HIS:456:CD2:9039, V-A:GLU:543:C:4902, V-B:GLU:543:CB:9878, V-B:ALA:541:CB:9864, V-B:TYR:539:CE2:9848, V-A:TYR:484:CE2:4346, V-B:GLU:543:CG:9879, V-A:GLY:544:C:4912, V-B:LYS:547:CE:9922, V-A:TYR:484:CZ:4347, V-A:GLU:543:CD:4908, V-B:GLU:543:CA:9876, V-B:HIS:456:CE1:9041, V-A:ARG:545:CG:4922, V-A:HIS:456:CE1:4070, V-B:TYR:484:CZ:9318, V-B:GLY:544:C:9884, V-B:TYR:539:CD2:9846, V-A:GLU:543:CG:4907, V-A:SER:385:CB:3409, V-B:GLY:544:CA:9886, V-B:GLU:543:CD:9880, V-B:HIS:456:CG:9037, V-A:LEU:475:CD2:4259, H-A:GLU:543:OE1:4909, V-A:GLU:543:CB:4906, H-B:GLU:543:OE2:9882"]

$$$$
ZINC16676166-again1
     RDKit          3D

 47 49  0  0  0  0  0  0  0  0999 V2000
  133.6100  120.9200   61.2740 C   0  0  0  0  0  0  0  0  0  0  0  0
  132.5320  121.3570   60.2650 C   0  0  0  0  0  0  0  0  0  0  0  0
  131.1670  121.3800   60.8090 N   0  0  0  0  0  0  0  0  0  0  0  0
  130.3440  120.1990   60.5160 C   0  0  0  0  0  0  0  0  0  0  0  0
  131.0290  118.8650   60.8540 C   0  0  0  0  0  0  0  0  0  0  0  0
  130.8980  122.0270   62.0470 C   0  0  0  0  0  0  0  0  0  0  0  0
  129.7010  121.8170   62.7500 C   0  0  0  0  0  0  0  0  0  0  0  0
  129.4580  122.4680   63.9570 C   0  0  0  0  0  0  0  0  0  0  0  0
  130.4050  123.3500   64.4810 C   0  0  0  0  0  0  0  0  0  0  0  0
  130.1820  124.0330   65.7730 C   0  0  0  0  0  0  0  0  0  0  0  0
  129.7710  125.3110   66.0580 C   0  0  0  0  0  0  0  0  0  0  0  0
  129.5130  125.6310   67.4800 C   0  0  0  0  0  0  0  0  0  0  0  0
  129.8930  124.8870   68.3960 O   0  0  0  0  0  0  0  0  0  0  0  0
  128.8280  126.8190   67.7210 N   0  0  0  0  0  0  0  0  0  0  0  0
  128.4860  127.0650   69.0820 C   0  0  0  0  0  0  0  0  0  0  0  0
  127.1930  126.7470   69.5250 C   0  0  0  0  0  0  0  0  0  0  0  0
  126.8300  126.9690   70.8530 C   0  0  0  0  0  0  0  0  0  0  0  0
  127.7550  127.5050   71.7490 C   0  0  0  0  0  0  0  0  0  0  0  0
  127.3040  127.7780   73.3930 Cl  0  0  0  0  0  0  0  0  0  0  0  0
  129.0430  127.8190   71.3180 C   0  0  0  0  0  0  0  0  0  0  0  0
  129.4180  127.6020   69.9900 C   0  0  0  0  0  0  0  0  0  0  0  0
  131.0330  128.0000   69.5090 Cl  0  0  0  0  0  0  0  0  0  0  0  0
  128.5040  127.7340   66.7060 C   0  0  0  0  0  0  0  0  0  0  0  0
  127.6390  129.1570   66.9250 S   0  0  0  0  0  0  0  0  0  0  0  0
  128.9420  127.4770   65.4130 N   0  0  0  0  0  0  0  0  0  0  0  0
  129.5280  126.3920   65.0860 C   0  0  0  0  0  0  0  0  0  0  0  0
  129.9650  126.3560   63.9230 O   0  0  0  0  0  0  0  0  0  0  0  0
  131.6060  123.5510   63.8040 C   0  0  0  0  0  0  0  0  0  0  0  0
  131.8470  122.9010   62.5970 C   0  0  0  0  0  0  0  0  0  0  0  0
  133.2369  121.0712   62.2977 H   0  0  0  0  0  0  0  0  0  0  0  0
  133.8442  119.8559   61.1226 H   0  0  0  0  0  0  0  0  0  0  0  0
  134.5190  121.5206   61.1226 H   0  0  0  0  0  0  0  0  0  0  0  0
  132.7797  122.3695   59.9134 H   0  0  0  0  0  0  0  0  0  0  0  0
  132.5361  120.6104   59.4571 H   0  0  0  0  0  0  0  0  0  0  0  0
  129.4153  120.2698   61.1012 H   0  0  0  0  0  0  0  0  0  0  0  0
  130.1598  120.1984   59.4315 H   0  0  0  0  0  0  0  0  0  0  0  0
  131.0882  118.7497   61.9463 H   0  0  0  0  0  0  0  0  0  0  0  0
  130.4455  118.0351   60.4288 H   0  0  0  0  0  0  0  0  0  0  0  0
  132.0434  118.8556   60.4288 H   0  0  0  0  0  0  0  0  0  0  0  0
  128.9454  121.1294   62.3422 H   0  0  0  0  0  0  0  0  0  0  0  0
  128.5179  122.2869   64.4987 H   0  0  0  0  0  0  0  0  0  0  0  0
  130.3794  123.4099   66.6578 H   0  0  0  0  0  0  0  0  0  0  0  0
  126.4626  126.3207   68.8216 H   0  0  0  0  0  0  0  0  0  0  0  0
  125.8139  126.7214   71.1941 H   0  0  0  0  0  0  0  0  0  0  0  0
  129.7691  128.2406   72.0286 H   0  0  0  0  0  0  0  0  0  0  0  0
  132.3662  124.2256   64.2247 H   0  0  0  0  0  0  0  0  0  0  0  0
  132.7951  123.0753   62.0671 H   0  0  0  0  0  0  0  0  0  0  0  0
  1  2  1  0
  2  3  1  0
  3  4  1  0
  4  5  1  0
  3  6  1  0
  6  7  2  0
  7  8  1  0
  8  9  2  0
  9 10  1  0
 10 11  2  0
 11 12  1  0
 12 13  2  0
 12 14  1  0
 14 15  1  0
 15 16  2  0
 16 17  1  0
 17 18  2  0
 18 19  1  0
 18 20  1  0
 20 21  2  0
 21 22  1  0
 14 23  1  0
 23 24  2  0
 23 25  1  0
 25 26  2  0
 26 27  1  0
  9 28  1  0
 28 29  2  0
 29  6  1  0
 26 11  1  0
 21 15  1  0
  1 30  1  0
  1 31  1  0
  1 32  1  0
  2 33  1  0
  2 34  1  0
  4 35  1  0
  4 36  1  0
  5 37  1  0
  5 38  1  0
  5 39  1  0
  7 40  1  0
  8 41  1  0
 10 42  1  0
 16 43  1  0
 17 44  1  0
 20 45  1  0
 28 46  1  0
 29 47  1  0
M  CHG  1  27  -1
M  END
>  <Binding energies>  (1) 
[-5.92]

>  <Ligand effiencies>  (1) 
[-0.20413793103448274]

>  <Interactions>  (1) 
["V-A:ILE:369:CG2:3237, V-A:GLU:543:CA:4904, V-B:GLU:543:C:9874, V-B:HIS:456:CD2:9039, V-A:GLU:543:C:4902, V-B:GLU:543:CB:9878, V-B:ALA:541:CB:9864, V-B:TYR:539:CE2:9848, V-A:TYR:484:CE2:4346, V-B:GLU:543:CG:9879, V-A:GLY:544:C:4912, V-B:TYR:539:C:9839, V-B:LYS:547:CE:9922, V-A:TYR:484:CZ:4347, V-A:GLU:543:CD:4908, V-B:GLU:543:CA:9876, V-B:HIS:456:CE1:9041, V-A:SER:385:C:3405, V-A:HIS:456:CE1:4070, V-B:TYR:484:CZ:9318, V-B:GLY:544:C:9884, V-B:TYR:539:CD2:9846, V-B:GLY:544:CA:9886, V-A:SER:385:CB:3409, V-B:GLU:543:CD:9880, V-B:HIS:456:CG:9037, V-A:LEU:475:CD2:4259, V-B:TYR:539:CG:9844, V-A:GLU:543:CB:4906, V-A:SER:385:CA:3407"]

$$$$
ZINC16730431
     RDKit          3D

 50 53  0  0  0  0  0  0  0  0999 V2000
  129.8870  117.8590   61.4730 C   0  0  0  0  0  0  0  0  0  0  0  0
  131.1560  118.1200   60.8930 O   0  0  0  0  0  0  0  0  0  0  0  0
  131.3290  119.4750   60.5000 C   0  0  0  0  0  0  0  0  0  0  0  0
  130.2330  120.3330   61.1430 C   0  0  0  0  0  0  0  0  0  0  0  0
  130.2330  121.6400   60.5790 O   0  0  0  0  0  0  0  0  0  0  0  0
  129.1180  122.4110   60.5830 C   0  0  0  0  0  0  0  0  0  0  0  0
  128.0700  122.0770   61.1410 O   0  0  0  0  0  0  0  0  0  0  0  0
  129.2820  123.6700   59.8130 C   0  0  0  0  0  0  0  0  0  0  0  0
  128.7330  123.8730   58.5760 C   0  0  0  0  0  0  0  0  0  0  0  0
  127.7760  122.9530   57.8150 C   0  0  0  0  0  0  0  0  0  0  0  0
  128.9010  125.0330   57.8740 N   0  0  0  0  0  0  0  0  0  0  0  0
  129.4850  126.0430   58.4010 C   0  0  0  0  0  0  0  0  0  0  0  0
  129.6300  127.6200   57.6290 S   0  0  0  0  0  0  0  0  0  0  0  0
  130.4290  128.2430   59.0770 C   0  0  0  0  0  0  0  0  0  0  0  0
  130.8620  129.5030   59.2990 C   0  0  0  0  0  0  0  0  0  0  0  0
  130.7360  130.6100   58.3340 C   0  0  0  0  0  0  0  0  0  0  0  0
  131.8600  131.0660   57.6240 C   0  0  0  0  0  0  0  0  0  0  0  0
  133.4230  130.3550   57.8490 Cl  0  0  0  0  0  0  0  0  0  0  0  0
  131.7340  132.1180   56.7140 C   0  0  0  0  0  0  0  0  0  0  0  0
  130.4960  132.7210   56.5030 C   0  0  0  0  0  0  0  0  0  0  0  0
  129.3780  132.2740   57.2020 C   0  0  0  0  0  0  0  0  0  0  0  0
  129.4900  131.2230   58.1150 C   0  0  0  0  0  0  0  0  0  0  0  0
  128.0680  130.7100   58.9600 Cl  0  0  0  0  0  0  0  0  0  0  0  0
  130.5900  127.2030   60.0750 C   0  0  0  0  0  0  0  0  0  0  0  0
  131.1150  127.3550   61.1820 O   0  0  0  0  0  0  0  0  0  0  0  0
  130.0780  126.0270   59.6270 N   0  0  0  0  0  0  0  0  0  0  0  0
  130.1760  124.7760   60.4510 C   0  0  2  0  0  0  0  0  0  0  0  0
  131.6210  124.3060   60.6220 C   0  0  0  0  0  0  0  0  0  0  0  0
  132.6620  124.2900   59.6900 C   0  0  0  0  0  0  0  0  0  0  0  0
  133.8660  123.7720   60.1760 C   0  0  0  0  0  0  0  0  0  0  0  0
  133.7750  123.3780   61.4970 C   0  0  0  0  0  0  0  0  0  0  0  0
  132.1920  123.6560   62.1370 S   0  0  0  0  0  0  0  0  0  0  0  0
  129.9743  117.8770   62.5694 H   0  0  0  0  0  0  0  0  0  0  0  0
  129.1707  118.6286   61.1495 H   0  0  0  0  0  0  0  0  0  0  0  0
  129.5326  116.8692   61.1495 H   0  0  0  0  0  0  0  0  0  0  0  0
  132.3158  119.8306   60.8314 H   0  0  0  0  0  0  0  0  0  0  0  0
  131.2625  119.5524   59.4047 H   0  0  0  0  0  0  0  0  0  0  0  0
  129.2543  119.8623   60.9678 H   0  0  0  0  0  0  0  0  0  0  0  0
  130.4267  120.4098   62.2231 H   0  0  0  0  0  0  0  0  0  0  0  0
  127.1748  122.3751   58.5324 H   0  0  0  0  0  0  0  0  0  0  0  0
  127.1101  123.5587   57.1828 H   0  0  0  0  0  0  0  0  0  0  0  0
  128.3550  122.2638   57.1828 H   0  0  0  0  0  0  0  0  0  0  0  0
  131.3412  129.7176   60.2656 H   0  0  0  0  0  0  0  0  0  0  0  0
  132.6166  132.4721   56.1612 H   0  0  0  0  0  0  0  0  0  0  0  0
  130.4019  133.5491   55.7851 H   0  0  0  0  0  0  0  0  0  0  0  0
  128.4012  132.7512   57.0343 H   0  0  0  0  0  0  0  0  0  0  0  0
  129.8094  124.9959   61.4645 H   0  0  0  0  0  0  0  0  0  0  0  0
  132.5438  124.6549   58.6590 H   0  0  0  0  0  0  0  0  0  0  0  0
  134.7829  123.6876   59.5742 H   0  0  0  0  0  0  0  0  0  0  0  0
  134.6060  122.9417   62.0707 H   0  0  0  0  0  0  0  0  0  0  0  0
  1  2  1  0
  2  3  1  0
  3  4  1  0
  4  5  1  0
  5  6  1  0
  6  7  2  0
  6  8  1  0
  8  9  2  0
  9 10  1  0
  9 11  1  0
 11 12  2  0
 12 13  1  0
 13 14  1  0
 14 15  2  0
 15 16  1  0
 16 17  2  0
 17 18  1  0
 17 19  1  0
 19 20  2  0
 20 21  1  0
 21 22  2  0
 22 23  1  0
 14 24  1  0
 24 25  2  0
 24 26  1  0
 26 27  1  0
 27 28  1  0
 28 29  2  0
 29 30  1  0
 30 31  2  0
 31 32  1  0
 27  8  1  0
 32 28  1  0
 26 12  1  0
 22 16  1  0
  1 33  1  0
  1 34  1  0
  1 35  1  0
  3 36  1  0
  3 37  1  0
  4 38  1  0
  4 39  1  0
 10 40  1  0
 10 41  1  0
 10 42  1  0
 15 43  1  0
 19 44  1  0
 20 45  1  0
 21 46  1  0
 27 47  1  1
 29 48  1  0
 30 49  1  0
 31 50  1  0
M  END
>  <Binding energies>  (1) 
[-7.05]

>  <Ligand effiencies>  (1) 
[-0.2203125]

>  <Interactions>  (1) 
["V-A:ILE:369:CG2:3237, V-B:PRO:540:CA:9855, V-A:ILE:369:CB:3236, V-A:ILE:538:CB:4862, V-B:ALA:541:CB:9864, V-B:TYR:539:CE2:9848, V-B:TYR:539:C:9839, V-A:ASP:366:CG:3213, V-A:LEU:363:CD1:3189, V-B:TYR:539:CZ:9849, V-A:ILE:538:CA:4860, V-A:TYR:531:CE2:4793, H-B:TYR:539:OH:9850, H-B:ALA:541:N:9863, V-B:PRO:540:N:9856, V-A:ILE:369:CD1:3239, V-A:PRO:482:CB:4326, V-B:TYR:539:CD2:9846, V-A:TYR:531:CZ:4794, H-A:SER:385:OG:3410, V-A:ASP:366:CB:3212, V-A:LEU:475:CD2:4259, H-A:ARG:545:NH2:4928, V-B:TYR:539:CG:9844, H-A:HIS:383:HE2:3395, V-A:PRO:482:CG:4327, V-A:LEU:363:CA:3185"]

$$$$
ZINC16732212
     RDKit          3D

 44 46  0  0  0  0  0  0  0  0999 V2000
  128.9270  133.0070   60.0330 C   0  0  0  0  0  0  0  0  0  0  0  0
  128.3490  133.7240   61.2610 C   0  0  0  0  0  0  0  0  0  0  0  0
  128.2880  132.8240   62.5060 C   0  0  0  0  0  0  0  0  0  0  0  0
  127.2530  131.6910   62.3640 C   0  0  0  0  0  0  0  0  0  0  0  0
  127.7400  130.3750   62.8430 N   0  0  0  0  0  0  0  0  0  0  0  0
  127.8860  130.1470   64.1750 C   0  0  0  0  0  0  0  0  0  0  0  0
  127.6170  131.0090   65.0120 O   0  0  0  0  0  0  0  0  0  0  0  0
  128.3780  128.7880   64.4290 C   0  0  0  0  0  0  0  0  0  0  0  0
  128.6470  128.1850   65.6380 C   0  0  0  0  0  0  0  0  0  0  0  0
  128.5080  128.7730   66.9820 C   0  0  0  0  0  0  0  0  0  0  0  0
  128.1440  129.9020   67.3120 O   0  0  0  0  0  0  0  0  0  0  0  0
  128.8670  127.8180   67.8720 N   0  0  0  0  0  0  0  0  0  0  0  0
  128.8560  128.0620   69.3210 C   0  0  0  0  0  0  0  0  0  0  0  0
  130.2640  128.0710   69.9450 C   0  0  0  0  0  0  0  0  0  0  0  0
  130.2220  128.0750   71.4780 C   0  0  0  0  0  0  0  0  0  0  0  0
  129.2560  126.6540   67.2580 C   0  0  0  0  0  0  0  0  0  0  0  0
  129.7050  125.4610   67.8320 C   0  0  0  0  0  0  0  0  0  0  0  0
  130.0470  124.3960   67.0010 C   0  0  0  0  0  0  0  0  0  0  0  0
  129.9370  124.5310   65.6160 C   0  0  0  0  0  0  0  0  0  0  0  0
  130.4010  123.0770   64.4800 Br  0  0  0  0  0  0  0  0  0  0  0  0
  129.4860  125.7330   65.0630 C   0  0  0  0  0  0  0  0  0  0  0  0
  129.1420  126.8120   65.8930 C   0  0  0  0  0  0  0  0  0  0  0  0
  128.5780  128.0010   62.8560 S   0  0  0  0  0  0  0  0  0  0  0  0
  128.0380  129.3780   61.9610 C   0  0  0  0  0  0  0  0  0  0  0  0
  127.9580  129.3100   60.2950 S   0  0  0  0  0  0  0  0  0  0  0  0
  129.5858  132.1898   60.3619 H   0  0  0  0  0  0  0  0  0  0  0  0
  128.1055  132.5950   59.4285 H   0  0  0  0  0  0  0  0  0  0  0  0
  129.5039  133.7224   59.4285 H   0  0  0  0  0  0  0  0  0  0  0  0
  128.9809  134.5952   61.4884 H   0  0  0  0  0  0  0  0  0  0  0  0
  127.3179  134.0187   61.0161 H   0  0  0  0  0  0  0  0  0  0  0  0
  129.2802  132.3774   62.6676 H   0  0  0  0  0  0  0  0  0  0  0  0
  127.9835  133.4506   63.3573 H   0  0  0  0  0  0  0  0  0  0  0  0
  126.3590  131.9626   62.9445 H   0  0  0  0  0  0  0  0  0  0  0  0
  127.0397  131.5833   61.2903 H   0  0  0  0  0  0  0  0  0  0  0  0
  128.3845  129.0382   69.5077 H   0  0  0  0  0  0  0  0  0  0  0  0
  128.2969  127.2374   69.7873 H   0  0  0  0  0  0  0  0  0  0  0  0
  130.8057  127.1747   69.6084 H   0  0  0  0  0  0  0  0  0  0  0  0
  130.7698  128.9922   69.6201 H   0  0  0  0  0  0  0  0  0  0  0  0
  131.2440  127.9777   71.8731 H   0  0  0  0  0  0  0  0  0  0  0  0
  129.7811  129.0192   71.8303 H   0  0  0  0  0  0  0  0  0  0  0  0
  129.6108  127.2310   71.8303 H   0  0  0  0  0  0  0  0  0  0  0  0
  129.7872  125.3643   68.9247 H   0  0  0  0  0  0  0  0  0  0  0  0
  130.4031  123.4504   67.4357 H   0  0  0  0  0  0  0  0  0  0  0  0
  129.4001  125.8342   63.9710 H   0  0  0  0  0  0  0  0  0  0  0  0
  1  2  1  0
  2  3  1  0
  3  4  1  0
  4  5  1  0
  5  6  1  0
  6  7  2  0
  6  8  1  0
  8  9  2  0
  9 10  1  0
 10 11  2  0
 10 12  1  0
 12 13  1  0
 13 14  1  0
 14 15  1  0
 12 16  1  0
 16 17  2  0
 17 18  1  0
 18 19  2  0
 19 20  1  0
 19 21  1  0
 21 22  2  0
  8 23  1  0
 23 24  1  0
 24 25  2  0
 24  5  1  0
 22  9  1  0
 22 16  1  0
  1 26  1  0
  1 27  1  0
  1 28  1  0
  2 29  1  0
  2 30  1  0
  3 31  1  0
  3 32  1  0
  4 33  1  0
  4 34  1  0
 13 35  1  0
 13 36  1  0
 14 37  1  0
 14 38  1  0
 15 39  1  0
 15 40  1  0
 15 41  1  0
 17 42  1  0
 18 43  1  0
 21 44  1  0
M  END
>  <Binding energies>  (1) 
[-6.43]

>  <Ligand effiencies>  (1) 
[-0.2572]

>  <Interactions>  (1) 
["V-A:GLU:543:C:4902, V-B:GLU:543:CB:9878, V-A:PRO:540:C:4881, V-A:TYR:484:CE2:4346, V-B:GLU:543:CG:9879, V-A:GLY:544:C:4912, V-A:ALA:541:CB:4892, V-A:GLU:543:CD:4908, V-A:TYR:484:CZ:4347, H-B:TYR:484:OH:9319, V-B:HIS:456:CE1:9041, V-B:GLU:543:CA:9876, V-A:HIS:456:CE1:4070, V-A:GLU:543:CG:4907, V-B:GLU:543:CD:9880, V-A:TYR:539:C:4867, V-A:LEU:475:CD2:4259, V-A:GLU:543:CB:4906, V-A:PRO:540:N:4884, V-A:PRO:540:CA:4883"]

$$$$
ZINC167901069
     RDKit          3D

 73 77  0  0  0  0  0  0  0  0999 V2000
  128.6580  129.7320   67.9750 C   0  0  0  0  0  0  0  0  0  0  0  0
  127.9010  128.6200   67.4100 N   0  0  0  0  0  0  0  0  0  0  0  0
  126.5620  128.8760   66.8950 C   0  0  0  0  0  0  0  0  0  0  0  0
  128.6130  127.5730   66.7780 C   0  0  0  0  0  0  0  0  0  0  0  0
  129.0670  126.5090   67.5820 C   0  0  0  0  0  0  0  0  0  0  0  0
  128.7880  126.4280   69.0950 C   0  0  1  0  0  0  0  0  0  0  0  0
  129.5750  127.3770   70.0070 C   0  0  0  0  0  0  0  0  0  0  0  0
  128.6920  127.6140   71.2390 C   0  0  0  0  0  0  0  0  0  0  0  0
  127.3220  126.9920   70.9380 C   0  0  0  0  0  0  0  0  0  0  0  0
  127.3260  126.7650   69.4220 N   0  0  0  0  0  0  0  0  0  0  0  0
  129.7890  125.4780   66.9880 C   0  0  0  0  0  0  0  0  0  0  0  0
  130.0790  125.4820   65.6330 C   0  0  0  0  0  0  0  0  0  0  0  0
  130.7980  124.4000   65.1820 O   0  0  0  0  0  0  0  0  0  0  0  0
  129.6320  126.5300   64.7920 C   0  0  0  0  0  0  0  0  0  0  0  0
  128.8800  127.5830   65.3840 C   0  0  0  0  0  0  0  0  0  0  0  0
  128.3740  128.7090   64.4770 C   0  0  0  0  0  0  0  0  0  0  0  0
  128.0100  128.1690   63.0850 C   0  0  1  0  0  0  0  0  0  0  0  0
  127.3100  129.2080   62.1570 C   0  0  0  0  0  0  0  0  0  0  0  0
  128.2400  129.8860   61.1150 C   0  0  1  0  0  0  0  0  0  0  0  0
  129.2620  130.8680   61.7530 C   0  0  2  0  0  0  0  0  0  0  0  0
  128.4960  132.1050   62.3250 N   0  0  0  0  0  0  0  0  0  0  0  0
  127.2670  132.5330   61.4980 C   0  0  0  0  0  0  0  0  0  0  0  0
  128.1780  132.0620   63.8370 C   0  0  0  0  0  0  0  0  0  0  0  0
  130.4280  131.2940   60.8210 C   0  0  0  0  0  0  0  0  0  0  0  0
  131.2530  132.1710   61.2530 O   0  0  0  0  0  0  0  0  0  0  0  0
  130.7500  130.5210   59.6560 C   0  0  0  0  0  0  0  0  0  0  0  0
  131.9250  130.8210   58.8990 C   0  0  0  0  0  0  0  0  0  0  0  0
  132.1950  129.9030   57.9050 N   0  0  0  0  0  0  0  0  0  0  0  0
  132.6700  131.8330   59.0990 O   0  0  0  0  0  0  0  0  0  0  0  0
  129.8680  129.4880   59.1850 C   0  0  0  0  0  0  0  0  0  0  0  0
  129.8610  129.1660   57.9450 O   0  0  0  0  0  0  0  0  0  0  0  0
  128.9310  128.8010   60.2420 C   0  0  2  0  0  0  0  0  0  0  0  0
  127.9370  128.0470   59.5490 O   0  0  0  0  0  0  0  0  0  0  0  0
  129.6670  127.8180   61.1840 C   0  0  0  0  0  0  0  0  0  0  0  0
  130.7220  127.2330   60.5400 O   0  0  0  0  0  0  0  0  0  0  0  0
  129.2600  127.5260   62.4560 C   0  0  0  0  0  0  0  0  0  0  0  0
  129.9630  126.5160   63.2980 C   0  0  0  0  0  0  0  0  0  0  0  0
  130.7420  125.6870   62.8240 O   0  0  0  0  0  0  0  0  0  0  0  0
  128.6222  129.6795   69.0732 H   0  0  0  0  0  0  0  0  0  0  0  0
  129.7037  129.6720   67.6389 H   0  0  0  0  0  0  0  0  0  0  0  0
  128.2188  130.6829   67.6389 H   0  0  0  0  0  0  0  0  0  0  0  0
  125.8651  129.0092   67.7356 H   0  0  0  0  0  0  0  0  0  0  0  0
  126.5737  129.7882   66.2803 H   0  0  0  0  0  0  0  0  0  0  0  0
  126.2364  128.0238   66.2803 H   0  0  0  0  0  0  0  0  0  0  0  0
  129.0885  125.3896   69.2983 H   0  0  0  0  0  0  0  0  0  0  0  0
  130.5291  126.9171   70.3040 H   0  0  0  0  0  0  0  0  0  0  0  0
  129.8120  128.3214   69.4951 H   0  0  0  0  0  0  0  0  0  0  0  0
  129.1389  127.1334   72.1218 H   0  0  0  0  0  0  0  0  0  0  0  0
  128.5960  128.6891   71.4512 H   0  0  0  0  0  0  0  0  0  0  0  0
  127.2022  126.0385   71.4733 H   0  0  0  0  0  0  0  0  0  0  0  0
  126.4910  127.6360   71.2615 H   0  0  0  0  0  0  0  0  0  0  0  0
  126.6880  126.0320   69.1440 H   0  0  0  0  0  0  0  0  0  0  0  0
  127.0570  127.6150   68.9470 H   0  0  0  0  0  0  0  0  0  0  0  0
  130.1378  124.6398   67.6091 H   0  0  0  0  0  0  0  0  0  0  0  0
  131.3520  124.0050   65.8580 H   0  0  0  0  0  0  0  0  0  0  0  0
  127.4817  129.1643   64.9315 H   0  0  0  0  0  0  0  0  0  0  0  0
  129.1726  129.4573   64.3663 H   0  0  0  0  0  0  0  0  0  0  0  0
  127.2378  127.3959   63.2111 H   0  0  0  0  0  0  0  0  0  0  0  0
  126.5056  128.6920   61.6122 H   0  0  0  0  0  0  0  0  0  0  0  0
  126.9457  130.0116   62.8139 H   0  0  0  0  0  0  0  0  0  0  0  0
  127.6120  130.5138   60.4657 H   0  0  0  0  0  0  0  0  0  0  0  0
  129.7617  130.3210   62.5661 H   0  0  0  0  0  0  0  0  0  0  0  0
  129.1510  132.8660   62.2170 H   0  0  0  0  0  0  0  0  0  0  0  0
  126.4495  132.8177   62.1767 H   0  0  0  0  0  0  0  0  0  0  0  0
  127.5328  133.3915   60.8637 H   0  0  0  0  0  0  0  0  0  0  0  0
  126.9420  131.6951   60.8637 H   0  0  0  0  0  0  0  0  0  0  0  0
  129.1079  132.1877   64.4110 H   0  0  0  0  0  0  0  0  0  0  0  0
  127.4795  132.8739   64.0880 H   0  0  0  0  0  0  0  0  0  0  0  0
  127.7202  131.0938   64.0880 H   0  0  0  0  0  0  0  0  0  0  0  0
  131.5850  129.1090   57.7790 H   0  0  0  0  0  0  0  0  0  0  0  0
  133.0080  130.0350   57.3200 H   0  0  0  0  0  0  0  0  0  0  0  0
  128.2220  127.9240   58.6410 H   0  0  0  0  0  0  0  0  0  0  0  0
  131.3680  126.9350   61.1850 H   0  0  0  0  0  0  0  0  0  0  0  0
  1  2  1  0
  2  3  1  0
  2  4  1  0
  4  5  2  0
  5  6  1  0
  6  7  1  0
  7  8  1  0
  8  9  1  0
  9 10  1  0
  5 11  1  0
 11 12  2  0
 12 13  1  0
 12 14  1  0
 14 15  2  0
 15 16  1  0
 16 17  1  0
 17 18  1  0
 18 19  1  0
 19 20  1  0
 20 21  1  0
 21 22  1  0
 21 23  1  0
 20 24  1  0
 24 25  1  0
 24 26  2  0
 26 27  1  0
 27 28  1  0
 27 29  2  0
 26 30  1  0
 30 31  2  0
 30 32  1  0
 32 33  1  6
 32 34  1  0
 34 35  1  0
 34 36  2  0
 36 37  1  0
 37 38  2  0
 15  4  1  0
 36 17  1  0
 10  6  1  0
 37 14  1  0
 32 19  1  0
  1 39  1  0
  1 40  1  0
  1 41  1  0
  3 42  1  0
  3 43  1  0
  3 44  1  0
  6 45  1  1
  7 46  1  0
  7 47  1  0
  8 48  1  0
  8 49  1  0
  9 50  1  0
  9 51  1  0
 10 52  1  0
 10 53  1  0
 11 54  1  0
 13 55  1  0
 16 56  1  0
 16 57  1  0
 17 58  1  1
 18 59  1  0
 18 60  1  0
 19 61  1  6
 20 62  1  1
 21 63  1  0
 22 64  1  0
 22 65  1  0
 22 66  1  0
 23 67  1  0
 23 68  1  0
 23 69  1  0
 28 70  1  0
 28 71  1  0
 33 72  1  0
 35 73  1  0
M  CHG  3  10   1  21   1  25  -1
M  END
>  <Binding energies>  (1) 
[-5.46]

>  <Ligand effiencies>  (1) 
[-0.11869565217391305]

>  <Interactions>  (1) 
["V-A:GLU:543:CA:4904, V-B:GLU:543:C:9874, V-B:HIS:456:CD2:9039, H-B:GLU:543:O:9875, H-A:ALA:541:N:4891, V-A:GLU:543:C:4902, V-B:GLU:543:CB:9878, H-A:TYR:531:OH:4795, V-B:GLU:543:CG:9879, V-A:ASP:366:CG:3213, V-B:TYR:484:CE2:9317, V-A:TYR:531:CE2:4793, V-A:ALA:541:CB:4892, V-A:GLU:543:CD:4908, V-B:HIS:456:CE1:9041, V-B:GLU:543:CA:9876, V-A:HIS:456:CE1:4070, V-B:TYR:484:CZ:9318, V-B:GLY:544:C:9884, H-B:HIS:456:NE2:9042, V-B:GLY:544:CA:9886, V-A:GLU:543:CG:4907, V-A:TYR:531:CZ:4794, V-B:GLU:543:CD:9880, V-A:ASP:366:CB:3212, H-A:GLU:543:OE1:4909, V-A:GLU:543:CB:4906, H-A:ASP:366:OD2:3215, H-A:TYR:484:OH:4348"]

$$$$
ZINC167901069-again1
     RDKit          3D

 72 76  0  0  0  0  0  0  0  0999 V2000
  132.0400  125.4710   66.4480 C   0  0  0  0  0  0  0  0  0  0  0  0
  130.6320  125.1550   66.2250 N   0  0  0  0  0  0  0  0  0  0  0  0
  129.9740  124.2300   67.1400 C   0  0  0  0  0  0  0  0  0  0  0  0
  129.8030  126.1490   65.6570 C   0  0  0  0  0  0  0  0  0  0  0  0
  129.1470  127.0360   66.5310 C   0  0  0  0  0  0  0  0  0  0  0  0
  129.3160  126.9790   68.0610 C   0  0  1  0  0  0  0  0  0  0  0  0
  129.5000  128.3140   68.7970 C   0  0  0  0  0  0  0  0  0  0  0  0
  128.9530  128.0490   70.1950 C   0  0  0  0  0  0  0  0  0  0  0  0
  127.7240  127.1780   69.9480 C   0  0  0  0  0  0  0  0  0  0  0  0
  128.1010  126.3130   68.7360 N   0  0  0  0  0  0  0  0  0  0  0  0
  128.3120  128.0130   66.0000 C   0  0  0  0  0  0  0  0  0  0  0  0
  128.0990  128.1220   64.6340 C   0  0  0  0  0  0  0  0  0  0  0  0
  127.2480  129.1310   64.2500 O   0  0  0  0  0  0  0  0  0  0  0  0
  128.7440  127.2500   63.7230 C   0  0  0  0  0  0  0  0  0  0  0  0
  129.6160  126.2580   64.2530 C   0  0  0  0  0  0  0  0  0  0  0  0
  130.3340  125.3240   63.2740 C   0  0  0  0  0  0  0  0  0  0  0  0
  130.6750  126.0580   61.9660 C   0  0  1  0  0  0  0  0  0  0  0  0
  131.5670  125.2460   60.9810 C   0  0  0  0  0  0  0  0  0  0  0  0
  130.8060  124.5400   59.8290 C   0  0  1  0  0  0  0  0  0  0  0  0
  130.0060  123.2920   60.3190 C   0  0  2  0  0  0  0  0  0  0  0  0
  130.8670  122.1110   60.5570 N   0  0  0  0  0  0  0  0  0  0  0  0
  130.2560  121.0560   61.3650 C   0  0  0  0  0  0  0  0  0  0  0  0
  132.2200  122.4140   61.0200 C   0  0  0  0  0  0  0  0  0  0  0  0
  128.7200  122.9740   59.4950 C   0  0  0  0  0  0  0  0  0  0  0  0
  127.9110  122.0990   59.9600 O   0  0  0  0  0  0  0  0  0  0  0  0
  128.3450  123.7570   58.3550 C   0  0  0  0  0  0  0  0  0  0  0  0
  127.1280  123.5000   57.6530 C   0  0  0  0  0  0  0  0  0  0  0  0
  126.2720  124.5820   57.6130 N   0  0  0  0  0  0  0  0  0  0  0  0
  126.8320  122.3880   57.1120 O   0  0  0  0  0  0  0  0  0  0  0  0
  129.1900  124.8180   57.9060 C   0  0  0  0  0  0  0  0  0  0  0  0
  129.2670  125.1080   56.6620 O   0  0  0  0  0  0  0  0  0  0  0  0
  129.9720  125.5790   59.0290 C   0  0  2  0  0  0  0  0  0  0  0  0
  130.8500  126.5280   58.4220 O   0  0  0  0  0  0  0  0  0  0  0  0
  129.0670  126.3530   60.0160 C   0  0  0  0  0  0  0  0  0  0  0  0
  127.9670  126.8440   59.3680 O   0  0  0  0  0  0  0  0  0  0  0  0
  129.3710  126.5720   61.3300 C   0  0  0  0  0  0  0  0  0  0  0  0
  128.4930  127.3830   62.2200 C   0  0  0  0  0  0  0  0  0  0  0  0
  127.6320  128.1490   61.7790 O   0  0  0  0  0  0  0  0  0  0  0  0
  132.2390  125.5157   67.5289 H   0  0  0  0  0  0  0  0  0  0  0  0
  132.6675  124.6913   65.9915 H   0  0  0  0  0  0  0  0  0  0  0  0
  132.2742  126.4440   65.9915 H   0  0  0  0  0  0  0  0  0  0  0  0
  130.1858  124.5277   68.1775 H   0  0  0  0  0  0  0  0  0  0  0  0
  128.8880  124.2528   66.9664 H   0  0  0  0  0  0  0  0  0  0  0  0
  130.3518  123.2116   66.9664 H   0  0  0  0  0  0  0  0  0  0  0  0
  130.2520  126.4085   68.1524 H   0  0  0  0  0  0  0  0  0  0  0  0
  130.5634  128.5922   68.8404 H   0  0  0  0  0  0  0  0  0  0  0  0
  128.9859  129.1465   68.2943 H   0  0  0  0  0  0  0  0  0  0  0  0
  129.6930  127.5166   70.8106 H   0  0  0  0  0  0  0  0  0  0  0  0
  128.7152  128.9742   70.7404 H   0  0  0  0  0  0  0  0  0  0  0  0
  127.5120  126.5478   70.8243 H   0  0  0  0  0  0  0  0  0  0  0  0
  126.8178  127.7754   69.7691 H   0  0  0  0  0  0  0  0  0  0  0  0
  128.3440  125.3760   69.0250 H   0  0  0  0  0  0  0  0  0  0  0  0
  127.3250  126.2400   68.0940 H   0  0  0  0  0  0  0  0  0  0  0  0
  127.8084  128.7162   66.6797 H   0  0  0  0  0  0  0  0  0  0  0  0
  126.3270  128.9450   64.4430 H   0  0  0  0  0  0  0  0  0  0  0  0
  131.2639  124.9625   63.7372 H   0  0  0  0  0  0  0  0  0  0  0  0
  129.6682  124.4801   63.0405 H   0  0  0  0  0  0  0  0  0  0  0  0
  131.3155  126.9160   62.2182 H   0  0  0  0  0  0  0  0  0  0  0  0
  132.2962  125.9374   60.5335 H   0  0  0  0  0  0  0  0  0  0  0  0
  132.0288  124.4452   61.5772 H   0  0  0  0  0  0  0  0  0  0  0  0
  131.5345  124.1166   59.1219 H   0  0  0  0  0  0  0  0  0  0  0  0
  129.6159  123.5844   61.3051 H   0  0  0  0  0  0  0  0  0  0  0  0
  130.3900  121.2873   62.4320 H   0  0  0  0  0  0  0  0  0  0  0  0
  129.1820  120.9937   61.1353 H   0  0  0  0  0  0  0  0  0  0  0  0
  130.7365  120.0935   61.1353 H   0  0  0  0  0  0  0  0  0  0  0  0
  132.2388  122.4182   62.1198 H   0  0  0  0  0  0  0  0  0  0  0  0
  132.9159  121.6495   60.6443 H   0  0  0  0  0  0  0  0  0  0  0  0
  132.5234  123.4023   60.6443 H   0  0  0  0  0  0  0  0  0  0  0  0
  126.5370  125.4430   58.0700 H   0  0  0  0  0  0  0  0  0  0  0  0
  125.3860  124.4930   57.1390 H   0  0  0  0  0  0  0  0  0  0  0  0
  130.6580  126.5620   57.4830 H   0  0  0  0  0  0  0  0  0  0  0  0
  127.2810  127.0430   60.0090 H   0  0  0  0  0  0  0  0  0  0  0  0
  1  2  1  0
  2  3  1  0
  2  4  1  0
  4  5  2  0
  5  6  1  0
  6  7  1  0
  7  8  1  0
  8  9  1  0
  9 10  1  0
  5 11  1  0
 11 12  2  0
 12 13  1  0
 12 14  1  0
 14 15  2  0
 15 16  1  0
 16 17  1  0
 17 18  1  0
 18 19  1  0
 19 20  1  0
 20 21  1  0
 21 22  1  0
 21 23  1  0
 20 24  1  0
 24 25  1  0
 24 26  2  0
 26 27  1  0
 27 28  1  0
 27 29  2  0
 26 30  1  0
 30 31  2  0
 30 32  1  0
 32 33  1  6
 32 34  1  0
 34 35  1  0
 34 36  2  0
 36 37  1  0
 37 38  2  0
 15  4  1  0
 36 17  1  0
 10  6  1  0
 37 14  1  0
 32 19  1  0
  1 39  1  0
  1 40  1  0
  1 41  1  0
  3 42  1  0
  3 43  1  0
  3 44  1  0
  6 45  1  6
  7 46  1  0
  7 47  1  0
  8 48  1  0
  8 49  1  0
  9 50  1  0
  9 51  1  0
 10 52  1  0
 10 53  1  0
 11 54  1  0
 13 55  1  0
 16 56  1  0
 16 57  1  0
 17 58  1  1
 18 59  1  0
 18 60  1  0
 19 61  1  6
 20 62  1  1
 22 63  1  0
 22 64  1  0
 22 65  1  0
 23 66  1  0
 23 67  1  0
 23 68  1  0
 28 69  1  0
 28 70  1  0
 33 71  1  0
 35 72  1  0
M  CHG  2  10   1  25  -1
M  END
>  <Binding energies>  (1) 
[-5.8]

>  <Ligand effiencies>  (1) 
[-0.1288888888888889]

>  <Interactions>  (1) 
["H-B:MET:535:SD:9806, V-B:PRO:540:CA:9855, V-A:GLU:543:CA:4904, V-B:GLU:543:C:9874, V-B:HIS:456:CD2:9039, H-B:GLU:543:O:9875, V-A:GLU:543:C:4902, V-B:GLU:543:CB:9878, H-A:TYR:531:OH:4795, V-B:TYR:539:CE2:9848, V-A:TYR:484:CE2:4346, H-B:TYR:539:N:9842, V-B:GLU:543:CG:9879, V-B:TYR:539:CZ:9849, H-B:GLU:543:OE1:9881, H-B:TYR:539:OH:9850, H-B:ALA:541:N:9863, V-A:GLU:543:CD:4908, V-A:TYR:484:CZ:4347, H-B:TYR:484:OH:9319, H-B:ASP:366:OD1:8185, V-B:GLU:543:CA:9876, V-B:HIS:456:CE1:9041, V-A:TYR:484:CD2:4344, V-A:HIS:456:CE1:4070, V-B:TYR:539:CD2:9846, V-A:GLU:543:CG:4907, V-B:GLU:543:CD:9880, H-B:TYR:531:OH:9767, V-A:LEU:475:CD2:4259, V-A:GLU:543:CB:4906, H-B:GLU:543:OE2:9882, H-A:HIS:456:NE2:4071"]

$$$$
ZINC167901069-again2
     RDKit          3D

 71 75  0  0  0  0  0  0  0  0999 V2000
  129.5930  122.9890   64.2460 C   0  0  0  0  0  0  0  0  0  0  0  0
  130.3160  123.6320   63.1550 N   0  0  0  0  0  0  0  0  0  0  0  0
  131.7720  123.5590   63.1440 C   0  0  0  0  0  0  0  0  0  0  0  0
  129.6940  123.7240   61.8880 C   0  0  0  0  0  0  0  0  0  0  0  0
  129.5880  122.5450   61.1300 C   0  0  0  0  0  0  0  0  0  0  0  0
  130.1160  121.1840   61.6230 C   0  0  1  0  0  0  0  0  0  0  0  0
  129.1200  120.0180   61.6650 C   0  0  0  0  0  0  0  0  0  0  0  0
  129.9530  118.7430   61.4860 C   0  0  0  0  0  0  0  0  0  0  0  0
  131.3740  119.1790   61.1050 C   0  0  0  0  0  0  0  0  0  0  0  0
  131.2340  120.6550   60.7150 N   0  0  0  0  0  0  0  0  0  0  0  0
  128.9980  122.6020   59.8730 C   0  0  0  0  0  0  0  0  0  0  0  0
  128.5000  123.7920   59.3460 C   0  0  0  0  0  0  0  0  0  0  0  0
  128.0460  123.6880   58.1550 O   0  0  0  0  0  0  0  0  0  0  0  0
  128.5530  125.0020   60.1050 C   0  0  0  0  0  0  0  0  0  0  0  0
  129.1940  124.9520   61.3820 C   0  0  0  0  0  0  0  0  0  0  0  0
  129.3770  126.2540   62.1900 C   0  0  0  0  0  0  0  0  0  0  0  0
  128.3980  127.3780   61.8200 C   0  0  1  0  0  0  0  0  0  0  0  0
  128.7750  128.7020   62.5220 C   0  0  0  0  0  0  0  0  0  0  0  0
  128.2790  129.9560   61.7720 C   0  0  1  0  0  0  0  0  0  0  0  0
  128.5120  131.2380   62.6190 C   0  0  2  0  0  0  0  0  0  0  0  0
  127.5130  132.3390   62.1210 N   0  0  0  0  0  0  0  0  0  0  0  0
  127.9690  133.8150   62.0670 C   0  0  0  0  0  0  0  0  0  0  0  0
  126.1590  132.2420   62.8570 C   0  0  0  0  0  0  0  0  0  0  0  0
  129.9710  131.7600   62.5220 C   0  0  0  0  0  0  0  0  0  0  0  0
  130.3730  132.5290   63.4620 O   0  0  0  0  0  0  0  0  0  0  0  0
  130.8990  131.2640   61.5390 C   0  0  0  0  0  0  0  0  0  0  0  0
  132.2260  131.7910   61.4930 C   0  0  0  0  0  0  0  0  0  0  0  0
  132.7000  132.2350   62.7120 N   0  0  0  0  0  0  0  0  0  0  0  0
  132.9280  131.8530   60.4360 O   0  0  0  0  0  0  0  0  0  0  0  0
  130.5220  130.2500   60.5880 C   0  0  0  0  0  0  0  0  0  0  0  0
  131.4120  129.5600   59.9790 O   0  0  0  0  0  0  0  0  0  0  0  0
  128.9900  130.0180   60.3850 C   0  0  2  0  0  0  0  0  0  0  0  0
  128.5110  131.1250   59.6210 O   0  0  0  0  0  0  0  0  0  0  0  0
  128.6840  128.6890   59.6050 C   0  0  0  0  0  0  0  0  0  0  0  0
  128.7080  128.7080   58.3250 O   0  0  0  0  0  0  0  0  0  0  0  0
  128.3750  127.4630   60.2960 C   0  0  0  0  0  0  0  0  0  0  0  0
  127.9360  126.2500   59.6810 C   0  0  0  0  0  0  0  0  0  0  0  0
  126.9730  126.3200   58.8410 O   0  0  0  0  0  0  0  0  0  0  0  0
  129.9910  123.3430   65.2084 H   0  0  0  0  0  0  0  0  0  0  0  0
  128.5244  123.2406   64.1763 H   0  0  0  0  0  0  0  0  0  0  0  0
  129.7182  121.8984   64.1763 H   0  0  0  0  0  0  0  0  0  0  0  0
  132.1460  123.5402   64.1783 H   0  0  0  0  0  0  0  0  0  0  0  0
  132.0893  122.6438   62.6227 H   0  0  0  0  0  0  0  0  0  0  0  0
  132.1793  124.4379   62.6227 H   0  0  0  0  0  0  0  0  0  0  0  0
  130.4212  121.4408   62.6481 H   0  0  0  0  0  0  0  0  0  0  0  0
  128.5948  119.9987   62.6313 H   0  0  0  0  0  0  0  0  0  0  0  0
  128.3555  120.1130   60.8798 H   0  0  0  0  0  0  0  0  0  0  0  0
  129.9734  118.1712   62.4255 H   0  0  0  0  0  0  0  0  0  0  0  0
  129.5196  118.0998   60.7060 H   0  0  0  0  0  0  0  0  0  0  0  0
  132.0571  119.0663   61.9598 H   0  0  0  0  0  0  0  0  0  0  0  0
  131.7929  118.5701   60.2903 H   0  0  0  0  0  0  0  0  0  0  0  0
  132.0960  121.1680   60.8300 H   0  0  0  0  0  0  0  0  0  0  0  0
  130.9480  120.7330   59.7500 H   0  0  0  0  0  0  0  0  0  0  0  0
  128.9219  121.6808   59.2766 H   0  0  0  0  0  0  0  0  0  0  0  0
  129.2420  126.0183   63.2559 H   0  0  0  0  0  0  0  0  0  0  0  0
  130.3846  126.6279   61.9555 H   0  0  0  0  0  0  0  0  0  0  0  0
  127.3793  127.1656   62.1765 H   0  0  0  0  0  0  0  0  0  0  0  0
  128.3332  128.7007   63.5294 H   0  0  0  0  0  0  0  0  0  0  0  0
  129.8734  128.7535   62.5499 H   0  0  0  0  0  0  0  0  0  0  0  0
  127.1933  129.8951   61.6059 H   0  0  0  0  0  0  0  0  0  0  0  0
  128.3374  130.9938   63.6772 H   0  0  0  0  0  0  0  0  0  0  0  0
  127.3330  132.0930   61.1560 H   0  0  0  0  0  0  0  0  0  0  0  0
  128.0879  134.1997   63.0906 H   0  0  0  0  0  0  0  0  0  0  0  0
  128.9299  133.8827   61.5360 H   0  0  0  0  0  0  0  0  0  0  0  0
  127.2137  134.4129   61.5360 H   0  0  0  0  0  0  0  0  0  0  0  0
  126.3305  132.2543   63.9435 H   0  0  0  0  0  0  0  0  0  0  0  0
  125.5268  133.0972   62.5759 H   0  0  0  0  0  0  0  0  0  0  0  0
  125.6551  131.3055   62.5759 H   0  0  0  0  0  0  0  0  0  0  0  0
  132.1090  132.1660   63.5270 H   0  0  0  0  0  0  0  0  0  0  0  0
  133.6290  132.6220   62.7690 H   0  0  0  0  0  0  0  0  0  0  0  0
  128.3620  130.8190   58.7220 H   0  0  0  0  0  0  0  0  0  0  0  0
  1  2  1  0
  2  3  1  0
  2  4  1  0
  4  5  2  0
  5  6  1  0
  6  7  1  0
  7  8  1  0
  8  9  1  0
  9 10  1  0
  5 11  1  0
 11 12  2  0
 12 13  1  0
 12 14  1  0
 14 15  2  0
 15 16  1  0
 16 17  1  0
 17 18  1  0
 18 19  1  0
 19 20  1  0
 20 21  1  0
 21 22  1  0
 21 23  1  0
 20 24  1  0
 24 25  1  0
 24 26  2  0
 26 27  1  0
 27 28  1  0
 27 29  2  0
 26 30  1  0
 30 31  2  0
 30 32  1  0
 32 33  1  6
 32 34  1  0
 34 35  1  0
 34 36  2  0
 36 37  1  0
 37 38  2  0
 15  4  1  0
 36 17  1  0
 10  6  1  0
 37 14  1  0
 32 19  1  0
  1 39  1  0
  1 40  1  0
  1 41  1  0
  3 42  1  0
  3 43  1  0
  3 44  1  0
  6 45  1  1
  7 46  1  0
  7 47  1  0
  8 48  1  0
  8 49  1  0
  9 50  1  0
  9 51  1  0
 10 52  1  0
 10 53  1  0
 11 54  1  0
 16 55  1  0
 16 56  1  0
 17 57  1  1
 18 58  1  0
 18 59  1  0
 19 60  1  6
 20 61  1  1
 21 62  1  0
 22 63  1  0
 22 64  1  0
 22 65  1  0
 23 66  1  0
 23 67  1  0
 23 68  1  0
 28 69  1  0
 28 70  1  0
 33 71  1  0
M  CHG  5  10   1  13  -1  21   1  25  -1  35  -1
M  END
>  <Binding energies>  (1) 
[-3.46]

>  <Ligand effiencies>  (1) 
[-0.07863636363636363]

>  <Interactions>  (1) 
["V-B:PRO:540:CA:9855, V-A:ALA:541:C:4888, H-A:ALA:541:N:4891, V-A:PRO:540:C:4881, H-A:ALA:541:O:4889, V-B:ALA:541:CB:9864, V-B:TYR:539:CE2:9848, V-A:LEU:475:CG:4257, V-B:LEU:475:CD2:9230, V-B:GLU:543:CG:9879, V-B:TYR:539:C:9839, V-A:ASN:362:CB:3176, V-A:ALA:541:CB:4892, V-A:GLU:543:CD:4908, V-A:ALA:541:CA:4890, V-B:TYR:539:CD2:9846, V-A:GLU:543:CG:4907, V-A:SER:385:CB:3409, V-A:LEU:475:CD2:4259, H-A:GLU:543:OE1:4909, V-A:PRO:540:CB:4885, V-A:PRO:540:CA:4883, H-B:TYR:539:O:9840, V-B:PRO:540:C:9853, V-B:ALA:541:CA:9862"]

$$$$
ZINC168765736
     RDKit          3D

 50 53  0  0  0  0  0  0  0  0999 V2000
  130.0570  129.1720   59.4190 O   0  0  0  0  0  0  0  0  0  0  0  0
  129.9870  129.9130   60.4060 C   0  0  0  0  0  0  0  0  0  0  0  0
  130.3530  131.2440   60.4030 O   0  0  0  0  0  0  0  0  0  0  0  0
  131.6950  131.4600   60.7860 N   0  0  0  0  0  0  0  0  0  0  0  0
  132.6930  131.4480   59.8700 C   0  0  0  0  0  0  0  0  0  0  0  0
  132.6110  131.2200   58.6630 O   0  0  0  0  0  0  0  0  0  0  0  0
  133.9720  131.7750   60.6180 C   0  0  0  0  0  0  0  0  0  0  0  0
  133.5390  132.0430   62.0410 C   0  0  0  0  0  0  0  0  0  0  0  0
  132.0330  131.8510   62.0380 C   0  0  0  0  0  0  0  0  0  0  0  0
  131.2960  132.0160   63.0090 O   0  0  0  0  0  0  0  0  0  0  0  0
  129.2840  129.5060   61.6740 C   0  0  0  0  0  0  0  0  0  0  0  0
  128.7110  130.5410   62.4350 C   0  0  0  0  0  0  0  0  0  0  0  0
  128.0490  130.2810   63.6330 C   0  0  0  0  0  0  0  0  0  0  0  0
  127.9390  128.9750   64.0960 C   0  0  0  0  0  0  0  0  0  0  0  0
  128.4790  127.9310   63.3520 C   0  0  0  0  0  0  0  0  0  0  0  0
  129.1330  128.1760   62.1410 C   0  0  0  0  0  0  0  0  0  0  0  0
  129.7370  126.7530   61.2720 S   0  0  0  0  0  0  0  0  0  0  0  0
  131.6320  126.6060   62.0140 S   0  0  0  0  0  0  0  0  0  0  0  0
  132.4440  125.6480   60.7580 C   0  0  0  0  0  0  0  0  0  0  0  0
  132.0280  125.8690   59.4420 C   0  0  0  0  0  0  0  0  0  0  0  0
  132.6400  125.2080   58.3810 C   0  0  0  0  0  0  0  0  0  0  0  0
  133.6740  124.3130   58.6280 C   0  0  0  0  0  0  0  0  0  0  0  0
  134.0880  124.0700   59.9360 C   0  0  0  0  0  0  0  0  0  0  0  0
  133.4780  124.7140   61.0260 C   0  0  0  0  0  0  0  0  0  0  0  0
  134.0110  124.3950   62.3920 C   0  0  0  0  0  0  0  0  0  0  0  0
  135.1500  124.7100   62.7570 O   0  0  0  0  0  0  0  0  0  0  0  0
  133.1660  123.5540   63.0940 O   0  0  0  0  0  0  0  0  0  0  0  0
  132.3300  124.2210   64.0150 N   0  0  0  0  0  0  0  0  0  0  0  0
  130.9890  124.0430   63.9980 C   0  0  0  0  0  0  0  0  0  0  0  0
  130.3230  123.3600   63.2200 O   0  0  0  0  0  0  0  0  0  0  0  0
  130.4320  124.8640   65.1470 C   0  0  0  0  0  0  0  0  0  0  0  0
  131.6440  125.4340   65.8470 C   0  0  0  0  0  0  0  0  0  0  0  0
  132.8350  124.9090   65.0650 C   0  0  0  0  0  0  0  0  0  0  0  0
  134.0170  125.0930   65.3560 O   0  0  0  0  0  0  0  0  0  0  0  0
  134.6694  130.9252   60.5802 H   0  0  0  0  0  0  0  0  0  0  0  0
  134.4978  132.6354   60.1784 H   0  0  0  0  0  0  0  0  0  0  0  0
  134.0177  131.3324   62.7308 H   0  0  0  0  0  0  0  0  0  0  0  0
  133.8257  133.0505   62.3766 H   0  0  0  0  0  0  0  0  0  0  0  0
  128.7872  131.5781   62.0765 H   0  0  0  0  0  0  0  0  0  0  0  0
  127.6137  131.1087   64.2121 H   0  0  0  0  0  0  0  0  0  0  0  0
  127.4268  128.7678   65.0472 H   0  0  0  0  0  0  0  0  0  0  0  0
  128.3902  126.8987   63.7216 H   0  0  0  0  0  0  0  0  0  0  0  0
  131.2072  126.5737   59.2425 H   0  0  0  0  0  0  0  0  0  0  0  0
  132.3060  125.3936   57.3495 H   0  0  0  0  0  0  0  0  0  0  0  0
  134.1657  123.7963   57.7906 H   0  0  0  0  0  0  0  0  0  0  0  0
  134.9082  123.3603   60.1190 H   0  0  0  0  0  0  0  0  0  0  0  0
  129.7891  125.6722   64.7682 H   0  0  0  0  0  0  0  0  0  0  0  0
  129.8119  124.2581   65.8240 H   0  0  0  0  0  0  0  0  0  0  0  0
  131.6215  126.5335   65.8246 H   0  0  0  0  0  0  0  0  0  0  0  0
  131.6844  125.1405   66.9064 H   0  0  0  0  0  0  0  0  0  0  0  0
  1  2  2  0
  2  3  1  0
  3  4  1  0
  4  5  1  0
  5  6  2  0
  5  7  1  0
  7  8  1  0
  8  9  1  0
  9 10  2  0
  2 11  1  0
 11 12  2  0
 12 13  1  0
 13 14  2  0
 14 15  1  0
 15 16  2  0
 16 17  1  0
 17 18  1  0
 18 19  1  0
 19 20  2  0
 20 21  1  0
 21 22  2  0
 22 23  1  0
 23 24  2  0
 24 25  1  0
 25 26  2  0
 25 27  1  0
 27 28  1  0
 28 29  1  0
 29 30  2  0
 29 31  1  0
 31 32  1  0
 32 33  1  0
 33 34  2  0
  9  4  1  0
 16 11  1  0
 24 19  1  0
 33 28  1  0
  7 35  1  0
  7 36  1  0
  8 37  1  0
  8 38  1  0
 12 39  1  0
 13 40  1  0
 14 41  1  0
 15 42  1  0
 20 43  1  0
 21 44  1  0
 22 45  1  0
 23 46  1  0
 31 47  1  0
 31 48  1  0
 32 49  1  0
 32 50  1  0
M  END
>  <Binding energies>  (1) 
[-8.18]

>  <Ligand effiencies>  (1) 
[-0.24058823529411763]

>  <Interactions>  (1) 
["V-A:ILE:369:CG2:3237, V-A:ASP:366:CA:3210, V-A:ILE:369:CB:3236, H-A:ALA:541:N:4891, V-A:PRO:540:C:4881, H-A:ARG:545:NH1:4927, V-B:TYR:539:CE2:9848, V-B:GLU:543:CG:9879, V-A:ASP:366:CG:3213, V-A:ASN:362:CB:3176, V-A:LEU:363:CB:3187, V-B:TYR:539:CZ:9849, V-A:GLU:543:CD:4908, H-A:GLY:454:N:4050, V-A:ILE:369:CD1:3239, V-A:ASP:366:C:3208, V-B:GLU:543:CD:9880, V-A:ASP:366:CB:3212, H-A:ARG:545:NH2:4928, V-A:ASN:362:C:3172, V-A:ARG:545:CZ:4926, V-A:PRO:540:CB:4885, V-A:PRO:540:CA:4883, V-A:LEU:363:CA:3185, H-A:ARG:545:NE:4924, H-A:TYR:484:OH:4348"]

$$$$
ZINC16887370
     RDKit          3D

 81 84  0  0  0  0  0  0  0  0999 V2000
  131.1280  121.1600   60.9460 C   0  0  0  0  0  0  0  0  0  0  0  0
  131.8920  122.3200   61.4050 N   0  0  0  0  0  0  0  0  0  0  0  0
  133.2950  122.0840   61.7500 C   0  0  0  0  0  0  0  0  0  0  0  0
  131.2120  123.4640   61.9140 C   0  0  0  0  0  0  0  0  0  0  0  0
  131.7150  124.7600   61.7090 C   0  0  0  0  0  0  0  0  0  0  0  0
  131.0500  125.8780   62.2030 C   0  0  0  0  0  0  0  0  0  0  0  0
  129.8620  125.7280   62.9170 C   0  0  0  0  0  0  0  0  0  0  0  0
  129.1190  126.9610   63.4360 C   0  0  0  0  0  0  0  0  0  0  0  0
  127.7760  127.0090   62.9360 O   0  0  0  0  0  0  0  0  0  0  0  0
  127.5560  127.5970   61.6490 C   0  0  0  0  0  0  0  0  0  0  0  0
  128.7360  128.5290   61.3590 C   0  0  0  0  0  0  0  0  0  0  0  0
  128.8840  129.7660   61.9920 C   0  0  0  0  0  0  0  0  0  0  0  0
  129.9720  130.5820   61.6920 C   0  0  0  0  0  0  0  0  0  0  0  0
  130.9420  130.1890   60.7550 C   0  0  0  0  0  0  0  0  0  0  0  0
  132.0460  131.0310   60.4400 N   0  0  0  0  0  0  0  0  0  0  0  0
  132.5430  131.1090   59.0660 C   0  0  0  0  0  0  0  0  0  0  0  0
  132.9670  131.4570   61.4950 C   0  0  0  0  0  0  0  0  0  0  0  0
  130.7800  128.9400   60.1300 C   0  0  0  0  0  0  0  0  0  0  0  0
  129.6950  128.1220   60.4300 C   0  0  0  0  0  0  0  0  0  0  0  0
  127.2700  126.5300   60.5830 C   0  0  0  0  0  0  0  0  0  0  0  0
  127.5830  125.1950   60.8380 C   0  0  0  0  0  0  0  0  0  0  0  0
  127.3530  124.2240   59.8680 C   0  0  0  0  0  0  0  0  0  0  0  0
  126.8100  124.5600   58.6150 C   0  0  0  0  0  0  0  0  0  0  0  0
  126.5810  123.5660   57.6210 N   0  0  0  0  0  0  0  0  0  0  0  0
  127.7050  122.8100   57.0680 C   0  0  0  0  0  0  0  0  0  0  0  0
  125.3610  123.6060   56.8130 C   0  0  0  0  0  0  0  0  0  0  0  0
  126.5130  125.9130   58.3720 C   0  0  0  0  0  0  0  0  0  0  0  0
  126.7420  126.8850   59.3400 C   0  0  0  0  0  0  0  0  0  0  0  0
  129.0920  127.0230   64.9620 C   0  0  0  0  0  0  0  0  0  0  0  0
  128.3870  128.0430   65.6030 C   0  0  0  0  0  0  0  0  0  0  0  0
  128.3490  128.1030   66.9930 C   0  0  0  0  0  0  0  0  0  0  0  0
  129.0050  127.1410   67.7820 C   0  0  0  0  0  0  0  0  0  0  0  0
  128.9740  127.2100   69.2040 N   0  0  0  0  0  0  0  0  0  0  0  0
  127.7220  126.9720   69.9230 C   0  0  0  0  0  0  0  0  0  0  0  0
  130.0130  127.9430   69.9260 C   0  0  0  0  0  0  0  0  0  0  0  0
  129.7000  126.1140   67.1190 C   0  0  0  0  0  0  0  0  0  0  0  0
  129.7400  126.0530   65.7290 C   0  0  0  0  0  0  0  0  0  0  0  0
  129.3390  124.4490   63.1190 C   0  0  0  0  0  0  0  0  0  0  0  0
  130.0070  123.3330   62.6260 C   0  0  0  0  0  0  0  0  0  0  0  0
  130.7575  120.5975   61.8157 H   0  0  0  0  0  0  0  0  0  0  0  0
  130.2759  121.4991   60.3386 H   0  0  0  0  0  0  0  0  0  0  0  0
  131.7761  120.5111   60.3386 H   0  0  0  0  0  0  0  0  0  0  0  0
  133.4054  122.0654   62.8443 H   0  0  0  0  0  0  0  0  0  0  0  0
  133.6179  121.1189   61.3325 H   0  0  0  0  0  0  0  0  0  0  0  0
  133.9159  122.8903   61.3325 H   0  0  0  0  0  0  0  0  0  0  0  0
  132.6516  124.8931   61.1477 H   0  0  0  0  0  0  0  0  0  0  0  0
  131.4627  126.8828   62.0297 H   0  0  0  0  0  0  0  0  0  0  0  0
  129.6777  127.8330   63.0652 H   0  0  0  0  0  0  0  0  0  0  0  0
  126.6438  128.2115   61.6305 H   0  0  0  0  0  0  0  0  0  0  0  0
  128.1383  130.0965   62.7301 H   0  0  0  0  0  0  0  0  0  0  0  0
  130.0737  131.5531   62.1986 H   0  0  0  0  0  0  0  0  0  0  0  0
  133.6296  131.2795   59.0783 H   0  0  0  0  0  0  0  0  0  0  0  0
  132.3258  130.1658   58.5434 H   0  0  0  0  0  0  0  0  0  0  0  0
  132.0472  131.9403   58.5434 H   0  0  0  0  0  0  0  0  0  0  0  0
  132.5193  131.2499   62.4782 H   0  0  0  0  0  0  0  0  0  0  0  0
  133.9139  130.9054   61.3998 H   0  0  0  0  0  0  0  0  0  0  0  0
  133.1599  132.5358   61.3998 H   0  0  0  0  0  0  0  0  0  0  0  0
  131.5231  128.6040   59.3918 H   0  0  0  0  0  0  0  0  0  0  0  0
  129.5923  127.1470   59.9311 H   0  0  0  0  0  0  0  0  0  0  0  0
  128.0131  124.9087   61.8091 H   0  0  0  0  0  0  0  0  0  0  0  0
  127.6005  123.1745   60.0853 H   0  0  0  0  0  0  0  0  0  0  0  0
  128.3119  122.4018   57.8896 H   0  0  0  0  0  0  0  0  0  0  0  0
  127.3228  121.9847   56.4493 H   0  0  0  0  0  0  0  0  0  0  0  0
  128.3253  123.4752   56.4493 H   0  0  0  0  0  0  0  0  0  0  0  0
  124.4833  123.6348   57.4754 H   0  0  0  0  0  0  0  0  0  0  0  0
  125.3709  124.5043   56.1782 H   0  0  0  0  0  0  0  0  0  0  0  0
  125.3120  122.7090   56.1782 H   0  0  0  0  0  0  0  0  0  0  0  0
  126.0922  126.2076   57.3993 H   0  0  0  0  0  0  0  0  0  0  0  0
  126.5062  127.9378   59.1255 H   0  0  0  0  0  0  0  0  0  0  0  0
  127.8594  128.8024   65.0072 H   0  0  0  0  0  0  0  0  0  0  0  0
  127.7959  128.9176   67.4834 H   0  0  0  0  0  0  0  0  0  0  0  0
  127.9089  127.0075   71.0064 H   0  0  0  0  0  0  0  0  0  0  0  0
  126.9902  127.7471   69.6515 H   0  0  0  0  0  0  0  0  0  0  0  0
  127.3257  125.9824   69.6515 H   0  0  0  0  0  0  0  0  0  0  0  0
  129.8551  127.8316   71.0089 H   0  0  0  0  0  0  0  0  0  0  0  0
  131.0005  127.5405   69.6561 H   0  0  0  0  0  0  0  0  0  0  0  0
  129.9650  129.0083   69.6561 H   0  0  0  0  0  0  0  0  0  0  0  0
  130.2210  125.3456   67.7090 H   0  0  0  0  0  0  0  0  0  0  0  0
  130.2848  125.2366   65.2324 H   0  0  0  0  0  0  0  0  0  0  0  0
  128.3953  124.3236   63.6700 H   0  0  0  0  0  0  0  0  0  0  0  0
  129.5854  122.3313   62.7961 H   0  0  0  0  0  0  0  0  0  0  0  0
  1  2  1  0
  2  3  1  0
  2  4  1  0
  4  5  2  0
  5  6  1  0
  6  7  2  0
  7  8  1  0
  8  9  1  0
  9 10  1  0
 10 11  1  0
 11 12  2  0
 12 13  1  0
 13 14  2  0
 14 15  1  0
 15 16  1  0
 15 17  1  0
 14 18  1  0
 18 19  2  0
 10 20  1  0
 20 21  2  0
 21 22  1  0
 22 23  2  0
 23 24  1  0
 24 25  1  0
 24 26  1  0
 23 27  1  0
 27 28  2  0
  8 29  1  0
 29 30  2  0
 30 31  1  0
 31 32  2  0
 32 33  1  0
 33 34  1  0
 33 35  1  0
 32 36  1  0
 36 37  2  0
  7 38  1  0
 38 39  2  0
 39  4  1  0
 19 11  1  0
 28 20  1  0
 37 29  1  0
  1 40  1  0
  1 41  1  0
  1 42  1  0
  3 43  1  0
  3 44  1  0
  3 45  1  0
  5 46  1  0
  6 47  1  0
  8 48  1  0
 10 49  1  0
 12 50  1  0
 13 51  1  0
 16 52  1  0
 16 53  1  0
 16 54  1  0
 17 55  1  0
 17 56  1  0
 17 57  1  0
 18 58  1  0
 19 59  1  0
 21 60  1  0
 22 61  1  0
 25 62  1  0
 25 63  1  0
 25 64  1  0
 26 65  1  0
 26 66  1  0
 26 67  1  0
 27 68  1  0
 28 69  1  0
 30 70  1  0
 31 71  1  0
 34 72  1  0
 34 73  1  0
 34 74  1  0
 35 75  1  0
 35 76  1  0
 35 77  1  0
 36 78  1  0
 37 79  1  0
 38 80  1  0
 39 81  1  0
M  END
>  <Binding energies>  (1) 
[-6.24]

>  <Ligand effiencies>  (1) 
[-0.16]

>  <Interactions>  (1) 
["V-B:GLU:543:C:9874, V-A:GLU:543:C:4902, V-B:GLU:543:CB:9878, V-B:TYR:539:CE2:9848, V-B:GLU:543:CG:9879, V-B:TYR:539:C:9839, V-A:ASN:362:CB:3176, V-A:LEU:363:CD1:3189, V-B:TYR:539:CZ:9849, V-A:GLU:543:CD:4908, V-B:HIS:456:CE1:9041, V-B:PRO:540:N:9856, V-A:HIS:456:CE1:4070, V-B:TYR:539:CD2:9846, V-A:GLU:543:CG:4907, V-B:GLU:543:CD:9880, V-A:LEU:475:CD2:4259, V-B:TYR:539:CG:9844, V-A:GLU:543:CB:4906, V-B:TYR:539:CD1:9845, V-B:LEU:363:CD1:8160, V-A:PRO:540:CB:4885, V-B:MET:535:CE:9807, V-B:TYR:539:CE1:9847"]

$$$$
ZINC168957745
     RDKit          3D

 35 36  0  0  0  0  0  0  0  0999 V2000
  133.6120  124.4420   58.5100 C   0  0  0  0  0  0  0  0  0  0  0  0
  132.5940  125.0470   59.1430 C   0  0  0  0  0  0  0  0  0  0  0  0
  131.8190  126.2330   58.6000 C   0  0  0  0  0  0  0  0  0  0  0  0
  131.4950  127.2140   59.6320 N   0  0  0  0  0  0  0  0  0  0  0  0
  131.4070  126.9380   60.9810 C   0  0  0  0  0  0  0  0  0  0  0  0
  131.0920  128.1030   61.6340 N   0  0  0  0  0  0  0  0  0  0  0  0
  130.9740  129.1350   60.7170 C   0  0  0  0  0  0  0  0  0  0  0  0
  130.6520  130.4970   61.1170 C   0  0  0  0  0  0  0  0  0  0  0  0
  129.4350  131.1330   60.9270 C   0  0  0  0  0  0  0  0  0  0  0  0
  129.5850  132.3860   61.4500 N   0  0  0  0  0  0  0  0  0  0  0  0
  128.6060  133.4570   61.5090 C   0  0  0  0  0  0  0  0  0  0  0  0
  130.8040  132.5830   61.9570 N   0  0  0  0  0  0  0  0  0  0  0  0
  131.4630  131.4540   61.7700 C   0  0  0  0  0  0  0  0  0  0  0  0
  132.9080  131.2980   62.2360 C   0  0  0  0  0  0  0  0  0  0  0  0
  133.9770  131.8400   61.2680 C   0  0  0  0  0  0  0  0  0  0  0  0
  131.2330  128.5770   59.4590 C   0  0  0  0  0  0  0  0  0  0  0  0
  131.2510  129.1570   58.2200 N   0  0  0  0  0  0  0  0  0  0  0  0
  134.1196  123.5857   58.9780 H   0  0  0  0  0  0  0  0  0  0  0  0
  133.9384  124.8027   57.5234 H   0  0  0  0  0  0  0  0  0  0  0  0
  132.3004  124.6539   60.1275 H   0  0  0  0  0  0  0  0  0  0  0  0
  132.4252  126.7246   57.8249 H   0  0  0  0  0  0  0  0  0  0  0  0
  130.8704  125.8524   58.1935 H   0  0  0  0  0  0  0  0  0  0  0  0
  131.5622  125.9556   61.4509 H   0  0  0  0  0  0  0  0  0  0  0  0
  130.9670  128.1970   62.6320 H   0  0  0  0  0  0  0  0  0  0  0  0
  128.5346  130.7151   60.4530 H   0  0  0  0  0  0  0  0  0  0  0  0
  128.3872  133.6963   62.5601 H   0  0  0  0  0  0  0  0  0  0  0  0
  129.0075  134.3489   61.0058 H   0  0  0  0  0  0  0  0  0  0  0  0
  127.6817  133.1370   61.0058 H   0  0  0  0  0  0  0  0  0  0  0  0
  133.0154  131.8303   63.1926 H   0  0  0  0  0  0  0  0  0  0  0  0
  133.0873  130.2152   62.3099 H   0  0  0  0  0  0  0  0  0  0  0  0
  134.8126  132.2637   61.8444 H   0  0  0  0  0  0  0  0  0  0  0  0
  134.3470  131.0206   60.6342 H   0  0  0  0  0  0  0  0  0  0  0  0
  133.5347  132.6227   60.6342 H   0  0  0  0  0  0  0  0  0  0  0  0
  131.8870  128.8460   57.5000 H   0  0  0  0  0  0  0  0  0  0  0  0
  130.6370  129.9230   57.9820 H   0  0  0  0  0  0  0  0  0  0  0  0
  1  2  2  0
  2  3  1  0
  3  4  1  0
  4  5  1  0
  5  6  2  0
  6  7  1  0
  7  8  1  0
  8  9  2  0
  9 10  1  0
 10 11  1  0
 10 12  1  0
 12 13  2  0
 13 14  1  0
 14 15  1  0
  7 16  2  0
 16 17  1  0
 16  4  1  0
 13  8  1  0
  1 18  1  0
  1 19  1  0
  2 20  1  0
  3 21  1  0
  3 22  1  0
  5 23  1  0
  6 24  1  0
  9 25  1  0
 11 26  1  0
 11 27  1  0
 11 28  1  0
 14 29  1  0
 14 30  1  0
 15 31  1  0
 15 32  1  0
 15 33  1  0
 17 34  1  0
 17 35  1  0
M  CHG  1   6   1
M  END
>  <Binding energies>  (1) 
[-5.74]

>  <Ligand effiencies>  (1) 
[-0.28700000000000003]

>  <Interactions>  (1) 
["V-A:ILE:369:CG2:3237, V-A:ASP:366:CA:3210, H-A:GLU:543:OE2:4910, V-A:ILE:369:CB:3236, H-A:ALA:541:N:4891, V-A:PRO:540:C:4881, H-A:TYR:531:OH:4795, V-B:TYR:539:CE2:9848, V-A:ASP:366:CG:3213, V-A:ASN:362:CB:3176, V-A:ALA:541:CB:4892, V-A:GLU:543:CD:4908, V-A:ASP:366:C:3208, V-A:ASP:366:CB:3212, V-A:ASN:362:C:3172, H-A:GLU:543:OE1:4909, V-A:PRO:540:CB:4885, V-A:PRO:540:CA:4883, V-A:ASN:362:CA:3174, V-A:LEU:363:CA:3185, H-A:ASP:366:OD2:3215"]

$$$$
ZINC169292456-again1
     RDKit          3D

109114  0  0  0  0  0  0  0  0999 V2000
  127.0930  130.8270   56.4790 C   0  0  0  0  0  0  0  0  0  0  0  0
  126.6810  129.5950   56.8210 C   0  0  0  0  0  0  0  0  0  0  0  0
  127.2270  128.7430   57.8700 C   0  0  0  0  0  0  0  0  0  0  0  0
  127.8090  127.4630   57.7040 C   0  0  0  0  0  0  0  0  0  0  0  0
  127.9640  126.7030   56.3960 C   0  0  0  0  0  0  0  0  0  0  0  0
  128.2110  127.0100   58.9420 C   0  0  0  0  0  0  0  0  0  0  0  0
  128.8660  125.7840   59.1890 C   0  0  0  0  0  0  0  0  0  0  0  0
  129.2540  125.2680   60.4250 C   0  0  0  0  0  0  0  0  0  0  0  0
  129.0730  125.8520   61.6360 N   0  0  0  0  0  0  0  0  0  0  0  0
  129.5990  125.0660   62.6110 C   0  0  0  0  0  0  0  0  0  0  0  0
  129.6080  125.4110   63.9650 C   0  0  0  0  0  0  0  0  0  0  0  0
  129.1500  126.6070   64.5560 C   0  0  0  0  0  0  0  0  0  0  0  0
  128.5800  127.7020   63.9490 N   0  0  0  0  0  0  0  0  0  0  0  0
  128.2540  128.6650   64.8830 C   0  0  0  0  0  0  0  0  0  0  0  0
  127.6510  129.9170   64.6460 C   0  0  0  0  0  0  0  0  0  0  0  0
  127.2370  130.4230   63.3990 C   0  0  0  0  0  0  0  0  0  0  0  0
  127.3380  129.7860   62.1860 N   0  0  0  0  0  0  0  0  0  0  0  0
  126.8380  130.5720   61.1750 C   0  0  0  0  0  0  0  0  0  0  0  0
  126.7860  130.2410   59.8070 C   0  0  0  0  0  0  0  0  0  0  0  0
  127.2570  129.0480   59.2130 C   0  0  0  0  0  0  0  0  0  0  0  0
  127.8500  127.9780   59.8490 N   0  0  0  0  0  0  0  0  0  0  0  0
  126.4090  131.7400   61.7620 C   0  0  0  0  0  0  0  0  0  0  0  0
  125.7940  132.9200   61.0300 C   0  0  0  0  0  0  0  0  0  0  0  0
  126.6510  131.6450   63.1530 C   0  0  0  0  0  0  0  0  0  0  0  0
  126.3340  132.6990   64.2010 C   0  0  0  0  0  0  0  0  0  0  0  0
  127.6080  133.4420   64.6530 C   0  0  0  0  0  0  0  0  0  0  0  0
  128.9080  132.6550   64.4460 C   0  0  0  0  0  0  0  0  0  0  0  0
  129.3540  131.8760   65.2910 O   0  0  0  0  0  0  0  0  0  0  0  0
  129.4630  132.9220   63.2420 O   0  0  0  0  0  0  0  0  0  0  0  0
  129.1670  132.1380   62.0900 C   0  0  0  0  0  0  0  0  0  0  0  0
  130.1870  132.3390   60.9530 C   0  0  0  0  0  0  0  0  0  0  0  0
  131.2300  131.2170   60.8560 C   0  0  0  0  0  0  0  0  0  0  0  0
  128.6330  128.1670   66.1100 C   0  0  0  0  0  0  0  0  0  0  0  0
  128.4730  128.8640   67.4540 C   0  0  0  0  0  0  0  0  0  0  0  0
  127.9780  127.8850   68.5390 C   0  0  0  0  0  0  0  0  0  0  0  0
  129.0830  127.3590   69.4640 C   0  0  0  0  0  0  0  0  0  0  0  0
  129.4320  126.1750   69.4710 O   0  0  0  0  0  0  0  0  0  0  0  0
  129.6090  128.3410   70.2230 O   0  0  0  0  0  0  0  0  0  0  0  0
  129.4860  128.3090   71.6400 C   0  0  0  0  0  0  0  0  0  0  0  0
  128.0240  128.0760   72.0480 C   0  0  0  0  0  0  0  0  0  0  0  0
  127.6700  126.7160   71.9070 O   0  0  0  0  0  0  0  0  0  0  0  0
  129.2010  126.8900   65.9030 C   0  0  0  0  0  0  0  0  0  0  0  0
  129.7770  125.9800   66.9750 C   0  0  0  0  0  0  0  0  0  0  0  0
  130.0500  123.7180   62.0640 C   0  0  1  0  0  0  0  0  0  0  0  0
  128.9640  122.6430   62.3670 C   0  0  0  0  0  0  0  0  0  0  0  0
  130.0100  124.0240   60.5840 C   0  0  0  0  0  0  0  0  0  0  0  0
  130.6190  123.2300   59.6800 C   0  0  0  0  0  0  0  0  0  0  0  0
  131.5250  122.1860   60.1080 C   0  0  0  0  0  0  0  0  0  0  0  0
  132.0180  122.1640   61.3680 C   0  0  0  0  0  0  0  0  0  0  0  0
  133.0410  121.1460   61.6860 C   0  0  0  0  0  0  0  0  0  0  0  0
  132.8950  119.9470   61.4330 O   0  0  0  0  0  0  0  0  0  0  0  0
  134.1510  121.6740   62.2540 O   0  0  0  0  0  0  0  0  0  0  0  0
  134.6250  122.9580   61.8740 C   0  0  0  0  0  0  0  0  0  0  0  0
  131.5320  123.2240   62.4180 C   0  0  2  0  0  0  0  0  0  0  0  0
  131.6630  122.7760   63.9000 C   0  0  0  0  0  0  0  0  0  0  0  0
  130.9680  121.8750   64.3770 O   0  0  0  0  0  0  0  0  0  0  0  0
  132.6110  123.4730   64.5630 O   0  0  0  0  0  0  0  0  0  0  0  0
  133.1020  124.6980   64.0400 C   0  0  0  0  0  0  0  0  0  0  0  0
  126.5921  131.3675   55.6624 H   0  0  0  0  0  0  0  0  0  0  0  0
  127.9313  131.2953   57.0156 H   0  0  0  0  0  0  0  0  0  0  0  0
  125.8384  129.1837   56.2458 H   0  0  0  0  0  0  0  0  0  0  0  0
  128.1796  125.6457   56.6096 H   0  0  0  0  0  0  0  0  0  0  0  0
  127.0322  126.7773   55.8161 H   0  0  0  0  0  0  0  0  0  0  0  0
  128.7923  127.1363   55.8161 H   0  0  0  0  0  0  0  0  0  0  0  0
  129.0960  125.1668   58.3080 H   0  0  0  0  0  0  0  0  0  0  0  0
  130.0222  124.6592   64.6530 H   0  0  0  0  0  0  0  0  0  0  0  0
  128.4210  127.7790   62.9570 H   0  0  0  0  0  0  0  0  0  0  0  0
  127.4878  130.5623   65.5217 H   0  0  0  0  0  0  0  0  0  0  0  0
  127.7280  128.8650   62.0550 H   0  0  0  0  0  0  0  0  0  0  0  0
  126.3340  130.9846   59.1341 H   0  0  0  0  0  0  0  0  0  0  0  0
  128.0190  127.9130   60.8410 H   0  0  0  0  0  0  0  0  0  0  0  0
  125.4145  133.6482   61.7619 H   0  0  0  0  0  0  0  0  0  0  0  0
  126.5575  133.3984   60.3989 H   0  0  0  0  0  0  0  0  0  0  0  0
  124.9646  132.5682   60.3989 H   0  0  0  0  0  0  0  0  0  0  0  0
  125.6272  133.4264   63.7751 H   0  0  0  0  0  0  0  0  0  0  0  0
  125.8962  132.1970   65.0764 H   0  0  0  0  0  0  0  0  0  0  0  0
  127.6795  134.3802   64.0832 H   0  0  0  0  0  0  0  0  0  0  0  0
  127.5087  133.6045   65.7364 H   0  0  0  0  0  0  0  0  0  0  0  0
  129.1664  131.0764   62.3780 H   0  0  0  0  0  0  0  0  0  0  0  0
  128.1844  132.4594   61.7142 H   0  0  0  0  0  0  0  0  0  0  0  0
  129.6399  132.3882   60.0000 H   0  0  0  0  0  0  0  0  0  0  0  0
  130.7333  133.2685   61.1710 H   0  0  0  0  0  0  0  0  0  0  0  0
  131.5238  130.9010   61.8678 H   0  0  0  0  0  0  0  0  0  0  0  0
  130.7990  130.3615   60.3153 H   0  0  0  0  0  0  0  0  0  0  0  0
  132.1147  131.5845   60.3153 H   0  0  0  0  0  0  0  0  0  0  0  0
  129.4451  129.2773   67.7611 H   0  0  0  0  0  0  0  0  0  0  0  0
  127.7268  129.6645   67.3428 H   0  0  0  0  0  0  0  0  0  0  0  0
  127.2297  128.4039   69.1561 H   0  0  0  0  0  0  0  0  0  0  0  0
  127.5653  127.0121   68.0120 H   0  0  0  0  0  0  0  0  0  0  0  0
  130.1075  127.4937   72.0389 H   0  0  0  0  0  0  0  0  0  0  0  0
  129.8195  129.2746   72.0479 H   0  0  0  0  0  0  0  0  0  0  0  0
  127.8915  128.3752   73.0982 H   0  0  0  0  0  0  0  0  0  0  0  0
  127.3769  128.6765   71.3917 H   0  0  0  0  0  0  0  0  0  0  0  0
  128.2520  126.3140   71.2570 H   0  0  0  0  0  0  0  0  0  0  0  0
  129.5247  126.3786   67.9687 H   0  0  0  0  0  0  0  0  0  0  0  0
  129.3527  124.9710   66.8662 H   0  0  0  0  0  0  0  0  0  0  0  0
  130.8705  125.9317   66.8662 H   0  0  0  0  0  0  0  0  0  0  0  0
  128.8517  122.5319   63.4556 H   0  0  0  0  0  0  0  0  0  0  0  0
  128.0049  122.9573   61.9297 H   0  0  0  0  0  0  0  0  0  0  0  0
  129.2686  121.6807   61.9297 H   0  0  0  0  0  0  0  0  0  0  0  0
  130.4252  123.3773   58.6073 H   0  0  0  0  0  0  0  0  0  0  0  0
  131.8174  121.3982   59.3982 H   0  0  0  0  0  0  0  0  0  0  0  0
  134.8434  123.5497   62.7752 H   0  0  0  0  0  0  0  0  0  0  0  0
  135.5419  122.8483   61.2763 H   0  0  0  0  0  0  0  0  0  0  0  0
  133.8567  123.4703   61.2763 H   0  0  0  0  0  0  0  0  0  0  0  0
  132.2226  124.0762   62.3352 H   0  0  0  0  0  0  0  0  0  0  0  0
  133.3710  125.3691   64.8691 H   0  0  0  0  0  0  0  0  0  0  0  0
  133.9914  124.5029   63.4228 H   0  0  0  0  0  0  0  0  0  0  0  0
  132.3241  125.1712   63.4228 H   0  0  0  0  0  0  0  0  0  0  0  0
  1  2  2  0
  2  3  1  0
  3  4  2  0
  4  5  1  0
  4  6  1  0
  6  7  2  0
  7  8  1  0
  8  9  2  0
  9 10  1  0
 10 11  2  0
 11 12  1  0
 12 13  2  0
 13 14  1  0
 14 15  2  0
 15 16  1  0
 16 17  1  0
 17 18  1  0
 18 19  1  0
 19 20  2  0
 20 21  1  0
 18 22  2  0
 22 23  1  0
 22 24  1  0
 24 25  1  0
 25 26  1  0
 26 27  1  0
 27 28  2  0
 27 29  1  0
 29 30  1  0
 30 31  1  0
 31 32  1  0
 14 33  1  0
 33 34  1  0
 34 35  1  0
 35 36  1  0
 36 37  2  0
 36 38  1  0
 38 39  1  0
 39 40  1  0
 40 41  1  0
 33 42  2  0
 42 43  1  0
 10 44  1  0
 44 45  1  6
 44 46  1  0
 46 47  2  0
 47 48  1  0
 48 49  2  0
 49 50  1  0
 50 51  2  0
 50 52  1  0
 52 53  1  0
 49 54  1  0
 54 55  1  0
 55 56  2  0
 55 57  1  0
 57 58  1  0
 20  3  1  0
 54 44  1  0
 21  6  1  0
 46  8  1  0
 42 12  1  0
 24 16  2  0
  1 59  1  0
  1 60  1  0
  2 61  1  0
  5 62  1  0
  5 63  1  0
  5 64  1  0
  7 65  1  0
 11 66  1  0
 13 67  1  0
 15 68  1  0
 17 69  1  0
 19 70  1  0
 21 71  1  0
 23 72  1  0
 23 73  1  0
 23 74  1  0
 25 75  1  0
 25 76  1  0
 26 77  1  0
 26 78  1  0
 30 79  1  0
 30 80  1  0
 31 81  1  0
 31 82  1  0
 32 83  1  0
 32 84  1  0
 32 85  1  0
 34 86  1  0
 34 87  1  0
 35 88  1  0
 35 89  1  0
 39 90  1  0
 39 91  1  0
 40 92  1  0
 40 93  1  0
 41 94  1  0
 43 95  1  0
 43 96  1  0
 43 97  1  0
 45 98  1  0
 45 99  1  0
 45100  1  0
 47101  1  0
 48102  1  0
 53103  1  0
 53104  1  0
 53105  1  0
 54106  1  1
 58107  1  0
 58108  1  0
 58109  1  0
M  CHG  1  13   1
M  END
>  <Binding energies>  (1) 
[-1.85]

>  <Ligand effiencies>  (1) 
[-0.029838709677419355]

>  <Interactions>  (1) 
["V-A:ILE:369:CG2:3237, V-A:GLY:454:CA:4049, V-B:HIS:456:CD2:9039, H-B:GLU:543:O:9875, H-A:ALA:541:N:4891, V-B:GLU:543:CB:9878, H-B:LYS:547:NZ:9923, V-A:PRO:540:C:4881, V-B:ALA:541:CB:9864, V-B:TYR:539:CE2:9848, V-B:GLU:543:CG:9879, V-B:LEU:475:CD2:9230, V-B:TYR:484:CE2:9317, V-B:TYR:539:CZ:9849, H-B:GLU:543:OE1:9881, V-B:TYR:531:CZ:9766, V-A:ALA:541:CB:4892, V-A:GLU:543:CD:4908, H-B:TYR:484:OH:9319, V-B:HIS:456:CE1:9041, H-A:GLY:454:N:4050, V-A:HIS:456:CE1:4070, V-B:TYR:484:CZ:9318, V-A:ILE:369:CD1:3239, V-A:ALA:541:CA:4890, V-B:TYR:539:CD2:9846, V-A:GLU:543:CG:4907, V-A:SER:385:CB:3409, H-A:SER:385:OG:3410, V-B:GLU:543:CD:9880, V-A:MET:535:CE:4835, V-B:HIS:456:CG:9037, V-B:LEU:475:CG:9228, V-A:LEU:475:CD2:4259, V-A:ARG:545:CZ:4926, H-A:GLU:543:OE1:4909, V-A:GLU:543:CB:4906, V-A:PRO:540:CB:4885, V-A:PRO:540:CA:4883, V-A:TYR:539:CE1:4875, H-A:HIS:456:NE2:4071, H-A:TYR:484:OH:4348"]

$$$$
ZINC169292731
     RDKit          3D

 79 80  0  0  0  0  0  0  0  0999 V2000
  127.7200  128.7200   67.2380 C   0  0  0  0  0  0  0  0  0  0  0  0
  127.8420  127.8490   66.1200 O   0  0  0  0  0  0  0  0  0  0  0  0
  128.1940  128.4690   64.8820 C   0  0  1  0  0  0  0  0  0  0  0  0
  128.4000  127.3610   63.8120 C   0  0  0  0  0  0  0  0  0  0  0  0
  129.3990  126.2210   64.1520 C   0  0  2  0  0  0  0  0  0  0  0  0
  129.7160  126.1450   65.6600 C   0  0  0  0  0  0  0  0  0  0  0  0
  130.6720  126.2580   63.2680 C   0  0  0  0  0  0  0  0  0  0  0  0
  130.6350  125.3230   62.0600 C   0  0  0  0  0  0  0  0  0  0  0  0
  130.6280  125.8920   60.7840 C   0  0  0  0  0  0  0  0  0  0  0  0
  130.6270  125.0830   59.6430 C   0  0  0  0  0  0  0  0  0  0  0  0
  130.5840  123.6950   59.7770 C   0  0  0  0  0  0  0  0  0  0  0  0
  130.5990  123.1140   61.0470 C   0  0  0  0  0  0  0  0  0  0  0  0
  130.5790  121.3890   61.1740 Cl  0  0  0  0  0  0  0  0  0  0  0  0
  130.6380  123.9240   62.1920 C   0  0  0  0  0  0  0  0  0  0  0  0
  130.6890  123.3400   63.4340 O   0  0  0  0  0  0  0  0  0  0  0  0
  130.6570  125.6430   58.3590 N   0  0  0  0  0  0  0  0  0  0  0  0
  129.6080  126.1440   57.6630 C   0  0  0  0  0  0  0  0  0  0  0  0
  129.7480  126.4800   56.4880 O   0  0  0  0  0  0  0  0  0  0  0  0
  128.3370  126.3230   58.3500 C   0  0  0  0  0  0  0  0  0  0  0  0
  127.9150  125.1440   59.2260 C   0  0  0  0  0  0  0  0  0  0  0  0
  127.6640  127.4970   58.3450 C   0  0  0  0  0  0  0  0  0  0  0  0
  127.9950  128.7970   57.6190 C   0  0  0  0  0  0  0  0  0  0  0  0
  127.2730  130.0590   58.1420 C   0  0  0  0  0  0  0  0  0  0  0  0
  128.2010  131.1870   58.6650 C   0  0  2  0  0  0  0  0  0  0  0  0
  129.1460  131.4530   57.6280 O   0  0  0  0  0  0  0  0  0  0  0  0
  129.3930  132.8230   57.3400 C   0  0  0  0  0  0  0  0  0  0  0  0
  128.9010  130.8920   60.0240 C   0  0  1  0  0  0  0  0  0  0  0  0
  130.2090  131.4790   60.0020 O   0  0  0  0  0  0  0  0  0  0  0  0
  131.0380  131.4360   61.0700 C   0  0  0  0  0  0  0  0  0  0  0  0
  131.9650  130.4350   60.8860 N   0  0  0  0  0  0  0  0  0  0  0  0
  130.9750  132.1730   62.0540 O   0  0  0  0  0  0  0  0  0  0  0  0
  128.1140  131.2620   61.2930 C   0  0  0  0  0  0  0  0  0  0  0  0
  127.1980  132.4810   61.1870 C   0  0  0  0  0  0  0  0  0  0  0  0
  128.3420  130.5960   62.4470 C   0  0  0  0  0  0  0  0  0  0  0  0
  127.7230  130.8480   63.8220 C   0  0  2  0  0  0  0  0  0  0  0  0
  128.7490  131.5550   64.7330 C   0  0  0  0  0  0  0  0  0  0  0  0
  127.1460  129.5560   64.4760 C   0  0  1  0  0  0  0  0  0  0  0  0
  126.2100  128.9590   63.5940 O   0  0  0  0  0  0  0  0  0  0  0  0
  127.8016  128.1373   68.1674 H   0  0  0  0  0  0  0  0  0  0  0  0
  128.5215  129.4727   67.2056 H   0  0  0  0  0  0  0  0  0  0  0  0
  126.7426  129.2235   67.2056 H   0  0  0  0  0  0  0  0  0  0  0  0
  129.1433  129.0159   64.9808 H   0  0  0  0  0  0  0  0  0  0  0  0
  127.4206  126.8971   63.6235 H   0  0  0  0  0  0  0  0  0  0  0  0
  128.8449  127.8794   62.9498 H   0  0  0  0  0  0  0  0  0  0  0  0
  128.8891  125.2790   63.9016 H   0  0  0  0  0  0  0  0  0  0  0  0
  128.8056  126.3633   66.2375 H   0  0  0  0  0  0  0  0  0  0  0  0
  130.0748  125.1354   65.9088 H   0  0  0  0  0  0  0  0  0  0  0  0
  130.4936  126.8822   65.9088 H   0  0  0  0  0  0  0  0  0  0  0  0
  130.8056  127.2866   62.9017 H   0  0  0  0  0  0  0  0  0  0  0  0
  131.5023  125.9147   63.9026 H   0  0  0  0  0  0  0  0  0  0  0  0
  130.6232  126.9866   60.6757 H   0  0  0  0  0  0  0  0  0  0  0  0
  130.5382  123.0576   58.8816 H   0  0  0  0  0  0  0  0  0  0  0  0
  130.6050  123.9790   64.1460 H   0  0  0  0  0  0  0  0  0  0  0  0
  131.5600  125.6510   57.9060 H   0  0  0  0  0  0  0  0  0  0  0  0
  128.0141  125.4208   60.2860 H   0  0  0  0  0  0  0  0  0  0  0  0
  126.8680  124.8839   59.0113 H   0  0  0  0  0  0  0  0  0  0  0  0
  128.5592  124.2786   59.0113 H   0  0  0  0  0  0  0  0  0  0  0  0
  126.7466  127.5166   58.9516 H   0  0  0  0  0  0  0  0  0  0  0  0
  129.0783  128.9667   57.7066 H   0  0  0  0  0  0  0  0  0  0  0  0
  127.6473  128.6596   56.5845 H   0  0  0  0  0  0  0  0  0  0  0  0
  126.6692  130.4701   57.3195 H   0  0  0  0  0  0  0  0  0  0  0  0
  126.6769  129.7312   59.0065 H   0  0  0  0  0  0  0  0  0  0  0  0
  127.5824  132.0672   58.8945 H   0  0  0  0  0  0  0  0  0  0  0  0
  129.4940  133.3831   58.2813 H   0  0  0  0  0  0  0  0  0  0  0  0
  130.3220  132.9136   56.7579 H   0  0  0  0  0  0  0  0  0  0  0  0
  128.5542  133.2323   56.7579 H   0  0  0  0  0  0  0  0  0  0  0  0
  128.9649  129.7970   60.1066 H   0  0  0  0  0  0  0  0  0  0  0  0
  131.9400  129.8850   60.0410 H   0  0  0  0  0  0  0  0  0  0  0  0
  132.6600  130.2690   61.5990 H   0  0  0  0  0  0  0  0  0  0  0  0
  126.9351  132.8309   62.1962 H   0  0  0  0  0  0  0  0  0  0  0  0
  127.7179  133.2842   60.6443 H   0  0  0  0  0  0  0  0  0  0  0  0
  126.2818  132.2051   60.6443 H   0  0  0  0  0  0  0  0  0  0  0  0
  129.0641  129.7682   62.3895 H   0  0  0  0  0  0  0  0  0  0  0  0
  126.8564  131.5116   63.6853 H   0  0  0  0  0  0  0  0  0  0  0  0
  128.4887  131.3756   65.7866 H   0  0  0  0  0  0  0  0  0  0  0  0
  129.7544  131.1570   64.5308 H   0  0  0  0  0  0  0  0  0  0  0  0
  128.7351  132.6362   64.5308 H   0  0  0  0  0  0  0  0  0  0  0  0
  126.6892  129.9012   65.4152 H   0  0  0  0  0  0  0  0  0  0  0  0
  126.0090  128.0780   63.9170 H   0  0  0  0  0  0  0  0  0  0  0  0
  1  2  1  0
  2  3  1  0
  3  4  1  0
  4  5  1  0
  5  6  1  0
  5  7  1  0
  7  8  1  0
  8  9  2  0
  9 10  1  0
 10 11  2  0
 11 12  1  0
 12 13  1  0
 12 14  2  0
 14 15  1  0
 10 16  1  0
 16 17  1  0
 17 18  2  0
 17 19  1  0
 19 20  1  0
 19 21  2  0
 21 22  1  0
 22 23  1  0
 23 24  1  0
 24 25  1  0
 25 26  1  0
 24 27  1  0
 27 28  1  0
 28 29  1  0
 29 30  1  0
 29 31  2  0
 27 32  1  0
 32 33  1  0
 32 34  2  0
 34 35  1  0
 35 36  1  0
 35 37  1  0
 37 38  1  0
 37  3  1  0
 14  8  1  0
  1 39  1  0
  1 40  1  0
  1 41  1  0
  3 42  1  1
  4 43  1  0
  4 44  1  0
  5 45  1  6
  6 46  1  0
  6 47  1  0
  6 48  1  0
  7 49  1  0
  7 50  1  0
  9 51  1  0
 11 52  1  0
 15 53  1  0
 16 54  1  0
 20 55  1  0
 20 56  1  0
 20 57  1  0
 21 58  1  0
 22 59  1  0
 22 60  1  0
 23 61  1  0
 23 62  1  0
 24 63  1  1
 26 64  1  0
 26 65  1  0
 26 66  1  0
 27 67  1  1
 30 68  1  0
 30 69  1  0
 33 70  1  0
 33 71  1  0
 33 72  1  0
 34 73  1  0
 35 74  1  6
 36 75  1  0
 36 76  1  0
 36 77  1  0
 37 78  1  1
 38 79  1  0
M  END
>  <Binding energies>  (1) 
[-1.71]

>  <Ligand effiencies>  (1) 
[-0.038]

>  <Interactions>  (1) 
["H-A:ALA:541:N:4891, V-B:GLU:543:CB:9878, H-A:TYR:531:OH:4795, V-B:TYR:539:CE2:9848, V-B:GLU:543:CG:9879, V-A:ASP:366:CG:3213, V-B:TYR:484:CE2:9317, V-B:TYR:539:CZ:9849, H-B:GLU:543:OE1:9881, H-B:TYR:539:OH:9850, V-A:ALA:541:CB:4892, V-A:GLU:543:CD:4908, V-B:HIS:456:CE1:9041, V-B:TYR:539:CD2:9846, V-A:GLU:543:CG:4907, V-B:GLU:543:CD:9880, V-A:TYR:539:C:4867, V-A:LEU:475:CD2:4259, H-A:GLU:543:OE1:4909, H-B:ARG:545:NH2:9900, H-B:GLU:543:OE2:9882, V-A:PRO:540:CA:4883, V-A:PRO:540:CB:4885, H-A:ASP:366:OD2:3215"]

$$$$
ZINC169302010
     RDKit          3D

125128  0  0  0  0  0  0  0  0999 V2000
  129.6790  123.5780   59.9910 C   0  0  0  0  0  0  0  0  0  0  0  0
  128.3720  122.7510   60.0640 C   0  0  0  0  0  0  0  0  0  0  0  0
  127.8790  122.3740   58.6450 C   0  0  0  0  0  0  0  0  0  0  0  0
  127.2870  123.5820   60.7800 C   0  0  0  0  0  0  0  0  0  0  0  0
  128.5130  121.5750   60.8820 O   0  0  0  0  0  0  0  0  0  0  0  0
  129.6940  120.9490   61.1820 C   0  0  0  0  0  0  0  0  0  0  0  0
  130.2400  120.1110   60.4660 O   0  0  0  0  0  0  0  0  0  0  0  0
  130.2160  121.3750   62.4010 N   0  0  0  0  0  0  0  0  0  0  0  0
  129.4500  122.0890   63.4260 C   0  0  0  0  0  0  0  0  0  0  0  0
  129.4570  123.5390   63.1860 C   0  0  0  0  0  0  0  0  0  0  0  0
  129.4240  124.7490   63.0160 C   0  0  0  0  0  0  0  0  0  0  0  0
  129.3440  126.2010   62.7560 C   0  0  0  0  0  0  0  0  0  0  0  0
  128.1800  126.6260   61.8160 C   0  0  1  0  0  0  0  0  0  0  0  0
  127.3090  127.6020   62.4730 N   0  0  0  0  0  0  0  0  0  0  0  0
  127.6030  128.9010   62.6650 C   0  0  0  0  0  0  0  0  0  0  0  0
  128.6450  129.4260   62.2620 O   0  0  0  0  0  0  0  0  0  0  0  0
  126.5420  129.7130   63.4550 C   0  0  2  0  0  0  0  0  0  0  0  0
  126.9490  131.1770   63.7650 C   0  0  0  0  0  0  0  0  0  0  0  0
  127.4360  132.0130   62.5910 C   0  0  0  0  0  0  0  0  0  0  0  0
  126.5350  132.4440   61.5930 C   0  0  0  0  0  0  0  0  0  0  0  0
  126.9740  133.2820   60.5760 C   0  0  0  0  0  0  0  0  0  0  0  0
  128.2930  133.7180   60.5490 C   0  0  0  0  0  0  0  0  0  0  0  0
  129.1830  133.3260   61.5420 C   0  0  0  0  0  0  0  0  0  0  0  0
  128.7650  132.4880   62.5670 C   0  0  0  0  0  0  0  0  0  0  0  0
  126.2590  129.0150   64.7360 N   0  0  0  0  0  0  0  0  0  0  0  0
  127.0710  129.4180   66.2480 S   0  0  0  0  0  0  0  0  0  0  0  0
  128.0190  130.5020   65.9710 O   0  0  0  0  0  0  0  0  0  0  0  0
  126.0240  129.5760   67.2650 O   0  0  0  0  0  0  0  0  0  0  0  0
  127.9810  127.9390   66.6260 N   0  0  0  0  0  0  0  0  0  0  0  0
  128.6360  127.9010   67.9560 C   0  0  0  0  0  0  0  0  0  0  0  0
  129.1390  126.4710   68.2360 C   0  0  0  0  0  0  0  0  0  0  0  0
  129.9890  126.0320   67.1740 O   0  0  0  0  0  0  0  0  0  0  0  0
  129.3490  126.0130   65.8970 C   0  0  0  0  0  0  0  0  0  0  0  0
  128.8460  127.4250   65.5350 C   0  0  0  0  0  0  0  0  0  0  0  0
  128.6820  127.2090   60.4800 C   0  0  0  0  0  0  0  0  0  0  0  0
  127.8920  127.8090   59.7500 O   0  0  0  0  0  0  0  0  0  0  0  0
  129.9870  127.0300   60.2140 N   0  0  0  0  0  0  0  0  0  0  0  0
  130.6750  127.4680   58.9890 C   0  0  1  0  0  0  0  0  0  0  0  0
  131.2880  128.8830   59.1960 C   0  0  0  0  0  0  0  0  0  0  0  0
  130.8910  129.9680   58.1610 C   0  0  0  0  0  0  0  0  0  0  0  0
  129.9540  131.0270   58.7850 C   0  0  0  0  0  0  0  0  0  0  0  0
  129.4700  132.0350   57.7230 C   0  0  0  0  0  0  0  0  0  0  0  0
  130.6560  132.7170   57.0070 C   0  0  0  0  0  0  0  0  0  0  0  0
  131.6840  131.6990   56.4670 C   0  0  0  0  0  0  0  0  0  0  0  0
  132.1160  130.6970   57.5570 C   0  0  0  0  0  0  0  0  0  0  0  0
  131.7490  126.4290   58.5310 C   0  0  1  0  0  0  0  0  0  0  0  0
  132.7210  127.0380   57.6890 O   0  0  0  0  0  0  0  0  0  0  0  0
  132.4970  125.7670   59.7250 C   0  0  0  0  0  0  0  0  0  0  0  0
  133.3420  124.5150   59.3920 C   0  0  0  0  0  0  0  0  0  0  0  0
  133.3360  124.0810   58.2370 O   0  0  0  0  0  0  0  0  0  0  0  0
  133.9540  123.8510   60.4090 N   0  0  0  0  0  0  0  0  0  0  0  0
  133.9190  122.3870   60.5250 C   0  0  0  0  0  0  0  0  0  0  0  0
  132.7470  122.0660   61.4760 C   0  0  0  0  0  0  0  0  0  0  0  0
  132.9550  122.7120   62.7330 O   0  0  0  0  0  0  0  0  0  0  0  0
  133.0920  124.1380   62.6690 C   0  0  1  0  0  0  0  0  0  0  0  0
  133.3640  124.6800   64.0880 C   0  0  0  0  0  0  0  0  0  0  0  0
  132.1840  125.4330   64.7350 C   0  0  0  0  0  0  0  0  0  0  0  0
  132.2970  125.4210   66.2640 N   0  0  0  0  0  0  0  0  0  0  0  0
  134.2290  124.5310   61.6860 C   0  0  0  0  0  0  0  0  0  0  0  0
  130.0298  123.8000   61.0097 H   0  0  0  0  0  0  0  0  0  0  0  0
  130.4481  123.0018   59.4557 H   0  0  0  0  0  0  0  0  0  0  0  0
  129.4876  124.5197   59.4557 H   0  0  0  0  0  0  0  0  0  0  0  0
  127.0075  121.7076   58.7246 H   0  0  0  0  0  0  0  0  0  0  0  0
  127.5941  123.2868   58.1013 H   0  0  0  0  0  0  0  0  0  0  0  0
  128.6853  121.8599   58.1013 H   0  0  0  0  0  0  0  0  0  0  0  0
  127.4112  123.4868   61.8688 H   0  0  0  0  0  0  0  0  0  0  0  0
  127.3842  124.6389   60.4908 H   0  0  0  0  0  0  0  0  0  0  0  0
  126.2920  123.2128   60.4908 H   0  0  0  0  0  0  0  0  0  0  0  0
  131.0270  120.8710   62.7280 H   0  0  0  0  0  0  0  0  0  0  0  0
  128.4108  121.7287   63.4123 H   0  0  0  0  0  0  0  0  0  0  0  0
  129.9161  121.8971   64.4037 H   0  0  0  0  0  0  0  0  0  0  0  0
  129.2127  126.7156   63.7193 H   0  0  0  0  0  0  0  0  0  0  0  0
  130.2768  126.4783   62.2431 H   0  0  0  0  0  0  0  0  0  0  0  0
  127.6117  125.7105   61.5946 H   0  0  0  0  0  0  0  0  0  0  0  0
  126.4380  127.2390   62.8310 H   0  0  0  0  0  0  0  0  0  0  0  0
  125.6555  129.7703   62.8062 H   0  0  0  0  0  0  0  0  0  0  0  0
  126.0717  131.6834   64.1938 H   0  0  0  0  0  0  0  0  0  0  0  0
  127.8116  131.1002   64.4433 H   0  0  0  0  0  0  0  0  0  0  0  0
  125.4854  132.1161   61.6209 H   0  0  0  0  0  0  0  0  0  0  0  0
  126.2749  133.6016   59.7891 H   0  0  0  0  0  0  0  0  0  0  0  0
  128.6347  134.3770   59.7373 H   0  0  0  0  0  0  0  0  0  0  0  0
  130.2237  133.6814   61.5157 H   0  0  0  0  0  0  0  0  0  0  0  0
  129.4689  132.1945   63.3597 H   0  0  0  0  0  0  0  0  0  0  0  0
  125.5680  128.2600   64.7330 H   0  0  0  0  0  0  0  0  0  0  0  0
  129.4867  128.5983   67.9666 H   0  0  0  0  0  0  0  0  0  0  0  0
  127.9132  128.1955   68.7311 H   0  0  0  0  0  0  0  0  0  0  0  0
  129.7028  126.4622   69.1805 H   0  0  0  0  0  0  0  0  0  0  0  0
  128.2754  125.7937   68.3090 H   0  0  0  0  0  0  0  0  0  0  0  0
  130.0674  125.6763   65.1350 H   0  0  0  0  0  0  0  0  0  0  0  0
  128.4921  125.3242   65.9341 H   0  0  0  0  0  0  0  0  0  0  0  0
  129.7063  128.0974   65.4020 H   0  0  0  0  0  0  0  0  0  0  0  0
  128.2676  127.3789   64.6005 H   0  0  0  0  0  0  0  0  0  0  0  0
  130.5470  126.5160   60.8780 H   0  0  0  0  0  0  0  0  0  0  0  0
  129.9347  127.5319   58.1779 H   0  0  0  0  0  0  0  0  0  0  0  0
  130.9778  129.2394   60.1893 H   0  0  0  0  0  0  0  0  0  0  0  0
  132.3734  128.7501   59.0763 H   0  0  0  0  0  0  0  0  0  0  0  0
  130.3699  129.4285   57.3564 H   0  0  0  0  0  0  0  0  0  0  0  0
  129.0815  130.5208   59.2238 H   0  0  0  0  0  0  0  0  0  0  0  0
  130.5123  131.5752   59.5582 H   0  0  0  0  0  0  0  0  0  0  0  0
  128.8604  131.5034   56.9775 H   0  0  0  0  0  0  0  0  0  0  0  0
  128.8796  132.8127   58.2295 H   0  0  0  0  0  0  0  0  0  0  0  0
  130.2673  133.3071   56.1640 H   0  0  0  0  0  0  0  0  0  0  0  0
  131.1698  133.3534   57.7425 H   0  0  0  0  0  0  0  0  0  0  0  0
  131.2324  131.1447   55.6311 H   0  0  0  0  0  0  0  0  0  0  0  0
  132.5749  132.2523   56.1352 H   0  0  0  0  0  0  0  0  0  0  0  0
  132.7938  129.9531   57.1129 H   0  0  0  0  0  0  0  0  0  0  0  0
  132.6235  131.2516   58.3601 H   0  0  0  0  0  0  0  0  0  0  0  0
  131.1941  125.6515   57.9856 H   0  0  0  0  0  0  0  0  0  0  0  0
  132.2930  127.7270   57.1750 H   0  0  0  0  0  0  0  0  0  0  0  0
  133.1706  126.5209   60.1585 H   0  0  0  0  0  0  0  0  0  0  0  0
  131.7092  125.4171   60.4083 H   0  0  0  0  0  0  0  0  0  0  0  0
  133.7485  121.9291   59.5395 H   0  0  0  0  0  0  0  0  0  0  0  0
  134.8704  121.9894   60.9080 H   0  0  0  0  0  0  0  0  0  0  0  0
  131.8070  122.4250   61.0317 H   0  0  0  0  0  0  0  0  0  0  0  0
  132.6913  120.9784   61.6306 H   0  0  0  0  0  0  0  0  0  0  0  0
  132.1613  124.5849   62.2894 H   0  0  0  0  0  0  0  0  0  0  0  0
  133.6214  123.8285   64.7350 H   0  0  0  0  0  0  0  0  0  0  0  0
  134.1780  125.4129   63.9865 H   0  0  0  0  0  0  0  0  0  0  0  0
  132.1854  126.4749   64.3823 H   0  0  0  0  0  0  0  0  0  0  0  0
  131.2483  124.9306   64.4487 H   0  0  0  0  0  0  0  0  0  0  0  0
  131.6420  124.7600   66.6560 H   0  0  0  0  0  0  0  0  0  0  0  0
  132.0940  126.3380   66.6350 H   0  0  0  0  0  0  0  0  0  0  0  0
  133.2320  125.1560   66.5430 H   0  0  0  0  0  0  0  0  0  0  0  0
  134.2395  125.6210   61.5381 H   0  0  0  0  0  0  0  0  0  0  0  0
  135.2102  124.2329   62.0841 H   0  0  0  0  0  0  0  0  0  0  0  0
  1  2  1  0
  2  3  1  0
  2  4  1  0
  2  5  1  0
  5  6  1  0
  6  7  2  0
  6  8  1  0
  8  9  1  0
  9 10  1  0
 10 11  3  0
 11 12  1  0
 12 13  1  0
 13 14  1  0
 14 15  1  0
 15 16  2  0
 15 17  1  0
 17 18  1  0
 18 19  1  0
 19 20  2  0
 20 21  1  0
 21 22  2  0
 22 23  1  0
 23 24  2  0
 17 25  1  0
 25 26  1  0
 26 27  2  0
 26 28  2  0
 26 29  1  0
 29 30  1  0
 30 31  1  0
 31 32  1  0
 32 33  1  0
 33 34  1  0
 13 35  1  0
 35 36  2  0
 35 37  1  0
 37 38  1  0
 38 39  1  0
 39 40  1  0
 40 41  1  0
 41 42  1  0
 42 43  1  0
 43 44  1  0
 44 45  1  0
 38 46  1  0
 46 47  1  0
 46 48  1  0
 48 49  1  0
 49 50  2  0
 49 51  1  0
 51 52  1  0
 52 53  1  0
 53 54  1  0
 54 55  1  0
 55 56  1  0
 56 57  1  0
 57 58  1  0
 55 59  1  0
 24 19  1  0
 34 29  1  0
 45 40  1  0
 59 51  1  0
  1 60  1  0
  1 61  1  0
  1 62  1  0
  3 63  1  0
  3 64  1  0
  3 65  1  0
  4 66  1  0
  4 67  1  0
  4 68  1  0
  8 69  1  0
  9 70  1  0
  9 71  1  0
 12 72  1  0
 12 73  1  0
 13 74  1  6
 14 75  1  0
 17 76  1  6
 18 77  1  0
 18 78  1  0
 20 79  1  0
 21 80  1  0
 22 81  1  0
 23 82  1  0
 24 83  1  0
 25 84  1  0
 30 85  1  0
 30 86  1  0
 31 87  1  0
 31 88  1  0
 33 89  1  0
 33 90  1  0
 34 91  1  0
 34 92  1  0
 37 93  1  0
 38 94  1  6
 39 95  1  0
 39 96  1  0
 40 97  1  0
 41 98  1  0
 41 99  1  0
 42100  1  0
 42101  1  0
 43102  1  0
 43103  1  0
 44104  1  0
 44105  1  0
 45106  1  0
 45107  1  0
 46108  1  6
 47109  1  0
 48110  1  0
 48111  1  0
 52112  1  0
 52113  1  0
 53114  1  0
 53115  1  0
 55116  1  6
 56117  1  0
 56118  1  0
 57119  1  0
 57120  1  0
 58121  1  0
 58122  1  0
 58123  1  0
 59124  1  0
 59125  1  0
M  CHG  1  58   1
M  END
>  <Binding energies>  (1) 
[-10.01]

>  <Ligand effiencies>  (1) 
[-0.14940298507462688]

>  <Interactions>  (1) 
["V-A:ILE:369:CG2:3237, V-A:ASP:366:CA:3210, V-B:PRO:540:CA:9855, H-A:GLU:543:OE2:4910, V-A:ILE:369:CB:3236, V-A:PRO:540:C:4881, V-B:GLU:543:CB:9878, V-B:ALA:541:CB:9864, H-A:TYR:531:OH:4795, V-B:TYR:539:CE2:9848, V-B:GLU:543:CG:9879, V-B:TYR:539:C:9839, V-A:ASP:366:CG:3213, H-B:HIS:456:ND1:9038, V-A:TYR:539:CD1:4873, V-A:LEU:363:CD1:3189, H-B:GLU:543:OE1:9881, V-A:TYR:531:CE2:4793, H-B:TYR:539:OH:9850, V-A:ALA:541:CB:4892, H-B:ALA:541:N:9863, V-A:GLU:543:CD:4908, V-A:TYR:484:CZ:4347, H-B:TYR:484:OH:9319, V-B:HIS:456:CE1:9041, V-B:PRO:540:N:9856, V-B:TYR:484:CZ:9318, V-A:HIS:456:CE1:4070, V-A:ILE:369:CD1:3239, V-B:TYR:539:CD2:9846, V-A:TYR:531:CZ:4794, V-B:GLU:543:CD:9880, V-A:TYR:539:C:4867, V-A:ASP:366:CB:3212, V-A:LEU:475:CD2:4259, V-A:ARG:545:CZ:4926, V-B:TYR:539:CG:9844, H-B:ARG:545:NH2:9900, V-A:GLU:543:CB:4906, V-A:PRO:540:N:4884, H-B:GLU:543:OE2:9882, V-A:PRO:540:CA:4883, V-A:TYR:539:CE1:4875, H-A:TYR:484:OH:4348"]

$$$$
ZINC169307100
     RDKit          3D

 53 57  0  0  0  0  0  0  0  0999 V2000
  129.7300  127.1810   63.2340 C   0  0  0  0  0  0  0  0  0  0  0  0
  129.5930  126.3740   64.4540 N   0  0  0  0  0  0  0  0  0  0  0  0
  129.1300  127.0050   65.6210 C   0  0  0  0  0  0  0  0  0  0  0  0
  128.3160  128.1530   65.5600 C   0  0  0  0  0  0  0  0  0  0  0  0
  127.7800  128.7240   66.7130 C   0  0  0  0  0  0  0  0  0  0  0  0
  128.0140  128.1390   67.9520 C   0  0  0  0  0  0  0  0  0  0  0  0
  128.7620  126.9670   68.0320 C   0  0  0  0  0  0  0  0  0  0  0  0
  129.2820  126.3780   66.8770 C   0  0  0  0  0  0  0  0  0  0  0  0
  130.2180  124.8950   67.0370 S   0  0  0  0  0  0  0  0  0  0  0  0
  129.8540  124.1700   65.4730 C   0  0  0  0  0  0  0  0  0  0  0  0
  129.8580  122.7790   65.3650 C   0  0  0  0  0  0  0  0  0  0  0  0
  129.5700  122.1620   64.1530 C   0  0  0  0  0  0  0  0  0  0  0  0
  129.2560  122.9290   63.0250 C   0  0  0  0  0  0  0  0  0  0  0  0
  128.8940  122.2990   61.6420 C   0  0  2  0  0  0  0  0  0  0  0  0
  128.9850  120.9340   61.7520 O   0  0  0  0  0  0  0  0  0  0  0  0
  129.8300  122.6830   60.4690 C   0  0  0  0  0  0  0  0  0  0  0  0
  129.6600  124.0680   60.0110 N   0  0  0  0  0  0  0  0  0  0  0  0
  130.5890  124.4110   58.9390 C   0  0  0  0  0  0  0  0  0  0  0  0
  128.2590  124.4330   59.7510 C   0  0  1  0  0  0  0  0  0  0  0  0
  127.6770  123.8380   58.4350 C   0  0  0  0  0  0  0  0  0  0  0  0
  126.1810  124.1490   58.2580 C   0  0  0  0  0  0  0  0  0  0  0  0
  125.3590  123.6900   59.4740 C   0  0  0  0  0  0  0  0  0  0  0  0
  125.8970  124.3010   60.7800 C   0  0  0  0  0  0  0  0  0  0  0  0
  127.4070  124.0470   60.9950 C   0  0  1  0  0  0  0  0  0  0  0  0
  127.5760  122.6530   61.2900 O   0  0  0  0  0  0  0  0  0  0  0  0
  129.2820  124.3250   63.1400 C   0  0  0  0  0  0  0  0  0  0  0  0
  129.6470  124.9730   64.3330 C   0  0  0  0  0  0  0  0  0  0  0  0
  129.9083  128.2315   63.5073 H   0  0  0  0  0  0  0  0  0  0  0  0
  130.5776  126.8076   62.6406 H   0  0  0  0  0  0  0  0  0  0  0  0
  128.8066  127.1082   62.6406 H   0  0  0  0  0  0  0  0  0  0  0  0
  128.0989  128.6082   64.5824 H   0  0  0  0  0  0  0  0  0  0  0  0
  127.1717  129.6378   66.6424 H   0  0  0  0  0  0  0  0  0  0  0  0
  127.6101  128.5998   68.8655 H   0  0  0  0  0  0  0  0  0  0  0  0
  128.9447  126.5017   69.0119 H   0  0  0  0  0  0  0  0  0  0  0  0
  130.0912  122.1647   66.2472 H   0  0  0  0  0  0  0  0  0  0  0  0
  129.5890  121.0646   64.0800 H   0  0  0  0  0  0  0  0  0  0  0  0
  128.9410  120.5650   60.8670 H   0  0  0  0  0  0  0  0  0  0  0  0
  130.8715  122.5505   60.7973 H   0  0  0  0  0  0  0  0  0  0  0  0
  129.5720  122.0292   59.6228 H   0  0  0  0  0  0  0  0  0  0  0  0
  131.5370  124.7610   59.3734 H   0  0  0  0  0  0  0  0  0  0  0  0
  130.7762  123.5227   58.3178 H   0  0  0  0  0  0  0  0  0  0  0  0
  130.1540  125.2078   58.3178 H   0  0  0  0  0  0  0  0  0  0  0  0
  128.2203  125.5203   59.5890 H   0  0  0  0  0  0  0  0  0  0  0  0
  128.2284  124.2614   57.5825 H   0  0  0  0  0  0  0  0  0  0  0  0
  127.7870  122.7447   58.4856 H   0  0  0  0  0  0  0  0  0  0  0  0
  126.0547  125.2343   58.1310 H   0  0  0  0  0  0  0  0  0  0  0  0
  125.8191  123.6049   57.3732 H   0  0  0  0  0  0  0  0  0  0  0  0
  124.3132  124.0023   59.3373 H   0  0  0  0  0  0  0  0  0  0  0  0
  125.4335  122.5950   59.5482 H   0  0  0  0  0  0  0  0  0  0  0  0
  125.7254  125.3872   60.7544 H   0  0  0  0  0  0  0  0  0  0  0  0
  125.3628  123.8176   61.6112 H   0  0  0  0  0  0  0  0  0  0  0  0
  127.7590  124.6793   61.8234 H   0  0  0  0  0  0  0  0  0  0  0  0
  129.0074  124.9350   62.2668 H   0  0  0  0  0  0  0  0  0  0  0  0
  1  2  1  0
  2  3  1  0
  3  4  2  0
  4  5  1  0
  5  6  2  0
  6  7  1  0
  7  8  2  0
  8  9  1  0
  9 10  1  0
 10 11  2  0
 11 12  1  0
 12 13  2  0
 13 14  1  0
 14 15  1  1
 14 16  1  0
 16 17  1  0
 17 18  1  0
 17 19  1  0
 19 20  1  0
 20 21  1  0
 21 22  1  0
 22 23  1  0
 23 24  1  0
 24 25  1  0
 13 26  1  0
 26 27  2  0
 27  2  1  0
  8  3  1  0
 27 10  1  0
 25 14  1  0
 24 19  1  0
  1 28  1  0
  1 29  1  0
  1 30  1  0
  4 31  1  0
  5 32  1  0
  6 33  1  0
  7 34  1  0
 11 35  1  0
 12 36  1  0
 15 37  1  0
 16 38  1  0
 16 39  1  0
 18 40  1  0
 18 41  1  0
 18 42  1  0
 19 43  1  6
 20 44  1  0
 20 45  1  0
 21 46  1  0
 21 47  1  0
 22 48  1  0
 22 49  1  0
 23 50  1  0
 23 51  1  0
 24 52  1  1
 26 53  1  0
M  END
>  <Binding energies>  (1) 
[-7.66]

>  <Ligand effiencies>  (1) 
[-0.2735714285714286]

>  <Interactions>  (1) 
["V-B:PRO:540:CA:9855, V-B:TYR:539:CZ:9849, V-B:GLU:543:CB:9878, V-B:TYR:539:CD2:9846, H-B:TYR:539:O:9840, V-A:GLU:543:CG:4907, H-B:ALA:541:N:9863, V-B:GLU:543:CD:9880, V-B:ALA:541:CB:9864, V-B:TYR:539:CE2:9848, V-B:PRO:540:CB:9857, V-A:GLU:543:CD:4908, V-A:TYR:484:CE2:4346, V-A:TYR:484:CZ:4347, V-A:LEU:475:CD2:4259, V-B:GLU:543:CG:9879, V-B:HIS:456:CE1:9041, H-A:TYR:484:OH:4348"]

$$$$
ZINC169309305
     RDKit          3D

 73 79  0  0  0  0  0  0  0  0999 V2000
  132.0180  123.6850   63.8770 C   0  0  0  0  0  0  0  0  0  0  0  0
  130.9040  124.0140   62.8660 C   0  0  2  0  0  0  0  0  0  0  0  0
  129.8820  122.8610   62.7560 C   0  0  0  0  0  0  0  0  0  0  0  0
  128.7160  123.2410   61.8240 C   0  0  0  0  0  0  0  0  0  0  0  0
  129.2240  123.6790   60.4210 C   0  0  1  0  0  0  0  0  0  0  0  0
  128.1000  124.2340   59.6370 N   0  0  0  0  0  0  0  0  0  0  0  0
  127.4870  123.5900   58.5600 C   0  0  0  0  0  0  0  0  0  0  0  0
  127.7100  122.3460   57.9490 C   0  0  0  0  0  0  0  0  0  0  0  0
  126.9610  121.9410   56.8920 N   0  0  0  0  0  0  0  0  0  0  0  0
  125.9840  122.7530   56.4230 C   0  0  0  0  0  0  0  0  0  0  0  0
  125.6880  124.0050   56.9620 C   0  0  0  0  0  0  0  0  0  0  0  0
  126.4580  124.4330   58.0560 C   0  0  0  0  0  0  0  0  0  0  0  0
  126.4540  125.5930   58.8370 C   0  0  0  0  0  0  0  0  0  0  0  0
  125.7080  126.7800   58.8580 C   0  0  0  0  0  0  0  0  0  0  0  0
  125.9570  127.7430   59.7800 N   0  0  0  0  0  0  0  0  0  0  0  0
  126.9530  127.5150   60.6790 C   0  0  0  0  0  0  0  0  0  0  0  0
  127.2360  128.4770   61.6640 N   0  0  0  0  0  0  0  0  0  0  0  0
  127.7370  128.3930   62.9750 C   0  0  0  0  0  0  0  0  0  0  0  0
  128.5880  127.3340   63.2900 C   0  0  0  0  0  0  0  0  0  0  0  0
  129.0870  127.2420   64.5880 C   0  0  0  0  0  0  0  0  0  0  0  0
  128.7360  128.2270   65.5260 C   0  0  0  0  0  0  0  0  0  0  0  0
  129.1580  128.1840   66.8630 N   0  0  0  0  0  0  0  0  0  0  0  0
  128.4160  128.9510   67.8980 C   0  0  0  0  0  0  0  0  0  0  0  0
  129.0860  129.0070   69.2900 C   0  0  0  0  0  0  0  0  0  0  0  0
  129.4300  127.6060   69.8270 C   0  0  0  0  0  0  0  0  0  0  0  0
  130.4610  127.1160   68.7960 C   0  0  0  0  0  0  0  0  0  0  0  0
  129.8300  126.9670   67.3930 C   0  0  0  0  0  0  0  0  0  0  0  0
  128.1990  126.6550   69.9690 C   0  0  0  0  0  0  0  0  0  0  0  0
  127.3690  127.0340   71.2030 C   0  0  0  0  0  0  0  0  0  0  0  0
  128.6270  127.6260   72.4610 S   0  0  0  0  0  0  0  0  0  0  0  0
  128.2650  128.9780   72.8970 O   0  0  0  0  0  0  0  0  0  0  0  0
  128.8930  126.5750   73.4490 O   0  0  0  0  0  0  0  0  0  0  0  0
  130.0560  127.6970   71.2400 C   0  0  0  0  0  0  0  0  0  0  0  0
  127.8840  129.2310   65.1620 N   0  0  0  0  0  0  0  0  0  0  0  0
  127.3990  129.3190   63.9130 N   0  0  0  0  0  0  0  0  0  0  0  0
  127.7350  126.4030   60.7410 N   0  0  0  0  0  0  0  0  0  0  0  0
  127.4670  125.4660   59.8160 C   0  0  0  0  0  0  0  0  0  0  0  0
  130.3730  124.7250   60.4850 C   0  0  0  0  0  0  0  0  0  0  0  0
  131.4820  124.2880   61.4620 C   0  0  0  0  0  0  0  0  0  0  0  0
  131.6303  123.7995   64.9000 H   0  0  0  0  0  0  0  0  0  0  0  0
  132.3554  122.6489   63.7266 H   0  0  0  0  0  0  0  0  0  0  0  0
  132.8641  124.3716   63.7266 H   0  0  0  0  0  0  0  0  0  0  0  0
  130.4003  124.9172   63.2408 H   0  0  0  0  0  0  0  0  0  0  0  0
  130.3872  121.9701   62.3546 H   0  0  0  0  0  0  0  0  0  0  0  0
  129.4764  122.6567   63.7579 H   0  0  0  0  0  0  0  0  0  0  0  0
  128.0534  122.3706   61.7081 H   0  0  0  0  0  0  0  0  0  0  0  0
  128.1772  124.0876   62.2746 H   0  0  0  0  0  0  0  0  0  0  0  0
  129.6323  122.7799   59.9363 H   0  0  0  0  0  0  0  0  0  0  0  0
  128.5043  121.6890   58.3329 H   0  0  0  0  0  0  0  0  0  0  0  0
  125.3885  122.4046   55.5662 H   0  0  0  0  0  0  0  0  0  0  0  0
  124.8845  124.6315   56.5473 H   0  0  0  0  0  0  0  0  0  0  0  0
  124.9099  126.9323   58.1165 H   0  0  0  0  0  0  0  0  0  0  0  0
  127.0440  129.4200   61.3610 H   0  0  0  0  0  0  0  0  0  0  0  0
  128.8597  126.5869   62.5298 H   0  0  0  0  0  0  0  0  0  0  0  0
  129.7466  126.4095   64.8741 H   0  0  0  0  0  0  0  0  0  0  0  0
  128.2986  129.9832   67.5362 H   0  0  0  0  0  0  0  0  0  0  0  0
  127.4626  128.4215   68.0419 H   0  0  0  0  0  0  0  0  0  0  0  0
  130.0129  129.5944   69.2136 H   0  0  0  0  0  0  0  0  0  0  0  0
  128.3743  129.4709   69.9887 H   0  0  0  0  0  0  0  0  0  0  0  0
  131.2857  127.8419   68.7420 H   0  0  0  0  0  0  0  0  0  0  0  0
  130.8286  126.1299   69.1163 H   0  0  0  0  0  0  0  0  0  0  0  0
  130.6282  126.6867   66.6899 H   0  0  0  0  0  0  0  0  0  0  0  0
  129.0425  126.2057   67.4941 H   0  0  0  0  0  0  0  0  0  0  0  0
  127.5707  126.7389   69.0700 H   0  0  0  0  0  0  0  0  0  0  0  0
  128.5581  125.6217   70.0844 H   0  0  0  0  0  0  0  0  0  0  0  0
  126.6568  127.8363   70.9598 H   0  0  0  0  0  0  0  0  0  0  0  0
  126.7719  126.1896   71.5778 H   0  0  0  0  0  0  0  0  0  0  0  0
  130.6054  128.6433   71.3523 H   0  0  0  0  0  0  0  0  0  0  0  0
  130.7691  126.8775   71.4133 H   0  0  0  0  0  0  0  0  0  0  0  0
  130.8068  124.8411   59.4809 H   0  0  0  0  0  0  0  0  0  0  0  0
  129.9534  125.6767   60.8431 H   0  0  0  0  0  0  0  0  0  0  0  0
  131.9552  123.3705   61.0822 H   0  0  0  0  0  0  0  0  0  0  0  0
  132.2214  125.0988   61.5390 H   0  0  0  0  0  0  0  0  0  0  0  0
  1  2  1  0
  2  3  1  0
  3  4  1  0
  4  5  1  0
  5  6  1  0
  6  7  1  0
  7  8  2  0
  8  9  1  0
  9 10  2  0
 10 11  1  0
 11 12  2  0
 12 13  1  0
 13 14  2  0
 14 15  1  0
 15 16  2  0
 16 17  1  0
 17 18  1  0
 18 19  2  0
 19 20  1  0
 20 21  2  0
 21 22  1  0
 22 23  1  0
 23 24  1  0
 24 25  1  0
 25 26  1  0
 26 27  1  0
 25 28  1  0
 28 29  1  0
 29 30  1  0
 30 31  2  0
 30 32  2  0
 30 33  1  0
 21 34  1  0
 34 35  2  0
 16 36  1  0
 36 37  2  0
  5 38  1  0
 38 39  1  0
 39  2  1  0
 37  6  1  0
 12  7  1  0
 37 13  1  0
 35 18  1  0
 27 22  1  0
 33 25  1  0
  1 40  1  0
  1 41  1  0
  1 42  1  0
  2 43  1  6
  3 44  1  0
  3 45  1  0
  4 46  1  0
  4 47  1  0
  5 48  1  1
  8 49  1  0
 10 50  1  0
 11 51  1  0
 14 52  1  0
 17 53  1  0
 19 54  1  0
 20 55  1  0
 23 56  1  0
 23 57  1  0
 24 58  1  0
 24 59  1  0
 26 60  1  0
 26 61  1  0
 27 62  1  0
 27 63  1  0
 28 64  1  0
 28 65  1  0
 29 66  1  0
 29 67  1  0
 33 68  1  0
 33 69  1  0
 38 70  1  0
 38 71  1  0
 39 72  1  0
 39 73  1  0
M  END
>  <Binding energies>  (1) 
[-8.65]

>  <Ligand effiencies>  (1) 
[-0.21625]

>  <Interactions>  (1) 
["V-B:TYR:539:CA:9841, V-B:PRO:540:CA:9855, V-A:GLU:543:CA:4904, V-B:HIS:456:CD2:9039, V-B:GLU:543:C:9874, V-A:GLU:543:C:4902, V-B:GLU:543:CB:9878, H-B:LYS:547:NZ:9923, V-B:ASP:366:CG:8184, V-B:TYR:539:CE2:9848, H-B:TYR:539:N:9842, V-B:GLU:543:CG:9879, V-B:TYR:539:C:9839, V-B:TYR:539:CZ:9849, V-B:ASP:366:CB:8183, V-A:GLU:543:CD:4908, H-B:TYR:484:OH:9319, V-B:HIS:456:CE1:9041, V-B:PRO:540:N:9856, V-A:HIS:456:CE1:4070, V-B:GLY:544:C:9884, V-B:PRO:540:CD:9859, V-B:TYR:539:CD2:9846, V-A:GLU:543:CG:4907, V-B:GLY:544:CA:9886, V-B:GLU:543:CD:9880, V-B:TYR:539:CG:9844, V-A:GLU:543:CB:4906, V-B:TYR:539:CD1:9845, V-B:MET:535:CE:9807"]

$$$$
ZINC169311065
     RDKit          3D

 84 88  0  0  0  0  0  0  0  0999 V2000
  127.4510  129.1780   74.2240 C   0  0  0  0  0  0  0  0  0  0  0  0
  127.7040  128.4370   72.8980 C   0  0  0  0  0  0  0  0  0  0  0  0
  128.7500  129.1080   71.9530 C   0  0  1  0  0  0  0  0  0  0  0  0
  129.8930  129.7200   72.8010 C   0  0  0  0  0  0  0  0  0  0  0  0
  129.2000  128.1570   70.7550 C   0  0  2  0  0  0  0  0  0  0  0  0
  128.5780  128.6630   69.5500 O   0  0  0  0  0  0  0  0  0  0  0  0
  128.7250  127.8750   68.4240 C   0  0  0  0  0  0  0  0  0  0  0  0
  128.5740  128.4800   67.1780 C   0  0  0  0  0  0  0  0  0  0  0  0
  128.6940  127.7220   66.0050 C   0  0  0  0  0  0  0  0  0  0  0  0
  128.5090  128.3610   64.6690 C   0  0  0  0  0  0  0  0  0  0  0  0
  128.0900  129.6980   64.5610 C   0  0  0  0  0  0  0  0  0  0  0  0
  127.8640  130.4420   65.6980 O   0  0  0  0  0  0  0  0  0  0  0  0
  127.9070  130.2880   63.3050 C   0  0  0  0  0  0  0  0  0  0  0  0
  127.4700  131.5920   63.2320 O   0  0  0  0  0  0  0  0  0  0  0  0
  128.1500  129.5630   62.1270 C   0  0  0  0  0  0  0  0  0  0  0  0
  127.9540  130.1900   60.7850 C   0  0  0  0  0  0  0  0  0  0  0  0
  128.7600  131.2580   60.3760 C   0  0  0  0  0  0  0  0  0  0  0  0
  128.5860  131.8350   59.1210 C   0  0  0  0  0  0  0  0  0  0  0  0
  127.6010  131.3450   58.2670 C   0  0  0  0  0  0  0  0  0  0  0  0
  127.4270  131.9120   57.0320 O   0  0  0  0  0  0  0  0  0  0  0  0
  126.7900  130.2820   58.6610 C   0  0  0  0  0  0  0  0  0  0  0  0
  126.9680  129.7080   59.9170 C   0  0  0  0  0  0  0  0  0  0  0  0
  128.5870  128.2280   62.2320 C   0  0  0  0  0  0  0  0  0  0  0  0
  128.8360  127.4860   61.0930 O   0  0  0  0  0  0  0  0  0  0  0  0
  129.9450  127.7520   60.3510 C   0  0  0  0  0  0  0  0  0  0  0  0
  130.9770  128.5510   61.1360 C   0  0  0  0  0  0  0  0  0  0  0  0
  130.1520  127.4140   59.1830 O   0  0  0  0  0  0  0  0  0  0  0  0
  128.7400  127.6260   63.4920 C   0  0  0  0  0  0  0  0  0  0  0  0
  129.1440  126.3060   63.5630 O   0  0  0  0  0  0  0  0  0  0  0  0
  130.4340  125.9860   63.2690 C   0  0  0  0  0  0  0  0  0  0  0  0
  130.5390  124.7590   62.3720 C   0  0  0  0  0  0  0  0  0  0  0  0
  131.4460  126.5810   63.6470 O   0  0  0  0  0  0  0  0  0  0  0  0
  128.9710  126.3500   66.1090 C   0  0  0  0  0  0  0  0  0  0  0  0
  129.1160  125.7390   67.3550 C   0  0  0  0  0  0  0  0  0  0  0  0
  128.9810  126.5020   68.5130 C   0  0  0  0  0  0  0  0  0  0  0  0
  129.1350  125.8760   69.7320 O   0  0  0  0  0  0  0  0  0  0  0  0
  128.7500  126.6560   70.9060 N   0  0  2  0  0  0  0  0  0  0  0  0
  127.3930  126.5790   70.9570 O   0  0  0  0  0  0  0  0  0  0  0  0
  129.3370  126.0190   72.1920 C   0  0  0  0  0  0  0  0  0  0  0  0
  128.7190  125.2090   72.8870 O   0  0  0  0  0  0  0  0  0  0  0  0
  130.7910  126.4600   72.5090 C   0  0  2  0  0  0  0  0  0  0  0  0
  130.8990  126.9350   74.0130 C   0  0  1  0  0  0  0  0  0  0  0  0
  129.5110  126.9420   74.6950 C   0  0  0  0  0  0  0  0  0  0  0  0
  131.9480  126.1710   74.8710 C   0  0  0  0  0  0  0  0  0  0  0  0
  133.4090  126.5690   74.6130 C   0  0  0  0  0  0  0  0  0  0  0  0
  131.4120  127.3080   71.4540 N   0  0  0  0  0  0  0  0  0  0  0  0
  132.7460  127.3310   71.3570 O   0  0  0  0  0  0  0  0  0  0  0  0
  130.7710  128.2020   70.6350 C   0  0  0  0  0  0  0  0  0  0  0  0
  131.3260  128.9770   69.8430 O   0  0  0  0  0  0  0  0  0  0  0  0
  127.6793  128.5093   75.0671 H   0  0  0  0  0  0  0  0  0  0  0  0
  128.0965  130.0672   74.2761 H   0  0  0  0  0  0  0  0  0  0  0  0
  126.3965  129.4868   74.2761 H   0  0  0  0  0  0  0  0  0  0  0  0
  128.0607  127.4241   73.1364 H   0  0  0  0  0  0  0  0  0  0  0  0
  126.7481  128.4483   72.3538 H   0  0  0  0  0  0  0  0  0  0  0  0
  128.2838  129.9488   71.4185 H   0  0  0  0  0  0  0  0  0  0  0  0
  129.6631  129.5969   73.8696 H   0  0  0  0  0  0  0  0  0  0  0  0
  130.8377  129.2070   72.5677 H   0  0  0  0  0  0  0  0  0  0  0  0
  129.9898  130.7906   72.5677 H   0  0  0  0  0  0  0  0  0  0  0  0
  128.3597  129.5571   67.1145 H   0  0  0  0  0  0  0  0  0  0  0  0
  127.0520  130.2010   66.1500 H   0  0  0  0  0  0  0  0  0  0  0  0
  127.3690  131.9990   64.0960 H   0  0  0  0  0  0  0  0  0  0  0  0
  129.5373  131.6448   61.0514 H   0  0  0  0  0  0  0  0  0  0  0  0
  129.2235  132.6740   58.8054 H   0  0  0  0  0  0  0  0  0  0  0  0
  126.5650  131.7270   56.6530 H   0  0  0  0  0  0  0  0  0  0  0  0
  126.0133  129.8985   57.9831 H   0  0  0  0  0  0  0  0  0  0  0  0
  126.3286  128.8692   60.2293 H   0  0  0  0  0  0  0  0  0  0  0  0
  130.8028  128.4161   62.2137 H   0  0  0  0  0  0  0  0  0  0  0  0
  131.9866  128.1968   60.8806 H   0  0  0  0  0  0  0  0  0  0  0  0
  130.8869  129.6171   60.8806 H   0  0  0  0  0  0  0  0  0  0  0  0
  130.6163  123.8553   62.9944 H   0  0  0  0  0  0  0  0  0  0  0  0
  129.6434  124.6913   61.7370 H   0  0  0  0  0  0  0  0  0  0  0  0
  131.4331  124.8445   61.7370 H   0  0  0  0  0  0  0  0  0  0  0  0
  129.0753  125.7475   65.1946 H   0  0  0  0  0  0  0  0  0  0  0  0
  129.3352  124.6632   67.4226 H   0  0  0  0  0  0  0  0  0  0  0  0
  131.4616  125.5899   72.4515 H   0  0  0  0  0  0  0  0  0  0  0  0
  131.2806  127.9653   73.9591 H   0  0  0  0  0  0  0  0  0  0  0  0
  129.6393  126.9414   75.7875 H   0  0  0  0  0  0  0  0  0  0  0  0
  128.9578  127.8429   74.3913 H   0  0  0  0  0  0  0  0  0  0  0  0
  128.9487  126.0467   74.3913 H   0  0  0  0  0  0  0  0  0  0  0  0
  131.7247  126.3598   75.9314 H   0  0  0  0  0  0  0  0  0  0  0  0
  131.8631  125.1110   74.5898 H   0  0  0  0  0  0  0  0  0  0  0  0
  133.9258  126.7098   75.5738 H   0  0  0  0  0  0  0  0  0  0  0  0
  133.9098  125.7745   74.0402 H   0  0  0  0  0  0  0  0  0  0  0  0
  133.4377  127.5077   74.0402 H   0  0  0  0  0  0  0  0  0  0  0  0
  1  2  1  0
  2  3  1  0
  3  4  1  0
  3  5  1  0
  5  6  1  6
  6  7  1  0
  7  8  2  0
  8  9  1  0
  9 10  1  0
 10 11  2  0
 11 12  1  0
 11 13  1  0
 13 14  1  0
 13 15  2  0
 15 16  1  0
 16 17  2  0
 17 18  1  0
 18 19  2  0
 19 20  1  0
 19 21  1  0
 21 22  2  0
 15 23  1  0
 23 24  1  0
 24 25  1  0
 25 26  1  0
 25 27  2  0
 23 28  2  0
 28 29  1  0
 29 30  1  0
 30 31  1  0
 30 32  2  0
  9 33  2  0
 33 34  1  0
 34 35  2  0
 35 36  1  0
 36 37  1  0
 37 38  1  1
 37 39  1  0
 39 40  2  0
 39 41  1  0
 41 42  1  0
 42 43  1  0
 42 44  1  0
 44 45  1  0
 41 46  1  0
 46 47  1  0
 46 48  1  0
 48 49  2  0
 37  5  1  0
 48  5  1  0
 35  7  1  0
 28 10  1  0
 22 16  1  0
  1 50  1  0
  1 51  1  0
  1 52  1  0
  2 53  1  0
  2 54  1  0
  3 55  1  6
  4 56  1  0
  4 57  1  0
  4 58  1  0
  8 59  1  0
 12 60  1  0
 14 61  1  0
 17 62  1  0
 18 63  1  0
 20 64  1  0
 21 65  1  0
 22 66  1  0
 26 67  1  0
 26 68  1  0
 26 69  1  0
 31 70  1  0
 31 71  1  0
 31 72  1  0
 33 73  1  0
 34 74  1  0
 41 75  1  1
 42 76  1  6
 43 77  1  0
 43 78  1  0
 43 79  1  0
 44 80  1  0
 44 81  1  0
 45 82  1  0
 45 83  1  0
 45 84  1  0
M  CHG  3  37   1  38  -1  47  -1
M  END
>  <Binding energies>  (1) 
[0.34]

>  <Ligand effiencies>  (1) 
[0.006538461538461539]

>  <Interactions>  (1) 
["V-A:ARG:545:CA:4919, V-B:GLU:543:C:9874, V-B:HIS:456:CD2:9039, V-A:GLU:543:C:4902, V-B:GLU:543:CB:9878, H-B:LYS:547:NZ:9923, V-B:HIS:456:CB:9036, V-A:GLY:544:CA:4914, V-B:GLU:543:CG:9879, V-A:GLY:544:C:4912, V-A:HIS:456:CD2:4068, H-A:ARG:545:N:4920, V-A:ASP:366:CG:3213, V-A:LYS:547:CG:4948, V-A:HIS:456:CB:4065, V-A:GLU:543:CD:4908, H-B:TYR:484:OH:9319, V-B:HIS:456:CE1:9041, V-B:GLU:543:CA:9876, V-A:HIS:456:CE1:4070, V-A:GLU:543:CG:4907, V-B:GLU:543:CD:9880, V-B:HIS:456:CG:9037, H-A:ARG:545:NH2:4928, V-A:GLU:543:CB:4906, V-A:HIS:456:CG:4066, V-A:LYS:547:CE:4950, H-A:TYR:539:OH:4878, H-A:GLY:544:N:4915, V-A:TYR:539:CE1:4875, H-A:HIS:456:ND1:4067"]

$$$$
ZINC169316204
     RDKit          3D

 38 40  0  0  0  0  0  0  0  0999 V2000
  130.2790  127.4520   57.3930 O   0  0  0  0  0  0  0  0  0  0  0  0
  129.0680  127.5640   57.1750 C   0  0  0  0  0  0  0  0  0  0  0  0
  128.4040  128.7460   57.0690 N   0  0  0  0  0  0  0  0  0  0  0  0
  128.8550  130.0310   57.1640 C   0  0  0  0  0  0  0  0  0  0  0  0
  130.0930  130.2900   57.3930 N   0  0  0  0  0  0  0  0  0  0  0  0
  130.6230  131.6520   57.4900 C   0  0  1  0  0  0  0  0  0  0  0  0
  130.5330  132.1940   58.9500 C   0  0  0  0  0  0  0  0  0  0  0  0
  131.4500  131.4360   59.9300 C   0  0  0  0  0  0  0  0  0  0  0  0
  132.8850  131.3840   59.3910 C   0  0  0  0  0  0  0  0  0  0  0  0
  132.9060  130.8630   57.9440 C   0  0  0  0  0  0  0  0  0  0  0  0
  132.0150  131.6310   57.1240 O   0  0  0  0  0  0  0  0  0  0  0  0
  129.9760  132.6060   56.4530 C   0  0  0  0  0  0  0  0  0  0  0  0
  128.4660  132.7960   56.6430 C   0  0  0  0  0  0  0  0  0  0  0  0
  127.5440  131.2590   56.9540 S   0  0  0  0  0  0  0  0  0  0  0  0
  128.2120  126.3220   57.0420 C   0  0  0  0  0  0  0  0  0  0  0  0
  128.7790  125.1390   56.5430 C   0  0  0  0  0  0  0  0  0  0  0  0
  128.0100  123.9860   56.4120 C   0  0  0  0  0  0  0  0  0  0  0  0
  126.6660  124.0060   56.7760 C   0  0  0  0  0  0  0  0  0  0  0  0
  125.6170  122.4280   56.6010 Br  0  0  0  0  0  0  0  0  0  0  0  0
  126.0850  125.1730   57.2660 C   0  0  0  0  0  0  0  0  0  0  0  0
  126.8530  126.3260   57.3970 C   0  0  0  0  0  0  0  0  0  0  0  0
  127.4140  128.6540   56.8980 H   0  0  0  0  0  0  0  0  0  0  0  0
  130.8221  133.2553   58.9486 H   0  0  0  0  0  0  0  0  0  0  0  0
  129.4969  132.0518   59.2911 H   0  0  0  0  0  0  0  0  0  0  0  0
  131.4466  131.9517   60.9016 H   0  0  0  0  0  0  0  0  0  0  0  0
  131.0756  130.4081   60.0453 H   0  0  0  0  0  0  0  0  0  0  0  0
  133.3168  132.3954   59.4165 H   0  0  0  0  0  0  0  0  0  0  0  0
  133.4737  130.7006   60.0206 H   0  0  0  0  0  0  0  0  0  0  0  0
  133.9275  130.9442   57.5442 H   0  0  0  0  0  0  0  0  0  0  0  0
  132.5806  129.8122   57.9380 H   0  0  0  0  0  0  0  0  0  0  0  0
  130.4622  133.5892   56.5359 H   0  0  0  0  0  0  0  0  0  0  0  0
  130.1188  132.1472   55.4635 H   0  0  0  0  0  0  0  0  0  0  0  0
  128.3097  133.4693   57.4987 H   0  0  0  0  0  0  0  0  0  0  0  0
  128.0813  133.2050   55.6971 H   0  0  0  0  0  0  0  0  0  0  0  0
  129.8400  125.1228   56.2530 H   0  0  0  0  0  0  0  0  0  0  0  0
  128.4625  123.0622   56.0223 H   0  0  0  0  0  0  0  0  0  0  0  0
  125.0220  125.1833   57.5487 H   0  0  0  0  0  0  0  0  0  0  0  0
  126.3922  127.2478   57.7816 H   0  0  0  0  0  0  0  0  0  0  0  0
  1  2  2  0
  2  3  1  0
  3  4  1  0
  4  5  2  0
  5  6  1  0
  6  7  1  0
  7  8  1  0
  8  9  1  0
  9 10  1  0
 10 11  1  0
  6 12  1  0
 12 13  1  0
 13 14  1  0
  2 15  1  0
 15 16  2  0
 16 17  1  0
 17 18  2  0
 18 19  1  0
 18 20  1  0
 20 21  2  0
 14  4  1  0
 21 15  1  0
  6 11  1  6
  3 22  1  0
  7 23  1  0
  7 24  1  0
  8 25  1  0
  8 26  1  0
  9 27  1  0
  9 28  1  0
 10 29  1  0
 10 30  1  0
 12 31  1  0
 12 32  1  0
 13 33  1  0
 13 34  1  0
 16 35  1  0
 17 36  1  0
 20 37  1  0
 21 38  1  0
M  END
>  <Binding energies>  (1) 
[-6.88]

>  <Ligand effiencies>  (1) 
[-0.31272727272727274]

>  <Interactions>  (1) 
["V-B:PRO:540:CA:9855, V-B:TYR:539:CE1:9847, H-A:TYR:531:OH:4795, V-B:TYR:539:CE2:9848, V-A:TYR:539:CE2:4876, V-A:ASP:366:CG:3213, V-A:LEU:363:CD1:3189, V-A:TYR:539:CD1:4873, V-B:TYR:539:CZ:9849, V-A:ILE:538:CA:4860, V-A:TYR:539:CZ:4877, V-A:TYR:531:CE2:4793, V-B:ILE:538:CG2:9835, V-B:TYR:531:CZ:9766, V-B:TYR:531:CE2:9765, V-B:PRO:540:CB:9857, V-B:PRO:540:N:9856, V-B:PRO:540:CD:9859, V-A:MET:535:CE:4835, H-B:TYR:531:OH:9767, V-A:ASP:366:CB:3212, V-A:PRO:540:N:4884, V-A:TYR:539:CG:4872, V-B:PRO:540:CG:9858, V-A:PRO:540:CB:4885, V-A:PRO:540:CA:4883, V-A:LEU:363:CA:3185, V-B:LEU:363:CD1:8160, V-B:MET:535:CE:9807, V-A:TYR:539:CE1:4875"]

$$$$
ZINC169324630-again1
     RDKit          3D

113116  0  0  0  0  0  0  0  0999 V2000
  125.7080  127.2300   58.6830 C   0  0  0  0  0  0  0  0  0  0  0  0
  126.5300  126.1730   58.1990 O   0  0  0  0  0  0  0  0  0  0  0  0
  127.9360  126.4240   58.2370 C   0  0  2  0  0  0  0  0  0  0  0  0
  128.4080  127.4130   57.1750 C   0  0  0  0  0  0  0  0  0  0  0  0
  128.4650  128.7550   57.2610 C   0  0  0  0  0  0  0  0  0  0  0  0
  128.1360  129.4890   58.3610 O   0  0  0  0  0  0  0  0  0  0  0  0
  129.1420  129.7860   59.3070 C   0  0  1  0  0  0  0  0  0  0  0  0
  130.3660  130.1890   58.4920 C   0  0  0  0  0  0  0  0  0  0  0  0
  128.8030  130.8560   60.1150 O   0  0  0  0  0  0  0  0  0  0  0  0
  128.6600  130.4210   61.4060 C   0  0  0  0  0  0  0  0  0  0  0  0
  128.1770  131.2460   62.4080 C   0  0  0  0  0  0  0  0  0  0  0  0
  127.8210  132.7040   62.0610 C   0  0  0  0  0  0  0  0  0  0  0  0
  128.0080  130.7020   63.7020 C   0  0  0  0  0  0  0  0  0  0  0  0
  127.5410  131.4770   64.6100 O   0  0  0  0  0  0  0  0  0  0  0  0
  128.3750  129.3110   63.9820 C   0  0  0  0  0  0  0  0  0  0  0  0
  128.1710  128.6430   65.2610 C   0  0  0  0  0  0  0  0  0  0  0  0
  127.5170  129.2490   66.3120 O   0  0  0  0  0  0  0  0  0  0  0  0
  128.6080  127.3300   65.4670 C   0  0  0  0  0  0  0  0  0  0  0  0
  129.3070  126.6730   64.4730 C   0  0  0  0  0  0  0  0  0  0  0  0
  129.4600  127.2110   63.2040 C   0  0  0  0  0  0  0  0  0  0  0  0
  130.1420  126.4640   62.2680 O   0  0  0  0  0  0  0  0  0  0  0  0
  129.4520  125.3420   61.6990 C   0  0  0  0  0  0  0  0  0  0  0  0
  127.9300  125.5930   61.6060 C   0  0  0  0  0  0  0  0  0  0  0  0
  127.5090  126.7490   61.6870 O   0  0  0  0  0  0  0  0  0  0  0  0
  127.1020  124.5290   61.4260 N   0  0  0  0  0  0  0  0  0  0  0  0
  125.8240  124.6570   60.7200 C   0  0  0  0  0  0  0  0  0  0  0  0
  127.3140  123.2090   62.0340 C   0  0  0  0  0  0  0  0  0  0  0  0
  128.1070  123.2870   63.3490 C   0  0  0  0  0  0  0  0  0  0  0  0
  129.1020  122.2110   63.4770 C   0  0  0  0  0  0  0  0  0  0  0  0
  129.8850  121.3660   63.5790 N   0  0  0  0  0  0  0  0  0  0  0  0
  128.9680  128.5300   62.9170 C   0  0  0  0  0  0  0  0  0  0  0  0
  129.0300  129.1030   61.6030 C   0  0  0  0  0  0  0  0  0  0  0  0
  129.4010  128.5670   60.2680 C   0  0  0  0  0  0  0  0  0  0  0  0
  129.7890  127.4850   59.8320 O   0  0  0  0  0  0  0  0  0  0  0  0
  128.3600  126.6980   66.7060 N   0  0  0  0  0  0  0  0  0  0  0  0
  129.2240  126.1360   67.5900 C   0  0  0  0  0  0  0  0  0  0  0  0
  128.7790  125.6540   68.6300 O   0  0  0  0  0  0  0  0  0  0  0  0
  130.6630  126.1280   67.3410 C   0  0  0  0  0  0  0  0  0  0  0  0
  131.4330  127.0370   68.2930 C   0  0  0  0  0  0  0  0  0  0  0  0
  131.2830  125.4370   66.3510 C   0  0  0  0  0  0  0  0  0  0  0  0
  130.6800  124.5500   65.3590 C   0  0  0  0  0  0  0  0  0  0  0  0
  131.2260  124.1890   64.1790 C   0  0  0  0  0  0  0  0  0  0  0  0
  132.6090  124.5410   63.6180 C   0  0  1  0  0  0  0  0  0  0  0  0
  133.5040  124.9460   64.8130 C   0  0  0  0  0  0  0  0  0  0  0  0
  133.2780  123.4310   62.7250 C   0  0  1  0  0  0  0  0  0  0  0  0
  133.3870  122.2240   63.4660 O   0  0  0  0  0  0  0  0  0  0  0  0
  132.5460  123.0850   61.3700 C   0  0  1  0  0  0  0  0  0  0  0  0
  131.7910  121.7320   61.3840 C   0  0  0  0  0  0  0  0  0  0  0  0
  131.5680  124.1920   60.8290 C   0  0  1  0  0  0  0  0  0  0  0  0
  132.2950  125.3980   60.6680 O   0  0  0  0  0  0  0  0  0  0  0  0
  130.7210  123.8830   59.5470 C   0  0  1  0  0  0  0  0  0  0  0  0
  129.5590  122.9170   59.8530 C   0  0  0  0  0  0  0  0  0  0  0  0
  130.1730  125.1420   58.7770 C   0  0  1  0  0  0  0  0  0  0  0  0
  131.0700  125.4630   57.7030 O   0  0  0  0  0  0  0  0  0  0  0  0
  132.1330  126.2850   57.8610 C   0  0  0  0  0  0  0  0  0  0  0  0
  133.2230  126.0160   56.8330 C   0  0  0  0  0  0  0  0  0  0  0  0
  132.2590  127.1670   58.7110 O   0  0  0  0  0  0  0  0  0  0  0  0
  128.6950  125.0630   58.2460 C   0  0  2  0  0  0  0  0  0  0  0  0
  128.6130  124.4420   56.8270 C   0  0  0  0  0  0  0  0  0  0  0  0
  125.7127  127.2239   59.7830 H   0  0  0  0  0  0  0  0  0  0  0  0
  126.0971  128.1927   58.3200 H   0  0  0  0  0  0  0  0  0  0  0  0
  124.6791  127.0900   58.3200 H   0  0  0  0  0  0  0  0  0  0  0  0
  128.1811  126.9475   59.1729 H   0  0  0  0  0  0  0  0  0  0  0  0
  128.7426  126.9757   56.2227 H   0  0  0  0  0  0  0  0  0  0  0  0
  128.8049  129.3042   56.3706 H   0  0  0  0  0  0  0  0  0  0  0  0
  131.1869  130.4593   59.1725 H   0  0  0  0  0  0  0  0  0  0  0  0
  130.6780  129.3461   57.8578 H   0  0  0  0  0  0  0  0  0  0  0  0
  130.1162  131.0523   57.8578 H   0  0  0  0  0  0  0  0  0  0  0  0
  127.6808  133.2780   62.9888 H   0  0  0  0  0  0  0  0  0  0  0  0
  128.6365  133.1506   61.4732 H   0  0  0  0  0  0  0  0  0  0  0  0
  126.8915  132.7245   61.4732 H   0  0  0  0  0  0  0  0  0  0  0  0
  127.0110  130.0200   66.0480 H   0  0  0  0  0  0  0  0  0  0  0  0
  129.7558  125.6935   64.6947 H   0  0  0  0  0  0  0  0  0  0  0  0
  129.8450  125.1572   60.6884 H   0  0  0  0  0  0  0  0  0  0  0  0
  129.6164  124.4719   62.3517 H   0  0  0  0  0  0  0  0  0  0  0  0
  125.0072  124.7388   61.4522 H   0  0  0  0  0  0  0  0  0  0  0  0
  125.8423  125.5578   60.0890 H   0  0  0  0  0  0  0  0  0  0  0  0
  125.6633  123.7705   60.0890 H   0  0  0  0  0  0  0  0  0  0  0  0
  126.3339  122.7538   62.2395 H   0  0  0  0  0  0  0  0  0  0  0  0
  127.8999  122.6049   61.3256 H   0  0  0  0  0  0  0  0  0  0  0  0
  128.6283  124.2548   63.3886 H   0  0  0  0  0  0  0  0  0  0  0  0
  127.3902  123.1766   64.1761 H   0  0  0  0  0  0  0  0  0  0  0  0
  127.3820  126.6100   66.9380 H   0  0  0  0  0  0  0  0  0  0  0  0
  131.1997  126.7615   69.3321 H   0  0  0  0  0  0  0  0  0  0  0  0
  132.5127  126.9221   68.1168 H   0  0  0  0  0  0  0  0  0  0  0  0
  131.1421  128.0831   68.1168 H   0  0  0  0  0  0  0  0  0  0  0  0
  132.3743  125.5600   66.2877 H   0  0  0  0  0  0  0  0  0  0  0  0
  129.6881  124.1379   65.5962 H   0  0  0  0  0  0  0  0  0  0  0  0
  130.5957  123.5589   63.5343 H   0  0  0  0  0  0  0  0  0  0  0  0
  132.4831  125.3743   62.9111 H   0  0  0  0  0  0  0  0  0  0  0  0
  132.9862  124.7117   65.7548 H   0  0  0  0  0  0  0  0  0  0  0  0
  134.4514  124.3889   64.7670 H   0  0  0  0  0  0  0  0  0  0  0  0
  133.7108  126.0254   64.7670 H   0  0  0  0  0  0  0  0  0  0  0  0
  134.2498  123.8662   62.4490 H   0  0  0  0  0  0  0  0  0  0  0  0
  134.1190  121.7120   63.1160 H   0  0  0  0  0  0  0  0  0  0  0  0
  133.3987  123.0193   60.6781 H   0  0  0  0  0  0  0  0  0  0  0  0
  131.6169  121.4200   62.4244 H   0  0  0  0  0  0  0  0  0  0  0  0
  130.8258  121.8454   60.8688 H   0  0  0  0  0  0  0  0  0  0  0  0
  132.3944  120.9701   60.8688 H   0  0  0  0  0  0  0  0  0  0  0  0
  130.7873  124.2577   61.6011 H   0  0  0  0  0  0  0  0  0  0  0  0
  131.6700  126.1210   60.5840 H   0  0  0  0  0  0  0  0  0  0  0  0
  131.4436  123.4063   58.8683 H   0  0  0  0  0  0  0  0  0  0  0  0
  129.4409  122.8189   60.9422 H   0  0  0  0  0  0  0  0  0  0  0  0
  128.6293  123.3121   59.4175 H   0  0  0  0  0  0  0  0  0  0  0  0
  129.7777  121.9308   59.4175 H   0  0  0  0  0  0  0  0  0  0  0  0
  130.1311  125.9379   59.5351 H   0  0  0  0  0  0  0  0  0  0  0  0
  134.1655  125.7834   57.3503 H   0  0  0  0  0  0  0  0  0  0  0  0
  132.9304  125.1631   56.2029 H   0  0  0  0  0  0  0  0  0  0  0  0
  133.3608  126.9071   56.2029 H   0  0  0  0  0  0  0  0  0  0  0  0
  128.1947  124.4086   58.9750 H   0  0  0  0  0  0  0  0  0  0  0  0
  128.4694  123.3546   56.9104 H   0  0  0  0  0  0  0  0  0  0  0  0
  127.7653  124.8831   56.2822 H   0  0  0  0  0  0  0  0  0  0  0  0
  129.5461  124.6479   56.2822 H   0  0  0  0  0  0  0  0  0  0  0  0
  1  2  1  0
  2  3  1  0
  3  4  1  0
  4  5  2  0
  5  6  1  0
  6  7  1  0
  7  8  1  6
  7  9  1  0
  9 10  1  0
 10 11  2  0
 11 12  1  0
 11 13  1  0
 13 14  1  0
 13 15  2  0
 15 16  1  0
 16 17  1  0
 16 18  2  0
 18 19  1  0
 19 20  2  0
 20 21  1  0
 21 22  1  0
 22 23  1  0
 23 24  2  0
 23 25  1  0
 25 26  1  0
 25 27  1  0
 27 28  1  0
 28 29  1  0
 29 30  3  0
 20 31  1  0
 31 32  2  0
 32 33  1  0
 33 34  2  0
 18 35  1  0
 35 36  1  0
 36 37  2  0
 36 38  1  0
 38 39  1  0
 38 40  2  0
 40 41  1  0
 41 42  2  0
 42 43  1  0
 43 44  1  0
 43 45  1  0
 45 46  1  0
 45 47  1  0
 47 48  1  0
 47 49  1  0
 49 50  1  0
 49 51  1  0
 51 52  1  0
 51 53  1  0
 53 54  1  0
 54 55  1  0
 55 56  1  0
 55 57  2  0
 53 58  1  0
 58 59  1  0
 58  3  1  0
 33  7  1  0
 32 10  1  0
 31 15  1  0
  1 60  1  0
  1 61  1  0
  1 62  1  0
  3 63  1  1
  4 64  1  0
  5 65  1  0
  8 66  1  0
  8 67  1  0
  8 68  1  0
 12 69  1  0
 12 70  1  0
 12 71  1  0
 17 72  1  0
 19 73  1  0
 22 74  1  0
 22 75  1  0
 26 76  1  0
 26 77  1  0
 26 78  1  0
 27 79  1  0
 27 80  1  0
 28 81  1  0
 28 82  1  0
 35 83  1  0
 39 84  1  0
 39 85  1  0
 39 86  1  0
 40 87  1  0
 41 88  1  0
 42 89  1  0
 43 90  1  6
 44 91  1  0
 44 92  1  0
 44 93  1  0
 45 94  1  6
 46 95  1  0
 47 96  1  6
 48 97  1  0
 48 98  1  0
 48 99  1  0
 49100  1  1
 50101  1  0
 51102  1  6
 52103  1  0
 52104  1  0
 52105  1  0
 53106  1  1
 56107  1  0
 56108  1  0
 56109  1  0
 58110  1  1
 59111  1  0
 59112  1  0
 59113  1  0
M  CHG  1  14  -1
M  END
>  <Binding energies>  (1) 
[-1.3]

>  <Ligand effiencies>  (1) 
[-0.02]

>  <Interactions>  (1) 
["V-A:ASP:366:CA:3210, V-B:PRO:540:CA:9855, V-A:GLY:454:CA:4049, V-B:GLU:543:CB:9878, V-B:ASP:366:CG:8184, V-B:ALA:541:CB:9864, H-A:TYR:531:OH:4795, V-B:TYR:539:CE2:9848, V-A:ASN:370:CB:3245, V-A:TYR:531:CE1:4792, V-A:TYR:484:CE2:4346, V-B:GLU:543:CG:9879, V-A:ASP:366:CG:3213, V-B:TYR:539:CZ:9849, V-A:TYR:531:CE2:4793, H-B:TYR:539:OH:9850, V-A:GLU:543:CD:4908, V-B:ASP:366:CB:8183, V-A:TYR:484:CZ:4347, H-B:TYR:484:OH:9319, V-B:GLU:543:CA:9876, H-A:GLY:454:N:4050, V-A:ARG:545:CG:4922, V-A:HIS:456:CE1:4070, V-A:ASP:366:C:3208, V-B:TYR:539:CD2:9846, V-A:GLU:543:CG:4907, V-A:TYR:531:CZ:4794, V-B:GLU:543:CD:9880, V-A:MET:535:CE:4835, H-B:TYR:531:OH:9767, V-A:ASP:366:CB:3212, V-A:LEU:475:CD2:4259, V-A:ARG:545:CD:4923, V-A:ARG:545:CZ:4926, V-A:GLU:543:CB:4906, H-A:ASP:366:OD1:3214, H-B:GLU:543:OE2:9882, H-A:SER:385:O:3406, H-A:ASP:366:OD2:3215, V-B:ALA:541:CA:9862, V-B:TYR:539:CE1:9847, H-A:TYR:484:OH:4348"]

$$$$
ZINC169326662
     RDKit          3D

 71 71  0  0  0  0  0  0  0  0999 V2000
  129.4810  123.7460   64.2700 C   0  0  0  0  0  0  0  0  0  0  0  0
  130.7370  124.5020   63.7830 C   0  0  0  0  0  0  0  0  0  0  0  0
  131.6940  124.7320   64.9720 C   0  0  0  0  0  0  0  0  0  0  0  0
  130.4150  125.8240   63.0150 C   0  0  1  0  0  0  0  0  0  0  0  0
  129.1890  125.7470   62.0770 C   0  0  0  0  0  0  0  0  0  0  0  0
  129.1730  126.8690   61.1980 O   0  0  0  0  0  0  0  0  0  0  0  0
  130.4370  127.4820   60.9300 C   0  0  1  0  0  0  0  0  0  0  0  0
  130.9420  127.0660   59.5160 C   0  0  0  0  0  0  0  0  0  0  0  0
  132.0430  126.0070   59.5050 C   0  0  0  0  0  0  0  0  0  0  0  0
  132.5300  125.4890   60.7090 C   0  0  0  0  0  0  0  0  0  0  0  0
  133.5040  124.4940   60.6950 C   0  0  0  0  0  0  0  0  0  0  0  0
  133.9900  124.0240   59.4770 C   0  0  0  0  0  0  0  0  0  0  0  0
  133.5160  124.5410   58.2740 C   0  0  0  0  0  0  0  0  0  0  0  0
  132.5430  125.5370   58.2870 C   0  0  0  0  0  0  0  0  0  0  0  0
  130.2570  129.0070   61.0930 C   0  0  0  0  0  0  0  0  0  0  0  0
  131.0770  129.7970   60.6200 O   0  0  0  0  0  0  0  0  0  0  0  0
  129.1720  129.4030   61.7800 N   0  0  0  0  0  0  0  0  0  0  0  0
  128.8100  130.7830   62.1270 C   0  0  1  0  0  0  0  0  0  0  0  0
  128.2400  131.5750   60.9140 C   0  0  0  0  0  0  0  0  0  0  0  0
  129.0940  132.7810   60.4750 C   0  0  0  0  0  0  0  0  0  0  0  0
  129.8830  132.4830   58.7810 S   0  0  0  0  0  0  0  0  0  0  0  0
  129.0750  130.8910   58.1680 C   0  0  0  0  0  0  0  0  0  0  0  0
  129.4830  133.5700   57.8820 O   0  0  0  0  0  0  0  0  0  0  0  0
  131.3070  132.2020   58.9920 O   0  0  0  0  0  0  0  0  0  0  0  0
  127.8150  130.6840   63.3410 C   0  0  0  0  0  0  0  0  0  0  0  0
  126.9920  129.7430   63.2660 O   0  0  0  0  0  0  0  0  0  0  0  0
  127.9520  131.5490   64.2390 O   0  0  0  0  0  0  0  0  0  0  0  0
  130.1490  126.9680   64.0200 N   0  0  0  0  0  0  0  0  0  0  0  0
  128.7600  126.9570   64.6930 C   0  0  0  0  0  0  0  0  0  0  0  0
  128.6200  128.1310   65.7010 C   0  0  1  0  0  0  0  0  0  0  0  0
  127.2600  128.8280   65.5030 N   0  0  0  0  0  0  0  0  0  0  0  0
  128.7160  127.6920   67.1820 C   0  0  0  0  0  0  0  0  0  0  0  0
  129.8490  126.2840   67.3590 S   0  0  0  0  0  0  0  0  0  0  0  0
  129.4630  123.7352   65.3698 H   0  0  0  0  0  0  0  0  0  0  0  0
  128.5796  124.2518   63.8935 H   0  0  0  0  0  0  0  0  0  0  0  0
  129.5060  122.7127   63.8935 H   0  0  0  0  0  0  0  0  0  0  0  0
  131.2380  123.8672   63.0374 H   0  0  0  0  0  0  0  0  0  0  0  0
  131.1446  124.6000   65.9158 H   0  0  0  0  0  0  0  0  0  0  0  0
  132.5196  124.0067   64.9238 H   0  0  0  0  0  0  0  0  0  0  0  0
  132.0998  125.7533   64.9238 H   0  0  0  0  0  0  0  0  0  0  0  0
  131.3019  126.0061   62.3903 H   0  0  0  0  0  0  0  0  0  0  0  0
  129.2417  124.8216   61.4847 H   0  0  0  0  0  0  0  0  0  0  0  0
  128.2712  125.7518   62.6833 H   0  0  0  0  0  0  0  0  0  0  0  0
  131.2124  127.1473   61.6347 H   0  0  0  0  0  0  0  0  0  0  0  0
  130.0847  126.6717   58.9507 H   0  0  0  0  0  0  0  0  0  0  0  0
  131.3830  127.9700   59.0708 H   0  0  0  0  0  0  0  0  0  0  0  0
  132.1438  125.8674   61.6669 H   0  0  0  0  0  0  0  0  0  0  0  0
  133.8874  124.0816   61.6400 H   0  0  0  0  0  0  0  0  0  0  0  0
  134.7569  123.2355   59.4654 H   0  0  0  0  0  0  0  0  0  0  0  0
  133.9084  124.1643   57.3179 H   0  0  0  0  0  0  0  0  0  0  0  0
  132.1683  125.9534   57.3403 H   0  0  0  0  0  0  0  0  0  0  0  0
  128.5600  128.6970   62.1660 H   0  0  0  0  0  0  0  0  0  0  0  0
  129.6975  131.3659   62.4144 H   0  0  0  0  0  0  0  0  0  0  0  0
  128.1580  130.8845   60.0616 H   0  0  0  0  0  0  0  0  0  0  0  0
  127.2698  131.9813   61.2358 H   0  0  0  0  0  0  0  0  0  0  0  0
  128.4529  133.6732   60.4199 H   0  0  0  0  0  0  0  0  0  0  0  0
  129.8976  132.9247   61.2123 H   0  0  0  0  0  0  0  0  0  0  0  0
  128.7656  130.2814   59.0298 H   0  0  0  0  0  0  0  0  0  0  0  0
  128.1934  131.1384   57.5585 H   0  0  0  0  0  0  0  0  0  0  0  0
  129.7952  130.3254   57.5585 H   0  0  0  0  0  0  0  0  0  0  0  0
  130.8470  126.8970   64.7480 H   0  0  0  0  0  0  0  0  0  0  0  0
  130.3020  127.8470   63.5470 H   0  0  0  0  0  0  0  0  0  0  0  0
  127.9845  127.0532   63.9188 H   0  0  0  0  0  0  0  0  0  0  0  0
  128.6433  126.0098   65.2400 H   0  0  0  0  0  0  0  0  0  0  0  0
  129.4621  128.8077   65.4939 H   0  0  0  0  0  0  0  0  0  0  0  0
  126.6620  128.6600   66.2990 H   0  0  0  0  0  0  0  0  0  0  0  0
  126.8030  128.4810   64.6720 H   0  0  0  0  0  0  0  0  0  0  0  0
  127.3940  129.8240   65.4040 H   0  0  0  0  0  0  0  0  0  0  0  0
  129.0880  128.5334   67.7851 H   0  0  0  0  0  0  0  0  0  0  0  0
  127.7167  127.3887   67.5275 H   0  0  0  0  0  0  0  0  0  0  0  0
  130.9800  126.9780   67.1940 H   0  0  0  0  0  0  0  0  0  0  0  0
  1  2  1  0
  2  3  1  0
  2  4  1  0
  4  5  1  0
  5  6  1  0
  6  7  1  0
  7  8  1  0
  8  9  1  0
  9 10  2  0
 10 11  1  0
 11 12  2  0
 12 13  1  0
 13 14  2  0
  7 15  1  0
 15 16  2  0
 15 17  1  0
 17 18  1  0
 18 19  1  0
 19 20  1  0
 20 21  1  0
 21 22  1  0
 21 23  2  0
 21 24  2  0
 18 25  1  0
 25 26  2  0
 25 27  1  0
  4 28  1  0
 28 29  1  0
 29 30  1  0
 30 31  1  0
 30 32  1  0
 32 33  1  0
 14  9  1  0
  1 34  1  0
  1 35  1  0
  1 36  1  0
  2 37  1  0
  3 38  1  0
  3 39  1  0
  3 40  1  0
  4 41  1  6
  5 42  1  0
  5 43  1  0
  7 44  1  1
  8 45  1  0
  8 46  1  0
 10 47  1  0
 11 48  1  0
 12 49  1  0
 13 50  1  0
 14 51  1  0
 17 52  1  0
 18 53  1  1
 19 54  1  0
 19 55  1  0
 20 56  1  0
 20 57  1  0
 22 58  1  0
 22 59  1  0
 22 60  1  0
 28 61  1  0
 28 62  1  0
 29 63  1  0
 29 64  1  0
 30 65  1  6
 31 66  1  0
 31 67  1  0
 31 68  1  0
 32 69  1  0
 32 70  1  0
 33 71  1  0
M  CHG  3  27  -1  28   1  31   1
M  END
>  <Binding energies>  (1) 
[-6.6]

>  <Ligand effiencies>  (1) 
[-0.16499999999999998]

>  <Interactions>  (1) 
["V-A:ILE:369:CG2:3237, V-A:ASP:366:CA:3210, H-A:GLU:543:OE2:4910, V-A:ILE:369:CB:3236, V-B:GLU:543:CB:9878, V-B:TYR:539:CE2:9848, V-B:GLU:543:CG:9879, V-A:ASP:366:CG:3213, V-B:TYR:539:CZ:9849, H-B:GLU:543:OE1:9881, V-A:GLU:543:CD:4908, H-B:TYR:484:OH:9319, V-A:ILE:369:CD1:3239, V-A:ASP:366:C:3208, V-A:GLU:543:CG:4907, V-B:GLU:543:CD:9880, V-A:TYR:539:C:4867, V-A:ASP:366:CB:3212, H-A:GLU:543:OE1:4909, V-A:GLU:543:CB:4906, V-A:PRO:540:N:4884, H-A:TYR:539:N:4870, H-B:GLU:543:OE2:9882, V-A:PRO:540:CA:4883"]

$$$$
ZINC169326662-again1
     RDKit          3D

 70 70  0  0  0  0  0  0  0  0999 V2000
  129.8760  124.7740   66.6430 C   0  0  0  0  0  0  0  0  0  0  0  0
  129.8540  126.1920   66.0300 C   0  0  0  0  0  0  0  0  0  0  0  0
  128.7520  127.0490   66.6840 C   0  0  0  0  0  0  0  0  0  0  0  0
  129.8140  126.2170   64.4700 C   0  0  1  0  0  0  0  0  0  0  0  0
  128.7920  127.2340   63.9160 C   0  0  0  0  0  0  0  0  0  0  0  0
  129.3710  127.8850   62.7850 O   0  0  0  0  0  0  0  0  0  0  0  0
  128.4660  128.3740   61.7900 C   0  0  1  0  0  0  0  0  0  0  0  0
  127.1470  127.5800   61.9330 C   0  0  0  0  0  0  0  0  0  0  0  0
  127.0070  126.4580   60.9090 C   0  0  0  0  0  0  0  0  0  0  0  0
  126.5490  126.7460   59.6200 C   0  0  0  0  0  0  0  0  0  0  0  0
  126.4290  125.7240   58.6820 C   0  0  0  0  0  0  0  0  0  0  0  0
  126.7650  124.4190   59.0350 C   0  0  0  0  0  0  0  0  0  0  0  0
  127.2250  124.1260   60.3170 C   0  0  0  0  0  0  0  0  0  0  0  0
  127.3480  125.1480   61.2540 C   0  0  0  0  0  0  0  0  0  0  0  0
  128.2290  129.8880   61.9640 C   0  0  0  0  0  0  0  0  0  0  0  0
  127.2000  130.4180   61.5400 O   0  0  0  0  0  0  0  0  0  0  0  0
  129.1890  130.5670   62.6180 N   0  0  0  0  0  0  0  0  0  0  0  0
  129.1890  132.0130   62.9010 C   0  0  1  0  0  0  0  0  0  0  0  0
  129.2870  132.8170   61.5780 C   0  0  0  0  0  0  0  0  0  0  0  0
  130.0460  132.1020   60.4430 C   0  0  0  0  0  0  0  0  0  0  0  0
  131.6890  131.4170   61.0740 S   0  0  0  0  0  0  0  0  0  0  0  0
  132.8120  131.4950   59.5640 C   0  0  0  0  0  0  0  0  0  0  0  0
  132.2170  132.3460   62.0790 O   0  0  0  0  0  0  0  0  0  0  0  0
  131.4930  130.0040   61.4210 O   0  0  0  0  0  0  0  0  0  0  0  0
  127.9370  132.4170   63.7700 C   0  0  0  0  0  0  0  0  0  0  0  0
  127.0120  133.0080   63.1640 O   0  0  0  0  0  0  0  0  0  0  0  0
  128.0450  132.1530   64.9890 O   0  0  0  0  0  0  0  0  0  0  0  0
  131.1150  126.5460   63.8820 N   0  0  0  0  0  0  0  0  0  0  0  0
  131.5680  125.5760   62.8880 C   0  0  0  0  0  0  0  0  0  0  0  0
  131.4120  126.1160   61.4450 C   0  0  1  0  0  0  0  0  0  0  0  0
  131.4630  127.6580   61.4540 N   0  0  0  0  0  0  0  0  0  0  0  0
  132.4870  125.5540   60.4840 C   0  0  0  0  0  0  0  0  0  0  0  0
  133.7040  124.5060   61.3400 S   0  0  0  0  0  0  0  0  0  0  0  0
  129.8748  124.8489   67.7404 H   0  0  0  0  0  0  0  0  0  0  0  0
  128.9864  124.2178   66.3125 H   0  0  0  0  0  0  0  0  0  0  0  0
  130.7824  124.2457   66.3125 H   0  0  0  0  0  0  0  0  0  0  0  0
  130.8235  126.6538   66.2684 H   0  0  0  0  0  0  0  0  0  0  0  0
  128.8372  126.9827   67.7787 H   0  0  0  0  0  0  0  0  0  0  0  0
  128.8676  128.0969   66.3700 H   0  0  0  0  0  0  0  0  0  0  0  0
  127.7649  126.6789   66.3700 H   0  0  0  0  0  0  0  0  0  0  0  0
  129.5173  125.1960   64.1879 H   0  0  0  0  0  0  0  0  0  0  0  0
  127.8735  126.7100   63.6130 H   0  0  0  0  0  0  0  0  0  0  0  0
  128.5387  127.9743   64.6892 H   0  0  0  0  0  0  0  0  0  0  0  0
  128.8848  128.2326   60.7827 H   0  0  0  0  0  0  0  0  0  0  0  0
  127.1112  127.1402   62.9406 H   0  0  0  0  0  0  0  0  0  0  0  0
  126.3206  128.2852   61.7603 H   0  0  0  0  0  0  0  0  0  0  0  0
  126.2839  127.7781   59.3472 H   0  0  0  0  0  0  0  0  0  0  0  0
  126.0703  125.9462   57.6662 H   0  0  0  0  0  0  0  0  0  0  0  0
  126.6661  123.6119   58.2942 H   0  0  0  0  0  0  0  0  0  0  0  0
  127.4895  123.0930   60.5872 H   0  0  0  0  0  0  0  0  0  0  0  0
  127.7140  124.9239   62.2668 H   0  0  0  0  0  0  0  0  0  0  0  0
  129.9990  130.0650   62.9510 H   0  0  0  0  0  0  0  0  0  0  0  0
  130.0764  132.2641   63.5005 H   0  0  0  0  0  0  0  0  0  0  0  0
  128.2654  133.0262   61.2280 H   0  0  0  0  0  0  0  0  0  0  0  0
  129.8606  133.7266   61.8097 H   0  0  0  0  0  0  0  0  0  0  0  0
  129.4308  131.2734   60.0622 H   0  0  0  0  0  0  0  0  0  0  0  0
  130.2477  132.8255   59.6393 H   0  0  0  0  0  0  0  0  0  0  0  0
  133.8601  131.5678   59.8899 H   0  0  0  0  0  0  0  0  0  0  0  0
  132.6781  130.5854   58.9601 H   0  0  0  0  0  0  0  0  0  0  0  0
  132.5537  132.3774   58.9601 H   0  0  0  0  0  0  0  0  0  0  0  0
  131.0390  127.4550   63.4470 H   0  0  0  0  0  0  0  0  0  0  0  0
  132.6286  125.3483   63.0703 H   0  0  0  0  0  0  0  0  0  0  0  0
  130.9476  124.6728   62.9841 H   0  0  0  0  0  0  0  0  0  0  0  0
  130.4346  125.7767   61.0714 H   0  0  0  0  0  0  0  0  0  0  0  0
  130.6430  128.0360   61.0030 H   0  0  0  0  0  0  0  0  0  0  0  0
  132.2830  127.9770   60.9550 H   0  0  0  0  0  0  0  0  0  0  0  0
  131.5030  128.0000   62.4030 H   0  0  0  0  0  0  0  0  0  0  0  0
  131.9884  124.9545   59.7081 H   0  0  0  0  0  0  0  0  0  0  0  0
  133.0271  126.4079   60.0490 H   0  0  0  0  0  0  0  0  0  0  0  0
  134.7170  125.3760   61.2700 H   0  0  0  0  0  0  0  0  0  0  0  0
  1  2  1  0
  2  3  1  0
  2  4  1  0
  4  5  1  0
  5  6  1  0
  6  7  1  0
  7  8  1  0
  8  9  1  0
  9 10  2  0
 10 11  1  0
 11 12  2  0
 12 13  1  0
 13 14  2  0
  7 15  1  0
 15 16  2  0
 15 17  1  0
 17 18  1  0
 18 19  1  0
 19 20  1  0
 20 21  1  0
 21 22  1  0
 21 23  2  0
 21 24  2  0
 18 25  1  0
 25 26  2  0
 25 27  1  0
  4 28  1  0
 28 29  1  0
 29 30  1  0
 30 31  1  0
 30 32  1  0
 32 33  1  0
 14  9  1  0
  1 34  1  0
  1 35  1  0
  1 36  1  0
  2 37  1  0
  3 38  1  0
  3 39  1  0
  3 40  1  0
  4 41  1  6
  5 42  1  0
  5 43  1  0
  7 44  1  6
  8 45  1  0
  8 46  1  0
 10 47  1  0
 11 48  1  0
 12 49  1  0
 13 50  1  0
 14 51  1  0
 17 52  1  0
 18 53  1  1
 19 54  1  0
 19 55  1  0
 20 56  1  0
 20 57  1  0
 22 58  1  0
 22 59  1  0
 22 60  1  0
 28 61  1  0
 29 62  1  0
 29 63  1  0
 30 64  1  6
 31 65  1  0
 31 66  1  0
 31 67  1  0
 32 68  1  0
 32 69  1  0
 33 70  1  0
M  CHG  2  27  -1  31   1
M  END
>  <Binding energies>  (1) 
[-6.33]

>  <Ligand effiencies>  (1) 
[-0.16230769230769232]

>  <Interactions>  (1) 
["H-A:GLU:543:OE2:4910, H-A:ALA:541:N:4891, V-B:GLU:543:CB:9878, V-A:PRO:540:C:4881, V-B:ASP:366:CG:8184, V-A:TYR:484:CE2:4346, V-B:GLU:543:CG:9879, V-B:LEU:475:CD2:9230, V-A:ASP:366:CG:3213, V-A:ALA:541:CB:4892, V-A:GLU:543:CD:4908, V-A:TYR:484:CZ:4347, H-B:TYR:484:OH:9319, V-B:GLU:543:CA:9876, V-A:HIS:456:CE1:4070, V-B:GLU:543:CD:9880, V-A:ASP:366:CB:3212, H-A:ARG:545:NH2:4928, H-A:GLU:543:OE1:4909, H-A:ASP:366:OD1:3214, V-A:PRO:540:CB:4885, V-A:PRO:540:CA:4883, H-A:ASP:366:OD2:3215"]

$$$$
ZINC169356274
     RDKit          3D

121130  0  0  0  0  0  0  0  0999 V2000
  130.0360  127.0860   68.9210 C   0  0  0  0  0  0  0  0  0  0  0  0
  129.2370  127.1440   67.8430 C   0  0  0  0  0  0  0  0  0  0  0  0
  128.2870  128.2480   67.4530 C   0  0  0  0  0  0  0  0  0  0  0  0
  128.4160  128.2150   65.9340 C   0  0  2  0  0  0  0  0  0  0  0  0
  127.3560  128.9510   65.0980 C   0  0  0  0  0  0  0  0  0  0  0  0
  127.5900  128.9920   63.5700 C   0  0  0  0  0  0  0  0  0  0  0  0
  128.1010  130.3560   63.0820 C   0  0  1  0  0  0  0  0  0  0  0  0
  128.9650  131.0930   64.0900 C   0  0  0  0  0  0  0  0  0  0  0  0
  128.8090  132.5090   63.5690 C   0  0  1  0  0  0  0  0  0  0  0  0
  129.7500  132.7520   62.5200 O   0  0  0  0  0  0  0  0  0  0  0  0
  129.1190  132.5390   61.2640 C   0  0  1  0  0  0  0  0  0  0  0  0
  129.0960  131.0480   60.8420 C   0  0  1  0  0  0  0  0  0  0  0  0
  128.8170  130.1050   61.8920 O   0  0  0  0  0  0  0  0  0  0  0  0
  128.1400  130.9170   59.6360 C   0  0  1  0  0  0  0  0  0  0  0  0
  128.0340  129.5540   59.2160 O   0  0  0  0  0  0  0  0  0  0  0  0
  127.2480  129.3510   58.0310 C   0  0  2  0  0  0  0  0  0  0  0  0
  125.8230  129.9700   58.1520 C   0  0  0  0  0  0  0  0  0  0  0  0
  125.8330  131.3960   58.7360 C   0  0  0  0  0  0  0  0  0  0  0  0
  126.7280  131.4450   59.9790 C   0  0  2  0  0  0  0  0  0  0  0  0
  126.7230  132.7680   60.5330 O   0  0  0  0  0  0  0  0  0  0  0  0
  127.7220  133.1100   61.5080 C   0  0  1  0  0  0  0  0  0  0  0  0
  127.4280  132.5700   62.9010 C   0  0  1  0  0  0  0  0  0  0  0  0
  127.0100  131.2060   62.9110 O   0  0  0  0  0  0  0  0  0  0  0  0
  127.2610  127.8670   57.5910 C   0  0  0  0  0  0  0  0  0  0  0  0
  128.6460  127.2190   57.4830 C   0  0  0  0  0  0  0  0  0  0  0  0
  129.6410  127.9040   57.2630 O   0  0  0  0  0  0  0  0  0  0  0  0
  128.7070  125.6930   57.6600 C   0  0  0  0  0  0  0  0  0  0  0  0
  128.9310  125.1510   59.0990 C   0  0  2  0  0  0  0  0  0  0  0  0
  127.7980  124.2790   59.6570 C   0  0  1  0  0  0  0  0  0  0  0  0
  128.1920  122.9080   59.5780 O   0  0  0  0  0  0  0  0  0  0  0  0
  127.9730  122.2910   58.3160 C   0  0  0  0  0  0  0  0  0  0  0  0
  127.5840  124.7580   61.1130 C   0  0  1  0  0  0  0  0  0  0  0  0
  127.6640  123.6950   62.2360 C   0  0  0  0  0  0  0  0  0  0  0  0
  129.0700  123.1050   62.4780 C   0  0  0  0  0  0  0  0  0  0  0  0
  129.1570  121.5780   62.2620 C   0  0  0  0  0  0  0  0  0  0  0  0
  130.1550  121.1880   61.2620 N   0  0  0  0  0  0  0  0  0  0  0  0
  130.2590  119.7250   61.1910 C   0  0  0  0  0  0  0  0  0  0  0  0
  131.3520  119.2760   60.1970 C   0  0  0  0  0  0  0  0  0  0  0  0
  132.5930  119.8860   60.5320 O   0  0  0  0  0  0  0  0  0  0  0  0
  132.5250  121.3070   60.4860 C   0  0  0  0  0  0  0  0  0  0  0  0
  131.4650  121.8210   61.4840 C   0  0  0  0  0  0  0  0  0  0  0  0
  128.6280  125.6980   61.3470 O   0  0  0  0  0  0  0  0  0  0  0  0
  129.0100  126.2970   60.1200 C   0  0  1  0  0  0  0  0  0  0  0  0
  130.3750  127.0080   60.2830 C   0  0  0  0  0  0  0  0  0  0  0  0
  131.3290  126.4540   61.3750 C   0  0  1  0  0  0  0  0  0  0  0  0
  130.5800  125.9320   62.4700 O   0  0  0  0  0  0  0  0  0  0  0  0
  131.3410  125.5630   63.6210 C   0  0  1  0  0  0  0  0  0  0  0  0
  130.4000  125.0430   64.7230 C   0  0  0  0  0  0  0  0  0  0  0  0
  130.5120  125.8270   66.0460 C   0  0  0  0  0  0  0  0  0  0  0  0
  129.1420  126.1710   66.6720 C   0  0  2  0  0  0  0  0  0  0  0  0
  128.3730  126.8290   65.6700 O   0  0  0  0  0  0  0  0  0  0  0  0
  132.4090  124.5140   63.2430 C   0  0  0  0  0  0  0  0  0  0  0  0
  133.2420  124.9120   62.0050 C   0  0  1  0  0  0  0  0  0  0  0  0
  134.2370  123.7980   61.6120 C   0  0  0  0  0  0  0  0  0  0  0  0
  132.2940  125.3580   60.8800 C   0  0  0  0  0  0  0  0  0  0  0  0
  132.3050  124.8490   59.6290 C   0  0  0  0  0  0  0  0  0  0  0  0
  130.6828  126.2105   69.0798 H   0  0  0  0  0  0  0  0  0  0  0  0
  130.0436  127.9140   69.6451 H   0  0  0  0  0  0  0  0  0  0  0  0
  127.2585  128.0298   67.7765 H   0  0  0  0  0  0  0  0  0  0  0  0
  128.5128  129.2239   67.9075 H   0  0  0  0  0  0  0  0  0  0  0  0
  129.3241  128.7586   65.6343 H   0  0  0  0  0  0  0  0  0  0  0  0
  126.3889  128.4577   65.2750 H   0  0  0  0  0  0  0  0  0  0  0  0
  127.4008  129.9994   65.4280 H   0  0  0  0  0  0  0  0  0  0  0  0
  128.3326  128.2242   63.3075 H   0  0  0  0  0  0  0  0  0  0  0  0
  126.6217  128.8073   63.0818 H   0  0  0  0  0  0  0  0  0  0  0  0
  128.5792  130.9884   65.1148 H   0  0  0  0  0  0  0  0  0  0  0  0
  130.0022  130.7349   64.1668 H   0  0  0  0  0  0  0  0  0  0  0  0
  128.9468  133.2287   64.3894 H   0  0  0  0  0  0  0  0  0  0  0  0
  129.6466  133.0165   60.4252 H   0  0  0  0  0  0  0  0  0  0  0  0
  130.1199  130.7635   60.5580 H   0  0  0  0  0  0  0  0  0  0  0  0
  128.5635  131.5224   58.8210 H   0  0  0  0  0  0  0  0  0  0  0  0
  127.7240  129.9083   57.2107 H   0  0  0  0  0  0  0  0  0  0  0  0
  125.3698  130.0047   57.1503 H   0  0  0  0  0  0  0  0  0  0  0  0
  125.2467  129.3361   58.8420 H   0  0  0  0  0  0  0  0  0  0  0  0
  126.2190  132.0966   57.9809 H   0  0  0  0  0  0  0  0  0  0  0  0
  124.8079  131.6792   59.0168 H   0  0  0  0  0  0  0  0  0  0  0  0
  126.3336  130.7805   60.7619 H   0  0  0  0  0  0  0  0  0  0  0  0
  127.6929  134.2062   61.4208 H   0  0  0  0  0  0  0  0  0  0  0  0
  126.6487  133.1949   63.3617 H   0  0  0  0  0  0  0  0  0  0  0  0
  126.6748  127.2921   58.3230 H   0  0  0  0  0  0  0  0  0  0  0  0
  126.8421  127.8516   56.5740 H   0  0  0  0  0  0  0  0  0  0  0  0
  127.7549  125.2798   57.2957 H   0  0  0  0  0  0  0  0  0  0  0  0
  129.5988  125.3789   57.0978 H   0  0  0  0  0  0  0  0  0  0  0  0
  129.8554  124.5656   58.9857 H   0  0  0  0  0  0  0  0  0  0  0  0
  126.8561  124.3671   59.0957 H   0  0  0  0  0  0  0  0  0  0  0  0
  127.6086  121.2643   58.4681 H   0  0  0  0  0  0  0  0  0  0  0  0
  127.2241  122.8661   57.7517 H   0  0  0  0  0  0  0  0  0  0  0  0
  128.9169  122.2652   57.7517 H   0  0  0  0  0  0  0  0  0  0  0  0
  126.5518  125.1338   61.1703 H   0  0  0  0  0  0  0  0  0  0  0  0
  127.3242  124.1617   63.1723 H   0  0  0  0  0  0  0  0  0  0  0  0
  127.0309  122.8564   61.9107 H   0  0  0  0  0  0  0  0  0  0  0  0
  129.7732  123.5926   61.7868 H   0  0  0  0  0  0  0  0  0  0  0  0
  129.3155  123.2913   63.5339 H   0  0  0  0  0  0  0  0  0  0  0  0
  129.4194  121.1047   63.2197 H   0  0  0  0  0  0  0  0  0  0  0  0
  128.1767  121.2462   61.8893 H   0  0  0  0  0  0  0  0  0  0  0  0
  130.5050  119.3365   62.1903 H   0  0  0  0  0  0  0  0  0  0  0  0
  129.2942  119.3300   60.8401 H   0  0  0  0  0  0  0  0  0  0  0  0
  131.4593  118.1822   60.2429 H   0  0  0  0  0  0  0  0  0  0  0  0
  131.0627  119.5795   59.1800 H   0  0  0  0  0  0  0  0  0  0  0  0
  133.5069  121.7268   60.7501 H   0  0  0  0  0  0  0  0  0  0  0  0
  132.2443  121.6209   59.4698 H   0  0  0  0  0  0  0  0  0  0  0  0
  131.8005  121.5964   62.5072 H   0  0  0  0  0  0  0  0  0  0  0  0
  131.3513  122.9049   61.3350 H   0  0  0  0  0  0  0  0  0  0  0  0
  128.3633  127.1138   59.7669 H   0  0  0  0  0  0  0  0  0  0  0  0
  130.9005  126.9437   59.3188 H   0  0  0  0  0  0  0  0  0  0  0  0
  130.1293  128.0297   60.6081 H   0  0  0  0  0  0  0  0  0  0  0  0
  131.9429  127.3138   61.6812 H   0  0  0  0  0  0  0  0  0  0  0  0
  131.8676  126.4465   64.0109 H   0  0  0  0  0  0  0  0  0  0  0  0
  129.3641  125.1175   64.3604 H   0  0  0  0  0  0  0  0  0  0  0  0
  130.6930  124.0043   64.9359 H   0  0  0  0  0  0  0  0  0  0  0  0
  131.0812  125.2191   66.7647 H   0  0  0  0  0  0  0  0  0  0  0  0
  131.0138  126.7790   65.8184 H   0  0  0  0  0  0  0  0  0  0  0  0
  128.7036  125.2307   67.0376 H   0  0  0  0  0  0  0  0  0  0  0  0
  133.0908  124.3861   64.0967 H   0  0  0  0  0  0  0  0  0  0  0  0
  131.8787  123.5829   62.9943 H   0  0  0  0  0  0  0  0  0  0  0  0
  133.8834  125.7752   62.2363 H   0  0  0  0  0  0  0  0  0  0  0  0
  134.6490  123.3367   62.5217 H   0  0  0  0  0  0  0  0  0  0  0  0
  133.7155  123.0336   61.0172 H   0  0  0  0  0  0  0  0  0  0  0  0
  135.0552  124.2302   61.0172 H   0  0  0  0  0  0  0  0  0  0  0  0
  131.5931  125.2211   58.8775 H   0  0  0  0  0  0  0  0  0  0  0  0
  133.0259  124.0623   59.3616 H   0  0  0  0  0  0  0  0  0  0  0  0
  1  2  2  0
  2  3  1  0
  3  4  1  0
  4  5  1  0
  5  6  1  0
  7  6  1  1
  7  8  1  0
  8  9  1  0
  9 10  1  0
 10 11  1  0
 11 12  1  0
 12 13  1  0
 12 14  1  0
 14 15  1  0
 15 16  1  0
 16 17  1  0
 17 18  1  0
 18 19  1  0
 19 20  1  0
 20 21  1  0
 21 22  1  0
 22 23  1  0
 16 24  1  0
 24 25  1  0
 25 26  2  0
 25 27  1  0
 27 28  1  0
 28 29  1  0
 29 30  1  0
 30 31  1  0
 29 32  1  0
 32 33  1  0
 33 34  1  0
 34 35  1  0
 35 36  1  0
 36 37  1  0
 37 38  1  0
 38 39  1  0
 39 40  1  0
 40 41  1  0
 32 42  1  0
 42 43  1  0
 43 44  1  0
 44 45  1  0
 45 46  1  0
 46 47  1  0
 47 48  1  0
 48 49  1  0
 49 50  1  0
 50 51  1  0
 47 52  1  0
 52 53  1  0
 53 54  1  0
 53 55  1  0
 55 56  2  0
 50  2  1  0
 51  4  1  0
 13  7  1  0
 19 14  1  0
 43 28  1  0
 55 45  1  0
 23  7  1  0
 41 36  1  0
 22  9  1  0
 21 11  1  0
  1 57  1  0
  1 58  1  0
  3 59  1  0
  3 60  1  0
  4 61  1  1
  5 62  1  0
  5 63  1  0
  6 64  1  0
  6 65  1  0
  8 66  1  0
  8 67  1  0
  9 68  1  1
 11 69  1  6
 12 70  1  6
 14 71  1  6
 16 72  1  6
 17 73  1  0
 17 74  1  0
 18 75  1  0
 18 76  1  0
 19 77  1  1
 21 78  1  1
 22 79  1  1
 24 80  1  0
 24 81  1  0
 27 82  1  0
 27 83  1  0
 28 84  1  6
 29 85  1  6
 31 86  1  0
 31 87  1  0
 31 88  1  0
 32 89  1  6
 33 90  1  0
 33 91  1  0
 34 92  1  0
 34 93  1  0
 35 94  1  0
 35 95  1  0
 37 96  1  0
 37 97  1  0
 38 98  1  0
 38 99  1  0
 40100  1  0
 40101  1  0
 41102  1  0
 41103  1  0
 43104  1  6
 44105  1  0
 44106  1  0
 45107  1  1
 47108  1  1
 48109  1  0
 48110  1  0
 49111  1  0
 49112  1  0
 50113  1  1
 52114  1  0
 52115  1  0
 53116  1  1
 54117  1  0
 54118  1  0
 54119  1  0
 56120  1  0
 56121  1  0
M  END
>  <Binding energies>  (1) 
[-7.1]

>  <Ligand effiencies>  (1) 
[-0.12241379310344827]

>  <Interactions>  (1) 
["V-B:TYR:539:CA:9841, V-A:ILE:369:CG2:3237, V-B:PRO:540:CA:9855, H-A:ALA:541:N:4891, V-B:GLU:543:CB:9878, V-B:ALA:541:CB:9864, H-A:TYR:531:OH:4795, V-B:TYR:539:CE2:9848, V-B:GLU:543:CG:9879, V-B:LEU:475:CD2:9230, V-B:TYR:539:C:9839, V-A:ASP:366:CG:3213, V-B:TYR:539:CZ:9849, V-A:ALA:541:CB:4892, V-A:GLU:543:CD:4908, V-B:HIS:456:CE1:9041, V-B:PRO:540:N:9856, V-A:HIS:456:CE1:4070, V-A:ILE:369:CD1:3239, V-B:TYR:539:CD2:9846, V-A:GLU:543:CG:4907, H-A:SER:385:OG:3410, V-B:GLU:543:CD:9880, V-A:LEU:475:CD2:4259, V-B:TYR:539:CG:9844, V-A:GLU:543:CB:4906, V-A:PRO:540:CA:4883, V-B:ALA:541:CA:9862, V-A:TYR:539:CE1:4875"]

$$$$
ZINC169358348
     RDKit          3D

 94101  0  0  0  0  0  0  0  0999 V2000
  125.8110  125.7280   58.2590 C   0  0  0  0  0  0  0  0  0  0  0  0
  127.1400  125.7200   58.4700 C   0  0  0  0  0  0  0  0  0  0  0  0
  127.8760  124.4360   58.8470 C   0  0  0  0  0  0  0  0  0  0  0  0
  128.7710  124.5530   60.1040 C   0  0  2  0  0  0  0  0  0  0  0  0
  130.1050  124.7100   59.6220 O   0  0  0  0  0  0  0  0  0  0  0  0
  131.0440  125.0530   60.6050 C   0  0  2  0  0  0  0  0  0  0  0  0
  132.2440  125.2800   59.8920 O   0  0  0  0  0  0  0  0  0  0  0  0
  133.2010  124.2070   59.8800 C   0  0  1  0  0  0  0  0  0  0  0  0
  133.9070  124.2890   58.5170 C   0  0  0  0  0  0  0  0  0  0  0  0
  134.1510  124.3350   61.0970 C   0  0  0  0  0  0  0  0  0  0  0  0
  133.5080  124.8930   62.3760 C   0  0  0  0  0  0  0  0  0  0  0  0
  132.1710  124.2500   62.8500 C   0  0  1  0  0  0  0  0  0  0  0  0
  131.5530  125.1480   63.9760 C   0  0  2  0  0  0  0  0  0  0  0  0
  132.4820  125.3580   65.1920 C   0  0  0  0  0  0  0  0  0  0  0  0
  130.1950  124.6000   64.4440 C   0  0  0  0  0  0  0  0  0  0  0  0
  129.2250  124.5130   63.2680 C   0  0  0  0  0  0  0  0  0  0  0  0
  129.7370  123.5020   62.2120 C   0  0  1  0  0  0  0  0  0  0  0  0
  128.7450  123.2990   61.0220 C   0  0  1  0  0  0  0  0  0  0  0  0
  127.3220  122.9260   61.5010 C   0  0  0  0  0  0  0  0  0  0  0  0
  131.1560  123.9200   61.6770 C   0  0  1  0  0  0  0  0  0  0  0  0
  131.6400  122.7320   61.0250 O   0  0  0  0  0  0  0  0  0  0  0  0
  132.5820  122.9260   59.9050 O   0  0  0  0  0  0  0  0  0  0  0  0
  127.9820  126.9820   58.3010 C   0  0  0  0  0  0  0  0  0  0  0  0
  127.4860  128.2290   59.0840 C   0  0  2  0  0  0  0  0  0  0  0  0
  128.0590  129.4590   58.6240 O   0  0  0  0  0  0  0  0  0  0  0  0
  129.3610  129.6130   59.0750 C   0  0  1  0  0  0  0  0  0  0  0  0
  130.0540  130.4490   58.1890 O   0  0  0  0  0  0  0  0  0  0  0  0
  130.6310  131.6160   58.7570 C   0  0  1  0  0  0  0  0  0  0  0  0
  131.6800  132.0720   57.7270 C   0  0  0  0  0  0  0  0  0  0  0  0
  129.4810  132.6340   58.9690 C   0  0  0  0  0  0  0  0  0  0  0  0
  128.8850  132.6560   60.3770 C   0  0  0  0  0  0  0  0  0  0  0  0
  128.4760  131.2890   61.0020 C   0  0  2  0  0  0  0  0  0  0  0  0
  128.3510  131.4840   62.5670 C   0  0  2  0  0  0  0  0  0  0  0  0
  129.6240  131.9750   63.3140 C   0  0  0  0  0  0  0  0  0  0  0  0
  127.8510  130.1950   63.2430 C   0  0  0  0  0  0  0  0  0  0  0  0
  128.7010  128.9690   62.8560 C   0  0  0  0  0  0  0  0  0  0  0  0
  128.8220  128.7480   61.3260 C   0  0  1  0  0  0  0  0  0  0  0  0
  127.5700  128.0510   60.6420 C   0  0  1  0  0  0  0  0  0  0  0  0
  126.1770  128.3020   61.2640 C   0  0  0  0  0  0  0  0  0  0  0  0
  129.3410  130.0300   60.5700 C   0  0  1  0  0  0  0  0  0  0  0  0
  130.7100  130.3200   60.8730 O   0  0  0  0  0  0  0  0  0  0  0  0
  131.3640  131.3140   59.9580 O   0  0  0  0  0  0  0  0  0  0  0  0
  125.3027  126.6652   57.9884 H   0  0  0  0  0  0  0  0  0  0  0  0
  125.2329  124.7973   58.3571 H   0  0  0  0  0  0  0  0  0  0  0  0
  127.1266  123.6521   59.0310 H   0  0  0  0  0  0  0  0  0  0  0  0
  128.5466  124.2024   58.0069 H   0  0  0  0  0  0  0  0  0  0  0  0
  128.4019  125.3922   60.7118 H   0  0  0  0  0  0  0  0  0  0  0  0
  130.7667  125.9484   61.1806 H   0  0  0  0  0  0  0  0  0  0  0  0
  134.9888  124.4147   58.6714 H   0  0  0  0  0  0  0  0  0  0  0  0
  133.7223  123.3634   57.9521 H   0  0  0  0  0  0  0  0  0  0  0  0
  133.5151  125.1477   57.9521 H   0  0  0  0  0  0  0  0  0  0  0  0
  134.5481  123.3348   61.3248 H   0  0  0  0  0  0  0  0  0  0  0  0
  134.9245  125.0601   60.8041 H   0  0  0  0  0  0  0  0  0  0  0  0
  134.2377  124.7735   63.1904 H   0  0  0  0  0  0  0  0  0  0  0  0
  133.2457  125.9318   62.1267 H   0  0  0  0  0  0  0  0  0  0  0  0
  132.3957  123.2567   63.2657 H   0  0  0  0  0  0  0  0  0  0  0  0
  131.4131  126.1353   63.5116 H   0  0  0  0  0  0  0  0  0  0  0  0
  131.9062  125.2278   66.1202 H   0  0  0  0  0  0  0  0  0  0  0  0
  133.2987  124.6218   65.1609 H   0  0  0  0  0  0  0  0  0  0  0  0
  132.9027  126.3739   65.1609 H   0  0  0  0  0  0  0  0  0  0  0  0
  130.3367  123.5969   64.8725 H   0  0  0  0  0  0  0  0  0  0  0  0
  129.7776  125.2783   65.2027 H   0  0  0  0  0  0  0  0  0  0  0  0
  128.2410  124.1855   63.6346 H   0  0  0  0  0  0  0  0  0  0  0  0
  129.1459  125.5052   62.7997 H   0  0  0  0  0  0  0  0  0  0  0  0
  129.8148  122.5336   62.7278 H   0  0  0  0  0  0  0  0  0  0  0  0
  129.0776  122.4364   60.4260 H   0  0  0  0  0  0  0  0  0  0  0  0
  127.2954  122.9190   62.6007 H   0  0  0  0  0  0  0  0  0  0  0  0
  126.6017  123.6657   61.1215 H   0  0  0  0  0  0  0  0  0  0  0  0
  127.0572  121.9281   61.1215 H   0  0  0  0  0  0  0  0  0  0  0  0
  129.0040  126.7548   58.6384 H   0  0  0  0  0  0  0  0  0  0  0  0
  127.9146  127.2487   57.2359 H   0  0  0  0  0  0  0  0  0  0  0  0
  126.4137  128.3087   58.8521 H   0  0  0  0  0  0  0  0  0  0  0  0
  129.9315  128.6726   59.0679 H   0  0  0  0  0  0  0  0  0  0  0  0
  132.5663  132.4573   58.2523 H   0  0  0  0  0  0  0  0  0  0  0  0
  131.9697  131.2186   57.0963 H   0  0  0  0  0  0  0  0  0  0  0  0
  131.2536  132.8660   57.0963 H   0  0  0  0  0  0  0  0  0  0  0  0
  129.8704  133.6388   58.7482 H   0  0  0  0  0  0  0  0  0  0  0  0
  128.6679  132.3216   58.2972 H   0  0  0  0  0  0  0  0  0  0  0  0
  129.6301  133.1143   61.0439 H   0  0  0  0  0  0  0  0  0  0  0  0
  127.9419  133.2131   60.2754 H   0  0  0  0  0  0  0  0  0  0  0  0
  127.4996  131.0106   60.5786 H   0  0  0  0  0  0  0  0  0  0  0  0
  127.6233  132.3041   62.6557 H   0  0  0  0  0  0  0  0  0  0  0  0
  129.4594  131.9115   64.3998 H   0  0  0  0  0  0  0  0  0  0  0  0
  130.4796  131.3424   63.0352 H   0  0  0  0  0  0  0  0  0  0  0  0
  129.8332  133.0183   63.0352 H   0  0  0  0  0  0  0  0  0  0  0  0
  127.8952  130.3268   64.3342 H   0  0  0  0  0  0  0  0  0  0  0  0
  126.8205  130.0129   62.9039 H   0  0  0  0  0  0  0  0  0  0  0  0
  129.7120  129.1042   63.2677 H   0  0  0  0  0  0  0  0  0  0  0  0
  128.1930  128.0845   63.2679 H   0  0  0  0  0  0  0  0  0  0  0  0
  129.6106  127.9893   61.2140 H   0  0  0  0  0  0  0  0  0  0  0  0
  127.8132  127.0038   60.8750 H   0  0  0  0  0  0  0  0  0  0  0  0
  126.2573  128.2875   62.3610 H   0  0  0  0  0  0  0  0  0  0  0  0
  125.8006  129.2824   60.9368 H   0  0  0  0  0  0  0  0  0  0  0  0
  125.4821  127.5146   60.9368 H   0  0  0  0  0  0  0  0  0  0  0  0
  1  2  2  0
  2  3  1  0
  3  4  1  0
  4  5  1  0
  5  6  1  0
  6  7  1  0
  7  8  1  0
  8  9  1  6
  8 10  1  0
 10 11  1  0
 11 12  1  0
 12 13  1  0
 13 14  1  0
 13 15  1  0
 15 16  1  0
 16 17  1  0
 17 18  1  0
 18 19  1  0
 17 20  1  0
 20 21  1  6
 21 22  1  0
  2 23  1  0
 23 24  1  0
 24 25  1  0
 25 26  1  0
 26 27  1  0
 27 28  1  0
 28 29  1  6
 28 30  1  0
 30 31  1  0
 31 32  1  0
 32 33  1  0
 33 34  1  0
 33 35  1  0
 35 36  1  0
 36 37  1  0
 37 38  1  0
 38 39  1  0
 37 40  1  0
 40 41  1  1
 41 42  1  0
 18  4  1  0
 38 24  1  0
 20  6  1  0
 40 26  1  0
 22  8  1  0
 42 28  1  0
 20 12  1  0
 40 32  1  0
  1 43  1  0
  1 44  1  0
  3 45  1  0
  3 46  1  0
  4 47  1  1
  6 48  1  1
  9 49  1  0
  9 50  1  0
  9 51  1  0
 10 52  1  0
 10 53  1  0
 11 54  1  0
 11 55  1  0
 12 56  1  1
 13 57  1  6
 14 58  1  0
 14 59  1  0
 14 60  1  0
 15 61  1  0
 15 62  1  0
 16 63  1  0
 16 64  1  0
 17 65  1  1
 18 66  1  6
 19 67  1  0
 19 68  1  0
 19 69  1  0
 23 70  1  0
 23 71  1  0
 24 72  1  1
 26 73  1  1
 29 74  1  0
 29 75  1  0
 29 76  1  0
 30 77  1  0
 30 78  1  0
 31 79  1  0
 31 80  1  0
 32 81  1  6
 33 82  1  6
 34 83  1  0
 34 84  1  0
 34 85  1  0
 35 86  1  0
 35 87  1  0
 36 88  1  0
 36 89  1  0
 37 90  1  1
 38 91  1  6
 39 92  1  0
 39 93  1  0
 39 94  1  0
M  END
>  <Binding energies>  (1) 
[-7.76]

>  <Ligand effiencies>  (1) 
[-0.16869565217391305]

>  <Interactions>  (1) 
["V-A:ILE:369:CG2:3237, V-A:ASP:366:CA:3210, V-B:PRO:540:CA:9855, V-A:ILE:369:CB:3236, V-B:ASP:366:CG:8184, V-B:TYR:539:CE2:9848, V-B:GLU:543:CG:9879, V-A:ASP:366:CG:3213, V-A:LEU:363:CD1:3189, V-A:ALA:541:CB:4892, V-A:GLU:543:CD:4908, V-A:ILE:369:CD1:3239, V-A:ASP:366:C:3208, V-A:GLU:543:CG:4907, V-B:GLU:543:CD:9880, V-A:TYR:539:C:4867, V-A:ASP:366:CB:3212, V-A:ARG:545:CZ:4926, V-A:PRO:540:N:4884, V-A:PRO:540:CB:4885, V-A:PRO:540:CA:4883, V-B:PRO:540:C:9853"]

$$$$
ZINC169358751
     RDKit          3D

123128  0  0  0  0  0  0  0  0999 V2000
  133.9970  125.0770   63.6920 C   0  0  0  0  0  0  0  0  0  0  0  0
  133.5950  124.3170   62.5560 O   0  0  0  0  0  0  0  0  0  0  0  0
  133.4340  122.9190   62.7560 C   0  0  1  0  0  0  0  0  0  0  0  0
  132.4350  122.5610   63.8740 C   0  0  0  0  0  0  0  0  0  0  0  0
  131.0800  122.4960   63.8890 C   0  0  0  0  0  0  0  0  0  0  0  0
  130.1790  122.6970   62.8870 O   0  0  0  0  0  0  0  0  0  0  0  0
  129.8950  124.0360   62.5410 C   0  0  1  0  0  0  0  0  0  0  0  0
  131.2370  124.7460   62.4060 C   0  0  0  0  0  0  0  0  0  0  0  0
  129.1310  124.1910   61.3930 O   0  0  0  0  0  0  0  0  0  0  0  0
  128.3960  125.3310   61.5380 C   0  0  0  0  0  0  0  0  0  0  0  0
  127.7670  125.9620   60.4780 C   0  0  0  0  0  0  0  0  0  0  0  0
  127.7240  125.2450   59.1150 C   0  0  0  0  0  0  0  0  0  0  0  0
  127.2180  127.2440   60.7080 C   0  0  0  0  0  0  0  0  0  0  0  0
  126.6520  127.8160   59.7030 O   0  0  0  0  0  0  0  0  0  0  0  0
  127.3550  127.8790   61.9940 C   0  0  0  0  0  0  0  0  0  0  0  0
  127.8950  127.1160   63.0850 C   0  0  0  0  0  0  0  0  0  0  0  0
  128.4030  125.8250   62.8280 C   0  0  0  0  0  0  0  0  0  0  0  0
  129.0520  124.7520   63.6510 C   0  0  0  0  0  0  0  0  0  0  0  0
  129.2050  124.5220   64.8490 O   0  0  0  0  0  0  0  0  0  0  0  0
  128.0870  127.6990   64.4470 C   0  0  0  0  0  0  0  0  0  0  0  0
  128.3630  127.1940   65.5820 N   0  0  0  0  0  0  0  0  0  0  0  0
  128.4690  128.2610   66.5430 C   0  0  2  0  0  0  0  0  0  0  0  0
  129.8520  128.1650   67.2380 C   0  0  0  0  0  0  0  0  0  0  0  0
  130.0240  126.9110   68.1260 C   0  0  0  0  0  0  0  0  0  0  0  0
  128.8810  126.8130   69.1660 N   0  0  1  0  0  0  0  0  0  0  0  0
  129.0570  127.8520   70.3060 C   0  0  0  0  0  0  0  0  0  0  0  0
  128.3920  127.4160   71.6380 C   0  0  0  0  0  0  0  0  0  0  0  0
  128.4660  128.5560   72.6700 C   0  0  0  0  0  0  0  0  0  0  0  0
  128.9790  126.1140   72.2230 C   0  0  0  0  0  0  0  0  0  0  0  0
  127.4880  126.8490   68.4900 C   0  0  0  0  0  0  0  0  0  0  0  0
  127.3380  128.0990   67.5960 C   0  0  0  0  0  0  0  0  0  0  0  0
  128.3410  129.4610   65.7560 N   0  0  0  0  0  0  0  0  0  0  0  0
  127.9450  129.1250   64.4910 C   0  0  0  0  0  0  0  0  0  0  0  0
  127.5230  129.9230   63.4820 C   0  0  0  0  0  0  0  0  0  0  0  0
  127.4490  131.2920   63.5460 N   0  0  0  0  0  0  0  0  0  0  0  0
  128.4170  132.2180   63.3230 C   0  0  0  0  0  0  0  0  0  0  0  0
  128.1440  133.4100   63.4560 O   0  0  0  0  0  0  0  0  0  0  0  0
  129.7730  131.8170   62.9610 C   0  0  0  0  0  0  0  0  0  0  0  0
  130.8300  132.4030   63.8930 C   0  0  0  0  0  0  0  0  0  0  0  0
  130.0970  130.9710   61.9500 C   0  0  0  0  0  0  0  0  0  0  0  0
  129.2230  130.3950   60.9350 C   0  0  0  0  0  0  0  0  0  0  0  0
  129.3930  129.2330   60.2600 C   0  0  0  0  0  0  0  0  0  0  0  0
  130.4250  128.0980   60.4170 C   0  0  2  0  0  0  0  0  0  0  0  0
  131.1920  128.0320   61.7600 C   0  0  0  0  0  0  0  0  0  0  0  0
  131.4100  127.9110   59.2160 C   0  0  2  0  0  0  0  0  0  0  0  0
  131.0850  128.8910   58.2420 O   0  0  0  0  0  0  0  0  0  0  0  0
  131.4980  126.4770   58.5800 C   0  0  1  0  0  0  0  0  0  0  0  0
  132.7050  126.3130   57.6190 C   0  0  0  0  0  0  0  0  0  0  0  0
  131.3900  125.2640   59.5870 C   0  0  1  0  0  0  0  0  0  0  0  0
  130.2220  124.5540   59.2110 O   0  0  0  0  0  0  0  0  0  0  0  0
  132.5830  124.2240   59.6900 C   0  0  1  0  0  0  0  0  0  0  0  0
  133.9080  124.8360   60.1900 C   0  0  0  0  0  0  0  0  0  0  0  0
  132.3130  122.7810   60.3090 C   0  0  2  0  0  0  0  0  0  0  0  0
  130.9740  122.7310   60.8290 O   0  0  0  0  0  0  0  0  0  0  0  0
  130.0450  121.8620   60.3670 C   0  0  0  0  0  0  0  0  0  0  0  0
  130.1310  120.5060   61.0560 C   0  0  0  0  0  0  0  0  0  0  0  0
  129.2030  122.0870   59.4970 O   0  0  0  0  0  0  0  0  0  0  0  0
  133.2310  122.1240   61.4120 C   0  0  2  0  0  0  0  0  0  0  0  0
  133.1220  120.5850   61.5160 C   0  0  0  0  0  0  0  0  0  0  0  0
  126.9890  129.3600   62.2240 C   0  0  0  0  0  0  0  0  0  0  0  0
  126.3760  130.0470   61.4010 O   0  0  0  0  0  0  0  0  0  0  0  0
  133.7138  124.5416   64.6102 H   0  0  0  0  0  0  0  0  0  0  0  0
  135.0877  125.2182   63.6714 H   0  0  0  0  0  0  0  0  0  0  0  0
  133.4999  126.0580   63.6714 H   0  0  0  0  0  0  0  0  0  0  0  0
  134.3980  122.5611   63.1466 H   0  0  0  0  0  0  0  0  0  0  0  0
  132.9073  122.3127   64.8359 H   0  0  0  0  0  0  0  0  0  0  0  0
  130.6392  122.2407   64.8640 H   0  0  0  0  0  0  0  0  0  0  0  0
  131.6410  124.9597   63.4065 H   0  0  0  0  0  0  0  0  0  0  0  0
  131.9392  124.1014   61.8570 H   0  0  0  0  0  0  0  0  0  0  0  0
  131.0992  125.6892   61.8570 H   0  0  0  0  0  0  0  0  0  0  0  0
  127.6588  124.1585   59.2741 H   0  0  0  0  0  0  0  0  0  0  0  0
  126.8447  125.5860   58.5489 H   0  0  0  0  0  0  0  0  0  0  0  0
  128.6378  125.4785   58.5489 H   0  0  0  0  0  0  0  0  0  0  0  0
  130.6295  128.1472   66.4601 H   0  0  0  0  0  0  0  0  0  0  0  0
  129.9362  129.0385   67.9012 H   0  0  0  0  0  0  0  0  0  0  0  0
  130.0105  126.0138   67.4897 H   0  0  0  0  0  0  0  0  0  0  0  0
  130.9821  126.9865   68.6610 H   0  0  0  0  0  0  0  0  0  0  0  0
  128.9740  125.9070   69.6060 H   0  0  0  0  0  0  0  0  0  0  0  0
  130.1328  127.9974   70.4835 H   0  0  0  0  0  0  0  0  0  0  0  0
  128.5626  128.7797   69.9821 H   0  0  0  0  0  0  0  0  0  0  0  0
  127.3397  127.1975   71.4038 H   0  0  0  0  0  0  0  0  0  0  0  0
  128.4386  128.1338   73.6854 H   0  0  0  0  0  0  0  0  0  0  0  0
  129.4024  129.1162   72.5310 H   0  0  0  0  0  0  0  0  0  0  0  0
  127.6099  129.2326   72.5310 H   0  0  0  0  0  0  0  0  0  0  0  0
  128.9569  126.1630   73.3217 H   0  0  0  0  0  0  0  0  0  0  0  0
  128.3805  125.2564   71.8821 H   0  0  0  0  0  0  0  0  0  0  0  0
  130.0180  125.9946   71.8821 H   0  0  0  0  0  0  0  0  0  0  0  0
  127.3651  125.9477   67.8715 H   0  0  0  0  0  0  0  0  0  0  0  0
  126.7186  126.8858   69.2753 H   0  0  0  0  0  0  0  0  0  0  0  0
  126.3774  128.0311   67.0644 H   0  0  0  0  0  0  0  0  0  0  0  0
  127.3931  128.9742   68.2601 H   0  0  0  0  0  0  0  0  0  0  0  0
  128.0910  130.3260   66.2140 H   0  0  0  0  0  0  0  0  0  0  0  0
  126.5180  131.6580   63.6900 H   0  0  0  0  0  0  0  0  0  0  0  0
  130.5300  132.2367   64.9382 H   0  0  0  0  0  0  0  0  0  0  0  0
  131.7964  131.9118   63.7063 H   0  0  0  0  0  0  0  0  0  0  0  0
  130.9254  133.4828   63.7063 H   0  0  0  0  0  0  0  0  0  0  0  0
  131.1567  130.6825   61.8885 H   0  0  0  0  0  0  0  0  0  0  0  0
  128.3194  130.9719   60.6884 H   0  0  0  0  0  0  0  0  0  0  0  0
  128.6626  129.0694   59.4539 H   0  0  0  0  0  0  0  0  0  0  0  0
  129.7408  127.2367   60.4199 H   0  0  0  0  0  0  0  0  0  0  0  0
  130.4772  128.0935   62.5939 H   0  0  0  0  0  0  0  0  0  0  0  0
  131.7449  127.0830   61.8202 H   0  0  0  0  0  0  0  0  0  0  0  0
  131.8989  128.8726   61.8202 H   0  0  0  0  0  0  0  0  0  0  0  0
  132.4232  128.0407   59.6242 H   0  0  0  0  0  0  0  0  0  0  0  0
  131.6240  128.7370   57.4620 H   0  0  0  0  0  0  0  0  0  0  0  0
  130.5755  126.4214   57.9834 H   0  0  0  0  0  0  0  0  0  0  0  0
  133.6268  126.1878   58.2061 H   0  0  0  0  0  0  0  0  0  0  0  0
  132.5511  125.4275   56.9848 H   0  0  0  0  0  0  0  0  0  0  0  0
  132.7929  127.2075   56.9848 H   0  0  0  0  0  0  0  0  0  0  0  0
  131.3940  125.7273   60.5847 H   0  0  0  0  0  0  0  0  0  0  0  0
  129.9540  123.9990   59.9460 H   0  0  0  0  0  0  0  0  0  0  0  0
  132.6866  123.9821   58.6219 H   0  0  0  0  0  0  0  0  0  0  0  0
  133.9178  124.8405   61.2899 H   0  0  0  0  0  0  0  0  0  0  0  0
  134.7521  124.2366   59.8183 H   0  0  0  0  0  0  0  0  0  0  0  0
  133.9989  125.8673   59.8183 H   0  0  0  0  0  0  0  0  0  0  0  0
  132.5518  122.1794   59.4196 H   0  0  0  0  0  0  0  0  0  0  0  0
  130.1220  120.6477   62.1468 H   0  0  0  0  0  0  0  0  0  0  0  0
  129.2702  119.8887   60.7594 H   0  0  0  0  0  0  0  0  0  0  0  0
  131.0629  120.0024   60.7594 H   0  0  0  0  0  0  0  0  0  0  0  0
  134.2352  122.2662   60.9861 H   0  0  0  0  0  0  0  0  0  0  0  0
  133.1011  120.2897   62.5754 H   0  0  0  0  0  0  0  0  0  0  0  0
  132.1978  120.2487   61.0233 H   0  0  0  0  0  0  0  0  0  0  0  0
  133.9896  120.1218   61.0233 H   0  0  0  0  0  0  0  0  0  0  0  0
  1  2  1  0
  2  3  1  0
  3  4  1  0
  4  5  2  0
  5  6  1  0
  6  7  1  0
  7  8  1  6
  7  9  1  0
  9 10  1  0
 10 11  2  0
 11 12  1  0
 11 13  1  0
 13 14  1  0
 13 15  2  0
 15 16  1  0
 16 17  2  0
 17 18  1  0
 18 19  2  0
 16 20  1  0
 20 21  2  0
 21 22  1  0
 22 23  1  0
 23 24  1  0
 24 25  1  0
 25 26  1  0
 26 27  1  0
 27 28  1  0
 27 29  1  0
 25 30  1  0
 30 31  1  0
 22 32  1  1
 32 33  1  0
 33 34  2  0
 34 35  1  0
 35 36  1  0
 36 37  2  0
 36 38  1  0
 38 39  1  0
 38 40  2  0
 40 41  1  0
 41 42  2  0
 42 43  1  0
 43 44  1  0
 43 45  1  0
 45 46  1  0
 45 47  1  0
 47 48  1  0
 47 49  1  0
 49 50  1  0
 49 51  1  0
 51 52  1  0
 51 53  1  0
 53 54  1  0
 54 55  1  0
 55 56  1  0
 55 57  2  0
 53 58  1  0
 58 59  1  0
 34 60  1  0
 60 61  2  0
 58  3  1  0
 18  7  1  0
 33 20  1  0
 17 10  1  0
 31 22  1  0
 60 15  1  0
  1 62  1  0
  1 63  1  0
  1 64  1  0
  3 65  1  1
  4 66  1  0
  5 67  1  0
  8 68  1  0
  8 69  1  0
  8 70  1  0
 12 71  1  0
 12 72  1  0
 12 73  1  0
 23 74  1  0
 23 75  1  0
 24 76  1  0
 24 77  1  0
 25 78  1  6
 26 79  1  0
 26 80  1  0
 27 81  1  0
 28 82  1  0
 28 83  1  0
 28 84  1  0
 29 85  1  0
 29 86  1  0
 29 87  1  0
 30 88  1  0
 30 89  1  0
 31 90  1  0
 31 91  1  0
 32 92  1  0
 35 93  1  0
 39 94  1  0
 39 95  1  0
 39 96  1  0
 40 97  1  0
 41 98  1  0
 42 99  1  0
 43100  1  1
 44101  1  0
 44102  1  0
 44103  1  0
 45104  1  1
 46105  1  0
 47106  1  6
 48107  1  0
 48108  1  0
 48109  1  0
 49110  1  1
 50111  1  0
 51112  1  6
 52113  1  0
 52114  1  0
 52115  1  0
 53116  1  6
 56117  1  0
 56118  1  0
 56119  1  0
 58120  1  6
 59121  1  0
 59122  1  0
 59123  1  0
M  CHG  2  14  -1  25   1
M  END
>  <Binding energies>  (1) 
[2.28]

>  <Ligand effiencies>  (1) 
[0.03352941176470588]

>  <Interactions>  (1) 
["V-A:ILE:369:CG2:3237, V-A:ASP:366:CA:3210, V-A:ALA:541:C:4888, V-A:GLY:454:CA:4049, V-B:GLU:543:C:9874, V-B:HIS:456:CD2:9039, H-B:GLU:543:O:9875, V-B:GLU:543:CB:9878, H-A:TYR:531:OH:4795, V-B:TYR:539:CE2:9848, V-B:GLU:543:CG:9879, V-A:ASP:366:CG:3213, V-A:HIS:456:CD2:4068, H-B:TYR:539:OH:9850, V-A:ALA:541:CB:4892, V-A:GLU:543:CD:4908, H-B:TYR:484:OH:9319, V-B:HIS:456:CE1:9041, V-B:GLU:543:CA:9876, H-A:GLY:454:N:4050, V-A:GLY:453:C:4042, V-A:HIS:456:CE1:4070, V-A:ILE:369:CD1:3239, V-A:ASP:366:C:3208, V-A:ALA:541:CA:4890, V-B:TYR:539:CD2:9846, V-A:GLU:543:CG:4907, V-A:SER:385:CB:3409, V-A:TYR:531:CZ:4794, V-B:GLU:543:CD:9880, V-B:HIS:456:CG:9037, V-A:ASP:366:CB:3212, V-A:LEU:475:CD2:4259, V-A:ARG:545:CZ:4926, V-A:GLU:543:CB:4906, V-A:GLY:453:CA:4044, V-A:SER:385:CA:3407, H-A:HIS:456:NE2:4071"]

$$$$
ZINC169361902
     RDKit          3D

108117  0  0  0  0  0  0  0  0999 V2000
  127.0750  128.0450   62.1650 C   0  0  0  0  0  0  0  0  0  0  0  0
  128.3420  127.6390   61.3850 C   0  0  1  0  0  0  0  0  0  0  0  0
  129.1290  128.8500   60.8100 C   0  0  1  0  0  0  0  0  0  0  0  0
  129.6280  129.9490   61.7900 C   0  0  0  0  0  0  0  0  0  0  0  0
  128.4890  130.8650   62.3180 C   0  0  0  0  0  0  0  0  0  0  0  0
  128.8860  132.3600   62.4480 C   0  0  0  0  0  0  0  0  0  0  0  0
  128.6880  133.2280   61.1720 C   0  0  1  0  0  0  0  0  0  0  0  0
  129.6530  132.9550   60.1540 O   0  0  0  0  0  0  0  0  0  0  0  0
  129.4930  131.7230   59.4940 C   0  0  2  0  0  0  0  0  0  0  0  0
  130.6330  131.6250   58.6640 O   0  0  0  0  0  0  0  0  0  0  0  0
  130.4670  132.0240   57.2930 C   0  0  1  0  0  0  0  0  0  0  0  0
  131.8060  132.6550   56.8760 C   0  0  0  0  0  0  0  0  0  0  0  0
  130.0500  130.7990   56.4440 C   0  0  0  0  0  0  0  0  0  0  0  0
  129.1410  129.7890   57.1610 C   0  0  0  0  0  0  0  0  0  0  0  0
  127.8860  130.3520   57.8860 C   0  0  1  0  0  0  0  0  0  0  0  0
  127.2300  129.2080   58.7310 C   0  0  2  0  0  0  0  0  0  0  0  0
  126.8760  127.9430   57.9140 C   0  0  0  0  0  0  0  0  0  0  0  0
  125.9770  129.7240   59.4550 C   0  0  0  0  0  0  0  0  0  0  0  0
  126.3570  130.8490   60.4110 C   0  0  0  0  0  0  0  0  0  0  0  0
  126.9230  132.0650   59.6350 C   0  0  1  0  0  0  0  0  0  0  0  0
  127.2720  133.2960   60.5290 C   0  0  1  0  0  0  0  0  0  0  0  0
  126.1730  133.7210   61.5250 C   0  0  0  0  0  0  0  0  0  0  0  0
  128.1400  131.6880   58.7060 C   0  0  1  0  0  0  0  0  0  0  0  0
  128.1820  132.7540   57.7390 O   0  0  0  0  0  0  0  0  0  0  0  0
  129.4980  133.0540   57.1330 O   0  0  0  0  0  0  0  0  0  0  0  0
  127.8820  130.3640   63.6240 C   0  0  0  0  0  0  0  0  0  0  0  0
  126.6330  130.3870   64.0260 N   0  0  0  0  0  0  0  0  0  0  0  0
  126.6170  129.7620   65.2690 N   0  0  0  0  0  0  0  0  0  0  0  0
  127.8550  129.4000   65.5160 C   0  0  0  0  0  0  0  0  0  0  0  0
  128.3930  128.6760   66.7060 C   0  0  0  0  0  0  0  0  0  0  0  0
  128.4840  129.3220   67.9430 C   0  0  0  0  0  0  0  0  0  0  0  0
  128.9800  128.6440   69.0530 C   0  0  0  0  0  0  0  0  0  0  0  0
  129.3870  127.3180   68.9290 C   0  0  0  0  0  0  0  0  0  0  0  0
  129.8670  126.6580   70.0070 F   0  0  0  0  0  0  0  0  0  0  0  0
  129.3020  126.6650   67.7010 C   0  0  0  0  0  0  0  0  0  0  0  0
  128.8050  127.3420   66.5910 C   0  0  0  0  0  0  0  0  0  0  0  0
  128.7010  129.7470   64.5120 O   0  0  0  0  0  0  0  0  0  0  0  0
  130.1700  128.3600   59.9590 O   0  0  0  0  0  0  0  0  0  0  0  0
  131.1490  127.5730   60.6000 C   0  0  2  0  0  0  0  0  0  0  0  0
  132.1160  127.3280   59.5980 O   0  0  0  0  0  0  0  0  0  0  0  0
  132.0500  126.0550   58.9350 C   0  0  1  0  0  0  0  0  0  0  0  0
  132.5120  126.3140   57.4900 C   0  0  0  0  0  0  0  0  0  0  0  0
  132.9140  125.0240   59.7010 C   0  0  0  0  0  0  0  0  0  0  0  0
  132.9240  125.1780   61.2300 C   0  0  0  0  0  0  0  0  0  0  0  0
  131.5500  125.3230   61.9430 C   0  0  1  0  0  0  0  0  0  0  0  0
  131.7910  125.7130   63.4400 C   0  0  2  0  0  0  0  0  0  0  0  0
  132.7290  124.7490   64.2010 C   0  0  0  0  0  0  0  0  0  0  0  0
  130.4530  125.8330   64.1850 C   0  0  0  0  0  0  0  0  0  0  0  0
  129.5990  126.9290   63.5570 C   0  0  0  0  0  0  0  0  0  0  0  0
  129.2500  126.5860   62.0870 C   0  0  2  0  0  0  0  0  0  0  0  0
  130.5160  126.2690   61.2000 C   0  0  1  0  0  0  0  0  0  0  0  0
  129.9820  125.5060   60.1030 O   0  0  0  0  0  0  0  0  0  0  0  0
  130.7210  125.5630   58.8240 O   0  0  0  0  0  0  0  0  0  0  0  0
  127.2733  127.9815   63.2451 H   0  0  0  0  0  0  0  0  0  0  0  0
  126.7981  129.0769   61.9031 H   0  0  0  0  0  0  0  0  0  0  0  0
  126.2499  127.3663   61.9031 H   0  0  0  0  0  0  0  0  0  0  0  0
  127.9449  127.0957   60.5149 H   0  0  0  0  0  0  0  0  0  0  0  0
  128.3778  129.4244   60.2480 H   0  0  0  0  0  0  0  0  0  0  0  0
  130.1083  129.4584   62.6495 H   0  0  0  0  0  0  0  0  0  0  0  0
  130.3286  130.5885   61.2330 H   0  0  0  0  0  0  0  0  0  0  0  0
  127.7188  130.8061   61.5349 H   0  0  0  0  0  0  0  0  0  0  0  0
  128.2801  132.8010   63.2532 H   0  0  0  0  0  0  0  0  0  0  0  0
  129.9678  132.3650   62.6471 H   0  0  0  0  0  0  0  0  0  0  0  0
  128.8398  134.2278   61.6049 H   0  0  0  0  0  0  0  0  0  0  0  0
  129.4312  130.8621   60.1760 H   0  0  0  0  0  0  0  0  0  0  0  0
  132.3796  132.9253   57.7748 H   0  0  0  0  0  0  0  0  0  0  0  0
  132.3809  131.9331   56.2775 H   0  0  0  0  0  0  0  0  0  0  0  0
  131.6152  133.5580   56.2775 H   0  0  0  0  0  0  0  0  0  0  0  0
  129.5168  131.1662   55.5547 H   0  0  0  0  0  0  0  0  0  0  0  0
  130.9791  130.2603   56.2059 H   0  0  0  0  0  0  0  0  0  0  0  0
  128.7922  129.0658   56.4091 H   0  0  0  0  0  0  0  0  0  0  0  0
  129.7646  129.3651   57.9618 H   0  0  0  0  0  0  0  0  0  0  0  0
  127.1709  130.6796   57.1170 H   0  0  0  0  0  0  0  0  0  0  0  0
  127.9951  128.9040   59.4605 H   0  0  0  0  0  0  0  0  0  0  0  0
  126.6445  127.1157   58.6010 H   0  0  0  0  0  0  0  0  0  0  0  0
  126.0010  128.1489   57.2800 H   0  0  0  0  0  0  0  0  0  0  0  0
  127.7308  127.6649   57.2800 H   0  0  0  0  0  0  0  0  0  0  0  0
  125.2574  130.1024   58.7141 H   0  0  0  0  0  0  0  0  0  0  0  0
  125.5238  128.9005   60.0264 H   0  0  0  0  0  0  0  0  0  0  0  0
  125.4639  131.1630   60.9711 H   0  0  0  0  0  0  0  0  0  0  0  0
  127.1313  130.4794   61.0993 H   0  0  0  0  0  0  0  0  0  0  0  0
  126.0867  132.3771   58.9922 H   0  0  0  0  0  0  0  0  0  0  0  0
  127.3110  134.1243   59.8063 H   0  0  0  0  0  0  0  0  0  0  0  0
  126.5363  133.5805   62.5537 H   0  0  0  0  0  0  0  0  0  0  0  0
  125.9236  134.7804   61.3657 H   0  0  0  0  0  0  0  0  0  0  0  0
  125.2757  133.1051   61.3657 H   0  0  0  0  0  0  0  0  0  0  0  0
  128.1625  130.3696   68.0392 H   0  0  0  0  0  0  0  0  0  0  0  0
  129.0502  129.1541   70.0251 H   0  0  0  0  0  0  0  0  0  0  0  0
  129.6266  125.6180   67.6091 H   0  0  0  0  0  0  0  0  0  0  0  0
  128.7356  126.8282   65.6209 H   0  0  0  0  0  0  0  0  0  0  0  0
  131.6088  128.0690   61.4675 H   0  0  0  0  0  0  0  0  0  0  0  0
  133.4714  126.8519   57.5026 H   0  0  0  0  0  0  0  0  0  0  0  0
  132.6366  125.3542   56.9673 H   0  0  0  0  0  0  0  0  0  0  0  0
  131.7582  126.9211   56.9673 H   0  0  0  0  0  0  0  0  0  0  0  0
  132.5336  124.0195   59.4637 H   0  0  0  0  0  0  0  0  0  0  0  0
  133.9501  125.1936   59.3727 H   0  0  0  0  0  0  0  0  0  0  0  0
  133.4206  124.2899   61.6479 H   0  0  0  0  0  0  0  0  0  0  0  0
  133.4385  126.1328   61.4134 H   0  0  0  0  0  0  0  0  0  0  0  0
  131.0483  124.3448   61.9051 H   0  0  0  0  0  0  0  0  0  0  0  0
  132.3029  126.6863   63.4140 H   0  0  0  0  0  0  0  0  0  0  0  0
  132.5954  124.8863   65.2842 H   0  0  0  0  0  0  0  0  0  0  0  0
  132.4859  123.7109   63.9302 H   0  0  0  0  0  0  0  0  0  0  0  0
  133.7733  124.9636   63.9302 H   0  0  0  0  0  0  0  0  0  0  0  0
  129.9163  124.8747   64.1253 H   0  0  0  0  0  0  0  0  0  0  0  0
  130.6487  126.0880   65.2370 H   0  0  0  0  0  0  0  0  0  0  0  0
  128.6677  127.0340   64.1329 H   0  0  0  0  0  0  0  0  0  0  0  0
  130.1690  127.8697   63.5719 H   0  0  0  0  0  0  0  0  0  0  0  0
  128.6599  125.6616   62.1719 H   0  0  0  0  0  0  0  0  0  0  0  0
  1  2  1  0
  2  3  1  0
  3  4  1  0
  4  5  1  0
  5  6  1  0
  6  7  1  0
  7  8  1  0
  8  9  1  0
  9 10  1  0
 10 11  1  0
 11 12  1  6
 11 13  1  0
 13 14  1  0
 14 15  1  0
 15 16  1  0
 16 17  1  0
 16 18  1  0
 18 19  1  0
 19 20  1  0
 20 21  1  0
 21 22  1  0
 20 23  1  0
 23 24  1  6
 24 25  1  0
  5 26  1  0
 26 27  2  0
 27 28  1  0
 28 29  2  0
 29 30  1  0
 30 31  2  0
 31 32  1  0
 32 33  2  0
 33 34  1  0
 33 35  1  0
 35 36  2  0
 29 37  1  0
  3 38  1  0
 38 39  1  0
 39 40  1  0
 40 41  1  0
 41 42  1  6
 41 43  1  0
 43 44  1  0
 44 45  1  0
 45 46  1  0
 46 47  1  0
 46 48  1  0
 48 49  1  0
 49 50  1  0
 50 51  1  0
 51 52  1  6
 52 53  1  0
 50  2  1  0
 21  7  1  0
 37 26  1  0
 51 39  1  0
 23  9  1  0
 36 30  1  0
 53 41  1  0
 25 11  1  0
 51 45  1  0
 23 15  1  0
  1 54  1  0
  1 55  1  0
  1 56  1  0
  2 57  1  6
  3 58  1  6
  4 59  1  0
  4 60  1  0
  5 61  1  0
  6 62  1  0
  6 63  1  0
  7 64  1  1
  9 65  1  1
 12 66  1  0
 12 67  1  0
 12 68  1  0
 13 69  1  0
 13 70  1  0
 14 71  1  0
 14 72  1  0
 15 73  1  6
 16 74  1  1
 17 75  1  0
 17 76  1  0
 17 77  1  0
 18 78  1  0
 18 79  1  0
 19 80  1  0
 19 81  1  0
 20 82  1  6
 21 83  1  6
 22 84  1  0
 22 85  1  0
 22 86  1  0
 31 87  1  0
 32 88  1  0
 35 89  1  0
 36 90  1  0
 39 91  1  1
 42 92  1  0
 42 93  1  0
 42 94  1  0
 43 95  1  0
 43 96  1  0
 44 97  1  0
 44 98  1  0
 45 99  1  1
 46100  1  6
 47101  1  0
 47102  1  0
 47103  1  0
 48104  1  0
 48105  1  0
 49106  1  0
 49107  1  0
 50108  1  1
M  END
>  <Binding energies>  (1) 
[-9.2]

>  <Ligand effiencies>  (1) 
[-0.1614035087719298]

>  <Interactions>  (1) 
["V-A:ASP:366:CA:3210, V-A:GLU:543:CA:4904, V-A:GLU:543:C:4902, V-B:GLU:543:CB:9878, V-A:ILE:538:CB:4862, V-B:ASP:366:CG:8184, V-B:LEU:475:CD2:9230, V-B:GLU:543:CG:9879, V-A:ASP:366:CG:3213, V-A:HIS:456:CD2:4068, V-A:TYR:539:CD1:4873, V-A:LEU:363:CD1:3189, H-B:TYR:539:OH:9850, V-A:ALA:541:CB:4892, V-A:GLU:543:CD:4908, H-B:TYR:484:OH:9319, V-B:HIS:456:CE1:9041, V-A:HIS:456:CE1:4070, V-A:ASP:366:C:3208, V-A:TYR:531:CZ:4794, V-A:GLU:543:CG:4907, V-B:GLU:543:CD:9880, V-A:MET:535:CE:4835, V-A:ASP:366:CB:3212, V-A:ARG:545:CZ:4926, V-A:GLU:543:CB:4906, V-A:PRO:540:N:4884, H-A:TYR:539:N:4870, V-A:PRO:540:CB:4885, V-A:PRO:540:CA:4883, V-A:PRO:540:CD:4887, V-A:TYR:539:CE1:4875"]

$$$$
ZINC169368152
     RDKit          3D

108112  0  0  0  0  0  0  0  0999 V2000
  133.4630  131.8860   61.8930 C   0  0  0  0  0  0  0  0  0  0  0  0
  132.1160  131.1700   61.7040 C   0  0  0  0  0  0  0  0  0  0  0  0
  131.5320  131.2790   60.2820 C   0  0  0  0  0  0  0  0  0  0  0  0
  132.5920  131.4700   59.1760 C   0  0  0  0  0  0  0  0  0  0  0  0
  132.3660  130.6040   57.9210 C   0  0  0  0  0  0  0  0  0  0  0  0
  131.6870  131.3400   56.7490 C   0  0  0  0  0  0  0  0  0  0  0  0
  130.1510  131.2420   56.7910 C   0  0  0  0  0  0  0  0  0  0  0  0
  129.4560  132.5990   56.5800 C   0  0  0  0  0  0  0  0  0  0  0  0
  128.3910  132.8990   57.6510 C   0  0  0  0  0  0  0  0  0  0  0  0
  128.8610  132.5570   59.0760 C   0  0  0  0  0  0  0  0  0  0  0  0
  127.7580  132.7560   60.1290 C   0  0  0  0  0  0  0  0  0  0  0  0
  128.0190  133.9510   61.0610 C   0  0  0  0  0  0  0  0  0  0  0  0
  128.7050  133.5380   62.6960 S   0  0  0  0  0  0  0  0  0  0  0  0
  127.2280  132.9830   63.6190 C   0  0  0  0  0  0  0  0  0  0  0  0
  126.5810  131.7240   63.0010 C   0  0  0  0  0  0  0  0  0  0  0  0
  125.4160  131.7280   62.5970 O   0  0  0  0  0  0  0  0  0  0  0  0
  127.4570  130.4420   62.9110 C   0  0  2  0  0  0  0  0  0  0  0  0
  128.6260  130.6840   63.6840 O   0  0  0  0  0  0  0  0  0  0  0  0
  127.8480  130.1080   61.4460 C   0  0  0  0  0  0  0  0  0  0  0  0
  128.4900  128.7140   61.2610 C   0  0  0  0  0  0  0  0  0  0  0  0
  129.2760  128.4460   60.1280 C   0  0  0  0  0  0  0  0  0  0  0  0
  129.4710  129.4830   59.2430 O   0  0  0  0  0  0  0  0  0  0  0  0
  129.8420  127.1730   59.8920 C   0  0  0  0  0  0  0  0  0  0  0  0
  129.6200  126.1390   60.8370 C   0  0  0  0  0  0  0  0  0  0  0  0
  128.8490  126.4260   61.9860 C   0  0  0  0  0  0  0  0  0  0  0  0
  128.6630  125.4770   62.9690 O   0  0  0  0  0  0  0  0  0  0  0  0
  128.2600  127.6840   62.1990 C   0  0  0  0  0  0  0  0  0  0  0  0
  127.5110  127.9660   63.5190 C   0  0  1  0  0  0  0  0  0  0  0  0
  128.4820  127.9880   64.5700 O   0  0  0  0  0  0  0  0  0  0  0  0
  128.7970  126.7850   65.2050 C   0  0  1  0  0  0  0  0  0  0  0  0
  130.1410  126.3300   64.6150 C   0  0  0  0  0  0  0  0  0  0  0  0
  130.6240  125.0410   65.3170 C   0  0  1  0  0  0  0  0  0  0  0  0
  131.9580  124.6840   64.8220 N   0  0  0  0  0  0  0  0  0  0  0  0
  132.3650  124.9260   63.6240 C   0  0  0  0  0  0  0  0  0  0  0  0
  131.7730  125.4800   62.6770 O   0  0  0  0  0  0  0  0  0  0  0  0
  133.8150  124.4530   63.3210 C   0  0  0  0  0  0  0  0  0  0  0  0
  133.9780  123.1420   63.5350 F   0  0  0  0  0  0  0  0  0  0  0  0
  134.1300  124.6890   62.0420 F   0  0  0  0  0  0  0  0  0  0  0  0
  134.6910  125.0970   64.0990 F   0  0  0  0  0  0  0  0  0  0  0  0
  130.6460  125.2540   66.8530 C   0  0  1  0  0  0  0  0  0  0  0  0
  131.6570  126.1740   67.2480 O   0  0  0  0  0  0  0  0  0  0  0  0
  129.2410  125.7470   67.2830 C   0  0  1  0  0  0  0  0  0  0  0  0
  129.1060  125.9720   68.7970 C   0  0  0  0  0  0  0  0  0  0  0  0
  128.9440  126.9710   66.5950 O   0  0  0  0  0  0  0  0  0  0  0  0
  126.6420  129.2410   63.4330 C   0  0  0  0  0  0  0  0  0  0  0  0
  130.2240  124.7630   60.6140 C   0  0  0  0  0  0  0  0  0  0  0  0
  129.8470  123.7750   61.2490 O   0  0  0  0  0  0  0  0  0  0  0  0
  131.4210  124.6910   59.6960 C   0  0  0  0  0  0  0  0  0  0  0  0
  132.3450  123.6170   59.7590 C   0  0  0  0  0  0  0  0  0  0  0  0
  132.1600  122.6210   60.7060 O   0  0  0  0  0  0  0  0  0  0  0  0
  133.2280  121.7420   61.0470 C   0  0  0  0  0  0  0  0  0  0  0  0
  133.4300  123.5950   58.8670 C   0  0  0  0  0  0  0  0  0  0  0  0
  133.6130  124.6070   57.9360 C   0  0  0  0  0  0  0  0  0  0  0  0
  132.7180  125.6640   57.8810 C   0  0  0  0  0  0  0  0  0  0  0  0
  131.6210  125.7250   58.7510 C   0  0  0  0  0  0  0  0  0  0  0  0
  130.6930  126.9010   58.6640 C   0  0  0  0  0  0  0  0  0  0  0  0
  130.7410  127.6710   57.7020 O   0  0  0  0  0  0  0  0  0  0  0  0
  133.6717  131.9969   62.9673 H   0  0  0  0  0  0  0  0  0  0  0  0
  134.2622  131.2937   61.4235 H   0  0  0  0  0  0  0  0  0  0  0  0
  133.4191  132.8798   61.4235 H   0  0  0  0  0  0  0  0  0  0  0  0
  132.2569  130.1043   61.9375 H   0  0  0  0  0  0  0  0  0  0  0  0
  131.4000  131.6648   62.3766 H   0  0  0  0  0  0  0  0  0  0  0  0
  130.9717  130.3570   60.0675 H   0  0  0  0  0  0  0  0  0  0  0  0
  130.8962  132.1765   60.2691 H   0  0  0  0  0  0  0  0  0  0  0  0
  132.5841  132.5268   58.8708 H   0  0  0  0  0  0  0  0  0  0  0  0
  133.5543  131.1549   59.6057 H   0  0  0  0  0  0  0  0  0  0  0  0
  133.3441  130.2377   57.5759 H   0  0  0  0  0  0  0  0  0  0  0  0
  131.6835  129.7944   58.2189 H   0  0  0  0  0  0  0  0  0  0  0  0
  131.9724  132.4016   56.7883 H   0  0  0  0  0  0  0  0  0  0  0  0
  132.0236  130.8605   55.8180 H   0  0  0  0  0  0  0  0  0  0  0  0
  129.8219  130.5528   55.9994 H   0  0  0  0  0  0  0  0  0  0  0  0
  129.8715  130.8812   57.7918 H   0  0  0  0  0  0  0  0  0  0  0  0
  130.2177  133.3921   56.6104 H   0  0  0  0  0  0  0  0  0  0  0  0
  128.9444  132.5604   55.6070 H   0  0  0  0  0  0  0  0  0  0  0  0
  128.1446  133.9703   57.6104 H   0  0  0  0  0  0  0  0  0  0  0  0
  127.5163  132.2689   57.4320 H   0  0  0  0  0  0  0  0  0  0  0  0
  129.1823  131.5052   59.0976 H   0  0  0  0  0  0  0  0  0  0  0  0
  129.6862  133.2399   59.3264 H   0  0  0  0  0  0  0  0  0  0  0  0
  126.8031  132.9207   59.6083 H   0  0  0  0  0  0  0  0  0  0  0  0
  127.7366  131.8517   60.7550 H   0  0  0  0  0  0  0  0  0  0  0  0
  128.7275  134.6248   60.5571 H   0  0  0  0  0  0  0  0  0  0  0  0
  127.0349  134.4035   61.2530 H   0  0  0  0  0  0  0  0  0  0  0  0
  127.5239  132.7555   64.6537 H   0  0  0  0  0  0  0  0  0  0  0  0
  126.4855  133.7936   63.5788 H   0  0  0  0  0  0  0  0  0  0  0  0
  129.1380  129.8720   63.7310 H   0  0  0  0  0  0  0  0  0  0  0  0
  126.9392  130.1535   60.8280 H   0  0  0  0  0  0  0  0  0  0  0  0
  128.6063  130.8463   61.1462 H   0  0  0  0  0  0  0  0  0  0  0  0
  130.0620  129.2520   58.5220 H   0  0  0  0  0  0  0  0  0  0  0  0
  129.3590  124.8170   62.9870 H   0  0  0  0  0  0  0  0  0  0  0  0
  126.7828  127.1696   63.7325 H   0  0  0  0  0  0  0  0  0  0  0  0
  127.9980  126.0452   65.0490 H   0  0  0  0  0  0  0  0  0  0  0  0
  130.0177  126.1336   63.5397 H   0  0  0  0  0  0  0  0  0  0  0  0
  130.8872  127.1234   64.7692 H   0  0  0  0  0  0  0  0  0  0  0  0
  129.9319  124.2161   65.0919 H   0  0  0  0  0  0  0  0  0  0  0  0
  130.8873  124.3043   67.3528 H   0  0  0  0  0  0  0  0  0  0  0  0
  132.1730  126.3980   66.4690 H   0  0  0  0  0  0  0  0  0  0  0  0
  128.5279  124.9529   67.0167 H   0  0  0  0  0  0  0  0  0  0  0  0
  129.5995  125.1495   69.3354 H   0  0  0  0  0  0  0  0  0  0  0  0
  129.5811  126.9259   69.0697 H   0  0  0  0  0  0  0  0  0  0  0  0
  128.0408  126.0017   69.0697 H   0  0  0  0  0  0  0  0  0  0  0  0
  125.8003  129.0553   62.7496 H   0  0  0  0  0  0  0  0  0  0  0  0
  126.2784  129.4815   64.4429 H   0  0  0  0  0  0  0  0  0  0  0  0
  133.3112  121.6735   62.1417 H   0  0  0  0  0  0  0  0  0  0  0  0
  133.0280  120.7434   60.6313 H   0  0  0  0  0  0  0  0  0  0  0  0
  134.1695  122.1304   60.6313 H   0  0  0  0  0  0  0  0  0  0  0  0
  134.1465  122.7613   58.9074 H   0  0  0  0  0  0  0  0  0  0  0  0
  134.4665  124.5707   57.2430 H   0  0  0  0  0  0  0  0  0  0  0  0
  132.8709  126.4662   57.1441 H   0  0  0  0  0  0  0  0  0  0  0  0
  1  2  1  0
  2  3  1  0
  3  4  1  0
  4  5  1  0
  5  6  1  0
  6  7  1  0
  7  8  1  0
  8  9  1  0
  9 10  1  0
 10 11  1  0
 11 12  1  0
 12 13  1  0
 13 14  1  0
 14 15  1  0
 15 16  2  0
 15 17  1  0
 17 18  1  1
 17 19  1  0
 19 20  1  0
 20 21  2  0
 21 22  1  0
 21 23  1  0
 23 24  2  0
 24 25  1  0
 25 26  1  0
 25 27  2  0
 27 28  1  0
 28 29  1  0
 29 30  1  0
 30 31  1  0
 31 32  1  0
 32 33  1  0
 33 34  2  0
 34 35  1  0
 34 36  1  0
 36 37  1  0
 36 38  1  0
 36 39  1  0
 32 40  1  0
 40 41  1  0
 40 42  1  0
 42 43  1  0
 42 44  1  0
 28 45  1  0
 24 46  1  0
 46 47  2  0
 46 48  1  0
 48 49  2  0
 49 50  1  0
 50 51  1  0
 49 52  1  0
 52 53  2  0
 53 54  1  0
 54 55  2  0
 55 56  1  0
 56 57  2  0
 45 17  1  0
 55 48  1  0
 27 20  1  0
 44 30  1  0
 56 23  1  0
  1 58  1  0
  1 59  1  0
  1 60  1  0
  2 61  1  0
  2 62  1  0
  3 63  1  0
  3 64  1  0
  4 65  1  0
  4 66  1  0
  5 67  1  0
  5 68  1  0
  6 69  1  0
  6 70  1  0
  7 71  1  0
  7 72  1  0
  8 73  1  0
  8 74  1  0
  9 75  1  0
  9 76  1  0
 10 77  1  0
 10 78  1  0
 11 79  1  0
 11 80  1  0
 12 81  1  0
 12 82  1  0
 14 83  1  0
 14 84  1  0
 18 85  1  0
 19 86  1  0
 19 87  1  0
 22 88  1  0
 26 89  1  0
 28 90  1  1
 30 91  1  1
 31 92  1  0
 31 93  1  0
 32 94  1  1
 40 95  1  1
 41 96  1  0
 42 97  1  6
 43 98  1  0
 43 99  1  0
 43100  1  0
 45101  1  0
 45102  1  0
 51103  1  0
 51104  1  0
 51105  1  0
 52106  1  0
 53107  1  0
 54108  1  0
M  CHG  1  35  -1
M  END
>  <Binding energies>  (1) 
[-4.87]

>  <Ligand effiencies>  (1) 
[-0.07983606557377049]

>  <Interactions>  (1) 
["V-A:ILE:369:CG2:3237, V-A:ASP:366:CA:3210, V-A:GLY:454:CA:4049, V-B:GLU:543:C:9874, H-A:GLU:543:OE2:4910, V-A:ILE:369:CB:3236, H-A:ALA:541:N:4891, V-B:GLU:543:CB:9878, H-A:TYR:531:OH:4795, V-B:TYR:539:CE2:9848, V-A:TYR:484:CE2:4346, V-B:LEU:475:CD2:9230, V-B:GLU:543:CG:9879, V-A:ASP:366:CG:3213, V-A:ASN:362:CB:3176, V-A:TYR:539:CD1:4873, V-A:LEU:363:CD1:3189, V-B:TYR:539:CZ:9849, H-B:GLU:543:OE1:9881, V-A:TYR:539:CZ:4877, V-A:TYR:531:CE2:4793, V-A:ALA:541:CB:4892, V-A:GLU:543:CD:4908, V-A:TYR:484:CZ:4347, V-B:GLU:543:CA:9876, V-A:GLY:453:C:4042, V-A:HIS:456:CE1:4070, V-A:ILE:369:CD1:3239, V-A:ASP:366:C:3208, V-A:MET:535:CE:4835, V-B:GLU:543:CD:9880, V-A:TYR:539:C:4867, V-A:ASP:366:CB:3212, V-A:ARG:545:CD:4923, V-A:LEU:475:CD2:4259, H-A:ARG:545:NH2:4928, V-A:ARG:545:CZ:4926, H-A:GLU:543:OE1:4909, V-A:TYR:539:CG:4872, V-A:PRO:540:CB:4885, V-A:PRO:540:CA:4883, V-A:GLY:453:CA:4044, V-A:TYR:539:CE1:4875, H-A:TYR:484:OH:4348"]

$$$$
ZINC169368152-again1
     RDKit          3D

109113  0  0  0  0  0  0  0  0999 V2000
  129.9370  118.3730   61.6340 C   0  0  0  0  0  0  0  0  0  0  0  0
  131.0030  119.1170   60.8190 C   0  0  0  0  0  0  0  0  0  0  0  0
  130.8860  120.6500   60.9310 C   0  0  0  0  0  0  0  0  0  0  0  0
  132.2350  121.3800   61.0810 C   0  0  0  0  0  0  0  0  0  0  0  0
  132.3850  122.1710   62.3970 C   0  0  0  0  0  0  0  0  0  0  0  0
  133.6640  123.0290   62.4810 C   0  0  0  0  0  0  0  0  0  0  0  0
  133.4030  124.5320   62.6940 C   0  0  0  0  0  0  0  0  0  0  0  0
  132.7370  125.2070   61.4810 C   0  0  0  0  0  0  0  0  0  0  0  0
  133.3400  124.7420   60.1420 C   0  0  0  0  0  0  0  0  0  0  0  0
  132.3090  124.2650   59.1010 C   0  0  0  0  0  0  0  0  0  0  0  0
  130.9000  124.0090   59.6740 C   0  0  0  0  0  0  0  0  0  0  0  0
  129.7770  124.0770   58.6270 C   0  0  0  0  0  0  0  0  0  0  0  0
  129.8380  125.4940   57.4900 S   0  0  0  0  0  0  0  0  0  0  0  0
  128.2950  125.2320   56.5620 C   0  0  0  0  0  0  0  0  0  0  0  0
  127.1580  125.9170   57.3330 C   0  0  0  0  0  0  0  0  0  0  0  0
  126.0050  125.8110   56.9090 O   0  0  0  0  0  0  0  0  0  0  0  0
  127.4590  126.7560   58.6110 C   0  0  2  0  0  0  0  0  0  0  0  0
  128.4840  127.6910   58.3070 O   0  0  0  0  0  0  0  0  0  0  0  0
  127.9180  125.8070   59.7440 C   0  0  0  0  0  0  0  0  0  0  0  0
  128.0160  126.4790   61.1320 C   0  0  0  0  0  0  0  0  0  0  0  0
  128.8170  125.9110   62.1360 C   0  0  0  0  0  0  0  0  0  0  0  0
  129.4850  124.7480   61.8180 O   0  0  0  0  0  0  0  0  0  0  0  0
  128.9240  126.4820   63.4260 C   0  0  0  0  0  0  0  0  0  0  0  0
  128.1900  127.6590   63.7140 C   0  0  0  0  0  0  0  0  0  0  0  0
  127.3690  128.2120   62.7040 C   0  0  0  0  0  0  0  0  0  0  0  0
  126.6270  129.3500   62.9370 O   0  0  0  0  0  0  0  0  0  0  0  0
  127.2650  127.6400   61.4250 C   0  0  0  0  0  0  0  0  0  0  0  0
  126.4540  128.3620   60.3280 C   0  0  1  0  0  0  0  0  0  0  0  0
  127.1480  129.5740   60.0050 O   0  0  0  0  0  0  0  0  0  0  0  0
  127.4400  130.5190   60.9980 C   0  0  1  0  0  0  0  0  0  0  0  0
  128.9560  130.5420   61.2960 C   0  0  0  0  0  0  0  0  0  0  0  0
  129.3380  131.6970   62.2500 C   0  0  1  0  0  0  0  0  0  0  0  0
  130.7810  131.7410   62.5060 N   0  0  0  0  0  0  0  0  0  0  0  0
  131.7450  131.8610   61.5690 C   0  0  0  0  0  0  0  0  0  0  0  0
  131.4950  131.9990   60.3700 O   0  0  0  0  0  0  0  0  0  0  0  0
  133.2080  131.8660   62.0440 C   0  0  0  0  0  0  0  0  0  0  0  0
  133.3830  131.0600   63.0960 F   0  0  0  0  0  0  0  0  0  0  0  0
  134.0010  131.4660   61.0490 F   0  0  0  0  0  0  0  0  0  0  0  0
  133.5490  133.1070   62.3900 F   0  0  0  0  0  0  0  0  0  0  0  0
  128.7050  133.0290   61.7720 C   0  0  1  0  0  0  0  0  0  0  0  0
  129.3920  133.5390   60.6400 O   0  0  0  0  0  0  0  0  0  0  0  0
  127.1970  132.8120   61.5120 C   0  0  1  0  0  0  0  0  0  0  0  0
  126.4690  134.0780   61.0320 C   0  0  0  0  0  0  0  0  0  0  0  0
  127.0330  131.7820   60.5320 O   0  0  0  0  0  0  0  0  0  0  0  0
  126.1740  127.4550   59.1080 C   0  0  0  0  0  0  0  0  0  0  0  0
  128.2940  128.3020   65.0880 C   0  0  0  0  0  0  0  0  0  0  0  0
  127.9030  129.4520   65.3010 O   0  0  0  0  0  0  0  0  0  0  0  0
  128.7540  127.4130   66.2200 C   0  0  0  0  0  0  0  0  0  0  0  0
  128.4730  127.7250   67.5750 C   0  0  0  0  0  0  0  0  0  0  0  0
  127.7360  128.8640   67.8670 O   0  0  0  0  0  0  0  0  0  0  0  0
  128.3750  130.1330   67.9540 C   0  0  0  0  0  0  0  0  0  0  0  0
  128.9400  126.8690   68.5870 C   0  0  0  0  0  0  0  0  0  0  0  0
  129.6610  125.7240   68.2800 C   0  0  0  0  0  0  0  0  0  0  0  0
  129.9270  125.4120   66.9560 C   0  0  0  0  0  0  0  0  0  0  0  0
  129.4850  126.2400   65.9150 C   0  0  0  0  0  0  0  0  0  0  0  0
  129.7920  125.8510   64.4990 C   0  0  0  0  0  0  0  0  0  0  0  0
  130.6140  124.9630   64.2570 O   0  0  0  0  0  0  0  0  0  0  0  0
  130.1340  118.5105   62.7074 H   0  0  0  0  0  0  0  0  0  0  0  0
  128.9423  118.7741   61.3894 H   0  0  0  0  0  0  0  0  0  0  0  0
  129.9704  117.3011   61.3894 H   0  0  0  0  0  0  0  0  0  0  0  0
  131.9963  118.8139   61.1817 H   0  0  0  0  0  0  0  0  0  0  0  0
  130.8532  118.8520   59.7620 H   0  0  0  0  0  0  0  0  0  0  0  0
  130.3906  121.0249   60.0233 H   0  0  0  0  0  0  0  0  0  0  0  0
  130.3129  120.8560   61.8471 H   0  0  0  0  0  0  0  0  0  0  0  0
  133.0392  120.6309   61.0356 H   0  0  0  0  0  0  0  0  0  0  0  0
  132.2888  122.1144   60.2638 H   0  0  0  0  0  0  0  0  0  0  0  0
  131.5159  122.8376   62.4990 H   0  0  0  0  0  0  0  0  0  0  0  0
  132.4515  121.4275   63.2050 H   0  0  0  0  0  0  0  0  0  0  0  0
  134.2712  122.6618   63.3215 H   0  0  0  0  0  0  0  0  0  0  0  0
  134.1746  122.9311   61.5116 H   0  0  0  0  0  0  0  0  0  0  0  0
  132.7448  124.6528   63.5670 H   0  0  0  0  0  0  0  0  0  0  0  0
  134.3791  125.0165   62.8441 H   0  0  0  0  0  0  0  0  0  0  0  0
  131.6640  124.9648   61.4877 H   0  0  0  0  0  0  0  0  0  0  0  0
  132.9078  126.2903   61.5660 H   0  0  0  0  0  0  0  0  0  0  0  0
  133.9003  125.5834   59.7083 H   0  0  0  0  0  0  0  0  0  0  0  0
  133.9730  123.8724   60.3724 H   0  0  0  0  0  0  0  0  0  0  0  0
  132.2282  125.0341   58.3187 H   0  0  0  0  0  0  0  0  0  0  0  0
  132.6726  123.3006   58.7166 H   0  0  0  0  0  0  0  0  0  0  0  0
  130.8884  123.0076   60.1290 H   0  0  0  0  0  0  0  0  0  0  0  0
  130.7034  124.8083   60.4037 H   0  0  0  0  0  0  0  0  0  0  0  0
  129.8223  123.1583   58.0237 H   0  0  0  0  0  0  0  0  0  0  0  0
  128.8438  124.1927   59.1978 H   0  0  0  0  0  0  0  0  0  0  0  0
  128.3836  125.6721   55.5578 H   0  0  0  0  0  0  0  0  0  0  0  0
  128.0909  124.1565   56.4541 H   0  0  0  0  0  0  0  0  0  0  0  0
  128.2530  128.5350   58.7060 H   0  0  0  0  0  0  0  0  0  0  0  0
  127.1985  124.9778   59.8122 H   0  0  0  0  0  0  0  0  0  0  0  0
  128.9323  125.4706   59.4832 H   0  0  0  0  0  0  0  0  0  0  0  0
  130.0680  124.4480   62.5180 H   0  0  0  0  0  0  0  0  0  0  0  0
  126.4910  129.5220   63.8710 H   0  0  0  0  0  0  0  0  0  0  0  0
  125.4491  128.6156   60.6966 H   0  0  0  0  0  0  0  0  0  0  0  0
  126.9104  130.2575   61.9260 H   0  0  0  0  0  0  0  0  0  0  0  0
  129.2416  129.5871   61.7613 H   0  0  0  0  0  0  0  0  0  0  0  0
  129.4882  130.6945   60.3455 H   0  0  0  0  0  0  0  0  0  0  0  0
  128.9032  131.5091   63.2428 H   0  0  0  0  0  0  0  0  0  0  0  0
  131.0670  131.5730   63.4600 H   0  0  0  0  0  0  0  0  0  0  0  0
  128.8044  133.7931   62.5570 H   0  0  0  0  0  0  0  0  0  0  0  0
  129.5260  132.8200   60.0170 H   0  0  0  0  0  0  0  0  0  0  0  0
  126.7468  132.5283   62.4747 H   0  0  0  0  0  0  0  0  0  0  0  0
  126.1339  134.6607   61.9027 H   0  0  0  0  0  0  0  0  0  0  0  0
  127.1547  134.6873   60.4249 H   0  0  0  0  0  0  0  0  0  0  0  0
  125.5975  133.7919   60.4249 H   0  0  0  0  0  0  0  0  0  0  0  0
  125.4389  126.6885   59.3945 H   0  0  0  0  0  0  0  0  0  0  0  0
  125.7882  128.0848   58.2929 H   0  0  0  0  0  0  0  0  0  0  0  0
  128.5111  130.4033   69.0116 H   0  0  0  0  0  0  0  0  0  0  0  0
  129.3560  130.0843   67.4588 H   0  0  0  0  0  0  0  0  0  0  0  0
  127.7517  130.8921   67.4588 H   0  0  0  0  0  0  0  0  0  0  0  0
  128.7305  127.1106   69.6395 H   0  0  0  0  0  0  0  0  0  0  0  0
  130.0204  125.0659   69.0849 H   0  0  0  0  0  0  0  0  0  0  0  0
  130.4941  124.4999   66.7184 H   0  0  0  0  0  0  0  0  0  0  0  0
  1  2  1  0
  2  3  1  0
  3  4  1  0
  4  5  1  0
  5  6  1  0
  6  7  1  0
  7  8  1  0
  8  9  1  0
  9 10  1  0
 10 11  1  0
 11 12  1  0
 12 13  1  0
 13 14  1  0
 14 15  1  0
 15 16  2  0
 15 17  1  0
 17 18  1  6
 17 19  1  0
 19 20  1  0
 20 21  2  0
 21 22  1  0
 21 23  1  0
 23 24  2  0
 24 25  1  0
 25 26  1  0
 25 27  2  0
 27 28  1  0
 28 29  1  0
 29 30  1  0
 30 31  1  0
 31 32  1  0
 32 33  1  0
 33 34  1  0
 34 35  2  0
 34 36  1  0
 36 37  1  0
 36 38  1  0
 36 39  1  0
 32 40  1  0
 40 41  1  0
 40 42  1  0
 42 43  1  0
 42 44  1  0
 28 45  1  0
 24 46  1  0
 46 47  2  0
 46 48  1  0
 48 49  2  0
 49 50  1  0
 50 51  1  0
 49 52  1  0
 52 53  2  0
 53 54  1  0
 54 55  2  0
 55 56  1  0
 56 57  2  0
 45 17  1  0
 55 48  1  0
 27 20  1  0
 44 30  1  0
 56 23  1  0
  1 58  1  0
  1 59  1  0
  1 60  1  0
  2 61  1  0
  2 62  1  0
  3 63  1  0
  3 64  1  0
  4 65  1  0
  4 66  1  0
  5 67  1  0
  5 68  1  0
  6 69  1  0
  6 70  1  0
  7 71  1  0
  7 72  1  0
  8 73  1  0
  8 74  1  0
  9 75  1  0
  9 76  1  0
 10 77  1  0
 10 78  1  0
 11 79  1  0
 11 80  1  0
 12 81  1  0
 12 82  1  0
 14 83  1  0
 14 84  1  0
 18 85  1  0
 19 86  1  0
 19 87  1  0
 22 88  1  0
 26 89  1  0
 28 90  1  1
 30 91  1  1
 31 92  1  0
 31 93  1  0
 32 94  1  1
 33 95  1  0
 40 96  1  1
 41 97  1  0
 42 98  1  1
 43 99  1  0
 43100  1  0
 43101  1  0
 45102  1  0
 45103  1  0
 51104  1  0
 51105  1  0
 51106  1  0
 52107  1  0
 53108  1  0
 54109  1  0
M  END
>  <Binding energies>  (1) 
[-6.02]

>  <Ligand effiencies>  (1) 
[-0.09709677419354838]

>  <Interactions>  (1) 
["V-A:ASP:366:CA:3210, V-A:ALA:541:C:4888, V-A:GLY:454:CA:4049, V-B:GLU:543:C:9874, V-A:GLU:543:CA:4904, V-A:GLU:543:C:4902, H-A:ALA:541:N:4891, V-B:GLU:543:CB:9878, V-A:PRO:540:C:4881, H-A:ALA:541:O:4889, V-B:ALA:541:CB:9864, V-B:ASP:366:CG:8184, V-B:TYR:539:CE2:9848, V-A:LEU:475:CG:4257, V-B:GLU:543:CG:9879, V-B:LEU:475:CD2:9230, V-A:ASP:366:CG:3213, V-A:ASN:362:CB:3176, V-A:TYR:539:CD1:4873, V-B:TYR:484:CE2:9317, V-B:TYR:539:CZ:9849, H-B:TYR:539:OH:9850, V-A:ALA:541:CB:4892, V-A:LEU:475:CD1:4258, V-B:ASP:366:CB:8183, V-A:GLU:543:CD:4908, H-B:TYR:484:OH:9319, V-A:ASN:362:CG:3177, V-B:HIS:456:CE1:9041, V-B:GLU:543:CA:9876, V-A:HIS:456:CE1:4070, V-B:TYR:484:CZ:9318, V-A:ALA:541:CA:4890, V-A:PRO:482:CB:4326, V-B:TYR:539:CD2:9846, V-A:GLU:543:CG:4907, V-B:GLU:543:CD:9880, H-B:TYR:531:OH:9767, V-A:ASP:366:CB:3212, V-A:LEU:475:CD2:4259, V-A:ASN:362:C:3172, V-A:ARG:545:CZ:4926, H-A:GLU:543:OE1:4909, V-A:GLU:543:CB:4906, H-A:TYR:539:O:4868, H-B:GLU:543:OE2:9882, V-A:PRO:540:CA:4883, V-A:PRO:540:CB:4885, V-A:ASN:362:CA:3174, V-A:LEU:363:CA:3185, V-A:TYR:539:CE1:4875, V-A:ASN:359:CB:3151"]

$$$$
ZINC169371223
     RDKit          3D

 49 52  0  0  0  0  0  0  0  0999 V2000
  129.5160  126.1200   67.3780 C   0  0  0  0  0  0  0  0  0  0  0  0
  130.5710  125.1060   66.9150 C   0  0  0  0  0  0  0  0  0  0  0  0
  131.0620  125.3650   65.4770 C   0  0  0  0  0  0  0  0  0  0  0  0
  129.9780  125.1870   64.3820 C   0  0  1  0  0  0  0  0  0  0  0  0
  130.2890  125.9600   63.0600 C   0  0  0  0  0  0  0  0  0  0  0  0
  129.5340  125.5990   61.8900 O   0  0  0  0  0  0  0  0  0  0  0  0
  128.3630  124.9000   62.1860 C   0  0  1  0  0  0  0  0  0  0  0  0
  127.5450  124.8620   61.0350 O   0  0  0  0  0  0  0  0  0  0  0  0
  126.9380  123.5990   60.7240 C   0  0  1  0  0  0  0  0  0  0  0  0
  125.6290  123.9470   59.9920 C   0  0  0  0  0  0  0  0  0  0  0  0
  127.9050  122.7320   59.8830 C   0  0  0  0  0  0  0  0  0  0  0  0
  129.3840  122.7920   60.2930 C   0  0  0  0  0  0  0  0  0  0  0  0
  129.6720  122.6150   61.8050 C   0  0  1  0  0  0  0  0  0  0  0  0
  131.2090  122.7150   62.1000 C   0  0  2  0  0  0  0  0  0  0  0  0
  132.1740  121.9770   61.1470 C   0  0  0  0  0  0  0  0  0  0  0  0
  131.5790  122.4830   63.5860 C   0  0  0  0  0  0  0  0  0  0  0  0
  130.3670  122.5550   64.5300 C   0  0  0  0  0  0  0  0  0  0  0  0
  129.4240  123.7290   64.1740 C   0  0  2  0  0  0  0  0  0  0  0  0
  128.7640  123.5110   62.7600 C   0  0  1  0  0  0  0  0  0  0  0  0
  127.5450  122.7900   62.9700 O   0  0  0  0  0  0  0  0  0  0  0  0
  126.5300  122.8840   61.8920 O   0  0  0  0  0  0  0  0  0  0  0  0
  129.4895  126.1454   68.4774 H   0  0  0  0  0  0  0  0  0  0  0  0
  129.7736  127.1182   66.9942 H   0  0  0  0  0  0  0  0  0  0  0  0
  128.5288  125.8231   66.9942 H   0  0  0  0  0  0  0  0  0  0  0  0
  131.4334  125.1614   67.5956 H   0  0  0  0  0  0  0  0  0  0  0  0
  130.1013  124.1114   66.9292 H   0  0  0  0  0  0  0  0  0  0  0  0
  131.4373  126.3976   65.4235 H   0  0  0  0  0  0  0  0  0  0  0  0
  131.8378  124.6125   65.2725 H   0  0  0  0  0  0  0  0  0  0  0  0
  129.1046  125.6945   64.8176 H   0  0  0  0  0  0  0  0  0  0  0  0
  130.1096  127.0281   63.2521 H   0  0  0  0  0  0  0  0  0  0  0  0
  131.3288  125.6958   62.8170 H   0  0  0  0  0  0  0  0  0  0  0  0
  127.7546  125.3923   62.9590 H   0  0  0  0  0  0  0  0  0  0  0  0
  124.8407  124.1566   60.7300 H   0  0  0  0  0  0  0  0  0  0  0  0
  125.7863  124.8345   59.3615 H   0  0  0  0  0  0  0  0  0  0  0  0
  125.3248  123.0985   59.3615 H   0  0  0  0  0  0  0  0  0  0  0  0
  127.5751  121.6856   59.9614 H   0  0  0  0  0  0  0  0  0  0  0  0
  127.8609  123.1394   58.8622 H   0  0  0  0  0  0  0  0  0  0  0  0
  129.9167  121.9957   59.7524 H   0  0  0  0  0  0  0  0  0  0  0  0
  129.7230  123.8077   60.0411 H   0  0  0  0  0  0  0  0  0  0  0  0
  129.3620  121.5922   62.0654 H   0  0  0  0  0  0  0  0  0  0  0  0
  131.3870  123.7745   61.8639 H   0  0  0  0  0  0  0  0  0  0  0  0
  132.9116  121.4129   61.7367 H   0  0  0  0  0  0  0  0  0  0  0  0
  131.6033  121.2827   60.5127 H   0  0  0  0  0  0  0  0  0  0  0  0
  132.6945  122.7096   60.5127 H   0  0  0  0  0  0  0  0  0  0  0  0
  132.0375  121.4876   63.6809 H   0  0  0  0  0  0  0  0  0  0  0  0
  132.2708  123.2861   63.8801 H   0  0  0  0  0  0  0  0  0  0  0  0
  129.8040  121.6128   64.4576 H   0  0  0  0  0  0  0  0  0  0  0  0
  130.7412  122.7175   65.5516 H   0  0  0  0  0  0  0  0  0  0  0  0
  128.6414  123.6864   64.9458 H   0  0  0  0  0  0  0  0  0  0  0  0
  1  2  1  0
  2  3  1  0
  3  4  1  0
  4  5  1  0
  5  6  1  0
  6  7  1  0
  7  8  1  0
  8  9  1  0
  9 10  1  6
  9 11  1  0
 11 12  1  0
 12 13  1  0
 13 14  1  0
 14 15  1  0
 14 16  1  0
 16 17  1  0
 17 18  1  0
 18 19  1  0
 19 20  1  1
 20 21  1  0
 18  4  1  0
 19  7  1  0
 21  9  1  0
 19 13  1  0
  1 22  1  0
  1 23  1  0
  1 24  1  0
  2 25  1  0
  2 26  1  0
  3 27  1  0
  3 28  1  0
  4 29  1  1
  5 30  1  0
  5 31  1  0
  7 32  1  1
 10 33  1  0
 10 34  1  0
 10 35  1  0
 11 36  1  0
 11 37  1  0
 12 38  1  0
 12 39  1  0
 13 40  1  1
 14 41  1  6
 15 42  1  0
 15 43  1  0
 15 44  1  0
 16 45  1  0
 16 46  1  0
 17 47  1  0
 17 48  1  0
 18 49  1  1
M  END
>  <Binding energies>  (1) 
[-6.1]

>  <Ligand effiencies>  (1) 
[-0.2652173913043478]

>  <Interactions>  (1) 
["V-B:PRO:540:CA:9855, V-A:HIS:456:CE1:4070, V-B:GLU:543:CB:9878, V-B:TYR:539:CD2:9846, H-B:ALA:541:N:9863, V-B:GLU:543:CD:9880, V-B:ALA:541:CB:9864, V-B:TYR:539:CE2:9848, V-B:PRO:540:CB:9857, V-A:TYR:484:CE2:4346, V-A:TYR:484:CZ:4347, V-A:LEU:475:CD2:4259, V-A:GLU:543:CD:4908, V-B:GLU:543:CG:9879, V-B:TYR:539:C:9839, V-B:PRO:540:N:9856"]

$$$$
ZINC169373030
     RDKit          3D

 96103  0  0  0  0  0  0  0  0999 V2000
  132.4320  131.1650   59.0950 C   0  0  0  0  0  0  0  0  0  0  0  0
  131.0460  130.6310   59.5200 C   0  0  2  0  0  0  0  0  0  0  0  0
  130.4810  131.4930   60.6670 C   0  0  0  0  0  0  0  0  0  0  0  0
  129.0930  131.0100   61.0920 C   0  0  0  0  0  0  0  0  0  0  0  0
  129.1790  129.5560   61.6090 C   0  0  1  0  0  0  0  0  0  0  0  0
  127.8540  129.0150   62.2110 C   0  0  1  0  0  0  0  0  0  0  0  0
  127.2120  129.8960   63.3150 C   0  0  0  0  0  0  0  0  0  0  0  0
  128.3240  130.3690   64.6730 S   0  0  0  0  0  0  0  0  0  0  0  0
  127.7060  129.3020   66.0100 C   0  0  0  0  0  0  0  0  0  0  0  0
  128.7600  128.5130   66.8110 C   0  0  0  0  0  0  0  0  0  0  0  0
  128.1850  127.3180   67.6020 C   0  0  0  0  0  0  0  0  0  0  0  0
  129.2520  126.4840   68.3290 C   0  0  0  0  0  0  0  0  0  0  0  0
  129.8800  125.0520   67.4010 S   0  0  0  0  0  0  0  0  0  0  0  0
  131.4270  125.7120   66.6910 C   0  0  0  0  0  0  0  0  0  0  0  0
  131.9470  125.0550   65.3820 C   0  0  2  0  0  0  0  0  0  0  0  0
  133.4960  124.9820   65.3690 C   0  0  0  0  0  0  0  0  0  0  0  0
  134.2620  125.1320   66.3190 O   0  0  0  0  0  0  0  0  0  0  0  0
  134.0880  124.8380   64.1450 O   0  0  0  0  0  0  0  0  0  0  0  0
  133.3640  124.2310   63.1070 C   0  0  2  0  0  0  0  0  0  0  0  0
  134.2260  124.1960   62.0000 O   0  0  0  0  0  0  0  0  0  0  0  0
  133.5830  124.2070   60.7280 C   0  0  1  0  0  0  0  0  0  0  0  0
  134.7350  124.2720   59.7100 C   0  0  0  0  0  0  0  0  0  0  0  0
  132.6770  122.9490   60.5760 C   0  0  0  0  0  0  0  0  0  0  0  0
  131.2090  123.0990   61.0250 C   0  0  0  0  0  0  0  0  0  0  0  0
  130.9410  123.7170   62.4320 C   0  0  2  0  0  0  0  0  0  0  0  0
  129.4260  124.1000   62.5400 C   0  0  1  0  0  0  0  0  0  0  0  0
  128.4700  122.9000   62.3570 C   0  0  0  0  0  0  0  0  0  0  0  0
  129.1200  124.8160   63.8660 C   0  0  0  0  0  0  0  0  0  0  0  0
  129.9690  126.0780   63.9870 C   0  0  0  0  0  0  0  0  0  0  0  0
  131.4720  125.7210   64.0570 C   0  0  2  0  0  0  0  0  0  0  0  0
  131.9520  124.8730   62.8260 C   0  0  1  0  0  0  0  0  0  0  0  0
  132.0570  125.8190   61.7470 O   0  0  0  0  0  0  0  0  0  0  0  0
  132.8350  125.4040   60.5510 O   0  0  0  0  0  0  0  0  0  0  0  0
  126.8120  128.6150   61.1370 C   0  0  0  0  0  0  0  0  0  0  0  0
  125.5910  128.6120   61.2820 O   0  0  0  0  0  0  0  0  0  0  0  0
  127.2430  128.2260   59.8910 O   0  0  0  0  0  0  0  0  0  0  0  0
  128.5680  128.3750   59.4180 C   0  0  2  0  0  0  0  0  0  0  0  0
  128.8040  127.2630   58.5750 O   0  0  0  0  0  0  0  0  0  0  0  0
  129.7930  126.3140   59.0010 C   0  0  1  0  0  0  0  0  0  0  0  0
  129.3620  124.9680   58.3930 C   0  0  0  0  0  0  0  0  0  0  0  0
  131.2120  126.7820   58.5750 C   0  0  0  0  0  0  0  0  0  0  0  0
  131.4510  128.3020   58.5820 C   0  0  0  0  0  0  0  0  0  0  0  0
  131.0360  129.0970   59.8570 C   0  0  2  0  0  0  0  0  0  0  0  0
  129.6780  128.6010   60.4930 C   0  0  1  0  0  0  0  0  0  0  0  0
  129.9470  127.3630   61.1780 O   0  0  0  0  0  0  0  0  0  0  0  0
  129.7720  126.1210   60.4050 O   0  0  0  0  0  0  0  0  0  0  0  0
  133.0272  131.3943   59.9912 H   0  0  0  0  0  0  0  0  0  0  0  0
  132.9507  130.4024   58.4956 H   0  0  0  0  0  0  0  0  0  0  0  0
  132.3049  132.0785   58.4956 H   0  0  0  0  0  0  0  0  0  0  0  0
  130.3786  130.7227   58.6504 H   0  0  0  0  0  0  0  0  0  0  0  0
  131.1612  131.4327   61.5294 H   0  0  0  0  0  0  0  0  0  0  0  0
  130.3945  132.5306   60.3121 H   0  0  0  0  0  0  0  0  0  0  0  0
  128.7096  131.6599   61.8924 H   0  0  0  0  0  0  0  0  0  0  0  0
  128.4151  131.0478   60.2266 H   0  0  0  0  0  0  0  0  0  0  0  0
  129.9062  129.5849   62.4338 H   0  0  0  0  0  0  0  0  0  0  0  0
  128.1787  128.0986   62.7256 H   0  0  0  0  0  0  0  0  0  0  0  0
  126.8414  130.8175   62.8422 H   0  0  0  0  0  0  0  0  0  0  0  0
  126.4183  129.2850   63.7696 H   0  0  0  0  0  0  0  0  0  0  0  0
  127.1579  129.9400   66.7189 H   0  0  0  0  0  0  0  0  0  0  0  0
  127.0929  128.5381   65.5094 H   0  0  0  0  0  0  0  0  0  0  0  0
  129.5141  128.1309   66.1072 H   0  0  0  0  0  0  0  0  0  0  0  0
  129.1834  129.2089   67.5502 H   0  0  0  0  0  0  0  0  0  0  0  0
  127.4783  127.7055   68.3506 H   0  0  0  0  0  0  0  0  0  0  0  0
  127.7017  126.6529   66.8712 H   0  0  0  0  0  0  0  0  0  0  0  0
  130.1033  127.1430   68.5551 H   0  0  0  0  0  0  0  0  0  0  0  0
  128.7621  126.0759   69.2254 H   0  0  0  0  0  0  0  0  0  0  0  0
  131.2661  126.7802   66.4834 H   0  0  0  0  0  0  0  0  0  0  0  0
  132.1992  125.4931   67.4432 H   0  0  0  0  0  0  0  0  0  0  0  0
  131.4980  124.0510   65.4033 H   0  0  0  0  0  0  0  0  0  0  0  0
  133.0704  123.2099   63.3921 H   0  0  0  0  0  0  0  0  0  0  0  0
  135.6946  124.3261   60.2451 H   0  0  0  0  0  0  0  0  0  0  0  0
  134.7176  123.3714   59.0786 H   0  0  0  0  0  0  0  0  0  0  0  0
  134.6164  125.1649   59.0786 H   0  0  0  0  0  0  0  0  0  0  0  0
  132.6740  122.6660   59.5130 H   0  0  0  0  0  0  0  0  0  0  0  0
  133.1113  122.1948   61.2488 H   0  0  0  0  0  0  0  0  0  0  0  0
  130.7023  123.7355   60.2846 H   0  0  0  0  0  0  0  0  0  0  0  0
  130.8337  122.0676   61.0981 H   0  0  0  0  0  0  0  0  0  0  0  0
  131.1484  122.9578   63.2005 H   0  0  0  0  0  0  0  0  0  0  0  0
  129.2406  124.7890   61.7028 H   0  0  0  0  0  0  0  0  0  0  0  0
  128.1666  122.5192   63.3434 H   0  0  0  0  0  0  0  0  0  0  0  0
  127.5789  123.2229   61.7987 H   0  0  0  0  0  0  0  0  0  0  0  0
  128.9839  122.1036   61.7987 H   0  0  0  0  0  0  0  0  0  0  0  0
  128.0550  125.0896   63.8947 H   0  0  0  0  0  0  0  0  0  0  0  0
  129.3552  124.1416   64.7026 H   0  0  0  0  0  0  0  0  0  0  0  0
  129.7905  126.7187   63.1108 H   0  0  0  0  0  0  0  0  0  0  0  0
  129.6877  126.6064   64.9099 H   0  0  0  0  0  0  0  0  0  0  0  0
  131.9559  126.7084   64.0281 H   0  0  0  0  0  0  0  0  0  0  0  0
  128.6433  129.3275   58.8730 H   0  0  0  0  0  0  0  0  0  0  0  0
  129.1343  124.2569   59.2008 H   0  0  0  0  0  0  0  0  0  0  0  0
  128.4664  125.1163   57.7718 H   0  0  0  0  0  0  0  0  0  0  0  0
  130.1771  124.5685   57.7718 H   0  0  0  0  0  0  0  0  0  0  0  0
  131.9381  126.3239   59.2627 H   0  0  0  0  0  0  0  0  0  0  0  0
  131.3255  126.4686   57.5267 H   0  0  0  0  0  0  0  0  0  0  0  0
  132.5280  128.4655   58.4295 H   0  0  0  0  0  0  0  0  0  0  0  0
  130.7952  128.6892   57.7883 H   0  0  0  0  0  0  0  0  0  0  0  0
  131.7746  128.9050   60.6492 H   0  0  0  0  0  0  0  0  0  0  0  0
  1  2  1  0
  2  3  1  0
  3  4  1  0
  4  5  1  0
  5  6  1  0
  6  7  1  0
  7  8  1  0
  8  9  1  0
  9 10  1  0
 10 11  1  0
 11 12  1  0
 12 13  1  0
 13 14  1  0
 14 15  1  0
 15 16  1  0
 16 17  2  0
 16 18  1  0
 18 19  1  0
 19 20  1  0
 20 21  1  0
 21 22  1  6
 21 23  1  0
 23 24  1  0
 24 25  1  0
 25 26  1  0
 26 27  1  0
 26 28  1  0
 28 29  1  0
 29 30  1  0
 30 31  1  0
 31 32  1  6
 32 33  1  0
  6 34  1  0
 34 35  2  0
 34 36  1  0
 36 37  1  0
 37 38  1  0
 38 39  1  0
 39 40  1  6
 39 41  1  0
 41 42  1  0
 42 43  1  0
 43 44  1  0
 44 45  1  1
 45 46  1  0
 43  2  1  0
 44  5  1  0
 30 15  1  0
 44 37  1  0
 31 19  1  0
 46 39  1  0
 33 21  1  0
 31 25  1  0
  1 47  1  0
  1 48  1  0
  1 49  1  0
  2 50  1  6
  3 51  1  0
  3 52  1  0
  4 53  1  0
  4 54  1  0
  5 55  1  1
  6 56  1  1
  7 57  1  0
  7 58  1  0
  9 59  1  0
  9 60  1  0
 10 61  1  0
 10 62  1  0
 11 63  1  0
 11 64  1  0
 12 65  1  0
 12 66  1  0
 14 67  1  0
 14 68  1  0
 15 69  1  6
 19 70  1  1
 22 71  1  0
 22 72  1  0
 22 73  1  0
 23 74  1  0
 23 75  1  0
 24 76  1  0
 24 77  1  0
 25 78  1  1
 26 79  1  6
 27 80  1  0
 27 81  1  0
 27 82  1  0
 28 83  1  0
 28 84  1  0
 29 85  1  0
 29 86  1  0
 30 87  1  6
 37 88  1  6
 40 89  1  0
 40 90  1  0
 40 91  1  0
 41 92  1  0
 41 93  1  0
 42 94  1  0
 42 95  1  0
 43 96  1  1
M  END
>  <Binding energies>  (1) 
[-7.55]

>  <Ligand effiencies>  (1) 
[-0.151]

>  <Interactions>  (1) 
["V-A:ILE:369:CG2:3237, V-A:ASP:366:CA:3210, V-A:GLY:454:CA:4049, V-A:ILE:369:CB:3236, V-B:GLU:543:CB:9878, V-B:ALA:541:CB:9864, H-A:ARG:545:NH1:4927, V-B:TYR:539:CE2:9848, V-B:GLU:543:CG:9879, V-A:ASP:366:CG:3213, V-B:TYR:539:CZ:9849, V-A:GLU:543:CD:4908, H-B:TYR:484:OH:9319, V-B:HIS:456:CE1:9041, H-A:GLY:454:N:4050, V-A:HIS:456:CE1:4070, V-A:ILE:369:CD1:3239, V-A:ASP:366:C:3208, V-A:GLU:543:CG:4907, V-B:GLU:543:CD:9880, V-A:ILE:369:CG1:3238, V-A:ASP:366:CB:3212, V-A:ARG:545:CD:4923, H-A:ARG:545:NH2:4928, V-A:ARG:545:CZ:4926, H-B:ARG:545:NH2:9900, V-A:GLU:543:CB:4906, V-A:PRO:540:CB:4885, V-A:PRO:540:CA:4883, H-A:ARG:545:NE:4924, H-A:TYR:484:OH:4348"]

$$$$
ZINC169685247
     RDKit          3D

 36 39  0  0  0  0  0  0  0  0999 V2000
  131.3330  132.4790   56.9060 C   0  0  0  0  0  0  0  0  0  0  0  0
  132.1250  131.6760   57.7270 C   0  0  0  0  0  0  0  0  0  0  0  0
  131.7650  131.4920   59.0640 C   0  0  0  0  0  0  0  0  0  0  0  0
  130.6070  132.1240   59.5550 C   0  0  0  0  0  0  0  0  0  0  0  0
  130.1890  131.9710   60.9090 N   0  0  0  0  0  0  0  0  0  0  0  0
  131.0610  132.2090   61.9240 N   0  0  0  0  0  0  0  0  0  0  0  0
  130.4460  132.0070   63.0620 C   0  0  0  0  0  0  0  0  0  0  0  0
  129.0990  131.6080   62.8450 C   0  0  0  0  0  0  0  0  0  0  0  0
  127.9660  131.2630   63.6060 C   0  0  0  0  0  0  0  0  0  0  0  0
  128.0460  131.2190   64.9990 N   0  0  0  0  0  0  0  0  0  0  0  0
  127.9620  130.0390   65.4500 N   0  0  0  0  0  0  0  0  0  0  0  0
  128.0480  129.9710   66.8910 C   0  0  0  0  0  0  0  0  0  0  0  0
  128.5820  128.6130   67.3200 C   0  0  0  0  0  0  0  0  0  0  0  0
  128.9200  128.3730   68.6580 C   0  0  0  0  0  0  0  0  0  0  0  0
  129.3980  127.1100   69.0110 C   0  0  0  0  0  0  0  0  0  0  0  0
  129.5490  126.0990   68.1170 N   0  0  0  0  0  0  0  0  0  0  0  0
  129.2140  126.3450   66.8250 C   0  0  0  0  0  0  0  0  0  0  0  0
  128.7280  127.5790   66.3870 C   0  0  0  0  0  0  0  0  0  0  0  0
  126.8100  130.8880   62.9840 N   0  0  0  0  0  0  0  0  0  0  0  0
  126.8040  130.9040   61.6270 C   0  0  0  0  0  0  0  0  0  0  0  0
  127.8260  131.2390   60.7950 N   0  0  0  0  0  0  0  0  0  0  0  0
  128.9560  131.5820   61.4360 C   0  0  0  0  0  0  0  0  0  0  0  0
  129.8320  132.9060   58.7510 N   0  0  0  0  0  0  0  0  0  0  0  0
  130.1970  133.0740   57.4550 C   0  0  0  0  0  0  0  0  0  0  0  0
  131.5981  132.6392   55.8505 H   0  0  0  0  0  0  0  0  0  0  0  0
  133.0266  131.1912   57.3243 H   0  0  0  0  0  0  0  0  0  0  0  0
  132.3783  130.8615   59.7245 H   0  0  0  0  0  0  0  0  0  0  0  0
  130.9090  132.1295   64.0522 H   0  0  0  0  0  0  0  0  0  0  0  0
  128.7252  130.7588   67.2525 H   0  0  0  0  0  0  0  0  0  0  0  0
  127.0446  130.1143   67.3184 H   0  0  0  0  0  0  0  0  0  0  0  0
  128.8110  129.1636   69.4150 H   0  0  0  0  0  0  0  0  0  0  0  0
  129.6647  126.9250   70.0620 H   0  0  0  0  0  0  0  0  0  0  0  0
  129.3306  125.5356   66.0893 H   0  0  0  0  0  0  0  0  0  0  0  0
  128.4652  127.7355   65.3304 H   0  0  0  0  0  0  0  0  0  0  0  0
  125.8607  130.6113   61.1428 H   0  0  0  0  0  0  0  0  0  0  0  0
  129.5701  133.7066   56.8094 H   0  0  0  0  0  0  0  0  0  0  0  0
  1  2  2  0
  2  3  1  0
  3  4  2  0
  4  5  1  0
  5  6  1  0
  6  7  2  0
  7  8  1  0
  8  9  2  0
  9 10  1  0
 10 11  2  0
 11 12  1  0
 12 13  1  0
 13 14  2  0
 14 15  1  0
 15 16  2  0
 16 17  1  0
 17 18  2  0
  9 19  1  0
 19 20  2  0
 20 21  1  0
 21 22  2  0
  4 23  1  0
 23 24  2  0
 24  1  1  0
 22  5  1  0
 22  8  1  0
 18 13  1  0
  1 25  1  0
  2 26  1  0
  3 27  1  0
  7 28  1  0
 12 29  1  0
 12 30  1  0
 14 31  1  0
 15 32  1  0
 17 33  1  0
 18 34  1  0
 20 35  1  0
 24 36  1  0
M  END
>  <Binding energies>  (1) 
[-6.41]

>  <Ligand effiencies>  (1) 
[-0.26708333333333334]

>  <Interactions>  (1) 
["H-A:ALA:541:N:4891, V-B:GLU:543:CB:9878, V-A:ILE:538:CB:4862, V-B:GLU:543:CG:9879, V-A:LEU:363:CD1:3189, V-B:TYR:484:CE2:9317, V-A:ALA:541:CB:4892, V-A:GLU:543:CD:4908, H-B:TYR:484:OH:9319, V-B:HIS:456:CE1:9041, V-B:TYR:484:CZ:9318, V-A:HIS:456:CE1:4070, V-A:ALA:541:CA:4890, V-A:GLU:543:CG:4907, V-B:GLU:543:CD:9880, V-A:TYR:539:C:4867, V-A:GLU:543:CB:4906, V-A:PRO:540:N:4884, V-A:PRO:540:CB:4885, V-A:PRO:540:CA:4883, V-A:PRO:540:CD:4887"]

$$$$
ZINC169685249
     RDKit          3D

 36 39  0  0  0  0  0  0  0  0999 V2000
  129.4760  126.6790   68.7660 C   0  0  0  0  0  0  0  0  0  0  0  0
  128.9540  127.9630   68.6010 C   0  0  0  0  0  0  0  0  0  0  0  0
  128.5730  128.3760   67.3180 C   0  0  0  0  0  0  0  0  0  0  0  0
  128.0080  129.7710   67.0900 C   0  0  0  0  0  0  0  0  0  0  0  0
  127.6860  129.9680   65.6940 N   0  0  0  0  0  0  0  0  0  0  0  0
  128.2460  130.9880   65.1910 N   0  0  0  0  0  0  0  0  0  0  0  0
  127.9320  131.1570   63.8400 C   0  0  0  0  0  0  0  0  0  0  0  0
  126.7140  130.7520   63.3740 N   0  0  0  0  0  0  0  0  0  0  0  0
  126.4810  130.8940   62.0440 C   0  0  0  0  0  0  0  0  0  0  0  0
  127.3280  131.3810   61.0990 N   0  0  0  0  0  0  0  0  0  0  0  0
  128.5260  131.7410   61.5860 C   0  0  0  0  0  0  0  0  0  0  0  0
  128.8990  131.6560   62.9490 C   0  0  0  0  0  0  0  0  0  0  0  0
  130.2360  132.1410   62.9850 C   0  0  0  0  0  0  0  0  0  0  0  0
  130.6390  132.4930   61.7920 N   0  0  0  0  0  0  0  0  0  0  0  0
  129.6250  132.2750   60.9160 N   0  0  0  0  0  0  0  0  0  0  0  0
  129.8170  132.5390   59.5340 C   0  0  0  0  0  0  0  0  0  0  0  0
  128.7860  133.1050   58.7650 C   0  0  0  0  0  0  0  0  0  0  0  0
  128.9950  133.3110   57.4000 C   0  0  0  0  0  0  0  0  0  0  0  0
  130.1520  132.9790   56.7730 N   0  0  0  0  0  0  0  0  0  0  0  0
  131.1380  132.4210   57.5200 C   0  0  0  0  0  0  0  0  0  0  0  0
  131.0100  132.1800   58.8890 C   0  0  0  0  0  0  0  0  0  0  0  0
  128.7380  127.4890   66.2450 C   0  0  0  0  0  0  0  0  0  0  0  0
  129.2670  126.2230   66.4970 C   0  0  0  0  0  0  0  0  0  0  0  0
  129.6350  125.8090   67.7370 N   0  0  0  0  0  0  0  0  0  0  0  0
  129.7718  126.3580   69.7757 H   0  0  0  0  0  0  0  0  0  0  0  0
  128.8439  128.6380   69.4626 H   0  0  0  0  0  0  0  0  0  0  0  0
  127.0958  129.8945   67.6923 H   0  0  0  0  0  0  0  0  0  0  0  0
  128.7639  130.5127   67.3876 H   0  0  0  0  0  0  0  0  0  0  0  0
  125.4891  130.5774   61.6891 H   0  0  0  0  0  0  0  0  0  0  0  0
  130.8492  132.2106   63.8955 H   0  0  0  0  0  0  0  0  0  0  0  0
  127.8289  133.3815   59.2313 H   0  0  0  0  0  0  0  0  0  0  0  0
  128.1862  133.7623   56.8065 H   0  0  0  0  0  0  0  0  0  0  0  0
  132.0807  132.1462   57.0243 H   0  0  0  0  0  0  0  0  0  0  0  0
  131.8321  131.7157   59.4535 H   0  0  0  0  0  0  0  0  0  0  0  0
  128.4558  127.7856   65.2240 H   0  0  0  0  0  0  0  0  0  0  0  0
  129.3917  125.5286   65.6531 H   0  0  0  0  0  0  0  0  0  0  0  0
  1  2  2  0
  2  3  1  0
  3  4  1  0
  4  5  1  0
  5  6  2  0
  6  7  1  0
  7  8  2  0
  8  9  1  0
  9 10  2  0
 10 11  1  0
 11 12  2  0
 12 13  1  0
 13 14  2  0
 14 15  1  0
 15 16  1  0
 16 17  2  0
 17 18  1  0
 18 19  2  0
 19 20  1  0
 20 21  2  0
  3 22  2  0
 22 23  1  0
 23 24  2  0
 24  1  1  0
 12  7  1  0
 21 16  1  0
 15 11  1  0
  1 25  1  0
  2 26  1  0
  4 27  1  0
  4 28  1  0
  9 29  1  0
 13 30  1  0
 17 31  1  0
 18 32  1  0
 20 33  1  0
 21 34  1  0
 22 35  1  0
 23 36  1  0
M  END
>  <Binding energies>  (1) 
[-6.63]

>  <Ligand effiencies>  (1) 
[-0.27625]

>  <Interactions>  (1) 
["H-A:ALA:541:N:4891, V-B:GLU:543:CB:9878, V-B:GLU:543:CG:9879, V-A:TYR:539:CD1:4873, V-B:TYR:484:CE2:9317, V-A:ALA:541:CB:4892, V-A:TYR:539:CA:4869, V-A:GLU:543:CD:4908, H-B:TYR:484:OH:9319, V-B:HIS:456:CE1:9041, V-B:TYR:484:CZ:9318, V-A:HIS:456:CE1:4070, V-A:ALA:541:CA:4890, V-A:GLU:543:CG:4907, V-B:GLU:543:CD:9880, V-A:TYR:539:C:4867, V-A:GLU:543:CB:4906, V-A:PRO:540:N:4884, V-A:TYR:539:CG:4872, H-A:TYR:539:N:4870, V-A:PRO:540:CB:4885, V-A:PRO:540:CA:4883, V-A:TYR:539:CE1:4875"]

$$$$
ZINC169685251
     RDKit          3D

 33 36  0  0  0  0  0  0  0  0999 V2000
  129.7890  127.0410   72.3690 C   0  0  0  0  0  0  0  0  0  0  0  0
  130.2410  127.3800   71.0930 C   0  0  0  0  0  0  0  0  0  0  0  0
  129.3380  127.3370   70.0230 C   0  0  0  0  0  0  0  0  0  0  0  0
  129.7890  127.7100   68.6170 C   0  0  0  0  0  0  0  0  0  0  0  0
  129.6870  126.5720   67.7260 N   0  0  0  0  0  0  0  0  0  0  0  0
  130.8120  126.1650   67.3090 N   0  0  0  0  0  0  0  0  0  0  0  0
  130.6950  125.0760   66.4430 C   0  0  0  0  0  0  0  0  0  0  0  0
  129.5790  124.2900   66.4940 N   0  0  0  0  0  0  0  0  0  0  0  0
  129.4940  123.2780   65.5930 C   0  0  0  0  0  0  0  0  0  0  0  0
  130.3860  122.9520   64.6190 N   0  0  0  0  0  0  0  0  0  0  0  0
  131.4560  123.7590   64.5820 C   0  0  0  0  0  0  0  0  0  0  0  0
  131.6760  124.8480   65.4600 C   0  0  0  0  0  0  0  0  0  0  0  0
  132.9150  125.4030   65.0360 C   0  0  0  0  0  0  0  0  0  0  0  0
  133.4040  124.7340   64.0240 N   0  0  0  0  0  0  0  0  0  0  0  0
  132.5480  123.7250   63.7180 N   0  0  0  0  0  0  0  0  0  0  0  0
  132.8610  122.8710   62.6670 C   0  0  0  0  0  0  0  0  0  0  0  0
  134.0910  122.5070   62.3780 N   0  0  0  0  0  0  0  0  0  0  0  0
  134.1470  121.6920   61.3420 C   0  0  0  0  0  0  0  0  0  0  0  0
  132.9350  121.3640   60.7470 C   0  0  0  0  0  0  0  0  0  0  0  0
  131.6600  122.1750   61.6020 S   0  0  0  0  0  0  0  0  0  0  0  0
  128.0100  126.9660   70.2750 C   0  0  0  0  0  0  0  0  0  0  0  0
  127.6390  126.6400   71.5810 C   0  0  0  0  0  0  0  0  0  0  0  0
  128.5060  126.6720   72.6240 N   0  0  0  0  0  0  0  0  0  0  0  0
  130.5027  127.0739   73.2054 H   0  0  0  0  0  0  0  0  0  0  0  0
  131.2879  127.6758   70.9303 H   0  0  0  0  0  0  0  0  0  0  0  0
  129.1527  128.5233   68.2378 H   0  0  0  0  0  0  0  0  0  0  0  0
  130.8396  128.0335   68.6575 H   0  0  0  0  0  0  0  0  0  0  0  0
  128.5962  122.6458   65.6584 H   0  0  0  0  0  0  0  0  0  0  0  0
  133.3973  126.2775   65.4972 H   0  0  0  0  0  0  0  0  0  0  0  0
  135.1021  121.2935   60.9692 H   0  0  0  0  0  0  0  0  0  0  0  0
  132.8050  120.7010   59.8789 H   0  0  0  0  0  0  0  0  0  0  0  0
  127.2735  126.9323   69.4587 H   0  0  0  0  0  0  0  0  0  0  0  0
  126.5971  126.3440   71.7728 H   0  0  0  0  0  0  0  0  0  0  0  0
  1  2  2  0
  2  3  1  0
  3  4  1  0
  4  5  1  0
  5  6  2  0
  6  7  1  0
  7  8  2  0
  8  9  1  0
  9 10  2  0
 10 11  1  0
 11 12  2  0
 12 13  1  0
 13 14  2  0
 14 15  1  0
 15 16  1  0
 16 17  2  0
 17 18  1  0
 18 19  2  0
 19 20  1  0
  3 21  2  0
 21 22  1  0
 22 23  2  0
 23  1  1  0
 12  7  1  0
 20 16  1  0
 15 11  1  0
  1 24  1  0
  2 25  1  0
  4 26  1  0
  4 27  1  0
  9 28  1  0
 13 29  1  0
 18 30  1  0
 19 31  1  0
 21 32  1  0
 22 33  1  0
M  END
>  <Binding energies>  (1) 
[-6.21]

>  <Ligand effiencies>  (1) 
[-0.27]

>  <Interactions>  (1) 
["V-A:ILE:369:CG2:3237, V-B:GLU:543:C:9874, V-B:GLU:543:CB:9878, H-B:LYS:547:NZ:9923, V-B:TYR:539:CE2:9848, V-A:TYR:484:CE2:4346, V-B:GLU:543:CG:9879, V-A:HIS:456:CD2:4068, V-A:TYR:484:CZ:4347, V-B:GLU:543:CA:9876, V-B:HIS:456:CE1:9041, H-A:GLY:454:N:4050, V-A:SER:385:C:3405, V-A:HIS:456:CE1:4070, V-A:ILE:369:CD1:3239, V-B:GLY:544:C:9884, V-B:GLY:544:CA:9886, V-B:TYR:539:CD2:9846, V-A:ARG:545:CD:4923, V-A:LEU:475:CD2:4259, H-A:ARG:545:NH2:4928, V-A:ARG:545:CZ:4926, V-A:GLU:543:CB:4906, V-A:SER:385:CA:3407, H-A:TYR:484:OH:4348"]

$$$$
ZINC169685871-again1
     RDKit          3D

 76 80  0  0  0  0  0  0  0  0999 V2000
  125.6220  124.7070   59.6830 C   0  0  0  0  0  0  0  0  0  0  0  0
  125.6770  125.3260   58.4080 O   0  0  0  0  0  0  0  0  0  0  0  0
  126.1440  126.6670   58.4440 C   0  0  0  0  0  0  0  0  0  0  0  0
  127.3840  126.8710   57.5290 C   0  0  1  0  0  0  0  0  0  0  0  0
  127.2740  128.1040   56.8020 O   0  0  0  0  0  0  0  0  0  0  0  0
  127.7440  129.2780   57.3220 C   0  0  0  0  0  0  0  0  0  0  0  0
  127.4110  130.2860   56.7020 O   0  0  0  0  0  0  0  0  0  0  0  0
  128.5820  129.1920   58.5380 C   0  0  0  0  0  0  0  0  0  0  0  0
  128.7830  130.5620   59.2150 C   0  0  0  0  0  0  0  0  0  0  0  0
  130.1460  131.1050   59.1320 N   0  0  0  0  0  0  0  0  0  0  0  0
  130.1960  132.5640   59.2990 C   0  0  0  0  0  0  0  0  0  0  0  0
  129.6700  133.3140   58.0440 C   0  0  0  0  0  0  0  0  0  0  0  0
  130.3940  132.9280   56.8240 N   0  0  0  0  0  0  0  0  0  0  0  0
  131.7450  133.4820   56.7640 C   0  0  0  0  0  0  0  0  0  0  0  0
  130.3680  131.4700   56.6520 C   0  0  0  0  0  0  0  0  0  0  0  0
  130.8740  130.7180   57.9140 C   0  0  0  0  0  0  0  0  0  0  0  0
  129.0790  127.9910   58.9600 C   0  0  0  0  0  0  0  0  0  0  0  0
  129.8860  127.8910   60.1720 C   0  0  0  0  0  0  0  0  0  0  0  0
  130.8380  128.5900   60.5240 O   0  0  0  0  0  0  0  0  0  0  0  0
  129.4610  126.7460   61.1130 C   0  0  0  0  0  0  0  0  0  0  0  0
  129.4790  126.9930   62.3210 O   0  0  0  0  0  0  0  0  0  0  0  0
  129.1250  125.4670   60.4770 C   0  0  0  0  0  0  0  0  0  0  0  0
  128.8480  125.3820   59.1340 C   0  0  0  0  0  0  0  0  0  0  0  0
  128.6740  123.9860   58.4670 C   0  0  2  0  0  0  0  0  0  0  0  0
  127.6000  123.9620   57.5280 O   0  0  0  0  0  0  0  0  0  0  0  0
  127.0430  122.8060   57.0990 C   0  0  0  0  0  0  0  0  0  0  0  0
  125.5590  122.9640   56.7930 C   0  0  0  0  0  0  0  0  0  0  0  0
  127.6200  121.7290   56.9520 O   0  0  0  0  0  0  0  0  0  0  0  0
  128.4410  122.8620   59.5000 C   0  0  0  0  0  0  0  0  0  0  0  0
  129.4430  122.9130   60.6750 C   0  0  1  0  0  0  0  0  0  0  0  0
  130.9030  122.7430   60.1610 C   0  0  0  0  0  0  0  0  0  0  0  0
  129.2230  124.2470   61.4200 C   0  0  2  0  0  0  0  0  0  0  0  0
  128.0130  124.0280   62.3490 C   0  0  0  0  0  0  0  0  0  0  0  0
  127.9020  122.5080   62.5470 C   0  0  0  0  0  0  0  0  0  0  0  0
  129.0580  121.8570   61.7600 C   0  0  2  0  0  0  0  0  0  0  0  0
  130.1200  121.6200   62.6730 O   0  0  0  0  0  0  0  0  0  0  0  0
  128.7860  126.6570   58.2060 C   0  0  1  0  0  0  0  0  0  0  0  0
  129.8830  126.4970   57.1190 C   0  0  0  0  0  0  0  0  0  0  0  0
  125.6903  125.4756   60.4670 H   0  0  0  0  0  0  0  0  0  0  0  0
  124.6719  124.1622   59.7854 H   0  0  0  0  0  0  0  0  0  0  0  0
  126.4611  124.0032   59.7854 H   0  0  0  0  0  0  0  0  0  0  0  0
  125.3377  127.3341   58.1050 H   0  0  0  0  0  0  0  0  0  0  0  0
  126.4401  126.8984   59.4778 H   0  0  0  0  0  0  0  0  0  0  0  0
  127.3590  126.0402   56.8085 H   0  0  0  0  0  0  0  0  0  0  0  0
  128.1003  131.2809   58.7384 H   0  0  0  0  0  0  0  0  0  0  0  0
  128.5797  130.4074   60.2850 H   0  0  0  0  0  0  0  0  0  0  0  0
  129.5773  132.8434   60.1645 H   0  0  0  0  0  0  0  0  0  0  0  0
  131.2468  132.8520   59.4502 H   0  0  0  0  0  0  0  0  0  0  0  0
  128.6033  133.0799   57.9123 H   0  0  0  0  0  0  0  0  0  0  0  0
  129.8260  134.3911   58.2035 H   0  0  0  0  0  0  0  0  0  0  0  0
  132.1234  133.6372   57.7852 H   0  0  0  0  0  0  0  0  0  0  0  0
  132.4050  132.7819   56.2308 H   0  0  0  0  0  0  0  0  0  0  0  0
  131.7235  134.4439   56.2308 H   0  0  0  0  0  0  0  0  0  0  0  0
  129.3342  131.1567   56.4444 H   0  0  0  0  0  0  0  0  0  0  0  0
  131.0396  131.2176   55.8181 H   0  0  0  0  0  0  0  0  0  0  0  0
  130.7458  129.6371   57.7552 H   0  0  0  0  0  0  0  0  0  0  0  0
  131.9315  130.9838   58.0589 H   0  0  0  0  0  0  0  0  0  0  0  0
  129.6227  123.8039   57.9408 H   0  0  0  0  0  0  0  0  0  0  0  0
  124.9947  123.0241   57.7353 H   0  0  0  0  0  0  0  0  0  0  0  0
  125.4005  123.8841   56.2114 H   0  0  0  0  0  0  0  0  0  0  0  0
  125.2103  122.0979   56.2114 H   0  0  0  0  0  0  0  0  0  0  0  0
  127.4219  122.9599   59.9024 H   0  0  0  0  0  0  0  0  0  0  0  0
  128.5845  121.9016   58.9832 H   0  0  0  0  0  0  0  0  0  0  0  0
  131.5868  122.6634   61.0189 H   0  0  0  0  0  0  0  0  0  0  0  0
  130.9729  121.8306   59.5505 H   0  0  0  0  0  0  0  0  0  0  0  0
  131.1807  123.6149   59.5505 H   0  0  0  0  0  0  0  0  0  0  0  0
  130.0992  124.5159   62.0283 H   0  0  0  0  0  0  0  0  0  0  0  0
  128.1768  124.5285   63.3148 H   0  0  0  0  0  0  0  0  0  0  0  0
  127.0920  124.4468   61.9173 H   0  0  0  0  0  0  0  0  0  0  0  0
  127.9876  122.2604   63.6153 H   0  0  0  0  0  0  0  0  0  0  0  0
  126.9301  122.1386   62.1880 H   0  0  0  0  0  0  0  0  0  0  0  0
  128.8056  120.8965   61.2871 H   0  0  0  0  0  0  0  0  0  0  0  0
  129.8060  121.8050   63.5610 H   0  0  0  0  0  0  0  0  0  0  0  0
  130.8605  126.3544   57.6028 H   0  0  0  0  0  0  0  0  0  0  0  0
  129.6532  125.6229   56.4920 H   0  0  0  0  0  0  0  0  0  0  0  0
  129.9125  127.4004   56.4920 H   0  0  0  0  0  0  0  0  0  0  0  0
  1  2  1  0
  2  3  1  0
  3  4  1  0
  4  5  1  0
  5  6  1  0
  6  7  2  0
  6  8  1  0
  8  9  1  0
  9 10  1  0
 10 11  1  0
 11 12  1  0
 12 13  1  0
 13 14  1  0
 13 15  1  0
 15 16  1  0
  8 17  2  0
 17 18  1  0
 18 19  2  0
 18 20  1  0
 20 21  2  0
 20 22  1  0
 22 23  2  0
 23 24  1  0
 24 25  1  0
 25 26  1  0
 26 27  1  0
 26 28  2  0
 24 29  1  0
 29 30  1  0
 30 31  1  6
 30 32  1  0
 32 33  1  0
 33 34  1  0
 34 35  1  0
 35 36  1  0
 23 37  1  0
 37 38  1  6
 37  4  1  0
 16 10  1  0
 37 17  1  0
 32 22  1  0
 35 30  1  0
  1 39  1  0
  1 40  1  0
  1 41  1  0
  3 42  1  0
  3 43  1  0
  4 44  1  6
  9 45  1  0
  9 46  1  0
 11 47  1  0
 11 48  1  0
 12 49  1  0
 12 50  1  0
 14 51  1  0
 14 52  1  0
 14 53  1  0
 15 54  1  0
 15 55  1  0
 16 56  1  0
 16 57  1  0
 24 58  1  6
 27 59  1  0
 27 60  1  0
 27 61  1  0
 29 62  1  0
 29 63  1  0
 31 64  1  0
 31 65  1  0
 31 66  1  0
 32 67  1  1
 33 68  1  0
 33 69  1  0
 34 70  1  0
 34 71  1  0
 35 72  1  6
 36 73  1  0
 38 74  1  0
 38 75  1  0
 38 76  1  0
M  END
>  <Binding energies>  (1) 
[-6.39]

>  <Ligand effiencies>  (1) 
[-0.16384615384615384]

>  <Interactions>  (1) 
["V-B:PRO:540:CA:9855, V-A:PRO:540:CG:4886, V-A:ILE:538:C:4858, V-A:ILE:538:CB:4862, V-B:ALA:541:CB:9864, V-B:ASP:366:CG:8184, V-B:TYR:539:CE2:9848, H-B:TYR:539:N:9842, V-B:GLU:543:CG:9879, V-B:TYR:539:C:9839, V-A:ILE:538:CG2:4863, V-A:TYR:539:CD1:4873, V-A:LEU:363:CD1:3189, V-B:TYR:539:CZ:9849, V-A:ILE:538:CA:4860, V-A:TYR:539:CA:4869, V-B:ASP:366:CB:8183, V-B:PRO:540:CB:9857, V-B:PRO:540:N:9856, V-B:TYR:539:CD2:9846, V-B:PRO:540:CD:9859, V-A:MET:535:CE:4835, V-B:GLU:543:CD:9880, V-A:TYR:539:C:4867, H-B:TYR:531:OH:9767, V-A:PRO:540:N:4884, H-A:TYR:539:N:4870, V-A:PRO:540:CB:4885, V-A:PRO:540:CA:4883, V-B:LEU:363:CD1:8160, V-B:PRO:540:C:9853, V-B:MET:535:CE:9807, V-B:ALA:541:CA:9862, V-A:PRO:540:CD:4887"]

$$$$
ZINC169695268-again1
     RDKit          3D

 61 64  0  0  0  0  0  0  0  0999 V2000
  131.7890  126.4910   58.3360 C   0  0  0  0  0  0  0  0  0  0  0  0
  132.7320  125.4660   58.9970 C   0  0  0  0  0  0  0  0  0  0  0  0
  133.5830  124.7170   57.9520 C   0  0  0  0  0  0  0  0  0  0  0  0
  131.9660  124.4850   59.9220 C   0  0  0  0  0  0  0  0  0  0  0  0
  131.2050  123.6180   59.3760 O   0  0  0  0  0  0  0  0  0  0  0  0
  132.1740  124.6340   61.3290 C   0  0  0  0  0  0  0  0  0  0  0  0
  133.3650  124.3810   62.0340 C   0  0  0  0  0  0  0  0  0  0  0  0
  134.5080  123.9850   61.6320 O   0  0  0  0  0  0  0  0  0  0  0  0
  133.0990  124.7340   63.5370 C   0  0  0  0  0  0  0  0  0  0  0  0
  133.9500  124.6600   64.4280 O   0  0  0  0  0  0  0  0  0  0  0  0
  131.8050  125.1360   63.6260 N   0  0  0  0  0  0  0  0  0  0  0  0
  131.1740  125.5820   64.8190 C   0  0  0  0  0  0  0  0  0  0  0  0
  129.9230  126.2160   64.8070 C   0  0  0  0  0  0  0  0  0  0  0  0
  129.3480  126.6640   65.9940 C   0  0  0  0  0  0  0  0  0  0  0  0
  130.0100  126.4870   67.2130 C   0  0  0  0  0  0  0  0  0  0  0  0
  129.3950  126.9710   68.4900 C   0  0  0  0  0  0  0  0  0  0  0  0
  130.0130  127.8460   69.4030 C   0  0  0  0  0  0  0  0  0  0  0  0
  129.2340  128.1420   70.5130 C   0  0  0  0  0  0  0  0  0  0  0  0
  127.7020  127.3430   70.4620 S   0  0  0  0  0  0  0  0  0  0  0  0
  128.1240  126.6160   68.9470 C   0  0  0  0  0  0  0  0  0  0  0  0
  131.2560  125.8530   67.2280 C   0  0  0  0  0  0  0  0  0  0  0  0
  131.8330  125.4070   66.0440 C   0  0  0  0  0  0  0  0  0  0  0  0
  131.1250  125.0850   62.3230 C   0  0  2  0  0  0  0  0  0  0  0  0
  129.8680  124.1960   62.3560 C   0  0  0  0  0  0  0  0  0  0  0  0
  129.6430  123.3610   63.4590 C   0  0  0  0  0  0  0  0  0  0  0  0
  128.5320  122.5240   63.5030 C   0  0  0  0  0  0  0  0  0  0  0  0
  127.6330  122.5110   62.4410 C   0  0  0  0  0  0  0  0  0  0  0  0
  127.8450  123.3340   61.3370 C   0  0  0  0  0  0  0  0  0  0  0  0
  128.9610  124.1870   61.2800 C   0  0  0  0  0  0  0  0  0  0  0  0
  129.2210  125.0290   60.2150 O   0  0  0  0  0  0  0  0  0  0  0  0
  128.2680  125.1780   59.1700 C   0  0  0  0  0  0  0  0  0  0  0  0
  128.4890  124.0830   58.1160 C   0  0  0  0  0  0  0  0  0  0  0  0
  127.0550  122.9030   58.0470 S   0  0  0  0  0  4  0  0  0  0  0  0
  125.7320  124.1670   57.7500 C   0  0  0  0  0  0  0  0  0  0  0  0
  127.1930  122.0930   56.7570 O   0  0  0  0  0  0  0  0  0  0  0  0
  131.2637  127.0620   59.1157 H   0  0  0  0  0  0  0  0  0  0  0  0
  132.3762  127.1793   57.7103 H   0  0  0  0  0  0  0  0  0  0  0  0
  131.0543  125.9631   57.7103 H   0  0  0  0  0  0  0  0  0  0  0  0
  133.4250  126.0337   59.6354 H   0  0  0  0  0  0  0  0  0  0  0  0
  134.3130  124.0745   58.4660 H   0  0  0  0  0  0  0  0  0  0  0  0
  132.9282  124.0969   57.3222 H   0  0  0  0  0  0  0  0  0  0  0  0
  134.1150  125.4453   57.3222 H   0  0  0  0  0  0  0  0  0  0  0  0
  129.3926  126.3604   63.8542 H   0  0  0  0  0  0  0  0  0  0  0  0
  128.3666  127.1604   65.9723 H   0  0  0  0  0  0  0  0  0  0  0  0
  131.0216  128.2578   69.2507 H   0  0  0  0  0  0  0  0  0  0  0  0
  129.5539  128.8067   71.3290 H   0  0  0  0  0  0  0  0  0  0  0  0
  127.4540  125.9387   68.3970 H   0  0  0  0  0  0  0  0  0  0  0  0
  131.7831  125.7061   68.1822 H   0  0  0  0  0  0  0  0  0  0  0  0
  132.8153  124.9125   66.0688 H   0  0  0  0  0  0  0  0  0  0  0  0
  130.7284  126.0682   62.0296 H   0  0  0  0  0  0  0  0  0  0  0  0
  130.3526  123.3673   64.2995 H   0  0  0  0  0  0  0  0  0  0  0  0
  128.3650  121.8745   64.3749 H   0  0  0  0  0  0  0  0  0  0  0  0
  126.7541  121.8503   62.4731 H   0  0  0  0  0  0  0  0  0  0  0  0
  127.1310  123.3161   60.5004 H   0  0  0  0  0  0  0  0  0  0  0  0
  127.2528  125.0889   59.5841 H   0  0  0  0  0  0  0  0  0  0  0  0
  128.3878  126.1665   58.7026 H   0  0  0  0  0  0  0  0  0  0  0  0
  128.6106  124.5555   57.1301 H   0  0  0  0  0  0  0  0  0  0  0  0
  129.3896  123.5152   58.3925 H   0  0  0  0  0  0  0  0  0  0  0  0
  125.3502  124.5318   58.7149 H   0  0  0  0  0  0  0  0  0  0  0  0
  126.1508  125.0090   57.1794 H   0  0  0  0  0  0  0  0  0  0  0  0
  124.9099  123.7102   57.1794 H   0  0  0  0  0  0  0  0  0  0  0  0
  1  2  1  0
  2  3  1  0
  2  4  1  0
  4  5  2  0
  4  6  1  0
  6  7  2  0
  7  8  1  0
  7  9  1  0
  9 10  2  0
  9 11  1  0
 11 12  1  0
 12 13  2  0
 13 14  1  0
 14 15  2  0
 15 16  1  0
 16 17  1  0
 17 18  2  0
 18 19  1  0
 19 20  1  0
 15 21  1  0
 21 22  2  0
 11 23  1  0
 23 24  1  0
 24 25  2  0
 25 26  1  0
 26 27  2  0
 27 28  1  0
 28 29  2  0
 29 30  1  0
 30 31  1  0
 31 32  1  0
 33 32  1  6
 33 34  1  0
 33 35  2  0
 23  6  1  0
 29 24  1  0
 22 12  1  0
 20 16  2  0
  1 36  1  0
  1 37  1  0
  1 38  1  0
  2 39  1  0
  3 40  1  0
  3 41  1  0
  3 42  1  0
 13 43  1  0
 14 44  1  0
 17 45  1  0
 18 46  1  0
 20 47  1  0
 21 48  1  0
 22 49  1  0
 23 50  1  6
 25 51  1  0
 26 52  1  0
 27 53  1  0
 28 54  1  0
 31 55  1  0
 31 56  1  0
 32 57  1  0
 32 58  1  0
 34 59  1  0
 34 60  1  0
 34 61  1  0
M  CHG  1   8  -1
M  END
>  <Binding energies>  (1) 
[-7.71]

>  <Ligand effiencies>  (1) 
[-0.22028571428571428]

>  <Interactions>  (1) 
["V-A:ILE:369:CG2:3237, V-A:ASP:366:CA:3210, V-B:PRO:540:CA:9855, V-B:GLU:543:C:9874, V-B:HIS:456:CD2:9039, V-B:GLU:543:CB:9878, V-B:ALA:541:CB:9864, V-B:TYR:539:CE2:9848, H-B:TYR:539:N:9842, V-B:GLU:543:CG:9879, V-B:TYR:539:C:9839, V-A:ASP:366:CG:3213, V-B:TYR:539:CZ:9849, H-B:TYR:539:OH:9850, V-A:GLU:543:CD:4908, V-A:TYR:484:CZ:4347, V-B:PRO:540:CB:9857, V-B:GLU:543:CA:9876, H-A:GLY:454:N:4050, V-B:HIS:456:CE1:9041, V-B:PRO:540:N:9856, V-A:HIS:456:CE1:4070, V-A:ASP:366:C:3208, V-B:GLU:543:CD:9880, V-A:ASP:366:CB:3212, H-A:ARG:545:NH2:4928, V-A:ARG:545:CZ:4926, V-A:GLU:543:CB:4906, H-A:ARG:545:NE:4924, V-B:PRO:540:C:9853, V-B:ALA:541:CA:9862, H-A:TYR:484:OH:4348"]

$$$$
ZINC169718361
     RDKit          3D

 57 61  0  0  0  0  0  0  0  0999 V2000
  132.2530  124.2910   59.7220 C   0  0  0  0  0  0  0  0  0  0  0  0
  130.8420  124.0040   60.2440 C   0  0  0  0  0  0  0  0  0  0  0  0
  129.7400  124.5660   59.5860 C   0  0  0  0  0  0  0  0  0  0  0  0
  129.9300  125.7420   58.0910 Br  0  0  0  0  0  0  0  0  0  0  0  0
  128.4510  124.2890   60.0170 C   0  0  0  0  0  0  0  0  0  0  0  0
  128.2120  123.4490   61.1020 C   0  0  0  0  0  0  0  0  0  0  0  0
  126.7960  123.2400   61.4450 C   0  0  0  0  0  0  0  0  0  0  0  0
  125.6820  123.0780   61.7120 N   0  0  0  0  0  0  0  0  0  0  0  0
  129.3120  122.8690   61.7900 C   0  0  0  0  0  0  0  0  0  0  0  0
  129.1250  122.0760   62.7870 O   0  0  0  0  0  0  0  0  0  0  0  0
  130.6370  123.1650   61.3650 C   0  0  0  0  0  0  0  0  0  0  0  0
  131.8750  122.5900   62.1010 C   0  0  0  0  0  0  0  0  0  0  0  0
  132.5340  123.5090   63.0330 N   0  0  0  0  0  0  0  0  0  0  0  0
  133.7820  124.0810   62.9230 C   0  0  0  0  0  0  0  0  0  0  0  0
  134.0730  124.9010   63.9010 N   0  0  0  0  0  0  0  0  0  0  0  0
  132.9970  124.8880   64.6640 C   0  0  0  0  0  0  0  0  0  0  0  0
  131.9920  124.0590   64.1740 C   0  0  0  0  0  0  0  0  0  0  0  0
  130.6100  123.7120   64.6900 C   0  0  0  0  0  0  0  0  0  0  0  0
  129.6850  124.7050   64.2710 O   0  0  0  0  0  0  0  0  0  0  0  0
  130.0500  126.0270   64.6400 C   0  0  0  0  0  0  0  0  0  0  0  0
  129.5030  126.3270   66.0330 C   0  0  0  0  0  0  0  0  0  0  0  0
  129.8110  125.4400   67.0700 C   0  0  0  0  0  0  0  0  0  0  0  0
  129.3700  125.6820   68.3680 C   0  0  0  0  0  0  0  0  0  0  0  0
  128.6140  126.8210   68.6440 C   0  0  0  0  0  0  0  0  0  0  0  0
  128.1540  127.0820   70.0000 C   0  0  0  0  0  0  0  0  0  0  0  0
  127.7880  127.2900   71.0780 N   0  0  0  0  0  0  0  0  0  0  0  0
  128.2990  127.7090   67.6130 C   0  0  0  0  0  0  0  0  0  0  0  0
  128.7260  127.4740   66.3000 C   0  0  0  0  0  0  0  0  0  0  0  0
  128.3440  128.4480   65.2420 C   0  0  0  0  0  0  0  0  0  0  0  0
  127.9970  127.9960   63.9520 C   0  0  0  0  0  0  0  0  0  0  0  0
  127.6280  128.8910   62.9390 C   0  0  0  0  0  0  0  0  0  0  0  0
  127.6290  130.2460   63.2490 C   0  0  0  0  0  0  0  0  0  0  0  0
  127.9730  130.6990   64.4900 C   0  0  0  0  0  0  0  0  0  0  0  0
  128.3370  129.8300   65.5110 C   0  0  0  0  0  0  0  0  0  0  0  0
  127.8620  132.0520   64.5230 O   0  0  0  0  0  0  0  0  0  0  0  0
  127.6340  132.4470   63.1970 C   0  0  0  0  0  0  0  0  0  0  0  0
  127.2890  131.3010   62.4630 O   0  0  0  0  0  0  0  0  0  0  0  0
  132.9372  124.4302   60.5720 H   0  0  0  0  0  0  0  0  0  0  0  0
  132.5966  123.4444   59.1095 H   0  0  0  0  0  0  0  0  0  0  0  0
  132.2386  125.2046   59.1095 H   0  0  0  0  0  0  0  0  0  0  0  0
  127.5986  124.7428   59.4902 H   0  0  0  0  0  0  0  0  0  0  0  0
  131.5518  121.7048   62.6685 H   0  0  0  0  0  0  0  0  0  0  0  0
  132.6163  122.3671   61.3195 H   0  0  0  0  0  0  0  0  0  0  0  0
  134.4698  123.8687   62.0912 H   0  0  0  0  0  0  0  0  0  0  0  0
  132.9036  125.4719   65.5915 H   0  0  0  0  0  0  0  0  0  0  0  0
  130.3042  122.7340   64.2901 H   0  0  0  0  0  0  0  0  0  0  0  0
  130.6291  123.6691   65.7890 H   0  0  0  0  0  0  0  0  0  0  0  0
  131.1462  126.1177   64.6476 H   0  0  0  0  0  0  0  0  0  0  0  0
  129.6318  126.7421   63.9163 H   0  0  0  0  0  0  0  0  0  0  0  0
  130.4084  124.5412   66.8573 H   0  0  0  0  0  0  0  0  0  0  0  0
  129.6174  124.9761   69.1746 H   0  0  0  0  0  0  0  0  0  0  0  0
  127.7056  128.6080   67.8360 H   0  0  0  0  0  0  0  0  0  0  0  0
  128.0164  126.9175   63.7364 H   0  0  0  0  0  0  0  0  0  0  0  0
  127.3482  128.5349   61.9366 H   0  0  0  0  0  0  0  0  0  0  0  0
  128.6129  130.2122   66.5049 H   0  0  0  0  0  0  0  0  0  0  0  0
  126.8121  133.1771   63.1597 H   0  0  0  0  0  0  0  0  0  0  0  0
  128.5343  132.9178   62.7753 H   0  0  0  0  0  0  0  0  0  0  0  0
  1  2  1  0
  2  3  2  0
  3  4  1  0
  3  5  1  0
  5  6  2  0
  6  7  1  0
  7  8  3  0
  6  9  1  0
  9 10  1  0
  9 11  2  0
 11 12  1  0
 12 13  1  0
 13 14  1  0
 14 15  2  0
 15 16  1  0
 16 17  2  0
 17 18  1  0
 18 19  1  0
 19 20  1  0
 20 21  1  0
 21 22  2  0
 22 23  1  0
 23 24  2  0
 24 25  1  0
 25 26  3  0
 24 27  1  0
 27 28  2  0
 28 29  1  0
 29 30  2  0
 30 31  1  0
 31 32  2  0
 32 33  1  0
 33 34  2  0
 33 35  1  0
 35 36  1  0
 36 37  1  0
 11  2  1  0
 17 13  1  0
 28 21  1  0
 34 29  1  0
 37 32  1  0
  1 38  1  0
  1 39  1  0
  1 40  1  0
  5 41  1  0
 12 42  1  0
 12 43  1  0
 14 44  1  0
 16 45  1  0
 18 46  1  0
 18 47  1  0
 20 48  1  0
 20 49  1  0
 22 50  1  0
 23 51  1  0
 27 52  1  0
 30 53  1  0
 31 54  1  0
 34 55  1  0
 36 56  1  0
 36 57  1  0
M  CHG  1  10  -1
M  END
>  <Binding energies>  (1) 
[-8.19]

>  <Ligand effiencies>  (1) 
[-0.22135135135135134]

>  <Interactions>  (1) 
["V-B:PRO:540:CA:9855, V-A:GLY:454:CA:4049, V-B:GLU:543:C:9874, V-B:GLU:543:CB:9878, H-A:ARG:545:NH1:4927, V-A:TYR:484:CE2:4346, V-B:TYR:539:CE2:9848, V-B:GLU:543:CG:9879, V-B:LEU:475:CD2:9230, H-B:ALA:541:N:9863, V-A:GLU:543:CD:4908, V-B:PRO:540:CB:9857, H-B:TYR:484:OH:9319, V-B:GLU:543:CA:9876, H-A:GLY:454:N:4050, V-B:HIS:456:CE1:9041, V-A:HIS:456:CE1:4070, V-A:GLU:543:CG:4907, V-B:GLU:543:CD:9880, V-A:LEU:475:CD2:4259, H-A:ARG:545:NH2:4928, V-A:ARG:545:CZ:4926, V-A:GLU:543:CB:4906, H-A:ARG:545:NE:4924, V-B:PRO:540:C:9853"]

$$$$
ZINC169720690-again1
     RDKit          3D

 93 94  0  0  0  0  0  0  0  0999 V2000
  133.6070  123.6520   58.7490 C   0  0  0  0  0  0  0  0  0  0  0  0
  132.9460  122.9230   59.7760 O   0  0  0  0  0  0  0  0  0  0  0  0
  131.9300  123.6260   60.4930 C   0  0  1  0  0  0  0  0  0  0  0  0
  131.5070  124.8650   59.7050 C   0  0  0  0  0  0  0  0  0  0  0  0
  130.2600  125.2490   59.3730 C   0  0  0  0  0  0  0  0  0  0  0  0
  129.0320  124.5500   59.7340 C   0  0  0  0  0  0  0  0  0  0  0  0
  127.8400  124.6000   59.0880 C   0  0  0  0  0  0  0  0  0  0  0  0
  126.5970  123.8940   59.6240 C   0  0  0  0  0  0  0  0  0  0  0  0
  127.6150  125.2930   57.8250 C   0  0  0  0  0  0  0  0  0  0  0  0
  127.1280  124.6940   56.8670 O   0  0  0  0  0  0  0  0  0  0  0  0
  127.9450  126.6030   57.6950 N   0  0  0  0  0  0  0  0  0  0  0  0
  128.6120  127.4340   58.6120 C   0  0  0  0  0  0  0  0  0  0  0  0
  129.8760  127.8970   58.2520 C   0  0  0  0  0  0  0  0  0  0  0  0
  130.6070  128.7060   59.1160 C   0  0  0  0  0  0  0  0  0  0  0  0
  131.8480  129.1260   58.7020 O   0  0  0  0  0  0  0  0  0  0  0  0
  130.0950  129.0760   60.3760 C   0  0  0  0  0  0  0  0  0  0  0  0
  130.8450  129.8990   61.2340 N   0  0  0  0  0  0  0  0  0  0  0  0
  130.3470  131.0070   61.6170 C   0  0  0  0  0  0  0  0  0  0  0  0
  131.0070  132.0090   62.5630 C   0  0  0  0  0  0  0  0  0  0  0  0
  132.5470  132.0250   62.3870 N   0  0  0  0  0  0  0  0  0  0  0  0
  132.9700  131.8230   60.9180 C   0  0  0  0  0  0  0  0  0  0  0  0
  133.2570  131.0140   63.3100 C   0  0  0  0  0  0  0  0  0  0  0  0
  128.7990  128.6260   60.7290 C   0  0  0  0  0  0  0  0  0  0  0  0
  128.0910  127.7640   59.8730 C   0  0  0  0  0  0  0  0  0  0  0  0
  126.9000  127.2160   60.2900 O   0  0  0  0  0  0  0  0  0  0  0  0
  128.1410  129.0530   62.0520 C   0  0  0  0  0  0  0  0  0  0  0  0
  128.6850  128.3100   63.3060 C   0  0  1  0  0  0  0  0  0  0  0  0
  127.6870  128.4810   64.4720 C   0  0  0  0  0  0  0  0  0  0  0  0
  129.0260  126.8190   63.0220 C   0  0  0  0  0  0  0  0  0  0  0  0
  129.6960  126.0550   64.1990 C   0  0  2  0  0  0  0  0  0  0  0  0
  129.4050  126.8030   65.3820 O   0  0  0  0  0  0  0  0  0  0  0  0
  129.2250  126.0410   66.5700 C   0  0  0  0  0  0  0  0  0  0  0  0
  131.2220  125.7310   64.0700 C   0  0  1  0  0  0  0  0  0  0  0  0
  131.7740  125.5010   65.4760 N   0  0  0  0  0  0  0  0  0  0  0  0
  132.9310  125.8530   65.5880 O   0  0  0  0  0  0  0  0  0  0  0  0
  131.6630  124.5310   63.1740 C   0  0  1  0  0  0  0  0  0  0  0  0
  133.1420  124.1640   63.4400 C   0  0  0  0  0  0  0  0  0  0  0  0
  130.7710  123.2930   63.2410 C   0  0  0  0  0  0  0  0  0  0  0  0
  130.3490  122.5050   62.2220 C   0  0  0  0  0  0  0  0  0  0  0  0
  129.4660  121.2950   62.5030 C   0  0  0  0  0  0  0  0  0  0  0  0
  130.7480  122.6480   60.7400 C   0  0  2  0  0  0  0  0  0  0  0  0
  131.0210  121.3650   60.1620 O   0  0  0  0  0  0  0  0  0  0  0  0
  131.8270  120.4530   60.7540 C   0  0  0  0  0  0  0  0  0  0  0  0
  131.2140  119.2220   60.7300 N   0  0  0  0  0  0  0  0  0  0  0  0
  132.9330  120.6840   61.2410 O   0  0  0  0  0  0  0  0  0  0  0  0
  134.2804  124.3947   59.2018 H   0  0  0  0  0  0  0  0  0  0  0  0
  134.1913  122.9593   58.1255 H   0  0  0  0  0  0  0  0  0  0  0  0
  132.8605  124.1659   58.1255 H   0  0  0  0  0  0  0  0  0  0  0  0
  132.3001  123.9784   61.4671 H   0  0  0  0  0  0  0  0  0  0  0  0
  132.3208  125.5237   59.3678 H   0  0  0  0  0  0  0  0  0  0  0  0
  130.1587  126.1689   58.7784 H   0  0  0  0  0  0  0  0  0  0  0  0
  129.0772  123.9118   60.6288 H   0  0  0  0  0  0  0  0  0  0  0  0
  126.6151  123.9043   60.7238 H   0  0  0  0  0  0  0  0  0  0  0  0
  125.6966  124.4155   59.2672 H   0  0  0  0  0  0  0  0  0  0  0  0
  126.5837  122.8536   59.2672 H   0  0  0  0  0  0  0  0  0  0  0  0
  127.6790  127.0490   56.8300 H   0  0  0  0  0  0  0  0  0  0  0  0
  130.2998  127.6202   57.2754 H   0  0  0  0  0  0  0  0  0  0  0  0
  132.3380  129.5840   59.3890 H   0  0  0  0  0  0  0  0  0  0  0  0
  129.3501  131.2664   61.2312 H   0  0  0  0  0  0  0  0  0  0  0  0
  130.6124  133.0138   62.3517 H   0  0  0  0  0  0  0  0  0  0  0  0
  130.7803  131.7094   63.5968 H   0  0  0  0  0  0  0  0  0  0  0  0
  132.8600  132.9490   62.6540 H   0  0  0  0  0  0  0  0  0  0  0  0
  133.9622  131.3492   60.8840 H   0  0  0  0  0  0  0  0  0  0  0  0
  132.2378  131.1774   60.4110 H   0  0  0  0  0  0  0  0  0  0  0  0
  133.0118  132.7983   60.4110 H   0  0  0  0  0  0  0  0  0  0  0  0
  133.0691  131.2816   64.3603 H   0  0  0  0  0  0  0  0  0  0  0  0
  132.8692  130.0035   63.1141 H   0  0  0  0  0  0  0  0  0  0  0  0
  134.3392  131.0358   63.1141 H   0  0  0  0  0  0  0  0  0  0  0  0
  126.9170  126.9410   61.2100 H   0  0  0  0  0  0  0  0  0  0  0  0
  128.3112  130.1310   62.1894 H   0  0  0  0  0  0  0  0  0  0  0  0
  127.0746  128.7958   61.9711 H   0  0  0  0  0  0  0  0  0  0  0  0
  129.6433  128.7667   63.5941 H   0  0  0  0  0  0  0  0  0  0  0  0
  128.2218  128.3894   65.4288 H   0  0  0  0  0  0  0  0  0  0  0  0
  127.2158  129.4730   64.4089 H   0  0  0  0  0  0  0  0  0  0  0  0
  126.9125  127.7025   64.4089 H   0  0  0  0  0  0  0  0  0  0  0  0
  128.0907  126.2989   62.7678 H   0  0  0  0  0  0  0  0  0  0  0  0
  129.7625  126.8256   62.2050 H   0  0  0  0  0  0  0  0  0  0  0  0
  129.2688  125.0415   64.2138 H   0  0  0  0  0  0  0  0  0  0  0  0
  129.3777  126.6874   67.4469 H   0  0  0  0  0  0  0  0  0  0  0  0
  128.2050  125.6297   66.5908 H   0  0  0  0  0  0  0  0  0  0  0  0
  129.9532  125.2168   66.5908 H   0  0  0  0  0  0  0  0  0  0  0  0
  131.6290  126.6065   63.5430 H   0  0  0  0  0  0  0  0  0  0  0  0
  131.5460  124.8955   62.1428 H   0  0  0  0  0  0  0  0  0  0  0  0
  133.3195  124.1200   64.5247 H   0  0  0  0  0  0  0  0  0  0  0  0
  133.3628  123.1838   62.9922 H   0  0  0  0  0  0  0  0  0  0  0  0
  133.7954  124.9272   62.9922 H   0  0  0  0  0  0  0  0  0  0  0  0
  130.4269  123.0038   64.2450 H   0  0  0  0  0  0  0  0  0  0  0  0
  129.3663  121.1584   63.5899 H   0  0  0  0  0  0  0  0  0  0  0  0
  128.4717  121.4561   62.0609 H   0  0  0  0  0  0  0  0  0  0  0  0
  129.9227  120.3972   62.0609 H   0  0  0  0  0  0  0  0  0  0  0  0
  129.8786  123.0982   60.2386 H   0  0  0  0  0  0  0  0  0  0  0  0
  130.3020  119.1300   60.3080 H   0  0  0  0  0  0  0  0  0  0  0  0
  131.6860  118.4270   61.1360 H   0  0  0  0  0  0  0  0  0  0  0  0
  1  2  1  0
  2  3  1  0
  3  4  1  0
  4  5  2  0
  5  6  1  0
  6  7  2  0
  7  8  1  0
  7  9  1  0
  9 10  2  0
  9 11  1  0
 11 12  1  0
 12 13  2  0
 13 14  1  0
 14 15  1  0
 14 16  2  0
 16 17  1  0
 17 18  2  0
 18 19  1  0
 19 20  1  0
 20 21  1  0
 20 22  1  0
 16 23  1  0
 23 24  2  0
 24 25  1  0
 23 26  1  0
 26 27  1  0
 27 28  1  0
 27 29  1  0
 29 30  1  0
 30 31  1  0
 31 32  1  0
 30 33  1  0
 33 34  1  0
 34 35  2  0
 33 36  1  0
 36 37  1  0
 36 38  1  0
 38 39  2  0
 39 40  1  0
 39 41  1  0
 41 42  1  0
 42 43  1  0
 43 44  1  0
 43 45  2  0
 41  3  1  0
 24 12  1  0
  1 46  1  0
  1 47  1  0
  1 48  1  0
  3 49  1  1
  4 50  1  0
  5 51  1  0
  6 52  1  0
  8 53  1  0
  8 54  1  0
  8 55  1  0
 11 56  1  0
 13 57  1  0
 15 58  1  0
 18 59  1  0
 19 60  1  0
 19 61  1  0
 20 62  1  0
 21 63  1  0
 21 64  1  0
 21 65  1  0
 22 66  1  0
 22 67  1  0
 22 68  1  0
 25 69  1  0
 26 70  1  0
 26 71  1  0
 27 72  1  1
 28 73  1  0
 28 74  1  0
 28 75  1  0
 29 76  1  0
 29 77  1  0
 30 78  1  1
 32 79  1  0
 32 80  1  0
 32 81  1  0
 33 82  1  6
 36 83  1  6
 37 84  1  0
 37 85  1  0
 37 86  1  0
 38 87  1  0
 40 88  1  0
 40 89  1  0
 40 90  1  0
 41 91  1  6
 44 92  1  0
 44 93  1  0
M  CHG  1  20   1
M  END
>  <Binding energies>  (1) 
[-3.15]

>  <Ligand effiencies>  (1) 
[-0.059433962264150944]

>  <Interactions>  (1) 
["V-A:ILE:369:CG2:3237, V-B:PRO:540:CA:9855, V-A:ALA:541:C:4888, V-A:ILE:369:CB:3236, V-B:GLU:543:CB:9878, V-A:PRO:540:C:4881, H-A:ALA:541:O:4889, V-B:ALA:541:CB:9864, H-A:TYR:531:OH:4795, V-B:TYR:539:CE2:9848, V-B:GLU:543:CG:9879, V-A:ASN:362:CB:3176, V-B:TYR:539:CZ:9849, H-B:GLU:543:OE1:9881, V-A:ALA:541:CB:4892, V-A:GLU:543:CD:4908, V-B:PRO:540:CB:9857, V-A:ASN:362:CG:3177, H-B:ASP:366:OD1:8185, V-A:ALA:541:CA:4890, V-B:TYR:539:CD2:9846, V-A:GLU:543:CG:4907, H-A:SER:385:OG:3410, V-B:GLU:543:CD:9880, H-B:TYR:531:OH:9767, V-A:LEU:475:CD2:4259, H-A:ARG:545:NH2:4928, V-A:ARG:545:CZ:4926, V-A:PRO:540:CB:4885, V-A:PRO:540:CA:4883, H-B:TYR:539:O:9840, H-A:ARG:545:NE:4924, H-A:ASP:366:OD2:3215, V-B:ALA:541:CA:9862, H-A:TYR:484:OH:4348"]

$$$$
ZINC169818343
     RDKit          3D

 80 82  0  0  0  0  0  0  0  0999 V2000
  129.0560  127.3890   72.2240 C   0  0  0  0  0  0  0  0  0  0  0  0
  130.2660  128.2300   71.7930 C   0  0  0  0  0  0  0  0  0  0  0  0
  130.6280  128.0410   70.3100 C   0  0  0  0  0  0  0  0  0  0  0  0
  129.4890  127.4020   69.4900 C   0  0  0  0  0  0  0  0  0  0  0  0
  129.1270  128.1680   68.2020 C   0  0  0  0  0  0  0  0  0  0  0  0
  128.2730  127.3610   67.2040 C   0  0  0  0  0  0  0  0  0  0  0  0
  129.1090  126.6710   66.1120 C   0  0  0  0  0  0  0  0  0  0  0  0
  130.2570  125.8250   66.6910 C   0  0  0  0  0  0  0  0  0  0  0  0
  130.3210  124.4030   66.1030 C   0  0  0  0  0  0  0  0  0  0  0  0
  130.7430  124.3950   64.6200 C   0  0  0  0  0  0  0  0  0  0  0  0
  129.7510  123.6820   63.6810 C   0  0  0  0  0  0  0  0  0  0  0  0
  129.0740  124.6080   62.6540 C   0  0  0  0  0  0  0  0  0  0  0  0
  129.5510  124.2450   60.8560 Si  0  0  0  0  0  4  0  0  0  0  0  0
  127.9870  123.8680   59.8700 C   0  0  0  0  0  0  0  0  0  0  0  0
  126.7230  124.1300   60.4090 C   0  0  0  0  0  0  0  0  0  0  0  0
  125.5610  123.8570   59.6890 C   0  0  0  0  0  0  0  0  0  0  0  0
  125.6460  123.3140   58.4090 C   0  0  0  0  0  0  0  0  0  0  0  0
  126.8970  123.0410   57.8510 C   0  0  0  0  0  0  0  0  0  0  0  0
  126.9990  122.4620   56.4510 C   0  0  0  0  0  0  0  0  0  0  0  0
  128.0540  123.3260   58.5810 C   0  0  0  0  0  0  0  0  0  0  0  0
  130.4210  125.7330   60.0900 C   0  0  0  0  0  0  0  0  0  0  0  0
  131.1540  125.6150   58.9040 C   0  0  0  0  0  0  0  0  0  0  0  0
  131.8010  126.7150   58.3430 C   0  0  0  0  0  0  0  0  0  0  0  0
  131.7240  127.9590   58.9640 C   0  0  0  0  0  0  0  0  0  0  0  0
  131.0030  128.1020   60.1500 C   0  0  0  0  0  0  0  0  0  0  0  0
  130.9050  129.4590   60.8230 C   0  0  0  0  0  0  0  0  0  0  0  0
  130.3570  126.9910   60.7000 C   0  0  0  0  0  0  0  0  0  0  0  0
  130.7270  122.7710   60.7580 C   0  0  0  0  0  0  0  0  0  0  0  0
  132.0960  122.9590   60.5330 C   0  0  0  0  0  0  0  0  0  0  0  0
  132.9720  121.8770   60.4640 C   0  0  0  0  0  0  0  0  0  0  0  0
  132.4890  120.5800   60.6210 C   0  0  0  0  0  0  0  0  0  0  0  0
  131.1280  120.3660   60.8490 C   0  0  0  0  0  0  0  0  0  0  0  0
  130.6040  118.9540   61.0270 C   0  0  0  0  0  0  0  0  0  0  0  0
  130.2610  121.4610   60.9200 C   0  0  0  0  0  0  0  0  0  0  0  0
  129.0061  127.3543   73.3223 H   0  0  0  0  0  0  0  0  0  0  0  0
  128.1349  127.8426   71.8292 H   0  0  0  0  0  0  0  0  0  0  0  0
  129.1601  126.3676   71.8292 H   0  0  0  0  0  0  0  0  0  0  0  0
  130.0351  129.2916   71.9655 H   0  0  0  0  0  0  0  0  0  0  0  0
  131.1287  127.8970   72.3886 H   0  0  0  0  0  0  0  0  0  0  0  0
  130.8620  129.0251   69.8778 H   0  0  0  0  0  0  0  0  0  0  0  0
  131.4895  127.3584   70.2653 H   0  0  0  0  0  0  0  0  0  0  0  0
  129.7956  126.3833   69.2102 H   0  0  0  0  0  0  0  0  0  0  0  0
  128.5935  127.4190   70.1286 H   0  0  0  0  0  0  0  0  0  0  0  0
  128.5660  129.0711   68.4842 H   0  0  0  0  0  0  0  0  0  0  0  0
  130.0754  128.3960   67.6934 H   0  0  0  0  0  0  0  0  0  0  0  0
  127.7197  126.5901   67.7604 H   0  0  0  0  0  0  0  0  0  0  0  0
  127.5992  128.0704   66.7012 H   0  0  0  0  0  0  0  0  0  0  0  0
  128.4493  126.0150   65.5252 H   0  0  0  0  0  0  0  0  0  0  0  0
  129.5574  127.4585   65.4884 H   0  0  0  0  0  0  0  0  0  0  0  0
  131.2083  126.3344   66.4777 H   0  0  0  0  0  0  0  0  0  0  0  0
  130.0749  125.7235   67.7711 H   0  0  0  0  0  0  0  0  0  0  0  0
  131.0499  123.8152   66.6802 H   0  0  0  0  0  0  0  0  0  0  0  0
  129.3117  123.9701   66.1653 H   0  0  0  0  0  0  0  0  0  0  0  0
  130.8448  125.4379   64.2854 H   0  0  0  0  0  0  0  0  0  0  0  0
  131.6873  123.8335   64.5648 H   0  0  0  0  0  0  0  0  0  0  0  0
  130.2968  122.9001   63.1327 H   0  0  0  0  0  0  0  0  0  0  0  0
  128.9498  123.2778   64.3172 H   0  0  0  0  0  0  0  0  0  0  0  0
  127.9842  124.4952   62.7522 H   0  0  0  0  0  0  0  0  0  0  0  0
  129.4157  125.6303   62.8736 H   0  0  0  0  0  0  0  0  0  0  0  0
  126.6446  124.5590   61.4188 H   0  0  0  0  0  0  0  0  0  0  0  0
  124.5769  124.0704   60.1316 H   0  0  0  0  0  0  0  0  0  0  0  0
  124.7298  123.1007   57.8389 H   0  0  0  0  0  0  0  0  0  0  0  0
  127.1895  121.3805   56.5145 H   0  0  0  0  0  0  0  0  0  0  0  0
  126.0562  122.6372   55.9122 H   0  0  0  0  0  0  0  0  0  0  0  0
  127.8252  122.9489   55.9122 H   0  0  0  0  0  0  0  0  0  0  0  0
  129.0376  123.1202   58.1336 H   0  0  0  0  0  0  0  0  0  0  0  0
  131.2209  124.6368   58.4054 H   0  0  0  0  0  0  0  0  0  0  0  0
  132.3722  126.6003   57.4100 H   0  0  0  0  0  0  0  0  0  0  0  0
  132.2312  128.8282   58.5199 H   0  0  0  0  0  0  0  0  0  0  0  0
  130.9144  129.3282   61.9152 H   0  0  0  0  0  0  0  0  0  0  0  0
  131.7606  130.0808   60.5208 H   0  0  0  0  0  0  0  0  0  0  0  0
  129.9690  129.9514   60.5208 H   0  0  0  0  0  0  0  0  0  0  0  0
  129.7858  127.1081   61.6327 H   0  0  0  0  0  0  0  0  0  0  0  0
  132.4875  123.9794   60.4084 H   0  0  0  0  0  0  0  0  0  0  0  0
  134.0440  122.0473   60.2857 H   0  0  0  0  0  0  0  0  0  0  0  0
  133.1790  119.7251   60.5654 H   0  0  0  0  0  0  0  0  0  0  0  0
  130.5197  118.7267   62.1000 H   0  0  0  0  0  0  0  0  0  0  0  0
  129.6141  118.8680   60.5551 H   0  0  0  0  0  0  0  0  0  0  0  0
  131.2982  118.2431   60.5551 H   0  0  0  0  0  0  0  0  0  0  0  0
  129.1907  121.2893   61.1070 H   0  0  0  0  0  0  0  0  0  0  0  0
  1  2  1  0
  2  3  1  0
  3  4  1  0
  4  5  1  0
  5  6  1  0
  6  7  1  0
  7  8  1  0
  8  9  1  0
  9 10  1  0
 10 11  1  0
 11 12  1  0
 12 13  1  0
 13 14  1  0
 14 15  2  0
 15 16  1  0
 16 17  2  0
 17 18  1  0
 18 19  1  0
 18 20  2  0
 13 21  1  0
 21 22  2  0
 22 23  1  0
 23 24  2  0
 24 25  1  0
 25 26  1  0
 25 27  2  0
 13 28  1  0
 28 29  2  0
 29 30  1  0
 30 31  2  0
 31 32  1  0
 32 33  1  0
 32 34  2  0
 20 14  1  0
 27 21  1  0
 34 28  1  0
  1 35  1  0
  1 36  1  0
  1 37  1  0
  2 38  1  0
  2 39  1  0
  3 40  1  0
  3 41  1  0
  4 42  1  0
  4 43  1  0
  5 44  1  0
  5 45  1  0
  6 46  1  0
  6 47  1  0
  7 48  1  0
  7 49  1  0
  8 50  1  0
  8 51  1  0
  9 52  1  0
  9 53  1  0
 10 54  1  0
 10 55  1  0
 11 56  1  0
 11 57  1  0
 12 58  1  0
 12 59  1  0
 15 60  1  0
 16 61  1  0
 17 62  1  0
 19 63  1  0
 19 64  1  0
 19 65  1  0
 20 66  1  0
 22 67  1  0
 23 68  1  0
 24 69  1  0
 26 70  1  0
 26 71  1  0
 26 72  1  0
 27 73  1  0
 29 74  1  0
 30 75  1  0
 31 76  1  0
 33 77  1  0
 33 78  1  0
 33 79  1  0
 34 80  1  0
M  END
>  <Binding energies>  (1) 
[-7.86]

>  <Ligand effiencies>  (1) 
[-0.23117647058823532]

>  <Interactions>  (1) 
["V-A:ILE:369:CG2:3237, V-B:PRO:540:CA:9855, V-A:GLU:543:C:4902, V-B:GLU:543:CB:9878, V-B:TYR:539:CE2:9848, V-A:TYR:484:CE2:4346, V-B:GLU:543:CG:9879, V-A:GLY:544:C:4912, V-B:TYR:539:C:9839, V-A:ASP:366:CG:3213, V-A:GLU:543:CD:4908, V-A:TYR:484:CZ:4347, V-B:PRO:540:CB:9857, V-B:HIS:456:CE1:9041, V-B:PRO:540:N:9856, V-A:HIS:456:CE1:4070, V-B:TYR:539:CD2:9846, V-A:GLU:543:CG:4907, V-B:PRO:540:CD:9859, V-A:SER:385:CB:3409, V-B:GLU:543:CD:9880, V-A:ASP:366:CB:3212, V-A:LEU:475:CD2:4259, V-B:TYR:539:CG:9844, V-A:GLU:543:CB:4906, V-B:TYR:539:CD1:9845, V-B:TYR:539:CE1:9847"]

$$$$
ZINC169818475
     RDKit          3D

 71 73  0  0  0  0  0  0  0  0999 V2000
  127.9610  129.6890   65.5180 C   0  0  0  0  0  0  0  0  0  0  0  0
  127.3350  129.2760   66.8580 C   0  0  0  0  0  0  0  0  0  0  0  0
  128.3680  128.7330   67.8600 C   0  0  0  0  0  0  0  0  0  0  0  0
  127.9600  127.3780   68.4680 C   0  0  0  0  0  0  0  0  0  0  0  0
  129.0990  126.3430   68.4440 C   0  0  0  0  0  0  0  0  0  0  0  0
  129.9290  126.3970   67.1490 C   0  0  0  0  0  0  0  0  0  0  0  0
  129.0590  126.4900   65.8820 C   0  0  0  0  0  0  0  0  0  0  0  0
  129.8700  126.3230   64.5850 C   0  0  0  0  0  0  0  0  0  0  0  0
  130.6480  124.9920   64.5310 C   0  0  0  0  0  0  0  0  0  0  0  0
  129.9950  123.8410   65.3220 C   0  0  0  0  0  0  0  0  0  0  0  0
  129.1060  122.9130   64.4700 C   0  0  0  0  0  0  0  0  0  0  0  0
  129.8670  121.7020   63.9060 C   0  0  0  0  0  0  0  0  0  0  0  0
  130.0550  121.7340   62.0220 Si  0  0  0  0  0  4  0  0  0  0  0  0
  131.5670  122.7360   61.5070 C   0  0  0  0  0  0  0  0  0  0  0  0
  131.4930  123.6320   60.4350 C   0  0  0  0  0  0  0  0  0  0  0  0
  132.6010  124.3810   60.0410 C   0  0  0  0  0  0  0  0  0  0  0  0
  133.8110  124.2420   60.7200 C   0  0  0  0  0  0  0  0  0  0  0  0
  133.9050  123.3550   61.7900 C   0  0  0  0  0  0  0  0  0  0  0  0
  135.0760  123.2150   62.4520 F   0  0  0  0  0  0  0  0  0  0  0  0
  132.7900  122.6110   62.1760 C   0  0  0  0  0  0  0  0  0  0  0  0
  130.2450  119.9640   61.3960 C   0  0  0  0  0  0  0  0  0  0  0  0
  129.4800  118.9240   61.9390 C   0  0  0  0  0  0  0  0  0  0  0  0
  129.6150  117.6130   61.4840 C   0  0  0  0  0  0  0  0  0  0  0  0
  130.5290  117.3200   60.4730 C   0  0  0  0  0  0  0  0  0  0  0  0
  131.3020  118.3380   59.9230 C   0  0  0  0  0  0  0  0  0  0  0  0
  132.1920  118.0600   58.9440 F   0  0  0  0  0  0  0  0  0  0  0  0
  131.1600  119.6480   60.3850 C   0  0  0  0  0  0  0  0  0  0  0  0
  128.5500  122.5350   61.2110 C   0  0  0  0  0  0  0  0  0  0  0  0
  127.4980  123.0450   61.9820 C   0  0  0  0  0  0  0  0  0  0  0  0
  126.3860  123.6380   61.3830 C   0  0  0  0  0  0  0  0  0  0  0  0
  126.3100  123.7320   59.9960 C   0  0  0  0  0  0  0  0  0  0  0  0
  127.3500  123.2360   59.2120 C   0  0  0  0  0  0  0  0  0  0  0  0
  127.2840  123.3260   57.8640 F   0  0  0  0  0  0  0  0  0  0  0  0
  128.4580  122.6450   59.8190 C   0  0  0  0  0  0  0  0  0  0  0  0
  128.8659  130.2860   65.7045 H   0  0  0  0  0  0  0  0  0  0  0  0
  128.2274  128.7887   64.9448 H   0  0  0  0  0  0  0  0  0  0  0  0
  127.2382  130.2881   64.9448 H   0  0  0  0  0  0  0  0  0  0  0  0
  126.8442  130.1548   67.3016 H   0  0  0  0  0  0  0  0  0  0  0  0
  126.6186  128.4671   66.6519 H   0  0  0  0  0  0  0  0  0  0  0  0
  129.3294  128.6090   67.3401 H   0  0  0  0  0  0  0  0  0  0  0  0
  128.4387  129.4567   68.6853 H   0  0  0  0  0  0  0  0  0  0  0  0
  127.6547  127.5397   69.5123 H   0  0  0  0  0  0  0  0  0  0  0  0
  127.1370  126.9771   67.8581 H   0  0  0  0  0  0  0  0  0  0  0  0
  129.7663  126.5354   69.2970 H   0  0  0  0  0  0  0  0  0  0  0  0
  128.6399  125.3450   68.5009 H   0  0  0  0  0  0  0  0  0  0  0  0
  130.5852  127.2789   67.1894 H   0  0  0  0  0  0  0  0  0  0  0  0
  130.5036  125.4611   67.0864 H   0  0  0  0  0  0  0  0  0  0  0  0
  128.2948  125.6999   65.9223 H   0  0  0  0  0  0  0  0  0  0  0  0
  128.6095  127.4938   65.8632 H   0  0  0  0  0  0  0  0  0  0  0  0
  129.1778  126.3599   63.7309 H   0  0  0  0  0  0  0  0  0  0  0  0
  130.6076  127.1383   64.5494 H   0  0  0  0  0  0  0  0  0  0  0  0
  130.7294  124.6834   63.4783 H   0  0  0  0  0  0  0  0  0  0  0  0
  131.6255  125.1801   64.9991 H   0  0  0  0  0  0  0  0  0  0  0  0
  130.7948  123.2346   65.7722 H   0  0  0  0  0  0  0  0  0  0  0  0
  129.3387  124.3058   66.0725 H   0  0  0  0  0  0  0  0  0  0  0  0
  128.2799  122.5466   65.0971 H   0  0  0  0  0  0  0  0  0  0  0  0
  128.7430  123.5007   63.6140 H   0  0  0  0  0  0  0  0  0  0  0  0
  130.8709  121.6823   64.3552 H   0  0  0  0  0  0  0  0  0  0  0  0
  129.2787  120.8068   64.1560 H   0  0  0  0  0  0  0  0  0  0  0  0
  130.5429  123.7477   59.8929 H   0  0  0  0  0  0  0  0  0  0  0  0
  132.5208  125.0805   59.1958 H   0  0  0  0  0  0  0  0  0  0  0  0
  134.6878  124.8304   60.4119 H   0  0  0  0  0  0  0  0  0  0  0  0
  132.8735  121.9130   63.0220 H   0  0  0  0  0  0  0  0  0  0  0  0
  128.7590  119.1457   62.7396 H   0  0  0  0  0  0  0  0  0  0  0  0
  129.0017  116.8117   61.9218 H   0  0  0  0  0  0  0  0  0  0  0  0
  130.6388  116.2871   60.1111 H   0  0  0  0  0  0  0  0  0  0  0  0
  131.7780  120.4456   59.9468 H   0  0  0  0  0  0  0  0  0  0  0  0
  127.5492  122.9769   63.0787 H   0  0  0  0  0  0  0  0  0  0  0  0
  125.5695  124.0312   62.0065 H   0  0  0  0  0  0  0  0  0  0  0  0
  125.4329  124.1957   59.5210 H   0  0  0  0  0  0  0  0  0  0  0  0
  129.2747  122.2582   59.1918 H   0  0  0  0  0  0  0  0  0  0  0  0
  1  2  1  0
  2  3  1  0
  3  4  1  0
  4  5  1  0
  5  6  1  0
  6  7  1  0
  7  8  1  0
  8  9  1  0
  9 10  1  0
 10 11  1  0
 11 12  1  0
 12 13  1  0
 13 14  1  0
 14 15  2  0
 15 16  1  0
 16 17  2  0
 17 18  1  0
 18 19  1  0
 18 20  2  0
 13 21  1  0
 21 22  2  0
 22 23  1  0
 23 24  2  0
 24 25  1  0
 25 26  1  0
 25 27  2  0
 13 28  1  0
 28 29  2  0
 29 30  1  0
 30 31  2  0
 31 32  1  0
 32 33  1  0
 32 34  2  0
 20 14  1  0
 27 21  1  0
 34 28  1  0
  1 35  1  0
  1 36  1  0
  1 37  1  0
  2 38  1  0
  2 39  1  0
  3 40  1  0
  3 41  1  0
  4 42  1  0
  4 43  1  0
  5 44  1  0
  5 45  1  0
  6 46  1  0
  6 47  1  0
  7 48  1  0
  7 49  1  0
  8 50  1  0
  8 51  1  0
  9 52  1  0
  9 53  1  0
 10 54  1  0
 10 55  1  0
 11 56  1  0
 11 57  1  0
 12 58  1  0
 12 59  1  0
 15 60  1  0
 16 61  1  0
 17 62  1  0
 20 63  1  0
 22 64  1  0
 23 65  1  0
 24 66  1  0
 27 67  1  0
 29 68  1  0
 30 69  1  0
 31 70  1  0
 34 71  1  0
M  END
>  <Binding energies>  (1) 
[-7.27]

>  <Ligand effiencies>  (1) 
[-0.2138235294117647]

>  <Interactions>  (1) 
["V-B:PRO:540:CA:9855, V-A:GLY:454:CA:4049, V-B:GLU:543:C:9874, V-B:GLU:543:CB:9878, V-B:ALA:541:CB:9864, V-B:TYR:539:CE2:9848, V-A:TYR:484:CE2:4346, V-A:LEU:475:CG:4257, V-B:GLU:543:CG:9879, V-B:TYR:539:C:9839, V-A:ASP:366:CG:3213, V-A:LEU:475:CD1:4258, V-B:TYR:539:CB:9843, V-A:HIS:383:CE1:3393, V-A:GLU:543:CD:4908, V-A:TYR:484:CZ:4347, V-B:PRO:540:CB:9857, V-B:HIS:456:CE1:9041, V-B:GLU:543:CA:9876, V-A:GLY:453:C:4042, V-B:PRO:540:N:9856, V-A:HIS:456:CE1:4070, V-B:TYR:484:CZ:9318, V-A:ILE:369:CD1:3239, V-A:PRO:482:CB:4326, V-B:TYR:539:CD2:9846, V-A:GLU:543:CG:4907, V-B:GLU:543:CD:9880, V-A:LEU:475:CD2:4259, V-B:TYR:539:CG:9844, V-A:GLU:543:CB:4906, V-A:HIS:383:CD2:3392, V-A:GLY:453:CA:4044, V-A:PRO:482:CG:4327, V-B:PRO:540:C:9853, V-B:ALA:541:CA:9862, V-A:HIS:383:NE2:3394"]

$$$$
ZINC169831256
     RDKit          3D

102105  0  0  0  0  0  0  0  0999 V2000
  129.3450  121.3290   61.3240 C   0  0  0  0  0  0  0  0  0  0  0  0
  129.0230  122.5550   60.8820 C   0  0  0  0  0  0  0  0  0  0  0  0
  129.7780  123.8740   60.9260 C   0  0  1  0  0  0  0  0  0  0  0  0
  130.2520  124.1270   59.4750 C   0  0  0  0  0  0  0  0  0  0  0  0
  129.0450  124.2560   58.5160 C   0  0  0  0  0  0  0  0  0  0  0  0
  127.6690  123.9010   59.1550 C   0  0  2  0  0  0  0  0  0  0  0  0
  126.4840  123.9550   58.1790 C   0  0  0  0  0  0  0  0  0  0  0  0
  127.4460  124.3470   60.5940 C   0  0  1  0  0  0  0  0  0  0  0  0
  127.6530  122.8600   60.2720 C   0  0  2  0  0  0  0  0  0  0  0  0
  128.6730  124.8650   61.3960 C   0  0  1  0  0  0  0  0  0  0  0  0
  128.3510  124.6380   62.7610 O   0  0  0  0  0  0  0  0  0  0  0  0
  129.0060  126.3670   61.2080 C   0  0  0  0  0  0  0  0  0  0  0  0
  128.9670  126.9440   59.9860 C   0  0  0  0  0  0  0  0  0  0  0  0
  129.4240  127.1650   62.4650 C   0  0  1  0  0  0  0  0  0  0  0  0
  128.2240  127.8120   63.2100 C   0  0  0  0  0  0  0  0  0  0  0  0
  126.9810  128.0820   62.3380 C   0  0  0  0  0  0  0  0  0  0  0  0
  126.5020  129.5530   62.4320 C   0  0  0  0  0  0  0  0  0  0  0  0
  127.4660  130.6740   61.9320 C   0  0  0  0  0  0  0  0  0  0  0  0
  128.3180  130.2380   60.7020 C   0  0  0  0  0  0  0  0  0  0  0  0
  129.8210  130.0020   60.9590 C   0  0  0  0  0  0  0  0  0  0  0  0
  130.6670  130.2540   59.7210 C   0  0  0  0  0  0  0  0  0  0  0  0
  131.8380  130.9270   59.6440 C   0  0  0  0  0  0  0  0  0  0  0  0
  132.5420  131.5530   60.8410 C   0  0  0  0  0  0  0  0  0  0  0  0
  132.5930  131.1130   58.3260 C   0  0  0  0  0  0  0  0  0  0  0  0
  131.7840  131.5960   57.2500 O   0  0  0  0  0  0  0  0  0  0  0  0
  131.6180  132.9810   57.1910 C   0  0  0  0  0  0  0  0  0  0  0  0
  130.3030  133.3470   56.9140 O   0  0  0  0  0  0  0  0  0  0  0  0
  129.3740  132.9670   57.9160 C   0  0  0  0  0  0  0  0  0  0  0  0
  126.3980  132.0740   61.4060 S   0  0  0  0  0  0  0  0  0  0  0  0
  127.6280  133.3760   61.0730 C   0  0  0  0  0  0  0  0  0  0  0  0
  128.5400  133.6900   62.2690 C   0  0  0  0  0  0  0  0  0  0  0  0
  129.4540  132.5280   62.6870 C   0  0  0  0  0  0  0  0  0  0  0  0
  128.5450  131.1030   63.3550 S   0  0  0  0  0  0  0  0  0  0  0  0
  130.3630  126.4140   63.4470 C   0  0  0  0  0  0  0  0  0  0  0  0
  131.3530  125.7000   62.7300 O   0  0  0  0  0  0  0  0  0  0  0  0
  132.3000  124.4570   63.3460 Si  0  0  0  0  0  4  0  0  0  0  0  0
  133.1690  125.0950   64.8970 C   0  0  0  0  0  0  0  0  0  0  0  0
  131.1580  123.0170   63.7720 C   0  0  0  0  0  0  0  0  0  0  0  0
  133.5560  123.9820   61.9980 C   0  0  0  0  0  0  0  0  0  0  0  0
  133.1760  124.6520   60.6610 C   0  0  0  0  0  0  0  0  0  0  0  0
  134.9690  124.4460   62.4080 C   0  0  0  0  0  0  0  0  0  0  0  0
  133.5650  122.4500   61.8090 C   0  0  0  0  0  0  0  0  0  0  0  0
  128.6418  120.4938   61.1900 H   0  0  0  0  0  0  0  0  0  0  0  0
  130.3120  121.1596   61.8202 H   0  0  0  0  0  0  0  0  0  0  0  0
  130.6612  123.9402   61.5784 H   0  0  0  0  0  0  0  0  0  0  0  0
  130.8378  125.0576   59.4443 H   0  0  0  0  0  0  0  0  0  0  0  0
  130.8684  123.2750   59.1524 H   0  0  0  0  0  0  0  0  0  0  0  0
  128.9997  125.2955   58.1591 H   0  0  0  0  0  0  0  0  0  0  0  0
  129.2102  123.5293   57.7069 H   0  0  0  0  0  0  0  0  0  0  0  0
  125.5429  123.9979   58.7469 H   0  0  0  0  0  0  0  0  0  0  0  0
  126.5712  124.8501   57.5456 H   0  0  0  0  0  0  0  0  0  0  0  0
  126.4894  123.0557   57.5456 H   0  0  0  0  0  0  0  0  0  0  0  0
  126.6883  125.0039   61.0461 H   0  0  0  0  0  0  0  0  0  0  0  0
  127.1383  121.8913   60.3543 H   0  0  0  0  0  0  0  0  0  0  0  0
  127.3960  124.6440   62.8500 H   0  0  0  0  0  0  0  0  0  0  0  0
  129.2068  128.0117   59.8740 H   0  0  0  0  0  0  0  0  0  0  0  0
  128.6954  126.3458   59.1037 H   0  0  0  0  0  0  0  0  0  0  0  0
  130.0349  127.9789   62.0474 H   0  0  0  0  0  0  0  0  0  0  0  0
  127.9270  127.1383   64.0273 H   0  0  0  0  0  0  0  0  0  0  0  0
  128.5736  128.7953   63.5578 H   0  0  0  0  0  0  0  0  0  0  0  0
  127.2290  127.8574   61.2901 H   0  0  0  0  0  0  0  0  0  0  0  0
  126.1671  127.4399   62.7059 H   0  0  0  0  0  0  0  0  0  0  0  0
  125.5756  129.6329   61.8443 H   0  0  0  0  0  0  0  0  0  0  0  0
  126.4023  129.7396   63.5115 H   0  0  0  0  0  0  0  0  0  0  0  0
  127.8929  129.2998   60.3158 H   0  0  0  0  0  0  0  0  0  0  0  0
  128.2703  131.0825   59.9987 H   0  0  0  0  0  0  0  0  0  0  0  0
  130.1536  130.6806   61.7583 H   0  0  0  0  0  0  0  0  0  0  0  0
  129.9510  128.9479   61.2453 H   0  0  0  0  0  0  0  0  0  0  0  0
  130.2817  129.8406   58.7773 H   0  0  0  0  0  0  0  0  0  0  0  0
  132.1024  131.1621   61.7705 H   0  0  0  0  0  0  0  0  0  0  0  0
  133.6128  131.3033   60.8084 H   0  0  0  0  0  0  0  0  0  0  0  0
  132.4192  132.6456   60.8084 H   0  0  0  0  0  0  0  0  0  0  0  0
  133.4085  131.8318   58.4941 H   0  0  0  0  0  0  0  0  0  0  0  0
  132.9562  130.1187   58.0268 H   0  0  0  0  0  0  0  0  0  0  0  0
  131.9083  133.4131   58.1600 H   0  0  0  0  0  0  0  0  0  0  0  0
  132.2506  133.3601   56.3748 H   0  0  0  0  0  0  0  0  0  0  0  0
  129.8120  133.1462   58.9090 H   0  0  0  0  0  0  0  0  0  0  0  0
  128.4547  133.5613   57.8081 H   0  0  0  0  0  0  0  0  0  0  0  0
  129.1348  131.8988   57.8081 H   0  0  0  0  0  0  0  0  0  0  0  0
  128.2585  133.0503   60.2325 H   0  0  0  0  0  0  0  0  0  0  0  0
  127.0675  134.2954   60.8482 H   0  0  0  0  0  0  0  0  0  0  0  0
  129.1738  134.5489   62.0032 H   0  0  0  0  0  0  0  0  0  0  0  0
  127.8796  133.8957   63.1243 H   0  0  0  0  0  0  0  0  0  0  0  0
  130.0233  132.1971   61.8058 H   0  0  0  0  0  0  0  0  0  0  0  0
  130.1095  132.9008   63.4878 H   0  0  0  0  0  0  0  0  0  0  0  0
  130.8506  127.1424   64.1116 H   0  0  0  0  0  0  0  0  0  0  0  0
  129.7675  125.7036   64.0392 H   0  0  0  0  0  0  0  0  0  0  0  0
  132.6512  124.7149   65.7900 H   0  0  0  0  0  0  0  0  0  0  0  0
  134.2124  124.7469   64.9021 H   0  0  0  0  0  0  0  0  0  0  0  0
  133.1494  126.1948   64.9021 H   0  0  0  0  0  0  0  0  0  0  0  0
  131.0816  122.9206   64.8651 H   0  0  0  0  0  0  0  0  0  0  0  0
  130.1596  123.2035   63.3496 H   0  0  0  0  0  0  0  0  0  0  0  0
  131.5670  122.0873   63.3496 H   0  0  0  0  0  0  0  0  0  0  0  0
  132.6424  125.5929   60.8610 H   0  0  0  0  0  0  0  0  0  0  0  0
  134.0886  124.8635   60.0844 H   0  0  0  0  0  0  0  0  0  0  0  0
  132.5261  123.9773   60.0844 H   0  0  0  0  0  0  0  0  0  0  0  0
  135.0430  124.4703   63.5052 H   0  0  0  0  0  0  0  0  0  0  0  0
  135.7160  123.7460   62.0056 H   0  0  0  0  0  0  0  0  0  0  0  0
  135.1556  125.4526   62.0056 H   0  0  0  0  0  0  0  0  0  0  0  0
  133.5679  121.9591   62.7934 H   0  0  0  0  0  0  0  0  0  0  0  0
  132.6686  122.1443   61.2495 H   0  0  0  0  0  0  0  0  0  0  0  0
  134.4649  122.1549   61.2495 H   0  0  0  0  0  0  0  0  0  0  0  0
  1  2  2  0
  2  3  1  0
  3  4  1  0
  4  5  1  0
  5  6  1  0
  6  7  1  6
  6  8  1  0
  8  9  1  0
  8 10  1  0
 10 11  1  1
 10 12  1  0
 12 13  2  0
 12 14  1  0
 14 15  1  0
 15 16  1  0
 16 17  1  0
 17 18  1  0
 18 19  1  0
 19 20  1  0
 20 21  1  0
 21 22  2  0
 22 23  1  0
 22 24  1  0
 24 25  1  0
 25 26  1  0
 26 27  1  0
 27 28  1  0
 18 29  1  0
 29 30  1  0
 30 31  1  0
 31 32  1  0
 32 33  1  0
 14 34  1  0
 34 35  1  0
 35 36  1  0
 36 37  1  0
 36 38  1  0
 36 39  1  0
 39 40  1  0
 39 41  1  0
 39 42  1  0
  9  2  1  0
 33 18  1  0
 10  3  1  0
  9  6  1  0
  1 43  1  0
  1 44  1  0
  3 45  1  1
  4 46  1  0
  4 47  1  0
  5 48  1  0
  5 49  1  0
  7 50  1  0
  7 51  1  0
  7 52  1  0
  8 53  1  6
  9 54  1  6
 11 55  1  0
 13 56  1  0
 13 57  1  0
 14 58  1  6
 15 59  1  0
 15 60  1  0
 16 61  1  0
 16 62  1  0
 17 63  1  0
 17 64  1  0
 19 65  1  0
 19 66  1  0
 20 67  1  0
 20 68  1  0
 21 69  1  0
 23 70  1  0
 23 71  1  0
 23 72  1  0
 24 73  1  0
 24 74  1  0
 26 75  1  0
 26 76  1  0
 28 77  1  0
 28 78  1  0
 28 79  1  0
 30 80  1  0
 30 81  1  0
 31 82  1  0
 31 83  1  0
 32 84  1  0
 32 85  1  0
 34 86  1  0
 34 87  1  0
 37 88  1  0
 37 89  1  0
 37 90  1  0
 38 91  1  0
 38 92  1  0
 38 93  1  0
 40 94  1  0
 40 95  1  0
 40 96  1  0
 41 97  1  0
 41 98  1  0
 41 99  1  0
 42100  1  0
 42101  1  0
 42102  1  0
M  END
>  <Binding energies>  (1) 
[-8.02]

>  <Ligand effiencies>  (1) 
[-0.18651162790697673]

>  <Interactions>  (1) 
["V-B:PRO:540:CA:9855, V-A:PRO:540:CG:4886, V-A:PRO:540:C:4881, V-A:ILE:538:CB:4862, V-B:ALA:541:CB:9864, V-B:TYR:539:CE2:9848, V-B:LEU:475:CD2:9230, V-A:ASP:366:CG:3213, V-A:TYR:539:CD1:4873, V-A:LEU:363:CD1:3189, V-B:TYR:539:CZ:9849, H-B:GLU:543:OE1:9881, V-A:ALA:541:CB:4892, V-A:GLU:543:CD:4908, V-B:PRO:540:CB:9857, V-A:GLY:453:C:4042, V-B:PRO:540:N:9856, V-A:ILE:369:CD1:3239, V-A:ALA:541:CA:4890, V-B:TYR:539:CD2:9846, V-B:GLU:543:CD:9880, V-A:TYR:539:C:4867, V-A:LEU:475:CD2:4259, H-A:ARG:545:NH2:4928, V-A:ARG:545:CZ:4926, V-A:PRO:540:N:4884, H-A:TYR:539:N:4870, H-B:GLU:543:OE2:9882, V-A:GLY:453:CA:4044, V-A:PRO:540:CB:4885, V-A:PRO:540:CA:4883, V-B:PRO:540:C:9853, V-A:PRO:540:CD:4887"]

$$$$
ZINC169834384
     RDKit          3D

 97101  0  0  0  0  0  0  0  0999 V2000
  132.5690  122.7850   64.1010 C   0  0  0  0  0  0  0  0  0  0  0  0
  132.9730  124.1970   63.6430 C   0  0  0  0  0  0  0  0  0  0  0  0
  134.1560  124.2220   62.6490 C   0  0  2  0  0  0  0  0  0  0  0  0
  135.1440  125.1380   63.0850 O   0  0  0  0  0  0  0  0  0  0  0  0
  133.7440  124.5530   61.1960 C   0  0  0  0  0  0  0  0  0  0  0  0
  134.0040  123.4400   60.1530 C   0  0  0  0  0  0  0  0  0  0  0  0
  132.8220  122.4670   59.9680 C   0  0  0  0  0  0  0  0  0  0  0  0
  131.5310  122.9440   60.6130 C   0  0  0  0  0  0  0  0  0  0  0  0
  130.4970  122.1940   61.0550 C   0  0  0  0  0  0  0  0  0  0  0  0
  130.4780  120.6720   61.0540 C   0  0  0  0  0  0  0  0  0  0  0  0
  129.2470  122.8600   61.6230 C   0  0  2  0  0  0  0  0  0  0  0  0
  129.4110  123.3540   63.0580 C   0  0  0  0  0  0  0  0  0  0  0  0
  129.5990  124.7160   63.3120 C   0  0  0  0  0  0  0  0  0  0  0  0
  129.7310  125.1700   64.6210 C   0  0  0  0  0  0  0  0  0  0  0  0
  129.6800  124.2600   65.6750 C   0  0  0  0  0  0  0  0  0  0  0  0
  129.5000  122.9000   65.4300 C   0  0  0  0  0  0  0  0  0  0  0  0
  129.3650  122.4470   64.1210 C   0  0  0  0  0  0  0  0  0  0  0  0
  128.0140  122.2510   61.3190 O   0  0  0  0  0  0  0  0  0  0  0  0
  128.2340  123.4630   60.6560 C   0  0  1  0  0  0  0  0  0  0  0  0
  127.3930  124.6880   61.0290 C   0  0  0  0  0  0  0  0  0  0  0  0
  127.7290  125.7060   59.9300 C   0  0  2  0  0  0  0  0  0  0  0  0
  127.9170  124.8380   58.6430 C   0  0  1  0  0  0  0  0  0  0  0  0
  128.8140  125.5160   57.5930 C   0  0  0  0  0  0  0  0  0  0  0  0
  129.4210  126.7080   57.7640 C   0  0  0  0  0  0  0  0  0  0  0  0
  129.2580  127.5090   59.0440 C   0  0  2  0  0  0  0  0  0  0  0  0
  130.3840  128.4050   59.5550 C   0  0  0  0  0  0  0  0  0  0  0  0
  130.0550  128.5890   61.0550 C   0  0  1  0  0  0  0  0  0  0  0  0
  129.4700  129.8630   61.2560 O   0  0  0  0  0  0  0  0  0  0  0  0
  130.2500  131.3350   61.0320 Si  0  0  0  0  0  4  0  0  0  0  0  0
  130.3420  132.2100   62.7020 C   0  0  0  0  0  0  0  0  0  0  0  0
  131.9850  130.9740   60.3850 C   0  0  0  0  0  0  0  0  0  0  0  0
  129.2260  132.3330   59.7760 C   0  0  0  0  0  0  0  0  0  0  0  0
  128.0190  131.4980   59.2970 C   0  0  0  0  0  0  0  0  0  0  0  0
  128.7120  133.6310   60.4320 C   0  0  0  0  0  0  0  0  0  0  0  0
  130.1030  132.6940   58.5590 C   0  0  0  0  0  0  0  0  0  0  0  0
  129.0130  127.5050   61.4220 C   0  0  0  0  0  0  0  0  0  0  0  0
  128.9870  126.5630   60.2150 C   0  0  1  0  0  0  0  0  0  0  0  0
  128.4080  123.4460   59.1190 C   0  0  2  0  0  0  0  0  0  0  0  0
  127.6840  122.2570   58.4340 C   0  0  0  0  0  0  0  0  0  0  0  0
  127.6190  122.3120   56.8950 C   0  0  0  0  0  0  0  0  0  0  0  0
  126.4290  121.7240   56.4110 O   0  0  0  0  0  0  0  0  0  0  0  0
  132.5576  122.7453   65.2002 H   0  0  0  0  0  0  0  0  0  0  0  0
  131.5667  122.5471   63.7151 H   0  0  0  0  0  0  0  0  0  0  0  0
  133.2937  122.0530   63.7151 H   0  0  0  0  0  0  0  0  0  0  0  0
  132.1038  124.6650   63.1577 H   0  0  0  0  0  0  0  0  0  0  0  0
  133.3010  124.7408   64.5412 H   0  0  0  0  0  0  0  0  0  0  0  0
  134.5607  123.1993   62.6353 H   0  0  0  0  0  0  0  0  0  0  0  0
  135.2780  125.7920   62.3960 H   0  0  0  0  0  0  0  0  0  0  0  0
  132.6664  124.7739   61.1926 H   0  0  0  0  0  0  0  0  0  0  0  0
  134.3751  125.4011   60.8920 H   0  0  0  0  0  0  0  0  0  0  0  0
  134.2153  123.9161   59.1841 H   0  0  0  0  0  0  0  0  0  0  0  0
  134.8511  122.8454   60.5257 H   0  0  0  0  0  0  0  0  0  0  0  0
  132.6444  122.3373   58.8902 H   0  0  0  0  0  0  0  0  0  0  0  0
  133.1002  121.5254   60.4639 H   0  0  0  0  0  0  0  0  0  0  0  0
  131.4253  124.0321   60.7349 H   0  0  0  0  0  0  0  0  0  0  0  0
  130.4734  120.3047   62.0909 H   0  0  0  0  0  0  0  0  0  0  0  0
  129.5754  120.3169   60.5352 H   0  0  0  0  0  0  0  0  0  0  0  0
  131.3715  120.2945   60.5352 H   0  0  0  0  0  0  0  0  0  0  0  0
  129.6426  125.4297   62.4761 H   0  0  0  0  0  0  0  0  0  0  0  0
  129.8749  126.2418   64.8225 H   0  0  0  0  0  0  0  0  0  0  0  0
  129.7828  124.6184   66.7099 H   0  0  0  0  0  0  0  0  0  0  0  0
  129.4648  122.1877   66.2675 H   0  0  0  0  0  0  0  0  0  0  0  0
  129.2220  121.3745   63.9226 H   0  0  0  0  0  0  0  0  0  0  0  0
  126.3204  124.4442   61.0237 H   0  0  0  0  0  0  0  0  0  0  0  0
  127.6103  125.0635   62.0398 H   0  0  0  0  0  0  0  0  0  0  0  0
  126.9266  126.4534   59.8436 H   0  0  0  0  0  0  0  0  0  0  0  0
  126.9687  124.7184   58.0986 H   0  0  0  0  0  0  0  0  0  0  0  0
  128.9709  124.9930   56.6381 H   0  0  0  0  0  0  0  0  0  0  0  0
  130.0500  127.1102   56.9562 H   0  0  0  0  0  0  0  0  0  0  0  0
  128.4493  128.1863   58.7322 H   0  0  0  0  0  0  0  0  0  0  0  0
  131.3620  127.9185   59.4248 H   0  0  0  0  0  0  0  0  0  0  0  0
  130.4480  129.3599   59.0127 H   0  0  0  0  0  0  0  0  0  0  0  0
  130.9636  128.5056   61.6695 H   0  0  0  0  0  0  0  0  0  0  0  0
  130.2639  131.4675   63.5098 H   0  0  0  0  0  0  0  0  0  0  0  0
  131.3011  132.7423   62.7847 H   0  0  0  0  0  0  0  0  0  0  0  0
  129.5146  132.9301   62.7847 H   0  0  0  0  0  0  0  0  0  0  0  0
  132.6704  130.8314   61.2334 H   0  0  0  0  0  0  0  0  0  0  0  0
  131.9651  130.0608   59.7722 H   0  0  0  0  0  0  0  0  0  0  0  0
  132.3311  131.8194   59.7722 H   0  0  0  0  0  0  0  0  0  0  0  0
  127.4677  131.1166   60.1692 H   0  0  0  0  0  0  0  0  0  0  0  0
  127.3537  132.1298   58.6903 H   0  0  0  0  0  0  0  0  0  0  0  0
  128.3756  130.6526   58.6903 H   0  0  0  0  0  0  0  0  0  0  0  0
  128.7522  133.5295   61.5266 H   0  0  0  0  0  0  0  0  0  0  0  0
  129.3437  134.4753   60.1186 H   0  0  0  0  0  0  0  0  0  0  0  0
  127.6736  133.8139   60.1186 H   0  0  0  0  0  0  0  0  0  0  0  0
  131.0679  133.0912   58.9073 H   0  0  0  0  0  0  0  0  0  0  0  0
  130.2751  131.7936   57.9510 H   0  0  0  0  0  0  0  0  0  0  0  0
  129.5913  133.4546   57.9510 H   0  0  0  0  0  0  0  0  0  0  0  0
  129.3198  126.9640   62.3293 H   0  0  0  0  0  0  0  0  0  0  0  0
  128.0232  127.9354   61.6343 H   0  0  0  0  0  0  0  0  0  0  0  0
  129.7156  125.7612   60.4052 H   0  0  0  0  0  0  0  0  0  0  0  0
  129.4568  123.2795   58.8319 H   0  0  0  0  0  0  0  0  0  0  0  0
  128.2090  121.3329   58.7174 H   0  0  0  0  0  0  0  0  0  0  0  0
  126.6408  122.3011   58.7802 H   0  0  0  0  0  0  0  0  0  0  0  0
  127.6568  123.3628   56.5719 H   0  0  0  0  0  0  0  0  0  0  0  0
  128.4738  121.7500   56.4907 H   0  0  0  0  0  0  0  0  0  0  0  0
  125.6840  122.2420   56.7230 H   0  0  0  0  0  0  0  0  0  0  0  0
  1  2  1  0
  2  3  1  0
  3  4  1  0
  3  5  1  0
  5  6  1  0
  6  7  1  0
  7  8  1  0
  8  9  2  0
  9 10  1  0
  9 11  1  0
 11 12  1  1
 12 13  2  0
 13 14  1  0
 14 15  2  0
 15 16  1  0
 16 17  2  0
 11 18  1  0
 19 18  1  6
 19 20  1  0
 20 21  1  0
 21 22  1  0
 22 23  1  0
 23 24  2  0
 24 25  1  0
 25 26  1  0
 26 27  1  0
 27 28  1  0
 28 29  1  0
 29 30  1  0
 29 31  1  0
 29 32  1  0
 32 33  1  0
 32 34  1  0
 32 35  1  0
 27 36  1  0
 36 37  1  0
 22 38  1  0
 38 39  1  0
 39 40  1  0
 40 41  1  0
 19 11  1  0
 37 21  1  0
 17 12  1  0
 38 19  1  0
 37 25  1  0
  1 42  1  0
  1 43  1  0
  1 44  1  0
  2 45  1  0
  2 46  1  0
  3 47  1  6
  4 48  1  0
  5 49  1  0
  5 50  1  0
  6 51  1  0
  6 52  1  0
  7 53  1  0
  7 54  1  0
  8 55  1  0
 10 56  1  0
 10 57  1  0
 10 58  1  0
 13 59  1  0
 14 60  1  0
 15 61  1  0
 16 62  1  0
 17 63  1  0
 20 64  1  0
 20 65  1  0
 21 66  1  6
 22 67  1  6
 23 68  1  0
 24 69  1  0
 25 70  1  6
 26 71  1  0
 26 72  1  0
 27 73  1  1
 30 74  1  0
 30 75  1  0
 30 76  1  0
 31 77  1  0
 31 78  1  0
 31 79  1  0
 33 80  1  0
 33 81  1  0
 33 82  1  0
 34 83  1  0
 34 84  1  0
 34 85  1  0
 35 86  1  0
 35 87  1  0
 35 88  1  0
 36 89  1  0
 36 90  1  0
 37 91  1  1
 38 92  1  1
 39 93  1  0
 39 94  1  0
 40 95  1  0
 40 96  1  0
 41 97  1  0
M  END
>  <Binding energies>  (1) 
[-8.71]

>  <Ligand effiencies>  (1) 
[-0.20255813953488375]

>  <Interactions>  (1) 
["V-A:ILE:369:CG2:3237, V-B:TYR:539:CA:9841, V-B:PRO:540:CA:9855, V-A:GLY:454:CA:4049, V-A:ILE:369:CB:3236, V-B:GLU:543:CB:9878, V-A:PRO:540:C:4881, V-B:ALA:541:CB:9864, H-A:ARG:545:NH1:4927, V-B:TYR:539:CE2:9848, V-A:TYR:484:CE2:4346, H-B:TYR:539:N:9842, V-B:GLU:543:CG:9879, V-B:TYR:539:C:9839, V-A:ASP:366:CG:3213, V-A:TYR:539:CD1:4873, V-B:TYR:539:CZ:9849, V-A:ALA:541:CB:4892, H-B:ALA:541:N:9863, V-A:TYR:484:CZ:4347, V-B:PRO:540:CB:9857, V-B:GLU:543:CA:9876, H-A:GLY:454:N:4050, V-A:GLY:453:C:4042, V-B:PRO:540:N:9856, V-A:ILE:369:CD1:3239, V-A:ALA:541:CA:4890, V-B:TYR:539:CD2:9846, V-A:GLU:543:CG:4907, V-B:GLU:543:CD:9880, V-A:TYR:539:C:4867, V-A:LEU:475:CD2:4259, H-A:ARG:545:NH2:4928, V-B:TYR:539:CG:9844, H-A:ASP:366:OD1:3214, V-B:TYR:539:CD1:9845, V-A:PRO:540:N:4884, V-A:GLY:453:CA:4044, V-A:PRO:540:CB:4885, V-A:PRO:540:CA:4883, V-B:TYR:539:CE1:9847"]

$$$$
ZINC169904530
     RDKit          3D

 38 38  0  0  0  0  0  0  0  0999 V2000
  133.2320  122.8680   63.8790 C   0  0  0  0  0  0  0  0  0  0  0  0
  132.9450  124.3690   63.6550 C   0  0  0  0  0  0  0  0  0  0  0  0
  134.0060  124.9380   62.6880 C   0  0  0  0  0  0  0  0  0  0  0  0
  133.0770  125.0990   65.0090 C   0  0  0  0  0  0  0  0  0  0  0  0
  131.1820  124.6200   62.9460 Si  0  0  0  0  0  4  0  0  0  0  0  0
  129.8470  123.9770   64.1190 C   0  0  0  0  0  0  0  0  0  0  0  0
  130.8140  126.4380   62.5860 C   0  0  0  0  0  0  0  0  0  0  0  0
  131.0810  123.7580   61.4990 O   0  0  0  0  0  0  0  0  0  0  0  0
  131.0490  122.4010   61.3070 C   0  0  0  0  0  0  0  0  0  0  0  0
  132.2170  121.7070   60.9650 C   0  0  0  0  0  0  0  0  0  0  0  0
  133.7330  122.5240   60.8260 Cl  0  0  0  0  0  0  0  0  0  0  0  0
  132.1740  120.3280   60.7550 C   0  0  0  0  0  0  0  0  0  0  0  0
  130.9800  119.6140   60.9000 C   0  0  0  0  0  0  0  0  0  0  0  0
  130.9380  118.0430   60.6590 B   0  0  0  0  0  0  0  0  0  0  0  0
  130.4890  117.5370   59.4740 O   0  0  0  0  0  0  0  0  0  0  0  0
  131.3510  117.1830   61.6350 O   0  0  0  0  0  0  0  0  0  0  0  0
  129.8250  120.3110   61.2760 C   0  0  0  0  0  0  0  0  0  0  0  0
  129.8560  121.6890   61.4890 C   0  0  0  0  0  0  0  0  0  0  0  0
  128.4120  122.4840   62.0070 Cl  0  0  0  0  0  0  0  0  0  0  0  0
  133.2719  122.6594   64.9583 H   0  0  0  0  0  0  0  0  0  0  0  0
  132.4321  122.2691   63.4191 H   0  0  0  0  0  0  0  0  0  0  0  0
  134.1964  122.6065   63.4191 H   0  0  0  0  0  0  0  0  0  0  0  0
  134.8303  125.3800   63.2670 H   0  0  0  0  0  0  0  0  0  0  0  0
  134.3962  124.1281   62.0541 H   0  0  0  0  0  0  0  0  0  0  0  0
  133.5473  125.7111   62.0541 H   0  0  0  0  0  0  0  0  0  0  0  0
  132.9465  124.3774   65.8289 H   0  0  0  0  0  0  0  0  0  0  0  0
  134.0731  125.5601   65.0814 H   0  0  0  0  0  0  0  0  0  0  0  0
  132.3055  125.8797   65.0814 H   0  0  0  0  0  0  0  0  0  0  0  0
  130.1679  124.1316   65.1597 H   0  0  0  0  0  0  0  0  0  0  0  0
  128.9083  124.5218   63.9400 H   0  0  0  0  0  0  0  0  0  0  0  0
  129.6878  122.9034   63.9400 H   0  0  0  0  0  0  0  0  0  0  0  0
  130.7034  126.9845   63.5342 H   0  0  0  0  0  0  0  0  0  0  0  0
  131.6425  126.8722   62.0071 H   0  0  0  0  0  0  0  0  0  0  0  0
  129.8819  126.5158   62.0071 H   0  0  0  0  0  0  0  0  0  0  0  0
  133.0931  119.7944   60.4711 H   0  0  0  0  0  0  0  0  0  0  0  0
  129.7530  117.9700   59.0350 H   0  0  0  0  0  0  0  0  0  0  0  0
  132.1630  117.3760   62.1090 H   0  0  0  0  0  0  0  0  0  0  0  0
  128.8796  119.7637   61.4052 H   0  0  0  0  0  0  0  0  0  0  0  0
  1  2  1  0
  2  3  1  0
  2  4  1  0
  2  5  1  0
  5  6  1  0
  5  7  1  0
  5  8  1  0
  8  9  1  0
  9 10  2  0
 10 11  1  0
 10 12  1  0
 12 13  2  0
 13 14  1  0
 14 15  1  0
 14 16  1  0
 13 17  1  0
 17 18  2  0
 18 19  1  0
 18  9  1  0
  1 20  1  0
  1 21  1  0
  1 22  1  0
  3 23  1  0
  3 24  1  0
  3 25  1  0
  4 26  1  0
  4 27  1  0
  4 28  1  0
  6 29  1  0
  6 30  1  0
  6 31  1  0
  7 32  1  0
  7 33  1  0
  7 34  1  0
 12 35  1  0
 15 36  1  0
 16 37  1  0
 17 38  1  0
M  END
>  <Binding energies>  (1) 
[-5.79]

>  <Ligand effiencies>  (1) 
[-0.2757142857142857]

>  <Interactions>  (1) 
["V-A:ILE:369:CG2:3237, V-A:ILE:369:CD1:3239, V-B:PRO:540:CA:9855, V-A:GLY:454:CA:4049, V-B:TYR:539:CD2:9846, H-B:TYR:539:O:9840, V-A:SER:385:CB:3409, H-A:SER:385:OG:3410, V-A:ARG:545:CZ:4926, V-B:ALA:541:CB:9864, V-B:TYR:539:CE2:9848, V-A:GLU:543:CD:4908, V-A:LEU:475:CD2:4259, V-B:GLU:543:CG:9879, V-B:TYR:539:C:9839, V-A:ASP:366:CG:3213, V-A:HIS:383:NE2:3394, H-A:HIS:383:HE2:3395"]

$$$$
ZINC16993738
     RDKit          3D

 51 55  0  0  0  0  0  0  0  0999 V2000
  134.3280  122.2670   62.2070 C   0  0  0  0  0  0  0  0  0  0  0  0
  132.9980  122.7980   61.6290 C   0  0  0  0  0  0  0  0  0  0  0  0
  133.2080  123.6250   60.3330 C   0  0  0  0  0  0  0  0  0  0  0  0
  132.0880  121.5700   61.3440 C   0  0  0  0  0  0  0  0  0  0  0  0
  130.6260  121.9210   61.0090 C   0  0  0  0  0  0  0  0  0  0  0  0
  129.8930  121.0930   60.4700 O   0  0  0  0  0  0  0  0  0  0  0  0
  130.1090  123.2050   61.5280 C   0  0  0  0  0  0  0  0  0  0  0  0
  130.8600  124.0040   62.3510 C   0  0  0  0  0  0  0  0  0  0  0  0
  132.3090  123.6700   62.7190 C   0  0  0  0  0  0  0  0  0  0  0  0
  130.4130  125.2000   62.8410 N   0  0  0  0  0  0  0  0  0  0  0  0
  129.1810  125.5390   62.6990 C   0  0  0  0  0  0  0  0  0  0  0  0
  128.7470  126.7460   63.2310 N   0  0  0  0  0  0  0  0  0  0  0  0
  128.7940  126.9700   64.4900 C   0  0  0  0  0  0  0  0  0  0  0  0
  128.4090  128.1260   65.1540 N   0  0  0  0  0  0  0  0  0  0  0  0
  128.6350  127.9620   66.5120 C   0  0  0  0  0  0  0  0  0  0  0  0
  128.4440  128.7920   67.6170 C   0  0  0  0  0  0  0  0  0  0  0  0
  128.7870  128.3070   68.8860 C   0  0  0  0  0  0  0  0  0  0  0  0
  129.3100  127.0130   69.0370 C   0  0  0  0  0  0  0  0  0  0  0  0
  129.4970  126.1880   67.9220 C   0  0  0  0  0  0  0  0  0  0  0  0
  129.1470  126.7010   66.6770 C   0  0  0  0  0  0  0  0  0  0  0  0
  129.2340  126.0940   65.4630 O   0  0  0  0  0  0  0  0  0  0  0  0
  128.2780  124.7960   61.9530 N   0  0  0  0  0  0  0  0  0  0  0  0
  128.6540  123.6130   61.1570 C   0  0  1  0  0  0  0  0  0  0  0  0
  128.4310  123.8070   59.6560 C   0  0  0  0  0  0  0  0  0  0  0  0
  129.2840  124.6330   58.9170 C   0  0  0  0  0  0  0  0  0  0  0  0
  129.0790  124.8150   57.5490 C   0  0  0  0  0  0  0  0  0  0  0  0
  128.0190  124.1720   56.9110 C   0  0  0  0  0  0  0  0  0  0  0  0
  127.1620  123.3480   57.6410 C   0  0  0  0  0  0  0  0  0  0  0  0
  125.7120  122.4730   56.7720 Br  0  0  0  0  0  0  0  0  0  0  0  0
  127.3680  123.1650   59.0080 C   0  0  0  0  0  0  0  0  0  0  0  0
  134.2833  122.2849   63.3059 H   0  0  0  0  0  0  0  0  0  0  0  0
  134.4910  121.2348   61.8634 H   0  0  0  0  0  0  0  0  0  0  0  0
  135.1570  122.9031   61.8634 H   0  0  0  0  0  0  0  0  0  0  0  0
  133.4708  124.6600   60.5970 H   0  0  0  0  0  0  0  0  0  0  0  0
  134.0215  123.1796   59.7416 H   0  0  0  0  0  0  0  0  0  0  0  0
  132.2805  123.6217   59.7416 H   0  0  0  0  0  0  0  0  0  0  0  0
  132.5125  121.0184   60.4922 H   0  0  0  0  0  0  0  0  0  0  0  0
  132.0626  120.9782   62.2709 H   0  0  0  0  0  0  0  0  0  0  0  0
  132.8723  124.6079   62.8328 H   0  0  0  0  0  0  0  0  0  0  0  0
  132.2991  123.0972   63.6581 H   0  0  0  0  0  0  0  0  0  0  0  0
  128.0350  128.9570   64.7190 H   0  0  0  0  0  0  0  0  0  0  0  0
  128.0331  129.8050   67.4947 H   0  0  0  0  0  0  0  0  0  0  0  0
  128.6454  128.9451   69.7707 H   0  0  0  0  0  0  0  0  0  0  0  0
  129.5748  126.6447   70.0391 H   0  0  0  0  0  0  0  0  0  0  0  0
  129.9054  125.1720   68.0261 H   0  0  0  0  0  0  0  0  0  0  0  0
  127.3280  125.1100   61.8330 H   0  0  0  0  0  0  0  0  0  0  0  0
  127.9848  122.7778   61.4111 H   0  0  0  0  0  0  0  0  0  0  0  0
  130.1212  125.1420   59.4171 H   0  0  0  0  0  0  0  0  0  0  0  0
  129.7538  125.4659   56.9737 H   0  0  0  0  0  0  0  0  0  0  0  0
  127.8585  124.3144   55.8321 H   0  0  0  0  0  0  0  0  0  0  0  0
  126.6920  122.5129   59.5806 H   0  0  0  0  0  0  0  0  0  0  0  0
  1  2  1  0
  2  3  1  0
  2  4  1  0
  4  5  1  0
  5  6  2  0
  5  7  1  0
  7  8  2  0
  8  9  1  0
  8 10  1  0
 10 11  2  0
 11 12  1  0
 12 13  2  0
 13 14  1  0
 14 15  1  0
 15 16  2  0
 16 17  1  0
 17 18  2  0
 18 19  1  0
 19 20  2  0
 20 21  1  0
 11 22  1  0
 22 23  1  0
 23 24  1  0
 24 25  2  0
 25 26  1  0
 26 27  2  0
 27 28  1  0
 28 29  1  0
 28 30  2  0
  9  2  1  0
 21 13  1  0
 30 24  1  0
 23  7  1  0
 20 15  1  0
  1 31  1  0
  1 32  1  0
  1 33  1  0
  3 34  1  0
  3 35  1  0
  3 36  1  0
  4 37  1  0
  4 38  1  0
  9 39  1  0
  9 40  1  0
 14 41  1  0
 16 42  1  0
 17 43  1  0
 18 44  1  0
 19 45  1  0
 22 46  1  0
 23 47  1  1
 25 48  1  0
 26 49  1  0
 27 50  1  0
 30 51  1  0
M  END
>  <Binding energies>  (1) 
[-8.32]

>  <Ligand effiencies>  (1) 
[-0.26]

>  <Interactions>  (1) 
["V-A:ILE:369:CG2:3237, V-B:PRO:540:CA:9855, V-A:GLY:454:CA:4049, V-B:GLU:543:CB:9878, V-B:TYR:539:CE2:9848, V-B:GLU:543:CG:9879, V-B:TYR:539:CZ:9849, H-B:GLU:543:OE1:9881, V-A:GLU:543:CD:4908, V-B:PRO:540:CB:9857, V-B:HIS:456:CE1:9041, V-B:PRO:540:N:9856, V-A:ILE:369:CD1:3239, V-A:HIS:456:CE1:4070, V-B:TYR:539:CD2:9846, V-B:PRO:540:CD:9859, V-A:GLU:543:CG:4907, V-B:GLU:543:CD:9880, V-A:LEU:475:CD2:4259, H-A:GLU:543:OE1:4909, V-A:GLU:543:CB:4906, V-B:PRO:540:CG:9858, V-B:LEU:363:CD1:8160, H-B:GLU:543:OE2:9882, V-B:MET:535:CE:9807, V-B:TYR:539:CE1:9847"]

$$$$
ZINC16993738-again2
     RDKit          3D

 51 55  0  0  0  0  0  0  0  0999 V2000
  131.3630  130.7080   59.8200 C   0  0  0  0  0  0  0  0  0  0  0  0
  130.7700  129.2940   59.6540 C   0  0  0  0  0  0  0  0  0  0  0  0
  129.3160  129.3020   59.1330 C   0  0  0  0  0  0  0  0  0  0  0  0
  130.7380  128.6310   61.0380 C   0  0  0  0  0  0  0  0  0  0  0  0
  131.0050  127.3280   61.2520 C   0  0  0  0  0  0  0  0  0  0  0  0
  130.8990  126.7620   62.5310 N   0  0  0  0  0  0  0  0  0  0  0  0
  131.0930  125.3880   62.8940 C   0  0  0  0  0  0  0  0  0  0  0  0
  130.8390  124.8460   64.0230 N   0  0  0  0  0  0  0  0  0  0  0  0
  130.3190  125.5040   65.1030 C   0  0  0  0  0  0  0  0  0  0  0  0
  130.4660  125.3050   66.4080 N   0  0  0  0  0  0  0  0  0  0  0  0
  129.7060  126.2730   66.9970 C   0  0  0  0  0  0  0  0  0  0  0  0
  129.4630  126.5690   68.3480 C   0  0  0  0  0  0  0  0  0  0  0  0
  128.6180  127.6470   68.6400 C   0  0  0  0  0  0  0  0  0  0  0  0
  128.0290  128.4110   67.6260 C   0  0  0  0  0  0  0  0  0  0  0  0
  128.2590  128.1310   66.2760 C   0  0  0  0  0  0  0  0  0  0  0  0
  129.1050  127.0520   66.0030 C   0  0  0  0  0  0  0  0  0  0  0  0
  129.4990  126.5600   64.7980 O   0  0  0  0  0  0  0  0  0  0  0  0
  131.6330  124.6020   61.8320 N   0  0  0  0  0  0  0  0  0  0  0  0
  131.4020  124.9240   60.4230 C   0  0  1  0  0  0  0  0  0  0  0  0
  130.1920  124.1920   59.8390 C   0  0  0  0  0  0  0  0  0  0  0  0
  129.7970  122.9560   60.3640 C   0  0  0  0  0  0  0  0  0  0  0  0
  128.7000  122.2800   59.8310 C   0  0  0  0  0  0  0  0  0  0  0  0
  127.9880  122.8340   58.7670 C   0  0  0  0  0  0  0  0  0  0  0  0
  128.3750  124.0650   58.2360 C   0  0  0  0  0  0  0  0  0  0  0  0
  127.4090  124.8220   56.7810 Br  0  0  0  0  0  0  0  0  0  0  0  0
  129.4710  124.7410   58.7700 C   0  0  0  0  0  0  0  0  0  0  0  0
  131.3720  126.4320   60.1540 C   0  0  0  0  0  0  0  0  0  0  0  0
  131.6800  126.9680   58.9540 C   0  0  0  0  0  0  0  0  0  0  0  0
  132.0600  126.2620   57.8550 O   0  0  0  0  0  0  0  0  0  0  0  0
  131.6690  128.4700   58.6610 C   0  0  0  0  0  0  0  0  0  0  0  0
  131.4608  130.9412   60.8905 H   0  0  0  0  0  0  0  0  0  0  0  0
  132.3538  130.7483   59.3439 H   0  0  0  0  0  0  0  0  0  0  0  0
  130.6973  131.4430   59.3439 H   0  0  0  0  0  0  0  0  0  0  0  0
  128.6210  129.3058   59.9856 H   0  0  0  0  0  0  0  0  0  0  0  0
  129.1507  130.2011   58.5212 H   0  0  0  0  0  0  0  0  0  0  0  0
  129.1408  128.4048   58.5212 H   0  0  0  0  0  0  0  0  0  0  0  0
  130.4821  129.2564   61.9059 H   0  0  0  0  0  0  0  0  0  0  0  0
  130.5580  127.3430   63.2830 H   0  0  0  0  0  0  0  0  0  0  0  0
  129.9216  125.9734   69.1511 H   0  0  0  0  0  0  0  0  0  0  0  0
  128.4124  127.8991   69.6908 H   0  0  0  0  0  0  0  0  0  0  0  0
  127.3710  129.2497   67.8972 H   0  0  0  0  0  0  0  0  0  0  0  0
  127.7999  128.7265   65.4731 H   0  0  0  0  0  0  0  0  0  0  0  0
  131.7610  123.6210   62.0280 H   0  0  0  0  0  0  0  0  0  0  0  0
  132.2777  124.5404   59.8790 H   0  0  0  0  0  0  0  0  0  0  0  0
  130.3557  122.5150   61.2027 H   0  0  0  0  0  0  0  0  0  0  0  0
  128.3959  121.3094   60.2498 H   0  0  0  0  0  0  0  0  0  0  0  0
  127.1223  122.3009   58.3470 H   0  0  0  0  0  0  0  0  0  0  0  0
  129.7719  125.7119   58.3495 H   0  0  0  0  0  0  0  0  0  0  0  0
  132.2510  126.8680   57.1360 H   0  0  0  0  0  0  0  0  0  0  0  0
  132.7003  128.8463   58.7304 H   0  0  0  0  0  0  0  0  0  0  0  0
  131.2451  128.6012   57.6545 H   0  0  0  0  0  0  0  0  0  0  0  0
  1  2  1  0
  2  3  1  0
  2  4  1  0
  4  5  2  0
  5  6  1  0
  6  7  1  0
  7  8  2  0
  8  9  1  0
  9 10  2  0
 10 11  1  0
 11 12  2  0
 12 13  1  0
 13 14  2  0
 14 15  1  0
 15 16  2  0
 16 17  1  0
  7 18  1  0
 18 19  1  0
 19 20  1  0
 20 21  2  0
 21 22  1  0
 22 23  2  0
 23 24  1  0
 24 25  1  0
 24 26  2  0
 19 27  1  0
 27 28  2  0
 28 29  1  0
 28 30  1  0
 30  2  1  0
 27  5  1  0
 17  9  1  0
 26 20  1  0
 16 11  1  0
  1 31  1  0
  1 32  1  0
  1 33  1  0
  3 34  1  0
  3 35  1  0
  3 36  1  0
  4 37  1  0
  6 38  1  0
 12 39  1  0
 13 40  1  0
 14 41  1  0
 15 42  1  0
 18 43  1  0
 19 44  1  6
 21 45  1  0
 22 46  1  0
 23 47  1  0
 26 48  1  0
 29 49  1  0
 30 50  1  0
 30 51  1  0
M  END
>  <Binding energies>  (1) 
[-7.42]

>  <Ligand effiencies>  (1) 
[-0.22484848484848485]

>  <Interactions>  (1) 
["V-B:PRO:540:CA:9855, H-A:GLU:543:OE2:4910, V-B:GLU:543:CB:9878, H-A:TYR:531:OH:4795, V-B:TYR:539:CE2:9848, V-B:GLU:543:CG:9879, V-B:TYR:539:C:9839, V-A:ASP:366:CG:3213, V-B:TYR:539:CZ:9849, H-B:TYR:539:OH:9850, V-A:GLU:543:CD:4908, V-B:HIS:456:CE1:9041, V-B:PRO:540:N:9856, V-A:HIS:456:CE1:4070, V-B:TYR:539:CD2:9846, V-A:GLU:543:CG:4907, V-B:GLU:543:CD:9880, V-A:ASP:366:CB:3212, H-A:GLU:543:OE1:4909, V-A:GLU:543:CB:4906, H-A:TYR:484:OH:4348"]

$$$$
ZINC169997261
     RDKit          3D

 37 40  0  0  0  0  0  0  0  0999 V2000
  128.7020  125.7530   72.5350 N   0  0  0  0  0  0  0  0  0  0  0  0
  128.6830  126.4450   71.6290 N   0  0  0  0  0  0  0  0  0  0  0  0
  128.7990  127.2400   70.6990 N   0  0  0  0  0  0  0  0  0  0  0  0
  127.8690  127.0340   69.6140 C   0  0  0  0  0  0  0  0  0  0  0  0
  128.6320  126.6270   68.3630 C   0  0  0  0  0  0  0  0  0  0  0  0
  128.4680  127.3490   67.1770 C   0  0  0  0  0  0  0  0  0  0  0  0
  129.1650  126.9710   66.0330 C   0  0  0  0  0  0  0  0  0  0  0  0
  130.0220  125.8710   66.0670 C   0  0  0  0  0  0  0  0  0  0  0  0
  130.8160  125.4530   64.7760 B   0  0  0  0  0  0  0  0  0  0  0  0
  131.7300  124.2260   64.6760 N   0  0  0  0  0  0  0  0  0  0  0  0
  132.4180  123.8670   63.5090 C   0  0  0  0  0  0  0  0  0  0  0  0
  133.2250  122.7320   63.5000 C   0  0  0  0  0  0  0  0  0  0  0  0
  133.9150  122.3600   62.3480 C   0  0  0  0  0  0  0  0  0  0  0  0
  133.8160  123.1110   61.1790 C   0  0  0  0  0  0  0  0  0  0  0  0
  133.0080  124.2740   61.1420 C   0  0  0  0  0  0  0  0  0  0  0  0
  132.8770  125.0710   59.9770 C   0  0  0  0  0  0  0  0  0  0  0  0
  132.0700  126.2070   59.9880 C   0  0  0  0  0  0  0  0  0  0  0  0
  131.3790  126.5830   61.1370 C   0  0  0  0  0  0  0  0  0  0  0  0
  131.4770  125.8290   62.3040 C   0  0  0  0  0  0  0  0  0  0  0  0
  132.3010  124.6570   62.3170 C   0  0  0  0  0  0  0  0  0  0  0  0
  130.7710  126.2210   63.4500 N   0  0  0  0  0  0  0  0  0  0  0  0
  130.1790  125.1440   67.2480 C   0  0  0  0  0  0  0  0  0  0  0  0
  129.4830  125.5190   68.3950 C   0  0  0  0  0  0  0  0  0  0  0  0
  127.1591  126.2388   69.8855 H   0  0  0  0  0  0  0  0  0  0  0  0
  127.3185  127.9665   69.4207 H   0  0  0  0  0  0  0  0  0  0  0  0
  127.7894  128.2142   67.1480 H   0  0  0  0  0  0  0  0  0  0  0  0
  129.0398  127.5408   65.1004 H   0  0  0  0  0  0  0  0  0  0  0  0
  131.7860  123.7030   65.5370 H   0  0  0  0  0  0  0  0  0  0  0  0
  133.3186  122.1232   64.4113 H   0  0  0  0  0  0  0  0  0  0  0  0
  134.5472  121.4600   62.3619 H   0  0  0  0  0  0  0  0  0  0  0  0
  134.3680  122.7994   60.2800 H   0  0  0  0  0  0  0  0  0  0  0  0
  133.4153  124.7912   59.0594 H   0  0  0  0  0  0  0  0  0  0  0  0
  131.9775  126.8153   59.0762 H   0  0  0  0  0  0  0  0  0  0  0  0
  130.7493  127.4848   61.1229 H   0  0  0  0  0  0  0  0  0  0  0  0
  130.1800  127.0390   63.4860 H   0  0  0  0  0  0  0  0  0  0  0  0
  130.8525  124.2747   67.2731 H   0  0  0  0  0  0  0  0  0  0  0  0
  129.6031  124.9436   69.3248 H   0  0  0  0  0  0  0  0  0  0  0  0
  1  2  2  0
  2  3  2  0
  3  4  1  0
  4  5  1  0
  5  6  2  0
  6  7  1  0
  7  8  2  0
  8  9  1  0
  9 10  1  0
 10 11  1  0
 11 12  2  0
 12 13  1  0
 13 14  2  0
 14 15  1  0
 15 16  2  0
 16 17  1  0
 17 18  2  0
 18 19  1  0
 19 20  2  0
 19 21  1  0
  8 22  1  0
 22 23  2  0
 23  5  1  0
 21  9  1  0
 20 11  1  0
 20 15  1  0
  4 24  1  0
  4 25  1  0
  6 26  1  0
  7 27  1  0
 10 28  1  0
 12 29  1  0
 13 30  1  0
 14 31  1  0
 16 32  1  0
 17 33  1  0
 18 34  1  0
 21 35  1  0
 22 36  1  0
 23 37  1  0
M  CHG  2   1  -1   2   1
M  END
>  <Binding energies>  (1) 
[-7.36]

>  <Ligand effiencies>  (1) 
[-0.2944]

>  <Interactions>  (1) 
["V-A:ILE:369:CG2:3237, V-A:ASP:366:CA:3210, V-A:GLY:454:CA:4049, V-B:GLU:543:C:9874, H-A:GLU:543:OE2:4910, V-B:GLU:543:CB:9878, H-B:LYS:547:NZ:9923, V-A:TYR:484:CE2:4346, V-B:GLU:543:CG:9879, V-A:ASP:366:CG:3213, V-A:HIS:456:CD2:4068, V-A:GLU:543:CD:4908, V-A:TYR:484:CZ:4347, V-B:HIS:456:CE1:9041, V-B:GLU:543:CA:9876, V-A:HIS:456:CE1:4070, V-A:ILE:369:CD1:3239, V-B:GLU:543:CD:9880, V-A:ASP:366:CB:3212, V-A:LEU:475:CD2:4259, H-A:GLU:543:OE1:4909, H-A:TYR:484:OH:4348"]

$$$$
ZINC170003839
     RDKit          3D

 34 35  0  0  0  0  0  0  0  0999 V2000
  127.7130  128.7820   75.2060 C   0  0  0  0  0  0  0  0  0  0  0  0
  128.7330  128.8200   74.0350 C   0  0  0  0  0  0  0  0  0  0  0  0
  129.1040  130.2800   73.6900 C   0  0  0  0  0  0  0  0  0  0  0  0
  129.9070  128.1820   74.5160 O   0  0  0  0  0  0  0  0  0  0  0  0
  129.8430  126.8520   74.1540 B   0  0  0  0  0  0  0  0  0  0  0  0
  130.8380  125.7280   74.7320 C   0  0  0  0  0  0  0  0  0  0  0  0
  130.2500  124.4970   75.0360 C   0  0  0  0  0  0  0  0  0  0  0  0
  130.9970  123.4430   75.5340 C   0  0  0  0  0  0  0  0  0  0  0  0
  130.2360  121.9360   75.8920 Cl  0  0  0  0  0  0  0  0  0  0  0  0
  132.3590  123.6030   75.7410 C   0  0  0  0  0  0  0  0  0  0  0  0
  133.0170  124.8140   75.4620 C   0  0  0  0  0  0  0  0  0  0  0  0
  134.4960  124.8650   75.7330 N   0  0  0  0  0  0  0  0  0  0  0  0
  135.0980  123.8030   75.8820 O   0  0  0  0  0  0  0  0  0  0  0  0
  135.0950  125.9330   75.8020 O   0  0  0  0  0  0  0  0  0  0  0  0
  132.2330  125.8940   74.9490 C   0  0  0  0  0  0  0  0  0  0  0  0
  132.7580  127.0280   74.6900 O   0  0  0  0  0  0  0  0  0  0  0  0
  128.8160  126.6490   73.2550 O   0  0  0  0  0  0  0  0  0  0  0  0
  128.3780  127.9190   72.8030 C   0  0  0  0  0  0  0  0  0  0  0  0
  126.8680  127.8100   72.4880 C   0  0  0  0  0  0  0  0  0  0  0  0
  129.1800  128.2130   71.5060 C   0  0  0  0  0  0  0  0  0  0  0  0
  128.2535  128.8021   76.1638 H   0  0  0  0  0  0  0  0  0  0  0  0
  127.0482  129.6560   75.1417 H   0  0  0  0  0  0  0  0  0  0  0  0
  127.1151  127.8610   75.1417 H   0  0  0  0  0  0  0  0  0  0  0  0
  129.2490  130.8508   74.6191 H   0  0  0  0  0  0  0  0  0  0  0  0
  130.0340  130.2930   73.1027 H   0  0  0  0  0  0  0  0  0  0  0  0
  128.2930  130.7354   73.1027 H   0  0  0  0  0  0  0  0  0  0  0  0
  129.1700  124.3626   74.8761 H   0  0  0  0  0  0  0  0  0  0  0  0
  132.9418  122.7575   76.1351 H   0  0  0  0  0  0  0  0  0  0  0  0
  126.2992  127.7689   73.4287 H   0  0  0  0  0  0  0  0  0  0  0  0
  126.5506  128.6876   71.9056 H   0  0  0  0  0  0  0  0  0  0  0  0
  126.6800  126.8959   71.9056 H   0  0  0  0  0  0  0  0  0  0  0  0
  130.1826  128.5805   71.7702 H   0  0  0  0  0  0  0  0  0  0  0  0
  129.2719  127.2901   70.9146 H   0  0  0  0  0  0  0  0  0  0  0  0
  128.6536  128.9766   70.9146 H   0  0  0  0  0  0  0  0  0  0  0  0
  1  2  1  0
  2  3  1  0
  2  4  1  0
  4  5  1  0
  5  6  1  0
  6  7  2  0
  7  8  1  0
  8  9  1  0
  8 10  2  0
 10 11  1  0
 11 12  1  0
 12 13  2  0
 12 14  1  0
 11 15  2  0
 15 16  1  0
  5 17  1  0
 17 18  1  0
 18 19  1  0
 18 20  1  0
 18  2  1  0
 15  6  1  0
  1 21  1  0
  1 22  1  0
  1 23  1  0
  3 24  1  0
  3 25  1  0
  3 26  1  0
  7 27  1  0
 10 28  1  0
 19 29  1  0
 19 30  1  0
 19 31  1  0
 20 32  1  0
 20 33  1  0
 20 34  1  0
M  CHG  3  12   1  14  -1  16  -1
M  END
>  <Binding energies>  (1) 
[-5.83]

>  <Ligand effiencies>  (1) 
[-0.2915]

>  <Interactions>  (1) 
["V-B:HIS:456:CD2:9039, V-B:GLY:544:C:9884, V-A:LYS:547:CE:4950, V-A:HIS:456:C:4061, V-A:HIS:456:CA:4063, V-A:HIS:456:CB:4065, H-B:LYS:547:NZ:9923, H-A:VAL:457:N:4076, V-A:ASP:473:CG:4240, V-B:HIS:456:CB:9036, V-B:HIS:456:CG:9037, H-A:LYS:547:NZ:4951, V-A:VAL:458:CG2:4087, V-B:HIS:456:CE1:9041, V-A:HIS:456:CD2:4068, V-A:HIS:456:CG:4066"]

$$$$
ZINC170058143
     RDKit          3D

100107  0  0  0  0  0  0  0  0999 V2000
  128.7720  127.8210   65.0300 O   0  0  0  0  0  0  0  0  0  0  0  0
  128.0020  128.7720   64.8940 C   0  0  0  0  0  0  0  0  0  0  0  0
  127.9350  129.5170   63.5560 C   0  0  0  0  0  0  0  0  0  0  0  0
  126.9140  130.6770   63.6130 C   0  0  0  0  0  0  0  0  0  0  0  0
  127.3850  131.9040   62.8870 C   0  0  0  0  0  0  0  0  0  0  0  0
  127.6180  131.9340   61.5810 N   0  0  0  0  0  0  0  0  0  0  0  0
  128.0490  133.2810   61.2710 C   0  0  0  0  0  0  0  0  0  0  0  0
  128.3670  133.6170   60.0080 C   0  0  0  0  0  0  0  0  0  0  0  0
  128.3550  132.6750   58.8950 C   0  0  0  0  0  0  0  0  0  0  0  0
  128.7150  132.8060   57.5650 C   0  0  0  0  0  0  0  0  0  0  0  0
  128.5680  131.5640   56.9610 C   0  0  0  0  0  0  0  0  0  0  0  0
  128.0990  130.6690   57.9140 C   0  0  0  0  0  0  0  0  0  0  0  0
  127.8370  129.2460   57.7380 C   0  0  0  0  0  0  0  0  0  0  0  0
  126.8620  128.4410   58.3250 C   0  0  0  0  0  0  0  0  0  0  0  0
  126.9170  127.1060   57.9080 C   0  0  0  0  0  0  0  0  0  0  0  0
  127.9250  126.8760   56.9880 C   0  0  0  0  0  0  0  0  0  0  0  0
  128.8130  128.3190   56.6320 S   0  0  0  0  0  0  0  0  0  0  0  0
  127.9450  131.3600   59.1080 N   0  0  0  0  0  0  0  0  0  0  0  0
  127.4530  130.8010   60.4870 B   0  0  0  0  0  0  0  0  0  0  0  0
  128.1920  129.6850   60.8290 F   0  0  0  0  0  0  0  0  0  0  0  0
  126.1150  130.4650   60.3950 F   0  0  0  0  0  0  0  0  0  0  0  0
  128.0250  133.9850   62.5280 C   0  0  0  0  0  0  0  0  0  0  0  0
  127.6270  133.1210   63.4730 C   0  0  0  0  0  0  0  0  0  0  0  0
  127.2140  129.2410   65.8760 N   0  0  0  0  0  0  0  0  0  0  0  0
  127.2110  128.7660   67.2610 C   0  0  0  0  0  0  0  0  0  0  0  0
  128.5460  129.0160   67.9880 C   0  0  0  0  0  0  0  0  0  0  0  0
  128.5840  128.2340   69.1750 O   0  0  0  0  0  0  0  0  0  0  0  0
  129.2960  127.0120   69.0440 C   0  0  0  0  0  0  0  0  0  0  0  0
  129.9220  126.9580   67.6460 C   0  0  0  0  0  0  0  0  0  0  0  0
  129.3760  125.8520   66.9370 O   0  0  0  0  0  0  0  0  0  0  0  0
  129.9710  124.5890   67.2180 C   0  0  0  0  0  0  0  0  0  0  0  0
  129.8960  123.6190   66.0160 C   0  0  0  0  0  0  0  0  0  0  0  0
  130.2780  124.2410   64.7430 N   0  0  0  0  0  0  0  0  0  0  0  0
  129.2050  125.1380   64.2880 C   0  0  0  0  0  0  0  0  0  0  0  0
  129.5800  125.7870   62.9320 C   0  0  0  0  0  0  0  0  0  0  0  0
  130.8100  126.5850   63.0770 N   0  0  0  0  0  0  0  0  0  0  0  0
  131.1880  127.2610   61.8230 C   0  0  0  0  0  0  0  0  0  0  0  0
  130.2740  126.8720   60.6240 C   0  0  0  0  0  0  0  0  0  0  0  0
  129.4390  127.6840   60.2080 O   0  0  0  0  0  0  0  0  0  0  0  0
  130.4160  125.6300   60.0630 N   0  0  0  0  0  0  0  0  0  0  0  0
  131.6020  125.2070   59.4400 C   0  0  0  0  0  0  0  0  0  0  0  0
  132.0390  125.7490   58.2220 C   0  0  0  0  0  0  0  0  0  0  0  0
  133.2350  125.3440   57.6380 C   0  0  0  0  0  0  0  0  0  0  0  0
  134.0170  124.3790   58.2620 C   0  0  0  0  0  0  0  0  0  0  0  0
  133.5920  123.8050   59.4580 C   0  0  0  0  0  0  0  0  0  0  0  0
  132.3750  124.1870   60.0480 C   0  0  0  0  0  0  0  0  0  0  0  0
  132.0100  123.4640   61.3410 C   0  0  0  0  0  0  0  0  0  0  0  0
  132.8930  123.0200   62.0760 O   0  0  0  0  0  0  0  0  0  0  0  0
  130.7010  123.2980   61.6480 N   0  0  0  0  0  0  0  0  0  0  0  0
  129.5140  123.5610   60.9430 C   0  0  0  0  0  0  0  0  0  0  0  0
  128.4420  122.6610   60.9890 C   0  0  0  0  0  0  0  0  0  0  0  0
  127.2890  122.8890   60.2390 C   0  0  0  0  0  0  0  0  0  0  0  0
  127.2350  124.0250   59.4370 C   0  0  0  0  0  0  0  0  0  0  0  0
  128.2520  124.9140   59.3600 N   0  0  0  0  0  0  0  0  0  0  0  0
  129.3740  124.6900   60.1040 C   0  0  0  0  0  0  0  0  0  0  0  0
  131.8820  125.6770   63.5080 C   0  0  0  0  0  0  0  0  0  0  0  0
  131.5190  125.0230   64.8630 C   0  0  0  0  0  0  0  0  0  0  0  0
  128.9294  129.9252   63.3223 H   0  0  0  0  0  0  0  0  0  0  0  0
  127.6144  128.8084   62.7782 H   0  0  0  0  0  0  0  0  0  0  0  0
  125.9721  130.3387   63.1566 H   0  0  0  0  0  0  0  0  0  0  0  0
  126.7810  130.9490   64.6705 H   0  0  0  0  0  0  0  0  0  0  0  0
  128.6517  134.6596   59.8035 H   0  0  0  0  0  0  0  0  0  0  0  0
  129.0566  133.7291   57.0739 H   0  0  0  0  0  0  0  0  0  0  0  0
  128.7856  131.3294   55.9086 H   0  0  0  0  0  0  0  0  0  0  0  0
  126.1215  128.8182   59.0457 H   0  0  0  0  0  0  0  0  0  0  0  0
  126.2335  126.3247   58.2719 H   0  0  0  0  0  0  0  0  0  0  0  0
  128.1364  125.8950   56.5374 H   0  0  0  0  0  0  0  0  0  0  0  0
  128.2864  135.0420   62.6844 H   0  0  0  0  0  0  0  0  0  0  0  0
  127.5131  133.3502   64.5428 H   0  0  0  0  0  0  0  0  0  0  0  0
  126.6060  130.0220   65.6730 H   0  0  0  0  0  0  0  0  0  0  0  0
  126.4114  129.2869   67.8081 H   0  0  0  0  0  0  0  0  0  0  0  0
  127.0504  127.6781   67.2345 H   0  0  0  0  0  0  0  0  0  0  0  0
  129.3816  128.7304   67.3320 H   0  0  0  0  0  0  0  0  0  0  0  0
  128.6340  130.0821   68.2441 H   0  0  0  0  0  0  0  0  0  0  0  0
  130.0872  126.9605   69.8065 H   0  0  0  0  0  0  0  0  0  0  0  0
  128.6118  126.1618   69.1824 H   0  0  0  0  0  0  0  0  0  0  0  0
  129.6983  127.8895   67.1054 H   0  0  0  0  0  0  0  0  0  0  0  0
  131.0127  126.8433   67.7311 H   0  0  0  0  0  0  0  0  0  0  0  0
  131.0280  124.7470   67.4785 H   0  0  0  0  0  0  0  0  0  0  0  0
  129.4133  124.1343   68.0500 H   0  0  0  0  0  0  0  0  0  0  0  0
  130.5720  122.7727   66.2077 H   0  0  0  0  0  0  0  0  0  0  0  0
  128.8479  123.2992   65.9206 H   0  0  0  0  0  0  0  0  0  0  0  0
  128.2765  124.5605   64.1686 H   0  0  0  0  0  0  0  0  0  0  0  0
  129.0636  125.9321   65.0359 H   0  0  0  0  0  0  0  0  0  0  0  0
  129.7442  124.9977   62.1837 H   0  0  0  0  0  0  0  0  0  0  0  0
  128.7598  126.4444   62.6078 H   0  0  0  0  0  0  0  0  0  0  0  0
  131.1212  128.3482   61.9767 H   0  0  0  0  0  0  0  0  0  0  0  0
  132.2114  126.9443   61.5735 H   0  0  0  0  0  0  0  0  0  0  0  0
  131.4237  126.5094   57.7187 H   0  0  0  0  0  0  0  0  0  0  0  0
  133.5609  125.7862   56.6850 H   0  0  0  0  0  0  0  0  0  0  0  0
  134.9713  124.0686   57.8115 H   0  0  0  0  0  0  0  0  0  0  0  0
  134.2169  123.0431   59.9468 H   0  0  0  0  0  0  0  0  0  0  0  0
  130.5730  122.7600   62.4920 H   0  0  0  0  0  0  0  0  0  0  0  0
  128.5104  121.7650   61.6234 H   0  0  0  0  0  0  0  0  0  0  0  0
  126.4424  122.1878   60.2802 H   0  0  0  0  0  0  0  0  0  0  0  0
  126.3284  124.2076   58.8413 H   0  0  0  0  0  0  0  0  0  0  0  0
  132.0183  124.8910   62.7506 H   0  0  0  0  0  0  0  0  0  0  0  0
  132.8124  126.2519   63.6258 H   0  0  0  0  0  0  0  0  0  0  0  0
  132.3375  124.3573   65.1742 H   0  0  0  0  0  0  0  0  0  0  0  0
  131.3687  125.8154   65.6110 H   0  0  0  0  0  0  0  0  0  0  0  0
  1  2  2  0
  2  3  1  0
  3  4  1  0
  4  5  1  0
  5  6  2  0
  6  7  1  0
  7  8  2  0
  8  9  1  0
  9 10  2  0
 10 11  1  0
 11 12  2  0
 12 13  1  0
 13 14  2  0
 14 15  1  0
 15 16  2  0
 16 17  1  0
 12 18  1  0
 18 19  1  0
 19 20  1  0
 19 21  1  0
  7 22  1  0
 22 23  2  0
  2 24  1  0
 24 25  1  0
 25 26  1  0
 26 27  1  0
 27 28  1  0
 28 29  1  0
 29 30  1  0
 30 31  1  0
 31 32  1  0
 32 33  1  0
 33 34  1  0
 34 35  1  0
 35 36  1  0
 36 37  1  0
 37 38  1  0
 38 39  2  0
 38 40  1  0
 40 41  1  0
 41 42  2  0
 42 43  1  0
 43 44  2  0
 44 45  1  0
 45 46  2  0
 46 47  1  0
 47 48  2  0
 47 49  1  0
 49 50  1  0
 50 51  2  0
 51 52  1  0
 52 53  2  0
 53 54  1  0
 54 55  2  0
 36 56  1  0
 56 57  1  0
 23  5  1  0
 57 33  1  0
 19  6  1  0
 55 40  1  0
 18  9  1  0
 46 41  1  0
 55 50  1  0
 17 13  1  0
  3 58  1  0
  3 59  1  0
  4 60  1  0
  4 61  1  0
  8 62  1  0
 10 63  1  0
 11 64  1  0
 14 65  1  0
 15 66  1  0
 16 67  1  0
 22 68  1  0
 23 69  1  0
 24 70  1  0
 25 71  1  0
 25 72  1  0
 26 73  1  0
 26 74  1  0
 28 75  1  0
 28 76  1  0
 29 77  1  0
 29 78  1  0
 31 79  1  0
 31 80  1  0
 32 81  1  0
 32 82  1  0
 34 83  1  0
 34 84  1  0
 35 85  1  0
 35 86  1  0
 37 87  1  0
 37 88  1  0
 42 89  1  0
 43 90  1  0
 44 91  1  0
 45 92  1  0
 49 93  1  0
 51 94  1  0
 52 95  1  0
 53 96  1  0
 56 97  1  0
 56 98  1  0
 57 99  1  0
 57100  1  0
M  CHG  2   6   1  19  -1
M  END
>  <Binding energies>  (1) 
[-6.18]

>  <Ligand effiencies>  (1) 
[-0.1047457627118644]

>  <Interactions>  (1) 
["V-A:ILE:369:CG2:3237, V-A:ASP:366:CA:3210, V-B:PRO:540:CA:9855, V-A:GLU:543:CA:4904, V-A:ILE:369:CB:3236, V-B:GLU:543:CB:9878, V-B:TYR:539:CE2:9848, V-A:TYR:484:CE2:4346, V-B:LEU:475:CD2:9230, V-B:GLU:543:CG:9879, V-A:ASP:366:CG:3213, V-A:TYR:539:CD1:4873, V-B:TYR:539:CZ:9849, V-A:ALA:541:CB:4892, V-A:GLU:543:CD:4908, V-A:TYR:484:CZ:4347, V-B:PRO:540:CB:9857, H-B:TYR:484:OH:9319, V-B:HIS:456:CE1:9041, V-B:GLU:543:CA:9876, V-B:PRO:540:N:9856, V-A:HIS:456:CE1:4070, V-B:TYR:484:CZ:9318, V-A:ASP:366:C:3208, V-A:GLU:543:CG:4907, V-B:GLU:543:CD:9880, V-A:MET:535:CE:4835, V-A:TYR:539:C:4867, V-A:ASP:366:CB:3212, H-A:ARG:545:NH2:4928, V-A:ARG:545:CZ:4926, V-A:GLU:543:CB:4906, V-A:PRO:540:N:4884, V-A:TYR:539:CG:4872, H-B:GLU:543:OE2:9882, V-A:PRO:540:CA:4883, V-B:PRO:540:C:9853, V-A:TYR:539:CE1:4875, H-A:TYR:484:OH:4348"]

$$$$
ZINC1701882
     RDKit          3D

 41 43  0  0  0  0  0  0  0  0999 V2000
  128.3480  128.8770   63.3150 C   0  0  0  0  0  0  0  0  0  0  0  0
  129.2090  128.1140   62.4770 O   0  0  0  0  0  0  0  0  0  0  0  0
  129.6100  126.8530   62.8790 C   0  0  0  0  0  0  0  0  0  0  0  0
  129.4850  126.3730   64.1990 C   0  0  0  0  0  0  0  0  0  0  0  0
  129.9060  125.0770   64.5510 C   0  0  0  0  0  0  0  0  0  0  0  0
  129.8120  124.5290   65.8160 O   0  0  0  0  0  0  0  0  0  0  0  0
  130.1530  125.3270   66.9440 C   0  0  0  0  0  0  0  0  0  0  0  0
  130.4600  124.2660   63.5570 C   0  0  0  0  0  0  0  0  0  0  0  0
  130.5830  124.7350   62.2620 C   0  0  0  0  0  0  0  0  0  0  0  0
  130.1670  126.0150   61.9020 C   0  0  0  0  0  0  0  0  0  0  0  0
  130.3370  126.5480   60.2650 Cl  0  0  0  0  0  0  0  0  0  0  0  0
  131.1250  123.8290   61.3870 O   0  0  0  0  0  0  0  0  0  0  0  0
  131.4770  122.6660   62.1340 C   0  0  1  0  0  0  0  0  0  0  0  0
  130.9700  122.8930   63.5720 C   0  0  0  0  0  0  0  0  0  0  0  0
  131.0180  122.1070   64.5170 O   0  0  0  0  0  0  0  0  0  0  0  0
  130.8420  121.4180   61.4570 C   0  0  0  0  0  0  0  0  0  0  0  0
  129.1010  121.0040   61.6520 S   0  0  0  0  0  0  0  0  0  0  0  0
  128.1950  122.5170   61.2220 C   0  0  0  0  0  0  0  0  0  0  0  0
  131.5760  120.5610   60.7130 C   0  0  0  0  0  0  0  0  0  0  0  0
  132.9880  120.7110   60.4090 C   0  0  0  0  0  0  0  0  0  0  0  0
  133.6020  119.8590   59.7690 O   0  0  0  0  0  0  0  0  0  0  0  0
  133.6360  122.0330   60.8300 C   0  0  0  0  0  0  0  0  0  0  0  0
  133.0500  122.5800   62.1520 C   0  0  1  0  0  0  0  0  0  0  0  0
  133.8350  123.8470   62.5640 C   0  0  0  0  0  0  0  0  0  0  0  0
  128.5832  128.6686   64.3692 H   0  0  0  0  0  0  0  0  0  0  0  0
  128.4934  129.9482   63.1117 H   0  0  0  0  0  0  0  0  0  0  0  0
  127.3020  128.6039   63.1117 H   0  0  0  0  0  0  0  0  0  0  0  0
  129.0492  127.0254   64.9700 H   0  0  0  0  0  0  0  0  0  0  0  0
  129.9179  124.7767   67.8670 H   0  0  0  0  0  0  0  0  0  0  0  0
  131.2283  125.5576   66.9184 H   0  0  0  0  0  0  0  0  0  0  0  0
  129.5765  126.2635   66.9184 H   0  0  0  0  0  0  0  0  0  0  0  0
  127.8858  123.0334   62.1427 H   0  0  0  0  0  0  0  0  0  0  0  0
  128.8457  123.1787   60.6314 H   0  0  0  0  0  0  0  0  0  0  0  0
  127.3045  122.2558   60.6314 H   0  0  0  0  0  0  0  0  0  0  0  0
  131.0621  119.6783   60.3046 H   0  0  0  0  0  0  0  0  0  0  0  0
  134.7160  121.8711   60.9622 H   0  0  0  0  0  0  0  0  0  0  0  0
  133.4338  122.7726   60.0413 H   0  0  0  0  0  0  0  0  0  0  0  0
  133.2033  121.8666   62.9751 H   0  0  0  0  0  0  0  0  0  0  0  0
  133.8756  123.9125   63.6613 H   0  0  0  0  0  0  0  0  0  0  0  0
  134.8574  123.7918   62.1619 H   0  0  0  0  0  0  0  0  0  0  0  0
  133.3304  124.7379   62.1619 H   0  0  0  0  0  0  0  0  0  0  0  0
  1  2  1  0
  2  3  1  0
  3  4  2  0
  4  5  1  0
  5  6  1  0
  6  7  1  0
  5  8  2  0
  8  9  1  0
  9 10  2  0
 10 11  1  0
  9 12  1  0
 13 12  1  6
 13 14  1  0
 14 15  2  0
 13 16  1  0
 16 17  1  0
 17 18  1  0
 16 19  2  0
 19 20  1  0
 20 21  2  0
 20 22  1  0
 22 23  1  0
 23 24  1  0
 10  3  1  0
 23 13  1  0
 14  8  1  0
  1 25  1  0
  1 26  1  0
  1 27  1  0
  4 28  1  0
  7 29  1  0
  7 30  1  0
  7 31  1  0
 18 32  1  0
 18 33  1  0
 18 34  1  0
 19 35  1  0
 22 36  1  0
 22 37  1  0
 23 38  1  1
 24 39  1  0
 24 40  1  0
 24 41  1  0
M  END
>  <Binding energies>  (1) 
[-5.37]

>  <Ligand effiencies>  (1) 
[-0.22375]

>  <Interactions>  (1) 
["V-A:ILE:369:CG2:3237, V-A:ILE:369:CD1:3239, V-A:HIS:456:CE1:4070, V-B:PRO:540:CA:9855, V-B:GLU:543:CB:9878, V-B:TYR:539:CD2:9846, V-A:SER:385:CB:3409, H-B:ALA:541:N:9863, H-A:SER:385:OG:3410, V-B:GLU:543:CD:9880, V-B:PRO:540:C:9853, V-A:GLU:543:CD:4908, V-B:TYR:539:CE2:9848, V-A:TYR:484:CE2:4346, V-A:LEU:475:CD2:4259, V-B:GLU:543:CG:9879, H-A:TYR:484:OH:4348"]

$$$$
ZINC17027982
     RDKit          3D

 43 46  0  0  0  0  0  0  0  0999 V2000
  128.3470  132.2800   64.6620 N   0  0  0  0  0  0  0  0  0  0  0  0
  128.9740  131.8550   63.7880 C   0  0  0  0  0  0  0  0  0  0  0  0
  129.7670  131.3180   62.6850 C   0  0  0  0  0  0  0  0  0  0  0  0
  131.0200  131.8930   62.4420 C   0  0  0  0  0  0  0  0  0  0  0  0
  131.8230  131.4260   61.4040 C   0  0  0  0  0  0  0  0  0  0  0  0
  131.3810  130.3810   60.5980 C   0  0  0  0  0  0  0  0  0  0  0  0
  130.1370  129.8000   60.8320 C   0  0  0  0  0  0  0  0  0  0  0  0
  129.3170  130.2520   61.8740 C   0  0  0  0  0  0  0  0  0  0  0  0
  127.9710  129.5500   62.0890 C   0  0  0  0  0  0  0  0  0  0  0  0
  128.1970  128.2860   62.7100 O   0  0  0  0  0  0  0  0  0  0  0  0
  128.2880  128.1800   64.0850 C   0  0  0  0  0  0  0  0  0  0  0  0
  127.7990  129.1690   64.9430 C   0  0  0  0  0  0  0  0  0  0  0  0
  127.9260  129.0540   66.3210 C   0  0  0  0  0  0  0  0  0  0  0  0
  128.5660  127.9310   66.8890 C   0  0  0  0  0  0  0  0  0  0  0  0
  128.7000  127.8020   68.2940 C   0  0  0  0  0  0  0  0  0  0  0  0
  129.3320  126.6930   68.8430 C   0  0  0  0  0  0  0  0  0  0  0  0
  129.8430  125.6960   68.0220 C   0  0  0  0  0  0  0  0  0  0  0  0
  129.7280  125.7920   66.6390 C   0  0  0  0  0  0  0  0  0  0  0  0
  129.0870  126.9120   66.0300 C   0  0  0  0  0  0  0  0  0  0  0  0
  128.9420  127.0500   64.6100 C   0  0  0  0  0  0  0  0  0  0  0  0
  129.4910  126.0140   63.6990 C   0  0  0  0  0  0  0  0  0  0  0  0
  130.7480  125.5150   63.7140 C   0  0  0  0  0  0  0  0  0  0  0  0
  131.8000  125.8320   64.4780 N   0  0  0  0  0  0  0  0  0  0  0  0
  132.8620  125.0680   64.2010 C   0  0  0  0  0  0  0  0  0  0  0  0
  133.9660  125.0890   64.7410 O   0  0  0  0  0  0  0  0  0  0  0  0
  132.4500  124.2740   63.1970 N   0  0  0  0  0  0  0  0  0  0  0  0
  131.1780  124.4780   62.8290 C   0  0  0  0  0  0  0  0  0  0  0  0
  130.5610  123.8870   61.9430 O   0  0  0  0  0  0  0  0  0  0  0  0
  131.3732  132.7199   63.0756 H   0  0  0  0  0  0  0  0  0  0  0  0
  132.8066  131.8832   61.2213 H   0  0  0  0  0  0  0  0  0  0  0  0
  132.0139  130.0141   59.7765 H   0  0  0  0  0  0  0  0  0  0  0  0
  129.7938  128.9753   60.1901 H   0  0  0  0  0  0  0  0  0  0  0  0
  127.3320  130.1691   62.7359 H   0  0  0  0  0  0  0  0  0  0  0  0
  127.4714  129.4025   61.1202 H   0  0  0  0  0  0  0  0  0  0  0  0
  127.3042  130.0551   64.5187 H   0  0  0  0  0  0  0  0  0  0  0  0
  127.5253  129.8430   66.9744 H   0  0  0  0  0  0  0  0  0  0  0  0
  128.3007  128.5856   68.9547 H   0  0  0  0  0  0  0  0  0  0  0  0
  129.4283  126.6041   69.9352 H   0  0  0  0  0  0  0  0  0  0  0  0
  130.3425  124.8237   68.4689 H   0  0  0  0  0  0  0  0  0  0  0  0
  130.1376  124.9919   66.0049 H   0  0  0  0  0  0  0  0  0  0  0  0
  128.8076  125.6125   62.9362 H   0  0  0  0  0  0  0  0  0  0  0  0
  131.7760  126.5470   65.1900 H   0  0  0  0  0  0  0  0  0  0  0  0
  133.0470  123.5900   62.7560 H   0  0  0  0  0  0  0  0  0  0  0  0
  1  2  3  0
  2  3  1  0
  3  4  2  0
  4  5  1  0
  5  6  2  0
  6  7  1  0
  7  8  2  0
  8  9  1  0
  9 10  1  0
 10 11  1  0
 11 12  2  0
 12 13  1  0
 13 14  2  0
 14 15  1  0
 15 16  2  0
 16 17  1  0
 17 18  2  0
 18 19  1  0
 19 20  2  0
 20 21  1  0
 21 22  2  0
 22 23  1  0
 23 24  1  0
 24 25  2  0
 24 26  1  0
 26 27  1  0
 27 28  2  0
  8  3  1  0
 20 11  1  0
 27 22  1  0
 19 14  1  0
  4 29  1  0
  5 30  1  0
  6 31  1  0
  7 32  1  0
  9 33  1  0
  9 34  1  0
 12 35  1  0
 13 36  1  0
 15 37  1  0
 16 38  1  0
 17 39  1  0
 18 40  1  0
 21 41  1  0
 23 42  1  0
 26 43  1  0
M  END
>  <Binding energies>  (1) 
[-7.78]

>  <Ligand effiencies>  (1) 
[-0.25933333333333336]

>  <Interactions>  (1) 
["H-A:GLU:543:OE2:4910, V-B:GLU:543:CB:9878, H-A:ARG:545:NH1:4927, V-B:GLU:543:CG:9879, V-A:ALA:541:CB:4892, V-A:GLU:543:CD:4908, H-B:TYR:484:OH:9319, V-B:HIS:456:CE1:9041, H-A:GLY:454:N:4050, V-A:HIS:456:CE1:4070, V-A:ALA:541:CA:4890, V-A:GLU:543:CG:4907, V-B:GLU:543:CD:9880, H-A:ARG:545:NH2:4928, V-A:ARG:545:CZ:4926, H-A:GLU:543:OE1:4909, V-A:GLU:543:CB:4906, V-A:PRO:540:CB:4885, V-A:PRO:540:CA:4883, H-A:ARG:545:NE:4924, H-A:TYR:484:OH:4348"]

$$$$
ZINC1704316235
     RDKit          3D

100103  0  0  0  0  0  0  0  0999 V2000
  132.7940  125.9440   57.2880 C   0  0  0  0  0  0  0  0  0  0  0  0
  132.9110  125.8280   58.8170 C   0  0  0  0  0  0  0  0  0  0  0  0
  131.5390  125.6660   59.5270 C   0  0  2  0  0  0  0  0  0  0  0  0
  131.3360  126.6710   60.5890 N   0  0  0  0  0  0  0  0  0  0  0  0
  130.9700  127.9760   60.5610 C   0  0  0  0  0  0  0  0  0  0  0  0
  130.8210  128.5920   61.6170 O   0  0  0  0  0  0  0  0  0  0  0  0
  130.6820  128.7270   59.2300 C   0  0  1  0  0  0  0  0  0  0  0  0
  131.9740  128.8610   58.4030 C   0  0  0  0  0  0  0  0  0  0  0  0
  129.7330  127.9660   58.4050 N   0  0  0  0  0  0  0  0  0  0  0  0
  128.4370  127.6400   58.6090 C   0  0  0  0  0  0  0  0  0  0  0  0
  127.8780  126.8230   57.8790 O   0  0  0  0  0  0  0  0  0  0  0  0
  127.6890  128.2660   59.6760 C   0  0  0  0  0  0  0  0  0  0  0  0
  126.3830  127.9270   60.0140 C   0  0  0  0  0  0  0  0  0  0  0  0
  125.8530  128.9230   61.3280 S   0  0  0  0  0  0  0  0  0  0  0  0
  127.3610  129.7880   61.2460 C   0  0  0  0  0  0  0  0  0  0  0  0
  128.1860  129.3010   60.3390 N   0  0  0  0  0  0  0  0  0  0  0  0
  127.6650  131.0030   62.1320 C   0  0  2  0  0  0  0  0  0  0  0  0
  129.1690  131.4210   62.1130 C   0  0  0  0  0  0  0  0  0  0  0  0
  129.6190  132.1840   63.3750 C   0  0  0  0  0  0  0  0  0  0  0  0
  129.5860  132.1780   60.8320 C   0  0  0  0  0  0  0  0  0  0  0  0
  127.2350  130.8040   63.5240 N   0  0  0  0  0  0  0  0  0  0  0  0
  127.3470  129.7070   64.2970 C   0  0  0  0  0  0  0  0  0  0  0  0
  127.1010  129.7800   65.4990 O   0  0  0  0  0  0  0  0  0  0  0  0
  127.7920  128.3440   63.7230 C   0  0  0  0  0  0  0  0  0  0  0  0
  128.4310  127.4490   64.6970 N   0  0  0  0  0  0  0  0  0  0  0  0
  128.7310  128.0690   66.0010 C   0  0  0  0  0  0  0  0  0  0  0  0
  128.4570  127.1870   67.2440 C   0  0  0  0  0  0  0  0  0  0  0  0
  129.5980  126.5970   68.0260 C   0  0  0  0  0  0  0  0  0  0  0  0
  128.7070  127.6670   68.6500 C   0  0  0  0  0  0  0  0  0  0  0  0
  129.6180  126.7650   64.1540 C   0  0  0  0  0  0  0  0  0  0  0  0
  130.0850  125.5420   64.9950 C   0  0  2  0  0  0  0  0  0  0  0  0
  131.6330  125.4700   65.0960 C   0  0  0  0  0  0  0  0  0  0  0  0
  132.3340  124.6330   64.0280 C   0  0  0  0  0  0  0  0  0  0  0  0
  133.0000  125.2590   62.9700 C   0  0  0  0  0  0  0  0  0  0  0  0
  133.6350  124.4930   61.9960 C   0  0  0  0  0  0  0  0  0  0  0  0
  133.5980  123.1030   62.0800 C   0  0  0  0  0  0  0  0  0  0  0  0
  132.9310  122.4710   63.1280 C   0  0  0  0  0  0  0  0  0  0  0  0
  132.2950  123.2370   64.1010 C   0  0  0  0  0  0  0  0  0  0  0  0
  129.5470  124.2730   64.4730 N   0  0  0  0  0  0  0  0  0  0  0  0
  129.3280  123.8230   63.2130 C   0  0  0  0  0  0  0  0  0  0  0  0
  128.8990  122.6860   63.0350 O   0  0  0  0  0  0  0  0  0  0  0  0
  129.5590  124.6900   61.9460 C   0  0  2  0  0  0  0  0  0  0  0  0
  128.2560  125.3250   61.3940 C   0  0  0  0  0  0  0  0  0  0  0  0
  127.1400  124.3610   60.9490 C   0  0  0  0  0  0  0  0  0  0  0  0
  127.7140  122.9110   60.0210 S   0  0  0  0  0  0  0  0  0  0  0  0
  128.0160  123.6840   58.4120 C   0  0  0  0  0  0  0  0  0  0  0  0
  130.3560  123.9310   60.9800 N   0  0  0  0  0  0  0  0  0  0  0  0
  131.2510  124.2200   60.0180 C   0  0  0  0  0  0  0  0  0  0  0  0
  131.8800  123.2920   59.5250 O   0  0  0  0  0  0  0  0  0  0  0  0
  132.0339  126.6976   57.0346 H   0  0  0  0  0  0  0  0  0  0  0  0
  133.7646  126.2465   56.8679 H   0  0  0  0  0  0  0  0  0  0  0  0
  132.4999  124.9709   56.8679 H   0  0  0  0  0  0  0  0  0  0  0  0
  133.5326  124.9520   59.0543 H   0  0  0  0  0  0  0  0  0  0  0  0
  133.3584  126.7644   59.1818 H   0  0  0  0  0  0  0  0  0  0  0  0
  130.7857  125.8614   58.7496 H   0  0  0  0  0  0  0  0  0  0  0  0
  131.4950  126.2890   61.5110 H   0  0  0  0  0  0  0  0  0  0  0  0
  130.2730  129.7140   59.4920 H   0  0  0  0  0  0  0  0  0  0  0  0
  132.8357  128.9504   59.0809 H   0  0  0  0  0  0  0  0  0  0  0  0
  132.0973  127.9708   57.7687 H   0  0  0  0  0  0  0  0  0  0  0  0
  131.9120  129.7575   57.7687 H   0  0  0  0  0  0  0  0  0  0  0  0
  130.1490  127.6070   57.5570 H   0  0  0  0  0  0  0  0  0  0  0  0
  125.7809  127.1480   59.5234 H   0  0  0  0  0  0  0  0  0  0  0  0
  127.0783  131.8213   61.6891 H   0  0  0  0  0  0  0  0  0  0  0  0
  129.7067  130.4614   62.1107 H   0  0  0  0  0  0  0  0  0  0  0  0
  129.2948  131.6343   64.2709 H   0  0  0  0  0  0  0  0  0  0  0  0
  130.7152  132.2748   63.3772 H   0  0  0  0  0  0  0  0  0  0  0  0
  129.1680  133.1873   63.3772 H   0  0  0  0  0  0  0  0  0  0  0  0
  130.0998  133.1106   61.1081 H   0  0  0  0  0  0  0  0  0  0  0  0
  130.2642  131.5478   60.2380 H   0  0  0  0  0  0  0  0  0  0  0  0
  128.6909  132.4145   60.2380 H   0  0  0  0  0  0  0  0  0  0  0  0
  127.0220  131.6600   64.0150 H   0  0  0  0  0  0  0  0  0  0  0  0
  126.9039  127.8349   63.3205 H   0  0  0  0  0  0  0  0  0  0  0  0
  128.5497  128.5615   62.9558 H   0  0  0  0  0  0  0  0  0  0  0  0
  129.7967  128.3413   66.0083 H   0  0  0  0  0  0  0  0  0  0  0  0
  128.0498  128.9284   66.0877 H   0  0  0  0  0  0  0  0  0  0  0  0
  127.5738  126.7895   66.7224 H   0  0  0  0  0  0  0  0  0  0  0  0
  129.5428  125.5577   68.3820 H   0  0  0  0  0  0  0  0  0  0  0  0
  130.6794  126.4815   67.8609 H   0  0  0  0  0  0  0  0  0  0  0  0
  128.0075  127.4009   69.4562 H   0  0  0  0  0  0  0  0  0  0  0  0
  128.8760  128.6458   69.1227 H   0  0  0  0  0  0  0  0  0  0  0  0
  129.3813  126.4158   63.1381 H   0  0  0  0  0  0  0  0  0  0  0  0
  130.4408  127.4949   64.1706 H   0  0  0  0  0  0  0  0  0  0  0  0
  129.6804  125.6901   66.0071 H   0  0  0  0  0  0  0  0  0  0  0  0
  132.0230  126.4964   65.0293 H   0  0  0  0  0  0  0  0  0  0  0  0
  131.8455  124.9699   66.0524 H   0  0  0  0  0  0  0  0  0  0  0  0
  133.0223  126.3570   62.9071 H   0  0  0  0  0  0  0  0  0  0  0  0
  134.1631  124.9828   61.1646 H   0  0  0  0  0  0  0  0  0  0  0  0
  134.1005  122.4978   61.3111 H   0  0  0  0  0  0  0  0  0  0  0  0
  132.9073  121.3728   63.1860 H   0  0  0  0  0  0  0  0  0  0  0  0
  131.7618  122.7442   64.9273 H   0  0  0  0  0  0  0  0  0  0  0  0
  129.3150  123.6150   65.2030 H   0  0  0  0  0  0  0  0  0  0  0  0
  130.1509  125.5784   62.2115 H   0  0  0  0  0  0  0  0  0  0  0  0
  127.8417  125.9701   62.1828 H   0  0  0  0  0  0  0  0  0  0  0  0
  128.5614  125.8499   60.4768 H   0  0  0  0  0  0  0  0  0  0  0  0
  126.6152  124.0062   61.8483 H   0  0  0  0  0  0  0  0  0  0  0  0
  126.4927  124.9302   60.2657 H   0  0  0  0  0  0  0  0  0  0  0  0
  128.4126  124.6991   58.5615 H   0  0  0  0  0  0  0  0  0  0  0  0
  128.7460  123.0845   57.8484 H   0  0  0  0  0  0  0  0  0  0  0  0
  127.0729  123.7381   57.8484 H   0  0  0  0  0  0  0  0  0  0  0  0
  130.2650  122.9420   61.1540 H   0  0  0  0  0  0  0  0  0  0  0  0
  1  2  1  0
  2  3  1  0
  3  4  1  0
  4  5  1  0
  5  6  2  0
  5  7  1  0
  7  8  1  0
  7  9  1  0
  9 10  1  0
 10 11  2  0
 10 12  1  0
 12 13  2  0
 13 14  1  0
 14 15  1  0
 15 16  2  0
 15 17  1  0
 17 18  1  0
 18 19  1  0
 18 20  1  0
 17 21  1  0
 21 22  1  0
 22 23  2  0
 22 24  1  0
 24 25  1  0
 25 26  1  0
 26 27  1  0
 27 28  1  0
 28 29  1  0
 25 30  1  0
 30 31  1  0
 31 32  1  0
 32 33  1  0
 33 34  2  0
 34 35  1  0
 35 36  2  0
 36 37  1  0
 37 38  2  0
 31 39  1  0
 39 40  1  0
 40 41  2  0
 40 42  1  0
 42 43  1  0
 43 44  1  0
 44 45  1  0
 45 46  1  0
 42 47  1  0
 47 48  1  0
 48 49  2  0
 48  3  1  0
 16 12  1  0
 29 27  1  0
 38 33  1  0
  1 50  1  0
  1 51  1  0
  1 52  1  0
  2 53  1  0
  2 54  1  0
  3 55  1  6
  4 56  1  0
  7 57  1  1
  8 58  1  0
  8 59  1  0
  8 60  1  0
  9 61  1  0
 13 62  1  0
 17 63  1  6
 18 64  1  0
 19 65  1  0
 19 66  1  0
 19 67  1  0
 20 68  1  0
 20 69  1  0
 20 70  1  0
 21 71  1  0
 24 72  1  0
 24 73  1  0
 26 74  1  0
 26 75  1  0
 27 76  1  0
 28 77  1  0
 28 78  1  0
 29 79  1  0
 29 80  1  0
 30 81  1  0
 30 82  1  0
 31 83  1  1
 32 84  1  0
 32 85  1  0
 34 86  1  0
 35 87  1  0
 36 88  1  0
 37 89  1  0
 38 90  1  0
 39 91  1  0
 42 92  1  1
 43 93  1  0
 43 94  1  0
 44 95  1  0
 44 96  1  0
 46 97  1  0
 46 98  1  0
 46 99  1  0
 47100  1  0
M  END
>  <Binding energies>  (1) 
[-2.41]

>  <Ligand effiencies>  (1) 
[-0.04303571428571429]

>  <Interactions>  (1) 
["V-A:ASP:366:CA:3210, V-A:GLY:454:CA:4049, V-B:GLU:543:CB:9878, V-B:ASP:366:CG:8184, H-A:TYR:531:OH:4795, V-B:TYR:539:CE2:9848, V-B:GLU:543:CG:9879, V-A:ASP:366:CG:3213, H-B:TYR:539:OH:9850, V-A:ALA:541:CB:4892, V-A:GLU:543:CD:4908, H-B:TYR:484:OH:9319, V-B:HIS:456:CE1:9041, V-A:HIS:456:CE1:4070, V-A:ILE:369:CD1:3239, V-A:ASP:366:C:3208, V-A:ALA:541:CA:4890, V-A:TYR:531:CZ:4794, V-A:GLU:543:CG:4907, V-B:GLU:543:CD:9880, H-B:TYR:531:OH:9767, V-A:ASP:366:CB:3212, V-A:LEU:475:CD2:4259, H-A:ARG:545:NH2:4928, V-A:ARG:545:CZ:4926, V-A:GLU:543:CB:4906, V-A:PRO:540:CA:4883, H-A:ASP:366:OD2:3215"]

$$$$
ZINC1704318862
     RDKit          3D

 86 88  0  0  0  0  0  0  0  0999 V2000
  126.1290  128.3060   58.7090 C   0  0  0  0  0  0  0  0  0  0  0  0
  126.5540  127.2420   57.8660 O   0  0  0  0  0  0  0  0  0  0  0  0
  127.8720  126.8260   57.9130 C   0  0  0  0  0  0  0  0  0  0  0  0
  128.7320  126.8010   56.8010 C   0  0  0  0  0  0  0  0  0  0  0  0
  130.0380  126.3250   56.9210 C   0  0  0  0  0  0  0  0  0  0  0  0
  130.5120  125.8720   58.1540 C   0  0  0  0  0  0  0  0  0  0  0  0
  129.6690  125.9130   59.2660 C   0  0  0  0  0  0  0  0  0  0  0  0
  128.3590  126.3780   59.1500 C   0  0  0  0  0  0  0  0  0  0  0  0
  127.5430  126.3040   60.2500 O   0  0  0  0  0  0  0  0  0  0  0  0
  126.6450  125.2030   60.3100 C   0  0  0  0  0  0  0  0  0  0  0  0
  127.3650  123.9640   59.7530 C   0  0  0  0  0  0  0  0  0  0  0  0
  127.5600  123.8870   58.5420 O   0  0  0  0  0  0  0  0  0  0  0  0
  127.7760  122.9730   60.5680 N   0  0  0  0  0  0  0  0  0  0  0  0
  127.7130  122.9050   62.0310 C   0  0  0  0  0  0  0  0  0  0  0  0
  128.3320  124.1130   62.7670 C   0  0  0  0  0  0  0  0  0  0  0  0
  129.2200  125.0480   61.9060 C   0  0  0  0  0  0  0  0  0  0  0  0
  129.7980  126.2710   62.6690 C   0  0  2  0  0  0  0  0  0  0  0  0
  129.4870  127.5790   61.9930 N   0  0  0  0  0  0  0  0  0  0  0  0
  131.3520  126.2040   62.7950 C   0  0  0  0  0  0  0  0  0  0  0  0
  132.0620  126.8260   62.0000 O   0  0  0  0  0  0  0  0  0  0  0  0
  131.9130  125.4220   63.7380 N   0  0  0  0  0  0  0  0  0  0  0  0
  131.2470  124.6650   64.8040 C   0  0  1  0  0  0  0  0  0  0  0  0
  129.7910  125.1560   64.9970 C   0  0  0  0  0  0  0  0  0  0  0  0
  129.6100  126.0830   66.1820 C   0  0  0  0  0  0  0  0  0  0  0  0
  128.8450  127.2620   66.0580 C   0  0  0  0  0  0  0  0  0  0  0  0
  128.5980  128.0480   67.1760 C   0  0  0  0  0  0  0  0  0  0  0  0
  129.0770  127.6640   68.4220 C   0  0  0  0  0  0  0  0  0  0  0  0
  129.7970  126.4850   68.5660 C   0  0  0  0  0  0  0  0  0  0  0  0
  130.0530  125.6840   67.4610 C   0  0  0  0  0  0  0  0  0  0  0  0
  131.3420  123.1500   64.5160 C   0  0  0  0  0  0  0  0  0  0  0  0
  130.9880  122.3850   65.4100 O   0  0  0  0  0  0  0  0  0  0  0  0
  131.8350  122.6820   63.3510 N   0  0  0  0  0  0  0  0  0  0  0  0
  132.2250  123.4060   62.1340 C   0  0  2  0  0  0  0  0  0  0  0  0
  132.3100  122.3960   60.9440 C   0  0  0  0  0  0  0  0  0  0  0  0
  131.0450  121.5380   60.7240 C   0  0  0  0  0  0  0  0  0  0  0  0
  133.5500  121.4850   60.9960 C   0  0  0  0  0  0  0  0  0  0  0  0
  133.5940  124.1030   62.3470 C   0  0  0  0  0  0  0  0  0  0  0  0
  134.0640  124.1350   63.4840 O   0  0  0  0  0  0  0  0  0  0  0  0
  134.2640  124.6540   61.3150 N   0  0  0  0  0  0  0  0  0  0  0  0
  133.8760  124.7880   59.9090 C   0  0  0  0  0  0  0  0  0  0  0  0
  132.4060  125.2190   59.7550 C   0  0  0  0  0  0  0  0  0  0  0  0
  131.9260  125.3210   58.2920 C   0  0  0  0  0  0  0  0  0  0  0  0
  126.2474  128.0095   59.7616 H   0  0  0  0  0  0  0  0  0  0  0  0
  126.7395  129.1988   58.5086 H   0  0  0  0  0  0  0  0  0  0  0  0
  125.0714  128.5325   58.5086 H   0  0  0  0  0  0  0  0  0  0  0  0
  128.3713  127.1606   55.8260 H   0  0  0  0  0  0  0  0  0  0  0  0
  130.6972  126.3065   56.0406 H   0  0  0  0  0  0  0  0  0  0  0  0
  130.0418  125.5750   60.2442 H   0  0  0  0  0  0  0  0  0  0  0  0
  126.3466  125.0225   61.3532 H   0  0  0  0  0  0  0  0  0  0  0  0
  125.7429  125.4161   59.7177 H   0  0  0  0  0  0  0  0  0  0  0  0
  128.2370  122.1900   60.1260 H   0  0  0  0  0  0  0  0  0  0  0  0
  126.6553  122.8321   62.3241 H   0  0  0  0  0  0  0  0  0  0  0  0
  128.3086  122.0279   62.3242 H   0  0  0  0  0  0  0  0  0  0  0  0
  127.5085  124.7151   63.1785 H   0  0  0  0  0  0  0  0  0  0  0  0
  129.0005  123.6865   63.5294 H   0  0  0  0  0  0  0  0  0  0  0  0
  130.0620  124.4579   61.5151 H   0  0  0  0  0  0  0  0  0  0  0  0
  128.5725  125.4515   61.1136 H   0  0  0  0  0  0  0  0  0  0  0  0
  129.3184  126.2264   63.6579 H   0  0  0  0  0  0  0  0  0  0  0  0
  129.5740  128.3280   62.6660 H   0  0  0  0  0  0  0  0  0  0  0  0
  128.5440  127.5490   61.6330 H   0  0  0  0  0  0  0  0  0  0  0  0
  130.1390  127.7160   61.2340 H   0  0  0  0  0  0  0  0  0  0  0  0
  132.9210  125.3710   63.7610 H   0  0  0  0  0  0  0  0  0  0  0  0
  131.7619  124.8439   65.7595 H   0  0  0  0  0  0  0  0  0  0  0  0
  129.4822  125.6918   64.0873 H   0  0  0  0  0  0  0  0  0  0  0  0
  129.1755  124.2651   65.1904 H   0  0  0  0  0  0  0  0  0  0  0  0
  128.4448  127.5582   65.0772 H   0  0  0  0  0  0  0  0  0  0  0  0
  128.0205  128.9787   67.0744 H   0  0  0  0  0  0  0  0  0  0  0  0
  128.8849  128.2977   69.3003 H   0  0  0  0  0  0  0  0  0  0  0  0
  130.1654  126.1850   69.5581 H   0  0  0  0  0  0  0  0  0  0  0  0
  130.6013  124.7382   67.5827 H   0  0  0  0  0  0  0  0  0  0  0  0
  131.9130  121.6790   63.2610 H   0  0  0  0  0  0  0  0  0  0  0  0
  131.4744  124.1769   61.9053 H   0  0  0  0  0  0  0  0  0  0  0  0
  132.4007  123.0637   60.0746 H   0  0  0  0  0  0  0  0  0  0  0  0
  130.6224  121.2513   61.6983 H   0  0  0  0  0  0  0  0  0  0  0  0
  130.3016  122.1190   60.1585 H   0  0  0  0  0  0  0  0  0  0  0  0
  131.3099  120.6324   60.1585 H   0  0  0  0  0  0  0  0  0  0  0  0
  133.8171  121.2888   62.0449 H   0  0  0  0  0  0  0  0  0  0  0  0
  133.3277  120.5339   60.4901 H   0  0  0  0  0  0  0  0  0  0  0  0
  134.3912  121.9815   60.4901 H   0  0  0  0  0  0  0  0  0  0  0  0
  135.1700  125.0420   61.5320 H   0  0  0  0  0  0  0  0  0  0  0  0
  134.5192  125.5431   59.4335 H   0  0  0  0  0  0  0  0  0  0  0  0
  133.9941  123.8054   59.4288 H   0  0  0  0  0  0  0  0  0  0  0  0
  131.7747  124.4832   60.2746 H   0  0  0  0  0  0  0  0  0  0  0  0
  132.3262  126.2285   60.1847 H   0  0  0  0  0  0  0  0  0  0  0  0
  132.6130  125.9838   57.7454 H   0  0  0  0  0  0  0  0  0  0  0  0
  131.9173  124.3003   57.8821 H   0  0  0  0  0  0  0  0  0  0  0  0
  1  2  1  0
  2  3  1  0
  3  4  2  0
  4  5  1  0
  5  6  2  0
  6  7  1  0
  7  8  2  0
  8  9  1  0
  9 10  1  0
 10 11  1  0
 11 12  2  0
 11 13  1  0
 13 14  1  0
 14 15  1  0
 15 16  1  0
 16 17  1  0
 17 18  1  0
 17 19  1  0
 19 20  2  0
 19 21  1  0
 21 22  1  0
 22 23  1  0
 23 24  1  0
 24 25  2  0
 25 26  1  0
 26 27  2  0
 27 28  1  0
 28 29  2  0
 22 30  1  0
 30 31  2  0
 30 32  1  0
 32 33  1  0
 33 34  1  0
 34 35  1  0
 34 36  1  0
 33 37  1  0
 37 38  2  0
 37 39  1  0
 39 40  1  0
 40 41  1  0
 41 42  1  0
  8  3  1  0
 29 24  1  0
 42  6  1  0
  1 43  1  0
  1 44  1  0
  1 45  1  0
  4 46  1  0
  5 47  1  0
  7 48  1  0
 10 49  1  0
 10 50  1  0
 13 51  1  0
 14 52  1  0
 14 53  1  0
 15 54  1  0
 15 55  1  0
 16 56  1  0
 16 57  1  0
 17 58  1  1
 18 59  1  0
 18 60  1  0
 18 61  1  0
 21 62  1  0
 22 63  1  1
 23 64  1  0
 23 65  1  0
 25 66  1  0
 26 67  1  0
 27 68  1  0
 28 69  1  0
 29 70  1  0
 32 71  1  0
 33 72  1  6
 34 73  1  0
 35 74  1  0
 35 75  1  0
 35 76  1  0
 36 77  1  0
 36 78  1  0
 36 79  1  0
 39 80  1  0
 40 81  1  0
 40 82  1  0
 41 83  1  0
 41 84  1  0
 42 85  1  0
 42 86  1  0
M  CHG  1  18   1
M  END
>  <Binding energies>  (1) 
[-3.15]

>  <Ligand effiencies>  (1) 
[-0.06176470588235294]

>  <Interactions>  (1) 
["V-A:ILE:369:CG2:3237, V-A:ASP:366:CA:3210, V-B:PRO:540:CA:9855, V-B:GLU:543:CB:9878, V-B:ASP:366:CG:8184, V-B:ALA:541:CB:9864, V-B:TYR:539:CE2:9848, V-A:TYR:484:CE2:4346, V-B:GLU:543:CG:9879, V-A:ASP:366:CG:3213, V-B:TYR:539:CZ:9849, V-B:ASP:366:CB:8183, V-A:TYR:484:CZ:4347, V-A:GLU:543:CD:4908, V-B:HIS:456:CE1:9041, H-A:GLY:454:N:4050, V-A:ILE:369:CD1:3239, V-A:HIS:456:CE1:4070, V-B:TYR:539:CD2:9846, V-A:GLU:543:CG:4907, V-B:GLU:543:CD:9880, H-B:TYR:531:OH:9767, V-A:ASP:366:CB:3212, V-A:LEU:475:CD2:4259, H-A:ARG:545:NH2:4928, V-A:ARG:545:CZ:4926, H-A:GLU:543:OE1:4909, V-A:GLU:543:CB:4906, H-A:ASP:366:OD1:3214, H-B:TYR:539:O:9840, V-B:PRO:540:C:9853, H-A:TYR:484:OH:4348"]

$$$$
ZINC1704319561
     RDKit          3D

 88 91  0  0  0  0  0  0  0  0999 V2000
  127.8180  123.1220   57.0350 C   0  0  0  0  0  0  0  0  0  0  0  0
  126.9080  123.2400   58.2730 C   0  0  0  0  0  0  0  0  0  0  0  0
  125.4280  123.3210   57.8530 C   0  0  0  0  0  0  0  0  0  0  0  0
  127.2900  124.4320   59.1900 C   0  0  0  0  0  0  0  0  0  0  0  0
  126.9430  124.2820   60.6960 C   0  0  2  0  0  0  0  0  0  0  0  0
  126.7930  125.5970   61.3430 N   0  0  0  0  0  0  0  0  0  0  0  0
  127.4860  126.7260   61.0990 C   0  0  0  0  0  0  0  0  0  0  0  0
  127.1420  127.7820   61.6340 O   0  0  0  0  0  0  0  0  0  0  0  0
  128.7080  126.6530   60.1540 C   0  0  0  0  0  0  0  0  0  0  0  0
  129.4990  127.9220   60.2220 N   0  0  0  0  0  0  0  0  0  0  0  0
  130.5560  128.0520   59.1060 C   0  0  0  0  0  0  0  0  0  0  0  0
  131.1420  126.6750   58.7110 C   0  0  0  0  0  0  0  0  0  0  0  0
  131.6780  125.8600   59.8250 N   0  0  0  0  0  0  0  0  0  0  0  0
  131.9660  126.6110   61.0550 C   0  0  0  0  0  0  0  0  0  0  0  0
  131.9810  124.5320   59.7530 C   0  0  0  0  0  0  0  0  0  0  0  0
  131.1160  123.6540   59.7030 O   0  0  0  0  0  0  0  0  0  0  0  0
  133.4530  124.0390   59.6680 C   0  0  2  0  0  0  0  0  0  0  0  0
  133.8840  123.8450   58.1980 C   0  0  0  0  0  0  0  0  0  0  0  0
  133.6970  122.8540   60.5030 N   0  0  0  0  0  0  0  0  0  0  0  0
  133.9200  122.7940   61.8280 C   0  0  0  0  0  0  0  0  0  0  0  0
  133.9600  121.7030   62.3950 O   0  0  0  0  0  0  0  0  0  0  0  0
  134.1230  124.1030   62.6250 C   0  0  0  0  0  0  0  0  0  0  0  0
  133.1950  124.2620   63.7690 N   0  0  0  0  0  0  0  0  0  0  0  0
  133.7130  125.0710   64.8810 C   0  0  0  0  0  0  0  0  0  0  0  0
  131.9200  123.7620   63.8350 C   0  0  0  0  0  0  0  0  0  0  0  0
  131.5820  122.7220   63.2630 O   0  0  0  0  0  0  0  0  0  0  0  0
  130.8010  124.4710   64.6490 C   0  0  1  0  0  0  0  0  0  0  0  0
  130.0760  125.5520   63.7810 C   0  0  0  0  0  0  0  0  0  0  0  0
  129.3480  126.6820   64.4520 C   0  0  0  0  0  0  0  0  0  0  0  0
  128.6220  127.6500   63.8430 C   0  0  0  0  0  0  0  0  0  0  0  0
  128.0660  128.4800   64.7950 N   0  0  0  0  0  0  0  0  0  0  0  0
  128.3630  128.0620   66.0750 C   0  0  0  0  0  0  0  0  0  0  0  0
  128.0290  128.5480   67.3510 C   0  0  0  0  0  0  0  0  0  0  0  0
  128.4720  127.8510   68.4880 C   0  0  0  0  0  0  0  0  0  0  0  0
  129.2370  126.6770   68.3380 C   0  0  0  0  0  0  0  0  0  0  0  0
  129.5750  126.2070   67.0520 C   0  0  0  0  0  0  0  0  0  0  0  0
  129.1570  126.8910   65.8860 C   0  0  0  0  0  0  0  0  0  0  0  0
  129.9050  123.4640   65.2370 N   0  0  0  0  0  0  0  0  0  0  0  0
  129.0850  122.5480   64.6870 C   0  0  0  0  0  0  0  0  0  0  0  0
  128.4940  121.7250   65.3850 O   0  0  0  0  0  0  0  0  0  0  0  0
  128.8900  122.5530   63.2680 C   0  0  0  0  0  0  0  0  0  0  0  0
  129.5620  121.7770   62.3300 C   0  0  0  0  0  0  0  0  0  0  0  0
  129.0250  122.2360   60.7440 S   0  0  0  0  0  0  0  0  0  0  0  0
  127.9250  123.3870   61.4670 C   0  0  0  0  0  0  0  0  0  0  0  0
  128.0030  123.4020   62.7800 N   0  0  0  0  0  0  0  0  0  0  0  0
  128.8608  122.9868   57.3580 H   0  0  0  0  0  0  0  0  0  0  0  0
  127.5059  122.2568   56.4316 H   0  0  0  0  0  0  0  0  0  0  0  0
  127.7369  124.0382   56.4316 H   0  0  0  0  0  0  0  0  0  0  0  0
  127.0600  122.3273   58.8678 H   0  0  0  0  0  0  0  0  0  0  0  0
  124.7934  123.3557   58.7508 H   0  0  0  0  0  0  0  0  0  0  0  0
  125.2660  124.2294   57.2541 H   0  0  0  0  0  0  0  0  0  0  0  0
  125.1678  122.4358   57.2541 H   0  0  0  0  0  0  0  0  0  0  0  0
  128.3769  124.5811   59.1100 H   0  0  0  0  0  0  0  0  0  0  0  0
  126.6870  125.2802   58.8338 H   0  0  0  0  0  0  0  0  0  0  0  0
  125.9734  123.7639   60.7327 H   0  0  0  0  0  0  0  0  0  0  0  0
  125.9570  125.6990   61.9000 H   0  0  0  0  0  0  0  0  0  0  0  0
  129.3484  125.8106   60.4545 H   0  0  0  0  0  0  0  0  0  0  0  0
  128.3527  126.5098   59.1229 H   0  0  0  0  0  0  0  0  0  0  0  0
  128.8920  128.7300   60.1840 H   0  0  0  0  0  0  0  0  0  0  0  0
  129.9860  127.9590   61.1060 H   0  0  0  0  0  0  0  0  0  0  0  0
  130.0866  128.5069   58.2213 H   0  0  0  0  0  0  0  0  0  0  0  0
  131.3773  128.6796   59.4823 H   0  0  0  0  0  0  0  0  0  0  0  0
  130.3443  126.0961   58.2225 H   0  0  0  0  0  0  0  0  0  0  0  0
  132.0008  126.8915   58.0586 H   0  0  0  0  0  0  0  0  0  0  0  0
  131.7271  125.9879   61.9295 H   0  0  0  0  0  0  0  0  0  0  0  0
  133.0318  126.8820   61.0781 H   0  0  0  0  0  0  0  0  0  0  0  0
  131.3547  127.5252   61.0781 H   0  0  0  0  0  0  0  0  0  0  0  0
  134.0954  124.8261   60.0897 H   0  0  0  0  0  0  0  0  0  0  0  0
  134.8867  123.3937   58.1664 H   0  0  0  0  0  0  0  0  0  0  0  0
  133.1675  123.1826   57.6902 H   0  0  0  0  0  0  0  0  0  0  0  0
  133.9048  124.8206   57.6902 H   0  0  0  0  0  0  0  0  0  0  0  0
  133.5870  121.9770   60.0140 H   0  0  0  0  0  0  0  0  0  0  0  0
  135.1531  124.1170   63.0107 H   0  0  0  0  0  0  0  0  0  0  0  0
  133.9189  124.9325   61.9320 H   0  0  0  0  0  0  0  0  0  0  0  0
  133.4191  124.6119   65.8364 H   0  0  0  0  0  0  0  0  0  0  0  0
  134.8102  125.1190   64.8195 H   0  0  0  0  0  0  0  0  0  0  0  0
  133.2975  126.0876   64.8195 H   0  0  0  0  0  0  0  0  0  0  0  0
  131.2386  125.0286   65.4902 H   0  0  0  0  0  0  0  0  0  0  0  0
  130.8405  126.0056   63.1330 H   0  0  0  0  0  0  0  0  0  0  0  0
  129.2713  124.9864   63.2885 H   0  0  0  0  0  0  0  0  0  0  0  0
  128.4950  127.7580   62.7557 H   0  0  0  0  0  0  0  0  0  0  0  0
  127.4990  129.2800   64.5540 H   0  0  0  0  0  0  0  0  0  0  0  0
  127.4280  129.4630   67.4583 H   0  0  0  0  0  0  0  0  0  0  0  0
  128.2221  128.2211   69.4933 H   0  0  0  0  0  0  0  0  0  0  0  0
  129.5721  126.1246   69.2282 H   0  0  0  0  0  0  0  0  0  0  0  0
  130.1754  125.2906   66.9535 H   0  0  0  0  0  0  0  0  0  0  0  0
  129.8940  123.5010   66.2450 H   0  0  0  0  0  0  0  0  0  0  0  0
  130.3091  121.0017   62.5552 H   0  0  0  0  0  0  0  0  0  0  0  0
  1  2  1  0
  2  3  1  0
  2  4  1  0
  4  5  1  0
  5  6  1  0
  6  7  1  0
  7  8  2  0
  7  9  1  0
  9 10  1  0
 10 11  1  0
 11 12  1  0
 12 13  1  0
 13 14  1  0
 13 15  1  0
 15 16  2  0
 15 17  1  0
 17 18  1  0
 17 19  1  0
 19 20  1  0
 20 21  2  0
 20 22  1  0
 22 23  1  0
 23 24  1  0
 23 25  1  0
 25 26  2  0
 25 27  1  0
 27 28  1  0
 28 29  1  0
 29 30  2  0
 30 31  1  0
 31 32  1  0
 32 33  2  0
 33 34  1  0
 34 35  2  0
 35 36  1  0
 36 37  2  0
 27 38  1  0
 38 39  1  0
 39 40  2  0
 39 41  1  0
 41 42  2  0
 42 43  1  0
 43 44  1  0
 44 45  2  0
 44  5  1  0
 37 29  1  0
 45 41  1  0
 37 32  1  0
  1 46  1  0
  1 47  1  0
  1 48  1  0
  2 49  1  0
  3 50  1  0
  3 51  1  0
  3 52  1  0
  4 53  1  0
  4 54  1  0
  5 55  1  6
  6 56  1  0
  9 57  1  0
  9 58  1  0
 10 59  1  0
 10 60  1  0
 11 61  1  0
 11 62  1  0
 12 63  1  0
 12 64  1  0
 14 65  1  0
 14 66  1  0
 14 67  1  0
 17 68  1  1
 18 69  1  0
 18 70  1  0
 18 71  1  0
 19 72  1  0
 22 73  1  0
 22 74  1  0
 24 75  1  0
 24 76  1  0
 24 77  1  0
 27 78  1  1
 28 79  1  0
 28 80  1  0
 30 81  1  0
 31 82  1  0
 33 83  1  0
 34 84  1  0
 35 85  1  0
 36 86  1  0
 38 87  1  0
 42 88  1  0
M  CHG  1  10   1
M  END
>  <Binding energies>  (1) 
[-4.56]

>  <Ligand effiencies>  (1) 
[-0.08603773584905659]

>  <Interactions>  (1) 
["V-A:ILE:369:CG2:3237, V-A:ASP:366:CA:3210, V-B:PRO:540:CA:9855, V-A:GLY:454:CA:4049, V-A:ILE:369:CB:3236, V-B:GLU:543:CB:9878, V-B:ALA:541:CB:9864, V-B:TYR:539:CE2:9848, V-A:TYR:484:CE2:4346, V-B:GLU:543:CG:9879, V-A:ASP:366:CG:3213, V-B:TYR:539:CZ:9849, H-B:GLU:543:OE1:9881, V-A:TYR:484:CZ:4347, V-B:PRO:540:CB:9857, V-A:GLU:543:CD:4908, H-B:TYR:484:OH:9319, H-B:ASP:366:OD1:8185, V-B:HIS:456:CE1:9041, H-A:GLY:454:N:4050, V-A:GLY:453:C:4042, V-B:PRO:540:N:9856, V-A:ILE:369:CD1:3239, V-A:HIS:456:CE1:4070, V-A:ASP:366:C:3208, V-B:TYR:539:CD2:9846, V-B:PRO:540:CD:9859, V-A:GLU:543:CG:4907, V-B:GLU:543:CD:9880, V-A:ARG:545:CD:4923, V-A:LEU:475:CD2:4259, V-A:ARG:545:CZ:4926, H-A:GLU:543:OE1:4909, V-B:TYR:539:CG:9844, V-A:GLU:543:CB:4906, V-B:TYR:539:CD1:9845, V-B:LEU:363:CD1:8160, H-B:GLU:543:OE2:9882, H-B:GLU:543:N:9877, V-B:TYR:539:CE1:9847, H-A:TYR:484:OH:4348"]

$$$$
ZINC1704322017
     RDKit          3D

 91 94  0  0  0  0  0  0  0  0999 V2000
  129.7030  127.5930   68.9760 C   0  0  0  0  0  0  0  0  0  0  0  0
  128.5330  127.2980   68.2220 O   0  0  0  0  0  0  0  0  0  0  0  0
  128.5500  127.5300   66.8610 C   0  0  0  0  0  0  0  0  0  0  0  0
  127.8640  128.5640   66.1950 C   0  0  0  0  0  0  0  0  0  0  0  0
  127.9670  128.7240   64.7980 C   0  0  0  0  0  0  0  0  0  0  0  0
  127.2220  129.8610   64.1180 C   0  0  0  0  0  0  0  0  0  0  0  0
  127.1500  129.7800   62.5710 N   0  0  2  0  0  0  0  0  0  0  0  0
  126.6180  131.0490   61.8620 C   0  0  0  0  0  0  0  0  0  0  0  0
  127.2210  131.1420   60.4450 C   0  0  0  0  0  0  0  0  0  0  0  0
  128.1510  132.3470   60.2290 C   0  0  0  0  0  0  0  0  0  0  0  0
  128.9350  132.6530   61.4280 N   0  0  0  0  0  0  0  0  0  0  0  0
  130.1390  132.1950   61.8220 C   0  0  0  0  0  0  0  0  0  0  0  0
  130.6070  132.5320   62.9100 O   0  0  0  0  0  0  0  0  0  0  0  0
  130.9700  131.2490   60.9210 C   0  0  1  0  0  0  0  0  0  0  0  0
  132.4770  131.6630   60.9570 C   0  0  0  0  0  0  0  0  0  0  0  0
  133.2630  131.3580   59.6640 C   0  0  0  0  0  0  0  0  0  0  0  0
  133.2340  131.0940   62.1710 C   0  0  0  0  0  0  0  0  0  0  0  0
  130.7920  129.8680   61.3750 N   0  0  0  0  0  0  0  0  0  0  0  0
  130.5550  128.7620   60.6460 C   0  0  0  0  0  0  0  0  0  0  0  0
  130.4730  127.6580   61.1800 O   0  0  0  0  0  0  0  0  0  0  0  0
  130.3590  128.8650   59.1120 C   0  0  1  0  0  0  0  0  0  0  0  0
  131.6530  128.6130   58.3080 C   0  0  0  0  0  0  0  0  0  0  0  0
  129.2580  128.0630   58.5590 N   0  0  0  0  0  0  0  0  0  0  0  0
  128.9750  126.7460   58.6230 C   0  0  0  0  0  0  0  0  0  0  0  0
  128.0050  126.2940   58.0190 O   0  0  0  0  0  0  0  0  0  0  0  0
  129.8570  125.7710   59.4390 C   0  0  2  0  0  0  0  0  0  0  0  0
  131.0060  125.1270   58.6210 C   0  0  0  0  0  0  0  0  0  0  0  0
  132.2800  124.8690   59.4120 C   0  0  0  0  0  0  0  0  0  0  0  0
  132.2330  124.6700   60.8090 C   0  0  0  0  0  0  0  0  0  0  0  0
  133.3870  124.3290   61.5010 C   0  0  0  0  0  0  0  0  0  0  0  0
  134.5870  124.1610   60.8230 C   0  0  0  0  0  0  0  0  0  0  0  0
  134.6430  124.3230   59.4440 C   0  0  0  0  0  0  0  0  0  0  0  0
  133.5000  124.6630   58.7330 C   0  0  0  0  0  0  0  0  0  0  0  0
  129.0640  124.7980   60.2080 N   0  0  0  0  0  0  0  0  0  0  0  0
  127.8740  124.8780   60.8410 C   0  0  0  0  0  0  0  0  0  0  0  0
  127.4590  123.9080   61.4730 O   0  0  0  0  0  0  0  0  0  0  0  0
  127.0240  126.1600   60.7720 C   0  0  0  0  0  0  0  0  0  0  0  0
  127.5410  127.3930   61.5570 C   0  0  0  0  0  0  0  0  0  0  0  0
  126.5250  128.4610   62.0400 C   0  0  0  0  0  0  0  0  0  0  0  0
  128.7360  127.8280   64.0400 C   0  0  0  0  0  0  0  0  0  0  0  0
  129.4050  126.8150   64.7190 C   0  0  0  0  0  0  0  0  0  0  0  0
  129.3180  126.6730   66.0750 C   0  0  0  0  0  0  0  0  0  0  0  0
  130.0480  125.5930   66.4590 O   0  0  0  0  0  0  0  0  0  0  0  0
  130.7630  125.1910   65.3220 C   0  0  0  0  0  0  0  0  0  0  0  0
  130.1910  125.8310   64.2110 O   0  0  0  0  0  0  0  0  0  0  0  0
  129.4716  127.5347   70.0498 H   0  0  0  0  0  0  0  0  0  0  0  0
  130.4906  126.8653   68.7306 H   0  0  0  0  0  0  0  0  0  0  0  0
  130.0514  128.6071   68.7306 H   0  0  0  0  0  0  0  0  0  0  0  0
  127.2375  129.2582   66.7743 H   0  0  0  0  0  0  0  0  0  0  0  0
  126.1925  129.8713   64.5053 H   0  0  0  0  0  0  0  0  0  0  0  0
  127.7905  130.7745   64.3468 H   0  0  0  0  0  0  0  0  0  0  0  0
  128.1130  129.7240   62.2690 H   0  0  0  0  0  0  0  0  0  0  0  0
  125.5216  130.9958   61.7904 H   0  0  0  0  0  0  0  0  0  0  0  0
  126.9067  131.9388   62.4408 H   0  0  0  0  0  0  0  0  0  0  0  0
  127.7971  130.2243   60.2552 H   0  0  0  0  0  0  0  0  0  0  0  0
  126.3764  131.2688   59.7518 H   0  0  0  0  0  0  0  0  0  0  0  0
  128.8398  132.1210   59.4017 H   0  0  0  0  0  0  0  0  0  0  0  0
  127.5267  133.2225   59.9969 H   0  0  0  0  0  0  0  0  0  0  0  0
  128.4920  133.3140   62.0500 H   0  0  0  0  0  0  0  0  0  0  0  0
  130.6222  131.3253   59.8802 H   0  0  0  0  0  0  0  0  0  0  0  0
  132.4285  132.7578   61.0520 H   0  0  0  0  0  0  0  0  0  0  0  0
  134.2596  130.9713   59.9233 H   0  0  0  0  0  0  0  0  0  0  0  0
  132.7199  130.6054   59.0736 H   0  0  0  0  0  0  0  0  0  0  0  0
  133.3697  132.2800   59.0736 H   0  0  0  0  0  0  0  0  0  0  0  0
  132.7606  131.4498   63.0980 H   0  0  0  0  0  0  0  0  0  0  0  0
  133.2015  129.9949   62.1412 H   0  0  0  0  0  0  0  0  0  0  0  0
  134.2808  131.4308   62.1412 H   0  0  0  0  0  0  0  0  0  0  0  0
  130.8910  129.7520   62.3740 H   0  0  0  0  0  0  0  0  0  0  0  0
  130.0663  129.9178   58.9858 H   0  0  0  0  0  0  0  0  0  0  0  0
  132.4903  128.4499   59.0025 H   0  0  0  0  0  0  0  0  0  0  0  0
  131.5236  127.7232   57.6744 H   0  0  0  0  0  0  0  0  0  0  0  0
  131.8669  129.4864   57.6744 H   0  0  0  0  0  0  0  0  0  0  0  0
  128.6210  128.6160   58.0040 H   0  0  0  0  0  0  0  0  0  0  0  0
  130.3715  126.3955   60.1842 H   0  0  0  0  0  0  0  0  0  0  0  0
  130.6477  124.1655   58.2246 H   0  0  0  0  0  0  0  0  0  0  0  0
  131.2692  125.8478   57.8328 H   0  0  0  0  0  0  0  0  0  0  0  0
  131.2817  124.7852   61.3491 H   0  0  0  0  0  0  0  0  0  0  0  0
  133.3506  124.1912   62.5917 H   0  0  0  0  0  0  0  0  0  0  0  0
  135.4982  123.8983   61.3804 H   0  0  0  0  0  0  0  0  0  0  0  0
  135.5963  124.1813   58.9138 H   0  0  0  0  0  0  0  0  0  0  0  0
  133.5453  124.7719   57.6393 H   0  0  0  0  0  0  0  0  0  0  0  0
  129.5340  123.9090   60.2930 H   0  0  0  0  0  0  0  0  0  0  0  0
  126.9464  126.4496   59.7137 H   0  0  0  0  0  0  0  0  0  0  0  0
  126.0706  125.8957   61.2528 H   0  0  0  0  0  0  0  0  0  0  0  0
  128.0568  127.0122   62.4508 H   0  0  0  0  0  0  0  0  0  0  0  0
  128.1585  127.9314   60.8229 H   0  0  0  0  0  0  0  0  0  0  0  0
  125.8685  128.7126   61.1940 H   0  0  0  0  0  0  0  0  0  0  0  0
  125.9937  128.0118   62.8920 H   0  0  0  0  0  0  0  0  0  0  0  0
  128.8074  127.9234   62.9465 H   0  0  0  0  0  0  0  0  0  0  0  0
  131.8189  125.4833   65.4204 H   0  0  0  0  0  0  0  0  0  0  0  0
  130.7170  124.0983   65.2037 H   0  0  0  0  0  0  0  0  0  0  0  0
  1  2  1  0
  2  3  1  0
  3  4  2  0
  4  5  1  0
  5  6  1  0
  6  7  1  0
  7  8  1  0
  8  9  1  0
  9 10  1  0
 10 11  1  0
 11 12  1  0
 12 13  2  0
 12 14  1  0
 14 15  1  0
 15 16  1  0
 15 17  1  0
 14 18  1  0
 18 19  1  0
 19 20  2  0
 19 21  1  0
 21 22  1  0
 21 23  1  0
 23 24  1  0
 24 25  2  0
 24 26  1  0
 26 27  1  0
 27 28  1  0
 28 29  2  0
 29 30  1  0
 30 31  2  0
 31 32  1  0
 32 33  2  0
 26 34  1  0
 34 35  1  0
 35 36  2  0
 35 37  1  0
 37 38  1  0
 38 39  1  0
  5 40  2  0
 40 41  1  0
 41 42  2  0
 42 43  1  0
 43 44  1  0
 44 45  1  0
 42  3  1  0
 39  7  1  0
 45 41  1  0
 33 28  1  0
  1 46  1  0
  1 47  1  0
  1 48  1  0
  4 49  1  0
  6 50  1  0
  6 51  1  0
  7 52  1  6
  8 53  1  0
  8 54  1  0
  9 55  1  0
  9 56  1  0
 10 57  1  0
 10 58  1  0
 11 59  1  0
 14 60  1  6
 15 61  1  0
 16 62  1  0
 16 63  1  0
 16 64  1  0
 17 65  1  0
 17 66  1  0
 17 67  1  0
 18 68  1  0
 21 69  1  1
 22 70  1  0
 22 71  1  0
 22 72  1  0
 23 73  1  0
 26 74  1  1
 27 75  1  0
 27 76  1  0
 29 77  1  0
 30 78  1  0
 31 79  1  0
 32 80  1  0
 33 81  1  0
 34 82  1  0
 37 83  1  0
 37 84  1  0
 38 85  1  0
 38 86  1  0
 39 87  1  0
 39 88  1  0
 40 89  1  0
 44 90  1  0
 44 91  1  0
M  CHG  1   7   1
M  END
>  <Binding energies>  (1) 
[-4.31]

>  <Ligand effiencies>  (1) 
[-0.08288461538461538]

>  <Interactions>  (1) 
["V-A:ILE:369:CG2:3237, V-A:ASP:366:CA:3210, V-A:ILE:369:CB:3236, H-A:ALA:541:N:4891, V-B:GLU:543:CB:9878, V-A:PRO:540:C:4881, V-B:TYR:539:CE2:9848, V-B:GLU:543:CG:9879, V-A:ASP:366:CG:3213, V-A:ASN:362:CB:3176, V-A:LEU:363:CD1:3189, V-B:TYR:539:CZ:9849, V-A:GLU:543:CD:4908, V-A:HIS:456:CE1:4070, V-A:ILE:369:CD1:3239, V-A:ASP:366:C:3208, V-B:GLU:543:CD:9880, V-A:ILE:369:CG1:3238, V-A:ASP:366:CB:3212, H-A:GLU:543:OE1:4909, V-A:GLU:543:CB:4906, H-A:TYR:539:O:4868, V-A:PRO:540:CB:4885, V-A:PRO:540:CA:4883, V-A:LEU:363:CA:3185, H-A:ASP:366:OD2:3215"]

$$$$
ZINC1704322855
     RDKit          3D

100104  0  0  0  0  0  0  0  0999 V2000
  133.3910  131.6810   60.0190 C   0  0  0  0  0  0  0  0  0  0  0  0
  132.2130  131.2200   59.1340 C   0  0  0  0  0  0  0  0  0  0  0  0
  132.6790  131.0410   57.6740 C   0  0  0  0  0  0  0  0  0  0  0  0
  130.9670  132.1470   59.2880 C   0  0  2  0  0  0  0  0  0  0  0  0
  130.1070  131.8200   60.5470 C   0  0  0  0  0  0  0  0  0  0  0  0
  128.7550  132.5780   60.5730 C   0  0  0  0  0  0  0  0  0  0  0  0
  128.2730  133.1040   61.9540 C   0  0  1  0  0  0  0  0  0  0  0  0
  127.0190  133.9870   61.7320 C   0  0  0  0  0  0  0  0  0  0  0  0
  128.0330  131.9310   62.9590 C   0  0  0  0  0  0  0  0  0  0  0  0
  126.6270  131.2760   62.9890 C   0  0  0  0  0  0  0  0  0  0  0  0
  125.6930  131.7760   62.3670 O   0  0  0  0  0  0  0  0  0  0  0  0
  126.4270  130.1550   63.7100 N   0  0  0  0  0  0  0  0  0  0  0  0
  127.3520  129.5140   64.6520 C   0  0  1  0  0  0  0  0  0  0  0  0
  126.5760  129.2660   65.9730 C   0  0  0  0  0  0  0  0  0  0  0  0
  127.2830  128.5070   67.0880 C   0  0  0  0  0  0  0  0  0  0  0  0
  128.6760  128.6470   67.2640 C   0  0  0  0  0  0  0  0  0  0  0  0
  129.3320  127.9520   68.2980 C   0  0  0  0  0  0  0  0  0  0  0  0
  128.6000  127.1090   69.1570 C   0  0  0  0  0  0  0  0  0  0  0  0
  129.2360  126.4370   70.1580 O   0  0  0  0  0  0  0  0  0  0  0  0
  127.2090  126.9610   68.9790 C   0  0  0  0  0  0  0  0  0  0  0  0
  126.5540  127.6560   67.9460 C   0  0  0  0  0  0  0  0  0  0  0  0
  127.9300  128.2250   64.0130 C   0  0  0  0  0  0  0  0  0  0  0  0
  128.9370  127.7240   64.5110 O   0  0  0  0  0  0  0  0  0  0  0  0
  127.3550  127.6750   62.9230 N   0  0  0  0  0  0  0  0  0  0  0  0
  126.1310  128.0800   62.2330 C   0  0  0  0  0  0  0  0  0  0  0  0
  126.3710  128.6670   60.8200 C   0  0  0  0  0  0  0  0  0  0  0  0
  125.6230  129.9860   60.5080 C   0  0  0  0  0  0  0  0  0  0  0  0
  126.1720  130.7070   59.2620 C   0  0  0  0  0  0  0  0  0  0  0  0
  125.7330  131.8310   59.0090 O   0  0  0  0  0  0  0  0  0  0  0  0
  127.1160  130.1100   58.4860 N   0  0  0  0  0  0  0  0  0  0  0  0
  126.8590  128.9740   57.5890 C   0  0  0  0  0  0  0  0  0  0  0  0
  128.2440  128.3330   57.3460 C   0  0  2  0  0  0  0  0  0  0  0  0
  128.2700  126.9040   57.6630 N   0  0  0  0  0  0  0  0  0  0  0  0
  127.1900  126.1380   57.9060 C   0  0  0  0  0  0  0  0  0  0  0  0
  126.0370  126.5720   57.9030 O   0  0  0  0  0  0  0  0  0  0  0  0
  127.4810  124.7340   58.1220 C   0  0  0  0  0  0  0  0  0  0  0  0
  127.2940  123.7440   57.1510 C   0  0  0  0  0  0  0  0  0  0  0  0
  127.6610  122.1520   57.7060 S   0  0  0  0  0  0  0  0  0  0  0  0
  128.0590  122.7710   59.2720 C   0  0  0  0  0  0  0  0  0  0  0  0
  127.9000  124.1670   59.3550 C   0  0  0  0  0  0  0  0  0  0  0  0
  128.2410  124.9340   60.6390 C   0  0  0  0  0  0  0  0  0  0  0  0
  129.1000  124.0680   61.5850 C   0  0  0  0  0  0  0  0  0  0  0  0
  128.5460  122.6400   61.7250 C   0  0  0  0  0  0  0  0  0  0  0  0
  128.5830  121.8740   60.3860 C   0  0  0  0  0  0  0  0  0  0  0  0
  129.2170  129.0810   58.2620 C   0  0  0  0  0  0  0  0  0  0  0  0
  128.5490  130.4050   58.6300 C   0  0  1  0  0  0  0  0  0  0  0  0
  129.0320  131.5830   57.7490 C   0  0  0  0  0  0  0  0  0  0  0  0
  128.4060  131.8780   56.7310 O   0  0  0  0  0  0  0  0  0  0  0  0
  130.1920  132.2080   58.0380 N   0  0  0  0  0  0  0  0  0  0  0  0
  133.1172  131.5738   61.0790 H   0  0  0  0  0  0  0  0  0  0  0  0
  134.2749  131.0624   59.8043 H   0  0  0  0  0  0  0  0  0  0  0  0
  133.6203  132.7352   59.8043 H   0  0  0  0  0  0  0  0  0  0  0  0
  131.8742  130.2332   59.4825 H   0  0  0  0  0  0  0  0  0  0  0  0
  133.7058  130.6466   57.6626 H   0  0  0  0  0  0  0  0  0  0  0  0
  132.0097  130.3360   57.1593 H   0  0  0  0  0  0  0  0  0  0  0  0
  132.6538  132.0128   57.1593 H   0  0  0  0  0  0  0  0  0  0  0  0
  131.3403  133.1646   59.4755 H   0  0  0  0  0  0  0  0  0  0  0  0
  129.9028  130.7392   60.5605 H   0  0  0  0  0  0  0  0  0  0  0  0
  130.6806  132.1416   61.4288 H   0  0  0  0  0  0  0  0  0  0  0  0
  128.8458  133.4437   59.9004 H   0  0  0  0  0  0  0  0  0  0  0  0
  128.0026  131.8352   60.2693 H   0  0  0  0  0  0  0  0  0  0  0  0
  129.0533  133.7245   62.4188 H   0  0  0  0  0  0  0  0  0  0  0  0
  126.6008  134.2815   62.7059 H   0  0  0  0  0  0  0  0  0  0  0  0
  127.3001  134.8875   61.1663 H   0  0  0  0  0  0  0  0  0  0  0  0
  126.2659  133.4188   61.1663 H   0  0  0  0  0  0  0  0  0  0  0  0
  128.7578  131.1396   62.7176 H   0  0  0  0  0  0  0  0  0  0  0  0
  128.1435  132.3918   63.9517 H   0  0  0  0  0  0  0  0  0  0  0  0
  125.5130  129.7280   63.6730 H   0  0  0  0  0  0  0  0  0  0  0  0
  128.2196  130.1490   64.8843 H   0  0  0  0  0  0  0  0  0  0  0  0
  126.2935  130.2499   66.3756 H   0  0  0  0  0  0  0  0  0  0  0  0
  125.7419  128.6107   65.6817 H   0  0  0  0  0  0  0  0  0  0  0  0
  129.2509  129.3008   66.5917 H   0  0  0  0  0  0  0  0  0  0  0  0
  130.4173  128.0674   68.4352 H   0  0  0  0  0  0  0  0  0  0  0  0
  129.0980  125.4870   70.1230 H   0  0  0  0  0  0  0  0  0  0  0  0
  126.6360  126.3021   69.6479 H   0  0  0  0  0  0  0  0  0  0  0  0
  125.4695  127.5357   67.8065 H   0  0  0  0  0  0  0  0  0  0  0  0
  127.7950  126.8460   62.5510 H   0  0  0  0  0  0  0  0  0  0  0  0
  125.4805  127.1983   62.1357 H   0  0  0  0  0  0  0  0  0  0  0  0
  125.6739  128.8781   62.8365 H   0  0  0  0  0  0  0  0  0  0  0  0
  127.4492  128.8552   60.7103 H   0  0  0  0  0  0  0  0  0  0  0  0
  125.9756  127.9223   60.1135 H   0  0  0  0  0  0  0  0  0  0  0  0
  124.5605  129.7557   60.3404 H   0  0  0  0  0  0  0  0  0  0  0  0
  125.7660  130.6575   61.3674 H   0  0  0  0  0  0  0  0  0  0  0  0
  126.1776  128.2530   58.0642 H   0  0  0  0  0  0  0  0  0  0  0  0
  126.3800  129.2896   56.6504 H   0  0  0  0  0  0  0  0  0  0  0  0
  128.5102  128.4128   56.2817 H   0  0  0  0  0  0  0  0  0  0  0  0
  129.1760  126.5180   57.8870 H   0  0  0  0  0  0  0  0  0  0  0  0
  126.9459  123.9602   56.1302 H   0  0  0  0  0  0  0  0  0  0  0  0
  128.7998  125.8446   60.3772 H   0  0  0  0  0  0  0  0  0  0  0  0
  127.3039  125.1935   61.1533 H   0  0  0  0  0  0  0  0  0  0  0  0
  130.1233  124.0138   61.1850 H   0  0  0  0  0  0  0  0  0  0  0  0
  129.0848  124.5363   62.5802 H   0  0  0  0  0  0  0  0  0  0  0  0
  129.1518  122.0945   62.4635 H   0  0  0  0  0  0  0  0  0  0  0  0
  127.4968  122.7117   62.0475 H   0  0  0  0  0  0  0  0  0  0  0  0
  129.6184  121.5779   60.1617 H   0  0  0  0  0  0  0  0  0  0  0  0
  127.9522  120.9759   60.4603 H   0  0  0  0  0  0  0  0  0  0  0  0
  129.4125  128.4906   59.1693 H   0  0  0  0  0  0  0  0  0  0  0  0
  130.1801  129.2517   57.7588 H   0  0  0  0  0  0  0  0  0  0  0  0
  128.8011  130.7473   59.6445 H   0  0  0  0  0  0  0  0  0  0  0  0
  130.4910  132.9220   57.3910 H   0  0  0  0  0  0  0  0  0  0  0  0
  1  2  1  0
  2  3  1  0
  2  4  1  0
  4  5  1  0
  5  6  1  0
  6  7  1  0
  7  8  1  0
  7  9  1  0
  9 10  1  0
 10 11  2  0
 10 12  1  0
 12 13  1  0
 13 14  1  0
 14 15  1  0
 15 16  2  0
 16 17  1  0
 17 18  2  0
 18 19  1  0
 18 20  1  0
 20 21  2  0
 13 22  1  0
 22 23  2  0
 22 24  1  0
 24 25  1  0
 25 26  1  0
 26 27  1  0
 27 28  1  0
 28 29  2  0
 28 30  1  0
 30 31  1  0
 31 32  1  0
 32 33  1  0
 33 34  1  0
 34 35  2  0
 34 36  1  0
 36 37  2  0
 37 38  1  0
 38 39  1  0
 39 40  2  0
 40 41  1  0
 41 42  1  0
 42 43  1  0
 43 44  1  0
 32 45  1  0
 45 46  1  0
 46 47  1  0
 47 48  2  0
 47 49  1  0
 49  4  1  0
 21 15  1  0
 46 30  1  0
 40 36  1  0
 44 39  1  0
  1 50  1  0
  1 51  1  0
  1 52  1  0
  2 53  1  0
  3 54  1  0
  3 55  1  0
  3 56  1  0
  4 57  1  1
  5 58  1  0
  5 59  1  0
  6 60  1  0
  6 61  1  0
  7 62  1  1
  8 63  1  0
  8 64  1  0
  8 65  1  0
  9 66  1  0
  9 67  1  0
 12 68  1  0
 13 69  1  1
 14 70  1  0
 14 71  1  0
 16 72  1  0
 17 73  1  0
 19 74  1  0
 20 75  1  0
 21 76  1  0
 24 77  1  0
 25 78  1  0
 25 79  1  0
 26 80  1  0
 26 81  1  0
 27 82  1  0
 27 83  1  0
 31 84  1  0
 31 85  1  0
 32 86  1  6
 33 87  1  0
 37 88  1  0
 41 89  1  0
 41 90  1  0
 42 91  1  0
 42 92  1  0
 43 93  1  0
 43 94  1  0
 44 95  1  0
 44 96  1  0
 45 97  1  0
 45 98  1  0
 46 99  1  1
 49100  1  0
M  END
>  <Binding energies>  (1) 
[-5.28]

>  <Ligand effiencies>  (1) 
[-0.09428571428571429]

>  <Interactions>  (1) 
["V-B:TYR:539:CA:9841, V-B:PRO:540:CA:9855, V-B:GLU:543:C:9874, H-B:GLU:543:O:9875, V-B:GLU:543:CB:9878, V-B:ASP:366:CG:8184, V-B:ALA:541:CB:9864, V-B:TYR:539:CE2:9848, V-B:LEU:475:CD2:9230, V-B:TYR:539:C:9839, V-A:ASP:366:CG:3213, V-A:LEU:363:CB:3187, V-A:LEU:363:CD1:3189, V-B:TYR:539:CZ:9849, H-B:GLU:543:OE1:9881, V-A:TYR:531:CE2:4793, V-A:ALA:541:CB:4892, V-B:ARG:545:CG:9894, V-A:GLU:543:CD:4908, H-B:TYR:484:OH:9319, V-B:HIS:456:CE1:9041, V-B:GLU:543:CA:9876, V-B:PRO:540:N:9856, V-B:TYR:484:CZ:9318, V-B:TYR:539:CD2:9846, V-B:PRO:540:CD:9859, V-A:GLU:543:CG:4907, V-B:GLU:543:CD:9880, H-B:TYR:531:OH:9767, V-B:TYR:539:CG:9844, V-A:GLU:543:CB:4906, V-B:TYR:539:CD1:9845, V-A:PRO:540:N:4884, H-B:GLU:543:OE2:9882, V-A:PRO:540:CA:4883, V-A:PRO:540:CB:4885, V-A:LEU:363:CA:3185, V-B:PRO:540:C:9853, V-B:TYR:539:CE1:9847, H-A:HIS:456:NE2:4071"]

$$$$
ZINC1704322988
     RDKit          3D

 77 82  0  0  0  0  0  0  0  0999 V2000
  127.9920  132.4470   59.6790 C   0  0  0  0  0  0  0  0  0  0  0  0
  128.7230  131.6680   60.7900 C   0  0  0  0  0  0  0  0  0  0  0  0
  129.4170  132.5750   61.8240 C   0  0  0  0  0  0  0  0  0  0  0  0
  129.6800  130.7100   60.2110 N   0  0  0  0  0  0  0  0  0  0  0  0
  129.7700  129.3520   60.4880 C   0  0  0  0  0  0  0  0  0  0  0  0
  128.8960  128.6210   61.4930 C   0  0  0  0  0  0  0  0  0  0  0  0
  127.6800  128.0060   60.7640 N   0  0  2  0  0  0  0  0  0  0  0  0
  127.1830  126.6600   61.3290 C   0  0  0  0  0  0  0  0  0  0  0  0
  127.6230  125.5640   60.3330 C   0  0  2  0  0  0  0  0  0  0  0  0
  128.3980  124.3350   60.9080 C   0  0  0  0  0  0  0  0  0  0  0  0
  127.7100  123.4540   61.9780 C   0  0  0  0  0  0  0  0  0  0  0  0
  126.5170  123.1780   61.8910 O   0  0  0  0  0  0  0  0  0  0  0  0
  128.4340  122.9670   63.0010 N   0  0  0  0  0  0  0  0  0  0  0  0
  129.8660  123.1480   63.2270 C   0  0  0  0  0  0  0  0  0  0  0  0
  130.1920  124.5930   63.6460 C   0  0  0  0  0  0  0  0  0  0  0  0
  131.3660  124.6960   64.5330 N   0  0  0  0  0  0  0  0  0  0  0  0
  131.0170  124.7890   65.9540 C   0  0  0  0  0  0  0  0  0  0  0  0
  132.6630  124.5630   64.1310 C   0  0  0  0  0  0  0  0  0  0  0  0
  133.6200  124.8660   64.8460 O   0  0  0  0  0  0  0  0  0  0  0  0
  132.9050  124.0240   62.8040 C   0  0  0  0  0  0  0  0  0  0  0  0
  133.3080  122.7260   62.7160 C   0  0  0  0  0  0  0  0  0  0  0  0
  133.6280  122.1400   61.4310 C   0  0  0  0  0  0  0  0  0  0  0  0
  133.5360  122.9500   60.3630 C   0  0  0  0  0  0  0  0  0  0  0  0
  133.1530  124.2730   60.4010 N   0  0  0  0  0  0  0  0  0  0  0  0
  132.7880  124.8730   61.5970 C   0  0  0  0  0  0  0  0  0  0  0  0
  132.3960  126.0430   61.6590 O   0  0  0  0  0  0  0  0  0  0  0  0
  133.1110  125.0970   59.1790 C   0  0  0  0  0  0  0  0  0  0  0  0
  131.6970  125.4920   58.7920 C   0  0  0  0  0  0  0  0  0  0  0  0
  130.5590  125.5920   59.5770 C   0  0  0  0  0  0  0  0  0  0  0  0
  129.5600  125.9930   58.7240 N   0  0  0  0  0  0  0  0  0  0  0  0
  130.0470  126.1240   57.4850 N   0  0  0  0  0  0  0  0  0  0  0  0
  131.3900  125.8040   57.5440 N   0  0  0  0  0  0  0  0  0  0  0  0
  128.1560  126.2760   59.0620 C   0  0  2  0  0  0  0  0  0  0  0  0
  127.8360  127.7740   59.2460 C   0  0  0  0  0  0  0  0  0  0  0  0
  130.7070  128.7400   59.8090 N   0  0  0  0  0  0  0  0  0  0  0  0
  131.2780  129.7120   59.0400 C   0  0  0  0  0  0  0  0  0  0  0  0
  132.3310  129.5970   58.1220 C   0  0  0  0  0  0  0  0  0  0  0  0
  132.7430  130.7450   57.4460 C   0  0  0  0  0  0  0  0  0  0  0  0
  132.1290  131.9760   57.6730 C   0  0  0  0  0  0  0  0  0  0  0  0
  131.0780  132.1230   58.5820 C   0  0  0  0  0  0  0  0  0  0  0  0
  130.6610  130.9710   59.2620 C   0  0  0  0  0  0  0  0  0  0  0  0
  127.3065  133.1775   60.1335 H   0  0  0  0  0  0  0  0  0  0  0  0
  128.7288  132.9743   59.0553 H   0  0  0  0  0  0  0  0  0  0  0  0
  127.4189  131.7452   59.0553 H   0  0  0  0  0  0  0  0  0  0  0  0
  127.9457  131.1171   61.3398 H   0  0  0  0  0  0  0  0  0  0  0  0
  129.1592  132.2381   62.8389 H   0  0  0  0  0  0  0  0  0  0  0  0
  130.5070  132.5215   61.6857 H   0  0  0  0  0  0  0  0  0  0  0  0
  129.0804  133.6131   61.6857 H   0  0  0  0  0  0  0  0  0  0  0  0
  129.4790  127.8213   61.9732 H   0  0  0  0  0  0  0  0  0  0  0  0
  128.5459  129.3287   62.2589 H   0  0  0  0  0  0  0  0  0  0  0  0
  126.9310  128.6740   60.8840 H   0  0  0  0  0  0  0  0  0  0  0  0
  127.6315  126.4757   62.3164 H   0  0  0  0  0  0  0  0  0  0  0  0
  126.0898  126.6644   61.4512 H   0  0  0  0  0  0  0  0  0  0  0  0
  126.7521  124.9645   60.0295 H   0  0  0  0  0  0  0  0  0  0  0  0
  128.6420  123.6803   60.0584 H   0  0  0  0  0  0  0  0  0  0  0  0
  129.2501  124.7831   61.4402 H   0  0  0  0  0  0  0  0  0  0  0  0
  127.9530  122.3930   63.6790 H   0  0  0  0  0  0  0  0  0  0  0  0
  130.1918  122.4626   64.0233 H   0  0  0  0  0  0  0  0  0  0  0  0
  130.3940  122.9336   62.2861 H   0  0  0  0  0  0  0  0  0  0  0  0
  130.3879  125.1832   62.7386 H   0  0  0  0  0  0  0  0  0  0  0  0
  129.3259  124.9706   64.2092 H   0  0  0  0  0  0  0  0  0  0  0  0
  131.9010  124.5534   66.5648 H   0  0  0  0  0  0  0  0  0  0  0  0
  130.6754  125.8095   66.1816 H   0  0  0  0  0  0  0  0  0  0  0  0
  130.2128  124.0738   66.1816 H   0  0  0  0  0  0  0  0  0  0  0  0
  133.3911  122.1177   63.6287 H   0  0  0  0  0  0  0  0  0  0  0  0
  133.9306  121.0869   61.3343 H   0  0  0  0  0  0  0  0  0  0  0  0
  133.7862  122.5232   59.3806 H   0  0  0  0  0  0  0  0  0  0  0  0
  133.6984  126.0112   59.3497 H   0  0  0  0  0  0  0  0  0  0  0  0
  133.5270  124.4965   58.3566 H   0  0  0  0  0  0  0  0  0  0  0  0
  130.4739  125.3924   60.6554 H   0  0  0  0  0  0  0  0  0  0  0  0
  127.6498  125.8745   58.1717 H   0  0  0  0  0  0  0  0  0  0  0  0
  128.6573  128.3894   58.8500 H   0  0  0  0  0  0  0  0  0  0  0  0
  126.9204  128.0544   58.7047 H   0  0  0  0  0  0  0  0  0  0  0  0
  132.8188  128.6281   57.9399 H   0  0  0  0  0  0  0  0  0  0  0  0
  133.5672  130.6781   56.7206 H   0  0  0  0  0  0  0  0  0  0  0  0
  132.4827  132.8584   57.1196 H   0  0  0  0  0  0  0  0  0  0  0  0
  130.5999  133.0983   58.7558 H   0  0  0  0  0  0  0  0  0  0  0  0
  1  2  1  0
  2  3  1  0
  2  4  1  0
  4  5  1  0
  5  6  1  0
  6  7  1  0
  7  8  1  0
  8  9  1  0
  9 10  1  0
 10 11  1  0
 11 12  2  0
 11 13  1  0
 13 14  1  0
 14 15  1  0
 15 16  1  0
 16 17  1  0
 16 18  1  0
 18 19  2  0
 18 20  1  0
 20 21  2  0
 21 22  1  0
 22 23  2  0
 23 24  1  0
 24 25  1  0
 25 26  2  0
 24 27  1  0
 27 28  1  0
 28 29  2  0
 29 30  1  0
 30 31  1  0
 31 32  2  0
 30 33  1  0
 33 34  1  0
  5 35  2  0
 35 36  1  0
 36 37  2  0
 37 38  1  0
 38 39  2  0
 39 40  1  0
 40 41  2  0
 41  4  1  0
 34  7  1  0
 41 36  1  0
 33  9  1  0
 25 20  1  0
 32 28  1  0
  1 42  1  0
  1 43  1  0
  1 44  1  0
  2 45  1  0
  3 46  1  0
  3 47  1  0
  3 48  1  0
  6 49  1  0
  6 50  1  0
  7 51  1  6
  8 52  1  0
  8 53  1  0
  9 54  1  6
 10 55  1  0
 10 56  1  0
 13 57  1  0
 14 58  1  0
 14 59  1  0
 15 60  1  0
 15 61  1  0
 17 62  1  0
 17 63  1  0
 17 64  1  0
 21 65  1  0
 22 66  1  0
 23 67  1  0
 27 68  1  0
 27 69  1  0
 29 70  1  0
 33 71  1  6
 34 72  1  0
 34 73  1  0
 37 74  1  0
 38 75  1  0
 39 76  1  0
 40 77  1  0
M  CHG  1   7   1
M  END
>  <Binding energies>  (1) 
[-6.89]

>  <Ligand effiencies>  (1) 
[-0.15311111111111111]

>  <Interactions>  (1) 
["V-A:ILE:369:CG2:3237, V-A:ASP:366:CA:3210, V-A:GLY:454:CA:4049, V-A:ILE:369:CB:3236, V-A:PRO:540:C:4881, V-B:ALA:541:CB:9864, H-A:TYR:531:OH:4795, V-B:TYR:539:CE2:9848, V-A:TYR:484:CE2:4346, H-B:ALA:541:O:9861, V-B:GLU:543:CG:9879, V-A:ASP:366:CG:3213, V-A:LEU:363:CD1:3189, V-A:TYR:539:CD1:4873, H-B:GLU:543:OE1:9881, V-A:TYR:531:CE2:4793, H-B:TYR:539:OH:9850, V-A:ALA:541:CB:4892, H-B:ALA:541:N:9863, V-A:TYR:484:CZ:4347, H-A:GLY:454:N:4050, V-A:ILE:369:CD1:3239, V-A:TYR:531:CZ:4794, V-B:GLU:543:CD:9880, V-A:ASP:366:CB:3212, V-A:LEU:475:CD2:4259, H-A:ARG:545:NH2:4928, V-A:ARG:545:CZ:4926, V-A:PRO:540:N:4884, V-A:PRO:540:CB:4885, V-A:PRO:540:CA:4883, H-A:ARG:545:NE:4924, V-A:TYR:539:CE1:4875, H-A:TYR:484:OH:4348"]

$$$$
ZINC1704323479
     RDKit          3D

 99103  0  0  0  0  0  0  0  0999 V2000
  127.3810  127.4750   68.3120 C   0  0  0  0  0  0  0  0  0  0  0  0
  128.7890  127.0540   67.9650 C   0  0  0  0  0  0  0  0  0  0  0  0
  129.9990  127.5310   68.4950 C   0  0  0  0  0  0  0  0  0  0  0  0
  131.0620  126.9150   68.0320 N   0  0  0  0  0  0  0  0  0  0  0  0
  130.5710  125.9890   67.2000 N   0  0  0  0  0  0  0  0  0  0  0  0
  131.4760  125.0650   66.5230 C   0  0  0  0  0  0  0  0  0  0  0  0
  132.3930  125.8130   65.5230 C   0  0  0  0  0  0  0  0  0  0  0  0
  132.6070  125.0740   64.1810 C   0  0  0  0  0  0  0  0  0  0  0  0
  133.1060  123.9480   64.2080 O   0  0  0  0  0  0  0  0  0  0  0  0
  132.2350  125.6800   63.0150 N   0  0  0  0  0  0  0  0  0  0  0  0
  132.9340  125.4270   61.7370 C   0  0  0  0  0  0  0  0  0  0  0  0
  133.9020  124.2240   61.7760 C   0  0  0  0  0  0  0  0  0  0  0  0
  135.0390  124.3530   62.2300 O   0  0  0  0  0  0  0  0  0  0  0  0
  133.4880  123.0130   61.3570 N   0  0  0  0  0  0  0  0  0  0  0  0
  132.2180  122.5720   60.7540 C   0  0  1  0  0  0  0  0  0  0  0  0
  131.2960  121.7430   61.6940 C   0  0  0  0  0  0  0  0  0  0  0  0
  130.5680  120.5370   61.0400 C   0  0  0  0  0  0  0  0  0  0  0  0
  129.5740  119.8540   62.0040 C   0  0  0  0  0  0  0  0  0  0  0  0
  131.5700  119.5000   60.4960 C   0  0  0  0  0  0  0  0  0  0  0  0
  131.5160  123.6890   59.9850 C   0  0  0  0  0  0  0  0  0  0  0  0
  132.1360  124.5790   59.2420 N   0  0  0  0  0  0  0  0  0  0  0  0
  131.3090  125.4030   58.6220 C   0  0  0  0  0  0  0  0  0  0  0  0
  129.9550  125.2040   58.8800 C   0  0  0  0  0  0  0  0  0  0  0  0
  129.7810  123.8580   59.9560 S   0  0  0  0  0  0  0  0  0  0  0  0
  131.8600  126.3520   57.6970 C   0  0  0  0  0  0  0  0  0  0  0  0
  132.4040  125.9740   56.6610 O   0  0  0  0  0  0  0  0  0  0  0  0
  131.7550  127.6620   58.0150 N   0  0  0  0  0  0  0  0  0  0  0  0
  131.0800  128.2820   59.1650 C   0  0  1  0  0  0  0  0  0  0  0  0
  131.6960  129.6610   59.5010 C   0  0  0  0  0  0  0  0  0  0  0  0
  131.1880  130.7910   58.6100 C   0  0  0  0  0  0  0  0  0  0  0  0
  130.3200  131.7520   59.1370 C   0  0  0  0  0  0  0  0  0  0  0  0
  129.8410  132.7750   58.3240 C   0  0  0  0  0  0  0  0  0  0  0  0
  130.2310  132.8360   56.9870 C   0  0  0  0  0  0  0  0  0  0  0  0
  131.0970  131.8820   56.4570 C   0  0  0  0  0  0  0  0  0  0  0  0
  131.5770  130.8590   57.2700 C   0  0  0  0  0  0  0  0  0  0  0  0
  129.5570  128.3340   58.9900 C   0  0  0  0  0  0  0  0  0  0  0  0
  128.9720  129.0020   58.0240 N   0  0  0  0  0  0  0  0  0  0  0  0
  127.6880  128.7560   58.2160 C   0  0  0  0  0  0  0  0  0  0  0  0
  126.6220  129.3410   57.3180 C   0  0  0  0  0  0  0  0  0  0  0  0
  127.3870  127.9910   59.2410 N   0  0  0  0  0  0  0  0  0  0  0  0
  128.5900  127.7140   59.7570 N   0  0  0  0  0  0  0  0  0  0  0  0
  128.6830  126.7300   60.8420 C   0  0  0  0  0  0  0  0  0  0  0  0
  128.0950  127.1570   62.1920 C   0  0  0  0  0  0  0  0  0  0  0  0
  127.1760  127.9730   62.2040 O   0  0  0  0  0  0  0  0  0  0  0  0
  128.5850  126.6800   63.3510 N   0  0  0  0  0  0  0  0  0  0  0  0
  129.7260  125.7820   63.5740 C   0  0  1  0  0  0  0  0  0  0  0  0
  129.4940  124.3040   63.0830 C   0  0  0  0  0  0  0  0  0  0  0  0
  128.0930  123.9610   62.5240 C   0  0  0  0  0  0  0  0  0  0  0  0
  129.8940  123.2720   64.1570 C   0  0  0  0  0  0  0  0  0  0  0  0
  130.9760  126.4480   62.9320 C   0  0  0  0  0  0  0  0  0  0  0  0
  129.2020  126.0110   67.1510 C   0  0  0  0  0  0  0  0  0  0  0  0
  127.2674  127.5090   69.4056 H   0  0  0  0  0  0  0  0  0  0  0  0
  127.1822  128.4719   67.8916 H   0  0  0  0  0  0  0  0  0  0  0  0
  126.6676  126.7509   67.8916 H   0  0  0  0  0  0  0  0  0  0  0  0
  130.0513  128.3467   69.2312 H   0  0  0  0  0  0  0  0  0  0  0  0
  132.1008  124.5594   67.2740 H   0  0  0  0  0  0  0  0  0  0  0  0
  130.8739  124.3334   65.9643 H   0  0  0  0  0  0  0  0  0  0  0  0
  131.9419  126.7931   65.3086 H   0  0  0  0  0  0  0  0  0  0  0  0
  133.3810  125.8926   66.0001 H   0  0  0  0  0  0  0  0  0  0  0  0
  132.1777  125.2370   60.9611 H   0  0  0  0  0  0  0  0  0  0  0  0
  133.5434  126.3183   61.5265 H   0  0  0  0  0  0  0  0  0  0  0  0
  134.1610  122.2670   61.4650 H   0  0  0  0  0  0  0  0  0  0  0  0
  132.5019  121.8294   59.9938 H   0  0  0  0  0  0  0  0  0  0  0  0
  131.9144  121.3569   62.5177 H   0  0  0  0  0  0  0  0  0  0  0  0
  130.5009  122.4323   62.0143 H   0  0  0  0  0  0  0  0  0  0  0  0
  129.9909  120.9485   60.1988 H   0  0  0  0  0  0  0  0  0  0  0  0
  129.8716  120.0585   63.0430 H   0  0  0  0  0  0  0  0  0  0  0  0
  128.5625  120.2487   61.8279 H   0  0  0  0  0  0  0  0  0  0  0  0
  129.5797  118.7682   61.8279 H   0  0  0  0  0  0  0  0  0  0  0  0
  132.0627  118.9900   61.3369 H   0  0  0  0  0  0  0  0  0  0  0  0
  131.0353  118.7608   59.8814 H   0  0  0  0  0  0  0  0  0  0  0  0
  132.3271  120.0090   59.8814 H   0  0  0  0  0  0  0  0  0  0  0  0
  129.1304  125.8039   58.4676 H   0  0  0  0  0  0  0  0  0  0  0  0
  132.2220  128.3120   57.3980 H   0  0  0  0  0  0  0  0  0  0  0  0
  131.2544  127.6350   60.0373 H   0  0  0  0  0  0  0  0  0  0  0  0
  131.4523  129.9055   60.5454 H   0  0  0  0  0  0  0  0  0  0  0  0
  132.7799  129.5797   59.3321 H   0  0  0  0  0  0  0  0  0  0  0  0
  130.0160  131.6996   60.1929 H   0  0  0  0  0  0  0  0  0  0  0  0
  129.1573  133.5325   58.7348 H   0  0  0  0  0  0  0  0  0  0  0  0
  129.8516  133.6445   56.3448 H   0  0  0  0  0  0  0  0  0  0  0  0
  131.4001  131.9369   55.4010 H   0  0  0  0  0  0  0  0  0  0  0  0
  132.2626  130.1042   56.8573 H   0  0  0  0  0  0  0  0  0  0  0  0
  125.8233  129.7793   57.9344 H   0  0  0  0  0  0  0  0  0  0  0  0
  127.0656  130.1221   56.6830 H   0  0  0  0  0  0  0  0  0  0  0  0
  126.2014  128.5473   56.6830 H   0  0  0  0  0  0  0  0  0  0  0  0
  128.1548  125.8212   60.5177 H   0  0  0  0  0  0  0  0  0  0  0  0
  129.7591  126.5875   61.0202 H   0  0  0  0  0  0  0  0  0  0  0  0
  128.1310  126.9970   64.1960 H   0  0  0  0  0  0  0  0  0  0  0  0
  129.8745  125.6573   64.6568 H   0  0  0  0  0  0  0  0  0  0  0  0
  130.1647  124.2398   62.2135 H   0  0  0  0  0  0  0  0  0  0  0  0
  127.3969  123.7906   63.3585 H   0  0  0  0  0  0  0  0  0  0  0  0
  127.7293  124.7966   61.9080 H   0  0  0  0  0  0  0  0  0  0  0  0
  128.1565  123.0519   61.9080 H   0  0  0  0  0  0  0  0  0  0  0  0
  129.7281  123.7001   65.1566 H   0  0  0  0  0  0  0  0  0  0  0  0
  129.2822  122.3653   64.0402 H   0  0  0  0  0  0  0  0  0  0  0  0
  130.9570  123.0145   64.0402 H   0  0  0  0  0  0  0  0  0  0  0  0
  130.7564  126.6197   61.8679 H   0  0  0  0  0  0  0  0  0  0  0  0
  131.1514  127.3672   63.5102 H   0  0  0  0  0  0  0  0  0  0  0  0
  128.5552  125.3317   66.5763 H   0  0  0  0  0  0  0  0  0  0  0  0
  1  2  1  0
  2  3  1  0
  3  4  2  0
  4  5  1  0
  5  6  1  0
  6  7  1  0
  7  8  1  0
  8  9  2  0
  8 10  1  0
 10 11  1  0
 11 12  1  0
 12 13  2  0
 12 14  1  0
 14 15  1  0
 15 16  1  0
 16 17  1  0
 17 18  1  0
 17 19  1  0
 15 20  1  0
 20 21  2  0
 21 22  1  0
 22 23  2  0
 23 24  1  0
 22 25  1  0
 25 26  2  0
 25 27  1  0
 27 28  1  0
 28 29  1  0
 29 30  1  0
 30 31  2  0
 31 32  1  0
 32 33  2  0
 33 34  1  0
 34 35  2  0
 28 36  1  0
 36 37  2  0
 37 38  1  0
 38 39  1  0
 38 40  2  0
 40 41  1  0
 41 42  1  0
 42 43  1  0
 43 44  2  0
 43 45  1  0
 45 46  1  0
 46 47  1  0
 47 48  1  0
 47 49  1  0
 46 50  1  0
  5 51  1  0
 51  2  2  0
 50 10  1  0
 24 20  1  0
 35 30  1  0
 41 36  1  0
  1 52  1  0
  1 53  1  0
  1 54  1  0
  3 55  1  0
  6 56  1  0
  6 57  1  0
  7 58  1  0
  7 59  1  0
 11 60  1  0
 11 61  1  0
 14 62  1  0
 15 63  1  6
 16 64  1  0
 16 65  1  0
 17 66  1  0
 18 67  1  0
 18 68  1  0
 18 69  1  0
 19 70  1  0
 19 71  1  0
 19 72  1  0
 23 73  1  0
 27 74  1  0
 28 75  1  1
 29 76  1  0
 29 77  1  0
 31 78  1  0
 32 79  1  0
 33 80  1  0
 34 81  1  0
 35 82  1  0
 39 83  1  0
 39 84  1  0
 39 85  1  0
 42 86  1  0
 42 87  1  0
 45 88  1  0
 46 89  1  1
 47 90  1  0
 48 91  1  0
 48 92  1  0
 48 93  1  0
 49 94  1  0
 49 95  1  0
 49 96  1  0
 50 97  1  0
 50 98  1  0
 51 99  1  0
M  END
>  <Binding energies>  (1) 
[-4.37]

>  <Ligand effiencies>  (1) 
[-0.07803571428571429]

>  <Interactions>  (1) 
["V-A:ILE:369:CG2:3237, V-B:GLU:543:CB:9878, V-B:ALA:541:CB:9864, H-A:TYR:531:OH:4795, V-A:TYR:484:CE2:4346, V-B:TYR:539:CE2:9848, V-B:GLU:543:CG:9879, V-A:ASP:366:CG:3213, V-B:TYR:539:CZ:9849, H-B:GLU:543:OE1:9881, V-B:TYR:531:CZ:9766, H-B:TYR:539:OH:9850, V-A:LEU:475:CD1:4258, V-A:GLU:543:CD:4908, V-A:TYR:484:CZ:4347, V-B:GLU:543:CA:9876, H-A:GLY:454:N:4050, V-B:HIS:456:CE1:9041, V-A:ILE:369:CD1:3239, V-A:HIS:456:CE1:4070, V-B:TYR:539:CD2:9846, V-A:TYR:531:CZ:4794, V-B:GLU:543:CD:9880, V-A:MET:535:CE:4835, V-A:TYR:539:C:4867, V-A:ASP:366:CB:3212, V-A:ARG:545:CD:4923, V-A:LEU:475:CD2:4259, V-A:ARG:545:CZ:4926, V-A:GLU:543:CB:4906, V-A:PRO:540:N:4884, H-B:GLU:543:OE2:9882, V-A:PRO:540:CA:4883, H-A:SER:385:O:3406, V-B:PRO:540:C:9853, H-A:ASP:366:OD2:3215, V-B:ALA:541:CA:9862, H-A:TYR:484:OH:4348"]

$$$$
ZINC1704325186
     RDKit          3D

 99101  0  0  0  0  0  0  0  0999 V2000
  129.1440  128.5830   69.3770 C   0  0  0  0  0  0  0  0  0  0  0  0
  128.5220  128.0320   68.0870 C   0  0  0  0  0  0  0  0  0  0  0  0
  129.0760  126.6680   67.7130 C   0  0  0  0  0  0  0  0  0  0  0  0
  129.3120  125.6370   68.5970 N   0  0  0  0  0  0  0  0  0  0  0  0
  129.8030  124.5400   67.9160 C   0  0  0  0  0  0  0  0  0  0  0  0
  129.8640  124.8980   66.5760 C   0  0  0  0  0  0  0  0  0  0  0  0
  129.4210  126.2090   66.4490 N   0  0  0  0  0  0  0  0  0  0  0  0
  129.3290  126.9580   65.1920 C   0  0  0  0  0  0  0  0  0  0  0  0
  130.2730  126.4450   64.0640 C   0  0  0  0  0  0  0  0  0  0  0  0
  129.9750  125.0380   63.4910 C   0  0  0  0  0  0  0  0  0  0  0  0
  130.8240  124.1680   63.6920 O   0  0  0  0  0  0  0  0  0  0  0  0
  128.8570  124.8080   62.7450 N   0  0  0  0  0  0  0  0  0  0  0  0
  127.9630  123.6510   62.9440 C   0  0  0  0  0  0  0  0  0  0  0  0
  127.0200  123.4090   61.7490 C   0  0  0  0  0  0  0  0  0  0  0  0
  125.8210  123.2470   61.9670 O   0  0  0  0  0  0  0  0  0  0  0  0
  127.4520  123.4470   60.4730 N   0  0  0  0  0  0  0  0  0  0  0  0
  128.7990  123.3920   59.8870 C   0  0  1  0  0  0  0  0  0  0  0  0
  129.3660  121.9710   60.1550 C   0  0  0  0  0  0  0  0  0  0  0  0
  130.4760  121.9190   61.2320 C   0  0  0  0  0  0  0  0  0  0  0  0
  131.6480  121.0220   60.7800 C   0  0  0  0  0  0  0  0  0  0  0  0
  129.9490  121.5150   62.6240 C   0  0  0  0  0  0  0  0  0  0  0  0
  128.9130  123.7390   58.3840 C   0  0  0  0  0  0  0  0  0  0  0  0
  128.0970  123.2650   57.5950 O   0  0  0  0  0  0  0  0  0  0  0  0
  129.9180  124.5400   57.9710 N   0  0  0  0  0  0  0  0  0  0  0  0
  131.0230  125.0940   58.7710 C   0  0  1  0  0  0  0  0  0  0  0  0
  132.1110  124.0490   59.1320 C   0  0  0  0  0  0  0  0  0  0  0  0
  132.7030  124.3070   60.5140 C   0  0  0  0  0  0  0  0  0  0  0  0
  132.3090  125.4320   61.2380 C   0  0  0  0  0  0  0  0  0  0  0  0
  132.8370  125.6640   62.5050 C   0  0  0  0  0  0  0  0  0  0  0  0
  133.7620  124.7790   63.0610 C   0  0  0  0  0  0  0  0  0  0  0  0
  134.2290  125.0900   64.3240 O   0  0  0  0  0  0  0  0  0  0  0  0
  133.2970  125.2670   65.3850 C   0  0  0  0  0  0  0  0  0  0  0  0
  134.1570  123.6490   62.3270 C   0  0  0  0  0  0  0  0  0  0  0  0
  133.6300  123.4170   61.0590 C   0  0  0  0  0  0  0  0  0  0  0  0
  131.6310  126.4040   58.2180 C   0  0  0  0  0  0  0  0  0  0  0  0
  132.5870  126.3020   57.4520 O   0  0  0  0  0  0  0  0  0  0  0  0
  131.1650  127.6160   58.5690 N   0  0  0  0  0  0  0  0  0  0  0  0
  130.0140  127.9810   59.3920 C   0  0  2  0  0  0  0  0  0  0  0  0
  129.2900  129.1630   58.7290 C   0  0  0  0  0  0  0  0  0  0  0  0
  130.3290  128.3100   60.8690 C   0  0  0  0  0  0  0  0  0  0  0  0
  131.3470  128.9640   61.0870 O   0  0  0  0  0  0  0  0  0  0  0  0
  129.5490  127.9140   61.8950 N   0  0  0  0  0  0  0  0  0  0  0  0
  128.2810  127.1710   61.9480 C   0  0  1  0  0  0  0  0  0  0  0  0
  127.1760  127.8750   61.0980 C   0  0  0  0  0  0  0  0  0  0  0  0
  126.0190  128.4450   61.9500 C   0  0  0  0  0  0  0  0  0  0  0  0
  126.5970  126.9590   59.9970 C   0  0  0  0  0  0  0  0  0  0  0  0
  128.5320  125.6710   61.5860 C   0  0  0  0  0  0  0  0  0  0  0  0
  128.6400  128.1365   70.2469 H   0  0  0  0  0  0  0  0  0  0  0  0
  130.2145  128.3314   69.4044 H   0  0  0  0  0  0  0  0  0  0  0  0
  129.0234  129.6760   69.4044 H   0  0  0  0  0  0  0  0  0  0  0  0
  127.4346  127.9448   68.2285 H   0  0  0  0  0  0  0  0  0  0  0  0
  128.7682  128.7286   67.2721 H   0  0  0  0  0  0  0  0  0  0  0  0
  129.1500  125.6780   69.5930 H   0  0  0  0  0  0  0  0  0  0  0  0
  130.0899  123.5712   68.3509 H   0  0  0  0  0  0  0  0  0  0  0  0
  130.2055  124.2526   65.7533 H   0  0  0  0  0  0  0  0  0  0  0  0
  128.2928  126.8935   64.8286 H   0  0  0  0  0  0  0  0  0  0  0  0
  129.6422  127.9880   65.4178 H   0  0  0  0  0  0  0  0  0  0  0  0
  130.2173  127.1620   63.2317 H   0  0  0  0  0  0  0  0  0  0  0  0
  131.2640  126.3606   64.5340 H   0  0  0  0  0  0  0  0  0  0  0  0
  128.5798  122.7523   63.0920 H   0  0  0  0  0  0  0  0  0  0  0  0
  127.3354  123.8659   63.8215 H   0  0  0  0  0  0  0  0  0  0  0  0
  126.7290  123.3770   59.7720 H   0  0  0  0  0  0  0  0  0  0  0  0
  129.3809  124.1878   60.3750 H   0  0  0  0  0  0  0  0  0  0  0  0
  128.5375  121.3261   60.4832 H   0  0  0  0  0  0  0  0  0  0  0  0
  129.8250  121.6332   59.2141 H   0  0  0  0  0  0  0  0  0  0  0  0
  130.8560  122.9455   61.3414 H   0  0  0  0  0  0  0  0  0  0  0  0
  132.1676  120.6243   61.6643 H   0  0  0  0  0  0  0  0  0  0  0  0
  131.2600  120.1880   60.1768 H   0  0  0  0  0  0  0  0  0  0  0  0
  132.3517  121.6144   60.1768 H   0  0  0  0  0  0  0  0  0  0  0  0
  130.5666  121.9884   63.4015 H   0  0  0  0  0  0  0  0  0  0  0  0
  128.9058  121.8470   62.7317 H   0  0  0  0  0  0  0  0  0  0  0  0
  129.9987  120.4214   62.7317 H   0  0  0  0  0  0  0  0  0  0  0  0
  129.9640  124.7610   56.9870 H   0  0  0  0  0  0  0  0  0  0  0  0
  130.5368  125.3806   59.7152 H   0  0  0  0  0  0  0  0  0  0  0  0
  131.6603  123.0457   59.1187 H   0  0  0  0  0  0  0  0  0  0  0  0
  132.9208  124.1266   58.3916 H   0  0  0  0  0  0  0  0  0  0  0  0
  131.5812  126.1358   60.8080 H   0  0  0  0  0  0  0  0  0  0  0  0
  132.5226  126.5522   63.0727 H   0  0  0  0  0  0  0  0  0  0  0  0
  133.8164  125.1684   66.3496 H   0  0  0  0  0  0  0  0  0  0  0  0
  132.8447  126.2671   65.3127 H   0  0  0  0  0  0  0  0  0  0  0  0
  132.5095  124.5024   65.3127 H   0  0  0  0  0  0  0  0  0  0  0  0
  134.8853  122.9445   62.7551 H   0  0  0  0  0  0  0  0  0  0  0  0
  133.9444  122.5319   60.4866 H   0  0  0  0  0  0  0  0  0  0  0  0
  131.6430  128.4120   58.1740 H   0  0  0  0  0  0  0  0  0  0  0  0
  129.3775  127.0851   59.4398 H   0  0  0  0  0  0  0  0  0  0  0  0
  128.8835  129.8267   59.5064 H   0  0  0  0  0  0  0  0  0  0  0  0
  130.0000  129.7234   58.1030 H   0  0  0  0  0  0  0  0  0  0  0  0
  128.4682  128.7851   58.1030 H   0  0  0  0  0  0  0  0  0  0  0  0
  129.8830  128.1840   62.8080 H   0  0  0  0  0  0  0  0  0  0  0  0
  127.8828  127.1754   62.9734 H   0  0  0  0  0  0  0  0  0  0  0  0
  127.6955  128.7184   60.6197 H   0  0  0  0  0  0  0  0  0  0  0  0
  126.2573  128.3276   63.0174 H   0  0  0  0  0  0  0  0  0  0  0  0
  125.8851  129.5122   61.7194 H   0  0  0  0  0  0  0  0  0  0  0  0
  125.0912  127.9008   61.7194 H   0  0  0  0  0  0  0  0  0  0  0  0
  126.0647  126.1168   60.4632 H   0  0  0  0  0  0  0  0  0  0  0  0
  125.8978  127.5339   59.3719 H   0  0  0  0  0  0  0  0  0  0  0  0
  127.4162  126.5741   59.3719 H   0  0  0  0  0  0  0  0  0  0  0  0
  127.6239  125.2761   61.1069 H   0  0  0  0  0  0  0  0  0  0  0  0
  129.4099  125.6506   60.9235 H   0  0  0  0  0  0  0  0  0  0  0  0
  1  2  1  0
  2  3  1  0
  3  4  2  0
  4  5  1  0
  5  6  2  0
  6  7  1  0
  7  8  1  0
  8  9  1  0
  9 10  1  0
 10 11  2  0
 10 12  1  0
 12 13  1  0
 13 14  1  0
 14 15  2  0
 14 16  1  0
 16 17  1  0
 17 18  1  0
 18 19  1  0
 19 20  1  0
 19 21  1  0
 17 22  1  0
 22 23  2  0
 22 24  1  0
 24 25  1  0
 25 26  1  0
 26 27  1  0
 27 28  2  0
 28 29  1  0
 29 30  2  0
 30 31  1  0
 31 32  1  0
 30 33  1  0
 33 34  2  0
 25 35  1  0
 35 36  2  0
 35 37  1  0
 37 38  1  0
 38 39  1  0
 38 40  1  0
 40 41  2  0
 40 42  1  0
 42 43  1  0
 43 44  1  0
 44 45  1  0
 44 46  1  0
 43 47  1  0
  7  3  1  0
 47 12  1  0
 34 27  1  0
  1 48  1  0
  1 49  1  0
  1 50  1  0
  2 51  1  0
  2 52  1  0
  4 53  1  0
  5 54  1  0
  6 55  1  0
  8 56  1  0
  8 57  1  0
  9 58  1  0
  9 59  1  0
 13 60  1  0
 13 61  1  0
 16 62  1  0
 17 63  1  1
 18 64  1  0
 18 65  1  0
 19 66  1  0
 20 67  1  0
 20 68  1  0
 20 69  1  0
 21 70  1  0
 21 71  1  0
 21 72  1  0
 24 73  1  0
 25 74  1  1
 26 75  1  0
 26 76  1  0
 28 77  1  0
 29 78  1  0
 32 79  1  0
 32 80  1  0
 32 81  1  0
 33 82  1  0
 34 83  1  0
 37 84  1  0
 38 85  1  1
 39 86  1  0
 39 87  1  0
 39 88  1  0
 42 89  1  0
 43 90  1  1
 44 91  1  0
 45 92  1  0
 45 93  1  0
 45 94  1  0
 46 95  1  0
 46 96  1  0
 46 97  1  0
 47 98  1  0
 47 99  1  0
M  CHG  1   4   1
M  END
>  <Binding energies>  (1) 
[-5.19]

>  <Ligand effiencies>  (1) 
[-0.09611111111111112]

>  <Interactions>  (1) 
["V-A:ILE:369:CG2:3237, V-B:PRO:540:CA:9855, V-A:GLY:454:CA:4049, V-B:GLU:543:C:9874, H-A:GLU:543:OE2:4910, H-B:GLU:543:O:9875, V-A:GLU:543:C:4902, V-B:GLU:543:CB:9878, V-B:ASP:366:CG:8184, V-B:ALA:541:CB:9864, H-A:ARG:545:NH1:4927, H-A:TYR:531:OH:4795, V-A:TYR:484:CE2:4346, V-B:TYR:539:CE2:9848, V-B:GLU:543:CG:9879, V-B:TYR:539:C:9839, V-A:ASP:366:CG:3213, V-B:TYR:539:CZ:9849, H-B:TYR:539:OH:9850, H-B:ALA:541:N:9863, V-A:GLU:543:CD:4908, V-A:TYR:484:CZ:4347, V-B:GLU:543:CA:9876, H-A:GLY:454:N:4050, V-B:HIS:456:CE1:9041, V-A:HIS:456:CE1:4070, V-A:ILE:369:CD1:3239, V-B:TYR:539:CD2:9846, V-B:GLU:543:CD:9880, V-A:ASP:366:CB:3212, V-A:ARG:545:CD:4923, V-A:LEU:475:CD2:4259, H-A:ARG:545:NH2:4928, V-A:ARG:545:CZ:4926, H-A:GLU:543:OE1:4909, V-A:GLU:543:CB:4906, H-A:ARG:545:NE:4924, H-A:ASP:366:OD2:3215, H-A:HIS:456:NE2:4071"]

$$$$
ZINC1704327797
     RDKit          3D

109112  0  0  0  0  0  0  0  0999 V2000
  134.6440  124.3520   60.9190 C   0  0  0  0  0  0  0  0  0  0  0  0
  133.5820  123.5530   61.7080 C   0  0  0  0  0  0  0  0  0  0  0  0
  133.6460  122.0620   61.3270 C   0  0  0  0  0  0  0  0  0  0  0  0
  132.1270  124.1230   61.6450 C   0  0  2  0  0  0  0  0  0  0  0  0
  131.2550  123.3390   62.5280 N   0  0  0  0  0  0  0  0  0  0  0  0
  130.5380  123.7150   63.6050 C   0  0  0  0  0  0  0  0  0  0  0  0
  129.8360  122.8900   64.1910 O   0  0  0  0  0  0  0  0  0  0  0  0
  130.6100  125.1710   64.1360 C   0  0  2  0  0  0  0  0  0  0  0  0
  132.0800  125.6430   64.1850 C   0  0  0  0  0  0  0  0  0  0  0  0
  130.0210  125.2470   65.4850 N   0  0  0  0  0  0  0  0  0  0  0  0
  129.3300  126.2290   66.1100 C   0  0  0  0  0  0  0  0  0  0  0  0
  129.1540  126.1820   67.3260 O   0  0  0  0  0  0  0  0  0  0  0  0
  128.7380  127.3080   65.3470 C   0  0  0  0  0  0  0  0  0  0  0  0
  128.2570  128.4950   65.8990 C   0  0  0  0  0  0  0  0  0  0  0  0
  127.5280  129.4580   64.6530 S   0  0  0  0  0  0  0  0  0  0  0  0
  127.8570  128.1820   63.5170 C   0  0  0  0  0  0  0  0  0  0  0  0
  128.4920  127.1650   64.0560 N   0  0  0  0  0  0  0  0  0  0  0  0
  127.4440  128.2420   62.0420 C   0  0  2  0  0  0  0  0  0  0  0  0
  126.8030  129.5720   61.5550 C   0  0  0  0  0  0  0  0  0  0  0  0
  127.5710  130.8460   61.9000 C   0  0  0  0  0  0  0  0  0  0  0  0
  128.9690  130.8420   61.8720 C   0  0  0  0  0  0  0  0  0  0  0  0
  129.6780  132.0000   62.1780 C   0  0  0  0  0  0  0  0  0  0  0  0
  128.9860  133.1600   62.5190 C   0  0  0  0  0  0  0  0  0  0  0  0
  127.5920  133.1700   62.5600 C   0  0  0  0  0  0  0  0  0  0  0  0
  126.8840  132.0110   62.2520 C   0  0  0  0  0  0  0  0  0  0  0  0
  126.6760  127.0670   61.6020 N   0  0  0  0  0  0  0  0  0  0  0  0
  126.5080  126.5600   60.3640 C   0  0  0  0  0  0  0  0  0  0  0  0
  125.8960  125.4990   60.2270 O   0  0  0  0  0  0  0  0  0  0  0  0
  127.0470  127.3280   59.1290 C   0  0  0  0  0  0  0  0  0  0  0  0
  128.4890  127.1090   58.9330 N   0  0  0  0  0  0  0  0  0  0  0  0
  129.2760  127.3610   60.1570 C   0  0  0  0  0  0  0  0  0  0  0  0
  130.6580  128.0820   59.9950 C   0  0  0  0  0  0  0  0  0  0  0  0
  131.1060  128.8520   61.2640 C   0  0  0  0  0  0  0  0  0  0  0  0
  131.7080  126.9690   59.7550 C   0  0  0  0  0  0  0  0  0  0  0  0
  130.6820  129.0060   58.7370 C   0  0  0  0  0  0  0  0  0  0  0  0
  131.7320  130.1480   58.8550 N   0  0  0  0  0  0  0  0  0  0  0  0
  132.5640  130.3290   57.5630 C   0  0  0  0  0  0  0  0  0  0  0  0
  131.7560  131.1220   56.5130 C   0  0  0  0  0  0  0  0  0  0  0  0
  131.2770  132.3460   57.0610 O   0  0  0  0  0  0  0  0  0  0  0  0
  130.3940  132.1850   58.1670 C   0  0  0  0  0  0  0  0  0  0  0  0
  131.1120  131.4800   59.3360 C   0  0  0  0  0  0  0  0  0  0  0  0
  128.7780  125.7450   58.4590 C   0  0  0  0  0  0  0  0  0  0  0  0
  127.5150  124.8720   58.2940 C   0  0  0  0  0  0  0  0  0  0  0  0
  127.6060  123.6150   59.0500 N   0  0  0  0  0  0  0  0  0  0  0  0
  127.4890  122.4160   58.2120 C   0  0  0  0  0  0  0  0  0  0  0  0
  127.9250  123.5240   60.3700 C   0  0  0  0  0  0  0  0  0  0  0  0
  127.1550  123.8440   61.2770 O   0  0  0  0  0  0  0  0  0  0  0  0
  129.3380  123.0390   60.7740 C   0  0  1  0  0  0  0  0  0  0  0  0
  129.3850  121.5040   60.6840 C   0  0  0  0  0  0  0  0  0  0  0  0
  130.3870  123.5540   59.8900 N   0  0  0  0  0  0  0  0  0  0  0  0
  131.6210  124.0070   60.1820 C   0  0  0  0  0  0  0  0  0  0  0  0
  132.3770  124.3650   59.2790 O   0  0  0  0  0  0  0  0  0  0  0  0
  135.3190  124.8598   61.6236 H   0  0  0  0  0  0  0  0  0  0  0  0
  135.2244  123.6647   60.2859 H   0  0  0  0  0  0  0  0  0  0  0  0
  134.1444  125.1001   60.2859 H   0  0  0  0  0  0  0  0  0  0  0  0
  133.8500  123.6681   62.7686 H   0  0  0  0  0  0  0  0  0  0  0  0
  133.6722  121.4508   62.2412 H   0  0  0  0  0  0  0  0  0  0  0  0
  132.7584  121.7967   60.7339 H   0  0  0  0  0  0  0  0  0  0  0  0
  134.5531  121.8737   60.7339 H   0  0  0  0  0  0  0  0  0  0  0  0
  132.1158  125.1740   61.9696 H   0  0  0  0  0  0  0  0  0  0  0  0
  131.1680  122.3740   62.2450 H   0  0  0  0  0  0  0  0  0  0  0  0
  130.0421  125.8239   63.4569 H   0  0  0  0  0  0  0  0  0  0  0  0
  132.3976  125.7450   65.2332 H   0  0  0  0  0  0  0  0  0  0  0  0
  132.7192  124.9049   63.6783 H   0  0  0  0  0  0  0  0  0  0  0  0
  132.1700  126.6152   63.6783 H   0  0  0  0  0  0  0  0  0  0  0  0
  130.1930  124.4150   66.0300 H   0  0  0  0  0  0  0  0  0  0  0  0
  128.3286  128.7771   66.9598 H   0  0  0  0  0  0  0  0  0  0  0  0
  128.4172  128.2162   61.5299 H   0  0  0  0  0  0  0  0  0  0  0  0
  126.7095  129.5204   60.4602 H   0  0  0  0  0  0  0  0  0  0  0  0
  125.8414  129.6509   62.0833 H   0  0  0  0  0  0  0  0  0  0  0  0
  129.5098  129.9214   61.6075 H   0  0  0  0  0  0  0  0  0  0  0  0
  130.7777  131.9992   62.1508 H   0  0  0  0  0  0  0  0  0  0  0  0
  129.5445  134.0770   62.7582 H   0  0  0  0  0  0  0  0  0  0  0  0
  127.0540  134.0894   62.8344 H   0  0  0  0  0  0  0  0  0  0  0  0
  125.7845  132.0125   62.2858 H   0  0  0  0  0  0  0  0  0  0  0  0
  126.2080  126.5770   62.3510 H   0  0  0  0  0  0  0  0  0  0  0  0
  126.5099  126.9828   58.2333 H   0  0  0  0  0  0  0  0  0  0  0  0
  126.8854  128.4027   59.2987 H   0  0  0  0  0  0  0  0  0  0  0  0
  128.6580  127.9800   60.8241 H   0  0  0  0  0  0  0  0  0  0  0  0
  129.5259  126.3604   60.5395 H   0  0  0  0  0  0  0  0  0  0  0  0
  130.7851  128.3004   62.1600 H   0  0  0  0  0  0  0  0  0  0  0  0
  132.2017  128.9493   61.2662 H   0  0  0  0  0  0  0  0  0  0  0  0
  130.6491  129.8526   61.2662 H   0  0  0  0  0  0  0  0  0  0  0  0
  132.0669  126.5886   60.7227 H   0  0  0  0  0  0  0  0  0  0  0  0
  131.2481  126.1476   59.1859 H   0  0  0  0  0  0  0  0  0  0  0  0
  132.5547  127.3803   59.1859 H   0  0  0  0  0  0  0  0  0  0  0  0
  130.9237  128.3946   57.8551 H   0  0  0  0  0  0  0  0  0  0  0  0
  129.6900  129.4727   58.6468 H   0  0  0  0  0  0  0  0  0  0  0  0
  132.3680  129.8480   59.5820 H   0  0  0  0  0  0  0  0  0  0  0  0
  133.4878  130.8771   57.7999 H   0  0  0  0  0  0  0  0  0  0  0  0
  132.8089  129.3381   57.1529 H   0  0  0  0  0  0  0  0  0  0  0  0
  132.4030  131.3418   55.6510 H   0  0  0  0  0  0  0  0  0  0  0  0
  130.8937  130.5149   56.2002 H   0  0  0  0  0  0  0  0  0  0  0  0
  130.0470  133.1744   58.4997 H   0  0  0  0  0  0  0  0  0  0  0  0
  129.5393  131.5684   57.8519 H   0  0  0  0  0  0  0  0  0  0  0  0
  131.9086  132.1338   59.7207 H   0  0  0  0  0  0  0  0  0  0  0  0
  130.3822  131.2700   60.1318 H   0  0  0  0  0  0  0  0  0  0  0  0
  129.2835  125.8144   57.4845 H   0  0  0  0  0  0  0  0  0  0  0  0
  129.4081  125.2633   59.2212 H   0  0  0  0  0  0  0  0  0  0  0  0
  126.6433  125.4388   58.6529 H   0  0  0  0  0  0  0  0  0  0  0  0
  127.4167  124.6185   57.2281 H   0  0  0  0  0  0  0  0  0  0  0  0
  127.4023  121.5270   58.8540 H   0  0  0  0  0  0  0  0  0  0  0  0
  126.5946  122.4984   57.5769 H   0  0  0  0  0  0  0  0  0  0  0  0
  128.3824  122.3239   57.5769 H   0  0  0  0  0  0  0  0  0  0  0  0
  129.5221  123.4071   61.7941 H   0  0  0  0  0  0  0  0  0  0  0  0
  129.3981  121.0775   61.6979 H   0  0  0  0  0  0  0  0  0  0  0  0
  128.4975  121.1410   60.1449 H   0  0  0  0  0  0  0  0  0  0  0  0
  130.2930  121.1959   60.1449 H   0  0  0  0  0  0  0  0  0  0  0  0
  130.1290  123.5450   58.9130 H   0  0  0  0  0  0  0  0  0  0  0  0
  1  2  1  0
  2  3  1  0
  2  4  1  0
  4  5  1  0
  5  6  1  0
  6  7  2  0
  6  8  1  0
  8  9  1  0
  8 10  1  0
 10 11  1  0
 11 12  2  0
 11 13  1  0
 13 14  2  0
 14 15  1  0
 15 16  1  0
 16 17  2  0
 16 18  1  0
 18 19  1  0
 19 20  1  0
 20 21  2  0
 21 22  1  0
 22 23  2  0
 23 24  1  0
 24 25  2  0
 18 26  1  0
 26 27  1  0
 27 28  2  0
 27 29  1  0
 29 30  1  0
 30 31  1  0
 31 32  1  0
 32 33  1  0
 32 34  1  0
 32 35  1  0
 35 36  1  0
 36 37  1  0
 37 38  1  0
 38 39  1  0
 39 40  1  0
 40 41  1  0
 30 42  1  0
 42 43  1  0
 43 44  1  0
 44 45  1  0
 44 46  1  0
 46 47  2  0
 46 48  1  0
 48 49  1  0
 48 50  1  0
 50 51  1  0
 51 52  2  0
 51  4  1  0
 17 13  1  0
 25 20  1  0
 41 36  1  0
  1 53  1  0
  1 54  1  0
  1 55  1  0
  2 56  1  0
  3 57  1  0
  3 58  1  0
  3 59  1  0
  4 60  1  1
  5 61  1  0
  8 62  1  6
  9 63  1  0
  9 64  1  0
  9 65  1  0
 10 66  1  0
 14 67  1  0
 18 68  1  6
 19 69  1  0
 19 70  1  0
 21 71  1  0
 22 72  1  0
 23 73  1  0
 24 74  1  0
 25 75  1  0
 26 76  1  0
 29 77  1  0
 29 78  1  0
 31 79  1  0
 31 80  1  0
 33 81  1  0
 33 82  1  0
 33 83  1  0
 34 84  1  0
 34 85  1  0
 34 86  1  0
 35 87  1  0
 35 88  1  0
 36 89  1  0
 37 90  1  0
 37 91  1  0
 38 92  1  0
 38 93  1  0
 40 94  1  0
 40 95  1  0
 41 96  1  0
 41 97  1  0
 42 98  1  0
 42 99  1  0
 43100  1  0
 43101  1  0
 45102  1  0
 45103  1  0
 45104  1  0
 48105  1  1
 49106  1  0
 49107  1  0
 49108  1  0
 50109  1  0
M  CHG  1  36   1
M  END
>  <Binding energies>  (1) 
[-4.5]

>  <Ligand effiencies>  (1) 
[-0.07627118644067797]

>  <Interactions>  (1) 
["V-A:ILE:369:CG2:3237, V-A:ASP:366:CA:3210, V-B:PRO:540:CA:9855, V-B:GLU:543:CB:9878, V-A:PRO:540:C:4881, V-B:ASP:366:CG:8184, V-B:TYR:539:CE2:9848, V-B:GLU:543:CG:9879, V-B:LEU:475:CD2:9230, V-B:TYR:539:C:9839, V-A:ASP:366:CG:3213, V-A:LEU:363:CD1:3189, V-B:TYR:539:CZ:9849, H-B:GLU:543:OE1:9881, V-A:TYR:531:CE2:4793, H-B:TYR:539:OH:9850, V-A:ALA:541:CB:4892, V-A:GLU:543:CD:4908, V-B:PRO:540:CB:9857, H-B:ASP:366:OD1:8185, V-B:PRO:540:N:9856, V-A:ILE:369:CD1:3239, V-A:ALA:541:CA:4890, V-B:PRO:540:CD:9859, V-A:GLU:543:CG:4907, V-A:TYR:531:CZ:4794, V-B:TYR:539:CD2:9846, V-B:GLU:543:CD:9880, V-A:ASP:366:CB:3212, V-A:LEU:475:CD2:4259, V-A:ARG:545:CZ:4926, V-B:TYR:539:CG:9844, V-A:PRO:540:N:4884, H-B:GLU:543:OE2:9882, V-A:PRO:540:CB:4885, V-A:PRO:540:CA:4883, H-A:ASP:366:OD2:3215, H-A:TYR:484:OH:4348"]

$$$$
ZINC1704327797-again1
     RDKit          3D

109112  0  0  0  0  0  0  0  0999 V2000
  126.4360  128.9480   58.6530 C   0  0  0  0  0  0  0  0  0  0  0  0
  127.8290  128.7500   59.2820 C   0  0  0  0  0  0  0  0  0  0  0  0
  128.8660  128.5660   58.1600 C   0  0  0  0  0  0  0  0  0  0  0  0
  127.8370  127.6020   60.3330 C   0  0  2  0  0  0  0  0  0  0  0  0
  126.9370  127.8240   61.4800 N   0  0  0  0  0  0  0  0  0  0  0  0
  127.0810  128.1800   62.7770 C   0  0  0  0  0  0  0  0  0  0  0  0
  126.0690  128.3260   63.4630 O   0  0  0  0  0  0  0  0  0  0  0  0
  128.4590  128.4000   63.4560 C   0  0  2  0  0  0  0  0  0  0  0  0
  128.7740  127.3200   64.5150 C   0  0  0  0  0  0  0  0  0  0  0  0
  128.5230  129.7060   64.1210 N   0  0  0  0  0  0  0  0  0  0  0  0
  128.2680  130.0630   65.4000 C   0  0  0  0  0  0  0  0  0  0  0  0
  128.3300  131.2470   65.7340 O   0  0  0  0  0  0  0  0  0  0  0  0
  128.0510  129.0340   66.3980 C   0  0  0  0  0  0  0  0  0  0  0  0
  126.8330  128.4940   66.8140 C   0  0  0  0  0  0  0  0  0  0  0  0
  127.1160  127.3380   68.0790 S   0  0  0  0  0  0  0  0  0  0  0  0
  128.8130  127.7130   68.0050 C   0  0  0  0  0  0  0  0  0  0  0  0
  129.1030  128.6020   67.0780 N   0  0  0  0  0  0  0  0  0  0  0  0
  129.8330  127.1350   68.9920 C   0  0  2  0  0  0  0  0  0  0  0  0
  130.0610  128.1560   70.1340 C   0  0  0  0  0  0  0  0  0  0  0  0
  129.1650  127.9870   71.3560 C   0  0  0  0  0  0  0  0  0  0  0  0
  129.3860  128.7600   72.5000 C   0  0  0  0  0  0  0  0  0  0  0  0
  128.5350  128.6420   73.5950 C   0  0  0  0  0  0  0  0  0  0  0  0
  127.4630  127.7540   73.5420 C   0  0  0  0  0  0  0  0  0  0  0  0
  127.2400  126.9760   72.4080 C   0  0  0  0  0  0  0  0  0  0  0  0
  128.0960  127.0880   71.3150 C   0  0  0  0  0  0  0  0  0  0  0  0
  131.0980  126.7840   68.3290 N   0  0  0  0  0  0  0  0  0  0  0  0
  131.2730  126.1580   67.1500 C   0  0  0  0  0  0  0  0  0  0  0  0
  132.3820  126.1830   66.6200 O   0  0  0  0  0  0  0  0  0  0  0  0
  130.0700  125.4260   66.4970 C   0  0  0  0  0  0  0  0  0  0  0  0
  130.3450  125.0030   65.0690 N   0  0  1  0  0  0  0  0  0  0  0  0
  131.6870  124.2470   64.7680 C   0  0  0  0  0  0  0  0  0  0  0  0
  132.1640  124.0470   63.2830 C   0  0  0  0  0  0  0  0  0  0  0  0
  132.4890  125.3860   62.5800 C   0  0  0  0  0  0  0  0  0  0  0  0
  133.4900  123.2430   63.3760 C   0  0  0  0  0  0  0  0  0  0  0  0
  131.1320  123.1820   62.4840 C   0  0  0  0  0  0  0  0  0  0  0  0
  131.6490  121.8980   61.9830 N   0  0  0  0  0  0  0  0  0  0  0  0
  130.5560  120.9940   61.6010 C   0  0  0  0  0  0  0  0  0  0  0  0
  131.0860  119.6610   61.0320 C   0  0  0  0  0  0  0  0  0  0  0  0
  131.9770  119.9100   59.9520 O   0  0  0  0  0  0  0  0  0  0  0  0
  133.0960  120.6970   60.3430 C   0  0  0  0  0  0  0  0  0  0  0  0
  132.6240  122.0600   60.8930 C   0  0  0  0  0  0  0  0  0  0  0  0
  129.1110  124.3160   64.4150 C   0  0  0  0  0  0  0  0  0  0  0  0
  128.8130  124.8890   63.0120 C   0  0  0  0  0  0  0  0  0  0  0  0
  128.0520  124.0180   62.0900 N   0  0  0  0  0  0  0  0  0  0  0  0
  127.2860  122.9350   62.7270 C   0  0  0  0  0  0  0  0  0  0  0  0
  127.9290  124.2450   60.7480 C   0  0  0  0  0  0  0  0  0  0  0  0
  126.8790  124.0450   60.1310 O   0  0  0  0  0  0  0  0  0  0  0  0
  129.1230  124.8170   59.9400 C   0  0  1  0  0  0  0  0  0  0  0  0
  128.7370  125.2780   58.5170 C   0  0  0  0  0  0  0  0  0  0  0  0
  129.7040  125.9370   60.6760 N   0  0  0  0  0  0  0  0  0  0  0  0
  129.2910  127.2160   60.7220 C   0  0  0  0  0  0  0  0  0  0  0  0
  130.0830  128.0950   61.0440 O   0  0  0  0  0  0  0  0  0  0  0  0
  125.6855  129.0547   59.4501 H   0  0  0  0  0  0  0  0  0  0  0  0
  126.4405  129.8545   58.0300 H   0  0  0  0  0  0  0  0  0  0  0  0
  126.1877  128.0761   58.0300 H   0  0  0  0  0  0  0  0  0  0  0  0
  128.1064  129.6490   59.8520 H   0  0  0  0  0  0  0  0  0  0  0  0
  129.8576  128.3901   58.6024 H   0  0  0  0  0  0  0  0  0  0  0  0
  128.5839  127.7039   57.5378 H   0  0  0  0  0  0  0  0  0  0  0  0
  128.8977  129.4725   57.5378 H   0  0  0  0  0  0  0  0  0  0  0  0
  127.3953  126.7199   59.8464 H   0  0  0  0  0  0  0  0  0  0  0  0
  125.9740  127.7000   61.2050 H   0  0  0  0  0  0  0  0  0  0  0  0
  129.1998  128.3427   62.6449 H   0  0  0  0  0  0  0  0  0  0  0  0
  128.6497  127.7461   65.5215 H   0  0  0  0  0  0  0  0  0  0  0  0
  128.0861  126.4710   64.3887 H   0  0  0  0  0  0  0  0  0  0  0  0
  129.8105  126.9740   64.3887 H   0  0  0  0  0  0  0  0  0  0  0  0
  128.8770  130.4370   63.5200 H   0  0  0  0  0  0  0  0  0  0  0  0
  125.8472  128.7593   66.4044 H   0  0  0  0  0  0  0  0  0  0  0  0
  129.4325  126.2001   69.4109 H   0  0  0  0  0  0  0  0  0  0  0  0
  131.1060  128.0658   70.4653 H   0  0  0  0  0  0  0  0  0  0  0  0
  129.8123  129.1409   69.7118 H   0  0  0  0  0  0  0  0  0  0  0  0
  130.2326  129.4615   72.5346 H   0  0  0  0  0  0  0  0  0  0  0  0
  128.7080  129.2467   74.4974 H   0  0  0  0  0  0  0  0  0  0  0  0
  126.7857  127.6662   74.4043 H   0  0  0  0  0  0  0  0  0  0  0  0
  126.3917  126.2764   72.3760 H   0  0  0  0  0  0  0  0  0  0  0  0
  127.9307  126.4695   70.4205 H   0  0  0  0  0  0  0  0  0  0  0  0
  131.9030  127.2800   68.6840 H   0  0  0  0  0  0  0  0  0  0  0  0
  129.8398  124.5293   67.0910 H   0  0  0  0  0  0  0  0  0  0  0  0
  129.2252  126.1302   66.4769 H   0  0  0  0  0  0  0  0  0  0  0  0
  130.4480  125.8580   64.5410 H   0  0  0  0  0  0  0  0  0  0  0  0
  132.4850  124.7995   65.2856 H   0  0  0  0  0  0  0  0  0  0  0  0
  131.4790  123.2210   65.1057 H   0  0  0  0  0  0  0  0  0  0  0  0
  132.6772  126.1614   63.3372 H   0  0  0  0  0  0  0  0  0  0  0  0
  133.3833  125.2625   61.9515 H   0  0  0  0  0  0  0  0  0  0  0  0
  131.6376  125.6862   61.9515 H   0  0  0  0  0  0  0  0  0  0  0  0
  133.7499  123.0854   64.4332 H   0  0  0  0  0  0  0  0  0  0  0  0
  133.3639  122.2691   62.8803 H   0  0  0  0  0  0  0  0  0  0  0  0
  134.2952  123.8051   62.8803 H   0  0  0  0  0  0  0  0  0  0  0  0
  130.2792  122.9710   63.1460 H   0  0  0  0  0  0  0  0  0  0  0  0
  130.8614  123.7711   61.5953 H   0  0  0  0  0  0  0  0  0  0  0  0
  129.9420  120.7829   62.4889 H   0  0  0  0  0  0  0  0  0  0  0  0
  129.9624  121.4878   60.8176 H   0  0  0  0  0  0  0  0  0  0  0  0
  131.6182  119.1135   61.8238 H   0  0  0  0  0  0  0  0  0  0  0  0
  130.2378  119.0625   60.6681 H   0  0  0  0  0  0  0  0  0  0  0  0
  133.6588  120.1652   61.1243 H   0  0  0  0  0  0  0  0  0  0  0  0
  133.7386  120.8670   59.4666 H   0  0  0  0  0  0  0  0  0  0  0  0
  133.4959  122.6123   61.2736 H   0  0  0  0  0  0  0  0  0  0  0  0
  132.1360  122.6099   60.0748 H   0  0  0  0  0  0  0  0  0  0  0  0
  129.3099  123.2379   64.3246 H   0  0  0  0  0  0  0  0  0  0  0  0
  128.2359  124.5040   65.0544 H   0  0  0  0  0  0  0  0  0  0  0  0
  128.2379  125.8171   63.1456 H   0  0  0  0  0  0  0  0  0  0  0  0
  129.7966  125.0242   62.5385 H   0  0  0  0  0  0  0  0  0  0  0  0
  127.3544  123.0317   63.8206 H   0  0  0  0  0  0  0  0  0  0  0  0
  126.2322  123.0005   62.4183 H   0  0  0  0  0  0  0  0  0  0  0  0
  127.6988  121.9632   62.4183 H   0  0  0  0  0  0  0  0  0  0  0  0
  129.8512  124.0016   59.8186 H   0  0  0  0  0  0  0  0  0  0  0  0
  128.0321  126.1199   58.5829 H   0  0  0  0  0  0  0  0  0  0  0  0
  129.6407  125.5978   57.9774 H   0  0  0  0  0  0  0  0  0  0  0  0
  128.2634  124.4446   57.9774 H   0  0  0  0  0  0  0  0  0  0  0  0
  130.6320  125.7460   61.0270 H   0  0  0  0  0  0  0  0  0  0  0  0
  1  2  1  0
  2  3  1  0
  2  4  1  0
  4  5  1  0
  5  6  1  0
  6  7  2  0
  6  8  1  0
  8  9  1  0
  8 10  1  0
 10 11  1  0
 11 12  2  0
 11 13  1  0
 13 14  2  0
 14 15  1  0
 15 16  1  0
 16 17  2  0
 16 18  1  0
 18 19  1  0
 19 20  1  0
 20 21  2  0
 21 22  1  0
 22 23  2  0
 23 24  1  0
 24 25  2  0
 18 26  1  0
 26 27  1  0
 27 28  2  0
 27 29  1  0
 29 30  1  0
 30 31  1  0
 31 32  1  0
 32 33  1  0
 32 34  1  0
 32 35  1  0
 35 36  1  0
 36 37  1  0
 37 38  1  0
 38 39  1  0
 39 40  1  0
 40 41  1  0
 30 42  1  0
 42 43  1  0
 43 44  1  0
 44 45  1  0
 44 46  1  0
 46 47  2  0
 46 48  1  0
 48 49  1  0
 48 50  1  0
 50 51  1  0
 51 52  2  0
 51  4  1  0
 17 13  1  0
 25 20  1  0
 41 36  1  0
  1 53  1  0
  1 54  1  0
  1 55  1  0
  2 56  1  0
  3 57  1  0
  3 58  1  0
  3 59  1  0
  4 60  1  6
  5 61  1  0
  8 62  1  6
  9 63  1  0
  9 64  1  0
  9 65  1  0
 10 66  1  0
 14 67  1  0
 18 68  1  1
 19 69  1  0
 19 70  1  0
 21 71  1  0
 22 72  1  0
 23 73  1  0
 24 74  1  0
 25 75  1  0
 26 76  1  0
 29 77  1  0
 29 78  1  0
 30 79  1  6
 31 80  1  0
 31 81  1  0
 33 82  1  0
 33 83  1  0
 33 84  1  0
 34 85  1  0
 34 86  1  0
 34 87  1  0
 35 88  1  0
 35 89  1  0
 37 90  1  0
 37 91  1  0
 38 92  1  0
 38 93  1  0
 40 94  1  0
 40 95  1  0
 41 96  1  0
 41 97  1  0
 42 98  1  0
 42 99  1  0
 43100  1  0
 43101  1  0
 45102  1  0
 45103  1  0
 45104  1  0
 48105  1  6
 49106  1  0
 49107  1  0
 49108  1  0
 50109  1  0
M  CHG  1  30   1
M  END
>  <Binding energies>  (1) 
[-3.3]

>  <Ligand effiencies>  (1) 
[-0.05593220338983051]

>  <Interactions>  (1) 
["V-A:ILE:369:CG2:3237, V-A:GLY:454:CA:4049, V-B:HIS:456:CD2:9039, H-A:GLU:543:OE2:4910, V-A:GLU:543:C:4902, V-B:GLU:543:CB:9878, V-B:ALA:541:CB:9864, V-B:TYR:539:CE2:9848, V-B:GLU:543:CG:9879, H-B:ASP:366:OD2:8186, H-B:GLU:543:OE1:9881, V-B:LYS:547:CE:9922, V-A:GLU:543:CD:4908, V-A:TYR:484:CZ:4347, H-B:TYR:484:OH:9319, H-B:ASP:366:OD1:8185, V-B:HIS:456:CE1:9041, V-A:ARG:545:CG:4922, V-A:HIS:456:CE1:4070, V-B:GLY:544:C:9884, V-B:GLY:544:CA:9886, V-A:GLU:543:CG:4907, V-B:TYR:539:CD2:9846, H-A:SER:385:OG:3410, V-B:GLU:543:CD:9880, V-B:HIS:456:CG:9037, V-A:SER:385:CB:3409, V-A:LEU:475:CD2:4259, V-A:ARG:545:CZ:4926, H-A:GLU:543:OE1:4909, H-B:ARG:545:NH2:9900, V-A:GLU:543:CB:4906, H-A:ARG:545:NE:4924, V-B:ALA:541:CA:9862, H-A:TYR:484:OH:4348"]

$$$$
ZINC1704328697
     RDKit          3D

 97100  0  0  0  0  0  0  0  0999 V2000
  128.2600  133.6220   62.4780 C   0  0  0  0  0  0  0  0  0  0  0  0
  129.1720  133.6270   61.3850 O   0  0  0  0  0  0  0  0  0  0  0  0
  129.6090  132.4240   60.8660 C   0  0  0  0  0  0  0  0  0  0  0  0
  130.3180  131.4570   61.5960 C   0  0  0  0  0  0  0  0  0  0  0  0
  130.7190  130.2710   60.9860 C   0  0  0  0  0  0  0  0  0  0  0  0
  130.4190  130.0400   59.6420 C   0  0  0  0  0  0  0  0  0  0  0  0
  130.8690  128.7440   58.9750 C   0  0  0  0  0  0  0  0  0  0  0  0
  130.4440  127.4950   59.7920 C   0  0  2  0  0  0  0  0  0  0  0  0
  129.2170  127.6960   60.5790 N   0  0  0  0  0  0  0  0  0  0  0  0
  128.2010  126.8300   60.7730 C   0  0  0  0  0  0  0  0  0  0  0  0
  127.1880  127.1500   61.3930 O   0  0  0  0  0  0  0  0  0  0  0  0
  128.3000  125.4010   60.1750 C   0  0  2  0  0  0  0  0  0  0  0  0
  128.1410  125.4590   58.6310 C   0  0  0  0  0  0  0  0  0  0  0  0
  127.6360  124.1440   57.9900 C   0  0  0  0  0  0  0  0  0  0  0  0
  126.1090  123.9950   58.1610 C   0  0  0  0  0  0  0  0  0  0  0  0
  128.3890  122.8950   58.4920 C   0  0  0  0  0  0  0  0  0  0  0  0
  127.3200  124.4290   60.6780 N   0  0  0  0  0  0  0  0  0  0  0  0
  127.4610  123.2570   61.3260 C   0  0  0  0  0  0  0  0  0  0  0  0
  126.4740  122.5480   61.4940 O   0  0  0  0  0  0  0  0  0  0  0  0
  128.8060  122.8180   61.9420 C   0  0  0  0  0  0  0  0  0  0  0  0
  129.8420  123.8730   61.9100 N   0  0  0  0  0  0  0  0  0  0  0  0
  130.0830  124.7480   62.9320 C   0  0  0  0  0  0  0  0  0  0  0  0
  129.7170  125.9240   62.8850 O   0  0  0  0  0  0  0  0  0  0  0  0
  130.7990  124.2710   64.2170 C   0  0  0  0  0  0  0  0  0  0  0  0
  129.8510  123.9520   65.3980 C   0  0  0  0  0  0  0  0  0  0  0  0
  129.5910  125.1670   66.2640 C   0  0  0  0  0  0  0  0  0  0  0  0
  129.7430  125.1340   67.5600 N   0  0  0  0  0  0  0  0  0  0  0  0
  129.4740  126.3340   68.1390 C   0  0  0  0  0  0  0  0  0  0  0  0
  129.5510  126.5990   69.5150 C   0  0  0  0  0  0  0  0  0  0  0  0
  129.2410  127.8860   69.9610 C   0  0  0  0  0  0  0  0  0  0  0  0
  128.8630  128.8910   69.0700 C   0  0  0  0  0  0  0  0  0  0  0  0
  128.7820  128.6520   67.6970 C   0  0  0  0  0  0  0  0  0  0  0  0
  129.0910  127.3630   67.2390 C   0  0  0  0  0  0  0  0  0  0  0  0
  129.0970  126.7160   65.6060 S   0  0  0  0  0  0  0  0  0  0  0  0
  130.6990  123.8860   60.7030 C   0  0  0  0  0  0  0  0  0  0  0  0
  132.0980  123.2120   60.8930 C   0  0  2  0  0  0  0  0  0  0  0  0
  133.0130  123.8990   61.9570 C   0  0  0  0  0  0  0  0  0  0  0  0
  134.4090  124.2800   61.4100 C   0  0  0  0  0  0  0  0  0  0  0  0
  133.1840  123.0440   63.2320 C   0  0  0  0  0  0  0  0  0  0  0  0
  132.7810  123.0930   59.5950 N   0  0  0  0  0  0  0  0  0  0  0  0
  133.0250  123.9950   58.6220 C   0  0  0  0  0  0  0  0  0  0  0  0
  133.6570  123.6680   57.6190 O   0  0  0  0  0  0  0  0  0  0  0  0
  132.5370  125.4570   58.6890 C   0  0  1  0  0  0  0  0  0  0  0  0
  131.1360  125.5770   58.0690 C   0  0  0  0  0  0  0  0  0  0  0  0
  132.5090  126.0480   60.0270 N   0  0  0  0  0  0  0  0  0  0  0  0
  131.6280  126.8970   60.5850 C   0  0  0  0  0  0  0  0  0  0  0  0
  131.7520  127.2420   61.7590 O   0  0  0  0  0  0  0  0  0  0  0  0
  129.7130  130.9970   58.9120 C   0  0  0  0  0  0  0  0  0  0  0  0
  129.3140  132.1820   59.5230 C   0  0  0  0  0  0  0  0  0  0  0  0
  128.8214  133.6251   63.4240 H   0  0  0  0  0  0  0  0  0  0  0  0
  127.6220  134.5167   62.4273 H   0  0  0  0  0  0  0  0  0  0  0  0
  127.6319  132.7204   62.4273 H   0  0  0  0  0  0  0  0  0  0  0  0
  130.5579  131.6368   62.6544 H   0  0  0  0  0  0  0  0  0  0  0  0
  131.2724  129.5157   61.5633 H   0  0  0  0  0  0  0  0  0  0  0  0
  130.4180  128.6842   57.9735 H   0  0  0  0  0  0  0  0  0  0  0  0
  131.9673  128.7548   58.9152 H   0  0  0  0  0  0  0  0  0  0  0  0
  130.1564  126.7215   59.0646 H   0  0  0  0  0  0  0  0  0  0  0  0
  129.1280  128.6150   60.9870 H   0  0  0  0  0  0  0  0  0  0  0  0
  129.2924  125.0481   60.4923 H   0  0  0  0  0  0  0  0  0  0  0  0
  127.4239  126.2572   58.3888 H   0  0  0  0  0  0  0  0  0  0  0  0
  129.1441  125.6438   58.2190 H   0  0  0  0  0  0  0  0  0  0  0  0
  127.8568  124.2156   56.9148 H   0  0  0  0  0  0  0  0  0  0  0  0
  125.8607  123.9708   59.2323 H   0  0  0  0  0  0  0  0  0  0  0  0
  125.6019  124.8479   57.6863 H   0  0  0  0  0  0  0  0  0  0  0  0
  125.7764  123.0601   57.6863 H   0  0  0  0  0  0  0  0  0  0  0  0
  128.3937  122.8872   59.5920 H   0  0  0  0  0  0  0  0  0  0  0  0
  127.8860  121.9898   58.1210 H   0  0  0  0  0  0  0  0  0  0  0  0
  129.4243  122.9173   58.1210 H   0  0  0  0  0  0  0  0  0  0  0  0
  126.3780  124.6530   60.3930 H   0  0  0  0  0  0  0  0  0  0  0  0
  128.6322  122.5324   62.9900 H   0  0  0  0  0  0  0  0  0  0  0  0
  129.1802  121.9788   61.3373 H   0  0  0  0  0  0  0  0  0  0  0  0
  131.3667  123.3601   63.9762 H   0  0  0  0  0  0  0  0  0  0  0  0
  131.4399  125.1024   64.5455 H   0  0  0  0  0  0  0  0  0  0  0  0
  128.8927  123.5912   64.9961 H   0  0  0  0  0  0  0  0  0  0  0  0
  130.3346  123.1873   66.0236 H   0  0  0  0  0  0  0  0  0  0  0  0
  129.8481  125.8128   70.2247 H   0  0  0  0  0  0  0  0  0  0  0  0
  129.2960  128.1117   71.0362 H   0  0  0  0  0  0  0  0  0  0  0  0
  128.6239  129.8924   69.4574 H   0  0  0  0  0  0  0  0  0  0  0  0
  128.4858  129.4479   66.9979 H   0  0  0  0  0  0  0  0  0  0  0  0
  130.1682  123.3550   59.8991 H   0  0  0  0  0  0  0  0  0  0  0  0
  130.8907  124.9431   60.4669 H   0  0  0  0  0  0  0  0  0  0  0  0
  131.9007  122.2102   61.3022 H   0  0  0  0  0  0  0  0  0  0  0  0
  132.4821  124.8267   62.2167 H   0  0  0  0  0  0  0  0  0  0  0  0
  135.0936  124.4669   62.2504 H   0  0  0  0  0  0  0  0  0  0  0  0
  134.7995  123.4556   60.7953 H   0  0  0  0  0  0  0  0  0  0  0  0
  134.3265  125.1885   60.7953 H   0  0  0  0  0  0  0  0  0  0  0  0
  133.0567  123.6805   64.1201 H   0  0  0  0  0  0  0  0  0  0  0  0
  132.4278  122.2452   63.2419 H   0  0  0  0  0  0  0  0  0  0  0  0
  134.1892  122.5975   63.2419 H   0  0  0  0  0  0  0  0  0  0  0  0
  133.1320  122.1630   59.4160 H   0  0  0  0  0  0  0  0  0  0  0  0
  133.2866  126.0250   58.1185 H   0  0  0  0  0  0  0  0  0  0  0  0
  130.3848  125.6413   58.8700 H   0  0  0  0  0  0  0  0  0  0  0  0
  131.0868  126.4826   57.4466 H   0  0  0  0  0  0  0  0  0  0  0  0
  130.9335  124.6929   57.4466 H   0  0  0  0  0  0  0  0  0  0  0  0
  133.2610  125.7290   60.6200 H   0  0  0  0  0  0  0  0  0  0  0  0
  129.4720  130.8149   57.8543 H   0  0  0  0  0  0  0  0  0  0  0  0
  128.7610  132.9350   58.9424 H   0  0  0  0  0  0  0  0  0  0  0  0
  1  2  1  0
  2  3  1  0
  3  4  2  0
  4  5  1  0
  5  6  2  0
  6  7  1  0
  7  8  1  0
  8  9  1  0
  9 10  1  0
 10 11  2  0
 10 12  1  0
 12 13  1  0
 13 14  1  0
 14 15  1  0
 14 16  1  0
 12 17  1  0
 17 18  1  0
 18 19  2  0
 18 20  1  0
 20 21  1  0
 21 22  1  0
 22 23  2  0
 22 24  1  0
 24 25  1  0
 25 26  1  0
 26 27  2  0
 27 28  1  0
 28 29  2  0
 29 30  1  0
 30 31  2  0
 31 32  1  0
 32 33  2  0
 33 34  1  0
 21 35  1  0
 35 36  1  0
 36 37  1  0
 37 38  1  0
 37 39  1  0
 36 40  1  0
 40 41  1  0
 41 42  2  0
 41 43  1  0
 43 44  1  0
 43 45  1  0
 45 46  1  0
 46 47  2  0
  6 48  1  0
 48 49  2  0
 49  3  1  0
 46  8  1  0
 34 26  1  0
 33 28  1  0
  1 50  1  0
  1 51  1  0
  1 52  1  0
  4 53  1  0
  5 54  1  0
  7 55  1  0
  7 56  1  0
  8 57  1  6
  9 58  1  0
 12 59  1  6
 13 60  1  0
 13 61  1  0
 14 62  1  0
 15 63  1  0
 15 64  1  0
 15 65  1  0
 16 66  1  0
 16 67  1  0
 16 68  1  0
 17 69  1  0
 20 70  1  0
 20 71  1  0
 24 72  1  0
 24 73  1  0
 25 74  1  0
 25 75  1  0
 29 76  1  0
 30 77  1  0
 31 78  1  0
 32 79  1  0
 35 80  1  0
 35 81  1  0
 36 82  1  1
 37 83  1  0
 38 84  1  0
 38 85  1  0
 38 86  1  0
 39 87  1  0
 39 88  1  0
 39 89  1  0
 40 90  1  0
 43 91  1  6
 44 92  1  0
 44 93  1  0
 44 94  1  0
 45 95  1  0
 48 96  1  0
 49 97  1  0
M  END
>  <Binding energies>  (1) 
[-5.22]

>  <Ligand effiencies>  (1) 
[-0.0949090909090909]

>  <Interactions>  (1) 
["V-A:ILE:369:CG2:3237, V-A:ASP:366:CA:3210, V-B:PRO:540:CA:9855, V-A:GLU:543:CA:4904, V-A:GLY:454:CA:4049, V-A:GLU:543:C:4902, H-A:ALA:541:N:4891, V-B:GLU:543:CB:9878, V-B:ALA:541:CB:9864, V-B:TYR:539:CE2:9848, V-A:TYR:484:CE2:4346, V-B:LEU:475:CD2:9230, V-B:GLU:543:CG:9879, V-B:TYR:539:C:9839, V-A:ASP:366:CG:3213, V-B:TYR:539:CZ:9849, H-A:ASN:370:N:3244, H-B:GLU:543:OE1:9881, H-B:TYR:539:OH:9850, V-A:ALA:541:CB:4892, H-B:ALA:541:N:9863, V-A:GLU:543:CD:4908, V-B:PRO:540:CB:9857, H-B:ASP:366:OD1:8185, V-B:GLU:543:CA:9876, V-B:HIS:456:CE1:9041, V-B:PRO:540:N:9856, V-A:HIS:456:CE1:4070, V-A:ILE:369:CD1:3239, V-B:TYR:539:CD2:9846, V-A:GLU:543:CG:4907, V-B:GLU:543:CD:9880, V-A:ASP:366:CB:3212, V-A:LEU:475:CD2:4259, H-A:ARG:545:NH2:4928, V-B:TYR:539:CG:9844, V-A:GLU:543:CB:4906, H-A:ASP:366:OD1:3214, V-A:PRO:540:CA:4883, H-A:ASP:366:OD2:3215"]

$$$$
ZINC1704341984
     RDKit          3D

115120  0  0  0  0  0  0  0  0999 V2000
  128.5220  126.9660   58.6500 C   0  0  0  0  0  0  0  0  0  0  0  0
  129.2230  127.1130   57.2830 C   0  0  0  0  0  0  0  0  0  0  0  0
  129.8440  125.7780   56.8190 C   0  0  0  0  0  0  0  0  0  0  0  0
  130.2510  128.2690   57.2970 C   0  0  0  0  0  0  0  0  0  0  0  0
  131.3860  128.1730   58.3550 C   0  0  1  0  0  0  0  0  0  0  0  0
  130.7540  128.3850   59.6680 N   0  0  0  0  0  0  0  0  0  0  0  0
  129.6440  129.0470   60.0630 C   0  0  0  0  0  0  0  0  0  0  0  0
  129.2500  128.9440   61.2230 O   0  0  0  0  0  0  0  0  0  0  0  0
  128.8320  129.9930   59.1450 C   0  0  2  0  0  0  0  0  0  0  0  0
  129.3480  131.4470   59.1540 C   0  0  0  0  0  0  0  0  0  0  0  0
  130.8260  131.6220   59.3540 C   0  0  0  0  0  0  0  0  0  0  0  0
  131.7470  131.6660   58.3630 C   0  0  0  0  0  0  0  0  0  0  0  0
  133.0090  131.7830   58.9070 N   0  0  0  0  0  0  0  0  0  0  0  0
  132.9710  131.8010   60.2850 C   0  0  0  0  0  0  0  0  0  0  0  0
  133.9620  131.8890   61.2790 C   0  0  0  0  0  0  0  0  0  0  0  0
  133.5800  131.8680   62.6330 C   0  0  0  0  0  0  0  0  0  0  0  0
  132.2180  131.7610   62.9770 C   0  0  0  0  0  0  0  0  0  0  0  0
  131.2360  131.6770   61.9690 C   0  0  0  0  0  0  0  0  0  0  0  0
  131.5820  131.6940   60.6000 C   0  0  0  0  0  0  0  0  0  0  0  0
  127.3890  129.9860   59.3680 N   0  0  0  0  0  0  0  0  0  0  0  0
  126.6330  130.7520   60.1800 C   0  0  0  0  0  0  0  0  0  0  0  0
  125.4210  130.5770   60.2240 O   0  0  0  0  0  0  0  0  0  0  0  0
  127.2510  131.8560   61.0740 C   0  0  1  0  0  0  0  0  0  0  0  0
  126.9410  133.2710   60.5460 C   0  0  0  0  0  0  0  0  0  0  0  0
  126.8930  131.6340   62.4930 N   0  0  0  0  0  0  0  0  0  0  0  0
  127.3620  130.7740   63.4310 C   0  0  0  0  0  0  0  0  0  0  0  0
  127.5720  131.1810   64.5740 O   0  0  0  0  0  0  0  0  0  0  0  0
  127.4690  129.2340   63.2190 C   0  0  1  0  0  0  0  0  0  0  0  0
  127.8370  128.4700   64.4180 N   0  0  0  0  0  0  0  0  0  0  0  0
  128.8890  127.6350   64.5330 C   0  0  0  0  0  0  0  0  0  0  0  0
  129.6610  127.3850   63.6070 O   0  0  0  0  0  0  0  0  0  0  0  0
  129.0720  127.0130   65.9000 C   0  0  0  0  0  0  0  0  0  0  0  0
  128.4190  127.5950   66.9990 C   0  0  0  0  0  0  0  0  0  0  0  0
  128.5700  127.0780   68.2840 C   0  0  0  0  0  0  0  0  0  0  0  0
  129.3840  125.9700   68.4980 C   0  0  0  0  0  0  0  0  0  0  0  0
  130.0410  125.3730   67.4270 C   0  0  0  0  0  0  0  0  0  0  0  0
  129.8860  125.8710   66.1260 C   0  0  0  0  0  0  0  0  0  0  0  0
  130.6100  125.2110   65.1060 N   0  0  0  0  0  0  0  0  0  0  0  0
  132.0520  125.4820   65.1110 C   0  0  0  0  0  0  0  0  0  0  0  0
  129.9350  124.5090   64.1380 C   0  0  0  0  0  0  0  0  0  0  0  0
  128.7560  124.7560   63.8600 O   0  0  0  0  0  0  0  0  0  0  0  0
  130.6100  123.4520   63.3890 C   0  0  0  0  0  0  0  0  0  0  0  0
  131.9660  123.1240   63.2470 C   0  0  0  0  0  0  0  0  0  0  0  0
  132.1970  122.0330   62.4010 C   0  0  0  0  0  0  0  0  0  0  0  0
  131.0300  121.4930   61.8880 C   0  0  0  0  0  0  0  0  0  0  0  0
  129.6330  122.3350   62.4710 S   0  0  0  0  0  0  0  0  0  0  0  0
  126.3010  128.5720   62.4290 C   0  0  0  0  0  0  0  0  0  0  0  0
  126.6660  127.7460   61.1700 C   0  0  0  0  0  0  0  0  0  0  0  0
  126.5550  126.2120   61.2990 C   0  0  0  0  0  0  0  0  0  0  0  0
  127.7790  125.4200   60.7880 C   0  0  0  0  0  0  0  0  0  0  0  0
  128.9880  125.7900   61.5190 N   0  0  0  0  0  0  0  0  0  0  0  0
  130.2310  125.9490   61.0290 C   0  0  0  0  0  0  0  0  0  0  0  0
  131.0880  126.4870   61.7300 O   0  0  0  0  0  0  0  0  0  0  0  0
  130.6220  125.3750   59.6330 C   0  0  2  0  0  0  0  0  0  0  0  0
  130.8640  123.8610   59.6960 C   0  0  0  0  0  0  0  0  0  0  0  0
  132.3330  123.6960   60.0740 C   0  0  1  0  0  0  0  0  0  0  0  0
  132.9060  122.4760   59.6480 O   0  0  0  0  0  0  0  0  0  0  0  0
  133.0410  124.9810   59.6140 C   0  0  0  0  0  0  0  0  0  0  0  0
  131.9410  125.8700   59.1900 N   0  0  0  0  0  0  0  0  0  0  0  0
  132.0680  126.7900   58.1940 C   0  0  0  0  0  0  0  0  0  0  0  0
  132.7120  126.5850   57.1610 O   0  0  0  0  0  0  0  0  0  0  0  0
  129.2545  127.1196   59.4561 H   0  0  0  0  0  0  0  0  0  0  0  0
  127.7216  127.7158   58.7341 H   0  0  0  0  0  0  0  0  0  0  0  0
  128.0902  125.9578   58.7341 H   0  0  0  0  0  0  0  0  0  0  0  0
  128.4569  127.3791   56.5398 H   0  0  0  0  0  0  0  0  0  0  0  0
  130.1230  125.1783   57.6979 H   0  0  0  0  0  0  0  0  0  0  0  0
  129.1114  125.2234   56.2142 H   0  0  0  0  0  0  0  0  0  0  0  0
  130.7401  125.9810   56.2142 H   0  0  0  0  0  0  0  0  0  0  0  0
  130.7221  128.3098   56.3038 H   0  0  0  0  0  0  0  0  0  0  0  0
  129.6762  129.1674   57.5663 H   0  0  0  0  0  0  0  0  0  0  0  0
  132.1773  128.9279   58.2370 H   0  0  0  0  0  0  0  0  0  0  0  0
  131.2150  127.8590   60.3950 H   0  0  0  0  0  0  0  0  0  0  0  0
  129.0035  129.5599   58.1485 H   0  0  0  0  0  0  0  0  0  0  0  0
  129.0830  131.9037   58.1890 H   0  0  0  0  0  0  0  0  0  0  0  0
  128.8735  131.9237   60.0244 H   0  0  0  0  0  0  0  0  0  0  0  0
  131.5230  131.6160   57.2872 H   0  0  0  0  0  0  0  0  0  0  0  0
  133.8440  131.8360   58.3400 H   0  0  0  0  0  0  0  0  0  0  0  0
  135.0230  131.9732   61.0012 H   0  0  0  0  0  0  0  0  0  0  0  0
  134.3437  131.9350   63.4218 H   0  0  0  0  0  0  0  0  0  0  0  0
  131.9198  131.7429   64.0357 H   0  0  0  0  0  0  0  0  0  0  0  0
  130.1769  131.5964   62.2552 H   0  0  0  0  0  0  0  0  0  0  0  0
  126.8990  129.2920   58.8210 H   0  0  0  0  0  0  0  0  0  0  0  0
  128.3475  131.7842   61.0231 H   0  0  0  0  0  0  0  0  0  0  0  0
  126.7913  133.9544   61.3948 H   0  0  0  0  0  0  0  0  0  0  0  0
  127.7826  133.6263   59.9332 H   0  0  0  0  0  0  0  0  0  0  0  0
  126.0279  133.2418   59.9332 H   0  0  0  0  0  0  0  0  0  0  0  0
  126.5650  132.5000   62.8940 H   0  0  0  0  0  0  0  0  0  0  0  0
  128.3330  129.1684   62.5414 H   0  0  0  0  0  0  0  0  0  0  0  0
  127.2480  128.6200   65.2250 H   0  0  0  0  0  0  0  0  0  0  0  0
  127.7771  128.4744   66.8424 H   0  0  0  0  0  0  0  0  0  0  0  0
  128.0453  127.5461   69.1299 H   0  0  0  0  0  0  0  0  0  0  0  0
  129.5079  125.5663   69.5137 H   0  0  0  0  0  0  0  0  0  0  0  0
  130.6886  124.5014   67.6029 H   0  0  0  0  0  0  0  0  0  0  0  0
  132.4089  125.5491   66.1493 H   0  0  0  0  0  0  0  0  0  0  0  0
  132.5800  124.6674   64.5937 H   0  0  0  0  0  0  0  0  0  0  0  0
  132.2482  126.4327   64.5937 H   0  0  0  0  0  0  0  0  0  0  0  0
  132.7734  123.6732   63.7535 H   0  0  0  0  0  0  0  0  0  0  0  0
  133.1999  121.6456   62.1683 H   0  0  0  0  0  0  0  0  0  0  0  0
  130.9944  120.6375   61.1975 H   0  0  0  0  0  0  0  0  0  0  0  0
  125.7736  127.9002   63.1222 H   0  0  0  0  0  0  0  0  0  0  0  0
  125.7071  129.4158   62.0478 H   0  0  0  0  0  0  0  0  0  0  0  0
  125.9967  128.0626   60.3565 H   0  0  0  0  0  0  0  0  0  0  0  0
  127.7320  127.9473   60.9877 H   0  0  0  0  0  0  0  0  0  0  0  0
  126.4119  125.9691   62.3623 H   0  0  0  0  0  0  0  0  0  0  0  0
  125.7093  125.9120   60.6628 H   0  0  0  0  0  0  0  0  0  0  0  0
  127.5927  124.3443   60.9231 H   0  0  0  0  0  0  0  0  0  0  0  0
  127.9283  125.6562   59.7241 H   0  0  0  0  0  0  0  0  0  0  0  0
  128.8290  126.1080   62.4630 H   0  0  0  0  0  0  0  0  0  0  0  0
  129.7924  125.6688   58.9731 H   0  0  0  0  0  0  0  0  0  0  0  0
  130.2175  123.4001   60.4573 H   0  0  0  0  0  0  0  0  0  0  0  0
  130.6325  123.3715   58.7385 H   0  0  0  0  0  0  0  0  0  0  0  0
  132.4573  123.5923   61.1620 H   0  0  0  0  0  0  0  0  0  0  0  0
  133.7530  122.3660   60.0860 H   0  0  0  0  0  0  0  0  0  0  0  0
  133.6090  125.4309   60.4416 H   0  0  0  0  0  0  0  0  0  0  0  0
  133.7671  124.7962   58.8086 H   0  0  0  0  0  0  0  0  0  0  0  0
  1  2  1  0
  2  3  1  0
  2  4  1  0
  4  5  1  0
  5  6  1  0
  6  7  1  0
  7  8  2  0
  7  9  1  0
  9 10  1  0
 10 11  1  0
 11 12  2  0
 12 13  1  0
 13 14  1  0
 14 15  2  0
 15 16  1  0
 16 17  2  0
 17 18  1  0
 18 19  2  0
  9 20  1  0
 20 21  1  0
 21 22  2  0
 21 23  1  0
 23 24  1  0
 23 25  1  0
 25 26  1  0
 26 27  2  0
 26 28  1  0
 28 29  1  0
 29 30  1  0
 30 31  2  0
 30 32  1  0
 32 33  2  0
 33 34  1  0
 34 35  2  0
 35 36  1  0
 36 37  2  0
 37 38  1  0
 38 39  1  0
 38 40  1  0
 40 41  2  0
 40 42  1  0
 42 43  2  0
 43 44  1  0
 44 45  2  0
 45 46  1  0
 28 47  1  0
 47 48  1  0
 48 49  1  0
 49 50  1  0
 50 51  1  0
 51 52  1  0
 52 53  2  0
 52 54  1  0
 54 55  1  0
 55 56  1  0
 56 57  1  0
 56 58  1  0
 58 59  1  0
 59 60  1  0
 60 61  2  0
 60  5  1  0
 19 11  1  0
 37 32  1  0
 46 42  1  0
 59 54  1  0
 19 14  1  0
  1 62  1  0
  1 63  1  0
  1 64  1  0
  2 65  1  0
  3 66  1  0
  3 67  1  0
  3 68  1  0
  4 69  1  0
  4 70  1  0
  5 71  1  6
  6 72  1  0
  9 73  1  6
 10 74  1  0
 10 75  1  0
 12 76  1  0
 13 77  1  0
 15 78  1  0
 16 79  1  0
 17 80  1  0
 18 81  1  0
 20 82  1  0
 23 83  1  1
 24 84  1  0
 24 85  1  0
 24 86  1  0
 25 87  1  0
 28 88  1  6
 29 89  1  0
 33 90  1  0
 34 91  1  0
 35 92  1  0
 36 93  1  0
 39 94  1  0
 39 95  1  0
 39 96  1  0
 43 97  1  0
 44 98  1  0
 45 99  1  0
 47100  1  0
 47101  1  0
 48102  1  0
 48103  1  0
 49104  1  0
 49105  1  0
 50106  1  0
 50107  1  0
 51108  1  0
 54109  1  6
 55110  1  0
 55111  1  0
 56112  1  1
 57113  1  0
 58114  1  0
 58115  1  0
M  END
>  <Binding energies>  (1) 
[-3.4]

>  <Ligand effiencies>  (1) 
[-0.04857142857142857]

>  <Interactions>  (1) 
["V-A:ASP:366:CA:3210, V-A:ALA:541:C:4888, V-B:GLU:543:C:9874, V-B:GLU:543:CB:9878, V-B:ALA:541:CB:9864, V-B:ASP:366:CG:8184, H-A:TYR:531:OH:4795, V-B:TYR:539:CE2:9848, V-A:TYR:484:CE2:4346, V-B:GLU:543:CG:9879, V-A:ASP:366:CG:3213, V-A:ASN:362:CB:3176, V-A:TYR:539:CD1:4873, V-A:LEU:363:CB:3187, V-A:LEU:363:CD1:3189, V-B:TYR:539:CZ:9849, H-B:GLU:543:OE1:9881, H-B:TYR:539:OH:9850, V-A:GLU:543:CD:4908, H-B:TYR:484:OH:9319, V-A:ASN:362:CG:3177, V-B:HIS:456:CE1:9041, V-B:GLU:543:CA:9876, V-A:HIS:456:CE1:4070, V-A:ALA:541:CA:4890, V-B:TYR:539:CD2:9846, V-A:TYR:531:CZ:4794, V-A:GLU:543:CG:4907, V-B:GLU:543:CD:9880, V-A:ASP:366:CB:3212, V-A:LEU:475:CD2:4259, H-A:ARG:545:NH2:4928, V-A:ASN:362:C:3172, V-A:ARG:545:CZ:4926, H-B:GLU:543:OE2:9882, V-A:PRO:540:CB:4885, V-A:PRO:540:CA:4883, V-A:LEU:363:CA:3185, V-A:ASN:362:CA:3174, H-A:ASP:366:OD2:3215, V-A:TYR:539:CE1:4875"]

$$$$
ZINC1704342284
     RDKit          3D

 93 98  0  0  0  0  0  0  0  0999 V2000
  133.9640  122.1190   62.6560 C   0  0  0  0  0  0  0  0  0  0  0  0
  133.4600  122.2140   61.2000 C   0  0  0  0  0  0  0  0  0  0  0  0
  133.4990  120.8280   60.5280 C   0  0  0  0  0  0  0  0  0  0  0  0
  134.2420  123.2560   60.3520 C   0  0  0  0  0  0  0  0  0  0  0  0
  133.4030  124.0620   59.3320 C   0  0  0  0  0  0  0  0  0  0  0  0
  133.7330  123.9890   58.1440 O   0  0  0  0  0  0  0  0  0  0  0  0
  132.3250  124.8000   59.7440 N   0  0  0  0  0  0  0  0  0  0  0  0
  131.5320  125.4860   58.6880 C   0  0  0  0  0  0  0  0  0  0  0  0
  130.1720  126.0630   59.1570 C   0  0  0  0  0  0  0  0  0  0  0  0
  130.2250  127.5600   59.5100 C   0  0  0  0  0  0  0  0  0  0  0  0
  129.5540  128.4720   58.5760 N   0  0  0  0  0  0  0  0  0  0  0  0
  130.1060  129.5850   58.0130 C   0  0  0  0  0  0  0  0  0  0  0  0
  129.7230  130.0370   56.9300 O   0  0  0  0  0  0  0  0  0  0  0  0
  131.2130  130.3260   58.7270 C   0  0  0  0  0  0  0  0  0  0  0  0
  132.4480  130.4790   58.0810 C   0  0  0  0  0  0  0  0  0  0  0  0
  133.5420  131.1090   58.6800 C   0  0  0  0  0  0  0  0  0  0  0  0
  133.3550  131.5770   59.9800 C   0  0  0  0  0  0  0  0  0  0  0  0
  134.1680  132.2200   60.8840 N   0  0  0  0  0  0  0  0  0  0  0  0
  133.4230  132.4140   62.0210 C   0  0  0  0  0  0  0  0  0  0  0  0
  132.2010  131.9550   61.9350 N   0  0  0  0  0  0  0  0  0  0  0  0
  132.1250  131.4290   60.6710 C   0  0  0  0  0  0  0  0  0  0  0  0
  131.0470  130.7920   60.0410 C   0  0  0  0  0  0  0  0  0  0  0  0
  128.1730  128.0780   58.2540 C   0  0  0  0  0  0  0  0  0  0  0  0
  127.2350  127.9360   59.4730 C   0  0  0  0  0  0  0  0  0  0  0  0
  126.7230  126.5090   59.7780 C   0  0  0  0  0  0  0  0  0  0  0  0
  127.3720  125.8020   60.9840 C   0  0  0  0  0  0  0  0  0  0  0  0
  127.8260  126.7550   61.9930 N   0  0  0  0  0  0  0  0  0  0  0  0
  128.9570  126.7960   62.7270 C   0  0  0  0  0  0  0  0  0  0  0  0
  129.1020  127.7160   63.5280 O   0  0  0  0  0  0  0  0  0  0  0  0
  130.0860  125.7240   62.6700 C   0  0  2  0  0  0  0  0  0  0  0  0
  131.0440  126.0980   61.5280 C   0  0  0  0  0  0  0  0  0  0  0  0
  131.8370  124.8340   61.1640 C   0  0  1  0  0  0  0  0  0  0  0  0
  130.8830  123.6950   61.6070 C   0  0  0  0  0  0  0  0  0  0  0  0
  129.7880  124.3020   62.3870 N   0  0  0  0  0  0  0  0  0  0  0  0
  128.7540  123.5060   62.7930 C   0  0  0  0  0  0  0  0  0  0  0  0
  127.8090  123.2630   62.0380 O   0  0  0  0  0  0  0  0  0  0  0  0
  128.7370  122.8410   64.1920 C   0  0  0  0  0  0  0  0  0  0  0  0
  129.9430  123.1910   65.1030 C   0  0  0  0  0  0  0  0  0  0  0  0
  129.7600  124.5070   65.8390 C   0  0  0  0  0  0  0  0  0  0  0  0
  129.9810  124.7570   67.1000 N   0  0  0  0  0  0  0  0  0  0  0  0
  129.5210  125.9910   67.2350 C   0  0  0  0  0  0  0  0  0  0  0  0
  129.5020  126.6950   68.5690 C   0  0  0  0  0  0  0  0  0  0  0  0
  128.3290  126.6680   69.3420 C   0  0  0  0  0  0  0  0  0  0  0  0
  128.2540  127.3380   70.5620 C   0  0  0  0  0  0  0  0  0  0  0  0
  129.3540  128.0470   71.0360 C   0  0  0  0  0  0  0  0  0  0  0  0
  130.5300  128.0810   70.2890 C   0  0  0  0  0  0  0  0  0  0  0  0
  130.6080  127.4120   69.0670 C   0  0  0  0  0  0  0  0  0  0  0  0
  131.7660  127.4930   68.3690 F   0  0  0  0  0  0  0  0  0  0  0  0
  129.0580  126.5420   66.1290 N   0  0  0  0  0  0  0  0  0  0  0  0
  129.2080  125.5450   65.1690 O   0  0  0  0  0  0  0  0  0  0  0  0
  133.1225  122.2776   63.3464 H   0  0  0  0  0  0  0  0  0  0  0  0
  134.3980  121.1232   62.8296 H   0  0  0  0  0  0  0  0  0  0  0  0
  134.7307  122.8884   62.8296 H   0  0  0  0  0  0  0  0  0  0  0  0
  132.4195  122.5679   61.2468 H   0  0  0  0  0  0  0  0  0  0  0  0
  133.5210  120.0460   61.3013 H   0  0  0  0  0  0  0  0  0  0  0  0
  132.6041  120.6990   59.9015 H   0  0  0  0  0  0  0  0  0  0  0  0
  134.3997  120.7495   59.9015 H   0  0  0  0  0  0  0  0  0  0  0  0
  134.7097  123.9715   61.0443 H   0  0  0  0  0  0  0  0  0  0  0  0
  134.9604  122.6755   59.7546 H   0  0  0  0  0  0  0  0  0  0  0  0
  132.1363  126.3161   58.2933 H   0  0  0  0  0  0  0  0  0  0  0  0
  131.2961  124.7191   57.9355 H   0  0  0  0  0  0  0  0  0  0  0  0
  129.4379  125.9221   58.3500 H   0  0  0  0  0  0  0  0  0  0  0  0
  129.8937  125.5253   60.0754 H   0  0  0  0  0  0  0  0  0  0  0  0
  129.7580  127.6883   60.4976 H   0  0  0  0  0  0  0  0  0  0  0  0
  131.2900  127.8329   59.4727 H   0  0  0  0  0  0  0  0  0  0  0  0
  132.5604  130.0865   57.0596 H   0  0  0  0  0  0  0  0  0  0  0  0
  134.5003  131.2294   58.1536 H   0  0  0  0  0  0  0  0  0  0  0  0
  135.1300  132.5120   60.7840 H   0  0  0  0  0  0  0  0  0  0  0  0
  133.8171  132.9094   62.9206 H   0  0  0  0  0  0  0  0  0  0  0  0
  130.0894  130.6597   60.5659 H   0  0  0  0  0  0  0  0  0  0  0  0
  127.7483  128.8393   57.5832 H   0  0  0  0  0  0  0  0  0  0  0  0
  128.2363  127.0798   57.7961 H   0  0  0  0  0  0  0  0  0  0  0  0
  127.7798  128.2936   60.3592 H   0  0  0  0  0  0  0  0  0  0  0  0
  126.3388  128.5235   59.2248 H   0  0  0  0  0  0  0  0  0  0  0  0
  125.6413  126.5728   59.9673 H   0  0  0  0  0  0  0  0  0  0  0  0
  126.9911  125.9036   58.8996 H   0  0  0  0  0  0  0  0  0  0  0  0
  126.6336  125.1260   61.4398 H   0  0  0  0  0  0  0  0  0  0  0  0
  128.2486  125.2448   60.6219 H   0  0  0  0  0  0  0  0  0  0  0  0
  127.1670  127.5000   62.1720 H   0  0  0  0  0  0  0  0  0  0  0  0
  130.4373  125.7579   63.7119 H   0  0  0  0  0  0  0  0  0  0  0  0
  130.4718  126.4474   60.6560 H   0  0  0  0  0  0  0  0  0  0  0  0
  131.7219  126.9070   61.8378 H   0  0  0  0  0  0  0  0  0  0  0  0
  132.8088  124.7549   61.6733 H   0  0  0  0  0  0  0  0  0  0  0  0
  130.4741  123.1842   60.7228 H   0  0  0  0  0  0  0  0  0  0  0  0
  131.4241  122.9553   62.2154 H   0  0  0  0  0  0  0  0  0  0  0  0
  127.8179  123.1561   64.7077 H   0  0  0  0  0  0  0  0  0  0  0  0
  128.7914  121.7566   64.0158 H   0  0  0  0  0  0  0  0  0  0  0  0
  130.0687  122.3880   65.8442 H   0  0  0  0  0  0  0  0  0  0  0  0
  130.8282  123.2918   64.4578 H   0  0  0  0  0  0  0  0  0  0  0  0
  127.4547  126.1084   68.9781 H   0  0  0  0  0  0  0  0  0  0  0  0
  127.3251  127.3064   71.1504 H   0  0  0  0  0  0  0  0  0  0  0  0
  129.2953  128.5788   71.9971 H   0  0  0  0  0  0  0  0  0  0  0  0
  131.4010  128.6380   70.6646 H   0  0  0  0  0  0  0  0  0  0  0  0
  1  2  1  0
  2  3  1  0
  2  4  1  0
  4  5  1  0
  5  6  2  0
  5  7  1  0
  7  8  1  0
  8  9  1  0
  9 10  1  0
 10 11  1  0
 11 12  1  0
 12 13  2  0
 12 14  1  0
 14 15  2  0
 15 16  1  0
 16 17  2  0
 17 18  1  0
 18 19  1  0
 19 20  2  0
 20 21  1  0
 21 22  2  0
 11 23  1  0
 23 24  1  0
 24 25  1  0
 25 26  1  0
 26 27  1  0
 27 28  1  0
 28 29  2  0
 28 30  1  0
 30 31  1  0
 31 32  1  0
 32 33  1  0
 33 34  1  0
 34 35  1  0
 35 36  2  0
 35 37  1  0
 37 38  1  0
 38 39  1  0
 39 40  2  0
 40 41  1  0
 41 42  1  0
 42 43  2  0
 43 44  1  0
 44 45  2  0
 45 46  1  0
 46 47  2  0
 47 48  1  0
 41 49  2  0
 49 50  1  0
 32  7  1  0
 50 39  1  0
 22 14  1  0
 34 30  1  0
 47 42  1  0
 21 17  1  0
  1 51  1  0
  1 52  1  0
  1 53  1  0
  2 54  1  0
  3 55  1  0
  3 56  1  0
  3 57  1  0
  4 58  1  0
  4 59  1  0
  8 60  1  0
  8 61  1  0
  9 62  1  0
  9 63  1  0
 10 64  1  0
 10 65  1  0
 15 66  1  0
 16 67  1  0
 18 68  1  0
 19 69  1  0
 22 70  1  0
 23 71  1  0
 23 72  1  0
 24 73  1  0
 24 74  1  0
 25 75  1  0
 25 76  1  0
 26 77  1  0
 26 78  1  0
 27 79  1  0
 30 80  1  1
 31 81  1  0
 31 82  1  0
 32 83  1  1
 33 84  1  0
 33 85  1  0
 37 86  1  0
 37 87  1  0
 38 88  1  0
 38 89  1  0
 43 90  1  0
 44 91  1  0
 45 92  1  0
 46 93  1  0
M  END
>  <Binding energies>  (1) 
[-6.85]

>  <Ligand effiencies>  (1) 
[-0.12685185185185185]

>  <Interactions>  (1) 
["V-A:ILE:369:CG2:3237, V-A:ASP:366:CA:3210, V-A:ALA:541:C:4888, V-A:GLY:454:CA:4049, V-B:GLU:543:C:9874, V-A:ILE:369:CB:3236, V-B:HIS:456:CD2:9039, H-A:ALA:541:N:4891, V-A:GLU:543:C:4902, V-A:PRO:540:C:4881, V-B:GLU:543:CB:9878, H-A:ASN:362:O:3173, V-B:ALA:541:CB:9864, H-A:TYR:531:OH:4795, V-B:TYR:539:CE2:9848, V-A:TYR:484:CE2:4346, V-B:GLU:543:CG:9879, V-A:GLY:544:C:4912, V-A:ASP:366:CG:3213, V-A:ASN:362:CB:3176, V-A:LEU:363:CD1:3189, V-A:LEU:363:CB:3187, H-A:ASN:359:O:3148, H-B:GLU:543:OE1:9881, H-B:TYR:539:OH:9850, H-B:ALA:541:N:9863, V-A:TYR:484:CZ:4347, V-A:GLU:543:CD:4908, V-B:HIS:456:CE1:9041, V-A:ARG:545:CG:4922, V-A:ILE:369:CD1:3239, V-A:HIS:456:CE1:4070, V-A:GLU:543:CG:4907, V-A:SER:385:CB:3409, V-B:GLU:543:CD:9880, V-A:ILE:369:CG1:3238, V-A:ASP:366:CB:3212, V-A:LEU:475:CD2:4259, V-A:ASN:362:C:3172, V-A:GLU:543:CB:4906, H-B:GLU:543:OE2:9882, V-A:LEU:363:CA:3185, V-A:PRO:540:CB:4885, V-A:PRO:540:CA:4883, V-A:SER:385:CA:3407, H-A:TYR:484:OH:4348"]

$$$$
ZINC1705484851
     RDKit          3D

 54 56  0  0  0  0  0  0  0  0999 V2000
  133.5750  124.3980   59.2330 C   0  0  0  0  0  0  0  0  0  0  0  0
  133.1180  123.5230   59.9550 C   0  0  0  0  0  0  0  0  0  0  0  0
  132.5660  122.4850   60.8530 C   0  0  1  0  0  0  0  0  0  0  0  0
  132.4990  121.0850   60.2110 C   0  0  0  0  0  0  0  0  0  0  0  0
  133.2030  122.4870   62.1820 N   0  0  0  0  0  0  0  0  0  0  0  0
  133.9830  121.2990   62.5440 C   0  0  0  0  0  0  0  0  0  0  0  0
  132.9080  123.4720   63.1080 C   0  0  0  0  0  0  0  0  0  0  0  0
  133.7790  124.3550   63.5320 N   0  0  0  0  0  0  0  0  0  0  0  0
  133.1270  125.1870   64.4290 N   0  0  0  0  0  0  0  0  0  0  0  0
  131.8960  124.7520   64.5560 C   0  0  0  0  0  0  0  0  0  0  0  0
  130.8980  125.4300   65.4420 C   0  0  0  0  0  0  0  0  0  0  0  0
  129.8700  126.2210   64.9220 C   0  0  0  0  0  0  0  0  0  0  0  0
  128.9510  126.8310   65.7700 C   0  0  0  0  0  0  0  0  0  0  0  0
  129.0480  126.6460   67.1510 C   0  0  0  0  0  0  0  0  0  0  0  0
  128.0470  127.3130   68.0820 C   0  0  0  0  0  0  0  0  0  0  0  0
  128.5190  127.3320   69.5420 C   0  0  0  0  0  0  0  0  0  0  0  0
  130.0630  125.8460   67.6770 C   0  0  0  0  0  0  0  0  0  0  0  0
  130.9820  125.2380   66.8250 C   0  0  0  0  0  0  0  0  0  0  0  0
  131.6830  123.6510   63.7370 N   0  0  0  0  0  0  0  0  0  0  0  0
  130.4530  122.8570   63.5900 C   0  0  0  0  0  0  0  0  0  0  0  0
  129.6750  123.1800   62.2830 C   0  0  2  0  0  0  0  0  0  0  0  0
  128.4210  124.0290   62.5860 C   0  0  0  0  0  0  0  0  0  0  0  0
  127.7100  124.5410   61.3220 C   0  0  0  0  0  0  0  0  0  0  0  0
  127.2230  123.3910   60.4240 C   0  0  0  0  0  0  0  0  0  0  0  0
  128.5870  122.3400   59.8370 S   0  0  0  0  0  0  0  0  0  0  0  0
  129.2970  121.9230   61.4620 C   0  0  0  0  0  0  0  0  0  0  0  0
  133.9860  125.1850   58.5836 H   0  0  0  0  0  0  0  0  0  0  0  0
  131.5162  122.7676   61.0207 H   0  0  0  0  0  0  0  0  0  0  0  0
  132.4624  120.3206   61.0012 H   0  0  0  0  0  0  0  0  0  0  0  0
  131.5963  121.0106   59.5869 H   0  0  0  0  0  0  0  0  0  0  0  0
  133.3905  120.9248   59.5869 H   0  0  0  0  0  0  0  0  0  0  0  0
  134.0375  121.2160   63.6395 H   0  0  0  0  0  0  0  0  0  0  0  0
  133.4975  120.4020   62.1320 H   0  0  0  0  0  0  0  0  0  0  0  0
  134.9990  121.3879   62.1320 H   0  0  0  0  0  0  0  0  0  0  0  0
  129.7868  126.3624   63.8343 H   0  0  0  0  0  0  0  0  0  0  0  0
  128.1491  127.4582   65.3534 H   0  0  0  0  0  0  0  0  0  0  0  0
  127.8926  128.3498   67.7484 H   0  0  0  0  0  0  0  0  0  0  0  0
  127.1151  126.7299   68.0412 H   0  0  0  0  0  0  0  0  0  0  0  0
  127.6459  127.2969   70.2101 H   0  0  0  0  0  0  0  0  0  0  0  0
  129.1609  126.4590   69.7312 H   0  0  0  0  0  0  0  0  0  0  0  0
  129.0886  128.2538   69.7312 H   0  0  0  0  0  0  0  0  0  0  0  0
  130.1374  125.6955   68.7641 H   0  0  0  0  0  0  0  0  0  0  0  0
  131.7780  124.6035   67.2419 H   0  0  0  0  0  0  0  0  0  0  0  0
  130.7227  121.7906   63.5831 H   0  0  0  0  0  0  0  0  0  0  0  0
  129.7956  123.1084   64.4354 H   0  0  0  0  0  0  0  0  0  0  0  0
  130.3645  123.7629   61.6547 H   0  0  0  0  0  0  0  0  0  0  0  0
  127.7127  123.4126   63.1590 H   0  0  0  0  0  0  0  0  0  0  0  0
  128.7552  124.9118   63.1507 H   0  0  0  0  0  0  0  0  0  0  0  0
  126.8427  125.1465   61.6239 H   0  0  0  0  0  0  0  0  0  0  0  0
  128.4328  125.1371   60.7456 H   0  0  0  0  0  0  0  0  0  0  0  0
  126.5200  122.7690   60.9975 H   0  0  0  0  0  0  0  0  0  0  0  0
  126.7411  123.8371   59.5415 H   0  0  0  0  0  0  0  0  0  0  0  0
  128.5583  121.3391   62.0306 H   0  0  0  0  0  0  0  0  0  0  0  0
  130.2183  121.3480   61.2871 H   0  0  0  0  0  0  0  0  0  0  0  0
  1  2  3  0
  2  3  1  0
  3  4  1  0
  3  5  1  0
  5  6  1  0
  5  7  1  0
  7  8  2  0
  8  9  1  0
  9 10  2  0
 10 11  1  0
 11 12  2  0
 12 13  1  0
 13 14  2  0
 14 15  1  0
 15 16  1  0
 14 17  1  0
 17 18  2  0
 10 19  1  0
 19 20  1  0
 20 21  1  0
 21 22  1  0
 22 23  1  0
 23 24  1  0
 24 25  1  0
 25 26  1  0
 19  7  1  0
 26 21  1  0
 18 11  1  0
  1 27  1  0
  3 28  1  1
  4 29  1  0
  4 30  1  0
  4 31  1  0
  6 32  1  0
  6 33  1  0
  6 34  1  0
 12 35  1  0
 13 36  1  0
 15 37  1  0
 15 38  1  0
 16 39  1  0
 16 40  1  0
 16 41  1  0
 17 42  1  0
 18 43  1  0
 20 44  1  0
 20 45  1  0
 21 46  1  6
 22 47  1  0
 22 48  1  0
 23 49  1  0
 23 50  1  0
 24 51  1  0
 24 52  1  0
 26 53  1  0
 26 54  1  0
M  END
>  <Binding energies>  (1) 
[-7.04]

>  <Ligand effiencies>  (1) 
[-0.27076923076923076]

>  <Interactions>  (1) 
["V-A:ILE:369:CG2:3237, V-A:ASP:366:CA:3210, V-B:PRO:540:CA:9855, V-A:GLY:454:CA:4049, V-A:ILE:369:CB:3236, V-B:GLU:543:CB:9878, V-B:ALA:541:CB:9864, V-B:TYR:539:CE2:9848, V-A:TYR:484:CE2:4346, V-B:GLU:543:CG:9879, V-A:ASP:366:CG:3213, V-A:GLU:543:CD:4908, V-B:PRO:540:CB:9857, V-A:TYR:484:CZ:4347, V-B:HIS:456:CE1:9041, H-A:GLY:454:N:4050, V-A:SER:385:C:3405, V-A:HIS:456:CE1:4070, V-B:TYR:539:CD2:9846, V-A:SER:385:CB:3409, V-B:GLU:543:CD:9880, V-A:ASP:366:CB:3212, V-A:LEU:475:CD2:4259, H-A:ARG:545:NH2:4928, H-A:ARG:545:NE:4924, V-A:SER:385:CA:3407, H-A:TYR:484:OH:4348"]

$$$$
ZINC1705715750
     RDKit          3D

 57 59  0  0  0  0  0  0  0  0999 V2000
  130.2020  124.3200   65.8350 C   0  0  0  0  0  0  0  0  0  0  0  0
  130.4750  124.5660   64.5410 C   0  0  0  0  0  0  0  0  0  0  0  0
  131.8980  124.7450   64.0380 C   0  0  0  0  0  0  0  0  0  0  0  0
  129.3720  124.7010   63.4970 C   0  0  0  0  0  0  0  0  0  0  0  0
  128.9760  123.4870   62.7740 N   0  0  0  0  0  0  0  0  0  0  0  0
  129.8910  122.3590   62.9920 C   0  0  0  0  0  0  0  0  0  0  0  0
  129.8720  121.2900   61.8880 C   0  0  0  0  0  0  0  0  0  0  0  0
  128.1010  123.5520   61.7050 C   0  0  0  0  0  0  0  0  0  0  0  0
  126.9320  122.9620   61.6660 N   0  0  0  0  0  0  0  0  0  0  0  0
  126.3810  123.2170   60.4180 N   0  0  0  0  0  0  0  0  0  0  0  0
  127.2180  123.9850   59.7610 C   0  0  0  0  0  0  0  0  0  0  0  0
  127.0170  124.4710   58.3200 C   0  0  0  0  0  0  0  0  0  0  0  0
  127.9870  123.7770   57.3540 C   0  0  0  0  0  0  0  0  0  0  0  0
  127.2910  122.4680   56.9550 C   0  0  0  0  0  0  0  0  0  0  0  0
  125.7820  122.7180   57.1220 C   0  0  0  0  0  0  0  0  0  0  0  0
  125.6390  124.1210   57.7350 C   0  0  0  0  0  0  0  0  0  0  0  0
  128.3370  124.2510   60.5310 N   0  0  0  0  0  0  0  0  0  0  0  0
  129.4580  125.1440   60.2070 C   0  0  0  0  0  0  0  0  0  0  0  0
  130.8110  124.5490   60.6580 C   0  0  0  0  0  0  0  0  0  0  0  0
  131.8610  124.5170   59.5620 C   0  0  0  0  0  0  0  0  0  0  0  0
  132.8950  123.5870   59.3760 C   0  0  0  0  0  0  0  0  0  0  0  0
  133.2350  122.3700   60.2090 C   0  0  0  0  0  0  0  0  0  0  0  0
  133.6260  123.8540   58.3180 N   0  0  0  0  0  0  0  0  0  0  0  0
  133.0840  125.0010   57.7500 O   0  0  0  0  0  0  0  0  0  0  0  0
  132.0280  125.3930   58.5010 C   0  0  0  0  0  0  0  0  0  0  0  0
  131.2960  126.6210   58.0260 C   0  0  0  0  0  0  0  0  0  0  0  0
  129.1595  124.1960   66.1632 H   0  0  0  0  0  0  0  0  0  0  0  0
  131.0213  124.2429   66.5649 H   0  0  0  0  0  0  0  0  0  0  0  0
  132.5818  124.8310   64.8953 H   0  0  0  0  0  0  0  0  0  0  0  0
  132.1831  123.8756   63.4273 H   0  0  0  0  0  0  0  0  0  0  0  0
  131.9589  125.6579   63.4273 H   0  0  0  0  0  0  0  0  0  0  0  0
  128.4781  125.0868   64.0090 H   0  0  0  0  0  0  0  0  0  0  0  0
  129.7929  125.3635   62.7263 H   0  0  0  0  0  0  0  0  0  0  0  0
  130.9137  122.7573   63.0648 H   0  0  0  0  0  0  0  0  0  0  0  0
  129.5527  121.8597   63.9119 H   0  0  0  0  0  0  0  0  0  0  0  0
  129.8542  120.2901   62.3461 H   0  0  0  0  0  0  0  0  0  0  0  0
  128.9761  121.4234   61.2639 H   0  0  0  0  0  0  0  0  0  0  0  0
  130.7721  121.3914   61.2639 H   0  0  0  0  0  0  0  0  0  0  0  0
  127.1625  125.5586   58.3969 H   0  0  0  0  0  0  0  0  0  0  0  0
  128.1645  124.4049   56.4684 H   0  0  0  0  0  0  0  0  0  0  0  0
  128.9684  123.5961   57.8167 H   0  0  0  0  0  0  0  0  0  0  0  0
  127.5227  122.2159   55.9096 H   0  0  0  0  0  0  0  0  0  0  0  0
  127.6300  121.6270   57.5777 H   0  0  0  0  0  0  0  0  0  0  0  0
  125.2792  122.6770   56.1445 H   0  0  0  0  0  0  0  0  0  0  0  0
  125.3200  121.9536   57.7641 H   0  0  0  0  0  0  0  0  0  0  0  0
  125.3565  124.8493   56.9606 H   0  0  0  0  0  0  0  0  0  0  0  0
  124.8559  124.1452   58.5071 H   0  0  0  0  0  0  0  0  0  0  0  0
  129.4837  125.3037   59.1190 H   0  0  0  0  0  0  0  0  0  0  0  0
  129.3057  126.0935   60.7411 H   0  0  0  0  0  0  0  0  0  0  0  0
  131.1967  125.1559   61.4904 H   0  0  0  0  0  0  0  0  0  0  0  0
  130.6210  123.5058   60.9508 H   0  0  0  0  0  0  0  0  0  0  0  0
  133.1638  122.6249   61.2767 H   0  0  0  0  0  0  0  0  0  0  0  0
  132.5291  121.5586   59.9779 H   0  0  0  0  0  0  0  0  0  0  0  0
  134.2592  122.0419   59.9779 H   0  0  0  0  0  0  0  0  0  0  0  0
  130.9504  127.2008   58.8946 H   0  0  0  0  0  0  0  0  0  0  0  0
  131.9730  127.2393   57.4183 H   0  0  0  0  0  0  0  0  0  0  0  0
  130.4301  126.3196   57.4183 H   0  0  0  0  0  0  0  0  0  0  0  0
  1  2  2  0
  2  3  1  0
  2  4  1  0
  4  5  1  0
  5  6  1  0
  6  7  1  0
  5  8  1  0
  8  9  2  0
  9 10  1  0
 10 11  2  0
 11 12  1  0
 12 13  1  0
 13 14  1  0
 14 15  1  0
 15 16  1  0
 11 17  1  0
 17 18  1  0
 18 19  1  0
 19 20  1  0
 20 21  1  0
 21 22  1  0
 21 23  2  0
 23 24  1  0
 24 25  1  0
 25 26  1  0
 17  8  1  0
 25 20  2  0
 16 12  1  0
  1 27  1  0
  1 28  1  0
  3 29  1  0
  3 30  1  0
  3 31  1  0
  4 32  1  0
  4 33  1  0
  6 34  1  0
  6 35  1  0
  7 36  1  0
  7 37  1  0
  7 38  1  0
 12 39  1  0
 13 40  1  0
 13 41  1  0
 14 42  1  0
 14 43  1  0
 15 44  1  0
 15 45  1  0
 16 46  1  0
 16 47  1  0
 18 48  1  0
 18 49  1  0
 19 50  1  0
 19 51  1  0
 22 52  1  0
 22 53  1  0
 22 54  1  0
 26 55  1  0
 26 56  1  0
 26 57  1  0
M  END
>  <Binding energies>  (1) 
[-7.27]

>  <Ligand effiencies>  (1) 
[-0.2796153846153846]

>  <Interactions>  (1) 
["V-A:ILE:369:CG2:3237, V-B:TYR:539:CA:9841, V-B:PRO:540:CA:9855, V-B:GLU:543:CB:9878, V-B:ALA:541:CB:9864, V-B:TYR:539:CE2:9848, V-A:TYR:484:CE2:4346, V-B:GLU:543:CG:9879, V-B:TYR:539:C:9839, V-B:TYR:539:CZ:9849, H-B:TYR:539:OH:9850, H-B:ALA:541:N:9863, V-A:TYR:484:CZ:4347, V-B:PRO:540:CB:9857, V-B:PRO:540:N:9856, V-B:PRO:540:CD:9859, V-B:TYR:539:CD2:9846, V-B:GLU:543:CD:9880, V-A:ASP:366:CB:3212, V-A:LEU:475:CD2:4259, V-B:TYR:539:CG:9844, V-B:TYR:539:CD1:9845, V-B:TYR:539:CE1:9847"]

$$$$
ZINC1705870478
     RDKit          3D

 56 58  0  0  0  0  0  0  0  0999 V2000
  132.8470  125.1820   58.4450 C   0  0  0  0  0  0  0  0  0  0  0  0
  133.4580  124.4530   59.3920 C   0  0  0  0  0  0  0  0  0  0  0  0
  133.2440  122.9650   59.6120 C   0  0  0  0  0  0  0  0  0  0  0  0
  133.0320  122.4980   60.9890 N   0  0  0  0  0  0  0  0  0  0  0  0
  133.1430  121.0460   61.1920 C   0  0  0  0  0  0  0  0  0  0  0  0
  132.2030  120.1200   60.4310 C   0  0  0  0  0  0  0  0  0  0  0  0
  131.0530  119.5890   60.8800 C   0  0  0  0  0  0  0  0  0  0  0  0
  133.2250  123.3670   62.0470 C   0  0  0  0  0  0  0  0  0  0  0  0
  134.3230  124.0530   62.2610 N   0  0  0  0  0  0  0  0  0  0  0  0
  134.1500  124.7610   63.4420 N   0  0  0  0  0  0  0  0  0  0  0  0
  132.9360  124.5190   63.8750 C   0  0  0  0  0  0  0  0  0  0  0  0
  132.3870  125.0540   65.1300 C   0  0  0  0  0  0  0  0  0  0  0  0
  131.0730  125.3940   65.4410 C   0  0  0  0  0  0  0  0  0  0  0  0
  131.0090  125.8410   66.7600 C   0  0  0  0  0  0  0  0  0  0  0  0
  129.4570  126.4070   67.7040 Br  0  0  0  0  0  0  0  0  0  0  0  0
  132.3020  125.7850   67.2410 C   0  0  0  0  0  0  0  0  0  0  0  0
  133.1450  125.3220   66.2580 N   0  0  0  0  0  0  0  0  0  0  0  0
  134.5730  125.0930   66.4300 C   0  0  0  0  0  0  0  0  0  0  0  0
  132.2840  123.6410   63.0270 N   0  0  0  0  0  0  0  0  0  0  0  0
  130.9130  123.1320   63.1560 C   0  0  0  0  0  0  0  0  0  0  0  0
  130.0870  123.1800   61.8720 C   0  0  0  0  0  0  0  0  0  0  0  0
  129.1950  122.1450   61.5900 C   0  0  0  0  0  0  0  0  0  0  0  0
  128.4400  122.1620   60.4190 C   0  0  0  0  0  0  0  0  0  0  0  0
  128.5690  123.2050   59.4840 C   0  0  0  0  0  0  0  0  0  0  0  0
  127.7840  123.2430   58.3030 N   0  0  0  0  0  0  0  0  0  0  0  0
  126.3770  123.5930   58.4940 C   0  0  0  0  0  0  0  0  0  0  0  0
  128.3790  123.7810   57.0810 C   0  0  0  0  0  0  0  0  0  0  0  0
  129.4480  124.2600   59.7940 C   0  0  0  0  0  0  0  0  0  0  0  0
  129.5650  125.3370   58.9800 F   0  0  0  0  0  0  0  0  0  0  0  0
  130.2010  124.2410   60.9680 C   0  0  0  0  0  0  0  0  0  0  0  0
  133.0608  126.2573   58.3553 H   0  0  0  0  0  0  0  0  0  0  0  0
  132.1325  124.7041   57.7586 H   0  0  0  0  0  0  0  0  0  0  0  0
  134.1650  124.9705   60.0571 H   0  0  0  0  0  0  0  0  0  0  0  0
  132.3605  122.6708   59.0264 H   0  0  0  0  0  0  0  0  0  0  0  0
  134.1933  122.5011   59.3060 H   0  0  0  0  0  0  0  0  0  0  0  0
  134.1691  120.7597   60.9180 H   0  0  0  0  0  0  0  0  0  0  0  0
  132.8577  120.9043   62.2449 H   0  0  0  0  0  0  0  0  0  0  0  0
  132.4969  119.8578   59.4039 H   0  0  0  0  0  0  0  0  0  0  0  0
  130.4601  118.9302   60.2285 H   0  0  0  0  0  0  0  0  0  0  0  0
  130.7046  119.8132   61.8990 H   0  0  0  0  0  0  0  0  0  0  0  0
  130.2180  125.3212   64.7527 H   0  0  0  0  0  0  0  0  0  0  0  0
  132.6114  126.0682   68.2579 H   0  0  0  0  0  0  0  0  0  0  0  0
  134.8116  125.0547   67.5031 H   0  0  0  0  0  0  0  0  0  0  0  0
  134.8508  124.1388   65.9584 H   0  0  0  0  0  0  0  0  0  0  0  0
  135.1352  125.9125   65.9584 H   0  0  0  0  0  0  0  0  0  0  0  0
  130.9669  122.0850   63.4890 H   0  0  0  0  0  0  0  0  0  0  0  0
  130.4049  123.7913   63.8751 H   0  0  0  0  0  0  0  0  0  0  0  0
  129.0869  121.3095   62.2972 H   0  0  0  0  0  0  0  0  0  0  0  0
  127.7302  121.3450   60.2222 H   0  0  0  0  0  0  0  0  0  0  0  0
  126.1557  123.6481   59.5701 H   0  0  0  0  0  0  0  0  0  0  0  0
  126.1753  124.5687   58.0278 H   0  0  0  0  0  0  0  0  0  0  0  0
  125.7417  122.8255   58.0278 H   0  0  0  0  0  0  0  0  0  0  0  0
  129.1713  124.4974   57.3436 H   0  0  0  0  0  0  0  0  0  0  0  0
  128.8091  122.9590   56.4899 H   0  0  0  0  0  0  0  0  0  0  0  0
  127.6043  124.2914   56.4899 H   0  0  0  0  0  0  0  0  0  0  0  0
  130.8917  125.0692   61.1851 H   0  0  0  0  0  0  0  0  0  0  0  0
  1  2  2  0
  2  3  1  0
  3  4  1  0
  4  5  1  0
  5  6  1  0
  6  7  2  0
  4  8  1  0
  8  9  2  0
  9 10  1  0
 10 11  2  0
 11 12  1  0
 12 13  2  0
 13 14  1  0
 14 15  1  0
 14 16  2  0
 16 17  1  0
 17 18  1  0
 11 19  1  0
 19 20  1  0
 20 21  1  0
 21 22  2  0
 22 23  1  0
 23 24  2  0
 24 25  1  0
 25 26  1  0
 25 27  1  0
 24 28  1  0
 28 29  1  0
 28 30  2  0
 19  8  1  0
 30 21  1  0
 17 12  1  0
  1 31  1  0
  1 32  1  0
  2 33  1  0
  3 34  1  0
  3 35  1  0
  5 36  1  0
  5 37  1  0
  6 38  1  0
  7 39  1  0
  7 40  1  0
 13 41  1  0
 16 42  1  0
 18 43  1  0
 18 44  1  0
 18 45  1  0
 20 46  1  0
 20 47  1  0
 22 48  1  0
 23 49  1  0
 26 50  1  0
 26 51  1  0
 26 52  1  0
 27 53  1  0
 27 54  1  0
 27 55  1  0
 30 56  1  0
M  END
>  <Binding energies>  (1) 
[-6.62]

>  <Ligand effiencies>  (1) 
[-0.22066666666666668]

>  <Interactions>  (1) 
["V-A:ILE:369:CG2:3237, V-A:ASP:366:CA:3210, V-B:PRO:540:CA:9855, V-A:GLY:454:CA:4049, V-A:ILE:369:CB:3236, V-B:GLU:543:CB:9878, V-B:ALA:541:CB:9864, H-A:ARG:545:NH1:4927, V-B:TYR:539:CE2:9848, V-B:GLU:543:CG:9879, V-B:TYR:539:C:9839, V-A:ASP:366:CG:3213, V-B:TYR:539:CZ:9849, V-A:GLU:543:CD:4908, V-B:PRO:540:CB:9857, V-A:TYR:484:CZ:4347, V-A:ARG:545:CG:4922, H-A:GLY:454:N:4050, V-A:GLY:453:C:4042, V-B:PRO:540:N:9856, V-A:HIS:456:CE1:4070, V-B:TYR:539:CD2:9846, V-A:SER:385:CB:3409, V-A:ASP:366:CB:3212, V-A:ARG:545:CD:4923, V-A:LEU:475:CD2:4259, H-A:ARG:545:NH2:4928, V-A:ARG:545:CZ:4926, V-A:GLY:453:CA:4044, V-B:PRO:540:C:9853, V-B:TYR:539:CE1:9847"]

$$$$
ZINC170619036
     RDKit          3D

 33 34  0  0  0  0  0  0  0  0999 V2000
  131.1100  132.7900   56.4960 C   0  0  0  0  0  0  0  0  0  0  0  0
  131.5390  131.6690   57.4170 C   0  0  0  0  0  0  0  0  0  0  0  0
  132.8070  131.3400   57.5630 N   0  0  0  0  0  0  0  0  0  0  0  0
  132.7200  130.3270   58.4220 N   0  0  0  0  0  0  0  0  0  0  0  0
  131.4130  130.0980   58.7410 C   0  0  0  0  0  0  0  0  0  0  0  0
  130.9380  129.0210   59.6990 C   0  0  0  0  0  0  0  0  0  0  0  0
  130.8390  129.5330   61.1220 C   0  0  0  0  0  0  0  0  0  0  0  0
  131.8800  130.1700   61.6540 N   0  0  0  0  0  0  0  0  0  0  0  0
  129.7500  129.3630   61.8790 N   0  0  0  0  0  0  0  0  0  0  0  0
  128.5270  128.6410   61.4850 C   0  0  2  0  0  0  0  0  0  0  0  0
  127.3060  129.5590   61.5590 C   0  0  0  0  0  0  0  0  0  0  0  0
  126.1400  128.5760   61.6370 C   0  0  0  0  0  0  0  0  0  0  0  0
  126.6840  127.3840   62.4440 N   0  0  0  0  0  0  0  0  0  0  0  0
  128.2160  127.5240   62.4910 C   0  0  0  0  0  0  0  0  0  0  0  0
  130.6550  130.9490   58.0970 N   0  0  0  0  0  0  0  0  0  0  0  0
  130.7804  133.6513   57.0956 H   0  0  0  0  0  0  0  0  0  0  0  0
  131.9577  133.0879   55.8614 H   0  0  0  0  0  0  0  0  0  0  0  0
  130.2800  132.4459   55.8614 H   0  0  0  0  0  0  0  0  0  0  0  0
  133.5240  129.8200   58.7670 H   0  0  0  0  0  0  0  0  0  0  0  0
  129.9459  128.6714   59.3772 H   0  0  0  0  0  0  0  0  0  0  0  0
  131.6723  128.2021   59.6820 H   0  0  0  0  0  0  0  0  0  0  0  0
  132.7190  130.3030   61.1090 H   0  0  0  0  0  0  0  0  0  0  0  0
  131.8350  130.5130   62.6040 H   0  0  0  0  0  0  0  0  0  0  0  0
  129.7810  129.7410   62.8140 H   0  0  0  0  0  0  0  0  0  0  0  0
  128.7062  128.2615   60.4682 H   0  0  0  0  0  0  0  0  0  0  0  0
  127.3452  130.1974   62.4540 H   0  0  0  0  0  0  0  0  0  0  0  0
  127.2325  130.2513   60.7074 H   0  0  0  0  0  0  0  0  0  0  0  0
  125.2818  129.0329   62.1515 H   0  0  0  0  0  0  0  0  0  0  0  0
  125.7834  128.2749   60.6409 H   0  0  0  0  0  0  0  0  0  0  0  0
  126.3070  127.3850   63.3820 H   0  0  0  0  0  0  0  0  0  0  0  0
  126.4090  126.5120   62.0140 H   0  0  0  0  0  0  0  0  0  0  0  0
  128.5506  127.8048   63.5005 H   0  0  0  0  0  0  0  0  0  0  0  0
  128.7312  126.5834   62.2465 H   0  0  0  0  0  0  0  0  0  0  0  0
  1  2  1  0
  2  3  2  0
  3  4  1  0
  4  5  1  0
  5  6  1  0
  6  7  1  0
  7  8  2  0
  7  9  1  0
  9 10  1  0
 10 11  1  0
 11 12  1  0
 12 13  1  0
 13 14  1  0
  5 15  2  0
 15  2  1  0
 14 10  1  0
  1 16  1  0
  1 17  1  0
  1 18  1  0
  4 19  1  0
  6 20  1  0
  6 21  1  0
  8 22  1  0
  8 23  1  0
  9 24  1  0
 10 25  1  6
 11 26  1  0
 11 27  1  0
 12 28  1  0
 12 29  1  0
 13 30  1  0
 13 31  1  0
 14 32  1  0
 14 33  1  0
M  CHG  2   8   1  13   1
M  END
>  <Binding energies>  (1) 
[-6.91]

>  <Ligand effiencies>  (1) 
[-0.32904761904761903]

>  <Interactions>  (1) 
["V-A:LEU:363:CD1:3189, H-B:GLU:543:OE2:9882, V-A:ILE:538:CA:4860, H-B:GLU:543:OE1:9881, V-A:ILE:538:CB:4862, V-B:GLU:543:CD:9880, V-B:ASP:366:CG:8184, V-A:GLU:543:CD:4908, H-A:ASP:366:OD2:3215, V-A:ASP:366:CB:3212, H-B:ASP:366:OD1:8185, H-A:GLU:543:OE1:4909, V-A:ASP:366:CG:3213, V-A:ILE:538:CG2:4863"]

$$$$
ZINC171027262
     RDKit          3D

 45 47  0  0  0  0  0  0  0  0999 V2000
  130.3680  121.1960   61.0850 C   0  0  0  0  0  0  0  0  0  0  0  0
  129.4520  121.7510   62.1830 C   0  0  0  0  0  0  0  0  0  0  0  0
  128.8960  123.1470   61.8500 C   0  0  0  0  0  0  0  0  0  0  0  0
  128.7230  123.3740   60.3550 C   0  0  0  0  0  0  0  0  0  0  0  0
  129.6010  124.2090   59.6550 C   0  0  0  0  0  0  0  0  0  0  0  0
  129.4080  124.3930   58.2790 C   0  0  0  0  0  0  0  0  0  0  0  0
  130.2190  125.2120   57.4690 N   0  0  0  0  0  0  0  0  0  0  0  0
  130.9890  126.3420   57.9770 C   0  0  0  0  0  0  0  0  0  0  0  0
  132.4910  126.0370   58.1380 C   0  0  0  0  0  0  0  0  0  0  0  0
  132.8210  125.0140   59.2130 C   0  0  0  0  0  0  0  0  0  0  0  0
  133.2900  123.7180   59.0290 C   0  0  0  0  0  0  0  0  0  0  0  0
  133.5160  122.9630   60.5750 S   0  0  0  0  0  0  0  0  0  0  0  0
  132.9770  124.4300   61.3340 C   0  0  0  0  0  0  0  0  0  0  0  0
  132.8520  124.5900   62.8440 C   0  0  0  0  0  0  0  0  0  0  0  0
  132.8870  123.2200   63.5440 C   0  0  0  0  0  0  0  0  0  0  0  0
  131.6030  125.3960   63.2530 C   0  0  0  0  0  0  0  0  0  0  0  0
  132.6500  125.3700   60.4750 N   0  0  0  0  0  0  0  0  0  0  0  0
  128.3530  123.7140   57.7160 N   0  0  0  0  0  0  0  0  0  0  0  0
  127.9430  123.7010   56.4260 N   0  0  0  0  0  0  0  0  0  0  0  0
  126.9040  122.8880   56.4760 C   0  0  0  0  0  0  0  0  0  0  0  0
  126.5730  122.3570   57.6390 N   0  0  0  0  0  0  0  0  0  0  0  0
  127.5090  122.8860   58.4630 C   0  0  0  0  0  0  0  0  0  0  0  0
  127.6820  122.7080   59.7780 N   0  0  0  0  0  0  0  0  0  0  0  0
  131.2219  120.6786   61.5467 H   0  0  0  0  0  0  0  0  0  0  0  0
  129.8041  120.4875   60.4604 H   0  0  0  0  0  0  0  0  0  0  0  0
  130.7349  122.0238   60.4604 H   0  0  0  0  0  0  0  0  0  0  0  0
  128.6071  121.0597   62.3179 H   0  0  0  0  0  0  0  0  0  0  0  0
  130.0540  121.8452   63.0988 H   0  0  0  0  0  0  0  0  0  0  0  0
  127.9167  123.2604   62.3380 H   0  0  0  0  0  0  0  0  0  0  0  0
  129.6230  123.8877   62.2146 H   0  0  0  0  0  0  0  0  0  0  0  0
  130.4287  124.7125   60.1759 H   0  0  0  0  0  0  0  0  0  0  0  0
  130.4110  124.8980   56.5290 H   0  0  0  0  0  0  0  0  0  0  0  0
  130.8772  127.1829   57.2768 H   0  0  0  0  0  0  0  0  0  0  0  0
  130.5969  126.5784   58.9772 H   0  0  0  0  0  0  0  0  0  0  0  0
  132.8683  125.6576   57.1769 H   0  0  0  0  0  0  0  0  0  0  0  0
  132.9670  126.9785   58.4493 H   0  0  0  0  0  0  0  0  0  0  0  0
  133.4870  123.2452   58.0555 H   0  0  0  0  0  0  0  0  0  0  0  0
  133.7226  125.1732   63.1784 H   0  0  0  0  0  0  0  0  0  0  0  0
  132.8833  123.3652   64.6344 H   0  0  0  0  0  0  0  0  0  0  0  0
  132.0035  122.6348   63.2490 H   0  0  0  0  0  0  0  0  0  0  0  0
  133.7992  122.6807   63.2490 H   0  0  0  0  0  0  0  0  0  0  0  0
  131.5371  125.4385   64.3502 H   0  0  0  0  0  0  0  0  0  0  0  0
  131.6774  126.4169   62.8503 H   0  0  0  0  0  0  0  0  0  0  0  0
  130.7034  124.9076   62.8503 H   0  0  0  0  0  0  0  0  0  0  0  0
  126.3265  122.6579   55.5685 H   0  0  0  0  0  0  0  0  0  0  0  0
  1  2  1  0
  2  3  1  0
  3  4  1  0
  4  5  1  0
  5  6  2  0
  6  7  1  0
  7  8  1  0
  8  9  1  0
  9 10  1  0
 10 11  2  0
 11 12  1  0
 12 13  1  0
 13 14  1  0
 14 15  1  0
 14 16  1  0
 13 17  2  0
  6 18  1  0
 18 19  1  0
 19 20  2  0
 20 21  1  0
 21 22  2  0
 22 23  1  0
 23  4  2  0
 17 10  1  0
 22 18  1  0
  1 24  1  0
  1 25  1  0
  1 26  1  0
  2 27  1  0
  2 28  1  0
  3 29  1  0
  3 30  1  0
  5 31  1  0
  7 32  1  0
  8 33  1  0
  8 34  1  0
  9 35  1  0
  9 36  1  0
 11 37  1  0
 14 38  1  0
 15 39  1  0
 15 40  1  0
 15 41  1  0
 16 42  1  0
 16 43  1  0
 16 44  1  0
 20 45  1  0
M  END
>  <Binding energies>  (1) 
[-5.5]

>  <Ligand effiencies>  (1) 
[-0.22916666666666666]

>  <Interactions>  (1) 
["V-A:ILE:369:CG2:3237, V-A:ASP:366:CA:3210, V-B:PRO:540:CA:9855, V-A:GLY:454:CA:4049, V-A:ILE:369:CB:3236, V-B:ALA:541:CB:9864, V-B:TYR:539:CE2:9848, H-B:TYR:539:N:9842, V-B:TYR:539:C:9839, V-A:ASP:366:CG:3213, V-B:TYR:539:CZ:9849, H-B:TYR:539:OH:9850, V-B:PRO:540:CB:9857, V-B:PRO:540:N:9856, V-A:ILE:369:CD1:3239, V-B:TYR:539:CD2:9846, V-A:ASP:366:CB:3212, V-A:LEU:475:CD2:4259, V-B:TYR:539:CE1:9847"]

$$$$
ZINC17128812
     RDKit          3D

 23 23  0  0  0  0  0  0  0  0999 V2000
  128.7470  132.7490   73.6760 C   0  0  0  0  0  0  0  0  0  0  0  0
  128.8590  131.6040   74.5140 O   0  0  0  0  0  0  0  0  0  0  0  0
  128.7040  130.3410   73.9670 C   0  0  0  0  0  0  0  0  0  0  0  0
  129.4660  129.8570   72.9000 C   0  0  0  0  0  0  0  0  0  0  0  0
  129.2700  128.5770   72.3860 C   0  0  0  0  0  0  0  0  0  0  0  0
  130.4100  128.0940   70.9240 Br  0  0  0  0  0  0  0  0  0  0  0  0
  128.2860  127.7160   72.9270 C   0  0  0  0  0  0  0  0  0  0  0  0
  128.1050  126.3450   72.3460 C   0  0  0  0  0  0  0  0  0  0  0  0
  128.5770  125.1790   72.5920 N   0  0  0  0  0  0  0  0  0  0  0  0
  129.4880  125.0820   73.6450 O   0  0  0  0  0  0  0  0  0  0  0  0
  127.5300  128.2260   74.0030 C   0  0  0  0  0  0  0  0  0  0  0  0
  127.7240  129.5160   74.5250 C   0  0  0  0  0  0  0  0  0  0  0  0
  126.9950  130.0410   75.5800 O   0  0  0  0  0  0  0  0  0  0  0  0
  125.6910  129.5420   75.8570 C   0  0  0  0  0  0  0  0  0  0  0  0
  128.6587  133.6517   74.2984 H   0  0  0  0  0  0  0  0  0  0  0  0
  129.6417  132.8276   73.0410 H   0  0  0  0  0  0  0  0  0  0  0  0
  127.8540  132.6527   73.0410 H   0  0  0  0  0  0  0  0  0  0  0  0
  130.2385  130.5018   72.4557 H   0  0  0  0  0  0  0  0  0  0  0  0
  127.3955  126.3388   71.5054 H   0  0  0  0  0  0  0  0  0  0  0  0
  126.7558  127.5868   74.4525 H   0  0  0  0  0  0  0  0  0  0  0  0
  125.5436  129.4856   76.9456 H   0  0  0  0  0  0  0  0  0  0  0  0
  124.9399  130.2162   75.4197 H   0  0  0  0  0  0  0  0  0  0  0  0
  125.5818  128.5386   75.4197 H   0  0  0  0  0  0  0  0  0  0  0  0
  1  2  1  0
  2  3  1  0
  3  4  2  0
  4  5  1  0
  5  6  1  0
  5  7  2  0
  7  8  1  0
  8  9  2  0
  9 10  1  0
  7 11  1  0
 11 12  2  0
 12 13  1  0
 13 14  1  0
 12  3  1  0
  1 15  1  0
  1 16  1  0
  1 17  1  0
  4 18  1  0
  8 19  1  0
 11 20  1  0
 14 21  1  0
 14 22  1  0
 14 23  1  0
M  CHG  1  10  -1
M  END
>  <Binding energies>  (1) 
[-4.87]

>  <Ligand effiencies>  (1) 
[-0.34785714285714286]

>  <Interactions>  (1) 
["V-A:HIS:456:CE1:4070, V-B:HIS:456:CD2:9039, V-B:GLY:544:C:9884, V-A:GLU:543:C:4902, H-B:LYS:547:NZ:9923, V-B:GLY:544:CA:9886, V-B:LYS:547:CE:9922, V-B:HIS:456:CB:9036, V-B:HIS:456:CG:9037, V-B:TYR:484:CB:9312, H-A:LYS:547:NZ:4951, V-A:GLY:544:C:4912"]

$$$$
ZINC17128883
     RDKit          3D

 30 30  0  0  0  0  0  0  0  0999 V2000
  134.0270  126.6370   74.4240 C   0  0  0  0  0  0  0  0  0  0  0  0
  132.6050  126.0830   74.5600 C   0  0  0  0  0  0  0  0  0  0  0  0
  131.6660  127.1310   74.3530 O   0  0  0  0  0  0  0  0  0  0  0  0
  130.5740  126.9620   73.5570 C   0  0  0  0  0  0  0  0  0  0  0  0
  129.8530  125.9650   73.6680 O   0  0  0  0  0  0  0  0  0  0  0  0
  130.3260  128.0720   72.5520 C   0  0  0  0  0  0  0  0  0  0  0  0
  129.8350  129.2420   72.8230 N   0  0  0  0  0  0  0  0  0  0  0  0
  129.4830  129.6180   74.0430 N   0  0  0  0  0  0  0  0  0  0  0  0
  128.8920  130.8710   74.1030 C   0  0  0  0  0  0  0  0  0  0  0  0
  129.4290  132.0590   73.5500 C   0  0  0  0  0  0  0  0  0  0  0  0
  128.7750  133.2860   73.6510 C   0  0  0  0  0  0  0  0  0  0  0  0
  127.5560  133.3690   74.3110 C   0  0  0  0  0  0  0  0  0  0  0  0
  126.9970  132.2240   74.8680 C   0  0  0  0  0  0  0  0  0  0  0  0
  127.6500  130.9940   74.7680 C   0  0  0  0  0  0  0  0  0  0  0  0
  126.8620  129.6290   75.4990 Cl  0  0  0  0  0  0  0  0  0  0  0  0
  130.6430  127.8930   71.0970 C   0  0  0  0  0  0  0  0  0  0  0  0
  129.5180  127.8990   70.0410 C   0  0  0  0  0  0  0  0  0  0  0  0
  131.7790  127.7340   70.6490 O   0  0  0  0  0  0  0  0  0  0  0  0
  134.4531  126.8030   75.4245 H   0  0  0  0  0  0  0  0  0  0  0  0
  134.6505  125.9160   73.8750 H   0  0  0  0  0  0  0  0  0  0  0  0
  133.9984  127.5897   73.8750 H   0  0  0  0  0  0  0  0  0  0  0  0
  132.4455  125.2943   73.8100 H   0  0  0  0  0  0  0  0  0  0  0  0
  132.4698  125.6634   75.5678 H   0  0  0  0  0  0  0  0  0  0  0  0
  130.3937  132.0121   73.0235 H   0  0  0  0  0  0  0  0  0  0  0  0
  129.2240  134.1874   73.2084 H   0  0  0  0  0  0  0  0  0  0  0  0
  127.0357  134.3347   74.3927 H   0  0  0  0  0  0  0  0  0  0  0  0
  126.0319  132.2879   75.3920 H   0  0  0  0  0  0  0  0  0  0  0  0
  128.5409  127.9042   70.5462 H   0  0  0  0  0  0  0  0  0  0  0  0
  129.6103  128.7967   69.4120 H   0  0  0  0  0  0  0  0  0  0  0  0
  129.6008  127.0004   69.4120 H   0  0  0  0  0  0  0  0  0  0  0  0
  1  2  1  0
  2  3  1  0
  3  4  1  0
  4  5  2  0
  4  6  1  0
  6  7  2  0
  7  8  1  0
  8  9  1  0
  9 10  2  0
 10 11  1  0
 11 12  2  0
 12 13  1  0
 13 14  2  0
 14 15  1  0
  6 16  1  0
 16 17  1  0
 16 18  2  0
 14  9  1  0
  1 19  1  0
  1 20  1  0
  1 21  1  0
  2 22  1  0
  2 23  1  0
 10 24  1  0
 11 25  1  0
 12 26  1  0
 13 27  1  0
 17 28  1  0
 17 29  1  0
 17 30  1  0
M  CHG  1   8  -1
M  END
>  <Binding energies>  (1) 
[-6.21]

>  <Ligand effiencies>  (1) 
[-0.345]

>  <Interactions>  (1) 
["V-B:HIS:456:CD2:9039, V-A:GLU:543:C:4902, H-B:LYS:547:NZ:9923, V-B:HIS:456:CB:9036, V-A:GLY:544:C:4912, V-A:HIS:456:CD2:4068, H-A:ARG:545:N:4920, V-A:LYS:547:CG:4948, V-A:HIS:456:CB:4065, V-B:TYR:484:CB:9312, V-B:HIS:456:CE1:9041, V-A:HIS:456:CE1:4070, V-A:HIS:456:CA:4063, H-A:LYS:547:NZ:4951, V-A:ARG:545:C:4917, V-A:HIS:456:CG:4066, V-A:LYS:547:CE:4950, V-B:ASP:473:CB:9210, V-B:ASP:473:CG:9211, H-A:HIS:456:ND1:4067"]

$$$$
ZINC17128883-again1
     RDKit          3D

 31 31  0  0  0  0  0  0  0  0999 V2000
  133.9740  131.7290   61.2870 C   0  0  0  0  0  0  0  0  0  0  0  0
  132.8430  131.5280   62.3020 C   0  0  0  0  0  0  0  0  0  0  0  0
  131.6600  132.1440   61.8060 O   0  0  0  0  0  0  0  0  0  0  0  0
  130.4360  131.8620   62.3260 C   0  0  0  0  0  0  0  0  0  0  0  0
  129.8760  132.6360   63.1080 O   0  0  0  0  0  0  0  0  0  0  0  0
  129.8360  130.5520   61.8740 C   0  0  0  0  0  0  0  0  0  0  0  0
  130.2000  129.9220   60.8080 N   0  0  0  0  0  0  0  0  0  0  0  0
  131.2030  130.3690   59.9250 N   0  0  0  0  0  0  0  0  0  0  0  0
  131.0130  131.2420   58.8420 C   0  0  0  0  0  0  0  0  0  0  0  0
  129.8690  132.0500   58.7490 C   0  0  0  0  0  0  0  0  0  0  0  0
  129.6920  132.9140   57.6680 C   0  0  0  0  0  0  0  0  0  0  0  0
  130.6560  132.9810   56.6650 C   0  0  0  0  0  0  0  0  0  0  0  0
  131.7970  132.1850   56.7440 C   0  0  0  0  0  0  0  0  0  0  0  0
  131.9790  131.3180   57.8250 C   0  0  0  0  0  0  0  0  0  0  0  0
  133.4180  130.3520   57.8690 Cl  0  0  0  0  0  0  0  0  0  0  0  0
  128.7490  129.8680   62.6430 C   0  0  0  0  0  0  0  0  0  0  0  0
  128.6330  128.3300   62.6300 C   0  0  0  0  0  0  0  0  0  0  0  0
  127.9010  130.4560   63.3150 O   0  0  0  0  0  0  0  0  0  0  0  0
  134.9206  131.8972   61.8214 H   0  0  0  0  0  0  0  0  0  0  0  0
  134.0636  130.8327   60.6556 H   0  0  0  0  0  0  0  0  0  0  0  0
  133.7493  132.6013   60.6556 H   0  0  0  0  0  0  0  0  0  0  0  0
  132.6653  130.4523   62.4478 H   0  0  0  0  0  0  0  0  0  0  0  0
  133.1225  131.9816   63.2643 H   0  0  0  0  0  0  0  0  0  0  0  0
  132.1250  130.0070   60.1240 H   0  0  0  0  0  0  0  0  0  0  0  0
  129.1034  132.0014   59.5373 H   0  0  0  0  0  0  0  0  0  0  0  0
  128.7911  133.5423   57.6078 H   0  0  0  0  0  0  0  0  0  0  0  0
  130.5169  133.6612   55.8118 H   0  0  0  0  0  0  0  0  0  0  0  0
  132.5582  132.2393   55.9517 H   0  0  0  0  0  0  0  0  0  0  0  0
  128.6048  127.9557   63.6640 H   0  0  0  0  0  0  0  0  0  0  0  0
  127.7102  128.0363   62.1084 H   0  0  0  0  0  0  0  0  0  0  0  0
  129.5014  127.9012   62.1084 H   0  0  0  0  0  0  0  0  0  0  0  0
  1  2  1  0
  2  3  1  0
  3  4  1  0
  4  5  2  0
  4  6  1  0
  6  7  2  0
  7  8  1  0
  8  9  1  0
  9 10  2  0
 10 11  1  0
 11 12  2  0
 12 13  1  0
 13 14  2  0
 14 15  1  0
  6 16  1  0
 16 17  1  0
 16 18  2  0
 14  9  1  0
  1 19  1  0
  1 20  1  0
  1 21  1  0
  2 22  1  0
  2 23  1  0
  8 24  1  0
 10 25  1  0
 11 26  1  0
 12 27  1  0
 13 28  1  0
 17 29  1  0
 17 30  1  0
 17 31  1  0
M  END
>  <Binding energies>  (1) 
[-5.43]

>  <Ligand effiencies>  (1) 
[-0.28578947368421054]

>  <Interactions>  (1) 
["H-A:ALA:541:N:4891, V-A:ILE:538:CB:4862, V-A:ASP:366:CG:3213, V-A:ASN:362:CB:3176, V-A:LEU:363:CD1:3189, V-A:ILE:538:CA:4860, V-A:TYR:531:CE2:4793, V-A:GLU:543:CD:4908, V-A:TYR:531:CZ:4794, V-A:TYR:539:C:4867, V-A:ASP:366:CB:3212, V-A:ASN:362:C:3172, V-A:PRO:540:N:4884, V-A:PRO:540:CB:4885, V-A:ASN:362:CA:3174, V-A:LEU:363:CA:3185, V-A:PRO:540:CA:4883, H-A:ASP:366:OD2:3215, V-A:PRO:540:CD:4887"]

$$$$
ZINC171619642
     RDKit          3D

 34 36  0  0  0  0  0  0  0  0999 V2000
  129.6570  121.9160   60.5930 O   0  0  0  0  0  0  0  0  0  0  0  0
  128.5790  122.8380   60.9680 S   0  0  0  0  0  0  0  0  0  0  0  0
  127.6620  122.4740   62.0540 O   0  0  0  0  0  0  0  0  0  0  0  0
  129.3220  124.5300   61.3800 C   0  0  0  0  0  0  0  0  0  0  0  0
  130.7920  124.5950   60.9910 C   0  0  0  0  0  0  0  0  0  0  0  0
  131.1490  124.6460   59.6410 C   0  0  0  0  0  0  0  0  0  0  0  0
  132.4930  124.6970   59.2680 C   0  0  0  0  0  0  0  0  0  0  0  0
  132.8290  124.7390   57.9590 F   0  0  0  0  0  0  0  0  0  0  0  0
  133.4890  124.7070   60.2440 C   0  0  0  0  0  0  0  0  0  0  0  0
  133.1540  124.6780   61.6000 C   0  0  0  0  0  0  0  0  0  0  0  0
  131.8000  124.6040   61.9640 C   0  0  0  0  0  0  0  0  0  0  0  0
  131.4240  124.5020   63.2930 O   0  0  0  0  0  0  0  0  0  0  0  0
  132.3880  125.0020   64.1800 C   0  0  0  0  0  0  0  0  0  0  0  0
  133.6040  124.3320   63.9800 O   0  0  0  0  0  0  0  0  0  0  0  0
  134.1820  124.7070   62.7230 C   0  0  0  0  0  0  0  0  0  0  0  0
  127.5940  123.1480   59.4920 C   0  0  0  0  0  0  0  0  0  0  0  0
  128.1600  122.8900   58.2370 C   0  0  0  0  0  0  0  0  0  0  0  0
  127.4320  123.1150   57.0700 C   0  0  0  0  0  0  0  0  0  0  0  0
  126.1280  123.5990   57.1450 C   0  0  0  0  0  0  0  0  0  0  0  0
  125.5530  123.8560   58.3890 C   0  0  0  0  0  0  0  0  0  0  0  0
  126.2750  123.6330   59.5640 C   0  0  0  0  0  0  0  0  0  0  0  0
  125.4880  123.9700   61.0680 Cl  0  0  0  0  0  0  0  0  0  0  0  0
  128.7707  125.3074   60.8306 H   0  0  0  0  0  0  0  0  0  0  0  0
  129.2414  124.6910   62.4652 H   0  0  0  0  0  0  0  0  0  0  0  0
  130.3665  124.6460   58.8679 H   0  0  0  0  0  0  0  0  0  0  0  0
  134.5468  124.7380   59.9438 H   0  0  0  0  0  0  0  0  0  0  0  0
  132.5288  126.0779   63.9992 H   0  0  0  0  0  0  0  0  0  0  0  0
  132.0495  124.8436   65.2146 H   0  0  0  0  0  0  0  0  0  0  0  0
  134.5892  125.7253   62.8074 H   0  0  0  0  0  0  0  0  0  0  0  0
  134.9752  123.9844   62.4808 H   0  0  0  0  0  0  0  0  0  0  0  0
  129.1888  122.5062   58.1719 H   0  0  0  0  0  0  0  0  0  0  0  0
  127.8872  122.9104   56.0897 H   0  0  0  0  0  0  0  0  0  0  0  0
  125.5529  123.7781   56.2246 H   0  0  0  0  0  0  0  0  0  0  0  0
  124.5228  124.2373   58.4456 H   0  0  0  0  0  0  0  0  0  0  0  0
  1  2  2  0
  2  3  2  0
  2  4  1  0
  4  5  1  0
  5  6  2  0
  6  7  1  0
  7  8  1  0
  7  9  2  0
  9 10  1  0
 10 11  2  0
 11 12  1  0
 12 13  1  0
 13 14  1  0
 14 15  1  0
  2 16  1  0
 16 17  2  0
 17 18  1  0
 18 19  2  0
 19 20  1  0
 20 21  2  0
 21 22  1  0
 11  5  1  0
 21 16  1  0
 15 10  1  0
  4 23  1  0
  4 24  1  0
  6 25  1  0
  9 26  1  0
 13 27  1  0
 13 28  1  0
 15 29  1  0
 15 30  1  0
 17 31  1  0
 18 32  1  0
 19 33  1  0
 20 34  1  0
M  END
>  <Binding energies>  (1) 
[-6.74]

>  <Ligand effiencies>  (1) 
[-0.3063636363636364]

>  <Interactions>  (1) 
["V-A:ASP:366:CA:3210, V-B:PRO:540:CA:9855, V-A:GLY:453:CA:4044, V-B:TYR:539:CZ:9849, V-B:TYR:539:CE1:9847, V-B:TYR:539:CD2:9846, H-B:ALA:541:N:9863, V-B:TYR:539:CG:9844, V-B:TYR:539:CE2:9848, V-B:PRO:540:CB:9857, V-A:ASP:366:CB:3212, V-A:ARG:545:CZ:4926, V-B:TYR:539:C:9839, H-A:GLY:454:N:4050, V-A:ASP:366:CG:3213, H-A:TYR:484:OH:4348, V-B:PRO:540:N:9856"]

$$$$
ZINC1717667
     RDKit          3D

 40 39  0  0  0  0  0  0  0  0999 V2000
  128.3390  128.4780   64.4000 C   0  0  0  0  0  0  0  0  0  0  0  0
  128.7120  129.1210   63.0470 N   0  0  0  0  0  0  0  0  0  0  0  0
  128.3700  128.1690   61.8830 C   0  0  0  0  0  0  0  0  0  0  0  0
  128.0760  130.5150   62.8290 C   0  0  0  0  0  0  0  0  0  0  0  0
  128.9840  131.6420   63.3640 C   0  0  0  0  0  0  0  0  0  0  0  0
  130.1560  131.9920   62.4150 C   0  0  1  0  0  0  0  0  0  0  0  0
  131.3780  131.9400   63.1340 O   0  0  0  0  0  0  0  0  0  0  0  0
  130.2210  131.1000   61.1430 C   0  0  2  0  0  0  0  0  0  0  0  0
  130.9830  129.9280   61.3870 O   0  0  0  0  0  0  0  0  0  0  0  0
  130.7730  131.8290   59.8940 C   0  0  0  0  0  0  0  0  0  0  0  0
  130.8960  130.9200   58.6540 C   0  0  0  0  0  0  0  0  0  0  0  0
  132.0930  129.9480   58.7800 N   0  0  0  0  0  0  0  0  0  0  0  0
  133.3070  130.3490   57.9170 C   0  0  0  0  0  0  0  0  0  0  0  0
  131.6630  128.5000   58.4710 C   0  0  0  0  0  0  0  0  0  0  0  0
  128.7065  129.1115   65.2207 H   0  0  0  0  0  0  0  0  0  0  0  0
  127.2455  128.3828   64.4717 H   0  0  0  0  0  0  0  0  0  0  0  0
  128.7993  127.4815   64.4717 H   0  0  0  0  0  0  0  0  0  0  0  0
  129.7140  129.2450   63.0380 H   0  0  0  0  0  0  0  0  0  0  0  0
  128.0240  127.2059   62.2865 H   0  0  0  0  0  0  0  0  0  0  0  0
  127.5758  128.6146   61.2661 H   0  0  0  0  0  0  0  0  0  0  0  0
  129.2663  128.0073   61.2661 H   0  0  0  0  0  0  0  0  0  0  0  0
  127.9127  130.6687   61.7521 H   0  0  0  0  0  0  0  0  0  0  0  0
  127.1239  130.5492   63.3788 H   0  0  0  0  0  0  0  0  0  0  0  0
  128.3713  132.5441   63.5084 H   0  0  0  0  0  0  0  0  0  0  0  0
  129.4254  131.2832   64.3055 H   0  0  0  0  0  0  0  0  0  0  0  0
  129.9777  133.0130   62.0466 H   0  0  0  0  0  0  0  0  0  0  0  0
  131.7010  131.0360   63.1290 H   0  0  0  0  0  0  0  0  0  0  0  0
  129.1779  130.8322   60.9188 H   0  0  0  0  0  0  0  0  0  0  0  0
  131.2950  129.9480   62.2960 H   0  0  0  0  0  0  0  0  0  0  0  0
  130.0966  132.6613   59.6496 H   0  0  0  0  0  0  0  0  0  0  0  0
  131.7872  132.1743   60.1433 H   0  0  0  0  0  0  0  0  0  0  0  0
  129.9705  130.3353   58.5463 H   0  0  0  0  0  0  0  0  0  0  0  0
  131.0608  131.5581   57.7733 H   0  0  0  0  0  0  0  0  0  0  0  0
  132.3880  129.9630   59.7460 H   0  0  0  0  0  0  0  0  0  0  0  0
  134.1465  130.6263   58.5715 H   0  0  0  0  0  0  0  0  0  0  0  0
  133.6018  129.5005   57.2821 H   0  0  0  0  0  0  0  0  0  0  0  0
  133.0384  131.2062   57.2821 H   0  0  0  0  0  0  0  0  0  0  0  0
  131.5016  127.9564   59.4136 H   0  0  0  0  0  0  0  0  0  0  0  0
  130.7293  128.5109   57.8895 H   0  0  0  0  0  0  0  0  0  0  0  0
  132.4513  127.9996   57.8895 H   0  0  0  0  0  0  0  0  0  0  0  0
  1  2  1  0
  2  3  1  0
  2  4  1  0
  4  5  1  0
  5  6  1  0
  6  7  1  0
  6  8  1  0
  8  9  1  0
  8 10  1  0
 10 11  1  0
 11 12  1  0
 12 13  1  0
 12 14  1  0
  1 15  1  0
  1 16  1  0
  1 17  1  0
  2 18  1  0
  3 19  1  0
  3 20  1  0
  3 21  1  0
  4 22  1  0
  4 23  1  0
  5 24  1  0
  5 25  1  0
  6 26  1  6
  7 27  1  0
  8 28  1  6
  9 29  1  0
 10 30  1  0
 10 31  1  0
 11 32  1  0
 11 33  1  0
 12 34  1  0
 13 35  1  0
 13 36  1  0
 13 37  1  0
 14 38  1  0
 14 39  1  0
 14 40  1  0
M  CHG  2   2   1  12   1
M  END
>  <Binding energies>  (1) 
[-4.45]

>  <Ligand effiencies>  (1) 
[-0.24722222222222223]

>  <Interactions>  (1) 
["V-A:LEU:363:CD1:3189, V-A:PRO:540:CB:4885, V-A:PRO:540:CA:4883, H-A:GLU:543:OE2:4910, V-A:TYR:531:CE2:4793, H-A:ALA:541:N:4891, V-A:LEU:363:CA:3185, V-A:ALA:541:CB:4892, H-A:ALA:541:O:4889, V-A:GLU:543:CG:4907, V-B:GLU:543:CD:9880, V-A:GLU:543:CD:4908, H-A:ASP:366:OD2:3215, V-A:ASP:366:CB:3212, H-A:GLU:543:OE1:4909, V-A:ASP:366:CG:3213"]

$$$$
ZINC17207753-again1
     RDKit          3D

 62 64  0  0  0  0  0  0  0  0999 V2000
  125.5170  123.7980   61.0800 C   0  0  0  0  0  0  0  0  0  0  0  0
  126.0510  122.9190   62.0580 O   0  0  0  0  0  0  0  0  0  0  0  0
  127.3840  123.2360   62.4370 C   0  0  0  0  0  0  0  0  0  0  0  0
  128.3290  122.1060   62.0030 C   0  0  0  0  0  0  0  0  0  0  0  0
  129.7340  122.6120   61.6270 C   0  0  0  0  0  0  0  0  0  0  0  0
  129.7540  123.4570   60.4290 N   0  0  0  0  0  0  0  0  0  0  0  0
  128.9240  123.2380   59.3900 C   0  0  0  0  0  0  0  0  0  0  0  0
  128.1120  122.3240   59.2290 O   0  0  0  0  0  0  0  0  0  0  0  0
  129.2290  124.3830   58.3640 C   0  0  0  0  0  0  0  0  0  0  0  0
  128.6550  124.4370   57.2290 O   0  0  0  0  0  0  0  0  0  0  0  0
  130.1960  125.2280   58.9570 C   0  0  0  0  0  0  0  0  0  0  0  0
  130.8360  126.3570   58.3470 C   0  0  0  0  0  0  0  0  0  0  0  0
  131.5310  126.2340   57.2840 O   0  0  0  0  0  0  0  0  0  0  0  0
  130.7890  127.5970   59.0570 C   0  0  0  0  0  0  0  0  0  0  0  0
  130.0630  127.7110   60.2520 C   0  0  0  0  0  0  0  0  0  0  0  0
  130.0460  128.9110   60.9550 C   0  0  0  0  0  0  0  0  0  0  0  0
  130.7390  130.0150   60.4590 C   0  0  0  0  0  0  0  0  0  0  0  0
  130.7170  131.5490   61.3830 S   0  0  0  0  0  0  0  0  0  0  0  0
  130.2300  132.5710   60.4510 O   0  0  0  0  0  0  0  0  0  0  0  0
  130.0000  131.2930   62.6380 O   0  0  0  0  0  0  0  0  0  0  0  0
  132.4030  131.9300   61.7860 N   0  0  0  0  0  0  0  0  0  0  0  0
  132.8700  131.4730   63.1120 C   0  0  0  0  0  0  0  0  0  0  0  0
  133.3810  131.7820   60.6900 C   0  0  0  0  0  0  0  0  0  0  0  0
  131.4230  129.9300   59.2460 C   0  0  0  0  0  0  0  0  0  0  0  0
  131.4430  128.7280   58.5480 C   0  0  0  0  0  0  0  0  0  0  0  0
  130.4260  124.7500   60.3820 C   0  0  2  0  0  0  0  0  0  0  0  0
  131.8860  124.6870   60.8400 C   0  0  0  0  0  0  0  0  0  0  0  0
  132.9320  124.6000   59.9170 C   0  0  0  0  0  0  0  0  0  0  0  0
  134.2540  124.5970   60.3570 C   0  0  0  0  0  0  0  0  0  0  0  0
  134.5410  124.6860   61.7190 C   0  0  0  0  0  0  0  0  0  0  0  0
  135.8520  124.6890   62.1240 O   0  0  0  0  0  0  0  0  0  0  0  0
  133.5080  124.7780   62.6620 C   0  0  0  0  0  0  0  0  0  0  0  0
  133.8610  124.8700   63.9980 O   0  0  0  0  0  0  0  0  0  0  0  0
  132.8490  125.1050   64.9710 C   0  0  0  0  0  0  0  0  0  0  0  0
  132.1800  124.7770   62.2040 C   0  0  0  0  0  0  0  0  0  0  0  0
  125.0080  124.6359   61.5789 H   0  0  0  0  0  0  0  0  0  0  0  0
  126.3322  124.1860   60.4516 H   0  0  0  0  0  0  0  0  0  0  0  0
  124.7970  123.2534   60.4516 H   0  0  0  0  0  0  0  0  0  0  0  0
  127.6889  124.1744   61.9508 H   0  0  0  0  0  0  0  0  0  0  0  0
  127.4337  123.3525   63.5297 H   0  0  0  0  0  0  0  0  0  0  0  0
  128.4241  121.3898   62.8324 H   0  0  0  0  0  0  0  0  0  0  0  0
  127.8953  121.6385   61.1067 H   0  0  0  0  0  0  0  0  0  0  0  0
  130.1303  123.1960   62.4708 H   0  0  0  0  0  0  0  0  0  0  0  0
  130.3469  121.7257   61.4060 H   0  0  0  0  0  0  0  0  0  0  0  0
  129.5033  126.8453   60.6357 H   0  0  0  0  0  0  0  0  0  0  0  0
  129.4876  128.9891   61.8995 H   0  0  0  0  0  0  0  0  0  0  0  0
  132.3209  132.0103   63.8993 H   0  0  0  0  0  0  0  0  0  0  0  0
  132.6901  130.3924   63.2117 H   0  0  0  0  0  0  0  0  0  0  0  0
  133.9465  131.6762   63.2117 H   0  0  0  0  0  0  0  0  0  0  0  0
  134.3851  131.6300   61.1126 H   0  0  0  0  0  0  0  0  0  0  0  0
  133.1089  130.9148   60.0704 H   0  0  0  0  0  0  0  0  0  0  0  0
  133.3777  132.6909   60.0704 H   0  0  0  0  0  0  0  0  0  0  0  0
  131.9445  130.8109   58.8434 H   0  0  0  0  0  0  0  0  0  0  0  0
  131.9765  128.6636   57.5882 H   0  0  0  0  0  0  0  0  0  0  0  0
  130.0213  125.4779   61.1007 H   0  0  0  0  0  0  0  0  0  0  0  0
  132.7111  124.5338   58.8414 H   0  0  0  0  0  0  0  0  0  0  0  0
  135.0742  124.5242   59.6277 H   0  0  0  0  0  0  0  0  0  0  0  0
  136.2720  125.5440   62.0030 H   0  0  0  0  0  0  0  0  0  0  0  0
  133.2789  125.0052   65.9786 H   0  0  0  0  0  0  0  0  0  0  0  0
  132.4462  126.1206   64.8432 H   0  0  0  0  0  0  0  0  0  0  0  0
  132.0399  124.3708   64.8432 H   0  0  0  0  0  0  0  0  0  0  0  0
  131.3574  124.8482   62.9308 H   0  0  0  0  0  0  0  0  0  0  0  0
  1  2  1  0
  2  3  1  0
  3  4  1  0
  4  5  1  0
  5  6  1  0
  6  7  1  0
  7  8  2  0
  7  9  1  0
  9 10  1  0
  9 11  2  0
 11 12  1  0
 12 13  2  0
 12 14  1  0
 14 15  2  0
 15 16  1  0
 16 17  2  0
 17 18  1  0
 18 19  2  0
 18 20  2  0
 18 21  1  0
 21 22  1  0
 21 23  1  0
 17 24  1  0
 24 25  2  0
 11 26  1  0
 26 27  1  0
 27 28  2  0
 28 29  1  0
 29 30  2  0
 30 31  1  0
 30 32  1  0
 32 33  1  0
 33 34  1  0
 32 35  2  0
 26  6  1  0
 35 27  1  0
 25 14  1  0
  1 36  1  0
  1 37  1  0
  1 38  1  0
  3 39  1  0
  3 40  1  0
  4 41  1  0
  4 42  1  0
  5 43  1  0
  5 44  1  0
 15 45  1  0
 16 46  1  0
 22 47  1  0
 22 48  1  0
 22 49  1  0
 23 50  1  0
 23 51  1  0
 23 52  1  0
 24 53  1  0
 25 54  1  0
 26 55  1  1
 28 56  1  0
 29 57  1  0
 31 58  1  0
 34 59  1  0
 34 60  1  0
 34 61  1  0
 35 62  1  0
M  CHG  1  10  -1
M  END
>  <Binding energies>  (1) 
[-6.61]

>  <Ligand effiencies>  (1) 
[-0.1836111111111111]

>  <Interactions>  (1) 
["V-A:ILE:369:CG2:3237, V-A:ASP:366:CA:3210, V-B:PRO:540:CA:9855, V-A:ALA:541:C:4888, H-A:ALA:541:N:4891, V-B:ALA:541:CB:9864, H-A:ARG:545:NH1:4927, H-A:TYR:531:OH:4795, V-B:TYR:539:CE2:9848, V-B:GLU:543:CG:9879, V-A:ASP:366:CG:3213, V-A:ASN:362:CB:3176, V-B:TYR:539:CZ:9849, H-B:TYR:539:OH:9850, H-B:ALA:541:N:9863, V-A:GLU:543:CD:4908, V-B:PRO:540:CB:9857, V-A:ASN:362:CG:3177, H-A:GLY:454:N:4050, V-A:ILE:369:CD1:3239, V-B:TYR:539:CD2:9846, V-A:GLU:543:CG:4907, V-B:GLU:543:CD:9880, V-A:ASP:366:CB:3212, H-A:ARG:545:NH2:4928, V-A:ARG:545:CZ:4926, H-A:ASP:366:OD1:3214, V-A:LEU:363:CA:3185, V-A:PRO:540:CA:4883, V-A:PRO:540:CB:4885, H-A:ARG:545:NE:4924, V-B:PRO:540:C:9853, V-B:ALA:541:CA:9862"]

$$$$
ZINC172257326
     RDKit          3D

 37 39  0  0  0  0  0  0  0  0999 V2000
  129.4770  127.2570   73.4430 C   0  0  0  0  0  0  0  0  0  0  0  0
  128.6330  126.8790   72.2100 C   0  0  2  0  0  0  0  0  0  0  0  0
  128.2110  125.4620   72.2180 N   0  0  0  0  0  0  0  0  0  0  0  0
  128.6790  124.3240   72.8890 C   0  0  0  0  0  0  0  0  0  0  0  0
  129.4870  124.6820   73.7690 O   0  0  0  0  0  0  0  0  0  0  0  0
  128.2540  123.1620   72.5500 N   0  0  0  0  0  0  0  0  0  0  0  0
  128.6140  121.9570   73.0970 C   0  0  0  0  0  0  0  0  0  0  0  0
  129.8080  121.4300   73.3020 N   0  0  0  0  0  0  0  0  0  0  0  0
  129.7510  120.2340   73.8530 C   0  0  0  0  0  0  0  0  0  0  0  0
  128.4750  119.7540   74.1170 C   0  0  0  0  0  0  0  0  0  0  0  0
  127.3050  120.9340   73.6140 S   0  0  0  0  0  0  0  0  0  0  0  0
  128.2150  118.4260   74.8050 C   0  0  0  0  0  0  0  0  0  0  0  0
  129.4190  117.6480   74.8350 O   0  0  0  0  0  0  0  0  0  0  0  0
  130.5890  118.3600   75.2530 C   0  0  0  0  0  0  0  0  0  0  0  0
  130.9870  119.4190   74.1930 C   0  0  0  0  0  0  0  0  0  0  0  0
  129.3870  127.1790   70.9060 C   0  0  0  0  0  0  0  0  0  0  0  0
  130.7520  127.5000   70.9670 C   0  0  0  0  0  0  0  0  0  0  0  0
  131.4740  127.7780   69.8100 C   0  0  0  0  0  0  0  0  0  0  0  0
  130.8390  127.7460   68.5730 C   0  0  0  0  0  0  0  0  0  0  0  0
  129.4810  127.4390   68.4870 C   0  0  0  0  0  0  0  0  0  0  0  0
  128.7410  127.4210   66.9230 Cl  0  0  0  0  0  0  0  0  0  0  0  0
  128.7470  127.1560   69.6510 C   0  0  0  0  0  0  0  0  0  0  0  0
  127.0550  126.7910   69.5160 Cl  0  0  0  0  0  0  0  0  0  0  0  0
  128.9206  127.0078   74.3586 H   0  0  0  0  0  0  0  0  0  0  0  0
  130.4235  126.6968   73.4252 H   0  0  0  0  0  0  0  0  0  0  0  0
  129.6893  128.3362   73.4252 H   0  0  0  0  0  0  0  0  0  0  0  0
  127.7276  127.5015   72.2624 H   0  0  0  0  0  0  0  0  0  0  0  0
  127.5370  125.2720   71.4920 H   0  0  0  0  0  0  0  0  0  0  0  0
  127.8734  118.6093   75.8344 H   0  0  0  0  0  0  0  0  0  0  0  0
  127.4418  117.8754   74.2491 H   0  0  0  0  0  0  0  0  0  0  0  0
  130.3840  118.8639   76.2091 H   0  0  0  0  0  0  0  0  0  0  0  0
  131.4172  117.6458   75.3711 H   0  0  0  0  0  0  0  0  0  0  0  0
  131.7681  120.0782   74.5996 H   0  0  0  0  0  0  0  0  0  0  0  0
  131.3789  118.9266   73.2908 H   0  0  0  0  0  0  0  0  0  0  0  0
  131.2583  127.5323   71.9430 H   0  0  0  0  0  0  0  0  0  0  0  0
  132.5446  128.0225   69.8738 H   0  0  0  0  0  0  0  0  0  0  0  0
  131.4102  127.9637   67.6585 H   0  0  0  0  0  0  0  0  0  0  0  0
  1  2  1  0
  2  3  1  0
  3  4  1  0
  4  5  1  0
  4  6  2  0
  6  7  1  0
  7  8  2  0
  8  9  1  0
  9 10  2  0
 10 11  1  0
 10 12  1  0
 12 13  1  0
 13 14  1  0
 14 15  1  0
  2 16  1  0
 16 17  2  0
 17 18  1  0
 18 19  2  0
 19 20  1  0
 20 21  1  0
 20 22  2  0
 22 23  1  0
 11  7  1  0
 22 16  1  0
 15  9  1  0
  1 24  1  0
  1 25  1  0
  1 26  1  0
  2 27  1  6
  3 28  1  0
 12 29  1  0
 12 30  1  0
 14 31  1  0
 14 32  1  0
 15 33  1  0
 15 34  1  0
 17 35  1  0
 18 36  1  0
 19 37  1  0
M  CHG  1   5  -1
M  END
>  <Binding energies>  (1) 
[-6.99]

>  <Ligand effiencies>  (1) 
[-0.29125]

>  <Interactions>  (1) 
["V-A:ARG:545:CA:4919, V-B:GLU:543:C:9874, H-B:GLU:543:O:9875, V-A:GLU:543:C:4902, V-B:GLU:543:CB:9878, H-B:LYS:547:NZ:9923, V-A:ASP:473:CB:4239, V-A:GLY:544:C:4912, V-B:GLU:543:CG:9879, V-A:HIS:456:CD2:4068, V-A:PRO:486:CD:4366, V-B:LYS:547:CE:9922, V-A:ASP:473:CG:4240, V-A:GLU:543:CD:4908, V-B:HIS:456:CE1:9041, H-B:GLY:544:N:9887, V-A:ARG:545:CG:4922, V-B:GLU:543:CA:9876, V-A:HIS:456:CE1:4070, V-B:GLY:544:C:9884, V-B:GLY:544:CA:9886, V-A:GLU:543:CG:4907, V-B:GLU:543:CD:9880, V-A:TYR:484:CB:4341, V-A:ASP:485:CA:4353, V-A:GLU:543:CB:4906, H-B:GLY:544:O:9885, V-A:TYR:484:C:4337"]

$$$$
ZINC172257326-again1
     RDKit          3D

 38 40  0  0  0  0  0  0  0  0999 V2000
  130.0080  123.5790   64.9920 C   0  0  0  0  0  0  0  0  0  0  0  0
  131.2150  124.5360   64.9600 C   0  0  2  0  0  0  0  0  0  0  0  0
  131.0220  125.6380   65.9130 N   0  0  0  0  0  0  0  0  0  0  0  0
  130.4280  125.5580   67.1170 C   0  0  0  0  0  0  0  0  0  0  0  0
  129.9060  124.5320   67.5580 O   0  0  0  0  0  0  0  0  0  0  0  0
  130.4980  126.7390   67.7640 N   0  0  0  0  0  0  0  0  0  0  0  0
  130.0110  127.0150   69.0340 C   0  0  0  0  0  0  0  0  0  0  0  0
  128.9080  126.5600   69.5910 N   0  0  0  0  0  0  0  0  0  0  0  0
  128.7530  127.0220   70.8170 C   0  0  0  0  0  0  0  0  0  0  0  0
  129.7520  127.8790   71.2710 C   0  0  0  0  0  0  0  0  0  0  0  0
  130.9460  128.0880   70.0270 S   0  0  0  0  0  0  0  0  0  0  0  0
  129.7110  128.5490   72.6310 C   0  0  0  0  0  0  0  0  0  0  0  0
  128.7110  127.9310   73.4500 O   0  0  0  0  0  0  0  0  0  0  0  0
  127.4450  127.7280   72.8110 C   0  0  0  0  0  0  0  0  0  0  0  0
  127.5670  126.6580   71.6950 C   0  0  0  0  0  0  0  0  0  0  0  0
  131.5490  125.0020   63.5290 C   0  0  0  0  0  0  0  0  0  0  0  0
  130.9450  126.1730   63.0470 C   0  0  0  0  0  0  0  0  0  0  0  0
  131.2110  126.6410   61.7630 C   0  0  0  0  0  0  0  0  0  0  0  0
  132.0900  125.9450   60.9410 C   0  0  0  0  0  0  0  0  0  0  0  0
  132.7070  124.7800   61.3980 C   0  0  0  0  0  0  0  0  0  0  0  0
  133.7960  123.9570   60.3340 Cl  0  0  0  0  0  0  0  0  0  0  0  0
  132.4410  124.3010   62.6910 C   0  0  0  0  0  0  0  0  0  0  0  0
  133.2280  122.8500   63.2310 Cl  0  0  0  0  0  0  0  0  0  0  0  0
  129.7376  123.3646   66.0365 H   0  0  0  0  0  0  0  0  0  0  0  0
  129.1543  124.0483   64.4812 H   0  0  0  0  0  0  0  0  0  0  0  0
  130.2703  122.6408   64.4812 H   0  0  0  0  0  0  0  0  0  0  0  0
  132.1076  123.9850   65.2912 H   0  0  0  0  0  0  0  0  0  0  0  0
  131.1830  126.5610   65.5390 H   0  0  0  0  0  0  0  0  0  0  0  0
  130.9580  127.5050   67.2920 H   0  0  0  0  0  0  0  0  0  0  0  0
  130.6929  128.4488   73.1165 H   0  0  0  0  0  0  0  0  0  0  0  0
  129.4662  129.6137   72.5026 H   0  0  0  0  0  0  0  0  0  0  0  0
  126.7120  127.3900   73.5584 H   0  0  0  0  0  0  0  0  0  0  0  0
  127.1167  128.6765   72.3610 H   0  0  0  0  0  0  0  0  0  0  0  0
  127.7268  125.6670   72.1449 H   0  0  0  0  0  0  0  0  0  0  0  0
  126.6453  126.6269   71.0955 H   0  0  0  0  0  0  0  0  0  0  0  0
  130.2507  126.7299   63.6934 H   0  0  0  0  0  0  0  0  0  0  0  0
  130.7267  127.5594   61.3997 H   0  0  0  0  0  0  0  0  0  0  0  0
  132.2999  126.3142   59.9263 H   0  0  0  0  0  0  0  0  0  0  0  0
  1  2  1  0
  2  3  1  0
  3  4  1  0
  4  5  2  0
  4  6  1  0
  6  7  1  0
  7  8  2  0
  8  9  1  0
  9 10  2  0
 10 11  1  0
 10 12  1  0
 12 13  1  0
 13 14  1  0
 14 15  1  0
  2 16  1  0
 16 17  2  0
 17 18  1  0
 18 19  2  0
 19 20  1  0
 20 21  1  0
 20 22  2  0
 22 23  1  0
 11  7  1  0
 22 16  1  0
 15  9  1  0
  1 24  1  0
  1 25  1  0
  1 26  1  0
  2 27  1  1
  3 28  1  0
  6 29  1  0
 12 30  1  0
 12 31  1  0
 14 32  1  0
 14 33  1  0
 15 34  1  0
 15 35  1  0
 17 36  1  0
 18 37  1  0
 19 38  1  0
M  END
>  <Binding energies>  (1) 
[-7.7]

>  <Ligand effiencies>  (1) 
[-0.308]

>  <Interactions>  (1) 
["V-A:ILE:369:CG2:3237, V-A:GLY:454:CA:4049, V-B:GLU:543:C:9874, H-A:GLU:543:OE2:4910, V-A:GLU:543:C:4902, V-B:HIS:456:CD2:9039, H-B:LYS:547:NZ:9923, V-A:TYR:484:CE2:4346, V-A:GLY:544:C:4912, V-B:GLU:543:CG:9879, V-A:ASP:366:CG:3213, V-A:GLU:543:CD:4908, V-B:HIS:456:CE1:9041, V-A:HIS:456:CE1:4070, V-A:ILE:369:CD1:3239, V-B:GLY:544:C:9884, V-B:GLY:544:CA:9886, V-B:HIS:456:CG:9037, V-A:LEU:475:CD2:4259, H-A:GLU:543:OE1:4909, V-A:GLU:543:CB:4906, H-A:TYR:484:OH:4348"]

$$$$
ZINC1740816603
     RDKit          3D

 71 75  0  0  0  0  0  0  0  0999 V2000
  132.4710  125.8060   60.7200 C   0  0  0  0  0  0  0  0  0  0  0  0
  131.8100  126.2160   61.9120 O   0  0  0  0  0  0  0  0  0  0  0  0
  130.8890  127.2480   61.8640 C   0  0  0  0  0  0  0  0  0  0  0  0
  131.1550  128.4910   61.2710 C   0  0  0  0  0  0  0  0  0  0  0  0
  130.2050  129.5230   61.2790 C   0  0  0  0  0  0  0  0  0  0  0  0
  128.9100  129.2720   61.7610 C   0  0  0  0  0  0  0  0  0  0  0  0
  128.6490  128.0300   62.3460 C   0  0  0  0  0  0  0  0  0  0  0  0
  129.6210  127.0290   62.4260 C   0  0  0  0  0  0  0  0  0  0  0  0
  129.2610  125.6940   63.0970 C   0  0  1  0  0  0  0  0  0  0  0  0
  129.9640  124.4320   62.4710 C   0  0  0  0  0  0  0  0  0  0  0  0
  129.7730  124.0610   61.1720 C   0  0  0  0  0  0  0  0  0  0  0  0
  129.0040  124.6810   60.3400 O   0  0  0  0  0  0  0  0  0  0  0  0
  130.4930  122.8930   60.4790 C   0  0  0  0  0  0  0  0  0  0  0  0
  130.8040  121.7760   61.5150 C   0  0  0  0  0  0  0  0  0  0  0  0
  131.7420  120.7470   60.8450 C   0  0  0  0  0  0  0  0  0  0  0  0
  129.4840  121.1160   62.0010 C   0  0  0  0  0  0  0  0  0  0  0  0
  131.5760  122.4070   62.7200 C   0  0  0  0  0  0  0  0  0  0  0  0
  130.8590  123.6250   63.3280 C   0  0  0  0  0  0  0  0  0  0  0  0
  131.0810  123.9120   64.5580 N   0  0  0  0  0  0  0  0  0  0  0  0
  130.4460  124.9260   65.2020 C   0  0  0  0  0  0  0  0  0  0  0  0
  130.5190  125.2140   66.4900 N   0  0  0  0  0  0  0  0  0  0  0  0
  129.6980  126.2410   66.6400 C   0  0  0  0  0  0  0  0  0  0  0  0
  129.4310  127.0410   68.1900 S   0  0  0  0  0  0  0  0  0  0  0  0
  128.4350  128.4630   67.6540 C   0  0  0  0  0  0  0  0  0  0  0  0
  129.0990  126.5830   65.4440 N   0  0  0  0  0  0  0  0  0  0  0  0
  129.5710  125.7500   64.5250 N   0  0  0  0  0  0  0  0  0  0  0  0
  127.7950  130.3100   61.5790 C   0  0  1  0  0  0  0  0  0  0  0  0
  127.3250  130.8850   62.9310 C   0  0  0  0  0  0  0  0  0  0  0  0
  128.1730  131.4400   60.5660 C   0  0  0  0  0  0  0  0  0  0  0  0
  129.3950  131.1800   59.6240 C   0  0  0  0  0  0  0  0  0  0  0  0
  129.0400  130.0420   58.6210 C   0  0  0  0  0  0  0  0  0  0  0  0
  129.6550  132.4700   58.7860 C   0  0  0  0  0  0  0  0  0  0  0  0
  130.4630  130.7360   60.5940 N   0  0  0  0  0  0  0  0  0  0  0  0
  131.3300  131.6270   61.1920 C   0  0  0  0  0  0  0  0  0  0  0  0
  132.8520  131.4810   61.0200 C   0  0  0  0  0  0  0  0  0  0  0  0
  130.9760  132.5460   61.9300 O   0  0  0  0  0  0  0  0  0  0  0  0
  133.3794  125.2426   60.9797 H   0  0  0  0  0  0  0  0  0  0  0  0
  131.7988  125.1660   60.1295 H   0  0  0  0  0  0  0  0  0  0  0  0
  132.7457  126.6925   60.1295 H   0  0  0  0  0  0  0  0  0  0  0  0
  132.1294  128.6601   60.7894 H   0  0  0  0  0  0  0  0  0  0  0  0
  127.6473  127.8341   62.7563 H   0  0  0  0  0  0  0  0  0  0  0  0
  128.1820  125.5667   62.9250 H   0  0  0  0  0  0  0  0  0  0  0  0
  129.8487  122.4860   59.6857 H   0  0  0  0  0  0  0  0  0  0  0  0
  131.4353  123.2554   60.0422 H   0  0  0  0  0  0  0  0  0  0  0  0
  132.2675  120.1705   61.6205 H   0  0  0  0  0  0  0  0  0  0  0  0
  131.1494  120.0639   60.2187 H   0  0  0  0  0  0  0  0  0  0  0  0
  132.4769  121.2740   60.2187 H   0  0  0  0  0  0  0  0  0  0  0  0
  129.4626  121.1053   63.1007 H   0  0  0  0  0  0  0  0  0  0  0  0
  128.6258  121.6910   61.6232 H   0  0  0  0  0  0  0  0  0  0  0  0
  129.4291  120.0844   61.6232 H   0  0  0  0  0  0  0  0  0  0  0  0
  131.6893  121.6417   63.5020 H   0  0  0  0  0  0  0  0  0  0  0  0
  132.5474  122.7558   62.3394 H   0  0  0  0  0  0  0  0  0  0  0  0
  128.0585  129.0005   68.5368 H   0  0  0  0  0  0  0  0  0  0  0  0
  129.0574  129.1399   67.0504 H   0  0  0  0  0  0  0  0  0  0  0  0
  127.5861  128.1094   67.0504 H   0  0  0  0  0  0  0  0  0  0  0  0
  128.4320  127.3040   65.2090 H   0  0  0  0  0  0  0  0  0  0  0  0
  126.9443  129.7733   61.1338 H   0  0  0  0  0  0  0  0  0  0  0  0
  127.7886  130.3179   63.7517 H   0  0  0  0  0  0  0  0  0  0  0  0
  127.6210  131.9420   63.0027 H   0  0  0  0  0  0  0  0  0  0  0  0
  126.2302  130.8052   63.0027 H   0  0  0  0  0  0  0  0  0  0  0  0
  127.2954  131.6182   59.9272 H   0  0  0  0  0  0  0  0  0  0  0  0
  128.4759  132.2915   61.1930 H   0  0  0  0  0  0  0  0  0  0  0  0
  128.7576  129.1368   59.1785 H   0  0  0  0  0  0  0  0  0  0  0  0
  128.1985  130.3603   57.9882 H   0  0  0  0  0  0  0  0  0  0  0  0
  129.9133  129.8254   57.9882 H   0  0  0  0  0  0  0  0  0  0  0  0
  129.8262  133.3193   59.4638 H   0  0  0  0  0  0  0  0  0  0  0  0
  130.5415  132.3227   58.1517 H   0  0  0  0  0  0  0  0  0  0  0  0
  128.7806  132.6776   58.1517 H   0  0  0  0  0  0  0  0  0  0  0  0
  133.3301  131.4351   62.0096 H   0  0  0  0  0  0  0  0  0  0  0  0
  133.0712  130.5577   60.4637 H   0  0  0  0  0  0  0  0  0  0  0  0
  133.2428  132.3458   60.4637 H   0  0  0  0  0  0  0  0  0  0  0  0
  1  2  1  0
  2  3  1  0
  3  4  2  0
  4  5  1  0
  5  6  2  0
  6  7  1  0
  7  8  2  0
  8  9  1  0
  9 10  1  0
 10 11  2  0
 11 12  1  0
 11 13  1  0
 13 14  1  0
 14 15  1  0
 14 16  1  0
 14 17  1  0
 17 18  1  0
 18 19  2  0
 19 20  1  0
 20 21  2  0
 21 22  1  0
 22 23  1  0
 23 24  1  0
 22 25  2  0
 25 26  1  0
  6 27  1  0
 27 28  1  0
 27 29  1  0
 29 30  1  0
 30 31  1  0
 30 32  1  0
 30 33  1  0
 33 34  1  0
 34 35  1  0
 34 36  2  0
  8  3  1  0
 26  9  1  0
 33  5  1  0
 18 10  1  0
 26 20  1  0
  1 37  1  0
  1 38  1  0
  1 39  1  0
  4 40  1  0
  7 41  1  0
  9 42  1  1
 13 43  1  0
 13 44  1  0
 15 45  1  0
 15 46  1  0
 15 47  1  0
 16 48  1  0
 16 49  1  0
 16 50  1  0
 17 51  1  0
 17 52  1  0
 24 53  1  0
 24 54  1  0
 24 55  1  0
 25 56  1  0
 27 57  1  6
 28 58  1  0
 28 59  1  0
 28 60  1  0
 29 61  1  0
 29 62  1  0
 31 63  1  0
 31 64  1  0
 31 65  1  0
 32 66  1  0
 32 67  1  0
 32 68  1  0
 35 69  1  0
 35 70  1  0
 35 71  1  0
M  CHG  2  12  -1  25   1
M  END
>  <Binding energies>  (1) 
[-7.82]

>  <Ligand effiencies>  (1) 
[-0.21135135135135136]

>  <Interactions>  (1) 
["H-A:GLU:543:OE2:4910, H-A:ALA:541:N:4891, V-B:GLU:543:CB:9878, V-B:ALA:541:CB:9864, V-B:TYR:539:CE2:9848, V-B:GLU:543:CG:9879, V-A:ASP:366:CG:3213, H-B:GLU:543:OE1:9881, V-A:GLU:543:CD:4908, V-B:HIS:456:CE1:9041, V-B:TYR:539:CD2:9846, V-A:GLU:543:CG:4907, V-B:GLU:543:CD:9880, V-A:TYR:539:C:4867, V-A:ASP:366:CB:3212, V-A:LEU:475:CD2:4259, H-A:ARG:545:NH2:4928, H-A:GLU:543:OE1:4909, V-A:GLU:543:CB:4906, V-A:PRO:540:N:4884, H-B:GLU:543:OE2:9882, V-A:PRO:540:CA:4883, V-A:PRO:540:CB:4885, H-A:TYR:484:OH:4348"]

$$$$
ZINC1740816603-again1
     RDKit          3D

 72 76  0  0  0  0  0  0  0  0999 V2000
  131.9790  125.3910   59.1230 C   0  0  0  0  0  0  0  0  0  0  0  0
  130.7340  125.9150   59.5680 O   0  0  0  0  0  0  0  0  0  0  0  0
  130.5640  127.2860   59.6750 C   0  0  0  0  0  0  0  0  0  0  0  0
  131.2470  128.2080   58.8690 C   0  0  0  0  0  0  0  0  0  0  0  0
  131.0860  129.5910   59.0390 C   0  0  0  0  0  0  0  0  0  0  0  0
  130.1120  130.0690   59.9320 C   0  0  0  0  0  0  0  0  0  0  0  0
  129.4360  129.1460   60.7330 C   0  0  0  0  0  0  0  0  0  0  0  0
  129.6580  127.7670   60.6350 C   0  0  0  0  0  0  0  0  0  0  0  0
  128.8860  126.8030   61.5640 C   0  0  1  0  0  0  0  0  0  0  0  0
  127.9340  125.7470   60.8380 C   0  0  1  0  0  0  0  0  0  0  0  0
  127.0850  126.3470   59.6830 C   0  0  0  0  0  0  0  0  0  0  0  0
  126.8470  127.5500   59.5790 O   0  0  0  0  0  0  0  0  0  0  0  0
  126.5220  125.3450   58.6620 C   0  0  0  0  0  0  0  0  0  0  0  0
  127.5150  124.2180   58.2610 C   0  0  0  0  0  0  0  0  0  0  0  0
  128.7360  124.8070   57.5020 C   0  0  0  0  0  0  0  0  0  0  0  0
  126.7360  123.2180   57.3790 C   0  0  0  0  0  0  0  0  0  0  0  0
  127.9560  123.4600   59.5490 C   0  0  0  0  0  0  0  0  0  0  0  0
  128.6410  124.3770   60.5670 C   0  0  0  0  0  0  0  0  0  0  0  0
  129.6770  123.9880   61.2110 N   0  0  0  0  0  0  0  0  0  0  0  0
  130.2250  124.7520   62.2000 C   0  0  0  0  0  0  0  0  0  0  0  0
  131.1150  124.3560   63.0950 N   0  0  0  0  0  0  0  0  0  0  0  0
  131.3280  125.4300   63.8400 C   0  0  0  0  0  0  0  0  0  0  0  0
  132.4760  125.4570   65.1810 S   0  0  0  0  0  0  0  0  0  0  0  0
  131.3290  125.4610   66.5890 C   0  0  0  0  0  0  0  0  0  0  0  0
  130.5470  126.4910   63.4280 N   0  0  0  0  0  0  0  0  0  0  0  0
  129.8250  126.0600   62.4050 N   0  0  0  0  0  0  0  0  0  0  0  0
  129.7420  131.5580   59.9610 C   0  0  1  0  0  0  0  0  0  0  0  0
  130.0670  132.2110   61.3190 C   0  0  0  0  0  0  0  0  0  0  0  0
  130.3560  132.3630   58.7710 C   0  0  0  0  0  0  0  0  0  0  0  0
  130.8320  131.5390   57.5280 C   0  0  0  0  0  0  0  0  0  0  0  0
  129.5990  130.8820   56.8380 C   0  0  0  0  0  0  0  0  0  0  0  0
  131.4670  132.5240   56.4980 C   0  0  0  0  0  0  0  0  0  0  0  0
  131.7230  130.4970   58.1570 N   0  0  0  0  0  0  0  0  0  0  0  0
  133.0770  130.7000   58.3350 C   0  0  0  0  0  0  0  0  0  0  0  0
  133.6050  131.4910   59.5440 C   0  0  0  0  0  0  0  0  0  0  0  0
  133.9400  130.3280   57.5420 O   0  0  0  0  0  0  0  0  0  0  0  0
  132.5991  125.1300   59.9933 H   0  0  0  0  0  0  0  0  0  0  0  0
  131.8020  124.4910   58.5158 H   0  0  0  0  0  0  0  0  0  0  0  0
  132.4989  126.1467   58.5158 H   0  0  0  0  0  0  0  0  0  0  0  0
  131.9246  127.8382   58.0854 H   0  0  0  0  0  0  0  0  0  0  0  0
  128.7038  129.5151   61.4662 H   0  0  0  0  0  0  0  0  0  0  0  0
  128.2265  127.4632   62.1463 H   0  0  0  0  0  0  0  0  0  0  0  0
  127.1492  125.4774   61.5601 H   0  0  0  0  0  0  0  0  0  0  0  0
  125.6260  124.8771   59.0959 H   0  0  0  0  0  0  0  0  0  0  0  0
  126.3043  125.9150   57.7467 H   0  0  0  0  0  0  0  0  0  0  0  0
  129.4805  125.1661   58.2278 H   0  0  0  0  0  0  0  0  0  0  0  0
  129.1862  124.0270   56.8704 H   0  0  0  0  0  0  0  0  0  0  0  0
  128.4058  125.6449   56.8704 H   0  0  0  0  0  0  0  0  0  0  0  0
  126.1870  122.5133   58.0209 H   0  0  0  0  0  0  0  0  0  0  0  0
  126.0245  123.7661   56.7439 H   0  0  0  0  0  0  0  0  0  0  0  0
  127.4416  122.6623   56.7439 H   0  0  0  0  0  0  0  0  0  0  0  0
  127.0660  123.0154   60.0183 H   0  0  0  0  0  0  0  0  0  0  0  0
  128.6840  122.6914   59.2503 H   0  0  0  0  0  0  0  0  0  0  0  0
  131.9015  125.4590   67.5283 H   0  0  0  0  0  0  0  0  0  0  0  0
  130.6985  126.3613   66.5458 H   0  0  0  0  0  0  0  0  0  0  0  0
  130.6923  124.5651   66.5458 H   0  0  0  0  0  0  0  0  0  0  0  0
  130.4730  127.4400   63.7650 H   0  0  0  0  0  0  0  0  0  0  0  0
  128.6504  131.5987   59.8313 H   0  0  0  0  0  0  0  0  0  0  0  0
  129.7372  131.5484   62.1327 H   0  0  0  0  0  0  0  0  0  0  0  0
  131.1519  132.3751   61.3967 H   0  0  0  0  0  0  0  0  0  0  0  0
  129.5438  133.1755   61.3967 H   0  0  0  0  0  0  0  0  0  0  0  0
  129.5939  133.0765   58.4244 H   0  0  0  0  0  0  0  0  0  0  0  0
  131.2694  132.8221   59.1770 H   0  0  0  0  0  0  0  0  0  0  0  0
  128.9036  130.5114   57.6055 H   0  0  0  0  0  0  0  0  0  0  0  0
  129.0891  131.6280   56.2107 H   0  0  0  0  0  0  0  0  0  0  0  0
  129.9339  130.0427   56.2107 H   0  0  0  0  0  0  0  0  0  0  0  0
  131.9872  133.3309   57.0349 H   0  0  0  0  0  0  0  0  0  0  0  0
  132.1856  131.9811   55.8664 H   0  0  0  0  0  0  0  0  0  0  0  0
  130.6759  132.9544   55.8664 H   0  0  0  0  0  0  0  0  0  0  0  0
  133.2783  131.0016   60.4734 H   0  0  0  0  0  0  0  0  0  0  0  0
  134.7041  131.5199   59.5116 H   0  0  0  0  0  0  0  0  0  0  0  0
  133.2101  132.5172   59.5116 H   0  0  0  0  0  0  0  0  0  0  0  0
  1  2  1  0
  2  3  1  0
  3  4  2  0
  4  5  1  0
  5  6  2  0
  6  7  1  0
  7  8  2  0
  8  9  1  0
  9 10  1  0
 10 11  1  0
 11 12  2  0
 11 13  1  0
 13 14  1  0
 14 15  1  0
 14 16  1  0
 14 17  1  0
 17 18  1  0
 18 19  2  0
 19 20  1  0
 20 21  2  0
 21 22  1  0
 22 23  1  0
 23 24  1  0
 22 25  2  0
 25 26  1  0
  6 27  1  0
 27 28  1  0
 27 29  1  0
 29 30  1  0
 30 31  1  0
 30 32  1  0
 30 33  1  0
 33 34  1  0
 34 35  1  0
 34 36  2  0
  8  3  1  0
 26  9  1  0
 33  5  1  0
 18 10  1  0
 26 20  1  0
  1 37  1  0
  1 38  1  0
  1 39  1  0
  4 40  1  0
  7 41  1  0
  9 42  1  1
 10 43  1  1
 13 44  1  0
 13 45  1  0
 15 46  1  0
 15 47  1  0
 15 48  1  0
 16 49  1  0
 16 50  1  0
 16 51  1  0
 17 52  1  0
 17 53  1  0
 24 54  1  0
 24 55  1  0
 24 56  1  0
 25 57  1  0
 27 58  1  6
 28 59  1  0
 28 60  1  0
 28 61  1  0
 29 62  1  0
 29 63  1  0
 31 64  1  0
 31 65  1  0
 31 66  1  0
 32 67  1  0
 32 68  1  0
 32 69  1  0
 35 70  1  0
 35 71  1  0
 35 72  1  0
M  CHG  1  25   1
M  END
>  <Binding energies>  (1) 
[-9.3]

>  <Ligand effiencies>  (1) 
[-0.2513513513513514]

>  <Interactions>  (1) 
["V-B:PRO:540:CA:9855, H-A:GLU:543:OE2:4910, V-A:PRO:540:C:4881, V-A:ILE:538:CB:4862, H-A:TYR:531:OH:4795, V-B:TYR:539:CE2:9848, V-A:ASP:366:CG:3213, V-A:ILE:538:CG2:4863, V-A:LEU:363:CD1:3189, V-A:LEU:363:CB:3187, V-B:TYR:539:CZ:9849, V-A:GLU:543:CD:4908, V-A:TYR:484:CZ:4347, V-B:PRO:540:N:9856, V-A:HIS:456:CE1:4070, V-A:MET:535:CE:4835, V-A:ASP:366:CB:3212, H-A:ARG:545:NH2:4928, H-A:GLU:543:OE1:4909, V-A:PRO:540:N:4884, V-A:PRO:540:CB:4885, V-A:PRO:540:CA:4883, V-A:LEU:363:CA:3185, H-A:ARG:545:NE:4924, H-A:TYR:484:OH:4348"]

$$$$
ZINC17422731
     RDKit          3D

 58 60  0  0  0  0  0  0  0  0999 V2000
  127.3360  122.5520   57.1400 C   0  0  0  0  0  0  0  0  0  0  0  0
  127.9780  123.2320   58.3520 C   0  0  0  0  0  0  0  0  0  0  0  0
  127.5840  122.5360   59.5320 O   0  0  0  0  0  0  0  0  0  0  0  0
  128.4250  122.5190   60.6310 C   0  0  0  0  0  0  0  0  0  0  0  0
  129.7910  122.1920   60.5700 C   0  0  0  0  0  0  0  0  0  0  0  0
  130.6020  122.1980   61.7140 C   0  0  0  0  0  0  0  0  0  0  0  0
  132.0260  121.8310   61.5760 C   0  0  0  0  0  0  0  0  0  0  0  0
  133.0420  122.5640   61.3010 N   0  0  0  0  0  0  0  0  0  0  0  0
  132.9370  123.9030   60.8430 N   0  0  0  0  0  0  0  0  0  0  0  0
  132.1130  124.7720   61.7030 C   0  0  0  0  0  0  0  0  0  0  0  0
  132.1070  126.2260   61.1750 C   0  0  0  0  0  0  0  0  0  0  0  0
  131.6670  126.2820   59.7660 N   0  0  0  0  0  0  0  0  0  0  0  0
  131.5310  127.5560   59.1270 N   0  0  0  0  0  0  0  0  0  0  0  0
  130.8560  128.5280   59.6090 C   0  0  0  0  0  0  0  0  0  0  0  0
  130.7330  129.8380   58.9560 C   0  0  0  0  0  0  0  0  0  0  0  0
  131.6240  130.2650   57.9590 C   0  0  0  0  0  0  0  0  0  0  0  0
  131.4820  131.5150   57.3640 C   0  0  0  0  0  0  0  0  0  0  0  0
  130.4470  132.3630   57.7520 C   0  0  0  0  0  0  0  0  0  0  0  0
  130.3320  133.5900   57.1500 O   0  0  0  0  0  0  0  0  0  0  0  0
  129.5380  131.9680   58.7420 C   0  0  0  0  0  0  0  0  0  0  0  0
  128.5330  132.8600   59.0760 O   0  0  0  0  0  0  0  0  0  0  0  0
  127.9600  132.8200   60.3800 C   0  0  0  0  0  0  0  0  0  0  0  0
  128.9970  133.3270   61.3880 C   0  0  0  0  0  0  0  0  0  0  0  0
  129.6950  130.7020   59.3330 C   0  0  0  0  0  0  0  0  0  0  0  0
  132.4280  125.3660   58.9130 C   0  0  0  0  0  0  0  0  0  0  0  0
  132.4080  123.9270   59.4780 C   0  0  0  0  0  0  0  0  0  0  0  0
  130.0080  122.5120   62.9450 C   0  0  0  0  0  0  0  0  0  0  0  0
  128.6580  122.8410   63.0240 C   0  0  0  0  0  0  0  0  0  0  0  0
  127.8700  122.8500   61.8740 C   0  0  0  0  0  0  0  0  0  0  0  0
  126.5430  123.1810   61.9830 O   0  0  0  0  0  0  0  0  0  0  0  0
  126.6186  121.7921   57.4833 H   0  0  0  0  0  0  0  0  0  0  0  0
  126.8110  123.3042   56.5329 H   0  0  0  0  0  0  0  0  0  0  0  0
  128.1171  122.0711   56.5329 H   0  0  0  0  0  0  0  0  0  0  0  0
  129.0733  123.2037   58.2545 H   0  0  0  0  0  0  0  0  0  0  0  0
  127.6498  124.2803   58.4095 H   0  0  0  0  0  0  0  0  0  0  0  0
  130.2351  121.9245   59.5998 H   0  0  0  0  0  0  0  0  0  0  0  0
  132.2495  120.7655   61.7332 H   0  0  0  0  0  0  0  0  0  0  0  0
  131.0815  124.3901   61.7179 H   0  0  0  0  0  0  0  0  0  0  0  0
  132.5390  124.7683   62.7172 H   0  0  0  0  0  0  0  0  0  0  0  0
  131.4208  126.8277   61.7891 H   0  0  0  0  0  0  0  0  0  0  0  0
  133.1314  126.6223   61.2355 H   0  0  0  0  0  0  0  0  0  0  0  0
  130.3377  128.3751   60.5671 H   0  0  0  0  0  0  0  0  0  0  0  0
  132.4445  129.6035   57.6441 H   0  0  0  0  0  0  0  0  0  0  0  0
  132.1894  131.8346   56.5846 H   0  0  0  0  0  0  0  0  0  0  0  0
  129.5680  134.0820   57.4610 H   0  0  0  0  0  0  0  0  0  0  0  0
  127.0677  133.4624   60.4121 H   0  0  0  0  0  0  0  0  0  0  0  0
  127.6675  131.7894   60.6294 H   0  0  0  0  0  0  0  0  0  0  0  0
  128.6323  133.1487   62.4103 H   0  0  0  0  0  0  0  0  0  0  0  0
  129.9460  132.7912   61.2386 H   0  0  0  0  0  0  0  0  0  0  0  0
  129.1570  134.4050   61.2386 H   0  0  0  0  0  0  0  0  0  0  0  0
  128.9859  130.3813   60.1104 H   0  0  0  0  0  0  0  0  0  0  0  0
  131.9849  125.3621   57.9062 H   0  0  0  0  0  0  0  0  0  0  0  0
  133.4719  125.7109   58.8768 H   0  0  0  0  0  0  0  0  0  0  0  0
  131.3727  123.5554   59.4847 H   0  0  0  0  0  0  0  0  0  0  0  0
  133.0373  123.2871   58.8420 H   0  0  0  0  0  0  0  0  0  0  0  0
  130.6174  122.4981   63.8606 H   0  0  0  0  0  0  0  0  0  0  0  0
  128.2114  123.0947   63.9967 H   0  0  0  0  0  0  0  0  0  0  0  0
  126.4020  124.0310   62.4050 H   0  0  0  0  0  0  0  0  0  0  0  0
  1  2  1  0
  2  3  1  0
  3  4  1  0
  4  5  2  0
  5  6  1  0
  6  7  1  0
  7  8  2  0
  8  9  1  0
  9 10  1  0
 10 11  1  0
 11 12  1  0
 12 13  1  0
 13 14  2  0
 14 15  1  0
 15 16  2  0
 16 17  1  0
 17 18  2  0
 18 19  1  0
 18 20  1  0
 20 21  1  0
 21 22  1  0
 22 23  1  0
 20 24  2  0
 12 25  1  0
 25 26  1  0
  6 27  2  0
 27 28  1  0
 28 29  2  0
 29 30  1  0
 29  4  1  0
 26  9  1  0
 24 15  1  0
  1 31  1  0
  1 32  1  0
  1 33  1  0
  2 34  1  0
  2 35  1  0
  5 36  1  0
  7 37  1  0
 10 38  1  0
 10 39  1  0
 11 40  1  0
 11 41  1  0
 14 42  1  0
 16 43  1  0
 17 44  1  0
 19 45  1  0
 22 46  1  0
 22 47  1  0
 23 48  1  0
 23 49  1  0
 23 50  1  0
 24 51  1  0
 25 52  1  0
 25 53  1  0
 26 54  1  0
 26 55  1  0
 27 56  1  0
 28 57  1  0
 30 58  1  0
M  END
>  <Binding energies>  (1) 
[-6.48]

>  <Ligand effiencies>  (1) 
[-0.2025]

>  <Interactions>  (1) 
["V-B:PRO:540:CA:9855, V-A:PRO:540:C:4881, V-B:ALA:541:CB:9864, H-A:TYR:531:OH:4795, V-B:TYR:539:CE2:9848, V-B:GLU:543:CG:9879, V-B:TYR:539:C:9839, V-A:ASP:366:CG:3213, V-A:LEU:363:CD1:3189, V-A:TYR:539:CD1:4873, V-B:TYR:539:CZ:9849, H-B:GLU:543:OE1:9881, V-A:ALA:541:CB:4892, H-B:ALA:541:N:9863, V-B:PRO:540:N:9856, V-B:TYR:539:CD2:9846, V-A:TYR:539:C:4867, V-A:ASP:366:CB:3212, V-A:LEU:475:CD2:4259, V-B:TYR:539:CG:9844, V-B:TYR:539:CD1:9845, H-A:TYR:539:O:4868, V-A:PRO:540:N:4884, H-A:TYR:539:N:4870, V-A:PRO:540:CA:4883, V-B:PRO:540:C:9853, V-B:TYR:539:CE1:9847"]

$$$$
ZINC175095489-again1
     RDKit          3D

 46 48  0  0  0  0  0  0  0  0999 V2000
  128.1800  129.2420   74.3220 C   0  0  0  0  0  0  0  0  0  0  0  0
  128.1980  127.8860   73.8900 O   0  0  0  0  0  0  0  0  0  0  0  0
  128.3620  127.6080   72.5450 C   0  0  0  0  0  0  0  0  0  0  0  0
  127.3220  127.2160   71.6870 C   0  0  0  0  0  0  0  0  0  0  0  0
  127.5720  126.9540   70.3410 C   0  0  0  0  0  0  0  0  0  0  0  0
  128.8640  127.0740   69.8100 C   0  0  0  0  0  0  0  0  0  0  0  0
  129.1450  126.7930   68.3590 C   0  0  0  0  0  0  0  0  0  0  0  0
  128.4670  127.3380   67.2600 C   0  0  0  0  0  0  0  0  0  0  0  0
  129.1240  126.7340   65.7700 S   0  0  0  0  0  0  0  0  0  0  0  0
  130.2400  125.8110   66.7120 C   0  0  0  0  0  0  0  0  0  0  0  0
  131.1490  125.0160   66.0280 N   0  0  0  0  0  0  0  0  0  0  0  0
  131.6200  125.2210   64.7770 C   0  0  0  0  0  0  0  0  0  0  0  0
  131.3090  126.1730   64.0580 O   0  0  0  0  0  0  0  0  0  0  0  0
  132.6260  124.1770   64.2700 C   0  0  0  0  0  0  0  0  0  0  0  0
  133.7720  124.7780   63.4240 C   0  0  0  0  0  0  0  0  0  0  0  0
  134.0890  123.9530   62.1620 C   0  0  2  0  0  0  0  0  0  0  0  0
  133.4690  124.5110   60.8790 C   0  0  0  0  0  0  0  0  0  0  0  0
  133.2540  123.2650   60.0560 C   0  0  0  0  0  0  0  0  0  0  0  0
  132.8130  122.2560   61.1150 C   0  0  1  0  0  0  0  0  0  0  0  0
  133.1650  120.7970   60.7900 C   0  0  0  0  0  0  0  0  0  0  0  0
  133.5200  122.6470   62.2950 O   0  0  0  0  0  0  0  0  0  0  0  0
  130.1150  125.9570   68.0130 N   0  0  0  0  0  0  0  0  0  0  0  0
  129.8980  127.4660   70.6710 C   0  0  0  0  0  0  0  0  0  0  0  0
  129.6510  127.7290   72.0180 C   0  0  0  0  0  0  0  0  0  0  0  0
  130.6770  128.1050   72.8170 F   0  0  0  0  0  0  0  0  0  0  0  0
  128.1795  129.2766   75.4215 H   0  0  0  0  0  0  0  0  0  0  0  0
  129.0713  129.7606   73.9392 H   0  0  0  0  0  0  0  0  0  0  0  0
  127.2752  129.7368   73.9392 H   0  0  0  0  0  0  0  0  0  0  0  0
  126.3000  127.1147   72.0809 H   0  0  0  0  0  0  0  0  0  0  0  0
  126.7431  126.6485   69.6855 H   0  0  0  0  0  0  0  0  0  0  0  0
  127.6325  128.0511   67.3314 H   0  0  0  0  0  0  0  0  0  0  0  0
  131.4830  124.2040   66.5240 H   0  0  0  0  0  0  0  0  0  0  0  0
  133.0666  123.6681   65.1400 H   0  0  0  0  0  0  0  0  0  0  0  0
  132.0717  123.4872   63.6166 H   0  0  0  0  0  0  0  0  0  0  0  0
  133.4835  125.7935   63.1150 H   0  0  0  0  0  0  0  0  0  0  0  0
  134.6761  124.7792   64.0505 H   0  0  0  0  0  0  0  0  0  0  0  0
  135.1860  123.9668   62.0819 H   0  0  0  0  0  0  0  0  0  0  0  0
  132.5164  125.0207   61.0861 H   0  0  0  0  0  0  0  0  0  0  0  0
  134.0949  125.2654   60.3799 H   0  0  0  0  0  0  0  0  0  0  0  0
  132.4712  123.4168   59.2983 H   0  0  0  0  0  0  0  0  0  0  0  0
  134.1416  122.9510   59.4871 H   0  0  0  0  0  0  0  0  0  0  0  0
  131.7165  122.2736   61.2013 H   0  0  0  0  0  0  0  0  0  0  0  0
  133.3005  120.2353   61.7260 H   0  0  0  0  0  0  0  0  0  0  0  0
  132.3502  120.3447   60.2056 H   0  0  0  0  0  0  0  0  0  0  0  0
  134.0964  120.7660   60.2056 H   0  0  0  0  0  0  0  0  0  0  0  0
  130.9204  127.5678   70.2781 H   0  0  0  0  0  0  0  0  0  0  0  0
  1  2  1  0
  2  3  1  0
  3  4  2  0
  4  5  1  0
  5  6  2  0
  6  7  1  0
  7  8  2  0
  8  9  1  0
  9 10  1  0
 10 11  1  0
 11 12  1  0
 12 13  2  0
 12 14  1  0
 14 15  1  0
 15 16  1  0
 16 17  1  0
 17 18  1  0
 18 19  1  0
 19 20  1  0
 19 21  1  0
 10 22  2  0
  6 23  1  0
 23 24  2  0
 24 25  1  0
 24  3  1  0
 22  7  1  0
 21 16  1  0
  1 26  1  0
  1 27  1  0
  1 28  1  0
  4 29  1  0
  5 30  1  0
  8 31  1  0
 11 32  1  0
 14 33  1  0
 14 34  1  0
 15 35  1  0
 15 36  1  0
 16 37  1  6
 17 38  1  0
 17 39  1  0
 18 40  1  0
 18 41  1  0
 19 42  1  1
 20 43  1  0
 20 44  1  0
 20 45  1  0
 23 46  1  0
M  END
>  <Binding energies>  (1) 
[-6.78]

>  <Ligand effiencies>  (1) 
[-0.26076923076923075]

>  <Interactions>  (1) 
["V-A:ILE:369:CG2:3237, V-B:HIS:456:CD2:9039, V-B:GLU:543:C:9874, V-B:GLU:543:CB:9878, H-B:LYS:547:NZ:9923, V-B:TYR:539:CE2:9848, V-A:TYR:484:CE2:4346, V-B:GLU:543:CG:9879, V-A:GLY:544:C:4912, V-A:ASP:366:CG:3213, V-A:TYR:484:CZ:4347, V-A:GLU:543:CD:4908, V-B:HIS:456:CE1:9041, H-A:GLY:454:N:4050, V-A:HIS:456:CE1:4070, V-A:ILE:369:CD1:3239, V-B:GLY:544:C:9884, V-A:SER:385:CB:3409, V-B:GLU:543:CD:9880, V-B:HIS:456:CG:9037, V-A:LEU:475:CD2:4259, H-A:ARG:545:NH2:4928, V-A:ARG:545:CZ:4926, V-A:SER:385:CA:3407, H-A:TYR:484:OH:4348"]

$$$$
ZINC176851583
     RDKit          3D

 36 37  0  0  0  0  0  0  0  0999 V2000
  127.5240  127.3500   68.0220 C   0  0  0  0  0  0  0  0  0  0  0  0
  128.9160  127.7580   68.5350 C   0  0  2  0  0  0  0  0  0  0  0  0
  129.9540  127.1320   67.7050 N   0  0  0  0  0  0  0  0  0  0  0  0
  130.0920  125.8090   67.4730 C   0  0  0  0  0  0  0  0  0  0  0  0
  129.3220  124.9550   67.9260 O   0  0  0  0  0  0  0  0  0  0  0  0
  131.2650  125.4780   66.6140 C   0  0  0  0  0  0  0  0  0  0  0  0
  132.4170  125.8150   66.9040 O   0  0  0  0  0  0  0  0  0  0  0  0
  130.9190  124.7660   65.5150 N   0  0  0  0  0  0  0  0  0  0  0  0
  131.7470  124.2530   64.4960 C   0  0  0  0  0  0  0  0  0  0  0  0
  132.9750  124.8370   64.1400 C   0  0  0  0  0  0  0  0  0  0  0  0
  133.7540  124.2870   63.1220 C   0  0  0  0  0  0  0  0  0  0  0  0
  134.9320  124.8620   62.7900 F   0  0  0  0  0  0  0  0  0  0  0  0
  133.3150  123.1510   62.4450 C   0  0  0  0  0  0  0  0  0  0  0  0
  134.0680  122.6150   61.4580 F   0  0  0  0  0  0  0  0  0  0  0  0
  132.0960  122.5670   62.7830 C   0  0  0  0  0  0  0  0  0  0  0  0
  131.3090  123.1120   63.8010 C   0  0  0  0  0  0  0  0  0  0  0  0
  129.8020  122.3420   64.1720 Cl  0  0  0  0  0  0  0  0  0  0  0  0
  129.0310  127.5000   70.0490 C   0  0  0  0  0  0  0  0  0  0  0  0
  127.8980  127.1280   70.7910 C   0  0  0  0  0  0  0  0  0  0  0  0
  127.9860  126.8830   72.1600 C   0  0  0  0  0  0  0  0  0  0  0  0
  129.2110  127.0050   72.8110 C   0  0  0  0  0  0  0  0  0  0  0  0
  129.3000  126.7670   74.1390 F   0  0  0  0  0  0  0  0  0  0  0  0
  130.3450  127.3780   72.0920 C   0  0  0  0  0  0  0  0  0  0  0  0
  130.2630  127.6270   70.7200 C   0  0  0  0  0  0  0  0  0  0  0  0
  131.7100  128.0960   69.8930 Cl  0  0  0  0  0  0  0  0  0  0  0  0
  126.8604  127.1555   68.8775 H   0  0  0  0  0  0  0  0  0  0  0  0
  127.1056  128.1633   67.4109 H   0  0  0  0  0  0  0  0  0  0  0  0
  127.6108  126.4395   67.4109 H   0  0  0  0  0  0  0  0  0  0  0  0
  129.0718  128.8417   68.4282 H   0  0  0  0  0  0  0  0  0  0  0  0
  130.6480  127.7550   67.3180 H   0  0  0  0  0  0  0  0  0  0  0  0
  129.9480  124.4960   65.4470 H   0  0  0  0  0  0  0  0  0  0  0  0
  133.3248  125.7358   64.6689 H   0  0  0  0  0  0  0  0  0  0  0  0
  131.7510  121.6715   62.2453 H   0  0  0  0  0  0  0  0  0  0  0  0
  126.9269  127.0286   70.2840 H   0  0  0  0  0  0  0  0  0  0  0  0
  127.0884  126.5934   72.7261 H   0  0  0  0  0  0  0  0  0  0  0  0
  131.3112  127.4770   72.6084 H   0  0  0  0  0  0  0  0  0  0  0  0
  1  2  1  0
  2  3  1  0
  3  4  1  0
  4  5  2  0
  4  6  1  0
  6  7  2  0
  6  8  1  0
  8  9  1  0
  9 10  2  0
 10 11  1  0
 11 12  1  0
 11 13  2  0
 13 14  1  0
 13 15  1  0
 15 16  2  0
 16 17  1  0
  2 18  1  0
 18 19  2  0
 19 20  1  0
 20 21  2  0
 21 22  1  0
 21 23  1  0
 23 24  2  0
 24 25  1  0
 16  9  1  0
 24 18  1  0
  1 26  1  0
  1 27  1  0
  1 28  1  0
  2 29  1  1
  3 30  1  0
  8 31  1  0
 10 32  1  0
 15 33  1  0
 19 34  1  0
 20 35  1  0
 23 36  1  0
M  END
>  <Binding energies>  (1) 
[-7.13]

>  <Ligand effiencies>  (1) 
[-0.26407407407407407]

>  <Interactions>  (1) 
["V-A:ILE:369:CG2:3237, V-A:ARG:545:CA:4919, V-A:GLY:454:CA:4049, V-B:HIS:456:CD2:9039, H-A:GLU:543:OE2:4910, V-B:GLU:543:C:9874, V-A:GLU:543:C:4902, V-B:GLU:543:CB:9878, V-B:ALA:541:CB:9864, V-A:TYR:484:CE2:4346, V-A:GLY:544:CA:4914, V-B:GLU:543:CG:9879, V-A:GLY:544:C:4912, V-A:HIS:456:CD2:4068, V-A:ASP:366:CG:3213, V-B:LYS:547:CE:9922, V-A:GLU:543:CD:4908, V-A:TYR:484:CZ:4347, V-A:ARG:545:CG:4922, V-B:HIS:456:CE1:9041, V-A:GLY:453:C:4042, V-A:HIS:456:CE1:4070, V-A:ILE:369:CD1:3239, V-B:GLY:544:C:9884, V-B:GLU:543:CD:9880, V-A:LEU:475:CD2:4259, V-A:ARG:545:CZ:4926, V-A:GLU:543:CB:4906, V-A:GLY:453:CA:4044, H-A:ARG:545:NE:4924, H-A:TYR:484:OH:4348"]

$$$$
ZINC177140117
     RDKit          3D

 36 39  0  0  0  0  0  0  0  0999 V2000
  129.5400  123.7060   66.4850 O   0  0  0  0  0  0  0  0  0  0  0  0
  129.9520  124.8660   66.5520 C   0  0  0  0  0  0  0  0  0  0  0  0
  130.8860  125.4020   65.7370 N   0  0  0  0  0  0  0  0  0  0  0  0
  131.6150  124.7990   64.6960 C   0  0  0  0  0  0  0  0  0  0  0  0
  132.9570  125.0790   64.3900 C   0  0  0  0  0  0  0  0  0  0  0  0
  133.5850  124.4340   63.3260 C   0  0  0  0  0  0  0  0  0  0  0  0
  132.8890  123.5040   62.5530 C   0  0  0  0  0  0  0  0  0  0  0  0
  133.7360  122.7230   61.2030 S   0  0  0  0  0  0  0  0  0  0  0  0
  133.3470  123.8100   59.8680 C   0  0  0  0  0  0  0  0  0  0  0  0
  133.8320  123.7400   58.6490 N   0  0  0  0  0  0  0  0  0  0  0  0
  133.3460  124.7340   57.8090 N   0  0  0  0  0  0  0  0  0  0  0  0
  132.5100  125.5320   58.4220 C   0  0  0  0  0  0  0  0  0  0  0  0
  132.2420  125.1360   60.0900 S   0  0  0  0  0  0  0  0  0  0  0  0
  131.5410  123.2320   62.8360 C   0  0  0  0  0  0  0  0  0  0  0  0
  130.6130  122.1120   61.8980 Cl  0  0  0  0  0  0  0  0  0  0  0  0
  130.9170  123.8820   63.9040 C   0  0  0  0  0  0  0  0  0  0  0  0
  129.3830  125.8370   67.6040 C   0  0  2  0  0  0  0  0  0  0  0  0
  129.0730  127.2610   67.1710 C   0  0  0  0  0  0  0  0  0  0  0  0
  130.3010  126.9690   68.0100 C   0  0  1  0  0  0  0  0  0  0  0  0
  130.2960  127.4950   69.4550 C   0  0  0  0  0  0  0  0  0  0  0  0
  129.2400  128.4790   69.8850 C   0  0  0  0  0  0  0  0  0  0  0  0
  129.2180  127.0520   70.4090 C   0  0  0  0  0  0  0  0  0  0  0  0
  131.0600  126.3900   65.8500 H   0  0  0  0  0  0  0  0  0  0  0  0
  133.5148  125.8107   64.9929 H   0  0  0  0  0  0  0  0  0  0  0  0
  134.6363  124.6596   63.0941 H   0  0  0  0  0  0  0  0  0  0  0  0
  132.0193  126.3807   57.9231 H   0  0  0  0  0  0  0  0  0  0  0  0
  129.8607  123.6691   64.1251 H   0  0  0  0  0  0  0  0  0  0  0  0
  128.8100  125.0545   68.1229 H   0  0  0  0  0  0  0  0  0  0  0  0
  129.1835  127.5521   66.1160 H   0  0  0  0  0  0  0  0  0  0  0  0
  128.2071  127.9328   67.2648 H   0  0  0  0  0  0  0  0  0  0  0  0
  131.3851  127.1320   67.9201 H   0  0  0  0  0  0  0  0  0  0  0  0
  131.3958  127.4816   69.4711 H   0  0  0  0  0  0  0  0  0  0  0  0
  129.5017  129.3089   70.5579 H   0  0  0  0  0  0  0  0  0  0  0  0
  128.5220  129.1294   69.3640 H   0  0  0  0  0  0  0  0  0  0  0  0
  129.4638  126.8478   71.4616 H   0  0  0  0  0  0  0  0  0  0  0  0
  128.4774  126.2388   70.4255 H   0  0  0  0  0  0  0  0  0  0  0  0
  1  2  2  0
  2  3  1  0
  3  4  1  0
  4  5  2  0
  5  6  1  0
  6  7  2  0
  7  8  1  0
  8  9  1  0
  9 10  2  0
 10 11  1  0
 11 12  2  0
 12 13  1  0
  7 14  1  0
 14 15  1  0
 14 16  2  0
  2 17  1  0
 17 18  1  0
 18 19  1  0
 19 20  1  0
 20 21  1  0
 21 22  1  0
 16  4  1  0
 19 17  1  0
 22 20  1  0
 13  9  1  0
  3 23  1  0
  5 24  1  0
  6 25  1  0
 12 26  1  0
 16 27  1  0
 17 28  1  1
 18 29  1  0
 18 30  1  0
 19 31  1  6
 20 32  1  0
 21 33  1  0
 21 34  1  0
 22 35  1  0
 22 36  1  0
M  END
>  <Binding energies>  (1) 
[-7.71]

>  <Ligand effiencies>  (1) 
[-0.3352173913043478]

>  <Interactions>  (1) 
["V-A:ILE:369:CG2:3237, V-A:ASP:366:CA:3210, H-A:GLU:543:OE2:4910, V-A:GLU:543:C:4902, V-B:GLU:543:CB:9878, V-B:TYR:539:CE2:9848, V-A:TYR:484:CE2:4346, V-B:GLU:543:CG:9879, V-A:ASP:366:CG:3213, H-B:TYR:539:OH:9850, V-A:GLU:543:CD:4908, V-A:TYR:484:CZ:4347, V-B:HIS:456:CE1:9041, V-B:GLU:543:CA:9876, V-A:HIS:456:CE1:4070, V-A:ASP:366:CB:3212, V-A:LEU:475:CD2:4259, V-A:ARG:545:CZ:4926, H-A:GLU:543:OE1:4909, V-A:GLU:543:CB:4906, H-A:TYR:484:OH:4348"]

$$$$
ZINC1772491602
     RDKit          3D

 81 85  0  0  0  0  0  0  0  0999 V2000
  129.5110  125.7210   66.4270 C   0  0  0  0  0  0  0  0  0  0  0  0
  130.6370  125.2860   65.6790 O   0  0  0  0  0  0  0  0  0  0  0  0
  130.6500  125.3780   64.3290 C   0  0  0  0  0  0  0  0  0  0  0  0
  130.0130  126.2150   63.6780 O   0  0  0  0  0  0  0  0  0  0  0  0
  131.5650  124.3180   63.7200 C   0  0  2  0  0  0  0  0  0  0  0  0
  132.8660  124.9460   63.1480 C   0  0  0  0  0  0  0  0  0  0  0  0
  133.0600  124.8020   61.6460 C   0  0  0  0  0  0  0  0  0  0  0  0
  132.1380  125.3800   60.7500 C   0  0  0  0  0  0  0  0  0  0  0  0
  132.3290  125.2560   59.3590 C   0  0  0  0  0  0  0  0  0  0  0  0
  133.4440  124.5520   58.8610 C   0  0  0  0  0  0  0  0  0  0  0  0
  133.6290  124.4350   57.5150 O   0  0  0  0  0  0  0  0  0  0  0  0
  134.3660  123.9730   59.7550 C   0  0  0  0  0  0  0  0  0  0  0  0
  134.1740  124.0950   61.1440 C   0  0  0  0  0  0  0  0  0  0  0  0
  130.7930  123.6790   62.6470 N   0  0  0  0  0  0  0  0  0  0  0  0
  129.5300  123.2230   62.7460 C   0  0  0  0  0  0  0  0  0  0  0  0
  128.8930  123.2400   63.7980 O   0  0  0  0  0  0  0  0  0  0  0  0
  128.8760  122.6450   61.4740 C   0  0  0  0  0  0  0  0  0  0  0  0
  129.3160  123.3290   60.2970 O   0  0  0  0  0  0  0  0  0  0  0  0
  128.2100  123.8900   59.6150 N   0  0  0  0  0  0  0  0  0  0  0  0
  128.2360  125.1660   59.6050 C   0  0  0  0  0  0  0  0  0  0  0  0
  129.2320  126.0180   60.2190 C   0  0  0  0  0  0  0  0  0  0  0  0
  129.1460  127.3560   60.3740 C   0  0  0  0  0  0  0  0  0  0  0  0
  130.2850  128.1920   60.9680 C   0  0  0  0  0  0  0  0  0  0  0  0
  130.8170  129.1970   59.9080 C   0  0  0  0  0  0  0  0  0  0  0  0
  129.7270  129.6890   58.9220 C   0  0  1  0  0  0  0  0  0  0  0  0
  128.3160  129.6320   59.5870 C   0  0  1  0  0  0  0  0  0  0  0  0
  127.3100  130.4850   58.7680 C   0  0  0  0  0  0  0  0  0  0  0  0
  127.7120  131.9910   58.7400 C   0  0  0  0  0  0  0  0  0  0  0  0
  129.2610  132.2500   58.6700 C   0  0  2  0  0  0  0  0  0  0  0  0
  129.7450  132.6430   60.1010 C   0  0  0  0  0  0  0  0  0  0  0  0
  129.7730  133.3500   57.6900 C   0  0  2  0  0  0  0  0  0  0  0  0
  129.0960  133.3110   56.4440 O   0  0  0  0  0  0  0  0  0  0  0  0
  131.2580  132.9600   57.4560 C   0  0  0  0  0  0  0  0  0  0  0  0
  131.4110  131.4590   57.7840 C   0  0  0  0  0  0  0  0  0  0  0  0
  129.9870  130.9950   58.1170 C   0  0  1  0  0  0  0  0  0  0  0  0
  127.8930  128.1530   59.9270 C   0  0  2  0  0  0  0  0  0  0  0  0
  126.8780  128.1610   61.1010 C   0  0  0  0  0  0  0  0  0  0  0  0
  127.2900  127.3980   58.7060 C   0  0  0  0  0  0  0  0  0  0  0  0
  127.0580  125.8790   58.9190 C   0  0  0  0  0  0  0  0  0  0  0  0
  129.7298  125.6365   67.5017 H   0  0  0  0  0  0  0  0  0  0  0  0
  129.2891  126.7695   66.1794 H   0  0  0  0  0  0  0  0  0  0  0  0
  128.6418  125.0939   66.1794 H   0  0  0  0  0  0  0  0  0  0  0  0
  131.8795  123.5931   64.4853 H   0  0  0  0  0  0  0  0  0  0  0  0
  132.8568  126.0198   63.3867 H   0  0  0  0  0  0  0  0  0  0  0  0
  133.6962  124.3942   63.6130 H   0  0  0  0  0  0  0  0  0  0  0  0
  131.2672  125.9292   61.1373 H   0  0  0  0  0  0  0  0  0  0  0  0
  131.6081  125.7085   58.6622 H   0  0  0  0  0  0  0  0  0  0  0  0
  134.4950  124.0910   57.2840 H   0  0  0  0  0  0  0  0  0  0  0  0
  135.2372  123.4248   59.3670 H   0  0  0  0  0  0  0  0  0  0  0  0
  134.8934  123.6385   61.8398 H   0  0  0  0  0  0  0  0  0  0  0  0
  131.2530  123.6400   61.7490 H   0  0  0  0  0  0  0  0  0  0  0  0
  129.1413  121.5809   61.3884 H   0  0  0  0  0  0  0  0  0  0  0  0
  127.7868  122.7733   61.5590 H   0  0  0  0  0  0  0  0  0  0  0  0
  130.1436  125.5298   60.5941 H   0  0  0  0  0  0  0  0  0  0  0  0
  129.9120  128.7473   61.8412 H   0  0  0  0  0  0  0  0  0  0  0  0
  131.1029  127.5224   61.2726 H   0  0  0  0  0  0  0  0  0  0  0  0
  131.2315  130.0702   60.4331 H   0  0  0  0  0  0  0  0  0  0  0  0
  131.5770  128.6688   59.3135 H   0  0  0  0  0  0  0  0  0  0  0  0
  129.7776  128.9581   58.1015 H   0  0  0  0  0  0  0  0  0  0  0  0
  128.3328  130.1066   60.5792 H   0  0  0  0  0  0  0  0  0  0  0  0
  127.2800  130.1058   57.7359 H   0  0  0  0  0  0  0  0  0  0  0  0
  126.3241  130.4044   59.2491 H   0  0  0  0  0  0  0  0  0  0  0  0
  127.2457  132.4549   57.8583 H   0  0  0  0  0  0  0  0  0  0  0  0
  127.3642  132.4258   59.6887 H   0  0  0  0  0  0  0  0  0  0  0  0
  129.1206  132.1360   60.8514 H   0  0  0  0  0  0  0  0  0  0  0  0
  130.7939  132.3377   60.2300 H   0  0  0  0  0  0  0  0  0  0  0  0
  129.6616  133.7322   60.2300 H   0  0  0  0  0  0  0  0  0  0  0  0
  129.6186  134.3587   58.1008 H   0  0  0  0  0  0  0  0  0  0  0  0
  128.1620  133.4740   56.5980 H   0  0  0  0  0  0  0  0  0  0  0  0
  131.5317  133.1432   56.4065 H   0  0  0  0  0  0  0  0  0  0  0  0
  131.9183  133.5620   58.0976 H   0  0  0  0  0  0  0  0  0  0  0  0
  131.8069  130.9094   56.9173 H   0  0  0  0  0  0  0  0  0  0  0  0
  132.1148  131.2796   58.6101 H   0  0  0  0  0  0  0  0  0  0  0  0
  129.5675  130.6060   57.1775 H   0  0  0  0  0  0  0  0  0  0  0  0
  127.4227  128.1567   62.0567 H   0  0  0  0  0  0  0  0  0  0  0  0
  126.2530  129.0641   61.0392 H   0  0  0  0  0  0  0  0  0  0  0  0
  126.2389  127.2679   61.0392 H   0  0  0  0  0  0  0  0  0  0  0  0
  126.3213  127.8599   58.4646 H   0  0  0  0  0  0  0  0  0  0  0  0
  128.0307  127.4837   57.8973 H   0  0  0  0  0  0  0  0  0  0  0  0
  126.1615  125.7483   59.5429 H   0  0  0  0  0  0  0  0  0  0  0  0
  126.9439  125.4274   57.9225 H   0  0  0  0  0  0  0  0  0  0  0  0
  1  2  1  0
  2  3  1  0
  3  4  2  0
  3  5  1  0
  5  6  1  0
  6  7  1  0
  7  8  2  0
  8  9  1  0
  9 10  2  0
 10 11  1  0
 10 12  1  0
 12 13  2  0
  5 14  1  0
 14 15  1  0
 15 16  2  0
 15 17  1  0
 17 18  1  0
 18 19  1  0
 19 20  2  0
 20 21  1  0
 21 22  2  0
 22 23  1  0
 23 24  1  0
 24 25  1  0
 25 26  1  0
 26 27  1  0
 27 28  1  0
 28 29  1  0
 29 30  1  1
 29 31  1  0
 31 32  1  0
 31 33  1  0
 33 34  1  0
 34 35  1  0
 26 36  1  0
 36 37  1  1
 36 38  1  0
 38 39  1  0
 13  7  1  0
 39 20  1  0
 36 22  1  0
 35 25  1  0
 35 29  1  0
  1 40  1  0
  1 41  1  0
  1 42  1  0
  5 43  1  1
  6 44  1  0
  6 45  1  0
  8 46  1  0
  9 47  1  0
 11 48  1  0
 12 49  1  0
 13 50  1  0
 14 51  1  0
 17 52  1  0
 17 53  1  0
 21 54  1  0
 23 55  1  0
 23 56  1  0
 24 57  1  0
 24 58  1  0
 25 59  1  6
 26 60  1  1
 27 61  1  0
 27 62  1  0
 28 63  1  0
 28 64  1  0
 30 65  1  0
 30 66  1  0
 30 67  1  0
 31 68  1  1
 32 69  1  0
 33 70  1  0
 33 71  1  0
 34 72  1  0
 34 73  1  0
 35 74  1  6
 37 75  1  0
 37 76  1  0
 37 77  1  0
 38 78  1  0
 38 79  1  0
 39 80  1  0
 39 81  1  0
M  END
>  <Binding energies>  (1) 
[-7.57]

>  <Ligand effiencies>  (1) 
[-0.18023809523809525]

>  <Interactions>  (1) 
["V-A:ILE:369:CG2:3237, V-A:ASP:366:CA:3210, V-A:ILE:369:CB:3236, V-B:GLU:543:CB:9878, V-B:TYR:539:CE2:9848, V-B:GLU:543:CG:9879, V-A:ASP:366:CG:3213, V-A:TYR:539:CD1:4873, V-A:LEU:363:CD1:3189, H-A:ASN:370:N:3244, H-B:TYR:539:OH:9850, V-A:TYR:539:CA:4869, V-A:ILE:369:CD1:3239, V-A:ASP:366:C:3208, V-B:GLU:543:CD:9880, V-A:ILE:369:CG1:3238, V-A:ASP:366:CB:3212, V-A:TYR:539:C:4867, V-A:ARG:545:CZ:4926, H-A:ASP:366:O:3209, V-A:PRO:540:N:4884, H-A:TYR:539:N:4870, V-A:PRO:540:CB:4885, V-A:PRO:540:CA:4883, V-A:PRO:540:CD:4887, V-A:TYR:539:CE1:4875, H-A:TYR:484:OH:4348"]

$$$$
ZINC1772491610
     RDKit          3D

 64 67  0  0  0  0  0  0  0  0999 V2000
  129.4920  125.1840   67.5720 C   0  0  0  0  0  0  0  0  0  0  0  0
  130.0690  125.0620   66.1520 C   0  0  0  0  0  0  0  0  0  0  0  0
  131.5260  125.5190   66.0670 C   0  0  0  0  0  0  0  0  0  0  0  0
  132.1600  125.8230   67.0800 O   0  0  0  0  0  0  0  0  0  0  0  0
  131.9890  125.5410   64.8000 O   0  0  0  0  0  0  0  0  0  0  0  0
  132.1070  124.3370   64.0480 C   0  0  0  0  0  0  0  0  0  0  0  0
  133.2570  124.4280   63.0260 C   0  0  0  0  0  0  0  0  0  0  0  0
  134.4020  124.6990   63.4010 O   0  0  0  0  0  0  0  0  0  0  0  0
  132.9460  124.1670   61.5090 C   0  0  1  0  0  0  0  0  0  0  0  0
  134.1840  124.2780   60.8190 O   0  0  0  0  0  0  0  0  0  0  0  0
  132.3560  122.7410   61.3510 C   0  0  0  0  0  0  0  0  0  0  0  0
  130.8280  122.8890   61.3870 C   0  0  0  0  0  0  0  0  0  0  0  0
  130.5070  124.4040   61.4300 C   0  0  2  0  0  0  0  0  0  0  0  0
  129.2040  124.8590   60.6960 C   0  0  2  0  0  0  0  0  0  0  0  0
  127.9790  124.0710   61.2360 C   0  0  0  0  0  0  0  0  0  0  0  0
  126.6600  124.3830   60.5110 C   0  0  0  0  0  0  0  0  0  0  0  0
  126.8910  124.1470   59.0240 C   0  0  0  0  0  0  0  0  0  0  0  0
  126.3110  123.1140   58.3700 C   0  0  0  0  0  0  0  0  0  0  0  0
  126.6160  122.7350   56.9990 C   0  0  0  0  0  0  0  0  0  0  0  0
  125.9680  121.8800   56.3980 O   0  0  0  0  0  0  0  0  0  0  0  0
  127.8880  123.3580   56.4160 C   0  0  0  0  0  0  0  0  0  0  0  0
  128.0120  124.8310   56.8470 C   0  0  0  0  0  0  0  0  0  0  0  0
  127.9490  125.0940   58.3930 C   0  0  1  0  0  0  0  0  0  0  0  0
  127.4730  126.5660   58.5770 C   0  0  0  0  0  0  0  0  0  0  0  0
  129.3110  124.7610   59.1330 C   0  0  1  0  0  0  0  0  0  0  0  0
  130.5600  125.5560   58.6350 C   0  0  1  0  0  0  0  0  0  0  0  0
  130.4290  126.9620   58.7070 O   0  0  0  0  0  0  0  0  0  0  0  0
  131.8420  125.0910   59.3620 C   0  0  0  0  0  0  0  0  0  0  0  0
  131.8090  125.1090   60.9340 C   0  0  2  0  0  0  0  0  0  0  0  0
  131.8890  126.5790   61.4490 C   0  0  0  0  0  0  0  0  0  0  0  0
  130.2915  125.0150   68.3084 H   0  0  0  0  0  0  0  0  0  0  0  0
  129.0717  126.1909   67.7117 H   0  0  0  0  0  0  0  0  0  0  0  0
  128.7001  124.4334   67.7117 H   0  0  0  0  0  0  0  0  0  0  0  0
  130.0112  124.0095   65.8376 H   0  0  0  0  0  0  0  0  0  0  0  0
  129.4764  125.7153   65.4947 H   0  0  0  0  0  0  0  0  0  0  0  0
  132.3041  123.5020   64.7364 H   0  0  0  0  0  0  0  0  0  0  0  0
  131.1668  124.1750   63.5005 H   0  0  0  0  0  0  0  0  0  0  0  0
  134.7090  124.9610   61.2440 H   0  0  0  0  0  0  0  0  0  0  0  0
  132.6720  122.3041   60.3922 H   0  0  0  0  0  0  0  0  0  0  0  0
  132.7081  122.0761   62.1534 H   0  0  0  0  0  0  0  0  0  0  0  0
  130.3857  122.4369   60.4870 H   0  0  0  0  0  0  0  0  0  0  0  0
  130.4104  122.3796   62.2680 H   0  0  0  0  0  0  0  0  0  0  0  0
  130.2457  124.7004   62.4566 H   0  0  0  0  0  0  0  0  0  0  0  0
  129.0636  125.9273   60.9176 H   0  0  0  0  0  0  0  0  0  0  0  0
  128.1857  122.9959   61.1287 H   0  0  0  0  0  0  0  0  0  0  0  0
  127.8436  124.3763   62.2841 H   0  0  0  0  0  0  0  0  0  0  0  0
  125.8632  123.7192   60.8778 H   0  0  0  0  0  0  0  0  0  0  0  0
  126.3514  125.4225   60.6961 H   0  0  0  0  0  0  0  0  0  0  0  0
  125.5587  122.5213   58.9111 H   0  0  0  0  0  0  0  0  0  0  0  0
  128.7637  122.7996   56.7784 H   0  0  0  0  0  0  0  0  0  0  0  0
  127.8368  123.3111   55.3182 H   0  0  0  0  0  0  0  0  0  0  0  0
  128.9761  125.2113   56.4782 H   0  0  0  0  0  0  0  0  0  0  0  0
  127.1379  125.3438   56.4192 H   0  0  0  0  0  0  0  0  0  0  0  0
  127.3987  126.7959   59.6501 H   0  0  0  0  0  0  0  0  0  0  0  0
  128.1967  127.2471   58.1054 H   0  0  0  0  0  0  0  0  0  0  0  0
  126.4876  126.6944   58.1054 H   0  0  0  0  0  0  0  0  0  0  0  0
  129.4824  123.7117   58.8508 H   0  0  0  0  0  0  0  0  0  0  0  0
  130.6399  125.3206   57.5635 H   0  0  0  0  0  0  0  0  0  0  0  0
  131.2930  127.3390   58.8900 H   0  0  0  0  0  0  0  0  0  0  0  0
  132.0489  124.0582   59.0449 H   0  0  0  0  0  0  0  0  0  0  0  0
  132.6146  125.8218   59.0809 H   0  0  0  0  0  0  0  0  0  0  0  0
  131.8892  126.5826   62.5490 H   0  0  0  0  0  0  0  0  0  0  0  0
  132.8139  127.0468   61.0806 H   0  0  0  0  0  0  0  0  0  0  0  0
  131.0203  127.1444   61.0806 H   0  0  0  0  0  0  0  0  0  0  0  0
  1  2  1  0
  2  3  1  0
  3  4  2  0
  3  5  1  0
  5  6  1  0
  6  7  1  0
  7  8  2  0
  7  9  1  0
  9 10  1  6
  9 11  1  0
 11 12  1  0
 12 13  1  0
 13 14  1  0
 14 15  1  0
 15 16  1  0
 16 17  1  0
 17 18  2  0
 18 19  1  0
 19 20  2  0
 19 21  1  0
 21 22  1  0
 22 23  1  0
 23 24  1  6
 23 25  1  0
 25 26  1  0
 26 27  1  0
 26 28  1  0
 28 29  1  0
 29 30  1  1
 29  9  1  0
 29 13  1  0
 25 14  1  0
 23 17  1  0
  1 31  1  0
  1 32  1  0
  1 33  1  0
  2 34  1  0
  2 35  1  0
  6 36  1  0
  6 37  1  0
 10 38  1  0
 11 39  1  0
 11 40  1  0
 12 41  1  0
 12 42  1  0
 13 43  1  1
 14 44  1  6
 15 45  1  0
 15 46  1  0
 16 47  1  0
 16 48  1  0
 18 49  1  0
 21 50  1  0
 21 51  1  0
 22 52  1  0
 22 53  1  0
 24 54  1  0
 24 55  1  0
 24 56  1  0
 25 57  1  1
 26 58  1  6
 27 59  1  0
 28 60  1  0
 28 61  1  0
 30 62  1  0
 30 63  1  0
 30 64  1  0
M  END
>  <Binding energies>  (1) 
[-8.0]

>  <Ligand effiencies>  (1) 
[-0.25]

>  <Interactions>  (1) 
["V-B:PRO:540:CA:9855, V-B:GLU:543:C:9874, V-B:GLU:543:CB:9878, V-B:TYR:539:CE2:9848, H-A:ARG:545:NH1:4927, H-A:TYR:531:OH:4795, V-A:TYR:484:CE2:4346, H-B:TYR:539:N:9842, V-B:GLU:543:CG:9879, V-B:TYR:539:C:9839, V-A:ASP:366:CG:3213, V-B:TYR:539:CZ:9849, V-A:GLU:543:CD:4908, V-B:PRO:540:CB:9857, V-B:GLU:543:CA:9876, H-A:GLY:454:N:4050, V-B:PRO:540:N:9856, V-A:HIS:456:CE1:4070, V-B:PRO:540:CD:9859, H-A:ARG:545:NH2:4928, V-A:ARG:545:CZ:4926, H-A:ASP:366:OD1:3214, V-B:TYR:539:CD1:9845, H-A:ARG:545:NE:4924, H-A:ASP:366:OD2:3215, V-B:TYR:539:CE1:9847, H-A:TYR:484:OH:4348"]

$$$$
ZINC1772603155
     RDKit          3D

 38 39  0  0  0  0  0  0  0  0999 V2000
  132.0650  125.8610   67.2810 O   0  0  0  0  0  0  0  0  0  0  0  0
  130.8620  125.8320   67.0050 C   0  0  0  0  0  0  0  0  0  0  0  0
  130.3270  125.2890   65.7620 C   0  0  0  0  0  0  0  0  0  0  0  0
  130.5850  124.0320   65.3400 C   0  0  0  0  0  0  0  0  0  0  0  0
  130.0870  123.4000   64.0990 C   0  0  0  0  0  0  0  0  0  0  0  0
  131.0020  122.7490   63.2640 C   0  0  0  0  0  0  0  0  0  0  0  0
  130.5820  122.1380   62.0830 C   0  0  0  0  0  0  0  0  0  0  0  0
  129.2370  122.1690   61.7160 C   0  0  0  0  0  0  0  0  0  0  0  0
  128.8470  121.5600   60.5500 O   0  0  0  0  0  0  0  0  0  0  0  0
  128.3090  122.8160   62.5400 C   0  0  0  0  0  0  0  0  0  0  0  0
  126.9780  122.8630   62.2080 O   0  0  0  0  0  0  0  0  0  0  0  0
  128.7360  123.4260   63.7230 C   0  0  0  0  0  0  0  0  0  0  0  0
  129.8800  126.2920   67.8080 O   0  0  0  0  0  0  0  0  0  0  0  0
  129.7730  127.6750   68.1230 C   0  0  0  0  0  0  0  0  0  0  0  0
  130.3550  127.9560   69.5190 C   0  0  0  0  0  0  0  0  0  0  0  0
  129.3460  127.7530   70.6490 C   0  0  0  0  0  0  0  0  0  0  0  0
  128.1970  126.9900   70.4060 C   0  0  0  0  0  0  0  0  0  0  0  0
  127.2530  126.7890   71.4140 C   0  0  0  0  0  0  0  0  0  0  0  0
  127.4500  127.3490   72.6740 C   0  0  0  0  0  0  0  0  0  0  0  0
  128.5910  128.1080   72.9290 C   0  0  0  0  0  0  0  0  0  0  0  0
  129.5400  128.3110   71.9240 C   0  0  0  0  0  0  0  0  0  0  0  0
  130.6520  129.0610   72.2130 O   0  0  0  0  0  0  0  0  0  0  0  0
  129.6852  125.9310   65.1408 H   0  0  0  0  0  0  0  0  0  0  0  0
  131.2303  123.4166   65.9841 H   0  0  0  0  0  0  0  0  0  0  0  0
  132.0657  122.7189   63.5427 H   0  0  0  0  0  0  0  0  0  0  0  0
  131.3143  121.6297   61.4385 H   0  0  0  0  0  0  0  0  0  0  0  0
  127.8980  121.4250   60.4930 H   0  0  0  0  0  0  0  0  0  0  0  0
  126.5190  123.6130   62.5920 H   0  0  0  0  0  0  0  0  0  0  0  0
  128.0029  123.9331   64.3675 H   0  0  0  0  0  0  0  0  0  0  0  0
  130.3275  128.2606   67.3750 H   0  0  0  0  0  0  0  0  0  0  0  0
  128.7107  127.9603   68.1163 H   0  0  0  0  0  0  0  0  0  0  0  0
  131.2056  127.2785   69.6851 H   0  0  0  0  0  0  0  0  0  0  0  0
  130.6562  129.0138   69.5385 H   0  0  0  0  0  0  0  0  0  0  0  0
  128.0373  126.5455   69.4125 H   0  0  0  0  0  0  0  0  0  0  0  0
  126.3535  126.1884   71.2135 H   0  0  0  0  0  0  0  0  0  0  0  0
  126.7050  127.1923   73.4680 H   0  0  0  0  0  0  0  0  0  0  0  0
  128.7448  128.5487   73.9251 H   0  0  0  0  0  0  0  0  0  0  0  0
  130.6120  129.9450   71.8410 H   0  0  0  0  0  0  0  0  0  0  0  0
  1  2  2  0
  2  3  1  0
  3  4  2  0
  4  5  1  0
  5  6  2  0
  6  7  1  0
  7  8  2  0
  8  9  1  0
  8 10  1  0
 10 11  1  0
 10 12  2  0
  2 13  1  0
 13 14  1  0
 14 15  1  0
 15 16  1  0
 16 17  2  0
 17 18  1  0
 18 19  2  0
 19 20  1  0
 20 21  2  0
 21 22  1  0
 12  5  1  0
 21 16  1  0
  3 23  1  0
  4 24  1  0
  6 25  1  0
  7 26  1  0
  9 27  1  0
 11 28  1  0
 12 29  1  0
 14 30  1  0
 14 31  1  0
 15 32  1  0
 15 33  1  0
 17 34  1  0
 18 35  1  0
 19 36  1  0
 20 37  1  0
 22 38  1  0
M  END
>  <Binding energies>  (1) 
[-5.94]

>  <Ligand effiencies>  (1) 
[-0.2376]

>  <Interactions>  (1) 
["V-B:GLU:543:C:9874, V-B:HIS:456:CD2:9039, V-A:GLU:543:C:4902, V-B:ALA:541:CB:9864, V-A:TYR:484:CE2:4346, H-B:ALA:541:O:9861, V-B:GLU:543:CG:9879, H-B:GLU:543:OE1:9881, V-B:LYS:547:CE:9922, H-B:ALA:541:N:9863, V-A:GLU:543:CD:4908, V-A:TYR:484:CZ:4347, V-B:HIS:456:CE1:9041, V-A:HIS:456:CE1:4070, V-B:GLY:544:C:9884, V-B:GLY:544:CA:9886, V-A:GLU:543:CG:4907, V-B:GLU:543:CD:9880, V-B:HIS:456:CG:9037, H-A:LYS:547:NZ:4951, V-A:LEU:475:CD2:4259, V-A:GLU:543:CB:4906, H-B:TYR:539:O:9840, H-A:ARG:545:NE:4924, H-A:GLY:544:O:4913, H-A:HIS:456:ND1:4067, H-A:TYR:484:OH:4348, H-A:GLU:543:O:4903"]

$$$$
ZINC1772621054
     RDKit          3D

117125  0  0  0  0  0  0  0  0999 V2000
  133.2820  124.7760   61.1080 C   0  0  0  0  0  0  0  0  0  0  0  0
  133.6690  123.8930   59.9040 N   0  0  1  0  0  0  0  0  0  0  0  0
  132.5360  123.4250   58.9720 C   0  0  2  0  0  0  0  0  0  0  0  0
  133.3430  122.6490   57.9130 C   0  0  0  0  0  0  0  0  0  0  0  0
  134.7230  123.3320   57.8560 C   0  0  0  0  0  0  0  0  0  0  0  0
  134.6680  124.4760   58.8860 C   0  0  1  0  0  0  0  0  0  0  0  0
  134.1120  125.8080   58.3100 C   0  0  0  0  0  0  0  0  0  0  0  0
  132.7130  125.6570   57.6520 C   0  0  2  0  0  0  0  0  0  0  0  0
  132.0780  126.9750   57.6090 N   0  0  0  0  0  0  0  0  0  0  0  0
  130.7180  127.2190   57.8940 C   0  0  0  0  0  0  0  0  0  0  0  0
  129.7200  126.4000   57.3390 C   0  0  0  0  0  0  0  0  0  0  0  0
  128.3720  126.6260   57.5960 C   0  0  0  0  0  0  0  0  0  0  0  0
  127.9890  127.6850   58.4110 C   0  0  0  0  0  0  0  0  0  0  0  0
  126.2600  127.9810   58.7840 S   0  0  0  0  0  0  0  0  0  0  0  0
  125.9990  129.2860   58.1650 O   0  0  0  0  0  0  0  0  0  0  0  0
  125.5460  126.8570   58.1670 O   0  0  0  0  0  0  0  0  0  0  0  0
  126.4660  127.8930   60.5390 N   0  0  0  0  0  0  0  0  0  0  0  0
  127.3250  128.6180   61.1460 C   0  0  0  0  0  0  0  0  0  0  0  0
  128.1720  129.4470   60.7680 O   0  0  0  0  0  0  0  0  0  0  0  0
  127.3700  128.4820   62.6150 C   0  0  0  0  0  0  0  0  0  0  0  0
  127.9640  127.3370   63.1600 C   0  0  0  0  0  0  0  0  0  0  0  0
  128.0670  127.1610   64.5370 C   0  0  0  0  0  0  0  0  0  0  0  0
  127.5980  128.1290   65.4400 C   0  0  0  0  0  0  0  0  0  0  0  0
  127.6890  127.9390   66.8280 N   0  0  0  0  0  0  0  0  0  0  0  0
  126.4790  127.8030   67.6680 C   0  0  0  0  0  0  0  0  0  0  0  0
  126.7280  127.2780   69.1000 C   0  0  0  0  0  0  0  0  0  0  0  0
  127.7230  128.0970   69.7890 N   0  0  0  0  0  0  0  0  0  0  0  0
  127.8860  127.6420   71.1730 C   0  0  0  0  0  0  0  0  0  0  0  0
  129.3300  127.5700   71.6860 C   0  0  0  0  0  0  0  0  0  0  0  0
  130.3150  126.8610   71.0600 C   0  0  0  0  0  0  0  0  0  0  0  0
  130.1240  126.3170   69.7000 C   0  0  0  0  0  0  0  0  0  0  0  0
  130.9950  126.7040   68.6770 C   0  0  0  0  0  0  0  0  0  0  0  0
  130.8130  126.2240   67.3830 C   0  0  0  0  0  0  0  0  0  0  0  0
  129.7500  125.3660   67.1070 C   0  0  0  0  0  0  0  0  0  0  0  0
  129.5240  124.7730   65.5020 Cl  0  0  0  0  0  0  0  0  0  0  0  0
  128.8660  124.9900   68.1150 C   0  0  0  0  0  0  0  0  0  0  0  0
  129.0490  125.4700   69.4090 C   0  0  0  0  0  0  0  0  0  0  0  0
  131.7710  126.8950   71.5480 C   0  0  0  0  0  0  0  0  0  0  0  0
  131.8640  127.0710   73.0870 C   0  0  0  0  0  0  0  0  0  0  0  0
  131.3050  125.8300   73.8300 C   0  0  0  0  0  0  0  0  0  0  0  0
  133.3410  127.3440   73.4540 C   0  0  0  0  0  0  0  0  0  0  0  0
  131.0480  128.3490   73.4140 C   0  0  0  0  0  0  0  0  0  0  0  0
  129.5520  128.2050   73.0680 C   0  0  0  0  0  0  0  0  0  0  0  0
  128.9660  127.9840   69.0320 C   0  0  0  0  0  0  0  0  0  0  0  0
  128.7880  128.5520   67.6070 C   0  0  0  0  0  0  0  0  0  0  0  0
  126.9660  129.2560   64.8870 C   0  0  0  0  0  0  0  0  0  0  0  0
  126.8280  129.4380   63.5090 C   0  0  0  0  0  0  0  0  0  0  0  0
  126.1940  130.5980   63.1050 O   0  0  0  0  0  0  0  0  0  0  0  0
  126.5270  131.2010   61.9110 C   0  0  0  0  0  0  0  0  0  0  0  0
  125.6240  131.2680   60.8430 C   0  0  0  0  0  0  0  0  0  0  0  0
  125.9630  131.8450   59.6190 C   0  0  0  0  0  0  0  0  0  0  0  0
  127.2520  132.3720   59.5010 C   0  0  0  0  0  0  0  0  0  0  0  0
  127.8880  132.9880   58.4420 N   0  0  0  0  0  0  0  0  0  0  0  0
  129.1640  133.3410   58.7990 C   0  0  0  0  0  0  0  0  0  0  0  0
  129.3910  132.9630   60.1060 C   0  0  0  0  0  0  0  0  0  0  0  0
  128.1890  132.3400   60.5790 C   0  0  0  0  0  0  0  0  0  0  0  0
  127.8020  131.7550   61.7940 C   0  0  0  0  0  0  0  0  0  0  0  0
  128.9660  128.5070   58.9710 C   0  0  0  0  0  0  0  0  0  0  0  0
  130.3370  128.3000   58.7360 C   0  0  0  0  0  0  0  0  0  0  0  0
  131.3110  129.2250   59.3960 N   0  0  0  0  0  0  0  0  0  0  0  0
  132.2700  129.6690   58.7730 O   0  0  0  0  0  0  0  0  0  0  0  0
  131.1280  129.5200   60.5750 O   0  0  0  0  0  0  0  0  0  0  0  0
  131.7830  124.6590   58.4010 C   0  0  0  0  0  0  0  0  0  0  0  0
  133.5150  124.2444   62.0424 H   0  0  0  0  0  0  0  0  0  0  0  0
  133.8501  125.7172   61.0701 H   0  0  0  0  0  0  0  0  0  0  0  0
  132.2049  124.9961   61.0701 H   0  0  0  0  0  0  0  0  0  0  0  0
  134.0970  123.0580   60.2780 H   0  0  0  0  0  0  0  0  0  0  0  0
  131.7430  122.8169   59.4318 H   0  0  0  0  0  0  0  0  0  0  0  0
  133.4489  121.5947   58.2084 H   0  0  0  0  0  0  0  0  0  0  0  0
  132.8435  122.6614   56.9330 H   0  0  0  0  0  0  0  0  0  0  0  0
  135.5157  122.6165   58.1202 H   0  0  0  0  0  0  0  0  0  0  0  0
  134.9479  123.7066   56.8465 H   0  0  0  0  0  0  0  0  0  0  0  0
  135.6614  124.7462   59.2736 H   0  0  0  0  0  0  0  0  0  0  0  0
  134.0353  126.5376   59.1296 H   0  0  0  0  0  0  0  0  0  0  0  0
  134.8074  126.1383   57.5243 H   0  0  0  0  0  0  0  0  0  0  0  0
  132.8638  125.2461   56.6428 H   0  0  0  0  0  0  0  0  0  0  0  0
  132.6860  127.7670   57.7690 H   0  0  0  0  0  0  0  0  0  0  0  0
  130.0111  125.5627   56.6877 H   0  0  0  0  0  0  0  0  0  0  0  0
  127.6095  125.9673   57.1547 H   0  0  0  0  0  0  0  0  0  0  0  0
  128.3571  126.5611   62.4865 H   0  0  0  0  0  0  0  0  0  0  0  0
  128.5270  126.2412   64.9274 H   0  0  0  0  0  0  0  0  0  0  0  0
  126.0058  128.7929   67.7459 H   0  0  0  0  0  0  0  0  0  0  0  0
  125.8465  127.0515   67.1729 H   0  0  0  0  0  0  0  0  0  0  0  0
  125.7840  127.3076   69.6639 H   0  0  0  0  0  0  0  0  0  0  0  0
  127.1046  126.2464   69.0361 H   0  0  0  0  0  0  0  0  0  0  0  0
  127.3308  128.3339   71.8234 H   0  0  0  0  0  0  0  0  0  0  0  0
  127.5093  126.6087   71.1943 H   0  0  0  0  0  0  0  0  0  0  0  0
  131.8267  127.3900   68.8954 H   0  0  0  0  0  0  0  0  0  0  0  0
  131.5055  126.5208   66.5815 H   0  0  0  0  0  0  0  0  0  0  0  0
  128.0262  124.3162   67.8898 H   0  0  0  0  0  0  0  0  0  0  0  0
  128.3463  125.1825   70.2050 H   0  0  0  0  0  0  0  0  0  0  0  0
  132.2615  125.9510   71.2682 H   0  0  0  0  0  0  0  0  0  0  0  0
  132.2674  127.7561   71.0768 H   0  0  0  0  0  0  0  0  0  0  0  0
  131.3769  125.9896   74.9160 H   0  0  0  0  0  0  0  0  0  0  0  0
  130.2519  125.6789   73.5505 H   0  0  0  0  0  0  0  0  0  0  0  0
  131.8897  124.9412   73.5505 H   0  0  0  0  0  0  0  0  0  0  0  0
  133.4492  127.3640   74.5485 H   0  0  0  0  0  0  0  0  0  0  0  0
  133.9755  126.5479   73.0373 H   0  0  0  0  0  0  0  0  0  0  0  0
  133.6490  128.3143   73.0373 H   0  0  0  0  0  0  0  0  0  0  0  0
  131.1416  128.5607   74.4894 H   0  0  0  0  0  0  0  0  0  0  0  0
  131.4533  129.1677   72.8013 H   0  0  0  0  0  0  0  0  0  0  0  0
  129.0725  127.5719   73.8291 H   0  0  0  0  0  0  0  0  0  0  0  0
  129.1131  129.2135   73.0487 H   0  0  0  0  0  0  0  0  0  0  0  0
  129.7568  128.5469   69.5494 H   0  0  0  0  0  0  0  0  0  0  0  0
  129.2412  126.9215   68.9585 H   0  0  0  0  0  0  0  0  0  0  0  0
  128.5880  129.6304   67.6908 H   0  0  0  0  0  0  0  0  0  0  0  0
  129.7172  128.3241   67.0642 H   0  0  0  0  0  0  0  0  0  0  0  0
  126.5649  130.0237   65.5650 H   0  0  0  0  0  0  0  0  0  0  0  0
  124.6141  130.8520   60.9734 H   0  0  0  0  0  0  0  0  0  0  0  0
  125.2478  131.8835   58.7841 H   0  0  0  0  0  0  0  0  0  0  0  0
  127.5120  133.1710   57.5230 H   0  0  0  0  0  0  0  0  0  0  0  0
  129.8915  133.8458   58.1464 H   0  0  0  0  0  0  0  0  0  0  0  0
  130.3190  133.1114   60.6777 H   0  0  0  0  0  0  0  0  0  0  0  0
  128.4972  131.7333   62.6462 H   0  0  0  0  0  0  0  0  0  0  0  0
  128.6552  129.3423   59.6158 H   0  0  0  0  0  0  0  0  0  0  0  0
  131.3009  125.1901   59.2349 H   0  0  0  0  0  0  0  0  0  0  0  0
  131.0520  124.2841   57.6695 H   0  0  0  0  0  0  0  0  0  0  0  0
  1  2  1  0
  2  3  1  0
  3  4  1  0
  4  5  1  0
  5  6  1  0
  6  7  1  0
  7  8  1  0
  8  9  1  0
  9 10  1  0
 10 11  2  0
 11 12  1  0
 12 13  2  0
 13 14  1  0
 14 15  2  0
 14 16  2  0
 14 17  1  0
 17 18  2  0
 18 19  1  0
 18 20  1  0
 20 21  2  0
 21 22  1  0
 22 23  2  0
 23 24  1  0
 24 25  1  0
 25 26  1  0
 26 27  1  0
 27 28  1  0
 28 29  1  0
 29 30  2  0
 30 31  1  0
 31 32  2  0
 32 33  1  0
 33 34  2  0
 34 35  1  0
 34 36  1  0
 36 37  2  0
 30 38  1  0
 38 39  1  0
 39 40  1  0
 39 41  1  0
 39 42  1  0
 42 43  1  0
 27 44  1  0
 44 45  1  0
 23 46  1  0
 46 47  2  0
 47 48  1  0
 48 49  1  0
 49 50  2  0
 50 51  1  0
 51 52  2  0
 52 53  1  0
 53 54  1  0
 54 55  2  0
 55 56  1  0
 56 57  2  0
 13 58  1  0
 58 59  2  0
 59 60  1  0
 60 61  2  0
 60 62  1  0
  8 63  1  0
  6  2  1  0
 59 10  1  0
 63  3  1  0
 47 20  1  0
 57 49  1  0
 45 24  1  0
 56 52  1  0
 43 29  1  0
 37 31  1  0
  1 64  1  0
  1 65  1  0
  1 66  1  0
  2 67  1  1
  3 68  1  1
  4 69  1  0
  4 70  1  0
  5 71  1  0
  5 72  1  0
  6 73  1  1
  7 74  1  0
  7 75  1  0
  8 76  1  6
  9 77  1  0
 11 78  1  0
 12 79  1  0
 21 80  1  0
 22 81  1  0
 25 82  1  0
 25 83  1  0
 26 84  1  0
 26 85  1  0
 28 86  1  0
 28 87  1  0
 32 88  1  0
 33 89  1  0
 36 90  1  0
 37 91  1  0
 38 92  1  0
 38 93  1  0
 40 94  1  0
 40 95  1  0
 40 96  1  0
 41 97  1  0
 41 98  1  0
 41 99  1  0
 42100  1  0
 42101  1  0
 43102  1  0
 43103  1  0
 44104  1  0
 44105  1  0
 45106  1  0
 45107  1  0
 46108  1  0
 50109  1  0
 51110  1  0
 53111  1  0
 54112  1  0
 55113  1  0
 57114  1  0
 58115  1  0
 63116  1  0
 63117  1  0
M  CHG  4   2   1  19  -1  60   1  62  -1
M  END
>  <Binding energies>  (1) 
[71.62]

>  <Ligand effiencies>  (1) 
[1.0851515151515152]

>  <Interactions>  (1) 
["V-A:ILE:369:CG2:3237, V-A:ASP:366:CA:3210, V-A:ARG:545:CA:4919, V-A:ILE:369:C:3232, V-B:GLU:543:C:9874, V-A:ILE:369:CB:3236, V-B:HIS:456:CD2:9039, V-A:PRO:540:C:4881, V-B:GLU:543:CB:9878, V-B:ASP:366:CG:8184, H-A:TYR:531:OH:4795, V-B:TYR:539:CE2:9848, V-A:TYR:484:CE2:4346, V-B:GLU:543:CG:9879, V-A:GLY:544:C:4912, V-A:ASP:366:CG:3213, V-A:HIS:456:CD2:4068, H-B:HIS:456:ND1:9038, V-A:TYR:539:CD1:4873, V-B:TYR:539:CZ:9849, V-A:TYR:539:CZ:4877, V-A:LYS:547:CG:4948, V-A:HIS:456:CB:4065, V-B:ARG:545:CG:9894, V-A:TYR:539:CA:4869, V-A:GLU:543:CD:4908, V-B:ASP:366:CB:8183, V-B:HIS:456:CE1:9041, V-B:GLU:543:CA:9876, V-A:ILE:369:CD1:3239, V-A:HIS:456:CE1:4070, V-A:ASP:366:C:3208, V-B:GLY:544:C:9884, V-A:ASN:370:CA:3243, V-B:TYR:539:CD2:9846, V-A:TYR:531:CZ:4794, V-A:ILE:369:CA:3234, V-A:GLU:543:CG:4907, V-B:GLU:543:CD:9880, V-B:HIS:456:CG:9037, V-A:ILE:369:CG1:3238, H-B:TYR:531:OH:9767, V-A:ASP:366:CB:3212, V-A:TYR:539:C:4867, V-A:ARG:545:C:4917, V-A:GLU:543:CB:4906, V-A:HIS:456:CG:4066, V-A:PRO:540:N:4884, V-A:TYR:539:CG:4872, V-A:PRO:540:CA:4883, V-A:LYS:547:CE:4950, H-A:ASP:366:OD2:3215, V-A:TYR:539:CE1:4875"]

$$$$
ZINC1772621054-again1
     RDKit          3D

118126  0  0  0  0  0  0  0  0999 V2000
  131.8990  120.0510   60.6090 C   0  0  0  0  0  0  0  0  0  0  0  0
  132.4920  121.4030   60.1610 N   0  0  1  0  0  0  0  0  0  0  0  0
  131.5610  122.6300   60.1790 C   0  0  2  0  0  0  0  0  0  0  0  0
  132.5380  123.7350   59.7330 C   0  0  0  0  0  0  0  0  0  0  0  0
  133.9290  123.2860   60.2230 C   0  0  0  0  0  0  0  0  0  0  0  0
  133.7070  121.9410   60.9410 C   0  0  1  0  0  0  0  0  0  0  0  0
  133.3390  122.0900   62.4440 C   0  0  0  0  0  0  0  0  0  0  0  0
  132.1120  123.0090   62.6850 C   0  0  2  0  0  0  0  0  0  0  0  0
  131.5710  122.7200   64.0140 N   0  0  0  0  0  0  0  0  0  0  0  0
  131.2230  123.7000   64.9670 C   0  0  0  0  0  0  0  0  0  0  0  0
  130.0680  123.5410   65.7520 C   0  0  0  0  0  0  0  0  0  0  0  0
  129.7000  124.4900   66.6970 C   0  0  0  0  0  0  0  0  0  0  0  0
  130.4780  125.6280   66.8810 C   0  0  0  0  0  0  0  0  0  0  0  0
  129.9610  126.8850   68.0560 S   0  0  0  0  0  0  0  0  0  0  0  0
  129.1790  126.1330   69.0470 O   0  0  0  0  0  0  0  0  0  0  0  0
  131.2090  127.4550   68.5760 O   0  0  0  0  0  0  0  0  0  0  0  0
  129.1030  127.8640   66.8560 N   0  0  0  0  0  0  0  0  0  0  0  0
  128.7050  127.3730   65.7460 C   0  0  0  0  0  0  0  0  0  0  0  0
  128.7560  126.2250   65.2640 O   0  0  0  0  0  0  0  0  0  0  0  0
  128.1420  128.3310   64.7570 C   0  0  0  0  0  0  0  0  0  0  0  0
  127.5130  129.5270   65.1530 C   0  0  0  0  0  0  0  0  0  0  0  0
  126.9610  130.4020   64.2220 C   0  0  0  0  0  0  0  0  0  0  0  0
  126.9980  130.1250   62.8470 C   0  0  0  0  0  0  0  0  0  0  0  0
  126.4550  131.0030   61.9000 N   0  0  0  0  0  0  0  0  0  0  0  0
  127.2480  132.1320   61.3670 C   0  0  0  0  0  0  0  0  0  0  0  0
  128.1450  131.7130   60.1780 C   0  0  0  0  0  0  0  0  0  0  0  0
  127.2440  131.1940   59.0390 N   0  0  0  0  0  0  0  0  0  0  0  0
  128.0840  130.7640   57.8130 C   0  0  0  0  0  0  0  0  0  0  0  0
  129.6060  130.7990   58.0060 C   0  0  0  0  0  0  0  0  0  0  0  0
  130.3870  129.6850   58.1480 C   0  0  0  0  0  0  0  0  0  0  0  0
  129.8680  128.3350   57.8280 C   0  0  0  0  0  0  0  0  0  0  0  0
  130.1960  127.2620   58.6630 C   0  0  0  0  0  0  0  0  0  0  0  0
  129.7100  125.9860   58.3890 C   0  0  0  0  0  0  0  0  0  0  0  0
  128.9050  125.7790   57.2710 C   0  0  0  0  0  0  0  0  0  0  0  0
  128.3010  124.1980   56.9320 Cl  0  0  0  0  0  0  0  0  0  0  0  0
  128.5860  126.8380   56.4230 C   0  0  0  0  0  0  0  0  0  0  0  0
  129.0720  128.1130   56.6990 C   0  0  0  0  0  0  0  0  0  0  0  0
  131.9170  129.7860   58.2550 C   0  0  0  0  0  0  0  0  0  0  0  0
  132.3640  131.0920   58.9660 C   0  0  0  0  0  0  0  0  0  0  0  0
  131.9240  131.1060   60.4530 C   0  0  0  0  0  0  0  0  0  0  0  0
  133.8970  131.2210   58.8220 C   0  0  0  0  0  0  0  0  0  0  0  0
  131.7110  132.2460   58.1630 C   0  0  0  0  0  0  0  0  0  0  0  0
  130.1700  132.2110   58.2160 C   0  0  0  0  0  0  0  0  0  0  0  0
  126.3790  130.0340   59.5780 C   0  0  0  0  0  0  0  0  0  0  0  0
  125.5820  130.5500   60.7980 C   0  0  0  0  0  0  0  0  0  0  0  0
  127.6700  128.9610   62.4470 C   0  0  0  0  0  0  0  0  0  0  0  0
  128.2330  128.0760   63.3720 C   0  0  0  0  0  0  0  0  0  0  0  0
  128.9000  126.9660   62.8960 O   0  0  0  0  0  0  0  0  0  0  0  0
  128.2740  126.0910   62.0360 C   0  0  0  0  0  0  0  0  0  0  0  0
  128.4020  124.7290   62.3000 C   0  0  0  0  0  0  0  0  0  0  0  0
  127.7880  123.7540   61.5120 C   0  0  0  0  0  0  0  0  0  0  0  0
  127.0110  124.2020   60.4410 C   0  0  0  0  0  0  0  0  0  0  0  0
  126.2870  123.5080   59.4930 N   0  0  0  0  0  0  0  0  0  0  0  0
  125.6620  124.3850   58.6420 C   0  0  0  0  0  0  0  0  0  0  0  0
  125.9730  125.6760   59.0140 C   0  0  0  0  0  0  0  0  0  0  0  0
  126.8390  125.5900   60.1540 C   0  0  0  0  0  0  0  0  0  0  0  0
  127.4840  126.5330   60.9660 C   0  0  0  0  0  0  0  0  0  0  0  0
  131.6210  125.8090   66.1030 C   0  0  0  0  0  0  0  0  0  0  0  0
  132.0230  124.8620   65.1420 C   0  0  0  0  0  0  0  0  0  0  0  0
  133.2650  125.1430   64.3550 N   0  0  0  0  0  0  0  0  0  0  0  0
  133.1990  125.3910   63.1550 O   0  0  0  0  0  0  0  0  0  0  0  0
  134.3440  125.1150   64.9380 O   0  0  0  0  0  0  0  0  0  0  0  0
  130.9980  122.8390   61.6130 C   0  0  0  0  0  0  0  0  0  0  0  0
  131.8790  120.0055   61.7079 H   0  0  0  0  0  0  0  0  0  0  0  0
  130.8751  119.9525   60.2193 H   0  0  0  0  0  0  0  0  0  0  0  0
  132.5201  119.2310   60.2193 H   0  0  0  0  0  0  0  0  0  0  0  0
  132.7950  121.2860   59.2040 H   0  0  0  0  0  0  0  0  0  0  0  0
  130.6648  122.5738   59.5436 H   0  0  0  0  0  0  0  0  0  0  0  0
  132.5309  123.8337   58.6375 H   0  0  0  0  0  0  0  0  0  0  0  0
  132.2587  124.7149   60.1476 H   0  0  0  0  0  0  0  0  0  0  0  0
  134.6122  123.1570   59.3706 H   0  0  0  0  0  0  0  0  0  0  0  0
  134.3829  124.0320   60.8919 H   0  0  0  0  0  0  0  0  0  0  0  0
  134.6068  121.3083   60.9465 H   0  0  0  0  0  0  0  0  0  0  0  0
  133.1136  121.0925   62.8493 H   0  0  0  0  0  0  0  0  0  0  0  0
  134.1997  122.5555   62.9466 H   0  0  0  0  0  0  0  0  0  0  0  0
  132.4544  124.0518   62.6114 H   0  0  0  0  0  0  0  0  0  0  0  0
  131.0950  121.8350   64.1230 H   0  0  0  0  0  0  0  0  0  0  0  0
  129.4426  122.6465   65.6151 H   0  0  0  0  0  0  0  0  0  0  0  0
  128.7924  124.3414   67.3004 H   0  0  0  0  0  0  0  0  0  0  0  0
  127.4566  129.7755   66.2231 H   0  0  0  0  0  0  0  0  0  0  0  0
  126.4857  131.3304   64.5715 H   0  0  0  0  0  0  0  0  0  0  0  0
  126.5585  132.9196   61.0290 H   0  0  0  0  0  0  0  0  0  0  0  0
  127.9052  132.4905   62.1730 H   0  0  0  0  0  0  0  0  0  0  0  0
  128.7233  132.5803   59.8268 H   0  0  0  0  0  0  0  0  0  0  0  0
  128.8424  130.9233   60.4942 H   0  0  0  0  0  0  0  0  0  0  0  0
  126.6260  131.9450   58.7620 H   0  0  0  0  0  0  0  0  0  0  0  0
  127.7996  129.7338   57.5526 H   0  0  0  0  0  0  0  0  0  0  0  0
  127.8639  131.4992   57.0250 H   0  0  0  0  0  0  0  0  0  0  0  0
  130.8402  127.4266   59.5393 H   0  0  0  0  0  0  0  0  0  0  0  0
  129.9607  125.1452   59.0525 H   0  0  0  0  0  0  0  0  0  0  0  0
  127.9531  126.6672   55.5397 H   0  0  0  0  0  0  0  0  0  0  0  0
  128.8292  128.9492   56.0268 H   0  0  0  0  0  0  0  0  0  0  0  0
  132.2909  128.9241   58.8270 H   0  0  0  0  0  0  0  0  0  0  0  0
  132.3296  129.7952   57.2354 H   0  0  0  0  0  0  0  0  0  0  0  0
  132.8139  131.0777   61.0990 H   0  0  0  0  0  0  0  0  0  0  0  0
  131.3516  132.0228   60.6574 H   0  0  0  0  0  0  0  0  0  0  0  0
  131.2944  130.2274   60.6574 H   0  0  0  0  0  0  0  0  0  0  0  0
  134.3571  131.2597   59.8204 H   0  0  0  0  0  0  0  0  0  0  0  0
  134.2879  130.3526   58.2715 H   0  0  0  0  0  0  0  0  0  0  0  0
  134.1373  132.1425   58.2715 H   0  0  0  0  0  0  0  0  0  0  0  0
  132.0557  133.2038   58.5799 H   0  0  0  0  0  0  0  0  0  0  0  0
  132.0098  132.1290   57.1108 H   0  0  0  0  0  0  0  0  0  0  0  0
  129.8425  132.5789   59.1996 H   0  0  0  0  0  0  0  0  0  0  0  0
  129.7933  132.8458   57.4005 H   0  0  0  0  0  0  0  0  0  0  0  0
  125.6839  129.6938   58.7963 H   0  0  0  0  0  0  0  0  0  0  0  0
  127.0187  129.1890   59.8727 H   0  0  0  0  0  0  0  0  0  0  0  0
  124.9544  131.3943   60.4766 H   0  0  0  0  0  0  0  0  0  0  0  0
  124.9764  129.7135   61.1768 H   0  0  0  0  0  0  0  0  0  0  0  0
  127.7569  128.7373   61.3735 H   0  0  0  0  0  0  0  0  0  0  0  0
  129.0088  124.4105   63.1604 H   0  0  0  0  0  0  0  0  0  0  0  0
  127.9104  122.6817   61.7247 H   0  0  0  0  0  0  0  0  0  0  0  0
  126.2000  122.5070   59.3980 H   0  0  0  0  0  0  0  0  0  0  0  0
  125.0159  124.1030   57.7976 H   0  0  0  0  0  0  0  0  0  0  0  0
  125.6227  126.5984   58.5277 H   0  0  0  0  0  0  0  0  0  0  0  0
  127.3713  127.6087   60.7656 H   0  0  0  0  0  0  0  0  0  0  0  0
  132.2255  126.7171   66.2441 H   0  0  0  0  0  0  0  0  0  0  0  0
  130.3854  121.9652   61.8798 H   0  0  0  0  0  0  0  0  0  0  0  0
  130.4075  123.7670   61.6024 H   0  0  0  0  0  0  0  0  0  0  0  0
  1  2  1  0
  2  3  1  0
  3  4  1  0
  4  5  1  0
  5  6  1  0
  6  7  1  0
  7  8  1  0
  8  9  1  0
  9 10  1  0
 10 11  2  0
 11 12  1  0
 12 13  2  0
 13 14  1  0
 14 15  2  0
 14 16  2  0
 14 17  1  0
 17 18  2  0
 18 19  1  0
 18 20  1  0
 20 21  2  0
 21 22  1  0
 22 23  2  0
 23 24  1  0
 24 25  1  0
 25 26  1  0
 26 27  1  0
 27 28  1  0
 28 29  1  0
 29 30  2  0
 30 31  1  0
 31 32  2  0
 32 33  1  0
 33 34  2  0
 34 35  1  0
 34 36  1  0
 36 37  2  0
 30 38  1  0
 38 39  1  0
 39 40  1  0
 39 41  1  0
 39 42  1  0
 42 43  1  0
 27 44  1  0
 44 45  1  0
 23 46  1  0
 46 47  2  0
 47 48  1  0
 48 49  1  0
 49 50  2  0
 50 51  1  0
 51 52  2  0
 52 53  1  0
 53 54  1  0
 54 55  2  0
 55 56  1  0
 56 57  2  0
 13 58  1  0
 58 59  2  0
 59 60  1  0
 60 61  2  0
 60 62  1  0
  8 63  1  0
  6  2  1  0
 59 10  1  0
 63  3  1  0
 47 20  1  0
 57 49  1  0
 45 24  1  0
 56 52  1  0
 43 29  1  0
 37 31  1  0
  1 64  1  0
  1 65  1  0
  1 66  1  0
  2 67  1  6
  3 68  1  6
  4 69  1  0
  4 70  1  0
  5 71  1  0
  5 72  1  0
  6 73  1  1
  7 74  1  0
  7 75  1  0
  8 76  1  1
  9 77  1  0
 11 78  1  0
 12 79  1  0
 21 80  1  0
 22 81  1  0
 25 82  1  0
 25 83  1  0
 26 84  1  0
 26 85  1  0
 27 86  1  0
 28 87  1  0
 28 88  1  0
 32 89  1  0
 33 90  1  0
 36 91  1  0
 37 92  1  0
 38 93  1  0
 38 94  1  0
 40 95  1  0
 40 96  1  0
 40 97  1  0
 41 98  1  0
 41 99  1  0
 41100  1  0
 42101  1  0
 42102  1  0
 43103  1  0
 43104  1  0
 44105  1  0
 44106  1  0
 45107  1  0
 45108  1  0
 46109  1  0
 50110  1  0
 51111  1  0
 53112  1  0
 54113  1  0
 55114  1  0
 57115  1  0
 58116  1  0
 63117  1  0
 63118  1  0
M  CHG  5   2   1  19  -1  27   1  60   1  62  -1
M  END
>  <Binding energies>  (1) 
[-8.79]

>  <Ligand effiencies>  (1) 
[-0.13119402985074627]

>  <Interactions>  (1) 
["V-A:ILE:369:CG2:3237, V-B:PRO:540:CA:9855, V-A:GLY:454:CA:4049, V-A:ILE:369:CB:3236, V-B:GLU:543:CB:9878, V-B:ASP:366:CG:8184, H-A:ARG:545:NH1:4927, V-A:TYR:484:CE2:4346, V-B:TYR:539:CE2:9848, V-B:GLU:543:CG:9879, V-A:ASP:366:CG:3213, V-A:LEU:363:CD1:3189, V-A:LEU:363:CB:3187, V-A:LEU:363:CG:3188, V-B:TYR:539:CZ:9849, V-A:GLU:543:CD:4908, V-A:TYR:484:CZ:4347, V-B:PRO:540:CB:9857, V-B:GLU:543:CA:9876, H-A:GLY:454:N:4050, V-B:PRO:540:N:9856, V-A:HIS:456:CE1:4070, V-A:ILE:369:CD1:3239, V-B:TYR:539:CD2:9846, V-B:GLU:543:CD:9880, V-A:MET:535:CE:4835, V-A:ASP:366:CB:3212, V-A:LEU:475:CD2:4259, H-A:ARG:545:NH2:4928, V-A:ARG:545:CZ:4926, V-A:GLU:543:CB:4906, V-A:PRO:540:N:4884, V-A:PRO:540:CB:4885, V-A:PRO:540:CA:4883, V-A:LEU:363:CA:3185, H-A:ARG:545:NE:4924, V-B:TYR:539:CE1:9847, H-A:TYR:484:OH:4348"]

$$$$
ZINC1772626927
     RDKit          3D

 86 87  0  0  0  0  0  0  0  0999 V2000
  130.8210  120.0900   60.8890 C   0  0  0  0  0  0  0  0  0  0  0  0
  131.7000  121.3470   60.9070 C   0  0  0  0  0  0  0  0  0  0  0  0
  133.2070  121.0360   60.9560 C   0  0  0  0  0  0  0  0  0  0  0  0
  134.0180  122.1490   61.6510 C   0  0  0  0  0  0  0  0  0  0  0  0
  133.4480  122.5850   63.0110 C   0  0  0  0  0  0  0  0  0  0  0  0
  133.4190  124.0030   63.1010 O   0  0  0  0  0  0  0  0  0  0  0  0
  133.1440  124.6160   64.2720 C   0  0  0  0  0  0  0  0  0  0  0  0
  133.9460  124.8490   65.1780 O   0  0  0  0  0  0  0  0  0  0  0  0
  131.6760  125.0470   64.3780 C   0  0  0  0  0  0  0  0  0  0  0  0
  130.7460  124.3460   63.3530 C   0  0  2  0  0  0  0  0  0  0  0  0
  129.6970  125.2240   62.8240 N   0  0  0  0  0  0  0  0  0  0  0  0
  130.0730  126.6680   62.0120 P   0  0  2  0  0  5  0  0  0  0  0  0
  131.3700  127.2920   62.3940 O   0  0  0  0  0  0  0  0  0  0  0  0
  128.5700  127.7090   62.1830 C   0  0  0  0  0  0  0  0  0  0  0  0
  128.8010  128.8220   61.3340 O   0  0  0  0  0  0  0  0  0  0  0  0
  128.7050  130.1230   61.9080 C   0  0  1  0  0  0  0  0  0  0  0  0
  128.3440  130.0630   63.4100 C   0  0  0  0  0  0  0  0  0  0  0  0
  128.0680  131.2540   63.9400 F   0  0  0  0  0  0  0  0  0  0  0  0
  130.0510  130.8370   61.6250 C   0  0  0  0  0  0  0  0  0  0  0  0
  130.1370  131.4730   60.2950 N   0  0  0  0  0  0  0  0  0  0  0  0
  131.0120  131.0420   59.3280 C   0  0  0  0  0  0  0  0  0  0  0  0
  131.1660  131.6050   58.1100 C   0  0  0  0  0  0  0  0  0  0  0  0
  132.1710  131.1210   57.0740 C   0  0  0  0  0  0  0  0  0  0  0  0
  130.3300  132.7570   57.7820 C   0  0  0  0  0  0  0  0  0  0  0  0
  130.3570  133.3770   56.7200 O   0  0  0  0  0  0  0  0  0  0  0  0
  129.4770  133.1030   58.7910 N   0  0  0  0  0  0  0  0  0  0  0  0
  129.3070  132.5450   60.0320 C   0  0  0  0  0  0  0  0  0  0  0  0
  128.4630  133.0050   60.8010 O   0  0  0  0  0  0  0  0  0  0  0  0
  129.9880  126.2130   60.4480 O   0  0  0  0  0  0  0  0  0  0  0  0
  131.0610  125.7790   59.7210 C   0  0  0  0  0  0  0  0  0  0  0  0
  131.8880  124.7870   60.2470 C   0  0  0  0  0  0  0  0  0  0  0  0
  132.9920  124.3500   59.5210 C   0  0  0  0  0  0  0  0  0  0  0  0
  133.2690  124.9170   58.2790 C   0  0  0  0  0  0  0  0  0  0  0  0
  132.4550  125.9200   57.7570 C   0  0  0  0  0  0  0  0  0  0  0  0
  131.3480  126.3530   58.4820 C   0  0  0  0  0  0  0  0  0  0  0  0
  130.1400  123.0680   63.9010 C   0  0  0  0  0  0  0  0  0  0  0  0
  130.7430  122.2810   64.6360 O   0  0  0  0  0  0  0  0  0  0  0  0
  128.8690  122.9150   63.4680 O   0  0  0  0  0  0  0  0  0  0  0  0
  128.5730  122.1720   62.2950 C   0  0  0  0  0  0  0  0  0  0  0  0
  128.0900  123.1420   61.2040 C   0  0  0  0  0  0  0  0  0  0  0  0
  128.5100  122.7380   59.7790 C   0  0  0  0  0  0  0  0  0  0  0  0
  127.6620  123.3810   58.6650 C   0  0  0  0  0  0  0  0  0  0  0  0
  127.6120  122.5320   57.3870 C   0  0  0  0  0  0  0  0  0  0  0  0
  130.6039  119.7796   61.9217 H   0  0  0  0  0  0  0  0  0  0  0  0
  129.8783  120.3092   60.3662 H   0  0  0  0  0  0  0  0  0  0  0  0
  131.3504  119.2798   60.3662 H   0  0  0  0  0  0  0  0  0  0  0  0
  131.4934  121.9305   59.9977 H   0  0  0  0  0  0  0  0  0  0  0  0
  131.4526  121.9043   61.8225 H   0  0  0  0  0  0  0  0  0  0  0  0
  133.3553  120.0953   61.5066 H   0  0  0  0  0  0  0  0  0  0  0  0
  133.5661  120.9589   59.9191 H   0  0  0  0  0  0  0  0  0  0  0  0
  135.0434  121.7829   61.8075 H   0  0  0  0  0  0  0  0  0  0  0  0
  133.9771  123.0295   60.9929 H   0  0  0  0  0  0  0  0  0  0  0  0
  132.4257  122.1934   63.1185 H   0  0  0  0  0  0  0  0  0  0  0  0
  134.0892  122.1883   63.8119 H   0  0  0  0  0  0  0  0  0  0  0  0
  131.3170  124.8116   65.3908 H   0  0  0  0  0  0  0  0  0  0  0  0
  131.6403  126.1247   64.1607 H   0  0  0  0  0  0  0  0  0  0  0  0
  131.4022  124.0812   62.5108 H   0  0  0  0  0  0  0  0  0  0  0  0
  128.7720  125.1090   63.2390 H   0  0  0  0  0  0  0  0  0  0  0  0
  127.6762  127.1548   61.8607 H   0  0  0  0  0  0  0  0  0  0  0  0
  128.3914  128.0120   63.2252 H   0  0  0  0  0  0  0  0  0  0  0  0
  127.8830  130.6975   61.4560 H   0  0  0  0  0  0  0  0  0  0  0  0
  127.4625  129.4161   63.5303 H   0  0  0  0  0  0  0  0  0  0  0  0
  129.2256  129.6711   63.9384 H   0  0  0  0  0  0  0  0  0  0  0  0
  130.1944  131.6157   62.3885 H   0  0  0  0  0  0  0  0  0  0  0  0
  130.8297  130.0606   61.6524 H   0  0  0  0  0  0  0  0  0  0  0  0
  131.6373  130.1685   59.5644 H   0  0  0  0  0  0  0  0  0  0  0  0
  133.0489  130.6982   57.5844 H   0  0  0  0  0  0  0  0  0  0  0  0
  131.7054  130.3483   56.4445 H   0  0  0  0  0  0  0  0  0  0  0  0
  132.4848  131.9667   56.4445 H   0  0  0  0  0  0  0  0  0  0  0  0
  128.8790  133.8920   58.5920 H   0  0  0  0  0  0  0  0  0  0  0  0
  131.6684  124.3512   61.2328 H   0  0  0  0  0  0  0  0  0  0  0  0
  133.6426  123.5608   59.9258 H   0  0  0  0  0  0  0  0  0  0  0  0
  134.1399  124.5690   57.7042 H   0  0  0  0  0  0  0  0  0  0  0  0
  132.6854  126.3668   56.7786 H   0  0  0  0  0  0  0  0  0  0  0  0
  130.7010  127.1460   58.0788 H   0  0  0  0  0  0  0  0  0  0  0  0
  129.4772  121.6486   61.9507 H   0  0  0  0  0  0  0  0  0  0  0  0
  127.7896  121.4302   62.5097 H   0  0  0  0  0  0  0  0  0  0  0  0
  126.9915  123.1864   61.2418 H   0  0  0  0  0  0  0  0  0  0  0  0
  128.5596  124.1149   61.4113 H   0  0  0  0  0  0  0  0  0  0  0  0
  129.5583  123.0365   59.6305 H   0  0  0  0  0  0  0  0  0  0  0  0
  128.3617  121.6508   59.7018 H   0  0  0  0  0  0  0  0  0  0  0  0
  126.6358  123.5147   59.0379 H   0  0  0  0  0  0  0  0  0  0  0  0
  128.1315  124.3413   58.4053 H   0  0  0  0  0  0  0  0  0  0  0  0
  127.5493  121.4673   57.6563 H   0  0  0  0  0  0  0  0  0  0  0  0
  126.7288  122.8130   56.7945 H   0  0  0  0  0  0  0  0  0  0  0  0
  128.5220  122.7074   56.7945 H   0  0  0  0  0  0  0  0  0  0  0  0
  1  2  1  0
  2  3  1  0
  3  4  1  0
  4  5  1  0
  5  6  1  0
  6  7  1  0
  7  8  2  0
  7  9  1  0
  9 10  1  0
 10 11  1  0
 11 12  1  0
 12 13  2  0
 12 14  1  0
 14 15  1  0
 15 16  1  0
 16 17  1  0
 17 18  1  0
 16 19  1  0
 19 20  1  0
 20 21  1  0
 21 22  2  0
 22 23  1  0
 22 24  1  0
 24 25  2  0
 24 26  1  0
 26 27  1  0
 27 28  2  0
 12 29  1  6
 29 30  1  0
 30 31  2  0
 31 32  1  0
 32 33  2  0
 33 34  1  0
 34 35  2  0
 10 36  1  0
 36 37  2  0
 36 38  1  0
 38 39  1  0
 39 40  1  0
 40 41  1  0
 41 42  1  0
 42 43  1  0
 27 20  1  0
 35 30  1  0
  1 44  1  0
  1 45  1  0
  1 46  1  0
  2 47  1  0
  2 48  1  0
  3 49  1  0
  3 50  1  0
  4 51  1  0
  4 52  1  0
  5 53  1  0
  5 54  1  0
  9 55  1  0
  9 56  1  0
 10 57  1  6
 11 58  1  0
 14 59  1  0
 14 60  1  0
 16 61  1  6
 17 62  1  0
 17 63  1  0
 19 64  1  0
 19 65  1  0
 21 66  1  0
 23 67  1  0
 23 68  1  0
 23 69  1  0
 26 70  1  0
 31 71  1  0
 32 72  1  0
 33 73  1  0
 34 74  1  0
 35 75  1  0
 39 76  1  0
 39 77  1  0
 40 78  1  0
 40 79  1  0
 41 80  1  0
 41 81  1  0
 42 82  1  0
 42 83  1  0
 43 84  1  0
 43 85  1  0
 43 86  1  0
M  END
>  <Binding energies>  (1) 
[-6.37]

>  <Ligand effiencies>  (1) 
[-0.14155555555555555]

>  <Interactions>  (1) 
["V-A:ILE:369:CG2:3237, V-A:ASP:366:CA:3210, V-B:PRO:540:CA:9855, V-A:GLY:454:CA:4049, V-B:ALA:541:CB:9864, V-B:TYR:539:CE2:9848, V-B:TYR:539:C:9839, V-A:ASP:366:CG:3213, V-A:TYR:539:CD1:4873, V-A:LEU:363:CD1:3189, V-B:TYR:539:CZ:9849, H-B:GLU:543:OE1:9881, V-A:TYR:531:CE2:4793, V-A:GLU:543:CD:4908, H-A:GLY:454:N:4050, V-B:PRO:540:N:9856, V-A:ILE:369:CD1:3239, V-A:ASP:366:C:3208, V-B:TYR:539:CD2:9846, V-A:GLU:543:CG:4907, V-A:SER:385:CB:3409, V-A:TYR:531:CZ:4794, V-A:TYR:539:C:4867, V-A:ASP:366:CB:3212, V-A:LEU:475:CD2:4259, H-A:ARG:545:NH2:4928, V-A:ARG:545:CZ:4926, V-B:TYR:539:CG:9844, V-B:TYR:539:CD1:9845, H-A:TYR:539:O:4868, V-A:PRO:540:N:4884, H-A:TYR:539:N:4870, V-A:PRO:540:CB:4885, V-A:PRO:540:CA:4883, H-A:ARG:545:NE:4924, V-B:PRO:540:C:9853, V-B:ALA:541:CA:9862, V-B:TYR:539:CE1:9847, H-A:TYR:484:OH:4348"]

$$$$
ZINC1772630245
     RDKit          3D

 64 68  0  0  0  0  0  0  0  0999 V2000
  134.3450  124.2940   60.2190 C   0  0  0  0  0  0  0  0  0  0  0  0
  134.5520  123.6670   61.4810 O   0  0  0  0  0  0  0  0  0  0  0  0
  133.5720  123.7520   62.4550 C   0  0  0  0  0  0  0  0  0  0  0  0
  133.6060  124.6770   63.5150 C   0  0  0  0  0  0  0  0  0  0  0  0
  132.5880  124.7040   64.4670 C   0  0  0  0  0  0  0  0  0  0  0  0
  131.5220  123.8200   64.3600 C   0  0  0  0  0  0  0  0  0  0  0  0
  131.4650  122.9030   63.3120 C   0  0  0  0  0  0  0  0  0  0  0  0
  132.4920  122.8590   62.3520 C   0  0  0  0  0  0  0  0  0  0  0  0
  132.5090  121.9750   61.2870 O   0  0  0  0  0  0  0  0  0  0  0  0
  133.4940  120.9480   61.2420 C   0  0  0  0  0  0  0  0  0  0  0  0
  130.5570  124.0370   65.4590 C   0  0  0  0  0  0  0  0  0  0  0  0
  129.4800  123.4630   65.6160 O   0  0  0  0  0  0  0  0  0  0  0  0
  131.1540  125.1210   66.3680 C   0  0  2  0  0  0  0  0  0  0  0  0
  130.0940  126.2000   66.7130 C   0  0  0  0  0  0  0  0  0  0  0  0
  129.7090  126.2840   68.2110 C   0  0  0  0  0  0  0  0  0  0  0  0
  130.5580  127.3240   68.9650 C   0  0  0  0  0  0  0  0  0  0  0  0
  130.2170  127.3520   70.4700 C   0  0  0  0  0  0  0  0  0  0  0  0
  128.7820  127.5940   70.7010 N   0  0  0  0  0  0  0  0  0  0  0  0
  128.4520  127.6470   72.1350 C   0  0  0  0  0  0  0  0  0  0  0  0
  129.0660  126.4950   72.9500 C   0  0  0  0  0  0  0  0  0  0  0  0
  129.7990  126.8480   73.8940 O   0  0  0  0  0  0  0  0  0  0  0  0
  128.7280  125.3300   72.5160 N   0  0  0  0  0  0  0  0  0  0  0  0
  129.1010  124.1470   73.0910 C   0  0  0  0  0  0  0  0  0  0  0  0
  129.5980  123.9550   74.2890 N   0  0  0  0  0  0  0  0  0  0  0  0
  129.8330  122.6400   74.5330 C   0  0  0  0  0  0  0  0  0  0  0  0
  130.3780  122.1300   75.7180 C   0  0  0  0  0  0  0  0  0  0  0  0
  130.5660  120.7530   75.8250 C   0  0  0  0  0  0  0  0  0  0  0  0
  130.2280  119.8690   74.7870 C   0  0  0  0  0  0  0  0  0  0  0  0
  130.4510  118.4100   74.9440 N   0  0  0  0  0  0  0  0  0  0  0  0
  131.5930  117.9740   74.8370 O   0  0  0  0  0  0  0  0  0  0  0  0
  129.4850  117.6870   75.1740 O   0  0  0  0  0  0  0  0  0  0  0  0
  129.6780  120.3760   73.5980 C   0  0  0  0  0  0  0  0  0  0  0  0
  129.4860  121.7580   73.4810 C   0  0  0  0  0  0  0  0  0  0  0  0
  128.8260  122.6960   72.1490 S   0  0  0  0  0  0  0  0  0  0  0  0
  127.8940  126.6860   69.9580 C   0  0  0  0  0  0  0  0  0  0  0  0
  128.2320  126.6560   68.4520 C   0  0  0  0  0  0  0  0  0  0  0  0
  132.4090  125.6300   65.6400 C   0  0  0  0  0  0  0  0  0  0  0  0
  134.0036  125.3280   60.3749 H   0  0  0  0  0  0  0  0  0  0  0  0
  135.2886  124.3007   59.6537 H   0  0  0  0  0  0  0  0  0  0  0  0
  133.5829  123.7375   59.6537 H   0  0  0  0  0  0  0  0  0  0  0  0
  134.4438  125.3855   63.5931 H   0  0  0  0  0  0  0  0  0  0  0  0
  130.6134  122.2109   63.2354 H   0  0  0  0  0  0  0  0  0  0  0  0
  133.7704  120.6599   62.2670 H   0  0  0  0  0  0  0  0  0  0  0  0
  133.0881  120.0736   60.7121 H   0  0  0  0  0  0  0  0  0  0  0  0
  134.3845  121.3170   60.7121 H   0  0  0  0  0  0  0  0  0  0  0  0
  131.4541  124.7449   67.3572 H   0  0  0  0  0  0  0  0  0  0  0  0
  130.4917  127.1790   66.4075 H   0  0  0  0  0  0  0  0  0  0  0  0
  129.1778  125.9138   66.1757 H   0  0  0  0  0  0  0  0  0  0  0  0
  129.8950  125.2680   68.5893 H   0  0  0  0  0  0  0  0  0  0  0  0
  131.6218  127.0714   68.8446 H   0  0  0  0  0  0  0  0  0  0  0  0
  130.3400  128.3167   68.5442 H   0  0  0  0  0  0  0  0  0  0  0  0
  130.4912  126.3843   70.9154 H   0  0  0  0  0  0  0  0  0  0  0  0
  130.7816  128.1744   70.9335 H   0  0  0  0  0  0  0  0  0  0  0  0
  128.8238  128.5986   72.5428 H   0  0  0  0  0  0  0  0  0  0  0  0
  127.3590  127.5555   72.2187 H   0  0  0  0  0  0  0  0  0  0  0  0
  130.6515  122.8010   76.5456 H   0  0  0  0  0  0  0  0  0  0  0  0
  130.9932  120.3451   76.7530 H   0  0  0  0  0  0  0  0  0  0  0  0
  129.4034  119.7002   72.7746 H   0  0  0  0  0  0  0  0  0  0  0  0
  128.0009  125.6704   70.3669 H   0  0  0  0  0  0  0  0  0  0  0  0
  126.8624  127.0513   70.0689 H   0  0  0  0  0  0  0  0  0  0  0  0
  127.5907  125.9121   67.9566 H   0  0  0  0  0  0  0  0  0  0  0  0
  128.0576  127.6606   68.0393 H   0  0  0  0  0  0  0  0  0  0  0  0
  132.2624  126.6644   65.2959 H   0  0  0  0  0  0  0  0  0  0  0  0
  133.2912  125.6362   66.2971 H   0  0  0  0  0  0  0  0  0  0  0  0
  1  2  1  0
  2  3  1  0
  3  4  2  0
  4  5  1  0
  5  6  2  0
  6  7  1  0
  7  8  2  0
  8  9  1  0
  9 10  1  0
  6 11  1  0
 11 12  2  0
 11 13  1  0
 13 14  1  0
 14 15  1  0
 15 16  1  0
 16 17  1  0
 17 18  1  0
 18 19  1  0
 19 20  1  0
 20 21  1  0
 20 22  2  0
 22 23  1  0
 23 24  2  0
 24 25  1  0
 25 26  2  0
 26 27  1  0
 27 28  2  0
 28 29  1  0
 29 30  2  0
 29 31  1  0
 28 32  1  0
 32 33  2  0
 33 34  1  0
 18 35  1  0
 35 36  1  0
 13 37  1  0
  8  3  1  0
 36 15  1  0
 37  5  1  0
 34 23  1  0
 33 25  1  0
  1 38  1  0
  1 39  1  0
  1 40  1  0
  4 41  1  0
  7 42  1  0
 10 43  1  0
 10 44  1  0
 10 45  1  0
 13 46  1  1
 14 47  1  0
 14 48  1  0
 15 49  1  0
 16 50  1  0
 16 51  1  0
 17 52  1  0
 17 53  1  0
 19 54  1  0
 19 55  1  0
 26 56  1  0
 27 57  1  0
 32 58  1  0
 35 59  1  0
 35 60  1  0
 36 61  1  0
 36 62  1  0
 37 63  1  0
 37 64  1  0
M  CHG  3  21  -1  29   1  31  -1
M  END
>  <Binding energies>  (1) 
[-8.44]

>  <Ligand effiencies>  (1) 
[-0.22810810810810808]

>  <Interactions>  (1) 
["V-A:ILE:369:CG2:3237, V-A:ASP:366:CA:3210, V-B:GLU:543:C:9874, V-A:ILE:369:CB:3236, V-B:HIS:456:CD2:9039, V-B:GLU:543:CB:9878, H-B:LYS:547:NZ:9923, V-A:TYR:484:CE2:4346, V-B:GLU:543:CG:9879, V-A:ASP:366:CG:3213, V-A:HIS:456:CD2:4068, V-A:PRO:486:CD:4366, V-B:LYS:547:CE:9922, V-A:ASP:473:CG:4240, V-A:GLU:543:CD:4908, V-A:TYR:484:CZ:4347, V-B:HIS:456:CE1:9041, V-B:GLU:543:CA:9876, V-A:SER:385:C:3405, H-A:ASP:485:N:4354, V-A:HIS:456:CE1:4070, V-A:ILE:369:CD1:3239, V-B:GLY:544:CA:9886, V-A:SER:385:CB:3409, V-A:ASP:366:CB:3212, V-A:ARG:545:CD:4923, V-A:LEU:475:CD2:4259, V-A:ARG:545:CZ:4926, V-A:TYR:484:CB:4341, V-A:GLU:543:CB:4906, V-A:ASP:485:CA:4353, V-A:SER:385:CA:3407, V-A:TYR:484:C:4337, H-A:TYR:484:OH:4348"]

$$$$
ZINC1772631547
     RDKit          3D

 66 70  0  0  0  0  0  0  0  0999 V2000
  126.8410  128.4690   74.6390 C   0  0  0  0  0  0  0  0  0  0  0  0
  128.0590  128.6830   73.7720 C   0  0  0  0  0  0  0  0  0  0  0  0
  129.0000  129.7180   73.7800 C   0  0  0  0  0  0  0  0  0  0  0  0
  129.8990  129.5280   72.8470 N   0  0  0  0  0  0  0  0  0  0  0  0
  129.5020  128.3630   72.3220 N   0  0  0  0  0  0  0  0  0  0  0  0
  130.1470  127.8040   71.1380 C   0  0  0  0  0  0  0  0  0  0  0  0
  129.1810  127.0730   70.1880 C   0  0  0  0  0  0  0  0  0  0  0  0
  128.1710  126.4950   70.5980 O   0  0  0  0  0  0  0  0  0  0  0  0
  129.5760  127.0630   68.6940 C   0  0  1  0  0  0  0  0  0  0  0  0
  129.7190  125.6380   68.0920 C   0  0  0  0  0  0  0  0  0  0  0  0
  129.3610  125.7790   66.5990 C   0  0  0  0  0  0  0  0  0  0  0  0
  129.1360  127.2860   66.4040 C   0  0  1  0  0  0  0  0  0  0  0  0
  128.3290  127.8020   65.1830 C   0  0  2  0  0  0  0  0  0  0  0  0
  128.8640  127.2400   63.8420 C   0  0  0  0  0  0  0  0  0  0  0  0
  128.0590  127.7850   62.6460 C   0  0  0  0  0  0  0  0  0  0  0  0
  128.0440  129.3320   62.6260 C   0  0  2  0  0  0  0  0  0  0  0  0
  129.3640  129.9930   62.1300 C   0  0  0  0  0  0  0  0  0  0  0  0
  129.6190  131.4870   62.5290 C   0  0  2  0  0  0  0  0  0  0  0  0
  129.2210  132.2720   61.2400 C   0  0  0  0  0  0  0  0  0  0  0  0
  130.9770  131.8880   62.5280 O   0  0  0  0  0  0  0  0  0  0  0  0
  128.7460  132.1330   63.6510 C   0  0  0  0  0  0  0  0  0  0  0  0
  127.3860  131.4430   63.8400 C   0  0  0  0  0  0  0  0  0  0  0  0
  127.5360  129.9160   63.9680 C   0  0  2  0  0  0  0  0  0  0  0  0
  128.3590  129.3680   65.1780 C   0  0  1  0  0  0  0  0  0  0  0  0
  127.9190  129.9640   66.5490 C   0  0  0  0  0  0  0  0  0  0  0  0
  128.6850  129.3400   67.7430 C   0  0  0  0  0  0  0  0  0  0  0  0
  128.5680  127.7920   67.7550 C   0  0  2  0  0  0  0  0  0  0  0  0
  127.0870  127.3490   68.0140 C   0  0  0  0  0  0  0  0  0  0  0  0
  128.3780  127.8350   72.8240 N   0  0  0  0  0  0  0  0  0  0  0  0
  127.1317  128.5201   75.6987 H   0  0  0  0  0  0  0  0  0  0  0  0
  126.0967  129.2501   74.4249 H   0  0  0  0  0  0  0  0  0  0  0  0
  126.4075  127.4809   74.4249 H   0  0  0  0  0  0  0  0  0  0  0  0
  128.9867  130.5721   74.4731 H   0  0  0  0  0  0  0  0  0  0  0  0
  130.6234  128.6254   70.5828 H   0  0  0  0  0  0  0  0  0  0  0  0
  130.8727  127.0571   71.4923 H   0  0  0  0  0  0  0  0  0  0  0  0
  130.5408  127.5906   68.7216 H   0  0  0  0  0  0  0  0  0  0  0  0
  130.7510  125.2749   68.2065 H   0  0  0  0  0  0  0  0  0  0  0  0
  129.0645  124.9146   68.6003 H   0  0  0  0  0  0  0  0  0  0  0  0
  130.1863  125.4229   65.9650 H   0  0  0  0  0  0  0  0  0  0  0  0
  128.4799  125.1827   66.3197 H   0  0  0  0  0  0  0  0  0  0  0  0
  130.1116  127.7108   66.1251 H   0  0  0  0  0  0  0  0  0  0  0  0
  127.2929  127.4452   65.2790 H   0  0  0  0  0  0  0  0  0  0  0  0
  129.9185  127.5310   63.7267 H   0  0  0  0  0  0  0  0  0  0  0  0
  128.7623  126.1448   63.8591 H   0  0  0  0  0  0  0  0  0  0  0  0
  128.5145  127.4205   61.7135 H   0  0  0  0  0  0  0  0  0  0  0  0
  127.0214  127.4324   62.7408 H   0  0  0  0  0  0  0  0  0  0  0  0
  127.3127  129.6062   61.8514 H   0  0  0  0  0  0  0  0  0  0  0  0
  130.1998  129.3985   62.5274 H   0  0  0  0  0  0  0  0  0  0  0  0
  129.2760  130.0067   61.0336 H   0  0  0  0  0  0  0  0  0  0  0  0
  128.7402  133.2203   61.5220 H   0  0  0  0  0  0  0  0  0  0  0  0
  130.1222  132.4806   60.6448 H   0  0  0  0  0  0  0  0  0  0  0  0
  128.5201  131.6683   60.6448 H   0  0  0  0  0  0  0  0  0  0  0  0
  131.5160  131.1350   62.7830 H   0  0  0  0  0  0  0  0  0  0  0  0
  129.3001  132.0770   64.5996 H   0  0  0  0  0  0  0  0  0  0  0  0
  128.5440  133.1709   63.3479 H   0  0  0  0  0  0  0  0  0  0  0  0
  126.9123  131.8326   64.7531 H   0  0  0  0  0  0  0  0  0  0  0  0
  126.7680  131.6542   62.9549 H   0  0  0  0  0  0  0  0  0  0  0  0
  126.5213  129.5621   64.2026 H   0  0  0  0  0  0  0  0  0  0  0  0
  129.3980  129.7025   65.0417 H   0  0  0  0  0  0  0  0  0  0  0  0
  128.1058  131.0480   66.5383 H   0  0  0  0  0  0  0  0  0  0  0  0
  126.8509  129.7379   66.6834 H   0  0  0  0  0  0  0  0  0  0  0  0
  129.7471  129.6166   67.6688 H   0  0  0  0  0  0  0  0  0  0  0  0
  128.2414  129.7244   68.6733 H   0  0  0  0  0  0  0  0  0  0  0  0
  126.9047  127.2945   69.0974 H   0  0  0  0  0  0  0  0  0  0  0  0
  126.4011  128.0813   67.5632 H   0  0  0  0  0  0  0  0  0  0  0  0
  126.9158  126.3603   67.5632 H   0  0  0  0  0  0  0  0  0  0  0  0
  1  2  1  0
  2  3  1  0
  3  4  2  0
  4  5  1  0
  5  6  1  0
  6  7  1  0
  7  8  2  0
  7  9  1  0
  9 10  1  0
 10 11  1  0
 11 12  1  0
 12 13  1  0
 13 14  1  0
 14 15  1  0
 15 16  1  0
 16 17  1  0
 17 18  1  0
 18 19  1  0
 18 20  1  1
 18 21  1  0
 21 22  1  0
 22 23  1  0
 23 24  1  0
 24 25  1  0
 25 26  1  0
 26 27  1  0
 27 28  1  1
  5 29  1  0
 29  2  2  0
 27  9  1  0
 27 12  1  0
 24 13  1  0
 23 16  1  0
  1 30  1  0
  1 31  1  0
  1 32  1  0
  3 33  1  0
  6 34  1  0
  6 35  1  0
  9 36  1  1
 10 37  1  0
 10 38  1  0
 11 39  1  0
 11 40  1  0
 12 41  1  6
 13 42  1  1
 14 43  1  0
 14 44  1  0
 15 45  1  0
 15 46  1  0
 16 47  1  6
 17 48  1  0
 17 49  1  0
 19 50  1  0
 19 51  1  0
 19 52  1  0
 20 53  1  0
 21 54  1  0
 21 55  1  0
 22 56  1  0
 22 57  1  0
 23 58  1  1
 24 59  1  6
 25 60  1  0
 25 61  1  0
 26 62  1  0
 26 63  1  0
 28 64  1  0
 28 65  1  0
 28 66  1  0
M  END
>  <Binding energies>  (1) 
[-8.59]

>  <Ligand effiencies>  (1) 
[-0.28633333333333333]

>  <Interactions>  (1) 
["V-A:GLU:543:CA:4904, V-B:HIS:456:CD2:9039, H-A:ALA:541:N:4891, V-B:GLU:543:CB:9878, H-B:LYS:547:NZ:9923, H-A:ALA:541:O:4889, V-B:HIS:456:CB:9036, V-B:GLU:543:CG:9879, V-B:TYR:484:CE2:9317, V-A:ALA:541:CB:4892, V-B:LYS:547:CE:9922, V-A:GLU:543:CD:4908, V-B:HIS:456:CE1:9041, V-B:GLU:543:CA:9876, V-A:HIS:456:CE1:4070, V-B:TYR:484:CZ:9318, V-A:GLU:543:CG:4907, V-B:GLU:543:CD:9880, V-B:HIS:456:CG:9037, H-A:LYS:547:NZ:4951, H-A:GLU:543:OE1:4909, V-A:GLU:543:CB:4906, V-A:PRO:540:CA:4883"]

$$$$
ZINC1772633021
     RDKit          3D

 45 49  0  0  0  0  0  0  0  0999 V2000
  126.0940  127.1580   58.7330 C   0  0  0  0  0  0  0  0  0  0  0  0
  126.6070  125.8990   59.2780 N   0  0  0  0  0  0  0  0  0  0  0  0
  126.6330  124.7000   58.5350 C   0  0  0  0  0  0  0  0  0  0  0  0
  125.7110  124.4950   57.4930 C   0  0  0  0  0  0  0  0  0  0  0  0
  125.7040  123.3170   56.7540 C   0  0  0  0  0  0  0  0  0  0  0  0
  126.6100  122.3080   57.0490 C   0  0  0  0  0  0  0  0  0  0  0  0
  127.5200  122.4740   58.0880 C   0  0  0  0  0  0  0  0  0  0  0  0
  127.5510  123.6550   58.8540 C   0  0  0  0  0  0  0  0  0  0  0  0
  128.5300  123.7940   59.9720 C   0  0  0  0  0  0  0  0  0  0  0  0
  129.4270  122.8970   60.1820 N   0  0  0  0  0  0  0  0  0  0  0  0
  130.3740  122.9710   61.2090 C   0  0  0  0  0  0  0  0  0  0  0  0
  131.6770  123.4090   60.9510 C   0  0  0  0  0  0  0  0  0  0  0  0
  132.5990  123.5420   61.9850 C   0  0  0  0  0  0  0  0  0  0  0  0
  132.2370  123.2520   63.3000 C   0  0  0  0  0  0  0  0  0  0  0  0
  133.2210  123.4190   64.2590 O   0  0  0  0  0  0  0  0  0  0  0  0
  133.6000  124.7260   64.6920 C   0  0  0  0  0  0  0  0  0  0  0  0
  134.6080  125.1220   63.9160 F   0  0  0  0  0  0  0  0  0  0  0  0
  132.6070  125.6040   64.5400 F   0  0  0  0  0  0  0  0  0  0  0  0
  134.0390  124.7200   65.9520 F   0  0  0  0  0  0  0  0  0  0  0  0
  130.9280  122.8240   63.5670 C   0  0  0  0  0  0  0  0  0  0  0  0
  130.0080  122.6920   62.5310 C   0  0  0  0  0  0  0  0  0  0  0  0
  128.3400  125.0260   60.7530 C   0  0  0  0  0  0  0  0  0  0  0  0
  129.0040  125.3390   61.9030 O   0  0  0  0  0  0  0  0  0  0  0  0
  128.4790  126.5190   62.3310 C   0  0  0  0  0  0  0  0  0  0  0  0
  128.8630  127.2060   63.4890 C   0  0  0  0  0  0  0  0  0  0  0  0
  128.1930  128.3960   63.7690 C   0  0  0  0  0  0  0  0  0  0  0  0
  127.1840  128.8730   62.9290 C   0  0  0  0  0  0  0  0  0  0  0  0
  126.8070  128.1810   61.7750 C   0  0  0  0  0  0  0  0  0  0  0  0
  127.4650  126.9780   61.4560 C   0  0  0  0  0  0  0  0  0  0  0  0
  127.3990  125.9940   60.4030 C   0  0  0  0  0  0  0  0  0  0  0  0
  125.8200  127.8305   59.5592 H   0  0  0  0  0  0  0  0  0  0  0  0
  126.8701  127.6334   58.1153 H   0  0  0  0  0  0  0  0  0  0  0  0
  125.2066  126.9556   58.1153 H   0  0  0  0  0  0  0  0  0  0  0  0
  124.9802  125.2828   57.2577 H   0  0  0  0  0  0  0  0  0  0  0  0
  124.9806  123.1850   55.9359 H   0  0  0  0  0  0  0  0  0  0  0  0
  126.6086  121.3778   56.4618 H   0  0  0  0  0  0  0  0  0  0  0  0
  128.2303  121.6656   58.3159 H   0  0  0  0  0  0  0  0  0  0  0  0
  131.9761  123.6508   59.9204 H   0  0  0  0  0  0  0  0  0  0  0  0
  133.6223  123.8789   61.7629 H   0  0  0  0  0  0  0  0  0  0  0  0
  130.6275  122.5918   64.5994 H   0  0  0  0  0  0  0  0  0  0  0  0
  128.9817  122.3647   62.7536 H   0  0  0  0  0  0  0  0  0  0  0  0
  129.6570  126.8242   64.1477 H   0  0  0  0  0  0  0  0  0  0  0  0
  128.4638  128.9697   64.6676 H   0  0  0  0  0  0  0  0  0  0  0  0
  126.6747  129.8147   63.1816 H   0  0  0  0  0  0  0  0  0  0  0  0
  126.0086  128.5701   61.1260 H   0  0  0  0  0  0  0  0  0  0  0  0
  1  2  1  0
  2  3  1  0
  3  4  2  0
  4  5  1  0
  5  6  2  0
  6  7  1  0
  7  8  2  0
  8  9  1  0
  9 10  2  0
 10 11  1  0
 11 12  2  0
 12 13  1  0
 13 14  2  0
 14 15  1  0
 15 16  1  0
 16 17  1  0
 16 18  1  0
 16 19  1  0
 14 20  1  0
 20 21  2  0
  9 22  1  0
 22 23  1  0
 23 24  1  0
 24 25  2  0
 25 26  1  0
 26 27  2  0
 27 28  1  0
 28 29  2  0
 29 30  1  0
 30  2  1  0
  8  3  1  0
 21 11  1  0
 30 22  2  0
 29 24  1  0
  1 31  1  0
  1 32  1  0
  1 33  1  0
  4 34  1  0
  5 35  1  0
  6 36  1  0
  7 37  1  0
 12 38  1  0
 13 39  1  0
 20 40  1  0
 21 41  1  0
 25 42  1  0
 26 43  1  0
 27 44  1  0
 28 45  1  0
M  END
>  <Binding energies>  (1) 
[-5.93]

>  <Ligand effiencies>  (1) 
[-0.19766666666666666]

>  <Interactions>  (1) 
["V-B:TYR:539:CA:9841, V-B:PRO:540:CA:9855, V-A:GLY:454:CA:4049, V-B:ASP:366:CG:8184, V-B:TYR:539:CE2:9848, V-B:TYR:539:C:9839, V-A:GLU:543:CD:4908, V-B:PRO:540:CB:9857, V-B:ASP:366:CB:8183, V-A:TYR:484:CZ:4347, V-A:ARG:545:CG:4922, H-A:GLY:454:N:4050, V-A:GLY:453:C:4042, V-B:PRO:540:N:9856, V-B:TYR:539:CD2:9846, V-B:PRO:540:CD:9859, V-B:GLU:543:CD:9880, V-A:ARG:545:CD:4923, V-A:LEU:475:CD2:4259, V-A:ARG:545:CZ:4926, V-B:TYR:539:CG:9844, V-B:LEU:363:CD1:8160, V-A:GLY:453:CA:4044, V-B:MET:535:CE:9807, H-A:TYR:484:OH:4348"]

$$$$
ZINC1772635023
     RDKit          3D

 61 64  0  0  0  0  0  0  0  0999 V2000
  134.5970  124.7150   62.5320 C   0  0  0  0  0  0  0  0  0  0  0  0
  134.2230  124.8080   63.9030 O   0  0  0  0  0  0  0  0  0  0  0  0
  132.9330  124.5480   64.2540 C   0  0  0  0  0  0  0  0  0  0  0  0
  132.3210  123.5440   63.5950 C   0  0  0  0  0  0  0  0  0  0  0  0
  130.8700  123.1060   63.8350 C   0  0  2  0  0  0  0  0  0  0  0  0
  129.9730  123.3210   62.6790 N   0  0  0  0  0  0  0  0  0  0  0  0
  128.5350  123.1520   62.9510 C   0  0  0  0  0  0  0  0  0  0  0  0
  127.5850  123.0850   61.7320 C   0  0  0  0  0  0  0  0  0  0  0  0
  126.2100  123.2200   62.0280 O   0  0  0  0  0  0  0  0  0  0  0  0
  130.3350  124.3970   61.8320 C   0  0  0  0  0  0  0  0  0  0  0  0
  130.9640  124.1250   60.6120 C   0  0  0  0  0  0  0  0  0  0  0  0
  131.3530  125.1460   59.7470 C   0  0  0  0  0  0  0  0  0  0  0  0
  131.1130  126.4940   60.0960 C   0  0  0  0  0  0  0  0  0  0  0  0
  131.4950  127.4950   59.2530 N   0  0  0  0  0  0  0  0  0  0  0  0
  131.2400  128.7690   59.6440 C   0  0  0  0  0  0  0  0  0  0  0  0
  130.6210  129.0660   60.8600 C   0  0  0  0  0  0  0  0  0  0  0  0
  130.3110  130.4670   61.2840 C   0  0  0  0  0  0  0  0  0  0  0  0
  131.2340  131.4740   61.6560 C   0  0  0  0  0  0  0  0  0  0  0  0
  132.7580  131.4240   61.7010 C   0  0  0  0  0  0  0  0  0  0  0  0
  133.2680  131.3090   60.4760 F   0  0  0  0  0  0  0  0  0  0  0  0
  133.2560  132.5310   62.2490 F   0  0  0  0  0  0  0  0  0  0  0  0
  133.2140  130.3900   62.4130 F   0  0  0  0  0  0  0  0  0  0  0  0
  130.6120  132.5780   62.0050 N   0  0  0  0  0  0  0  0  0  0  0  0
  129.3090  132.3170   61.8980 N   0  0  0  0  0  0  0  0  0  0  0  0
  128.3670  133.3840   62.2130 C   0  0  0  0  0  0  0  0  0  0  0  0
  129.0470  131.0570   61.4060 C   0  0  0  0  0  0  0  0  0  0  0  0
  127.6320  130.5610   61.1220 C   0  0  0  0  0  0  0  0  0  0  0  0
  126.9250  130.4030   62.2400 F   0  0  0  0  0  0  0  0  0  0  0  0
  126.9750  131.4190   60.3430 F   0  0  0  0  0  0  0  0  0  0  0  0
  127.6380  129.3770   60.5100 F   0  0  0  0  0  0  0  0  0  0  0  0
  130.2260  128.0770   61.7050 N   0  0  0  0  0  0  0  0  0  0  0  0
  130.4670  126.7880   61.3340 C   0  0  0  0  0  0  0  0  0  0  0  0
  130.0780  125.7290   62.1860 C   0  0  0  0  0  0  0  0  0  0  0  0
  130.2520  123.6770   65.1690 C   0  0  0  0  0  0  0  0  0  0  0  0
  130.9780  124.9260   65.6930 C   0  0  0  0  0  0  0  0  0  0  0  0
  130.3810  125.5650   66.7320 O   0  0  0  0  0  0  0  0  0  0  0  0
  129.3260  126.4720   66.4250 C   0  0  0  0  0  0  0  0  0  0  0  0
  132.2080  125.2790   65.2880 C   0  0  0  0  0  0  0  0  0  0  0  0
  135.6622  124.4501   62.4597 H   0  0  0  0  0  0  0  0  0  0  0  0
  133.9921  123.9399   62.0387 H   0  0  0  0  0  0  0  0  0  0  0  0
  134.4256  125.6831   62.0387 H   0  0  0  0  0  0  0  0  0  0  0  0
  132.9010  123.0019   62.8336 H   0  0  0  0  0  0  0  0  0  0  0  0
  130.9426  122.0158   63.9618 H   0  0  0  0  0  0  0  0  0  0  0  0
  128.4135  122.2162   63.5163 H   0  0  0  0  0  0  0  0  0  0  0  0
  128.2403  124.0653   63.4886 H   0  0  0  0  0  0  0  0  0  0  0  0
  127.8641  123.8926   61.0393 H   0  0  0  0  0  0  0  0  0  0  0  0
  127.7065  122.0775   61.3076 H   0  0  0  0  0  0  0  0  0  0  0  0
  126.1090  123.8820   62.7160 H   0  0  0  0  0  0  0  0  0  0  0  0
  131.1561  123.0796   60.3288 H   0  0  0  0  0  0  0  0  0  0  0  0
  131.8460  124.9029   58.7942 H   0  0  0  0  0  0  0  0  0  0  0  0
  131.5309  129.5965   58.9802 H   0  0  0  0  0  0  0  0  0  0  0  0
  128.2784  133.4844   63.3048 H   0  0  0  0  0  0  0  0  0  0  0  0
  128.7292  134.3308   61.7859 H   0  0  0  0  0  0  0  0  0  0  0  0
  127.3826  133.1420   61.7859 H   0  0  0  0  0  0  0  0  0  0  0  0
  129.5691  125.9521   63.1353 H   0  0  0  0  0  0  0  0  0  0  0  0
  129.1999  123.9381   64.9820 H   0  0  0  0  0  0  0  0  0  0  0  0
  130.3567  122.8952   65.9357 H   0  0  0  0  0  0  0  0  0  0  0  0
  128.8850  126.8511   67.3587 H   0  0  0  0  0  0  0  0  0  0  0  0
  129.7247  127.3136   65.8396 H   0  0  0  0  0  0  0  0  0  0  0  0
  128.5537  125.9515   65.8396 H   0  0  0  0  0  0  0  0  0  0  0  0
  132.6878  126.1527   65.7533 H   0  0  0  0  0  0  0  0  0  0  0  0
  1  2  1  0
  2  3  1  0
  3  4  2  0
  4  5  1  0
  5  6  1  0
  6  7  1  0
  7  8  1  0
  8  9  1  0
  6 10  1  0
 10 11  2  0
 11 12  1  0
 12 13  2  0
 13 14  1  0
 14 15  2  0
 15 16  1  0
 16 17  1  0
 17 18  1  0
 18 19  1  0
 19 20  1  0
 19 21  1  0
 19 22  1  0
 18 23  2  0
 23 24  1  0
 24 25  1  0
 24 26  1  0
 26 27  1  0
 27 28  1  0
 27 29  1  0
 27 30  1  0
 16 31  2  0
 31 32  1  0
 32 33  2  0
  5 34  1  0
 34 35  1  0
 35 36  1  0
 36 37  1  0
 35 38  2  0
 38  3  1  0
 33 10  1  0
 32 13  1  0
 26 17  2  0
  1 39  1  0
  1 40  1  0
  1 41  1  0
  4 42  1  0
  5 43  1  1
  7 44  1  0
  7 45  1  0
  8 46  1  0
  8 47  1  0
  9 48  1  0
 11 49  1  0
 12 50  1  0
 15 51  1  0
 25 52  1  0
 25 53  1  0
 25 54  1  0
 33 55  1  0
 34 56  1  0
 34 57  1  0
 37 58  1  0
 37 59  1  0
 37 60  1  0
 38 61  1  0
M  END
>  <Binding energies>  (1) 
[-6.79]

>  <Ligand effiencies>  (1) 
[-0.1741025641025641]

>  <Interactions>  (1) 
["V-B:PRO:540:CA:9855, V-A:ALA:541:C:4888, H-A:ALA:541:N:4891, V-B:GLU:543:CB:9878, V-A:PRO:540:C:4881, V-B:ALA:541:CB:9864, H-A:ARG:545:NH1:4927, V-A:TYR:484:CE2:4346, V-B:TYR:539:CE2:9848, H-B:ALA:541:O:9861, V-B:GLU:543:CG:9879, V-B:LEU:475:CD2:9230, V-A:ASP:366:CG:3213, V-A:ASN:362:CB:3176, H-B:GLU:543:OE1:9881, V-A:ALA:541:CB:4892, H-B:ALA:541:N:9863, V-A:TYR:484:CZ:4347, V-A:GLU:543:CD:4908, H-A:GLY:454:N:4050, V-A:GLY:453:C:4042, V-A:ILE:369:CD1:3239, V-A:ALA:541:CA:4890, V-B:GLU:543:CD:9880, V-A:LEU:475:CD2:4259, H-A:ARG:545:NH2:4928, V-A:ARG:545:CZ:4926, V-A:GLY:453:CA:4044, V-A:PRO:540:CA:4883, V-A:PRO:540:CB:4885, V-A:LEU:363:CA:3185, H-A:ARG:545:NE:4924, H-A:TYR:484:OH:4348"]

$$$$
ZINC1772645152
     RDKit          3D

 33 35  0  0  0  0  0  0  0  0999 V2000
  133.3870  130.4140   57.8190 C   0  0  0  0  0  0  0  0  0  0  0  0
  132.1850  131.1580   58.3480 C   0  0  0  0  0  0  0  0  0  0  0  0
  131.2580  131.9390   57.6600 C   0  0  0  0  0  0  0  0  0  0  0  0
  130.3480  132.4050   58.5920 C   0  0  0  0  0  0  0  0  0  0  0  0
  129.1410  133.3070   58.4270 C   0  0  0  0  0  0  0  0  0  0  0  0
  130.7860  131.8720   59.7960 N   0  0  0  0  0  0  0  0  0  0  0  0
  130.2220  131.9980   61.0930 C   0  0  0  0  0  0  0  0  0  0  0  0
  131.0860  132.0840   62.1520 N   0  0  0  0  0  0  0  0  0  0  0  0
  130.6000  132.2200   63.4020 N   0  0  0  0  0  0  0  0  0  0  0  0
  129.2730  132.2750   63.5660 C   0  0  0  0  0  0  0  0  0  0  0  0
  128.5250  132.4120   64.6820 N   0  0  0  0  0  0  0  0  0  0  0  0
  127.2030  132.4160   64.2590 N   0  0  0  0  0  0  0  0  0  0  0  0
  127.1540  132.2720   62.9450 C   0  0  0  0  0  0  0  0  0  0  0  0
  125.9010  132.2620   62.0720 C   0  0  0  0  0  0  0  0  0  0  0  0
  125.7530  130.9230   61.3240 C   0  0  0  0  0  0  0  0  0  0  0  0
  125.8450  133.4510   61.0900 C   0  0  0  0  0  0  0  0  0  0  0  0
  128.4380  132.1850   62.4470 N   0  0  0  0  0  0  0  0  0  0  0  0
  128.8640  132.0420   61.1800 N   0  0  0  0  0  0  0  0  0  0  0  0
  131.8950  131.1220   59.6270 N   0  0  0  0  0  0  0  0  0  0  0  0
  133.9881  130.0420   58.6618 H   0  0  0  0  0  0  0  0  0  0  0  0
  133.0518  129.5652   57.2048 H   0  0  0  0  0  0  0  0  0  0  0  0
  133.9972  131.0926   57.2048 H   0  0  0  0  0  0  0  0  0  0  0  0
  131.2512  132.1459   56.5796 H   0  0  0  0  0  0  0  0  0  0  0  0
  128.7586  133.5928   59.4180 H   0  0  0  0  0  0  0  0  0  0  0  0
  129.4319  134.2108   57.8716 H   0  0  0  0  0  0  0  0  0  0  0  0
  128.3566  132.7720   57.8716 H   0  0  0  0  0  0  0  0  0  0  0  0
  125.0465  132.3761   62.7552 H   0  0  0  0  0  0  0  0  0  0  0  0
  125.6625  130.1040   62.0527 H   0  0  0  0  0  0  0  0  0  0  0  0
  124.8527  130.9532   60.6927 H   0  0  0  0  0  0  0  0  0  0  0  0
  126.6381  130.7559   60.6927 H   0  0  0  0  0  0  0  0  0  0  0  0
  125.8006  134.3928   61.6567 H   0  0  0  0  0  0  0  0  0  0  0  0
  126.7444  133.4462   60.4567 H   0  0  0  0  0  0  0  0  0  0  0  0
  124.9501  133.3616   60.4567 H   0  0  0  0  0  0  0  0  0  0  0  0
  1  2  1  0
  2  3  1  0
  3  4  2  0
  4  5  1  0
  4  6  1  0
  6  7  1  0
  7  8  1  0
  8  9  2  0
  9 10  1  0
 10 11  2  0
 11 12  1  0
 12 13  2  0
 13 14  1  0
 14 15  1  0
 14 16  1  0
 13 17  1  0
 17 18  1  0
  6 19  1  0
 19  2  2  0
 18  7  2  0
 17 10  1  0
  1 20  1  0
  1 21  1  0
  1 22  1  0
  3 23  1  0
  5 24  1  0
  5 25  1  0
  5 26  1  0
 14 27  1  0
 15 28  1  0
 15 29  1  0
 15 30  1  0
 16 31  1  0
 16 32  1  0
 16 33  1  0
M  END
>  <Binding energies>  (1) 
[-6.62]

>  <Ligand effiencies>  (1) 
[-0.34842105263157896]

>  <Interactions>  (1) 
["H-A:ALA:541:N:4891, V-A:ASP:366:CG:3213, V-A:LEU:363:CD1:3189, V-A:TYR:539:CD1:4873, V-A:TYR:531:CE2:4793, V-A:ALA:541:CB:4892, V-A:TYR:539:CA:4869, H-B:TYR:484:OH:9319, V-A:ALA:541:CA:4890, V-A:GLU:543:CG:4907, V-A:TYR:531:CZ:4794, V-A:TYR:539:C:4867, V-A:ASP:366:CB:3212, V-A:PRO:540:N:4884, V-A:TYR:539:CG:4872, V-A:PRO:540:CB:4885, V-A:PRO:540:CA:4883, V-A:LEU:363:CA:3185, V-A:TYR:539:CE1:4875"]

$$$$
ZINC1772647180-again1
     RDKit          3D

 24 26  0  0  0  0  0  0  0  0999 V2000
  126.9090  126.2180   71.3330 O   0  0  0  0  0  0  0  0  0  0  0  0
  127.8270  127.0390   71.3960 C   0  0  0  0  0  0  0  0  0  0  0  0
  128.8850  127.1240   70.3510 C   0  0  0  0  0  0  0  0  0  0  0  0
  128.8940  126.2720   69.2360 C   0  0  0  0  0  0  0  0  0  0  0  0
  129.8990  126.3770   68.2730 C   0  0  0  0  0  0  0  0  0  0  0  0
  129.8950  125.2130   66.7670 Br  0  0  0  0  0  0  0  0  0  0  0  0
  130.9070  127.3320   68.4120 C   0  0  0  0  0  0  0  0  0  0  0  0
  130.9100  128.1850   69.5150 C   0  0  0  0  0  0  0  0  0  0  0  0
  129.9060  128.0800   70.4770 C   0  0  0  0  0  0  0  0  0  0  0  0
  129.9740  128.9570   71.5410 O   0  0  0  0  0  0  0  0  0  0  0  0
  129.0180  128.9250   72.5430 C   0  0  0  0  0  0  0  0  0  0  0  0
  129.1600  129.8500   73.5880 C   0  0  0  0  0  0  0  0  0  0  0  0
  130.2300  130.7220   73.5520 O   0  0  0  0  0  0  0  0  0  0  0  0
  128.2120  129.8600   74.6360 C   0  0  0  0  0  0  0  0  0  0  0  0
  128.2830  130.6750   75.6170 O   0  0  0  0  0  0  0  0  0  0  0  0
  127.1510  128.9490   74.6120 C   0  0  0  0  0  0  0  0  0  0  0  0
  127.0220  128.0350   73.5670 C   0  0  0  0  0  0  0  0  0  0  0  0
  127.9500  128.0100   72.5220 C   0  0  0  0  0  0  0  0  0  0  0  0
  128.1034  125.5160   69.1200 H   0  0  0  0  0  0  0  0  0  0  0  0
  131.6984  127.4118   67.6522 H   0  0  0  0  0  0  0  0  0  0  0  0
  131.7029  128.9393   69.6261 H   0  0  0  0  0  0  0  0  0  0  0  0
  130.6190  130.7930   72.6780 H   0  0  0  0  0  0  0  0  0  0  0  0
  126.4109  128.9537   75.4257 H   0  0  0  0  0  0  0  0  0  0  0  0
  126.1810  127.3260   73.5649 H   0  0  0  0  0  0  0  0  0  0  0  0
  1  2  2  0
  2  3  1  0
  3  4  2  0
  4  5  1  0
  5  6  1  0
  5  7  2  0
  7  8  1  0
  8  9  2  0
  9 10  1  0
 10 11  1  0
 11 12  2  0
 12 13  1  0
 12 14  1  0
 14 15  1  0
 14 16  2  0
 16 17  1  0
 17 18  2  0
 18  2  1  0
  9  3  1  0
 18 11  1  0
  4 19  1  0
  7 20  1  0
  8 21  1  0
 13 22  1  0
 16 23  1  0
 17 24  1  0
M  CHG  1  15  -1
M  END
>  <Binding energies>  (1) 
[-5.88]

>  <Ligand effiencies>  (1) 
[-0.3094736842105263]

>  <Interactions>  (1) 
["V-A:GLU:543:CA:4904, V-B:HIS:456:CD2:9039, V-B:GLU:543:C:9874, V-A:GLU:543:C:4902, V-B:GLU:543:CB:9878, V-B:HIS:456:CB:9036, V-A:TYR:484:CE2:4346, V-B:GLU:543:CG:9879, V-A:GLY:544:C:4912, H-B:ARG:545:N:9892, V-B:LYS:547:CE:9922, V-A:GLU:543:CD:4908, V-A:ARG:545:CG:4922, V-B:HIS:456:CE1:9041, H-B:GLY:544:N:9887, V-B:GLU:543:CA:9876, V-A:HIS:456:CE1:4070, V-B:GLY:544:C:9884, V-B:HIS:456:CG:9037, H-A:LYS:547:NZ:4951, V-A:GLU:543:CB:4906, H-A:GLY:544:O:4913, H-A:GLU:543:O:4903"]

$$$$
ZINC1772650304
     RDKit          3D

136139  0  0  0  0  0  0  0  0999 V2000
  126.7840  127.7370   61.5160 C   0  0  0  0  0  0  0  0  0  0  0  0
  128.1400  127.3340   61.3640 O   0  0  0  0  0  0  0  0  0  0  0  0
  129.0680  128.3960   61.1580 C   0  0  1  0  0  0  0  0  0  0  0  0
  129.3450  128.6910   59.6560 C   0  0  0  0  0  0  0  0  0  0  0  0
  128.4830  128.0060   58.5530 C   0  0  1  0  0  0  0  0  0  0  0  0
  128.7560  128.6770   57.1900 C   0  0  0  0  0  0  0  0  0  0  0  0
  128.7040  126.4680   58.4190 C   0  0  0  0  0  0  0  0  0  0  0  0
  130.1470  125.9680   58.4380 C   0  0  0  0  0  0  0  0  0  0  0  0
  130.9220  126.2840   57.1680 C   0  0  0  0  0  0  0  0  0  0  0  0
  130.6570  125.3760   59.5430 C   0  0  0  0  0  0  0  0  0  0  0  0
  132.0240  124.7440   59.8090 C   0  0  1  0  0  0  0  0  0  0  0  0
  133.0960  124.8910   58.6950 C   0  0  0  0  0  0  0  0  0  0  0  0
  133.6120  123.5700   58.0850 C   0  0  0  0  0  0  0  0  0  0  0  0
  133.2260  122.3090   58.8770 C   0  0  0  0  0  0  0  0  0  0  0  0
  133.6770  122.3750   60.6350 S   0  0  0  0  0  0  0  0  0  0  0  0
  132.2020  121.6910   61.4560 C   0  0  0  0  0  0  0  0  0  0  0  0
  131.7750  120.2680   61.0590 C   0  0  0  0  0  0  0  0  0  0  0  0
  130.5570  120.2680   60.3450 O   0  0  0  0  0  0  0  0  0  0  0  0
  132.5190  125.0190   61.2430 C   0  0  0  0  0  0  0  0  0  0  0  0
  133.6500  125.4660   61.4310 O   0  0  0  0  0  0  0  0  0  0  0  0
  131.6000  124.7310   62.4420 C   0  0  0  0  0  0  0  0  0  0  0  0
  132.0880  125.3460   63.7830 C   0  0  2  0  0  0  0  0  0  0  0  0
  133.4970  125.1840   63.8530 O   0  0  0  0  0  0  0  0  0  0  0  0
  131.4210  124.7510   65.0630 C   0  0  1  0  0  0  0  0  0  0  0  0
  131.9330  125.4740   66.3390 C   0  0  0  0  0  0  0  0  0  0  0  0
  129.8530  124.6970   64.9650 C   0  0  1  0  0  0  0  0  0  0  0  0
  129.1930  123.7980   63.8950 C   0  0  0  0  0  0  0  0  0  0  0  0
  129.2050  122.3100   64.2390 C   0  0  0  0  0  0  0  0  0  0  0  0
  128.6140  124.2820   62.7710 C   0  0  0  0  0  0  0  0  0  0  0  0
  127.9560  123.4950   61.6430 C   0  0  2  0  0  0  0  0  0  0  0  0
  129.0610  122.9640   60.7000 C   0  0  0  0  0  0  0  0  0  0  0  0
  128.4590  122.1990   59.5060 C   0  0  0  0  0  0  0  0  0  0  0  0
  127.4140  123.0360   58.7310 C   0  0  1  0  0  0  0  0  0  0  0  0
  126.7970  122.2310   57.7440 O   0  0  0  0  0  0  0  0  0  0  0  0
  126.3600  123.6900   59.6650 C   0  0  2  0  0  0  0  0  0  0  0  0
  125.5360  124.5630   58.8890 O   0  0  0  0  0  0  0  0  0  0  0  0
  126.0750  124.9770   57.6390 C   0  0  0  0  0  0  0  0  0  0  0  0
  127.0440  124.4450   60.8330 C   0  0  0  0  0  0  0  0  0  0  0  0
  129.2130  124.6380   66.2540 O   0  0  0  0  0  0  0  0  0  0  0  0
  129.7510  125.0940   67.4210 C   0  0  0  0  0  0  0  0  0  0  0  0
  130.1060  124.3990   68.3740 O   0  0  0  0  0  0  0  0  0  0  0  0
  129.9090  126.6310   67.4090 C   0  0  2  0  0  0  0  0  0  0  0  0
  130.3150  127.2500   68.7810 C   0  0  0  0  0  0  0  0  0  0  0  0
  129.1650  127.4030   69.7920 C   0  0  0  0  0  0  0  0  0  0  0  0
  127.9320  128.0400   69.1400 C   0  0  0  0  0  0  0  0  0  0  0  0
  127.5110  127.2830   67.8680 C   0  0  0  0  0  0  0  0  0  0  0  0
  128.6620  127.3000   66.9280 N   0  0  0  0  0  0  0  0  0  0  0  0
  128.7200  128.0100   65.7600 C   0  0  0  0  0  0  0  0  0  0  0  0
  129.2840  127.6190   64.7360 O   0  0  0  0  0  0  0  0  0  0  0  0
  127.9240  129.4040   65.6670 C   0  0  0  0  0  0  0  0  0  0  0  0
  127.1840  129.7580   66.5890 O   0  0  0  0  0  0  0  0  0  0  0  0
  128.0080  130.2040   64.2850 C   0  0  2  0  0  0  0  0  0  0  0  0
  126.7400  130.6430   63.9570 O   0  0  0  0  0  0  0  0  0  0  0  0
  128.4680  129.2180   63.3840 O   0  0  0  0  0  0  0  0  0  0  0  0
  128.6420  129.6210   62.0160 C   0  0  1  0  0  0  0  0  0  0  0  0
  129.6690  130.7800   61.9490 C   0  0  1  0  0  0  0  0  0  0  0  0
  129.8330  131.2150   60.6000 O   0  0  0  0  0  0  0  0  0  0  0  0
  131.1710  131.4900   60.2070 C   0  0  0  0  0  0  0  0  0  0  0  0
  129.1990  131.9380   62.8490 C   0  0  0  0  0  0  0  0  0  0  0  0
  128.9690  131.4370   64.2900 C   0  0  1  0  0  0  0  0  0  0  0  0
  128.5570  132.5790   65.2450 C   0  0  0  0  0  0  0  0  0  0  0  0
  126.5407  127.8093   62.5863 H   0  0  0  0  0  0  0  0  0  0  0  0
  126.6373  128.7176   61.0396 H   0  0  0  0  0  0  0  0  0  0  0  0
  126.1256  126.9957   61.0396 H   0  0  0  0  0  0  0  0  0  0  0  0
  130.0612  128.0872   61.5161 H   0  0  0  0  0  0  0  0  0  0  0  0
  129.2301  129.7765   59.5196 H   0  0  0  0  0  0  0  0  0  0  0  0
  130.3455  128.2628   59.4957 H   0  0  0  0  0  0  0  0  0  0  0  0
  127.4372  128.1403   58.8664 H   0  0  0  0  0  0  0  0  0  0  0  0
  129.1660  129.6847   57.3529 H   0  0  0  0  0  0  0  0  0  0  0  0
  129.4802  128.0738   56.6229 H   0  0  0  0  0  0  0  0  0  0  0  0
  127.8164  128.7507   56.6229 H   0  0  0  0  0  0  0  0  0  0  0  0
  128.1744  125.9833   59.2524 H   0  0  0  0  0  0  0  0  0  0  0  0
  128.3276  126.2127   57.4174 H   0  0  0  0  0  0  0  0  0  0  0  0
  131.9107  126.6871   57.4325 H   0  0  0  0  0  0  0  0  0  0  0  0
  131.0470  125.3650   56.5765 H   0  0  0  0  0  0  0  0  0  0  0  0
  130.3688  127.0284   56.5765 H   0  0  0  0  0  0  0  0  0  0  0  0
  129.9677  125.3438   60.3997 H   0  0  0  0  0  0  0  0  0  0  0  0
  131.8387  123.6615   59.7477 H   0  0  0  0  0  0  0  0  0  0  0  0
  132.6595  125.4907   57.8827 H   0  0  0  0  0  0  0  0  0  0  0  0
  133.9669  125.3597   59.1765 H   0  0  0  0  0  0  0  0  0  0  0  0
  133.2010  123.4770   57.0689 H   0  0  0  0  0  0  0  0  0  0  0  0
  134.7105  123.6257   58.1007 H   0  0  0  0  0  0  0  0  0  0  0  0
  132.1367  122.1745   58.8040 H   0  0  0  0  0  0  0  0  0  0  0  0
  133.7863  121.4716   58.4356 H   0  0  0  0  0  0  0  0  0  0  0  0
  132.3968  121.6885   62.5386 H   0  0  0  0  0  0  0  0  0  0  0  0
  131.3721  122.3371   61.1338 H   0  0  0  0  0  0  0  0  0  0  0  0
  132.5584  119.8240   60.4273 H   0  0  0  0  0  0  0  0  0  0  0  0
  131.6325  119.6835   61.9799 H   0  0  0  0  0  0  0  0  0  0  0  0
  130.3280  119.3610   60.1290 H   0  0  0  0  0  0  0  0  0  0  0  0
  130.6033  125.1391   62.2182 H   0  0  0  0  0  0  0  0  0  0  0  0
  131.5936  123.6396   62.5794 H   0  0  0  0  0  0  0  0  0  0  0  0
  131.7898  126.4048   63.7756 H   0  0  0  0  0  0  0  0  0  0  0  0
  133.8750  125.4780   63.0210 H   0  0  0  0  0  0  0  0  0  0  0  0
  131.7327  123.6990   65.1418 H   0  0  0  0  0  0  0  0  0  0  0  0
  131.5615  124.9494   67.2317 H   0  0  0  0  0  0  0  0  0  0  0  0
  133.0330  125.4732   66.3445 H   0  0  0  0  0  0  0  0  0  0  0  0
  131.5671  126.5113   66.3445 H   0  0  0  0  0  0  0  0  0  0  0  0
  129.6420  125.6813   64.5217 H   0  0  0  0  0  0  0  0  0  0  0  0
  129.2060  122.1864   65.3320 H   0  0  0  0  0  0  0  0  0  0  0  0
  128.3107  121.8287   63.8164 H   0  0  0  0  0  0  0  0  0  0  0  0
  130.1069  121.8432   63.8164 H   0  0  0  0  0  0  0  0  0  0  0  0
  128.6189  125.3761   62.6578 H   0  0  0  0  0  0  0  0  0  0  0  0
  127.3685  122.6633   62.0590 H   0  0  0  0  0  0  0  0  0  0  0  0
  129.6479  123.8139   60.3217 H   0  0  0  0  0  0  0  0  0  0  0  0
  129.6995  122.2721   61.2689 H   0  0  0  0  0  0  0  0  0  0  0  0
  129.2716  121.9243   58.8174 H   0  0  0  0  0  0  0  0  0  0  0  0
  127.9468  121.3102   59.9030 H   0  0  0  0  0  0  0  0  0  0  0  0
  127.9440  123.8668   58.2423 H   0  0  0  0  0  0  0  0  0  0  0  0
  125.9130  122.5690   57.5830 H   0  0  0  0  0  0  0  0  0  0  0  0
  125.7318  122.9081   60.1166 H   0  0  0  0  0  0  0  0  0  0  0  0
  126.9365  125.6387   57.8123 H   0  0  0  0  0  0  0  0  0  0  0  0
  126.3997  124.0939   57.0692 H   0  0  0  0  0  0  0  0  0  0  0  0
  125.3055  125.5185   57.0692 H   0  0  0  0  0  0  0  0  0  0  0  0
  127.6512  125.2664   60.4248 H   0  0  0  0  0  0  0  0  0  0  0  0
  126.2647  124.8398   61.5014 H   0  0  0  0  0  0  0  0  0  0  0  0
  130.7405  126.8156   66.7129 H   0  0  0  0  0  0  0  0  0  0  0  0
  131.0826  126.6045   69.2327 H   0  0  0  0  0  0  0  0  0  0  0  0
  130.6717  128.2679   68.5652 H   0  0  0  0  0  0  0  0  0  0  0  0
  128.8931  126.4097   70.1787 H   0  0  0  0  0  0  0  0  0  0  0  0
  129.5043  128.0583   70.6077 H   0  0  0  0  0  0  0  0  0  0  0  0
  127.0990  128.0227   69.8582 H   0  0  0  0  0  0  0  0  0  0  0  0
  128.1856  129.0727   68.8585 H   0  0  0  0  0  0  0  0  0  0  0  0
  127.2487  126.2448   68.1198 H   0  0  0  0  0  0  0  0  0  0  0  0
  126.6328  127.7608   67.4092 H   0  0  0  0  0  0  0  0  0  0  0  0
  126.1830  130.5320   64.7300 H   0  0  0  0  0  0  0  0  0  0  0  0
  127.6940  129.9936   61.6007 H   0  0  0  0  0  0  0  0  0  0  0  0
  130.6450  130.4263   62.3127 H   0  0  0  0  0  0  0  0  0  0  0  0
  131.7970  131.6187   61.1023 H   0  0  0  0  0  0  0  0  0  0  0  0
  131.5565  130.6523   59.6073 H   0  0  0  0  0  0  0  0  0  0  0  0
  131.1949  132.4118   59.6073 H   0  0  0  0  0  0  0  0  0  0  0  0
  129.9665  132.7259   62.8570 H   0  0  0  0  0  0  0  0  0  0  0  0
  128.2532  132.3371   62.4538 H   0  0  0  0  0  0  0  0  0  0  0  0
  129.9225  131.0786   64.7052 H   0  0  0  0  0  0  0  0  0  0  0  0
  128.6768  132.2469   66.2868 H   0  0  0  0  0  0  0  0  0  0  0  0
  129.1952  133.4565   65.0641 H   0  0  0  0  0  0  0  0  0  0  0  0
  127.5056  132.8469   65.0641 H   0  0  0  0  0  0  0  0  0  0  0  0
  1  2  1  0
  2  3  1  0
  3  4  1  0
  4  5  1  0
  5  6  1  0
  5  7  1  0
  7  8  1  0
  8  9  1  0
  8 10  2  0
 10 11  1  0
 11 12  1  0
 12 13  1  0
 13 14  1  0
 14 15  1  0
 15 16  1  0
 16 17  1  0
 17 18  1  0
 11 19  1  0
 19 20  2  0
 19 21  1  0
 21 22  1  0
 22 23  1  0
 22 24  1  0
 24 25  1  0
 24 26  1  0
 26 27  1  0
 27 28  1  0
 27 29  2  0
 29 30  1  0
 30 31  1  0
 31 32  1  0
 32 33  1  0
 33 34  1  0
 33 35  1  0
 35 36  1  0
 36 37  1  0
 35 38  1  0
 26 39  1  0
 39 40  1  0
 40 41  2  0
 40 42  1  0
 42 43  1  0
 43 44  1  0
 44 45  1  0
 45 46  1  0
 46 47  1  0
 47 48  1  0
 48 49  2  0
 48 50  1  0
 50 51  2  0
 50 52  1  0
 52 53  1  6
 52 54  1  0
 54 55  1  0
 55 56  1  0
 56 57  1  0
 57 58  1  0
 56 59  1  0
 59 60  1  0
 60 61  1  0
 55  3  1  0
 38 30  1  0
 47 42  1  0
 60 52  1  0
  1 62  1  0
  1 63  1  0
  1 64  1  0
  3 65  1  1
  4 66  1  0
  4 67  1  0
  5 68  1  1
  6 69  1  0
  6 70  1  0
  6 71  1  0
  7 72  1  0
  7 73  1  0
  9 74  1  0
  9 75  1  0
  9 76  1  0
 10 77  1  0
 11 78  1  1
 12 79  1  0
 12 80  1  0
 13 81  1  0
 13 82  1  0
 14 83  1  0
 14 84  1  0
 16 85  1  0
 16 86  1  0
 17 87  1  0
 17 88  1  0
 18 89  1  0
 21 90  1  0
 21 91  1  0
 22 92  1  6
 23 93  1  0
 24 94  1  1
 25 95  1  0
 25 96  1  0
 25 97  1  0
 26 98  1  6
 28 99  1  0
 28100  1  0
 28101  1  0
 29102  1  0
 30103  1  1
 31104  1  0
 31105  1  0
 32106  1  0
 32107  1  0
 33108  1  6
 34109  1  0
 35110  1  1
 37111  1  0
 37112  1  0
 37113  1  0
 38114  1  0
 38115  1  0
 42116  1  6
 43117  1  0
 43118  1  0
 44119  1  0
 44120  1  0
 45121  1  0
 45122  1  0
 46123  1  0
 46124  1  0
 53125  1  0
 55126  1  6
 56127  1  1
 58128  1  0
 58129  1  0
 58130  1  0
 59131  1  0
 59132  1  0
 60133  1  1
 61134  1  0
 61135  1  0
 61136  1  0
M  END
>  <Binding energies>  (1) 
[1.33]

>  <Ligand effiencies>  (1) 
[0.019850746268656717]

>  <Interactions>  (1) 
["V-A:ILE:369:CG2:3237, V-A:ASP:366:CA:3210, V-B:PRO:540:CA:9855, V-A:ILE:369:CB:3236, V-B:GLU:543:CB:9878, V-B:ALA:541:CB:9864, H-A:ARG:545:NH1:4927, V-B:TYR:539:CE2:9848, V-A:TYR:484:CE2:4346, H-B:TYR:539:N:9842, V-B:GLU:543:CG:9879, V-B:TYR:539:C:9839, V-A:ASP:366:CG:3213, V-B:TYR:484:CE2:9317, V-B:TYR:539:CZ:9849, V-A:ALA:541:CB:4892, V-A:GLU:543:CD:4908, V-A:TYR:484:CZ:4347, V-B:PRO:540:CB:9857, H-B:TYR:484:OH:9319, V-B:GLU:543:CA:9876, H-A:GLY:454:N:4050, V-B:HIS:456:CE1:9041, V-B:PRO:540:N:9856, V-B:TYR:484:CZ:9318, V-A:HIS:456:CE1:4070, V-B:TYR:539:CD2:9846, V-A:TYR:531:CZ:4794, V-A:GLU:543:CG:4907, V-A:MET:535:CE:4835, V-B:GLU:543:CD:9880, V-A:ASP:366:CB:3212, V-A:LEU:475:CD2:4259, H-A:ARG:545:NH2:4928, V-A:ARG:545:CZ:4926, V-B:TYR:539:CG:9844, V-A:GLU:543:CB:4906, H-A:ASP:366:OD1:3214, V-A:PRO:540:CB:4885, V-A:PRO:540:CA:4883, H-B:TYR:539:O:9840, H-A:ARG:545:NE:4924, H-A:TYR:484:OH:4348"]

$$$$
ZINC1772651354
     RDKit          3D

 63 66  0  0  0  0  0  0  0  0999 V2000
  129.1830  121.7110   60.5720 C   0  0  0  0  0  0  0  0  0  0  0  0
  130.5190  121.2330   60.6880 O   0  0  0  0  0  0  0  0  0  0  0  0
  131.3770  121.8230   61.6000 C   0  0  0  0  0  0  0  0  0  0  0  0
  130.9700  122.7590   62.5690 C   0  0  0  0  0  0  0  0  0  0  0  0
  131.8860  123.3220   63.4690 C   0  0  0  0  0  0  0  0  0  0  0  0
  131.4900  124.3140   64.4920 C   0  0  0  0  0  0  0  0  0  0  0  0
  130.2310  124.5860   64.8930 C   0  0  0  0  0  0  0  0  0  0  0  0
  129.9170  125.5700   65.9310 C   0  0  0  0  0  0  0  0  0  0  0  0
  130.2080  125.3920   67.1160 O   0  0  0  0  0  0  0  0  0  0  0  0
  129.2300  126.8040   65.4960 C   0  0  0  0  0  0  0  0  0  0  0  0
  129.2010  127.2040   64.1970 C   0  0  0  0  0  0  0  0  0  0  0  0
  129.8580  126.5100   63.0770 C   0  0  0  0  0  0  0  0  0  0  0  0
  130.8700  126.9870   62.3180 C   0  0  0  0  0  0  0  0  0  0  0  0
  131.5390  126.2850   61.2010 C   0  0  0  0  0  0  0  0  0  0  0  0
  132.6500  125.4530   61.3920 C   0  0  0  0  0  0  0  0  0  0  0  0
  133.2430  124.8070   60.3110 C   0  0  0  0  0  0  0  0  0  0  0  0
  132.7340  124.9780   59.0240 C   0  0  0  0  0  0  0  0  0  0  0  0
  133.3410  124.3270   57.9790 O   0  0  0  0  0  0  0  0  0  0  0  0
  131.6230  125.8010   58.8030 C   0  0  0  0  0  0  0  0  0  0  0  0
  131.1650  125.9250   57.5020 O   0  0  0  0  0  0  0  0  0  0  0  0
  129.7740  125.7940   57.2340 C   0  0  0  0  0  0  0  0  0  0  0  0
  131.0360  126.4500   59.9050 C   0  0  0  0  0  0  0  0  0  0  0  0
  128.4830  128.3190   63.8560 N   0  0  0  0  0  0  0  0  0  0  0  0
  128.0000  129.2570   64.7070 C   0  0  0  0  0  0  0  0  0  0  0  0
  127.6910  130.3890   64.3420 O   0  0  0  0  0  0  0  0  0  0  0  0
  128.0070  128.8910   66.0170 N   0  0  0  0  0  0  0  0  0  0  0  0
  128.3460  127.5410   66.5350 C   0  0  2  0  0  0  0  0  0  0  0  0
  128.7750  127.5030   68.0090 C   0  0  0  0  0  0  0  0  0  0  0  0
  130.1250  127.7260   68.3140 C   0  0  0  0  0  0  0  0  0  0  0  0
  130.5760  127.6900   69.6320 C   0  0  0  0  0  0  0  0  0  0  0  0
  129.6790  127.4330   70.6650 C   0  0  0  0  0  0  0  0  0  0  0  0
  128.3330  127.2150   70.3800 C   0  0  0  0  0  0  0  0  0  0  0  0
  127.8730  127.2490   69.0610 C   0  0  0  0  0  0  0  0  0  0  0  0
  126.1860  126.9710   68.7880 Cl  0  0  0  0  0  0  0  0  0  0  0  0
  133.2270  122.9360   63.3930 C   0  0  0  0  0  0  0  0  0  0  0  0
  133.6470  122.0110   62.4390 C   0  0  0  0  0  0  0  0  0  0  0  0
  132.7290  121.4570   61.5480 C   0  0  0  0  0  0  0  0  0  0  0  0
  133.1720  120.5480   60.6200 O   0  0  0  0  0  0  0  0  0  0  0  0
  128.7594  121.8626   61.5758 H   0  0  0  0  0  0  0  0  0  0  0  0
  129.1813  122.6655   60.0253 H   0  0  0  0  0  0  0  0  0  0  0  0
  128.5761  120.9742   60.0253 H   0  0  0  0  0  0  0  0  0  0  0  0
  129.9118  123.0549   62.6214 H   0  0  0  0  0  0  0  0  0  0  0  0
  132.2992  124.8843   64.9716 H   0  0  0  0  0  0  0  0  0  0  0  0
  129.4009  124.0428   64.4177 H   0  0  0  0  0  0  0  0  0  0  0  0
  129.4886  125.5029   62.8335 H   0  0  0  0  0  0  0  0  0  0  0  0
  131.2321  127.9983   62.5548 H   0  0  0  0  0  0  0  0  0  0  0  0
  133.0567  125.3092   62.4039 H   0  0  0  0  0  0  0  0  0  0  0  0
  134.1169  124.1588   60.4726 H   0  0  0  0  0  0  0  0  0  0  0  0
  133.9710  124.8760   57.5090 H   0  0  0  0  0  0  0  0  0  0  0  0
  129.2210  125.7419   58.1834 H   0  0  0  0  0  0  0  0  0  0  0  0
  129.4285  126.6636   56.6557 H   0  0  0  0  0  0  0  0  0  0  0  0
  129.5969  124.8752   56.6557 H   0  0  0  0  0  0  0  0  0  0  0  0
  130.1636  127.1006   59.7448 H   0  0  0  0  0  0  0  0  0  0  0  0
  128.3430  128.5280   62.8790 H   0  0  0  0  0  0  0  0  0  0  0  0
  127.5410  129.5180   66.6550 H   0  0  0  0  0  0  0  0  0  0  0  0
  127.4301  126.9381   66.6220 H   0  0  0  0  0  0  0  0  0  0  0  0
  130.8379  127.9322   67.5020 H   0  0  0  0  0  0  0  0  0  0  0  0
  131.6388  127.8643   69.8557 H   0  0  0  0  0  0  0  0  0  0  0  0
  130.0330  127.4021   71.7060 H   0  0  0  0  0  0  0  0  0  0  0  0
  127.6270  127.0146   71.1994 H   0  0  0  0  0  0  0  0  0  0  0  0
  133.9582  123.3665   64.0930 H   0  0  0  0  0  0  0  0  0  0  0  0
  134.7058  121.7172   62.3889 H   0  0  0  0  0  0  0  0  0  0  0  0
  132.4740  120.2290   60.0440 H   0  0  0  0  0  0  0  0  0  0  0  0
  1  2  1  0
  2  3  1  0
  3  4  2  0
  4  5  1  0
  5  6  1  0
  6  7  2  0
  7  8  1  0
  8  9  2  0
  8 10  1  0
 10 11  2  0
 11 12  1  0
 12 13  2  0
 13 14  1  0
 14 15  2  0
 15 16  1  0
 16 17  2  0
 17 18  1  0
 17 19  1  0
 19 20  1  0
 20 21  1  0
 19 22  2  0
 11 23  1  0
 23 24  1  0
 24 25  2  0
 24 26  1  0
 26 27  1  0
 27 28  1  0
 28 29  2  0
 29 30  1  0
 30 31  2  0
 31 32  1  0
 32 33  2  0
 33 34  1  0
  5 35  2  0
 35 36  1  0
 36 37  2  0
 37 38  1  0
 37  3  1  0
 27 10  1  0
 33 28  1  0
 22 14  1  0
  1 39  1  0
  1 40  1  0
  1 41  1  0
  4 42  1  0
  6 43  1  0
  7 44  1  0
 12 45  1  0
 13 46  1  0
 15 47  1  0
 16 48  1  0
 18 49  1  0
 21 50  1  0
 21 51  1  0
 21 52  1  0
 22 53  1  0
 23 54  1  0
 26 55  1  0
 27 56  1  1
 29 57  1  0
 30 58  1  0
 31 59  1  0
 32 60  1  0
 35 61  1  0
 36 62  1  0
 38 63  1  0
M  END
>  <Binding energies>  (1) 
[-7.82]

>  <Ligand effiencies>  (1) 
[-0.18619047619047618]

>  <Interactions>  (1) 
["V-A:ASP:366:CA:3210, V-B:PRO:540:CA:9855, V-A:GLY:454:CA:4049, V-B:GLU:543:C:9874, V-A:GLU:543:C:4902, V-B:GLU:543:CB:9878, H-A:TYR:531:OH:4795, V-B:TYR:539:CE2:9848, V-B:GLU:543:CG:9879, V-B:TYR:539:C:9839, V-A:ASP:366:CG:3213, V-B:TYR:539:CZ:9849, H-B:TYR:539:OH:9850, V-B:ARG:545:CG:9894, V-A:GLU:543:CD:4908, H-B:TYR:484:OH:9319, V-B:HIS:456:CE1:9041, V-B:GLU:543:CA:9876, V-A:HIS:456:CE1:4070, V-B:GLY:544:C:9884, V-B:TYR:539:CD2:9846, V-A:GLU:543:CG:4907, H-A:SER:385:OG:3410, V-B:GLU:543:CD:9880, V-A:ASP:366:CB:3212, V-A:LEU:475:CD2:4259, H-A:GLU:543:OE1:4909, H-A:ASP:366:O:3209, V-A:GLU:543:CB:4906, H-B:GLU:543:OE2:9882, V-B:ARG:545:CA:9891, H-A:TYR:484:OH:4348"]

$$$$
ZINC1772655005
     RDKit          3D

137142  0  0  0  0  0  0  0  0999 V2000
  130.8180  125.2630   57.4510 C   0  0  0  0  0  0  0  0  0  0  0  0
  131.7770  125.9070   58.4630 C   0  0  0  0  0  0  0  0  0  0  0  0
  131.4080  125.6620   59.9540 C   0  0  1  0  0  0  0  0  0  0  0  0
  129.9160  125.3320   60.2070 C   0  0  0  0  0  0  0  0  0  0  0  0
  129.5500  124.1590   60.2780 O   0  0  0  0  0  0  0  0  0  0  0  0
  128.8870  126.4790   60.2800 C   0  0  1  0  0  0  0  0  0  0  0  0
  127.4470  125.9290   60.2100 C   0  0  0  0  0  0  0  0  0  0  0  0
  129.1810  127.4750   61.4520 C   0  0  1  0  0  0  0  0  0  0  0  0
  130.5810  127.5700   61.6390 O   0  0  0  0  0  0  0  0  0  0  0  0
  128.5340  128.9050   61.3840 C   0  0  2  0  0  0  0  0  0  0  0  0
  126.9870  128.8750   61.5000 C   0  0  0  0  0  0  0  0  0  0  0  0
  129.0440  129.6850   60.1140 C   0  0  2  0  0  0  0  0  0  0  0  0
  128.1620  130.7660   59.7750 O   0  0  0  0  0  0  0  0  0  0  0  0
  126.8710  130.4450   59.2160 C   0  0  1  0  0  0  0  0  0  0  0  0
  126.0750  131.7170   58.8060 C   0  0  1  0  0  0  0  0  0  0  0  0
  126.2340  132.8650   59.8370 C   0  0  0  0  0  0  0  0  0  0  0  0
  126.0030  132.4620   61.3040 C   0  0  0  0  0  0  0  0  0  0  0  0
  126.3920  132.2010   57.3740 C   0  0  0  0  0  0  0  0  0  0  0  0
  125.7150  131.8270   56.4090 O   0  0  0  0  0  0  0  0  0  0  0  0
  127.4510  133.0630   57.3640 O   0  0  0  0  0  0  0  0  0  0  0  0
  128.3780  132.7430   58.3600 N   0  0  0  0  0  0  0  0  0  0  0  0
  129.6830  132.6620   58.0420 C   0  0  0  0  0  0  0  0  0  0  0  0
  130.1210  132.9440   56.9230 O   0  0  0  0  0  0  0  0  0  0  0  0
  130.6170  132.2210   59.1470 C   0  0  0  0  0  0  0  0  0  0  0  0
  130.2140  132.3380   60.4850 C   0  0  0  0  0  0  0  0  0  0  0  0
  131.0630  131.9460   61.5170 C   0  0  0  0  0  0  0  0  0  0  0  0
  132.3240  131.4360   61.2200 C   0  0  0  0  0  0  0  0  0  0  0  0
  133.4830  130.9020   62.6320 Br  0  0  0  0  0  0  0  0  0  0  0  0
  132.7420  131.3160   59.8980 C   0  0  0  0  0  0  0  0  0  0  0  0
  131.8950  131.7070   58.8650 C   0  0  0  0  0  0  0  0  0  0  0  0
  126.9020  129.3310   58.1210 C   0  0  0  0  0  0  0  0  0  0  0  0
  127.9930  128.2660   58.3340 C   0  0  0  0  0  0  0  0  0  0  0  0
  129.3010  128.9380   58.7730 C   0  0  2  0  0  0  0  0  0  0  0  0
  130.5400  128.0210   58.7340 C   0  0  0  0  0  0  0  0  0  0  0  0
  132.3570  124.6890   60.7210 C   0  0  1  0  0  0  0  0  0  0  0  0
  131.8070  124.3980   62.0260 O   0  0  0  0  0  0  0  0  0  0  0  0
  132.6490  123.6800   62.9200 C   0  0  1  0  0  0  0  0  0  0  0  0
  133.8620  124.5370   63.2810 C   0  0  0  0  0  0  0  0  0  0  0  0
  133.9610  125.1500   64.4650 C   0  0  0  0  0  0  0  0  0  0  0  0
  132.9060  125.0290   65.5370 C   0  0  1  0  0  0  0  0  0  0  0  0
  132.6570  126.2930   66.1250 O   0  0  0  0  0  0  0  0  0  0  0  0
  131.6020  124.3660   65.0120 C   0  0  1  0  0  0  0  0  0  0  0  0
  130.8170  123.7800   66.1870 C   0  0  0  0  0  0  0  0  0  0  0  0
  129.4090  123.7890   65.6340 C   0  0  0  0  0  0  0  0  0  0  0  0
  129.3460  125.0220   64.7280 C   0  0  1  0  0  0  0  0  0  0  0  0
  128.6420  124.7060   63.3920 C   0  0  0  0  0  0  0  0  0  0  0  0
  128.8050  126.3000   65.4230 C   0  0  1  0  0  0  0  0  0  0  0  0
  129.2420  126.5510   66.8940 C   0  0  0  0  0  0  0  0  0  0  0  0
  129.2850  128.0350   67.2920 C   0  0  0  0  0  0  0  0  0  0  0  0
  128.2090  128.8750   66.5690 C   0  0  2  0  0  0  0  0  0  0  0  0
  128.3690  130.2200   66.9930 O   0  0  0  0  0  0  0  0  0  0  0  0
  126.7330  128.4760   66.8880 C   0  0  0  0  0  0  0  0  0  0  0  0
  125.6490  129.1950   66.0630 C   0  0  0  0  0  0  0  0  0  0  0  0
  128.5350  128.7640   65.0470 C   0  0  2  0  0  0  0  0  0  0  0  0
  127.6400  129.5640   64.0850 C   0  0  0  0  0  0  0  0  0  0  0  0
  128.6830  127.4290   64.5440 O   0  0  0  0  0  0  0  0  0  0  0  0
  130.7210  125.2940   64.4370 O   0  0  0  0  0  0  0  0  0  0  0  0
  131.9210  123.3400   64.0940 O   0  0  0  0  0  0  0  0  0  0  0  0
  133.0350  122.3170   62.2830 C   0  0  2  0  0  0  0  0  0  0  0  0
  133.9850  121.4590   63.1470 C   0  0  0  0  0  0  0  0  0  0  0  0
  133.5920  122.5210   60.8600 C   0  0  0  0  0  0  0  0  0  0  0  0
  132.6180  123.3390   59.9960 C   0  0  2  0  0  0  0  0  0  0  0  0
  133.1840  123.4990   58.5690 C   0  0  0  0  0  0  0  0  0  0  0  0
  130.0217  124.7283   57.9895 H   0  0  0  0  0  0  0  0  0  0  0  0
  130.3720  126.0454   56.8193 H   0  0  0  0  0  0  0  0  0  0  0  0
  131.3734  124.5541   56.8193 H   0  0  0  0  0  0  0  0  0  0  0  0
  132.7839  125.5002   58.2878 H   0  0  0  0  0  0  0  0  0  0  0  0
  131.7154  126.9934   58.3019 H   0  0  0  0  0  0  0  0  0  0  0  0
  131.5803  126.6537   60.3977 H   0  0  0  0  0  0  0  0  0  0  0  0
  128.9939  127.1113   59.3862 H   0  0  0  0  0  0  0  0  0  0  0  0
  127.0609  125.7815   61.2294 H   0  0  0  0  0  0  0  0  0  0  0  0
  126.8063  126.6457   59.6754 H   0  0  0  0  0  0  0  0  0  0  0  0
  127.4473  124.9677   59.6754 H   0  0  0  0  0  0  0  0  0  0  0  0
  128.6702  127.0273   62.3173 H   0  0  0  0  0  0  0  0  0  0  0  0
  130.7510  128.1680   62.3710 H   0  0  0  0  0  0  0  0  0  0  0  0
  128.8704  129.4640   62.2696 H   0  0  0  0  0  0  0  0  0  0  0  0
  126.6990  128.8694   62.5616 H   0  0  0  0  0  0  0  0  0  0  0  0
  126.5653  129.7651   61.0103 H   0  0  0  0  0  0  0  0  0  0  0  0
  126.6001  127.9692   61.0103 H   0  0  0  0  0  0  0  0  0  0  0  0
  130.0379  129.9707   60.4888 H   0  0  0  0  0  0  0  0  0  0  0  0
  126.3001  129.9813   60.0339 H   0  0  0  0  0  0  0  0  0  0  0  0
  125.0179  131.4129   58.8046 H   0  0  0  0  0  0  0  0  0  0  0  0
  127.2561  133.2622   59.7497 H   0  0  0  0  0  0  0  0  0  0  0  0
  125.4548  133.6031   59.5959 H   0  0  0  0  0  0  0  0  0  0  0  0
  126.4396  133.2238   61.9666 H   0  0  0  0  0  0  0  0  0  0  0  0
  124.9229  132.3837   61.4970 H   0  0  0  0  0  0  0  0  0  0  0  0
  126.4813  131.4904   61.4970 H   0  0  0  0  0  0  0  0  0  0  0  0
  127.9470  132.5310   59.2470 H   0  0  0  0  0  0  0  0  0  0  0  0
  129.2189  132.7428   60.7214 H   0  0  0  0  0  0  0  0  0  0  0  0
  130.7382  132.0391   62.5638 H   0  0  0  0  0  0  0  0  0  0  0  0
  133.7398  130.9130   59.6699 H   0  0  0  0  0  0  0  0  0  0  0  0
  132.2278  131.6132   57.8207 H   0  0  0  0  0  0  0  0  0  0  0  0
  125.9244  128.8267   58.1144 H   0  0  0  0  0  0  0  0  0  0  0  0
  127.1305  129.8310   57.1682 H   0  0  0  0  0  0  0  0  0  0  0  0
  127.6666  127.5602   59.1120 H   0  0  0  0  0  0  0  0  0  0  0  0
  128.1620  127.7272   57.3900 H   0  0  0  0  0  0  0  0  0  0  0  0
  129.5920  129.6897   58.0245 H   0  0  0  0  0  0  0  0  0  0  0  0
  130.8557  127.7873   59.7615 H   0  0  0  0  0  0  0  0  0  0  0  0
  130.2898  127.0888   58.2063 H   0  0  0  0  0  0  0  0  0  0  0  0
  131.3584  128.5327   58.2063 H   0  0  0  0  0  0  0  0  0  0  0  0
  133.3216  125.2136   60.7859 H   0  0  0  0  0  0  0  0  0  0  0  0
  134.6741  124.6523   62.5481 H   0  0  0  0  0  0  0  0  0  0  0  0
  134.8484  125.7682   64.6660 H   0  0  0  0  0  0  0  0  0  0  0  0
  133.2945  124.3567   66.3162 H   0  0  0  0  0  0  0  0  0  0  0  0
  131.7230  126.3450   66.3420 H   0  0  0  0  0  0  0  0  0  0  0  0
  131.1500  122.7590   66.4250 H   0  0  0  0  0  0  0  0  0  0  0  0
  130.9351  124.3342   67.1298 H   0  0  0  0  0  0  0  0  0  0  0  0
  129.2152  122.8738   65.0553 H   0  0  0  0  0  0  0  0  0  0  0  0
  128.6524  123.8237   66.4317 H   0  0  0  0  0  0  0  0  0  0  0  0
  127.6554  124.2631   63.5932 H   0  0  0  0  0  0  0  0  0  0  0  0
  128.5165  125.6342   62.8151 H   0  0  0  0  0  0  0  0  0  0  0  0
  129.2521  123.9954   62.8151 H   0  0  0  0  0  0  0  0  0  0  0  0
  127.7541  126.0603   65.6427 H   0  0  0  0  0  0  0  0  0  0  0  0
  128.5321  126.0359   67.5578 H   0  0  0  0  0  0  0  0  0  0  0  0
  130.2685  126.1674   66.9895 H   0  0  0  0  0  0  0  0  0  0  0  0
  129.1231  128.1136   68.3772 H   0  0  0  0  0  0  0  0  0  0  0  0
  130.2689  128.4303   66.9991 H   0  0  0  0  0  0  0  0  0  0  0  0
  129.2910  130.3570   67.2260 H   0  0  0  0  0  0  0  0  0  0  0  0
  126.6301  127.3953   66.7108 H   0  0  0  0  0  0  0  0  0  0  0  0
  126.5618  128.7776   67.9319 H   0  0  0  0  0  0  0  0  0  0  0  0
  124.9281  129.6732   66.7424 H   0  0  0  0  0  0  0  0  0  0  0  0
  126.1189  129.9611   65.4287 H   0  0  0  0  0  0  0  0  0  0  0  0
  125.1260  128.4642   65.4287 H   0  0  0  0  0  0  0  0  0  0  0  0
  129.5212  129.2512   65.0480 H   0  0  0  0  0  0  0  0  0  0  0  0
  126.9431  130.1869   64.6650 H   0  0  0  0  0  0  0  0  0  0  0  0
  128.2670  130.2082   63.4511 H   0  0  0  0  0  0  0  0  0  0  0  0
  127.0699  128.8689   63.4511 H   0  0  0  0  0  0  0  0  0  0  0  0
  132.1032  121.7355   62.2234 H   0  0  0  0  0  0  0  0  0  0  0  0
  133.7800  121.6442   64.2117 H   0  0  0  0  0  0  0  0  0  0  0  0
  133.8238  120.3943   62.9223 H   0  0  0  0  0  0  0  0  0  0  0  0
  135.0278  121.7274   62.9223 H   0  0  0  0  0  0  0  0  0  0  0  0
  134.5516  123.0550   60.9230 H   0  0  0  0  0  0  0  0  0  0  0  0
  133.7284  121.5342   60.3935 H   0  0  0  0  0  0  0  0  0  0  0  0
  131.6515  122.8278   59.8755 H   0  0  0  0  0  0  0  0  0  0  0  0
  134.2411  123.7978   58.6252 H   0  0  0  0  0  0  0  0  0  0  0  0
  133.1014  122.5423   58.0324 H   0  0  0  0  0  0  0  0  0  0  0  0
  132.6128  124.2709   58.0324 H   0  0  0  0  0  0  0  0  0  0  0  0
  1  2  1  0
  2  3  1  0
  3  4  1  0
  4  5  2  0
  4  6  1  0
  6  7  1  0
  6  8  1  0
  8  9  1  0
  8 10  1  0
 10 11  1  0
 10 12  1  0
 12 13  1  0
 13 14  1  0
 14 15  1  0
 15 16  1  0
 16 17  1  0
 15 18  1  0
 18 19  2  0
 18 20  1  0
 20 21  1  0
 21 22  1  0
 22 23  2  0
 22 24  1  0
 24 25  2  0
 25 26  1  0
 26 27  2  0
 27 28  1  0
 27 29  1  0
 29 30  2  0
 14 31  1  0
 31 32  1  0
 32 33  1  0
 33 34  1  0
  3 35  1  0
 35 36  1  0
 37 36  1  6
 37 38  1  0
 38 39  2  0
 39 40  1  0
 40 41  1  0
 40 42  1  0
 42 43  1  0
 43 44  1  0
 44 45  1  0
 45 46  1  6
 45 47  1  0
 47 48  1  0
 48 49  1  0
 49 50  1  0
 50 51  1  1
 50 52  1  0
 52 53  1  0
 50 54  1  0
 54 55  1  0
 54 56  1  0
 45 57  1  0
 42 58  1  6
 37 59  1  0
 59 60  1  0
 59 61  1  0
 61 62  1  0
 62 63  1  0
 33 12  1  0
 62 35  1  0
 30 24  1  0
 58 37  1  0
 57 42  1  0
 56 47  1  0
  1 64  1  0
  1 65  1  0
  1 66  1  0
  2 67  1  0
  2 68  1  0
  3 69  1  1
  6 70  1  6
  7 71  1  0
  7 72  1  0
  7 73  1  0
  8 74  1  1
  9 75  1  0
 10 76  1  1
 11 77  1  0
 11 78  1  0
 11 79  1  0
 12 80  1  1
 14 81  1  1
 15 82  1  6
 16 83  1  0
 16 84  1  0
 17 85  1  0
 17 86  1  0
 17 87  1  0
 21 88  1  0
 25 89  1  0
 26 90  1  0
 29 91  1  0
 30 92  1  0
 31 93  1  0
 31 94  1  0
 32 95  1  0
 32 96  1  0
 33 97  1  6
 34 98  1  0
 34 99  1  0
 34100  1  0
 35101  1  1
 38102  1  0
 39103  1  0
 40104  1  1
 41105  1  0
 43106  1  0
 43107  1  0
 44108  1  0
 44109  1  0
 46110  1  0
 46111  1  0
 46112  1  0
 47113  1  1
 48114  1  0
 48115  1  0
 49116  1  0
 49117  1  0
 51118  1  0
 52119  1  0
 52120  1  0
 53121  1  0
 53122  1  0
 53123  1  0
 54124  1  1
 55125  1  0
 55126  1  0
 55127  1  0
 59128  1  6
 60129  1  0
 60130  1  0
 60131  1  0
 61132  1  0
 61133  1  0
 62134  1  6
 63135  1  0
 63136  1  0
 63137  1  0
M  END
>  <Binding energies>  (1) 
[1.39]

>  <Ligand effiencies>  (1) 
[0.020746268656716416]

>  <Interactions>  (1) 
["V-A:ILE:369:CG2:3237, V-A:GLY:454:CA:4049, H-A:GLU:543:OE2:4910, V-A:ILE:369:CB:3236, V-B:GLU:543:CB:9878, V-A:PRO:540:C:4881, V-B:TYR:539:CE2:9848, V-A:TYR:484:CE2:4346, V-B:GLU:543:CG:9879, V-A:TYR:539:CE2:4876, V-A:ASP:366:CG:3213, V-A:ASN:362:CB:3176, V-A:TYR:539:CD1:4873, V-B:TYR:539:CZ:9849, V-A:TYR:539:CZ:4877, V-A:TYR:484:CZ:4347, V-A:GLU:543:CD:4908, H-B:TYR:484:OH:9319, V-A:ASN:362:CG:3177, V-B:GLU:543:CA:9876, V-B:HIS:456:CE1:9041, V-A:SER:385:C:3405, V-A:GLY:453:C:4042, V-A:ILE:369:CD1:3239, V-B:TYR:484:CZ:9318, V-A:GLU:543:CG:4907, V-A:SER:385:CB:3409, V-B:GLU:543:CD:9880, V-A:TYR:539:C:4867, V-A:ASP:366:CB:3212, V-A:ARG:545:CD:4923, V-A:LEU:475:CD2:4259, H-A:ARG:545:NH2:4928, V-A:ARG:545:CZ:4926, H-A:GLU:543:OE1:4909, V-A:ASN:362:C:3172, V-A:GLU:543:CB:4906, V-A:PRO:540:N:4884, H-A:TYR:539:N:4870, V-A:GLY:453:CA:4044, V-A:PRO:540:CA:4883, V-A:PRO:540:CB:4885, H-A:ARG:545:NE:4924, H-A:TYR:539:OH:4878, H-A:ASP:366:OD2:3215, V-A:TYR:539:CE1:4875, H-A:TYR:484:OH:4348"]

$$$$
ZINC1772704908
     RDKit          3D

 79 83  0  0  0  0  0  0  0  0999 V2000
  132.1610  125.7180   58.5290 C   0  0  0  0  0  0  0  0  0  0  0  0
  133.3600  124.9400   59.1060 C   0  0  0  0  0  0  0  0  0  0  0  0
  133.8870  123.9180   58.0810 C   0  0  0  0  0  0  0  0  0  0  0  0
  133.0430  124.2550   60.4560 C   0  0  0  0  0  0  0  0  0  0  0  0
  134.2800  123.8920   61.3050 C   0  0  0  0  0  0  0  0  0  0  0  0
  134.1340  122.5220   62.0040 C   0  0  0  0  0  0  0  0  0  0  0  0
  133.2750  121.4910   61.2390 C   0  0  0  0  0  0  0  0  0  0  0  0
  133.8220  120.6580   60.5130 O   0  0  0  0  0  0  0  0  0  0  0  0
  131.9290  121.5510   61.3750 N   0  0  0  0  0  0  0  0  0  0  0  0
  131.2120  122.6090   62.0960 C   0  0  0  0  0  0  0  0  0  0  0  0
  129.8610  121.9700   62.4360 C   0  0  2  0  0  0  0  0  0  0  0  0
  129.8320  121.3650   63.7750 N   0  0  0  0  0  0  0  0  0  0  0  0
  129.4030  121.9990   64.8870 C   0  0  0  0  0  0  0  0  0  0  0  0
  128.8510  121.3940   65.8040 O   0  0  0  0  0  0  0  0  0  0  0  0
  129.6560  123.4810   64.9960 C   0  0  0  0  0  0  0  0  0  0  0  0
  129.8140  124.2580   63.8440 C   0  0  0  0  0  0  0  0  0  0  0  0
  130.0910  125.6250   63.9290 C   0  0  0  0  0  0  0  0  0  0  0  0
  130.1620  126.2200   65.1990 C   0  0  0  0  0  0  0  0  0  0  0  0
  130.0030  125.4680   66.3630 C   0  0  0  0  0  0  0  0  0  0  0  0
  130.1150  126.1480   67.5610 O   0  0  0  0  0  0  0  0  0  0  0  0
  128.9880  126.8520   68.0720 C   0  0  0  0  0  0  0  0  0  0  0  0
  129.4960  127.9570   69.0080 C   0  0  0  0  0  0  0  0  0  0  0  0
  129.6900  127.6700   70.4750 C   0  0  0  0  0  0  0  0  0  0  0  0
  130.8930  127.8890   69.5710 C   0  0  0  0  0  0  0  0  0  0  0  0
  129.7510  124.0930   66.2520 C   0  0  0  0  0  0  0  0  0  0  0  0
  130.2860  126.2950   62.7340 O   0  0  0  0  0  0  0  0  0  0  0  0
  129.6110  127.5290   62.4550 C   0  0  0  0  0  0  0  0  0  0  0  0
  128.1730  127.5850   63.0240 C   0  0  0  0  0  0  0  0  0  0  0  0
  128.0220  127.9120   64.1990 O   0  0  0  0  0  0  0  0  0  0  0  0
  127.0990  127.2590   62.2790 N   0  0  0  0  0  0  0  0  0  0  0  0
  127.0540  126.8180   60.8840 C   0  0  0  0  0  0  0  0  0  0  0  0
  127.5570  125.3930   60.6580 C   0  0  0  0  0  0  0  0  0  0  0  0
  126.6780  124.3220   60.8300 C   0  0  0  0  0  0  0  0  0  0  0  0
  127.1270  123.0160   60.6670 C   0  0  0  0  0  0  0  0  0  0  0  0
  128.4670  122.7660   60.3370 C   0  0  0  0  0  0  0  0  0  0  0  0
  129.3360  123.8380   60.1360 C   0  0  0  0  0  0  0  0  0  0  0  0
  128.8870  125.1460   60.3050 C   0  0  0  0  0  0  0  0  0  0  0  0
  128.9700  121.4870   60.1990 O   0  0  0  0  0  0  0  0  0  0  0  0
  129.6320  120.9220   61.3380 C   0  0  1  0  0  0  0  0  0  0  0  0
  131.0400  120.4670   60.9470 C   0  0  0  0  0  0  0  0  0  0  0  0
  131.5501  126.1144   59.3534 H   0  0  0  0  0  0  0  0  0  0  0  0
  132.5275  126.5508   57.9109 H   0  0  0  0  0  0  0  0  0  0  0  0
  131.5497  125.0440   57.9109 H   0  0  0  0  0  0  0  0  0  0  0  0
  134.1478  125.6797   59.3112 H   0  0  0  0  0  0  0  0  0  0  0  0
  134.3287  123.0614   58.6112 H   0  0  0  0  0  0  0  0  0  0  0  0
  133.0560  123.5698   57.4499 H   0  0  0  0  0  0  0  0  0  0  0  0
  134.6526  124.3930   57.4499 H   0  0  0  0  0  0  0  0  0  0  0  0
  132.4117  124.9363   61.0453 H   0  0  0  0  0  0  0  0  0  0  0  0
  132.5461  123.3046   60.2114 H   0  0  0  0  0  0  0  0  0  0  0  0
  135.1622  123.8613   60.6486 H   0  0  0  0  0  0  0  0  0  0  0  0
  134.3858  124.6578   62.0875 H   0  0  0  0  0  0  0  0  0  0  0  0
  135.1399  122.0973   62.1373 H   0  0  0  0  0  0  0  0  0  0  0  0
  133.6135  122.7137   62.9539 H   0  0  0  0  0  0  0  0  0  0  0  0
  131.7517  122.8945   63.0110 H   0  0  0  0  0  0  0  0  0  0  0  0
  131.1093  123.5314   61.5055 H   0  0  0  0  0  0  0  0  0  0  0  0
  129.0641  122.7277   62.4651 H   0  0  0  0  0  0  0  0  0  0  0  0
  129.8080  120.3560   63.7890 H   0  0  0  0  0  0  0  0  0  0  0  0
  129.7187  123.7855   62.8552 H   0  0  0  0  0  0  0  0  0  0  0  0
  130.3468  127.3015   65.2775 H   0  0  0  0  0  0  0  0  0  0  0  0
  128.4206  127.2987   67.2422 H   0  0  0  0  0  0  0  0  0  0  0  0
  128.3273  126.1642   68.6201 H   0  0  0  0  0  0  0  0  0  0  0  0
  128.9299  128.7039   68.4321 H   0  0  0  0  0  0  0  0  0  0  0  0
  129.4194  128.4278   71.2250 H   0  0  0  0  0  0  0  0  0  0  0  0
  129.3666  126.8751   71.1631 H   0  0  0  0  0  0  0  0  0  0  0  0
  131.4938  128.8055   69.6660 H   0  0  0  0  0  0  0  0  0  0  0  0
  131.8028  127.3187   69.3322 H   0  0  0  0  0  0  0  0  0  0  0  0
  129.6265  123.4880   67.1622 H   0  0  0  0  0  0  0  0  0  0  0  0
  130.1927  128.3520   62.8957 H   0  0  0  0  0  0  0  0  0  0  0  0
  129.5312  127.6155   61.3613 H   0  0  0  0  0  0  0  0  0  0  0  0
  126.1980  127.3370   62.7270 H   0  0  0  0  0  0  0  0  0  0  0  0
  126.0111  126.8740   60.5386 H   0  0  0  0  0  0  0  0  0  0  0  0
  127.7270  127.4822   60.3220 H   0  0  0  0  0  0  0  0  0  0  0  0
  125.6274  124.5118   61.0952 H   0  0  0  0  0  0  0  0  0  0  0  0
  126.4288  122.1761   60.7973 H   0  0  0  0  0  0  0  0  0  0  0  0
  130.3795  123.6502   59.8430 H   0  0  0  0  0  0  0  0  0  0  0  0
  129.5811  125.9870   60.1602 H   0  0  0  0  0  0  0  0  0  0  0  0
  128.9917  120.1001   61.6909 H   0  0  0  0  0  0  0  0  0  0  0  0
  131.2991  119.5301   61.4618 H   0  0  0  0  0  0  0  0  0  0  0  0
  131.1228  120.2703   59.8679 H   0  0  0  0  0  0  0  0  0  0  0  0
  1  2  1  0
  2  3  1  0
  2  4  1  0
  4  5  1  0
  5  6  1  0
  6  7  1  0
  7  8  2  0
  7  9  1  0
  9 10  1  0
 10 11  1  0
 11 12  1  0
 12 13  1  0
 13 14  2  0
 13 15  1  0
 15 16  1  0
 16 17  2  0
 17 18  1  0
 18 19  2  0
 19 20  1  0
 20 21  1  0
 21 22  1  0
 22 23  1  0
 23 24  1  0
 19 25  1  0
 17 26  1  0
 26 27  1  0
 27 28  1  0
 28 29  2  0
 28 30  1  0
 30 31  1  0
 31 32  1  0
 32 33  2  0
 33 34  1  0
 34 35  2  0
 35 36  1  0
 36 37  2  0
 35 38  1  0
 38 39  1  0
 39 40  1  0
 40  9  1  0
 39 11  1  0
 25 15  2  0
 37 32  1  0
 24 22  1  0
  1 41  1  0
  1 42  1  0
  1 43  1  0
  2 44  1  0
  3 45  1  0
  3 46  1  0
  3 47  1  0
  4 48  1  0
  4 49  1  0
  5 50  1  0
  5 51  1  0
  6 52  1  0
  6 53  1  0
 10 54  1  0
 10 55  1  0
 11 56  1  1
 12 57  1  0
 16 58  1  0
 18 59  1  0
 21 60  1  0
 21 61  1  0
 22 62  1  0
 23 63  1  0
 23 64  1  0
 24 65  1  0
 24 66  1  0
 25 67  1  0
 27 68  1  0
 27 69  1  0
 30 70  1  0
 31 71  1  0
 31 72  1  0
 33 73  1  0
 34 74  1  0
 36 75  1  0
 37 76  1  0
 39 77  1  1
 40 78  1  0
 40 79  1  0
M  END
>  <Binding energies>  (1) 
[-5.4]

>  <Ligand effiencies>  (1) 
[-0.12272727272727274]

>  <Interactions>  (1) 
["V-A:ILE:369:CG2:3237, V-A:ASP:366:CA:3210, V-B:PRO:540:CA:9855, V-A:GLY:454:CA:4049, V-A:ILE:369:CB:3236, V-A:GLU:543:C:4902, V-B:GLU:543:CB:9878, V-B:ALA:541:CB:9864, V-B:TYR:539:CE2:9848, V-A:TYR:484:CE2:4346, V-A:LEU:475:CG:4257, V-B:GLU:543:CG:9879, V-A:GLY:544:C:4912, V-A:ASP:366:CG:3213, V-B:TYR:539:CZ:9849, H-B:GLU:543:OE1:9881, V-A:LEU:475:CD1:4258, V-A:TYR:484:CZ:4347, V-A:GLU:543:CD:4908, V-B:PRO:540:CB:9857, H-B:ASP:366:OD1:8185, V-B:GLU:543:CA:9876, V-B:HIS:456:CE1:9041, V-A:ILE:369:CD1:3239, V-A:HIS:456:CE1:4070, V-A:ASP:366:C:3208, V-B:TYR:539:CD2:9846, H-A:SER:385:OG:3410, V-B:GLU:543:CD:9880, V-A:ASP:366:CB:3212, V-A:LEU:475:CD2:4259, V-A:GLU:543:CB:4906, H-B:GLU:543:OE2:9882, V-B:PRO:540:C:9853"]

$$$$
ZINC1772713311
     RDKit          3D

 98102  0  0  0  0  0  0  0  0999 V2000
  132.5890  131.2010   62.2400 C   0  0  0  0  0  0  0  0  0  0  0  0
  131.9190  132.2280   61.5240 O   0  0  0  0  0  0  0  0  0  0  0  0
  131.3800  131.7940   60.2840 C   0  0  0  0  0  0  0  0  0  0  0  0
  129.9790  132.4020   60.1220 C   0  0  0  0  0  0  0  0  0  0  0  0
  129.6670  132.6330   58.7160 N   0  0  0  0  0  0  0  0  0  0  0  0
  130.4830  133.2380   57.7920 C   0  0  0  0  0  0  0  0  0  0  0  0
  129.9590  133.3110   56.5960 N   0  0  0  0  0  0  0  0  0  0  0  0
  128.7750  132.7450   56.7270 C   0  0  0  0  0  0  0  0  0  0  0  0
  128.5140  132.3170   58.0260 C   0  0  0  0  0  0  0  0  0  0  0  0
  127.3090  131.6210   58.6380 C   0  0  0  0  0  0  0  0  0  0  0  0
  127.5380  130.0900   58.6530 N   0  0  1  0  0  0  0  0  0  0  0  0
  128.4260  129.7060   59.8460 C   0  0  0  0  0  0  0  0  0  0  0  0
  128.7870  128.2130   59.7700 C   0  0  0  0  0  0  0  0  0  0  0  0
  127.6700  127.1490   59.4170 C   0  0  1  0  0  0  0  0  0  0  0  0
  126.4840  127.8030   58.6230 C   0  0  0  0  0  0  0  0  0  0  0  0
  126.2150  129.3090   58.7590 C   0  0  0  0  0  0  0  0  0  0  0  0
  128.2840  126.2330   58.4840 O   0  0  0  0  0  0  0  0  0  0  0  0
  129.6310  125.8850   58.4850 C   0  0  0  0  0  0  0  0  0  0  0  0
  130.6720  126.6370   57.9150 C   0  0  0  0  0  0  0  0  0  0  0  0
  131.9920  126.2120   58.0290 C   0  0  0  0  0  0  0  0  0  0  0  0
  132.2930  125.0470   58.7290 C   0  0  0  0  0  0  0  0  0  0  0  0
  131.2630  124.2700   59.2630 C   0  0  0  0  0  0  0  0  0  0  0  0
  129.9420  124.6930   59.1410 C   0  0  0  0  0  0  0  0  0  0  0  0
  133.6110  124.6900   58.8960 O   0  0  0  0  0  0  0  0  0  0  0  0
  134.1480  124.9250   60.2010 C   0  0  0  0  0  0  0  0  0  0  0  0
  133.0460  124.9820   61.2760 C   0  0  0  0  0  0  0  0  0  0  0  0
  132.8250  123.7280   61.9990 N   0  0  0  0  0  0  0  0  0  0  0  0
  132.5880  123.5110   63.3070 C   0  0  0  0  0  0  0  0  0  0  0  0
  132.4200  122.3680   63.7160 O   0  0  0  0  0  0  0  0  0  0  0  0
  132.5230  124.7020   64.2930 C   0  0  2  0  0  0  0  0  0  0  0  0
  133.8900  125.0900   64.8860 C   0  0  0  0  0  0  0  0  0  0  0  0
  131.5190  124.6230   65.3670 N   0  0  0  0  0  0  0  0  0  0  0  0
  130.1780  124.4480   65.3920 C   0  0  0  0  0  0  0  0  0  0  0  0
  129.6200  124.2100   66.4640 O   0  0  0  0  0  0  0  0  0  0  0  0
  129.2710  124.6190   64.1470 C   0  0  2  0  0  0  0  0  0  0  0  0
  128.8090  123.1910   63.7430 C   0  0  0  0  0  0  0  0  0  0  0  0
  128.5560  122.8940   62.2760 C   0  0  0  0  0  0  0  0  0  0  0  0
  127.4610  123.4810   61.6070 C   0  0  0  0  0  0  0  0  0  0  0  0
  127.2260  123.1890   60.2710 C   0  0  0  0  0  0  0  0  0  0  0  0
  128.0920  122.3540   59.5740 C   0  0  0  0  0  0  0  0  0  0  0  0
  129.2070  121.8150   60.2040 C   0  0  0  0  0  0  0  0  0  0  0  0
  129.4500  122.0820   61.5440 C   0  0  0  0  0  0  0  0  0  0  0  0
  130.0830  125.1530   63.0450 N   0  0  0  0  0  0  0  0  0  0  0  0
  129.9820  126.2770   62.3060 C   0  0  0  0  0  0  0  0  0  0  0  0
  130.8200  126.5230   61.4410 O   0  0  0  0  0  0  0  0  0  0  0  0
  128.8350  127.2940   62.4800 C   0  0  2  0  0  0  0  0  0  0  0  0
  128.7830  127.8680   63.8990 C   0  0  0  0  0  0  0  0  0  0  0  0
  127.5550  126.7730   61.9820 N   0  0  0  0  0  0  0  0  0  0  0  0
  127.0780  126.5350   60.7370 C   0  0  0  0  0  0  0  0  0  0  0  0
  126.0990  125.7970   60.6420 O   0  0  0  0  0  0  0  0  0  0  0  0
  132.4763  131.3738   63.3205 H   0  0  0  0  0  0  0  0  0  0  0  0
  132.1527  130.2261   61.9771 H   0  0  0  0  0  0  0  0  0  0  0  0
  133.6571  131.2076   61.9771 H   0  0  0  0  0  0  0  0  0  0  0  0
  132.0275  132.1292   59.4603 H   0  0  0  0  0  0  0  0  0  0  0  0
  131.3189  130.6959   60.2633 H   0  0  0  0  0  0  0  0  0  0  0  0
  129.2359  131.7107   60.5462 H   0  0  0  0  0  0  0  0  0  0  0  0
  129.9536  133.3672   60.6490 H   0  0  0  0  0  0  0  0  0  0  0  0
  131.4836  133.6250   58.0350 H   0  0  0  0  0  0  0  0  0  0  0  0
  128.0659  132.6234   55.8949 H   0  0  0  0  0  0  0  0  0  0  0  0
  127.1652  131.9787   59.6682 H   0  0  0  0  0  0  0  0  0  0  0  0
  126.4154  131.8483   58.0381 H   0  0  0  0  0  0  0  0  0  0  0  0
  128.0110  129.8290   57.7980 H   0  0  0  0  0  0  0  0  0  0  0  0
  129.3478  130.3059   59.8227 H   0  0  0  0  0  0  0  0  0  0  0  0
  127.8802  129.8997   60.7812 H   0  0  0  0  0  0  0  0  0  0  0  0
  129.5731  128.1142   59.0069 H   0  0  0  0  0  0  0  0  0  0  0  0
  129.0571  127.9636   60.8068 H   0  0  0  0  0  0  0  0  0  0  0  0
  126.6680  127.6071   57.5564 H   0  0  0  0  0  0  0  0  0  0  0  0
  125.5913  127.3423   59.0712 H   0  0  0  0  0  0  0  0  0  0  0  0
  125.5356  129.6320   57.9564 H   0  0  0  0  0  0  0  0  0  0  0  0
  125.7550  129.5075   59.7383 H   0  0  0  0  0  0  0  0  0  0  0  0
  130.4420  127.5675   57.3753 H   0  0  0  0  0  0  0  0  0  0  0  0
  132.7993  126.7977   57.5651 H   0  0  0  0  0  0  0  0  0  0  0  0
  131.4945  123.3263   59.7786 H   0  0  0  0  0  0  0  0  0  0  0  0
  129.1338  124.0803   59.5668 H   0  0  0  0  0  0  0  0  0  0  0  0
  134.8454  124.1116   60.4500 H   0  0  0  0  0  0  0  0  0  0  0  0
  134.6607  125.8981   60.1876 H   0  0  0  0  0  0  0  0  0  0  0  0
  133.3227  125.7546   62.0085 H   0  0  0  0  0  0  0  0  0  0  0  0
  132.1080  125.2016   60.7451 H   0  0  0  0  0  0  0  0  0  0  0  0
  132.8460  122.9060   61.4120 H   0  0  0  0  0  0  0  0  0  0  0  0
  132.1755  125.5028   63.6237 H   0  0  0  0  0  0  0  0  0  0  0  0
  133.8313  125.0733   65.9843 H   0  0  0  0  0  0  0  0  0  0  0  0
  134.6529  124.3729   64.5487 H   0  0  0  0  0  0  0  0  0  0  0  0
  134.1624  126.1009   64.5487 H   0  0  0  0  0  0  0  0  0  0  0  0
  131.9580  124.5830   66.2760 H   0  0  0  0  0  0  0  0  0  0  0  0
  128.4242  125.2895   64.3551 H   0  0  0  0  0  0  0  0  0  0  0  0
  129.5849  122.4907   64.0859 H   0  0  0  0  0  0  0  0  0  0  0  0
  127.8187  123.0886   64.2107 H   0  0  0  0  0  0  0  0  0  0  0  0
  126.7935  124.1703   62.1448 H   0  0  0  0  0  0  0  0  0  0  0  0
  126.3514  123.6197   59.7615 H   0  0  0  0  0  0  0  0  0  0  0  0
  127.8934  122.1188   58.5180 H   0  0  0  0  0  0  0  0  0  0  0  0
  129.8996  121.1743   59.6385 H   0  0  0  0  0  0  0  0  0  0  0  0
  130.3392  121.6611   62.0361 H   0  0  0  0  0  0  0  0  0  0  0  0
  130.8760  124.5640   62.8360 H   0  0  0  0  0  0  0  0  0  0  0  0
  129.0542  128.1594   61.8372 H   0  0  0  0  0  0  0  0  0  0  0  0
  128.8572  127.0485   64.6290 H   0  0  0  0  0  0  0  0  0  0  0  0
  129.6217  128.5649   64.0436 H   0  0  0  0  0  0  0  0  0  0  0  0
  127.8327  128.4029   64.0436 H   0  0  0  0  0  0  0  0  0  0  0  0
  126.9990  126.3790   62.7280 H   0  0  0  0  0  0  0  0  0  0  0  0
  1  2  1  0
  2  3  1  0
  3  4  1  0
  4  5  1  0
  5  6  1  0
  6  7  2  0
  7  8  1  0
  8  9  2  0
  9 10  1  0
 10 11  1  0
 11 12  1  0
 12 13  1  0
 14 13  1  1
 14 15  1  0
 15 16  1  0
 14 17  1  0
 17 18  1  0
 18 19  2  0
 19 20  1  0
 20 21  2  0
 21 22  1  0
 22 23  2  0
 21 24  1  0
 24 25  1  0
 25 26  1  0
 26 27  1  0
 27 28  1  0
 28 29  2  0
 28 30  1  0
 30 31  1  0
 30 32  1  0
 32 33  1  0
 33 34  2  0
 33 35  1  0
 35 36  1  0
 36 37  1  0
 37 38  2  0
 38 39  1  0
 39 40  2  0
 40 41  1  0
 41 42  2  0
 35 43  1  0
 43 44  1  0
 44 45  2  0
 44 46  1  0
 46 47  1  0
 46 48  1  0
 48 49  1  0
 49 50  2  0
  9  5  1  0
 16 11  1  0
 23 18  1  0
 42 37  1  0
 49 14  1  0
  1 51  1  0
  1 52  1  0
  1 53  1  0
  3 54  1  0
  3 55  1  0
  4 56  1  0
  4 57  1  0
  6 58  1  0
  8 59  1  0
 10 60  1  0
 10 61  1  0
 11 62  1  6
 12 63  1  0
 12 64  1  0
 13 65  1  0
 13 66  1  0
 15 67  1  0
 15 68  1  0
 16 69  1  0
 16 70  1  0
 19 71  1  0
 20 72  1  0
 22 73  1  0
 23 74  1  0
 25 75  1  0
 25 76  1  0
 26 77  1  0
 26 78  1  0
 27 79  1  0
 30 80  1  6
 31 81  1  0
 31 82  1  0
 31 83  1  0
 32 84  1  0
 35 85  1  1
 36 86  1  0
 36 87  1  0
 38 88  1  0
 39 89  1  0
 40 90  1  0
 41 91  1  0
 42 92  1  0
 43 93  1  0
 46 94  1  6
 47 95  1  0
 47 96  1  0
 47 97  1  0
 48 98  1  0
M  CHG  1  11   1
M  END
>  <Binding energies>  (1) 
[-5.65]

>  <Ligand effiencies>  (1) 
[-0.09912280701754386]

>  <Interactions>  (1) 
["V-A:ASP:366:CA:3210, V-B:PRO:540:CA:9855, V-A:GLY:454:CA:4049, H-A:ALA:541:N:4891, V-B:ALA:541:CB:9864, V-B:TYR:539:CE2:9848, V-A:TYR:484:CE2:4346, V-B:GLU:543:CG:9879, V-B:TYR:539:C:9839, V-A:ASP:366:CG:3213, V-A:ASN:362:CB:3176, V-A:TYR:539:CD1:4873, V-B:TYR:539:CZ:9849, H-B:GLU:543:OE1:9881, V-A:TYR:539:CA:4869, V-A:GLU:543:CD:4908, V-A:TYR:484:CZ:4347, V-B:PRO:540:CB:9857, V-A:GLY:453:C:4042, V-B:PRO:540:N:9856, V-A:ILE:369:CD1:3239, V-B:TYR:539:CD2:9846, V-B:GLU:543:CD:9880, V-A:MET:535:CE:4835, V-A:TYR:539:C:4867, V-A:ASP:366:CB:3212, V-A:ARG:545:CD:4923, V-A:ARG:545:CZ:4926, H-B:ARG:545:NH2:9900, V-A:PRO:540:N:4884, H-A:TYR:539:N:4870, H-B:GLU:543:OE2:9882, V-A:PRO:540:CA:4883, V-A:PRO:540:CB:4885, V-A:GLY:453:CA:4044, V-B:PRO:540:C:9853, V-A:PRO:540:CD:4887, V-A:TYR:539:CE1:4875, H-A:TYR:484:OH:4348"]

$$$$
ZINC1772713839
     RDKit          3D

101104  0  0  0  0  0  0  0  0999 V2000
  133.6100  123.5030   59.0000 C   0  0  0  0  0  0  0  0  0  0  0  0
  133.5300  124.7880   58.1640 C   0  0  0  0  0  0  0  0  0  0  0  0
  132.4210  125.7450   58.6420 C   0  0  0  0  0  0  0  0  0  0  0  0
  131.3230  126.0030   57.5890 C   0  0  0  0  0  0  0  0  0  0  0  0
  130.3970  127.1530   57.9390 C   0  0  0  0  0  0  0  0  0  0  0  0
  130.7770  128.3570   58.2930 N   0  0  0  0  0  0  0  0  0  0  0  0
  129.6610  129.0470   58.4750 C   0  0  0  0  0  0  0  0  0  0  0  0
  129.7010  130.6990   58.9480 Cl  0  0  0  0  0  0  0  0  0  0  0  0
  128.5260  128.2820   58.2180 C   0  0  0  0  0  0  0  0  0  0  0  0
  127.0410  128.5850   58.2460 C   0  0  0  0  0  0  0  0  0  0  0  0
  126.5070  128.4720   59.6150 N   0  0  0  0  0  0  0  0  0  0  0  0
  126.4060  127.0690   60.0450 C   0  0  0  0  0  0  0  0  0  0  0  0
  126.0520  126.0830   58.9090 C   0  0  0  0  0  0  0  0  0  0  0  0
  126.3780  124.6060   59.2350 C   0  0  0  0  0  0  0  0  0  0  0  0
  127.7530  124.1420   58.7020 C   0  0  0  0  0  0  0  0  0  0  0  0
  128.2150  124.6340   57.6730 O   0  0  0  0  0  0  0  0  0  0  0  0
  128.4390  123.1900   59.3600 N   0  0  0  0  0  0  0  0  0  0  0  0
  128.0480  122.4990   60.5880 C   0  0  1  0  0  0  0  0  0  0  0  0
  129.1860  121.5390   60.9720 C   0  0  0  0  0  0  0  0  0  0  0  0
  127.7680  123.4900   61.7440 C   0  0  0  0  0  0  0  0  0  0  0  0
  126.8890  123.2070   62.5570 O   0  0  0  0  0  0  0  0  0  0  0  0
  128.4710  124.6370   61.8410 N   0  0  0  0  0  0  0  0  0  0  0  0
  129.5360  125.1230   60.9560 C   0  0  2  0  0  0  0  0  0  0  0  0
  130.5140  123.9560   60.6630 C   0  0  0  0  0  0  0  0  0  0  0  0
  131.7920  123.8770   61.4860 C   0  0  0  0  0  0  0  0  0  0  0  0
  132.6510  124.9930   61.5760 C   0  0  0  0  0  0  0  0  0  0  0  0
  133.7700  124.9440   62.3980 C   0  0  0  0  0  0  0  0  0  0  0  0
  134.0340  123.8070   63.1530 C   0  0  0  0  0  0  0  0  0  0  0  0
  133.1790  122.7140   63.0990 C   0  0  0  0  0  0  0  0  0  0  0  0
  132.0550  122.7420   62.2830 C   0  0  0  0  0  0  0  0  0  0  0  0
  130.2310  126.3550   61.5880 C   0  0  0  0  0  0  0  0  0  0  0  0
  130.6510  127.2430   60.8460 O   0  0  0  0  0  0  0  0  0  0  0  0
  130.3760  126.4440   62.9220 N   0  0  0  0  0  0  0  0  0  0  0  0
  129.8360  125.5750   63.9740 C   0  0  1  0  0  0  0  0  0  0  0  0
  130.9010  124.5510   64.4690 C   0  0  0  0  0  0  0  0  0  0  0  0
  130.3180  123.3000   65.1650 C   0  0  0  0  0  0  0  0  0  0  0  0
  131.9500  125.2260   65.3770 C   0  0  0  0  0  0  0  0  0  0  0  0
  129.2450  126.4180   65.1050 C   0  0  0  0  0  0  0  0  0  0  0  0
  129.4130  126.1980   66.3880 N   0  0  0  0  0  0  0  0  0  0  0  0
  128.7130  127.1670   66.9560 C   0  0  0  0  0  0  0  0  0  0  0  0
  128.6070  127.2970   68.4580 C   0  0  0  0  0  0  0  0  0  0  0  0
  128.0910  127.9950   66.1440 N   0  0  0  0  0  0  0  0  0  0  0  0
  128.4490  127.5280   64.9430 N   0  0  0  0  0  0  0  0  0  0  0  0
  127.9560  128.1800   63.7290 C   0  0  0  0  0  0  0  0  0  0  0  0
  127.9850  129.7180   63.7830 C   0  0  0  0  0  0  0  0  0  0  0  0
  128.5920  130.2920   64.6860 O   0  0  0  0  0  0  0  0  0  0  0  0
  127.3020  130.4380   62.8780 N   0  0  0  0  0  0  0  0  0  0  0  0
  126.5340  129.9750   61.7200 C   0  0  0  0  0  0  0  0  0  0  0  0
  127.3040  129.2180   60.6030 C   0  0  0  0  0  0  0  0  0  0  0  0
  129.0340  127.0530   57.8880 N   0  0  0  0  0  0  0  0  0  0  0  0
  133.5940  123.7598   60.0695 H   0  0  0  0  0  0  0  0  0  0  0  0
  132.7502  122.8584   58.7648 H   0  0  0  0  0  0  0  0  0  0  0  0
  134.5431  122.9700   58.7648 H   0  0  0  0  0  0  0  0  0  0  0  0
  134.4962  125.3098   58.2288 H   0  0  0  0  0  0  0  0  0  0  0  0
  133.2917  124.4958   57.1307 H   0  0  0  0  0  0  0  0  0  0  0  0
  131.9491  125.3100   59.5354 H   0  0  0  0  0  0  0  0  0  0  0  0
  132.9008  126.7132   58.8478 H   0  0  0  0  0  0  0  0  0  0  0  0
  131.8096  126.2295   56.6288 H   0  0  0  0  0  0  0  0  0  0  0  0
  130.7034  125.0953   57.5432 H   0  0  0  0  0  0  0  0  0  0  0  0
  126.8752  129.6083   57.8781 H   0  0  0  0  0  0  0  0  0  0  0  0
  126.5217  127.8574   57.6050 H   0  0  0  0  0  0  0  0  0  0  0  0
  127.3737  126.7688   60.4734 H   0  0  0  0  0  0  0  0  0  0  0  0
  125.5839  127.0199   60.7742 H   0  0  0  0  0  0  0  0  0  0  0  0
  124.9740  126.1626   58.7050 H   0  0  0  0  0  0  0  0  0  0  0  0
  126.6683  126.3615   58.0415 H   0  0  0  0  0  0  0  0  0  0  0  0
  126.3688  124.4812   60.3279 H   0  0  0  0  0  0  0  0  0  0  0  0
  125.6149  123.9903   58.7364 H   0  0  0  0  0  0  0  0  0  0  0  0
  129.3380  122.9160   58.9900 H   0  0  0  0  0  0  0  0  0  0  0  0
  127.1132  121.9469   60.4108 H   0  0  0  0  0  0  0  0  0  0  0  0
  129.2594  121.4771   62.0678 H   0  0  0  0  0  0  0  0  0  0  0  0
  128.9772  120.5401   60.5615 H   0  0  0  0  0  0  0  0  0  0  0  0
  130.1355  121.9131   60.5615 H   0  0  0  0  0  0  0  0  0  0  0  0
  128.2420  125.2630   62.6000 H   0  0  0  0  0  0  0  0  0  0  0  0
  129.1223  125.4606   59.9943 H   0  0  0  0  0  0  0  0  0  0  0  0
  129.9624  123.0178   60.8228 H   0  0  0  0  0  0  0  0  0  0  0  0
  130.8582  124.1350   59.6337 H   0  0  0  0  0  0  0  0  0  0  0  0
  132.4346  125.9018   60.9953 H   0  0  0  0  0  0  0  0  0  0  0  0
  134.4492  125.8076   62.4516 H   0  0  0  0  0  0  0  0  0  0  0  0
  134.9252  123.7729   63.7969 H   0  0  0  0  0  0  0  0  0  0  0  0
  133.3928  121.8215   63.7054 H   0  0  0  0  0  0  0  0  0  0  0  0
  131.3709  121.8809   62.2580 H   0  0  0  0  0  0  0  0  0  0  0  0
  130.7460  127.3210   63.2620 H   0  0  0  0  0  0  0  0  0  0  0  0
  129.0152  124.9750   63.5540 H   0  0  0  0  0  0  0  0  0  0  0  0
  131.3858  124.1877   63.5509 H   0  0  0  0  0  0  0  0  0  0  0  0
  130.3770  123.4265   66.2561 H   0  0  0  0  0  0  0  0  0  0  0  0
  129.2670  123.1710   64.8671 H   0  0  0  0  0  0  0  0  0  0  0  0
  130.8952  122.4122   64.8671 H   0  0  0  0  0  0  0  0  0  0  0  0
  131.6860  125.0561   66.4313 H   0  0  0  0  0  0  0  0  0  0  0  0
  132.9419  124.7963   65.1735 H   0  0  0  0  0  0  0  0  0  0  0  0
  131.9699  126.3068   65.1735 H   0  0  0  0  0  0  0  0  0  0  0  0
  129.2326  126.5297   68.9375 H   0  0  0  0  0  0  0  0  0  0  0  0
  128.9517  128.2955   68.7649 H   0  0  0  0  0  0  0  0  0  0  0  0
  127.5595  127.1604   68.7649 H   0  0  0  0  0  0  0  0  0  0  0  0
  128.5795  127.8526   62.8840 H   0  0  0  0  0  0  0  0  0  0  0  0
  126.9014  127.8873   63.6188 H   0  0  0  0  0  0  0  0  0  0  0  0
  127.3330  131.4420   62.9880 H   0  0  0  0  0  0  0  0  0  0  0  0
  125.7491  129.3009   62.0937 H   0  0  0  0  0  0  0  0  0  0  0  0
  126.1741  130.8955   61.2370 H   0  0  0  0  0  0  0  0  0  0  0  0
  127.9005  129.9604   60.0525 H   0  0  0  0  0  0  0  0  0  0  0  0
  127.8843  128.4489   61.1338 H   0  0  0  0  0  0  0  0  0  0  0  0
  128.5020  126.2350   57.6310 H   0  0  0  0  0  0  0  0  0  0  0  0
  1  2  1  0
  2  3  1  0
  3  4  1  0
  4  5  1  0
  5  6  2  0
  6  7  1  0
  7  8  1  0
  7  9  2  0
  9 10  1  0
 10 11  1  0
 11 12  1  0
 12 13  1  0
 13 14  1  0
 14 15  1  0
 15 16  2  0
 15 17  1  0
 17 18  1  0
 18 19  1  0
 18 20  1  0
 20 21  2  0
 20 22  1  0
 22 23  1  0
 23 24  1  0
 24 25  1  0
 25 26  2  0
 26 27  1  0
 27 28  2  0
 28 29  1  0
 29 30  2  0
 23 31  1  0
 31 32  2  0
 31 33  1  0
 33 34  1  0
 34 35  1  0
 35 36  1  0
 35 37  1  0
 34 38  1  0
 38 39  2  0
 39 40  1  0
 40 41  1  0
 40 42  2  0
 42 43  1  0
 43 44  1  0
 44 45  1  0
 45 46  2  0
 45 47  1  0
 47 48  1  0
 48 49  1  0
  9 50  1  0
 50  5  1  0
 49 11  1  0
 30 25  1  0
 43 38  1  0
  1 51  1  0
  1 52  1  0
  1 53  1  0
  2 54  1  0
  2 55  1  0
  3 56  1  0
  3 57  1  0
  4 58  1  0
  4 59  1  0
 10 60  1  0
 10 61  1  0
 12 62  1  0
 12 63  1  0
 13 64  1  0
 13 65  1  0
 14 66  1  0
 14 67  1  0
 17 68  1  0
 18 69  1  6
 19 70  1  0
 19 71  1  0
 19 72  1  0
 22 73  1  0
 23 74  1  6
 24 75  1  0
 24 76  1  0
 26 77  1  0
 27 78  1  0
 28 79  1  0
 29 80  1  0
 30 81  1  0
 33 82  1  0
 34 83  1  6
 35 84  1  0
 36 85  1  0
 36 86  1  0
 36 87  1  0
 37 88  1  0
 37 89  1  0
 37 90  1  0
 41 91  1  0
 41 92  1  0
 41 93  1  0
 44 94  1  0
 44 95  1  0
 47 96  1  0
 48 97  1  0
 48 98  1  0
 49 99  1  0
 49100  1  0
 50101  1  0
M  END
>  <Binding energies>  (1) 
[-4.12]

>  <Ligand effiencies>  (1) 
[-0.07228070175438597]

>  <Interactions>  (1) 
["V-A:ILE:369:CG2:3237, V-A:ASP:366:CA:3210, V-B:PRO:540:CA:9855, V-A:GLY:454:CA:4049, H-A:GLU:543:OE2:4910, V-A:ILE:369:CB:3236, V-B:GLU:543:CB:9878, V-B:ASP:366:CG:8184, V-B:ALA:541:CB:9864, H-A:TYR:531:OH:4795, V-B:TYR:539:CE2:9848, V-A:TYR:484:CE2:4346, V-B:GLU:543:CG:9879, V-B:TYR:539:C:9839, V-A:ASP:366:CG:3213, V-B:TYR:539:CZ:9849, H-B:GLU:543:OE1:9881, H-B:ALA:541:N:9863, V-A:GLU:543:CD:4908, V-A:TYR:484:CZ:4347, H-B:TYR:484:OH:9319, V-B:HIS:456:CE1:9041, V-A:GLY:453:C:4042, V-B:PRO:540:N:9856, V-A:ASP:366:C:3208, V-B:TYR:539:CD2:9846, V-B:GLU:543:CD:9880, V-A:ASP:366:CB:3212, V-A:LEU:475:CD2:4259, V-A:ARG:545:CZ:4926, H-A:GLU:543:OE1:4909, V-A:GLY:453:CA:4044, V-B:PRO:540:C:9853"]

$$$$
ZINC1772714568
     RDKit          3D

 78 83  0  0  0  0  0  0  0  0999 V2000
  132.5240  119.5330   59.1970 O   0  0  0  0  0  0  0  0  0  0  0  0
  132.0610  119.9700   60.2480 C   0  0  0  0  0  0  0  0  0  0  0  0
  133.0180  120.6660   61.2490 C   0  0  0  0  0  0  0  0  0  0  0  0
  133.6440  121.8420   60.7190 O   0  0  0  0  0  0  0  0  0  0  0  0
  133.3700  123.0970   61.2360 C   0  0  0  0  0  0  0  0  0  0  0  0
  133.6390  123.4920   62.5570 C   0  0  0  0  0  0  0  0  0  0  0  0
  133.2860  124.7710   63.0160 C   0  0  0  0  0  0  0  0  0  0  0  0
  133.4910  125.2260   64.3050 O   0  0  0  0  0  0  0  0  0  0  0  0
  132.3770  125.3760   65.1790 C   0  0  0  0  0  0  0  0  0  0  0  0
  131.1740  124.6580   64.5520 C   0  0  0  0  0  0  0  0  0  0  0  0
  130.8130  123.2660   65.0020 C   0  0  0  0  0  0  0  0  0  0  0  0
  129.9190  124.4420   65.3600 C   0  0  0  0  0  0  0  0  0  0  0  0
  132.6800  125.6590   62.1290 C   0  0  0  0  0  0  0  0  0  0  0  0
  132.4210  125.2950   60.8020 C   0  0  0  0  0  0  0  0  0  0  0  0
  132.7760  124.0150   60.3670 C   0  0  0  0  0  0  0  0  0  0  0  0
  131.7610  126.2680   59.8600 C   0  0  0  0  0  0  0  0  0  0  0  0
  132.2570  126.4990   58.7590 O   0  0  0  0  0  0  0  0  0  0  0  0
  130.6440  126.8960   60.2800 N   0  0  0  0  0  0  0  0  0  0  0  0
  129.6260  126.2790   61.1430 C   0  0  1  0  0  0  0  0  0  0  0  0
  129.5300  126.9440   62.5210 C   0  0  0  0  0  0  0  0  0  0  0  0
  128.4710  127.9460   62.3540 N   0  0  0  0  0  0  0  0  0  0  0  0
  128.3150  129.0400   63.1340 C   0  0  0  0  0  0  0  0  0  0  0  0
  128.2040  128.9550   64.3610 O   0  0  0  0  0  0  0  0  0  0  0  0
  128.2910  130.4270   62.4510 C   0  0  0  0  0  0  0  0  0  0  0  0
  129.4250  130.6500   61.4520 C   0  0  0  0  0  0  0  0  0  0  0  0
  129.2530  130.2950   60.1110 C   0  0  0  0  0  0  0  0  0  0  0  0
  130.2920  130.4760   59.2030 C   0  0  0  0  0  0  0  0  0  0  0  0
  131.5150  131.0100   59.6310 C   0  0  0  0  0  0  0  0  0  0  0  0
  132.6870  131.2190   58.6720 C   0  0  0  0  0  0  0  0  0  0  0  0
  133.1880  130.0440   58.0620 O   0  0  0  0  0  0  0  0  0  0  0  0
  131.6870  131.3470   60.9760 C   0  0  0  0  0  0  0  0  0  0  0  0
  130.6480  131.1680   61.8830 C   0  0  0  0  0  0  0  0  0  0  0  0
  127.6820  127.7240   61.1380 C   0  0  0  0  0  0  0  0  0  0  0  0
  128.2210  126.4210   60.5440 C   0  0  2  0  0  0  0  0  0  0  0  0
  127.3710  125.3330   60.9230 O   0  0  0  0  0  0  0  0  0  0  0  0
  127.9830  124.1070   61.0860 C   0  0  0  0  0  0  0  0  0  0  0  0
  128.1250  123.2070   60.0240 C   0  0  0  0  0  0  0  0  0  0  0  0
  128.7670  121.9880   60.2200 C   0  0  0  0  0  0  0  0  0  0  0  0
  129.2620  121.6520   61.4810 C   0  0  0  0  0  0  0  0  0  0  0  0
  129.1050  122.5460   62.5480 C   0  0  0  0  0  0  0  0  0  0  0  0
  128.4590  123.7640   62.3500 C   0  0  0  0  0  0  0  0  0  0  0  0
  129.9900  120.3200   61.6630 C   0  0  0  0  0  0  0  0  0  0  0  0
  130.7400  119.8660   60.4910 N   0  0  0  0  0  0  0  0  0  0  0  0
  132.4413  120.9508   62.1414 H   0  0  0  0  0  0  0  0  0  0  0  0
  133.8198  119.9496   61.4813 H   0  0  0  0  0  0  0  0  0  0  0  0
  134.1339  122.7883   63.2424 H   0  0  0  0  0  0  0  0  0  0  0  0
  132.6086  124.9293   66.1572 H   0  0  0  0  0  0  0  0  0  0  0  0
  132.1492  126.4424   65.3239 H   0  0  0  0  0  0  0  0  0  0  0  0
  131.3987  125.1256   63.5820 H   0  0  0  0  0  0  0  0  0  0  0  0
  130.4743  122.5204   64.2676 H   0  0  0  0  0  0  0  0  0  0  0  0
  131.3230  122.4738   65.5697 H   0  0  0  0  0  0  0  0  0  0  0  0
  128.9327  124.5489   64.8849 H   0  0  0  0  0  0  0  0  0  0  0  0
  129.5123  124.8562   66.2944 H   0  0  0  0  0  0  0  0  0  0  0  0
  132.4001  126.6640   62.4778 H   0  0  0  0  0  0  0  0  0  0  0  0
  132.5844  123.7259   59.3231 H   0  0  0  0  0  0  0  0  0  0  0  0
  130.3110  127.6590   59.7090 H   0  0  0  0  0  0  0  0  0  0  0  0
  129.9435  125.2294   61.2302 H   0  0  0  0  0  0  0  0  0  0  0  0
  129.2559  126.2092   63.2923 H   0  0  0  0  0  0  0  0  0  0  0  0
  130.4837  127.3839   62.8480 H   0  0  0  0  0  0  0  0  0  0  0  0
  127.3349  130.5329   61.9175 H   0  0  0  0  0  0  0  0  0  0  0  0
  128.4182  131.1750   63.2474 H   0  0  0  0  0  0  0  0  0  0  0  0
  128.2954  129.8721   59.7731 H   0  0  0  0  0  0  0  0  0  0  0  0
  130.1531  130.1994   58.1474 H   0  0  0  0  0  0  0  0  0  0  0  0
  132.3560  131.9008   57.8748 H   0  0  0  0  0  0  0  0  0  0  0  0
  133.5104  131.6193   59.2817 H   0  0  0  0  0  0  0  0  0  0  0  0
  133.2130  129.3450   58.7190 H   0  0  0  0  0  0  0  0  0  0  0  0
  132.6488  131.7559   61.3192 H   0  0  0  0  0  0  0  0  0  0  0  0
  130.7898  131.4347   62.9407 H   0  0  0  0  0  0  0  0  0  0  0  0
  126.6145  127.6237   61.3835 H   0  0  0  0  0  0  0  0  0  0  0  0
  127.7671  128.5640   60.4330 H   0  0  0  0  0  0  0  0  0  0  0  0
  128.2526  126.4219   59.4445 H   0  0  0  0  0  0  0  0  0  0  0  0
  127.7278  123.4639   59.0309 H   0  0  0  0  0  0  0  0  0  0  0  0
  128.8846  121.2880   59.3796 H   0  0  0  0  0  0  0  0  0  0  0  0
  129.4926  122.2856   63.5440 H   0  0  0  0  0  0  0  0  0  0  0  0
  128.3242  124.4570   63.1936 H   0  0  0  0  0  0  0  0  0  0  0  0
  130.6952  120.4270   62.5004 H   0  0  0  0  0  0  0  0  0  0  0  0
  129.2120  119.5639   61.8451 H   0  0  0  0  0  0  0  0  0  0  0  0
  130.1880  119.3930   59.7920 H   0  0  0  0  0  0  0  0  0  0  0  0
  1  2  2  0
  2  3  1  0
  3  4  1  0
  4  5  1  0
  5  6  2  0
  6  7  1  0
  7  8  1  0
  8  9  1  0
  9 10  1  0
 10 11  1  0
 11 12  1  0
  7 13  2  0
 13 14  1  0
 14 15  2  0
 14 16  1  0
 16 17  2  0
 16 18  1  0
 18 19  1  0
 19 20  1  0
 20 21  1  0
 21 22  1  0
 22 23  2  0
 22 24  1  0
 24 25  1  0
 25 26  2  0
 26 27  1  0
 27 28  2  0
 28 29  1  0
 29 30  1  0
 28 31  1  0
 31 32  2  0
 21 33  1  0
 33 34  1  0
 34 35  1  0
 35 36  1  0
 36 37  2  0
 37 38  1  0
 38 39  2  0
 39 40  1  0
 40 41  2  0
 39 42  1  0
 42 43  1  0
 43  2  1  0
 15  5  1  0
 34 19  1  0
 41 36  1  0
 12 10  1  0
 32 25  1  0
  3 44  1  0
  3 45  1  0
  6 46  1  0
  9 47  1  0
  9 48  1  0
 10 49  1  0
 11 50  1  0
 11 51  1  0
 12 52  1  0
 12 53  1  0
 13 54  1  0
 15 55  1  0
 18 56  1  0
 19 57  1  1
 20 58  1  0
 20 59  1  0
 24 60  1  0
 24 61  1  0
 26 62  1  0
 27 63  1  0
 29 64  1  0
 29 65  1  0
 30 66  1  0
 31 67  1  0
 32 68  1  0
 33 69  1  0
 33 70  1  0
 34 71  1  6
 37 72  1  0
 38 73  1  0
 40 74  1  0
 41 75  1  0
 42 76  1  0
 42 77  1  0
 43 78  1  0
M  END
>  <Binding energies>  (1) 
[-5.23]

>  <Ligand effiencies>  (1) 
[-0.10895833333333334]

>  <Interactions>  (1) 
["V-A:ILE:369:CG2:3237, V-B:PRO:540:CA:9855, V-A:GLY:454:CA:4049, V-B:GLU:543:CB:9878, V-B:ALA:541:CB:9864, H-A:TYR:531:OH:4795, H-A:ARG:545:NH1:4927, V-B:TYR:539:CE2:9848, V-A:TYR:484:CE2:4346, V-B:GLU:543:CG:9879, V-B:TYR:539:C:9839, V-A:ASP:366:CG:3213, V-A:LEU:363:CD1:3189, V-A:TYR:484:CZ:4347, V-A:GLU:543:CD:4908, H-A:GLY:454:N:4050, V-B:PRO:540:N:9856, V-A:ILE:369:CD1:3239, V-B:TYR:539:CD2:9846, V-A:SER:385:CB:3409, H-A:SER:385:OG:3410, V-B:GLU:543:CD:9880, V-A:ASP:366:CB:3212, V-A:LEU:475:CD2:4259, H-A:ARG:545:NH2:4928, V-A:ARG:545:CZ:4926, V-B:TYR:539:CG:9844, H-A:HIS:383:HE2:3395, V-A:PRO:540:CB:4885, V-A:PRO:540:CA:4883, H-B:TYR:539:O:9840, H-A:ARG:545:NE:4924, V-A:SER:385:CA:3407, V-B:PRO:540:C:9853, H-A:ASP:366:OD2:3215, H-A:TYR:484:OH:4348"]

$$$$
ZINC1772816812
     RDKit          3D

 86 90  0  0  0  0  0  0  0  0999 V2000
  133.2120  122.7990   64.0740 C   0  0  0  0  0  0  0  0  0  0  0  0
  132.9040  124.1760   63.4410 C   0  0  0  0  0  0  0  0  0  0  0  0
  132.5820  125.1960   64.5550 C   0  0  0  0  0  0  0  0  0  0  0  0
  131.8040  124.0870   62.3400 C   0  0  2  0  0  0  0  0  0  0  0  0
  130.9070  122.9500   62.6080 N   0  0  0  0  0  0  0  0  0  0  0  0
  129.9500  122.8470   63.5490 C   0  0  0  0  0  0  0  0  0  0  0  0
  129.3040  121.8070   63.6640 O   0  0  0  0  0  0  0  0  0  0  0  0
  129.6370  124.0610   64.4540 C   0  0  0  0  0  0  0  0  0  0  0  0
  129.0260  125.1860   63.7130 N   0  0  0  0  0  0  0  0  0  0  0  0
  128.9070  126.4490   64.2230 C   0  0  0  0  0  0  0  0  0  0  0  0
  128.5950  127.4320   63.5440 O   0  0  0  0  0  0  0  0  0  0  0  0
  129.1300  126.6500   65.7000 C   0  0  0  0  0  0  0  0  0  0  0  0
  130.0710  125.8810   66.3880 C   0  0  0  0  0  0  0  0  0  0  0  0
  130.2280  126.0360   67.7620 C   0  0  0  0  0  0  0  0  0  0  0  0
  129.4600  126.9650   68.4790 C   0  0  0  0  0  0  0  0  0  0  0  0
  129.5970  127.1070   69.8850 N   0  0  0  0  0  0  0  0  0  0  0  0
  130.8200  127.7130   70.4140 C   0  0  0  0  0  0  0  0  0  0  0  0
  128.2850  126.7770   71.0700 S   0  0  0  0  0  0  0  0  0  0  0  0
  128.3790  128.2790   72.2100 C   0  0  0  0  0  0  0  0  0  0  0  0
  127.0050  126.8100   70.3530 O   0  0  0  0  0  0  0  0  0  0  0  0
  128.6640  125.5860   71.8400 O   0  0  0  0  0  0  0  0  0  0  0  0
  128.5410  127.7530   67.7640 C   0  0  0  0  0  0  0  0  0  0  0  0
  128.3830  127.6030   66.3900 C   0  0  0  0  0  0  0  0  0  0  0  0
  128.6510  124.9130   62.3140 C   0  0  0  0  0  0  0  0  0  0  0  0
  127.5060  123.8880   62.2000 C   0  0  0  0  0  0  0  0  0  0  0  0
  127.8770  122.6800   61.4660 N   0  0  0  0  0  0  0  0  0  0  0  0
  128.5940  122.5390   60.3290 C   0  0  0  0  0  0  0  0  0  0  0  0
  128.9070  121.4170   59.9340 O   0  0  0  0  0  0  0  0  0  0  0  0
  129.0020  123.7080   59.5730 C   0  0  0  0  0  0  0  0  0  0  0  0
  128.3150  124.2020   58.4660 C   0  0  0  0  0  0  0  0  0  0  0  0
  128.9000  125.3570   58.0790 O   0  0  0  0  0  0  0  0  0  0  0  0
  129.9010  125.5140   58.9790 C   0  0  0  0  0  0  0  0  0  0  0  0
  129.9810  124.5520   59.8690 N   0  0  0  0  0  0  0  0  0  0  0  0
  130.7110  126.8010   58.9400 C   0  0  2  0  0  0  0  0  0  0  0  0
  129.8350  128.0310   58.6080 C   0  0  0  0  0  0  0  0  0  0  0  0
  130.2990  129.3080   59.3010 C   0  0  0  0  0  0  0  0  0  0  0  0
  130.5170  129.3150   60.6810 C   0  0  0  0  0  0  0  0  0  0  0  0
  130.9640  130.4750   61.3090 C   0  0  0  0  0  0  0  0  0  0  0  0
  131.1900  131.6240   60.5530 C   0  0  0  0  0  0  0  0  0  0  0  0
  130.9730  131.6240   59.1770 C   0  0  0  0  0  0  0  0  0  0  0  0
  130.5270  130.4640   58.5490 C   0  0  0  0  0  0  0  0  0  0  0  0
  131.8120  126.6770   57.9730 N   0  0  0  0  0  0  0  0  0  0  0  0
  132.7230  125.6910   57.8320 C   0  0  0  0  0  0  0  0  0  0  0  0
  133.4450  125.6210   56.8380 O   0  0  0  0  0  0  0  0  0  0  0  0
  132.8530  124.7310   58.8980 C   0  0  0  0  0  0  0  0  0  0  0  0
  133.6320  123.5730   58.8810 C   0  0  0  0  0  0  0  0  0  0  0  0
  133.4880  122.7710   60.4120 S   0  0  0  0  0  0  0  0  0  0  0  0
  132.3920  124.0220   60.9280 C   0  0  0  0  0  0  0  0  0  0  0  0
  132.1630  124.9310   60.0060 N   0  0  0  0  0  0  0  0  0  0  0  0
  133.1924  122.8868   65.1703 H   0  0  0  0  0  0  0  0  0  0  0  0
  132.4549  122.0693   63.7510 H   0  0  0  0  0  0  0  0  0  0  0  0
  134.2078  122.4614   63.7510 H   0  0  0  0  0  0  0  0  0  0  0  0
  133.7981  124.5350   62.9103 H   0  0  0  0  0  0  0  0  0  0  0  0
  132.7308  124.7248   65.5378 H   0  0  0  0  0  0  0  0  0  0  0  0
  133.2494  126.0652   64.4603 H   0  0  0  0  0  0  0  0  0  0  0  0
  131.5365  125.5245   64.4603 H   0  0  0  0  0  0  0  0  0  0  0  0
  131.2150  125.0151   62.3818 H   0  0  0  0  0  0  0  0  0  0  0  0
  131.1480  122.0970   62.1220 H   0  0  0  0  0  0  0  0  0  0  0  0
  128.9410  123.7408   65.2433 H   0  0  0  0  0  0  0  0  0  0  0  0
  130.5904  124.4179   64.8708 H   0  0  0  0  0  0  0  0  0  0  0  0
  130.6888  125.1519   65.8432 H   0  0  0  0  0  0  0  0  0  0  0  0
  130.9670  125.4195   68.2947 H   0  0  0  0  0  0  0  0  0  0  0  0
  130.7905  127.6984   71.5135 H   0  0  0  0  0  0  0  0  0  0  0  0
  131.6930  127.1432   70.0630 H   0  0  0  0  0  0  0  0  0  0  0  0
  130.8955  128.7528   70.0630 H   0  0  0  0  0  0  0  0  0  0  0  0
  128.3581  127.9457   73.2581 H   0  0  0  0  0  0  0  0  0  0  0  0
  129.3132  128.8271   72.0181 H   0  0  0  0  0  0  0  0  0  0  0  0
  127.5204  128.9393   72.0181 H   0  0  0  0  0  0  0  0  0  0  0  0
  127.9371  128.5002   68.2997 H   0  0  0  0  0  0  0  0  0  0  0  0
  127.6672  128.2378   65.8472 H   0  0  0  0  0  0  0  0  0  0  0  0
  128.3298  125.8545   61.8446 H   0  0  0  0  0  0  0  0  0  0  0  0
  129.5311  124.4891   61.8084 H   0  0  0  0  0  0  0  0  0  0  0  0
  127.1961  123.5977   63.2147 H   0  0  0  0  0  0  0  0  0  0  0  0
  126.6932  124.3715   61.6383 H   0  0  0  0  0  0  0  0  0  0  0  0
  127.6170  121.8210   61.9300 H   0  0  0  0  0  0  0  0  0  0  0  0
  127.4434  123.7312   57.9878 H   0  0  0  0  0  0  0  0  0  0  0  0
  131.1272  126.9611   59.9456 H   0  0  0  0  0  0  0  0  0  0  0  0
  129.8612  128.1948   57.5206 H   0  0  0  0  0  0  0  0  0  0  0  0
  128.8193  127.8146   58.9707 H   0  0  0  0  0  0  0  0  0  0  0  0
  130.3357  128.4047   61.2713 H   0  0  0  0  0  0  0  0  0  0  0  0
  131.1377  130.4843   62.3952 H   0  0  0  0  0  0  0  0  0  0  0  0
  131.5434  132.5404   61.0482 H   0  0  0  0  0  0  0  0  0  0  0  0
  131.1531  132.5362   58.5892 H   0  0  0  0  0  0  0  0  0  0  0  0
  130.3543  130.4574   57.4627 H   0  0  0  0  0  0  0  0  0  0  0  0
  131.7760  127.3500   57.2200 H   0  0  0  0  0  0  0  0  0  0  0  0
  134.2397  123.2249   58.0327 H   0  0  0  0  0  0  0  0  0  0  0  0
  1  2  1  0
  2  3  1  0
  2  4  1  0
  4  5  1  0
  5  6  1  0
  6  7  2  0
  6  8  1  0
  8  9  1  0
  9 10  1  0
 10 11  2  0
 10 12  1  0
 12 13  2  0
 13 14  1  0
 14 15  2  0
 15 16  1  0
 16 17  1  0
 16 18  1  0
 18 19  1  0
 18 20  2  0
 18 21  2  0
 15 22  1  0
 22 23  2  0
  9 24  1  0
 24 25  1  0
 25 26  1  0
 26 27  1  0
 27 28  2  0
 27 29  1  0
 29 30  2  0
 30 31  1  0
 31 32  1  0
 32 33  2  0
 32 34  1  0
 34 35  1  0
 35 36  1  0
 36 37  2  0
 37 38  1  0
 38 39  2  0
 39 40  1  0
 40 41  2  0
 34 42  1  0
 42 43  1  0
 43 44  2  0
 43 45  1  0
 45 46  2  0
 46 47  1  0
 47 48  1  0
 48 49  2  0
 48  4  1  0
 23 12  1  0
 33 29  1  0
 41 36  1  0
 49 45  1  0
  1 50  1  0
  1 51  1  0
  1 52  1  0
  2 53  1  0
  3 54  1  0
  3 55  1  0
  3 56  1  0
  4 57  1  6
  5 58  1  0
  8 59  1  0
  8 60  1  0
 13 61  1  0
 14 62  1  0
 17 63  1  0
 17 64  1  0
 17 65  1  0
 19 66  1  0
 19 67  1  0
 19 68  1  0
 22 69  1  0
 23 70  1  0
 24 71  1  0
 24 72  1  0
 25 73  1  0
 25 74  1  0
 26 75  1  0
 30 76  1  0
 34 77  1  1
 35 78  1  0
 35 79  1  0
 37 80  1  0
 38 81  1  0
 39 82  1  0
 40 83  1  0
 41 84  1  0
 42 85  1  0
 46 86  1  0
M  END
>  <Binding energies>  (1) 
[-5.37]

>  <Ligand effiencies>  (1) 
[-0.09944444444444445]

>  <Interactions>  (1) 
["V-A:ILE:369:CG2:3237, V-A:ASP:366:CA:3210, V-B:PRO:540:CA:9855, V-A:GLY:454:CA:4049, V-B:GLU:543:C:9874, V-A:ILE:369:CB:3236, V-A:GLU:543:C:4902, V-B:HIS:456:CD2:9039, V-B:GLU:543:CB:9878, H-B:LYS:547:NZ:9923, V-B:ALA:541:CB:9864, H-A:TYR:531:OH:4795, V-B:TYR:539:CE2:9848, V-B:GLU:543:CG:9879, V-A:GLY:544:C:4912, V-A:ASP:366:CG:3213, H-B:HIS:456:ND1:9038, V-B:TYR:539:CZ:9849, H-B:TYR:539:OH:9850, H-B:ARG:545:N:9892, V-A:GLU:543:CD:4908, V-B:HIS:456:CE1:9041, V-A:ILE:369:CD1:3239, V-A:HIS:456:CE1:4070, V-A:ASP:366:C:3208, V-B:TYR:539:CD2:9846, V-A:TYR:531:CZ:4794, V-B:GLU:543:CD:9880, V-B:HIS:456:CG:9037, V-A:ASP:366:CB:3212, V-A:LEU:475:CD2:4259, V-A:ARG:545:CZ:4926, V-A:GLU:543:CB:4906, V-A:PRO:540:CB:4885, V-A:PRO:540:CA:4883, V-B:PRO:540:C:9853"]

$$$$
ZINC1772817099
     RDKit          3D

 90 94  0  0  0  0  0  0  0  0999 V2000
  133.0190  125.5240   58.2490 C   0  0  0  0  0  0  0  0  0  0  0  0
  131.9740  125.8150   59.3020 C   0  0  0  0  0  0  0  0  0  0  0  0
  132.0950  125.1620   60.4810 O   0  0  0  0  0  0  0  0  0  0  0  0
  131.0300  125.5850   61.2040 C   0  0  0  0  0  0  0  0  0  0  0  0
  130.2580  126.4350   60.5670 N   0  0  0  0  0  0  0  0  0  0  0  0
  130.8360  126.6150   59.3910 C   0  0  0  0  0  0  0  0  0  0  0  0
  130.3300  127.5070   58.3830 C   0  0  0  0  0  0  0  0  0  0  0  0
  129.6080  127.0810   57.4830 O   0  0  0  0  0  0  0  0  0  0  0  0
  130.6550  128.8150   58.4760 N   0  0  0  0  0  0  0  0  0  0  0  0
  131.3750  129.5230   59.5510 C   0  0  1  0  0  0  0  0  0  0  0  0
  132.1680  130.7360   58.9730 C   0  0  0  0  0  0  0  0  0  0  0  0
  131.2410  131.8290   58.3940 C   0  0  0  0  0  0  0  0  0  0  0  0
  133.2080  130.3210   57.9110 C   0  0  0  0  0  0  0  0  0  0  0  0
  130.4000  129.9520   60.6470 C   0  0  0  0  0  0  0  0  0  0  0  0
  129.3300  129.2590   60.9620 N   0  0  0  0  0  0  0  0  0  0  0  0
  128.6540  129.7630   61.9820 C   0  0  0  0  0  0  0  0  0  0  0  0
  129.1510  130.9720   62.4660 C   0  0  0  0  0  0  0  0  0  0  0  0
  130.6040  131.3840   61.6110 S   0  0  0  0  0  0  0  0  0  0  0  0
  127.4300  129.1320   62.4320 C   0  0  0  0  0  0  0  0  0  0  0  0
  126.3820  129.3250   61.8200 O   0  0  0  0  0  0  0  0  0  0  0  0
  127.4460  128.3410   63.5290 N   0  0  0  0  0  0  0  0  0  0  0  0
  128.5140  128.1040   64.5100 C   0  0  0  0  0  0  0  0  0  0  0  0
  128.1570  128.5940   65.9290 C   0  0  0  0  0  0  0  0  0  0  0  0
  128.5530  127.6850   67.0220 N   0  0  0  0  0  0  0  0  0  0  0  0
  128.7360  128.0840   68.3100 C   0  0  0  0  0  0  0  0  0  0  0  0
  129.1430  129.2140   68.5920 O   0  0  0  0  0  0  0  0  0  0  0  0
  128.4250  127.1000   69.4560 C   0  0  0  0  0  0  0  0  0  0  0  0
  129.5910  126.8290   70.4360 C   0  0  0  0  0  0  0  0  0  0  0  0
  129.4620  127.5340   71.7210 N   0  0  0  0  0  0  0  0  0  0  0  0
  129.5950  128.9050   71.8260 C   0  0  0  0  0  0  0  0  0  0  0  0
  129.4610  129.6110   72.9660 C   0  0  0  0  0  0  0  0  0  0  0  0
  129.1530  128.8550   74.1650 C   0  0  0  0  0  0  0  0  0  0  0  0
  129.0060  127.5110   74.0820 C   0  0  0  0  0  0  0  0  0  0  0  0
  129.1240  126.7680   72.8250 C   0  0  0  0  0  0  0  0  0  0  0  0
  128.9230  125.5520   72.8000 O   0  0  0  0  0  0  0  0  0  0  0  0
  128.8570  126.3070   66.5970 C   0  0  0  0  0  0  0  0  0  0  0  0
  130.3250  125.8860   66.8180 C   0  0  0  0  0  0  0  0  0  0  0  0
  130.8260  124.9020   65.7520 C   0  0  0  0  0  0  0  0  0  0  0  0
  131.9650  125.4700   64.8810 C   0  0  0  0  0  0  0  0  0  0  0  0
  132.9610  125.9370   65.4300 O   0  0  0  0  0  0  0  0  0  0  0  0
  131.9080  125.4450   63.5340 N   0  0  0  0  0  0  0  0  0  0  0  0
  130.8570  125.0050   62.6050 C   0  0  1  0  0  0  0  0  0  0  0  0
  129.4080  125.0740   63.1570 C   0  0  0  0  0  0  0  0  0  0  0  0
  128.3500  124.7340   62.1140 C   0  0  0  0  0  0  0  0  0  0  0  0
  128.0800  123.3990   61.8000 C   0  0  0  0  0  0  0  0  0  0  0  0
  127.1000  123.0900   60.8610 C   0  0  0  0  0  0  0  0  0  0  0  0
  126.3930  124.1170   60.2380 C   0  0  0  0  0  0  0  0  0  0  0  0
  126.6590  125.4500   60.5440 C   0  0  0  0  0  0  0  0  0  0  0  0
  127.6390  125.7600   61.4840 C   0  0  0  0  0  0  0  0  0  0  0  0
  133.9683  125.2596   58.7378 H   0  0  0  0  0  0  0  0  0  0  0  0
  132.6836  124.6851   57.6215 H   0  0  0  0  0  0  0  0  0  0  0  0
  133.1655  126.4155   57.6215 H   0  0  0  0  0  0  0  0  0  0  0  0
  130.2930  129.4170   57.7520 H   0  0  0  0  0  0  0  0  0  0  0  0
  132.1070  128.8381   60.0038 H   0  0  0  0  0  0  0  0  0  0  0  0
  132.7077  131.1578   59.8337 H   0  0  0  0  0  0  0  0  0  0  0  0
  130.7698  132.3845   59.2182 H   0  0  0  0  0  0  0  0  0  0  0  0
  131.8317  132.5211   57.7759 H   0  0  0  0  0  0  0  0  0  0  0  0
  130.4618  131.3592   57.7759 H   0  0  0  0  0  0  0  0  0  0  0  0
  134.1179  129.9579   58.4112 H   0  0  0  0  0  0  0  0  0  0  0  0
  132.7908  129.5205   57.2824 H   0  0  0  0  0  0  0  0  0  0  0  0
  133.4565  131.1888   57.2824 H   0  0  0  0  0  0  0  0  0  0  0  0
  128.6931  131.5721   63.2661 H   0  0  0  0  0  0  0  0  0  0  0  0
  126.5710  127.8910   63.7560 H   0  0  0  0  0  0  0  0  0  0  0  0
  128.7148  127.0234   64.5537 H   0  0  0  0  0  0  0  0  0  0  0  0
  129.3939  128.6752   64.1791 H   0  0  0  0  0  0  0  0  0  0  0  0
  128.6562  129.5606   66.0916 H   0  0  0  0  0  0  0  0  0  0  0  0
  127.0594  128.6571   65.9648 H   0  0  0  0  0  0  0  0  0  0  0  0
  127.5838  127.5090   70.0349 H   0  0  0  0  0  0  0  0  0  0  0  0
  128.2048  126.1357   68.9747 H   0  0  0  0  0  0  0  0  0  0  0  0
  129.6320  125.7481   70.6359 H   0  0  0  0  0  0  0  0  0  0  0  0
  130.5071  127.2031   69.9556 H   0  0  0  0  0  0  0  0  0  0  0  0
  129.8284  129.4638   70.9077 H   0  0  0  0  0  0  0  0  0  0  0  0
  129.5791  130.7045   72.9863 H   0  0  0  0  0  0  0  0  0  0  0  0
  129.0400  129.3678   75.1316 H   0  0  0  0  0  0  0  0  0  0  0  0
  128.7875  126.9504   75.0029 H   0  0  0  0  0  0  0  0  0  0  0  0
  128.2120  125.6206   67.1652 H   0  0  0  0  0  0  0  0  0  0  0  0
  128.6755  126.2633   65.5130 H   0  0  0  0  0  0  0  0  0  0  0  0
  130.9570  126.7859   66.7910 H   0  0  0  0  0  0  0  0  0  0  0  0
  130.3819  125.3780   67.7920 H   0  0  0  0  0  0  0  0  0  0  0  0
  131.1923  123.9966   66.2580 H   0  0  0  0  0  0  0  0  0  0  0  0
  129.9796  124.6904   65.0821 H   0  0  0  0  0  0  0  0  0  0  0  0
  132.7230  125.8190   63.0680 H   0  0  0  0  0  0  0  0  0  0  0  0
  131.0146  123.9213   62.5008 H   0  0  0  0  0  0  0  0  0  0  0  0
  129.3176  124.3626   63.9911 H   0  0  0  0  0  0  0  0  0  0  0  0
  129.2296  126.1113   63.4766 H   0  0  0  0  0  0  0  0  0  0  0  0
  128.6417  122.5929   62.2947 H   0  0  0  0  0  0  0  0  0  0  0  0
  126.8846  122.0405   60.6119 H   0  0  0  0  0  0  0  0  0  0  0  0
  125.6173  123.8727   59.4973 H   0  0  0  0  0  0  0  0  0  0  0  0
  126.0976  126.2539   60.0455 H   0  0  0  0  0  0  0  0  0  0  0  0
  127.8533  126.8104   61.7304 H   0  0  0  0  0  0  0  0  0  0  0  0
  1  2  1  0
  2  3  1  0
  3  4  1  0
  4  5  2  0
  5  6  1  0
  6  7  1  0
  7  8  2  0
  7  9  1  0
  9 10  1  0
 10 11  1  0
 11 12  1  0
 11 13  1  0
 10 14  1  0
 14 15  2  0
 15 16  1  0
 16 17  2  0
 17 18  1  0
 16 19  1  0
 19 20  2  0
 19 21  1  0
 21 22  1  0
 22 23  1  0
 23 24  1  0
 24 25  1  0
 25 26  2  0
 25 27  1  0
 27 28  1  0
 28 29  1  0
 29 30  1  0
 30 31  2  0
 31 32  1  0
 32 33  2  0
 33 34  1  0
 34 35  2  0
 24 36  1  0
 36 37  1  0
 37 38  1  0
 38 39  1  0
 39 40  2  0
 39 41  1  0
 41 42  1  0
 42 43  1  0
 43 44  1  0
 44 45  2  0
 45 46  1  0
 46 47  2  0
 47 48  1  0
 48 49  2  0
  6  2  2  0
 18 14  1  0
 34 29  1  0
 49 44  1  0
 42  4  1  0
  1 50  1  0
  1 51  1  0
  1 52  1  0
  9 53  1  0
 10 54  1  1
 11 55  1  0
 12 56  1  0
 12 57  1  0
 12 58  1  0
 13 59  1  0
 13 60  1  0
 13 61  1  0
 17 62  1  0
 21 63  1  0
 22 64  1  0
 22 65  1  0
 23 66  1  0
 23 67  1  0
 27 68  1  0
 27 69  1  0
 28 70  1  0
 28 71  1  0
 30 72  1  0
 31 73  1  0
 32 74  1  0
 33 75  1  0
 36 76  1  0
 36 77  1  0
 37 78  1  0
 37 79  1  0
 38 80  1  0
 38 81  1  0
 41 82  1  0
 42 83  1  6
 43 84  1  0
 43 85  1  0
 45 86  1  0
 46 87  1  0
 47 88  1  0
 48 89  1  0
 49 90  1  0
M  END
>  <Binding energies>  (1) 
[-4.71]

>  <Ligand effiencies>  (1) 
[-0.08722222222222221]

>  <Interactions>  (1) 
["V-A:ASP:366:CA:3210, V-B:PRO:540:CA:9855, V-B:GLU:543:C:9874, V-B:HIS:456:CD2:9039, V-A:GLU:543:C:4902, V-B:GLU:543:CB:9878, H-B:LYS:547:NZ:9923, H-A:TYR:531:OH:4795, V-A:TYR:484:CE2:4346, V-B:GLU:543:CG:9879, V-A:ASP:366:CG:3213, V-A:HIS:456:CD2:4068, V-A:LEU:363:CD1:3189, H-B:GLU:543:OE1:9881, V-A:TYR:531:CE2:4793, V-A:GLU:543:CD:4908, V-B:PRO:540:CB:9857, V-A:TYR:484:CZ:4347, V-B:HIS:456:CE1:9041, V-A:HIS:456:CE1:4070, V-A:ASP:366:C:3208, V-A:TYR:531:CZ:4794, V-A:GLU:543:CG:4907, V-B:GLU:543:CD:9880, V-A:ASP:366:CB:3212, H-A:ARG:545:NH2:4928, V-A:ARG:545:CZ:4926, V-A:GLU:543:CB:4906, H-A:ASP:366:OD1:3214, H-B:GLU:543:OE2:9882, V-A:PRO:540:CB:4885, V-A:PRO:540:CA:4883, V-A:LEU:363:CA:3185, H-A:ARG:545:NE:4924, V-B:PRO:540:C:9853, H-A:TYR:484:OH:4348"]

$$$$
ZINC1772817839
     RDKit          3D

 92 95  0  0  0  0  0  0  0  0999 V2000
  131.4750  119.7690   60.7810 C   0  0  0  0  0  0  0  0  0  0  0  0
  131.5120  121.2480   61.0860 C   0  0  0  0  0  0  0  0  0  0  0  0
  131.8550  122.1420   60.1720 N   0  0  0  0  0  0  0  0  0  0  0  0
  131.7570  123.2810   60.8130 C   0  0  0  0  0  0  0  0  0  0  0  0
  131.3330  123.0410   62.1010 N   0  0  0  0  0  0  0  0  0  0  0  0
  131.2250  121.7170   62.2800 N   0  0  0  0  0  0  0  0  0  0  0  0
  131.1320  123.9840   63.2090 C   0  0  0  0  0  0  0  0  0  0  0  0
  130.0740  123.5870   64.2520 C   0  0  0  0  0  0  0  0  0  0  0  0
  129.6740  122.4260   64.2730 O   0  0  0  0  0  0  0  0  0  0  0  0
  129.5950  124.4820   65.1340 N   0  0  0  0  0  0  0  0  0  0  0  0
  129.9670  125.8860   65.3120 C   0  0  0  0  0  0  0  0  0  0  0  0
  129.9230  126.6590   63.9690 C   0  0  0  0  0  0  0  0  0  0  0  0
  128.6400  126.3780   63.1450 N   0  0  1  0  0  0  0  0  0  0  0  0
  127.9550  127.6440   62.5670 C   0  0  0  0  0  0  0  0  0  0  0  0
  128.0770  128.9210   63.3900 C   0  0  0  0  0  0  0  0  0  0  0  0
  128.4720  130.1230   62.7920 C   0  0  0  0  0  0  0  0  0  0  0  0
  128.6040  131.2600   63.5910 C   0  0  0  0  0  0  0  0  0  0  0  0
  128.3770  131.2510   64.9290 N   0  0  0  0  0  0  0  0  0  0  0  0
  128.0100  130.0760   65.5000 C   0  0  0  0  0  0  0  0  0  0  0  0
  127.8560  128.8940   64.7720 C   0  0  0  0  0  0  0  0  0  0  0  0
  128.8820  125.2560   62.0980 C   0  0  0  0  0  0  0  0  0  0  0  0
  127.5680  124.7420   61.4590 C   0  0  0  0  0  0  0  0  0  0  0  0
  127.6930  123.9990   60.1000 C   0  0  0  0  0  0  0  0  0  0  0  0
  126.6020  124.3150   59.0630 C   0  0  0  0  0  0  0  0  0  0  0  0
  125.5840  123.6260   59.0390 O   0  0  0  0  0  0  0  0  0  0  0  0
  126.7380  125.3550   58.2250 N   0  0  0  0  0  0  0  0  0  0  0  0
  127.8770  126.2600   58.0740 C   0  0  1  0  0  0  0  0  0  0  0  0
  127.9380  127.2420   59.2550 C   0  0  0  0  0  0  0  0  0  0  0  0
  129.2240  125.5320   57.8650 C   0  0  0  0  0  0  0  0  0  0  0  0
  129.1990  124.4870   57.2170 O   0  0  0  0  0  0  0  0  0  0  0  0
  130.3850  125.9970   58.3690 N   0  0  0  0  0  0  0  0  0  0  0  0
  130.6570  127.1840   59.1840 C   0  0  2  0  0  0  0  0  0  0  0  0
  131.7710  128.0530   58.5580 C   0  0  0  0  0  0  0  0  0  0  0  0
  131.4600  129.5380   58.5700 C   0  0  0  0  0  0  0  0  0  0  0  0
  132.3540  130.4580   57.9810 C   0  0  0  0  0  0  0  0  0  0  0  0
  132.0120  131.8010   57.8940 C   0  0  0  0  0  0  0  0  0  0  0  0
  130.7800  132.2400   58.3580 C   0  0  0  0  0  0  0  0  0  0  0  0
  129.8720  131.3400   58.9050 C   0  0  0  0  0  0  0  0  0  0  0  0
  130.1960  129.9940   59.0020 C   0  0  0  0  0  0  0  0  0  0  0  0
  130.9210  126.8350   60.6650 C   0  0  0  0  0  0  0  0  0  0  0  0
  130.4700  127.5990   61.5150 O   0  0  0  0  0  0  0  0  0  0  0  0
  131.6080  125.7320   61.0280 N   0  0  0  0  0  0  0  0  0  0  0  0
  132.1400  124.6330   60.2110 C   0  0  1  0  0  0  0  0  0  0  0  0
  133.6720  124.7810   59.9650 C   0  0  0  0  0  0  0  0  0  0  0  0
  134.1010  124.2410   58.5830 C   0  0  0  0  0  0  0  0  0  0  0  0
  134.5190  124.1170   61.0720 C   0  0  0  0  0  0  0  0  0  0  0  0
  131.4608  119.2007   61.7227 H   0  0  0  0  0  0  0  0  0  0  0  0
  130.5708  119.5371   60.1991 H   0  0  0  0  0  0  0  0  0  0  0  0
  132.3665  119.4922   60.1991 H   0  0  0  0  0  0  0  0  0  0  0  0
  132.0931  124.0980   63.7318 H   0  0  0  0  0  0  0  0  0  0  0  0
  130.7576  124.9087   62.7456 H   0  0  0  0  0  0  0  0  0  0  0  0
  128.9210  124.1350   65.8010 H   0  0  0  0  0  0  0  0  0  0  0  0
  129.2657  126.3551   66.0178 H   0  0  0  0  0  0  0  0  0  0  0  0
  130.9958  125.9245   65.6993 H   0  0  0  0  0  0  0  0  0  0  0  0
  129.9715  127.7367   64.1840 H   0  0  0  0  0  0  0  0  0  0  0  0
  130.7790  126.3190   63.3676 H   0  0  0  0  0  0  0  0  0  0  0  0
  127.9870  125.9850   63.8090 H   0  0  0  0  0  0  0  0  0  0  0  0
  128.3960  127.8404   61.5786 H   0  0  0  0  0  0  0  0  0  0  0  0
  126.8801  127.4107   62.5506 H   0  0  0  0  0  0  0  0  0  0  0  0
  128.6748  130.1710   61.7119 H   0  0  0  0  0  0  0  0  0  0  0  0
  128.9053  132.2049   63.1152 H   0  0  0  0  0  0  0  0  0  0  0  0
  127.8256  130.0534   66.5842 H   0  0  0  0  0  0  0  0  0  0  0  0
  127.5665  127.9596   65.2751 H   0  0  0  0  0  0  0  0  0  0  0  0
  129.5296  125.6514   61.3016 H   0  0  0  0  0  0  0  0  0  0  0  0
  129.3511  124.4092   62.6204 H   0  0  0  0  0  0  0  0  0  0  0  0
  127.0985  124.0506   62.1742 H   0  0  0  0  0  0  0  0  0  0  0  0
  126.9820  125.6466   61.2393 H   0  0  0  0  0  0  0  0  0  0  0  0
  128.6652  124.2635   59.6586 H   0  0  0  0  0  0  0  0  0  0  0  0
  127.5841  122.9294   60.3325 H   0  0  0  0  0  0  0  0  0  0  0  0
  125.9800  125.5330   57.5820 H   0  0  0  0  0  0  0  0  0  0  0  0
  127.7101  126.8279   57.1469 H   0  0  0  0  0  0  0  0  0  0  0  0
  127.9031  126.6810   60.2005 H   0  0  0  0  0  0  0  0  0  0  0  0
  128.8737  127.8182   59.2048 H   0  0  0  0  0  0  0  0  0  0  0  0
  127.0808  127.9296   59.2048 H   0  0  0  0  0  0  0  0  0  0  0  0
  131.2090  125.4480   58.1730 H   0  0  0  0  0  0  0  0  0  0  0  0
  129.7435  127.7968   59.1869 H   0  0  0  0  0  0  0  0  0  0  0  0
  132.7003  127.8875   59.1228 H   0  0  0  0  0  0  0  0  0  0  0  0
  131.8632  127.7506   57.5044 H   0  0  0  0  0  0  0  0  0  0  0  0
  133.3221  130.1109   57.5907 H   0  0  0  0  0  0  0  0  0  0  0  0
  132.7202  132.5195   57.4557 H   0  0  0  0  0  0  0  0  0  0  0  0
  130.5200  133.3068   58.2927 H   0  0  0  0  0  0  0  0  0  0  0  0
  128.8942  131.6959   59.2618 H   0  0  0  0  0  0  0  0  0  0  0  0
  129.4670  129.2818   59.4160 H   0  0  0  0  0  0  0  0  0  0  0  0
  131.6580  125.5630   62.0210 H   0  0  0  0  0  0  0  0  0  0  0  0
  131.6747  124.6850   59.2156 H   0  0  0  0  0  0  0  0  0  0  0  0
  133.8657  125.8635   59.9897 H   0  0  0  0  0  0  0  0  0  0  0  0
  134.7801  123.3862   58.7180 H   0  0  0  0  0  0  0  0  0  0  0  0
  133.2110  123.9174   58.0234 H   0  0  0  0  0  0  0  0  0  0  0  0
  134.6175  125.0348   58.0234 H   0  0  0  0  0  0  0  0  0  0  0  0
  134.1349  124.4181   62.0578 H   0  0  0  0  0  0  0  0  0  0  0  0
  134.4586  123.0231   60.9734 H   0  0  0  0  0  0  0  0  0  0  0  0
  135.5669  124.4368   60.9734 H   0  0  0  0  0  0  0  0  0  0  0  0
  1  2  1  0
  2  3  1  0
  3  4  2  0
  4  5  1  0
  5  6  1  0
  5  7  1  0
  7  8  1  0
  8  9  2  0
  8 10  1  0
 10 11  1  0
 11 12  1  0
 12 13  1  0
 13 14  1  0
 14 15  1  0
 15 16  2  0
 16 17  1  0
 17 18  2  0
 18 19  1  0
 19 20  2  0
 13 21  1  0
 21 22  1  0
 22 23  1  0
 23 24  1  0
 24 25  2  0
 24 26  1  0
 26 27  1  0
 27 28  1  0
 27 29  1  0
 29 30  2  0
 29 31  1  0
 31 32  1  0
 32 33  1  0
 33 34  1  0
 34 35  2  0
 35 36  1  0
 36 37  2  0
 37 38  1  0
 38 39  2  0
 32 40  1  0
 40 41  2  0
 40 42  1  0
 42 43  1  0
 43 44  1  0
 44 45  1  0
 44 46  1  0
  6  2  2  0
 20 15  1  0
 39 34  1  0
 43  4  1  0
  1 47  1  0
  1 48  1  0
  1 49  1  0
  7 50  1  0
  7 51  1  0
 10 52  1  0
 11 53  1  0
 11 54  1  0
 12 55  1  0
 12 56  1  0
 13 57  1  1
 14 58  1  0
 14 59  1  0
 16 60  1  0
 17 61  1  0
 19 62  1  0
 20 63  1  0
 21 64  1  0
 21 65  1  0
 22 66  1  0
 22 67  1  0
 23 68  1  0
 23 69  1  0
 26 70  1  0
 27 71  1  6
 28 72  1  0
 28 73  1  0
 28 74  1  0
 31 75  1  0
 32 76  1  1
 33 77  1  0
 33 78  1  0
 35 79  1  0
 36 80  1  0
 37 81  1  0
 38 82  1  0
 39 83  1  0
 42 84  1  0
 43 85  1  6
 44 86  1  0
 45 87  1  0
 45 88  1  0
 45 89  1  0
 46 90  1  0
 46 91  1  0
 46 92  1  0
M  CHG  1  13   1
M  END
>  <Binding energies>  (1) 
[-4.31]

>  <Ligand effiencies>  (1) 
[-0.08132075471698112]

>  <Interactions>  (1) 
["V-A:ILE:369:CG2:3237, V-A:ASP:366:CA:3210, V-A:ILE:369:CB:3236, V-B:GLU:543:CB:9878, V-B:TYR:539:CE2:9848, V-B:GLU:543:CG:9879, V-A:ASP:366:CG:3213, V-A:LEU:363:CD1:3189, V-B:TYR:484:CE2:9317, H-B:GLU:543:OE1:9881, V-A:TYR:531:CE2:4793, H-B:TYR:539:OH:9850, V-A:GLU:543:CD:4908, H-B:TYR:484:OH:9319, V-A:ILE:369:CD1:3239, V-B:TYR:484:CZ:9318, V-A:ASP:366:C:3208, V-B:TYR:539:CD2:9846, V-A:GLU:543:CG:4907, V-B:GLU:543:CD:9880, H-B:TYR:531:OH:9767, V-A:ASP:366:CB:3212, V-A:LEU:475:CD2:4259, V-A:GLU:543:CB:4906, V-A:PRO:540:N:4884, H-B:GLU:543:OE2:9882, V-A:PRO:540:CB:4885, V-A:PRO:540:CA:4883"]

$$$$
ZINC1772820317
     RDKit          3D

 57 58  0  0  0  0  0  0  0  0999 V2000
  127.7450  123.6130   59.1210 C   0  0  0  0  0  0  0  0  0  0  0  0
  128.6420  123.6980   60.1210 C   0  0  0  0  0  0  0  0  0  0  0  0
  128.3650  123.2520   61.4780 C   0  0  0  0  0  0  0  0  0  0  0  0
  127.3040  122.8280   61.9340 O   0  0  0  0  0  0  0  0  0  0  0  0
  129.5010  123.3820   62.1920 O   0  0  0  0  0  0  0  0  0  0  0  0
  130.6270  123.6570   61.3710 C   0  0  1  0  0  0  0  0  0  0  0  0
  131.4380  122.3890   61.1110 C   0  0  0  0  0  0  0  0  0  0  0  0
  132.7350  122.1780   61.4180 C   0  0  0  0  0  0  0  0  0  0  0  0
  133.4170  120.8640   61.0750 C   0  0  0  0  0  0  0  0  0  0  0  0
  133.6370  123.2100   62.1060 C   0  0  2  0  0  0  0  0  0  0  0  0
  133.4880  123.1590   63.5320 O   0  0  0  0  0  0  0  0  0  0  0  0
  133.1850  124.2510   64.2720 C   0  0  0  0  0  0  0  0  0  0  0  0
  131.6890  124.3710   64.5330 C   0  0  0  0  0  0  0  0  0  0  0  0
  133.9800  125.0850   64.7050 O   0  0  0  0  0  0  0  0  0  0  0  0
  133.4700  124.6580   61.5540 C   0  0  0  0  0  0  0  0  0  0  0  0
  133.4140  124.7930   60.0360 C   0  0  0  0  0  0  0  0  0  0  0  0
  132.6040  125.5790   59.2950 C   0  0  0  0  0  0  0  0  0  0  0  0
  132.7000  125.5440   57.7750 C   0  0  0  0  0  0  0  0  0  0  0  0
  131.4720  126.4450   59.8590 C   0  0  0  0  0  0  0  0  0  0  0  0
  130.0580  125.8080   59.9810 C   0  0  2  0  0  0  0  0  0  0  0  0
  129.2720  126.3720   61.0340 O   0  0  0  0  0  0  0  0  0  0  0  0
  129.8000  127.1780   61.9960 C   0  0  0  0  0  0  0  0  0  0  0  0
  130.5120  126.7630   62.9150 O   0  0  0  0  0  0  0  0  0  0  0  0
  129.4690  128.6100   61.8270 C   0  0  0  0  0  0  0  0  0  0  0  0
  128.0980  129.0150   62.3720 C   0  0  0  0  0  0  0  0  0  0  0  0
  130.3590  129.4740   61.2740 C   0  0  0  0  0  0  0  0  0  0  0  0
  130.1750  130.9630   61.0410 C   0  0  0  0  0  0  0  0  0  0  0  0
  130.9640  131.6580   61.9830 O   0  0  0  0  0  0  0  0  0  0  0  0
  130.0480  124.2550   60.0800 C   0  0  2  0  0  0  0  0  0  0  0  0
  128.0095  123.9663   58.1134 H   0  0  0  0  0  0  0  0  0  0  0  0
  126.7475  123.1903   59.3114 H   0  0  0  0  0  0  0  0  0  0  0  0
  131.3304  124.3557   61.8475 H   0  0  0  0  0  0  0  0  0  0  0  0
  130.9080  121.5589   60.6210 H   0  0  0  0  0  0  0  0  0  0  0  0
  133.6894  120.3392   62.0026 H   0  0  0  0  0  0  0  0  0  0  0  0
  132.7305  120.2371   60.4871 H   0  0  0  0  0  0  0  0  0  0  0  0
  134.3248  121.0646   60.4871 H   0  0  0  0  0  0  0  0  0  0  0  0
  134.6702  122.9248   61.8588 H   0  0  0  0  0  0  0  0  0  0  0  0
  131.5060  124.3857   65.6176 H   0  0  0  0  0  0  0  0  0  0  0  0
  131.3122  125.3023   64.0849 H   0  0  0  0  0  0  0  0  0  0  0  0
  131.1685  123.5117   64.0849 H   0  0  0  0  0  0  0  0  0  0  0  0
  132.5349  125.0682   61.9630 H   0  0  0  0  0  0  0  0  0  0  0  0
  134.3745  125.2004   61.8666 H   0  0  0  0  0  0  0  0  0  0  0  0
  134.1245  124.1703   59.4726 H   0  0  0  0  0  0  0  0  0  0  0  0
  133.6953  125.1811   57.4787 H   0  0  0  0  0  0  0  0  0  0  0  0
  131.9294  124.8690   57.3744 H   0  0  0  0  0  0  0  0  0  0  0  0
  132.5447  126.5566   57.3744 H   0  0  0  0  0  0  0  0  0  0  0  0
  131.7753  126.7642   60.8670 H   0  0  0  0  0  0  0  0  0  0  0  0
  131.3480  127.2509   59.1207 H   0  0  0  0  0  0  0  0  0  0  0  0
  129.5883  126.0663   59.0204 H   0  0  0  0  0  0  0  0  0  0  0  0
  128.1237  129.0074   63.4717 H   0  0  0  0  0  0  0  0  0  0  0  0
  127.8467  130.0257   62.0181 H   0  0  0  0  0  0  0  0  0  0  0  0
  127.3378  128.3030   62.0181 H   0  0  0  0  0  0  0  0  0  0  0  0
  131.3224  129.0466   60.9592 H   0  0  0  0  0  0  0  0  0  0  0  0
  130.4968  131.2229   60.0217 H   0  0  0  0  0  0  0  0  0  0  0  0
  129.1160  131.2375   61.1562 H   0  0  0  0  0  0  0  0  0  0  0  0
  131.1650  131.0640   62.7100 H   0  0  0  0  0  0  0  0  0  0  0  0
  130.6479  123.9908   59.1967 H   0  0  0  0  0  0  0  0  0  0  0  0
  1  2  2  0
  2  3  1  0
  3  4  2  0
  3  5  1  0
  5  6  1  0
  6  7  1  0
  7  8  2  0
  8  9  1  0
  8 10  1  0
 10 11  1  0
 11 12  1  0
 12 13  1  0
 12 14  2  0
 10 15  1  0
 15 16  1  0
 16 17  2  0
 17 18  1  0
 17 19  1  0
 19 20  1  0
 20 21  1  0
 21 22  1  0
 22 23  2  0
 22 24  1  0
 24 25  1  0
 24 26  2  0
 26 27  1  0
 27 28  1  0
 20 29  1  0
 29  2  1  0
 29  6  1  0
  1 30  1  0
  1 31  1  0
  6 32  1  1
  7 33  1  0
  9 34  1  0
  9 35  1  0
  9 36  1  0
 10 37  1  1
 13 38  1  0
 13 39  1  0
 13 40  1  0
 15 41  1  0
 15 42  1  0
 16 43  1  0
 18 44  1  0
 18 45  1  0
 18 46  1  0
 19 47  1  0
 19 48  1  0
 20 49  1  6
 25 50  1  0
 25 51  1  0
 25 52  1  0
 26 53  1  0
 27 54  1  0
 27 55  1  0
 28 56  1  0
 29 57  1  6
M  END
>  <Binding energies>  (1) 
[-4.39]

>  <Ligand effiencies>  (1) 
[-0.1371875]

>  <Interactions>  (1) 
["V-A:ILE:369:CG2:3237, V-A:ASP:366:CA:3210, V-B:PRO:540:CA:9855, V-A:GLY:454:CA:4049, H-A:ALA:541:N:4891, H-A:ARG:545:NH1:4927, V-B:TYR:539:CE2:9848, V-A:ASP:366:CG:3213, V-B:TYR:539:CZ:9849, H-B:ALA:541:N:9863, H-A:GLY:454:N:4050, V-A:ILE:369:CD1:3239, V-A:ASP:366:C:3208, V-B:TYR:539:CD2:9846, V-A:SER:385:CB:3409, V-A:ASP:366:CB:3212, V-A:LEU:475:CD2:4259, H-A:ARG:545:NH2:4928, V-A:ARG:545:CZ:4926, H-A:GLU:543:OE1:4909, H-A:ARG:545:NE:4924, V-A:SER:385:CA:3407, H-A:TYR:484:OH:4348"]

$$$$
ZINC1775976902
     RDKit          3D

 92 95  0  0  0  0  0  0  0  0999 V2000
  129.5990  122.9480   64.4820 C   0  0  0  0  0  0  0  0  0  0  0  0
  129.8860  124.4000   64.0880 C   0  0  0  0  0  0  0  0  0  0  0  0
  128.8400  124.8700   63.2490 O   0  0  0  0  0  0  0  0  0  0  0  0
  128.4130  124.1390   62.1890 C   0  0  0  0  0  0  0  0  0  0  0  0
  127.6140  123.2010   62.2650 O   0  0  0  0  0  0  0  0  0  0  0  0
  129.0080  124.6160   60.8230 C   0  0  2  0  0  0  0  0  0  0  0  0
  129.7770  123.4530   60.0980 C   0  0  0  0  0  0  0  0  0  0  0  0
  130.9330  122.7770   60.8800 C   0  0  0  0  0  0  0  0  0  0  0  0
  131.0220  121.2450   60.6850 C   0  0  0  0  0  0  0  0  0  0  0  0
  129.9590  120.5190   61.5300 C   0  0  0  0  0  0  0  0  0  0  0  0
  132.4280  120.6860   60.9750 C   0  0  0  0  0  0  0  0  0  0  0  0
  130.0180  125.7920   61.0900 C   0  0  0  0  0  0  0  0  0  0  0  0
  131.0320  126.0200   60.0500 N   0  0  0  0  0  0  0  0  0  0  0  0
  131.0150  126.9310   59.0600 C   0  0  0  0  0  0  0  0  0  0  0  0
  131.9250  126.9690   58.2350 O   0  0  0  0  0  0  0  0  0  0  0  0
  129.8610  127.9420   58.9420 C   0  0  0  0  0  0  0  0  0  0  0  0
  129.9570  128.7780   57.6510 C   0  0  0  0  0  0  0  0  0  0  0  0
  128.5710  129.0700   57.0390 C   0  0  0  0  0  0  0  0  0  0  0  0
  128.0480  130.4170   57.3400 N   0  0  0  0  0  0  0  0  0  0  0  0
  128.8090  131.5480   57.3950 C   0  0  0  0  0  0  0  0  0  0  0  0
  128.4780  132.6000   56.8420 O   0  0  0  0  0  0  0  0  0  0  0  0
  130.1010  131.5290   58.1790 C   0  0  0  0  0  0  0  0  0  0  0  0
  131.3170  131.3860   57.5010 C   0  0  0  0  0  0  0  0  0  0  0  0
  132.5300  131.3750   58.1850 C   0  0  0  0  0  0  0  0  0  0  0  0
  132.5510  131.5240   59.5900 C   0  0  0  0  0  0  0  0  0  0  0  0
  133.7400  131.5090   60.2580 N   0  0  0  0  0  0  0  0  0  0  0  0
  133.6980  131.6620   61.6060 C   0  0  0  0  0  0  0  0  0  0  0  0
  132.4960  131.8280   62.2910 C   0  0  0  0  0  0  0  0  0  0  0  0
  131.3010  131.8460   61.6480 N   0  0  0  0  0  0  0  0  0  0  0  0
  131.3180  131.6940   60.2920 C   0  0  0  0  0  0  0  0  0  0  0  0
  130.1030  131.7040   59.5690 C   0  0  0  0  0  0  0  0  0  0  0  0
  126.5790  130.5070   57.3730 C   0  0  0  0  0  0  0  0  0  0  0  0
  126.0320  131.1350   58.6720 C   0  0  0  0  0  0  0  0  0  0  0  0
  126.8740  132.2040   59.2030 N   0  0  0  0  0  0  0  0  0  0  0  0
  127.2700  132.3850   60.4780 C   0  0  0  0  0  0  0  0  0  0  0  0
  127.8940  133.3950   60.7970 O   0  0  0  0  0  0  0  0  0  0  0  0
  126.9450  131.3370   61.5620 C   0  0  0  0  0  0  0  0  0  0  0  0
  125.9550  130.4230   61.0830 O   0  0  0  0  0  0  0  0  0  0  0  0
  126.3990  129.1430   60.8420 C   0  0  0  0  0  0  0  0  0  0  0  0
  125.9770  128.4940   59.6810 C   0  0  0  0  0  0  0  0  0  0  0  0
  126.4350  127.2130   59.3850 C   0  0  0  0  0  0  0  0  0  0  0  0
  127.3140  126.5620   60.2540 C   0  0  0  0  0  0  0  0  0  0  0  0
  127.6980  127.1950   61.4400 C   0  0  0  0  0  0  0  0  0  0  0  0
  127.2560  128.4940   61.7440 C   0  0  0  0  0  0  0  0  0  0  0  0
  127.6220  129.1840   62.8860 O   0  0  0  0  0  0  0  0  0  0  0  0
  128.1950  128.4740   63.9780 C   0  0  0  0  0  0  0  0  0  0  0  0
  127.8380  125.1640   59.9200 C   0  0  0  0  0  0  0  0  0  0  0  0
  129.5820  122.8621   65.5785 H   0  0  0  0  0  0  0  0  0  0  0  0
  128.6233  122.6437   64.0752 H   0  0  0  0  0  0  0  0  0  0  0  0
  130.3855  122.2954   64.0752 H   0  0  0  0  0  0  0  0  0  0  0  0
  129.9405  125.0232   64.9928 H   0  0  0  0  0  0  0  0  0  0  0  0
  130.8446  124.4556   63.5513 H   0  0  0  0  0  0  0  0  0  0  0  0
  129.0421  122.6724   59.8520 H   0  0  0  0  0  0  0  0  0  0  0  0
  130.2588  123.9273   59.2303 H   0  0  0  0  0  0  0  0  0  0  0  0
  131.8817  123.2226   60.5462 H   0  0  0  0  0  0  0  0  0  0  0  0
  130.7333  122.9478   61.9482 H   0  0  0  0  0  0  0  0  0  0  0  0
  130.8189  121.0527   59.6212 H   0  0  0  0  0  0  0  0  0  0  0  0
  130.1758  120.6671   62.5982 H   0  0  0  0  0  0  0  0  0  0  0  0
  128.9643  120.9273   61.2977 H   0  0  0  0  0  0  0  0  0  0  0  0
  129.9774  119.4440   61.2977 H   0  0  0  0  0  0  0  0  0  0  0  0
  132.5812  120.6251   62.0626 H   0  0  0  0  0  0  0  0  0  0  0  0
  132.5215  119.6823   60.5347 H   0  0  0  0  0  0  0  0  0  0  0  0
  133.1852  121.3515   60.5347 H   0  0  0  0  0  0  0  0  0  0  0  0
  129.4347  126.7181   61.1999 H   0  0  0  0  0  0  0  0  0  0  0  0
  130.5780  125.5027   61.9915 H   0  0  0  0  0  0  0  0  0  0  0  0
  131.8320  125.4050   60.0910 H   0  0  0  0  0  0  0  0  0  0  0  0
  128.9072  127.3940   58.9403 H   0  0  0  0  0  0  0  0  0  0  0  0
  129.9225  128.6299   59.7981 H   0  0  0  0  0  0  0  0  0  0  0  0
  130.4494  129.7336   57.8840 H   0  0  0  0  0  0  0  0  0  0  0  0
  130.5343  128.1978   56.9161 H   0  0  0  0  0  0  0  0  0  0  0  0
  128.6474  128.9658   55.9466 H   0  0  0  0  0  0  0  0  0  0  0  0
  127.8696  128.3512   57.4878 H   0  0  0  0  0  0  0  0  0  0  0  0
  131.3145  131.2802   56.4061 H   0  0  0  0  0  0  0  0  0  0  0  0
  133.4722  131.2503   57.6313 H   0  0  0  0  0  0  0  0  0  0  0  0
  134.6400  131.6547   62.1740 H   0  0  0  0  0  0  0  0  0  0  0  0
  132.5163  131.9479   63.3843 H   0  0  0  0  0  0  0  0  0  0  0  0
  129.1520  131.8503   60.1020 H   0  0  0  0  0  0  0  0  0  0  0  0
  126.2482  131.1214   56.5226 H   0  0  0  0  0  0  0  0  0  0  0  0
  126.1897  129.4795   57.3203 H   0  0  0  0  0  0  0  0  0  0  0  0
  125.0339  131.5484   58.4652 H   0  0  0  0  0  0  0  0  0  0  0  0
  126.0053  130.3381   59.4298 H   0  0  0  0  0  0  0  0  0  0  0  0
  127.1290  132.9210   58.5390 H   0  0  0  0  0  0  0  0  0  0  0  0
  127.8597  130.7816   61.8165 H   0  0  0  0  0  0  0  0  0  0  0  0
  126.5578  131.8510   62.4541 H   0  0  0  0  0  0  0  0  0  0  0  0
  125.2787  128.9972   58.9960 H   0  0  0  0  0  0  0  0  0  0  0  0
  126.1036  126.7117   58.4636 H   0  0  0  0  0  0  0  0  0  0  0  0
  128.3564  126.6680   62.1463 H   0  0  0  0  0  0  0  0  0  0  0  0
  127.8428  128.9104   64.9243 H   0  0  0  0  0  0  0  0  0  0  0  0
  127.8936  127.4173   63.9269 H   0  0  0  0  0  0  0  0  0  0  0  0
  129.2915  128.5454   63.9269 H   0  0  0  0  0  0  0  0  0  0  0  0
  126.9949  124.4625   60.0037 H   0  0  0  0  0  0  0  0  0  0  0  0
  128.2652  125.2474   58.9098 H   0  0  0  0  0  0  0  0  0  0  0  0
  1  2  1  0
  2  3  1  0
  3  4  1  0
  4  5  2  0
  4  6  1  0
  6  7  1  6
  7  8  1  0
  8  9  1  0
  9 10  1  0
  9 11  1  0
  6 12  1  0
 12 13  1  0
 13 14  1  0
 14 15  2  0
 14 16  1  0
 16 17  1  0
 17 18  1  0
 18 19  1  0
 19 20  1  0
 20 21  2  0
 20 22  1  0
 22 23  2  0
 23 24  1  0
 24 25  2  0
 25 26  1  0
 26 27  2  0
 27 28  1  0
 28 29  2  0
 29 30  1  0
 30 31  2  0
 19 32  1  0
 32 33  1  0
 33 34  1  0
 34 35  1  0
 35 36  2  0
 35 37  1  0
 37 38  1  0
 38 39  1  0
 39 40  2  0
 40 41  1  0
 41 42  2  0
 42 43  1  0
 43 44  2  0
 44 45  1  0
 45 46  1  0
 42 47  1  0
 47  6  1  0
 31 22  1  0
 44 39  1  0
 30 25  1  0
  1 48  1  0
  1 49  1  0
  1 50  1  0
  2 51  1  0
  2 52  1  0
  7 53  1  0
  7 54  1  0
  8 55  1  0
  8 56  1  0
  9 57  1  0
 10 58  1  0
 10 59  1  0
 10 60  1  0
 11 61  1  0
 11 62  1  0
 11 63  1  0
 12 64  1  0
 12 65  1  0
 13 66  1  0
 16 67  1  0
 16 68  1  0
 17 69  1  0
 17 70  1  0
 18 71  1  0
 18 72  1  0
 23 73  1  0
 24 74  1  0
 27 75  1  0
 28 76  1  0
 31 77  1  0
 32 78  1  0
 32 79  1  0
 33 80  1  0
 33 81  1  0
 34 82  1  0
 37 83  1  0
 37 84  1  0
 40 85  1  0
 41 86  1  0
 43 87  1  0
 46 88  1  0
 46 89  1  0
 46 90  1  0
 47 91  1  0
 47 92  1  0
M  END
>  <Binding energies>  (1) 
[-3.17]

>  <Ligand effiencies>  (1) 
[-0.06215686274509804]

>  <Interactions>  (1) 
["H-A:ALA:541:N:4891, V-B:ASP:366:CG:8184, V-B:ALA:541:CB:9864, H-A:TYR:531:OH:4795, V-A:TYR:484:CE2:4346, V-B:TYR:539:CE2:9848, V-B:GLU:543:CG:9879, V-A:ASN:362:CB:3176, V-A:TYR:539:CD1:4873, V-A:LEU:363:CD1:3189, H-B:ALA:541:N:9863, V-B:ASP:366:CB:8183, V-A:GLU:543:CD:4908, V-B:TYR:539:CD2:9846, V-A:SER:385:CB:3409, V-A:MET:535:CE:4835, V-B:GLU:543:CD:9880, V-A:LEU:475:CD2:4259, V-A:ASN:362:C:3172, H-A:LEU:363:N:3186, V-A:PRO:540:CB:4885, V-A:PRO:540:CA:4883, V-A:TYR:539:CE1:4875"]

$$$$
ZINC1775979962
     RDKit          3D

 91 95  0  0  0  0  0  0  0  0999 V2000
  128.6920  126.7430   66.7940 C   0  0  0  0  0  0  0  0  0  0  0  0
  129.7040  126.3500   65.6950 C   0  0  0  0  0  0  0  0  0  0  0  0
  129.0520  126.5230   64.3040 C   0  0  0  0  0  0  0  0  0  0  0  0
  130.2900  124.9180   65.8980 C   0  0  2  0  0  0  0  0  0  0  0  0
  131.7610  124.9110   65.9010 N   0  0  0  0  0  0  0  0  0  0  0  0
  132.6820  124.9560   64.9110 C   0  0  0  0  0  0  0  0  0  0  0  0
  133.8630  124.7350   65.1770 O   0  0  0  0  0  0  0  0  0  0  0  0
  132.3090  125.2510   63.5390 C   0  0  0  0  0  0  0  0  0  0  0  0
  131.5700  126.3730   63.1620 C   0  0  0  0  0  0  0  0  0  0  0  0
  131.2070  126.2950   61.4690 S   0  0  0  0  0  0  0  0  0  0  0  0
  132.0390  124.7680   61.4000 C   0  0  0  0  0  0  0  0  0  0  0  0
  132.5170  124.3820   62.5610 N   0  0  0  0  0  0  0  0  0  0  0  0
  132.2070  123.9420   60.1300 C   0  0  2  0  0  0  0  0  0  0  0  0
  133.0850  122.6890   60.3570 C   0  0  0  0  0  0  0  0  0  0  0  0
  132.2910  121.3870   60.3950 C   0  0  0  0  0  0  0  0  0  0  0  0
  132.7750  120.2500   59.7420 C   0  0  0  0  0  0  0  0  0  0  0  0
  132.0480  119.0640   59.7810 C   0  0  0  0  0  0  0  0  0  0  0  0
  130.8390  119.0180   60.4720 C   0  0  0  0  0  0  0  0  0  0  0  0
  130.3520  120.1480   61.1260 C   0  0  0  0  0  0  0  0  0  0  0  0
  131.0780  121.3340   61.0880 C   0  0  0  0  0  0  0  0  0  0  0  0
  132.7920  124.7750   59.0740 N   0  0  0  0  0  0  0  0  0  0  0  0
  132.1230  125.4860   58.1450 C   0  0  0  0  0  0  0  0  0  0  0  0
  132.7140  126.3120   57.4510 O   0  0  0  0  0  0  0  0  0  0  0  0
  130.6240  125.2150   57.8770 C   0  0  0  0  0  0  0  0  0  0  0  0
  129.8260  126.4220   58.1310 N   0  0  0  0  0  0  0  0  0  0  0  0
  130.6090  127.5160   58.7490 C   0  0  0  0  0  0  0  0  0  0  0  0
  129.8510  128.8900   58.8310 C   0  0  0  0  0  0  0  0  0  0  0  0
  128.6710  128.9090   57.8160 C   0  0  0  0  0  0  0  0  0  0  0  0
  129.2240  129.1380   60.2320 C   0  0  0  0  0  0  0  0  0  0  0  0
  130.7880  130.0120   58.5200 N   0  0  0  0  0  0  0  0  0  0  0  0
  130.2540  131.1010   57.6760 C   0  0  0  0  0  0  0  0  0  0  0  0
  131.2490  132.2720   57.5360 C   0  0  0  0  0  0  0  0  0  0  0  0
  132.4980  131.7980   57.0540 O   0  0  0  0  0  0  0  0  0  0  0  0
  133.0790  130.8440   57.9330 C   0  0  0  0  0  0  0  0  0  0  0  0
  132.1460  129.6240   58.0850 C   0  0  0  0  0  0  0  0  0  0  0  0
  128.6260  126.1430   58.9350 C   0  0  0  0  0  0  0  0  0  0  0  0
  128.9540  125.4320   60.2630 C   0  0  0  0  0  0  0  0  0  0  0  0
  128.5990  123.9350   60.2750 C   0  0  0  0  0  0  0  0  0  0  0  0
  127.4290  123.6060   61.0950 N   0  0  0  0  0  0  0  0  0  0  0  0
  127.3510  123.2040   62.3840 C   0  0  0  0  0  0  0  0  0  0  0  0
  126.2690  122.8490   62.8480 O   0  0  0  0  0  0  0  0  0  0  0  0
  128.5370  123.1640   63.2220 C   0  0  0  0  0  0  0  0  0  0  0  0
  129.4230  122.0880   63.2900 C   0  0  0  0  0  0  0  0  0  0  0  0
  130.6410  122.4070   64.4840 S   0  0  0  0  0  0  0  0  0  0  0  0
  129.8510  123.9190   64.8340 C   0  0  0  0  0  0  0  0  0  0  0  0
  128.7850  124.1240   64.0990 N   0  0  0  0  0  0  0  0  0  0  0  0
  129.1396  126.5692   67.7837 H   0  0  0  0  0  0  0  0  0  0  0  0
  128.4330  127.8071   66.6904 H   0  0  0  0  0  0  0  0  0  0  0  0
  127.7828  126.1326   66.6904 H   0  0  0  0  0  0  0  0  0  0  0  0
  130.5669  127.0284   65.7667 H   0  0  0  0  0  0  0  0  0  0  0  0
  127.9954  126.8034   64.4266 H   0  0  0  0  0  0  0  0  0  0  0  0
  129.5787  127.3125   63.7478 H   0  0  0  0  0  0  0  0  0  0  0  0
  129.1180  125.5763   63.7478 H   0  0  0  0  0  0  0  0  0  0  0  0
  129.8914  124.6130   66.8768 H   0  0  0  0  0  0  0  0  0  0  0  0
  132.1460  124.7010   66.8100 H   0  0  0  0  0  0  0  0  0  0  0  0
  131.2638  127.1851   63.8378 H   0  0  0  0  0  0  0  0  0  0  0  0
  131.2089  123.5926   59.8270 H   0  0  0  0  0  0  0  0  0  0  0  0
  133.8186  122.6255   59.5398 H   0  0  0  0  0  0  0  0  0  0  0  0
  133.5641  122.8041   61.3405 H   0  0  0  0  0  0  0  0  0  0  0  0
  133.7299  120.2926   59.1976 H   0  0  0  0  0  0  0  0  0  0  0  0
  132.4261  118.1670   59.2687 H   0  0  0  0  0  0  0  0  0  0  0  0
  130.2636  118.0810   60.5016 H   0  0  0  0  0  0  0  0  0  0  0  0
  129.3971  120.1024   61.6702 H   0  0  0  0  0  0  0  0  0  0  0  0
  130.6982  122.2290   61.6026 H   0  0  0  0  0  0  0  0  0  0  0  0
  133.7590  125.0260   59.2150 H   0  0  0  0  0  0  0  0  0  0  0  0
  130.4938  124.9098   56.8282 H   0  0  0  0  0  0  0  0  0  0  0  0
  130.2823  124.4160   58.5514 H   0  0  0  0  0  0  0  0  0  0  0  0
  130.8797  127.2108   59.7706 H   0  0  0  0  0  0  0  0  0  0  0  0
  131.4850  127.6785   58.1039 H   0  0  0  0  0  0  0  0  0  0  0  0
  127.7169  128.9244   58.3632 H   0  0  0  0  0  0  0  0  0  0  0  0
  128.7456  129.8061   57.1838 H   0  0  0  0  0  0  0  0  0  0  0  0
  128.7167  128.0100   57.1838 H   0  0  0  0  0  0  0  0  0  0  0  0
  129.9451  128.8528   61.0121 H   0  0  0  0  0  0  0  0  0  0  0  0
  128.9720  130.2035   60.3375 H   0  0  0  0  0  0  0  0  0  0  0  0
  128.3113  128.5332   60.3375 H   0  0  0  0  0  0  0  0  0  0  0  0
  130.0367  130.6994   56.6753 H   0  0  0  0  0  0  0  0  0  0  0  0
  129.3442  131.4871   58.1590 H   0  0  0  0  0  0  0  0  0  0  0  0
  130.8435  133.0112   56.8295 H   0  0  0  0  0  0  0  0  0  0  0  0
  131.3973  132.7374   58.5216 H   0  0  0  0  0  0  0  0  0  0  0  0
  134.0454  130.5140   57.5241 H   0  0  0  0  0  0  0  0  0  0  0  0
  133.2280  131.3078   58.9193 H   0  0  0  0  0  0  0  0  0  0  0  0
  132.0742  129.1097   57.1153 H   0  0  0  0  0  0  0  0  0  0  0  0
  132.5729  128.9657   58.8560 H   0  0  0  0  0  0  0  0  0  0  0  0
  128.1235  127.0953   59.1600 H   0  0  0  0  0  0  0  0  0  0  0  0
  127.9807  125.4723   58.3486 H   0  0  0  0  0  0  0  0  0  0  0  0
  130.0328  125.5333   60.4524 H   0  0  0  0  0  0  0  0  0  0  0  0
  128.3409  125.9110   61.0406 H   0  0  0  0  0  0  0  0  0  0  0  0
  128.3965  123.6193   59.2409 H   0  0  0  0  0  0  0  0  0  0  0  0
  129.4567  123.4081   60.7185 H   0  0  0  0  0  0  0  0  0  0  0  0
  126.5570  123.6090   60.5860 H   0  0  0  0  0  0  0  0  0  0  0  0
  129.3589  121.1755   62.6790 H   0  0  0  0  0  0  0  0  0  0  0  0
  1  2  1  0
  2  3  1  0
  2  4  1  0
  4  5  1  0
  5  6  1  0
  6  7  2  0
  6  8  1  0
  8  9  2  0
  9 10  1  0
 10 11  1  0
 11 12  2  0
 11 13  1  0
 13 14  1  0
 14 15  1  0
 15 16  2  0
 16 17  1  0
 17 18  2  0
 18 19  1  0
 19 20  2  0
 13 21  1  0
 21 22  1  0
 22 23  2  0
 22 24  1  0
 24 25  1  0
 25 26  1  0
 26 27  1  0
 27 28  1  0
 27 29  1  0
 27 30  1  0
 30 31  1  0
 31 32  1  0
 32 33  1  0
 33 34  1  0
 34 35  1  0
 25 36  1  0
 36 37  1  0
 37 38  1  0
 38 39  1  0
 39 40  1  0
 40 41  2  0
 40 42  1  0
 42 43  2  0
 43 44  1  0
 44 45  1  0
 45 46  2  0
 45  4  1  0
 12  8  1  0
 20 15  1  0
 35 30  1  0
 46 42  1  0
  1 47  1  0
  1 48  1  0
  1 49  1  0
  2 50  1  0
  3 51  1  0
  3 52  1  0
  3 53  1  0
  4 54  1  1
  5 55  1  0
  9 56  1  0
 13 57  1  6
 14 58  1  0
 14 59  1  0
 16 60  1  0
 17 61  1  0
 18 62  1  0
 19 63  1  0
 20 64  1  0
 21 65  1  0
 24 66  1  0
 24 67  1  0
 26 68  1  0
 26 69  1  0
 28 70  1  0
 28 71  1  0
 28 72  1  0
 29 73  1  0
 29 74  1  0
 29 75  1  0
 31 76  1  0
 31 77  1  0
 32 78  1  0
 32 79  1  0
 34 80  1  0
 34 81  1  0
 35 82  1  0
 35 83  1  0
 36 84  1  0
 36 85  1  0
 37 86  1  0
 37 87  1  0
 38 88  1  0
 38 89  1  0
 39 90  1  0
 43 91  1  0
M  END
>  <Binding energies>  (1) 
[-4.69]

>  <Ligand effiencies>  (1) 
[-0.0919607843137255]

>  <Interactions>  (1) 
["V-A:ILE:369:CG2:3237, V-A:ASP:366:CA:3210, V-B:PRO:540:CA:9855, V-B:GLU:543:CB:9878, V-B:ALA:541:CB:9864, H-A:TYR:531:OH:4795, V-B:TYR:539:CE2:9848, V-A:TYR:484:CE2:4346, V-B:GLU:543:CG:9879, V-B:TYR:539:C:9839, V-A:ASP:366:CG:3213, V-A:LEU:363:CD1:3189, V-B:TYR:539:CZ:9849, H-B:GLU:543:OE1:9881, V-A:TYR:531:CE2:4793, H-B:TYR:539:OH:9850, H-B:ALA:541:N:9863, V-B:TYR:539:CB:9843, V-A:GLU:543:CD:4908, V-A:TYR:484:CZ:4347, H-A:GLY:454:N:4050, V-B:TYR:539:CD2:9846, V-A:TYR:531:CZ:4794, V-A:SER:385:CB:3409, V-B:GLU:543:CD:9880, V-A:ASP:366:CB:3212, V-A:LEU:475:CD2:4259, H-A:ARG:545:NH2:4928, V-A:ARG:545:CZ:4926, V-B:TYR:539:CG:9844, H-A:ASP:366:O:3209, H-A:ASP:366:OD1:3214, V-A:PRO:540:N:4884, V-A:PRO:540:CB:4885, V-A:PRO:540:CA:4883, V-A:LEU:363:CA:3185, H-A:ARG:545:NE:4924, V-A:HIS:383:NE2:3394, H-A:TYR:484:OH:4348"]

$$$$
ZINC1775981431
     RDKit          3D

 87 90  0  0  0  0  0  0  0  0999 V2000
  127.7500  122.9180   59.0330 C   0  0  0  0  0  0  0  0  0  0  0  0
  128.4750  122.5530   60.3320 C   0  0  0  0  0  0  0  0  0  0  0  0
  129.8410  122.9290   60.2230 O   0  0  0  0  0  0  0  0  0  0  0  0
  130.5840  123.1910   61.3250 C   0  0  0  0  0  0  0  0  0  0  0  0
  131.1250  122.3290   62.0220 O   0  0  0  0  0  0  0  0  0  0  0  0
  130.7070  124.7200   61.6330 C   0  0  2  0  0  0  0  0  0  0  0  0
  132.1920  125.2070   61.4550 C   0  0  0  0  0  0  0  0  0  0  0  0
  133.2100  124.8460   62.5690 C   0  0  0  0  0  0  0  0  0  0  0  0
  133.6600  123.4360   62.8440 C   0  0  0  0  0  0  0  0  0  0  0  0
  134.6110  124.4390   62.2020 C   0  0  0  0  0  0  0  0  0  0  0  0
  130.2470  124.9690   63.1110 C   0  0  0  0  0  0  0  0  0  0  0  0
  129.8400  123.8040   63.9090 N   0  0  0  0  0  0  0  0  0  0  0  0
  130.0130  123.6010   65.2280 C   0  0  0  0  0  0  0  0  0  0  0  0
  129.7580  122.5040   65.7200 O   0  0  0  0  0  0  0  0  0  0  0  0
  130.5180  124.7290   66.1520 C   0  0  0  0  0  0  0  0  0  0  0  0
  129.4860  125.1980   67.2020 C   0  0  0  0  0  0  0  0  0  0  0  0
  129.9890  126.3040   68.1600 C   0  0  0  0  0  0  0  0  0  0  0  0
  129.3100  127.6040   67.9870 N   0  0  0  0  0  0  0  0  0  0  0  0
  129.3120  128.6100   68.9150 C   0  0  0  0  0  0  0  0  0  0  0  0
  128.8940  129.7410   68.6460 O   0  0  0  0  0  0  0  0  0  0  0  0
  129.8360  128.3130   70.2390 C   0  0  0  0  0  0  0  0  0  0  0  0
  129.0440  127.9840   71.2830 C   0  0  0  0  0  0  0  0  0  0  0  0
  129.5020  127.6410   72.6460 C   0  0  0  0  0  0  0  0  0  0  0  0
  130.6730  126.9050   72.8780 C   0  0  0  0  0  0  0  0  0  0  0  0
  131.0670  126.6030   74.1800 C   0  0  0  0  0  0  0  0  0  0  0  0
  130.2930  127.0370   75.2530 C   0  0  0  0  0  0  0  0  0  0  0  0
  129.1290  127.7690   75.0360 C   0  0  0  0  0  0  0  0  0  0  0  0
  128.7360  128.0690   73.7350 C   0  0  0  0  0  0  0  0  0  0  0  0
  128.3830  127.6240   66.8360 C   0  0  0  0  0  0  0  0  0  0  0  0
  127.3130  128.7440   66.8410 C   0  0  0  0  0  0  0  0  0  0  0  0
  127.8140  129.9790   66.2340 N   0  0  0  0  0  0  0  0  0  0  0  0
  128.1120  130.2260   64.9430 C   0  0  0  0  0  0  0  0  0  0  0  0
  128.5760  131.3190   64.6260 O   0  0  0  0  0  0  0  0  0  0  0  0
  127.9320  129.1590   63.8470 C   0  0  0  0  0  0  0  0  0  0  0  0
  128.0890  129.7430   62.5550 O   0  0  0  0  0  0  0  0  0  0  0  0
  128.9960  129.1440   61.7130 C   0  0  0  0  0  0  0  0  0  0  0  0
  128.8950  127.7630   61.5390 C   0  0  0  0  0  0  0  0  0  0  0  0
  129.8310  127.0620   60.7740 C   0  0  0  0  0  0  0  0  0  0  0  0
  130.8450  127.7720   60.1290 C   0  0  0  0  0  0  0  0  0  0  0  0
  130.9470  129.1530   60.2850 C   0  0  0  0  0  0  0  0  0  0  0  0
  130.0370  129.8570   61.0930 C   0  0  0  0  0  0  0  0  0  0  0  0
  130.1140  131.2180   61.3280 O   0  0  0  0  0  0  0  0  0  0  0  0
  131.0980  131.7200   62.2260 C   0  0  0  0  0  0  0  0  0  0  0  0
  129.7440  125.5350   60.6800 C   0  0  0  0  0  0  0  0  0  0  0  0
  126.7909  123.4009   59.2716 H   0  0  0  0  0  0  0  0  0  0  0  0
  128.3731  123.6098   58.4473 H   0  0  0  0  0  0  0  0  0  0  0  0
  127.5654  122.0054   58.4473 H   0  0  0  0  0  0  0  0  0  0  0  0
  128.0120  123.0870   61.1749 H   0  0  0  0  0  0  0  0  0  0  0  0
  128.4014  121.4693   60.5058 H   0  0  0  0  0  0  0  0  0  0  0  0
  132.5680  124.7768   60.5150 H   0  0  0  0  0  0  0  0  0  0  0  0
  132.1288  126.3048   61.4826 H   0  0  0  0  0  0  0  0  0  0  0  0
  132.7502  125.6265   63.1931 H   0  0  0  0  0  0  0  0  0  0  0  0
  133.8269  123.1025   63.8789 H   0  0  0  0  0  0  0  0  0  0  0  0
  133.2900  122.4336   62.5826 H   0  0  0  0  0  0  0  0  0  0  0  0
  135.4660  124.8308   62.7725 H   0  0  0  0  0  0  0  0  0  0  0  0
  135.2150  124.4634   61.2830 H   0  0  0  0  0  0  0  0  0  0  0  0
  131.0837  125.4511   63.6379 H   0  0  0  0  0  0  0  0  0  0  0  0
  129.3325  125.5731   63.0177 H   0  0  0  0  0  0  0  0  0  0  0  0
  129.4960  123.0210   63.3720 H   0  0  0  0  0  0  0  0  0  0  0  0
  131.4101  124.3661   66.6834 H   0  0  0  0  0  0  0  0  0  0  0  0
  130.7285  125.5950   65.5073 H   0  0  0  0  0  0  0  0  0  0  0  0
  128.6053  125.5834   66.6673 H   0  0  0  0  0  0  0  0  0  0  0  0
  129.2648  124.3225   67.8301 H   0  0  0  0  0  0  0  0  0  0  0  0
  129.8285  125.9650   69.1941 H   0  0  0  0  0  0  0  0  0  0  0  0
  131.0517  126.4669   67.9274 H   0  0  0  0  0  0  0  0  0  0  0  0
  130.9236  128.3582   70.3970 H   0  0  0  0  0  0  0  0  0  0  0  0
  127.9591  127.9701   71.1022 H   0  0  0  0  0  0  0  0  0  0  0  0
  131.2832  126.5646   72.0284 H   0  0  0  0  0  0  0  0  0  0  0  0
  131.9852  126.0244   74.3593 H   0  0  0  0  0  0  0  0  0  0  0  0
  130.6040  126.7994   76.2810 H   0  0  0  0  0  0  0  0  0  0  0  0
  128.5227  128.1087   75.8887 H   0  0  0  0  0  0  0  0  0  0  0  0
  127.8162  128.6470   73.5620 H   0  0  0  0  0  0  0  0  0  0  0  0
  128.9846  127.7382   65.9222 H   0  0  0  0  0  0  0  0  0  0  0  0
  127.8219  126.6796   66.8926 H   0  0  0  0  0  0  0  0  0  0  0  0
  126.4350  128.3999   66.2747 H   0  0  0  0  0  0  0  0  0  0  0  0
  127.0497  128.9600   67.8870 H   0  0  0  0  0  0  0  0  0  0  0  0
  127.9890  130.7280   66.8880 H   0  0  0  0  0  0  0  0  0  0  0  0
  128.6860  128.3696   63.9822 H   0  0  0  0  0  0  0  0  0  0  0  0
  126.9209  128.7329   63.9259 H   0  0  0  0  0  0  0  0  0  0  0  0
  128.0650  127.2174   62.0118 H   0  0  0  0  0  0  0  0  0  0  0  0
  131.5676  127.2384   59.4940 H   0  0  0  0  0  0  0  0  0  0  0  0
  131.7502  129.6996   59.7691 H   0  0  0  0  0  0  0  0  0  0  0  0
  130.7687  131.5520   63.2620 H   0  0  0  0  0  0  0  0  0  0  0  0
  132.0510  131.1979   62.0549 H   0  0  0  0  0  0  0  0  0  0  0  0
  131.2347  132.7980   62.0549 H   0  0  0  0  0  0  0  0  0  0  0  0
  128.7106  125.2426   60.9178 H   0  0  0  0  0  0  0  0  0  0  0  0
  130.0620  125.2849   59.6571 H   0  0  0  0  0  0  0  0  0  0  0  0
  1  2  1  0
  2  3  1  0
  3  4  1  0
  4  5  2  0
  4  6  1  0
  6  7  1  1
  7  8  1  0
  8  9  1  0
  9 10  1  0
  6 11  1  0
 11 12  1  0
 12 13  1  0
 13 14  2  0
 13 15  1  0
 15 16  1  0
 16 17  1  0
 17 18  1  0
 18 19  1  0
 19 20  2  0
 19 21  1  0
 21 22  2  0
 22 23  1  0
 23 24  2  0
 24 25  1  0
 25 26  2  0
 26 27  1  0
 27 28  2  0
 18 29  1  0
 29 30  1  0
 30 31  1  0
 31 32  1  0
 32 33  2  0
 32 34  1  0
 34 35  1  0
 35 36  1  0
 36 37  2  0
 37 38  1  0
 38 39  2  0
 39 40  1  0
 40 41  2  0
 41 42  1  0
 42 43  1  0
 38 44  1  0
 44  6  1  0
 10  8  1  0
 28 23  1  0
 41 36  1  0
  1 45  1  0
  1 46  1  0
  1 47  1  0
  2 48  1  0
  2 49  1  0
  7 50  1  0
  7 51  1  0
  8 52  1  0
  9 53  1  0
  9 54  1  0
 10 55  1  0
 10 56  1  0
 11 57  1  0
 11 58  1  0
 12 59  1  0
 15 60  1  0
 15 61  1  0
 16 62  1  0
 16 63  1  0
 17 64  1  0
 17 65  1  0
 21 66  1  0
 22 67  1  0
 24 68  1  0
 25 69  1  0
 26 70  1  0
 27 71  1  0
 28 72  1  0
 29 73  1  0
 29 74  1  0
 30 75  1  0
 30 76  1  0
 31 77  1  0
 34 78  1  0
 34 79  1  0
 37 80  1  0
 39 81  1  0
 40 82  1  0
 43 83  1  0
 43 84  1  0
 43 85  1  0
 44 86  1  0
 44 87  1  0
M  END
>  <Binding energies>  (1) 
[-3.14]

>  <Ligand effiencies>  (1) 
[-0.06541666666666666]

>  <Interactions>  (1) 
["V-B:PRO:540:CA:9855, V-A:GLU:543:CA:4904, V-A:GLY:454:CA:4049, V-B:HIS:456:CD2:9039, V-A:GLU:543:C:4902, V-B:GLU:543:CB:9878, V-B:TYR:539:CE2:9848, V-A:TYR:484:CE2:4346, V-B:GLU:543:CG:9879, V-B:TYR:539:C:9839, V-A:ASP:366:CG:3213, V-A:HIS:456:CD2:4068, V-B:TYR:484:CE2:9317, V-A:GLU:543:CD:4908, V-A:TYR:484:CZ:4347, H-B:TYR:484:OH:9319, V-B:HIS:456:CE1:9041, V-B:GLU:543:CA:9876, V-A:GLY:453:C:4042, V-B:PRO:540:N:9856, V-B:TYR:484:CZ:9318, V-A:ILE:369:CD1:3239, V-A:HIS:456:CE1:4070, V-B:TYR:539:CD2:9846, V-A:GLU:543:CG:4907, V-B:GLU:543:CD:9880, V-A:ARG:545:CZ:4926, V-A:GLU:543:CB:4906, V-A:HIS:456:CG:4066, V-A:GLY:453:CA:4044, V-A:PRO:540:CA:4883, H-A:TYR:484:OH:4348"]

$$$$
ZINC1775981774
     RDKit          3D

 94 97  0  0  0  0  0  0  0  0999 V2000
  133.8460  123.9610   58.4810 C   0  0  0  0  0  0  0  0  0  0  0  0
  133.2850  125.3610   58.7340 C   0  0  0  0  0  0  0  0  0  0  0  0
  132.9320  125.4820   60.1050 O   0  0  0  0  0  0  0  0  0  0  0  0
  133.4020  124.6010   61.0220 C   0  0  0  0  0  0  0  0  0  0  0  0
  134.5680  124.5700   61.4240 O   0  0  0  0  0  0  0  0  0  0  0  0
  132.3310  123.5750   61.5230 C   0  0  1  0  0  0  0  0  0  0  0  0
  132.9380  122.1280   61.4080 C   0  0  0  0  0  0  0  0  0  0  0  0
  132.2010  121.1170   60.4930 C   0  0  0  0  0  0  0  0  0  0  0  0
  131.0940  120.2990   61.2030 C   0  0  0  0  0  0  0  0  0  0  0  0
  130.9870  118.8830   60.6070 C   0  0  0  0  0  0  0  0  0  0  0  0
  129.7230  121.0030   61.1830 C   0  0  0  0  0  0  0  0  0  0  0  0
  131.9040  123.8680   63.0020 C   0  0  0  0  0  0  0  0  0  0  0  0
  131.1370  122.7920   63.6390 N   0  0  0  0  0  0  0  0  0  0  0  0
  129.9340  122.9020   64.2310 C   0  0  0  0  0  0  0  0  0  0  0  0
  129.4300  121.9390   64.8040 O   0  0  0  0  0  0  0  0  0  0  0  0
  129.1660  124.2360   64.1940 C   0  0  0  0  0  0  0  0  0  0  0  0
  130.0770  125.4430   64.4870 C   0  0  0  0  0  0  0  0  0  0  0  0
  129.9840  125.9010   65.9590 C   0  0  0  0  0  0  0  0  0  0  0  0
  128.9830  126.9570   66.2130 N   0  0  0  0  0  0  0  0  0  0  0  0
  128.5280  127.3160   67.4490 C   0  0  0  0  0  0  0  0  0  0  0  0
  127.3410  127.5120   67.7120 O   0  0  0  0  0  0  0  0  0  0  0  0
  129.4980  127.4690   68.4980 C   0  0  0  0  0  0  0  0  0  0  0  0
  130.8640  127.7070   68.3110 C   0  0  0  0  0  0  0  0  0  0  0  0
  131.5570  127.8090   69.4220 N   0  0  0  0  0  0  0  0  0  0  0  0
  130.6540  127.6270   70.4080 N   0  0  0  0  0  0  0  0  0  0  0  0
  130.9560  127.6550   71.7440 C   0  0  0  0  0  0  0  0  0  0  0  0
  129.9340  127.4580   72.6640 C   0  0  0  0  0  0  0  0  0  0  0  0
  128.6330  127.2380   72.2200 C   0  0  0  0  0  0  0  0  0  0  0  0
  128.3150  127.2080   70.8570 C   0  0  0  0  0  0  0  0  0  0  0  0
  126.8700  126.9770   70.4460 C   0  0  0  0  0  0  0  0  0  0  0  0
  129.3540  127.4050   69.9140 C   0  0  0  0  0  0  0  0  0  0  0  0
  128.6500  127.7820   65.0390 C   0  0  0  0  0  0  0  0  0  0  0  0
  128.3840  129.2580   65.3980 C   0  0  0  0  0  0  0  0  0  0  0  0
  127.5430  129.9660   64.4370 N   0  0  0  0  0  0  0  0  0  0  0  0
  126.9500  129.4600   63.3400 C   0  0  0  0  0  0  0  0  0  0  0  0
  126.3990  130.2060   62.5340 O   0  0  0  0  0  0  0  0  0  0  0  0
  126.9460  127.9430   63.0780 C   0  0  0  0  0  0  0  0  0  0  0  0
  127.2070  127.7010   61.6950 O   0  0  0  0  0  0  0  0  0  0  0  0
  128.1620  126.7430   61.4400 C   0  0  0  0  0  0  0  0  0  0  0  0
  127.7700  125.4040   61.3640 C   0  0  0  0  0  0  0  0  0  0  0  0
  128.7070  124.4100   61.0950 C   0  0  0  0  0  0  0  0  0  0  0  0
  130.0490  124.7440   60.8970 C   0  0  0  0  0  0  0  0  0  0  0  0
  130.4450  126.0810   61.0050 C   0  0  0  0  0  0  0  0  0  0  0  0
  129.5110  127.0950   61.2750 C   0  0  0  0  0  0  0  0  0  0  0  0
  129.8370  128.4350   61.3800 O   0  0  0  0  0  0  0  0  0  0  0  0
  130.8910  128.9630   60.5810 C   0  0  0  0  0  0  0  0  0  0  0  0
  131.0870  123.6680   60.5680 C   0  0  0  0  0  0  0  0  0  0  0  0
  134.0443  123.4661   59.4431 H   0  0  0  0  0  0  0  0  0  0  0  0
  133.1149  123.3709   57.9089 H   0  0  0  0  0  0  0  0  0  0  0  0
  134.7823  124.0390   57.9089 H   0  0  0  0  0  0  0  0  0  0  0  0
  134.0467  126.1136   58.4824 H   0  0  0  0  0  0  0  0  0  0  0  0
  132.3951  125.5213   58.1076 H   0  0  0  0  0  0  0  0  0  0  0  0
  133.9649  122.2301   61.0273 H   0  0  0  0  0  0  0  0  0  0  0  0
  132.8532  121.7057   62.4202 H   0  0  0  0  0  0  0  0  0  0  0  0
  131.7388  121.6755   59.6657 H   0  0  0  0  0  0  0  0  0  0  0  0
  132.9564  120.3932   60.1532 H   0  0  0  0  0  0  0  0  0  0  0  0
  131.3942  120.2185   62.2582 H   0  0  0  0  0  0  0  0  0  0  0  0
  130.9313  118.1457   61.4214 H   0  0  0  0  0  0  0  0  0  0  0  0
  130.0811  118.8136   59.9870 H   0  0  0  0  0  0  0  0  0  0  0  0
  131.8722  118.6783   59.9870 H   0  0  0  0  0  0  0  0  0  0  0  0
  129.3849  121.1766   62.2152 H   0  0  0  0  0  0  0  0  0  0  0  0
  129.8131  121.9664   60.6597 H   0  0  0  0  0  0  0  0  0  0  0  0
  128.9926  120.3684   60.6597 H   0  0  0  0  0  0  0  0  0  0  0  0
  132.8147  124.0382   63.5951 H   0  0  0  0  0  0  0  0  0  0  0  0
  131.2420  124.7458   62.9681 H   0  0  0  0  0  0  0  0  0  0  0  0
  131.5880  121.8900   63.6630 H   0  0  0  0  0  0  0  0  0  0  0  0
  128.7228  124.3615   63.1951 H   0  0  0  0  0  0  0  0  0  0  0  0
  128.3923  124.2008   64.9751 H   0  0  0  0  0  0  0  0  0  0  0  0
  131.1179  125.1624   64.2685 H   0  0  0  0  0  0  0  0  0  0  0  0
  129.7455  126.2780   63.8522 H   0  0  0  0  0  0  0  0  0  0  0  0
  129.7242  125.0270   66.5744 H   0  0  0  0  0  0  0  0  0  0  0  0
  130.9633  126.3325   66.2134 H   0  0  0  0  0  0  0  0  0  0  0  0
  131.3204  127.8010   67.3146 H   0  0  0  0  0  0  0  0  0  0  0  0
  131.9881  127.8301   72.0818 H   0  0  0  0  0  0  0  0  0  0  0  0
  130.1524  127.4758   73.7420 H   0  0  0  0  0  0  0  0  0  0  0  0
  127.8337  127.0836   72.9598 H   0  0  0  0  0  0  0  0  0  0  0  0
  126.2445  126.8770   71.3453 H   0  0  0  0  0  0  0  0  0  0  0  0
  126.5181  127.8303   69.8476 H   0  0  0  0  0  0  0  0  0  0  0  0
  126.8017  126.0565   69.8476 H   0  0  0  0  0  0  0  0  0  0  0  0
  129.4902  127.7392   64.3303 H   0  0  0  0  0  0  0  0  0  0  0  0
  127.7251  127.3768   64.6027 H   0  0  0  0  0  0  0  0  0  0  0  0
  127.8884  129.2903   66.3795 H   0  0  0  0  0  0  0  0  0  0  0  0
  129.3605  129.7644   65.3965 H   0  0  0  0  0  0  0  0  0  0  0  0
  127.4870  130.9660   64.5690 H   0  0  0  0  0  0  0  0  0  0  0  0
  127.7252  127.4629   63.6882 H   0  0  0  0  0  0  0  0  0  0  0  0
  125.9639  127.5260   63.3456 H   0  0  0  0  0  0  0  0  0  0  0  0
  126.7149  125.1336   61.5176 H   0  0  0  0  0  0  0  0  0  0  0  0
  128.3896  123.3583   61.0382 H   0  0  0  0  0  0  0  0  0  0  0  0
  131.5056  126.3430   60.8764 H   0  0  0  0  0  0  0  0  0  0  0  0
  131.6826  129.3596   61.2338 H   0  0  0  0  0  0  0  0  0  0  0  0
  131.3045  128.1656   59.9460 H   0  0  0  0  0  0  0  0  0  0  0  0
  130.5000  129.7717   59.9460 H   0  0  0  0  0  0  0  0  0  0  0  0
  130.5763  122.6940   60.5895 H   0  0  0  0  0  0  0  0  0  0  0  0
  131.4955  123.9498   59.5863 H   0  0  0  0  0  0  0  0  0  0  0  0
  1  2  1  0
  2  3  1  0
  3  4  1  0
  4  5  2  0
  4  6  1  0
  6  7  1  1
  7  8  1  0
  8  9  1  0
  9 10  1  0
  9 11  1  0
  6 12  1  0
 12 13  1  0
 13 14  1  0
 14 15  2  0
 14 16  1  0
 16 17  1  0
 17 18  1  0
 18 19  1  0
 19 20  1  0
 20 21  2  0
 20 22  1  0
 22 23  1  0
 23 24  2  0
 24 25  1  0
 25 26  1  0
 26 27  2  0
 27 28  1  0
 28 29  2  0
 29 30  1  0
 29 31  1  0
 19 32  1  0
 32 33  1  0
 33 34  1  0
 34 35  1  0
 35 36  2  0
 35 37  1  0
 37 38  1  0
 38 39  1  0
 39 40  2  0
 40 41  1  0
 41 42  2  0
 42 43  1  0
 43 44  2  0
 44 45  1  0
 45 46  1  0
 42 47  1  0
 47  6  1  0
 31 22  2  0
 44 39  1  0
 31 25  1  0
  1 48  1  0
  1 49  1  0
  1 50  1  0
  2 51  1  0
  2 52  1  0
  7 53  1  0
  7 54  1  0
  8 55  1  0
  8 56  1  0
  9 57  1  0
 10 58  1  0
 10 59  1  0
 10 60  1  0
 11 61  1  0
 11 62  1  0
 11 63  1  0
 12 64  1  0
 12 65  1  0
 13 66  1  0
 16 67  1  0
 16 68  1  0
 17 69  1  0
 17 70  1  0
 18 71  1  0
 18 72  1  0
 23 73  1  0
 26 74  1  0
 27 75  1  0
 28 76  1  0
 30 77  1  0
 30 78  1  0
 30 79  1  0
 32 80  1  0
 32 81  1  0
 33 82  1  0
 33 83  1  0
 34 84  1  0
 37 85  1  0
 37 86  1  0
 40 87  1  0
 41 88  1  0
 43 89  1  0
 46 90  1  0
 46 91  1  0
 46 92  1  0
 47 93  1  0
 47 94  1  0
M  END
>  <Binding energies>  (1) 
[-3.1]

>  <Ligand effiencies>  (1) 
[-0.060784313725490195]

>  <Interactions>  (1) 
["V-A:ILE:369:CG2:3237, V-A:ASP:366:CA:3210, V-B:GLU:543:C:9874, V-A:ILE:369:CB:3236, V-B:HIS:456:CD2:9039, V-B:GLU:543:CB:9878, V-B:ALA:541:CB:9864, V-B:TYR:539:CE2:9848, V-B:GLU:543:CG:9879, V-A:GLY:544:C:4912, V-A:ASP:366:CG:3213, H-A:ARG:545:N:4920, V-A:HIS:456:CD2:4068, V-B:TYR:539:CZ:9849, V-A:GLU:543:CD:4908, H-B:TYR:484:OH:9319, V-A:ARG:545:CG:4922, V-B:HIS:456:CE1:9041, V-A:HIS:456:CE1:4070, V-A:ASP:366:C:3208, V-B:GLY:544:C:9884, V-B:TYR:539:CD2:9846, V-A:GLU:543:CG:4907, V-B:GLY:544:CA:9886, V-B:GLU:543:CD:9880, V-B:HIS:456:CG:9037, V-A:ASP:366:CB:3212, V-A:LEU:475:CD2:4259, V-A:GLU:543:CB:4906, H-A:HIS:456:ND1:4067, H-A:TYR:484:OH:4348"]

$$$$
ZINC1775983082
     RDKit          3D

 89 93  0  0  0  0  0  0  0  0999 V2000
  125.8070  124.6470   57.3330 C   0  0  0  0  0  0  0  0  0  0  0  0
  126.8610  123.6650   56.7910 C   0  0  0  0  0  0  0  0  0  0  0  0
  126.4620  122.2100   57.1160 C   0  0  0  0  0  0  0  0  0  0  0  0
  128.2760  124.0290   57.3130 C   0  0  0  0  0  0  0  0  0  0  0  0
  128.3510  125.2480   58.2840 C   0  0  2  0  0  0  0  0  0  0  0  0
  129.1650  126.3430   57.7310 N   0  0  0  0  0  0  0  0  0  0  0  0
  128.7880  127.5690   57.3180 C   0  0  0  0  0  0  0  0  0  0  0  0
  129.6400  128.4060   57.0210 O   0  0  0  0  0  0  0  0  0  0  0  0
  127.2920  127.8940   57.1610 C   0  0  0  0  0  0  0  0  0  0  0  0
  126.5590  128.3660   58.4380 C   0  0  0  0  0  0  0  0  0  0  0  0
  127.4620  128.3650   59.6890 C   0  0  0  0  0  0  0  0  0  0  0  0
  128.4100  129.4950   59.7620 N   0  0  0  0  0  0  0  0  0  0  0  0
  128.1350  130.6840   59.1620 C   0  0  0  0  0  0  0  0  0  0  0  0
  128.0680  130.7920   57.9340 O   0  0  0  0  0  0  0  0  0  0  0  0
  127.9050  131.9250   60.0640 C   0  0  0  0  0  0  0  0  0  0  0  0
  128.8650  131.9960   61.1730 N   0  0  0  0  0  0  0  0  0  0  0  0
  128.4990  132.1110   62.5660 C   0  0  0  0  0  0  0  0  0  0  0  0
  129.8300  132.2040   63.2770 C   0  0  0  0  0  0  0  0  0  0  0  0
  130.7610  132.3720   62.2290 O   0  0  0  0  0  0  0  0  0  0  0  0
  130.2280  132.2220   60.9970 C   0  0  0  0  0  0  0  0  0  0  0  0
  130.9010  132.2770   59.9680 O   0  0  0  0  0  0  0  0  0  0  0  0
  129.6150  129.2480   60.5700 C   0  0  0  0  0  0  0  0  0  0  0  0
  130.4520  128.0550   60.0650 C   0  0  0  0  0  0  0  0  0  0  0  0
  131.6810  128.5020   59.2450 C   0  0  0  0  0  0  0  0  0  0  0  0
  131.9360  127.6760   58.0620 N   0  0  0  0  0  0  0  0  0  0  0  0
  132.2410  126.3590   57.9760 C   0  0  0  0  0  0  0  0  0  0  0  0
  132.5640  125.8680   56.8950 O   0  0  0  0  0  0  0  0  0  0  0  0
  132.2150  125.5240   59.1640 C   0  0  0  0  0  0  0  0  0  0  0  0
  132.0110  124.1460   59.1560 C   0  0  0  0  0  0  0  0  0  0  0  0
  131.9720  123.5570   60.7870 S   0  0  0  0  0  0  0  0  0  0  0  0
  132.1530  125.1960   61.3580 C   0  0  0  0  0  0  0  0  0  0  0  0
  132.2650  126.0610   60.3720 N   0  0  0  0  0  0  0  0  0  0  0  0
  132.1810  125.6200   62.8350 C   0  0  2  0  0  0  0  0  0  0  0  0
  132.3140  124.4390   63.8320 C   0  0  0  0  0  0  0  0  0  0  0  0
  131.4520  124.5840   65.0820 C   0  0  0  0  0  0  0  0  0  0  0  0
  131.7930  125.5290   66.0520 C   0  0  0  0  0  0  0  0  0  0  0  0
  130.9970  125.6870   67.1820 C   0  0  0  0  0  0  0  0  0  0  0  0
  129.8630  124.8930   67.3430 C   0  0  0  0  0  0  0  0  0  0  0  0
  129.5220  123.9400   66.3850 C   0  0  0  0  0  0  0  0  0  0  0  0
  130.3190  123.7830   65.2540 C   0  0  0  0  0  0  0  0  0  0  0  0
  131.0090  126.4560   63.1580 N   0  0  0  0  0  0  0  0  0  0  0  0
  129.7010  126.2520   62.8850 C   0  0  0  0  0  0  0  0  0  0  0  0
  128.8270  126.8370   63.5220 O   0  0  0  0  0  0  0  0  0  0  0  0
  129.3270  125.3530   61.8170 C   0  0  0  0  0  0  0  0  0  0  0  0
  129.0420  124.0020   61.9890 C   0  0  0  0  0  0  0  0  0  0  0  0
  128.5250  123.3320   60.4790 S   0  0  0  0  0  0  0  0  0  0  0  0
  128.6720  124.9120   59.7510 C   0  0  0  0  0  0  0  0  0  0  0  0
  129.0900  125.8260   60.6020 N   0  0  0  0  0  0  0  0  0  0  0  0
  125.8231  124.6320   58.4328 H   0  0  0  0  0  0  0  0  0  0  0  0
  126.0346  125.6625   56.9768 H   0  0  0  0  0  0  0  0  0  0  0  0
  124.8101  124.3483   56.9768 H   0  0  0  0  0  0  0  0  0  0  0  0
  126.8992  123.7505   55.6950 H   0  0  0  0  0  0  0  0  0  0  0  0
  126.4250  122.0749   58.2070 H   0  0  0  0  0  0  0  0  0  0  0  0
  125.4722  121.9965   56.6863 H   0  0  0  0  0  0  0  0  0  0  0  0
  127.2045  121.5215   56.6863 H   0  0  0  0  0  0  0  0  0  0  0  0
  128.6762  123.1515   57.8420 H   0  0  0  0  0  0  0  0  0  0  0  0
  128.8555  124.3199   56.4245 H   0  0  0  0  0  0  0  0  0  0  0  0
  127.3174  125.6187   58.3487 H   0  0  0  0  0  0  0  0  0  0  0  0
  130.1560  126.1510   57.7080 H   0  0  0  0  0  0  0  0  0  0  0  0
  127.1986  128.6893   56.4069 H   0  0  0  0  0  0  0  0  0  0  0  0
  126.8122  126.9450   56.8796 H   0  0  0  0  0  0  0  0  0  0  0  0
  126.1911  129.3894   58.2725 H   0  0  0  0  0  0  0  0  0  0  0  0
  125.7378  127.6586   58.6255 H   0  0  0  0  0  0  0  0  0  0  0  0
  126.8161  128.4006   60.5787 H   0  0  0  0  0  0  0  0  0  0  0  0
  128.0701  127.4500   59.6346 H   0  0  0  0  0  0  0  0  0  0  0  0
  128.0068  132.8319   59.4499 H   0  0  0  0  0  0  0  0  0  0  0  0
  126.8972  131.8429   60.4972 H   0  0  0  0  0  0  0  0  0  0  0  0
  127.8966  133.0147   62.7404 H   0  0  0  0  0  0  0  0  0  0  0  0
  127.8847  131.2688   62.9174 H   0  0  0  0  0  0  0  0  0  0  0  0
  129.8497  133.0657   63.9605 H   0  0  0  0  0  0  0  0  0  0  0  0
  130.0431  131.3212   63.8977 H   0  0  0  0  0  0  0  0  0  0  0  0
  130.2431  130.1507   60.5458 H   0  0  0  0  0  0  0  0  0  0  0  0
  129.2805  129.0041   61.5891 H   0  0  0  0  0  0  0  0  0  0  0  0
  130.7987  127.4745   60.9327 H   0  0  0  0  0  0  0  0  0  0  0  0
  129.8110  127.4515   59.4056 H   0  0  0  0  0  0  0  0  0  0  0  0
  131.5193  129.5389   58.9154 H   0  0  0  0  0  0  0  0  0  0  0  0
  132.5578  128.4002   59.9014 H   0  0  0  0  0  0  0  0  0  0  0  0
  131.9550  128.1890   57.1930 H   0  0  0  0  0  0  0  0  0  0  0  0
  131.8929  123.5269   58.2544 H   0  0  0  0  0  0  0  0  0  0  0  0
  133.0984  126.2139   62.9605 H   0  0  0  0  0  0  0  0  0  0  0  0
  132.0200  123.5141   63.3142 H   0  0  0  0  0  0  0  0  0  0  0  0
  133.3615  124.4213   64.1673 H   0  0  0  0  0  0  0  0  0  0  0  0
  132.6922  126.1493   65.9224 H   0  0  0  0  0  0  0  0  0  0  0  0
  131.2613  126.4347   67.9443 H   0  0  0  0  0  0  0  0  0  0  0  0
  129.2312  125.0197   68.2345 H   0  0  0  0  0  0  0  0  0  0  0  0
  128.6274  123.3147   66.5217 H   0  0  0  0  0  0  0  0  0  0  0  0
  130.0574  123.0294   64.4965 H   0  0  0  0  0  0  0  0  0  0  0  0
  131.1820  127.1200   63.8980 H   0  0  0  0  0  0  0  0  0  0  0  0
  129.1311  123.4475   62.9348 H   0  0  0  0  0  0  0  0  0  0  0  0
  1  2  1  0
  2  3  1  0
  2  4  1  0
  4  5  1  0
  5  6  1  0
  6  7  1  0
  7  8  2  0
  7  9  1  0
  9 10  1  0
 10 11  1  0
 11 12  1  0
 12 13  1  0
 13 14  2  0
 13 15  1  0
 15 16  1  0
 16 17  1  0
 17 18  1  0
 18 19  1  0
 19 20  1  0
 20 21  2  0
 12 22  1  0
 22 23  1  0
 23 24  1  0
 24 25  1  0
 25 26  1  0
 26 27  2  0
 26 28  1  0
 28 29  2  0
 29 30  1  0
 30 31  1  0
 31 32  2  0
 31 33  1  0
 33 34  1  0
 34 35  1  0
 35 36  2  0
 36 37  1  0
 37 38  2  0
 38 39  1  0
 39 40  2  0
 33 41  1  0
 41 42  1  0
 42 43  2  0
 42 44  1  0
 44 45  2  0
 45 46  1  0
 46 47  1  0
 47 48  2  0
 47  5  1  0
 20 16  1  0
 32 28  1  0
 40 35  1  0
 48 44  1  0
  1 49  1  0
  1 50  1  0
  1 51  1  0
  2 52  1  0
  3 53  1  0
  3 54  1  0
  3 55  1  0
  4 56  1  0
  4 57  1  0
  5 58  1  1
  6 59  1  0
  9 60  1  0
  9 61  1  0
 10 62  1  0
 10 63  1  0
 11 64  1  0
 11 65  1  0
 15 66  1  0
 15 67  1  0
 17 68  1  0
 17 69  1  0
 18 70  1  0
 18 71  1  0
 22 72  1  0
 22 73  1  0
 23 74  1  0
 23 75  1  0
 24 76  1  0
 24 77  1  0
 25 78  1  0
 29 79  1  0
 33 80  1  6
 34 81  1  0
 34 82  1  0
 36 83  1  0
 37 84  1  0
 38 85  1  0
 39 86  1  0
 40 87  1  0
 41 88  1  0
 45 89  1  0
M  END
>  <Binding energies>  (1) 
[-3.65]

>  <Ligand effiencies>  (1) 
[-0.06886792452830189]

>  <Interactions>  (1) 
["V-B:TYR:539:CA:9841, V-B:PRO:540:CA:9855, H-A:GLU:543:OE2:4910, H-A:ALA:541:N:4891, V-B:GLU:543:CB:9878, V-A:PRO:540:C:4881, H-A:TYR:531:OH:4795, V-B:TYR:539:CE2:9848, V-A:TYR:484:CE2:4346, V-B:GLU:543:CG:9879, V-B:TYR:539:C:9839, V-A:ASP:366:CG:3213, V-B:TYR:539:CZ:9849, V-B:TYR:531:CZ:9766, H-B:TYR:539:OH:9850, V-A:ALA:541:CB:4892, V-A:GLU:543:CD:4908, V-B:PRO:540:CB:9857, V-A:TYR:484:CZ:4347, V-B:GLU:543:CA:9876, V-B:PRO:540:N:9856, V-A:HIS:456:CE1:4070, V-A:ALA:541:CA:4890, V-B:PRO:540:CD:9859, V-A:TYR:531:CZ:4794, V-A:GLU:543:CG:4907, V-B:GLU:543:CD:9880, V-A:ASP:366:CB:3212, V-A:ARG:545:CZ:4926, H-A:GLU:543:OE1:4909, V-A:PRO:540:CB:4885, V-A:PRO:540:CA:4883, V-B:TYR:539:CE1:9847"]

$$$$
ZINC1783222574
     RDKit          3D

 71 74  0  0  0  0  0  0  0  0999 V2000
  126.8100  127.4720   61.5820 C   0  0  0  0  0  0  0  0  0  0  0  0
  127.4060  126.1120   61.1950 C   0  0  0  0  0  0  0  0  0  0  0  0
  126.3280  125.0470   60.9020 C   0  0  0  0  0  0  0  0  0  0  0  0
  126.8890  123.6430   60.5350 C   0  0  2  0  0  0  0  0  0  0  0  0
  127.9760  123.1690   61.5360 C   0  0  0  0  0  0  0  0  0  0  0  0
  127.6060  122.8680   62.6740 O   0  0  0  0  0  0  0  0  0  0  0  0
  129.2940  123.1750   61.1930 N   0  0  0  0  0  0  0  0  0  0  0  0
  129.9960  122.0800   60.5010 C   0  0  0  0  0  0  0  0  0  0  0  0
  130.8560  121.3430   61.5530 C   0  0  0  0  0  0  0  0  0  0  0  0
  131.8290  122.3020   62.2890 C   0  0  1  0  0  0  0  0  0  0  0  0
  132.7660  122.7110   61.2880 O   0  0  0  0  0  0  0  0  0  0  0  0
  133.8340  123.5160   61.7740 C   0  0  0  0  0  0  0  0  0  0  0  0
  133.2600  124.8410   62.2990 C   0  0  0  0  0  0  0  0  0  0  0  0
  132.1610  124.5750   63.3420 C   0  0  0  0  0  0  0  0  0  0  0  0
  131.0790  123.5600   62.8640 C   0  0  2  0  0  0  0  0  0  0  0  0
  130.2200  123.1290   64.1000 C   0  0  0  0  0  0  0  0  0  0  0  0
  130.3880  123.9750   65.2840 N   0  0  0  0  0  0  0  0  0  0  0  0
  129.8840  125.2110   65.4510 C   0  0  0  0  0  0  0  0  0  0  0  0
  129.1990  125.7850   64.6010 O   0  0  0  0  0  0  0  0  0  0  0  0
  130.2250  125.7870   66.7310 C   0  0  0  0  0  0  0  0  0  0  0  0
  129.3150  126.4040   67.5150 C   0  0  0  0  0  0  0  0  0  0  0  0
  129.5650  127.0480   68.8270 C   0  0  0  0  0  0  0  0  0  0  0  0
  130.8390  127.5920   69.0270 C   0  0  0  0  0  0  0  0  0  0  0  0
  131.1650  128.2380   70.2170 C   0  0  0  0  0  0  0  0  0  0  0  0
  130.2210  128.3490   71.2340 C   0  0  0  0  0  0  0  0  0  0  0  0
  130.5700  128.9920   72.3960 O   0  0  0  0  0  0  0  0  0  0  0  0
  128.9430  127.8050   71.0630 C   0  0  0  0  0  0  0  0  0  0  0  0
  128.0140  127.9050   72.0730 O   0  0  0  0  0  0  0  0  0  0  0  0
  128.6130  127.1530   69.8630 C   0  0  0  0  0  0  0  0  0  0  0  0
  127.3650  126.5930   69.7370 O   0  0  0  0  0  0  0  0  0  0  0  0
  130.2090  124.2050   61.7310 C   0  0  0  0  0  0  0  0  0  0  0  0
  127.3720  123.5990   59.1500 N   0  0  0  0  0  0  0  0  0  0  0  0
  128.3590  124.3980   58.6130 C   0  0  0  0  0  0  0  0  0  0  0  0
  128.5160  124.0910   57.2710 C   0  0  0  0  0  0  0  0  0  0  0  0
  127.5890  123.0950   56.9620 C   0  0  0  0  0  0  0  0  0  0  0  0
  126.8870  122.8150   58.1240 C   0  0  0  0  0  0  0  0  0  0  0  0
  126.7726  127.5574   62.6780 H   0  0  0  0  0  0  0  0  0  0  0  0
  127.4377  128.2773   61.1727 H   0  0  0  0  0  0  0  0  0  0  0  0
  125.7925  127.5563   61.1727 H   0  0  0  0  0  0  0  0  0  0  0  0
  128.0244  126.2428   60.2947 H   0  0  0  0  0  0  0  0  0  0  0  0
  127.9993  125.7556   62.0499 H   0  0  0  0  0  0  0  0  0  0  0  0
  125.6974  124.9415   61.7971 H   0  0  0  0  0  0  0  0  0  0  0  0
  125.7710  125.4005   60.0218 H   0  0  0  0  0  0  0  0  0  0  0  0
  126.0520  122.9336   60.6137 H   0  0  0  0  0  0  0  0  0  0  0  0
  129.2661  121.3857   60.0591 H   0  0  0  0  0  0  0  0  0  0  0  0
  130.6274  122.4746   59.6913 H   0  0  0  0  0  0  0  0  0  0  0  0
  130.1887  120.8781   62.2936 H   0  0  0  0  0  0  0  0  0  0  0  0
  131.4586  120.5873   61.0279 H   0  0  0  0  0  0  0  0  0  0  0  0
  132.3055  121.8058   63.1473 H   0  0  0  0  0  0  0  0  0  0  0  0
  134.3520  122.9893   62.5891 H   0  0  0  0  0  0  0  0  0  0  0  0
  134.5493  123.7154   60.9625 H   0  0  0  0  0  0  0  0  0  0  0  0
  134.0669  125.4262   62.7642 H   0  0  0  0  0  0  0  0  0  0  0  0
  132.8245  125.3991   61.4570 H   0  0  0  0  0  0  0  0  0  0  0  0
  132.6340  124.1763   64.2515 H   0  0  0  0  0  0  0  0  0  0  0  0
  131.6486  125.5317   63.5216 H   0  0  0  0  0  0  0  0  0  0  0  0
  129.1600  123.1552   63.8071 H   0  0  0  0  0  0  0  0  0  0  0  0
  130.5644  122.1236   64.3837 H   0  0  0  0  0  0  0  0  0  0  0  0
  130.9540  123.5870   66.0250 H   0  0  0  0  0  0  0  0  0  0  0  0
  131.2659  125.7205   67.0805 H   0  0  0  0  0  0  0  0  0  0  0  0
  128.2807  126.4317   67.1415 H   0  0  0  0  0  0  0  0  0  0  0  0
  131.5945  127.5080   68.2319 H   0  0  0  0  0  0  0  0  0  0  0  0
  132.1710  128.6616   70.3536 H   0  0  0  0  0  0  0  0  0  0  0  0
  130.5180  129.9480   72.3280 H   0  0  0  0  0  0  0  0  0  0  0  0
  127.1690  127.5130   71.8380 H   0  0  0  0  0  0  0  0  0  0  0  0
  127.3650  125.8040   69.1900 H   0  0  0  0  0  0  0  0  0  0  0  0
  129.6245  125.0408   62.1432 H   0  0  0  0  0  0  0  0  0  0  0  0
  130.8590  124.5854   60.9292 H   0  0  0  0  0  0  0  0  0  0  0  0
  128.9316  125.1592   59.1632 H   0  0  0  0  0  0  0  0  0  0  0  0
  129.2376  124.5478   56.5778 H   0  0  0  0  0  0  0  0  0  0  0  0
  127.4427  122.6208   55.9803 H   0  0  0  0  0  0  0  0  0  0  0  0
  126.0712  122.0826   58.2138 H   0  0  0  0  0  0  0  0  0  0  0  0
  1  2  1  0
  2  3  1  0
  3  4  1  0
  4  5  1  0
  5  6  2  0
  5  7  1  0
  7  8  1  0
  8  9  1  0
  9 10  1  0
 10 11  1  0
 11 12  1  0
 12 13  1  0
 13 14  1  0
 14 15  1  0
 15 16  1  1
 16 17  1  0
 17 18  1  0
 18 19  2  0
 18 20  1  0
 20 21  2  0
 21 22  1  0
 22 23  2  0
 23 24  1  0
 24 25  2  0
 25 26  1  0
 25 27  1  0
 27 28  1  0
 27 29  2  0
 29 30  1  0
 15 31  1  0
  4 32  1  0
 32 33  1  0
 33 34  2  0
 34 35  1  0
 35 36  2  0
 31  7  1  0
 36 32  1  0
 15 10  1  0
 29 22  1  0
  1 37  1  0
  1 38  1  0
  1 39  1  0
  2 40  1  0
  2 41  1  0
  3 42  1  0
  3 43  1  0
  4 44  1  6
  8 45  1  0
  8 46  1  0
  9 47  1  0
  9 48  1  0
 10 49  1  1
 12 50  1  0
 12 51  1  0
 13 52  1  0
 13 53  1  0
 14 54  1  0
 14 55  1  0
 16 56  1  0
 16 57  1  0
 17 58  1  0
 20 59  1  0
 21 60  1  0
 23 61  1  0
 24 62  1  0
 26 63  1  0
 28 64  1  0
 30 65  1  0
 31 66  1  0
 31 67  1  0
 33 68  1  0
 34 69  1  0
 35 70  1  0
 36 71  1  0
M  END
>  <Binding energies>  (1) 
[-7.77]

>  <Ligand effiencies>  (1) 
[-0.19424999999999998]

>  <Interactions>  (1) 
["V-B:PRO:540:CA:9855, V-B:HIS:456:CD2:9039, V-B:TYR:539:CE1:9847, H-B:GLU:543:O:9875, V-A:GLU:543:C:4902, V-B:GLU:543:CB:9878, V-B:TYR:539:CE2:9848, V-A:TYR:484:CE2:4346, V-A:GLY:544:CA:4914, V-B:GLU:543:CG:9879, V-A:GLY:544:C:4912, V-B:TYR:539:C:9839, V-A:ASP:366:CG:3213, V-B:TYR:539:CZ:9849, H-B:ALA:541:N:9863, V-A:TYR:484:CZ:4347, V-B:PRO:540:CB:9857, V-B:HIS:456:CE1:9041, V-B:PRO:540:N:9856, V-A:ILE:369:CD1:3239, V-A:HIS:456:CE1:4070, H-B:HIS:456:NE2:9042, V-B:TYR:539:CD2:9846, V-B:PRO:540:CD:9859, V-B:GLU:543:CD:9880, H-A:LYS:547:NZ:4951, V-A:LEU:475:CD2:4259, V-A:ARG:545:CZ:4926, V-A:GLU:543:CB:4906, H-B:GLY:544:O:9885, V-B:TYR:539:CD1:9845, H-A:GLY:544:O:4913, H-A:TYR:484:OH:4348, H-A:GLU:543:O:4903"]

$$$$
ZINC1783222574-again1
     RDKit          3D

 70 73  0  0  0  0  0  0  0  0999 V2000
  134.3700  123.8920   61.8770 C   0  0  0  0  0  0  0  0  0  0  0  0
  133.4710  123.0750   60.9400 C   0  0  0  0  0  0  0  0  0  0  0  0
  132.6000  122.0450   61.6910 C   0  0  0  0  0  0  0  0  0  0  0  0
  131.2010  121.7950   61.0560 C   0  0  2  0  0  0  0  0  0  0  0  0
  130.0540  122.5910   61.7340 C   0  0  0  0  0  0  0  0  0  0  0  0
  129.3280  121.9770   62.5210 O   0  0  0  0  0  0  0  0  0  0  0  0
  129.8010  123.8850   61.3920 N   0  0  0  0  0  0  0  0  0  0  0  0
  130.4530  124.6110   60.2870 C   0  0  0  0  0  0  0  0  0  0  0  0
  131.4770  125.5850   60.9140 C   0  0  0  0  0  0  0  0  0  0  0  0
  130.8200  126.5390   61.9460 C   0  0  1  0  0  0  0  0  0  0  0  0
  129.9600  127.3790   61.1690 O   0  0  0  0  0  0  0  0  0  0  0  0
  129.3340  128.4220   61.9080 C   0  0  0  0  0  0  0  0  0  0  0  0
  128.3890  127.7960   62.9460 C   0  0  0  0  0  0  0  0  0  0  0  0
  129.1520  126.7920   63.8270 C   0  0  0  0  0  0  0  0  0  0  0  0
  129.9780  125.7490   63.0120 C   0  0  2  0  0  0  0  0  0  0  0  0
  130.9490  125.0110   63.9930 C   0  0  0  0  0  0  0  0  0  0  0  0
  130.7510  125.3300   65.4080 N   0  0  0  0  0  0  0  0  0  0  0  0
  130.0550  124.5940   66.2930 C   0  0  0  0  0  0  0  0  0  0  0  0
  129.4910  123.5370   66.0020 O   0  0  0  0  0  0  0  0  0  0  0  0
  130.0460  125.1720   67.6170 C   0  0  0  0  0  0  0  0  0  0  0  0
  129.7260  126.4660   67.8470 C   0  0  0  0  0  0  0  0  0  0  0  0
  129.7020  127.1620   69.1730 C   0  0  0  0  0  0  0  0  0  0  0  0
  130.8810  127.7700   69.6330 C   0  0  0  0  0  0  0  0  0  0  0  0
  130.9300  128.4270   70.8560 C   0  0  0  0  0  0  0  0  0  0  0  0
  129.7980  128.4970   71.6580 C   0  0  0  0  0  0  0  0  0  0  0  0
  129.8840  129.1560   72.8600 O   0  0  0  0  0  0  0  0  0  0  0  0
  128.6000  127.9040   71.2410 C   0  0  0  0  0  0  0  0  0  0  0  0
  127.5050  128.0020   72.0820 O   0  0  0  0  0  0  0  0  0  0  0  0
  128.5420  127.2320   69.9950 C   0  0  0  0  0  0  0  0  0  0  0  0
  127.4380  126.6870   69.6270 O   0  0  0  0  0  0  0  0  0  0  0  0
  129.0080  124.7590   62.2790 C   0  0  0  0  0  0  0  0  0  0  0  0
  130.9100  120.3580   61.0190 N   0  0  0  0  0  0  0  0  0  0  0  0
  131.5730  119.4170   60.2610 C   0  0  0  0  0  0  0  0  0  0  0  0
  130.9910  118.1750   60.4570 C   0  0  0  0  0  0  0  0  0  0  0  0
  129.9270  118.3530   61.3420 C   0  0  0  0  0  0  0  0  0  0  0  0
  129.8840  119.7000   61.6670 C   0  0  0  0  0  0  0  0  0  0  0  0
  134.1161  123.6613   62.9221 H   0  0  0  0  0  0  0  0  0  0  0  0
  135.4233  123.6356   61.6904 H   0  0  0  0  0  0  0  0  0  0  0  0
  134.2152  124.9649   61.6904 H   0  0  0  0  0  0  0  0  0  0  0  0
  132.8087  123.7661   60.3980 H   0  0  0  0  0  0  0  0  0  0  0  0
  134.1273  122.5166   60.2563 H   0  0  0  0  0  0  0  0  0  0  0  0
  133.1425  121.0884   61.7138 H   0  0  0  0  0  0  0  0  0  0  0  0
  132.4182  122.4614   62.6928 H   0  0  0  0  0  0  0  0  0  0  0  0
  131.2496  122.1797   60.0266 H   0  0  0  0  0  0  0  0  0  0  0  0
  130.9674  123.9011   59.6226 H   0  0  0  0  0  0  0  0  0  0  0  0
  129.7093  125.1602   59.6910 H   0  0  0  0  0  0  0  0  0  0  0  0
  132.2591  124.9999   61.4199 H   0  0  0  0  0  0  0  0  0  0  0  0
  131.8983  126.1999   60.1051 H   0  0  0  0  0  0  0  0  0  0  0  0
  131.5780  127.1033   62.5090 H   0  0  0  0  0  0  0  0  0  0  0  0
  130.0997  129.0230   62.4203 H   0  0  0  0  0  0  0  0  0  0  0  0
  128.7638  129.0716   61.2276 H   0  0  0  0  0  0  0  0  0  0  0  0
  127.9702  128.5906   63.5810 H   0  0  0  0  0  0  0  0  0  0  0  0
  127.5801  127.2675   62.4202 H   0  0  0  0  0  0  0  0  0  0  0  0
  129.8418  127.3521   64.4754 H   0  0  0  0  0  0  0  0  0  0  0  0
  128.4007  126.2308   64.4021 H   0  0  0  0  0  0  0  0  0  0  0  0
  130.8083  123.9278   63.8634 H   0  0  0  0  0  0  0  0  0  0  0  0
  131.9638  125.3503   63.7380 H   0  0  0  0  0  0  0  0  0  0  0  0
  131.1660  126.1920   65.7300 H   0  0  0  0  0  0  0  0  0  0  0  0
  130.3102  124.5337   68.4730 H   0  0  0  0  0  0  0  0  0  0  0  0
  129.4552  127.0701   66.9686 H   0  0  0  0  0  0  0  0  0  0  0  0
  131.7868  127.7251   69.0106 H   0  0  0  0  0  0  0  0  0  0  0  0
  131.8684  128.8934   71.1905 H   0  0  0  0  0  0  0  0  0  0  0  0
  129.0370  129.1980   73.3110 H   0  0  0  0  0  0  0  0  0  0  0  0
  126.7310  127.5630   71.7180 H   0  0  0  0  0  0  0  0  0  0  0  0
  128.4748  124.1466   63.0210 H   0  0  0  0  0  0  0  0  0  0  0  0
  128.2738  125.3250   61.6869 H   0  0  0  0  0  0  0  0  0  0  0  0
  132.4306  119.6204   59.6029 H   0  0  0  0  0  0  0  0  0  0  0  0
  131.3084  117.2260   60.0003 H   0  0  0  0  0  0  0  0  0  0  0  0
  129.2487  117.5704   61.7127 H   0  0  0  0  0  0  0  0  0  0  0  0
  129.1482  120.1704   62.3359 H   0  0  0  0  0  0  0  0  0  0  0  0
  1  2  1  0
  2  3  1  0
  3  4  1  0
  4  5  1  0
  5  6  2  0
  5  7  1  0
  7  8  1  0
  8  9  1  0
  9 10  1  0
 10 11  1  0
 11 12  1  0
 12 13  1  0
 13 14  1  0
 14 15  1  0
 15 16  1  1
 16 17  1  0
 17 18  1  0
 18 19  2  0
 18 20  1  0
 20 21  2  0
 21 22  1  0
 22 23  2  0
 23 24  1  0
 24 25  2  0
 25 26  1  0
 25 27  1  0
 27 28  1  0
 27 29  2  0
 29 30  1  0
 15 31  1  0
  4 32  1  0
 32 33  1  0
 33 34  2  0
 34 35  1  0
 35 36  2  0
 31  7  1  0
 36 32  1  0
 15 10  1  0
 29 22  1  0
  1 37  1  0
  1 38  1  0
  1 39  1  0
  2 40  1  0
  2 41  1  0
  3 42  1  0
  3 43  1  0
  4 44  1  6
  8 45  1  0
  8 46  1  0
  9 47  1  0
  9 48  1  0
 10 49  1  1
 12 50  1  0
 12 51  1  0
 13 52  1  0
 13 53  1  0
 14 54  1  0
 14 55  1  0
 16 56  1  0
 16 57  1  0
 17 58  1  0
 20 59  1  0
 21 60  1  0
 23 61  1  0
 24 62  1  0
 26 63  1  0
 28 64  1  0
 31 65  1  0
 31 66  1  0
 33 67  1  0
 34 68  1  0
 35 69  1  0
 36 70  1  0
M  CHG  1  30  -1
M  END
>  <Binding energies>  (1) 
[-6.44]

>  <Ligand effiencies>  (1) 
[-0.16512820512820514]

>  <Interactions>  (1) 
["V-A:ILE:369:CG2:3237, V-B:HIS:456:CD2:9039, H-A:GLU:543:OE2:4910, V-A:GLU:543:C:4902, V-B:GLU:543:CB:9878, V-B:ALA:541:CB:9864, V-B:TYR:539:CE2:9848, V-A:TYR:484:CE2:4346, V-A:GLY:544:CA:4914, V-B:GLU:543:CG:9879, V-A:GLY:544:C:4912, V-B:TYR:539:C:9839, H-B:HIS:456:ND1:9038, V-A:GLU:543:CD:4908, V-A:TYR:484:CZ:4347, V-B:GLU:543:CA:9876, V-B:HIS:456:CE1:9041, V-A:ILE:369:CD1:3239, V-A:HIS:456:CE1:4070, H-B:HIS:456:NE2:9042, V-A:PRO:482:CB:4326, V-B:TYR:539:CD2:9846, V-B:GLU:543:CD:9880, H-A:LYS:547:NZ:4951, V-A:LEU:475:CD2:4259, H-A:GLU:543:OE1:4909, V-A:GLU:543:CB:4906, H-B:GLY:544:O:9885, V-A:HIS:383:NE2:3394, H-A:TYR:484:OH:4348"]

$$$$
ZINC1785505824-again1
     RDKit          3D

 61 65  0  0  0  0  0  0  0  0999 V2000
  128.3480  128.7770   65.1870 O   0  0  0  0  0  0  0  0  0  0  0  0
  128.7200  127.7510   65.7670 C   0  0  0  0  0  0  0  0  0  0  0  0
  128.4620  127.5510   67.1840 C   0  0  0  0  0  0  0  0  0  0  0  0
  129.4060  127.7490   68.1320 C   0  0  0  0  0  0  0  0  0  0  0  0
  129.2280  127.5950   69.6100 C   0  0  0  0  0  0  0  0  0  0  0  0
  128.0270  127.0460   70.0840 C   0  0  0  0  0  0  0  0  0  0  0  0
  127.7960  126.8690   71.4420 C   0  0  0  0  0  0  0  0  0  0  0  0
  128.7620  127.2350   72.3700 C   0  0  0  0  0  0  0  0  0  0  0  0
  128.4940  127.0440   73.7030 O   0  0  0  0  0  0  0  0  0  0  0  0
  129.9770  127.7850   71.9430 C   0  0  0  0  0  0  0  0  0  0  0  0
  130.9060  128.1310   72.9080 O   0  0  0  0  0  0  0  0  0  0  0  0
  130.2200  127.9690   70.5580 C   0  0  0  0  0  0  0  0  0  0  0  0
  131.3420  128.4650   70.1750 O   0  0  0  0  0  0  0  0  0  0  0  0
  129.3680  126.7560   65.1050 N   0  0  0  0  0  0  0  0  0  0  0  0
  129.5450  126.6560   63.6500 C   0  0  0  0  0  0  0  0  0  0  0  0
  129.9560  125.2010   63.4450 C   0  0  0  0  0  0  0  0  0  0  0  0
  130.6610  124.7880   64.7410 C   0  0  2  0  0  0  0  0  0  0  0  0
  129.9190  125.5940   65.8160 C   0  0  0  0  0  0  0  0  0  0  0  0
  132.1880  125.1150   64.7570 C   0  0  0  0  0  0  0  0  0  0  0  0
  132.8680  124.1610   63.8600 N   0  0  0  0  0  0  0  0  0  0  0  0
  133.3870  124.5650   62.6670 C   0  0  0  0  0  0  0  0  0  0  0  0
  134.5470  124.2890   62.3480 O   0  0  0  0  0  0  0  0  0  0  0  0
  132.4800  125.3190   61.6540 C   0  0  1  0  0  0  0  0  0  0  0  0
  132.8440  125.1110   60.1820 C   0  0  0  0  0  0  0  0  0  0  0  0
  131.5820  124.5010   60.7280 C   0  0  1  0  0  0  0  0  0  0  0  0
  131.3570  122.9970   60.8230 C   0  0  0  0  0  0  0  0  0  0  0  0
  132.4160  122.1130   60.6030 C   0  0  0  0  0  0  0  0  0  0  0  0
  132.1980  120.7390   60.6730 C   0  0  0  0  0  0  0  0  0  0  0  0
  130.9220  120.2540   60.9550 C   0  0  0  0  0  0  0  0  0  0  0  0
  130.6530  118.5520   61.0400 Cl  0  0  0  0  0  0  0  0  0  0  0  0
  129.8610  121.1330   61.1640 C   0  0  0  0  0  0  0  0  0  0  0  0
  130.0780  122.5060   61.0940 C   0  0  0  0  0  0  0  0  0  0  0  0
  132.6680  122.7570   64.2450 C   0  0  0  0  0  0  0  0  0  0  0  0
  131.1540  122.4880   64.1530 C   0  0  0  0  0  0  0  0  0  0  0  0
  130.4560  123.3940   65.0120 O   0  0  0  0  0  0  0  0  0  0  0  0
  127.4590  127.2257   67.4974 H   0  0  0  0  0  0  0  0  0  0  0  0
  130.4035  128.0534   67.7821 H   0  0  0  0  0  0  0  0  0  0  0  0
  127.2506  126.7490   69.3636 H   0  0  0  0  0  0  0  0  0  0  0  0
  126.8439  126.4371   71.7839 H   0  0  0  0  0  0  0  0  0  0  0  0
  129.2010  127.3580   74.2710 H   0  0  0  0  0  0  0  0  0  0  0  0
  131.7280  128.4460   72.5220 H   0  0  0  0  0  0  0  0  0  0  0  0
  128.6055  126.8780   63.1227 H   0  0  0  0  0  0  0  0  0  0  0  0
  130.2824  127.3709   63.2562 H   0  0  0  0  0  0  0  0  0  0  0  0
  129.0702  124.5721   63.2720 H   0  0  0  0  0  0  0  0  0  0  0  0
  130.6102  125.0814   62.5688 H   0  0  0  0  0  0  0  0  0  0  0  0
  129.1115  124.9940   66.2609 H   0  0  0  0  0  0  0  0  0  0  0  0
  130.5819  125.8905   66.6422 H   0  0  0  0  0  0  0  0  0  0  0  0
  132.3533  126.1432   64.4028 H   0  0  0  0  0  0  0  0  0  0  0  0
  132.5864  125.0294   65.7787 H   0  0  0  0  0  0  0  0  0  0  0  0
  132.3082  126.1705   62.3288 H   0  0  0  0  0  0  0  0  0  0  0  0
  132.7860  125.9541   59.4779 H   0  0  0  0  0  0  0  0  0  0  0  0
  133.7244  124.7237   59.6483 H   0  0  0  0  0  0  0  0  0  0  0  0
  130.5128  124.5395   60.4725 H   0  0  0  0  0  0  0  0  0  0  0  0
  133.4197  122.5010   60.3750 H   0  0  0  0  0  0  0  0  0  0  0  0
  133.0300  120.0390   60.5063 H   0  0  0  0  0  0  0  0  0  0  0  0
  128.8560  120.7433   61.3834 H   0  0  0  0  0  0  0  0  0  0  0  0
  129.2426  123.2040   61.2520 H   0  0  0  0  0  0  0  0  0  0  0  0
  133.2140  122.0935   63.5583 H   0  0  0  0  0  0  0  0  0  0  0  0
  133.0442  122.5663   65.2609 H   0  0  0  0  0  0  0  0  0  0  0  0
  130.8180  122.6336   63.1157 H   0  0  0  0  0  0  0  0  0  0  0  0
  130.9457  121.4536   64.4639 H   0  0  0  0  0  0  0  0  0  0  0  0
  1  2  2  0
  2  3  1  0
  3  4  2  0
  4  5  1  0
  5  6  2  0
  6  7  1  0
  7  8  2  0
  8  9  1  0
  8 10  1  0
 10 11  1  0
 10 12  2  0
 12 13  1  0
  2 14  1  0
 14 15  1  0
 15 16  1  0
 16 17  1  0
 17 18  1  0
 17 19  1  0
 19 20  1  0
 20 21  1  0
 21 22  2  0
 21 23  1  0
 23 24  1  0
 24 25  1  0
 25 26  1  0
 26 27  2  0
 27 28  1  0
 28 29  2  0
 29 30  1  0
 29 31  1  0
 31 32  2  0
 20 33  1  0
 33 34  1  0
 34 35  1  0
 12  5  1  0
 18 14  1  0
 25 23  1  0
 32 26  1  0
 17 35  1  1
  3 36  1  0
  4 37  1  0
  6 38  1  0
  7 39  1  0
  9 40  1  0
 11 41  1  0
 15 42  1  0
 15 43  1  0
 16 44  1  0
 16 45  1  0
 18 46  1  0
 18 47  1  0
 19 48  1  0
 19 49  1  0
 23 50  1  1
 24 51  1  0
 24 52  1  0
 25 53  1  6
 27 54  1  0
 28 55  1  0
 31 56  1  0
 32 57  1  0
 33 58  1  0
 33 59  1  0
 34 60  1  0
 34 61  1  0
M  CHG  1  13  -1
M  END
>  <Binding energies>  (1) 
[-8.23]

>  <Ligand effiencies>  (1) 
[-0.22243243243243244]

>  <Interactions>  (1) 
["V-A:ILE:369:CG2:3237, V-A:GLY:454:CA:4049, V-B:GLU:543:C:9874, V-A:GLU:543:C:4902, V-B:GLU:543:CB:9878, H-B:LYS:547:NZ:9923, V-B:ALA:541:CB:9864, V-B:TYR:539:CE2:9848, V-A:TYR:484:CE2:4346, V-B:GLU:543:CG:9879, V-A:ASP:366:CG:3213, H-A:ARG:545:N:4920, V-A:GLU:543:CD:4908, V-A:TYR:484:CZ:4347, V-B:HIS:456:CE1:9041, H-A:GLY:454:N:4050, V-A:HIS:456:CE1:4070, V-B:GLY:544:C:9884, V-B:TYR:539:CD2:9846, V-A:GLU:543:CG:4907, V-B:GLU:543:CD:9880, V-A:ASP:366:CB:3212, H-A:LYS:547:NZ:4951, V-A:LEU:475:CD2:4259, V-A:ARG:545:CZ:4926, V-A:GLU:543:CB:4906, H-A:GLY:544:N:4915, H-A:GLY:544:O:4913, H-A:TYR:484:OH:4348, H-A:GLU:543:O:4903"]

$$$$
ZINC1785507438
     RDKit          3D

 52 55  0  0  0  0  0  0  0  0999 V2000
  127.3280  128.7520   65.7390 O   0  0  0  0  0  0  0  0  0  0  0  0
  128.0970  127.9480   66.2730 C   0  0  0  0  0  0  0  0  0  0  0  0
  128.0900  127.7390   67.7120 C   0  0  0  0  0  0  0  0  0  0  0  0
  129.1560  128.0170   68.4950 C   0  0  0  0  0  0  0  0  0  0  0  0
  129.2620  127.8100   69.9590 C   0  0  0  0  0  0  0  0  0  0  0  0
  130.4100  128.3090   70.5840 C   0  0  0  0  0  0  0  0  0  0  0  0
  130.5930  128.1820   71.9590 C   0  0  0  0  0  0  0  0  0  0  0  0
  129.6290  127.5470   72.7370 C   0  0  0  0  0  0  0  0  0  0  0  0
  129.8310  127.4350   74.0900 O   0  0  0  0  0  0  0  0  0  0  0  0
  128.4750  127.0320   72.1340 C   0  0  0  0  0  0  0  0  0  0  0  0
  127.5280  126.3960   72.9050 O   0  0  0  0  0  0  0  0  0  0  0  0
  128.2900  127.1590   70.7470 C   0  0  0  0  0  0  0  0  0  0  0  0
  127.1660  126.6060   70.1820 O   0  0  0  0  0  0  0  0  0  0  0  0
  128.9960  127.2330   65.5440 N   0  0  0  0  0  0  0  0  0  0  0  0
  129.2700  127.3840   64.1070 C   0  0  0  0  0  0  0  0  0  0  0  0
  130.5400  126.5600   63.9070 C   0  0  0  0  0  0  0  0  0  0  0  0
  130.4920  125.4730   64.9850 C   0  0  2  0  0  0  0  0  0  0  0  0
  129.8550  126.2140   66.1680 C   0  0  0  0  0  0  0  0  0  0  0  0
  131.8600  124.8270   65.3340 C   0  0  0  0  0  0  0  0  0  0  0  0
  132.2330  123.9570   64.2060 N   0  0  0  0  0  0  0  0  0  0  0  0
  133.2350  124.3160   63.3580 C   0  0  0  0  0  0  0  0  0  0  0  0
  134.3490  124.6910   63.7300 O   0  0  0  0  0  0  0  0  0  0  0  0
  132.9600  124.2480   61.9480 C   0  0  0  0  0  0  0  0  0  0  0  0
  132.4300  125.3160   61.2020 C   0  0  0  0  0  0  0  0  0  0  0  0
  132.2950  125.0270   59.8520 C   0  0  0  0  0  0  0  0  0  0  0  0
  131.6830  126.0490   58.6150 Cl  0  0  0  0  0  0  0  0  0  0  0  0
  132.8470  123.4290   59.4750 S   0  0  0  0  0  0  0  0  0  0  0  0
  133.2640  123.1520   61.1370 C   0  0  0  0  0  0  0  0  0  0  0  0
  133.9710  121.6470   61.5870 Cl  0  0  0  0  0  0  0  0  0  0  0  0
  131.2720  122.8680   63.9590 C   0  0  0  0  0  0  0  0  0  0  0  0
  129.9400  123.5540   63.5880 C   0  0  0  0  0  0  0  0  0  0  0  0
  129.5390  124.4560   64.6230 O   0  0  0  0  0  0  0  0  0  0  0  0
  127.1800  127.3383   68.1825 H   0  0  0  0  0  0  0  0  0  0  0  0
  130.0379  128.4416   67.9930 H   0  0  0  0  0  0  0  0  0  0  0  0
  131.1807  128.8098   69.9796 H   0  0  0  0  0  0  0  0  0  0  0  0
  131.5014  128.5844   72.4312 H   0  0  0  0  0  0  0  0  0  0  0  0
  129.1030  127.0060   74.5440 H   0  0  0  0  0  0  0  0  0  0  0  0
  126.7390  126.1720   72.4050 H   0  0  0  0  0  0  0  0  0  0  0  0
  126.7930  125.9080   70.7240 H   0  0  0  0  0  0  0  0  0  0  0  0
  128.4416  126.9852   63.5032 H   0  0  0  0  0  0  0  0  0  0  0  0
  129.3825  128.4333   63.7966 H   0  0  0  0  0  0  0  0  0  0  0  0
  130.5517  126.1077   62.9043 H   0  0  0  0  0  0  0  0  0  0  0  0
  131.4463  127.1780   63.9886 H   0  0  0  0  0  0  0  0  0  0  0  0
  129.2573  125.5247   66.7824 H   0  0  0  0  0  0  0  0  0  0  0  0
  130.6065  126.6543   66.8398 H   0  0  0  0  0  0  0  0  0  0  0  0
  132.6209  125.6089   65.4741 H   0  0  0  0  0  0  0  0  0  0  0  0
  131.7910  124.2479   66.2667 H   0  0  0  0  0  0  0  0  0  0  0  0
  132.1506  126.2834   61.6447 H   0  0  0  0  0  0  0  0  0  0  0  0
  131.6186  122.2326   63.1307 H   0  0  0  0  0  0  0  0  0  0  0  0
  131.1604  122.2205   64.8412 H   0  0  0  0  0  0  0  0  0  0  0  0
  130.0693  124.1133   62.6497 H   0  0  0  0  0  0  0  0  0  0  0  0
  129.1640  122.7841   63.4650 H   0  0  0  0  0  0  0  0  0  0  0  0
  1  2  2  0
  2  3  1  0
  3  4  2  0
  4  5  1  0
  5  6  2  0
  6  7  1  0
  7  8  2  0
  8  9  1  0
  8 10  1  0
 10 11  1  0
 10 12  2  0
 12 13  1  0
  2 14  1  0
 14 15  1  0
 15 16  1  0
 16 17  1  0
 17 18  1  0
 17 19  1  0
 19 20  1  0
 20 21  1  0
 21 22  2  0
 21 23  1  0
 23 24  1  0
 24 25  2  0
 25 26  1  0
 25 27  1  0
 27 28  1  0
 28 29  1  0
 20 30  1  0
 30 31  1  0
 31 32  1  0
 12  5  1  0
 18 14  1  0
 28 23  2  0
 17 32  1  6
  3 33  1  0
  4 34  1  0
  6 35  1  0
  7 36  1  0
  9 37  1  0
 11 38  1  0
 13 39  1  0
 15 40  1  0
 15 41  1  0
 16 42  1  0
 16 43  1  0
 18 44  1  0
 18 45  1  0
 19 46  1  0
 19 47  1  0
 24 48  1  0
 30 49  1  0
 30 50  1  0
 31 51  1  0
 31 52  1  0
M  END
>  <Binding energies>  (1) 
[-7.18]

>  <Ligand effiencies>  (1) 
[-0.20514285714285713]

>  <Interactions>  (1) 
["V-A:ILE:369:CG2:3237, H-B:GLU:543:O:9875, V-A:GLU:543:C:4902, V-B:GLU:543:CB:9878, H-B:LYS:547:NZ:9923, H-A:ARG:545:NH1:4927, V-B:TYR:539:CE2:9848, V-B:GLU:543:CG:9879, V-A:GLY:544:C:4912, V-A:ASP:366:CG:3213, V-B:TYR:539:CZ:9849, V-A:GLU:543:CD:4908, V-A:TYR:484:CZ:4347, H-B:TYR:484:OH:9319, V-B:HIS:456:CE1:9041, H-A:GLY:454:N:4050, V-A:SER:385:C:3405, V-A:HIS:456:CE1:4070, V-A:ILE:369:CD1:3239, V-B:GLU:543:CD:9880, V-A:ASP:366:CB:3212, H-A:LYS:547:NZ:4951, H-A:ARG:545:NH2:4928, V-A:LEU:475:CD2:4259, V-A:GLU:543:CB:4906, H-B:GLY:544:O:9885"]

$$$$
ZINC1785507438-again1
     RDKit          3D

 51 54  0  0  0  0  0  0  0  0999 V2000
  132.0710  127.5820   68.4530 O   0  0  0  0  0  0  0  0  0  0  0  0
  130.9520  127.0710   68.3480 C   0  0  0  0  0  0  0  0  0  0  0  0
  129.9760  127.1640   69.4210 C   0  0  0  0  0  0  0  0  0  0  0  0
  130.2220  127.8180   70.5800 C   0  0  0  0  0  0  0  0  0  0  0  0
  129.2930  127.9380   71.7470 C   0  0  0  0  0  0  0  0  0  0  0  0
  128.1190  127.1710   71.7470 C   0  0  0  0  0  0  0  0  0  0  0  0
  127.2110  127.2310   72.7960 C   0  0  0  0  0  0  0  0  0  0  0  0
  127.4510  128.0650   73.8810 C   0  0  0  0  0  0  0  0  0  0  0  0
  126.5330  128.0950   74.9010 O   0  0  0  0  0  0  0  0  0  0  0  0
  128.6100  128.8520   73.9240 C   0  0  0  0  0  0  0  0  0  0  0  0
  128.7920  129.6640   75.0280 O   0  0  0  0  0  0  0  0  0  0  0  0
  129.5400  128.7960   72.8540 C   0  0  0  0  0  0  0  0  0  0  0  0
  130.5940  129.5300   72.8940 O   0  0  0  0  0  0  0  0  0  0  0  0
  130.5870  126.3830   67.2350 N   0  0  0  0  0  0  0  0  0  0  0  0
  129.2950  126.4790   66.5370 C   0  0  0  0  0  0  0  0  0  0  0  0
  129.5680  125.7800   65.2080 C   0  0  0  0  0  0  0  0  0  0  0  0
  130.6600  124.7490   65.5100 C   0  0  2  0  0  0  0  0  0  0  0  0
  131.5230  125.4790   66.5470 C   0  0  0  0  0  0  0  0  0  0  0  0
  131.4710  124.2630   64.2760 C   0  0  0  0  0  0  0  0  0  0  0  0
  130.5870  123.3870   63.4910 N   0  0  0  0  0  0  0  0  0  0  0  0
  130.0760  123.8070   62.3000 C   0  0  0  0  0  0  0  0  0  0  0  0
  128.8720  123.9470   62.0800 O   0  0  0  0  0  0  0  0  0  0  0  0
  131.0130  124.0990   61.2490 C   0  0  0  0  0  0  0  0  0  0  0  0
  130.8500  125.1460   60.3260 C   0  0  0  0  0  0  0  0  0  0  0  0
  131.9050  125.2560   59.4320 C   0  0  0  0  0  0  0  0  0  0  0  0
  132.0820  126.3850   58.1500 Cl  0  0  0  0  0  0  0  0  0  0  0  0
  133.1380  124.0780   59.7390 S   0  0  0  0  0  0  0  0  0  0  0  0
  132.2310  123.4380   61.0730 C   0  0  0  0  0  0  0  0  0  0  0  0
  132.8870  122.1350   61.9900 Cl  0  0  0  0  0  0  0  0  0  0  0  0
  130.1330  122.1930   64.2260 C   0  0  0  0  0  0  0  0  0  0  0  0
  129.3150  122.7180   65.4250 C   0  0  0  0  0  0  0  0  0  0  0  0
  130.1010  123.6220   66.2090 O   0  0  0  0  0  0  0  0  0  0  0  0
  128.9963  126.6826   69.2853 H   0  0  0  0  0  0  0  0  0  0  0  0
  131.2014  128.3099   70.6734 H   0  0  0  0  0  0  0  0  0  0  0  0
  127.9124  126.5058   70.8956 H   0  0  0  0  0  0  0  0  0  0  0  0
  126.2991  126.6165   72.7678 H   0  0  0  0  0  0  0  0  0  0  0  0
  126.7470  128.7470   75.5720 H   0  0  0  0  0  0  0  0  0  0  0  0
  129.4850  130.3140   74.8920 H   0  0  0  0  0  0  0  0  0  0  0  0
  128.5029  125.9630   67.0994 H   0  0  0  0  0  0  0  0  0  0  0  0
  128.9437  127.5145   66.4172 H   0  0  0  0  0  0  0  0  0  0  0  0
  128.6586  125.2817   64.8409 H   0  0  0  0  0  0  0  0  0  0  0  0
  129.8791  126.4901   64.4276 H   0  0  0  0  0  0  0  0  0  0  0  0
  131.9659  124.7645   67.2565 H   0  0  0  0  0  0  0  0  0  0  0  0
  132.3634  126.0189   66.0862 H   0  0  0  0  0  0  0  0  0  0  0  0
  131.7843  125.1245   63.6680 H   0  0  0  0  0  0  0  0  0  0  0  0
  132.3756  123.7226   64.5918 H   0  0  0  0  0  0  0  0  0  0  0  0
  129.9741  125.8113   60.3136 H   0  0  0  0  0  0  0  0  0  0  0  0
  129.5036  121.5629   63.5803 H   0  0  0  0  0  0  0  0  0  0  0  0
  130.9816  121.5758   64.5561 H   0  0  0  0  0  0  0  0  0  0  0  0
  128.4228  123.2428   65.0529 H   0  0  0  0  0  0  0  0  0  0  0  0
  129.0180  121.8660   66.0543 H   0  0  0  0  0  0  0  0  0  0  0  0
  1  2  2  0
  2  3  1  0
  3  4  2  0
  4  5  1  0
  5  6  2  0
  6  7  1  0
  7  8  2  0
  8  9  1  0
  8 10  1  0
 10 11  1  0
 10 12  2  0
 12 13  1  0
  2 14  1  0
 14 15  1  0
 15 16  1  0
 16 17  1  0
 17 18  1  0
 17 19  1  0
 19 20  1  0
 20 21  1  0
 21 22  2  0
 21 23  1  0
 23 24  1  0
 24 25  2  0
 25 26  1  0
 25 27  1  0
 27 28  1  0
 28 29  1  0
 20 30  1  0
 30 31  1  0
 31 32  1  0
 12  5  1  0
 18 14  1  0
 28 23  2  0
 17 32  1  1
  3 33  1  0
  4 34  1  0
  6 35  1  0
  7 36  1  0
  9 37  1  0
 11 38  1  0
 15 39  1  0
 15 40  1  0
 16 41  1  0
 16 42  1  0
 18 43  1  0
 18 44  1  0
 19 45  1  0
 19 46  1  0
 24 47  1  0
 30 48  1  0
 30 49  1  0
 31 50  1  0
 31 51  1  0
M  CHG  1  13  -1
M  END
>  <Binding energies>  (1) 
[-7.54]

>  <Ligand effiencies>  (1) 
[-0.22176470588235295]

>  <Interactions>  (1) 
["V-A:ILE:369:CG2:3237, V-B:HIS:456:CD2:9039, V-B:GLU:543:CB:9878, H-B:LYS:547:NZ:9923, V-B:ALA:541:CB:9864, V-B:TYR:539:CE2:9848, V-A:TYR:484:CE2:4346, V-B:GLU:543:CG:9879, V-A:ASP:366:CG:3213, H-A:ARG:545:N:4920, V-B:LYS:547:CE:9922, V-A:GLU:543:CD:4908, V-A:TYR:484:CZ:4347, V-B:HIS:456:CE1:9041, V-A:ARG:545:CG:4922, V-B:GLU:543:CA:9876, V-A:HIS:456:CE1:4070, V-B:GLY:544:C:9884, V-B:GLU:543:CD:9880, V-B:HIS:456:CG:9037, V-A:ASP:366:CB:3212, H-A:LYS:547:NZ:4951, V-A:LEU:475:CD2:4259, V-A:GLU:543:CB:4906, H-A:TYR:484:OH:4348"]

$$$$
ZINC1785510315
     RDKit          3D

 55 58  0  0  0  0  0  0  0  0999 V2000
  129.5230  125.4670   66.1610 O   0  0  0  0  0  0  0  0  0  0  0  0
  129.2310  126.6200   66.4920 C   0  0  0  0  0  0  0  0  0  0  0  0
  129.3660  127.0640   67.8710 C   0  0  0  0  0  0  0  0  0  0  0  0
  128.3870  126.9040   68.7900 C   0  0  0  0  0  0  0  0  0  0  0  0
  128.4250  127.3330   70.2070 C   0  0  0  0  0  0  0  0  0  0  0  0
  127.3640  126.9140   71.0190 C   0  0  0  0  0  0  0  0  0  0  0  0
  127.3230  127.2410   72.3720 C   0  0  0  0  0  0  0  0  0  0  0  0
  128.3420  128.0010   72.9400 C   0  0  0  0  0  0  0  0  0  0  0  0
  128.2800  128.3050   74.2760 O   0  0  0  0  0  0  0  0  0  0  0  0
  129.4070  128.4430   72.1470 C   0  0  0  0  0  0  0  0  0  0  0  0
  130.4060  129.2040   72.7090 O   0  0  0  0  0  0  0  0  0  0  0  0
  129.4500  128.1140   70.7820 C   0  0  0  0  0  0  0  0  0  0  0  0
  130.4910  128.5930   70.0230 O   0  0  0  0  0  0  0  0  0  0  0  0
  128.7770  127.5250   65.5850 N   0  0  0  0  0  0  0  0  0  0  0  0
  128.7540  127.2240   64.1480 C   0  0  0  0  0  0  0  0  0  0  0  0
  128.5840  128.6020   63.5160 C   0  0  0  0  0  0  0  0  0  0  0  0
  127.7740  129.4120   64.5320 C   0  0  1  0  0  0  0  0  0  0  0  0
  128.3120  128.8940   65.8740 C   0  0  0  0  0  0  0  0  0  0  0  0
  127.8860  130.9520   64.3790 C   0  0  0  0  0  0  0  0  0  0  0  0
  127.1400  131.3190   63.1620 N   0  0  0  0  0  0  0  0  0  0  0  0
  127.7580  131.9420   62.1190 C   0  0  0  0  0  0  0  0  0  0  0  0
  127.1440  132.6170   61.2900 O   0  0  0  0  0  0  0  0  0  0  0  0
  129.2520  131.8050   61.9520 C   0  0  0  0  0  0  0  0  0  0  0  0
  130.1240  131.9470   63.0410 C   0  0  0  0  0  0  0  0  0  0  0  0
  131.5030  131.8480   62.8620 C   0  0  0  0  0  0  0  0  0  0  0  0
  132.0340  131.6200   61.5910 C   0  0  0  0  0  0  0  0  0  0  0  0
  133.7500  131.5030   61.4100 Cl  0  0  0  0  0  0  0  0  0  0  0  0
  131.1730  131.4980   60.4930 C   0  0  0  0  0  0  0  0  0  0  0  0
  131.7850  131.2260   58.8960 Cl  0  0  0  0  0  0  0  0  0  0  0  0
  129.7930  131.5990   60.6770 C   0  0  0  0  0  0  0  0  0  0  0  0
  125.7090  130.9750   63.2220 C   0  0  0  0  0  0  0  0  0  0  0  0
  125.6360  129.4410   63.3700 C   0  0  0  0  0  0  0  0  0  0  0  0
  126.3930  129.0110   64.5040 O   0  0  0  0  0  0  0  0  0  0  0  0
  130.3035  127.5501   68.1788 H   0  0  0  0  0  0  0  0  0  0  0  0
  127.4681  126.4039   68.4502 H   0  0  0  0  0  0  0  0  0  0  0  0
  126.5502  126.3172   70.5813 H   0  0  0  0  0  0  0  0  0  0  0  0
  126.4830  126.8978   72.9939 H   0  0  0  0  0  0  0  0  0  0  0  0
  129.0000  128.8700   74.5650 H   0  0  0  0  0  0  0  0  0  0  0  0
  130.8930  129.7120   72.0550 H   0  0  0  0  0  0  0  0  0  0  0  0
  131.1140  129.1050   70.5440 H   0  0  0  0  0  0  0  0  0  0  0  0
  129.6953  126.7542   63.8266 H   0  0  0  0  0  0  0  0  0  0  0  0
  127.9626  126.5146   63.8646 H   0  0  0  0  0  0  0  0  0  0  0  0
  129.5640  129.0704   63.3424 H   0  0  0  0  0  0  0  0  0  0  0  0
  128.0814  128.5473   62.5391 H   0  0  0  0  0  0  0  0  0  0  0  0
  129.1446  129.5206   66.2265 H   0  0  0  0  0  0  0  0  0  0  0  0
  127.5490  128.9168   66.6660 H   0  0  0  0  0  0  0  0  0  0  0  0
  127.4481  131.4517   65.2557 H   0  0  0  0  0  0  0  0  0  0  0  0
  128.9382  131.2637   64.3037 H   0  0  0  0  0  0  0  0  0  0  0  0
  129.7166  132.1381   64.0447 H   0  0  0  0  0  0  0  0  0  0  0  0
  132.1759  131.9500   63.7262 H   0  0  0  0  0  0  0  0  0  0  0  0
  129.1220  131.5157   59.8094 H   0  0  0  0  0  0  0  0  0  0  0  0
  125.2361  131.4636   64.0867 H   0  0  0  0  0  0  0  0  0  0  0  0
  125.1789  131.3144   62.3199 H   0  0  0  0  0  0  0  0  0  0  0  0
  124.5862  129.1394   63.5000 H   0  0  0  0  0  0  0  0  0  0  0  0
  126.0548  128.9759   62.4654 H   0  0  0  0  0  0  0  0  0  0  0  0
  1  2  2  0
  2  3  1  0
  3  4  2  0
  4  5  1  0
  5  6  2  0
  6  7  1  0
  7  8  2  0
  8  9  1  0
  8 10  1  0
 10 11  1  0
 10 12  2  0
 12 13  1  0
  2 14  1  0
 14 15  1  0
 15 16  1  0
 16 17  1  0
 17 18  1  0
 17 19  1  0
 19 20  1  0
 20 21  1  0
 21 22  2  0
 21 23  1  0
 23 24  2  0
 24 25  1  0
 25 26  2  0
 26 27  1  0
 26 28  1  0
 28 29  1  0
 28 30  2  0
 20 31  1  0
 31 32  1  0
 32 33  1  0
 12  5  1  0
 18 14  1  0
 30 23  1  0
 17 33  1  1
  3 34  1  0
  4 35  1  0
  6 36  1  0
  7 37  1  0
  9 38  1  0
 11 39  1  0
 13 40  1  0
 15 41  1  0
 15 42  1  0
 16 43  1  0
 16 44  1  0
 18 45  1  0
 18 46  1  0
 19 47  1  0
 19 48  1  0
 24 49  1  0
 25 50  1  0
 30 51  1  0
 31 52  1  0
 31 53  1  0
 32 54  1  0
 32 55  1  0
M  END
>  <Binding energies>  (1) 
[-7.41]

>  <Ligand effiencies>  (1) 
[-0.20583333333333334]

>  <Interactions>  (1) 
["V-A:ALA:541:C:4888, V-B:GLU:543:C:9874, V-B:HIS:456:CD2:9039, V-B:GLU:543:CB:9878, H-B:LYS:547:NZ:9923, V-B:GLU:543:CG:9879, V-A:ASP:366:CG:3213, V-A:ASN:362:CB:3176, V-A:ALA:541:CB:4892, V-B:LYS:547:CE:9922, V-A:GLU:543:CD:4908, H-B:TYR:484:OH:9319, V-B:HIS:456:CE1:9041, V-B:GLY:544:C:9884, V-A:ALA:541:CA:4890, V-B:GLY:544:CA:9886, V-A:GLU:543:CG:4907, V-B:GLU:543:CD:9880, V-B:HIS:456:CG:9037, V-B:ARG:545:CZ:9898, H-A:LYS:547:NZ:4951, V-A:ASN:362:C:3172, H-B:ARG:545:NH2:9900, V-A:GLU:543:CB:4906, V-A:PRO:540:CB:4885, V-A:PRO:540:CA:4883, V-A:LEU:363:CA:3185, H-A:GLY:544:O:4913, H-A:GLU:543:O:4903"]

$$$$
ZINC1785510315-again1
     RDKit          3D

 54 57  0  0  0  0  0  0  0  0999 V2000
  132.0840  127.7440   69.0260 O   0  0  0  0  0  0  0  0  0  0  0  0
  130.9380  127.3350   68.8150 C   0  0  0  0  0  0  0  0  0  0  0  0
  129.8900  127.4840   69.8110 C   0  0  0  0  0  0  0  0  0  0  0  0
  130.1360  127.8930   71.0760 C   0  0  0  0  0  0  0  0  0  0  0  0
  129.1270  128.0520   72.1700 C   0  0  0  0  0  0  0  0  0  0  0  0
  128.0210  127.1910   72.1860 C   0  0  0  0  0  0  0  0  0  0  0  0
  127.0430  127.2850   73.1680 C   0  0  0  0  0  0  0  0  0  0  0  0
  127.1410  128.2490   74.1640 C   0  0  0  0  0  0  0  0  0  0  0  0
  126.1520  128.3090   75.1140 O   0  0  0  0  0  0  0  0  0  0  0  0
  128.2300  129.1310   74.1870 C   0  0  0  0  0  0  0  0  0  0  0  0
  128.2790  130.0730   75.1980 O   0  0  0  0  0  0  0  0  0  0  0  0
  129.2320  129.0400   73.1870 C   0  0  0  0  0  0  0  0  0  0  0  0
  130.2200  129.8610   73.2090 O   0  0  0  0  0  0  0  0  0  0  0  0
  130.6060  126.7240   67.6460 N   0  0  0  0  0  0  0  0  0  0  0  0
  129.3990  127.1010   66.8980 C   0  0  0  0  0  0  0  0  0  0  0  0
  129.1760  125.8940   65.9900 C   0  0  0  0  0  0  0  0  0  0  0  0
  130.5750  125.3440   65.7040 C   0  0  1  0  0  0  0  0  0  0  0  0
  131.3070  125.5820   67.0310 C   0  0  0  0  0  0  0  0  0  0  0  0
  130.6120  123.8620   65.2420 C   0  0  0  0  0  0  0  0  0  0  0  0
  130.0810  123.8260   63.8670 N   0  0  0  0  0  0  0  0  0  0  0  0
  128.9800  123.0830   63.5600 C   0  0  0  0  0  0  0  0  0  0  0  0
  128.3550  122.4420   64.4080 O   0  0  0  0  0  0  0  0  0  0  0  0
  128.4950  123.0200   62.1300 C   0  0  0  0  0  0  0  0  0  0  0  0
  129.2200  122.2860   61.1830 C   0  0  0  0  0  0  0  0  0  0  0  0
  128.7740  122.1950   59.8650 C   0  0  0  0  0  0  0  0  0  0  0  0
  127.5900  122.8230   59.4770 C   0  0  0  0  0  0  0  0  0  0  0  0
  127.0720  122.6880   57.8320 Cl  0  0  0  0  0  0  0  0  0  0  0  0
  126.8450  123.5410   60.4200 C   0  0  0  0  0  0  0  0  0  0  0  0
  125.3640  124.3250   59.9900 Cl  0  0  0  0  0  0  0  0  0  0  0  0
  127.2950  123.6290   61.7390 C   0  0  0  0  0  0  0  0  0  0  0  0
  130.8700  124.6180   62.9090 C   0  0  0  0  0  0  0  0  0  0  0  0
  130.8050  126.0810   63.3960 C   0  0  0  0  0  0  0  0  0  0  0  0
  131.2550  126.1780   64.7490 O   0  0  0  0  0  0  0  0  0  0  0  0
  128.8533  127.2544   69.5236 H   0  0  0  0  0  0  0  0  0  0  0  0
  131.1802  128.1324   71.3257 H   0  0  0  0  0  0  0  0  0  0  0  0
  127.9254  126.4238   71.4035 H   0  0  0  0  0  0  0  0  0  0  0  0
  126.1876  126.5936   73.1571 H   0  0  0  0  0  0  0  0  0  0  0  0
  126.2940  129.0130   75.7510 H   0  0  0  0  0  0  0  0  0  0  0  0
  129.0060  130.6900   75.0830 H   0  0  0  0  0  0  0  0  0  0  0  0
  128.5445  127.2521   67.5740 H   0  0  0  0  0  0  0  0  0  0  0  0
  129.5044  128.0476   66.3477 H   0  0  0  0  0  0  0  0  0  0  0  0
  128.5604  125.1373   66.4983 H   0  0  0  0  0  0  0  0  0  0  0  0
  128.6444  126.1667   65.0664 H   0  0  0  0  0  0  0  0  0  0  0  0
  131.2402  124.6932   67.6756 H   0  0  0  0  0  0  0  0  0  0  0  0
  132.3788  125.7815   66.8849 H   0  0  0  0  0  0  0  0  0  0  0  0
  131.6460  123.4871   65.2576 H   0  0  0  0  0  0  0  0  0  0  0  0
  130.0127  123.2270   65.9111 H   0  0  0  0  0  0  0  0  0  0  0  0
  130.1486  121.7773   61.4812 H   0  0  0  0  0  0  0  0  0  0  0  0
  129.3585  121.6253   59.1275 H   0  0  0  0  0  0  0  0  0  0  0  0
  126.7003  124.1831   62.4801 H   0  0  0  0  0  0  0  0  0  0  0  0
  131.9127  124.2680   62.8937 H   0  0  0  0  0  0  0  0  0  0  0  0
  130.4733  124.5195   61.8878 H   0  0  0  0  0  0  0  0  0  0  0  0
  131.4461  126.7046   62.7556 H   0  0  0  0  0  0  0  0  0  0  0  0
  129.7627  126.4283   63.3417 H   0  0  0  0  0  0  0  0  0  0  0  0
  1  2  2  0
  2  3  1  0
  3  4  2  0
  4  5  1  0
  5  6  2  0
  6  7  1  0
  7  8  2  0
  8  9  1  0
  8 10  1  0
 10 11  1  0
 10 12  2  0
 12 13  1  0
  2 14  1  0
 14 15  1  0
 15 16  1  0
 16 17  1  0
 17 18  1  0
 17 19  1  0
 19 20  1  0
 20 21  1  0
 21 22  2  0
 21 23  1  0
 23 24  2  0
 24 25  1  0
 25 26  2  0
 26 27  1  0
 26 28  1  0
 28 29  1  0
 28 30  2  0
 20 31  1  0
 31 32  1  0
 32 33  1  0
 12  5  1  0
 18 14  1  0
 30 23  1  0
 17 33  1  6
  3 34  1  0
  4 35  1  0
  6 36  1  0
  7 37  1  0
  9 38  1  0
 11 39  1  0
 15 40  1  0
 15 41  1  0
 16 42  1  0
 16 43  1  0
 18 44  1  0
 18 45  1  0
 19 46  1  0
 19 47  1  0
 24 48  1  0
 25 49  1  0
 30 50  1  0
 31 51  1  0
 31 52  1  0
 32 53  1  0
 32 54  1  0
M  CHG  1  13  -1
M  END
>  <Binding energies>  (1) 
[-7.79]

>  <Ligand effiencies>  (1) 
[-0.22257142857142856]

>  <Interactions>  (1) 
["V-B:PRO:540:CA:9855, V-B:HIS:456:CD2:9039, V-B:GLU:543:CB:9878, H-B:LYS:547:NZ:9923, V-B:ALA:541:CB:9864, V-B:TYR:539:CE2:9848, V-A:TYR:484:CE2:4346, V-B:GLU:543:CG:9879, V-B:TYR:539:C:9839, H-A:ARG:545:N:4920, V-B:LYS:547:CE:9922, V-A:GLU:543:CD:4908, V-A:TYR:484:CZ:4347, V-B:PRO:540:CB:9857, V-A:ARG:545:CG:4922, V-B:PRO:540:N:9856, V-A:HIS:456:CE1:4070, V-B:GLY:544:C:9884, V-B:TYR:539:CD2:9846, V-B:PRO:540:CD:9859, V-B:GLU:543:CD:9880, V-B:HIS:456:CG:9037, H-A:LYS:547:NZ:4951, H-A:ARG:545:NH2:4928, V-A:GLU:543:CB:4906, H-A:HIS:456:ND1:4067"]

$$$$
ZINC17862902-again1
     RDKit          3D

 36 37  0  0  0  0  0  0  0  0999 V2000
  129.4240  133.0380   57.9150 C   0  0  0  0  0  0  0  0  0  0  0  0
  129.8830  131.8690   58.7780 C   0  0  0  0  0  0  0  0  0  0  0  0
  129.0130  131.3530   59.7430 C   0  0  0  0  0  0  0  0  0  0  0  0
  129.4010  130.2840   60.5480 C   0  0  0  0  0  0  0  0  0  0  0  0
  130.6740  129.7260   60.4130 C   0  0  0  0  0  0  0  0  0  0  0  0
  131.0180  128.6050   61.2330 N   0  0  0  0  0  0  0  0  0  0  0  0
  131.3610  127.3350   60.9160 C   0  0  0  0  0  0  0  0  0  0  0  0
  131.4460  126.3900   61.8810 N   0  0  0  0  0  0  0  0  0  0  0  0
  130.5450  126.3570   63.0690 C   0  0  0  0  0  0  0  0  0  0  0  0
  132.2550  125.1490   61.7060 C   0  0  0  0  0  0  0  0  0  0  0  0
  132.1600  124.2430   62.5380 O   0  0  0  0  0  0  0  0  0  0  0  0
  133.1640  125.1010   60.4670 C   0  0  0  0  0  0  0  0  0  0  0  0
  132.3640  125.3900   59.1650 C   0  0  2  0  0  0  0  0  0  0  0  0
  133.2370  125.0470   57.9220 C   0  0  0  0  0  0  0  0  0  0  0  0
  133.8980  123.9830   57.8940 O   0  0  0  0  0  0  0  0  0  0  0  0
  133.2360  125.8790   56.9850 O   0  0  0  0  0  0  0  0  0  0  0  0
  131.7230  127.1030   59.2080 S   0  0  0  0  0  0  0  0  0  0  0  0
  131.5350  130.2190   59.4250 C   0  0  0  0  0  0  0  0  0  0  0  0
  131.1540  131.2910   58.6120 C   0  0  0  0  0  0  0  0  0  0  0  0
  132.1310  131.8110   57.5650 C   0  0  0  0  0  0  0  0  0  0  0  0
  129.0989  133.8660   58.5621 H   0  0  0  0  0  0  0  0  0  0  0  0
  130.2569  133.3742   57.2800 H   0  0  0  0  0  0  0  0  0  0  0  0
  128.5849  132.7177   57.2800 H   0  0  0  0  0  0  0  0  0  0  0  0
  128.0134  131.7948   59.8679 H   0  0  0  0  0  0  0  0  0  0  0  0
  128.7014  129.8777   61.2933 H   0  0  0  0  0  0  0  0  0  0  0  0
  131.0890  128.7990   62.2220 H   0  0  0  0  0  0  0  0  0  0  0  0
  131.1491  126.3791   63.9880 H   0  0  0  0  0  0  0  0  0  0  0  0
  129.8778  127.2313   63.0476 H   0  0  0  0  0  0  0  0  0  0  0  0
  129.9436  125.4362   63.0476 H   0  0  0  0  0  0  0  0  0  0  0  0
  133.9566  125.8560   60.5751 H   0  0  0  0  0  0  0  0  0  0  0  0
  133.5943  124.0914   60.3921 H   0  0  0  0  0  0  0  0  0  0  0  0
  131.4784  124.7420   59.0887 H   0  0  0  0  0  0  0  0  0  0  0  0
  132.5237  129.7571   59.2866 H   0  0  0  0  0  0  0  0  0  0  0  0
  132.9953  132.2710   58.0664 H   0  0  0  0  0  0  0  0  0  0  0  0
  132.4735  130.9759   56.9363 H   0  0  0  0  0  0  0  0  0  0  0  0
  131.6296  132.5616   56.9363 H   0  0  0  0  0  0  0  0  0  0  0  0
  1  2  1  0
  2  3  2  0
  3  4  1  0
  4  5  2  0
  5  6  1  0
  6  7  1  0
  7  8  2  0
  8  9  1  0
  8 10  1  0
 10 11  2  0
 10 12  1  0
 12 13  1  0
 13 14  1  0
 14 15  2  0
 14 16  1  0
 13 17  1  0
  5 18  1  0
 18 19  2  0
 19 20  1  0
 19  2  1  0
 17  7  1  0
  1 21  1  0
  1 22  1  0
  1 23  1  0
  3 24  1  0
  4 25  1  0
  6 26  1  0
  9 27  1  0
  9 28  1  0
  9 29  1  0
 12 30  1  0
 12 31  1  0
 13 32  1  1
 18 33  1  0
 20 34  1  0
 20 35  1  0
 20 36  1  0
M  CHG  2   8   1  16  -1
M  END
>  <Binding energies>  (1) 
[-6.36]

>  <Ligand effiencies>  (1) 
[-0.3028571428571429]

>  <Interactions>  (1) 
["V-A:ASP:366:CA:3210, V-A:TYR:539:CD1:4873, V-A:PRO:540:N:4884, V-A:PRO:540:CB:4885, V-A:PRO:540:CA:4883, H-A:ASN:370:N:3244, V-A:LEU:363:CD1:3189, V-B:TYR:539:CZ:9849, V-A:ASP:366:C:3208, H-B:TYR:539:OH:9850, H-A:TYR:531:OH:4795, H-A:ASP:366:OD2:3215, V-A:ASP:366:CB:3212, V-A:GLU:543:CD:4908, V-A:TYR:539:C:4867, V-B:TYR:539:CE2:9848, H-A:GLU:543:OE1:4909, V-A:ASP:366:CG:3213"]

$$$$
ZINC1799473023
     RDKit          3D

 66 69  0  0  0  0  0  0  0  0999 V2000
  127.7330  122.9310   61.0690 C   0  0  0  0  0  0  0  0  0  0  0  0
  128.4460  122.2000   62.2180 C   0  0  0  0  0  0  0  0  0  0  0  0
  129.6070  121.4540   61.7320 N   0  0  0  0  0  0  0  0  0  0  0  0
  129.4930  120.1250   61.5750 N   0  0  0  0  0  0  0  0  0  0  0  0
  130.6460  119.7090   61.0890 C   0  0  0  0  0  0  0  0  0  0  0  0
  130.9150  118.2370   60.7850 C   0  0  0  0  0  0  0  0  0  0  0  0
  131.3250  117.9550   59.3230 C   0  0  0  0  0  0  0  0  0  0  0  0
  129.7160  117.3650   61.1990 C   0  0  0  0  0  0  0  0  0  0  0  0
  131.5160  120.7950   60.9150 C   0  0  0  0  0  0  0  0  0  0  0  0
  130.8440  121.9240   61.3490 C   0  0  0  0  0  0  0  0  0  0  0  0
  131.2460  123.3030   61.2990 C   0  0  0  0  0  0  0  0  0  0  0  0
  131.1890  123.9080   60.2270 O   0  0  0  0  0  0  0  0  0  0  0  0
  131.7400  123.8410   62.4500 N   0  0  0  0  0  0  0  0  0  0  0  0
  131.5570  125.2650   62.7720 C   0  0  2  0  0  0  0  0  0  0  0  0
  132.6460  125.4500   63.8410 C   0  0  0  0  0  0  0  0  0  0  0  0
  132.9090  124.0670   64.4340 C   0  0  0  0  0  0  0  0  0  0  0  0
  131.9670  123.0960   63.7030 C   0  0  1  0  0  0  0  0  0  0  0  0
  130.5740  123.0140   64.3970 C   0  0  0  0  0  0  0  0  0  0  0  0
  129.8090  124.3660   64.5270 C   0  0  1  0  0  0  0  0  0  0  0  0
  129.9500  124.9400   65.8720 N   0  0  0  0  0  0  0  0  0  0  0  0
  129.5820  126.1770   66.2550 C   0  0  0  0  0  0  0  0  0  0  0  0
  129.0420  126.9880   65.5000 O   0  0  0  0  0  0  0  0  0  0  0  0
  129.8860  126.4520   67.6420 C   0  0  0  0  0  0  0  0  0  0  0  0
  128.9760  126.9700   68.4980 C   0  0  0  0  0  0  0  0  0  0  0  0
  129.1850  127.2950   69.9350 C   0  0  0  0  0  0  0  0  0  0  0  0
  130.4110  127.8080   70.3860 C   0  0  0  0  0  0  0  0  0  0  0  0
  130.6110  128.1160   71.7290 C   0  0  0  0  0  0  0  0  0  0  0  0
  129.5890  127.9200   72.6540 C   0  0  0  0  0  0  0  0  0  0  0  0
  129.8130  128.2330   73.9710 O   0  0  0  0  0  0  0  0  0  0  0  0
  128.3570  127.4100   72.2310 C   0  0  0  0  0  0  0  0  0  0  0  0
  127.3500  127.2170   73.1490 O   0  0  0  0  0  0  0  0  0  0  0  0
  128.1550  127.0960   70.8770 C   0  0  0  0  0  0  0  0  0  0  0  0
  126.9340  126.5930   70.4870 O   0  0  0  0  0  0  0  0  0  0  0  0
  130.1250  125.3750   63.3750 C   0  0  0  0  0  0  0  0  0  0  0  0
  127.0217  123.6603   61.4839 H   0  0  0  0  0  0  0  0  0  0  0  0
  128.4765  123.4550   60.4505 H   0  0  0  0  0  0  0  0  0  0  0  0
  127.1906  122.2008   60.4505 H   0  0  0  0  0  0  0  0  0  0  0  0
  128.7801  122.9393   62.9608 H   0  0  0  0  0  0  0  0  0  0  0  0
  127.7391  121.4882   62.6693 H   0  0  0  0  0  0  0  0  0  0  0  0
  131.7904  117.9642   61.3926 H   0  0  0  0  0  0  0  0  0  0  0  0
  132.2313  117.3317   59.3101 H   0  0  0  0  0  0  0  0  0  0  0  0
  130.5089  117.4262   58.8088 H   0  0  0  0  0  0  0  0  0  0  0  0
  131.5269  118.9062   58.8088 H   0  0  0  0  0  0  0  0  0  0  0  0
  129.6560  117.3213   62.2965 H   0  0  0  0  0  0  0  0  0  0  0  0
  128.7893  117.8016   60.7982 H   0  0  0  0  0  0  0  0  0  0  0  0
  129.8459  116.3489   60.7982 H   0  0  0  0  0  0  0  0  0  0  0  0
  132.5382  120.7566   60.5105 H   0  0  0  0  0  0  0  0  0  0  0  0
  131.6387  125.9986   61.9564 H   0  0  0  0  0  0  0  0  0  0  0  0
  133.5637  125.8486   63.3839 H   0  0  0  0  0  0  0  0  0  0  0  0
  132.3263  126.1617   64.6164 H   0  0  0  0  0  0  0  0  0  0  0  0
  133.9571  123.7759   64.2707 H   0  0  0  0  0  0  0  0  0  0  0  0
  132.7288  124.0571   65.5191 H   0  0  0  0  0  0  0  0  0  0  0  0
  132.3760  122.0771   63.6359 H   0  0  0  0  0  0  0  0  0  0  0  0
  129.9456  122.3235   63.8154 H   0  0  0  0  0  0  0  0  0  0  0  0
  130.7683  122.6765   65.4258 H   0  0  0  0  0  0  0  0  0  0  0  0
  128.7408  124.1376   64.3978 H   0  0  0  0  0  0  0  0  0  0  0  0
  130.3930  124.3460   66.5560 H   0  0  0  0  0  0  0  0  0  0  0  0
  130.8969  126.2312   68.0153 H   0  0  0  0  0  0  0  0  0  0  0  0
  127.9753  127.1725   68.0886 H   0  0  0  0  0  0  0  0  0  0  0  0
  131.2273  127.9694   69.6666 H   0  0  0  0  0  0  0  0  0  0  0  0
  131.5806  128.5159   72.0607 H   0  0  0  0  0  0  0  0  0  0  0  0
  129.0420  128.0960   74.5260 H   0  0  0  0  0  0  0  0  0  0  0  0
  126.5220  126.9570   72.7400 H   0  0  0  0  0  0  0  0  0  0  0  0
  126.6800  125.8010   70.9660 H   0  0  0  0  0  0  0  0  0  0  0  0
  129.4005  125.2046   62.5650 H   0  0  0  0  0  0  0  0  0  0  0  0
  130.0574  126.3784   63.8207 H   0  0  0  0  0  0  0  0  0  0  0  0
  1  2  1  0
  2  3  1  0
  3  4  1  0
  4  5  2  0
  5  6  1  0
  6  7  1  0
  6  8  1  0
  5  9  1  0
  9 10  2  0
 10 11  1  0
 11 12  2  0
 11 13  1  0
 13 14  1  0
 14 15  1  0
 15 16  1  0
 16 17  1  0
 17 18  1  0
 18 19  1  0
 19 20  1  0
 20 21  1  0
 21 22  2  0
 21 23  1  0
 23 24  2  0
 24 25  1  0
 25 26  2  0
 26 27  1  0
 27 28  2  0
 28 29  1  0
 28 30  1  0
 30 31  1  0
 30 32  2  0
 32 33  1  0
 19 34  1  0
 10  3  1  0
 17 13  1  0
 32 25  1  0
 34 14  1  0
  1 35  1  0
  1 36  1  0
  1 37  1  0
  2 38  1  0
  2 39  1  0
  6 40  1  0
  7 41  1  0
  7 42  1  0
  7 43  1  0
  8 44  1  0
  8 45  1  0
  8 46  1  0
  9 47  1  0
 14 48  1  6
 15 49  1  0
 15 50  1  0
 16 51  1  0
 16 52  1  0
 17 53  1  6
 18 54  1  0
 18 55  1  0
 19 56  1  6
 20 57  1  0
 23 58  1  0
 24 59  1  0
 26 60  1  0
 27 61  1  0
 29 62  1  0
 31 63  1  0
 33 64  1  0
 34 65  1  0
 34 66  1  0
M  END
>  <Binding energies>  (1) 
[-7.99]

>  <Ligand effiencies>  (1) 
[-0.21026315789473685]

>  <Interactions>  (1) 
["V-B:PRO:540:CA:9855, V-A:GLY:454:CA:4049, V-B:HIS:456:CD2:9039, H-B:GLU:543:O:9875, V-A:GLU:543:C:4902, V-B:GLU:543:CB:9878, H-B:LYS:547:NZ:9923, V-B:ALA:541:CB:9864, V-B:TYR:539:CE2:9848, V-A:TYR:484:CE2:4346, V-B:GLU:543:CG:9879, V-A:GLY:544:C:4912, H-B:ARG:545:N:9892, H-B:ALA:541:N:9863, V-A:HIS:383:CE1:3393, V-B:TYR:539:CB:9843, V-A:GLU:543:CD:4908, V-B:HIS:456:CE1:9041, H-B:GLY:544:N:9887, V-A:HIS:456:CE1:4070, V-A:PRO:482:CB:4326, V-B:TYR:539:CD2:9846, V-B:GLU:543:CD:9880, H-A:LYS:547:NZ:4951, V-A:LEU:475:CD2:4259, V-A:ARG:545:CZ:4926, V-B:TYR:539:CG:9844, V-A:GLU:543:CB:4906, V-A:HIS:383:CD2:3392, H-B:GLY:544:O:9885, V-A:PRO:482:CG:4327, V-B:PRO:540:C:9853, V-B:ALA:541:CA:9862, V-A:HIS:383:NE2:3394, H-A:TYR:484:OH:4348"]

$$$$
ZINC1799473023-again1
     RDKit          3D

 65 68  0  0  0  0  0  0  0  0999 V2000
  127.8960  123.1780   60.3000 C   0  0  0  0  0  0  0  0  0  0  0  0
  128.5780  122.6550   61.5750 C   0  0  0  0  0  0  0  0  0  0  0  0
  129.7280  121.8090   61.2530 N   0  0  0  0  0  0  0  0  0  0  0  0
  129.5580  120.4780   61.2460 N   0  0  0  0  0  0  0  0  0  0  0  0
  130.7420  119.9590   60.9860 C   0  0  0  0  0  0  0  0  0  0  0  0
  130.9430  118.4530   60.9110 C   0  0  0  0  0  0  0  0  0  0  0  0
  131.1460  117.9710   59.4610 C   0  0  0  0  0  0  0  0  0  0  0  0
  129.7920  117.6960   61.6010 C   0  0  0  0  0  0  0  0  0  0  0  0
  131.6980  120.9720   60.8390 C   0  0  0  0  0  0  0  0  0  0  0  0
  131.0320  122.1760   61.0000 C   0  0  0  0  0  0  0  0  0  0  0  0
  131.5600  123.5130   61.0510 C   0  0  0  0  0  0  0  0  0  0  0  0
  131.4920  124.2260   60.0500 O   0  0  0  0  0  0  0  0  0  0  0  0
  132.0520  123.9320   62.2520 N   0  0  0  0  0  0  0  0  0  0  0  0
  132.4110  125.3250   62.5800 C   0  0  2  0  0  0  0  0  0  0  0  0
  133.2800  125.1020   63.8280 C   0  0  0  0  0  0  0  0  0  0  0  0
  132.8550  123.7570   64.4130 C   0  0  0  0  0  0  0  0  0  0  0  0
  131.7420  123.2180   63.5010 C   0  0  1  0  0  0  0  0  0  0  0  0
  130.3350  123.7270   63.9360 C   0  0  0  0  0  0  0  0  0  0  0  0
  130.1650  125.2760   63.9640 C   0  0  1  0  0  0  0  0  0  0  0  0
  130.2380  125.8100   65.3290 N   0  0  0  0  0  0  0  0  0  0  0  0
  129.9200  125.1570   66.4620 C   0  0  0  0  0  0  0  0  0  0  0  0
  129.5290  123.9870   66.4840 O   0  0  0  0  0  0  0  0  0  0  0  0
  130.0920  125.9660   67.6460 C   0  0  0  0  0  0  0  0  0  0  0  0
  129.0860  126.2130   68.5140 C   0  0  0  0  0  0  0  0  0  0  0  0
  129.1580  127.0100   69.7720 C   0  0  0  0  0  0  0  0  0  0  0  0
  130.3720  127.6770   69.9680 C   0  0  0  0  0  0  0  0  0  0  0  0
  130.6030  128.4440   71.1030 C   0  0  0  0  0  0  0  0  0  0  0  0
  129.6180  128.5640   72.0760 C   0  0  0  0  0  0  0  0  0  0  0  0
  129.8850  129.3270   73.1860 O   0  0  0  0  0  0  0  0  0  0  0  0
  128.3840  127.9210   71.9160 C   0  0  0  0  0  0  0  0  0  0  0  0
  127.4410  128.0870   72.9140 O   0  0  0  0  0  0  0  0  0  0  0  0
  128.1390  127.1410   70.7570 C   0  0  0  0  0  0  0  0  0  0  0  0
  126.9900  126.5920   70.5970 O   0  0  0  0  0  0  0  0  0  0  0  0
  131.0680  126.0300   62.9350 C   0  0  0  0  0  0  0  0  0  0  0  0
  127.0510  123.8260   60.5756 H   0  0  0  0  0  0  0  0  0  0  0  0
  128.6211  123.7538   59.7061 H   0  0  0  0  0  0  0  0  0  0  0  0
  127.5280  122.3284   59.7061 H   0  0  0  0  0  0  0  0  0  0  0  0
  128.9196  123.5109   62.1757 H   0  0  0  0  0  0  0  0  0  0  0  0
  127.8493  122.0520   62.1367 H   0  0  0  0  0  0  0  0  0  0  0  0
  131.8680  118.2228   61.4599 H   0  0  0  0  0  0  0  0  0  0  0  0
  131.5729  116.9573   59.4680 H   0  0  0  0  0  0  0  0  0  0  0  0
  130.1772  117.9573   58.9401 H   0  0  0  0  0  0  0  0  0  0  0  0
  131.8327  118.6545   58.9401 H   0  0  0  0  0  0  0  0  0  0  0  0
  129.9061  117.7711   62.6925 H   0  0  0  0  0  0  0  0  0  0  0  0
  128.8305  118.1386   61.3016 H   0  0  0  0  0  0  0  0  0  0  0  0
  129.8176  116.6378   61.3016 H   0  0  0  0  0  0  0  0  0  0  0  0
  132.7705  120.8375   60.6351 H   0  0  0  0  0  0  0  0  0  0  0  0
  132.9194  125.9243   61.8104 H   0  0  0  0  0  0  0  0  0  0  0  0
  134.3444  125.0775   63.5513 H   0  0  0  0  0  0  0  0  0  0  0  0
  133.1472  125.9146   64.5574 H   0  0  0  0  0  0  0  0  0  0  0  0
  133.7070  123.0613   64.4250 H   0  0  0  0  0  0  0  0  0  0  0  0
  132.5025  123.8669   65.4492 H   0  0  0  0  0  0  0  0  0  0  0  0
  131.7117  122.1187   63.4783 H   0  0  0  0  0  0  0  0  0  0  0  0
  129.5936  123.3166   63.2346 H   0  0  0  0  0  0  0  0  0  0  0  0
  130.1966  123.3876   64.9731 H   0  0  0  0  0  0  0  0  0  0  0  0
  129.1432  125.4807   63.6119 H   0  0  0  0  0  0  0  0  0  0  0  0
  130.5400  126.7690   65.4100 H   0  0  0  0  0  0  0  0  0  0  0  0
  131.0825  126.3989   67.8496 H   0  0  0  0  0  0  0  0  0  0  0  0
  128.1067  125.7784   68.2651 H   0  0  0  0  0  0  0  0  0  0  0  0
  131.1612  127.5922   69.2064 H   0  0  0  0  0  0  0  0  0  0  0  0
  131.5673  128.9573   71.2318 H   0  0  0  0  0  0  0  0  0  0  0  0
  129.1150  129.4500   73.7440 H   0  0  0  0  0  0  0  0  0  0  0  0
  126.6240  127.6200   72.7250 H   0  0  0  0  0  0  0  0  0  0  0  0
  130.4931  126.1524   62.0052 H   0  0  0  0  0  0  0  0  0  0  0  0
  131.3431  126.9812   63.4140 H   0  0  0  0  0  0  0  0  0  0  0  0
  1  2  1  0
  2  3  1  0
  3  4  1  0
  4  5  2  0
  5  6  1  0
  6  7  1  0
  6  8  1  0
  5  9  1  0
  9 10  2  0
 10 11  1  0
 11 12  2  0
 11 13  1  0
 13 14  1  0
 14 15  1  0
 15 16  1  0
 16 17  1  0
 17 18  1  0
 18 19  1  0
 19 20  1  0
 20 21  1  0
 21 22  2  0
 21 23  1  0
 23 24  2  0
 24 25  1  0
 25 26  2  0
 26 27  1  0
 27 28  2  0
 28 29  1  0
 28 30  1  0
 30 31  1  0
 30 32  2  0
 32 33  1  0
 19 34  1  0
 10  3  1  0
 17 13  1  0
 32 25  1  0
 34 14  1  0
  1 35  1  0
  1 36  1  0
  1 37  1  0
  2 38  1  0
  2 39  1  0
  6 40  1  0
  7 41  1  0
  7 42  1  0
  7 43  1  0
  8 44  1  0
  8 45  1  0
  8 46  1  0
  9 47  1  0
 14 48  1  6
 15 49  1  0
 15 50  1  0
 16 51  1  0
 16 52  1  0
 17 53  1  6
 18 54  1  0
 18 55  1  0
 19 56  1  6
 20 57  1  0
 23 58  1  0
 24 59  1  0
 26 60  1  0
 27 61  1  0
 29 62  1  0
 31 63  1  0
 34 64  1  0
 34 65  1  0
M  CHG  1  33  -1
M  END
>  <Binding energies>  (1) 
[-8.19]

>  <Ligand effiencies>  (1) 
[-0.22135135135135134]

>  <Interactions>  (1) 
["V-B:PRO:540:CA:9855, V-A:GLY:454:CA:4049, V-B:GLU:543:C:9874, H-A:GLU:543:OE2:4910, V-A:GLU:543:C:4902, V-B:HIS:456:CD2:9039, V-B:GLU:543:CB:9878, H-B:LYS:547:NZ:9923, V-B:ALA:541:CB:9864, V-B:TYR:539:CE2:9848, V-A:GLY:544:CA:4914, V-B:GLU:543:CG:9879, V-A:GLY:544:C:4912, H-B:ARG:545:N:9892, H-B:ALA:541:N:9863, V-A:LEU:475:CD1:4258, V-A:HIS:383:CE1:3393, V-B:TYR:539:CB:9843, V-A:TYR:484:CZ:4347, V-A:GLU:543:CD:4908, V-B:GLU:543:CA:9876, H-B:GLY:544:N:9887, V-B:HIS:456:CE1:9041, V-A:HIS:456:CE1:4070, H-B:HIS:456:NE2:9042, V-A:PRO:482:CB:4326, V-B:TYR:539:CD2:9846, H-A:LYS:547:NZ:4951, V-A:LEU:475:CD2:4259, V-A:ARG:545:CZ:4926, H-A:GLU:543:OE1:4909, V-B:TYR:539:CG:9844, V-A:GLU:543:CB:4906, V-A:HIS:383:CD2:3392, H-B:GLY:544:O:9885, V-A:PRO:482:CG:4327, V-A:HIS:383:NE2:3394, H-A:TYR:484:OH:4348"]

$$$$
ZINC17995684
     RDKit          3D

 43 44  0  0  0  0  0  0  0  0999 V2000
  128.1370  125.5480   57.6280 C   0  0  0  0  0  0  0  0  0  0  0  0
  129.4360  126.2050   57.5170 N   0  0  0  0  0  0  0  0  0  0  0  0
  129.4730  127.6130   57.1340 C   0  0  0  0  0  0  0  0  0  0  0  0
  130.5980  125.5300   57.8690 C   0  0  0  0  0  0  0  0  0  0  0  0
  131.8070  125.9390   57.9220 N   0  0  0  0  0  0  0  0  0  0  0  0
  132.8480  125.0930   58.3060 C   0  0  0  0  0  0  0  0  0  0  0  0
  133.6230  124.5280   57.5200 O   0  0  0  0  0  0  0  0  0  0  0  0
  132.9930  124.8950   59.8050 C   0  0  0  0  0  0  0  0  0  0  0  0
  133.9480  123.9960   60.2970 C   0  0  0  0  0  0  0  0  0  0  0  0
  134.1020  123.7950   61.6660 C   0  0  0  0  0  0  0  0  0  0  0  0
  133.3130  124.4850   62.5940 C   0  0  0  0  0  0  0  0  0  0  0  0
  133.5310  124.2170   64.0330 N   0  0  0  0  0  0  0  0  0  0  0  0
  134.0320  125.0900   64.7330 O   0  0  0  0  0  0  0  0  0  0  0  0
  133.2350  123.1030   64.4570 O   0  0  0  0  0  0  0  0  0  0  0  0
  132.3380  125.3890   62.1150 C   0  0  0  0  0  0  0  0  0  0  0  0
  131.3820  126.1500   63.0320 C   0  0  0  0  0  0  0  0  0  0  0  0
  130.0250  125.0260   63.7160 S   0  0  0  0  0  0  0  0  0  0  0  0
  128.8070  125.2290   62.9230 O   0  0  0  0  0  0  0  0  0  0  0  0
  130.5690  123.6750   63.8940 O   0  0  0  0  0  0  0  0  0  0  0  0
  129.7280  125.7020   65.3470 C   0  0  0  0  0  0  0  0  0  0  0  0
  129.1010  126.9430   65.4800 C   0  0  0  0  0  0  0  0  0  0  0  0
  128.8630  127.4650   66.7490 C   0  0  0  0  0  0  0  0  0  0  0  0
  129.2540  126.7450   67.8770 C   0  0  0  0  0  0  0  0  0  0  0  0
  128.9590  127.3940   69.4500 Cl  0  0  0  0  0  0  0  0  0  0  0  0
  129.8780  125.5050   67.7470 C   0  0  0  0  0  0  0  0  0  0  0  0
  130.1150  124.9810   66.4790 C   0  0  0  0  0  0  0  0  0  0  0  0
  132.1950  125.5800   60.7350 C   0  0  0  0  0  0  0  0  0  0  0  0
  127.8811  125.4186   58.6900 H   0  0  0  0  0  0  0  0  0  0  0  0
  127.3702  126.1667   57.1388 H   0  0  0  0  0  0  0  0  0  0  0  0
  128.1809  124.5637   57.1388 H   0  0  0  0  0  0  0  0  0  0  0  0
  129.4894  128.2387   58.0385 H   0  0  0  0  0  0  0  0  0  0  0  0
  130.3766  127.8071   56.5374 H   0  0  0  0  0  0  0  0  0  0  0  0
  128.5809  127.8543   56.5374 H   0  0  0  0  0  0  0  0  0  0  0  0
  130.4541  124.4753   58.1463 H   0  0  0  0  0  0  0  0  0  0  0  0
  134.5849  123.4414   59.5922 H   0  0  0  0  0  0  0  0  0  0  0  0
  134.8576  123.0808   62.0251 H   0  0  0  0  0  0  0  0  0  0  0  0
  131.9535  126.5707   63.8724 H   0  0  0  0  0  0  0  0  0  0  0  0
  130.9030  126.9460   62.4429 H   0  0  0  0  0  0  0  0  0  0  0  0
  128.7963  127.5061   64.5855 H   0  0  0  0  0  0  0  0  0  0  0  0
  128.3686  128.4413   66.8609 H   0  0  0  0  0  0  0  0  0  0  0  0
  130.1818  124.9430   68.6425 H   0  0  0  0  0  0  0  0  0  0  0  0
  130.6054  124.0025   66.3691 H   0  0  0  0  0  0  0  0  0  0  0  0
  131.4357  126.2869   60.3693 H   0  0  0  0  0  0  0  0  0  0  0  0
  1  2  1  0
  2  3  1  0
  2  4  1  0
  4  5  2  0
  5  6  1  0
  6  7  2  0
  6  8  1  0
  8  9  2  0
  9 10  1  0
 10 11  2  0
 11 12  1  0
 12 13  2  0
 12 14  1  0
 11 15  1  0
 15 16  1  0
 16 17  1  0
 17 18  2  0
 17 19  2  0
 17 20  1  0
 20 21  2  0
 21 22  1  0
 22 23  2  0
 23 24  1  0
 23 25  1  0
 25 26  2  0
 15 27  2  0
 27  8  1  0
 26 20  1  0
  1 28  1  0
  1 29  1  0
  1 30  1  0
  3 31  1  0
  3 32  1  0
  3 33  1  0
  4 34  1  0
  9 35  1  0
 10 36  1  0
 16 37  1  0
 16 38  1  0
 21 39  1  0
 22 40  1  0
 25 41  1  0
 26 42  1  0
 27 43  1  0
M  CHG  2  12   1  14  -1
M  END
>  <Binding energies>  (1) 
[-7.7]

>  <Ligand effiencies>  (1) 
[-0.2851851851851852]

>  <Interactions>  (1) 
["V-A:ILE:369:CG2:3237, V-A:ASP:366:CA:3210, V-A:GLY:454:CA:4049, V-A:ILE:369:CB:3236, V-B:GLU:543:CB:9878, H-A:TYR:531:OH:4795, H-A:ARG:545:NH1:4927, V-B:TYR:539:CE2:9848, V-A:TYR:484:CE2:4346, V-B:GLU:543:CG:9879, V-A:ASP:366:CG:3213, V-B:TYR:539:CZ:9849, H-B:TYR:539:OH:9850, V-A:GLU:543:CD:4908, V-A:TYR:484:CZ:4347, V-B:GLU:543:CA:9876, H-A:GLY:454:N:4050, V-B:HIS:456:CE1:9041, V-A:ILE:369:CD1:3239, V-A:HIS:456:CE1:4070, V-B:GLU:543:CD:9880, V-A:ASP:366:CB:3212, H-A:ARG:545:NH2:4928, V-A:ARG:545:CZ:4926, H-A:ARG:545:NE:4924, H-A:TYR:484:OH:4348"]

$$$$
ZINC17995684-again1
     RDKit          3D

 44 45  0  0  0  0  0  0  0  0999 V2000
  130.1050  125.8550   67.5640 C   0  0  0  0  0  0  0  0  0  0  0  0
  130.1740  125.8460   66.0990 N   0  0  0  0  0  0  0  0  0  0  0  0
  129.1560  126.5970   65.3440 C   0  0  0  0  0  0  0  0  0  0  0  0
  131.2350  125.2660   65.5170 C   0  0  0  0  0  0  0  0  0  0  0  0
  131.5340  125.2280   64.2140 N   0  0  0  0  0  0  0  0  0  0  0  0
  132.7250  124.5600   63.6740 C   0  0  0  0  0  0  0  0  0  0  0  0
  133.5060  123.9780   64.4280 O   0  0  0  0  0  0  0  0  0  0  0  0
  132.9420  124.5690   62.1770 C   0  0  0  0  0  0  0  0  0  0  0  0
  133.7980  123.6560   61.5440 C   0  0  0  0  0  0  0  0  0  0  0  0
  133.9760  123.6910   60.1640 C   0  0  0  0  0  0  0  0  0  0  0  0
  133.3040  124.6280   59.3690 C   0  0  0  0  0  0  0  0  0  0  0  0
  133.5510  124.6090   57.9090 N   0  0  0  0  0  0  0  0  0  0  0  0
  133.2130  125.5760   57.2350 O   0  0  0  0  0  0  0  0  0  0  0  0
  134.0500  123.5960   57.4280 O   0  0  0  0  0  0  0  0  0  0  0  0
  132.4400  125.5550   59.9940 C   0  0  0  0  0  0  0  0  0  0  0  0
  131.7070  126.6580   59.2340 C   0  0  0  0  0  0  0  0  0  0  0  0
  129.9110  126.8200   59.8070 S   0  0  0  0  0  0  0  0  0  0  0  0
  129.8370  126.4220   61.2170 O   0  0  0  0  0  0  0  0  0  0  0  0
  129.3930  128.1250   59.3830 O   0  0  0  0  0  0  0  0  0  0  0  0
  129.0650  125.5700   58.8440 C   0  0  0  0  0  0  0  0  0  0  0  0
  128.8680  125.7660   57.4750 C   0  0  0  0  0  0  0  0  0  0  0  0
  128.2130  124.7940   56.7240 C   0  0  0  0  0  0  0  0  0  0  0  0
  127.7600  123.6300   57.3450 C   0  0  0  0  0  0  0  0  0  0  0  0
  126.9490  122.4250   56.4130 Cl  0  0  0  0  0  0  0  0  0  0  0  0
  127.9590  123.4310   58.7100 C   0  0  0  0  0  0  0  0  0  0  0  0
  128.6130  124.4020   59.4620 C   0  0  0  0  0  0  0  0  0  0  0  0
  132.2690  125.5060   61.3830 C   0  0  0  0  0  0  0  0  0  0  0  0
  131.1150  125.7233   67.9795 H   0  0  0  0  0  0  0  0  0  0  0  0
  129.6903  126.8148   67.9057 H   0  0  0  0  0  0  0  0  0  0  0  0
  129.4580  125.0336   67.9057 H   0  0  0  0  0  0  0  0  0  0  0  0
  128.4749  127.0994   66.0466 H   0  0  0  0  0  0  0  0  0  0  0  0
  129.6497  127.3489   64.7108 H   0  0  0  0  0  0  0  0  0  0  0  0
  128.5833  125.9034   64.7108 H   0  0  0  0  0  0  0  0  0  0  0  0
  131.9427  124.7621   66.1917 H   0  0  0  0  0  0  0  0  0  0  0  0
  130.9040  125.6830   63.5690 H   0  0  0  0  0  0  0  0  0  0  0  0
  134.3336  122.9053   62.1437 H   0  0  0  0  0  0  0  0  0  0  0  0
  134.6570  122.9695   59.6890 H   0  0  0  0  0  0  0  0  0  0  0  0
  132.2241  127.6138   59.4045 H   0  0  0  0  0  0  0  0  0  0  0  0
  131.7059  126.3983   58.1651 H   0  0  0  0  0  0  0  0  0  0  0  0
  129.2294  126.6857   56.9918 H   0  0  0  0  0  0  0  0  0  0  0  0
  128.0534  124.9431   55.6459 H   0  0  0  0  0  0  0  0  0  0  0  0
  127.6002  122.5093   59.1913 H   0  0  0  0  0  0  0  0  0  0  0  0
  128.7735  124.2502   60.5396 H   0  0  0  0  0  0  0  0  0  0  0  0
  131.5873  126.2232   61.8636 H   0  0  0  0  0  0  0  0  0  0  0  0
  1  2  1  0
  2  3  1  0
  2  4  1  0
  4  5  2  0
  5  6  1  0
  6  7  2  0
  6  8  1  0
  8  9  2  0
  9 10  1  0
 10 11  2  0
 11 12  1  0
 12 13  2  0
 12 14  1  0
 11 15  1  0
 15 16  1  0
 16 17  1  0
 17 18  2  0
 17 19  2  0
 17 20  1  0
 20 21  2  0
 21 22  1  0
 22 23  2  0
 23 24  1  0
 23 25  1  0
 25 26  2  0
 15 27  2  0
 27  8  1  0
 26 20  1  0
  1 28  1  0
  1 29  1  0
  1 30  1  0
  3 31  1  0
  3 32  1  0
  3 33  1  0
  4 34  1  0
  5 35  1  0
  9 36  1  0
 10 37  1  0
 16 38  1  0
 16 39  1  0
 21 40  1  0
 22 41  1  0
 25 42  1  0
 26 43  1  0
 27 44  1  0
M  CHG  3   5   1  12   1  14  -1
M  END
>  <Binding energies>  (1) 
[-8.34]

>  <Ligand effiencies>  (1) 
[-0.2978571428571429]

>  <Interactions>  (1) 
["V-A:ILE:369:CG2:3237, V-A:ASP:366:CA:3210, V-B:PRO:540:CA:9855, H-A:GLU:543:OE2:4910, V-A:ILE:369:CB:3236, V-B:GLU:543:CB:9878, H-A:TYR:531:OH:4795, V-B:TYR:539:CE2:9848, V-B:GLU:543:CG:9879, V-B:TYR:539:C:9839, V-A:ASP:366:CG:3213, V-B:TYR:539:CZ:9849, H-A:ASN:370:N:3244, H-B:TYR:539:OH:9850, V-A:GLU:543:CD:4908, H-A:GLY:454:N:4050, V-B:PRO:540:N:9856, V-A:ILE:369:CD1:3239, V-A:HIS:456:CE1:4070, V-A:ASP:366:C:3208, V-B:PRO:540:CD:9859, V-B:GLU:543:CD:9880, V-A:ASP:366:CB:3212, V-A:ARG:545:CZ:4926, H-A:GLU:543:OE1:4909, V-B:TYR:539:CG:9844, V-B:TYR:539:CD1:9845, V-B:TYR:539:CE1:9847, H-A:TYR:484:OH:4348"]

$$$$
ZINC1800430536
     RDKit          3D

 90 92  0  0  0  0  0  0  0  0999 V2000
  129.0710  132.5420   62.3430 C   0  0  0  0  0  0  0  0  0  0  0  0
  129.3660  131.4930   63.4180 C   0  0  0  0  0  0  0  0  0  0  0  0
  128.3820  131.5830   64.4400 O   0  0  0  0  0  0  0  0  0  0  0  0
  128.3710  130.7100   65.4770 C   0  0  0  0  0  0  0  0  0  0  0  0
  128.7950  130.9630   66.6090 O   0  0  0  0  0  0  0  0  0  0  0  0
  127.7390  129.3240   65.1180 C   0  0  2  0  0  0  0  0  0  0  0  0
  127.4610  128.4710   66.4100 C   0  0  0  0  0  0  0  0  0  0  0  0
  128.6960  127.9470   67.1880 C   0  0  0  0  0  0  0  0  0  0  0  0
  128.5090  127.8900   68.7220 C   0  0  0  0  0  0  0  0  0  0  0  0
  129.8380  127.5660   69.4280 C   0  0  0  0  0  0  0  0  0  0  0  0
  127.4070  126.9010   69.1530 C   0  0  0  0  0  0  0  0  0  0  0  0
  128.7380  128.5370   64.1980 C   0  0  0  0  0  0  0  0  0  0  0  0
  128.8490  127.0950   64.4510 N   0  0  0  0  0  0  0  0  0  0  0  0
  129.5830  126.1950   63.7700 C   0  0  0  0  0  0  0  0  0  0  0  0
  129.5520  125.0050   64.0760 O   0  0  0  0  0  0  0  0  0  0  0  0
  130.4720  126.6400   62.5960 C   0  0  0  0  0  0  0  0  0  0  0  0
  129.8670  126.2420   61.2370 C   0  0  0  0  0  0  0  0  0  0  0  0
  129.6550  127.4550   60.3080 C   0  0  0  0  0  0  0  0  0  0  0  0
  129.7490  127.1430   58.8710 N   0  0  0  0  0  0  0  0  0  0  0  0
  130.2250  125.9710   58.3640 C   0  0  0  0  0  0  0  0  0  0  0  0
  129.5550  124.9350   58.3770 O   0  0  0  0  0  0  0  0  0  0  0  0
  131.6460  125.9010   57.7620 C   0  0  0  0  0  0  0  0  0  0  0  0
  132.6460  125.2330   58.6830 C   0  0  0  0  0  0  0  0  0  0  0  0
  132.8120  125.1700   60.0490 C   0  0  0  0  0  0  0  0  0  0  0  0
  133.9360  124.3710   60.2490 C   0  0  0  0  0  0  0  0  0  0  0  0
  134.5810  123.9510   61.5490 C   0  0  0  0  0  0  0  0  0  0  0  0
  134.4430  123.9680   59.1030 N   0  0  0  0  0  0  0  0  0  0  0  0
  133.6350  124.5080   58.1020 O   0  0  0  0  0  0  0  0  0  0  0  0
  129.1590  128.1620   57.9860 C   0  0  0  0  0  0  0  0  0  0  0  0
  128.3000  127.5680   56.8480 C   0  0  0  0  0  0  0  0  0  0  0  0
  127.8510  126.2010   57.0990 N   0  0  0  0  0  0  0  0  0  0  0  0
  126.8220  125.8020   57.8710 C   0  0  0  0  0  0  0  0  0  0  0  0
  126.6380  124.6070   58.0910 O   0  0  0  0  0  0  0  0  0  0  0  0
  125.8570  126.8310   58.4950 C   0  0  0  0  0  0  0  0  0  0  0  0
  126.5560  128.0400   58.8080 O   0  0  0  0  0  0  0  0  0  0  0  0
  126.5000  128.4360   60.1270 C   0  0  0  0  0  0  0  0  0  0  0  0
  126.4940  127.4540   61.1200 C   0  0  0  0  0  0  0  0  0  0  0  0
  126.4630  127.8130   62.4650 C   0  0  0  0  0  0  0  0  0  0  0  0
  126.4280  129.1600   62.8320 C   0  0  0  0  0  0  0  0  0  0  0  0
  126.3920  130.1400   61.8350 C   0  0  0  0  0  0  0  0  0  0  0  0
  126.4360  129.7940   60.4750 C   0  0  0  0  0  0  0  0  0  0  0  0
  126.4270  130.7170   59.4460 O   0  0  0  0  0  0  0  0  0  0  0  0
  127.6610  131.2330   58.9560 C   0  0  0  0  0  0  0  0  0  0  0  0
  126.4090  129.5630   64.3080 C   0  0  0  0  0  0  0  0  0  0  0  0
  128.8032  133.4944   62.8238 H   0  0  0  0  0  0  0  0  0  0  0  0
  129.9635  132.6859   61.7163 H   0  0  0  0  0  0  0  0  0  0  0  0
  128.2343  132.1996   61.7163 H   0  0  0  0  0  0  0  0  0  0  0  0
  129.3401  130.4889   62.9695 H   0  0  0  0  0  0  0  0  0  0  0  0
  130.3627  131.6731   63.8471 H   0  0  0  0  0  0  0  0  0  0  0  0
  126.8748  129.0957   67.1001 H   0  0  0  0  0  0  0  0  0  0  0  0
  126.9462  127.5679   66.0503 H   0  0  0  0  0  0  0  0  0  0  0  0
  128.9216  126.9312   66.8311 H   0  0  0  0  0  0  0  0  0  0  0  0
  129.5118  128.6600   66.9980 H   0  0  0  0  0  0  0  0  0  0  0  0
  128.1776  128.8914   69.0340 H   0  0  0  0  0  0  0  0  0  0  0  0
  129.6924  127.6015   70.5178 H   0  0  0  0  0  0  0  0  0  0  0  0
  130.1729  126.5599   69.1354 H   0  0  0  0  0  0  0  0  0  0  0  0
  130.5983  128.3051   69.1354 H   0  0  0  0  0  0  0  0  0  0  0  0
  127.3607  126.8594   70.2512 H   0  0  0  0  0  0  0  0  0  0  0  0
  126.4372  127.2375   68.7576 H   0  0  0  0  0  0  0  0  0  0  0  0
  127.6370  125.9006   68.7576 H   0  0  0  0  0  0  0  0  0  0  0  0
  128.4124  128.6714   63.1559 H   0  0  0  0  0  0  0  0  0  0  0  0
  129.7324  128.9531   64.4172 H   0  0  0  0  0  0  0  0  0  0  0  0
  128.3020  126.7500   65.2280 H   0  0  0  0  0  0  0  0  0  0  0  0
  130.5842  127.7338   62.6291 H   0  0  0  0  0  0  0  0  0  0  0  0
  131.4462  126.1392   62.6961 H   0  0  0  0  0  0  0  0  0  0  0  0
  130.5469  125.5329   60.7421 H   0  0  0  0  0  0  0  0  0  0  0  0
  128.8822  125.7908   61.4283 H   0  0  0  0  0  0  0  0  0  0  0  0
  128.6555  127.8696   60.5057 H   0  0  0  0  0  0  0  0  0  0  0  0
  130.4647  128.1660   60.5292 H   0  0  0  0  0  0  0  0  0  0  0  0
  131.6008  125.3320   56.8217 H   0  0  0  0  0  0  0  0  0  0  0  0
  131.9864  126.9344   57.6003 H   0  0  0  0  0  0  0  0  0  0  0  0
  132.1892  125.6490   60.8189 H   0  0  0  0  0  0  0  0  0  0  0  0
  133.9897  124.3360   62.3929 H   0  0  0  0  0  0  0  0  0  0  0  0
  134.6214  122.8529   61.6003 H   0  0  0  0  0  0  0  0  0  0  0  0
  135.6016  124.3582   61.6003 H   0  0  0  0  0  0  0  0  0  0  0  0
  128.5235  128.8239   58.5926 H   0  0  0  0  0  0  0  0  0  0  0  0
  129.9929  128.7017   57.5135 H   0  0  0  0  0  0  0  0  0  0  0  0
  127.4133  128.2051   56.7144 H   0  0  0  0  0  0  0  0  0  0  0  0
  128.9354  127.5363   55.9507 H   0  0  0  0  0  0  0  0  0  0  0  0
  128.4340  125.4780   56.7060 H   0  0  0  0  0  0  0  0  0  0  0  0
  125.0507  127.0525   57.7803 H   0  0  0  0  0  0  0  0  0  0  0  0
  125.4352  126.4113   59.4202 H   0  0  0  0  0  0  0  0  0  0  0  0
  126.5139  126.3909   60.8380 H   0  0  0  0  0  0  0  0  0  0  0  0
  126.4661  127.0332   63.2408 H   0  0  0  0  0  0  0  0  0  0  0  0
  126.3281  131.2002   62.1212 H   0  0  0  0  0  0  0  0  0  0  0  0
  128.3078  131.5034   59.8037 H   0  0  0  0  0  0  0  0  0  0  0  0
  128.1606  130.4684   58.3430 H   0  0  0  0  0  0  0  0  0  0  0  0
  127.4676  132.1256   58.3430 H   0  0  0  0  0  0  0  0  0  0  0  0
  126.1750  130.6366   64.3585 H   0  0  0  0  0  0  0  0  0  0  0  0
  125.6594  128.9100   64.7789 H   0  0  0  0  0  0  0  0  0  0  0  0
  1  2  1  0
  2  3  1  0
  3  4  1  0
  4  5  2  0
  4  6  1  0
  6  7  1  1
  7  8  1  0
  8  9  1  0
  9 10  1  0
  9 11  1  0
  6 12  1  0
 12 13  1  0
 13 14  1  0
 14 15  2  0
 14 16  1  0
 16 17  1  0
 17 18  1  0
 18 19  1  0
 19 20  1  0
 20 21  2  0
 20 22  1  0
 22 23  1  0
 23 24  2  0
 24 25  1  0
 25 26  1  0
 25 27  2  0
 27 28  1  0
 19 29  1  0
 29 30  1  0
 30 31  1  0
 31 32  1  0
 32 33  2  0
 32 34  1  0
 34 35  1  0
 35 36  1  0
 36 37  2  0
 37 38  1  0
 38 39  2  0
 39 40  1  0
 40 41  2  0
 41 42  1  0
 42 43  1  0
 39 44  1  0
 44  6  1  0
 28 23  1  0
 41 36  1  0
  1 45  1  0
  1 46  1  0
  1 47  1  0
  2 48  1  0
  2 49  1  0
  7 50  1  0
  7 51  1  0
  8 52  1  0
  8 53  1  0
  9 54  1  0
 10 55  1  0
 10 56  1  0
 10 57  1  0
 11 58  1  0
 11 59  1  0
 11 60  1  0
 12 61  1  0
 12 62  1  0
 13 63  1  0
 16 64  1  0
 16 65  1  0
 17 66  1  0
 17 67  1  0
 18 68  1  0
 18 69  1  0
 22 70  1  0
 22 71  1  0
 24 72  1  0
 26 73  1  0
 26 74  1  0
 26 75  1  0
 29 76  1  0
 29 77  1  0
 30 78  1  0
 30 79  1  0
 31 80  1  0
 34 81  1  0
 34 82  1  0
 37 83  1  0
 38 84  1  0
 40 85  1  0
 43 86  1  0
 43 87  1  0
 43 88  1  0
 44 89  1  0
 44 90  1  0
M  END
>  <Binding energies>  (1) 
[-2.09]

>  <Ligand effiencies>  (1) 
[-0.043541666666666666]

>  <Interactions>  (1) 
["V-A:ILE:369:CG2:3237, V-A:ASP:366:CA:3210, V-B:GLU:543:C:9874, V-B:GLU:543:CB:9878, V-B:ASP:366:CG:8184, V-B:TYR:539:CE2:9848, V-B:GLU:543:CG:9879, V-A:ASP:366:CG:3213, V-B:TYR:484:CE2:9317, V-B:TYR:539:CZ:9849, H-B:GLU:543:OE1:9881, H-B:TYR:539:OH:9850, V-A:ALA:541:CB:4892, V-B:ASP:366:CB:8183, V-A:GLU:543:CD:4908, H-B:TYR:484:OH:9319, V-B:HIS:456:CE1:9041, V-B:GLU:543:CA:9876, V-B:TYR:484:CZ:9318, V-A:HIS:456:CE1:4070, V-A:ILE:369:CD1:3239, V-A:GLU:543:CG:4907, V-B:GLU:543:CD:9880, H-B:TYR:531:OH:9767, V-A:ASP:366:CB:3212, V-A:GLU:543:CB:4906, H-B:GLU:543:OE2:9882"]

$$$$
ZINC1800712675-again1
     RDKit          3D

 63 66  0  0  0  0  0  0  0  0999 V2000
  130.9020  127.2750   72.4850 C   0  0  0  0  0  0  0  0  0  0  0  0
  129.6000  127.8230   71.8510 C   0  0  0  0  0  0  0  0  0  0  0  0
  128.8920  128.8150   72.8060 C   0  0  0  0  0  0  0  0  0  0  0  0
  128.6500  126.6470   71.5430 C   0  0  0  0  0  0  0  0  0  0  0  0
  129.8510  128.4200   70.5660 O   0  0  0  0  0  0  0  0  0  0  0  0
  130.7900  127.9990   69.6610 C   0  0  0  0  0  0  0  0  0  0  0  0
  132.0080  128.0660   69.8390 O   0  0  0  0  0  0  0  0  0  0  0  0
  130.1810  127.4860   68.5140 N   0  0  0  0  0  0  0  0  0  0  0  0
  128.8770  127.8750   67.9900 C   0  0  0  0  0  0  0  0  0  0  0  0
  128.6930  127.0270   66.7530 C   0  0  0  0  0  0  0  0  0  0  0  0
  129.7680  126.2360   66.5750 C   0  0  0  0  0  0  0  0  0  0  0  0
  129.8780  125.3100   65.4670 C   0  0  0  0  0  0  0  0  0  0  0  0
  129.5430  124.1260   65.5440 O   0  0  0  0  0  0  0  0  0  0  0  0
  130.3800  125.8590   64.3460 N   0  0  0  0  0  0  0  0  0  0  0  0
  130.6500  125.1700   63.0780 C   0  0  1  0  0  0  0  0  0  0  0  0
  131.8460  125.8200   62.3200 C   0  0  0  0  0  0  0  0  0  0  0  0
  133.2150  125.0950   62.4890 C   0  0  1  0  0  0  0  0  0  0  0  0
  133.6270  124.9800   63.9650 C   0  0  0  0  0  0  0  0  0  0  0  0
  133.0040  123.6880   64.4890 C   0  0  0  0  0  0  0  0  0  0  0  0
  132.2310  123.0730   63.3110 C   0  0  1  0  0  0  0  0  0  0  0  0
  130.7730  123.6190   63.2240 C   0  0  0  0  0  0  0  0  0  0  0  0
  132.9460  123.6790   62.1750 N   0  0  0  0  0  0  0  0  0  0  0  0
  132.8370  123.1720   60.9140 C   0  0  0  0  0  0  0  0  0  0  0  0
  133.2610  122.0570   60.6020 O   0  0  0  0  0  0  0  0  0  0  0  0
  132.1780  124.0170   59.8520 C   0  0  0  0  0  0  0  0  0  0  0  0
  132.9620  124.7430   58.9540 C   0  0  0  0  0  0  0  0  0  0  0  0
  132.3760  125.5360   57.9660 C   0  0  0  0  0  0  0  0  0  0  0  0
  133.2320  126.2070   57.1170 O   0  0  0  0  0  0  0  0  0  0  0  0
  130.9670  125.6210   57.8720 C   0  0  0  0  0  0  0  0  0  0  0  0
  130.4150  126.3400   56.9660 O   0  0  0  0  0  0  0  0  0  0  0  0
  130.1750  124.9000   58.7930 C   0  0  0  0  0  0  0  0  0  0  0  0
  128.4350  124.9300   58.7830 Cl  0  0  0  0  0  0  0  0  0  0  0  0
  130.7860  124.1150   59.7710 C   0  0  0  0  0  0  0  0  0  0  0  0
  130.7900  126.4690   67.6740 C   0  0  0  0  0  0  0  0  0  0  0  0
  130.8189  127.3100   73.5813 H   0  0  0  0  0  0  0  0  0  0  0  0
  131.0576  126.2351   72.1621 H   0  0  0  0  0  0  0  0  0  0  0  0
  131.7544  127.8907   72.1621 H   0  0  0  0  0  0  0  0  0  0  0  0
  129.0959  128.5293   73.8485 H   0  0  0  0  0  0  0  0  0  0  0  0
  129.2696  129.8320   72.6240 H   0  0  0  0  0  0  0  0  0  0  0  0
  127.8075  128.7885   72.6240 H   0  0  0  0  0  0  0  0  0  0  0  0
  128.2941  126.2065   72.4860 H   0  0  0  0  0  0  0  0  0  0  0  0
  127.7906  127.0124   70.9617 H   0  0  0  0  0  0  0  0  0  0  0  0
  129.1879  125.8836   70.9617 H   0  0  0  0  0  0  0  0  0  0  0  0
  128.0855  127.6662   68.7248 H   0  0  0  0  0  0  0  0  0  0  0  0
  128.8210  128.9512   67.7693 H   0  0  0  0  0  0  0  0  0  0  0  0
  127.8116  127.0521   66.0954 H   0  0  0  0  0  0  0  0  0  0  0  0
  130.6290  126.8370   64.3700 H   0  0  0  0  0  0  0  0  0  0  0  0
  129.7608  125.3123   62.4463 H   0  0  0  0  0  0  0  0  0  0  0  0
  131.6003  125.8364   61.2479 H   0  0  0  0  0  0  0  0  0  0  0  0
  131.9758  126.8207   62.7579 H   0  0  0  0  0  0  0  0  0  0  0  0
  133.9624  125.6319   61.8864 H   0  0  0  0  0  0  0  0  0  0  0  0
  134.7227  124.9360   64.0515 H   0  0  0  0  0  0  0  0  0  0  0  0
  133.2836  125.8505   64.5431 H   0  0  0  0  0  0  0  0  0  0  0  0
  133.7893  122.9979   64.8310 H   0  0  0  0  0  0  0  0  0  0  0  0
  132.3406  123.8824   65.3446 H   0  0  0  0  0  0  0  0  0  0  0  0
  132.1807  121.9757   63.3685 H   0  0  0  0  0  0  0  0  0  0  0  0
  130.2878  123.1558   62.3522 H   0  0  0  0  0  0  0  0  0  0  0  0
  130.2943  123.3640   64.1810 H   0  0  0  0  0  0  0  0  0  0  0  0
  134.0583  124.6894   59.0260 H   0  0  0  0  0  0  0  0  0  0  0  0
  132.7890  126.8750   56.5900 H   0  0  0  0  0  0  0  0  0  0  0  0
  130.1621  123.5641   60.4902 H   0  0  0  0  0  0  0  0  0  0  0  0
  130.9670  125.5455   68.2449 H   0  0  0  0  0  0  0  0  0  0  0  0
  131.7700  126.7773   67.2809 H   0  0  0  0  0  0  0  0  0  0  0  0
  1  2  1  0
  2  3  1  0
  2  4  1  0
  2  5  1  0
  5  6  1  0
  6  7  2  0
  6  8  1  0
  8  9  1  0
  9 10  1  0
 10 11  2  0
 11 12  1  0
 12 13  2  0
 12 14  1  0
 14 15  1  0
 15 16  1  0
 16 17  1  0
 17 18  1  0
 18 19  1  0
 19 20  1  0
 20 21  1  0
 20 22  1  0
 22 23  1  0
 23 24  2  0
 23 25  1  0
 25 26  2  0
 26 27  1  0
 27 28  1  0
 27 29  2  0
 29 30  1  0
 29 31  1  0
 31 32  1  0
 31 33  2  0
 11 34  1  0
 34  8  1  0
 21 15  1  0
 33 25  1  0
 22 17  1  0
  1 35  1  0
  1 36  1  0
  1 37  1  0
  3 38  1  0
  3 39  1  0
  3 40  1  0
  4 41  1  0
  4 42  1  0
  4 43  1  0
  9 44  1  0
  9 45  1  0
 10 46  1  0
 14 47  1  0
 15 48  1  6
 16 49  1  0
 16 50  1  0
 17 51  1  6
 18 52  1  0
 18 53  1  0
 19 54  1  0
 19 55  1  0
 20 56  1  6
 21 57  1  0
 21 58  1  0
 26 59  1  0
 28 60  1  0
 33 61  1  0
 34 62  1  0
 34 63  1  0
M  CHG  1  30  -1
M  END
>  <Binding energies>  (1) 
[-6.78]

>  <Ligand effiencies>  (1) 
[-0.18833333333333335]

>  <Interactions>  (1) 
["V-A:ASP:366:CA:3210, V-A:GLY:454:CA:4049, V-B:HIS:456:CD2:9039, H-A:GLU:543:OE2:4910, V-A:GLU:543:C:4902, V-B:GLU:543:CB:9878, H-A:TYR:531:OH:4795, V-B:TYR:539:CE2:9848, V-A:GLY:544:C:4912, V-B:GLU:543:CG:9879, V-A:HIS:456:CD2:4068, H-A:ARG:545:N:4920, V-A:ASP:366:CG:3213, V-B:TYR:539:CZ:9849, H-B:TYR:539:OH:9850, V-A:GLU:543:CD:4908, V-A:TYR:484:CZ:4347, V-B:HIS:456:CE1:9041, V-A:HIS:456:CE1:4070, V-B:GLU:543:CD:9880, V-A:ASP:366:CB:3212, V-A:LEU:475:CD2:4259, V-A:ARG:545:CZ:4926, H-A:GLU:543:OE1:4909, H-A:ASP:366:O:3209, V-A:HIS:456:CG:4066, V-A:GLU:543:CB:4906, H-A:HIS:456:ND1:4067"]

$$$$
ZINC1801830338
     RDKit          3D

 50 53  0  0  0  0  0  0  0  0999 V2000
  129.5000  126.4880   56.4170 O   0  0  0  0  0  0  0  0  0  0  0  0
  128.5160  127.1530   56.7480 C   0  0  0  0  0  0  0  0  0  0  0  0
  127.2950  126.6120   56.9250 N   0  0  0  0  0  0  0  0  0  0  0  0
  126.9230  125.2010   56.7290 C   0  0  1  0  0  0  0  0  0  0  0  0
  128.0710  124.2560   57.1630 C   0  0  2  0  0  0  0  0  0  0  0  0
  127.6560  122.7660   56.9920 C   0  0  0  0  0  0  0  0  0  0  0  0
  126.4550  122.4390   57.6760 O   0  0  0  0  0  0  0  0  0  0  0  0
  125.3580  123.2700   57.3300 C   0  0  0  0  0  0  0  0  0  0  0  0
  125.6520  124.7840   57.5200 C   0  0  1  0  0  0  0  0  0  0  0  0
  125.9040  125.0610   59.0380 C   0  0  0  0  0  0  0  0  0  0  0  0
  127.1540  124.3880   59.5010 N   0  0  0  0  0  0  0  0  0  0  0  0
  127.2740  123.8500   60.7510 C   0  0  0  0  0  0  0  0  0  0  0  0
  126.5860  122.9040   61.1450 O   0  0  0  0  0  0  0  0  0  0  0  0
  128.2740  124.4290   61.7170 C   0  0  0  0  0  0  0  0  0  0  0  0
  128.7690  125.7290   61.5470 C   0  0  0  0  0  0  0  0  0  0  0  0
  129.6790  126.2680   62.4580 C   0  0  0  0  0  0  0  0  0  0  0  0
  130.1510  127.5400   62.2540 O   0  0  0  0  0  0  0  0  0  0  0  0
  130.0940  125.5120   63.5630 C   0  0  0  0  0  0  0  0  0  0  0  0
  130.9920  126.0400   64.4590 O   0  0  0  0  0  0  0  0  0  0  0  0
  129.5860  124.2200   63.7500 C   0  0  0  0  0  0  0  0  0  0  0  0
  130.0650  123.2580   65.1060 Cl  0  0  0  0  0  0  0  0  0  0  0  0
  128.6770  123.6890   62.8340 C   0  0  0  0  0  0  0  0  0  0  0  0
  128.3870  124.5180   58.6710 C   0  0  0  0  0  0  0  0  0  0  0  0
  128.6370  128.6400   57.0020 C   0  0  0  0  0  0  0  0  0  0  0  0
  127.5000  129.4590   56.9150 C   0  0  0  0  0  0  0  0  0  0  0  0
  127.5880  130.8320   57.1470 C   0  0  0  0  0  0  0  0  0  0  0  0
  126.4790  131.6010   57.0550 F   0  0  0  0  0  0  0  0  0  0  0  0
  128.8140  131.4110   57.4740 C   0  0  0  0  0  0  0  0  0  0  0  0
  128.8920  132.7430   57.6970 F   0  0  0  0  0  0  0  0  0  0  0  0
  129.9550  130.6100   57.5690 C   0  0  0  0  0  0  0  0  0  0  0  0
  131.4830  131.3060   57.9770 Cl  0  0  0  0  0  0  0  0  0  0  0  0
  129.8650  129.2370   57.3370 C   0  0  0  0  0  0  0  0  0  0  0  0
  126.5690  127.2040   57.3020 H   0  0  0  0  0  0  0  0  0  0  0  0
  126.7176  125.1077   55.6524 H   0  0  0  0  0  0  0  0  0  0  0  0
  128.9520  124.4526   56.5344 H   0  0  0  0  0  0  0  0  0  0  0  0
  127.5146  122.5630   55.9202 H   0  0  0  0  0  0  0  0  0  0  0  0
  128.4580  122.1508   57.4260 H   0  0  0  0  0  0  0  0  0  0  0  0
  125.1049  123.0930   56.2743 H   0  0  0  0  0  0  0  0  0  0  0  0
  124.5275  123.0116   58.0034 H   0  0  0  0  0  0  0  0  0  0  0  0
  124.7912  125.3603   57.1499 H   0  0  0  0  0  0  0  0  0  0  0  0
  125.9991  126.1455   59.1955 H   0  0  0  0  0  0  0  0  0  0  0  0
  125.0558  124.6626   59.6140 H   0  0  0  0  0  0  0  0  0  0  0  0
  128.4373  126.3303   60.6877 H   0  0  0  0  0  0  0  0  0  0  0  0
  130.7820  127.8190   62.9220 H   0  0  0  0  0  0  0  0  0  0  0  0
  131.1670  126.9710   64.3000 H   0  0  0  0  0  0  0  0  0  0  0  0
  128.2731  122.6781   62.9918 H   0  0  0  0  0  0  0  0  0  0  0  0
  128.7918  125.5346   58.7833 H   0  0  0  0  0  0  0  0  0  0  0  0
  129.1216  123.7736   59.0118 H   0  0  0  0  0  0  0  0  0  0  0  0
  126.5274  129.0125   56.6607 H   0  0  0  0  0  0  0  0  0  0  0  0
  130.7674  128.6131   57.4173 H   0  0  0  0  0  0  0  0  0  0  0  0
  1  2  2  0
  2  3  1  0
  3  4  1  0
  4  5  1  0
  5  6  1  0
  6  7  1  0
  7  8  1  0
  8  9  1  0
  9 10  1  0
 10 11  1  0
 11 12  1  0
 12 13  2  0
 12 14  1  0
 14 15  2  0
 15 16  1  0
 16 17  1  0
 16 18  2  0
 18 19  1  0
 18 20  1  0
 20 21  1  0
 20 22  2  0
 11 23  1  0
  2 24  1  0
 24 25  2  0
 25 26  1  0
 26 27  1  0
 26 28  2  0
 28 29  1  0
 28 30  1  0
 30 31  1  0
 30 32  2  0
  9  4  1  0
 22 14  1  0
 32 24  1  0
 23  5  1  0
  3 33  1  0
  4 34  1  6
  5 35  1  6
  6 36  1  0
  6 37  1  0
  8 38  1  0
  8 39  1  0
  9 40  1  6
 10 41  1  0
 10 42  1  0
 15 43  1  0
 17 44  1  0
 19 45  1  0
 22 46  1  0
 23 47  1  0
 23 48  1  0
 25 49  1  0
 32 50  1  0
M  END
>  <Binding energies>  (1) 
[-7.63]

>  <Ligand effiencies>  (1) 
[-0.218]

>  <Interactions>  (1) 
["V-B:PRO:540:CA:9855, H-A:GLU:543:OE2:4910, H-A:TYR:531:OH:4795, V-B:TYR:539:CE2:9848, V-A:TYR:484:CE2:4346, V-B:GLU:543:CG:9879, V-B:TYR:539:C:9839, V-A:TYR:539:CE1:4875, V-A:TYR:539:CD1:4873, V-B:TYR:539:CZ:9849, V-A:TYR:539:CZ:4877, V-B:TYR:531:CZ:9766, H-B:TYR:539:OH:9850, H-B:ALA:541:N:9863, V-B:TYR:531:CE2:9765, V-A:TYR:484:CZ:4347, V-B:PRO:540:CB:9857, V-B:PRO:540:N:9856, V-B:PRO:540:CD:9859, V-B:TYR:539:CD2:9846, V-A:MET:535:CE:4835, V-B:GLU:543:CD:9880, H-B:TYR:531:OH:9767, H-A:ARG:545:NH2:4928, H-A:GLU:543:OE1:4909, V-B:TYR:539:CG:9844, V-B:TYR:539:CD1:9845, V-B:LEU:363:CD1:8160, V-B:TYR:539:CE1:9847"]

$$$$
ZINC1801830338-again1
     RDKit          3D

 49 52  0  0  0  0  0  0  0  0999 V2000
  129.3900  126.3970   56.4230 O   0  0  0  0  0  0  0  0  0  0  0  0
  128.4380  126.9570   56.9690 C   0  0  0  0  0  0  0  0  0  0  0  0
  127.2800  126.3250   57.2480 N   0  0  0  0  0  0  0  0  0  0  0  0
  126.9400  124.9310   56.9150 C   0  0  1  0  0  0  0  0  0  0  0  0
  128.1840  124.0130   57.0140 C   0  0  2  0  0  0  0  0  0  0  0  0
  127.8050  122.5370   56.7040 C   0  0  0  0  0  0  0  0  0  0  0  0
  126.7580  122.0440   57.5260 O   0  0  0  0  0  0  0  0  0  0  0  0
  125.5820  122.8380   57.4930 C   0  0  0  0  0  0  0  0  0  0  0  0
  125.8420  124.3330   57.8390 C   0  0  1  0  0  0  0  0  0  0  0  0
  126.3400  124.4260   59.3180 C   0  0  0  0  0  0  0  0  0  0  0  0
  127.6780  123.7780   59.4680 N   0  0  0  0  0  0  0  0  0  0  0  0
  128.0160  123.0540   60.5740 C   0  0  0  0  0  0  0  0  0  0  0  0
  127.2500  122.8730   61.5250 O   0  0  0  0  0  0  0  0  0  0  0  0
  129.3930  122.4490   60.6630 C   0  0  0  0  0  0  0  0  0  0  0  0
  129.5420  121.0720   60.8220 C   0  0  0  0  0  0  0  0  0  0  0  0
  130.8100  120.4930   60.9140 C   0  0  0  0  0  0  0  0  0  0  0  0
  130.8610  119.1230   61.0570 O   0  0  0  0  0  0  0  0  0  0  0  0
  131.9640  121.3100   60.8560 C   0  0  0  0  0  0  0  0  0  0  0  0
  133.1350  120.7940   60.9340 O   0  0  0  0  0  0  0  0  0  0  0  0
  131.8080  122.7070   60.7140 C   0  0  0  0  0  0  0  0  0  0  0  0
  133.1490  123.8130   60.6370 Cl  0  0  0  0  0  0  0  0  0  0  0  0
  130.5300  123.2600   60.6270 C   0  0  0  0  0  0  0  0  0  0  0  0
  128.7450  124.0880   58.4730 C   0  0  0  0  0  0  0  0  0  0  0  0
  128.5270  128.4120   57.3810 C   0  0  0  0  0  0  0  0  0  0  0  0
  127.4750  129.0570   58.0560 C   0  0  0  0  0  0  0  0  0  0  0  0
  127.5770  130.3980   58.4200 C   0  0  0  0  0  0  0  0  0  0  0  0
  126.5520  130.9970   59.0700 F   0  0  0  0  0  0  0  0  0  0  0  0
  128.7300  131.1230   58.1140 C   0  0  0  0  0  0  0  0  0  0  0  0
  128.8200  132.4260   58.4700 F   0  0  0  0  0  0  0  0  0  0  0  0
  129.7820  130.4990   57.4420 C   0  0  0  0  0  0  0  0  0  0  0  0
  131.2190  131.3780   57.0540 Cl  0  0  0  0  0  0  0  0  0  0  0  0
  129.6780  129.1560   57.0780 C   0  0  0  0  0  0  0  0  0  0  0  0
  126.5920  126.8230   57.7940 H   0  0  0  0  0  0  0  0  0  0  0  0
  126.5581  124.9670   55.8840 H   0  0  0  0  0  0  0  0  0  0  0  0
  128.9349  124.3497   56.2841 H   0  0  0  0  0  0  0  0  0  0  0  0
  127.4852  122.4714   55.6536 H   0  0  0  0  0  0  0  0  0  0  0  0
  128.6948  121.9221   56.9042 H   0  0  0  0  0  0  0  0  0  0  0  0
  125.1511  122.7828   56.4824 H   0  0  0  0  0  0  0  0  0  0  0  0
  124.8972  122.4400   58.2563 H   0  0  0  0  0  0  0  0  0  0  0  0
  124.9074  124.8957   57.6980 H   0  0  0  0  0  0  0  0  0  0  0  0
  126.4174  125.4846   59.6068 H   0  0  0  0  0  0  0  0  0  0  0  0
  125.6205  123.9044   59.9662 H   0  0  0  0  0  0  0  0  0  0  0  0
  128.6486  120.4325   60.8758 H   0  0  0  0  0  0  0  0  0  0  0  0
  131.7520  118.7940   61.1960 H   0  0  0  0  0  0  0  0  0  0  0  0
  130.4161  124.3497   60.5287 H   0  0  0  0  0  0  0  0  0  0  0  0
  129.1288  125.1018   58.6600 H   0  0  0  0  0  0  0  0  0  0  0  0
  129.5514  123.3474   58.5789 H   0  0  0  0  0  0  0  0  0  0  0  0
  126.5607  128.4959   58.2994 H   0  0  0  0  0  0  0  0  0  0  0  0
  130.5106  128.6730   56.5455 H   0  0  0  0  0  0  0  0  0  0  0  0
  1  2  2  0
  2  3  1  0
  3  4  1  0
  4  5  1  0
  5  6  1  0
  6  7  1  0
  7  8  1  0
  8  9  1  0
  9 10  1  0
 10 11  1  0
 11 12  1  0
 12 13  2  0
 12 14  1  0
 14 15  2  0
 15 16  1  0
 16 17  1  0
 16 18  2  0
 18 19  1  0
 18 20  1  0
 20 21  1  0
 20 22  2  0
 11 23  1  0
  2 24  1  0
 24 25  2  0
 25 26  1  0
 26 27  1  0
 26 28  2  0
 28 29  1  0
 28 30  1  0
 30 31  1  0
 30 32  2  0
  9  4  1  0
 22 14  1  0
 32 24  1  0
 23  5  1  0
  3 33  1  0
  4 34  1  6
  5 35  1  6
  6 36  1  0
  6 37  1  0
  8 38  1  0
  8 39  1  0
  9 40  1  1
 10 41  1  0
 10 42  1  0
 15 43  1  0
 17 44  1  0
 22 45  1  0
 23 46  1  0
 23 47  1  0
 25 48  1  0
 32 49  1  0
M  CHG  1  19  -1
M  END
>  <Binding energies>  (1) 
[-6.91]

>  <Ligand effiencies>  (1) 
[-0.20323529411764707]

>  <Interactions>  (1) 
["V-B:PRO:540:CA:9855, H-A:TYR:531:OH:4795, V-B:TYR:539:CE2:9848, H-B:TYR:539:N:9842, V-B:TYR:539:C:9839, V-A:TYR:539:CD1:4873, V-B:TYR:539:CZ:9849, H-B:TYR:539:OH:9850, H-B:ALA:541:N:9863, V-B:PRO:540:CB:9857, V-B:PRO:540:N:9856, V-B:PRO:540:CD:9859, V-B:TYR:539:CD2:9846, H-A:SER:385:OG:3410, V-A:MET:535:CE:4835, H-B:TYR:531:OH:9767, V-A:LEU:475:CD2:4259, V-B:TYR:539:CG:9844, H-A:HIS:383:HE2:3395, V-B:TYR:539:CD1:9845, V-B:PRO:540:CG:9858, V-B:LEU:363:CD1:8160, V-B:TYR:539:CE1:9847"]

$$$$
ZINC180201863
     RDKit          3D

 28 29  0  0  0  0  0  0  0  0999 V2000
  129.1120  128.3440   74.3530 O   0  0  0  0  0  0  0  0  0  0  0  0
  130.0890  128.3770   73.2570 S   0  0  0  0  0  0  0  0  0  0  0  0
  130.5640  129.7100   72.8690 O   0  0  0  0  0  0  0  0  0  0  0  0
  131.2490  127.3120   73.2990 N   0  0  0  0  0  0  0  0  0  0  0  0
  131.3310  126.2250   74.1410 C   0  0  0  0  0  0  0  0  0  0  0  0
  130.2490  125.4310   74.3950 N   0  0  0  0  0  0  0  0  0  0  0  0
  130.3630  124.3580   75.2140 C   0  0  0  0  0  0  0  0  0  0  0  0
  131.5610  124.0110   75.8270 C   0  0  0  0  0  0  0  0  0  0  0  0
  132.6790  124.8040   75.5830 C   0  0  0  0  0  0  0  0  0  0  0  0
  132.5740  125.9130   74.7380 C   0  0  0  0  0  0  0  0  0  0  0  0
  134.0030  126.8580   74.4610 Cl  0  0  0  0  0  0  0  0  0  0  0  0
  129.1820  127.7530   71.8200 C   0  0  0  0  0  0  0  0  0  0  0  0
  129.8830  127.5660   70.6190 C   0  0  0  0  0  0  0  0  0  0  0  0
  129.2430  127.0870   69.4710 C   0  0  0  0  0  0  0  0  0  0  0  0
  130.0460  126.8980   68.1850 C   0  0  0  0  0  0  0  0  0  0  0  0
  130.1100  125.6200   67.8070 F   0  0  0  0  0  0  0  0  0  0  0  0
  129.4800  127.5930   67.1970 F   0  0  0  0  0  0  0  0  0  0  0  0
  131.2910  127.3410   68.3630 F   0  0  0  0  0  0  0  0  0  0  0  0
  127.8780  126.7910   69.5280 C   0  0  0  0  0  0  0  0  0  0  0  0
  127.1700  126.9690   70.7140 C   0  0  0  0  0  0  0  0  0  0  0  0
  127.8080  127.4460   71.8600 C   0  0  0  0  0  0  0  0  0  0  0  0
  126.8470  127.6210   73.2880 Cl  0  0  0  0  0  0  0  0  0  0  0  0
  129.4738  123.7380   75.4009 H   0  0  0  0  0  0  0  0  0  0  0  0
  131.6242  123.1334   76.4872 H   0  0  0  0  0  0  0  0  0  0  0  0
  133.6424  124.5587   76.0538 H   0  0  0  0  0  0  0  0  0  0  0  0
  130.9569  127.8007   70.5794 H   0  0  0  0  0  0  0  0  0  0  0  0
  127.3610  126.4160   68.6324 H   0  0  0  0  0  0  0  0  0  0  0  0
  126.0966  126.7311   70.7479 H   0  0  0  0  0  0  0  0  0  0  0  0
  1  2  2  0
  2  3  2  0
  2  4  1  0
  4  5  1  0
  5  6  2  0
  6  7  1  0
  7  8  2  0
  8  9  1  0
  9 10  2  0
 10 11  1  0
  2 12  1  0
 12 13  2  0
 13 14  1  0
 14 15  1  0
 15 16  1  0
 15 17  1  0
 15 18  1  0
 14 19  2  0
 19 20  1  0
 20 21  2  0
 21 22  1  0
 10  5  1  0
 21 12  1  0
  7 23  1  0
  8 24  1  0
  9 25  1  0
 13 26  1  0
 19 27  1  0
 20 28  1  0
M  CHG  1   4  -1
M  END
>  <Binding energies>  (1) 
[-6.68]

>  <Ligand effiencies>  (1) 
[-0.30363636363636365]

>  <Interactions>  (1) 
["V-B:HIS:456:CD2:9039, V-B:GLU:543:C:9874, V-B:GLU:543:CB:9878, H-B:LYS:547:NZ:9923, V-B:HIS:456:CB:9036, V-A:HIS:456:CD2:4068, V-A:LYS:547:CG:4948, V-A:HIS:456:CB:4065, V-B:LYS:547:CE:9922, V-A:GLU:543:CD:4908, V-B:HIS:456:CE1:9041, V-A:ARG:545:CG:4922, V-A:HIS:456:CE1:4070, V-B:GLY:544:C:9884, V-B:GLY:544:CA:9886, V-A:GLU:543:CG:4907, V-B:HIS:456:CG:9037, H-A:LYS:547:NZ:4951, V-A:ARG:545:C:4917, V-A:GLU:543:CB:4906, V-A:HIS:456:CG:4066"]

$$$$
ZINC1802090783
     RDKit          3D

 59 63  0  0  0  0  0  0  0  0999 V2000
  129.7660  127.0310   58.5230 O   0  0  0  0  0  0  0  0  0  0  0  0
  130.7450  127.2820   59.2290 C   0  0  0  0  0  0  0  0  0  0  0  0
  131.0020  128.5190   59.7010 N   0  0  0  0  0  0  0  0  0  0  0  0
  130.1710  129.7150   59.5190 C   0  0  1  0  0  0  0  0  0  0  0  0
  130.7570  130.9970   60.1970 C   0  0  0  0  0  0  0  0  0  0  0  0
  131.5200  131.9630   59.2420 C   0  0  1  0  0  0  0  0  0  0  0  0
  132.6910  131.2630   58.5340 C   0  0  0  0  0  0  0  0  0  0  0  0
  132.1180  130.6420   57.2610 C   0  0  0  0  0  0  0  0  0  0  0  0
  130.6180  130.9800   57.2510 C   0  0  1  0  0  0  0  0  0  0  0  0
  129.7770  129.9210   58.0240 C   0  0  0  0  0  0  0  0  0  0  0  0
  130.6130  132.1820   58.1020 N   0  0  0  0  0  0  0  0  0  0  0  0
  129.5810  133.0680   58.1580 C   0  0  0  0  0  0  0  0  0  0  0  0
  129.2100  133.7030   57.1680 O   0  0  0  0  0  0  0  0  0  0  0  0
  128.8120  133.2130   59.4890 C   0  0  0  0  0  0  0  0  0  0  0  0
  127.2860  132.9670   59.4020 C   0  0  0  0  0  0  0  0  0  0  0  0
  126.9580  131.6190   58.7970 C   0  0  0  0  0  0  0  0  0  0  0  0
  126.6530  131.3360   57.4770 C   0  0  0  0  0  0  0  0  0  0  0  0
  126.4050  129.9970   57.3190 N   0  0  0  0  0  0  0  0  0  0  0  0
  126.5390  129.3530   58.5280 C   0  0  0  0  0  0  0  0  0  0  0  0
  126.3880  128.0060   58.8740 C   0  0  0  0  0  0  0  0  0  0  0  0
  126.5970  127.6680   60.2110 C   0  0  0  0  0  0  0  0  0  0  0  0
  126.9420  128.6220   61.1660 C   0  0  0  0  0  0  0  0  0  0  0  0
  127.1340  128.2400   62.4490 F   0  0  0  0  0  0  0  0  0  0  0  0
  127.0910  129.9630   60.8200 C   0  0  0  0  0  0  0  0  0  0  0  0
  126.8910  130.3550   59.4860 C   0  0  0  0  0  0  0  0  0  0  0  0
  131.7350  126.1960   59.5980 C   0  0  0  0  0  0  0  0  0  0  0  0
  132.4150  125.4960   58.5890 C   0  0  0  0  0  0  0  0  0  0  0  0
  133.3270  124.4870   58.8990 C   0  0  0  0  0  0  0  0  0  0  0  0
  133.9670  123.8300   57.8780 O   0  0  0  0  0  0  0  0  0  0  0  0
  133.5790  124.1570   60.2360 C   0  0  0  0  0  0  0  0  0  0  0  0
  134.4760  123.1630   60.5440 O   0  0  0  0  0  0  0  0  0  0  0  0
  132.9080  124.8450   61.2550 C   0  0  0  0  0  0  0  0  0  0  0  0
  133.1870  124.4690   62.9210 Cl  0  0  0  0  0  0  0  0  0  0  0  0
  131.9970  125.8520   60.9360 C   0  0  0  0  0  0  0  0  0  0  0  0
  131.8280  128.6450   60.2670 H   0  0  0  0  0  0  0  0  0  0  0  0
  129.2343  129.5288   60.0648 H   0  0  0  0  0  0  0  0  0  0  0  0
  129.9233  131.5540   60.6494 H   0  0  0  0  0  0  0  0  0  0  0  0
  131.4979  130.6434   60.9291 H   0  0  0  0  0  0  0  0  0  0  0  0
  131.8437  132.8361   59.8275 H   0  0  0  0  0  0  0  0  0  0  0  0
  133.4740  131.9932   58.2817 H   0  0  0  0  0  0  0  0  0  0  0  0
  133.1470  130.4982   59.1798 H   0  0  0  0  0  0  0  0  0  0  0  0
  132.6101  131.0687   56.3746 H   0  0  0  0  0  0  0  0  0  0  0  0
  132.2822  129.5545   57.2387 H   0  0  0  0  0  0  0  0  0  0  0  0
  130.2105  131.0587   56.2323 H   0  0  0  0  0  0  0  0  0  0  0  0
  128.7232  130.2347   57.9909 H   0  0  0  0  0  0  0  0  0  0  0  0
  129.9680  128.9595   57.5251 H   0  0  0  0  0  0  0  0  0  0  0  0
  129.2323  132.4910   60.2046 H   0  0  0  0  0  0  0  0  0  0  0  0
  128.9338  134.2617   59.7978 H   0  0  0  0  0  0  0  0  0  0  0  0
  126.8613  133.0132   60.4157 H   0  0  0  0  0  0  0  0  0  0  0  0
  126.8553  133.7428   58.7519 H   0  0  0  0  0  0  0  0  0  0  0  0
  126.6149  132.0808   56.6684 H   0  0  0  0  0  0  0  0  0  0  0  0
  126.1630  129.5900   56.4270 H   0  0  0  0  0  0  0  0  0  0  0  0
  126.1166  127.2473   58.1252 H   0  0  0  0  0  0  0  0  0  0  0  0
  126.4863  126.6182   60.5203 H   0  0  0  0  0  0  0  0  0  0  0  0
  127.3624  130.7071   61.5833 H   0  0  0  0  0  0  0  0  0  0  0  0
  132.2253  125.7476   57.5351 H   0  0  0  0  0  0  0  0  0  0  0  0
  134.6510  124.3600   57.4610 H   0  0  0  0  0  0  0  0  0  0  0  0
  134.9810  122.8730   59.7810 H   0  0  0  0  0  0  0  0  0  0  0  0
  131.4752  126.3856   61.7441 H   0  0  0  0  0  0  0  0  0  0  0  0
  1  2  2  0
  2  3  1  0
  3  4  1  0
  4  5  1  0
  5  6  1  0
  6  7  1  0
  7  8  1  0
  8  9  1  0
  9 10  1  0
  9 11  1  0
 11 12  1  0
 12 13  2  0
 12 14  1  0
 14 15  1  0
 15 16  1  0
 16 17  2  0
 17 18  1  0
 18 19  1  0
 19 20  2  0
 20 21  1  0
 21 22  2  0
 22 23  1  0
 22 24  1  0
 24 25  2  0
  2 26  1  0
 26 27  2  0
 27 28  1  0
 28 29  1  0
 28 30  2  0
 30 31  1  0
 30 32  1  0
 32 33  1  0
 32 34  2  0
 10  4  1  0
 25 16  1  0
 34 26  1  0
 11  6  1  0
 25 19  1  0
  3 35  1  0
  4 36  1  1
  5 37  1  0
  5 38  1  0
  6 39  1  1
  7 40  1  0
  7 41  1  0
  8 42  1  0
  8 43  1  0
  9 44  1  6
 10 45  1  0
 10 46  1  0
 14 47  1  0
 14 48  1  0
 15 49  1  0
 15 50  1  0
 17 51  1  0
 18 52  1  0
 20 53  1  0
 21 54  1  0
 24 55  1  0
 27 56  1  0
 29 57  1  0
 31 58  1  0
 34 59  1  0
M  END
>  <Binding energies>  (1) 
[-7.44]

>  <Ligand effiencies>  (1) 
[-0.19578947368421054]

>  <Interactions>  (1) 
["V-A:ILE:369:CG2:3237, V-A:ASP:366:CA:3210, V-B:ASP:366:CG:8184, V-B:TYR:539:CE2:9848, V-A:ASP:366:CG:3213, V-A:LEU:363:CD1:3189, V-A:TYR:539:CD1:4873, H-A:ASN:370:N:3244, V-A:TYR:531:CE2:4793, V-A:TYR:539:CZ:4877, H-B:TYR:539:OH:9850, V-A:TYR:539:CA:4869, V-A:ILE:369:CD1:3239, V-A:TYR:531:CZ:4794, V-B:GLU:543:CD:9880, V-A:TYR:539:C:4867, H-B:TYR:531:OH:9767, V-A:ASP:366:CB:3212, H-A:ASP:366:O:3209, V-A:PRO:540:N:4884, H-A:TYR:539:N:4870, V-A:PRO:540:CB:4885, V-A:PRO:540:CA:4883, H-A:ASP:366:OD2:3215, V-A:TYR:539:CE1:4875"]

$$$$
ZINC1803680
     RDKit          3D

 68 72  0  0  0  0  0  0  0  0999 V2000
  127.8200  123.2170   60.9770 C   0  0  0  0  0  0  0  0  0  0  0  0
  129.1770  123.9440   60.9340 C   0  0  0  0  0  0  0  0  0  0  0  0
  129.1960  125.4320   60.5650 C   0  0  0  0  0  0  0  0  0  0  0  0
  128.6070  125.8840   59.4300 C   0  0  0  0  0  0  0  0  0  0  0  0
  128.5020  127.2480   58.9180 C   0  0  0  0  0  0  0  0  0  0  0  0
  126.9510  127.9730   58.6060 S   0  0  0  0  0  0  0  0  0  0  0  0
  127.7580  129.4200   58.0400 C   0  0  0  0  0  0  0  0  0  0  0  0
  127.1080  130.5630   57.5700 C   0  0  0  0  0  0  0  0  0  0  0  0
  127.8640  131.6440   57.1460 C   0  0  0  0  0  0  0  0  0  0  0  0
  129.2740  131.6280   57.1810 C   0  0  0  0  0  0  0  0  0  0  0  0
  129.9990  132.7620   56.7370 C   0  0  0  0  0  0  0  0  0  0  0  0
  131.3860  132.7720   56.7690 C   0  0  0  0  0  0  0  0  0  0  0  0
  132.0760  131.6680   57.2430 C   0  0  0  0  0  0  0  0  0  0  0  0
  131.3950  130.5380   57.6840 C   0  0  0  0  0  0  0  0  0  0  0  0
  129.9660  130.4680   57.6660 C   0  0  0  0  0  0  0  0  0  0  0  0
  129.1810  129.3320   58.0980 C   0  0  0  0  0  0  0  0  0  0  0  0
  129.5840  128.0680   58.5900 N   0  0  0  0  0  0  0  0  0  0  0  0
  130.9690  127.6010   58.7860 C   0  0  0  0  0  0  0  0  0  0  0  0
  131.3140  126.3840   57.8920 C   0  0  0  0  0  0  0  0  0  0  0  0
  132.8210  126.0730   57.8050 C   0  0  0  0  0  0  0  0  0  0  0  0
  133.2200  124.4250   58.6440 S   0  0  0  0  0  0  0  0  0  0  0  0
  134.3000  124.7600   59.5780 O   0  0  0  0  0  0  0  0  0  0  0  0
  131.9560  124.0400   59.2810 O   0  0  0  0  0  0  0  0  0  0  0  0
  133.6270  123.5660   57.5260 O   0  0  0  0  0  0  0  0  0  0  0  0
  129.8740  126.3730   61.4550 C   0  0  0  0  0  0  0  0  0  0  0  0
  129.3810  126.9570   62.6930 C   0  0  0  0  0  0  0  0  0  0  0  0
  128.4260  128.4200   62.7320 S   0  0  0  0  0  0  0  0  0  0  0  0
  128.3530  128.3090   64.4850 C   0  0  0  0  0  0  0  0  0  0  0  0
  127.7240  129.1950   65.3670 C   0  0  0  0  0  0  0  0  0  0  0  0
  127.7980  128.9290   66.7310 C   0  0  0  0  0  0  0  0  0  0  0  0
  128.4730  127.8160   67.2350 C   0  0  0  0  0  0  0  0  0  0  0  0
  128.4670  127.6820   68.6100 O   0  0  0  0  0  0  0  0  0  0  0  0
  129.7020  127.7000   69.3200 C   0  0  0  0  0  0  0  0  0  0  0  0
  129.1060  126.9100   66.3640 C   0  0  0  0  0  0  0  0  0  0  0  0
  129.0350  127.1680   64.9860 C   0  0  0  0  0  0  0  0  0  0  0  0
  129.5840  126.4070   63.9520 N   0  0  0  0  0  0  0  0  0  0  0  0
  130.3670  125.1840   64.1840 C   0  0  0  0  0  0  0  0  0  0  0  0
  131.8680  125.5060   64.2330 C   0  0  0  0  0  0  0  0  0  0  0  0
  127.5224  123.0576   62.0239 H   0  0  0  0  0  0  0  0  0  0  0  0
  127.0600  123.8288   60.4689 H   0  0  0  0  0  0  0  0  0  0  0  0
  127.9083  122.2454   60.4689 H   0  0  0  0  0  0  0  0  0  0  0  0
  129.6275  123.8510   61.9332 H   0  0  0  0  0  0  0  0  0  0  0  0
  129.7198  123.4547   60.1118 H   0  0  0  0  0  0  0  0  0  0  0  0
  128.1399  125.1101   58.8032 H   0  0  0  0  0  0  0  0  0  0  0  0
  126.0093  130.6047   57.5368 H   0  0  0  0  0  0  0  0  0  0  0  0
  127.3495  132.5410   56.7711 H   0  0  0  0  0  0  0  0  0  0  0  0
  129.4566  133.6430   56.3633 H   0  0  0  0  0  0  0  0  0  0  0  0
  131.9379  133.6565   56.4180 H   0  0  0  0  0  0  0  0  0  0  0  0
  133.1755  131.6852   57.2709 H   0  0  0  0  0  0  0  0  0  0  0  0
  131.9694  129.6768   58.0558 H   0  0  0  0  0  0  0  0  0  0  0  0
  131.6570  128.4241   58.5430 H   0  0  0  0  0  0  0  0  0  0  0  0
  131.0715  127.2863   59.8350 H   0  0  0  0  0  0  0  0  0  0  0  0
  130.8020  125.4999   58.2997 H   0  0  0  0  0  0  0  0  0  0  0  0
  130.9831  126.6352   56.8735 H   0  0  0  0  0  0  0  0  0  0  0  0
  133.1172  126.0194   56.7470 H   0  0  0  0  0  0  0  0  0  0  0  0
  133.3750  126.8722   58.3192 H   0  0  0  0  0  0  0  0  0  0  0  0
  130.8857  126.6784   61.1498 H   0  0  0  0  0  0  0  0  0  0  0  0
  127.1856  130.0779   64.9922 H   0  0  0  0  0  0  0  0  0  0  0  0
  127.3086  129.6183   67.4349 H   0  0  0  0  0  0  0  0  0  0  0  0
  129.5031  127.6971   70.4019 H   0  0  0  0  0  0  0  0  0  0  0  0
  130.2913  126.8103   69.0532 H   0  0  0  0  0  0  0  0  0  0  0  0
  130.2652  128.6064   69.0532 H   0  0  0  0  0  0  0  0  0  0  0  0
  129.6389  126.0286   66.7502 H   0  0  0  0  0  0  0  0  0  0  0  0
  130.0619  124.7351   65.1408 H   0  0  0  0  0  0  0  0  0  0  0  0
  130.1812  124.4813   63.3584 H   0  0  0  0  0  0  0  0  0  0  0  0
  132.1940  125.5759   65.2813 H   0  0  0  0  0  0  0  0  0  0  0  0
  132.4309  124.7082   63.7264 H   0  0  0  0  0  0  0  0  0  0  0  0
  132.0541  126.4645   63.7264 H   0  0  0  0  0  0  0  0  0  0  0  0
  1  2  1  0
  2  3  1  0
  3  4  2  0
  4  5  1  0
  5  6  1  0
  6  7  1  0
  7  8  2  0
  8  9  1  0
  9 10  2  0
 10 11  1  0
 11 12  2  0
 12 13  1  0
 13 14  2  0
 14 15  1  0
 15 16  2  0
 16 17  1  0
 17 18  1  0
 18 19  1  0
 19 20  1  0
 20 21  1  0
 21 22  2  0
 21 23  2  0
 21 24  1  0
  3 25  1  0
 25 26  1  0
 26 27  1  0
 27 28  1  0
 28 29  2  0
 29 30  1  0
 30 31  2  0
 31 32  1  0
 32 33  1  0
 31 34  1  0
 34 35  2  0
 35 36  1  0
 36 37  1  0
 37 38  1  0
 17  5  2  0
 36 26  2  0
 16  7  1  0
 35 28  1  0
 15 10  1  0
  1 39  1  0
  1 40  1  0
  1 41  1  0
  2 42  1  0
  2 43  1  0
  4 44  1  0
  8 45  1  0
  9 46  1  0
 11 47  1  0
 12 48  1  0
 13 49  1  0
 14 50  1  0
 18 51  1  0
 18 52  1  0
 19 53  1  0
 19 54  1  0
 20 55  1  0
 20 56  1  0
 25 57  1  0
 29 58  1  0
 30 59  1  0
 33 60  1  0
 33 61  1  0
 33 62  1  0
 34 63  1  0
 37 64  1  0
 37 65  1  0
 38 66  1  0
 38 67  1  0
 38 68  1  0
M  CHG  4  17   1  24  -1  25  -1  36   1
M  END
>  <Binding energies>  (1) 
[-7.87]

>  <Ligand effiencies>  (1) 
[-0.20710526315789474]

>  <Interactions>  (1) 
["V-A:ILE:369:CG2:3237, V-A:ASP:366:CA:3210, V-B:PRO:540:CA:9855, V-B:GLU:543:CB:9878, V-A:ILE:538:CB:4862, V-B:TYR:539:CE2:9848, V-B:GLU:543:CG:9879, V-A:ASP:366:CG:3213, V-A:ILE:538:CG2:4863, V-A:LEU:363:CD1:3189, V-B:TYR:539:CZ:9849, V-A:ILE:538:CA:4860, H-A:ASN:370:N:3244, H-B:TYR:539:OH:9850, V-A:GLU:543:CD:4908, V-B:HIS:456:CE1:9041, V-A:HIS:456:CE1:4070, V-A:ASP:366:C:3208, V-A:GLU:543:CG:4907, V-A:TYR:531:CZ:4794, V-A:MET:535:CE:4835, V-B:GLU:543:CD:9880, V-A:ASP:366:CB:3212, V-A:ARG:545:CZ:4926, V-A:GLU:543:CB:4906, V-A:PRO:540:N:4884, V-A:PRO:540:CB:4885, V-A:PRO:540:CD:4887, V-A:TYR:539:CE1:4875"]

$$$$
ZINC1803680-again1
     RDKit          3D

 69 73  0  0  0  0  0  0  0  0999 V2000
  128.6510  123.3040   62.2630 C   0  0  0  0  0  0  0  0  0  0  0  0
  129.7260  123.8750   61.3260 C   0  0  0  0  0  0  0  0  0  0  0  0
  129.6620  125.3920   61.1570 C   0  0  0  0  0  0  0  0  0  0  0  0
  128.9130  125.9420   60.1740 C   0  0  0  0  0  0  0  0  0  0  0  0
  128.7500  127.3490   59.8040 C   0  0  0  0  0  0  0  0  0  0  0  0
  127.2420  128.1820   60.0720 S   0  0  0  0  0  0  0  0  0  0  0  0
  127.9440  129.6460   59.4170 C   0  0  0  0  0  0  0  0  0  0  0  0
  127.2820  130.8690   59.3000 C   0  0  0  0  0  0  0  0  0  0  0  0
  127.9550  131.9540   58.7590 C   0  0  0  0  0  0  0  0  0  0  0  0
  129.2830  131.8500   58.2950 C   0  0  0  0  0  0  0  0  0  0  0  0
  129.9200  132.9840   57.7300 C   0  0  0  0  0  0  0  0  0  0  0  0
  131.2170  132.8960   57.2420 C   0  0  0  0  0  0  0  0  0  0  0  0
  131.8990  131.6910   57.2930 C   0  0  0  0  0  0  0  0  0  0  0  0
  131.3040  130.5610   57.8470 C   0  0  0  0  0  0  0  0  0  0  0  0
  129.9800  130.5990   58.3890 C   0  0  0  0  0  0  0  0  0  0  0  0
  129.2970  129.4790   58.9970 C   0  0  0  0  0  0  0  0  0  0  0  0
  129.7520  128.1720   59.2870 N   0  0  0  0  0  0  0  0  0  0  0  0
  131.1110  127.6560   59.0670 C   0  0  0  0  0  0  0  0  0  0  0  0
  131.0960  126.4680   58.0860 C   0  0  0  0  0  0  0  0  0  0  0  0
  132.5010  126.0440   57.6330 C   0  0  0  0  0  0  0  0  0  0  0  0
  133.0620  124.5050   58.5850 S   0  0  0  0  0  0  0  0  0  0  0  0
  133.9990  125.0340   59.5820 O   0  0  0  0  0  0  0  0  0  0  0  0
  131.8170  123.9650   59.1420 O   0  0  0  0  0  0  0  0  0  0  0  0
  133.6800  123.6710   57.5490 O   0  0  0  0  0  0  0  0  0  0  0  0
  130.4710  126.2150   62.1680 C   0  0  0  0  0  0  0  0  0  0  0  0
  129.7590  126.8260   63.3710 C   0  0  0  0  0  0  0  0  0  0  0  0
  128.7610  128.2590   63.2530 S   0  0  0  0  0  0  0  0  0  0  0  0
  128.3880  128.1530   64.9650 C   0  0  0  0  0  0  0  0  0  0  0  0
  127.5730  129.0090   65.7130 C   0  0  0  0  0  0  0  0  0  0  0  0
  127.4000  128.7360   67.0680 C   0  0  0  0  0  0  0  0  0  0  0  0
  128.0170  127.6370   67.6860 C   0  0  0  0  0  0  0  0  0  0  0  0
  127.8750  127.3270   69.0250 O   0  0  0  0  0  0  0  0  0  0  0  0
  129.0000  127.4390   69.8930 C   0  0  0  0  0  0  0  0  0  0  0  0
  128.8330  126.7740   66.9480 C   0  0  0  0  0  0  0  0  0  0  0  0
  129.0180  127.0440   65.5830 C   0  0  0  0  0  0  0  0  0  0  0  0
  129.7940  126.3250   64.6700 N   0  0  0  0  0  0  0  0  0  0  0  0
  130.5390  125.1190   65.0460 C   0  0  0  0  0  0  0  0  0  0  0  0
  131.6040  125.4370   66.1090 C   0  0  0  0  0  0  0  0  0  0  0  0
  128.9531  123.4645   63.3085 H   0  0  0  0  0  0  0  0  0  0  0  0
  127.6937  123.8125   62.0758 H   0  0  0  0  0  0  0  0  0  0  0  0
  128.5364  122.2261   62.0758 H   0  0  0  0  0  0  0  0  0  0  0  0
  130.7138  123.6139   61.7334 H   0  0  0  0  0  0  0  0  0  0  0  0
  129.5475  123.4367   60.3330 H   0  0  0  0  0  0  0  0  0  0  0  0
  128.3426  125.2270   59.5629 H   0  0  0  0  0  0  0  0  0  0  0  0
  126.2386  130.9711   59.6330 H   0  0  0  0  0  0  0  0  0  0  0  0
  127.4388  132.9229   58.6897 H   0  0  0  0  0  0  0  0  0  0  0  0
  129.3818  133.9419   57.6779 H   0  0  0  0  0  0  0  0  0  0  0  0
  131.7040  133.7847   56.8141 H   0  0  0  0  0  0  0  0  0  0  0  0
  132.9211  131.6266   56.8916 H   0  0  0  0  0  0  0  0  0  0  0  0
  131.8655  129.6153   57.8687 H   0  0  0  0  0  0  0  0  0  0  0  0
  131.7380  128.4585   58.6512 H   0  0  0  0  0  0  0  0  0  0  0  0
  131.5163  127.3116   60.0299 H   0  0  0  0  0  0  0  0  0  0  0  0
  130.6141  125.6116   58.5804 H   0  0  0  0  0  0  0  0  0  0  0  0
  130.5450  126.7892   57.1898 H   0  0  0  0  0  0  0  0  0  0  0  0
  132.4825  125.8182   56.5566 H   0  0  0  0  0  0  0  0  0  0  0  0
  133.2048  126.8653   57.8336 H   0  0  0  0  0  0  0  0  0  0  0  0
  131.2588  125.5559   62.5617 H   0  0  0  0  0  0  0  0  0  0  0  0
  130.8015  127.0894   61.5882 H   0  0  0  0  0  0  0  0  0  0  0  0
  127.0819  129.8744   65.2439 H   0  0  0  0  0  0  0  0  0  0  0  0
  126.7624  129.3999   67.6702 H   0  0  0  0  0  0  0  0  0  0  0  0
  128.6609  127.4052   70.9389 H   0  0  0  0  0  0  0  0  0  0  0  0
  129.6926  126.6054   69.7050 H   0  0  0  0  0  0  0  0  0  0  0  0
  129.5147  128.3928   69.7050 H   0  0  0  0  0  0  0  0  0  0  0  0
  129.3163  125.9079   67.4237 H   0  0  0  0  0  0  0  0  0  0  0  0
  129.8376  124.3748   65.4512 H   0  0  0  0  0  0  0  0  0  0  0  0
  131.0439  124.7262   64.1511 H   0  0  0  0  0  0  0  0  0  0  0  0
  131.1711  125.3077   67.1119 H   0  0  0  0  0  0  0  0  0  0  0  0
  132.4583  124.7548   65.9877 H   0  0  0  0  0  0  0  0  0  0  0  0
  131.9444  126.4760   65.9877 H   0  0  0  0  0  0  0  0  0  0  0  0
  1  2  1  0
  2  3  1  0
  3  4  2  0
  4  5  1  0
  5  6  1  0
  6  7  1  0
  7  8  2  0
  8  9  1  0
  9 10  2  0
 10 11  1  0
 11 12  2  0
 12 13  1  0
 13 14  2  0
 14 15  1  0
 15 16  2  0
 16 17  1  0
 17 18  1  0
 18 19  1  0
 19 20  1  0
 20 21  1  0
 21 22  2  0
 21 23  2  0
 21 24  1  0
  3 25  1  0
 25 26  1  0
 26 27  1  0
 27 28  1  0
 28 29  2  0
 29 30  1  0
 30 31  2  0
 31 32  1  0
 32 33  1  0
 31 34  1  0
 34 35  2  0
 35 36  1  0
 36 37  1  0
 37 38  1  0
 17  5  2  0
 36 26  2  0
 16  7  1  0
 35 28  1  0
 15 10  1  0
  1 39  1  0
  1 40  1  0
  1 41  1  0
  2 42  1  0
  2 43  1  0
  4 44  1  0
  8 45  1  0
  9 46  1  0
 11 47  1  0
 12 48  1  0
 13 49  1  0
 14 50  1  0
 18 51  1  0
 18 52  1  0
 19 53  1  0
 19 54  1  0
 20 55  1  0
 20 56  1  0
 25 57  1  0
 25 58  1  0
 29 59  1  0
 30 60  1  0
 33 61  1  0
 33 62  1  0
 33 63  1  0
 34 64  1  0
 37 65  1  0
 37 66  1  0
 38 67  1  0
 38 68  1  0
 38 69  1  0
M  CHG  3  17   1  24  -1  36   1
M  END
>  <Binding energies>  (1) 
[-8.17]

>  <Ligand effiencies>  (1) 
[-0.215]

>  <Interactions>  (1) 
["V-A:ASP:366:CA:3210, V-B:GLU:543:CB:9878, V-A:ILE:538:CB:4862, V-B:TYR:539:CE2:9848, V-B:GLU:543:CG:9879, V-A:ASP:366:CG:3213, V-A:TYR:539:CD1:4873, V-A:LEU:363:CD1:3189, V-B:TYR:539:CZ:9849, H-A:ASN:370:N:3244, H-B:TYR:539:OH:9850, V-A:GLU:543:CD:4908, V-A:TYR:484:CZ:4347, V-B:HIS:456:CE1:9041, V-A:HIS:456:CE1:4070, V-A:ASP:366:C:3208, V-A:GLU:543:CG:4907, V-A:TYR:531:CZ:4794, V-B:GLU:543:CD:9880, V-A:TYR:539:C:4867, V-A:ASP:366:CB:3212, V-A:PRO:540:N:4884, V-A:PRO:540:CB:4885, V-A:PRO:540:CA:4883, V-A:PRO:540:CD:4887, V-A:TYR:539:CE1:4875"]

$$$$
ZINC1804285669
     RDKit          3D

 54 58  0  0  0  0  0  0  0  0999 V2000
  131.1150  126.6730   57.7650 O   0  0  0  0  0  0  0  0  0  0  0  0
  130.4620  127.5820   58.2860 C   0  0  0  0  0  0  0  0  0  0  0  0
  129.5490  127.3830   59.2560 N   0  0  0  0  0  0  0  0  0  0  0  0
  129.1550  126.0890   59.8290 C   0  0  1  0  0  0  0  0  0  0  0  0
  128.3080  126.2700   61.1250 C   0  0  0  0  0  0  0  0  0  0  0  0
  126.7670  126.1120   60.9410 C   0  0  1  0  0  0  0  0  0  0  0  0
  126.2070  127.1120   59.9170 C   0  0  0  0  0  0  0  0  0  0  0  0
  126.3370  126.4440   58.5520 C   0  0  0  0  0  0  0  0  0  0  0  0
  126.9570  125.0610   58.8000 C   0  0  1  0  0  0  0  0  0  0  0  0
  128.5140  125.1110   58.7910 C   0  0  0  0  0  0  0  0  0  0  0  0
  126.5850  124.8420   60.2130 N   0  0  0  0  0  0  0  0  0  0  0  0
  126.6220  123.6430   60.8670 C   0  0  0  0  0  0  0  0  0  0  0  0
  125.6610  123.2290   61.5210 O   0  0  0  0  0  0  0  0  0  0  0  0
  127.8260  122.8440   60.7190 C   0  0  0  0  0  0  0  0  0  0  0  0
  129.0300  123.2540   61.1800 C   0  0  0  0  0  0  0  0  0  0  0  0
  130.3200  122.5210   61.0780 C   0  0  0  0  0  0  0  0  0  0  0  0
  131.5320  123.2120   60.9160 C   0  0  0  0  0  0  0  0  0  0  0  0
  132.7410  122.5280   60.8180 C   0  0  0  0  0  0  0  0  0  0  0  0
  132.7680  121.1380   60.8800 C   0  0  0  0  0  0  0  0  0  0  0  0
  133.9740  120.4880   60.7830 O   0  0  0  0  0  0  0  0  0  0  0  0
  131.5740  120.4250   61.0400 C   0  0  0  0  0  0  0  0  0  0  0  0
  131.6030  119.0510   61.0990 O   0  0  0  0  0  0  0  0  0  0  0  0
  130.3550  121.1140   61.1380 C   0  0  0  0  0  0  0  0  0  0  0  0
  129.1960  120.3890   61.2910 O   0  0  0  0  0  0  0  0  0  0  0  0
  130.6280  128.9640   57.8910 C   0  0  0  0  0  0  0  0  0  0  0  0
  129.6820  129.8400   57.3710 C   0  0  0  0  0  0  0  0  0  0  0  0
  130.2170  131.1320   57.0940 C   0  0  0  0  0  0  0  0  0  0  0  0
  129.5750  132.6290   56.4530 S   0  0  0  0  0  0  0  0  0  0  0  0
  131.1590  133.3590   56.6230 C   0  0  0  0  0  0  0  0  0  0  0  0
  132.1110  132.5050   57.1370 C   0  0  0  0  0  0  0  0  0  0  0  0
  131.5770  131.2140   57.4120 C   0  0  0  0  0  0  0  0  0  0  0  0
  132.2120  129.7140   58.0500 S   0  0  0  0  0  0  0  0  0  0  0  0
  129.0570  128.1860   59.6160 H   0  0  0  0  0  0  0  0  0  0  0  0
  130.0848  125.5848   60.1310 H   0  0  0  0  0  0  0  0  0  0  0  0
  128.6417  125.5196   61.8568 H   0  0  0  0  0  0  0  0  0  0  0  0
  128.4707  127.3074   61.4526 H   0  0  0  0  0  0  0  0  0  0  0  0
  126.2931  126.2153   61.9283 H   0  0  0  0  0  0  0  0  0  0  0  0
  125.1512  127.3300   60.1355 H   0  0  0  0  0  0  0  0  0  0  0  0
  126.7537  128.0660   59.9492 H   0  0  0  0  0  0  0  0  0  0  0  0
  125.3467  126.3382   58.0850 H   0  0  0  0  0  0  0  0  0  0  0  0
  126.9616  127.0438   57.8737 H   0  0  0  0  0  0  0  0  0  0  0  0
  126.6321  124.3201   58.0547 H   0  0  0  0  0  0  0  0  0  0  0  0
  128.8882  124.0983   59.0016 H   0  0  0  0  0  0  0  0  0  0  0  0
  128.8014  125.4882   57.7985 H   0  0  0  0  0  0  0  0  0  0  0  0
  127.7562  121.8696   60.2134 H   0  0  0  0  0  0  0  0  0  0  0  0
  129.0577  124.2319   61.6829 H   0  0  0  0  0  0  0  0  0  0  0  0
  131.5261  124.3108   60.8657 H   0  0  0  0  0  0  0  0  0  0  0  0
  133.6787  123.0888   60.6910 H   0  0  0  0  0  0  0  0  0  0  0  0
  134.4170  120.3910   61.6290 H   0  0  0  0  0  0  0  0  0  0  0  0
  132.3580  118.7190   61.5900 H   0  0  0  0  0  0  0  0  0  0  0  0
  129.3200  119.4590   61.0860 H   0  0  0  0  0  0  0  0  0  0  0  0
  128.6320  129.5653   57.1922 H   0  0  0  0  0  0  0  0  0  0  0  0
  131.3735  134.4015   56.3454 H   0  0  0  0  0  0  0  0  0  0  0  0
  133.1593  132.7874   57.3138 H   0  0  0  0  0  0  0  0  0  0  0  0
  1  2  2  0
  2  3  1  0
  3  4  1  0
  4  5  1  0
  5  6  1  0
  6  7  1  0
  7  8  1  0
  8  9  1  0
  9 10  1  0
  9 11  1  0
 11 12  1  0
 12 13  2  0
 12 14  1  0
 14 15  2  0
 15 16  1  0
 16 17  2  0
 17 18  1  0
 18 19  2  0
 19 20  1  0
 19 21  1  0
 21 22  1  0
 21 23  2  0
 23 24  1  0
  2 25  1  0
 25 26  2  0
 26 27  1  0
 27 28  1  0
 28 29  1  0
 29 30  2  0
 30 31  1  0
 31 32  1  0
 10  4  1  0
 23 16  1  0
 32 25  1  0
 11  6  1  0
 31 27  2  0
  3 33  1  0
  4 34  1  1
  5 35  1  0
  5 36  1  0
  6 37  1  1
  7 38  1  0
  7 39  1  0
  8 40  1  0
  8 41  1  0
  9 42  1  6
 10 43  1  0
 10 44  1  0
 14 45  1  0
 15 46  1  0
 17 47  1  0
 18 48  1  0
 20 49  1  0
 22 50  1  0
 24 51  1  0
 26 52  1  0
 29 53  1  0
 30 54  1  0
M  END
>  <Binding energies>  (1) 
[-6.32]

>  <Ligand effiencies>  (1) 
[-0.17555555555555558]

>  <Interactions>  (1) 
["V-A:ILE:369:CG2:3237, V-B:PRO:540:CA:9855, V-A:ILE:538:C:4858, V-A:ILE:538:CB:4862, V-B:ASP:366:CG:8184, H-A:TYR:531:OH:4795, V-B:TYR:539:CE2:9848, V-A:ASP:366:CG:3213, V-A:ILE:538:CG2:4863, V-A:LEU:363:CD1:3189, V-A:ILE:538:CA:4860, V-A:TYR:531:CE2:4793, H-B:TYR:539:OH:9850, H-B:ALA:541:N:9863, V-B:PRO:540:CB:9857, V-B:TYR:539:CD2:9846, V-A:TYR:531:CZ:4794, H-A:SER:385:OG:3410, V-A:MET:535:CE:4835, V-A:ASP:366:CB:3212, V-A:LEU:475:CD2:4259, H-A:HIS:383:HE2:3395, V-A:PRO:540:N:4884, V-A:PRO:540:CB:4885, H-B:TYR:539:O:9840, H-A:SER:385:O:3406, V-B:PRO:540:C:9853, V-A:PRO:540:CD:4887"]

$$$$
ZINC1804336105
     RDKit          3D

 58 61  0  0  0  0  0  0  0  0999 V2000
  128.2990  127.3120   70.9800 C   0  0  0  0  0  0  0  0  0  0  0  0
  129.5870  126.9120   70.2460 C   0  0  0  0  0  0  0  0  0  0  0  0
  130.4920  128.1310   69.9820 C   0  0  0  0  0  0  0  0  0  0  0  0
  129.1910  126.3010   69.0160 O   0  0  0  0  0  0  0  0  0  0  0  0
  128.7830  127.0610   67.9330 C   0  0  0  0  0  0  0  0  0  0  0  0
  128.0060  128.2270   68.0310 C   0  0  0  0  0  0  0  0  0  0  0  0
  127.6390  128.9390   66.8900 C   0  0  0  0  0  0  0  0  0  0  0  0
  128.0370  128.5100   65.6130 C   0  0  0  0  0  0  0  0  0  0  0  0
  127.6570  129.2710   64.3580 C   0  0  0  0  0  0  0  0  0  0  0  0
  126.6180  129.9320   64.3100 O   0  0  0  0  0  0  0  0  0  0  0  0
  128.5130  129.1860   63.3200 N   0  0  0  0  0  0  0  0  0  0  0  0
  128.3410  129.7830   61.9900 C   0  0  1  0  0  0  0  0  0  0  0  0
  127.4260  131.0450   62.0490 C   0  0  0  0  0  0  0  0  0  0  0  0
  128.1800  132.4100   62.0760 C   0  0  1  0  0  0  0  0  0  0  0  0
  129.1520  132.5100   63.2620 C   0  0  0  0  0  0  0  0  0  0  0  0
  130.4740  131.9080   62.7860 C   0  0  0  0  0  0  0  0  0  0  0  0
  130.2540  131.4730   61.3280 C   0  0  1  0  0  0  0  0  0  0  0  0
  129.6870  130.0230   61.2320 C   0  0  0  0  0  0  0  0  0  0  0  0
  129.1330  132.3520   60.9560 N   0  0  0  0  0  0  0  0  0  0  0  0
  128.7550  132.5930   59.6720 C   0  0  0  0  0  0  0  0  0  0  0  0
  128.3490  133.6990   59.3070 O   0  0  0  0  0  0  0  0  0  0  0  0
  128.9280  131.4420   58.6430 C   0  0  0  0  0  0  0  0  0  0  0  0
  130.1680  131.5920   57.8330 N   0  0  0  0  0  0  0  0  0  0  0  0
  130.3910  132.7310   57.1440 C   0  0  0  0  0  0  0  0  0  0  0  0
  129.6570  133.7190   57.0910 O   0  0  0  0  0  0  0  0  0  0  0  0
  131.7100  132.6510   56.4020 C   0  0  0  0  0  0  0  0  0  0  0  0
  132.4800  131.0660   56.7550 S   0  0  0  0  0  0  0  0  0  0  0  0
  131.1220  130.6070   57.7800 C   0  0  0  0  0  0  0  0  0  0  0  0
  131.1610  129.1090   58.5150 S   0  0  0  0  0  0  0  0  0  0  0  0
  128.8150  127.3480   65.5200 C   0  0  0  0  0  0  0  0  0  0  0  0
  129.1830  126.6340   66.6610 C   0  0  0  0  0  0  0  0  0  0  0  0
  130.1440  125.2080   66.4750 Cl  0  0  0  0  0  0  0  0  0  0  0  0
  128.4649  127.2605   72.0662 H   0  0  0  0  0  0  0  0  0  0  0  0
  128.0211  128.3388   70.6998 H   0  0  0  0  0  0  0  0  0  0  0  0
  127.4883  126.6233   70.6998 H   0  0  0  0  0  0  0  0  0  0  0  0
  130.1757  126.2170   70.8628 H   0  0  0  0  0  0  0  0  0  0  0  0
  130.8132  128.5637   70.9409 H   0  0  0  0  0  0  0  0  0  0  0  0
  131.3755  127.8143   69.4083 H   0  0  0  0  0  0  0  0  0  0  0  0
  129.9332  128.8851   69.4083 H   0  0  0  0  0  0  0  0  0  0  0  0
  127.6830  128.5828   69.0205 H   0  0  0  0  0  0  0  0  0  0  0  0
  127.0295  129.8491   66.9911 H   0  0  0  0  0  0  0  0  0  0  0  0
  129.3480  128.6340   63.4440 H   0  0  0  0  0  0  0  0  0  0  0  0
  127.8159  129.0377   61.3746 H   0  0  0  0  0  0  0  0  0  0  0  0
  126.7733  131.0340   61.1636 H   0  0  0  0  0  0  0  0  0  0  0  0
  126.8769  130.9802   62.9999 H   0  0  0  0  0  0  0  0  0  0  0  0
  127.4276  133.2124   62.0822 H   0  0  0  0  0  0  0  0  0  0  0  0
  129.2945  133.5621   63.5499 H   0  0  0  0  0  0  0  0  0  0  0  0
  128.7642  131.9767   64.1425 H   0  0  0  0  0  0  0  0  0  0  0  0
  131.2758  132.6590   62.8419 H   0  0  0  0  0  0  0  0  0  0  0  0
  130.7734  131.0566   63.4149 H   0  0  0  0  0  0  0  0  0  0  0  0
  131.1772  131.5196   60.7317 H   0  0  0  0  0  0  0  0  0  0  0  0
  129.5251  129.7906   60.1691 H   0  0  0  0  0  0  0  0  0  0  0  0
  130.4301  129.3721   61.7159 H   0  0  0  0  0  0  0  0  0  0  0  0
  128.9729  130.4860   59.1853 H   0  0  0  0  0  0  0  0  0  0  0  0
  128.0701  131.4729   57.9552 H   0  0  0  0  0  0  0  0  0  0  0  0
  131.5315  132.7423   55.3204 H   0  0  0  0  0  0  0  0  0  0  0  0
  132.3712  133.4677   56.7273 H   0  0  0  0  0  0  0  0  0  0  0  0
  129.1409  126.9930   64.5312 H   0  0  0  0  0  0  0  0  0  0  0  0
  1  2  1  0
  2  3  1  0
  2  4  1  0
  4  5  1  0
  5  6  2  0
  6  7  1  0
  7  8  2  0
  8  9  1  0
  9 10  2  0
  9 11  1  0
 11 12  1  0
 12 13  1  0
 13 14  1  0
 14 15  1  0
 15 16  1  0
 16 17  1  0
 17 18  1  0
 17 19  1  0
 19 20  1  0
 20 21  2  0
 20 22  1  0
 22 23  1  0
 23 24  1  0
 24 25  2  0
 24 26  1  0
 26 27  1  0
 27 28  1  0
 28 29  2  0
  8 30  1  0
 30 31  2  0
 31 32  1  0
 31  5  1  0
 18 12  1  0
 28 23  1  0
 19 14  1  0
  1 33  1  0
  1 34  1  0
  1 35  1  0
  2 36  1  0
  3 37  1  0
  3 38  1  0
  3 39  1  0
  6 40  1  0
  7 41  1  0
 11 42  1  0
 12 43  1  6
 13 44  1  0
 13 45  1  0
 14 46  1  6
 15 47  1  0
 15 48  1  0
 16 49  1  0
 16 50  1  0
 17 51  1  6
 18 52  1  0
 18 53  1  0
 22 54  1  0
 22 55  1  0
 26 56  1  0
 26 57  1  0
 30 58  1  0
M  END
>  <Binding energies>  (1) 
[-8.27]

>  <Ligand effiencies>  (1) 
[-0.2506060606060606]

>  <Interactions>  (1) 
["V-B:HIS:456:CD2:9039, H-A:GLU:543:OE2:4910, V-A:GLU:543:C:4902, V-B:GLU:543:CB:9878, V-A:ILE:538:CB:4862, H-A:TYR:531:OH:4795, V-A:TYR:484:CE2:4346, V-A:GLY:544:C:4912, V-B:GLU:543:CG:9879, V-A:ILE:538:CG2:4863, V-A:LEU:363:CD1:3189, V-A:ALA:541:CB:4892, V-A:GLU:543:CD:4908, H-B:TYR:484:OH:9319, V-B:HIS:456:CE1:9041, V-A:HIS:456:CE1:4070, V-A:ALA:541:CA:4890, V-A:GLU:543:CG:4907, V-B:GLU:543:CD:9880, H-A:GLU:543:OE1:4909, V-A:GLU:543:CB:4906, V-A:PRO:540:N:4884, H-A:TYR:539:N:4870, V-A:PRO:540:CA:4883"]

$$$$
ZINC1804588081
     RDKit          3D

 63 66  0  0  0  0  0  0  0  0999 V2000
  128.5520  132.2120   63.6140 C   0  0  0  0  0  0  0  0  0  0  0  0
  128.3340  132.4230   62.0960 C   0  0  0  0  0  0  0  0  0  0  0  0
  128.3830  133.9260   61.7290 C   0  0  0  0  0  0  0  0  0  0  0  0
  126.9660  131.8410   61.6870 C   0  0  0  0  0  0  0  0  0  0  0  0
  129.2800  131.6660   61.3220 O   0  0  0  0  0  0  0  0  0  0  0  0
  130.5900  132.0010   61.1100 C   0  0  0  0  0  0  0  0  0  0  0  0
  131.4150  132.2070   62.0000 O   0  0  0  0  0  0  0  0  0  0  0  0
  130.8810  132.0900   59.7500 N   0  0  0  0  0  0  0  0  0  0  0  0
  129.9110  131.8940   58.6610 C   0  0  0  0  0  0  0  0  0  0  0  0
  129.1430  130.5450   58.6420 C   0  0  0  0  0  0  0  0  0  0  0  0
  127.9100  130.5620   58.6120 O   0  0  0  0  0  0  0  0  0  0  0  0
  129.8680  129.3920   58.5500 N   0  0  0  0  0  0  0  0  0  0  0  0
  129.2160  128.0960   58.8300 C   0  0  2  0  0  0  0  0  0  0  0  0
  129.5550  127.9570   60.3310 C   0  0  0  0  0  0  0  0  0  0  0  0
  130.8510  128.7600   60.5410 C   0  0  0  0  0  0  0  0  0  0  0  0
  131.2140  129.3420   59.1560 C   0  0  1  0  0  0  0  0  0  0  0  0
  132.0660  128.3860   58.2790 C   0  0  0  0  0  0  0  0  0  0  0  0
  131.4540  126.9800   58.0420 C   0  0  1  0  0  0  0  0  0  0  0  0
  131.8820  125.9780   59.0250 N   0  0  0  0  0  0  0  0  0  0  0  0
  132.7610  124.9760   58.8240 C   0  0  0  0  0  0  0  0  0  0  0  0
  133.2770  124.7530   57.7260 O   0  0  0  0  0  0  0  0  0  0  0  0
  133.0750  124.1040   60.0210 C   0  0  0  0  0  0  0  0  0  0  0  0
  133.4000  122.7440   59.8820 C   0  0  0  0  0  0  0  0  0  0  0  0
  133.6820  121.9550   60.9980 C   0  0  0  0  0  0  0  0  0  0  0  0
  133.9930  120.6300   60.8130 O   0  0  0  0  0  0  0  0  0  0  0  0
  133.6440  122.5150   62.2800 C   0  0  0  0  0  0  0  0  0  0  0  0
  133.9240  121.7440   63.3830 O   0  0  0  0  0  0  0  0  0  0  0  0
  133.3180  123.8680   62.4340 C   0  0  0  0  0  0  0  0  0  0  0  0
  133.2590  124.5990   64.0010 Cl  0  0  0  0  0  0  0  0  0  0  0  0
  133.0360  124.6490   61.3130 C   0  0  0  0  0  0  0  0  0  0  0  0
  129.9120  127.0400   57.9290 C   0  0  0  0  0  0  0  0  0  0  0  0
  129.1380  133.1040   58.1840 C   0  0  0  0  0  0  0  0  0  0  0  0
  130.2350  132.5290   57.3170 C   0  0  0  0  0  0  0  0  0  0  0  0
  127.8729  132.8693   64.1768 H   0  0  0  0  0  0  0  0  0  0  0  0
  128.3444  131.1630   63.8719 H   0  0  0  0  0  0  0  0  0  0  0  0
  129.5936  132.4537   63.8719 H   0  0  0  0  0  0  0  0  0  0  0  0
  128.4026  134.5278   62.6496 H   0  0  0  0  0  0  0  0  0  0  0  0
  129.2883  134.1299   61.1383 H   0  0  0  0  0  0  0  0  0  0  0  0
  127.4929  134.1884   61.1383 H   0  0  0  0  0  0  0  0  0  0  0  0
  126.3875  131.5949   62.5897 H   0  0  0  0  0  0  0  0  0  0  0  0
  126.4156  132.5829   61.0898 H   0  0  0  0  0  0  0  0  0  0  0  0
  127.1189  130.9300   61.0898 H   0  0  0  0  0  0  0  0  0  0  0  0
  131.8180  132.3640   59.4910 H   0  0  0  0  0  0  0  0  0  0  0  0
  128.1386  127.9919   58.6340 H   0  0  0  0  0  0  0  0  0  0  0  0
  128.7433  128.3706   60.9475 H   0  0  0  0  0  0  0  0  0  0  0  0
  129.6778  126.9038   60.6238 H   0  0  0  0  0  0  0  0  0  0  0  0
  130.6862  129.5707   61.2661 H   0  0  0  0  0  0  0  0  0  0  0  0
  131.6588  128.1286   60.9395 H   0  0  0  0  0  0  0  0  0  0  0  0
  131.7942  130.2733   59.2330 H   0  0  0  0  0  0  0  0  0  0  0  0
  132.2108  128.8631   57.2985 H   0  0  0  0  0  0  0  0  0  0  0  0
  133.0025  128.2204   58.8317 H   0  0  0  0  0  0  0  0  0  0  0  0
  131.8546  126.6418   57.0750 H   0  0  0  0  0  0  0  0  0  0  0  0
  131.4870  126.0810   59.9490 H   0  0  0  0  0  0  0  0  0  0  0  0
  133.4326  122.2946   58.8785 H   0  0  0  0  0  0  0  0  0  0  0  0
  134.3970  120.2240   61.5830 H   0  0  0  0  0  0  0  0  0  0  0  0
  134.3910  120.9340   63.1640 H   0  0  0  0  0  0  0  0  0  0  0  0
  132.7787  125.7104   61.4445 H   0  0  0  0  0  0  0  0  0  0  0  0
  129.6574  127.2664   56.8831 H   0  0  0  0  0  0  0  0  0  0  0  0
  129.5458  126.0614   58.2728 H   0  0  0  0  0  0  0  0  0  0  0  0
  128.0861  132.9986   57.8801 H   0  0  0  0  0  0  0  0  0  0  0  0
  128.9196  134.0984   58.6005 H   0  0  0  0  0  0  0  0  0  0  0  0
  129.9812  132.0036   56.3845 H   0  0  0  0  0  0  0  0  0  0  0  0
  131.1438  132.9290   56.8436 H   0  0  0  0  0  0  0  0  0  0  0  0
  1  2  1  0
  2  3  1  0
  2  4  1  0
  2  5  1  0
  5  6  1  0
  6  7  2  0
  6  8  1  0
  8  9  1  0
  9 10  1  0
 10 11  2  0
 10 12  1  0
 12 13  1  0
 13 14  1  0
 14 15  1  0
 15 16  1  0
 16 17  1  0
 17 18  1  0
 18 19  1  0
 19 20  1  0
 20 21  2  0
 20 22  1  0
 22 23  2  0
 23 24  1  0
 24 25  1  0
 24 26  2  0
 26 27  1  0
 26 28  1  0
 28 29  1  0
 28 30  2  0
 18 31  1  0
  9 32  1  0
 32 33  1  0
 33  9  1  0
 16 12  1  0
 30 22  1  0
 31 13  1  0
  1 34  1  0
  1 35  1  0
  1 36  1  0
  3 37  1  0
  3 38  1  0
  3 39  1  0
  4 40  1  0
  4 41  1  0
  4 42  1  0
  8 43  1  0
 13 44  1  1
 14 45  1  0
 14 46  1  0
 15 47  1  0
 15 48  1  0
 16 49  1  1
 17 50  1  0
 17 51  1  0
 18 52  1  6
 19 53  1  0
 23 54  1  0
 25 55  1  0
 27 56  1  0
 30 57  1  0
 31 58  1  0
 31 59  1  0
 32 60  1  0
 32 61  1  0
 33 62  1  0
 33 63  1  0
M  END
>  <Binding energies>  (1) 
[-6.49]

>  <Ligand effiencies>  (1) 
[-0.17540540540540542]

>  <Interactions>  (1) 
["V-A:ILE:369:CG2:3237, V-A:ASP:366:CA:3210, V-A:GLY:454:CA:4049, V-A:ILE:369:CB:3236, H-A:ALA:541:N:4891, V-A:PRO:540:C:4881, V-B:TYR:539:CE2:9848, V-B:LEU:475:CD2:9230, V-A:ASP:366:CG:3213, V-A:TYR:539:CD1:4873, H-B:TYR:539:OH:9850, V-A:ALA:541:CB:4892, V-A:TYR:539:CA:4869, H-A:GLY:454:N:4050, V-A:ILE:369:CD1:3239, V-A:GLU:543:CG:4907, V-A:TYR:531:CZ:4794, H-A:SER:385:OG:3410, V-A:TYR:539:C:4867, V-A:ASP:366:CB:3212, V-A:LEU:475:CD2:4259, V-A:ARG:545:CZ:4926, V-A:PRO:540:N:4884, V-A:PRO:540:CB:4885, V-A:PRO:540:CA:4883, H-A:SER:385:O:3406, H-A:ASP:366:OD2:3215, V-A:TYR:539:CE1:4875"]

$$$$
ZINC18054865
     RDKit          3D

 58 61  0  0  0  0  0  0  0  0999 V2000
  126.2950  124.0430   59.3120 C   0  0  0  0  0  0  0  0  0  0  0  0
  127.5670  123.3940   58.9900 N   0  0  0  0  0  0  0  0  0  0  0  0
  127.5670  122.4920   57.8370 C   0  0  0  0  0  0  0  0  0  0  0  0
  128.5870  123.2860   59.9780 C   0  0  0  0  0  0  0  0  0  0  0  0
  128.9260  124.3810   60.7920 C   0  0  0  0  0  0  0  0  0  0  0  0
  129.9180  124.2770   61.7620 C   0  0  0  0  0  0  0  0  0  0  0  0
  130.6000  123.0720   61.9420 C   0  0  0  0  0  0  0  0  0  0  0  0
  131.6900  122.9340   63.0110 C   0  0  2  0  0  0  0  0  0  0  0  0
  131.4460  123.7190   64.2740 C   0  0  0  0  0  0  0  0  0  0  0  0
  130.2160  123.6090   65.0760 C   0  0  0  0  0  0  0  0  0  0  0  0
  129.5360  122.5840   65.0100 O   0  0  0  0  0  0  0  0  0  0  0  0
  129.8650  124.6910   66.0450 C   0  0  0  0  0  0  0  0  0  0  0  0
  129.4930  125.9660   65.5960 C   0  0  0  0  0  0  0  0  0  0  0  0
  129.1600  126.9610   66.5110 C   0  0  0  0  0  0  0  0  0  0  0  0
  129.1820  126.6820   67.8760 C   0  0  0  0  0  0  0  0  0  0  0  0
  128.7330  128.0450   69.1260 Br  0  0  0  0  0  0  0  0  0  0  0  0
  129.5230  125.4110   68.3320 C   0  0  0  0  0  0  0  0  0  0  0  0
  129.8550  124.4140   67.4180 C   0  0  0  0  0  0  0  0  0  0  0  0
  132.4890  124.5460   64.4610 C   0  0  0  0  0  0  0  0  0  0  0  0
  132.7830  125.4780   65.4090 O   0  0  0  0  0  0  0  0  0  0  0  0
  133.4860  124.3880   63.4210 C   0  0  0  0  0  0  0  0  0  0  0  0
  134.5640  124.9760   63.3020 O   0  0  0  0  0  0  0  0  0  0  0  0
  132.9860  123.4420   62.5950 N   0  0  0  0  0  0  0  0  0  0  0  0
  133.7120  122.9330   61.4280 C   0  0  0  0  0  0  0  0  0  0  0  0
  134.0860  124.0230   60.4080 C   0  0  0  0  0  0  0  0  0  0  0  0
  133.1960  123.9760   59.1540 C   0  0  0  0  0  0  0  0  0  0  0  0
  132.4120  125.1970   59.0360 N   0  0  0  0  0  0  0  0  0  0  0  0
  131.9980  125.8180   57.8870 C   0  0  0  0  0  0  0  0  0  0  0  0
  131.3150  126.9500   58.3060 C   0  0  0  0  0  0  0  0  0  0  0  0
  131.2980  127.0570   59.6240 N   0  0  0  0  0  0  0  0  0  0  0  0
  131.9610  126.0080   60.0490 C   0  0  0  0  0  0  0  0  0  0  0  0
  130.2760  121.9750   61.1470 C   0  0  0  0  0  0  0  0  0  0  0  0
  129.2820  122.0800   60.1780 C   0  0  0  0  0  0  0  0  0  0  0  0
  126.1796  124.1019   60.4043 H   0  0  0  0  0  0  0  0  0  0  0  0
  126.2830  125.0574   58.8868 H   0  0  0  0  0  0  0  0  0  0  0  0
  125.4666  123.4574   58.8868 H   0  0  0  0  0  0  0  0  0  0  0  0
  128.6041  122.2661   57.5482 H   0  0  0  0  0  0  0  0  0  0  0  0
  127.0485  121.5587   58.1016 H   0  0  0  0  0  0  0  0  0  0  0  0
  127.0485  122.9735   56.9948 H   0  0  0  0  0  0  0  0  0  0  0  0
  128.3977  125.3367   60.6597 H   0  0  0  0  0  0  0  0  0  0  0  0
  130.1657  125.1464   62.3887 H   0  0  0  0  0  0  0  0  0  0  0  0
  131.6684  121.8466   63.1758 H   0  0  0  0  0  0  0  0  0  0  0  0
  129.4642  126.1808   64.5176 H   0  0  0  0  0  0  0  0  0  0  0  0
  128.8804  127.9644   66.1575 H   0  0  0  0  0  0  0  0  0  0  0  0
  129.5301  125.1953   69.4106 H   0  0  0  0  0  0  0  0  0  0  0  0
  130.1102  123.4055   67.7756 H   0  0  0  0  0  0  0  0  0  0  0  0
  132.1710  126.2140   65.3330 H   0  0  0  0  0  0  0  0  0  0  0  0
  134.6376  122.4522   61.7774 H   0  0  0  0  0  0  0  0  0  0  0  0
  133.0411  122.2287   60.9143 H   0  0  0  0  0  0  0  0  0  0  0  0
  133.9741  125.0078   60.8850 H   0  0  0  0  0  0  0  0  0  0  0  0
  135.1247  123.8470   60.0915 H   0  0  0  0  0  0  0  0  0  0  0  0
  133.8321  123.8673   58.2631 H   0  0  0  0  0  0  0  0  0  0  0  0
  132.5096  123.1206   59.2382 H   0  0  0  0  0  0  0  0  0  0  0  0
  132.1707  125.4886   56.8518 H   0  0  0  0  0  0  0  0  0  0  0  0
  130.8437  127.6726   57.6235 H   0  0  0  0  0  0  0  0  0  0  0  0
  132.1388  125.7979   61.1140 H   0  0  0  0  0  0  0  0  0  0  0  0
  130.8077  121.0220   61.2854 H   0  0  0  0  0  0  0  0  0  0  0  0
  129.0361  121.2050   59.5584 H   0  0  0  0  0  0  0  0  0  0  0  0
  1  2  1  0
  2  3  1  0
  2  4  1  0
  4  5  2  0
  5  6  1  0
  6  7  2  0
  7  8  1  0
  8  9  1  0
  9 10  1  0
 10 11  2  0
 10 12  1  0
 12 13  2  0
 13 14  1  0
 14 15  2  0
 15 16  1  0
 15 17  1  0
 17 18  2  0
  9 19  2  0
 19 20  1  0
 19 21  1  0
 21 22  2  0
 21 23  1  0
 23 24  1  0
 24 25  1  0
 25 26  1  0
 26 27  1  0
 27 28  1  0
 28 29  2  0
 29 30  1  0
 30 31  2  0
  7 32  1  0
 32 33  2  0
 33  4  1  0
 23  8  1  0
 31 27  1  0
 18 12  1  0
  1 34  1  0
  1 35  1  0
  1 36  1  0
  3 37  1  0
  3 38  1  0
  3 39  1  0
  5 40  1  0
  6 41  1  0
  8 42  1  1
 13 43  1  0
 14 44  1  0
 17 45  1  0
 18 46  1  0
 20 47  1  0
 24 48  1  0
 24 49  1  0
 25 50  1  0
 25 51  1  0
 26 52  1  0
 26 53  1  0
 28 54  1  0
 29 55  1  0
 31 56  1  0
 32 57  1  0
 33 58  1  0
M  END
>  <Binding energies>  (1) 
[-7.97]

>  <Ligand effiencies>  (1) 
[-0.23441176470588235]

>  <Interactions>  (1) 
["V-A:ILE:369:CG2:3237, V-A:ASP:366:CA:3210, V-B:PRO:540:CA:9855, V-B:GLU:543:C:9874, H-A:GLU:543:OE2:4910, V-A:ILE:369:CB:3236, V-B:GLU:543:CB:9878, H-A:ARG:545:NH1:4927, V-B:TYR:539:CE2:9848, V-A:TYR:484:CE2:4346, V-B:GLU:543:CG:9879, V-B:TYR:539:C:9839, V-A:ASP:366:CG:3213, V-B:TYR:539:CZ:9849, V-A:TYR:484:CZ:4347, V-B:PRO:540:CB:9857, V-A:GLU:543:CD:4908, V-B:GLU:543:CA:9876, H-A:GLY:454:N:4050, V-B:HIS:456:CE1:9041, V-B:PRO:540:N:9856, V-A:HIS:456:CE1:4070, V-A:ILE:369:CD1:3239, V-B:TYR:539:CD2:9846, V-B:GLU:543:CD:9880, V-A:ASP:366:CB:3212, V-A:LEU:475:CD2:4259, H-A:ARG:545:NH2:4928, V-A:ARG:545:CZ:4926, H-A:GLU:543:OE1:4909, V-B:TYR:539:CG:9844, V-A:GLU:543:CB:4906, V-B:TYR:539:CD1:9845, H-A:ARG:545:NE:4924, H-A:TYR:484:OH:4348"]

$$$$
ZINC18055766
     RDKit          3D

 34 35  0  0  0  0  0  0  0  0999 V2000
  129.4980  125.3640   64.8380 C   0  0  0  0  0  0  0  0  0  0  0  0
  131.0070  125.1730   64.9060 C   0  0  0  0  0  0  0  0  0  0  0  0
  131.5880  124.9120   63.6820 N   0  0  0  0  0  0  0  0  0  0  0  0
  132.9650  124.7570   63.5540 C   0  0  0  0  0  0  0  0  0  0  0  0
  133.5180  124.4940   62.2520 N   0  0  0  0  0  0  0  0  0  0  0  0
  132.8670  125.0150   61.0490 C   0  0  0  0  0  0  0  0  0  0  0  0
  134.2570  123.2560   61.9960 C   0  0  0  0  0  0  0  0  0  0  0  0
  133.7360  124.8560   64.5840 N   0  0  0  0  0  0  0  0  0  0  0  0
  133.2660  125.1160   65.8890 C   0  0  0  0  0  0  0  0  0  0  0  0
  133.9780  125.2200   66.8910 O   0  0  0  0  0  0  0  0  0  0  0  0
  131.7940  125.2700   66.0210 C   0  0  0  0  0  0  0  0  0  0  0  0
  131.3280  125.5410   67.2700 N   0  0  0  0  0  0  0  0  0  0  0  0
  130.6020  126.5860   67.2950 N   0  0  0  0  0  0  0  0  0  0  0  0
  130.0760  126.9410   68.5500 C   0  0  0  0  0  0  0  0  0  0  0  0
  130.8930  127.7110   69.3860 C   0  0  0  0  0  0  0  0  0  0  0  0
  130.4630  128.1170   70.6470 C   0  0  0  0  0  0  0  0  0  0  0  0
  129.1950  127.7570   71.0910 C   0  0  0  0  0  0  0  0  0  0  0  0
  128.6560  128.2590   72.6530 Cl  0  0  0  0  0  0  0  0  0  0  0  0
  128.3580  126.9950   70.2820 C   0  0  0  0  0  0  0  0  0  0  0  0
  128.7950  126.5920   69.0230 C   0  0  0  0  0  0  0  0  0  0  0  0
  129.0887  125.4158   65.8577 H   0  0  0  0  0  0  0  0  0  0  0  0
  129.2704  126.2981   64.3036 H   0  0  0  0  0  0  0  0  0  0  0  0
  129.0448  124.5161   64.3036 H   0  0  0  0  0  0  0  0  0  0  0  0
  131.0060  124.8430   62.8600 H   0  0  0  0  0  0  0  0  0  0  0  0
  132.0384  125.6781   61.3384 H   0  0  0  0  0  0  0  0  0  0  0  0
  133.5979  125.5804   60.4522 H   0  0  0  0  0  0  0  0  0  0  0  0
  132.4755  124.1780   60.4522 H   0  0  0  0  0  0  0  0  0  0  0  0
  134.5350  122.7903   62.9530 H   0  0  0  0  0  0  0  0  0  0  0  0
  133.6244  122.5635   61.4213 H   0  0  0  0  0  0  0  0  0  0  0  0
  135.1668  123.4842   61.4213 H   0  0  0  0  0  0  0  0  0  0  0  0
  131.8958  128.0016   69.0397 H   0  0  0  0  0  0  0  0  0  0  0  0
  131.1229  128.7194   71.2886 H   0  0  0  0  0  0  0  0  0  0  0  0
  127.3555  126.7122   70.6355 H   0  0  0  0  0  0  0  0  0  0  0  0
  128.1290  125.9909   68.3865 H   0  0  0  0  0  0  0  0  0  0  0  0
  1  2  1  0
  2  3  1  0
  3  4  1  0
  4  5  1  0
  5  6  1  0
  5  7  1  0
  4  8  2  0
  8  9  1  0
  9 10  2  0
  9 11  1  0
 11 12  1  0
 12 13  2  0
 13 14  1  0
 14 15  2  0
 15 16  1  0
 16 17  2  0
 17 18  1  0
 17 19  1  0
 19 20  2  0
 11  2  2  0
 20 14  1  0
  1 21  1  0
  1 22  1  0
  1 23  1  0
  3 24  1  0
  6 25  1  0
  6 26  1  0
  6 27  1  0
  7 28  1  0
  7 29  1  0
  7 30  1  0
 15 31  1  0
 16 32  1  0
 19 33  1  0
 20 34  1  0
M  END
>  <Binding energies>  (1) 
[-5.73]

>  <Ligand effiencies>  (1) 
[-0.27285714285714285]

>  <Interactions>  (1) 
["V-A:GLY:454:CA:4049, V-B:GLU:543:C:9874, V-B:HIS:456:CD2:9039, V-A:GLU:543:C:4902, V-B:GLU:543:CB:9878, V-B:GLU:543:CG:9879, V-A:GLY:544:C:4912, V-A:ASP:366:CG:3213, V-A:TYR:484:CZ:4347, V-B:HIS:456:CE1:9041, V-A:ARG:545:CG:4922, H-A:GLY:454:N:4050, V-A:HIS:456:CE1:4070, V-A:ILE:369:CD1:3239, V-B:GLU:543:CD:9880, V-A:ARG:545:CD:4923, H-A:ARG:545:NH2:4928, V-A:ARG:545:CZ:4926, V-A:GLU:543:CB:4906, H-A:ARG:545:NE:4924, H-A:HIS:456:ND1:4067, H-A:TYR:484:OH:4348"]

$$$$
ZINC18106356-again1
     RDKit          3D

 63 68  0  0  0  0  0  0  0  0999 V2000
  127.9480  122.8960   63.2860 C   0  0  0  0  0  0  0  0  0  0  0  0
  127.2430  122.5880   62.0880 O   0  0  0  0  0  0  0  0  0  0  0  0
  127.1470  123.5440   61.0910 C   0  0  0  0  0  0  0  0  0  0  0  0
  125.9310  124.1080   60.6720 C   0  0  0  0  0  0  0  0  0  0  0  0
  125.9030  125.0760   59.6740 C   0  0  0  0  0  0  0  0  0  0  0  0
  127.0860  125.5120   59.0710 C   0  0  0  0  0  0  0  0  0  0  0  0
  127.0950  126.6210   58.0070 C   0  0  1  0  0  0  0  0  0  0  0  0
  127.4910  128.0180   58.5040 C   0  0  0  0  0  0  0  0  0  0  0  0
  128.7430  128.5120   58.3760 C   0  0  0  0  0  0  0  0  0  0  0  0
  129.0010  129.8280   58.6710 N   0  0  0  0  0  0  0  0  0  0  0  0
  129.9420  130.6500   58.0320 C   0  0  0  0  0  0  0  0  0  0  0  0
  129.5410  131.8420   57.4180 C   0  0  0  0  0  0  0  0  0  0  0  0
  130.4580  132.6860   56.7990 C   0  0  0  0  0  0  0  0  0  0  0  0
  131.8060  132.3510   56.7970 C   0  0  0  0  0  0  0  0  0  0  0  0
  132.2220  131.1710   57.4040 C   0  0  0  0  0  0  0  0  0  0  0  0
  131.3130  130.2900   58.0040 C   0  0  0  0  0  0  0  0  0  0  0  0
  131.7830  129.1280   58.6440 N   0  0  0  0  0  0  0  0  0  0  0  0
  131.2710  127.7860   58.3350 C   0  0  1  0  0  0  0  0  0  0  0  0
  131.6110  126.7340   59.4020 C   0  0  0  0  0  0  0  0  0  0  0  0
  131.2690  126.8800   60.7010 C   0  0  0  0  0  0  0  0  0  0  0  0
  131.5810  126.0310   61.7130 O   0  0  0  0  0  0  0  0  0  0  0  0
  132.3720  124.9400   61.4200 C   0  0  0  0  0  0  0  0  0  0  0  0
  132.7500  124.1310   62.4910 C   0  0  0  0  0  0  0  0  0  0  0  0
  133.5520  123.0130   62.2640 C   0  0  0  0  0  0  0  0  0  0  0  0
  133.9710  122.7080   60.9700 C   0  0  0  0  0  0  0  0  0  0  0  0
  133.5890  123.5180   59.8990 C   0  0  0  0  0  0  0  0  0  0  0  0
  132.7890  124.6510   60.1090 C   0  0  0  0  0  0  0  0  0  0  0  0
  132.3880  125.5470   58.9720 C   0  0  0  0  0  0  0  0  0  0  0  0
  132.7150  125.2940   57.8100 O   0  0  0  0  0  0  0  0  0  0  0  0
  129.8080  127.6410   57.8640 C   0  0  0  0  0  0  0  0  0  0  0  0
  129.4480  126.6060   57.0650 C   0  0  0  0  0  0  0  0  0  0  0  0
  130.2860  125.6720   56.5370 O   0  0  0  0  0  0  0  0  0  0  0  0
  127.9890  126.2530   56.7760 C   0  0  0  0  0  0  0  0  0  0  0  0
  128.2960  124.9410   59.4760 C   0  0  0  0  0  0  0  0  0  0  0  0
  128.3400  123.9570   60.4810 C   0  0  0  0  0  0  0  0  0  0  0  0
  129.5100  123.3650   60.9210 O   0  0  0  0  0  0  0  0  0  0  0  0
  129.7690  122.0010   60.6050 C   0  0  0  0  0  0  0  0  0  0  0  0
  127.3299  122.6260   64.1549 H   0  0  0  0  0  0  0  0  0  0  0  0
  128.8890  122.3270   63.3143 H   0  0  0  0  0  0  0  0  0  0  0  0
  128.1698  123.9730   63.3143 H   0  0  0  0  0  0  0  0  0  0  0  0
  124.9902  123.7804   61.1385 H   0  0  0  0  0  0  0  0  0  0  0  0
  124.9403  125.5027   59.3561 H   0  0  0  0  0  0  0  0  0  0  0  0
  126.0370  126.6807   57.7119 H   0  0  0  0  0  0  0  0  0  0  0  0
  126.7242  128.6435   58.9844 H   0  0  0  0  0  0  0  0  0  0  0  0
  128.1860  130.3360   58.9800 H   0  0  0  0  0  0  0  0  0  0  0  0
  128.4762  132.1181   57.4249 H   0  0  0  0  0  0  0  0  0  0  0  0
  130.1174  133.6128   56.3142 H   0  0  0  0  0  0  0  0  0  0  0  0
  132.5403  133.0153   56.3180 H   0  0  0  0  0  0  0  0  0  0  0  0
  133.2936  130.9227   57.4132 H   0  0  0  0  0  0  0  0  0  0  0  0
  131.6870  129.2460   59.6430 H   0  0  0  0  0  0  0  0  0  0  0  0
  131.8471  127.5805   57.4208 H   0  0  0  0  0  0  0  0  0  0  0  0
  130.6816  127.7722   60.9635 H   0  0  0  0  0  0  0  0  0  0  0  0
  132.4169  124.3737   63.5109 H   0  0  0  0  0  0  0  0  0  0  0  0
  133.8538  122.3722   63.1056 H   0  0  0  0  0  0  0  0  0  0  0  0
  134.6045  121.8265   60.7922 H   0  0  0  0  0  0  0  0  0  0  0  0
  133.9186  123.2653   58.8804 H   0  0  0  0  0  0  0  0  0  0  0  0
  130.6370  125.1230   57.2410 H   0  0  0  0  0  0  0  0  0  0  0  0
  127.6457  126.8156   55.8953 H   0  0  0  0  0  0  0  0  0  0  0  0
  127.9104  125.1730   56.5828 H   0  0  0  0  0  0  0  0  0  0  0  0
  129.2323  125.2673   58.9997 H   0  0  0  0  0  0  0  0  0  0  0  0
  129.8786  121.4236   61.5349 H   0  0  0  0  0  0  0  0  0  0  0  0
  128.9318  121.5953   60.0180 H   0  0  0  0  0  0  0  0  0  0  0  0
  130.6966  121.9304   60.0180 H   0  0  0  0  0  0  0  0  0  0  0  0
  1  2  1  0
  2  3  1  0
  3  4  2  0
  4  5  1  0
  5  6  2  0
  6  7  1  0
  7  8  1  0
  8  9  2  0
  9 10  1  0
 10 11  1  0
 11 12  2  0
 12 13  1  0
 13 14  2  0
 14 15  1  0
 15 16  2  0
 16 17  1  0
 17 18  1  0
 18 19  1  0
 19 20  2  0
 20 21  1  0
 21 22  1  0
 22 23  2  0
 23 24  1  0
 24 25  2  0
 25 26  1  0
 26 27  2  0
 27 28  1  0
 28 29  2  0
 18 30  1  0
 30 31  2  0
 31 32  1  0
 31 33  1  0
  6 34  1  0
 34 35  2  0
 35 36  1  0
 36 37  1  0
 35  3  1  0
 33  7  1  0
 30  9  1  0
 16 11  1  0
 28 19  1  0
 27 22  1  0
  1 38  1  0
  1 39  1  0
  1 40  1  0
  4 41  1  0
  5 42  1  0
  7 43  1  6
  8 44  1  0
 10 45  1  0
 12 46  1  0
 13 47  1  0
 14 48  1  0
 15 49  1  0
 17 50  1  0
 18 51  1  6
 20 52  1  0
 23 53  1  0
 24 54  1  0
 25 55  1  0
 26 56  1  0
 32 57  1  0
 33 58  1  0
 33 59  1  0
 34 60  1  0
 37 61  1  0
 37 62  1  0
 37 63  1  0
M  END
>  <Binding energies>  (1) 
[-6.65]

>  <Ligand effiencies>  (1) 
[-0.15833333333333335]

>  <Interactions>  (1) 
["V-A:ILE:369:CG2:3237, V-B:PRO:540:CA:9855, V-A:ILE:369:CB:3236, V-A:ILE:538:CB:4862, V-B:ASP:366:CG:8184, V-B:ALA:541:CB:9864, H-A:TYR:531:OH:4795, V-B:TYR:539:CE2:9848, V-B:GLU:543:CG:9879, V-A:ASP:366:CG:3213, V-A:LEU:363:CD1:3189, V-A:TYR:531:CE2:4793, H-B:TYR:539:OH:9850, H-B:ALA:541:N:9863, V-B:PRO:540:CB:9857, V-A:ILE:369:CD1:3239, V-B:TYR:539:CD2:9846, V-B:GLU:543:CD:9880, V-A:ASP:366:CB:3212, H-A:ARG:545:NH2:4928, H-A:ASP:366:OD2:3215, V-B:ALA:541:CA:9862"]

$$$$
ZINC18116196
     RDKit          3D

 31 32  0  0  0  0  0  0  0  0999 V2000
  134.3700  124.1250   61.5060 C   0  0  0  0  0  0  0  0  0  0  0  0
  133.4880  124.3300   62.7190 C   0  0  0  0  0  0  0  0  0  0  0  0
  134.0380  124.7290   63.8380 N   0  0  0  0  0  0  0  0  0  0  0  0
  133.0460  124.8230   64.7420 N   0  0  0  0  0  0  0  0  0  0  0  0
  133.3700  125.1920   66.0630 C   0  0  0  0  0  0  0  0  0  0  0  0
  132.4230  125.9690   66.6420 N   0  0  0  0  0  0  0  0  0  0  0  0
  134.7440  124.7270   66.8930 S   0  0  0  0  0  0  0  0  0  0  0  0
  131.8100  124.5090   64.1840 C   0  0  0  0  0  0  0  0  0  0  0  0
  130.4880  124.6060   64.9410 C   0  0  0  0  0  0  0  0  0  0  0  0
  132.1010  124.1440   62.8520 C   0  0  0  0  0  0  0  0  0  0  0  0
  131.3040  123.7140   61.8330 N   0  0  0  0  0  0  0  0  0  0  0  0
  130.4890  124.5660   61.3710 N   0  0  0  0  0  0  0  0  0  0  0  0
  129.6640  124.1280   60.3180 C   0  0  0  0  0  0  0  0  0  0  0  0
  128.8620  123.0080   60.5660 C   0  0  0  0  0  0  0  0  0  0  0  0
  128.0100  122.4960   59.5920 C   0  0  0  0  0  0  0  0  0  0  0  0
  127.9500  123.1030   58.3410 C   0  0  0  0  0  0  0  0  0  0  0  0
  126.8960  122.4720   57.1290 Cl  0  0  0  0  0  0  0  0  0  0  0  0
  128.7360  124.2160   58.0630 C   0  0  0  0  0  0  0  0  0  0  0  0
  129.5850  124.7240   59.0430 C   0  0  0  0  0  0  0  0  0  0  0  0
  135.3931  123.8872   61.8326 H   0  0  0  0  0  0  0  0  0  0  0  0
  133.9756  123.2946   60.9020 H   0  0  0  0  0  0  0  0  0  0  0  0
  134.3822  125.0442   60.9020 H   0  0  0  0  0  0  0  0  0  0  0  0
  131.5950  126.2260   66.1230 H   0  0  0  0  0  0  0  0  0  0  0  0
  132.5480  126.2850   67.5930 H   0  0  0  0  0  0  0  0  0  0  0  0
  130.6834  124.5917   66.0234 H   0  0  0  0  0  0  0  0  0  0  0  0
  129.9797  125.5439   64.6725 H   0  0  0  0  0  0  0  0  0  0  0  0
  129.8483  123.7524   64.6725 H   0  0  0  0  0  0  0  0  0  0  0  0
  128.9061  122.5221   61.5519 H   0  0  0  0  0  0  0  0  0  0  0  0
  127.3871  121.6159   59.8098 H   0  0  0  0  0  0  0  0  0  0  0  0
  128.6873  124.6932   57.0731 H   0  0  0  0  0  0  0  0  0  0  0  0
  130.2043  125.6050   58.8184 H   0  0  0  0  0  0  0  0  0  0  0  0
  1  2  1  0
  2  3  2  0
  3  4  1  0
  4  5  1  0
  5  6  1  0
  5  7  2  0
  4  8  1  0
  8  9  1  0
  8 10  2  0
 10 11  1  0
 11 12  2  0
 12 13  1  0
 13 14  2  0
 14 15  1  0
 15 16  2  0
 16 17  1  0
 16 18  1  0
 18 19  2  0
 10  2  1  0
 19 13  1  0
  1 20  1  0
  1 21  1  0
  1 22  1  0
  6 23  1  0
  6 24  1  0
  9 25  1  0
  9 26  1  0
  9 27  1  0
 14 28  1  0
 15 29  1  0
 18 30  1  0
 19 31  1  0
M  END
>  <Binding energies>  (1) 
[-6.04]

>  <Ligand effiencies>  (1) 
[-0.2876190476190476]

>  <Interactions>  (1) 
["V-B:PRO:540:CA:9855, V-A:GLY:454:CA:4049, H-A:GLU:543:OE2:4910, H-A:ARG:545:NH1:4927, V-B:TYR:539:CE2:9848, V-B:GLU:543:CG:9879, V-B:TYR:539:C:9839, V-B:TYR:539:CZ:9849, V-A:TYR:484:CZ:4347, V-B:PRO:540:CB:9857, V-A:GLU:543:CD:4908, V-A:ILE:455:C:4052, V-A:ARG:545:CG:4922, H-A:GLY:454:N:4050, V-A:GLY:453:C:4042, V-B:PRO:540:N:9856, V-A:ILE:369:CD1:3239, V-A:HIS:456:CE1:4070, V-B:TYR:539:CD2:9846, V-B:PRO:540:CD:9859, V-A:ARG:545:CD:4923, H-A:ARG:545:NH2:4928, V-A:ARG:545:CZ:4926, V-A:GLY:453:CA:4044, H-A:ARG:545:NE:4924, V-A:GLY:454:C:4047, H-A:TYR:484:OH:4348"]

$$$$
ZINC181207551
     RDKit          3D

 58 60  0  0  0  0  0  0  0  0999 V2000
  128.3630  127.6160   67.4250 C   0  0  0  0  0  0  0  0  0  0  0  0
  129.3890  126.8200   68.2530 C   0  0  0  0  0  0  0  0  0  0  0  0
  130.2260  127.7490   69.1510 C   0  0  0  0  0  0  0  0  0  0  0  0
  130.2740  125.9230   67.3630 C   0  0  0  0  0  0  0  0  0  0  0  0
  129.6190  125.6650   66.1230 O   0  0  0  0  0  0  0  0  0  0  0  0
  130.4680  125.4260   65.0000 C   0  0  1  0  0  0  0  0  0  0  0  0
  131.9350  125.2510   65.4430 C   0  0  0  0  0  0  0  0  0  0  0  0
  129.9630  124.1860   64.2770 C   0  0  0  0  0  0  0  0  0  0  0  0
  130.4570  122.9930   64.5340 N   0  0  0  0  0  0  0  0  0  0  0  0
  129.7410  122.1620   63.6760 O   0  0  0  0  0  0  0  0  0  0  0  0
  128.8930  122.9910   63.0190 C   0  0  0  0  0  0  0  0  0  0  0  0
  127.9780  122.3990   61.9730 C   0  0  0  0  0  0  0  0  0  0  0  0
  128.7500  121.8430   60.8670 N   0  0  0  0  0  0  0  0  0  0  0  0
  128.9870  122.7750   59.7630 C   0  0  1  0  0  0  0  0  0  0  0  0
  127.7170  123.6500   59.5980 C   0  0  0  0  0  0  0  0  0  0  0  0
  127.1510  123.7220   58.1580 C   0  0  2  0  0  0  0  0  0  0  0  0
  125.6370  123.5710   58.1180 C   0  0  0  0  0  0  0  0  0  0  0  0
  125.3790  122.8070   56.8280 C   0  0  0  0  0  0  0  0  0  0  0  0
  126.4870  121.9230   56.7560 O   0  0  0  0  0  0  0  0  0  0  0  0
  127.6510  122.5970   57.2300 C   0  0  0  0  0  0  0  0  0  0  0  0
  130.2570  123.6180   59.9410 C   0  0  0  0  0  0  0  0  0  0  0  0
  131.3340  123.0860   60.6560 C   0  0  0  0  0  0  0  0  0  0  0  0
  132.4970  123.8320   60.8260 C   0  0  0  0  0  0  0  0  0  0  0  0
  132.5830  125.1110   60.2820 C   0  0  0  0  0  0  0  0  0  0  0  0
  131.5160  125.6510   59.5670 C   0  0  0  0  0  0  0  0  0  0  0  0
  130.3540  124.9050   59.3950 C   0  0  0  0  0  0  0  0  0  0  0  0
  129.0090  124.2430   63.3650 N   0  0  0  0  0  0  0  0  0  0  0  0
  127.6782  128.1473   68.1023 H   0  0  0  0  0  0  0  0  0  0  0  0
  128.8895  128.3442   66.7906 H   0  0  0  0  0  0  0  0  0  0  0  0
  127.7885  126.9250   66.7906 H   0  0  0  0  0  0  0  0  0  0  0  0
  128.8257  126.1472   68.9163 H   0  0  0  0  0  0  0  0  0  0  0  0
  130.0204  127.5208   70.2073 H   0  0  0  0  0  0  0  0  0  0  0  0
  131.2951  127.5938   68.9437 H   0  0  0  0  0  0  0  0  0  0  0  0
  129.9606  128.7962   68.9437 H   0  0  0  0  0  0  0  0  0  0  0  0
  131.2302  126.4315   67.1705 H   0  0  0  0  0  0  0  0  0  0  0  0
  130.4550  124.9691   67.8800 H   0  0  0  0  0  0  0  0  0  0  0  0
  130.4400  126.2904   64.3202 H   0  0  0  0  0  0  0  0  0  0  0  0
  131.9880  125.2447   66.5417 H   0  0  0  0  0  0  0  0  0  0  0  0
  132.3252  124.2999   65.0516 H   0  0  0  0  0  0  0  0  0  0  0  0
  132.5380  126.0836   65.0516 H   0  0  0  0  0  0  0  0  0  0  0  0
  127.3759  121.6002   62.4305 H   0  0  0  0  0  0  0  0  0  0  0  0
  127.3251  123.1941   61.5838 H   0  0  0  0  0  0  0  0  0  0  0  0
  128.3590  120.9760   60.5250 H   0  0  0  0  0  0  0  0  0  0  0  0
  129.1715  122.2006   58.8432 H   0  0  0  0  0  0  0  0  0  0  0  0
  126.9334  123.2399   60.2520 H   0  0  0  0  0  0  0  0  0  0  0  0
  128.0153  124.6755   59.8614 H   0  0  0  0  0  0  0  0  0  0  0  0
  127.4952  124.7098   57.8178 H   0  0  0  0  0  0  0  0  0  0  0  0
  125.2774  123.0023   58.9882 H   0  0  0  0  0  0  0  0  0  0  0  0
  125.1134  124.5379   58.1502 H   0  0  0  0  0  0  0  0  0  0  0  0
  124.4316  122.2506   56.8803 H   0  0  0  0  0  0  0  0  0  0  0  0
  125.2863  123.4599   55.9476 H   0  0  0  0  0  0  0  0  0  0  0  0
  128.2939  121.9004   57.7880 H   0  0  0  0  0  0  0  0  0  0  0  0
  128.2467  123.0000   56.3977 H   0  0  0  0  0  0  0  0  0  0  0  0
  131.2624  122.0757   61.0852 H   0  0  0  0  0  0  0  0  0  0  0  0
  133.3447  123.4128   61.3878 H   0  0  0  0  0  0  0  0  0  0  0  0
  133.5018  125.7004   60.4180 H   0  0  0  0  0  0  0  0  0  0  0  0
  131.5918  126.6621   59.1405 H   0  0  0  0  0  0  0  0  0  0  0  0
  129.5099  125.3263   58.8293 H   0  0  0  0  0  0  0  0  0  0  0  0
  1  2  1  0
  2  3  1  0
  2  4  1  0
  4  5  1  0
  5  6  1  0
  6  7  1  0
  6  8  1  0
  8  9  2  0
  9 10  1  0
 10 11  1  0
 11 12  1  0
 12 13  1  0
 13 14  1  0
 14 15  1  0
 15 16  1  0
 16 17  1  0
 17 18  1  0
 18 19  1  0
 19 20  1  0
 14 21  1  0
 21 22  2  0
 22 23  1  0
 23 24  2  0
 24 25  1  0
 25 26  2  0
 11 27  2  0
 27  8  1  0
 20 16  1  0
 26 21  1  0
  1 28  1  0
  1 29  1  0
  1 30  1  0
  2 31  1  0
  3 32  1  0
  3 33  1  0
  3 34  1  0
  4 35  1  0
  4 36  1  0
  6 37  1  6
  7 38  1  0
  7 39  1  0
  7 40  1  0
 12 41  1  0
 12 42  1  0
 13 43  1  0
 14 44  1  6
 15 45  1  0
 15 46  1  0
 16 47  1  6
 17 48  1  0
 17 49  1  0
 18 50  1  0
 18 51  1  0
 20 52  1  0
 20 53  1  0
 22 54  1  0
 23 55  1  0
 24 56  1  0
 25 57  1  0
 26 58  1  0
M  END
>  <Binding energies>  (1) 
[-6.97]

>  <Ligand effiencies>  (1) 
[-0.24892857142857142]

>  <Interactions>  (1) 
["V-B:PRO:540:CA:9855, V-B:GLU:543:CB:9878, V-B:ALA:541:CB:9864, V-B:TYR:539:CE2:9848, H-B:TYR:539:N:9842, V-B:GLU:543:CG:9879, V-B:TYR:539:C:9839, V-A:ASP:366:CG:3213, V-B:TYR:539:CZ:9849, H-B:ALA:541:N:9863, V-B:PRO:540:CB:9857, V-B:HIS:456:CE1:9041, V-B:PRO:540:N:9856, V-A:HIS:456:CE1:4070, V-B:TYR:539:CD2:9846, V-B:PRO:540:CD:9859, V-B:GLU:543:CD:9880, V-A:ASP:366:CB:3212, V-B:TYR:539:CG:9844, V-A:GLU:543:CB:4906, V-B:TYR:539:CD1:9845, V-B:LEU:363:CD1:8160, H-B:TYR:539:O:9840, V-B:PRO:540:C:9853, V-B:MET:535:CE:9807, V-B:ALA:541:CA:9862, V-B:TYR:539:CE1:9847, H-A:TYR:484:OH:4348"]

$$$$
ZINC181348392
     RDKit          3D

 43 44  0  0  0  0  0  0  0  0999 V2000
  129.8380  125.2650   67.3080 C   0  0  0  0  0  0  0  0  0  0  0  0
  129.3060  126.6820   67.4200 C   0  0  0  0  0  0  0  0  0  0  0  0
  129.3640  127.3570   68.6400 C   0  0  0  0  0  0  0  0  0  0  0  0
  128.8880  128.6630   68.7410 C   0  0  0  0  0  0  0  0  0  0  0  0
  128.3560  129.2980   67.6200 C   0  0  0  0  0  0  0  0  0  0  0  0
  128.2920  128.6440   66.3880 C   0  0  0  0  0  0  0  0  0  0  0  0
  127.7510  129.3540   65.3340 O   0  0  0  0  0  0  0  0  0  0  0  0
  128.3220  129.2140   64.0350 C   0  0  0  0  0  0  0  0  0  0  0  0
  127.8910  130.4180   63.1740 C   0  0  0  0  0  0  0  0  0  0  0  0
  127.6630  131.6290   63.9700 N   0  0  0  0  0  0  0  0  0  0  0  0
  126.4140  132.2670   63.5560 C   0  0  0  0  0  0  0  0  0  0  0  0
  128.7750  132.5880   63.8860 C   0  0  0  0  0  0  0  0  0  0  0  0
  129.7450  132.3180   62.8150 N   0  0  0  0  0  0  0  0  0  0  0  0
  130.9930  132.0080   63.1490 N   0  0  0  0  0  0  0  0  0  0  0  0
  131.6100  131.8190   62.0690 C   0  0  0  0  0  0  0  0  0  0  0  0
  133.0870  131.4570   61.9260 C   0  0  0  0  0  0  0  0  0  0  0  0
  133.8220  132.5560   61.7600 F   0  0  0  0  0  0  0  0  0  0  0  0
  133.5240  130.7960   62.9990 F   0  0  0  0  0  0  0  0  0  0  0  0
  130.7900  131.9650   61.0020 N   0  0  0  0  0  0  0  0  0  0  0  0
  131.1820  131.8320   59.5930 C   0  0  0  0  0  0  0  0  0  0  0  0
  129.5570  132.3340   61.4640 C   0  0  0  0  0  0  0  0  0  0  0  0
  128.1670  132.7050   60.6040 S   0  0  0  0  0  0  0  0  0  0  0  0
  128.7760  127.3260   66.2970 C   0  0  0  0  0  0  0  0  0  0  0  0
  129.9934  124.8510   68.3152 H   0  0  0  0  0  0  0  0  0  0  0  0
  129.1122  124.6428   66.7638 H   0  0  0  0  0  0  0  0  0  0  0  0
  130.7939  125.2742   66.7638 H   0  0  0  0  0  0  0  0  0  0  0  0
  129.7864  126.8571   69.5241 H   0  0  0  0  0  0  0  0  0  0  0  0
  128.9321  129.1921   69.7044 H   0  0  0  0  0  0  0  0  0  0  0  0
  127.9814  130.3286   67.7071 H   0  0  0  0  0  0  0  0  0  0  0  0
  129.4189  129.1887   64.1135 H   0  0  0  0  0  0  0  0  0  0  0  0
  127.9754  128.2784   63.5718 H   0  0  0  0  0  0  0  0  0  0  0  0
  128.6810  130.6246   62.4369 H   0  0  0  0  0  0  0  0  0  0  0  0
  126.9400  130.1557   62.6873 H   0  0  0  0  0  0  0  0  0  0  0  0
  125.8394  132.5605   64.4469 H   0  0  0  0  0  0  0  0  0  0  0  0
  126.6401  133.1600   62.9549 H   0  0  0  0  0  0  0  0  0  0  0  0
  125.8230  131.5604   62.9549 H   0  0  0  0  0  0  0  0  0  0  0  0
  128.3510  133.5891   63.7187 H   0  0  0  0  0  0  0  0  0  0  0  0
  129.3286  132.5024   64.8327 H   0  0  0  0  0  0  0  0  0  0  0  0
  133.1873  130.8100   61.0421 H   0  0  0  0  0  0  0  0  0  0  0  0
  132.2222  131.4791   59.5335 H   0  0  0  0  0  0  0  0  0  0  0  0
  130.5202  131.1081   59.0950 H   0  0  0  0  0  0  0  0  0  0  0  0
  131.0973  132.8092   59.0950 H   0  0  0  0  0  0  0  0  0  0  0  0
  128.7372  126.7969   65.3334 H   0  0  0  0  0  0  0  0  0  0  0  0
  1  2  1  0
  2  3  2  0
  3  4  1  0
  4  5  2  0
  5  6  1  0
  6  7  1  0
  7  8  1  0
  8  9  1  0
  9 10  1  0
 10 11  1  0
 10 12  1  0
 12 13  1  0
 13 14  1  0
 14 15  2  0
 15 16  1  0
 16 17  1  0
 16 18  1  0
 15 19  1  0
 19 20  1  0
 19 21  1  0
 21 22  2  0
  6 23  2  0
 23  2  1  0
 21 13  1  0
  1 24  1  0
  1 25  1  0
  1 26  1  0
  3 27  1  0
  4 28  1  0
  5 29  1  0
  8 30  1  0
  8 31  1  0
  9 32  1  0
  9 33  1  0
 11 34  1  0
 11 35  1  0
 11 36  1  0
 12 37  1  0
 12 38  1  0
 16 39  1  0
 20 40  1  0
 20 41  1  0
 20 42  1  0
 23 43  1  0
M  END
>  <Binding energies>  (1) 
[-5.19]

>  <Ligand effiencies>  (1) 
[-0.22565217391304349]

>  <Interactions>  (1) 
["V-A:GLU:543:CA:4904, H-A:ALA:541:N:4891, V-B:GLU:543:CB:9878, V-A:PRO:540:C:4881, V-A:TYR:484:CE2:4346, V-B:LEU:475:CD2:9230, V-B:GLU:543:CG:9879, V-A:ASN:362:CB:3176, V-A:ALA:541:CB:4892, V-A:GLU:543:CD:4908, H-B:TYR:484:OH:9319, V-A:ASN:362:CG:3177, V-B:HIS:456:CE1:9041, V-B:GLU:543:CA:9876, V-A:HIS:456:CE1:4070, V-B:TYR:484:CZ:9318, V-A:ALA:541:CA:4890, V-A:GLU:543:CG:4907, V-B:GLU:543:CD:9880, V-A:ASN:362:C:3172, V-A:ARG:545:CZ:4926, V-A:GLU:543:CB:4906, V-A:PRO:540:CB:4885, V-A:PRO:540:CA:4883, V-A:ASN:362:CA:3174"]

$$$$
ZINC1814162465-again1
     RDKit          3D

 61 64  0  0  0  0  0  0  0  0999 V2000
  129.2410  126.6960   65.8610 O   0  0  0  0  0  0  0  0  0  0  0  0
  129.5560  126.0910   66.8880 C   0  0  0  0  0  0  0  0  0  0  0  0
  129.6580  126.7150   68.1880 C   0  0  0  0  0  0  0  0  0  0  0  0
  128.6800  126.6280   69.1180 C   0  0  0  0  0  0  0  0  0  0  0  0
  128.6930  127.2250   70.4920 C   0  0  0  0  0  0  0  0  0  0  0  0
  127.6760  126.8630   71.3880 C   0  0  0  0  0  0  0  0  0  0  0  0
  127.6320  127.3710   72.6800 C   0  0  0  0  0  0  0  0  0  0  0  0
  128.6070  128.2590   73.1160 C   0  0  0  0  0  0  0  0  0  0  0  0
  128.5280  128.7380   74.4000 O   0  0  0  0  0  0  0  0  0  0  0  0
  129.6400  128.6500   72.2560 C   0  0  0  0  0  0  0  0  0  0  0  0
  130.5800  129.5370   72.7480 O   0  0  0  0  0  0  0  0  0  0  0  0
  129.6930  128.1340   70.9360 C   0  0  0  0  0  0  0  0  0  0  0  0
  130.6520  128.4900   70.1580 O   0  0  0  0  0  0  0  0  0  0  0  0
  129.8460  124.7780   66.9130 N   0  0  0  0  0  0  0  0  0  0  0  0
  129.8430  123.8900   65.7500 C   0  0  0  0  0  0  0  0  0  0  0  0
  131.1950  123.8310   64.9920 C   0  0  2  0  0  0  0  0  0  0  0  0
  131.8460  125.1850   64.7380 C   0  0  0  0  0  0  0  0  0  0  0  0
  132.8410  124.9430   63.6020 C   0  0  0  0  0  0  0  0  0  0  0  0
  132.3510  123.7240   62.9370 N   0  0  0  0  0  0  0  0  0  0  0  0
  132.9330  123.1120   61.8690 C   0  0  0  0  0  0  0  0  0  0  0  0
  133.6850  123.7270   61.1060 O   0  0  0  0  0  0  0  0  0  0  0  0
  132.6400  121.7020   61.6590 C   0  0  0  0  0  0  0  0  0  0  0  0
  131.5000  121.2730   61.0710 C   0  0  0  0  0  0  0  0  0  0  0  0
  131.1210  119.8660   60.8390 C   0  0  0  0  0  0  0  0  0  0  0  0
  130.1320  119.2760   61.6360 C   0  0  0  0  0  0  0  0  0  0  0  0
  129.7610  117.9460   61.4220 C   0  0  0  0  0  0  0  0  0  0  0  0
  130.3960  117.2350   60.4030 C   0  0  0  0  0  0  0  0  0  0  0  0
  131.3560  117.7790   59.6140 N   0  0  0  0  0  0  0  0  0  0  0  0
  131.7020  119.0730   59.8380 C   0  0  0  0  0  0  0  0  0  0  0  0
  131.1410  123.1840   63.5910 C   0  0  2  0  0  0  0  0  0  0  0  0
  129.8530  123.4350   62.7910 C   0  0  0  0  0  0  0  0  0  0  0  0
  129.7220  124.5010   61.8870 C   0  0  0  0  0  0  0  0  0  0  0  0
  128.5300  124.6680   61.1800 C   0  0  0  0  0  0  0  0  0  0  0  0
  127.4960  123.7560   61.3930 C   0  0  0  0  0  0  0  0  0  0  0  0
  127.6010  122.7110   62.2530 N   0  0  0  0  0  0  0  0  0  0  0  0
  128.7670  122.5640   62.9310 C   0  0  0  0  0  0  0  0  0  0  0  0
  130.5679  127.2836   68.4306 H   0  0  0  0  0  0  0  0  0  0  0  0
  127.7813  126.0597   68.8362 H   0  0  0  0  0  0  0  0  0  0  0  0
  126.8955  126.1607   71.0598 H   0  0  0  0  0  0  0  0  0  0  0  0
  126.8221  127.0690   73.3603 H   0  0  0  0  0  0  0  0  0  0  0  0
  129.1720  129.4270   74.5780 H   0  0  0  0  0  0  0  0  0  0  0  0
  131.0790  129.9660   72.0480 H   0  0  0  0  0  0  0  0  0  0  0  0
  130.1020  124.3600   67.7950 H   0  0  0  0  0  0  0  0  0  0  0  0
  129.5946  122.8744   66.0920 H   0  0  0  0  0  0  0  0  0  0  0  0
  129.1024  124.2951   65.0447 H   0  0  0  0  0  0  0  0  0  0  0  0
  131.7737  123.2181   65.6987 H   0  0  0  0  0  0  0  0  0  0  0  0
  131.0906  125.9263   64.4382 H   0  0  0  0  0  0  0  0  0  0  0  0
  132.3378  125.5809   65.6388 H   0  0  0  0  0  0  0  0  0  0  0  0
  132.8468  125.7920   62.9026 H   0  0  0  0  0  0  0  0  0  0  0  0
  133.8735  124.8351   63.9658 H   0  0  0  0  0  0  0  0  0  0  0  0
  133.3755  120.9549   61.9920 H   0  0  0  0  0  0  0  0  0  0  0  0
  130.7905  122.0435   60.7350 H   0  0  0  0  0  0  0  0  0  0  0  0
  129.6466  119.8604   62.4315 H   0  0  0  0  0  0  0  0  0  0  0  0
  128.9867  117.4707   62.0421 H   0  0  0  0  0  0  0  0  0  0  0  0
  130.1055  116.1879   60.2321 H   0  0  0  0  0  0  0  0  0  0  0  0
  132.4782  119.5228   59.2015 H   0  0  0  0  0  0  0  0  0  0  0  0
  131.1227  122.0861   63.6557 H   0  0  0  0  0  0  0  0  0  0  0  0
  130.5559  125.2024   61.7363 H   0  0  0  0  0  0  0  0  0  0  0  0
  128.4087  125.5001   60.4708 H   0  0  0  0  0  0  0  0  0  0  0  0
  126.5546  123.8895   60.8399 H   0  0  0  0  0  0  0  0  0  0  0  0
  128.8634  121.7169   63.6261 H   0  0  0  0  0  0  0  0  0  0  0  0
  1  2  2  0
  2  3  1  0
  3  4  2  0
  4  5  1  0
  5  6  2  0
  6  7  1  0
  7  8  2  0
  8  9  1  0
  8 10  1  0
 10 11  1  0
 10 12  2  0
 12 13  1  0
  2 14  1  0
 14 15  1  0
 15 16  1  0
 16 17  1  0
 17 18  1  0
 18 19  1  0
 19 20  1  0
 20 21  2  0
 20 22  1  0
 22 23  2  0
 23 24  1  0
 24 25  2  0
 25 26  1  0
 26 27  2  0
 27 28  1  0
 28 29  2  0
 19 30  1  0
 30 31  1  0
 31 32  2  0
 32 33  1  0
 33 34  2  0
 34 35  1  0
 35 36  2  0
 12  5  1  0
 30 16  1  0
 36 31  1  0
 29 24  1  0
  3 37  1  0
  4 38  1  0
  6 39  1  0
  7 40  1  0
  9 41  1  0
 11 42  1  0
 14 43  1  0
 15 44  1  0
 15 45  1  0
 16 46  1  1
 17 47  1  0
 17 48  1  0
 18 49  1  0
 18 50  1  0
 22 51  1  0
 23 52  1  0
 25 53  1  0
 26 54  1  0
 27 55  1  0
 29 56  1  0
 30 57  1  1
 32 58  1  0
 33 59  1  0
 34 60  1  0
 36 61  1  0
M  CHG  1  13  -1
M  END
>  <Binding energies>  (1) 
[-8.02]

>  <Ligand effiencies>  (1) 
[-0.20564102564102563]

>  <Interactions>  (1) 
["V-B:GLU:543:C:9874, V-B:HIS:456:CD2:9039, H-B:GLU:543:O:9875, V-B:GLU:543:CB:9878, V-B:ALA:541:CB:9864, V-B:TYR:539:CE2:9848, V-A:TYR:484:CE2:4346, V-A:LEU:475:CG:4257, V-B:GLU:543:CG:9879, V-B:TYR:539:C:9839, V-B:LYS:547:CE:9922, H-B:ALA:541:N:9863, V-A:LEU:475:CD1:4258, V-B:TYR:539:CB:9843, V-A:HIS:383:CE1:3393, V-A:TYR:484:CZ:4347, V-B:HIS:456:CE1:9041, V-B:GLU:543:CA:9876, V-A:HIS:383:NE2:3394, V-A:HIS:456:CE1:4070, V-B:GLY:544:C:9884, V-A:PRO:482:CB:4326, V-B:GLY:544:CA:9886, V-B:TYR:539:CD2:9846, H-A:SER:385:OG:3410, V-B:GLU:543:CD:9880, H-A:LYS:547:NZ:4951, V-A:LEU:475:CD2:4259, V-A:ARG:545:CZ:4926, V-B:TYR:539:CG:9844, H-A:HIS:383:HE2:3395, V-A:PRO:482:CG:4327, H-A:GLY:544:O:4913, H-A:HIS:456:NE2:4071, H-A:TYR:484:OH:4348, H-A:GLU:543:O:4903"]

$$$$
ZINC18181405
     RDKit          3D

 52 57  0  0  0  0  0  0  0  0999 V2000
  130.0050  124.7230   67.2310 C   0  0  0  0  0  0  0  0  0  0  0  0
  129.9900  125.3450   65.8460 C   0  0  0  0  0  0  0  0  0  0  0  0
  129.1190  126.4010   65.5730 C   0  0  0  0  0  0  0  0  0  0  0  0
  129.1030  126.9820   64.3080 C   0  0  0  0  0  0  0  0  0  0  0  0
  129.9640  126.5060   63.3110 C   0  0  0  0  0  0  0  0  0  0  0  0
  129.9500  127.0950   62.0280 N   0  0  0  0  0  0  0  0  0  0  0  0
  129.4810  128.3520   61.7830 C   0  0  0  0  0  0  0  0  0  0  0  0
  128.9770  129.1420   62.5830 O   0  0  0  0  0  0  0  0  0  0  0  0
  129.7760  128.6650   60.3250 C   0  0  2  0  0  0  0  0  0  0  0  0
  128.6250  129.2780   59.4900 C   0  0  1  0  0  0  0  0  0  0  0  0
  128.9450  130.6560   58.9030 C   0  0  0  0  0  0  0  0  0  0  0  0
  128.0380  131.7020   59.1120 C   0  0  0  0  0  0  0  0  0  0  0  0
  128.2800  132.9690   58.5870 C   0  0  0  0  0  0  0  0  0  0  0  0
  129.4310  133.2030   57.8420 C   0  0  0  0  0  0  0  0  0  0  0  0
  130.3440  132.1720   57.6150 C   0  0  0  0  0  0  0  0  0  0  0  0
  131.7560  132.5150   56.6750 Cl  0  0  0  0  0  0  0  0  0  0  0  0
  130.1070  130.8920   58.1420 C   0  0  0  0  0  0  0  0  0  0  0  0
  131.2450  129.6190   57.8370 Cl  0  0  0  0  0  0  0  0  0  0  0  0
  128.3410  128.3040   58.4750 O   0  0  0  0  0  0  0  0  0  0  0  0
  128.8240  127.0120   58.8370 C   0  0  0  0  0  0  0  0  0  0  0  0
  127.6640  126.2140   59.4710 C   0  0  0  0  0  0  0  0  0  0  0  0
  127.0330  126.5090   60.4840 O   0  0  0  0  0  0  0  0  0  0  0  0
  127.4870  125.0140   58.6340 C   0  0  0  0  0  0  0  0  0  0  0  0
  126.5980  123.9500   58.8050 C   0  0  0  0  0  0  0  0  0  0  0  0
  126.5860  122.9050   57.8780 C   0  0  0  0  0  0  0  0  0  0  0  0
  127.4560  122.9280   56.7850 C   0  0  0  0  0  0  0  0  0  0  0  0
  128.3420  123.9940   56.6130 C   0  0  0  0  0  0  0  0  0  0  0  0
  128.3550  125.0350   57.5440 C   0  0  0  0  0  0  0  0  0  0  0  0
  129.1890  126.2520   57.5580 C   0  0  0  0  0  0  0  0  0  0  0  0
  130.0320  126.5820   56.7230 O   0  0  0  0  0  0  0  0  0  0  0  0
  130.0740  127.3510   59.7090 C   0  0  2  0  0  0  0  0  0  0  0  0
  130.3890  126.4570   60.9050 C   0  0  0  0  0  0  0  0  0  0  0  0
  130.9280  125.3520   60.8200 O   0  0  0  0  0  0  0  0  0  0  0  0
  130.8370  125.4460   63.5870 C   0  0  0  0  0  0  0  0  0  0  0  0
  130.8500  124.8680   64.8540 C   0  0  0  0  0  0  0  0  0  0  0  0
  129.9858  125.5185   67.9904 H   0  0  0  0  0  0  0  0  0  0  0  0
  129.1221  124.0783   67.3530 H   0  0  0  0  0  0  0  0  0  0  0  0
  130.9179  124.1216   67.3530 H   0  0  0  0  0  0  0  0  0  0  0  0
  128.4448  126.7744   66.3579 H   0  0  0  0  0  0  0  0  0  0  0  0
  128.4156  127.8132   64.0919 H   0  0  0  0  0  0  0  0  0  0  0  0
  130.5748  129.4212   60.3205 H   0  0  0  0  0  0  0  0  0  0  0  0
  127.7520  129.4804   60.1280 H   0  0  0  0  0  0  0  0  0  0  0  0
  127.1244  131.5210   59.6972 H   0  0  0  0  0  0  0  0  0  0  0  0
  127.5617  133.7837   58.7613 H   0  0  0  0  0  0  0  0  0  0  0  0
  129.6225  134.2048   57.4300 H   0  0  0  0  0  0  0  0  0  0  0  0
  125.9116  123.9352   59.6644 H   0  0  0  0  0  0  0  0  0  0  0  0
  125.8906  122.0628   58.0088 H   0  0  0  0  0  0  0  0  0  0  0  0
  127.4431  122.1034   56.0571 H   0  0  0  0  0  0  0  0  0  0  0  0
  129.0245  124.0135   55.7506 H   0  0  0  0  0  0  0  0  0  0  0  0
  130.9276  127.2609   59.0210 H   0  0  0  0  0  0  0  0  0  0  0  0
  131.5118  125.0704   62.8037 H   0  0  0  0  0  0  0  0  0  0  0  0
  131.5366  124.0370   65.0732 H   0  0  0  0  0  0  0  0  0  0  0  0
  1  2  1  0
  2  3  2  0
  3  4  1  0
  4  5  2  0
  5  6  1  0
  6  7  1  0
  7  8  2  0
  7  9  1  0
  9 10  1  0
 10 11  1  0
 11 12  2  0
 12 13  1  0
 13 14  2  0
 14 15  1  0
 15 16  1  0
 15 17  2  0
 17 18  1  0
 10 19  1  0
 19 20  1  0
 20 21  1  0
 21 22  2  0
 21 23  1  0
 23 24  2  0
 24 25  1  0
 25 26  2  0
 26 27  1  0
 27 28  2  0
 28 29  1  0
 29 30  2  0
 20 31  1  0
 31 32  1  0
 32 33  2  0
  5 34  1  0
 34 35  2  0
 35  2  1  0
 32  6  1  0
 31  9  1  0
 17 11  1  0
 29 20  1  0
 28 23  1  0
  1 36  1  0
  1 37  1  0
  1 38  1  0
  3 39  1  0
  4 40  1  0
  9 41  1  1
 10 42  1  1
 12 43  1  0
 13 44  1  0
 14 45  1  0
 24 46  1  0
 25 47  1  0
 26 48  1  0
 27 49  1  0
 31 50  1  6
 34 51  1  0
 35 52  1  0
M  END
>  <Binding energies>  (1) 
[-7.5]

>  <Ligand effiencies>  (1) 
[-0.21428571428571427]

>  <Interactions>  (1) 
["V-B:PRO:540:CA:9855, V-B:GLU:543:CB:9878, V-A:ILE:538:CB:4862, H-A:TYR:531:OH:4795, V-B:TYR:539:CE2:9848, V-A:TYR:484:CE2:4346, V-B:GLU:543:CG:9879, V-B:TYR:539:C:9839, V-A:TYR:539:CE1:4875, V-A:ILE:538:CG2:4863, V-A:TYR:539:CD1:4873, V-A:LEU:363:CD1:3189, V-B:TYR:539:CZ:9849, H-B:TYR:539:OH:9850, V-A:TYR:539:CA:4869, V-A:GLU:543:CD:4908, V-B:PRO:540:CB:9857, V-A:TYR:484:CZ:4347, V-B:GLU:543:CA:9876, V-B:PRO:540:N:9856, V-A:HIS:456:CE1:4070, V-B:PRO:540:CD:9859, V-A:TYR:531:CZ:4794, V-B:GLU:543:CD:9880, V-A:TYR:539:C:4867, V-B:TYR:539:CG:9844, V-B:TYR:539:CD1:9845, V-A:PRO:540:N:4884, V-A:TYR:539:CG:4872, V-A:PRO:540:CA:4883, V-B:TYR:539:CE1:9847"]

$$$$
ZINC18196921-again1
     RDKit          3D

 51 54  0  0  0  0  0  0  0  0999 V2000
  125.9380  127.5280   58.6440 C   0  0  0  0  0  0  0  0  0  0  0  0
  126.0480  126.1140   58.5200 O   0  0  0  0  0  0  0  0  0  0  0  0
  126.7310  125.3950   59.4850 C   0  0  0  0  0  0  0  0  0  0  0  0
  127.5640  125.9830   60.4490 C   0  0  0  0  0  0  0  0  0  0  0  0
  128.2190  125.1970   61.3950 C   0  0  0  0  0  0  0  0  0  0  0  0
  128.0850  123.7970   61.3970 C   0  0  0  0  0  0  0  0  0  0  0  0
  127.2350  123.2280   60.4430 C   0  0  0  0  0  0  0  0  0  0  0  0
  126.5590  124.0050   59.4850 C   0  0  0  0  0  0  0  0  0  0  0  0
  125.7200  123.4730   58.5200 O   0  0  0  0  0  0  0  0  0  0  0  0
  126.2610  123.0590   57.2710 C   0  0  0  0  0  0  0  0  0  0  0  0
  128.8240  122.9080   62.4160 C   0  0  1  0  0  0  0  0  0  0  0  0
  129.9310  122.0940   61.7410 C   0  0  0  0  0  0  0  0  0  0  0  0
  129.8260  120.7050   61.6450 C   0  0  0  0  0  0  0  0  0  0  0  0
  130.8340  119.9590   61.0370 C   0  0  0  0  0  0  0  0  0  0  0  0
  130.6070  117.8780   60.9160 I   0  0  0  0  0  0  0  0  0  0  0  0
  131.9670  120.6010   60.5250 C   0  0  0  0  0  0  0  0  0  0  0  0
  132.9590  119.8640   59.9280 O   0  0  0  0  0  0  0  0  0  0  0  0
  132.0970  121.9940   60.6170 C   0  0  0  0  0  0  0  0  0  0  0  0
  133.2460  122.5670   60.0970 O   0  0  0  0  0  0  0  0  0  0  0  0
  133.2580  123.9570   59.7920 C   0  0  0  0  0  0  0  0  0  0  0  0
  131.0680  122.7300   61.2280 C   0  0  0  0  0  0  0  0  0  0  0  0
  129.3200  123.7300   63.6220 C   0  0  0  0  0  0  0  0  0  0  0  0
  129.5910  123.1570   64.8180 C   0  0  0  0  0  0  0  0  0  0  0  0
  129.4340  121.8370   65.1070 O   0  0  0  0  0  0  0  0  0  0  0  0
  130.1520  123.9080   66.0260 C   0  0  0  0  0  0  0  0  0  0  0  0
  130.8340  125.2540   65.6350 C   0  0  0  0  0  0  0  0  0  0  0  0
  130.2530  125.8680   64.3660 C   0  0  0  0  0  0  0  0  0  0  0  0
  129.5400  125.1660   63.4620 C   0  0  0  0  0  0  0  0  0  0  0  0
  129.0040  125.8170   62.3770 N   0  0  0  0  0  0  0  0  0  0  0  0
  125.9167  127.8021   59.7091 H   0  0  0  0  0  0  0  0  0  0  0  0
  126.8016  128.0069   58.1594 H   0  0  0  0  0  0  0  0  0  0  0  0
  125.0107  127.8675   58.1594 H   0  0  0  0  0  0  0  0  0  0  0  0
  127.7012  127.0744   60.4580 H   0  0  0  0  0  0  0  0  0  0  0  0
  127.0905  122.1375   60.4419 H   0  0  0  0  0  0  0  0  0  0  0  0
  127.1235  122.3990   57.4457 H   0  0  0  0  0  0  0  0  0  0  0  0
  125.4931  122.5157   56.7008 H   0  0  0  0  0  0  0  0  0  0  0  0
  126.5847  123.9422   56.7008 H   0  0  0  0  0  0  0  0  0  0  0  0
  128.1090  122.1764   62.8205 H   0  0  0  0  0  0  0  0  0  0  0  0
  128.9405  120.1954   62.0526 H   0  0  0  0  0  0  0  0  0  0  0  0
  133.6800  120.4110   59.6060 H   0  0  0  0  0  0  0  0  0  0  0  0
  133.2630  124.5374   60.7264 H   0  0  0  0  0  0  0  0  0  0  0  0
  134.1582  124.1963   59.2069 H   0  0  0  0  0  0  0  0  0  0  0  0
  132.3620  124.2118   59.2069 H   0  0  0  0  0  0  0  0  0  0  0  0
  131.1571  123.8237   61.3046 H   0  0  0  0  0  0  0  0  0  0  0  0
  128.9350  121.7460   65.9240 H   0  0  0  0  0  0  0  0  0  0  0  0
  129.3272  124.1208   66.7220 H   0  0  0  0  0  0  0  0  0  0  0  0
  130.9193  123.2688   66.4871 H   0  0  0  0  0  0  0  0  0  0  0  0
  130.7022  125.9673   66.4620 H   0  0  0  0  0  0  0  0  0  0  0  0
  131.8960  125.0417   65.4422 H   0  0  0  0  0  0  0  0  0  0  0  0
  130.4242  126.9383   64.1784 H   0  0  0  0  0  0  0  0  0  0  0  0
  129.1270  126.8170   62.3160 H   0  0  0  0  0  0  0  0  0  0  0  0
  1  2  1  0
  2  3  1  0
  3  4  2  0
  4  5  1  0
  5  6  2  0
  6  7  1  0
  7  8  2  0
  8  9  1  0
  9 10  1  0
  6 11  1  0
 11 12  1  0
 12 13  2  0
 13 14  1  0
 14 15  1  0
 14 16  2  0
 16 17  1  0
 16 18  1  0
 18 19  1  0
 19 20  1  0
 18 21  2  0
 11 22  1  0
 22 23  2  0
 23 24  1  0
 23 25  1  0
 25 26  1  0
 26 27  1  0
 27 28  2  0
 28 29  1  0
  8  3  1  0
 21 12  1  0
 28 22  1  0
 29  5  1  0
  1 30  1  0
  1 31  1  0
  1 32  1  0
  4 33  1  0
  7 34  1  0
 10 35  1  0
 10 36  1  0
 10 37  1  0
 11 38  1  1
 13 39  1  0
 17 40  1  0
 20 41  1  0
 20 42  1  0
 20 43  1  0
 21 44  1  0
 24 45  1  0
 25 46  1  0
 25 47  1  0
 26 48  1  0
 26 49  1  0
 27 50  1  0
 29 51  1  0
M  END
>  <Binding energies>  (1) 
[-5.9]

>  <Ligand effiencies>  (1) 
[-0.184375]

>  <Interactions>  (1) 
["V-A:ILE:369:CG2:3237, V-B:PRO:540:CA:9855, V-B:GLU:543:CB:9878, V-B:ALA:541:CB:9864, V-B:ASP:366:CG:8184, V-B:TYR:539:CE2:9848, V-A:TYR:484:CE2:4346, V-B:GLU:543:CG:9879, V-A:GLU:543:CD:4908, V-B:PRO:540:CB:9857, V-A:TYR:484:CZ:4347, V-B:ASP:366:CB:8183, V-B:PRO:540:N:9856, V-B:PRO:540:CD:9859, V-B:TYR:539:CD2:9846, H-A:SER:385:OG:3410, V-B:GLU:543:CD:9880, H-B:TYR:531:OH:9767, V-A:LEU:475:CD2:4259, H-B:VAL:542:O:9867, V-A:HIS:383:NE2:3394"]

$$$$
ZINC18198186-again1
     RDKit          3D

 55 59  0  0  0  0  0  0  0  0999 V2000
  127.8900  128.4660   63.8290 C   0  0  0  0  0  0  0  0  0  0  0  0
  127.7220  128.6360   65.2320 O   0  0  0  0  0  0  0  0  0  0  0  0
  128.4980  127.8940   66.1040 C   0  0  0  0  0  0  0  0  0  0  0  0
  129.0800  126.6580   65.7780 C   0  0  0  0  0  0  0  0  0  0  0  0
  129.8580  125.9620   66.7060 C   0  0  0  0  0  0  0  0  0  0  0  0
  130.4750  124.6100   66.3340 C   0  0  1  0  0  0  0  0  0  0  0  0
  129.4880  123.6660   65.6480 C   0  0  0  0  0  0  0  0  0  0  0  0
  129.4880  123.4160   64.3210 C   0  0  0  0  0  0  0  0  0  0  0  0
  128.4780  122.6100   63.8140 N   0  0  0  0  0  0  0  0  0  0  0  0
  128.0750  122.8270   62.5100 C   0  0  0  0  0  0  0  0  0  0  0  0
  126.9180  122.5950   61.9500 N   0  0  0  0  0  0  0  0  0  0  0  0
  127.0620  123.2030   60.7810 C   0  0  0  0  0  0  0  0  0  0  0  0
  128.2060  123.8130   60.5470 N   0  0  0  0  0  0  0  0  0  0  0  0
  128.8760  123.5750   61.6790 N   0  0  0  0  0  0  0  0  0  0  0  0
  130.2980  123.8710   61.8940 C   0  0  2  0  0  0  0  0  0  0  0  0
  131.1870  122.7820   61.2820 C   0  0  0  0  0  0  0  0  0  0  0  0
  132.4440  123.1200   60.7660 C   0  0  0  0  0  0  0  0  0  0  0  0
  133.2630  122.1430   60.1980 C   0  0  0  0  0  0  0  0  0  0  0  0
  132.8310  120.8190   60.1390 C   0  0  0  0  0  0  0  0  0  0  0  0
  131.5810  120.4710   60.6460 C   0  0  0  0  0  0  0  0  0  0  0  0
  130.9870  118.6640   60.5630 Br  0  0  0  0  0  0  0  0  0  0  0  0
  130.7620  121.4480   61.2140 C   0  0  0  0  0  0  0  0  0  0  0  0
  130.4760  124.0510   63.4260 C   0  0  0  0  0  0  0  0  0  0  0  0
  131.5210  124.7160   63.9890 C   0  0  0  0  0  0  0  0  0  0  0  0
  132.4830  125.2580   63.3220 O   0  0  0  0  0  0  0  0  0  0  0  0
  131.7840  124.7730   65.5030 C   0  0  0  0  0  0  0  0  0  0  0  0
  130.0370  126.5010   67.9840 C   0  0  0  0  0  0  0  0  0  0  0  0
  129.4650  127.7320   68.3390 C   0  0  0  0  0  0  0  0  0  0  0  0
  129.6040  128.3150   69.5860 O   0  0  0  0  0  0  0  0  0  0  0  0
  129.0050  127.6920   70.7180 C   0  0  0  0  0  0  0  0  0  0  0  0
  128.7050  128.4240   67.3860 C   0  0  0  0  0  0  0  0  0  0  0  0
  128.1310  129.6260   67.7210 O   0  0  0  0  0  0  0  0  0  0  0  0
  128.3570  130.6610   66.7730 C   0  0  0  0  0  0  0  0  0  0  0  0
  128.6519  127.6950   63.6417 H   0  0  0  0  0  0  0  0  0  0  0  0
  126.9351  128.1545   63.3805 H   0  0  0  0  0  0  0  0  0  0  0  0
  128.2128  129.4171   63.3805 H   0  0  0  0  0  0  0  0  0  0  0  0
  128.9207  126.2316   64.7766 H   0  0  0  0  0  0  0  0  0  0  0  0
  130.7447  124.1332   67.2879 H   0  0  0  0  0  0  0  0  0  0  0  0
  128.7346  123.1614   66.2708 H   0  0  0  0  0  0  0  0  0  0  0  0
  127.7930  122.2870   64.4810 H   0  0  0  0  0  0  0  0  0  0  0  0
  126.2553  123.1984   60.0332 H   0  0  0  0  0  0  0  0  0  0  0  0
  130.6152  124.7923   61.3835 H   0  0  0  0  0  0  0  0  0  0  0  0
  132.7887  124.1637   60.8086 H   0  0  0  0  0  0  0  0  0  0  0  0
  134.2497  122.4179   59.7968 H   0  0  0  0  0  0  0  0  0  0  0  0
  133.4771  120.0490   59.6921 H   0  0  0  0  0  0  0  0  0  0  0  0
  129.7750  121.1689   61.6115 H   0  0  0  0  0  0  0  0  0  0  0  0
  132.4782  123.9635   65.7728 H   0  0  0  0  0  0  0  0  0  0  0  0
  132.2109  125.7599   65.7350 H   0  0  0  0  0  0  0  0  0  0  0  0
  130.6366  125.9503   68.7237 H   0  0  0  0  0  0  0  0  0  0  0  0
  129.4221  128.1258   71.6388 H   0  0  0  0  0  0  0  0  0  0  0  0
  127.9177  127.8570   70.6948 H   0  0  0  0  0  0  0  0  0  0  0  0
  129.2126  126.6120   70.6948 H   0  0  0  0  0  0  0  0  0  0  0  0
  128.5628  131.6036   67.3013 H   0  0  0  0  0  0  0  0  0  0  0  0
  129.2190  130.3985   66.1421 H   0  0  0  0  0  0  0  0  0  0  0  0
  127.4641  130.7817   66.1421 H   0  0  0  0  0  0  0  0  0  0  0  0
  1  2  1  0
  2  3  1  0
  3  4  2  0
  4  5  1  0
  5  6  1  0
  6  7  1  0
  7  8  2  0
  8  9  1  0
  9 10  1  0
 10 11  2  0
 11 12  1  0
 12 13  2  0
 13 14  1  0
 14 15  1  0
 15 16  1  0
 16 17  2  0
 17 18  1  0
 18 19  2  0
 19 20  1  0
 20 21  1  0
 20 22  2  0
 15 23  1  0
 23 24  2  0
 24 25  1  0
 24 26  1  0
  5 27  2  0
 27 28  1  0
 28 29  1  0
 29 30  1  0
 28 31  2  0
 31 32  1  0
 32 33  1  0
 31  3  1  0
 26  6  1  0
 23  8  1  0
 14 10  1  0
 22 16  1  0
  1 34  1  0
  1 35  1  0
  1 36  1  0
  4 37  1  0
  6 38  1  1
  7 39  1  0
  9 40  1  0
 12 41  1  0
 15 42  1  6
 17 43  1  0
 18 44  1  0
 19 45  1  0
 22 46  1  0
 26 47  1  0
 26 48  1  0
 27 49  1  0
 30 50  1  0
 30 51  1  0
 30 52  1  0
 33 53  1  0
 33 54  1  0
 33 55  1  0
M  CHG  1  25  -1
M  END
>  <Binding energies>  (1) 
[-5.49]

>  <Ligand effiencies>  (1) 
[-0.16147058823529412]

>  <Interactions>  (1) 
["V-A:ILE:369:CG2:3237, V-B:PRO:540:CA:9855, V-A:GLU:543:CA:4904, V-B:GLU:543:CB:9878, V-B:ALA:541:CB:9864, V-B:TYR:539:CE2:9848, V-A:TYR:484:CE2:4346, H-B:ALA:541:O:9861, V-B:GLU:543:CG:9879, V-B:TYR:484:CE2:9317, H-B:GLU:543:OE1:9881, H-B:ALA:541:N:9863, V-A:TYR:484:CZ:4347, V-B:PRO:540:CB:9857, V-A:GLU:543:CD:4908, H-B:TYR:484:OH:9319, V-B:GLU:543:CA:9876, V-B:HIS:456:CE1:9041, V-A:HIS:456:CE1:4070, V-B:TYR:484:CZ:9318, V-B:TYR:539:CD2:9846, V-A:GLU:543:CG:4907, V-B:GLU:543:CD:9880, V-A:LEU:475:CD2:4259, H-A:ARG:545:NH2:4928, V-A:GLU:543:CB:4906, V-B:PRO:540:C:9853, V-B:ALA:541:CA:9862, V-A:HIS:383:NE2:3394"]

$$$$
ZINC18250094
     RDKit          3D

 49 54  0  0  0  0  0  0  0  0999 V2000
  131.3010  127.8360   61.5800 O   0  0  0  0  0  0  0  0  0  0  0  0
  130.1350  127.6290   61.2430 C   0  0  0  0  0  0  0  0  0  0  0  0
  129.1500  126.7630   62.0140 C   0  0  2  0  0  0  0  0  0  0  0  0
  129.6340  125.3470   62.4050 C   0  0  1  0  0  0  0  0  0  0  0  0
  129.6880  125.0970   63.9080 C   0  0  0  0  0  0  0  0  0  0  0  0
  129.9220  123.8060   64.3970 C   0  0  0  0  0  0  0  0  0  0  0  0
  129.9850  123.5760   65.7710 C   0  0  0  0  0  0  0  0  0  0  0  0
  129.8170  124.6330   66.6660 C   0  0  0  0  0  0  0  0  0  0  0  0
  129.5870  125.9220   66.1860 C   0  0  0  0  0  0  0  0  0  0  0  0
  129.4280  126.9480   67.0520 F   0  0  0  0  0  0  0  0  0  0  0  0
  129.5240  126.1540   64.8120 C   0  0  0  0  0  0  0  0  0  0  0  0
  128.7440  124.4470   61.7300 O   0  0  0  0  0  0  0  0  0  0  0  0
  128.1030  125.0830   60.6240 C   0  0  0  0  0  0  0  0  0  0  0  0
  128.8980  124.7550   59.3400 C   0  0  0  0  0  0  0  0  0  0  0  0
  130.0740  125.0340   59.1100 O   0  0  0  0  0  0  0  0  0  0  0  0
  127.9540  124.0750   58.4360 C   0  0  0  0  0  0  0  0  0  0  0  0
  128.1640  123.6170   57.1330 C   0  0  0  0  0  0  0  0  0  0  0  0
  127.1250  122.9810   56.4500 C   0  0  0  0  0  0  0  0  0  0  0  0
  125.8850  122.8010   57.0680 C   0  0  0  0  0  0  0  0  0  0  0  0
  125.6780  123.2550   58.3720 C   0  0  0  0  0  0  0  0  0  0  0  0
  126.7170  123.8950   59.0520 C   0  0  0  0  0  0  0  0  0  0  0  0
  126.7260  124.4420   60.4220 C   0  0  0  0  0  0  0  0  0  0  0  0
  125.8030  124.4170   61.2360 O   0  0  0  0  0  0  0  0  0  0  0  0
  128.0070  126.5690   61.0920 C   0  0  2  0  0  0  0  0  0  0  0  0
  128.1920  127.6730   60.0530 C   0  0  0  0  0  0  0  0  0  0  0  0
  127.3280  128.0160   59.2440 O   0  0  0  0  0  0  0  0  0  0  0  0
  129.4590  128.1590   60.1850 N   0  0  0  0  0  0  0  0  0  0  0  0
  130.0200  129.0960   59.2990 C   0  0  0  0  0  0  0  0  0  0  0  0
  129.3800  129.3900   58.0870 C   0  0  0  0  0  0  0  0  0  0  0  0
  129.9330  130.3230   57.2120 C   0  0  0  0  0  0  0  0  0  0  0  0
  131.1260  130.9730   57.5360 C   0  0  0  0  0  0  0  0  0  0  0  0
  131.7770  132.1260   56.4230 Cl  0  0  0  0  0  0  0  0  0  0  0  0
  131.7720  130.6830   58.7460 C   0  0  0  0  0  0  0  0  0  0  0  0
  133.2520  131.4620   59.1850 Cl  0  0  0  0  0  0  0  0  0  0  0  0
  131.2170  129.7480   59.6220 C   0  0  0  0  0  0  0  0  0  0  0  0
  128.9456  127.2799   62.9632 H   0  0  0  0  0  0  0  0  0  0  0  0
  130.6806  125.2023   62.0991 H   0  0  0  0  0  0  0  0  0  0  0  0
  130.0566  122.9701   63.6948 H   0  0  0  0  0  0  0  0  0  0  0  0
  130.1675  122.5595   66.1498 H   0  0  0  0  0  0  0  0  0  0  0  0
  129.8659  124.4498   67.7495 H   0  0  0  0  0  0  0  0  0  0  0  0
  129.3446  127.1723   64.4366 H   0  0  0  0  0  0  0  0  0  0  0  0
  129.1415  123.7564   56.6481 H   0  0  0  0  0  0  0  0  0  0  0  0
  127.2834  122.6208   55.4228 H   0  0  0  0  0  0  0  0  0  0  0  0
  125.0695  122.3002   56.5257 H   0  0  0  0  0  0  0  0  0  0  0  0
  124.7033  123.1097   58.8607 H   0  0  0  0  0  0  0  0  0  0  0  0
  126.9817  126.6745   61.4763 H   0  0  0  0  0  0  0  0  0  0  0  0
  128.4393  128.8831   57.8261 H   0  0  0  0  0  0  0  0  0  0  0  0
  129.4275  130.5487   56.2615 H   0  0  0  0  0  0  0  0  0  0  0  0
  131.7231  129.5219   60.5721 H   0  0  0  0  0  0  0  0  0  0  0  0
  1  2  2  0
  2  3  1  0
  3  4  1  0
  4  5  1  0
  5  6  2  0
  6  7  1  0
  7  8  2  0
  8  9  1  0
  9 10  1  0
  9 11  2  0
  4 12  1  0
 12 13  1  0
 13 14  1  0
 14 15  2  0
 14 16  1  0
 16 17  2  0
 17 18  1  0
 18 19  2  0
 19 20  1  0
 20 21  2  0
 21 22  1  0
 22 23  2  0
 13 24  1  0
 24 25  1  0
 25 26  2  0
 25 27  1  0
 27 28  1  0
 28 29  2  0
 29 30  1  0
 30 31  2  0
 31 32  1  0
 31 33  1  0
 33 34  1  0
 33 35  2  0
 27  2  1  0
 35 28  1  0
 24  3  1  0
 11  5  1  0
 22 13  1  0
 21 16  1  0
  3 36  1  1
  4 37  1  6
  6 38  1  0
  7 39  1  0
  8 40  1  0
 11 41  1  0
 17 42  1  0
 18 43  1  0
 19 44  1  0
 20 45  1  0
 24 46  1  1
 29 47  1  0
 30 48  1  0
 35 49  1  0
M  END
>  <Binding energies>  (1) 
[-7.81]

>  <Ligand effiencies>  (1) 
[-0.22314285714285714]

>  <Interactions>  (1) 
["V-B:PRO:540:CA:9855, V-B:GLU:543:CB:9878, V-A:ILE:538:CB:4862, V-B:TYR:539:CE2:9848, V-A:TYR:484:CE2:4346, V-B:GLU:543:CG:9879, V-A:ASP:366:CG:3213, V-A:ILE:538:CG2:4863, V-A:LEU:363:CB:3187, V-A:LEU:363:CD1:3189, V-B:TYR:539:CZ:9849, V-A:GLU:543:CD:4908, V-B:PRO:540:CB:9857, V-A:TYR:484:CZ:4347, V-B:GLU:543:CA:9876, V-B:PRO:540:N:9856, V-A:HIS:456:CE1:4070, V-B:TYR:539:CD2:9846, V-B:PRO:540:CD:9859, V-A:MET:535:CE:4835, V-B:GLU:543:CD:9880, H-A:ARG:545:NH2:4928, V-B:TYR:539:CD1:9845, V-A:PRO:540:CB:4885, V-A:LEU:363:CA:3185, V-B:TYR:539:CE1:9847"]

$$$$
ZINC183050388
     RDKit          3D

 47 49  0  0  0  0  0  0  0  0999 V2000
  130.6060  128.0630   71.4660 C   0  0  0  0  0  0  0  0  0  0  0  0
  129.4680  127.8840   70.4410 C   0  0  0  0  0  0  0  0  0  0  0  0
  128.3690  126.9640   71.0060 C   0  0  0  0  0  0  0  0  0  0  0  0
  129.9680  127.3710   69.0690 C   0  0  0  0  0  0  0  0  0  0  0  0
  129.0480  126.3240   68.4030 C   0  0  0  0  0  0  0  0  0  0  0  0
  129.4550  126.0670   67.0260 N   0  0  0  0  0  0  0  0  0  0  0  0
  129.0930  126.7650   65.9050 C   0  0  0  0  0  0  0  0  0  0  0  0
  129.7940  126.1710   64.8740 C   0  0  0  0  0  0  0  0  0  0  0  0
  130.5530  125.1450   65.4640 C   0  0  0  0  0  0  0  0  0  0  0  0
  131.4250  124.2590   64.8830 N   0  0  0  0  0  0  0  0  0  0  0  0
  132.2340  124.4620   63.6820 C   0  0  1  0  0  0  0  0  0  0  0  0
  133.6780  124.8450   64.0440 C   0  0  0  0  0  0  0  0  0  0  0  0
  132.2110  123.2510   62.7430 C   0  0  0  0  0  0  0  0  0  0  0  0
  133.4170  122.6590   62.3650 C   0  0  0  0  0  0  0  0  0  0  0  0
  133.4220  121.5530   61.5180 C   0  0  0  0  0  0  0  0  0  0  0  0
  132.2140  121.0260   61.0490 C   0  0  0  0  0  0  0  0  0  0  0  0
  132.2280  119.9040   60.1870 N   0  0  0  0  0  0  0  0  0  0  0  0
  131.3610  118.8360   60.1360 C   0  0  0  0  0  0  0  0  0  0  0  0
  131.7050  117.9930   59.1960 N   0  0  0  0  0  0  0  0  0  0  0  0
  132.8450  118.5420   58.6180 N   0  0  0  0  0  0  0  0  0  0  0  0
  133.1670  119.7330   59.2430 N   0  0  0  0  0  0  0  0  0  0  0  0
  131.0020  121.6120   61.4360 C   0  0  0  0  0  0  0  0  0  0  0  0
  131.0020  122.7180   62.2800 C   0  0  0  0  0  0  0  0  0  0  0  0
  130.3480  125.1000   66.7630 N   0  0  0  0  0  0  0  0  0  0  0  0
  130.1956  127.9984   72.4845 H   0  0  0  0  0  0  0  0  0  0  0  0
  131.3567  127.2719   71.3223 H   0  0  0  0  0  0  0  0  0  0  0  0
  131.0776  129.0464   71.3223 H   0  0  0  0  0  0  0  0  0  0  0  0
  129.0410  128.8820   70.2629 H   0  0  0  0  0  0  0  0  0  0  0  0
  128.3991  126.9892   72.1053 H   0  0  0  0  0  0  0  0  0  0  0  0
  127.3851  127.3117   70.6581 H   0  0  0  0  0  0  0  0  0  0  0  0
  128.5381  125.9343   70.6581 H   0  0  0  0  0  0  0  0  0  0  0  0
  130.0552  128.2327   68.3909 H   0  0  0  0  0  0  0  0  0  0  0  0
  130.9298  126.8702   69.2537 H   0  0  0  0  0  0  0  0  0  0  0  0
  129.0998  125.3853   68.9740 H   0  0  0  0  0  0  0  0  0  0  0  0
  128.0203  126.7162   68.3960 H   0  0  0  0  0  0  0  0  0  0  0  0
  128.3960  127.6135   65.8399 H   0  0  0  0  0  0  0  0  0  0  0  0
  129.7646  126.4446   63.8090 H   0  0  0  0  0  0  0  0  0  0  0  0
  131.7660  123.4890   65.4400 H   0  0  0  0  0  0  0  0  0  0  0  0
  131.7768  125.2996   63.1348 H   0  0  0  0  0  0  0  0  0  0  0  0
  133.7864  124.8737   65.1383 H   0  0  0  0  0  0  0  0  0  0  0  0
  134.3707  124.0995   63.6264 H   0  0  0  0  0  0  0  0  0  0  0  0
  133.9102  125.8358   63.6264 H   0  0  0  0  0  0  0  0  0  0  0  0
  134.3679  123.0676   62.7376 H   0  0  0  0  0  0  0  0  0  0  0  0
  134.3757  121.0942   61.2180 H   0  0  0  0  0  0  0  0  0  0  0  0
  130.4925  118.7079   60.7988 H   0  0  0  0  0  0  0  0  0  0  0  0
  130.0501  121.1976   61.0725 H   0  0  0  0  0  0  0  0  0  0  0  0
  130.0490  123.1752   62.5845 H   0  0  0  0  0  0  0  0  0  0  0  0
  1  2  1  0
  2  3  1  0
  2  4  1  0
  4  5  1  0
  5  6  1  0
  6  7  1  0
  7  8  2  0
  8  9  1  0
  9 10  1  0
 10 11  1  0
 11 12  1  0
 11 13  1  0
 13 14  2  0
 14 15  1  0
 15 16  2  0
 16 17  1  0
 17 18  1  0
 18 19  2  0
 19 20  1  0
 20 21  2  0
 16 22  1  0
 22 23  2  0
  9 24  2  0
 24  6  1  0
 23 13  1  0
 21 17  1  0
  1 25  1  0
  1 26  1  0
  1 27  1  0
  2 28  1  0
  3 29  1  0
  3 30  1  0
  3 31  1  0
  4 32  1  0
  4 33  1  0
  5 34  1  0
  5 35  1  0
  7 36  1  0
  8 37  1  0
 10 38  1  0
 11 39  1  6
 12 40  1  0
 12 41  1  0
 12 42  1  0
 14 43  1  0
 15 44  1  0
 18 45  1  0
 22 46  1  0
 23 47  1  0
M  END
>  <Binding energies>  (1) 
[-7.36]

>  <Ligand effiencies>  (1) 
[-0.2944]

>  <Interactions>  (1) 
["V-A:ILE:369:CG2:3237, V-A:GLY:454:CA:4049, V-B:GLU:543:C:9874, V-A:GLU:543:C:4902, V-B:GLU:543:CB:9878, V-B:TYR:539:CE2:9848, V-B:GLU:543:CG:9879, V-A:GLY:544:C:4912, V-B:TYR:539:CB:9843, V-A:GLU:543:CD:4908, V-A:TYR:484:CZ:4347, V-B:HIS:456:CE1:9041, V-B:GLU:543:CA:9876, V-A:HIS:456:CE1:4070, V-B:TYR:539:CD2:9846, V-A:SER:385:CB:3409, H-A:SER:385:OG:3410, V-B:GLU:543:CD:9880, V-A:LEU:475:CD2:4259, V-A:ARG:545:CZ:4926, V-B:TYR:539:CG:9844, V-A:GLU:543:CB:4906, H-A:HIS:383:HE2:3395, V-A:HIS:383:NE2:3394, H-A:TYR:484:OH:4348"]

$$$$
ZINC18323503
     RDKit          3D

 34 36  0  0  0  0  0  0  0  0999 V2000
  133.9230  120.2020   60.1840 O   0  0  0  0  0  0  0  0  0  0  0  0
  133.2140  121.0360   60.7460 C   0  0  0  0  0  0  0  0  0  0  0  0
  133.6600  121.9900   61.5720 N   0  0  0  0  0  0  0  0  0  0  0  0
  132.8320  122.8600   62.1860 C   0  0  0  0  0  0  0  0  0  0  0  0
  133.1710  123.8110   62.9760 N   0  0  0  0  0  0  0  0  0  0  0  0
  132.2260  124.5280   63.4510 N   0  0  0  0  0  0  0  0  0  0  0  0
  132.2070  124.5480   64.7270 C   0  0  0  0  0  0  0  0  0  0  0  0
  131.2200  125.3050   65.5120 C   0  0  0  0  0  0  0  0  0  0  0  0
  130.1170  125.8660   64.8560 C   0  0  0  0  0  0  0  0  0  0  0  0
  129.1580  126.5830   65.5680 C   0  0  0  0  0  0  0  0  0  0  0  0
  129.2960  126.7460   66.9430 C   0  0  0  0  0  0  0  0  0  0  0  0
  127.9850  127.7230   67.9180 Br  0  0  0  0  0  0  0  0  0  0  0  0
  130.3880  126.1990   67.6120 C   0  0  0  0  0  0  0  0  0  0  0  0
  131.3450  125.4810   66.8980 C   0  0  0  0  0  0  0  0  0  0  0  0
  131.1360  122.4200   61.6920 S   0  0  0  0  0  0  0  0  0  0  0  0
  131.7000  121.1240   60.5800 C   0  0  2  0  0  0  0  0  0  0  0  0
  130.9730  119.7950   60.8140 C   0  0  0  0  0  0  0  0  0  0  0  0
  131.3180  118.6850   60.0360 C   0  0  0  0  0  0  0  0  0  0  0  0
  130.6610  117.4700   60.2150 C   0  0  0  0  0  0  0  0  0  0  0  0
  129.6500  117.3670   61.1670 C   0  0  0  0  0  0  0  0  0  0  0  0
  129.2870  118.4670   61.9390 C   0  0  0  0  0  0  0  0  0  0  0  0
  129.9440  119.6820   61.7600 C   0  0  0  0  0  0  0  0  0  0  0  0
  134.6540  122.0640   61.7300 H   0  0  0  0  0  0  0  0  0  0  0  0
  132.9692  123.9684   65.2684 H   0  0  0  0  0  0  0  0  0  0  0  0
  130.0070  125.7393   63.7689 H   0  0  0  0  0  0  0  0  0  0  0  0
  128.2942  127.0190   65.0448 H   0  0  0  0  0  0  0  0  0  0  0  0
  130.4945  126.3331   68.6986 H   0  0  0  0  0  0  0  0  0  0  0  0
  132.2071  125.0479   67.4264 H   0  0  0  0  0  0  0  0  0  0  0  0
  131.4571  121.3664   59.5349 H   0  0  0  0  0  0  0  0  0  0  0  0
  132.1117  118.7720   59.2794 H   0  0  0  0  0  0  0  0  0  0  0  0
  130.9393  116.5963   59.6074 H   0  0  0  0  0  0  0  0  0  0  0  0
  129.1330  116.4067   61.3104 H   0  0  0  0  0  0  0  0  0  0  0  0
  128.4852  118.3771   62.6867 H   0  0  0  0  0  0  0  0  0  0  0  0
  129.6548  120.5557   62.3626 H   0  0  0  0  0  0  0  0  0  0  0  0
  1  2  2  0
  2  3  1  0
  3  4  1  0
  4  5  2  0
  5  6  1  0
  6  7  2  0
  7  8  1  0
  8  9  2  0
  9 10  1  0
 10 11  2  0
 11 12  1  0
 11 13  1  0
 13 14  2  0
  4 15  1  0
 15 16  1  0
 16 17  1  0
 17 18  2  0
 18 19  1  0
 19 20  2  0
 20 21  1  0
 21 22  2  0
 16  2  1  0
 22 17  1  0
 14  8  1  0
  3 23  1  0
  7 24  1  0
  9 25  1  0
 10 26  1  0
 13 27  1  0
 14 28  1  0
 16 29  1  6
 18 30  1  0
 19 31  1  0
 20 32  1  0
 21 33  1  0
 22 34  1  0
M  END
>  <Binding energies>  (1) 
[-7.21]

>  <Ligand effiencies>  (1) 
[-0.3134782608695652]

>  <Interactions>  (1) 
["V-A:ILE:369:CG2:3237, V-B:GLU:543:CB:9878, V-B:ALA:541:CB:9864, V-B:TYR:539:CE2:9848, V-A:LEU:475:CG:4257, V-B:GLU:543:CG:9879, V-B:TYR:539:C:9839, V-A:LEU:475:CD1:4258, V-B:TYR:539:CB:9843, V-A:HIS:383:CE1:3393, V-A:GLU:543:CD:4908, V-A:TYR:484:CZ:4347, V-B:HIS:456:CE1:9041, H-A:GLY:454:N:4050, V-A:ILE:369:CD1:3239, V-A:HIS:456:CE1:4070, V-A:PRO:482:CB:4326, V-B:TYR:539:CD2:9846, V-A:SER:385:CB:3409, H-A:SER:385:OG:3410, V-B:GLU:543:CD:9880, V-A:LEU:475:CD2:4259, V-B:TYR:539:CG:9844, V-A:PRO:482:CG:4327, H-A:SER:385:O:3406, V-B:PRO:540:C:9853, V-B:ALA:541:CA:9862, V-A:HIS:383:NE2:3394"]

$$$$
ZINC18329865-again1
     RDKit          3D

 51 55  0  0  0  0  0  0  0  0999 V2000
  129.5450  124.3470   68.0360 C   0  0  0  0  0  0  0  0  0  0  0  0
  130.1470  125.6850   67.5500 C   0  0  2  0  0  0  0  0  0  0  0  0
  129.0920  127.1410   67.8570 S   0  0  0  0  0  0  0  0  0  0  0  0
  129.7290  127.5910   69.4350 C   0  0  0  0  0  0  0  0  0  0  0  0
  130.9070  128.1370   69.6120 N   0  0  0  0  0  0  0  0  0  0  0  0
  131.0420  128.4160   70.9670 N   0  0  0  0  0  0  0  0  0  0  0  0
  129.9280  128.0470   71.5520 C   0  0  0  0  0  0  0  0  0  0  0  0
  129.6150  128.2180   73.0280 C   0  0  0  0  0  0  0  0  0  0  0  0
  129.8110  129.5780   73.4080 O   0  0  0  0  0  0  0  0  0  0  0  0
  128.7730  130.2840   73.9900 C   0  0  0  0  0  0  0  0  0  0  0  0
  127.6460  129.6810   74.5770 C   0  0  0  0  0  0  0  0  0  0  0  0
  126.6390  130.4600   75.1470 C   0  0  0  0  0  0  0  0  0  0  0  0
  126.7420  131.8490   75.1400 C   0  0  0  0  0  0  0  0  0  0  0  0
  127.8530  132.4600   74.5620 C   0  0  0  0  0  0  0  0  0  0  0  0
  128.8620  131.6830   73.9900 C   0  0  0  0  0  0  0  0  0  0  0  0
  130.2270  132.4780   73.2830 Cl  0  0  0  0  0  0  0  0  0  0  0  0
  129.0440  127.5300   70.6310 N   0  0  0  0  0  0  0  0  0  0  0  0
  127.6810  127.0710   70.8730 C   0  0  0  0  0  0  0  0  0  0  0  0
  130.4960  125.6640   66.0590 C   0  0  0  0  0  0  0  0  0  0  0  0
  129.7350  126.2200   65.1730 N   0  0  0  0  0  0  0  0  0  0  0  0
  130.1490  126.1490   63.8760 C   0  0  0  0  0  0  0  0  0  0  0  0
  129.2430  126.8670   62.5910 S   0  0  0  0  0  0  0  0  0  0  0  0
  130.4300  126.3250   61.4490 C   0  0  0  0  0  0  0  0  0  0  0  0
  131.4810  125.6140   62.0270 C   0  0  0  0  0  0  0  0  0  0  0  0
  132.5650  125.0720   61.2260 C   0  0  0  0  0  0  0  0  0  0  0  0
  133.8600  124.6670   61.5200 C   0  0  0  0  0  0  0  0  0  0  0  0
  134.4430  124.2550   60.3200 C   0  0  0  0  0  0  0  0  0  0  0  0
  133.4830  124.4400   59.3410 C   0  0  0  0  0  0  0  0  0  0  0  0
  132.3480  124.9430   59.8890 O   0  0  0  0  0  0  0  0  0  0  0  0
  131.3230  125.5180   63.4290 C   0  0  0  0  0  0  0  0  0  0  0  0
  132.1960  124.8850   64.4320 C   0  0  0  0  0  0  0  0  0  0  0  0
  133.2650  124.3010   64.2670 O   0  0  0  0  0  0  0  0  0  0  0  0
  131.6660  125.0260   65.6900 N   0  0  0  0  0  0  0  0  0  0  0  0
  129.5360  124.3270   69.1358 H   0  0  0  0  0  0  0  0  0  0  0  0
  128.5162  124.2494   67.6591 H   0  0  0  0  0  0  0  0  0  0  0  0
  130.1543  123.5124   67.6591 H   0  0  0  0  0  0  0  0  0  0  0  0
  131.0599  125.7852   68.1555 H   0  0  0  0  0  0  0  0  0  0  0  0
  128.5690  127.9335   73.2150 H   0  0  0  0  0  0  0  0  0  0  0  0
  130.2847  127.5754   73.6185 H   0  0  0  0  0  0  0  0  0  0  0  0
  127.5579  128.5846   74.5867 H   0  0  0  0  0  0  0  0  0  0  0  0
  125.7623  129.9766   75.6027 H   0  0  0  0  0  0  0  0  0  0  0  0
  125.9477  132.4626   75.5900 H   0  0  0  0  0  0  0  0  0  0  0  0
  127.9352  133.5569   74.5564 H   0  0  0  0  0  0  0  0  0  0  0  0
  127.5014  127.0105   71.9566 H   0  0  0  0  0  0  0  0  0  0  0  0
  126.9701  127.7793   70.4225 H   0  0  0  0  0  0  0  0  0  0  0  0
  127.5434  126.0770   70.4225 H   0  0  0  0  0  0  0  0  0  0  0  0
  130.3603  126.5236   60.3693 H   0  0  0  0  0  0  0  0  0  0  0  0
  134.3368  124.6701   62.5113 H   0  0  0  0  0  0  0  0  0  0  0  0
  135.4610  123.8622   60.1809 H   0  0  0  0  0  0  0  0  0  0  0  0
  133.6199  124.2124   58.2735 H   0  0  0  0  0  0  0  0  0  0  0  0
  132.2220  124.6150   66.4270 H   0  0  0  0  0  0  0  0  0  0  0  0
  1  2  1  0
  2  3  1  0
  3  4  1  0
  4  5  2  0
  5  6  1  0
  6  7  2  0
  7  8  1  0
  8  9  1  0
  9 10  1  0
 10 11  2  0
 11 12  1  0
 12 13  2  0
 13 14  1  0
 14 15  2  0
 15 16  1  0
  7 17  1  0
 17 18  1  0
  2 19  1  0
 19 20  2  0
 20 21  1  0
 21 22  1  0
 22 23  1  0
 23 24  2  0
 24 25  1  0
 25 26  2  0
 26 27  1  0
 27 28  2  0
 28 29  1  0
 24 30  1  0
 30 31  1  0
 31 32  2  0
 31 33  1  0
 17  4  1  0
 33 19  1  0
 15 10  1  0
 30 21  2  0
 29 25  1  0
  1 34  1  0
  1 35  1  0
  1 36  1  0
  2 37  1  1
  8 38  1  0
  8 39  1  0
 11 40  1  0
 12 41  1  0
 13 42  1  0
 14 43  1  0
 18 44  1  0
 18 45  1  0
 18 46  1  0
 23 47  1  0
 26 48  1  0
 27 49  1  0
 28 50  1  0
 33 51  1  0
M  END
>  <Binding energies>  (1) 
[-8.24]

>  <Ligand effiencies>  (1) 
[-0.2423529411764706]

>  <Interactions>  (1) 
["V-A:ILE:369:CG2:3237, V-A:ASP:366:CA:3210, V-B:HIS:456:CD2:9039, V-B:GLU:543:C:9874, V-A:ILE:369:CB:3236, V-A:GLU:543:C:4902, V-B:GLU:543:CB:9878, V-B:HIS:456:CB:9036, V-B:TYR:539:CE2:9848, V-A:TYR:484:CE2:4346, V-A:GLY:544:CA:4914, V-B:GLU:543:CG:9879, V-A:ASP:366:CG:3213, H-A:ARG:545:N:4920, V-A:TYR:484:CZ:4347, V-A:GLU:543:CD:4908, V-B:HIS:456:CE1:9041, H-A:GLY:454:N:4050, V-B:GLU:543:CA:9876, V-A:TYR:484:CD2:4344, V-A:HIS:456:CE1:4070, V-A:ILE:369:CD1:3239, V-B:GLY:544:C:9884, V-B:HIS:456:CG:9037, V-A:ASP:366:CB:3212, H-A:LYS:547:NZ:4951, V-A:ARG:545:CZ:4926, V-A:GLU:543:CB:4906, V-A:LYS:547:CE:4950, V-B:ASP:473:CG:9211, H-A:TYR:484:OH:4348"]

$$$$
ZINC1837503
     RDKit          3D

 29 31  0  0  0  0  0  0  0  0999 V2000
  128.8360  127.4830   68.7510 C   0  0  0  0  0  0  0  0  0  0  0  0
  129.0430  126.8890   67.5630 C   0  0  0  0  0  0  0  0  0  0  0  0
  130.1300  125.8760   67.2470 C   0  0  0  0  0  0  0  0  0  0  0  0
  129.8160  125.1050   66.0860 O   0  0  0  0  0  0  0  0  0  0  0  0
  130.8180  124.7720   65.1900 C   0  0  0  0  0  0  0  0  0  0  0  0
  132.1140  125.0920   65.4810 N   0  0  0  0  0  0  0  0  0  0  0  0
  133.0900  124.7700   64.5880 C   0  0  0  0  0  0  0  0  0  0  0  0
  134.3670  125.0950   64.8950 F   0  0  0  0  0  0  0  0  0  0  0  0
  132.8180  124.1280   63.3730 C   0  0  0  0  0  0  0  0  0  0  0  0
  134.0880  123.7600   62.2580 Cl  0  0  0  0  0  0  0  0  0  0  0  0
  131.4900  123.8050   63.0840 C   0  0  0  0  0  0  0  0  0  0  0  0
  130.4800  124.1140   64.0070 C   0  0  0  0  0  0  0  0  0  0  0  0
  129.1590  123.8320   63.7160 O   0  0  0  0  0  0  0  0  0  0  0  0
  128.8430  123.6340   62.3860 C   0  0  0  0  0  0  0  0  0  0  0  0
  127.5350  123.8380   61.9550 C   0  0  0  0  0  0  0  0  0  0  0  0
  127.2260  123.7030   60.5980 C   0  0  0  0  0  0  0  0  0  0  0  0
  125.4240  123.9740   60.0380 Br  0  0  0  0  0  0  0  0  0  0  0  0
  128.2350  123.3840   59.6750 C   0  0  0  0  0  0  0  0  0  0  0  0
  127.8520  123.2090   57.8150 Br  0  0  0  0  0  0  0  0  0  0  0  0
  129.5520  123.2020   60.1090 C   0  0  0  0  0  0  0  0  0  0  0  0
  129.8510  123.3160   61.4640 C   0  0  0  0  0  0  0  0  0  0  0  0
  131.1650  123.2110   61.8780 O   0  0  0  0  0  0  0  0  0  0  0  0
  128.0149  128.2053   68.8691 H   0  0  0  0  0  0  0  0  0  0  0  0
  129.4878  127.2467   69.6050 H   0  0  0  0  0  0  0  0  0  0  0  0
  128.3619  127.1619   66.7434 H   0  0  0  0  0  0  0  0  0  0  0  0
  131.0756  126.4108   67.0741 H   0  0  0  0  0  0  0  0  0  0  0  0
  130.2149  125.1882   68.1013 H   0  0  0  0  0  0  0  0  0  0  0  0
  126.7494  124.1038   62.6776 H   0  0  0  0  0  0  0  0  0  0  0  0
  130.3465  122.9703   59.3844 H   0  0  0  0  0  0  0  0  0  0  0  0
  1  2  2  0
  2  3  1  0
  3  4  1  0
  4  5  1  0
  5  6  2  0
  6  7  1  0
  7  8  1  0
  7  9  2  0
  9 10  1  0
  9 11  1  0
 11 12  2  0
 12 13  1  0
 13 14  1  0
 14 15  2  0
 15 16  1  0
 16 17  1  0
 16 18  2  0
 18 19  1  0
 18 20  1  0
 20 21  2  0
 21 22  1  0
 12  5  1  0
 21 14  1  0
 22 11  1  0
  1 23  1  0
  1 24  1  0
  2 25  1  0
  3 26  1  0
  3 27  1  0
 15 28  1  0
 20 29  1  0
M  END
>  <Binding energies>  (1) 
[-5.69]

>  <Ligand effiencies>  (1) 
[-0.25863636363636366]

>  <Interactions>  (1) 
["V-A:HIS:456:CE1:4070, V-B:PRO:540:CA:9855, V-A:GLY:453:CA:4044, V-A:GLY:454:CA:4049, V-A:ILE:369:CD1:3239, V-B:TYR:539:CZ:9849, V-B:GLU:543:CB:9878, V-B:TYR:539:CD2:9846, V-A:ARG:545:CZ:4926, V-B:GLU:543:CD:9880, V-B:TYR:539:CE2:9848, V-B:PRO:540:CB:9857, V-A:ARG:545:CD:4923, V-B:GLU:543:CG:9879, V-B:HIS:456:CE1:9041, V-A:GLY:453:C:4042, H-A:TYR:484:OH:4348"]

$$$$
ZINC1847056497
     RDKit          3D

 45 48  0  0  0  0  0  0  0  0999 V2000
  132.8210  124.0660   58.5270 O   0  0  0  0  0  0  0  0  0  0  0  0
  132.0160  124.6790   59.2300 C   0  0  0  0  0  0  0  0  0  0  0  0
  131.2760  125.8680   58.6580 C   0  0  0  0  0  0  0  0  0  0  0  0
  130.1270  125.6580   57.8830 C   0  0  0  0  0  0  0  0  0  0  0  0
  129.4270  126.7300   57.3280 C   0  0  0  0  0  0  0  0  0  0  0  0
  128.0060  126.3970   56.3970 Cl  0  0  0  0  0  0  0  0  0  0  0  0
  129.8770  128.0400   57.5290 C   0  0  0  0  0  0  0  0  0  0  0  0
  129.0130  129.3790   56.8410 Cl  0  0  0  0  0  0  0  0  0  0  0  0
  131.0370  128.2620   58.2820 C   0  0  0  0  0  0  0  0  0  0  0  0
  131.6510  129.8580   58.5450 Cl  0  0  0  0  0  0  0  0  0  0  0  0
  131.7280  127.1820   58.8350 C   0  0  0  0  0  0  0  0  0  0  0  0
  131.7620  124.2910   60.4990 N   0  0  0  0  0  0  0  0  0  0  0  0
  130.7010  124.6320   61.4870 C   0  0  0  0  0  0  0  0  0  0  0  0
  131.1900  123.4060   62.2900 C   0  0  0  0  0  0  0  0  0  0  0  0
  131.6350  123.7180   63.7270 C   0  0  0  0  0  0  0  0  0  0  0  0
  130.4270  123.3740   64.5750 C   0  0  0  0  0  0  0  0  0  0  0  0
  129.8670  122.1220   63.9110 C   0  0  0  0  0  0  0  0  0  0  0  0
  130.1830  122.3280   62.4880 N   0  0  0  0  0  0  0  0  0  0  0  0
  129.5620  121.6340   61.4970 C   0  0  0  0  0  0  0  0  0  0  0  0
  129.1880  120.4670   61.6450 O   0  0  0  0  0  0  0  0  0  0  0  0
  129.3140  122.3590   60.1450 C   0  0  0  0  0  0  0  0  0  0  0  0
  127.9240  122.8820   60.0280 N   0  0  0  0  0  0  0  0  0  0  0  0
  127.2010  123.1330   61.1410 C   0  0  0  0  0  0  0  0  0  0  0  0
  127.5680  122.9830   62.3070 O   0  0  0  0  0  0  0  0  0  0  0  0
  125.8250  123.6490   60.7740 C   0  0  0  0  0  0  0  0  0  0  0  0
  125.6860  123.7110   58.9840 S   0  0  0  0  0  0  0  0  0  0  0  0
  127.3290  123.1020   58.8100 C   0  0  0  0  0  0  0  0  0  0  0  0
  127.9300  122.8840   57.2680 S   0  0  0  0  0  0  0  0  0  0  0  0
  132.3460  123.1780   61.2910 C   0  0  0  0  0  0  0  0  0  0  0  0
  129.7714  124.6316   57.7095 H   0  0  0  0  0  0  0  0  0  0  0  0
  132.6419  127.3660   59.4189 H   0  0  0  0  0  0  0  0  0  0  0  0
  130.8335  125.5996   61.9931 H   0  0  0  0  0  0  0  0  0  0  0  0
  129.6480  124.7628   61.1971 H   0  0  0  0  0  0  0  0  0  0  0  0
  132.4992  123.0994   64.0105 H   0  0  0  0  0  0  0  0  0  0  0  0
  131.9523  124.7639   63.8514 H   0  0  0  0  0  0  0  0  0  0  0  0
  130.7226  123.1684   65.6144 H   0  0  0  0  0  0  0  0  0  0  0  0
  129.6949  124.1933   64.6278 H   0  0  0  0  0  0  0  0  0  0  0  0
  130.3583  121.2169   64.2974 H   0  0  0  0  0  0  0  0  0  0  0  0
  128.7928  121.9772   64.0985 H   0  0  0  0  0  0  0  0  0  0  0  0
  130.0166  123.2013   60.0617 H   0  0  0  0  0  0  0  0  0  0  0  0
  129.4658  121.6264   59.3386 H   0  0  0  0  0  0  0  0  0  0  0  0
  125.0570  122.9748   61.1810 H   0  0  0  0  0  0  0  0  0  0  0  0
  125.6795  124.6550   61.1945 H   0  0  0  0  0  0  0  0  0  0  0  0
  133.3506  123.3745   61.6937 H   0  0  0  0  0  0  0  0  0  0  0  0
  132.5552  122.1917   60.8511 H   0  0  0  0  0  0  0  0  0  0  0  0
  1  2  2  0
  2  3  1  0
  3  4  2  0
  4  5  1  0
  5  6  1  0
  5  7  2  0
  7  8  1  0
  7  9  1  0
  9 10  1  0
  9 11  2  0
  2 12  1  0
 12 13  1  0
 13 14  1  0
 14 15  1  0
 15 16  1  0
 16 17  1  0
 17 18  1  0
 18 19  1  0
 19 20  2  0
 19 21  1  0
 21 22  1  0
 22 23  1  0
 23 24  2  0
 23 25  1  0
 25 26  1  0
 26 27  1  0
 27 28  2  0
 14 29  1  0
 11  3  1  0
 29 12  1  0
 18 14  1  0
 27 22  1  0
  4 30  1  0
 11 31  1  0
 13 32  1  0
 13 33  1  0
 15 34  1  0
 15 35  1  0
 16 36  1  0
 16 37  1  0
 17 38  1  0
 17 39  1  0
 21 40  1  0
 21 41  1  0
 25 42  1  0
 25 43  1  0
 29 44  1  0
 29 45  1  0
M  END
>  <Binding energies>  (1) 
[-7.49]

>  <Ligand effiencies>  (1) 
[-0.2582758620689655]

>  <Interactions>  (1) 
["V-B:PRO:540:CA:9855, V-B:ALA:541:CB:9864, V-B:TYR:539:CE2:9848, V-A:TYR:484:CE2:4346, V-B:TYR:539:C:9839, V-A:ASP:366:CG:3213, V-B:TYR:539:CZ:9849, H-B:TYR:539:OH:9850, H-B:ALA:541:N:9863, V-B:PRO:540:CB:9857, V-B:PRO:540:N:9856, V-B:TYR:539:CD2:9846, V-A:MET:535:CE:4835, V-A:ASP:366:CB:3212, V-A:LEU:475:CD2:4259, V-B:TYR:539:CG:9844, V-B:TYR:539:CD1:9845, V-B:PRO:540:C:9853, V-B:TYR:539:CE1:9847"]

$$$$
ZINC1848436866
     RDKit          3D

123127  0  0  0  0  0  0  0  0999 V2000
  131.6010  126.0580   67.5050 C   0  0  0  0  0  0  0  0  0  0  0  0
  131.6110  125.2730   66.1790 C   0  0  2  0  0  0  0  0  0  0  0  0
  132.5430  125.9270   65.3350 O   0  0  0  0  0  0  0  0  0  0  0  0
  130.2070  125.0880   65.4960 C   0  0  2  0  0  0  0  0  0  0  0  0
  129.4050  126.3170   65.5430 N   0  0  0  0  0  0  0  0  0  0  0  0
  128.9570  127.1850   64.6070 C   0  0  0  0  0  0  0  0  0  0  0  0
  128.4790  128.2490   64.9920 O   0  0  0  0  0  0  0  0  0  0  0  0
  129.0780  126.9800   63.0620 C   0  0  1  0  0  0  0  0  0  0  0  0
  130.0950  125.9470   62.5210 C   0  0  0  0  0  0  0  0  0  0  0  0
  131.4610  126.5200   62.0800 C   0  0  0  0  0  0  0  0  0  0  0  0
  132.6630  125.5880   62.3310 C   0  0  0  0  0  0  0  0  0  0  0  0
  132.3490  124.3260   63.1640 C   0  0  0  0  0  0  0  0  0  0  0  0
  133.4140  123.9950   64.1280 N   0  0  0  0  0  0  0  0  0  0  0  0
  127.8060  126.7340   62.3520 N   0  0  0  0  0  0  0  0  0  0  0  0
  126.8830  127.5400   61.7710 C   0  0  0  0  0  0  0  0  0  0  0  0
  125.7340  127.1290   61.6190 O   0  0  0  0  0  0  0  0  0  0  0  0
  127.2250  128.9360   61.1880 C   0  0  1  0  0  0  0  0  0  0  0  0
  128.6820  129.3960   61.4560 C   0  0  0  0  0  0  0  0  0  0  0  0
  129.1410  130.5910   60.6680 C   0  0  0  0  0  0  0  0  0  0  0  0
  128.6040  131.8310   60.7210 C   0  0  0  0  0  0  0  0  0  0  0  0
  129.3010  132.6760   59.8840 N   0  0  0  0  0  0  0  0  0  0  0  0
  130.3370  132.0230   59.2480 C   0  0  0  0  0  0  0  0  0  0  0  0
  131.3140  132.4350   58.3250 C   0  0  0  0  0  0  0  0  0  0  0  0
  132.2570  131.5000   57.8610 C   0  0  0  0  0  0  0  0  0  0  0  0
  132.2120  130.1700   58.3230 C   0  0  0  0  0  0  0  0  0  0  0  0
  131.2260  129.7680   59.2470 C   0  0  0  0  0  0  0  0  0  0  0  0
  130.2610  130.6820   59.7340 C   0  0  0  0  0  0  0  0  0  0  0  0
  126.8160  129.2280   59.8120 N   0  0  0  0  0  0  0  0  0  0  0  0
  126.9030  128.5370   58.6570 C   0  0  0  0  0  0  0  0  0  0  0  0
  126.6740  129.1220   57.6110 O   0  0  0  0  0  0  0  0  0  0  0  0
  127.3060  127.0430   58.6040 C   0  0  2  0  0  0  0  0  0  0  0  0
  127.2660  126.4240   57.1840 C   0  0  0  0  0  0  0  0  0  0  0  0
  126.9510  124.9390   57.1540 C   0  0  0  0  0  0  0  0  0  0  0  0
  127.9760  123.9960   56.9220 C   0  0  0  0  0  0  0  0  0  0  0  0
  127.6980  122.6370   56.9900 C   0  0  0  0  0  0  0  0  0  0  0  0
  126.4200  122.1990   57.3130 C   0  0  0  0  0  0  0  0  0  0  0  0
  125.4110  123.1150   57.5800 C   0  0  0  0  0  0  0  0  0  0  0  0
  125.6670  124.4780   57.5170 C   0  0  0  0  0  0  0  0  0  0  0  0
  126.7170  126.1520   59.6220 N   0  0  0  0  0  0  0  0  0  0  0  0
  127.0790  125.0770   60.3720 C   0  0  0  0  0  0  0  0  0  0  0  0
  126.2660  124.6460   61.1890 O   0  0  0  0  0  0  0  0  0  0  0  0
  128.4200  124.2900   60.3200 C   0  0  2  0  0  0  0  0  0  0  0  0
  129.4880  124.8920   59.5430 N   0  0  0  0  0  0  0  0  0  0  0  0
  129.8430  126.1860   59.5410 C   0  0  0  0  0  0  0  0  0  0  0  0
  129.2330  127.0670   60.1560 O   0  0  0  0  0  0  0  0  0  0  0  0
  131.0890  126.5100   58.6810 C   0  0  2  0  0  0  0  0  0  0  0  0
  130.6470  127.4770   57.6170 N   0  0  0  0  0  0  0  0  0  0  0  0
  131.7610  125.2340   58.1160 C   0  0  0  0  0  0  0  0  0  0  0  0
  132.6480  124.4840   59.0970 C   0  0  0  0  0  0  0  0  0  0  0  0
  132.2970  123.1900   59.5390 C   0  0  0  0  0  0  0  0  0  0  0  0
  133.1580  122.4820   60.3680 C   0  0  0  0  0  0  0  0  0  0  0  0
  134.3780  123.0310   60.7430 C   0  0  0  0  0  0  0  0  0  0  0  0
  134.7540  124.2870   60.2840 C   0  0  0  0  0  0  0  0  0  0  0  0
  133.9070  125.0120   59.4550 C   0  0  0  0  0  0  0  0  0  0  0  0
  128.2120  122.8240   59.8490 C   0  0  0  0  0  0  0  0  0  0  0  0
  129.4300  121.6530   60.5020 S   0  0  0  0  0  0  0  0  0  0  0  0
  130.6060  122.6030   61.8640 S   0  0  0  0  0  0  0  0  0  0  0  0
  130.1420  121.9420   63.4970 C   0  0  0  0  0  0  0  0  0  0  0  0
  128.8380  122.4120   64.2290 C   0  0  2  0  0  0  0  0  0  0  0  0
  127.7590  123.1480   63.3350 C   0  0  0  0  0  0  0  0  0  0  0  0
  128.0980  124.2850   62.9260 O   0  0  0  0  0  0  0  0  0  0  0  0
  126.7570  122.4770   62.9980 O   0  0  0  0  0  0  0  0  0  0  0  0
  129.0310  122.8330   65.6390 N   0  0  0  0  0  0  0  0  0  0  0  0
  129.4380  123.9700   66.2490 C   0  0  0  0  0  0  0  0  0  0  0  0
  129.2200  124.1250   67.4490 O   0  0  0  0  0  0  0  0  0  0  0  0
  131.6100  125.3524   68.3489 H   0  0  0  0  0  0  0  0  0  0  0  0
  132.4910  126.7024   67.5563 H   0  0  0  0  0  0  0  0  0  0  0  0
  130.6949  126.6795   67.5563 H   0  0  0  0  0  0  0  0  0  0  0  0
  131.9057  124.2335   66.3854 H   0  0  0  0  0  0  0  0  0  0  0  0
  132.1520  126.7460   65.0230 H   0  0  0  0  0  0  0  0  0  0  0  0
  130.3721  124.8280   64.4400 H   0  0  0  0  0  0  0  0  0  0  0  0
  129.2210  126.5940   66.4970 H   0  0  0  0  0  0  0  0  0  0  0  0
  129.4778  127.9798   62.8371 H   0  0  0  0  0  0  0  0  0  0  0  0
  130.2789  125.2066   63.3135 H   0  0  0  0  0  0  0  0  0  0  0  0
  129.6396  125.5245   61.6132 H   0  0  0  0  0  0  0  0  0  0  0  0
  131.4114  126.7321   61.0018 H   0  0  0  0  0  0  0  0  0  0  0  0
  131.6323  127.4186   62.6909 H   0  0  0  0  0  0  0  0  0  0  0  0
  133.0530  125.2640   61.3548 H   0  0  0  0  0  0  0  0  0  0  0  0
  133.3865  126.1718   62.9191 H   0  0  0  0  0  0  0  0  0  0  0  0
  131.4140  124.4951   63.7183 H   0  0  0  0  0  0  0  0  0  0  0  0
  132.2632  123.4816   62.4642 H   0  0  0  0  0  0  0  0  0  0  0  0
  134.0410  124.7830   64.2210 H   0  0  0  0  0  0  0  0  0  0  0  0
  133.9300  123.1920   63.7980 H   0  0  0  0  0  0  0  0  0  0  0  0
  133.0030  123.7850   65.0260 H   0  0  0  0  0  0  0  0  0  0  0  0
  127.4780  125.7940   62.5180 H   0  0  0  0  0  0  0  0  0  0  0  0
  126.5474  129.5591   61.7902 H   0  0  0  0  0  0  0  0  0  0  0  0
  128.7681  129.6419   62.5247 H   0  0  0  0  0  0  0  0  0  0  0  0
  129.3243  128.5614   61.1386 H   0  0  0  0  0  0  0  0  0  0  0  0
  127.7414  132.1215   61.3387 H   0  0  0  0  0  0  0  0  0  0  0  0
  129.0620  133.6490   59.7690 H   0  0  0  0  0  0  0  0  0  0  0  0
  131.3408  133.4758   57.9700 H   0  0  0  0  0  0  0  0  0  0  0  0
  133.0280  131.8068   57.1389 H   0  0  0  0  0  0  0  0  0  0  0  0
  132.9510  129.4403   57.9604 H   0  0  0  0  0  0  0  0  0  0  0  0
  131.2062  128.7250   59.5959 H   0  0  0  0  0  0  0  0  0  0  0  0
  126.4970  130.1810   59.7100 H   0  0  0  0  0  0  0  0  0  0  0  0
  128.3636  127.1023   58.9007 H   0  0  0  0  0  0  0  0  0  0  0  0
  126.4960  126.9506   56.6011 H   0  0  0  0  0  0  0  0  0  0  0  0
  128.2761  126.5384   56.7639 H   0  0  0  0  0  0  0  0  0  0  0  0
  128.9949  124.3378   56.6874 H   0  0  0  0  0  0  0  0  0  0  0  0
  128.4931  121.9044   56.7872 H   0  0  0  0  0  0  0  0  0  0  0  0
  126.2061  121.1209   57.3575 H   0  0  0  0  0  0  0  0  0  0  0  0
  124.4040  122.7588   57.8427 H   0  0  0  0  0  0  0  0  0  0  0  0
  124.8694  125.1988   57.7499 H   0  0  0  0  0  0  0  0  0  0  0  0
  125.7810  126.4630   59.8330 H   0  0  0  0  0  0  0  0  0  0  0  0
  128.7580  124.3197   61.3664 H   0  0  0  0  0  0  0  0  0  0  0  0
  130.0520  124.2370   59.0180 H   0  0  0  0  0  0  0  0  0  0  0  0
  131.8770  126.9726   59.2935 H   0  0  0  0  0  0  0  0  0  0  0  0
  130.4340  126.9610   56.7730 H   0  0  0  0  0  0  0  0  0  0  0  0
  131.3920  128.1370   57.4430 H   0  0  0  0  0  0  0  0  0  0  0  0
  129.8240  127.9650   57.9390 H   0  0  0  0  0  0  0  0  0  0  0  0
  130.9669  124.5497   57.7827 H   0  0  0  0  0  0  0  0  0  0  0  0
  132.4201  125.5697   57.3019 H   0  0  0  0  0  0  0  0  0  0  0  0
  131.3418  122.7424   59.2270 H   0  0  0  0  0  0  0  0  0  0  0  0
  132.8728  121.4828   60.7290 H   0  0  0  0  0  0  0  0  0  0  0  0
  135.0500  122.4678   61.4072 H   0  0  0  0  0  0  0  0  0  0  0  0
  135.7262  124.7093   60.5781 H   0  0  0  0  0  0  0  0  0  0  0  0
  134.2176  125.9975   59.0777 H   0  0  0  0  0  0  0  0  0  0  0  0
  127.2123  122.4970   60.1710 H   0  0  0  0  0  0  0  0  0  0  0  0
  128.3293  122.8243   58.7553 H   0  0  0  0  0  0  0  0  0  0  0  0
  130.0555  120.8519   63.3777 H   0  0  0  0  0  0  0  0  0  0  0  0
  130.9352  122.3391   64.1475 H   0  0  0  0  0  0  0  0  0  0  0  0
  128.2623  121.4898   64.3969 H   0  0  0  0  0  0  0  0  0  0  0  0
  128.6290  122.1570   66.2710 H   0  0  0  0  0  0  0  0  0  0  0  0
  1  2  1  0
  2  3  1  0
  2  4  1  0
  4  5  1  0
  5  6  1  0
  6  7  2  0
  6  8  1  0
  8  9  1  0
  9 10  1  0
 10 11  1  0
 11 12  1  0
 12 13  1  0
  8 14  1  0
 14 15  1  0
 15 16  2  0
 15 17  1  0
 17 18  1  0
 18 19  1  0
 19 20  2  0
 20 21  1  0
 21 22  1  0
 22 23  2  0
 23 24  1  0
 24 25  2  0
 25 26  1  0
 26 27  2  0
 17 28  1  0
 28 29  1  0
 29 30  2  0
 29 31  1  0
 31 32  1  0
 32 33  1  0
 33 34  2  0
 34 35  1  0
 35 36  2  0
 36 37  1  0
 37 38  2  0
 31 39  1  0
 39 40  1  0
 40 41  2  0
 40 42  1  0
 42 43  1  0
 43 44  1  0
 44 45  2  0
 44 46  1  0
 46 47  1  0
 46 48  1  0
 48 49  1  0
 49 50  2  0
 50 51  1  0
 51 52  2  0
 52 53  1  0
 53 54  2  0
 42 55  1  0
 55 56  1  0
 56 57  1  0
 57 58  1  0
 58 59  1  0
 59 60  1  0
 60 61  2  0
 60 62  1  0
 59 63  1  0
 63 64  1  0
 64 65  2  0
 64  4  1  0
 27 19  1  0
 38 33  1  0
 54 49  1  0
 27 22  1  0
  1 66  1  0
  1 67  1  0
  1 68  1  0
  2 69  1  1
  3 70  1  0
  4 71  1  6
  5 72  1  0
  8 73  1  6
  9 74  1  0
  9 75  1  0
 10 76  1  0
 10 77  1  0
 11 78  1  0
 11 79  1  0
 12 80  1  0
 12 81  1  0
 13 82  1  0
 13 83  1  0
 13 84  1  0
 14 85  1  0
 17 86  1  1
 18 87  1  0
 18 88  1  0
 20 89  1  0
 21 90  1  0
 23 91  1  0
 24 92  1  0
 25 93  1  0
 26 94  1  0
 28 95  1  0
 31 96  1  1
 32 97  1  0
 32 98  1  0
 34 99  1  0
 35100  1  0
 36101  1  0
 37102  1  0
 38103  1  0
 39104  1  0
 42105  1  1
 43106  1  0
 46107  1  1
 47108  1  0
 47109  1  0
 47110  1  0
 48111  1  0
 48112  1  0
 50113  1  0
 51114  1  0
 52115  1  0
 53116  1  0
 54117  1  0
 55118  1  0
 55119  1  0
 58120  1  0
 58121  1  0
 59122  1  1
 63123  1  0
M  CHG  3  13   1  47   1  62  -1
M  END
>  <Binding energies>  (1) 
[0.13]

>  <Ligand effiencies>  (1) 
[0.0016049382716049384]

>  <Interactions>  (1) 
["V-B:TYR:539:CA:9841, V-A:ILE:369:CG2:3237, V-B:PRO:540:CA:9855, V-A:ASP:366:CA:3210, V-A:GLY:454:CA:4049, H-A:GLU:543:OE2:4910, V-A:ILE:369:CB:3236, V-B:GLU:543:CB:9878, V-B:ALA:541:CB:9864, H-A:TYR:531:OH:4795, V-A:TYR:484:CE2:4346, V-B:TYR:539:CE2:9848, V-B:GLU:543:CG:9879, V-B:TYR:539:C:9839, V-A:ASP:366:CG:3213, V-A:LEU:363:CD1:3189, V-B:TYR:539:CZ:9849, H-B:GLU:543:OE1:9881, H-B:TYR:539:OH:9850, H-B:ALA:541:N:9863, V-A:GLU:543:CD:4908, V-A:TYR:484:CZ:4347, V-B:PRO:540:CB:9857, H-B:ASP:366:OD1:8185, V-B:GLU:543:CA:9876, V-A:ARG:545:CG:4922, V-B:PRO:540:N:9856, V-A:HIS:456:CE1:4070, V-A:ILE:369:CD1:3239, V-A:ASP:366:C:3208, V-B:TYR:539:CD2:9846, V-B:PRO:540:CD:9859, V-A:TYR:531:CZ:4794, V-B:GLU:543:CD:9880, V-A:TYR:539:C:4867, H-B:TYR:531:OH:9767, V-A:ASP:366:CB:3212, V-A:ILE:369:CG1:3238, H-A:ARG:545:NH2:4928, V-A:ARG:545:CZ:4926, H-A:GLU:543:OE1:4909, V-B:TYR:539:CG:9844, V-A:LEU:475:CD2:4259, H-B:ARG:545:NH2:9900, V-B:TYR:539:CD1:9845, H-A:TYR:539:O:4868, V-A:PRO:540:N:4884, V-B:PRO:540:CG:9858, H-B:GLU:543:OE2:9882, V-A:PRO:540:CA:4883, V-A:PRO:540:CB:4885, V-B:LEU:363:CD1:8160, H-A:ARG:545:NE:4924, H-B:VAL:542:O:9867, V-B:ALA:541:CA:9862, V-A:PRO:540:CD:4887, V-B:TYR:539:CE1:9847, H-A:TYR:484:OH:4348"]

$$$$
ZINC1848439993
     RDKit          3D

114123  0  0  0  0  0  0  0  0999 V2000
  128.0620  130.9600   66.1360 H   0  0  0  0  0  0  0  0  0  0  0  0
  128.3400  130.0090   66.3260 N   0  0  0  0  0  0  0  0  0  0  0  0
  128.3240  129.2770   65.2940 C   0  0  0  0  0  0  0  0  0  0  0  0
  128.7150  127.8420   65.3270 C   0  0  0  0  0  0  0  0  0  0  0  0
  129.1570  126.9150   66.2910 C   0  0  0  0  0  0  0  0  0  0  0  0
  129.3730  127.0740   67.7620 C   0  0  0  0  0  0  0  0  0  0  0  0
  129.7200  128.3260   68.2820 C   0  0  0  0  0  0  0  0  0  0  0  0
  129.9210  128.4870   69.6500 C   0  0  0  0  0  0  0  0  0  0  0  0
  129.7980  127.3980   70.5110 C   0  0  0  0  0  0  0  0  0  0  0  0
  129.9820  127.6210   71.8600 O   0  0  0  0  0  0  0  0  0  0  0  0
  128.9370  127.9920   72.6790 C   0  0  0  0  0  0  0  0  0  0  0  0
  127.6900  127.4070   72.4560 C   0  0  0  0  0  0  0  0  0  0  0  0
  126.5970  127.7730   73.2380 C   0  0  0  0  0  0  0  0  0  0  0  0
  126.7530  128.7310   74.2370 C   0  0  0  0  0  0  0  0  0  0  0  0
  127.9910  129.3320   74.4580 C   0  0  0  0  0  0  0  0  0  0  0  0
  129.0820  128.9660   73.6740 C   0  0  0  0  0  0  0  0  0  0  0  0
  129.4480  126.1440   69.9940 C   0  0  0  0  0  0  0  0  0  0  0  0
  129.2440  125.9830   68.6250 C   0  0  0  0  0  0  0  0  0  0  0  0
  129.4200  125.7600   65.7080 N   0  0  0  0  0  0  0  0  0  0  0  0
  129.1450  125.8980   64.3950 N   0  0  0  0  0  0  0  0  0  0  0  0
  129.4180  124.8040   63.4430 C   0  0  2  0  0  0  0  0  0  0  0  0
  128.8960  123.4170   63.9190 C   0  0  0  0  0  0  0  0  0  0  0  0
  129.8630  122.6990   64.8950 C   0  0  0  0  0  0  0  0  0  0  0  0
  131.3290  122.7480   64.4000 C   0  0  0  0  0  0  0  0  0  0  0  0
  131.6710  124.1650   64.1610 N   0  0  0  0  0  0  0  0  0  0  0  0
  132.3820  124.9730   65.0030 C   0  0  0  0  0  0  0  0  0  0  0  0
  133.4150  125.5400   64.6330 O   0  0  0  0  0  0  0  0  0  0  0  0
  131.8750  125.1640   66.3510 C   0  0  0  0  0  0  0  0  0  0  0  0
  132.4430  126.0170   67.2250 C   0  0  0  0  0  0  0  0  0  0  0  0
  130.9150  124.7470   63.0350 C   0  0  0  0  0  0  0  0  0  0  0  0
  128.7140  127.1710   64.1060 C   0  0  0  0  0  0  0  0  0  0  0  0
  128.3940  127.6580   62.8700 N   0  0  0  0  0  0  0  0  0  0  0  0
  128.0440  128.8940   62.8680 C   0  0  0  0  0  0  0  0  0  0  0  0
  127.9610  129.7420   63.9970 N   0  0  0  0  0  0  0  0  0  0  0  0
  127.5930  131.1480   63.7700 C   0  0  0  0  0  0  0  0  0  0  0  0
  126.7010  131.3550   62.5220 C   0  0  0  0  0  0  0  0  0  0  0  0
  127.4880  131.6370   61.2250 C   0  0  0  0  0  0  0  0  0  0  0  0
  127.1090  131.1220   60.1700 O   0  0  0  0  0  0  0  0  0  0  0  0
  128.5000  132.5450   61.2610 N   0  0  0  0  0  0  0  0  0  0  0  0
  129.4200  132.6840   62.4070 C   0  0  0  0  0  0  0  0  0  0  0  0
  130.7060  131.8870   62.0790 C   0  0  0  0  0  0  0  0  0  0  0  0
  131.3190  132.3000   60.7170 C   0  0  0  0  0  0  0  0  0  0  0  0
  130.2670  132.3590   59.5720 C   0  0  1  0  0  0  0  0  0  0  0  0
  129.9160  131.0450   58.9980 N   0  0  0  0  0  0  0  0  0  0  0  0
  130.6420  129.9350   59.2590 N   0  0  0  0  0  0  0  0  0  0  0  0
  130.0740  128.9070   58.6730 C   0  0  0  0  0  0  0  0  0  0  0  0
  130.6510  127.5370   58.8150 C   0  0  0  0  0  0  0  0  0  0  0  0
  131.1520  127.0980   60.0430 C   0  0  0  0  0  0  0  0  0  0  0  0
  131.6520  125.8060   60.1770 C   0  0  0  0  0  0  0  0  0  0  0  0
  131.6440  124.9330   59.0880 C   0  0  0  0  0  0  0  0  0  0  0  0
  132.1610  123.6660   59.2750 O   0  0  0  0  0  0  0  0  0  0  0  0
  132.8790  123.3430   60.4080 C   0  0  0  0  0  0  0  0  0  0  0  0
  132.5050  122.2020   61.1190 C   0  0  0  0  0  0  0  0  0  0  0  0
  133.2150  121.8250   62.2560 C   0  0  0  0  0  0  0  0  0  0  0  0
  134.3060  122.5850   62.6730 C   0  0  0  0  0  0  0  0  0  0  0  0
  134.6960  123.7170   61.9600 C   0  0  0  0  0  0  0  0  0  0  0  0
  133.9870  124.0940   60.8230 C   0  0  0  0  0  0  0  0  0  0  0  0
  131.1680  125.3780   57.8490 C   0  0  0  0  0  0  0  0  0  0  0  0
  130.6680  126.6700   57.7160 C   0  0  0  0  0  0  0  0  0  0  0  0
  128.9070  129.3390   57.9510 C   0  0  0  0  0  0  0  0  0  0  0  0
  127.8990  128.8150   57.1150 C   0  0  0  0  0  0  0  0  0  0  0  0
  127.8740  127.4760   56.7320 N   0  0  0  0  0  0  0  0  0  0  0  0
  126.9150  129.6110   56.6260 N   0  0  0  0  0  0  0  0  0  0  0  0
  126.9540  130.9250   56.9670 C   0  0  0  0  0  0  0  0  0  0  0  0
  127.8780  131.5560   57.7400 N   0  0  0  0  0  0  0  0  0  0  0  0
  128.8290  130.7310   58.2020 C   0  0  0  0  0  0  0  0  0  0  0  0
  129.0110  133.1550   60.0180 C   0  0  0  0  0  0  0  0  0  0  0  0
  129.8344  129.1868   67.6067 H   0  0  0  0  0  0  0  0  0  0  0  0
  130.1779  129.4777   70.0531 H   0  0  0  0  0  0  0  0  0  0  0  0
  127.5699  126.6557   71.6615 H   0  0  0  0  0  0  0  0  0  0  0  0
  125.6150  127.3076   73.0674 H   0  0  0  0  0  0  0  0  0  0  0  0
  125.8907  129.0160   74.8576 H   0  0  0  0  0  0  0  0  0  0  0  0
  128.1054  130.0904   75.2465 H   0  0  0  0  0  0  0  0  0  0  0  0
  130.0597  129.4431   73.8368 H   0  0  0  0  0  0  0  0  0  0  0  0
  129.3339  125.2841   70.6705 H   0  0  0  0  0  0  0  0  0  0  0  0
  128.9806  124.9937   68.2225 H   0  0  0  0  0  0  0  0  0  0  0  0
  128.8367  125.0482   62.5416 H   0  0  0  0  0  0  0  0  0  0  0  0
  127.9316  123.5628   64.4275 H   0  0  0  0  0  0  0  0  0  0  0  0
  128.8025  122.7807   63.0266 H   0  0  0  0  0  0  0  0  0  0  0  0
  129.8036  123.1888   65.8782 H   0  0  0  0  0  0  0  0  0  0  0  0
  129.5607  121.6432   64.9574 H   0  0  0  0  0  0  0  0  0  0  0  0
  131.9975  122.3242   65.1639 H   0  0  0  0  0  0  0  0  0  0  0  0
  131.4456  122.1608   63.4772 H   0  0  0  0  0  0  0  0  0  0  0  0
  130.9929  124.5896   66.6703 H   0  0  0  0  0  0  0  0  0  0  0  0
  132.0240  126.1287   68.2359 H   0  0  0  0  0  0  0  0  0  0  0  0
  133.3259  126.6020   66.9279 H   0  0  0  0  0  0  0  0  0  0  0  0
  131.2832  125.7615   62.8225 H   0  0  0  0  0  0  0  0  0  0  0  0
  131.0423  124.1337   62.1308 H   0  0  0  0  0  0  0  0  0  0  0  0
  127.7838  129.3354   61.8946 H   0  0  0  0  0  0  0  0  0  0  0  0
  127.0478  131.5129   64.6530 H   0  0  0  0  0  0  0  0  0  0  0  0
  128.5261  131.7048   63.5988 H   0  0  0  0  0  0  0  0  0  0  0  0
  126.1012  130.4453   62.3713 H   0  0  0  0  0  0  0  0  0  0  0  0
  126.0830  132.2437   62.7176 H   0  0  0  0  0  0  0  0  0  0  0  0
  129.6664  133.7447   62.5629 H   0  0  0  0  0  0  0  0  0  0  0  0
  128.9521  132.2987   63.3250 H   0  0  0  0  0  0  0  0  0  0  0  0
  131.4474  132.0691   62.8710 H   0  0  0  0  0  0  0  0  0  0  0  0
  130.4374  130.8220   62.0195 H   0  0  0  0  0  0  0  0  0  0  0  0
  131.7761  133.2946   60.8251 H   0  0  0  0  0  0  0  0  0  0  0  0
  132.0613  131.5355   60.4439 H   0  0  0  0  0  0  0  0  0  0  0  0
  130.7502  132.9003   58.7452 H   0  0  0  0  0  0  0  0  0  0  0  0
  131.1513  127.7769   60.9085 H   0  0  0  0  0  0  0  0  0  0  0  0
  132.0548  125.4718   61.1445 H   0  0  0  0  0  0  0  0  0  0  0  0
  131.6487  121.5999   60.7810 H   0  0  0  0  0  0  0  0  0  0  0  0
  132.9159  120.9309   62.8227 H   0  0  0  0  0  0  0  0  0  0  0  0
  134.8645  122.2887   63.5732 H   0  0  0  0  0  0  0  0  0  0  0  0
  135.5602  124.3099   62.2942 H   0  0  0  0  0  0  0  0  0  0  0  0
  134.2963  124.9809   60.2505 H   0  0  0  0  0  0  0  0  0  0  0  0
  131.1892  124.7053   56.9790 H   0  0  0  0  0  0  0  0  0  0  0  0
  130.2845  127.0114   56.7432 H   0  0  0  0  0  0  0  0  0  0  0  0
  128.7320  126.9450   56.7220 H   0  0  0  0  0  0  0  0  0  0  0  0
  126.9950  127.0580   56.4630 H   0  0  0  0  0  0  0  0  0  0  0  0
  126.1423  131.5531   56.5712 H   0  0  0  0  0  0  0  0  0  0  0  0
  129.2809  134.2055   60.2016 H   0  0  0  0  0  0  0  0  0  0  0  0
  128.2409  133.1236   59.2331 H   0  0  0  0  0  0  0  0  0  0  0  0
  1  2  1  0
  2  3  2  0
  3  4  1  0
  4  5  1  0
  5  6  1  0
  6  7  2  0
  7  8  1  0
  8  9  2  0
  9 10  1  0
 10 11  1  0
 11 12  2  0
 12 13  1  0
 13 14  2  0
 14 15  1  0
 15 16  2  0
  9 17  1  0
 17 18  2  0
  5 19  2  0
 19 20  1  0
 20 21  1  0
 21 22  1  0
 22 23  1  0
 23 24  1  0
 24 25  1  0
 25 26  1  0
 26 27  2  0
 26 28  1  0
 28 29  2  0
 25 30  1  0
 20 31  1  0
 31 32  1  0
 32 33  2  0
 33 34  1  0
 34 35  1  0
 35 36  1  0
 36 37  1  0
 37 38  2  0
 37 39  1  0
 39 40  1  0
 40 41  1  0
 41 42  1  0
 42 43  1  0
 43 44  1  0
 44 45  1  0
 45 46  2  0
 46 47  1  0
 47 48  2  0
 48 49  1  0
 49 50  2  0
 50 51  1  0
 51 52  1  0
 52 53  2  0
 53 54  1  0
 54 55  2  0
 55 56  1  0
 56 57  2  0
 50 58  1  0
 58 59  2  0
 46 60  1  0
 60 61  2  0
 61 62  1  0
 61 63  1  0
 63 64  2  0
 64 65  1  0
 65 66  2  0
 43 67  1  0
 34  3  1  0
 67 39  1  0
 31  4  2  0
 66 44  1  0
 18  6  1  0
 30 21  1  0
 59 47  1  0
 66 60  1  0
 16 11  1  0
 57 52  1  0
  7 68  1  0
  8 69  1  0
 12 70  1  0
 13 71  1  0
 14 72  1  0
 15 73  1  0
 16 74  1  0
 17 75  1  0
 18 76  1  0
 21 77  1  6
 22 78  1  0
 22 79  1  0
 23 80  1  0
 23 81  1  0
 24 82  1  0
 24 83  1  0
 28 84  1  0
 29 85  1  0
 29 86  1  0
 30 87  1  0
 30 88  1  0
 33 89  1  0
 35 90  1  0
 35 91  1  0
 36 92  1  0
 36 93  1  0
 40 94  1  0
 40 95  1  0
 41 96  1  0
 41 97  1  0
 42 98  1  0
 42 99  1  0
 43100  1  6
 48101  1  0
 49102  1  0
 53103  1  0
 54104  1  0
 55105  1  0
 56106  1  0
 57107  1  0
 58108  1  0
 59109  1  0
 62110  1  0
 62111  1  0
 64112  1  0
 67113  1  0
 67114  1  0
M  END
>  <Binding energies>  (1) 
[-7.3]

>  <Ligand effiencies>  (1) 
[-0.10579710144927536]

>  <Interactions>  (1) 
["V-A:ILE:369:CG2:3237, V-A:GLU:543:CA:4904, V-A:GLY:454:CA:4049, V-B:GLU:543:C:9874, V-B:HIS:456:CD2:9039, V-A:GLU:543:C:4902, V-B:GLU:543:CB:9878, V-A:PRO:540:C:4881, V-B:HIS:456:CB:9036, V-B:ALA:541:CB:9864, H-A:ARG:545:NH1:4927, H-A:TYR:531:OH:4795, V-A:TYR:484:CE2:4346, V-B:TYR:539:CE2:9848, V-B:GLU:543:CG:9879, V-A:HIS:456:CD2:4068, V-A:ASP:366:CG:3213, V-A:TYR:539:CD1:4873, V-B:TYR:539:CZ:9849, H-B:TYR:539:OH:9850, V-A:ALA:541:CB:4892, V-B:LYS:547:CE:9922, V-A:GLU:543:CD:4908, V-A:TYR:484:CZ:4347, H-B:TYR:484:OH:9319, V-A:ARG:545:CG:4922, V-B:GLU:543:CA:9876, V-B:HIS:456:CE1:9041, V-A:GLY:453:C:4042, V-A:HIS:456:CE1:4070, V-A:ILE:369:CD1:3239, V-B:GLY:544:C:9884, V-A:ALA:541:CA:4890, V-A:GLU:543:CG:4907, V-B:GLU:543:CD:9880, V-B:HIS:456:CG:9037, V-A:MET:535:CE:4835, V-A:TYR:539:C:4867, H-B:TYR:531:OH:9767, V-A:ARG:545:CD:4923, V-A:LEU:475:CD2:4259, H-A:ARG:545:NH2:4928, V-A:ARG:545:CZ:4926, V-A:GLU:543:CB:4906, V-A:PRO:540:N:4884, V-A:PRO:540:CB:4885, V-A:PRO:540:CA:4883, V-A:GLY:453:CA:4044, H-A:ARG:545:NE:4924, H-A:TYR:484:OH:4348"]

$$$$
ZINC1848443178-again1
     RDKit          3D

 90 94  0  0  0  0  0  0  0  0999 V2000
  131.9650  131.8430   62.7180 C   0  0  0  0  0  0  0  0  0  0  0  0
  130.7470  132.0870   62.0230 O   0  0  0  0  0  0  0  0  0  0  0  0
  129.7720  131.1060   61.9900 C   0  0  0  0  0  0  0  0  0  0  0  0
  128.6170  131.1200   62.8000 C   0  0  0  0  0  0  0  0  0  0  0  0
  127.6580  130.0930   62.7260 C   0  0  0  0  0  0  0  0  0  0  0  0
  126.5050  130.0290   63.4860 O   0  0  0  0  0  0  0  0  0  0  0  0
  126.5300  129.3250   64.7220 C   0  0  0  0  0  0  0  0  0  0  0  0
  127.8730  129.0490   61.8230 C   0  0  0  0  0  0  0  0  0  0  0  0
  129.0040  129.0320   61.0290 C   0  0  0  0  0  0  0  0  0  0  0  0
  129.9600  130.0430   61.0940 C   0  0  0  0  0  0  0  0  0  0  0  0
  131.3580  129.9760   60.0760 Cl  0  0  0  0  0  0  0  0  0  0  0  0
  129.0830  127.9530   60.1880 O   0  0  0  0  0  0  0  0  0  0  0  0
  127.9360  127.1290   60.4270 C   0  0  2  0  0  0  0  0  0  0  0  0
  127.0970  127.8470   61.5040 C   0  0  0  0  0  0  0  0  0  0  0  0
  126.0250  127.4850   61.9870 O   0  0  0  0  0  0  0  0  0  0  0  0
  128.4790  125.7940   61.0060 C   0  0  0  0  0  0  0  0  0  0  0  0
  129.4940  125.7290   61.7790 O   0  0  0  0  0  0  0  0  0  0  0  0
  127.8110  124.5540   60.6720 C   0  0  0  0  0  0  0  0  0  0  0  0
  128.1810  123.2160   61.4060 C   0  0  2  0  0  0  0  0  0  0  0  0
  127.8210  123.1560   62.9310 C   0  0  0  0  0  0  0  0  0  0  0  0
  128.9790  123.3070   63.9380 C   0  0  0  0  0  0  0  0  0  0  0  0
  129.4240  122.3080   64.5010 O   0  0  0  0  0  0  0  0  0  0  0  0
  129.4540  124.5450   64.1720 N   0  0  0  0  0  0  0  0  0  0  0  0
  130.5690  124.8550   65.0700 C   0  0  0  0  0  0  0  0  0  0  0  0
  130.1230  125.0400   66.5340 C   0  0  0  0  0  0  0  0  0  0  0  0
  129.6030  124.1150   67.1630 O   0  0  0  0  0  0  0  0  0  0  0  0
  130.3150  126.2870   67.0160 N   0  0  0  0  0  0  0  0  0  0  0  0
  130.0440  126.8110   68.2940 C   0  0  0  0  0  0  0  0  0  0  0  0
  128.7940  126.4970   68.8300 C   0  0  0  0  0  0  0  0  0  0  0  0
  128.4250  126.9750   70.0840 C   0  0  0  0  0  0  0  0  0  0  0  0
  129.2950  127.7840   70.8270 C   0  0  0  0  0  0  0  0  0  0  0  0
  128.8680  128.2900   72.1910 C   0  0  0  0  0  0  0  0  0  0  0  0
  129.3090  129.4950   72.5700 N   0  0  0  0  0  0  0  0  0  0  0  0
  128.1380  127.6230   72.9250 O   0  0  0  0  0  0  0  0  0  0  0  0
  130.5480  128.1030   70.2800 C   0  0  0  0  0  0  0  0  0  0  0  0
  130.9200  127.6270   69.0260 C   0  0  0  0  0  0  0  0  0  0  0  0
  129.5900  122.6620   61.1120 C   0  0  0  0  0  0  0  0  0  0  0  0
  129.8080  121.2830   61.1860 C   0  0  0  0  0  0  0  0  0  0  0  0
  131.0680  120.7250   60.9170 C   0  0  0  0  0  0  0  0  0  0  0  0
  131.3440  119.3700   60.9800 O   0  0  0  0  0  0  0  0  0  0  0  0
  130.2910  118.4550   61.2650 C   0  0  0  0  0  0  0  0  0  0  0  0
  132.1210  121.5760   60.5630 C   0  0  0  0  0  0  0  0  0  0  0  0
  133.3580  121.0430   60.2880 O   0  0  0  0  0  0  0  0  0  0  0  0
  134.3560  121.3740   61.2450 C   0  0  0  0  0  0  0  0  0  0  0  0
  131.9270  122.9590   60.4560 C   0  0  0  0  0  0  0  0  0  0  0  0
  133.0160  123.7260   60.0790 O   0  0  0  0  0  0  0  0  0  0  0  0
  132.8530  125.1270   59.8900 C   0  0  0  0  0  0  0  0  0  0  0  0
  130.6550  123.4860   60.7320 C   0  0  0  0  0  0  0  0  0  0  0  0
  126.7970  124.4960   59.6510 C   0  0  0  0  0  0  0  0  0  0  0  0
  126.4520  123.4040   59.0930 O   0  0  0  0  0  0  0  0  0  0  0  0
  126.1520  125.8160   59.2080 C   0  0  0  0  0  0  0  0  0  0  0  0
  127.1800  126.9490   59.0840 C   0  0  1  0  0  0  0  0  0  0  0  0
  126.5370  128.1950   58.4420 C   0  0  0  0  0  0  0  0  0  0  0  0
  131.7822  131.8796   63.8021 H   0  0  0  0  0  0  0  0  0  0  0  0
  132.3506  130.8498   62.4445 H   0  0  0  0  0  0  0  0  0  0  0  0
  132.7034  132.6111   62.4445 H   0  0  0  0  0  0  0  0  0  0  0  0
  128.4629  131.9510   63.5040 H   0  0  0  0  0  0  0  0  0  0  0  0
  126.5045  130.0440   65.5541 H   0  0  0  0  0  0  0  0  0  0  0  0
  125.6549  128.6615   64.7838 H   0  0  0  0  0  0  0  0  0  0  0  0
  127.4500  128.7252   64.7838 H   0  0  0  0  0  0  0  0  0  0  0  0
  127.4880  122.5134   60.9200 H   0  0  0  0  0  0  0  0  0  0  0  0
  127.1008  123.9627   63.1324 H   0  0  0  0  0  0  0  0  0  0  0  0
  127.4391  122.1369   63.0909 H   0  0  0  0  0  0  0  0  0  0  0  0
  129.0380  125.3260   63.6850 H   0  0  0  0  0  0  0  0  0  0  0  0
  131.2958  124.0305   65.0255 H   0  0  0  0  0  0  0  0  0  0  0  0
  131.0095  125.8057   64.7352 H   0  0  0  0  0  0  0  0  0  0  0  0
  130.6940  126.9590   66.3650 H   0  0  0  0  0  0  0  0  0  0  0  0
  128.0963  125.8679   68.2578 H   0  0  0  0  0  0  0  0  0  0  0  0
  127.4391  126.7147   70.4965 H   0  0  0  0  0  0  0  0  0  0  0  0
  129.9040  130.0350   71.9600 H   0  0  0  0  0  0  0  0  0  0  0  0
  129.0450  129.8690   73.4690 H   0  0  0  0  0  0  0  0  0  0  0  0
  131.2441  128.7367   70.8492 H   0  0  0  0  0  0  0  0  0  0  0  0
  131.9026  127.8910   68.6080 H   0  0  0  0  0  0  0  0  0  0  0  0
  128.9740  120.6206   61.4610 H   0  0  0  0  0  0  0  0  0  0  0  0
  130.1765  118.3555   62.3545 H   0  0  0  0  0  0  0  0  0  0  0  0
  129.3524  118.8292   60.8303 H   0  0  0  0  0  0  0  0  0  0  0  0
  130.5306  117.4733   60.8303 H   0  0  0  0  0  0  0  0  0  0  0  0
  133.9508  121.2396   62.2588 H   0  0  0  0  0  0  0  0  0  0  0  0
  135.2274  120.7168   61.1083 H   0  0  0  0  0  0  0  0  0  0  0  0
  134.6619  122.4217   61.1083 H   0  0  0  0  0  0  0  0  0  0  0  0
  132.7951  125.6248   60.8692 H   0  0  0  0  0  0  0  0  0  0  0  0
  133.7111  125.5234   59.3273 H   0  0  0  0  0  0  0  0  0  0  0  0
  131.9268  125.3158   59.3273 H   0  0  0  0  0  0  0  0  0  0  0  0
  130.4923  124.5706   60.6476 H   0  0  0  0  0  0  0  0  0  0  0  0
  125.6711  125.6650   58.2303 H   0  0  0  0  0  0  0  0  0  0  0  0
  125.4179  126.1075   59.9736 H   0  0  0  0  0  0  0  0  0  0  0  0
  127.9827  126.7002   58.3743 H   0  0  0  0  0  0  0  0  0  0  0  0
  126.1861  128.8749   59.2323 H   0  0  0  0  0  0  0  0  0  0  0  0
  127.2812  128.7113   57.8179 H   0  0  0  0  0  0  0  0  0  0  0  0
  125.6850  127.8875   57.8179 H   0  0  0  0  0  0  0  0  0  0  0  0
  1  2  1  0
  2  3  1  0
  3  4  2  0
  4  5  1  0
  5  6  1  0
  6  7  1  0
  5  8  2  0
  8  9  1  0
  9 10  2  0
 10 11  1  0
  9 12  1  0
 13 12  1  6
 13 14  1  0
 14 15  2  0
 13 16  1  0
 16 17  1  0
 16 18  2  0
 18 19  1  0
 19 20  1  0
 20 21  1  0
 21 22  2  0
 21 23  1  0
 23 24  1  0
 24 25  1  0
 25 26  2  0
 25 27  1  0
 27 28  1  0
 28 29  2  0
 29 30  1  0
 30 31  2  0
 31 32  1  0
 32 33  1  0
 32 34  2  0
 31 35  1  0
 35 36  2  0
 19 37  1  0
 37 38  2  0
 38 39  1  0
 39 40  1  0
 40 41  1  0
 39 42  2  0
 42 43  1  0
 43 44  1  0
 42 45  1  0
 45 46  1  0
 46 47  1  0
 45 48  2  0
 18 49  1  0
 49 50  2  0
 49 51  1  0
 51 52  1  0
 52 53  1  0
 10  3  1  0
 52 13  1  0
 14  8  1  0
 36 28  1  0
 48 37  1  0
  1 54  1  0
  1 55  1  0
  1 56  1  0
  4 57  1  0
  7 58  1  0
  7 59  1  0
  7 60  1  0
 19 61  1  6
 20 62  1  0
 20 63  1  0
 23 64  1  0
 24 65  1  0
 24 66  1  0
 27 67  1  0
 29 68  1  0
 30 69  1  0
 33 70  1  0
 33 71  1  0
 35 72  1  0
 36 73  1  0
 38 74  1  0
 41 75  1  0
 41 76  1  0
 41 77  1  0
 44 78  1  0
 44 79  1  0
 44 80  1  0
 47 81  1  0
 47 82  1  0
 47 83  1  0
 48 84  1  0
 51 85  1  0
 51 86  1  0
 52 87  1  6
 53 88  1  0
 53 89  1  0
 53 90  1  0
M  CHG  1  17  -1
M  END
>  <Binding energies>  (1) 
[-7.97]

>  <Ligand effiencies>  (1) 
[-0.13982456140350877]

>  <Interactions>  (1) 
["V-A:ILE:369:CG2:3237, V-A:ASP:366:CA:3210, V-A:ALA:541:C:4888, V-B:GLU:543:C:9874, H-A:GLU:543:OE2:4910, V-A:GLU:543:C:4902, H-A:ALA:541:N:4891, V-B:HIS:456:CD2:9039, V-B:GLU:543:CB:9878, H-B:LYS:547:NZ:9923, V-B:ALA:541:CB:9864, V-B:ASP:366:CG:8184, V-B:TYR:539:CE2:9848, V-A:TYR:484:CE2:4346, V-B:GLU:543:CG:9879, V-A:GLY:544:C:4912, V-A:ASP:366:CG:3213, H-B:GLU:543:OE1:9881, V-A:GLU:543:CD:4908, H-B:TYR:484:OH:9319, V-B:GLU:543:CA:9876, V-B:HIS:456:CE1:9041, V-A:SER:385:C:3405, V-A:ILE:369:CD1:3239, V-A:HIS:456:CE1:4070, H-B:HIS:456:NE2:9042, V-A:ALA:541:CA:4890, V-B:TYR:539:CD2:9846, V-A:GLU:543:CG:4907, V-A:SER:385:CB:3409, H-A:SER:385:OG:3410, V-B:GLU:543:CD:9880, V-A:ILE:369:CG1:3238, V-A:ASP:366:CB:3212, V-A:LEU:475:CD2:4259, H-A:GLU:543:OE1:4909, H-B:ARG:545:NH2:9900, V-A:GLU:543:CB:4906, H-A:HIS:383:HE2:3395, V-A:SER:385:CA:3407, H-A:GLY:544:O:4913, H-A:TYR:484:OH:4348, H-A:GLU:543:O:4903"]

$$$$
ZINC1848443307
     RDKit          3D

 91 95  0  0  0  0  0  0  0  0999 V2000
  128.3310  128.7260   67.7120 C   0  0  0  0  0  0  0  0  0  0  0  0
  128.5960  127.3410   67.5220 O   0  0  0  0  0  0  0  0  0  0  0  0
  128.9840  126.8860   66.2740 C   0  0  0  0  0  0  0  0  0  0  0  0
  128.7950  127.6150   65.0800 C   0  0  0  0  0  0  0  0  0  0  0  0
  129.2150  127.1040   63.8370 C   0  0  0  0  0  0  0  0  0  0  0  0
  129.0720  127.7530   62.6250 O   0  0  0  0  0  0  0  0  0  0  0  0
  130.2340  128.0600   61.8630 C   0  0  0  0  0  0  0  0  0  0  0  0
  129.8230  125.8460   63.8070 C   0  0  0  0  0  0  0  0  0  0  0  0
  130.0070  125.1330   64.9750 C   0  0  0  0  0  0  0  0  0  0  0  0
  129.6000  125.6280   66.2110 C   0  0  0  0  0  0  0  0  0  0  0  0
  129.8600  124.6940   67.6440 Cl  0  0  0  0  0  0  0  0  0  0  0  0
  130.6310  123.9250   64.7970 O   0  0  0  0  0  0  0  0  0  0  0  0
  130.8450  123.7380   63.3940 C   0  0  2  0  0  0  0  0  0  0  0  0
  130.3760  125.0410   62.7130 C   0  0  0  0  0  0  0  0  0  0  0  0
  130.4680  125.3480   61.5250 O   0  0  0  0  0  0  0  0  0  0  0  0
  129.9220  122.5470   63.0000 C   0  0  0  0  0  0  0  0  0  0  0  0
  128.9430  122.2190   63.6740 O   0  0  0  0  0  0  0  0  0  0  0  0
  130.2880  121.7680   61.7080 C   0  0  1  0  0  0  0  0  0  0  0  0
  129.5610  122.2980   60.4130 C   0  0  1  0  0  0  0  0  0  0  0  0
  128.0190  122.4900   60.6120 C   0  0  0  0  0  0  0  0  0  0  0  0
  127.5770  123.7870   61.3120 C   0  0  0  0  0  0  0  0  0  0  0  0
  127.8210  123.9500   62.5090 O   0  0  0  0  0  0  0  0  0  0  0  0
  126.9210  124.6890   60.5600 N   0  0  0  0  0  0  0  0  0  0  0  0
  126.4230  125.9740   61.0440 C   0  0  0  0  0  0  0  0  0  0  0  0
  126.6530  127.1410   60.0640 C   0  0  0  0  0  0  0  0  0  0  0  0
  127.1200  128.4120   60.7560 C   0  0  0  0  0  0  0  0  0  0  0  0
  126.6390  128.7300   62.0290 C   0  0  0  0  0  0  0  0  0  0  0  0
  127.0610  129.8950   62.6610 C   0  0  0  0  0  0  0  0  0  0  0  0
  127.9650  130.7440   62.0220 C   0  0  0  0  0  0  0  0  0  0  0  0
  128.4930  132.2420   62.8480 S   0  0  0  0  0  0  0  0  0  0  0  0
  130.2400  132.1080   62.9180 N   0  0  0  0  0  0  0  0  0  0  0  0
  128.1700  133.3620   61.9570 O   0  0  0  0  0  0  0  0  0  0  0  0
  127.9870  132.2020   64.2250 O   0  0  0  0  0  0  0  0  0  0  0  0
  128.4540  130.4270   60.7520 C   0  0  0  0  0  0  0  0  0  0  0  0
  128.0300  129.2610   60.1190 C   0  0  0  0  0  0  0  0  0  0  0  0
  130.2220  123.5590   59.8250 C   0  0  0  0  0  0  0  0  0  0  0  0
  131.6070  123.6140   59.6520 C   0  0  0  0  0  0  0  0  0  0  0  0
  132.2210  124.7510   59.1050 C   0  0  0  0  0  0  0  0  0  0  0  0
  133.5850  124.8700   58.9080 O   0  0  0  0  0  0  0  0  0  0  0  0
  134.4810  124.3150   59.8640 C   0  0  0  0  0  0  0  0  0  0  0  0
  131.4200  125.8370   58.7270 C   0  0  0  0  0  0  0  0  0  0  0  0
  132.0100  126.9580   58.1940 O   0  0  0  0  0  0  0  0  0  0  0  0
  131.7140  128.1560   58.8990 C   0  0  0  0  0  0  0  0  0  0  0  0
  130.0300  125.8080   58.9070 C   0  0  0  0  0  0  0  0  0  0  0  0
  129.3160  126.9270   58.5180 O   0  0  0  0  0  0  0  0  0  0  0  0
  128.7360  126.9690   57.2200 C   0  0  0  0  0  0  0  0  0  0  0  0
  129.4430  124.6590   59.4580 C   0  0  0  0  0  0  0  0  0  0  0  0
  131.8060  121.5910   61.4980 C   0  0  0  0  0  0  0  0  0  0  0  0
  132.2940  120.5290   61.1130 O   0  0  0  0  0  0  0  0  0  0  0  0
  132.6760  122.8200   61.7940 C   0  0  0  0  0  0  0  0  0  0  0  0
  132.3650  123.4380   63.1780 C   0  0  1  0  0  0  0  0  0  0  0  0
  133.3620  124.5780   63.4740 C   0  0  0  0  0  0  0  0  0  0  0  0
  128.2887  128.9469   68.7888 H   0  0  0  0  0  0  0  0  0  0  0  0
  129.1318  129.3197   67.2471 H   0  0  0  0  0  0  0  0  0  0  0  0
  127.3676  128.9821   67.2471 H   0  0  0  0  0  0  0  0  0  0  0  0
  128.3102  128.6015   65.1215 H   0  0  0  0  0  0  0  0  0  0  0  0
  131.0703  128.2809   62.5426 H   0  0  0  0  0  0  0  0  0  0  0  0
  130.4944  127.1998   61.2287 H   0  0  0  0  0  0  0  0  0  0  0  0
  130.0355  128.9365   61.2287 H   0  0  0  0  0  0  0  0  0  0  0  0
  129.8871  120.7587   61.8827 H   0  0  0  0  0  0  0  0  0  0  0  0
  129.6851  121.5002   59.6660 H   0  0  0  0  0  0  0  0  0  0  0  0
  127.5478  122.4685   59.6183 H   0  0  0  0  0  0  0  0  0  0  0  0
  127.7065  121.6749   61.2813 H   0  0  0  0  0  0  0  0  0  0  0  0
  126.7650  124.4850   59.5840 H   0  0  0  0  0  0  0  0  0  0  0  0
  125.3419  125.8810   61.2244 H   0  0  0  0  0  0  0  0  0  0  0  0
  126.9847  126.2101   61.9598 H   0  0  0  0  0  0  0  0  0  0  0  0
  127.4165  126.8392   59.3319 H   0  0  0  0  0  0  0  0  0  0  0  0
  125.6890  127.3625   59.5827 H   0  0  0  0  0  0  0  0  0  0  0  0
  125.9266  128.0590   62.5312 H   0  0  0  0  0  0  0  0  0  0  0  0
  126.6826  130.1464   63.6628 H   0  0  0  0  0  0  0  0  0  0  0  0
  130.5860  131.1810   63.1800 H   0  0  0  0  0  0  0  0  0  0  0  0
  130.7300  132.5140   62.1170 H   0  0  0  0  0  0  0  0  0  0  0  0
  129.1713  131.0959   60.2539 H   0  0  0  0  0  0  0  0  0  0  0  0
  128.4109  129.0083   59.1185 H   0  0  0  0  0  0  0  0  0  0  0  0
  132.2251  122.7538   59.9488 H   0  0  0  0  0  0  0  0  0  0  0  0
  134.1195  124.5389   60.8785 H   0  0  0  0  0  0  0  0  0  0  0  0
  134.5351  123.2250   59.7263 H   0  0  0  0  0  0  0  0  0  0  0  0
  135.4810  124.7521   59.7263 H   0  0  0  0  0  0  0  0  0  0  0  0
  131.7610  127.9656   59.9814 H   0  0  0  0  0  0  0  0  0  0  0  0
  132.4479  128.9302   58.6306 H   0  0  0  0  0  0  0  0  0  0  0  0
  130.7040  128.4994   58.6306 H   0  0  0  0  0  0  0  0  0  0  0  0
  127.6425  127.0482   57.3094 H   0  0  0  0  0  0  0  0  0  0  0  0
  129.1233  127.8414   56.6734 H   0  0  0  0  0  0  0  0  0  0  0  0
  128.9936  126.0498   56.6734 H   0  0  0  0  0  0  0  0  0  0  0  0
  128.3532  124.6238   59.6032 H   0  0  0  0  0  0  0  0  0  0  0  0
  133.7338  122.5190   61.7703 H   0  0  0  0  0  0  0  0  0  0  0  0
  132.4581  123.5796   61.0288 H   0  0  0  0  0  0  0  0  0  0  0  0
  132.5396  122.6938   63.9690 H   0  0  0  0  0  0  0  0  0  0  0  0
  133.4679  124.6991   64.5622 H   0  0  0  0  0  0  0  0  0  0  0  0
  134.3405  124.3325   63.0354 H   0  0  0  0  0  0  0  0  0  0  0  0
  132.9883  125.5150   63.0354 H   0  0  0  0  0  0  0  0  0  0  0  0
  1  2  1  0
  2  3  1  0
  3  4  2  0
  4  5  1  0
  5  6  1  0
  6  7  1  0
  5  8  2  0
  8  9  1  0
  9 10  2  0
 10 11  1  0
  9 12  1  0
 13 12  1  1
 13 14  1  0
 14 15  2  0
 13 16  1  0
 16 17  2  0
 16 18  1  0
 18 19  1  0
 19 20  1  0
 20 21  1  0
 21 22  2  0
 21 23  1  0
 23 24  1  0
 24 25  1  0
 25 26  1  0
 26 27  2  0
 27 28  1  0
 28 29  2  0
 29 30  1  0
 30 31  1  0
 30 32  2  0
 30 33  2  0
 29 34  1  0
 34 35  2  0
 19 36  1  0
 36 37  2  0
 37 38  1  0
 38 39  1  0
 39 40  1  0
 38 41  2  0
 41 42  1  0
 42 43  1  0
 41 44  1  0
 44 45  1  0
 45 46  1  0
 44 47  2  0
 18 48  1  0
 48 49  2  0
 48 50  1  0
 50 51  1  0
 51 52  1  0
 10  3  1  0
 51 13  1  0
 14  8  1  0
 35 26  1  0
 47 36  1  0
  1 53  1  0
  1 54  1  0
  1 55  1  0
  4 56  1  0
  7 57  1  0
  7 58  1  0
  7 59  1  0
 18 60  1  1
 19 61  1  6
 20 62  1  0
 20 63  1  0
 23 64  1  0
 24 65  1  0
 24 66  1  0
 25 67  1  0
 25 68  1  0
 27 69  1  0
 28 70  1  0
 31 71  1  0
 31 72  1  0
 34 73  1  0
 35 74  1  0
 37 75  1  0
 40 76  1  0
 40 77  1  0
 40 78  1  0
 43 79  1  0
 43 80  1  0
 43 81  1  0
 46 82  1  0
 46 83  1  0
 46 84  1  0
 47 85  1  0
 50 86  1  0
 50 87  1  0
 51 88  1  1
 52 89  1  0
 52 90  1  0
 52 91  1  0
M  END
>  <Binding energies>  (1) 
[-6.53]

>  <Ligand effiencies>  (1) 
[-0.11872727272727274]

>  <Interactions>  (1) 
["V-A:ILE:369:CG2:3237, V-A:ASP:366:CA:3210, V-B:PRO:540:CA:9855, V-B:GLU:543:C:9874, V-A:ILE:369:CB:3236, H-A:ALA:541:N:4891, V-B:GLU:543:CB:9878, V-B:ALA:541:CB:9864, V-B:ASP:366:CG:8184, H-A:TYR:531:OH:4795, V-B:TYR:539:CE2:9848, V-A:TYR:484:CE2:4346, V-B:GLU:543:CG:9879, V-A:ASP:366:CG:3213, V-B:TYR:539:CZ:9849, V-A:ALA:541:CB:4892, V-A:GLU:543:CD:4908, V-A:TYR:484:CZ:4347, H-B:TYR:484:OH:9319, V-B:GLU:543:CA:9876, V-B:HIS:456:CE1:9041, V-B:PRO:540:N:9856, V-A:HIS:456:CE1:4070, V-A:ILE:369:CD1:3239, V-B:TYR:539:CD2:9846, V-A:GLU:543:CG:4907, H-A:SER:385:OG:3410, V-B:GLU:543:CD:9880, V-A:ILE:369:CG1:3238, V-A:ASP:366:CB:3212, V-A:LEU:475:CD2:4259, V-A:ARG:545:CZ:4926, H-A:GLU:543:OE1:4909, V-A:GLU:543:CB:4906, V-B:PRO:540:C:9853, H-A:TYR:484:OH:4348"]

$$$$
ZINC1857525002
     RDKit          3D

109115  0  0  0  0  0  0  0  0999 V2000
  128.6030  131.0450   61.3360 C   0  0  0  0  0  0  0  0  0  0  0  0
  128.3900  130.5580   60.0160 O   0  0  0  0  0  0  0  0  0  0  0  0
  128.8360  131.2960   58.9320 C   0  0  0  0  0  0  0  0  0  0  0  0
  128.4950  132.6450   58.7240 C   0  0  0  0  0  0  0  0  0  0  0  0
  128.9830  133.3440   57.6230 C   0  0  0  0  0  0  0  0  0  0  0  0
  129.8190  132.7080   56.7110 C   0  0  0  0  0  0  0  0  0  0  0  0
  130.1640  131.3730   56.9010 C   0  0  0  0  0  0  0  0  0  0  0  0
  129.6820  130.6540   58.0040 C   0  0  0  0  0  0  0  0  0  0  0  0
  130.0640  129.2280   58.1580 C   0  0  0  0  0  0  0  0  0  0  0  0
  129.6940  128.3160   57.2300 C   0  0  0  0  0  0  0  0  0  0  0  0
  129.9420  126.9830   57.2710 O   0  0  0  0  0  0  0  0  0  0  0  0
  130.6290  126.4870   58.3600 C   0  0  0  0  0  0  0  0  0  0  0  0
  130.8800  125.1160   58.3700 C   0  0  0  0  0  0  0  0  0  0  0  0
  131.5740  124.5350   59.4430 C   0  0  0  0  0  0  0  0  0  0  0  0
  131.8750  123.1920   59.5420 O   0  0  0  0  0  0  0  0  0  0  0  0
  131.9060  122.5890   60.8340 C   0  0  0  0  0  0  0  0  0  0  0  0
  130.9110  121.4290   60.9060 C   0  0  0  0  0  0  0  0  0  0  0  0
  131.2420  120.2620   60.6790 O   0  0  0  0  0  0  0  0  0  0  0  0
  129.6690  121.8540   61.2330 O   0  0  0  0  0  0  0  0  0  0  0  0
  129.4290  122.6440   62.3980 C   0  0  1  0  0  0  0  0  0  0  0  0
  130.1110  121.9880   63.6060 C   0  0  0  0  0  0  0  0  0  0  0  0
  129.8070  122.7940   64.8810 C   0  0  0  0  0  0  0  0  0  0  0  0
  130.1980  124.3090   64.8220 C   0  0  1  0  0  0  0  0  0  0  0  0
  131.7460  124.4630   64.8250 C   0  0  0  0  0  0  0  0  0  0  0  0
  129.6640  124.9080   63.4900 C   0  0  0  0  0  0  0  0  0  0  0  0
  129.0170  126.0910   63.4250 C   0  0  0  0  0  0  0  0  0  0  0  0
  128.7440  127.0290   64.5870 C   0  0  0  0  0  0  0  0  0  0  0  0
  129.5090  126.6140   65.8660 C   0  0  1  0  0  0  0  0  0  0  0  0
  128.8870  127.2950   67.1170 C   0  0  2  0  0  0  0  0  0  0  0  0
  128.7360  128.8200   67.1510 C   0  0  0  0  0  0  0  0  0  0  0  0
  128.5990  129.1670   68.6460 C   0  0  0  0  0  0  0  0  0  0  0  0
  128.9230  127.8800   69.4570 C   0  0  1  0  0  0  0  0  0  0  0  0
  127.7420  127.3330   70.3360 C   0  0  1  0  0  0  0  0  0  0  0  0
  126.6760  126.6610   69.4380 C   0  0  0  0  0  0  0  0  0  0  0  0
  128.1530  126.4120   71.5220 C   0  0  0  0  0  0  0  0  0  0  0  0
  129.5430  126.7030   72.1240 C   0  0  0  0  0  0  0  0  0  0  0  0
  129.4640  127.4340   73.4810 C   0  0  0  0  0  0  0  0  0  0  0  0
  128.6300  128.7370   73.4680 C   0  0  0  0  0  0  0  0  0  0  0  0
  129.4110  129.9460   72.9130 C   0  0  0  0  0  0  0  0  0  0  0  0
  128.0720  129.0470   74.8700 C   0  0  0  0  0  0  0  0  0  0  0  0
  129.6290  126.9370   68.4240 C   0  0  2  0  0  0  0  0  0  0  0  0
  131.1470  127.3170   68.4000 C   0  0  0  0  0  0  0  0  0  0  0  0
  129.4740  125.4050   68.6240 C   0  0  0  0  0  0  0  0  0  0  0  0
  130.0830  124.6120   67.4430 C   0  0  0  0  0  0  0  0  0  0  0  0
  129.5350  125.0580   66.0440 C   0  0  2  0  0  0  0  0  0  0  0  0
  129.9330  124.0900   62.2220 C   0  0  0  0  0  0  0  0  0  0  0  0
  131.9960  125.3540   60.4930 C   0  0  0  0  0  0  0  0  0  0  0  0
  131.7410  126.7250   60.4830 C   0  0  0  0  0  0  0  0  0  0  0  0
  131.0550  127.3140   59.4120 C   0  0  0  0  0  0  0  0  0  0  0  0
  130.7740  128.7880   59.3790 C   0  0  0  0  0  0  0  0  0  0  0  0
  131.1180  129.5330   60.2990 O   0  0  0  0  0  0  0  0  0  0  0  0
  128.2724  130.2891   62.0635 H   0  0  0  0  0  0  0  0  0  0  0  0
  129.6735  131.2513   61.4824 H   0  0  0  0  0  0  0  0  0  0  0  0
  128.0278  131.9711   61.4824 H   0  0  0  0  0  0  0  0  0  0  0  0
  127.8340  133.1544   59.4407 H   0  0  0  0  0  0  0  0  0  0  0  0
  128.7076  134.3986   57.4745 H   0  0  0  0  0  0  0  0  0  0  0  0
  130.2066  133.2590   55.8414 H   0  0  0  0  0  0  0  0  0  0  0  0
  130.8241  130.8750   56.1756 H   0  0  0  0  0  0  0  0  0  0  0  0
  129.1384  128.6915   56.3580 H   0  0  0  0  0  0  0  0  0  0  0  0
  130.5337  124.4883   57.5357 H   0  0  0  0  0  0  0  0  0  0  0  0
  132.9193  122.2100   61.0327 H   0  0  0  0  0  0  0  0  0  0  0  0
  131.6298  123.3428   61.5860 H   0  0  0  0  0  0  0  0  0  0  0  0
  128.3426  122.6933   62.5632 H   0  0  0  0  0  0  0  0  0  0  0  0
  129.7338  120.9616   63.7248 H   0  0  0  0  0  0  0  0  0  0  0  0
  131.1984  121.9679   63.4411 H   0  0  0  0  0  0  0  0  0  0  0  0
  128.7262  122.7289   65.0749 H   0  0  0  0  0  0  0  0  0  0  0  0
  130.4240  122.3506   65.6764 H   0  0  0  0  0  0  0  0  0  0  0  0
  132.1089  124.4991   65.8628 H   0  0  0  0  0  0  0  0  0  0  0  0
  132.2008  123.6057   64.3072 H   0  0  0  0  0  0  0  0  0  0  0  0
  132.0230  125.3931   64.3072 H   0  0  0  0  0  0  0  0  0  0  0  0
  128.6529  126.4053   62.4357 H   0  0  0  0  0  0  0  0  0  0  0  0
  129.0548  128.0451   64.3025 H   0  0  0  0  0  0  0  0  0  0  0  0
  127.6675  126.9867   64.8090 H   0  0  0  0  0  0  0  0  0  0  0  0
  130.5495  126.9540   65.7572 H   0  0  0  0  0  0  0  0  0  0  0  0
  127.8741  126.8740   67.0351 H   0  0  0  0  0  0  0  0  0  0  0  0
  129.6228  129.3072   66.7195 H   0  0  0  0  0  0  0  0  0  0  0  0
  127.8730  129.1657   66.5630 H   0  0  0  0  0  0  0  0  0  0  0  0
  129.3061  129.9665   68.9122 H   0  0  0  0  0  0  0  0  0  0  0  0
  127.5814  129.5198   68.8699 H   0  0  0  0  0  0  0  0  0  0  0  0
  129.6128  128.0460   70.2976 H   0  0  0  0  0  0  0  0  0  0  0  0
  127.3148  128.2181   70.8301 H   0  0  0  0  0  0  0  0  0  0  0  0
  125.9143  126.1808   70.0698 H   0  0  0  0  0  0  0  0  0  0  0  0
  126.1990  127.4220   68.8029 H   0  0  0  0  0  0  0  0  0  0  0  0
  127.1569  125.9025   68.8029 H   0  0  0  0  0  0  0  0  0  0  0  0
  127.4047  126.5290   72.3197 H   0  0  0  0  0  0  0  0  0  0  0  0
  128.2026  125.3913   71.1148 H   0  0  0  0  0  0  0  0  0  0  0  0
  130.0705  125.7486   72.2687 H   0  0  0  0  0  0  0  0  0  0  0  0
  130.0772  127.3612   71.4230 H   0  0  0  0  0  0  0  0  0  0  0  0
  129.0150  126.7475   74.2139 H   0  0  0  0  0  0  0  0  0  0  0  0
  130.4932  127.7274   73.7352 H   0  0  0  0  0  0  0  0  0  0  0  0
  127.7895  128.5614   72.7805 H   0  0  0  0  0  0  0  0  0  0  0  0
  129.7991  130.5468   73.7487 H   0  0  0  0  0  0  0  0  0  0  0  0
  130.2498  129.5893   72.2973 H   0  0  0  0  0  0  0  0  0  0  0  0
  128.7410  130.5640   72.2973 H   0  0  0  0  0  0  0  0  0  0  0  0
  128.7643  128.6624   75.6334 H   0  0  0  0  0  0  0  0  0  0  0  0
  127.9628  130.1351   74.9888 H   0  0  0  0  0  0  0  0  0  0  0  0
  127.0905  128.5649   74.9888 H   0  0  0  0  0  0  0  0  0  0  0  0
  131.5181  127.4099   69.4313 H   0  0  0  0  0  0  0  0  0  0  0  0
  131.7130  126.5328   67.8759 H   0  0  0  0  0  0  0  0  0  0  0  0
  131.2768  128.2754   67.8759 H   0  0  0  0  0  0  0  0  0  0  0  0
  129.9864  125.1125   69.5524 H   0  0  0  0  0  0  0  0  0  0  0  0
  128.4003  125.1719   68.6778 H   0  0  0  0  0  0  0  0  0  0  0  0
  131.1735  124.7559   67.4521 H   0  0  0  0  0  0  0  0  0  0  0  0
  129.8010  123.5577   67.5806 H   0  0  0  0  0  0  0  0  0  0  0  0
  128.4848  124.7309   66.0368 H   0  0  0  0  0  0  0  0  0  0  0  0
  129.4105  124.5551   61.3731 H   0  0  0  0  0  0  0  0  0  0  0  0
  131.0166  124.0696   62.0339 H   0  0  0  0  0  0  0  0  0  0  0  0
  132.5381  124.9105   61.3412 H   0  0  0  0  0  0  0  0  0  0  0  0
  132.0810  127.3493   61.3225 H   0  0  0  0  0  0  0  0  0  0  0  0
  1  2  1  0
  2  3  1  0
  3  4  2  0
  4  5  1  0
  5  6  2  0
  6  7  1  0
  7  8  2  0
  8  9  1  0
  9 10  2  0
 10 11  1  0
 11 12  1  0
 12 13  2  0
 13 14  1  0
 14 15  1  0
 15 16  1  0
 16 17  1  0
 17 18  2  0
 17 19  1  0
 19 20  1  0
 20 21  1  0
 21 22  1  0
 22 23  1  0
 23 24  1  6
 23 25  1  0
 25 26  2  0
 26 27  1  0
 27 28  1  0
 28 29  1  0
 29 30  1  0
 30 31  1  0
 31 32  1  0
 32 33  1  0
 33 34  1  0
 33 35  1  0
 35 36  1  0
 36 37  1  0
 37 38  1  0
 38 39  1  0
 38 40  1  0
 32 41  1  0
 41 42  1  6
 41 43  1  0
 43 44  1  0
 44 45  1  0
 25 46  1  0
 14 47  2  0
 47 48  1  0
 48 49  2  0
 49 50  1  0
 50 51  2  0
  8  3  1  0
 50  9  1  0
 49 12  1  0
 46 20  1  0
 45 23  1  0
 45 28  1  0
 41 29  1  0
  1 52  1  0
  1 53  1  0
  1 54  1  0
  4 55  1  0
  5 56  1  0
  6 57  1  0
  7 58  1  0
 10 59  1  0
 13 60  1  0
 16 61  1  0
 16 62  1  0
 20 63  1  1
 21 64  1  0
 21 65  1  0
 22 66  1  0
 22 67  1  0
 24 68  1  0
 24 69  1  0
 24 70  1  0
 26 71  1  0
 27 72  1  0
 27 73  1  0
 28 74  1  6
 29 75  1  1
 30 76  1  0
 30 77  1  0
 31 78  1  0
 31 79  1  0
 32 80  1  1
 33 81  1  1
 34 82  1  0
 34 83  1  0
 34 84  1  0
 35 85  1  0
 35 86  1  0
 36 87  1  0
 36 88  1  0
 37 89  1  0
 37 90  1  0
 38 91  1  0
 39 92  1  0
 39 93  1  0
 39 94  1  0
 40 95  1  0
 40 96  1  0
 40 97  1  0
 42 98  1  0
 42 99  1  0
 42100  1  0
 43101  1  0
 43102  1  0
 44103  1  0
 44104  1  0
 45105  1  1
 46106  1  0
 46107  1  0
 47108  1  0
 48109  1  0
M  END
>  <Binding energies>  (1) 
[-8.37]

>  <Ligand effiencies>  (1) 
[-0.1641176470588235]

>  <Interactions>  (1) 
["V-A:GLU:543:CA:4904, V-B:GLU:543:C:9874, V-B:HIS:456:CD2:9039, V-A:GLU:543:C:4902, V-B:GLU:543:CB:9878, V-B:ALA:541:CB:9864, H-A:TYR:531:OH:4795, V-B:TYR:539:CE2:9848, V-A:TYR:484:CE2:4346, V-B:GLU:543:CG:9879, V-A:ASP:366:CG:3213, V-A:HIS:456:CD2:4068, V-A:TYR:539:CD1:4873, V-B:TYR:539:CZ:9849, H-B:TYR:539:OH:9850, V-A:TYR:539:CA:4869, V-A:GLU:543:CD:4908, V-A:TYR:484:CZ:4347, V-B:GLU:543:CA:9876, V-B:HIS:456:CE1:9041, V-A:ARG:545:CG:4922, V-A:HIS:456:CE1:4070, V-B:GLY:544:C:9884, V-B:TYR:539:CD2:9846, V-A:GLU:543:CG:4907, V-B:GLY:544:CA:9886, H-A:SER:385:OG:3410, V-A:MET:535:CE:4835, V-B:GLU:543:CD:9880, V-A:TYR:539:C:4867, V-A:ASP:366:CB:3212, V-A:LEU:475:CD2:4259, V-A:GLU:543:CB:4906, V-A:PRO:540:N:4884, V-A:TYR:539:CG:4872, V-A:TYR:539:CE1:4875"]

$$$$
ZINC1857526152
     RDKit          3D

 86 93  0  0  0  0  0  0  0  0999 V2000
  131.1500  130.5520   58.7550 C   0  0  0  0  0  0  0  0  0  0  0  0
  129.8630  130.6910   59.6380 C   0  0  2  0  0  0  0  0  0  0  0  0
  130.0110  129.6940   60.8500 C   0  0  0  0  0  0  0  0  0  0  0  0
  129.2560  128.3360   60.6890 C   0  0  0  0  0  0  0  0  0  0  0  0
  129.2320  127.8570   59.2080 C   0  0  2  0  0  0  0  0  0  0  0  0
  128.4380  128.8830   58.3210 C   0  0  2  0  0  0  0  0  0  0  0  0
  128.8070  128.6250   56.8500 C   0  0  0  0  0  0  0  0  0  0  0  0
  128.3660  127.1910   56.4750 C   0  0  0  0  0  0  0  0  0  0  0  0
  129.0140  126.0520   57.3400 C   0  0  2  0  0  0  0  0  0  0  0  0
  130.3770  126.1270   56.9310 O   0  0  0  0  0  0  0  0  0  0  0  0
  128.4470  124.6610   56.9110 C   0  0  0  0  0  0  0  0  0  0  0  0
  127.0090  124.3470   57.4010 C   0  0  2  0  0  0  0  0  0  0  0  0
  126.0260  125.0350   56.6510 O   0  0  0  0  0  0  0  0  0  0  0  0
  126.8440  124.6320   58.9070 C   0  0  0  0  0  0  0  0  0  0  0  0
  127.3350  126.0420   59.3160 C   0  0  0  0  0  0  0  0  0  0  0  0
  128.8220  126.3570   58.9010 C   0  0  2  0  0  0  0  0  0  0  0  0
  129.8030  125.4480   59.7120 C   0  0  0  0  0  0  0  0  0  0  0  0
  131.0170  125.2020   59.3980 N   0  0  0  0  0  0  0  0  0  0  0  0
  131.8480  124.3510   60.2510 C   0  0  2  0  0  0  0  0  0  0  0  0
  132.0610  125.1210   61.5870 C   0  0  0  0  0  0  0  0  0  0  0  0
  132.9370  124.3130   62.5820 C   0  0  1  0  0  0  0  0  0  0  0  0
  132.2370  122.9550   62.8520 C   0  0  0  0  0  0  0  0  0  0  0  0
  132.0220  122.1370   61.5500 C   0  0  2  0  0  0  0  0  0  0  0  0
  133.4100  121.9060   60.8930 C   0  0  0  0  0  0  0  0  0  0  0  0
  134.1430  123.2390   60.5740 C   0  0  2  0  0  0  0  0  0  0  0  0
  134.3030  124.0270   61.9030 C   0  0  0  0  0  0  0  0  0  0  0  0
  133.2490  124.0730   59.6170 C   0  0  0  0  0  0  0  0  0  0  0  0
  131.1580  122.9860   60.5800 C   0  0  0  0  0  0  0  0  0  0  0  0
  128.5430  130.3620   58.8650 C   0  0  1  0  0  0  0  0  0  0  0  0
  127.4070  130.4730   59.7290 O   0  0  0  0  0  0  0  0  0  0  0  0
  128.4150  131.5470   57.8940 C   0  0  0  0  0  0  0  0  0  0  0  0
  128.9150  132.7720   58.6920 C   0  0  0  0  0  0  0  0  0  0  0  0
  129.7230  132.2360   59.9140 C   0  0  1  0  0  0  0  0  0  0  0  0
  129.1310  132.6210   61.2730 C   0  0  0  0  0  0  0  0  0  0  0  0
  129.2520  132.0700   62.4900 C   0  0  0  0  0  0  0  0  0  0  0  0
  128.4600  132.8180   63.4410 C   0  0  0  0  0  0  0  0  0  0  0  0
  128.3480  132.6000   64.6440 O   0  0  0  0  0  0  0  0  0  0  0  0
  127.8480  133.8090   62.7860 O   0  0  0  0  0  0  0  0  0  0  0  0
  128.1790  133.7820   61.4150 C   0  0  0  0  0  0  0  0  0  0  0  0
  132.0322  130.4567   59.4051 H   0  0  0  0  0  0  0  0  0  0  0  0
  131.0642  129.6579   58.1200 H   0  0  0  0  0  0  0  0  0  0  0  0
  131.2571  131.4438   58.1200 H   0  0  0  0  0  0  0  0  0  0  0  0
  131.0809  129.4751   60.9821 H   0  0  0  0  0  0  0  0  0  0  0  0
  129.5554  130.1961   61.7162 H   0  0  0  0  0  0  0  0  0  0  0  0
  129.7605  127.5739   61.3011 H   0  0  0  0  0  0  0  0  0  0  0  0
  128.2162  128.4832   61.0165 H   0  0  0  0  0  0  0  0  0  0  0  0
  130.2969  127.8368   58.9330 H   0  0  0  0  0  0  0  0  0  0  0  0
  127.3509  128.7278   58.3845 H   0  0  0  0  0  0  0  0  0  0  0  0
  128.2910  129.3519   56.2055 H   0  0  0  0  0  0  0  0  0  0  0  0
  129.8928  128.7329   56.7104 H   0  0  0  0  0  0  0  0  0  0  0  0
  127.2739  127.1283   56.5905 H   0  0  0  0  0  0  0  0  0  0  0  0
  128.7052  127.0244   55.4420 H   0  0  0  0  0  0  0  0  0  0  0  0
  130.8250  125.3300   57.2240 H   0  0  0  0  0  0  0  0  0  0  0  0
  128.4474  124.6191   55.8118 H   0  0  0  0  0  0  0  0  0  0  0  0
  129.0980  123.9104   57.3831 H   0  0  0  0  0  0  0  0  0  0  0  0
  126.8546  123.2699   57.2395 H   0  0  0  0  0  0  0  0  0  0  0  0
  126.1500  125.9780   56.7790 H   0  0  0  0  0  0  0  0  0  0  0  0
  125.7784  124.5439   59.1652 H   0  0  0  0  0  0  0  0  0  0  0  0
  127.4611  123.9001   59.4487 H   0  0  0  0  0  0  0  0  0  0  0  0
  126.6796  126.7864   58.8402 H   0  0  0  0  0  0  0  0  0  0  0  0
  127.2998  126.0811   60.4147 H   0  0  0  0  0  0  0  0  0  0  0  0
  129.4154  124.9813   60.6296 H   0  0  0  0  0  0  0  0  0  0  0  0
  132.5575  126.0786   61.3713 H   0  0  0  0  0  0  0  0  0  0  0  0
  131.0765  125.2829   62.0502 H   0  0  0  0  0  0  0  0  0  0  0  0
  133.0772  124.8717   63.5191 H   0  0  0  0  0  0  0  0  0  0  0  0
  132.8599  122.3663   63.5415 H   0  0  0  0  0  0  0  0  0  0  0  0
  131.2483  123.1651   63.2860 H   0  0  0  0  0  0  0  0  0  0  0  0
  131.5291  121.1779   61.7672 H   0  0  0  0  0  0  0  0  0  0  0  0
  134.0330  121.3161   61.5814 H   0  0  0  0  0  0  0  0  0  0  0  0
  133.2476  121.3765   59.9426 H   0  0  0  0  0  0  0  0  0  0  0  0
  135.1227  123.0452   60.1129 H   0  0  0  0  0  0  0  0  0  0  0  0
  134.9248  123.4368   62.5923 H   0  0  0  0  0  0  0  0  0  0  0  0
  134.7729  124.9935   61.6685 H   0  0  0  0  0  0  0  0  0  0  0  0
  133.7449  125.0323   59.4077 H   0  0  0  0  0  0  0  0  0  0  0  0
  133.1039  123.5008   58.6888 H   0  0  0  0  0  0  0  0  0  0  0  0
  131.0113  122.4243   59.6457 H   0  0  0  0  0  0  0  0  0  0  0  0
  130.1928  123.1929   61.0653 H   0  0  0  0  0  0  0  0  0  0  0  0
  126.8450  129.7070   59.5940 H   0  0  0  0  0  0  0  0  0  0  0  0
  129.0385  131.3855   57.0023 H   0  0  0  0  0  0  0  0  0  0  0  0
  127.3832  131.6793   57.5365 H   0  0  0  0  0  0  0  0  0  0  0  0
  129.5624  133.3951   58.0575 H   0  0  0  0  0  0  0  0  0  0  0  0
  128.0680  133.3886   59.0273 H   0  0  0  0  0  0  0  0  0  0  0  0
  130.7144  132.7046   60.0005 H   0  0  0  0  0  0  0  0  0  0  0  0
  129.8603  131.1850   62.7281 H   0  0  0  0  0  0  0  0  0  0  0  0
  127.2796  133.6232   60.8020 H   0  0  0  0  0  0  0  0  0  0  0  0
  128.6244  134.7289   61.0760 H   0  0  0  0  0  0  0  0  0  0  0  0
  2  1  1  6
  2  3  1  0
  3  4  1  0
  4  5  1  0
  5  6  1  0
  6  7  1  0
  7  8  1  0
  8  9  1  0
  9 10  1  1
  9 11  1  0
 11 12  1  0
 12 13  1  0
 12 14  1  0
 14 15  1  0
 15 16  1  0
 16 17  1  1
 17 18  2  0
 19 18  1  6
 19 20  1  0
 20 21  1  0
 21 22  1  0
 22 23  1  0
 23 24  1  0
 24 25  1  0
 25 26  1  0
 25 27  1  0
 23 28  1  0
  6 29  1  0
 29 30  1  1
 29 31  1  0
 31 32  1  0
 32 33  1  0
 33 34  1  0
 34 35  2  0
 35 36  1  0
 36 37  2  0
 36 38  1  0
 38 39  1  0
 29  2  1  0
 39 34  1  0
 33  2  1  0
 16  5  1  0
 27 19  1  0
 16  9  1  0
 28 19  1  0
 26 21  1  0
  1 40  1  0
  1 41  1  0
  1 42  1  0
  3 43  1  0
  3 44  1  0
  4 45  1  0
  4 46  1  0
  5 47  1  6
  6 48  1  6
  7 49  1  0
  7 50  1  0
  8 51  1  0
  8 52  1  0
 10 53  1  0
 11 54  1  0
 11 55  1  0
 12 56  1  1
 13 57  1  0
 14 58  1  0
 14 59  1  0
 15 60  1  0
 15 61  1  0
 17 62  1  0
 20 63  1  0
 20 64  1  0
 21 65  1  1
 22 66  1  0
 22 67  1  0
 23 68  1  1
 24 69  1  0
 24 70  1  0
 25 71  1  6
 26 72  1  0
 26 73  1  0
 27 74  1  0
 27 75  1  0
 28 76  1  0
 28 77  1  0
 30 78  1  0
 31 79  1  0
 31 80  1  0
 32 81  1  0
 32 82  1  0
 33 83  1  1
 35 84  1  0
 39 85  1  0
 39 86  1  0
M  END
>  <Binding energies>  (1) 
[-9.29]

>  <Ligand effiencies>  (1) 
[-0.22119047619047616]

>  <Interactions>  (1) 
["V-A:ILE:369:CG2:3237, H-B:MET:535:SD:9806, V-A:ILE:369:CB:3236, H-A:TYR:531:OH:4795, V-B:TYR:539:CE2:9848, V-B:LEU:475:CD2:9230, V-A:TYR:539:CD1:4873, V-B:TYR:539:CZ:9849, H-B:TYR:539:OH:9850, V-A:ALA:541:CB:4892, H-B:TYR:484:OH:9319, V-A:ILE:369:CD1:3239, V-B:TYR:539:CD2:9846, V-A:MET:535:CE:4835, V-A:TYR:539:C:4867, H-B:TYR:531:OH:9767, V-A:ILE:369:CG1:3238, V-A:LEU:475:CD2:4259, V-A:PRO:540:N:4884, V-A:PRO:540:CA:4883"]

$$$$
ZINC1857526152-again1
     RDKit          3D

 87 94  0  0  0  0  0  0  0  0999 V2000
  127.1410  128.9860   59.7380 C   0  0  0  0  0  0  0  0  0  0  0  0
  128.5380  129.6940   59.7800 C   0  0  2  0  0  0  0  0  0  0  0  0
  129.5040  128.8530   58.8690 C   0  0  0  0  0  0  0  0  0  0  0  0
  130.4450  127.8650   59.6290 C   0  0  0  0  0  0  0  0  0  0  0  0
  129.8020  127.2590   60.9040 C   0  0  2  0  0  0  0  0  0  0  0  0
  129.3960  128.3930   61.9180 C   0  0  2  0  0  0  0  0  0  0  0  0
  128.2690  127.8490   62.8180 C   0  0  0  0  0  0  0  0  0  0  0  0
  128.7960  126.6160   63.5760 C   0  0  0  0  0  0  0  0  0  0  0  0
  129.3110  125.4480   62.6590 C   0  0  2  0  0  0  0  0  0  0  0  0
  128.1130  125.0190   62.0160 O   0  0  0  0  0  0  0  0  0  0  0  0
  129.7850  124.2630   63.5620 C   0  0  0  0  0  0  0  0  0  0  0  0
  131.1330  124.4960   64.2860 C   0  0  2  0  0  0  0  0  0  0  0  0
  131.0190  125.3600   65.4000 O   0  0  0  0  0  0  0  0  0  0  0  0
  132.1930  125.0030   63.2960 C   0  0  0  0  0  0  0  0  0  0  0  0
  131.7330  126.2270   62.4550 C   0  0  0  0  0  0  0  0  0  0  0  0
  130.4340  125.9740   61.6180 C   0  0  2  0  0  0  0  0  0  0  0  0
  130.6530  124.8660   60.5550 C   0  0  0  0  0  0  0  0  0  0  0  0
  129.9030  124.2620   59.6090 N   0  0  0  0  0  0  0  0  0  0  0  0
  128.4810  124.3120   59.0760 C   0  0  2  0  0  0  0  0  0  0  0  0
  127.8330  125.7240   59.1800 C   0  0  0  0  0  0  0  0  0  0  0  0
  126.4740  125.7940   58.4340 C   0  0  1  0  0  0  0  0  0  0  0  0
  126.7110  125.4490   56.9420 C   0  0  0  0  0  0  0  0  0  0  0  0
  127.3300  124.0390   56.7670 C   0  0  2  0  0  0  0  0  0  0  0  0
  126.3700  123.0010   57.4020 C   0  0  0  0  0  0  0  0  0  0  0  0
  126.1290  123.2810   58.9070 C   0  0  2  0  0  0  0  0  0  0  0  0
  125.5360  124.7130   59.0380 C   0  0  0  0  0  0  0  0  0  0  0  0
  127.5000  123.2430   59.6370 C   0  0  0  0  0  0  0  0  0  0  0  0
  128.6640  124.0030   57.5550 C   0  0  0  0  0  0  0  0  0  0  0  0
  129.1460  129.7840   61.2180 C   0  0  1  0  0  0  0  0  0  0  0  0
  130.4480  130.3780   61.1910 O   0  0  0  0  0  0  0  0  0  0  0  0
  128.2480  130.8330   61.8990 C   0  0  0  0  0  0  0  0  0  0  0  0
  127.9450  131.8730   60.8000 C   0  0  0  0  0  0  0  0  0  0  0  0
  128.2540  131.2020   59.4270 C   0  0  1  0  0  0  0  0  0  0  0  0
  129.3420  131.9120   58.6170 C   0  0  0  0  0  0  0  0  0  0  0  0
  130.6800  131.8560   58.6710 C   0  0  0  0  0  0  0  0  0  0  0  0
  131.2430  132.7520   57.6870 C   0  0  0  0  0  0  0  0  0  0  0  0
  132.4350  132.9440   57.4570 O   0  0  0  0  0  0  0  0  0  0  0  0
  130.2360  133.3580   57.0500 O   0  0  0  0  0  0  0  0  0  0  0  0
  128.9930  132.9250   57.5540 C   0  0  0  0  0  0  0  0  0  0  0  0
  126.7893  128.8077   60.7649 H   0  0  0  0  0  0  0  0  0  0  0  0
  126.4204  129.6277   59.2098 H   0  0  0  0  0  0  0  0  0  0  0  0
  127.2325  128.0255   59.2098 H   0  0  0  0  0  0  0  0  0  0  0  0
  128.8884  128.2670   58.1706 H   0  0  0  0  0  0  0  0  0  0  0  0
  130.1632  129.5797   58.3716 H   0  0  0  0  0  0  0  0  0  0  0  0
  130.7105  127.0429   58.9480 H   0  0  0  0  0  0  0  0  0  0  0  0
  131.3262  128.4391   59.9514 H   0  0  0  0  0  0  0  0  0  0  0  0
  128.9179  126.7656   60.4740 H   0  0  0  0  0  0  0  0  0  0  0  0
  130.2328  128.6462   62.5856 H   0  0  0  0  0  0  0  0  0  0  0  0
  127.9631  128.6231   63.5372 H   0  0  0  0  0  0  0  0  0  0  0  0
  127.4003  127.5692   62.2040 H   0  0  0  0  0  0  0  0  0  0  0  0
  129.6286  126.9393   64.2181 H   0  0  0  0  0  0  0  0  0  0  0  0
  127.9429  126.2124   64.1411 H   0  0  0  0  0  0  0  0  0  0  0  0
  127.4150  124.9730   62.6730 H   0  0  0  0  0  0  0  0  0  0  0  0
  129.0132  124.0847   64.3253 H   0  0  0  0  0  0  0  0  0  0  0  0
  129.9388  123.4052   62.8908 H   0  0  0  0  0  0  0  0  0  0  0  0
  131.4551  123.5230   64.6855 H   0  0  0  0  0  0  0  0  0  0  0  0
  131.3770  126.2180   65.1590 H   0  0  0  0  0  0  0  0  0  0  0  0
  133.0894  125.2906   63.8651 H   0  0  0  0  0  0  0  0  0  0  0  0
  132.3878  124.1836   62.5884 H   0  0  0  0  0  0  0  0  0  0  0  0
  131.5445  127.0663   63.1406 H   0  0  0  0  0  0  0  0  0  0  0  0
  132.5380  126.4392   61.7360 H   0  0  0  0  0  0  0  0  0  0  0  0
  131.6800  124.4726   60.5777 H   0  0  0  0  0  0  0  0  0  0  0  0
  130.4390  123.5670   59.0970 H   0  0  0  0  0  0  0  0  0  0  0  0
  127.6687  125.9625   60.2412 H   0  0  0  0  0  0  0  0  0  0  0  0
  128.5163  126.4478   58.7118 H   0  0  0  0  0  0  0  0  0  0  0  0
  126.0320  126.7966   58.5311 H   0  0  0  0  0  0  0  0  0  0  0  0
  125.7479  125.4831   56.4116 H   0  0  0  0  0  0  0  0  0  0  0  0
  127.4167  126.1851   56.5295 H   0  0  0  0  0  0  0  0  0  0  0  0
  127.4931  123.8151   55.7025 H   0  0  0  0  0  0  0  0  0  0  0  0
  125.4056  123.0393   56.8744 H   0  0  0  0  0  0  0  0  0  0  0  0
  126.8334  122.0076   57.3102 H   0  0  0  0  0  0  0  0  0  0  0  0
  125.4456  122.5364   59.3411 H   0  0  0  0  0  0  0  0  0  0  0  0
  124.5712  124.7465   58.5107 H   0  0  0  0  0  0  0  0  0  0  0  0
  125.4146  124.9316   60.1092 H   0  0  0  0  0  0  0  0  0  0  0  0
  127.3388  123.4344   60.7082 H   0  0  0  0  0  0  0  0  0  0  0  0
  127.9463  122.2505   59.4764 H   0  0  0  0  0  0  0  0  0  0  0  0
  129.1059  123.0010   57.4512 H   0  0  0  0  0  0  0  0  0  0  0  0
  129.3159  124.7836   57.1359 H   0  0  0  0  0  0  0  0  0  0  0  0
  130.8960  130.1710   62.0130 H   0  0  0  0  0  0  0  0  0  0  0  0
  127.3179  130.3699   62.2601 H   0  0  0  0  0  0  0  0  0  0  0  0
  128.7343  131.2872   62.7750 H   0  0  0  0  0  0  0  0  0  0  0  0
  126.8866  132.1695   60.8441 H   0  0  0  0  0  0  0  0  0  0  0  0
  128.5586  132.7754   60.9387 H   0  0  0  0  0  0  0  0  0  0  0  0
  127.4101  131.2795   58.7257 H   0  0  0  0  0  0  0  0  0  0  0  0
  131.2609  131.2244   59.3593 H   0  0  0  0  0  0  0  0  0  0  0  0
  128.4361  133.7678   57.9894 H   0  0  0  0  0  0  0  0  0  0  0  0
  128.3510  132.4995   56.7686 H   0  0  0  0  0  0  0  0  0  0  0  0
  2  1  1  1
  2  3  1  0
  3  4  1  0
  4  5  1  0
  5  6  1  0
  6  7  1  0
  7  8  1  0
  8  9  1  0
  9 10  1  6
  9 11  1  0
 11 12  1  0
 12 13  1  0
 12 14  1  0
 14 15  1  0
 15 16  1  0
 16 17  1  6
 17 18  2  0
 19 18  1  1
 19 20  1  0
 20 21  1  0
 21 22  1  0
 22 23  1  0
 23 24  1  0
 24 25  1  0
 25 26  1  0
 25 27  1  0
 23 28  1  0
  6 29  1  0
 29 30  1  6
 29 31  1  0
 31 32  1  0
 32 33  1  0
 33 34  1  0
 34 35  2  0
 35 36  1  0
 36 37  2  0
 36 38  1  0
 38 39  1  0
 29  2  1  0
 39 34  1  0
 33  2  1  0
 16  5  1  0
 27 19  1  0
 16  9  1  0
 28 19  1  0
 26 21  1  0
  1 40  1  0
  1 41  1  0
  1 42  1  0
  3 43  1  0
  3 44  1  0
  4 45  1  0
  4 46  1  0
  5 47  1  6
  6 48  1  1
  7 49  1  0
  7 50  1  0
  8 51  1  0
  8 52  1  0
 10 53  1  0
 11 54  1  0
 11 55  1  0
 12 56  1  1
 13 57  1  0
 14 58  1  0
 14 59  1  0
 15 60  1  0
 15 61  1  0
 17 62  1  0
 18 63  1  0
 20 64  1  0
 20 65  1  0
 21 66  1  6
 22 67  1  0
 22 68  1  0
 23 69  1  6
 24 70  1  0
 24 71  1  0
 25 72  1  1
 26 73  1  0
 26 74  1  0
 27 75  1  0
 27 76  1  0
 28 77  1  0
 28 78  1  0
 30 79  1  0
 31 80  1  0
 31 81  1  0
 32 82  1  0
 32 83  1  0
 33 84  1  6
 35 85  1  0
 39 86  1  0
 39 87  1  0
M  CHG  1  18   1
M  END
>  <Binding energies>  (1) 
[-9.85]

>  <Ligand effiencies>  (1) 
[-0.22906976744186044]

>  <Interactions>  (1) 
["V-B:PRO:540:CA:9855, H-A:GLU:543:OE2:4910, V-B:TYR:539:CE1:9847, V-B:TYR:539:CE2:9848, V-B:GLU:543:CG:9879, V-A:TYR:539:CD1:4873, V-B:TYR:539:CZ:9849, H-B:GLU:543:OE1:9881, H-B:TYR:539:OH:9850, V-B:PRO:540:CB:9857, V-B:PRO:540:N:9856, V-B:TYR:539:CD2:9846, V-B:PRO:540:CD:9859, V-B:GLU:543:CD:9880, V-A:TYR:539:C:4867, V-A:ARG:545:CZ:4926, H-A:GLU:543:OE1:4909, V-A:PRO:540:N:4884, V-A:TYR:539:CG:4872, H-A:TYR:539:N:4870, H-B:GLU:543:OE2:9882, V-A:PRO:540:CA:4883, V-A:PRO:540:CB:4885, H-A:ASP:366:OD2:3215, V-A:PRO:540:CD:4887, V-A:TYR:539:CE1:4875, H-A:TYR:484:OH:4348"]

$$$$
ZINC1857526263
     RDKit          3D

 68 72  0  0  0  0  0  0  0  0999 V2000
  129.5010  130.6780   73.3080 C   0  0  0  0  0  0  0  0  0  0  0  0
  130.2200  129.4840   73.0160 O   0  0  0  0  0  0  0  0  0  0  0  0
  129.7890  128.6740   71.9830 C   0  0  0  0  0  0  0  0  0  0  0  0
  128.5000  128.1560   72.1010 C   0  0  0  0  0  0  0  0  0  0  0  0
  127.9360  127.3150   71.1430 C   0  0  0  0  0  0  0  0  0  0  0  0
  128.7270  126.9940   70.0370 C   0  0  0  0  0  0  0  0  0  0  0  0
  128.4700  126.1980   68.9440 N   0  0  0  0  0  0  0  0  0  0  0  0
  129.5640  126.1800   68.1180 C   0  0  0  0  0  0  0  0  0  0  0  0
  130.5780  126.9630   68.6410 C   0  0  0  0  0  0  0  0  0  0  0  0
  131.9610  127.2010   68.0640 C   0  0  0  0  0  0  0  0  0  0  0  0
  132.5000  126.0040   67.2640 C   0  0  0  0  0  0  0  0  0  0  0  0
  131.4580  125.3080   66.5220 N   0  0  0  0  0  0  0  0  0  0  0  0
  131.0510  125.5340   65.2170 C   0  0  0  0  0  0  0  0  0  0  0  0
  129.5940  126.0170   65.1640 C   0  0  0  0  0  0  0  0  0  0  0  0
  131.8340  125.3110   64.1140 C   0  0  0  0  0  0  0  0  0  0  0  0
  133.2220  124.7850   64.2220 C   0  0  0  0  0  0  0  0  0  0  0  0
  133.9640  125.0570   65.1670 O   0  0  0  0  0  0  0  0  0  0  0  0
  133.6810  123.7800   63.1460 C   0  0  0  0  0  0  0  0  0  0  0  0
  133.1160  124.0450   61.7240 C   0  0  1  0  0  0  0  0  0  0  0  0
  133.5620  122.9180   60.7690 C   0  0  0  0  0  0  0  0  0  0  0  0
  131.6030  124.4310   61.7250 C   0  0  1  0  0  0  0  0  0  0  0  0
  131.2570  124.9570   60.4400 O   0  0  0  0  0  0  0  0  0  0  0  0
  130.2210  124.2040   59.9490 C   0  0  0  0  0  0  0  0  0  0  0  0
  129.6090  124.4260   58.7180 C   0  0  0  0  0  0  0  0  0  0  0  0
  130.1450  125.7260   57.7090 Cl  0  0  0  0  0  0  0  0  0  0  0  0
  128.5630  123.5850   58.3120 C   0  0  0  0  0  0  0  0  0  0  0  0
  127.9840  123.8420   57.0810 O   0  0  0  0  0  0  0  0  0  0  0  0
  127.1770  122.8460   56.4640 C   0  0  0  0  0  0  0  0  0  0  0  0
  128.1610  122.5360   59.1640 C   0  0  0  0  0  0  0  0  0  0  0  0
  128.7870  122.3190   60.4060 C   0  0  0  0  0  0  0  0  0  0  0  0
  128.4530  121.3170   61.2980 O   0  0  0  0  0  0  0  0  0  0  0  0
  129.4260  120.3340   61.6300 C   0  0  0  0  0  0  0  0  0  0  0  0
  129.8260  123.1750   60.7820 C   0  0  0  0  0  0  0  0  0  0  0  0
  130.6680  123.2320   61.9810 C   0  0  0  0  0  0  0  0  0  0  0  0
  130.6420  122.4890   62.9630 O   0  0  0  0  0  0  0  0  0  0  0  0
  131.3380  125.5670   62.7480 C   0  0  0  0  0  0  0  0  0  0  0  0
  130.7850  126.6280   62.4430 O   0  0  0  0  0  0  0  0  0  0  0  0
  130.0510  127.5000   69.8710 C   0  0  0  0  0  0  0  0  0  0  0  0
  130.5660  128.3560   70.8580 C   0  0  0  0  0  0  0  0  0  0  0  0
  129.4256  130.8033   74.3982 H   0  0  0  0  0  0  0  0  0  0  0  0
  130.0304  131.5399   72.8757 H   0  0  0  0  0  0  0  0  0  0  0  0
  128.4916  130.6132   72.8757 H   0  0  0  0  0  0  0  0  0  0  0  0
  127.9037  128.4218   72.9863 H   0  0  0  0  0  0  0  0  0  0  0  0
  126.9145  126.9219   71.2528 H   0  0  0  0  0  0  0  0  0  0  0  0
  127.6250  125.6830   68.7400 H   0  0  0  0  0  0  0  0  0  0  0  0
  129.6269  125.6216   67.1724 H   0  0  0  0  0  0  0  0  0  0  0  0
  131.9156  128.0747   67.3972 H   0  0  0  0  0  0  0  0  0  0  0  0
  132.6444  127.3613   68.9109 H   0  0  0  0  0  0  0  0  0  0  0  0
  133.2553  126.3682   66.5521 H   0  0  0  0  0  0  0  0  0  0  0  0
  132.9287  125.2903   67.9829 H   0  0  0  0  0  0  0  0  0  0  0  0
  131.4010  124.3470   66.8250 H   0  0  0  0  0  0  0  0  0  0  0  0
  129.2122  126.1436   66.1878 H   0  0  0  0  0  0  0  0  0  0  0  0
  129.5458  126.9792   64.6331 H   0  0  0  0  0  0  0  0  0  0  0  0
  128.9805  125.2742   64.6331 H   0  0  0  0  0  0  0  0  0  0  0  0
  134.7790  123.8161   63.0902 H   0  0  0  0  0  0  0  0  0  0  0  0
  133.2942  122.7976   63.4548 H   0  0  0  0  0  0  0  0  0  0  0  0
  133.5591  124.9614   61.3071 H   0  0  0  0  0  0  0  0  0  0  0  0
  133.9042  122.0534   61.3567 H   0  0  0  0  0  0  0  0  0  0  0  0
  132.7148  122.6181   60.1348 H   0  0  0  0  0  0  0  0  0  0  0  0
  134.3850  123.2791   60.1348 H   0  0  0  0  0  0  0  0  0  0  0  0
  126.6859  122.2398   57.2395 H   0  0  0  0  0  0  0  0  0  0  0  0
  126.4128  123.3294   55.8377 H   0  0  0  0  0  0  0  0  0  0  0  0
  127.8084  122.1986   55.8377 H   0  0  0  0  0  0  0  0  0  0  0  0
  127.3407  121.8730   58.8515 H   0  0  0  0  0  0  0  0  0  0  0  0
  129.5065  120.2526   62.7240 H   0  0  0  0  0  0  0  0  0  0  0  0
  129.1236  119.3628   61.2114 H   0  0  0  0  0  0  0  0  0  0  0  0
  130.4003  120.6264   61.2114 H   0  0  0  0  0  0  0  0  0  0  0  0
  131.5766  128.7766   70.7497 H   0  0  0  0  0  0  0  0  0  0  0  0
  1  2  1  0
  2  3  1  0
  3  4  2  0
  4  5  1  0
  5  6  2  0
  6  7  1  0
  7  8  1  0
  8  9  2  0
  9 10  1  0
 10 11  1  0
 11 12  1  0
 12 13  1  0
 13 14  1  0
 13 15  2  0
 15 16  1  0
 16 17  2  0
 16 18  1  0
 18 19  1  0
 19 20  1  0
 19 21  1  0
 21 22  1  6
 22 23  1  0
 23 24  2  0
 24 25  1  0
 24 26  1  0
 26 27  1  0
 27 28  1  0
 26 29  2  0
 29 30  1  0
 30 31  1  0
 31 32  1  0
 30 33  2  0
 33 34  1  0
 34 35  2  0
 21 36  1  0
 36 37  2  0
  9 38  1  0
 38 39  2  0
 39  3  1  0
 38  6  1  0
 36 15  1  0
 34 21  1  0
 33 23  1  0
  1 40  1  0
  1 41  1  0
  1 42  1  0
  4 43  1  0
  5 44  1  0
  7 45  1  0
  8 46  1  0
 10 47  1  0
 10 48  1  0
 11 49  1  0
 11 50  1  0
 12 51  1  0
 14 52  1  0
 14 53  1  0
 14 54  1  0
 18 55  1  0
 18 56  1  0
 19 57  1  6
 20 58  1  0
 20 59  1  0
 20 60  1  0
 28 61  1  0
 28 62  1  0
 28 63  1  0
 29 64  1  0
 32 65  1  0
 32 66  1  0
 32 67  1  0
 39 68  1  0
M  END
>  <Binding energies>  (1) 
[-8.44]

>  <Ligand effiencies>  (1) 
[-0.20585365853658535]

>  <Interactions>  (1) 
["V-A:ILE:369:CG2:3237, V-B:PRO:540:CA:9855, V-A:GLY:454:CA:4049, V-B:HIS:456:CD2:9039, V-B:GLU:543:C:9874, H-B:GLU:543:O:9875, V-A:GLU:543:C:4902, V-B:GLU:543:CB:9878, V-B:ALA:541:CB:9864, H-A:ARG:545:NH1:4927, V-B:TYR:539:CE2:9848, V-A:GLY:544:C:4912, V-B:GLU:543:CG:9879, V-B:TYR:539:C:9839, V-B:TYR:539:CZ:9849, H-B:ALA:541:N:9863, V-A:GLU:543:CD:4908, V-A:TYR:484:CZ:4347, V-B:HIS:456:CE1:9041, V-A:ARG:545:CG:4922, H-A:GLY:454:N:4050, V-B:GLU:543:CA:9876, V-B:PRO:540:N:9856, V-A:HIS:456:CE1:4070, V-A:ILE:369:CD1:3239, V-B:TYR:539:CD2:9846, V-B:GLU:543:CD:9880, V-A:ARG:545:CD:4923, H-A:LYS:547:NZ:4951, H-A:ARG:545:NH2:4928, V-A:ARG:545:CZ:4926, V-A:LEU:475:CD2:4259, V-A:GLU:543:CB:4906, V-B:TYR:539:CD1:9845, V-A:LYS:547:CE:4950, H-A:ARG:545:NE:4924, V-B:PRO:540:C:9853, V-B:ALA:541:CA:9862, V-B:TYR:539:CE1:9847, H-A:TYR:484:OH:4348"]

$$$$
ZINC1857547135
     RDKit          3D

114117  0  0  0  0  0  0  0  0999 V2000
  134.3330  122.2840   60.9800 C   0  0  0  0  0  0  0  0  0  0  0  0
  132.8950  122.7230   61.3240 C   0  0  2  0  0  0  0  0  0  0  0  0
  132.6290  122.7530   62.8530 C   0  0  0  0  0  0  0  0  0  0  0  0
  131.9030  123.9700   63.4980 C   0  0  2  0  0  0  0  0  0  0  0  0
  132.8450  125.1520   63.8110 C   0  0  0  0  0  0  0  0  0  0  0  0
  131.1430  123.5680   64.7930 C   0  0  0  0  0  0  0  0  0  0  0  0
  129.5840  123.4710   64.7110 C   0  0  2  0  0  0  0  0  0  0  0  0
  129.0700  122.1550   65.3320 C   0  0  0  0  0  0  0  0  0  0  0  0
  128.9850  123.6760   63.2830 C   0  0  1  0  0  0  0  0  0  0  0  0
  127.8510  122.8450   63.1240 O   0  0  0  0  0  0  0  0  0  0  0  0
  128.6950  125.1620   62.9120 C   0  0  0  0  0  0  0  0  0  0  0  0
  127.9680  125.3690   61.5800 C   0  0  0  0  0  0  0  0  0  0  0  0
  127.2400  124.5030   61.0960 O   0  0  0  0  0  0  0  0  0  0  0  0
  128.2260  126.5910   61.0540 O   0  0  0  0  0  0  0  0  0  0  0  0
  129.1750  127.4890   61.6290 C   0  0  2  0  0  0  0  0  0  0  0  0
  128.5370  128.8990   61.8160 C   0  0  2  0  0  0  0  0  0  0  0  0
  129.0290  129.9980   60.8550 C   0  0  0  0  0  0  0  0  0  0  0  0
  128.7460  131.3060   61.5930 C   0  0  0  0  0  0  0  0  0  0  0  0
  129.0580  130.9890   63.0560 C   0  0  0  0  0  0  0  0  0  0  0  0
  128.7180  129.4920   63.2430 C   0  0  1  0  0  0  0  0  0  0  0  0
  127.4560  129.2580   64.0990 C   0  0  0  0  0  0  0  0  0  0  0  0
  126.6260  128.3860   63.8280 O   0  0  0  0  0  0  0  0  0  0  0  0
  127.3820  130.1200   65.1350 O   0  0  0  0  0  0  0  0  0  0  0  0
  128.1040  129.8790   66.3370 C   0  0  0  0  0  0  0  0  0  0  0  0
  127.9240  128.4170   66.7940 C   0  0  0  0  0  0  0  0  0  0  0  0
  128.0400  128.2440   68.2470 N   0  0  0  0  0  0  0  0  0  0  0  0
  127.2440  127.1080   68.7280 C   0  0  0  0  0  0  0  0  0  0  0  0
  127.2980  126.9810   70.2660 C   0  0  0  0  0  0  0  0  0  0  0  0
  128.7030  126.9970   70.7180 N   0  0  0  0  0  0  0  0  0  0  0  0
  128.9920  126.3380   71.9290 C   0  0  0  0  0  0  0  0  0  0  0  0
  128.2250  125.5720   72.5210 O   0  0  0  0  0  0  0  0  0  0  0  0
  130.2460  126.6130   72.3750 O   0  0  0  0  0  0  0  0  0  0  0  0
  130.5910  127.9110   72.8450 C   0  0  0  0  0  0  0  0  0  0  0  0
  129.5160  128.4050   73.7950 C   0  0  0  0  0  0  0  0  0  0  0  0
  128.8650  129.6140   73.5410 C   0  0  0  0  0  0  0  0  0  0  0  0
  127.8800  130.0670   74.4140 C   0  0  0  0  0  0  0  0  0  0  0  0
  127.5520  129.3110   75.5370 C   0  0  0  0  0  0  0  0  0  0  0  0
  128.1990  128.1040   75.7950 C   0  0  0  0  0  0  0  0  0  0  0  0
  129.1850  127.6510   74.9230 C   0  0  0  0  0  0  0  0  0  0  0  0
  129.6450  127.9840   70.1430 C   0  0  0  0  0  0  0  0  0  0  0  0
  129.4470  128.0600   68.6120 C   0  0  0  0  0  0  0  0  0  0  0  0
  130.4550  127.4380   60.7570 C   0  0  0  0  0  0  0  0  0  0  0  0
  130.1900  127.1170   59.2910 C   0  0  0  0  0  0  0  0  0  0  0  0
  130.0300  125.9070   58.7150 C   0  0  0  0  0  0  0  0  0  0  0  0
  130.0980  124.6130   59.3850 C   0  0  0  0  0  0  0  0  0  0  0  0
  129.2180  123.6000   59.1880 C   0  0  0  0  0  0  0  0  0  0  0  0
  128.1060  123.7640   58.3040 C   0  0  0  0  0  0  0  0  0  0  0  0
  127.2020  123.9210   57.5990 N   0  0  0  0  0  0  0  0  0  0  0  0
  129.2560  122.2450   59.9210 C   0  0  2  0  0  0  0  0  0  0  0  0
  127.9850  121.9230   60.4660 O   0  0  0  0  0  0  0  0  0  0  0  0
  130.3420  122.0470   61.0270 C   0  0  1  0  0  0  0  0  0  0  0  0
  129.9840  120.9610   62.0650 C   0  0  0  0  0  0  0  0  0  0  0  0
  131.8080  121.9550   60.5160 C   0  0  0  0  0  0  0  0  0  0  0  0
  134.8961  122.1121   61.9092 H   0  0  0  0  0  0  0  0  0  0  0  0
  134.3020  121.3544   60.3927 H   0  0  0  0  0  0  0  0  0  0  0  0
  134.8265  123.0724   60.3927 H   0  0  0  0  0  0  0  0  0  0  0  0
  132.8085  123.7673   60.9894 H   0  0  0  0  0  0  0  0  0  0  0  0
  132.0251  121.8638   63.0868 H   0  0  0  0  0  0  0  0  0  0  0  0
  133.6403  122.8081   63.2823 H   0  0  0  0  0  0  0  0  0  0  0  0
  131.1835  124.3061   62.7369 H   0  0  0  0  0  0  0  0  0  0  0  0
  132.9377  125.2683   64.9009 H   0  0  0  0  0  0  0  0  0  0  0  0
  133.8367  124.9553   63.3776 H   0  0  0  0  0  0  0  0  0  0  0  0
  132.4319  126.0748   63.3776 H   0  0  0  0  0  0  0  0  0  0  0  0
  131.5192  122.5822   65.1040 H   0  0  0  0  0  0  0  0  0  0  0  0
  131.3374  124.3882   65.4998 H   0  0  0  0  0  0  0  0  0  0  0  0
  129.2219  124.3233   65.3047 H   0  0  0  0  0  0  0  0  0  0  0  0
  129.0997  122.2311   66.4290 H   0  0  0  0  0  0  0  0  0  0  0  0
  128.0354  121.9747   65.0048 H   0  0  0  0  0  0  0  0  0  0  0  0
  129.7086  121.3212   65.0048 H   0  0  0  0  0  0  0  0  0  0  0  0
  129.7586  123.3754   62.5610 H   0  0  0  0  0  0  0  0  0  0  0  0
  127.4440  123.0390   62.2760 H   0  0  0  0  0  0  0  0  0  0  0  0
  128.0755  125.5977   63.7097 H   0  0  0  0  0  0  0  0  0  0  0  0
  129.6760  125.6480   62.8044 H   0  0  0  0  0  0  0  0  0  0  0  0
  129.4736  127.1971   62.6467 H   0  0  0  0  0  0  0  0  0  0  0  0
  127.4847  128.6624   61.6000 H   0  0  0  0  0  0  0  0  0  0  0  0
  130.1055  129.8882   60.6572 H   0  0  0  0  0  0  0  0  0  0  0  0
  128.5285  129.9529   59.8765 H   0  0  0  0  0  0  0  0  0  0  0  0
  129.3963  132.1117   61.2215 H   0  0  0  0  0  0  0  0  0  0  0  0
  127.7126  131.6546   61.4495 H   0  0  0  0  0  0  0  0  0  0  0  0
  130.1219  131.1699   63.2689 H   0  0  0  0  0  0  0  0  0  0  0  0
  128.4784  131.6251   63.7412 H   0  0  0  0  0  0  0  0  0  0  0  0
  129.5315  128.9965   63.7932 H   0  0  0  0  0  0  0  0  0  0  0  0
  129.1723  130.0743   66.1624 H   0  0  0  0  0  0  0  0  0  0  0  0
  127.7187  130.5462   67.1222 H   0  0  0  0  0  0  0  0  0  0  0  0
  126.9274  128.0733   66.4800 H   0  0  0  0  0  0  0  0  0  0  0  0
  128.7303  127.8294   66.3307 H   0  0  0  0  0  0  0  0  0  0  0  0
  126.1979  127.2498   68.4188 H   0  0  0  0  0  0  0  0  0  0  0  0
  127.6631  126.1883   68.2938 H   0  0  0  0  0  0  0  0  0  0  0  0
  126.7578  127.8240   70.7216 H   0  0  0  0  0  0  0  0  0  0  0  0
  126.8286  126.0337   70.5698 H   0  0  0  0  0  0  0  0  0  0  0  0
  131.5549  127.8660   73.3730 H   0  0  0  0  0  0  0  0  0  0  0  0
  130.6731  128.6009   71.9922 H   0  0  0  0  0  0  0  0  0  0  0  0
  129.1299  130.2069   72.6532 H   0  0  0  0  0  0  0  0  0  0  0  0
  127.3629  131.0179   74.2179 H   0  0  0  0  0  0  0  0  0  0  0  0
  126.7744  129.6703   76.2271 H   0  0  0  0  0  0  0  0  0  0  0  0
  127.9320  127.5123   76.6830 H   0  0  0  0  0  0  0  0  0  0  0  0
  129.7025  126.7009   75.1220 H   0  0  0  0  0  0  0  0  0  0  0  0
  129.4548  128.9727   70.5861 H   0  0  0  0  0  0  0  0  0  0  0  0
  130.6774  127.6741   70.3626 H   0  0  0  0  0  0  0  0  0  0  0  0
  130.0288  128.9076   68.2207 H   0  0  0  0  0  0  0  0  0  0  0  0
  129.7879  127.1082   68.1786 H   0  0  0  0  0  0  0  0  0  0  0  0
  130.9516  128.4179   60.8129 H   0  0  0  0  0  0  0  0  0  0  0  0
  131.0803  126.6249   61.1543 H   0  0  0  0  0  0  0  0  0  0  0  0
  130.1202  127.9825   58.6157 H   0  0  0  0  0  0  0  0  0  0  0  0
  129.8284  125.8954   57.6337 H   0  0  0  0  0  0  0  0  0  0  0  0
  130.9188  124.4476   60.0985 H   0  0  0  0  0  0  0  0  0  0  0  0
  129.5502  121.5568   59.1149 H   0  0  0  0  0  0  0  0  0  0  0  0
  127.6670  122.6810   60.9640 H   0  0  0  0  0  0  0  0  0  0  0  0
  130.3182  123.0012   61.5737 H   0  0  0  0  0  0  0  0  0  0  0  0
  130.1172  121.3652   63.0793 H   0  0  0  0  0  0  0  0  0  0  0  0
  128.9369  120.6533   61.9275 H   0  0  0  0  0  0  0  0  0  0  0  0
  130.6429  120.0910   61.9275 H   0  0  0  0  0  0  0  0  0  0  0  0
  132.0899  120.8918   60.5104 H   0  0  0  0  0  0  0  0  0  0  0  0
  131.7941  122.4403   59.5289 H   0  0  0  0  0  0  0  0  0  0  0  0
  1  2  1  0
  2  3  1  0
  3  4  1  0
  4  5  1  0
  4  6  1  0
  6  7  1  0
  7  8  1  0
  7  9  1  0
  9 10  1  0
  9 11  1  0
 11 12  1  0
 12 13  2  0
 12 14  1  0
 14 15  1  0
 15 16  1  0
 16 17  1  0
 17 18  1  0
 18 19  1  0
 19 20  1  0
 20 21  1  0
 21 22  2  0
 21 23  1  0
 23 24  1  0
 24 25  1  0
 25 26  1  0
 26 27  1  0
 27 28  1  0
 28 29  1  0
 29 30  1  0
 30 31  2  0
 30 32  1  0
 32 33  1  0
 33 34  1  0
 34 35  2  0
 35 36  1  0
 36 37  2  0
 37 38  1  0
 38 39  2  0
 29 40  1  0
 40 41  1  0
 15 42  1  0
 42 43  1  0
 43 44  2  0
 44 45  1  0
 45 46  2  0
 46 47  1  0
 47 48  3  0
 46 49  1  0
 49 50  1  0
 49 51  1  0
 51 52  1  0
 51 53  1  0
 53  2  1  0
 20 16  1  0
 41 26  1  0
 39 34  1  0
  1 54  1  0
  1 55  1  0
  1 56  1  0
  2 57  1  6
  3 58  1  0
  3 59  1  0
  4 60  1  6
  5 61  1  0
  5 62  1  0
  5 63  1  0
  6 64  1  0
  6 65  1  0
  7 66  1  1
  8 67  1  0
  8 68  1  0
  8 69  1  0
  9 70  1  6
 10 71  1  0
 11 72  1  0
 11 73  1  0
 15 74  1  1
 16 75  1  6
 17 76  1  0
 17 77  1  0
 18 78  1  0
 18 79  1  0
 19 80  1  0
 19 81  1  0
 20 82  1  1
 24 83  1  0
 24 84  1  0
 25 85  1  0
 25 86  1  0
 27 87  1  0
 27 88  1  0
 28 89  1  0
 28 90  1  0
 33 91  1  0
 33 92  1  0
 35 93  1  0
 36 94  1  0
 37 95  1  0
 38 96  1  0
 39 97  1  0
 40 98  1  0
 40 99  1  0
 41100  1  0
 41101  1  0
 42102  1  0
 42103  1  0
 43104  1  0
 44105  1  0
 45106  1  0
 49107  1  6
 50108  1  0
 51109  1  1
 52110  1  0
 52111  1  0
 52112  1  0
 53113  1  0
 53114  1  0
M  END
>  <Binding energies>  (1) 
[-3.78]

>  <Ligand effiencies>  (1) 
[-0.0663157894736842]

>  <Interactions>  (1) 
["V-A:ILE:369:CG2:3237, V-B:PRO:540:CA:9855, V-B:GLU:543:C:9874, V-A:ILE:369:CB:3236, V-B:HIS:456:CD2:9039, V-B:GLU:543:CB:9878, H-B:LYS:547:NZ:9923, V-B:ALA:541:CB:9864, V-B:TYR:539:CE2:9848, V-A:TYR:484:CE2:4346, V-B:GLU:543:CG:9879, V-A:GLY:544:C:4912, V-B:TYR:539:C:9839, V-A:HIS:456:CD2:4068, V-B:TYR:484:CE2:9317, V-B:TYR:539:CZ:9849, H-B:GLU:543:OE1:9881, H-B:ALA:541:N:9863, V-A:GLU:543:CD:4908, V-A:TYR:484:CZ:4347, H-B:TYR:484:OH:9319, V-B:GLU:543:CA:9876, V-B:HIS:456:CE1:9041, V-A:ILE:369:CD1:3239, V-B:TYR:484:CZ:9318, V-A:HIS:456:CE1:4070, V-B:GLY:544:C:9884, V-B:TYR:539:CD2:9846, V-A:GLU:543:CG:4907, V-B:GLU:543:CD:9880, V-B:HIS:456:CG:9037, V-A:ILE:369:CG1:3238, V-A:LEU:475:CD2:4259, V-A:ARG:545:CZ:4926, H-B:ARG:545:NH2:9900, V-A:GLU:543:CB:4906"]

$$$$
ZINC1857547740
     RDKit          3D

 69 72  0  0  0  0  0  0  0  0999 V2000
  134.1300  123.8810   60.4170 C   0  0  0  0  0  0  0  0  0  0  0  0
  133.6570  125.0770   59.8140 O   0  0  0  0  0  0  0  0  0  0  0  0
  132.8420  125.0300   58.7300 C   0  0  0  0  0  0  0  0  0  0  0  0
  133.2390  124.9390   57.5640 O   0  0  0  0  0  0  0  0  0  0  0  0
  131.3340  125.1510   59.0920 C   0  0  1  0  0  0  0  0  0  0  0  0
  130.5750  124.8520   57.9270 O   0  0  0  0  0  0  0  0  0  0  0  0
  130.8990  124.1680   60.1910 C   0  0  0  0  0  0  0  0  0  0  0  0
  131.0490  122.9440   60.1700 O   0  0  0  0  0  0  0  0  0  0  0  0
  130.2420  124.9830   61.3370 C   0  0  0  0  0  0  0  0  0  0  0  0
  128.7280  124.5950   61.4210 C   0  0  0  0  0  0  0  0  0  0  0  0
  128.1990  123.6620   60.3300 C   0  0  0  0  0  0  0  0  0  0  0  0
  127.6870  123.9850   59.1220 C   0  0  0  0  0  0  0  0  0  0  0  0
  127.2130  122.9060   58.1610 C   0  0  0  0  0  0  0  0  0  0  0  0
  127.5280  125.4000   58.5840 C   0  0  0  0  0  0  0  0  0  0  0  0
  130.9580  124.6530   62.6890 C   0  0  0  0  0  0  0  0  0  0  0  0
  130.2240  125.0390   63.9740 C   0  0  0  0  0  0  0  0  0  0  0  0
  130.7440  125.3560   65.1800 C   0  0  0  0  0  0  0  0  0  0  0  0
  129.8430  125.7210   66.3480 C   0  0  0  0  0  0  0  0  0  0  0  0
  132.2280  125.3950   65.5160 C   0  0  0  0  0  0  0  0  0  0  0  0
  130.4340  126.4360   60.9010 C   0  0  0  0  0  0  0  0  0  0  0  0
  131.0060  126.5010   59.6880 C   0  0  0  0  0  0  0  0  0  0  0  0
  131.2860  127.6330   59.0010 O   0  0  0  0  0  0  0  0  0  0  0  0
  130.9740  128.8450   59.5880 C   0  0  0  0  0  0  0  0  0  0  0  0
  131.2980  129.9920   58.8580 C   0  0  0  0  0  0  0  0  0  0  0  0
  130.9790  131.2460   59.3830 C   0  0  0  0  0  0  0  0  0  0  0  0
  130.3840  131.3620   60.6330 C   0  0  0  0  0  0  0  0  0  0  0  0
  130.0720  130.2180   61.3690 C   0  0  0  0  0  0  0  0  0  0  0  0
  129.4820  130.4150   62.5930 O   0  0  0  0  0  0  0  0  0  0  0  0
  130.3600  128.9310   60.8600 C   0  0  0  0  0  0  0  0  0  0  0  0
  130.0380  127.6590   61.6100 C   0  0  0  0  0  0  0  0  0  0  0  0
  129.4920  127.6460   62.7130 O   0  0  0  0  0  0  0  0  0  0  0  0
  131.2890  132.4130   58.6970 O   0  0  0  0  0  0  0  0  0  0  0  0
  131.2510  132.3510   57.2480 C   0  0  0  0  0  0  0  0  0  0  0  0
  132.0620  133.5600   56.7510 C   0  0  0  0  0  0  0  0  0  0  0  0
  129.7740  132.3570   56.7950 C   0  0  0  0  0  0  0  0  0  0  0  0
  131.9250  131.0610   56.7580 C   0  0  0  0  0  0  0  0  0  0  0  0
  131.9000  129.9570   57.5200 C   0  0  0  0  0  0  0  0  0  0  0  0
  134.0902  123.9817   61.5117 H   0  0  0  0  0  0  0  0  0  0  0  0
  133.4979  123.0373   60.1031 H   0  0  0  0  0  0  0  0  0  0  0  0
  135.1683  123.6979   60.1031 H   0  0  0  0  0  0  0  0  0  0  0  0
  131.1200  125.0280   57.1560 H   0  0  0  0  0  0  0  0  0  0  0  0
  128.5629  124.1023   62.3905 H   0  0  0  0  0  0  0  0  0  0  0  0
  128.1787  125.5386   61.2875 H   0  0  0  0  0  0  0  0  0  0  0  0
  128.2410  122.5869   60.5591 H   0  0  0  0  0  0  0  0  0  0  0  0
  126.8351  122.0458   58.7330 H   0  0  0  0  0  0  0  0  0  0  0  0
  126.4082  123.3071   57.5274 H   0  0  0  0  0  0  0  0  0  0  0  0
  128.0528  122.5846   57.5274 H   0  0  0  0  0  0  0  0  0  0  0  0
  127.4488  126.1051   59.4246 H   0  0  0  0  0  0  0  0  0  0  0  0
  128.4027  125.6590   57.9693 H   0  0  0  0  0  0  0  0  0  0  0  0
  126.6176  125.4584   57.9693 H   0  0  0  0  0  0  0  0  0  0  0  0
  131.1291  123.5668   62.7177 H   0  0  0  0  0  0  0  0  0  0  0  0
  131.8716  125.2656   62.6861 H   0  0  0  0  0  0  0  0  0  0  0  0
  129.1262  125.0615   63.9075 H   0  0  0  0  0  0  0  0  0  0  0  0
  130.3644  125.5098   67.2933 H   0  0  0  0  0  0  0  0  0  0  0  0
  129.5934  126.7911   66.2981 H   0  0  0  0  0  0  0  0  0  0  0  0
  128.9190  125.1263   66.2981 H   0  0  0  0  0  0  0  0  0  0  0  0
  132.3566  125.3984   66.6084 H   0  0  0  0  0  0  0  0  0  0  0  0
  132.7235  124.5096   65.0912 H   0  0  0  0  0  0  0  0  0  0  0  0
  132.6763  126.3052   65.0912 H   0  0  0  0  0  0  0  0  0  0  0  0
  130.1584  132.3573   61.0434 H   0  0  0  0  0  0  0  0  0  0  0  0
  129.7250  129.7460   63.2380 H   0  0  0  0  0  0  0  0  0  0  0  0
  132.4420  134.1264   57.6140 H   0  0  0  0  0  0  0  0  0  0  0  0
  132.9079  133.2087   56.1418 H   0  0  0  0  0  0  0  0  0  0  0  0
  131.4161  134.2094   56.1418 H   0  0  0  0  0  0  0  0  0  0  0  0
  129.1194  132.3597   57.6790 H   0  0  0  0  0  0  0  0  0  0  0  0
  129.5791  133.2559   56.1917 H   0  0  0  0  0  0  0  0  0  0  0  0
  129.5718  131.4597   56.1917 H   0  0  0  0  0  0  0  0  0  0  0  0
  132.4292  131.0421   55.7805 H   0  0  0  0  0  0  0  0  0  0  0  0
  132.3332  129.0202   57.1397 H   0  0  0  0  0  0  0  0  0  0  0  0
  1  2  1  0
  2  3  1  0
  3  4  2  0
  3  5  1  0
  5  6  1  6
  5  7  1  0
  7  8  2  0
  7  9  1  0
  9 10  1  0
 10 11  1  0
 11 12  2  3
 12 13  1  0
 12 14  1  0
  9 15  1  0
 15 16  1  0
 16 17  2  3
 17 18  1  0
 17 19  1  0
  9 20  1  0
 20 21  2  0
 21 22  1  0
 22 23  1  0
 23 24  2  0
 24 25  1  0
 25 26  2  0
 26 27  1  0
 27 28  1  0
 27 29  2  0
 29 30  1  0
 30 31  2  0
 25 32  1  0
 32 33  1  0
 33 34  1  0
 33 35  1  0
 33 36  1  0
 36 37  2  0
 21  5  1  0
 29 23  1  0
 30 20  1  0
 37 24  1  0
  1 38  1  0
  1 39  1  0
  1 40  1  0
  6 41  1  0
 10 42  1  0
 10 43  1  0
 11 44  1  0
 13 45  1  0
 13 46  1  0
 13 47  1  0
 14 48  1  0
 14 49  1  0
 14 50  1  0
 15 51  1  0
 15 52  1  0
 16 53  1  0
 18 54  1  0
 18 55  1  0
 18 56  1  0
 19 57  1  0
 19 58  1  0
 19 59  1  0
 26 60  1  0
 28 61  1  0
 34 62  1  0
 34 63  1  0
 34 64  1  0
 35 65  1  0
 35 66  1  0
 35 67  1  0
 36 68  1  0
 37 69  1  0
M  END
>  <Binding energies>  (1) 
[-7.22]

>  <Ligand effiencies>  (1) 
[-0.18512820512820513]

>  <Interactions>  (1) 
["V-A:ILE:369:CG2:3237, V-A:ASP:366:CA:3210, V-B:PRO:540:CA:9855, V-A:PRO:540:CG:4886, H-A:GLU:543:OE2:4910, V-A:ILE:369:CB:3236, V-B:GLU:543:CB:9878, V-A:ILE:538:CB:4862, H-A:TYR:531:OH:4795, V-B:TYR:539:CE2:9848, V-B:GLU:543:CG:9879, V-B:TYR:539:C:9839, V-A:ASP:366:CG:3213, V-A:ILE:538:CG2:4863, V-A:LEU:363:CD1:3189, V-A:ILE:538:CA:4860, V-A:TYR:531:CE2:4793, H-B:TYR:539:OH:9850, V-B:PRO:540:CB:9857, V-B:PRO:540:N:9856, V-A:ILE:369:CD1:3239, V-A:TYR:531:CZ:4794, V-A:MET:535:CE:4835, V-B:GLU:543:CD:9880, V-A:ASP:366:CB:3212, V-A:ARG:545:CZ:4926, H-A:GLU:543:OE1:4909, V-A:PRO:540:N:4884, V-A:PRO:540:CB:4885, V-A:PRO:540:CA:4883, V-A:PRO:540:CD:4887"]

$$$$
ZINC1857555076
     RDKit          3D

 76 80  0  0  0  0  0  0  0  0999 V2000
  128.7370  132.6360   57.0920 C   0  0  0  0  0  0  0  0  0  0  0  0
  128.2380  132.6010   58.5540 C   0  0  2  0  0  0  0  0  0  0  0  0
  129.4190  132.8450   59.5430 C   0  0  0  0  0  0  0  0  0  0  0  0
  130.6210  131.8500   59.4790 C   0  0  1  0  0  0  0  0  0  0  0  0
  131.5140  132.0870   58.2440 C   0  0  0  0  0  0  0  0  0  0  0  0
  132.7120  131.1540   58.2910 C   0  0  0  0  0  0  0  0  0  0  0  0
  133.5580  131.4710   59.5280 C   0  0  0  0  0  0  0  0  0  0  0  0
  132.7670  131.6600   60.7660 N   0  0  0  0  0  0  0  0  0  0  0  0
  133.5590  131.6480   62.0010 C   0  0  0  0  0  0  0  0  0  0  0  0
  131.4150  131.8940   60.8280 C   0  0  0  0  0  0  0  0  0  0  0  0
  130.8300  132.0590   61.9020 O   0  0  0  0  0  0  0  0  0  0  0  0
  127.4670  131.2830   58.9170 C   0  0  1  0  0  0  0  0  0  0  0  0
  126.1880  131.0740   58.0560 C   0  0  0  0  0  0  0  0  0  0  0  0
  125.9680  129.5620   57.8990 C   0  0  0  0  0  0  0  0  0  0  0  0
  126.9990  128.9460   58.8460 C   0  0  1  0  0  0  0  0  0  0  0  0
  127.3860  127.4500   58.6680 C   0  0  2  0  0  0  0  0  0  0  0  0
  126.1230  126.5550   58.6660 C   0  0  0  0  0  0  0  0  0  0  0  0
  126.4570  125.0960   58.9150 C   0  0  0  0  0  0  0  0  0  0  0  0
  127.6490  124.6080   59.3210 C   0  0  0  0  0  0  0  0  0  0  0  0
  127.8740  123.0970   59.4540 C   0  0  0  0  0  0  0  0  0  0  0  0
  128.4570  122.7420   60.8340 C   0  0  1  0  0  0  0  0  0  0  0  0
  128.7020  121.3540   60.9340 O   0  0  0  0  0  0  0  0  0  0  0  0
  129.7330  123.5420   61.1360 C   0  0  0  0  0  0  0  0  0  0  0  0
  129.4840  125.0550   61.0000 C   0  0  0  0  0  0  0  0  0  0  0  0
  128.8700  125.5170   59.6390 C   0  0  1  0  0  0  0  0  0  0  0  0
  129.9080  125.3460   58.4960 C   0  0  0  0  0  0  0  0  0  0  0  0
  128.3940  127.0170   59.7800 C   0  0  1  0  0  0  0  0  0  0  0  0
  129.5620  128.0450   59.9540 C   0  0  0  0  0  0  0  0  0  0  0  0
  129.0800  129.5130   60.0360 C   0  0  0  0  0  0  0  0  0  0  0  0
  128.2140  129.9090   58.8060 C   0  0  2  0  0  0  0  0  0  0  0  0
  129.0260  129.8260   57.4740 C   0  0  0  0  0  0  0  0  0  0  0  0
  129.8342  132.7130   57.0808 H   0  0  0  0  0  0  0  0  0  0  0  0
  128.4288  131.7140   56.5772 H   0  0  0  0  0  0  0  0  0  0  0  0
  128.3031  133.5059   56.5772 H   0  0  0  0  0  0  0  0  0  0  0  0
  127.5091  133.4187   58.6539 H   0  0  0  0  0  0  0  0  0  0  0  0
  129.8129  133.8529   59.3457 H   0  0  0  0  0  0  0  0  0  0  0  0
  128.9851  132.7013   60.5435 H   0  0  0  0  0  0  0  0  0  0  0  0
  130.2272  130.8307   59.3524 H   0  0  0  0  0  0  0  0  0  0  0  0
  130.9337  131.8911   57.3303 H   0  0  0  0  0  0  0  0  0  0  0  0
  131.8645  133.1297   58.2429 H   0  0  0  0  0  0  0  0  0  0  0  0
  132.3634  130.1120   58.3424 H   0  0  0  0  0  0  0  0  0  0  0  0
  133.3206  131.2928   57.3852 H   0  0  0  0  0  0  0  0  0  0  0  0
  134.2599  130.6396   59.6894 H   0  0  0  0  0  0  0  0  0  0  0  0
  134.0695  132.4241   59.3283 H   0  0  0  0  0  0  0  0  0  0  0  0
  132.8841  131.6582   62.8695 H   0  0  0  0  0  0  0  0  0  0  0  0
  134.1798  130.7403   62.0297 H   0  0  0  0  0  0  0  0  0  0  0  0
  134.2070  132.5364   62.0297 H   0  0  0  0  0  0  0  0  0  0  0  0
  127.2858  131.4956   59.9810 H   0  0  0  0  0  0  0  0  0  0  0  0
  125.3209  131.5279   58.5581 H   0  0  0  0  0  0  0  0  0  0  0  0
  126.3068  131.5488   57.0709 H   0  0  0  0  0  0  0  0  0  0  0  0
  124.9464  129.2813   58.1950 H   0  0  0  0  0  0  0  0  0  0  0  0
  126.0848  129.2196   56.8602 H   0  0  0  0  0  0  0  0  0  0  0  0
  126.5311  128.8651   59.8382 H   0  0  0  0  0  0  0  0  0  0  0  0
  127.8812  127.3244   57.6939 H   0  0  0  0  0  0  0  0  0  0  0  0
  125.4408  126.9025   59.4558 H   0  0  0  0  0  0  0  0  0  0  0  0
  125.6556  126.6308   57.6731 H   0  0  0  0  0  0  0  0  0  0  0  0
  125.6511  124.3659   58.7489 H   0  0  0  0  0  0  0  0  0  0  0  0
  126.9125  122.5781   59.3261 H   0  0  0  0  0  0  0  0  0  0  0  0
  128.5900  122.7813   58.6809 H   0  0  0  0  0  0  0  0  0  0  0  0
  127.7064  123.0191   61.5888 H   0  0  0  0  0  0  0  0  0  0  0  0
  128.0440  120.8900   60.4100 H   0  0  0  0  0  0  0  0  0  0  0  0
  130.0598  123.3226   62.1632 H   0  0  0  0  0  0  0  0  0  0  0  0
  130.5082  123.2492   60.4126 H   0  0  0  0  0  0  0  0  0  0  0  0
  128.7957  125.3585   61.8026 H   0  0  0  0  0  0  0  0  0  0  0  0
  130.4741  125.5303   61.0611 H   0  0  0  0  0  0  0  0  0  0  0  0
  130.9059  125.1816   58.9285 H   0  0  0  0  0  0  0  0  0  0  0  0
  129.6305  124.4815   57.8750 H   0  0  0  0  0  0  0  0  0  0  0  0
  129.9225  126.2539   57.8750 H   0  0  0  0  0  0  0  0  0  0  0  0
  127.8404  127.0384   60.7303 H   0  0  0  0  0  0  0  0  0  0  0  0
  130.1042  127.8036   60.8801 H   0  0  0  0  0  0  0  0  0  0  0  0
  130.2031  127.9625   59.0640 H   0  0  0  0  0  0  0  0  0  0  0  0
  128.4798  129.6397   60.9491 H   0  0  0  0  0  0  0  0  0  0  0  0
  129.9675  130.1627   60.0513 H   0  0  0  0  0  0  0  0  0  0  0  0
  130.0963  129.7166   57.7032 H   0  0  0  0  0  0  0  0  0  0  0  0
  128.6854  128.9580   56.8904 H   0  0  0  0  0  0  0  0  0  0  0  0
  128.8681  130.7450   56.8904 H   0  0  0  0  0  0  0  0  0  0  0  0
  1  2  1  0
  2  3  1  0
  3  4  1  0
  4  5  1  0
  5  6  1  0
  6  7  1  0
  7  8  1  0
  8  9  1  0
  8 10  1  0
 10 11  2  0
  2 12  1  0
 12 13  1  0
 13 14  1  0
 14 15  1  0
 15 16  1  0
 16 17  1  0
 17 18  1  0
 18 19  2  0
 19 20  1  0
 20 21  1  0
 21 22  1  0
 21 23  1  0
 23 24  1  0
 24 25  1  0
 25 26  1  6
 25 27  1  0
 27 28  1  0
 28 29  1  0
 29 30  1  0
 30 31  1  6
 10  4  1  0
 30 12  1  0
 30 15  1  0
 27 16  1  0
 25 19  1  0
  1 32  1  0
  1 33  1  0
  1 34  1  0
  2 35  1  6
  3 36  1  0
  3 37  1  0
  4 38  1  6
  5 39  1  0
  5 40  1  0
  6 41  1  0
  6 42  1  0
  7 43  1  0
  7 44  1  0
  9 45  1  0
  9 46  1  0
  9 47  1  0
 12 48  1  1
 13 49  1  0
 13 50  1  0
 14 51  1  0
 14 52  1  0
 15 53  1  1
 16 54  1  6
 17 55  1  0
 17 56  1  0
 18 57  1  0
 20 58  1  0
 20 59  1  0
 21 60  1  1
 22 61  1  0
 23 62  1  0
 23 63  1  0
 24 64  1  0
 24 65  1  0
 26 66  1  0
 26 67  1  0
 26 68  1  0
 27 69  1  1
 28 70  1  0
 28 71  1  0
 29 72  1  0
 29 73  1  0
 31 74  1  0
 31 75  1  0
 31 76  1  0
M  END
>  <Binding energies>  (1) 
[-8.25]

>  <Ligand effiencies>  (1) 
[-0.2578125]

>  <Interactions>  (1) 
["V-B:PRO:540:CA:9855, H-A:ALA:541:N:4891, V-A:PRO:540:C:4881, V-B:ASP:366:CG:8184, V-B:TYR:539:CE2:9848, V-A:ASP:366:CG:3213, V-A:ASN:362:CB:3176, V-A:TYR:539:CD1:4873, V-A:LEU:363:CD1:3189, V-A:LEU:363:CB:3187, V-B:TYR:539:CZ:9849, V-B:TYR:531:CZ:9766, H-B:ALA:541:N:9863, V-B:ASP:366:CB:8183, V-B:PRO:540:N:9856, V-A:MET:535:CE:4835, V-A:TYR:539:C:4867, V-A:ASN:362:C:3172, V-A:PRO:540:N:4884, V-A:PRO:540:CB:4885, V-A:PRO:540:CA:4883, V-A:LEU:363:CA:3185, H-B:TYR:539:O:9840, V-A:TYR:539:CE1:4875, H-B:PRO:540:O:9854"]

$$$$
ZINC1857563802
     RDKit          3D

 81 91  0  0  0  0  0  0  0  0999 V2000
  126.6660  132.2310   61.1010 C   0  0  0  0  0  0  0  0  0  0  0  0
  127.3490  131.2780   60.2950 O   0  0  0  0  0  0  0  0  0  0  0  0
  126.8030  129.9560   60.2970 C   0  0  2  0  0  0  0  0  0  0  0  0
  127.1590  129.0650   61.5370 C   0  0  2  0  0  0  0  0  0  0  0  0
  128.6180  128.8560   61.7910 N   0  0  0  0  0  0  0  0  0  0  0  0
  129.4460  130.0310   61.4960 C   0  0  0  0  0  0  0  0  0  0  0  0
  129.1730  127.8800   62.6150 C   0  0  0  0  0  0  0  0  0  0  0  0
  128.6970  127.4720   63.7660 N   0  0  0  0  0  0  0  0  0  0  0  0
  129.3410  126.4220   64.2340 C   0  0  0  0  0  0  0  0  0  0  0  0
  130.3970  125.9250   63.4710 C   0  0  0  0  0  0  0  0  0  0  0  0
  131.1840  124.7080   63.6720 C   0  0  0  0  0  0  0  0  0  0  0  0
  130.9360  123.7950   64.6810 C   0  0  0  0  0  0  0  0  0  0  0  0
  131.7950  122.7330   64.5840 N   0  0  0  0  0  0  0  0  0  0  0  0
  132.6400  122.9130   63.5130 C   0  0  0  0  0  0  0  0  0  0  0  0
  133.6670  122.0990   63.0210 C   0  0  0  0  0  0  0  0  0  0  0  0
  134.3560  122.5560   61.8990 C   0  0  0  0  0  0  0  0  0  0  0  0
  134.0440  123.7690   61.2930 C   0  0  0  0  0  0  0  0  0  0  0  0
  133.0250  124.5800   61.7850 C   0  0  0  0  0  0  0  0  0  0  0  0
  132.2910  124.1650   62.9130 C   0  0  0  0  0  0  0  0  0  0  0  0
  130.5950  127.0030   62.1160 S   0  0  0  0  0  0  0  0  0  0  0  0
  126.3230  127.7660   61.3830 C   0  0  0  0  0  0  0  0  0  0  0  0
  126.4800  127.0960   60.0130 C   0  0  1  0  0  0  0  0  0  0  0  0
  126.3100  127.9790   58.9350 O   0  0  0  0  0  0  0  0  0  0  0  0
  126.9910  129.2190   58.9320 C   0  0  1  0  0  0  0  0  0  0  0  0
  126.2120  129.9690   57.8330 C   0  0  0  0  0  0  0  0  0  0  0  0
  128.4150  129.0590   58.5660 N   0  0  0  0  0  0  0  0  0  0  0  0
  129.2760  130.0330   58.0270 C   0  0  0  0  0  0  0  0  0  0  0  0
  129.0890  131.4010   57.7500 C   0  0  0  0  0  0  0  0  0  0  0  0
  130.1440  132.1090   57.1750 C   0  0  0  0  0  0  0  0  0  0  0  0
  131.3580  131.5040   56.8800 C   0  0  0  0  0  0  0  0  0  0  0  0
  131.5730  130.1620   57.1650 C   0  0  0  0  0  0  0  0  0  0  0  0
  130.5350  129.4170   57.7520 C   0  0  0  0  0  0  0  0  0  0  0  0
  130.4690  128.0890   58.1780 C   0  0  0  0  0  0  0  0  0  0  0  0
  131.3900  127.0280   58.1850 C   0  0  0  0  0  0  0  0  0  0  0  0
  131.0530  125.7950   58.7310 C   0  0  0  0  0  0  0  0  0  0  0  0
  129.7780  125.5940   59.3070 C   0  0  0  0  0  0  0  0  0  0  0  0
  129.1400  124.5440   60.0050 C   0  0  0  0  0  0  0  0  0  0  0  0
  129.5480  123.2590   60.4100 C   0  0  0  0  0  0  0  0  0  0  0  0
  128.6690  122.4620   61.1380 C   0  0  0  0  0  0  0  0  0  0  0  0
  129.1810  120.9000   61.6650 Cl  0  0  0  0  0  0  0  0  0  0  0  0
  127.3910  122.9100   61.4510 C   0  0  0  0  0  0  0  0  0  0  0  0
  126.9390  124.1700   61.0650 C   0  0  0  0  0  0  0  0  0  0  0  0
  127.8270  124.9860   60.3480 C   0  0  0  0  0  0  0  0  0  0  0  0
  127.6640  126.2810   59.8700 N   0  0  0  0  0  0  0  0  0  0  0  0
  128.8470  126.6600   59.2640 C   0  0  0  0  0  0  0  0  0  0  0  0
  129.1780  127.8960   58.7020 C   0  0  0  0  0  0  0  0  0  0  0  0
  132.2370  124.8800   58.5980 C   0  0  0  0  0  0  0  0  0  0  0  0
  132.3680  123.7100   58.9430 O   0  0  0  0  0  0  0  0  0  0  0  0
  133.1830  125.6230   58.0000 N   0  0  0  0  0  0  0  0  0  0  0  0
  132.8010  126.9870   57.6860 C   0  0  0  0  0  0  0  0  0  0  0  0
  126.8322  131.9991   62.1633 H   0  0  0  0  0  0  0  0  0  0  0  0
  127.0489  133.2386   60.8814 H   0  0  0  0  0  0  0  0  0  0  0  0
  125.5888  132.1922   60.8814 H   0  0  0  0  0  0  0  0  0  0  0  0
  125.7236  130.1272   60.4214 H   0  0  0  0  0  0  0  0  0  0  0  0
  126.8886  129.5907   62.4646 H   0  0  0  0  0  0  0  0  0  0  0  0
  129.7730  130.4950   62.4382 H   0  0  0  0  0  0  0  0  0  0  0  0
  130.3270  129.7220   60.9143 H   0  0  0  0  0  0  0  0  0  0  0  0
  128.8587  130.7567   60.9143 H   0  0  0  0  0  0  0  0  0  0  0  0
  129.0568  125.9559   65.1890 H   0  0  0  0  0  0  0  0  0  0  0  0
  130.1591  123.9062   65.4518 H   0  0  0  0  0  0  0  0  0  0  0  0
  131.7660  121.9520   65.2230 H   0  0  0  0  0  0  0  0  0  0  0  0
  133.9192  121.1408   63.4989 H   0  0  0  0  0  0  0  0  0  0  0  0
  135.1675  121.9418   61.4817 H   0  0  0  0  0  0  0  0  0  0  0  0
  134.6129  124.0931   60.4090 H   0  0  0  0  0  0  0  0  0  0  0  0
  132.7948  125.5381   61.2962 H   0  0  0  0  0  0  0  0  0  0  0  0
  126.6417  127.0531   62.1577 H   0  0  0  0  0  0  0  0  0  0  0  0
  125.2648  128.0484   61.4855 H   0  0  0  0  0  0  0  0  0  0  0  0
  125.6389  126.3881   59.9753 H   0  0  0  0  0  0  0  0  0  0  0  0
  125.4942  130.6601   58.2990 H   0  0  0  0  0  0  0  0  0  0  0  0
  126.9159  130.5380   57.2079 H   0  0  0  0  0  0  0  0  0  0  0  0
  125.6701  129.2440   57.2079 H   0  0  0  0  0  0  0  0  0  0  0  0
  128.1354  131.8983   57.9812 H   0  0  0  0  0  0  0  0  0  0  0  0
  130.0103  133.1772   56.9488 H   0  0  0  0  0  0  0  0  0  0  0  0
  132.1602  132.0953   56.4144 H   0  0  0  0  0  0  0  0  0  0  0  0
  132.5395  129.6896   56.9353 H   0  0  0  0  0  0  0  0  0  0  0  0
  130.5515  122.8884   60.1537 H   0  0  0  0  0  0  0  0  0  0  0  0
  126.7178  122.2514   62.0193 H   0  0  0  0  0  0  0  0  0  0  0  0
  125.9235  124.5124   61.3132 H   0  0  0  0  0  0  0  0  0  0  0  0
  134.1020  125.2650   57.7820 H   0  0  0  0  0  0  0  0  0  0  0  0
  133.4351  127.7133   58.2156 H   0  0  0  0  0  0  0  0  0  0  0  0
  132.9069  127.2474   56.6225 H   0  0  0  0  0  0  0  0  0  0  0  0
  1  2  1  0
  2  3  1  0
  3  4  1  0
  4  5  1  0
  5  6  1  0
  5  7  1  0
  7  8  2  0
  8  9  1  0
  9 10  2  0
 10 11  1  0
 11 12  2  0
 12 13  1  0
 13 14  1  0
 14 15  2  0
 15 16  1  0
 16 17  2  0
 17 18  1  0
 18 19  2  0
 10 20  1  0
  4 21  1  0
 21 22  1  0
 22 23  1  0
 23 24  1  0
 24 25  1  6
 24 26  1  0
 26 27  1  0
 27 28  2  0
 28 29  1  0
 29 30  2  0
 30 31  1  0
 31 32  2  0
 32 33  1  0
 33 34  2  0
 34 35  1  0
 35 36  2  0
 36 37  1  0
 37 38  2  0
 38 39  1  0
 39 40  1  0
 39 41  2  0
 41 42  1  0
 42 43  2  0
 43 44  1  0
 44 45  1  0
 45 46  2  0
 35 47  1  0
 47 48  2  0
 47 49  1  0
 49 50  1  0
 24  3  1  0
 46 26  1  0
 20  7  1  0
 44 22  1  0
 19 11  1  0
 32 27  1  0
 46 33  1  0
 19 14  1  0
 50 34  1  0
 45 36  1  0
 43 37  1  0
  1 51  1  0
  1 52  1  0
  1 53  1  0
  3 54  1  1
  4 55  1  1
  6 56  1  0
  6 57  1  0
  6 58  1  0
  9 59  1  0
 12 60  1  0
 13 61  1  0
 15 62  1  0
 16 63  1  0
 17 64  1  0
 18 65  1  0
 21 66  1  0
 21 67  1  0
 22 68  1  6
 25 69  1  0
 25 70  1  0
 25 71  1  0
 28 72  1  0
 29 73  1  0
 30 74  1  0
 31 75  1  0
 38 76  1  0
 41 77  1  0
 42 78  1  0
 49 79  1  0
 50 80  1  0
 50 81  1  0
M  END
>  <Binding energies>  (1) 
[-8.15]

>  <Ligand effiencies>  (1) 
[-0.15673076923076923]

>  <Interactions>  (1) 
["V-A:ILE:369:CG2:3237, V-A:ASP:366:CA:3210, V-B:PRO:540:CA:9855, V-A:GLY:454:CA:4049, V-B:ASP:366:CG:8184, V-B:ALA:541:CB:9864, V-B:TYR:539:CE2:9848, V-A:TYR:484:CE2:4346, V-B:GLU:543:CG:9879, V-A:ASP:366:CG:3213, V-B:TYR:539:CZ:9849, V-A:TYR:531:CE2:4793, H-B:TYR:539:OH:9850, V-A:GLU:543:CD:4908, V-A:TYR:484:CZ:4347, V-A:ILE:369:CD1:3239, V-A:ASP:366:C:3208, V-B:TYR:539:CD2:9846, V-A:TYR:531:CZ:4794, V-B:GLU:543:CD:9880, H-B:TYR:531:OH:9767, V-A:ASP:366:CB:3212, V-A:LEU:475:CD2:4259, H-A:ASP:366:O:3209, V-B:PRO:540:C:9853, V-B:ALA:541:CA:9862, H-A:TYR:484:OH:4348"]

$$$$
ZINC1857573447
     RDKit          3D

 53 55  0  0  0  0  0  0  0  0999 V2000
  129.9630  124.5080   67.5350 O   0  0  0  0  0  0  0  0  0  0  0  0
  130.2470  125.5600   66.9570 C   0  0  0  0  0  0  0  0  0  0  0  0
  130.3580  126.7690   67.5440 N   0  0  0  0  0  0  0  0  0  0  0  0
  130.2440  127.1060   68.9070 C   0  0  0  0  0  0  0  0  0  0  0  0
  131.3550  127.7220   69.4900 C   0  0  0  0  0  0  0  0  0  0  0  0
  131.3390  128.0840   70.8380 C   0  0  0  0  0  0  0  0  0  0  0  0
  130.2130  127.8270   71.6170 C   0  0  0  0  0  0  0  0  0  0  0  0
  129.1010  127.1980   71.0520 C   0  0  0  0  0  0  0  0  0  0  0  0
  127.6510  126.8410   72.0350 S   0  0  0  0  0  0  0  0  0  0  0  0
  127.7430  127.6170   73.2780 O   0  0  0  0  0  0  0  0  0  0  0  0
  126.4970  126.9840   71.1400 O   0  0  0  0  0  0  0  0  0  0  0  0
  127.7960  125.1340   72.4380 N   0  0  0  0  0  0  0  0  0  0  0  0
  129.0970  124.5560   72.8240 C   0  0  0  0  0  0  0  0  0  0  0  0
  128.9860  123.0660   73.0930 C   0  0  0  0  0  0  0  0  0  0  0  0
  129.5930  122.5050   74.2180 C   0  0  0  0  0  0  0  0  0  0  0  0
  129.4840  121.1390   74.4580 C   0  0  0  0  0  0  0  0  0  0  0  0
  128.7680  120.3290   73.5790 C   0  0  0  0  0  0  0  0  0  0  0  0
  128.1390  120.8620   72.4360 C   0  0  0  0  0  0  0  0  0  0  0  0
  127.3620  119.9800   71.4790 C   0  0  0  0  0  0  0  0  0  0  0  0
  127.7130  119.9390   70.2750 O   0  0  0  0  0  0  0  0  0  0  0  0
  126.3940  119.3160   71.9200 O   0  0  0  0  0  0  0  0  0  0  0  0
  128.2640  122.2500   72.2180 C   0  0  0  0  0  0  0  0  0  0  0  0
  129.1170  126.8360   69.7020 C   0  0  0  0  0  0  0  0  0  0  0  0
  130.4870  125.6580   65.6340 N   0  0  0  0  0  0  0  0  0  0  0  0
  130.4610  124.6100   64.6950 C   0  0  0  0  0  0  0  0  0  0  0  0
  129.2290  124.0480   64.3220 C   0  0  0  0  0  0  0  0  0  0  0  0
  129.1660  123.0460   63.3590 C   0  0  0  0  0  0  0  0  0  0  0  0
  130.3280  122.5900   62.7380 C   0  0  0  0  0  0  0  0  0  0  0  0
  130.2390  121.4930   61.6770 C   0  0  0  0  0  0  0  0  0  0  0  0
  129.7550  120.3510   62.1680 F   0  0  0  0  0  0  0  0  0  0  0  0
  129.4370  121.9000   60.6940 F   0  0  0  0  0  0  0  0  0  0  0  0
  131.4450  121.2420   61.1670 F   0  0  0  0  0  0  0  0  0  0  0  0
  131.5540  123.1600   63.0930 C   0  0  0  0  0  0  0  0  0  0  0  0
  131.6520  124.1730   64.0640 C   0  0  0  0  0  0  0  0  0  0  0  0
  133.0020  124.7150   64.3940 N   0  0  0  0  0  0  0  0  0  0  0  0
  133.9750  124.3840   63.7230 O   0  0  0  0  0  0  0  0  0  0  0  0
  133.0970  125.5070   65.3280 O   0  0  0  0  0  0  0  0  0  0  0  0
  130.4980  127.5570   66.9280 H   0  0  0  0  0  0  0  0  0  0  0  0
  132.2491  127.9231   68.8816 H   0  0  0  0  0  0  0  0  0  0  0  0
  132.2167  128.5729   71.2858 H   0  0  0  0  0  0  0  0  0  0  0  0
  130.1995  128.1195   72.6773 H   0  0  0  0  0  0  0  0  0  0  0  0
  127.0440  124.4950   72.1670 H   0  0  0  0  0  0  0  0  0  0  0  0
  129.8168  124.7193   72.0084 H   0  0  0  0  0  0  0  0  0  0  0  0
  129.4334  125.0494   73.7478 H   0  0  0  0  0  0  0  0  0  0  0  0
  130.1572  123.1427   74.9144 H   0  0  0  0  0  0  0  0  0  0  0  0
  129.9642  120.6974   75.3437 H   0  0  0  0  0  0  0  0  0  0  0  0
  128.6921  119.2505   73.7815 H   0  0  0  0  0  0  0  0  0  0  0  0
  127.7816  122.7008   71.3382 H   0  0  0  0  0  0  0  0  0  0  0  0
  128.2424  126.3369   69.2593 H   0  0  0  0  0  0  0  0  0  0  0  0
  130.8550  126.5350   65.2960 H   0  0  0  0  0  0  0  0  0  0  0  0
  128.3030  124.4044   64.7969 H   0  0  0  0  0  0  0  0  0  0  0  0
  128.1934  122.6108   63.0858 H   0  0  0  0  0  0  0  0  0  0  0  0
  132.4701  122.8055   62.5979 H   0  0  0  0  0  0  0  0  0  0  0  0
  1  2  2  0
  2  3  1  0
  3  4  1  0
  4  5  2  0
  5  6  1  0
  6  7  2  0
  7  8  1  0
  8  9  1  0
  9 10  2  0
  9 11  2  0
  9 12  1  0
 12 13  1  0
 13 14  1  0
 14 15  2  0
 15 16  1  0
 16 17  2  0
 17 18  1  0
 18 19  1  0
 19 20  2  0
 19 21  1  0
 18 22  2  0
  8 23  2  0
  2 24  1  0
 24 25  1  0
 25 26  2  0
 26 27  1  0
 27 28  2  0
 28 29  1  0
 29 30  1  0
 29 31  1  0
 29 32  1  0
 28 33  1  0
 33 34  2  0
 34 35  1  0
 35 36  2  0
 35 37  1  0
 23  4  1  0
 34 25  1  0
 22 14  1  0
  3 38  1  0
  5 39  1  0
  6 40  1  0
  7 41  1  0
 12 42  1  0
 13 43  1  0
 13 44  1  0
 15 45  1  0
 16 46  1  0
 17 47  1  0
 22 48  1  0
 23 49  1  0
 24 50  1  0
 26 51  1  0
 27 52  1  0
 33 53  1  0
M  CHG  3  21  -1  35   1  37  -1
M  END
>  <Binding energies>  (1) 
[-9.16]

>  <Ligand effiencies>  (1) 
[-0.229]

>  <Interactions>  (1) 
["V-A:ARG:545:CA:4919, V-B:GLU:543:C:9874, H-A:GLU:543:OE2:4910, H-B:GLU:543:O:9875, V-A:GLU:543:C:4902, V-B:GLU:543:CB:9878, H-B:LYS:547:NZ:9923, V-B:ALA:541:CB:9864, V-B:TYR:539:CE2:9848, V-A:GLY:544:CA:4914, V-A:GLY:544:C:4912, V-B:GLU:543:CG:9879, V-A:HIS:456:CD2:4068, H-B:HIS:456:ND1:9038, H-B:ARG:545:N:9892, V-B:LYS:547:CE:9922, V-A:GLU:543:CD:4908, V-A:ARG:545:CG:4922, H-B:GLY:544:N:9887, H-A:GLY:454:N:4050, V-A:HIS:456:CE1:4070, V-B:GLY:544:C:9884, V-B:GLY:544:CA:9886, V-B:TYR:539:CD2:9846, H-A:TYR:484:N:4340, V-B:GLU:543:CD:9880, V-A:LEU:475:CD2:4259, H-A:ARG:545:NH2:4928, V-A:ARG:545:CZ:4926, H-A:GLU:543:OE1:4909, V-A:TYR:484:CB:4341, V-B:VAL:542:CG1:9871, V-A:GLU:543:CB:4906, H-B:GLY:544:O:9885, H-A:ARG:545:NE:4924, V-B:ALA:541:CA:9862, H-A:TYR:484:OH:4348"]

$$$$
ZINC1857574692
     RDKit          3D

 72 76  0  0  0  0  0  0  0  0999 V2000
  130.0440  120.9870   74.8100 C   0  0  0  0  0  0  0  0  0  0  0  0
  130.9340  122.1390   74.9020 N   0  0  0  0  0  0  0  0  0  0  0  0
  130.5990  123.3460   75.3990 C   0  0  0  0  0  0  0  0  0  0  0  0
  129.4760  123.5940   75.8450 O   0  0  0  0  0  0  0  0  0  0  0  0
  131.7030  124.3950   75.4040 C   0  0  0  0  0  0  0  0  0  0  0  0
  133.0110  124.0000   75.7440 C   0  0  0  0  0  0  0  0  0  0  0  0
  134.0650  124.9070   75.7550 C   0  0  0  0  0  0  0  0  0  0  0  0
  133.8340  126.2370   75.4310 C   0  0  0  0  0  0  0  0  0  0  0  0
  132.5530  126.6560   75.0910 C   0  0  0  0  0  0  0  0  0  0  0  0
  131.4740  125.7570   75.0580 C   0  0  0  0  0  0  0  0  0  0  0  0
  130.1740  126.2120   74.7450 N   0  0  0  0  0  0  0  0  0  0  0  0
  129.5680  126.7660   73.6030 C   0  0  0  0  0  0  0  0  0  0  0  0
  129.6820  126.1320   72.4010 N   0  0  0  0  0  0  0  0  0  0  0  0
  129.1000  126.7100   71.3200 C   0  0  0  0  0  0  0  0  0  0  0  0
  129.2310  125.9980   70.1170 N   0  0  0  0  0  0  0  0  0  0  0  0
  129.1440  126.3860   68.7680 C   0  0  0  0  0  0  0  0  0  0  0  0
  129.4140  125.5160   67.7060 C   0  0  0  0  0  0  0  0  0  0  0  0
  129.2870  125.9550   66.3910 C   0  0  0  0  0  0  0  0  0  0  0  0
  128.9000  127.2710   66.1160 C   0  0  0  0  0  0  0  0  0  0  0  0
  128.7260  127.7140   64.6780 C   0  0  0  0  0  0  0  0  0  0  0  0
  128.0420  128.7180   64.4650 O   0  0  0  0  0  0  0  0  0  0  0  0
  129.3400  127.0220   63.6740 N   0  0  0  0  0  0  0  0  0  0  0  0
  129.7750  125.6100   63.8010 C   0  0  0  0  0  0  0  0  0  0  0  0
  128.8590  124.7310   62.9090 C   0  0  0  0  0  0  0  0  0  0  0  0
  128.9470  125.2500   61.5230 N   0  0  0  0  0  0  0  0  0  0  0  0
  129.6340  124.6040   60.5010 C   0  0  0  0  0  0  0  0  0  0  0  0
  130.3520  123.0910   60.6330 S   0  0  0  0  0  0  0  0  0  0  0  0
  129.6930  125.5730   58.9840 S   0  0  0  0  0  0  0  0  0  0  0  0
  127.9460  125.8350   58.5160 C   0  0  0  0  0  0  0  0  0  0  0  0
  127.3600  124.5750   57.9000 C   0  0  0  0  0  0  0  0  0  0  0  0
  125.9750  124.4290   57.7610 C   0  0  0  0  0  0  0  0  0  0  0  0
  125.4800  123.2560   57.1900 C   0  0  0  0  0  0  0  0  0  0  0  0
  126.2810  122.2460   56.7630 N   0  0  0  0  0  0  0  0  0  0  0  0
  127.6230  122.4020   56.9050 C   0  0  0  0  0  0  0  0  0  0  0  0
  128.2000  123.5430   57.4650 C   0  0  0  0  0  0  0  0  0  0  0  0
  128.3690  126.6130   61.4510 C   0  0  0  0  0  0  0  0  0  0  0  0
  129.2920  127.5350   62.2860 C   0  0  0  0  0  0  0  0  0  0  0  0
  128.6010  128.1300   67.1820 C   0  0  0  0  0  0  0  0  0  0  0  0
  128.7240  127.6880   68.4970 C   0  0  0  0  0  0  0  0  0  0  0  0
  128.3950  127.8730   71.3490 N   0  0  0  0  0  0  0  0  0  0  0  0
  128.2860  128.4900   72.5530 C   0  0  0  0  0  0  0  0  0  0  0  0
  128.8600  127.9730   73.7170 C   0  0  0  0  0  0  0  0  0  0  0  0
  128.6780  128.8170   75.2180 Cl  0  0  0  0  0  0  0  0  0  0  0  0
  129.7803  120.6457   75.8219 H   0  0  0  0  0  0  0  0  0  0  0  0
  129.1295  121.2724   74.2694 H   0  0  0  0  0  0  0  0  0  0  0  0
  130.5510  120.1742   74.2694 H   0  0  0  0  0  0  0  0  0  0  0  0
  131.8800  122.0000   74.5760 H   0  0  0  0  0  0  0  0  0  0  0  0
  133.2036  122.9494   76.0071 H   0  0  0  0  0  0  0  0  0  0  0  0
  135.0787  124.5717   76.0196 H   0  0  0  0  0  0  0  0  0  0  0  0
  134.6641  126.9587   75.4433 H   0  0  0  0  0  0  0  0  0  0  0  0
  132.3805  127.7136   74.8426 H   0  0  0  0  0  0  0  0  0  0  0  0
  129.5420  126.1530   75.5310 H   0  0  0  0  0  0  0  0  0  0  0  0
  129.4930  125.0320   70.2480 H   0  0  0  0  0  0  0  0  0  0  0  0
  129.7277  124.4817   67.9108 H   0  0  0  0  0  0  0  0  0  0  0  0
  129.4925  125.2619   65.5619 H   0  0  0  0  0  0  0  0  0  0  0  0
  130.8195  125.5123   63.4702 H   0  0  0  0  0  0  0  0  0  0  0  0
  129.7031  125.2862   64.8498 H   0  0  0  0  0  0  0  0  0  0  0  0
  129.1983  123.6851   62.9396 H   0  0  0  0  0  0  0  0  0  0  0  0
  127.8203  124.7681   63.2690 H   0  0  0  0  0  0  0  0  0  0  0  0
  127.3678  126.1009   59.4132 H   0  0  0  0  0  0  0  0  0  0  0  0
  127.8962  126.6468   57.7754 H   0  0  0  0  0  0  0  0  0  0  0  0
  125.2907  125.2228   58.0951 H   0  0  0  0  0  0  0  0  0  0  0  0
  124.3912  123.1443   57.0808 H   0  0  0  0  0  0  0  0  0  0  0  0
  128.2849  121.5926   56.5632 H   0  0  0  0  0  0  0  0  0  0  0  0
  129.2923  123.6295   57.5625 H   0  0  0  0  0  0  0  0  0  0  0  0
  128.3362  126.9557   60.4063 H   0  0  0  0  0  0  0  0  0  0  0  0
  127.3404  126.6267   61.8406 H   0  0  0  0  0  0  0  0  0  0  0  0
  130.3042  127.5345   61.8554 H   0  0  0  0  0  0  0  0  0  0  0  0
  128.9025  128.5637   62.2784 H   0  0  0  0  0  0  0  0  0  0  0  0
  128.2675  129.1584   66.9792 H   0  0  0  0  0  0  0  0  0  0  0  0
  128.4884  128.3702   69.3271 H   0  0  0  0  0  0  0  0  0  0  0  0
  127.7240  129.4336   72.6146 H   0  0  0  0  0  0  0  0  0  0  0  0
  1  2  1  0
  2  3  1  0
  3  4  2  0
  3  5  1  0
  5  6  2  0
  6  7  1  0
  7  8  2  0
  8  9  1  0
  9 10  2  0
 10 11  1  0
 11 12  1  0
 12 13  2  0
 13 14  1  0
 14 15  1  0
 15 16  1  0
 16 17  2  0
 17 18  1  0
 18 19  2  0
 19 20  1  0
 20 21  2  0
 20 22  1  0
 22 23  1  0
 23 24  1  0
 24 25  1  0
 25 26  1  0
 26 27  2  0
 26 28  1  0
 28 29  1  0
 29 30  1  0
 30 31  2  0
 31 32  1  0
 32 33  2  0
 33 34  1  0
 34 35  2  0
 25 36  1  0
 36 37  1  0
 19 38  1  0
 38 39  2  0
 14 40  2  0
 40 41  1  0
 41 42  2  0
 42 43  1  0
 10  5  1  0
 42 12  1  0
 39 16  1  0
 37 22  1  0
 35 30  1  0
  1 44  1  0
  1 45  1  0
  1 46  1  0
  2 47  1  0
  6 48  1  0
  7 49  1  0
  8 50  1  0
  9 51  1  0
 11 52  1  0
 15 53  1  0
 17 54  1  0
 18 55  1  0
 23 56  1  0
 23 57  1  0
 24 58  1  0
 24 59  1  0
 29 60  1  0
 29 61  1  0
 31 62  1  0
 32 63  1  0
 34 64  1  0
 35 65  1  0
 36 66  1  0
 36 67  1  0
 37 68  1  0
 37 69  1  0
 38 70  1  0
 39 71  1  0
 41 72  1  0
M  END
>  <Binding energies>  (1) 
[-8.95]

>  <Ligand effiencies>  (1) 
[-0.19456521739130433]

>  <Interactions>  (1) 
["V-B:TYR:539:CA:9841, V-B:GLU:543:C:9874, V-B:HIS:456:CD2:9039, H-B:GLU:543:O:9875, V-B:GLU:543:CB:9878, H-B:LYS:547:NZ:9923, V-B:TYR:539:CE2:9848, H-B:TYR:539:N:9842, V-B:GLU:543:CG:9879, V-B:TYR:539:C:9839, V-A:HIS:456:CD2:4068, V-B:TYR:539:CZ:9849, V-A:LYS:547:CG:4948, V-A:HIS:456:CB:4065, V-A:ASP:473:CG:4240, V-A:GLU:543:CD:4908, V-B:PRO:540:CB:9857, H-A:ASP:473:OD1:4241, V-B:HIS:456:CE1:9041, V-B:GLU:543:CA:9876, V-B:PRO:540:N:9856, V-A:HIS:456:CE1:4070, V-B:TYR:539:CD2:9846, V-A:GLU:543:CG:4907, V-B:PRO:540:CD:9859, V-B:GLU:543:CD:9880, V-B:HIS:456:CG:9037, V-A:HIS:456:C:4061, V-B:TYR:539:CG:9844, V-A:HIS:456:CG:4066, V-A:GLU:543:CB:4906, V-B:TYR:539:CD1:9845, V-B:LEU:363:CD1:8160, V-B:MET:535:CE:9807, V-A:VAL:458:CG2:4087, V-B:TYR:539:CE1:9847, H-A:HIS:456:NE2:4071"]

$$$$
ZINC1857575098
     RDKit          3D

 82 86  0  0  0  0  0  0  0  0999 V2000
  133.6100  124.2060   59.4260 C   0  0  0  0  0  0  0  0  0  0  0  0
  134.3740  124.3430   60.7520 C   0  0  0  0  0  0  0  0  0  0  0  0
  133.8140  123.5220   61.8300 N   0  0  0  0  0  0  0  0  0  0  0  0
  134.3570  122.1660   61.9730 C   0  0  0  0  0  0  0  0  0  0  0  0
  133.5090  121.0960   61.2670 C   0  0  0  0  0  0  0  0  0  0  0  0
  132.7940  124.0130   62.6950 C   0  0  0  0  0  0  0  0  0  0  0  0
  133.0900  124.4530   63.9930 C   0  0  0  0  0  0  0  0  0  0  0  0
  132.0960  124.9330   64.8400 C   0  0  0  0  0  0  0  0  0  0  0  0
  130.7610  124.9950   64.4260 C   0  0  0  0  0  0  0  0  0  0  0  0
  129.7100  125.5090   65.3250 C   0  0  0  0  0  0  0  0  0  0  0  0
  129.8220  126.5260   66.0890 N   0  0  0  0  0  0  0  0  0  0  0  0
  128.7230  126.9540   66.9650 C   0  0  0  0  0  0  0  0  0  0  0  0
  129.0270  127.2270   68.4480 C   0  0  0  0  0  0  0  0  0  0  0  0
  130.2780  127.7170   68.8280 C   0  0  0  0  0  0  0  0  0  0  0  0
  130.5280  128.0270   70.1620 C   0  0  0  0  0  0  0  0  0  0  0  0
  129.5290  127.8410   71.1170 C   0  0  0  0  0  0  0  0  0  0  0  0
  129.8550  128.2710   72.8250 S   0  0  0  0  0  0  0  0  0  0  0  0
  130.1870  129.9920   72.7870 N   0  0  0  0  0  0  0  0  0  0  0  0
  128.6040  128.0810   73.5670 O   0  0  0  0  0  0  0  0  0  0  0  0
  131.0870  127.5880   73.2350 O   0  0  0  0  0  0  0  0  0  0  0  0
  128.2830  127.3310   70.7450 C   0  0  0  0  0  0  0  0  0  0  0  0
  128.0340  127.0210   69.4100 C   0  0  0  0  0  0  0  0  0  0  0  0
  130.4360  124.5600   63.1250 C   0  0  0  0  0  0  0  0  0  0  0  0
  129.1070  124.6200   62.7380 O   0  0  0  0  0  0  0  0  0  0  0  0
  128.7050  125.3190   61.5660 C   0  0  0  0  0  0  0  0  0  0  0  0
  128.2710  126.7020   61.9950 C   0  0  0  0  0  0  0  0  0  0  0  0
  127.1710  127.4530   61.6040 C   0  0  0  0  0  0  0  0  0  0  0  0
  127.2420  128.6010   62.3490 N   0  0  0  0  0  0  0  0  0  0  0  0
  126.3430  129.7470   62.3410 C   0  0  0  0  0  0  0  0  0  0  0  0
  126.3420  130.4750   63.7000 C   0  0  0  0  0  0  0  0  0  0  0  0
  126.3260  132.0020   63.5520 C   0  0  0  0  0  0  0  0  0  0  0  0
  127.6590  132.4870   63.6870 O   0  0  0  0  0  0  0  0  0  0  0  0
  128.5440  132.3360   62.6370 C   0  0  0  0  0  0  0  0  0  0  0  0
  129.7350  131.6550   62.9150 C   0  0  0  0  0  0  0  0  0  0  0  0
  130.6930  131.4450   61.9220 C   0  0  0  0  0  0  0  0  0  0  0  0
  130.4630  131.9190   60.6310 C   0  0  0  0  0  0  0  0  0  0  0  0
  131.4110  131.7370   59.5320 C   0  0  0  0  0  0  0  0  0  0  0  0
  131.1510  132.2040   58.2960 C   0  0  0  0  0  0  0  0  0  0  0  0
  129.8980  132.9200   58.0030 C   0  0  0  0  0  0  0  0  0  0  0  0
  129.5510  133.3860   56.9200 O   0  0  0  0  0  0  0  0  0  0  0  0
  129.0090  133.0890   59.0620 O   0  0  0  0  0  0  0  0  0  0  0  0
  129.2760  132.6020   60.3380 C   0  0  0  0  0  0  0  0  0  0  0  0
  128.3210  132.8130   61.3330 C   0  0  0  0  0  0  0  0  0  0  0  0
  128.3190  128.5840   63.1400 N   0  0  0  0  0  0  0  0  0  0  0  0
  128.9530  127.3770   62.9070 N   0  0  0  0  0  0  0  0  0  0  0  0
  131.4520  124.0770   62.2840 C   0  0  0  0  0  0  0  0  0  0  0  0
  132.5467  124.0153   59.6335 H   0  0  0  0  0  0  0  0  0  0  0  0
  133.7096  125.1363   58.8476 H   0  0  0  0  0  0  0  0  0  0  0  0
  134.0267  123.3682   58.8476 H   0  0  0  0  0  0  0  0  0  0  0  0
  135.4179  124.0381   60.5869 H   0  0  0  0  0  0  0  0  0  0  0  0
  134.2948  125.3939   61.0673 H   0  0  0  0  0  0  0  0  0  0  0  0
  135.3699  122.1481   61.5444 H   0  0  0  0  0  0  0  0  0  0  0  0
  134.3580  121.9261   63.0465 H   0  0  0  0  0  0  0  0  0  0  0  0
  133.0108  120.4674   62.0198 H   0  0  0  0  0  0  0  0  0  0  0  0
  132.7507  121.5853   60.6380 H   0  0  0  0  0  0  0  0  0  0  0  0
  134.1585  120.4696   60.6380 H   0  0  0  0  0  0  0  0  0  0  0  0
  134.1301  124.4180   64.3492 H   0  0  0  0  0  0  0  0  0  0  0  0
  132.3643  125.2695   65.8523 H   0  0  0  0  0  0  0  0  0  0  0  0
  128.7503  124.9715   65.3382 H   0  0  0  0  0  0  0  0  0  0  0  0
  128.3139  127.8831   66.5415 H   0  0  0  0  0  0  0  0  0  0  0  0
  128.0439  126.0889   66.9853 H   0  0  0  0  0  0  0  0  0  0  0  0
  131.0659  127.8581   68.0735 H   0  0  0  0  0  0  0  0  0  0  0  0
  131.5115  128.4178   70.4621 H   0  0  0  0  0  0  0  0  0  0  0  0
  131.1480  130.2320   72.5280 H   0  0  0  0  0  0  0  0  0  0  0  0
  129.4840  130.5480   72.2930 H   0  0  0  0  0  0  0  0  0  0  0  0
  127.5015  127.1748   71.5032 H   0  0  0  0  0  0  0  0  0  0  0  0
  127.0561  126.6142   69.1129 H   0  0  0  0  0  0  0  0  0  0  0  0
  129.5475  125.3901   60.8623 H   0  0  0  0  0  0  0  0  0  0  0  0
  127.8825  124.7917   61.0605 H   0  0  0  0  0  0  0  0  0  0  0  0
  126.4081  127.1849   60.8582 H   0  0  0  0  0  0  0  0  0  0  0  0
  126.6671  130.4499   61.5594 H   0  0  0  0  0  0  0  0  0  0  0  0
  125.3235  129.3840   62.1436 H   0  0  0  0  0  0  0  0  0  0  0  0
  125.4495  130.1665   64.2642 H   0  0  0  0  0  0  0  0  0  0  0  0
  127.2690  130.2011   64.2250 H   0  0  0  0  0  0  0  0  0  0  0  0
  125.9314  132.2740   62.5619 H   0  0  0  0  0  0  0  0  0  0  0  0
  125.6844  132.4474   64.3266 H   0  0  0  0  0  0  0  0  0  0  0  0
  129.9188  131.2794   63.9324 H   0  0  0  0  0  0  0  0  0  0  0  0
  131.6243  130.9086   62.1565 H   0  0  0  0  0  0  0  0  0  0  0  0
  132.3567  131.2072   59.7192 H   0  0  0  0  0  0  0  0  0  0  0  0
  131.8861  132.0482   57.4927 H   0  0  0  0  0  0  0  0  0  0  0  0
  127.3923  133.3532   61.0972 H   0  0  0  0  0  0  0  0  0  0  0  0
  131.1886  123.7380   61.2712 H   0  0  0  0  0  0  0  0  0  0  0  0
  1  2  1  0
  2  3  1  0
  3  4  1  0
  4  5  1  0
  3  6  1  0
  6  7  2  0
  7  8  1  0
  8  9  2  0
  9 10  1  0
 10 11  2  0
 11 12  1  0
 12 13  1  0
 13 14  2  0
 14 15  1  0
 15 16  2  0
 16 17  1  0
 17 18  1  0
 17 19  2  0
 17 20  2  0
 16 21  1  0
 21 22  2  0
  9 23  1  0
 23 24  1  0
 24 25  1  0
 25 26  1  0
 26 27  2  0
 27 28  1  0
 28 29  1  0
 29 30  1  0
 30 31  1  0
 31 32  1  0
 32 33  1  0
 33 34  2  0
 34 35  1  0
 35 36  2  0
 36 37  1  0
 37 38  2  0
 38 39  1  0
 39 40  2  0
 39 41  1  0
 41 42  1  0
 42 43  2  0
 28 44  1  0
 44 45  2  0
 23 46  2  0
 46  6  1  0
 22 13  1  0
 45 26  1  0
 43 33  1  0
 42 36  1  0
  1 47  1  0
  1 48  1  0
  1 49  1  0
  2 50  1  0
  2 51  1  0
  4 52  1  0
  4 53  1  0
  5 54  1  0
  5 55  1  0
  5 56  1  0
  7 57  1  0
  8 58  1  0
 10 59  1  0
 12 60  1  0
 12 61  1  0
 14 62  1  0
 15 63  1  0
 18 64  1  0
 18 65  1  0
 21 66  1  0
 22 67  1  0
 25 68  1  0
 25 69  1  0
 27 70  1  0
 29 71  1  0
 29 72  1  0
 30 73  1  0
 30 74  1  0
 31 75  1  0
 31 76  1  0
 34 77  1  0
 35 78  1  0
 37 79  1  0
 38 80  1  0
 43 81  1  0
 46 82  1  0
M  END
>  <Binding energies>  (1) 
[-10.36]

>  <Ligand effiencies>  (1) 
[-0.21583333333333332]

>  <Interactions>  (1) 
["V-A:ILE:369:CG2:3237, V-A:ASP:366:CA:3210, V-A:GLY:454:CA:4049, V-B:GLU:543:C:9874, V-A:ILE:369:CB:3236, V-A:GLU:543:C:4902, V-B:HIS:456:CD2:9039, V-B:GLU:543:CB:9878, H-B:LYS:547:NZ:9923, V-B:TYR:539:CE2:9848, V-B:GLU:543:CG:9879, V-A:GLY:544:C:4912, V-B:LEU:475:CD2:9230, V-A:ASP:366:CG:3213, V-A:ALA:541:CB:4892, V-A:GLU:543:CD:4908, H-B:TYR:484:OH:9319, V-B:HIS:456:CE1:9041, V-A:SER:385:C:3405, V-A:ILE:369:CD1:3239, V-A:HIS:456:CE1:4070, H-B:HIS:456:NE2:9042, V-A:GLU:543:CG:4907, V-A:SER:385:CB:3409, V-B:GLU:543:CD:9880, V-A:TYR:539:C:4867, V-A:ASP:366:CB:3212, H-A:LYS:547:NZ:4951, V-A:LEU:475:CD2:4259, V-A:ARG:545:CZ:4926, V-A:GLU:543:CB:4906, V-A:PRO:540:N:4884, H-A:TYR:539:N:4870, V-A:PRO:540:CB:4885, V-A:PRO:540:CA:4883, V-A:SER:385:CA:3407, H-A:GLY:544:O:4913, H-A:GLU:543:O:4903"]

$$$$
ZINC1857575098-again1
     RDKit          3D

 83 87  0  0  0  0  0  0  0  0999 V2000
  134.1210  124.3440   59.6720 C   0  0  0  0  0  0  0  0  0  0  0  0
  132.8870  124.5040   60.5740 C   0  0  0  0  0  0  0  0  0  0  0  0
  133.1870  124.3290   61.9990 N   0  0  0  0  0  0  0  0  0  0  0  0
  134.4390  123.6370   62.3270 C   0  0  0  0  0  0  0  0  0  0  0  0
  134.3560  122.1160   62.1390 C   0  0  0  0  0  0  0  0  0  0  0  0
  132.3040  124.7940   63.0170 C   0  0  0  0  0  0  0  0  0  0  0  0
  132.5990  124.6120   64.3750 C   0  0  0  0  0  0  0  0  0  0  0  0
  131.7430  125.0750   65.3680 C   0  0  0  0  0  0  0  0  0  0  0  0
  130.5420  125.7230   65.0510 C   0  0  0  0  0  0  0  0  0  0  0  0
  129.6520  126.2200   66.1010 C   0  0  0  0  0  0  0  0  0  0  0  0
  128.9370  127.3280   65.9570 N   0  0  0  0  0  0  0  0  0  0  0  0
  127.9910  127.8190   66.9930 C   0  0  0  0  0  0  0  0  0  0  0  0
  128.5250  127.6540   68.4050 C   0  0  0  0  0  0  0  0  0  0  0  0
  127.7090  127.1050   69.3950 C   0  0  0  0  0  0  0  0  0  0  0  0
  128.1830  126.9840   70.6980 C   0  0  0  0  0  0  0  0  0  0  0  0
  129.4770  127.4120   71.0070 C   0  0  0  0  0  0  0  0  0  0  0  0
  130.1060  127.2600   72.6770 S   0  0  0  0  0  0  0  0  0  0  0  0
  131.8270  127.0000   72.4770 N   0  0  0  0  0  0  0  0  0  0  0  0
  129.9250  128.5530   73.3470 O   0  0  0  0  0  0  0  0  0  0  0  0
  129.5350  126.0320   73.2400 O   0  0  0  0  0  0  0  0  0  0  0  0
  130.2960  127.9540   70.0170 C   0  0  0  0  0  0  0  0  0  0  0  0
  129.8200  128.0760   68.7140 C   0  0  0  0  0  0  0  0  0  0  0  0
  130.2130  125.9010   63.6930 C   0  0  0  0  0  0  0  0  0  0  0  0
  129.0160  126.5330   63.3930 O   0  0  0  0  0  0  0  0  0  0  0  0
  128.9540  127.6320   62.4840 C   0  0  0  0  0  0  0  0  0  0  0  0
  128.4030  127.1240   61.1740 C   0  0  0  0  0  0  0  0  0  0  0  0
  127.1200  127.2450   60.6620 C   0  0  0  0  0  0  0  0  0  0  0  0
  127.1880  126.7160   59.4020 N   0  0  0  0  0  0  0  0  0  0  0  0
  126.1670  126.7550   58.3610 C   0  0  0  0  0  0  0  0  0  0  0  0
  126.4760  125.7670   57.2090 C   0  0  0  0  0  0  0  0  0  0  0  0
  125.5890  124.5060   57.1820 C   0  0  0  0  0  0  0  0  0  0  0  0
  126.3520  123.3590   57.5410 O   0  0  0  0  0  0  0  0  0  0  0  0
  126.8310  123.2480   58.8330 C   0  0  0  0  0  0  0  0  0  0  0  0
  125.9840  123.6880   59.8550 C   0  0  0  0  0  0  0  0  0  0  0  0
  126.3700  123.6150   61.1930 C   0  0  0  0  0  0  0  0  0  0  0  0
  127.6290  123.1130   61.5200 C   0  0  0  0  0  0  0  0  0  0  0  0
  128.1290  123.0400   62.8920 C   0  0  0  0  0  0  0  0  0  0  0  0
  129.3740  122.6070   63.1640 C   0  0  0  0  0  0  0  0  0  0  0  0
  130.2790  122.1760   62.0870 C   0  0  0  0  0  0  0  0  0  0  0  0
  131.4370  121.7830   62.2100 O   0  0  0  0  0  0  0  0  0  0  0  0
  129.7750  122.2160   60.7870 O   0  0  0  0  0  0  0  0  0  0  0  0
  128.4970  122.6860   60.5080 C   0  0  0  0  0  0  0  0  0  0  0  0
  128.0980  122.7350   59.1720 C   0  0  0  0  0  0  0  0  0  0  0  0
  128.4240  126.2840   59.1370 N   0  0  0  0  0  0  0  0  0  0  0  0
  129.1730  126.5280   60.2760 N   0  0  0  0  0  0  0  0  0  0  0  0
  131.1060  125.4550   62.7020 C   0  0  0  0  0  0  0  0  0  0  0  0
  135.0190  124.2276   60.2965 H   0  0  0  0  0  0  0  0  0  0  0  0
  133.9981  123.4543   59.0370 H   0  0  0  0  0  0  0  0  0  0  0  0
  134.2291  125.2356   59.0370 H   0  0  0  0  0  0  0  0  0  0  0  0
  132.4733  125.5123   60.4250 H   0  0  0  0  0  0  0  0  0  0  0  0
  132.1712  123.7180   60.2915 H   0  0  0  0  0  0  0  0  0  0  0  0
  135.2350  124.0269   61.6756 H   0  0  0  0  0  0  0  0  0  0  0  0
  134.6471  123.8241   63.3908 H   0  0  0  0  0  0  0  0  0  0  0  0
  134.3292  121.6258   63.1234 H   0  0  0  0  0  0  0  0  0  0  0  0
  133.4428  121.8650   61.5794 H   0  0  0  0  0  0  0  0  0  0  0  0
  135.2364  121.7671   61.5794 H   0  0  0  0  0  0  0  0  0  0  0  0
  133.5257  124.0928   64.6607 H   0  0  0  0  0  0  0  0  0  0  0  0
  132.0143  124.9296   66.4241 H   0  0  0  0  0  0  0  0  0  0  0  0
  129.5732  125.6555   67.0418 H   0  0  0  0  0  0  0  0  0  0  0  0
  129.0170  127.8630   65.0970 H   0  0  0  0  0  0  0  0  0  0  0  0
  127.7968  128.8867   66.8135 H   0  0  0  0  0  0  0  0  0  0  0  0
  127.0732  127.2177   66.9143 H   0  0  0  0  0  0  0  0  0  0  0  0
  126.6919  126.7681   69.1458 H   0  0  0  0  0  0  0  0  0  0  0  0
  127.5419  126.5533   71.4812 H   0  0  0  0  0  0  0  0  0  0  0  0
  132.4170  127.5120   73.1380 H   0  0  0  0  0  0  0  0  0  0  0  0
  132.1570  127.0540   71.5090 H   0  0  0  0  0  0  0  0  0  0  0  0
  131.3156  128.2844   70.2647 H   0  0  0  0  0  0  0  0  0  0  0  0
  130.4623  128.5037   67.9301 H   0  0  0  0  0  0  0  0  0  0  0  0
  128.2943  128.4139   62.8882 H   0  0  0  0  0  0  0  0  0  0  0  0
  129.9556  128.0621   62.3359 H   0  0  0  0  0  0  0  0  0  0  0  0
  126.2383  127.6736   61.1609 H   0  0  0  0  0  0  0  0  0  0  0  0
  125.1962  126.4902   58.8054 H   0  0  0  0  0  0  0  0  0  0  0  0
  126.1480  127.7716   57.9412 H   0  0  0  0  0  0  0  0  0  0  0  0
  126.3419  126.3000   56.2561 H   0  0  0  0  0  0  0  0  0  0  0  0
  127.5063  125.4170   57.3698 H   0  0  0  0  0  0  0  0  0  0  0  0
  124.7609  124.6292   57.8955 H   0  0  0  0  0  0  0  0  0  0  0  0
  125.1922  124.3686   56.1653 H   0  0  0  0  0  0  0  0  0  0  0  0
  124.9962  124.0988   59.5991 H   0  0  0  0  0  0  0  0  0  0  0  0
  125.6854  123.9514   61.9856 H   0  0  0  0  0  0  0  0  0  0  0  0
  127.4730  123.3458   63.7204 H   0  0  0  0  0  0  0  0  0  0  0  0
  129.7202  122.5749   64.2076 H   0  0  0  0  0  0  0  0  0  0  0  0
  128.7734  122.3727   58.3830 H   0  0  0  0  0  0  0  0  0  0  0  0
  130.8575  125.6299   61.6448 H   0  0  0  0  0  0  0  0  0  0  0  0
  1  2  1  0
  2  3  1  0
  3  4  1  0
  4  5  1  0
  3  6  1  0
  6  7  2  0
  7  8  1  0
  8  9  2  0
  9 10  1  0
 10 11  2  0
 11 12  1  0
 12 13  1  0
 13 14  2  0
 14 15  1  0
 15 16  2  0
 16 17  1  0
 17 18  1  0
 17 19  2  0
 17 20  2  0
 16 21  1  0
 21 22  2  0
  9 23  1  0
 23 24  1  0
 24 25  1  0
 25 26  1  0
 26 27  2  0
 27 28  1  0
 28 29  1  0
 29 30  1  0
 30 31  1  0
 31 32  1  0
 32 33  1  0
 33 34  2  0
 34 35  1  0
 35 36  2  0
 36 37  1  0
 37 38  2  0
 38 39  1  0
 39 40  2  0
 39 41  1  0
 41 42  1  0
 42 43  2  0
 28 44  1  0
 44 45  2  0
 23 46  2  0
 46  6  1  0
 22 13  1  0
 45 26  1  0
 43 33  1  0
 42 36  1  0
  1 47  1  0
  1 48  1  0
  1 49  1  0
  2 50  1  0
  2 51  1  0
  4 52  1  0
  4 53  1  0
  5 54  1  0
  5 55  1  0
  5 56  1  0
  7 57  1  0
  8 58  1  0
 10 59  1  0
 11 60  1  0
 12 61  1  0
 12 62  1  0
 14 63  1  0
 15 64  1  0
 18 65  1  0
 18 66  1  0
 21 67  1  0
 22 68  1  0
 25 69  1  0
 25 70  1  0
 27 71  1  0
 29 72  1  0
 29 73  1  0
 30 74  1  0
 30 75  1  0
 31 76  1  0
 31 77  1  0
 34 78  1  0
 35 79  1  0
 37 80  1  0
 38 81  1  0
 43 82  1  0
 46 83  1  0
M  CHG  1  11   1
M  END
>  <Binding energies>  (1) 
[-10.08]

>  <Ligand effiencies>  (1) 
[-0.2057142857142857]

>  <Interactions>  (1) 
["V-A:ILE:369:CG2:3237, V-A:ASP:366:CA:3210, V-B:PRO:540:CA:9855, V-A:GLY:454:CA:4049, V-B:GLU:543:C:9874, H-A:GLU:543:OE2:4910, V-A:ILE:369:CB:3236, V-A:GLU:543:C:4902, V-B:GLU:543:CB:9878, H-B:LYS:547:NZ:9923, V-B:ASP:366:CG:8184, V-B:ALA:541:CB:9864, V-B:TYR:539:CE2:9848, V-B:GLU:543:CG:9879, V-B:TYR:539:C:9839, V-A:ASP:366:CG:3213, V-A:HIS:456:CD2:4068, V-B:TYR:531:CZ:9766, V-B:TYR:531:CE2:9765, V-A:GLU:543:CD:4908, V-B:ASP:366:CB:8183, V-B:PRO:540:CB:9857, V-B:HIS:456:CE1:9041, V-A:SER:385:C:3405, V-A:GLY:453:C:4042, V-B:PRO:540:N:9856, V-A:ILE:369:CD1:3239, V-A:HIS:456:CE1:4070, V-B:TYR:539:CD2:9846, V-A:GLU:543:CG:4907, V-B:GLU:543:CD:9880, V-A:ASP:366:CB:3212, H-A:LYS:547:NZ:4951, V-A:LEU:475:CD2:4259, V-A:ARG:545:CZ:4926, H-A:GLU:543:OE1:4909, V-A:GLU:543:CB:4906, H-B:GLU:543:OE2:9882, V-A:GLY:453:CA:4044, V-B:MET:535:CE:9807, H-A:GLY:544:O:4913, H-A:HIS:456:NE2:4071, H-A:HIS:456:ND1:4067"]

$$$$
ZINC1857579400
     RDKit          3D

 54 59  0  0  0  0  0  0  0  0999 V2000
  129.7300  123.7330   65.3420 C   0  0  0  0  0  0  0  0  0  0  0  0
  130.5160  125.0610   65.5180 C   0  0  2  0  0  0  0  0  0  0  0  0
  130.9420  125.1430   67.0320 C   0  0  0  0  0  0  0  0  0  0  0  0
  129.8090  125.4890   68.0180 C   0  0  0  0  0  0  0  0  0  0  0  0
  129.0880  126.7710   67.5940 C   0  0  0  0  0  0  0  0  0  0  0  0
  128.6000  127.5510   68.4080 O   0  0  0  0  0  0  0  0  0  0  0  0
  128.8940  126.9400   66.1620 C   0  0  0  0  0  0  0  0  0  0  0  0
  129.5040  126.1990   65.2070 C   0  0  0  0  0  0  0  0  0  0  0  0
  129.1600  126.3730   63.7300 C   0  0  0  0  0  0  0  0  0  0  0  0
  130.4280  126.7110   62.9460 C   0  0  0  0  0  0  0  0  0  0  0  0
  131.5300  125.6410   63.0790 C   0  0  2  0  0  0  0  0  0  0  0  0
  131.3780  124.4130   62.1400 C   0  0  1  0  0  0  0  0  0  0  0  0
  131.4150  124.6820   60.6270 C   0  0  0  0  0  0  0  0  0  0  0  0
  132.0700  123.4400   60.0010 C   0  0  0  0  0  0  0  0  0  0  0  0
  132.3410  122.4300   61.1440 C   0  0  2  0  0  0  0  0  0  0  0  0
  133.3740  121.3280   60.8690 C   0  0  0  0  0  0  0  0  0  0  0  0
  132.6070  120.2200   60.1780 C   0  0  0  0  0  0  0  0  0  0  0  0
  131.2320  120.4190   60.7930 C   0  0  0  0  0  0  0  0  0  0  0  0
  130.2970  119.6230   60.8320 O   0  0  0  0  0  0  0  0  0  0  0  0
  131.1510  121.6520   61.3390 O   0  0  0  0  0  0  0  0  0  0  0  0
  132.5030  123.3580   62.3800 C   0  0  1  0  0  0  0  0  0  0  0  0
  133.9260  123.9540   62.5530 C   0  0  0  0  0  0  0  0  0  0  0  0
  133.9880  124.3710   63.9250 O   0  0  0  0  0  0  0  0  0  0  0  0
  132.7950  123.9890   64.6160 C   0  0  2  0  0  0  0  0  0  0  0  0
  132.4020  122.7610   63.7740 C   0  0  0  0  0  0  0  0  0  0  0  0
  131.7980  125.2100   64.5710 C   0  0  2  0  0  0  0  0  0  0  0  0
  132.4860  126.2520   65.0580 F   0  0  0  0  0  0  0  0  0  0  0  0
  129.4846  123.3184   66.3309 H   0  0  0  0  0  0  0  0  0  0  0  0
  128.8015  123.9275   64.7852 H   0  0  0  0  0  0  0  0  0  0  0  0
  130.3473  123.0126   64.7852 H   0  0  0  0  0  0  0  0  0  0  0  0
  131.3577  124.1665   67.3213 H   0  0  0  0  0  0  0  0  0  0  0  0
  131.6662  125.9682   67.0996 H   0  0  0  0  0  0  0  0  0  0  0  0
  129.0862  124.6602   68.0411 H   0  0  0  0  0  0  0  0  0  0  0  0
  130.2465  125.6454   69.0151 H   0  0  0  0  0  0  0  0  0  0  0  0
  128.2010  127.7275   65.8310 H   0  0  0  0  0  0  0  0  0  0  0  0
  128.7275  125.4389   63.3421 H   0  0  0  0  0  0  0  0  0  0  0  0
  128.4317  127.1897   63.6177 H   0  0  0  0  0  0  0  0  0  0  0  0
  130.1649  126.8110   61.8826 H   0  0  0  0  0  0  0  0  0  0  0  0
  130.8296  127.6463   63.3631 H   0  0  0  0  0  0  0  0  0  0  0  0
  132.4311  126.1599   62.7201 H   0  0  0  0  0  0  0  0  0  0  0  0
  130.3697  124.0664   62.4104 H   0  0  0  0  0  0  0  0  0  0  0  0
  130.3956  124.8165   60.2361 H   0  0  0  0  0  0  0  0  0  0  0  0
  131.9743  125.5993   60.3907 H   0  0  0  0  0  0  0  0  0  0  0  0
  131.3935  122.9931   59.2576 H   0  0  0  0  0  0  0  0  0  0  0  0
  133.0074  123.7109   59.4932 H   0  0  0  0  0  0  0  0  0  0  0  0
  134.1753  121.7058   60.2169 H   0  0  0  0  0  0  0  0  0  0  0  0
  133.8537  120.9773   61.7947 H   0  0  0  0  0  0  0  0  0  0  0  0
  132.5886  120.3568   59.0867 H   0  0  0  0  0  0  0  0  0  0  0  0
  133.0304  119.2136   60.3116 H   0  0  0  0  0  0  0  0  0  0  0  0
  134.6923  123.1927   62.3450 H   0  0  0  0  0  0  0  0  0  0  0  0
  134.1134  124.7863   61.8586 H   0  0  0  0  0  0  0  0  0  0  0  0
  132.8491  123.7423   65.6866 H   0  0  0  0  0  0  0  0  0  0  0  0
  133.1059  121.9273   63.9137 H   0  0  0  0  0  0  0  0  0  0  0  0
  131.4245  122.3215   64.0215 H   0  0  0  0  0  0  0  0  0  0  0  0
  2  1  1  1
  2  3  1  0
  3  4  1  0
  4  5  1  0
  5  6  2  0
  5  7  1  0
  7  8  2  0
  8  9  1  0
  9 10  1  0
 10 11  1  0
 11 12  1  0
 12 13  1  0
 13 14  1  0
 14 15  1  0
 15 16  1  0
 16 17  1  0
 17 18  1  0
 18 19  2  0
 18 20  1  0
 15 21  1  0
 21 22  1  6
 22 23  1  0
 23 24  1  0
 24 25  1  0
 24 26  1  0
 26 27  1  1
  8  2  1  0
 26 11  1  0
 26  2  1  0
 21 12  1  0
 15 20  1  1
 25 21  1  0
  1 28  1  0
  1 29  1  0
  1 30  1  0
  3 31  1  0
  3 32  1  0
  4 33  1  0
  4 34  1  0
  7 35  1  0
  9 36  1  0
  9 37  1  0
 10 38  1  0
 10 39  1  0
 11 40  1  6
 12 41  1  6
 13 42  1  0
 13 43  1  0
 14 44  1  0
 14 45  1  0
 16 46  1  0
 16 47  1  0
 17 48  1  0
 17 49  1  0
 22 50  1  0
 22 51  1  0
 24 52  1  1
 25 53  1  0
 25 54  1  0
M  END
>  <Binding energies>  (1) 
[-7.85]

>  <Ligand effiencies>  (1) 
[-0.29074074074074074]

>  <Interactions>  (1) 
["V-A:ILE:369:CG2:3237, V-A:GLY:454:CA:4049, V-B:GLU:543:CB:9878, V-B:TYR:539:CE2:9848, V-A:TYR:484:CE2:4346, V-B:GLU:543:CG:9879, V-A:TYR:484:CZ:4347, V-A:GLU:543:CD:4908, V-B:GLU:543:CA:9876, H-A:GLY:454:N:4050, V-A:HIS:456:CE1:4070, V-A:ILE:369:CD1:3239, V-B:TYR:539:CD2:9846, V-A:SER:385:CB:3409, V-B:GLU:543:CD:9880, V-A:ARG:545:CD:4923, V-A:LEU:475:CD2:4259, H-A:ARG:545:NH2:4928, V-A:ARG:545:CZ:4926, H-A:TYR:484:OH:4348"]

$$$$
ZINC1857589286
     RDKit          3D

 62 67  0  0  0  0  0  0  0  0999 V2000
  131.3880  127.4200   58.3490 C   0  0  0  0  0  0  0  0  0  0  0  0
  130.6880  127.9810   59.5950 C   0  0  0  0  0  0  0  0  0  0  0  0
  130.2420  126.9300   60.5140 N   0  0  0  0  0  0  0  0  0  0  0  0
  130.9680  126.5990   61.6130 C   0  0  0  0  0  0  0  0  0  0  0  0
  132.0460  127.0730   61.9810 O   0  0  0  0  0  0  0  0  0  0  0  0
  130.1830  125.4820   62.3430 C   0  0  1  0  0  0  0  0  0  0  0  0
  131.0430  124.2080   62.2500 C   0  0  0  0  0  0  0  0  0  0  0  0
  131.3420  123.6430   60.9670 C   0  0  0  0  0  0  0  0  0  0  0  0
  131.5710  123.2010   59.9230 N   0  0  0  0  0  0  0  0  0  0  0  0
  131.5200  123.6020   63.3510 C   0  0  0  0  0  0  0  0  0  0  0  0
  132.3100  122.4840   63.4020 N   0  0  0  0  0  0  0  0  0  0  0  0
  131.3150  124.0210   64.6140 O   0  0  0  0  0  0  0  0  0  0  0  0
  130.4930  125.1000   64.8520 C   0  0  0  0  0  0  0  0  0  0  0  0
  130.3100  125.3540   66.1980 C   0  0  0  0  0  0  0  0  0  0  0  0
  129.5220  126.4140   66.6010 C   0  0  0  0  0  0  0  0  0  0  0  0
  129.4270  126.5580   67.9700 O   0  0  0  0  0  0  0  0  0  0  0  0
  128.6600  127.5520   68.4790 C   0  0  0  0  0  0  0  0  0  0  0  0
  128.7220  127.5660   69.9600 C   0  0  0  0  0  0  0  0  0  0  0  0
  127.6380  127.0420   70.6740 C   0  0  0  0  0  0  0  0  0  0  0  0
  127.6300  127.0410   72.0650 C   0  0  0  0  0  0  0  0  0  0  0  0
  128.7040  127.5620   72.7830 C   0  0  0  0  0  0  0  0  0  0  0  0
  128.6090  127.5160   74.1600 O   0  0  0  0  0  0  0  0  0  0  0  0
  127.9390  128.5680   74.8470 C   0  0  0  0  0  0  0  0  0  0  0  0
  129.7950  128.0870   72.0740 C   0  0  0  0  0  0  0  0  0  0  0  0
  129.8200  128.0950   70.6670 C   0  0  0  0  0  0  0  0  0  0  0  0
  130.8890  128.5830   69.9330 O   0  0  0  0  0  0  0  0  0  0  0  0
  131.5880  127.7260   69.0380 C   0  0  0  0  0  0  0  0  0  0  0  0
  128.0090  128.4510   67.7170 C   0  0  0  0  0  0  0  0  0  0  0  0
  128.0430  128.4020   66.2610 C   0  0  0  0  0  0  0  0  0  0  0  0
  127.4290  129.2310   65.5880 O   0  0  0  0  0  0  0  0  0  0  0  0
  128.8830  127.2620   65.6770 C   0  0  0  0  0  0  0  0  0  0  0  0
  129.0820  126.9820   64.2850 C   0  0  0  0  0  0  0  0  0  0  0  0
  128.5270  127.7240   63.3980 O   0  0  0  0  0  0  0  0  0  0  0  0
  129.8940  125.8850   63.8440 C   0  0  0  0  0  0  0  0  0  0  0  0
  128.9430  125.3460   61.4990 C   0  0  0  0  0  0  0  0  0  0  0  0
  127.8190  124.5280   61.6340 C   0  0  0  0  0  0  0  0  0  0  0  0
  126.8030  124.5900   60.6770 C   0  0  0  0  0  0  0  0  0  0  0  0
  125.4110  123.5810   60.8310 Cl  0  0  0  0  0  0  0  0  0  0  0  0
  126.9150  125.4660   59.5920 C   0  0  0  0  0  0  0  0  0  0  0  0
  128.0390  126.2840   59.4610 C   0  0  0  0  0  0  0  0  0  0  0  0
  129.0490  126.2130   60.4250 C   0  0  0  0  0  0  0  0  0  0  0  0
  132.2119  126.7597   58.6574 H   0  0  0  0  0  0  0  0  0  0  0  0
  130.6651  126.8484   57.7485 H   0  0  0  0  0  0  0  0  0  0  0  0
  131.7885  128.2500   57.7485 H   0  0  0  0  0  0  0  0  0  0  0  0
  131.3906  128.6391   60.1272 H   0  0  0  0  0  0  0  0  0  0  0  0
  129.7954  128.5279   59.2570 H   0  0  0  0  0  0  0  0  0  0  0  0
  132.4520  121.9160   62.5790 H   0  0  0  0  0  0  0  0  0  0  0  0
  132.9300  122.3300   64.1850 H   0  0  0  0  0  0  0  0  0  0  0  0
  130.7925  124.7112   66.9491 H   0  0  0  0  0  0  0  0  0  0  0  0
  126.7797  126.6248   70.1269 H   0  0  0  0  0  0  0  0  0  0  0  0
  126.7663  126.6243   72.6038 H   0  0  0  0  0  0  0  0  0  0  0  0
  128.0353  128.4169   75.9323 H   0  0  0  0  0  0  0  0  0  0  0  0
  128.3896  129.5324   74.5697 H   0  0  0  0  0  0  0  0  0  0  0  0
  126.8745  128.5674   74.5697 H   0  0  0  0  0  0  0  0  0  0  0  0
  130.6491  128.5012   72.6299 H   0  0  0  0  0  0  0  0  0  0  0  0
  132.1805  126.9996   69.6135 H   0  0  0  0  0  0  0  0  0  0  0  0
  130.8660  127.1902   68.4042 H   0  0  0  0  0  0  0  0  0  0  0  0
  132.2580  128.3256   68.4042 H   0  0  0  0  0  0  0  0  0  0  0  0
  127.4328  129.2482   68.2094 H   0  0  0  0  0  0  0  0  0  0  0  0
  127.7343  123.8397   62.4879 H   0  0  0  0  0  0  0  0  0  0  0  0
  126.1143  125.5106   58.8390 H   0  0  0  0  0  0  0  0  0  0  0  0
  128.1286  126.9754   58.6102 H   0  0  0  0  0  0  0  0  0  0  0  0
  1  2  1  0
  2  3  1  0
  3  4  1  0
  4  5  2  0
  6  4  1  6
  6  7  1  0
  7  8  1  0
  8  9  3  0
  7 10  2  0
 10 11  1  0
 10 12  1  0
 12 13  1  0
 13 14  2  0
 14 15  1  0
 15 16  1  0
 16 17  1  0
 17 18  1  0
 18 19  2  0
 19 20  1  0
 20 21  2  0
 21 22  1  0
 22 23  1  0
 21 24  1  0
 24 25  2  0
 25 26  1  0
 26 27  1  0
 17 28  2  0
 28 29  1  0
 29 30  2  0
 29 31  1  0
 31 32  1  0
 32 33  1  0
 32 34  2  0
  6 35  1  0
 35 36  2  0
 36 37  1  0
 37 38  1  0
 37 39  2  0
 39 40  1  0
 40 41  2  0
 41  3  1  0
 34  6  1  0
 41 35  1  0
 34 13  1  0
 31 15  2  0
 25 18  1  0
  1 42  1  0
  1 43  1  0
  1 44  1  0
  2 45  1  0
  2 46  1  0
 11 47  1  0
 11 48  1  0
 14 49  1  0
 19 50  1  0
 20 51  1  0
 23 52  1  0
 23 53  1  0
 23 54  1  0
 24 55  1  0
 27 56  1  0
 27 57  1  0
 27 58  1  0
 28 59  1  0
 36 60  1  0
 39 61  1  0
 40 62  1  0
M  CHG  1  33  -1
M  END
>  <Binding energies>  (1) 
[-5.4]

>  <Ligand effiencies>  (1) 
[-0.12558139534883722]

>  <Interactions>  (1) 
["V-B:PRO:540:CA:9855, V-A:ARG:545:CA:4919, V-A:GLY:454:CA:4049, V-B:HIS:456:CD2:9039, V-B:GLU:543:C:9874, V-A:GLU:543:C:4902, V-B:GLU:543:CB:9878, H-B:LYS:547:NZ:9923, V-B:TYR:539:CE2:9848, V-B:GLU:543:CG:9879, V-A:GLY:544:C:4912, V-A:ASP:366:CG:3213, H-A:ARG:545:N:4920, V-A:GLU:543:CD:4908, V-B:PRO:540:CB:9857, H-B:TYR:484:OH:9319, V-B:HIS:456:CE1:9041, V-A:ARG:545:CG:4922, V-A:HIS:456:CE1:4070, V-B:GLY:544:C:9884, V-A:GLU:543:CG:4907, V-B:GLU:543:CD:9880, V-A:ASP:366:CB:3212, V-A:LEU:475:CD2:4259, H-A:ARG:545:NH2:4928, V-A:GLU:543:CB:4906, H-A:GLY:544:N:4915, H-A:TYR:484:OH:4348"]

$$$$
ZINC1857589286-again1
     RDKit          3D

 63 68  0  0  0  0  0  0  0  0999 V2000
  131.4740  127.2870   58.6570 C   0  0  0  0  0  0  0  0  0  0  0  0
  130.5710  127.8220   59.7780 C   0  0  0  0  0  0  0  0  0  0  0  0
  130.1940  126.7870   60.7440 N   0  0  0  0  0  0  0  0  0  0  0  0
  131.0060  126.4600   61.7830 C   0  0  0  0  0  0  0  0  0  0  0  0
  132.0870  126.9680   62.0880 O   0  0  0  0  0  0  0  0  0  0  0  0
  130.3210  125.2920   62.5300 C   0  0  1  0  0  0  0  0  0  0  0  0
  131.2350  124.0600   62.3890 C   0  0  0  0  0  0  0  0  0  0  0  0
  131.4800  123.5090   61.0890 C   0  0  0  0  0  0  0  0  0  0  0  0
  131.6670  123.0840   60.0290 N   0  0  0  0  0  0  0  0  0  0  0  0
  131.8160  123.4890   63.4610 C   0  0  0  0  0  0  0  0  0  0  0  0
  132.6400  122.3930   63.4670 N   0  0  0  0  0  0  0  0  0  0  0  0
  131.6500  123.8880   64.7410 O   0  0  0  0  0  0  0  0  0  0  0  0
  130.7930  124.9300   65.0210 C   0  0  0  0  0  0  0  0  0  0  0  0
  130.6570  125.2110   66.3720 C   0  0  0  0  0  0  0  0  0  0  0  0
  129.8260  126.2430   66.7790 C   0  0  0  0  0  0  0  0  0  0  0  0
  129.7590  126.4500   68.1430 O   0  0  0  0  0  0  0  0  0  0  0  0
  128.9950  127.4690   68.6150 C   0  0  0  0  0  0  0  0  0  0  0  0
  129.0340  127.5190   70.0950 C   0  0  0  0  0  0  0  0  0  0  0  0
  127.9480  126.9930   70.8050 C   0  0  0  0  0  0  0  0  0  0  0  0
  127.9360  126.9880   72.1960 C   0  0  0  0  0  0  0  0  0  0  0  0
  129.0080  127.5070   72.9170 C   0  0  0  0  0  0  0  0  0  0  0  0
  128.9110  127.4560   74.2950 O   0  0  0  0  0  0  0  0  0  0  0  0
  128.2560  128.5120   74.9880 C   0  0  0  0  0  0  0  0  0  0  0  0
  130.0980  128.0410   72.2130 C   0  0  0  0  0  0  0  0  0  0  0  0
  130.1250  128.0560   70.8060 C   0  0  0  0  0  0  0  0  0  0  0  0
  131.1720  128.5930   70.0760 O   0  0  0  0  0  0  0  0  0  0  0  0
  132.0900  127.7320   69.4100 C   0  0  0  0  0  0  0  0  0  0  0  0
  128.2400  128.2640   67.8260 C   0  0  0  0  0  0  0  0  0  0  0  0
  128.2180  128.1240   66.3750 C   0  0  0  0  0  0  0  0  0  0  0  0
  127.5360  128.8530   65.6560 O   0  0  0  0  0  0  0  0  0  0  0  0
  129.1060  127.0150   65.8510 C   0  0  0  0  0  0  0  0  0  0  0  0
  129.2580  126.7100   64.4780 C   0  0  0  0  0  0  0  0  0  0  0  0
  128.5750  127.4460   63.5370 O   0  0  0  0  0  0  0  0  0  0  0  0
  130.1050  125.6630   64.0320 C   0  0  0  0  0  0  0  0  0  0  0  0
  129.0360  125.1220   61.7690 C   0  0  0  0  0  0  0  0  0  0  0  0
  127.9570  124.2550   61.9600 C   0  0  0  0  0  0  0  0  0  0  0  0
  126.8770  124.2940   61.0730 C   0  0  0  0  0  0  0  0  0  0  0  0
  125.5390  123.2280   61.2970 Cl  0  0  0  0  0  0  0  0  0  0  0  0
  126.8800  125.1960   60.0040 C   0  0  0  0  0  0  0  0  0  0  0  0
  127.9600  126.0630   59.8190 C   0  0  0  0  0  0  0  0  0  0  0  0
  129.0320  126.0140   60.7110 C   0  0  0  0  0  0  0  0  0  0  0  0
  132.3409  126.7734   59.0982 H   0  0  0  0  0  0  0  0  0  0  0  0
  130.9061  126.5795   58.0349 H   0  0  0  0  0  0  0  0  0  0  0  0
  131.8218  128.1249   58.0349 H   0  0  0  0  0  0  0  0  0  0  0  0
  131.1073  128.6214   60.3103 H   0  0  0  0  0  0  0  0  0  0  0  0
  129.6466  128.1927   59.3111 H   0  0  0  0  0  0  0  0  0  0  0  0
  132.9800  122.0090   64.3370 H   0  0  0  0  0  0  0  0  0  0  0  0
  133.0740  122.0720   62.6140 H   0  0  0  0  0  0  0  0  0  0  0  0
  131.2063  124.6174   67.1176 H   0  0  0  0  0  0  0  0  0  0  0  0
  127.0912  126.5773   70.2545 H   0  0  0  0  0  0  0  0  0  0  0  0
  127.0710  126.5699   72.7316 H   0  0  0  0  0  0  0  0  0  0  0  0
  128.3535  128.3549   76.0723 H   0  0  0  0  0  0  0  0  0  0  0  0
  128.7173  129.4722   74.7137 H   0  0  0  0  0  0  0  0  0  0  0  0
  127.1908  128.5254   74.7137 H   0  0  0  0  0  0  0  0  0  0  0  0
  130.9491  128.4565   72.7725 H   0  0  0  0  0  0  0  0  0  0  0  0
  132.6802  127.1785   70.1552 H   0  0  0  0  0  0  0  0  0  0  0  0
  131.5351  127.0211   68.7802 H   0  0  0  0  0  0  0  0  0  0  0  0
  132.7639  128.3313   68.7802 H   0  0  0  0  0  0  0  0  0  0  0  0
  127.6208  129.0434   68.2941 H   0  0  0  0  0  0  0  0  0  0  0  0
  127.7030  127.7120   63.8350 H   0  0  0  0  0  0  0  0  0  0  0  0
  127.9573  123.5471   62.8019 H   0  0  0  0  0  0  0  0  0  0  0  0
  126.0296  125.2229   59.3068 H   0  0  0  0  0  0  0  0  0  0  0  0
  127.9651  126.7752   58.9807 H   0  0  0  0  0  0  0  0  0  0  0  0
  1  2  1  0
  2  3  1  0
  3  4  1  0
  4  5  2  0
  6  4  1  6
  6  7  1  0
  7  8  1  0
  8  9  3  0
  7 10  2  0
 10 11  1  0
 10 12  1  0
 12 13  1  0
 13 14  2  0
 14 15  1  0
 15 16  1  0
 16 17  1  0
 17 18  1  0
 18 19  2  0
 19 20  1  0
 20 21  2  0
 21 22  1  0
 22 23  1  0
 21 24  1  0
 24 25  2  0
 25 26  1  0
 26 27  1  0
 17 28  2  0
 28 29  1  0
 29 30  2  0
 29 31  1  0
 31 32  1  0
 32 33  1  0
 32 34  2  0
  6 35  1  0
 35 36  2  0
 36 37  1  0
 37 38  1  0
 37 39  2  0
 39 40  1  0
 40 41  2  0
 41  3  1  0
 34  6  1  0
 41 35  1  0
 34 13  1  0
 31 15  2  0
 25 18  1  0
  1 42  1  0
  1 43  1  0
  1 44  1  0
  2 45  1  0
  2 46  1  0
 11 47  1  0
 11 48  1  0
 14 49  1  0
 19 50  1  0
 20 51  1  0
 23 52  1  0
 23 53  1  0
 23 54  1  0
 24 55  1  0
 27 56  1  0
 27 57  1  0
 27 58  1  0
 28 59  1  0
 33 60  1  0
 36 61  1  0
 39 62  1  0
 40 63  1  0
M  END
>  <Binding energies>  (1) 
[-6.64]

>  <Ligand effiencies>  (1) 
[-0.1509090909090909]

>  <Interactions>  (1) 
["V-B:PRO:540:CA:9855, V-A:ARG:545:CA:4919, V-A:GLY:454:CA:4049, V-B:GLU:543:C:9874, V-A:GLU:543:C:4902, V-B:GLU:543:CB:9878, H-B:LYS:547:NZ:9923, V-A:TYR:484:CE2:4346, V-B:GLU:543:CG:9879, V-A:GLY:544:C:4912, V-A:ASP:366:CG:3213, H-A:ARG:545:N:4920, H-B:GLU:543:OE1:9881, V-A:TYR:484:CZ:4347, V-B:PRO:540:CB:9857, V-A:GLU:543:CD:4908, H-B:TYR:484:OH:9319, V-B:HIS:456:CE1:9041, V-A:ARG:545:CG:4922, V-A:HIS:456:CE1:4070, V-B:GLY:544:C:9884, V-A:GLU:543:CG:4907, V-B:GLU:543:CD:9880, V-A:ASP:366:CB:3212, V-A:ARG:545:CB:4921, V-A:LEU:475:CD2:4259, H-A:ARG:545:NH2:4928, V-A:GLU:543:CB:4906, H-B:GLU:543:OE2:9882, V-B:PRO:540:C:9853, H-A:GLY:544:N:4915, H-A:TYR:484:OH:4348"]

$$$$
ZINC1857597907
     RDKit          3D

 71 76  0  0  0  0  0  0  0  0999 V2000
  133.1710  120.2260   59.6130 O   0  0  0  0  0  0  0  0  0  0  0  0
  133.2730  120.9990   60.5610 N   0  0  0  0  0  0  0  0  0  0  0  0
  134.3510  121.4460   60.9400 O   0  0  0  0  0  0  0  0  0  0  0  0
  132.0400  121.4080   61.2780 C   0  0  0  0  0  0  0  0  0  0  0  0
  130.7730  121.1120   60.7530 C   0  0  0  0  0  0  0  0  0  0  0  0
  129.6170  121.4890   61.4320 C   0  0  0  0  0  0  0  0  0  0  0  0
  129.7060  122.1730   62.6410 C   0  0  0  0  0  0  0  0  0  0  0  0
  130.9590  122.4950   63.1820 C   0  0  0  0  0  0  0  0  0  0  0  0
  131.1200  123.1750   64.4030 N   0  0  0  0  0  0  0  0  0  0  0  0
  130.4630  124.2800   64.9650 C   0  0  0  0  0  0  0  0  0  0  0  0
  130.1800  125.2920   64.1080 N   0  0  0  0  0  0  0  0  0  0  0  0
  129.5010  126.3460   64.6520 C   0  0  0  0  0  0  0  0  0  0  0  0
  129.2000  127.4590   63.8530 N   0  0  0  0  0  0  0  0  0  0  0  0
  129.6990  127.6420   62.6910 C   0  0  0  0  0  0  0  0  0  0  0  0
  130.5740  126.7870   62.0230 N   0  0  0  0  0  0  0  0  0  0  0  0
  130.8980  126.8940   60.7860 C   0  0  0  0  0  0  0  0  0  0  0  0
  131.9210  125.9920   60.2150 C   0  0  0  0  0  0  0  0  0  0  0  0
  132.0850  125.9640   58.8210 C   0  0  0  0  0  0  0  0  0  0  0  0
  133.0270  125.1260   58.2260 C   0  0  0  0  0  0  0  0  0  0  0  0
  133.8240  124.3040   59.0180 C   0  0  0  0  0  0  0  0  0  0  0  0
  133.6800  124.3230   60.4040 C   0  0  0  0  0  0  0  0  0  0  0  0
  132.7410  125.1610   61.0090 C   0  0  0  0  0  0  0  0  0  0  0  0
  132.6740  125.1520   62.3820 O   0  0  0  0  0  0  0  0  0  0  0  0
  130.2340  127.9140   59.8370 C   0  0  0  0  0  0  0  0  0  0  0  0
  130.1220  129.3000   60.5100 C   0  0  1  0  0  0  0  0  0  0  0  0
  129.6230  130.3770   59.5340 C   0  0  0  0  0  0  0  0  0  0  0  0
  129.1410  129.9750   58.2790 C   0  0  0  0  0  0  0  0  0  0  0  0
  128.6320  130.9030   57.3730 C   0  0  0  0  0  0  0  0  0  0  0  0
  128.6000  132.2510   57.7080 C   0  0  0  0  0  0  0  0  0  0  0  0
  129.0960  132.6730   58.9380 C   0  0  0  0  0  0  0  0  0  0  0  0
  129.6290  131.7550   59.8560 C   0  0  0  0  0  0  0  0  0  0  0  0
  130.1950  132.2780   61.1170 N   0  0  0  0  0  0  0  0  0  0  0  0
  129.4280  132.7380   61.9580 O   0  0  0  0  0  0  0  0  0  0  0  0
  131.4070  132.1820   61.2850 O   0  0  0  0  0  0  0  0  0  0  0  0
  129.1260  129.2240   62.0380 S   0  0  0  0  0  0  0  0  0  0  0  0
  129.1390  126.4410   65.9590 N   0  0  0  0  0  0  0  0  0  0  0  0
  129.4650  125.3730   66.7320 C   0  0  0  0  0  0  0  0  0  0  0  0
  129.1110  125.4700   68.0860 N   0  0  0  0  0  0  0  0  0  0  0  0
  129.1900  126.5300   69.0080 C   0  0  0  0  0  0  0  0  0  0  0  0
  129.4090  127.8600   68.6290 C   0  0  0  0  0  0  0  0  0  0  0  0
  129.4850  128.8640   69.5910 C   0  0  0  0  0  0  0  0  0  0  0  0
  129.3530  128.5480   70.9420 C   0  0  0  0  0  0  0  0  0  0  0  0
  129.1470  127.2230   71.3510 C   0  0  0  0  0  0  0  0  0  0  0  0
  129.0100  126.8850   72.7900 N   0  0  0  0  0  0  0  0  0  0  0  0
  129.1980  125.7220   73.1400 O   0  0  0  0  0  0  0  0  0  0  0  0
  128.7150  127.7780   73.5790 O   0  0  0  0  0  0  0  0  0  0  0  0
  129.0730  126.2240   70.3680 C   0  0  0  0  0  0  0  0  0  0  0  0
  130.1250  124.2720   66.2820 N   0  0  0  0  0  0  0  0  0  0  0  0
  132.1130  122.0990   62.4990 C   0  0  0  0  0  0  0  0  0  0  0  0
  130.6919  120.5768   59.7954 H   0  0  0  0  0  0  0  0  0  0  0  0
  128.6302  121.2454   61.0114 H   0  0  0  0  0  0  0  0  0  0  0  0
  128.7888  122.4624   63.1748 H   0  0  0  0  0  0  0  0  0  0  0  0
  131.8160  122.7700   65.0110 H   0  0  0  0  0  0  0  0  0  0  0  0
  131.4610  126.6129   58.1889 H   0  0  0  0  0  0  0  0  0  0  0  0
  133.1404  125.1143   57.1319 H   0  0  0  0  0  0  0  0  0  0  0  0
  134.5664  123.6405   58.5504 H   0  0  0  0  0  0  0  0  0  0  0  0
  134.3114  123.6723   61.0268 H   0  0  0  0  0  0  0  0  0  0  0  0
  131.8370  125.4820   62.7180 H   0  0  0  0  0  0  0  0  0  0  0  0
  130.8408  128.0048   58.9240 H   0  0  0  0  0  0  0  0  0  0  0  0
  129.2221  127.5593   59.5916 H   0  0  0  0  0  0  0  0  0  0  0  0
  131.1369  129.6027   60.8073 H   0  0  0  0  0  0  0  0  0  0  0  0
  129.1654  128.9097   58.0060 H   0  0  0  0  0  0  0  0  0  0  0  0
  128.2563  130.5692   56.3945 H   0  0  0  0  0  0  0  0  0  0  0  0
  128.1830  132.9840   57.0017 H   0  0  0  0  0  0  0  0  0  0  0  0
  129.0699  133.7424   59.1945 H   0  0  0  0  0  0  0  0  0  0  0  0
  128.7700  124.6050   68.4780 H   0  0  0  0  0  0  0  0  0  0  0  0
  129.5217  128.1134   67.5645 H   0  0  0  0  0  0  0  0  0  0  0  0
  129.6494  129.9075   69.2843 H   0  0  0  0  0  0  0  0  0  0  0  0
  129.4111  129.3471   71.6957 H   0  0  0  0  0  0  0  0  0  0  0  0
  128.9198  125.1784   70.6734 H   0  0  0  0  0  0  0  0  0  0  0  0
  133.0989  122.3335   62.9268 H   0  0  0  0  0  0  0  0  0  0  0  0
  1  2  2  0
  2  3  1  0
  2  4  1  0
  4  5  2  0
  5  6  1  0
  6  7  2  0
  7  8  1  0
  8  9  1  0
  9 10  1  0
 10 11  2  0
 11 12  1  0
 12 13  1  0
 13 14  2  0
 14 15  1  0
 15 16  2  0
 16 17  1  0
 17 18  2  0
 18 19  1  0
 19 20  2  0
 20 21  1  0
 21 22  2  0
 22 23  1  0
 16 24  1  0
 24 25  1  0
 25 26  1  0
 26 27  2  0
 27 28  1  0
 28 29  2  0
 29 30  1  0
 30 31  2  0
 31 32  1  0
 32 33  2  0
 32 34  1  0
 25 35  1  0
 12 36  2  0
 36 37  1  0
 37 38  1  0
 38 39  1  0
 39 40  2  0
 40 41  1  0
 41 42  2  0
 42 43  1  0
 43 44  1  0
 44 45  2  0
 44 46  1  0
 43 47  2  0
 37 48  2  0
  8 49  2  0
 49  4  1  0
 48 10  1  0
 35 14  1  0
 47 39  1  0
 22 17  1  0
 31 26  1  0
  5 50  1  0
  6 51  1  0
  7 52  1  0
  9 53  1  0
 18 54  1  0
 19 55  1  0
 20 56  1  0
 21 57  1  0
 23 58  1  0
 24 59  1  0
 24 60  1  0
 25 61  1  1
 27 62  1  0
 28 63  1  0
 29 64  1  0
 30 65  1  0
 38 66  1  0
 40 67  1  0
 41 68  1  0
 42 69  1  0
 47 70  1  0
 49 71  1  0
M  CHG  6   2   1   3  -1  32   1  34  -1  44   1  46  -1
M  END
>  <Binding energies>  (1) 
[-10.58]

>  <Ligand effiencies>  (1) 
[-0.20346153846153847]

>  <Interactions>  (1) 
["V-A:ILE:369:CG2:3237, V-A:ASP:366:CA:3210, V-A:GLU:543:CA:4904, V-B:GLU:543:C:9874, V-A:ILE:369:CB:3236, H-B:GLU:543:O:9875, H-A:ALA:541:N:4891, V-A:GLU:543:C:4902, V-B:GLU:543:CB:9878, H-B:LYS:547:NZ:9923, V-A:PRO:540:C:4881, V-B:HIS:456:CD2:9039, V-B:ALA:541:CB:9864, V-B:TYR:539:CE2:9848, V-A:TYR:484:CE2:4346, V-B:GLU:543:CG:9879, V-A:ASP:366:CG:3213, V-A:HIS:456:CD2:4068, V-A:TYR:539:CD1:4873, V-B:TYR:539:CZ:9849, V-A:GLU:543:CD:4908, V-A:TYR:484:CZ:4347, V-B:GLU:543:CA:9876, V-B:HIS:456:CE1:9041, V-A:ILE:369:CD1:3239, V-A:HIS:456:CE1:4070, V-A:ASP:366:C:3208, V-B:TYR:539:CD2:9846, V-A:SER:385:CB:3409, H-A:SER:385:OG:3410, V-B:GLU:543:CD:9880, V-A:MET:535:CE:4835, V-A:TYR:539:C:4867, V-A:ASP:366:CB:3212, V-A:LEU:475:CD2:4259, H-A:ARG:545:NH2:4928, V-A:GLU:543:CB:4906, V-A:PRO:540:N:4884, V-A:PRO:540:CB:4885, V-A:PRO:540:CA:4883, V-A:TYR:539:CE1:4875, H-A:HIS:456:NE2:4071, H-A:TYR:484:OH:4348"]

$$$$
ZINC1857598425
     RDKit          3D

 75 78  0  0  0  0  0  0  0  0999 V2000
  127.6790  128.6090   67.2720 C   0  0  0  0  0  0  0  0  0  0  0  0
  128.1050  127.9200   68.4390 O   0  0  0  0  0  0  0  0  0  0  0  0
  129.0260  126.9350   68.3650 C   0  0  0  0  0  0  0  0  0  0  0  0
  129.4830  126.3280   69.3380 O   0  0  0  0  0  0  0  0  0  0  0  0
  129.4230  126.6720   66.9860 C   0  0  0  0  0  0  0  0  0  0  0  0
  130.2000  125.6230   66.6350 C   0  0  0  0  0  0  0  0  0  0  0  0
  130.6460  125.2770   65.2680 C   0  0  0  0  0  0  0  0  0  0  0  0
  129.7370  125.4100   64.2140 C   0  0  0  0  0  0  0  0  0  0  0  0
  130.1090  125.0890   62.9110 C   0  0  0  0  0  0  0  0  0  0  0  0
  131.4000  124.6380   62.6330 C   0  0  0  0  0  0  0  0  0  0  0  0
  131.7150  124.3330   61.3250 O   0  0  0  0  0  0  0  0  0  0  0  0
  131.1950  123.2160   60.7480 C   0  0  0  0  0  0  0  0  0  0  0  0
  131.8100  122.1770   60.4840 O   0  0  0  0  0  0  0  0  0  0  0  0
  129.8690  123.4620   60.5210 O   0  0  0  0  0  0  0  0  0  0  0  0
  129.0830  122.4660   59.8960 C   0  0  0  0  0  0  0  0  0  0  0  0
  127.7530  122.9500   59.5330 N   0  0  0  0  0  0  0  0  0  0  0  0
  126.9540  123.5320   60.4570 C   0  0  0  0  0  0  0  0  0  0  0  0
  127.1800  123.6990   61.6560 O   0  0  0  0  0  0  0  0  0  0  0  0
  125.4120  124.0470   59.6880 S   0  0  0  0  0  0  0  0  0  0  0  0
  126.0010  123.5700   58.0560 C   0  0  1  0  0  0  0  0  0  0  0  0
  126.2950  124.7890   57.1440 C   0  0  0  0  0  0  0  0  0  0  0  0
  127.3600  125.7330   57.6870 C   0  0  0  0  0  0  0  0  0  0  0  0
  126.9920  126.8170   58.4860 C   0  0  0  0  0  0  0  0  0  0  0  0
  127.9670  127.6810   58.9760 C   0  0  0  0  0  0  0  0  0  0  0  0
  129.3140  127.4750   58.6760 C   0  0  0  0  0  0  0  0  0  0  0  0
  130.2080  128.3900   59.2010 O   0  0  0  0  0  0  0  0  0  0  0  0
  129.7660  129.3050   60.1990 C   0  0  0  0  0  0  0  0  0  0  0  0
  130.9800  129.7250   61.0440 C   0  0  0  0  0  0  0  0  0  0  0  0
  131.4950  131.0540   60.6890 N   0  0  0  0  0  0  0  0  0  0  0  0
  132.5320  131.6120   61.5580 C   0  0  0  0  0  0  0  0  0  0  0  0
  131.3190  131.5690   59.3730 C   0  0  0  0  0  0  0  0  0  0  0  0
  132.1760  131.2070   58.3160 C   0  0  0  0  0  0  0  0  0  0  0  0
  131.9660  131.7360   57.0420 C   0  0  0  0  0  0  0  0  0  0  0  0
  130.9100  132.6200   56.8290 C   0  0  0  0  0  0  0  0  0  0  0  0
  130.0950  132.9470   57.9100 C   0  0  0  0  0  0  0  0  0  0  0  0
  130.2880  132.4390   59.1530 N   0  0  0  0  0  0  0  0  0  0  0  0
  129.6790  126.3800   57.8770 C   0  0  0  0  0  0  0  0  0  0  0  0
  128.7050  125.5140   57.3880 C   0  0  0  0  0  0  0  0  0  0  0  0
  127.2850  122.7740   58.2740 C   0  0  0  0  0  0  0  0  0  0  0  0
  127.8110  122.1050   57.3830 O   0  0  0  0  0  0  0  0  0  0  0  0
  132.3280  124.4780   63.6770 C   0  0  0  0  0  0  0  0  0  0  0  0
  133.5810  123.9830   63.3520 O   0  0  0  0  0  0  0  0  0  0  0  0
  134.4160  124.7210   62.4640 C   0  0  0  0  0  0  0  0  0  0  0  0
  131.9380  124.8090   64.9860 C   0  0  0  0  0  0  0  0  0  0  0  0
  127.1210  129.5115   67.5622 H   0  0  0  0  0  0  0  0  0  0  0  0
  128.5570  128.8968   66.6751 H   0  0  0  0  0  0  0  0  0  0  0  0
  127.0291  127.9522   66.6751 H   0  0  0  0  0  0  0  0  0  0  0  0
  129.0752  127.3565   66.1983 H   0  0  0  0  0  0  0  0  0  0  0  0
  130.5339  124.9606   67.4472 H   0  0  0  0  0  0  0  0  0  0  0  0
  128.7180  125.7717   64.4160 H   0  0  0  0  0  0  0  0  0  0  0  0
  129.3793  125.1918   62.0943 H   0  0  0  0  0  0  0  0  0  0  0  0
  129.5979  122.1311   58.9835 H   0  0  0  0  0  0  0  0  0  0  0  0
  128.9549  121.6418   60.6132 H   0  0  0  0  0  0  0  0  0  0  0  0
  125.2227  122.9839   57.5453 H   0  0  0  0  0  0  0  0  0  0  0  0
  126.6320  124.4148   56.1661 H   0  0  0  0  0  0  0  0  0  0  0  0
  125.3621  125.3683   57.0804 H   0  0  0  0  0  0  0  0  0  0  0  0
  125.9327  126.9881   58.7280 H   0  0  0  0  0  0  0  0  0  0  0  0
  127.6730  128.5339   59.6054 H   0  0  0  0  0  0  0  0  0  0  0  0
  129.3220  130.1905   59.7207 H   0  0  0  0  0  0  0  0  0  0  0  0
  129.0069  128.8299   60.8378 H   0  0  0  0  0  0  0  0  0  0  0  0
  130.6829  129.7357   62.1031 H   0  0  0  0  0  0  0  0  0  0  0  0
  131.7829  128.9986   60.8497 H   0  0  0  0  0  0  0  0  0  0  0  0
  132.2495  131.4600   62.6102 H   0  0  0  0  0  0  0  0  0  0  0  0
  133.4885  131.1068   61.3585 H   0  0  0  0  0  0  0  0  0  0  0  0
  132.6374  132.6886   61.3585 H   0  0  0  0  0  0  0  0  0  0  0  0
  133.0080  130.5097   58.4940 H   0  0  0  0  0  0  0  0  0  0  0  0
  132.6301  131.4569   56.2107 H   0  0  0  0  0  0  0  0  0  0  0  0
  130.7249  133.0484   55.8329 H   0  0  0  0  0  0  0  0  0  0  0  0
  129.2607  133.6457   57.7493 H   0  0  0  0  0  0  0  0  0  0  0  0
  130.7382  126.2057   57.6365 H   0  0  0  0  0  0  0  0  0  0  0  0
  128.9963  124.6556   56.7648 H   0  0  0  0  0  0  0  0  0  0  0  0
  135.1151  125.3389   63.0466 H   0  0  0  0  0  0  0  0  0  0  0  0
  134.9835  124.0239   61.8300 H   0  0  0  0  0  0  0  0  0  0  0  0
  133.7939  125.3699   61.8300 H   0  0  0  0  0  0  0  0  0  0  0  0
  132.6615  124.6987   65.8072 H   0  0  0  0  0  0  0  0  0  0  0  0
  1  2  1  0
  2  3  1  0
  3  4  2  0
  3  5  1  0
  5  6  2  0
  6  7  1  0
  7  8  2  0
  8  9  1  0
  9 10  2  0
 10 11  1  0
 11 12  1  0
 12 13  2  0
 12 14  1  0
 14 15  1  0
 15 16  1  0
 16 17  1  0
 17 18  2  0
 17 19  1  0
 19 20  1  0
 20 21  1  0
 21 22  1  0
 22 23  2  0
 23 24  1  0
 24 25  2  0
 25 26  1  0
 26 27  1  0
 27 28  1  0
 28 29  1  0
 29 30  1  0
 29 31  1  0
 31 32  2  0
 32 33  1  0
 33 34  2  0
 34 35  1  0
 35 36  2  0
 25 37  1  0
 37 38  2  0
 20 39  1  0
 39 40  2  0
 10 41  1  0
 41 42  1  0
 42 43  1  0
 41 44  2  0
 44  7  1  0
 39 16  1  0
 38 22  1  0
 36 31  1  0
  1 45  1  0
  1 46  1  0
  1 47  1  0
  5 48  1  0
  6 49  1  0
  8 50  1  0
  9 51  1  0
 15 52  1  0
 15 53  1  0
 20 54  1  6
 21 55  1  0
 21 56  1  0
 23 57  1  0
 24 58  1  0
 27 59  1  0
 27 60  1  0
 28 61  1  0
 28 62  1  0
 30 63  1  0
 30 64  1  0
 30 65  1  0
 32 66  1  0
 33 67  1  0
 34 68  1  0
 35 69  1  0
 37 70  1  0
 38 71  1  0
 43 72  1  0
 43 73  1  0
 43 74  1  0
 44 75  1  0
M  END
>  <Binding energies>  (1) 
[-7.16]

>  <Ligand effiencies>  (1) 
[-0.16272727272727272]

>  <Interactions>  (1) 
["V-B:PRO:540:CA:9855, V-B:GLU:543:CB:9878, V-A:ILE:538:CB:4862, V-B:TYR:539:CE2:9848, H-B:TYR:539:N:9842, V-B:GLU:543:CG:9879, V-B:TYR:539:C:9839, V-A:ASP:366:CG:3213, V-A:LEU:363:CD1:3189, V-A:GLU:543:CD:4908, V-B:PRO:540:CB:9857, V-B:HIS:456:CE1:9041, H-A:GLY:454:N:4050, V-A:GLY:453:C:4042, V-B:PRO:540:N:9856, V-A:HIS:456:CE1:4070, V-A:ILE:369:CD1:3239, V-B:TYR:539:CD2:9846, V-B:GLU:543:CD:9880, V-A:TYR:539:C:4867, V-A:ARG:545:CZ:4926, V-A:PRO:540:N:4884, V-A:GLY:453:CA:4044, V-A:PRO:540:CB:4885, V-A:PRO:540:CA:4883, V-A:PRO:540:CD:4887"]

$$$$
ZINC1857607375
     RDKit          3D

104108  0  0  0  0  0  0  0  0999 V2000
  129.9930  126.2050   64.0110 C   0  0  0  0  0  0  0  0  0  0  0  0
  130.5010  124.9210   64.6540 C   0  0  0  0  0  0  0  0  0  0  0  0
  131.5930  125.1450   65.6870 C   0  0  0  0  0  0  0  0  0  0  0  0
  130.0650  123.6760   64.3650 C   0  0  0  0  0  0  0  0  0  0  0  0
  128.9830  123.2480   63.3830 C   0  0  0  0  0  0  0  0  0  0  0  0
  129.0110  124.0850   62.0820 C   0  0  0  0  0  0  0  0  0  0  0  0
  128.7830  123.3220   60.7390 C   0  0  2  0  0  0  0  0  0  0  0  0
  127.6990  122.2220   60.9460 C   0  0  0  0  0  0  0  0  0  0  0  0
  130.0120  122.7060   60.3050 O   0  0  0  0  0  0  0  0  0  0  0  0
  131.0960  122.5210   61.1790 C   0  0  2  0  0  0  0  0  0  0  0  0
  131.8400  123.7080   61.2580 O   0  0  0  0  0  0  0  0  0  0  0  0
  132.9330  123.6470   62.1820 C   0  0  2  0  0  0  0  0  0  0  0  0
  133.5270  125.0670   62.3030 C   0  0  0  0  0  0  0  0  0  0  0  0
  134.6530  125.0720   63.1570 O   0  0  0  0  0  0  0  0  0  0  0  0
  133.9620  122.6140   61.6580 C   0  0  1  0  0  0  0  0  0  0  0  0
  135.0530  122.4700   62.5520 O   0  0  0  0  0  0  0  0  0  0  0  0
  133.2750  121.2540   61.3970 C   0  0  2  0  0  0  0  0  0  0  0  0
  134.1640  120.3270   60.7950 O   0  0  0  0  0  0  0  0  0  0  0  0
  131.9810  121.4240   60.5620 C   0  0  1  0  0  0  0  0  0  0  0  0
  131.2730  120.2010   60.4500 O   0  0  0  0  0  0  0  0  0  0  0  0
  128.3990  124.2690   59.5350 C   0  0  1  0  0  0  0  0  0  0  0  0
  126.8680  124.4950   59.3750 C   0  0  0  0  0  0  0  0  0  0  0  0
  126.6330  126.0080   59.2200 C   0  0  0  0  0  0  0  0  0  0  0  0
  127.9760  126.6110   58.7390 C   0  0  2  0  0  0  0  0  0  0  0  0
  128.0390  126.3080   57.1930 C   0  0  0  0  0  0  0  0  0  0  0  0
  128.9690  125.7220   59.5380 C   0  0  2  0  0  0  0  0  0  0  0  0
  130.4170  126.0200   59.1160 C   0  0  0  0  0  0  0  0  0  0  0  0
  131.2000  125.1760   58.6880 O   0  0  0  0  0  0  0  0  0  0  0  0
  130.8010  127.5020   59.2490 C   0  0  0  0  0  0  0  0  0  0  0  0
  129.7330  128.4960   58.6790 C   0  0  2  0  0  0  0  0  0  0  0  0
  130.1690  130.0280   58.7220 C   0  0  1  0  0  0  0  0  0  0  0  0
  130.3060  130.5520   60.1850 C   0  0  0  0  0  0  0  0  0  0  0  0
  131.5470  130.1760   57.9970 C   0  0  0  0  0  0  0  0  0  0  0  0
  131.9720  131.6230   57.6850 C   0  0  0  0  0  0  0  0  0  0  0  0
  130.8940  132.3890   56.8880 C   0  0  2  0  0  0  0  0  0  0  0  0
  131.3590  133.7000   56.6110 O   0  0  0  0  0  0  0  0  0  0  0  0
  129.4660  132.3470   57.5400 C   0  0  0  0  0  0  0  0  0  0  0  0
  129.4440  133.2460   58.8070 C   0  0  0  0  0  0  0  0  0  0  0  0
  128.4680  132.8890   56.4760 C   0  0  0  0  0  0  0  0  0  0  0  0
  129.1170  130.8300   57.8480 C   0  0  2  0  0  0  0  0  0  0  0  0
  127.6640  130.5760   58.3490 C   0  0  0  0  0  0  0  0  0  0  0  0
  127.2850  129.0820   58.2940 C   0  0  0  0  0  0  0  0  0  0  0  0
  128.2380  128.1490   59.1070 C   0  0  1  0  0  0  0  0  0  0  0  0
  128.0160  128.4720   60.6230 C   0  0  0  0  0  0  0  0  0  0  0  0
  129.7097  126.9212   64.7964 H   0  0  0  0  0  0  0  0  0  0  0  0
  130.7864  126.6410   63.3861 H   0  0  0  0  0  0  0  0  0  0  0  0
  129.1161  125.9801   63.3861 H   0  0  0  0  0  0  0  0  0  0  0  0
  131.1659  125.0574   66.6969 H   0  0  0  0  0  0  0  0  0  0  0  0
  132.3822  124.3900   65.5559 H   0  0  0  0  0  0  0  0  0  0  0  0
  132.0213  126.1497   65.5559 H   0  0  0  0  0  0  0  0  0  0  0  0
  130.5586  122.8603   64.9136 H   0  0  0  0  0  0  0  0  0  0  0  0
  129.1359  122.1893   63.1266 H   0  0  0  0  0  0  0  0  0  0  0  0
  128.0071  123.4059   63.8655 H   0  0  0  0  0  0  0  0  0  0  0  0
  128.2266  124.8517   62.1646 H   0  0  0  0  0  0  0  0  0  0  0  0
  130.0377  124.4743   62.0167 H   0  0  0  0  0  0  0  0  0  0  0  0
  127.5406  122.0613   62.0226 H   0  0  0  0  0  0  0  0  0  0  0  0
  126.7558  122.5445   60.4808 H   0  0  0  0  0  0  0  0  0  0  0  0
  128.0353  121.2837   60.4808 H   0  0  0  0  0  0  0  0  0  0  0  0
  130.7485  122.2454   62.1856 H   0  0  0  0  0  0  0  0  0  0  0  0
  132.6166  123.3199   63.1834 H   0  0  0  0  0  0  0  0  0  0  0  0
  133.8304  125.4166   61.3051 H   0  0  0  0  0  0  0  0  0  0  0  0
  132.7613  125.7331   62.7274 H   0  0  0  0  0  0  0  0  0  0  0  0
  135.2400  124.3580   62.8950 H   0  0  0  0  0  0  0  0  0  0  0  0
  134.3657  122.9885   60.7057 H   0  0  0  0  0  0  0  0  0  0  0  0
  135.6210  121.7670   62.2320 H   0  0  0  0  0  0  0  0  0  0  0  0
  132.9848  120.8408   62.3742 H   0  0  0  0  0  0  0  0  0  0  0  0
  135.0650  120.5990   60.9850 H   0  0  0  0  0  0  0  0  0  0  0  0
  132.2641  121.7307   59.5443 H   0  0  0  0  0  0  0  0  0  0  0  0
  130.3550  120.3970   60.2450 H   0  0  0  0  0  0  0  0  0  0  0  0
  128.8594  123.6851   58.7244 H   0  0  0  0  0  0  0  0  0  0  0  0
  126.5022  123.9656   58.4829 H   0  0  0  0  0  0  0  0  0  0  0  0
  126.3274  124.1086   60.2516 H   0  0  0  0  0  0  0  0  0  0  0  0
  125.8435  126.1965   58.4776 H   0  0  0  0  0  0  0  0  0  0  0  0
  126.3090  126.4609   60.1686 H   0  0  0  0  0  0  0  0  0  0  0  0
  128.2607  125.2419   57.0370 H   0  0  0  0  0  0  0  0  0  0  0  0
  127.0708  126.5525   56.7317 H   0  0  0  0  0  0  0  0  0  0  0  0
  128.8295  126.9182   56.7317 H   0  0  0  0  0  0  0  0  0  0  0  0
  129.0537  125.9461   60.6116 H   0  0  0  0  0  0  0  0  0  0  0  0
  130.9461  127.7263   60.3161 H   0  0  0  0  0  0  0  0  0  0  0  0
  131.7155  127.6460   58.6549 H   0  0  0  0  0  0  0  0  0  0  0  0
  129.7048  128.3165   57.5941 H   0  0  0  0  0  0  0  0  0  0  0  0
  130.0922  129.7342   60.8889 H   0  0  0  0  0  0  0  0  0  0  0  0
  131.3301  130.9185   60.3488 H   0  0  0  0  0  0  0  0  0  0  0  0
  129.5923  131.3728   60.3488 H   0  0  0  0  0  0  0  0  0  0  0  0
  132.3189  129.7254   58.6382 H   0  0  0  0  0  0  0  0  0  0  0  0
  131.4355  129.6743   57.0245 H   0  0  0  0  0  0  0  0  0  0  0  0
  132.1537  132.1509   58.6328 H   0  0  0  0  0  0  0  0  0  0  0  0
  132.8821  131.5820   57.0685 H   0  0  0  0  0  0  0  0  0  0  0  0
  130.7424  131.8673   55.9315 H   0  0  0  0  0  0  0  0  0  0  0  0
  132.3170  133.7030   56.6760 H   0  0  0  0  0  0  0  0  0  0  0  0
  129.4595  132.6127   59.7063 H   0  0  0  0  0  0  0  0  0  0  0  0
  130.3263  133.9029   58.8059 H   0  0  0  0  0  0  0  0  0  0  0  0
  128.5306  133.8589   58.8059 H   0  0  0  0  0  0  0  0  0  0  0  0
  127.6098  133.3551   56.9821 H   0  0  0  0  0  0  0  0  0  0  0  0
  128.9730  133.6368   55.8469 H   0  0  0  0  0  0  0  0  0  0  0  0
  128.1158  132.0582   55.8469 H   0  0  0  0  0  0  0  0  0  0  0  0
  129.1904  130.4024   56.8372 H   0  0  0  0  0  0  0  0  0  0  0  0
  127.5811  130.9251   59.3889 H   0  0  0  0  0  0  0  0  0  0  0  0
  126.9767  131.1247   57.6882 H   0  0  0  0  0  0  0  0  0  0  0  0
  126.2671  128.9694   58.6954 H   0  0  0  0  0  0  0  0  0  0  0  0
  127.3645  128.7744   57.2409 H   0  0  0  0  0  0  0  0  0  0  0  0
  128.5327  127.7202   61.2376 H   0  0  0  0  0  0  0  0  0  0  0  0
  128.4198  129.4701   60.8482 H   0  0  0  0  0  0  0  0  0  0  0  0
  126.9395  128.4526   60.8482 H   0  0  0  0  0  0  0  0  0  0  0  0
  1  2  1  0
  2  3  1  0
  2  4  2  3
  4  5  1  0
  5  6  1  0
  6  7  1  0
  7  8  1  0
  7  9  1  6
  9 10  1  0
 10 11  1  0
 11 12  1  0
 12 13  1  0
 13 14  1  0
 12 15  1  0
 15 16  1  0
 15 17  1  0
 17 18  1  0
 17 19  1  0
 19 20  1  0
  7 21  1  0
 21 22  1  0
 22 23  1  0
 23 24  1  0
 24 25  1  6
 24 26  1  0
 26 27  1  0
 27 28  2  0
 27 29  1  0
 29 30  1  0
 30 31  1  0
 31 32  1  1
 31 33  1  0
 33 34  1  0
 34 35  1  0
 35 36  1  0
 35 37  1  0
 37 38  1  0
 37 39  1  0
 37 40  1  0
 40 41  1  0
 41 42  1  0
 42 43  1  0
 43 44  1  1
 19 10  1  0
 26 21  1  0
 43 30  1  0
 43 24  1  0
 40 31  1  0
  1 45  1  0
  1 46  1  0
  1 47  1  0
  3 48  1  0
  3 49  1  0
  3 50  1  0
  4 51  1  0
  5 52  1  0
  5 53  1  0
  6 54  1  0
  6 55  1  0
  8 56  1  0
  8 57  1  0
  8 58  1  0
 10 59  1  1
 12 60  1  1
 13 61  1  0
 13 62  1  0
 14 63  1  0
 15 64  1  6
 16 65  1  0
 17 66  1  1
 18 67  1  0
 19 68  1  6
 20 69  1  0
 21 70  1  6
 22 71  1  0
 22 72  1  0
 23 73  1  0
 23 74  1  0
 25 75  1  0
 25 76  1  0
 25 77  1  0
 26 78  1  1
 29 79  1  0
 29 80  1  0
 30 81  1  6
 32 82  1  0
 32 83  1  0
 32 84  1  0
 33 85  1  0
 33 86  1  0
 34 87  1  0
 34 88  1  0
 35 89  1  6
 36 90  1  0
 38 91  1  0
 38 92  1  0
 38 93  1  0
 39 94  1  0
 39 95  1  0
 39 96  1  0
 40 97  1  6
 41 98  1  0
 41 99  1  0
 42100  1  0
 42101  1  0
 44102  1  0
 44103  1  0
 44104  1  0
M  END
>  <Binding energies>  (1) 
[-9.16]

>  <Ligand effiencies>  (1) 
[-0.18693877551020407]

>  <Interactions>  (1) 
["V-A:ILE:369:CG2:3237, V-B:PRO:540:CA:9855, V-B:ALA:541:CB:9864, H-A:ARG:545:NH1:4927, V-B:TYR:539:CE2:9848, V-B:GLU:543:CG:9879, V-B:TYR:539:C:9839, V-A:TYR:539:CE2:4876, V-A:ASP:366:CG:3213, V-A:LEU:363:CD1:3189, V-A:TYR:539:CD1:4873, V-A:TYR:539:CZ:4877, H-B:TYR:539:OH:9850, V-A:TYR:539:CA:4869, V-A:GLU:543:CD:4908, V-B:PRO:540:CB:9857, V-A:TYR:484:CZ:4347, H-A:GLY:454:N:4050, V-B:PRO:540:N:9856, V-A:ILE:369:CD1:3239, V-B:TYR:539:CD2:9846, V-A:SER:385:CB:3409, H-A:SER:385:OG:3410, V-B:GLU:543:CD:9880, V-A:MET:535:CE:4835, V-A:TYR:539:C:4867, V-A:LEU:475:CD2:4259, H-A:ARG:545:NH2:4928, V-A:ARG:545:CZ:4926, H-A:ASP:366:OD1:3214, V-A:PRO:540:N:4884, V-A:TYR:539:CG:4872, H-A:TYR:539:N:4870, V-A:PRO:540:CB:4885, V-A:PRO:540:CA:4883, H-B:TYR:539:O:9840, V-A:TYR:539:CD2:4874, H-A:SER:385:O:3406, V-B:PRO:540:C:9853, V-A:TYR:539:CE1:4875"]

$$$$
ZINC1857616816-again1
     RDKit          3D

 65 68  0  0  0  0  0  0  0  0999 V2000
  133.2260  120.8520   60.6560 C   0  0  0  0  0  0  0  0  0  0  0  0
  132.5440  122.1830   61.0850 C   0  0  1  0  0  0  0  0  0  0  0  0
  132.0550  122.8860   59.7760 C   0  0  0  0  0  0  0  0  0  0  0  0
  131.5170  124.3300   59.9060 C   0  0  0  0  0  0  0  0  0  0  0  0
  131.1100  124.6760   61.2670 N   0  0  0  0  0  0  0  0  0  0  0  0
  130.0280  123.9920   61.9590 C   0  0  0  0  0  0  0  0  0  0  0  0
  130.0060  124.7200   63.2530 C   0  0  0  0  0  0  0  0  0  0  0  0
  129.3040  124.8470   64.4410 C   0  0  0  0  0  0  0  0  0  0  0  0
  129.9700  125.7980   65.2220 C   0  0  0  0  0  0  0  0  0  0  0  0
  129.6000  126.2660   66.5470 C   0  0  0  0  0  0  0  0  0  0  0  0
  129.2960  126.6850   67.6530 C   0  0  0  0  0  0  0  0  0  0  0  0
  128.9320  127.1510   68.8830 C   0  0  0  0  0  0  0  0  0  0  0  0
  128.5850  127.5650   69.9780 C   0  0  0  0  0  0  0  0  0  0  0  0
  128.1920  128.0740   71.3070 C   0  0  0  0  0  0  0  0  0  0  0  0
  127.2310  127.1130   72.0300 C   0  0  0  0  0  0  0  0  0  0  0  0
  126.8190  127.6970   73.4000 C   0  0  0  0  0  0  0  0  0  0  0  0
  127.9860  127.9950   74.2510 N   0  0  0  0  0  0  0  0  0  0  0  0
  127.5720  128.5680   75.5390 C   0  0  0  0  0  0  0  0  0  0  0  0
  128.0270  130.0090   75.8380 C   0  0  0  0  0  0  0  0  0  0  0  0
  126.6300  130.5110   75.7330 O   0  0  0  0  0  0  0  0  0  0  0  0
  126.1330  129.1120   75.6230 C   0  0  0  0  0  0  0  0  0  0  0  0
  128.9810  128.8550   73.5820 C   0  0  0  0  0  0  0  0  0  0  0  0
  129.4180  128.2840   72.2160 C   0  0  0  0  0  0  0  0  0  0  0  0
  131.0620  126.2080   64.4660 C   0  0  0  0  0  0  0  0  0  0  0  0
  131.0830  125.5580   63.2530 N   0  0  0  0  0  0  0  0  0  0  0  0
  131.8380  125.4980   62.0590 C   0  0  0  0  0  0  0  0  0  0  0  0
  132.8840  126.1050   61.8240 O   0  0  0  0  0  0  0  0  0  0  0  0
  131.3300  121.8980   62.0170 C   0  0  0  0  0  0  0  0  0  0  0  0
  131.3900  122.1730   63.2190 O   0  0  0  0  0  0  0  0  0  0  0  0
  130.2370  121.3540   61.4510 N   0  0  0  0  0  0  0  0  0  0  0  0
  129.0770  121.2530   62.2290 O   0  0  0  0  0  0  0  0  0  0  0  0
  133.9410  123.2720   61.8420 S   0  0  0  0  0  0  0  0  0  0  0  0
  133.2780  123.8110   63.5270 C   0  0  0  0  0  0  0  0  0  0  0  0
  135.1050  122.4140   62.0890 O   0  0  0  0  0  0  0  0  0  0  0  0
  134.1070  124.4820   61.0320 O   0  0  0  0  0  0  0  0  0  0  0  0
  133.5171  120.2838   61.5518 H   0  0  0  0  0  0  0  0  0  0  0  0
  132.5222  120.2560   60.0565 H   0  0  0  0  0  0  0  0  0  0  0  0
  134.1208  121.0751   60.0565 H   0  0  0  0  0  0  0  0  0  0  0  0
  132.9042  122.9113   59.0773 H   0  0  0  0  0  0  0  0  0  0  0  0
  131.1920  122.2917   59.4413 H   0  0  0  0  0  0  0  0  0  0  0  0
  132.3076  125.0267   59.5904 H   0  0  0  0  0  0  0  0  0  0  0  0
  130.6222  124.4024   59.2704 H   0  0  0  0  0  0  0  0  0  0  0  0
  129.0746  124.0983   61.4206 H   0  0  0  0  0  0  0  0  0  0  0  0
  130.1698  122.9054   62.0551 H   0  0  0  0  0  0  0  0  0  0  0  0
  128.3908  124.3005   64.7190 H   0  0  0  0  0  0  0  0  0  0  0  0
  127.6874  129.0340   71.1231 H   0  0  0  0  0  0  0  0  0  0  0  0
  126.3323  126.9662   71.4130 H   0  0  0  0  0  0  0  0  0  0  0  0
  127.7398  126.1509   72.1895 H   0  0  0  0  0  0  0  0  0  0  0  0
  126.2548  128.6266   73.2339 H   0  0  0  0  0  0  0  0  0  0  0  0
  126.2061  126.9446   73.9179 H   0  0  0  0  0  0  0  0  0  0  0  0
  127.9125  127.7107   76.1382 H   0  0  0  0  0  0  0  0  0  0  0  0
  128.4700  130.1360   76.8368 H   0  0  0  0  0  0  0  0  0  0  0  0
  128.8176  130.4680   75.2262 H   0  0  0  0  0  0  0  0  0  0  0  0
  125.5793  128.7670   76.5086 H   0  0  0  0  0  0  0  0  0  0  0  0
  125.4062  128.8525   74.8391 H   0  0  0  0  0  0  0  0  0  0  0  0
  128.5409  129.8509   73.4256 H   0  0  0  0  0  0  0  0  0  0  0  0
  129.8706  128.9082   74.2269 H   0  0  0  0  0  0  0  0  0  0  0  0
  130.1112  128.9886   71.7332 H   0  0  0  0  0  0  0  0  0  0  0  0
  129.9150  127.3158   72.3755 H   0  0  0  0  0  0  0  0  0  0  0  0
  131.8064  126.9494   64.7921 H   0  0  0  0  0  0  0  0  0  0  0  0
  130.0460  121.3160   60.4600 H   0  0  0  0  0  0  0  0  0  0  0  0
  128.5420  120.6230   61.7390 H   0  0  0  0  0  0  0  0  0  0  0  0
  133.8670  123.3321   64.3231 H   0  0  0  0  0  0  0  0  0  0  0  0
  133.3570  124.9043   63.6195 H   0  0  0  0  0  0  0  0  0  0  0  0
  132.2239  123.5104   63.6195 H   0  0  0  0  0  0  0  0  0  0  0  0
  2  1  1  6
  2  3  1  0
  3  4  1  0
  4  5  1  0
  5  6  1  0
  6  7  1  0
  7  8  2  0
  8  9  1  0
  9 10  1  0
 10 11  3  0
 11 12  1  0
 12 13  3  0
 13 14  1  0
 14 15  1  0
 15 16  1  0
 16 17  1  0
 17 18  1  0
 18 19  1  0
 19 20  1  0
 20 21  1  0
 17 22  1  0
 22 23  1  0
  9 24  2  0
 24 25  1  0
 25 26  1  0
 26 27  2  0
  2 28  1  0
 28 29  2  0
 28 30  1  0
 30 31  1  0
  2 32  1  0
 32 33  1  0
 32 34  2  0
 32 35  2  0
 26  5  1  0
 25  7  1  0
 23 14  1  0
 21 18  1  0
  1 36  1  0
  1 37  1  0
  1 38  1  0
  3 39  1  0
  3 40  1  0
  4 41  1  0
  4 42  1  0
  6 43  1  0
  6 44  1  0
  8 45  1  0
 14 46  1  0
 15 47  1  0
 15 48  1  0
 16 49  1  0
 16 50  1  0
 18 51  1  0
 19 52  1  0
 19 53  1  0
 21 54  1  0
 21 55  1  0
 22 56  1  0
 22 57  1  0
 23 58  1  0
 23 59  1  0
 24 60  1  0
 30 61  1  0
 31 62  1  0
 33 63  1  0
 33 64  1  0
 33 65  1  0
M  END
>  <Binding energies>  (1) 
[-4.77]

>  <Ligand effiencies>  (1) 
[-0.1289189189189189]

>  <Interactions>  (1) 
["V-A:ILE:369:CG2:3237, V-A:GLY:454:CA:4049, V-B:HIS:456:CD2:9039, V-B:GLU:543:CB:9878, H-B:LYS:547:NZ:9923, V-B:HIS:456:CB:9036, V-B:TYR:539:CE2:9848, V-B:GLU:543:CG:9879, V-B:TYR:539:CZ:9849, V-B:LYS:547:CE:9922, H-B:ALA:541:N:9863, V-A:GLU:543:CD:4908, V-B:HIS:456:CE1:9041, H-A:GLY:454:N:4050, V-A:ILE:369:CD1:3239, V-A:HIS:456:CE1:4070, V-B:GLY:544:C:9884, V-B:TYR:539:CD2:9846, H-B:LYS:471:NZ:9192, V-A:SER:385:CB:3409, V-B:GLY:544:CA:9886, V-B:GLU:543:CD:9880, V-B:HIS:456:CG:9037, V-A:LEU:475:CD2:4259, H-A:ARG:545:NH2:4928, H-B:TYR:539:O:9840, V-A:SER:385:CA:3407"]

$$$$
ZINC1857622678
     RDKit          3D

121130  0  0  0  0  0  0  0  0999 V2000
  131.2700  127.3750   68.3870 C   0  0  0  0  0  0  0  0  0  0  0  0
  129.9930  127.4600   67.9790 C   0  0  0  0  0  0  0  0  0  0  0  0
  129.0950  128.6710   68.0080 C   0  0  0  0  0  0  0  0  0  0  0  0
  128.2260  128.4290   66.7760 C   0  0  2  0  0  0  0  0  0  0  0  0
  126.9190  129.2270   66.6390 C   0  0  0  0  0  0  0  0  0  0  0  0
  126.4000  129.4500   65.2010 C   0  0  0  0  0  0  0  0  0  0  0  0
  127.4110  130.1760   64.3010 C   0  0  1  0  0  0  0  0  0  0  0  0
  128.3460  131.1080   65.0510 C   0  0  0  0  0  0  0  0  0  0  0  0
  128.7620  132.0220   63.9140 C   0  0  1  0  0  0  0  0  0  0  0  0
  129.8510  131.4400   63.1930 O   0  0  0  0  0  0  0  0  0  0  0  0
  129.3470  130.7490   62.0580 C   0  0  1  0  0  0  0  0  0  0  0  0
  128.8560  129.3160   62.3860 C   0  0  1  0  0  0  0  0  0  0  0  0
  128.1360  129.1710   63.6250 O   0  0  0  0  0  0  0  0  0  0  0  0
  128.0740  128.7980   61.1610 C   0  0  1  0  0  0  0  0  0  0  0  0
  127.5440  127.4920   61.4080 O   0  0  0  0  0  0  0  0  0  0  0  0
  126.8990  126.8840   60.2770 C   0  0  2  0  0  0  0  0  0  0  0  0
  125.7910  127.7910   59.6610 C   0  0  0  0  0  0  0  0  0  0  0  0
  126.2280  129.2600   59.5070 C   0  0  0  0  0  0  0  0  0  0  0  0
  126.9080  129.7440   60.7930 C   0  0  2  0  0  0  0  0  0  0  0  0
  127.2960  131.1170   60.6490 O   0  0  0  0  0  0  0  0  0  0  0  0
  128.2220  131.6740   61.5970 C   0  0  1  0  0  0  0  0  0  0  0  0
  127.5830  132.0400   62.9290 C   0  0  1  0  0  0  0  0  0  0  0  0
  126.7180  131.0320   63.4480 O   0  0  0  0  0  0  0  0  0  0  0  0
  126.4340  125.4420   60.5950 C   0  0  0  0  0  0  0  0  0  0  0  0
  127.2650  124.3210   59.9580 C   0  0  0  0  0  0  0  0  0  0  0  0
  126.7410  123.2600   59.6340 O   0  0  0  0  0  0  0  0  0  0  0  0
  128.7600  124.6110   59.7520 C   0  0  0  0  0  0  0  0  0  0  0  0
  129.1860  126.0570   59.3650 C   0  0  2  0  0  0  0  0  0  0  0  0
  129.4050  126.3050   57.8760 C   0  0  1  0  0  0  0  0  0  0  0  0
  128.1610  126.6090   57.2490 O   0  0  0  0  0  0  0  0  0  0  0  0
  127.4620  125.4910   56.7230 C   0  0  0  0  0  0  0  0  0  0  0  0
  130.4310  127.4570   57.8150 C   0  0  1  0  0  0  0  0  0  0  0  0
  129.8360  128.8840   57.8280 C   0  0  0  0  0  0  0  0  0  0  0  0
  130.6310  129.9280   58.6430 C   0  0  1  0  0  0  0  0  0  0  0  0
  132.0570  130.2230   58.1080 C   0  0  0  0  0  0  0  0  0  0  0  0
  132.6020  131.4760   58.6220 N   0  0  0  0  0  0  0  0  0  0  0  0
  133.8730  131.4770   59.3190 C   0  0  0  0  0  0  0  0  0  0  0  0
  132.5790  131.7960   60.0410 C   0  0  2  0  0  0  0  0  0  0  0  0
  132.0630  130.7980   61.0920 C   0  0  0  0  0  0  0  0  0  0  0  0
  129.8220  131.1050   58.6850 O   0  0  0  0  0  0  0  0  0  0  0  0
  129.6500  131.7750   57.4430 C   0  0  0  0  0  0  0  0  0  0  0  0
  131.1710  127.3280   59.0310 O   0  0  0  0  0  0  0  0  0  0  0  0
  130.5860  126.3760   59.9170 C   0  0  1  0  0  0  0  0  0  0  0  0
  130.6590  126.8950   61.3730 C   0  0  0  0  0  0  0  0  0  0  0  0
  131.6350  126.1720   62.3460 C   0  0  1  0  0  0  0  0  0  0  0  0
  131.1270  126.1760   63.6820 O   0  0  0  0  0  0  0  0  0  0  0  0
  132.0090  125.6760   64.6930 C   0  0  1  0  0  0  0  0  0  0  0  0
  131.3390  125.7490   66.0820 C   0  0  0  0  0  0  0  0  0  0  0  0
  129.8030  125.8260   66.0190 C   0  0  0  0  0  0  0  0  0  0  0  0
  129.1410  126.3950   67.2930 C   0  0  2  0  0  0  0  0  0  0  0  0
  127.9430  127.0490   66.8870 O   0  0  0  0  0  0  0  0  0  0  0  0
  132.4670  124.2420   64.3540 C   0  0  0  0  0  0  0  0  0  0  0  0
  132.9750  124.0940   62.9040 C   0  0  1  0  0  0  0  0  0  0  0  0
  133.3610  122.6330   62.5840 C   0  0  0  0  0  0  0  0  0  0  0  0
  131.9450  124.7150   61.9500 C   0  0  0  0  0  0  0  0  0  0  0  0
  131.3790  124.0590   60.9120 C   0  0  0  0  0  0  0  0  0  0  0  0
  131.8104  126.4202   68.3075 H   0  0  0  0  0  0  0  0  0  0  0  0
  131.7753  128.2602   68.8006 H   0  0  0  0  0  0  0  0  0  0  0  0
  128.4911  128.7025   68.9268 H   0  0  0  0  0  0  0  0  0  0  0  0
  129.6326  129.6306   67.9985 H   0  0  0  0  0  0  0  0  0  0  0  0
  128.7677  128.7656   65.8797 H   0  0  0  0  0  0  0  0  0  0  0  0
  126.1383  128.6897   67.1974 H   0  0  0  0  0  0  0  0  0  0  0  0
  127.1464  130.2307   67.0274 H   0  0  0  0  0  0  0  0  0  0  0  0
  126.1742  128.4704   64.7545 H   0  0  0  0  0  0  0  0  0  0  0  0
  125.5060  130.0872   65.2702 H   0  0  0  0  0  0  0  0  0  0  0  0
  127.8238  131.6576   65.8481 H   0  0  0  0  0  0  0  0  0  0  0  0
  129.1747  130.6123   65.5778 H   0  0  0  0  0  0  0  0  0  0  0  0
  129.0396  133.0114   64.3065 H   0  0  0  0  0  0  0  0  0  0  0  0
  130.1086  130.5668   61.2855 H   0  0  0  0  0  0  0  0  0  0  0  0
  129.7410  128.6898   62.5725 H   0  0  0  0  0  0  0  0  0  0  0  0
  128.7849  128.7578   60.3226 H   0  0  0  0  0  0  0  0  0  0  0  0
  127.6500  126.7858   59.4793 H   0  0  0  0  0  0  0  0  0  0  0  0
  125.5291  127.3978   58.6676 H   0  0  0  0  0  0  0  0  0  0  0  0
  124.9336  127.7747   60.3500 H   0  0  0  0  0  0  0  0  0  0  0  0
  126.9345  129.3435   58.6680 H   0  0  0  0  0  0  0  0  0  0  0  0
  125.3414  129.8813   59.3123 H   0  0  0  0  0  0  0  0  0  0  0  0
  126.2064  129.7080   61.6394 H   0  0  0  0  0  0  0  0  0  0  0  0
  128.5934  132.5272   61.0103 H   0  0  0  0  0  0  0  0  0  0  0  0
  127.0171  132.9747   62.8024 H   0  0  0  0  0  0  0  0  0  0  0  0
  126.4668  125.3090   61.6864 H   0  0  0  0  0  0  0  0  0  0  0  0
  125.4256  125.3498   60.1653 H   0  0  0  0  0  0  0  0  0  0  0  0
  129.2725  124.3616   60.6928 H   0  0  0  0  0  0  0  0  0  0  0  0
  129.0355  124.0041   58.8769 H   0  0  0  0  0  0  0  0  0  0  0  0
  128.3515  126.6553   59.7595 H   0  0  0  0  0  0  0  0  0  0  0  0
  129.7906  125.4309   57.3308 H   0  0  0  0  0  0  0  0  0  0  0  0
  127.0777  124.8764   57.5504 H   0  0  0  0  0  0  0  0  0  0  0  0
  126.6218  125.8413   56.1055 H   0  0  0  0  0  0  0  0  0  0  0  0
  128.1449  124.8890   56.1055 H   0  0  0  0  0  0  0  0  0  0  0  0
  130.9892  127.3662   56.8715 H   0  0  0  0  0  0  0  0  0  0  0  0
  129.7797  129.2373   56.7878 H   0  0  0  0  0  0  0  0  0  0  0  0
  128.8562  128.7984   58.3206 H   0  0  0  0  0  0  0  0  0  0  0  0
  130.8237  129.5249   59.6482 H   0  0  0  0  0  0  0  0  0  0  0  0
  132.7228  129.4002   58.4076 H   0  0  0  0  0  0  0  0  0  0  0  0
  131.9900  130.3132   57.0138 H   0  0  0  0  0  0  0  0  0  0  0  0
  134.3975  130.5302   59.5152 H   0  0  0  0  0  0  0  0  0  0  0  0
  134.8419  131.9801   59.1846 H   0  0  0  0  0  0  0  0  0  0  0  0
  132.1677  132.6270   60.6328 H   0  0  0  0  0  0  0  0  0  0  0  0
  132.2654  131.1895   62.0999 H   0  0  0  0  0  0  0  0  0  0  0  0
  130.9795  130.6580   60.9638 H   0  0  0  0  0  0  0  0  0  0  0  0
  132.5751  129.8330   60.9638 H   0  0  0  0  0  0  0  0  0  0  0  0
  129.3803  132.8254   57.6273 H   0  0  0  0  0  0  0  0  0  0  0  0
  130.5882  131.7323   56.8704 H   0  0  0  0  0  0  0  0  0  0  0  0
  128.8483  131.2857   56.8704 H   0  0  0  0  0  0  0  0  0  0  0  0
  131.1295  125.4208   59.9641 H   0  0  0  0  0  0  0  0  0  0  0  0
  130.9589  127.9525   61.3311 H   0  0  0  0  0  0  0  0  0  0  0  0
  129.6582  126.7056   61.7883 H   0  0  0  0  0  0  0  0  0  0  0  0
  132.5719  126.7450   62.2830 H   0  0  0  0  0  0  0  0  0  0  0  0
  132.9066  126.3110   64.7241 H   0  0  0  0  0  0  0  0  0  0  0  0
  131.6196  124.8508   66.6516 H   0  0  0  0  0  0  0  0  0  0  0  0
  131.6901  126.6741   66.5626 H   0  0  0  0  0  0  0  0  0  0  0  0
  129.5251  126.4684   65.1704 H   0  0  0  0  0  0  0  0  0  0  0  0
  129.4406  124.7930   65.9109 H   0  0  0  0  0  0  0  0  0  0  0  0
  128.9870  125.5602   67.9926 H   0  0  0  0  0  0  0  0  0  0  0  0
  133.2806  123.9633   65.0399 H   0  0  0  0  0  0  0  0  0  0  0  0
  131.5919  123.5844   64.4631 H   0  0  0  0  0  0  0  0  0  0  0  0
  133.9133  124.6511   62.7654 H   0  0  0  0  0  0  0  0  0  0  0  0
  133.5075  122.0785   63.5226 H   0  0  0  0  0  0  0  0  0  0  0  0
  132.5568  122.1606   62.0007 H   0  0  0  0  0  0  0  0  0  0  0  0
  134.2935  122.6195   62.0007 H   0  0  0  0  0  0  0  0  0  0  0  0
  130.6470  124.5717   60.2707 H   0  0  0  0  0  0  0  0  0  0  0  0
  131.6506  123.0126   60.7088 H   0  0  0  0  0  0  0  0  0  0  0  0
  1  2  2  0
  2  3  1  0
  3  4  1  0
  4  5  1  0
  5  6  1  0
  7  6  1  1
  7  8  1  0
  8  9  1  0
  9 10  1  0
 10 11  1  0
 11 12  1  0
 12 13  1  0
 12 14  1  0
 14 15  1  0
 15 16  1  0
 16 17  1  0
 17 18  1  0
 18 19  1  0
 19 20  1  0
 20 21  1  0
 21 22  1  0
 22 23  1  0
 16 24  1  0
 24 25  1  0
 25 26  2  0
 25 27  1  0
 27 28  1  0
 28 29  1  0
 29 30  1  0
 30 31  1  0
 29 32  1  0
 32 33  1  0
 33 34  1  0
 34 35  1  0
 35 36  1  0
 36 37  1  0
 37 38  1  0
 38 39  1  0
 34 40  1  0
 40 41  1  0
 32 42  1  0
 42 43  1  0
 43 44  1  0
 44 45  1  0
 45 46  1  0
 46 47  1  0
 47 48  1  0
 48 49  1  0
 49 50  1  0
 50 51  1  0
 47 52  1  0
 52 53  1  0
 53 54  1  0
 53 55  1  0
 55 56  2  0
 50  2  1  0
 51  4  1  0
 13  7  1  0
 19 14  1  0
 43 28  1  0
 55 45  1  0
 23  7  1  0
 38 36  1  0
 22  9  1  0
 21 11  1  0
  1 57  1  0
  1 58  1  0
  3 59  1  0
  3 60  1  0
  4 61  1  6
  5 62  1  0
  5 63  1  0
  6 64  1  0
  6 65  1  0
  8 66  1  0
  8 67  1  0
  9 68  1  1
 11 69  1  6
 12 70  1  1
 14 71  1  6
 16 72  1  6
 17 73  1  0
 17 74  1  0
 18 75  1  0
 18 76  1  0
 19 77  1  1
 21 78  1  6
 22 79  1  6
 24 80  1  0
 24 81  1  0
 27 82  1  0
 27 83  1  0
 28 84  1  1
 29 85  1  6
 31 86  1  0
 31 87  1  0
 31 88  1  0
 32 89  1  6
 33 90  1  0
 33 91  1  0
 34 92  1  1
 35 93  1  0
 35 94  1  0
 37 95  1  0
 37 96  1  0
 38 97  1  6
 39 98  1  0
 39 99  1  0
 39100  1  0
 41101  1  0
 41102  1  0
 41103  1  0
 43104  1  1
 44105  1  0
 44106  1  0
 45107  1  1
 47108  1  1
 48109  1  0
 48110  1  0
 49111  1  0
 49112  1  0
 50113  1  1
 52114  1  0
 52115  1  0
 53116  1  1
 54117  1  0
 54118  1  0
 54119  1  0
 56120  1  0
 56121  1  0
M  END
>  <Binding energies>  (1) 
[-4.74]

>  <Ligand effiencies>  (1) 
[-0.08172413793103449]

>  <Interactions>  (1) 
["V-A:GLU:543:CA:4904, V-A:GLY:454:CA:4049, V-B:GLU:543:CB:9878, V-B:ASP:366:CG:8184, H-A:TYR:531:OH:4795, V-B:GLU:543:CG:9879, V-A:ASP:366:CG:3213, V-A:LEU:363:CB:3187, V-B:TYR:484:CE2:9317, V-A:LEU:363:CG:3188, V-A:LEU:363:CD1:3189, V-A:ALA:541:CB:4892, V-A:GLU:543:CD:4908, V-B:ASP:366:CB:8183, H-B:TYR:484:OH:9319, V-A:ARG:545:CG:4922, V-B:HIS:456:CE1:9041, V-B:TYR:484:CZ:9318, V-A:HIS:456:CE1:4070, V-A:GLU:543:CG:4907, V-B:GLU:543:CD:9880, H-B:TYR:531:OH:9767, V-A:ASP:366:CB:3212, V-A:LEU:475:CD2:4259, H-A:ARG:545:NH2:4928, V-A:ARG:545:CZ:4926, V-A:ASN:362:C:3172, V-A:GLU:543:CB:4906, V-A:LEU:363:CA:3185, V-A:PRO:540:CB:4885, V-A:PRO:540:CA:4883"]

$$$$
ZINC1857622678-again1
     RDKit          3D

122131  0  0  0  0  0  0  0  0999 V2000
  129.9050  127.1410   68.1900 C   0  0  0  0  0  0  0  0  0  0  0  0
  129.1940  127.1700   67.0510 C   0  0  0  0  0  0  0  0  0  0  0  0
  128.2930  128.2730   66.5540 C   0  0  0  0  0  0  0  0  0  0  0  0
  128.4840  128.1540   65.0450 C   0  0  2  0  0  0  0  0  0  0  0  0
  127.4620  128.8430   64.1240 C   0  0  0  0  0  0  0  0  0  0  0  0
  127.9170  129.1140   62.6720 C   0  0  0  0  0  0  0  0  0  0  0  0
  128.5000  130.5210   62.4710 C   0  0  1  0  0  0  0  0  0  0  0  0
  129.0510  131.1480   63.7400 C   0  0  0  0  0  0  0  0  0  0  0  0
  128.9940  132.6110   63.3480 C   0  0  1  0  0  0  0  0  0  0  0  0
  130.1690  132.9650   62.6120 O   0  0  0  0  0  0  0  0  0  0  0  0
  129.8910  132.8890   61.2200 C   0  0  1  0  0  0  0  0  0  0  0  0
  130.0230  131.4530   60.6520 C   0  0  1  0  0  0  0  0  0  0  0  0
  129.5070  130.4010   61.4880 O   0  0  0  0  0  0  0  0  0  0  0  0
  129.4190  131.4570   59.2310 C   0  0  1  0  0  0  0  0  0  0  0  0
  129.4660  130.1510   58.6480 O   0  0  0  0  0  0  0  0  0  0  0  0
  129.0300  130.0940   57.2800 C   0  0  2  0  0  0  0  0  0  0  0  0
  127.6050  130.6930   57.0880 C   0  0  0  0  0  0  0  0  0  0  0  0
  127.4140  132.0380   57.8130 C   0  0  0  0  0  0  0  0  0  0  0  0
  127.9520  131.9430   59.2460 C   0  0  2  0  0  0  0  0  0  0  0  0
  127.7590  133.1950   59.9200 O   0  0  0  0  0  0  0  0  0  0  0  0
  128.4640  133.4310   61.1500 C   0  0  1  0  0  0  0  0  0  0  0  0
  127.8330  132.7420   62.3520 C   0  0  1  0  0  0  0  0  0  0  0  0
  127.4680  131.3850   62.1090 O   0  0  0  0  0  0  0  0  0  0  0  0
  129.2030  128.6760   56.6840 C   0  0  0  0  0  0  0  0  0  0  0  0
  128.4550  127.5520   57.4110 C   0  0  0  0  0  0  0  0  0  0  0  0
  127.6700  127.8060   58.3190 O   0  0  0  0  0  0  0  0  0  0  0  0
  128.7320  126.1210   56.9260 C   0  0  0  0  0  0  0  0  0  0  0  0
  128.6540  124.9690   57.9700 C   0  0  2  0  0  0  0  0  0  0  0  0
  127.2670  124.6920   58.5390 C   0  0  1  0  0  0  0  0  0  0  0  0
  126.5110  123.8730   57.6510 O   0  0  0  0  0  0  0  0  0  0  0  0
  127.2840  123.1090   56.7360 C   0  0  0  0  0  0  0  0  0  0  0  0
  127.5450  124.0390   59.9090 C   0  0  1  0  0  0  0  0  0  0  0  0
  127.7760  122.5110   59.8770 C   0  0  0  0  0  0  0  0  0  0  0  0
  128.5610  121.9350   61.0750 C   0  0  1  0  0  0  0  0  0  0  0  0
  129.9890  122.5190   61.2360 C   0  0  0  0  0  0  0  0  0  0  0  0
  131.0050  121.4120   61.5780 N   0  0  1  0  0  0  0  0  0  0  0  0
  131.0020  120.1050   60.8400 C   0  0  0  0  0  0  0  0  0  0  0  0
  132.1170  121.0760   60.6310 C   0  0  2  0  0  0  0  0  0  0  0  0
  133.5000  120.7570   61.2120 C   0  0  0  0  0  0  0  0  0  0  0  0
  127.7610  122.1990   62.2280 O   0  0  0  0  0  0  0  0  0  0  0  0
  128.2340  123.2450   63.0680 C   0  0  0  0  0  0  0  0  0  0  0  0
  128.7810  124.6230   60.3230 O   0  0  0  0  0  0  0  0  0  0  0  0
  129.4130  125.3350   59.2560 C   0  0  1  0  0  0  0  0  0  0  0  0
  130.9380  125.0740   59.2670 C   0  0  0  0  0  0  0  0  0  0  0  0
  131.7160  125.3760   60.5800 C   0  0  1  0  0  0  0  0  0  0  0  0
  130.9610  124.9850   61.7300 O   0  0  0  0  0  0  0  0  0  0  0  0
  131.5110  125.3560   62.9990 C   0  0  1  0  0  0  0  0  0  0  0  0
  130.5860  124.8990   64.1470 C   0  0  0  0  0  0  0  0  0  0  0  0
  130.5850  125.8410   65.3660 C   0  0  0  0  0  0  0  0  0  0  0  0
  129.1750  126.1520   65.9140 C   0  0  2  0  0  0  0  0  0  0  0  0
  128.4380  126.7540   64.8560 O   0  0  0  0  0  0  0  0  0  0  0  0
  132.9370  124.7890   63.1540 C   0  0  0  0  0  0  0  0  0  0  0  0
  133.8400  125.0880   61.9410 C   0  0  1  0  0  0  0  0  0  0  0  0
  135.2390  124.4530   62.1060 C   0  0  0  0  0  0  0  0  0  0  0  0
  133.0970  124.6920   60.6560 C   0  0  0  0  0  0  0  0  0  0  0  0
  133.5880  123.8420   59.7260 C   0  0  0  0  0  0  0  0  0  0  0  0
  130.5256  126.2647   68.4288 H   0  0  0  0  0  0  0  0  0  0  0  0
  129.8668  127.9935   68.8841 H   0  0  0  0  0  0  0  0  0  0  0  0
  127.2459  128.0991   66.8428 H   0  0  0  0  0  0  0  0  0  0  0  0
  128.5287  129.2670   66.9620 H   0  0  0  0  0  0  0  0  0  0  0  0
  129.4080  128.6764   64.7563 H   0  0  0  0  0  0  0  0  0  0  0  0
  126.5673  128.2046   64.0805 H   0  0  0  0  0  0  0  0  0  0  0  0
  127.2930  129.8356   64.5668 H   0  0  0  0  0  0  0  0  0  0  0  0
  128.6867  128.3754   62.4036 H   0  0  0  0  0  0  0  0  0  0  0  0
  127.0263  129.0356   62.0312 H   0  0  0  0  0  0  0  0  0  0  0  0
  128.4161  130.9328   64.6121 H   0  0  0  0  0  0  0  0  0  0  0  0
  130.0436  130.7858   64.0459 H   0  0  0  0  0  0  0  0  0  0  0  0
  128.8923  133.2387   64.2456 H   0  0  0  0  0  0  0  0  0  0  0  0
  130.6035  133.4545   60.6015 H   0  0  0  0  0  0  0  0  0  0  0  0
  131.0927  131.1990   60.6174 H   0  0  0  0  0  0  0  0  0  0  0  0
  130.0246  132.1498   58.6283 H   0  0  0  0  0  0  0  0  0  0  0  0
  129.6924  130.7461   56.6918 H   0  0  0  0  0  0  0  0  0  0  0  0
  127.4316  130.8469   56.0127 H   0  0  0  0  0  0  0  0  0  0  0  0
  126.8879  129.9808   57.5223 H   0  0  0  0  0  0  0  0  0  0  0  0
  127.9591  132.8247   57.2707 H   0  0  0  0  0  0  0  0  0  0  0  0
  126.3418  132.2814   57.8455 H   0  0  0  0  0  0  0  0  0  0  0  0
  127.3901  131.1920   59.8206 H   0  0  0  0  0  0  0  0  0  0  0  0
  128.4314  134.5303   61.1732 H   0  0  0  0  0  0  0  0  0  0  0  0
  126.9419  133.3112   62.6552 H   0  0  0  0  0  0  0  0  0  0  0  0
  128.8465  128.7011   55.6437 H   0  0  0  0  0  0  0  0  0  0  0  0
  130.2722  128.4376   56.7842 H   0  0  0  0  0  0  0  0  0  0  0  0
  128.0012  125.8962   56.1352 H   0  0  0  0  0  0  0  0  0  0  0  0
  129.7858  126.1362   56.6110 H   0  0  0  0  0  0  0  0  0  0  0  0
  129.0453  124.1176   57.3938 H   0  0  0  0  0  0  0  0  0  0  0  0
  126.6488  125.5939   58.6588 H   0  0  0  0  0  0  0  0  0  0  0  0
  127.9586  122.4423   57.2932 H   0  0  0  0  0  0  0  0  0  0  0  0
  126.6146  122.5078   56.1032 H   0  0  0  0  0  0  0  0  0  0  0  0
  127.8773  123.7854   56.1032 H   0  0  0  0  0  0  0  0  0  0  0  0
  126.6712  124.2028   60.5568 H   0  0  0  0  0  0  0  0  0  0  0  0
  126.7923  122.0196   59.8479 H   0  0  0  0  0  0  0  0  0  0  0  0
  128.3938  122.3163   58.9879 H   0  0  0  0  0  0  0  0  0  0  0  0
  128.7315  120.8595   60.9194 H   0  0  0  0  0  0  0  0  0  0  0  0
  130.2878  123.0026   60.2943 H   0  0  0  0  0  0  0  0  0  0  0  0
  129.9775  123.2493   62.0585 H   0  0  0  0  0  0  0  0  0  0  0  0
  131.2420  121.3520   62.5590 H   0  0  0  0  0  0  0  0  0  0  0  0
  131.1850  119.1663   61.3835 H   0  0  0  0  0  0  0  0  0  0  0  0
  130.2900  119.5855   60.1819 H   0  0  0  0  0  0  0  0  0  0  0  0
  132.5656  121.5607   59.7514 H   0  0  0  0  0  0  0  0  0  0  0  0
  133.4478  120.7690   62.3107 H   0  0  0  0  0  0  0  0  0  0  0  0
  133.8202  119.7614   60.8710 H   0  0  0  0  0  0  0  0  0  0  0  0
  134.2239  121.5117   60.8710 H   0  0  0  0  0  0  0  0  0  0  0  0
  128.1036  122.9566   64.1215 H   0  0  0  0  0  0  0  0  0  0  0  0
  129.3005  123.4236   62.8660 H   0  0  0  0  0  0  0  0  0  0  0  0
  127.6637  124.1637   62.8660 H   0  0  0  0  0  0  0  0  0  0  0  0
  129.3525  126.4287   59.3565 H   0  0  0  0  0  0  0  0  0  0  0  0
  131.0905  124.0102   59.0325 H   0  0  0  0  0  0  0  0  0  0  0  0
  131.3461  125.7848   58.5334 H   0  0  0  0  0  0  0  0  0  0  0  0
  131.8749  126.4644   60.5688 H   0  0  0  0  0  0  0  0  0  0  0  0
  131.5809  126.4526   63.0488 H   0  0  0  0  0  0  0  0  0  0  0  0
  129.5588  124.8354   63.7586 H   0  0  0  0  0  0  0  0  0  0  0  0
  130.9688  123.9286   64.4960 H   0  0  0  0  0  0  0  0  0  0  0  0
  131.1725  125.3704   66.1681 H   0  0  0  0  0  0  0  0  0  0  0  0
  131.0162  126.7963   65.0322 H   0  0  0  0  0  0  0  0  0  0  0  0
  128.7438  125.2117   66.2879 H   0  0  0  0  0  0  0  0  0  0  0  0
  133.3952  125.2332   64.0499 H   0  0  0  0  0  0  0  0  0  0  0  0
  132.8488  123.6957   63.2366 H   0  0  0  0  0  0  0  0  0  0  0  0
  134.0451  126.1663   61.8695 H   0  0  0  0  0  0  0  0  0  0  0  0
  135.4701  124.3481   63.1763 H   0  0  0  0  0  0  0  0  0  0  0  0
  135.2502  123.4616   61.6296 H   0  0  0  0  0  0  0  0  0  0  0  0
  135.9926  125.0973   61.6296 H   0  0  0  0  0  0  0  0  0  0  0  0
  132.9960  123.6060   58.8294 H   0  0  0  0  0  0  0  0  0  0  0  0
  134.5794  123.3865   59.8660 H   0  0  0  0  0  0  0  0  0  0  0  0
  1  2  2  0
  2  3  1  0
  3  4  1  0
  4  5  1  0
  5  6  1  0
  7  6  1  1
  7  8  1  0
  8  9  1  0
  9 10  1  0
 10 11  1  0
 11 12  1  0
 12 13  1  0
 12 14  1  0
 14 15  1  0
 15 16  1  0
 16 17  1  0
 17 18  1  0
 18 19  1  0
 19 20  1  0
 20 21  1  0
 21 22  1  0
 22 23  1  0
 16 24  1  0
 24 25  1  0
 25 26  2  0
 25 27  1  0
 27 28  1  0
 28 29  1  0
 29 30  1  0
 30 31  1  0
 29 32  1  0
 32 33  1  0
 33 34  1  0
 34 35  1  0
 35 36  1  0
 36 37  1  0
 37 38  1  0
 38 39  1  0
 34 40  1  0
 40 41  1  0
 32 42  1  0
 42 43  1  0
 43 44  1  0
 44 45  1  0
 45 46  1  0
 46 47  1  0
 47 48  1  0
 48 49  1  0
 49 50  1  0
 50 51  1  0
 47 52  1  0
 52 53  1  0
 53 54  1  0
 53 55  1  0
 55 56  2  0
 50  2  1  0
 51  4  1  0
 13  7  1  0
 19 14  1  0
 43 28  1  0
 55 45  1  0
 23  7  1  0
 38 36  1  0
 22  9  1  0
 21 11  1  0
  1 57  1  0
  1 58  1  0
  3 59  1  0
  3 60  1  0
  4 61  1  1
  5 62  1  0
  5 63  1  0
  6 64  1  0
  6 65  1  0
  8 66  1  0
  8 67  1  0
  9 68  1  1
 11 69  1  6
 12 70  1  6
 14 71  1  6
 16 72  1  6
 17 73  1  0
 17 74  1  0
 18 75  1  0
 18 76  1  0
 19 77  1  1
 21 78  1  1
 22 79  1  1
 24 80  1  0
 24 81  1  0
 27 82  1  0
 27 83  1  0
 28 84  1  6
 29 85  1  1
 31 86  1  0
 31 87  1  0
 31 88  1  0
 32 89  1  1
 33 90  1  0
 33 91  1  0
 34 92  1  6
 35 93  1  0
 35 94  1  0
 36 95  1  1
 37 96  1  0
 37 97  1  0
 38 98  1  6
 39 99  1  0
 39100  1  0
 39101  1  0
 41102  1  0
 41103  1  0
 41104  1  0
 43105  1  1
 44106  1  0
 44107  1  0
 45108  1  1
 47109  1  6
 48110  1  0
 48111  1  0
 49112  1  0
 49113  1  0
 50114  1  1
 52115  1  0
 52116  1  0
 53117  1  6
 54118  1  0
 54119  1  0
 54120  1  0
 56121  1  0
 56122  1  0
M  CHG  1  36   1
M  END
>  <Binding energies>  (1) 
[-5.36]

>  <Ligand effiencies>  (1) 
[-0.09084745762711866]

>  <Interactions>  (1) 
["V-A:ILE:369:CG2:3237, V-B:PRO:540:CA:9855, V-A:ILE:369:CB:3236, V-B:TYR:539:CE1:9847, H-A:ALA:541:N:4891, V-A:PRO:540:C:4881, V-B:GLU:543:CB:9878, V-B:ALA:541:CB:9864, V-B:TYR:539:CE2:9848, V-B:GLU:543:CG:9879, V-B:TYR:539:C:9839, V-A:ASP:366:CG:3213, V-A:TYR:539:CD1:4873, V-B:TYR:539:CZ:9849, V-A:TYR:539:CZ:4877, V-A:ALA:541:CB:4892, H-B:ALA:541:N:9863, V-A:GLU:543:CD:4908, V-B:PRO:540:CB:9857, V-A:SER:385:C:3405, V-A:GLY:453:C:4042, V-B:PRO:540:N:9856, V-A:HIS:456:CE1:4070, V-A:ILE:369:CD1:3239, V-A:ALA:541:CA:4890, V-B:TYR:539:CD2:9846, V-A:GLU:543:CG:4907, V-A:SER:385:CB:3409, V-A:MET:535:CE:4835, V-B:GLU:543:CD:9880, V-A:TYR:539:C:4867, H-B:TYR:531:OH:9767, V-A:LEU:475:CD2:4259, V-A:ARG:545:CZ:4926, V-A:GLU:543:CB:4906, V-B:TYR:539:CD1:9845, V-A:PRO:540:N:4884, V-A:PRO:540:CB:4885, V-A:PRO:540:CA:4883, V-A:GLY:453:CA:4044, V-A:SER:385:CA:3407, V-B:PRO:540:C:9853, V-A:TYR:539:CE1:4875"]

$$$$
ZINC1857626511
     RDKit          3D

 45 46  0  0  0  0  0  0  0  0999 V2000
  129.3280  126.4790   63.0740 O   0  0  0  0  0  0  0  0  0  0  0  0
  129.2620  125.3330   63.5220 C   0  0  0  0  0  0  0  0  0  0  0  0
  129.9280  124.9820   64.7820 C   0  0  0  0  0  0  0  0  0  0  0  0
  131.2460  124.8210   65.0580 C   0  0  0  0  0  0  0  0  0  0  0  0
  132.4770  124.9210   64.1640 C   0  0  1  0  0  0  0  0  0  0  0  0
  133.6190  124.7640   64.9840 O   0  0  0  0  0  0  0  0  0  0  0  0
  132.4750  123.8940   62.9950 C   0  0  2  0  0  0  0  0  0  0  0  0
  133.1190  122.5140   63.2720 C   0  0  0  0  0  0  0  0  0  0  0  0
  133.9380  122.1520   62.0190 C   0  0  1  0  0  0  0  0  0  0  0  0
  133.9260  120.7930   61.6330 O   0  0  0  0  0  0  0  0  0  0  0  0
  133.5600  123.1670   60.9350 C   0  0  0  0  0  0  0  0  0  0  0  0
  133.1630  124.4210   61.7180 C   0  0  1  0  0  0  0  0  0  0  0  0
  132.2690  125.3820   60.9530 C   0  0  0  0  0  0  0  0  0  0  0  0
  131.2020  125.0000   60.2340 C   0  0  0  0  0  0  0  0  0  0  0  0
  130.4500  125.9040   59.2790 C   0  0  0  0  0  0  0  0  0  0  0  0
  128.9230  125.7460   59.4210 C   0  0  0  0  0  0  0  0  0  0  0  0
  128.4190  125.6290   60.8790 C   0  0  0  0  0  0  0  0  0  0  0  0
  128.5600  124.2050   61.4660 C   0  0  2  0  0  0  0  0  0  0  0  0
  127.3920  123.2700   61.0690 C   0  0  0  0  0  0  0  0  0  0  0  0
  126.4540  123.1600   62.1200 O   0  0  0  0  0  0  0  0  0  0  0  0
  128.6160  124.3190   62.8940 O   0  0  0  0  0  0  0  0  0  0  0  0
  129.2525  124.8250   65.6359 H   0  0  0  0  0  0  0  0  0  0  0  0
  131.4646  124.5760   66.1079 H   0  0  0  0  0  0  0  0  0  0  0  0
  132.4787  125.9065   63.6754 H   0  0  0  0  0  0  0  0  0  0  0  0
  133.3360  124.4170   65.8340 H   0  0  0  0  0  0  0  0  0  0  0  0
  131.3913  123.7560   62.8660 H   0  0  0  0  0  0  0  0  0  0  0  0
  133.7767  122.5717   64.1519 H   0  0  0  0  0  0  0  0  0  0  0  0
  132.3526  121.7526   63.4789 H   0  0  0  0  0  0  0  0  0  0  0  0
  135.0106  122.2399   62.2466 H   0  0  0  0  0  0  0  0  0  0  0  0
  134.8210  120.5350   61.4010 H   0  0  0  0  0  0  0  0  0  0  0  0
  134.4172  123.3728   60.2771 H   0  0  0  0  0  0  0  0  0  0  0  0
  132.7528  122.8049   60.2813 H   0  0  0  0  0  0  0  0  0  0  0  0
  134.0543  125.0284   61.9338 H   0  0  0  0  0  0  0  0  0  0  0  0
  132.5105  126.4545   60.9906 H   0  0  0  0  0  0  0  0  0  0  0  0
  130.8509  123.9635   60.3454 H   0  0  0  0  0  0  0  0  0  0  0  0
  130.7207  126.9489   59.4907 H   0  0  0  0  0  0  0  0  0  0  0  0
  130.7281  125.6228   58.2526 H   0  0  0  0  0  0  0  0  0  0  0  0
  128.4434  126.6230   58.9618 H   0  0  0  0  0  0  0  0  0  0  0  0
  128.6606  124.8003   58.9243 H   0  0  0  0  0  0  0  0  0  0  0  0
  128.9990  126.3231   61.5050 H   0  0  0  0  0  0  0  0  0  0  0  0
  127.3463  125.8722   60.8719 H   0  0  0  0  0  0  0  0  0  0  0  0
  129.4765  123.7549   61.0569 H   0  0  0  0  0  0  0  0  0  0  0  0
  126.8900  123.6787   60.1796 H   0  0  0  0  0  0  0  0  0  0  0  0
  127.7991  122.2706   60.8555 H   0  0  0  0  0  0  0  0  0  0  0  0
  126.5130  123.9490   62.6660 H   0  0  0  0  0  0  0  0  0  0  0  0
  1  2  2  0
  2  3  1  0
  3  4  2  0
  4  5  1  0
  5  6  1  0
  5  7  1  0
  7  8  1  0
  8  9  1  0
  9 10  1  0
  9 11  1  0
 11 12  1  0
 12 13  1  0
 13 14  2  0
 14 15  1  0
 15 16  1  0
 16 17  1  0
 17 18  1  0
 18 19  1  0
 19 20  1  0
 18 21  1  0
 21  2  1  0
 12  7  1  0
  3 22  1  0
  4 23  1  0
  5 24  1  6
  6 25  1  0
  7 26  1  6
  8 27  1  0
  8 28  1  0
  9 29  1  1
 10 30  1  0
 11 31  1  0
 11 32  1  0
 12 33  1  1
 13 34  1  0
 14 35  1  0
 15 36  1  0
 15 37  1  0
 16 38  1  0
 16 39  1  0
 17 40  1  0
 17 41  1  0
 18 42  1  6
 19 43  1  0
 19 44  1  0
 20 45  1  0
M  END
>  <Binding energies>  (1) 
[-3.57]

>  <Ligand effiencies>  (1) 
[-0.1373076923076923]

>  <Interactions>  (1) 
["V-A:ILE:369:CG2:3237, V-B:PRO:540:CA:9855, V-A:ILE:369:CD1:3239, V-A:GLY:454:CA:4049, H-B:GLU:543:OE1:9881, H-A:ARG:545:NE:4924, H-B:ALA:541:N:9863, H-A:SER:385:OG:3410, H-A:SER:385:O:3406, V-B:GLU:543:CD:9880, V-A:ARG:545:CZ:4926, V-A:LEU:475:CD2:4259, H-A:ARG:545:NH2:4928, V-B:GLU:543:CG:9879, H-A:GLY:454:N:4050, V-A:ASP:366:CG:3213, H-A:TYR:484:OH:4348"]

$$$$
ZINC1857631720
     RDKit          3D

137142  0  0  0  0  0  0  0  0999 V2000
  130.5900  132.9320   56.5250 C   0  0  0  0  0  0  0  0  0  0  0  0
  129.3520  132.9060   57.4330 C   0  0  0  0  0  0  0  0  0  0  0  0
  129.6870  132.5540   58.8930 C   0  0  0  0  0  0  0  0  0  0  0  0
  129.8130  131.0390   59.1310 C   0  0  0  0  0  0  0  0  0  0  0  0
  128.5250  130.4100   59.6980 C   0  0  0  0  0  0  0  0  0  0  0  0
  128.1100  129.0890   59.0210 C   0  0  0  0  0  0  0  0  0  0  0  0
  127.0430  128.2870   59.7910 C   0  0  0  0  0  0  0  0  0  0  0  0
  126.5070  127.0820   58.9940 C   0  0  0  0  0  0  0  0  0  0  0  0
  126.8880  127.0860   57.5000 C   0  0  0  0  0  0  0  0  0  0  0  0
  126.8580  125.6960   56.8340 C   0  0  0  0  0  0  0  0  0  0  0  0
  126.1470  124.6360   57.7010 C   0  0  0  0  0  0  0  0  0  0  0  0
  127.1220  123.8870   58.6160 C   0  0  0  0  0  0  0  0  0  0  0  0
  126.7850  122.8200   59.1300 O   0  0  0  0  0  0  0  0  0  0  0  0
  128.3260  124.4570   58.8010 N   0  0  0  0  0  0  0  0  0  0  0  0
  129.4420  123.9090   59.5860 C   0  0  1  0  0  0  0  0  0  0  0  0
  129.1080  122.5630   60.2500 C   0  0  2  0  0  0  0  0  0  0  0  0
  127.9300  122.7490   60.9770 O   0  0  0  0  0  0  0  0  0  0  0  0
  128.0420  123.3370   62.2770 C   0  0  1  0  0  0  0  0  0  0  0  0
  128.5390  122.2740   63.2810 C   0  0  0  0  0  0  0  0  0  0  0  0
  128.6600  122.8770   64.6950 C   0  0  0  0  0  0  0  0  0  0  0  0
  129.5660  124.1510   64.7960 C   0  0  2  0  0  0  0  0  0  0  0  0
  131.0630  123.7320   64.6190 C   0  0  0  0  0  0  0  0  0  0  0  0
  129.3000  124.8440   66.2050 C   0  0  1  0  0  0  0  0  0  0  0  0
  129.5040  123.8910   67.4270 C   0  0  0  0  0  0  0  0  0  0  0  0
  129.6640  124.6170   68.7550 C   0  0  0  0  0  0  0  0  0  0  0  0
  129.5770  125.9500   68.9620 C   0  0  0  0  0  0  0  0  0  0  0  0
  129.7070  126.5130   70.3960 C   0  0  2  0  0  0  0  0  0  0  0  0
  128.3590  126.5110   71.1710 C   0  0  0  0  0  0  0  0  0  0  0  0
  128.5420  126.8700   72.6710 C   0  0  0  0  0  0  0  0  0  0  0  0
  127.1370  126.8840   73.3190 C   0  0  0  0  0  0  0  0  0  0  0  0
  129.4850  125.8970   73.4250 C   0  0  0  0  0  0  0  0  0  0  0  0
  129.0760  128.3280   72.6620 C   0  0  0  0  0  0  0  0  0  0  0  0
  130.4350  128.4780   71.9330 C   0  0  0  0  0  0  0  0  0  0  0  0
  130.4500  127.9070   70.4620 C   0  0  1  0  0  0  0  0  0  0  0  0
  131.9820  127.8030   70.0680 C   0  0  0  0  0  0  0  0  0  0  0  0
  132.3420  128.2930   68.9710 O   0  0  0  0  0  0  0  0  0  0  0  0
  132.8010  127.2830   70.8640 O   0  0  0  0  0  0  0  0  0  0  0  0
  129.6910  128.8650   69.4960 C   0  0  0  0  0  0  0  0  0  0  0  0
  129.7440  128.3860   68.0340 C   0  0  0  0  0  0  0  0  0  0  0  0
  129.2450  126.9120   67.7790 C   0  0  2  0  0  0  0  0  0  0  0  0
  127.6820  126.9860   67.7460 C   0  0  0  0  0  0  0  0  0  0  0  0
  129.8970  126.2940   66.4390 C   0  0  1  0  0  0  0  0  0  0  0  0
  131.4600  126.2150   66.5490 C   0  0  0  0  0  0  0  0  0  0  0  0
  129.5630  127.1870   65.1970 C   0  0  0  0  0  0  0  0  0  0  0  0
  129.8130  126.5260   63.8290 C   0  0  0  0  0  0  0  0  0  0  0  0
  129.0660  125.1700   63.6910 C   0  0  1  0  0  0  0  0  0  0  0  0
  128.9630  124.6010   62.2140 C   0  0  0  0  0  0  0  0  0  0  0  0
  130.3390  124.2400   61.5920 C   0  0  0  0  0  0  0  0  0  0  0  0
  128.2290  125.6390   61.3170 C   0  0  0  0  0  0  0  0  0  0  0  0
  130.1640  122.1970   61.1020 O   0  0  0  0  0  0  0  0  0  0  0  0
  131.3730  121.8850   60.3980 C   0  0  2  0  0  0  0  0  0  0  0  0
  132.3810  121.3230   61.4230 C   0  0  0  0  0  0  0  0  0  0  0  0
  133.6730  121.2280   60.8570 O   0  0  0  0  0  0  0  0  0  0  0  0
  131.8880  123.1670   59.6950 C   0  0  1  0  0  0  0  0  0  0  0  0
  133.0570  122.9090   58.9350 O   0  0  0  0  0  0  0  0  0  0  0  0
  130.7780  123.7840   58.8110 C   0  0  2  0  0  0  0  0  0  0  0  0
  131.1760  125.0180   58.2380 O   0  0  0  0  0  0  0  0  0  0  0  0
  131.4988  132.9511   57.1445 H   0  0  0  0  0  0  0  0  0  0  0  0
  130.5979  132.0338   55.8900 H   0  0  0  0  0  0  0  0  0  0  0  0
  130.5602  133.8297   55.8900 H   0  0  0  0  0  0  0  0  0  0  0  0
  128.8798  133.8992   57.4110 H   0  0  0  0  0  0  0  0  0  0  0  0
  128.6792  132.1240   57.0511 H   0  0  0  0  0  0  0  0  0  0  0  0
  130.6417  133.0314   59.1588 H   0  0  0  0  0  0  0  0  0  0  0  0
  128.8585  132.9181   59.5183 H   0  0  0  0  0  0  0  0  0  0  0  0
  130.0489  130.5520   58.1733 H   0  0  0  0  0  0  0  0  0  0  0  0
  130.6087  130.8876   59.8752 H   0  0  0  0  0  0  0  0  0  0  0  0
  128.6807  130.2136   60.7691 H   0  0  0  0  0  0  0  0  0  0  0  0
  127.7144  131.1287   59.5072 H   0  0  0  0  0  0  0  0  0  0  0  0
  127.7102  129.3243   58.0236 H   0  0  0  0  0  0  0  0  0  0  0  0
  129.0107  128.4586   58.9841 H   0  0  0  0  0  0  0  0  0  0  0  0
  127.4885  127.9186   60.7269 H   0  0  0  0  0  0  0  0  0  0  0  0
  126.1949  128.9618   59.9790 H   0  0  0  0  0  0  0  0  0  0  0  0
  126.9069  126.1636   59.4485 H   0  0  0  0  0  0  0  0  0  0  0  0
  125.4094  127.1397   59.0382 H   0  0  0  0  0  0  0  0  0  0  0  0
  126.1820  127.7391   56.9662 H   0  0  0  0  0  0  0  0  0  0  0  0
  127.9274  127.4413   57.4409 H   0  0  0  0  0  0  0  0  0  0  0  0
  126.3288  125.7774   55.8731 H   0  0  0  0  0  0  0  0  0  0  0  0
  127.8997  125.3700   56.6980 H   0  0  0  0  0  0  0  0  0  0  0  0
  125.3909  125.1368   58.3235 H   0  0  0  0  0  0  0  0  0  0  0  0
  125.6862  123.9008   57.0249 H   0  0  0  0  0  0  0  0  0  0  0  0
  128.5110  125.3320   58.3320 H   0  0  0  0  0  0  0  0  0  0  0  0
  129.5903  124.6674   60.3688 H   0  0  0  0  0  0  0  0  0  0  0  0
  128.9741  121.7630   59.5069 H   0  0  0  0  0  0  0  0  0  0  0  0
  127.0587  123.6816   62.6297 H   0  0  0  0  0  0  0  0  0  0  0  0
  127.8251  121.4375   63.3047 H   0  0  0  0  0  0  0  0  0  0  0  0
  129.5300  121.9199   62.9607 H   0  0  0  0  0  0  0  0  0  0  0  0
  127.6506  123.1480   65.0379 H   0  0  0  0  0  0  0  0  0  0  0  0
  129.1407  122.1077   65.3172 H   0  0  0  0  0  0  0  0  0  0  0  0
  131.5268  123.6022   65.6080 H   0  0  0  0  0  0  0  0  0  0  0  0
  131.1153  122.7847   64.0623 H   0  0  0  0  0  0  0  0  0  0  0  0
  131.5994  124.5145   64.0623 H   0  0  0  0  0  0  0  0  0  0  0  0
  128.2223  125.0523   66.1336 H   0  0  0  0  0  0  0  0  0  0  0  0
  128.6298  123.2272   67.4983 H   0  0  0  0  0  0  0  0  0  0  0  0
  130.4393  123.3399   67.2496 H   0  0  0  0  0  0  0  0  0  0  0  0
  129.8717  123.9931   69.6368 H   0  0  0  0  0  0  0  0  0  0  0  0
  130.3644  125.8075   70.9253 H   0  0  0  0  0  0  0  0  0  0  0  0
  127.6848  127.2481   70.7104 H   0  0  0  0  0  0  0  0  0  0  0  0
  127.9404  125.4952   71.1163 H   0  0  0  0  0  0  0  0  0  0  0  0
  127.2384  126.8830   74.4143 H   0  0  0  0  0  0  0  0  0  0  0  0
  126.5958  127.7876   73.0017 H   0  0  0  0  0  0  0  0  0  0  0  0
  126.5779  125.9914   73.0017 H   0  0  0  0  0  0  0  0  0  0  0  0
  129.3570  126.0290   74.5095 H   0  0  0  0  0  0  0  0  0  0  0  0
  129.2385  124.8608   73.1502 H   0  0  0  0  0  0  0  0  0  0  0  0
  130.5284  126.1109   73.1502 H   0  0  0  0  0  0  0  0  0  0  0  0
  128.3367  128.9676   72.1576 H   0  0  0  0  0  0  0  0  0  0  0  0
  129.2337  128.6239   73.7097 H   0  0  0  0  0  0  0  0  0  0  0  0
  130.6863  129.5480   71.8896 H   0  0  0  0  0  0  0  0  0  0  0  0
  131.1664  127.8897   72.5065 H   0  0  0  0  0  0  0  0  0  0  0  0
  128.6386  128.9233   69.8108 H   0  0  0  0  0  0  0  0  0  0  0  0
  130.1811  129.8486   69.5450 H   0  0  0  0  0  0  0  0  0  0  0  0
  129.1187  129.0631   67.4336 H   0  0  0  0  0  0  0  0  0  0  0  0
  130.8077  128.3952   67.7538 H   0  0  0  0  0  0  0  0  0  0  0  0
  127.2940  127.0044   68.7751 H   0  0  0  0  0  0  0  0  0  0  0  0
  127.3692  127.9000   67.2198 H   0  0  0  0  0  0  0  0  0  0  0  0
  127.2843  126.1057   67.2198 H   0  0  0  0  0  0  0  0  0  0  0  0
  131.7527  126.2002   67.6092 H   0  0  0  0  0  0  0  0  0  0  0  0
  131.8163  125.2977   66.0574 H   0  0  0  0  0  0  0  0  0  0  0  0
  131.9069  127.0917   66.0574 H   0  0  0  0  0  0  0  0  0  0  0  0
  128.4997  127.4633   65.2524 H   0  0  0  0  0  0  0  0  0  0  0  0
  130.2439  128.0494   65.2487 H   0  0  0  0  0  0  0  0  0  0  0  0
  129.4642  127.2055   63.0374 H   0  0  0  0  0  0  0  0  0  0  0  0
  130.8916  126.3298   63.7391 H   0  0  0  0  0  0  0  0  0  0  0  0
  128.0029  125.3583   63.9016 H   0  0  0  0  0  0  0  0  0  0  0  0
  131.0658  124.0493   62.3953 H   0  0  0  0  0  0  0  0  0  0  0  0
  130.2351  123.3387   60.9700 H   0  0  0  0  0  0  0  0  0  0  0  0
  130.6909  125.0762   60.9700 H   0  0  0  0  0  0  0  0  0  0  0  0
  127.7108  126.3718   61.9530 H   0  0  0  0  0  0  0  0  0  0  0  0
  128.9619  126.1581   60.6819 H   0  0  0  0  0  0  0  0  0  0  0  0
  127.4953  125.1210   60.6819 H   0  0  0  0  0  0  0  0  0  0  0  0
  131.2151  121.1271   59.6166 H   0  0  0  0  0  0  0  0  0  0  0  0
  132.4180  121.9913   62.2959 H   0  0  0  0  0  0  0  0  0  0  0  0
  132.0534  120.3170   61.7242 H   0  0  0  0  0  0  0  0  0  0  0  0
  134.0010  122.1150   60.6940 H   0  0  0  0  0  0  0  0  0  0  0  0
  132.1566  123.8949   60.4748 H   0  0  0  0  0  0  0  0  0  0  0  0
  133.3640  122.0210   59.1370 H   0  0  0  0  0  0  0  0  0  0  0  0
  130.6075  123.0910   57.9740 H   0  0  0  0  0  0  0  0  0  0  0  0
  130.8780  125.0420   57.3260 H   0  0  0  0  0  0  0  0  0  0  0  0
  1  2  1  0
  2  3  1  0
  3  4  1  0
  4  5  1  0
  5  6  1  0
  6  7  1  0
  7  8  1  0
  8  9  1  0
  9 10  1  0
 10 11  1  0
 11 12  1  0
 12 13  2  0
 12 14  1  0
 14 15  1  0
 15 16  1  0
 16 17  1  0
 17 18  1  0
 18 19  1  0
 19 20  1  0
 20 21  1  0
 21 22  1  6
 21 23  1  0
 23 24  1  0
 24 25  1  0
 25 26  2  0
 26 27  1  0
 27 28  1  0
 28 29  1  0
 29 30  1  0
 29 31  1  0
 29 32  1  0
 32 33  1  0
 33 34  1  0
 34 35  1  6
 35 36  2  0
 35 37  1  0
 34 38  1  0
 38 39  1  0
 39 40  1  0
 40 41  1  6
 40 42  1  0
 42 43  1  1
 42 44  1  0
 44 45  1  0
 45 46  1  0
 46 47  1  0
 47 48  1  0
 47 49  1  0
 16 50  1  0
 50 51  1  0
 51 52  1  0
 52 53  1  0
 51 54  1  0
 54 55  1  0
 54 56  1  0
 56 57  1  0
 56 15  1  0
 47 18  1  0
 46 21  1  0
 42 23  1  0
 40 26  1  0
 34 27  1  0
  1 58  1  0
  1 59  1  0
  1 60  1  0
  2 61  1  0
  2 62  1  0
  3 63  1  0
  3 64  1  0
  4 65  1  0
  4 66  1  0
  5 67  1  0
  5 68  1  0
  6 69  1  0
  6 70  1  0
  7 71  1  0
  7 72  1  0
  8 73  1  0
  8 74  1  0
  9 75  1  0
  9 76  1  0
 10 77  1  0
 10 78  1  0
 11 79  1  0
 11 80  1  0
 14 81  1  0
 15 82  1  1
 16 83  1  6
 18 84  1  1
 19 85  1  0
 19 86  1  0
 20 87  1  0
 20 88  1  0
 22 89  1  0
 22 90  1  0
 22 91  1  0
 23 92  1  6
 24 93  1  0
 24 94  1  0
 25 95  1  0
 27 96  1  1
 28 97  1  0
 28 98  1  0
 30 99  1  0
 30100  1  0
 30101  1  0
 31102  1  0
 31103  1  0
 31104  1  0
 32105  1  0
 32106  1  0
 33107  1  0
 33108  1  0
 38109  1  0
 38110  1  0
 39111  1  0
 39112  1  0
 41113  1  0
 41114  1  0
 41115  1  0
 43116  1  0
 43117  1  0
 43118  1  0
 44119  1  0
 44120  1  0
 45121  1  0
 45122  1  0
 46123  1  1
 48124  1  0
 48125  1  0
 48126  1  0
 49127  1  0
 49128  1  0
 49129  1  0
 51130  1  6
 52131  1  0
 52132  1  0
 53133  1  0
 54134  1  1
 55135  1  0
 56136  1  6
 57137  1  0
M  CHG  1  37  -1
M  END
>  <Binding energies>  (1) 
[10.43]

>  <Ligand effiencies>  (1) 
[0.17098360655737704]

>  <Interactions>  (1) 
["V-A:ARG:545:CA:4919, V-A:GLU:543:CA:4904, V-B:GLU:543:C:9874, V-B:HIS:456:CD2:9039, V-A:GLU:543:C:4902, V-B:GLU:543:CB:9878, V-A:ILE:538:CB:4862, V-B:ASP:366:CG:8184, V-B:ALA:541:CB:9864, V-B:TYR:539:CE2:9848, V-A:TYR:484:CE2:4346, V-A:GLY:544:CA:4914, V-B:GLU:543:CG:9879, V-A:GLY:544:C:4912, V-A:HIS:456:CD2:4068, H-A:ARG:545:N:4920, V-A:ILE:538:CG2:4863, V-A:TYR:539:CD1:4873, V-B:TYR:539:CZ:9849, V-A:ILE:538:CA:4860, V-B:TYR:531:CZ:9766, H-B:TYR:539:OH:9850, V-B:LYS:547:CE:9922, H-B:ALA:541:N:9863, V-A:GLU:543:CD:4908, V-A:TYR:484:CZ:4347, V-B:GLU:543:CA:9876, V-B:HIS:456:CE1:9041, V-A:ARG:545:CG:4922, V-A:TYR:484:CD2:4344, V-A:HIS:456:CE1:4070, V-B:GLY:544:C:9884, V-B:TYR:539:CD2:9846, V-A:GLU:543:CG:4907, H-A:SER:385:OG:3410, V-B:GLU:543:CD:9880, V-A:TYR:539:C:4867, V-A:ARG:545:CB:4921, V-A:LEU:475:CD2:4259, V-A:GLU:543:CB:4906, V-A:PRO:540:N:4884, V-A:PRO:540:CA:4883, H-A:SER:385:O:3406, V-B:ALA:541:CA:9862, H-A:HIS:456:ND1:4067"]

$$$$
ZINC1857632514
     RDKit          3D

 84 90  0  0  0  0  0  0  0  0999 V2000
  133.9710  123.9740   57.9050 C   0  0  0  0  0  0  0  0  0  0  0  0
  133.2820  124.6770   59.0600 C   0  0  0  0  0  0  0  0  0  0  0  0
  132.4750  125.7880   58.8150 C   0  0  0  0  0  0  0  0  0  0  0  0
  131.8300  126.4240   59.8710 C   0  0  0  0  0  0  0  0  0  0  0  0
  131.9900  125.9550   61.1810 C   0  0  0  0  0  0  0  0  0  0  0  0
  131.2650  126.6270   62.3550 C   0  0  0  0  0  0  0  0  0  0  0  0
  131.1320  125.6440   63.5110 C   0  0  0  0  0  0  0  0  0  0  0  0
  131.4680  125.8350   64.8420 C   0  0  0  0  0  0  0  0  0  0  0  0
  131.2150  124.7010   65.5680 N   0  0  0  0  0  0  0  0  0  0  0  0
  130.7010  123.7270   64.7430 C   0  0  0  0  0  0  0  0  0  0  0  0
  130.2960  122.4170   65.0140 C   0  0  0  0  0  0  0  0  0  0  0  0
  129.8230  121.6640   63.9410 C   0  0  0  0  0  0  0  0  0  0  0  0
  129.7470  122.1730   62.6400 C   0  0  0  0  0  0  0  0  0  0  0  0
  129.2250  121.2860   61.5270 C   0  0  0  0  0  0  0  0  0  0  0  0
  129.4780  120.0810   61.5470 O   0  0  0  0  0  0  0  0  0  0  0  0
  128.5130  121.8110   60.5020 N   0  0  0  0  0  0  0  0  0  0  0  0
  128.3300  123.1290   60.3000 N   0  0  0  0  0  0  0  0  0  0  0  0
  128.2870  123.4620   59.0750 C   0  0  0  0  0  0  0  0  0  0  0  0
  128.0520  124.8420   58.5940 C   0  0  0  0  0  0  0  0  0  0  0  0
  126.8300  125.4370   58.9410 C   0  0  0  0  0  0  0  0  0  0  0  0
  126.5120  126.7320   58.5410 C   0  0  0  0  0  0  0  0  0  0  0  0
  127.4170  127.4670   57.7820 C   0  0  0  0  0  0  0  0  0  0  0  0
  128.6420  126.9080   57.4220 C   0  0  0  0  0  0  0  0  0  0  0  0
  129.5120  127.6620   56.6750 O   0  0  0  0  0  0  0  0  0  0  0  0
  128.9660  125.6010   57.8200 C   0  0  0  0  0  0  0  0  0  0  0  0
  130.1870  125.0950   57.4440 O   0  0  0  0  0  0  0  0  0  0  0  0
  130.1280  123.5010   62.3920 C   0  0  0  0  0  0  0  0  0  0  0  0
  130.6280  124.2940   63.4370 C   0  0  0  0  0  0  0  0  0  0  0  0
  129.9350  127.2950   61.9760 C   0  0  0  0  0  0  0  0  0  0  0  0
  129.4590  127.5080   60.6900 C   0  0  0  0  0  0  0  0  0  0  0  0
  128.2480  128.1430   60.7090 N   0  0  0  0  0  0  0  0  0  0  0  0
  127.8840  128.3990   62.0090 C   0  0  0  0  0  0  0  0  0  0  0  0
  126.7520  129.0360   62.5240 C   0  0  0  0  0  0  0  0  0  0  0  0
  126.6760  129.1720   63.9090 C   0  0  0  0  0  0  0  0  0  0  0  0
  127.6740  128.6950   64.7700 C   0  0  0  0  0  0  0  0  0  0  0  0
  127.5810  128.8790   66.2720 C   0  0  0  0  0  0  0  0  0  0  0  0
  127.6260  130.0090   66.7680 O   0  0  0  0  0  0  0  0  0  0  0  0
  127.4730  127.7500   67.0050 N   0  0  0  0  0  0  0  0  0  0  0  0
  127.3790  127.7600   68.3480 N   0  0  0  0  0  0  0  0  0  0  0  0
  128.4840  127.5060   68.9270 C   0  0  0  0  0  0  0  0  0  0  0  0
  128.6730  127.4420   70.3930 C   0  0  0  0  0  0  0  0  0  0  0  0
  127.6390  126.8540   71.1380 C   0  0  0  0  0  0  0  0  0  0  0  0
  127.7140  126.7440   72.5240 C   0  0  0  0  0  0  0  0  0  0  0  0
  128.8310  127.2190   73.1990 C   0  0  0  0  0  0  0  0  0  0  0  0
  129.8760  127.8080   72.4910 C   0  0  0  0  0  0  0  0  0  0  0  0
  130.9650  128.2690   73.1910 O   0  0  0  0  0  0  0  0  0  0  0  0
  129.8080  127.9230   71.0930 C   0  0  0  0  0  0  0  0  0  0  0  0
  130.8670  128.5110   70.4380 O   0  0  0  0  0  0  0  0  0  0  0  0
  128.7930  128.0490   64.2290 C   0  0  0  0  0  0  0  0  0  0  0  0
  128.9270  127.8840   62.8380 C   0  0  0  0  0  0  0  0  0  0  0  0
  132.7880  124.8310   61.4180 C   0  0  0  0  0  0  0  0  0  0  0  0
  133.4350  124.1960   60.3620 C   0  0  0  0  0  0  0  0  0  0  0  0
  134.6900  123.2404   58.2986 H   0  0  0  0  0  0  0  0  0  0  0  0
  133.2198  123.4573   57.2896 H   0  0  0  0  0  0  0  0  0  0  0  0
  134.5027  124.7147   57.2896 H   0  0  0  0  0  0  0  0  0  0  0  0
  132.3487  126.1609   57.7879 H   0  0  0  0  0  0  0  0  0  0  0  0
  131.1919  127.2986   59.6763 H   0  0  0  0  0  0  0  0  0  0  0  0
  131.8904  127.4700   62.6838 H   0  0  0  0  0  0  0  0  0  0  0  0
  131.8801  126.7665   65.2573 H   0  0  0  0  0  0  0  0  0  0  0  0
  131.3990  124.6380   66.5590 H   0  0  0  0  0  0  0  0  0  0  0  0
  130.3483  121.9986   66.0300 H   0  0  0  0  0  0  0  0  0  0  0  0
  129.4968  120.6295   64.1240 H   0  0  0  0  0  0  0  0  0  0  0  0
  128.1490  121.2130   59.7740 H   0  0  0  0  0  0  0  0  0  0  0  0
  128.4340  122.6733   58.3224 H   0  0  0  0  0  0  0  0  0  0  0  0
  126.1066  124.8674   59.5428 H   0  0  0  0  0  0  0  0  0  0  0  0
  125.5455  127.1739   58.8250 H   0  0  0  0  0  0  0  0  0  0  0  0
  127.1656  128.4901   57.4657 H   0  0  0  0  0  0  0  0  0  0  0  0
  130.4250  127.3780   56.7600 H   0  0  0  0  0  0  0  0  0  0  0  0
  130.5210  125.4900   56.6350 H   0  0  0  0  0  0  0  0  0  0  0  0
  130.0348  123.9202   61.3793 H   0  0  0  0  0  0  0  0  0  0  0  0
  129.9874  127.2053   59.7739 H   0  0  0  0  0  0  0  0  0  0  0  0
  127.7440  128.3800   59.8670 H   0  0  0  0  0  0  0  0  0  0  0  0
  125.9559  129.4135   61.8654 H   0  0  0  0  0  0  0  0  0  0  0  0
  125.7985  129.6733   64.3434 H   0  0  0  0  0  0  0  0  0  0  0  0
  127.4540  126.8380   66.5720 H   0  0  0  0  0  0  0  0  0  0  0  0
  129.3622  127.3206   68.2910 H   0  0  0  0  0  0  0  0  0  0  0  0
  126.7498  126.4716   70.6154 H   0  0  0  0  0  0  0  0  0  0  0  0
  126.8885  126.2809   73.0844 H   0  0  0  0  0  0  0  0  0  0  0  0
  128.8905  127.1300   74.2938 H   0  0  0  0  0  0  0  0  0  0  0  0
  131.6710  128.5860   72.6220 H   0  0  0  0  0  0  0  0  0  0  0  0
  130.6040  129.2750   69.9200 H   0  0  0  0  0  0  0  0  0  0  0  0
  129.5764  127.6661   64.8996 H   0  0  0  0  0  0  0  0  0  0  0  0
  132.9046  124.4476   62.4424 H   0  0  0  0  0  0  0  0  0  0  0  0
  134.0665  123.3158   60.5529 H   0  0  0  0  0  0  0  0  0  0  0  0
  1  2  1  0
  2  3  2  0
  3  4  1  0
  4  5  2  0
  5  6  1  0
  6  7  1  0
  7  8  2  0
  8  9  1  0
  9 10  1  0
 10 11  2  0
 11 12  1  0
 12 13  2  0
 13 14  1  0
 14 15  2  0
 14 16  1  0
 16 17  1  0
 17 18  2  0
 18 19  1  0
 19 20  2  0
 20 21  1  0
 21 22  2  0
 22 23  1  0
 23 24  1  0
 23 25  2  0
 25 26  1  0
 13 27  1  0
 27 28  2  0
  6 29  1  0
 29 30  2  0
 30 31  1  0
 31 32  1  0
 32 33  2  0
 33 34  1  0
 34 35  2  0
 35 36  1  0
 36 37  2  0
 36 38  1  0
 38 39  1  0
 39 40  2  0
 40 41  1  0
 41 42  2  0
 42 43  1  0
 43 44  2  0
 44 45  1  0
 45 46  1  0
 45 47  2  0
 47 48  1  0
 35 49  1  0
 49 50  2  0
  5 51  1  0
 51 52  2  0
 52  2  1  0
 28  7  1  0
 50 29  1  0
 28 10  1  0
 50 32  1  0
 25 19  1  0
 47 41  1  0
  1 53  1  0
  1 54  1  0
  1 55  1  0
  3 56  1  0
  4 57  1  0
  6 58  1  0
  8 59  1  0
  9 60  1  0
 11 61  1  0
 12 62  1  0
 16 63  1  0
 18 64  1  0
 20 65  1  0
 21 66  1  0
 22 67  1  0
 24 68  1  0
 26 69  1  0
 27 70  1  0
 30 71  1  0
 31 72  1  0
 33 73  1  0
 34 74  1  0
 38 75  1  0
 40 76  1  0
 42 77  1  0
 43 78  1  0
 44 79  1  0
 46 80  1  0
 48 81  1  0
 49 82  1  0
 51 83  1  0
 52 84  1  0
M  END
>  <Binding energies>  (1) 
[-9.29]

>  <Ligand effiencies>  (1) 
[-0.15483333333333332]

>  <Interactions>  (1) 
["V-A:ILE:369:CG2:3237, V-A:ASP:366:CA:3210, V-B:PRO:540:CA:9855, V-A:ILE:369:C:3232, V-B:GLU:543:C:9874, H-A:GLU:543:OE2:4910, V-A:ILE:369:CB:3236, V-B:GLU:543:CB:9878, V-B:ALA:541:CB:9864, H-A:TYR:531:OH:4795, V-B:TYR:539:CE2:9848, V-A:TYR:484:CE2:4346, V-B:GLU:543:CG:9879, V-B:TYR:539:C:9839, V-A:ASP:366:CG:3213, H-A:ARG:545:N:4920, V-B:TYR:539:CZ:9849, H-B:GLU:543:OE1:9881, H-B:TYR:539:OH:9850, V-B:LYS:547:CE:9922, H-B:ALA:541:N:9863, V-A:LEU:475:CD1:4258, V-A:GLU:543:CD:4908, V-A:TYR:484:CZ:4347, H-B:TYR:484:OH:9319, V-B:HIS:456:CE1:9041, V-B:PRO:540:N:9856, V-A:HIS:456:CE1:4070, V-A:ASP:366:C:3208, V-B:GLY:544:C:9884, V-B:TYR:539:CD2:9846, V-B:GLY:544:CA:9886, V-B:GLU:543:CD:9880, V-A:ASP:366:CB:3212, H-A:LYS:547:NZ:4951, V-A:LEU:475:CD2:4259, V-A:ARG:545:CZ:4926, H-B:GLU:543:OE2:9882, H-B:TYR:539:O:9840, V-B:PRO:540:C:9853, H-A:GLY:544:O:4913, H-A:TYR:484:OH:4348, H-A:GLU:543:O:4903"]

$$$$
ZINC1857632514-again1
     RDKit          3D

 83 89  0  0  0  0  0  0  0  0999 V2000
  130.5690  124.2050   66.0100 C   0  0  0  0  0  0  0  0  0  0  0  0
  130.3230  124.8820   64.6740 C   0  0  0  0  0  0  0  0  0  0  0  0
  129.1660  124.5870   63.9550 C   0  0  0  0  0  0  0  0  0  0  0  0
  128.9300  125.2110   62.7340 C   0  0  0  0  0  0  0  0  0  0  0  0
  129.8530  126.1260   62.2080 C   0  0  0  0  0  0  0  0  0  0  0  0
  129.5520  126.8670   60.8890 C   0  0  1  0  0  0  0  0  0  0  0  0
  129.1580  128.3300   61.0280 C   0  0  0  0  0  0  0  0  0  0  0  0
  129.1490  129.3180   60.0580 C   0  0  0  0  0  0  0  0  0  0  0  0
  128.7250  130.5070   60.5910 N   0  0  0  0  0  0  0  0  0  0  0  0
  128.4330  130.3400   61.9260 C   0  0  0  0  0  0  0  0  0  0  0  0
  127.9690  131.2440   62.8840 C   0  0  0  0  0  0  0  0  0  0  0  0
  127.7630  130.7540   64.1730 C   0  0  0  0  0  0  0  0  0  0  0  0
  128.0050  129.4160   64.5240 C   0  0  0  0  0  0  0  0  0  0  0  0
  127.7710  128.9110   65.9340 C   0  0  0  0  0  0  0  0  0  0  0  0
  126.7520  129.2370   66.5530 O   0  0  0  0  0  0  0  0  0  0  0  0
  128.7130  128.0800   66.4280 N   0  0  0  0  0  0  0  0  0  0  0  0
  128.6310  127.5250   67.6520 N   0  0  0  0  0  0  0  0  0  0  0  0
  129.3400  128.1340   68.5210 C   0  0  0  0  0  0  0  0  0  0  0  0
  129.4450  127.7360   69.9570 C   0  0  0  0  0  0  0  0  0  0  0  0
  130.6740  127.9430   70.6110 C   0  0  0  0  0  0  0  0  0  0  0  0
  130.8640  127.6070   71.9460 C   0  0  0  0  0  0  0  0  0  0  0  0
  129.8240  127.0510   72.6740 C   0  0  0  0  0  0  0  0  0  0  0  0
  128.5860  126.8250   72.0780 C   0  0  0  0  0  0  0  0  0  0  0  0
  127.6100  126.2690   72.8800 O   0  0  0  0  0  0  0  0  0  0  0  0
  128.3770  127.1620   70.7150 C   0  0  0  0  0  0  0  0  0  0  0  0
  127.2170  126.9350   70.2010 O   0  0  0  0  0  0  0  0  0  0  0  0
  128.4690  128.5260   63.5440 C   0  0  0  0  0  0  0  0  0  0  0  0
  128.6920  128.9730   62.2320 C   0  0  0  0  0  0  0  0  0  0  0  0
  130.6230  126.7360   59.8130 C   0  0  0  0  0  0  0  0  0  0  0  0
  130.9390  127.6150   58.7910 C   0  0  0  0  0  0  0  0  0  0  0  0
  131.9980  127.1370   58.0620 N   0  0  0  0  0  0  0  0  0  0  0  0
  132.4080  125.9260   58.5740 C   0  0  0  0  0  0  0  0  0  0  0  0
  133.4420  125.0670   58.1940 C   0  0  0  0  0  0  0  0  0  0  0  0
  133.6090  123.9030   58.9480 C   0  0  0  0  0  0  0  0  0  0  0  0
  132.7820  123.5800   60.0290 C   0  0  0  0  0  0  0  0  0  0  0  0
  133.0390  122.3050   60.8150 C   0  0  0  0  0  0  0  0  0  0  0  0
  134.1870  121.8670   60.8940 O   0  0  0  0  0  0  0  0  0  0  0  0
  132.0260  121.6630   61.4470 N   0  0  0  0  0  0  0  0  0  0  0  0
  130.7740  122.1480   61.5560 N   0  0  0  0  0  0  0  0  0  0  0  0
  130.0550  121.9940   60.5210 C   0  0  0  0  0  0  0  0  0  0  0  0
  128.6820  122.5280   60.3850 C   0  0  0  0  0  0  0  0  0  0  0  0
  128.3060  123.0000   59.1190 C   0  0  0  0  0  0  0  0  0  0  0  0
  127.0390  123.5320   58.8880 C   0  0  0  0  0  0  0  0  0  0  0  0
  126.1180  123.6090   59.9260 C   0  0  0  0  0  0  0  0  0  0  0  0
  126.4590  123.1540   61.1970 C   0  0  0  0  0  0  0  0  0  0  0  0
  125.5290  123.2510   62.2030 O   0  0  0  0  0  0  0  0  0  0  0  0
  127.7310  122.6100   61.4350 C   0  0  0  0  0  0  0  0  0  0  0  0
  128.0140  122.1720   62.7110 O   0  0  0  0  0  0  0  0  0  0  0  0
  131.7160  124.4300   60.3570 C   0  0  0  0  0  0  0  0  0  0  0  0
  131.5380  125.6350   59.6630 C   0  0  0  0  0  0  0  0  0  0  0  0
  131.0030  126.4280   62.9510 C   0  0  0  0  0  0  0  0  0  0  0  0
  131.2420  125.8040   64.1720 C   0  0  0  0  0  0  0  0  0  0  0  0
  130.3167  124.8994   66.8249 H   0  0  0  0  0  0  0  0  0  0  0  0
  129.9402  123.3057   66.0867 H   0  0  0  0  0  0  0  0  0  0  0  0
  131.6285  123.9192   66.0867 H   0  0  0  0  0  0  0  0  0  0  0  0
  128.4405  123.8619   64.3523 H   0  0  0  0  0  0  0  0  0  0  0  0
  128.0098  124.9841   62.1756 H   0  0  0  0  0  0  0  0  0  0  0  0
  128.6609  126.3159   60.5539 H   0  0  0  0  0  0  0  0  0  0  0  0
  129.4410  129.1694   59.0079 H   0  0  0  0  0  0  0  0  0  0  0  0
  128.6520  131.3530   60.0450 H   0  0  0  0  0  0  0  0  0  0  0  0
  127.7745  132.2971   62.6325 H   0  0  0  0  0  0  0  0  0  0  0  0
  127.3957  131.4440   64.9470 H   0  0  0  0  0  0  0  0  0  0  0  0
  129.5300  127.8270   65.8910 H   0  0  0  0  0  0  0  0  0  0  0  0
  129.9132  129.0125   68.1898 H   0  0  0  0  0  0  0  0  0  0  0  0
  131.5097  128.3843   70.0481 H   0  0  0  0  0  0  0  0  0  0  0  0
  131.8389  127.7822   72.4244 H   0  0  0  0  0  0  0  0  0  0  0  0
  129.9777  126.7863   73.7305 H   0  0  0  0  0  0  0  0  0  0  0  0
  126.7770  126.1600   72.4160 H   0  0  0  0  0  0  0  0  0  0  0  0
  128.6588  127.4743   63.8044 H   0  0  0  0  0  0  0  0  0  0  0  0
  130.4154  128.5617   58.5920 H   0  0  0  0  0  0  0  0  0  0  0  0
  132.3900  127.6410   57.2790 H   0  0  0  0  0  0  0  0  0  0  0  0
  134.0953  125.2969   57.3394 H   0  0  0  0  0  0  0  0  0  0  0  0
  134.4231  123.2130   58.6811 H   0  0  0  0  0  0  0  0  0  0  0  0
  132.1910  120.7930   61.9320 H   0  0  0  0  0  0  0  0  0  0  0  0
  130.4776  121.4306   59.6760 H   0  0  0  0  0  0  0  0  0  0  0  0
  129.0273  122.9491   58.2900 H   0  0  0  0  0  0  0  0  0  0  0  0
  126.7678  123.8910   57.8842 H   0  0  0  0  0  0  0  0  0  0  0  0
  125.1183  124.0300   59.7432 H   0  0  0  0  0  0  0  0  0  0  0  0
  125.9330  123.3300   63.0710 H   0  0  0  0  0  0  0  0  0  0  0  0
  128.9540  122.0280   62.8500 H   0  0  0  0  0  0  0  0  0  0  0  0
  131.0183  124.1508   61.1602 H   0  0  0  0  0  0  0  0  0  0  0  0
  131.7230  127.1649   62.5654 H   0  0  0  0  0  0  0  0  0  0  0  0
  132.1543  126.0375   64.7405 H   0  0  0  0  0  0  0  0  0  0  0  0
  1  2  1  0
  2  3  2  0
  3  4  1  0
  4  5  2  0
  5  6  1  0
  6  7  1  0
  7  8  2  0
  8  9  1  0
  9 10  1  0
 10 11  2  0
 11 12  1  0
 12 13  2  0
 13 14  1  0
 14 15  2  0
 14 16  1  0
 16 17  1  0
 17 18  2  0
 18 19  1  0
 19 20  2  0
 20 21  1  0
 21 22  2  0
 22 23  1  0
 23 24  1  0
 23 25  2  0
 25 26  1  0
 13 27  1  0
 27 28  2  0
  6 29  1  0
 29 30  2  0
 30 31  1  0
 31 32  1  0
 32 33  2  0
 33 34  1  0
 34 35  2  0
 35 36  1  0
 36 37  2  0
 36 38  1  0
 38 39  1  0
 39 40  2  0
 40 41  1  0
 41 42  2  0
 42 43  1  0
 43 44  2  0
 44 45  1  0
 45 46  1  0
 45 47  2  0
 47 48  1  0
 35 49  1  0
 49 50  2  0
  5 51  1  0
 51 52  2  0
 52  2  1  0
 28  7  1  0
 50 29  1  0
 28 10  1  0
 50 32  1  0
 25 19  1  0
 47 41  1  0
  1 53  1  0
  1 54  1  0
  1 55  1  0
  3 56  1  0
  4 57  1  0
  6 58  1  6
  8 59  1  0
  9 60  1  0
 11 61  1  0
 12 62  1  0
 16 63  1  0
 18 64  1  0
 20 65  1  0
 21 66  1  0
 22 67  1  0
 24 68  1  0
 27 69  1  0
 30 70  1  0
 31 71  1  0
 33 72  1  0
 34 73  1  0
 38 74  1  0
 40 75  1  0
 42 76  1  0
 43 77  1  0
 44 78  1  0
 46 79  1  0
 48 80  1  0
 49 81  1  0
 51 82  1  0
 52 83  1  0
M  CHG  1  26  -1
M  END
>  <Binding energies>  (1) 
[-10.08]

>  <Ligand effiencies>  (1) 
[-0.17084745762711864]

>  <Interactions>  (1) 
["V-A:ILE:369:CG2:3237, V-A:ASP:366:CA:3210, V-B:PRO:540:CA:9855, H-A:GLU:543:OE2:4910, H-B:GLU:543:O:9875, V-A:ILE:369:CB:3236, V-A:GLU:543:C:4902, H-B:LYS:547:NZ:9923, V-B:ALA:541:CB:9864, H-A:TYR:531:OH:4795, V-A:TYR:484:CE2:4346, V-B:TYR:539:CE2:9848, H-B:ALA:541:O:9861, V-B:GLU:543:CG:9879, V-A:GLY:544:C:4912, V-A:ASP:366:CG:3213, V-A:HIS:456:CD2:4068, H-B:HIS:456:ND1:9038, H-B:GLU:543:OE1:9881, H-B:ALA:541:N:9863, V-A:GLU:543:CD:4908, V-A:TYR:484:CZ:4347, V-B:PRO:540:CB:9857, H-B:TYR:484:OH:9319, V-B:HIS:456:CE1:9041, V-A:HIS:456:CE1:4070, V-A:ASP:366:C:3208, V-B:TYR:539:CD2:9846, V-A:TYR:531:CZ:4794, V-A:GLU:543:CG:4907, H-A:SER:385:OG:3410, V-B:GLU:543:CD:9880, V-A:ASP:366:CB:3212, V-A:LEU:475:CD2:4259, H-A:GLU:543:OE1:4909, V-A:GLU:543:CB:4906, H-B:GLY:544:O:9885, V-B:PRO:540:C:9853"]

$$$$
ZINC1857633365
     RDKit          3D

 62 61  0  0  0  0  0  0  0  0999 V2000
  133.1870  121.3420   61.0720 C   0  0  0  0  0  0  0  0  0  0  0  0
  133.9480  122.1610   62.1230 C   0  0  0  0  0  0  0  0  0  0  0  0
  134.2630  123.5930   61.6530 C   0  0  0  0  0  0  0  0  0  0  0  0
  134.0900  124.6420   62.7660 C   0  0  0  0  0  0  0  0  0  0  0  0
  133.2230  124.1360   63.9360 C   0  0  0  0  0  0  0  0  0  0  0  0
  131.9240  124.9360   64.1490 C   0  0  0  0  0  0  0  0  0  0  0  0
  130.8440  124.1830   64.9110 C   0  0  0  0  0  0  0  0  0  0  0  0
  130.2340  124.5510   66.0550 C   0  0  0  0  0  0  0  0  0  0  0  0
  130.4830  125.8020   66.8820 C   0  0  0  0  0  0  0  0  0  0  0  0
  129.2050  126.6310   67.1100 C   0  0  0  0  0  0  0  0  0  0  0  0
  129.2250  127.4890   68.3910 C   0  0  0  0  0  0  0  0  0  0  0  0
  128.3320  126.9530   69.5270 C   0  0  0  0  0  0  0  0  0  0  0  0
  128.9180  127.2270   70.9270 C   0  0  0  0  0  0  0  0  0  0  0  0
  128.0150  126.7600   72.0930 C   0  0  1  0  0  0  0  0  0  0  0  0
  128.4110  125.4740   72.5380 O   0  0  0  0  0  0  0  0  0  0  0  0
  127.9400  127.7450   73.2900 C   0  0  0  0  0  0  0  0  0  0  0  0
  129.1570  127.7220   74.2280 C   0  0  0  0  0  0  0  0  0  0  0  0
  129.4620  128.7290   74.8680 O   0  0  0  0  0  0  0  0  0  0  0  0
  129.8410  126.5650   74.3050 N   0  0  0  0  0  0  0  0  0  0  0  0
  131.0740  126.3330   75.0780 C   0  0  1  0  0  0  0  0  0  0  0  0
  131.1120  124.8510   75.5050 C   0  0  0  0  0  0  0  0  0  0  0  0
  132.3100  126.6810   74.2440 C   0  0  0  0  0  0  0  0  0  0  0  0
  132.3690  126.5990   73.0140 O   0  0  0  0  0  0  0  0  0  0  0  0
  133.3250  127.0960   75.0380 O   0  0  0  0  0  0  0  0  0  0  0  0
  134.6470  126.6210   74.8290 C   0  0  0  0  0  0  0  0  0  0  0  0
  132.5216  120.6259   61.5765 H   0  0  0  0  0  0  0  0  0  0  0  0
  132.5890  122.0178   60.4430 H   0  0  0  0  0  0  0  0  0  0  0  0
  133.9049  120.7951   60.4430 H   0  0  0  0  0  0  0  0  0  0  0  0
  133.3355  122.2175   63.0350 H   0  0  0  0  0  0  0  0  0  0  0  0
  134.9073  121.6546   62.3053 H   0  0  0  0  0  0  0  0  0  0  0  0
  135.3042  123.6251   61.2996 H   0  0  0  0  0  0  0  0  0  0  0  0
  133.5504  123.8413   60.8526 H   0  0  0  0  0  0  0  0  0  0  0  0
  135.0838  124.9086   63.1549 H   0  0  0  0  0  0  0  0  0  0  0  0
  133.5772  125.5098   62.3256 H   0  0  0  0  0  0  0  0  0  0  0  0
  132.9545  123.0877   63.7387 H   0  0  0  0  0  0  0  0  0  0  0  0
  133.8229  124.2565   64.8501 H   0  0  0  0  0  0  0  0  0  0  0  0
  132.1697  125.8489   64.7113 H   0  0  0  0  0  0  0  0  0  0  0  0
  131.5160  125.1469   63.1495 H   0  0  0  0  0  0  0  0  0  0  0  0
  130.5229  123.2247   64.4769 H   0  0  0  0  0  0  0  0  0  0  0  0
  129.4639  123.8640   66.4358 H   0  0  0  0  0  0  0  0  0  0  0  0
  130.8865  125.5020   67.8604 H   0  0  0  0  0  0  0  0  0  0  0  0
  131.1914  126.4321   66.3242 H   0  0  0  0  0  0  0  0  0  0  0  0
  129.0711  127.3016   66.2484 H   0  0  0  0  0  0  0  0  0  0  0  0
  128.3800  125.9126   67.2251 H   0  0  0  0  0  0  0  0  0  0  0  0
  130.2606  127.5345   68.7591 H   0  0  0  0  0  0  0  0  0  0  0  0
  128.8257  128.4762   68.1153 H   0  0  0  0  0  0  0  0  0  0  0  0
  127.3465  127.4368   69.4575 H   0  0  0  0  0  0  0  0  0  0  0  0
  128.2602  125.8621   69.4055 H   0  0  0  0  0  0  0  0  0  0  0  0
  129.8823  126.7037   71.0061 H   0  0  0  0  0  0  0  0  0  0  0  0
  129.0174  128.3185   71.0208 H   0  0  0  0  0  0  0  0  0  0  0  0
  126.9967  126.7235   71.6787 H   0  0  0  0  0  0  0  0  0  0  0  0
  128.3640  124.8670   71.7950 H   0  0  0  0  0  0  0  0  0  0  0  0
  127.8387  128.7637   72.8876 H   0  0  0  0  0  0  0  0  0  0  0  0
  127.0790  127.4268   73.8961 H   0  0  0  0  0  0  0  0  0  0  0  0
  129.5350  125.7850   73.7420 H   0  0  0  0  0  0  0  0  0  0  0  0
  131.0794  126.9797   75.9678 H   0  0  0  0  0  0  0  0  0  0  0  0
  131.1137  124.7857   76.6031 H   0  0  0  0  0  0  0  0  0  0  0  0
  130.2269  124.3323   75.1082 H   0  0  0  0  0  0  0  0  0  0  0  0
  132.0226  124.3783   75.1082 H   0  0  0  0  0  0  0  0  0  0  0  0
  135.1319  126.4468   75.8008 H   0  0  0  0  0  0  0  0  0  0  0  0
  134.6128  125.6789   74.2621 H   0  0  0  0  0  0  0  0  0  0  0  0
  135.2202  127.3694   74.2621 H   0  0  0  0  0  0  0  0  0  0  0  0
  1  2  1  0
  2  3  1  0
  3  4  1  0
  4  5  1  0
  5  6  1  0
  6  7  1  0
  7  8  2  0
  8  9  1  0
  9 10  1  0
 10 11  1  0
 11 12  1  0
 12 13  1  0
 13 14  1  0
 14 15  1  0
 14 16  1  0
 16 17  1  0
 17 18  2  0
 17 19  1  0
 19 20  1  0
 20 21  1  0
 20 22  1  0
 22 23  2  0
 22 24  1  0
 24 25  1  0
  1 26  1  0
  1 27  1  0
  1 28  1  0
  2 29  1  0
  2 30  1  0
  3 31  1  0
  3 32  1  0
  4 33  1  0
  4 34  1  0
  5 35  1  0
  5 36  1  0
  6 37  1  0
  6 38  1  0
  7 39  1  0
  8 40  1  0
  9 41  1  0
  9 42  1  0
 10 43  1  0
 10 44  1  0
 11 45  1  0
 11 46  1  0
 12 47  1  0
 12 48  1  0
 13 49  1  0
 13 50  1  0
 14 51  1  6
 15 52  1  0
 16 53  1  0
 16 54  1  0
 19 55  1  0
 20 56  1  1
 21 57  1  0
 21 58  1  0
 21 59  1  0
 25 60  1  0
 25 61  1  0
 25 62  1  0
M  END
>  <Binding energies>  (1) 
[-5.98]

>  <Ligand effiencies>  (1) 
[-0.2214814814814815]

>  <Interactions>  (1) 
["V-A:ILE:369:CG2:3237, V-A:GLY:454:CA:4049, V-B:GLU:543:C:9874, V-B:HIS:456:CD2:9039, H-B:GLU:543:O:9875, V-B:GLU:543:CB:9878, H-B:LYS:547:NZ:9923, V-A:TYR:484:CE2:4346, V-B:GLU:543:CG:9879, V-A:HIS:456:CD2:4068, V-A:VAL:457:C:4073, V-A:LYS:547:CG:4948, V-A:HIS:456:CB:4065, V-A:GLU:543:CD:4908, V-A:TYR:484:CZ:4347, V-B:HIS:456:CE1:9041, V-A:HIS:456:CE1:4070, V-A:ILE:369:CD1:3239, V-B:GLY:544:C:9884, V-A:HIS:456:CA:4063, V-B:GLU:543:CD:9880, H-A:LYS:547:NZ:4951, V-A:LEU:475:CD2:4259, V-A:ARG:545:CZ:4926, V-A:HIS:456:C:4061, V-A:ARG:545:C:4917, V-A:GLU:543:CB:4906, V-A:HIS:456:CG:4066, V-A:GLY:453:CA:4044, H-A:HIS:456:NE2:4071, H-A:HIS:456:ND1:4067"]

$$$$
ZINC1857636293
     RDKit          3D

 31 33  0  0  0  0  0  0  0  0999 V2000
  128.7150  127.9400   67.1030 C   0  0  0  0  0  0  0  0  0  0  0  0
  129.0190  126.4310   67.1300 C   0  0  0  0  0  0  0  0  0  0  0  0
  129.4760  125.9590   68.5230 C   0  0  0  0  0  0  0  0  0  0  0  0
  130.0090  126.0280   66.0380 C   0  0  0  0  0  0  0  0  0  0  0  0
  131.2430  125.4630   66.3620 C   0  0  0  0  0  0  0  0  0  0  0  0
  132.1500  125.0910   65.4300 N   0  0  0  0  0  0  0  0  0  0  0  0
  131.8630  125.2700   64.1090 C   0  0  0  0  0  0  0  0  0  0  0  0
  130.6320  125.8370   63.6890 C   0  0  0  0  0  0  0  0  0  0  0  0
  129.7140  126.2120   64.6830 C   0  0  0  0  0  0  0  0  0  0  0  0
  130.2810  126.0490   62.2410 C   0  0  0  0  0  0  0  0  0  0  0  0
  129.2130  126.5420   61.8750 O   0  0  0  0  0  0  0  0  0  0  0  0
  131.3440  125.6060   61.3410 C   0  0  0  0  0  0  0  0  0  0  0  0
  131.2190  125.7270   59.6140 S   0  0  0  0  0  0  0  0  0  0  0  0
  132.8040  125.0240   59.4040 C   0  0  0  0  0  0  0  0  0  0  0  0
  133.3820  124.8130   58.1100 N   0  0  0  0  0  0  0  0  0  0  0  0
  133.2360  125.6990   57.2750 O   0  0  0  0  0  0  0  0  0  0  0  0
  133.9870  123.7650   57.9030 O   0  0  0  0  0  0  0  0  0  0  0  0
  133.3780  124.7200   60.6410 C   0  0  0  0  0  0  0  0  0  0  0  0
  132.5620  125.0450   61.7370 C   0  0  0  0  0  0  0  0  0  0  0  0
  132.9310  124.8270   63.1400 C   0  0  0  0  0  0  0  0  0  0  0  0
  134.0010  124.3340   63.5060 O   0  0  0  0  0  0  0  0  0  0  0  0
  128.6390  128.3172   68.1335 H   0  0  0  0  0  0  0  0  0  0  0  0
  129.5248  128.4679   66.5781 H   0  0  0  0  0  0  0  0  0  0  0  0
  127.7639  128.1131   66.5781 H   0  0  0  0  0  0  0  0  0  0  0  0
  128.0738  125.9123   66.9120 H   0  0  0  0  0  0  0  0  0  0  0  0
  128.9323  126.5205   69.2970 H   0  0  0  0  0  0  0  0  0  0  0  0
  129.2658  124.8849   68.6334 H   0  0  0  0  0  0  0  0  0  0  0  0
  130.5563  126.1344   68.6334 H   0  0  0  0  0  0  0  0  0  0  0  0
  131.4894  125.3133   67.4235 H   0  0  0  0  0  0  0  0  0  0  0  0
  128.7505  126.6562   64.3925 H   0  0  0  0  0  0  0  0  0  0  0  0
  134.3755  124.2685   60.7466 H   0  0  0  0  0  0  0  0  0  0  0  0
  1  2  1  0
  2  3  1  0
  2  4  1  0
  4  5  2  0
  5  6  1  0
  6  7  2  0
  7  8  1  0
  8  9  2  0
  8 10  1  0
 10 11  2  0
 10 12  1  0
 12 13  1  0
 13 14  1  0
 14 15  1  0
 15 16  2  0
 15 17  1  0
 14 18  2  0
 18 19  1  0
 19 20  1  0
 20 21  2  0
  9  4  1  0
 19 12  2  0
 20  7  1  0
  1 22  1  0
  1 23  1  0
  1 24  1  0
  2 25  1  0
  3 26  1  0
  3 27  1  0
  3 28  1  0
  5 29  1  0
  9 30  1  0
 18 31  1  0
M  CHG  2  15   1  17  -1
M  END
>  <Binding energies>  (1) 
[-6.98]

>  <Ligand effiencies>  (1) 
[-0.3323809523809524]

>  <Interactions>  (1) 
["V-A:ASP:366:CA:3210, V-B:GLU:543:C:9874, V-B:GLU:543:CB:9878, H-A:TYR:531:OH:4795, V-B:TYR:539:CE2:9848, V-B:GLU:543:CG:9879, V-A:ASP:366:CG:3213, V-B:TYR:539:CZ:9849, H-A:ASN:370:N:3244, H-B:TYR:539:OH:9850, V-A:GLU:543:CD:4908, V-A:TYR:484:CZ:4347, V-B:GLU:543:CA:9876, H-A:GLY:454:N:4050, V-A:HIS:456:CE1:4070, V-A:ASP:366:C:3208, V-A:GLU:543:CG:4907, V-B:GLU:543:CD:9880, V-A:ASP:366:CB:3212, H-A:ARG:545:NH2:4928, V-A:ARG:545:CZ:4926, V-A:GLU:543:CB:4906, H-A:TYR:484:OH:4348"]

$$$$
ZINC1857656275
     RDKit          3D

 85 89  0  0  0  0  0  0  0  0999 V2000
  125.5060  124.3160   60.3290 C   0  0  0  0  0  0  0  0  0  0  0  0
  126.9190  124.2540   60.4420 O   0  0  0  0  0  0  0  0  0  0  0  0
  127.5020  123.7430   61.5540 C   0  0  0  0  0  0  0  0  0  0  0  0
  126.8910  123.2100   62.4840 O   0  0  0  0  0  0  0  0  0  0  0  0
  129.0610  123.8930   61.5570 C   0  0  2  0  0  0  0  0  0  0  0  0
  129.6100  122.4530   61.8090 C   0  0  0  0  0  0  0  0  0  0  0  0
  131.1290  122.4270   62.0330 C   0  0  0  0  0  0  0  0  0  0  0  0
  131.5250  123.2860   63.2490 C   0  0  1  0  0  0  0  0  0  0  0  0
  133.0260  123.1090   63.5680 C   0  0  0  0  0  0  0  0  0  0  0  0
  131.0950  124.7650   63.0130 C   0  0  2  0  0  0  0  0  0  0  0  0
  131.5280  125.6970   64.1720 C   0  0  0  0  0  0  0  0  0  0  0  0
  129.5560  124.8660   62.6960 C   0  0  1  0  0  0  0  0  0  0  0  0
  129.0390  126.3130   62.4630 C   0  0  0  0  0  0  0  0  0  0  0  0
  128.5330  127.0140   63.5090 C   0  0  0  0  0  0  0  0  0  0  0  0
  128.0490  128.3860   63.4590 C   0  0  0  0  0  0  0  0  0  0  0  0
  127.5130  128.8890   64.4450 O   0  0  0  0  0  0  0  0  0  0  0  0
  128.2550  129.1200   62.1070 C   0  0  2  0  0  0  0  0  0  0  0  0
  127.6140  130.5590   61.9610 C   0  0  1  0  0  0  0  0  0  0  0  0
  126.0610  130.5670   62.1720 C   0  0  0  0  0  0  0  0  0  0  0  0
  128.1930  131.7040   62.8100 C   0  0  0  0  0  0  0  0  0  0  0  0
  128.4550  131.6480   64.2110 C   0  0  0  0  0  0  0  0  0  0  0  0
  128.6840  131.6440   65.3450 N   0  0  0  0  0  0  0  0  0  0  0  0
  128.3200  132.8340   62.0740 C   0  0  0  0  0  0  0  0  0  0  0  0
  128.0120  132.6120   60.5990 C   0  0  1  0  0  0  0  0  0  0  0  0
  126.6270  133.1820   60.2090 C   0  0  0  0  0  0  0  0  0  0  0  0
  129.0960  133.2650   59.6960 C   0  0  0  0  0  0  0  0  0  0  0  0
  129.6690  132.3350   58.7820 O   0  0  0  0  0  0  0  0  0  0  0  0
  130.0220  132.8580   57.2350 S   0  0  0  0  0  0  0  0  0  0  0  0
  130.4980  131.1970   56.4740 C   0  0  0  0  0  0  0  0  0  0  0  0
  128.7900  133.3520   56.6070 O   0  0  0  0  0  0  0  0  0  0  0  0
  131.2210  133.7010   57.3080 O   0  0  0  0  0  0  0  0  0  0  0  0
  128.1110  131.0750   60.5930 C   0  0  2  0  0  0  0  0  0  0  0  0
  127.5480  130.2600   59.4210 C   0  0  0  0  0  0  0  0  0  0  0  0
  128.1000  128.8170   59.4820 C   0  0  0  0  0  0  0  0  0  0  0  0
  128.0420  128.1050   60.8910 C   0  0  2  0  0  0  0  0  0  0  0  0
  126.5910  127.4970   60.9450 C   0  0  0  0  0  0  0  0  0  0  0  0
  129.1570  126.9480   61.0320 C   0  0  1  0  0  0  0  0  0  0  0  0
  130.6210  127.4970   60.9340 C   0  0  0  0  0  0  0  0  0  0  0  0
  128.9900  125.8720   59.8990 C   0  0  0  0  0  0  0  0  0  0  0  0
  129.5640  124.4780   60.2040 C   0  0  0  0  0  0  0  0  0  0  0  0
  125.0583  124.3356   61.3336 H   0  0  0  0  0  0  0  0  0  0  0  0
  125.2215  125.2275   59.7829 H   0  0  0  0  0  0  0  0  0  0  0  0
  125.1427  123.4329   59.7829 H   0  0  0  0  0  0  0  0  0  0  0  0
  129.1160  122.0394   62.7005 H   0  0  0  0  0  0  0  0  0  0  0  0
  129.3970  121.8550   60.9106 H   0  0  0  0  0  0  0  0  0  0  0  0
  131.4488  121.3890   62.2070 H   0  0  0  0  0  0  0  0  0  0  0  0
  131.6211  122.8385   61.1394 H   0  0  0  0  0  0  0  0  0  0  0  0
  130.9882  122.9471   64.1474 H   0  0  0  0  0  0  0  0  0  0  0  0
  133.1696  123.0921   64.6585 H   0  0  0  0  0  0  0  0  0  0  0  0
  133.3835  122.1625   63.1364 H   0  0  0  0  0  0  0  0  0  0  0  0
  133.5938  123.9464   63.1364 H   0  0  0  0  0  0  0  0  0  0  0  0
  131.6324  125.1259   62.1236 H   0  0  0  0  0  0  0  0  0  0  0  0
  131.3035  125.2139   65.1344 H   0  0  0  0  0  0  0  0  0  0  0  0
  132.6085  125.8911   64.1023 H   0  0  0  0  0  0  0  0  0  0  0  0
  130.9794  126.6479   64.1023 H   0  0  0  0  0  0  0  0  0  0  0  0
  129.0942  124.5170   63.6314 H   0  0  0  0  0  0  0  0  0  0  0  0
  128.4843  126.5001   64.4804 H   0  0  0  0  0  0  0  0  0  0  0  0
  129.3095  129.4317   62.0788 H   0  0  0  0  0  0  0  0  0  0  0  0
  125.8373  130.5682   63.2490 H   0  0  0  0  0  0  0  0  0  0  0  0
  125.6325  131.4674   61.7075 H   0  0  0  0  0  0  0  0  0  0  0  0
  125.6232  129.6711   61.7075 H   0  0  0  0  0  0  0  0  0  0  0  0
  128.6137  133.8065   62.4958 H   0  0  0  0  0  0  0  0  0  0  0  0
  126.0572  133.4165   61.1202 H   0  0  0  0  0  0  0  0  0  0  0  0
  126.7615  134.0979   59.6148 H   0  0  0  0  0  0  0  0  0  0  0  0
  126.0779  132.4368   59.6148 H   0  0  0  0  0  0  0  0  0  0  0  0
  128.6344  134.0839   59.1248 H   0  0  0  0  0  0  0  0  0  0  0  0
  129.9003  133.6347   60.3490 H   0  0  0  0  0  0  0  0  0  0  0  0
  130.7056  130.4726   57.2753 H   0  0  0  0  0  0  0  0  0  0  0  0
  129.6695  130.8279   55.8517 H   0  0  0  0  0  0  0  0  0  0  0  0
  131.3963  131.3228   55.8517 H   0  0  0  0  0  0  0  0  0  0  0  0
  129.1799  130.8867   60.4141 H   0  0  0  0  0  0  0  0  0  0  0  0
  126.4502  130.2353   59.4859 H   0  0  0  0  0  0  0  0  0  0  0  0
  127.8497  130.7273   58.4720 H   0  0  0  0  0  0  0  0  0  0  0  0
  127.5209  128.2063   58.7737 H   0  0  0  0  0  0  0  0  0  0  0  0
  129.1696  128.9014   59.2396 H   0  0  0  0  0  0  0  0  0  0  0  0
  126.2858  127.3691   61.9941 H   0  0  0  0  0  0  0  0  0  0  0  0
  125.8895  128.1769   60.4393 H   0  0  0  0  0  0  0  0  0  0  0  0
  126.5837  126.5201   60.4393 H   0  0  0  0  0  0  0  0  0  0  0  0
  131.0244  127.6483   61.9461 H   0  0  0  0  0  0  0  0  0  0  0  0
  131.2486  126.7731   60.3935 H   0  0  0  0  0  0  0  0  0  0  0  0
  130.6179  128.4551   60.3935 H   0  0  0  0  0  0  0  0  0  0  0  0
  127.9143  125.7570   59.6999 H   0  0  0  0  0  0  0  0  0  0  0  0
  129.5680  126.2502   59.0429 H   0  0  0  0  0  0  0  0  0  0  0  0
  129.2690  123.7933   59.3952 H   0  0  0  0  0  0  0  0  0  0  0  0
  130.6566  124.5820   60.2775 H   0  0  0  0  0  0  0  0  0  0  0  0
  1  2  1  0
  2  3  1  0
  3  4  2  0
  5  3  1  6
  5  6  1  0
  6  7  1  0
  7  8  1  0
  8  9  1  0
  8 10  1  0
 10 11  1  0
 10 12  1  0
 12 13  1  0
 13 14  2  0
 14 15  1  0
 15 16  2  0
 15 17  1  0
 17 18  1  0
 18 19  1  6
 18 20  1  0
 20 21  1  0
 21 22  3  0
 20 23  2  0
 23 24  1  0
 24 25  1  6
 24 26  1  0
 26 27  1  0
 27 28  1  0
 28 29  1  0
 28 30  2  0
 28 31  2  0
 24 32  1  0
 32 33  1  0
 33 34  1  0
 34 35  1  0
 35 36  1  1
 35 37  1  0
 37 38  1  1
 37 39  1  0
 39 40  1  0
 12  5  1  0
 37 13  1  0
 40  5  1  0
 35 17  1  0
 32 18  1  0
  1 41  1  0
  1 42  1  0
  1 43  1  0
  6 44  1  0
  6 45  1  0
  7 46  1  0
  7 47  1  0
  8 48  1  1
  9 49  1  0
  9 50  1  0
  9 51  1  0
 10 52  1  6
 11 53  1  0
 11 54  1  0
 11 55  1  0
 12 56  1  1
 14 57  1  0
 17 58  1  1
 19 59  1  0
 19 60  1  0
 19 61  1  0
 23 62  1  0
 25 63  1  0
 25 64  1  0
 25 65  1  0
 26 66  1  0
 26 67  1  0
 29 68  1  0
 29 69  1  0
 29 70  1  0
 32 71  1  1
 33 72  1  0
 33 73  1  0
 34 74  1  0
 34 75  1  0
 36 76  1  0
 36 77  1  0
 36 78  1  0
 38 79  1  0
 38 80  1  0
 38 81  1  0
 39 82  1  0
 39 83  1  0
 40 84  1  0
 40 85  1  0
M  END
>  <Binding energies>  (1) 
[-9.88]

>  <Ligand effiencies>  (1) 
[-0.24700000000000003]

>  <Interactions>  (1) 
["V-B:PRO:540:CA:9855, V-A:GLY:454:CA:4049, V-B:ASP:366:CG:8184, V-B:GLU:543:CG:9879, V-A:TYR:539:CD1:4873, V-A:ALA:541:CB:4892, H-B:ALA:541:N:9863, V-A:GLU:543:CD:4908, V-B:PRO:540:CB:9857, H-B:TYR:484:OH:9319, V-A:GLU:543:CG:4907, V-B:GLU:543:CD:9880, V-A:MET:535:CE:4835, V-A:TYR:539:C:4867, V-A:LEU:475:CD2:4259, V-A:ARG:545:CZ:4926, V-A:PRO:540:N:4884, H-A:TYR:539:N:4870, V-A:PRO:540:CA:4883, V-A:TYR:539:CE1:4875"]

$$$$
ZINC1857698734
     RDKit          3D

 82 86  0  0  0  0  0  0  0  0999 V2000
  128.4950  133.5120   59.5390 C   0  0  0  0  0  0  0  0  0  0  0  0
  128.5830  133.0860   58.1840 O   0  0  0  0  0  0  0  0  0  0  0  0
  128.7430  131.7440   57.8960 C   0  0  0  0  0  0  0  0  0  0  0  0
  127.6940  130.9130   57.4730 C   0  0  0  0  0  0  0  0  0  0  0  0
  127.9310  129.5800   57.1480 C   0  0  0  0  0  0  0  0  0  0  0  0
  129.2190  129.0490   57.2290 C   0  0  0  0  0  0  0  0  0  0  0  0
  130.2600  129.8590   57.6930 C   0  0  0  0  0  0  0  0  0  0  0  0
  130.0320  131.1980   58.0250 C   0  0  0  0  0  0  0  0  0  0  0  0
  131.1100  131.9640   58.4130 O   0  0  0  0  0  0  0  0  0  0  0  0
  132.1240  131.3170   59.1840 C   0  0  0  0  0  0  0  0  0  0  0  0
  131.7100  131.3550   60.6650 C   0  0  0  0  0  0  0  0  0  0  0  0
  131.8180  132.4090   61.2880 O   0  0  0  0  0  0  0  0  0  0  0  0
  131.2370  130.2570   61.2850 N   0  0  0  0  0  0  0  0  0  0  0  0
  130.8940  128.9590   60.7030 C   0  0  0  0  0  0  0  0  0  0  0  0
  130.2340  127.9610   61.6840 C   0  0  0  0  0  0  0  0  0  0  0  0
  131.2980  127.0010   62.2420 N   0  0  0  0  0  0  0  0  0  0  0  0
  131.3030  125.5820   61.6560 C   0  0  0  0  0  0  0  0  0  0  0  0
  132.6490  125.2570   60.9710 C   0  0  0  0  0  0  0  0  0  0  0  0
  132.5420  124.3170   59.7490 C   0  0  0  0  0  0  0  0  0  0  0  0
  132.8640  125.0100   58.4100 C   0  0  0  0  0  0  0  0  0  0  0  0
  133.8130  124.6030   57.7430 O   0  0  0  0  0  0  0  0  0  0  0  0
  132.1200  126.0390   57.9730 N   0  0  0  0  0  0  0  0  0  0  0  0
  131.0200  126.7120   58.6710 C   0  0  0  0  0  0  0  0  0  0  0  0
  129.6130  126.5550   57.9880 C   0  0  1  0  0  0  0  0  0  0  0  0
  129.4880  125.0930   57.4320 C   0  0  0  0  0  0  0  0  0  0  0  0
  128.0980  124.4140   57.4950 C   0  0  0  0  0  0  0  0  0  0  0  0
  127.8440  123.1430   56.7310 C   0  0  0  0  0  0  0  0  0  0  0  0
  127.8930  123.1320   58.2550 C   0  0  0  0  0  0  0  0  0  0  0  0
  128.4590  126.7890   59.0230 C   0  0  0  0  0  0  0  0  0  0  0  0
  128.6070  126.4940   60.2110 O   0  0  0  0  0  0  0  0  0  0  0  0
  127.2930  127.2770   58.5540 N   0  0  0  0  0  0  0  0  0  0  0  0
  126.1100  127.5650   59.3640 C   0  0  0  0  0  0  0  0  0  0  0  0
  126.3370  128.7430   60.2920 C   0  0  0  0  0  0  0  0  0  0  0  0
  126.0370  130.0890   60.0650 C   0  0  0  0  0  0  0  0  0  0  0  0
  126.4110  130.7580   61.2000 N   0  0  0  0  0  0  0  0  0  0  0  0
  126.3560  132.0800   61.5620 C   0  0  0  0  0  0  0  0  0  0  0  0
  126.8350  132.4260   62.8240 C   0  0  0  0  0  0  0  0  0  0  0  0
  127.3450  131.5150   63.6910 N   0  0  0  0  0  0  0  0  0  0  0  0
  127.3900  130.2100   63.3140 C   0  0  0  0  0  0  0  0  0  0  0  0
  126.9270  129.7760   62.0570 C   0  0  0  0  0  0  0  0  0  0  0  0
  126.8760  128.5480   61.4830 N   0  0  0  0  0  0  0  0  0  0  0  0
  129.4750  127.5990   56.8130 C   0  0  0  0  0  0  0  0  0  0  0  0
  128.6721  132.6547   60.2051 H   0  0  0  0  0  0  0  0  0  0  0  0
  129.2520  134.2870   59.7296 H   0  0  0  0  0  0  0  0  0  0  0  0
  127.4929  133.9236   59.7296 H   0  0  0  0  0  0  0  0  0  0  0  0
  126.6744  131.3189   57.3975 H   0  0  0  0  0  0  0  0  0  0  0  0
  127.0964  128.9404   56.8249 H   0  0  0  0  0  0  0  0  0  0  0  0
  131.2707  129.4377   57.7981 H   0  0  0  0  0  0  0  0  0  0  0  0
  132.2305  130.2727   58.8552 H   0  0  0  0  0  0  0  0  0  0  0  0
  133.0866  131.8319   59.0484 H   0  0  0  0  0  0  0  0  0  0  0  0
  131.0100  130.3580   62.2640 H   0  0  0  0  0  0  0  0  0  0  0  0
  130.1968  129.1313   59.8698 H   0  0  0  0  0  0  0  0  0  0  0  0
  131.8431  128.5009   60.3878 H   0  0  0  0  0  0  0  0  0  0  0  0
  129.7712  128.5158   62.5135 H   0  0  0  0  0  0  0  0  0  0  0  0
  129.4649  127.3822   61.1517 H   0  0  0  0  0  0  0  0  0  0  0  0
  132.2060  127.4070   62.0650 H   0  0  0  0  0  0  0  0  0  0  0  0
  131.1830  126.9370   63.2440 H   0  0  0  0  0  0  0  0  0  0  0  0
  131.1313  124.8596   62.4675 H   0  0  0  0  0  0  0  0  0  0  0  0
  130.5067  125.5181   60.8998 H   0  0  0  0  0  0  0  0  0  0  0  0
  133.1006  126.2028   60.6371 H   0  0  0  0  0  0  0  0  0  0  0  0
  133.2575  124.7266   61.7183 H   0  0  0  0  0  0  0  0  0  0  0  0
  133.2465  123.4837   59.8880 H   0  0  0  0  0  0  0  0  0  0  0  0
  131.4977  123.9757   59.6938 H   0  0  0  0  0  0  0  0  0  0  0  0
  132.3860  126.4560   57.0910 H   0  0  0  0  0  0  0  0  0  0  0  0
  130.9552  126.2974   59.6878 H   0  0  0  0  0  0  0  0  0  0  0  0
  131.2541  127.7867   58.6551 H   0  0  0  0  0  0  0  0  0  0  0  0
  129.7944  125.1162   56.3758 H   0  0  0  0  0  0  0  0  0  0  0  0
  130.1225  124.4883   58.0966 H   0  0  0  0  0  0  0  0  0  0  0  0
  127.6295  125.4087   57.5292 H   0  0  0  0  0  0  0  0  0  0  0  0
  126.8870  122.9954   56.2091 H   0  0  0  0  0  0  0  0  0  0  0  0
  128.3632  122.5972   55.9295 H   0  0  0  0  0  0  0  0  0  0  0  0
  126.9714  122.9764   58.8350 H   0  0  0  0  0  0  0  0  0  0  0  0
  128.4624  122.5748   59.0135 H   0  0  0  0  0  0  0  0  0  0  0  0
  127.2110  127.4640   57.5650 H   0  0  0  0  0  0  0  0  0  0  0  0
  125.2678  127.7956   58.6951 H   0  0  0  0  0  0  0  0  0  0  0  0
  125.8937  126.6802   59.9807 H   0  0  0  0  0  0  0  0  0  0  0  0
  125.5908  130.5232   59.1582 H   0  0  0  0  0  0  0  0  0  0  0  0
  125.9480  132.8404   60.8799 H   0  0  0  0  0  0  0  0  0  0  0  0
  126.7982  133.4818   63.1303 H   0  0  0  0  0  0  0  0  0  0  0  0
  127.8018  129.4682   64.0141 H   0  0  0  0  0  0  0  0  0  0  0  0
  130.4083  127.5758   56.2312 H   0  0  0  0  0  0  0  0  0  0  0  0
  128.5832  127.2916   56.2471 H   0  0  0  0  0  0  0  0  0  0  0  0
  1  2  1  0
  2  3  1  0
  3  4  2  0
  4  5  1  0
  5  6  2  0
  6  7  1  0
  7  8  2  0
  8  9  1  0
  9 10  1  0
 10 11  1  0
 11 12  2  0
 11 13  1  0
 13 14  1  0
 14 15  1  0
 15 16  1  0
 16 17  1  0
 17 18  1  0
 18 19  1  0
 19 20  1  0
 20 21  2  0
 20 22  1  0
 22 23  1  0
 23 24  1  0
 24 25  1  6
 25 26  1  0
 26 27  1  0
 27 28  1  0
 24 29  1  0
 29 30  2  0
 29 31  1  0
 31 32  1  0
 32 33  1  0
 33 34  2  0
 34 35  1  0
 35 36  1  0
 36 37  2  0
 37 38  1  0
 38 39  2  0
 39 40  1  0
 40 41  2  0
 24 42  1  0
  8  3  1  0
 28 26  1  0
 41 33  1  0
 42  6  1  0
 40 35  1  0
  1 43  1  0
  1 44  1  0
  1 45  1  0
  4 46  1  0
  5 47  1  0
  7 48  1  0
 10 49  1  0
 10 50  1  0
 13 51  1  0
 14 52  1  0
 14 53  1  0
 15 54  1  0
 15 55  1  0
 16 56  1  0
 16 57  1  0
 17 58  1  0
 17 59  1  0
 18 60  1  0
 18 61  1  0
 19 62  1  0
 19 63  1  0
 22 64  1  0
 23 65  1  0
 23 66  1  0
 25 67  1  0
 25 68  1  0
 26 69  1  0
 27 70  1  0
 27 71  1  0
 28 72  1  0
 28 73  1  0
 31 74  1  0
 32 75  1  0
 32 76  1  0
 34 77  1  0
 36 78  1  0
 37 79  1  0
 39 80  1  0
 42 81  1  0
 42 82  1  0
M  CHG  1  16   1
M  END
>  <Binding energies>  (1) 
[-5.29]

>  <Ligand effiencies>  (1) 
[-0.10795918367346939]

>  <Interactions>  (1) 
["V-A:ASP:366:CA:3210, V-B:PRO:540:CA:9855, H-A:GLU:543:OE2:4910, V-B:TYR:539:CE1:9847, H-A:ALA:541:N:4891, V-B:ASP:366:CG:8184, H-A:TYR:531:OH:4795, V-B:TYR:539:CE2:9848, V-B:LEU:475:CD2:9230, V-A:ASP:366:CG:3213, V-A:TYR:539:CD1:4873, V-B:TYR:539:CZ:9849, H-B:TYR:539:OH:9850, V-A:GLU:543:CD:4908, V-B:ASP:366:CB:8183, H-B:TYR:484:OH:9319, V-B:PRO:540:N:9856, V-B:TYR:539:CD2:9846, V-A:MET:535:CE:4835, V-A:TYR:539:C:4867, H-B:TYR:531:OH:9767, V-A:ASP:366:CB:3212, H-A:GLU:543:OE1:4909, V-B:TYR:539:CG:9844, H-A:ASP:366:O:3209, H-A:ASP:366:OD1:3214, V-B:TYR:539:CD1:9845, V-A:PRO:540:N:4884, V-A:PRO:540:CB:4885, V-A:PRO:540:CA:4883, H-A:ASP:366:OD2:3215, V-A:TYR:539:CE1:4875"]

$$$$
ZINC1857699304
     RDKit          3D

 96 98  0  0  0  0  0  0  0  0999 V2000
  133.4720  124.4290   60.9800 C   0  0  0  0  0  0  0  0  0  0  0  0
  133.4140  125.0680   62.3760 C   0  0  0  0  0  0  0  0  0  0  0  0
  132.5920  124.3170   63.2660 O   0  0  0  0  0  0  0  0  0  0  0  0
  132.5510  124.5770   64.6010 C   0  0  0  0  0  0  0  0  0  0  0  0
  133.5270  124.5150   65.3540 O   0  0  0  0  0  0  0  0  0  0  0  0
  131.1250  124.9280   65.1370 C   0  0  1  0  0  0  0  0  0  0  0  0
  131.2010  125.3300   66.6540 C   0  0  0  0  0  0  0  0  0  0  0  0
  129.8490  125.5090   67.3940 C   0  0  0  0  0  0  0  0  0  0  0  0
  129.5120  126.9710   67.7720 C   0  0  0  0  0  0  0  0  0  0  0  0
  128.7930  127.0920   69.1300 C   0  0  0  0  0  0  0  0  0  0  0  0
  128.6910  127.6520   66.6620 C   0  0  0  0  0  0  0  0  0  0  0  0
  130.4930  126.0960   64.2990 C   0  0  0  0  0  0  0  0  0  0  0  0
  130.1670  125.7450   62.9150 N   0  0  0  0  0  0  0  0  0  0  0  0
  129.4080  126.4500   62.0550 C   0  0  0  0  0  0  0  0  0  0  0  0
  129.2500  126.0580   60.9000 O   0  0  0  0  0  0  0  0  0  0  0  0
  128.7170  127.7540   62.4990 C   0  0  0  0  0  0  0  0  0  0  0  0
  127.3940  128.0040   61.7470 C   0  0  0  0  0  0  0  0  0  0  0  0
  127.4550  127.5320   60.2810 C   0  0  0  0  0  0  0  0  0  0  0  0
  128.3060  128.3790   59.4310 N   0  0  0  0  0  0  0  0  0  0  0  0
  128.9190  129.5140   59.8630 C   0  0  0  0  0  0  0  0  0  0  0  0
  128.3170  130.3770   60.5060 O   0  0  0  0  0  0  0  0  0  0  0  0
  130.4110  129.7390   59.5300 C   0  0  0  0  0  0  0  0  0  0  0  0
  130.9110  131.1890   59.7140 C   0  0  0  0  0  0  0  0  0  0  0  0
  130.4280  132.0990   58.6010 C   0  0  0  0  0  0  0  0  0  0  0  0
  129.3570  133.0050   58.6150 C   0  0  0  0  0  0  0  0  0  0  0  0
  128.3930  133.3150   59.7380 C   0  0  0  0  0  0  0  0  0  0  0  0
  129.2220  133.6370   57.4710 N   0  0  0  0  0  0  0  0  0  0  0  0
  130.2270  133.1540   56.6380 O   0  0  0  0  0  0  0  0  0  0  0  0
  130.9440  132.2320   57.3230 C   0  0  0  0  0  0  0  0  0  0  0  0
  132.0830  131.5840   56.5750 C   0  0  0  0  0  0  0  0  0  0  0  0
  128.4590  127.9150   58.0410 C   0  0  0  0  0  0  0  0  0  0  0  0
  128.4500  126.3810   57.8850 C   0  0  0  0  0  0  0  0  0  0  0  0
  129.6450  125.7400   58.4320 N   0  0  0  0  0  0  0  0  0  0  0  0
  129.7790  124.4790   58.8830 C   0  0  0  0  0  0  0  0  0  0  0  0
  130.8470  124.1080   59.3670 O   0  0  0  0  0  0  0  0  0  0  0  0
  128.6100  123.4610   58.7780 C   0  0  0  0  0  0  0  0  0  0  0  0
  128.6880  122.3610   59.7080 O   0  0  0  0  0  0  0  0  0  0  0  0
  129.0900  122.5730   61.0140 C   0  0  0  0  0  0  0  0  0  0  0  0
  128.1840  123.2080   61.8640 C   0  0  0  0  0  0  0  0  0  0  0  0
  128.5400  123.5260   63.1700 C   0  0  0  0  0  0  0  0  0  0  0  0
  129.8070  123.1980   63.6520 C   0  0  0  0  0  0  0  0  0  0  0  0
  130.6860  122.4830   62.8320 C   0  0  0  0  0  0  0  0  0  0  0  0
  130.3430  122.1620   61.5070 C   0  0  0  0  0  0  0  0  0  0  0  0
  131.1790  121.4650   60.6530 O   0  0  0  0  0  0  0  0  0  0  0  0
  132.5370  121.2490   61.0200 C   0  0  0  0  0  0  0  0  0  0  0  0
  130.2310  123.6370   65.0550 C   0  0  0  0  0  0  0  0  0  0  0  0
  133.5710  123.3380   61.0800 H   0  0  0  0  0  0  0  0  0  0  0  0
  132.5488  124.6645   60.4303 H   0  0  0  0  0  0  0  0  0  0  0  0
  134.3377  124.8269   60.4303 H   0  0  0  0  0  0  0  0  0  0  0  0
  134.4328  125.1176   62.7879 H   0  0  0  0  0  0  0  0  0  0  0  0
  132.9802  126.0738   62.2749 H   0  0  0  0  0  0  0  0  0  0  0  0
  131.7675  124.5467   67.1788 H   0  0  0  0  0  0  0  0  0  0  0  0
  131.6727  126.3237   66.6674 H   0  0  0  0  0  0  0  0  0  0  0  0
  129.0481  125.1294   66.7425 H   0  0  0  0  0  0  0  0  0  0  0  0
  129.9345  124.9536   68.3396 H   0  0  0  0  0  0  0  0  0  0  0  0
  130.4747  127.4930   67.8758 H   0  0  0  0  0  0  0  0  0  0  0  0
  129.5230  126.9691   69.9436 H   0  0  0  0  0  0  0  0  0  0  0  0
  128.3205  128.0823   69.2078 H   0  0  0  0  0  0  0  0  0  0  0  0
  128.0224  126.3109   69.2078 H   0  0  0  0  0  0  0  0  0  0  0  0
  127.9199  128.2916   67.1162 H   0  0  0  0  0  0  0  0  0  0  0  0
  129.3566  128.2668   66.0383 H   0  0  0  0  0  0  0  0  0  0  0  0
  128.2098  126.8842   66.0383 H   0  0  0  0  0  0  0  0  0  0  0  0
  129.5670  126.4155   64.7994 H   0  0  0  0  0  0  0  0  0  0  0  0
  131.2520  126.8906   64.2491 H   0  0  0  0  0  0  0  0  0  0  0  0
  130.5790  124.8880   62.5760 H   0  0  0  0  0  0  0  0  0  0  0  0
  128.5046  127.6920   63.5765 H   0  0  0  0  0  0  0  0  0  0  0  0
  129.3961  128.5883   62.2693 H   0  0  0  0  0  0  0  0  0  0  0  0
  126.5874  127.4601   62.2603 H   0  0  0  0  0  0  0  0  0  0  0  0
  127.2092  129.0884   61.7435 H   0  0  0  0  0  0  0  0  0  0  0  0
  127.8523  126.5065   60.2608 H   0  0  0  0  0  0  0  0  0  0  0  0
  126.4331  127.5891   59.8780 H   0  0  0  0  0  0  0  0  0  0  0  0
  131.0084  129.0868   60.1840 H   0  0  0  0  0  0  0  0  0  0  0  0
  130.5247  129.5087   58.4604 H   0  0  0  0  0  0  0  0  0  0  0  0
  130.5392  131.5742   60.6749 H   0  0  0  0  0  0  0  0  0  0  0  0
  132.0107  131.1760   59.6909 H   0  0  0  0  0  0  0  0  0  0  0  0
  128.8925  133.1544   60.7048 H   0  0  0  0  0  0  0  0  0  0  0  0
  128.0676  134.3631   59.6631 H   0  0  0  0  0  0  0  0  0  0  0  0
  127.5177  132.6530   59.6631 H   0  0  0  0  0  0  0  0  0  0  0  0
  132.8066  131.1723   57.2939 H   0  0  0  0  0  0  0  0  0  0  0  0
  131.6922  130.7730   55.9429 H   0  0  0  0  0  0  0  0  0  0  0  0
  132.5805  132.3343   55.9429 H   0  0  0  0  0  0  0  0  0  0  0  0
  127.6310  128.3276   57.4459 H   0  0  0  0  0  0  0  0  0  0  0  0
  129.4441  128.2631   57.6969 H   0  0  0  0  0  0  0  0  0  0  0  0
  127.5685  125.9815   58.4078 H   0  0  0  0  0  0  0  0  0  0  0  0
  128.4254  126.1619   56.8073 H   0  0  0  0  0  0  0  0  0  0  0  0
  130.4570  126.3380   58.5010 H   0  0  0  0  0  0  0  0  0  0  0  0
  127.6684  123.9994   58.9611 H   0  0  0  0  0  0  0  0  0  0  0  0
  128.6668  123.0230   57.7706 H   0  0  0  0  0  0  0  0  0  0  0  0
  127.1779  123.4596   61.4973 H   0  0  0  0  0  0  0  0  0  0  0  0
  127.8199  124.0380   63.8252 H   0  0  0  0  0  0  0  0  0  0  0  0
  131.6614  122.1668   63.2303 H   0  0  0  0  0  0  0  0  0  0  0  0
  132.6228  121.2354   62.1166 H   0  0  0  0  0  0  0  0  0  0  0  0
  132.8778  120.2854   60.6135 H   0  0  0  0  0  0  0  0  0  0  0  0
  133.1600  122.0593   60.6135 H   0  0  0  0  0  0  0  0  0  0  0  0
  129.3176  123.8235   65.6389 H   0  0  0  0  0  0  0  0  0  0  0  0
  130.8569  122.8199   65.4430 H   0  0  0  0  0  0  0  0  0  0  0  0
  1  2  1  0
  2  3  1  0
  3  4  1  0
  4  5  2  0
  4  6  1  0
  6  7  1  1
  7  8  1  0
  8  9  1  0
  9 10  1  0
  9 11  1  0
  6 12  1  0
 12 13  1  0
 13 14  1  0
 14 15  2  0
 14 16  1  0
 16 17  1  0
 17 18  1  0
 18 19  1  0
 19 20  1  0
 20 21  2  0
 20 22  1  0
 22 23  1  0
 23 24  1  0
 24 25  1  0
 25 26  1  0
 25 27  2  0
 27 28  1  0
 28 29  1  0
 29 30  1  0
 19 31  1  0
 31 32  1  0
 32 33  1  0
 33 34  1  0
 34 35  2  0
 34 36  1  0
 36 37  1  0
 37 38  1  0
 38 39  2  0
 39 40  1  0
 40 41  2  0
 41 42  1  0
 42 43  2  0
 43 44  1  0
 44 45  1  0
 41 46  1  0
 46  6  1  0
 29 24  2  0
 43 38  1  0
  1 47  1  0
  1 48  1  0
  1 49  1  0
  2 50  1  0
  2 51  1  0
  7 52  1  0
  7 53  1  0
  8 54  1  0
  8 55  1  0
  9 56  1  0
 10 57  1  0
 10 58  1  0
 10 59  1  0
 11 60  1  0
 11 61  1  0
 11 62  1  0
 12 63  1  0
 12 64  1  0
 13 65  1  0
 16 66  1  0
 16 67  1  0
 17 68  1  0
 17 69  1  0
 18 70  1  0
 18 71  1  0
 22 72  1  0
 22 73  1  0
 23 74  1  0
 23 75  1  0
 26 76  1  0
 26 77  1  0
 26 78  1  0
 30 79  1  0
 30 80  1  0
 30 81  1  0
 31 82  1  0
 31 83  1  0
 32 84  1  0
 32 85  1  0
 33 86  1  0
 36 87  1  0
 36 88  1  0
 39 89  1  0
 40 90  1  0
 42 91  1  0
 45 92  1  0
 45 93  1  0
 45 94  1  0
 46 95  1  0
 46 96  1  0
M  END
>  <Binding energies>  (1) 
[-5.5]

>  <Ligand effiencies>  (1) 
[-0.11]

>  <Interactions>  (1) 
["V-B:GLU:543:CB:9878, V-B:TYR:539:CE2:9848, V-A:TYR:484:CE2:4346, V-B:GLU:543:CG:9879, V-A:ASP:366:CG:3213, V-A:TYR:539:CD1:4873, V-A:LEU:363:CD1:3189, V-B:TYR:539:CZ:9849, V-A:TYR:531:CE2:4793, H-B:TYR:539:OH:9850, V-A:GLU:543:CD:4908, V-A:TYR:484:CZ:4347, V-B:HIS:456:CE1:9041, V-B:GLU:543:CA:9876, H-A:GLY:454:N:4050, V-A:HIS:456:CE1:4070, V-B:TYR:539:CD2:9846, V-B:GLU:543:CD:9880, V-A:TYR:539:C:4867, V-A:LEU:475:CD2:4259, V-A:ARG:545:CZ:4926, V-A:GLU:543:CB:4906, V-A:PRO:540:N:4884, H-A:TYR:539:N:4870, V-A:PRO:540:CB:4885, V-A:PRO:540:CA:4883, H-A:ARG:545:NE:4924, V-A:TYR:539:CE1:4875, H-A:TYR:484:OH:4348"]

$$$$
ZINC1857702141
     RDKit          3D

 92 95  0  0  0  0  0  0  0  0999 V2000
  129.3360  128.0160   67.9600 C   0  0  0  0  0  0  0  0  0  0  0  0
  130.4950  127.1810   68.5250 C   0  0  0  0  0  0  0  0  0  0  0  0
  131.0310  126.2940   67.5470 O   0  0  0  0  0  0  0  0  0  0  0  0
  130.2490  125.7270   66.5910 C   0  0  0  0  0  0  0  0  0  0  0  0
  129.0210  125.6270   66.6620 O   0  0  0  0  0  0  0  0  0  0  0  0
  131.0480  125.2140   65.3480 C   0  0  2  0  0  0  0  0  0  0  0  0
  132.5820  125.4160   65.6210 C   0  0  0  0  0  0  0  0  0  0  0  0
  133.5770  124.4460   64.9300 C   0  0  0  0  0  0  0  0  0  0  0  0
  134.3050  125.0730   63.8790 O   0  0  0  0  0  0  0  0  0  0  0  0
  133.9610  124.6480   62.5660 C   0  0  0  0  0  0  0  0  0  0  0  0
  130.6810  126.0970   64.1020 C   0  0  0  0  0  0  0  0  0  0  0  0
  129.4640  126.8970   64.2610 N   0  0  0  0  0  0  0  0  0  0  0  0
  128.6520  127.3430   63.2870 C   0  0  0  0  0  0  0  0  0  0  0  0
  127.7400  128.1240   63.5520 O   0  0  0  0  0  0  0  0  0  0  0  0
  128.8280  126.8670   61.8320 C   0  0  0  0  0  0  0  0  0  0  0  0
  127.6930  125.9510   61.3300 C   0  0  0  0  0  0  0  0  0  0  0  0
  126.7360  126.6360   60.3280 C   0  0  0  0  0  0  0  0  0  0  0  0
  127.2780  127.8790   59.7530 N   0  0  0  0  0  0  0  0  0  0  0  0
  127.3740  129.0210   60.4910 C   0  0  0  0  0  0  0  0  0  0  0  0
  126.5030  129.3470   61.3020 O   0  0  0  0  0  0  0  0  0  0  0  0
  128.6100  129.9420   60.3480 C   0  0  0  0  0  0  0  0  0  0  0  0
  128.8520  130.8850   61.5530 C   0  0  0  0  0  0  0  0  0  0  0  0
  130.3020  131.3100   61.6640 C   0  0  0  0  0  0  0  0  0  0  0  0
  130.9600  131.8100   62.7740 C   0  0  0  0  0  0  0  0  0  0  0  0
  132.2780  132.0490   62.4800 N   0  0  0  0  0  0  0  0  0  0  0  0
  132.5310  131.7170   61.1680 C   0  0  0  0  0  0  0  0  0  0  0  0
  133.7100  131.7750   60.4160 C   0  0  0  0  0  0  0  0  0  0  0  0
  133.6360  131.3550   59.0880 C   0  0  0  0  0  0  0  0  0  0  0  0
  132.4440  130.9060   58.5250 C   0  0  0  0  0  0  0  0  0  0  0  0
  131.2700  130.8560   59.2730 C   0  0  0  0  0  0  0  0  0  0  0  0
  131.2950  131.2550   60.6210 C   0  0  0  0  0  0  0  0  0  0  0  0
  127.6260  127.7820   58.3280 C   0  0  0  0  0  0  0  0  0  0  0  0
  126.8810  126.6460   57.5960 C   0  0  0  0  0  0  0  0  0  0  0  0
  127.7600  125.3990   57.3800 C   0  0  0  0  0  0  0  0  0  0  0  0
  128.8690  125.2510   58.3250 N   0  0  0  0  0  0  0  0  0  0  0  0
  129.2640  124.1690   59.0280 C   0  0  0  0  0  0  0  0  0  0  0  0
  130.2770  124.2350   59.7190 O   0  0  0  0  0  0  0  0  0  0  0  0
  128.5170  122.8220   58.9660 C   0  0  0  0  0  0  0  0  0  0  0  0
  127.9730  122.4800   60.2400 O   0  0  0  0  0  0  0  0  0  0  0  0
  128.7110  122.7540   61.3740 C   0  0  0  0  0  0  0  0  0  0  0  0
  130.0820  122.4920   61.4970 C   0  0  0  0  0  0  0  0  0  0  0  0
  130.7490  122.7950   62.6820 C   0  0  0  0  0  0  0  0  0  0  0  0
  130.0510  123.3500   63.7580 C   0  0  0  0  0  0  0  0  0  0  0  0
  128.6870  123.6260   63.6270 C   0  0  0  0  0  0  0  0  0  0  0  0
  128.0250  123.3340   62.4400 C   0  0  0  0  0  0  0  0  0  0  0  0
  130.7730  123.6890   65.0650 C   0  0  0  0  0  0  0  0  0  0  0  0
  128.7499  128.4383   68.7895 H   0  0  0  0  0  0  0  0  0  0  0  0
  129.7391  128.8325   67.3429 H   0  0  0  0  0  0  0  0  0  0  0  0
  128.6891  127.3751   67.3429 H   0  0  0  0  0  0  0  0  0  0  0  0
  131.2909  127.8599   68.8649 H   0  0  0  0  0  0  0  0  0  0  0  0
  130.1082  126.5780   69.3597 H   0  0  0  0  0  0  0  0  0  0  0  0
  132.8406  126.4352   65.2981 H   0  0  0  0  0  0  0  0  0  0  0  0
  132.6998  125.2123   66.6955 H   0  0  0  0  0  0  0  0  0  0  0  0
  134.2898  124.0764   65.6819 H   0  0  0  0  0  0  0  0  0  0  0  0
  132.9932  123.6242   64.4898 H   0  0  0  0  0  0  0  0  0  0  0  0
  133.2700  123.7943   62.6262 H   0  0  0  0  0  0  0  0  0  0  0  0
  133.4754  125.4756   62.0282 H   0  0  0  0  0  0  0  0  0  0  0  0
  134.8716  124.3455   62.0282 H   0  0  0  0  0  0  0  0  0  0  0  0
  131.5194  126.7820   63.9076 H   0  0  0  0  0  0  0  0  0  0  0  0
  130.4917  125.4017   63.2709 H   0  0  0  0  0  0  0  0  0  0  0  0
  129.2810  127.2210   65.1990 H   0  0  0  0  0  0  0  0  0  0  0  0
  128.8712  127.7527   61.1811 H   0  0  0  0  0  0  0  0  0  0  0  0
  129.7534  126.2732   61.8011 H   0  0  0  0  0  0  0  0  0  0  0  0
  128.1446  125.0777   60.8367 H   0  0  0  0  0  0  0  0  0  0  0  0
  127.0922  125.6740   62.2088 H   0  0  0  0  0  0  0  0  0  0  0  0
  126.5305  125.9334   59.5070 H   0  0  0  0  0  0  0  0  0  0  0  0
  125.8260  126.9067   60.8835 H   0  0  0  0  0  0  0  0  0  0  0  0
  129.4994  129.3066   60.2251 H   0  0  0  0  0  0  0  0  0  0  0  0
  128.4193  130.5884   59.4786 H   0  0  0  0  0  0  0  0  0  0  0  0
  128.2279  131.7826   61.4315 H   0  0  0  0  0  0  0  0  0  0  0  0
  128.5894  130.3364   62.4696 H   0  0  0  0  0  0  0  0  0  0  0  0
  130.4922  131.9902   63.7532 H   0  0  0  0  0  0  0  0  0  0  0  0
  132.9290  132.4120   63.1620 H   0  0  0  0  0  0  0  0  0  0  0  0
  134.6529  132.1357   60.8528 H   0  0  0  0  0  0  0  0  0  0  0  0
  134.5444  131.3791   58.4682 H   0  0  0  0  0  0  0  0  0  0  0  0
  132.4293  130.5857   57.4728 H   0  0  0  0  0  0  0  0  0  0  0  0
  130.3330  130.5079   58.8138 H   0  0  0  0  0  0  0  0  0  0  0  0
  127.3743  128.7357   57.8410 H   0  0  0  0  0  0  0  0  0  0  0  0
  128.7015  127.5588   58.2687 H   0  0  0  0  0  0  0  0  0  0  0  0
  126.0036  126.3585   58.1939 H   0  0  0  0  0  0  0  0  0  0  0  0
  126.5922  127.0240   56.6042 H   0  0  0  0  0  0  0  0  0  0  0  0
  127.1178  124.5101   57.4659 H   0  0  0  0  0  0  0  0  0  0  0  0
  128.2170  125.5140   56.3860 H   0  0  0  0  0  0  0  0  0  0  0  0
  129.4340  126.0810   58.4350 H   0  0  0  0  0  0  0  0  0  0  0  0
  127.6992  122.8975   58.2342 H   0  0  0  0  0  0  0  0  0  0  0  0
  129.2300  122.0392   58.6677 H   0  0  0  0  0  0  0  0  0  0  0  0
  130.6330  122.0460   60.6559 H   0  0  0  0  0  0  0  0  0  0  0  0
  131.8274  122.5970   62.7709 H   0  0  0  0  0  0  0  0  0  0  0  0
  128.1356  124.0757   64.4659 H   0  0  0  0  0  0  0  0  0  0  0  0
  126.9534  123.5620   62.3413 H   0  0  0  0  0  0  0  0  0  0  0  0
  130.1617  123.3015   65.8933 H   0  0  0  0  0  0  0  0  0  0  0  0
  131.7678  123.2288   64.9727 H   0  0  0  0  0  0  0  0  0  0  0  0
  1  2  1  0
  2  3  1  0
  3  4  1  0
  4  5  2  0
  4  6  1  0
  6  7  1  1
  7  8  1  0
  8  9  1  0
  9 10  1  0
  6 11  1  0
 11 12  1  0
 12 13  1  0
 13 14  2  0
 13 15  1  0
 15 16  1  0
 16 17  1  0
 17 18  1  0
 18 19  1  0
 19 20  2  0
 19 21  1  0
 21 22  1  0
 22 23  1  0
 23 24  2  0
 24 25  1  0
 25 26  1  0
 26 27  2  0
 27 28  1  0
 28 29  2  0
 29 30  1  0
 30 31  2  0
 18 32  1  0
 32 33  1  0
 33 34  1  0
 34 35  1  0
 35 36  1  0
 36 37  2  0
 36 38  1  0
 38 39  1  0
 39 40  1  0
 40 41  2  0
 41 42  1  0
 42 43  2  0
 43 44  1  0
 44 45  2  0
 43 46  1  0
 46  6  1  0
 31 23  1  0
 45 40  1  0
 31 26  1  0
  1 47  1  0
  1 48  1  0
  1 49  1  0
  2 50  1  0
  2 51  1  0
  7 52  1  0
  7 53  1  0
  8 54  1  0
  8 55  1  0
 10 56  1  0
 10 57  1  0
 10 58  1  0
 11 59  1  0
 11 60  1  0
 12 61  1  0
 15 62  1  0
 15 63  1  0
 16 64  1  0
 16 65  1  0
 17 66  1  0
 17 67  1  0
 21 68  1  0
 21 69  1  0
 22 70  1  0
 22 71  1  0
 24 72  1  0
 25 73  1  0
 27 74  1  0
 28 75  1  0
 29 76  1  0
 30 77  1  0
 32 78  1  0
 32 79  1  0
 33 80  1  0
 33 81  1  0
 34 82  1  0
 34 83  1  0
 35 84  1  0
 38 85  1  0
 38 86  1  0
 41 87  1  0
 42 88  1  0
 44 89  1  0
 45 90  1  0
 46 91  1  0
 46 92  1  0
M  END
>  <Binding energies>  (1) 
[-2.77]

>  <Ligand effiencies>  (1) 
[-0.05431372549019608]

>  <Interactions>  (1) 
["V-B:PRO:540:CA:9855, V-A:ALA:541:C:4888, V-A:GLY:454:CA:4049, H-A:GLU:543:OE2:4910, V-A:PRO:540:C:4881, H-A:ALA:541:O:4889, H-A:ARG:545:NH1:4927, V-A:TYR:484:CE2:4346, V-B:TYR:539:CE2:9848, V-B:GLU:543:CG:9879, V-B:TYR:539:C:9839, V-A:ASP:366:CG:3213, V-A:ASN:362:CB:3176, V-A:LEU:363:CD1:3189, V-A:LEU:363:CB:3187, V-B:TYR:539:CZ:9849, V-A:ALA:541:CB:4892, H-B:ALA:541:N:9863, V-A:GLU:543:CD:4908, V-A:TYR:484:CZ:4347, H-A:GLY:454:N:4050, V-A:GLY:453:C:4042, V-B:PRO:540:N:9856, V-A:HIS:456:CE1:4070, V-A:ALA:541:CA:4890, V-B:TYR:539:CD2:9846, V-A:GLU:543:CG:4907, V-B:GLU:543:CD:9880, V-A:ASP:366:CB:3212, V-A:ARG:545:CD:4923, V-A:LEU:475:CD2:4259, H-A:ARG:545:NH2:4928, V-A:ARG:545:CZ:4926, H-A:GLU:543:OE1:4909, V-A:ASN:362:C:3172, V-A:GLU:543:CB:4906, H-B:GLU:543:OE2:9882, V-A:PRO:540:CB:4885, V-A:PRO:540:CA:4883, V-A:LEU:363:CA:3185, H-A:ARG:545:NE:4924"]

$$$$
ZINC1857702866
     RDKit          3D

 93 98  0  0  0  0  0  0  0  0999 V2000
  125.7260  124.9160   59.3620 C   0  0  0  0  0  0  0  0  0  0  0  0
  126.3340  125.0610   60.7700 C   0  0  0  0  0  0  0  0  0  0  0  0
  126.5060  126.5510   61.1380 C   0  0  0  0  0  0  0  0  0  0  0  0
  127.6070  124.1730   60.9290 C   0  0  1  0  0  0  0  0  0  0  0  0
  127.8240  123.4510   59.6730 N   0  0  0  0  0  0  0  0  0  0  0  0
  128.0150  123.8290   58.3920 C   0  0  0  0  0  0  0  0  0  0  0  0
  128.2140  122.9530   57.5520 O   0  0  0  0  0  0  0  0  0  0  0  0
  127.9940  125.2950   57.8650 C   0  0  1  0  0  0  0  0  0  0  0  0
  127.7910  126.3720   58.8380 N   0  0  0  0  0  0  0  0  0  0  0  0
  127.7650  127.6870   58.5450 C   0  0  0  0  0  0  0  0  0  0  0  0
  127.7350  128.1250   57.3940 O   0  0  0  0  0  0  0  0  0  0  0  0
  127.8130  128.6280   59.7240 C   0  0  0  0  0  0  0  0  0  0  0  0
  128.9340  128.6690   60.5660 C   0  0  0  0  0  0  0  0  0  0  0  0
  128.9800  129.5570   61.6350 C   0  0  0  0  0  0  0  0  0  0  0  0
  127.9040  130.4140   61.8790 C   0  0  0  0  0  0  0  0  0  0  0  0
  127.9400  131.2930   62.9830 N   0  0  0  0  0  0  0  0  0  0  0  0
  127.5200  132.6020   63.0440 C   0  0  0  0  0  0  0  0  0  0  0  0
  127.7790  133.0290   64.3370 C   0  0  0  0  0  0  0  0  0  0  0  0
  128.3290  132.0760   65.0650 N   0  0  0  0  0  0  0  0  0  0  0  0
  128.4220  131.0520   64.2520 C   0  0  0  0  0  0  0  0  0  0  0  0
  126.7910  130.3940   61.0320 C   0  0  0  0  0  0  0  0  0  0  0  0
  126.7510  129.5110   59.9560 C   0  0  0  0  0  0  0  0  0  0  0  0
  129.2120  125.5970   56.9310 C   0  0  0  0  0  0  0  0  0  0  0  0
  130.5550  125.3510   57.6230 C   0  0  0  0  0  0  0  0  0  0  0  0
  131.7250  125.8740   57.0680 C   0  0  0  0  0  0  0  0  0  0  0  0
  132.9320  125.7590   57.7500 C   0  0  0  0  0  0  0  0  0  0  0  0
  132.9730  125.1130   58.9890 C   0  0  0  0  0  0  0  0  0  0  0  0
  131.8170  124.5340   59.5130 C   0  0  0  0  0  0  0  0  0  0  0  0
  130.6070  124.6570   58.8340 C   0  0  0  0  0  0  0  0  0  0  0  0
  134.1420  125.0490   59.7150 O   0  0  0  0  0  0  0  0  0  0  0  0
  134.2340  123.9740   60.6550 C   0  0  0  0  0  0  0  0  0  0  0  0
  133.2720  124.1540   61.8430 C   0  0  0  0  0  0  0  0  0  0  0  0
  133.9340  124.6800   63.0390 N   0  0  0  0  0  0  0  0  0  0  0  0
  133.4780  124.6060   64.3030 C   0  0  0  0  0  0  0  0  0  0  0  0
  134.1030  125.1310   65.2240 O   0  0  0  0  0  0  0  0  0  0  0  0
  132.1440  123.8840   64.5720 C   0  0  0  0  0  0  0  0  0  0  0  0
  131.1000  124.6740   65.2280 N   0  0  0  0  0  0  0  0  0  0  0  0
  131.3620  125.3000   66.3790 N   0  0  0  0  0  0  0  0  0  0  0  0
  130.1950  125.8360   66.6880 C   0  0  0  0  0  0  0  0  0  0  0  0
  129.9910  126.6530   67.9360 C   0  0  0  0  0  0  0  0  0  0  0  0
  131.0710  127.3150   68.5390 C   0  0  0  0  0  0  0  0  0  0  0  0
  130.8830  128.0740   69.6910 C   0  0  0  0  0  0  0  0  0  0  0  0
  129.6110  128.1790   70.2490 C   0  0  0  0  0  0  0  0  0  0  0  0
  128.5290  127.5280   69.6650 C   0  0  0  0  0  0  0  0  0  0  0  0
  128.7180  126.7690   68.5130 C   0  0  0  0  0  0  0  0  0  0  0  0
  129.2140  125.5980   65.8250 N   0  0  0  0  0  0  0  0  0  0  0  0
  129.7800  124.8590   64.9010 C   0  0  0  0  0  0  0  0  0  0  0  0
  129.0750  124.3190   63.6600 C   0  0  2  0  0  0  0  0  0  0  0  0
  129.4580  122.8450   63.4400 C   0  0  0  0  0  0  0  0  0  0  0  0
  129.4000  125.0900   62.4570 N   0  0  0  0  0  0  0  0  0  0  0  0
  128.8140  125.0960   61.2430 C   0  0  0  0  0  0  0  0  0  0  0  0
  129.2220  125.8500   60.3600 O   0  0  0  0  0  0  0  0  0  0  0  0
  124.6593  124.6616   59.4477 H   0  0  0  0  0  0  0  0  0  0  0  0
  125.8339  125.8651   58.8165 H   0  0  0  0  0  0  0  0  0  0  0  0
  126.2507  124.1178   58.8165 H   0  0  0  0  0  0  0  0  0  0  0  0
  125.6357  124.6657   61.5224 H   0  0  0  0  0  0  0  0  0  0  0  0
  126.5185  126.6593   62.2326 H   0  0  0  0  0  0  0  0  0  0  0  0
  127.4532  126.9245   60.7218 H   0  0  0  0  0  0  0  0  0  0  0  0
  125.6688  127.1305   60.7218 H   0  0  0  0  0  0  0  0  0  0  0  0
  127.4879  123.4475   61.7472 H   0  0  0  0  0  0  0  0  0  0  0  0
  127.8430  122.4530   59.8200 H   0  0  0  0  0  0  0  0  0  0  0  0
  127.0592  125.3136   57.2856 H   0  0  0  0  0  0  0  0  0  0  0  0
  127.7650  126.0850   59.8050 H   0  0  0  0  0  0  0  0  0  0  0  0
  129.7824  127.9942   60.3794 H   0  0  0  0  0  0  0  0  0  0  0  0
  129.8641  129.5847   62.2889 H   0  0  0  0  0  0  0  0  0  0  0  0
  127.0698  133.1905   62.2310 H   0  0  0  0  0  0  0  0  0  0  0  0
  127.5536  134.0388   64.7104 H   0  0  0  0  0  0  0  0  0  0  0  0
  128.8477  130.0843   64.5559 H   0  0  0  0  0  0  0  0  0  0  0  0
  125.9475  131.0757   61.2159 H   0  0  0  0  0  0  0  0  0  0  0  0
  125.8800  129.5070   59.2842 H   0  0  0  0  0  0  0  0  0  0  0  0
  129.1471  124.9479   56.0453 H   0  0  0  0  0  0  0  0  0  0  0  0
  129.1671  126.6611   56.6559 H   0  0  0  0  0  0  0  0  0  0  0  0
  131.6921  126.3774   56.0905 H   0  0  0  0  0  0  0  0  0  0  0  0
  133.8525  126.1756   57.3151 H   0  0  0  0  0  0  0  0  0  0  0  0
  131.8610  123.9803   60.4625 H   0  0  0  0  0  0  0  0  0  0  0  0
  129.6935  124.2081   59.2510 H   0  0  0  0  0  0  0  0  0  0  0  0
  133.9895  123.0326   60.1411 H   0  0  0  0  0  0  0  0  0  0  0  0
  135.2600  123.9600   61.0514 H   0  0  0  0  0  0  0  0  0  0  0  0
  132.4757  124.8527   61.5468 H   0  0  0  0  0  0  0  0  0  0  0  0
  132.8725  123.1611   62.0971 H   0  0  0  0  0  0  0  0  0  0  0  0
  134.8200  125.1400   62.8850 H   0  0  0  0  0  0  0  0  0  0  0  0
  131.7473  123.5414   63.6049 H   0  0  0  0  0  0  0  0  0  0  0  0
  132.3854  123.0742   65.2762 H   0  0  0  0  0  0  0  0  0  0  0  0
  132.0753  127.2337   68.0977 H   0  0  0  0  0  0  0  0  0  0  0  0
  131.7354  128.5886   70.1586 H   0  0  0  0  0  0  0  0  0  0  0  0
  129.4610  128.7807   71.1575 H   0  0  0  0  0  0  0  0  0  0  0  0
  127.5274  127.6126   70.1119 H   0  0  0  0  0  0  0  0  0  0  0  0
  127.8614  126.2559   68.0515 H   0  0  0  0  0  0  0  0  0  0  0  0
  127.9928  124.4094   63.8349 H   0  0  0  0  0  0  0  0  0  0  0  0
  129.5866  122.3503   64.4140 H   0  0  0  0  0  0  0  0  0  0  0  0
  128.6613  122.3396   62.8744 H   0  0  0  0  0  0  0  0  0  0  0  0
  130.3999  122.7914   62.8744 H   0  0  0  0  0  0  0  0  0  0  0  0
  130.0980  125.8040   62.6060 H   0  0  0  0  0  0  0  0  0  0  0  0
  1  2  1  0
  2  3  1  0
  2  4  1  0
  4  5  1  0
  5  6  1  0
  6  7  2  0
  6  8  1  0
  8  9  1  0
  9 10  1  0
 10 11  2  0
 10 12  1  0
 12 13  2  0
 13 14  1  0
 14 15  2  0
 15 16  1  0
 16 17  1  0
 17 18  2  0
 18 19  1  0
 19 20  2  0
 15 21  1  0
 21 22  2  0
  8 23  1  0
 23 24  1  0
 24 25  2  0
 25 26  1  0
 26 27  2  0
 27 28  1  0
 28 29  2  0
 27 30  1  0
 30 31  1  0
 31 32  1  0
 32 33  1  0
 33 34  1  0
 34 35  2  0
 34 36  1  0
 36 37  1  0
 37 38  1  0
 38 39  2  0
 39 40  1  0
 40 41  2  0
 41 42  1  0
 42 43  2  0
 43 44  1  0
 44 45  2  0
 39 46  1  0
 46 47  2  0
 47 48  1  0
 48 49  1  0
 48 50  1  0
 50 51  1  0
 51 52  2  0
 51  4  1  0
 22 12  1  0
 29 24  1  0
 47 37  1  0
 20 16  1  0
 45 40  1  0
  1 53  1  0
  1 54  1  0
  1 55  1  0
  2 56  1  0
  3 57  1  0
  3 58  1  0
  3 59  1  0
  4 60  1  1
  5 61  1  0
  8 62  1  6
  9 63  1  0
 13 64  1  0
 14 65  1  0
 17 66  1  0
 18 67  1  0
 20 68  1  0
 21 69  1  0
 22 70  1  0
 23 71  1  0
 23 72  1  0
 25 73  1  0
 26 74  1  0
 28 75  1  0
 29 76  1  0
 31 77  1  0
 31 78  1  0
 32 79  1  0
 32 80  1  0
 33 81  1  0
 36 82  1  0
 36 83  1  0
 41 84  1  0
 42 85  1  0
 43 86  1  0
 44 87  1  0
 45 88  1  0
 48 89  1  1
 49 90  1  0
 49 91  1  0
 49 92  1  0
 50 93  1  0
M  END
>  <Binding energies>  (1) 
[-5.49]

>  <Ligand effiencies>  (1) 
[-0.0946551724137931]

>  <Interactions>  (1) 
["V-A:ILE:369:CG2:3237, V-A:ASP:366:CA:3210, V-B:PRO:540:CA:9855, V-A:GLU:543:CA:4904, V-A:GLY:454:CA:4049, V-B:GLU:543:C:9874, V-A:ILE:369:CB:3236, V-A:GLU:543:C:4902, V-B:GLU:543:CB:9878, V-B:ASP:366:CG:8184, V-B:ALA:541:CB:9864, H-A:ARG:545:NH1:4927, V-B:TYR:539:CE2:9848, V-B:LEU:475:CD2:9230, V-B:GLU:543:CG:9879, V-A:GLY:544:C:4912, V-A:ASP:366:CG:3213, V-B:TYR:484:CE2:9317, V-B:TYR:539:CZ:9849, V-A:ALA:541:CB:4892, V-A:GLU:543:CD:4908, V-A:TYR:484:CZ:4347, H-B:TYR:484:OH:9319, V-A:ARG:545:CG:4922, H-A:GLY:454:N:4050, V-B:HIS:456:CE1:9041, V-B:TYR:484:CZ:9318, V-A:ILE:369:CD1:3239, V-A:HIS:456:CE1:4070, V-A:ASP:366:C:3208, V-A:GLU:543:CG:4907, V-A:TYR:531:CZ:4794, V-B:GLU:543:CD:9880, H-B:TYR:531:OH:9767, V-A:ASP:366:CB:3212, H-A:ARG:545:NH2:4928, V-A:ARG:545:CZ:4926, V-A:GLU:543:CB:4906, H-A:ASP:366:OD1:3214, V-A:GLY:453:CA:4044, H-B:TYR:539:O:9840, H-A:ARG:545:NE:4924, H-A:TYR:484:OH:4348"]

$$$$
ZINC1857705673
     RDKit          3D

 90 94  0  0  0  0  0  0  0  0999 V2000
  132.0870  126.7560   73.6170 C   0  0  0  0  0  0  0  0  0  0  0  0
  131.1720  127.8200   73.3820 O   0  0  0  0  0  0  0  0  0  0  0  0
  130.0220  127.5760   72.6550 C   0  0  0  0  0  0  0  0  0  0  0  0
  128.7430  127.4520   73.2160 C   0  0  0  0  0  0  0  0  0  0  0  0
  127.6070  127.2190   72.4420 C   0  0  0  0  0  0  0  0  0  0  0  0
  127.7890  127.1220   71.0610 C   0  0  0  0  0  0  0  0  0  0  0  0
  126.8860  126.9170   70.0410 N   0  0  0  0  0  0  0  0  0  0  0  0
  127.5400  126.9130   68.8370 C   0  0  0  0  0  0  0  0  0  0  0  0
  128.8960  127.1100   69.0250 C   0  0  0  0  0  0  0  0  0  0  0  0
  129.9770  127.2020   67.9640 C   0  0  0  0  0  0  0  0  0  0  0  0
  130.3280  125.8500   67.3060 C   0  0  0  0  0  0  0  0  0  0  0  0
  130.2710  125.8640   65.8400 N   0  0  0  0  0  0  0  0  0  0  0  0
  129.9570  124.8150   65.0510 C   0  0  0  0  0  0  0  0  0  0  0  0
  129.7120  123.7010   65.5210 O   0  0  0  0  0  0  0  0  0  0  0  0
  129.9820  125.0260   63.4940 C   0  0  2  0  0  0  0  0  0  0  0  0
  129.9270  123.6390   62.7600 C   0  0  0  0  0  0  0  0  0  0  0  0
  128.7330  123.3860   61.8090 C   0  0  0  0  0  0  0  0  0  0  0  0
  128.9790  122.8890   60.4080 C   0  0  0  0  0  0  0  0  0  0  0  0
  128.3620  121.9690   61.4440 C   0  0  0  0  0  0  0  0  0  0  0  0
  131.3120  125.7650   63.0890 C   0  0  0  0  0  0  0  0  0  0  0  0
  132.4390  125.6910   64.0330 N   0  0  0  0  0  0  0  0  0  0  0  0
  133.6300  125.0750   63.9110 C   0  0  0  0  0  0  0  0  0  0  0  0
  134.4420  125.1230   64.8320 O   0  0  0  0  0  0  0  0  0  0  0  0
  134.0090  124.3010   62.6350 C   0  0  0  0  0  0  0  0  0  0  0  0
  133.5600  122.8190   62.6800 C   0  0  0  0  0  0  0  0  0  0  0  0
  132.7120  122.3750   61.4660 C   0  0  0  0  0  0  0  0  0  0  0  0
  133.4670  122.3350   60.2180 N   0  0  0  0  0  0  0  0  0  0  0  0
  133.8130  123.6530   59.6910 C   0  0  0  0  0  0  0  0  0  0  0  0
  132.5570  124.4510   59.3140 C   0  0  0  0  0  0  0  0  0  0  0  0
  132.8320  125.8440   58.9660 N   0  0  0  0  0  0  0  0  0  0  0  0
  132.1090  126.6330   58.1540 C   0  0  0  0  0  0  0  0  0  0  0  0
  132.4220  127.8120   57.9980 O   0  0  0  0  0  0  0  0  0  0  0  0
  130.8640  126.0850   57.4180 C   0  0  0  0  0  0  0  0  0  0  0  0
  129.7690  125.7080   58.2750 O   0  0  0  0  0  0  0  0  0  0  0  0
  129.3190  126.5060   59.3140 C   0  0  0  0  0  0  0  0  0  0  0  0
  129.1980  125.8770   60.5590 C   0  0  0  0  0  0  0  0  0  0  0  0
  128.7870  126.5840   61.6920 C   0  0  0  0  0  0  0  0  0  0  0  0
  128.4810  127.9390   61.5680 C   0  0  0  0  0  0  0  0  0  0  0  0
  128.6140  128.5850   60.3440 C   0  0  0  0  0  0  0  0  0  0  0  0
  129.0580  127.8890   59.2050 C   0  0  0  0  0  0  0  0  0  0  0  0
  129.2750  128.5100   57.9880 O   0  0  0  0  0  0  0  0  0  0  0  0
  128.2890  128.4360   56.9660 C   0  0  0  0  0  0  0  0  0  0  0  0
  128.7550  125.9200   63.0710 C   0  0  0  0  0  0  0  0  0  0  0  0
  129.0710  127.2430   70.4490 C   0  0  0  0  0  0  0  0  0  0  0  0
  130.1860  127.4590   71.2740 C   0  0  0  0  0  0  0  0  0  0  0  0
  132.2111  126.6117   74.7004 H   0  0  0  0  0  0  0  0  0  0  0  0
  131.6977  125.8313   73.1661 H   0  0  0  0  0  0  0  0  0  0  0  0
  133.0596  127.0025   73.1661 H   0  0  0  0  0  0  0  0  0  0  0  0
  128.6318  127.5418   74.3067 H   0  0  0  0  0  0  0  0  0  0  0  0
  126.6117  127.1162   72.8989 H   0  0  0  0  0  0  0  0  0  0  0  0
  125.8870  126.7950   70.1170 H   0  0  0  0  0  0  0  0  0  0  0  0
  127.0553  126.7730   67.8595 H   0  0  0  0  0  0  0  0  0  0  0  0
  129.6325  127.8901   67.1780 H   0  0  0  0  0  0  0  0  0  0  0  0
  130.8882  127.5567   68.4680 H   0  0  0  0  0  0  0  0  0  0  0  0
  131.3484  125.5729   67.6093 H   0  0  0  0  0  0  0  0  0  0  0  0
  129.5723  125.1265   67.6457 H   0  0  0  0  0  0  0  0  0  0  0  0
  130.5130  126.7390   65.3980 H   0  0  0  0  0  0  0  0  0  0  0  0
  130.8482  123.5425   62.1666 H   0  0  0  0  0  0  0  0  0  0  0  0
  129.8089  122.8983   63.5646 H   0  0  0  0  0  0  0  0  0  0  0  0
  128.1978  124.2442   62.2415 H   0  0  0  0  0  0  0  0  0  0  0  0
  128.3685  123.2673   59.5748 H   0  0  0  0  0  0  0  0  0  0  0  0
  129.8536  122.8368   59.7430 H   0  0  0  0  0  0  0  0  0  0  0  0
  127.3037  121.6801   61.3635 H   0  0  0  0  0  0  0  0  0  0  0  0
  128.6024  120.9728   61.8436 H   0  0  0  0  0  0  0  0  0  0  0  0
  131.6513  125.3356   62.1348 H   0  0  0  0  0  0  0  0  0  0  0  0
  131.0433  126.8310   63.0526 H   0  0  0  0  0  0  0  0  0  0  0  0
  132.2840  126.1780   64.9040 H   0  0  0  0  0  0  0  0  0  0  0  0
  133.5302  124.7879   61.7726 H   0  0  0  0  0  0  0  0  0  0  0  0
  135.1058  124.3138   62.5517 H   0  0  0  0  0  0  0  0  0  0  0  0
  134.4596  122.1874   62.7215 H   0  0  0  0  0  0  0  0  0  0  0  0
  132.9204  122.7100   63.5683 H   0  0  0  0  0  0  0  0  0  0  0  0
  132.3154  121.3688   61.6665 H   0  0  0  0  0  0  0  0  0  0  0  0
  131.9113  123.1184   61.3386 H   0  0  0  0  0  0  0  0  0  0  0  0
  132.9620  121.8040   59.5220 H   0  0  0  0  0  0  0  0  0  0  0  0
  134.3742  124.2089   60.4566 H   0  0  0  0  0  0  0  0  0  0  0  0
  134.4216  123.5155   58.7851 H   0  0  0  0  0  0  0  0  0  0  0  0
  132.0817  123.9639   58.4498 H   0  0  0  0  0  0  0  0  0  0  0  0
  131.9038  124.4622   60.1990 H   0  0  0  0  0  0  0  0  0  0  0  0
  133.6420  126.2490   59.4140 H   0  0  0  0  0  0  0  0  0  0  0  0
  130.5054  126.8628   56.7277 H   0  0  0  0  0  0  0  0  0  0  0  0
  131.1872  125.1654   56.9083 H   0  0  0  0  0  0  0  0  0  0  0  0
  129.4310  124.8056   60.6469 H   0  0  0  0  0  0  0  0  0  0  0  0
  128.1314  128.5016   62.4462 H   0  0  0  0  0  0  0  0  0  0  0  0
  128.3688  129.6544   60.2652 H   0  0  0  0  0  0  0  0  0  0  0  0
  127.2915  128.3611   57.4236 H   0  0  0  0  0  0  0  0  0  0  0  0
  128.3392  129.3404   56.3419 H   0  0  0  0  0  0  0  0  0  0  0  0
  128.4736  127.5492   56.3419 H   0  0  0  0  0  0  0  0  0  0  0  0
  128.6630  126.7225   63.8177 H   0  0  0  0  0  0  0  0  0  0  0  0
  127.9107  125.2170   63.0163 H   0  0  0  0  0  0  0  0  0  0  0  0
  131.1901  127.5361   70.8315 H   0  0  0  0  0  0  0  0  0  0  0  0
  1  2  1  0
  2  3  1  0
  3  4  2  0
  4  5  1  0
  5  6  2  0
  6  7  1  0
  7  8  1  0
  8  9  2  0
  9 10  1  0
 10 11  1  0
 11 12  1  0
 12 13  1  0
 13 14  2  0
 13 15  1  0
 15 16  1  6
 16 17  1  0
 17 18  1  0
 18 19  1  0
 15 20  1  0
 20 21  1  0
 21 22  1  0
 22 23  2  0
 22 24  1  0
 24 25  1  0
 25 26  1  0
 26 27  1  0
 27 28  1  0
 28 29  1  0
 29 30  1  0
 30 31  1  0
 31 32  2  0
 31 33  1  0
 33 34  1  0
 34 35  1  0
 35 36  2  0
 36 37  1  0
 37 38  2  0
 38 39  1  0
 39 40  2  0
 40 41  1  0
 41 42  1  0
 37 43  1  0
  9 44  1  0
 44 45  2  0
 45  3  1  0
 44  6  1  0
 43 15  1  0
 19 17  1  0
 40 35  1  0
  1 46  1  0
  1 47  1  0
  1 48  1  0
  4 49  1  0
  5 50  1  0
  7 51  1  0
  8 52  1  0
 10 53  1  0
 10 54  1  0
 11 55  1  0
 11 56  1  0
 12 57  1  0
 16 58  1  0
 16 59  1  0
 17 60  1  0
 18 61  1  0
 18 62  1  0
 19 63  1  0
 19 64  1  0
 20 65  1  0
 20 66  1  0
 21 67  1  0
 24 68  1  0
 24 69  1  0
 25 70  1  0
 25 71  1  0
 26 72  1  0
 26 73  1  0
 27 74  1  0
 28 75  1  0
 28 76  1  0
 29 77  1  0
 29 78  1  0
 30 79  1  0
 33 80  1  0
 33 81  1  0
 36 82  1  0
 38 83  1  0
 39 84  1  0
 42 85  1  0
 42 86  1  0
 42 87  1  0
 43 88  1  0
 43 89  1  0
 45 90  1  0
M  END
>  <Binding energies>  (1) 
[-4.24]

>  <Ligand effiencies>  (1) 
[-0.08153846153846155]

>  <Interactions>  (1) 
["V-A:ILE:369:CG2:3237, V-A:ASP:366:CA:3210, V-B:PRO:540:CA:9855, V-A:GLY:454:CA:4049, V-B:HIS:456:CD2:9039, H-A:GLU:543:OE2:4910, H-B:GLU:543:O:9875, V-B:GLU:543:C:9874, V-A:ILE:369:CB:3236, V-B:GLU:543:CB:9878, V-B:ALA:541:CB:9864, H-A:ARG:545:NH1:4927, H-A:TYR:531:OH:4795, V-B:TYR:539:CE2:9848, V-B:GLU:543:CG:9879, V-A:GLY:544:C:4912, V-A:HIS:456:CD2:4068, V-A:ASP:366:CG:3213, V-B:TYR:539:CZ:9849, H-B:TYR:539:OH:9850, V-A:HIS:456:CB:4065, V-B:LYS:547:CE:9922, V-A:GLU:543:CD:4908, V-B:HIS:456:CE1:9041, H-A:GLY:454:N:4050, V-B:GLU:543:CA:9876, V-A:HIS:456:CE1:4070, V-A:ILE:369:CD1:3239, V-B:GLY:544:C:9884, V-B:GLY:544:CA:9886, V-B:TYR:539:CD2:9846, V-B:GLU:543:CD:9880, V-A:MET:535:CE:4835, V-A:ASP:366:CB:3212, H-A:LYS:547:NZ:4951, H-A:ARG:545:NH2:4928, V-A:ARG:545:CZ:4926, H-A:GLU:543:OE1:4909, V-A:LEU:475:CD2:4259, V-A:GLU:543:CB:4906, H-A:ASP:366:OD1:3214, H-B:GLY:544:O:9885, V-A:HIS:456:CG:4066, H-A:ARG:545:NE:4924, V-B:PRO:540:C:9853, H-A:ASP:366:OD2:3215, V-B:ALA:541:CA:9862, H-A:TYR:484:OH:4348"]

$$$$
ZINC1857705673-again1
     RDKit          3D

 91 95  0  0  0  0  0  0  0  0999 V2000
  126.6170  127.9300   73.6070 C   0  0  0  0  0  0  0  0  0  0  0  0
  126.9890  127.3600   72.3560 O   0  0  0  0  0  0  0  0  0  0  0  0
  128.2690  127.5570   71.8770 C   0  0  0  0  0  0  0  0  0  0  0  0
  129.3550  127.9650   72.6680 C   0  0  0  0  0  0  0  0  0  0  0  0
  130.6330  128.1510   72.1430 C   0  0  0  0  0  0  0  0  0  0  0  0
  130.8010  127.9120   70.7770 C   0  0  0  0  0  0  0  0  0  0  0  0
  131.9150  128.0020   69.9720 N   0  0  0  0  0  0  0  0  0  0  0  0
  131.5850  127.6640   68.6850 C   0  0  0  0  0  0  0  0  0  0  0  0
  130.2430  127.3410   68.6030 C   0  0  0  0  0  0  0  0  0  0  0  0
  129.4610  126.9150   67.3790 C   0  0  0  0  0  0  0  0  0  0  0  0
  129.8870  125.5220   66.8740 C   0  0  0  0  0  0  0  0  0  0  0  0
  130.0380  125.4650   65.4210 N   0  0  0  0  0  0  0  0  0  0  0  0
  129.5020  126.3490   64.5540 C   0  0  0  0  0  0  0  0  0  0  0  0
  128.8220  127.3040   64.9360 O   0  0  0  0  0  0  0  0  0  0  0  0
  129.7250  126.0780   63.0250 C   0  0  2  0  0  0  0  0  0  0  0  0
  129.1210  124.6660   62.6730 C   0  0  0  0  0  0  0  0  0  0  0  0
  129.6450  123.4190   63.4360 C   0  0  0  0  0  0  0  0  0  0  0  0
  128.7660  122.5240   64.2710 C   0  0  0  0  0  0  0  0  0  0  0  0
  129.3040  122.0410   62.9330 C   0  0  0  0  0  0  0  0  0  0  0  0
  131.2640  126.0530   62.6950 C   0  0  0  0  0  0  0  0  0  0  0  0
  132.1410  125.9220   63.8640 N   0  0  0  0  0  0  0  0  0  0  0  0
  133.2050  125.1130   64.0100 C   0  0  0  0  0  0  0  0  0  0  0  0
  133.7880  125.0470   65.0900 O   0  0  0  0  0  0  0  0  0  0  0  0
  133.7180  124.2600   62.8320 C   0  0  0  0  0  0  0  0  0  0  0  0
  133.2370  122.7920   62.8820 C   0  0  0  0  0  0  0  0  0  0  0  0
  132.5160  122.3000   61.6080 C   0  0  0  0  0  0  0  0  0  0  0  0
  131.3730  123.2460   61.2080 N   0  0  0  0  0  0  0  0  0  0  0  0
  131.5400  123.9820   59.8690 C   0  0  0  0  0  0  0  0  0  0  0  0
  132.7480  124.9420   59.9460 C   0  0  0  0  0  0  0  0  0  0  0  0
  133.3080  125.3420   58.6550 N   0  0  0  0  0  0  0  0  0  0  0  0
  132.6660  125.8400   57.5810 C   0  0  0  0  0  0  0  0  0  0  0  0
  133.3080  126.2510   56.6170 O   0  0  0  0  0  0  0  0  0  0  0  0
  131.1290  125.8980   57.5320 C   0  0  0  0  0  0  0  0  0  0  0  0
  130.7270  127.2690   57.5640 O   0  0  0  0  0  0  0  0  0  0  0  0
  130.7040  127.8800   58.7980 C   0  0  0  0  0  0  0  0  0  0  0  0
  129.9710  127.2750   59.8240 C   0  0  0  0  0  0  0  0  0  0  0  0
  129.8620  127.8780   61.0810 C   0  0  0  0  0  0  0  0  0  0  0  0
  130.5400  129.0770   61.3130 C   0  0  0  0  0  0  0  0  0  0  0  0
  131.2650  129.6910   60.2960 C   0  0  0  0  0  0  0  0  0  0  0  0
  131.3420  129.1100   59.0210 C   0  0  0  0  0  0  0  0  0  0  0  0
  132.0070  129.6900   57.9560 O   0  0  0  0  0  0  0  0  0  0  0  0
  133.0760  130.5960   58.2030 C   0  0  0  0  0  0  0  0  0  0  0  0
  129.0310  127.2240   62.1900 C   0  0  0  0  0  0  0  0  0  0  0  0
  129.7250  127.4970   69.9380 C   0  0  0  0  0  0  0  0  0  0  0  0
  128.4570  127.3260   70.5140 C   0  0  0  0  0  0  0  0  0  0  0  0
  127.0191  127.3139   74.4247 H   0  0  0  0  0  0  0  0  0  0  0  0
  127.0244  128.9491   73.6813 H   0  0  0  0  0  0  0  0  0  0  0  0
  125.5201  127.9673   73.6813 H   0  0  0  0  0  0  0  0  0  0  0  0
  129.1915  128.1444   73.7409 H   0  0  0  0  0  0  0  0  0  0  0  0
  131.4727  128.4720   72.7769 H   0  0  0  0  0  0  0  0  0  0  0  0
  132.8510  128.2700   70.2420 H   0  0  0  0  0  0  0  0  0  0  0  0
  132.2874  127.6515   67.8386 H   0  0  0  0  0  0  0  0  0  0  0  0
  128.3911  126.8881   67.6333 H   0  0  0  0  0  0  0  0  0  0  0  0
  129.6629  127.6417   66.5783 H   0  0  0  0  0  0  0  0  0  0  0  0
  130.8496  125.2600   67.3374 H   0  0  0  0  0  0  0  0  0  0  0  0
  129.0927  124.8134   67.1513 H   0  0  0  0  0  0  0  0  0  0  0  0
  130.5860  124.6990   65.0580 H   0  0  0  0  0  0  0  0  0  0  0  0
  128.0373  124.7236   62.8526 H   0  0  0  0  0  0  0  0  0  0  0  0
  129.4343  124.4935   61.6328 H   0  0  0  0  0  0  0  0  0  0  0  0
  130.5634  123.9842   63.6531 H   0  0  0  0  0  0  0  0  0  0  0  0
  129.1499  122.0928   65.2073 H   0  0  0  0  0  0  0  0  0  0  0  0
  127.7674  122.6138   64.7234 H   0  0  0  0  0  0  0  0  0  0  0  0
  130.0776  121.2596   62.9000 H   0  0  0  0  0  0  0  0  0  0  0  0
  128.8567  121.6354   62.0135 H   0  0  0  0  0  0  0  0  0  0  0  0
  131.4568  125.2019   62.0253 H   0  0  0  0  0  0  0  0  0  0  0  0
  131.4991  127.0258   62.2385 H   0  0  0  0  0  0  0  0  0  0  0  0
  131.8580  126.4550   64.6730 H   0  0  0  0  0  0  0  0  0  0  0  0
  133.3629  124.7115   61.8939 H   0  0  0  0  0  0  0  0  0  0  0  0
  134.8160  124.2443   62.8963 H   0  0  0  0  0  0  0  0  0  0  0  0
  134.1150  122.1502   63.0471 H   0  0  0  0  0  0  0  0  0  0  0  0
  132.4982  122.7371   63.6951 H   0  0  0  0  0  0  0  0  0  0  0  0
  133.2423  122.2481   60.7835 H   0  0  0  0  0  0  0  0  0  0  0  0
  132.0874  121.3083   61.8147 H   0  0  0  0  0  0  0  0  0  0  0  0
  130.5110  122.7170   61.1850 H   0  0  0  0  0  0  0  0  0  0  0  0
  131.2830  123.9410   61.9360 H   0  0  0  0  0  0  0  0  0  0  0  0
  131.7077  123.2478   59.0673 H   0  0  0  0  0  0  0  0  0  0  0  0
  130.6291  124.5611   59.6570 H   0  0  0  0  0  0  0  0  0  0  0  0
  132.4268  125.8518   60.4743 H   0  0  0  0  0  0  0  0  0  0  0  0
  133.5443  124.3900   60.4667 H   0  0  0  0  0  0  0  0  0  0  0  0
  134.3160  125.3130   58.6020 H   0  0  0  0  0  0  0  0  0  0  0  0
  130.7690  125.4271   56.6054 H   0  0  0  0  0  0  0  0  0  0  0  0
  130.7034  125.3597   58.3917 H   0  0  0  0  0  0  0  0  0  0  0  0
  129.4733  126.3115   59.6396 H   0  0  0  0  0  0  0  0  0  0  0  0
  130.5005  129.5407   62.3097 H   0  0  0  0  0  0  0  0  0  0  0  0
  131.7828  130.6412   60.4936 H   0  0  0  0  0  0  0  0  0  0  0  0
  133.2141  130.7131   59.2880 H   0  0  0  0  0  0  0  0  0  0  0  0
  134.0008  130.2025   57.7560 H   0  0  0  0  0  0  0  0  0  0  0  0
  132.8394  131.5728   57.7560 H   0  0  0  0  0  0  0  0  0  0  0  0
  128.7362  128.0158   62.8944 H   0  0  0  0  0  0  0  0  0  0  0  0
  128.1963  126.7322   61.6690 H   0  0  0  0  0  0  0  0  0  0  0  0
  127.6089  127.0090   69.8893 H   0  0  0  0  0  0  0  0  0  0  0  0
  1  2  1  0
  2  3  1  0
  3  4  2  0
  4  5  1  0
  5  6  2  0
  6  7  1  0
  7  8  1  0
  8  9  2  0
  9 10  1  0
 10 11  1  0
 11 12  1  0
 12 13  1  0
 13 14  2  0
 13 15  1  0
 15 16  1  6
 16 17  1  0
 17 18  1  0
 18 19  1  0
 15 20  1  0
 20 21  1  0
 21 22  1  0
 22 23  2  0
 22 24  1  0
 24 25  1  0
 25 26  1  0
 26 27  1  0
 27 28  1  0
 28 29  1  0
 29 30  1  0
 30 31  1  0
 31 32  2  0
 31 33  1  0
 33 34  1  0
 34 35  1  0
 35 36  2  0
 36 37  1  0
 37 38  2  0
 38 39  1  0
 39 40  2  0
 40 41  1  0
 41 42  1  0
 37 43  1  0
  9 44  1  0
 44 45  2  0
 45  3  1  0
 44  6  1  0
 43 15  1  0
 19 17  1  0
 40 35  1  0
  1 46  1  0
  1 47  1  0
  1 48  1  0
  4 49  1  0
  5 50  1  0
  7 51  1  0
  8 52  1  0
 10 53  1  0
 10 54  1  0
 11 55  1  0
 11 56  1  0
 12 57  1  0
 16 58  1  0
 16 59  1  0
 17 60  1  0
 18 61  1  0
 18 62  1  0
 19 63  1  0
 19 64  1  0
 20 65  1  0
 20 66  1  0
 21 67  1  0
 24 68  1  0
 24 69  1  0
 25 70  1  0
 25 71  1  0
 26 72  1  0
 26 73  1  0
 27 74  1  0
 27 75  1  0
 28 76  1  0
 28 77  1  0
 29 78  1  0
 29 79  1  0
 30 80  1  0
 33 81  1  0
 33 82  1  0
 36 83  1  0
 38 84  1  0
 39 85  1  0
 42 86  1  0
 42 87  1  0
 42 88  1  0
 43 89  1  0
 43 90  1  0
 45 91  1  0
M  CHG  1  27   1
M  END
>  <Binding energies>  (1) 
[-4.06]

>  <Ligand effiencies>  (1) 
[-0.07660377358490565]

>  <Interactions>  (1) 
["V-A:ASP:366:CA:3210, V-A:ARG:545:CA:4919, V-A:GLY:454:CA:4049, V-B:HIS:456:CD2:9039, H-A:GLU:543:OE2:4910, V-A:GLU:543:C:4902, V-B:GLU:543:CB:9878, H-B:LYS:547:NZ:9923, V-B:HIS:456:CB:9036, V-B:ALA:541:CB:9864, H-A:ARG:545:NH1:4927, H-A:TYR:531:OH:4795, V-B:TYR:539:CE2:9848, V-A:GLY:544:CA:4914, V-B:GLU:543:CG:9879, V-A:GLY:544:C:4912, V-A:ASP:366:CG:3213, H-B:HIS:456:ND1:9038, V-A:LEU:363:CD1:3189, V-B:TYR:539:CZ:9849, V-A:TYR:531:CE2:4793, H-B:TYR:539:OH:9850, V-B:LYS:547:CE:9922, V-A:GLU:543:CD:4908, V-B:HIS:456:CE1:9041, H-A:GLY:454:N:4050, V-A:ARG:545:CG:4922, V-A:HIS:456:CE1:4070, V-A:ASP:366:C:3208, V-A:GLU:543:CG:4907, V-A:TYR:531:CZ:4794, V-B:GLU:543:CD:9880, V-B:HIS:456:CG:9037, V-A:ASP:366:CB:3212, V-A:ARG:545:CB:4921, V-A:LEU:475:CD2:4259, H-A:ARG:545:NH2:4928, V-A:ARG:545:CZ:4926, H-A:GLU:543:OE1:4909, H-A:ASP:366:O:3209, V-A:GLU:543:CB:4906, H-A:ASP:366:OD1:3214, V-A:LEU:363:CA:3185, H-A:ARG:545:NE:4924, H-A:GLY:544:O:4913, H-A:TYR:484:OH:4348"]

$$$$
ZINC1857706336
     RDKit          3D

 72 76  0  0  0  0  0  0  0  0999 V2000
  132.7750  125.1210   62.3340 C   0  0  0  0  0  0  0  0  0  0  0  0
  132.8220  124.7200   60.9190 N   0  0  0  0  0  0  0  0  0  0  0  0
  133.3760  123.5080   60.6190 C   0  0  0  0  0  0  0  0  0  0  0  0
  133.8950  122.7260   61.4190 O   0  0  0  0  0  0  0  0  0  0  0  0
  133.2950  123.1980   59.0960 C   0  0  0  0  0  0  0  0  0  0  0  0
  133.4120  124.3780   58.2790 O   0  0  0  0  0  0  0  0  0  0  0  0
  132.5310  125.3800   58.6240 C   0  0  0  0  0  0  0  0  0  0  0  0
  132.0210  126.2020   57.6220 C   0  0  0  0  0  0  0  0  0  0  0  0
  131.1570  127.2390   57.9680 C   0  0  0  0  0  0  0  0  0  0  0  0
  130.8150  127.4600   59.3080 C   0  0  0  0  0  0  0  0  0  0  0  0
  129.8640  128.5660   59.6730 C   0  0  0  0  0  0  0  0  0  0  0  0
  130.3330  129.6210   60.1050 O   0  0  0  0  0  0  0  0  0  0  0  0
  128.5310  128.3520   59.4960 N   0  0  0  0  0  0  0  0  0  0  0  0
  127.6340  127.8670   60.5640 C   0  0  0  0  0  0  0  0  0  0  0  0
  128.2940  126.7910   61.4370 C   0  0  0  0  0  0  0  0  0  0  0  0
  129.4160  127.3080   62.3560 C   0  0  0  0  0  0  0  0  0  0  0  0
  129.2830  126.7160   63.7740 C   0  0  0  0  0  0  0  0  0  0  0  0
  128.5640  127.3280   64.5680 O   0  0  0  0  0  0  0  0  0  0  0  0
  129.8990  125.5400   64.0960 N   0  0  0  0  0  0  0  0  0  0  0  0
  130.7760  125.4310   65.2860 C   0  0  0  0  0  0  0  0  0  0  0  0
  130.0440  124.5650   66.3300 C   0  0  0  0  0  0  0  0  0  0  0  0
  129.5220  123.2260   65.7640 C   0  0  0  0  0  0  0  0  0  0  0  0
  129.8540  123.0460   64.2700 C   0  0  0  0  0  0  0  0  0  0  0  0
  129.4620  124.2850   63.4120 C   0  0  2  0  0  0  0  0  0  0  0  0
  129.8730  124.1330   61.9210 C   0  0  0  0  0  0  0  0  0  0  0  0
  129.2050  123.0180   61.0780 C   0  0  0  0  0  0  0  0  0  0  0  0
  128.7240  123.4290   59.6900 C   0  0  0  0  0  0  0  0  0  0  0  0
  128.0110  122.5270   58.8990 C   0  0  0  0  0  0  0  0  0  0  0  0
  127.5560  122.9060   57.6380 C   0  0  0  0  0  0  0  0  0  0  0  0
  127.8110  124.1900   57.1580 C   0  0  0  0  0  0  0  0  0  0  0  0
  128.5200  125.1170   57.9410 C   0  0  0  0  0  0  0  0  0  0  0  0
  128.9620  124.7210   59.2080 C   0  0  0  0  0  0  0  0  0  0  0  0
  128.8620  126.4000   57.5510 O   0  0  0  0  0  0  0  0  0  0  0  0
  127.8740  127.3760   57.2110 C   0  0  0  0  0  0  0  0  0  0  0  0
  127.8930  128.5800   58.1840 C   0  0  0  0  0  0  0  0  0  0  0  0
  131.3550  126.6390   60.3060 C   0  0  0  0  0  0  0  0  0  0  0  0
  132.2100  125.5760   59.9720 C   0  0  0  0  0  0  0  0  0  0  0  0
  132.8794  124.2304   62.9711 H   0  0  0  0  0  0  0  0  0  0  0  0
  133.5973  125.8207   62.5443 H   0  0  0  0  0  0  0  0  0  0  0  0
  131.8132  125.6116   62.5443 H   0  0  0  0  0  0  0  0  0  0  0  0
  134.1100  122.5071   58.8342 H   0  0  0  0  0  0  0  0  0  0  0  0
  132.3067  122.7564   58.9002 H   0  0  0  0  0  0  0  0  0  0  0  0
  132.2969  126.0346   56.5704 H   0  0  0  0  0  0  0  0  0  0  0  0
  130.7409  127.8883   57.1836 H   0  0  0  0  0  0  0  0  0  0  0  0
  127.3531  128.7172   61.2029 H   0  0  0  0  0  0  0  0  0  0  0  0
  126.7531  127.4161   60.0838 H   0  0  0  0  0  0  0  0  0  0  0  0
  127.5159  126.3369   62.0682 H   0  0  0  0  0  0  0  0  0  0  0  0
  128.7630  126.0748   60.7463 H   0  0  0  0  0  0  0  0  0  0  0  0
  130.3895  127.0174   61.9343 H   0  0  0  0  0  0  0  0  0  0  0  0
  129.3380  128.4031   62.4238 H   0  0  0  0  0  0  0  0  0  0  0  0
  131.7285  124.9566   65.0072 H   0  0  0  0  0  0  0  0  0  0  0  0
  130.9936  126.4279   65.6968 H   0  0  0  0  0  0  0  0  0  0  0  0
  130.7416  124.3470   67.1521 H   0  0  0  0  0  0  0  0  0  0  0  0
  129.1671  125.1372   66.6671 H   0  0  0  0  0  0  0  0  0  0  0  0
  129.9812  122.4015   66.3290 H   0  0  0  0  0  0  0  0  0  0  0  0
  128.4266  123.2254   65.8649 H   0  0  0  0  0  0  0  0  0  0  0  0
  130.9360  122.8760   64.1683 H   0  0  0  0  0  0  0  0  0  0  0  0
  129.2703  122.1895   63.9015 H   0  0  0  0  0  0  0  0  0  0  0  0
  128.3664  124.3579   63.3453 H   0  0  0  0  0  0  0  0  0  0  0  0
  129.6538  125.0900   61.4250 H   0  0  0  0  0  0  0  0  0  0  0  0
  130.9322  123.8394   61.9632 H   0  0  0  0  0  0  0  0  0  0  0  0
  129.9361  122.2054   60.9543 H   0  0  0  0  0  0  0  0  0  0  0  0
  128.3003  122.7277   61.6323 H   0  0  0  0  0  0  0  0  0  0  0  0
  127.8074  121.5127   59.2727 H   0  0  0  0  0  0  0  0  0  0  0  0
  126.9942  122.1906   57.0195 H   0  0  0  0  0  0  0  0  0  0  0  0
  127.4544  124.4797   56.1585 H   0  0  0  0  0  0  0  0  0  0  0  0
  129.5073  125.4394   59.8377 H   0  0  0  0  0  0  0  0  0  0  0  0
  128.0695  127.7396   56.1914 H   0  0  0  0  0  0  0  0  0  0  0  0
  126.8855  126.8983   57.2790 H   0  0  0  0  0  0  0  0  0  0  0  0
  128.4300  129.4024   57.6888 H   0  0  0  0  0  0  0  0  0  0  0  0
  126.8370  128.7945   58.4052 H   0  0  0  0  0  0  0  0  0  0  0  0
  131.1072  126.8284   61.3609 H   0  0  0  0  0  0  0  0  0  0  0  0
  1  2  1  0
  2  3  1  0
  3  4  2  0
  3  5  1  0
  5  6  1  0
  6  7  1  0
  7  8  2  0
  8  9  1  0
  9 10  2  0
 10 11  1  0
 11 12  2  0
 11 13  1  0
 13 14  1  0
 14 15  1  0
 15 16  1  0
 16 17  1  0
 17 18  2  0
 17 19  1  0
 19 20  1  0
 20 21  1  0
 21 22  1  0
 22 23  1  0
 23 24  1  0
 24 25  1  0
 25 26  1  0
 26 27  1  0
 27 28  1  0
 28 29  2  0
 29 30  1  0
 30 31  2  0
 31 32  1  0
 31 33  1  0
 33 34  1  0
 34 35  1  0
 10 36  1  0
 36 37  2  0
 37  2  1  0
 37  7  1  0
 35 13  1  0
 24 19  1  0
 32 27  2  0
  1 38  1  0
  1 39  1  0
  1 40  1  0
  5 41  1  0
  5 42  1  0
  8 43  1  0
  9 44  1  0
 14 45  1  0
 14 46  1  0
 15 47  1  0
 15 48  1  0
 16 49  1  0
 16 50  1  0
 20 51  1  0
 20 52  1  0
 21 53  1  0
 21 54  1  0
 22 55  1  0
 22 56  1  0
 23 57  1  0
 23 58  1  0
 24 59  1  6
 25 60  1  0
 25 61  1  0
 26 62  1  0
 26 63  1  0
 28 64  1  0
 29 65  1  0
 30 66  1  0
 32 67  1  0
 34 68  1  0
 34 69  1  0
 35 70  1  0
 35 71  1  0
 36 72  1  0
M  END
>  <Binding energies>  (1) 
[-3.92]

>  <Ligand effiencies>  (1) 
[-0.10051282051282051]

>  <Interactions>  (1) 
["V-A:ILE:369:CG2:3237, V-A:ASP:366:CA:3210, V-B:PRO:540:CA:9855, V-A:ILE:369:CB:3236, V-B:GLU:543:CB:9878, V-B:TYR:539:CE2:9848, V-A:TYR:484:CE2:4346, V-B:GLU:543:CG:9879, V-B:TYR:539:C:9839, V-A:ASP:366:CG:3213, V-B:TYR:539:CZ:9849, H-B:TYR:539:OH:9850, V-A:GLU:543:CD:4908, V-A:TYR:484:CZ:4347, V-B:GLU:543:CA:9876, V-B:PRO:540:N:9856, V-A:ILE:369:CD1:3239, V-B:TYR:539:CD2:9846, V-A:TYR:531:CZ:4794, V-B:GLU:543:CD:9880, V-A:ASP:366:CB:3212, V-A:ARG:545:CZ:4926, V-B:TYR:539:CG:9844"]

$$$$
ZINC1857724544
     RDKit          3D

 98103  0  0  0  0  0  0  0  0999 V2000
  132.4740  130.9590   57.5010 C   0  0  0  0  0  0  0  0  0  0  0  0
  131.4420  130.0020   57.2830 O   0  0  0  0  0  0  0  0  0  0  0  0
  131.0400  129.1840   58.3230 C   0  0  0  0  0  0  0  0  0  0  0  0
  131.3870  127.8290   58.4250 C   0  0  0  0  0  0  0  0  0  0  0  0
  130.9420  127.0480   59.5170 C   0  0  0  0  0  0  0  0  0  0  0  0
  131.3070  125.7410   59.5770 N   0  0  0  0  0  0  0  0  0  0  0  0
  130.8700  124.9610   60.6070 C   0  0  0  0  0  0  0  0  0  0  0  0
  130.0660  125.4760   61.6420 C   0  0  0  0  0  0  0  0  0  0  0  0
  129.7130  126.8290   61.5940 C   0  0  0  0  0  0  0  0  0  0  0  0
  130.1360  127.6480   60.5220 C   0  0  0  0  0  0  0  0  0  0  0  0
  129.7800  129.0180   60.4050 C   0  0  0  0  0  0  0  0  0  0  0  0
  128.9960  129.6160   61.3640 O   0  0  0  0  0  0  0  0  0  0  0  0
  127.6040  129.3750   61.2060 C   0  0  0  0  0  0  0  0  0  0  0  0
  130.2490  129.7680   59.3190 C   0  0  0  0  0  0  0  0  0  0  0  0
  129.9040  131.0940   59.2080 O   0  0  0  0  0  0  0  0  0  0  0  0
  128.8450  131.3450   58.2950 C   0  0  0  0  0  0  0  0  0  0  0  0
  129.5040  124.5730   62.7540 C   0  0  0  0  0  0  0  0  0  0  0  0
  128.5940  123.4890   62.3270 N   0  0  0  0  0  0  0  0  0  0  0  0
  127.5630  123.5470   61.4230 C   0  0  0  0  0  0  0  0  0  0  0  0
  126.4350  123.1380   61.7160 O   0  0  0  0  0  0  0  0  0  0  0  0
  127.7480  124.1100   60.0840 C   0  0  0  0  0  0  0  0  0  0  0  0
  127.3900  125.4210   59.7450 C   0  0  0  0  0  0  0  0  0  0  0  0
  127.7160  125.6100   58.4300 N   0  0  0  0  0  0  0  0  0  0  0  0
  127.5740  126.8200   57.6410 C   0  0  0  0  0  0  0  0  0  0  0  0
  128.2700  124.4190   58.0510 C   0  0  0  0  0  0  0  0  0  0  0  0
  128.2830  123.5310   59.0130 N   0  0  0  0  0  0  0  0  0  0  0  0
  128.8430  122.2380   63.0720 C   0  0  0  0  0  0  0  0  0  0  0  0
  130.2460  122.1830   63.7230 C   0  0  0  0  0  0  0  0  0  0  0  0
  130.4480  123.1220   64.8450 N   0  0  0  0  0  0  0  0  0  0  0  0
  129.6000  123.2290   65.9070 C   0  0  0  0  0  0  0  0  0  0  0  0
  128.7120  122.4000   66.1220 O   0  0  0  0  0  0  0  0  0  0  0  0
  129.7520  124.4220   66.8750 C   0  0  0  0  0  0  0  0  0  0  0  0
  129.7980  125.8160   66.2040 C   0  0  0  0  0  0  0  0  0  0  0  0
  128.8360  126.8440   66.8430 C   0  0  0  0  0  0  0  0  0  0  0  0
  129.1330  127.0760   68.2550 N   0  0  0  0  0  0  0  0  0  0  0  0
  128.2900  126.9120   69.3260 C   0  0  0  0  0  0  0  0  0  0  0  0
  129.0150  127.3190   70.4290 C   0  0  0  0  0  0  0  0  0  0  0  0
  130.2550  127.7130   69.9170 C   0  0  0  0  0  0  0  0  0  0  0  0
  130.3270  127.5760   68.6120 N   0  0  0  0  0  0  0  0  0  0  0  0
  131.7140  123.8850   64.8150 C   0  0  0  0  0  0  0  0  0  0  0  0
  132.8780  123.2000   64.0600 C   0  0  0  0  0  0  0  0  0  0  0  0
  133.6200  124.1740   63.1240 C   0  0  0  0  0  0  0  0  0  0  0  0
  133.6900  125.3600   63.4360 O   0  0  0  0  0  0  0  0  0  0  0  0
  134.1920  123.7270   61.9880 N   0  0  0  0  0  0  0  0  0  0  0  0
  134.1830  122.3520   61.4850 C   0  0  0  0  0  0  0  0  0  0  0  0
  133.4470  122.2180   60.1230 C   0  0  1  0  0  0  0  0  0  0  0  0
  132.5420  120.9660   60.1170 C   0  0  0  0  0  0  0  0  0  0  0  0
  131.2650  121.1790   60.9470 C   0  0  0  0  0  0  0  0  0  0  0  0
  130.5470  122.4950   60.5790 C   0  0  0  0  0  0  0  0  0  0  0  0
  131.4210  123.6810   60.6730 N   0  0  0  0  0  0  0  0  0  0  0  0
  132.5800  123.4600   59.7880 C   0  0  0  0  0  0  0  0  0  0  0  0
  132.6233  131.0974   58.5820 H   0  0  0  0  0  0  0  0  0  0  0  0
  133.4086  130.6008   57.0447 H   0  0  0  0  0  0  0  0  0  0  0  0
  132.1872  131.9179   57.0447 H   0  0  0  0  0  0  0  0  0  0  0  0
  132.0127  127.3681   57.6465 H   0  0  0  0  0  0  0  0  0  0  0  0
  129.0998  127.2602   62.3990 H   0  0  0  0  0  0  0  0  0  0  0  0
  127.1314  129.2932   62.1959 H   0  0  0  0  0  0  0  0  0  0  0  0
  127.1485  130.2076   60.6499 H   0  0  0  0  0  0  0  0  0  0  0  0
  127.4550  128.4377   60.6499 H   0  0  0  0  0  0  0  0  0  0  0  0
  127.9231  131.5635   58.8539 H   0  0  0  0  0  0  0  0  0  0  0  0
  129.1031  132.2069   57.6621 H   0  0  0  0  0  0  0  0  0  0  0  0
  128.6888  130.4590   57.6621 H   0  0  0  0  0  0  0  0  0  0  0  0
  130.3571  124.1090   63.2707 H   0  0  0  0  0  0  0  0  0  0  0  0
  128.8924  125.2347   63.3849 H   0  0  0  0  0  0  0  0  0  0  0  0
  126.9305  126.1633   60.4142 H   0  0  0  0  0  0  0  0  0  0  0  0
  127.4724  127.6856   58.3122 H   0  0  0  0  0  0  0  0  0  0  0  0
  128.4630  126.9504   57.0064 H   0  0  0  0  0  0  0  0  0  0  0  0
  126.6790  126.7410   57.0064 H   0  0  0  0  0  0  0  0  0  0  0  0
  128.6641  124.2267   57.0422 H   0  0  0  0  0  0  0  0  0  0  0  0
  128.0862  122.1472   63.8651 H   0  0  0  0  0  0  0  0  0  0  0  0
  128.7863  121.4110   62.3489 H   0  0  0  0  0  0  0  0  0  0  0  0
  130.4087  121.1619   64.0984 H   0  0  0  0  0  0  0  0  0  0  0  0
  130.9609  122.4784   62.9409 H   0  0  0  0  0  0  0  0  0  0  0  0
  128.8991  124.4070   67.5695 H   0  0  0  0  0  0  0  0  0  0  0  0
  130.7255  124.2902   67.3700 H   0  0  0  0  0  0  0  0  0  0  0  0
  130.8239  126.2053   66.2814 H   0  0  0  0  0  0  0  0  0  0  0  0
  129.4785  125.6816   65.1600 H   0  0  0  0  0  0  0  0  0  0  0  0
  128.9255  127.7971   66.3011 H   0  0  0  0  0  0  0  0  0  0  0  0
  127.8157  126.4386   66.7752 H   0  0  0  0  0  0  0  0  0  0  0  0
  127.2563  126.5362   69.3093 H   0  0  0  0  0  0  0  0  0  0  0  0
  128.6886  127.3306   71.4794 H   0  0  0  0  0  0  0  0  0  0  0  0
  131.0788  128.0952   70.5377 H   0  0  0  0  0  0  0  0  0  0  0  0
  131.5168  124.8527   64.3305 H   0  0  0  0  0  0  0  0  0  0  0  0
  132.0405  123.9761   65.8615 H   0  0  0  0  0  0  0  0  0  0  0  0
  133.5925  122.8031   64.7962 H   0  0  0  0  0  0  0  0  0  0  0  0
  132.4518  122.3966   63.4411 H   0  0  0  0  0  0  0  0  0  0  0  0
  134.6770  124.4000   61.4120 H   0  0  0  0  0  0  0  0  0  0  0  0
  135.2229  122.0167   61.3578 H   0  0  0  0  0  0  0  0  0  0  0  0
  133.6435  121.7333   62.2172 H   0  0  0  0  0  0  0  0  0  0  0  0
  134.2306  122.1288   59.3562 H   0  0  0  0  0  0  0  0  0  0  0  0
  132.2579  120.7373   59.0792 H   0  0  0  0  0  0  0  0  0  0  0  0
  133.1060  120.1349   60.5655 H   0  0  0  0  0  0  0  0  0  0  0  0
  130.5795  120.3381   60.7656 H   0  0  0  0  0  0  0  0  0  0  0  0
  131.5548  121.2357   62.0066 H   0  0  0  0  0  0  0  0  0  0  0  0
  130.1772  122.4144   59.5462 H   0  0  0  0  0  0  0  0  0  0  0  0
  129.7292  122.6339   61.3014 H   0  0  0  0  0  0  0  0  0  0  0  0
  132.2049  123.3446   58.7604 H   0  0  0  0  0  0  0  0  0  0  0  0
  133.2357  124.3326   59.9245 H   0  0  0  0  0  0  0  0  0  0  0  0
  1  2  1  0
  2  3  1  0
  3  4  2  0
  4  5  1  0
  5  6  2  0
  6  7  1  0
  7  8  2  0
  8  9  1  0
  9 10  2  0
 10 11  1  0
 11 12  1  0
 12 13  1  0
 11 14  2  0
 14 15  1  0
 15 16  1  0
  8 17  1  0
 17 18  1  0
 18 19  1  0
 19 20  2  0
 19 21  1  0
 21 22  2  0
 22 23  1  0
 23 24  1  0
 23 25  1  0
 25 26  2  0
 18 27  1  0
 27 28  1  0
 28 29  1  0
 29 30  1  0
 30 31  2  0
 30 32  1  0
 32 33  1  0
 33 34  1  0
 34 35  1  0
 35 36  1  0
 36 37  2  0
 37 38  1  0
 38 39  2  0
 29 40  1  0
 40 41  1  0
 41 42  1  0
 42 43  2  0
 42 44  1  0
 44 45  1  0
 45 46  1  0
 46 47  1  0
 47 48  1  0
 48 49  1  0
 49 50  1  0
 50 51  1  0
 14  3  1  0
 26 21  1  0
 39 35  1  0
 51 46  1  0
 10  5  1  0
 50  7  1  0
  1 52  1  0
  1 53  1  0
  1 54  1  0
  4 55  1  0
  9 56  1  0
 13 57  1  0
 13 58  1  0
 13 59  1  0
 16 60  1  0
 16 61  1  0
 16 62  1  0
 17 63  1  0
 17 64  1  0
 22 65  1  0
 24 66  1  0
 24 67  1  0
 24 68  1  0
 25 69  1  0
 27 70  1  0
 27 71  1  0
 28 72  1  0
 28 73  1  0
 32 74  1  0
 32 75  1  0
 33 76  1  0
 33 77  1  0
 34 78  1  0
 34 79  1  0
 36 80  1  0
 37 81  1  0
 38 82  1  0
 40 83  1  0
 40 84  1  0
 41 85  1  0
 41 86  1  0
 44 87  1  0
 45 88  1  0
 45 89  1  0
 46 90  1  6
 47 91  1  0
 47 92  1  0
 48 93  1  0
 48 94  1  0
 49 95  1  0
 49 96  1  0
 51 97  1  0
 51 98  1  0
M  END
>  <Binding energies>  (1) 
[-3.64]

>  <Ligand effiencies>  (1) 
[-0.06740740740740742]

>  <Interactions>  (1) 
["V-A:ILE:369:CG2:3237, V-B:PRO:540:CA:9855, V-A:GLY:454:CA:4049, V-B:GLU:543:C:9874, V-A:ILE:369:CB:3236, V-B:GLU:543:CB:9878, V-B:ALA:541:CB:9864, H-A:TYR:531:OH:4795, H-A:ARG:545:NH1:4927, V-B:TYR:539:CE2:9848, V-A:TYR:484:CE2:4346, V-B:GLU:543:CG:9879, V-A:ASP:366:CG:3213, V-A:LEU:363:CD1:3189, V-B:TYR:539:CZ:9849, V-A:TYR:531:CE2:4793, H-B:ALA:541:N:9863, V-A:TYR:484:CZ:4347, V-A:GLU:543:CD:4908, V-B:GLU:543:CA:9876, V-B:HIS:456:CE1:9041, V-A:ILE:369:CD1:3239, V-A:HIS:456:CE1:4070, V-B:TYR:539:CD2:9846, V-B:GLU:543:CD:9880, V-A:ASP:366:CB:3212, V-A:LEU:475:CD2:4259, H-A:ARG:545:NH2:4928, V-A:GLU:543:CB:4906, H-A:ASP:366:OD1:3214, H-A:ARG:545:NE:4924, V-B:ALA:541:CA:9862, H-B:GLU:543:N:9877"]

$$$$
ZINC1857725665
     RDKit          3D

 92 97  0  0  0  0  0  0  0  0999 V2000
  128.0600  123.6890   57.4810 C   0  0  0  0  0  0  0  0  0  0  0  0
  127.6830  123.0240   58.8190 C   0  0  0  0  0  0  0  0  0  0  0  0
  128.5980  123.3710   59.9190 N   0  0  0  0  0  0  0  0  0  0  0  0
  127.9750  124.3480   60.8260 C   0  0  0  0  0  0  0  0  0  0  0  0
  127.8970  123.8650   62.2960 C   0  0  0  0  0  0  0  0  0  0  0  0
  128.9300  122.8670   62.6360 N   0  0  0  0  0  0  0  0  0  0  0  0
  129.8640  123.1530   63.5950 C   0  0  0  0  0  0  0  0  0  0  0  0
  130.9430  122.5540   63.6430 O   0  0  0  0  0  0  0  0  0  0  0  0
  129.6170  124.2000   64.5840 C   0  0  0  0  0  0  0  0  0  0  0  0
  129.9730  124.0740   65.9380 C   0  0  0  0  0  0  0  0  0  0  0  0
  129.6650  125.2600   66.5460 N   0  0  0  0  0  0  0  0  0  0  0  0
  129.7820  125.6890   67.8410 C   0  0  0  0  0  0  0  0  0  0  0  0
  129.3830  126.9840   68.1640 C   0  0  0  0  0  0  0  0  0  0  0  0
  128.8760  127.8290   67.1740 C   0  0  0  0  0  0  0  0  0  0  0  0
  128.4330  129.2340   67.5390 C   0  0  0  0  0  0  0  0  0  0  0  0
  128.7560  127.3860   65.8510 C   0  0  0  0  0  0  0  0  0  0  0  0
  129.1590  126.0770   65.5280 C   0  0  0  0  0  0  0  0  0  0  0  0
  129.1590  125.4200   64.3410 N   0  0  0  0  0  0  0  0  0  0  0  0
  128.8150  121.6110   61.8710 C   0  0  0  0  0  0  0  0  0  0  0  0
  129.9440  121.3880   60.8390 C   0  0  0  0  0  0  0  0  0  0  0  0
  130.7170  120.0800   61.0750 C   0  0  0  0  0  0  0  0  0  0  0  0
  130.1000  119.0930   61.4710 O   0  0  0  0  0  0  0  0  0  0  0  0
  132.0420  120.0010   60.8400 N   0  0  0  0  0  0  0  0  0  0  0  0
  132.9510  121.0720   60.4250 C   0  0  0  0  0  0  0  0  0  0  0  0
  132.8410  122.3560   61.2830 C   0  0  1  0  0  0  0  0  0  0  0  0
  134.1000  122.7370   62.0840 C   0  0  0  0  0  0  0  0  0  0  0  0
  133.8190  124.0000   62.9160 C   0  0  0  0  0  0  0  0  0  0  0  0
  133.1820  125.1250   62.0660 C   0  0  0  0  0  0  0  0  0  0  0  0
  131.9580  124.6910   61.3600 N   0  0  0  0  0  0  0  0  0  0  0  0
  132.3730  123.5880   60.4740 C   0  0  0  0  0  0  0  0  0  0  0  0
  131.1490  125.6610   60.7780 C   0  0  0  0  0  0  0  0  0  0  0  0
  131.4160  126.9550   61.1110 N   0  0  0  0  0  0  0  0  0  0  0  0
  130.7070  127.9590   60.5280 C   0  0  0  0  0  0  0  0  0  0  0  0
  130.9940  129.2920   60.8950 C   0  0  0  0  0  0  0  0  0  0  0  0
  130.2860  130.3610   60.3290 C   0  0  0  0  0  0  0  0  0  0  0  0
  130.5130  131.6880   60.6500 O   0  0  0  0  0  0  0  0  0  0  0  0
  129.7990  132.2800   61.7310 C   0  0  0  0  0  0  0  0  0  0  0  0
  129.2820  130.1030   59.3900 C   0  0  0  0  0  0  0  0  0  0  0  0
  128.5960  131.1650   58.8480 O   0  0  0  0  0  0  0  0  0  0  0  0
  129.3450  131.9430   57.9230 C   0  0  0  0  0  0  0  0  0  0  0  0
  128.9910  128.7910   58.9820 C   0  0  0  0  0  0  0  0  0  0  0  0
  128.0170  128.5460   58.0430 O   0  0  0  0  0  0  0  0  0  0  0  0
  128.4830  128.5350   56.7000 C   0  0  0  0  0  0  0  0  0  0  0  0
  129.6940  127.7020   59.5610 C   0  0  0  0  0  0  0  0  0  0  0  0
  129.4470  126.3500   59.2160 C   0  0  0  0  0  0  0  0  0  0  0  0
  130.1840  125.3240   59.8110 C   0  0  0  0  0  0  0  0  0  0  0  0
  129.8810  123.8770   59.4060 C   0  0  0  0  0  0  0  0  0  0  0  0
  128.5938  124.6306   57.6771 H   0  0  0  0  0  0  0  0  0  0  0  0
  128.7090  123.0126   56.9054 H   0  0  0  0  0  0  0  0  0  0  0  0
  127.1463  123.8985   56.9054 H   0  0  0  0  0  0  0  0  0  0  0  0
  126.6677  123.3450   59.0948 H   0  0  0  0  0  0  0  0  0  0  0  0
  127.7476  121.9358   58.6720 H   0  0  0  0  0  0  0  0  0  0  0  0
  128.5642  125.2764   60.7954 H   0  0  0  0  0  0  0  0  0  0  0  0
  126.9418  124.4978   60.4796 H   0  0  0  0  0  0  0  0  0  0  0  0
  128.0209  124.7355   62.9570 H   0  0  0  0  0  0  0  0  0  0  0  0
  126.9184  123.3808   62.4294 H   0  0  0  0  0  0  0  0  0  0  0  0
  130.4157  123.1888   66.4180 H   0  0  0  0  0  0  0  0  0  0  0  0
  130.1855  125.0203   68.6156 H   0  0  0  0  0  0  0  0  0  0  0  0
  129.4674  127.3419   69.2007 H   0  0  0  0  0  0  0  0  0  0  0  0
  128.4010  129.3356   68.6338 H   0  0  0  0  0  0  0  0  0  0  0  0
  129.1451  129.9624   67.1239 H   0  0  0  0  0  0  0  0  0  0  0  0
  127.4319  129.4223   67.1239 H   0  0  0  0  0  0  0  0  0  0  0  0
  128.3521  128.0524   65.0746 H   0  0  0  0  0  0  0  0  0  0  0  0
  128.8282  120.7721   62.5824 H   0  0  0  0  0  0  0  0  0  0  0  0
  127.8761  121.6745   61.3014 H   0  0  0  0  0  0  0  0  0  0  0  0
  129.4997  121.3571   59.8332 H   0  0  0  0  0  0  0  0  0  0  0  0
  130.6578  122.2182   60.9444 H   0  0  0  0  0  0  0  0  0  0  0  0
  132.4810  119.1060   60.9990 H   0  0  0  0  0  0  0  0  0  0  0  0
  133.9827  120.6967   60.4940 H   0  0  0  0  0  0  0  0  0  0  0  0
  132.6701  121.3491   59.3982 H   0  0  0  0  0  0  0  0  0  0  0  0
  132.0706  122.0737   62.0157 H   0  0  0  0  0  0  0  0  0  0  0  0
  134.3713  121.9090   62.7555 H   0  0  0  0  0  0  0  0  0  0  0  0
  134.9296  122.9341   61.3891 H   0  0  0  0  0  0  0  0  0  0  0  0
  133.1311  123.7404   63.7341 H   0  0  0  0  0  0  0  0  0  0  0  0
  134.7788  124.3706   63.3052 H   0  0  0  0  0  0  0  0  0  0  0  0
  132.9253  125.9637   62.7299 H   0  0  0  0  0  0  0  0  0  0  0  0
  133.9172  125.4173   61.3018 H   0  0  0  0  0  0  0  0  0  0  0  0
  131.5210  123.2977   59.8417 H   0  0  0  0  0  0  0  0  0  0  0  0
  133.2158  123.9376   59.8596 H   0  0  0  0  0  0  0  0  0  0  0  0
  131.7831  129.4939   61.6343 H   0  0  0  0  0  0  0  0  0  0  0  0
  130.2211  131.9300   62.6846 H   0  0  0  0  0  0  0  0  0  0  0  0
  129.8855  133.3750   61.6716 H   0  0  0  0  0  0  0  0  0  0  0  0
  128.7390  131.9922   61.6716 H   0  0  0  0  0  0  0  0  0  0  0  0
  130.0060  132.6296   58.4721 H   0  0  0  0  0  0  0  0  0  0  0  0
  129.9512  131.2777   57.2906 H   0  0  0  0  0  0  0  0  0  0  0  0
  128.6572  132.5235   57.2906 H   0  0  0  0  0  0  0  0  0  0  0  0
  129.5827  128.5090   56.6937 H   0  0  0  0  0  0  0  0  0  0  0  0
  128.0923  127.6458   56.1836 H   0  0  0  0  0  0  0  0  0  0  0  0
  128.1346  129.4416   56.1836 H   0  0  0  0  0  0  0  0  0  0  0  0
  128.6706  126.1074   58.4755 H   0  0  0  0  0  0  0  0  0  0  0  0
  129.8610  123.8216   58.3076 H   0  0  0  0  0  0  0  0  0  0  0  0
  130.6706  123.2501   59.8459 H   0  0  0  0  0  0  0  0  0  0  0  0
  1  2  1  0
  2  3  1  0
  3  4  1  0
  4  5  1  0
  5  6  1  0
  6  7  1  0
  7  8  2  0
  7  9  1  0
  9 10  2  0
 10 11  1  0
 11 12  1  0
 12 13  2  0
 13 14  1  0
 14 15  1  0
 14 16  2  0
 16 17  1  0
 17 18  2  0
  6 19  1  0
 19 20  1  0
 20 21  1  0
 21 22  2  0
 21 23  1  0
 23 24  1  0
 24 25  1  0
 25 26  1  0
 26 27  1  0
 27 28  1  0
 28 29  1  0
 29 30  1  0
 29 31  1  0
 31 32  2  0
 32 33  1  0
 33 34  2  0
 34 35  1  0
 35 36  1  0
 36 37  1  0
 35 38  2  0
 38 39  1  0
 39 40  1  0
 38 41  1  0
 41 42  1  0
 42 43  1  0
 41 44  2  0
 44 45  1  0
 45 46  2  0
 46 47  1  0
 47  3  1  0
 18  9  1  0
 30 25  1  0
 46 31  1  0
 17 11  1  0
 44 33  1  0
  1 48  1  0
  1 49  1  0
  1 50  1  0
  2 51  1  0
  2 52  1  0
  4 53  1  0
  4 54  1  0
  5 55  1  0
  5 56  1  0
 10 57  1  0
 12 58  1  0
 13 59  1  0
 15 60  1  0
 15 61  1  0
 15 62  1  0
 16 63  1  0
 19 64  1  0
 19 65  1  0
 20 66  1  0
 20 67  1  0
 23 68  1  0
 24 69  1  0
 24 70  1  0
 25 71  1  1
 26 72  1  0
 26 73  1  0
 27 74  1  0
 27 75  1  0
 28 76  1  0
 28 77  1  0
 30 78  1  0
 30 79  1  0
 34 80  1  0
 37 81  1  0
 37 82  1  0
 37 83  1  0
 40 84  1  0
 40 85  1  0
 40 86  1  0
 43 87  1  0
 43 88  1  0
 43 89  1  0
 45 90  1  0
 47 91  1  0
 47 92  1  0
M  END
>  <Binding energies>  (1) 
[-4.63]

>  <Ligand effiencies>  (1) 
[-0.0926]

>  <Interactions>  (1) 
["V-A:ILE:369:CG2:3237, V-B:PRO:540:CA:9855, V-A:GLU:543:CA:4904, V-A:GLY:454:CA:4049, V-B:GLU:543:CB:9878, V-B:ALA:541:CB:9864, V-B:TYR:539:CE2:9848, V-A:TYR:484:CE2:4346, V-B:GLU:543:CG:9879, V-B:TYR:539:C:9839, V-A:ASP:366:CG:3213, V-B:TYR:539:CZ:9849, V-A:TYR:484:CZ:4347, V-A:GLU:543:CD:4908, V-B:GLU:543:CA:9876, V-B:HIS:456:CE1:9041, V-B:PRO:540:N:9856, V-A:ILE:369:CD1:3239, V-A:HIS:456:CE1:4070, V-B:TYR:539:CD2:9846, V-A:GLU:543:CG:4907, V-A:SER:385:CB:3409, H-A:SER:385:OG:3410, V-A:MET:535:CE:4835, V-B:GLU:543:CD:9880, V-A:LEU:475:CD2:4259, H-A:ARG:545:NH2:4928, V-A:ARG:545:CZ:4926, V-A:GLU:543:CB:4906, V-A:PRO:540:CA:4883, V-B:PRO:540:C:9853, V-B:ALA:541:CA:9862, V-B:TYR:539:CE1:9847"]

$$$$
ZINC1857725665-again1
     RDKit          3D

 93 98  0  0  0  0  0  0  0  0999 V2000
  127.7860  123.0920   57.4220 C   0  0  0  0  0  0  0  0  0  0  0  0
  127.3620  123.8790   58.6750 C   0  0  0  0  0  0  0  0  0  0  0  0
  127.6650  125.3170   58.6000 N   0  0  0  0  0  0  0  0  0  0  0  0
  127.4900  126.0300   59.8730 C   0  0  0  0  0  0  0  0  0  0  0  0
  127.5260  125.1430   61.1410 C   0  0  0  0  0  0  0  0  0  0  0  0
  128.5740  125.5620   62.0890 N   0  0  0  0  0  0  0  0  0  0  0  0
  128.5210  126.7970   62.6750 C   0  0  0  0  0  0  0  0  0  0  0  0
  128.2540  127.8150   62.0270 O   0  0  0  0  0  0  0  0  0  0  0  0
  128.8340  126.9420   64.0910 C   0  0  0  0  0  0  0  0  0  0  0  0
  129.5260  125.9700   64.8290 C   0  0  0  0  0  0  0  0  0  0  0  0
  129.5620  126.4080   66.1260 N   0  0  0  0  0  0  0  0  0  0  0  0
  130.1180  125.8810   67.2610 C   0  0  0  0  0  0  0  0  0  0  0  0
  129.9790  126.5670   68.4650 C   0  0  0  0  0  0  0  0  0  0  0  0
  129.2730  127.7720   68.5080 C   0  0  0  0  0  0  0  0  0  0  0  0
  129.1320  128.5190   69.8220 C   0  0  0  0  0  0  0  0  0  0  0  0
  128.7070  128.3080   67.3450 C   0  0  0  0  0  0  0  0  0  0  0  0
  128.8500  127.6150   66.1290 C   0  0  0  0  0  0  0  0  0  0  0  0
  128.3930  127.9080   64.8860 N   0  0  0  0  0  0  0  0  0  0  0  0
  129.5600  124.5040   62.3660 C   0  0  0  0  0  0  0  0  0  0  0  0
  128.9560  123.0930   62.5840 C   0  0  0  0  0  0  0  0  0  0  0  0
  128.7660  122.2490   61.3080 C   0  0  0  0  0  0  0  0  0  0  0  0
  127.6510  122.1360   60.8020 O   0  0  0  0  0  0  0  0  0  0  0  0
  129.8150  121.6110   60.7580 N   0  0  0  0  0  0  0  0  0  0  0  0
  131.2270  121.6920   61.1400 C   0  0  0  0  0  0  0  0  0  0  0  0
  131.9100  123.0120   60.7270 C   0  0  1  0  0  0  0  0  0  0  0  0
  133.2390  122.7660   59.9790 C   0  0  0  0  0  0  0  0  0  0  0  0
  133.8710  124.1020   59.5410 C   0  0  0  0  0  0  0  0  0  0  0  0
  132.8810  125.0140   58.7710 C   0  0  0  0  0  0  0  0  0  0  0  0
  131.6320  125.2180   59.5470 N   0  0  0  0  0  0  0  0  0  0  0  0
  130.9840  123.9220   59.8730 C   0  0  0  0  0  0  0  0  0  0  0  0
  130.8860  126.4450   59.5300 C   0  0  0  0  0  0  0  0  0  0  0  0
  131.3390  127.4470   60.3110 N   0  0  0  0  0  0  0  0  0  0  0  0
  130.8180  128.7180   60.3570 C   0  0  0  0  0  0  0  0  0  0  0  0
  131.3830  129.7020   61.1890 C   0  0  0  0  0  0  0  0  0  0  0  0
  130.8320  130.9910   61.2130 C   0  0  0  0  0  0  0  0  0  0  0  0
  131.3190  132.0170   62.0020 O   0  0  0  0  0  0  0  0  0  0  0  0
  132.5580  131.8480   62.6860 C   0  0  0  0  0  0  0  0  0  0  0  0
  129.7200  131.2830   60.4120 C   0  0  0  0  0  0  0  0  0  0  0  0
  129.1870  132.5490   60.4700 O   0  0  0  0  0  0  0  0  0  0  0  0
  128.4620  132.8300   61.6600 C   0  0  0  0  0  0  0  0  0  0  0  0
  129.1630  130.3180   59.5530 C   0  0  0  0  0  0  0  0  0  0  0  0
  128.0770  130.6100   58.7600 O   0  0  0  0  0  0  0  0  0  0  0  0
  126.8100  130.4660   59.3900 C   0  0  0  0  0  0  0  0  0  0  0  0
  129.7020  129.0030   59.5260 C   0  0  0  0  0  0  0  0  0  0  0  0
  129.1730  127.9620   58.7190 C   0  0  0  0  0  0  0  0  0  0  0  0
  129.7330  126.6790   58.7430 C   0  0  0  0  0  0  0  0  0  0  0  0
  128.9800  125.5700   57.9930 C   0  0  0  0  0  0  0  0  0  0  0  0
  128.2874  122.1613   57.7258 H   0  0  0  0  0  0  0  0  0  0  0  0
  126.8961  122.8502   56.8223 H   0  0  0  0  0  0  0  0  0  0  0  0
  128.4775  123.7021   56.8223 H   0  0  0  0  0  0  0  0  0  0  0  0
  126.2769  123.7592   58.8099 H   0  0  0  0  0  0  0  0  0  0  0  0
  127.9370  123.4726   59.5201 H   0  0  0  0  0  0  0  0  0  0  0  0
  128.2941  126.7758   59.9576 H   0  0  0  0  0  0  0  0  0  0  0  0
  126.4819  126.4689   59.8386 H   0  0  0  0  0  0  0  0  0  0  0  0
  126.5495  125.2050   61.6436 H   0  0  0  0  0  0  0  0  0  0  0  0
  127.7513  124.1138   60.8247 H   0  0  0  0  0  0  0  0  0  0  0  0
  129.9569  125.0355   64.4404 H   0  0  0  0  0  0  0  0  0  0  0  0
  130.6671  124.9286   67.2223 H   0  0  0  0  0  0  0  0  0  0  0  0
  130.4258  126.1594   69.3838 H   0  0  0  0  0  0  0  0  0  0  0  0
  129.2644  127.8173   70.6587 H   0  0  0  0  0  0  0  0  0  0  0  0
  129.8973  129.3071   69.8797 H   0  0  0  0  0  0  0  0  0  0  0  0
  128.1321  128.9739   69.8797 H   0  0  0  0  0  0  0  0  0  0  0  0
  128.1569  129.2599   67.3816 H   0  0  0  0  0  0  0  0  0  0  0  0
  130.2538  124.4513   61.5140 H   0  0  0  0  0  0  0  0  0  0  0  0
  130.0523  124.7793   63.3104 H   0  0  0  0  0  0  0  0  0  0  0  0
  129.6236  122.5392   63.2605 H   0  0  0  0  0  0  0  0  0  0  0  0
  127.9475  123.2555   62.9920 H   0  0  0  0  0  0  0  0  0  0  0  0
  129.6250  121.0400   59.9460 H   0  0  0  0  0  0  0  0  0  0  0  0
  131.2965  121.5931   62.2333 H   0  0  0  0  0  0  0  0  0  0  0  0
  131.7489  120.8820   60.6094 H   0  0  0  0  0  0  0  0  0  0  0  0
  132.1289  123.5391   61.6673 H   0  0  0  0  0  0  0  0  0  0  0  0
  133.9365  122.2376   60.6456 H   0  0  0  0  0  0  0  0  0  0  0  0
  133.0350  122.1601   59.0839 H   0  0  0  0  0  0  0  0  0  0  0  0
  134.2167  124.6374   60.4376 H   0  0  0  0  0  0  0  0  0  0  0  0
  134.7015  123.8665   58.8592 H   0  0  0  0  0  0  0  0  0  0  0  0
  133.3562  125.9896   58.5912 H   0  0  0  0  0  0  0  0  0  0  0  0
  132.6259  124.5281   57.8177 H   0  0  0  0  0  0  0  0  0  0  0  0
  130.0597  124.1179   60.4362 H   0  0  0  0  0  0  0  0  0  0  0  0
  130.7688  123.4004   58.9287 H   0  0  0  0  0  0  0  0  0  0  0  0
  132.1490  127.2530   60.8830 H   0  0  0  0  0  0  0  0  0  0  0  0
  132.2529  129.4611   61.8177 H   0  0  0  0  0  0  0  0  0  0  0  0
  132.3836  131.8718   63.7718 H   0  0  0  0  0  0  0  0  0  0  0  0
  133.0019  130.8810   62.4070 H   0  0  0  0  0  0  0  0  0  0  0  0
  133.2447  132.6608   62.4070 H   0  0  0  0  0  0  0  0  0  0  0  0
  129.0845  132.5887   62.5342 H   0  0  0  0  0  0  0  0  0  0  0  0
  128.1948  133.8968   61.6833 H   0  0  0  0  0  0  0  0  0  0  0  0
  127.5457  132.2219   61.6833 H   0  0  0  0  0  0  0  0  0  0  0  0
  126.9398  130.4808   60.4822 H   0  0  0  0  0  0  0  0  0  0  0  0
  126.1537  131.2953   59.0875 H   0  0  0  0  0  0  0  0  0  0  0  0
  126.3566  129.5105   59.0875 H   0  0  0  0  0  0  0  0  0  0  0  0
  128.3116  128.1660   58.0660 H   0  0  0  0  0  0  0  0  0  0  0  0
  128.8391  125.8766   56.9460 H   0  0  0  0  0  0  0  0  0  0  0  0
  129.5737  124.6457   58.0495 H   0  0  0  0  0  0  0  0  0  0  0  0
  1  2  1  0
  2  3  1  0
  3  4  1  0
  4  5  1  0
  5  6  1  0
  6  7  1  0
  7  8  2  0
  7  9  1  0
  9 10  2  0
 10 11  1  0
 11 12  1  0
 12 13  2  0
 13 14  1  0
 14 15  1  0
 14 16  2  0
 16 17  1  0
 17 18  2  0
  6 19  1  0
 19 20  1  0
 20 21  1  0
 21 22  2  0
 21 23  1  0
 23 24  1  0
 24 25  1  0
 25 26  1  0
 26 27  1  0
 27 28  1  0
 28 29  1  0
 29 30  1  0
 29 31  1  0
 31 32  2  0
 32 33  1  0
 33 34  2  0
 34 35  1  0
 35 36  1  0
 36 37  1  0
 35 38  2  0
 38 39  1  0
 39 40  1  0
 38 41  1  0
 41 42  1  0
 42 43  1  0
 41 44  2  0
 44 45  1  0
 45 46  2  0
 46 47  1  0
 47  3  1  0
 18  9  1  0
 30 25  1  0
 46 31  1  0
 17 11  1  0
 44 33  1  0
  1 48  1  0
  1 49  1  0
  1 50  1  0
  2 51  1  0
  2 52  1  0
  4 53  1  0
  4 54  1  0
  5 55  1  0
  5 56  1  0
 10 57  1  0
 12 58  1  0
 13 59  1  0
 15 60  1  0
 15 61  1  0
 15 62  1  0
 16 63  1  0
 19 64  1  0
 19 65  1  0
 20 66  1  0
 20 67  1  0
 23 68  1  0
 24 69  1  0
 24 70  1  0
 25 71  1  1
 26 72  1  0
 26 73  1  0
 27 74  1  0
 27 75  1  0
 28 76  1  0
 28 77  1  0
 30 78  1  0
 30 79  1  0
 32 80  1  0
 34 81  1  0
 37 82  1  0
 37 83  1  0
 37 84  1  0
 40 85  1  0
 40 86  1  0
 40 87  1  0
 43 88  1  0
 43 89  1  0
 43 90  1  0
 45 91  1  0
 47 92  1  0
 47 93  1  0
M  CHG  1  32   1
M  END
>  <Binding energies>  (1) 
[-5.24]

>  <Ligand effiencies>  (1) 
[-0.1027450980392157]

>  <Interactions>  (1) 
["V-A:ILE:369:CG2:3237, V-A:ASP:366:CA:3210, V-B:PRO:540:CA:9855, V-A:ALA:541:C:4888, V-B:HIS:456:CD2:9039, V-A:ILE:369:CB:3236, V-A:GLU:543:C:4902, H-A:ALA:541:N:4891, V-B:GLU:543:CB:9878, V-B:ALA:541:CB:9864, V-B:TYR:539:CE2:9848, V-B:GLU:543:CG:9879, V-A:ASP:366:CG:3213, V-A:ASN:362:CB:3176, V-B:TYR:539:CZ:9849, H-B:ALA:541:N:9863, V-A:GLU:543:CD:4908, V-B:HIS:456:CE1:9041, V-A:ILE:369:CD1:3239, V-A:HIS:456:CE1:4070, V-B:TYR:539:CD2:9846, V-A:GLU:543:CG:4907, V-B:GLU:543:CD:9880, V-A:ASP:366:CB:3212, V-A:LEU:475:CD2:4259, V-B:TYR:539:CG:9844, V-A:GLU:543:CB:4906, H-A:ASP:366:OD1:3214, V-B:TYR:539:CD1:9845, V-A:PRO:540:CB:4885, H-B:TYR:539:O:9840, H-A:ASP:366:OD2:3215, V-B:TYR:539:CE1:9847"]

$$$$
ZINC1857725744
     RDKit          3D

 96102  0  0  0  0  0  0  0  0999 V2000
  128.7680  127.4690   69.6770 C   0  0  0  0  0  0  0  0  0  0  0  0
  127.8050  127.3010   68.6420 O   0  0  0  0  0  0  0  0  0  0  0  0
  128.2140  127.3220   67.3200 C   0  0  0  0  0  0  0  0  0  0  0  0
  129.0700  126.3660   66.7570 C   0  0  0  0  0  0  0  0  0  0  0  0
  129.4570  126.4500   65.4010 C   0  0  0  0  0  0  0  0  0  0  0  0
  130.2980  125.5040   64.9050 N   0  0  0  0  0  0  0  0  0  0  0  0
  130.6730  125.5550   63.5970 C   0  0  0  0  0  0  0  0  0  0  0  0
  130.2500  126.5870   62.7400 C   0  0  0  0  0  0  0  0  0  0  0  0
  129.3780  127.5560   63.2420 C   0  0  0  0  0  0  0  0  0  0  0  0
  128.9610  127.5130   64.5960 C   0  0  0  0  0  0  0  0  0  0  0  0
  128.0820  128.4700   65.1710 C   0  0  0  0  0  0  0  0  0  0  0  0
  127.6000  129.4970   64.3920 O   0  0  0  0  0  0  0  0  0  0  0  0
  128.3820  130.6830   64.4250 C   0  0  0  0  0  0  0  0  0  0  0  0
  127.7390  128.3720   66.5280 C   0  0  0  0  0  0  0  0  0  0  0  0
  126.9050  129.3030   67.1030 O   0  0  0  0  0  0  0  0  0  0  0  0
  125.5240  129.1070   66.8320 C   0  0  0  0  0  0  0  0  0  0  0  0
  130.6650  126.6730   61.2670 C   0  0  0  0  0  0  0  0  0  0  0  0
  130.8080  128.0480   60.7610 N   0  0  0  0  0  0  0  0  0  0  0  0
  129.5100  128.7210   60.6010 C   0  0  0  0  0  0  0  0  0  0  0  0
  129.5830  130.1710   61.0390 C   0  0  0  0  0  0  0  0  0  0  0  0
  128.7540  131.2650   60.8580 C   0  0  0  0  0  0  0  0  0  0  0  0
  129.3490  132.3390   61.5320 C   0  0  0  0  0  0  0  0  0  0  0  0
  128.8510  133.7560   61.6860 C   0  0  0  0  0  0  0  0  0  0  0  0
  130.4900  131.9760   62.0750 N   0  0  0  0  0  0  0  0  0  0  0  0
  130.6260  130.6830   61.7650 N   0  0  0  0  0  0  0  0  0  0  0  0
  131.5230  128.0600   59.4750 C   0  0  0  0  0  0  0  0  0  0  0  0
  130.6260  127.6990   58.2690 C   0  0  0  0  0  0  0  0  0  0  0  0
  130.3050  126.2630   58.2050 N   0  0  0  0  0  0  0  0  0  0  0  0
  129.0450  125.8260   58.4910 C   0  0  0  0  0  0  0  0  0  0  0  0
  128.0490  126.2710   57.9150 O   0  0  0  0  0  0  0  0  0  0  0  0
  128.8430  124.7440   59.5270 C   0  0  0  0  0  0  0  0  0  0  0  0
  127.9730  124.9350   60.6250 C   0  0  0  0  0  0  0  0  0  0  0  0
  127.8070  123.9470   61.6040 C   0  0  0  0  0  0  0  0  0  0  0  0
  128.5340  122.7720   61.4590 C   0  0  0  0  0  0  0  0  0  0  0  0
  129.3940  122.5820   60.4150 C   0  0  0  0  0  0  0  0  0  0  0  0
  129.5860  123.5510   59.4360 C   0  0  0  0  0  0  0  0  0  0  0  0
  130.0030  121.3740   60.5480 O   0  0  0  0  0  0  0  0  0  0  0  0
  129.3310  120.7250   61.5960 C   0  0  0  0  0  0  0  0  0  0  0  0
  128.5760  121.6900   62.2800 O   0  0  0  0  0  0  0  0  0  0  0  0
  131.4340  125.3740   57.8710 C   0  0  0  0  0  0  0  0  0  0  0  0
  132.2590  124.8440   59.0710 C   0  0  0  0  0  0  0  0  0  0  0  0
  133.6170  124.2530   58.6450 C   0  0  0  0  0  0  0  0  0  0  0  0
  133.7360  123.8080   57.5060 O   0  0  0  0  0  0  0  0  0  0  0  0
  134.6680  124.2330   59.4900 N   0  0  0  0  0  0  0  0  0  0  0  0
  134.7120  124.6820   60.8830 C   0  0  0  0  0  0  0  0  0  0  0  0
  133.6030  124.0780   61.7820 C   0  0  1  0  0  0  0  0  0  0  0  0
  134.0490  122.9450   62.7210 C   0  0  0  0  0  0  0  0  0  0  0  0
  132.8310  122.4150   63.4980 C   0  0  0  0  0  0  0  0  0  0  0  0
  132.0150  123.5590   64.1490 C   0  0  0  0  0  0  0  0  0  0  0  0
  131.5990  124.6010   63.1850 N   0  0  0  0  0  0  0  0  0  0  0  0
  132.8430  125.1410   62.6080 C   0  0  0  0  0  0  0  0  0  0  0  0
  128.2733  127.3827   70.6557 H   0  0  0  0  0  0  0  0  0  0  0  0
  129.5418  126.6923   69.5875 H   0  0  0  0  0  0  0  0  0  0  0  0
  129.2330  128.4618   69.5875 H   0  0  0  0  0  0  0  0  0  0  0  0
  129.4453  125.5398   67.3787 H   0  0  0  0  0  0  0  0  0  0  0  0
  129.0128  128.3571   62.5826 H   0  0  0  0  0  0  0  0  0  0  0  0
  128.5705  130.9689   65.4703 H   0  0  0  0  0  0  0  0  0  0  0  0
  129.3402  130.5047   63.9151 H   0  0  0  0  0  0  0  0  0  0  0  0
  127.8406  131.4935   63.9151 H   0  0  0  0  0  0  0  0  0  0  0  0
  124.9718  129.0286   67.7801 H   0  0  0  0  0  0  0  0  0  0  0  0
  125.1393  129.9596   66.2530 H   0  0  0  0  0  0  0  0  0  0  0  0
  125.3918  128.1811   66.2530 H   0  0  0  0  0  0  0  0  0  0  0  0
  131.6309  126.1599   61.1499 H   0  0  0  0  0  0  0  0  0  0  0  0
  129.8599  126.2028   60.6832 H   0  0  0  0  0  0  0  0  0  0  0  0
  129.2138  128.6810   59.5424 H   0  0  0  0  0  0  0  0  0  0  0  0
  128.7713  128.2047   61.2318 H   0  0  0  0  0  0  0  0  0  0  0  0
  127.8100  131.2866   60.2937 H   0  0  0  0  0  0  0  0  0  0  0  0
  128.7651  134.0003   62.7551 H   0  0  0  0  0  0  0  0  0  0  0  0
  129.5599  134.4478   61.2076 H   0  0  0  0  0  0  0  0  0  0  0  0
  127.8652  133.8522   61.2076 H   0  0  0  0  0  0  0  0  0  0  0  0
  131.4250  130.1460   62.0680 H   0  0  0  0  0  0  0  0  0  0  0  0
  131.9341  129.0676   59.3143 H   0  0  0  0  0  0  0  0  0  0  0  0
  132.3100  127.2938   59.5345 H   0  0  0  0  0  0  0  0  0  0  0  0
  129.6866  128.2658   58.3478 H   0  0  0  0  0  0  0  0  0  0  0  0
  131.1819  127.9548   57.3549 H   0  0  0  0  0  0  0  0  0  0  0  0
  127.4150  125.8789   60.7123 H   0  0  0  0  0  0  0  0  0  0  0  0
  127.1267  124.0958   62.4555 H   0  0  0  0  0  0  0  0  0  0  0  0
  130.2984  123.3901   58.6134 H   0  0  0  0  0  0  0  0  0  0  0  0
  128.6667  119.9476   61.1907 H   0  0  0  0  0  0  0  0  0  0  0  0
  130.0499  120.2447   62.2761 H   0  0  0  0  0  0  0  0  0  0  0  0
  131.0299  124.5054   57.3304 H   0  0  0  0  0  0  0  0  0  0  0  0
  132.1301  125.9876   57.2803 H   0  0  0  0  0  0  0  0  0  0  0  0
  132.4402  125.6755   59.7680 H   0  0  0  0  0  0  0  0  0  0  0  0
  131.6788  124.0370   59.5423 H   0  0  0  0  0  0  0  0  0  0  0  0
  135.5300  123.8450   59.1370 H   0  0  0  0  0  0  0  0  0  0  0  0
  135.6885  124.4017   61.3048 H   0  0  0  0  0  0  0  0  0  0  0  0
  134.5493  125.7698   60.8692 H   0  0  0  0  0  0  0  0  0  0  0  0
  132.9270  123.6302   61.0387 H   0  0  0  0  0  0  0  0  0  0  0  0
  134.4895  122.1295   62.1286 H   0  0  0  0  0  0  0  0  0  0  0  0
  134.7979  123.3287   63.4295 H   0  0  0  0  0  0  0  0  0  0  0  0
  132.1791  121.8644   62.8038 H   0  0  0  0  0  0  0  0  0  0  0  0
  133.1994  121.7607   64.3018 H   0  0  0  0  0  0  0  0  0  0  0  0
  131.1132  123.1276   64.6080 H   0  0  0  0  0  0  0  0  0  0  0  0
  132.6663  124.0428   64.8918 H   0  0  0  0  0  0  0  0  0  0  0  0
  132.5928  125.9886   61.9530 H   0  0  0  0  0  0  0  0  0  0  0  0
  133.4935  125.4590   63.4361 H   0  0  0  0  0  0  0  0  0  0  0  0
  1  2  1  0
  2  3  1  0
  3  4  2  0
  4  5  1  0
  5  6  2  0
  6  7  1  0
  7  8  2  0
  8  9  1  0
  9 10  2  0
 10 11  1  0
 11 12  1  0
 12 13  1  0
 11 14  2  0
 14 15  1  0
 15 16  1  0
  8 17  1  0
 17 18  1  0
 18 19  1  0
 19 20  1  0
 20 21  2  0
 21 22  1  0
 22 23  1  0
 22 24  2  0
 24 25  1  0
 18 26  1  0
 26 27  1  0
 27 28  1  0
 28 29  1  0
 29 30  2  0
 29 31  1  0
 31 32  2  0
 32 33  1  0
 33 34  2  0
 34 35  1  0
 35 36  2  0
 35 37  1  0
 37 38  1  0
 38 39  1  0
 28 40  1  0
 40 41  1  0
 41 42  1  0
 42 43  2  0
 42 44  1  0
 44 45  1  0
 45 46  1  0
 46 47  1  0
 47 48  1  0
 48 49  1  0
 49 50  1  0
 50 51  1  0
 14  3  1  0
 25 20  1  0
 36 31  1  0
 51 46  1  0
 10  5  1  0
 39 34  1  0
 50  7  1  0
  1 52  1  0
  1 53  1  0
  1 54  1  0
  4 55  1  0
  9 56  1  0
 13 57  1  0
 13 58  1  0
 13 59  1  0
 16 60  1  0
 16 61  1  0
 16 62  1  0
 17 63  1  0
 17 64  1  0
 19 65  1  0
 19 66  1  0
 21 67  1  0
 23 68  1  0
 23 69  1  0
 23 70  1  0
 25 71  1  0
 26 72  1  0
 26 73  1  0
 27 74  1  0
 27 75  1  0
 32 76  1  0
 33 77  1  0
 36 78  1  0
 38 79  1  0
 38 80  1  0
 40 81  1  0
 40 82  1  0
 41 83  1  0
 41 84  1  0
 44 85  1  0
 45 86  1  0
 45 87  1  0
 46 88  1  6
 47 89  1  0
 47 90  1  0
 48 91  1  0
 48 92  1  0
 49 93  1  0
 49 94  1  0
 51 95  1  0
 51 96  1  0
M  END
>  <Binding energies>  (1) 
[-4.54]

>  <Ligand effiencies>  (1) 
[-0.08254545454545455]

>  <Interactions>  (1) 
["V-A:ILE:369:CG2:3237, V-A:ASP:366:CA:3210, V-B:PRO:540:CA:9855, V-A:GLY:454:CA:4049, V-A:ILE:369:CB:3236, H-A:ALA:541:N:4891, H-A:CYS:365:O:3206, V-B:GLU:543:CB:9878, V-A:PRO:540:C:4881, V-B:ALA:541:CB:9864, V-B:TYR:539:CE2:9848, V-B:GLU:543:CG:9879, V-A:ASP:366:CG:3213, V-B:ARG:545:CD:9895, V-B:TYR:539:CZ:9849, H-A:ASN:370:N:3244, H-B:TYR:539:OH:9850, V-A:ALA:541:CB:4892, V-B:ARG:545:CG:9894, H-B:ALA:541:N:9863, V-A:GLU:543:CD:4908, H-B:TYR:484:OH:9319, V-B:HIS:456:CE1:9041, V-A:GLY:453:C:4042, V-B:TYR:484:CZ:9318, V-A:ILE:369:CD1:3239, V-A:ASP:366:C:3208, V-B:TYR:539:CD2:9846, V-A:GLU:543:CG:4907, V-B:GLU:543:CD:9880, V-A:TYR:539:C:4867, V-A:ASP:366:CB:3212, V-A:ILE:369:CG1:3238, V-A:LEU:475:CD2:4259, V-A:ARG:545:CZ:4926, H-A:GLU:543:OE1:4909, H-A:ASP:366:O:3209, V-A:PRO:540:CA:4883, V-B:PRO:540:C:9853, H-A:ASP:366:OD2:3215, V-B:ALA:541:CA:9862"]

$$$$
ZINC1857726128
     RDKit          3D

 79 84  0  0  0  0  0  0  0  0999 V2000
  129.6640  124.6390   67.5820 C   0  0  0  0  0  0  0  0  0  0  0  0
  129.8330  125.9970   67.1890 O   0  0  0  0  0  0  0  0  0  0  0  0
  129.6550  126.3510   65.8630 C   0  0  0  0  0  0  0  0  0  0  0  0
  128.7480  127.3320   65.4340 C   0  0  0  0  0  0  0  0  0  0  0  0
  128.6250  127.6430   64.0820 C   0  0  0  0  0  0  0  0  0  0  0  0
  129.3940  126.9510   63.1490 C   0  0  0  0  0  0  0  0  0  0  0  0
  130.3220  125.9730   63.5340 C   0  0  0  0  0  0  0  0  0  0  0  0
  130.4520  125.6940   64.9120 C   0  0  0  0  0  0  0  0  0  0  0  0
  131.3740  124.7800   65.3670 O   0  0  0  0  0  0  0  0  0  0  0  0
  132.6380  125.3430   65.6930 C   0  0  0  0  0  0  0  0  0  0  0  0
  131.1430  125.2930   62.4790 C   0  0  0  0  0  0  0  0  0  0  0  0
  131.6470  123.9970   62.6510 C   0  0  0  0  0  0  0  0  0  0  0  0
  132.4170  123.3910   61.6620 C   0  0  0  0  0  0  0  0  0  0  0  0
  132.6890  124.0690   60.4750 C   0  0  0  0  0  0  0  0  0  0  0  0
  132.1790  125.3610   60.2460 C   0  0  0  0  0  0  0  0  0  0  0  0
  131.4220  125.9460   61.2700 C   0  0  0  0  0  0  0  0  0  0  0  0
  132.5060  126.0900   58.9350 C   0  0  1  0  0  0  0  0  0  0  0  0
  133.0210  125.0950   57.8790 C   0  0  0  0  0  0  0  0  0  0  0  0
  134.0360  124.1240   58.5080 C   0  0  0  0  0  0  0  0  0  0  0  0
  133.4100  123.3530   59.5350 O   0  0  0  0  0  0  0  0  0  0  0  0
  131.4720  126.9920   58.4100 N   0  0  0  0  0  0  0  0  0  0  0  0
  130.1660  127.0890   58.7310 C   0  0  0  0  0  0  0  0  0  0  0  0
  129.4820  127.9720   58.2160 O   0  0  0  0  0  0  0  0  0  0  0  0
  129.5310  126.1100   59.7440 C   0  0  0  0  0  0  0  0  0  0  0  0
  128.2280  126.5850   60.4490 C   0  0  0  0  0  0  0  0  0  0  0  0
  127.0020  126.6740   59.6300 N   0  0  0  0  0  0  0  0  0  0  0  0
  126.6850  125.6780   58.7550 C   0  0  0  0  0  0  0  0  0  0  0  0
  125.8840  125.8040   57.8280 O   0  0  0  0  0  0  0  0  0  0  0  0
  127.3680  124.4260   58.9050 C   0  0  0  0  0  0  0  0  0  0  0  0
  127.9250  123.5790   57.9370 C   0  0  0  0  0  0  0  0  0  0  0  0
  128.0310  123.7680   56.4380 C   0  0  0  0  0  0  0  0  0  0  0  0
  128.4380  122.4900   58.4790 N   0  0  0  0  0  0  0  0  0  0  0  0
  128.2250  122.6020   59.7690 C   0  0  0  0  0  0  0  0  0  0  0  0
  128.5640  121.6330   61.1920 S   0  0  0  0  0  0  0  0  0  0  0  0
  127.7900  122.8560   62.1910 C   0  0  0  0  0  0  0  0  0  0  0  0
  127.3150  123.9240   61.4600 C   0  0  0  0  0  0  0  0  0  0  0  0
  127.5710  123.7690   60.1070 N   0  0  0  0  0  0  0  0  0  0  0  0
  126.2450  127.9310   59.8000 C   0  0  0  0  0  0  0  0  0  0  0  0
  126.7440  128.8020   60.9710 C   0  0  0  0  0  0  0  0  0  0  0  0
  128.0640  129.3850   60.7260 N   0  0  0  0  0  0  0  0  0  0  0  0
  128.8910  129.9410   61.6320 C   0  0  0  0  0  0  0  0  0  0  0  0
  129.9780  130.4010   61.2840 O   0  0  0  0  0  0  0  0  0  0  0  0
  128.4640  129.9830   63.1110 C   0  0  0  0  0  0  0  0  0  0  0  0
  127.6850  128.7470   63.6150 C   0  0  0  0  0  0  0  0  0  0  0  0
  129.6558  124.5734   68.6800 H   0  0  0  0  0  0  0  0  0  0  0  0
  128.7115  124.2582   67.1848 H   0  0  0  0  0  0  0  0  0  0  0  0
  130.4941  124.0363   67.1848 H   0  0  0  0  0  0  0  0  0  0  0  0
  128.1279  127.8607   66.1729 H   0  0  0  0  0  0  0  0  0  0  0  0
  129.2696  127.1783   62.0800 H   0  0  0  0  0  0  0  0  0  0  0  0
  132.7468  125.3914   66.7865 H   0  0  0  0  0  0  0  0  0  0  0  0
  133.4381  124.7162   65.2724 H   0  0  0  0  0  0  0  0  0  0  0  0
  132.7072  126.3570   65.2724 H   0  0  0  0  0  0  0  0  0  0  0  0
  131.4312  123.4505   63.5809 H   0  0  0  0  0  0  0  0  0  0  0  0
  132.8112  122.3759   61.8176 H   0  0  0  0  0  0  0  0  0  0  0  0
  131.0294  126.9623   61.1186 H   0  0  0  0  0  0  0  0  0  0  0  0
  133.3116  126.7917   59.1969 H   0  0  0  0  0  0  0  0  0  0  0  0
  132.1726  124.5221   57.4764 H   0  0  0  0  0  0  0  0  0  0  0  0
  133.5155  125.6551   57.0717 H   0  0  0  0  0  0  0  0  0  0  0  0
  134.4223  123.4483   57.7307 H   0  0  0  0  0  0  0  0  0  0  0  0
  134.8621  124.7028   58.9467 H   0  0  0  0  0  0  0  0  0  0  0  0
  131.8170  127.6750   57.7510 H   0  0  0  0  0  0  0  0  0  0  0  0
  129.2994  125.1782   59.2073 H   0  0  0  0  0  0  0  0  0  0  0  0
  130.2735  126.0031   60.5485 H   0  0  0  0  0  0  0  0  0  0  0  0
  128.0243  125.8838   61.2716 H   0  0  0  0  0  0  0  0  0  0  0  0
  128.4366  127.6211   60.7540 H   0  0  0  0  0  0  0  0  0  0  0  0
  128.5588  124.7090   56.2235 H   0  0  0  0  0  0  0  0  0  0  0  0
  128.5890  122.9268   56.0009 H   0  0  0  0  0  0  0  0  0  0  0  0
  127.0223  123.8055   56.0009 H   0  0  0  0  0  0  0  0  0  0  0  0
  127.6949  122.7771   63.2840 H   0  0  0  0  0  0  0  0  0  0  0  0
  126.7974  124.7910   61.8963 H   0  0  0  0  0  0  0  0  0  0  0  0
  126.3295  128.5154   58.8719 H   0  0  0  0  0  0  0  0  0  0  0  0
  125.2055  127.6519   60.0272 H   0  0  0  0  0  0  0  0  0  0  0  0
  126.0245  129.6182   61.1326 H   0  0  0  0  0  0  0  0  0  0  0  0
  126.8298  128.1507   61.8533 H   0  0  0  0  0  0  0  0  0  0  0  0
  128.3780  129.3610   59.7660 H   0  0  0  0  0  0  0  0  0  0  0  0
  129.3724  130.0836   63.7231 H   0  0  0  0  0  0  0  0  0  0  0  0
  127.7717  130.8331   63.2010 H   0  0  0  0  0  0  0  0  0  0  0  0
  127.0429  129.0483   64.4558 H   0  0  0  0  0  0  0  0  0  0  0  0
  127.0833  128.3563   62.7811 H   0  0  0  0  0  0  0  0  0  0  0  0
  1  2  1  0
  2  3  1  0
  3  4  2  0
  4  5  1  0
  5  6  2  0
  6  7  1  0
  7  8  2  0
  8  9  1  0
  9 10  1  0
  7 11  1  0
 11 12  2  0
 12 13  1  0
 13 14  2  0
 14 15  1  0
 15 16  2  0
 15 17  1  0
 17 18  1  0
 18 19  1  0
 19 20  1  0
 17 21  1  0
 21 22  1  0
 22 23  2  0
 22 24  1  0
 24 25  1  0
 25 26  1  0
 26 27  1  0
 27 28  2  0
 27 29  1  0
 29 30  2  0
 30 31  1  0
 30 32  1  0
 32 33  2  0
 33 34  1  0
 34 35  1  0
 35 36  2  0
 36 37  1  0
 26 38  1  0
 38 39  1  0
 39 40  1  0
 40 41  1  0
 41 42  2  0
 41 43  1  0
 43 44  1  0
  8  3  1  0
 16 11  1  0
 37 29  1  0
 44  5  1  0
 20 14  1  0
 37 33  1  0
  1 45  1  0
  1 46  1  0
  1 47  1  0
  4 48  1  0
  6 49  1  0
 10 50  1  0
 10 51  1  0
 10 52  1  0
 12 53  1  0
 13 54  1  0
 16 55  1  0
 17 56  1  1
 18 57  1  0
 18 58  1  0
 19 59  1  0
 19 60  1  0
 21 61  1  0
 24 62  1  0
 24 63  1  0
 25 64  1  0
 25 65  1  0
 31 66  1  0
 31 67  1  0
 31 68  1  0
 35 69  1  0
 36 70  1  0
 38 71  1  0
 38 72  1  0
 39 73  1  0
 39 74  1  0
 40 75  1  0
 43 76  1  0
 43 77  1  0
 44 78  1  0
 44 79  1  0
M  END
>  <Binding energies>  (1) 
[-3.72]

>  <Ligand effiencies>  (1) 
[-0.0775]

>  <Interactions>  (1) 
["V-A:ILE:369:CG2:3237, V-A:ASP:366:CA:3210, V-B:PRO:540:CA:9855, V-B:GLU:543:C:9874, V-A:ILE:369:CB:3236, V-B:GLU:543:CB:9878, V-B:ALA:541:CB:9864, V-B:ASP:366:CG:8184, H-A:TYR:531:OH:4795, V-B:TYR:539:CE2:9848, V-A:TYR:484:CE2:4346, V-B:GLU:543:CG:9879, V-B:TYR:539:C:9839, V-A:ASP:366:CG:3213, V-B:TYR:539:CZ:9849, V-A:GLU:543:CD:4908, V-A:TYR:484:CZ:4347, V-B:GLU:543:CA:9876, V-B:PRO:540:N:9856, V-A:HIS:456:CE1:4070, V-A:ASP:366:C:3208, V-B:TYR:539:CD2:9846, V-B:GLU:543:CD:9880, H-B:TYR:531:OH:9767, V-A:ASP:366:CB:3212, V-A:ARG:545:CD:4923, V-A:ARG:545:CZ:4926, V-B:TYR:539:CD1:9845, V-B:PRO:540:C:9853, H-A:ASP:366:OD2:3215, V-B:ALA:541:CA:9862, V-B:TYR:539:CE1:9847, H-A:TYR:484:OH:4348"]

$$$$
ZINC1857726177
     RDKit          3D

 69 74  0  0  0  0  0  0  0  0999 V2000
  127.6140  128.2060   62.5580 C   0  0  0  0  0  0  0  0  0  0  0  0
  127.9560  128.9590   63.7150 O   0  0  0  0  0  0  0  0  0  0  0  0
  128.3530  128.2930   64.8590 C   0  0  0  0  0  0  0  0  0  0  0  0
  127.9600  128.8470   66.0770 C   0  0  0  0  0  0  0  0  0  0  0  0
  128.3120  128.2440   67.2840 C   0  0  0  0  0  0  0  0  0  0  0  0
  129.0720  127.0630   67.3020 C   0  0  0  0  0  0  0  0  0  0  0  0
  129.4500  126.4160   68.4650 O   0  0  0  0  0  0  0  0  0  0  0  0
  128.9040  126.8340   69.7100 C   0  0  0  0  0  0  0  0  0  0  0  0
  129.4670  126.5010   66.0790 C   0  0  0  0  0  0  0  0  0  0  0  0
  130.4510  124.9980   66.0470 S   0  0  0  0  0  0  0  0  0  0  0  0
  131.8460  125.3550   66.3270 O   0  0  0  0  0  0  0  0  0  0  0  0
  129.7540  124.0160   66.8860 O   0  0  0  0  0  0  0  0  0  0  0  0
  130.3720  124.4330   64.3800 N   0  0  0  0  0  0  0  0  0  0  0  0
  131.5100  124.6240   63.4680 C   0  0  0  0  0  0  0  0  0  0  0  0
  131.0240  123.8750   62.2320 C   0  0  2  0  0  0  0  0  0  0  0  0
  131.7920  124.1900   60.9470 C   0  0  0  0  0  0  0  0  0  0  0  0
  133.1390  123.8370   60.8050 C   0  0  0  0  0  0  0  0  0  0  0  0
  133.8400  124.1250   59.6390 C   0  0  0  0  0  0  0  0  0  0  0  0
  133.1990  124.7630   58.5810 C   0  0  0  0  0  0  0  0  0  0  0  0
  131.8520  125.1130   58.6700 C   0  0  0  0  0  0  0  0  0  0  0  0
  131.1600  124.8470   59.8740 C   0  0  0  0  0  0  0  0  0  0  0  0
  129.8220  125.1880   59.9200 O   0  0  0  0  0  0  0  0  0  0  0  0
  129.2520  125.3620   61.2110 C   0  0  0  0  0  0  0  0  0  0  0  0
  129.5010  124.1540   62.1520 C   0  0  1  0  0  0  0  0  0  0  0  0
  128.6840  122.8900   61.7260 C   0  0  0  0  0  0  0  0  0  0  0  0
  128.8550  122.4590   60.3340 N   0  0  0  0  0  0  0  0  0  0  0  0
  128.0720  122.6710   59.2610 C   0  0  0  0  0  0  0  0  0  0  0  0
  128.3320  122.0940   58.2060 O   0  0  0  0  0  0  0  0  0  0  0  0
  126.8530  123.6190   59.3200 C   0  0  0  0  0  0  0  0  0  0  0  0
  126.5620  124.4030   58.0030 C   0  0  0  0  0  0  0  0  0  0  0  0
  127.6180  125.4590   57.6870 C   0  0  0  0  0  0  0  0  0  0  0  0
  127.2690  126.8110   57.5980 C   0  0  0  0  0  0  0  0  0  0  0  0
  128.2580  127.7810   57.4250 C   0  0  0  0  0  0  0  0  0  0  0  0
  129.6030  127.4080   57.3860 C   0  0  0  0  0  0  0  0  0  0  0  0
  129.9650  126.0650   57.4900 C   0  0  0  0  0  0  0  0  0  0  0  0
  128.9600  125.0920   57.5560 C   0  0  0  0  0  0  0  0  0  0  0  0
  131.3040  125.7430   57.5620 O   0  0  0  0  0  0  0  0  0  0  0  0
  129.1140  124.5350   63.6070 C   0  0  0  0  0  0  0  0  0  0  0  0
  129.1140  127.1140   64.8710 C   0  0  0  0  0  0  0  0  0  0  0  0
  127.1769  127.2437   62.8628 H   0  0  0  0  0  0  0  0  0  0  0  0
  126.8825  128.7674   61.9582 H   0  0  0  0  0  0  0  0  0  0  0  0
  128.5180  128.0245   61.9582 H   0  0  0  0  0  0  0  0  0  0  0  0
  127.3645  129.7718   66.0857 H   0  0  0  0  0  0  0  0  0  0  0  0
  127.9908  128.6984   68.2329 H   0  0  0  0  0  0  0  0  0  0  0  0
  129.4841  126.3899   70.5324 H   0  0  0  0  0  0  0  0  0  0  0  0
  128.9488  127.9308   69.7803 H   0  0  0  0  0  0  0  0  0  0  0  0
  127.8569  126.5045   69.7803 H   0  0  0  0  0  0  0  0  0  0  0  0
  131.6808  125.6892   63.2532 H   0  0  0  0  0  0  0  0  0  0  0  0
  132.4723  124.2674   63.8641 H   0  0  0  0  0  0  0  0  0  0  0  0
  131.2224  122.7976   62.3314 H   0  0  0  0  0  0  0  0  0  0  0  0
  133.6524  123.3225   61.6307 H   0  0  0  0  0  0  0  0  0  0  0  0
  134.9012  123.8486   59.5528 H   0  0  0  0  0  0  0  0  0  0  0  0
  133.7613  124.9938   57.6642 H   0  0  0  0  0  0  0  0  0  0  0  0
  129.6913  126.2600   61.6699 H   0  0  0  0  0  0  0  0  0  0  0  0
  128.1641  125.4579   61.0799 H   0  0  0  0  0  0  0  0  0  0  0  0
  128.9872  122.0568   62.3770 H   0  0  0  0  0  0  0  0  0  0  0  0
  127.6251  123.1715   61.8239 H   0  0  0  0  0  0  0  0  0  0  0  0
  129.6320  121.8310   60.1910 H   0  0  0  0  0  0  0  0  0  0  0  0
  125.9645  123.0174   59.5622 H   0  0  0  0  0  0  0  0  0  0  0  0
  127.0895  124.3761   60.0821 H   0  0  0  0  0  0  0  0  0  0  0  0
  126.5245  123.6856   57.1699 H   0  0  0  0  0  0  0  0  0  0  0  0
  125.6049  124.9278   58.1392 H   0  0  0  0  0  0  0  0  0  0  0  0
  126.2126  127.1104   57.6645 H   0  0  0  0  0  0  0  0  0  0  0  0
  127.9776  128.8394   57.3194 H   0  0  0  0  0  0  0  0  0  0  0  0
  130.3811  128.1772   57.2727 H   0  0  0  0  0  0  0  0  0  0  0  0
  129.2300  124.0269   57.5041 H   0  0  0  0  0  0  0  0  0  0  0  0
  128.7192  125.5610   63.6455 H   0  0  0  0  0  0  0  0  0  0  0  0
  128.3285  123.8787   64.0098 H   0  0  0  0  0  0  0  0  0  0  0  0
  129.4370  126.6661   63.9197 H   0  0  0  0  0  0  0  0  0  0  0  0
  1  2  1  0
  2  3  1  0
  3  4  2  0
  4  5  1  0
  5  6  2  0
  6  7  1  0
  7  8  1  0
  6  9  1  0
  9 10  1  0
 10 11  2  0
 10 12  2  0
 10 13  1  0
 13 14  1  0
 14 15  1  0
 15 16  1  0
 16 17  2  0
 17 18  1  0
 18 19  2  0
 19 20  1  0
 20 21  2  0
 21 22  1  0
 22 23  1  0
 23 24  1  0
 24 25  1  6
 25 26  1  0
 26 27  1  0
 27 28  2  0
 27 29  1  0
 29 30  1  0
 30 31  1  0
 31 32  2  0
 32 33  1  0
 33 34  2  0
 34 35  1  0
 35 36  2  0
 35 37  1  0
 24 38  1  0
  9 39  2  0
 39  3  1  0
 38 13  1  0
 24 15  1  0
 36 31  1  0
 21 16  1  0
 37 20  1  0
  1 40  1  0
  1 41  1  0
  1 42  1  0
  4 43  1  0
  5 44  1  0
  8 45  1  0
  8 46  1  0
  8 47  1  0
 14 48  1  0
 14 49  1  0
 15 50  1  1
 17 51  1  0
 18 52  1  0
 19 53  1  0
 23 54  1  0
 23 55  1  0
 25 56  1  0
 25 57  1  0
 26 58  1  0
 29 59  1  0
 29 60  1  0
 30 61  1  0
 30 62  1  0
 32 63  1  0
 33 64  1  0
 34 65  1  0
 36 66  1  0
 38 67  1  0
 38 68  1  0
 39 69  1  0
M  END
>  <Binding energies>  (1) 
[-5.67]

>  <Ligand effiencies>  (1) 
[-0.135]

>  <Interactions>  (1) 
["V-A:ILE:369:CG2:3237, V-A:ASP:366:CA:3210, V-B:PRO:540:CA:9855, V-A:ILE:369:CB:3236, V-B:GLU:543:CB:9878, H-A:TYR:531:OH:4795, V-B:TYR:539:CE2:9848, V-A:TYR:484:CE2:4346, V-B:GLU:543:CG:9879, V-B:TYR:539:C:9839, V-A:ASP:366:CG:3213, V-B:TYR:539:CZ:9849, H-B:TYR:539:OH:9850, V-A:GLU:543:CD:4908, V-B:PRO:540:CB:9857, V-B:HIS:456:CE1:9041, V-B:PRO:540:N:9856, V-A:ILE:369:CD1:3239, V-A:HIS:456:CE1:4070, V-A:ASP:366:C:3208, V-B:TYR:539:CD2:9846, V-A:GLU:543:CG:4907, V-B:GLU:543:CD:9880, V-A:ASP:366:CB:3212, V-A:GLU:543:CB:4906, H-B:TYR:539:O:9840, H-A:TYR:484:OH:4348"]

$$$$
ZINC1857740662
     RDKit          3D

 86 89  0  0  0  0  0  0  0  0999 V2000
  127.5050  131.6420   59.5200 C   0  0  0  0  0  0  0  0  0  0  0  0
  128.9400  131.1650   59.6900 C   0  0  0  0  0  0  0  0  0  0  0  0
  129.6650  131.8470   60.5190 N   0  0  0  0  0  0  0  0  0  0  0  0
  131.0150  131.5330   60.7910 C   0  0  0  0  0  0  0  0  0  0  0  0
  131.7850  132.1020   61.5630 O   0  0  0  0  0  0  0  0  0  0  0  0
  131.5490  130.4720   60.1200 N   0  0  0  0  0  0  0  0  0  0  0  0
  130.8130  129.7310   59.2320 C   0  0  0  0  0  0  0  0  0  0  0  0
  131.6160  128.5830   58.6340 C   0  0  0  0  0  0  0  0  0  0  0  0
  129.5040  130.0190   58.9770 C   0  0  0  0  0  0  0  0  0  0  0  0
  128.6620  129.2200   57.9800 C   0  0  0  0  0  0  0  0  0  0  0  0
  128.3800  127.7680   58.4440 C   0  0  0  0  0  0  0  0  0  0  0  0
  126.8920  127.3400   58.4210 C   0  0  0  0  0  0  0  0  0  0  0  0
  126.0330  128.2030   58.6310 O   0  0  0  0  0  0  0  0  0  0  0  0
  126.5620  126.0510   58.1090 N   0  0  0  0  0  0  0  0  0  0  0  0
  126.9050  125.5600   56.7490 C   0  0  0  0  0  0  0  0  0  0  0  0
  127.1050  124.0190   56.6780 C   0  0  2  0  0  0  0  0  0  0  0  0
  125.9390  123.3290   57.3960 C   0  0  0  0  0  0  0  0  0  0  0  0
  125.9720  123.6950   58.8880 C   0  0  2  0  0  0  0  0  0  0  0  0
  125.7420  125.2290   59.0410 C   0  0  0  0  0  0  0  0  0  0  0  0
  127.3220  123.1560   59.4830 C   0  0  2  0  0  0  0  0  0  0  0  0
  127.3040  123.0650   61.0410 C   0  0  0  0  0  0  0  0  0  0  0  0
  128.6910  123.2680   61.7070 C   0  0  0  0  0  0  0  0  0  0  0  0
  129.1180  122.1590   62.7040 C   0  0  0  0  0  0  0  0  0  0  0  0
  129.2380  122.6310   64.1670 C   0  0  0  0  0  0  0  0  0  0  0  0
  128.4770  122.1640   65.0140 O   0  0  0  0  0  0  0  0  0  0  0  0
  130.1500  123.5520   64.5440 N   0  0  0  0  0  0  0  0  0  0  0  0
  131.1810  124.3090   63.8100 C   0  0  2  0  0  0  0  0  0  0  0  0
  132.0830  125.2740   64.6570 C   0  0  0  0  0  0  0  0  0  0  0  0
  133.5800  124.9060   64.5920 C   0  0  0  0  0  0  0  0  0  0  0  0
  131.6360  125.3610   66.1340 C   0  0  0  0  0  0  0  0  0  0  0  0
  130.7050  124.8330   62.4170 C   0  0  0  0  0  0  0  0  0  0  0  0
  131.2820  124.1350   61.1360 C   0  0  0  0  0  0  0  0  0  0  0  0
  131.7350  125.0320   59.9420 C   0  0  1  0  0  0  0  0  0  0  0  0
  133.1510  124.7520   59.3860 C   0  0  0  0  0  0  0  0  0  0  0  0
  130.6710  125.0730   58.8040 C   0  0  0  0  0  0  0  0  0  0  0  0
  129.2240  124.7990   59.2920 C   0  0  0  0  0  0  0  0  0  0  0  0
  128.7980  125.5360   60.1790 O   0  0  0  0  0  0  0  0  0  0  0  0
  128.4730  123.7860   58.7690 N   0  0  0  0  0  0  0  0  0  0  0  0
  128.4430  123.5230   57.3110 C   0  0  0  0  0  0  0  0  0  0  0  0
  127.0493  131.7935   60.5096 H   0  0  0  0  0  0  0  0  0  0  0  0
  127.4975  132.5910   58.9637 H   0  0  0  0  0  0  0  0  0  0  0  0
  126.9309  130.8864   58.9637 H   0  0  0  0  0  0  0  0  0  0  0  0
  132.5140  130.2510   60.3130 H   0  0  0  0  0  0  0  0  0  0  0  0
  132.0427  127.9730   59.4439 H   0  0  0  0  0  0  0  0  0  0  0  0
  130.9566  127.9587   58.0131 H   0  0  0  0  0  0  0  0  0  0  0  0
  132.4286  128.9883   58.0131 H   0  0  0  0  0  0  0  0  0  0  0  0
  127.7003  129.7359   57.8422 H   0  0  0  0  0  0  0  0  0  0  0  0
  129.2358  129.1581   57.0435 H   0  0  0  0  0  0  0  0  0  0  0  0
  128.9392  127.0868   57.7857 H   0  0  0  0  0  0  0  0  0  0  0  0
  128.6925  127.7207   59.4976 H   0  0  0  0  0  0  0  0  0  0  0  0
  126.0911  125.8375   56.0631 H   0  0  0  0  0  0  0  0  0  0  0  0
  127.8624  126.0238   56.4694 H   0  0  0  0  0  0  0  0  0  0  0  0
  127.1421  123.7599   55.6096 H   0  0  0  0  0  0  0  0  0  0  0  0
  124.9876  123.6635   56.9567 H   0  0  0  0  0  0  0  0  0  0  0  0
  126.0302  122.2387   57.2824 H   0  0  0  0  0  0  0  0  0  0  0  0
  125.1638  123.2235   59.4663 H   0  0  0  0  0  0  0  0  0  0  0  0
  124.6799  125.4421   58.8499 H   0  0  0  0  0  0  0  0  0  0  0  0
  126.0461  125.5002   60.0627 H   0  0  0  0  0  0  0  0  0  0  0  0
  127.4740  122.0877   59.2692 H   0  0  0  0  0  0  0  0  0  0  0  0
  126.6213  123.8380   61.4237 H   0  0  0  0  0  0  0  0  0  0  0  0
  126.9785  122.0452   61.2940 H   0  0  0  0  0  0  0  0  0  0  0  0
  129.4468  123.3168   60.9093 H   0  0  0  0  0  0  0  0  0  0  0  0
  128.6118  124.1928   62.2974 H   0  0  0  0  0  0  0  0  0  0  0  0
  128.3709  121.3527   62.6626 H   0  0  0  0  0  0  0  0  0  0  0  0
  130.1214  121.8293   62.3967 H   0  0  0  0  0  0  0  0  0  0  0  0
  130.1310  123.7740   65.5290 H   0  0  0  0  0  0  0  0  0  0  0  0
  131.9305  123.5454   63.5548 H   0  0  0  0  0  0  0  0  0  0  0  0
  131.9513  126.2628   64.1935 H   0  0  0  0  0  0  0  0  0  0  0  0
  133.9782  124.8081   65.6127 H   0  0  0  0  0  0  0  0  0  0  0  0
  133.7001  123.9516   64.0585 H   0  0  0  0  0  0  0  0  0  0  0  0
  134.1289  125.6959   64.0585 H   0  0  0  0  0  0  0  0  0  0  0  0
  132.5028  125.1923   66.7899 H   0  0  0  0  0  0  0  0  0  0  0  0
  131.2151  126.3579   66.3316 H   0  0  0  0  0  0  0  0  0  0  0  0
  130.8720  124.5947   66.3316 H   0  0  0  0  0  0  0  0  0  0  0  0
  129.6106  124.7272   62.3833 H   0  0  0  0  0  0  0  0  0  0  0  0
  131.0844  125.8642   62.3649 H   0  0  0  0  0  0  0  0  0  0  0  0
  132.1569  123.5479   61.4518 H   0  0  0  0  0  0  0  0  0  0  0  0
  130.4335  123.5606   60.7358 H   0  0  0  0  0  0  0  0  0  0  0  0
  131.8141  126.0344   60.3880 H   0  0  0  0  0  0  0  0  0  0  0  0
  133.8524  124.6133   60.2220 H   0  0  0  0  0  0  0  0  0  0  0  0
  133.1296  123.8407   58.7703 H   0  0  0  0  0  0  0  0  0  0  0  0
  133.4780  125.6029   58.7703 H   0  0  0  0  0  0  0  0  0  0  0  0
  130.6978  126.0697   58.3394 H   0  0  0  0  0  0  0  0  0  0  0  0
  130.9279  124.2721   58.0951 H   0  0  0  0  0  0  0  0  0  0  0  0
  129.2830  124.0490   56.8337 H   0  0  0  0  0  0  0  0  0  0  0  0
  128.5247  122.4379   57.1499 H   0  0  0  0  0  0  0  0  0  0  0  0
  1  2  1  0
  2  3  2  0
  3  4  1  0
  4  5  2  0
  4  6  1  0
  6  7  1  0
  7  8  1  0
  7  9  2  0
  9 10  1  0
 10 11  1  0
 11 12  1  0
 12 13  2  0
 12 14  1  0
 14 15  1  0
 15 16  1  0
 16 17  1  0
 17 18  1  0
 18 19  1  0
 18 20  1  0
 20 21  1  0
 21 22  1  0
 22 23  1  0
 23 24  1  0
 24 25  2  0
 24 26  1  0
 26 27  1  0
 27 28  1  0
 28 29  1  0
 28 30  1  0
 27 31  1  0
 31 32  1  0
 32 33  1  0
 33 34  1  0
 33 35  1  0
 35 36  1  0
 36 37  2  0
 36 38  1  0
 38 39  1  0
  9  2  1  0
 19 14  1  0
 38 20  1  0
 39 16  1  0
  1 40  1  0
  1 41  1  0
  1 42  1  0
  6 43  1  0
  8 44  1  0
  8 45  1  0
  8 46  1  0
 10 47  1  0
 10 48  1  0
 11 49  1  0
 11 50  1  0
 15 51  1  0
 15 52  1  0
 16 53  1  6
 17 54  1  0
 17 55  1  0
 18 56  1  1
 19 57  1  0
 19 58  1  0
 20 59  1  6
 21 60  1  0
 21 61  1  0
 22 62  1  0
 22 63  1  0
 23 64  1  0
 23 65  1  0
 26 66  1  0
 27 67  1  6
 28 68  1  0
 29 69  1  0
 29 70  1  0
 29 71  1  0
 30 72  1  0
 30 73  1  0
 30 74  1  0
 31 75  1  0
 31 76  1  0
 32 77  1  0
 32 78  1  0
 33 79  1  1
 34 80  1  0
 34 81  1  0
 34 82  1  0
 35 83  1  0
 35 84  1  0
 39 85  1  0
 39 86  1  0
M  END
>  <Binding energies>  (1) 
[-3.96]

>  <Ligand effiencies>  (1) 
[-0.09209302325581395]

>  <Interactions>  (1) 
["V-A:ASP:366:CA:3210, V-B:PRO:540:CA:9855, V-A:GLY:454:CA:4049, H-A:ALA:541:N:4891, V-B:ASP:366:CG:8184, V-B:ALA:541:CB:9864, V-B:TYR:539:CE2:9848, V-A:TYR:484:CE2:4346, V-B:GLU:543:CG:9879, V-A:ASP:366:CG:3213, V-B:TYR:539:CZ:9849, V-B:TYR:531:CZ:9766, V-A:TYR:484:CZ:4347, V-B:PRO:540:CB:9857, V-B:PRO:540:N:9856, V-A:HIS:456:CE1:4070, V-B:TYR:539:CD2:9846, H-B:TYR:531:OH:9767, V-A:ASP:366:CB:3212, V-A:ARG:545:CZ:4926, V-B:TYR:539:CD1:9845, V-A:PRO:540:CB:4885, V-A:PRO:540:CA:4883, V-B:PRO:540:C:9853, H-A:ASP:366:OD2:3215, V-B:TYR:539:CE1:9847, H-A:TYR:484:OH:4348"]

$$$$
ZINC1857740729
     RDKit          3D

 80 84  0  0  0  0  0  0  0  0999 V2000
  132.1920  121.6130   60.8860 C   0  0  0  0  0  0  0  0  0  0  0  0
  130.8490  121.0680   61.4210 C   0  0  0  0  0  0  0  0  0  0  0  0
  130.6460  119.6220   60.9170 C   0  0  0  0  0  0  0  0  0  0  0  0
  129.6550  122.0220   61.0830 C   0  0  2  0  0  0  0  0  0  0  0  0
  128.6430  122.3310   62.2370 C   0  0  0  0  0  0  0  0  0  0  0  0
  128.4300  123.8250   62.5970 C   0  0  0  0  0  0  0  0  0  0  0  0
  129.4520  124.5260   63.5480 C   0  0  1  0  0  0  0  0  0  0  0  0
  130.6340  123.6490   64.0210 C   0  0  0  0  0  0  0  0  0  0  0  0
  129.9320  125.8990   62.9800 C   0  0  0  0  0  0  0  0  0  0  0  0
  129.1570  126.3940   61.7300 C   0  0  0  0  0  0  0  0  0  0  0  0
  128.0080  125.9690   61.6000 O   0  0  0  0  0  0  0  0  0  0  0  0
  129.7400  127.2250   60.8160 N   0  0  0  0  0  0  0  0  0  0  0  0
  130.8080  128.1700   61.2190 C   0  0  0  0  0  0  0  0  0  0  0  0
  130.2770  129.6360   61.2470 C   0  0  1  0  0  0  0  0  0  0  0  0
  129.7260  129.9780   59.8590 C   0  0  0  0  0  0  0  0  0  0  0  0
  128.5860  129.0100   59.5130 C   0  0  2  0  0  0  0  0  0  0  0  0
  127.4160  129.2120   60.5220 C   0  0  0  0  0  0  0  0  0  0  0  0
  127.8480  129.3130   61.9430 N   0  0  0  0  0  0  0  0  0  0  0  0
  127.0530  128.8570   62.9610 C   0  0  0  0  0  0  0  0  0  0  0  0
  125.8770  128.5200   62.7980 O   0  0  0  0  0  0  0  0  0  0  0  0
  127.6090  128.7610   64.3600 C   0  0  0  0  0  0  0  0  0  0  0  0
  127.2410  129.6820   65.3490 C   0  0  0  0  0  0  0  0  0  0  0  0
  127.7070  129.6160   66.6240 N   0  0  0  0  0  0  0  0  0  0  0  0
  128.5550  128.5890   66.9000 C   0  0  0  0  0  0  0  0  0  0  0  0
  129.1050  128.4780   68.3180 C   0  0  0  0  0  0  0  0  0  0  0  0
  128.9350  127.2290   69.1600 C   0  0  0  0  0  0  0  0  0  0  0  0
  130.3030  127.6140   68.6570 C   0  0  0  0  0  0  0  0  0  0  0  0
  128.9620  127.6330   66.0240 N   0  0  0  0  0  0  0  0  0  0  0  0
  128.4730  127.7310   64.7590 C   0  0  0  0  0  0  0  0  0  0  0  0
  129.1740  129.8780   62.3130 C   0  0  0  0  0  0  0  0  0  0  0  0
  129.1730  127.5530   59.4710 C   0  0  2  0  0  0  0  0  0  0  0  0
  128.2230  126.5680   58.7140 C   0  0  0  0  0  0  0  0  0  0  0  0
  128.7340  125.1120   58.5840 C   0  0  0  0  0  0  0  0  0  0  0  0
  127.9340  124.0410   59.3630 C   0  0  0  0  0  0  0  0  0  0  0  0
  128.2550  122.5840   58.9790 C   0  0  0  0  0  0  0  0  0  0  0  0
  127.8170  122.1220   57.9260 O   0  0  0  0  0  0  0  0  0  0  0  0
  129.0220  121.8020   59.7670 N   0  0  0  0  0  0  0  0  0  0  0  0
  132.8435  121.8774   61.7320 H   0  0  0  0  0  0  0  0  0  0  0  0
  132.6821  120.8426   60.2726 H   0  0  0  0  0  0  0  0  0  0  0  0
  132.0066  122.5071   60.2726 H   0  0  0  0  0  0  0  0  0  0  0  0
  130.8799  121.0356   62.5201 H   0  0  0  0  0  0  0  0  0  0  0  0
  130.5508  118.9437   61.7777 H   0  0  0  0  0  0  0  0  0  0  0  0
  129.7319  119.5712   60.3072 H   0  0  0  0  0  0  0  0  0  0  0  0
  131.5108  119.3214   60.3072 H   0  0  0  0  0  0  0  0  0  0  0  0
  130.1873  122.9788   60.9775 H   0  0  0  0  0  0  0  0  0  0  0  0
  127.6671  121.9165   61.9441 H   0  0  0  0  0  0  0  0  0  0  0  0
  129.0841  121.8774   63.1368 H   0  0  0  0  0  0  0  0  0  0  0  0
  128.4301  124.3879   61.6519 H   0  0  0  0  0  0  0  0  0  0  0  0
  127.4907  123.8280   63.1695 H   0  0  0  0  0  0  0  0  0  0  0  0
  128.8765  124.7144   64.4663 H   0  0  0  0  0  0  0  0  0  0  0  0
  130.6595  123.6301   65.1205 H   0  0  0  0  0  0  0  0  0  0  0  0
  130.5066  122.6252   63.6395 H   0  0  0  0  0  0  0  0  0  0  0  0
  131.5769  124.0677   63.6395 H   0  0  0  0  0  0  0  0  0  0  0  0
  129.8216  126.6542   63.7721 H   0  0  0  0  0  0  0  0  0  0  0  0
  130.9744  125.7539   62.6601 H   0  0  0  0  0  0  0  0  0  0  0  0
  131.1682  127.8988   62.2224 H   0  0  0  0  0  0  0  0  0  0  0  0
  131.6255  128.1077   60.4857 H   0  0  0  0  0  0  0  0  0  0  0  0
  131.1213  130.2853   61.5219 H   0  0  0  0  0  0  0  0  0  0  0  0
  129.3446  131.0098   59.8591 H   0  0  0  0  0  0  0  0  0  0  0  0
  130.5275  129.8856   59.1113 H   0  0  0  0  0  0  0  0  0  0  0  0
  128.1570  129.2061   58.5193 H   0  0  0  0  0  0  0  0  0  0  0  0
  126.8864  130.1385   60.2555 H   0  0  0  0  0  0  0  0  0  0  0  0
  126.7765  128.3201   60.4481 H   0  0  0  0  0  0  0  0  0  0  0  0
  126.5462  130.4921   65.0828 H   0  0  0  0  0  0  0  0  0  0  0  0
  128.8494  129.5410   68.4392 H   0  0  0  0  0  0  0  0  0  0  0  0
  128.6986  127.3161   70.2308 H   0  0  0  0  0  0  0  0  0  0  0  0
  128.3086  126.3272   69.0944 H   0  0  0  0  0  0  0  0  0  0  0  0
  131.0640  127.9816   69.3611 H   0  0  0  0  0  0  0  0  0  0  0  0
  131.0864  127.1088   68.0730 H   0  0  0  0  0  0  0  0  0  0  0  0
  128.7669  126.9720   64.0190 H   0  0  0  0  0  0  0  0  0  0  0  0
  129.0613  130.9629   62.4556 H   0  0  0  0  0  0  0  0  0  0  0  0
  129.4967  129.3645   63.2307 H   0  0  0  0  0  0  0  0  0  0  0  0
  130.0551  127.4385   58.8238 H   0  0  0  0  0  0  0  0  0  0  0  0
  127.2636  126.5431   59.2515 H   0  0  0  0  0  0  0  0  0  0  0  0
  128.1476  126.9531   57.6864 H   0  0  0  0  0  0  0  0  0  0  0  0
  128.7104  124.8408   57.5182 H   0  0  0  0  0  0  0  0  0  0  0  0
  129.7411  125.1103   59.0263 H   0  0  0  0  0  0  0  0  0  0  0  0
  128.1482  124.1669   60.4346 H   0  0  0  0  0  0  0  0  0  0  0  0
  126.8759  124.2009   59.1084 H   0  0  0  0  0  0  0  0  0  0  0  0
  129.1760  120.8710   59.4080 H   0  0  0  0  0  0  0  0  0  0  0  0
  1  2  1  0
  2  3  1  0
  2  4  1  0
  4  5  1  0
  5  6  1  0
  6  7  1  0
  7  8  1  0
  7  9  1  0
  9 10  1  0
 10 11  2  0
 10 12  1  0
 12 13  1  0
 13 14  1  0
 14 15  1  0
 15 16  1  0
 16 17  1  0
 17 18  1  0
 18 19  1  0
 19 20  2  0
 19 21  1  0
 21 22  2  0
 22 23  1  0
 23 24  2  0
 24 25  1  0
 25 26  1  0
 26 27  1  0
 24 28  1  0
 28 29  2  0
 18 30  1  0
 16 31  1  0
 31 32  1  0
 32 33  1  0
 33 34  1  0
 34 35  1  0
 35 36  2  0
 35 37  1  0
 37  4  1  0
 31 12  1  0
 30 14  1  0
 29 21  1  0
 27 25  1  0
  1 38  1  0
  1 39  1  0
  1 40  1  0
  2 41  1  0
  3 42  1  0
  3 43  1  0
  3 44  1  0
  4 45  1  6
  5 46  1  0
  5 47  1  0
  6 48  1  0
  6 49  1  0
  7 50  1  1
  8 51  1  0
  8 52  1  0
  8 53  1  0
  9 54  1  0
  9 55  1  0
 13 56  1  0
 13 57  1  0
 14 58  1  1
 15 59  1  0
 15 60  1  0
 16 61  1  6
 17 62  1  0
 17 63  1  0
 22 64  1  0
 25 65  1  0
 26 66  1  0
 26 67  1  0
 27 68  1  0
 27 69  1  0
 29 70  1  0
 30 71  1  0
 30 72  1  0
 31 73  1  6
 32 74  1  0
 32 75  1  0
 33 76  1  0
 33 77  1  0
 34 78  1  0
 34 79  1  0
 37 80  1  0
M  END
>  <Binding energies>  (1) 
[-4.09]

>  <Ligand effiencies>  (1) 
[-0.10225]

>  <Interactions>  (1) 
["V-B:PRO:540:CA:9855, V-A:GLU:543:CA:4904, V-B:ALA:541:CB:9864, V-B:TYR:539:CE2:9848, H-B:TYR:539:N:9842, V-B:GLU:543:CG:9879, V-B:TYR:539:C:9839, V-A:GLU:543:CD:4908, H-B:TYR:484:OH:9319, V-B:HIS:456:CE1:9041, V-B:PRO:540:N:9856, V-B:TYR:484:CZ:9318, V-A:HIS:456:CE1:4070, V-B:TYR:539:CD2:9846, V-A:GLU:543:CG:4907, V-B:GLU:543:CD:9880, V-A:LEU:475:CD2:4259, V-B:TYR:539:CG:9844, H-B:ARG:545:NH2:9900, V-A:GLU:543:CB:4906, H-B:TYR:539:O:9840, V-B:ALA:541:CA:9862"]

$$$$
ZINC1857742379
     RDKit          3D

 59 60  0  0  0  0  0  0  0  0999 V2000
  128.8100  127.3540   63.0360 C   0  0  0  0  0  0  0  0  0  0  0  0
  129.8040  126.9140   61.9690 C   0  0  0  0  0  0  0  0  0  0  0  0
  130.9960  126.7500   62.2330 O   0  0  0  0  0  0  0  0  0  0  0  0
  129.2200  126.7610   60.7620 O   0  0  0  0  0  0  0  0  0  0  0  0
  128.8840  125.4740   60.2250 C   0  0  2  0  0  0  0  0  0  0  0  0
  128.9260  124.3970   61.3430 C   0  0  0  0  0  0  0  0  0  0  0  0
  128.0260  123.1740   61.1410 C   0  0  0  0  0  0  0  0  0  0  0  0
  126.5870  123.4880   60.7530 C   0  0  0  0  0  0  0  0  0  0  0  0
  128.4380  121.8910   61.2570 C   0  0  0  0  0  0  0  0  0  0  0  0
  129.8390  121.3750   61.5340 C   0  0  0  0  0  0  0  0  0  0  0  0
  130.9530  122.3470   61.0970 C   0  0  0  0  0  0  0  0  0  0  0  0
  132.2430  122.3100   61.9650 C   0  0  1  0  0  0  0  0  0  0  0  0
  133.4420  121.7220   61.1980 C   0  0  0  0  0  0  0  0  0  0  0  0
  132.6180  123.6790   62.5940 C   0  0  0  0  0  0  0  0  0  0  0  0
  134.0120  124.2140   62.2360 C   0  0  0  0  0  0  0  0  0  0  0  0
  134.8370  124.5120   63.1000 O   0  0  0  0  0  0  0  0  0  0  0  0
  134.3400  124.3790   60.7470 C   0  0  0  0  0  0  0  0  0  0  0  0
  133.1470  124.8550   59.9190 C   0  0  0  0  0  0  0  0  0  0  0  0
  132.0320  125.5360   60.2130 C   0  0  0  0  0  0  0  0  0  0  0  0
  131.1980  125.7340   58.9740 C   0  0  1  0  0  0  0  0  0  0  0  0
  132.0020  125.1240   57.9770 O   0  0  0  0  0  0  0  0  0  0  0  0
  133.1210  124.5870   58.4910 C   0  0  0  0  0  0  0  0  0  0  0  0
  133.9620  123.9800   57.8300 O   0  0  0  0  0  0  0  0  0  0  0  0
  129.7610  125.0920   58.9750 C   0  0  2  0  0  0  0  0  0  0  0  0
  128.9940  125.3200   57.6220 C   0  0  0  0  0  0  0  0  0  0  0  0
  127.9530  126.4630   57.7050 C   0  0  0  0  0  0  0  0  0  0  0  0
  128.2900  124.0640   57.0600 C   0  0  0  0  0  0  0  0  0  0  0  0
  129.2350  127.1659   64.0330 H   0  0  0  0  0  0  0  0  0  0  0  0
  128.6021  128.4282   62.9228 H   0  0  0  0  0  0  0  0  0  0  0  0
  127.8750  126.7857   62.9228 H   0  0  0  0  0  0  0  0  0  0  0  0
  127.8523  125.5232   59.8466 H   0  0  0  0  0  0  0  0  0  0  0  0
  129.9631  124.0399   61.4257 H   0  0  0  0  0  0  0  0  0  0  0  0
  128.5444  124.8962   62.2458 H   0  0  0  0  0  0  0  0  0  0  0  0
  125.9825  123.6199   61.6625 H   0  0  0  0  0  0  0  0  0  0  0  0
  126.5611  124.4129   60.1582 H   0  0  0  0  0  0  0  0  0  0  0  0
  126.1782  122.6579   60.1582 H   0  0  0  0  0  0  0  0  0  0  0  0
  127.6592  121.1238   61.1352 H   0  0  0  0  0  0  0  0  0  0  0  0
  129.9367  121.1977   62.6152 H   0  0  0  0  0  0  0  0  0  0  0  0
  129.9655  120.4542   60.9456 H   0  0  0  0  0  0  0  0  0  0  0  0
  131.2323  122.1011   60.0619 H   0  0  0  0  0  0  0  0  0  0  0  0
  130.5372  123.3589   61.2117 H   0  0  0  0  0  0  0  0  0  0  0  0
  131.9983  121.6378   62.8006 H   0  0  0  0  0  0  0  0  0  0  0  0
  134.1912  121.3546   61.9147 H   0  0  0  0  0  0  0  0  0  0  0  0
  133.1001  120.8893   60.5657 H   0  0  0  0  0  0  0  0  0  0  0  0
  133.8911  122.5021   60.5657 H   0  0  0  0  0  0  0  0  0  0  0  0
  131.8756  124.4192   62.2609 H   0  0  0  0  0  0  0  0  0  0  0  0
  132.6279  123.5176   63.6821 H   0  0  0  0  0  0  0  0  0  0  0  0
  135.1515  125.1149   60.6468 H   0  0  0  0  0  0  0  0  0  0  0  0
  134.6311  123.3898   60.3639 H   0  0  0  0  0  0  0  0  0  0  0  0
  131.7634  125.8990   61.2160 H   0  0  0  0  0  0  0  0  0  0  0  0
  130.9697  126.8019   58.8416 H   0  0  0  0  0  0  0  0  0  0  0  0
  129.9405  124.0106   59.0664 H   0  0  0  0  0  0  0  0  0  0  0  0
  129.8009  125.5967   56.9275 H   0  0  0  0  0  0  0  0  0  0  0  0
  127.7439  126.6926   58.7603 H   0  0  0  0  0  0  0  0  0  0  0  0
  128.3518  127.3590   57.2069 H   0  0  0  0  0  0  0  0  0  0  0  0
  127.0237  126.1495   57.2069 H   0  0  0  0  0  0  0  0  0  0  0  0
  127.9386  123.4371   57.8928 H   0  0  0  0  0  0  0  0  0  0  0  0
  127.4317  124.3697   56.4436 H   0  0  0  0  0  0  0  0  0  0  0  0
  128.9986  123.4914   56.4436 H   0  0  0  0  0  0  0  0  0  0  0  0
  1  2  1  0
  2  3  2  0
  2  4  1  0
  4  5  1  0
  5  6  1  0
  6  7  1  0
  7  8  1  0
  7  9  2  0
  9 10  1  0
 10 11  1  0
 11 12  1  0
 12 13  1  0
 12 14  1  0
 14 15  1  0
 15 16  2  0
 15 17  1  0
 17 18  1  0
 18 19  2  0
 19 20  1  0
 20 21  1  0
 21 22  1  0
 22 23  2  0
 20 24  1  0
 24 25  1  0
 25 26  1  0
 25 27  1  0
 24  5  1  0
 22 18  1  0
  1 28  1  0
  1 29  1  0
  1 30  1  0
  5 31  1  6
  6 32  1  0
  6 33  1  0
  8 34  1  0
  8 35  1  0
  8 36  1  0
  9 37  1  0
 10 38  1  0
 10 39  1  0
 11 40  1  0
 11 41  1  0
 12 42  1  1
 13 43  1  0
 13 44  1  0
 13 45  1  0
 14 46  1  0
 14 47  1  0
 17 48  1  0
 17 49  1  0
 19 50  1  0
 20 51  1  6
 24 52  1  1
 25 53  1  0
 26 54  1  0
 26 55  1  0
 26 56  1  0
 27 57  1  0
 27 58  1  0
 27 59  1  0
M  END
>  <Binding energies>  (1) 
[-4.21]

>  <Ligand effiencies>  (1) 
[-0.14517241379310344]

>  <Interactions>  (1) 
["V-A:ILE:369:CG2:3237, V-A:ASP:366:CA:3210, V-B:PRO:540:CA:9855, V-B:ALA:541:CB:9864, H-A:ARG:545:NH1:4927, V-B:TYR:539:CE2:9848, V-A:ASP:366:CG:3213, V-B:TYR:539:CZ:9849, H-A:ASN:370:N:3244, H-B:TYR:539:OH:9850, V-A:GLU:543:CD:4908, V-B:PRO:540:CB:9857, H-A:GLY:454:N:4050, V-A:ILE:369:CD1:3239, V-B:TYR:539:CD2:9846, V-B:GLU:543:CD:9880, V-A:ASP:366:CB:3212, V-A:LEU:475:CD2:4259, H-A:ARG:545:NH2:4928, V-B:PRO:540:C:9853, V-B:TYR:539:CE1:9847"]

$$$$
ZINC1857747442
     RDKit          3D

 70 73  0  0  0  0  0  0  0  0999 V2000
  129.2010  126.1330   57.1700 C   0  0  0  0  0  0  0  0  0  0  0  0
  128.0580  126.8540   57.6180 O   0  0  0  0  0  0  0  0  0  0  0  0
  127.8970  127.1070   58.9690 C   0  0  0  0  0  0  0  0  0  0  0  0
  128.3420  126.2410   59.9810 C   0  0  0  0  0  0  0  0  0  0  0  0
  128.1460  126.5550   61.3230 C   0  0  0  0  0  0  0  0  0  0  0  0
  127.5010  127.7360   61.6940 C   0  0  0  0  0  0  0  0  0  0  0  0
  127.3100  128.0200   63.1340 C   0  0  0  0  0  0  0  0  0  0  0  0
  128.2840  128.2800   64.0340 C   0  0  0  0  0  0  0  0  0  0  0  0
  128.0230  128.5600   65.4510 C   0  0  0  0  0  0  0  0  0  0  0  0
  127.3140  129.5150   65.7800 O   0  0  0  0  0  0  0  0  0  0  0  0
  128.5550  127.6020   66.4760 C   0  0  0  0  0  0  0  0  0  0  0  0
  128.3260  127.8330   67.8410 C   0  0  0  0  0  0  0  0  0  0  0  0
  128.8140  126.9510   68.8060 C   0  0  0  0  0  0  0  0  0  0  0  0
  129.5450  125.8290   68.4220 C   0  0  0  0  0  0  0  0  0  0  0  0
  129.8020  125.5930   67.0700 C   0  0  0  0  0  0  0  0  0  0  0  0
  130.5330  124.4950   66.6860 O   0  0  0  0  0  0  0  0  0  0  0  0
  130.6380  124.2440   65.3370 C   0  0  0  0  0  0  0  0  0  0  0  0
  129.5590  123.6720   64.6580 C   0  0  0  0  0  0  0  0  0  0  0  0
  129.6210  123.4070   63.2900 C   0  0  0  0  0  0  0  0  0  0  0  0
  128.5100  122.8400   62.7100 O   0  0  0  0  0  0  0  0  0  0  0  0
  128.3470  123.3300   61.3910 N   0  0  0  0  0  0  0  0  0  0  0  0
  127.1200  123.2210   61.0470 N   0  0  0  0  0  0  0  0  0  0  0  0
  126.1450  122.8660   61.7800 O   0  0  0  0  0  0  0  0  0  0  0  0
  126.8210  123.7030   59.7410 N   0  0  0  0  0  0  0  0  0  0  0  0
  125.4930  124.3270   59.5750 C   0  0  0  0  0  0  0  0  0  0  0  0
  125.3760  125.0670   58.2260 C   0  0  0  0  0  0  0  0  0  0  0  0
  125.7170  124.1570   57.0380 C   0  0  0  0  0  0  0  0  0  0  0  0
  127.0780  123.4830   57.2620 C   0  0  0  0  0  0  0  0  0  0  0  0
  127.1610  122.7820   58.6350 C   0  0  0  0  0  0  0  0  0  0  0  0
  130.8070  123.6940   62.5820 C   0  0  0  0  0  0  0  0  0  0  0  0
  130.9580  123.3820   61.1450 N   0  0  0  0  0  0  0  0  0  0  0  0
  130.8590  124.2980   60.3340 O   0  0  0  0  0  0  0  0  0  0  0  0
  131.1600  122.2140   60.8290 O   0  0  0  0  0  0  0  0  0  0  0  0
  131.8770  124.2860   63.2640 C   0  0  0  0  0  0  0  0  0  0  0  0
  131.8080  124.5740   64.6330 C   0  0  0  0  0  0  0  0  0  0  0  0
  132.9690  125.2010   65.3080 N   0  0  0  0  0  0  0  0  0  0  0  0
  134.0810  125.0790   64.8060 O   0  0  0  0  0  0  0  0  0  0  0  0
  132.7670  125.8070   66.3560 O   0  0  0  0  0  0  0  0  0  0  0  0
  129.3240  126.4860   66.1080 C   0  0  0  0  0  0  0  0  0  0  0  0
  127.0580  128.6010   60.6840 C   0  0  0  0  0  0  0  0  0  0  0  0
  127.2490  128.2980   59.3240 C   0  0  0  0  0  0  0  0  0  0  0  0
  126.8270  129.1180   58.2910 O   0  0  0  0  0  0  0  0  0  0  0  0
  125.6260  129.8690   58.4330 C   0  0  0  0  0  0  0  0  0  0  0  0
  129.7714  125.7732   58.0390 H   0  0  0  0  0  0  0  0  0  0  0  0
  128.8782  125.2747   56.5624 H   0  0  0  0  0  0  0  0  0  0  0  0
  129.8365  126.7940   56.5624 H   0  0  0  0  0  0  0  0  0  0  0  0
  128.8511  125.3042   59.7103 H   0  0  0  0  0  0  0  0  0  0  0  0
  128.5038  125.8640   62.1005 H   0  0  0  0  0  0  0  0  0  0  0  0
  126.2754  128.0194   63.5077 H   0  0  0  0  0  0  0  0  0  0  0  0
  129.3276  128.2819   63.6863 H   0  0  0  0  0  0  0  0  0  0  0  0
  127.7552  128.7197   68.1540 H   0  0  0  0  0  0  0  0  0  0  0  0
  128.6211  127.1421   69.8720 H   0  0  0  0  0  0  0  0  0  0  0  0
  129.9196  125.1292   69.1836 H   0  0  0  0  0  0  0  0  0  0  0  0
  128.6421  123.4257   65.2136 H   0  0  0  0  0  0  0  0  0  0  0  0
  124.7225  123.5432   59.6199 H   0  0  0  0  0  0  0  0  0  0  0  0
  125.3552  125.0612   60.3825 H   0  0  0  0  0  0  0  0  0  0  0  0
  124.3447  125.4313   58.1094 H   0  0  0  0  0  0  0  0  0  0  0  0
  126.0946  125.8998   58.2325 H   0  0  0  0  0  0  0  0  0  0  0  0
  124.9407  123.3842   56.9373 H   0  0  0  0  0  0  0  0  0  0  0  0
  125.7628  124.7639   56.1217 H   0  0  0  0  0  0  0  0  0  0  0  0
  127.2374  122.7347   56.4717 H   0  0  0  0  0  0  0  0  0  0  0  0
  127.8514  124.2647   57.2339 H   0  0  0  0  0  0  0  0  0  0  0  0
  126.4578  121.9362   58.6465 H   0  0  0  0  0  0  0  0  0  0  0  0
  128.1951  122.4370   58.7818 H   0  0  0  0  0  0  0  0  0  0  0  0
  132.7954  124.5312   62.7104 H   0  0  0  0  0  0  0  0  0  0  0  0
  129.5534  126.3125   65.0463 H   0  0  0  0  0  0  0  0  0  0  0  0
  126.5502  129.5366   60.9609 H   0  0  0  0  0  0  0  0  0  0  0  0
  125.4044  130.0076   59.5015 H   0  0  0  0  0  0  0  0  0  0  0  0
  125.7490  130.8514   57.9536 H   0  0  0  0  0  0  0  0  0  0  0  0
  124.7966  129.3283   57.9536 H   0  0  0  0  0  0  0  0  0  0  0  0
  1  2  1  0
  2  3  1  0
  3  4  2  0
  4  5  1  0
  5  6  2  0
  6  7  1  0
  7  8  2  0
  8  9  1  0
  9 10  2  0
  9 11  1  0
 11 12  2  0
 12 13  1  0
 13 14  2  0
 14 15  1  0
 15 16  1  0
 16 17  1  0
 17 18  2  0
 18 19  1  0
 19 20  1  0
 20 21  1  0
 21 22  2  0
 22 23  1  0
 22 24  1  0
 24 25  1  0
 25 26  1  0
 26 27  1  0
 27 28  1  0
 28 29  1  0
 19 30  2  0
 30 31  1  0
 31 32  2  0
 31 33  1  0
 30 34  1  0
 34 35  2  0
 35 36  1  0
 36 37  2  0
 36 38  1  0
 15 39  2  0
  6 40  1  0
 40 41  2  0
 41 42  1  0
 42 43  1  0
 41  3  1  0
 39 11  1  0
 35 17  1  0
 29 24  1  0
  1 44  1  0
  1 45  1  0
  1 46  1  0
  4 47  1  0
  5 48  1  0
  7 49  1  0
  8 50  1  0
 12 51  1  0
 13 52  1  0
 14 53  1  0
 18 54  1  0
 25 55  1  0
 25 56  1  0
 26 57  1  0
 26 58  1  0
 27 59  1  0
 27 60  1  0
 28 61  1  0
 28 62  1  0
 29 63  1  0
 29 64  1  0
 34 65  1  0
 39 66  1  0
 40 67  1  0
 43 68  1  0
 43 69  1  0
 43 70  1  0
M  CHG  6  22   1  23  -1  31   1  33  -1  36   1  38  -1
M  END
>  <Binding energies>  (1) 
[-7.97]

>  <Ligand effiencies>  (1) 
[-0.18534883720930231]

>  <Interactions>  (1) 
["V-B:PRO:540:CA:9855, V-B:GLU:543:C:9874, V-B:GLU:543:CB:9878, H-A:ARG:545:NH1:4927, V-A:TYR:484:CE2:4346, V-B:GLU:543:CG:9879, V-B:TYR:539:C:9839, H-B:ALA:541:N:9863, V-A:GLU:543:CD:4908, V-B:ASP:366:CB:8183, V-A:TYR:484:CZ:4347, V-B:PRO:540:CB:9857, H-B:TYR:484:OH:9319, V-B:HIS:456:CE1:9041, H-A:GLY:454:N:4050, V-B:GLU:543:CA:9876, V-B:PRO:540:N:9856, V-A:HIS:456:CE1:4070, V-A:GLU:543:CG:4907, V-B:GLU:543:CD:9880, H-B:TYR:531:OH:9767, V-A:ARG:545:CD:4923, H-A:ARG:545:NH2:4928, V-A:ARG:545:CZ:4926, H-A:ARG:545:NE:4924, V-B:PRO:540:C:9853, V-B:MET:535:CE:9807, H-A:TYR:484:OH:4348"]

$$$$
ZINC1857754026
     RDKit          3D

 43 44  0  0  0  0  0  0  0  0999 V2000
  130.4630  125.8190   65.1200 C   0  0  0  0  0  0  0  0  0  0  0  0
  129.4640  126.6340   64.3200 C   0  0  0  0  0  0  0  0  0  0  0  0
  129.3180  126.5050   63.0210 N   0  0  0  0  0  0  0  0  0  0  0  0
  128.3990  127.3900   62.6880 C   0  0  0  0  0  0  0  0  0  0  0  0
  127.9510  128.1210   63.7810 C   0  0  0  0  0  0  0  0  0  0  0  0
  127.0210  129.2090   63.8470 N   0  0  0  0  0  0  0  0  0  0  0  0
  127.4880  130.3360   63.7250 O   0  0  0  0  0  0  0  0  0  0  0  0
  125.8360  128.9760   64.0630 O   0  0  0  0  0  0  0  0  0  0  0  0
  128.6250  127.5880   64.8690 N   0  0  0  0  0  0  0  0  0  0  0  0
  128.5170  127.9210   66.2370 C   0  0  0  0  0  0  0  0  0  0  0  0
  129.0530  127.0710   67.1450 C   0  0  0  0  0  0  0  0  0  0  0  0
  129.1160  127.2050   68.6140 C   0  0  0  0  0  0  0  0  0  0  0  0
  128.0220  126.9280   69.4370 C   0  0  0  0  0  0  0  0  0  0  0  0
  128.1230  127.0760   70.8170 C   0  0  0  0  0  0  0  0  0  0  0  0
  129.3160  127.5170   71.4160 C   0  0  0  0  0  0  0  0  0  0  0  0
  129.4200  127.6700   72.8280 N   0  0  0  0  0  0  0  0  0  0  0  0
  130.4870  126.9840   73.5580 C   0  0  0  0  0  0  0  0  0  0  0  0
  128.8260  128.8330   73.4860 C   0  0  0  0  0  0  0  0  0  0  0  0
  130.4050  127.7960   70.5730 C   0  0  0  0  0  0  0  0  0  0  0  0
  130.3050  127.6460   69.1930 C   0  0  0  0  0  0  0  0  0  0  0  0
  127.7550  129.2210   66.5500 C   0  0  2  0  0  0  0  0  0  0  0  0
  128.3510  130.1110   67.6580 C   0  0  0  0  0  0  0  0  0  0  0  0
  126.4210  128.9080   66.8940 O   0  0  0  0  0  0  0  0  0  0  0  0
  130.2807  125.9677   66.1946 H   0  0  0  0  0  0  0  0  0  0  0  0
  130.3485  124.7533   64.8727 H   0  0  0  0  0  0  0  0  0  0  0  0
  131.4840  126.1452   64.8727 H   0  0  0  0  0  0  0  0  0  0  0  0
  128.0293  127.5331   61.6619 H   0  0  0  0  0  0  0  0  0  0  0  0
  129.5027  126.1561   66.7317 H   0  0  0  0  0  0  0  0  0  0  0  0
  127.0745  126.5907   68.9915 H   0  0  0  0  0  0  0  0  0  0  0  0
  127.2541  126.8438   71.4503 H   0  0  0  0  0  0  0  0  0  0  0  0
  130.3192  127.0919   74.6398 H   0  0  0  0  0  0  0  0  0  0  0  0
  130.4862  125.9168   73.2915 H   0  0  0  0  0  0  0  0  0  0  0  0
  131.4576  127.4277   73.2915 H   0  0  0  0  0  0  0  0  0  0  0  0
  128.8893  128.7090   74.5772 H   0  0  0  0  0  0  0  0  0  0  0  0
  129.3708  129.7409   73.1879 H   0  0  0  0  0  0  0  0  0  0  0  0
  127.7711  128.9239   73.1879 H   0  0  0  0  0  0  0  0  0  0  0  0
  131.3536  128.1391   71.0117 H   0  0  0  0  0  0  0  0  0  0  0  0
  131.1704  127.8771   68.5545 H   0  0  0  0  0  0  0  0  0  0  0  0
  127.8309  129.8151   65.6273 H   0  0  0  0  0  0  0  0  0  0  0  0
  128.0779  129.7032   68.6424 H   0  0  0  0  0  0  0  0  0  0  0  0
  129.4465  130.1328   67.5612 H   0  0  0  0  0  0  0  0  0  0  0  0
  127.9540  131.1323   67.5612 H   0  0  0  0  0  0  0  0  0  0  0  0
  126.0140  128.4510   66.1530 H   0  0  0  0  0  0  0  0  0  0  0  0
  1  2  1  0
  2  3  2  0
  3  4  1  0
  4  5  2  0
  5  6  1  0
  6  7  2  0
  6  8  1  0
  5  9  1  0
  9 10  1  0
 10 11  2  0
 11 12  1  0
 12 13  2  0
 13 14  1  0
 14 15  2  0
 15 16  1  0
 16 17  1  0
 16 18  1  0
 15 19  1  0
 19 20  2  0
 10 21  1  0
 21 22  1  0
 21 23  1  0
  9  2  1  0
 20 12  1  0
  1 24  1  0
  1 25  1  0
  1 26  1  0
  4 27  1  0
 11 28  1  0
 13 29  1  0
 14 30  1  0
 17 31  1  0
 17 32  1  0
 17 33  1  0
 18 34  1  0
 18 35  1  0
 18 36  1  0
 19 37  1  0
 20 38  1  0
 21 39  1  6
 22 40  1  0
 22 41  1  0
 22 42  1  0
 23 43  1  0
M  CHG  2   6   1   8  -1
M  END
>  <Binding energies>  (1) 
[-5.39]

>  <Ligand effiencies>  (1) 
[-0.22458333333333333]

>  <Interactions>  (1) 
["V-A:GLU:543:CA:4904, V-B:GLU:543:C:9874, V-B:HIS:456:CD2:9039, V-A:GLU:543:C:4902, V-B:GLU:543:CB:9878, V-B:GLU:543:CG:9879, V-A:GLY:544:C:4912, V-A:HIS:456:CD2:4068, V-B:TYR:484:CE2:9317, V-A:GLU:543:CD:4908, H-B:TYR:484:OH:9319, V-B:HIS:456:CE1:9041, V-B:TYR:484:CZ:9318, V-A:HIS:456:CE1:4070, V-A:GLU:543:CG:4907, V-B:GLU:543:CD:9880, H-B:ARG:545:NH2:9900, V-A:GLU:543:CB:4906, H-B:GLU:543:OE2:9882"]

$$$$
ZINC1857755523
     RDKit          3D

 85 87  0  0  0  0  0  0  0  0999 V2000
  126.8610  125.7900   61.2960 C   0  0  0  0  0  0  0  0  0  0  0  0
  127.8980  125.6680   60.4490 C   0  0  0  0  0  0  0  0  0  0  0  0
  127.8640  126.2100   59.0010 C   0  0  1  0  0  0  0  0  0  0  0  0
  128.6810  127.3800   58.8830 O   0  0  0  0  0  0  0  0  0  0  0  0
  128.9700  127.9400   57.6860 C   0  0  0  0  0  0  0  0  0  0  0  0
  130.1260  128.9280   57.7760 C   0  0  0  0  0  0  0  0  0  0  0  0
  128.4000  127.7160   56.6170 O   0  0  0  0  0  0  0  0  0  0  0  0
  128.3750  125.1470   57.9810 C   0  0  0  0  0  0  0  0  0  0  0  0
  129.6490  124.3760   58.4450 C   0  0  0  0  0  0  0  0  0  0  0  0
  129.4690  123.7140   59.8640 C   0  0  1  0  0  0  0  0  0  0  0  0
  128.2490  122.7460   59.6420 C   0  0  0  0  0  0  0  0  0  0  0  0
  130.7860  122.9310   60.2040 C   0  0  0  0  0  0  0  0  0  0  0  0
  130.8830  121.9360   61.4130 C   0  0  2  0  0  0  0  0  0  0  0  0
  130.0850  120.7610   61.2610 O   0  0  0  0  0  0  0  0  0  0  0  0
  130.6280  119.5490   60.9930 C   0  0  0  0  0  0  0  0  0  0  0  0
  129.8650  118.4150   61.6630 C   0  0  0  0  0  0  0  0  0  0  0  0
  131.6240  119.3320   60.3010 O   0  0  0  0  0  0  0  0  0  0  0  0
  130.8050  122.5880   62.8130 C   0  0  0  0  0  0  0  0  0  0  0  0
  131.9400  123.0490   63.4260 C   0  0  0  0  0  0  0  0  0  0  0  0
  133.3550  122.7150   62.9650 C   0  0  0  0  0  0  0  0  0  0  0  0
  131.8760  123.9760   64.6600 C   0  0  0  0  0  0  0  0  0  0  0  0
  130.5740  124.8690   64.6940 C   0  0  2  0  0  0  0  0  0  0  0  0
  129.9570  125.0420   66.1030 C   0  0  0  0  0  0  0  0  0  0  0  0
  129.5830  124.0860   66.7850 O   0  0  0  0  0  0  0  0  0  0  0  0
  129.8790  126.4830   66.6520 C   0  0  1  0  0  0  0  0  0  0  0  0
  128.7440  127.2640   65.9520 C   0  0  0  0  0  0  0  0  0  0  0  0
  129.7950  126.5110   68.2080 C   0  0  2  0  0  0  0  0  0  0  0  0
  128.5100  127.1540   68.7640 C   0  0  0  0  0  0  0  0  0  0  0  0
  130.8870  127.2360   68.7510 O   0  0  0  0  0  0  0  0  0  0  0  0
  129.5100  124.4800   63.5960 C   0  0  1  0  0  0  0  0  0  0  0  0
  129.8240  125.2960   62.2560 C   0  0  1  0  0  0  0  0  0  0  0  0
  131.2470  125.5000   62.1070 O   0  0  0  0  0  0  0  0  0  0  0  0
  131.8000  126.0920   61.0180 C   0  0  0  0  0  0  0  0  0  0  0  0
  131.3390  127.5340   60.8560 C   0  0  0  0  0  0  0  0  0  0  0  0
  132.5860  125.5740   60.2250 O   0  0  0  0  0  0  0  0  0  0  0  0
  129.2350  125.0020   60.8010 C   0  0  2  0  0  0  0  0  0  0  0  0
  129.4400  122.9200   63.4780 C   0  0  0  0  0  0  0  0  0  0  0  0
  128.1160  122.5530   62.7700 C   0  0  0  0  0  0  0  0  0  0  0  0
  129.3660  122.1300   64.8270 C   0  0  0  0  0  0  0  0  0  0  0  0
  126.9345  125.3873   62.3170 H   0  0  0  0  0  0  0  0  0  0  0  0
  125.9391  126.2925   60.9680 H   0  0  0  0  0  0  0  0  0  0  0  0
  126.8160  126.4549   58.7735 H   0  0  0  0  0  0  0  0  0  0  0  0
  130.3577  129.1260   58.8329 H   0  0  0  0  0  0  0  0  0  0  0  0
  131.0111  128.5030   57.2800 H   0  0  0  0  0  0  0  0  0  0  0  0
  129.8440  129.8685   57.2800 H   0  0  0  0  0  0  0  0  0  0  0  0
  127.5709  124.4153   57.8134 H   0  0  0  0  0  0  0  0  0  0  0  0
  128.6516  125.6933   57.0672 H   0  0  0  0  0  0  0  0  0  0  0  0
  129.8698  123.5858   57.7123 H   0  0  0  0  0  0  0  0  0  0  0  0
  130.4723  125.1021   58.5163 H   0  0  0  0  0  0  0  0  0  0  0  0
  127.8500  122.4294   60.6170 H   0  0  0  0  0  0  0  0  0  0  0  0
  127.4637  123.2694   59.0769 H   0  0  0  0  0  0  0  0  0  0  0  0
  128.5802  121.8623   59.0769 H   0  0  0  0  0  0  0  0  0  0  0  0
  131.0353  122.3468   59.3059 H   0  0  0  0  0  0  0  0  0  0  0  0
  131.4564  123.7424   60.5235 H   0  0  0  0  0  0  0  0  0  0  0  0
  131.9211  121.5750   61.3692 H   0  0  0  0  0  0  0  0  0  0  0  0
  129.9360  118.5206   62.7556 H   0  0  0  0  0  0  0  0  0  0  0  0
  128.8086  118.4539   61.3588 H   0  0  0  0  0  0  0  0  0  0  0  0
  130.2990  117.4511   61.3588 H   0  0  0  0  0  0  0  0  0  0  0  0
  134.0002  122.5627   63.8428 H   0  0  0  0  0  0  0  0  0  0  0  0
  133.3363  121.7966   62.3599 H   0  0  0  0  0  0  0  0  0  0  0  0
  133.7490  123.5448   62.3599 H   0  0  0  0  0  0  0  0  0  0  0  0
  131.8983  123.3542   65.5671 H   0  0  0  0  0  0  0  0  0  0  0  0
  132.7396  124.6552   64.6064 H   0  0  0  0  0  0  0  0  0  0  0  0
  130.9301  125.8724   64.4178 H   0  0  0  0  0  0  0  0  0  0  0  0
  130.8171  127.0042   66.4106 H   0  0  0  0  0  0  0  0  0  0  0  0
  128.0877  127.7156   66.7105 H   0  0  0  0  0  0  0  0  0  0  0  0
  129.1773  128.0561   65.3236 H   0  0  0  0  0  0  0  0  0  0  0  0
  128.1591  126.5763   65.3236 H   0  0  0  0  0  0  0  0  0  0  0  0
  129.8072  125.4518   68.5045 H   0  0  0  0  0  0  0  0  0  0  0  0
  128.5389  127.1395   69.8635 H   0  0  0  0  0  0  0  0  0  0  0  0
  128.4388  128.1940   68.4127 H   0  0  0  0  0  0  0  0  0  0  0  0
  127.6349  126.5876   68.4127 H   0  0  0  0  0  0  0  0  0  0  0  0
  131.3570  127.6640   68.0310 H   0  0  0  0  0  0  0  0  0  0  0  0
  128.4856  124.7771   63.8650 H   0  0  0  0  0  0  0  0  0  0  0  0
  129.1797  126.1452   62.5274 H   0  0  0  0  0  0  0  0  0  0  0  0
  131.1944  127.9864   61.8482 H   0  0  0  0  0  0  0  0  0  0  0  0
  132.1003  128.1022   60.3014 H   0  0  0  0  0  0  0  0  0  0  0  0
  130.3893  127.5552   60.3014 H   0  0  0  0  0  0  0  0  0  0  0  0
  130.1861  125.4867   60.5355 H   0  0  0  0  0  0  0  0  0  0  0  0
  127.3441  122.3390   63.5239 H   0  0  0  0  0  0  0  0  0  0  0  0
  127.7909  123.3949   62.1411 H   0  0  0  0  0  0  0  0  0  0  0  0
  128.2707  121.6639   62.1411 H   0  0  0  0  0  0  0  0  0  0  0  0
  129.4320  122.8349   65.6688 H   0  0  0  0  0  0  0  0  0  0  0  0
  128.4127  121.5837   64.8802 H   0  0  0  0  0  0  0  0  0  0  0  0
  130.2012  121.4161   64.8802 H   0  0  0  0  0  0  0  0  0  0  0  0
  1  2  2  0
  2  3  1  0
  3  4  1  0
  4  5  1  0
  5  6  1  0
  5  7  2  0
  3  8  1  0
  8  9  1  0
  9 10  1  0
 10 11  1  6
 10 12  1  0
 12 13  1  0
 13 14  1  0
 14 15  1  0
 15 16  1  0
 15 17  2  0
 13 18  1  0
 18 19  2  0
 19 20  1  0
 19 21  1  0
 21 22  1  0
 22 23  1  0
 23 24  2  0
 23 25  1  0
 25 26  1  0
 25 27  1  0
 27 28  1  0
 27 29  1  0
 22 30  1  0
 30 31  1  0
 31 32  1  0
 32 33  1  0
 33 34  1  0
 33 35  2  0
 31 36  1  0
 30 37  1  0
 37 38  1  0
 37 39  1  0
 36  2  1  0
 36 10  1  0
 37 18  1  0
  1 40  1  0
  1 41  1  0
  3 42  1  6
  6 43  1  0
  6 44  1  0
  6 45  1  0
  8 46  1  0
  8 47  1  0
  9 48  1  0
  9 49  1  0
 11 50  1  0
 11 51  1  0
 11 52  1  0
 12 53  1  0
 12 54  1  0
 13 55  1  1
 16 56  1  0
 16 57  1  0
 16 58  1  0
 20 59  1  0
 20 60  1  0
 20 61  1  0
 21 62  1  0
 21 63  1  0
 22 64  1  6
 25 65  1  1
 26 66  1  0
 26 67  1  0
 26 68  1  0
 27 69  1  1
 28 70  1  0
 28 71  1  0
 28 72  1  0
 29 73  1  0
 30 74  1  1
 31 75  1  1
 34 76  1  0
 34 77  1  0
 34 78  1  0
 36 79  1  6
 38 80  1  0
 38 81  1  0
 38 82  1  0
 39 83  1  0
 39 84  1  0
 39 85  1  0
M  END
>  <Binding energies>  (1) 
[-5.24]

>  <Ligand effiencies>  (1) 
[-0.12476190476190477]

>  <Interactions>  (1) 
["V-B:PRO:540:CA:9855, V-A:GLY:454:CA:4049, H-A:GLU:543:OE2:4910, V-B:GLU:543:CB:9878, V-B:ALA:541:CB:9864, V-B:TYR:539:CE2:9848, V-A:TYR:484:CE2:4346, V-A:LEU:475:CG:4257, V-B:GLU:543:CG:9879, V-B:TYR:539:C:9839, V-A:ASP:366:CG:3213, V-B:TYR:539:CZ:9849, V-A:LEU:475:CD1:4258, V-A:TYR:484:CZ:4347, V-A:GLU:543:CD:4908, V-B:HIS:456:CE1:9041, V-B:PRO:540:N:9856, V-A:HIS:456:CE1:4070, V-A:PRO:482:CB:4326, V-B:TYR:539:CD2:9846, H-A:SER:385:OG:3410, V-B:GLU:543:CD:9880, H-B:TYR:531:OH:9767, V-A:LEU:475:CD2:4259, H-A:HIS:383:HE2:3395, V-B:ALA:541:CA:9862, H-A:TYR:484:OH:4348"]

$$$$
ZINC1857755554
     RDKit          3D

 41 42  0  0  0  0  0  0  0  0999 V2000
  130.4400  124.2210   65.3990 C   0  0  0  0  0  0  0  0  0  0  0  0
  129.8230  124.3670   66.8010 C   0  0  0  0  0  0  0  0  0  0  0  0
  130.4160  125.5270   67.6390 C   0  0  1  0  0  0  0  0  0  0  0  0
  131.8740  125.8470   67.2600 C   0  0  0  0  0  0  0  0  0  0  0  0
  129.5890  126.7420   67.5200 N   0  0  0  0  0  0  0  0  0  0  0  0
  128.8020  127.0690   66.4400 C   0  0  0  0  0  0  0  0  0  0  0  0
  128.1880  128.2610   66.7640 C   0  0  0  0  0  0  0  0  0  0  0  0
  128.5450  128.6770   67.9620 N   0  0  0  0  0  0  0  0  0  0  0  0
  129.3920  127.7790   68.4240 C   0  0  0  0  0  0  0  0  0  0  0  0
  130.0470  127.8270   69.7290 C   0  0  0  0  0  0  0  0  0  0  0  0
  129.5300  128.3670   70.8520 C   0  0  0  0  0  0  0  0  0  0  0  0
  130.2360  128.3810   72.1320 C   0  0  0  0  0  0  0  0  0  0  0  0
  130.5840  129.4320   72.6790 O   0  0  0  0  0  0  0  0  0  0  0  0
  130.5080  127.0710   72.7230 C   0  0  0  0  0  0  0  0  0  0  0  0
  130.9460  126.9110   73.9900 C   0  0  0  0  0  0  0  0  0  0  0  0
  131.2430  125.6540   74.6600 C   0  0  0  0  0  0  0  0  0  0  0  0
  130.3440  124.7070   74.8570 N   0  0  0  0  0  0  0  0  0  0  0  0
  130.9790  123.7140   75.4860 N   0  0  0  0  0  0  0  0  0  0  0  0
  130.2440  122.5190   75.8620 C   0  0  0  0  0  0  0  0  0  0  0  0
  132.2950  124.0020   75.7170 C   0  0  0  0  0  0  0  0  0  0  0  0
  132.4930  125.2600   75.1820 C   0  0  0  0  0  0  0  0  0  0  0  0
  134.1260  126.2410   75.1670 Br  0  0  0  0  0  0  0  0  0  0  0  0
  131.5066  123.9686   65.4923 H   0  0  0  0  0  0  0  0  0  0  0  0
  129.9204  123.4210   64.8512 H   0  0  0  0  0  0  0  0  0  0  0  0
  130.3341  125.1690   64.8512 H   0  0  0  0  0  0  0  0  0  0  0  0
  128.7431  124.5417   66.6860 H   0  0  0  0  0  0  0  0  0  0  0  0
  130.0494  123.4375   67.3439 H   0  0  0  0  0  0  0  0  0  0  0  0
  130.4123  125.1861   68.6848 H   0  0  0  0  0  0  0  0  0  0  0  0
  132.4704  125.9779   68.1750 H   0  0  0  0  0  0  0  0  0  0  0  0
  132.2890  125.0186   66.6672 H   0  0  0  0  0  0  0  0  0  0  0  0
  131.9039  126.7731   66.6672 H   0  0  0  0  0  0  0  0  0  0  0  0
  128.6860  126.4965   65.5079 H   0  0  0  0  0  0  0  0  0  0  0  0
  127.4886  128.7966   66.1053 H   0  0  0  0  0  0  0  0  0  0  0  0
  131.0509  127.3834   69.8024 H   0  0  0  0  0  0  0  0  0  0  0  0
  128.5283  128.8188   70.8021 H   0  0  0  0  0  0  0  0  0  0  0  0
  130.3482  126.1742   72.1063 H   0  0  0  0  0  0  0  0  0  0  0  0
  131.0941  127.8285   74.5784 H   0  0  0  0  0  0  0  0  0  0  0  0
  130.1991  122.4460   76.9587 H   0  0  0  0  0  0  0  0  0  0  0  0
  129.2231  122.5735   75.4561 H   0  0  0  0  0  0  0  0  0  0  0  0
  130.7531  121.6324   75.4561 H   0  0  0  0  0  0  0  0  0  0  0  0
  133.0382  123.3671   76.2215 H   0  0  0  0  0  0  0  0  0  0  0  0
  1  2  1  0
  2  3  1  0
  3  4  1  0
  3  5  1  0
  5  6  1  0
  6  7  2  0
  7  8  1  0
  8  9  2  0
  9 10  1  0
 10 11  2  0
 11 12  1  0
 12 13  2  0
 12 14  1  0
 14 15  2  0
 15 16  1  0
 16 17  2  0
 17 18  1  0
 18 19  1  0
 18 20  1  0
 20 21  2  0
 21 22  1  0
  9  5  1  0
 21 16  1  0
  1 23  1  0
  1 24  1  0
  1 25  1  0
  2 26  1  0
  2 27  1  0
  3 28  1  1
  4 29  1  0
  4 30  1  0
  4 31  1  0
  6 32  1  0
  7 33  1  0
 10 34  1  0
 11 35  1  0
 14 36  1  0
 15 37  1  0
 19 38  1  0
 19 39  1  0
 19 40  1  0
 20 41  1  0
M  END
>  <Binding energies>  (1) 
[-6.3]

>  <Ligand effiencies>  (1) 
[-0.2863636363636364]

>  <Interactions>  (1) 
["V-B:HIS:456:CD2:9039, V-A:GLU:543:C:4902, V-B:GLU:543:CB:9878, H-B:LYS:547:NZ:9923, V-A:TYR:484:CE2:4346, V-B:GLU:543:CG:9879, V-A:GLY:544:C:4912, V-A:HIS:456:CD2:4068, V-A:LYS:547:CG:4948, V-A:HIS:456:CB:4065, V-A:GLU:543:CD:4908, V-A:TYR:484:CZ:4347, V-A:ARG:545:CG:4922, V-B:HIS:456:CE1:9041, V-B:GLU:543:CA:9876, V-A:HIS:456:CE1:4070, V-A:GLU:543:CG:4907, V-B:GLU:543:CD:9880, H-A:LYS:547:NZ:4951, V-A:HIS:456:CG:4066, V-A:GLU:543:CB:4906"]

$$$$
ZINC1857757377
     RDKit          3D

101107  0  0  0  0  0  0  0  0999 V2000
  126.8860  119.4530   72.3940 C   0  0  0  0  0  0  0  0  0  0  0  0
  128.2920  119.2430   72.4350 O   0  0  0  0  0  0  0  0  0  0  0  0
  129.0020  119.7140   73.5250 C   0  0  0  0  0  0  0  0  0  0  0  0
  129.6260  118.9200   74.5010 C   0  0  0  0  0  0  0  0  0  0  0  0
  130.3200  119.4910   75.5660 C   0  0  0  0  0  0  0  0  0  0  0  0
  130.4240  120.8730   75.7090 C   0  0  0  0  0  0  0  0  0  0  0  0
  129.8070  121.6800   74.7440 C   0  0  0  0  0  0  0  0  0  0  0  0
  129.7430  123.4330   74.6280 S   0  0  0  0  0  0  0  0  0  0  0  0
  128.8150  123.2580   73.1540 C   0  0  0  0  0  0  0  0  0  0  0  0
  128.4080  124.4190   72.5560 N   0  0  0  0  0  0  0  0  0  0  0  0
  129.0020  125.5640   72.6340 C   0  0  0  0  0  0  0  0  0  0  0  0
  130.0050  125.8880   73.3050 O   0  0  0  0  0  0  0  0  0  0  0  0
  128.3110  126.7160   71.7870 C   0  0  1  0  0  0  0  0  0  0  0  0
  126.8720  126.8800   72.3570 C   0  0  0  0  0  0  0  0  0  0  0  0
  129.0500  128.1020   71.8550 C   0  0  0  0  0  0  0  0  0  0  0  0
  130.4230  128.1240   71.1420 C   0  0  0  0  0  0  0  0  0  0  0  0
  130.4170  127.6440   69.6550 C   0  0  2  0  0  0  0  0  0  0  0  0
  131.9040  127.3700   69.2830 C   0  0  0  0  0  0  0  0  0  0  0  0
  129.7780  128.7090   68.7330 C   0  0  0  0  0  0  0  0  0  0  0  0
  129.8620  128.2910   67.2530 C   0  0  0  0  0  0  0  0  0  0  0  0
  129.2070  126.8950   66.9220 C   0  0  2  0  0  0  0  0  0  0  0  0
  127.6580  127.1200   66.8990 C   0  0  0  0  0  0  0  0  0  0  0  0
  129.4640  125.8490   68.0610 C   0  0  0  0  0  0  0  0  0  0  0  0
  129.5310  124.5240   67.7970 C   0  0  0  0  0  0  0  0  0  0  0  0
  129.4030  123.9100   66.4840 C   0  0  0  0  0  0  0  0  0  0  0  0
  129.5510  122.6930   66.3770 O   0  0  0  0  0  0  0  0  0  0  0  0
  129.0990  124.8650   65.2860 C   0  0  2  0  0  0  0  0  0  0  0  0
  129.2080  124.2220   63.8220 C   0  0  1  0  0  0  0  0  0  0  0  0
  130.6300  123.6180   63.5650 C   0  0  0  0  0  0  0  0  0  0  0  0
  128.1260  123.0940   63.6740 C   0  0  0  0  0  0  0  0  0  0  0  0
  127.9210  122.5640   62.2410 C   0  0  0  0  0  0  0  0  0  0  0  0
  127.5520  123.7190   61.2830 C   0  0  2  0  0  0  0  0  0  0  0  0
  127.3160  123.2070   59.9650 O   0  0  0  0  0  0  0  0  0  0  0  0
  126.6010  123.8950   59.0450 C   0  0  0  0  0  0  0  0  0  0  0  0
  125.4950  124.7280   59.6800 C   0  0  0  0  0  0  0  0  0  0  0  0
  126.7770  123.8870   57.8260 O   0  0  0  0  0  0  0  0  0  0  0  0
  128.6130  124.8710   61.2720 C   0  0  0  0  0  0  0  0  0  0  0  0
  129.9320  124.3900   60.6060 C   0  0  0  0  0  0  0  0  0  0  0  0
  127.9860  126.0350   60.4520 C   0  0  0  0  0  0  0  0  0  0  0  0
  128.8010  125.3420   62.7770 C   0  0  2  0  0  0  0  0  0  0  0  0
  129.6720  126.6120   62.9610 C   0  0  0  0  0  0  0  0  0  0  0  0
  129.4320  127.2370   64.3400 C   0  0  0  0  0  0  0  0  0  0  0  0
  129.7670  126.2890   65.5340 C   0  0  1  0  0  0  0  0  0  0  0  0
  131.3320  126.1560   65.5640 C   0  0  0  0  0  0  0  0  0  0  0  0
  129.5760  126.3400   69.5260 C   0  0  2  0  0  0  0  0  0  0  0  0
  128.2010  126.3990   70.2570 C   0  0  0  0  0  0  0  0  0  0  0  0
  128.5480  122.0250   72.8000 N   0  0  0  0  0  0  0  0  0  0  0  0
  129.0950  121.1150   73.6520 C   0  0  0  0  0  0  0  0  0  0  0  0
  126.4939  119.5116   73.4201 H   0  0  0  0  0  0  0  0  0  0  0  0
  126.6710  120.3932   71.8651 H   0  0  0  0  0  0  0  0  0  0  0  0
  126.4056  118.6166   71.8651 H   0  0  0  0  0  0  0  0  0  0  0  0
  129.5657  117.8244   74.4231 H   0  0  0  0  0  0  0  0  0  0  0  0
  130.7963  118.8360   76.3104 H   0  0  0  0  0  0  0  0  0  0  0  0
  130.9731  121.3165   76.5527 H   0  0  0  0  0  0  0  0  0  0  0  0
  126.9104  126.8756   73.4563 H   0  0  0  0  0  0  0  0  0  0  0  0
  126.4460  127.8325   72.0088 H   0  0  0  0  0  0  0  0  0  0  0  0
  126.2426  126.0478   72.0088 H   0  0  0  0  0  0  0  0  0  0  0  0
  128.4055  128.8600   71.3860 H   0  0  0  0  0  0  0  0  0  0  0  0
  129.2427  128.3058   72.9186 H   0  0  0  0  0  0  0  0  0  0  0  0
  130.7991  129.1575   71.1629 H   0  0  0  0  0  0  0  0  0  0  0  0
  131.0577  127.4098   71.6871 H   0  0  0  0  0  0  0  0  0  0  0  0
  132.4978  127.2606   70.2025 H   0  0  0  0  0  0  0  0  0  0  0  0
  131.9696  126.4447   68.6919 H   0  0  0  0  0  0  0  0  0  0  0  0
  132.2951  128.2112   68.6919 H   0  0  0  0  0  0  0  0  0  0  0  0
  128.7210  128.8352   69.0102 H   0  0  0  0  0  0  0  0  0  0  0  0
  130.3288  129.6528   68.8590 H   0  0  0  0  0  0  0  0  0  0  0  0
  129.3538  129.0588   66.6512 H   0  0  0  0  0  0  0  0  0  0  0  0
  130.9324  128.1942   67.0188 H   0  0  0  0  0  0  0  0  0  0  0  0
  127.2801  127.1749   67.9306 H   0  0  0  0  0  0  0  0  0  0  0  0
  127.4318  128.0604   66.3751 H   0  0  0  0  0  0  0  0  0  0  0  0
  127.1736  126.2828   66.3751 H   0  0  0  0  0  0  0  0  0  0  0  0
  129.6970  123.8507   68.6509 H   0  0  0  0  0  0  0  0  0  0  0  0
  128.0153  125.0530   65.2713 H   0  0  0  0  0  0  0  0  0  0  0  0
  131.1195  123.4101   64.5279 H   0  0  0  0  0  0  0  0  0  0  0  0
  130.5335  122.6832   62.9933 H   0  0  0  0  0  0  0  0  0  0  0  0
  131.2357  124.3365   62.9933 H   0  0  0  0  0  0  0  0  0  0  0  0
  128.4272  122.2483   64.3096 H   0  0  0  0  0  0  0  0  0  0  0  0
  127.1692  123.5484   63.9708 H   0  0  0  0  0  0  0  0  0  0  0  0
  128.8509  122.0895   61.8943 H   0  0  0  0  0  0  0  0  0  0  0  0
  127.1003  121.8317   62.2472 H   0  0  0  0  0  0  0  0  0  0  0  0
  126.6248  124.1743   61.6611 H   0  0  0  0  0  0  0  0  0  0  0  0
  125.5741  124.6684   60.7755 H   0  0  0  0  0  0  0  0  0  0  0  0
  125.5964  125.7760   59.3615 H   0  0  0  0  0  0  0  0  0  0  0  0
  124.5158  124.3411   59.3615 H   0  0  0  0  0  0  0  0  0  0  0  0
  130.6608  124.1242   61.3859 H   0  0  0  0  0  0  0  0  0  0  0  0
  129.7267  123.5089   59.9803 H   0  0  0  0  0  0  0  0  0  0  0  0
  130.3421  125.1964   59.9803 H   0  0  0  0  0  0  0  0  0  0  0  0
  127.5790  126.7906   61.1401 H   0  0  0  0  0  0  0  0  0  0  0  0
  128.7586  126.4946   59.8181 H   0  0  0  0  0  0  0  0  0  0  0  0
  127.1771  125.6428   59.8181 H   0  0  0  0  0  0  0  0  0  0  0  0
  127.7653  125.6148   63.0280 H   0  0  0  0  0  0  0  0  0  0  0  0
  130.7334  126.3388   62.8679 H   0  0  0  0  0  0  0  0  0  0  0  0
  129.3979  127.3446   62.1876 H   0  0  0  0  0  0  0  0  0  0  0  0
  130.0594  128.1365   64.4260 H   0  0  0  0  0  0  0  0  0  0  0  0
  128.3573  127.4623   64.4045 H   0  0  0  0  0  0  0  0  0  0  0  0
  131.6775  126.1266   66.6079 H   0  0  0  0  0  0  0  0  0  0  0  0
  131.6311  125.2292   65.0526 H   0  0  0  0  0  0  0  0  0  0  0  0
  131.7832  127.0190   65.0526 H   0  0  0  0  0  0  0  0  0  0  0  0
  130.1465  125.5714   70.0680 H   0  0  0  0  0  0  0  0  0  0  0  0
  127.5900  127.1818   69.7838 H   0  0  0  0  0  0  0  0  0  0  0  0
  127.7483  125.4004   70.1687 H   0  0  0  0  0  0  0  0  0  0  0  0
  1  2  1  0
  2  3  1  0
  3  4  2  0
  4  5  1  0
  5  6  2  0
  6  7  1  0
  7  8  1  0
  8  9  1  0
  9 10  1  0
 10 11  2  0
 11 12  1  0
 11 13  1  0
 13 14  1  1
 13 15  1  0
 15 16  1  0
 16 17  1  0
 17 18  1  6
 17 19  1  0
 19 20  1  0
 20 21  1  0
 21 22  1  6
 21 23  1  0
 23 24  2  0
 24 25  1  0
 25 26  2  0
 25 27  1  0
 27 28  1  0
 28 29  1  6
 28 30  1  0
 30 31  1  0
 31 32  1  0
 32 33  1  0
 33 34  1  0
 34 35  1  0
 34 36  2  0
 32 37  1  0
 37 38  1  0
 37 39  1  0
 37 40  1  0
 40 41  1  0
 41 42  1  0
 42 43  1  0
 43 44  1  1
 23 45  1  0
 45 46  1  0
  9 47  2  0
 47 48  1  0
 48  3  1  0
 48  7  2  0
 46 13  1  0
 45 17  1  0
 43 21  1  0
 43 27  1  0
 40 28  1  0
  1 49  1  0
  1 50  1  0
  1 51  1  0
  4 52  1  0
  5 53  1  0
  6 54  1  0
 14 55  1  0
 14 56  1  0
 14 57  1  0
 15 58  1  0
 15 59  1  0
 16 60  1  0
 16 61  1  0
 18 62  1  0
 18 63  1  0
 18 64  1  0
 19 65  1  0
 19 66  1  0
 20 67  1  0
 20 68  1  0
 22 69  1  0
 22 70  1  0
 22 71  1  0
 24 72  1  0
 27 73  1  1
 29 74  1  0
 29 75  1  0
 29 76  1  0
 30 77  1  0
 30 78  1  0
 31 79  1  0
 31 80  1  0
 32 81  1  1
 35 82  1  0
 35 83  1  0
 35 84  1  0
 38 85  1  0
 38 86  1  0
 38 87  1  0
 39 88  1  0
 39 89  1  0
 39 90  1  0
 40 91  1  1
 41 92  1  0
 41 93  1  0
 42 94  1  0
 42 95  1  0
 44 96  1  0
 44 97  1  0
 44 98  1  0
 45 99  1  1
 46100  1  0
 46101  1  0
M  CHG  1  12  -1
M  END
>  <Binding energies>  (1) 
[5.41]

>  <Ligand effiencies>  (1) 
[0.11270833333333334]

>  <Interactions>  (1) 
["V-A:ARG:545:CA:4919, V-A:GLU:543:CA:4904, V-B:PRO:540:CA:9855, V-B:HIS:456:CD2:9039, V-B:GLU:543:C:9874, V-A:GLU:543:C:4902, V-B:GLU:543:CB:9878, H-B:LYS:547:NZ:9923, V-B:ALA:541:CB:9864, V-B:ASP:366:CG:8184, V-A:TYR:484:CE2:4346, V-A:GLY:544:C:4912, V-B:GLU:543:CG:9879, V-A:HIS:456:CD2:4068, V-B:LYS:547:CE:9922, V-A:ASP:473:CG:4240, V-A:TYR:484:CA:4339, V-A:GLU:543:CD:4908, V-A:TYR:484:CZ:4347, V-B:PRO:540:CB:9857, V-A:ARG:545:CG:4922, V-B:HIS:456:CE1:9041, V-B:GLU:543:CA:9876, V-A:HIS:456:CE1:4070, V-B:GLY:544:C:9884, V-B:GLY:544:CA:9886, V-A:GLU:543:CG:4907, H-A:TYR:484:N:4340, V-B:HIS:456:CG:9037, V-B:GLU:543:CD:9880, V-A:ARG:545:CB:4921, V-B:VAL:542:CG1:9871, V-A:TYR:484:CB:4341, V-A:GLU:543:CB:4906, V-B:PRO:540:C:9853, V-A:TYR:484:C:4337, V-B:ALA:541:CA:9862, H-A:TYR:484:OH:4348"]

$$$$
ZINC1857757377-again1
     RDKit          3D

102108  0  0  0  0  0  0  0  0999 V2000
  127.1200  119.4230   72.5890 C   0  0  0  0  0  0  0  0  0  0  0  0
  128.5410  119.3390   72.5930 O   0  0  0  0  0  0  0  0  0  0  0  0
  129.2330  119.8540   73.6730 C   0  0  0  0  0  0  0  0  0  0  0  0
  129.8990  119.1030   74.6560 C   0  0  0  0  0  0  0  0  0  0  0  0
  130.5680  119.7200   75.7110 C   0  0  0  0  0  0  0  0  0  0  0  0
  130.6050  121.1080   75.8380 C   0  0  0  0  0  0  0  0  0  0  0  0
  129.9460  121.8730   74.8680 C   0  0  0  0  0  0  0  0  0  0  0  0
  129.7930  123.6210   74.7370 S   0  0  0  0  0  0  0  0  0  0  0  0
  128.8670  123.3730   73.2790 C   0  0  0  0  0  0  0  0  0  0  0  0
  128.3910  124.5140   72.6510 N   0  0  0  0  0  0  0  0  0  0  0  0
  128.9740  125.7370   72.6190 C   0  0  0  0  0  0  0  0  0  0  0  0
  130.0080  126.0140   73.2330 O   0  0  0  0  0  0  0  0  0  0  0  0
  128.2440  126.8490   71.7930 C   0  0  1  0  0  0  0  0  0  0  0  0
  126.8370  126.9870   72.4270 C   0  0  0  0  0  0  0  0  0  0  0  0
  129.0080  128.2070   71.8780 C   0  0  0  0  0  0  0  0  0  0  0  0
  130.3900  128.2060   71.1750 C   0  0  0  0  0  0  0  0  0  0  0  0
  130.4050  127.6760   69.7020 C   0  0  2  0  0  0  0  0  0  0  0  0
  131.8940  127.3530   69.3770 C   0  0  0  0  0  0  0  0  0  0  0  0
  129.8170  128.7310   68.7360 C   0  0  0  0  0  0  0  0  0  0  0  0
  129.9330  128.2770   67.2720 C   0  0  0  0  0  0  0  0  0  0  0  0
  129.2500  126.8920   66.9530 C   0  0  2  0  0  0  0  0  0  0  0  0
  127.7100  127.1620   66.8730 C   0  0  0  0  0  0  0  0  0  0  0  0
  129.4360  125.8680   68.1230 C   0  0  0  0  0  0  0  0  0  0  0  0
  129.4550  124.5350   67.8930 C   0  0  0  0  0  0  0  0  0  0  0  0
  129.3350  123.8930   66.5910 C   0  0  0  0  0  0  0  0  0  0  0  0
  129.4180  122.6680   66.5240 O   0  0  0  0  0  0  0  0  0  0  0  0
  129.1270  124.8280   65.3570 C   0  0  2  0  0  0  0  0  0  0  0  0
  129.2900  124.1440   63.9160 C   0  0  1  0  0  0  0  0  0  0  0  0
  130.6970  123.4770   63.7550 C   0  0  0  0  0  0  0  0  0  0  0  0
  128.1700  123.0570   63.7340 C   0  0  0  0  0  0  0  0  0  0  0  0
  128.0340  122.4910   62.3070 C   0  0  0  0  0  0  0  0  0  0  0  0
  127.7750  123.6260   61.2910 C   0  0  2  0  0  0  0  0  0  0  0  0
  127.6150  123.0780   59.9770 O   0  0  0  0  0  0  0  0  0  0  0  0
  126.5970  123.4430   59.1650 C   0  0  0  0  0  0  0  0  0  0  0  0
  125.6690  124.4530   59.8240 C   0  0  0  0  0  0  0  0  0  0  0  0
  126.3950  123.0380   58.0180 O   0  0  0  0  0  0  0  0  0  0  0  0
  128.8750  124.7400   61.3170 C   0  0  0  0  0  0  0  0  0  0  0  0
  130.2140  124.1950   60.7490 C   0  0  0  0  0  0  0  0  0  0  0  0
  128.3450  125.9000   60.4260 C   0  0  0  0  0  0  0  0  0  0  0  0
  128.9840  125.2470   62.8190 C   0  0  2  0  0  0  0  0  0  0  0  0
  129.8790  126.4980   63.0240 C   0  0  0  0  0  0  0  0  0  0  0  0
  129.5780  127.1580   64.3750 C   0  0  0  0  0  0  0  0  0  0  0  0
  129.8390  126.2310   65.6020 C   0  0  1  0  0  0  0  0  0  0  0  0
  131.3950  126.0440   65.6990 C   0  0  0  0  0  0  0  0  0  0  0  0
  129.5320  126.3890   69.5770 C   0  0  2  0  0  0  0  0  0  0  0  0
  128.1450  126.4960   70.2790 C   0  0  0  0  0  0  0  0  0  0  0  0
  128.6700  122.1310   72.9180 N   0  0  0  0  0  0  0  0  0  0  0  0
  129.2600  121.2590   73.7810 C   0  0  0  0  0  0  0  0  0  0  0  0
  126.7511  119.4448   73.6251 H   0  0  0  0  0  0  0  0  0  0  0  0
  126.8084  120.3411   72.0694 H   0  0  0  0  0  0  0  0  0  0  0  0
  126.7024  118.5480   72.0694 H   0  0  0  0  0  0  0  0  0  0  0  0
  129.8921  118.0049   74.5914 H   0  0  0  0  0  0  0  0  0  0  0  0
  131.0786  119.0979   76.4608 H   0  0  0  0  0  0  0  0  0  0  0  0
  131.1354  121.5871   76.6742 H   0  0  0  0  0  0  0  0  0  0  0  0
  127.5010  124.4150   72.1820 H   0  0  0  0  0  0  0  0  0  0  0  0
  126.9264  126.9782   73.5233 H   0  0  0  0  0  0  0  0  0  0  0  0
  126.3805  127.9342   72.1039 H   0  0  0  0  0  0  0  0  0  0  0  0
  126.2052  126.1465   72.1039 H   0  0  0  0  0  0  0  0  0  0  0  0
  128.3842  128.9832   71.4107 H   0  0  0  0  0  0  0  0  0  0  0  0
  129.1972  128.3961   72.9450 H   0  0  0  0  0  0  0  0  0  0  0  0
  130.7644  129.2403   71.1653 H   0  0  0  0  0  0  0  0  0  0  0  0
  131.0169  127.5084   71.7498 H   0  0  0  0  0  0  0  0  0  0  0  0
  132.4559  127.2311   70.3148 H   0  0  0  0  0  0  0  0  0  0  0  0
  131.9483  126.4222   68.7934 H   0  0  0  0  0  0  0  0  0  0  0  0
  132.3291  128.1776   68.7934 H   0  0  0  0  0  0  0  0  0  0  0  0
  128.7557  128.8870   68.9793 H   0  0  0  0  0  0  0  0  0  0  0  0
  130.3860  129.6648   68.8551 H   0  0  0  0  0  0  0  0  0  0  0  0
  129.4642  129.0438   66.6378 H   0  0  0  0  0  0  0  0  0  0  0  0
  131.0068  128.1459   67.0726 H   0  0  0  0  0  0  0  0  0  0  0  0
  127.2971  127.2344   67.8900 H   0  0  0  0  0  0  0  0  0  0  0  0
  127.5305  128.1053   66.3364 H   0  0  0  0  0  0  0  0  0  0  0  0
  127.2203  126.3360   66.3364 H   0  0  0  0  0  0  0  0  0  0  0  0
  129.5714  123.8774   68.7671 H   0  0  0  0  0  0  0  0  0  0  0  0
  128.0530  125.0548   65.2860 H   0  0  0  0  0  0  0  0  0  0  0  0
  131.1229  123.2751   64.7489 H   0  0  0  0  0  0  0  0  0  0  0  0
  130.5936  122.5320   63.2015 H   0  0  0  0  0  0  0  0  0  0  0  0
  131.3631  124.1552   63.2015 H   0  0  0  0  0  0  0  0  0  0  0  0
  128.3935  122.2205   64.4125 H   0  0  0  0  0  0  0  0  0  0  0  0
  127.2169  123.5590   63.9566 H   0  0  0  0  0  0  0  0  0  0  0  0
  128.9633  121.9688   62.0357 H   0  0  0  0  0  0  0  0  0  0  0  0
  127.1833  121.7941   62.2828 H   0  0  0  0  0  0  0  0  0  0  0  0
  126.8415  124.1252   61.5901 H   0  0  0  0  0  0  0  0  0  0  0  0
  125.7493  124.3656   60.9176 H   0  0  0  0  0  0  0  0  0  0  0  0
  125.9548  125.4694   59.5154 H   0  0  0  0  0  0  0  0  0  0  0  0
  124.6321  124.2541   59.5154 H   0  0  0  0  0  0  0  0  0  0  0  0
  130.8814  123.9234   61.5802 H   0  0  0  0  0  0  0  0  0  0  0  0
  130.0159  123.3060   60.1323 H   0  0  0  0  0  0  0  0  0  0  0  0
  130.6930  124.9697   60.1323 H   0  0  0  0  0  0  0  0  0  0  0  0
  127.9733  126.7136   61.0662 H   0  0  0  0  0  0  0  0  0  0  0  0
  129.1604  126.2765   59.7909 H   0  0  0  0  0  0  0  0  0  0  0  0
  127.5266  125.5300   59.7909 H   0  0  0  0  0  0  0  0  0  0  0  0
  127.9439  125.5565   62.9988 H   0  0  0  0  0  0  0  0  0  0  0  0
  130.9362  126.1952   62.9965 H   0  0  0  0  0  0  0  0  0  0  0  0
  129.6704  127.2202   62.2209 H   0  0  0  0  0  0  0  0  0  0  0  0
  130.2131  128.0507   64.4738 H   0  0  0  0  0  0  0  0  0  0  0  0
  128.5052  127.4010   64.3803 H   0  0  0  0  0  0  0  0  0  0  0  0
  131.6947  126.0080   66.7568 H   0  0  0  0  0  0  0  0  0  0  0  0
  131.6830  125.1048   65.2041 H   0  0  0  0  0  0  0  0  0  0  0  0
  131.8973  126.8882   65.2041 H   0  0  0  0  0  0  0  0  0  0  0  0
  130.0754  125.6181   70.1431 H   0  0  0  0  0  0  0  0  0  0  0  0
  127.5590  127.2792   69.7759 H   0  0  0  0  0  0  0  0  0  0  0  0
  127.6670  125.5080   70.2063 H   0  0  0  0  0  0  0  0  0  0  0  0
  1  2  1  0
  2  3  1  0
  3  4  2  0
  4  5  1  0
  5  6  2  0
  6  7  1  0
  7  8  1  0
  8  9  1  0
  9 10  1  0
 10 11  1  0
 11 12  2  0
 11 13  1  0
 13 14  1  1
 13 15  1  0
 15 16  1  0
 16 17  1  0
 17 18  1  6
 17 19  1  0
 19 20  1  0
 20 21  1  0
 21 22  1  6
 21 23  1  0
 23 24  2  0
 24 25  1  0
 25 26  2  0
 25 27  1  0
 27 28  1  0
 28 29  1  6
 28 30  1  0
 30 31  1  0
 31 32  1  0
 32 33  1  0
 33 34  1  0
 34 35  1  0
 34 36  2  0
 32 37  1  0
 37 38  1  0
 37 39  1  0
 37 40  1  0
 40 41  1  0
 41 42  1  0
 42 43  1  0
 43 44  1  1
 23 45  1  0
 45 46  1  0
  9 47  2  0
 47 48  1  0
 48  3  1  0
 48  7  2  0
 46 13  1  0
 45 17  1  0
 43 21  1  0
 43 27  1  0
 40 28  1  0
  1 49  1  0
  1 50  1  0
  1 51  1  0
  4 52  1  0
  5 53  1  0
  6 54  1  0
 10 55  1  0
 14 56  1  0
 14 57  1  0
 14 58  1  0
 15 59  1  0
 15 60  1  0
 16 61  1  0
 16 62  1  0
 18 63  1  0
 18 64  1  0
 18 65  1  0
 19 66  1  0
 19 67  1  0
 20 68  1  0
 20 69  1  0
 22 70  1  0
 22 71  1  0
 22 72  1  0
 24 73  1  0
 27 74  1  6
 29 75  1  0
 29 76  1  0
 29 77  1  0
 30 78  1  0
 30 79  1  0
 31 80  1  0
 31 81  1  0
 32 82  1  1
 35 83  1  0
 35 84  1  0
 35 85  1  0
 38 86  1  0
 38 87  1  0
 38 88  1  0
 39 89  1  0
 39 90  1  0
 39 91  1  0
 40 92  1  1
 41 93  1  0
 41 94  1  0
 42 95  1  0
 42 96  1  0
 44 97  1  0
 44 98  1  0
 44 99  1  0
 45100  1  1
 46101  1  0
 46102  1  0
M  END
>  <Binding energies>  (1) 
[6.46]

>  <Ligand effiencies>  (1) 
[0.13183673469387755]

>  <Interactions>  (1) 
["V-A:ARG:545:CA:4919, V-A:GLU:543:CA:4904, V-B:PRO:540:CA:9855, V-B:HIS:456:CD2:9039, V-B:GLU:543:C:9874, H-B:GLU:543:O:9875, V-A:GLU:543:C:4902, V-B:GLU:543:CB:9878, H-B:LYS:547:NZ:9923, V-B:ALA:541:CB:9864, V-A:ASP:473:CB:4239, V-A:TYR:484:CE2:4346, V-A:GLY:544:C:4912, V-B:GLU:543:CG:9879, V-A:HIS:456:CD2:4068, V-B:LYS:547:CE:9922, V-A:ASP:473:CG:4240, V-A:GLU:543:CD:4908, V-A:TYR:484:CZ:4347, V-B:PRO:540:CB:9857, V-A:ARG:545:CG:4922, V-B:HIS:456:CE1:9041, V-B:GLU:543:CA:9876, V-B:PRO:540:N:9856, V-A:HIS:456:CE1:4070, V-B:GLY:544:C:9884, V-B:GLY:544:CA:9886, V-A:GLU:543:CG:4907, H-A:TYR:484:N:4340, V-B:HIS:456:CG:9037, V-B:GLU:543:CD:9880, V-A:ARG:545:CB:4921, V-A:TYR:484:CB:4341, V-A:GLU:543:CB:4906, H-B:GLY:544:O:9885, V-B:PRO:540:C:9853, V-A:TYR:484:C:4337, V-B:ALA:541:CA:9862, H-A:TYR:484:OH:4348"]

$$$$
ZINC1857769814
     RDKit          3D

 65 71  0  0  0  0  0  0  0  0999 V2000
  130.4640  124.9570   66.8090 C   0  0  0  0  0  0  0  0  0  0  0  0
  129.8160  124.6600   65.5770 O   0  0  0  0  0  0  0  0  0  0  0  0
  129.9500  125.5280   64.5070 C   0  0  0  0  0  0  0  0  0  0  0  0
  130.7810  125.2970   63.4080 C   0  0  0  0  0  0  0  0  0  0  0  0
  130.8740  126.2090   62.3460 C   0  0  0  0  0  0  0  0  0  0  0  0
  131.7530  125.8960   61.2010 C   0  0  0  0  0  0  0  0  0  0  0  0
  131.4830  125.0150   60.3170 N   0  0  0  0  0  0  0  0  0  0  0  0
  132.3720  124.7900   59.2800 N   0  0  0  0  0  0  0  0  0  0  0  0
  132.4780  125.5590   58.1450 C   0  0  0  0  0  0  0  0  0  0  0  0
  133.4000  125.1200   57.3260 N   0  0  0  0  0  0  0  0  0  0  0  0
  133.9570  123.9920   57.9180 N   0  0  0  0  0  0  0  0  0  0  0  0
  133.3360  123.8220   59.0580 C   0  0  0  0  0  0  0  0  0  0  0  0
  130.1020  127.3940   62.3860 C   0  0  0  0  0  0  0  0  0  0  0  0
  129.2540  127.6310   63.4880 C   0  0  0  0  0  0  0  0  0  0  0  0
  129.2020  126.7060   64.5390 C   0  0  0  0  0  0  0  0  0  0  0  0
  128.3850  126.9580   65.6150 O   0  0  0  0  0  0  0  0  0  0  0  0
  128.7680  128.0880   66.3910 C   0  0  0  0  0  0  0  0  0  0  0  0
  128.7010  127.7240   67.8640 C   0  0  0  0  0  0  0  0  0  0  0  0
  127.5040  127.2700   68.4240 C   0  0  0  0  0  0  0  0  0  0  0  0
  127.4540  126.9340   69.7750 C   0  0  0  0  0  0  0  0  0  0  0  0
  128.5990  127.0540   70.5610 C   0  0  0  0  0  0  0  0  0  0  0  0
  128.5350  126.6390   72.2350 Cl  0  0  0  0  0  0  0  0  0  0  0  0
  129.7950  127.5070   70.0060 C   0  0  0  0  0  0  0  0  0  0  0  0
  129.8460  127.8420   68.6550 C   0  0  0  0  0  0  0  0  0  0  0  0
  128.4360  128.9210   63.5570 C   0  0  0  0  0  0  0  0  0  0  0  0
  128.1950  129.5340   62.2520 N   0  0  0  0  0  0  0  0  0  0  0  0
  127.3700  130.7360   62.3880 C   0  0  0  0  0  0  0  0  0  0  0  0
  126.9690  131.2610   61.0000 C   0  0  0  0  0  0  0  0  0  0  0  0
  128.1820  131.4680   60.1050 C   0  0  0  0  0  0  0  0  0  0  0  0
  128.1150  132.3680   59.0270 C   0  0  0  0  0  0  0  0  0  0  0  0
  129.2290  132.5100   58.2110 C   0  0  0  0  0  0  0  0  0  0  0  0
  130.3750  131.8160   58.4440 C   0  0  0  0  0  0  0  0  0  0  0  0
  130.4860  130.9350   59.5090 C   0  0  0  0  0  0  0  0  0  0  0  0
  129.3760  130.7370   60.3560 C   0  0  0  0  0  0  0  0  0  0  0  0
  129.4820  129.8130   61.5890 C   0  0  2  0  0  0  0  0  0  0  0  0
  130.1340  128.4380   61.2520 C   0  0  0  0  0  0  0  0  0  0  0  0
  131.3150  132.1730   57.5300 O   0  0  0  0  0  0  0  0  0  0  0  0
  130.6380  132.9550   56.5830 C   0  0  0  0  0  0  0  0  0  0  0  0
  129.4040  133.3250   57.1380 O   0  0  0  0  0  0  0  0  0  0  0  0
  129.8149  124.6595   67.6457 H   0  0  0  0  0  0  0  0  0  0  0  0
  131.4132  124.4040   66.8667 H   0  0  0  0  0  0  0  0  0  0  0  0
  130.6647  126.0370   66.8667 H   0  0  0  0  0  0  0  0  0  0  0  0
  131.3790  124.3744   63.3744 H   0  0  0  0  0  0  0  0  0  0  0  0
  132.6956  126.4547   61.1041 H   0  0  0  0  0  0  0  0  0  0  0  0
  131.8568  126.4450   57.9472 H   0  0  0  0  0  0  0  0  0  0  0  0
  133.5553  123.0034   59.7592 H   0  0  0  0  0  0  0  0  0  0  0  0
  129.7953  128.3828   66.1306 H   0  0  0  0  0  0  0  0  0  0  0  0
  128.0875  128.9274   66.1850 H   0  0  0  0  0  0  0  0  0  0  0  0
  126.6032  127.1781   67.7994 H   0  0  0  0  0  0  0  0  0  0  0  0
  126.5142  126.5752   70.2200 H   0  0  0  0  0  0  0  0  0  0  0  0
  130.6945  127.5995   70.6324 H   0  0  0  0  0  0  0  0  0  0  0  0
  130.7871  128.1991   68.2115 H   0  0  0  0  0  0  0  0  0  0  0  0
  127.4639  128.6917   64.0179 H   0  0  0  0  0  0  0  0  0  0  0  0
  129.0208  129.6415   64.1477 H   0  0  0  0  0  0  0  0  0  0  0  0
  126.4631  130.4920   62.9607 H   0  0  0  0  0  0  0  0  0  0  0  0
  127.9470  131.5113   62.9134 H   0  0  0  0  0  0  0  0  0  0  0  0
  126.2951  130.5331   60.5245 H   0  0  0  0  0  0  0  0  0  0  0  0
  126.4700  132.2324   61.1317 H   0  0  0  0  0  0  0  0  0  0  0  0
  127.1998  132.9470   58.8344 H   0  0  0  0  0  0  0  0  0  0  0  0
  131.4282  130.3972   59.6909 H   0  0  0  0  0  0  0  0  0  0  0  0
  130.1189  130.3889   62.2766 H   0  0  0  0  0  0  0  0  0  0  0  0
  129.6041  128.0145   60.3861 H   0  0  0  0  0  0  0  0  0  0  0  0
  131.1973  128.6458   61.0620 H   0  0  0  0  0  0  0  0  0  0  0  0
  131.2278  133.8535   56.3488 H   0  0  0  0  0  0  0  0  0  0  0  0
  130.4871  132.3879   55.6526 H   0  0  0  0  0  0  0  0  0  0  0  0
  1  2  1  0
  2  3  1  0
  3  4  2  0
  4  5  1  0
  5  6  1  0
  6  7  2  0
  7  8  1  0
  8  9  1  0
  9 10  2  0
 10 11  1  0
 11 12  2  0
  5 13  2  0
 13 14  1  0
 14 15  2  0
 15 16  1  0
 16 17  1  0
 17 18  1  0
 18 19  2  0
 19 20  1  0
 20 21  2  0
 21 22  1  0
 21 23  1  0
 23 24  2  0
 14 25  1  0
 25 26  1  0
 26 27  1  0
 27 28  1  0
 28 29  1  0
 29 30  2  0
 30 31  1  0
 31 32  2  0
 32 33  1  0
 33 34  2  0
 34 35  1  0
 35 36  1  0
 32 37  1  0
 37 38  1  0
 38 39  1  0
 15  3  1  0
 24 18  1  0
 35 26  1  0
 12  8  1  0
 36 13  1  0
 34 29  1  0
 39 31  1  0
  1 40  1  0
  1 41  1  0
  1 42  1  0
  4 43  1  0
  6 44  1  0
  9 45  1  0
 12 46  1  0
 17 47  1  0
 17 48  1  0
 19 49  1  0
 20 50  1  0
 23 51  1  0
 24 52  1  0
 25 53  1  0
 25 54  1  0
 27 55  1  0
 27 56  1  0
 28 57  1  0
 28 58  1  0
 30 59  1  0
 33 60  1  0
 35 61  1  1
 36 62  1  0
 36 63  1  0
 38 64  1  0
 38 65  1  0
M  END
>  <Binding energies>  (1) 
[-8.43]

>  <Ligand effiencies>  (1) 
[-0.21615384615384614]

>  <Interactions>  (1) 
["V-A:ILE:369:CG2:3237, V-A:ASP:366:CA:3210, V-B:GLU:543:C:9874, V-A:ILE:369:CB:3236, V-B:GLU:543:CB:9878, V-A:ILE:538:CB:4862, V-B:TYR:539:CE2:9848, V-A:TYR:484:CE2:4346, V-B:GLU:543:CG:9879, V-A:ASP:366:CG:3213, V-A:ILE:538:CG2:4863, V-A:TYR:539:CD1:4873, V-B:TYR:539:CZ:9849, V-A:ILE:538:CA:4860, H-A:ASN:370:N:3244, H-B:TYR:539:OH:9850, V-A:GLU:543:CD:4908, V-A:TYR:484:CZ:4347, V-B:HIS:456:CE1:9041, V-A:HIS:456:CE1:4070, V-B:GLY:544:C:9884, V-A:GLU:543:CG:4907, V-B:GLU:543:CD:9880, V-A:ASP:366:CB:3212, V-A:GLU:543:CB:4906, V-A:PRO:540:N:4884, H-A:TYR:539:N:4870, V-A:PRO:540:CA:4883, V-A:TYR:539:CE1:4875"]

$$$$
ZINC1857769814-again1
     RDKit          3D

 66 72  0  0  0  0  0  0  0  0999 V2000
  131.1250  125.2680   66.9320 C   0  0  0  0  0  0  0  0  0  0  0  0
  130.6030  124.7160   65.7280 O   0  0  0  0  0  0  0  0  0  0  0  0
  130.4020  125.5360   64.6310 C   0  0  0  0  0  0  0  0  0  0  0  0
  131.1110  125.4270   63.4340 C   0  0  0  0  0  0  0  0  0  0  0  0
  130.8500  126.2660   62.3440 C   0  0  0  0  0  0  0  0  0  0  0  0
  131.6190  126.0690   61.0970 C   0  0  0  0  0  0  0  0  0  0  0  0
  131.7180  124.9460   60.4980 N   0  0  0  0  0  0  0  0  0  0  0  0
  132.4610  124.8500   59.3350 N   0  0  0  0  0  0  0  0  0  0  0  0
  133.4110  123.8910   59.0760 C   0  0  0  0  0  0  0  0  0  0  0  0
  133.9650  124.0370   57.8990 N   0  0  0  0  0  0  0  0  0  0  0  0
  133.3730  125.1500   57.3140 N   0  0  0  0  0  0  0  0  0  0  0  0
  132.4970  125.6060   58.1750 C   0  0  0  0  0  0  0  0  0  0  0  0
  129.8410  127.2560   62.4520 C   0  0  0  0  0  0  0  0  0  0  0  0
  129.1240  127.3820   63.6660 C   0  0  0  0  0  0  0  0  0  0  0  0
  129.4220  126.5240   64.7360 C   0  0  0  0  0  0  0  0  0  0  0  0
  128.7110  126.6430   65.9070 O   0  0  0  0  0  0  0  0  0  0  0  0
  128.8920  127.8770   66.5920 C   0  0  0  0  0  0  0  0  0  0  0  0
  128.7960  127.6240   68.0870 C   0  0  0  0  0  0  0  0  0  0  0  0
  127.5920  127.1910   68.6470 C   0  0  0  0  0  0  0  0  0  0  0  0
  127.5040  126.9720   70.0190 C   0  0  0  0  0  0  0  0  0  0  0  0
  128.6190  127.1890   70.8270 C   0  0  0  0  0  0  0  0  0  0  0  0
  128.5090  126.9220   72.5290 Cl  0  0  0  0  0  0  0  0  0  0  0  0
  129.8220  127.6240   70.2730 C   0  0  0  0  0  0  0  0  0  0  0  0
  129.9100  127.8430   68.9000 C   0  0  0  0  0  0  0  0  0  0  0  0
  128.0440  128.4510   63.8750 C   0  0  0  0  0  0  0  0  0  0  0  0
  127.4930  129.0260   62.5550 N   0  0  2  0  0  0  0  0  0  0  0  0
  126.4030  128.1890   61.8590 C   0  0  0  0  0  0  0  0  0  0  0  0
  125.7280  129.0690   60.7930 C   0  0  0  0  0  0  0  0  0  0  0  0
  126.7030  129.8650   59.9240 C   0  0  0  0  0  0  0  0  0  0  0  0
  126.2460  130.4190   58.7160 C   0  0  0  0  0  0  0  0  0  0  0  0
  127.1170  131.1920   57.9620 C   0  0  0  0  0  0  0  0  0  0  0  0
  128.3980  131.4130   58.3620 C   0  0  0  0  0  0  0  0  0  0  0  0
  128.8980  130.8690   59.5350 C   0  0  0  0  0  0  0  0  0  0  0  0
  128.0510  130.0820   60.3370 C   0  0  0  0  0  0  0  0  0  0  0  0
  128.6330  129.4120   61.5910 C   0  0  2  0  0  0  0  0  0  0  0  0
  129.4890  128.1670   61.2610 C   0  0  0  0  0  0  0  0  0  0  0  0
  129.0380  132.1690   57.4300 O   0  0  0  0  0  0  0  0  0  0  0  0
  128.0410  132.5910   56.5380 C   0  0  0  0  0  0  0  0  0  0  0  0
  126.9020  131.8040   56.7690 O   0  0  0  0  0  0  0  0  0  0  0  0
  130.6568  124.7729   67.7955 H   0  0  0  0  0  0  0  0  0  0  0  0
  132.2133  125.1117   66.9654 H   0  0  0  0  0  0  0  0  0  0  0  0
  130.9082  126.3459   66.9654 H   0  0  0  0  0  0  0  0  0  0  0  0
  131.8958  124.6615   63.3445 H   0  0  0  0  0  0  0  0  0  0  0  0
  132.1342  126.9377   60.6613 H   0  0  0  0  0  0  0  0  0  0  0  0
  133.6766  123.0889   59.7804 H   0  0  0  0  0  0  0  0  0  0  0  0
  131.8633  126.4874   57.9972 H   0  0  0  0  0  0  0  0  0  0  0  0
  129.8811  128.2929   66.3499 H   0  0  0  0  0  0  0  0  0  0  0  0
  128.1170  128.5939   66.2831 H   0  0  0  0  0  0  0  0  0  0  0  0
  126.7147  127.0233   68.0050 H   0  0  0  0  0  0  0  0  0  0  0  0
  126.5582  126.6290   70.4638 H   0  0  0  0  0  0  0  0  0  0  0  0
  130.6976  127.7935   70.9169 H   0  0  0  0  0  0  0  0  0  0  0  0
  130.8558  128.1880   68.4569 H   0  0  0  0  0  0  0  0  0  0  0  0
  127.2108  128.0010   64.4348 H   0  0  0  0  0  0  0  0  0  0  0  0
  128.5101  129.2827   64.4237 H   0  0  0  0  0  0  0  0  0  0  0  0
  127.0490  129.8950   62.8150 H   0  0  0  0  0  0  0  0  0  0  0  0
  126.8578  127.3086   61.3815 H   0  0  0  0  0  0  0  0  0  0  0  0
  125.6602  127.8460   62.5942 H   0  0  0  0  0  0  0  0  0  0  0  0
  125.1330  128.4182   60.1355 H   0  0  0  0  0  0  0  0  0  0  0  0
  125.1154  129.8051   61.3342 H   0  0  0  0  0  0  0  0  0  0  0  0
  125.2154  130.2428   58.3742 H   0  0  0  0  0  0  0  0  0  0  0  0
  129.9410  131.0498   59.8342 H   0  0  0  0  0  0  0  0  0  0  0  0
  129.3004  130.1440   62.0692 H   0  0  0  0  0  0  0  0  0  0  0  0
  128.9357  127.5629   60.5269 H   0  0  0  0  0  0  0  0  0  0  0  0
  130.4490  128.5562   60.8908 H   0  0  0  0  0  0  0  0  0  0  0  0
  127.8058  133.6512   56.7130 H   0  0  0  0  0  0  0  0  0  0  0  0
  128.3819  132.4801   55.4981 H   0  0  0  0  0  0  0  0  0  0  0  0
  1  2  1  0
  2  3  1  0
  3  4  2  0
  4  5  1  0
  5  6  1  0
  6  7  2  0
  7  8  1  0
  8  9  1  0
  9 10  2  0
 10 11  1  0
 11 12  2  0
  5 13  2  0
 13 14  1  0
 14 15  2  0
 15 16  1  0
 16 17  1  0
 17 18  1  0
 18 19  2  0
 19 20  1  0
 20 21  2  0
 21 22  1  0
 21 23  1  0
 23 24  2  0
 14 25  1  0
 25 26  1  0
 26 27  1  0
 27 28  1  0
 28 29  1  0
 29 30  2  0
 30 31  1  0
 31 32  2  0
 32 33  1  0
 33 34  2  0
 34 35  1  0
 35 36  1  0
 32 37  1  0
 37 38  1  0
 38 39  1  0
 15  3  1  0
 24 18  1  0
 35 26  1  0
 12  8  1  0
 36 13  1  0
 34 29  1  0
 39 31  1  0
  1 40  1  0
  1 41  1  0
  1 42  1  0
  4 43  1  0
  6 44  1  0
  9 45  1  0
 12 46  1  0
 17 47  1  0
 17 48  1  0
 19 49  1  0
 20 50  1  0
 23 51  1  0
 24 52  1  0
 25 53  1  0
 25 54  1  0
 26 55  1  1
 27 56  1  0
 27 57  1  0
 28 58  1  0
 28 59  1  0
 30 60  1  0
 33 61  1  0
 35 62  1  1
 36 63  1  0
 36 64  1  0
 38 65  1  0
 38 66  1  0
M  CHG  1  26   1
M  END
>  <Binding energies>  (1) 
[-8.69]

>  <Ligand effiencies>  (1) 
[-0.21725]

>  <Interactions>  (1) 
["V-A:ILE:369:CG2:3237, V-A:ASP:366:CA:3210, V-B:GLU:543:C:9874, V-A:ILE:369:CB:3236, V-B:GLU:543:CB:9878, V-B:ASP:366:CG:8184, V-B:TYR:539:CE2:9848, V-A:TYR:484:CE2:4346, V-B:GLU:543:CG:9879, V-A:TYR:539:CE2:4876, V-A:ASP:366:CG:3213, V-A:TYR:539:CD1:4873, H-A:ASN:370:N:3244, V-A:TYR:539:CZ:4877, H-B:TYR:539:OH:9850, V-A:GLU:543:CD:4908, V-A:TYR:484:CZ:4347, V-B:HIS:456:CE1:9041, V-A:HIS:456:CE1:4070, V-B:GLY:544:C:9884, V-A:GLU:543:CG:4907, V-B:GLU:543:CD:9880, V-A:MET:535:CE:4835, V-A:ASP:366:CB:3212, V-A:GLU:543:CB:4906, V-A:TYR:539:CG:4872, H-A:TYR:539:OH:4878, V-A:TYR:539:CE1:4875, H-A:TYR:484:OH:4348"]

$$$$
ZINC1857773533
     RDKit          3D

100106  0  0  0  0  0  0  0  0999 V2000
  129.1170  125.8800   71.3280 O   0  0  0  0  0  0  0  0  0  0  0  0
  128.6350  127.0150   71.3640 C   0  0  0  0  0  0  0  0  0  0  0  0
  128.2600  127.7040   70.1230 C   0  0  0  0  0  0  0  0  0  0  0  0
  129.0650  127.7640   69.0380 C   0  0  0  0  0  0  0  0  0  0  0  0
  128.7680  128.4400   67.7560 C   0  0  0  0  0  0  0  0  0  0  0  0
  128.6310  129.8300   67.6500 C   0  0  0  0  0  0  0  0  0  0  0  0
  128.3480  130.4170   66.4200 C   0  0  0  0  0  0  0  0  0  0  0  0
  128.1940  129.6340   65.2770 C   0  0  0  0  0  0  0  0  0  0  0  0
  127.9110  130.3030   64.1010 O   0  0  0  0  0  0  0  0  0  0  0  0
  128.2440  131.6840   63.9850 C   0  0  0  0  0  0  0  0  0  0  0  0
  126.9490  132.5040   63.8960 C   0  0  0  0  0  0  0  0  0  0  0  0
  126.4430  132.6650   62.4510 C   0  0  0  0  0  0  0  0  0  0  0  0
  126.4920  131.3530   61.6460 C   0  0  0  0  0  0  0  0  0  0  0  0
  126.8740  131.5660   60.1940 C   0  0  0  0  0  0  0  0  0  0  0  0
  128.0650  132.0340   59.6550 C   0  0  0  0  0  0  0  0  0  0  0  0
  127.8690  132.0280   58.2990 N   0  0  0  0  0  0  0  0  0  0  0  0
  128.7860  132.4590   57.2480 C   0  0  0  0  0  0  0  0  0  0  0  0
  130.1840  131.8410   57.4260 C   0  0  0  0  0  0  0  0  0  0  0  0
  130.2190  131.0600   58.6120 O   0  0  0  0  0  0  0  0  0  0  0  0
  129.6060  129.7840   58.4840 C   0  0  0  0  0  0  0  0  0  0  0  0
  130.5530  128.8560   57.7130 C   0  0  0  0  0  0  0  0  0  0  0  0
  129.7970  128.1400   56.7390 O   0  0  0  0  0  0  0  0  0  0  0  0
  129.0900  127.0160   57.1190 C   0  0  0  0  0  0  0  0  0  0  0  0
  127.7570  126.7540   56.7660 C   0  0  0  0  0  0  0  0  0  0  0  0
  127.1250  125.5960   57.2120 C   0  0  0  0  0  0  0  0  0  0  0  0
  127.8150  124.6890   58.0140 C   0  0  0  0  0  0  0  0  0  0  0  0
  129.1470  124.9220   58.3770 C   0  0  0  0  0  0  0  0  0  0  0  0
  129.8590  123.9620   59.2540 C   0  0  0  0  0  0  0  0  0  0  0  0
  131.1820  124.2780   59.3260 O   0  0  0  0  0  0  0  0  0  0  0  0
  132.0070  123.5200   60.1320 C   0  0  0  0  0  0  0  0  0  0  0  0
  133.3580  123.8640   60.1470 C   0  0  0  0  0  0  0  0  0  0  0  0
  134.2460  123.1440   60.9440 C   0  0  0  0  0  0  0  0  0  0  0  0
  133.7820  122.0830   61.7200 C   0  0  0  0  0  0  0  0  0  0  0  0
  132.4280  121.7390   61.7040 C   0  0  0  0  0  0  0  0  0  0  0  0
  131.5200  122.4530   60.9070 C   0  0  0  0  0  0  0  0  0  0  0  0
  130.0630  122.1010   60.8780 C   0  0  0  0  0  0  0  0  0  0  0  0
  129.5960  121.1880   61.5600 O   0  0  0  0  0  0  0  0  0  0  0  0
  129.2860  122.9570   59.9610 C   0  0  0  0  0  0  0  0  0  0  0  0
  127.9500  122.7160   59.9100 O   0  0  0  0  0  0  0  0  0  0  0  0
  127.1800  123.2220   61.0000 C   0  0  0  0  0  0  0  0  0  0  0  0
  127.9770  124.3110   61.7000 C   0  0  0  0  0  0  0  0  0  0  0  0
  127.9310  125.6210   61.2180 C   0  0  0  0  0  0  0  0  0  0  0  0
  128.6660  126.6210   61.8500 C   0  0  0  0  0  0  0  0  0  0  0  0
  129.4390  126.3070   62.9650 C   0  0  0  0  0  0  0  0  0  0  0  0
  129.4900  125.0010   63.4510 C   0  0  0  0  0  0  0  0  0  0  0  0
  128.7580  124.0010   62.8170 C   0  0  0  0  0  0  0  0  0  0  0  0
  129.7690  126.0900   57.9130 C   0  0  0  0  0  0  0  0  0  0  0  0
  126.6380  131.5980   58.0040 N   0  0  0  0  0  0  0  0  0  0  0  0
  126.0280  131.3030   59.2100 N   0  0  0  0  0  0  0  0  0  0  0  0
  128.3320  128.2410   65.3800 C   0  0  0  0  0  0  0  0  0  0  0  0
  128.6160  127.6540   66.6110 C   0  0  0  0  0  0  0  0  0  0  0  0
  128.2900  127.6870   72.6770 C   0  0  0  0  0  0  0  0  0  0  0  0
  126.9720  127.5320   73.1450 C   0  0  0  0  0  0  0  0  0  0  0  0
  126.5400  128.1460   74.3170 C   0  0  0  0  0  0  0  0  0  0  0  0
  127.4130  128.9420   75.0470 C   0  0  0  0  0  0  0  0  0  0  0  0
  128.7190  129.1270   74.6040 C   0  0  0  0  0  0  0  0  0  0  0  0
  129.1740  128.5160   73.4260 C   0  0  0  0  0  0  0  0  0  0  0  0
  130.3970  128.7310   73.1130 O   0  0  0  0  0  0  0  0  0  0  0  0
  127.2769  128.1951   70.0733 H   0  0  0  0  0  0  0  0  0  0  0  0
  130.0391  127.2591   69.1166 H   0  0  0  0  0  0  0  0  0  0  0  0
  128.7477  130.4610   68.5434 H   0  0  0  0  0  0  0  0  0  0  0  0
  128.2448  131.5099   66.3492 H   0  0  0  0  0  0  0  0  0  0  0  0
  128.8207  131.9998   64.8669 H   0  0  0  0  0  0  0  0  0  0  0  0
  128.8496  131.8459   63.0811 H   0  0  0  0  0  0  0  0  0  0  0  0
  126.1711  131.9977   64.4864 H   0  0  0  0  0  0  0  0  0  0  0  0
  127.1665  133.5098   64.2848 H   0  0  0  0  0  0  0  0  0  0  0  0
  125.4019  133.0187   62.4816 H   0  0  0  0  0  0  0  0  0  0  0  0
  127.1066  133.3841   61.9484 H   0  0  0  0  0  0  0  0  0  0  0  0
  127.2324  130.6843   62.1093 H   0  0  0  0  0  0  0  0  0  0  0  0
  125.4817  130.9181   61.6614 H   0  0  0  0  0  0  0  0  0  0  0  0
  128.9699  132.3427   60.1989 H   0  0  0  0  0  0  0  0  0  0  0  0
  128.3812  132.1507   56.2728 H   0  0  0  0  0  0  0  0  0  0  0  0
  128.8842  133.5531   57.3051 H   0  0  0  0  0  0  0  0  0  0  0  0
  130.4130  131.2013   56.5609 H   0  0  0  0  0  0  0  0  0  0  0  0
  130.9296  132.6463   57.5001 H   0  0  0  0  0  0  0  0  0  0  0  0
  129.4104  129.3659   59.4825 H   0  0  0  0  0  0  0  0  0  0  0  0
  128.6533  129.8796   57.9424 H   0  0  0  0  0  0  0  0  0  0  0  0
  131.3304  129.4525   57.2132 H   0  0  0  0  0  0  0  0  0  0  0  0
  131.0347  128.1511   58.4066 H   0  0  0  0  0  0  0  0  0  0  0  0
  127.2084  127.4674   56.1335 H   0  0  0  0  0  0  0  0  0  0  0  0
  126.0803  125.3971   56.9310 H   0  0  0  0  0  0  0  0  0  0  0  0
  127.3071  123.7791   58.3661 H   0  0  0  0  0  0  0  0  0  0  0  0
  133.7216  124.7005   59.5321 H   0  0  0  0  0  0  0  0  0  0  0  0
  135.3125  123.4128   60.9607 H   0  0  0  0  0  0  0  0  0  0  0  0
  134.4845  121.5145   62.3472 H   0  0  0  0  0  0  0  0  0  0  0  0
  132.0707  120.9015   62.3212 H   0  0  0  0  0  0  0  0  0  0  0  0
  126.2353  123.6402   60.6224 H   0  0  0  0  0  0  0  0  0  0  0  0
  126.9558  122.4101   61.7075 H   0  0  0  0  0  0  0  0  0  0  0  0
  127.3146  125.8628   60.3396 H   0  0  0  0  0  0  0  0  0  0  0  0
  128.6361  127.6531   61.4706 H   0  0  0  0  0  0  0  0  0  0  0  0
  130.0155  127.0976   63.4677 H   0  0  0  0  0  0  0  0  0  0  0  0
  130.1055  124.7622   64.3308 H   0  0  0  0  0  0  0  0  0  0  0  0
  128.7941  122.9684   63.1945 H   0  0  0  0  0  0  0  0  0  0  0  0
  130.8184  126.2814   58.1814 H   0  0  0  0  0  0  0  0  0  0  0  0
  128.2155  127.6109   64.4859 H   0  0  0  0  0  0  0  0  0  0  0  0
  128.7216  126.5614   66.6822 H   0  0  0  0  0  0  0  0  0  0  0  0
  126.2673  126.9117   72.5717 H   0  0  0  0  0  0  0  0  0  0  0  0
  125.5067  128.0007   74.6652 H   0  0  0  0  0  0  0  0  0  0  0  0
  127.0724  129.4257   75.9744 H   0  0  0  0  0  0  0  0  0  0  0  0
  129.4042  129.7612   75.1856 H   0  0  0  0  0  0  0  0  0  0  0  0
  1  2  2  0
  2  3  1  0
  3  4  2  0
  4  5  1  0
  5  6  2  0
  6  7  1  0
  7  8  2  0
  8  9  1  0
  9 10  1  0
 10 11  1  0
 11 12  1  0
 12 13  1  0
 13 14  1  0
 14 15  2  0
 15 16  1  0
 16 17  1  0
 17 18  1  0
 18 19  1  0
 19 20  1  0
 20 21  1  0
 21 22  1  0
 22 23  1  0
 23 24  2  0
 24 25  1  0
 25 26  2  0
 26 27  1  0
 27 28  1  0
 28 29  1  0
 29 30  1  0
 30 31  2  0
 31 32  1  0
 32 33  2  0
 33 34  1  0
 34 35  2  0
 35 36  1  0
 36 37  2  0
 36 38  1  0
 38 39  1  0
 39 40  1  0
 40 41  1  0
 41 42  2  0
 42 43  1  0
 43 44  2  0
 44 45  1  0
 45 46  2  0
 27 47  2  0
 16 48  1  0
 48 49  2  0
  8 50  1  0
 50 51  2  0
  2 52  1  0
 52 53  2  0
 53 54  1  0
 54 55  2  0
 55 56  1  0
 56 57  2  0
 57 58  1  0
 51  5  1  0
 57 52  1  0
 49 14  1  0
 47 23  1  0
 38 28  2  0
 46 41  1  0
 35 30  1  0
  3 59  1  0
  4 60  1  0
  6 61  1  0
  7 62  1  0
 10 63  1  0
 10 64  1  0
 11 65  1  0
 11 66  1  0
 12 67  1  0
 12 68  1  0
 13 69  1  0
 13 70  1  0
 15 71  1  0
 17 72  1  0
 17 73  1  0
 18 74  1  0
 18 75  1  0
 20 76  1  0
 20 77  1  0
 21 78  1  0
 21 79  1  0
 24 80  1  0
 25 81  1  0
 26 82  1  0
 31 83  1  0
 32 84  1  0
 33 85  1  0
 34 86  1  0
 40 87  1  0
 40 88  1  0
 42 89  1  0
 43 90  1  0
 44 91  1  0
 45 92  1  0
 46 93  1  0
 47 94  1  0
 50 95  1  0
 51 96  1  0
 53 97  1  0
 54 98  1  0
 55 99  1  0
 56100  1  0
M  CHG  1  58  -1
M  END
>  <Binding energies>  (1) 
[-7.62]

>  <Ligand effiencies>  (1) 
[-0.13137931034482758]

>  <Interactions>  (1) 
["V-A:ILE:369:CG2:3237, V-B:PRO:540:CA:9855, V-A:GLU:543:CA:4904, V-B:HIS:456:CD2:9039, V-A:ILE:369:CB:3236, V-B:GLU:543:CB:9878, V-B:HIS:456:CB:9036, H-A:TYR:531:OH:4795, V-B:TYR:539:CE2:9848, V-B:GLU:543:CG:9879, V-B:LEU:475:CD2:9230, V-A:TYR:539:CD1:4873, V-B:TYR:484:CE2:9317, V-B:TYR:539:CZ:9849, H-B:TYR:539:OH:9850, V-B:LYS:547:CE:9922, V-A:GLU:543:CD:4908, V-B:PRO:540:CB:9857, H-B:TYR:484:OH:9319, V-B:HIS:456:CE1:9041, V-B:TYR:484:CZ:9318, V-A:ILE:369:CD1:3239, V-B:GLY:544:C:9884, V-B:TYR:539:CD2:9846, V-A:GLU:543:CG:4907, V-B:GLU:543:CD:9880, V-B:HIS:456:CG:9037, V-A:ILE:369:CG1:3238, H-A:LYS:547:NZ:4951, V-A:LEU:475:CD2:4259, V-A:GLU:543:CB:4906, V-B:PRO:540:C:9853, V-A:TYR:539:CE1:4875"]

$$$$
ZINC1858589975
     RDKit          3D

 57 59  0  0  0  0  0  0  0  0999 V2000
  132.9370  126.5950   74.0350 C   0  0  0  0  0  0  0  0  0  0  0  0
  131.4850  126.9160   74.4200 C   0  0  0  0  0  0  0  0  0  0  0  0
  130.4550  125.9770   73.7700 C   0  0  0  0  0  0  0  0  0  0  0  0
  129.2940  126.7220   73.4130 O   0  0  0  0  0  0  0  0  0  0  0  0
  129.0830  127.0730   72.0910 C   0  0  0  0  0  0  0  0  0  0  0  0
  128.4330  126.2450   71.1600 C   0  0  0  0  0  0  0  0  0  0  0  0
  128.2570  126.6600   69.8420 C   0  0  0  0  0  0  0  0  0  0  0  0
  128.7320  127.9040   69.4230 C   0  0  0  0  0  0  0  0  0  0  0  0
  128.5450  128.3800   68.0370 C   0  0  0  0  0  0  0  0  0  0  0  0
  128.7560  127.7500   66.8560 C   0  0  0  0  0  0  0  0  0  0  0  0
  128.4100  128.4420   65.2810 S   0  0  0  0  0  0  0  0  0  0  0  0
  128.9530  127.0120   64.4540 C   0  0  0  0  0  0  0  0  0  0  0  0
  128.8720  126.9710   62.7870 S   0  0  0  0  0  0  0  0  0  0  0  0
  129.3910  126.0930   65.3740 N   0  0  0  0  0  0  0  0  0  0  0  0
  129.9360  124.7620   64.9600 C   0  0  1  0  0  0  0  0  0  0  0  0
  129.0880  124.0080   63.8980 C   0  0  0  0  0  0  0  0  0  0  0  0
  129.5940  122.5690   63.6510 C   0  0  0  0  0  0  0  0  0  0  0  0
  131.1160  122.4860   63.4140 C   0  0  0  0  0  0  0  0  0  0  0  0
  131.8980  123.2300   64.5130 C   0  0  0  0  0  0  0  0  0  0  0  0
  131.4550  124.7070   64.6000 C   0  0  2  0  0  0  0  0  0  0  0  0
  132.3460  125.5020   65.5770 C   0  0  0  0  0  0  0  0  0  0  0  0
  129.3340  126.4290   66.6940 C   0  0  0  0  0  0  0  0  0  0  0  0
  129.7310  125.7030   67.6070 O   0  0  0  0  0  0  0  0  0  0  0  0
  129.3620  128.7370   70.3500 C   0  0  0  0  0  0  0  0  0  0  0  0
  129.5520  128.3300   71.6820 C   0  0  0  0  0  0  0  0  0  0  0  0
  130.1820  129.1060   72.6390 O   0  0  0  0  0  0  0  0  0  0  0  0
  129.4970  130.2150   73.2150 C   0  0  0  0  0  0  0  0  0  0  0  0
  128.5600  129.6990   74.3100 C   0  0  0  0  0  0  0  0  0  0  0  0
  133.5374  126.4623   74.9471 H   0  0  0  0  0  0  0  0  0  0  0  0
  132.9628  125.6695   73.4411 H   0  0  0  0  0  0  0  0  0  0  0  0
  133.3506  127.4234   73.4411 H   0  0  0  0  0  0  0  0  0  0  0  0
  131.3887  126.8351   75.5128 H   0  0  0  0  0  0  0  0  0  0  0  0
  131.2712  127.9317   74.0559 H   0  0  0  0  0  0  0  0  0  0  0  0
  130.8908  125.5222   72.8682 H   0  0  0  0  0  0  0  0  0  0  0  0
  130.1789  125.1854   74.4821 H   0  0  0  0  0  0  0  0  0  0  0  0
  128.0595  125.2595   71.4752 H   0  0  0  0  0  0  0  0  0  0  0  0
  127.7404  126.0032   69.1267 H   0  0  0  0  0  0  0  0  0  0  0  0
  128.1748  129.4122   67.9496 H   0  0  0  0  0  0  0  0  0  0  0  0
  129.8427  124.2128   65.9085 H   0  0  0  0  0  0  0  0  0  0  0  0
  128.0460  123.9606   64.2472 H   0  0  0  0  0  0  0  0  0  0  0  0
  129.1717  124.5595   62.9499 H   0  0  0  0  0  0  0  0  0  0  0  0
  129.3442  121.9561   64.5296 H   0  0  0  0  0  0  0  0  0  0  0  0
  129.1030  122.2051   62.7364 H   0  0  0  0  0  0  0  0  0  0  0  0
  131.4206  121.4290   63.4114 H   0  0  0  0  0  0  0  0  0  0  0  0
  131.3419  122.9601   62.4475 H   0  0  0  0  0  0  0  0  0  0  0  0
  131.7130  122.7408   65.4807 H   0  0  0  0  0  0  0  0  0  0  0  0
  132.9693  123.1981   64.2652 H   0  0  0  0  0  0  0  0  0  0  0  0
  131.5857  125.1975   63.6241 H   0  0  0  0  0  0  0  0  0  0  0  0
  132.0677  125.2537   66.6118 H   0  0  0  0  0  0  0  0  0  0  0  0
  133.4007  125.2394   65.4079 H   0  0  0  0  0  0  0  0  0  0  0  0
  132.2048  126.5797   65.4079 H   0  0  0  0  0  0  0  0  0  0  0  0
  129.7157  129.7289   70.0323 H   0  0  0  0  0  0  0  0  0  0  0  0
  130.2257  130.9143   73.6508 H   0  0  0  0  0  0  0  0  0  0  0  0
  128.9164  130.7393   72.4417 H   0  0  0  0  0  0  0  0  0  0  0  0
  128.9854  129.9333   75.2970 H   0  0  0  0  0  0  0  0  0  0  0  0
  127.5774  130.1832   74.2099 H   0  0  0  0  0  0  0  0  0  0  0  0
  128.4439  128.6097   74.2099 H   0  0  0  0  0  0  0  0  0  0  0  0
  1  2  1  0
  2  3  1  0
  3  4  1  0
  4  5  1  0
  5  6  2  0
  6  7  1  0
  7  8  2  0
  8  9  1  0
  9 10  2  0
 10 11  1  0
 11 12  1  0
 12 13  2  0
 12 14  1  0
 14 15  1  0
 15 16  1  0
 16 17  1  0
 17 18  1  0
 18 19  1  0
 19 20  1  0
 20 21  1  0
 14 22  1  0
 22 23  2  0
  8 24  1  0
 24 25  2  0
 25 26  1  0
 26 27  1  0
 27 28  1  0
 25  5  1  0
 22 10  1  0
 20 15  1  0
  1 29  1  0
  1 30  1  0
  1 31  1  0
  2 32  1  0
  2 33  1  0
  3 34  1  0
  3 35  1  0
  6 36  1  0
  7 37  1  0
  9 38  1  0
 15 39  1  1
 16 40  1  0
 16 41  1  0
 17 42  1  0
 17 43  1  0
 18 44  1  0
 18 45  1  0
 19 46  1  0
 19 47  1  0
 20 48  1  6
 21 49  1  0
 21 50  1  0
 21 51  1  0
 24 52  1  0
 27 53  1  0
 27 54  1  0
 28 55  1  0
 28 56  1  0
 28 57  1  0
M  END
>  <Binding energies>  (1) 
[-6.38]

>  <Ligand effiencies>  (1) 
[-0.22785714285714284]

>  <Interactions>  (1) 
["V-B:GLU:543:C:9874, V-B:HIS:456:CD2:9039, V-A:GLU:543:C:4902, V-B:GLU:543:CB:9878, H-B:LYS:547:NZ:9923, V-B:ALA:541:CB:9864, V-A:TYR:484:CE2:4346, V-B:GLU:543:CG:9879, V-A:HIS:456:CD2:4068, V-A:HIS:456:CB:4065, V-A:GLU:543:CD:4908, V-A:TYR:484:CZ:4347, V-B:HIS:456:CE1:9041, V-A:GLU:543:CG:4907, V-B:GLU:543:CD:9880, H-A:LYS:547:NZ:4951, V-A:LEU:475:CD2:4259, V-A:ARG:545:CZ:4926, V-A:HIS:456:CG:4066, V-A:GLU:543:CB:4906, V-A:LYS:547:CE:4950"]

$$$$
ZINC1858650138
     RDKit          3D

 73 74  0  0  0  0  0  0  0  0999 V2000
  126.3690  118.3880   72.0690 C   0  0  0  0  0  0  0  0  0  0  0  0
  127.0340  118.7660   73.4030 C   0  0  0  0  0  0  0  0  0  0  0  0
  128.4410  119.3750   73.1660 N   0  0  0  0  0  0  0  0  0  0  0  0
  129.2310  119.5530   74.4870 C   0  0  0  0  0  0  0  0  0  0  0  0
  130.6080  118.8730   74.3990 C   0  0  0  0  0  0  0  0  0  0  0  0
  128.3600  120.6840   72.3430 C   0  0  0  0  0  0  0  0  0  0  0  0
  129.3820  121.7080   72.8770 C   0  0  0  0  0  0  0  0  0  0  0  0
  128.7340  122.9440   73.5370 C   0  0  0  0  0  0  0  0  0  0  0  0
  129.6620  123.8310   74.2420 N   0  0  0  0  0  0  0  0  0  0  0  0
  129.8670  125.1670   73.9450 C   0  0  0  0  0  0  0  0  0  0  0  0
  130.7390  125.4840   74.7680 O   0  0  0  0  0  0  0  0  0  0  0  0
  129.2580  125.8350   73.0440 N   0  0  0  0  0  0  0  0  0  0  0  0
  129.5940  127.5500   72.7480 S   0  0  0  0  0  0  0  0  0  0  0  0
  128.5630  128.4880   73.2060 O   0  0  0  0  0  0  0  0  0  0  0  0
  130.9720  128.0380   72.8870 O   0  0  0  0  0  0  0  0  0  0  0  0
  129.3590  127.4520   70.9710 C   0  0  0  0  0  0  0  0  0  0  0  0
  128.1130  127.0750   70.4610 C   0  0  0  0  0  0  0  0  0  0  0  0
  127.9130  127.0210   69.0860 C   0  0  0  0  0  0  0  0  0  0  0  0
  128.9550  127.3490   68.2150 C   0  0  0  0  0  0  0  0  0  0  0  0
  128.7360  127.2930   66.7050 C   0  0  0  0  0  0  0  0  0  0  0  0
  129.5150  126.2660   66.0090 N   0  0  0  0  0  0  0  0  0  0  0  0
  129.6710  126.1740   64.6760 C   0  0  0  0  0  0  0  0  0  0  0  0
  129.1490  126.9520   63.8750 O   0  0  0  0  0  0  0  0  0  0  0  0
  130.5120  125.0660   64.2820 C   0  0  0  0  0  0  0  0  0  0  0  0
  131.2730  125.0890   63.1650 C   0  0  0  0  0  0  0  0  0  0  0  0
  132.1710  124.0040   62.7060 C   0  0  0  0  0  0  0  0  0  0  0  0
  131.6890  122.9840   61.8730 C   0  0  0  0  0  0  0  0  0  0  0  0
  132.5150  121.9560   61.4200 C   0  0  0  0  0  0  0  0  0  0  0  0
  131.9350  121.0010   60.6050 O   0  0  0  0  0  0  0  0  0  0  0  0
  130.6380  120.5120   60.9250 C   0  0  0  0  0  0  0  0  0  0  0  0
  133.8600  121.9530   61.8140 C   0  0  0  0  0  0  0  0  0  0  0  0
  134.3550  122.9580   62.6390 C   0  0  0  0  0  0  0  0  0  0  0  0
  133.5230  123.9940   63.0960 C   0  0  0  0  0  0  0  0  0  0  0  0
  133.9690  125.0200   63.9140 O   0  0  0  0  0  0  0  0  0  0  0  0
  133.6200  125.0240   65.2950 C   0  0  0  0  0  0  0  0  0  0  0  0
  130.2020  127.7210   68.7250 C   0  0  0  0  0  0  0  0  0  0  0  0
  130.4030  127.7790   70.1020 C   0  0  0  0  0  0  0  0  0  0  0  0
  125.4283  117.8533   72.2668 H   0  0  0  0  0  0  0  0  0  0  0  0
  126.1577  119.3010   71.4930 H   0  0  0  0  0  0  0  0  0  0  0  0
  127.0453  117.7393   71.4930 H   0  0  0  0  0  0  0  0  0  0  0  0
  126.4050  119.5036   73.9229 H   0  0  0  0  0  0  0  0  0  0  0  0
  127.1423  117.8566   74.0123 H   0  0  0  0  0  0  0  0  0  0  0  0
  128.9560  118.7110   72.6050 H   0  0  0  0  0  0  0  0  0  0  0  0
  129.3713  120.6267   74.6809 H   0  0  0  0  0  0  0  0  0  0  0  0
  128.6602  119.0865   75.3034 H   0  0  0  0  0  0  0  0  0  0  0  0
  130.9894  118.6846   75.4134 H   0  0  0  0  0  0  0  0  0  0  0  0
  130.5119  117.9187   73.8603 H   0  0  0  0  0  0  0  0  0  0  0  0
  131.3073  119.5294   73.8603 H   0  0  0  0  0  0  0  0  0  0  0  0
  128.5812  120.4650   71.2880 H   0  0  0  0  0  0  0  0  0  0  0  0
  127.3475  121.1045   72.4329 H   0  0  0  0  0  0  0  0  0  0  0  0
  130.0169  121.2083   73.6235 H   0  0  0  0  0  0  0  0  0  0  0  0
  129.9573  122.0696   72.0119 H   0  0  0  0  0  0  0  0  0  0  0  0
  128.2358  123.5287   72.7496 H   0  0  0  0  0  0  0  0  0  0  0  0
  128.0423  122.5564   74.2995 H   0  0  0  0  0  0  0  0  0  0  0  0
  130.3920  123.3580   74.7530 H   0  0  0  0  0  0  0  0  0  0  0  0
  127.2914  126.8213   71.1470 H   0  0  0  0  0  0  0  0  0  0  0  0
  126.9343  126.7200   68.6840 H   0  0  0  0  0  0  0  0  0  0  0  0
  127.6694  127.0968   66.5209 H   0  0  0  0  0  0  0  0  0  0  0  0
  129.0742  128.2611   66.3069 H   0  0  0  0  0  0  0  0  0  0  0  0
  129.9800  125.5880   66.5950 H   0  0  0  0  0  0  0  0  0  0  0  0
  130.5335  124.1679   64.9168 H   0  0  0  0  0  0  0  0  0  0  0  0
  131.2208  125.9938   62.5415 H   0  0  0  0  0  0  0  0  0  0  0  0
  130.6319  122.9952   61.5691 H   0  0  0  0  0  0  0  0  0  0  0  0
  130.5220  120.4683   62.0180 H   0  0  0  0  0  0  0  0  0  0  0  0
  129.8777  121.1852   60.5022 H   0  0  0  0  0  0  0  0  0  0  0  0
  130.5114  119.5044   60.5022 H   0  0  0  0  0  0  0  0  0  0  0  0
  134.5287  121.1508   61.4687 H   0  0  0  0  0  0  0  0  0  0  0  0
  135.4135  122.9413   62.9380 H   0  0  0  0  0  0  0  0  0  0  0  0
  134.5356  125.0135   65.9046 H   0  0  0  0  0  0  0  0  0  0  0  0
  133.0377  125.9289   65.5234 H   0  0  0  0  0  0  0  0  0  0  0  0
  133.0172  124.1327   65.5234 H   0  0  0  0  0  0  0  0  0  0  0  0
  131.0252  127.9681   68.0385 H   0  0  0  0  0  0  0  0  0  0  0  0
  131.3811  128.0815   70.5043 H   0  0  0  0  0  0  0  0  0  0  0  0
  1  2  1  0
  2  3  1  0
  3  4  1  0
  4  5  1  0
  3  6  1  0
  6  7  1  0
  7  8  1  0
  8  9  1  0
  9 10  1  0
 10 11  1  0
 10 12  2  0
 12 13  1  0
 13 14  2  0
 13 15  2  0
 13 16  1  0
 16 17  2  0
 17 18  1  0
 18 19  2  0
 19 20  1  0
 20 21  1  0
 21 22  1  0
 22 23  2  0
 22 24  1  0
 24 25  2  0
 25 26  1  0
 26 27  2  0
 27 28  1  0
 28 29  1  0
 29 30  1  0
 28 31  2  0
 31 32  1  0
 32 33  2  0
 33 34  1  0
 34 35  1  0
 19 36  1  0
 36 37  2  0
 37 16  1  0
 33 26  1  0
  1 38  1  0
  1 39  1  0
  1 40  1  0
  2 41  1  0
  2 42  1  0
  3 43  1  0
  4 44  1  0
  4 45  1  0
  5 46  1  0
  5 47  1  0
  5 48  1  0
  6 49  1  0
  6 50  1  0
  7 51  1  0
  7 52  1  0
  8 53  1  0
  8 54  1  0
  9 55  1  0
 17 56  1  0
 18 57  1  0
 20 58  1  0
 20 59  1  0
 21 60  1  0
 24 61  1  0
 25 62  1  0
 27 63  1  0
 30 64  1  0
 30 65  1  0
 30 66  1  0
 31 67  1  0
 32 68  1  0
 35 69  1  0
 35 70  1  0
 35 71  1  0
 36 72  1  0
 37 73  1  0
M  CHG  2   3   1  11  -1
M  END
>  <Binding energies>  (1) 
[-7.79]

>  <Ligand effiencies>  (1) 
[-0.19475]

>  <Interactions>  (1) 
["V-A:ILE:369:CG2:3237, V-A:GLY:454:CA:4049, H-A:TYR:484:O:4338, H-A:GLU:543:OE2:4910, V-B:GLU:543:C:9874, V-A:GLU:543:C:4902, V-B:GLU:543:CB:9878, H-B:LYS:547:NZ:9923, V-A:ASP:473:CB:4239, H-A:ARG:545:NH1:4927, V-B:TYR:539:CE2:9848, V-B:GLU:543:CG:9879, V-A:HIS:456:CD2:4068, V-B:LYS:547:CE:9922, V-A:ASP:473:CG:4240, V-A:TYR:484:CA:4339, V-A:GLU:543:CD:4908, H-A:ASP:473:OD1:4241, V-B:HIS:456:CE1:9041, H-A:GLY:454:N:4050, V-A:GLY:453:C:4042, V-A:HIS:456:CE1:4070, V-A:ILE:369:CD1:3239, V-A:TYR:484:CG:4342, V-B:TYR:539:CD2:9846, V-B:GLU:543:CD:9880, V-A:ARG:545:CD:4923, H-A:LYS:547:NZ:4951, H-A:ARG:545:NH2:4928, V-B:VAL:542:CG1:9871, V-A:LEU:475:CD2:4259, V-A:TYR:484:CB:4341, V-A:ARG:545:CZ:4926, V-A:ASP:485:CA:4353, V-A:GLU:543:CB:4906, H-A:ARG:545:NE:4924, V-A:TYR:484:C:4337"]

$$$$
ZINC1860084933
     RDKit          3D

 31 33  0  0  0  0  0  0  0  0999 V2000
  127.7660  129.0350   66.7010 O   0  0  0  0  0  0  0  0  0  0  0  0
  128.3700  128.0360   66.2950 C   0  0  0  0  0  0  0  0  0  0  0  0
  128.6720  127.7370   64.9070 C   0  0  0  0  0  0  0  0  0  0  0  0
  128.3240  128.5100   63.8520 C   0  0  0  0  0  0  0  0  0  0  0  0
  127.5590  129.7710   63.8410 C   0  0  0  0  0  0  0  0  0  0  0  0
  128.2420  130.9870   63.7490 C   0  0  0  0  0  0  0  0  0  0  0  0
  127.5390  132.1910   63.7130 C   0  0  0  0  0  0  0  0  0  0  0  0
  126.1460  132.1870   63.7560 C   0  0  0  0  0  0  0  0  0  0  0  0
  125.4650  133.3540   63.7200 F   0  0  0  0  0  0  0  0  0  0  0  0
  125.4550  130.9780   63.8310 C   0  0  0  0  0  0  0  0  0  0  0  0
  126.1560  129.7720   63.8690 C   0  0  0  0  0  0  0  0  0  0  0  0
  125.4680  128.6080   63.9320 F   0  0  0  0  0  0  0  0  0  0  0  0
  129.5710  126.2310   64.8030 S   0  0  0  0  0  0  0  0  0  0  0  0
  129.5230  126.0060   66.5280 C   0  0  0  0  0  0  0  0  0  0  0  0
  130.2390  124.6550   67.2020 S   0  0  0  0  0  0  0  0  0  0  0  0
  128.8560  127.0560   67.1050 N   0  0  0  0  0  0  0  0  0  0  0  0
  128.6670  127.1420   68.5070 C   0  0  0  0  0  0  0  0  0  0  0  0
  127.3840  126.9370   69.0330 C   0  0  0  0  0  0  0  0  0  0  0  0
  127.1660  127.0240   70.4080 C   0  0  0  0  0  0  0  0  0  0  0  0
  128.2250  127.3200   71.2650 C   0  0  0  0  0  0  0  0  0  0  0  0
  127.9520  127.4270   72.9660 Cl  0  0  0  0  0  0  0  0  0  0  0  0
  129.5040  127.5300   70.7490 C   0  0  0  0  0  0  0  0  0  0  0  0
  129.7340  127.4460   69.3740 C   0  0  0  0  0  0  0  0  0  0  0  0
  131.3370  127.7250   68.7830 Cl  0  0  0  0  0  0  0  0  0  0  0  0
  128.6573  128.1483   62.8681 H   0  0  0  0  0  0  0  0  0  0  0  0
  129.3411  130.9944   63.7047 H   0  0  0  0  0  0  0  0  0  0  0  0
  128.0843  133.1443   63.6506 H   0  0  0  0  0  0  0  0  0  0  0  0
  124.3554  130.9750   63.8603 H   0  0  0  0  0  0  0  0  0  0  0  0
  126.5459  126.7066   68.3589 H   0  0  0  0  0  0  0  0  0  0  0  0
  126.1580  126.8590   70.8163 H   0  0  0  0  0  0  0  0  0  0  0  0
  130.3364  127.7632   71.4292 H   0  0  0  0  0  0  0  0  0  0  0  0
  1  2  2  0
  2  3  1  0
  3  4  2  0
  4  5  1  0
  5  6  2  0
  6  7  1  0
  7  8  2  0
  8  9  1  0
  8 10  1  0
 10 11  2  0
 11 12  1  0
  3 13  1  0
 13 14  1  0
 14 15  2  0
 14 16  1  0
 16 17  1  0
 17 18  2  0
 18 19  1  0
 19 20  2  0
 20 21  1  0
 20 22  1  0
 22 23  2  0
 23 24  1  0
 16  2  1  0
 23 17  1  0
 11  5  1  0
  4 25  1  0
  6 26  1  0
  7 27  1  0
 10 28  1  0
 18 29  1  0
 19 30  1  0
 22 31  1  0
M  END
>  <Binding energies>  (1) 
[-6.54]

>  <Ligand effiencies>  (1) 
[-0.2725]

>  <Interactions>  (1) 
["V-B:GLU:543:C:9874, V-B:HIS:456:CD2:9039, V-A:GLU:543:C:4902, V-B:GLU:543:CB:9878, V-A:TYR:484:CE2:4346, V-B:GLU:543:CG:9879, V-B:LEU:475:CD2:9230, V-B:LYS:547:CE:9922, V-A:GLU:543:CD:4908, V-A:TYR:484:CZ:4347, H-B:TYR:484:OH:9319, V-B:GLY:454:CA:9020, V-A:ARG:545:CG:4922, V-B:HIS:456:CE1:9041, V-B:GLU:543:CA:9876, V-A:HIS:456:CE1:4070, V-B:TYR:484:CZ:9318, V-B:GLY:544:C:9884, V-B:GLY:544:CA:9886, V-A:GLU:543:CG:4907, V-B:GLU:543:CD:9880, V-B:ARG:545:CZ:9898, V-A:GLU:543:CB:4906"]

$$$$
ZINC1861348
     RDKit          3D

 61 64  0  0  0  0  0  0  0  0999 V2000
  131.9750  123.3790   63.6270 C   0  0  0  0  0  0  0  0  0  0  0  0
  130.7780  123.9920   62.9200 C   0  0  0  0  0  0  0  0  0  0  0  0
  130.1670  123.2970   61.9330 C   0  0  0  0  0  0  0  0  0  0  0  0
  129.0400  123.7020   61.0980 C   0  0  0  0  0  0  0  0  0  0  0  0
  127.5140  122.8440   61.0850 S   0  0  0  0  0  0  0  0  0  0  0  0
  126.9360  123.9140   59.8180 C   0  0  0  0  0  0  0  0  0  0  0  0
  125.6980  123.8640   59.1610 C   0  0  0  0  0  0  0  0  0  0  0  0
  125.4420  124.8050   58.1670 C   0  0  0  0  0  0  0  0  0  0  0  0
  126.3840  125.7740   57.8290 C   0  0  0  0  0  0  0  0  0  0  0  0
  127.6250  125.8530   58.4650 C   0  0  0  0  0  0  0  0  0  0  0  0
  127.8940  124.9080   59.4680 C   0  0  0  0  0  0  0  0  0  0  0  0
  129.0580  124.7850   60.2290 N   0  0  0  0  0  0  0  0  0  0  0  0
  130.2260  125.6590   60.0590 C   0  0  0  0  0  0  0  0  0  0  0  0
  130.8380  125.4880   58.6570 C   0  0  0  0  0  0  0  0  0  0  0  0
  132.3520  125.7580   58.6440 C   0  0  0  0  0  0  0  0  0  0  0  0
  133.3230  124.1550   58.9070 S   0  0  0  0  0  0  0  0  0  0  0  0
  134.4990  124.5910   59.6680 O   0  0  0  0  0  0  0  0  0  0  0  0
  132.3960  123.3010   59.6590 O   0  0  0  0  0  0  0  0  0  0  0  0
  133.6160  123.6920   57.5460 O   0  0  0  0  0  0  0  0  0  0  0  0
  130.3030  125.3260   63.2770 C   0  0  0  0  0  0  0  0  0  0  0  0
  129.9980  125.8920   64.5820 C   0  0  0  0  0  0  0  0  0  0  0  0
  130.6240  125.2520   66.0830 S   0  0  0  0  0  0  0  0  0  0  0  0
  129.6600  126.4260   66.9710 C   0  0  0  0  0  0  0  0  0  0  0  0
  129.5800  126.5840   68.3610 C   0  0  0  0  0  0  0  0  0  0  0  0
  128.7390  127.5760   68.8650 C   0  0  0  0  0  0  0  0  0  0  0  0
  127.9950  128.3910   68.0160 C   0  0  0  0  0  0  0  0  0  0  0  0
  128.0530  128.2610   66.6270 C   0  0  0  0  0  0  0  0  0  0  0  0
  128.8990  127.2670   66.1090 C   0  0  0  0  0  0  0  0  0  0  0  0
  129.1240  126.9580   64.7680 N   0  0  0  0  0  0  0  0  0  0  0  0
  128.4780  127.6690   63.6560 C   0  0  0  0  0  0  0  0  0  0  0  0
  128.3240  129.1700   63.9630 C   0  0  0  0  0  0  0  0  0  0  0  0
  128.7280  130.0530   62.7680 C   0  0  0  0  0  0  0  0  0  0  0  0
  128.8360  131.8720   63.2780 S   0  0  0  0  0  0  0  0  0  0  0  0
  130.2610  132.1910   63.1480 O   0  0  0  0  0  0  0  0  0  0  0  0
  127.9610  132.5570   62.3200 O   0  0  0  0  0  0  0  0  0  0  0  0
  128.3410  131.8660   64.6590 O   0  0  0  0  0  0  0  0  0  0  0  0
  131.8343  123.4510   64.7156 H   0  0  0  0  0  0  0  0  0  0  0  0
  132.0693  122.3217   63.3386 H   0  0  0  0  0  0  0  0  0  0  0  0
  132.8880  123.9205   63.3386 H   0  0  0  0  0  0  0  0  0  0  0  0
  130.5730  122.2944   61.7333 H   0  0  0  0  0  0  0  0  0  0  0  0
  124.9494  123.1020   59.4238 H   0  0  0  0  0  0  0  0  0  0  0  0
  124.4775  124.7828   57.6386 H   0  0  0  0  0  0  0  0  0  0  0  0
  126.1432  126.4988   57.0374 H   0  0  0  0  0  0  0  0  0  0  0  0
  128.3609  126.6234   58.1915 H   0  0  0  0  0  0  0  0  0  0  0  0
  129.9153  126.7058   60.1915 H   0  0  0  0  0  0  0  0  0  0  0  0
  130.9826  125.3859   60.8094 H   0  0  0  0  0  0  0  0  0  0  0  0
  130.6596  124.4574   58.3165 H   0  0  0  0  0  0  0  0  0  0  0  0
  130.3599  126.2201   57.9896 H   0  0  0  0  0  0  0  0  0  0  0  0
  132.6322  126.1943   57.6739 H   0  0  0  0  0  0  0  0  0  0  0  0
  132.5930  126.4542   59.4609 H   0  0  0  0  0  0  0  0  0  0  0  0
  130.1525  126.0086   62.4276 H   0  0  0  0  0  0  0  0  0  0  0  0
  130.1649  125.9427   69.0367 H   0  0  0  0  0  0  0  0  0  0  0  0
  128.6621  127.7171   69.9532 H   0  0  0  0  0  0  0  0  0  0  0  0
  127.3417  129.1607   68.4528 H   0  0  0  0  0  0  0  0  0  0  0  0
  127.4605  128.9104   65.9658 H   0  0  0  0  0  0  0  0  0  0  0  0
  129.0913  127.5499   62.7506 H   0  0  0  0  0  0  0  0  0  0  0  0
  127.4755  127.2413   63.5073 H   0  0  0  0  0  0  0  0  0  0  0  0
  127.2728  129.3740   64.2147 H   0  0  0  0  0  0  0  0  0  0  0  0
  128.9914  129.4129   64.8030 H   0  0  0  0  0  0  0  0  0  0  0  0
  129.7089  129.7252   62.3934 H   0  0  0  0  0  0  0  0  0  0  0  0
  127.9638  129.9530   61.9831 H   0  0  0  0  0  0  0  0  0  0  0  0
  1  2  1  0
  2  3  2  0
  3  4  1  0
  4  5  1  0
  5  6  1  0
  6  7  2  0
  7  8  1  0
  8  9  2  0
  9 10  1  0
 10 11  2  0
 11 12  1  0
 12 13  1  0
 13 14  1  0
 14 15  1  0
 15 16  1  0
 16 17  2  0
 16 18  2  0
 16 19  1  0
  2 20  1  0
 20 21  1  0
 21 22  1  0
 22 23  1  0
 23 24  2  0
 24 25  1  0
 25 26  2  0
 26 27  1  0
 27 28  2  0
 28 29  1  0
 29 30  1  0
 30 31  1  0
 31 32  1  0
 32 33  1  0
 33 34  2  0
 33 35  2  0
 33 36  1  0
 12  4  2  0
 29 21  2  0
 11  6  1  0
 28 23  1  0
  1 37  1  0
  1 38  1  0
  1 39  1  0
  3 40  1  0
  7 41  1  0
  8 42  1  0
  9 43  1  0
 10 44  1  0
 13 45  1  0
 13 46  1  0
 14 47  1  0
 14 48  1  0
 15 49  1  0
 15 50  1  0
 20 51  1  0
 24 52  1  0
 25 53  1  0
 26 54  1  0
 27 55  1  0
 30 56  1  0
 30 57  1  0
 31 58  1  0
 31 59  1  0
 32 60  1  0
 32 61  1  0
M  CHG  5  12   1  19  -1  20  -1  29   1  36  -1
M  END
>  <Binding energies>  (1) 
[-8.19]

>  <Ligand effiencies>  (1) 
[-0.22749999999999998]

>  <Interactions>  (1) 
["V-A:ILE:369:CG2:3237, V-A:ASP:366:CA:3210, V-B:PRO:540:CA:9855, H-A:ALA:541:N:4891, V-B:GLU:543:CB:9878, V-B:TYR:539:CE2:9848, V-B:GLU:543:CG:9879, V-A:ASP:366:CG:3213, V-B:TYR:539:CZ:9849, H-A:ASN:370:N:3244, H-B:TYR:539:OH:9850, V-A:ALA:541:CB:4892, V-A:GLU:543:CD:4908, V-B:PRO:540:CB:9857, H-B:TYR:484:OH:9319, V-B:HIS:456:CE1:9041, V-A:HIS:456:CE1:4070, V-A:GLU:543:CG:4907, V-B:GLU:543:CD:9880, V-A:ASP:366:CB:3212, V-A:LEU:475:CD2:4259, V-B:PRO:540:C:9853"]

$$$$
ZINC1861348-again1
     RDKit          3D

 62 65  0  0  0  0  0  0  0  0999 V2000
  133.7410  125.1010   66.0580 C   0  0  0  0  0  0  0  0  0  0  0  0
  132.4710  124.7520   65.2980 C   0  0  0  0  0  0  0  0  0  0  0  0
  132.4960  124.4660   63.9770 C   0  0  0  0  0  0  0  0  0  0  0  0
  131.3820  124.0810   63.1220 C   0  0  0  0  0  0  0  0  0  0  0  0
  130.0010  123.2010   63.7350 S   0  0  0  0  0  0  0  0  0  0  0  0
  129.2890  123.2180   62.1300 C   0  0  0  0  0  0  0  0  0  0  0  0
  128.0490  122.6890   61.7430 C   0  0  0  0  0  0  0  0  0  0  0  0
  127.6670  122.8120   60.4100 C   0  0  0  0  0  0  0  0  0  0  0  0
  128.4920  123.4380   59.4780 C   0  0  0  0  0  0  0  0  0  0  0  0
  129.7330  123.9730   59.8290 C   0  0  0  0  0  0  0  0  0  0  0  0
  130.1260  123.8590   61.1730 C   0  0  0  0  0  0  0  0  0  0  0  0
  131.3030  124.3300   61.7560 N   0  0  0  0  0  0  0  0  0  0  0  0
  132.3520  125.0220   60.9890 C   0  0  0  0  0  0  0  0  0  0  0  0
  133.5730  124.1150   60.7260 C   0  0  0  0  0  0  0  0  0  0  0  0
  133.2680  122.8590   59.8860 C   0  0  0  0  0  0  0  0  0  0  0  0
  133.0900  121.3370   60.9960 S   0  0  0  0  0  0  0  0  0  0  0  0
  133.9420  121.6560   62.1460 O   0  0  0  0  0  0  0  0  0  0  0  0
  131.6550  121.2870   61.2960 O   0  0  0  0  0  0  0  0  0  0  0  0
  133.5810  120.2340   60.1630 O   0  0  0  0  0  0  0  0  0  0  0  0
  131.1850  124.7810   66.1230 C   0  0  0  0  0  0  0  0  0  0  0  0
  130.1870  125.9120   65.8830 C   0  0  0  0  0  0  0  0  0  0  0  0
  129.7140  126.5080   64.3020 S   0  0  0  0  0  0  0  0  0  0  0  0
  128.7060  127.7320   65.0520 C   0  0  0  0  0  0  0  0  0  0  0  0
  127.9390  128.7150   64.4110 C   0  0  0  0  0  0  0  0  0  0  0  0
  127.2160  129.6060   65.2020 C   0  0  0  0  0  0  0  0  0  0  0  0
  127.2500  129.5270   66.5930 C   0  0  0  0  0  0  0  0  0  0  0  0
  128.0030  128.5580   67.2590 C   0  0  0  0  0  0  0  0  0  0  0  0
  128.7330  127.6530   66.4700 C   0  0  0  0  0  0  0  0  0  0  0  0
  129.5480  126.6070   66.9070 N   0  0  0  0  0  0  0  0  0  0  0  0
  129.7710  126.3180   68.3300 C   0  0  0  0  0  0  0  0  0  0  0  0
  130.4180  127.5260   69.0330 C   0  0  0  0  0  0  0  0  0  0  0  0
  129.5470  128.1120   70.1550 C   0  0  0  0  0  0  0  0  0  0  0  0
  130.3470  127.7850   71.8400 S   0  0  0  0  0  0  0  0  0  0  0  0
  131.7050  127.3480   71.4990 O   0  0  0  0  0  0  0  0  0  0  0  0
  130.2740  129.0820   72.5240 O   0  0  0  0  0  0  0  0  0  0  0  0
  129.5000  126.7400   72.4230 O   0  0  0  0  0  0  0  0  0  0  0  0
  133.5474  125.0478   67.1395 H   0  0  0  0  0  0  0  0  0  0  0  0
  134.5351  124.3878   65.7921 H   0  0  0  0  0  0  0  0  0  0  0  0
  134.0591  126.1199   65.7921 H   0  0  0  0  0  0  0  0  0  0  0  0
  133.4790  124.5323   63.4877 H   0  0  0  0  0  0  0  0  0  0  0  0
  127.3955  122.1900   62.4737 H   0  0  0  0  0  0  0  0  0  0  0  0
  126.6964  122.4077   60.0867 H   0  0  0  0  0  0  0  0  0  0  0  0
  128.1553  123.5131   58.4335 H   0  0  0  0  0  0  0  0  0  0  0  0
  130.3765  124.4636   59.0839 H   0  0  0  0  0  0  0  0  0  0  0  0
  131.9330  125.3416   60.0234 H   0  0  0  0  0  0  0  0  0  0  0  0
  132.6919  125.8842   61.5815 H   0  0  0  0  0  0  0  0  0  0  0  0
  134.3327  124.7072   60.1949 H   0  0  0  0  0  0  0  0  0  0  0  0
  133.9149  123.7583   61.7088 H   0  0  0  0  0  0  0  0  0  0  0  0
  132.3299  123.0139   59.3328 H   0  0  0  0  0  0  0  0  0  0  0  0
  134.1006  122.6909   59.1871 H   0  0  0  0  0  0  0  0  0  0  0  0
  130.6558  123.8358   65.9317 H   0  0  0  0  0  0  0  0  0  0  0  0
  131.5318  124.9441   67.1541 H   0  0  0  0  0  0  0  0  0  0  0  0
  127.9087  128.7812   63.3134 H   0  0  0  0  0  0  0  0  0  0  0  0
  126.6077  130.3854   64.7199 H   0  0  0  0  0  0  0  0  0  0  0  0
  126.6667  130.2490   67.1833 H   0  0  0  0  0  0  0  0  0  0  0  0
  128.0239  128.5052   68.3575 H   0  0  0  0  0  0  0  0  0  0  0  0
  128.8063  126.0948   68.8092 H   0  0  0  0  0  0  0  0  0  0  0  0
  130.4467  125.4542   68.4150 H   0  0  0  0  0  0  0  0  0  0  0  0
  131.3771  127.2058   69.4661 H   0  0  0  0  0  0  0  0  0  0  0  0
  130.5485  128.3132   68.2758 H   0  0  0  0  0  0  0  0  0  0  0  0
  129.4436  129.1969   70.0060 H   0  0  0  0  0  0  0  0  0  0  0  0
  128.5567  127.6339   70.1283 H   0  0  0  0  0  0  0  0  0  0  0  0
  1  2  1  0
  2  3  2  0
  3  4  1  0
  4  5  1  0
  5  6  1  0
  6  7  2  0
  7  8  1  0
  8  9  2  0
  9 10  1  0
 10 11  2  0
 11 12  1  0
 12 13  1  0
 13 14  1  0
 14 15  1  0
 15 16  1  0
 16 17  2  0
 16 18  2  0
 16 19  1  0
  2 20  1  0
 20 21  1  0
 21 22  1  0
 22 23  1  0
 23 24  2  0
 24 25  1  0
 25 26  2  0
 26 27  1  0
 27 28  2  0
 28 29  1  0
 29 30  1  0
 30 31  1  0
 31 32  1  0
 32 33  1  0
 33 34  2  0
 33 35  2  0
 33 36  1  0
 12  4  2  0
 29 21  2  0
 11  6  1  0
 28 23  1  0
  1 37  1  0
  1 38  1  0
  1 39  1  0
  3 40  1  0
  7 41  1  0
  8 42  1  0
  9 43  1  0
 10 44  1  0
 13 45  1  0
 13 46  1  0
 14 47  1  0
 14 48  1  0
 15 49  1  0
 15 50  1  0
 20 51  1  0
 20 52  1  0
 24 53  1  0
 25 54  1  0
 26 55  1  0
 27 56  1  0
 30 57  1  0
 30 58  1  0
 31 59  1  0
 31 60  1  0
 32 61  1  0
 32 62  1  0
M  CHG  4  12   1  19  -1  29   1  36  -1
M  END
>  <Binding energies>  (1) 
[-9.15]

>  <Ligand effiencies>  (1) 
[-0.25416666666666665]

>  <Interactions>  (1) 
["V-A:ILE:369:CG2:3237, V-B:PRO:540:CA:9855, V-A:ILE:369:CB:3236, V-A:GLU:543:C:4902, V-B:GLU:543:CB:9878, V-B:ALA:541:CB:9864, V-B:TYR:539:CE2:9848, V-A:TYR:484:CE2:4346, V-B:GLU:543:CG:9879, V-A:GLY:544:C:4912, V-A:ASP:366:CG:3213, H-A:ARG:545:N:4920, V-B:TYR:484:CE2:9317, V-A:TYR:484:CZ:4347, V-A:GLU:543:CD:4908, V-B:PRO:540:CB:9857, V-B:HIS:456:CE1:9041, V-A:ARG:545:CG:4922, V-B:PRO:540:N:9856, V-A:HIS:456:CE1:4070, V-B:TYR:484:CZ:9318, V-A:ILE:369:CD1:3239, V-B:TYR:539:CD2:9846, V-A:GLU:543:CG:4907, H-A:SER:385:OG:3410, V-B:GLU:543:CD:9880, V-A:ARG:545:CD:4923, H-A:LYS:547:NZ:4951, V-A:LEU:475:CD2:4259, V-A:ARG:545:CZ:4926, V-A:GLU:543:CB:4906, V-B:PRO:540:C:9853, H-A:HIS:456:ND1:4067"]

$$$$
ZINC1862129214
     RDKit          3D

 59 60  0  0  0  0  0  0  0  0999 V2000
  133.3450  124.5790   63.3900 C   0  0  0  0  0  0  0  0  0  0  0  0
  132.6530  125.1000   64.6580 C   0  0  0  0  0  0  0  0  0  0  0  0
  131.1820  125.5400   64.4630 C   0  0  0  0  0  0  0  0  0  0  0  0
  130.1640  124.7820   65.2210 N   0  0  0  0  0  0  0  0  0  0  0  0
  129.5440  123.6740   64.4740 C   0  0  0  0  0  0  0  0  0  0  0  0
  128.9880  124.1020   63.0980 C   0  0  0  0  0  0  0  0  0  0  0  0
  128.0840  123.0630   62.4290 C   0  0  0  0  0  0  0  0  0  0  0  0
  126.9320  122.8450   62.8090 O   0  0  0  0  0  0  0  0  0  0  0  0
  128.7110  122.4440   61.4080 O   0  0  0  0  0  0  0  0  0  0  0  0
  129.5340  121.3080   61.6450 C   0  0  0  0  0  0  0  0  0  0  0  0
  130.9760  121.6320   61.2430 C   0  0  0  0  0  0  0  0  0  0  0  0
  129.8330  125.1060   66.5030 C   0  0  0  0  0  0  0  0  0  0  0  0
  129.5160  124.2520   67.3340 O   0  0  0  0  0  0  0  0  0  0  0  0
  129.8320  126.5940   66.9560 C   0  0  2  0  0  0  0  0  0  0  0  0
  130.0520  126.7720   68.4700 C   0  0  0  0  0  0  0  0  0  0  0  0
  128.3910  126.8040   69.1610 S   0  0  0  0  0  0  0  0  0  0  0  0
  127.7160  127.6330   67.7060 C   0  0  0  0  0  0  0  0  0  0  0  0
  128.6440  127.3950   66.5920 N   0  0  0  0  0  0  0  0  0  0  0  0
  128.4890  127.9500   65.3600 C   0  0  0  0  0  0  0  0  0  0  0  0
  128.7570  127.3270   64.3270 O   0  0  0  0  0  0  0  0  0  0  0  0
  127.9930  129.4150   65.2650 C   0  0  0  0  0  0  0  0  0  0  0  0
  128.3610  130.0420   63.9920 N   0  0  0  0  0  0  0  0  0  0  0  0
  128.4440  131.3690   63.7770 C   0  0  0  0  0  0  0  0  0  0  0  0
  128.2330  132.2180   64.6450 O   0  0  0  0  0  0  0  0  0  0  0  0
  128.8260  131.7720   62.3740 C   0  0  0  0  0  0  0  0  0  0  0  0
  130.0280  131.2970   61.8250 C   0  0  0  0  0  0  0  0  0  0  0  0
  130.4190  131.6600   60.5370 C   0  0  0  0  0  0  0  0  0  0  0  0
  129.6160  132.5080   59.7790 C   0  0  0  0  0  0  0  0  0  0  0  0
  130.1000  132.9590   58.1850 Cl  0  0  0  0  0  0  0  0  0  0  0  0
  128.4240  132.9960   60.3120 C   0  0  0  0  0  0  0  0  0  0  0  0
  128.0240  132.6400   61.6020 C   0  0  0  0  0  0  0  0  0  0  0  0
  126.5430  133.3220   62.1940 Cl  0  0  0  0  0  0  0  0  0  0  0  0
  134.1944  123.9395   63.6722 H   0  0  0  0  0  0  0  0  0  0  0  0
  132.6280  123.9946   62.7947 H   0  0  0  0  0  0  0  0  0  0  0  0
  133.7084  125.4297   62.7947 H   0  0  0  0  0  0  0  0  0  0  0  0
  132.6732  124.2993   65.4119 H   0  0  0  0  0  0  0  0  0  0  0  0
  133.2064  126.0000   64.9641 H   0  0  0  0  0  0  0  0  0  0  0  0
  131.1057  126.5955   64.7630 H   0  0  0  0  0  0  0  0  0  0  0  0
  130.9582  125.3509   63.4027 H   0  0  0  0  0  0  0  0  0  0  0  0
  130.3012  122.8918   64.3169 H   0  0  0  0  0  0  0  0  0  0  0  0
  128.6939  123.3131   65.0715 H   0  0  0  0  0  0  0  0  0  0  0  0
  128.4073  125.0263   63.2342 H   0  0  0  0  0  0  0  0  0  0  0  0
  129.8567  124.2342   62.4362 H   0  0  0  0  0  0  0  0  0  0  0  0
  129.5006  121.0469   62.7130 H   0  0  0  0  0  0  0  0  0  0  0  0
  129.1684  120.4586   61.0493 H   0  0  0  0  0  0  0  0  0  0  0  0
  131.5868  121.7692   62.1475 H   0  0  0  0  0  0  0  0  0  0  0  0
  131.3853  120.8034   60.6464 H   0  0  0  0  0  0  0  0  0  0  0  0
  130.9915  122.5560   60.6464 H   0  0  0  0  0  0  0  0  0  0  0  0
  130.6855  126.9809   66.3800 H   0  0  0  0  0  0  0  0  0  0  0  0
  130.6289  125.9306   68.8814 H   0  0  0  0  0  0  0  0  0  0  0  0
  130.6231  127.6817   68.7072 H   0  0  0  0  0  0  0  0  0  0  0  0
  126.7254  127.2203   67.4643 H   0  0  0  0  0  0  0  0  0  0  0  0
  127.6025  128.7112   67.8921 H   0  0  0  0  0  0  0  0  0  0  0  0
  126.8973  129.4251   65.3613 H   0  0  0  0  0  0  0  0  0  0  0  0
  128.4709  129.9868   66.0741 H   0  0  0  0  0  0  0  0  0  0  0  0
  128.5470  129.4160   63.2220 H   0  0  0  0  0  0  0  0  0  0  0  0
  130.6696  130.6296   62.4191 H   0  0  0  0  0  0  0  0  0  0  0  0
  131.3618  131.2765   60.1197 H   0  0  0  0  0  0  0  0  0  0  0  0
  127.7928  133.6674   59.7113 H   0  0  0  0  0  0  0  0  0  0  0  0
  1  2  1  0
  2  3  1  0
  3  4  1  0
  4  5  1  0
  5  6  1  0
  6  7  1  0
  7  8  2  0
  7  9  1  0
  9 10  1  0
 10 11  1  0
  4 12  1  0
 12 13  2  0
 12 14  1  0
 14 15  1  0
 15 16  1  0
 16 17  1  0
 17 18  1  0
 18 19  1  0
 19 20  2  0
 19 21  1  0
 21 22  1  0
 22 23  1  0
 23 24  2  0
 23 25  1  0
 25 26  2  0
 26 27  1  0
 27 28  2  0
 28 29  1  0
 28 30  1  0
 30 31  2  0
 31 32  1  0
 18 14  1  0
 31 25  1  0
  1 33  1  0
  1 34  1  0
  1 35  1  0
  2 36  1  0
  2 37  1  0
  3 38  1  0
  3 39  1  0
  5 40  1  0
  5 41  1  0
  6 42  1  0
  6 43  1  0
 10 44  1  0
 10 45  1  0
 11 46  1  0
 11 47  1  0
 11 48  1  0
 14 49  1  6
 15 50  1  0
 15 51  1  0
 17 52  1  0
 17 53  1  0
 21 54  1  0
 21 55  1  0
 22 56  1  0
 26 57  1  0
 27 58  1  0
 30 59  1  0
M  END
>  <Binding energies>  (1) 
[-6.69]

>  <Ligand effiencies>  (1) 
[-0.20272727272727273]

>  <Interactions>  (1) 
["V-B:GLU:543:CB:9878, V-B:ALA:541:CB:9864, V-B:TYR:539:CE2:9848, V-A:TYR:484:CE2:4346, V-B:GLU:543:CG:9879, V-B:LEU:475:CD2:9230, V-A:TYR:539:CD1:4873, H-B:ALA:541:N:9863, V-A:GLU:543:CD:4908, H-B:TYR:484:OH:9319, V-B:HIS:456:CE1:9041, V-A:HIS:456:CE1:4070, V-B:TYR:539:CD2:9846, V-A:GLU:543:CG:4907, V-B:GLU:543:CD:9880, V-A:TYR:539:C:4867, V-A:LEU:475:CD2:4259, V-A:ARG:545:CZ:4926, H-A:GLU:543:OE1:4909, V-A:PRO:540:N:4884, V-A:PRO:540:CB:4885, V-A:PRO:540:CA:4883, V-A:PRO:540:CD:4887, H-A:TYR:484:OH:4348"]

$$$$
ZINC1862635443-again1
     RDKit          3D

 66 69  0  0  0  0  0  0  0  0999 V2000
  127.5440  122.5100   57.2660 C   0  0  0  0  0  0  0  0  0  0  0  0
  127.9250  123.2030   58.5820 C   0  0  0  0  0  0  0  0  0  0  0  0
  126.7680  123.2870   59.5910 C   0  0  0  0  0  0  0  0  0  0  0  0
  127.2210  122.8490   60.8700 O   0  0  0  0  0  0  0  0  0  0  0  0
  128.1580  123.6000   61.5590 C   0  0  0  0  0  0  0  0  0  0  0  0
  128.1640  125.0050   61.5860 C   0  0  0  0  0  0  0  0  0  0  0  0
  129.1330  125.6990   62.3050 C   0  0  0  0  0  0  0  0  0  0  0  0
  130.1100  125.0050   63.0170 C   0  0  0  0  0  0  0  0  0  0  0  0
  131.1640  125.7800   63.8120 C   0  0  2  0  0  0  0  0  0  0  0  0
  132.5800  125.2510   63.6880 C   0  0  0  0  0  0  0  0  0  0  0  0
  133.2200  124.9560   62.4450 C   0  0  0  0  0  0  0  0  0  0  0  0
  134.3520  124.3680   62.4170 O   0  0  0  0  0  0  0  0  0  0  0  0
  132.4740  125.2190   61.2540 C   0  0  0  0  0  0  0  0  0  0  0  0
  132.1750  124.1720   60.3480 C   0  0  0  0  0  0  0  0  0  0  0  0
  131.4660  124.4120   59.1630 C   0  0  0  0  0  0  0  0  0  0  0  0
  131.0700  125.7180   58.9040 C   0  0  0  0  0  0  0  0  0  0  0  0
  131.3670  126.7420   59.7560 C   0  0  0  0  0  0  0  0  0  0  0  0
  132.0760  126.5340   60.9330 C   0  0  0  0  0  0  0  0  0  0  0  0
  130.9030  127.9080   59.2360 O   0  0  0  0  0  0  0  0  0  0  0  0
  130.1140  127.5430   58.1350 C   0  0  0  0  0  0  0  0  0  0  0  0
  130.4080  126.2070   57.8230 O   0  0  0  0  0  0  0  0  0  0  0  0
  133.1270  125.0950   64.9780 C   0  0  0  0  0  0  0  0  0  0  0  0
  134.2880  124.7280   65.3540 O   0  0  0  0  0  0  0  0  0  0  0  0
  132.0010  125.4690   66.0010 C   0  0  0  0  0  0  0  0  0  0  0  0
  132.1090  125.4690   67.2290 O   0  0  0  0  0  0  0  0  0  0  0  0
  130.9180  125.7520   65.2510 N   0  0  0  0  0  0  0  0  0  0  0  0
  129.6400  126.1660   65.8350 C   0  0  0  0  0  0  0  0  0  0  0  0
  129.4850  125.7640   67.3170 C   0  0  0  0  0  0  0  0  0  0  0  0
  129.5220  126.9480   68.3000 C   0  0  0  0  0  0  0  0  0  0  0  0
  130.8630  127.5130   68.4730 N   0  0  0  0  0  0  0  0  0  0  0  0
  131.3450  128.0620   69.6010 C   0  0  0  0  0  0  0  0  0  0  0  0
  130.7200  128.1700   70.6550 O   0  0  0  0  0  0  0  0  0  0  0  0
  130.1190  123.6090   62.9840 C   0  0  0  0  0  0  0  0  0  0  0  0
  129.1460  122.8950   62.2640 C   0  0  0  0  0  0  0  0  0  0  0  0
  129.0970  121.5120   62.2070 O   0  0  0  0  0  0  0  0  0  0  0  0
  129.9250  120.8160   61.2800 C   0  0  0  0  0  0  0  0  0  0  0  0
  129.9210  119.3270   61.6370 C   0  0  0  0  0  0  0  0  0  0  0  0
  127.0247  121.5655   57.4859 H   0  0  0  0  0  0  0  0  0  0  0  0
  126.8801  123.1667   56.6846 H   0  0  0  0  0  0  0  0  0  0  0  0
  128.4542  122.3013   56.6846 H   0  0  0  0  0  0  0  0  0  0  0  0
  128.7498  122.6412   59.0447 H   0  0  0  0  0  0  0  0  0  0  0  0
  128.2104  124.2355   58.3319 H   0  0  0  0  0  0  0  0  0  0  0  0
  126.4183  124.3275   59.6623 H   0  0  0  0  0  0  0  0  0  0  0  0
  125.9406  122.6447   59.2550 H   0  0  0  0  0  0  0  0  0  0  0  0
  127.3941  125.5627   61.0326 H   0  0  0  0  0  0  0  0  0  0  0  0
  129.1278  126.7990   62.3114 H   0  0  0  0  0  0  0  0  0  0  0  0
  131.0760  126.7837   63.3706 H   0  0  0  0  0  0  0  0  0  0  0  0
  132.5063  123.1489   60.5793 H   0  0  0  0  0  0  0  0  0  0  0  0
  131.2317  123.5959   58.4636 H   0  0  0  0  0  0  0  0  0  0  0  0
  132.3211  127.3747   61.5987 H   0  0  0  0  0  0  0  0  0  0  0  0
  129.0483  127.6426   58.3885 H   0  0  0  0  0  0  0  0  0  0  0  0
  130.3275  128.1951   57.2753 H   0  0  0  0  0  0  0  0  0  0  0  0
  129.5608  127.2606   65.7604 H   0  0  0  0  0  0  0  0  0  0  0  0
  128.8450  125.6527   65.2742 H   0  0  0  0  0  0  0  0  0  0  0  0
  128.5209  125.2477   67.4352 H   0  0  0  0  0  0  0  0  0  0  0  0
  130.3449  125.1233   67.5619 H   0  0  0  0  0  0  0  0  0  0  0  0
  128.8561  127.7375   67.9215 H   0  0  0  0  0  0  0  0  0  0  0  0
  129.1980  126.5690   69.2805 H   0  0  0  0  0  0  0  0  0  0  0  0
  131.4600  127.4890   67.6600 H   0  0  0  0  0  0  0  0  0  0  0  0
  132.3765  128.4437   69.5802 H   0  0  0  0  0  0  0  0  0  0  0  0
  130.8999  123.0596   63.5301 H   0  0  0  0  0  0  0  0  0  0  0  0
  129.5350  120.9529   60.2606 H   0  0  0  0  0  0  0  0  0  0  0  0
  130.9513  121.2091   61.3269 H   0  0  0  0  0  0  0  0  0  0  0  0
  129.9207  119.2122   62.7310 H   0  0  0  0  0  0  0  0  0  0  0  0
  129.0216  118.8520   61.2182 H   0  0  0  0  0  0  0  0  0  0  0  0
  130.8179  118.8471   61.2182 H   0  0  0  0  0  0  0  0  0  0  0  0
  1  2  1  0
  2  3  1  0
  3  4  1  0
  4  5  1  0
  5  6  2  0
  6  7  1  0
  7  8  2  0
  8  9  1  0
  9 10  1  0
 10 11  1  0
 11 12  2  0
 11 13  1  0
 13 14  2  0
 14 15  1  0
 15 16  2  0
 16 17  1  0
 17 18  2  0
 17 19  1  0
 19 20  1  0
 20 21  1  0
 10 22  2  0
 22 23  1  0
 22 24  1  0
 24 25  2  0
 24 26  1  0
 26 27  1  0
 27 28  1  0
 28 29  1  0
 29 30  1  0
 30 31  1  0
 31 32  2  0
  8 33  1  0
 33 34  2  0
 34 35  1  0
 35 36  1  0
 36 37  1  0
 34  5  1  0
 26  9  1  0
 18 13  1  0
 21 16  1  0
  1 38  1  0
  1 39  1  0
  1 40  1  0
  2 41  1  0
  2 42  1  0
  3 43  1  0
  3 44  1  0
  6 45  1  0
  7 46  1  0
  9 47  1  6
 14 48  1  0
 15 49  1  0
 18 50  1  0
 20 51  1  0
 20 52  1  0
 27 53  1  0
 27 54  1  0
 28 55  1  0
 28 56  1  0
 29 57  1  0
 29 58  1  0
 30 59  1  0
 31 60  1  0
 33 61  1  0
 36 62  1  0
 36 63  1  0
 37 64  1  0
 37 65  1  0
 37 66  1  0
M  CHG  1  23  -1
M  END
>  <Binding energies>  (1) 
[-6.31]

>  <Ligand effiencies>  (1) 
[-0.16605263157894737]

>  <Interactions>  (1) 
["V-B:TYR:539:CA:9841, V-B:PRO:540:CA:9855, V-A:GLU:543:CA:4904, V-A:ARG:545:CA:4919, H-A:GLU:543:OE2:4910, V-A:GLU:543:C:4902, V-B:GLU:543:CB:9878, V-B:ALA:541:CB:9864, H-A:TYR:531:OH:4795, V-B:TYR:539:CE2:9848, V-B:GLU:543:CG:9879, V-A:GLY:544:C:4912, V-B:TYR:539:C:9839, V-A:ASP:366:CG:3213, V-B:TYR:539:CZ:9849, H-B:TYR:539:OH:9850, H-B:ALA:541:N:9863, V-A:GLU:543:CD:4908, V-B:PRO:540:CB:9857, V-B:GLU:543:CA:9876, H-A:GLY:454:N:4050, V-A:ARG:545:CG:4922, V-B:PRO:540:N:9856, V-A:HIS:456:CE1:4070, V-B:TYR:539:CD2:9846, V-A:GLU:543:CG:4907, V-B:GLU:543:CD:9880, V-A:ASP:366:CB:3212, V-A:LEU:475:CD2:4259, V-A:ARG:545:CZ:4926, V-B:TYR:539:CG:9844, V-A:GLU:543:CB:4906, V-B:TYR:539:CD1:9845, H-A:ARG:545:NE:4924, V-B:TYR:539:CE1:9847, H-A:HIS:456:ND1:4067, H-A:TYR:484:OH:4348"]

$$$$
ZINC1862862634
     RDKit          3D

 63 67  0  0  0  0  0  0  0  0999 V2000
  125.9720  122.5430   56.5070 C   0  0  0  0  0  0  0  0  0  0  0  0
  127.2390  122.1010   56.9800 O   0  0  0  0  0  0  0  0  0  0  0  0
  127.9720  122.9220   57.8160 C   0  0  0  0  0  0  0  0  0  0  0  0
  127.9790  122.5890   59.1680 C   0  0  0  0  0  0  0  0  0  0  0  0
  128.6870  123.3580   60.0870 C   0  0  0  0  0  0  0  0  0  0  0  0
  129.4020  124.4890   59.6710 C   0  0  0  0  0  0  0  0  0  0  0  0
  130.1450  125.2690   60.5810 N   0  0  0  0  0  0  0  0  0  0  0  0
  130.2440  125.1590   61.9590 C   0  0  0  0  0  0  0  0  0  0  0  0
  131.0050  124.3230   62.6750 C   0  0  0  0  0  0  0  0  0  0  0  0
  131.8720  123.2310   62.1510 C   0  0  0  0  0  0  0  0  0  0  0  0
  131.2590  122.2140   61.4030 C   0  0  0  0  0  0  0  0  0  0  0  0
  131.9810  121.1100   60.9570 C   0  0  0  0  0  0  0  0  0  0  0  0
  133.3340  121.0020   61.2560 C   0  0  0  0  0  0  0  0  0  0  0  0
  133.9660  122.0070   61.9820 C   0  0  0  0  0  0  0  0  0  0  0  0
  133.2610  123.1370   62.4230 C   0  0  0  0  0  0  0  0  0  0  0  0
  134.0150  124.2080   63.1200 N   0  0  0  0  0  0  0  0  0  0  0  0
  133.6590  124.5520   64.2430 O   0  0  0  0  0  0  0  0  0  0  0  0
  134.9480  124.7390   62.5230 O   0  0  0  0  0  0  0  0  0  0  0  0
  130.8240  124.5910   64.0720 C   0  0  0  0  0  0  0  0  0  0  0  0
  131.3400  124.0090   65.0290 O   0  0  0  0  0  0  0  0  0  0  0  0
  129.9620  125.6290   64.1200 N   0  0  0  0  0  0  0  0  0  0  0  0
  129.5150  126.2230   65.3140 C   0  0  0  0  0  0  0  0  0  0  0  0
  128.7940  127.4200   65.2680 C   0  0  0  0  0  0  0  0  0  0  0  0
  128.3590  128.0090   66.4520 C   0  0  0  0  0  0  0  0  0  0  0  0
  128.6390  127.4000   67.6790 C   0  0  0  0  0  0  0  0  0  0  0  0
  128.2390  127.9760   68.8630 O   0  0  0  0  0  0  0  0  0  0  0  0
  128.8700  127.6670   70.0510 C   0  0  0  0  0  0  0  0  0  0  0  0
  128.2500  126.9460   71.0830 C   0  0  0  0  0  0  0  0  0  0  0  0
  128.9530  126.6450   72.2460 C   0  0  0  0  0  0  0  0  0  0  0  0
  130.2780  127.0540   72.3760 C   0  0  0  0  0  0  0  0  0  0  0  0
  130.9060  127.7590   71.3530 C   0  0  0  0  0  0  0  0  0  0  0  0
  130.2030  128.0610   70.1900 C   0  0  0  0  0  0  0  0  0  0  0  0
  129.3670  126.2110   67.7230 C   0  0  0  0  0  0  0  0  0  0  0  0
  129.8020  125.6160   66.5410 C   0  0  0  0  0  0  0  0  0  0  0  0
  129.5800  126.0360   62.8880 C   0  0  0  0  0  0  0  0  0  0  0  0
  128.8200  126.9720   62.6290 O   0  0  0  0  0  0  0  0  0  0  0  0
  129.4210  124.8340   58.3090 C   0  0  0  0  0  0  0  0  0  0  0  0
  130.1590  125.9480   57.9370 O   0  0  0  0  0  0  0  0  0  0  0  0
  131.5800  125.8740   57.9010 C   0  0  0  0  0  0  0  0  0  0  0  0
  128.6980  124.0470   57.3950 C   0  0  0  0  0  0  0  0  0  0  0  0
  125.3200  122.7705   57.3632 H   0  0  0  0  0  0  0  0  0  0  0  0
  126.1041  123.4481   55.8961 H   0  0  0  0  0  0  0  0  0  0  0  0
  125.5124  121.7521   55.8961 H   0  0  0  0  0  0  0  0  0  0  0  0
  127.4185  121.7079   59.5138 H   0  0  0  0  0  0  0  0  0  0  0  0
  128.6852  123.0752   61.1500 H   0  0  0  0  0  0  0  0  0  0  0  0
  130.7510  125.9290   60.1160 H   0  0  0  0  0  0  0  0  0  0  0  0
  130.1879  122.2904   61.1645 H   0  0  0  0  0  0  0  0  0  0  0  0
  131.4818  120.3254   60.3695 H   0  0  0  0  0  0  0  0  0  0  0  0
  133.9043  120.1237   60.9194 H   0  0  0  0  0  0  0  0  0  0  0  0
  135.0372  121.9138   62.2142 H   0  0  0  0  0  0  0  0  0  0  0  0
  128.5715  127.8942   64.3007 H   0  0  0  0  0  0  0  0  0  0  0  0
  127.7953  128.9531   66.4222 H   0  0  0  0  0  0  0  0  0  0  0  0
  127.2059  126.6179   70.9726 H   0  0  0  0  0  0  0  0  0  0  0  0
  128.4645  126.0869   73.0584 H   0  0  0  0  0  0  0  0  0  0  0  0
  130.8334  126.8177   73.2956 H   0  0  0  0  0  0  0  0  0  0  0  0
  131.9535  128.0762   71.4632 H   0  0  0  0  0  0  0  0  0  0  0  0
  130.6991  128.6120   69.3774 H   0  0  0  0  0  0  0  0  0  0  0  0
  129.5977  125.7431   68.6914 H   0  0  0  0  0  0  0  0  0  0  0  0
  130.3684  124.6735   66.5724 H   0  0  0  0  0  0  0  0  0  0  0  0
  131.9722  125.8536   58.9285 H   0  0  0  0  0  0  0  0  0  0  0  0
  131.8862  124.9587   57.3733 H   0  0  0  0  0  0  0  0  0  0  0  0
  131.9797  126.7525   57.3733 H   0  0  0  0  0  0  0  0  0  0  0  0
  128.7015  124.3184   56.3290 H   0  0  0  0  0  0  0  0  0  0  0  0
  1  2  1  0
  2  3  1  0
  3  4  2  0
  4  5  1  0
  5  6  2  0
  6  7  1  0
  7  8  1  0
  8  9  2  0
  9 10  1  0
 10 11  2  0
 11 12  1  0
 12 13  2  0
 13 14  1  0
 14 15  2  0
 15 16  1  0
 16 17  2  0
 16 18  1  0
  9 19  1  0
 19 20  2  0
 19 21  1  0
 21 22  1  0
 22 23  2  0
 23 24  1  0
 24 25  2  0
 25 26  1  0
 26 27  1  0
 27 28  2  0
 28 29  1  0
 29 30  2  0
 30 31  1  0
 31 32  2  0
 25 33  1  0
 33 34  2  0
 21 35  1  0
 35 36  2  0
  6 37  1  0
 37 38  1  0
 38 39  1  0
 37 40  2  0
 40  3  1  0
 35  8  1  0
 15 10  1  0
 34 22  1  0
 32 27  1  0
  1 41  1  0
  1 42  1  0
  1 43  1  0
  4 44  1  0
  5 45  1  0
  7 46  1  0
 11 47  1  0
 12 48  1  0
 13 49  1  0
 14 50  1  0
 23 51  1  0
 24 52  1  0
 28 53  1  0
 29 54  1  0
 30 55  1  0
 31 56  1  0
 32 57  1  0
 33 58  1  0
 34 59  1  0
 39 60  1  0
 39 61  1  0
 39 62  1  0
 40 63  1  0
M  CHG  2  16   1  18  -1
M  END
>  <Binding energies>  (1) 
[-9.33]

>  <Ligand effiencies>  (1) 
[-0.2275609756097561]

>  <Interactions>  (1) 
["V-A:ILE:369:CG2:3237, V-B:PRO:540:CA:9855, V-A:GLY:454:CA:4049, V-A:GLU:543:C:4902, V-B:GLU:543:CB:9878, H-A:ARG:545:NH1:4927, V-B:TYR:539:CE2:9848, H-B:TYR:539:N:9842, V-B:GLU:543:CG:9879, V-A:GLY:544:C:4912, V-B:TYR:539:C:9839, V-A:HIS:456:CD2:4068, V-B:TYR:539:CZ:9849, H-B:TYR:539:OH:9850, V-A:GLU:543:CD:4908, V-B:PRO:540:CB:9857, V-B:HIS:456:CE1:9041, H-A:GLY:454:N:4050, V-A:GLY:453:C:4042, V-B:PRO:540:N:9856, V-A:ILE:369:CD1:3239, V-A:HIS:456:CE1:4070, V-B:TYR:539:CD2:9846, V-B:PRO:540:CD:9859, V-A:SER:385:CB:3409, V-A:GLU:543:CG:4907, V-B:GLU:543:CD:9880, V-A:LEU:475:CD2:4259, H-A:ARG:545:NH2:4928, V-A:ARG:545:CZ:4926, V-B:TYR:539:CG:9844, V-A:GLU:543:CB:4906, V-A:GLY:453:CA:4044, V-A:SER:385:CA:3407, V-B:MET:535:CE:9807, V-B:TYR:539:CE1:9847, H-A:TYR:484:OH:4348"]

$$$$
ZINC1862939842
     RDKit          3D

 48 51  0  0  0  0  0  0  0  0999 V2000
  133.6950  122.3810   62.1670 C   0  0  0  0  0  0  0  0  0  0  0  0
  133.1360  122.3890   63.4770 O   0  0  0  0  0  0  0  0  0  0  0  0
  132.1260  123.2810   63.7880 C   0  0  0  0  0  0  0  0  0  0  0  0
  130.7620  122.9830   63.6250 C   0  0  0  0  0  0  0  0  0  0  0  0
  129.7810  123.9260   63.9250 C   0  0  0  0  0  0  0  0  0  0  0  0
  130.1350  125.1930   64.3830 C   0  0  0  0  0  0  0  0  0  0  0  0
  129.1080  126.1070   64.6790 N   0  0  0  0  0  0  0  0  0  0  0  0
  128.9430  126.9090   65.7980 C   0  0  0  0  0  0  0  0  0  0  0  0
  128.3590  128.1080   65.8780 C   0  0  0  0  0  0  0  0  0  0  0  0
  127.7010  128.8440   64.7780 C   0  0  0  0  0  0  0  0  0  0  0  0
  128.3810  129.0390   63.5710 C   0  0  0  0  0  0  0  0  0  0  0  0
  127.7830  129.7440   62.5270 C   0  0  0  0  0  0  0  0  0  0  0  0
  126.5010  130.2690   62.6850 C   0  0  0  0  0  0  0  0  0  0  0  0
  125.9220  130.9550   61.6740 F   0  0  0  0  0  0  0  0  0  0  0  0
  125.8180  130.0870   63.8860 C   0  0  0  0  0  0  0  0  0  0  0  0
  126.4130  129.3800   64.9320 C   0  0  0  0  0  0  0  0  0  0  0  0
  125.7380  129.2220   66.0940 F   0  0  0  0  0  0  0  0  0  0  0  0
  128.4300  128.5990   67.2200 C   0  0  0  0  0  0  0  0  0  0  0  0
  127.9750  129.6540   67.6660 O   0  0  0  0  0  0  0  0  0  0  0  0
  129.1140  127.6510   67.8970 N   0  0  0  0  0  0  0  0  0  0  0  0
  129.4250  127.7390   69.2660 C   0  0  0  0  0  0  0  0  0  0  0  0
  130.7340  128.0320   69.6720 C   0  0  0  0  0  0  0  0  0  0  0  0
  131.0390  128.1190   71.0300 C   0  0  0  0  0  0  0  0  0  0  0  0
  130.0450  127.9150   71.9880 C   0  0  0  0  0  0  0  0  0  0  0  0
  130.3560  128.0030   73.3020 F   0  0  0  0  0  0  0  0  0  0  0  0
  128.7370  127.6230   71.5870 C   0  0  0  0  0  0  0  0  0  0  0  0
  127.4950  127.3680   72.7600 Cl  0  0  0  0  0  0  0  0  0  0  0  0
  128.4280  127.5340   70.2280 C   0  0  0  0  0  0  0  0  0  0  0  0
  129.4690  126.6110   67.1070 C   0  0  0  0  0  0  0  0  0  0  0  0
  130.1180  125.6200   67.4530 O   0  0  0  0  0  0  0  0  0  0  0  0
  131.4900  125.4920   64.5660 C   0  0  0  0  0  0  0  0  0  0  0  0
  132.4890  124.5530   64.2760 C   0  0  0  0  0  0  0  0  0  0  0  0
  133.9060  124.9260   64.4880 N   0  0  0  0  0  0  0  0  0  0  0  0
  134.6400  125.0380   63.5110 O   0  0  0  0  0  0  0  0  0  0  0  0
  134.2920  125.0830   65.6420 O   0  0  0  0  0  0  0  0  0  0  0  0
  134.7927  122.3653   62.2368 H   0  0  0  0  0  0  0  0  0  0  0  0
  133.3492  121.4877   61.6262 H   0  0  0  0  0  0  0  0  0  0  0  0
  133.3749  123.2838   61.6262 H   0  0  0  0  0  0  0  0  0  0  0  0
  130.4646  121.9907   63.2551 H   0  0  0  0  0  0  0  0  0  0  0  0
  128.7191  123.6680   63.7992 H   0  0  0  0  0  0  0  0  0  0  0  0
  128.3800  126.1180   63.9810 H   0  0  0  0  0  0  0  0  0  0  0  0
  129.3955  128.6330   63.4445 H   0  0  0  0  0  0  0  0  0  0  0  0
  128.3226  129.8859   61.5790 H   0  0  0  0  0  0  0  0  0  0  0  0
  124.8068  130.5018   64.0100 H   0  0  0  0  0  0  0  0  0  0  0  0
  131.5204  128.1933   68.9199 H   0  0  0  0  0  0  0  0  0  0  0  0
  132.0668  128.3493   71.3472 H   0  0  0  0  0  0  0  0  0  0  0  0
  127.3999  127.3025   69.9126 H   0  0  0  0  0  0  0  0  0  0  0  0
  131.7765  126.4841   64.9451 H   0  0  0  0  0  0  0  0  0  0  0  0
  1  2  1  0
  2  3  1  0
  3  4  2  0
  4  5  1  0
  5  6  2  0
  6  7  1  0
  7  8  1  0
  8  9  2  0
  9 10  1  0
 10 11  2  0
 11 12  1  0
 12 13  2  0
 13 14  1  0
 13 15  1  0
 15 16  2  0
 16 17  1  0
  9 18  1  0
 18 19  2  0
 18 20  1  0
 20 21  1  0
 21 22  2  0
 22 23  1  0
 23 24  2  0
 24 25  1  0
 24 26  1  0
 26 27  1  0
 26 28  2  0
 20 29  1  0
 29 30  2  0
  6 31  1  0
 31 32  2  0
 32 33  1  0
 33 34  2  0
 33 35  1  0
 32  3  1  0
 29  8  1  0
 16 10  1  0
 28 21  1  0
  1 36  1  0
  1 37  1  0
  1 38  1  0
  4 39  1  0
  5 40  1  0
  7 41  1  0
 11 42  1  0
 12 43  1  0
 15 44  1  0
 22 45  1  0
 23 46  1  0
 28 47  1  0
 31 48  1  0
M  CHG  2  33   1  35  -1
M  END
>  <Binding energies>  (1) 
[-8.91]

>  <Ligand effiencies>  (1) 
[-0.2475]

>  <Interactions>  (1) 
["V-A:GLY:454:CA:4049, V-B:HIS:456:CD2:9039, V-A:GLU:543:C:4902, V-B:GLU:543:CB:9878, H-A:ARG:545:NH1:4927, V-A:GLY:544:CA:4914, V-B:GLU:543:CG:9879, V-A:GLY:544:C:4912, H-B:GLU:543:OE1:9881, V-B:LYS:547:CE:9922, V-A:GLU:543:CD:4908, H-B:TYR:484:OH:9319, V-B:HIS:456:CE1:9041, H-A:GLY:454:N:4050, V-A:GLY:453:C:4042, V-A:ILE:369:CD1:3239, V-B:TYR:484:CZ:9318, V-A:HIS:456:CE1:4070, V-B:GLY:544:C:9884, V-A:GLU:543:CG:4907, V-B:GLU:543:CD:9880, V-B:HIS:456:CG:9037, V-A:LEU:475:CD2:4259, H-A:ARG:545:NH2:4928, V-A:ARG:545:CZ:4926, V-A:GLU:543:CB:4906, H-B:GLU:543:OE2:9882, V-A:GLY:453:CA:4044, H-A:ARG:545:NE:4924, H-A:TYR:484:OH:4348"]

$$$$
ZINC1862989291
     RDKit          3D

 59 62  0  0  0  0  0  0  0  0999 V2000
  129.0710  124.2980   63.5640 C   0  0  0  0  0  0  0  0  0  0  0  0
  130.4530  124.5830   64.1410 C   0  0  0  0  0  0  0  0  0  0  0  0
  131.5810  124.1660   63.4260 C   0  0  0  0  0  0  0  0  0  0  0  0
  132.8780  124.4100   63.9010 C   0  0  0  0  0  0  0  0  0  0  0  0
  134.0670  123.9730   63.1300 N   0  0  0  0  0  0  0  0  0  0  0  0
  134.9850  124.7700   62.9630 O   0  0  0  0  0  0  0  0  0  0  0  0
  134.0910  122.8270   62.6880 O   0  0  0  0  0  0  0  0  0  0  0  0
  133.0240  125.0770   65.1240 C   0  0  0  0  0  0  0  0  0  0  0  0
  131.9080  125.4930   65.8450 C   0  0  0  0  0  0  0  0  0  0  0  0
  130.6140  125.2700   65.3580 C   0  0  0  0  0  0  0  0  0  0  0  0
  129.4840  125.7020   66.0780 N   0  0  0  0  0  0  0  0  0  0  0  0
  128.9310  126.9710   66.1310 C   0  0  0  0  0  0  0  0  0  0  0  0
  128.5060  127.7310   67.1560 C   0  0  0  0  0  0  0  0  0  0  0  0
  128.6110  127.4380   68.6140 C   0  0  0  0  0  0  0  0  0  0  0  0
  127.4950  126.9950   69.3320 C   0  0  0  0  0  0  0  0  0  0  0  0
  127.5750  126.7680   70.7010 C   0  0  0  0  0  0  0  0  0  0  0  0
  128.7710  126.9790   71.3870 C   0  0  0  0  0  0  0  0  0  0  0  0
  128.7450  126.7360   72.7480 O   0  0  0  0  0  0  0  0  0  0  0  0
  128.5670  127.8020   73.6840 C   0  0  0  0  0  0  0  0  0  0  0  0
  127.0570  128.0620   73.7790 C   0  0  0  0  0  0  0  0  0  0  0  0
  129.3350  129.0600   73.2360 C   0  0  0  0  0  0  0  0  0  0  0  0
  129.8980  127.4080   70.6710 C   0  0  0  0  0  0  0  0  0  0  0  0
  129.8160  127.6340   69.3000 C   0  0  0  0  0  0  0  0  0  0  0  0
  128.0070  128.9750   66.6390 C   0  0  0  0  0  0  0  0  0  0  0  0
  127.5350  129.9260   67.2660 O   0  0  0  0  0  0  0  0  0  0  0  0
  128.1650  128.8900   65.3020 N   0  0  0  0  0  0  0  0  0  0  0  0
  127.7880  129.9030   64.4060 C   0  0  0  0  0  0  0  0  0  0  0  0
  126.4360  130.1920   64.2040 C   0  0  0  0  0  0  0  0  0  0  0  0
  126.0690  131.1890   63.3030 C   0  0  0  0  0  0  0  0  0  0  0  0
  127.0400  131.9100   62.6050 C   0  0  0  0  0  0  0  0  0  0  0  0
  126.4980  133.0960   61.4650 Cl  0  0  0  0  0  0  0  0  0  0  0  0
  128.4080  131.6430   62.8180 C   0  0  0  0  0  0  0  0  0  0  0  0
  129.4740  132.3720   62.1010 N   0  0  0  0  0  0  0  0  0  0  0  0
  130.5390  132.5740   62.6770 O   0  0  0  0  0  0  0  0  0  0  0  0
  129.2570  132.7120   60.9420 O   0  0  0  0  0  0  0  0  0  0  0  0
  128.7650  130.6240   63.7120 C   0  0  0  0  0  0  0  0  0  0  0  0
  128.7220  127.7180   64.9240 C   0  0  0  0  0  0  0  0  0  0  0  0
  128.9860  127.3700   63.7690 O   0  0  0  0  0  0  0  0  0  0  0  0
  128.3542  124.1502   64.3852 H   0  0  0  0  0  0  0  0  0  0  0  0
  128.7494  125.1487   62.9453 H   0  0  0  0  0  0  0  0  0  0  0  0
  129.1122  123.3895   62.9453 H   0  0  0  0  0  0  0  0  0  0  0  0
  131.4479  123.6358   62.4715 H   0  0  0  0  0  0  0  0  0  0  0  0
  134.0314  125.2743   65.5191 H   0  0  0  0  0  0  0  0  0  0  0  0
  132.0444  126.0035   66.8098 H   0  0  0  0  0  0  0  0  0  0  0  0
  129.0660  124.9730   66.6390 H   0  0  0  0  0  0  0  0  0  0  0  0
  126.5434  126.8244   68.8072 H   0  0  0  0  0  0  0  0  0  0  0  0
  126.6870  126.4188   71.2484 H   0  0  0  0  0  0  0  0  0  0  0  0
  128.9700  127.5333   74.6716 H   0  0  0  0  0  0  0  0  0  0  0  0
  126.7596  128.1132   74.8368 H   0  0  0  0  0  0  0  0  0  0  0  0
  126.8171  129.0147   73.2841 H   0  0  0  0  0  0  0  0  0  0  0  0
  126.5123  127.2444   73.2841 H   0  0  0  0  0  0  0  0  0  0  0  0
  129.6750  129.6169   74.1216 H   0  0  0  0  0  0  0  0  0  0  0  0
  130.2058  128.7627   72.6332 H   0  0  0  0  0  0  0  0  0  0  0  0
  128.6726  129.6987   72.6332 H   0  0  0  0  0  0  0  0  0  0  0  0
  130.8517  127.5667   71.1956 H   0  0  0  0  0  0  0  0  0  0  0  0
  130.7071  127.9701   68.7496 H   0  0  0  0  0  0  0  0  0  0  0  0
  125.6641  129.6342   64.7545 H   0  0  0  0  0  0  0  0  0  0  0  0
  125.0040  131.4105   63.1398 H   0  0  0  0  0  0  0  0  0  0  0  0
  129.8278  130.3883   63.8698 H   0  0  0  0  0  0  0  0  0  0  0  0
  1  2  1  0
  2  3  2  0
  3  4  1  0
  4  5  1  0
  5  6  2  0
  5  7  1  0
  4  8  2  0
  8  9  1  0
  9 10  2  0
 10 11  1  0
 11 12  1  0
 12 13  2  0
 13 14  1  0
 14 15  2  0
 15 16  1  0
 16 17  2  0
 17 18  1  0
 18 19  1  0
 19 20  1  0
 19 21  1  0
 17 22  1  0
 22 23  2  0
 13 24  1  0
 24 25  2  0
 24 26  1  0
 26 27  1  0
 27 28  2  0
 28 29  1  0
 29 30  2  0
 30 31  1  0
 30 32  1  0
 32 33  1  0
 33 34  2  0
 33 35  1  0
 32 36  2  0
 26 37  1  0
 37 38  2  0
 10  2  1  0
 37 12  1  0
 23 14  1  0
 36 27  1  0
  1 39  1  0
  1 40  1  0
  1 41  1  0
  3 42  1  0
  8 43  1  0
  9 44  1  0
 11 45  1  0
 15 46  1  0
 16 47  1  0
 19 48  1  0
 20 49  1  0
 20 50  1  0
 20 51  1  0
 21 52  1  0
 21 53  1  0
 21 54  1  0
 22 55  1  0
 23 56  1  0
 28 57  1  0
 29 58  1  0
 36 59  1  0
M  CHG  4   5   1   7  -1  33   1  35  -1
M  END
>  <Binding energies>  (1) 
[-9.52]

>  <Ligand effiencies>  (1) 
[-0.2441025641025641]

>  <Interactions>  (1) 
["V-A:GLY:454:CA:4049, V-B:GLU:543:C:9874, V-B:HIS:456:CD2:9039, H-A:ALA:541:N:4891, V-B:GLU:543:CB:9878, H-B:LYS:547:NZ:9923, V-B:HIS:456:CB:9036, H-A:ARG:545:NH1:4927, V-B:GLU:543:CG:9879, V-A:ALA:541:CB:4892, V-B:LYS:547:CE:9922, V-A:GLU:543:CD:4908, H-B:TYR:484:OH:9319, V-B:HIS:456:CE1:9041, H-A:GLY:454:N:4050, V-A:GLY:453:C:4042, V-A:HIS:456:CE1:4070, V-B:GLY:544:C:9884, V-B:GLY:544:CA:9886, V-A:GLU:543:CG:4907, V-B:GLU:543:CD:9880, V-B:HIS:456:CG:9037, H-A:ARG:545:NH2:4928, V-A:ARG:545:CZ:4926, V-A:GLU:543:CB:4906, H-B:GLU:543:OE2:9882, V-A:GLY:453:CA:4044, V-A:PRO:540:CA:4883"]

$$$$
ZINC1863220911
     RDKit          3D

 63 67  0  0  0  0  0  0  0  0999 V2000
  129.4800  129.2070   71.5190 N   0  0  0  0  0  0  0  0  0  0  0  0
  129.9820  127.8340   70.5510 S   0  0  0  0  0  0  0  0  0  0  0  0
  131.4400  127.8980   70.4080 O   0  0  0  0  0  0  0  0  0  0  0  0
  129.3260  126.6430   71.1030 O   0  0  0  0  0  0  0  0  0  0  0  0
  129.2540  128.1210   68.9420 C   0  0  0  0  0  0  0  0  0  0  0  0
  128.7480  129.3790   68.6060 C   0  0  0  0  0  0  0  0  0  0  0  0
  128.1880  129.5830   67.3480 C   0  0  0  0  0  0  0  0  0  0  0  0
  128.1390  128.5410   66.4190 C   0  0  0  0  0  0  0  0  0  0  0  0
  127.5490  128.7990   65.1690 N   0  0  0  0  0  0  0  0  0  0  0  0
  128.1030  129.3810   64.0400 C   0  0  0  0  0  0  0  0  0  0  0  0
  128.5610  128.7810   62.9320 C   0  0  0  0  0  0  0  0  0  0  0  0
  128.6910  127.3160   62.7060 C   0  0  0  0  0  0  0  0  0  0  0  0
  129.5020  126.5880   63.5830 C   0  0  0  0  0  0  0  0  0  0  0  0
  129.6970  125.2220   63.4340 C   0  0  0  0  0  0  0  0  0  0  0  0
  129.0780  124.5310   62.4010 C   0  0  0  0  0  0  0  0  0  0  0  0
  128.2270  125.2080   61.4970 C   0  0  0  0  0  0  0  0  0  0  0  0
  127.5770  124.5080   60.4490 C   0  0  0  0  0  0  0  0  0  0  0  0
  126.7260  125.1750   59.5760 C   0  0  0  0  0  0  0  0  0  0  0  0
  126.4960  126.5360   59.7220 C   0  0  0  0  0  0  0  0  0  0  0  0
  127.1220  127.2540   60.7370 C   0  0  0  0  0  0  0  0  0  0  0  0
  128.0160  126.6170   61.6470 C   0  0  0  0  0  0  0  0  0  0  0  0
  129.0560  129.7710   62.0190 C   0  0  0  0  0  0  0  0  0  0  0  0
  129.6010  129.6030   60.9260 O   0  0  0  0  0  0  0  0  0  0  0  0
  128.7790  130.9430   62.6180 N   0  0  0  0  0  0  0  0  0  0  0  0
  129.0770  132.2490   62.0110 C   0  0  0  0  0  0  0  0  0  0  0  0
  130.2680  132.2120   61.0360 C   0  0  0  0  0  0  0  0  0  0  0  0
  129.8280  132.4660   59.5840 C   0  0  0  0  0  0  0  0  0  0  0  0
  130.8290  132.0540   58.6000 N   0  0  0  0  0  0  0  0  0  0  0  0
  131.8780  131.0940   58.9230 C   0  0  0  0  0  0  0  0  0  0  0  0
  132.5030  130.7660   57.5810 C   0  0  0  0  0  0  0  0  0  0  0  0
  132.0490  131.8770   56.6550 C   0  0  0  0  0  0  0  0  0  0  0  0
  130.8590  132.5460   57.3410 C   0  0  0  0  0  0  0  0  0  0  0  0
  130.1010  133.3640   56.8180 O   0  0  0  0  0  0  0  0  0  0  0  0
  128.1880  130.8040   63.8210 C   0  0  0  0  0  0  0  0  0  0  0  0
  127.8140  131.7140   64.5640 O   0  0  0  0  0  0  0  0  0  0  0  0
  128.6360  127.2780   66.7690 C   0  0  0  0  0  0  0  0  0  0  0  0
  129.1960  127.0710   68.0260 C   0  0  0  0  0  0  0  0  0  0  0  0
  130.2240  129.6200   72.0880 H   0  0  0  0  0  0  0  0  0  0  0  0
  128.9210  129.9020   71.0150 H   0  0  0  0  0  0  0  0  0  0  0  0
  128.7919  130.2043   69.3319 H   0  0  0  0  0  0  0  0  0  0  0  0
  127.7817  130.5705   67.0840 H   0  0  0  0  0  0  0  0  0  0  0  0
  126.6070  128.4420   65.1010 H   0  0  0  0  0  0  0  0  0  0  0  0
  129.9984  127.1122   64.4129 H   0  0  0  0  0  0  0  0  0  0  0  0
  130.3466  124.6830   64.1393 H   0  0  0  0  0  0  0  0  0  0  0  0
  129.2505  123.4508   62.2851 H   0  0  0  0  0  0  0  0  0  0  0  0
  127.7478  123.4283   60.3261 H   0  0  0  0  0  0  0  0  0  0  0  0
  126.2317  124.6210   58.7644 H   0  0  0  0  0  0  0  0  0  0  0  0
  125.8136  127.0513   59.0301 H   0  0  0  0  0  0  0  0  0  0  0  0
  126.9236  128.3312   60.8388 H   0  0  0  0  0  0  0  0  0  0  0  0
  128.1869  132.5895   61.4616 H   0  0  0  0  0  0  0  0  0  0  0  0
  129.3475  132.9333   62.8287 H   0  0  0  0  0  0  0  0  0  0  0  0
  130.9918  132.9867   61.3291 H   0  0  0  0  0  0  0  0  0  0  0  0
  130.7185  131.2097   61.0856 H   0  0  0  0  0  0  0  0  0  0  0  0
  128.9008  131.9048   59.3960 H   0  0  0  0  0  0  0  0  0  0  0  0
  129.6836  133.5505   59.4703 H   0  0  0  0  0  0  0  0  0  0  0  0
  132.6204  131.5399   59.6013 H   0  0  0  0  0  0  0  0  0  0  0  0
  131.4912  130.2025   59.4384 H   0  0  0  0  0  0  0  0  0  0  0  0
  133.6002  130.7515   57.6586 H   0  0  0  0  0  0  0  0  0  0  0  0
  132.2001  129.7737   57.2155 H   0  0  0  0  0  0  0  0  0  0  0  0
  132.8608  132.6041   56.5055 H   0  0  0  0  0  0  0  0  0  0  0  0
  131.7720  131.4850   55.6653 H   0  0  0  0  0  0  0  0  0  0  0  0
  128.5833  126.4486   66.0484 H   0  0  0  0  0  0  0  0  0  0  0  0
  129.5921  126.0811   68.2966 H   0  0  0  0  0  0  0  0  0  0  0  0
  1  2  1  0
  2  3  2  0
  2  4  2  0
  2  5  1  0
  5  6  2  0
  6  7  1  0
  7  8  2  0
  8  9  1  0
  9 10  1  0
 10 11  2  0
 11 12  1  0
 12 13  2  0
 13 14  1  0
 14 15  2  0
 15 16  1  0
 16 17  2  0
 17 18  1  0
 18 19  2  0
 19 20  1  0
 20 21  2  0
 11 22  1  0
 22 23  2  0
 22 24  1  0
 24 25  1  0
 25 26  1  0
 26 27  1  0
 27 28  1  0
 28 29  1  0
 29 30  1  0
 30 31  1  0
 31 32  1  0
 32 33  2  0
 24 34  1  0
 34 35  2  0
  8 36  1  0
 36 37  2  0
 37  5  1  0
 34 10  1  0
 21 12  1  0
 32 28  1  0
 21 16  1  0
  1 38  1  0
  1 39  1  0
  6 40  1  0
  7 41  1  0
  9 42  1  0
 13 43  1  0
 14 44  1  0
 15 45  1  0
 17 46  1  0
 18 47  1  0
 19 48  1  0
 20 49  1  0
 25 50  1  0
 25 51  1  0
 26 52  1  0
 26 53  1  0
 27 54  1  0
 27 55  1  0
 29 56  1  0
 29 57  1  0
 30 58  1  0
 30 59  1  0
 31 60  1  0
 31 61  1  0
 36 62  1  0
 37 63  1  0
M  END
>  <Binding energies>  (1) 
[-9.53]

>  <Ligand effiencies>  (1) 
[-0.23825]

>  <Interactions>  (1) 
["V-A:GLU:543:CA:4904, V-A:GLU:543:C:4902, V-B:GLU:543:CB:9878, V-A:PRO:540:C:4881, V-B:ASP:366:CG:8184, V-B:GLU:543:CG:9879, H-A:ARG:545:N:4920, V-A:LEU:363:CD1:3189, V-B:TYR:484:CE2:9317, H-B:GLU:543:OE1:9881, V-A:TYR:531:CE2:4793, V-A:GLU:543:CD:4908, H-B:TYR:484:OH:9319, V-B:HIS:456:CE1:9041, V-B:TYR:484:CZ:9318, V-A:HIS:456:CE1:4070, H-B:HIS:456:NE2:9042, V-A:GLU:543:CG:4907, V-A:TYR:531:CZ:4794, V-B:GLU:543:CD:9880, V-A:TYR:539:C:4867, V-A:GLU:543:CB:4906, V-A:PRO:540:N:4884, H-A:TYR:539:N:4870, H-B:GLU:543:OE2:9882, V-A:PRO:540:CA:4883, V-A:PRO:540:CB:4885, H-A:GLY:544:O:4913, H-A:HIS:456:ND1:4067, H-A:GLU:543:O:4903"]

$$$$
ZINC1863243752
     RDKit          3D

 78 80  0  0  0  0  0  0  0  0999 V2000
  132.3990  131.7220   62.2610 C   0  0  0  0  0  0  0  0  0  0  0  0
  130.8830  131.6800   62.0150 C   0  0  0  0  0  0  0  0  0  0  0  0
  130.0680  132.1800   63.2200 C   0  0  0  0  0  0  0  0  0  0  0  0
  128.6650  131.5530   63.2930 C   0  0  0  0  0  0  0  0  0  0  0  0
  128.6990  130.0150   63.3960 C   0  0  0  0  0  0  0  0  0  0  0  0
  127.5950  129.4130   64.3060 C   0  0  1  0  0  0  0  0  0  0  0  0
  126.4420  128.7930   63.4730 C   0  0  0  0  0  0  0  0  0  0  0  0
  125.4090  129.8140   62.9670 C   0  0  0  0  0  0  0  0  0  0  0  0
  128.1230  128.5070   65.3580 N   0  0  0  0  0  0  0  0  0  0  0  0
  128.8490  127.4040   65.0740 C   0  0  0  0  0  0  0  0  0  0  0  0
  129.1530  126.9950   63.9500 O   0  0  0  0  0  0  0  0  0  0  0  0
  129.1800  126.8160   66.3480 C   0  0  0  0  0  0  0  0  0  0  0  0
  129.9170  125.6530   66.5030 N   0  0  0  0  0  0  0  0  0  0  0  0
  130.5490  124.8620   65.5280 C   0  0  0  0  0  0  0  0  0  0  0  0
  129.8900  123.8300   64.8510 C   0  0  0  0  0  0  0  0  0  0  0  0
  130.5590  123.0870   63.8820 C   0  0  0  0  0  0  0  0  0  0  0  0
  131.8970  123.3670   63.5690 C   0  0  0  0  0  0  0  0  0  0  0  0
  132.6160  122.6310   62.5950 N   0  0  0  0  0  0  0  0  0  0  0  0
  133.9730  123.0550   62.2250 C   0  0  0  0  0  0  0  0  0  0  0  0
  134.0450  124.3330   61.3600 C   0  0  0  0  0  0  0  0  0  0  0  0
  133.9890  124.0440   59.8550 C   0  0  0  0  0  0  0  0  0  0  0  0
  131.7760  122.0940   61.5180 C   0  0  0  0  0  0  0  0  0  0  0  0
  132.3130  120.8010   60.8780 C   0  0  0  0  0  0  0  0  0  0  0  0
  131.2830  119.6650   60.8650 C   0  0  0  0  0  0  0  0  0  0  0  0
  132.5440  124.4120   64.2420 C   0  0  0  0  0  0  0  0  0  0  0  0
  131.8740  125.1580   65.2080 C   0  0  0  0  0  0  0  0  0  0  0  0
  128.5950  127.5660   67.2930 C   0  0  0  0  0  0  0  0  0  0  0  0
  128.6000  127.3200   68.7610 C   0  0  0  0  0  0  0  0  0  0  0  0
  127.3710  127.0300   69.3720 C   0  0  0  0  0  0  0  0  0  0  0  0
  127.2700  126.8680   70.7510 C   0  0  0  0  0  0  0  0  0  0  0  0
  128.4010  126.9970   71.5470 C   0  0  0  0  0  0  0  0  0  0  0  0
  129.6340  127.2700   70.9600 C   0  0  0  0  0  0  0  0  0  0  0  0
  129.7610  127.4180   69.5690 C   0  0  0  0  0  0  0  0  0  0  0  0
  131.1180  127.6290   69.0050 N   0  0  0  0  0  0  0  0  0  0  0  0
  131.4850  126.9370   68.0600 O   0  0  0  0  0  0  0  0  0  0  0  0
  131.8390  128.4670   69.5370 O   0  0  0  0  0  0  0  0  0  0  0  0
  127.9170  128.6700   66.6820 C   0  0  0  0  0  0  0  0  0  0  0  0
  127.2820  129.5710   67.2340 O   0  0  0  0  0  0  0  0  0  0  0  0
  132.5948  131.7274   63.3434 H   0  0  0  0  0  0  0  0  0  0  0  0
  132.8687  130.8365   61.8079 H   0  0  0  0  0  0  0  0  0  0  0  0
  132.8189  132.6321   61.8079 H   0  0  0  0  0  0  0  0  0  0  0  0
  130.6505  132.3137   61.1465 H   0  0  0  0  0  0  0  0  0  0  0  0
  130.6053  130.6299   61.8410 H   0  0  0  0  0  0  0  0  0  0  0  0
  130.6135  131.9289   64.1416 H   0  0  0  0  0  0  0  0  0  0  0  0
  129.9394  133.2664   63.1047 H   0  0  0  0  0  0  0  0  0  0  0  0
  128.1478  131.9525   64.1778 H   0  0  0  0  0  0  0  0  0  0  0  0
  128.1402  131.8096   62.3609 H   0  0  0  0  0  0  0  0  0  0  0  0
  128.5774  129.5989   62.3850 H   0  0  0  0  0  0  0  0  0  0  0  0
  129.6640  129.7504   63.8530 H   0  0  0  0  0  0  0  0  0  0  0  0
  127.1579  130.2526   64.8663 H   0  0  0  0  0  0  0  0  0  0  0  0
  126.8807  128.2854   62.6013 H   0  0  0  0  0  0  0  0  0  0  0  0
  125.9042  128.1046   64.1416 H   0  0  0  0  0  0  0  0  0  0  0  0
  124.9201  130.2972   63.8257 H   0  0  0  0  0  0  0  0  0  0  0  0
  125.9154  130.5763   62.3567 H   0  0  0  0  0  0  0  0  0  0  0  0
  124.6527  129.2987   62.3567 H   0  0  0  0  0  0  0  0  0  0  0  0
  130.0840  125.3210   67.4420 H   0  0  0  0  0  0  0  0  0  0  0  0
  128.8391  123.6047   65.0853 H   0  0  0  0  0  0  0  0  0  0  0  0
  130.0342  122.2745   63.3582 H   0  0  0  0  0  0  0  0  0  0  0  0
  134.5378  123.2376   63.1511 H   0  0  0  0  0  0  0  0  0  0  0  0
  134.3915  122.2442   61.6107 H   0  0  0  0  0  0  0  0  0  0  0  0
  133.1973  124.9825   61.6236 H   0  0  0  0  0  0  0  0  0  0  0  0
  135.0122  124.8147   61.5660 H   0  0  0  0  0  0  0  0  0  0  0  0
  133.7820  122.9757   59.6942 H   0  0  0  0  0  0  0  0  0  0  0  0
  133.1907  124.6454   59.3956 H   0  0  0  0  0  0  0  0  0  0  0  0
  134.9542  124.3037   59.3956 H   0  0  0  0  0  0  0  0  0  0  0  0
  130.7784  121.8847   61.9315 H   0  0  0  0  0  0  0  0  0  0  0  0
  131.7597  122.8545   60.7234 H   0  0  0  0  0  0  0  0  0  0  0  0
  132.6068  121.0194   59.8407 H   0  0  0  0  0  0  0  0  0  0  0  0
  133.1663  120.4639   61.4848 H   0  0  0  0  0  0  0  0  0  0  0  0
  131.0308  119.3869   61.8989 H   0  0  0  0  0  0  0  0  0  0  0  0
  130.3743  119.9999   60.3434 H   0  0  0  0  0  0  0  0  0  0  0  0
  131.7050  118.7933   60.3434 H   0  0  0  0  0  0  0  0  0  0  0  0
  133.5924  124.6454   64.0046 H   0  0  0  0  0  0  0  0  0  0  0  0
  132.3909  125.9829   65.7201 H   0  0  0  0  0  0  0  0  0  0  0  0
  126.4697  126.9287   68.7495 H   0  0  0  0  0  0  0  0  0  0  0  0
  126.2967  126.6384   71.2092 H   0  0  0  0  0  0  0  0  0  0  0  0
  128.3229  126.8838   72.6384 H   0  0  0  0  0  0  0  0  0  0  0  0
  130.5248  127.3716   71.5974 H   0  0  0  0  0  0  0  0  0  0  0  0
  1  2  1  0
  2  3  1  0
  3  4  1  0
  4  5  1  0
  5  6  1  0
  6  7  1  0
  7  8  1  0
  6  9  1  0
  9 10  1  0
 10 11  2  0
 10 12  1  0
 12 13  1  0
 13 14  1  0
 14 15  2  0
 15 16  1  0
 16 17  2  0
 17 18  1  0
 18 19  1  0
 19 20  1  0
 20 21  1  0
 18 22  1  0
 22 23  1  0
 23 24  1  0
 17 25  1  0
 25 26  2  0
 12 27  2  0
 27 28  1  0
 28 29  2  0
 29 30  1  0
 30 31  2  0
 31 32  1  0
 32 33  2  0
 33 34  1  0
 34 35  2  0
 34 36  1  0
 27 37  1  0
 37 38  2  0
 37  9  1  0
 26 14  1  0
 33 28  1  0
  1 39  1  0
  1 40  1  0
  1 41  1  0
  2 42  1  0
  2 43  1  0
  3 44  1  0
  3 45  1  0
  4 46  1  0
  4 47  1  0
  5 48  1  0
  5 49  1  0
  6 50  1  1
  7 51  1  0
  7 52  1  0
  8 53  1  0
  8 54  1  0
  8 55  1  0
 13 56  1  0
 15 57  1  0
 16 58  1  0
 19 59  1  0
 19 60  1  0
 20 61  1  0
 20 62  1  0
 21 63  1  0
 21 64  1  0
 21 65  1  0
 22 66  1  0
 22 67  1  0
 23 68  1  0
 23 69  1  0
 24 70  1  0
 24 71  1  0
 24 72  1  0
 25 73  1  0
 26 74  1  0
 29 75  1  0
 30 76  1  0
 31 77  1  0
 32 78  1  0
M  CHG  2  34   1  36  -1
M  END
>  <Binding energies>  (1) 
[-8.1]

>  <Ligand effiencies>  (1) 
[-0.20769230769230768]

>  <Interactions>  (1) 
["V-A:ILE:369:CG2:3237, V-A:ASP:366:CA:3210, V-A:GLY:454:CA:4049, V-B:GLU:543:C:9874, H-A:GLU:543:OE2:4910, V-A:ILE:369:CB:3236, V-B:GLU:543:CB:9878, V-B:TYR:539:CE2:9848, V-A:TYR:484:CE2:4346, V-B:GLU:543:CG:9879, V-A:ASP:366:CG:3213, H-A:ARG:545:N:4920, V-A:ALA:541:CB:4892, V-A:GLU:543:CD:4908, H-B:TYR:484:OH:9319, V-B:HIS:456:CE1:9041, V-A:ARG:545:CG:4922, V-A:ILE:369:CD1:3239, V-A:HIS:456:CE1:4070, V-B:GLY:544:C:9884, V-A:ALA:541:CA:4890, V-B:TYR:539:CD2:9846, V-A:GLU:543:CG:4907, V-B:GLY:544:CA:9886, V-B:GLU:543:CD:9880, V-A:LEU:475:CD2:4259, V-A:GLU:543:CB:4906, V-A:PRO:540:CB:4885, V-A:PRO:540:CA:4883, H-A:GLY:544:N:4915, H-A:TYR:484:OH:4348"]

$$$$
ZINC1863333218
     RDKit          3D

 49 51  0  0  0  0  0  0  0  0999 V2000
  127.7860  127.7070   73.2460 C   0  0  0  0  0  0  0  0  0  0  0  0
  128.4390  126.7240   72.4500 O   0  0  0  0  0  0  0  0  0  0  0  0
  128.5900  126.9460   71.0950 C   0  0  0  0  0  0  0  0  0  0  0  0
  127.4380  126.8460   70.3160 C   0  0  0  0  0  0  0  0  0  0  0  0
  127.4970  127.0410   68.9390 C   0  0  0  0  0  0  0  0  0  0  0  0
  128.7130  127.3340   68.3120 C   0  0  0  0  0  0  0  0  0  0  0  0
  128.7790  127.4910   66.8350 C   0  0  0  0  0  0  0  0  0  0  0  0
  129.2010  126.5920   65.9250 C   0  0  0  0  0  0  0  0  0  0  0  0
  129.7750  125.3380   66.0450 N   0  0  0  0  0  0  0  0  0  0  0  0
  130.2070  124.4930   65.0100 C   0  0  0  0  0  0  0  0  0  0  0  0
  129.2760  123.6990   64.3300 C   0  0  0  0  0  0  0  0  0  0  0  0
  129.6740  122.9010   63.2640 C   0  0  0  0  0  0  0  0  0  0  0  0
  131.0090  122.8810   62.8620 C   0  0  0  0  0  0  0  0  0  0  0  0
  131.4970  121.7820   61.3820 Br  0  0  0  0  0  0  0  0  0  0  0  0
  131.9560  123.6630   63.5380 C   0  0  0  0  0  0  0  0  0  0  0  0
  133.6140  123.6370   63.0310 Cl  0  0  0  0  0  0  0  0  0  0  0  0
  131.5560  124.4710   64.6150 C   0  0  0  0  0  0  0  0  0  0  0  0
  132.7240  125.4550   65.4420 Cl  0  0  0  0  0  0  0  0  0  0  0  0
  128.9740  127.1560   64.6230 C   0  0  0  0  0  0  0  0  0  0  0  0
  129.2200  126.6530   63.5240 O   0  0  0  0  0  0  0  0  0  0  0  0
  128.4370  128.3720   64.8480 N   0  0  0  0  0  0  0  0  0  0  0  0
  128.0460  129.2930   63.7720 C   0  0  0  0  0  0  0  0  0  0  0  0
  127.7200  130.7130   64.2710 C   0  0  0  0  0  0  0  0  0  0  0  0
  128.4080  131.8030   63.4270 C   0  0  0  0  0  0  0  0  0  0  0  0
  129.7630  131.4550   63.0010 N   0  0  0  0  0  0  0  0  0  0  0  0
  130.4270  132.0470   61.9950 C   0  0  0  0  0  0  0  0  0  0  0  0
  129.9800  132.9590   61.3000 O   0  0  0  0  0  0  0  0  0  0  0  0
  128.2770  128.6510   66.1540 C   0  0  0  0  0  0  0  0  0  0  0  0
  127.8070  129.6820   66.6410 O   0  0  0  0  0  0  0  0  0  0  0  0
  129.8660  127.4520   69.0970 C   0  0  0  0  0  0  0  0  0  0  0  0
  129.8090  127.2580   70.4740 C   0  0  0  0  0  0  0  0  0  0  0  0
  127.9387  127.4771   74.3108 H   0  0  0  0  0  0  0  0  0  0  0  0
  128.2055  128.6987   73.0211 H   0  0  0  0  0  0  0  0  0  0  0  0
  126.7092  127.7048   73.0211 H   0  0  0  0  0  0  0  0  0  0  0  0
  126.4751  126.6112   70.7932 H   0  0  0  0  0  0  0  0  0  0  0  0
  126.5789  126.9640   68.3381 H   0  0  0  0  0  0  0  0  0  0  0  0
  129.8630  124.9310   66.9670 H   0  0  0  0  0  0  0  0  0  0  0  0
  128.2211  123.7067   64.6418 H   0  0  0  0  0  0  0  0  0  0  0  0
  128.9332  122.2830   62.7355 H   0  0  0  0  0  0  0  0  0  0  0  0
  128.8740  129.3583   63.0508 H   0  0  0  0  0  0  0  0  0  0  0  0
  127.1292  128.8902   63.3168 H   0  0  0  0  0  0  0  0  0  0  0  0
  126.6314  130.8633   64.2231 H   0  0  0  0  0  0  0  0  0  0  0  0
  128.0933  130.8008   65.3020 H   0  0  0  0  0  0  0  0  0  0  0  0
  127.7981  131.9826   62.5294 H   0  0  0  0  0  0  0  0  0  0  0  0
  128.4929  132.6950   64.0651 H   0  0  0  0  0  0  0  0  0  0  0  0
  130.2190  130.7160   63.5160 H   0  0  0  0  0  0  0  0  0  0  0  0
  131.4445  131.6908   61.7762 H   0  0  0  0  0  0  0  0  0  0  0  0
  130.8261  127.7004   68.6211 H   0  0  0  0  0  0  0  0  0  0  0  0
  130.7236  127.3497   71.0782 H   0  0  0  0  0  0  0  0  0  0  0  0
  1  2  1  0
  2  3  1  0
  3  4  2  0
  4  5  1  0
  5  6  2  0
  6  7  1  0
  7  8  2  0
  8  9  1  0
  9 10  1  0
 10 11  2  0
 11 12  1  0
 12 13  2  0
 13 14  1  0
 13 15  1  0
 15 16  1  0
 15 17  2  0
 17 18  1  0
  8 19  1  0
 19 20  2  0
 19 21  1  0
 21 22  1  0
 22 23  1  0
 23 24  1  0
 24 25  1  0
 25 26  1  0
 26 27  2  0
 21 28  1  0
 28 29  2  0
  6 30  1  0
 30 31  2  0
 31  3  1  0
 28  7  1  0
 17 10  1  0
  1 32  1  0
  1 33  1  0
  1 34  1  0
  4 35  1  0
  5 36  1  0
  9 37  1  0
 11 38  1  0
 12 39  1  0
 22 40  1  0
 22 41  1  0
 23 42  1  0
 23 43  1  0
 24 44  1  0
 24 45  1  0
 25 46  1  0
 26 47  1  0
 30 48  1  0
 31 49  1  0
M  END
>  <Binding energies>  (1) 
[-7.65]

>  <Ligand effiencies>  (1) 
[-0.23181818181818184]

>  <Interactions>  (1) 
["V-A:GLY:454:CA:4049, V-B:GLU:543:C:9874, V-B:HIS:456:CD2:9039, H-A:ALA:541:N:4891, V-B:GLU:543:CB:9878, H-B:LYS:547:NZ:9923, V-A:PRO:540:C:4881, V-B:ALA:541:CB:9864, V-B:TYR:539:CE2:9848, V-B:GLU:543:CG:9879, V-B:LYS:547:CE:9922, V-A:GLU:543:CD:4908, H-B:TYR:484:OH:9319, V-B:HIS:456:CE1:9041, V-A:HIS:456:CE1:4070, V-B:GLY:544:C:9884, V-B:GLY:544:CA:9886, V-A:GLU:543:CG:4907, V-B:GLU:543:CD:9880, V-A:ARG:545:CD:4923, V-A:LEU:475:CD2:4259, V-A:ARG:545:CZ:4926, H-A:GLU:543:OE1:4909, V-A:GLU:543:CB:4906, V-A:PRO:540:CA:4883, H-A:TYR:484:OH:4348"]

$$$$
ZINC1863701
     RDKit          3D

 57 62  0  0  0  0  0  0  0  0999 V2000
  133.6080  123.7040   57.9910 O   0  0  0  0  0  0  0  0  0  0  0  0
  133.1660  123.8590   59.1350 C   0  0  0  0  0  0  0  0  0  0  0  0
  133.4020  123.0340   60.2010 O   0  0  0  0  0  0  0  0  0  0  0  0
  132.4360  122.1450   60.6210 C   0  0  0  0  0  0  0  0  0  0  0  0
  131.4580  122.5190   61.5410 C   0  0  0  0  0  0  0  0  0  0  0  0
  130.4760  121.6240   61.9780 C   0  0  0  0  0  0  0  0  0  0  0  0
  129.4120  122.1010   62.9790 C   0  0  0  0  0  0  0  0  0  0  0  0
  129.1940  123.6220   63.0460 C   0  0  0  0  0  0  0  0  0  0  0  0
  128.6880  124.3180   61.9360 C   0  0  0  0  0  0  0  0  0  0  0  0
  128.4800  123.6710   60.7370 O   0  0  0  0  0  0  0  0  0  0  0  0
  127.2480  123.1690   60.4330 C   0  0  0  0  0  0  0  0  0  0  0  0
  126.3870  122.8230   61.2470 O   0  0  0  0  0  0  0  0  0  0  0  0
  127.0770  123.0890   58.9840 C   0  0  0  0  0  0  0  0  0  0  0  0
  127.9600  122.6410   57.9960 C   0  0  0  0  0  0  0  0  0  0  0  0
  127.4300  122.7200   56.7030 C   0  0  0  0  0  0  0  0  0  0  0  0
  126.1380  123.2250   56.6830 C   0  0  0  0  0  0  0  0  0  0  0  0
  125.5710  123.6030   58.2780 S   0  0  0  0  0  0  0  0  0  0  0  0
  128.4710  125.6930   62.0070 C   0  0  0  0  0  0  0  0  0  0  0  0
  128.7240  126.4000   63.1750 C   0  0  0  0  0  0  0  0  0  0  0  0
  129.2360  125.7390   64.3140 C   0  0  0  0  0  0  0  0  0  0  0  0
  129.5110  126.4560   65.5060 C   0  0  0  0  0  0  0  0  0  0  0  0
  130.0290  125.8030   66.6190 C   0  0  0  0  0  0  0  0  0  0  0  0
  130.2870  124.4400   66.5770 C   0  0  0  0  0  0  0  0  0  0  0  0
  130.0270  123.7050   65.4240 C   0  0  0  0  0  0  0  0  0  0  0  0
  129.4870  124.3300   64.2610 C   0  0  0  0  0  0  0  0  0  0  0  0
  130.4700  120.2810   61.4680 C   0  0  0  0  0  0  0  0  0  0  0  0
  129.4930  119.3020   61.8180 C   0  0  0  0  0  0  0  0  0  0  0  0
  129.5530  118.0110   61.3030 C   0  0  0  0  0  0  0  0  0  0  0  0
  130.5650  117.6460   60.4270 C   0  0  0  0  0  0  0  0  0  0  0  0
  131.5320  118.5690   60.0450 C   0  0  0  0  0  0  0  0  0  0  0  0
  131.4990  119.8940   60.5490 C   0  0  0  0  0  0  0  0  0  0  0  0
  132.4720  120.8390   60.1470 C   0  0  0  0  0  0  0  0  0  0  0  0
  132.3120  124.9790   59.5270 C   0  0  0  0  0  0  0  0  0  0  0  0
  132.2600  125.6950   60.7260 C   0  0  0  0  0  0  0  0  0  0  0  0
  131.2970  126.7110   60.7220 C   0  0  0  0  0  0  0  0  0  0  0  0
  130.6030  126.7860   59.5230 C   0  0  0  0  0  0  0  0  0  0  0  0
  131.1430  125.5900   58.3910 S   0  0  0  0  0  0  0  0  0  0  0  0
  131.4585  123.5463   61.9342 H   0  0  0  0  0  0  0  0  0  0  0  0
  128.4549  121.6342   62.7031 H   0  0  0  0  0  0  0  0  0  0  0  0
  129.7816  121.8069   63.9724 H   0  0  0  0  0  0  0  0  0  0  0  0
  128.9703  122.2641   58.2135 H   0  0  0  0  0  0  0  0  0  0  0  0
  127.9788  122.4146   55.7999 H   0  0  0  0  0  0  0  0  0  0  0  0
  125.5455  123.3682   55.7673 H   0  0  0  0  0  0  0  0  0  0  0  0
  128.0929  126.2271   61.1228 H   0  0  0  0  0  0  0  0  0  0  0  0
  128.5246  127.4811   63.2138 H   0  0  0  0  0  0  0  0  0  0  0  0
  129.3130  127.5371   65.5506 H   0  0  0  0  0  0  0  0  0  0  0  0
  130.2356  126.3703   67.5385 H   0  0  0  0  0  0  0  0  0  0  0  0
  130.7007  123.9360   67.4629 H   0  0  0  0  0  0  0  0  0  0  0  0
  130.2411  122.6261   65.4094 H   0  0  0  0  0  0  0  0  0  0  0  0
  128.6788  119.5724   62.5064 H   0  0  0  0  0  0  0  0  0  0  0  0
  128.7909  117.2727   61.5931 H   0  0  0  0  0  0  0  0  0  0  0  0
  130.6025  116.6200   60.0322 H   0  0  0  0  0  0  0  0  0  0  0  0
  132.3279  118.2695   59.3472 H   0  0  0  0  0  0  0  0  0  0  0  0
  133.2674  120.5362   59.4502 H   0  0  0  0  0  0  0  0  0  0  0  0
  132.9107  125.4816   61.5868 H   0  0  0  0  0  0  0  0  0  0  0  0
  131.1107  127.3777   61.5769 H   0  0  0  0  0  0  0  0  0  0  0  0
  129.8066  127.5160   59.3160 H   0  0  0  0  0  0  0  0  0  0  0  0
  1  2  2  0
  2  3  1  0
  3  4  1  0
  4  5  2  0
  5  6  1  0
  6  7  1  0
  7  8  1  0
  8  9  1  0
  9 10  1  0
 10 11  1  0
 11 12  2  0
 11 13  1  0
 13 14  2  0
 14 15  1  0
 15 16  2  0
 16 17  1  0
  9 18  2  0
 18 19  1  0
 19 20  2  0
 20 21  1  0
 21 22  2  0
 22 23  1  0
 23 24  2  0
 24 25  1  0
  6 26  2  0
 26 27  1  0
 27 28  2  0
 28 29  1  0
 29 30  2  0
 30 31  1  0
 31 32  2  0
  2 33  1  0
 33 34  2  0
 34 35  1  0
 35 36  2  0
 36 37  1  0
 32  4  1  0
 37 33  1  0
 25  8  2  0
 31 26  1  0
 17 13  1  0
 25 20  1  0
  5 38  1  0
  7 39  1  0
  7 40  1  0
 14 41  1  0
 15 42  1  0
 16 43  1  0
 18 44  1  0
 19 45  1  0
 21 46  1  0
 22 47  1  0
 23 48  1  0
 24 49  1  0
 27 50  1  0
 28 51  1  0
 29 52  1  0
 30 53  1  0
 32 54  1  0
 34 55  1  0
 35 56  1  0
 36 57  1  0
M  END
>  <Binding energies>  (1) 
[-9.01]

>  <Ligand effiencies>  (1) 
[-0.2435135135135135]

>  <Interactions>  (1) 
["V-A:ILE:369:CG2:3237, V-B:PRO:540:CA:9855, V-B:TYR:539:CE1:9847, V-B:GLU:543:CB:9878, V-B:ALA:541:CB:9864, V-B:TYR:539:CE2:9848, V-A:TYR:484:CE2:4346, V-B:GLU:543:CG:9879, V-B:TYR:539:C:9839, V-A:ASP:366:CG:3213, V-B:TYR:539:CZ:9849, H-B:TYR:539:OH:9850, H-B:ALA:541:N:9863, V-A:LEU:475:CD1:4258, V-B:TYR:539:CB:9843, V-A:HIS:383:CE1:3393, V-A:TYR:484:CZ:4347, V-A:GLU:543:CD:4908, V-B:PRO:540:CB:9857, V-B:PRO:540:N:9856, V-A:HIS:456:CE1:4070, V-A:PRO:482:CB:4326, V-B:TYR:539:CD2:9846, V-A:SER:385:CB:3409, V-B:GLU:543:CD:9880, V-A:ASP:366:CB:3212, V-A:LEU:475:CD2:4259, V-B:TYR:539:CG:9844, V-B:TYR:539:CD1:9845, V-A:PRO:482:CG:4327, V-B:PRO:540:C:9853, V-B:MET:535:CE:9807, V-B:ALA:541:CA:9862, V-A:HIS:383:NE2:3394"]

$$$$
ZINC1865036537
     RDKit          3D

 74 78  0  0  0  0  0  0  0  0999 V2000
  132.7270  125.0830   63.6830 C   0  0  0  0  0  0  0  0  0  0  0  0
  131.6090  124.0870   63.3440 C   0  0  0  0  0  0  0  0  0  0  0  0
  130.2740  124.7810   62.9980 C   0  0  0  0  0  0  0  0  0  0  0  0
  129.7410  125.7450   64.0510 C   0  0  0  0  0  0  0  0  0  0  0  0
  130.0800  125.6390   65.3290 N   0  0  0  0  0  0  0  0  0  0  0  0
  129.4650  126.6470   65.9670 N   0  0  0  0  0  0  0  0  0  0  0  0
  129.6120  126.8110   67.4080 C   0  0  0  0  0  0  0  0  0  0  0  0
  129.0210  128.1510   67.8750 C   0  0  0  0  0  0  0  0  0  0  0  0
  128.7140  127.3780   65.0950 C   0  0  0  0  0  0  0  0  0  0  0  0
  128.8610  126.8260   63.8420 C   0  0  0  0  0  0  0  0  0  0  0  0
  128.1880  127.4590   62.6210 C   0  0  2  0  0  0  0  0  0  0  0  0
  129.1830  127.8800   61.5260 C   0  0  0  0  0  0  0  0  0  0  0  0
  129.4380  127.0530   60.4240 C   0  0  0  0  0  0  0  0  0  0  0  0
  130.3710  127.4270   59.4610 C   0  0  0  0  0  0  0  0  0  0  0  0
  131.0750  128.6230   59.5930 C   0  0  0  0  0  0  0  0  0  0  0  0
  132.0050  128.9530   58.6400 O   0  0  0  0  0  0  0  0  0  0  0  0
  130.8430  129.4680   60.6880 C   0  0  0  0  0  0  0  0  0  0  0  0
  131.5960  130.6260   60.7670 O   0  0  0  0  0  0  0  0  0  0  0  0
  132.4920  130.8150   61.8580 C   0  0  0  0  0  0  0  0  0  0  0  0
  132.9730  132.2680   61.8440 C   0  0  0  0  0  0  0  0  0  0  0  0
  129.8810  129.0880   61.6410 C   0  0  0  0  0  0  0  0  0  0  0  0
  127.2700  128.6110   63.1290 C   0  0  0  0  0  0  0  0  0  0  0  0
  126.3920  129.2000   62.1280 C   0  0  0  0  0  0  0  0  0  0  0  0
  125.5960  128.4710   61.5320 O   0  0  0  0  0  0  0  0  0  0  0  0
  126.5000  130.5350   61.8610 N   0  0  0  0  0  0  0  0  0  0  0  0
  125.7180  131.1330   60.7770 C   0  0  0  0  0  0  0  0  0  0  0  0
  126.6560  131.3070   59.5630 C   0  0  0  0  0  0  0  0  0  0  0  0
  127.9450  131.9870   59.8140 N   0  0  0  0  0  0  0  0  0  0  0  0
  128.7720  132.3420   58.7380 C   0  0  0  0  0  0  0  0  0  0  0  0
  128.1800  132.6570   57.5470 N   0  0  0  0  0  0  0  0  0  0  0  0
  128.9940  132.9810   56.5110 C   0  0  0  0  0  0  0  0  0  0  0  0
  130.3840  132.9830   56.6230 C   0  0  0  0  0  0  0  0  0  0  0  0
  130.9110  132.6270   57.8650 C   0  0  0  0  0  0  0  0  0  0  0  0
  130.1250  132.2970   58.9220 N   0  0  0  0  0  0  0  0  0  0  0  0
  128.5480  131.6590   61.1250 C   0  0  0  0  0  0  0  0  0  0  0  0
  127.5980  131.3950   62.3160 C   0  0  0  0  0  0  0  0  0  0  0  0
  127.2330  129.0020   64.4420 C   0  0  0  0  0  0  0  0  0  0  0  0
  126.4530  129.9840   65.0010 N   0  0  0  0  0  0  0  0  0  0  0  0
  127.9620  128.4620   65.4630 O   0  0  0  0  0  0  0  0  0  0  0  0
  132.8230  125.1685   64.7755 H   0  0  0  0  0  0  0  0  0  0  0  0
  133.6770  124.7264   63.2582 H   0  0  0  0  0  0  0  0  0  0  0  0
  132.4821  126.0677   63.2582 H   0  0  0  0  0  0  0  0  0  0  0  0
  131.9257  123.4838   62.4804 H   0  0  0  0  0  0  0  0  0  0  0  0
  131.4378  123.4654   64.2352 H   0  0  0  0  0  0  0  0  0  0  0  0
  130.4177  125.3450   62.0646 H   0  0  0  0  0  0  0  0  0  0  0  0
  129.5277  123.9766   62.9211 H   0  0  0  0  0  0  0  0  0  0  0  0
  129.0878  125.9896   67.9185 H   0  0  0  0  0  0  0  0  0  0  0  0
  130.6841  126.7970   67.6539 H   0  0  0  0  0  0  0  0  0  0  0  0
  129.0072  128.1824   68.9745 H   0  0  0  0  0  0  0  0  0  0  0  0
  129.6382  128.9772   67.4924 H   0  0  0  0  0  0  0  0  0  0  0  0
  127.9947  128.2523   67.4924 H   0  0  0  0  0  0  0  0  0  0  0  0
  127.5672  126.7104   62.1071 H   0  0  0  0  0  0  0  0  0  0  0  0
  128.8969  126.1011   60.3191 H   0  0  0  0  0  0  0  0  0  0  0  0
  130.5534  126.7766   58.5929 H   0  0  0  0  0  0  0  0  0  0  0  0
  132.6540  129.5850   58.9560 H   0  0  0  0  0  0  0  0  0  0  0  0
  131.9734  130.6047   62.8050 H   0  0  0  0  0  0  0  0  0  0  0  0
  133.3497  130.1327   61.7644 H   0  0  0  0  0  0  0  0  0  0  0  0
  133.0912  132.6251   62.8777 H   0  0  0  0  0  0  0  0  0  0  0  0
  133.9394  132.3293   61.3221 H   0  0  0  0  0  0  0  0  0  0  0  0
  132.2341  132.8938   61.3221 H   0  0  0  0  0  0  0  0  0  0  0  0
  129.6732  129.7524   62.4927 H   0  0  0  0  0  0  0  0  0  0  0  0
  124.8796  130.4724   60.5111 H   0  0  0  0  0  0  0  0  0  0  0  0
  125.3068  132.1044   61.0888 H   0  0  0  0  0  0  0  0  0  0  0  0
  126.8788  130.3052   59.1672 H   0  0  0  0  0  0  0  0  0  0  0  0
  126.1121  131.9639   58.8682 H   0  0  0  0  0  0  0  0  0  0  0  0
  128.5404  133.2523   55.5463 H   0  0  0  0  0  0  0  0  0  0  0  0
  131.0319  133.2515   55.7756 H   0  0  0  0  0  0  0  0  0  0  0  0
  132.0035  132.6132   57.9926 H   0  0  0  0  0  0  0  0  0  0  0  0
  129.1585  130.7544   60.9870 H   0  0  0  0  0  0  0  0  0  0  0  0
  129.0982  132.5681   61.4091 H   0  0  0  0  0  0  0  0  0  0  0  0
  128.1495  130.8940   63.1252 H   0  0  0  0  0  0  0  0  0  0  0  0
  127.1964  132.3472   62.6929 H   0  0  0  0  0  0  0  0  0  0  0  0
  126.0280  130.7000   64.4290 H   0  0  0  0  0  0  0  0  0  0  0  0
  126.2780  130.0080   65.9950 H   0  0  0  0  0  0  0  0  0  0  0  0
  1  2  1  0
  2  3  1  0
  3  4  1  0
  4  5  2  0
  5  6  1  0
  6  7  1  0
  7  8  1  0
  6  9  1  0
  9 10  2  0
 10 11  1  0
 11 12  1  0
 12 13  2  0
 13 14  1  0
 14 15  2  0
 15 16  1  0
 15 17  1  0
 17 18  1  0
 18 19  1  0
 19 20  1  0
 17 21  2  0
 11 22  1  0
 22 23  1  0
 23 24  2  0
 23 25  1  0
 25 26  1  0
 26 27  1  0
 27 28  1  0
 28 29  1  0
 29 30  2  0
 30 31  1  0
 31 32  2  0
 32 33  1  0
 33 34  2  0
 28 35  1  0
 35 36  1  0
 22 37  2  0
 37 38  1  0
 37 39  1  0
 10  4  1  0
 21 12  1  0
 36 25  1  0
 39  9  1  0
 34 29  1  0
  1 40  1  0
  1 41  1  0
  1 42  1  0
  2 43  1  0
  2 44  1  0
  3 45  1  0
  3 46  1  0
  7 47  1  0
  7 48  1  0
  8 49  1  0
  8 50  1  0
  8 51  1  0
 11 52  1  6
 13 53  1  0
 14 54  1  0
 16 55  1  0
 19 56  1  0
 19 57  1  0
 20 58  1  0
 20 59  1  0
 20 60  1  0
 21 61  1  0
 26 62  1  0
 26 63  1  0
 27 64  1  0
 27 65  1  0
 31 66  1  0
 32 67  1  0
 33 68  1  0
 35 69  1  0
 35 70  1  0
 36 71  1  0
 36 72  1  0
 38 73  1  0
 38 74  1  0
M  END
>  <Binding energies>  (1) 
[-5.28]

>  <Ligand effiencies>  (1) 
[-0.12571428571428572]

>  <Interactions>  (1) 
["V-B:GLU:543:CB:9878, V-A:PRO:540:C:4881, V-A:ILE:538:CB:4862, H-A:TYR:531:OH:4795, V-B:GLU:543:CG:9879, V-A:ASP:366:CG:3213, V-A:ASN:362:CB:3176, V-A:TYR:539:CD1:4873, V-A:ILE:538:CA:4860, V-A:GLU:543:CD:4908, H-B:TYR:484:OH:9319, V-B:HIS:456:CE1:9041, V-B:TYR:484:CZ:9318, V-A:GLU:543:CG:4907, V-B:GLU:543:CD:9880, V-A:MET:535:CE:4835, V-A:ARG:545:CZ:4926, H-B:ARG:545:NH2:9900, V-A:GLU:543:CB:4906, V-A:PRO:540:N:4884, V-A:TYR:539:CG:4872, H-B:GLU:543:OE2:9882, V-A:PRO:540:CA:4883, V-A:PRO:540:CB:4885, H-A:ASP:366:OD2:3215, V-A:PRO:540:CD:4887"]

$$$$
ZINC1865224685
     RDKit          3D

 69 73  0  0  0  0  0  0  0  0999 V2000
  131.3040  127.2400   59.0030 C   0  0  0  0  0  0  0  0  0  0  0  0
  131.5760  126.1620   58.2490 C   0  0  0  0  0  0  0  0  0  0  0  0
  132.8900  125.4010   58.2230 C   0  0  0  0  0  0  0  0  0  0  0  0
  132.7730  124.1180   58.8360 O   0  0  0  0  0  0  0  0  0  0  0  0
  133.1970  123.9320   60.1420 C   0  0  0  0  0  0  0  0  0  0  0  0
  134.3930  124.4750   60.6480 C   0  0  0  0  0  0  0  0  0  0  0  0
  134.7810  124.2460   61.9660 C   0  0  0  0  0  0  0  0  0  0  0  0
  133.9820  123.4750   62.8040 C   0  0  0  0  0  0  0  0  0  0  0  0
  132.7910  122.9400   62.3230 C   0  0  0  0  0  0  0  0  0  0  0  0
  132.3870  123.1590   60.9980 C   0  0  0  0  0  0  0  0  0  0  0  0
  131.0410  122.5810   60.5220 C   0  0  2  0  0  0  0  0  0  0  0  0
  129.7960  123.1490   61.2620 C   0  0  0  0  0  0  0  0  0  0  0  0
  129.6080  124.5890   61.1670 C   0  0  0  0  0  0  0  0  0  0  0  0
  128.9080  125.0490   60.2620 O   0  0  0  0  0  0  0  0  0  0  0  0
  130.2030  125.3760   62.1090 N   0  0  0  0  0  0  0  0  0  0  0  0
  129.9760  126.8230   62.1260 C   0  0  0  0  0  0  0  0  0  0  0  0
  129.1410  127.1720   63.3770 C   0  0  0  0  0  0  0  0  0  0  0  0
  129.6160  126.6210   64.6620 N   0  0  0  0  0  0  0  0  0  0  0  0
  129.1100  127.0920   65.8820 C   0  0  0  0  0  0  0  0  0  0  0  0
  129.3160  126.4190   67.1020 C   0  0  0  0  0  0  0  0  0  0  0  0
  128.7590  126.9300   68.2770 C   0  0  0  0  0  0  0  0  0  0  0  0
  127.9940  128.0930   68.2260 C   0  0  0  0  0  0  0  0  0  0  0  0
  127.8070  128.7070   66.9890 C   0  0  0  0  0  0  0  0  0  0  0  0
  128.3420  128.2220   65.8420 N   0  0  0  0  0  0  0  0  0  0  0  0
  130.1140  125.2320   64.5470 C   0  0  0  0  0  0  0  0  0  0  0  0
  130.9290  124.8800   63.2860 C   0  0  0  0  0  0  0  0  0  0  0  0
  128.8890  122.3500   61.9050 C   0  0  0  0  0  0  0  0  0  0  0  0
  127.7600  122.7460   62.5810 N   0  0  0  0  0  0  0  0  0  0  0  0
  128.9360  120.9890   61.9980 O   0  0  0  0  0  0  0  0  0  0  0  0
  129.9870  120.4240   61.3240 C   0  0  0  0  0  0  0  0  0  0  0  0
  130.9830  121.0530   60.6130 C   0  0  0  0  0  0  0  0  0  0  0  0
  131.8050  119.9940   60.1750 C   0  0  0  0  0  0  0  0  0  0  0  0
  133.0880  120.1040   59.3610 C   0  0  0  0  0  0  0  0  0  0  0  0
  133.2430  119.0770   58.2230 C   0  0  0  0  0  0  0  0  0  0  0  0
  131.3270  118.8190   60.5660 N   0  0  0  0  0  0  0  0  0  0  0  0
  130.2130  119.0810   61.2630 N   0  0  0  0  0  0  0  0  0  0  0  0
  129.4620  117.9960   61.8690 C   0  0  0  0  0  0  0  0  0  0  0  0
  130.3144  127.7168   58.9443 H   0  0  0  0  0  0  0  0  0  0  0  0
  132.0708  127.6459   59.6792 H   0  0  0  0  0  0  0  0  0  0  0  0
  130.7739  125.7973   57.5905 H   0  0  0  0  0  0  0  0  0  0  0  0
  133.2037  125.2683   57.1771 H   0  0  0  0  0  0  0  0  0  0  0  0
  133.6327  125.9830   58.7885 H   0  0  0  0  0  0  0  0  0  0  0  0
  135.0298  125.0885   59.9937 H   0  0  0  0  0  0  0  0  0  0  0  0
  135.7203  124.6753   62.3446 H   0  0  0  0  0  0  0  0  0  0  0  0
  134.2907  123.2889   63.8433 H   0  0  0  0  0  0  0  0  0  0  0  0
  132.1580  122.3373   62.9908 H   0  0  0  0  0  0  0  0  0  0  0  0
  130.9965  122.9013   59.4706 H   0  0  0  0  0  0  0  0  0  0  0  0
  130.9409  127.3497   62.1649 H   0  0  0  0  0  0  0  0  0  0  0  0
  129.4400  127.1316   61.2163 H   0  0  0  0  0  0  0  0  0  0  0  0
  129.1213  128.2679   63.4704 H   0  0  0  0  0  0  0  0  0  0  0  0
  128.1573  126.7095   63.2082 H   0  0  0  0  0  0  0  0  0  0  0  0
  129.9127  125.4953   67.1296 H   0  0  0  0  0  0  0  0  0  0  0  0
  128.9235  126.4172   69.2362 H   0  0  0  0  0  0  0  0  0  0  0  0
  127.5489  128.5159   69.1387 H   0  0  0  0  0  0  0  0  0  0  0  0
  127.2001  129.6232   66.9415 H   0  0  0  0  0  0  0  0  0  0  0  0
  130.7535  125.0359   65.4203 H   0  0  0  0  0  0  0  0  0  0  0  0
  129.2092  124.6096   64.4839 H   0  0  0  0  0  0  0  0  0  0  0  0
  131.9192  125.3561   63.3392 H   0  0  0  0  0  0  0  0  0  0  0  0
  131.0626  123.7904   63.2152 H   0  0  0  0  0  0  0  0  0  0  0  0
  127.4290  123.6980   62.5310 H   0  0  0  0  0  0  0  0  0  0  0  0
  127.2430  122.0970   63.1550 H   0  0  0  0  0  0  0  0  0  0  0  0
  133.1219  121.1097   58.9166 H   0  0  0  0  0  0  0  0  0  0  0  0
  133.9094  119.9012   60.0640 H   0  0  0  0  0  0  0  0  0  0  0  0
  133.3942  118.0752   58.6513 H   0  0  0  0  0  0  0  0  0  0  0  0
  132.3346  119.0773   57.6026 H   0  0  0  0  0  0  0  0  0  0  0  0
  134.1108  119.3453   57.6026 H   0  0  0  0  0  0  0  0  0  0  0  0
  129.5187  118.0779   62.9645 H   0  0  0  0  0  0  0  0  0  0  0  0
  128.4107  118.0552   61.5508 H   0  0  0  0  0  0  0  0  0  0  0  0
  129.8877  117.0329   61.5508 H   0  0  0  0  0  0  0  0  0  0  0  0
  1  2  2  0
  2  3  1  0
  3  4  1  0
  4  5  1  0
  5  6  2  0
  6  7  1  0
  7  8  2  0
  8  9  1  0
  9 10  2  0
 10 11  1  0
 11 12  1  0
 12 13  1  0
 13 14  2  0
 13 15  1  0
 15 16  1  0
 16 17  1  0
 17 18  1  0
 18 19  1  0
 19 20  2  0
 20 21  1  0
 21 22  2  0
 22 23  1  0
 23 24  2  0
 18 25  1  0
 25 26  1  0
 12 27  2  0
 27 28  1  0
 27 29  1  0
 29 30  1  0
 30 31  2  0
 31 32  1  0
 32 33  1  0
 33 34  1  0
 32 35  2  0
 35 36  1  0
 36 37  1  0
 10  5  1  0
 31 11  1  0
 26 15  1  0
 36 30  1  0
 24 19  1  0
  1 38  1  0
  1 39  1  0
  2 40  1  0
  3 41  1  0
  3 42  1  0
  6 43  1  0
  7 44  1  0
  8 45  1  0
  9 46  1  0
 11 47  1  6
 16 48  1  0
 16 49  1  0
 17 50  1  0
 17 51  1  0
 20 52  1  0
 21 53  1  0
 22 54  1  0
 23 55  1  0
 25 56  1  0
 25 57  1  0
 26 58  1  0
 26 59  1  0
 28 60  1  0
 28 61  1  0
 33 62  1  0
 33 63  1  0
 34 64  1  0
 34 65  1  0
 34 66  1  0
 37 67  1  0
 37 68  1  0
 37 69  1  0
M  END
>  <Binding energies>  (1) 
[-6.93]

>  <Ligand effiencies>  (1) 
[-0.17769230769230768]

>  <Interactions>  (1) 
["V-A:ILE:369:CG2:3237, V-A:ASP:366:CA:3210, V-A:GLY:454:CA:4049, V-B:GLU:543:CB:9878, V-B:ALA:541:CB:9864, V-B:TYR:539:CE2:9848, H-B:ALA:541:O:9861, V-B:GLU:543:CG:9879, V-B:TYR:539:C:9839, V-A:ASP:366:CG:3213, H-B:GLU:543:OE1:9881, H-B:TYR:539:OH:9850, H-B:ALA:541:N:9863, V-A:LEU:475:CD1:4258, V-A:GLU:543:CD:4908, V-B:HIS:456:CE1:9041, V-A:GLY:453:C:4042, V-A:ILE:369:CD1:3239, V-A:ASP:366:C:3208, V-A:PRO:482:CB:4326, V-B:TYR:539:CD2:9846, V-A:SER:385:CB:3409, H-A:SER:385:OG:3410, V-B:GLU:543:CD:9880, V-A:ASP:366:CB:3212, V-A:LEU:475:CD2:4259, V-B:TYR:539:CG:9844, H-A:HIS:383:HE2:3395, V-A:HIS:383:CD2:3392, V-A:GLY:453:CA:4044, V-A:PRO:482:CG:4327, V-B:PRO:540:C:9853, V-B:ALA:541:CA:9862, V-A:HIS:383:NE2:3394"]

$$$$
ZINC1866079527-again1
     RDKit          3D

 52 55  0  0  0  0  0  0  0  0999 V2000
  129.4360  116.9570   60.7600 C   0  0  0  0  0  0  0  0  0  0  0  0
  130.3040  117.7760   61.6070 N   0  0  0  0  0  0  0  0  0  0  0  0
  131.3220  117.0660   62.3810 C   0  0  0  0  0  0  0  0  0  0  0  0
  130.4460  119.1690   61.3450 C   0  0  0  0  0  0  0  0  0  0  0  0
  131.6290  119.6860   60.7860 C   0  0  0  0  0  0  0  0  0  0  0  0
  131.7700  121.0470   60.5330 C   0  0  0  0  0  0  0  0  0  0  0  0
  130.7340  121.9320   60.8380 C   0  0  0  0  0  0  0  0  0  0  0  0
  130.8670  123.4330   60.5480 C   0  0  1  0  0  0  0  0  0  0  0  0
  130.4100  124.2150   61.7040 N   0  0  0  0  0  0  0  0  0  0  0  0
  130.5220  123.8650   63.0000 C   0  0  0  0  0  0  0  0  0  0  0  0
  130.9390  122.7530   63.3350 O   0  0  0  0  0  0  0  0  0  0  0  0
  130.0440  124.8640   64.0600 C   0  0  0  0  0  0  0  0  0  0  0  0
  129.5120  126.0650   63.5800 C   0  0  0  0  0  0  0  0  0  0  0  0
  129.0550  127.0750   64.3440 N   0  0  0  0  0  0  0  0  0  0  0  0
  129.0910  126.9490   65.6940 C   0  0  0  0  0  0  0  0  0  0  0  0
  128.6050  128.0330   66.4860 C   0  0  0  0  0  0  0  0  0  0  0  0
  127.9850  129.4850   65.7680 Cl  0  0  0  0  0  0  0  0  0  0  0  0
  128.6200  127.9410   67.8730 C   0  0  0  0  0  0  0  0  0  0  0  0
  129.1020  126.8060   68.5060 C   0  0  0  0  0  0  0  0  0  0  0  0
  129.1050  126.7210   70.2310 Cl  0  0  0  0  0  0  0  0  0  0  0  0
  129.5820  125.7350   67.7610 C   0  0  0  0  0  0  0  0  0  0  0  0
  129.5950  125.7670   66.3260 C   0  0  0  0  0  0  0  0  0  0  0  0
  130.0760  124.6920   65.4780 C   0  0  0  0  0  0  0  0  0  0  0  0
  130.4860  123.6080   66.0350 O   0  0  0  0  0  0  0  0  0  0  0  0
  132.2990  123.8160   60.1560 C   0  0  0  0  0  0  0  0  0  0  0  0
  132.6710  124.2670   58.9740 N   0  0  0  0  0  0  0  0  0  0  0  0
  133.9800  124.4150   59.0440 C   0  0  0  0  0  0  0  0  0  0  0  0
  134.4720  124.0270   60.2770 C   0  0  0  0  0  0  0  0  0  0  0  0
  133.3780  123.6180   60.9940 N   0  0  0  0  0  0  0  0  0  0  0  0
  133.3710  123.1160   62.3590 C   0  0  0  0  0  0  0  0  0  0  0  0
  129.5540  121.4350   61.3910 C   0  0  0  0  0  0  0  0  0  0  0  0
  129.4130  120.0740   61.6430 C   0  0  0  0  0  0  0  0  0  0  0  0
  128.7819  116.3399   61.3935 H   0  0  0  0  0  0  0  0  0  0  0  0
  128.8204  117.6110   60.1249 H   0  0  0  0  0  0  0  0  0  0  0  0
  130.0532  116.3045   60.1249 H   0  0  0  0  0  0  0  0  0  0  0  0
  131.1271  117.2020   63.4550 H   0  0  0  0  0  0  0  0  0  0  0  0
  131.2885  115.9944   62.1350 H   0  0  0  0  0  0  0  0  0  0  0  0
  132.3160  117.4677   62.1350 H   0  0  0  0  0  0  0  0  0  0  0  0
  132.4566  119.0027   60.5448 H   0  0  0  0  0  0  0  0  0  0  0  0
  132.7024  121.4276   60.0905 H   0  0  0  0  0  0  0  0  0  0  0  0
  130.2254  123.6674   59.6858 H   0  0  0  0  0  0  0  0  0  0  0  0
  130.2020  125.1860   61.5130 H   0  0  0  0  0  0  0  0  0  0  0  0
  129.4629  126.1951   62.4888 H   0  0  0  0  0  0  0  0  0  0  0  0
  128.2442  128.7804   68.4764 H   0  0  0  0  0  0  0  0  0  0  0  0
  129.9602  124.8434   68.2826 H   0  0  0  0  0  0  0  0  0  0  0  0
  134.6032  124.7995   58.2231 H   0  0  0  0  0  0  0  0  0  0  0  0
  135.5198  124.0433   60.6114 H   0  0  0  0  0  0  0  0  0  0  0  0
  133.3828  123.9627   63.0611 H   0  0  0  0  0  0  0  0  0  0  0  0
  132.4644  122.5153   62.5241 H   0  0  0  0  0  0  0  0  0  0  0  0
  134.2605  122.4903   62.5241 H   0  0  0  0  0  0  0  0  0  0  0  0
  128.7297  122.1233   61.6294 H   0  0  0  0  0  0  0  0  0  0  0  0
  128.4768  119.6999   62.0831 H   0  0  0  0  0  0  0  0  0  0  0  0
  1  2  1  0
  2  3  1  0
  2  4  1  0
  4  5  2  0
  5  6  1  0
  6  7  2  0
  7  8  1  0
  8  9  1  0
  9 10  1  0
 10 11  2  0
 10 12  1  0
 12 13  2  0
 13 14  1  0
 14 15  2  0
 15 16  1  0
 16 17  1  0
 16 18  2  0
 18 19  1  0
 19 20  1  0
 19 21  2  0
 21 22  1  0
 22 23  2  0
 23 24  1  0
  8 25  1  0
 25 26  2  0
 26 27  1  0
 27 28  2  0
 28 29  1  0
 29 30  1  0
  7 31  1  0
 31 32  2  0
 32  4  1  0
 23 12  1  0
 29 25  1  0
 22 15  1  0
  1 33  1  0
  1 34  1  0
  1 35  1  0
  3 36  1  0
  3 37  1  0
  3 38  1  0
  5 39  1  0
  6 40  1  0
  8 41  1  6
  9 42  1  0
 13 43  1  0
 18 44  1  0
 21 45  1  0
 27 46  1  0
 28 47  1  0
 30 48  1  0
 30 49  1  0
 30 50  1  0
 31 51  1  0
 32 52  1  0
M  CHG  1  24  -1
M  END
>  <Binding energies>  (1) 
[-5.94]

>  <Ligand effiencies>  (1) 
[-0.18000000000000002]

>  <Interactions>  (1) 
["V-A:ILE:369:CG2:3237, V-A:ASP:366:CA:3210, V-A:ILE:369:CB:3236, V-B:GLU:543:CB:9878, V-B:ALA:541:CB:9864, V-B:TYR:539:CE2:9848, V-A:LEU:475:CG:4257, V-B:GLU:543:CG:9879, V-B:TYR:539:C:9839, V-A:ASP:366:CG:3213, H-B:TYR:539:OH:9850, V-B:VAL:344:CG1:7972, V-A:LEU:475:CD1:4258, V-A:GLU:543:CD:4908, V-B:GLU:543:CA:9876, V-B:HIS:456:CE1:9041, V-A:HIS:456:CE1:4070, V-A:ILE:369:CD1:3239, V-A:ASP:366:C:3208, V-A:PRO:482:CB:4326, V-B:TYR:539:CD2:9846, V-A:GLU:543:CG:4907, V-A:SER:385:CB:3409, V-B:GLU:543:CD:9880, V-A:ILE:369:CG1:3238, V-A:ASP:366:CB:3212, V-A:LEU:475:CD2:4259, V-A:GLU:543:CB:4906, V-A:PRO:482:CG:4327, V-B:PRO:540:C:9853, V-B:ALA:541:CA:9862, V-A:HIS:383:NE2:3394, H-A:TYR:484:OH:4348"]

$$$$
ZINC186654473
     RDKit          3D

 48 50  0  0  0  0  0  0  0  0999 V2000
  132.5270  118.2970   58.2190 C   0  0  0  0  0  0  0  0  0  0  0  0
  133.5010  119.4650   58.4050 C   0  0  0  0  0  0  0  0  0  0  0  0
  133.4580  119.8820   59.7670 O   0  0  0  0  0  0  0  0  0  0  0  0
  132.3250  120.5090   60.2560 C   0  0  0  0  0  0  0  0  0  0  0  0
  131.1260  119.8350   60.5450 C   0  0  0  0  0  0  0  0  0  0  0  0
  130.0220  120.5280   61.0350 C   0  0  0  0  0  0  0  0  0  0  0  0
  130.0930  121.9060   61.2420 C   0  0  0  0  0  0  0  0  0  0  0  0
  128.8880  122.6700   61.7790 C   0  0  0  0  0  0  0  0  0  0  0  0
  127.8870  122.9650   60.7400 N   0  0  0  0  0  0  0  0  0  0  0  0
  126.9850  124.0430   61.1770 C   0  0  0  0  0  0  0  0  0  0  0  0
  127.6250  125.4460   61.2610 C   0  0  0  0  0  0  0  0  0  0  0  0
  128.3180  126.0180   59.6840 S   0  0  0  0  0  0  0  0  0  0  0  0
  129.2860  124.5240   59.3200 C   0  0  0  0  0  0  0  0  0  0  0  0
  128.4770  123.1980   59.4020 C   0  0  2  0  0  0  0  0  0  0  0  0
  127.4150  122.9550   58.3180 C   0  0  0  0  0  0  0  0  0  0  0  0
  127.6340  122.1650   57.2870 N   0  0  0  0  0  0  0  0  0  0  0  0
  126.6140  122.1010   56.4550 C   0  0  0  0  0  0  0  0  0  0  0  0
  125.5070  122.8680   56.7830 C   0  0  0  0  0  0  0  0  0  0  0  0
  125.8410  123.7130   58.2610 S   0  0  0  0  0  0  0  0  0  0  0  0
  131.2810  122.5830   60.9600 C   0  0  0  0  0  0  0  0  0  0  0  0
  132.4030  121.8940   60.4660 C   0  0  0  0  0  0  0  0  0  0  0  0
  133.6070  122.5080   60.1640 O   0  0  0  0  0  0  0  0  0  0  0  0
  133.6740  123.9290   60.0840 C   0  0  0  0  0  0  0  0  0  0  0  0
  133.6010  124.3410   58.6100 C   0  0  0  0  0  0  0  0  0  0  0  0
  132.2133  117.9208   59.2039 H   0  0  0  0  0  0  0  0  0  0  0  0
  131.6444  118.6410   57.6598 H   0  0  0  0  0  0  0  0  0  0  0  0
  133.0240  117.4906   57.6598 H   0  0  0  0  0  0  0  0  0  0  0  0
  134.5206  119.1413   58.1488 H   0  0  0  0  0  0  0  0  0  0  0  0
  133.2158  120.2997   57.7478 H   0  0  0  0  0  0  0  0  0  0  0  0
  131.0590  118.7491   60.3825 H   0  0  0  0  0  0  0  0  0  0  0  0
  129.0908  119.9872   61.2596 H   0  0  0  0  0  0  0  0  0  0  0  0
  128.4109  122.0656   62.5646 H   0  0  0  0  0  0  0  0  0  0  0  0
  129.2535  123.6319   62.1678 H   0  0  0  0  0  0  0  0  0  0  0  0
  126.1469  124.0938   60.4663 H   0  0  0  0  0  0  0  0  0  0  0  0
  126.6789  123.7866   62.2020 H   0  0  0  0  0  0  0  0  0  0  0  0
  126.8546  126.1619   61.5834 H   0  0  0  0  0  0  0  0  0  0  0  0
  128.4576  125.3807   61.9768 H   0  0  0  0  0  0  0  0  0  0  0  0
  129.6921  124.6168   58.3019 H   0  0  0  0  0  0  0  0  0  0  0  0
  130.0690  124.4620   60.0901 H   0  0  0  0  0  0  0  0  0  0  0  0
  129.2637  122.4560   59.2009 H   0  0  0  0  0  0  0  0  0  0  0  0
  126.6397  121.4743   55.5513 H   0  0  0  0  0  0  0  0  0  0  0  0
  124.5739  122.9304   56.2038 H   0  0  0  0  0  0  0  0  0  0  0  0
  131.3401  123.6688   61.1263 H   0  0  0  0  0  0  0  0  0  0  0  0
  132.8304  124.3711   60.6343 H   0  0  0  0  0  0  0  0  0  0  0  0
  134.6154  124.2858   60.5271 H   0  0  0  0  0  0  0  0  0  0  0  0
  133.4095  125.4220   58.5405 H   0  0  0  0  0  0  0  0  0  0  0  0
  134.5549  124.1051   58.1157 H   0  0  0  0  0  0  0  0  0  0  0  0
  132.7862  123.7917   58.1157 H   0  0  0  0  0  0  0  0  0  0  0  0
  1  2  1  0
  2  3  1  0
  3  4  1  0
  4  5  2  0
  5  6  1  0
  6  7  2  0
  7  8  1  0
  8  9  1  0
  9 10  1  0
 10 11  1  0
 11 12  1  0
 12 13  1  0
 13 14  1  0
 14 15  1  0
 15 16  2  0
 16 17  1  0
 17 18  2  0
 18 19  1  0
  7 20  1  0
 20 21  2  0
 21 22  1  0
 22 23  1  0
 23 24  1  0
 21  4  1  0
 14  9  1  0
 19 15  1  0
  1 25  1  0
  1 26  1  0
  1 27  1  0
  2 28  1  0
  2 29  1  0
  5 30  1  0
  6 31  1  0
  8 32  1  0
  8 33  1  0
 10 34  1  0
 10 35  1  0
 11 36  1  0
 11 37  1  0
 13 38  1  0
 13 39  1  0
 14 40  1  6
 17 41  1  0
 18 42  1  0
 20 43  1  0
 23 44  1  0
 23 45  1  0
 24 46  1  0
 24 47  1  0
 24 48  1  0
M  END
>  <Binding energies>  (1) 
[-5.82]

>  <Ligand effiencies>  (1) 
[-0.24250000000000002]

>  <Interactions>  (1) 
["V-A:ILE:369:CG2:3237, V-A:ASP:366:CA:3210, V-B:PRO:540:CA:9855, V-B:TYR:539:CA:9841, V-A:ILE:369:CB:3236, V-B:ALA:541:CB:9864, V-B:TYR:539:CE2:9848, H-B:TYR:539:N:9842, V-B:TYR:539:C:9839, V-B:ILE:538:C:9830, V-B:TYR:539:CB:9843, V-B:PRO:540:CB:9857, V-B:PRO:540:N:9856, V-A:ILE:369:CD1:3239, V-A:ASP:366:C:3208, V-B:TYR:539:CD2:9846, V-B:PRO:540:CD:9859, H-A:SER:385:OG:3410, V-B:GLU:543:CD:9880, V-A:ASP:366:CB:3212, V-A:LEU:475:CD2:4259, V-B:TYR:539:CG:9844, V-A:HIS:383:CD2:3392, V-B:TYR:539:CD1:9845, V-B:LEU:363:CD1:8160, V-B:ILE:538:CA:9832, V-B:MET:535:CE:9807, V-A:HIS:383:NE2:3394"]

$$$$
ZINC1866592975
     RDKit          3D

 75 77  0  0  0  0  0  0  0  0999 V2000
  127.0170  129.2190   64.1460 C   0  0  0  0  0  0  0  0  0  0  0  0
  127.0990  129.2430   65.6790 C   0  0  0  0  0  0  0  0  0  0  0  0
  128.3490  128.5330   66.2250 C   0  0  0  0  0  0  0  0  0  0  0  0
  128.3260  128.3790   67.7630 C   0  0  0  0  0  0  0  0  0  0  0  0
  129.0940  127.1450   68.3020 C   0  0  1  0  0  0  0  0  0  0  0  0
  130.0330  126.6290   67.3030 N   0  0  0  0  0  0  0  0  0  0  0  0
  130.0860  125.3600   66.8560 C   0  0  0  0  0  0  0  0  0  0  0  0
  129.2950  124.4810   67.2070 O   0  0  0  0  0  0  0  0  0  0  0  0
  131.1690  125.0630   65.8480 C   0  0  0  0  0  0  0  0  0  0  0  0
  132.5030  125.3870   66.1360 C   0  0  0  0  0  0  0  0  0  0  0  0
  133.5140  125.1110   65.2160 C   0  0  0  0  0  0  0  0  0  0  0  0
  133.2060  124.5190   63.9930 C   0  0  0  0  0  0  0  0  0  0  0  0
  131.8800  124.2100   63.6810 C   0  0  0  0  0  0  0  0  0  0  0  0
  131.4700  123.4430   62.1140 S   0  0  0  0  0  0  0  0  0  0  0  0
  131.9930  124.3140   61.0540 O   0  0  0  0  0  0  0  0  0  0  0  0
  131.8770  122.0360   62.1930 O   0  0  0  0  0  0  0  0  0  0  0  0
  129.7000  123.4890   62.0290 N   0  0  0  0  0  0  0  0  0  0  0  0
  129.1240  123.5710   60.6650 C   0  0  0  0  0  0  0  0  0  0  0  0
  127.6250  123.9350   60.7650 C   0  0  0  0  0  0  0  0  0  0  0  0
  126.9260  122.9220   61.5790 N   0  0  0  0  0  0  0  0  0  0  0  0
  125.5010  123.2270   61.6430 C   0  0  0  0  0  0  0  0  0  0  0  0
  127.4910  122.8640   62.9390 C   0  0  0  0  0  0  0  0  0  0  0  0
  128.9880  122.4840   62.8530 C   0  0  0  0  0  0  0  0  0  0  0  0
  130.8680  124.4760   64.6090 C   0  0  0  0  0  0  0  0  0  0  0  0
  129.8610  127.4490   69.6070 C   0  0  0  0  0  0  0  0  0  0  0  0
  130.8840  128.1330   69.5470 O   0  0  0  0  0  0  0  0  0  0  0  0
  129.2990  126.9630   70.7360 N   0  0  0  0  0  0  0  0  0  0  0  0
  129.7410  127.0900   72.0710 C   0  0  0  0  0  0  0  0  0  0  0  0
  131.0890  126.9460   72.4450 C   0  0  0  0  0  0  0  0  0  0  0  0
  131.4860  127.0860   73.7830 C   0  0  0  0  0  0  0  0  0  0  0  0
  132.8110  126.9580   74.2380 N   0  0  0  0  0  0  0  0  0  0  0  0
  133.3110  126.1070   75.1600 C   0  0  0  0  0  0  0  0  0  0  0  0
  134.8040  126.2410   75.4420 C   0  0  0  0  0  0  0  0  0  0  0  0
  132.6700  125.2380   75.7510 O   0  0  0  0  0  0  0  0  0  0  0  0
  130.5150  127.3330   74.7550 C   0  0  0  0  0  0  0  0  0  0  0  0
  129.1750  127.4630   74.4000 C   0  0  0  0  0  0  0  0  0  0  0  0
  128.7770  127.3440   73.0650 C   0  0  0  0  0  0  0  0  0  0  0  0
  127.2980  127.5000   72.7280 C   0  0  0  0  0  0  0  0  0  0  0  0
  126.0036  128.9224   63.8376 H   0  0  0  0  0  0  0  0  0  0  0  0
  127.2420  130.2207   63.7510 H   0  0  0  0  0  0  0  0  0  0  0  0
  127.7466  128.4967   63.7510 H   0  0  0  0  0  0  0  0  0  0  0  0
  127.1173  130.2910   66.0127 H   0  0  0  0  0  0  0  0  0  0  0  0
  126.2203  128.7048   66.0640 H   0  0  0  0  0  0  0  0  0  0  0  0
  128.4108  127.5323   65.7724 H   0  0  0  0  0  0  0  0  0  0  0  0
  129.2210  129.1519   65.9669 H   0  0  0  0  0  0  0  0  0  0  0  0
  128.7743  129.2813   68.2044 H   0  0  0  0  0  0  0  0  0  0  0  0
  127.2724  128.2368   68.0453 H   0  0  0  0  0  0  0  0  0  0  0  0
  128.3308  126.3838   68.5211 H   0  0  0  0  0  0  0  0  0  0  0  0
  130.7160  127.2920   66.9680 H   0  0  0  0  0  0  0  0  0  0  0  0
  132.7538  125.8628   67.0956 H   0  0  0  0  0  0  0  0  0  0  0  0
  134.5577  125.3614   65.4566 H   0  0  0  0  0  0  0  0  0  0  0  0
  134.0070  124.2949   63.2731 H   0  0  0  0  0  0  0  0  0  0  0  0
  129.6525  124.3448   60.0888 H   0  0  0  0  0  0  0  0  0  0  0  0
  129.2348  122.6006   60.1591 H   0  0  0  0  0  0  0  0  0  0  0  0
  127.5182  124.9225   61.2376 H   0  0  0  0  0  0  0  0  0  0  0  0
  127.1861  123.9616   59.7567 H   0  0  0  0  0  0  0  0  0  0  0  0
  125.1873  123.2941   62.6952 H   0  0  0  0  0  0  0  0  0  0  0  0
  125.3085  124.1867   61.1410 H   0  0  0  0  0  0  0  0  0  0  0  0
  124.9326  122.4302   61.1410 H   0  0  0  0  0  0  0  0  0  0  0  0
  127.3882  123.8469   63.4221 H   0  0  0  0  0  0  0  0  0  0  0  0
  126.9520  122.1096   63.5309 H   0  0  0  0  0  0  0  0  0  0  0  0
  129.4210  122.4639   63.8640 H   0  0  0  0  0  0  0  0  0  0  0  0
  129.0908  121.4899   62.3934 H   0  0  0  0  0  0  0  0  0  0  0  0
  129.8256  124.2226   64.3655 H   0  0  0  0  0  0  0  0  0  0  0  0
  128.4160  126.4870   70.6300 H   0  0  0  0  0  0  0  0  0  0  0  0
  131.8433  126.7202   71.6768 H   0  0  0  0  0  0  0  0  0  0  0  0
  133.4790  127.5490   73.7640 H   0  0  0  0  0  0  0  0  0  0  0  0
  134.9719  126.2561   76.5290 H   0  0  0  0  0  0  0  0  0  0  0  0
  135.3387  125.3872   75.0002 H   0  0  0  0  0  0  0  0  0  0  0  0
  135.1781  127.1763   75.0002 H   0  0  0  0  0  0  0  0  0  0  0  0
  130.8110  127.4257   75.8104 H   0  0  0  0  0  0  0  0  0  0  0  0
  128.4223  127.6612   75.1773 H   0  0  0  0  0  0  0  0  0  0  0  0
  126.7144  127.5616   73.6584 H   0  0  0  0  0  0  0  0  0  0  0  0
  127.1505  128.4187   72.1412 H   0  0  0  0  0  0  0  0  0  0  0  0
  126.9621  126.6323   72.1412 H   0  0  0  0  0  0  0  0  0  0  0  0
  1  2  1  0
  2  3  1  0
  3  4  1  0
  4  5  1  0
  5  6  1  0
  6  7  1  0
  7  8  2  0
  7  9  1  0
  9 10  2  0
 10 11  1  0
 11 12  2  0
 12 13  1  0
 13 14  1  0
 14 15  2  0
 14 16  2  0
 14 17  1  0
 17 18  1  0
 18 19  1  0
 19 20  1  0
 20 21  1  0
 20 22  1  0
 22 23  1  0
 13 24  2  0
  5 25  1  0
 25 26  2  0
 25 27  1  0
 27 28  1  0
 28 29  2  0
 29 30  1  0
 30 31  1  0
 31 32  1  0
 32 33  1  0
 32 34  2  0
 30 35  2  0
 35 36  1  0
 36 37  2  0
 37 38  1  0
 24  9  1  0
 37 28  1  0
 23 17  1  0
  1 39  1  0
  1 40  1  0
  1 41  1  0
  2 42  1  0
  2 43  1  0
  3 44  1  0
  3 45  1  0
  4 46  1  0
  4 47  1  0
  5 48  1  1
  6 49  1  0
 10 50  1  0
 11 51  1  0
 12 52  1  0
 18 53  1  0
 18 54  1  0
 19 55  1  0
 19 56  1  0
 21 57  1  0
 21 58  1  0
 21 59  1  0
 22 60  1  0
 22 61  1  0
 23 62  1  0
 23 63  1  0
 24 64  1  0
 27 65  1  0
 29 66  1  0
 31 67  1  0
 33 68  1  0
 33 69  1  0
 33 70  1  0
 35 71  1  0
 36 72  1  0
 38 73  1  0
 38 74  1  0
 38 75  1  0
M  END
>  <Binding energies>  (1) 
[-9.5]

>  <Ligand effiencies>  (1) 
[-0.23170731707317074]

>  <Interactions>  (1) 
["V-B:PRO:540:CA:9855, V-B:HIS:456:CD2:9039, H-A:GLU:543:OE2:4910, H-B:GLU:543:O:9875, V-B:GLU:543:CB:9878, V-B:ALA:541:CB:9864, V-A:GLY:544:C:4912, V-B:GLU:543:CG:9879, V-A:HIS:456:CD2:4068, V-A:VAL:457:C:4073, V-A:LYS:547:CG:4948, V-A:HIS:456:CB:4065, V-B:LYS:547:CE:9922, H-B:ALA:541:N:9863, V-A:GLU:543:CD:4908, V-A:TYR:484:CZ:4347, V-B:PRO:540:CB:9857, V-B:HIS:456:CE1:9041, V-A:ARG:545:CG:4922, V-A:HIS:456:CE1:4070, V-B:GLY:544:C:9884, V-A:GLU:543:CG:4907, V-B:GLU:543:CD:9880, V-B:HIS:456:CG:9037, V-A:ARG:545:CD:4923, V-A:HIS:456:C:4061, V-A:ARG:545:CZ:4926, H-A:GLU:543:OE1:4909, V-A:HIS:456:CG:4066, V-A:GLU:543:CB:4906, V-B:PRO:540:C:9853, H-A:ARG:545:O:4918, V-B:ALA:541:CA:9862, V-A:VAL:458:CG2:4087, H-A:GLY:544:O:4913, H-A:HIS:456:NE2:4071"]

$$$$
ZINC1866753200
     RDKit          3D

 66 67  0  0  0  0  0  0  0  0999 V2000
  133.6100  124.3970   58.3480 C   0  0  0  0  0  0  0  0  0  0  0  0
  133.6380  124.0500   59.8450 C   0  0  0  0  0  0  0  0  0  0  0  0
  132.6690  124.8940   60.6760 C   0  0  0  0  0  0  0  0  0  0  0  0
  131.6980  125.6310   59.9870 C   0  0  0  0  0  0  0  0  0  0  0  0
  130.8000  126.4470   60.6690 C   0  0  0  0  0  0  0  0  0  0  0  0
  130.8510  126.5460   62.0580 C   0  0  0  0  0  0  0  0  0  0  0  0
  129.8910  127.3820   62.6570 N   0  0  0  0  0  0  0  0  0  0  0  0
  128.6960  127.7900   62.1750 C   0  0  0  0  0  0  0  0  0  0  0  0
  128.2000  127.4600   61.0950 O   0  0  0  0  0  0  0  0  0  0  0  0
  127.9310  128.7890   63.0720 C   0  0  2  0  0  0  0  0  0  0  0  0
  128.4920  130.2290   62.9610 C   0  0  0  0  0  0  0  0  0  0  0  0
  129.4640  130.4340   61.7890 C   0  0  0  0  0  0  0  0  0  0  0  0
  130.5190  131.8970   61.9640 S   0  0  0  0  0  0  0  0  0  0  0  0
  132.1350  131.1480   61.6320 C   0  0  0  0  0  0  0  0  0  0  0  0
  128.0180  128.3290   64.4610 N   0  0  0  0  0  0  0  0  0  0  0  0
  127.9780  129.1370   65.5350 C   0  0  0  0  0  0  0  0  0  0  0  0
  128.0350  130.3650   65.4610 O   0  0  0  0  0  0  0  0  0  0  0  0
  127.8080  128.4590   66.9040 C   0  0  0  0  0  0  0  0  0  0  0  0
  129.0600  127.6610   67.3940 C   0  0  1  0  0  0  0  0  0  0  0  0
  129.2180  127.6870   68.9260 C   0  0  0  0  0  0  0  0  0  0  0  0
  128.1560  127.2920   69.7480 C   0  0  0  0  0  0  0  0  0  0  0  0
  128.3030  127.2950   71.1320 C   0  0  0  0  0  0  0  0  0  0  0  0
  129.5120  127.6940   71.6970 C   0  0  0  0  0  0  0  0  0  0  0  0
  129.6560  127.6960   73.0410 F   0  0  0  0  0  0  0  0  0  0  0  0
  130.5760  128.0880   70.8890 C   0  0  0  0  0  0  0  0  0  0  0  0
  130.4290  128.0850   69.5030 C   0  0  0  0  0  0  0  0  0  0  0  0
  129.1210  126.2080   66.8180 C   0  0  0  0  0  0  0  0  0  0  0  0
  129.7570  125.2030   67.8050 C   0  0  0  0  0  0  0  0  0  0  0  0
  129.8520  126.1260   65.4610 C   0  0  0  0  0  0  0  0  0  0  0  0
  131.8320  125.8250   62.7550 C   0  0  0  0  0  0  0  0  0  0  0  0
  132.7370  124.9870   62.0850 C   0  0  0  0  0  0  0  0  0  0  0  0
  133.7280  124.2400   62.8940 N   0  0  0  0  0  0  0  0  0  0  0  0
  134.0150  123.0920   62.5740 O   0  0  0  0  0  0  0  0  0  0  0  0
  134.2000  124.7980   63.8810 O   0  0  0  0  0  0  0  0  0  0  0  0
  133.5221  125.4866   58.2258 H   0  0  0  0  0  0  0  0  0  0  0  0
  134.5392  124.0486   57.8734 H   0  0  0  0  0  0  0  0  0  0  0  0
  132.7487  123.9041   57.8734 H   0  0  0  0  0  0  0  0  0  0  0  0
  133.3690  122.9900   59.9636 H   0  0  0  0  0  0  0  0  0  0  0  0
  134.6535  124.2612   60.2113 H   0  0  0  0  0  0  0  0  0  0  0  0
  131.6441  125.5641   58.8904 H   0  0  0  0  0  0  0  0  0  0  0  0
  130.0452  127.0174   60.1079 H   0  0  0  0  0  0  0  0  0  0  0  0
  130.1750  127.7820   63.5390 H   0  0  0  0  0  0  0  0  0  0  0  0
  126.8846  128.8243   62.7346 H   0  0  0  0  0  0  0  0  0  0  0  0
  127.6461  130.9206   62.8335 H   0  0  0  0  0  0  0  0  0  0  0  0
  129.0611  130.4200   63.8827 H   0  0  0  0  0  0  0  0  0  0  0  0
  130.1102  129.5469   61.7146 H   0  0  0  0  0  0  0  0  0  0  0  0
  128.8525  130.5850   60.8872 H   0  0  0  0  0  0  0  0  0  0  0  0
  132.6345  130.9165   62.5843 H   0  0  0  0  0  0  0  0  0  0  0  0
  131.9981  130.2215   61.0550 H   0  0  0  0  0  0  0  0  0  0  0  0
  132.7535  131.8513   61.0550 H   0  0  0  0  0  0  0  0  0  0  0  0
  127.9770  127.3290   64.5930 H   0  0  0  0  0  0  0  0  0  0  0  0
  127.5850  129.2382   67.6477 H   0  0  0  0  0  0  0  0  0  0  0  0
  126.9955  127.7262   66.7907 H   0  0  0  0  0  0  0  0  0  0  0  0
  129.9306  128.1914   66.9807 H   0  0  0  0  0  0  0  0  0  0  0  0
  127.2023  126.9782   69.2987 H   0  0  0  0  0  0  0  0  0  0  0  0
  127.4680  126.9836   71.7769 H   0  0  0  0  0  0  0  0  0  0  0  0
  131.5282  128.4002   71.3428 H   0  0  0  0  0  0  0  0  0  0  0  0
  131.2666  128.3961   68.8615 H   0  0  0  0  0  0  0  0  0  0  0  0
  128.0692  125.9276   66.6592 H   0  0  0  0  0  0  0  0  0  0  0  0
  129.5537  125.5242   68.8372 H   0  0  0  0  0  0  0  0  0  0  0  0
  129.3260  124.2045   67.6401 H   0  0  0  0  0  0  0  0  0  0  0  0
  130.8439  125.1650   67.6401 H   0  0  0  0  0  0  0  0  0  0  0  0
  130.9317  126.0049   65.6329 H   0  0  0  0  0  0  0  0  0  0  0  0
  129.4725  125.2648   64.8915 H   0  0  0  0  0  0  0  0  0  0  0  0
  129.6727  127.0499   64.8915 H   0  0  0  0  0  0  0  0  0  0  0  0
  131.8933  125.9183   63.8493 H   0  0  0  0  0  0  0  0  0  0  0  0
  1  2  1  0
  2  3  1  0
  3  4  2  0
  4  5  1  0
  5  6  2  0
  6  7  1  0
  7  8  1  0
  8  9  2  0
  8 10  1  0
 10 11  1  0
 11 12  1  0
 12 13  1  0
 13 14  1  0
 10 15  1  0
 15 16  1  0
 16 17  2  0
 16 18  1  0
 18 19  1  0
 19 20  1  0
 20 21  2  0
 21 22  1  0
 22 23  2  0
 23 24  1  0
 23 25  1  0
 25 26  2  0
 19 27  1  0
 27 28  1  0
 27 29  1  0
  6 30  1  0
 30 31  2  0
 31 32  1  0
 32 33  2  0
 32 34  1  0
 31  3  1  0
 26 20  1  0
  1 35  1  0
  1 36  1  0
  1 37  1  0
  2 38  1  0
  2 39  1  0
  4 40  1  0
  5 41  1  0
  7 42  1  0
 10 43  1  6
 11 44  1  0
 11 45  1  0
 12 46  1  0
 12 47  1  0
 14 48  1  0
 14 49  1  0
 14 50  1  0
 15 51  1  0
 18 52  1  0
 18 53  1  0
 19 54  1  6
 21 55  1  0
 22 56  1  0
 25 57  1  0
 26 58  1  0
 27 59  1  0
 28 60  1  0
 28 61  1  0
 28 62  1  0
 29 63  1  0
 29 64  1  0
 29 65  1  0
 30 66  1  0
M  CHG  2  32   1  34  -1
M  END
>  <Binding energies>  (1) 
[-8.51]

>  <Ligand effiencies>  (1) 
[-0.23638888888888887]

>  <Interactions>  (1) 
["V-A:ILE:369:CG2:3237, V-A:ASP:366:CA:3210, V-A:GLU:543:CA:4904, V-B:HIS:456:CD2:9039, H-A:GLU:543:OE2:4910, V-A:ILE:369:CB:3236, H-A:ALA:541:N:4891, V-A:GLU:543:C:4902, V-B:GLU:543:CB:9878, V-B:GLU:543:C:9874, H-A:ARG:545:NH1:4927, V-B:TYR:539:CE2:9848, V-A:TYR:484:CE2:4346, V-A:GLY:544:C:4912, V-B:GLU:543:CG:9879, V-A:ASP:366:CG:3213, V-B:TYR:539:CZ:9849, H-B:GLU:543:OE1:9881, V-A:GLU:543:CD:4908, H-B:TYR:484:OH:9319, V-B:HIS:456:CE1:9041, H-A:GLY:454:N:4050, V-B:GLU:543:CA:9876, V-A:ILE:369:CD1:3239, V-A:HIS:456:CE1:4070, V-A:ASP:366:C:3208, V-A:GLU:543:CG:4907, V-B:GLU:543:CD:9880, V-A:ASP:366:CB:3212, H-A:ARG:545:NH2:4928, V-A:ARG:545:CZ:4926, H-A:GLU:543:OE1:4909, V-A:GLU:543:CB:4906, H-B:GLU:543:OE2:9882, H-A:ARG:545:NE:4924"]

$$$$
ZINC1866831892
     RDKit          3D

 60 63  0  0  0  0  0  0  0  0999 V2000
  128.7960  132.9200   59.7780 C   0  0  0  0  0  0  0  0  0  0  0  0
  130.1140  131.9350   60.5390 S   0  0  0  0  0  0  0  0  0  0  0  0
  129.3920  131.6050   62.1710 C   0  0  0  0  0  0  0  0  0  0  0  0
  127.8530  131.6080   62.2140 C   0  0  0  0  0  0  0  0  0  0  0  0
  127.2340  130.4340   63.0190 C   0  0  1  0  0  0  0  0  0  0  0  0
  127.4070  129.1880   62.2700 N   0  0  0  0  0  0  0  0  0  0  0  0
  126.7430  128.8360   61.1530 C   0  0  0  0  0  0  0  0  0  0  0  0
  125.8790  129.5360   60.6190 O   0  0  0  0  0  0  0  0  0  0  0  0
  127.1140  127.5500   60.6080 C   0  0  0  0  0  0  0  0  0  0  0  0
  126.4560  126.9020   59.5520 C   0  0  0  0  0  0  0  0  0  0  0  0
  127.1050  125.6950   59.3310 C   0  0  0  0  0  0  0  0  0  0  0  0
  126.7950  124.6350   58.3820 C   0  0  0  0  0  0  0  0  0  0  0  0
  125.6080  123.9200   58.2210 C   0  0  0  0  0  0  0  0  0  0  0  0
  125.6600  122.9750   57.1910 C   0  0  0  0  0  0  0  0  0  0  0  0
  126.8840  122.9620   56.5430 C   0  0  0  0  0  0  0  0  0  0  0  0
  127.9800  124.1290   57.2090 S   0  0  0  0  0  0  0  0  0  0  0  0
  128.1510  125.7170   60.2340 N   0  0  0  0  0  0  0  0  0  0  0  0
  129.2090  124.7150   60.4640 C   0  0  1  0  0  0  0  0  0  0  0  0
  129.9430  124.8680   61.8240 C   0  0  0  0  0  0  0  0  0  0  0  0
  129.1700  124.1560   62.9480 C   0  0  0  0  0  0  0  0  0  0  0  0
  128.2780  122.7250   62.1110 S   0  0  0  0  0  0  0  0  0  0  0  0
  128.9710  121.4610   62.3800 O   0  0  0  0  0  0  0  0  0  0  0  0
  126.8390  122.8490   62.3690 O   0  0  0  0  0  0  0  0  0  0  0  0
  128.6670  123.2800   60.3550 C   0  0  0  0  0  0  0  0  0  0  0  0
  128.1370  126.8200   61.0000 N   0  0  0  0  0  0  0  0  0  0  0  0
  127.8520  130.2440   64.4190 C   0  0  0  0  0  0  0  0  0  0  0  0
  128.2920  131.2300   65.0120 O   0  0  0  0  0  0  0  0  0  0  0  0
  127.8070  128.9820   64.8990 N   0  0  0  0  0  0  0  0  0  0  0  0
  128.2660  128.4830   66.1330 C   0  0  0  0  0  0  0  0  0  0  0  0
  128.2470  129.1980   67.3440 C   0  0  0  0  0  0  0  0  0  0  0  0
  128.7360  128.6120   68.5110 C   0  0  0  0  0  0  0  0  0  0  0  0
  129.2500  127.3170   68.4870 C   0  0  0  0  0  0  0  0  0  0  0  0
  129.7190  126.7620   69.6290 F   0  0  0  0  0  0  0  0  0  0  0  0
  129.2820  126.6030   67.2870 C   0  0  0  0  0  0  0  0  0  0  0  0
  129.9230  125.0000   67.2350 Cl  0  0  0  0  0  0  0  0  0  0  0  0
  128.7940  127.1890   66.1170 C   0  0  0  0  0  0  0  0  0  0  0  0
  128.1807  133.3798   60.5654 H   0  0  0  0  0  0  0  0  0  0  0  0
  129.2414  133.7083   59.1534 H   0  0  0  0  0  0  0  0  0  0  0  0
  128.1661  132.2695   59.1534 H   0  0  0  0  0  0  0  0  0  0  0  0
  129.7408  130.6167   62.5050 H   0  0  0  0  0  0  0  0  0  0  0  0
  129.7195  132.4273   62.8242 H   0  0  0  0  0  0  0  0  0  0  0  0
  127.5231  132.5518   62.6726 H   0  0  0  0  0  0  0  0  0  0  0  0
  127.5087  131.4938   61.1755 H   0  0  0  0  0  0  0  0  0  0  0  0
  126.1727  130.6861   63.1605 H   0  0  0  0  0  0  0  0  0  0  0  0
  128.0910  128.5480   62.6500 H   0  0  0  0  0  0  0  0  0  0  0  0
  125.5839  127.2815   58.9993 H   0  0  0  0  0  0  0  0  0  0  0  0
  124.7165  124.0837   58.8443 H   0  0  0  0  0  0  0  0  0  0  0  0
  124.8212  122.3149   56.9250 H   0  0  0  0  0  0  0  0  0  0  0  0
  127.1311  122.2919   55.7064 H   0  0  0  0  0  0  0  0  0  0  0  0
  129.9424  124.9059   59.6667 H   0  0  0  0  0  0  0  0  0  0  0  0
  130.9476  124.4274   61.7427 H   0  0  0  0  0  0  0  0  0  0  0  0
  130.0117  125.9384   62.0680 H   0  0  0  0  0  0  0  0  0  0  0  0
  129.8639  123.7814   63.7150 H   0  0  0  0  0  0  0  0  0  0  0  0
  128.4689  124.8344   63.4561 H   0  0  0  0  0  0  0  0  0  0  0  0
  129.4242  122.6202   59.9063 H   0  0  0  0  0  0  0  0  0  0  0  0
  127.7726  123.2387   59.7160 H   0  0  0  0  0  0  0  0  0  0  0  0
  127.3590  128.2960   64.3110 H   0  0  0  0  0  0  0  0  0  0  0  0
  127.8455  130.2218   67.3706 H   0  0  0  0  0  0  0  0  0  0  0  0
  128.7159  129.1751   69.4557 H   0  0  0  0  0  0  0  0  0  0  0  0
  128.8255  126.6260   65.1725 H   0  0  0  0  0  0  0  0  0  0  0  0
  1  2  1  0
  2  3  1  0
  3  4  1  0
  4  5  1  0
  5  6  1  0
  6  7  1  0
  7  8  2  0
  7  9  1  0
  9 10  1  0
 10 11  2  0
 11 12  1  0
 12 13  2  0
 13 14  1  0
 14 15  2  0
 15 16  1  0
 11 17  1  0
 17 18  1  0
 18 19  1  0
 19 20  1  0
 20 21  1  0
 21 22  2  0
 21 23  2  0
 21 24  1  0
 17 25  1  0
  5 26  1  0
 26 27  2  0
 26 28  1  0
 28 29  1  0
 29 30  2  0
 30 31  1  0
 31 32  2  0
 32 33  1  0
 32 34  1  0
 34 35  1  0
 34 36  2  0
 25  9  2  0
 36 29  1  0
 16 12  1  0
 24 18  1  0
  1 37  1  0
  1 38  1  0
  1 39  1  0
  3 40  1  0
  3 41  1  0
  4 42  1  0
  4 43  1  0
  5 44  1  1
  6 45  1  0
 10 46  1  0
 13 47  1  0
 14 48  1  0
 15 49  1  0
 18 50  1  6
 19 51  1  0
 19 52  1  0
 20 53  1  0
 20 54  1  0
 24 55  1  0
 24 56  1  0
 28 57  1  0
 30 58  1  0
 31 59  1  0
 36 60  1  0
M  END
>  <Binding energies>  (1) 
[-8.03]

>  <Ligand effiencies>  (1) 
[-0.2113157894736842]

>  <Interactions>  (1) 
["V-B:PRO:540:CA:9855, V-B:GLU:543:CB:9878, V-B:ASP:366:CG:8184, V-B:ALA:541:CB:9864, V-B:TYR:539:CE2:9848, V-A:TYR:484:CE2:4346, V-B:GLU:543:CG:9879, V-A:TYR:539:CD1:4873, V-B:TYR:539:CZ:9849, H-B:GLU:543:OE1:9881, H-B:ALA:541:N:9863, V-A:GLU:543:CD:4908, V-B:PRO:540:CB:9857, V-A:TYR:484:CZ:4347, H-B:TYR:484:OH:9319, V-B:HIS:456:CE1:9041, V-B:GLU:543:CA:9876, V-B:PRO:540:N:9856, V-A:HIS:456:CE1:4070, V-B:PRO:540:CD:9859, V-A:GLU:543:CG:4907, V-B:GLU:543:CD:9880, V-A:TYR:539:C:4867, H-A:GLU:543:OE1:4909, V-A:GLU:543:CB:4906, V-A:PRO:540:N:4884, V-B:LEU:363:CD1:8160, H-B:GLU:543:OE2:9882, V-A:PRO:540:CA:4883"]

$$$$
ZINC1866888647
     RDKit          3D

 67 69  0  0  0  0  0  0  0  0999 V2000
  128.4490  127.1360   71.2740 C   0  0  0  0  0  0  0  0  0  0  0  0
  129.5560  128.1630   71.0700 C   0  0  0  0  0  0  0  0  0  0  0  0
  130.4050  128.3630   71.9420 O   0  0  0  0  0  0  0  0  0  0  0  0
  129.4610  128.7810   69.8610 O   0  0  0  0  0  0  0  0  0  0  0  0
  129.4420  128.0380   68.7010 C   0  0  0  0  0  0  0  0  0  0  0  0
  128.5740  128.3550   67.6490 C   0  0  0  0  0  0  0  0  0  0  0  0
  128.5880  127.5970   66.4820 C   0  0  0  0  0  0  0  0  0  0  0  0
  129.4730  126.5230   66.3580 C   0  0  0  0  0  0  0  0  0  0  0  0
  129.4660  125.6700   65.0900 C   0  0  0  0  0  0  0  0  0  0  0  0
  129.6600  126.5060   63.7960 C   0  0  2  0  0  0  0  0  0  0  0  0
  128.6190  127.5310   63.6840 N   0  0  0  0  0  0  0  0  0  0  0  0
  128.5860  128.4990   62.7520 C   0  0  0  0  0  0  0  0  0  0  0  0
  129.4670  128.6470   61.9020 O   0  0  0  0  0  0  0  0  0  0  0  0
  127.3700  129.4320   62.7710 C   0  0  0  0  0  0  0  0  0  0  0  0
  127.2420  130.2350   64.0830 C   0  0  0  0  0  0  0  0  0  0  0  0
  127.6980  132.0520   63.8000 S   0  0  0  0  0  0  0  0  0  0  0  0
  126.5280  132.7560   63.2590 O   0  0  0  0  0  0  0  0  0  0  0  0
  128.3630  132.5520   65.0080 O   0  0  0  0  0  0  0  0  0  0  0  0
  128.9380  131.9800   62.5090 C   0  0  0  0  0  0  0  0  0  0  0  0
  128.5670  132.0700   61.1640 C   0  0  0  0  0  0  0  0  0  0  0  0
  129.5400  132.0040   60.1660 C   0  0  0  0  0  0  0  0  0  0  0  0
  130.8840  131.8490   60.5080 C   0  0  0  0  0  0  0  0  0  0  0  0
  131.2570  131.7590   61.8500 C   0  0  0  0  0  0  0  0  0  0  0  0
  132.9180  131.5670   62.2740 Cl  0  0  0  0  0  0  0  0  0  0  0  0
  130.2850  131.8240   62.8500 C   0  0  0  0  0  0  0  0  0  0  0  0
  129.7080  125.6020   62.5390 C   0  0  0  0  0  0  0  0  0  0  0  0
  130.8000  125.3390   62.0300 O   0  0  0  0  0  0  0  0  0  0  0  0
  128.4990  125.2390   62.0590 N   0  0  0  0  0  0  0  0  0  0  0  0
  128.1780  124.5260   60.8860 C   0  0  0  0  0  0  0  0  0  0  0  0
  128.6280  123.2180   60.6350 C   0  0  0  0  0  0  0  0  0  0  0  0
  128.2830  122.5650   59.4530 C   0  0  0  0  0  0  0  0  0  0  0  0
  127.4790  123.2000   58.5070 C   0  0  0  0  0  0  0  0  0  0  0  0
  127.1180  122.4960   57.2110 C   0  0  0  0  0  0  0  0  0  0  0  0
  127.0210  124.4950   58.7510 C   0  0  0  0  0  0  0  0  0  0  0  0
  127.3570  125.1620   59.9350 C   0  0  0  0  0  0  0  0  0  0  0  0
  126.8280  126.5760   60.1520 C   0  0  0  0  0  0  0  0  0  0  0  0
  130.3540  126.2200   67.3980 C   0  0  0  0  0  0  0  0  0  0  0  0
  130.3410  126.9790   68.5650 C   0  0  0  0  0  0  0  0  0  0  0  0
  128.2844  126.9833   72.3508 H   0  0  0  0  0  0  0  0  0  0  0  0
  127.5209  127.5001   70.8092 H   0  0  0  0  0  0  0  0  0  0  0  0
  128.7426  126.1832   70.8092 H   0  0  0  0  0  0  0  0  0  0  0  0
  127.8807  129.2036   67.7450 H   0  0  0  0  0  0  0  0  0  0  0  0
  127.9026  127.8433   65.6576 H   0  0  0  0  0  0  0  0  0  0  0  0
  130.2811  124.9344   65.1577 H   0  0  0  0  0  0  0  0  0  0  0  0
  128.4806  125.1856   65.0244 H   0  0  0  0  0  0  0  0  0  0  0  0
  130.6321  127.0165   63.8619 H   0  0  0  0  0  0  0  0  0  0  0  0
  127.8600  127.4590   64.3460 H   0  0  0  0  0  0  0  0  0  0  0  0
  127.4596  130.1406   61.9344 H   0  0  0  0  0  0  0  0  0  0  0  0
  126.4725  128.8021   62.6836 H   0  0  0  0  0  0  0  0  0  0  0  0
  126.2047  130.1746   64.4441 H   0  0  0  0  0  0  0  0  0  0  0  0
  127.9297  129.8087   64.8282 H   0  0  0  0  0  0  0  0  0  0  0  0
  127.5081  132.1928   60.8925 H   0  0  0  0  0  0  0  0  0  0  0  0
  129.2471  132.0743   59.1080 H   0  0  0  0  0  0  0  0  0  0  0  0
  131.6496  131.7977   59.7198 H   0  0  0  0  0  0  0  0  0  0  0  0
  130.5792  131.7524   63.9075 H   0  0  0  0  0  0  0  0  0  0  0  0
  127.6970  125.5950   62.5580 H   0  0  0  0  0  0  0  0  0  0  0  0
  129.2575  122.7058   61.3775 H   0  0  0  0  0  0  0  0  0  0  0  0
  128.6466  121.5439   59.2655 H   0  0  0  0  0  0  0  0  0  0  0  0
  126.6269  121.5383   57.4384 H   0  0  0  0  0  0  0  0  0  0  0  0
  126.4336  123.1296   56.6279 H   0  0  0  0  0  0  0  0  0  0  0  0
  128.0320  122.3100   56.6279 H   0  0  0  0  0  0  0  0  0  0  0  0
  126.3886  124.9977   58.0044 H   0  0  0  0  0  0  0  0  0  0  0  0
  126.7525  126.7777   61.2307 H   0  0  0  0  0  0  0  0  0  0  0  0
  127.5162  127.2997   59.6909 H   0  0  0  0  0  0  0  0  0  0  0  0
  125.8338  126.6703   59.6909 H   0  0  0  0  0  0  0  0  0  0  0  0
  131.0585  125.3814   67.2952 H   0  0  0  0  0  0  0  0  0  0  0  0
  131.0402  126.7438   69.3810 H   0  0  0  0  0  0  0  0  0  0  0  0
  1  2  1  0
  2  3  2  0
  2  4  1  0
  4  5  1  0
  5  6  2  0
  6  7  1  0
  7  8  2  0
  8  9  1  0
  9 10  1  0
 10 11  1  0
 11 12  1  0
 12 13  2  0
 12 14  1  0
 14 15  1  0
 15 16  1  0
 16 17  2  0
 16 18  2  0
 16 19  1  0
 19 20  2  0
 20 21  1  0
 21 22  2  0
 22 23  1  0
 23 24  1  0
 23 25  2  0
 10 26  1  0
 26 27  2  0
 26 28  1  0
 28 29  1  0
 29 30  2  0
 30 31  1  0
 31 32  2  0
 32 33  1  0
 32 34  1  0
 34 35  2  0
 35 36  1  0
  8 37  1  0
 37 38  2  0
 38  5  1  0
 25 19  1  0
 35 29  1  0
  1 39  1  0
  1 40  1  0
  1 41  1  0
  6 42  1  0
  7 43  1  0
  9 44  1  0
  9 45  1  0
 10 46  1  1
 11 47  1  0
 14 48  1  0
 14 49  1  0
 15 50  1  0
 15 51  1  0
 20 52  1  0
 21 53  1  0
 22 54  1  0
 25 55  1  0
 28 56  1  0
 30 57  1  0
 31 58  1  0
 33 59  1  0
 33 60  1  0
 33 61  1  0
 34 62  1  0
 36 63  1  0
 36 64  1  0
 36 65  1  0
 37 66  1  0
 38 67  1  0
M  END
>  <Binding energies>  (1) 
[-8.58]

>  <Ligand effiencies>  (1) 
[-0.2145]

>  <Interactions>  (1) 
["V-B:PRO:540:CA:9855, V-B:GLU:543:CB:9878, V-B:TYR:539:CE2:9848, V-B:GLU:543:CG:9879, V-B:TYR:539:C:9839, V-A:ASN:362:CB:3176, H-B:GLU:543:OE1:9881, V-A:ALA:541:CB:4892, V-A:GLU:543:CD:4908, H-B:TYR:484:OH:9319, V-B:HIS:456:CE1:9041, V-B:PRO:540:N:9856, V-A:HIS:456:CE1:4070, V-B:TYR:539:CD2:9846, V-A:GLU:543:CG:4907, V-B:PRO:540:CD:9859, V-B:GLU:543:CD:9880, V-B:TYR:539:CG:9844, V-A:GLU:543:CB:4906, V-B:TYR:539:CD1:9845, H-B:GLU:543:OE2:9882, V-A:PRO:540:CA:4883, V-A:PRO:540:CB:4885"]

$$$$
ZINC1867228817
     RDKit          3D

 76 77  0  0  0  0  0  0  0  0999 V2000
  127.1930  128.1950   62.7170 C   0  0  0  0  0  0  0  0  0  0  0  0
  128.4640  127.9630   63.5440 C   0  0  0  0  0  0  0  0  0  0  0  0
  128.3170  128.4260   65.0100 C   0  0  0  0  0  0  0  0  0  0  0  0
  128.6150  127.3350   66.0750 C   0  0  1  0  0  0  0  0  0  0  0  0
  129.8430  126.5990   65.7680 N   0  0  0  0  0  0  0  0  0  0  0  0
  130.2030  125.4350   66.3290 C   0  0  0  0  0  0  0  0  0  0  0  0
  129.5250  124.8680   67.1890 O   0  0  0  0  0  0  0  0  0  0  0  0
  131.5180  124.8240   65.8090 C   0  0  0  0  0  0  0  0  0  0  0  0
  131.4610  124.4930   64.3770 N   0  0  0  0  0  0  0  0  0  0  0  0
  130.2960  123.6920   63.8940 C   0  0  0  0  0  0  0  0  0  0  0  0
  129.1770  124.6170   63.3870 C   0  0  0  0  0  0  0  0  0  0  0  0
  129.8070  122.6550   64.9260 C   0  0  0  0  0  0  0  0  0  0  0  0
  132.9840  124.2350   63.4910 S   0  0  0  0  0  0  0  0  0  0  0  0
  134.0260  125.0950   64.0690 O   0  0  0  0  0  0  0  0  0  0  0  0
  133.2070  122.7880   63.3780 O   0  0  0  0  0  0  0  0  0  0  0  0
  132.6500  124.8640   61.8480 C   0  0  0  0  0  0  0  0  0  0  0  0
  133.2000  124.2320   60.7300 C   0  0  0  0  0  0  0  0  0  0  0  0
  132.9210  124.7170   59.4550 C   0  0  0  0  0  0  0  0  0  0  0  0
  132.0930  125.8270   59.3030 C   0  0  0  0  0  0  0  0  0  0  0  0
  131.8210  126.2970   58.0640 F   0  0  0  0  0  0  0  0  0  0  0  0
  131.5390  126.4570   60.4160 C   0  0  0  0  0  0  0  0  0  0  0  0
  131.8170  125.9750   61.6920 C   0  0  0  0  0  0  0  0  0  0  0  0
  128.7070  127.9130   67.5030 C   0  0  0  0  0  0  0  0  0  0  0  0
  128.6170  129.1320   67.6670 O   0  0  0  0  0  0  0  0  0  0  0  0
  128.8230  126.9980   68.4890 N   0  0  0  0  0  0  0  0  0  0  0  0
  128.8810  127.2360   69.8750 C   0  0  0  0  0  0  0  0  0  0  0  0
  127.7900  126.9870   70.7170 C   0  0  0  0  0  0  0  0  0  0  0  0
  127.8710  127.2590   72.0800 C   0  0  0  0  0  0  0  0  0  0  0  0
  129.0350  127.7970   72.6560 C   0  0  0  0  0  0  0  0  0  0  0  0
  129.1150  128.0720   74.0540 N   0  0  0  0  0  0  0  0  0  0  0  0
  128.6170  129.3360   74.6110 C   0  0  0  0  0  0  0  0  0  0  0  0
  127.1050  129.3450   74.8950 C   0  0  0  0  0  0  0  0  0  0  0  0
  129.8900  127.2080   74.9570 C   0  0  0  0  0  0  0  0  0  0  0  0
  131.1320  126.5750   74.3080 C   0  0  0  0  0  0  0  0  0  0  0  0
  130.1160  128.0520   71.7930 C   0  0  0  0  0  0  0  0  0  0  0  0
  130.0530  127.7840   70.4220 C   0  0  0  0  0  0  0  0  0  0  0  0
  131.2710  128.0860   69.5540 C   0  0  0  0  0  0  0  0  0  0  0  0
  126.3392  128.3508   63.3928 H   0  0  0  0  0  0  0  0  0  0  0  0
  127.3255  129.0838   62.0826 H   0  0  0  0  0  0  0  0  0  0  0  0
  127.0029  127.3167   62.0826 H   0  0  0  0  0  0  0  0  0  0  0  0
  128.6967  126.8879   63.5366 H   0  0  0  0  0  0  0  0  0  0  0  0
  129.2690  128.5579   63.0880 H   0  0  0  0  0  0  0  0  0  0  0  0
  129.0115  129.2629   65.1750 H   0  0  0  0  0  0  0  0  0  0  0  0
  127.2606  128.7035   65.1408 H   0  0  0  0  0  0  0  0  0  0  0  0
  127.7618  126.6416   66.0387 H   0  0  0  0  0  0  0  0  0  0  0  0
  130.4360  127.0170   65.0640 H   0  0  0  0  0  0  0  0  0  0  0  0
  132.3308  125.5472   65.9713 H   0  0  0  0  0  0  0  0  0  0  0  0
  131.6913  123.8881   66.3604 H   0  0  0  0  0  0  0  0  0  0  0  0
  130.6380  123.0911   63.0385 H   0  0  0  0  0  0  0  0  0  0  0  0
  128.6467  125.0554   64.2452 H   0  0  0  0  0  0  0  0  0  0  0  0
  129.6142  125.4209   62.7766 H   0  0  0  0  0  0  0  0  0  0  0  0
  128.4697  124.0364   62.7766 H   0  0  0  0  0  0  0  0  0  0  0  0
  129.9867  123.0361   65.9421 H   0  0  0  0  0  0  0  0  0  0  0  0
  128.7304  122.4778   64.7859 H   0  0  0  0  0  0  0  0  0  0  0  0
  130.3552  121.7117   64.7859 H   0  0  0  0  0  0  0  0  0  0  0  0
  133.8511  123.3545   60.8566 H   0  0  0  0  0  0  0  0  0  0  0  0
  133.3529  124.2254   58.5708 H   0  0  0  0  0  0  0  0  0  0  0  0
  130.8846  127.3317   60.2866 H   0  0  0  0  0  0  0  0  0  0  0  0
  131.3824  126.4671   62.5746 H   0  0  0  0  0  0  0  0  0  0  0  0
  128.7980  126.0260   68.2180 H   0  0  0  0  0  0  0  0  0  0  0  0
  126.8611  126.5730   70.2979 H   0  0  0  0  0  0  0  0  0  0  0  0
  127.0030  127.0478   72.7218 H   0  0  0  0  0  0  0  0  0  0  0  0
  129.1470  129.5300   75.5552 H   0  0  0  0  0  0  0  0  0  0  0  0
  128.8019  130.1113   73.8529 H   0  0  0  0  0  0  0  0  0  0  0  0
  126.9361  129.3460   75.9820 H   0  0  0  0  0  0  0  0  0  0  0  0
  126.6543  130.2458   74.4531 H   0  0  0  0  0  0  0  0  0  0  0  0
  126.6436  128.4496   74.4531 H   0  0  0  0  0  0  0  0  0  0  0  0
  130.2188  127.8122   75.8154 H   0  0  0  0  0  0  0  0  0  0  0  0
  129.2278  126.3796   75.2492 H   0  0  0  0  0  0  0  0  0  0  0  0
  131.8181  126.2253   75.0934 H   0  0  0  0  0  0  0  0  0  0  0  0
  130.8253  125.7232   73.6831 H   0  0  0  0  0  0  0  0  0  0  0  0
  131.6410  127.3236   73.6831 H   0  0  0  0  0  0  0  0  0  0  0  0
  131.0412  128.4761   72.2102 H   0  0  0  0  0  0  0  0  0  0  0  0
  132.1363  128.3006   70.1983 H   0  0  0  0  0  0  0  0  0  0  0  0
  131.4935  127.2158   68.9189 H   0  0  0  0  0  0  0  0  0  0  0  0
  131.0612  128.9593   68.9189 H   0  0  0  0  0  0  0  0  0  0  0  0
  1  2  1  0
  2  3  1  0
  3  4  1  0
  4  5  1  0
  5  6  1  0
  6  7  2  0
  6  8  1  0
  8  9  1  0
  9 10  1  0
 10 11  1  0
 10 12  1  0
  9 13  1  0
 13 14  2  0
 13 15  2  0
 13 16  1  0
 16 17  2  0
 17 18  1  0
 18 19  2  0
 19 20  1  0
 19 21  1  0
 21 22  2  0
  4 23  1  0
 23 24  2  0
 23 25  1  0
 25 26  1  0
 26 27  2  0
 27 28  1  0
 28 29  2  0
 29 30  1  0
 30 31  1  0
 31 32  1  0
 30 33  1  0
 33 34  1  0
 29 35  1  0
 35 36  2  0
 36 37  1  0
 22 16  1  0
 36 26  1  0
  1 38  1  0
  1 39  1  0
  1 40  1  0
  2 41  1  0
  2 42  1  0
  3 43  1  0
  3 44  1  0
  4 45  1  1
  5 46  1  0
  8 47  1  0
  8 48  1  0
 10 49  1  0
 11 50  1  0
 11 51  1  0
 11 52  1  0
 12 53  1  0
 12 54  1  0
 12 55  1  0
 17 56  1  0
 18 57  1  0
 21 58  1  0
 22 59  1  0
 25 60  1  0
 27 61  1  0
 28 62  1  0
 31 63  1  0
 31 64  1  0
 32 65  1  0
 32 66  1  0
 32 67  1  0
 33 68  1  0
 33 69  1  0
 34 70  1  0
 34 71  1  0
 34 72  1  0
 35 73  1  0
 37 74  1  0
 37 75  1  0
 37 76  1  0
M  END
>  <Binding energies>  (1) 
[-7.99]

>  <Ligand effiencies>  (1) 
[-0.20487179487179488]

>  <Interactions>  (1) 
["V-A:ASP:366:CA:3210, V-A:GLU:543:CA:4904, V-B:GLU:543:C:9874, H-A:GLU:543:OE2:4910, H-B:GLU:543:O:9875, V-B:HIS:456:CD2:9039, V-A:GLU:543:C:4902, V-B:GLU:543:CB:9878, V-B:HIS:456:CB:9036, V-B:ALA:541:CB:9864, H-A:ARG:545:NH1:4927, V-A:TYR:484:CE2:4346, V-B:TYR:539:CE2:9848, V-B:GLU:543:CG:9879, V-A:GLY:544:C:4912, V-A:HIS:456:CD2:4068, V-A:ASP:366:CG:3213, V-A:GLU:543:CD:4908, V-A:TYR:484:CZ:4347, V-B:HIS:456:CE1:9041, H-A:GLY:454:N:4050, V-A:ARG:545:CG:4922, V-A:HIS:456:CE1:4070, V-B:GLY:544:C:9884, V-A:GLU:543:CG:4907, V-B:GLU:543:CD:9880, V-B:HIS:456:CG:9037, V-A:ASP:366:CB:3212, V-A:LEU:475:CD2:4259, H-A:ARG:545:NH2:4928, H-A:GLU:543:OE1:4909, V-A:GLU:543:CB:4906, H-A:ARG:545:NE:4924, H-A:TYR:484:OH:4348"]

$$$$
ZINC1867361165
     RDKit          3D

 66 68  0  0  0  0  0  0  0  0999 V2000
  126.3680  129.5150   64.7840 C   0  0  0  0  0  0  0  0  0  0  0  0
  127.7190  129.5200   65.2290 O   0  0  0  0  0  0  0  0  0  0  0  0
  128.1420  128.5870   66.1660 C   0  0  0  0  0  0  0  0  0  0  0  0
  127.9540  128.7560   67.5470 C   0  0  0  0  0  0  0  0  0  0  0  0
  128.4030  127.7990   68.4490 C   0  0  0  0  0  0  0  0  0  0  0  0
  129.0470  126.6550   67.9910 C   0  0  0  0  0  0  0  0  0  0  0  0
  129.2520  126.4490   66.6170 C   0  0  0  0  0  0  0  0  0  0  0  0
  129.8780  125.3180   66.1120 O   0  0  0  0  0  0  0  0  0  0  0  0
  131.2580  125.0900   66.3760 C   0  0  0  0  0  0  0  0  0  0  0  0
  128.7970  127.4260   65.7060 C   0  0  0  0  0  0  0  0  0  0  0  0
  129.0070  127.2250   64.2280 C   0  0  0  0  0  0  0  0  0  0  0  0
  128.1110  127.4860   63.4240 O   0  0  0  0  0  0  0  0  0  0  0  0
  130.2290  126.7660   63.8940 N   0  0  0  0  0  0  0  0  0  0  0  0
  130.7240  126.4420   62.5440 C   0  0  2  0  0  0  0  0  0  0  0  0
  132.0400  125.6110   62.5930 C   0  0  0  0  0  0  0  0  0  0  0  0
  132.5420  125.1030   61.2490 C   0  0  0  0  0  0  0  0  0  0  0  0
  131.6710  125.0430   60.1400 C   0  0  0  0  0  0  0  0  0  0  0  0
  132.1430  124.5880   58.8930 C   0  0  0  0  0  0  0  0  0  0  0  0
  133.4850  124.1850   58.7530 C   0  0  0  0  0  0  0  0  0  0  0  0
  133.9410  123.7450   57.5450 O   0  0  0  0  0  0  0  0  0  0  0  0
  134.3560  124.2390   59.8590 C   0  0  0  0  0  0  0  0  0  0  0  0
  133.8840  124.6970   61.1050 C   0  0  0  0  0  0  0  0  0  0  0  0
  130.8090  127.6450   61.5660 C   0  0  0  0  0  0  0  0  0  0  0  0
  131.7360  127.6850   60.7550 O   0  0  0  0  0  0  0  0  0  0  0  0
  129.8380  128.5760   61.6120 N   0  0  0  0  0  0  0  0  0  0  0  0
  129.7520  129.7450   60.7440 C   0  0  0  0  0  0  0  0  0  0  0  0
  128.7300  130.7770   61.2490 C   0  0  0  0  0  0  0  0  0  0  0  0
  129.5730  132.4060   61.7010 S   0  0  0  0  0  0  0  0  0  0  0  0
  128.7850  133.0890   62.7330 O   0  0  0  0  0  0  0  0  0  0  0  0
  131.0100  132.1720   61.8870 O   0  0  0  0  0  0  0  0  0  0  0  0
  129.3970  133.3550   60.2100 N   0  0  0  0  0  0  0  0  0  0  0  0
  129.7880  132.8470   58.9650 C   0  0  0  0  0  0  0  0  0  0  0  0
  128.9320  133.0330   57.8770 C   0  0  0  0  0  0  0  0  0  0  0  0
  129.2880  132.5540   56.6190 C   0  0  0  0  0  0  0  0  0  0  0  0
  130.5000  131.8910   56.4510 C   0  0  0  0  0  0  0  0  0  0  0  0
  131.3630  131.7040   57.5290 C   0  0  0  0  0  0  0  0  0  0  0  0
  131.0080  132.1850   58.7870 C   0  0  0  0  0  0  0  0  0  0  0  0
  125.6953  129.5125   65.6543 H   0  0  0  0  0  0  0  0  0  0  0  0
  126.1786  130.4125   64.1768 H   0  0  0  0  0  0  0  0  0  0  0  0
  126.1853  128.6162   64.1768 H   0  0  0  0  0  0  0  0  0  0  0  0
  127.4450  129.6571   67.9196 H   0  0  0  0  0  0  0  0  0  0  0  0
  128.2485  127.9469   69.5280 H   0  0  0  0  0  0  0  0  0  0  0  0
  129.3997  125.9033   68.7125 H   0  0  0  0  0  0  0  0  0  0  0  0
  131.4237  125.0626   67.4631 H   0  0  0  0  0  0  0  0  0  0  0  0
  131.5620  124.1295   65.9345 H   0  0  0  0  0  0  0  0  0  0  0  0
  131.8548  125.9017   65.9345 H   0  0  0  0  0  0  0  0  0  0  0  0
  130.8900  126.6030   64.6390 H   0  0  0  0  0  0  0  0  0  0  0  0
  129.9432  125.8039   62.1045 H   0  0  0  0  0  0  0  0  0  0  0  0
  132.8253  126.2446   63.0311 H   0  0  0  0  0  0  0  0  0  0  0  0
  131.8107  124.7153   63.1890 H   0  0  0  0  0  0  0  0  0  0  0  0
  130.6211  125.3523   60.2496 H   0  0  0  0  0  0  0  0  0  0  0  0
  131.4634  124.5476   58.0290 H   0  0  0  0  0  0  0  0  0  0  0  0
  134.5820  124.3370   57.1460 H   0  0  0  0  0  0  0  0  0  0  0  0
  135.4042  123.9237   59.7498 H   0  0  0  0  0  0  0  0  0  0  0  0
  134.5649  124.7378   61.9680 H   0  0  0  0  0  0  0  0  0  0  0  0
  129.1090  128.4770   62.3050 H   0  0  0  0  0  0  0  0  0  0  0  0
  130.7417  130.2226   60.6957 H   0  0  0  0  0  0  0  0  0  0  0  0
  129.4205  129.4026   59.7526 H   0  0  0  0  0  0  0  0  0  0  0  0
  127.9880  130.9639   60.4588 H   0  0  0  0  0  0  0  0  0  0  0  0
  128.2434  130.3743   62.1496 H   0  0  0  0  0  0  0  0  0  0  0  0
  128.5710  133.9350   60.1860 H   0  0  0  0  0  0  0  0  0  0  0  0
  127.9755  133.5585   58.0142 H   0  0  0  0  0  0  0  0  0  0  0  0
  128.6142  132.6990   55.7617 H   0  0  0  0  0  0  0  0  0  0  0  0
  130.7795  131.5108   55.4574 H   0  0  0  0  0  0  0  0  0  0  0  0
  132.3194  131.1794   57.3872 H   0  0  0  0  0  0  0  0  0  0  0  0
  131.6869  132.0444   59.6410 H   0  0  0  0  0  0  0  0  0  0  0  0
  1  2  1  0
  2  3  1  0
  3  4  2  0
  4  5  1  0
  5  6  2  0
  6  7  1  0
  7  8  1  0
  8  9  1  0
  7 10  2  0
 10 11  1  0
 11 12  2  0
 11 13  1  0
 13 14  1  0
 14 15  1  0
 15 16  1  0
 16 17  2  0
 17 18  1  0
 18 19  2  0
 19 20  1  0
 19 21  1  0
 21 22  2  0
 14 23  1  0
 23 24  2  0
 23 25  1  0
 25 26  1  0
 26 27  1  0
 27 28  1  0
 28 29  2  0
 28 30  2  0
 28 31  1  0
 31 32  1  0
 32 33  2  0
 33 34  1  0
 34 35  2  0
 35 36  1  0
 36 37  2  0
 10  3  1  0
 22 16  1  0
 37 32  1  0
  1 38  1  0
  1 39  1  0
  1 40  1  0
  4 41  1  0
  5 42  1  0
  6 43  1  0
  9 44  1  0
  9 45  1  0
  9 46  1  0
 13 47  1  0
 14 48  1  6
 15 49  1  0
 15 50  1  0
 17 51  1  0
 18 52  1  0
 20 53  1  0
 21 54  1  0
 22 55  1  0
 25 56  1  0
 26 57  1  0
 26 58  1  0
 27 59  1  0
 27 60  1  0
 31 61  1  0
 33 62  1  0
 34 63  1  0
 35 64  1  0
 36 65  1  0
 37 66  1  0
M  END
>  <Binding energies>  (1) 
[-7.72]

>  <Ligand effiencies>  (1) 
[-0.18829268292682927]

>  <Interactions>  (1) 
["V-A:ILE:369:CG2:3237, V-A:ASP:366:CA:3210, H-A:GLU:543:OE2:4910, V-A:ILE:369:CB:3236, H-A:ALA:541:N:4891, V-B:GLU:543:CB:9878, V-A:PRO:540:C:4881, V-B:TYR:539:CE2:9848, V-A:TYR:484:CE2:4346, V-B:GLU:543:CG:9879, V-A:ASP:366:CG:3213, V-A:TYR:539:CD1:4873, V-B:TYR:539:CZ:9849, H-A:ASN:370:N:3244, H-B:TYR:539:OH:9850, V-A:GLU:543:CD:4908, V-A:TYR:484:CZ:4347, H-B:TYR:484:OH:9319, V-B:HIS:456:CE1:9041, V-A:HIS:456:CE1:4070, V-A:ILE:369:CD1:3239, V-A:GLU:543:CG:4907, V-B:GLU:543:CD:9880, V-A:MET:535:CE:4835, V-A:TYR:539:C:4867, V-A:ASP:366:CB:3212, H-A:ARG:545:NH2:4928, V-A:ARG:545:CZ:4926, H-A:GLU:543:OE1:4909, H-A:ASP:366:O:3209, V-A:GLU:543:CB:4906, H-A:TYR:539:O:4868, V-A:PRO:540:N:4884, V-A:TYR:539:CG:4872, V-A:PRO:540:CB:4885, V-A:PRO:540:CA:4883, V-A:TYR:539:CE1:4875"]

$$$$
ZINC1867378448
     RDKit          3D

 60 61  0  0  0  0  0  0  0  0999 V2000
  129.8570  118.9790   61.7400 C   0  0  0  0  0  0  0  0  0  0  0  0
  130.8420  119.7900   60.8880 C   0  0  0  0  0  0  0  0  0  0  0  0
  130.7070  121.3120   61.1010 C   0  0  0  0  0  0  0  0  0  0  0  0
  129.2800  121.7610   61.5050 C   0  0  2  0  0  0  0  0  0  0  0  0
  128.7730  122.8330   60.6400 N   0  0  0  0  0  0  0  0  0  0  0  0
  127.5100  123.3000   60.6270 C   0  0  0  0  0  0  0  0  0  0  0  0
  126.6020  122.8500   61.3280 O   0  0  0  0  0  0  0  0  0  0  0  0
  127.2610  124.4440   59.6790 C   0  0  0  0  0  0  0  0  0  0  0  0
  127.1030  125.7430   60.1900 C   0  0  0  0  0  0  0  0  0  0  0  0
  126.8570  126.8190   59.3380 C   0  0  0  0  0  0  0  0  0  0  0  0
  126.7570  126.6100   57.9650 C   0  0  0  0  0  0  0  0  0  0  0  0
  126.8990  125.3260   57.4450 C   0  0  0  0  0  0  0  0  0  0  0  0
  127.1440  124.2400   58.2890 C   0  0  0  0  0  0  0  0  0  0  0  0
  127.2820  122.5110   57.4870 Br  0  0  0  0  0  0  0  0  0  0  0  0
  129.2310  122.1900   62.9880 C   0  0  0  0  0  0  0  0  0  0  0  0
  128.1470  122.4560   63.5090 O   0  0  0  0  0  0  0  0  0  0  0  0
  130.4120  122.2680   63.6250 N   0  0  0  0  0  0  0  0  0  0  0  0
  130.5800  122.6120   65.0390 C   0  0  0  0  0  0  0  0  0  0  0  0
  130.3880  124.1120   65.3640 C   0  0  1  0  0  0  0  0  0  0  0  0
  130.2000  124.2890   66.7580 O   0  0  0  0  0  0  0  0  0  0  0  0
  131.5890  124.9530   64.8710 C   0  0  0  0  0  0  0  0  0  0  0  0
  131.7390  125.0070   63.3920 N   0  0  0  0  0  0  0  0  0  0  0  0
  130.4910  125.0050   62.5970 C   0  0  0  0  0  0  0  0  0  0  0  0
  133.1270  124.1440   62.7020 S   0  0  0  0  0  0  0  0  0  0  0  0
  134.3510  124.7410   63.2460 O   0  0  0  0  0  0  0  0  0  0  0  0
  132.8770  122.7030   62.8350 O   0  0  0  0  0  0  0  0  0  0  0  0
  133.0710  124.5350   60.9540 C   0  0  0  0  0  0  0  0  0  0  0  0
  133.7650  123.7410   60.0360 C   0  0  0  0  0  0  0  0  0  0  0  0
  133.7000  124.0310   58.6730 C   0  0  0  0  0  0  0  0  0  0  0  0
  132.9370  125.1100   58.2230 C   0  0  0  0  0  0  0  0  0  0  0  0
  132.2360  125.8980   59.1370 C   0  0  0  0  0  0  0  0  0  0  0  0
  131.2860  127.2270   58.5790 Cl  0  0  0  0  0  0  0  0  0  0  0  0
  132.3010  125.6100   60.5000 C   0  0  0  0  0  0  0  0  0  0  0  0
  130.0662  119.1513   62.8061 H   0  0  0  0  0  0  0  0  0  0  0  0
  128.8284  119.2955   61.5124 H   0  0  0  0  0  0  0  0  0  0  0  0
  129.9702  117.9088   61.5124 H   0  0  0  0  0  0  0  0  0  0  0  0
  131.8662  119.4879   61.1522 H   0  0  0  0  0  0  0  0  0  0  0  0
  130.6140  119.5826   59.8320 H   0  0  0  0  0  0  0  0  0  0  0  0
  131.4043  121.6144   61.8962 H   0  0  0  0  0  0  0  0  0  0  0  0
  130.9343  121.7925   60.1379 H   0  0  0  0  0  0  0  0  0  0  0  0
  128.6210  120.8904   61.3716 H   0  0  0  0  0  0  0  0  0  0  0  0
  129.4570  123.2660   60.0380 H   0  0  0  0  0  0  0  0  0  0  0  0
  127.1741  125.9132   61.2744 H   0  0  0  0  0  0  0  0  0  0  0  0
  126.7420  127.8323   59.7503 H   0  0  0  0  0  0  0  0  0  0  0  0
  126.5660  127.4585   57.2916 H   0  0  0  0  0  0  0  0  0  0  0  0
  126.8175  125.1654   56.3598 H   0  0  0  0  0  0  0  0  0  0  0  0
  131.2520  122.0290   63.1190 H   0  0  0  0  0  0  0  0  0  0  0  0
  129.8445  122.0378   65.6215 H   0  0  0  0  0  0  0  0  0  0  0  0
  131.6209  122.3677   65.2977 H   0  0  0  0  0  0  0  0  0  0  0  0
  129.4911  124.4638   64.8332 H   0  0  0  0  0  0  0  0  0  0  0  0
  130.9860  123.9810   67.2140 H   0  0  0  0  0  0  0  0  0  0  0  0
  131.4635  125.9812   65.2413 H   0  0  0  0  0  0  0  0  0  0  0  0
  132.4941  124.4632   65.2594 H   0  0  0  0  0  0  0  0  0  0  0  0
  129.6246  125.0036   63.2747 H   0  0  0  0  0  0  0  0  0  0  0  0
  130.4589  125.9031   61.9627 H   0  0  0  0  0  0  0  0  0  0  0  0
  130.4618  124.1068   61.9627 H   0  0  0  0  0  0  0  0  0  0  0  0
  134.3625  122.8874   60.3886 H   0  0  0  0  0  0  0  0  0  0  0  0
  134.2505  123.4088   57.9520 H   0  0  0  0  0  0  0  0  0  0  0  0
  132.8883  125.3391   57.1482 H   0  0  0  0  0  0  0  0  0  0  0  0
  131.7454  126.2298   61.2192 H   0  0  0  0  0  0  0  0  0  0  0  0
  1  2  1  0
  2  3  1  0
  3  4  1  0
  4  5  1  0
  5  6  1  0
  6  7  2  0
  6  8  1  0
  8  9  2  0
  9 10  1  0
 10 11  2  0
 11 12  1  0
 12 13  2  0
 13 14  1  0
  4 15  1  0
 15 16  2  0
 15 17  1  0
 17 18  1  0
 18 19  1  0
 19 20  1  0
 19 21  1  0
 21 22  1  0
 22 23  1  0
 22 24  1  0
 24 25  2  0
 24 26  2  0
 24 27  1  0
 27 28  2  0
 28 29  1  0
 29 30  2  0
 30 31  1  0
 31 32  1  0
 31 33  2  0
 13  8  1  0
 33 27  1  0
  1 34  1  0
  1 35  1  0
  1 36  1  0
  2 37  1  0
  2 38  1  0
  3 39  1  0
  3 40  1  0
  4 41  1  1
  5 42  1  0
  9 43  1  0
 10 44  1  0
 11 45  1  0
 12 46  1  0
 17 47  1  0
 18 48  1  0
 18 49  1  0
 19 50  1  6
 20 51  1  0
 21 52  1  0
 21 53  1  0
 23 54  1  0
 23 55  1  0
 23 56  1  0
 28 57  1  0
 29 58  1  0
 30 59  1  0
 33 60  1  0
M  END
>  <Binding energies>  (1) 
[-7.91]

>  <Ligand effiencies>  (1) 
[-0.21972222222222224]

>  <Interactions>  (1) 
["V-A:ILE:369:CG2:3237, V-A:ASP:366:CA:3210, V-B:PRO:540:CA:9855, V-A:ILE:369:CB:3236, V-B:ALA:541:CB:9864, H-A:ARG:545:NH1:4927, V-A:TYR:484:CE2:4346, V-B:TYR:539:CE2:9848, V-A:LEU:475:CG:4257, V-B:GLU:543:CG:9879, V-B:TYR:539:C:9839, V-A:ASP:366:CG:3213, V-B:TYR:539:CZ:9849, H-B:ALA:541:N:9863, V-A:LEU:475:CD1:4258, V-A:TYR:484:CZ:4347, H-A:GLY:454:N:4050, V-B:PRO:540:N:9856, V-A:ILE:369:CD1:3239, V-A:ASP:366:C:3208, V-B:TYR:539:CD2:9846, V-B:PRO:540:CD:9859, V-A:ASP:366:CB:3212, V-A:LEU:475:CD2:4259, H-A:ARG:545:NH2:4928, V-B:TYR:539:CG:9844, V-B:TYR:539:CD1:9845, H-A:TYR:484:OH:4348"]

$$$$
ZINC1867410582
     RDKit          3D

 58 59  0  0  0  0  0  0  0  0999 V2000
  125.7230  123.1630   57.3960 C   0  0  0  0  0  0  0  0  0  0  0  0
  127.3930  122.4860   57.2100 S   0  0  0  0  0  0  0  0  0  0  0  0
  127.9900  122.7020   58.9070 C   0  0  0  0  0  0  0  0  0  0  0  0
  127.8030  124.1260   59.4580 C   0  0  0  0  0  0  0  0  0  0  0  0
  126.6390  124.2840   60.4720 C   0  0  2  0  0  0  0  0  0  0  0  0
  126.4620  125.6920   60.8390 N   0  0  0  0  0  0  0  0  0  0  0  0
  127.4360  126.5220   61.2570 C   0  0  0  0  0  0  0  0  0  0  0  0
  128.6150  126.1890   61.3890 O   0  0  0  0  0  0  0  0  0  0  0  0
  126.9830  127.9180   61.5960 C   0  0  0  0  0  0  0  0  0  0  0  0
  126.1230  128.5960   60.7180 C   0  0  0  0  0  0  0  0  0  0  0  0
  125.6730  129.8820   61.0110 C   0  0  0  0  0  0  0  0  0  0  0  0
  126.0680  130.5050   62.1920 C   0  0  0  0  0  0  0  0  0  0  0  0
  126.9080  129.8390   63.0810 C   0  0  0  0  0  0  0  0  0  0  0  0
  127.3650  128.5500   62.7980 C   0  0  0  0  0  0  0  0  0  0  0  0
  128.3760  127.7800   63.9790 Cl  0  0  0  0  0  0  0  0  0  0  0  0
  126.8910  123.4710   61.7560 C   0  0  0  0  0  0  0  0  0  0  0  0
  125.9640  122.8490   62.2790 O   0  0  0  0  0  0  0  0  0  0  0  0
  128.1340  123.5260   62.2650 N   0  0  0  0  0  0  0  0  0  0  0  0
  128.5460  122.8410   63.4900 C   0  0  0  0  0  0  0  0  0  0  0  0
  129.8440  123.3950   64.1330 C   0  0  1  0  0  0  0  0  0  0  0  0
  130.0740  122.7300   65.3620 O   0  0  0  0  0  0  0  0  0  0  0  0
  131.1070  123.2060   63.2650 C   0  0  0  0  0  0  0  0  0  0  0  0
  132.1530  124.2230   63.5450 N   0  0  0  0  0  0  0  0  0  0  0  0
  132.1170  124.8960   64.8630 C   0  0  0  0  0  0  0  0  0  0  0  0
  133.7240  124.0630   62.7420 S   0  0  0  0  0  0  0  0  0  0  0  0
  134.6360  125.0830   63.2690 O   0  0  0  0  0  0  0  0  0  0  0  0
  134.1030  122.6450   62.6840 O   0  0  0  0  0  0  0  0  0  0  0  0
  133.2840  124.5580   61.0580 C   0  0  0  0  0  0  0  0  0  0  0  0
  132.1350  125.2480   60.6900 C   0  0  0  0  0  0  0  0  0  0  0  0
  132.0770  125.5010   59.3150 C   0  0  0  0  0  0  0  0  0  0  0  0
  133.1860  125.0160   58.6340 C   0  0  0  0  0  0  0  0  0  0  0  0
  134.3170  124.2400   59.6980 S   0  0  0  0  0  0  0  0  0  0  0  0
  125.4837  123.2600   58.4653 H   0  0  0  0  0  0  0  0  0  0  0  0
  125.6731  124.1524   56.9178 H   0  0  0  0  0  0  0  0  0  0  0  0
  124.9982  122.4877   56.9178 H   0  0  0  0  0  0  0  0  0  0  0  0
  127.4427  122.0043   59.5579 H   0  0  0  0  0  0  0  0  0  0  0  0
  129.0722  122.5055   58.8918 H   0  0  0  0  0  0  0  0  0  0  0  0
  128.7359  124.4244   59.9587 H   0  0  0  0  0  0  0  0  0  0  0  0
  127.5508  124.7609   58.5958 H   0  0  0  0  0  0  0  0  0  0  0  0
  125.7314  123.9051   59.9793 H   0  0  0  0  0  0  0  0  0  0  0  0
  125.5200  126.0450   60.7590 H   0  0  0  0  0  0  0  0  0  0  0  0
  125.8003  128.1063   59.7874 H   0  0  0  0  0  0  0  0  0  0  0  0
  125.0060  130.4047   60.3096 H   0  0  0  0  0  0  0  0  0  0  0  0
  125.7171  131.5217   62.4224 H   0  0  0  0  0  0  0  0  0  0  0  0
  127.2144  130.3329   64.0149 H   0  0  0  0  0  0  0  0  0  0  0  0
  128.8380  124.0690   61.7870 H   0  0  0  0  0  0  0  0  0  0  0  0
  127.7326  122.9329   64.2248 H   0  0  0  0  0  0  0  0  0  0  0  0
  128.7571  121.7987   63.2089 H   0  0  0  0  0  0  0  0  0  0  0  0
  129.6807  124.4757   64.2570 H   0  0  0  0  0  0  0  0  0  0  0  0
  130.9760  122.9050   65.6400 H   0  0  0  0  0  0  0  0  0  0  0  0
  131.5245  122.2079   63.4639 H   0  0  0  0  0  0  0  0  0  0  0  0
  130.8068  123.3193   62.2128 H   0  0  0  0  0  0  0  0  0  0  0  0
  132.1574  124.1406   65.6616 H   0  0  0  0  0  0  0  0  0  0  0  0
  132.9803  125.5717   64.9534 H   0  0  0  0  0  0  0  0  0  0  0  0
  131.1866  125.4758   64.9534 H   0  0  0  0  0  0  0  0  0  0  0  0
  131.3567  125.5609   61.4016 H   0  0  0  0  0  0  0  0  0  0  0  0
  131.2435  126.0269   58.8265 H   0  0  0  0  0  0  0  0  0  0  0  0
  133.3307  125.1123   57.5478 H   0  0  0  0  0  0  0  0  0  0  0  0
  1  2  1  0
  2  3  1  0
  3  4  1  0
  4  5  1  0
  5  6  1  0
  6  7  1  0
  7  8  2  0
  7  9  1  0
  9 10  2  0
 10 11  1  0
 11 12  2  0
 12 13  1  0
 13 14  2  0
 14 15  1  0
  5 16  1  0
 16 17  2  0
 16 18  1  0
 18 19  1  0
 19 20  1  0
 20 21  1  0
 20 22  1  0
 22 23  1  0
 23 24  1  0
 23 25  1  0
 25 26  2  0
 25 27  2  0
 25 28  1  0
 28 29  2  0
 29 30  1  0
 30 31  2  0
 31 32  1  0
 14  9  1  0
 32 28  1  0
  1 33  1  0
  1 34  1  0
  1 35  1  0
  3 36  1  0
  3 37  1  0
  4 38  1  0
  4 39  1  0
  5 40  1  6
  6 41  1  0
 10 42  1  0
 11 43  1  0
 12 44  1  0
 13 45  1  0
 18 46  1  0
 19 47  1  0
 19 48  1  0
 20 49  1  1
 21 50  1  0
 22 51  1  0
 22 52  1  0
 24 53  1  0
 24 54  1  0
 24 55  1  0
 29 56  1  0
 30 57  1  0
 31 58  1  0
M  END
>  <Binding energies>  (1) 
[-7.17]

>  <Ligand effiencies>  (1) 
[-0.20485714285714285]

>  <Interactions>  (1) 
["V-A:ILE:369:CG2:3237, V-A:ASP:366:CA:3210, V-B:PRO:540:CA:9855, V-A:ILE:369:CB:3236, V-B:ASP:366:CG:8184, V-B:ALA:541:CB:9864, H-A:ARG:545:NH1:4927, V-B:TYR:539:CE2:9848, H-B:TYR:539:N:9842, V-B:GLU:543:CG:9879, V-B:TYR:539:C:9839, V-A:ASP:366:CG:3213, H-B:GLU:543:OE1:9881, H-B:ALA:541:N:9863, V-A:GLU:543:CD:4908, V-B:PRO:540:CB:9857, H-B:ASP:366:OD1:8185, H-A:GLY:454:N:4050, V-B:PRO:540:N:9856, V-A:ILE:369:CD1:3239, V-A:ASP:366:C:3208, V-B:TYR:539:CD2:9846, V-B:PRO:540:CD:9859, V-B:GLU:543:CD:9880, V-A:ASP:366:CB:3212, V-A:LEU:475:CD2:4259, H-A:ARG:545:NH2:4928, H-A:ARG:545:NE:4924, H-A:TYR:484:OH:4348"]

$$$$
ZINC1867472458
     RDKit          3D

 68 71  0  0  0  0  0  0  0  0999 V2000
  128.7560  125.9700   63.4090 C   0  0  0  0  0  0  0  0  0  0  0  0
  129.9730  125.6440   64.3160 C   0  0  0  0  0  0  0  0  0  0  0  0
  131.2420  126.3210   63.7270 C   0  0  0  0  0  0  0  0  0  0  0  0
  129.6610  126.0430   65.7040 N   0  0  0  0  0  0  0  0  0  0  0  0
  129.0050  127.1320   66.1560 C   0  0  0  0  0  0  0  0  0  0  0  0
  128.6380  128.0670   65.4430 O   0  0  0  0  0  0  0  0  0  0  0  0
  128.7720  127.1640   67.6440 C   0  0  0  0  0  0  0  0  0  0  0  0
  127.4750  126.9730   68.1560 C   0  0  0  0  0  0  0  0  0  0  0  0
  127.2380  127.0070   69.5350 C   0  0  0  0  0  0  0  0  0  0  0  0
  128.3160  127.2190   70.3940 C   0  0  0  0  0  0  0  0  0  0  0  0
  129.5840  127.3880   69.9070 C   0  0  0  0  0  0  0  0  0  0  0  0
  129.8390  127.3710   68.5370 C   0  0  0  0  0  0  0  0  0  0  0  0
  130.4970  127.5710   71.0620 C   0  0  0  0  0  0  0  0  0  0  0  0
  131.7160  127.7430   71.0380 O   0  0  0  0  0  0  0  0  0  0  0  0
  129.6930  127.5180   72.1560 N   0  0  0  0  0  0  0  0  0  0  0  0
  130.2010  127.7050   73.5270 C   0  0  0  0  0  0  0  0  0  0  0  0
  130.9020  126.5050   74.1690 C   0  0  0  0  0  0  0  0  0  0  0  0
  132.2600  126.5860   74.4960 C   0  0  0  0  0  0  0  0  0  0  0  0
  132.8680  125.4890   75.1110 C   0  0  0  0  0  0  0  0  0  0  0  0
  132.1130  124.3480   75.3880 C   0  0  0  0  0  0  0  0  0  0  0  0
  130.7620  124.3430   75.0360 C   0  0  0  0  0  0  0  0  0  0  0  0
  130.1540  125.3980   74.4370 N   0  0  0  0  0  0  0  0  0  0  0  0
  128.3780  127.3150   71.8740 C   0  0  0  0  0  0  0  0  0  0  0  0
  127.4450  127.2310   72.6740 O   0  0  0  0  0  0  0  0  0  0  0  0
  130.2500  124.1090   64.3870 C   0  0  0  0  0  0  0  0  0  0  0  0
  130.5700  123.5790   65.4540 O   0  0  0  0  0  0  0  0  0  0  0  0
  130.0840  123.3910   63.2560 N   0  0  0  0  0  0  0  0  0  0  0  0
  130.3030  121.9540   63.1060 C   0  0  0  0  0  0  0  0  0  0  0  0
  129.3340  121.2660   62.1060 C   0  0  1  0  0  0  0  0  0  0  0  0
  128.9190  122.2410   60.9770 C   0  0  0  0  0  0  0  0  0  0  0  0
  127.6600  123.0770   61.2790 C   0  0  0  0  0  0  0  0  0  0  0  0
  127.1980  122.8300   62.5900 O   0  0  0  0  0  0  0  0  0  0  0  0
  129.8590  119.9290   61.5580 C   0  0  0  0  0  0  0  0  0  0  0  0
  130.8830  119.9290   60.6030 C   0  0  0  0  0  0  0  0  0  0  0  0
  131.3680  118.7260   60.0990 C   0  0  0  0  0  0  0  0  0  0  0  0
  130.8230  117.5220   60.5360 C   0  0  0  0  0  0  0  0  0  0  0  0
  129.8020  117.5100   61.4830 C   0  0  0  0  0  0  0  0  0  0  0  0
  129.3240  118.7120   61.9980 C   0  0  0  0  0  0  0  0  0  0  0  0
  127.8833  126.2038   64.0365 H   0  0  0  0  0  0  0  0  0  0  0  0
  128.9936  126.8362   62.7739 H   0  0  0  0  0  0  0  0  0  0  0  0
  128.5288  125.1010   62.7739 H   0  0  0  0  0  0  0  0  0  0  0  0
  131.8881  126.6657   64.5478 H   0  0  0  0  0  0  0  0  0  0  0  0
  131.7908  125.5958   63.1082 H   0  0  0  0  0  0  0  0  0  0  0  0
  130.9452  127.1806   63.1082 H   0  0  0  0  0  0  0  0  0  0  0  0
  129.8240  125.3160   66.3850 H   0  0  0  0  0  0  0  0  0  0  0  0
  126.6382  126.7950   67.4646 H   0  0  0  0  0  0  0  0  0  0  0  0
  126.2219  126.8693   69.9332 H   0  0  0  0  0  0  0  0  0  0  0  0
  130.8615  127.5176   68.1588 H   0  0  0  0  0  0  0  0  0  0  0  0
  130.9186  128.5384   73.5060 H   0  0  0  0  0  0  0  0  0  0  0  0
  129.3085  127.8834   74.1447 H   0  0  0  0  0  0  0  0  0  0  0  0
  132.8374  127.4954   74.2732 H   0  0  0  0  0  0  0  0  0  0  0  0
  133.9352  125.5240   75.3754 H   0  0  0  0  0  0  0  0  0  0  0  0
  132.5718  123.4733   75.8723 H   0  0  0  0  0  0  0  0  0  0  0  0
  130.1647  123.4453   75.2536 H   0  0  0  0  0  0  0  0  0  0  0  0
  129.7820  123.8810   62.4250 H   0  0  0  0  0  0  0  0  0  0  0  0
  131.3329  121.7965   62.7530 H   0  0  0  0  0  0  0  0  0  0  0  0
  130.1174  121.5003   64.0907 H   0  0  0  0  0  0  0  0  0  0  0  0
  128.4316  121.0033   62.6776 H   0  0  0  0  0  0  0  0  0  0  0  0
  129.7549  122.9330   60.7974 H   0  0  0  0  0  0  0  0  0  0  0  0
  128.6768  121.6190   60.1026 H   0  0  0  0  0  0  0  0  0  0  0  0
  127.9031  124.1450   61.1773 H   0  0  0  0  0  0  0  0  0  0  0  0
  126.8700  122.7952   60.5673 H   0  0  0  0  0  0  0  0  0  0  0  0
  126.7800  123.6290   62.9210 H   0  0  0  0  0  0  0  0  0  0  0  0
  131.3049  120.8818   60.2505 H   0  0  0  0  0  0  0  0  0  0  0  0
  132.1801  118.7265   59.3571 H   0  0  0  0  0  0  0  0  0  0  0  0
  131.2018  116.5724   60.1301 H   0  0  0  0  0  0  0  0  0  0  0  0
  129.3750  116.5549   61.8227 H   0  0  0  0  0  0  0  0  0  0  0  0
  128.5238  118.7056   62.7527 H   0  0  0  0  0  0  0  0  0  0  0  0
  1  2  1  0
  2  3  1  0
  2  4  1  0
  4  5  1  0
  5  6  2  0
  5  7  1  0
  7  8  2  0
  8  9  1  0
  9 10  2  0
 10 11  1  0
 11 12  2  0
 11 13  1  0
 13 14  2  0
 13 15  1  0
 15 16  1  0
 16 17  1  0
 17 18  2  0
 18 19  1  0
 19 20  2  0
 20 21  1  0
 21 22  2  0
 15 23  1  0
 23 24  2  0
  2 25  1  0
 25 26  2  0
 25 27  1  0
 27 28  1  0
 28 29  1  0
 29 30  1  0
 30 31  1  0
 31 32  1  0
 29 33  1  0
 33 34  2  0
 34 35  1  0
 35 36  2  0
 36 37  1  0
 37 38  2  0
 12  7  1  0
 22 17  1  0
 38 33  1  0
 23 10  1  0
  1 39  1  0
  1 40  1  0
  1 41  1  0
  3 42  1  0
  3 43  1  0
  3 44  1  0
  4 45  1  0
  8 46  1  0
  9 47  1  0
 12 48  1  0
 16 49  1  0
 16 50  1  0
 18 51  1  0
 19 52  1  0
 20 53  1  0
 21 54  1  0
 27 55  1  0
 28 56  1  0
 28 57  1  0
 29 58  1  1
 30 59  1  0
 30 60  1  0
 31 61  1  0
 31 62  1  0
 32 63  1  0
 34 64  1  0
 35 65  1  0
 36 66  1  0
 37 67  1  0
 38 68  1  0
M  END
>  <Binding energies>  (1) 
[-8.18]

>  <Ligand effiencies>  (1) 
[-0.1995121951219512]

>  <Interactions>  (1) 
["V-B:PRO:540:CA:9855, V-B:GLU:543:C:9874, H-A:GLU:543:OE2:4910, V-B:HIS:456:CD2:9039, V-B:GLU:543:CB:9878, H-B:LYS:547:NZ:9923, V-B:ALA:541:CB:9864, V-B:TYR:539:CE2:9848, V-A:LEU:475:CG:4257, H-B:ALA:541:O:9861, V-B:GLU:543:CG:9879, V-A:GLY:544:C:4912, V-A:HIS:456:CD2:4068, H-A:ARG:545:N:4920, H-B:GLU:543:OE1:9881, V-A:HIS:456:CB:4065, H-B:ALA:541:N:9863, V-A:LEU:475:CD1:4258, V-B:TYR:539:CB:9843, V-A:HIS:383:CE1:3393, V-A:GLU:543:CD:4908, V-B:HIS:456:CE1:9041, V-B:GLU:543:CA:9876, V-A:HIS:456:CE1:4070, V-B:GLY:544:C:9884, V-A:PRO:482:CB:4326, V-B:TYR:539:CD2:9846, V-B:GLU:543:CD:9880, V-A:LEU:475:CD2:4259, V-A:ARG:545:CZ:4926, V-B:TYR:539:CG:9844, V-A:GLU:543:CB:4906, V-A:HIS:456:CG:4066, V-A:PRO:482:CG:4327, V-B:PRO:540:C:9853, V-B:ALA:541:CA:9862, V-A:HIS:383:NE2:3394, H-A:HIS:456:ND1:4067, H-A:TYR:484:OH:4348"]

$$$$
ZINC1867516041
     RDKit          3D

 96100  0  0  0  0  0  0  0  0999 V2000
  134.2190  126.6280   74.8570 C   0  0  0  0  0  0  0  0  0  0  0  0
  133.1510  127.2760   75.5320 O   0  0  0  0  0  0  0  0  0  0  0  0
  131.9310  126.5510   75.4800 C   0  0  0  0  0  0  0  0  0  0  0  0
  131.3900  126.5870   74.0410 C   0  0  0  0  0  0  0  0  0  0  0  0
  129.8860  126.9200   73.9360 C   0  0  0  0  0  0  0  0  0  0  0  0
  129.4150  127.1690   72.5630 N   0  0  0  0  0  0  0  0  0  0  0  0
  128.4970  126.3790   71.9480 C   0  0  0  0  0  0  0  0  0  0  0  0
  127.9390  125.3820   72.4090 O   0  0  0  0  0  0  0  0  0  0  0  0
  128.3150  126.9800   70.6030 C   0  0  0  0  0  0  0  0  0  0  0  0
  127.5040  126.6040   69.5350 C   0  0  0  0  0  0  0  0  0  0  0  0
  127.5410  127.3660   68.3630 C   0  0  0  0  0  0  0  0  0  0  0  0
  128.3790  128.4970   68.2580 C   0  0  0  0  0  0  0  0  0  0  0  0
  128.4260  129.3380   67.0000 C   0  0  0  0  0  0  0  0  0  0  0  0
  128.5260  130.5650   67.0660 O   0  0  0  0  0  0  0  0  0  0  0  0
  128.3230  128.6740   65.8320 N   0  0  0  0  0  0  0  0  0  0  0  0
  128.3160  129.2760   64.4930 C   0  0  2  0  0  0  0  0  0  0  0  0
  127.7120  130.7070   64.5030 C   0  0  0  0  0  0  0  0  0  0  0  0
  128.0790  131.4930   63.2480 C   0  0  0  0  0  0  0  0  0  0  0  0
  129.4040  131.5300   62.8050 C   0  0  0  0  0  0  0  0  0  0  0  0
  129.7310  132.2310   61.6480 C   0  0  0  0  0  0  0  0  0  0  0  0
  128.7320  132.8900   60.9250 C   0  0  0  0  0  0  0  0  0  0  0  0
  129.0490  133.5980   59.7890 O   0  0  0  0  0  0  0  0  0  0  0  0
  129.1470  132.9460   58.5990 C   0  0  0  0  0  0  0  0  0  0  0  0
  128.5620  131.5400   58.6690 C   0  0  0  0  0  0  0  0  0  0  0  0
  129.6390  133.3790   57.5550 O   0  0  0  0  0  0  0  0  0  0  0  0
  127.4120  132.8690   61.3780 C   0  0  0  0  0  0  0  0  0  0  0  0
  127.0850  132.1680   62.5360 C   0  0  0  0  0  0  0  0  0  0  0  0
  127.5970  128.3410   63.4960 C   0  0  0  0  0  0  0  0  0  0  0  0
  126.3690  128.2390   63.5250 O   0  0  0  0  0  0  0  0  0  0  0  0
  128.3880  127.6670   62.6450 N   0  0  0  0  0  0  0  0  0  0  0  0
  127.9210  126.7140   61.6360 C   0  0  0  0  0  0  0  0  0  0  0  0
  128.4470  125.2420   61.7600 C   0  0  2  0  0  0  0  0  0  0  0  0
  129.8250  125.1890   62.4430 C   0  0  0  0  0  0  0  0  0  0  0  0
  130.9980  125.4180   61.7180 C   0  0  0  0  0  0  0  0  0  0  0  0
  132.2350  125.3550   62.3540 C   0  0  0  0  0  0  0  0  0  0  0  0
  132.3190  125.0560   63.7150 C   0  0  0  0  0  0  0  0  0  0  0  0
  133.5890  125.0000   64.2580 O   0  0  0  0  0  0  0  0  0  0  0  0
  133.7430  125.0900   65.6710 C   0  0  0  0  0  0  0  0  0  0  0  0
  131.1380  124.8340   64.4410 C   0  0  0  0  0  0  0  0  0  0  0  0
  129.9020  124.9040   63.8070 C   0  0  0  0  0  0  0  0  0  0  0  0
  128.5170  124.5520   60.4490 N   0  0  0  0  0  0  0  0  0  0  0  0
  127.8920  125.3050   59.3430 C   0  0  0  0  0  0  0  0  0  0  0  0
  128.0360  124.5460   58.0000 C   0  0  0  0  0  0  0  0  0  0  0  0
  127.3830  123.2370   58.0880 N   0  0  0  0  0  0  0  0  0  0  0  0
  127.5100  122.5220   56.8230 C   0  0  0  0  0  0  0  0  0  0  0  0
  128.0090  122.4730   59.1710 C   0  0  0  0  0  0  0  0  0  0  0  0
  127.8520  123.2340   60.5080 C   0  0  0  0  0  0  0  0  0  0  0  0
  129.1870  128.8450   69.3570 C   0  0  0  0  0  0  0  0  0  0  0  0
  129.1360  128.0710   70.5140 C   0  0  0  0  0  0  0  0  0  0  0  0
  129.8670  128.1990   71.8000 C   0  0  0  0  0  0  0  0  0  0  0  0
  130.6980  129.0530   72.1100 O   0  0  0  0  0  0  0  0  0  0  0  0
  134.9163  126.2049   75.5951 H   0  0  0  0  0  0  0  0  0  0  0  0
  133.8182  125.8207   74.2265 H   0  0  0  0  0  0  0  0  0  0  0  0
  134.7499  127.3564   74.2265 H   0  0  0  0  0  0  0  0  0  0  0  0
  132.1083  125.5081   75.7817 H   0  0  0  0  0  0  0  0  0  0  0  0
  131.1990  127.0045   76.1644 H   0  0  0  0  0  0  0  0  0  0  0  0
  131.9515  127.3491   73.4808 H   0  0  0  0  0  0  0  0  0  0  0  0
  131.5179  125.5744   73.6309 H   0  0  0  0  0  0  0  0  0  0  0  0
  129.3162  126.0739   74.3476 H   0  0  0  0  0  0  0  0  0  0  0  0
  129.7301  127.8534   74.4968 H   0  0  0  0  0  0  0  0  0  0  0  0
  126.8473  125.7249   69.6119 H   0  0  0  0  0  0  0  0  0  0  0  0
  126.9077  127.0798   67.5103 H   0  0  0  0  0  0  0  0  0  0  0  0
  128.2410  127.6700   65.8520 H   0  0  0  0  0  0  0  0  0  0  0  0
  129.3575  129.3915   64.1584 H   0  0  0  0  0  0  0  0  0  0  0  0
  126.6165  130.6293   64.5653 H   0  0  0  0  0  0  0  0  0  0  0  0
  128.1238  131.2427   65.3710 H   0  0  0  0  0  0  0  0  0  0  0  0
  130.1881  131.0053   63.3706 H   0  0  0  0  0  0  0  0  0  0  0  0
  130.7747  132.2666   61.3025 H   0  0  0  0  0  0  0  0  0  0  0  0
  128.4396  131.2458   59.7218 H   0  0  0  0  0  0  0  0  0  0  0  0
  127.5829  131.5249   58.1678 H   0  0  0  0  0  0  0  0  0  0  0  0
  129.2414  130.8348   58.1678 H   0  0  0  0  0  0  0  0  0  0  0  0
  126.6303  133.4059   60.8206 H   0  0  0  0  0  0  0  0  0  0  0  0
  126.0437  132.1459   62.8900 H   0  0  0  0  0  0  0  0  0  0  0  0
  129.3870  127.8000   62.7060 H   0  0  0  0  0  0  0  0  0  0  0  0
  126.8229  126.6812   61.6916 H   0  0  0  0  0  0  0  0  0  0  0  0
  128.3221  127.0846   60.6811 H   0  0  0  0  0  0  0  0  0  0  0  0
  127.7143  124.7122   62.3865 H   0  0  0  0  0  0  0  0  0  0  0  0
  130.9437  125.6483   60.6437 H   0  0  0  0  0  0  0  0  0  0  0  0
  133.1539  125.5424   61.7791 H   0  0  0  0  0  0  0  0  0  0  0  0
  132.8943  124.5940   66.1647 H   0  0  0  0  0  0  0  0  0  0  0  0
  134.6800  124.5973   65.9698 H   0  0  0  0  0  0  0  0  0  0  0  0
  133.7736  126.1482   65.9698 H   0  0  0  0  0  0  0  0  0  0  0  0
  131.1904  124.6038   65.5154 H   0  0  0  0  0  0  0  0  0  0  0  0
  128.9807  124.7339   64.3835 H   0  0  0  0  0  0  0  0  0  0  0  0
  126.8235  125.4461   59.5632 H   0  0  0  0  0  0  0  0  0  0  0  0
  128.3995  126.2766   59.2513 H   0  0  0  0  0  0  0  0  0  0  0  0
  127.5658  125.1338   57.1978 H   0  0  0  0  0  0  0  0  0  0  0  0
  129.1043  124.4011   57.7814 H   0  0  0  0  0  0  0  0  0  0  0  0
  127.6992  121.4567   57.0213 H   0  0  0  0  0  0  0  0  0  0  0  0
  126.5790  122.6280   56.2468 H   0  0  0  0  0  0  0  0  0  0  0  0
  128.3476  122.9421   56.2468 H   0  0  0  0  0  0  0  0  0  0  0  0
  127.5236  121.4892   59.2517 H   0  0  0  0  0  0  0  0  0  0  0  0
  129.0788  122.3418   58.9514 H   0  0  0  0  0  0  0  0  0  0  0  0
  126.7816  123.3802   60.7150 H   0  0  0  0  0  0  0  0  0  0  0  0
  128.3216  122.6403   61.3061 H   0  0  0  0  0  0  0  0  0  0  0  0
  129.8521  129.7195   69.3026 H   0  0  0  0  0  0  0  0  0  0  0  0
  1  2  1  0
  2  3  1  0
  3  4  1  0
  4  5  1  0
  5  6  1  0
  6  7  1  0
  7  8  2  0
  7  9  1  0
  9 10  2  0
 10 11  1  0
 11 12  2  0
 12 13  1  0
 13 14  2  0
 13 15  1  0
 15 16  1  0
 16 17  1  0
 17 18  1  0
 18 19  2  0
 19 20  1  0
 20 21  2  0
 21 22  1  0
 22 23  1  0
 23 24  1  0
 23 25  2  0
 21 26  1  0
 26 27  2  0
 16 28  1  0
 28 29  2  0
 28 30  1  0
 30 31  1  0
 31 32  1  0
 32 33  1  0
 33 34  2  0
 34 35  1  0
 35 36  2  0
 36 37  1  0
 37 38  1  0
 36 39  1  0
 39 40  2  0
 32 41  1  0
 41 42  1  0
 42 43  1  0
 43 44  1  0
 44 45  1  0
 44 46  1  0
 46 47  1  0
 12 48  1  0
 48 49  2  0
 49 50  1  0
 50 51  2  0
 50  6  1  0
 49  9  1  0
 27 18  1  0
 40 33  1  0
 47 41  1  0
  1 52  1  0
  1 53  1  0
  1 54  1  0
  3 55  1  0
  3 56  1  0
  4 57  1  0
  4 58  1  0
  5 59  1  0
  5 60  1  0
 10 61  1  0
 11 62  1  0
 15 63  1  0
 16 64  1  6
 17 65  1  0
 17 66  1  0
 19 67  1  0
 20 68  1  0
 24 69  1  0
 24 70  1  0
 24 71  1  0
 26 72  1  0
 27 73  1  0
 30 74  1  0
 31 75  1  0
 31 76  1  0
 32 77  1  1
 34 78  1  0
 35 79  1  0
 38 80  1  0
 38 81  1  0
 38 82  1  0
 39 83  1  0
 40 84  1  0
 42 85  1  0
 42 86  1  0
 43 87  1  0
 43 88  1  0
 45 89  1  0
 45 90  1  0
 45 91  1  0
 46 92  1  0
 46 93  1  0
 47 94  1  0
 47 95  1  0
 48 96  1  0
M  END
>  <Binding energies>  (1) 
[-11.26]

>  <Ligand effiencies>  (1) 
[-0.21245283018867925]

>  <Interactions>  (1) 
["V-B:PRO:540:CA:9855, V-A:GLU:543:CA:4904, V-A:GLY:454:CA:4049, V-B:GLU:543:C:9874, H-A:GLU:543:OE2:4910, V-B:HIS:456:CD2:9039, V-A:GLU:543:C:4902, V-B:GLU:543:CB:9878, H-B:LYS:547:NZ:9923, H-A:ARG:545:NH1:4927, V-B:TYR:539:CE2:9848, V-B:GLU:543:CG:9879, V-B:TYR:539:C:9839, V-A:HIS:456:CD2:4068, V-A:TYR:539:CD1:4873, V-B:TYR:539:CZ:9849, V-A:LYS:547:CG:4948, V-A:HIS:456:CB:4065, V-A:GLU:543:CD:4908, H-B:TYR:484:OH:9319, V-B:HIS:456:CE1:9041, H-A:GLY:454:N:4050, V-B:GLU:543:CA:9876, V-A:ARG:545:CG:4922, V-B:PRO:540:N:9856, V-B:GLY:544:C:9884, V-B:TYR:539:CD2:9846, V-A:GLU:543:CG:4907, V-B:GLU:543:CD:9880, V-A:TYR:539:C:4867, V-A:ARG:545:CD:4923, H-A:LYS:547:NZ:4951, H-A:ARG:545:NH2:4928, V-A:ARG:545:CZ:4926, H-A:GLU:543:OE1:4909, V-B:TYR:539:CG:9844, H-B:ARG:545:NH2:9900, V-A:GLU:543:CB:4906, V-A:HIS:456:CG:4066, V-B:TYR:539:CD1:9845, V-A:PRO:540:N:4884, H-A:TYR:539:N:4870, H-B:GLU:543:OE2:9882, V-A:PRO:540:CA:4883, H-A:ARG:545:NE:4924, V-B:TYR:539:CE1:9847, H-A:TYR:484:OH:4348"]

$$$$
ZINC1867516041-again1
     RDKit          3D

 97101  0  0  0  0  0  0  0  0999 V2000
  134.6370  126.5810   74.9260 C   0  0  0  0  0  0  0  0  0  0  0  0
  133.4450  127.2690   75.2750 O   0  0  0  0  0  0  0  0  0  0  0  0
  132.2740  126.4780   75.1320 C   0  0  0  0  0  0  0  0  0  0  0  0
  131.6740  126.6940   73.7320 C   0  0  0  0  0  0  0  0  0  0  0  0
  130.1410  126.8880   73.7060 C   0  0  0  0  0  0  0  0  0  0  0  0
  129.5870  127.1690   72.3710 N   0  0  0  0  0  0  0  0  0  0  0  0
  128.6240  126.3980   71.8010 C   0  0  0  0  0  0  0  0  0  0  0  0
  128.0830  125.4010   72.2810 O   0  0  0  0  0  0  0  0  0  0  0  0
  128.3720  127.0190   70.4770 C   0  0  0  0  0  0  0  0  0  0  0  0
  127.4950  126.6650   69.4530 C   0  0  0  0  0  0  0  0  0  0  0  0
  127.4810  127.4370   68.2880 C   0  0  0  0  0  0  0  0  0  0  0  0
  128.3300  128.5510   68.1420 C   0  0  0  0  0  0  0  0  0  0  0  0
  128.3200  129.3400   66.8510 C   0  0  0  0  0  0  0  0  0  0  0  0
  128.3460  130.5730   66.8710 O   0  0  0  0  0  0  0  0  0  0  0  0
  128.2820  128.6230   65.7090 N   0  0  0  0  0  0  0  0  0  0  0  0
  128.2160  129.1570   64.3400 C   0  0  2  0  0  0  0  0  0  0  0  0
  127.3690  130.4650   64.2580 C   0  0  0  0  0  0  0  0  0  0  0  0
  127.6780  131.3040   63.0210 C   0  0  0  0  0  0  0  0  0  0  0  0
  128.9900  131.7110   62.7640 C   0  0  0  0  0  0  0  0  0  0  0  0
  129.2750  132.4730   61.6350 C   0  0  0  0  0  0  0  0  0  0  0  0
  128.2490  132.8270   60.7560 C   0  0  0  0  0  0  0  0  0  0  0  0
  128.5230  133.5970   59.6480 O   0  0  0  0  0  0  0  0  0  0  0  0
  128.9590  132.9940   58.5100 C   0  0  0  0  0  0  0  0  0  0  0  0
  128.2230  131.6870   58.2380 C   0  0  0  0  0  0  0  0  0  0  0  0
  129.8370  133.4000   57.7460 O   0  0  0  0  0  0  0  0  0  0  0  0
  126.9340  132.4410   61.0230 C   0  0  0  0  0  0  0  0  0  0  0  0
  126.6490  131.6790   62.1530 C   0  0  0  0  0  0  0  0  0  0  0  0
  127.8230  128.0630   63.3100 C   0  0  0  0  0  0  0  0  0  0  0  0
  126.6410  127.8780   63.0130 O   0  0  0  0  0  0  0  0  0  0  0  0
  128.8330  127.3350   62.7980 N   0  0  0  0  0  0  0  0  0  0  0  0
  128.6470  126.2160   61.8750 C   0  0  0  0  0  0  0  0  0  0  0  0
  128.7830  126.6020   60.3690 C   0  0  2  0  0  0  0  0  0  0  0  0
  127.8730  125.7440   59.4760 C   0  0  0  0  0  0  0  0  0  0  0  0
  127.8390  124.3600   59.6530 C   0  0  0  0  0  0  0  0  0  0  0  0
  127.0190  123.5730   58.8480 C   0  0  0  0  0  0  0  0  0  0  0  0
  126.2280  124.1530   57.8580 C   0  0  0  0  0  0  0  0  0  0  0  0
  125.4560  123.2920   57.1010 O   0  0  0  0  0  0  0  0  0  0  0  0
  126.0840  122.2140   56.4160 C   0  0  0  0  0  0  0  0  0  0  0  0
  126.2610  125.5460   57.6820 C   0  0  0  0  0  0  0  0  0  0  0  0
  127.0770  126.3340   58.4880 C   0  0  0  0  0  0  0  0  0  0  0  0
  130.1860  126.5620   59.8860 N   0  0  0  0  0  0  0  0  0  0  0  0
  130.4180  127.2110   58.5810 C   0  0  0  0  0  0  0  0  0  0  0  0
  130.3050  128.7550   58.6650 C   0  0  0  0  0  0  0  0  0  0  0  0
  131.3320  129.2760   59.6990 N   0  0  0  0  0  0  0  0  0  0  0  0
  131.2100  130.8030   59.8640 C   0  0  0  0  0  0  0  0  0  0  0  0
  131.1300  128.5610   61.0550 C   0  0  0  0  0  0  0  0  0  0  0  0
  131.2280  127.0340   60.8160 C   0  0  0  0  0  0  0  0  0  0  0  0
  129.2020  128.8810   69.1980 C   0  0  0  0  0  0  0  0  0  0  0  0
  129.2010  128.1000   70.3530 C   0  0  0  0  0  0  0  0  0  0  0  0
  130.0050  128.2050   71.5960 C   0  0  0  0  0  0  0  0  0  0  0  0
  130.8640  129.0460   71.8660 O   0  0  0  0  0  0  0  0  0  0  0  0
  135.1656  126.2759   75.8411 H   0  0  0  0  0  0  0  0  0  0  0  0
  134.3855  125.6892   74.3332 H   0  0  0  0  0  0  0  0  0  0  0  0
  135.2834  127.2449   74.3332 H   0  0  0  0  0  0  0  0  0  0  0  0
  132.5313  125.4163   75.2603 H   0  0  0  0  0  0  0  0  0  0  0  0
  131.5382  126.7729   75.8946 H   0  0  0  0  0  0  0  0  0  0  0  0
  132.1396  127.5896   73.2948 H   0  0  0  0  0  0  0  0  0  0  0  0
  131.8793  125.7756   73.1624 H   0  0  0  0  0  0  0  0  0  0  0  0
  129.6712  125.9693   74.0872 H   0  0  0  0  0  0  0  0  0  0  0  0
  129.9250  127.7693   74.3279 H   0  0  0  0  0  0  0  0  0  0  0  0
  126.8282  125.7966   69.5595 H   0  0  0  0  0  0  0  0  0  0  0  0
  126.7948  127.1698   67.4709 H   0  0  0  0  0  0  0  0  0  0  0  0
  128.2820  127.6160   65.7760 H   0  0  0  0  0  0  0  0  0  0  0  0
  129.2307  129.4667   64.0495 H   0  0  0  0  0  0  0  0  0  0  0  0
  126.3038  130.1912   64.2377 H   0  0  0  0  0  0  0  0  0  0  0  0
  127.6220  131.0743   65.1382 H   0  0  0  0  0  0  0  0  0  0  0  0
  129.7982  131.4288   63.4548 H   0  0  0  0  0  0  0  0  0  0  0  0
  130.3073  132.7962   61.4351 H   0  0  0  0  0  0  0  0  0  0  0  0
  127.9552  131.2114   59.1930 H   0  0  0  0  0  0  0  0  0  0  0  0
  127.3088  131.8939   57.6624 H   0  0  0  0  0  0  0  0  0  0  0  0
  128.8740  131.0126   57.6624 H   0  0  0  0  0  0  0  0  0  0  0  0
  126.1238  132.7387   60.3412 H   0  0  0  0  0  0  0  0  0  0  0  0
  125.6137  131.3721   62.3625 H   0  0  0  0  0  0  0  0  0  0  0  0
  129.7800  127.5390   63.0800 H   0  0  0  0  0  0  0  0  0  0  0  0
  129.4021  125.4498   62.1046 H   0  0  0  0  0  0  0  0  0  0  0  0
  127.6178  125.8550   62.0179 H   0  0  0  0  0  0  0  0  0  0  0  0
  128.4491  127.6475   60.2955 H   0  0  0  0  0  0  0  0  0  0  0  0
  128.4607  123.8901   60.4294 H   0  0  0  0  0  0  0  0  0  0  0  0
  126.9955  122.4831   58.9950 H   0  0  0  0  0  0  0  0  0  0  0  0
  126.4970  121.5050   57.1486 H   0  0  0  0  0  0  0  0  0  0  0  0
  125.3441  121.6998   55.7850 H   0  0  0  0  0  0  0  0  0  0  0  0
  126.8962  122.6040   55.7850 H   0  0  0  0  0  0  0  0  0  0  0  0
  125.6400  126.0155   56.9048 H   0  0  0  0  0  0  0  0  0  0  0  0
  127.0963  127.4249   58.3479 H   0  0  0  0  0  0  0  0  0  0  0  0
  131.4267  126.9485   58.2294 H   0  0  0  0  0  0  0  0  0  0  0  0
  129.6450  126.8538   57.8847 H   0  0  0  0  0  0  0  0  0  0  0  0
  130.5171  129.1952   57.6795 H   0  0  0  0  0  0  0  0  0  0  0  0
  129.2880  129.0385   58.9736 H   0  0  0  0  0  0  0  0  0  0  0  0
  132.2570  129.0490   59.3610 H   0  0  0  0  0  0  0  0  0  0  0  0
  131.1898  131.0557   60.9344 H   0  0  0  0  0  0  0  0  0  0  0  0
  132.0718  131.2933   59.3877 H   0  0  0  0  0  0  0  0  0  0  0  0
  130.2813  131.1502   59.3877 H   0  0  0  0  0  0  0  0  0  0  0  0
  131.9100  128.8779   61.7629 H   0  0  0  0  0  0  0  0  0  0  0  0
  130.1471  128.8173   61.4771 H   0  0  0  0  0  0  0  0  0  0  0  0
  132.2162  126.8017   60.3924 H   0  0  0  0  0  0  0  0  0  0  0  0
  131.0843  126.5250   61.7805 H   0  0  0  0  0  0  0  0  0  0  0  0
  129.8765  129.7457   69.1123 H   0  0  0  0  0  0  0  0  0  0  0  0
  1  2  1  0
  2  3  1  0
  3  4  1  0
  4  5  1  0
  5  6  1  0
  6  7  1  0
  7  8  2  0
  7  9  1  0
  9 10  2  0
 10 11  1  0
 11 12  2  0
 12 13  1  0
 13 14  2  0
 13 15  1  0
 15 16  1  0
 16 17  1  0
 17 18  1  0
 18 19  2  0
 19 20  1  0
 20 21  2  0
 21 22  1  0
 22 23  1  0
 23 24  1  0
 23 25  2  0
 21 26  1  0
 26 27  2  0
 16 28  1  0
 28 29  2  0
 28 30  1  0
 30 31  1  0
 31 32  1  0
 32 33  1  0
 33 34  2  0
 34 35  1  0
 35 36  2  0
 36 37  1  0
 37 38  1  0
 36 39  1  0
 39 40  2  0
 32 41  1  0
 41 42  1  0
 42 43  1  0
 43 44  1  0
 44 45  1  0
 44 46  1  0
 46 47  1  0
 12 48  1  0
 48 49  2  0
 49 50  1  0
 50 51  2  0
 50  6  1  0
 49  9  1  0
 27 18  1  0
 40 33  1  0
 47 41  1  0
  1 52  1  0
  1 53  1  0
  1 54  1  0
  3 55  1  0
  3 56  1  0
  4 57  1  0
  4 58  1  0
  5 59  1  0
  5 60  1  0
 10 61  1  0
 11 62  1  0
 15 63  1  0
 16 64  1  6
 17 65  1  0
 17 66  1  0
 19 67  1  0
 20 68  1  0
 24 69  1  0
 24 70  1  0
 24 71  1  0
 26 72  1  0
 27 73  1  0
 30 74  1  0
 31 75  1  0
 31 76  1  0
 32 77  1  1
 34 78  1  0
 35 79  1  0
 38 80  1  0
 38 81  1  0
 38 82  1  0
 39 83  1  0
 40 84  1  0
 42 85  1  0
 42 86  1  0
 43 87  1  0
 43 88  1  0
 44 89  1  0
 45 90  1  0
 45 91  1  0
 45 92  1  0
 46 93  1  0
 46 94  1  0
 47 95  1  0
 47 96  1  0
 48 97  1  0
M  CHG  1  44   1
M  END
>  <Binding energies>  (1) 
[-10.98]

>  <Ligand effiencies>  (1) 
[-0.20333333333333334]

>  <Interactions>  (1) 
["V-B:PRO:540:CA:9855, V-A:GLU:543:CA:4904, V-B:GLU:543:C:9874, H-A:GLU:543:OE2:4910, V-A:GLU:543:C:4902, V-B:GLU:543:CB:9878, H-B:LYS:547:NZ:9923, V-A:GLY:544:C:4912, V-B:TYR:539:C:9839, V-A:HIS:456:CD2:4068, V-A:ASP:366:CG:3213, V-A:VAL:457:C:4073, V-A:TYR:539:CD1:4873, V-A:LYS:547:CG:4948, V-B:ILE:538:CG2:9835, V-A:HIS:456:CB:4065, V-A:GLU:543:CD:4908, V-B:PRO:540:CB:9857, H-B:TYR:484:OH:9319, V-B:HIS:456:CE1:9041, V-B:GLU:543:CA:9876, V-B:PRO:540:N:9856, V-B:GLY:544:C:9884, V-B:PRO:540:CD:9859, V-A:GLU:543:CG:4907, V-B:GLU:543:CD:9880, V-A:TYR:539:C:4867, H-A:LYS:547:NZ:4951, V-A:HIS:456:C:4061, H-A:GLU:543:OE1:4909, H-B:ARG:545:NH2:9900, V-A:GLU:543:CB:4906, V-A:HIS:456:CG:4066, V-A:ARG:545:C:4917, V-A:PRO:540:N:4884, H-A:TYR:539:N:4870, H-B:GLU:543:OE2:9882, V-A:PRO:540:CA:4883, V-B:MET:535:CE:9807, H-A:ASP:366:OD2:3215, H-A:GLY:544:N:4915, V-A:TYR:539:CE1:4875"]

$$$$
ZINC1867784211
     RDKit          3D

 80 84  0  0  0  0  0  0  0  0999 V2000
  129.6380  124.6800   66.7230 O   0  0  0  0  0  0  0  0  0  0  0  0
  129.6190  125.9070   66.8420 C   0  0  0  0  0  0  0  0  0  0  0  0
  129.4520  126.7370   65.7920 N   0  0  0  0  0  0  0  0  0  0  0  0
  129.3260  126.3290   64.3900 C   0  0  1  0  0  0  0  0  0  0  0  0
  128.4940  127.3580   63.5860 C   0  0  0  0  0  0  0  0  0  0  0  0
  128.2690  126.8890   61.8370 S   0  0  0  0  0  0  0  0  0  0  0  0
  128.3770  125.0700   61.8800 C   0  0  0  0  0  0  0  0  0  0  0  0
  127.8850  124.4220   60.5940 C   0  0  0  0  0  0  0  0  0  0  0  0
  126.5200  124.1940   60.4050 C   0  0  0  0  0  0  0  0  0  0  0  0
  126.0710  123.6020   59.2270 C   0  0  0  0  0  0  0  0  0  0  0  0
  126.9890  123.2340   58.2450 C   0  0  0  0  0  0  0  0  0  0  0  0
  128.3520  123.4520   58.4310 C   0  0  0  0  0  0  0  0  0  0  0  0
  128.8020  124.0460   59.6080 C   0  0  0  0  0  0  0  0  0  0  0  0
  130.7330  126.1260   63.7890 C   0  0  0  0  0  0  0  0  0  0  0  0
  131.0630  126.7550   62.7800 O   0  0  0  0  0  0  0  0  0  0  0  0
  131.5250  125.2340   64.4070 N   0  0  0  0  0  0  0  0  0  0  0  0
  132.8870  124.9140   63.9810 C   0  0  0  0  0  0  0  0  0  0  0  0
  133.0810  123.4940   63.3810 C   0  0  1  0  0  0  0  0  0  0  0  0
  131.8020  122.8210   62.8780 C   0  0  0  0  0  0  0  0  0  0  0  0
  130.6700  122.7730   63.6990 C   0  0  0  0  0  0  0  0  0  0  0  0
  129.5070  122.1580   63.2460 C   0  0  0  0  0  0  0  0  0  0  0  0
  129.4740  121.5940   61.9730 C   0  0  0  0  0  0  0  0  0  0  0  0
  128.3420  121.0000   61.5310 F   0  0  0  0  0  0  0  0  0  0  0  0
  130.5950  121.6380   61.1490 C   0  0  0  0  0  0  0  0  0  0  0  0
  131.7610  122.2510   61.6010 C   0  0  0  0  0  0  0  0  0  0  0  0
  134.4020  123.5390   62.0190 S   0  0  0  0  0  0  0  0  0  0  0  0
  135.4820  124.4360   62.4460 O   0  0  0  0  0  0  0  0  0  0  0  0
  134.6850  122.1690   61.5730 O   0  0  0  0  0  0  0  0  0  0  0  0
  133.5430  124.3830   60.6690 C   0  0  0  0  0  0  0  0  0  0  0  0
  132.5590  125.3510   60.8290 C   0  0  0  0  0  0  0  0  0  0  0  0
  132.0530  125.8120   59.6090 C   0  0  0  0  0  0  0  0  0  0  0  0
  132.6480  125.1930   58.5160 C   0  0  0  0  0  0  0  0  0  0  0  0
  133.8430  124.0300   58.9940 S   0  0  0  0  0  0  0  0  0  0  0  0
  129.8170  126.5580   68.1950 C   0  0  0  0  0  0  0  0  0  0  0  0
  130.8810  127.4310   68.4500 C   0  0  0  0  0  0  0  0  0  0  0  0
  131.0470  127.9990   69.7080 C   0  0  0  0  0  0  0  0  0  0  0  0
  130.1590  127.7280   70.7600 C   0  0  0  0  0  0  0  0  0  0  0  0
  130.4150  128.2490   72.0440 N   0  0  0  0  0  0  0  0  0  0  0  0
  130.7150  127.4390   73.2290 C   0  0  0  0  0  0  0  0  0  0  0  0
  129.4610  127.3120   74.0910 C   0  0  0  0  0  0  0  0  0  0  0  0
  128.6280  128.5190   73.6930 C   0  0  0  0  0  0  0  0  0  0  0  0
  129.4730  129.2120   72.6240 C   0  0  0  0  0  0  0  0  0  0  0  0
  129.0770  126.8450   70.5180 C   0  0  0  0  0  0  0  0  0  0  0  0
  128.0390  126.5430   71.5390 N   0  0  0  0  0  0  0  0  0  0  0  0
  127.0170  127.2200   71.5770 O   0  0  0  0  0  0  0  0  0  0  0  0
  128.2230  125.5830   72.2830 O   0  0  0  0  0  0  0  0  0  0  0  0
  128.9220  126.2900   69.2390 C   0  0  0  0  0  0  0  0  0  0  0  0
  129.4530  127.7330   65.9550 H   0  0  0  0  0  0  0  0  0  0  0  0
  128.7840  125.3735   64.3335 H   0  0  0  0  0  0  0  0  0  0  0  0
  127.5027  127.4487   64.0542 H   0  0  0  0  0  0  0  0  0  0  0  0
  129.0462  128.3092   63.6015 H   0  0  0  0  0  0  0  0  0  0  0  0
  129.4270  124.7835   62.0391 H   0  0  0  0  0  0  0  0  0  0  0  0
  127.7309  124.7180   62.6977 H   0  0  0  0  0  0  0  0  0  0  0  0
  125.8004  124.4817   61.1857 H   0  0  0  0  0  0  0  0  0  0  0  0
  124.9963  123.4256   59.0723 H   0  0  0  0  0  0  0  0  0  0  0  0
  126.6338  122.7671   57.3145 H   0  0  0  0  0  0  0  0  0  0  0  0
  129.0700  123.1564   57.6519 H   0  0  0  0  0  0  0  0  0  0  0  0
  129.8774  124.2190   59.7614 H   0  0  0  0  0  0  0  0  0  0  0  0
  131.1790  124.7530   65.2250 H   0  0  0  0  0  0  0  0  0  0  0  0
  133.1855  125.6484   63.2184 H   0  0  0  0  0  0  0  0  0  0  0  0
  133.5046  124.9457   64.8907 H   0  0  0  0  0  0  0  0  0  0  0  0
  133.4163  122.8632   64.2174 H   0  0  0  0  0  0  0  0  0  0  0  0
  130.6995  123.2216   64.7029 H   0  0  0  0  0  0  0  0  0  0  0  0
  128.6169  122.1174   63.8910 H   0  0  0  0  0  0  0  0  0  0  0  0
  130.5601  121.1904   60.1448 H   0  0  0  0  0  0  0  0  0  0  0  0
  132.6498  122.2870   60.9539 H   0  0  0  0  0  0  0  0  0  0  0  0
  132.2153  125.7152   61.8084 H   0  0  0  0  0  0  0  0  0  0  0  0
  131.2702  126.5801   59.5240 H   0  0  0  0  0  0  0  0  0  0  0  0
  132.3910  125.4148   57.4697 H   0  0  0  0  0  0  0  0  0  0  0  0
  131.5933  127.6701   67.6466 H   0  0  0  0  0  0  0  0  0  0  0  0
  131.8951  128.6773   69.8829 H   0  0  0  0  0  0  0  0  0  0  0  0
  131.0464  126.4384   72.9146 H   0  0  0  0  0  0  0  0  0  0  0  0
  131.5123  127.9237   73.8116 H   0  0  0  0  0  0  0  0  0  0  0  0
  128.9264  126.3763   73.8706 H   0  0  0  0  0  0  0  0  0  0  0  0
  129.6843  127.2839   75.1677 H   0  0  0  0  0  0  0  0  0  0  0  0
  127.6568  128.2061   73.2822 H   0  0  0  0  0  0  0  0  0  0  0  0
  128.3990  129.1761   74.5449 H   0  0  0  0  0  0  0  0  0  0  0  0
  128.8155  129.6030   71.8336 H   0  0  0  0  0  0  0  0  0  0  0  0
  130.0322  130.0421   73.0803 H   0  0  0  0  0  0  0  0  0  0  0  0
  128.0690  125.6219   69.0494 H   0  0  0  0  0  0  0  0  0  0  0  0
  1  2  2  0
  2  3  1  0
  3  4  1  0
  4  5  1  0
  5  6  1  0
  6  7  1  0
  7  8  1  0
  8  9  2  0
  9 10  1  0
 10 11  2  0
 11 12  1  0
 12 13  2  0
  4 14  1  0
 14 15  2  0
 14 16  1  0
 16 17  1  0
 17 18  1  0
 18 19  1  0
 19 20  2  0
 20 21  1  0
 21 22  2  0
 22 23  1  0
 22 24  1  0
 24 25  2  0
 18 26  1  0
 26 27  2  0
 26 28  2  0
 26 29  1  0
 29 30  2  0
 30 31  1  0
 31 32  2  0
 32 33  1  0
  2 34  1  0
 34 35  2  0
 35 36  1  0
 36 37  2  0
 37 38  1  0
 38 39  1  0
 39 40  1  0
 40 41  1  0
 41 42  1  0
 37 43  1  0
 43 44  1  0
 44 45  2  0
 44 46  1  0
 43 47  2  0
 13  8  1  0
 25 19  1  0
 33 29  1  0
 47 34  1  0
 42 38  1  0
  3 48  1  0
  4 49  1  1
  5 50  1  0
  5 51  1  0
  7 52  1  0
  7 53  1  0
  9 54  1  0
 10 55  1  0
 11 56  1  0
 12 57  1  0
 13 58  1  0
 16 59  1  0
 17 60  1  0
 17 61  1  0
 18 62  1  1
 20 63  1  0
 21 64  1  0
 24 65  1  0
 25 66  1  0
 30 67  1  0
 31 68  1  0
 32 69  1  0
 35 70  1  0
 36 71  1  0
 39 72  1  0
 39 73  1  0
 40 74  1  0
 40 75  1  0
 41 76  1  0
 41 77  1  0
 42 78  1  0
 42 79  1  0
 47 80  1  0
M  CHG  2  44   1  46  -1
M  END
>  <Binding energies>  (1) 
[-10.25]

>  <Ligand effiencies>  (1) 
[-0.20918367346938777]

>  <Interactions>  (1) 
["V-A:ILE:369:CG2:3237, V-A:ASP:366:CA:3210, V-B:PRO:540:CA:9855, V-A:GLY:454:CA:4049, V-B:GLU:543:C:9874, H-A:GLU:543:OE2:4910, V-A:GLU:543:C:4902, V-B:HIS:456:CD2:9039, V-A:ILE:369:CB:3236, V-B:GLU:543:CB:9878, H-B:LYS:547:NZ:9923, V-B:ALA:541:CB:9864, H-A:ARG:545:NH1:4927, V-B:TYR:539:CE2:9848, V-B:GLU:543:CG:9879, V-A:GLY:544:C:4912, V-B:TYR:539:C:9839, V-A:HIS:456:CD2:4068, V-A:ASP:366:CG:3213, H-B:HIS:456:ND1:9038, V-B:TYR:539:CZ:9849, V-A:GLU:543:CD:4908, V-B:PRO:540:CB:9857, V-A:ARG:545:CG:4922, H-A:GLY:454:N:4050, V-B:GLU:543:CA:9876, V-B:PRO:540:N:9856, V-A:HIS:456:CE1:4070, V-A:ILE:369:CD1:3239, V-B:GLY:544:C:9884, V-B:GLY:544:CA:9886, V-B:TYR:539:CD2:9846, V-B:GLU:543:CD:9880, V-A:ASP:366:CB:3212, V-A:LEU:475:CD2:4259, H-A:ARG:545:NH2:4928, V-A:ARG:545:CZ:4926, H-A:GLU:543:OE1:4909, V-A:GLU:543:CB:4906, H-B:GLU:543:OE2:9882, V-B:PRO:540:C:9853, V-B:ALA:541:CA:9862, H-A:TYR:484:OH:4348"]

$$$$
ZINC1867813473
     RDKit          3D

 60 62  0  0  0  0  0  0  0  0999 V2000
  127.5170  123.1020   58.3880 C   0  0  0  0  0  0  0  0  0  0  0  0
  127.7050  124.4070   59.1890 C   0  0  0  0  0  0  0  0  0  0  0  0
  126.8700  124.5670   60.5050 C   0  0  2  0  0  0  0  0  0  0  0  0
  125.3850  124.1780   60.2450 C   0  0  0  0  0  0  0  0  0  0  0  0
  126.9190  125.9510   61.0290 N   0  0  0  0  0  0  0  0  0  0  0  0
  126.8310  127.1180   60.3580 C   0  0  0  0  0  0  0  0  0  0  0  0
  126.7110  127.2020   59.1360 O   0  0  0  0  0  0  0  0  0  0  0  0
  126.9050  128.3570   61.2160 C   0  0  0  0  0  0  0  0  0  0  0  0
  126.0880  128.4840   62.3520 C   0  0  0  0  0  0  0  0  0  0  0  0
  126.1590  129.6200   63.1560 C   0  0  0  0  0  0  0  0  0  0  0  0
  127.0510  130.6430   62.8430 C   0  0  0  0  0  0  0  0  0  0  0  0
  127.1160  131.7420   63.6270 F   0  0  0  0  0  0  0  0  0  0  0  0
  127.8740  130.5300   61.7230 C   0  0  0  0  0  0  0  0  0  0  0  0
  128.7440  131.5230   61.4240 F   0  0  0  0  0  0  0  0  0  0  0  0
  127.8070  129.3940   60.9120 C   0  0  0  0  0  0  0  0  0  0  0  0
  128.6310  129.3090   59.8390 F   0  0  0  0  0  0  0  0  0  0  0  0
  127.4820  123.6790   61.6390 C   0  0  0  0  0  0  0  0  0  0  0  0
  126.8650  122.6960   62.0580 O   0  0  0  0  0  0  0  0  0  0  0  0
  128.7050  124.0040   62.1150 N   0  0  0  0  0  0  0  0  0  0  0  0
  129.4180  123.3420   63.2080 C   0  0  0  0  0  0  0  0  0  0  0  0
  130.4800  124.2560   63.8740 C   0  0  1  0  0  0  0  0  0  0  0  0
  131.8970  124.1700   63.2960 C   0  0  0  0  0  0  0  0  0  0  0  0
  132.1720  123.5000   62.0960 C   0  0  0  0  0  0  0  0  0  0  0  0
  133.4800  123.4550   61.6080 C   0  0  0  0  0  0  0  0  0  0  0  0
  134.4830  124.0940   62.3380 C   0  0  0  0  0  0  0  0  0  0  0  0
  134.2430  124.7540   63.4990 N   0  0  0  0  0  0  0  0  0  0  0  0
  132.9660  124.7840   63.9590 C   0  0  0  0  0  0  0  0  0  0  0  0
  129.8550  126.0530   63.9230 S   0  0  0  0  0  0  0  0  0  0  0  0
  130.9610  126.9400   63.5450 O   0  0  0  0  0  0  0  0  0  0  0  0
  128.5830  126.1200   63.1930 O   0  0  0  0  0  0  0  0  0  0  0  0
  129.4840  126.3680   65.6500 C   0  0  0  0  0  0  0  0  0  0  0  0
  128.7300  127.4890   66.0040 C   0  0  0  0  0  0  0  0  0  0  0  0
  128.4310  127.7300   67.3420 C   0  0  0  0  0  0  0  0  0  0  0  0
  128.8910  126.8520   68.3220 C   0  0  0  0  0  0  0  0  0  0  0  0
  128.5180  127.1490   69.9810 Cl  0  0  0  0  0  0  0  0  0  0  0  0
  129.6500  125.7360   67.9740 C   0  0  0  0  0  0  0  0  0  0  0  0
  129.9500  125.4930   66.6360 C   0  0  0  0  0  0  0  0  0  0  0  0
  127.3955  122.2589   59.0840 H   0  0  0  0  0  0  0  0  0  0  0  0
  126.6217  123.1864   57.7544 H   0  0  0  0  0  0  0  0  0  0  0  0
  128.3997  122.9303   57.7544 H   0  0  0  0  0  0  0  0  0  0  0  0
  128.7684  124.4776   59.4614 H   0  0  0  0  0  0  0  0  0  0  0  0
  127.3397  125.2029   58.5234 H   0  0  0  0  0  0  0  0  0  0  0  0
  124.8678  124.0425   61.2063 H   0  0  0  0  0  0  0  0  0  0  0  0
  124.8915  124.9772   59.6725 H   0  0  0  0  0  0  0  0  0  0  0  0
  125.3466  123.2395   59.6725 H   0  0  0  0  0  0  0  0  0  0  0  0
  126.9480  126.0130   62.0360 H   0  0  0  0  0  0  0  0  0  0  0  0
  125.3849  127.6782   62.6095 H   0  0  0  0  0  0  0  0  0  0  0  0
  125.5095  129.7090   64.0393 H   0  0  0  0  0  0  0  0  0  0  0  0
  129.1980  124.7610   61.6630 H   0  0  0  0  0  0  0  0  0  0  0  0
  128.6868  123.0387   63.9717 H   0  0  0  0  0  0  0  0  0  0  0  0
  129.9464  122.4763   62.7822 H   0  0  0  0  0  0  0  0  0  0  0  0
  130.5958  123.8648   64.8956 H   0  0  0  0  0  0  0  0  0  0  0  0
  131.3592  123.0105   61.5395 H   0  0  0  0  0  0  0  0  0  0  0  0
  133.7138  122.9286   60.6709 H   0  0  0  0  0  0  0  0  0  0  0  0
  135.5138  124.0612   61.9553 H   0  0  0  0  0  0  0  0  0  0  0  0
  132.7613  125.3171   64.8991 H   0  0  0  0  0  0  0  0  0  0  0  0
  128.3729  128.1805   65.2266 H   0  0  0  0  0  0  0  0  0  0  0  0
  127.8342  128.6097   67.6248 H   0  0  0  0  0  0  0  0  0  0  0  0
  130.0109  125.0493   68.7538 H   0  0  0  0  0  0  0  0  0  0  0  0
  130.5515  124.6157   66.3558 H   0  0  0  0  0  0  0  0  0  0  0  0
  1  2  1  0
  2  3  1  0
  3  4  1  0
  3  5  1  1
  5  6  1  0
  6  7  2  0
  6  8  1  0
  8  9  2  0
  9 10  1  0
 10 11  2  0
 11 12  1  0
 11 13  1  0
 13 14  1  0
 13 15  2  0
 15 16  1  0
  3 17  1  0
 17 18  2  0
 17 19  1  0
 19 20  1  0
 20 21  1  0
 21 22  1  0
 22 23  2  0
 23 24  1  0
 24 25  2  0
 25 26  1  0
 26 27  2  0
 21 28  1  0
 28 29  2  0
 28 30  2  0
 28 31  1  0
 31 32  2  0
 32 33  1  0
 33 34  2  0
 34 35  1  0
 34 36  1  0
 36 37  2  0
 15  8  1  0
 27 22  1  0
 37 31  1  0
  1 38  1  0
  1 39  1  0
  1 40  1  0
  2 41  1  0
  2 42  1  0
  4 43  1  0
  4 44  1  0
  4 45  1  0
  5 46  1  0
  9 47  1  0
 10 48  1  0
 19 49  1  0
 20 50  1  0
 20 51  1  0
 21 52  1  1
 23 53  1  0
 24 54  1  0
 25 55  1  0
 27 56  1  0
 32 57  1  0
 33 58  1  0
 36 59  1  0
 37 60  1  0
M  END
>  <Binding energies>  (1) 
[-7.61]

>  <Ligand effiencies>  (1) 
[-0.19512820512820514]

>  <Interactions>  (1) 
["V-B:PRO:540:CA:9855, V-B:GLU:543:CB:9878, H-A:ARG:545:NH1:4927, V-B:TYR:539:CE2:9848, V-B:GLU:543:CG:9879, V-B:TYR:539:C:9839, H-B:GLU:543:OE1:9881, H-B:ALA:541:N:9863, V-A:GLU:543:CD:4908, V-B:PRO:540:CB:9857, H-B:ASP:366:OD1:8185, V-B:HIS:456:CE1:9041, H-A:GLY:454:N:4050, V-B:GLU:543:CA:9876, V-A:GLY:453:C:4042, V-B:PRO:540:N:9856, V-A:ILE:369:CD1:3239, V-A:HIS:456:CE1:4070, V-B:GLU:543:CD:9880, H-A:ARG:545:NH2:4928, V-A:ARG:545:CZ:4926, H-B:GLU:543:OE2:9882, V-A:GLY:453:CA:4044"]

$$$$
ZINC1867855778
     RDKit          3D

 67 69  0  0  0  0  0  0  0  0999 V2000
  130.3700  128.0290   69.8980 C   0  0  0  0  0  0  0  0  0  0  0  0
  128.9860  127.4140   70.0630 C   0  0  0  0  0  0  0  0  0  0  0  0
  128.3030  127.6410   71.0640 O   0  0  0  0  0  0  0  0  0  0  0  0
  128.6500  126.6270   69.0060 O   0  0  0  0  0  0  0  0  0  0  0  0
  128.5460  127.1870   67.7540 C   0  0  0  0  0  0  0  0  0  0  0  0
  129.0870  126.5230   66.6500 C   0  0  0  0  0  0  0  0  0  0  0  0
  129.0120  127.1000   65.3860 C   0  0  0  0  0  0  0  0  0  0  0  0
  128.4060  128.3480   65.2230 C   0  0  0  0  0  0  0  0  0  0  0  0
  128.3450  128.9950   63.8410 C   0  0  0  0  0  0  0  0  0  0  0  0
  128.4780  127.9670   62.6850 C   0  0  2  0  0  0  0  0  0  0  0  0
  129.7560  127.2540   62.7800 N   0  0  0  0  0  0  0  0  0  0  0  0
  130.0320  126.0620   62.2230 C   0  0  0  0  0  0  0  0  0  0  0  0
  129.2380  125.3950   61.5580 O   0  0  0  0  0  0  0  0  0  0  0  0
  131.4230  125.5640   62.4810 C   0  0  0  0  0  0  0  0  0  0  0  0
  131.8570  125.4120   63.8040 C   0  0  0  0  0  0  0  0  0  0  0  0
  133.1410  124.9430   64.0770 C   0  0  0  0  0  0  0  0  0  0  0  0
  134.0030  124.6200   63.0300 C   0  0  0  0  0  0  0  0  0  0  0  0
  133.5780  124.7640   61.7090 C   0  0  0  0  0  0  0  0  0  0  0  0
  132.2930  125.2320   61.4250 C   0  0  0  0  0  0  0  0  0  0  0  0
  131.7440  125.4020   59.4050 I   0  0  0  0  0  0  0  0  0  0  0  0
  128.2930  128.6420   61.3050 C   0  0  0  0  0  0  0  0  0  0  0  0
  127.5610  129.6280   61.1910 O   0  0  0  0  0  0  0  0  0  0  0  0
  128.9230  128.0510   60.2760 N   0  0  0  0  0  0  0  0  0  0  0  0
  128.8110  128.4920   58.8900 C   0  0  0  0  0  0  0  0  0  0  0  0
  130.0720  129.2170   58.3680 C   0  0  1  0  0  0  0  0  0  0  0  0
  131.0080  128.2570   57.9150 O   0  0  0  0  0  0  0  0  0  0  0  0
  129.8130  130.1860   57.1890 C   0  0  0  0  0  0  0  0  0  0  0  0
  128.9240  131.3380   57.5110 N   0  0  0  0  0  0  0  0  0  0  0  0
  127.5420  131.3580   56.9790 C   0  0  0  0  0  0  0  0  0  0  0  0
  129.6120  132.8230   58.2050 S   0  0  0  0  0  0  0  0  0  0  0  0
  130.6330  133.3500   57.2920 O   0  0  0  0  0  0  0  0  0  0  0  0
  128.5240  133.6730   58.7040 O   0  0  0  0  0  0  0  0  0  0  0  0
  130.4940  132.1700   59.6440 C   0  0  0  0  0  0  0  0  0  0  0  0
  129.9920  132.1270   60.9400 C   0  0  0  0  0  0  0  0  0  0  0  0
  130.9100  131.5990   61.8540 C   0  0  0  0  0  0  0  0  0  0  0  0
  132.1060  131.2240   61.2570 C   0  0  0  0  0  0  0  0  0  0  0  0
  132.1030  131.5200   59.5470 S   0  0  0  0  0  0  0  0  0  0  0  0
  127.8680  129.0140   66.3280 C   0  0  0  0  0  0  0  0  0  0  0  0
  127.9440  128.4370   67.5920 C   0  0  0  0  0  0  0  0  0  0  0  0
  130.8057  128.2226   70.8893 H   0  0  0  0  0  0  0  0  0  0  0  0
  131.0165  127.3335   69.3428 H   0  0  0  0  0  0  0  0  0  0  0  0
  130.2871  128.9750   69.3428 H   0  0  0  0  0  0  0  0  0  0  0  0
  129.5721  125.5443   66.7801 H   0  0  0  0  0  0  0  0  0  0  0  0
  129.4298  126.5735   64.5153 H   0  0  0  0  0  0  0  0  0  0  0  0
  127.3808  129.5146   63.7392 H   0  0  0  0  0  0  0  0  0  0  0  0
  129.1948  129.6892   63.7642 H   0  0  0  0  0  0  0  0  0  0  0  0
  127.6713  127.2258   62.7850 H   0  0  0  0  0  0  0  0  0  0  0  0
  130.4790  127.7250   63.3030 H   0  0  0  0  0  0  0  0  0  0  0  0
  131.1799  125.6645   64.6334 H   0  0  0  0  0  0  0  0  0  0  0  0
  133.4742  124.8277   65.1190 H   0  0  0  0  0  0  0  0  0  0  0  0
  135.0171  124.2520   63.2452 H   0  0  0  0  0  0  0  0  0  0  0  0
  134.2599  124.5071   60.8850 H   0  0  0  0  0  0  0  0  0  0  0  0
  129.5040  127.2430   60.4520 H   0  0  0  0  0  0  0  0  0  0  0  0
  128.6301  127.6101   58.2579 H   0  0  0  0  0  0  0  0  0  0  0  0
  127.9825  129.2143   58.8471 H   0  0  0  0  0  0  0  0  0  0  0  0
  130.4394  129.8121   59.2170 H   0  0  0  0  0  0  0  0  0  0  0  0
  131.7100  128.7120   57.4430 H   0  0  0  0  0  0  0  0  0  0  0  0
  130.7821  130.5846   56.8544 H   0  0  0  0  0  0  0  0  0  0  0  0
  129.2941  129.6010   56.4154 H   0  0  0  0  0  0  0  0  0  0  0  0
  126.8273  131.3683   57.8152 H   0  0  0  0  0  0  0  0  0  0  0  0
  127.3991  132.2583   56.3634 H   0  0  0  0  0  0  0  0  0  0  0  0
  127.3731  130.4622   56.3634 H   0  0  0  0  0  0  0  0  0  0  0  0
  128.9841  132.4703   61.2161 H   0  0  0  0  0  0  0  0  0  0  0  0
  130.7062  131.4924   62.9297 H   0  0  0  0  0  0  0  0  0  0  0  0
  132.9561  130.7900   61.8039 H   0  0  0  0  0  0  0  0  0  0  0  0
  127.3848  129.9937   66.1984 H   0  0  0  0  0  0  0  0  0  0  0  0
  127.5300  128.9652   68.4636 H   0  0  0  0  0  0  0  0  0  0  0  0
  1  2  1  0
  2  3  2  0
  2  4  1  0
  4  5  1  0
  5  6  2  0
  6  7  1  0
  7  8  2  0
  8  9  1  0
  9 10  1  0
 10 11  1  0
 11 12  1  0
 12 13  2  0
 12 14  1  0
 14 15  2  0
 15 16  1  0
 16 17  2  0
 17 18  1  0
 18 19  2  0
 19 20  1  0
 10 21  1  0
 21 22  2  0
 21 23  1  0
 23 24  1  0
 24 25  1  0
 25 26  1  0
 25 27  1  0
 27 28  1  0
 28 29  1  0
 28 30  1  0
 30 31  2  0
 30 32  2  0
 30 33  1  0
 33 34  2  0
 34 35  1  0
 35 36  2  0
 36 37  1  0
  8 38  1  0
 38 39  2  0
 39  5  1  0
 19 14  1  0
 37 33  1  0
  1 40  1  0
  1 41  1  0
  1 42  1  0
  6 43  1  0
  7 44  1  0
  9 45  1  0
  9 46  1  0
 10 47  1  1
 11 48  1  0
 15 49  1  0
 16 50  1  0
 17 51  1  0
 18 52  1  0
 23 53  1  0
 24 54  1  0
 24 55  1  0
 25 56  1  1
 26 57  1  0
 27 58  1  0
 27 59  1  0
 29 60  1  0
 29 61  1  0
 29 62  1  0
 34 63  1  0
 35 64  1  0
 36 65  1  0
 38 66  1  0
 39 67  1  0
M  END
>  <Binding energies>  (1) 
[-7.89]

>  <Ligand effiencies>  (1) 
[-0.18785714285714286]

>  <Interactions>  (1) 
["H-A:GLU:543:OE2:4910, V-A:GLU:543:C:4902, V-B:GLU:543:CB:9878, H-A:TYR:531:OH:4795, V-B:GLU:543:CG:9879, V-A:ASP:366:CG:3213, V-A:GLU:543:CD:4908, V-B:HIS:456:CE1:9041, V-A:HIS:456:CE1:4070, V-A:GLU:543:CG:4907, V-B:GLU:543:CD:9880, V-A:MET:535:CE:4835, V-A:TYR:539:C:4867, V-A:ARG:545:CZ:4926, H-A:GLU:543:OE1:4909, V-A:GLU:543:CB:4906, V-A:PRO:540:N:4884, H-A:TYR:539:N:4870, V-A:GLY:453:CA:4044, V-A:PRO:540:CA:4883, V-A:PRO:540:CB:4885, V-A:TYR:539:CE1:4875"]

$$$$
ZINC1867878236
     RDKit          3D

 66 69  0  0  0  0  0  0  0  0999 V2000
  127.8580  129.2430   67.2170 C   0  0  0  0  0  0  0  0  0  0  0  0
  128.6580  127.9580   67.0370 C   0  0  0  0  0  0  0  0  0  0  0  0
  128.7950  127.4540   65.7380 C   0  0  0  0  0  0  0  0  0  0  0  0
  129.4790  126.2540   65.4820 C   0  0  0  0  0  0  0  0  0  0  0  0
  129.6510  125.7110   64.0770 C   0  0  0  0  0  0  0  0  0  0  0  0
  129.2740  124.5720   63.7920 O   0  0  0  0  0  0  0  0  0  0  0  0
  130.2340  126.5340   63.1760 N   0  0  0  0  0  0  0  0  0  0  0  0
  130.5870  126.2520   61.7670 C   0  0  1  0  0  0  0  0  0  0  0  0
  130.3560  127.5190   60.9050 C   0  0  0  0  0  0  0  0  0  0  0  0
  130.5090  127.4630   59.6840 O   0  0  0  0  0  0  0  0  0  0  0  0
  129.9980  128.6360   61.5630 N   0  0  0  0  0  0  0  0  0  0  0  0
  129.7990  129.9400   60.9290 C   0  0  0  0  0  0  0  0  0  0  0  0
  130.0630  131.1710   61.8540 C   0  0  2  0  0  0  0  0  0  0  0  0
  128.8530  132.1340   61.8930 C   0  0  0  0  0  0  0  0  0  0  0  0
  128.6030  133.0450   60.8470 C   0  0  0  0  0  0  0  0  0  0  0  0
  129.4050  133.0970   59.7580 F   0  0  0  0  0  0  0  0  0  0  0  0
  127.5050  133.9010   60.8980 C   0  0  0  0  0  0  0  0  0  0  0  0
  126.6260  133.8520   61.9740 C   0  0  0  0  0  0  0  0  0  0  0  0
  126.8460  132.9440   63.0060 C   0  0  0  0  0  0  0  0  0  0  0  0
  127.9490  132.0880   62.9730 C   0  0  0  0  0  0  0  0  0  0  0  0
  128.1450  130.9770   64.2850 Cl  0  0  0  0  0  0  0  0  0  0  0  0
  131.3580  131.8420   61.6050 N   0  0  0  0  0  0  0  0  0  0  0  0
  132.2480  131.8280   62.7670 C   0  0  0  0  0  0  0  0  0  0  0  0
  133.6240  132.2450   62.2490 C   0  0  0  0  0  0  0  0  0  0  0  0
  133.6020  131.8340   60.7780 C   0  0  0  0  0  0  0  0  0  0  0  0
  132.2050  131.2430   60.5780 C   0  0  0  0  0  0  0  0  0  0  0  0
  131.9300  125.5360   61.5830 C   0  0  0  0  0  0  0  0  0  0  0  0
  132.4320  125.2780   60.2960 C   0  0  0  0  0  0  0  0  0  0  0  0
  133.6620  124.6530   60.1160 C   0  0  0  0  0  0  0  0  0  0  0  0
  134.4200  124.2920   61.2240 C   0  0  0  0  0  0  0  0  0  0  0  0
  133.9610  124.5610   62.5090 C   0  0  0  0  0  0  0  0  0  0  0  0
  132.7300  125.1860   62.6860 C   0  0  0  0  0  0  0  0  0  0  0  0
  130.0190  125.5590   66.5690 C   0  0  0  0  0  0  0  0  0  0  0  0
  129.8870  126.0480   67.8660 C   0  0  0  0  0  0  0  0  0  0  0  0
  129.2180  127.2520   68.1240 C   0  0  0  0  0  0  0  0  0  0  0  0
  129.1290  127.7310   69.5270 N   0  0  0  0  0  0  0  0  0  0  0  0
  130.0220  128.4440   69.9740 O   0  0  0  0  0  0  0  0  0  0  0  0
  128.1710  127.3650   70.2010 O   0  0  0  0  0  0  0  0  0  0  0  0
  127.7303  129.4481   68.2901 H   0  0  0  0  0  0  0  0  0  0  0  0
  128.3957  130.0788   66.7454 H   0  0  0  0  0  0  0  0  0  0  0  0
  126.8707  129.1294   66.7454 H   0  0  0  0  0  0  0  0  0  0  0  0
  128.3563  128.0113   64.8972 H   0  0  0  0  0  0  0  0  0  0  0  0
  130.6130  127.4000   63.5280 H   0  0  0  0  0  0  0  0  0  0  0  0
  129.8977  125.4884   61.3775 H   0  0  0  0  0  0  0  0  0  0  0  0
  129.8760  128.5980   62.5650 H   0  0  0  0  0  0  0  0  0  0  0  0
  130.4798  130.0081   60.0677 H   0  0  0  0  0  0  0  0  0  0  0  0
  128.7360  129.9873   60.6502 H   0  0  0  0  0  0  0  0  0  0  0  0
  130.1683  130.7715   62.8735 H   0  0  0  0  0  0  0  0  0  0  0  0
  127.3327  134.6192   60.0828 H   0  0  0  0  0  0  0  0  0  0  0  0
  125.7594  134.5286   62.0098 H   0  0  0  0  0  0  0  0  0  0  0  0
  126.1461  132.9004   63.8535 H   0  0  0  0  0  0  0  0  0  0  0  0
  131.8944  132.5394   63.5278 H   0  0  0  0  0  0  0  0  0  0  0  0
  132.2792  130.8347   63.2386 H   0  0  0  0  0  0  0  0  0  0  0  0
  133.7677  133.3309   62.3500 H   0  0  0  0  0  0  0  0  0  0  0  0
  134.4477  131.7773   62.8082 H   0  0  0  0  0  0  0  0  0  0  0  0
  133.7540  132.7069   60.1261 H   0  0  0  0  0  0  0  0  0  0  0  0
  134.4021  131.1225   60.5259 H   0  0  0  0  0  0  0  0  0  0  0  0
  131.8249  131.4934   59.5766 H   0  0  0  0  0  0  0  0  0  0  0  0
  132.2186  130.1461   60.6595 H   0  0  0  0  0  0  0  0  0  0  0  0
  131.8426  125.5752   59.4161 H   0  0  0  0  0  0  0  0  0  0  0  0
  134.0330  124.4455   59.1015 H   0  0  0  0  0  0  0  0  0  0  0  0
  135.3889  123.7905   61.0835 H   0  0  0  0  0  0  0  0  0  0  0  0
  134.5685  124.2809   63.3822 H   0  0  0  0  0  0  0  0  0  0  0  0
  132.3774  125.4096   63.7037 H   0  0  0  0  0  0  0  0  0  0  0  0
  130.5549  124.6139   66.3970 H   0  0  0  0  0  0  0  0  0  0  0  0
  130.3159  125.4786   68.7038 H   0  0  0  0  0  0  0  0  0  0  0  0
  1  2  1  0
  2  3  2  0
  3  4  1  0
  4  5  1  0
  5  6  2  0
  5  7  1  0
  7  8  1  0
  8  9  1  0
  9 10  2  0
  9 11  1  0
 11 12  1  0
 12 13  1  0
 13 14  1  0
 14 15  2  0
 15 16  1  0
 15 17  1  0
 17 18  2  0
 18 19  1  0
 19 20  2  0
 20 21  1  0
 13 22  1  0
 22 23  1  0
 23 24  1  0
 24 25  1  0
 25 26  1  0
  8 27  1  0
 27 28  2  0
 28 29  1  0
 29 30  2  0
 30 31  1  0
 31 32  2  0
  4 33  2  0
 33 34  1  0
 34 35  2  0
 35 36  1  0
 36 37  2  0
 36 38  1  0
 35  2  1  0
 20 14  1  0
 26 22  1  0
 32 27  1  0
  1 39  1  0
  1 40  1  0
  1 41  1  0
  3 42  1  0
  7 43  1  0
  8 44  1  6
 11 45  1  0
 12 46  1  0
 12 47  1  0
 13 48  1  1
 17 49  1  0
 18 50  1  0
 19 51  1  0
 23 52  1  0
 23 53  1  0
 24 54  1  0
 24 55  1  0
 25 56  1  0
 25 57  1  0
 26 58  1  0
 26 59  1  0
 28 60  1  0
 29 61  1  0
 30 62  1  0
 31 63  1  0
 32 64  1  0
 33 65  1  0
 34 66  1  0
M  CHG  2  36   1  38  -1
M  END
>  <Binding energies>  (1) 
[-9.91]

>  <Ligand effiencies>  (1) 
[-0.24775]

>  <Interactions>  (1) 
["V-A:ASP:366:CA:3210, V-A:ALA:541:C:4888, H-A:GLU:543:OE2:4910, H-A:ALA:541:N:4891, V-B:GLU:543:CB:9878, V-B:GLU:543:CG:9879, V-B:LEU:475:CD2:9230, V-A:ASP:366:CG:3213, V-A:ASN:362:CB:3176, V-A:TYR:539:CD1:4873, V-A:GLU:543:CD:4908, V-A:ASN:362:CG:3177, V-B:HIS:456:CE1:9041, V-A:HIS:456:CE1:4070, V-B:TYR:484:CZ:9318, V-A:ILE:369:CD1:3239, V-A:ALA:541:CA:4890, V-A:GLU:543:CG:4907, V-B:GLU:543:CD:9880, V-A:TYR:539:C:4867, V-A:ASP:366:CB:3212, V-A:ASN:362:C:3172, V-A:ARG:545:CZ:4926, H-A:GLU:543:OE1:4909, V-A:GLU:543:CB:4906, V-A:PRO:540:N:4884, V-A:PRO:540:CB:4885, V-A:PRO:540:CA:4883, V-A:LEU:363:CA:3185, V-A:TYR:539:CE1:4875"]

$$$$
ZINC1867924537
     RDKit          3D

 67 71  0  0  0  0  0  0  0  0999 V2000
  131.4340  126.2500   67.4810 O   0  0  0  0  0  0  0  0  0  0  0  0
  130.2200  126.4600   67.4600 C   0  0  0  0  0  0  0  0  0  0  0  0
  129.4810  126.4210   66.3310 N   0  0  0  0  0  0  0  0  0  0  0  0
  129.9270  126.1500   64.9530 C   0  0  2  0  0  0  0  0  0  0  0  0
  129.0090  126.8740   63.9270 C   0  0  0  0  0  0  0  0  0  0  0  0
  129.0600  126.2820   62.6430 O   0  0  0  0  0  0  0  0  0  0  0  0
  130.1180  124.6420   64.6490 C   0  0  0  0  0  0  0  0  0  0  0  0
  129.1550  123.9240   64.3730 O   0  0  0  0  0  0  0  0  0  0  0  0
  131.3840  124.1940   64.6880 N   0  0  0  0  0  0  0  0  0  0  0  0
  131.7830  122.8270   64.3560 C   0  0  0  0  0  0  0  0  0  0  0  0
  132.2290  122.6370   62.8830 C   0  0  1  0  0  0  0  0  0  0  0  0
  131.0800  122.7030   61.8940 C   0  0  0  0  0  0  0  0  0  0  0  0
  130.6260  121.8540   60.8960 C   0  0  0  0  0  0  0  0  0  0  0  0
  129.5170  122.4660   60.3110 C   0  0  0  0  0  0  0  0  0  0  0  0
  129.3440  123.6670   60.9730 C   0  0  0  0  0  0  0  0  0  0  0  0
  130.2950  123.8140   61.9310 O   0  0  0  0  0  0  0  0  0  0  0  0
  133.6070  123.8780   62.4860 S   0  0  0  0  0  0  0  0  0  0  0  0
  133.8260  124.7200   63.6670 O   0  0  0  0  0  0  0  0  0  0  0  0
  134.7320  123.1600   61.8750 O   0  0  0  0  0  0  0  0  0  0  0  0
  132.8800  124.9300   61.2290 C   0  0  0  0  0  0  0  0  0  0  0  0
  133.0740  124.6500   59.8740 C   0  0  0  0  0  0  0  0  0  0  0  0
  132.4910  125.4680   58.9100 C   0  0  0  0  0  0  0  0  0  0  0  0
  131.7170  126.5580   59.3030 C   0  0  0  0  0  0  0  0  0  0  0  0
  131.1510  127.3510   58.3660 F   0  0  0  0  0  0  0  0  0  0  0  0
  131.5200  126.8380   60.6550 C   0  0  0  0  0  0  0  0  0  0  0  0
  132.1020  126.0230   61.6210 C   0  0  0  0  0  0  0  0  0  0  0  0
  129.4820  126.8180   68.7310 C   0  0  0  0  0  0  0  0  0  0  0  0
  128.0930  126.5940   68.8170 C   0  0  0  0  0  0  0  0  0  0  0  0
  127.3800  126.9120   69.9760 C   0  0  0  0  0  0  0  0  0  0  0  0
  128.0710  127.4630   71.0540 C   0  0  0  0  0  0  0  0  0  0  0  0
  129.4170  127.6920   70.9870 C   0  0  0  0  0  0  0  0  0  0  0  0
  130.1460  127.3810   69.8390 C   0  0  0  0  0  0  0  0  0  0  0  0
  129.8450  128.2840   72.2800 C   0  0  0  0  0  0  0  0  0  0  0  0
  130.9780  128.6360   72.6090 O   0  0  0  0  0  0  0  0  0  0  0  0
  128.7100  128.3580   73.0240 N   0  0  0  0  0  0  0  0  0  0  0  0
  128.6800  128.9160   74.3850 C   0  0  0  0  0  0  0  0  0  0  0  0
  128.7350  130.4340   74.4040 C   0  0  0  0  0  0  0  0  0  0  0  0
  127.9090  131.4390   74.8930 C   0  0  0  0  0  0  0  0  0  0  0  0
  128.5210  132.6560   74.5930 C   0  0  0  0  0  0  0  0  0  0  0  0
  129.6950  132.3440   73.9320 C   0  0  0  0  0  0  0  0  0  0  0  0
  129.8240  130.9970   73.8170 O   0  0  0  0  0  0  0  0  0  0  0  0
  127.5970  127.8990   72.3920 C   0  0  0  0  0  0  0  0  0  0  0  0
  126.4480  127.8590   72.8350 O   0  0  0  0  0  0  0  0  0  0  0  0
  128.4940  126.6210   66.4130 H   0  0  0  0  0  0  0  0  0  0  0  0
  130.9365  126.5743   64.8488 H   0  0  0  0  0  0  0  0  0  0  0  0
  127.9722  126.8354   64.2924 H   0  0  0  0  0  0  0  0  0  0  0  0
  129.3657  127.9102   63.8320 H   0  0  0  0  0  0  0  0  0  0  0  0
  128.9930  125.3290   62.7430 H   0  0  0  0  0  0  0  0  0  0  0  0
  132.1250  124.8420   64.9140 H   0  0  0  0  0  0  0  0  0  0  0  0
  132.6209  122.5434   65.0098 H   0  0  0  0  0  0  0  0  0  0  0  0
  130.8958  122.1934   64.5027 H   0  0  0  0  0  0  0  0  0  0  0  0
  132.6247  121.6166   62.7726 H   0  0  0  0  0  0  0  0  0  0  0  0
  131.0586  120.8816   60.6180 H   0  0  0  0  0  0  0  0  0  0  0  0
  128.9032  122.0717   59.4877 H   0  0  0  0  0  0  0  0  0  0  0  0
  128.5510  124.3976   60.7553 H   0  0  0  0  0  0  0  0  0  0  0  0
  133.6847  123.7870   59.5702 H   0  0  0  0  0  0  0  0  0  0  0  0
  132.6409  125.2545   57.8414 H   0  0  0  0  0  0  0  0  0  0  0  0
  130.9068  127.7000   60.9566 H   0  0  0  0  0  0  0  0  0  0  0  0
  131.9504  126.2381   62.6891 H   0  0  0  0  0  0  0  0  0  0  0  0
  127.5611  126.1614   67.9568 H   0  0  0  0  0  0  0  0  0  0  0  0
  126.2966  126.7314   70.0364 H   0  0  0  0  0  0  0  0  0  0  0  0
  131.2283  127.5733   69.7991 H   0  0  0  0  0  0  0  0  0  0  0  0
  127.7505  128.5925   74.8764 H   0  0  0  0  0  0  0  0  0  0  0  0
  129.5722  128.5472   74.9122 H   0  0  0  0  0  0  0  0  0  0  0  0
  126.9523  131.3007   75.4180 H   0  0  0  0  0  0  0  0  0  0  0  0
  128.1454  133.6615   74.8337 H   0  0  0  0  0  0  0  0  0  0  0  0
  130.4195  133.0804   73.5541 H   0  0  0  0  0  0  0  0  0  0  0  0
  1  2  2  0
  2  3  1  0
  3  4  1  0
  4  5  1  0
  5  6  1  0
  4  7  1  0
  7  8  2  0
  7  9  1  0
  9 10  1  0
 10 11  1  0
 11 12  1  0
 12 13  2  0
 13 14  1  0
 14 15  2  0
 15 16  1  0
 11 17  1  0
 17 18  2  0
 17 19  2  0
 17 20  1  0
 20 21  2  0
 21 22  1  0
 22 23  2  0
 23 24  1  0
 23 25  1  0
 25 26  2  0
  2 27  1  0
 27 28  2  0
 28 29  1  0
 29 30  2  0
 30 31  1  0
 31 32  2  0
 31 33  1  0
 33 34  2  0
 33 35  1  0
 35 36  1  0
 36 37  1  0
 37 38  2  0
 38 39  1  0
 39 40  2  0
 40 41  1  0
 35 42  1  0
 42 43  2  0
 16 12  1  0
 26 20  1  0
 32 27  1  0
 41 37  1  0
 42 30  1  0
  3 44  1  0
  4 45  1  1
  5 46  1  0
  5 47  1  0
  6 48  1  0
  9 49  1  0
 10 50  1  0
 10 51  1  0
 11 52  1  1
 13 53  1  0
 14 54  1  0
 15 55  1  0
 21 56  1  0
 22 57  1  0
 25 58  1  0
 26 59  1  0
 28 60  1  0
 29 61  1  0
 32 62  1  0
 36 63  1  0
 36 64  1  0
 38 65  1  0
 39 66  1  0
 40 67  1  0
M  END
>  <Binding energies>  (1) 
[-7.57]

>  <Ligand effiencies>  (1) 
[-0.16456521739130436]

>  <Interactions>  (1) 
["V-A:ASP:366:CA:3210, V-B:GLU:543:C:9874, H-A:GLU:543:OE2:4910, V-B:HIS:456:CD2:9039, V-B:GLU:543:CB:9878, H-B:LYS:547:NZ:9923, V-B:TYR:539:CE2:9848, V-A:TYR:484:CE2:4346, V-B:GLU:543:CG:9879, V-A:ASP:366:CG:3213, H-B:HIS:456:ND1:9038, H-B:GLU:543:OE1:9881, V-A:GLU:543:CD:4908, V-A:TYR:484:CZ:4347, V-B:HIS:456:CE1:9041, V-B:GLU:543:CA:9876, H-A:GLY:454:N:4050, V-A:HIS:456:CE1:4070, V-B:GLY:544:C:9884, V-B:TYR:539:CD2:9846, V-B:GLU:543:CD:9880, V-B:HIS:456:CG:9037, V-A:ASP:366:CB:3212, H-A:LYS:547:NZ:4951, H-A:ARG:545:NH2:4928, V-A:LEU:475:CD2:4259, H-B:GLU:543:OE2:9882, V-A:LYS:547:CE:4950, H-A:TYR:484:OH:4348"]

$$$$
ZINC1868619252
     RDKit          3D

 63 64  0  0  0  0  0  0  0  0999 V2000
  127.9390  129.4350   74.6120 C   0  0  0  0  0  0  0  0  0  0  0  0
  128.7510  128.6970   73.5440 C   0  0  0  0  0  0  0  0  0  0  0  0
  128.5660  127.2970   73.7030 O   0  0  0  0  0  0  0  0  0  0  0  0
  129.0670  126.4260   72.8050 C   0  0  0  0  0  0  0  0  0  0  0  0
  129.0000  125.1960   72.8740 O   0  0  0  0  0  0  0  0  0  0  0  0
  129.7260  127.1560   71.6180 C   0  0  0  0  0  0  0  0  0  0  0  0
  128.8150  127.4590   70.4870 N   0  0  0  0  0  0  0  0  0  0  0  0
  127.4540  126.9710   70.7450 C   0  0  0  0  0  0  0  0  0  0  0  0
  129.1270  128.0200   69.2760 C   0  0  0  0  0  0  0  0  0  0  0  0
  130.0800  128.7920   69.1450 O   0  0  0  0  0  0  0  0  0  0  0  0
  128.3040  127.6850   67.9860 C   0  0  1  0  0  0  0  0  0  0  0  0
  127.4940  128.8880   67.4080 C   0  0  0  0  0  0  0  0  0  0  0  0
  127.3670  128.8760   65.8730 C   0  0  0  0  0  0  0  0  0  0  0  0
  128.3300  130.1530   65.0140 S   0  0  0  0  0  0  0  0  0  0  0  0
  128.3270  129.5000   63.3230 C   0  0  0  0  0  0  0  0  0  0  0  0
  129.0690  127.0620   66.8930 N   0  0  0  0  0  0  0  0  0  0  0  0
  129.6000  125.8230   66.8740 C   0  0  0  0  0  0  0  0  0  0  0  0
  129.4790  125.0200   67.8010 O   0  0  0  0  0  0  0  0  0  0  0  0
  130.3720  125.4670   65.6230 C   0  0  0  0  0  0  0  0  0  0  0  0
  129.6790  125.2430   64.4210 C   0  0  0  0  0  0  0  0  0  0  0  0
  130.3570  124.9310   63.2460 C   0  0  0  0  0  0  0  0  0  0  0  0
  131.7530  124.8430   63.2350 C   0  0  0  0  0  0  0  0  0  0  0  0
  132.4600  124.5430   62.0550 N   0  0  0  0  0  0  0  0  0  0  0  0
  132.4640  125.5060   60.9460 C   0  0  0  0  0  0  0  0  0  0  0  0
  132.6900  124.8290   59.5770 C   0  0  0  0  0  0  0  0  0  0  0  0
  133.9650  123.9780   59.4710 C   0  0  0  0  0  0  0  0  0  0  0  0
  133.9800  122.8200   60.4730 C   0  0  0  0  0  0  0  0  0  0  0  0
  133.9060  123.5040   62.2300 S   0  0  0  0  0  0  0  0  0  0  0  0
  135.0880  124.3400   62.4700 O   0  0  0  0  0  0  0  0  0  0  0  0
  133.6430  122.3980   63.1580 O   0  0  0  0  0  0  0  0  0  0  0  0
  132.4510  125.0650   64.4250 C   0  0  0  0  0  0  0  0  0  0  0  0
  131.7820  125.3790   65.6090 C   0  0  0  0  0  0  0  0  0  0  0  0
  132.7610  125.6790   67.0090 Cl  0  0  0  0  0  0  0  0  0  0  0  0
  128.2799  129.1252   75.6109 H   0  0  0  0  0  0  0  0  0  0  0  0
  128.0810  130.5196   74.4962 H   0  0  0  0  0  0  0  0  0  0  0  0
  126.8728  129.1903   74.4962 H   0  0  0  0  0  0  0  0  0  0  0  0
  128.4083  129.0025   72.5444 H   0  0  0  0  0  0  0  0  0  0  0  0
  129.8173  128.9443   73.6530 H   0  0  0  0  0  0  0  0  0  0  0  0
  130.1391  128.1060   71.9879 H   0  0  0  0  0  0  0  0  0  0  0  0
  130.4919  126.4726   71.2225 H   0  0  0  0  0  0  0  0  0  0  0  0
  127.2857  126.9107   71.8304 H   0  0  0  0  0  0  0  0  0  0  0  0
  126.7253  127.6639   70.2989 H   0  0  0  0  0  0  0  0  0  0  0  0
  127.3316  125.9730   70.2989 H   0  0  0  0  0  0  0  0  0  0  0  0
  127.5998  126.9337   68.3728 H   0  0  0  0  0  0  0  0  0  0  0  0
  126.4824  128.8633   67.8393 H   0  0  0  0  0  0  0  0  0  0  0  0
  128.0454  129.8015   67.6753 H   0  0  0  0  0  0  0  0  0  0  0  0
  127.7031  127.8934   65.5104 H   0  0  0  0  0  0  0  0  0  0  0  0
  126.3104  129.0855   65.6501 H   0  0  0  0  0  0  0  0  0  0  0  0
  128.3219  128.4005   63.3546 H   0  0  0  0  0  0  0  0  0  0  0  0
  127.4305  129.8558   62.7941 H   0  0  0  0  0  0  0  0  0  0  0  0
  129.2268  129.8475   62.7941 H   0  0  0  0  0  0  0  0  0  0  0  0
  129.2160  127.6540   66.0890 H   0  0  0  0  0  0  0  0  0  0  0  0
  128.5815  125.3155   64.4085 H   0  0  0  0  0  0  0  0  0  0  0  0
  129.7911  124.7524   62.3198 H   0  0  0  0  0  0  0  0  0  0  0  0
  131.4949  126.0262   60.9268 H   0  0  0  0  0  0  0  0  0  0  0  0
  133.2953  126.2065   61.1141 H   0  0  0  0  0  0  0  0  0  0  0  0
  131.8277  124.1771   59.3732 H   0  0  0  0  0  0  0  0  0  0  0  0
  132.8058  125.6448   58.8482 H   0  0  0  0  0  0  0  0  0  0  0  0
  134.0305  123.5653   58.4534 H   0  0  0  0  0  0  0  0  0  0  0  0
  134.8221  124.6289   59.6984 H   0  0  0  0  0  0  0  0  0  0  0  0
  133.1098  122.1709   60.2957 H   0  0  0  0  0  0  0  0  0  0  0  0
  134.9048  122.2381   60.3457 H   0  0  0  0  0  0  0  0  0  0  0  0
  133.5485  124.9909   64.4287 H   0  0  0  0  0  0  0  0  0  0  0  0
  1  2  1  0
  2  3  1  0
  3  4  1  0
  4  5  2  0
  4  6  1  0
  6  7  1  0
  7  8  1  0
  7  9  1  0
  9 10  2  0
  9 11  1  0
 11 12  1  0
 12 13  1  0
 13 14  1  0
 14 15  1  0
 11 16  1  0
 16 17  1  0
 17 18  2  0
 17 19  1  0
 19 20  2  0
 20 21  1  0
 21 22  2  0
 22 23  1  0
 23 24  1  0
 24 25  1  0
 25 26  1  0
 26 27  1  0
 27 28  1  0
 28 29  2  0
 28 30  2  0
 22 31  1  0
 31 32  2  0
 32 33  1  0
 32 19  1  0
 28 23  1  0
  1 34  1  0
  1 35  1  0
  1 36  1  0
  2 37  1  0
  2 38  1  0
  6 39  1  0
  6 40  1  0
  8 41  1  0
  8 42  1  0
  8 43  1  0
 11 44  1  1
 12 45  1  0
 12 46  1  0
 13 47  1  0
 13 48  1  0
 15 49  1  0
 15 50  1  0
 15 51  1  0
 16 52  1  0
 20 53  1  0
 21 54  1  0
 24 55  1  0
 24 56  1  0
 25 57  1  0
 25 58  1  0
 26 59  1  0
 26 60  1  0
 27 61  1  0
 27 62  1  0
 31 63  1  0
M  END
>  <Binding energies>  (1) 
[-6.71]

>  <Ligand effiencies>  (1) 
[-0.1973529411764706]

>  <Interactions>  (1) 
["V-A:ILE:369:CG2:3237, V-A:ASP:366:CA:3210, V-B:HIS:456:CD2:9039, H-A:GLU:543:OE2:4910, V-B:GLU:543:C:9874, V-A:ILE:369:CB:3236, V-B:GLU:543:CB:9878, H-B:LYS:547:NZ:9923, V-B:GLU:543:CG:9879, V-A:HIS:456:CD2:4068, V-A:ASP:366:CG:3213, V-A:GLU:543:CD:4908, V-A:TYR:484:CZ:4347, H-B:TYR:484:OH:9319, V-B:HIS:456:CE1:9041, H-A:GLY:454:N:4050, V-A:ARG:545:CG:4922, V-A:HIS:456:CE1:4070, V-B:TYR:484:CZ:9318, V-A:ILE:369:CD1:3239, V-B:GLY:544:C:9884, V-B:GLY:544:CA:9886, V-B:GLU:543:CD:9880, V-A:ASP:366:CB:3212, V-A:ARG:545:CD:4923, V-A:ARG:545:CZ:4926, H-A:GLU:543:OE1:4909, V-A:GLU:543:CB:4906, H-B:GLU:543:OE2:9882"]

$$$$
ZINC1868677995
     RDKit          3D

 74 76  0  0  0  0  0  0  0  0999 V2000
  126.6690  128.1910   62.4940 C   0  0  0  0  0  0  0  0  0  0  0  0
  126.4870  127.7160   61.0420 C   0  0  0  0  0  0  0  0  0  0  0  0
  127.6060  126.9580   60.5920 O   0  0  0  0  0  0  0  0  0  0  0  0
  127.6350  125.5970   60.6720 C   0  0  0  0  0  0  0  0  0  0  0  0
  126.6840  124.8810   60.3450 O   0  0  0  0  0  0  0  0  0  0  0  0
  128.8780  125.1310   61.1420 N   0  0  0  0  0  0  0  0  0  0  0  0
  129.7390  125.9950   61.9720 C   0  0  0  0  0  0  0  0  0  0  0  0
  129.3600  125.7720   63.4560 C   0  0  0  0  0  0  0  0  0  0  0  0
  129.4810  124.3290   63.7510 N   0  0  0  0  0  0  0  0  0  0  0  0
  130.2830  123.8010   64.7190 C   0  0  0  0  0  0  0  0  0  0  0  0
  130.2790  122.5980   64.9910 O   0  0  0  0  0  0  0  0  0  0  0  0
  131.2750  124.7190   65.5010 C   0  0  1  0  0  0  0  0  0  0  0  0
  132.5560  125.1170   64.7050 C   0  0  0  0  0  0  0  0  0  0  0  0
  132.8020  124.2320   63.4850 C   0  0  0  0  0  0  0  0  0  0  0  0
  133.3180  122.9450   63.6520 C   0  0  0  0  0  0  0  0  0  0  0  0
  133.5420  122.1340   62.5440 C   0  0  0  0  0  0  0  0  0  0  0  0
  133.2440  122.6070   61.2620 C   0  0  0  0  0  0  0  0  0  0  0  0
  133.4790  121.8180   60.1580 O   0  0  0  0  0  0  0  0  0  0  0  0
  132.8410  120.6230   60.0460 C   0  0  0  0  0  0  0  0  0  0  0  0
  131.5520  120.5840   60.8580 C   0  0  0  0  0  0  0  0  0  0  0  0
  133.2040  119.6470   59.3840 O   0  0  0  0  0  0  0  0  0  0  0  0
  132.7500  123.9020   61.0910 C   0  0  0  0  0  0  0  0  0  0  0  0
  132.5280  124.7130   62.2010 C   0  0  0  0  0  0  0  0  0  0  0  0
  130.6250  125.9040   66.0820 N   0  0  0  0  0  0  0  0  0  0  0  0
  129.9250  125.9500   67.2320 C   0  0  0  0  0  0  0  0  0  0  0  0
  129.8040  124.9940   68.0000 O   0  0  0  0  0  0  0  0  0  0  0  0
  129.2890  127.3240   67.5920 C   0  0  2  0  0  0  0  0  0  0  0  0
  129.0710  127.3850   69.0910 C   0  0  0  0  0  0  0  0  0  0  0  0
  127.8870  126.8940   69.6580 C   0  0  0  0  0  0  0  0  0  0  0  0
  127.6880  126.9610   71.0340 C   0  0  0  0  0  0  0  0  0  0  0  0
  128.6680  127.5300   71.8460 C   0  0  0  0  0  0  0  0  0  0  0  0
  129.8420  128.0340   71.2920 C   0  0  0  0  0  0  0  0  0  0  0  0
  130.0420  127.9640   69.9160 C   0  0  0  0  0  0  0  0  0  0  0  0
  128.1200  127.6230   66.6970 N   0  0  0  0  0  0  0  0  0  0  0  0
  128.4710  128.0330   65.3320 C   0  0  0  0  0  0  0  0  0  0  0  0
  127.2680  128.6750   67.2540 C   0  0  0  0  0  0  0  0  0  0  0  0
  128.6360  123.4510   62.9090 C   0  0  0  0  0  0  0  0  0  0  0  0
  129.0100  123.6930   61.4220 C   0  0  0  0  0  0  0  0  0  0  0  0
  126.3622  127.3902   63.1829 H   0  0  0  0  0  0  0  0  0  0  0  0
  127.7262  128.4398   62.6686 H   0  0  0  0  0  0  0  0  0  0  0  0
  126.0488  129.0825   62.6686 H   0  0  0  0  0  0  0  0  0  0  0  0
  125.5847  127.0897   60.9822 H   0  0  0  0  0  0  0  0  0  0  0  0
  126.3934  128.6040   60.3996 H   0  0  0  0  0  0  0  0  0  0  0  0
  130.7950  125.7309   61.8135 H   0  0  0  0  0  0  0  0  0  0  0  0
  129.5958  127.0505   61.6975 H   0  0  0  0  0  0  0  0  0  0  0  0
  130.0409  126.3431   64.1042 H   0  0  0  0  0  0  0  0  0  0  0  0
  128.3306  126.1129   63.6409 H   0  0  0  0  0  0  0  0  0  0  0  0
  131.6192  124.0830   66.3299 H   0  0  0  0  0  0  0  0  0  0  0  0
  132.4485  126.1581   64.3664 H   0  0  0  0  0  0  0  0  0  0  0  0
  133.4147  124.9904   65.3807 H   0  0  0  0  0  0  0  0  0  0  0  0
  133.5476  122.5720   64.6610 H   0  0  0  0  0  0  0  0  0  0  0  0
  133.9529  121.1222   62.6761 H   0  0  0  0  0  0  0  0  0  0  0  0
  131.7942  120.5913   61.9310 H   0  0  0  0  0  0  0  0  0  0  0  0
  130.9385  121.4640   60.6146 H   0  0  0  0  0  0  0  0  0  0  0  0
  130.9929  119.6685   60.6146 H   0  0  0  0  0  0  0  0  0  0  0  0
  132.5365  124.2810   60.0806 H   0  0  0  0  0  0  0  0  0  0  0  0
  132.1369  125.7324   62.0677 H   0  0  0  0  0  0  0  0  0  0  0  0
  130.6970  126.7460   65.5290 H   0  0  0  0  0  0  0  0  0  0  0  0
  129.9620  128.1679   67.3800 H   0  0  0  0  0  0  0  0  0  0  0  0
  127.1121  126.4540   69.0131 H   0  0  0  0  0  0  0  0  0  0  0  0
  126.7622  126.5670   71.4785 H   0  0  0  0  0  0  0  0  0  0  0  0
  128.5126  127.5813   72.9338 H   0  0  0  0  0  0  0  0  0  0  0  0
  130.6084  128.4857   71.9391 H   0  0  0  0  0  0  0  0  0  0  0  0
  130.9667  128.3653   69.4756 H   0  0  0  0  0  0  0  0  0  0  0  0
  129.1859  128.8681   65.3724 H   0  0  0  0  0  0  0  0  0  0  0  0
  128.9274  127.1850   64.8003 H   0  0  0  0  0  0  0  0  0  0  0  0
  127.5628  128.3532   64.8003 H   0  0  0  0  0  0  0  0  0  0  0  0
  127.3030  128.6318   68.3526 H   0  0  0  0  0  0  0  0  0  0  0  0
  127.6284  129.6571   66.9140 H   0  0  0  0  0  0  0  0  0  0  0  0
  126.2325  128.5266   66.9140 H   0  0  0  0  0  0  0  0  0  0  0  0
  128.8170  122.3982   63.1713 H   0  0  0  0  0  0  0  0  0  0  0  0
  127.5724  123.6782   63.0736 H   0  0  0  0  0  0  0  0  0  0  0  0
  130.0468  123.3724   61.2421 H   0  0  0  0  0  0  0  0  0  0  0  0
  128.3437  123.1155   60.7643 H   0  0  0  0  0  0  0  0  0  0  0  0
  1  2  1  0
  2  3  1  0
  3  4  1  0
  4  5  2  0
  4  6  1  0
  6  7  1  0
  7  8  1  0
  8  9  1  0
  9 10  1  0
 10 11  2  0
 10 12  1  0
 12 13  1  0
 13 14  1  0
 14 15  2  0
 15 16  1  0
 16 17  2  0
 17 18  1  0
 18 19  1  0
 19 20  1  0
 19 21  2  0
 17 22  1  0
 22 23  2  0
 12 24  1  0
 24 25  1  0
 25 26  2  0
 25 27  1  0
 27 28  1  0
 28 29  2  0
 29 30  1  0
 30 31  2  0
 31 32  1  0
 32 33  2  0
 27 34  1  0
 34 35  1  0
 34 36  1  0
  9 37  1  0
 37 38  1  0
 38  6  1  0
 23 14  1  0
 33 28  1  0
  1 39  1  0
  1 40  1  0
  1 41  1  0
  2 42  1  0
  2 43  1  0
  7 44  1  0
  7 45  1  0
  8 46  1  0
  8 47  1  0
 12 48  1  1
 13 49  1  0
 13 50  1  0
 15 51  1  0
 16 52  1  0
 20 53  1  0
 20 54  1  0
 20 55  1  0
 22 56  1  0
 23 57  1  0
 24 58  1  0
 27 59  1  6
 29 60  1  0
 30 61  1  0
 31 62  1  0
 32 63  1  0
 33 64  1  0
 35 65  1  0
 35 66  1  0
 35 67  1  0
 36 68  1  0
 36 69  1  0
 36 70  1  0
 37 71  1  0
 37 72  1  0
 38 73  1  0
 38 74  1  0
M  END
>  <Binding energies>  (1) 
[-7.65]

>  <Ligand effiencies>  (1) 
[-0.19615384615384615]

>  <Interactions>  (1) 
["V-A:ILE:369:CG2:3237, V-A:GLY:454:CA:4049, V-B:GLU:543:C:9874, H-A:GLU:543:OE2:4910, V-A:GLU:543:C:4902, V-B:HIS:456:CD2:9039, V-B:GLU:543:CB:9878, V-B:ASP:366:CG:8184, V-B:TYR:539:CE2:9848, V-A:TYR:484:CE2:4346, V-B:GLU:543:CG:9879, V-A:TYR:484:CZ:4347, V-A:GLU:543:CD:4908, V-B:HIS:456:CE1:9041, V-A:HIS:456:CE1:4070, V-B:GLY:544:C:9884, V-B:TYR:539:CD2:9846, V-A:GLU:543:CG:4907, H-A:SER:385:OG:3410, V-B:GLU:543:CD:9880, V-A:LEU:475:CD2:4259, V-A:ARG:545:CZ:4926, H-A:GLU:543:OE1:4909, V-A:GLU:543:CB:4906, H-A:TYR:484:OH:4348"]

$$$$
ZINC1868739153
     RDKit          3D

 74 74  0  0  0  0  0  0  0  0999 V2000
  131.5000  120.0650   60.8370 C   0  0  0  0  0  0  0  0  0  0  0  0
  132.5270  121.1990   60.9440 C   0  0  0  0  0  0  0  0  0  0  0  0
  132.1070  122.2810   61.9580 C   0  0  0  0  0  0  0  0  0  0  0  0
  133.0470  123.4120   62.0120 N   0  0  0  0  0  0  0  0  0  0  0  0
  134.0160  123.4100   60.9030 C   0  0  0  0  0  0  0  0  0  0  0  0
  133.9750  124.6750   60.0190 C   0  0  0  0  0  0  0  0  0  0  0  0
  133.3290  124.4440   58.6480 C   0  0  0  0  0  0  0  0  0  0  0  0
  133.9580  123.9630   57.7010 O   0  0  0  0  0  0  0  0  0  0  0  0
  132.0320  124.8050   58.6270 O   0  0  0  0  0  0  0  0  0  0  0  0
  131.6560  126.1300   58.2710 C   0  0  0  0  0  0  0  0  0  0  0  0
  131.3030  126.9190   59.5360 C   0  0  0  0  0  0  0  0  0  0  0  0
  132.9770  124.3190   63.0320 C   0  0  0  0  0  0  0  0  0  0  0  0
  133.7970  124.3200   63.9540 O   0  0  0  0  0  0  0  0  0  0  0  0
  131.8560  125.4100   63.0730 C   0  0  1  0  0  0  0  0  0  0  0  0
  130.5530  125.0420   62.2980 C   0  0  0  0  0  0  0  0  0  0  0  0
  129.6930  123.9660   62.9870 C   0  0  0  0  0  0  0  0  0  0  0  0
  128.2090  123.4650   62.0690 S   0  0  0  0  0  0  0  0  0  0  0  0
  128.7260  121.8410   61.4520 C   0  0  0  0  0  0  0  0  0  0  0  0
  131.5000  125.8610   64.4240 N   0  0  0  0  0  0  0  0  0  0  0  0
  131.1590  125.0920   65.4780 C   0  0  0  0  0  0  0  0  0  0  0  0
  131.0410  123.8700   65.4050 O   0  0  0  0  0  0  0  0  0  0  0  0
  130.9130  125.7920   66.8280 C   0  0  0  0  0  0  0  0  0  0  0  0
  129.4900  125.6150   67.4030 C   0  0  0  0  0  0  0  0  0  0  0  0
  128.7040  127.2810   67.8100 S   0  0  0  0  0  0  0  0  0  0  0  0
  127.3680  127.0500   68.3720 O   0  0  0  0  0  0  0  0  0  0  0  0
  129.6840  128.1010   68.5320 O   0  0  0  0  0  0  0  0  0  0  0  0
  128.5070  127.9990   66.1830 C   0  0  0  0  0  0  0  0  0  0  0  0
  128.7320  127.2400   65.0360 C   0  0  0  0  0  0  0  0  0  0  0  0
  128.6260  127.8290   63.7790 C   0  0  0  0  0  0  0  0  0  0  0  0
  128.3020  129.1920   63.6480 C   0  0  0  0  0  0  0  0  0  0  0  0
  128.1950  129.8390   62.4300 O   0  0  0  0  0  0  0  0  0  0  0  0
  129.2600  129.7470   61.4910 C   0  0  0  0  0  0  0  0  0  0  0  0
  128.0750  129.9590   64.8020 C   0  0  0  0  0  0  0  0  0  0  0  0
  127.7710  131.2970   64.6180 O   0  0  0  0  0  0  0  0  0  0  0  0
  128.8130  132.2190   64.3170 C   0  0  0  0  0  0  0  0  0  0  0  0
  128.1750  129.3500   66.0640 C   0  0  0  0  0  0  0  0  0  0  0  0
  131.2059  119.7403   61.8460 H   0  0  0  0  0  0  0  0  0  0  0  0
  130.6130  120.4236   60.2941 H   0  0  0  0  0  0  0  0  0  0  0  0
  131.9445  119.2178   60.2941 H   0  0  0  0  0  0  0  0  0  0  0  0
  133.4907  120.7736   61.2607 H   0  0  0  0  0  0  0  0  0  0  0  0
  132.6015  121.6772   59.9562 H   0  0  0  0  0  0  0  0  0  0  0  0
  131.1152  122.6624   61.6735 H   0  0  0  0  0  0  0  0  0  0  0  0
  132.0961  121.8134   62.9536 H   0  0  0  0  0  0  0  0  0  0  0  0
  135.0263  123.3203   61.3288 H   0  0  0  0  0  0  0  0  0  0  0  0
  133.7482  122.5637   60.2533 H   0  0  0  0  0  0  0  0  0  0  0  0
  133.4013  125.4505   60.5477 H   0  0  0  0  0  0  0  0  0  0  0  0
  135.0173  124.9765   59.8382 H   0  0  0  0  0  0  0  0  0  0  0  0
  132.4929  126.6220   57.7538 H   0  0  0  0  0  0  0  0  0  0  0  0
  130.7815  126.0960   57.6045 H   0  0  0  0  0  0  0  0  0  0  0  0
  131.5682  126.3262   60.4238 H   0  0  0  0  0  0  0  0  0  0  0  0
  131.8635  127.8654   59.5462 H   0  0  0  0  0  0  0  0  0  0  0  0
  130.2238  127.1318   59.5462 H   0  0  0  0  0  0  0  0  0  0  0  0
  132.3379  126.2448   62.5431 H   0  0  0  0  0  0  0  0  0  0  0  0
  129.9459  125.9530   62.1912 H   0  0  0  0  0  0  0  0  0  0  0  0
  130.8674  124.6244   61.3301 H   0  0  0  0  0  0  0  0  0  0  0  0
  130.3187  123.0738   63.1371 H   0  0  0  0  0  0  0  0  0  0  0  0
  129.3365  124.4130   63.9267 H   0  0  0  0  0  0  0  0  0  0  0  0
  128.9377  121.1761   62.3023 H   0  0  0  0  0  0  0  0  0  0  0  0
  127.9212  121.4082   60.8396 H   0  0  0  0  0  0  0  0  0  0  0  0
  129.6329  121.9531   60.8396 H   0  0  0  0  0  0  0  0  0  0  0  0
  131.5650  126.8580   64.5650 H   0  0  0  0  0  0  0  0  0  0  0  0
  131.6293  125.3874   67.5582 H   0  0  0  0  0  0  0  0  0  0  0  0
  131.0397  126.8692   66.6445 H   0  0  0  0  0  0  0  0  0  0  0  0
  128.8656  125.0958   66.6610 H   0  0  0  0  0  0  0  0  0  0  0  0
  129.5606  125.0282   68.3307 H   0  0  0  0  0  0  0  0  0  0  0  0
  128.9934  126.1751   65.1239 H   0  0  0  0  0  0  0  0  0  0  0  0
  128.7975  127.2219   62.8779 H   0  0  0  0  0  0  0  0  0  0  0  0
  130.2163  129.6644   62.0282 H   0  0  0  0  0  0  0  0  0  0  0  0
  129.1162  128.8579   60.8594 H   0  0  0  0  0  0  0  0  0  0  0  0
  129.2708  130.6476   60.8594 H   0  0  0  0  0  0  0  0  0  0  0  0
  129.2456  132.6018   65.2531 H   0  0  0  0  0  0  0  0  0  0  0  0
  129.5945  131.7112   63.7326 H   0  0  0  0  0  0  0  0  0  0  0  0
  128.4041  133.0565   63.7326 H   0  0  0  0  0  0  0  0  0  0  0  0
  127.9893  129.9452   66.9702 H   0  0  0  0  0  0  0  0  0  0  0  0
  1  2  1  0
  2  3  1  0
  3  4  1  0
  4  5  1  0
  5  6  1  0
  6  7  1  0
  7  8  2  0
  7  9  1  0
  9 10  1  0
 10 11  1  0
  4 12  1  0
 12 13  2  0
 12 14  1  0
 14 15  1  0
 15 16  1  0
 16 17  1  0
 17 18  1  0
 14 19  1  0
 19 20  1  0
 20 21  2  0
 20 22  1  0
 22 23  1  0
 23 24  1  0
 24 25  2  0
 24 26  2  0
 24 27  1  0
 27 28  2  0
 28 29  1  0
 29 30  2  0
 30 31  1  0
 31 32  1  0
 30 33  1  0
 33 34  1  0
 34 35  1  0
 33 36  2  0
 36 27  1  0
  1 37  1  0
  1 38  1  0
  1 39  1  0
  2 40  1  0
  2 41  1  0
  3 42  1  0
  3 43  1  0
  5 44  1  0
  5 45  1  0
  6 46  1  0
  6 47  1  0
 10 48  1  0
 10 49  1  0
 11 50  1  0
 11 51  1  0
 11 52  1  0
 14 53  1  6
 15 54  1  0
 15 55  1  0
 16 56  1  0
 16 57  1  0
 18 58  1  0
 18 59  1  0
 18 60  1  0
 19 61  1  0
 22 62  1  0
 22 63  1  0
 23 64  1  0
 23 65  1  0
 28 66  1  0
 29 67  1  0
 32 68  1  0
 32 69  1  0
 32 70  1  0
 35 71  1  0
 35 72  1  0
 35 73  1  0
 36 74  1  0
M  END
>  <Binding energies>  (1) 
[-6.6]

>  <Ligand effiencies>  (1) 
[-0.17837837837837836]

>  <Interactions>  (1) 
["V-A:ILE:369:CG2:3237, V-A:ASP:366:CA:3210, V-B:PRO:540:CA:9855, H-A:GLU:543:OE2:4910, V-B:GLU:543:CB:9878, V-B:ALA:541:CB:9864, V-B:TYR:539:CE2:9848, V-B:GLU:543:CG:9879, V-A:ASP:366:CG:3213, V-B:TYR:484:CE2:9317, V-B:TYR:539:CZ:9849, H-A:ASN:370:N:3244, H-B:TYR:539:OH:9850, V-A:ALA:541:CB:4892, V-A:GLU:543:CD:4908, H-B:TYR:484:OH:9319, V-B:GLU:543:CA:9876, H-A:GLY:454:N:4050, V-A:ILE:369:CD1:3239, V-A:HIS:456:CE1:4070, V-B:TYR:539:CD2:9846, V-A:GLU:543:CG:4907, V-B:GLU:543:CD:9880, V-A:ASP:366:CB:3212, V-A:LEU:475:CD2:4259, V-A:ARG:545:CZ:4926, H-A:GLU:543:OE1:4909, V-A:GLU:543:CB:4906, V-B:PRO:540:C:9853, H-A:TYR:484:OH:4348"]

$$$$
ZINC1868739865-again1
     RDKit          3D

 69 71  0  0  0  0  0  0  0  0999 V2000
  129.9350  124.7140   67.6500 C   0  0  0  0  0  0  0  0  0  0  0  0
  129.7960  125.0420   66.2720 O   0  0  0  0  0  0  0  0  0  0  0  0
  130.7810  124.6590   65.3800 C   0  0  0  0  0  0  0  0  0  0  0  0
  131.9380  125.4150   65.1200 C   0  0  0  0  0  0  0  0  0  0  0  0
  132.8940  124.9640   64.2120 C   0  0  0  0  0  0  0  0  0  0  0  0
  132.7130  123.7500   63.5480 C   0  0  0  0  0  0  0  0  0  0  0  0
  133.9690  123.1700   62.4120 S   0  0  0  0  0  0  0  0  0  0  0  0
  135.0430  124.1700   62.3750 O   0  0  0  0  0  0  0  0  0  0  0  0
  134.2650  121.7800   62.7760 O   0  0  0  0  0  0  0  0  0  0  0  0
  133.0770  123.1670   60.7420 C   0  0  0  0  0  0  0  0  0  0  0  0
  132.1260  121.9520   60.6310 C   0  0  0  0  0  0  0  0  0  0  0  0
  130.6200  122.2620   60.6870 C   0  0  0  0  0  0  0  0  0  0  0  0
  129.8250  121.3290   60.7980 O   0  0  0  0  0  0  0  0  0  0  0  0
  130.2240  123.5460   60.6000 N   0  0  0  0  0  0  0  0  0  0  0  0
  128.8290  124.0010   60.5600 C   0  0  1  0  0  0  0  0  0  0  0  0
  128.1630  123.6000   61.8880 C   0  0  0  0  0  0  0  0  0  0  0  0
  128.6840  125.5300   60.3090 C   0  0  0  0  0  0  0  0  0  0  0  0
  128.0990  125.8920   59.2840 O   0  0  0  0  0  0  0  0  0  0  0  0
  129.2020  126.4110   61.2090 N   0  0  0  0  0  0  0  0  0  0  0  0
  128.9880  127.8650   61.0550 C   0  0  0  0  0  0  0  0  0  0  0  0
  128.1440  128.3550   62.2560 C   0  0  0  0  0  0  0  0  0  0  0  0
  128.8530  128.0010   63.5830 N   0  0  0  0  0  0  0  0  0  0  0  0
  128.0240  128.5060   64.7860 C   0  0  0  0  0  0  0  0  0  0  0  0
  128.6480  128.1660   66.1280 C   0  0  0  0  0  0  0  0  0  0  0  0
  127.9580  128.0370   67.2770 C   0  0  0  0  0  0  0  0  0  0  0  0
  128.5120  127.7250   68.6120 C   0  0  0  0  0  0  0  0  0  0  0  0
  129.8130  128.0880   68.9870 C   0  0  0  0  0  0  0  0  0  0  0  0
  130.2910  127.7780   70.2590 C   0  0  0  0  0  0  0  0  0  0  0  0
  129.4710  127.1030   71.1580 C   0  0  0  0  0  0  0  0  0  0  0  0
  128.1780  126.7350   70.7970 C   0  0  0  0  0  0  0  0  0  0  0  0
  127.7020  127.0450   69.5270 C   0  0  0  0  0  0  0  0  0  0  0  0
  129.0920  126.4740   63.6500 C   0  0  0  0  0  0  0  0  0  0  0  0
  129.9340  126.0310   62.4330 C   0  0  0  0  0  0  0  0  0  0  0  0
  131.5690  122.9900   63.7970 C   0  0  0  0  0  0  0  0  0  0  0  0
  130.6090  123.4420   64.7060 C   0  0  0  0  0  0  0  0  0  0  0  0
  129.2080  122.4690   64.9880 Cl  0  0  0  0  0  0  0  0  0  0  0  0
  129.5790  125.5540   68.2646 H   0  0  0  0  0  0  0  0  0  0  0  0
  129.3397  123.8168   67.8752 H   0  0  0  0  0  0  0  0  0  0  0  0
  130.9937  124.5177   67.8752 H   0  0  0  0  0  0  0  0  0  0  0  0
  132.0900  126.3728   65.6391 H   0  0  0  0  0  0  0  0  0  0  0  0
  133.7937  125.5665   64.0181 H   0  0  0  0  0  0  0  0  0  0  0  0
  132.4920  124.0933   60.6437 H   0  0  0  0  0  0  0  0  0  0  0  0
  133.8278  123.1022   59.9407 H   0  0  0  0  0  0  0  0  0  0  0  0
  132.3305  121.4520   59.6728 H   0  0  0  0  0  0  0  0  0  0  0  0
  132.3329  121.3338   61.5170 H   0  0  0  0  0  0  0  0  0  0  0  0
  130.9210  124.2700   60.5130 H   0  0  0  0  0  0  0  0  0  0  0  0
  128.3317  123.5183   59.7058 H   0  0  0  0  0  0  0  0  0  0  0  0
  128.7711  123.9661   62.7284 H   0  0  0  0  0  0  0  0  0  0  0  0
  127.1576  124.0431   61.9425 H   0  0  0  0  0  0  0  0  0  0  0  0
  128.0842  122.5042   61.9425 H   0  0  0  0  0  0  0  0  0  0  0  0
  129.9570  128.3855   61.0428 H   0  0  0  0  0  0  0  0  0  0  0  0
  128.4659  128.0760   60.1101 H   0  0  0  0  0  0  0  0  0  0  0  0
  128.0174  129.4457   62.1908 H   0  0  0  0  0  0  0  0  0  0  0  0
  127.1610  127.8620   62.2303 H   0  0  0  0  0  0  0  0  0  0  0  0
  129.7500  128.4650   63.5890 H   0  0  0  0  0  0  0  0  0  0  0  0
  127.9299  129.5994   64.7113 H   0  0  0  0  0  0  0  0  0  0  0  0
  127.0466  128.0031   64.7434 H   0  0  0  0  0  0  0  0  0  0  0  0
  129.7370  128.0149   66.1638 H   0  0  0  0  0  0  0  0  0  0  0  0
  126.8688  128.1784   67.2162 H   0  0  0  0  0  0  0  0  0  0  0  0
  130.4598  128.6201   68.2739 H   0  0  0  0  0  0  0  0  0  0  0  0
  131.3118  128.0656   70.5509 H   0  0  0  0  0  0  0  0  0  0  0  0
  129.8476  126.8582   72.1621 H   0  0  0  0  0  0  0  0  0  0  0  0
  127.5354  126.2014   71.5127 H   0  0  0  0  0  0  0  0  0  0  0  0
  126.6809  126.7531   69.2404 H   0  0  0  0  0  0  0  0  0  0  0  0
  129.6298  126.2273   64.5773 H   0  0  0  0  0  0  0  0  0  0  0  0
  128.1247  125.9504   63.6369 H   0  0  0  0  0  0  0  0  0  0  0  0
  130.9126  126.5329   62.4536 H   0  0  0  0  0  0  0  0  0  0  0  0
  130.0985  124.9437   62.4577 H   0  0  0  0  0  0  0  0  0  0  0  0
  131.4228  122.0323   63.2760 H   0  0  0  0  0  0  0  0  0  0  0  0
  1  2  1  0
  2  3  1  0
  3  4  2  0
  4  5  1  0
  5  6  2  0
  6  7  1  0
  7  8  2  0
  7  9  2  0
  7 10  1  0
 10 11  1  0
 11 12  1  0
 12 13  2  0
 12 14  1  0
 14 15  1  0
 15 16  1  0
 15 17  1  0
 17 18  2  0
 17 19  1  0
 19 20  1  0
 20 21  1  0
 21 22  1  0
 22 23  1  0
 23 24  1  0
 24 25  2  0
 25 26  1  0
 26 27  2  0
 27 28  1  0
 28 29  2  0
 29 30  1  0
 30 31  2  0
 22 32  1  0
 32 33  1  0
  6 34  1  0
 34 35  2  0
 35 36  1  0
 35  3  1  0
 33 19  1  0
 31 26  1  0
  1 37  1  0
  1 38  1  0
  1 39  1  0
  4 40  1  0
  5 41  1  0
 10 42  1  0
 10 43  1  0
 11 44  1  0
 11 45  1  0
 14 46  1  0
 15 47  1  6
 16 48  1  0
 16 49  1  0
 16 50  1  0
 20 51  1  0
 20 52  1  0
 21 53  1  0
 21 54  1  0
 22 55  1  0
 23 56  1  0
 23 57  1  0
 24 58  1  0
 25 59  1  0
 27 60  1  0
 28 61  1  0
 29 62  1  0
 30 63  1  0
 31 64  1  0
 32 65  1  0
 32 66  1  0
 33 67  1  0
 33 68  1  0
 34 69  1  0
M  CHG  1  22   1
M  END
>  <Binding energies>  (1) 
[-8.5]

>  <Ligand effiencies>  (1) 
[-0.2236842105263158]

>  <Interactions>  (1) 
["V-A:ILE:369:CG2:3237, V-A:GLY:454:CA:4049, V-B:GLU:543:C:9874, H-A:GLU:543:OE2:4910, V-A:GLU:543:C:4902, V-B:GLU:543:CB:9878, V-B:ALA:541:CB:9864, V-B:TYR:539:CE2:9848, V-A:TYR:484:CE2:4346, V-B:GLU:543:CG:9879, V-A:HIS:456:CD2:4068, V-A:GLU:543:CD:4908, V-A:TYR:484:CZ:4347, V-B:GLU:543:CA:9876, H-A:GLY:454:N:4050, V-B:HIS:456:CE1:9041, V-A:ILE:369:CD1:3239, V-A:HIS:456:CE1:4070, V-B:TYR:539:CD2:9846, V-A:GLU:543:CG:4907, V-B:GLU:543:CD:9880, V-A:LEU:475:CD2:4259, V-A:ARG:545:CZ:4926, H-A:GLU:543:OE1:4909, V-A:GLU:543:CB:4906"]

$$$$
ZINC1868740615
     RDKit          3D

 72 72  0  0  0  0  0  0  0  0999 V2000
  128.2970  127.9470   56.4020 C   0  0  0  0  0  0  0  0  0  0  0  0
  129.4890  126.9860   56.5150 C   0  0  0  0  0  0  0  0  0  0  0  0
  130.1620  126.9550   57.9070 C   0  0  0  0  0  0  0  0  0  0  0  0
  129.6440  125.9150   58.8180 N   0  0  0  0  0  0  0  0  0  0  0  0
  130.6670  124.9430   59.2640 C   0  0  0  0  0  0  0  0  0  0  0  0
  132.1310  125.4590   59.2840 C   0  0  0  0  0  0  0  0  0  0  0  0
  133.1830  124.3930   58.9440 C   0  0  0  0  0  0  0  0  0  0  0  0
  133.6310  124.2740   57.8020 O   0  0  0  0  0  0  0  0  0  0  0  0
  133.4920  123.6190   60.0040 O   0  0  0  0  0  0  0  0  0  0  0  0
  134.2200  124.1540   61.1020 C   0  0  0  0  0  0  0  0  0  0  0  0
  134.2530  123.1270   62.2390 C   0  0  0  0  0  0  0  0  0  0  0  0
  128.3990  125.9190   59.3740 C   0  0  0  0  0  0  0  0  0  0  0  0
  127.7370  126.9530   59.5030 O   0  0  0  0  0  0  0  0  0  0  0  0
  127.7930  124.5880   59.9200 C   0  0  2  0  0  0  0  0  0  0  0  0
  128.4460  124.1620   61.1660 N   0  0  0  0  0  0  0  0  0  0  0  0
  127.9430  123.3560   62.1200 C   0  0  0  0  0  0  0  0  0  0  0  0
  126.8170  122.8630   62.0730 O   0  0  0  0  0  0  0  0  0  0  0  0
  128.8680  123.0510   63.3040 C   0  0  0  0  0  0  0  0  0  0  0  0
  130.3610  123.2710   62.9850 C   0  0  0  0  0  0  0  0  0  0  0  0
  130.8330  125.0880   63.2250 S   0  0  0  0  0  0  0  0  0  0  0  0
  132.2950  125.2090   63.1780 O   0  0  0  0  0  0  0  0  0  0  0  0
  129.9990  125.9010   62.3340 O   0  0  0  0  0  0  0  0  0  0  0  0
  130.3100  125.4420   64.9030 C   0  0  0  0  0  0  0  0  0  0  0  0
  130.7090  124.6130   65.9520 C   0  0  0  0  0  0  0  0  0  0  0  0
  130.2870  124.8890   67.2500 C   0  0  0  0  0  0  0  0  0  0  0  0
  129.4650  125.9890   67.5080 C   0  0  0  0  0  0  0  0  0  0  0  0
  129.1010  126.1740   68.8560 N   0  0  0  0  0  0  0  0  0  0  0  0
  128.9930  127.3110   69.5770 C   0  0  0  0  0  0  0  0  0  0  0  0
  128.5800  127.1290   71.0350 C   0  0  0  0  0  0  0  0  0  0  0  0
  129.1930  128.4500   69.1580 O   0  0  0  0  0  0  0  0  0  0  0  0
  129.0650  126.8190   66.4470 C   0  0  0  0  0  0  0  0  0  0  0  0
  129.4880  126.5410   65.1480 C   0  0  0  0  0  0  0  0  0  0  0  0
  127.7710  123.4720   58.8110 C   0  0  0  0  0  0  0  0  0  0  0  0
  126.3640  123.2030   58.2270 C   0  0  0  0  0  0  0  0  0  0  0  0
  128.3660  122.1380   59.3080 C   0  0  0  0  0  0  0  0  0  0  0  0
  127.9529  128.2244   57.4093 H   0  0  0  0  0  0  0  0  0  0  0  0
  128.6057  128.8518   55.8579 H   0  0  0  0  0  0  0  0  0  0  0  0
  127.4783  127.4533   55.8579 H   0  0  0  0  0  0  0  0  0  0  0  0
  129.1344  125.9709   56.2828 H   0  0  0  0  0  0  0  0  0  0  0  0
  130.2502  127.3495   55.8090 H   0  0  0  0  0  0  0  0  0  0  0  0
  131.2385  126.7801   57.7636 H   0  0  0  0  0  0  0  0  0  0  0  0
  129.9410  127.9226   58.3813 H   0  0  0  0  0  0  0  0  0  0  0  0
  130.4077  124.6257   60.2848 H   0  0  0  0  0  0  0  0  0  0  0  0
  130.6483  124.1306   58.5226 H   0  0  0  0  0  0  0  0  0  0  0  0
  132.2185  126.2749   58.5514 H   0  0  0  0  0  0  0  0  0  0  0  0
  132.3354  125.7850   60.3145 H   0  0  0  0  0  0  0  0  0  0  0  0
  135.2479  124.3830   60.7843 H   0  0  0  0  0  0  0  0  0  0  0  0
  133.7320  125.0753   61.4528 H   0  0  0  0  0  0  0  0  0  0  0  0
  134.2362  123.6503   63.2064 H   0  0  0  0  0  0  0  0  0  0  0  0
  133.3756  122.4679   62.1634 H   0  0  0  0  0  0  0  0  0  0  0  0
  135.1709  122.5256   62.1634 H   0  0  0  0  0  0  0  0  0  0  0  0
  126.7422  124.7760   60.1856 H   0  0  0  0  0  0  0  0  0  0  0  0
  129.3830  124.5170   61.2910 H   0  0  0  0  0  0  0  0  0  0  0  0
  128.5899  123.7068   64.1422 H   0  0  0  0  0  0  0  0  0  0  0  0
  128.7412  121.9865   63.5504 H   0  0  0  0  0  0  0  0  0  0  0  0
  130.9698  122.6477   63.6565 H   0  0  0  0  0  0  0  0  0  0  0  0
  130.5443  122.9925   61.9367 H   0  0  0  0  0  0  0  0  0  0  0  0
  131.3546  123.7446   65.7544 H   0  0  0  0  0  0  0  0  0  0  0  0
  130.6028  124.2368   68.0776 H   0  0  0  0  0  0  0  0  0  0  0  0
  128.8830  125.3180   69.3450 H   0  0  0  0  0  0  0  0  0  0  0  0
  129.3874  127.4848   71.6919 H   0  0  0  0  0  0  0  0  0  0  0  0
  127.6653  127.7074   71.2319 H   0  0  0  0  0  0  0  0  0  0  0  0
  128.3897  126.0636   71.2319 H   0  0  0  0  0  0  0  0  0  0  0  0
  128.4185  127.6875   66.6413 H   0  0  0  0  0  0  0  0  0  0  0  0
  129.1732  127.1887   64.3165 H   0  0  0  0  0  0  0  0  0  0  0  0
  128.4020  123.8794   58.0074 H   0  0  0  0  0  0  0  0  0  0  0  0
  125.6460  123.0657   59.0489 H   0  0  0  0  0  0  0  0  0  0  0  0
  126.0541  124.0582   57.6084 H   0  0  0  0  0  0  0  0  0  0  0  0
  126.3914  122.2938   57.6084 H   0  0  0  0  0  0  0  0  0  0  0  0
  128.3713  122.1261   60.4079 H   0  0  0  0  0  0  0  0  0  0  0  0
  127.7552  121.3026   58.9352 H   0  0  0  0  0  0  0  0  0  0  0  0
  129.3957  122.0343   58.9352 H   0  0  0  0  0  0  0  0  0  0  0  0
  1  2  1  0
  2  3  1  0
  3  4  1  0
  4  5  1  0
  5  6  1  0
  6  7  1  0
  7  8  2  0
  7  9  1  0
  9 10  1  0
 10 11  1  0
  4 12  1  0
 12 13  2  0
 12 14  1  0
 14 15  1  0
 15 16  1  0
 16 17  2  0
 16 18  1  0
 18 19  1  0
 19 20  1  0
 20 21  2  0
 20 22  2  0
 20 23  1  0
 23 24  2  0
 24 25  1  0
 25 26  2  0
 26 27  1  0
 27 28  1  0
 28 29  1  0
 28 30  2  0
 26 31  1  0
 31 32  2  0
 14 33  1  0
 33 34  1  0
 33 35  1  0
 32 23  1  0
  1 36  1  0
  1 37  1  0
  1 38  1  0
  2 39  1  0
  2 40  1  0
  3 41  1  0
  3 42  1  0
  5 43  1  0
  5 44  1  0
  6 45  1  0
  6 46  1  0
 10 47  1  0
 10 48  1  0
 11 49  1  0
 11 50  1  0
 11 51  1  0
 14 52  1  1
 15 53  1  0
 18 54  1  0
 18 55  1  0
 19 56  1  0
 19 57  1  0
 24 58  1  0
 25 59  1  0
 27 60  1  0
 29 61  1  0
 29 62  1  0
 29 63  1  0
 31 64  1  0
 32 65  1  0
 33 66  1  0
 34 67  1  0
 34 68  1  0
 34 69  1  0
 35 70  1  0
 35 71  1  0
 35 72  1  0
M  END
>  <Binding energies>  (1) 
[-6.14]

>  <Ligand effiencies>  (1) 
[-0.16594594594594594]

>  <Interactions>  (1) 
["V-A:ILE:369:CG2:3237, V-A:ASP:366:CA:3210, V-B:PRO:540:CA:9855, V-A:GLY:454:CA:4049, V-B:GLU:543:C:9874, H-B:GLU:543:O:9875, V-B:GLU:543:CB:9878, V-B:ALA:541:CB:9864, V-B:TYR:539:CE2:9848, V-A:TYR:484:CE2:4346, V-B:GLU:543:CG:9879, V-B:TYR:539:C:9839, V-A:ASP:366:CG:3213, H-B:TYR:539:OH:9850, H-B:ALA:541:N:9863, V-A:TYR:484:CZ:4347, V-A:GLU:543:CD:4908, V-B:PRO:540:CB:9857, V-B:GLU:543:CA:9876, V-B:HIS:456:CE1:9041, V-B:PRO:540:N:9856, V-A:ILE:369:CD1:3239, V-A:HIS:456:CE1:4070, V-B:TYR:539:CD2:9846, V-A:MET:535:CE:4835, V-B:GLU:543:CD:9880, V-A:ASP:366:CB:3212, H-A:ARG:545:NH2:4928, V-B:TYR:539:CG:9844, H-A:HIS:456:NE2:4071"]

$$$$
ZINC1868790431
     RDKit          3D

 65 66  0  0  0  0  0  0  0  0999 V2000
  125.4190  125.7290   58.1340 C   0  0  0  0  0  0  0  0  0  0  0  0
  125.3850  124.4560   57.7120 C   0  0  0  0  0  0  0  0  0  0  0  0
  125.9150  123.2760   58.5070 C   0  0  0  0  0  0  0  0  0  0  0  0
  127.3800  123.1480   58.4440 N   0  0  0  0  0  0  0  0  0  0  0  0
  127.9130  123.1500   57.0740 C   0  0  0  0  0  0  0  0  0  0  0  0
  128.2720  124.5400   56.5840 C   0  0  0  0  0  0  0  0  0  0  0  0
  129.3460  125.2360   56.9870 C   0  0  0  0  0  0  0  0  0  0  0  0
  128.1990  122.9770   59.5190 C   0  0  0  0  0  0  0  0  0  0  0  0
  129.4170  122.8100   59.4040 O   0  0  0  0  0  0  0  0  0  0  0  0
  127.6020  123.0190   60.9590 C   0  0  1  0  0  0  0  0  0  0  0  0
  128.3710  122.1520   62.0020 C   0  0  0  0  0  0  0  0  0  0  0  0
  129.6710  122.8070   62.4650 C   0  0  0  0  0  0  0  0  0  0  0  0
  130.2370  122.4520   63.6910 C   0  0  0  0  0  0  0  0  0  0  0  0
  131.4120  123.0630   64.1180 C   0  0  0  0  0  0  0  0  0  0  0  0
  132.0330  124.0220   63.3110 C   0  0  0  0  0  0  0  0  0  0  0  0
  133.1790  124.6590   63.7350 O   0  0  0  0  0  0  0  0  0  0  0  0
  133.3260  124.9740   65.0490 C   0  0  0  0  0  0  0  0  0  0  0  0
  132.0230  125.4640   65.6690 C   0  0  0  0  0  0  0  0  0  0  0  0
  134.3600  124.8970   65.7180 O   0  0  0  0  0  0  0  0  0  0  0  0
  131.4660  124.3790   62.0870 C   0  0  0  0  0  0  0  0  0  0  0  0
  130.2890  123.7680   61.6610 C   0  0  0  0  0  0  0  0  0  0  0  0
  127.4060  124.3960   61.4290 N   0  0  0  0  0  0  0  0  0  0  0  0
  127.7670  125.5220   60.7900 C   0  0  0  0  0  0  0  0  0  0  0  0
  128.3090  125.5370   59.6850 O   0  0  0  0  0  0  0  0  0  0  0  0
  127.4780  126.8450   61.5120 C   0  0  0  0  0  0  0  0  0  0  0  0
  128.7440  127.5250   62.0730 C   0  0  0  0  0  0  0  0  0  0  0  0
  129.4320  126.5750   63.5610 S   0  0  0  0  0  0  0  0  0  0  0  0
  128.8080  125.2470   63.5980 O   0  0  0  0  0  0  0  0  0  0  0  0
  130.8940  126.7020   63.5760 O   0  0  0  0  0  0  0  0  0  0  0  0
  128.8020  127.5040   64.9550 C   0  0  0  0  0  0  0  0  0  0  0  0
  128.0850  128.6860   64.7420 C   0  0  0  0  0  0  0  0  0  0  0  0
  127.5850  129.4050   65.8270 C   0  0  0  0  0  0  0  0  0  0  0  0
  127.7970  128.9460   67.1280 C   0  0  0  0  0  0  0  0  0  0  0  0
  128.5120  127.7660   67.3440 C   0  0  0  0  0  0  0  0  0  0  0  0
  128.7720  127.1980   68.9520 Cl  0  0  0  0  0  0  0  0  0  0  0  0
  129.0130  127.0450   66.2590 C   0  0  0  0  0  0  0  0  0  0  0  0
  125.0138  126.5301   57.4984 H   0  0  0  0  0  0  0  0  0  0  0  0
  125.8521  125.9716   59.1156 H   0  0  0  0  0  0  0  0  0  0  0  0
  124.9440  124.2537   56.7248 H   0  0  0  0  0  0  0  0  0  0  0  0
  125.6196  123.4018   59.5591 H   0  0  0  0  0  0  0  0  0  0  0  0
  125.4870  122.3642   58.0650 H   0  0  0  0  0  0  0  0  0  0  0  0
  128.8171  122.5239   57.0479 H   0  0  0  0  0  0  0  0  0  0  0  0
  127.1261  122.7590   56.4123 H   0  0  0  0  0  0  0  0  0  0  0  0
  127.6050  125.0104   55.8465 H   0  0  0  0  0  0  0  0  0  0  0  0
  129.5342  126.2409   56.5811 H   0  0  0  0  0  0  0  0  0  0  0  0
  130.0383  124.8017   57.7233 H   0  0  0  0  0  0  0  0  0  0  0  0
  126.6127  122.5461   60.8715 H   0  0  0  0  0  0  0  0  0  0  0  0
  127.7233  121.9968   62.8774 H   0  0  0  0  0  0  0  0  0  0  0  0
  128.6317  121.1998   61.5168 H   0  0  0  0  0  0  0  0  0  0  0  0
  129.7540  121.6892   64.3194 H   0  0  0  0  0  0  0  0  0  0  0  0
  131.8520  122.7921   65.0891 H   0  0  0  0  0  0  0  0  0  0  0  0
  132.1044  125.4334   66.7656 H   0  0  0  0  0  0  0  0  0  0  0  0
  131.8282  126.4968   65.3445 H   0  0  0  0  0  0  0  0  0  0  0  0
  131.1959  124.8155   65.3445 H   0  0  0  0  0  0  0  0  0  0  0  0
  131.9483  125.1425   61.4589 H   0  0  0  0  0  0  0  0  0  0  0  0
  129.8463  124.0420   60.6920 H   0  0  0  0  0  0  0  0  0  0  0  0
  126.9690  124.4770   62.3350 H   0  0  0  0  0  0  0  0  0  0  0  0
  126.9986  127.5333   60.8004 H   0  0  0  0  0  0  0  0  0  0  0  0
  126.8272  126.6129   62.3679 H   0  0  0  0  0  0  0  0  0  0  0  0
  129.5107  127.5611   61.2850 H   0  0  0  0  0  0  0  0  0  0  0  0
  128.4767  128.5401   62.4019 H   0  0  0  0  0  0  0  0  0  0  0  0
  127.9154  129.0487   63.7175 H   0  0  0  0  0  0  0  0  0  0  0  0
  127.0228  130.3351   65.6574 H   0  0  0  0  0  0  0  0  0  0  0  0
  127.4010  129.5136   67.9830 H   0  0  0  0  0  0  0  0  0  0  0  0
  129.5745  126.1146   66.4298 H   0  0  0  0  0  0  0  0  0  0  0  0
  1  2  2  0
  2  3  1  0
  3  4  1  0
  4  5  1  0
  5  6  1  0
  6  7  2  0
  4  8  1  0
  8  9  2  0
  8 10  1  0
 10 11  1  0
 11 12  1  0
 12 13  2  0
 13 14  1  0
 14 15  2  0
 15 16  1  0
 16 17  1  0
 17 18  1  0
 17 19  2  0
 15 20  1  0
 20 21  2  0
 10 22  1  0
 22 23  1  0
 23 24  2  0
 23 25  1  0
 25 26  1  0
 26 27  1  0
 27 28  2  0
 27 29  2  0
 27 30  1  0
 30 31  2  0
 31 32  1  0
 32 33  2  0
 33 34  1  0
 34 35  1  0
 34 36  2  0
 21 12  1  0
 36 30  1  0
  1 37  1  0
  1 38  1  0
  2 39  1  0
  3 40  1  0
  3 41  1  0
  5 42  1  0
  5 43  1  0
  6 44  1  0
  7 45  1  0
  7 46  1  0
 10 47  1  6
 11 48  1  0
 11 49  1  0
 13 50  1  0
 14 51  1  0
 18 52  1  0
 18 53  1  0
 18 54  1  0
 20 55  1  0
 21 56  1  0
 22 57  1  0
 25 58  1  0
 25 59  1  0
 26 60  1  0
 26 61  1  0
 31 62  1  0
 32 63  1  0
 33 64  1  0
 36 65  1  0
M  END
>  <Binding energies>  (1) 
[-7.08]

>  <Ligand effiencies>  (1) 
[-0.19135135135135134]

>  <Interactions>  (1) 
["V-B:PRO:540:CA:9855, V-B:GLU:543:CB:9878, V-B:ASP:366:CG:8184, V-B:ALA:541:CB:9864, V-B:TYR:539:CE2:9848, V-B:GLU:543:CG:9879, V-B:TYR:539:CZ:9849, H-B:GLU:543:OE1:9881, V-B:TYR:531:CZ:9766, V-B:TYR:531:CE2:9765, V-B:ASP:366:CB:8183, V-B:PRO:540:CB:9857, V-A:GLU:543:CD:4908, V-B:HIS:456:CE1:9041, H-A:GLY:454:N:4050, V-B:PRO:540:N:9856, V-B:TYR:484:CZ:9318, V-B:TYR:539:CD2:9846, V-A:GLU:543:CG:4907, V-B:GLU:543:CD:9880, V-A:ARG:545:CD:4923, V-A:LEU:475:CD2:4259, H-A:ARG:545:NH2:4928, V-A:ARG:545:CZ:4926, V-B:TYR:539:CG:9844, V-A:GLU:543:CB:4906, V-B:TYR:539:CD1:9845, H-A:ARG:545:NE:4924, V-B:PRO:540:C:9853, V-B:ALA:541:CA:9862, V-B:TYR:539:CE1:9847, H-A:TYR:484:OH:4348"]

$$$$
ZINC1868796291
     RDKit          3D

 76 79  0  0  0  0  0  0  0  0999 V2000
  126.8200  128.5570   74.4500 C   0  0  0  0  0  0  0  0  0  0  0  0
  128.1730  129.1830   74.0700 C   0  0  0  0  0  0  0  0  0  0  0  0
  128.9750  128.3080   73.2070 N   0  0  0  0  0  0  0  0  0  0  0  0
  130.0420  129.0450   72.5230 C   0  0  0  0  0  0  0  0  0  0  0  0
  130.9110  128.1130   71.6490 C   0  0  0  0  0  0  0  0  0  0  0  0
  130.0370  127.3580   70.7250 N   0  0  0  0  0  0  0  0  0  0  0  0
  130.3450  127.3040   69.3980 C   0  0  0  0  0  0  0  0  0  0  0  0
  131.3010  127.9160   68.9080 O   0  0  0  0  0  0  0  0  0  0  0  0
  129.4570  126.4720   68.4270 C   0  0  1  0  0  0  0  0  0  0  0  0
  128.1000  127.1870   68.1850 C   0  0  0  0  0  0  0  0  0  0  0  0
  128.1380  128.0950   66.9610 C   0  0  0  0  0  0  0  0  0  0  0  0
  127.9570  129.4740   67.1040 C   0  0  0  0  0  0  0  0  0  0  0  0
  128.0040  130.3010   65.9840 C   0  0  0  0  0  0  0  0  0  0  0  0
  128.2180  129.7490   64.7190 C   0  0  0  0  0  0  0  0  0  0  0  0
  128.2880  130.5610   63.6100 O   0  0  0  0  0  0  0  0  0  0  0  0
  128.6260  131.8690   63.7610 C   0  0  0  0  0  0  0  0  0  0  0  0
  129.9240  132.2110   63.0390 C   0  0  0  0  0  0  0  0  0  0  0  0
  128.0040  132.7270   64.3900 O   0  0  0  0  0  0  0  0  0  0  0  0
  128.4070  128.3720   64.5770 C   0  0  0  0  0  0  0  0  0  0  0  0
  128.3620  127.5460   65.6960 C   0  0  0  0  0  0  0  0  0  0  0  0
  130.1300  126.1740   67.1550 N   0  0  0  0  0  0  0  0  0  0  0  0
  130.1110  124.9900   66.5190 C   0  0  0  0  0  0  0  0  0  0  0  0
  129.4900  124.0130   66.9430 O   0  0  0  0  0  0  0  0  0  0  0  0
  130.9110  124.9070   65.2020 C   0  0  0  0  0  0  0  0  0  0  0  0
  132.4100  125.1240   65.5070 C   0  0  0  0  0  0  0  0  0  0  0  0
  133.2240  125.0060   64.2000 C   0  0  0  0  0  0  0  0  0  0  0  0
  133.0130  123.7150   63.5160 N   0  0  0  0  0  0  0  0  0  0  0  0
  133.7910  123.5330   62.2780 C   0  0  1  0  0  0  0  0  0  0  0  0
  133.9200  122.1000   61.9380 C   0  0  0  0  0  0  0  0  0  0  0  0
  134.0210  120.9770   61.6750 N   0  0  0  0  0  0  0  0  0  0  0  0
  133.2620  124.3600   61.1110 C   0  0  0  0  0  0  0  0  0  0  0  0
  132.3970  125.4550   61.1600 C   0  0  0  0  0  0  0  0  0  0  0  0
  132.0950  126.0190   59.9180 C   0  0  0  0  0  0  0  0  0  0  0  0
  132.7280  125.3720   58.8750 C   0  0  0  0  0  0  0  0  0  0  0  0
  133.7030  124.0590   59.4420 S   0  0  0  0  0  0  0  0  0  0  0  0
  131.5910  123.3910   63.3110 C   0  0  0  0  0  0  0  0  0  0  0  0
  130.7680  123.4870   64.6140 C   0  0  0  0  0  0  0  0  0  0  0  0
  128.8840  126.6590   71.3310 C   0  0  0  0  0  0  0  0  0  0  0  0
  128.1060  127.6490   72.2270 C   0  0  0  0  0  0  0  0  0  0  0  0
  126.7300  128.5154   75.5455 H   0  0  0  0  0  0  0  0  0  0  0  0
  126.0042  129.1691   74.0381 H   0  0  0  0  0  0  0  0  0  0  0  0
  126.7584  127.5389   74.0381 H   0  0  0  0  0  0  0  0  0  0  0  0
  127.9875  130.1283   73.5389 H   0  0  0  0  0  0  0  0  0  0  0  0
  128.7388  129.3452   74.9993 H   0  0  0  0  0  0  0  0  0  0  0  0
  129.5887  129.8150   71.8814 H   0  0  0  0  0  0  0  0  0  0  0  0
  130.6891  129.4998   73.2875 H   0  0  0  0  0  0  0  0  0  0  0  0
  131.6270  128.7142   71.0694 H   0  0  0  0  0  0  0  0  0  0  0  0
  131.4624  127.4114   72.2922 H   0  0  0  0  0  0  0  0  0  0  0  0
  129.2682  125.5035   68.9132 H   0  0  0  0  0  0  0  0  0  0  0  0
  127.3198  126.4257   68.0373 H   0  0  0  0  0  0  0  0  0  0  0  0
  127.8868  127.8134   69.0638 H   0  0  0  0  0  0  0  0  0  0  0  0
  127.7777  129.9054   68.0998 H   0  0  0  0  0  0  0  0  0  0  0  0
  127.8727  131.3874   66.0957 H   0  0  0  0  0  0  0  0  0  0  0  0
  130.7113  132.4184   63.7787 H   0  0  0  0  0  0  0  0  0  0  0  0
  130.2276  131.3622   62.4086 H   0  0  0  0  0  0  0  0  0  0  0  0
  129.7699  133.0992   62.4086 H   0  0  0  0  0  0  0  0  0  0  0  0
  128.5912  127.9413   63.5817 H   0  0  0  0  0  0  0  0  0  0  0  0
  128.5028  126.4608   65.5845 H   0  0  0  0  0  0  0  0  0  0  0  0
  130.6590  126.9360   66.7550 H   0  0  0  0  0  0  0  0  0  0  0  0
  130.5351  125.6666   64.5008 H   0  0  0  0  0  0  0  0  0  0  0  0
  132.5549  126.1248   65.9400 H   0  0  0  0  0  0  0  0  0  0  0  0
  132.7526  124.3617   66.2222 H   0  0  0  0  0  0  0  0  0  0  0  0
  132.9218  125.8178   63.5220 H   0  0  0  0  0  0  0  0  0  0  0  0
  134.2899  125.0739   64.4633 H   0  0  0  0  0  0  0  0  0  0  0  0
  134.8006  123.9220   62.4767 H   0  0  0  0  0  0  0  0  0  0  0  0
  131.9853  125.8434   62.1032 H   0  0  0  0  0  0  0  0  0  0  0  0
  131.4270  126.8828   59.7855 H   0  0  0  0  0  0  0  0  0  0  0  0
  132.6255  125.6554   57.8171 H   0  0  0  0  0  0  0  0  0  0  0  0
  131.1715  124.0941   62.5764 H   0  0  0  0  0  0  0  0  0  0  0  0
  131.5333  122.3517   62.9554 H   0  0  0  0  0  0  0  0  0  0  0  0
  129.7091  123.2841   64.3960 H   0  0  0  0  0  0  0  0  0  0  0  0
  131.1380  122.7478   65.3398 H   0  0  0  0  0  0  0  0  0  0  0  0
  128.2223  126.2830   70.5368 H   0  0  0  0  0  0  0  0  0  0  0  0
  129.2404  125.8127   71.9366 H   0  0  0  0  0  0  0  0  0  0  0  0
  127.6448  128.4173   71.5890 H   0  0  0  0  0  0  0  0  0  0  0  0
  127.3449  127.0786   72.7796 H   0  0  0  0  0  0  0  0  0  0  0  0
  1  2  1  0
  2  3  1  0
  3  4  1  0
  4  5  1  0
  5  6  1  0
  6  7  1  0
  7  8  2  0
  7  9  1  0
  9 10  1  0
 10 11  1  0
 11 12  2  0
 12 13  1  0
 13 14  2  0
 14 15  1  0
 15 16  1  0
 16 17  1  0
 16 18  2  0
 14 19  1  0
 19 20  2  0
  9 21  1  0
 21 22  1  0
 22 23  2  0
 22 24  1  0
 24 25  1  0
 25 26  1  0
 26 27  1  0
 27 28  1  0
 28 29  1  0
 29 30  3  0
 28 31  1  0
 31 32  2  0
 32 33  1  0
 33 34  2  0
 34 35  1  0
 27 36  1  0
 36 37  1  0
  6 38  1  0
 38 39  1  0
 39  3  1  0
 20 11  1  0
 37 24  1  0
 35 31  1  0
  1 40  1  0
  1 41  1  0
  1 42  1  0
  2 43  1  0
  2 44  1  0
  4 45  1  0
  4 46  1  0
  5 47  1  0
  5 48  1  0
  9 49  1  1
 10 50  1  0
 10 51  1  0
 12 52  1  0
 13 53  1  0
 17 54  1  0
 17 55  1  0
 17 56  1  0
 19 57  1  0
 20 58  1  0
 21 59  1  0
 24 60  1  0
 25 61  1  0
 25 62  1  0
 26 63  1  0
 26 64  1  0
 28 65  1  1
 32 66  1  0
 33 67  1  0
 34 68  1  0
 36 69  1  0
 36 70  1  0
 37 71  1  0
 37 72  1  0
 38 73  1  0
 38 74  1  0
 39 75  1  0
 39 76  1  0
M  END
>  <Binding energies>  (1) 
[-9.32]

>  <Ligand effiencies>  (1) 
[-0.233]

>  <Interactions>  (1) 
["V-A:ILE:369:CG2:3237, V-A:ASP:366:CA:3210, V-A:GLY:454:CA:4049, V-B:HIS:456:CD2:9039, H-A:GLU:543:OE2:4910, V-A:GLU:543:C:4902, V-A:ILE:369:CB:3236, V-B:GLU:543:CB:9878, V-B:HIS:456:CB:9036, V-B:TYR:539:CE2:9848, V-A:TYR:484:CE2:4346, V-A:GLY:544:CA:4914, V-A:GLY:544:C:4912, V-B:GLU:543:CG:9879, V-A:ASP:366:CG:3213, V-B:TYR:484:CE2:9317, V-A:ALA:541:CB:4892, V-A:GLU:543:CD:4908, V-A:TYR:484:CZ:4347, H-B:TYR:484:OH:9319, V-B:HIS:456:CE1:9041, H-A:GLY:454:N:4050, V-A:HIS:456:CE1:4070, V-B:TYR:484:CZ:9318, V-A:ILE:369:CD1:3239, V-A:ALA:541:CA:4890, V-A:GLU:543:CG:4907, H-A:SER:385:OG:3410, V-B:GLU:543:CD:9880, V-B:HIS:456:CG:9037, V-A:ASP:366:CB:3212, V-A:LEU:475:CD2:4259, V-A:ARG:545:CZ:4926, H-A:GLU:543:OE1:4909, V-A:GLU:543:CB:4906, H-A:TYR:484:OH:4348"]

$$$$
ZINC1868921547
     RDKit          3D

 73 74  0  0  0  0  0  0  0  0999 V2000
  133.6290  131.8340   61.4320 C   0  0  0  0  0  0  0  0  0  0  0  0
  132.2680  131.2260   61.7820 C   0  0  0  0  0  0  0  0  0  0  0  0
  131.4580  132.2070   62.4150 O   0  0  0  0  0  0  0  0  0  0  0  0
  130.1140  132.1090   62.3850 C   0  0  0  0  0  0  0  0  0  0  0  0
  129.3770  132.0350   63.3720 O   0  0  0  0  0  0  0  0  0  0  0  0
  129.5820  132.0640   60.9360 C   0  0  0  0  0  0  0  0  0  0  0  0
  129.2380  130.7000   60.4700 N   0  0  0  0  0  0  0  0  0  0  0  0
  128.9740  130.6110   59.0210 C   0  0  0  0  0  0  0  0  0  0  0  0
  129.9960  131.3350   58.1530 C   0  0  0  0  0  0  0  0  0  0  0  0
  131.3560  131.0390   58.2800 C   0  0  0  0  0  0  0  0  0  0  0  0
  132.2870  131.7010   57.4850 C   0  0  0  0  0  0  0  0  0  0  0  0
  131.8550  132.6480   56.5600 C   0  0  0  0  0  0  0  0  0  0  0  0
  130.4990  132.9390   56.4200 C   0  0  0  0  0  0  0  0  0  0  0  0
  129.5670  132.2780   57.2160 C   0  0  0  0  0  0  0  0  0  0  0  0
  129.2740  129.5800   61.2490 C   0  0  0  0  0  0  0  0  0  0  0  0
  128.5810  129.4710   62.2650 O   0  0  0  0  0  0  0  0  0  0  0  0
  130.2760  128.4470   60.9080 C   0  0  0  0  0  0  0  0  0  0  0  0
  130.5870  127.6420   62.0910 N   0  0  0  0  0  0  0  0  0  0  0  0
  131.1920  126.4420   62.0570 C   0  0  0  0  0  0  0  0  0  0  0  0
  131.5770  125.9080   61.0170 O   0  0  0  0  0  0  0  0  0  0  0  0
  131.3810  125.7270   63.3980 C   0  0  0  0  0  0  0  0  0  0  0  0
  130.0980  125.6840   64.2610 C   0  0  0  0  0  0  0  0  0  0  0  0
  130.2170  124.8590   65.4770 N   0  0  0  0  0  0  0  0  0  0  0  0
  129.8940  123.4290   65.3580 C   0  0  0  0  0  0  0  0  0  0  0  0
  129.7150  122.9580   63.9230 C   0  0  0  0  0  0  0  0  0  0  0  0
  128.4540  122.9490   63.3220 C   0  0  0  0  0  0  0  0  0  0  0  0
  128.3520  122.5180   61.9970 C   0  0  0  0  0  0  0  0  0  0  0  0
  129.5010  122.1210   61.3120 C   0  0  0  0  0  0  0  0  0  0  0  0
  130.7260  122.1730   61.9790 C   0  0  0  0  0  0  0  0  0  0  0  0
  130.8470  122.5890   63.2670 N   0  0  0  0  0  0  0  0  0  0  0  0
  130.7490  125.3590   66.6780 C   0  0  0  0  0  0  0  0  0  0  0  0
  131.9480  125.5400   66.8990 O   0  0  0  0  0  0  0  0  0  0  0  0
  129.7580  125.6290   67.5870 O   0  0  0  0  0  0  0  0  0  0  0  0
  129.3800  126.9340   68.0580 C   0  0  0  0  0  0  0  0  0  0  0  0
  130.5650  127.6600   68.7390 C   0  0  0  0  0  0  0  0  0  0  0  0
  128.7850  127.7890   66.9120 C   0  0  0  0  0  0  0  0  0  0  0  0
  128.2840  126.6520   69.1070 C   0  0  0  0  0  0  0  0  0  0  0  0
  134.1714  132.0763   62.3578 H   0  0  0  0  0  0  0  0  0  0  0  0
  134.2130  131.1112   60.8434 H   0  0  0  0  0  0  0  0  0  0  0  0
  133.4804  132.7513   60.8434 H   0  0  0  0  0  0  0  0  0  0  0  0
  131.7735  130.8806   60.8621 H   0  0  0  0  0  0  0  0  0  0  0  0
  132.4118  130.3747   62.4637 H   0  0  0  0  0  0  0  0  0  0  0  0
  128.6786  132.6889   60.8781 H   0  0  0  0  0  0  0  0  0  0  0  0
  130.3892  132.4320   60.2856 H   0  0  0  0  0  0  0  0  0  0  0  0
  128.9704  129.5486   58.7359 H   0  0  0  0  0  0  0  0  0  0  0  0
  128.0060  131.1032   58.8458 H   0  0  0  0  0  0  0  0  0  0  0  0
  131.6900  130.2841   59.0070 H   0  0  0  0  0  0  0  0  0  0  0  0
  133.3592  131.4772   57.5869 H   0  0  0  0  0  0  0  0  0  0  0  0
  132.5916  133.1720   55.9332 H   0  0  0  0  0  0  0  0  0  0  0  0
  130.1669  133.6867   55.6847 H   0  0  0  0  0  0  0  0  0  0  0  0
  128.4948  132.4981   57.1071 H   0  0  0  0  0  0  0  0  0  0  0  0
  129.8347  127.7974   60.1377 H   0  0  0  0  0  0  0  0  0  0  0  0
  131.2075  128.9039   60.5426 H   0  0  0  0  0  0  0  0  0  0  0  0
  130.2920  128.0150   62.9810 H   0  0  0  0  0  0  0  0  0  0  0  0
  131.7017  124.6937   63.1994 H   0  0  0  0  0  0  0  0  0  0  0  0
  132.1329  126.2958   63.9646 H   0  0  0  0  0  0  0  0  0  0  0  0
  129.8511  126.7122   64.5641 H   0  0  0  0  0  0  0  0  0  0  0  0
  129.3145  125.2236   63.6412 H   0  0  0  0  0  0  0  0  0  0  0  0
  130.7105  122.8498   65.8139 H   0  0  0  0  0  0  0  0  0  0  0  0
  128.9321  123.2740   65.8686 H   0  0  0  0  0  0  0  0  0  0  0  0
  127.5625  123.2735   63.8788 H   0  0  0  0  0  0  0  0  0  0  0  0
  127.3725  122.4918   61.4971 H   0  0  0  0  0  0  0  0  0  0  0  0
  129.4427  121.7748   60.2695 H   0  0  0  0  0  0  0  0  0  0  0  0
  131.6328  121.8638   61.4386 H   0  0  0  0  0  0  0  0  0  0  0  0
  130.4566  127.5936   69.8316 H   0  0  0  0  0  0  0  0  0  0  0  0
  131.5095  127.1854   68.4347 H   0  0  0  0  0  0  0  0  0  0  0  0
  130.5711  128.7171   68.4347 H   0  0  0  0  0  0  0  0  0  0  0  0
  128.2058  128.6213   67.3382 H   0  0  0  0  0  0  0  0  0  0  0  0
  129.6005  128.1895   66.2919 H   0  0  0  0  0  0  0  0  0  0  0  0
  128.1261  127.1634   66.2919 H   0  0  0  0  0  0  0  0  0  0  0  0
  128.7064  126.7607   70.1169 H   0  0  0  0  0  0  0  0  0  0  0  0
  127.4584  127.3670   68.9760 H   0  0  0  0  0  0  0  0  0  0  0  0
  127.9060  125.6273   68.9760 H   0  0  0  0  0  0  0  0  0  0  0  0
  1  2  1  0
  2  3  1  0
  3  4  1  0
  4  5  2  0
  4  6  1  0
  6  7  1  0
  7  8  1  0
  8  9  1  0
  9 10  2  0
 10 11  1  0
 11 12  2  0
 12 13  1  0
 13 14  2  0
  7 15  1  0
 15 16  2  0
 15 17  1  0
 17 18  1  0
 18 19  1  0
 19 20  2  0
 19 21  1  0
 21 22  1  0
 22 23  1  0
 23 24  1  0
 24 25  1  0
 25 26  2  0
 26 27  1  0
 27 28  2  0
 28 29  1  0
 29 30  2  0
 23 31  1  0
 31 32  2  0
 31 33  1  0
 33 34  1  0
 34 35  1  0
 34 36  1  0
 34 37  1  0
 14  9  1  0
 30 25  1  0
  1 38  1  0
  1 39  1  0
  1 40  1  0
  2 41  1  0
  2 42  1  0
  6 43  1  0
  6 44  1  0
  8 45  1  0
  8 46  1  0
 10 47  1  0
 11 48  1  0
 12 49  1  0
 13 50  1  0
 14 51  1  0
 17 52  1  0
 17 53  1  0
 18 54  1  0
 21 55  1  0
 21 56  1  0
 22 57  1  0
 22 58  1  0
 24 59  1  0
 24 60  1  0
 26 61  1  0
 27 62  1  0
 28 63  1  0
 29 64  1  0
 35 65  1  0
 35 66  1  0
 35 67  1  0
 36 68  1  0
 36 69  1  0
 36 70  1  0
 37 71  1  0
 37 72  1  0
 37 73  1  0
M  END
>  <Binding energies>  (1) 
[-6.64]

>  <Ligand effiencies>  (1) 
[-0.17473684210526316]

>  <Interactions>  (1) 
["V-B:PRO:540:CA:9855, V-B:GLU:543:C:9874, H-A:GLU:543:OE2:4910, H-A:ALA:541:N:4891, V-B:GLU:543:CB:9878, V-A:ILE:538:CB:4862, V-B:ALA:541:CB:9864, V-A:TYR:484:CE2:4346, V-B:GLU:543:CG:9879, V-A:ASN:362:CB:3176, V-A:ILE:538:CG2:4863, V-A:LEU:363:CD1:3189, V-A:ILE:538:CA:4860, V-A:ALA:541:CB:4892, V-A:GLU:543:CD:4908, V-A:TYR:484:CZ:4347, V-B:GLU:543:CA:9876, V-B:HIS:456:CE1:9041, V-A:HIS:456:CE1:4070, V-A:GLU:543:CG:4907, V-B:GLU:543:CD:9880, V-A:LEU:475:CD2:4259, V-A:ASN:362:C:3172, H-A:GLU:543:OE1:4909, V-A:GLU:543:CB:4906, V-A:PRO:540:CB:4885, V-A:PRO:540:CA:4883, V-A:LEU:363:CA:3185, V-A:PRO:540:CD:4887, H-A:TYR:484:OH:4348"]

$$$$
ZINC1868925662
     RDKit          3D

 75 76  0  0  0  0  0  0  0  0999 V2000
  132.0830  131.9120   57.2460 C   0  0  0  0  0  0  0  0  0  0  0  0
  133.0540  130.6270   58.0780 S   0  0  0  0  0  0  0  0  0  0  0  0
  133.6250  131.5060   59.5640 C   0  0  0  0  0  0  0  0  0  0  0  0
  132.6810  131.4710   60.7850 C   0  0  0  0  0  0  0  0  0  0  0  0
  131.2540  130.8890   60.5550 C   0  0  1  0  0  0  0  0  0  0  0  0
  131.1020  129.5790   61.2050 N   0  0  0  0  0  0  0  0  0  0  0  0
  130.8360  128.4050   60.6050 C   0  0  0  0  0  0  0  0  0  0  0  0
  130.6830  128.2710   59.3920 O   0  0  0  0  0  0  0  0  0  0  0  0
  130.7190  127.1970   61.5320 C   0  0  0  0  0  0  0  0  0  0  0  0
  132.0140  126.3640   61.5890 C   0  0  0  0  0  0  0  0  0  0  0  0
  131.8660  125.1030   62.3320 N   0  0  0  0  0  0  0  0  0  0  0  0
  130.8180  124.1800   61.8670 C   0  0  0  0  0  0  0  0  0  0  0  0
  131.2710  122.7850   61.4280 C   0  0  0  0  0  0  0  0  0  0  0  0
  130.3280  121.7580   61.3260 C   0  0  0  0  0  0  0  0  0  0  0  0
  130.7560  120.4890   60.9280 C   0  0  0  0  0  0  0  0  0  0  0  0
  132.1070  120.2760   60.6470 C   0  0  0  0  0  0  0  0  0  0  0  0
  132.9910  121.3500   60.7760 C   0  0  0  0  0  0  0  0  0  0  0  0
  132.5930  122.5890   61.1610 N   0  0  0  0  0  0  0  0  0  0  0  0
  132.6080  124.8080   63.4890 C   0  0  0  0  0  0  0  0  0  0  0  0
  133.6050  124.0840   63.5210 O   0  0  0  0  0  0  0  0  0  0  0  0
  132.0850  125.4370   64.5910 O   0  0  0  0  0  0  0  0  0  0  0  0
  130.8640  125.0800   65.2640 C   0  0  0  0  0  0  0  0  0  0  0  0
  130.4940  123.5950   65.0280 C   0  0  0  0  0  0  0  0  0  0  0  0
  130.9470  125.4020   66.7750 C   0  0  0  0  0  0  0  0  0  0  0  0
  129.7950  125.9790   64.6080 C   0  0  0  0  0  0  0  0  0  0  0  0
  130.0990  131.8770   60.8980 C   0  0  0  0  0  0  0  0  0  0  0  0
  130.2140  132.5700   61.9130 O   0  0  0  0  0  0  0  0  0  0  0  0
  128.9980  131.9340   60.0940 N   0  0  0  0  0  0  0  0  0  0  0  0
  128.5550  133.2230   59.5350 C   0  0  0  0  0  0  0  0  0  0  0  0
  129.1480  133.3240   58.1110 C   0  0  0  0  0  0  0  0  0  0  0  0
  128.7520  132.1120   57.2410 C   0  0  0  0  0  0  0  0  0  0  0  0
  129.0260  130.7560   57.9480 C   0  0  2  0  0  0  0  0  0  0  0  0
  128.5080  129.5430   57.1480 C   0  0  0  0  0  0  0  0  0  0  0  0
  129.5680  128.7030   56.7360 O   0  0  0  0  0  0  0  0  0  0  0  0
  128.4400  130.7640   59.3850 C   0  0  0  0  0  0  0  0  0  0  0  0
  131.5996  132.5517   57.9991 H   0  0  0  0  0  0  0  0  0  0  0  0
  132.7466  132.5235   56.6170 H   0  0  0  0  0  0  0  0  0  0  0  0
  131.3135  131.4406   56.6170 H   0  0  0  0  0  0  0  0  0  0  0  0
  134.5837  131.0610   59.8688 H   0  0  0  0  0  0  0  0  0  0  0  0
  133.6877  132.5648   59.2723 H   0  0  0  0  0  0  0  0  0  0  0  0
  133.1663  130.8637   61.5632 H   0  0  0  0  0  0  0  0  0  0  0  0
  132.5211  132.5254   61.0548 H   0  0  0  0  0  0  0  0  0  0  0  0
  131.1587  130.7328   59.4703 H   0  0  0  0  0  0  0  0  0  0  0  0
  131.2050  129.5880   62.2090 H   0  0  0  0  0  0  0  0  0  0  0  0
  130.4845  127.5529   62.5461 H   0  0  0  0  0  0  0  0  0  0  0  0
  129.9241  126.5488   61.1346 H   0  0  0  0  0  0  0  0  0  0  0  0
  132.3222  126.1280   60.5598 H   0  0  0  0  0  0  0  0  0  0  0  0
  132.7648  126.9674   62.1202 H   0  0  0  0  0  0  0  0  0  0  0  0
  130.0982  124.0527   62.6890 H   0  0  0  0  0  0  0  0  0  0  0  0
  130.4052  124.6468   60.9605 H   0  0  0  0  0  0  0  0  0  0  0  0
  129.2686  121.9456   61.5549 H   0  0  0  0  0  0  0  0  0  0  0  0
  130.0342  119.6640   60.8367 H   0  0  0  0  0  0  0  0  0  0  0  0
  132.4669  119.2856   60.3314 H   0  0  0  0  0  0  0  0  0  0  0  0
  134.0559  121.1842   60.5560 H   0  0  0  0  0  0  0  0  0  0  0  0
  130.3682  123.0900   65.9971 H   0  0  0  0  0  0  0  0  0  0  0  0
  129.5540  123.5372   64.4596 H   0  0  0  0  0  0  0  0  0  0  0  0
  131.2970  123.1029   64.4596 H   0  0  0  0  0  0  0  0  0  0  0  0
  130.7139  124.4975   67.3560 H   0  0  0  0  0  0  0  0  0  0  0  0
  131.9628  125.7445   67.0217 H   0  0  0  0  0  0  0  0  0  0  0  0
  130.2234  126.1929   67.0217 H   0  0  0  0  0  0  0  0  0  0  0  0
  129.2036  126.4764   65.3908 H   0  0  0  0  0  0  0  0  0  0  0  0
  130.2878  126.7381   63.9828 H   0  0  0  0  0  0  0  0  0  0  0  0
  129.1316  125.3633   63.9828 H   0  0  0  0  0  0  0  0  0  0  0  0
  127.4565  133.2582   59.4904 H   0  0  0  0  0  0  0  0  0  0  0  0
  128.8936  134.0608   60.1623 H   0  0  0  0  0  0  0  0  0  0  0  0
  128.7754  134.2424   57.6339 H   0  0  0  0  0  0  0  0  0  0  0  0
  130.2445  133.3415   58.1964 H   0  0  0  0  0  0  0  0  0  0  0  0
  127.6785  132.1790   57.0108 H   0  0  0  0  0  0  0  0  0  0  0  0
  129.3646  132.1422   56.3279 H   0  0  0  0  0  0  0  0  0  0  0  0
  130.1187  130.6435   58.0066 H   0  0  0  0  0  0  0  0  0  0  0  0
  127.8193  128.9648   57.7815 H   0  0  0  0  0  0  0  0  0  0  0  0
  127.9942  129.9160   56.2498 H   0  0  0  0  0  0  0  0  0  0  0  0
  130.3200  128.8540   57.3130 H   0  0  0  0  0  0  0  0  0  0  0  0
  127.3435  130.8408   59.3415 H   0  0  0  0  0  0  0  0  0  0  0  0
  128.7020  129.8346   59.9119 H   0  0  0  0  0  0  0  0  0  0  0  0
  1  2  1  0
  2  3  1  0
  3  4  1  0
  4  5  1  0
  5  6  1  0
  6  7  1  0
  7  8  2  0
  7  9  1  0
  9 10  1  0
 10 11  1  0
 11 12  1  0
 12 13  1  0
 13 14  2  0
 14 15  1  0
 15 16  2  0
 16 17  1  0
 17 18  2  0
 11 19  1  0
 19 20  2  0
 19 21  1  0
 21 22  1  0
 22 23  1  0
 22 24  1  0
 22 25  1  0
  5 26  1  0
 26 27  2  0
 26 28  1  0
 28 29  1  0
 29 30  1  0
 30 31  1  0
 31 32  1  0
 32 33  1  0
 33 34  1  0
 32 35  1  0
 18 13  1  0
 35 28  1  0
  1 36  1  0
  1 37  1  0
  1 38  1  0
  3 39  1  0
  3 40  1  0
  4 41  1  0
  4 42  1  0
  5 43  1  6
  6 44  1  0
  9 45  1  0
  9 46  1  0
 10 47  1  0
 10 48  1  0
 12 49  1  0
 12 50  1  0
 14 51  1  0
 15 52  1  0
 16 53  1  0
 17 54  1  0
 23 55  1  0
 23 56  1  0
 23 57  1  0
 24 58  1  0
 24 59  1  0
 24 60  1  0
 25 61  1  0
 25 62  1  0
 25 63  1  0
 29 64  1  0
 29 65  1  0
 30 66  1  0
 30 67  1  0
 31 68  1  0
 31 69  1  0
 32 70  1  1
 33 71  1  0
 33 72  1  0
 34 73  1  0
 35 74  1  0
 35 75  1  0
M  END
>  <Binding energies>  (1) 
[-6.25]

>  <Ligand effiencies>  (1) 
[-0.16891891891891891]

>  <Interactions>  (1) 
["V-A:ILE:369:CG2:3237, H-A:ALA:541:N:4891, H-A:TYR:531:OH:4795, V-B:TYR:539:CE2:9848, V-A:TYR:484:CE2:4346, V-B:GLU:543:CG:9879, V-A:ASP:366:CG:3213, V-A:LEU:363:CB:3187, V-A:LEU:363:CD1:3189, V-A:TYR:539:CD1:4873, V-A:TYR:539:CA:4869, V-A:TYR:484:CZ:4347, V-A:GLU:543:CD:4908, H-A:GLY:454:N:4050, V-A:HIS:456:CE1:4070, V-B:TYR:539:CD2:9846, V-A:MET:535:CE:4835, V-B:GLU:543:CD:9880, V-A:TYR:539:C:4867, V-A:LEU:475:CD2:4259, H-A:ARG:545:NH2:4928, V-A:ARG:545:CZ:4926, H-A:GLU:543:OE1:4909, V-A:PRO:540:N:4884, V-A:TYR:539:CG:4872, V-A:PRO:540:CB:4885, V-A:PRO:540:CA:4883, V-A:LEU:363:CA:3185, H-A:ARG:545:NE:4924, H-A:ASP:366:OD2:3215, V-A:TYR:539:CE1:4875, H-A:TYR:484:OH:4348"]

$$$$
ZINC1869545032
     RDKit          3D

 80 82  0  0  0  0  0  0  0  0999 V2000
  129.3530  124.8440   58.1040 C   0  0  0  0  0  0  0  0  0  0  0  0
  128.8440  125.7080   59.2790 C   0  0  0  0  0  0  0  0  0  0  0  0
  127.7830  125.0820   60.2610 C   0  0  2  0  0  0  0  0  0  0  0  0
  126.3570  125.4170   59.7540 C   0  0  0  0  0  0  0  0  0  0  0  0
  127.9730  125.7160   61.5900 N   0  0  0  0  0  0  0  0  0  0  0  0
  129.1190  126.0290   62.2370 C   0  0  0  0  0  0  0  0  0  0  0  0
  130.2390  125.8420   61.7550 O   0  0  0  0  0  0  0  0  0  0  0  0
  128.9690  126.6160   63.6230 C   0  0  0  0  0  0  0  0  0  0  0  0
  128.4280  127.9070   63.7830 C   0  0  0  0  0  0  0  0  0  0  0  0
  128.3010  128.4850   65.0510 C   0  0  0  0  0  0  0  0  0  0  0  0
  128.7290  127.7600   66.1600 C   0  0  0  0  0  0  0  0  0  0  0  0
  129.2580  126.5060   66.0230 C   0  0  0  0  0  0  0  0  0  0  0  0
  129.3860  125.9110   64.7690 C   0  0  0  0  0  0  0  0  0  0  0  0
  129.6220  126.0120   67.3750 C   0  0  0  0  0  0  0  0  0  0  0  0
  130.1320  124.9290   67.6670 O   0  0  0  0  0  0  0  0  0  0  0  0
  129.2720  127.0160   68.2200 N   0  0  0  0  0  0  0  0  0  0  0  0
  129.4500  126.9340   69.6750 C   0  0  0  0  0  0  0  0  0  0  0  0
  130.3000  128.0830   70.2520 C   0  0  0  0  0  0  0  0  0  0  0  0
  130.6860  127.8620   71.7280 C   0  0  0  0  0  0  0  0  0  0  0  0
  130.5180  129.0190   72.5430 O   0  0  0  0  0  0  0  0  0  0  0  0
  129.1730  129.3300   72.8880 C   0  0  0  0  0  0  0  0  0  0  0  0
  128.7300  128.1010   67.6060 C   0  0  0  0  0  0  0  0  0  0  0  0
  128.3310  129.1390   68.1370 O   0  0  0  0  0  0  0  0  0  0  0  0
  127.9220  123.5090   60.3790 C   0  0  0  0  0  0  0  0  0  0  0  0
  127.3260  122.8290   59.5400 O   0  0  0  0  0  0  0  0  0  0  0  0
  128.7600  122.9060   61.2770 N   0  0  0  0  0  0  0  0  0  0  0  0
  128.3900  122.5830   62.6640 C   0  0  0  0  0  0  0  0  0  0  0  0
  129.5650  122.9180   63.6230 C   0  0  1  0  0  0  0  0  0  0  0  0
  129.1500  122.4800   65.0490 C   0  0  0  0  0  0  0  0  0  0  0  0
  130.8520  122.3550   63.1630 N   0  0  0  0  0  0  0  0  0  0  0  0
  131.9560  122.8150   64.0280 C   0  0  0  0  0  0  0  0  0  0  0  0
  132.0580  124.3510   63.9890 C   0  0  0  0  0  0  0  0  0  0  0  0
  133.5060  124.8560   63.9080 C   0  0  0  0  0  0  0  0  0  0  0  0
  134.0010  125.1020   65.2180 O   0  0  0  0  0  0  0  0  0  0  0  0
  132.9920  125.4780   66.1420 C   0  0  0  0  0  0  0  0  0  0  0  0
  131.1510  122.6350   61.7420 C   0  0  1  0  0  0  0  0  0  0  0  0
  132.4310  121.9500   61.2090 C   0  0  0  0  0  0  0  0  0  0  0  0
  129.9770  122.2150   60.8220 C   0  0  0  0  0  0  0  0  0  0  0  0
  129.8742  123.9592   58.4983 H   0  0  0  0  0  0  0  0  0  0  0  0
  128.4998  124.5229   57.4885 H   0  0  0  0  0  0  0  0  0  0  0  0
  130.0475  125.4346   57.4885 H   0  0  0  0  0  0  0  0  0  0  0  0
  129.7208  125.9873   59.8817 H   0  0  0  0  0  0  0  0  0  0  0  0
  128.3090  126.5379   58.7942 H   0  0  0  0  0  0  0  0  0  0  0  0
  125.6895  125.5738   60.6141 H   0  0  0  0  0  0  0  0  0  0  0  0
  126.3902  126.3318   59.1440 H   0  0  0  0  0  0  0  0  0  0  0  0
  125.9794  124.5831   59.1440 H   0  0  0  0  0  0  0  0  0  0  0  0
  127.1160  126.0220   62.0280 H   0  0  0  0  0  0  0  0  0  0  0  0
  128.1001  128.4698   62.8966 H   0  0  0  0  0  0  0  0  0  0  0  0
  127.8720  129.4910   65.1692 H   0  0  0  0  0  0  0  0  0  0  0  0
  129.8089  124.8999   64.6751 H   0  0  0  0  0  0  0  0  0  0  0  0
  128.4582  126.9611   70.1500 H   0  0  0  0  0  0  0  0  0  0  0  0
  129.9852  125.9962   69.8849 H   0  0  0  0  0  0  0  0  0  0  0  0
  131.2215  128.1704   69.6577 H   0  0  0  0  0  0  0  0  0  0  0  0
  129.6927  128.9989   70.2035 H   0  0  0  0  0  0  0  0  0  0  0  0
  130.0571  127.0563   72.1347 H   0  0  0  0  0  0  0  0  0  0  0  0
  131.7562  127.6084   71.7461 H   0  0  0  0  0  0  0  0  0  0  0  0
  129.0714  129.3535   73.9830 H   0  0  0  0  0  0  0  0  0  0  0  0
  128.9063  130.3135   72.4738 H   0  0  0  0  0  0  0  0  0  0  0  0
  128.5016  128.5634   72.4738 H   0  0  0  0  0  0  0  0  0  0  0  0
  127.5068  123.1724   62.9514 H   0  0  0  0  0  0  0  0  0  0  0  0
  128.1632  121.5090   62.7348 H   0  0  0  0  0  0  0  0  0  0  0  0
  129.7545  124.0015   63.6325 H   0  0  0  0  0  0  0  0  0  0  0  0
  129.7086  123.0696   65.7908 H   0  0  0  0  0  0  0  0  0  0  0  0
  128.0713  122.6474   65.1846 H   0  0  0  0  0  0  0  0  0  0  0  0
  129.3752  121.4119   65.1846 H   0  0  0  0  0  0  0  0  0  0  0  0
  131.7674  122.4896   65.0617 H   0  0  0  0  0  0  0  0  0  0  0  0
  132.9003  122.3834   63.6646 H   0  0  0  0  0  0  0  0  0  0  0  0
  131.5100  124.7161   63.1079 H   0  0  0  0  0  0  0  0  0  0  0  0
  131.6293  124.7324   64.9275 H   0  0  0  0  0  0  0  0  0  0  0  0
  134.1316  124.0958   63.4174 H   0  0  0  0  0  0  0  0  0  0  0  0
  133.5347  125.7891   63.3262 H   0  0  0  0  0  0  0  0  0  0  0  0
  133.3641  125.3393   67.1678 H   0  0  0  0  0  0  0  0  0  0  0  0
  132.7284  126.5347   65.9873 H   0  0  0  0  0  0  0  0  0  0  0  0
  132.1012  124.8515   65.9873 H   0  0  0  0  0  0  0  0  0  0  0  0
  131.3102  123.7231   61.7149 H   0  0  0  0  0  0  0  0  0  0  0  0
  133.0496  121.6189   62.0562 H   0  0  0  0  0  0  0  0  0  0  0  0
  132.1531  121.0800   60.5959 H   0  0  0  0  0  0  0  0  0  0  0  0
  133.0007  122.6638   60.5959 H   0  0  0  0  0  0  0  0  0  0  0  0
  130.1992  122.4994   59.7829 H   0  0  0  0  0  0  0  0  0  0  0  0
  129.8323  121.1255   60.8675 H   0  0  0  0  0  0  0  0  0  0  0  0
  1  2  1  0
  2  3  1  0
  3  4  1  0
  3  5  1  1
  5  6  1  0
  6  7  2  0
  6  8  1  0
  8  9  2  0
  9 10  1  0
 10 11  2  0
 11 12  1  0
 12 13  2  0
 12 14  1  0
 14 15  2  0
 14 16  1  0
 16 17  1  0
 17 18  1  0
 18 19  1  0
 19 20  1  0
 20 21  1  0
 16 22  1  0
 22 23  2  0
  3 24  1  0
 24 25  2  0
 24 26  1  0
 26 27  1  0
 27 28  1  0
 28 29  1  0
 28 30  1  0
 30 31  1  0
 31 32  1  0
 32 33  1  0
 33 34  1  0
 34 35  1  0
 30 36  1  0
 36 37  1  0
 36 38  1  0
 13  8  1  0
 38 26  1  0
 22 11  1  0
  1 39  1  0
  1 40  1  0
  1 41  1  0
  2 42  1  0
  2 43  1  0
  4 44  1  0
  4 45  1  0
  4 46  1  0
  5 47  1  0
  9 48  1  0
 10 49  1  0
 13 50  1  0
 17 51  1  0
 17 52  1  0
 18 53  1  0
 18 54  1  0
 19 55  1  0
 19 56  1  0
 21 57  1  0
 21 58  1  0
 21 59  1  0
 27 60  1  0
 27 61  1  0
 28 62  1  1
 29 63  1  0
 29 64  1  0
 29 65  1  0
 31 66  1  0
 31 67  1  0
 32 68  1  0
 32 69  1  0
 33 70  1  0
 33 71  1  0
 35 72  1  0
 35 73  1  0
 35 74  1  0
 36 75  1  1
 37 76  1  0
 37 77  1  0
 37 78  1  0
 38 79  1  0
 38 80  1  0
M  END
>  <Binding energies>  (1) 
[-7.94]

>  <Ligand effiencies>  (1) 
[-0.2035897435897436]

>  <Interactions>  (1) 
["V-B:PRO:540:CA:9855, V-B:HIS:456:CD2:9039, V-A:GLU:543:C:4902, V-B:GLU:543:CB:9878, V-B:ALA:541:CB:9864, H-A:ARG:545:NH1:4927, V-B:TYR:539:CE2:9848, V-A:TYR:484:CE2:4346, V-B:GLU:543:CG:9879, V-A:GLY:544:C:4912, V-B:TYR:539:CZ:9849, H-B:GLU:543:OE1:9881, V-A:GLU:543:CD:4908, V-B:HIS:456:CE1:9041, H-A:GLY:454:N:4050, V-B:GLU:543:CA:9876, V-A:ARG:545:CG:4922, V-A:HIS:456:CE1:4070, V-B:TYR:539:CD2:9846, V-A:GLU:543:CG:4907, V-B:GLU:543:CD:9880, V-A:ARG:545:CD:4923, H-A:LYS:547:NZ:4951, H-A:ARG:545:NH2:4928, V-A:LEU:475:CD2:4259, V-A:ARG:545:CZ:4926, V-A:GLU:543:CB:4906, H-A:ARG:545:NE:4924, V-B:ALA:541:CA:9862, H-A:TYR:484:OH:4348"]

$$$$
ZINC1869604435
     RDKit          3D

 69 72  0  0  0  0  0  0  0  0999 V2000
  129.8520  120.9700   61.7170 C   0  0  0  0  0  0  0  0  0  0  0  0
  129.8590  122.1170   63.1210 S   0  0  0  0  0  0  0  0  0  0  0  0
  128.5230  123.2460   62.6410 C   0  0  0  0  0  0  0  0  0  0  0  0
  128.9350  124.7300   62.5400 C   0  0  0  0  0  0  0  0  0  0  0  0
  130.3360  125.0880   63.0990 C   0  0  2  0  0  0  0  0  0  0  0  0
  130.1810  125.8220   64.3620 N   0  0  0  0  0  0  0  0  0  0  0  0
  129.8320  125.2810   65.5480 C   0  0  0  0  0  0  0  0  0  0  0  0
  129.5680  124.0830   65.6830 O   0  0  0  0  0  0  0  0  0  0  0  0
  129.7520  126.2290   66.7250 C   0  0  0  0  0  0  0  0  0  0  0  0
  130.8220  126.3070   67.6270 C   0  0  0  0  0  0  0  0  0  0  0  0
  130.7730  127.1780   68.7110 C   0  0  0  0  0  0  0  0  0  0  0  0
  129.6600  127.9940   68.9140 C   0  0  0  0  0  0  0  0  0  0  0  0
  129.6790  128.8460   70.0290 N   0  0  0  0  0  0  0  0  0  0  0  0
  130.0280  128.3460   71.7000 S   0  0  0  0  0  0  0  0  0  0  0  0
  128.5060  127.3260   72.1540 C   0  0  0  0  0  0  0  0  0  0  0  0
  131.1800  127.4420   71.6250 O   0  0  0  0  0  0  0  0  0  0  0  0
  130.0780  129.5510   72.5350 O   0  0  0  0  0  0  0  0  0  0  0  0
  128.5860  127.9220   68.0200 C   0  0  0  0  0  0  0  0  0  0  0  0
  128.6330  127.0490   66.9360 C   0  0  0  0  0  0  0  0  0  0  0  0
  131.2360  125.8340   62.0670 C   0  0  0  0  0  0  0  0  0  0  0  0
  131.4100  127.0440   62.2410 O   0  0  0  0  0  0  0  0  0  0  0  0
  131.7650  125.1530   61.0100 N   0  0  0  0  0  0  0  0  0  0  0  0
  132.0730  123.7210   61.1420 C   0  0  0  0  0  0  0  0  0  0  0  0
  133.5280  123.5490   60.6650 C   0  0  0  0  0  0  0  0  0  0  0  0
  133.7130  124.0800   59.3080 N   0  0  0  0  0  0  0  0  0  0  0  0
  132.9940  125.0800   58.7530 C   0  0  0  0  0  0  0  0  0  0  0  0
  133.2280  125.4530   57.6040 O   0  0  0  0  0  0  0  0  0  0  0  0
  131.8890  125.7200   59.6440 C   0  0  1  0  0  0  0  0  0  0  0  0
  130.5520  125.7610   58.9060 C   0  0  0  0  0  0  0  0  0  0  0  0
  130.0510  126.7500   58.0800 C   0  0  0  0  0  0  0  0  0  0  0  0
  128.8260  126.3990   57.5670 N   0  0  0  0  0  0  0  0  0  0  0  0
  128.0420  127.2030   56.6430 C   0  0  0  0  0  0  0  0  0  0  0  0
  128.4940  125.1410   58.0330 C   0  0  0  0  0  0  0  0  0  0  0  0
  127.3730  124.3360   57.7920 C   0  0  0  0  0  0  0  0  0  0  0  0
  127.3340  123.0920   58.4200 C   0  0  0  0  0  0  0  0  0  0  0  0
  128.3610  122.6580   59.2530 C   0  0  0  0  0  0  0  0  0  0  0  0
  129.4770  123.4540   59.4930 C   0  0  0  0  0  0  0  0  0  0  0  0
  129.5640  124.7170   58.8840 C   0  0  0  0  0  0  0  0  0  0  0  0
  129.8457  119.9349   62.0892 H   0  0  0  0  0  0  0  0  0  0  0  0
  128.9549  121.1451   61.1050 H   0  0  0  0  0  0  0  0  0  0  0  0
  130.7512  121.1341   61.1050 H   0  0  0  0  0  0  0  0  0  0  0  0
  128.1431  122.9287   61.6587 H   0  0  0  0  0  0  0  0  0  0  0  0
  127.7670  123.1879   63.4380 H   0  0  0  0  0  0  0  0  0  0  0  0
  128.9148  125.0129   61.4772 H   0  0  0  0  0  0  0  0  0  0  0  0
  128.2173  125.2794   63.1669 H   0  0  0  0  0  0  0  0  0  0  0  0
  130.8771  124.1522   63.3027 H   0  0  0  0  0  0  0  0  0  0  0  0
  130.3770  126.8110   64.3170 H   0  0  0  0  0  0  0  0  0  0  0  0
  131.7088  125.6737   67.4765 H   0  0  0  0  0  0  0  0  0  0  0  0
  131.6184  127.2234   69.4133 H   0  0  0  0  0  0  0  0  0  0  0  0
  129.4690  129.8210   69.8730 H   0  0  0  0  0  0  0  0  0  0  0  0
  128.4176  127.2667   73.2488 H   0  0  0  0  0  0  0  0  0  0  0  0
  127.6067  127.8045   71.7389 H   0  0  0  0  0  0  0  0  0  0  0  0
  128.6068  126.3123   71.7389 H   0  0  0  0  0  0  0  0  0  0  0  0
  127.7013  128.5573   68.1740 H   0  0  0  0  0  0  0  0  0  0  0  0
  127.7842  127.0017   66.2380 H   0  0  0  0  0  0  0  0  0  0  0  0
  131.9757  123.4051   62.1912 H   0  0  0  0  0  0  0  0  0  0  0  0
  131.3810  123.1056   60.5484 H   0  0  0  0  0  0  0  0  0  0  0  0
  134.1964  124.0863   61.3539 H   0  0  0  0  0  0  0  0  0  0  0  0
  133.7634  122.4746   60.6516 H   0  0  0  0  0  0  0  0  0  0  0  0
  134.4240  123.6540   58.7310 H   0  0  0  0  0  0  0  0  0  0  0  0
  132.2244  126.7518   59.8257 H   0  0  0  0  0  0  0  0  0  0  0  0
  130.5671  127.6965   57.8616 H   0  0  0  0  0  0  0  0  0  0  0  0
  127.3843  127.8775   57.2109 H   0  0  0  0  0  0  0  0  0  0  0  0
  128.7174  127.7969   56.0096 H   0  0  0  0  0  0  0  0  0  0  0  0
  127.4313  126.5428   56.0096 H   0  0  0  0  0  0  0  0  0  0  0  0
  126.5575  124.6716   57.1345 H   0  0  0  0  0  0  0  0  0  0  0  0
  126.4676  122.4353   58.2525 H   0  0  0  0  0  0  0  0  0  0  0  0
  128.2894  121.6692   59.7297 H   0  0  0  0  0  0  0  0  0  0  0  0
  130.2823  123.0981   60.1524 H   0  0  0  0  0  0  0  0  0  0  0  0
  1  2  1  0
  2  3  1  0
  3  4  1  0
  4  5  1  0
  5  6  1  0
  6  7  1  0
  7  8  2  0
  7  9  1  0
  9 10  2  0
 10 11  1  0
 11 12  2  0
 12 13  1  0
 13 14  1  0
 14 15  1  0
 14 16  2  0
 14 17  2  0
 12 18  1  0
 18 19  2  0
  5 20  1  0
 20 21  2  0
 20 22  1  0
 22 23  1  0
 23 24  1  0
 24 25  1  0
 25 26  1  0
 26 27  2  0
 26 28  1  0
 28 29  1  0
 29 30  2  0
 30 31  1  0
 31 32  1  0
 31 33  1  0
 33 34  2  0
 34 35  1  0
 35 36  2  0
 36 37  1  0
 37 38  2  0
 19  9  1  0
 28 22  1  0
 38 29  1  0
 38 33  1  0
  1 39  1  0
  1 40  1  0
  1 41  1  0
  3 42  1  0
  3 43  1  0
  4 44  1  0
  4 45  1  0
  5 46  1  1
  6 47  1  0
 10 48  1  0
 11 49  1  0
 13 50  1  0
 15 51  1  0
 15 52  1  0
 15 53  1  0
 18 54  1  0
 19 55  1  0
 23 56  1  0
 23 57  1  0
 24 58  1  0
 24 59  1  0
 25 60  1  0
 28 61  1  1
 30 62  1  0
 32 63  1  0
 32 64  1  0
 32 65  1  0
 34 66  1  0
 35 67  1  0
 36 68  1  0
 37 69  1  0
M  END
>  <Binding energies>  (1) 
[-8.44]

>  <Ligand effiencies>  (1) 
[-0.20585365853658535]

>  <Interactions>  (1) 
["V-A:ILE:369:CG2:3237, V-A:ASP:366:CA:3210, V-B:PRO:540:CA:9855, V-A:GLU:543:CA:4904, V-B:HIS:456:CD2:9039, H-A:GLU:543:OE2:4910, V-A:ILE:369:CB:3236, V-A:GLU:543:C:4902, V-B:GLU:543:CB:9878, V-B:ALA:541:CB:9864, H-A:TYR:531:OH:4795, V-B:TYR:539:CE2:9848, V-B:GLU:543:CG:9879, V-A:GLY:544:C:4912, V-B:TYR:539:C:9839, V-A:ASP:366:CG:3213, V-B:TYR:539:CZ:9849, H-B:TYR:539:OH:9850, V-A:GLU:543:CD:4908, V-B:PRO:540:CB:9857, V-B:HIS:456:CE1:9041, V-B:PRO:540:N:9856, V-A:ILE:369:CD1:3239, V-A:HIS:456:CE1:4070, H-B:HIS:456:NE2:9042, V-B:TYR:539:CD2:9846, V-B:GLU:543:CD:9880, V-A:ASP:366:CB:3212, H-A:LYS:547:NZ:4951, H-A:ARG:545:NH2:4928, V-A:LEU:475:CD2:4259, H-A:GLU:543:OE1:4909, H-A:ASP:366:O:3209, V-A:GLU:543:CB:4906, H-A:HIS:456:ND1:4067, H-A:TYR:484:OH:4348, H-A:GLU:543:O:4903"]

$$$$
ZINC1869963638
     RDKit          3D

 50 52  0  0  0  0  0  0  0  0999 V2000
  126.7400  129.2340   64.0270 C   0  0  0  0  0  0  0  0  0  0  0  0
  128.2450  129.0030   63.8020 C   0  0  1  0  0  0  0  0  0  0  0  0
  128.5670  127.7760   64.4730 O   0  0  0  0  0  0  0  0  0  0  0  0
  128.7290  127.7220   65.8480 C   0  0  0  0  0  0  0  0  0  0  0  0
  128.2520  128.7000   66.7390 C   0  0  0  0  0  0  0  0  0  0  0  0
  128.4630  128.5760   68.1120 C   0  0  0  0  0  0  0  0  0  0  0  0
  129.1510  127.4720   68.6160 C   0  0  0  0  0  0  0  0  0  0  0  0
  129.4140  127.3190   70.3140 Cl  0  0  0  0  0  0  0  0  0  0  0  0
  129.6260  126.4940   67.7440 C   0  0  0  0  0  0  0  0  0  0  0  0
  129.4160  126.6180   66.3700 C   0  0  0  0  0  0  0  0  0  0  0  0
  130.0840  125.2590   65.2100 Br  0  0  0  0  0  0  0  0  0  0  0  0
  128.5600  128.9070   62.2920 C   0  0  0  0  0  0  0  0  0  0  0  0
  127.7530  129.3430   61.4680 O   0  0  0  0  0  0  0  0  0  0  0  0
  129.7360  128.3210   61.9830 N   0  0  0  0  0  0  0  0  0  0  0  0
  130.2260  128.0930   60.7030 C   0  0  0  0  0  0  0  0  0  0  0  0
  130.4860  126.9500   60.1080 N   0  0  0  0  0  0  0  0  0  0  0  0
  130.9600  127.3070   58.9190 C   0  0  0  0  0  0  0  0  0  0  0  0
  131.3780  126.3830   57.9740 N   0  0  0  0  0  0  0  0  0  0  0  0
  130.4630  125.8580   56.9590 C   0  0  0  0  0  0  0  0  0  0  0  0
  132.5450  125.5310   58.2090 C   0  0  0  0  0  0  0  0  0  0  0  0
  131.0210  128.6090   58.7130 N   0  0  0  0  0  0  0  0  0  0  0  0
  130.5310  129.1230   59.8470 N   0  0  0  0  0  0  0  0  0  0  0  0
  130.4580  130.5810   60.0530 C   0  0  1  0  0  0  0  0  0  0  0  0
  131.8550  131.2490   60.0420 C   0  0  0  0  0  0  0  0  0  0  0  0
  132.2950  131.5060   58.5920 C   0  0  0  0  0  0  0  0  0  0  0  0
  130.7100  131.9340   57.6740 S   0  0  0  0  0  0  0  0  0  0  0  0
  130.5590  133.3890   57.5720 O   0  0  0  0  0  0  0  0  0  0  0  0
  130.6110  131.0930   56.4770 O   0  0  0  0  0  0  0  0  0  0  0  0
  129.5600  131.2930   59.0200 C   0  0  0  0  0  0  0  0  0  0  0  0
  126.5313  129.2660   65.1066 H   0  0  0  0  0  0  0  0  0  0  0  0
  126.4428  130.1883   63.5676 H   0  0  0  0  0  0  0  0  0  0  0  0
  126.1703  128.4128   63.5676 H   0  0  0  0  0  0  0  0  0  0  0  0
  128.8429  129.8375   64.1972 H   0  0  0  0  0  0  0  0  0  0  0  0
  127.7067  129.5720   66.3488 H   0  0  0  0  0  0  0  0  0  0  0  0
  128.0867  129.3492   68.7980 H   0  0  0  0  0  0  0  0  0  0  0  0
  130.1677  125.6223   68.1398 H   0  0  0  0  0  0  0  0  0  0  0  0
  130.3320  128.0340   62.7450 H   0  0  0  0  0  0  0  0  0  0  0  0
  129.6101  125.3687   57.4521 H   0  0  0  0  0  0  0  0  0  0  0  0
  130.0987  126.6845   56.3311 H   0  0  0  0  0  0  0  0  0  0  0  0
  130.9926  125.1264   56.3311 H   0  0  0  0  0  0  0  0  0  0  0  0
  132.7028  125.4158   59.2915 H   0  0  0  0  0  0  0  0  0  0  0  0
  132.3749  124.5431   57.7560 H   0  0  0  0  0  0  0  0  0  0  0  0
  133.4341  125.9939   57.7560 H   0  0  0  0  0  0  0  0  0  0  0  0
  130.0069  130.6983   61.0494 H   0  0  0  0  0  0  0  0  0  0  0  0
  131.8076  132.2047   60.5845 H   0  0  0  0  0  0  0  0  0  0  0  0
  132.5812  130.5826   60.5303 H   0  0  0  0  0  0  0  0  0  0  0  0
  133.0069  132.3433   58.5462 H   0  0  0  0  0  0  0  0  0  0  0  0
  132.8053  130.6357   58.1537 H   0  0  0  0  0  0  0  0  0  0  0  0
  129.0240  132.1290   59.4931 H   0  0  0  0  0  0  0  0  0  0  0  0
  128.8041  130.6084   58.6078 H   0  0  0  0  0  0  0  0  0  0  0  0
  1  2  1  0
  2  3  1  0
  3  4  1  0
  4  5  2  0
  5  6  1  0
  6  7  2  0
  7  8  1  0
  7  9  1  0
  9 10  2  0
 10 11  1  0
  2 12  1  0
 12 13  2  0
 12 14  1  0
 14 15  1  0
 15 16  2  0
 16 17  1  0
 17 18  1  0
 18 19  1  0
 18 20  1  0
 17 21  2  0
 21 22  1  0
 22 23  1  0
 23 24  1  0
 24 25  1  0
 25 26  1  0
 26 27  2  0
 26 28  2  0
 26 29  1  0
 10  4  1  0
 22 15  1  0
 29 23  1  0
  1 30  1  0
  1 31  1  0
  1 32  1  0
  2 33  1  1
  5 34  1  0
  6 35  1  0
  9 36  1  0
 14 37  1  0
 19 38  1  0
 19 39  1  0
 19 40  1  0
 20 41  1  0
 20 42  1  0
 20 43  1  0
 23 44  1  1
 24 45  1  0
 24 46  1  0
 25 47  1  0
 25 48  1  0
 29 49  1  0
 29 50  1  0
M  END
>  <Binding energies>  (1) 
[-6.81]

>  <Ligand effiencies>  (1) 
[-0.22699999999999998]

>  <Interactions>  (1) 
["V-A:ASP:366:CA:3210, H-A:GLU:543:OE2:4910, V-B:GLU:543:CB:9878, H-A:TYR:531:OH:4795, V-B:GLU:543:CG:9879, V-A:ASP:366:CG:3213, V-A:LEU:363:CD1:3189, V-B:TYR:539:CZ:9849, V-A:GLU:543:CD:4908, V-B:HIS:456:CE1:9041, V-A:HIS:456:CE1:4070, V-A:GLU:543:CG:4907, V-B:GLU:543:CD:9880, V-A:ASP:366:CB:3212, H-A:GLU:543:OE1:4909, V-A:GLU:543:CB:4906, H-A:TYR:539:N:4870, V-A:PRO:540:CB:4885, V-A:PRO:540:CA:4883"]

$$$$
ZINC1870004776-again1
     RDKit          3D

 71 74  0  0  0  0  0  0  0  0999 V2000
  129.8140  132.8220   57.8650 C   0  0  0  0  0  0  0  0  0  0  0  0
  131.0790  132.4270   57.6540 C   0  0  0  0  0  0  0  0  0  0  0  0
  131.5930  131.0210   57.9070 C   0  0  0  0  0  0  0  0  0  0  0  0
  131.8790  130.7150   59.3150 N   0  0  0  0  0  0  0  0  0  0  0  0
  132.9720  131.4900   59.9210 C   0  0  0  0  0  0  0  0  0  0  0  0
  132.7520  131.8500   61.3790 C   0  0  0  0  0  0  0  0  0  0  0  0
  133.2210  131.1390   62.4160 C   0  0  0  0  0  0  0  0  0  0  0  0
  130.8900  130.0830   60.1420 C   0  0  0  0  0  0  0  0  0  0  0  0
  129.7100  130.4540   60.3930 N   0  0  0  0  0  0  0  0  0  0  0  0
  129.1760  129.5030   61.2570 N   0  0  0  0  0  0  0  0  0  0  0  0
  128.0130  129.9480   62.0670 C   0  0  2  0  0  0  0  0  0  0  0  0
  127.2460  131.2090   61.5620 C   0  0  0  0  0  0  0  0  0  0  0  0
  127.9520  132.5170   61.9690 C   0  0  0  0  0  0  0  0  0  0  0  0
  128.9200  132.0850   63.5200 S   0  0  0  0  0  0  0  0  0  0  0  0
  130.3540  132.2200   63.2400 O   0  0  0  0  0  0  0  0  0  0  0  0
  128.3290  132.7420   64.6920 O   0  0  0  0  0  0  0  0  0  0  0  0
  128.4480  130.2690   63.5150 C   0  0  0  0  0  0  0  0  0  0  0  0
  130.0880  128.4420   61.5640 C   0  0  0  0  0  0  0  0  0  0  0  0
  130.0720  127.3950   62.3030 N   0  0  0  0  0  0  0  0  0  0  0  0
  128.9340  126.7940   62.8280 C   0  0  0  0  0  0  0  0  0  0  0  0
  127.9190  127.3910   63.1900 O   0  0  0  0  0  0  0  0  0  0  0  0
  129.0000  125.2450   62.8750 C   0  0  2  0  0  0  0  0  0  0  0  0
  129.4730  124.6770   64.2080 C   0  0  0  0  0  0  0  0  0  0  0  0
  130.3940  123.5050   63.8750 C   0  0  0  0  0  0  0  0  0  0  0  0
  130.8310  122.7000   64.6980 O   0  0  0  0  0  0  0  0  0  0  0  0
  130.6200  123.5440   62.5380 N   0  0  0  0  0  0  0  0  0  0  0  0
  131.4940  122.6630   61.8800 C   0  0  0  0  0  0  0  0  0  0  0  0
  131.0310  121.4000   61.4510 C   0  0  0  0  0  0  0  0  0  0  0  0
  129.5880  120.9500   61.6650 C   0  0  0  0  0  0  0  0  0  0  0  0
  131.9150  120.5260   60.8100 C   0  0  0  0  0  0  0  0  0  0  0  0
  133.2400  120.8900   60.5950 C   0  0  0  0  0  0  0  0  0  0  0  0
  133.7000  122.1310   61.0240 C   0  0  0  0  0  0  0  0  0  0  0  0
  132.8440  123.0240   61.6770 C   0  0  0  0  0  0  0  0  0  0  0  0
  133.4120  124.3780   62.1070 C   0  0  0  0  0  0  0  0  0  0  0  0
  133.5410  124.5190   63.6310 C   0  0  0  0  0  0  0  0  0  0  0  0
  129.9820  124.6700   61.8560 C   0  0  0  0  0  0  0  0  0  0  0  0
  131.2130  128.8840   60.8290 N   0  0  0  0  0  0  0  0  0  0  0  0
  129.5203  133.8613   57.6563 H   0  0  0  0  0  0  0  0  0  0  0  0
  129.0708  132.1065   58.2467 H   0  0  0  0  0  0  0  0  0  0  0  0
  131.7919  133.1725   57.2718 H   0  0  0  0  0  0  0  0  0  0  0  0
  130.8342  130.3095   57.5492 H   0  0  0  0  0  0  0  0  0  0  0  0
  132.5502  130.9396   57.3712 H   0  0  0  0  0  0  0  0  0  0  0  0
  133.8955  130.8968   59.8487 H   0  0  0  0  0  0  0  0  0  0  0  0
  133.0277  132.4394   59.3682 H   0  0  0  0  0  0  0  0  0  0  0  0
  132.1682  132.7556   61.6008 H   0  0  0  0  0  0  0  0  0  0  0  0
  133.0172  131.4682   63.4456 H   0  0  0  0  0  0  0  0  0  0  0  0
  133.8093  130.2270   62.2364 H   0  0  0  0  0  0  0  0  0  0  0  0
  127.3281  129.0911   61.9859 H   0  0  0  0  0  0  0  0  0  0  0  0
  127.1794  131.1682   60.4648 H   0  0  0  0  0  0  0  0  0  0  0  0
  126.2469  131.2053   62.0222 H   0  0  0  0  0  0  0  0  0  0  0  0
  128.6302  132.8546   61.1715 H   0  0  0  0  0  0  0  0  0  0  0  0
  127.2377  133.3353   62.1424 H   0  0  0  0  0  0  0  0  0  0  0  0
  129.3101  129.6489   63.8018 H   0  0  0  0  0  0  0  0  0  0  0  0
  127.6427  130.0592   64.2344 H   0  0  0  0  0  0  0  0  0  0  0  0
  127.9573  124.9593   62.6722 H   0  0  0  0  0  0  0  0  0  0  0  0
  130.0222  125.4433   64.7746 H   0  0  0  0  0  0  0  0  0  0  0  0
  128.6236  124.3531   64.8273 H   0  0  0  0  0  0  0  0  0  0  0  0
  129.3802  120.8852   62.7432 H   0  0  0  0  0  0  0  0  0  0  0  0
  128.9046  121.6777   61.2030 H   0  0  0  0  0  0  0  0  0  0  0  0
  129.4394  119.9629   61.2030 H   0  0  0  0  0  0  0  0  0  0  0  0
  131.5589  119.5414   60.4727 H   0  0  0  0  0  0  0  0  0  0  0  0
  133.9248  120.1962   60.0854 H   0  0  0  0  0  0  0  0  0  0  0  0
  134.7485  122.4131   60.8477 H   0  0  0  0  0  0  0  0  0  0  0  0
  134.4092  124.4981   61.6584 H   0  0  0  0  0  0  0  0  0  0  0  0
  132.7107  125.1527   61.7635 H   0  0  0  0  0  0  0  0  0  0  0  0
  132.8772  123.7934   64.1239 H   0  0  0  0  0  0  0  0  0  0  0  0
  134.5818  124.3260   63.9303 H   0  0  0  0  0  0  0  0  0  0  0  0
  133.2564  125.5385   63.9303 H   0  0  0  0  0  0  0  0  0  0  0  0
  130.7305  125.4244   61.5722 H   0  0  0  0  0  0  0  0  0  0  0  0
  129.4797  124.3598   60.9279 H   0  0  0  0  0  0  0  0  0  0  0  0
  132.1060  128.4150   60.7940 H   0  0  0  0  0  0  0  0  0  0  0  0
  1  2  2  0
  2  3  1  0
  3  4  1  0
  4  5  1  0
  5  6  1  0
  6  7  2  0
  4  8  1  0
  8  9  2  0
  9 10  1  0
 10 11  1  0
 11 12  1  0
 12 13  1  0
 13 14  1  0
 14 15  2  0
 14 16  2  0
 14 17  1  0
 10 18  1  0
 18 19  2  0
 19 20  1  0
 20 21  2  0
 20 22  1  0
 22 23  1  0
 23 24  1  0
 24 25  2  0
 24 26  1  0
 26 27  1  0
 27 28  2  0
 28 29  1  0
 28 30  1  0
 30 31  2  0
 31 32  1  0
 32 33  2  0
 33 34  1  0
 34 35  1  0
 26 36  1  0
 18 37  1  0
 37  8  1  0
 17 11  1  0
 36 22  1  0
 33 27  1  0
  1 38  1  0
  1 39  1  0
  2 40  1  0
  3 41  1  0
  3 42  1  0
  5 43  1  0
  5 44  1  0
  6 45  1  0
  7 46  1  0
  7 47  1  0
 11 48  1  1
 12 49  1  0
 12 50  1  0
 13 51  1  0
 13 52  1  0
 17 53  1  0
 17 54  1  0
 22 55  1  6
 23 56  1  0
 23 57  1  0
 29 58  1  0
 29 59  1  0
 29 60  1  0
 30 61  1  0
 31 62  1  0
 32 63  1  0
 34 64  1  0
 34 65  1  0
 35 66  1  0
 35 67  1  0
 35 68  1  0
 36 69  1  0
 36 70  1  0
 37 71  1  0
M  END
>  <Binding energies>  (1) 
[-8.14]

>  <Ligand effiencies>  (1) 
[-0.2142105263157895]

>  <Interactions>  (1) 
["V-A:ILE:369:CG2:3237, V-A:GLY:454:CA:4049, H-A:ALA:541:N:4891, V-B:ALA:541:CB:9864, V-B:TYR:539:CE2:9848, V-B:GLU:543:CG:9879, V-A:ASP:366:CG:3213, V-A:ASN:362:CB:3176, V-A:ALA:541:CB:4892, V-A:GLU:543:CD:4908, H-B:TYR:484:OH:9319, V-A:ILE:369:CD1:3239, V-B:TYR:539:CD2:9846, V-A:GLU:543:CG:4907, V-A:SER:385:CB:3409, V-B:GLU:543:CD:9880, V-A:TYR:539:C:4867, V-A:LEU:475:CD2:4259, V-A:ARG:545:CZ:4926, H-A:GLU:543:OE1:4909, H-A:ASP:366:OD1:3214, V-A:PRO:540:N:4884, V-A:PRO:540:CB:4885, V-A:PRO:540:CA:4883, V-A:LEU:363:CA:3185, V-A:SER:385:CA:3407, H-A:ASP:366:OD2:3215, H-A:TYR:484:OH:4348"]

$$$$
ZINC1870027860-again1
     RDKit          3D

 68 70  0  0  0  0  0  0  0  0999 V2000
  128.3420  133.7060   62.0090 C   0  0  0  0  0  0  0  0  0  0  0  0
  129.3970  132.5930   62.0830 C   0  0  0  0  0  0  0  0  0  0  0  0
  129.4130  131.8310   63.4220 C   0  0  0  0  0  0  0  0  0  0  0  0
  128.1070  131.9580   64.2340 C   0  0  0  0  0  0  0  0  0  0  0  0
  127.4270  130.6800   64.4710 N   0  0  0  0  0  0  0  0  0  0  0  0
  126.0790  130.6190   63.8930 C   0  0  0  0  0  0  0  0  0  0  0  0
  125.7160  129.2540   63.2750 C   0  0  0  0  0  0  0  0  0  0  0  0
  126.4660  128.9710   61.9620 C   0  0  0  0  0  0  0  0  0  0  0  0
  127.3280  127.7030   62.0300 C   0  0  0  0  0  0  0  0  0  0  0  0
  127.9210  129.7170   65.3410 C   0  0  0  0  0  0  0  0  0  0  0  0
  128.1130  129.9560   66.6350 N   0  0  0  0  0  0  0  0  0  0  0  0
  128.5820  128.8210   67.1000 C   0  0  0  0  0  0  0  0  0  0  0  0
  128.9670  128.4970   68.3950 N   0  0  0  0  0  0  0  0  0  0  0  0
  128.2940  127.7070   69.2620 C   0  0  0  0  0  0  0  0  0  0  0  0
  127.2390  127.1270   68.9970 O   0  0  0  0  0  0  0  0  0  0  0  0
  128.9420  127.5300   70.6190 C   0  0  0  0  0  0  0  0  0  0  0  0
  128.3720  126.7120   71.6050 C   0  0  0  0  0  0  0  0  0  0  0  0
  128.9910  126.5610   72.8430 C   0  0  0  0  0  0  0  0  0  0  0  0
  130.1930  127.2090   73.1420 C   0  0  0  0  0  0  0  0  0  0  0  0
  130.7330  127.0020   74.3890 N   0  0  0  0  0  0  0  0  0  0  0  0
  132.2350  126.6150   74.6200 S   0  0  0  0  0  0  0  0  0  0  0  0
  132.1240  124.8140   75.1650 C   0  0  0  0  0  0  0  0  0  0  0  0
  133.0130  126.5900   73.3770 O   0  0  0  0  0  0  0  0  0  0  0  0
  132.8320  127.3210   75.7580 O   0  0  0  0  0  0  0  0  0  0  0  0
  130.7600  128.0240   72.1480 C   0  0  0  0  0  0  0  0  0  0  0  0
  130.1470  128.1810   70.9070 C   0  0  0  0  0  0  0  0  0  0  0  0
  128.6630  127.9150   66.0740 N   0  0  0  0  0  0  0  0  0  0  0  0
  129.1250  126.5210   66.0650 C   0  0  2  0  0  0  0  0  0  0  0  0
  130.0620  126.1770   67.2480 C   0  0  0  0  0  0  0  0  0  0  0  0
  130.6060  124.7580   67.0360 C   0  0  0  0  0  0  0  0  0  0  0  0
  130.8810  124.6240   65.1810 S   0  0  0  0  0  0  0  0  0  0  0  0
  132.2790  124.9210   64.8510 O   0  0  0  0  0  0  0  0  0  0  0  0
  130.2490  123.3940   64.6930 O   0  0  0  0  0  0  0  0  0  0  0  0
  129.8200  126.1140   64.7500 C   0  0  0  0  0  0  0  0  0  0  0  0
  128.2340  128.4960   64.9480 N   0  0  0  0  0  0  0  0  0  0  0  0
  128.0557  134.0081   63.0272 H   0  0  0  0  0  0  0  0  0  0  0  0
  128.7591  134.5715   61.4734 H   0  0  0  0  0  0  0  0  0  0  0  0
  127.4554  133.3358   61.4734 H   0  0  0  0  0  0  0  0  0  0  0  0
  129.1957  131.8718   61.2772 H   0  0  0  0  0  0  0  0  0  0  0  0
  130.3788  133.0787   61.9821 H   0  0  0  0  0  0  0  0  0  0  0  0
  129.5866  130.7654   63.2112 H   0  0  0  0  0  0  0  0  0  0  0  0
  130.2112  132.2785   64.0324 H   0  0  0  0  0  0  0  0  0  0  0  0
  128.3476  132.4081   65.2084 H   0  0  0  0  0  0  0  0  0  0  0  0
  127.4208  132.5790   63.6394 H   0  0  0  0  0  0  0  0  0  0  0  0
  125.3525  130.8414   64.6884 H   0  0  0  0  0  0  0  0  0  0  0  0
  126.0534  131.3529   63.0740 H   0  0  0  0  0  0  0  0  0  0  0  0
  125.9654  128.4640   63.9986 H   0  0  0  0  0  0  0  0  0  0  0  0
  124.6410  129.2730   63.0427 H   0  0  0  0  0  0  0  0  0  0  0  0
  125.7283  128.8515   61.1548 H   0  0  0  0  0  0  0  0  0  0  0  0
  127.1404  129.8200   61.7766 H   0  0  0  0  0  0  0  0  0  0  0  0
  127.5081  127.4381   63.0823 H   0  0  0  0  0  0  0  0  0  0  0  0
  126.8041  126.8761   61.5282 H   0  0  0  0  0  0  0  0  0  0  0  0
  128.2896  127.8860   61.5282 H   0  0  0  0  0  0  0  0  0  0  0  0
  129.8410  128.8890   68.7110 H   0  0  0  0  0  0  0  0  0  0  0  0
  127.4285  126.1855   71.3988 H   0  0  0  0  0  0  0  0  0  0  0  0
  128.5237  125.9174   73.6028 H   0  0  0  0  0  0  0  0  0  0  0  0
  132.1209  124.7630   76.2638 H   0  0  0  0  0  0  0  0  0  0  0  0
  131.1967  124.3693   74.7746 H   0  0  0  0  0  0  0  0  0  0  0  0
  132.9896  124.2588   74.7746 H   0  0  0  0  0  0  0  0  0  0  0  0
  131.7053  128.5477   72.3534 H   0  0  0  0  0  0  0  0  0  0  0  0
  130.6146  128.8229   70.1459 H   0  0  0  0  0  0  0  0  0  0  0  0
  128.1961  125.9409   66.1682 H   0  0  0  0  0  0  0  0  0  0  0  0
  130.8959  126.8936   67.2824 H   0  0  0  0  0  0  0  0  0  0  0  0
  129.5092  126.2327   68.1974 H   0  0  0  0  0  0  0  0  0  0  0  0
  131.5525  124.6203   67.5793 H   0  0  0  0  0  0  0  0  0  0  0  0
  129.9162  123.9876   67.4110 H   0  0  0  0  0  0  0  0  0  0  0  0
  130.4470  126.9369   64.3762 H   0  0  0  0  0  0  0  0  0  0  0  0
  129.0916  125.8806   63.9594 H   0  0  0  0  0  0  0  0  0  0  0  0
  1  2  1  0
  2  3  1  0
  3  4  1  0
  4  5  1  0
  5  6  1  0
  6  7  1  0
  7  8  1  0
  8  9  1  0
  5 10  1  0
 10 11  1  0
 11 12  2  0
 12 13  1  0
 13 14  1  0
 14 15  2  0
 14 16  1  0
 16 17  2  0
 17 18  1  0
 18 19  2  0
 19 20  1  0
 20 21  1  0
 21 22  1  0
 21 23  2  0
 21 24  2  0
 19 25  1  0
 25 26  2  0
 12 27  1  0
 27 28  1  0
 28 29  1  0
 29 30  1  0
 30 31  1  0
 31 32  2  0
 31 33  2  0
 31 34  1  0
 27 35  1  0
 35 10  2  0
 26 16  1  0
 34 28  1  0
  1 36  1  0
  1 37  1  0
  1 38  1  0
  2 39  1  0
  2 40  1  0
  3 41  1  0
  3 42  1  0
  4 43  1  0
  4 44  1  0
  6 45  1  0
  6 46  1  0
  7 47  1  0
  7 48  1  0
  8 49  1  0
  8 50  1  0
  9 51  1  0
  9 52  1  0
  9 53  1  0
 13 54  1  0
 17 55  1  0
 18 56  1  0
 22 57  1  0
 22 58  1  0
 22 59  1  0
 25 60  1  0
 26 61  1  0
 28 62  1  1
 29 63  1  0
 29 64  1  0
 30 65  1  0
 30 66  1  0
 34 67  1  0
 34 68  1  0
M  CHG  1  20  -1
M  END
>  <Binding energies>  (1) 
[-8.3]

>  <Ligand effiencies>  (1) 
[-0.23055555555555557]

>  <Interactions>  (1) 
["H-A:GLU:543:OE2:4910, V-A:GLU:543:C:4902, V-B:GLU:543:CB:9878, V-A:TYR:484:CE2:4346, V-B:LEU:475:CD2:9230, V-A:GLY:544:C:4912, V-B:GLU:543:CG:9879, V-A:HIS:456:CD2:4068, V-B:TYR:484:CE2:9317, V-A:ALA:541:CB:4892, V-A:HIS:456:CB:4065, V-A:GLU:543:CD:4908, V-A:TYR:484:CZ:4347, H-B:TYR:484:OH:9319, V-B:HIS:456:CE1:9041, V-B:TYR:484:CZ:9318, V-A:HIS:456:CE1:4070, V-A:GLU:543:CG:4907, V-B:GLU:543:CD:9880, V-B:ARG:545:CZ:9898, H-A:LYS:547:NZ:4951, H-A:ARG:545:NH2:4928, V-A:GLU:543:CB:4906, V-A:HIS:456:CG:4066, V-A:PRO:540:CA:4883, H-A:HIS:456:ND1:4067, H-A:TYR:484:OH:4348, H-A:GLU:543:O:4903"]

$$$$
ZINC1870256255
     RDKit          3D

 64 66  0  0  0  0  0  0  0  0999 V2000
  132.7740  125.0850   64.8680 C   0  0  0  0  0  0  0  0  0  0  0  0
  133.8490  124.7150   64.0100 O   0  0  0  0  0  0  0  0  0  0  0  0
  133.6390  124.6790   62.6450 C   0  0  0  0  0  0  0  0  0  0  0  0
  134.4490  123.9820   61.7370 C   0  0  0  0  0  0  0  0  0  0  0  0
  134.1560  124.0050   60.3760 C   0  0  0  0  0  0  0  0  0  0  0  0
  133.0600  124.7200   59.8950 C   0  0  0  0  0  0  0  0  0  0  0  0
  132.8530  124.6880   58.5300 O   0  0  0  0  0  0  0  0  0  0  0  0
  132.5300  125.8950   57.8450 C   0  0  0  0  0  0  0  0  0  0  0  0
  131.0080  125.9970   57.6370 C   0  0  0  0  0  0  0  0  0  0  0  0
  130.2610  126.4350   58.8230 N   0  0  0  0  0  0  0  0  0  0  0  0
  130.5330  127.7150   59.2910 C   0  0  0  0  0  0  0  0  0  0  0  0
  129.6910  128.4070   60.1040 C   0  0  0  0  0  0  0  0  0  0  0  0
  129.8940  129.6700   60.5760 O   0  0  0  0  0  0  0  0  0  0  0  0
  131.1150  129.9550   61.2570 C   0  0  0  0  0  0  0  0  0  0  0  0
  131.3900  131.4590   61.2530 C   0  0  0  0  0  0  0  0  0  0  0  0
  130.9140  132.2180   62.1010 O   0  0  0  0  0  0  0  0  0  0  0  0
  132.1910  131.8180   60.2310 O   0  0  0  0  0  0  0  0  0  0  0  0
  132.2170  131.0620   59.0250 C   0  0  0  0  0  0  0  0  0  0  0  0
  131.1780  131.5850   58.0110 C   0  0  0  0  0  0  0  0  0  0  0  0
  130.6130  130.4570   57.1270 C   0  0  0  0  0  0  0  0  0  0  0  0
  131.7310  132.7450   57.1610 C   0  0  0  0  0  0  0  0  0  0  0  0
  128.4220  127.8100   60.5770 C   0  0  0  0  0  0  0  0  0  0  0  0
  127.5970  128.3880   61.2830 O   0  0  0  0  0  0  0  0  0  0  0  0
  128.2490  126.4150   60.1250 C   0  0  0  0  0  0  0  0  0  0  0  0
  129.1250  125.7660   59.3070 C   0  0  0  0  0  0  0  0  0  0  0  0
  128.9470  124.3060   58.8590 C   0  0  0  0  0  0  0  0  0  0  0  0
  127.2820  123.5580   58.9800 S   0  0  0  0  0  0  0  0  0  0  0  0
  127.2300  123.1310   60.6970 C   0  0  0  0  0  0  0  0  0  0  0  0
  126.2000  123.2740   61.5000 N   0  0  0  0  0  0  0  0  0  0  0  0
  126.6230  122.8510   62.7550 N   0  0  0  0  0  0  0  0  0  0  0  0
  127.9420  122.4490   62.6960 N   0  0  0  0  0  0  0  0  0  0  0  0
  128.2860  122.6110   61.4140 N   0  0  0  0  0  0  0  0  0  0  0  0
  129.6490  122.3380   60.9880 C   0  0  0  0  0  0  0  0  0  0  0  0
  132.2470  125.4140   60.8040 C   0  0  0  0  0  0  0  0  0  0  0  0
  132.5400  125.3920   62.1660 C   0  0  0  0  0  0  0  0  0  0  0  0
  133.0880  124.9769   65.9167 H   0  0  0  0  0  0  0  0  0  0  0  0
  132.4942  126.1312   64.6750 H   0  0  0  0  0  0  0  0  0  0  0  0
  131.9096  124.4327   64.6750 H   0  0  0  0  0  0  0  0  0  0  0  0
  135.3186  123.4153   62.1011 H   0  0  0  0  0  0  0  0  0  0  0  0
  134.7964  123.4529   59.6724 H   0  0  0  0  0  0  0  0  0  0  0  0
  132.8738  126.7538   58.4402 H   0  0  0  0  0  0  0  0  0  0  0  0
  133.0273  125.8951   56.8638 H   0  0  0  0  0  0  0  0  0  0  0  0
  130.8191  126.7164   56.8265 H   0  0  0  0  0  0  0  0  0  0  0  0
  130.6550  124.9822   57.4011 H   0  0  0  0  0  0  0  0  0  0  0  0
  131.4768  128.1922   58.9885 H   0  0  0  0  0  0  0  0  0  0  0  0
  131.0407  129.6030   62.2965 H   0  0  0  0  0  0  0  0  0  0  0  0
  131.9393  129.4406   60.7413 H   0  0  0  0  0  0  0  0  0  0  0  0
  133.2200  131.1337   58.5791 H   0  0  0  0  0  0  0  0  0  0  0  0
  131.9709  130.0172   59.2656 H   0  0  0  0  0  0  0  0  0  0  0  0
  130.3403  131.9857   58.6007 H   0  0  0  0  0  0  0  0  0  0  0  0
  130.2120  129.6564   57.7659 H   0  0  0  0  0  0  0  0  0  0  0  0
  129.8087  130.8568   56.4919 H   0  0  0  0  0  0  0  0  0  0  0  0
  131.4148  130.0523   56.4919 H   0  0  0  0  0  0  0  0  0  0  0  0
  132.1088  133.5375   57.8237 H   0  0  0  0  0  0  0  0  0  0  0  0
  132.5502  132.3763   56.5262 H   0  0  0  0  0  0  0  0  0  0  0  0
  130.9288  133.1493   56.5262 H   0  0  0  0  0  0  0  0  0  0  0  0
  127.3597  125.8666   60.4691 H   0  0  0  0  0  0  0  0  0  0  0  0
  129.2534  124.2495   57.8041 H   0  0  0  0  0  0  0  0  0  0  0  0
  129.5563  123.7281   59.5695 H   0  0  0  0  0  0  0  0  0  0  0  0
  130.2907  122.2095   61.8721 H   0  0  0  0  0  0  0  0  0  0  0  0
  129.6674  121.4183   60.3848 H   0  0  0  0  0  0  0  0  0  0  0  0
  130.0202  123.1796   60.3848 H   0  0  0  0  0  0  0  0  0  0  0  0
  131.3752  125.9775   60.4400 H   0  0  0  0  0  0  0  0  0  0  0  0
  131.8985  125.9421   62.8702 H   0  0  0  0  0  0  0  0  0  0  0  0
  1  2  1  0
  2  3  1  0
  3  4  2  0
  4  5  1  0
  5  6  2  0
  6  7  1  0
  7  8  1  0
  8  9  1  0
  9 10  1  0
 10 11  1  0
 11 12  2  0
 12 13  1  0
 13 14  1  0
 14 15  1  0
 15 16  2  0
 15 17  1  0
 17 18  1  0
 18 19  1  0
 19 20  1  0
 19 21  1  0
 12 22  1  0
 22 23  2  0
 22 24  1  0
 24 25  2  0
 25 26  1  0
 26 27  1  0
 27 28  1  0
 28 29  2  0
 29 30  1  0
 30 31  2  0
 31 32  1  0
 32 33  1  0
  6 34  1  0
 34 35  2  0
 35  3  1  0
 25 10  1  0
 32 28  1  0
  1 36  1  0
  1 37  1  0
  1 38  1  0
  4 39  1  0
  5 40  1  0
  8 41  1  0
  8 42  1  0
  9 43  1  0
  9 44  1  0
 11 45  1  0
 14 46  1  0
 14 47  1  0
 18 48  1  0
 18 49  1  0
 19 50  1  0
 20 51  1  0
 20 52  1  0
 20 53  1  0
 21 54  1  0
 21 55  1  0
 21 56  1  0
 24 57  1  0
 26 58  1  0
 26 59  1  0
 33 60  1  0
 33 61  1  0
 33 62  1  0
 34 63  1  0
 35 64  1  0
M  END
>  <Binding energies>  (1) 
[-7.33]

>  <Ligand effiencies>  (1) 
[-0.20942857142857144]

>  <Interactions>  (1) 
["V-A:ILE:369:CG2:3237, V-A:ASP:366:CA:3210, V-B:PRO:540:CA:9855, V-A:ILE:369:CB:3236, H-A:ALA:541:N:4891, V-A:ILE:538:CB:4862, H-A:ARG:545:NH1:4927, V-B:TYR:539:CE2:9848, V-A:ASP:366:CG:3213, V-A:LEU:363:CD1:3189, V-B:TYR:539:CZ:9849, H-B:TYR:539:OH:9850, H-B:ALA:541:N:9863, V-B:PRO:540:CB:9857, H-A:GLY:454:N:4050, V-A:ILE:369:CD1:3239, V-B:TYR:539:CD2:9846, V-A:MET:535:CE:4835, V-A:ASP:366:CB:3212, H-A:ARG:545:NH2:4928, V-A:ARG:545:CZ:4926, V-A:PRO:540:N:4884, V-A:PRO:540:CB:4885, V-A:PRO:540:CA:4883, H-A:ARG:545:NE:4924, V-B:PRO:540:C:9853, V-A:PRO:540:CD:4887"]

$$$$
ZINC1870410251
     RDKit          3D

 75 77  0  0  0  0  0  0  0  0999 V2000
  132.0120  121.5000   60.8960 C   0  0  0  0  0  0  0  0  0  0  0  0
  130.8520  122.0890   60.5650 C   0  0  0  0  0  0  0  0  0  0  0  0
  129.4790  121.4680   60.7670 C   0  0  0  0  0  0  0  0  0  0  0  0
  128.3550  122.3100   60.3300 N   0  0  0  0  0  0  0  0  0  0  0  0
  128.3160  122.4710   58.8690 C   0  0  0  0  0  0  0  0  0  0  0  0
  127.9990  123.8650   58.3410 C   0  0  0  0  0  0  0  0  0  0  0  0
  128.8870  124.6620   57.7270 C   0  0  0  0  0  0  0  0  0  0  0  0
  128.2880  123.6290   60.9800 C   0  0  0  0  0  0  0  0  0  0  0  0
  128.8670  123.7360   62.3930 C   0  0  0  0  0  0  0  0  0  0  0  0
  128.6380  122.7690   63.3210 C   0  0  0  0  0  0  0  0  0  0  0  0
  129.1660  122.8160   64.6980 C   0  0  0  0  0  0  0  0  0  0  0  0
  128.9100  121.9560   65.5410 O   0  0  0  0  0  0  0  0  0  0  0  0
  130.0400  123.9900   64.9310 C   0  0  0  0  0  0  0  0  0  0  0  0
  130.6200  123.9850   66.1650 O   0  0  0  0  0  0  0  0  0  0  0  0
  131.1280  125.2100   66.6990 C   0  0  0  0  0  0  0  0  0  0  0  0
  130.0430  125.8890   67.5410 C   0  0  0  0  0  0  0  0  0  0  0  0
  129.1350  125.2310   68.0520 O   0  0  0  0  0  0  0  0  0  0  0  0
  130.1570  127.2240   67.6730 N   0  0  0  0  0  0  0  0  0  0  0  0
  129.2550  128.1060   68.4290 C   0  0  1  0  0  0  0  0  0  0  0  0
  127.9340  128.3560   67.6620 C   0  0  0  0  0  0  0  0  0  0  0  0
  129.0990  127.7210   69.9150 C   0  0  0  0  0  0  0  0  0  0  0  0
  130.1150  128.0670   70.8170 C   0  0  0  0  0  0  0  0  0  0  0  0
  130.0150  127.7240   72.1630 C   0  0  0  0  0  0  0  0  0  0  0  0
  128.8940  127.0350   72.6170 C   0  0  0  0  0  0  0  0  0  0  0  0
  127.8750  126.6860   71.7360 C   0  0  0  0  0  0  0  0  0  0  0  0
  127.9770  127.0260   70.3900 C   0  0  0  0  0  0  0  0  0  0  0  0
  130.2200  124.9340   63.9680 C   0  0  0  0  0  0  0  0  0  0  0  0
  129.5870  124.8900   62.7340 N   0  0  0  0  0  0  0  0  0  0  0  0
  129.3820  126.1780   62.0650 C   0  0  0  0  0  0  0  0  0  0  0  0
  130.6550  126.7690   61.4310 C   0  0  0  0  0  0  0  0  0  0  0  0
  131.1280  125.9700   60.2060 C   0  0  0  0  0  0  0  0  0  0  0  0
  132.3310  125.1830   60.4710 N   0  0  0  0  0  0  0  0  0  0  0  0
  132.7900  124.9060   61.8270 C   0  0  0  0  0  0  0  0  0  0  0  0
  134.1820  124.3340   61.6350 C   0  0  0  0  0  0  0  0  0  0  0  0
  134.2360  123.9230   60.1750 C   0  0  0  0  0  0  0  0  0  0  0  0
  133.0920  124.6600   59.4820 C   0  0  0  0  0  0  0  0  0  0  0  0
  132.9320  124.7460   58.2640 O   0  0  0  0  0  0  0  0  0  0  0  0
  132.9642  122.0203   60.7155 H   0  0  0  0  0  0  0  0  0  0  0  0
  132.0103  120.4970   61.3477 H   0  0  0  0  0  0  0  0  0  0  0  0
  130.8981  123.0920   60.1158 H   0  0  0  0  0  0  0  0  0  0  0  0
  129.4421  120.5257   60.2006 H   0  0  0  0  0  0  0  0  0  0  0  0
  129.3582  121.3254   61.8510 H   0  0  0  0  0  0  0  0  0  0  0  0
  129.3018  122.1821   58.4756 H   0  0  0  0  0  0  0  0  0  0  0  0
  127.4822  121.8380   58.5312 H   0  0  0  0  0  0  0  0  0  0  0  0
  126.9743  124.2429   58.4719 H   0  0  0  0  0  0  0  0  0  0  0  0
  128.5802  125.6574   57.3734 H   0  0  0  0  0  0  0  0  0  0  0  0
  129.9217  124.3199   57.5773 H   0  0  0  0  0  0  0  0  0  0  0  0
  128.8329  124.3412   60.3430 H   0  0  0  0  0  0  0  0  0  0  0  0
  127.2140  123.8378   61.0941 H   0  0  0  0  0  0  0  0  0  0  0  0
  128.0250  121.9035   63.0290 H   0  0  0  0  0  0  0  0  0  0  0  0
  132.0039  124.9995   67.3303 H   0  0  0  0  0  0  0  0  0  0  0  0
  131.4220  125.8756   65.8740 H   0  0  0  0  0  0  0  0  0  0  0  0
  130.9730  127.6690   67.2800 H   0  0  0  0  0  0  0  0  0  0  0  0
  129.7431  129.0896   68.4955 H   0  0  0  0  0  0  0  0  0  0  0  0
  127.1161  128.5108   68.3811 H   0  0  0  0  0  0  0  0  0  0  0  0
  128.0406  129.2499   67.0299 H   0  0  0  0  0  0  0  0  0  0  0  0
  127.7065  127.4850   67.0299 H   0  0  0  0  0  0  0  0  0  0  0  0
  130.9991  128.6144   70.4583 H   0  0  0  0  0  0  0  0  0  0  0  0
  130.8179  127.9962   72.8639 H   0  0  0  0  0  0  0  0  0  0  0  0
  128.8130  126.7644   73.6801 H   0  0  0  0  0  0  0  0  0  0  0  0
  126.9913  126.1429   72.1022 H   0  0  0  0  0  0  0  0  0  0  0  0
  127.1720  126.7477   69.6939 H   0  0  0  0  0  0  0  0  0  0  0  0
  130.9002  125.7726   64.1778 H   0  0  0  0  0  0  0  0  0  0  0  0
  128.6335  126.0392   61.2710 H   0  0  0  0  0  0  0  0  0  0  0  0
  129.0551  126.8880   62.8390 H   0  0  0  0  0  0  0  0  0  0  0  0
  130.4462  127.8029   61.1187 H   0  0  0  0  0  0  0  0  0  0  0  0
  131.4542  126.7280   62.1857 H   0  0  0  0  0  0  0  0  0  0  0  0
  130.3220  125.2870   59.8997 H   0  0  0  0  0  0  0  0  0  0  0  0
  131.3740  126.6933   59.4146 H   0  0  0  0  0  0  0  0  0  0  0  0
  132.8258  125.8294   62.4237 H   0  0  0  0  0  0  0  0  0  0  0  0
  132.1217  124.2197   62.3677 H   0  0  0  0  0  0  0  0  0  0  0  0
  134.9465  125.0947   61.8517 H   0  0  0  0  0  0  0  0  0  0  0  0
  134.3800  123.4892   62.3111 H   0  0  0  0  0  0  0  0  0  0  0  0
  135.2002  124.2136   59.7325 H   0  0  0  0  0  0  0  0  0  0  0  0
  134.1376  122.8333   60.0616 H   0  0  0  0  0  0  0  0  0  0  0  0
  1  2  2  0
  2  3  1  0
  3  4  1  0
  4  5  1  0
  5  6  1  0
  6  7  2  0
  4  8  1  0
  8  9  1  0
  9 10  2  0
 10 11  1  0
 11 12  2  0
 11 13  1  0
 13 14  1  0
 14 15  1  0
 15 16  1  0
 16 17  2  0
 16 18  1  0
 18 19  1  0
 19 20  1  0
 19 21  1  0
 21 22  2  0
 22 23  1  0
 23 24  2  0
 24 25  1  0
 25 26  2  0
 13 27  2  0
 27 28  1  0
 28 29  1  0
 29 30  1  0
 30 31  1  0
 31 32  1  0
 32 33  1  0
 33 34  1  0
 34 35  1  0
 35 36  1  0
 36 37  2  0
 28  9  1  0
 36 32  1  0
 26 21  1  0
  1 38  1  0
  1 39  1  0
  2 40  1  0
  3 41  1  0
  3 42  1  0
  5 43  1  0
  5 44  1  0
  6 45  1  0
  7 46  1  0
  7 47  1  0
  8 48  1  0
  8 49  1  0
 10 50  1  0
 15 51  1  0
 15 52  1  0
 18 53  1  0
 19 54  1  1
 20 55  1  0
 20 56  1  0
 20 57  1  0
 22 58  1  0
 23 59  1  0
 24 60  1  0
 25 61  1  0
 26 62  1  0
 27 63  1  0
 29 64  1  0
 29 65  1  0
 30 66  1  0
 30 67  1  0
 31 68  1  0
 31 69  1  0
 33 70  1  0
 33 71  1  0
 34 72  1  0
 34 73  1  0
 35 74  1  0
 35 75  1  0
M  END
>  <Binding energies>  (1) 
[-7.32]

>  <Ligand effiencies>  (1) 
[-0.19263157894736843]

>  <Interactions>  (1) 
["V-A:ILE:369:CG2:3237, V-A:ASP:366:CA:3210, V-B:PRO:540:CA:9855, V-B:GLU:543:C:9874, H-A:GLU:543:OE2:4910, V-A:ILE:369:CB:3236, V-A:GLU:543:C:4902, V-B:GLU:543:CB:9878, V-B:ALA:541:CB:9864, V-B:TYR:539:CE2:9848, V-A:TYR:484:CE2:4346, V-B:GLU:543:CG:9879, V-B:TYR:539:C:9839, V-A:ASP:366:CG:3213, V-B:TYR:539:CZ:9849, H-B:TYR:539:OH:9850, V-A:TYR:484:CZ:4347, V-A:GLU:543:CD:4908, V-B:HIS:456:CE1:9041, V-B:PRO:540:N:9856, V-A:ILE:369:CD1:3239, V-A:HIS:456:CE1:4070, V-B:GLY:544:C:9884, V-B:TYR:539:CD2:9846, V-A:GLU:543:CG:4907, V-B:GLY:544:CA:9886, V-B:GLU:543:CD:9880, V-A:ASP:366:CB:3212, V-A:LEU:475:CD2:4259, H-A:GLU:543:OE1:4909, V-B:TYR:539:CG:9844, V-A:GLU:543:CB:4906, H-A:TYR:484:OH:4348"]

$$$$
ZINC1870428167
     RDKit          3D

 63 64  0  0  0  0  0  0  0  0999 V2000
  132.4070  125.0910   63.9500 C   0  0  0  0  0  0  0  0  0  0  0  0
  132.6100  125.1890   65.2730 C   0  0  0  0  0  0  0  0  0  0  0  0
  131.5120  125.4260   66.2930 C   0  0  0  0  0  0  0  0  0  0  0  0
  130.1640  125.0690   65.8320 N   0  0  0  0  0  0  0  0  0  0  0  0
  129.8740  123.6300   65.9040 C   0  0  0  0  0  0  0  0  0  0  0  0
  129.5400  122.9240   64.5990 C   0  0  0  0  0  0  0  0  0  0  0  0
  129.1550  123.5480   63.4760 C   0  0  0  0  0  0  0  0  0  0  0  0
  129.1260  125.8440   66.5250 C   0  0  0  0  0  0  0  0  0  0  0  0
  128.7900  127.2160   65.9290 C   0  0  0  0  0  0  0  0  0  0  0  0
  128.9380  127.4520   64.5990 C   0  0  0  0  0  0  0  0  0  0  0  0
  128.6090  128.7390   63.9540 C   0  0  0  0  0  0  0  0  0  0  0  0
  128.7860  128.9470   62.7550 O   0  0  0  0  0  0  0  0  0  0  0  0
  128.0360  129.7200   64.9040 C   0  0  0  0  0  0  0  0  0  0  0  0
  127.6520  130.8830   64.3030 O   0  0  0  0  0  0  0  0  0  0  0  0
  128.4870  132.0370   64.4250 C   0  0  0  0  0  0  0  0  0  0  0  0
  129.1140  132.3650   63.0670 C   0  0  0  0  0  0  0  0  0  0  0  0
  128.8770  133.4380   62.5050 O   0  0  0  0  0  0  0  0  0  0  0  0
  129.8930  131.3960   62.5440 N   0  0  0  0  0  0  0  0  0  0  0  0
  130.5590  131.4540   61.3060 C   0  0  0  0  0  0  0  0  0  0  0  0
  131.9650  131.4790   61.3130 C   0  0  0  0  0  0  0  0  0  0  0  0
  132.8720  131.4260   62.7890 Cl  0  0  0  0  0  0  0  0  0  0  0  0
  132.6690  131.5360   60.1090 C   0  0  0  0  0  0  0  0  0  0  0  0
  131.9860  131.5790   58.8960 C   0  0  0  0  0  0  0  0  0  0  0  0
  130.5940  131.5820   58.8810 C   0  0  0  0  0  0  0  0  0  0  0  0
  129.8720  131.5310   60.0750 C   0  0  0  0  0  0  0  0  0  0  0  0
  128.1440  131.6290   59.9720 Cl  0  0  0  0  0  0  0  0  0  0  0  0
  127.9150  129.4310   66.2280 C   0  0  0  0  0  0  0  0  0  0  0  0
  128.3320  128.2300   66.7860 N   0  0  0  0  0  0  0  0  0  0  0  0
  128.5010  128.2060   68.2460 C   0  0  0  0  0  0  0  0  0  0  0  0
  129.9090  127.7670   68.6780 C   0  0  0  0  0  0  0  0  0  0  0  0
  129.7850  126.9820   69.8550 O   0  0  0  0  0  0  0  0  0  0  0  0
  129.8730  127.7360   71.0570 C   0  0  0  0  0  0  0  0  0  0  0  0
  128.7510  127.3140   72.0180 C   0  0  0  0  0  0  0  0  0  0  0  0
  128.6340  125.9060   72.0650 O   0  0  0  0  0  0  0  0  0  0  0  0
  133.2577  124.9181   63.2744 H   0  0  0  0  0  0  0  0  0  0  0  0
  131.3900  125.1835   63.5413 H   0  0  0  0  0  0  0  0  0  0  0  0
  133.6414  125.0909   65.6426 H   0  0  0  0  0  0  0  0  0  0  0  0
  131.7389  124.8271   67.1873 H   0  0  0  0  0  0  0  0  0  0  0  0
  131.4981  126.5079   66.4915 H   0  0  0  0  0  0  0  0  0  0  0  0
  130.7583  123.1348   66.3316 H   0  0  0  0  0  0  0  0  0  0  0  0
  128.9594  123.5542   66.5105 H   0  0  0  0  0  0  0  0  0  0  0  0
  129.6196  121.8272   64.5745 H   0  0  0  0  0  0  0  0  0  0  0  0
  128.9310  122.9637   62.5713 H   0  0  0  0  0  0  0  0  0  0  0  0
  129.0633  124.6440   63.4596 H   0  0  0  0  0  0  0  0  0  0  0  0
  128.2041  125.2440   66.5252 H   0  0  0  0  0  0  0  0  0  0  0  0
  129.5339  126.0511   67.5254 H   0  0  0  0  0  0  0  0  0  0  0  0
  129.3246  126.6386   63.9673 H   0  0  0  0  0  0  0  0  0  0  0  0
  127.8831  132.8912   64.7650 H   0  0  0  0  0  0  0  0  0  0  0  0
  129.2842  131.8348   65.1555 H   0  0  0  0  0  0  0  0  0  0  0  0
  129.8940  130.4980   63.0050 H   0  0  0  0  0  0  0  0  0  0  0  0
  133.7689  131.5470   60.1183 H   0  0  0  0  0  0  0  0  0  0  0  0
  132.5464  131.6106   57.9500 H   0  0  0  0  0  0  0  0  0  0  0  0
  130.0587  131.6249   57.9210 H   0  0  0  0  0  0  0  0  0  0  0  0
  127.4646  130.1861   66.8890 H   0  0  0  0  0  0  0  0  0  0  0  0
  128.3128  129.2165   68.6378 H   0  0  0  0  0  0  0  0  0  0  0  0
  127.7881  127.4714   68.6487 H   0  0  0  0  0  0  0  0  0  0  0  0
  130.3750  127.1708   67.8796 H   0  0  0  0  0  0  0  0  0  0  0  0
  130.5398  128.6471   68.8718 H   0  0  0  0  0  0  0  0  0  0  0  0
  130.8484  127.5541   71.5318 H   0  0  0  0  0  0  0  0  0  0  0  0
  129.7687  128.8059   70.8236 H   0  0  0  0  0  0  0  0  0  0  0  0
  128.9787  127.6909   73.0260 H   0  0  0  0  0  0  0  0  0  0  0  0
  127.8009  127.7351   71.6576 H   0  0  0  0  0  0  0  0  0  0  0  0
  128.7670  125.5590   71.1800 H   0  0  0  0  0  0  0  0  0  0  0  0
  1  2  2  0
  2  3  1  0
  3  4  1  0
  4  5  1  0
  5  6  1  0
  6  7  2  0
  4  8  1  0
  8  9  1  0
  9 10  2  0
 10 11  1  0
 11 12  2  0
 11 13  1  0
 13 14  1  0
 14 15  1  0
 15 16  1  0
 16 17  2  0
 16 18  1  0
 18 19  1  0
 19 20  2  0
 20 21  1  0
 20 22  1  0
 22 23  2  0
 23 24  1  0
 24 25  2  0
 25 26  1  0
 13 27  2  0
 27 28  1  0
 28 29  1  0
 29 30  1  0
 30 31  1  0
 31 32  1  0
 32 33  1  0
 33 34  1  0
 28  9  1  0
 25 19  1  0
  1 35  1  0
  1 36  1  0
  2 37  1  0
  3 38  1  0
  3 39  1  0
  5 40  1  0
  5 41  1  0
  6 42  1  0
  7 43  1  0
  7 44  1  0
  8 45  1  0
  8 46  1  0
 10 47  1  0
 15 48  1  0
 15 49  1  0
 18 50  1  0
 22 51  1  0
 23 52  1  0
 24 53  1  0
 27 54  1  0
 29 55  1  0
 29 56  1  0
 30 57  1  0
 30 58  1  0
 32 59  1  0
 32 60  1  0
 33 61  1  0
 33 62  1  0
 34 63  1  0
M  END
>  <Binding energies>  (1) 
[-6.04]

>  <Ligand effiencies>  (1) 
[-0.16777777777777778]

>  <Interactions>  (1) 
["H-B:GLU:543:O:9875, H-A:ALA:541:N:4891, V-B:GLU:543:CB:9878, H-B:LYS:547:NZ:9923, V-B:ALA:541:CB:9864, V-A:TYR:484:CE2:4346, V-B:GLU:543:CG:9879, V-A:ASN:362:CB:3176, V-B:TYR:484:CE2:9317, V-A:ALA:541:CB:4892, V-A:GLU:543:CD:4908, V-A:TYR:484:CZ:4347, H-B:TYR:484:OH:9319, V-B:HIS:456:CE1:9041, V-B:GLU:543:CA:9876, V-B:TYR:484:CZ:9318, V-A:HIS:456:CE1:4070, V-A:GLU:543:CG:4907, V-B:GLU:543:CD:9880, V-A:ARG:545:CZ:4926, H-A:GLU:543:OE1:4909, V-A:GLU:543:CB:4906, V-A:PRO:540:CB:4885, V-A:PRO:540:CA:4883, H-A:HIS:456:NE2:4071, H-A:TYR:484:OH:4348"]

$$$$
ZINC1870515081
     RDKit          3D

 80 82  0  0  0  0  0  0  0  0999 V2000
  130.2100  117.2370   61.2410 C   0  0  0  0  0  0  0  0  0  0  0  0
  130.1650  118.7350   61.5770 C   0  0  0  0  0  0  0  0  0  0  0  0
  131.1530  119.5950   60.7670 C   0  0  0  0  0  0  0  0  0  0  0  0
  130.9920  121.1110   61.0040 C   0  0  0  0  0  0  0  0  0  0  0  0
  132.2440  121.8650   60.8410 N   0  0  0  0  0  0  0  0  0  0  0  0
  132.0530  123.2340   60.3510 C   0  0  0  0  0  0  0  0  0  0  0  0
  133.4650  121.4030   61.2190 C   0  0  0  0  0  0  0  0  0  0  0  0
  133.9690  120.3910   60.7250 O   0  0  0  0  0  0  0  0  0  0  0  0
  134.2450  122.1640   62.3090 C   0  0  0  0  0  0  0  0  0  0  0  0
  133.4980  122.1700   63.5280 O   0  0  0  0  0  0  0  0  0  0  0  0
  132.4810  123.0690   63.6780 C   0  0  0  0  0  0  0  0  0  0  0  0
  131.1680  122.7630   63.8470 C   0  0  0  0  0  0  0  0  0  0  0  0
  130.1710  123.7240   63.9760 N   0  0  0  0  0  0  0  0  0  0  0  0
  128.8060  123.3230   63.5950 C   0  0  0  0  0  0  0  0  0  0  0  0
  128.5890  123.0880   62.0830 C   0  0  0  0  0  0  0  0  0  0  0  0
  129.0000  124.2610   61.1660 C   0  0  0  0  0  0  0  0  0  0  0  0
  127.9690  124.5930   60.0680 C   0  0  0  0  0  0  0  0  0  0  0  0
  126.8090  123.5810   59.9720 C   0  0  0  0  0  0  0  0  0  0  0  0
  125.6100  123.9430   60.8630 C   0  0  0  0  0  0  0  0  0  0  0  0
  125.6470  123.2100   62.0700 O   0  0  0  0  0  0  0  0  0  0  0  0
  130.5590  125.0660   64.1140 C   0  0  0  0  0  0  0  0  0  0  0  0
  129.4850  126.1100   64.4350 C   0  0  0  0  0  0  0  0  0  0  0  0
  129.1130  126.2090   65.8490 N   0  0  0  0  0  0  0  0  0  0  0  0
  130.2110  125.8220   66.7300 C   0  0  0  0  0  0  0  0  0  0  0  0
  129.7350  125.8150   68.1990 C   0  0  0  0  0  0  0  0  0  0  0  0
  129.1300  127.0810   68.6700 N   0  0  0  0  0  0  0  0  0  0  0  0
  128.9350  127.3220   70.0370 C   0  0  0  0  0  0  0  0  0  0  0  0
  127.7470  126.9710   70.7060 C   0  0  0  0  0  0  0  0  0  0  0  0
  127.6100  127.2600   72.0660 C   0  0  0  0  0  0  0  0  0  0  0  0
  128.6450  127.9010   72.7420 C   0  0  0  0  0  0  0  0  0  0  0  0
  129.7930  128.2360   72.0270 C   0  0  0  0  0  0  0  0  0  0  0  0
  129.9390  127.9630   70.7070 N   0  0  0  0  0  0  0  0  0  0  0  0
  128.2240  127.6530   67.6500 C   0  0  0  0  0  0  0  0  0  0  0  0
  128.7400  127.5780   66.1950 C   0  0  0  0  0  0  0  0  0  0  0  0
  131.8550  125.4320   63.9320 C   0  0  0  0  0  0  0  0  0  0  0  0
  132.9450  124.4760   63.6530 C   0  0  0  0  0  0  0  0  0  0  0  0
  134.1050  124.8280   63.4440 O   0  0  0  0  0  0  0  0  0  0  0  0
  130.2276  116.6526   62.1728 H   0  0  0  0  0  0  0  0  0  0  0  0
  129.3196  116.9658   60.6548 H   0  0  0  0  0  0  0  0  0  0  0  0
  131.1151  117.0197   60.6548 H   0  0  0  0  0  0  0  0  0  0  0  0
  129.1469  119.1020   61.3802 H   0  0  0  0  0  0  0  0  0  0  0  0
  130.4564  118.8303   62.6334 H   0  0  0  0  0  0  0  0  0  0  0  0
  132.1765  119.3061   61.0479 H   0  0  0  0  0  0  0  0  0  0  0  0
  130.9429  119.4112   59.7030 H   0  0  0  0  0  0  0  0  0  0  0  0
  130.2551  121.4997   60.2857 H   0  0  0  0  0  0  0  0  0  0  0  0
  130.6672  121.2434   62.0466 H   0  0  0  0  0  0  0  0  0  0  0  0
  131.9574  123.9195   61.2060 H   0  0  0  0  0  0  0  0  0  0  0  0
  132.9187  123.5288   59.7397 H   0  0  0  0  0  0  0  0  0  0  0  0
  131.1397  123.2806   59.7397 H   0  0  0  0  0  0  0  0  0  0  0  0
  135.2131  121.6696   62.4770 H   0  0  0  0  0  0  0  0  0  0  0  0
  134.4089  123.2007   61.9798 H   0  0  0  0  0  0  0  0  0  0  0  0
  130.8792  121.7022   63.8836 H   0  0  0  0  0  0  0  0  0  0  0  0
  128.5657  122.3884   64.1229 H   0  0  0  0  0  0  0  0  0  0  0  0
  128.1519  124.1632   63.8711 H   0  0  0  0  0  0  0  0  0  0  0  0
  129.1757  122.2052   61.7888 H   0  0  0  0  0  0  0  0  0  0  0  0
  127.5046  122.9623   61.9477 H   0  0  0  0  0  0  0  0  0  0  0  0
  129.1394  125.1555   61.7908 H   0  0  0  0  0  0  0  0  0  0  0  0
  129.9228  123.9537   60.6522 H   0  0  0  0  0  0  0  0  0  0  0  0
  127.5455  125.5859   60.2796 H   0  0  0  0  0  0  0  0  0  0  0  0
  128.5036  124.5573   59.1073 H   0  0  0  0  0  0  0  0  0  0  0  0
  126.4675  123.5397   58.9272 H   0  0  0  0  0  0  0  0  0  0  0  0
  127.1932  122.6114   60.3216 H   0  0  0  0  0  0  0  0  0  0  0  0
  125.6418  125.0184   61.0922 H   0  0  0  0  0  0  0  0  0  0  0  0
  124.6823  123.6951   60.3264 H   0  0  0  0  0  0  0  0  0  0  0  0
  125.8750  123.8090   62.7840 H   0  0  0  0  0  0  0  0  0  0  0  0
  129.8587  127.0929   64.1119 H   0  0  0  0  0  0  0  0  0  0  0  0
  128.5778  125.7878   63.9028 H   0  0  0  0  0  0  0  0  0  0  0  0
  130.5601  124.8155   66.4558 H   0  0  0  0  0  0  0  0  0  0  0  0
  131.0324  126.5455   66.6210 H   0  0  0  0  0  0  0  0  0  0  0  0
  128.9858  125.0173   68.3104 H   0  0  0  0  0  0  0  0  0  0  0  0
  130.6354  125.6598   68.8116 H   0  0  0  0  0  0  0  0  0  0  0  0
  126.9317  126.4723   70.1613 H   0  0  0  0  0  0  0  0  0  0  0  0
  126.6892  126.9826   72.6001 H   0  0  0  0  0  0  0  0  0  0  0  0
  128.5585  128.1368   73.8129 H   0  0  0  0  0  0  0  0  0  0  0  0
  130.6143  128.7426   72.5550 H   0  0  0  0  0  0  0  0  0  0  0  0
  127.2686  127.1101   67.7006 H   0  0  0  0  0  0  0  0  0  0  0  0
  128.1344  128.7234   67.8872 H   0  0  0  0  0  0  0  0  0  0  0  0
  127.9475  127.9196   65.5129 H   0  0  0  0  0  0  0  0  0  0  0  0
  129.6278  128.2207   66.1013 H   0  0  0  0  0  0  0  0  0  0  0  0
  132.1062  126.5010   63.9962 H   0  0  0  0  0  0  0  0  0  0  0  0
  1  2  1  0
  2  3  1  0
  3  4  1  0
  4  5  1  0
  5  6  1  0
  5  7  1  0
  7  8  2  0
  7  9  1  0
  9 10  1  0
 10 11  1  0
 11 12  2  0
 12 13  1  0
 13 14  1  0
 14 15  1  0
 15 16  1  0
 16 17  1  0
 17 18  1  0
 18 19  1  0
 19 20  1  0
 13 21  1  0
 21 22  1  0
 22 23  1  0
 23 24  1  0
 24 25  1  0
 25 26  1  0
 26 27  1  0
 27 28  2  0
 28 29  1  0
 29 30  2  0
 30 31  1  0
 31 32  2  0
 26 33  1  0
 33 34  1  0
 21 35  2  0
 35 36  1  0
 36 37  2  0
 36 11  1  0
 34 23  1  0
 32 27  1  0
  1 38  1  0
  1 39  1  0
  1 40  1  0
  2 41  1  0
  2 42  1  0
  3 43  1  0
  3 44  1  0
  4 45  1  0
  4 46  1  0
  6 47  1  0
  6 48  1  0
  6 49  1  0
  9 50  1  0
  9 51  1  0
 12 52  1  0
 14 53  1  0
 14 54  1  0
 15 55  1  0
 15 56  1  0
 16 57  1  0
 16 58  1  0
 17 59  1  0
 17 60  1  0
 18 61  1  0
 18 62  1  0
 19 63  1  0
 19 64  1  0
 20 65  1  0
 22 66  1  0
 22 67  1  0
 24 68  1  0
 24 69  1  0
 25 70  1  0
 25 71  1  0
 28 72  1  0
 29 73  1  0
 30 74  1  0
 31 75  1  0
 33 76  1  0
 33 77  1  0
 34 78  1  0
 34 79  1  0
 35 80  1  0
M  END
>  <Binding energies>  (1) 
[-8.15]

>  <Ligand effiencies>  (1) 
[-0.21447368421052632]

>  <Interactions>  (1) 
["V-A:ILE:369:CG2:3237, V-B:PRO:540:CA:9855, V-A:GLY:454:CA:4049, V-B:GLU:543:C:9874, V-B:HIS:456:CD2:9039, V-B:GLU:543:CB:9878, V-B:ALA:541:CB:9864, H-A:ARG:545:NH1:4927, V-B:TYR:539:CE2:9848, V-A:LEU:475:CG:4257, H-B:ALA:541:O:9861, V-B:GLU:543:CG:9879, H-B:GLU:543:OE1:9881, H-B:ALA:541:N:9863, V-A:LEU:475:CD1:4258, V-A:GLU:543:CD:4908, V-B:PRO:540:CB:9857, V-B:HIS:456:CE1:9041, H-A:GLY:454:N:4050, V-A:ILE:369:CD1:3239, V-A:HIS:456:CE1:4070, V-B:GLY:544:C:9884, V-A:PRO:482:CB:4326, V-B:TYR:539:CD2:9846, V-A:GLU:543:CG:4907, V-A:SER:385:CB:3409, H-A:SER:385:OG:3410, V-B:GLU:543:CD:9880, V-B:HIS:456:CG:9037, V-A:LEU:475:CD2:4259, H-A:ARG:545:NH2:4928, V-A:ARG:545:CZ:4926, V-A:PRO:482:CG:4327, V-A:HIS:383:NE2:3394, H-A:TYR:484:OH:4348"]

$$$$
ZINC1870515081-again1
     RDKit          3D

 81 83  0  0  0  0  0  0  0  0999 V2000
  130.1920  117.1110   60.8570 C   0  0  0  0  0  0  0  0  0  0  0  0
  130.2480  118.5460   61.4020 C   0  0  0  0  0  0  0  0  0  0  0  0
  131.1740  119.4900   60.6110 C   0  0  0  0  0  0  0  0  0  0  0  0
  130.9210  120.9860   60.8950 C   0  0  0  0  0  0  0  0  0  0  0  0
  132.1360  121.8130   60.8380 N   0  0  0  0  0  0  0  0  0  0  0  0
  131.9290  123.1340   60.2370 C   0  0  0  0  0  0  0  0  0  0  0  0
  133.3720  121.3730   61.2010 C   0  0  0  0  0  0  0  0  0  0  0  0
  133.9430  120.4450   60.6230 O   0  0  0  0  0  0  0  0  0  0  0  0
  134.0800  122.0640   62.3810 C   0  0  0  0  0  0  0  0  0  0  0  0
  133.2280  122.1040   63.5300 O   0  0  0  0  0  0  0  0  0  0  0  0
  132.2780  123.0830   63.6000 C   0  0  0  0  0  0  0  0  0  0  0  0
  130.9330  122.8810   63.5880 C   0  0  0  0  0  0  0  0  0  0  0  0
  130.0020  123.9060   63.6630 N   0  0  0  0  0  0  0  0  0  0  0  0
  128.7260  123.6670   62.9720 C   0  0  0  0  0  0  0  0  0  0  0  0
  128.8000  123.7840   61.4300 C   0  0  0  0  0  0  0  0  0  0  0  0
  127.8460  122.8260   60.6900 C   0  0  0  0  0  0  0  0  0  0  0  0
  128.3240  122.4810   59.2680 C   0  0  0  0  0  0  0  0  0  0  0  0
  127.7040  123.3920   58.1890 C   0  0  0  0  0  0  0  0  0  0  0  0
  126.4700  122.7950   57.4860 C   0  0  0  0  0  0  0  0  0  0  0  0
  126.8500  121.9510   56.4190 O   0  0  0  0  0  0  0  0  0  0  0  0
  130.4690  125.1950   63.9630 C   0  0  0  0  0  0  0  0  0  0  0  0
  129.4370  126.2630   64.3380 C   0  0  0  0  0  0  0  0  0  0  0  0
  129.0600  126.3050   65.7550 N   0  0  0  0  0  0  0  0  0  0  0  0
  128.7370  127.6700   66.1690 C   0  0  0  0  0  0  0  0  0  0  0  0
  128.2390  127.7090   67.6350 C   0  0  0  0  0  0  0  0  0  0  0  0
  129.1620  127.0500   68.6010 N   0  0  0  0  0  0  0  0  0  0  0  0
  129.0520  127.3140   70.0130 C   0  0  0  0  0  0  0  0  0  0  0  0
  129.8150  128.2960   70.6720 C   0  0  0  0  0  0  0  0  0  0  0  0
  129.6560  128.5050   72.0470 C   0  0  0  0  0  0  0  0  0  0  0  0
  128.7360  127.7330   72.7590 C   0  0  0  0  0  0  0  0  0  0  0  0
  127.9930  126.7660   72.0840 C   0  0  0  0  0  0  0  0  0  0  0  0
  128.1780  126.5970   70.7590 N   0  0  0  0  0  0  0  0  0  0  0  0
  129.7030  125.7590   68.0980 C   0  0  0  0  0  0  0  0  0  0  0  0
  130.1370  125.8010   66.6130 C   0  0  0  0  0  0  0  0  0  0  0  0
  131.8020  125.4640   63.9780 C   0  0  0  0  0  0  0  0  0  0  0  0
  132.8440  124.4450   63.7260 C   0  0  0  0  0  0  0  0  0  0  0  0
  134.0420  124.7160   63.6630 O   0  0  0  0  0  0  0  0  0  0  0  0
  130.1643  116.4008   61.6965 H   0  0  0  0  0  0  0  0  0  0  0  0
  129.2883  116.9873   60.2421 H   0  0  0  0  0  0  0  0  0  0  0  0
  131.0833  116.9173   60.2421 H   0  0  0  0  0  0  0  0  0  0  0  0
  129.2304  118.9630   61.3791 H   0  0  0  0  0  0  0  0  0  0  0  0
  130.6608  118.4802   62.4195 H   0  0  0  0  0  0  0  0  0  0  0  0
  132.2160  119.2573   60.8759 H   0  0  0  0  0  0  0  0  0  0  0  0
  130.9665  119.3251   59.5434 H   0  0  0  0  0  0  0  0  0  0  0  0
  130.2076  121.3653   60.1485 H   0  0  0  0  0  0  0  0  0  0  0  0
  130.5322  121.0568   61.9216 H   0  0  0  0  0  0  0  0  0  0  0  0
  131.8114  123.8844   61.0326 H   0  0  0  0  0  0  0  0  0  0  0  0
  132.7975  123.3934   59.6137 H   0  0  0  0  0  0  0  0  0  0  0  0
  131.0228  123.1153   59.6137 H   0  0  0  0  0  0  0  0  0  0  0  0
  134.9951  121.5064   62.6295 H   0  0  0  0  0  0  0  0  0  0  0  0
  134.3282  123.0951   62.0892 H   0  0  0  0  0  0  0  0  0  0  0  0
  130.5634  121.8476   63.5148 H   0  0  0  0  0  0  0  0  0  0  0  0
  128.3836  122.6524   63.2237 H   0  0  0  0  0  0  0  0  0  0  0  0
  128.0337  124.4510   63.3127 H   0  0  0  0  0  0  0  0  0  0  0  0
  128.5444  124.8158   61.1473 H   0  0  0  0  0  0  0  0  0  0  0  0
  129.8237  123.5097   61.1353 H   0  0  0  0  0  0  0  0  0  0  0  0
  127.7665  121.8940   61.2689 H   0  0  0  0  0  0  0  0  0  0  0  0
  126.8755  123.3353   60.5965 H   0  0  0  0  0  0  0  0  0  0  0  0
  129.4183  122.5867   59.2302 H   0  0  0  0  0  0  0  0  0  0  0  0
  128.0047  121.4505   59.0533 H   0  0  0  0  0  0  0  0  0  0  0  0
  127.4047  124.3367   58.6665 H   0  0  0  0  0  0  0  0  0  0  0  0
  128.4722  123.5287   57.4136 H   0  0  0  0  0  0  0  0  0  0  0  0
  125.8883  122.2121   58.2153 H   0  0  0  0  0  0  0  0  0  0  0  0
  125.8664  123.6202   57.0802 H   0  0  0  0  0  0  0  0  0  0  0  0
  127.7780  121.7240   56.5250 H   0  0  0  0  0  0  0  0  0  0  0  0
  129.8521  127.2453   64.0682 H   0  0  0  0  0  0  0  0  0  0  0  0
  128.5200  126.0039   63.7884 H   0  0  0  0  0  0  0  0  0  0  0  0
  129.6381  128.2945   66.0797 H   0  0  0  0  0  0  0  0  0  0  0  0
  127.9350  128.0500   65.5191 H   0  0  0  0  0  0  0  0  0  0  0  0
  128.1188  128.7611   67.9326 H   0  0  0  0  0  0  0  0  0  0  0  0
  127.2911  127.1518   67.6664 H   0  0  0  0  0  0  0  0  0  0  0  0
  130.5381  128.9008   70.1052 H   0  0  0  0  0  0  0  0  0  0  0  0
  130.2519  129.2723   72.5630 H   0  0  0  0  0  0  0  0  0  0  0  0
  128.5992  127.8861   73.8397 H   0  0  0  0  0  0  0  0  0  0  0  0
  127.2632  126.1471   72.6266 H   0  0  0  0  0  0  0  0  0  0  0  0
  127.6280  125.8910   70.2910 H   0  0  0  0  0  0  0  0  0  0  0  0
  130.5777  125.4882   68.7076 H   0  0  0  0  0  0  0  0  0  0  0  0
  128.8921  125.0197   68.1745 H   0  0  0  0  0  0  0  0  0  0  0  0
  131.0117  126.4607   66.5143 H   0  0  0  0  0  0  0  0  0  0  0  0
  130.3826  124.7770   66.2950 H   0  0  0  0  0  0  0  0  0  0  0  0
  132.1225  126.4949   64.1889 H   0  0  0  0  0  0  0  0  0  0  0  0
  1  2  1  0
  2  3  1  0
  3  4  1  0
  4  5  1  0
  5  6  1  0
  5  7  1  0
  7  8  2  0
  7  9  1  0
  9 10  1  0
 10 11  1  0
 11 12  2  0
 12 13  1  0
 13 14  1  0
 14 15  1  0
 15 16  1  0
 16 17  1  0
 17 18  1  0
 18 19  1  0
 19 20  1  0
 13 21  1  0
 21 22  1  0
 22 23  1  0
 23 24  1  0
 24 25  1  0
 25 26  1  0
 26 27  1  0
 27 28  2  0
 28 29  1  0
 29 30  2  0
 30 31  1  0
 31 32  2  0
 26 33  1  0
 33 34  1  0
 21 35  2  0
 35 36  1  0
 36 37  2  0
 36 11  1  0
 34 23  1  0
 32 27  1  0
  1 38  1  0
  1 39  1  0
  1 40  1  0
  2 41  1  0
  2 42  1  0
  3 43  1  0
  3 44  1  0
  4 45  1  0
  4 46  1  0
  6 47  1  0
  6 48  1  0
  6 49  1  0
  9 50  1  0
  9 51  1  0
 12 52  1  0
 14 53  1  0
 14 54  1  0
 15 55  1  0
 15 56  1  0
 16 57  1  0
 16 58  1  0
 17 59  1  0
 17 60  1  0
 18 61  1  0
 18 62  1  0
 19 63  1  0
 19 64  1  0
 20 65  1  0
 22 66  1  0
 22 67  1  0
 24 68  1  0
 24 69  1  0
 25 70  1  0
 25 71  1  0
 28 72  1  0
 29 73  1  0
 30 74  1  0
 31 75  1  0
 32 76  1  0
 33 77  1  0
 33 78  1  0
 34 79  1  0
 34 80  1  0
 35 81  1  0
M  CHG  1  32   1
M  END
>  <Binding energies>  (1) 
[-8.43]

>  <Ligand effiencies>  (1) 
[-0.21615384615384614]

>  <Interactions>  (1) 
["V-A:ILE:369:CG2:3237, V-B:PRO:540:CA:9855, V-A:GLY:454:CA:4049, V-B:GLU:543:C:9874, V-B:HIS:456:CD2:9039, H-B:GLU:543:O:9875, V-A:GLU:543:C:4902, V-B:GLU:543:CB:9878, V-B:ALA:541:CB:9864, H-A:ARG:545:NH1:4927, V-B:TYR:539:CE2:9848, V-A:LEU:475:CG:4257, H-B:TYR:539:N:9842, V-B:GLU:543:CG:9879, V-B:TYR:539:C:9839, V-A:HIS:383:CE1:3393, V-A:GLU:543:CD:4908, V-B:PRO:540:CB:9857, V-B:HIS:456:CE1:9041, H-A:GLY:454:N:4050, V-B:GLU:543:CA:9876, V-B:PRO:540:N:9856, V-A:ILE:369:CD1:3239, V-A:HIS:456:CE1:4070, V-B:GLY:544:C:9884, V-A:PRO:482:CB:4326, V-B:TYR:539:CD2:9846, V-B:PRO:540:CD:9859, V-A:GLU:543:CG:4907, H-A:SER:385:OG:3410, V-B:GLU:543:CD:9880, V-A:LEU:475:CD2:4259, H-A:ARG:545:NH2:4928, V-A:ARG:545:CZ:4926, H-B:GLY:544:O:9885, V-A:PRO:482:CG:4327, V-B:PRO:540:C:9853, V-A:HIS:383:NE2:3394, H-A:TYR:484:OH:4348"]

$$$$
ZINC1870558561
     RDKit          3D

 65 68  0  0  0  0  0  0  0  0999 V2000
  126.9870  127.3950   72.0130 C   0  0  0  0  0  0  0  0  0  0  0  0
  127.7440  126.2960   72.4980 O   0  0  0  0  0  0  0  0  0  0  0  0
  129.0940  126.3020   72.4160 C   0  0  0  0  0  0  0  0  0  0  0  0
  129.8680  125.8680   73.2720 O   0  0  0  0  0  0  0  0  0  0  0  0
  129.5330  126.8980   71.1600 C   0  0  0  0  0  0  0  0  0  0  0  0
  130.3510  127.9810   70.8630 C   0  0  0  0  0  0  0  0  0  0  0  0
  130.4030  128.0730   69.4720 C   0  0  0  0  0  0  0  0  0  0  0  0
  129.6120  127.0490   68.9710 C   0  0  0  0  0  0  0  0  0  0  0  0
  129.2490  126.5880   67.5800 C   0  0  0  0  0  0  0  0  0  0  0  0
  129.6530  125.2280   67.4240 O   0  0  0  0  0  0  0  0  0  0  0  0
  130.5170  124.9030   66.4180 C   0  0  0  0  0  0  0  0  0  0  0  0
  130.2380  124.1010   65.3550 C   0  0  0  0  0  0  0  0  0  0  0  0
  131.1690  123.7960   64.3720 N   0  0  0  0  0  0  0  0  0  0  0  0
  131.0020  122.5100   63.6860 C   0  0  0  0  0  0  0  0  0  0  0  0
  129.5180  122.1420   63.4710 C   0  0  0  0  0  0  0  0  0  0  0  0
  129.0320  122.4700   62.1190 N   0  0  0  0  0  0  0  0  0  0  0  0
  129.8710  122.4140   61.0610 C   0  0  0  0  0  0  0  0  0  0  0  0
  131.0600  122.0910   61.0820 O   0  0  0  0  0  0  0  0  0  0  0  0
  129.1520  122.8090   59.7820 C   0  0  0  0  0  0  0  0  0  0  0  0
  127.4500  123.1920   60.1970 S   0  0  0  0  0  0  0  0  0  0  0  0
  127.7450  122.8380   61.9390 C   0  0  0  0  0  0  0  0  0  0  0  0
  126.8620  122.9310   62.7940 O   0  0  0  0  0  0  0  0  0  0  0  0
  132.3960  124.4740   64.3720 C   0  0  0  0  0  0  0  0  0  0  0  0
  133.3030  124.2390   63.1520 C   0  0  0  0  0  0  0  0  0  0  0  0
  132.7000  124.3400   61.8180 N   0  0  0  0  0  0  0  0  0  0  0  0
  131.9410  125.5900   61.6660 C   0  0  0  0  0  0  0  0  0  0  0  0
  131.2970  125.6650   60.2600 C   0  0  1  0  0  0  0  0  0  0  0  0
  130.5680  126.9970   60.0380 C   0  0  0  0  0  0  0  0  0  0  0  0
  132.3170  125.5120   59.2730 O   0  0  0  0  0  0  0  0  0  0  0  0
  132.9900  124.2580   59.3740 C   0  0  1  0  0  0  0  0  0  0  0  0
  133.9900  124.1370   58.2170 C   0  0  0  0  0  0  0  0  0  0  0  0
  133.7000  124.2090   60.7460 C   0  0  0  0  0  0  0  0  0  0  0  0
  132.7330  125.2790   65.4190 C   0  0  0  0  0  0  0  0  0  0  0  0
  131.8470  125.5360   66.5720 C   0  0  0  0  0  0  0  0  0  0  0  0
  132.1890  126.2230   67.5360 O   0  0  0  0  0  0  0  0  0  0  0  0
  129.0900  126.3360   70.0030 O   0  0  0  0  0  0  0  0  0  0  0  0
  126.5906  127.9705   72.8625 H   0  0  0  0  0  0  0  0  0  0  0  0
  127.6316  128.0424   71.4004 H   0  0  0  0  0  0  0  0  0  0  0  0
  126.1523  127.0235   71.4004 H   0  0  0  0  0  0  0  0  0  0  0  0
  130.8588  128.6381   71.5843 H   0  0  0  0  0  0  0  0  0  0  0  0
  130.9637  128.8152   68.8848 H   0  0  0  0  0  0  0  0  0  0  0  0
  128.1615  126.6691   67.4361 H   0  0  0  0  0  0  0  0  0  0  0  0
  129.7582  127.2161   66.8342 H   0  0  0  0  0  0  0  0  0  0  0  0
  129.2276  123.6745   65.2708 H   0  0  0  0  0  0  0  0  0  0  0  0
  131.4969  122.5666   62.7053 H   0  0  0  0  0  0  0  0  0  0  0  0
  131.4503  121.7320   64.3214 H   0  0  0  0  0  0  0  0  0  0  0  0
  129.3982  121.0607   63.6335 H   0  0  0  0  0  0  0  0  0  0  0  0
  128.9262  122.7334   64.1852 H   0  0  0  0  0  0  0  0  0  0  0  0
  129.6359  123.6922   59.3395 H   0  0  0  0  0  0  0  0  0  0  0  0
  129.1911  121.9865   59.0526 H   0  0  0  0  0  0  0  0  0  0  0  0
  134.1158  124.9786   63.2009 H   0  0  0  0  0  0  0  0  0  0  0  0
  133.6111  123.1864   63.2363 H   0  0  0  0  0  0  0  0  0  0  0  0
  131.1498  125.6283   62.4292 H   0  0  0  0  0  0  0  0  0  0  0  0
  132.6275  126.4406   61.7890 H   0  0  0  0  0  0  0  0  0  0  0  0
  130.5543  124.8577   60.1783 H   0  0  0  0  0  0  0  0  0  0  0  0
  130.3218  127.4469   61.0111 H   0  0  0  0  0  0  0  0  0  0  0  0
  131.2177  127.6807   59.4719 H   0  0  0  0  0  0  0  0  0  0  0  0
  129.6420  126.8183   59.4719 H   0  0  0  0  0  0  0  0  0  0  0  0
  132.2877  123.4142   59.3052 H   0  0  0  0  0  0  0  0  0  0  0  0
  135.0055  124.0141   58.6214 H   0  0  0  0  0  0  0  0  0  0  0  0
  133.7329  123.2634   57.6000 H   0  0  0  0  0  0  0  0  0  0  0  0
  133.9486  125.0467   57.6000 H   0  0  0  0  0  0  0  0  0  0  0  0
  134.2283  123.2500   60.8519 H   0  0  0  0  0  0  0  0  0  0  0  0
  134.4237  125.0345   60.8153 H   0  0  0  0  0  0  0  0  0  0  0  0
  133.7201  125.7643   65.4042 H   0  0  0  0  0  0  0  0  0  0  0  0
  1  2  1  0
  2  3  1  0
  3  4  2  0
  3  5  1  0
  5  6  2  0
  6  7  1  0
  7  8  2  0
  8  9  1  0
  9 10  1  0
 10 11  1  0
 11 12  2  0
 12 13  1  0
 13 14  1  0
 14 15  1  0
 15 16  1  0
 16 17  1  0
 17 18  2  0
 17 19  1  0
 19 20  1  0
 20 21  1  0
 21 22  2  0
 13 23  1  0
 23 24  1  0
 24 25  1  0
 25 26  1  0
 26 27  1  0
 27 28  1  0
 27 29  1  0
 29 30  1  0
 30 31  1  0
 30 32  1  0
 23 33  2  0
 33 34  1  0
 34 35  2  0
  8 36  1  0
 36  5  1  0
 34 11  1  0
 21 16  1  0
 32 25  1  0
  1 37  1  0
  1 38  1  0
  1 39  1  0
  6 40  1  0
  7 41  1  0
  9 42  1  0
  9 43  1  0
 12 44  1  0
 14 45  1  0
 14 46  1  0
 15 47  1  0
 15 48  1  0
 19 49  1  0
 19 50  1  0
 24 51  1  0
 24 52  1  0
 26 53  1  0
 26 54  1  0
 27 55  1  1
 28 56  1  0
 28 57  1  0
 28 58  1  0
 30 59  1  1
 31 60  1  0
 31 61  1  0
 31 62  1  0
 32 63  1  0
 32 64  1  0
 33 65  1  0
M  END
>  <Binding energies>  (1) 
[-7.66]

>  <Ligand effiencies>  (1) 
[-0.2127777777777778]

>  <Interactions>  (1) 
["V-A:ILE:369:CG2:3237, V-A:ASP:366:CA:3210, V-B:PRO:540:CA:9855, V-A:GLU:543:CA:4904, V-B:HIS:456:CD2:9039, V-A:ILE:369:CB:3236, V-A:GLU:543:C:4902, V-B:GLU:543:CB:9878, H-B:LYS:547:NZ:9923, V-B:ALA:541:CB:9864, V-B:TYR:539:CE2:9848, V-A:TYR:484:CE2:4346, V-B:GLU:543:CG:9879, V-A:GLY:544:C:4912, V-A:HIS:456:CD2:4068, V-A:ASP:366:CG:3213, V-B:TYR:539:CZ:9849, H-B:ALA:541:N:9863, V-A:TYR:484:CZ:4347, V-B:HIS:456:CE1:9041, V-A:HIS:456:CE1:4070, V-A:ILE:369:CD1:3239, V-B:GLY:544:C:9884, V-A:ASP:366:C:3208, V-B:TYR:539:CD2:9846, V-B:HIS:456:CG:9037, V-A:ASP:366:CB:3212, V-A:ARG:545:CD:4923, V-A:LEU:475:CD2:4259, V-A:ARG:545:CZ:4926, V-A:GLU:543:CB:4906, H-A:ARG:545:NE:4924, V-B:PRO:540:C:9853, H-A:HIS:456:ND1:4067, H-A:TYR:484:OH:4348"]

$$$$
ZINC1870576593
     RDKit          3D

 65 67  0  0  0  0  0  0  0  0999 V2000
  129.1400  132.2300   64.4450 C   0  0  0  0  0  0  0  0  0  0  0  0
  127.9610  131.4400   64.4220 O   0  0  0  0  0  0  0  0  0  0  0  0
  127.2330  131.5460   63.2060 C   0  0  0  0  0  0  0  0  0  0  0  0
  127.3570  130.2480   62.3860 C   0  0  0  0  0  0  0  0  0  0  0  0
  128.3980  129.2480   62.9620 N   0  0  0  0  0  0  0  0  0  0  0  0
  129.2740  128.6020   61.8540 C   0  0  0  0  0  0  0  0  0  0  0  0
  130.3250  129.5740   61.2780 C   0  0  0  0  0  0  0  0  0  0  0  0
  130.3260  130.7940   62.0110 O   0  0  0  0  0  0  0  0  0  0  0  0
  131.5740  131.4680   61.9830 C   0  0  0  0  0  0  0  0  0  0  0  0
  127.7810  128.1490   63.8700 C   0  0  0  0  0  0  0  0  0  0  0  0
  128.3240  128.1150   65.3000 C   0  0  0  0  0  0  0  0  0  0  0  0
  128.1960  129.1830   66.1320 C   0  0  0  0  0  0  0  0  0  0  0  0
  128.6430  129.1780   67.5410 C   0  0  0  0  0  0  0  0  0  0  0  0
  128.5990  130.1750   68.2600 O   0  0  0  0  0  0  0  0  0  0  0  0
  129.1060  127.8390   67.9780 C   0  0  0  0  0  0  0  0  0  0  0  0
  129.4130  127.7880   69.3060 O   0  0  0  0  0  0  0  0  0  0  0  0
  128.5300  127.1030   70.1940 C   0  0  0  0  0  0  0  0  0  0  0  0
  129.2050  126.9360   71.5360 C   0  0  0  0  0  0  0  0  0  0  0  0
  128.7150  126.1890   72.4970 N   0  0  0  0  0  0  0  0  0  0  0  0
  129.4990  126.1840   73.6450 N   0  0  0  0  0  0  0  0  0  0  0  0
  130.5670  126.9310   73.5290 C   0  0  0  0  0  0  0  0  0  0  0  0
  131.5170  127.1430   74.4420 N   0  0  0  0  0  0  0  0  0  0  0  0
  130.7010  127.7100   71.9830 S   0  0  0  0  0  0  0  0  0  0  0  0
  129.2040  126.8080   67.0980 C   0  0  0  0  0  0  0  0  0  0  0  0
  128.9610  126.9470   65.7370 N   0  0  0  0  0  0  0  0  0  0  0  0
  129.8280  126.1440   64.8550 C   0  0  0  0  0  0  0  0  0  0  0  0
  130.9100  125.2850   65.5670 C   0  0  1  0  0  0  0  0  0  0  0  0
  130.3100  124.4850   66.5710 O   0  0  0  0  0  0  0  0  0  0  0  0
  131.7830  124.4980   64.5820 C   0  0  0  0  0  0  0  0  0  0  0  0
  131.3710  123.2600   64.0670 C   0  0  0  0  0  0  0  0  0  0  0  0
  132.1460  122.6060   63.1140 C   0  0  0  0  0  0  0  0  0  0  0  0
  133.3380  123.1810   62.6770 C   0  0  0  0  0  0  0  0  0  0  0  0
  134.2880  122.3800   61.4800 Cl  0  0  0  0  0  0  0  0  0  0  0  0
  133.7620  124.4050   63.1920 C   0  0  0  0  0  0  0  0  0  0  0  0
  132.9850  125.0620   64.1420 C   0  0  0  0  0  0  0  0  0  0  0  0
  129.4306  132.4247   65.4879 H   0  0  0  0  0  0  0  0  0  0  0  0
  129.9515  131.6926   63.9325 H   0  0  0  0  0  0  0  0  0  0  0  0
  128.9516  133.1849   63.9325 H   0  0  0  0  0  0  0  0  0  0  0  0
  126.1727  131.7298   63.4341 H   0  0  0  0  0  0  0  0  0  0  0  0
  127.6450  132.3787   62.6170 H   0  0  0  0  0  0  0  0  0  0  0  0
  126.3743  129.7541   62.3651 H   0  0  0  0  0  0  0  0  0  0  0  0
  127.7027  130.5319   61.3810 H   0  0  0  0  0  0  0  0  0  0  0  0
  129.0380  129.7770   63.5370 H   0  0  0  0  0  0  0  0  0  0  0  0
  129.7961  127.7331   62.2811 H   0  0  0  0  0  0  0  0  0  0  0  0
  128.6048  128.3126   61.0303 H   0  0  0  0  0  0  0  0  0  0  0  0
  131.3208  129.1113   61.3428 H   0  0  0  0  0  0  0  0  0  0  0  0
  130.0758  129.7883   60.2283 H   0  0  0  0  0  0  0  0  0  0  0  0
  131.9146  131.6519   63.0127 H   0  0  0  0  0  0  0  0  0  0  0  0
  132.3143  130.8471   61.4573 H   0  0  0  0  0  0  0  0  0  0  0  0
  131.4608  132.4276   61.4573 H   0  0  0  0  0  0  0  0  0  0  0  0
  126.6952  128.3176   63.9207 H   0  0  0  0  0  0  0  0  0  0  0  0
  128.0512  127.1849   63.4144 H   0  0  0  0  0  0  0  0  0  0  0  0
  127.7352  130.0997   65.7353 H   0  0  0  0  0  0  0  0  0  0  0  0
  127.6061  127.6871   70.3171 H   0  0  0  0  0  0  0  0  0  0  0  0
  128.2827  126.1146   69.7794 H   0  0  0  0  0  0  0  0  0  0  0  0
  132.2380  127.7330   74.0010 H   0  0  0  0  0  0  0  0  0  0  0  0
  129.4890  125.8171   67.4811 H   0  0  0  0  0  0  0  0  0  0  0  0
  129.1843  125.4644   64.2773 H   0  0  0  0  0  0  0  0  0  0  0  0
  130.3806  126.8693   64.2397 H   0  0  0  0  0  0  0  0  0  0  0  0
  131.6175  125.9600   66.0708 H   0  0  0  0  0  0  0  0  0  0  0  0
  130.9960  123.9600   66.9890 H   0  0  0  0  0  0  0  0  0  0  0  0
  130.4328  122.8049   64.4174 H   0  0  0  0  0  0  0  0  0  0  0  0
  131.8187  121.6380   62.7068 H   0  0  0  0  0  0  0  0  0  0  0  0
  134.7075  124.8503   62.8488 H   0  0  0  0  0  0  0  0  0  0  0  0
  133.3176  126.0286   64.5483 H   0  0  0  0  0  0  0  0  0  0  0  0
  1  2  1  0
  2  3  1  0
  3  4  1  0
  4  5  1  0
  5  6  1  0
  6  7  1  0
  7  8  1  0
  8  9  1  0
  5 10  1  0
 10 11  1  0
 11 12  2  0
 12 13  1  0
 13 14  2  0
 13 15  1  0
 15 16  1  0
 16 17  1  0
 17 18  1  0
 18 19  2  0
 19 20  1  0
 20 21  2  0
 21 22  1  0
 21 23  1  0
 15 24  2  0
 24 25  1  0
 25 26  1  0
 26 27  1  0
 27 28  1  0
 27 29  1  0
 29 30  2  0
 30 31  1  0
 31 32  2  0
 32 33  1  0
 32 34  1  0
 34 35  2  0
 25 11  1  0
 35 29  1  0
 23 18  1  0
  1 36  1  0
  1 37  1  0
  1 38  1  0
  3 39  1  0
  3 40  1  0
  4 41  1  0
  4 42  1  0
  5 43  1  0
  6 44  1  0
  6 45  1  0
  7 46  1  0
  7 47  1  0
  9 48  1  0
  9 49  1  0
  9 50  1  0
 10 51  1  0
 10 52  1  0
 12 53  1  0
 17 54  1  0
 17 55  1  0
 22 56  1  0
 24 57  1  0
 26 58  1  0
 26 59  1  0
 27 60  1  1
 28 61  1  0
 30 62  1  0
 31 63  1  0
 34 64  1  0
 35 65  1  0
M  CHG  2   5   1  22  -1
M  END
>  <Binding energies>  (1) 
[-8.12]

>  <Ligand effiencies>  (1) 
[-0.21368421052631578]

>  <Interactions>  (1) 
["V-A:ILE:369:CG2:3237, V-A:GLU:543:CA:4904, V-A:GLY:454:CA:4049, V-B:GLU:543:CB:9878, H-B:LYS:547:NZ:9923, V-B:GLU:543:CG:9879, V-A:GLY:544:C:4912, V-A:HIS:456:CD2:4068, V-B:TYR:484:CE2:9317, V-A:ALA:541:CB:4892, V-A:GLU:543:CD:4908, H-B:TYR:484:OH:9319, V-B:HIS:456:CE1:9041, V-A:ILE:369:CD1:3239, V-A:HIS:456:CE1:4070, V-A:GLU:543:CG:4907, V-B:GLU:543:CD:9880, H-A:LYS:547:NZ:4951, V-A:LEU:475:CD2:4259, V-A:ARG:545:CZ:4926, H-A:GLU:543:OE1:4909, V-A:GLU:543:CB:4906, V-A:PRO:540:CA:4883, H-A:GLY:544:O:4913, H-A:TYR:484:OH:4348"]

$$$$
ZINC1870576593-again1
     RDKit          3D

 65 67  0  0  0  0  0  0  0  0999 V2000
  128.9530  132.8870   57.0960 C   0  0  0  0  0  0  0  0  0  0  0  0
  130.2670  133.3380   56.7960 O   0  0  0  0  0  0  0  0  0  0  0  0
  131.3160  132.4910   57.2560 C   0  0  0  0  0  0  0  0  0  0  0  0
  130.7800  131.2570   58.0150 C   0  0  0  0  0  0  0  0  0  0  0  0
  131.7790  130.5450   58.8290 N   0  0  0  0  0  0  0  0  0  0  0  0
  131.3860  130.4080   60.2450 C   0  0  0  0  0  0  0  0  0  0  0  0
  130.7600  131.6850   60.8440 C   0  0  0  0  0  0  0  0  0  0  0  0
  131.5930  132.1930   61.8780 O   0  0  0  0  0  0  0  0  0  0  0  0
  132.8340  131.5180   61.9960 C   0  0  0  0  0  0  0  0  0  0  0  0
  131.9990  129.2150   58.2350 C   0  0  0  0  0  0  0  0  0  0  0  0
  130.8490  128.2010   58.3340 C   0  0  0  0  0  0  0  0  0  0  0  0
  129.6070  128.5350   58.7780 C   0  0  0  0  0  0  0  0  0  0  0  0
  128.4730  127.5930   58.8350 C   0  0  0  0  0  0  0  0  0  0  0  0
  127.3710  127.8980   59.2900 O   0  0  0  0  0  0  0  0  0  0  0  0
  128.8100  126.2700   58.2610 C   0  0  0  0  0  0  0  0  0  0  0  0
  127.7310  125.4350   58.1980 O   0  0  0  0  0  0  0  0  0  0  0  0
  126.9550  125.1780   59.3700 C   0  0  0  0  0  0  0  0  0  0  0  0
  127.4770  123.9770   60.1410 C   0  0  0  0  0  0  0  0  0  0  0  0
  126.9740  123.6200   61.3010 N   0  0  0  0  0  0  0  0  0  0  0  0
  127.5600  122.4780   61.8310 N   0  0  0  0  0  0  0  0  0  0  0  0
  128.5100  122.0070   61.0680 C   0  0  0  0  0  0  0  0  0  0  0  0
  129.2700  120.9100   61.3450 N   0  0  0  0  0  0  0  0  0  0  0  0
  128.7560  122.9110   59.6100 S   0  0  0  0  0  0  0  0  0  0  0  0
  130.0690  125.9880   57.8300 C   0  0  0  0  0  0  0  0  0  0  0  0
  131.1230  126.8860   57.9290 N   0  0  0  0  0  0  0  0  0  0  0  0
  132.4770  126.3150   57.9750 C   0  0  0  0  0  0  0  0  0  0  0  0
  132.5600  124.8920   58.5780 C   0  0  1  0  0  0  0  0  0  0  0  0
  133.5850  124.1920   57.8970 O   0  0  0  0  0  0  0  0  0  0  0  0
  132.7510  124.8780   60.0950 C   0  0  0  0  0  0  0  0  0  0  0  0
  133.8680  124.2630   60.6700 C   0  0  0  0  0  0  0  0  0  0  0  0
  134.0080  124.2210   62.0550 C   0  0  0  0  0  0  0  0  0  0  0  0
  133.0340  124.7990   62.8660 C   0  0  0  0  0  0  0  0  0  0  0  0
  133.1830  124.7010   64.5820 Cl  0  0  0  0  0  0  0  0  0  0  0  0
  131.9350  125.4440   62.3020 C   0  0  0  0  0  0  0  0  0  0  0  0
  131.7950  125.4860   60.9170 C   0  0  0  0  0  0  0  0  0  0  0  0
  128.8211  132.8417   58.1871 H   0  0  0  0  0  0  0  0  0  0  0  0
  128.2189  133.5846   56.6665 H   0  0  0  0  0  0  0  0  0  0  0  0
  128.8020  131.8856   56.6665 H   0  0  0  0  0  0  0  0  0  0  0  0
  131.8998  132.1476   56.3892 H   0  0  0  0  0  0  0  0  0  0  0  0
  131.9378  133.0720   57.9530 H   0  0  0  0  0  0  0  0  0  0  0  0
  129.9717  131.5912   58.6821 H   0  0  0  0  0  0  0  0  0  0  0  0
  130.4455  130.5447   57.2464 H   0  0  0  0  0  0  0  0  0  0  0  0
  130.6523  129.5922   60.3239 H   0  0  0  0  0  0  0  0  0  0  0  0
  132.3049  130.2043   60.8143 H   0  0  0  0  0  0  0  0  0  0  0  0
  130.6541  132.4440   60.0549 H   0  0  0  0  0  0  0  0  0  0  0  0
  129.7717  131.4423   61.2615 H   0  0  0  0  0  0  0  0  0  0  0  0
  133.0791  131.3847   63.0600 H   0  0  0  0  0  0  0  0  0  0  0  0
  132.7638  130.5338   61.5098 H   0  0  0  0  0  0  0  0  0  0  0  0
  133.6220  132.1118   61.5098 H   0  0  0  0  0  0  0  0  0  0  0  0
  132.2191  129.3621   57.1673 H   0  0  0  0  0  0  0  0  0  0  0  0
  132.8165  128.7739   58.8242 H   0  0  0  0  0  0  0  0  0  0  0  0
  129.4384  129.5686   59.1144 H   0  0  0  0  0  0  0  0  0  0  0  0
  126.9916  126.0630   60.0223 H   0  0  0  0  0  0  0  0  0  0  0  0
  125.9235  124.9603   59.0559 H   0  0  0  0  0  0  0  0  0  0  0  0
  129.0810  120.0170   60.9130 H   0  0  0  0  0  0  0  0  0  0  0  0
  130.0450  120.9480   61.9920 H   0  0  0  0  0  0  0  0  0  0  0  0
  130.2610  125.0019   57.3819 H   0  0  0  0  0  0  0  0  0  0  0  0
  132.8667  126.2746   56.9471 H   0  0  0  0  0  0  0  0  0  0  0  0
  133.0662  126.9670   58.6366 H   0  0  0  0  0  0  0  0  0  0  0  0
  131.5940  124.3869   58.4304 H   0  0  0  0  0  0  0  0  0  0  0  0
  134.1940  124.8310   57.5190 H   0  0  0  0  0  0  0  0  0  0  0  0
  134.6376  123.8115   60.0268 H   0  0  0  0  0  0  0  0  0  0  0  0
  134.8844  123.7333   62.5068 H   0  0  0  0  0  0  0  0  0  0  0  0
  131.1813  125.9179   62.9480 H   0  0  0  0  0  0  0  0  0  0  0  0
  130.9312  125.9981   60.4680 H   0  0  0  0  0  0  0  0  0  0  0  0
  1  2  1  0
  2  3  1  0
  3  4  1  0
  4  5  1  0
  5  6  1  0
  6  7  1  0
  7  8  1  0
  8  9  1  0
  5 10  1  0
 10 11  1  0
 11 12  2  0
 12 13  1  0
 13 14  2  0
 13 15  1  0
 15 16  1  0
 16 17  1  0
 17 18  1  0
 18 19  2  0
 19 20  1  0
 20 21  2  0
 21 22  1  0
 21 23  1  0
 15 24  2  0
 24 25  1  0
 25 26  1  0
 26 27  1  0
 27 28  1  0
 27 29  1  0
 29 30  2  0
 30 31  1  0
 31 32  2  0
 32 33  1  0
 32 34  1  0
 34 35  2  0
 25 11  1  0
 35 29  1  0
 23 18  1  0
  1 36  1  0
  1 37  1  0
  1 38  1  0
  3 39  1  0
  3 40  1  0
  4 41  1  0
  4 42  1  0
  6 43  1  0
  6 44  1  0
  7 45  1  0
  7 46  1  0
  9 47  1  0
  9 48  1  0
  9 49  1  0
 10 50  1  0
 10 51  1  0
 12 52  1  0
 17 53  1  0
 17 54  1  0
 22 55  1  0
 22 56  1  0
 24 57  1  0
 26 58  1  0
 26 59  1  0
 27 60  1  1
 28 61  1  0
 30 62  1  0
 31 63  1  0
 34 64  1  0
 35 65  1  0
M  END
>  <Binding energies>  (1) 
[-7.79]

>  <Ligand effiencies>  (1) 
[-0.205]

>  <Interactions>  (1) 
["V-A:ASP:366:CA:3210, V-B:PRO:540:CA:9855, H-A:ALA:541:N:4891, V-B:ALA:541:CB:9864, V-B:TYR:539:CE2:9848, V-B:TYR:539:C:9839, V-A:ASP:366:CG:3213, V-A:ASN:362:CB:3176, V-A:LEU:363:CD1:3189, V-A:TYR:539:CD1:4873, V-B:TYR:539:CZ:9849, H-B:TYR:539:OH:9850, H-B:ALA:541:N:9863, V-A:ILE:369:CD1:3239, V-B:TYR:539:CD2:9846, V-A:TYR:531:CZ:4794, V-A:ASP:366:CB:3212, V-A:ARG:545:CZ:4926, H-A:ASP:366:O:3209, V-A:PRO:540:N:4884, V-A:TYR:539:CG:4872, H-A:TYR:539:N:4870, V-A:PRO:540:CB:4885, V-A:PRO:540:CA:4883, H-B:TYR:539:O:9840, V-B:PRO:540:C:9853, V-A:PRO:540:CD:4887, V-A:TYR:539:CE1:4875"]

$$$$
ZINC1870726240
     RDKit          3D

 71 72  0  0  0  0  0  0  0  0999 V2000
  133.0670  131.5000   62.7950 C   0  0  0  0  0  0  0  0  0  0  0  0
  132.6210  131.4390   61.3390 C   0  0  0  0  0  0  0  0  0  0  0  0
  133.5910  131.5260   60.3330 C   0  0  0  0  0  0  0  0  0  0  0  0
  133.2270  131.4700   58.9900 C   0  0  0  0  0  0  0  0  0  0  0  0
  131.8880  131.3220   58.6360 C   0  0  0  0  0  0  0  0  0  0  0  0
  131.4380  131.2270   56.9730 Cl  0  0  0  0  0  0  0  0  0  0  0  0
  130.9110  131.2410   59.6270 C   0  0  0  0  0  0  0  0  0  0  0  0
  131.2630  131.3100   60.9860 C   0  0  0  0  0  0  0  0  0  0  0  0
  130.3030  131.2050   62.0130 N   0  0  0  0  0  0  0  0  0  0  0  0
  129.4710  132.1660   62.4680 C   0  0  0  0  0  0  0  0  0  0  0  0
  129.4930  133.3410   62.0970 O   0  0  0  0  0  0  0  0  0  0  0  0
  128.4450  131.7090   63.5190 C   0  0  0  0  0  0  0  0  0  0  0  0
  127.6980  130.5770   63.0510 O   0  0  0  0  0  0  0  0  0  0  0  0
  128.1960  129.3120   63.2120 C   0  0  0  0  0  0  0  0  0  0  0  0
  128.6510  128.5010   62.2200 C   0  0  0  0  0  0  0  0  0  0  0  0
  129.0750  127.1990   62.4370 N   0  0  0  0  0  0  0  0  0  0  0  0
  128.9430  126.2760   61.3050 C   0  0  0  0  0  0  0  0  0  0  0  0
  130.0980  126.3590   60.2850 C   0  0  0  0  0  0  0  0  0  0  0  0
  131.4700  126.5980   60.9320 C   0  0  0  0  0  0  0  0  0  0  0  0
  131.9120  125.3910   61.5460 O   0  0  0  0  0  0  0  0  0  0  0  0
  133.0740  124.7930   60.9780 C   0  0  0  0  0  0  0  0  0  0  0  0
  133.0260  124.8090   59.4390 C   0  0  0  0  0  0  0  0  0  0  0  0
  133.1600  123.3620   61.5270 C   0  0  0  0  0  0  0  0  0  0  0  0
  129.1930  126.7400   63.7560 C   0  0  0  0  0  0  0  0  0  0  0  0
  129.8280  125.3530   63.9380 C   0  0  0  0  0  0  0  0  0  0  0  0
  130.7990  125.1910   65.0350 N   0  0  0  0  0  0  0  0  0  0  0  0
  132.0940  124.6470   64.5790 C   0  0  0  0  0  0  0  0  0  0  0  0
  133.3630  125.0750   65.3530 C   0  0  0  0  0  0  0  0  0  0  0  0
  133.0760  125.8480   66.5010 O   0  0  0  0  0  0  0  0  0  0  0  0
  130.2010  124.3750   66.1070 C   0  0  0  0  0  0  0  0  0  0  0  0
  129.7650  125.2050   67.3350 C   0  0  0  0  0  0  0  0  0  0  0  0
  130.5750  126.3570   67.4350 O   0  0  0  0  0  0  0  0  0  0  0  0
  128.7570  127.5110   64.7910 C   0  0  0  0  0  0  0  0  0  0  0  0
  128.1780  128.8600   64.6220 C   0  0  0  0  0  0  0  0  0  0  0  0
  127.7490  129.5240   65.5650 O   0  0  0  0  0  0  0  0  0  0  0  0
  132.1926  131.3804   63.4516 H   0  0  0  0  0  0  0  0  0  0  0  0
  133.7869  130.6919   62.9921 H   0  0  0  0  0  0  0  0  0  0  0  0
  133.5434  132.4717   62.9921 H   0  0  0  0  0  0  0  0  0  0  0  0
  134.6505  131.6396   60.6061 H   0  0  0  0  0  0  0  0  0  0  0  0
  133.9974  131.5427   58.2082 H   0  0  0  0  0  0  0  0  0  0  0  0
  129.8550  131.1220   59.3429 H   0  0  0  0  0  0  0  0  0  0  0  0
  130.2970  130.3240   62.5060 H   0  0  0  0  0  0  0  0  0  0  0  0
  128.9749  131.4332   64.4427 H   0  0  0  0  0  0  0  0  0  0  0  0
  127.7452  132.5364   63.7081 H   0  0  0  0  0  0  0  0  0  0  0  0
  128.6843  128.8976   61.1945 H   0  0  0  0  0  0  0  0  0  0  0  0
  128.9035  125.2498   61.6991 H   0  0  0  0  0  0  0  0  0  0  0  0
  128.0259  126.5614   60.7689 H   0  0  0  0  0  0  0  0  0  0  0  0
  130.1370  125.4129   59.7253 H   0  0  0  0  0  0  0  0  0  0  0  0
  129.8929  127.2210   59.6331 H   0  0  0  0  0  0  0  0  0  0  0  0
  132.1923  126.9053   60.1613 H   0  0  0  0  0  0  0  0  0  0  0  0
  131.3895  127.3915   61.6896 H   0  0  0  0  0  0  0  0  0  0  0  0
  133.9727  125.3638   61.2545 H   0  0  0  0  0  0  0  0  0  0  0  0
  132.0312  125.1406   59.1066 H   0  0  0  0  0  0  0  0  0  0  0  0
  133.7903  125.5010   59.0555 H   0  0  0  0  0  0  0  0  0  0  0  0
  133.2222  123.7969   59.0555 H   0  0  0  0  0  0  0  0  0  0  0  0
  133.1583  123.3904   62.6266 H   0  0  0  0  0  0  0  0  0  0  0  0
  132.2951  122.7812   61.1739 H   0  0  0  0  0  0  0  0  0  0  0  0
  134.0882  122.8890   61.1739 H   0  0  0  0  0  0  0  0  0  0  0  0
  129.0116  124.6364   64.1112 H   0  0  0  0  0  0  0  0  0  0  0  0
  130.4103  125.1872   63.0196 H   0  0  0  0  0  0  0  0  0  0  0  0
  132.0284  123.5504   64.6352 H   0  0  0  0  0  0  0  0  0  0  0  0
  132.2304  125.0602   63.5687 H   0  0  0  0  0  0  0  0  0  0  0  0
  133.9043  124.1701   65.6662 H   0  0  0  0  0  0  0  0  0  0  0  0
  133.9648  125.7007   64.6774 H   0  0  0  0  0  0  0  0  0  0  0  0
  132.2500  126.3160   66.3570 H   0  0  0  0  0  0  0  0  0  0  0  0
  129.3175  123.8597   65.7022 H   0  0  0  0  0  0  0  0  0  0  0  0
  130.9723  123.6687   66.4480 H   0  0  0  0  0  0  0  0  0  0  0  0
  128.7130  125.5051   67.2202 H   0  0  0  0  0  0  0  0  0  0  0  0
  129.8755  124.5984   68.2460 H   0  0  0  0  0  0  0  0  0  0  0  0
  130.9850  126.5190   66.5820 H   0  0  0  0  0  0  0  0  0  0  0  0
  128.8407  127.1064   65.8105 H   0  0  0  0  0  0  0  0  0  0  0  0
  1  2  1  0
  2  3  2  0
  3  4  1  0
  4  5  2  0
  5  6  1  0
  5  7  1  0
  7  8  2  0
  8  9  1  0
  9 10  1  0
 10 11  2  0
 10 12  1  0
 12 13  1  0
 13 14  1  0
 14 15  2  0
 15 16  1  0
 16 17  1  0
 17 18  1  0
 18 19  1  0
 19 20  1  0
 20 21  1  0
 21 22  1  0
 21 23  1  0
 16 24  1  0
 24 25  1  0
 25 26  1  0
 26 27  1  0
 27 28  1  0
 28 29  1  0
 26 30  1  0
 30 31  1  0
 31 32  1  0
 24 33  2  0
 33 34  1  0
 34 35  2  0
  8  2  1  0
 34 14  1  0
  1 36  1  0
  1 37  1  0
  1 38  1  0
  3 39  1  0
  4 40  1  0
  7 41  1  0
  9 42  1  0
 12 43  1  0
 12 44  1  0
 15 45  1  0
 17 46  1  0
 17 47  1  0
 18 48  1  0
 18 49  1  0
 19 50  1  0
 19 51  1  0
 21 52  1  0
 22 53  1  0
 22 54  1  0
 22 55  1  0
 23 56  1  0
 23 57  1  0
 23 58  1  0
 25 59  1  0
 25 60  1  0
 27 61  1  0
 27 62  1  0
 28 63  1  0
 28 64  1  0
 29 65  1  0
 30 66  1  0
 30 67  1  0
 31 68  1  0
 31 69  1  0
 32 70  1  0
 33 71  1  0
M  END
>  <Binding energies>  (1) 
[-5.91]

>  <Ligand effiencies>  (1) 
[-0.15552631578947368]

>  <Interactions>  (1) 
["V-A:ASP:366:CA:3210, H-A:GLU:543:OE2:4910, H-A:ALA:541:N:4891, V-B:GLU:543:CB:9878, V-A:TYR:484:CE2:4346, V-B:GLU:543:CG:9879, V-A:ASP:366:CG:3213, V-A:ASN:362:CB:3176, V-A:LEU:363:CB:3187, V-A:LEU:363:CD1:3189, V-A:ALA:541:CB:4892, V-A:GLU:543:CD:4908, V-A:TYR:484:CZ:4347, H-B:TYR:484:OH:9319, V-A:ASN:362:CG:3177, V-B:GLU:543:CA:9876, V-A:HIS:456:CE1:4070, V-A:GLU:543:CG:4907, V-B:GLU:543:CD:9880, V-A:ASP:366:CB:3212, V-A:ARG:545:CD:4923, V-A:ASN:362:C:3172, V-A:ARG:545:CZ:4926, H-A:GLU:543:OE1:4909, V-A:PRO:540:CB:4885, V-A:PRO:540:CA:4883, V-A:LEU:363:CA:3185, H-A:ARG:545:NE:4924, H-A:TYR:484:OH:4348"]

$$$$
ZINC1870869387
     RDKit          3D

 75 76  0  0  0  0  0  0  0  0999 V2000
  125.6390  123.6160   60.6360 C   0  0  0  0  0  0  0  0  0  0  0  0
  126.8030  123.4370   61.6070 C   0  0  0  0  0  0  0  0  0  0  0  0
  126.6010  122.8520   62.6710 O   0  0  0  0  0  0  0  0  0  0  0  0
  127.9910  123.9350   61.2000 N   0  0  0  0  0  0  0  0  0  0  0  0
  129.2130  123.9970   61.8970 C   0  0  0  0  0  0  0  0  0  0  0  0
  130.3320  123.2050   61.6070 C   0  0  0  0  0  0  0  0  0  0  0  0
  131.4810  123.3040   62.3850 C   0  0  0  0  0  0  0  0  0  0  0  0
  131.5350  124.1800   63.4730 C   0  0  0  0  0  0  0  0  0  0  0  0
  132.8180  124.2430   64.2970 C   0  0  0  0  0  0  0  0  0  0  0  0
  130.4190  124.9790   63.7830 C   0  0  0  0  0  0  0  0  0  0  0  0
  130.4850  125.8460   64.8940 N   0  0  0  0  0  0  0  0  0  0  0  0
  129.3070  126.4440   65.5190 C   0  0  0  0  0  0  0  0  0  0  0  0
  128.7000  127.6980   64.8770 C   0  0  0  0  0  0  0  0  0  0  0  0
  128.5590  127.8580   63.5310 C   0  0  0  0  0  0  0  0  0  0  0  0
  128.0490  129.0930   62.9020 C   0  0  0  0  0  0  0  0  0  0  0  0
  127.8420  129.1920   61.6940 O   0  0  0  0  0  0  0  0  0  0  0  0
  127.8540  130.1860   63.8840 C   0  0  0  0  0  0  0  0  0  0  0  0
  127.5320  131.3750   63.2990 O   0  0  0  0  0  0  0  0  0  0  0  0
  128.3720  132.5020   63.5390 C   0  0  0  0  0  0  0  0  0  0  0  0
  129.5030  132.5510   62.5110 C   0  0  0  0  0  0  0  0  0  0  0  0
  130.6580  132.2300   62.7940 O   0  0  0  0  0  0  0  0  0  0  0  0
  129.0580  132.9780   61.2970 O   0  0  0  0  0  0  0  0  0  0  0  0
  128.9740  132.1660   60.1090 C   0  0  0  0  0  0  0  0  0  0  0  0
  129.3290  132.9810   58.8410 C   0  0  0  0  0  0  0  0  0  0  0  0
  129.8670  130.9060   60.2260 C   0  0  0  0  0  0  0  0  0  0  0  0
  127.4930  131.7370   60.0410 C   0  0  0  0  0  0  0  0  0  0  0  0
  128.0100  129.9690   65.2170 C   0  0  0  0  0  0  0  0  0  0  0  0
  128.3120  128.7240   65.7520 N   0  0  0  0  0  0  0  0  0  0  0  0
  127.7580  128.4610   67.0900 C   0  0  0  0  0  0  0  0  0  0  0  0
  128.7490  128.6970   68.2560 C   0  0  0  0  0  0  0  0  0  0  0  0
  129.5180  127.4460   68.7280 C   0  0  0  0  0  0  0  0  0  0  0  0
  129.2640  127.0890   70.2040 C   0  0  0  0  0  0  0  0  0  0  0  0
  130.1990  127.8160   71.1910 C   0  0  0  0  0  0  0  0  0  0  0  0
  129.4640  128.5580   72.3250 C   0  0  0  0  0  0  0  0  0  0  0  0
  130.2640  129.5920   72.8570 O   0  0  0  0  0  0  0  0  0  0  0  0
  129.2680  124.8780   62.9810 C   0  0  0  0  0  0  0  0  0  0  0  0
  124.7073  123.7593   61.2029 H   0  0  0  0  0  0  0  0  0  0  0  0
  125.8219  124.4966   60.0027 H   0  0  0  0  0  0  0  0  0  0  0  0
  125.5489  122.7212   60.0027 H   0  0  0  0  0  0  0  0  0  0  0  0
  128.0260  124.3000   60.2600 H   0  0  0  0  0  0  0  0  0  0  0  0
  130.3018  122.5025   60.7611 H   0  0  0  0  0  0  0  0  0  0  0  0
  132.3574  122.6856   62.1411 H   0  0  0  0  0  0  0  0  0  0  0  0
  132.5670  124.2307   65.3679 H   0  0  0  0  0  0  0  0  0  0  0  0
  133.4499  123.3748   64.0585 H   0  0  0  0  0  0  0  0  0  0  0  0
  133.3619  125.1689   64.0585 H   0  0  0  0  0  0  0  0  0  0  0  0
  131.3730  126.2920   65.0780 H   0  0  0  0  0  0  0  0  0  0  0  0
  128.5214  125.6742   65.5361 H   0  0  0  0  0  0  0  0  0  0  0  0
  129.6659  126.7883   66.5001 H   0  0  0  0  0  0  0  0  0  0  0  0
  128.8409  127.0202   62.8763 H   0  0  0  0  0  0  0  0  0  0  0  0
  127.7741  133.4223   63.4645 H   0  0  0  0  0  0  0  0  0  0  0  0
  128.8074  132.4152   64.5454 H   0  0  0  0  0  0  0  0  0  0  0  0
  129.7522  133.9525   59.1361 H   0  0  0  0  0  0  0  0  0  0  0  0
  130.0669  132.4260   58.2431 H   0  0  0  0  0  0  0  0  0  0  0  0
  128.4201  133.1434   58.2431 H   0  0  0  0  0  0  0  0  0  0  0  0
  130.0331  130.6716   61.2878 H   0  0  0  0  0  0  0  0  0  0  0  0
  129.3683  130.0564   59.7366 H   0  0  0  0  0  0  0  0  0  0  0  0
  130.8338  131.0951   59.7366 H   0  0  0  0  0  0  0  0  0  0  0  0
  127.0973  131.6224   61.0609 H   0  0  0  0  0  0  0  0  0  0  0  0
  126.9132  132.5041   59.5068 H   0  0  0  0  0  0  0  0  0  0  0  0
  127.4130  130.7788   59.5068 H   0  0  0  0  0  0  0  0  0  0  0  0
  127.8914  130.8199   65.9040 H   0  0  0  0  0  0  0  0  0  0  0  0
  126.8907  129.1212   67.2380 H   0  0  0  0  0  0  0  0  0  0  0  0
  127.4965  127.3928   67.1146 H   0  0  0  0  0  0  0  0  0  0  0  0
  129.4855  129.4463   67.9302 H   0  0  0  0  0  0  0  0  0  0  0  0
  128.1404  129.0223   69.1126 H   0  0  0  0  0  0  0  0  0  0  0  0
  129.2103  126.5928   68.1056 H   0  0  0  0  0  0  0  0  0  0  0  0
  130.5906  127.6694   68.6293 H   0  0  0  0  0  0  0  0  0  0  0  0
  128.2255  127.3543   70.4510 H   0  0  0  0  0  0  0  0  0  0  0  0
  129.4609  126.0121   70.3111 H   0  0  0  0  0  0  0  0  0  0  0  0
  130.8697  127.0709   71.6438 H   0  0  0  0  0  0  0  0  0  0  0  0
  130.7400  128.5788   70.6117 H   0  0  0  0  0  0  0  0  0  0  0  0
  128.5343  128.9912   71.9275 H   0  0  0  0  0  0  0  0  0  0  0  0
  129.2429  127.8389   73.1275 H   0  0  0  0  0  0  0  0  0  0  0  0
  130.2380  130.3400   72.2570 H   0  0  0  0  0  0  0  0  0  0  0  0
  128.3938  125.5047   63.2113 H   0  0  0  0  0  0  0  0  0  0  0  0
  1  2  1  0
  2  3  2  0
  2  4  1  0
  4  5  1  0
  5  6  2  0
  6  7  1  0
  7  8  2  0
  8  9  1  0
  8 10  1  0
 10 11  1  0
 11 12  1  0
 12 13  1  0
 13 14  2  0
 14 15  1  0
 15 16  2  0
 15 17  1  0
 17 18  1  0
 18 19  1  0
 19 20  1  0
 20 21  2  0
 20 22  1  0
 22 23  1  0
 23 24  1  0
 23 25  1  0
 23 26  1  0
 17 27  2  0
 27 28  1  0
 28 29  1  0
 29 30  1  0
 30 31  1  0
 31 32  1  0
 32 33  1  0
 33 34  1  0
 34 35  1  0
 10 36  2  0
 36  5  1  0
 28 13  1  0
  1 37  1  0
  1 38  1  0
  1 39  1  0
  4 40  1  0
  6 41  1  0
  7 42  1  0
  9 43  1  0
  9 44  1  0
  9 45  1  0
 11 46  1  0
 12 47  1  0
 12 48  1  0
 14 49  1  0
 19 50  1  0
 19 51  1  0
 24 52  1  0
 24 53  1  0
 24 54  1  0
 25 55  1  0
 25 56  1  0
 25 57  1  0
 26 58  1  0
 26 59  1  0
 26 60  1  0
 27 61  1  0
 29 62  1  0
 29 63  1  0
 30 64  1  0
 30 65  1  0
 31 66  1  0
 31 67  1  0
 32 68  1  0
 32 69  1  0
 33 70  1  0
 33 71  1  0
 34 72  1  0
 34 73  1  0
 35 74  1  0
 36 75  1  0
M  END
>  <Binding energies>  (1) 
[-7.23]

>  <Ligand effiencies>  (1) 
[-0.1853846153846154]

>  <Interactions>  (1) 
["V-B:PRO:540:CA:9855, V-B:HIS:456:CD2:9039, H-A:GLU:543:OE2:4910, H-A:ALA:541:N:4891, V-B:GLU:543:CB:9878, V-B:GLU:543:CG:9879, V-A:TYR:539:CD1:4873, V-A:ALA:541:CB:4892, H-B:ALA:541:N:9863, V-A:GLU:543:CD:4908, V-B:PRO:540:CB:9857, H-B:TYR:484:OH:9319, V-B:HIS:456:CE1:9041, V-A:HIS:456:CE1:4070, H-B:HIS:456:NE2:9042, V-A:ALA:541:CA:4890, V-A:GLU:543:CG:4907, V-B:GLU:543:CD:9880, V-A:TYR:539:C:4867, H-A:LYS:547:NZ:4951, H-A:GLU:543:OE1:4909, V-A:GLU:543:CB:4906, V-A:PRO:540:N:4884, V-A:PRO:540:CA:4883, H-A:GLY:544:O:4913, H-A:GLU:543:O:4903"]

$$$$
ZINC1870905988
     RDKit          3D

 75 76  0  0  0  0  0  0  0  0999 V2000
  127.6910  126.3470   72.1490 C   0  0  0  0  0  0  0  0  0  0  0  0
  128.7980  125.8650   72.8950 O   0  0  0  0  0  0  0  0  0  0  0  0
  129.5310  126.8950   73.5450 C   0  0  0  0  0  0  0  0  0  0  0  0
  130.9050  127.0360   72.8800 C   0  0  0  0  0  0  0  0  0  0  0  0
  130.9510  128.2000   72.0630 O   0  0  0  0  0  0  0  0  0  0  0  0
  130.9010  128.1010   70.7210 C   0  0  0  0  0  0  0  0  0  0  0  0
  131.8500  127.8410   69.9760 O   0  0  0  0  0  0  0  0  0  0  0  0
  129.4900  128.3550   70.1880 C   0  0  0  0  0  0  0  0  0  0  0  0
  128.9560  127.1690   69.6030 O   0  0  0  0  0  0  0  0  0  0  0  0
  129.1000  126.9850   68.2600 C   0  0  0  0  0  0  0  0  0  0  0  0
  129.5520  125.8540   67.6550 C   0  0  0  0  0  0  0  0  0  0  0  0
  129.6840  125.7290   66.2770 N   0  0  0  0  0  0  0  0  0  0  0  0
  130.6620  124.7410   65.7990 C   0  0  0  0  0  0  0  0  0  0  0  0
  132.0340  125.3400   65.4120 C   0  0  0  0  0  0  0  0  0  0  0  0
  132.4420  125.1070   63.9490 C   0  0  0  0  0  0  0  0  0  0  0  0
  133.7150  124.4710   63.9040 O   0  0  0  0  0  0  0  0  0  0  0  0
  134.1080  123.9640   62.6320 C   0  0  0  0  0  0  0  0  0  0  0  0
  133.2660  124.6880   61.5710 C   0  0  0  0  0  0  0  0  0  0  0  0
  133.9250  122.4370   62.5580 C   0  0  0  0  0  0  0  0  0  0  0  0
  129.1330  126.7280   65.4600 C   0  0  0  0  0  0  0  0  0  0  0  0
  129.0800  126.4650   63.9480 C   0  0  0  0  0  0  0  0  0  0  0  0
  128.2840  127.3640   63.1150 N   0  0  0  0  0  0  0  0  0  0  0  0
  128.6130  128.7200   62.9380 C   0  0  0  0  0  0  0  0  0  0  0  0
  129.4770  129.0500   61.8950 C   0  0  0  0  0  0  0  0  0  0  0  0
  129.8490  130.3820   61.6550 C   0  0  0  0  0  0  0  0  0  0  0  0
  130.6990  130.7750   60.6370 O   0  0  0  0  0  0  0  0  0  0  0  0
  132.0500  131.1050   60.9420 C   0  0  0  0  0  0  0  0  0  0  0  0
  129.3410  131.3860   62.4890 C   0  0  0  0  0  0  0  0  0  0  0  0
  129.6860  132.6970   62.2550 O   0  0  0  0  0  0  0  0  0  0  0  0
  128.9830  133.2970   61.1760 C   0  0  0  0  0  0  0  0  0  0  0  0
  128.4650  131.0800   63.5380 C   0  0  0  0  0  0  0  0  0  0  0  0
  127.9970  132.1340   64.3020 O   0  0  0  0  0  0  0  0  0  0  0  0
  126.9130  132.9220   63.8210 C   0  0  0  0  0  0  0  0  0  0  0  0
  128.1130  129.7400   63.7570 C   0  0  0  0  0  0  0  0  0  0  0  0
  128.6860  127.8900   66.0130 C   0  0  0  0  0  0  0  0  0  0  0  0
  128.6820  128.1630   67.4650 C   0  0  0  0  0  0  0  0  0  0  0  0
  128.3400  129.2450   67.9410 O   0  0  0  0  0  0  0  0  0  0  0  0
  126.9052  126.6891   72.8385 H   0  0  0  0  0  0  0  0  0  0  0  0
  128.0135  127.1862   71.5151 H   0  0  0  0  0  0  0  0  0  0  0  0
  127.2964  125.5392   71.5151 H   0  0  0  0  0  0  0  0  0  0  0  0
  128.9830  127.8451   73.4612 H   0  0  0  0  0  0  0  0  0  0  0  0
  129.6601  126.6412   74.6075 H   0  0  0  0  0  0  0  0  0  0  0  0
  131.6775  127.1112   73.6595 H   0  0  0  0  0  0  0  0  0  0  0  0
  131.0847  126.1533   72.2486 H   0  0  0  0  0  0  0  0  0  0  0  0
  128.8415  128.6731   71.0176 H   0  0  0  0  0  0  0  0  0  0  0  0
  129.5360  129.1410   69.4198 H   0  0  0  0  0  0  0  0  0  0  0  0
  129.8265  124.9965   68.2869 H   0  0  0  0  0  0  0  0  0  0  0  0
  130.8219  124.0007   66.5967 H   0  0  0  0  0  0  0  0  0  0  0  0
  130.2417  124.2989   64.8837 H   0  0  0  0  0  0  0  0  0  0  0  0
  131.9975  126.4249   65.5897 H   0  0  0  0  0  0  0  0  0  0  0  0
  132.7847  124.8273   66.0313 H   0  0  0  0  0  0  0  0  0  0  0  0
  131.6949  124.4660   63.4582 H   0  0  0  0  0  0  0  0  0  0  0  0
  132.4977  126.0735   63.4268 H   0  0  0  0  0  0  0  0  0  0  0  0
  135.1779  124.1506   62.4573 H   0  0  0  0  0  0  0  0  0  0  0  0
  132.5218  125.3279   62.0675 H   0  0  0  0  0  0  0  0  0  0  0  0
  133.9222  125.3083   60.9428 H   0  0  0  0  0  0  0  0  0  0  0  0
  132.7510  123.9463   60.9428 H   0  0  0  0  0  0  0  0  0  0  0  0
  133.8755  122.0239   63.5763 H   0  0  0  0  0  0  0  0  0  0  0  0
  132.9926  122.2050   62.0224 H   0  0  0  0  0  0  0  0  0  0  0  0
  134.7761  121.9912   62.0224 H   0  0  0  0  0  0  0  0  0  0  0  0
  130.1138  126.5049   63.5742 H   0  0  0  0  0  0  0  0  0  0  0  0
  128.5725  125.4931   63.8596 H   0  0  0  0  0  0  0  0  0  0  0  0
  127.3700  127.0510   62.8260 H   0  0  0  0  0  0  0  0  0  0  0  0
  129.8740  128.2530   61.2491 H   0  0  0  0  0  0  0  0  0  0  0  0
  132.1821  131.1373   62.0336 H   0  0  0  0  0  0  0  0  0  0  0  0
  132.7190  130.3439   60.5140 H   0  0  0  0  0  0  0  0  0  0  0  0
  132.2927  132.0888   60.5140 H   0  0  0  0  0  0  0  0  0  0  0  0
  128.2025  133.9632   61.5722 H   0  0  0  0  0  0  0  0  0  0  0  0
  129.6842  133.8793   60.5602 H   0  0  0  0  0  0  0  0  0  0  0  0
  128.5181  132.5130   60.5602 H   0  0  0  0  0  0  0  0  0  0  0  0
  126.3505  133.3309   64.6733 H   0  0  0  0  0  0  0  0  0  0  0  0
  127.3036  133.7484   63.2091 H   0  0  0  0  0  0  0  0  0  0  0  0
  126.2474  132.2954   63.2091 H   0  0  0  0  0  0  0  0  0  0  0  0
  127.4340  129.4865   64.5845 H   0  0  0  0  0  0  0  0  0  0  0  0
  128.3055  128.6713   65.3385 H   0  0  0  0  0  0  0  0  0  0  0  0
  1  2  1  0
  2  3  1  0
  3  4  1  0
  4  5  1  0
  5  6  1  0
  6  7  2  0
  6  8  1  0
  8  9  1  0
  9 10  1  0
 10 11  2  0
 11 12  1  0
 12 13  1  0
 13 14  1  0
 14 15  1  0
 15 16  1  0
 16 17  1  0
 17 18  1  0
 17 19  1  0
 12 20  1  0
 20 21  1  0
 21 22  1  0
 22 23  1  0
 23 24  2  0
 24 25  1  0
 25 26  1  0
 26 27  1  0
 25 28  2  0
 28 29  1  0
 29 30  1  0
 28 31  1  0
 31 32  1  0
 32 33  1  0
 31 34  2  0
 20 35  2  0
 35 36  1  0
 36 37  2  0
 36 10  1  0
 34 23  1  0
  1 38  1  0
  1 39  1  0
  1 40  1  0
  3 41  1  0
  3 42  1  0
  4 43  1  0
  4 44  1  0
  8 45  1  0
  8 46  1  0
 11 47  1  0
 13 48  1  0
 13 49  1  0
 14 50  1  0
 14 51  1  0
 15 52  1  0
 15 53  1  0
 17 54  1  0
 18 55  1  0
 18 56  1  0
 18 57  1  0
 19 58  1  0
 19 59  1  0
 19 60  1  0
 21 61  1  0
 21 62  1  0
 22 63  1  0
 24 64  1  0
 27 65  1  0
 27 66  1  0
 27 67  1  0
 30 68  1  0
 30 69  1  0
 30 70  1  0
 33 71  1  0
 33 72  1  0
 33 73  1  0
 34 74  1  0
 35 75  1  0
M  END
>  <Binding energies>  (1) 
[-5.83]

>  <Ligand effiencies>  (1) 
[-0.15342105263157896]

>  <Interactions>  (1) 
["V-A:GLY:454:CA:4049, V-B:GLU:543:C:9874, V-A:GLU:543:C:4902, H-A:ALA:541:N:4891, V-B:GLU:543:CB:9878, H-B:LYS:547:NZ:9923, V-A:PRO:540:C:4881, V-A:TYR:484:CE2:4346, V-A:GLY:544:C:4912, V-B:GLU:543:CG:9879, V-B:LEU:475:CD2:9230, V-A:HIS:456:CD2:4068, H-A:ARG:545:N:4920, V-A:ASP:366:CG:3213, H-B:GLU:543:OE1:9881, V-B:LYS:547:CE:9922, V-A:GLU:543:CD:4908, V-A:TYR:484:CZ:4347, H-B:TYR:484:OH:9319, V-B:HIS:456:CE1:9041, H-A:GLY:454:N:4050, V-B:GLU:543:CA:9876, V-A:GLY:453:C:4042, V-A:HIS:456:CE1:4070, V-A:ILE:369:CD1:3239, V-B:TYR:484:CZ:9318, V-B:GLY:544:C:9884, V-B:GLY:544:CA:9886, V-A:GLU:543:CG:4907, V-B:GLU:543:CD:9880, V-A:TYR:539:C:4867, H-A:LYS:547:NZ:4951, H-A:ARG:545:NH2:4928, V-A:ARG:545:CZ:4926, V-A:LEU:475:CD2:4259, V-A:GLU:543:CB:4906, V-A:HIS:456:CG:4066, H-B:GLU:543:OE2:9882, V-A:PRO:540:CB:4885, V-A:PRO:540:CA:4883, H-A:HIS:456:ND1:4067, H-A:TYR:484:OH:4348"]

$$$$
ZINC1871030545
     RDKit          3D

 66 69  0  0  0  0  0  0  0  0999 V2000
  125.4400  124.9090   58.7940 O   0  0  0  0  0  0  0  0  0  0  0  0
  126.3890  124.1270   58.7590 C   0  0  0  0  0  0  0  0  0  0  0  0
  126.9590  123.4840   57.4950 C   0  0  0  0  0  0  0  0  0  0  0  0
  127.9420  122.4310   57.9690 C   0  0  0  0  0  0  0  0  0  0  0  0
  128.2740  122.8330   59.3910 C   0  0  0  0  0  0  0  0  0  0  0  0
  127.1570  123.6880   59.7830 N   0  0  0  0  0  0  0  0  0  0  0  0
  127.0310  124.2220   61.1390 C   0  0  0  0  0  0  0  0  0  0  0  0
  128.3860  124.4540   61.8280 C   0  0  0  0  0  0  0  0  0  0  0  0
  128.7230  123.3630   62.8620 C   0  0  0  0  0  0  0  0  0  0  0  0
  130.1600  123.1720   63.0840 N   0  0  0  0  0  0  0  0  0  0  0  0
  130.9460  122.9730   61.9580 C   0  0  0  0  0  0  0  0  0  0  0  0
  132.2600  123.3220   61.8990 C   0  0  0  0  0  0  0  0  0  0  0  0
  133.0790  123.1730   60.8180 O   0  0  0  0  0  0  0  0  0  0  0  0
  133.7650  124.3180   60.3050 C   0  0  0  0  0  0  0  0  0  0  0  0
  133.2030  124.6900   58.9190 C   0  0  0  0  0  0  0  0  0  0  0  0
  133.5590  124.0360   57.9360 O   0  0  0  0  0  0  0  0  0  0  0  0
  132.4370  125.8080   58.8090 N   0  0  0  0  0  0  0  0  0  0  0  0
  131.8590  126.1980   57.5110 C   0  0  0  0  0  0  0  0  0  0  0  0
  130.3820  125.7430   57.5380 C   0  0  0  0  0  0  0  0  0  0  0  0
  129.7070  126.3050   58.6660 O   0  0  0  0  0  0  0  0  0  0  0  0
  130.2970  125.9560   59.9210 C   0  0  0  0  0  0  0  0  0  0  0  0
  131.7680  126.4260   59.9650 C   0  0  0  0  0  0  0  0  0  0  0  0
  132.9510  123.9140   63.0700 C   0  0  0  0  0  0  0  0  0  0  0  0
  134.1170  124.3040   63.0710 O   0  0  0  0  0  0  0  0  0  0  0  0
  132.0870  123.9680   64.2670 C   0  0  0  0  0  0  0  0  0  0  0  0
  130.7810  123.5910   64.2680 C   0  0  0  0  0  0  0  0  0  0  0  0
  129.9350  123.6350   65.5430 C   0  0  0  0  0  0  0  0  0  0  0  0
  130.4260  124.4700   66.6360 N   0  0  0  0  0  0  0  0  0  0  0  0
  129.7590  125.6310   67.0630 C   0  0  0  0  0  0  0  0  0  0  0  0
  129.3800  126.5620   66.0910 C   0  0  0  0  0  0  0  0  0  0  0  0
  128.7130  127.7340   66.4500 C   0  0  0  0  0  0  0  0  0  0  0  0
  128.4210  127.9870   67.7900 C   0  0  0  0  0  0  0  0  0  0  0  0
  128.7980  127.0700   68.7690 C   0  0  0  0  0  0  0  0  0  0  0  0
  128.4410  127.3820   70.4290 Cl  0  0  0  0  0  0  0  0  0  0  0  0
  129.4650  125.8980   68.4100 C   0  0  0  0  0  0  0  0  0  0  0  0
  126.1544  123.0186   56.9067 H   0  0  0  0  0  0  0  0  0  0  0  0
  127.4465  124.2287   56.8487 H   0  0  0  0  0  0  0  0  0  0  0  0
  127.4827  121.4318   57.9448 H   0  0  0  0  0  0  0  0  0  0  0  0
  128.8362  122.3767   57.3306 H   0  0  0  0  0  0  0  0  0  0  0  0
  128.3382  121.9493   60.0429 H   0  0  0  0  0  0  0  0  0  0  0  0
  129.2464  123.3406   59.4728 H   0  0  0  0  0  0  0  0  0  0  0  0
  126.4959  125.1817   61.0883 H   0  0  0  0  0  0  0  0  0  0  0  0
  126.4855  123.4752   61.7346 H   0  0  0  0  0  0  0  0  0  0  0  0
  129.1735  124.4661   61.0601 H   0  0  0  0  0  0  0  0  0  0  0  0
  128.3255  125.4123   62.3646 H   0  0  0  0  0  0  0  0  0  0  0  0
  128.2592  123.6401   63.8202 H   0  0  0  0  0  0  0  0  0  0  0  0
  128.3352  122.4150   62.4608 H   0  0  0  0  0  0  0  0  0  0  0  0
  130.4856  122.5117   61.0719 H   0  0  0  0  0  0  0  0  0  0  0  0
  133.6268  125.1646   60.9936 H   0  0  0  0  0  0  0  0  0  0  0  0
  134.8361  124.0858   60.2106 H   0  0  0  0  0  0  0  0  0  0  0  0
  131.9190  127.2885   57.3798 H   0  0  0  0  0  0  0  0  0  0  0  0
  132.4044  125.7345   56.6757 H   0  0  0  0  0  0  0  0  0  0  0  0
  129.8837  126.0750   56.6153 H   0  0  0  0  0  0  0  0  0  0  0  0
  130.3483  124.6461   57.6126 H   0  0  0  0  0  0  0  0  0  0  0  0
  129.7359  126.4400   60.7340 H   0  0  0  0  0  0  0  0  0  0  0  0
  130.2644  124.8632   60.0427 H   0  0  0  0  0  0  0  0  0  0  0  0
  131.8193  127.5224   59.8927 H   0  0  0  0  0  0  0  0  0  0  0  0
  132.2518  126.1336   60.9087 H   0  0  0  0  0  0  0  0  0  0  0  0
  132.5240  124.3329   65.2082 H   0  0  0  0  0  0  0  0  0  0  0  0
  128.9365  124.0042   65.2661 H   0  0  0  0  0  0  0  0  0  0  0  0
  129.9571  122.6079   65.9361 H   0  0  0  0  0  0  0  0  0  0  0  0
  131.3900  124.3510   66.9150 H   0  0  0  0  0  0  0  0  0  0  0  0
  129.6099  126.3686   65.0328 H   0  0  0  0  0  0  0  0  0  0  0  0
  128.4177  128.4580   65.6763 H   0  0  0  0  0  0  0  0  0  0  0  0
  127.8935  128.9096   68.0738 H   0  0  0  0  0  0  0  0  0  0  0  0
  129.7624  125.1786   69.1872 H   0  0  0  0  0  0  0  0  0  0  0  0
  1  2  2  0
  2  3  1  0
  3  4  1  0
  4  5  1  0
  5  6  1  0
  6  7  1  0
  7  8  1  0
  8  9  1  0
  9 10  1  0
 10 11  1  0
 11 12  2  0
 12 13  1  0
 13 14  1  0
 14 15  1  0
 15 16  2  0
 15 17  1  0
 17 18  1  0
 18 19  1  0
 19 20  1  0
 20 21  1  0
 21 22  1  0
 12 23  1  0
 23 24  2  0
 23 25  1  0
 25 26  2  0
 26 27  1  0
 27 28  1  0
 28 29  1  0
 29 30  2  0
 30 31  1  0
 31 32  2  0
 32 33  1  0
 33 34  1  0
 33 35  2  0
  6  2  1  0
 26 10  1  0
 35 29  1  0
 22 17  1  0
  3 36  1  0
  3 37  1  0
  4 38  1  0
  4 39  1  0
  5 40  1  0
  5 41  1  0
  7 42  1  0
  7 43  1  0
  8 44  1  0
  8 45  1  0
  9 46  1  0
  9 47  1  0
 11 48  1  0
 14 49  1  0
 14 50  1  0
 18 51  1  0
 18 52  1  0
 19 53  1  0
 19 54  1  0
 21 55  1  0
 21 56  1  0
 22 57  1  0
 22 58  1  0
 25 59  1  0
 27 60  1  0
 27 61  1  0
 28 62  1  0
 30 63  1  0
 31 64  1  0
 32 65  1  0
 35 66  1  0
M  END
>  <Binding energies>  (1) 
[-8.06]

>  <Ligand effiencies>  (1) 
[-0.22388888888888892]

>  <Interactions>  (1) 
["V-A:ILE:369:CG2:3237, V-A:ASP:366:CA:3210, V-B:PRO:540:CA:9855, V-B:GLU:543:C:9874, V-B:GLU:543:CB:9878, V-B:TYR:539:CE2:9848, V-A:TYR:484:CE2:4346, V-B:GLU:543:CG:9879, V-B:TYR:539:C:9839, V-A:ASP:366:CG:3213, V-B:TYR:539:CZ:9849, H-B:TYR:539:OH:9850, V-A:TYR:484:CZ:4347, V-A:GLU:543:CD:4908, V-B:PRO:540:CB:9857, V-B:GLU:543:CA:9876, H-A:GLY:454:N:4050, V-B:HIS:456:CE1:9041, V-B:PRO:540:N:9856, V-A:ILE:369:CD1:3239, V-A:HIS:456:CE1:4070, V-B:TYR:539:CD2:9846, V-A:TYR:531:CZ:4794, V-A:GLU:543:CG:4907, V-B:GLU:543:CD:9880, V-A:ASP:366:CB:3212, V-B:TYR:539:CG:9844, V-A:GLU:543:CB:4906, V-B:TYR:539:CD1:9845, V-B:TYR:539:CE1:9847, H-A:TYR:484:OH:4348"]

$$$$
ZINC1871535919-again1
     RDKit          3D

 72 77  0  0  0  0  0  0  0  0999 V2000
  129.8700  125.9110   66.1130 C   0  0  0  0  0  0  0  0  0  0  0  0
  129.4520  126.4170   64.9360 C   0  0  0  0  0  0  0  0  0  0  0  0
  128.7280  127.6880   64.7180 C   0  0  0  0  0  0  0  0  0  0  0  0
  128.3260  128.5180   65.7750 C   0  0  0  0  0  0  0  0  0  0  0  0
  127.6470  129.7050   65.5190 C   0  0  0  0  0  0  0  0  0  0  0  0
  127.3650  130.0700   64.2050 C   0  0  0  0  0  0  0  0  0  0  0  0
  127.7590  129.2570   63.1460 C   0  0  0  0  0  0  0  0  0  0  0  0
  128.4380  128.0700   63.4040 C   0  0  0  0  0  0  0  0  0  0  0  0
  130.6090  124.5940   66.2600 C   0  0  0  0  0  0  0  0  0  0  0  0
  131.4170  124.1960   65.0060 N   0  0  0  0  0  0  0  0  0  0  0  0
  132.2390  125.3990   64.4900 C   0  0  0  0  0  0  0  0  0  0  0  0
  133.0200  124.9670   63.2280 C   0  0  0  0  0  0  0  0  0  0  0  0
  132.1280  124.5210   62.1370 N   0  0  0  0  0  0  0  0  0  0  0  0
  131.5750  125.4180   61.2180 C   0  0  0  0  0  0  0  0  0  0  0  0
  131.1990  124.9390   59.9990 N   0  0  0  0  0  0  0  0  0  0  0  0
  130.7280  125.8640   59.1170 C   0  0  0  0  0  0  0  0  0  0  0  0
  130.3020  125.4580   57.8430 N   0  0  0  0  0  0  0  0  0  0  0  0
  128.9020  125.5300   57.4370 C   0  0  0  0  0  0  0  0  0  0  0  0
  128.1310  124.2170   57.6680 C   0  0  1  0  0  0  0  0  0  0  0  0
  126.6600  124.3980   58.0330 C   0  0  0  0  0  0  0  0  0  0  0  0
  125.9880  123.1380   57.5290 C   0  0  0  0  0  0  0  0  0  0  0  0
  126.9780  122.5600   56.5120 C   0  0  0  0  0  0  0  0  0  0  0  0
  128.0510  123.4970   56.4400 O   0  0  0  0  0  0  0  0  0  0  0  0
  130.6320  127.1920   59.3750 N   0  0  0  0  0  0  0  0  0  0  0  0
  131.0430  127.5810   60.6080 C   0  0  0  0  0  0  0  0  0  0  0  0
  130.9680  128.9560   60.8680 N   0  0  0  0  0  0  0  0  0  0  0  0
  130.8360  130.0670   60.0170 C   0  0  0  0  0  0  0  0  0  0  0  0
  129.8960  131.0560   60.3710 C   0  0  0  0  0  0  0  0  0  0  0  0
  129.7160  132.2020   59.5840 C   0  0  0  0  0  0  0  0  0  0  0  0
  130.4970  132.3250   58.4410 C   0  0  0  0  0  0  0  0  0  0  0  0
  131.4190  131.3790   58.0950 C   0  0  0  0  0  0  0  0  0  0  0  0
  131.6260  130.2390   58.8630 C   0  0  0  0  0  0  0  0  0  0  0  0
  132.0690  131.7750   56.9700 O   0  0  0  0  0  0  0  0  0  0  0  0
  131.3650  132.8950   56.5010 C   0  0  0  0  0  0  0  0  0  0  0  0
  130.5370  133.3430   57.5430 O   0  0  0  0  0  0  0  0  0  0  0  0
  131.5350  126.7370   61.5550 N   0  0  0  0  0  0  0  0  0  0  0  0
  131.3770  123.3530   62.6390 C   0  0  0  0  0  0  0  0  0  0  0  0
  130.5020  123.7000   63.8640 C   0  0  0  0  0  0  0  0  0  0  0  0
  129.6622  126.4896   67.0252 H   0  0  0  0  0  0  0  0  0  0  0  0
  129.6735  125.8194   64.0395 H   0  0  0  0  0  0  0  0  0  0  0  0
  128.5490  128.2286   66.8126 H   0  0  0  0  0  0  0  0  0  0  0  0
  127.3341  130.3527   66.3512 H   0  0  0  0  0  0  0  0  0  0  0  0
  126.8269  131.0078   64.0024 H   0  0  0  0  0  0  0  0  0  0  0  0
  127.5347  129.5514   62.1101 H   0  0  0  0  0  0  0  0  0  0  0  0
  128.7492  127.4268   62.5677 H   0  0  0  0  0  0  0  0  0  0  0  0
  131.3033  124.6776   67.1091 H   0  0  0  0  0  0  0  0  0  0  0  0
  129.8498  123.8135   66.4160 H   0  0  0  0  0  0  0  0  0  0  0  0
  132.0620  123.4550   65.2440 H   0  0  0  0  0  0  0  0  0  0  0  0
  131.5617  126.2287   64.2392 H   0  0  0  0  0  0  0  0  0  0  0  0
  132.9421  125.7313   65.2680 H   0  0  0  0  0  0  0  0  0  0  0  0
  133.6144  125.8210   62.8712 H   0  0  0  0  0  0  0  0  0  0  0  0
  133.6607  124.1169   63.5054 H   0  0  0  0  0  0  0  0  0  0  0  0
  130.9830  125.1170   57.1790 H   0  0  0  0  0  0  0  0  0  0  0  0
  128.4121  126.3283   58.0138 H   0  0  0  0  0  0  0  0  0  0  0  0
  128.8869  125.7300   56.3554 H   0  0  0  0  0  0  0  0  0  0  0  0
  128.6798  123.7243   58.4841 H   0  0  0  0  0  0  0  0  0  0  0  0
  126.5384  124.4949   59.1220 H   0  0  0  0  0  0  0  0  0  0  0  0
  126.2279  125.3083   57.5918 H   0  0  0  0  0  0  0  0  0  0  0  0
  125.8192  122.4301   58.3538 H   0  0  0  0  0  0  0  0  0  0  0  0
  125.0005  123.3370   57.0871 H   0  0  0  0  0  0  0  0  0  0  0  0
  127.3467  121.5804   56.8502 H   0  0  0  0  0  0  0  0  0  0  0  0
  126.5070  122.4069   55.5298 H   0  0  0  0  0  0  0  0  0  0  0  0
  131.0920  129.1920   61.8410 H   0  0  0  0  0  0  0  0  0  0  0  0
  129.2926  130.9261   61.2815 H   0  0  0  0  0  0  0  0  0  0  0  0
  128.9840  132.9750   59.8608 H   0  0  0  0  0  0  0  0  0  0  0  0
  132.3835  129.4938   58.5785 H   0  0  0  0  0  0  0  0  0  0  0  0
  132.0707  133.6888   56.2149 H   0  0  0  0  0  0  0  0  0  0  0  0
  130.7655  132.6321   55.6170 H   0  0  0  0  0  0  0  0  0  0  0  0
  130.7268  122.9784   61.8347 H   0  0  0  0  0  0  0  0  0  0  0  0
  132.1077  122.5928   62.9523 H   0  0  0  0  0  0  0  0  0  0  0  0
  129.7858  124.4902   63.5946 H   0  0  0  0  0  0  0  0  0  0  0  0
  129.9467  122.8085   64.1909 H   0  0  0  0  0  0  0  0  0  0  0  0
  1  2  2  0
  2  3  1  0
  3  4  2  0
  4  5  1  0
  5  6  2  0
  6  7  1  0
  7  8  2  0
  1  9  1  0
  9 10  1  0
 10 11  1  0
 11 12  1  0
 12 13  1  0
 13 14  1  0
 14 15  2  0
 15 16  1  0
 16 17  1  0
 17 18  1  0
 18 19  1  0
 19 20  1  0
 20 21  1  0
 21 22  1  0
 22 23  1  0
 16 24  2  0
 24 25  1  0
 25 26  1  0
 26 27  1  0
 27 28  2  0
 28 29  1  0
 29 30  2  0
 30 31  1  0
 31 32  2  0
 31 33  1  0
 33 34  1  0
 34 35  1  0
 25 36  2  0
 13 37  1  0
 37 38  1  0
  8  3  1  0
 38 10  1  0
 36 14  1  0
 23 19  1  0
 32 27  1  0
 35 30  1  0
  1 39  1  0
  2 40  1  0
  4 41  1  0
  5 42  1  0
  6 43  1  0
  7 44  1  0
  8 45  1  0
  9 46  1  0
  9 47  1  0
 10 48  1  0
 11 49  1  0
 11 50  1  0
 12 51  1  0
 12 52  1  0
 17 53  1  0
 18 54  1  0
 18 55  1  0
 19 56  1  1
 20 57  1  0
 20 58  1  0
 21 59  1  0
 21 60  1  0
 22 61  1  0
 22 62  1  0
 26 63  1  0
 28 64  1  0
 29 65  1  0
 32 66  1  0
 34 67  1  0
 34 68  1  0
 37 69  1  0
 37 70  1  0
 38 71  1  0
 38 72  1  0
M  CHG  1  10   1
M  END
>  <Binding energies>  (1) 
[-8.66]

>  <Ligand effiencies>  (1) 
[-0.21121951219512194]

>  <Interactions>  (1) 
["V-B:PRO:540:CA:9855, V-B:GLU:543:CB:9878, V-A:ILE:538:CB:4862, H-A:TYR:531:OH:4795, V-A:TYR:484:CE2:4346, V-B:TYR:539:CE2:9848, V-B:GLU:543:CG:9879, V-B:TYR:539:C:9839, V-A:ASP:366:CG:3213, V-A:ILE:538:CG2:4863, V-A:LEU:363:CD1:3189, V-B:TYR:539:CZ:9849, V-A:ILE:538:CA:4860, H-B:TYR:539:OH:9850, V-A:TYR:484:CZ:4347, V-A:GLU:543:CD:4908, V-B:PRO:540:CB:9857, V-B:PRO:540:N:9856, V-A:HIS:456:CE1:4070, V-B:TYR:484:CZ:9318, V-B:PRO:540:CD:9859, V-A:GLU:543:CG:4907, V-B:GLU:543:CD:9880, H-A:ARG:545:NH2:4928, V-A:ARG:545:CZ:4926, H-A:GLU:543:OE1:4909, V-B:TYR:539:CG:9844, V-B:TYR:539:CD1:9845, V-A:PRO:540:N:4884, H-A:TYR:539:N:4870, V-A:PRO:540:CB:4885, V-A:PRO:540:CA:4883, H-A:ASP:366:OD2:3215, V-A:PRO:540:CD:4887, V-B:TYR:539:CE1:9847, H-A:TYR:484:OH:4348"]

$$$$
ZINC1871594084
     RDKit          3D

 58 61  0  0  0  0  0  0  0  0999 V2000
  128.3470  125.5930   72.4690 O   0  0  0  0  0  0  0  0  0  0  0  0
  127.9150  126.9340   72.3690 C   0  0  0  0  0  0  0  0  0  0  0  0
  129.1060  127.8760   72.1390 C   0  0  0  0  0  0  0  0  0  0  0  0
  129.8300  127.6040   70.8110 C   0  0  0  0  0  0  0  0  0  0  0  0
  129.0900  126.7110   69.9290 N   0  0  0  0  0  0  0  0  0  0  0  0
  129.0000  126.9380   68.5480 C   0  0  0  0  0  0  0  0  0  0  0  0
  128.3490  128.0690   68.1820 N   0  0  0  0  0  0  0  0  0  0  0  0
  128.2660  128.2920   66.8430 C   0  0  0  0  0  0  0  0  0  0  0  0
  127.5920  129.4230   66.3610 N   0  0  0  0  0  0  0  0  0  0  0  0
  127.4010  129.9250   65.0620 C   0  0  0  0  0  0  0  0  0  0  0  0
  126.2900  129.6000   64.2760 C   0  0  0  0  0  0  0  0  0  0  0  0
  126.1470  130.1420   63.0020 C   0  0  0  0  0  0  0  0  0  0  0  0
  127.1040  131.0220   62.4940 C   0  0  0  0  0  0  0  0  0  0  0  0
  126.8610  131.6570   60.9020 Cl  0  0  0  0  0  0  0  0  0  0  0  0
  128.2210  131.3720   63.2730 C   0  0  0  0  0  0  0  0  0  0  0  0
  129.2870  132.3410   62.7450 C   0  0  0  0  0  0  0  0  0  0  0  0
  129.8430  131.9240   61.6060 F   0  0  0  0  0  0  0  0  0  0  0  0
  128.7400  133.5360   62.5190 F   0  0  0  0  0  0  0  0  0  0  0  0
  130.2590  132.4800   63.6470 F   0  0  0  0  0  0  0  0  0  0  0  0
  128.3500  130.8180   64.5560 C   0  0  0  0  0  0  0  0  0  0  0  0
  128.7710  127.4630   65.8950 N   0  0  0  0  0  0  0  0  0  0  0  0
  129.4020  126.3430   66.3530 C   0  0  0  0  0  0  0  0  0  0  0  0
  129.9880  125.4850   65.4170 N   0  0  0  0  0  0  0  0  0  0  0  0
  130.3710  125.9100   64.0620 C   0  0  0  0  0  0  0  0  0  0  0  0
  131.5410  125.1210   63.4430 C   0  0  0  0  0  0  0  0  0  0  0  0
  131.3880  123.6570   63.4740 N   0  0  0  0  0  0  0  0  0  0  0  0
  132.0300  122.8090   62.5640 C   0  0  0  0  0  0  0  0  0  0  0  0
  131.2530  122.0340   61.7510 N   0  0  0  0  0  0  0  0  0  0  0  0
  131.8900  121.1850   60.9020 C   0  0  0  0  0  0  0  0  0  0  0  0
  133.2800  121.0840   60.8530 C   0  0  0  0  0  0  0  0  0  0  0  0
  134.0010  121.8990   61.7260 C   0  0  0  0  0  0  0  0  0  0  0  0
  133.3940  122.7570   62.5860 N   0  0  0  0  0  0  0  0  0  0  0  0
  130.9920  123.2250   64.8240 C   0  0  0  0  0  0  0  0  0  0  0  0
  129.8350  124.0230   65.4590 C   0  0  0  0  0  0  0  0  0  0  0  0
  129.5480  126.0490   67.6760 N   0  0  0  0  0  0  0  0  0  0  0  0
  128.0450  125.1140   71.6930 H   0  0  0  0  0  0  0  0  0  0  0  0
  127.2151  127.0253   71.5253 H   0  0  0  0  0  0  0  0  0  0  0  0
  127.4199  127.2156   73.3101 H   0  0  0  0  0  0  0  0  0  0  0  0
  128.7386  128.9128   72.1335 H   0  0  0  0  0  0  0  0  0  0  0  0
  129.8271  127.7041   72.9516 H   0  0  0  0  0  0  0  0  0  0  0  0
  129.9815  128.5621   70.2922 H   0  0  0  0  0  0  0  0  0  0  0  0
  130.7833  127.1110   71.0522 H   0  0  0  0  0  0  0  0  0  0  0  0
  128.6870  125.8690   70.3140 H   0  0  0  0  0  0  0  0  0  0  0  0
  127.0980  129.9340   67.0790 H   0  0  0  0  0  0  0  0  0  0  0  0
  125.5255  128.9125   64.6670 H   0  0  0  0  0  0  0  0  0  0  0  0
  125.2726  129.8746   62.3905 H   0  0  0  0  0  0  0  0  0  0  0  0
  129.2160  131.0922   65.1764 H   0  0  0  0  0  0  0  0  0  0  0  0
  129.4952  125.7936   63.4066 H   0  0  0  0  0  0  0  0  0  0  0  0
  130.7126  126.9519   64.1496 H   0  0  0  0  0  0  0  0  0  0  0  0
  131.6444  125.4314   62.3928 H   0  0  0  0  0  0  0  0  0  0  0  0
  132.4256  125.3512   64.0549 H   0  0  0  0  0  0  0  0  0  0  0  0
  131.2881  120.5556   60.2301 H   0  0  0  0  0  0  0  0  0  0  0  0
  133.7837  120.3948   60.1593 H   0  0  0  0  0  0  0  0  0  0  0  0
  135.0996  121.8447   61.7175 H   0  0  0  0  0  0  0  0  0  0  0  0
  130.6859  122.1700   64.7670 H   0  0  0  0  0  0  0  0  0  0  0  0
  131.8680  123.3959   65.4670 H   0  0  0  0  0  0  0  0  0  0  0  0
  128.9086  123.7620   64.9264 H   0  0  0  0  0  0  0  0  0  0  0  0
  129.8211  123.7472   66.5238 H   0  0  0  0  0  0  0  0  0  0  0  0
  1  2  1  0
  2  3  1  0
  3  4  1  0
  4  5  1  0
  5  6  1  0
  6  7  2  0
  7  8  1  0
  8  9  1  0
  9 10  1  0
 10 11  2  0
 11 12  1  0
 12 13  2  0
 13 14  1  0
 13 15  1  0
 15 16  1  0
 16 17  1  0
 16 18  1  0
 16 19  1  0
 15 20  2  0
  8 21  2  0
 21 22  1  0
 22 23  1  0
 23 24  1  0
 24 25  1  0
 25 26  1  0
 26 27  1  0
 27 28  2  0
 28 29  1  0
 29 30  2  0
 30 31  1  0
 31 32  2  0
 26 33  1  0
 33 34  1  0
 22 35  2  0
 35  6  1  0
 20 10  1  0
 34 23  1  0
 32 27  1  0
  1 36  1  0
  2 37  1  0
  2 38  1  0
  3 39  1  0
  3 40  1  0
  4 41  1  0
  4 42  1  0
  5 43  1  0
  9 44  1  0
 11 45  1  0
 12 46  1  0
 20 47  1  0
 24 48  1  0
 24 49  1  0
 25 50  1  0
 25 51  1  0
 29 52  1  0
 30 53  1  0
 31 54  1  0
 33 55  1  0
 33 56  1  0
 34 57  1  0
 34 58  1  0
M  END
>  <Binding energies>  (1) 
[-7.2]

>  <Ligand effiencies>  (1) 
[-0.18947368421052632]

>  <Interactions>  (1) 
["V-A:ILE:369:CG2:3237, V-A:ALA:541:C:4888, V-B:HIS:456:CD2:9039, H-B:GLU:543:O:9875, V-B:GLU:543:CB:9878, H-B:LYS:547:NZ:9923, V-A:PRO:540:C:4881, V-B:TYR:539:CE2:9848, V-A:TYR:484:CE2:4346, V-B:GLU:543:CG:9879, V-B:LEU:475:CD2:9230, V-A:ALA:541:CB:4892, V-B:LYS:547:CE:9922, V-A:GLU:543:CD:4908, V-A:TYR:484:CZ:4347, H-B:TYR:484:OH:9319, V-B:HIS:456:CE1:9041, H-A:GLY:454:N:4050, V-A:HIS:456:CE1:4070, V-A:ILE:369:CD1:3239, V-B:TYR:484:CZ:9318, V-B:GLY:544:C:9884, H-B:HIS:456:NE2:9042, V-A:ALA:541:CA:4890, V-B:TYR:539:CD2:9846, V-A:GLU:543:CG:4907, V-A:SER:385:CB:3409, V-B:GLU:543:CD:9880, V-A:LEU:475:CD2:4259, V-A:GLU:543:CB:4906, H-B:GLY:544:O:9885, V-A:PRO:540:CA:4883, H-A:HIS:456:NE2:4071"]

$$$$
ZINC1871597614
     RDKit          3D

 73 75  0  0  0  0  0  0  0  0999 V2000
  130.2250  119.5940   61.3320 C   0  0  0  0  0  0  0  0  0  0  0  0
  131.0730  120.8040   60.9310 C   0  0  0  0  0  0  0  0  0  0  0  0
  130.3370  121.9910   61.2120 O   0  0  0  0  0  0  0  0  0  0  0  0
  130.4680  122.6020   62.4470 C   0  0  0  0  0  0  0  0  0  0  0  0
  131.7000  123.0080   62.9870 C   0  0  0  0  0  0  0  0  0  0  0  0
  131.7610  123.6230   64.2350 C   0  0  0  0  0  0  0  0  0  0  0  0
  130.5930  123.8560   64.9680 C   0  0  0  0  0  0  0  0  0  0  0  0
  130.5970  124.4710   66.2310 N   0  0  0  0  0  0  0  0  0  0  0  0
  129.9210  125.5970   66.7220 C   0  0  0  0  0  0  0  0  0  0  0  0
  129.4270  126.4440   65.7860 N   0  0  0  0  0  0  0  0  0  0  0  0
  128.8040  127.5510   66.2720 C   0  0  0  0  0  0  0  0  0  0  0  0
  128.2680  128.4990   65.3890 N   0  0  0  0  0  0  0  0  0  0  0  0
  127.0360  129.2240   65.6810 C   0  0  0  0  0  0  0  0  0  0  0  0
  126.2000  129.5170   64.4260 C   0  0  0  0  0  0  0  0  0  0  0  0
  126.4420  130.8560   64.0000 O   0  0  0  0  0  0  0  0  0  0  0  0
  127.7050  131.2170   63.5710 C   0  0  0  0  0  0  0  0  0  0  0  0
  128.0530  130.8370   62.2750 C   0  0  0  0  0  0  0  0  0  0  0  0
  129.3040  131.1570   61.7550 C   0  0  0  0  0  0  0  0  0  0  0  0
  130.2300  131.8620   62.5220 C   0  0  0  0  0  0  0  0  0  0  0  0
  131.4460  132.1350   61.9230 O   0  0  0  0  0  0  0  0  0  0  0  0
  132.6110  131.4550   62.3750 C   0  0  0  0  0  0  0  0  0  0  0  0
  129.8860  132.2480   63.8270 C   0  0  0  0  0  0  0  0  0  0  0  0
  128.6330  131.9280   64.3470 C   0  0  0  0  0  0  0  0  0  0  0  0
  128.6580  127.8340   67.5900 N   0  0  0  0  0  0  0  0  0  0  0  0
  129.1830  126.9310   68.4700 C   0  0  0  0  0  0  0  0  0  0  0  0
  129.0560  127.1780   69.8700 N   0  0  0  0  0  0  0  0  0  0  0  0
  130.0620  128.0170   70.5410 C   0  0  0  0  0  0  0  0  0  0  0  0
  131.4130  128.0470   69.8080 C   0  0  0  0  0  0  0  0  0  0  0  0
  127.7360  126.9600   70.5020 C   0  0  0  0  0  0  0  0  0  0  0  0
  127.6610  126.6670   72.0170 C   0  0  0  0  0  0  0  0  0  0  0  0
  128.4280  125.5640   72.4550 O   0  0  0  0  0  0  0  0  0  0  0  0
  129.8290  125.8010   68.0620 N   0  0  0  0  0  0  0  0  0  0  0  0
  129.3690  123.4360   64.4420 C   0  0  0  0  0  0  0  0  0  0  0  0
  129.2930  122.8160   63.1810 C   0  0  0  0  0  0  0  0  0  0  0  0
  128.1080  122.3950   62.6030 O   0  0  0  0  0  0  0  0  0  0  0  0
  127.3050  123.3210   61.8780 C   0  0  0  0  0  0  0  0  0  0  0  0
  127.6270  123.1820   60.3870 C   0  0  0  0  0  0  0  0  0  0  0  0
  130.1778  119.5267   62.4289 H   0  0  0  0  0  0  0  0  0  0  0  0
  129.2085  119.7085   60.9276 H   0  0  0  0  0  0  0  0  0  0  0  0
  130.6795  118.6775   60.9276 H   0  0  0  0  0  0  0  0  0  0  0  0
  132.0110  120.8054   61.5056 H   0  0  0  0  0  0  0  0  0  0  0  0
  131.3110  120.7558   59.8581 H   0  0  0  0  0  0  0  0  0  0  0  0
  132.6260  122.8383   62.4180 H   0  0  0  0  0  0  0  0  0  0  0  0
  132.7344  123.9275   64.6470 H   0  0  0  0  0  0  0  0  0  0  0  0
  131.2230  124.0480   66.9010 H   0  0  0  0  0  0  0  0  0  0  0  0
  128.7600  128.7030   64.5320 H   0  0  0  0  0  0  0  0  0  0  0  0
  126.4299  128.6208   66.3729 H   0  0  0  0  0  0  0  0  0  0  0  0
  127.3200  130.1916   66.1204 H   0  0  0  0  0  0  0  0  0  0  0  0
  126.4840  128.8194   63.6243 H   0  0  0  0  0  0  0  0  0  0  0  0
  125.1320  129.3915   64.6574 H   0  0  0  0  0  0  0  0  0  0  0  0
  127.3326  130.2795   61.6583 H   0  0  0  0  0  0  0  0  0  0  0  0
  129.5638  130.8511   60.7308 H   0  0  0  0  0  0  0  0  0  0  0  0
  132.6267  131.4458   63.4749 H   0  0  0  0  0  0  0  0  0  0  0  0
  132.6008  130.4210   61.9998 H   0  0  0  0  0  0  0  0  0  0  0  0
  133.5063  131.9724   61.9998 H   0  0  0  0  0  0  0  0  0  0  0  0
  130.6082  132.8053   64.4418 H   0  0  0  0  0  0  0  0  0  0  0  0
  128.3705  132.2342   65.3704 H   0  0  0  0  0  0  0  0  0  0  0  0
  129.6750  129.0448   70.6027 H   0  0  0  0  0  0  0  0  0  0  0  0
  130.2396  127.5816   71.5354 H   0  0  0  0  0  0  0  0  0  0  0  0
  132.2296  128.0651   70.5448 H   0  0  0  0  0  0  0  0  0  0  0  0
  131.5080  127.1507   69.1774 H   0  0  0  0  0  0  0  0  0  0  0  0
  131.4681  128.9466   69.1774 H   0  0  0  0  0  0  0  0  0  0  0  0
  127.1401  127.8667   70.3209 H   0  0  0  0  0  0  0  0  0  0  0  0
  127.3767  126.0291   70.0391 H   0  0  0  0  0  0  0  0  0  0  0  0
  128.0120  127.5604   72.5542 H   0  0  0  0  0  0  0  0  0  0  0  0
  126.6118  126.4120   72.2271 H   0  0  0  0  0  0  0  0  0  0  0  0
  128.5190  124.9480   71.7240 H   0  0  0  0  0  0  0  0  0  0  0  0
  128.4486  123.5926   65.0236 H   0  0  0  0  0  0  0  0  0  0  0  0
  126.2406  123.1026   62.0495 H   0  0  0  0  0  0  0  0  0  0  0  0
  127.5162  124.3467   62.2147 H   0  0  0  0  0  0  0  0  0  0  0  0
  128.6309  122.7486   60.2675 H   0  0  0  0  0  0  0  0  0  0  0  0
  126.8847  122.5242   59.9113 H   0  0  0  0  0  0  0  0  0  0  0  0
  127.5966  124.1734   59.9113 H   0  0  0  0  0  0  0  0  0  0  0  0
  1  2  1  0
  2  3  1  0
  3  4  1  0
  4  5  2  0
  5  6  1  0
  6  7  2  0
  7  8  1  0
  8  9  1  0
  9 10  2  0
 10 11  1  0
 11 12  1  0
 12 13  1  0
 13 14  1  0
 14 15  1  0
 15 16  1  0
 16 17  2  0
 17 18  1  0
 18 19  2  0
 19 20  1  0
 20 21  1  0
 19 22  1  0
 22 23  2  0
 11 24  2  0
 24 25  1  0
 25 26  1  0
 26 27  1  0
 27 28  1  0
 26 29  1  0
 29 30  1  0
 30 31  1  0
 25 32  2  0
  7 33  1  0
 33 34  2  0
 34 35  1  0
 35 36  1  0
 36 37  1  0
 34  4  1  0
 32  9  1  0
 23 16  1  0
  1 38  1  0
  1 39  1  0
  1 40  1  0
  2 41  1  0
  2 42  1  0
  5 43  1  0
  6 44  1  0
  8 45  1  0
 12 46  1  0
 13 47  1  0
 13 48  1  0
 14 49  1  0
 14 50  1  0
 17 51  1  0
 18 52  1  0
 21 53  1  0
 21 54  1  0
 21 55  1  0
 22 56  1  0
 23 57  1  0
 27 58  1  0
 27 59  1  0
 28 60  1  0
 28 61  1  0
 28 62  1  0
 29 63  1  0
 29 64  1  0
 30 65  1  0
 30 66  1  0
 31 67  1  0
 33 68  1  0
 36 69  1  0
 36 70  1  0
 37 71  1  0
 37 72  1  0
 37 73  1  0
M  END
>  <Binding energies>  (1) 
[-7.07]

>  <Ligand effiencies>  (1) 
[-0.17675000000000002]

>  <Interactions>  (1) 
["V-B:PRO:540:CA:9855, V-A:ARG:545:CA:4919, V-A:ALA:541:C:4888, V-B:GLU:543:C:9874, H-A:GLU:543:OE2:4910, H-B:GLU:543:O:9875, H-A:ALA:541:N:4891, V-A:GLU:543:C:4902, V-B:GLU:543:CB:9878, H-B:LYS:547:NZ:9923, V-B:ALA:541:CB:9864, V-B:TYR:539:CE2:9848, V-A:TYR:484:CE2:4346, V-B:GLU:543:CG:9879, V-A:GLY:544:C:4912, V-A:ASN:362:CB:3176, V-B:TYR:484:CE2:9317, V-A:ALA:541:CB:4892, V-B:LYS:547:CE:9922, H-B:ALA:541:N:9863, V-A:GLU:543:CD:4908, V-A:TYR:484:CZ:4347, H-B:TYR:484:OH:9319, V-B:HIS:456:CE1:9041, V-A:ARG:545:CG:4922, V-A:HIS:456:CE1:4070, V-B:GLY:544:C:9884, V-A:ALA:541:CA:4890, V-B:TYR:539:CD2:9846, V-A:GLU:543:CG:4907, V-B:GLY:544:CA:9886, V-B:GLU:543:CD:9880, V-A:LEU:475:CD2:4259, H-A:GLU:543:OE1:4909, V-A:GLU:543:CB:4906, H-B:GLU:543:OE2:9882, H-A:HIS:456:NE2:4071, H-A:TYR:484:OH:4348"]

$$$$
ZINC1871631635
     RDKit          3D

 68 72  0  0  0  0  0  0  0  0999 V2000
  127.6930  123.1340   58.2000 C   0  0  0  0  0  0  0  0  0  0  0  0
  127.9810  122.9700   59.6820 C   0  0  0  0  0  0  0  0  0  0  0  0
  129.0080  122.1240   60.1020 C   0  0  0  0  0  0  0  0  0  0  0  0
  129.2630  121.9620   61.4620 C   0  0  0  0  0  0  0  0  0  0  0  0
  128.4880  122.6440   62.4030 C   0  0  0  0  0  0  0  0  0  0  0  0
  128.7610  122.4620   63.8910 C   0  0  0  0  0  0  0  0  0  0  0  0
  130.2470  122.2260   64.2180 C   0  0  0  0  0  0  0  0  0  0  0  0
  130.9380  123.4200   64.6960 N   0  0  0  0  0  0  0  0  0  0  0  0
  130.3110  124.6720   64.7420 C   0  0  0  0  0  0  0  0  0  0  0  0
  129.7630  125.1120   65.9080 N   0  0  0  0  0  0  0  0  0  0  0  0
  129.1820  126.3380   65.8600 C   0  0  0  0  0  0  0  0  0  0  0  0
  128.5890  126.8960   67.0040 N   0  0  0  0  0  0  0  0  0  0  0  0
  129.0630  127.2990   68.2660 C   0  0  0  0  0  0  0  0  0  0  0  0
  130.3870  127.7050   68.5260 C   0  0  0  0  0  0  0  0  0  0  0  0
  130.7820  128.0830   69.8140 C   0  0  0  0  0  0  0  0  0  0  0  0
  129.8400  128.0500   70.8390 C   0  0  0  0  0  0  0  0  0  0  0  0
  128.5510  127.6570   70.6000 C   0  0  0  0  0  0  0  0  0  0  0  0
  128.1400  127.2770   69.3230 C   0  0  0  0  0  0  0  0  0  0  0  0
  127.8080  127.7200   71.8840 C   0  0  0  0  0  0  0  0  0  0  0  0
  126.6280  127.4320   72.0860 O   0  0  0  0  0  0  0  0  0  0  0  0
  128.7160  128.1670   72.7900 N   0  0  0  0  0  0  0  0  0  0  0  0
  128.4100  128.3010   74.2170 C   0  0  0  0  0  0  0  0  0  0  0  0
  129.9590  128.3780   72.2830 C   0  0  0  0  0  0  0  0  0  0  0  0
  130.9620  128.7580   72.8890 O   0  0  0  0  0  0  0  0  0  0  0  0
  129.1290  127.1150   64.7490 N   0  0  0  0  0  0  0  0  0  0  0  0
  129.6920  126.5890   63.6240 C   0  0  0  0  0  0  0  0  0  0  0  0
  129.7050  127.3700   62.4660 N   0  0  0  0  0  0  0  0  0  0  0  0
  130.7920  127.2790   61.4650 C   0  0  0  0  0  0  0  0  0  0  0  0
  130.7660  128.2470   60.2380 C   0  0  1  0  0  0  0  0  0  0  0  0
  131.3760  127.6810   58.9500 C   0  0  0  0  0  0  0  0  0  0  0  0
  129.5500  128.9650   60.0050 O   0  0  0  0  0  0  0  0  0  0  0  0
  128.8100  129.2930   61.1720 C   0  0  2  0  0  0  0  0  0  0  0  0
  129.4730  130.3790   62.0450 C   0  0  0  0  0  0  0  0  0  0  0  0
  128.4950  127.9690   61.8860 C   0  0  0  0  0  0  0  0  0  0  0  0
  130.3030  125.3700   63.5810 N   0  0  0  0  0  0  0  0  0  0  0  0
  127.4590  123.4890   61.9820 C   0  0  0  0  0  0  0  0  0  0  0  0
  127.2040  123.6500   60.6220 C   0  0  0  0  0  0  0  0  0  0  0  0
  126.7440  123.6744   58.0685 H   0  0  0  0  0  0  0  0  0  0  0  0
  128.5076  123.7037   57.7290 H   0  0  0  0  0  0  0  0  0  0  0  0
  127.6188  122.1427   57.7290 H   0  0  0  0  0  0  0  0  0  0  0  0
  129.6157  121.5855   59.3600 H   0  0  0  0  0  0  0  0  0  0  0  0
  130.0741  121.2975   61.7946 H   0  0  0  0  0  0  0  0  0  0  0  0
  128.4276  123.3673   64.4195 H   0  0  0  0  0  0  0  0  0  0  0  0
  128.2121  121.5649   64.2135 H   0  0  0  0  0  0  0  0  0  0  0  0
  130.3129  121.4513   64.9962 H   0  0  0  0  0  0  0  0  0  0  0  0
  130.7386  121.9223   63.2820 H   0  0  0  0  0  0  0  0  0  0  0  0
  131.8710  123.3230   65.0720 H   0  0  0  0  0  0  0  0  0  0  0  0
  127.5930  127.0190   66.8970 H   0  0  0  0  0  0  0  0  0  0  0  0
  131.1196  127.7251   67.7057 H   0  0  0  0  0  0  0  0  0  0  0  0
  131.8164  128.4000   70.0130 H   0  0  0  0  0  0  0  0  0  0  0  0
  127.1010  126.9626   69.1455 H   0  0  0  0  0  0  0  0  0  0  0  0
  129.2584  127.9295   74.8104 H   0  0  0  0  0  0  0  0  0  0  0  0
  128.2312  129.3598   74.4558 H   0  0  0  0  0  0  0  0  0  0  0  0
  127.5107  127.7143   74.4558 H   0  0  0  0  0  0  0  0  0  0  0  0
  131.7380  127.4566   61.9974 H   0  0  0  0  0  0  0  0  0  0  0  0
  130.6627  126.2812   61.0205 H   0  0  0  0  0  0  0  0  0  0  0  0
  131.4615  129.0249   60.5860 H   0  0  0  0  0  0  0  0  0  0  0  0
  132.1604  126.9532   59.2048 H   0  0  0  0  0  0  0  0  0  0  0  0
  130.5917  127.1835   58.3606 H   0  0  0  0  0  0  0  0  0  0  0  0
  131.8135  128.5003   58.3606 H   0  0  0  0  0  0  0  0  0  0  0  0
  127.8632  129.7864   60.9071 H   0  0  0  0  0  0  0  0  0  0  0  0
  129.3248  130.1363   63.1076 H   0  0  0  0  0  0  0  0  0  0  0  0
  130.5500  130.4195   61.8249 H   0  0  0  0  0  0  0  0  0  0  0  0
  129.0168  131.3554   61.8249 H   0  0  0  0  0  0  0  0  0  0  0  0
  127.7697  128.1603   62.6906 H   0  0  0  0  0  0  0  0  0  0  0  0
  128.0824  127.2671   61.1463 H   0  0  0  0  0  0  0  0  0  0  0  0
  126.8503  124.0270   62.7237 H   0  0  0  0  0  0  0  0  0  0  0  0
  126.3913  124.3122   60.2889 H   0  0  0  0  0  0  0  0  0  0  0  0
  1  2  1  0
  2  3  2  0
  3  4  1  0
  4  5  2  0
  5  6  1  0
  6  7  1  0
  7  8  1  0
  8  9  1  0
  9 10  2  0
 10 11  1  0
 11 12  1  0
 12 13  1  0
 13 14  2  0
 14 15  1  0
 15 16  2  0
 16 17  1  0
 17 18  2  0
 17 19  1  0
 19 20  2  0
 19 21  1  0
 21 22  1  0
 21 23  1  0
 23 24  2  0
 11 25  2  0
 25 26  1  0
 26 27  1  0
 27 28  1  0
 28 29  1  0
 29 30  1  0
 29 31  1  0
 31 32  1  0
 32 33  1  0
 32 34  1  0
 26 35  2  0
  5 36  1  0
 36 37  2  0
 37  2  1  0
 35  9  1  0
 18 13  1  0
 34 27  1  0
 23 16  1  0
  1 38  1  0
  1 39  1  0
  1 40  1  0
  3 41  1  0
  4 42  1  0
  6 43  1  0
  6 44  1  0
  7 45  1  0
  7 46  1  0
  8 47  1  0
 12 48  1  0
 14 49  1  0
 15 50  1  0
 18 51  1  0
 22 52  1  0
 22 53  1  0
 22 54  1  0
 28 55  1  0
 28 56  1  0
 29 57  1  1
 30 58  1  0
 30 59  1  0
 30 60  1  0
 32 61  1  6
 33 62  1  0
 33 63  1  0
 33 64  1  0
 34 65  1  0
 34 66  1  0
 36 67  1  0
 37 68  1  0
M  END
>  <Binding energies>  (1) 
[-8.39]

>  <Ligand effiencies>  (1) 
[-0.21512820512820513]

>  <Interactions>  (1) 
["V-B:PRO:540:CA:9855, V-B:HIS:456:CD2:9039, V-A:GLU:543:C:4902, V-B:GLU:543:CB:9878, V-B:ALA:541:CB:9864, V-B:TYR:539:CE2:9848, V-A:TYR:484:CE2:4346, V-B:GLU:543:CG:9879, V-A:GLY:544:C:4912, V-B:TYR:539:C:9839, V-A:ASP:366:CG:3213, H-B:HIS:456:ND1:9038, V-A:TYR:484:CZ:4347, V-A:GLU:543:CD:4908, V-B:HIS:456:CE1:9041, V-B:PRO:540:N:9856, V-A:HIS:456:CE1:4070, V-B:TYR:539:CD2:9846, V-A:GLU:543:CG:4907, V-B:GLU:543:CD:9880, V-B:HIS:456:CG:9037, V-A:ASP:366:CB:3212, H-A:LYS:547:NZ:4951, V-A:LEU:475:CD2:4259, V-A:GLU:543:CB:4906, H-B:GLU:543:OE2:9882, V-B:ALA:541:CA:9862, H-A:TYR:484:OH:4348"]

$$$$
ZINC1871676153
     RDKit          3D

 68 72  0  0  0  0  0  0  0  0999 V2000
  130.2250  117.2080   60.9570 C   0  0  0  0  0  0  0  0  0  0  0  0
  129.7730  118.2730   61.6360 C   0  0  0  0  0  0  0  0  0  0  0  0
  130.2390  119.7010   61.4160 C   0  0  0  0  0  0  0  0  0  0  0  0
  129.1980  120.7160   61.2960 N   0  0  0  0  0  0  0  0  0  0  0  0
  129.4590  122.0890   61.4270 C   0  0  0  0  0  0  0  0  0  0  0  0
  129.6400  122.7630   60.2640 N   0  0  0  0  0  0  0  0  0  0  0  0
  129.8930  124.0910   60.3900 C   0  0  0  0  0  0  0  0  0  0  0  0
  130.1170  124.7800   59.1890 N   0  0  0  0  0  0  0  0  0  0  0  0
  130.3120  126.1450   58.9160 C   0  0  0  0  0  0  0  0  0  0  0  0
  129.6050  126.7050   57.8520 C   0  0  0  0  0  0  0  0  0  0  0  0
  129.7510  128.0550   57.5450 C   0  0  0  0  0  0  0  0  0  0  0  0
  130.5990  128.8730   58.3040 C   0  0  0  0  0  0  0  0  0  0  0  0
  130.7450  130.2360   57.9950 N   0  0  0  0  0  0  0  0  0  0  0  0
  129.7540  131.2910   58.2200 C   0  0  0  0  0  0  0  0  0  0  0  0
  130.2270  132.5400   57.4780 C   0  0  0  0  0  0  0  0  0  0  0  0
  131.7330  132.3810   57.4860 C   0  0  0  0  0  0  0  0  0  0  0  0
  131.9100  130.8700   57.3700 C   0  0  0  0  0  0  0  0  0  0  0  0
  131.2950  128.3060   59.3790 C   0  0  0  0  0  0  0  0  0  0  0  0
  131.1520  126.9550   59.6860 C   0  0  0  0  0  0  0  0  0  0  0  0
  129.9770  124.7490   61.5770 N   0  0  0  0  0  0  0  0  0  0  0  0
  129.7700  123.9960   62.6930 C   0  0  0  0  0  0  0  0  0  0  0  0
  129.8880  124.6160   63.9390 N   0  0  0  0  0  0  0  0  0  0  0  0
  129.9650  126.0750   64.1140 C   0  0  0  0  0  0  0  0  0  0  0  0
  129.4030  126.5870   65.4560 C   0  0  0  0  0  0  0  0  0  0  0  0
  129.9690  125.9350   66.6440 N   0  0  0  0  0  0  0  0  0  0  0  0
  129.8760  126.5480   67.8960 C   0  0  0  0  0  0  0  0  0  0  0  0
  130.9020  127.3640   68.3960 C   0  0  0  0  0  0  0  0  0  0  0  0
  130.7890  127.9730   69.6420 C   0  0  0  0  0  0  0  0  0  0  0  0
  129.6420  127.7900   70.4240 C   0  0  0  0  0  0  0  0  0  0  0  0
  129.5220  128.4390   71.7530 N   0  0  0  0  0  0  0  0  0  0  0  0
  128.4300  128.4270   72.3160 O   0  0  0  0  0  0  0  0  0  0  0  0
  130.5160  128.9640   72.2440 O   0  0  0  0  0  0  0  0  0  0  0  0
  128.6100  126.9870   69.9250 C   0  0  0  0  0  0  0  0  0  0  0  0
  128.7260  126.3780   68.6790 C   0  0  0  0  0  0  0  0  0  0  0  0
  129.8960  124.4760   66.4800 C   0  0  0  0  0  0  0  0  0  0  0  0
  130.4250  123.9410   65.1310 C   0  0  0  0  0  0  0  0  0  0  0  0
  129.5170  122.6570   62.6620 N   0  0  0  0  0  0  0  0  0  0  0  0
  129.8318  116.2054   61.1811 H   0  0  0  0  0  0  0  0  0  0  0  0
  130.9889  117.3373   60.1761 H   0  0  0  0  0  0  0  0  0  0  0  0
  129.0092  118.0990   62.4083 H   0  0  0  0  0  0  0  0  0  0  0  0
  130.8790  119.9781   62.2666 H   0  0  0  0  0  0  0  0  0  0  0  0
  130.7501  119.6928   60.4420 H   0  0  0  0  0  0  0  0  0  0  0  0
  128.2370  120.4140   61.2420 H   0  0  0  0  0  0  0  0  0  0  0  0
  130.0940  124.1890   58.3710 H   0  0  0  0  0  0  0  0  0  0  0  0
  128.9291  126.0772   57.2528 H   0  0  0  0  0  0  0  0  0  0  0  0
  129.1952  128.4840   56.6982 H   0  0  0  0  0  0  0  0  0  0  0  0
  128.7747  130.9736   57.8325 H   0  0  0  0  0  0  0  0  0  0  0  0
  129.6501  131.4984   59.2953 H   0  0  0  0  0  0  0  0  0  0  0  0
  129.8359  132.5628   56.4501 H   0  0  0  0  0  0  0  0  0  0  0  0
  129.8844  133.4780   57.9393 H   0  0  0  0  0  0  0  0  0  0  0  0
  132.1915  132.9010   56.6320 H   0  0  0  0  0  0  0  0  0  0  0  0
  132.2130  132.8101   58.3779 H   0  0  0  0  0  0  0  0  0  0  0  0
  131.9711  130.5801   56.3107 H   0  0  0  0  0  0  0  0  0  0  0  0
  132.8367  130.5509   57.8694 H   0  0  0  0  0  0  0  0  0  0  0  0
  131.9619  128.9345   59.9875 H   0  0  0  0  0  0  0  0  0  0  0  0
  131.7012  126.5243   60.5362 H   0  0  0  0  0  0  0  0  0  0  0  0
  131.0214  126.3741   64.0470 H   0  0  0  0  0  0  0  0  0  0  0  0
  129.3423  126.5190   63.3234 H   0  0  0  0  0  0  0  0  0  0  0  0
  129.6091  127.6653   65.5253 H   0  0  0  0  0  0  0  0  0  0  0  0
  128.3283  126.3527   65.4538 H   0  0  0  0  0  0  0  0  0  0  0  0
  131.8088  127.5246   67.7943 H   0  0  0  0  0  0  0  0  0  0  0  0
  131.6085  128.6042   70.0162 H   0  0  0  0  0  0  0  0  0  0  0  0
  127.6992  126.8359   70.5229 H   0  0  0  0  0  0  0  0  0  0  0  0
  127.9023  125.7535   68.3028 H   0  0  0  0  0  0  0  0  0  0  0  0
  130.4853  124.0127   67.2850 H   0  0  0  0  0  0  0  0  0  0  0  0
  128.8275  124.2169   66.5145 H   0  0  0  0  0  0  0  0  0  0  0  0
  131.5190  124.0559   65.1241 H   0  0  0  0  0  0  0  0  0  0  0  0
  130.0945  122.8939   65.0655 H   0  0  0  0  0  0  0  0  0  0  0  0
  1  2  2  0
  2  3  1  0
  3  4  1  0
  4  5  1  0
  5  6  2  0
  6  7  1  0
  7  8  1  0
  8  9  1  0
  9 10  2  0
 10 11  1  0
 11 12  2  0
 12 13  1  0
 13 14  1  0
 14 15  1  0
 15 16  1  0
 16 17  1  0
 12 18  1  0
 18 19  2  0
  7 20  2  0
 20 21  1  0
 21 22  1  0
 22 23  1  0
 23 24  1  0
 24 25  1  0
 25 26  1  0
 26 27  2  0
 27 28  1  0
 28 29  2  0
 29 30  1  0
 30 31  2  0
 30 32  1  0
 29 33  1  0
 33 34  2  0
 25 35  1  0
 35 36  1  0
 21 37  2  0
 37  5  1  0
 19  9  1  0
 36 22  1  0
 17 13  1  0
 34 26  1  0
  1 38  1  0
  1 39  1  0
  2 40  1  0
  3 41  1  0
  3 42  1  0
  4 43  1  0
  8 44  1  0
 10 45  1  0
 11 46  1  0
 14 47  1  0
 14 48  1  0
 15 49  1  0
 15 50  1  0
 16 51  1  0
 16 52  1  0
 17 53  1  0
 17 54  1  0
 18 55  1  0
 19 56  1  0
 23 57  1  0
 23 58  1  0
 24 59  1  0
 24 60  1  0
 27 61  1  0
 28 62  1  0
 33 63  1  0
 34 64  1  0
 35 65  1  0
 35 66  1  0
 36 67  1  0
 36 68  1  0
M  CHG  2  30   1  32  -1
M  END
>  <Binding energies>  (1) 
[-8.29]

>  <Ligand effiencies>  (1) 
[-0.21256410256410255]

>  <Interactions>  (1) 
["V-B:PRO:540:CA:9855, V-B:GLU:543:C:9874, V-B:HIS:456:CD2:9039, V-A:GLU:543:C:4902, V-B:GLU:543:CB:9878, V-B:ALA:541:CB:9864, V-B:TYR:539:CE2:9848, V-A:TYR:484:CE2:4346, V-A:LEU:475:CG:4257, V-B:GLU:543:CG:9879, V-A:GLY:544:C:4912, V-B:TYR:539:C:9839, V-A:ASP:366:CG:3213, V-A:LEU:363:CD1:3189, V-B:TYR:539:CZ:9849, V-A:TYR:531:CE2:4793, H-B:TYR:539:OH:9850, V-A:LEU:475:CD1:4258, V-A:HIS:383:CE1:3393, V-A:GLU:543:CD:4908, V-A:TYR:484:CZ:4347, V-B:GLU:543:CA:9876, V-A:ARG:545:CG:4922, V-B:HIS:456:CE1:9041, V-A:HIS:456:CE1:4070, V-A:PRO:482:CB:4326, V-B:TYR:539:CD2:9846, V-B:GLU:543:CD:9880, V-A:ASP:366:CB:3212, H-A:LYS:547:NZ:4951, V-A:LEU:475:CD2:4259, V-A:GLU:543:CB:4906, V-A:PRO:540:N:4884, V-A:PRO:482:CG:4327, V-A:PRO:540:CA:4883, V-A:PRO:540:CB:4885, H-B:TYR:539:O:9840, V-B:PRO:540:C:9853, V-A:PRO:540:CD:4887, V-A:HIS:383:NE2:3394, H-B:PRO:540:O:9854"]

$$$$
ZINC1871684693
     RDKit          3D

 69 71  0  0  0  0  0  0  0  0999 V2000
  132.8320  131.4470   62.1070 C   0  0  0  0  0  0  0  0  0  0  0  0
  131.6460  132.1910   61.8620 O   0  0  0  0  0  0  0  0  0  0  0  0
  130.8830  131.7630   60.7380 C   0  0  0  0  0  0  0  0  0  0  0  0
  131.7780  131.4240   59.5250 C   0  0  0  0  0  0  0  0  0  0  0  0
  131.1600  130.4870   58.5750 N   0  0  0  0  0  0  0  0  0  0  0  0
  130.7310  131.0070   57.2680 C   0  0  0  0  0  0  0  0  0  0  0  0
  131.3540  132.3580   56.8730 C   0  0  0  0  0  0  0  0  0  0  0  0
  130.4020  133.3980   57.0400 O   0  0  0  0  0  0  0  0  0  0  0  0
  129.1060  132.9290   57.3780 C   0  0  0  0  0  0  0  0  0  0  0  0
  131.0420  129.1040   58.8880 C   0  0  0  0  0  0  0  0  0  0  0  0
  130.7210  128.2350   57.8880 N   0  0  0  0  0  0  0  0  0  0  0  0
  130.5650  126.9310   58.2430 C   0  0  0  0  0  0  0  0  0  0  0  0
  130.1030  125.9950   57.3040 N   0  0  0  0  0  0  0  0  0  0  0  0
  128.7330  126.0290   56.7920 C   0  0  0  0  0  0  0  0  0  0  0  0
  128.0540  124.6410   56.7450 C   0  0  0  0  0  0  0  0  0  0  0  0
  127.6840  124.1160   58.1270 C   0  0  0  0  0  0  0  0  0  0  0  0
  126.6710  124.7260   58.8640 C   0  0  0  0  0  0  0  0  0  0  0  0
  126.4040  124.3100   60.1660 C   0  0  0  0  0  0  0  0  0  0  0  0
  127.1580  123.2830   60.7600 C   0  0  0  0  0  0  0  0  0  0  0  0
  126.9730  122.8540   62.0630 O   0  0  0  0  0  0  0  0  0  0  0  0
  128.0110  123.0470   63.0160 C   0  0  0  0  0  0  0  0  0  0  0  0
  128.1680  122.6530   60.0180 C   0  0  0  0  0  0  0  0  0  0  0  0
  128.8960  121.6620   60.6530 O   0  0  0  0  0  0  0  0  0  0  0  0
  130.2890  121.8530   60.8810 C   0  0  0  0  0  0  0  0  0  0  0  0
  128.4080  123.0650   58.6960 C   0  0  0  0  0  0  0  0  0  0  0  0
  130.7490  126.4550   59.4980 N   0  0  0  0  0  0  0  0  0  0  0  0
  131.0830  127.3830   60.4320 C   0  0  0  0  0  0  0  0  0  0  0  0
  131.2390  127.0080   61.7740 N   0  0  0  0  0  0  0  0  0  0  0  0
  131.7170  125.8300   62.3700 C   0  0  0  0  0  0  0  0  0  0  0  0
  131.1470  125.2720   63.5230 C   0  0  0  0  0  0  0  0  0  0  0  0
  131.6570  124.0920   64.0640 C   0  0  0  0  0  0  0  0  0  0  0  0
  132.7370  123.4530   63.4540 C   0  0  0  0  0  0  0  0  0  0  0  0
  133.2280  122.3090   63.9810 F   0  0  0  0  0  0  0  0  0  0  0  0
  133.3030  123.9940   62.3000 C   0  0  0  0  0  0  0  0  0  0  0  0
  134.3470  123.3770   61.7010 F   0  0  0  0  0  0  0  0  0  0  0  0
  132.7910  125.1750   61.7590 C   0  0  0  0  0  0  0  0  0  0  0  0
  131.2300  128.7070   60.1790 N   0  0  0  0  0  0  0  0  0  0  0  0
  132.9865  131.3501   63.1918 H   0  0  0  0  0  0  0  0  0  0  0  0
  132.7364  130.4467   61.6594 H   0  0  0  0  0  0  0  0  0  0  0  0
  133.6910  131.9684   61.6594 H   0  0  0  0  0  0  0  0  0  0  0  0
  130.3104  130.8666   61.0182 H   0  0  0  0  0  0  0  0  0  0  0  0
  130.2153  132.5874   60.4473 H   0  0  0  0  0  0  0  0  0  0  0  0
  132.0073  132.3581   58.9913 H   0  0  0  0  0  0  0  0  0  0  0  0
  132.6795  130.9323   59.9194 H   0  0  0  0  0  0  0  0  0  0  0  0
  131.0025  130.2677   56.5001 H   0  0  0  0  0  0  0  0  0  0  0  0
  129.6469  131.1771   57.3439 H   0  0  0  0  0  0  0  0  0  0  0  0
  132.2272  132.5573   57.5116 H   0  0  0  0  0  0  0  0  0  0  0  0
  131.6648  132.3183   55.8186 H   0  0  0  0  0  0  0  0  0  0  0  0
  129.0034  132.8919   58.4726 H   0  0  0  0  0  0  0  0  0  0  0  0
  128.3494  133.6103   56.9617 H   0  0  0  0  0  0  0  0  0  0  0  0
  128.9606  131.9212   56.9617 H   0  0  0  0  0  0  0  0  0  0  0  0
  130.6250  125.1360   57.2080 H   0  0  0  0  0  0  0  0  0  0  0  0
  128.1357  126.6863   57.4410 H   0  0  0  0  0  0  0  0  0  0  0  0
  128.7851  126.3973   55.7568 H   0  0  0  0  0  0  0  0  0  0  0  0
  127.1374  124.7187   56.1418 H   0  0  0  0  0  0  0  0  0  0  0  0
  128.7742  123.9354   56.3052 H   0  0  0  0  0  0  0  0  0  0  0  0
  126.0803  125.5387   58.4161 H   0  0  0  0  0  0  0  0  0  0  0  0
  125.5946  124.7901   60.7355 H   0  0  0  0  0  0  0  0  0  0  0  0
  127.5954  122.9697   64.0315 H   0  0  0  0  0  0  0  0  0  0  0  0
  128.7844  122.2773   62.8768 H   0  0  0  0  0  0  0  0  0  0  0  0
  128.4560  124.0433   62.8768 H   0  0  0  0  0  0  0  0  0  0  0  0
  130.4831  121.8796   61.9634 H   0  0  0  0  0  0  0  0  0  0  0  0
  130.8518  121.0236   60.4278 H   0  0  0  0  0  0  0  0  0  0  0  0
  130.6078  122.8033   60.4278 H   0  0  0  0  0  0  0  0  0  0  0  0
  129.1775  122.5523   58.1001 H   0  0  0  0  0  0  0  0  0  0  0  0
  130.9650  127.7260   62.4280 H   0  0  0  0  0  0  0  0  0  0  0  0
  130.2915  125.7684   64.0043 H   0  0  0  0  0  0  0  0  0  0  0  0
  131.2074  123.6647   64.9724 H   0  0  0  0  0  0  0  0  0  0  0  0
  133.2362  125.5938   60.8444 H   0  0  0  0  0  0  0  0  0  0  0  0
  1  2  1  0
  2  3  1  0
  3  4  1  0
  4  5  1  0
  5  6  1  0
  6  7  1  0
  7  8  1  0
  8  9  1  0
  5 10  1  0
 10 11  2  0
 11 12  1  0
 12 13  1  0
 13 14  1  0
 14 15  1  0
 15 16  1  0
 16 17  2  0
 17 18  1  0
 18 19  2  0
 19 20  1  0
 20 21  1  0
 19 22  1  0
 22 23  1  0
 23 24  1  0
 22 25  2  0
 12 26  2  0
 26 27  1  0
 27 28  1  0
 28 29  1  0
 29 30  2  0
 30 31  1  0
 31 32  2  0
 32 33  1  0
 32 34  1  0
 34 35  1  0
 34 36  2  0
 27 37  2  0
 37 10  1  0
 25 16  1  0
 36 29  1  0
  1 38  1  0
  1 39  1  0
  1 40  1  0
  3 41  1  0
  3 42  1  0
  4 43  1  0
  4 44  1  0
  6 45  1  0
  6 46  1  0
  7 47  1  0
  7 48  1  0
  9 49  1  0
  9 50  1  0
  9 51  1  0
 13 52  1  0
 14 53  1  0
 14 54  1  0
 15 55  1  0
 15 56  1  0
 17 57  1  0
 18 58  1  0
 21 59  1  0
 21 60  1  0
 21 61  1  0
 24 62  1  0
 24 63  1  0
 24 64  1  0
 25 65  1  0
 28 66  1  0
 30 67  1  0
 31 68  1  0
 36 69  1  0
M  END
>  <Binding energies>  (1) 
[-7.11]

>  <Ligand effiencies>  (1) 
[-0.1823076923076923]

>  <Interactions>  (1) 
["V-B:PRO:540:CA:9855, V-A:GLY:454:CA:4049, H-A:GLU:543:OE2:4910, H-A:ALA:541:N:4891, V-B:ALA:541:CB:9864, H-A:TYR:531:OH:4795, V-B:TYR:539:CE2:9848, V-B:GLU:543:CG:9879, V-B:TYR:539:C:9839, V-A:ASP:366:CG:3213, V-A:ASN:362:CB:3176, V-A:LEU:363:CD1:3189, V-A:TYR:539:CD1:4873, V-B:TYR:539:CZ:9849, H-B:TYR:539:OH:9850, H-B:ALA:541:N:9863, V-B:PRO:540:CB:9857, V-B:PRO:540:N:9856, V-A:ILE:369:CD1:3239, V-B:TYR:539:CD2:9846, V-B:GLU:543:CD:9880, V-A:TYR:539:C:4867, V-A:LEU:475:CD2:4259, H-A:GLU:543:OE1:4909, H-A:TYR:539:N:4870, V-A:PRO:540:CB:4885, V-A:PRO:540:CA:4883, H-A:ASP:366:OD2:3215, V-A:TYR:539:CE1:4875"]

$$$$
ZINC1871899199
     RDKit          3D

 74 75  0  0  0  0  0  0  0  0999 V2000
  133.8670  124.3450   59.3840 C   0  0  0  0  0  0  0  0  0  0  0  0
  134.0470  123.6550   60.7420 C   0  0  0  0  0  0  0  0  0  0  0  0
  134.0510  124.6550   61.9150 C   0  0  0  0  0  0  0  0  0  0  0  0
  132.8010  124.6800   62.6010 O   0  0  0  0  0  0  0  0  0  0  0  0
  132.6940  124.2870   63.8900 C   0  0  0  0  0  0  0  0  0  0  0  0
  133.5920  124.3390   64.7330 O   0  0  0  0  0  0  0  0  0  0  0  0
  131.2900  123.7510   64.1990 C   0  0  0  0  0  0  0  0  0  0  0  0
  130.1670  124.4910   63.5400 N   0  0  0  0  0  0  0  0  0  0  0  0
  129.3950  123.8790   62.4080 C   0  0  1  0  0  0  0  0  0  0  0  0
  129.4750  124.8600   61.2080 C   0  0  0  0  0  0  0  0  0  0  0  0
  128.6570  124.7610   60.2930 O   0  0  0  0  0  0  0  0  0  0  0  0
  130.4780  125.7630   61.2800 N   0  0  0  0  0  0  0  0  0  0  0  0
  130.8430  126.7690   60.3670 C   0  0  0  0  0  0  0  0  0  0  0  0
  131.4030  126.5410   59.1000 C   0  0  0  0  0  0  0  0  0  0  0  0
  131.7330  127.6160   58.2760 C   0  0  0  0  0  0  0  0  0  0  0  0
  131.5160  128.9310   58.6950 C   0  0  0  0  0  0  0  0  0  0  0  0
  131.8920  130.0760   57.7660 C   0  0  0  0  0  0  0  0  0  0  0  0
  130.9660  129.1690   59.9660 C   0  0  0  0  0  0  0  0  0  0  0  0
  130.7080  130.5840   60.4660 C   0  0  0  0  0  0  0  0  0  0  0  0
  130.6390  128.0860   60.7890 C   0  0  0  0  0  0  0  0  0  0  0  0
  129.8510  122.4220   62.0390 C   0  0  1  0  0  0  0  0  0  0  0  0
  128.7110  121.6540   61.3360 C   0  0  0  0  0  0  0  0  0  0  0  0
  131.1370  122.3490   61.1690 C   0  0  0  0  0  0  0  0  0  0  0  0
  131.6310  120.9200   60.8980 C   0  0  0  0  0  0  0  0  0  0  0  0
  129.8750  126.1960   63.9540 S   0  0  0  0  0  0  0  0  0  0  0  0
  131.0940  126.9640   63.6690 O   0  0  0  0  0  0  0  0  0  0  0  0
  128.5990  126.5840   63.3410 O   0  0  0  0  0  0  0  0  0  0  0  0
  129.6260  126.2210   65.7310 C   0  0  0  0  0  0  0  0  0  0  0  0
  128.9870  127.3070   66.3310 C   0  0  0  0  0  0  0  0  0  0  0  0
  128.7760  127.3130   67.7060 C   0  0  0  0  0  0  0  0  0  0  0  0
  129.2020  126.2400   68.4930 C   0  0  0  0  0  0  0  0  0  0  0  0
  128.9370  126.3540   69.8720 N   0  0  0  0  0  0  0  0  0  0  0  0
  129.2350  127.3520   70.7320 C   0  0  0  0  0  0  0  0  0  0  0  0
  128.7850  127.1320   72.1740 C   0  0  0  0  0  0  0  0  0  0  0  0
  129.8220  128.3950   70.4490 O   0  0  0  0  0  0  0  0  0  0  0  0
  129.8450  125.1500   67.8840 C   0  0  0  0  0  0  0  0  0  0  0  0
  130.0560  125.1450   66.5080 C   0  0  0  0  0  0  0  0  0  0  0  0
  133.5922  125.3984   59.5415 H   0  0  0  0  0  0  0  0  0  0  0  0
  134.8089  124.2924   58.8183 H   0  0  0  0  0  0  0  0  0  0  0  0
  133.0708  123.8390   58.8183 H   0  0  0  0  0  0  0  0  0  0  0  0
  133.2216  122.9428   60.8882 H   0  0  0  0  0  0  0  0  0  0  0  0
  135.0223  123.1464   60.7324 H   0  0  0  0  0  0  0  0  0  0  0  0
  134.8399  124.3661   62.6251 H   0  0  0  0  0  0  0  0  0  0  0  0
  134.2329  125.6591   61.5043 H   0  0  0  0  0  0  0  0  0  0  0  0
  131.2459  122.7022   63.8703 H   0  0  0  0  0  0  0  0  0  0  0  0
  131.1458  123.8777   65.2821 H   0  0  0  0  0  0  0  0  0  0  0  0
  128.3486  123.7418   62.7181 H   0  0  0  0  0  0  0  0  0  0  0  0
  131.0480  125.7310   62.1120 H   0  0  0  0  0  0  0  0  0  0  0  0
  131.5819  125.5114   58.7565 H   0  0  0  0  0  0  0  0  0  0  0  0
  132.1694  127.4266   57.2842 H   0  0  0  0  0  0  0  0  0  0  0  0
  132.1801  130.9535   58.3635 H   0  0  0  0  0  0  0  0  0  0  0  0
  132.7371  129.7709   57.1315 H   0  0  0  0  0  0  0  0  0  0  0  0
  131.0305  130.3313   57.1315 H   0  0  0  0  0  0  0  0  0  0  0  0
  130.7070  130.5897   61.5660 H   0  0  0  0  0  0  0  0  0  0  0  0
  131.4989  131.2533   60.0966 H   0  0  0  0  0  0  0  0  0  0  0  0
  129.7318  130.9311   60.0966 H   0  0  0  0  0  0  0  0  0  0  0  0
  130.2138  128.2741   61.7859 H   0  0  0  0  0  0  0  0  0  0  0  0
  130.0993  121.9495   63.0008 H   0  0  0  0  0  0  0  0  0  0  0  0
  128.0486  121.2078   62.0924 H   0  0  0  0  0  0  0  0  0  0  0  0
  128.1343  122.3484   60.7074 H   0  0  0  0  0  0  0  0  0  0  0  0
  129.1379  120.8586   60.7074 H   0  0  0  0  0  0  0  0  0  0  0  0
  130.9281  122.8313   60.2027 H   0  0  0  0  0  0  0  0  0  0  0  0
  131.9318  122.8573   61.7347 H   0  0  0  0  0  0  0  0  0  0  0  0
  131.8087  120.4060   61.8541 H   0  0  0  0  0  0  0  0  0  0  0  0
  130.8702  120.3719   60.3229 H   0  0  0  0  0  0  0  0  0  0  0  0
  132.5679  120.9588   60.3229 H   0  0  0  0  0  0  0  0  0  0  0  0
  128.6509  128.1563   65.7180 H   0  0  0  0  0  0  0  0  0  0  0  0
  128.2701  128.1687   68.1771 H   0  0  0  0  0  0  0  0  0  0  0  0
  128.4420  125.5670   70.2640 H   0  0  0  0  0  0  0  0  0  0  0  0
  129.5570  127.5094   72.8607 H   0  0  0  0  0  0  0  0  0  0  0  0
  127.8424  127.6709   72.3502 H   0  0  0  0  0  0  0  0  0  0  0  0
  128.6313  126.0571   72.3502 H   0  0  0  0  0  0  0  0  0  0  0  0
  130.1822  124.2995   68.4948 H   0  0  0  0  0  0  0  0  0  0  0  0
  130.5623  124.2918   66.0329 H   0  0  0  0  0  0  0  0  0  0  0  0
  1  2  1  0
  2  3  1  0
  3  4  1  0
  4  5  1  0
  5  6  2  0
  5  7  1  0
  7  8  1  0
  8  9  1  0
  9 10  1  0
 10 11  2  0
 10 12  1  0
 12 13  1  0
 13 14  2  0
 14 15  1  0
 15 16  2  0
 16 17  1  0
 16 18  1  0
 18 19  1  0
 18 20  2  0
  9 21  1  0
 21 22  1  0
 21 23  1  0
 23 24  1  0
  8 25  1  0
 25 26  2  0
 25 27  2  0
 25 28  1  0
 28 29  2  0
 29 30  1  0
 30 31  2  0
 31 32  1  0
 32 33  1  0
 33 34  1  0
 33 35  2  0
 31 36  1  0
 36 37  2  0
 20 13  1  0
 37 28  1  0
  1 38  1  0
  1 39  1  0
  1 40  1  0
  2 41  1  0
  2 42  1  0
  3 43  1  0
  3 44  1  0
  7 45  1  0
  7 46  1  0
  9 47  1  1
 12 48  1  0
 14 49  1  0
 15 50  1  0
 17 51  1  0
 17 52  1  0
 17 53  1  0
 19 54  1  0
 19 55  1  0
 19 56  1  0
 20 57  1  0
 21 58  1  1
 22 59  1  0
 22 60  1  0
 22 61  1  0
 23 62  1  0
 23 63  1  0
 24 64  1  0
 24 65  1  0
 24 66  1  0
 29 67  1  0
 30 68  1  0
 32 69  1  0
 34 70  1  0
 34 71  1  0
 34 72  1  0
 36 73  1  0
 37 74  1  0
M  END
>  <Binding energies>  (1) 
[-6.48]

>  <Ligand effiencies>  (1) 
[-0.16615384615384615]

>  <Interactions>  (1) 
["V-A:ILE:369:CG2:3237, V-A:ASP:366:CA:3210, V-B:PRO:540:CA:9855, V-B:GLU:543:C:9874, V-A:ILE:369:CB:3236, H-B:GLU:543:O:9875, V-B:GLU:543:CB:9878, V-B:ALA:541:CB:9864, V-B:TYR:539:CE2:9848, V-A:TYR:484:CE2:4346, V-B:GLU:543:CG:9879, V-A:ASP:366:CG:3213, V-A:TYR:531:CE2:4793, V-A:GLU:543:CD:4908, V-B:GLU:543:CA:9876, H-A:GLY:454:N:4050, V-A:ILE:369:CD1:3239, V-A:HIS:456:CE1:4070, V-B:TYR:539:CD2:9846, V-A:TYR:531:CZ:4794, V-B:GLU:543:CD:9880, V-A:ASP:366:CB:3212, V-A:LEU:475:CD2:4259, H-A:ARG:545:NH2:4928, V-B:PRO:540:C:9853, H-A:HIS:456:NE2:4071, H-A:TYR:484:OH:4348"]

$$$$
ZINC1872325270
     RDKit          3D

 75 76  0  0  0  0  0  0  0  0999 V2000
  130.2010  125.4650   66.4920 C   0  0  0  0  0  0  0  0  0  0  0  0
  129.7790  125.9160   65.0890 C   0  0  0  0  0  0  0  0  0  0  0  0
  130.9760  126.0440   64.1310 C   0  0  0  0  0  0  0  0  0  0  0  0
  130.8820  125.2150   62.8860 N   0  0  0  0  0  0  0  0  0  0  0  0
  130.9570  125.8090   61.4980 C   0  0  2  0  0  0  0  0  0  0  0  0
  132.3920  125.7430   60.8930 C   0  0  0  0  0  0  0  0  0  0  0  0
  132.5130  124.9850   59.5470 C   0  0  0  0  0  0  0  0  0  0  0  0
  133.9060  124.3530   59.3410 C   0  0  0  0  0  0  0  0  0  0  0  0
  132.1070  125.8940   58.3650 C   0  0  0  0  0  0  0  0  0  0  0  0
  130.2590  127.1990   61.4390 C   0  0  0  0  0  0  0  0  0  0  0  0
  129.1120  127.3010   61.8770 O   0  0  0  0  0  0  0  0  0  0  0  0
  130.9950  128.2290   60.9590 N   0  0  0  0  0  0  0  0  0  0  0  0
  130.6300  129.5740   60.7740 C   0  0  0  0  0  0  0  0  0  0  0  0
  129.8040  130.3030   61.6440 C   0  0  0  0  0  0  0  0  0  0  0  0
  129.4790  131.6370   61.3750 C   0  0  0  0  0  0  0  0  0  0  0  0
  128.5790  132.3990   62.3550 C   0  0  0  0  0  0  0  0  0  0  0  0
  128.3960  133.8950   62.0170 C   0  0  0  0  0  0  0  0  0  0  0  0
  129.0490  132.2040   63.8070 C   0  0  0  0  0  0  0  0  0  0  0  0
  129.9890  132.2400   60.2180 C   0  0  0  0  0  0  0  0  0  0  0  0
  130.8000  131.5260   59.3310 C   0  0  0  0  0  0  0  0  0  0  0  0
  131.3430  132.2030   58.0720 C   0  0  0  0  0  0  0  0  0  0  0  0
  130.2370  132.8990   57.2540 C   0  0  0  0  0  0  0  0  0  0  0  0
  132.1590  131.2240   57.2090 C   0  0  0  0  0  0  0  0  0  0  0  0
  131.1110  130.1910   59.6170 C   0  0  0  0  0  0  0  0  0  0  0  0
  130.4010  123.5070   63.0330 S   0  0  0  0  0  0  0  0  0  0  0  0
  130.3260  123.1300   64.4490 O   0  0  0  0  0  0  0  0  0  0  0  0
  129.2160  123.3350   62.1830 O   0  0  0  0  0  0  0  0  0  0  0  0
  131.7370  122.5370   62.2950 C   0  0  0  0  0  0  0  0  0  0  0  0
  131.3620  121.4990   61.4300 C   0  0  0  0  0  0  0  0  0  0  0  0
  132.3200  120.7380   60.7660 C   0  0  0  0  0  0  0  0  0  0  0  0
  133.6710  121.0020   60.9590 C   0  0  0  0  0  0  0  0  0  0  0  0
  134.0610  122.0150   61.8300 C   0  0  0  0  0  0  0  0  0  0  0  0
  133.1130  122.7850   62.5240 C   0  0  0  0  0  0  0  0  0  0  0  0
  133.6170  123.8110   63.4640 N   0  0  0  0  0  0  0  0  0  0  0  0
  133.2460  123.7810   64.6310 O   0  0  0  0  0  0  0  0  0  0  0  0
  134.4410  124.6190   63.0470 O   0  0  0  0  0  0  0  0  0  0  0  0
  129.6534  126.0502   67.2454 H   0  0  0  0  0  0  0  0  0  0  0  0
  129.9704  124.3969   66.6187 H   0  0  0  0  0  0  0  0  0  0  0  0
  131.2820  125.6242   66.6187 H   0  0  0  0  0  0  0  0  0  0  0  0
  129.0742  125.1784   64.6776 H   0  0  0  0  0  0  0  0  0  0  0  0
  129.3143  126.9088   65.1807 H   0  0  0  0  0  0  0  0  0  0  0  0
  131.0630  127.0992   63.8326 H   0  0  0  0  0  0  0  0  0  0  0  0
  131.8523  125.6725   64.6824 H   0  0  0  0  0  0  0  0  0  0  0  0
  130.3715  125.1748   60.8161 H   0  0  0  0  0  0  0  0  0  0  0  0
  132.7408  126.7741   60.7341 H   0  0  0  0  0  0  0  0  0  0  0  0
  132.9988  125.1766   61.6148 H   0  0  0  0  0  0  0  0  0  0  0  0
  131.8054  124.1436   59.5843 H   0  0  0  0  0  0  0  0  0  0  0  0
  134.3630  124.1457   60.3199 H   0  0  0  0  0  0  0  0  0  0  0  0
  133.8028  123.4136   58.7782 H   0  0  0  0  0  0  0  0  0  0  0  0
  134.5450  125.0494   58.7782 H   0  0  0  0  0  0  0  0  0  0  0  0
  131.6872  126.8339   58.7527 H   0  0  0  0  0  0  0  0  0  0  0  0
  132.9925  126.1138   57.7505 H   0  0  0  0  0  0  0  0  0  0  0  0
  131.3524  125.3813   57.7505 H   0  0  0  0  0  0  0  0  0  0  0  0
  131.9500  128.0170   60.7110 H   0  0  0  0  0  0  0  0  0  0  0  0
  129.4072  129.8193   62.5487 H   0  0  0  0  0  0  0  0  0  0  0  0
  127.5793  131.9536   62.2442 H   0  0  0  0  0  0  0  0  0  0  0  0
  128.3250  134.4754   62.9487 H   0  0  0  0  0  0  0  0  0  0  0  0
  129.2578  134.2466   61.4308 H   0  0  0  0  0  0  0  0  0  0  0  0
  127.4748  134.0284   61.4308 H   0  0  0  0  0  0  0  0  0  0  0  0
  128.2570  132.5326   64.4960 H   0  0  0  0  0  0  0  0  0  0  0  0
  129.2688  131.1404   63.9815 H   0  0  0  0  0  0  0  0  0  0  0  0
  129.9572  132.7996   63.9815 H   0  0  0  0  0  0  0  0  0  0  0  0
  129.7476  133.2916   60.0041 H   0  0  0  0  0  0  0  0  0  0  0  0
  132.0276  132.9948   58.4102 H   0  0  0  0  0  0  0  0  0  0  0  0
  129.5082  133.3576   57.9385 H   0  0  0  0  0  0  0  0  0  0  0  0
  130.6852  133.6781   56.6199 H   0  0  0  0  0  0  0  0  0  0  0  0
  129.7285  132.1578   56.6199 H   0  0  0  0  0  0  0  0  0  0  0  0
  132.7257  130.5441   57.8622 H   0  0  0  0  0  0  0  0  0  0  0  0
  131.4773  130.6391   56.5740 H   0  0  0  0  0  0  0  0  0  0  0  0
  132.8572  131.7892   56.5740 H   0  0  0  0  0  0  0  0  0  0  0  0
  131.7430  129.6202   58.9207 H   0  0  0  0  0  0  0  0  0  0  0  0
  130.2948  121.2828   61.2738 H   0  0  0  0  0  0  0  0  0  0  0  0
  132.0083  119.9287   60.0894 H   0  0  0  0  0  0  0  0  0  0  0  0
  134.4300  120.4117   60.4246 H   0  0  0  0  0  0  0  0  0  0  0  0
  135.1322  122.2166   61.9778 H   0  0  0  0  0  0  0  0  0  0  0  0
  1  2  1  0
  2  3  1  0
  3  4  1  0
  4  5  1  0
  5  6  1  0
  6  7  1  0
  7  8  1  0
  7  9  1  0
  5 10  1  0
 10 11  2  0
 10 12  1  0
 12 13  1  0
 13 14  2  0
 14 15  1  0
 15 16  1  0
 16 17  1  0
 16 18  1  0
 15 19  2  0
 19 20  1  0
 20 21  1  0
 21 22  1  0
 21 23  1  0
 20 24  2  0
  4 25  1  0
 25 26  2  0
 25 27  2  0
 25 28  1  0
 28 29  2  0
 29 30  1  0
 30 31  2  0
 31 32  1  0
 32 33  2  0
 33 34  1  0
 34 35  2  0
 34 36  1  0
 24 13  1  0
 33 28  1  0
  1 37  1  0
  1 38  1  0
  1 39  1  0
  2 40  1  0
  2 41  1  0
  3 42  1  0
  3 43  1  0
  5 44  1  6
  6 45  1  0
  6 46  1  0
  7 47  1  0
  8 48  1  0
  8 49  1  0
  8 50  1  0
  9 51  1  0
  9 52  1  0
  9 53  1  0
 12 54  1  0
 14 55  1  0
 16 56  1  0
 17 57  1  0
 17 58  1  0
 17 59  1  0
 18 60  1  0
 18 61  1  0
 18 62  1  0
 19 63  1  0
 21 64  1  0
 22 65  1  0
 22 66  1  0
 22 67  1  0
 23 68  1  0
 23 69  1  0
 23 70  1  0
 24 71  1  0
 29 72  1  0
 30 73  1  0
 31 74  1  0
 32 75  1  0
M  CHG  2  34   1  36  -1
M  END
>  <Binding energies>  (1) 
[-8.17]

>  <Ligand effiencies>  (1) 
[-0.2208108108108108]

>  <Interactions>  (1) 
["V-A:ILE:369:CG2:3237, V-A:ASP:366:CA:3210, V-A:GLY:454:CA:4049, V-A:ILE:369:CB:3236, V-B:GLU:543:CB:9878, V-A:PRO:540:C:4881, H-A:ARG:545:NH1:4927, V-B:TYR:539:CE2:9848, V-B:GLU:543:CG:9879, V-B:LEU:475:CD2:9230, V-A:ASP:366:CG:3213, V-A:LEU:363:CD1:3189, V-A:TYR:531:CE2:4793, V-A:ALA:541:CB:4892, V-A:GLU:543:CD:4908, H-A:GLY:454:N:4050, V-A:SER:385:C:3405, V-A:HIS:456:CE1:4070, V-A:ILE:369:CD1:3239, V-B:TYR:539:CD2:9846, V-A:GLU:543:CG:4907, V-A:SER:385:CB:3409, V-B:GLU:543:CD:9880, V-A:TYR:539:C:4867, V-A:ASP:366:CB:3212, V-A:LEU:475:CD2:4259, H-A:ARG:545:NH2:4928, H-A:GLU:543:OE1:4909, H-A:ASP:366:OD1:3214, V-A:PRO:540:N:4884, V-A:PRO:540:CB:4885, V-A:PRO:540:CA:4883, V-A:SER:385:CA:3407, H-A:ASP:366:OD2:3215, H-A:TYR:484:OH:4348"]

$$$$
ZINC1872337632
     RDKit          3D

 63 64  0  0  0  0  0  0  0  0999 V2000
  130.5490  127.6470   73.1220 C   0  0  0  0  0  0  0  0  0  0  0  0
  130.2180  128.4590   72.0000 O   0  0  0  0  0  0  0  0  0  0  0  0
  130.2150  127.9000   70.7350 C   0  0  0  0  0  0  0  0  0  0  0  0
  131.2830  128.0100   69.8270 C   0  0  0  0  0  0  0  0  0  0  0  0
  131.2100  127.4200   68.5650 C   0  0  0  0  0  0  0  0  0  0  0  0
  130.0660  126.7220   68.1770 C   0  0  0  0  0  0  0  0  0  0  0  0
  130.0700  126.1350   66.9020 N   0  0  0  0  0  0  0  0  0  0  0  0
  129.8430  124.8400   66.5890 C   0  0  0  0  0  0  0  0  0  0  0  0
  129.4840  123.9820   67.3990 O   0  0  0  0  0  0  0  0  0  0  0  0
  129.9910  124.4680   65.0980 C   0  0  2  0  0  0  0  0  0  0  0  0
  130.7040  123.1100   64.9950 C   0  0  0  0  0  0  0  0  0  0  0  0
  130.6500  125.6160   64.3710 N   0  0  0  0  0  0  0  0  0  0  0  0
  132.1190  125.8360   64.5090 C   0  0  0  0  0  0  0  0  0  0  0  0
  132.9610  124.9030   63.6280 C   0  0  0  0  0  0  0  0  0  0  0  0
  134.1720  124.7460   63.7980 O   0  0  0  0  0  0  0  0  0  0  0  0
  132.2170  124.3290   62.6570 O   0  0  0  0  0  0  0  0  0  0  0  0
  132.7800  123.9850   61.3920 C   0  0  0  0  0  0  0  0  0  0  0  0
  132.4940  122.5230   60.9710 C   0  0  0  0  0  0  0  0  0  0  0  0
  131.1420  122.0490   61.5300 C   0  0  0  0  0  0  0  0  0  0  0  0
  133.6290  121.5630   61.3740 C   0  0  0  0  0  0  0  0  0  0  0  0
  129.9160  126.2820   62.8860 S   0  0  0  0  0  0  0  0  0  0  0  0
  130.9770  126.9940   62.1640 O   0  0  0  0  0  0  0  0  0  0  0  0
  129.1430  125.2420   62.1990 O   0  0  0  0  0  0  0  0  0  0  0  0
  128.7270  127.5040   63.4590 C   0  0  0  0  0  0  0  0  0  0  0  0
  128.7420  127.8920   64.8030 C   0  0  0  0  0  0  0  0  0  0  0  0
  127.8320  128.8340   65.2760 C   0  0  0  0  0  0  0  0  0  0  0  0
  127.8530  129.3000   66.9370 Cl  0  0  0  0  0  0  0  0  0  0  0  0
  126.9040  129.3990   64.4050 C   0  0  0  0  0  0  0  0  0  0  0  0
  126.8880  129.0230   63.0640 C   0  0  0  0  0  0  0  0  0  0  0  0
  127.8000  128.0730   62.5690 C   0  0  0  0  0  0  0  0  0  0  0  0
  127.8270  127.6590   61.2500 O   0  0  0  0  0  0  0  0  0  0  0  0
  126.8620  126.7160   60.7930 C   0  0  0  0  0  0  0  0  0  0  0  0
  129.0030  126.5930   69.0830 C   0  0  0  0  0  0  0  0  0  0  0  0
  129.0770  127.1810   70.3470 C   0  0  0  0  0  0  0  0  0  0  0  0
  127.7390  126.9970   71.4280 Cl  0  0  0  0  0  0  0  0  0  0  0  0
  130.3258  128.1946   74.0495 H   0  0  0  0  0  0  0  0  0  0  0  0
  129.9568  126.7205   73.0916 H   0  0  0  0  0  0  0  0  0  0  0  0
  131.6202  127.3986   73.0916 H   0  0  0  0  0  0  0  0  0  0  0  0
  132.1864  128.5676   70.1151 H   0  0  0  0  0  0  0  0  0  0  0  0
  132.0596  127.5056   67.8716 H   0  0  0  0  0  0  0  0  0  0  0  0
  130.2030  126.7760   66.1340 H   0  0  0  0  0  0  0  0  0  0  0  0
  129.0228  124.3263   64.5955 H   0  0  0  0  0  0  0  0  0  0  0  0
  130.9064  122.7246   66.0052 H   0  0  0  0  0  0  0  0  0  0  0  0
  130.0627  122.3993   64.4531 H   0  0  0  0  0  0  0  0  0  0  0  0
  131.6531  123.2344   64.4531 H   0  0  0  0  0  0  0  0  0  0  0  0
  132.3435  126.8759   64.2295 H   0  0  0  0  0  0  0  0  0  0  0  0
  132.3826  125.6201   65.5549 H   0  0  0  0  0  0  0  0  0  0  0  0
  132.3599  124.6565   60.6288 H   0  0  0  0  0  0  0  0  0  0  0  0
  133.8712  124.0904   61.4819 H   0  0  0  0  0  0  0  0  0  0  0  0
  132.4419  122.5072   59.8723 H   0  0  0  0  0  0  0  0  0  0  0  0
  131.1754  122.0607   62.6294 H   0  0  0  0  0  0  0  0  0  0  0  0
  130.3446  122.7212   61.1802 H   0  0  0  0  0  0  0  0  0  0  0  0
  130.9389  121.0261   61.1802 H   0  0  0  0  0  0  0  0  0  0  0  0
  133.6920  121.5097   62.4709 H   0  0  0  0  0  0  0  0  0  0  0  0
  133.4228  120.5611   60.9695 H   0  0  0  0  0  0  0  0  0  0  0  0
  134.5828  121.9326   60.9695 H   0  0  0  0  0  0  0  0  0  0  0  0
  129.4777  127.4499   65.4909 H   0  0  0  0  0  0  0  0  0  0  0  0
  126.1833  130.1425   64.7762 H   0  0  0  0  0  0  0  0  0  0  0  0
  126.1522  129.4750   62.3826 H   0  0  0  0  0  0  0  0  0  0  0  0
  126.3757  126.2408   61.6576 H   0  0  0  0  0  0  0  0  0  0  0  0
  126.1049  127.2319   60.1842 H   0  0  0  0  0  0  0  0  0  0  0  0
  127.3603  125.9472   60.1842 H   0  0  0  0  0  0  0  0  0  0  0  0
  128.1057  126.0252   68.7958 H   0  0  0  0  0  0  0  0  0  0  0  0
  1  2  1  0
  2  3  1  0
  3  4  2  0
  4  5  1  0
  5  6  2  0
  6  7  1  0
  7  8  1  0
  8  9  2  0
  8 10  1  0
 10 11  1  0
 10 12  1  0
 12 13  1  0
 13 14  1  0
 14 15  2  0
 14 16  1  0
 16 17  1  0
 17 18  1  0
 18 19  1  0
 18 20  1  0
 12 21  1  0
 21 22  2  0
 21 23  2  0
 21 24  1  0
 24 25  2  0
 25 26  1  0
 26 27  1  0
 26 28  2  0
 28 29  1  0
 29 30  2  0
 30 31  1  0
 31 32  1  0
  6 33  1  0
 33 34  2  0
 34 35  1  0
 34  3  1  0
 30 24  1  0
  1 36  1  0
  1 37  1  0
  1 38  1  0
  4 39  1  0
  5 40  1  0
  7 41  1  0
 10 42  1  6
 11 43  1  0
 11 44  1  0
 11 45  1  0
 13 46  1  0
 13 47  1  0
 17 48  1  0
 17 49  1  0
 18 50  1  0
 19 51  1  0
 19 52  1  0
 19 53  1  0
 20 54  1  0
 20 55  1  0
 20 56  1  0
 25 57  1  0
 28 58  1  0
 29 59  1  0
 32 60  1  0
 32 61  1  0
 32 62  1  0
 33 63  1  0
M  END
>  <Binding energies>  (1) 
[-6.96]

>  <Ligand effiencies>  (1) 
[-0.19333333333333333]

>  <Interactions>  (1) 
["V-A:ILE:369:CG2:3237, V-A:ARG:545:CA:4919, V-B:GLU:543:C:9874, H-A:GLU:543:OE2:4910, V-A:GLU:543:C:4902, V-B:HIS:456:CD2:9039, V-B:GLU:543:CB:9878, H-A:ARG:545:NH1:4927, V-A:TYR:484:CE2:4346, V-B:TYR:539:CE2:9848, V-A:GLY:544:C:4912, V-B:GLU:543:CG:9879, V-A:TYR:484:CZ:4347, V-A:GLU:543:CD:4908, V-A:ARG:545:CG:4922, V-B:GLU:543:CA:9876, H-A:GLY:454:N:4050, V-B:HIS:456:CE1:9041, V-A:HIS:456:CE1:4070, V-A:ILE:369:CD1:3239, V-B:TYR:484:CZ:9318, V-B:GLY:544:C:9884, V-A:GLU:543:CG:4907, V-B:GLU:543:CD:9880, V-A:LEU:475:CD2:4259, H-A:ARG:545:NH2:4928, V-A:ARG:545:CZ:4926, H-A:GLU:543:OE1:4909, V-A:GLU:543:CB:4906, H-A:ARG:545:NE:4924, H-A:TYR:484:OH:4348"]

$$$$
ZINC1872397772
     RDKit          3D

 68 70  0  0  0  0  0  0  0  0999 V2000
  131.5180  126.0240   59.0040 C   0  0  0  0  0  0  0  0  0  0  0  0
  130.7710  127.3430   59.2430 C   0  0  0  0  0  0  0  0  0  0  0  0
  129.2600  127.2890   58.8820 C   0  0  2  0  0  0  0  0  0  0  0  0
  128.7950  128.6950   58.4410 C   0  0  0  0  0  0  0  0  0  0  0  0
  128.3280  126.7320   60.0190 C   0  0  2  0  0  0  0  0  0  0  0  0
  128.9520  126.8330   61.4380 C   0  0  0  0  0  0  0  0  0  0  0  0
  128.9170  127.9080   62.0400 O   0  0  0  0  0  0  0  0  0  0  0  0
  129.5130  125.6900   61.8880 N   0  0  0  0  0  0  0  0  0  0  0  0
  130.1970  125.4330   63.0880 C   0  0  0  0  0  0  0  0  0  0  0  0
  131.5680  125.1950   62.9690 C   0  0  0  0  0  0  0  0  0  0  0  0
  132.3600  124.9350   64.0870 C   0  0  0  0  0  0  0  0  0  0  0  0
  133.7030  124.7060   63.8600 O   0  0  0  0  0  0  0  0  0  0  0  0
  134.1750  124.6180   62.5190 C   0  0  0  0  0  0  0  0  0  0  0  0
  131.7550  124.9220   65.3530 C   0  0  0  0  0  0  0  0  0  0  0  0
  130.3890  125.1660   65.5070 C   0  0  0  0  0  0  0  0  0  0  0  0
  129.8970  125.1370   66.7980 O   0  0  0  0  0  0  0  0  0  0  0  0
  129.4840  126.3510   67.4140 C   0  0  0  0  0  0  0  0  0  0  0  0
  129.6130  125.4240   64.3650 C   0  0  0  0  0  0  0  0  0  0  0  0
  127.8620  125.3100   59.8120 N   0  0  0  0  0  0  0  0  0  0  0  0
  126.7630  124.7760   60.6410 C   0  0  0  0  0  0  0  0  0  0  0  0
  127.1190  123.4130   61.2510 C   0  0  0  0  0  0  0  0  0  0  0  0
  126.3570  122.8570   62.0440 O   0  0  0  0  0  0  0  0  0  0  0  0
  128.2880  122.8720   60.8650 N   0  0  0  0  0  0  0  0  0  0  0  0
  128.7780  121.5650   61.2960 C   0  0  0  0  0  0  0  0  0  0  0  0
  130.2530  121.3860   60.9990 C   0  0  0  0  0  0  0  0  0  0  0  0
  131.0930  120.2830   60.9180 C   0  0  0  0  0  0  0  0  0  0  0  0
  132.3670  120.7580   60.6100 C   0  0  0  0  0  0  0  0  0  0  0  0
  132.2530  122.1350   60.5190 C   0  0  0  0  0  0  0  0  0  0  0  0
  130.9710  122.5150   60.7520 O   0  0  0  0  0  0  0  0  0  0  0  0
  128.1070  124.5940   58.2030 S   0  0  0  0  0  0  0  0  0  0  0  0
  127.7820  125.6290   57.2150 O   0  0  0  0  0  0  0  0  0  0  0  0
  129.4290  123.9580   58.1770 O   0  0  0  0  0  0  0  0  0  0  0  0
  126.7830  123.2410   58.1060 C   0  0  0  0  0  0  0  0  0  0  0  0
  125.6220  123.4870   57.1740 C   0  0  0  0  0  0  0  0  0  0  0  0
  126.6880  122.4730   56.8110 C   0  0  0  0  0  0  0  0  0  0  0  0
  131.7761  125.5683   59.9713 H   0  0  0  0  0  0  0  0  0  0  0  0
  130.8752  125.3365   58.4347 H   0  0  0  0  0  0  0  0  0  0  0  0
  132.4382  126.2217   58.4347 H   0  0  0  0  0  0  0  0  0  0  0  0
  130.8631  127.6045   60.3075 H   0  0  0  0  0  0  0  0  0  0  0  0
  131.2295  128.0925   58.5811 H   0  0  0  0  0  0  0  0  0  0  0  0
  129.1639  126.5646   58.0598 H   0  0  0  0  0  0  0  0  0  0  0  0
  128.5917  129.3097   59.3303 H   0  0  0  0  0  0  0  0  0  0  0  0
  129.5838  129.1701   57.8394 H   0  0  0  0  0  0  0  0  0  0  0  0
  127.8784  128.6061   57.8394 H   0  0  0  0  0  0  0  0  0  0  0  0
  127.4543  127.3968   59.9512 H   0  0  0  0  0  0  0  0  0  0  0  0
  129.4310  124.8870   61.2800 H   0  0  0  0  0  0  0  0  0  0  0  0
  132.0330  125.2130   61.9723 H   0  0  0  0  0  0  0  0  0  0  0  0
  135.2564  124.4164   62.5234 H   0  0  0  0  0  0  0  0  0  0  0  0
  133.6520  123.8019   61.9990 H   0  0  0  0  0  0  0  0  0  0  0  0
  133.9812  125.5678   61.9990 H   0  0  0  0  0  0  0  0  0  0  0  0
  132.3692  124.7154   66.2418 H   0  0  0  0  0  0  0  0  0  0  0  0
  129.5222  126.2388   68.5076 H   0  0  0  0  0  0  0  0  0  0  0  0
  130.1555  127.1657   67.1054 H   0  0  0  0  0  0  0  0  0  0  0  0
  128.4549  126.5872   67.1054 H   0  0  0  0  0  0  0  0  0  0  0  0
  128.5361  125.6211   64.4721 H   0  0  0  0  0  0  0  0  0  0  0  0
  126.5532  125.4862   61.4544 H   0  0  0  0  0  0  0  0  0  0  0  0
  125.8822  124.6421   59.9958 H   0  0  0  0  0  0  0  0  0  0  0  0
  128.8800  123.3900   60.2320 H   0  0  0  0  0  0  0  0  0  0  0  0
  128.6194  121.4660   62.3800 H   0  0  0  0  0  0  0  0  0  0  0  0
  128.2235  120.7941   60.7408 H   0  0  0  0  0  0  0  0  0  0  0  0
  130.8067  119.2316   61.0686 H   0  0  0  0  0  0  0  0  0  0  0  0
  133.2790  120.1595   60.4679 H   0  0  0  0  0  0  0  0  0  0  0  0
  133.0816  122.8216   60.2909 H   0  0  0  0  0  0  0  0  0  0  0  0
  126.8827  122.9672   59.1667 H   0  0  0  0  0  0  0  0  0  0  0  0
  124.6125  123.1491   57.4511 H   0  0  0  0  0  0  0  0  0  0  0  0
  125.1905  124.3725   56.6843 H   0  0  0  0  0  0  0  0  0  0  0  0
  126.4528  121.3985   56.8243 H   0  0  0  0  0  0  0  0  0  0  0  0
  127.3520  122.3164   55.9481 H   0  0  0  0  0  0  0  0  0  0  0  0
  1  2  1  0
  2  3  1  0
  3  4  1  0
  3  5  1  0
  5  6  1  0
  6  7  2  0
  6  8  1  0
  8  9  1  0
  9 10  2  0
 10 11  1  0
 11 12  1  0
 12 13  1  0
 11 14  2  0
 14 15  1  0
 15 16  1  0
 16 17  1  0
 15 18  2  0
  5 19  1  0
 19 20  1  0
 20 21  1  0
 21 22  2  0
 21 23  1  0
 23 24  1  0
 24 25  1  0
 25 26  2  0
 26 27  1  0
 27 28  2  0
 28 29  1  0
 19 30  1  0
 30 31  2  0
 30 32  2  0
 30 33  1  0
 33 34  1  0
 34 35  1  0
 18  9  1  0
 29 25  1  0
 35 33  1  0
  1 36  1  0
  1 37  1  0
  1 38  1  0
  2 39  1  0
  2 40  1  0
  3 41  1  6
  4 42  1  0
  4 43  1  0
  4 44  1  0
  5 45  1  1
  8 46  1  0
 10 47  1  0
 13 48  1  0
 13 49  1  0
 13 50  1  0
 14 51  1  0
 17 52  1  0
 17 53  1  0
 17 54  1  0
 18 55  1  0
 20 56  1  0
 20 57  1  0
 23 58  1  0
 24 59  1  0
 24 60  1  0
 26 61  1  0
 27 62  1  0
 28 63  1  0
 33 64  1  0
 34 65  1  0
 34 66  1  0
 35 67  1  0
 35 68  1  0
M  END
>  <Binding energies>  (1) 
[-5.73]

>  <Ligand effiencies>  (1) 
[-0.15486486486486487]

>  <Interactions>  (1) 
["V-A:ILE:369:CG2:3237, V-B:PRO:540:CA:9855, V-B:GLU:543:CB:9878, V-B:ALA:541:CB:9864, V-B:TYR:539:CE2:9848, V-B:GLU:543:CG:9879, V-B:TYR:539:C:9839, V-A:ASP:366:CG:3213, H-B:TYR:539:OH:9850, H-B:ALA:541:N:9863, V-A:TYR:484:CZ:4347, V-B:PRO:540:CB:9857, H-A:GLY:454:N:4050, V-B:PRO:540:N:9856, V-A:ILE:369:CD1:3239, V-A:HIS:456:CE1:4070, V-B:TYR:539:CD2:9846, V-B:PRO:540:CD:9859, V-B:GLU:543:CD:9880, V-A:ASP:366:CB:3212, V-A:LEU:475:CD2:4259, H-A:ARG:545:NH2:4928, V-A:ARG:545:CZ:4926, V-B:LEU:363:CD1:8160, V-A:GLY:453:CA:4044, V-B:PRO:540:C:9853, V-B:MET:535:CE:9807, H-A:TYR:484:OH:4348"]

$$$$
ZINC1873165641
     RDKit          3D

 71 73  0  0  0  0  0  0  0  0999 V2000
  128.3380  127.8350   73.0260 C   0  0  0  0  0  0  0  0  0  0  0  0
  129.1330  129.1420   73.0840 C   0  0  0  0  0  0  0  0  0  0  0  0
  130.4450  128.9000   72.5970 O   0  0  0  0  0  0  0  0  0  0  0  0
  130.5520  127.7300   71.7980 C   0  0  0  0  0  0  0  0  0  0  0  0
  130.5290  128.1230   70.3130 C   0  0  0  0  0  0  0  0  0  0  0  0
  129.1010  128.3080   69.7630 C   0  0  0  0  0  0  0  0  0  0  0  0
  128.9810  127.9850   68.3340 N   0  0  0  0  0  0  0  0  0  0  0  0
  128.4150  128.8100   67.4330 C   0  0  0  0  0  0  0  0  0  0  0  0
  127.9230  129.9170   67.6630 O   0  0  0  0  0  0  0  0  0  0  0  0
  128.5160  128.1200   66.1720 C   0  0  0  0  0  0  0  0  0  0  0  0
  128.0270  128.6320   64.9850 N   0  0  0  0  0  0  0  0  0  0  0  0
  127.9050  130.0410   64.6400 C   0  0  0  0  0  0  0  0  0  0  0  0
  128.7370  130.4200   63.4070 C   0  0  0  0  0  0  0  0  0  0  0  0
  128.8890  131.9380   63.2380 C   0  0  0  0  0  0  0  0  0  0  0  0
  130.2580  132.2340   62.9890 O   0  0  0  0  0  0  0  0  0  0  0  0
  130.9020  131.4150   62.0140 C   0  0  0  0  0  0  0  0  0  0  0  0
  132.4120  131.4920   62.2840 C   0  0  0  0  0  0  0  0  0  0  0  0
  130.5570  131.8600   60.5800 C   0  0  0  0  0  0  0  0  0  0  0  0
  129.1220  126.9410   66.3970 C   0  0  0  0  0  0  0  0  0  0  0  0
  129.4800  125.9010   65.3880 C   0  0  0  0  0  0  0  0  0  0  0  0
  129.8530  124.6120   65.7930 C   0  0  0  0  0  0  0  0  0  0  0  0
  130.2040  123.6420   64.8590 C   0  0  0  0  0  0  0  0  0  0  0  0
  130.1910  123.9560   63.4990 C   0  0  0  0  0  0  0  0  0  0  0  0
  130.5440  122.9750   62.5490 N   0  0  0  0  0  0  0  0  0  0  0  0
  131.8360  122.5560   62.2610 C   0  0  0  0  0  0  0  0  0  0  0  0
  133.0570  123.1120   62.9680 C   0  0  0  0  0  0  0  0  0  0  0  0
  131.7480  121.5840   61.2770 C   0  0  0  0  0  0  0  0  0  0  0  0
  130.4060  121.4080   60.9600 C   0  0  0  0  0  0  0  0  0  0  0  0
  129.6580  122.2690   61.7460 C   0  0  0  0  0  0  0  0  0  0  0  0
  128.1580  122.4880   61.7860 C   0  0  0  0  0  0  0  0  0  0  0  0
  129.8310  125.2350   63.0760 C   0  0  0  0  0  0  0  0  0  0  0  0
  129.4790  126.1990   64.0170 C   0  0  0  0  0  0  0  0  0  0  0  0
  129.4560  126.8480   67.7930 C   0  0  0  0  0  0  0  0  0  0  0  0
  130.0420  125.9390   68.3840 O   0  0  0  0  0  0  0  0  0  0  0  0
  128.1272  127.4884   74.0485 H   0  0  0  0  0  0  0  0  0  0  0  0
  127.3905  128.0055   72.4939 H   0  0  0  0  0  0  0  0  0  0  0  0
  128.9251  127.0720   72.4939 H   0  0  0  0  0  0  0  0  0  0  0  0
  128.6410  129.9023   72.4596 H   0  0  0  0  0  0  0  0  0  0  0  0
  129.1798  129.5060   74.1210 H   0  0  0  0  0  0  0  0  0  0  0  0
  131.4964  127.2144   72.0267 H   0  0  0  0  0  0  0  0  0  0  0  0
  129.7076  127.0589   72.0138 H   0  0  0  0  0  0  0  0  0  0  0  0
  131.0770  129.0691   70.1919 H   0  0  0  0  0  0  0  0  0  0  0  0
  130.9967  127.3035   69.7476 H   0  0  0  0  0  0  0  0  0  0  0  0
  128.4220  127.6519   70.3273 H   0  0  0  0  0  0  0  0  0  0  0  0
  128.8427  129.3709   69.8792 H   0  0  0  0  0  0  0  0  0  0  0  0
  127.3260  128.0800   64.5110 H   0  0  0  0  0  0  0  0  0  0  0  0
  126.8476  130.2631   64.4336 H   0  0  0  0  0  0  0  0  0  0  0  0
  128.2835  130.6267   65.4907 H   0  0  0  0  0  0  0  0  0  0  0  0
  129.7380  129.9753   63.5078 H   0  0  0  0  0  0  0  0  0  0  0  0
  128.2094  130.0384   62.5204 H   0  0  0  0  0  0  0  0  0  0  0  0
  128.2763  132.2794   62.3906 H   0  0  0  0  0  0  0  0  0  0  0  0
  128.5542  132.4523   64.1509 H   0  0  0  0  0  0  0  0  0  0  0  0
  130.5514  130.3756   62.0957 H   0  0  0  0  0  0  0  0  0  0  0  0
  132.5904  131.5011   63.3694 H   0  0  0  0  0  0  0  0  0  0  0  0
  132.9093  130.6180   61.8380 H   0  0  0  0  0  0  0  0  0  0  0  0
  132.8178  132.4120   61.8380 H   0  0  0  0  0  0  0  0  0  0  0  0
  129.8834  132.7288   60.6178 H   0  0  0  0  0  0  0  0  0  0  0  0
  131.4804  132.1348   60.0492 H   0  0  0  0  0  0  0  0  0  0  0  0
  130.0608  131.0342   60.0492 H   0  0  0  0  0  0  0  0  0  0  0  0
  129.8685  124.3636   66.8645 H   0  0  0  0  0  0  0  0  0  0  0  0
  130.4902  122.6330   65.1907 H   0  0  0  0  0  0  0  0  0  0  0  0
  132.9122  123.0461   64.0564 H   0  0  0  0  0  0  0  0  0  0  0  0
  133.9444  122.5292   62.6802 H   0  0  0  0  0  0  0  0  0  0  0  0
  133.2000  124.1640   62.6802 H   0  0  0  0  0  0  0  0  0  0  0  0
  132.5937  121.0451   60.8250 H   0  0  0  0  0  0  0  0  0  0  0  0
  130.0068  120.7058   60.2134 H   0  0  0  0  0  0  0  0  0  0  0  0
  127.8224  122.5370   62.8324 H   0  0  0  0  0  0  0  0  0  0  0  0
  127.9115  123.4317   61.2773 H   0  0  0  0  0  0  0  0  0  0  0  0
  127.6520  121.6542   61.2773 H   0  0  0  0  0  0  0  0  0  0  0  0
  129.8251  125.4812   62.0039 H   0  0  0  0  0  0  0  0  0  0  0  0
  129.1964  127.2076   63.6811 H   0  0  0  0  0  0  0  0  0  0  0  0
  1  2  1  0
  2  3  1  0
  3  4  1  0
  4  5  1  0
  5  6  1  0
  6  7  1  0
  7  8  1  0
  8  9  2  0
  8 10  1  0
 10 11  1  0
 11 12  1  0
 12 13  1  0
 13 14  1  0
 14 15  1  0
 15 16  1  0
 16 17  1  0
 16 18  1  0
 10 19  2  0
 19 20  1  0
 20 21  2  0
 21 22  1  0
 22 23  2  0
 23 24  1  0
 24 25  1  0
 25 26  1  0
 25 27  2  0
 27 28  1  0
 28 29  2  0
 29 30  1  0
 23 31  1  0
 31 32  2  0
 19 33  1  0
 33 34  2  0
 33  7  1  0
 32 20  1  0
 29 24  1  0
  1 35  1  0
  1 36  1  0
  1 37  1  0
  2 38  1  0
  2 39  1  0
  4 40  1  0
  4 41  1  0
  5 42  1  0
  5 43  1  0
  6 44  1  0
  6 45  1  0
 11 46  1  0
 12 47  1  0
 12 48  1  0
 13 49  1  0
 13 50  1  0
 14 51  1  0
 14 52  1  0
 16 53  1  0
 17 54  1  0
 17 55  1  0
 17 56  1  0
 18 57  1  0
 18 58  1  0
 18 59  1  0
 21 60  1  0
 22 61  1  0
 26 62  1  0
 26 63  1  0
 26 64  1  0
 27 65  1  0
 28 66  1  0
 30 67  1  0
 30 68  1  0
 30 69  1  0
 31 70  1  0
 32 71  1  0
M  END
>  <Binding energies>  (1) 
[-7.72]

>  <Ligand effiencies>  (1) 
[-0.22057142857142856]

>  <Interactions>  (1) 
["V-B:PRO:540:CA:9855, V-A:GLY:454:CA:4049, V-B:HIS:456:CD2:9039, V-A:GLU:543:C:4902, H-A:ALA:541:N:4891, V-B:GLU:543:CB:9878, V-B:ALA:541:CB:9864, V-B:TYR:539:CE2:9848, V-A:TYR:484:CE2:4346, V-B:GLU:543:CG:9879, V-A:GLY:544:C:4912, V-A:HIS:456:CD2:4068, V-A:ASN:362:CB:3176, H-B:GLU:543:OE1:9881, V-A:ALA:541:CB:4892, V-A:GLU:543:CD:4908, H-B:TYR:484:OH:9319, V-B:HIS:456:CE1:9041, V-A:HIS:456:CE1:4070, V-B:TYR:539:CD2:9846, V-A:GLU:543:CG:4907, V-B:GLU:543:CD:9880, H-A:LYS:547:NZ:4951, V-A:LEU:475:CD2:4259, V-A:GLU:543:CB:4906, H-B:GLU:543:OE2:9882, V-A:PRO:540:CA:4883, V-A:PRO:540:CB:4885, V-B:PRO:540:C:9853"]

$$$$
ZINC1873391421
     RDKit          3D

 61 64  0  0  0  0  0  0  0  0999 V2000
  130.6180  127.7130   73.2790 C   0  0  0  0  0  0  0  0  0  0  0  0
  130.4910  128.5760   72.1540 O   0  0  0  0  0  0  0  0  0  0  0  0
  130.0650  128.0550   70.9470 C   0  0  0  0  0  0  0  0  0  0  0  0
  131.0500  127.7630   70.0100 C   0  0  0  0  0  0  0  0  0  0  0  0
  130.7100  127.2420   68.7670 C   0  0  0  0  0  0  0  0  0  0  0  0
  129.3730  127.0060   68.4180 C   0  0  0  0  0  0  0  0  0  0  0  0
  129.0830  126.4660   67.1480 N   0  0  0  0  0  0  0  0  0  0  0  0
  128.9120  127.1040   65.9290 C   0  0  0  0  0  0  0  0  0  0  0  0
  129.1030  126.6080   64.6990 C   0  0  0  0  0  0  0  0  0  0  0  0
  129.5640  125.2420   64.3580 C   0  0  0  0  0  0  0  0  0  0  0  0
  128.8530  124.5010   63.4060 C   0  0  0  0  0  0  0  0  0  0  0  0
  129.2490  123.2070   63.0670 C   0  0  0  0  0  0  0  0  0  0  0  0
  128.3640  122.3150   61.8830 Cl  0  0  0  0  0  0  0  0  0  0  0  0
  130.3580  122.6350   63.6860 C   0  0  0  0  0  0  0  0  0  0  0  0
  131.0640  123.3540   64.6490 C   0  0  0  0  0  0  0  0  0  0  0  0
  130.6710  124.6480   64.9940 C   0  0  0  0  0  0  0  0  0  0  0  0
  131.5660  125.4770   66.2210 Cl  0  0  0  0  0  0  0  0  0  0  0  0
  128.7860  127.5990   63.7160 C   0  0  0  0  0  0  0  0  0  0  0  0
  128.8560  127.5110   62.4890 O   0  0  0  0  0  0  0  0  0  0  0  0
  128.3970  128.6670   64.4380 N   0  0  0  0  0  0  0  0  0  0  0  0
  127.9890  129.9410   63.8210 C   0  0  0  0  0  0  0  0  0  0  0  0
  128.4390  131.1720   64.6290 C   0  0  0  0  0  0  0  0  0  0  0  0
  128.5910  132.2840   63.7490 O   0  0  0  0  0  0  0  0  0  0  0  0
  129.3880  132.1610   62.6290 C   0  0  0  0  0  0  0  0  0  0  0  0
  130.7310  131.8420   62.8470 C   0  0  0  0  0  0  0  0  0  0  0  0
  131.6160  131.6900   61.7780 C   0  0  0  0  0  0  0  0  0  0  0  0
  133.0710  131.3490   62.0400 C   0  0  0  0  0  0  0  0  0  0  0  0
  131.1560  131.8700   60.4700 C   0  0  0  0  0  0  0  0  0  0  0  0
  129.8190  132.1950   60.2330 C   0  0  0  0  0  0  0  0  0  0  0  0
  129.3290  132.3820   58.8080 C   0  0  0  0  0  0  0  0  0  0  0  0
  128.9390  132.3380   61.3100 C   0  0  0  0  0  0  0  0  0  0  0  0
  128.4030  128.4430   65.7690 C   0  0  0  0  0  0  0  0  0  0  0  0
  128.0500  129.2340   66.6470 O   0  0  0  0  0  0  0  0  0  0  0  0
  128.3500  127.2740   69.3650 C   0  0  0  0  0  0  0  0  0  0  0  0
  126.8960  127.0310   69.1040 N   0  0  0  0  0  0  0  0  0  0  0  0
  126.1900  126.5110   69.9600 O   0  0  0  0  0  0  0  0  0  0  0  0
  126.4350  127.3690   68.0170 O   0  0  0  0  0  0  0  0  0  0  0  0
  128.7260  127.8040   70.6140 C   0  0  0  0  0  0  0  0  0  0  0  0
  130.5314  128.3016   74.2042 H   0  0  0  0  0  0  0  0  0  0  0  0
  129.8218  126.9545   73.2510 H   0  0  0  0  0  0  0  0  0  0  0  0
  131.5989  127.2161   73.2510 H   0  0  0  0  0  0  0  0  0  0  0  0
  132.1068  127.9458   70.2544 H   0  0  0  0  0  0  0  0  0  0  0  0
  131.5054  127.0104   68.0433 H   0  0  0  0  0  0  0  0  0  0  0  0
  128.9650  125.4630   67.1710 H   0  0  0  0  0  0  0  0  0  0  0  0
  127.9717  124.9446   62.9196 H   0  0  0  0  0  0  0  0  0  0  0  0
  130.6761  121.6174   63.4153 H   0  0  0  0  0  0  0  0  0  0  0  0
  131.9365  122.8986   65.1402 H   0  0  0  0  0  0  0  0  0  0  0  0
  128.4310  130.0009   62.8155 H   0  0  0  0  0  0  0  0  0  0  0  0
  126.8896  129.9532   63.7876 H   0  0  0  0  0  0  0  0  0  0  0  0
  127.6820  131.4077   65.3915 H   0  0  0  0  0  0  0  0  0  0  0  0
  129.3989  130.9583   65.1218 H   0  0  0  0  0  0  0  0  0  0  0  0
  131.0962  131.7087   63.8760 H   0  0  0  0  0  0  0  0  0  0  0  0
  133.2483  131.3075   63.1248 H   0  0  0  0  0  0  0  0  0  0  0  0
  133.3049  130.3717   61.5926 H   0  0  0  0  0  0  0  0  0  0  0  0
  133.7148  132.1206   61.5926 H   0  0  0  0  0  0  0  0  0  0  0  0
  131.8501  131.7551   59.6244 H   0  0  0  0  0  0  0  0  0  0  0  0
  128.3014  132.7742   58.8221 H   0  0  0  0  0  0  0  0  0  0  0  0
  129.9856  133.0928   58.2848 H   0  0  0  0  0  0  0  0  0  0  0  0
  129.3451  131.4145   58.2848 H   0  0  0  0  0  0  0  0  0  0  0  0
  127.8851  132.5915   61.1226 H   0  0  0  0  0  0  0  0  0  0  0  0
  127.9432  128.0288   71.3535 H   0  0  0  0  0  0  0  0  0  0  0  0
  1  2  1  0
  2  3  1  0
  3  4  2  0
  4  5  1  0
  5  6  2  0
  6  7  1  0
  7  8  1  0
  8  9  2  0
  9 10  1  0
 10 11  2  0
 11 12  1  0
 12 13  1  0
 12 14  2  0
 14 15  1  0
 15 16  2  0
 16 17  1  0
  9 18  1  0
 18 19  2  0
 18 20  1  0
 20 21  1  0
 21 22  1  0
 22 23  1  0
 23 24  1  0
 24 25  2  0
 25 26  1  0
 26 27  1  0
 26 28  2  0
 28 29  1  0
 29 30  1  0
 29 31  2  0
 20 32  1  0
 32 33  2  0
  6 34  1  0
 34 35  1  0
 35 36  2  0
 35 37  1  0
 34 38  2  0
 38  3  1  0
 32  8  1  0
 16 10  1  0
 31 24  1  0
  1 39  1  0
  1 40  1  0
  1 41  1  0
  4 42  1  0
  5 43  1  0
  7 44  1  0
 11 45  1  0
 14 46  1  0
 15 47  1  0
 21 48  1  0
 21 49  1  0
 22 50  1  0
 22 51  1  0
 25 52  1  0
 27 53  1  0
 27 54  1  0
 27 55  1  0
 28 56  1  0
 30 57  1  0
 30 58  1  0
 30 59  1  0
 31 60  1  0
 38 61  1  0
M  CHG  2  35   1  37  -1
M  END
>  <Binding energies>  (1) 
[-8.09]

>  <Ligand effiencies>  (1) 
[-0.20743589743589744]

>  <Interactions>  (1) 
["V-B:PRO:540:CA:9855, V-B:HIS:456:CD2:9039, V-B:GLU:543:C:9874, H-B:GLU:543:O:9875, V-A:GLU:543:C:4902, V-B:GLU:543:CB:9878, V-B:ALA:541:CB:9864, V-A:TYR:484:CE2:4346, V-B:GLU:543:CG:9879, V-A:GLY:544:C:4912, V-A:ASN:362:CB:3176, H-B:HIS:456:ND1:9038, V-B:TYR:484:CE2:9317, V-A:ALA:541:CB:4892, H-B:ARG:545:N:9892, V-A:GLU:543:CD:4908, V-A:TYR:484:CZ:4347, H-B:TYR:484:OH:9319, V-B:HIS:456:CE1:9041, H-B:GLY:544:N:9887, V-B:GLU:543:CA:9876, V-A:HIS:456:CE1:4070, V-B:GLY:544:C:9884, V-A:ALA:541:CA:4890, V-A:GLU:543:CG:4907, V-B:GLU:543:CD:9880, H-A:LYS:547:NZ:4951, V-A:LEU:475:CD2:4259, V-A:GLU:543:CB:4906, H-B:GLU:543:OE2:9882, V-A:PRO:540:CB:4885, V-A:PRO:540:CA:4883, V-B:PRO:540:C:9853, V-B:ALA:541:CA:9862"]

$$$$
ZINC1873929621
     RDKit          3D

 49 51  0  0  0  0  0  0  0  0999 V2000
  129.5200  125.5740   67.2310 C   0  0  0  0  0  0  0  0  0  0  0  0
  130.2340  125.6210   65.8920 C   0  0  0  0  0  0  0  0  0  0  0  0
  129.5290  125.9170   64.7280 C   0  0  0  0  0  0  0  0  0  0  0  0
  130.1870  125.9440   63.5030 C   0  0  0  0  0  0  0  0  0  0  0  0
  131.5670  125.6840   63.4180 C   0  0  0  0  0  0  0  0  0  0  0  0
  132.2090  125.6610   62.1640 N   0  0  0  0  0  0  0  0  0  0  0  0
  131.6790  125.3440   60.9640 C   0  0  0  0  0  0  0  0  0  0  0  0
  130.5020  125.0280   60.7800 O   0  0  0  0  0  0  0  0  0  0  0  0
  132.6360  125.4720   59.7550 C   0  0  1  0  0  0  0  0  0  0  0  0
  133.5860  124.2640   59.6650 C   0  0  0  0  0  0  0  0  0  0  0  0
  131.9120  125.5390   58.5130 O   0  0  0  0  0  0  0  0  0  0  0  0
  131.2470  126.7100   58.2060 C   0  0  0  0  0  0  0  0  0  0  0  0
  131.8940  127.9480   58.2770 C   0  0  0  0  0  0  0  0  0  0  0  0
  131.1900  129.1210   58.0130 C   0  0  0  0  0  0  0  0  0  0  0  0
  131.8920  130.3090   58.1270 O   0  0  0  0  0  0  0  0  0  0  0  0
  131.3060  131.5380   57.8940 C   0  0  0  0  0  0  0  0  0  0  0  0
  132.0600  132.5020   58.0200 O   0  0  0  0  0  0  0  0  0  0  0  0
  129.8670  131.5480   57.5170 C   0  0  0  0  0  0  0  0  0  0  0  0
  129.2820  132.9540   57.3600 C   0  0  0  0  0  0  0  0  0  0  0  0
  129.1650  130.3870   57.4080 C   0  0  0  0  0  0  0  0  0  0  0  0
  127.6880  130.3290   57.0160 C   0  0  0  0  0  0  0  0  0  0  0  0
  129.8340  129.0860   57.6610 C   0  0  0  0  0  0  0  0  0  0  0  0
  129.1950  127.8400   57.5780 C   0  0  0  0  0  0  0  0  0  0  0  0
  129.8940  126.6620   57.8490 C   0  0  0  0  0  0  0  0  0  0  0  0
  129.0640  125.1490   57.7550 Cl  0  0  0  0  0  0  0  0  0  0  0  0
  132.2930  125.3720   64.5950 C   0  0  0  0  0  0  0  0  0  0  0  0
  133.7600  125.0940   64.6070 N   0  0  0  0  0  0  0  0  0  0  0  0
  134.3720  125.0820   65.6700 O   0  0  0  0  0  0  0  0  0  0  0  0
  134.3130  124.8580   63.5370 O   0  0  0  0  0  0  0  0  0  0  0  0
  131.5990  125.3470   65.8170 C   0  0  0  0  0  0  0  0  0  0  0  0
  130.2603  125.6227   68.0432 H   0  0  0  0  0  0  0  0  0  0  0  0
  128.8322  126.4288   67.3100 H   0  0  0  0  0  0  0  0  0  0  0  0
  128.9502  124.6364   67.3100 H   0  0  0  0  0  0  0  0  0  0  0  0
  128.4509  126.1296   64.7775 H   0  0  0  0  0  0  0  0  0  0  0  0
  129.6206  126.1718   62.5880 H   0  0  0  0  0  0  0  0  0  0  0  0
  133.1320  126.0720   62.1550 H   0  0  0  0  0  0  0  0  0  0  0  0
  133.2060  126.3994   59.9132 H   0  0  0  0  0  0  0  0  0  0  0  0
  133.8498  123.9286   60.6789 H   0  0  0  0  0  0  0  0  0  0  0  0
  133.0875  123.4449   59.1259 H   0  0  0  0  0  0  0  0  0  0  0  0
  134.4995  124.5553   59.1259 H   0  0  0  0  0  0  0  0  0  0  0  0
  132.9606  127.9956   58.5418 H   0  0  0  0  0  0  0  0  0  0  0  0
  129.1010  133.3889   58.3540 H   0  0  0  0  0  0  0  0  0  0  0  0
  129.9915  133.5867   56.8066 H   0  0  0  0  0  0  0  0  0  0  0  0
  128.3331  132.8966   56.8066 H   0  0  0  0  0  0  0  0  0  0  0  0
  127.0682  130.3047   57.9245 H   0  0  0  0  0  0  0  0  0  0  0  0
  127.4314  131.2178   56.4208 H   0  0  0  0  0  0  0  0  0  0  0  0
  127.5019  129.4229   56.4208 H   0  0  0  0  0  0  0  0  0  0  0  0
  128.1327  127.7904   57.2966 H   0  0  0  0  0  0  0  0  0  0  0  0
  132.1476  125.1047   66.7391 H   0  0  0  0  0  0  0  0  0  0  0  0
  1  2  1  0
  2  3  2  0
  3  4  1  0
  4  5  2  0
  5  6  1  0
  6  7  1  0
  7  8  2  0
  7  9  1  0
  9 10  1  0
  9 11  1  0
 11 12  1  0
 12 13  2  0
 13 14  1  0
 14 15  1  0
 15 16  1  0
 16 17  2  0
 16 18  1  0
 18 19  1  0
 18 20  2  0
 20 21  1  0
 20 22  1  0
 22 23  1  0
 23 24  2  0
 24 25  1  0
  5 26  1  0
 26 27  1  0
 27 28  2  0
 27 29  1  0
 26 30  2  0
 30  2  1  0
 24 12  1  0
 22 14  2  0
  1 31  1  0
  1 32  1  0
  1 33  1  0
  3 34  1  0
  4 35  1  0
  6 36  1  0
  9 37  1  1
 10 38  1  0
 10 39  1  0
 10 40  1  0
 13 41  1  0
 19 42  1  0
 19 43  1  0
 19 44  1  0
 21 45  1  0
 21 46  1  0
 21 47  1  0
 23 48  1  0
 30 49  1  0
M  CHG  2  27   1  29  -1
M  END
>  <Binding energies>  (1) 
[-7.3]

>  <Ligand effiencies>  (1) 
[-0.23548387096774193]

>  <Interactions>  (1) 
["V-A:ILE:369:CG2:3237, V-A:ASP:366:CA:3210, V-B:GLU:543:CB:9878, H-A:ARG:545:NH1:4927, H-A:TYR:531:OH:4795, V-B:TYR:539:CE2:9848, V-B:GLU:543:CG:9879, V-A:ASP:366:CG:3213, V-A:TYR:539:CD1:4873, V-B:TYR:539:CZ:9849, H-B:TYR:539:OH:9850, V-A:GLU:543:CD:4908, V-B:GLU:543:CA:9876, H-A:GLY:454:N:4050, V-A:HIS:456:CE1:4070, V-A:TYR:531:CZ:4794, V-B:GLU:543:CD:9880, V-A:MET:535:CE:4835, V-A:TYR:539:C:4867, V-A:ASP:366:CB:3212, V-A:ARG:545:CD:4923, H-A:ARG:545:NH2:4928, V-A:ARG:545:CZ:4926, H-A:ASP:366:OD1:3214, V-A:PRO:540:N:4884, V-A:GLY:453:CA:4044, H-A:ARG:545:NE:4924, H-A:ASP:366:OD2:3215, H-A:TYR:484:OH:4348"]

$$$$
ZINC1874338167
     RDKit          3D

 73 76  0  0  0  0  0  0  0  0999 V2000
  127.6210  133.2940   61.7110 C   0  0  0  0  0  0  0  0  0  0  0  0
  128.8400  132.4570   62.1450 C   0  0  0  0  0  0  0  0  0  0  0  0
  129.8340  132.2620   60.9830 C   0  0  0  0  0  0  0  0  0  0  0  0
  128.4600  131.1780   62.7640 N   0  0  0  0  0  0  0  0  0  0  0  0
  128.6130  129.8940   62.0800 C   0  0  0  0  0  0  0  0  0  0  0  0
  128.0290  128.8810   63.0480 C   0  0  1  0  0  0  0  0  0  0  0  0
  128.7030  127.5120   62.9680 C   0  0  0  0  0  0  0  0  0  0  0  0
  128.9920  126.9050   61.8440 N   0  0  0  0  0  0  0  0  0  0  0  0
  129.5670  125.6890   62.1710 N   0  0  0  0  0  0  0  0  0  0  0  0
  129.5920  125.5960   63.4780 C   0  0  0  0  0  0  0  0  0  0  0  0
  130.1820  124.1460   64.2920 S   0  0  0  0  0  0  0  0  0  0  0  0
  128.7220  123.1120   63.9400 C   0  0  0  0  0  0  0  0  0  0  0  0
  128.4110  122.9130   62.4500 C   0  0  0  0  0  0  0  0  0  0  0  0
  128.7250  121.8770   61.8610 O   0  0  0  0  0  0  0  0  0  0  0  0
  127.7760  123.9380   61.8530 N   0  0  0  0  0  0  0  0  0  0  0  0
  127.3950  124.0090   60.4400 C   0  0  0  0  0  0  0  0  0  0  0  0
  128.3240  123.1790   59.5200 C   0  0  0  0  0  0  0  0  0  0  0  0
  127.9260  123.2280   58.0330 C   0  0  0  0  0  0  0  0  0  0  0  0
  126.4440  122.8830   57.8160 C   0  0  0  0  0  0  0  0  0  0  0  0
  125.5310  123.7920   58.6550 C   0  0  0  0  0  0  0  0  0  0  0  0
  125.8890  123.7600   60.1540 C   0  0  0  0  0  0  0  0  0  0  0  0
  129.0780  126.7540   64.0630 N   0  0  0  0  0  0  0  0  0  0  0  0
  128.8630  127.1230   65.3860 N   0  0  0  0  0  0  0  0  0  0  0  0
  129.5450  126.5850   66.3190 C   0  0  0  0  0  0  0  0  0  0  0  0
  129.3500  126.8810   67.7440 C   0  0  0  0  0  0  0  0  0  0  0  0
  130.4240  127.3710   68.4910 C   0  0  0  0  0  0  0  0  0  0  0  0
  130.2770  127.6600   69.8460 C   0  0  0  0  0  0  0  0  0  0  0  0
  129.0480  127.4720   70.5000 C   0  0  0  0  0  0  0  0  0  0  0  0
  128.8970  127.7610   71.8850 N   0  0  0  0  0  0  0  0  0  0  0  0
  129.7410  128.7700   72.5260 C   0  0  0  0  0  0  0  0  0  0  0  0
  127.6770  127.3700   72.5930 C   0  0  0  0  0  0  0  0  0  0  0  0
  127.9740  126.9800   69.7400 C   0  0  0  0  0  0  0  0  0  0  0  0
  128.1220  126.6890   68.3860 C   0  0  0  0  0  0  0  0  0  0  0  0
  128.1330  129.5730   64.4010 C   0  0  0  0  0  0  0  0  0  0  0  0
  128.2600  131.0660   64.1000 C   0  0  0  0  0  0  0  0  0  0  0  0
  128.2140  131.9620   64.9440 O   0  0  0  0  0  0  0  0  0  0  0  0
  127.0902  133.6585   62.6029 H   0  0  0  0  0  0  0  0  0  0  0  0
  127.9597  134.1509   61.1102 H   0  0  0  0  0  0  0  0  0  0  0  0
  126.9430  132.6701   61.1102 H   0  0  0  0  0  0  0  0  0  0  0  0
  129.3550  133.0336   62.9274 H   0  0  0  0  0  0  0  0  0  0  0  0
  130.8376  132.0651   61.3881 H   0  0  0  0  0  0  0  0  0  0  0  0
  129.5140  131.4095   60.3659 H   0  0  0  0  0  0  0  0  0  0  0  0
  129.8598  133.1722   60.3659 H   0  0  0  0  0  0  0  0  0  0  0  0
  128.0582  129.8900   61.1302 H   0  0  0  0  0  0  0  0  0  0  0  0
  129.6606  129.6760   61.8251 H   0  0  0  0  0  0  0  0  0  0  0  0
  126.9863  128.6178   62.8169 H   0  0  0  0  0  0  0  0  0  0  0  0
  128.8892  122.1217   64.3888 H   0  0  0  0  0  0  0  0  0  0  0  0
  127.8587  123.6447   64.3654 H   0  0  0  0  0  0  0  0  0  0  0  0
  127.5910  124.7670   62.3990 H   0  0  0  0  0  0  0  0  0  0  0  0
  127.5508  125.0654   60.1759 H   0  0  0  0  0  0  0  0  0  0  0  0
  129.3482  123.5680   59.6185 H   0  0  0  0  0  0  0  0  0  0  0  0
  128.2411  122.1301   59.8409 H   0  0  0  0  0  0  0  0  0  0  0  0
  128.1134  124.2418   57.6495 H   0  0  0  0  0  0  0  0  0  0  0  0
  128.5285  122.4793   57.4977 H   0  0  0  0  0  0  0  0  0  0  0  0
  126.1980  123.0120   56.7516 H   0  0  0  0  0  0  0  0  0  0  0  0
  126.2802  121.8414   58.1294 H   0  0  0  0  0  0  0  0  0  0  0  0
  125.6291  124.8251   58.2901 H   0  0  0  0  0  0  0  0  0  0  0  0
  124.5001  123.4235   58.5479 H   0  0  0  0  0  0  0  0  0  0  0  0
  125.3045  124.5375   60.6676 H   0  0  0  0  0  0  0  0  0  0  0  0
  125.6544  122.7494   60.5197 H   0  0  0  0  0  0  0  0  0  0  0  0
  130.3229  125.8586   66.0411 H   0  0  0  0  0  0  0  0  0  0  0  0
  131.3972  127.5305   68.0037 H   0  0  0  0  0  0  0  0  0  0  0  0
  131.1383  128.0420   70.4136 H   0  0  0  0  0  0  0  0  0  0  0  0
  129.6610  128.6744   73.6189 H   0  0  0  0  0  0  0  0  0  0  0  0
  130.7871  128.6208   72.2205 H   0  0  0  0  0  0  0  0  0  0  0  0
  129.4093  129.7733   72.2205 H   0  0  0  0  0  0  0  0  0  0  0  0
  127.8491  127.4252   73.6781 H   0  0  0  0  0  0  0  0  0  0  0  0
  126.8584  128.0508   72.3165 H   0  0  0  0  0  0  0  0  0  0  0  0
  127.4067  126.3402   72.3165 H   0  0  0  0  0  0  0  0  0  0  0  0
  126.9984  126.8217   70.2229 H   0  0  0  0  0  0  0  0  0  0  0  0
  127.2640  126.3040   67.8153 H   0  0  0  0  0  0  0  0  0  0  0  0
  127.2312  129.3790   65.0002 H   0  0  0  0  0  0  0  0  0  0  0  0
  128.9931  129.2031   64.9784 H   0  0  0  0  0  0  0  0  0  0  0  0
  1  2  1  0
  2  3  1  0
  2  4  1  0
  4  5  1  0
  5  6  1  0
  6  7  1  0
  7  8  2  0
  8  9  1  0
  9 10  2  0
 10 11  1  0
 11 12  1  0
 12 13  1  0
 13 14  2  0
 13 15  1  0
 15 16  1  0
 16 17  1  0
 17 18  1  0
 18 19  1  0
 19 20  1  0
 20 21  1  0
 10 22  1  0
 22 23  1  0
 23 24  2  0
 24 25  1  0
 25 26  2  0
 26 27  1  0
 27 28  2  0
 28 29  1  0
 29 30  1  0
 29 31  1  0
 28 32  1  0
 32 33  2  0
  6 34  1  0
 34 35  1  0
 35 36  2  0
 35  4  1  0
 22  7  1  0
 33 25  1  0
 21 16  1  0
  1 37  1  0
  1 38  1  0
  1 39  1  0
  2 40  1  0
  3 41  1  0
  3 42  1  0
  3 43  1  0
  5 44  1  0
  5 45  1  0
  6 46  1  6
 12 47  1  0
 12 48  1  0
 15 49  1  0
 16 50  1  0
 17 51  1  0
 17 52  1  0
 18 53  1  0
 18 54  1  0
 19 55  1  0
 19 56  1  0
 20 57  1  0
 20 58  1  0
 21 59  1  0
 21 60  1  0
 24 61  1  0
 26 62  1  0
 27 63  1  0
 30 64  1  0
 30 65  1  0
 30 66  1  0
 31 67  1  0
 31 68  1  0
 31 69  1  0
 32 70  1  0
 33 71  1  0
 34 72  1  0
 34 73  1  0
M  END
>  <Binding energies>  (1) 
[-8.69]

>  <Ligand effiencies>  (1) 
[-0.23486486486486485]

>  <Interactions>  (1) 
["V-B:PRO:540:CA:9855, V-B:GLU:543:C:9874, V-B:HIS:456:CD2:9039, V-B:GLU:543:CB:9878, V-B:ALA:541:CB:9864, V-B:TYR:539:CE2:9848, V-B:GLU:543:CG:9879, V-B:TYR:539:C:9839, V-B:TYR:539:CZ:9849, H-B:GLU:543:OE1:9881, V-A:ALA:541:CB:4892, V-B:LYS:547:CE:9922, H-B:ALA:541:N:9863, V-A:GLU:543:CD:4908, V-B:PRO:540:CB:9857, H-B:TYR:484:OH:9319, V-B:HIS:456:CE1:9041, V-B:GLU:543:CA:9876, V-B:PRO:540:N:9856, V-A:HIS:456:CE1:4070, V-B:TYR:539:CD2:9846, V-A:GLU:543:CG:4907, V-B:PRO:540:CD:9859, V-B:GLU:543:CD:9880, V-A:GLU:543:CB:4906, V-A:PRO:540:CA:4883"]

$$$$
ZINC1874339220
     RDKit          3D

 62 64  0  0  0  0  0  0  0  0999 V2000
  129.8770  120.3810   61.6360 C   0  0  0  0  0  0  0  0  0  0  0  0
  129.9060  121.8910   61.9150 C   0  0  0  0  0  0  0  0  0  0  0  0
  128.5390  122.5760   61.7650 C   0  0  0  0  0  0  0  0  0  0  0  0
  128.5690  123.5080   60.6900 O   0  0  0  0  0  0  0  0  0  0  0  0
  128.1780  123.1460   59.4510 C   0  0  0  0  0  0  0  0  0  0  0  0
  128.3520  122.0440   58.9280 O   0  0  0  0  0  0  0  0  0  0  0  0
  127.4920  124.2850   58.6980 C   0  0  0  0  0  0  0  0  0  0  0  0
  128.3230  124.4980   57.0900 S   0  0  0  0  0  0  0  0  0  0  0  0
  128.7990  126.1910   57.2840 C   0  0  0  0  0  0  0  0  0  0  0  0
  128.2440  127.1410   56.5750 N   0  0  0  0  0  0  0  0  0  0  0  0
  128.7530  128.3520   57.0170 N   0  0  0  0  0  0  0  0  0  0  0  0
  129.5930  128.0880   57.9870 C   0  0  0  0  0  0  0  0  0  0  0  0
  130.3910  129.1380   58.7690 C   0  0  1  0  0  0  0  0  0  0  0  0
  131.8450  129.2030   58.3160 C   0  0  0  0  0  0  0  0  0  0  0  0
  131.9670  130.4460   57.4340 C   0  0  0  0  0  0  0  0  0  0  0  0
  132.9400  130.7220   56.7330 O   0  0  0  0  0  0  0  0  0  0  0  0
  130.8100  131.1390   57.5860 N   0  0  0  0  0  0  0  0  0  0  0  0
  130.5110  132.4250   56.9350 C   0  0  0  0  0  0  0  0  0  0  0  0
  131.7440  133.3400   56.7950 C   0  0  0  0  0  0  0  0  0  0  0  0
  129.2950  133.1540   57.5440 C   0  0  0  0  0  0  0  0  0  0  0  0
  129.9040  130.5700   58.5790 C   0  0  0  0  0  0  0  0  0  0  0  0
  129.7210  126.7260   58.1850 N   0  0  0  0  0  0  0  0  0  0  0  0
  130.5360  126.1530   59.1500 N   0  0  0  0  0  0  0  0  0  0  0  0
  130.1600  126.1220   60.3670 C   0  0  0  0  0  0  0  0  0  0  0  0
  131.0010  125.6290   61.4640 C   0  0  0  0  0  0  0  0  0  0  0  0
  132.3240  125.2140   61.2640 C   0  0  0  0  0  0  0  0  0  0  0  0
  133.1040  124.7610   62.3260 C   0  0  0  0  0  0  0  0  0  0  0  0
  134.7310  124.2640   62.0140 Cl  0  0  0  0  0  0  0  0  0  0  0  0
  132.5650  124.7140   63.6160 C   0  0  0  0  0  0  0  0  0  0  0  0
  133.3300  124.2670   64.6660 O   0  0  0  0  0  0  0  0  0  0  0  0
  131.2450  125.1240   63.8490 C   0  0  0  0  0  0  0  0  0  0  0  0
  130.7740  125.0540   65.1490 O   0  0  0  0  0  0  0  0  0  0  0  0
  129.7590  125.9550   65.5770 C   0  0  0  0  0  0  0  0  0  0  0  0
  130.4770  125.5780   62.7620 C   0  0  0  0  0  0  0  0  0  0  0  0
  129.8665  119.8321   62.5892 H   0  0  0  0  0  0  0  0  0  0  0  0
  128.9739  120.1319   61.0595 H   0  0  0  0  0  0  0  0  0  0  0  0
  130.7699  120.0974   61.0595 H   0  0  0  0  0  0  0  0  0  0  0  0
  130.2607  122.0466   62.9445 H   0  0  0  0  0  0  0  0  0  0  0  0
  130.5741  122.3422   61.1666 H   0  0  0  0  0  0  0  0  0  0  0  0
  127.7715  121.8142   61.5635 H   0  0  0  0  0  0  0  0  0  0  0  0
  128.3029  123.1115   62.6964 H   0  0  0  0  0  0  0  0  0  0  0  0
  126.4319  124.0387   58.5381 H   0  0  0  0  0  0  0  0  0  0  0  0
  127.5562  125.2152   59.2816 H   0  0  0  0  0  0  0  0  0  0  0  0
  130.2637  128.8060   59.8100 H   0  0  0  0  0  0  0  0  0  0  0  0
  132.5115  129.2876   59.1870 H   0  0  0  0  0  0  0  0  0  0  0  0
  132.1326  128.2944   57.7667 H   0  0  0  0  0  0  0  0  0  0  0  0
  130.2156  132.1605   55.9089 H   0  0  0  0  0  0  0  0  0  0  0  0
  132.1129  133.6137   57.7945 H   0  0  0  0  0  0  0  0  0  0  0  0
  132.5347  132.8083   56.2453 H   0  0  0  0  0  0  0  0  0  0  0  0
  131.4642  134.2508   56.2453 H   0  0  0  0  0  0  0  0  0  0  0  0
  129.3571  133.1168   58.6416 H   0  0  0  0  0  0  0  0  0  0  0  0
  129.2923  134.2028   57.2123 H   0  0  0  0  0  0  0  0  0  0  0  0
  128.3687  132.6621   57.2123 H   0  0  0  0  0  0  0  0  0  0  0  0
  129.9637  131.1290   59.5245 H   0  0  0  0  0  0  0  0  0  0  0  0
  128.8528  130.6137   58.2578 H   0  0  0  0  0  0  0  0  0  0  0  0
  129.1499  126.4845   60.6086 H   0  0  0  0  0  0  0  0  0  0  0  0
  132.7541  125.2463   60.2521 H   0  0  0  0  0  0  0  0  0  0  0  0
  132.8280  124.1880   65.4800 H   0  0  0  0  0  0  0  0  0  0  0  0
  129.7307  125.9801   66.6764 H   0  0  0  0  0  0  0  0  0  0  0  0
  129.9771  126.9624   65.1927 H   0  0  0  0  0  0  0  0  0  0  0  0
  128.7846  125.6190   65.1927 H   0  0  0  0  0  0  0  0  0  0  0  0
  129.4398  125.9008   62.9352 H   0  0  0  0  0  0  0  0  0  0  0  0
  1  2  1  0
  2  3  1  0
  3  4  1  0
  4  5  1  0
  5  6  2  0
  5  7  1  0
  7  8  1  0
  8  9  1  0
  9 10  2  0
 10 11  1  0
 11 12  2  0
 12 13  1  0
 13 14  1  0
 14 15  1  0
 15 16  2  0
 15 17  1  0
 17 18  1  0
 18 19  1  0
 18 20  1  0
 17 21  1  0
 12 22  1  0
 22 23  1  0
 23 24  2  0
 24 25  1  0
 25 26  2  0
 26 27  1  0
 27 28  1  0
 27 29  2  0
 29 30  1  0
 29 31  1  0
 31 32  1  0
 32 33  1  0
 31 34  2  0
 22  9  1  0
 34 25  1  0
 21 13  1  0
  1 35  1  0
  1 36  1  0
  1 37  1  0
  2 38  1  0
  2 39  1  0
  3 40  1  0
  3 41  1  0
  7 42  1  0
  7 43  1  0
 13 44  1  1
 14 45  1  0
 14 46  1  0
 18 47  1  0
 19 48  1  0
 19 49  1  0
 19 50  1  0
 20 51  1  0
 20 52  1  0
 20 53  1  0
 21 54  1  0
 21 55  1  0
 24 56  1  0
 26 57  1  0
 30 58  1  0
 33 59  1  0
 33 60  1  0
 33 61  1  0
 34 62  1  0
M  END
>  <Binding energies>  (1) 
[-6.03]

>  <Ligand effiencies>  (1) 
[-0.1722857142857143]

>  <Interactions>  (1) 
["V-B:PRO:540:CA:9855, V-A:PRO:540:CG:4886, V-B:GLU:543:CB:9878, V-A:ILE:538:CB:4862, V-B:ALA:541:CB:9864, H-A:TYR:531:OH:4795, V-B:TYR:539:CE2:9848, V-B:GLU:543:CG:9879, V-A:ASP:366:CG:3213, V-A:ILE:538:CG2:4863, V-A:LEU:363:CD1:3189, V-A:TYR:539:CD1:4873, V-A:ILE:538:CA:4860, V-A:TYR:531:CE2:4793, H-B:TYR:539:OH:9850, V-A:TYR:539:CA:4869, V-A:GLU:543:CD:4908, H-A:GLY:454:N:4050, V-A:GLY:453:C:4042, V-A:ILE:369:CD1:3239, V-B:TYR:539:CD2:9846, V-A:TYR:531:CZ:4794, V-B:GLU:543:CD:9880, V-A:TYR:539:C:4867, H-B:TYR:531:OH:9767, V-A:ASP:366:CB:3212, V-A:LEU:475:CD2:4259, V-A:ARG:545:CZ:4926, V-A:PRO:540:N:4884, V-A:TYR:539:CG:4872, V-A:GLY:453:CA:4044, V-A:PRO:540:CB:4885, V-A:PRO:540:CA:4883, V-A:PRO:540:CD:4887, H-A:TYR:484:OH:4348"]

$$$$
ZINC1874471573
     RDKit          3D

 56 59  0  0  0  0  0  0  0  0999 V2000
  128.8100  132.5610   64.6820 C   0  0  0  0  0  0  0  0  0  0  0  0
  127.7550  131.6140   64.6270 O   0  0  0  0  0  0  0  0  0  0  0  0
  128.0580  130.4740   63.8340 C   0  0  0  0  0  0  0  0  0  0  0  0
  127.3680  129.2330   64.4260 C   0  0  0  0  0  0  0  0  0  0  0  0
  127.9230  128.8390   65.7860 C   0  0  0  0  0  0  0  0  0  0  0  0
  127.7230  129.5290   66.8790 N   0  0  0  0  0  0  0  0  0  0  0  0
  128.3930  128.8740   67.9000 N   0  0  0  0  0  0  0  0  0  0  0  0
  128.9570  127.8060   67.3920 C   0  0  0  0  0  0  0  0  0  0  0  0
  129.8510  126.6670   68.4080 S   0  0  0  0  0  0  0  0  0  0  0  0
  128.7270  126.6080   69.8400 C   0  0  0  0  0  0  0  0  0  0  0  0
  129.3280  127.2430   71.0730 C   0  0  0  0  0  0  0  0  0  0  0  0
  129.5660  128.5530   71.4670 C   0  0  0  0  0  0  0  0  0  0  0  0
  130.1620  128.4980   72.7270 C   0  0  0  0  0  0  0  0  0  0  0  0
  130.2660  127.1530   73.0600 C   0  0  0  0  0  0  0  0  0  0  0  0
  130.8040  126.4630   74.2230 C   0  0  0  0  0  0  0  0  0  0  0  0
  130.2840  125.4650   74.7280 O   0  0  0  0  0  0  0  0  0  0  0  0
  131.9390  127.0620   74.6500 O   0  0  0  0  0  0  0  0  0  0  0  0
  133.2070  126.4750   74.3950 C   0  0  0  0  0  0  0  0  0  0  0  0
  129.7530  126.3970   72.0510 O   0  0  0  0  0  0  0  0  0  0  0  0
  128.7380  127.7470   66.0160 N   0  0  0  0  0  0  0  0  0  0  0  0
  129.1130  126.8290   65.0450 N   0  0  0  0  0  0  0  0  0  0  0  0
  129.9990  125.9560   65.3190 C   0  0  0  0  0  0  0  0  0  0  0  0
  130.4170  124.8820   64.3930 C   0  0  0  0  0  0  0  0  0  0  0  0
  129.4550  124.2500   63.5840 C   0  0  0  0  0  0  0  0  0  0  0  0
  129.8000  123.1920   62.7480 C   0  0  0  0  0  0  0  0  0  0  0  0
  131.1250  122.7490   62.6890 C   0  0  0  0  0  0  0  0  0  0  0  0
  132.0940  123.3620   63.4750 C   0  0  0  0  0  0  0  0  0  0  0  0
  131.7600  124.4310   64.3180 C   0  0  0  0  0  0  0  0  0  0  0  0
  132.8490  125.0400   65.1060 N   0  0  0  0  0  0  0  0  0  0  0  0
  133.9760  125.0540   64.6210 O   0  0  0  0  0  0  0  0  0  0  0  0
  132.5740  125.4710   66.2210 O   0  0  0  0  0  0  0  0  0  0  0  0
  131.5030  121.6620   61.9280 O   0  0  0  0  0  0  0  0  0  0  0  0
  130.5650  121.3040   60.9080 C   0  0  0  0  0  0  0  0  0  0  0  0
  129.1170  121.3420   61.4550 C   0  0  0  0  0  0  0  0  0  0  0  0
  128.8070  122.6450   61.9600 O   0  0  0  0  0  0  0  0  0  0  0  0
  129.0527  132.7789   65.7325 H   0  0  0  0  0  0  0  0  0  0  0  0
  129.6976  132.1508   64.1781 H   0  0  0  0  0  0  0  0  0  0  0  0
  128.4977  133.4875   64.1781 H   0  0  0  0  0  0  0  0  0  0  0  0
  127.6992  130.6370   62.8070 H   0  0  0  0  0  0  0  0  0  0  0  0
  129.1465  130.3158   63.8239 H   0  0  0  0  0  0  0  0  0  0  0  0
  126.2943  129.4463   64.5336 H   0  0  0  0  0  0  0  0  0  0  0  0
  127.5521  128.3939   63.7389 H   0  0  0  0  0  0  0  0  0  0  0  0
  127.8004  127.1426   69.5837 H   0  0  0  0  0  0  0  0  0  0  0  0
  128.5326  125.5499   70.0695 H   0  0  0  0  0  0  0  0  0  0  0  0
  129.3294  129.4618   70.8942 H   0  0  0  0  0  0  0  0  0  0  0  0
  130.4865  129.3531   73.3381 H   0  0  0  0  0  0  0  0  0  0  0  0
  133.7033  126.2452   75.3494 H   0  0  0  0  0  0  0  0  0  0  0  0
  133.0725  125.5475   73.8191 H   0  0  0  0  0  0  0  0  0  0  0  0
  133.8272  127.1776   73.8191 H   0  0  0  0  0  0  0  0  0  0  0  0
  130.4831  126.0041   66.3056 H   0  0  0  0  0  0  0  0  0  0  0  0
  128.4119  124.5981   63.6127 H   0  0  0  0  0  0  0  0  0  0  0  0
  133.1335  123.0045   63.4350 H   0  0  0  0  0  0  0  0  0  0  0  0
  130.6534  122.0132   60.0718 H   0  0  0  0  0  0  0  0  0  0  0  0
  130.7868  120.2817   60.5680 H   0  0  0  0  0  0  0  0  0  0  0  0
  128.4169  121.0917   60.6443 H   0  0  0  0  0  0  0  0  0  0  0  0
  129.0259  120.6120   62.2728 H   0  0  0  0  0  0  0  0  0  0  0  0
  1  2  1  0
  2  3  1  0
  3  4  1  0
  4  5  1  0
  5  6  2  0
  6  7  1  0
  7  8  2  0
  8  9  1  0
  9 10  1  0
 10 11  1  0
 11 12  2  0
 12 13  1  0
 13 14  2  0
 14 15  1  0
 15 16  2  0
 15 17  1  0
 17 18  1  0
 14 19  1  0
  8 20  1  0
 20 21  1  0
 21 22  2  0
 22 23  1  0
 23 24  2  0
 24 25  1  0
 25 26  2  0
 26 27  1  0
 27 28  2  0
 28 29  1  0
 29 30  2  0
 29 31  1  0
 26 32  1  0
 32 33  1  0
 33 34  1  0
 34 35  1  0
 20  5  1  0
 28 23  1  0
 19 11  1  0
 35 25  1  0
  1 36  1  0
  1 37  1  0
  1 38  1  0
  3 39  1  0
  3 40  1  0
  4 41  1  0
  4 42  1  0
 10 43  1  0
 10 44  1  0
 12 45  1  0
 13 46  1  0
 18 47  1  0
 18 48  1  0
 18 49  1  0
 22 50  1  0
 24 51  1  0
 27 52  1  0
 33 53  1  0
 33 54  1  0
 34 55  1  0
 34 56  1  0
M  CHG  2  29   1  31  -1
M  END
>  <Binding energies>  (1) 
[-7.35]

>  <Ligand effiencies>  (1) 
[-0.21]

>  <Interactions>  (1) 
["V-B:PRO:540:CA:9855, V-B:GLU:543:C:9874, V-B:HIS:456:CD2:9039, V-A:GLU:543:C:4902, H-B:LYS:547:NZ:9923, V-B:ALA:541:CB:9864, H-A:ARG:545:NH1:4927, V-B:TYR:539:CE2:9848, V-B:GLU:543:CG:9879, V-A:GLY:544:C:4912, V-A:HIS:456:CD2:4068, V-B:TYR:484:CE2:9317, V-A:LYS:547:CG:4948, V-A:ALA:541:CB:4892, V-A:HIS:456:CB:4065, V-A:GLU:543:CD:4908, H-B:TYR:484:OH:9319, H-A:GLY:454:N:4050, V-B:TYR:484:CZ:9318, V-A:HIS:456:CE1:4070, V-B:TYR:539:CD2:9846, V-A:GLU:543:CG:4907, V-B:GLU:543:CD:9880, H-A:LYS:547:NZ:4951, H-A:ARG:545:NH2:4928, V-A:LEU:475:CD2:4259, V-A:ARG:545:CZ:4926, V-A:GLU:543:CB:4906, V-A:HIS:456:CG:4066, H-A:ARG:545:NE:4924, V-B:PRO:540:C:9853, H-A:TYR:484:OH:4348"]

$$$$
ZINC1874487168
     RDKit          3D

 45 47  0  0  0  0  0  0  0  0999 V2000
  132.7630  124.9950   75.8480 C   0  0  0  0  0  0  0  0  0  0  0  0
  132.6190  125.9810   74.6720 C   0  0  0  0  0  0  0  0  0  0  0  0
  133.8890  126.8380   74.5200 C   0  0  0  0  0  0  0  0  0  0  0  0
  131.3590  126.8700   74.7920 C   0  0  0  0  0  0  0  0  0  0  0  0
  130.2840  126.5560   73.7590 C   0  0  0  0  0  0  0  0  0  0  0  0
  129.8500  125.3470   73.5130 N   0  0  0  0  0  0  0  0  0  0  0  0
  128.8860  125.4550   72.5230 N   0  0  0  0  0  0  0  0  0  0  0  0
  128.7670  126.7230   72.2130 C   0  0  0  0  0  0  0  0  0  0  0  0
  127.5820  127.2730   71.0210 S   0  0  0  0  0  0  0  0  0  0  0  0
  128.7200  128.1020   69.8660 C   0  0  0  0  0  0  0  0  0  0  0  0
  129.0280  127.2490   68.6450 C   0  0  0  0  0  0  0  0  0  0  0  0
  128.8500  127.7790   67.3640 C   0  0  0  0  0  0  0  0  0  0  0  0
  129.1080  126.9930   66.2430 C   0  0  0  0  0  0  0  0  0  0  0  0
  129.5450  125.6800   66.4070 C   0  0  0  0  0  0  0  0  0  0  0  0
  129.7860  124.9140   65.3200 F   0  0  0  0  0  0  0  0  0  0  0  0
  129.7360  125.1510   67.6820 C   0  0  0  0  0  0  0  0  0  0  0  0
  129.4800  125.9360   68.8020 C   0  0  0  0  0  0  0  0  0  0  0  0
  129.6570  127.4950   72.9620 N   0  0  0  0  0  0  0  0  0  0  0  0
  129.8810  128.8630   73.0360 N   0  0  0  0  0  0  0  0  0  0  0  0
  128.9860  129.6180   73.5290 C   0  0  0  0  0  0  0  0  0  0  0  0
  129.2340  131.0400   73.7080 C   0  0  0  0  0  0  0  0  0  0  0  0
  128.5530  132.0330   74.4140 C   0  0  0  0  0  0  0  0  0  0  0  0
  129.2150  133.2520   74.2330 C   0  0  0  0  0  0  0  0  0  0  0  0
  130.3040  133.0070   73.4170 C   0  0  0  0  0  0  0  0  0  0  0  0
  130.2980  131.6710   73.1090 N   0  0  0  0  0  0  0  0  0  0  0  0
  132.6829  125.5434   76.7982 H   0  0  0  0  0  0  0  0  0  0  0  0
  131.9657  124.2392   75.7925 H   0  0  0  0  0  0  0  0  0  0  0  0
  133.7431  124.4988   75.7925 H   0  0  0  0  0  0  0  0  0  0  0  0
  132.4917  125.3773   73.7613 H   0  0  0  0  0  0  0  0  0  0  0  0
  134.2763  127.0994   75.5158 H   0  0  0  0  0  0  0  0  0  0  0  0
  134.6514  126.2690   73.9678 H   0  0  0  0  0  0  0  0  0  0  0  0
  133.6466  127.7580   73.9678 H   0  0  0  0  0  0  0  0  0  0  0  0
  130.9287  126.7282   75.7944 H   0  0  0  0  0  0  0  0  0  0  0  0
  131.6805  127.9069   74.6146 H   0  0  0  0  0  0  0  0  0  0  0  0
  128.2606  129.0441   69.5323 H   0  0  0  0  0  0  0  0  0  0  0  0
  129.6661  128.2817   70.3976 H   0  0  0  0  0  0  0  0  0  0  0  0
  128.5062  128.8166   67.2409 H   0  0  0  0  0  0  0  0  0  0  0  0
  128.9675  127.4068   65.2335 H   0  0  0  0  0  0  0  0  0  0  0  0
  130.0881  124.1159   67.8027 H   0  0  0  0  0  0  0  0  0  0  0  0
  129.6333  125.5234   69.8101 H   0  0  0  0  0  0  0  0  0  0  0  0
  128.0151  129.1926   73.8230 H   0  0  0  0  0  0  0  0  0  0  0  0
  127.6440  131.8817   75.0147 H   0  0  0  0  0  0  0  0  0  0  0  0
  128.9238  134.2231   74.6597 H   0  0  0  0  0  0  0  0  0  0  0  0
  131.0412  133.7491   73.0768 H   0  0  0  0  0  0  0  0  0  0  0  0
  130.9810  131.2130   72.5230 H   0  0  0  0  0  0  0  0  0  0  0  0
  1  2  1  0
  2  3  1  0
  2  4  1  0
  4  5  1  0
  5  6  2  0
  6  7  1  0
  7  8  2  0
  8  9  1  0
  9 10  1  0
 10 11  1  0
 11 12  2  0
 12 13  1  0
 13 14  2  0
 14 15  1  0
 14 16  1  0
 16 17  2  0
  8 18  1  0
 18 19  1  0
 19 20  2  0
 20 21  1  0
 21 22  2  0
 22 23  1  0
 23 24  2  0
 24 25  1  0
 18  5  1  0
 25 21  1  0
 17 11  1  0
  1 26  1  0
  1 27  1  0
  1 28  1  0
  2 29  1  0
  3 30  1  0
  3 31  1  0
  3 32  1  0
  4 33  1  0
  4 34  1  0
 10 35  1  0
 10 36  1  0
 12 37  1  0
 13 38  1  0
 16 39  1  0
 17 40  1  0
 20 41  1  0
 22 42  1  0
 23 43  1  0
 24 44  1  0
 25 45  1  0
M  END
>  <Binding energies>  (1) 
[-7.03]

>  <Ligand effiencies>  (1) 
[-0.2703846153846154]

>  <Interactions>  (1) 
["V-B:HIS:456:CD2:9039, V-B:GLU:543:C:9874, V-A:GLU:543:C:4902, V-B:GLU:543:CB:9878, H-B:LYS:547:NZ:9923, V-A:TYR:484:CE2:4346, V-A:GLY:544:CA:4914, V-B:GLU:543:CG:9879, V-A:HIS:456:CD2:4068, H-B:HIS:456:ND1:9038, V-A:LYS:547:CG:4948, V-A:HIS:456:CB:4065, V-A:GLU:543:CD:4908, V-B:GLU:543:CA:9876, V-B:HIS:456:CE1:9041, V-A:HIS:456:CE1:4070, V-A:GLU:543:CG:4907, V-B:GLU:543:CD:9880, H-A:LYS:547:NZ:4951, V-A:ARG:545:C:4917, V-A:GLU:543:CB:4906, V-A:HIS:456:CG:4066, V-A:LYS:547:CE:4950, H-A:GLY:544:O:4913, H-A:GLU:543:O:4903"]

$$$$
ZINC1875211134
     RDKit          3D

 68 71  0  0  0  0  0  0  0  0999 V2000
  134.3820  124.3250   61.2090 C   0  0  0  0  0  0  0  0  0  0  0  0
  133.3350  123.3310   60.6780 C   0  0  0  0  0  0  0  0  0  0  0  0
  132.2140  124.0720   59.9210 C   0  0  0  0  0  0  0  0  0  0  0  0
  132.8100  122.4200   61.8200 C   0  0  0  0  0  0  0  0  0  0  0  0
  131.8850  123.1250   62.7210 N   0  0  0  0  0  0  0  0  0  0  0  0
  130.4930  123.1180   62.6640 C   0  0  0  0  0  0  0  0  0  0  0  0
  129.7140  122.4170   61.6740 C   0  0  0  0  0  0  0  0  0  0  0  0
  129.7930  121.1890   61.6280 O   0  0  0  0  0  0  0  0  0  0  0  0
  128.9130  123.1590   60.8540 N   0  0  0  0  0  0  0  0  0  0  0  0
  128.0670  122.4780   59.8530 C   0  0  0  0  0  0  0  0  0  0  0  0
  128.3240  123.1070   58.4640 C   0  0  0  0  0  0  0  0  0  0  0  0
  128.1410  124.5620   58.4800 N   0  0  0  0  0  0  0  0  0  0  0  0
  128.3090  125.1040   57.1250 C   0  0  0  0  0  0  0  0  0  0  0  0
  129.2870  126.2970   57.1130 C   0  0  0  0  0  0  0  0  0  0  0  0
  130.5320  125.8820   56.5950 O   0  0  0  0  0  0  0  0  0  0  0  0
  129.0640  125.1760   59.4450 C   0  0  0  0  0  0  0  0  0  0  0  0
  128.8440  124.6390   60.8780 C   0  0  0  0  0  0  0  0  0  0  0  0
  129.9910  123.9000   63.6960 C   0  0  0  0  0  0  0  0  0  0  0  0
  131.1050  124.4210   64.4230 C   0  0  0  0  0  0  0  0  0  0  0  0
  131.3040  125.2580   65.5370 C   0  0  0  0  0  0  0  0  0  0  0  0
  130.1870  125.7920   66.1980 N   0  0  0  0  0  0  0  0  0  0  0  0
  130.1930  126.0890   67.6300 C   0  0  0  0  0  0  0  0  0  0  0  0
  128.8090  126.5000   68.1820 C   0  0  2  0  0  0  0  0  0  0  0  0
  128.2270  127.4140   67.2730 O   0  0  0  0  0  0  0  0  0  0  0  0
  128.8810  127.0470   69.6090 C   0  0  0  0  0  0  0  0  0  0  0  0
  130.0400  127.7020   70.0370 C   0  0  0  0  0  0  0  0  0  0  0  0
  130.1110  128.2290   71.3240 C   0  0  0  0  0  0  0  0  0  0  0  0
  129.0210  128.1030   72.1840 C   0  0  0  0  0  0  0  0  0  0  0  0
  129.1100  128.7600   73.7780 Cl  0  0  0  0  0  0  0  0  0  0  0  0
  127.8600  127.4550   71.7640 C   0  0  0  0  0  0  0  0  0  0  0  0
  127.7890  126.9290   70.4770 C   0  0  0  0  0  0  0  0  0  0  0  0
  132.5660  125.5550   65.9570 N   0  0  0  0  0  0  0  0  0  0  0  0
  133.5970  125.0130   65.2650 C   0  0  0  0  0  0  0  0  0  0  0  0
  133.5310  124.1970   64.1810 N   0  0  0  0  0  0  0  0  0  0  0  0
  132.2770  123.9220   63.7910 C   0  0  0  0  0  0  0  0  0  0  0  0
  134.3719  124.3154   62.3089 H   0  0  0  0  0  0  0  0  0  0  0  0
  135.3798  124.0338   60.8489 H   0  0  0  0  0  0  0  0  0  0  0  0
  134.1430  125.3365   60.8489 H   0  0  0  0  0  0  0  0  0  0  0  0
  133.8115  122.6618   59.9465 H   0  0  0  0  0  0  0  0  0  0  0  0
  131.5229  124.5289   60.6446 H   0  0  0  0  0  0  0  0  0  0  0  0
  132.6551  124.8571   59.2892 H   0  0  0  0  0  0  0  0  0  0  0  0
  131.6645  123.3586   59.2892 H   0  0  0  0  0  0  0  0  0  0  0  0
  132.2841  121.5628   61.3743 H   0  0  0  0  0  0  0  0  0  0  0  0
  133.6764  122.0967   62.4156 H   0  0  0  0  0  0  0  0  0  0  0  0
  128.3182  121.4074   59.8251 H   0  0  0  0  0  0  0  0  0  0  0  0
  127.0068  122.5935   60.1225 H   0  0  0  0  0  0  0  0  0  0  0  0
  129.3560  122.8818   58.1571 H   0  0  0  0  0  0  0  0  0  0  0  0
  127.5977  122.6799   57.7568 H   0  0  0  0  0  0  0  0  0  0  0  0
  128.7015  124.3129   56.4692 H   0  0  0  0  0  0  0  0  0  0  0  0
  127.3295  125.4559   56.7691 H   0  0  0  0  0  0  0  0  0  0  0  0
  128.8774  127.1001   56.4827 H   0  0  0  0  0  0  0  0  0  0  0  0
  129.4234  126.6684   58.1394 H   0  0  0  0  0  0  0  0  0  0  0  0
  130.5130  124.9300   56.4760 H   0  0  0  0  0  0  0  0  0  0  0  0
  130.0971  124.9561   59.1379 H   0  0  0  0  0  0  0  0  0  0  0  0
  128.8744  126.2595   59.4550 H   0  0  0  0  0  0  0  0  0  0  0  0
  129.6254  125.0340   61.5439 H   0  0  0  0  0  0  0  0  0  0  0  0
  127.8589  124.9593   61.2480 H   0  0  0  0  0  0  0  0  0  0  0  0
  128.9288  124.0847   63.9140 H   0  0  0  0  0  0  0  0  0  0  0  0
  129.4760  126.2340   65.6340 H   0  0  0  0  0  0  0  0  0  0  0  0
  130.5304  125.1920   68.1699 H   0  0  0  0  0  0  0  0  0  0  0  0
  130.8673  126.9452   67.7793 H   0  0  0  0  0  0  0  0  0  0  0  0
  128.1682  125.6096   68.2630 H   0  0  0  0  0  0  0  0  0  0  0  0
  127.4440  127.0080   66.8920 H   0  0  0  0  0  0  0  0  0  0  0  0
  130.8977  127.8012   69.3554 H   0  0  0  0  0  0  0  0  0  0  0  0
  131.0235  128.7427   71.6608 H   0  0  0  0  0  0  0  0  0  0  0  0
  127.0032  127.3597   72.4472 H   0  0  0  0  0  0  0  0  0  0  0  0
  126.8734  126.4199   70.1416 H   0  0  0  0  0  0  0  0  0  0  0  0
  134.6065  125.2632   65.6232 H   0  0  0  0  0  0  0  0  0  0  0  0
  1  2  1  0
  2  3  1  0
  2  4  1  0
  4  5  1  0
  5  6  1  0
  6  7  1  0
  7  8  2  0
  7  9  1  0
  9 10  1  0
 10 11  1  0
 11 12  1  0
 12 13  1  0
 13 14  1  0
 14 15  1  0
 12 16  1  0
 16 17  1  0
  6 18  2  0
 18 19  1  0
 19 20  2  0
 20 21  1  0
 21 22  1  0
 22 23  1  0
 23 24  1  0
 23 25  1  0
 25 26  2  0
 26 27  1  0
 27 28  2  0
 28 29  1  0
 28 30  1  0
 30 31  2  0
 20 32  1  0
 32 33  2  0
 33 34  1  0
 34 35  2  0
 35  5  1  0
 17  9  1  0
 35 19  1  0
 31 25  1  0
  1 36  1  0
  1 37  1  0
  1 38  1  0
  2 39  1  0
  3 40  1  0
  3 41  1  0
  3 42  1  0
  4 43  1  0
  4 44  1  0
 10 45  1  0
 10 46  1  0
 11 47  1  0
 11 48  1  0
 13 49  1  0
 13 50  1  0
 14 51  1  0
 14 52  1  0
 15 53  1  0
 16 54  1  0
 16 55  1  0
 17 56  1  0
 17 57  1  0
 18 58  1  0
 21 59  1  0
 22 60  1  0
 22 61  1  0
 23 62  1  1
 24 63  1  0
 26 64  1  0
 27 65  1  0
 30 66  1  0
 31 67  1  0
 33 68  1  0
M  END
>  <Binding energies>  (1) 
[-8.06]

>  <Ligand effiencies>  (1) 
[-0.21210526315789474]

>  <Interactions>  (1) 
["V-A:ILE:369:CG2:3237, V-B:PRO:540:CA:9855, V-A:GLY:454:CA:4049, V-B:GLU:543:C:9874, H-A:GLU:543:OE2:4910, V-A:GLU:543:C:4902, V-B:HIS:456:CD2:9039, V-B:GLU:543:CB:9878, H-A:TYR:531:OH:4795, V-B:TYR:539:CE2:9848, V-B:GLU:543:CG:9879, V-A:GLY:544:C:4912, V-B:TYR:539:C:9839, V-A:ASP:366:CG:3213, V-B:TYR:539:CZ:9849, H-B:TYR:539:OH:9850, V-A:GLU:543:CD:4908, V-B:GLU:543:CA:9876, H-A:GLY:454:N:4050, V-B:HIS:456:CE1:9041, V-B:PRO:540:N:9856, V-A:ILE:369:CD1:3239, V-A:HIS:456:CE1:4070, V-B:GLY:544:C:9884, V-B:TYR:539:CD2:9846, V-B:HIS:456:CG:9037, V-A:ARG:545:CD:4923, V-A:LEU:475:CD2:4259, H-A:ARG:545:NH2:4928, V-A:ARG:545:CZ:4926, V-A:GLU:543:CB:4906, H-B:GLU:543:OE2:9882, H-A:ARG:545:NE:4924, V-B:PRO:540:C:9853, H-A:TYR:484:OH:4348"]

$$$$
ZINC1875232139
     RDKit          3D

 63 67  0  0  0  0  0  0  0  0999 V2000
  132.8420  120.6460   60.3680 C   0  0  0  0  0  0  0  0  0  0  0  0
  133.5110  121.4510   61.2080 C   0  0  0  0  0  0  0  0  0  0  0  0
  133.6770  122.9490   61.0250 C   0  0  0  0  0  0  0  0  0  0  0  0
  132.4770  123.5930   60.4730 N   0  0  0  0  0  0  0  0  0  0  0  0
  131.1750  123.5180   60.9710 C   0  0  0  0  0  0  0  0  0  0  0  0
  130.7910  122.8780   62.2180 C   0  0  0  0  0  0  0  0  0  0  0  0
  130.1880  121.8040   62.1670 O   0  0  0  0  0  0  0  0  0  0  0  0
  131.1470  123.4760   63.3930 N   0  0  0  0  0  0  0  0  0  0  0  0
  131.6630  124.8480   63.5270 C   0  0  0  0  0  0  0  0  0  0  0  0
  130.6670  125.6820   64.3640 C   0  0  0  0  0  0  0  0  0  0  0  0
  130.2090  125.0880   65.6360 N   0  0  0  0  0  0  0  0  0  0  0  0
  129.6220  125.8840   66.6280 C   0  0  0  0  0  0  0  0  0  0  0  0
  129.6970  125.5360   67.9890 C   0  0  0  0  0  0  0  0  0  0  0  0
  129.1300  126.3420   68.9720 C   0  0  0  0  0  0  0  0  0  0  0  0
  128.4850  127.5200   68.6110 C   0  0  0  0  0  0  0  0  0  0  0  0
  128.4070  127.8960   67.2750 C   0  0  0  0  0  0  0  0  0  0  0  0
  128.9730  127.0860   66.2940 C   0  0  0  0  0  0  0  0  0  0  0  0
  129.8710  123.6600   65.4880 C   0  0  0  0  0  0  0  0  0  0  0  0
  130.8670  122.8100   64.6710 C   0  0  0  0  0  0  0  0  0  0  0  0
  130.3560  124.3120   60.1690 C   0  0  0  0  0  0  0  0  0  0  0  0
  131.1520  124.8430   59.1110 C   0  0  0  0  0  0  0  0  0  0  0  0
  130.9500  125.6560   57.9820 C   0  0  0  0  0  0  0  0  0  0  0  0
  129.6520  126.1150   57.6910 N   0  0  0  0  0  0  0  0  0  0  0  0
  128.9260  125.6860   56.4990 C   0  0  0  0  0  0  0  0  0  0  0  0
  127.9290  124.5350   56.7650 C   0  0  0  0  0  0  0  0  0  0  0  0
  127.5210  124.3890   58.1780 N   0  0  0  0  0  0  0  0  0  0  0  0
  127.0620  125.4600   58.8640 C   0  0  0  0  0  0  0  0  0  0  0  0
  126.9430  126.6090   58.4390 O   0  0  0  0  0  0  0  0  0  0  0  0
  126.6790  125.0700   60.2830 C   0  0  0  0  0  0  0  0  0  0  0  0
  127.0080  123.3190   60.4830 S   0  0  0  0  0  0  0  0  0  0  0  0
  127.6000  123.1850   58.7860 C   0  0  0  0  0  0  0  0  0  0  0  0
  127.9940  122.1220   58.3060 O   0  0  0  0  0  0  0  0  0  0  0  0
  131.9940  125.9680   57.1630 N   0  0  0  0  0  0  0  0  0  0  0  0
  133.2120  125.4690   57.4890 C   0  0  0  0  0  0  0  0  0  0  0  0
  133.5270  124.6770   58.5470 N   0  0  0  0  0  0  0  0  0  0  0  0
  132.4780  124.3850   59.3310 C   0  0  0  0  0  0  0  0  0  0  0  0
  132.7712  119.5686   60.5782 H   0  0  0  0  0  0  0  0  0  0  0  0
  132.3645  121.0636   59.4693 H   0  0  0  0  0  0  0  0  0  0  0  0
  133.9731  120.9917   62.0943 H   0  0  0  0  0  0  0  0  0  0  0  0
  133.8989  123.3999   62.0035 H   0  0  0  0  0  0  0  0  0  0  0  0
  134.4960  123.1057   60.3075 H   0  0  0  0  0  0  0  0  0  0  0  0
  132.6405  124.8266   64.0310 H   0  0  0  0  0  0  0  0  0  0  0  0
  131.7797  125.2995   62.5308 H   0  0  0  0  0  0  0  0  0  0  0  0
  131.1511  126.6413   64.5994 H   0  0  0  0  0  0  0  0  0  0  0  0
  129.7638  125.7635   63.7414 H   0  0  0  0  0  0  0  0  0  0  0  0
  130.2133  124.6098   68.2818 H   0  0  0  0  0  0  0  0  0  0  0  0
  129.1918  126.0483   70.0303 H   0  0  0  0  0  0  0  0  0  0  0  0
  128.0345  128.1572   69.3862 H   0  0  0  0  0  0  0  0  0  0  0  0
  127.8997  128.8306   66.9936 H   0  0  0  0  0  0  0  0  0  0  0  0
  128.9114  127.3917   65.2391 H   0  0  0  0  0  0  0  0  0  0  0  0
  129.8039  123.2239   66.4956 H   0  0  0  0  0  0  0  0  0  0  0  0
  128.9274  123.6357   64.9231 H   0  0  0  0  0  0  0  0  0  0  0  0
  131.8029  122.6964   65.2378 H   0  0  0  0  0  0  0  0  0  0  0  0
  130.4311  121.8184   64.4794 H   0  0  0  0  0  0  0  0  0  0  0  0
  129.2829  124.4967   60.3250 H   0  0  0  0  0  0  0  0  0  0  0  0
  129.1100  126.4880   58.4570 H   0  0  0  0  0  0  0  0  0  0  0  0
  128.3667  126.5466   56.1035 H   0  0  0  0  0  0  0  0  0  0  0  0
  129.6721  125.3090   55.7840 H   0  0  0  0  0  0  0  0  0  0  0  0
  127.0259  124.7176   56.1642 H   0  0  0  0  0  0  0  0  0  0  0  0
  128.4475  123.6040   56.4923 H   0  0  0  0  0  0  0  0  0  0  0  0
  127.2774  125.6471   61.0033 H   0  0  0  0  0  0  0  0  0  0  0  0
  125.6150  125.2825   60.4642 H   0  0  0  0  0  0  0  0  0  0  0  0
  134.0419  125.7367   56.8185 H   0  0  0  0  0  0  0  0  0  0  0  0
  1  2  2  0
  2  3  1  0
  3  4  1  0
  4  5  1  0
  5  6  1  0
  6  7  2  0
  6  8  1  0
  8  9  1  0
  9 10  1  0
 10 11  1  0
 11 12  1  0
 12 13  2  0
 13 14  1  0
 14 15  2  0
 15 16  1  0
 16 17  2  0
 11 18  1  0
 18 19  1  0
  5 20  2  0
 20 21  1  0
 21 22  2  0
 22 23  1  0
 23 24  1  0
 24 25  1  0
 25 26  1  0
 26 27  1  0
 27 28  2  0
 27 29  1  0
 29 30  1  0
 30 31  1  0
 31 32  2  0
 22 33  1  0
 33 34  2  0
 34 35  1  0
 35 36  2  0
 36  4  1  0
 19  8  1  0
 36 21  1  0
 17 12  1  0
 31 26  1  0
  1 37  1  0
  1 38  1  0
  2 39  1  0
  3 40  1  0
  3 41  1  0
  9 42  1  0
  9 43  1  0
 10 44  1  0
 10 45  1  0
 13 46  1  0
 14 47  1  0
 15 48  1  0
 16 49  1  0
 17 50  1  0
 18 51  1  0
 18 52  1  0
 19 53  1  0
 19 54  1  0
 20 55  1  0
 23 56  1  0
 24 57  1  0
 24 58  1  0
 25 59  1  0
 25 60  1  0
 29 61  1  0
 29 62  1  0
 34 63  1  0
M  END
>  <Binding energies>  (1) 
[-7.33]

>  <Ligand effiencies>  (1) 
[-0.1981081081081081]

>  <Interactions>  (1) 
["V-A:ILE:369:CG2:3237, V-A:ASP:366:CA:3210, V-B:PRO:540:CA:9855, V-B:GLU:543:C:9874, V-B:GLU:543:CB:9878, V-B:TYR:539:CE2:9848, H-A:TYR:531:OH:4795, V-A:TYR:484:CE2:4346, V-B:GLU:543:CG:9879, V-B:TYR:539:CZ:9849, H-B:TYR:539:OH:9850, V-A:TYR:484:CZ:4347, V-A:GLU:543:CD:4908, V-B:GLU:543:CA:9876, V-B:HIS:456:CE1:9041, V-B:PRO:540:N:9856, V-A:ILE:369:CD1:3239, V-A:HIS:456:CE1:4070, V-A:ASP:366:C:3208, V-B:TYR:539:CD2:9846, V-A:SER:385:CB:3409, V-B:GLU:543:CD:9880, H-B:TYR:531:OH:9767, V-A:ASP:366:CB:3212, V-A:LEU:475:CD2:4259, V-A:GLU:543:CB:4906"]

$$$$
ZINC1875241662
     RDKit          3D

 93 96  0  0  0  0  0  0  0  0999 V2000
  125.8360  123.6780   61.2270 C   0  0  0  0  0  0  0  0  0  0  0  0
  126.5470  122.9270   62.2000 O   0  0  0  0  0  0  0  0  0  0  0  0
  127.9380  122.8250   61.9300 C   0  0  0  0  0  0  0  0  0  0  0  0
  128.6960  123.7530   62.9060 C   0  0  0  0  0  0  0  0  0  0  0  0
  130.2360  123.9530   62.6850 C   0  0  1  0  0  0  0  0  0  0  0  0
  130.6900  123.0880   61.4600 C   0  0  0  0  0  0  0  0  0  0  0  0
  130.6380  123.5510   60.3180 O   0  0  0  0  0  0  0  0  0  0  0  0
  131.0810  121.8190   61.6940 N   0  0  0  0  0  0  0  0  0  0  0  0
  131.5240  120.8540   60.6860 C   0  0  0  0  0  0  0  0  0  0  0  0
  132.9990  121.0580   60.2570 C   0  0  0  0  0  0  0  0  0  0  0  0
  133.3830  122.5400   60.0910 C   0  0  0  0  0  0  0  0  0  0  0  0
  133.9720  122.5290   61.5080 C   0  0  0  0  0  0  0  0  0  0  0  0
  134.0200  120.9990   61.4090 C   0  0  0  0  0  0  0  0  0  0  0  0
  130.5090  125.4730   62.3980 C   0  0  0  0  0  0  0  0  0  0  0  0
  130.2590  126.3660   63.5350 N   0  0  0  0  0  0  0  0  0  0  0  0
  129.1490  127.0870   63.7670 C   0  0  0  0  0  0  0  0  0  0  0  0
  129.0260  127.7230   64.8120 O   0  0  0  0  0  0  0  0  0  0  0  0
  128.0190  127.1400   62.7230 C   0  0  0  0  0  0  0  0  0  0  0  0
  128.2280  128.2450   61.6660 C   0  0  0  0  0  0  0  0  0  0  0  0
  129.1040  129.3880   62.2090 C   0  0  0  0  0  0  0  0  0  0  0  0
  128.3460  130.5100   62.7910 N   0  0  0  0  0  0  0  0  0  0  0  0
  127.4440  131.2500   62.0870 C   0  0  0  0  0  0  0  0  0  0  0  0
  126.3440  131.5880   62.5280 O   0  0  0  0  0  0  0  0  0  0  0  0
  127.8260  131.7060   60.6990 C   0  0  0  0  0  0  0  0  0  0  0  0
  127.0820  131.3120   59.5650 C   0  0  0  0  0  0  0  0  0  0  0  0
  125.8560  130.4100   59.6710 C   0  0  0  0  0  0  0  0  0  0  0  0
  127.4740  131.7550   58.2970 C   0  0  0  0  0  0  0  0  0  0  0  0
  128.5830  132.5850   58.1460 C   0  0  0  0  0  0  0  0  0  0  0  0
  129.3100  132.9850   59.2640 C   0  0  0  0  0  0  0  0  0  0  0  0
  128.9330  132.5550   60.5360 C   0  0  0  0  0  0  0  0  0  0  0  0
  129.6590  132.9690   61.6040 F   0  0  0  0  0  0  0  0  0  0  0  0
  128.5550  130.7010   64.2380 C   0  0  0  0  0  0  0  0  0  0  0  0
  127.5700  129.9590   65.1700 C   0  0  0  0  0  0  0  0  0  0  0  0
  128.1920  129.6610   66.5470 C   0  0  0  0  0  0  0  0  0  0  0  0
  127.5990  128.5110   67.2300 N   0  0  0  0  0  0  0  0  0  0  0  0
  128.1970  127.6660   68.0920 C   0  0  0  0  0  0  0  0  0  0  0  0
  127.6070  126.6670   68.4960 O   0  0  0  0  0  0  0  0  0  0  0  0
  129.6320  127.9320   68.5790 C   0  0  0  0  0  0  0  0  0  0  0  0
  130.3120  126.6820   68.6600 O   0  0  0  0  0  0  0  0  0  0  0  0
  130.5500  125.9550   67.5120 C   0  0  0  0  0  0  0  0  0  0  0  0
  129.4540  125.2860   66.9690 C   0  0  0  0  0  0  0  0  0  0  0  0
  129.5970  124.5080   65.8260 C   0  0  0  0  0  0  0  0  0  0  0  0
  130.8480  124.3780   65.2190 C   0  0  0  0  0  0  0  0  0  0  0  0
  131.9430  125.0740   65.7360 C   0  0  0  0  0  0  0  0  0  0  0  0
  131.7990  125.8570   66.8780 C   0  0  0  0  0  0  0  0  0  0  0  0
  131.0090  123.4930   63.9820 C   0  0  0  0  0  0  0  0  0  0  0  0
  125.1638  124.3880   61.7311 H   0  0  0  0  0  0  0  0  0  0  0  0
  126.5489  124.2314   60.5981 H   0  0  0  0  0  0  0  0  0  0  0  0
  125.2445  122.9964   60.5981 H   0  0  0  0  0  0  0  0  0  0  0  0
  128.2687  121.7858   62.0737 H   0  0  0  0  0  0  0  0  0  0  0  0
  128.1432  123.1223   60.8910 H   0  0  0  0  0  0  0  0  0  0  0  0
  128.2253  124.7454   62.8461 H   0  0  0  0  0  0  0  0  0  0  0  0
  128.6214  123.2474   63.8801 H   0  0  0  0  0  0  0  0  0  0  0  0
  131.0480  121.4780   62.6440 H   0  0  0  0  0  0  0  0  0  0  0  0
  131.4167  119.8407   61.1003 H   0  0  0  0  0  0  0  0  0  0  0  0
  130.8989  121.0018   59.7930 H   0  0  0  0  0  0  0  0  0  0  0  0
  133.0350  120.3391   59.4252 H   0  0  0  0  0  0  0  0  0  0  0  0
  134.1204  122.7291   59.2970 H   0  0  0  0  0  0  0  0  0  0  0  0
  132.6293  123.2870   59.8013 H   0  0  0  0  0  0  0  0  0  0  0  0
  134.9555  123.0132   61.5990 H   0  0  0  0  0  0  0  0  0  0  0  0
  133.4712  123.0376   62.3450 H   0  0  0  0  0  0  0  0  0  0  0  0
  135.0022  120.5958   61.1215 H   0  0  0  0  0  0  0  0  0  0  0  0
  133.8338  120.3723   62.2936 H   0  0  0  0  0  0  0  0  0  0  0  0
  131.5628  125.5819   62.1020 H   0  0  0  0  0  0  0  0  0  0  0  0
  129.8045  125.7714   61.6077 H   0  0  0  0  0  0  0  0  0  0  0  0
  130.9890  126.3950   64.2330 H   0  0  0  0  0  0  0  0  0  0  0  0
  127.9697  126.1683   62.2097 H   0  0  0  0  0  0  0  0  0  0  0  0
  127.0857  127.3683   63.2586 H   0  0  0  0  0  0  0  0  0  0  0  0
  128.7182  127.8074   60.7838 H   0  0  0  0  0  0  0  0  0  0  0  0
  127.2441  128.6602   61.4023 H   0  0  0  0  0  0  0  0  0  0  0  0
  129.7628  128.9767   62.9879 H   0  0  0  0  0  0  0  0  0  0  0  0
  129.6585  129.7946   61.3504 H   0  0  0  0  0  0  0  0  0  0  0  0
  125.6194  130.2359   60.7311 H   0  0  0  0  0  0  0  0  0  0  0  0
  125.0001  130.8953   59.1792 H   0  0  0  0  0  0  0  0  0  0  0  0
  126.0646  129.4484   59.1792 H   0  0  0  0  0  0  0  0  0  0  0  0
  126.9011  131.4450   57.4106 H   0  0  0  0  0  0  0  0  0  0  0  0
  128.8840  132.9241   57.1438 H   0  0  0  0  0  0  0  0  0  0  0  0
  130.1841  133.6419   59.1437 H   0  0  0  0  0  0  0  0  0  0  0  0
  129.5712  130.3559   64.4795 H   0  0  0  0  0  0  0  0  0  0  0  0
  128.3870  131.7723   64.4224 H   0  0  0  0  0  0  0  0  0  0  0  0
  126.6761  130.5841   65.3119 H   0  0  0  0  0  0  0  0  0  0  0  0
  127.3135  128.9990   64.6981 H   0  0  0  0  0  0  0  0  0  0  0  0
  129.2653  129.4648   66.4069 H   0  0  0  0  0  0  0  0  0  0  0  0
  128.0020  130.5405   67.1798 H   0  0  0  0  0  0  0  0  0  0  0  0
  126.6540  128.2880   66.9530 H   0  0  0  0  0  0  0  0  0  0  0  0
  130.1502  128.5928   67.8685 H   0  0  0  0  0  0  0  0  0  0  0  0
  129.6151  128.4207   69.5643 H   0  0  0  0  0  0  0  0  0  0  0  0
  128.4682  125.3745   67.4489 H   0  0  0  0  0  0  0  0  0  0  0  0
  128.7234  123.9939   65.3989 H   0  0  0  0  0  0  0  0  0  0  0  0
  132.9220  125.0033   65.2394 H   0  0  0  0  0  0  0  0  0  0  0  0
  132.6651  126.3998   67.2844 H   0  0  0  0  0  0  0  0  0  0  0  0
  132.0805  123.4526   63.7365 H   0  0  0  0  0  0  0  0  0  0  0  0
  130.5680  122.5235   64.2568 H   0  0  0  0  0  0  0  0  0  0  0  0
  1  2  1  0
  2  3  1  0
  3  4  1  0
  5  4  1  1
  5  6  1  0
  6  7  2  0
  6  8  1  0
  8  9  1  0
  9 10  1  0
 10 11  1  0
 11 12  1  0
 12 13  1  0
  5 14  1  0
 14 15  1  0
 15 16  1  0
 16 17  2  0
 16 18  1  0
 18 19  1  0
 19 20  1  0
 20 21  1  0
 21 22  1  0
 22 23  2  0
 22 24  1  0
 24 25  2  0
 25 26  1  0
 25 27  1  0
 27 28  2  0
 28 29  1  0
 29 30  2  0
 30 31  1  0
 21 32  1  0
 32 33  1  0
 33 34  1  0
 34 35  1  0
 35 36  1  0
 36 37  2  0
 36 38  1  0
 38 39  1  0
 39 40  1  0
 40 41  2  0
 41 42  1  0
 42 43  2  0
 43 44  1  0
 44 45  2  0
 43 46  1  0
 46  5  1  0
 13 10  1  0
 30 24  1  0
 45 40  1  0
  1 47  1  0
  1 48  1  0
  1 49  1  0
  3 50  1  0
  3 51  1  0
  4 52  1  0
  4 53  1  0
  8 54  1  0
  9 55  1  0
  9 56  1  0
 10 57  1  0
 11 58  1  0
 11 59  1  0
 12 60  1  0
 12 61  1  0
 13 62  1  0
 13 63  1  0
 14 64  1  0
 14 65  1  0
 15 66  1  0
 18 67  1  0
 18 68  1  0
 19 69  1  0
 19 70  1  0
 20 71  1  0
 20 72  1  0
 26 73  1  0
 26 74  1  0
 26 75  1  0
 27 76  1  0
 28 77  1  0
 29 78  1  0
 32 79  1  0
 32 80  1  0
 33 81  1  0
 33 82  1  0
 34 83  1  0
 34 84  1  0
 35 85  1  0
 38 86  1  0
 38 87  1  0
 41 88  1  0
 42 89  1  0
 44 90  1  0
 45 91  1  0
 46 92  1  0
 46 93  1  0
M  END
>  <Binding energies>  (1) 
[-3.83]

>  <Ligand effiencies>  (1) 
[-0.07509803921568628]

>  <Interactions>  (1) 
["V-A:ILE:369:CG2:3237, V-B:PRO:540:CA:9855, H-A:GLU:543:OE2:4910, V-A:ILE:369:CB:3236, V-B:GLU:543:CB:9878, V-A:PRO:540:C:4881, V-B:ALA:541:CB:9864, V-B:TYR:539:CE2:9848, V-A:TYR:484:CE2:4346, V-B:GLU:543:CG:9879, V-A:TYR:539:CD1:4873, V-B:TYR:484:CE2:9317, V-A:ALA:541:CB:4892, H-B:ALA:541:N:9863, V-A:GLU:543:CD:4908, V-B:PRO:540:CB:9857, V-A:TYR:484:CZ:4347, H-B:TYR:484:OH:9319, V-B:GLU:543:CA:9876, V-A:ARG:545:CG:4922, V-A:SER:385:C:3405, V-B:HIS:456:CE1:9041, V-A:ILE:369:CD1:3239, V-A:HIS:456:CE1:4070, V-B:TYR:484:CZ:9318, V-B:TYR:539:CD2:9846, V-A:GLU:543:CG:4907, V-A:SER:385:CB:3409, V-B:GLU:543:CD:9880, V-A:TYR:539:C:4867, V-A:LEU:475:CD2:4259, H-A:GLU:543:OE1:4909, V-A:GLU:543:CB:4906, V-A:PRO:540:N:4884, H-B:GLU:543:OE2:9882, V-A:PRO:540:CA:4883, V-A:SER:385:CA:3407, V-A:TYR:539:CE1:4875"]

$$$$
ZINC1875251645
     RDKit          3D

104110  0  0  0  0  0  0  0  0999 V2000
  132.5390  120.0710   59.8020 C   0  0  0  0  0  0  0  0  0  0  0  0
  133.4260  121.0100   60.4000 O   0  0  0  0  0  0  0  0  0  0  0  0
  132.9130  122.0440   61.1630 C   0  0  0  0  0  0  0  0  0  0  0  0
  131.8790  121.8790   62.1020 C   0  0  0  0  0  0  0  0  0  0  0  0
  131.3590  122.9730   62.7930 C   0  0  0  0  0  0  0  0  0  0  0  0
  131.8700  124.2530   62.5700 C   0  0  0  0  0  0  0  0  0  0  0  0
  132.9380  124.4120   61.6840 C   0  0  0  0  0  0  0  0  0  0  0  0
  133.4440  123.3300   60.9650 C   0  0  0  0  0  0  0  0  0  0  0  0
  134.3950  123.6060   60.0100 O   0  0  0  0  0  0  0  0  0  0  0  0
  134.2680  124.8250   59.2840 C   0  0  0  0  0  0  0  0  0  0  0  0
  133.5690  124.6130   57.9220 C   0  0  0  0  0  0  0  0  0  0  0  0
  133.9660  123.6840   57.2220 O   0  0  0  0  0  0  0  0  0  0  0  0
  132.5300  125.3580   57.4860 N   0  0  0  0  0  0  0  0  0  0  0  0
  131.8710  126.5160   58.0930 C   0  0  0  0  0  0  0  0  0  0  0  0
  130.4110  126.1980   58.5140 C   0  0  0  0  0  0  0  0  0  0  0  0
  129.3360  126.7860   57.6870 N   0  0  0  0  0  0  0  0  0  0  0  0
  128.8700  128.0500   57.9020 C   0  0  0  0  0  0  0  0  0  0  0  0
  129.1940  128.9940   57.1780 O   0  0  0  0  0  0  0  0  0  0  0  0
  127.8790  128.3020   59.0670 C   0  0  0  0  0  0  0  0  0  0  0  0
  128.3010  129.3190   60.1280 C   0  0  0  0  0  0  0  0  0  0  0  0
  129.3500  130.2380   60.2250 C   0  0  0  0  0  0  0  0  0  0  0  0
  129.3960  130.8900   61.3640 N   0  0  0  0  0  0  0  0  0  0  0  0
  128.3800  130.3680   62.0960 C   0  0  0  0  0  0  0  0  0  0  0  0
  127.9620  130.6620   63.4130 C   0  0  0  0  0  0  0  0  0  0  0  0
  128.6450  131.7110   64.2750 C   0  0  0  0  0  0  0  0  0  0  0  0
  126.8760  129.9490   63.9370 C   0  0  0  0  0  0  0  0  0  0  0  0
  126.2190  128.9720   63.1960 C   0  0  0  0  0  0  0  0  0  0  0  0
  126.6340  128.6870   61.9000 C   0  0  0  0  0  0  0  0  0  0  0  0
  127.6920  129.3780   61.3640 N   0  0  0  0  0  0  0  0  0  0  0  0
  128.6150  125.8010   56.8630 C   0  0  0  0  0  0  0  0  0  0  0  0
  128.0170  124.6480   57.7050 C   0  0  0  0  0  0  0  0  0  0  0  0
  128.6260  124.3930   59.1120 C   0  0  0  0  0  0  0  0  0  0  0  0
  127.6630  124.3470   60.3160 C   0  0  0  0  0  0  0  0  0  0  0  0
  126.6370  123.6770   60.2280 O   0  0  0  0  0  0  0  0  0  0  0  0
  127.9200  125.0390   61.4420 N   0  0  0  0  0  0  0  0  0  0  0  0
  129.1670  125.7200   61.8140 C   0  0  0  0  0  0  0  0  0  0  0  0
  129.6790  125.5200   63.2790 C   0  0  2  0  0  0  0  0  0  0  0  0
  129.0890  124.1660   63.8260 C   0  0  0  0  0  0  0  0  0  0  0  0
  129.8390  123.4650   64.9850 C   0  0  0  0  0  0  0  0  0  0  0  0
  129.5020  123.8000   66.4190 C   0  0  0  0  0  0  0  0  0  0  0  0
  129.1190  122.4510   65.8380 C   0  0  0  0  0  0  0  0  0  0  0  0
  129.2440  126.7760   64.1030 C   0  0  0  0  0  0  0  0  0  0  0  0
  129.1150  127.8610   63.5320 O   0  0  0  0  0  0  0  0  0  0  0  0
  128.9540  126.6240   65.4090 N   0  0  0  0  0  0  0  0  0  0  0  0
  128.4330  127.6630   66.2940 C   0  0  0  0  0  0  0  0  0  0  0  0
  128.9230  127.4660   67.7130 C   0  0  0  0  0  0  0  0  0  0  0  0
  130.2520  127.5440   68.0680 N   0  0  0  0  0  0  0  0  0  0  0  0
  130.4960  127.3270   69.3700 N   0  0  0  0  0  0  0  0  0  0  0  0
  129.3030  127.1040   69.8600 C   0  0  0  0  0  0  0  0  0  0  0  0
  128.2960  127.1730   68.9140 C   0  0  0  0  0  0  0  0  0  0  0  0
  126.9550  126.8590   69.5210 C   0  0  0  0  0  0  0  0  0  0  0  0
  127.2500  126.9940   71.0270 C   0  0  0  0  0  0  0  0  0  0  0  0
  128.7670  126.8130   71.2360 C   0  0  0  0  0  0  0  0  0  0  0  0
  131.2550  125.4740   63.2560 C   0  0  0  0  0  0  0  0  0  0  0  0
  132.0113  119.5124   60.5891 H   0  0  0  0  0  0  0  0  0  0  0  0
  131.8072  120.6042   59.1774 H   0  0  0  0  0  0  0  0  0  0  0  0
  133.1130  119.3707   59.1774 H   0  0  0  0  0  0  0  0  0  0  0  0
  131.4752  120.8739   62.2938 H   0  0  0  0  0  0  0  0  0  0  0  0
  130.5433  122.8269   63.5164 H   0  0  0  0  0  0  0  0  0  0  0  0
  133.3873  125.4073   61.5513 H   0  0  0  0  0  0  0  0  0  0  0  0
  133.6764  125.5347   59.8809 H   0  0  0  0  0  0  0  0  0  0  0  0
  135.2785  125.2150   59.0921 H   0  0  0  0  0  0  0  0  0  0  0  0
  132.1460  125.0930   56.5900 H   0  0  0  0  0  0  0  0  0  0  0  0
  132.4392  126.8217   58.9839 H   0  0  0  0  0  0  0  0  0  0  0  0
  131.8416  127.3218   57.3448 H   0  0  0  0  0  0  0  0  0  0  0  0
  130.2885  125.1051   58.4910 H   0  0  0  0  0  0  0  0  0  0  0  0
  130.2920  126.6543   59.5078 H   0  0  0  0  0  0  0  0  0  0  0  0
  126.9332  128.6528   58.6284 H   0  0  0  0  0  0  0  0  0  0  0  0
  127.8142  127.3421   59.6003 H   0  0  0  0  0  0  0  0  0  0  0  0
  130.0761  130.4013   59.4150 H   0  0  0  0  0  0  0  0  0  0  0  0
  128.4888  131.4711   65.3371 H   0  0  0  0  0  0  0  0  0  0  0  0
  129.7229  131.7205   64.0559 H   0  0  0  0  0  0  0  0  0  0  0  0
  128.2176  132.7006   64.0559 H   0  0  0  0  0  0  0  0  0  0  0  0
  126.5343  130.1670   64.9596 H   0  0  0  0  0  0  0  0  0  0  0  0
  125.3716  128.4252   63.6352 H   0  0  0  0  0  0  0  0  0  0  0  0
  126.1192  127.9148   61.3096 H   0  0  0  0  0  0  0  0  0  0  0  0
  127.7971  126.3136   56.3355 H   0  0  0  0  0  0  0  0  0  0  0  0
  129.3372  125.3613   56.1594 H   0  0  0  0  0  0  0  0  0  0  0  0
  126.9470  124.8624   57.8436 H   0  0  0  0  0  0  0  0  0  0  0  0
  128.2455  123.7368   57.1327 H   0  0  0  0  0  0  0  0  0  0  0  0
  129.1484  123.4257   59.0728 H   0  0  0  0  0  0  0  0  0  0  0  0
  129.2630  125.2697   59.3007 H   0  0  0  0  0  0  0  0  0  0  0  0
  127.2350  124.9730   62.1800 H   0  0  0  0  0  0  0  0  0  0  0  0
  129.9553  125.3616   61.1357 H   0  0  0  0  0  0  0  0  0  0  0  0
  128.9390  126.7933   61.7364 H   0  0  0  0  0  0  0  0  0  0  0  0
  128.0661  124.3714   64.1745 H   0  0  0  0  0  0  0  0  0  0  0  0
  129.1725  123.4671   62.9807 H   0  0  0  0  0  0  0  0  0  0  0  0
  130.7627  123.4633   64.3877 H   0  0  0  0  0  0  0  0  0  0  0  0
  130.3018  123.8687   67.1711 H   0  0  0  0  0  0  0  0  0  0  0  0
  128.9600  124.6140   66.9226 H   0  0  0  0  0  0  0  0  0  0  0  0
  129.6406  121.5410   66.1694 H   0  0  0  0  0  0  0  0  0  0  0  0
  128.1830  121.8805   65.7460 H   0  0  0  0  0  0  0  0  0  0  0  0
  129.1010  125.7170   65.8280 H   0  0  0  0  0  0  0  0  0  0  0  0
  128.7687  128.6457   65.9311 H   0  0  0  0  0  0  0  0  0  0  0  0
  127.3345  127.6050   66.2923 H   0  0  0  0  0  0  0  0  0  0  0  0
  130.9990  127.7470   67.4190 H   0  0  0  0  0  0  0  0  0  0  0  0
  126.1901  127.5799   69.1967 H   0  0  0  0  0  0  0  0  0  0  0  0
  126.5551  125.8758   69.2323 H   0  0  0  0  0  0  0  0  0  0  0  0
  126.9411  127.9891   71.3797 H   0  0  0  0  0  0  0  0  0  0  0  0
  126.6937  126.2331   71.5941 H   0  0  0  0  0  0  0  0  0  0  0  0
  129.1573  127.5260   71.9771 H   0  0  0  0  0  0  0  0  0  0  0  0
  129.0487  125.8231   71.6242 H   0  0  0  0  0  0  0  0  0  0  0  0
  131.6123  126.3726   62.7318 H   0  0  0  0  0  0  0  0  0  0  0  0
  131.5701  125.4187   64.3085 H   0  0  0  0  0  0  0  0  0  0  0  0
  1  2  1  0
  2  3  1  0
  3  4  2  0
  4  5  1  0
  5  6  2  0
  6  7  1  0
  7  8  2  0
  8  9  1  0
  9 10  1  0
 10 11  1  0
 11 12  2  0
 11 13  1  0
 13 14  1  0
 14 15  1  0
 15 16  1  0
 16 17  1  0
 17 18  2  0
 17 19  1  0
 19 20  1  0
 20 21  2  0
 21 22  1  0
 22 23  2  0
 23 24  1  0
 24 25  1  0
 24 26  2  0
 26 27  1  0
 27 28  2  0
 28 29  1  0
 16 30  1  0
 30 31  1  0
 31 32  1  0
 32 33  1  0
 33 34  2  0
 33 35  1  0
 35 36  1  0
 36 37  1  0
 37 38  1  1
 38 39  1  0
 39 40  1  0
 40 41  1  0
 37 42  1  0
 42 43  2  0
 42 44  1  0
 44 45  1  0
 45 46  1  0
 46 47  1  0
 47 48  1  0
 48 49  2  0
 49 50  1  0
 50 51  1  0
 51 52  1  0
 52 53  1  0
 37 54  1  0
  8  3  1  0
 29 20  1  0
 41 39  1  0
 50 46  2  0
 54  6  1  0
 29 23  1  0
 53 49  1  0
  1 55  1  0
  1 56  1  0
  1 57  1  0
  4 58  1  0
  5 59  1  0
  7 60  1  0
 10 61  1  0
 10 62  1  0
 13 63  1  0
 14 64  1  0
 14 65  1  0
 15 66  1  0
 15 67  1  0
 19 68  1  0
 19 69  1  0
 21 70  1  0
 25 71  1  0
 25 72  1  0
 25 73  1  0
 26 74  1  0
 27 75  1  0
 28 76  1  0
 30 77  1  0
 30 78  1  0
 31 79  1  0
 31 80  1  0
 32 81  1  0
 32 82  1  0
 35 83  1  0
 36 84  1  0
 36 85  1  0
 38 86  1  0
 38 87  1  0
 39 88  1  0
 40 89  1  0
 40 90  1  0
 41 91  1  0
 41 92  1  0
 44 93  1  0
 45 94  1  0
 45 95  1  0
 47 96  1  0
 51 97  1  0
 51 98  1  0
 52 99  1  0
 52100  1  0
 53101  1  0
 53102  1  0
 54103  1  0
 54104  1  0
M  END
>  <Binding energies>  (1) 
[-4.79]

>  <Ligand effiencies>  (1) 
[-0.07983333333333334]

>  <Interactions>  (1) 
["V-A:ILE:369:CG2:3237, V-A:ASP:366:CA:3210, V-B:GLU:543:C:9874, H-A:GLU:543:OE2:4910, V-A:ILE:369:CB:3236, V-B:HIS:456:CD2:9039, V-B:GLU:543:CB:9878, V-B:ALA:541:CB:9864, H-A:TYR:531:OH:4795, V-B:TYR:539:CE2:9848, V-A:TYR:484:CE2:4346, V-B:GLU:543:CG:9879, V-A:ASP:366:CG:3213, V-B:TYR:539:CZ:9849, H-B:GLU:543:OE1:9881, H-A:ASN:370:N:3244, H-B:TYR:539:OH:9850, V-A:ALA:541:CB:4892, V-A:TYR:484:CZ:4347, V-A:GLU:543:CD:4908, V-B:GLU:543:CA:9876, V-B:HIS:456:CE1:9041, V-A:TYR:484:CD2:4344, V-A:ILE:369:CD1:3239, V-A:HIS:456:CE1:4070, V-A:ASP:366:C:3208, V-B:GLY:544:C:9884, V-B:TYR:539:CD2:9846, V-A:GLU:543:CG:4907, V-A:SER:385:CB:3409, H-A:SER:385:OG:3410, V-B:GLU:543:CD:9880, V-B:GLY:544:CA:9886, V-A:ASP:366:CB:3212, V-A:LEU:475:CD2:4259, V-B:VAL:542:C:9866, V-A:GLU:543:CB:4906, H-B:GLU:543:OE2:9882"]

$$$$
ZINC1875251768
     RDKit          3D

 44 49  0  0  0  0  0  0  0  0999 V2000
  129.8730  121.6520   65.0190 N   0  0  0  0  0  0  0  0  0  0  0  0
  129.5160  122.5550   64.3860 C   0  0  0  0  0  0  0  0  0  0  0  0
  129.0600  123.7030   63.5810 C   0  0  0  0  0  0  0  0  0  0  0  0
  128.3540  123.2690   62.3050 C   0  0  0  0  0  0  0  0  0  0  0  0
  128.8500  122.9880   61.1690 N   0  0  0  0  0  0  0  0  0  0  0  0
  127.7470  122.7990   60.2680 C   0  0  2  0  0  0  0  0  0  0  0  0
  127.7340  123.8210   59.1450 C   0  0  0  0  0  0  0  0  0  0  0  0
  128.6290  123.9810   58.0850 C   0  0  0  0  0  0  0  0  0  0  0  0
  128.4430  125.0180   57.1680 C   0  0  0  0  0  0  0  0  0  0  0  0
  127.3660  125.8940   57.3120 C   0  0  0  0  0  0  0  0  0  0  0  0
  126.4690  125.7340   58.3690 C   0  0  0  0  0  0  0  0  0  0  0  0
  126.6480  124.6910   59.2800 C   0  0  0  0  0  0  0  0  0  0  0  0
  125.8290  124.3520   60.5040 C   0  0  0  0  0  0  0  0  0  0  0  0
  126.4760  123.0700   61.0530 C   0  0  2  0  0  0  0  0  0  0  0  0
  126.9890  123.2290   62.3550 O   0  0  0  0  0  0  0  0  0  0  0  0
  130.2280  124.5760   63.1490 C   0  0  0  0  0  0  0  0  0  0  0  0
  130.2740  125.4010   62.1830 N   0  0  0  0  0  0  0  0  0  0  0  0
  131.6410  125.8280   62.0680 C   0  0  2  0  0  0  0  0  0  0  0  0
  132.2560  125.4380   60.7370 C   0  0  0  0  0  0  0  0  0  0  0  0
  131.9610  125.9030   59.4530 C   0  0  0  0  0  0  0  0  0  0  0  0
  132.6360  125.3780   58.3510 C   0  0  0  0  0  0  0  0  0  0  0  0
  133.6040  124.3900   58.5280 C   0  0  0  0  0  0  0  0  0  0  0  0
  133.9050  123.9270   59.8090 C   0  0  0  0  0  0  0  0  0  0  0  0
  133.2380  124.4580   60.9140 C   0  0  0  0  0  0  0  0  0  0  0  0
  133.3770  124.0880   62.3750 C   0  0  0  0  0  0  0  0  0  0  0  0
  132.4410  125.0620   63.1080 C   0  0  2  0  0  0  0  0  0  0  0  0
  131.4120  124.4070   63.8120 O   0  0  0  0  0  0  0  0  0  0  0  0
  128.3674  124.2562   64.2323 H   0  0  0  0  0  0  0  0  0  0  0  0
  127.8275  121.7845   59.8505 H   0  0  0  0  0  0  0  0  0  0  0  0
  129.4788  123.2917   57.9725 H   0  0  0  0  0  0  0  0  0  0  0  0
  129.1460  125.1444   56.3315 H   0  0  0  0  0  0  0  0  0  0  0  0
  127.2239  126.7123   56.5907 H   0  0  0  0  0  0  0  0  0  0  0  0
  125.6231  126.4277   58.4842 H   0  0  0  0  0  0  0  0  0  0  0  0
  125.8823  125.1632   61.2451 H   0  0  0  0  0  0  0  0  0  0  0  0
  124.7624  124.2171   60.2711 H   0  0  0  0  0  0  0  0  0  0  0  0
  125.6929  122.2992   61.0025 H   0  0  0  0  0  0  0  0  0  0  0  0
  131.6612  126.9216   62.1845 H   0  0  0  0  0  0  0  0  0  0  0  0
  131.1975  126.6821   59.3113 H   0  0  0  0  0  0  0  0  0  0  0  0
  132.4042  125.7442   57.3400 H   0  0  0  0  0  0  0  0  0  0  0  0
  134.1310  123.9751   57.6562 H   0  0  0  0  0  0  0  0  0  0  0  0
  134.6663  123.1452   59.9479 H   0  0  0  0  0  0  0  0  0  0  0  0
  133.0648  123.0469   62.5441 H   0  0  0  0  0  0  0  0  0  0  0  0
  134.4163  124.1601   62.7282 H   0  0  0  0  0  0  0  0  0  0  0  0
  133.0888  125.6563   63.7692 H   0  0  0  0  0  0  0  0  0  0  0  0
  1  2  3  0
  2  3  1  0
  3  4  1  0
  4  5  2  0
  5  6  1  0
  6  7  1  0
  7  8  2  0
  8  9  1  0
  9 10  2  0
 10 11  1  0
 11 12  2  0
 12 13  1  0
 13 14  1  0
 14 15  1  0
  3 16  1  0
 16 17  2  0
 17 18  1  0
 18 19  1  0
 19 20  2  0
 20 21  1  0
 21 22  2  0
 22 23  1  0
 23 24  2  0
 24 25  1  0
 25 26  1  0
 26 27  1  0
 15  4  1  0
 27 16  1  0
 14  6  1  0
 26 18  1  0
 12  7  1  0
 24 19  1  0
  3 28  1  0
  6 29  1  6
  8 30  1  0
  9 31  1  0
 10 32  1  0
 11 33  1  0
 13 34  1  0
 13 35  1  0
 14 36  1  1
 18 37  1  1
 20 38  1  0
 21 39  1  0
 22 40  1  0
 23 41  1  0
 25 42  1  0
 25 43  1  0
 26 44  1  1
M  END
>  <Binding energies>  (1) 
[-6.97]

>  <Ligand effiencies>  (1) 
[-0.2581481481481481]

>  <Interactions>  (1) 
["V-A:ILE:369:CG2:3237, V-A:ASP:366:CA:3210, V-B:PRO:540:CA:9855, V-A:ILE:369:CB:3236, V-B:ALA:541:CB:9864, V-B:TYR:539:CE2:9848, V-A:TYR:484:CE2:4346, V-B:GLU:543:CG:9879, V-A:ASP:366:CG:3213, V-B:TYR:539:CZ:9849, H-B:ALA:541:N:9863, V-B:PRO:540:CB:9857, V-B:PRO:540:N:9856, V-A:ILE:369:CD1:3239, V-A:ASP:366:C:3208, V-B:TYR:539:CD2:9846, V-B:GLU:543:CD:9880, V-A:ASP:366:CB:3212, V-A:LEU:475:CD2:4259, V-A:ARG:545:CZ:4926, V-B:PRO:540:C:9853, H-A:TYR:484:OH:4348"]

$$$$
ZINC1875294120
     RDKit          3D

 90 91  0  0  0  0  0  0  0  0999 V2000
  129.4600  121.1850   61.2590 C   0  0  0  0  0  0  0  0  0  0  0  0
  129.3040  122.1820   62.1440 C   0  0  0  0  0  0  0  0  0  0  0  0
  129.7620  122.1390   63.5860 C   0  0  0  0  0  0  0  0  0  0  0  0
  129.3770  123.3380   64.2450 O   0  0  0  0  0  0  0  0  0  0  0  0
  130.1270  123.6670   65.4150 C   0  0  0  0  0  0  0  0  0  0  0  0
  130.4940  125.1820   65.5880 C   0  0  1  0  0  0  0  0  0  0  0  0
  130.0420  125.6280   67.0090 C   0  0  0  0  0  0  0  0  0  0  0  0
  129.9460  124.7870   67.9060 O   0  0  0  0  0  0  0  0  0  0  0  0
  129.7630  126.9350   67.2060 N   0  0  0  0  0  0  0  0  0  0  0  0
  129.2700  127.6140   68.4200 C   0  0  0  0  0  0  0  0  0  0  0  0
  128.4410  128.8800   68.0010 C   0  0  0  0  0  0  0  0  0  0  0  0
  127.6310  128.7450   66.7860 N   0  0  0  0  0  0  0  0  0  0  0  0
  127.6280  129.5940   65.7420 C   0  0  0  0  0  0  0  0  0  0  0  0
  128.2980  130.6260   65.7010 O   0  0  0  0  0  0  0  0  0  0  0  0
  126.7190  129.2160   64.5580 C   0  0  0  0  0  0  0  0  0  0  0  0
  127.3150  129.4320   63.1250 C   0  0  0  0  0  0  0  0  0  0  0  0
  128.6680  128.6900   62.9570 C   0  0  0  0  0  0  0  0  0  0  0  0
  126.3380  128.9070   62.0400 C   0  0  0  0  0  0  0  0  0  0  0  0
  127.5210  130.9550   62.8670 C   0  0  0  0  0  0  0  0  0  0  0  0
  126.3600  131.8620   63.2490 C   0  0  0  0  0  0  0  0  0  0  0  0
  126.1300  133.0760   62.7230 C   0  0  0  0  0  0  0  0  0  0  0  0
  128.3880  126.6550   69.2890 C   0  0  0  0  0  0  0  0  0  0  0  0
  127.6090  127.2800   70.4690 C   0  0  0  0  0  0  0  0  0  0  0  0
  128.3980  127.5010   71.7750 C   0  0  0  0  0  0  0  0  0  0  0  0
  129.7860  128.1610   71.6670 C   0  0  0  0  0  0  0  0  0  0  0  0
  130.7530  127.5570   70.6330 C   0  0  0  0  0  0  0  0  0  0  0  0
  130.5440  128.0790   69.1940 C   0  0  0  0  0  0  0  0  0  0  0  0
  132.0260  125.4560   65.4970 C   0  0  0  0  0  0  0  0  0  0  0  0
  132.4070  125.2820   64.0800 N   0  0  0  0  0  0  0  0  0  0  0  0
  133.1350  124.1750   63.6110 C   0  0  0  0  0  0  0  0  0  0  0  0
  133.2580  123.1060   64.2140 O   0  0  0  0  0  0  0  0  0  0  0  0
  133.6970  124.4210   62.3860 O   0  0  0  0  0  0  0  0  0  0  0  0
  133.4820  123.6500   61.1900 C   0  0  0  0  0  0  0  0  0  0  0  0
  133.9520  122.1860   61.3750 C   0  0  0  0  0  0  0  0  0  0  0  0
  132.0030  123.7070   60.7370 C   0  0  0  0  0  0  0  0  0  0  0  0
  134.3690  124.3400   60.1320 C   0  0  0  0  0  0  0  0  0  0  0  0
  131.7350  126.1590   63.1100 C   0  0  0  0  0  0  0  0  0  0  0  0
  130.2230  125.8930   63.2740 C   0  0  0  0  0  0  0  0  0  0  0  0
  129.8440  126.0560   64.6420 O   0  0  0  0  0  0  0  0  0  0  0  0
  129.0953  121.3028   60.2279 H   0  0  0  0  0  0  0  0  0  0  0  0
  129.9525  120.2502   61.5648 H   0  0  0  0  0  0  0  0  0  0  0  0
  128.8061  123.0988   61.7953 H   0  0  0  0  0  0  0  0  0  0  0  0
  129.2991  121.2787   64.0915 H   0  0  0  0  0  0  0  0  0  0  0  0
  130.8571  122.0400   63.6185 H   0  0  0  0  0  0  0  0  0  0  0  0
  129.5368  123.3607   66.2912 H   0  0  0  0  0  0  0  0  0  0  0  0
  131.0858  123.1375   65.3135 H   0  0  0  0  0  0  0  0  0  0  0  0
  129.8340  127.5300   66.3940 H   0  0  0  0  0  0  0  0  0  0  0  0
  127.7635  129.1285   68.8312 H   0  0  0  0  0  0  0  0  0  0  0  0
  129.1837  129.6599   67.7771 H   0  0  0  0  0  0  0  0  0  0  0  0
  127.0240  127.9410   66.7470 H   0  0  0  0  0  0  0  0  0  0  0  0
  126.4654  128.1503   64.6578 H   0  0  0  0  0  0  0  0  0  0  0  0
  125.8578  129.8973   64.6219 H   0  0  0  0  0  0  0  0  0  0  0  0
  129.0860  128.4608   63.9483 H   0  0  0  0  0  0  0  0  0  0  0  0
  128.5065  127.7542   62.4018 H   0  0  0  0  0  0  0  0  0  0  0  0
  129.3703  129.3292   62.4018 H   0  0  0  0  0  0  0  0  0  0  0  0
  125.4683  128.4396   62.5249 H   0  0  0  0  0  0  0  0  0  0  0  0
  126.0014  129.7457   61.4129 H   0  0  0  0  0  0  0  0  0  0  0  0
  126.8517  128.1634   61.4129 H   0  0  0  0  0  0  0  0  0  0  0  0
  128.4021  131.2770   63.4414 H   0  0  0  0  0  0  0  0  0  0  0  0
  127.6301  131.0579   61.7773 H   0  0  0  0  0  0  0  0  0  0  0  0
  125.6575  131.4961   64.0123 H   0  0  0  0  0  0  0  0  0  0  0  0
  125.2641  133.6657   63.0584 H   0  0  0  0  0  0  0  0  0  0  0  0
  126.8075  133.4808   61.9567 H   0  0  0  0  0  0  0  0  0  0  0  0
  127.6522  126.1858   68.6193 H   0  0  0  0  0  0  0  0  0  0  0  0
  129.1028  125.9631   69.7584 H   0  0  0  0  0  0  0  0  0  0  0  0
  127.2298  128.2582   70.1382 H   0  0  0  0  0  0  0  0  0  0  0  0
  126.8275  126.5482   70.7217 H   0  0  0  0  0  0  0  0  0  0  0  0
  127.7816  128.1360   72.4284 H   0  0  0  0  0  0  0  0  0  0  0  0
  128.5991  126.4883   72.1546 H   0  0  0  0  0  0  0  0  0  0  0  0
  129.6341  129.2186   71.4052 H   0  0  0  0  0  0  0  0  0  0  0  0
  130.2639  127.9974   72.6441 H   0  0  0  0  0  0  0  0  0  0  0  0
  131.7816  127.7958   70.9412 H   0  0  0  0  0  0  0  0  0  0  0  0
  130.5571  126.4748   70.6096 H   0  0  0  0  0  0  0  0  0  0  0  0
  130.5114  129.1773   69.2466 H   0  0  0  0  0  0  0  0  0  0  0  0
  131.3817  127.6512   68.6237 H   0  0  0  0  0  0  0  0  0  0  0  0
  132.2474  126.4822   65.8255 H   0  0  0  0  0  0  0  0  0  0  0  0
  132.5893  124.7681   66.1447 H   0  0  0  0  0  0  0  0  0  0  0  0
  134.0254  121.9573   62.4485 H   0  0  0  0  0  0  0  0  0  0  0  0
  133.2271  121.5059   60.9040 H   0  0  0  0  0  0  0  0  0  0  0  0
  134.9374  122.0549   60.9040 H   0  0  0  0  0  0  0  0  0  0  0  0
  131.3494  123.7322   61.6214 H   0  0  0  0  0  0  0  0  0  0  0  0
  131.8389  124.6121   60.1338 H   0  0  0  0  0  0  0  0  0  0  0  0
  131.7697  122.8172   60.1338 H   0  0  0  0  0  0  0  0  0  0  0  0
  135.1408  124.9404   60.6358 H   0  0  0  0  0  0  0  0  0  0  0  0
  134.8506  123.5768   59.5031 H   0  0  0  0  0  0  0  0  0  0  0  0
  133.7477  124.9946   59.5031 H   0  0  0  0  0  0  0  0  0  0  0  0
  131.9634  127.2133   63.3253 H   0  0  0  0  0  0  0  0  0  0  0  0
  132.0712  125.9564   62.0824 H   0  0  0  0  0  0  0  0  0  0  0  0
  129.6585  126.6036   62.6524 H   0  0  0  0  0  0  0  0  0  0  0  0
  130.0011  124.8630   62.9580 H   0  0  0  0  0  0  0  0  0  0  0  0
  1  2  2  0
  2  3  1  0
  3  4  1  0
  4  5  1  0
  6  5  1  6
  6  7  1  0
  7  8  2  0
  7  9  1  0
  9 10  1  0
 10 11  1  0
 11 12  1  0
 12 13  1  0
 13 14  2  0
 13 15  1  0
 15 16  1  0
 16 17  1  0
 16 18  1  0
 16 19  1  0
 19 20  1  0
 20 21  2  0
 10 22  1  0
 22 23  1  0
 23 24  1  0
 24 25  1  0
 25 26  1  0
 26 27  1  0
  6 28  1  0
 28 29  1  0
 29 30  1  0
 30 31  2  0
 30 32  1  0
 32 33  1  0
 33 34  1  0
 33 35  1  0
 33 36  1  0
 29 37  1  0
 37 38  1  0
 38 39  1  0
 39  6  1  0
 27 10  1  0
  1 40  1  0
  1 41  1  0
  2 42  1  0
  3 43  1  0
  3 44  1  0
  5 45  1  0
  5 46  1  0
  9 47  1  0
 11 48  1  0
 11 49  1  0
 12 50  1  0
 15 51  1  0
 15 52  1  0
 17 53  1  0
 17 54  1  0
 17 55  1  0
 18 56  1  0
 18 57  1  0
 18 58  1  0
 19 59  1  0
 19 60  1  0
 20 61  1  0
 21 62  1  0
 21 63  1  0
 22 64  1  0
 22 65  1  0
 23 66  1  0
 23 67  1  0
 24 68  1  0
 24 69  1  0
 25 70  1  0
 25 71  1  0
 26 72  1  0
 26 73  1  0
 27 74  1  0
 27 75  1  0
 28 76  1  0
 28 77  1  0
 34 78  1  0
 34 79  1  0
 34 80  1  0
 35 81  1  0
 35 82  1  0
 35 83  1  0
 36 84  1  0
 36 85  1  0
 36 86  1  0
 37 87  1  0
 37 88  1  0
 38 89  1  0
 38 90  1  0
M  END
>  <Binding energies>  (1) 
[-6.24]

>  <Ligand effiencies>  (1) 
[-0.14511627906976746]

>  <Interactions>  (1) 
["V-A:ILE:369:CG2:3237, V-A:ASP:366:CA:3210, V-A:GLU:543:CA:4904, V-A:GLY:454:CA:4049, V-B:GLU:543:C:9874, H-A:GLU:543:OE2:4910, V-A:ILE:369:CB:3236, V-B:HIS:456:CD2:9039, V-A:GLU:543:C:4902, V-B:GLU:543:CB:9878, V-B:ALA:541:CB:9864, V-B:TYR:539:CE2:9848, V-A:TYR:484:CE2:4346, V-B:GLU:543:CG:9879, V-B:LEU:475:CD2:9230, V-A:GLY:544:C:4912, V-A:ASP:366:CG:3213, V-A:HIS:456:CD2:4068, V-A:GLU:543:CD:4908, V-A:TYR:484:CZ:4347, H-B:TYR:484:OH:9319, V-B:HIS:456:CE1:9041, H-A:GLY:454:N:4050, V-A:HIS:456:CE1:4070, V-A:ILE:369:CD1:3239, V-B:TYR:484:CZ:9318, V-B:GLY:544:C:9884, V-B:TYR:539:CD2:9846, V-A:GLU:543:CG:4907, V-B:GLU:543:CD:9880, V-A:ASP:366:CB:3212, V-A:LEU:475:CD2:4259, V-A:ARG:545:CZ:4926, H-A:GLU:543:OE1:4909, V-A:GLU:543:CB:4906, H-B:GLU:543:OE2:9882, V-B:PRO:540:C:9853, H-A:TYR:484:OH:4348"]

$$$$
ZINC1875294520
     RDKit          3D

 80 83  0  0  0  0  0  0  0  0999 V2000
  127.9110  127.8350   60.2440 C   0  0  0  0  0  0  0  0  0  0  0  0
  129.0530  128.5130   60.0460 C   0  0  0  0  0  0  0  0  0  0  0  0
  129.6400  129.5170   61.0160 C   0  0  0  0  0  0  0  0  0  0  0  0
  129.2790  130.9160   60.7730 N   0  0  0  0  0  0  0  0  0  0  0  0
  129.9590  131.5520   59.7150 C   0  0  0  0  0  0  0  0  0  0  0  0
  131.3260  131.3090   59.5590 C   0  0  0  0  0  0  0  0  0  0  0  0
  132.0250  131.8870   58.5020 C   0  0  0  0  0  0  0  0  0  0  0  0
  131.3550  132.7070   57.5970 C   0  0  0  0  0  0  0  0  0  0  0  0
  132.0350  133.2660   56.5700 F   0  0  0  0  0  0  0  0  0  0  0  0
  129.9920  132.9520   57.7380 C   0  0  0  0  0  0  0  0  0  0  0  0
  129.2930  132.3750   58.7960 C   0  0  0  0  0  0  0  0  0  0  0  0
  128.9610  131.8950   62.2360 S   0  0  0  0  0  0  0  0  0  0  0  0
  130.2450  132.0370   62.9340 O   0  0  0  0  0  0  0  0  0  0  0  0
  128.2240  133.0960   61.8280 O   0  0  0  0  0  0  0  0  0  0  0  0
  127.9030  130.8600   63.2730 C   0  0  0  0  0  0  0  0  0  0  0  0
  128.3800  130.5600   64.5550 C   0  0  0  0  0  0  0  0  0  0  0  0
  127.6680  129.7250   65.4280 C   0  0  0  0  0  0  0  0  0  0  0  0
  128.2080  129.3700   66.7930 C   0  0  0  0  0  0  0  0  0  0  0  0
  128.5170  130.2510   67.5980 O   0  0  0  0  0  0  0  0  0  0  0  0
  128.3040  128.0500   67.0590 N   0  0  0  0  0  0  0  0  0  0  0  0
  128.8410  127.3860   68.2600 C   0  0  0  0  0  0  0  0  0  0  0  0
  129.5360  126.0410   67.8450 C   0  0  0  0  0  0  0  0  0  0  0  0
  129.9900  125.9980   66.4500 N   0  0  0  0  0  0  0  0  0  0  0  0
  130.0290  124.9060   65.6590 C   0  0  0  0  0  0  0  0  0  0  0  0
  129.6550  123.8010   66.0600 O   0  0  0  0  0  0  0  0  0  0  0  0
  130.6330  125.0540   64.2170 C   0  0  0  0  0  0  0  0  0  0  0  0
  129.5670  125.8580   63.4110 C   0  0  0  0  0  0  0  0  0  0  0  0
  128.8300  125.0690   62.3390 C   0  0  0  0  0  0  0  0  0  0  0  0
  129.2590  124.9070   61.0770 C   0  0  0  0  0  0  0  0  0  0  0  0
  131.9950  125.8150   64.3320 C   0  0  0  0  0  0  0  0  0  0  0  0
  133.1170  124.9670   64.9770 C   0  0  0  0  0  0  0  0  0  0  0  0
  133.2690  123.7400   64.2680 O   0  0  0  0  0  0  0  0  0  0  0  0
  132.1090  122.9120   64.2870 C   0  0  0  0  0  0  0  0  0  0  0  0
  130.9270  123.6420   63.6050 C   0  0  0  0  0  0  0  0  0  0  0  0
  129.8350  128.2890   69.0530 C   0  0  0  0  0  0  0  0  0  0  0  0
  130.1910  127.7350   70.4500 C   0  0  0  0  0  0  0  0  0  0  0  0
  129.0050  127.5160   71.2090 O   0  0  0  0  0  0  0  0  0  0  0  0
  128.1000  126.5890   70.6160 C   0  0  0  0  0  0  0  0  0  0  0  0
  127.6570  127.1090   69.2320 C   0  0  0  0  0  0  0  0  0  0  0  0
  126.4330  129.2180   65.0080 C   0  0  0  0  0  0  0  0  0  0  0  0
  125.9420  129.5160   63.7390 C   0  0  0  0  0  0  0  0  0  0  0  0
  126.6690  130.3230   62.8630 C   0  0  0  0  0  0  0  0  0  0  0  0
  125.9870  130.5970   61.2970 Cl  0  0  0  0  0  0  0  0  0  0  0  0
  127.5558  127.1223   59.4851 H   0  0  0  0  0  0  0  0  0  0  0  0
  127.3306  127.9923   61.1651 H   0  0  0  0  0  0  0  0  0  0  0  0
  129.6020  128.3256   59.1114 H   0  0  0  0  0  0  0  0  0  0  0  0
  129.2992  129.2501   62.0272 H   0  0  0  0  0  0  0  0  0  0  0  0
  130.7307  129.4601   60.8855 H   0  0  0  0  0  0  0  0  0  0  0  0
  131.8521  130.6589   60.2735 H   0  0  0  0  0  0  0  0  0  0  0  0
  133.1018  131.6967   58.3824 H   0  0  0  0  0  0  0  0  0  0  0  0
  129.4693  133.5982   57.0174 H   0  0  0  0  0  0  0  0  0  0  0  0
  128.2157  132.5657   58.9106 H   0  0  0  0  0  0  0  0  0  0  0  0
  129.3370  130.9901   64.8854 H   0  0  0  0  0  0  0  0  0  0  0  0
  127.9690  127.4200   66.3460 H   0  0  0  0  0  0  0  0  0  0  0  0
  130.4098  125.8902   68.4959 H   0  0  0  0  0  0  0  0  0  0  0  0
  128.7790  125.2503   67.9531 H   0  0  0  0  0  0  0  0  0  0  0  0
  130.2810  126.8790   66.0530 H   0  0  0  0  0  0  0  0  0  0  0  0
  128.8216  126.2422   64.1228 H   0  0  0  0  0  0  0  0  0  0  0  0
  130.1191  126.6481   62.8810 H   0  0  0  0  0  0  0  0  0  0  0  0
  127.8764  124.5970   62.6181 H   0  0  0  0  0  0  0  0  0  0  0  0
  128.6619  124.3191   60.3643 H   0  0  0  0  0  0  0  0  0  0  0  0
  130.2075  125.3622   60.7558 H   0  0  0  0  0  0  0  0  0  0  0  0
  132.3167  126.1097   63.3222 H   0  0  0  0  0  0  0  0  0  0  0  0
  131.8282  126.6850   64.9841 H   0  0  0  0  0  0  0  0  0  0  0  0
  134.0629  125.5274   64.9423 H   0  0  0  0  0  0  0  0  0  0  0  0
  132.8503  124.7498   66.0218 H   0  0  0  0  0  0  0  0  0  0  0  0
  132.3199  121.9769   63.7474 H   0  0  0  0  0  0  0  0  0  0  0  0
  131.8419  122.6883   65.3304 H   0  0  0  0  0  0  0  0  0  0  0  0
  131.1628  123.7665   62.5378 H   0  0  0  0  0  0  0  0  0  0  0  0
  130.0295  123.0258   63.7627 H   0  0  0  0  0  0  0  0  0  0  0  0
  130.7624  128.3823   68.4689 H   0  0  0  0  0  0  0  0  0  0  0  0
  129.3390  129.2587   69.2065 H   0  0  0  0  0  0  0  0  0  0  0  0
  130.7309  126.7833   70.3368 H   0  0  0  0  0  0  0  0  0  0  0  0
  130.8238  128.4654   70.9754 H   0  0  0  0  0  0  0  0  0  0  0  0
  128.5982  125.6153   70.4987 H   0  0  0  0  0  0  0  0  0  0  0  0
  127.2175  126.4762   71.2629 H   0  0  0  0  0  0  0  0  0  0  0  0
  126.9990  126.3567   68.7725 H   0  0  0  0  0  0  0  0  0  0  0  0
  127.1453  128.0686   69.3975 H   0  0  0  0  0  0  0  0  0  0  0  0
  125.8460  128.5797   65.6847 H   0  0  0  0  0  0  0  0  0  0  0  0
  124.9694  129.1103   63.4236 H   0  0  0  0  0  0  0  0  0  0  0  0
  1  2  2  0
  2  3  1  0
  3  4  1  0
  4  5  1  0
  5  6  2  0
  6  7  1  0
  7  8  2  0
  8  9  1  0
  8 10  1  0
 10 11  2  0
  4 12  1  0
 12 13  2  0
 12 14  2  0
 12 15  1  0
 15 16  2  0
 16 17  1  0
 17 18  1  0
 18 19  2  0
 18 20  1  0
 20 21  1  0
 21 22  1  0
 22 23  1  0
 23 24  1  0
 24 25  2  0
 24 26  1  0
 26 27  1  0
 27 28  1  0
 28 29  2  0
 26 30  1  0
 30 31  1  0
 31 32  1  0
 32 33  1  0
 33 34  1  0
 21 35  1  0
 35 36  1  0
 36 37  1  0
 37 38  1  0
 38 39  1  0
 17 40  2  0
 40 41  1  0
 41 42  2  0
 42 43  1  0
 11  5  1  0
 42 15  1  0
 39 21  1  0
 34 26  1  0
  1 44  1  0
  1 45  1  0
  2 46  1  0
  3 47  1  0
  3 48  1  0
  6 49  1  0
  7 50  1  0
 10 51  1  0
 11 52  1  0
 16 53  1  0
 20 54  1  0
 22 55  1  0
 22 56  1  0
 23 57  1  0
 27 58  1  0
 27 59  1  0
 28 60  1  0
 29 61  1  0
 29 62  1  0
 30 63  1  0
 30 64  1  0
 31 65  1  0
 31 66  1  0
 33 67  1  0
 33 68  1  0
 34 69  1  0
 34 70  1  0
 35 71  1  0
 35 72  1  0
 36 73  1  0
 36 74  1  0
 38 75  1  0
 38 76  1  0
 39 77  1  0
 39 78  1  0
 40 79  1  0
 41 80  1  0
M  END
>  <Binding energies>  (1) 
[-9.49]

>  <Ligand effiencies>  (1) 
[-0.2108888888888889]

>  <Interactions>  (1) 
["V-A:GLU:543:CA:4904, V-A:PRO:540:CG:4886, V-B:GLU:543:C:9874, H-A:GLU:543:OE2:4910, V-A:GLU:543:C:4902, H-A:ALA:541:N:4891, V-A:GLY:454:CA:4049, V-B:GLU:543:CB:9878, V-A:ILE:538:CB:4862, V-B:GLU:543:CG:9879, V-A:ILE:538:CG2:4863, V-A:LEU:363:CD1:3189, V-A:ILE:538:CA:4860, V-A:GLU:543:CD:4908, V-A:TYR:484:CZ:4347, H-B:TYR:484:OH:9319, V-B:HIS:456:CE1:9041, H-A:GLY:454:N:4050, V-A:HIS:456:CE1:4070, V-B:TYR:484:CZ:9318, V-A:GLU:543:CG:4907, V-B:GLU:543:CD:9880, V-A:TYR:539:C:4867, V-A:LEU:475:CD2:4259, V-A:ARG:545:CZ:4926, H-A:GLU:543:OE1:4909, V-A:GLU:543:CB:4906, V-A:PRO:540:N:4884, H-B:GLU:543:OE2:9882, V-A:PRO:540:CA:4883, V-A:PRO:540:CB:4885, V-A:PRO:540:CD:4887, H-A:TYR:484:OH:4348"]

$$$$
ZINC1875725249
     RDKit          3D

 34 35  0  0  0  0  0  0  0  0999 V2000
  134.9270  124.4500   62.3960 C   0  0  0  0  0  0  0  0  0  0  0  0
  134.0690  123.4860   62.0290 C   0  0  0  0  0  0  0  0  0  0  0  0
  133.5720  123.3040   60.3410 Cl  0  0  0  0  0  0  0  0  0  0  0  0
  133.4510  122.4580   62.9570 C   0  0  0  0  0  0  0  0  0  0  0  0
  132.8160  123.0300   64.1340 N   0  0  0  0  0  0  0  0  0  0  0  0
  131.5860  123.7610   63.8580 C   0  0  2  0  0  0  0  0  0  0  0  0
  131.6720  125.0490   63.0340 C   0  0  1  0  0  0  0  0  0  0  0  0
  131.1590  125.4140   61.6530 C   0  0  0  0  0  0  0  0  0  0  0  0
  130.6520  126.8610   61.9400 C   0  0  0  0  0  0  0  0  0  0  0  0
  130.5220  126.9720   63.4890 N   0  0  0  0  0  0  0  0  0  0  0  0
  130.4500  125.4900   63.8420 C   0  0  2  0  0  0  0  0  0  0  0  0
  131.0450  124.6880   65.0100 C   0  0  0  0  0  0  0  0  0  0  0  0
  130.0120  123.9890   65.9140 C   0  0  0  0  0  0  0  0  0  0  0  0
  132.0790  125.4570   65.8820 C   0  0  0  0  0  0  0  0  0  0  0  0
  135.2252  124.5487   63.4502 H   0  0  0  0  0  0  0  0  0  0  0  0
  135.3322  125.1416   61.6427 H   0  0  0  0  0  0  0  0  0  0  0  0
  132.6922  121.8952   62.3936 H   0  0  0  0  0  0  0  0  0  0  0  0
  134.2714  121.8195   63.3164 H   0  0  0  0  0  0  0  0  0  0  0  0
  132.8030  122.4540   64.9640 H   0  0  0  0  0  0  0  0  0  0  0  0
  131.0526  122.8717   63.4910 H   0  0  0  0  0  0  0  0  0  0  0  0
  132.7277  125.3254   62.8957 H   0  0  0  0  0  0  0  0  0  0  0  0
  131.9616  125.4022   60.9009 H   0  0  0  0  0  0  0  0  0  0  0  0
  130.4061  124.7283   61.2372 H   0  0  0  0  0  0  0  0  0  0  0  0
  131.3738  127.6006   61.5632 H   0  0  0  0  0  0  0  0  0  0  0  0
  129.6920  127.0578   61.4402 H   0  0  0  0  0  0  0  0  0  0  0  0
  131.3460  127.4010   63.8840 H   0  0  0  0  0  0  0  0  0  0  0  0
  129.7120  127.5020   63.7770 H   0  0  0  0  0  0  0  0  0  0  0  0
  129.3593  125.3471   63.8416 H   0  0  0  0  0  0  0  0  0  0  0  0
  130.2702  124.1637   66.9689 H   0  0  0  0  0  0  0  0  0  0  0  0
  129.0107  124.3959   65.7093 H   0  0  0  0  0  0  0  0  0  0  0  0
  130.0174  122.9082   65.7093 H   0  0  0  0  0  0  0  0  0  0  0  0
  131.8563  125.2914   66.9464 H   0  0  0  0  0  0  0  0  0  0  0  0
  133.0918  125.0910   65.6580 H   0  0  0  0  0  0  0  0  0  0  0  0
  132.0199  126.5323   65.6580 H   0  0  0  0  0  0  0  0  0  0  0  0
  1  2  2  0
  2  3  1  0
  2  4  1  0
  4  5  1  0
  5  6  1  0
  6  7  1  0
  7  8  1  0
  8  9  1  0
  9 10  1  0
 10 11  1  0
 11 12  1  0
 12 13  1  0
 12 14  1  0
 12  6  1  0
 11  7  1  0
  1 15  1  0
  1 16  1  0
  4 17  1  0
  4 18  1  0
  5 19  1  0
  6 20  1  6
  7 21  1  1
  8 22  1  0
  8 23  1  0
  9 24  1  0
  9 25  1  0
 10 26  1  0
 10 27  1  0
 11 28  1  6
 13 29  1  0
 13 30  1  0
 13 31  1  0
 14 32  1  0
 14 33  1  0
 14 34  1  0
M  CHG  1  10   1
M  END
>  <Binding energies>  (1) 
[-5.78]

>  <Ligand effiencies>  (1) 
[-0.34]

>  <Interactions>  (1) 
["V-A:ILE:369:CG2:3237, V-A:ILE:369:CD1:3239, V-A:GLY:454:CA:4049, V-A:GLY:453:CA:4044, H-A:GLU:543:OE2:4910, V-B:GLU:543:CB:9878, V-A:GLU:543:CD:4908, V-A:TYR:484:CE2:4346, V-A:TYR:484:CZ:4347, V-B:GLU:543:CG:9879, V-A:LEU:475:CD2:4259, V-A:ARG:545:CZ:4926, H-A:GLU:543:OE1:4909, H-A:GLY:454:N:4050, V-A:GLY:453:C:4042, H-A:TYR:484:OH:4348"]

$$$$
ZINC1880338
     RDKit          3D

 65 71  0  0  0  0  0  0  0  0999 V2000
  125.7900  134.0580   60.8810 C   0  0  0  0  0  0  0  0  0  0  0  0
  126.6960  133.2990   60.0890 O   0  0  0  0  0  0  0  0  0  0  0  0
  126.9730  131.9900   60.4380 C   0  0  0  0  0  0  0  0  0  0  0  0
  126.2720  130.8800   59.9380 C   0  0  0  0  0  0  0  0  0  0  0  0
  126.6010  129.5860   60.3380 C   0  0  0  0  0  0  0  0  0  0  0  0
  127.6390  129.3630   61.2560 C   0  0  0  0  0  0  0  0  0  0  0  0
  128.0460  128.0970   61.7280 N   0  0  0  0  0  0  0  0  0  0  0  0
  128.0810  126.8150   61.1730 C   0  0  0  0  0  0  0  0  0  0  0  0
  127.7050  126.6160   59.9670 N   0  0  0  0  0  0  0  0  0  0  0  0
  127.7160  125.3240   59.4110 C   0  0  0  0  0  0  0  0  0  0  0  0
  127.2690  125.2120   58.0910 C   0  0  0  0  0  0  0  0  0  0  0  0
  127.2490  123.9690   57.4620 C   0  0  0  0  0  0  0  0  0  0  0  0
  127.6740  122.8320   58.1480 C   0  0  0  0  0  0  0  0  0  0  0  0
  128.1240  122.9320   59.4640 C   0  0  0  0  0  0  0  0  0  0  0  0
  128.1590  124.1770   60.1150 C   0  0  0  0  0  0  0  0  0  0  0  0
  128.6120  124.3820   61.4590 N   0  0  0  0  0  0  0  0  0  0  0  0
  128.5740  125.6690   62.0760 C   0  0  0  0  0  0  0  0  0  0  0  0
  128.9020  125.9250   63.2920 N   0  0  0  0  0  0  0  0  0  0  0  0
  129.2610  124.8650   64.0610 C   0  0  0  0  0  0  0  0  0  0  0  0
  129.4050  123.5470   63.6650 C   0  0  0  0  0  0  0  0  0  0  0  0
  129.7140  122.8390   64.8330 C   0  0  0  0  0  0  0  0  0  0  0  0
  129.9700  121.3610   65.0180 C   0  0  0  0  0  0  0  0  0  0  0  0
  129.7690  123.6460   65.8720 N   0  0  0  0  0  0  0  0  0  0  0  0
  129.4900  124.8850   65.4220 N   0  0  0  0  0  0  0  0  0  0  0  0
  129.4890  125.9830   66.3220 C   0  0  0  0  0  0  0  0  0  0  0  0
  128.7420  127.1330   66.0340 C   0  0  0  0  0  0  0  0  0  0  0  0
  128.7400  128.2050   66.9220 C   0  0  0  0  0  0  0  0  0  0  0  0
  129.4840  128.1300   68.0970 C   0  0  0  0  0  0  0  0  0  0  0  0
  130.2330  126.9950   68.3930 C   0  0  0  0  0  0  0  0  0  0  0  0
  130.2380  125.9210   67.5070 C   0  0  0  0  0  0  0  0  0  0  0  0
  129.2170  123.2020   62.1750 C   0  0  2  0  0  0  0  0  0  0  0  0
  130.5330  122.6850   61.5860 C   0  0  0  0  0  0  0  0  0  0  0  0
  130.7300  121.3120   61.4030 C   0  0  0  0  0  0  0  0  0  0  0  0
  131.9310  120.8340   60.8780 C   0  0  0  0  0  0  0  0  0  0  0  0
  132.9460  121.7270   60.5340 C   0  0  0  0  0  0  0  0  0  0  0  0
  132.7610  123.0980   60.7150 C   0  0  0  0  0  0  0  0  0  0  0  0
  134.0160  124.2030   60.2920 Cl  0  0  0  0  0  0  0  0  0  0  0  0
  131.5580  123.5740   61.2400 C   0  0  0  0  0  0  0  0  0  0  0  0
  128.3400  130.4680   61.7460 C   0  0  0  0  0  0  0  0  0  0  0  0
  128.0160  131.7650   61.3470 C   0  0  0  0  0  0  0  0  0  0  0  0
  128.9200  133.0890   61.9950 Cl  0  0  0  0  0  0  0  0  0  0  0  0
  125.9991  133.8829   61.9467 H   0  0  0  0  0  0  0  0  0  0  0  0
  125.9120  135.1275   60.6543 H   0  0  0  0  0  0  0  0  0  0  0  0
  124.7585  133.7505   60.6543 H   0  0  0  0  0  0  0  0  0  0  0  0
  125.4522  131.0342   59.2210 H   0  0  0  0  0  0  0  0  0  0  0  0
  126.0416  128.7311   59.9302 H   0  0  0  0  0  0  0  0  0  0  0  0
  128.3300  128.1380   62.6950 H   0  0  0  0  0  0  0  0  0  0  0  0
  126.9323  126.1073   57.5478 H   0  0  0  0  0  0  0  0  0  0  0  0
  126.8975  123.8846   56.4231 H   0  0  0  0  0  0  0  0  0  0  0  0
  127.6542  121.8519   57.6489 H   0  0  0  0  0  0  0  0  0  0  0  0
  128.4545  122.0285   59.9973 H   0  0  0  0  0  0  0  0  0  0  0  0
  130.0104  121.1275   66.0922 H   0  0  0  0  0  0  0  0  0  0  0  0
  129.1580  120.7866   64.5482 H   0  0  0  0  0  0  0  0  0  0  0  0
  130.9279  121.0932   64.5482 H   0  0  0  0  0  0  0  0  0  0  0  0
  128.1562  127.1888   65.1046 H   0  0  0  0  0  0  0  0  0  0  0  0
  128.1532  129.1077   66.6966 H   0  0  0  0  0  0  0  0  0  0  0  0
  129.4796  128.9771   68.7987 H   0  0  0  0  0  0  0  0  0  0  0  0
  130.8185  126.9466   69.3229 H   0  0  0  0  0  0  0  0  0  0  0  0
  130.8299  125.0226   67.7363 H   0  0  0  0  0  0  0  0  0  0  0  0
  128.5021  122.3765   62.0427 H   0  0  0  0  0  0  0  0  0  0  0  0
  129.9327  120.6047   61.6749 H   0  0  0  0  0  0  0  0  0  0  0  0
  132.0775  119.7532   60.7354 H   0  0  0  0  0  0  0  0  0  0  0  0
  133.8928  121.3500   60.1198 H   0  0  0  0  0  0  0  0  0  0  0  0
  131.4144  124.6552   61.3828 H   0  0  0  0  0  0  0  0  0  0  0  0
  129.1626  130.3124   62.4596 H   0  0  0  0  0  0  0  0  0  0  0  0
  1  2  1  0
  2  3  1  0
  3  4  2  0
  4  5  1  0
  5  6  2  0
  6  7  1  0
  7  8  1  0
  8  9  2  0
  9 10  1  0
 10 11  2  0
 11 12  1  0
 12 13  2  0
 13 14  1  0
 14 15  2  0
 15 16  1  0
 16 17  1  0
 17 18  2  0
 18 19  1  0
 19 20  2  0
 20 21  1  0
 21 22  1  0
 21 23  2  0
 23 24  1  0
 24 25  1  0
 25 26  2  0
 26 27  1  0
 27 28  2  0
 28 29  1  0
 29 30  2  0
 20 31  1  0
 31 32  1  0
 32 33  2  0
 33 34  1  0
 34 35  2  0
 35 36  1  0
 36 37  1  0
 36 38  2  0
  6 39  1  0
 39 40  2  0
 40 41  1  0
 40  3  1  0
 17  8  1  0
 24 19  1  0
 30 25  1  0
 38 32  1  0
 15 10  1  0
 31 16  1  0
  1 42  1  0
  1 43  1  0
  1 44  1  0
  4 45  1  0
  5 46  1  0
  7 47  1  0
 11 48  1  0
 12 49  1  0
 13 50  1  0
 14 51  1  0
 22 52  1  0
 22 53  1  0
 22 54  1  0
 26 55  1  0
 27 56  1  0
 28 57  1  0
 29 58  1  0
 30 59  1  0
 31 60  1  1
 33 61  1  0
 34 62  1  0
 35 63  1  0
 38 64  1  0
 39 65  1  0
M  END
>  <Binding energies>  (1) 
[-7.92]

>  <Ligand effiencies>  (1) 
[-0.18857142857142856]

>  <Interactions>  (1) 
["V-A:ILE:369:CG2:3237, V-A:ASP:366:CA:3210, V-B:PRO:540:CA:9855, V-A:ILE:369:CB:3236, V-B:GLU:543:CB:9878, V-A:PRO:540:C:4881, V-B:ALA:541:CB:9864, V-B:TYR:539:CE2:9848, V-A:TYR:484:CE2:4346, V-A:LEU:475:CG:4257, V-B:GLU:543:CG:9879, V-B:TYR:539:C:9839, V-A:ASP:366:CG:3213, V-A:TYR:539:CD1:4873, V-B:TYR:539:CZ:9849, V-A:ALA:541:CB:4892, V-A:LEU:475:CD1:4258, V-A:TYR:484:CZ:4347, V-A:GLU:543:CD:4908, V-B:PRO:540:N:9856, V-A:TYR:484:CD2:4344, V-A:ILE:369:CD1:3239, V-A:HIS:456:CE1:4070, V-B:TYR:539:CD2:9846, V-A:GLU:543:CG:4907, V-B:GLU:543:CD:9880, V-A:ASP:366:CB:3212, V-A:LEU:475:CD2:4259, H-A:GLU:543:OE1:4909, V-A:GLU:543:CB:4906, V-A:PRO:540:CA:4883, V-A:TYR:539:CE1:4875, H-A:TYR:484:OH:4348"]

$$$$
ZINC188240261
     RDKit          3D

 35 36  0  0  0  0  0  0  0  0999 V2000
  133.6410  124.3990   58.5450 C   0  0  0  0  0  0  0  0  0  0  0  0
  133.0260  124.1810   59.9380 C   0  0  0  0  0  0  0  0  0  0  0  0
  133.4150  122.8350   60.6190 C   0  0  2  0  0  0  0  0  0  0  0  0
  132.1680  121.9510   60.7840 C   0  0  0  0  0  0  0  0  0  0  0  0
  130.9190  122.5380   61.0210 C   0  0  0  0  0  0  0  0  0  0  0  0
  129.8070  121.7100   61.1800 C   0  0  0  0  0  0  0  0  0  0  0  0
  129.8770  120.3570   61.1190 N   0  0  0  0  0  0  0  0  0  0  0  0
  131.0940  119.7980   60.8940 C   0  0  0  0  0  0  0  0  0  0  0  0
  132.2560  120.5520   60.7250 C   0  0  0  0  0  0  0  0  0  0  0  0
  134.1160  122.9980   61.9180 N   0  0  0  0  0  0  0  0  0  0  0  0
  134.6540  124.3580   62.0470 C   0  0  0  0  0  0  0  0  0  0  0  0
  133.3210  122.7000   63.1210 C   0  0  0  0  0  0  0  0  0  0  0  0
  132.9210  123.9640   63.8610 C   0  0  0  0  0  0  0  0  0  0  0  0
  131.8730  124.8440   63.5940 C   0  0  0  0  0  0  0  0  0  0  0  0
  131.9470  125.8080   64.5580 N   0  0  0  0  0  0  0  0  0  0  0  0
  133.0080  125.4550   65.3460 C   0  0  0  0  0  0  0  0  0  0  0  0
  133.5910  124.3520   64.9410 N   0  0  0  0  0  0  0  0  0  0  0  0
  134.6728  124.7647   58.6529 H   0  0  0  0  0  0  0  0  0  0  0  0
  133.6451  123.4475   57.9930 H   0  0  0  0  0  0  0  0  0  0  0  0
  133.0449  125.1406   57.9930 H   0  0  0  0  0  0  0  0  0  0  0  0
  133.3560  125.0028   60.5905 H   0  0  0  0  0  0  0  0  0  0  0  0
  131.9357  124.1525   59.7948 H   0  0  0  0  0  0  0  0  0  0  0  0
  134.1379  122.3453   59.9500 H   0  0  0  0  0  0  0  0  0  0  0  0
  130.8163  123.6316   61.0807 H   0  0  0  0  0  0  0  0  0  0  0  0
  128.8279  122.1766   61.3634 H   0  0  0  0  0  0  0  0  0  0  0  0
  131.1671  118.7016   60.8427 H   0  0  0  0  0  0  0  0  0  0  0  0
  133.2232  120.0586   60.5488 H   0  0  0  0  0  0  0  0  0  0  0  0
  134.7548  124.6129   63.1123 H   0  0  0  0  0  0  0  0  0  0  0  0
  135.6403  124.4096   61.5627 H   0  0  0  0  0  0  0  0  0  0  0  0
  133.9699  125.0704   61.5627 H   0  0  0  0  0  0  0  0  0  0  0  0
  132.4108  122.1599   62.8213 H   0  0  0  0  0  0  0  0  0  0  0  0
  133.9390  122.0900   63.7963 H   0  0  0  0  0  0  0  0  0  0  0  0
  131.1395  124.7758   62.7771 H   0  0  0  0  0  0  0  0  0  0  0  0
  131.3430  126.6100   64.6690 H   0  0  0  0  0  0  0  0  0  0  0  0
  133.3361  126.0326   66.2228 H   0  0  0  0  0  0  0  0  0  0  0  0
  1  2  1  0
  2  3  1  0
  3  4  1  0
  4  5  2  0
  5  6  1  0
  6  7  2  0
  7  8  1  0
  8  9  2  0
  3 10  1  0
 10 11  1  0
 10 12  1  0
 12 13  1  0
 13 14  2  0
 14 15  1  0
 15 16  1  0
 16 17  2  0
  9  4  1  0
 17 13  1  0
  1 18  1  0
  1 19  1  0
  1 20  1  0
  2 21  1  0
  2 22  1  0
  3 23  1  6
  5 24  1  0
  6 25  1  0
  8 26  1  0
  9 27  1  0
 11 28  1  0
 11 29  1  0
 11 30  1  0
 12 31  1  0
 12 32  1  0
 14 33  1  0
 15 34  1  0
 16 35  1  0
M  END
>  <Binding energies>  (1) 
[-4.92]

>  <Ligand effiencies>  (1) 
[-0.2733333333333333]

>  <Interactions>  (1) 
["V-A:ILE:369:CG2:3237, V-A:ASP:366:CA:3210, V-A:GLY:454:CA:4049, H-A:GLU:543:OE2:4910, V-A:ILE:369:CB:3236, V-B:TYR:539:CE2:9848, V-A:ASP:366:CG:3213, V-A:GLU:543:CD:4908, H-A:GLY:454:N:4050, V-A:GLY:453:C:4042, V-A:ILE:369:CD1:3239, V-A:ASP:366:C:3208, V-B:TYR:539:CD2:9846, V-A:ASP:366:CB:3212, V-A:ARG:545:CD:4923, V-A:LEU:475:CD2:4259, V-A:ARG:545:CZ:4926, H-A:GLU:543:OE1:4909, V-A:GLY:453:CA:4044, H-A:TYR:484:OH:4348"]

$$$$
ZINC1883626935
     RDKit          3D

 35 34  0  0  0  0  0  0  0  0999 V2000
  133.9710  123.8840   60.8130 C   0  0  0  0  0  0  0  0  0  0  0  0
  133.0500  123.1620   61.8170 C   0  0  0  0  0  0  0  0  0  0  0  0
  132.4890  124.0170   62.9980 C   0  0  2  0  0  0  0  0  0  0  0  0
  131.3970  124.9750   62.4570 C   0  0  0  0  0  0  0  0  0  0  0  0
  133.6650  124.8200   63.6280 C   0  0  0  0  0  0  0  0  0  0  0  0
  133.8880  124.5240   64.9950 O   0  0  0  0  0  0  0  0  0  0  0  0
  131.8090  122.8700   64.2610 S   0  0  0  0  0  0  0  0  0  0  0  0
  130.2080  123.5960   64.7810 C   0  0  1  0  0  0  0  0  0  0  0  0
  129.2580  122.4770   65.2560 C   0  0  0  0  0  0  0  0  0  0  0  0
  130.3320  124.7900   65.7860 C   0  0  0  0  0  0  0  0  0  0  0  0
  129.6180  126.0660   65.2820 C   0  0  0  0  0  0  0  0  0  0  0  0
  129.8570  124.4350   67.2130 C   0  0  0  0  0  0  0  0  0  0  0  0
  131.7020  125.1420   65.8820 O   0  0  0  0  0  0  0  0  0  0  0  0
  134.7215  124.4723   61.3614 H   0  0  0  0  0  0  0  0  0  0  0  0
  134.4784  123.1405   60.1807 H   0  0  0  0  0  0  0  0  0  0  0  0
  133.3702  124.5542   60.1807 H   0  0  0  0  0  0  0  0  0  0  0  0
  132.1911  122.7658   61.2555 H   0  0  0  0  0  0  0  0  0  0  0  0
  133.6832  122.3972   62.2904 H   0  0  0  0  0  0  0  0  0  0  0  0
  130.8666  125.4403   63.3009 H   0  0  0  0  0  0  0  0  0  0  0  0
  131.8670  125.7574   61.8431 H   0  0  0  0  0  0  0  0  0  0  0  0
  130.6824  124.4071   61.8431 H   0  0  0  0  0  0  0  0  0  0  0  0
  134.5831  124.5883   63.0681 H   0  0  0  0  0  0  0  0  0  0  0  0
  133.3954  125.8848   63.5692 H   0  0  0  0  0  0  0  0  0  0  0  0
  133.0470  124.3000   65.4000 H   0  0  0  0  0  0  0  0  0  0  0  0
  129.7607  124.0724   63.8962 H   0  0  0  0  0  0  0  0  0  0  0  0
  129.2389  122.4545   66.3556 H   0  0  0  0  0  0  0  0  0  0  0  0
  128.2442  122.6706   64.8755 H   0  0  0  0  0  0  0  0  0  0  0  0
  129.6136  121.5081   64.8755 H   0  0  0  0  0  0  0  0  0  0  0  0
  129.2837  126.6634   66.1430 H   0  0  0  0  0  0  0  0  0  0  0  0
  130.3150  126.6596   64.6723 H   0  0  0  0  0  0  0  0  0  0  0  0
  128.7475  125.7825   64.6723 H   0  0  0  0  0  0  0  0  0  0  0  0
  130.5114  124.9241   67.9496 H   0  0  0  0  0  0  0  0  0  0  0  0
  128.8231  124.7835   67.3526 H   0  0  0  0  0  0  0  0  0  0  0  0
  129.8984  123.3447   67.3526 H   0  0  0  0  0  0  0  0  0  0  0  0
  132.1590  124.4550   66.3710 H   0  0  0  0  0  0  0  0  0  0  0  0
  1  2  1  0
  2  3  1  0
  3  4  1  0
  3  5  1  0
  5  6  1  0
  3  7  1  1
  7  8  1  0
  8  9  1  0
  8 10  1  0
 10 11  1  0
 10 12  1  0
 10 13  1  0
  1 14  1  0
  1 15  1  0
  1 16  1  0
  2 17  1  0
  2 18  1  0
  4 19  1  0
  4 20  1  0
  4 21  1  0
  5 22  1  0
  5 23  1  0
  6 24  1  0
  8 25  1  6
  9 26  1  0
  9 27  1  0
  9 28  1  0
 11 29  1  0
 11 30  1  0
 11 31  1  0
 12 32  1  0
 12 33  1  0
 12 34  1  0
 13 35  1  0
M  END
>  <Binding energies>  (1) 
[-3.64]

>  <Ligand effiencies>  (1) 
[-0.24266666666666667]

>  <Interactions>  (1) 
["V-A:ILE:369:CG2:3237, V-A:ILE:369:CD1:3239, V-A:HIS:456:CE1:4070, V-B:GLU:543:CB:9878, H-A:ARG:545:NE:4924, V-B:GLU:543:CD:9880, V-B:ALA:541:CB:9864, V-A:GLU:543:CD:4908, V-A:TYR:484:CE2:4346, V-A:TYR:484:CZ:4347, V-B:GLU:543:CG:9879, V-A:ARG:545:CZ:4926, V-B:GLU:543:CA:9876, H-A:GLY:454:N:4050, H-A:TYR:484:OH:4348"]

$$$$
ZINC1883726181
     RDKit          3D

 29 29  0  0  0  0  0  0  0  0999 V2000
  128.3220  130.0230   63.4300 C   0  0  0  0  0  0  0  0  0  0  0  0
  128.2270  131.8300   63.7640 P   0  0  0  0  0  0  0  0  0  0  0  0
  126.4620  132.2530   63.4670 C   0  0  0  0  0  0  0  0  0  0  0  0
  128.7130  132.2140   65.1170 O   0  0  0  0  0  0  0  0  0  0  0  0
  129.1690  132.6300   62.3880 C   0  0  0  0  0  0  0  0  0  0  0  0
  130.5570  132.1960   62.5050 N   0  0  0  0  0  0  0  0  0  0  0  0
  131.1750  131.8660   61.2200 C   0  0  2  0  0  0  0  0  0  0  0  0
  130.3530  130.7340   60.5670 C   0  0  0  0  0  0  0  0  0  0  0  0
  129.3390  131.1670   59.8140 F   0  0  0  0  0  0  0  0  0  0  0  0
  131.0950  129.8970   59.8400 F   0  0  0  0  0  0  0  0  0  0  0  0
  132.6570  131.4530   61.3930 C   0  0  0  0  0  0  0  0  0  0  0  0
  133.6320  132.4170   62.0230 C   0  0  0  0  0  0  0  0  0  0  0  0
  133.2190  131.1590   62.7630 C   0  0  0  0  0  0  0  0  0  0  0  0
  128.3508  129.4749   64.3833 H   0  0  0  0  0  0  0  0  0  0  0  0
  127.4391  129.7098   62.8535 H   0  0  0  0  0  0  0  0  0  0  0  0
  129.2329  129.8041   62.8535 H   0  0  0  0  0  0  0  0  0  0  0  0
  125.9472  132.3764   64.4313 H   0  0  0  0  0  0  0  0  0  0  0  0
  126.4009  133.1912   62.8960 H   0  0  0  0  0  0  0  0  0  0  0  0
  125.9822  131.4444   62.8960 H   0  0  0  0  0  0  0  0  0  0  0  0
  128.7569  132.3168   61.4174 H   0  0  0  0  0  0  0  0  0  0  0  0
  129.0962  133.7258   62.4508 H   0  0  0  0  0  0  0  0  0  0  0  0
  130.5790  131.3440   63.0480 H   0  0  0  0  0  0  0  0  0  0  0  0
  131.1720  132.7537   60.5704 H   0  0  0  0  0  0  0  0  0  0  0  0
  129.9387  130.1927   61.4303 H   0  0  0  0  0  0  0  0  0  0  0  0
  132.6092  130.8974   60.4448 H   0  0  0  0  0  0  0  0  0  0  0  0
  134.6518  132.5095   61.6213 H   0  0  0  0  0  0  0  0  0  0  0  0
  133.6252  133.4928   62.2522 H   0  0  0  0  0  0  0  0  0  0  0  0
  133.9389  130.3384   62.8982 H   0  0  0  0  0  0  0  0  0  0  0  0
  132.7881  130.9429   63.7517 H   0  0  0  0  0  0  0  0  0  0  0  0
  1  2  1  0
  2  3  1  0
  2  4  2  0
  2  5  1  0
  5  6  1  0
  6  7  1  0
  7  8  1  0
  8  9  1  0
  8 10  1  0
  7 11  1  0
 11 12  1  0
 12 13  1  0
 13 11  1  0
  1 14  1  0
  1 15  1  0
  1 16  1  0
  3 17  1  0
  3 18  1  0
  3 19  1  0
  5 20  1  0
  5 21  1  0
  6 22  1  0
  7 23  1  6
  8 24  1  0
 11 25  1  0
 12 26  1  0
 12 27  1  0
 13 28  1  0
 13 29  1  0
M  END
>  <Binding energies>  (1) 
[-3.95]

>  <Ligand effiencies>  (1) 
[-0.28214285714285714]

>  <Interactions>  (1) 
["V-A:ALA:541:C:4888, V-A:PRO:540:CB:4885, V-A:PRO:540:CA:4883, H-A:ALA:541:N:4891, V-A:ALA:541:CB:4892, V-A:PRO:540:C:4881, V-A:GLU:543:CG:4907, V-A:ARG:545:CZ:4926, V-A:GLU:543:CD:4908, H-B:TYR:484:OH:9319, V-A:ASN:362:CG:3177, V-B:LEU:475:CD2:9230, H-A:GLU:543:OE1:4909, V-A:ASN:362:CB:3176"]

$$$$
ZINC1883759665
     RDKit          3D

 30 31  0  0  0  0  0  0  0  0999 V2000
  128.3620  128.2370   67.6690 C   0  0  0  0  0  0  0  0  0  0  0  0
  129.2700  127.4350   68.2550 C   0  0  0  0  0  0  0  0  0  0  0  0
  129.7600  127.7380   69.9280 Cl  0  0  0  0  0  0  0  0  0  0  0  0
  129.9930  126.2340   67.6450 C   0  0  2  0  0  0  0  0  0  0  0  0
  131.3960  126.4540   67.6450 O   0  0  0  0  0  0  0  0  0  0  0  0
  129.5180  125.9170   66.2080 C   0  0  0  0  0  0  0  0  0  0  0  0
  130.7200  125.8450   65.2340 N   0  0  2  0  0  0  0  0  0  0  0  0
  130.5040  125.8240   63.7090 C   0  0  2  0  0  0  0  0  0  0  0  0
  129.2810  124.9320   63.3290 C   0  0  0  0  0  0  0  0  0  0  0  0
  129.4600  123.4620   63.8070 C   0  0  0  0  0  0  0  0  0  0  0  0
  130.5080  123.3140   64.9470 C   0  0  0  0  0  0  0  0  0  0  0  0
  131.4860  124.5280   65.0050 C   0  0  1  0  0  0  0  0  0  0  0  0
  131.8520  125.0730   63.6060 C   0  0  0  0  0  0  0  0  0  0  0  0
  128.0546  128.0521   66.6291 H   0  0  0  0  0  0  0  0  0  0  0  0
  127.9272  129.0774   68.2299 H   0  0  0  0  0  0  0  0  0  0  0  0
  129.7473  125.3643   68.2721 H   0  0  0  0  0  0  0  0  0  0  0  0
  131.5670  127.3380   67.3140 H   0  0  0  0  0  0  0  0  0  0  0  0
  128.9944  124.9496   66.2066 H   0  0  0  0  0  0  0  0  0  0  0  0
  128.8425  126.7189   65.8753 H   0  0  0  0  0  0  0  0  0  0  0  0
  131.3660  126.5820   65.4780 H   0  0  0  0  0  0  0  0  0  0  0  0
  130.3057  126.7305   63.1183 H   0  0  0  0  0  0  0  0  0  0  0  0
  128.3776  125.3500   63.7971 H   0  0  0  0  0  0  0  0  0  0  0  0
  129.1941  124.9243   62.2325 H   0  0  0  0  0  0  0  0  0  0  0  0
  128.4906  123.0923   64.1725 H   0  0  0  0  0  0  0  0  0  0  0  0
  129.8256  122.8802   62.9480 H   0  0  0  0  0  0  0  0  0  0  0  0
  129.9785  123.2386   65.9082 H   0  0  0  0  0  0  0  0  0  0  0  0
  131.1014  122.4097   64.7468 H   0  0  0  0  0  0  0  0  0  0  0  0
  132.2572  124.1549   65.6950 H   0  0  0  0  0  0  0  0  0  0  0  0
  132.7454  125.7137   63.5701 H   0  0  0  0  0  0  0  0  0  0  0  0
  132.1197  124.4265   62.7572 H   0  0  0  0  0  0  0  0  0  0  0  0
  1  2  2  0
  2  3  1  0
  2  4  1  0
  4  5  1  0
  4  6  1  0
  6  7  1  0
  7  8  1  0
  8  9  1  0
  9 10  1  0
 10 11  1  0
 11 12  1  0
 12 13  1  0
 12  7  1  0
 13  8  1  0
  1 14  1  0
  1 15  1  0
  4 16  1  1
  5 17  1  0
  6 18  1  0
  6 19  1  0
  7 20  1  6
  8 21  1  6
  9 22  1  0
  9 23  1  0
 10 24  1  0
 10 25  1  0
 11 26  1  0
 11 27  1  0
 12 28  1  1
 13 29  1  0
 13 30  1  0
M  CHG  1   7   1
M  END
>  <Binding energies>  (1) 
[-5.38]

>  <Ligand effiencies>  (1) 
[-0.35866666666666663]

>  <Interactions>  (1) 
["V-A:HIS:456:CE1:4070, H-A:GLU:543:OE2:4910, V-B:GLU:543:CB:9878, V-B:GLU:543:CD:9880, V-A:GLU:543:CD:4908, V-A:TYR:484:CZ:4347, V-A:TYR:484:CE2:4346, V-B:GLU:543:CG:9879, H-A:GLU:543:OE1:4909, V-B:HIS:456:CE1:9041, V-A:GLU:543:CB:4906"]

$$$$
ZINC188425512
     RDKit          3D

 38 39  0  0  0  0  0  0  0  0999 V2000
  132.3150  125.2840   65.0370 C   0  0  0  0  0  0  0  0  0  0  0  0
  130.9340  125.1720   64.3690 C   0  0  2  0  0  0  0  0  0  0  0  0
  131.0110  124.4420   63.0000 C   0  0  0  0  0  0  0  0  0  0  0  0
  129.7220  124.5120   62.2850 N   0  0  0  0  0  0  0  0  0  0  0  0
  128.7760  123.5730   62.5670 C   0  0  0  0  0  0  0  0  0  0  0  0
  128.6960  123.0450   63.6820 O   0  0  0  0  0  0  0  0  0  0  0  0
  127.7620  123.2160   61.4320 C   0  0  2  0  0  0  0  0  0  0  0  0
  128.3420  123.5270   60.0250 C   0  0  0  0  0  0  0  0  0  0  0  0
  127.3010  123.3140   58.9100 C   0  0  0  0  0  0  0  0  0  0  0  0
  126.0170  124.1210   59.1820 C   0  0  0  0  0  0  0  0  0  0  0  0
  125.4200  123.8310   60.5750 C   0  0  0  0  0  0  0  0  0  0  0  0
  126.4880  124.0700   61.6590 N   0  0  0  0  0  0  0  0  0  0  0  0
  129.2950  125.9040   62.0210 C   0  0  0  0  0  0  0  0  0  0  0  0
  129.1290  126.6670   63.3620 C   0  0  0  0  0  0  0  0  0  0  0  0
  130.4380  126.6200   64.1720 N   0  0  0  0  0  0  0  0  0  0  0  0
  132.1953  125.2743   66.1304 H   0  0  0  0  0  0  0  0  0  0  0  0
  132.9413  124.4337   64.7291 H   0  0  0  0  0  0  0  0  0  0  0  0
  132.7961  126.2241   64.7291 H   0  0  0  0  0  0  0  0  0  0  0  0
  130.2505  124.5811   64.9965 H   0  0  0  0  0  0  0  0  0  0  0  0
  131.7893  124.9159   62.3839 H   0  0  0  0  0  0  0  0  0  0  0  0
  131.2514  123.3842   63.1822 H   0  0  0  0  0  0  0  0  0  0  0  0
  127.5417  122.1389   61.4687 H   0  0  0  0  0  0  0  0  0  0  0  0
  128.6765  124.5747   60.0027 H   0  0  0  0  0  0  0  0  0  0  0  0
  129.1793  122.8372   59.8434 H   0  0  0  0  0  0  0  0  0  0  0  0
  127.7316  123.6380   57.9510 H   0  0  0  0  0  0  0  0  0  0  0  0
  127.0398  122.2459   58.8780 H   0  0  0  0  0  0  0  0  0  0  0  0
  126.2538  125.1932   59.1161 H   0  0  0  0  0  0  0  0  0  0  0  0
  125.2706  123.8243   58.4304 H   0  0  0  0  0  0  0  0  0  0  0  0
  124.5640  124.4988   60.7519 H   0  0  0  0  0  0  0  0  0  0  0  0
  125.0870  122.7835   60.6171 H   0  0  0  0  0  0  0  0  0  0  0  0
  126.7420  125.0480   61.6690 H   0  0  0  0  0  0  0  0  0  0  0  0
  126.0990  123.8590   62.5670 H   0  0  0  0  0  0  0  0  0  0  0  0
  130.0546  126.4084   61.4056 H   0  0  0  0  0  0  0  0  0  0  0  0
  128.3328  125.8935   61.4880 H   0  0  0  0  0  0  0  0  0  0  0  0
  128.8696  127.7153   63.1528 H   0  0  0  0  0  0  0  0  0  0  0  0
  128.3296  126.1895   63.9477 H   0  0  0  0  0  0  0  0  0  0  0  0
  131.1510  127.1530   63.6970 H   0  0  0  0  0  0  0  0  0  0  0  0
  130.2950  127.0550   65.0730 H   0  0  0  0  0  0  0  0  0  0  0  0
  1  2  1  0
  2  3  1  0
  3  4  1  0
  4  5  1  0
  5  6  2  0
  5  7  1  0
  7  8  1  0
  8  9  1  0
  9 10  1  0
 10 11  1  0
 11 12  1  0
  4 13  1  0
 13 14  1  0
 14 15  1  0
 15  2  1  0
 12  7  1  0
  1 16  1  0
  1 17  1  0
  1 18  1  0
  2 19  1  1
  3 20  1  0
  3 21  1  0
  7 22  1  6
  8 23  1  0
  8 24  1  0
  9 25  1  0
  9 26  1  0
 10 27  1  0
 10 28  1  0
 11 29  1  0
 11 30  1  0
 12 31  1  0
 12 32  1  0
 13 33  1  0
 13 34  1  0
 14 35  1  0
 14 36  1  0
 15 37  1  0
 15 38  1  0
M  CHG  2  12   1  15   1
M  END
>  <Binding energies>  (1) 
[-6.66]

>  <Ligand effiencies>  (1) 
[-0.3505263157894737]

>  <Interactions>  (1) 
["V-B:PRO:540:CA:9855, H-B:GLU:543:OE1:9881, H-A:GLU:543:OE2:4910, V-B:GLU:543:CD:9880, V-A:ARG:545:CZ:4926, V-A:GLU:543:CD:4908, V-B:PRO:540:CB:9857, V-B:GLU:543:CG:9879, H-B:ALA:541:O:9861, H-B:ASP:366:OD1:8185, H-A:GLU:543:OE1:4909, V-B:PRO:540:N:9856"]

$$$$
ZINC1890920912
     RDKit          3D

 34 34  0  0  0  0  0  0  0  0999 V2000
  131.9680  131.6550   58.0550 C   0  0  0  0  0  0  0  0  0  0  0  0
  131.8090  130.4420   58.9890 C   0  0  1  0  0  0  0  0  0  0  0  0
  131.2610  130.8980   60.3680 C   0  0  0  0  0  0  0  0  0  0  0  0
  130.9790  129.7760   61.2690 N   0  0  0  0  0  0  0  0  0  0  0  0
  130.9810  128.4900   60.9300 C   0  0  0  0  0  0  0  0  0  0  0  0
  130.8970  127.5770   61.9030 N   0  0  0  0  0  0  0  0  0  0  0  0
  131.4900  126.2330   61.8790 C   0  0  0  0  0  0  0  0  0  0  0  0
  131.6510  125.6250   63.2830 C   0  0  0  0  0  0  0  0  0  0  0  0
  133.1590  124.5740   63.3620 P   0  0  0  0  0  0  0  0  0  0  0  0
  132.5410  122.9040   63.8120 C   0  0  0  0  0  0  0  0  0  0  0  0
  133.6740  124.4010   61.6100 C   0  0  0  0  0  0  0  0  0  0  0  0
  134.2230  125.0960   64.2630 O   0  0  0  0  0  0  0  0  0  0  0  0
  130.9180  127.8250   59.3190 S   0  0  0  0  0  0  0  0  0  0  0  0
  130.9930  129.3220   58.3010 C   0  0  0  0  0  0  0  0  0  0  0  0
  132.0877  132.5680   58.6568 H   0  0  0  0  0  0  0  0  0  0  0  0
  132.8555  131.5152   57.4203 H   0  0  0  0  0  0  0  0  0  0  0  0
  131.0745  131.7487   57.4203 H   0  0  0  0  0  0  0  0  0  0  0  0
  132.7904  129.9900   59.1951 H   0  0  0  0  0  0  0  0  0  0  0  0
  132.0073  131.5512   60.8437 H   0  0  0  0  0  0  0  0  0  0  0  0
  130.3118  131.4241   60.1886 H   0  0  0  0  0  0  0  0  0  0  0  0
  130.9000  129.9780   62.2550 H   0  0  0  0  0  0  0  0  0  0  0  0
  130.7040  127.9410   62.8240 H   0  0  0  0  0  0  0  0  0  0  0  0
  130.8416  125.5738   61.2832 H   0  0  0  0  0  0  0  0  0  0  0  0
  132.4950  126.3232   61.4409 H   0  0  0  0  0  0  0  0  0  0  0  0
  131.7362  126.4362   64.0210 H   0  0  0  0  0  0  0  0  0  0  0  0
  130.7716  125.0020   63.5035 H   0  0  0  0  0  0  0  0  0  0  0  0
  132.5058  122.8089   64.9073 H   0  0  0  0  0  0  0  0  0  0  0  0
  131.5312  122.7632   63.3991 H   0  0  0  0  0  0  0  0  0  0  0  0
  133.2158  122.1397   63.3991 H   0  0  0  0  0  0  0  0  0  0  0  0
  134.7159  124.0510   61.5670 H   0  0  0  0  0  0  0  0  0  0  0  0
  133.0214  123.6727   61.1062 H   0  0  0  0  0  0  0  0  0  0  0  0
  133.5934  125.3755   61.1062 H   0  0  0  0  0  0  0  0  0  0  0  0
  131.4664  129.0756   57.3392 H   0  0  0  0  0  0  0  0  0  0  0  0
  129.9662  129.6876   58.1529 H   0  0  0  0  0  0  0  0  0  0  0  0
  1  2  1  0
  2  3  1  0
  3  4  1  0
  4  5  2  0
  5  6  1  0
  6  7  1  0
  7  8  1  0
  8  9  1  0
  9 10  1  0
  9 11  1  0
  9 12  2  0
  5 13  1  0
 13 14  1  0
 14  2  1  0
  1 15  1  0
  1 16  1  0
  1 17  1  0
  2 18  1  1
  3 19  1  0
  3 20  1  0
  4 21  1  0
  6 22  1  0
  7 23  1  0
  7 24  1  0
  8 25  1  0
  8 26  1  0
 10 27  1  0
 10 28  1  0
 10 29  1  0
 11 30  1  0
 11 31  1  0
 11 32  1  0
 14 33  1  0
 14 34  1  0
M  CHG  1   4   1
M  END
>  <Binding energies>  (1) 
[-6.08]

>  <Ligand effiencies>  (1) 
[-0.38]

>  <Interactions>  (1) 
["V-A:LEU:363:CD1:3189, V-A:PRO:540:CB:4885, V-A:GLY:454:CA:4049, H-A:GLU:543:OE2:4910, H-A:ARG:545:NE:4924, H-A:ARG:545:NH1:4927, H-A:ASP:366:OD2:3215, V-A:GLU:543:CD:4908, V-A:LEU:475:CD2:4259, H-A:ARG:545:NH2:4928, V-A:ARG:545:CZ:4926, H-A:GLU:543:OE1:4909, H-A:GLY:454:N:4050, V-A:ASP:366:CG:3213"]

$$$$
ZINC1890920912-again1
     RDKit          3D

 33 33  0  0  0  0  0  0  0  0999 V2000
  129.5210  124.7550   67.5310 C   0  0  0  0  0  0  0  0  0  0  0  0
  130.2520  124.8910   66.1830 C   0  0  1  0  0  0  0  0  0  0  0  0
  131.6710  125.4630   66.3780 C   0  0  0  0  0  0  0  0  0  0  0  0
  132.3430  125.6220   65.0970 N   0  0  0  0  0  0  0  0  0  0  0  0
  132.5850  124.6130   64.1890 C   0  0  0  0  0  0  0  0  0  0  0  0
  133.6630  124.6600   63.5060 N   0  0  0  0  0  0  0  0  0  0  0  0
  133.9850  123.6580   62.5020 C   0  0  0  0  0  0  0  0  0  0  0  0
  134.2710  124.3400   61.1530 C   0  0  0  0  0  0  0  0  0  0  0  0
  133.1220  123.7360   59.8460 P   0  0  0  0  0  0  0  0  0  0  0  0
  132.8420  121.9760   60.2820 C   0  0  0  0  0  0  0  0  0  0  0  0
  131.5170  124.5460   60.2190 C   0  0  0  0  0  0  0  0  0  0  0  0
  133.6060  123.9490   58.4540 O   0  0  0  0  0  0  0  0  0  0  0  0
  131.1930  123.4930   63.8550 S   0  0  0  0  0  0  0  0  0  0  0  0
  130.2370  123.5550   65.4070 C   0  0  0  0  0  0  0  0  0  0  0  0
  130.2397  124.8887   68.3530 H   0  0  0  0  0  0  0  0  0  0  0  0
  128.7362  125.5226   67.6016 H   0  0  0  0  0  0  0  0  0  0  0  0
  129.0648  123.7566   67.6016 H   0  0  0  0  0  0  0  0  0  0  0  0
  129.7090  125.6168   65.5598 H   0  0  0  0  0  0  0  0  0  0  0  0
  131.6003  126.4430   66.8726 H   0  0  0  0  0  0  0  0  0  0  0  0
  132.2518  124.7635   66.9972 H   0  0  0  0  0  0  0  0  0  0  0  0
  132.8570  126.4880   65.0170 H   0  0  0  0  0  0  0  0  0  0  0  0
  134.8741  123.0945   62.8214 H   0  0  0  0  0  0  0  0  0  0  0  0
  133.1316  122.9734   62.3875 H   0  0  0  0  0  0  0  0  0  0  0  0
  134.1460  125.4270   61.2666 H   0  0  0  0  0  0  0  0  0  0  0  0
  135.3007  124.0981   60.8512 H   0  0  0  0  0  0  0  0  0  0  0  0
  132.8248  121.8677   61.3765 H   0  0  0  0  0  0  0  0  0  0  0  0
  131.8797  121.6437   59.8654 H   0  0  0  0  0  0  0  0  0  0  0  0
  133.6537  121.3614   59.8654 H   0  0  0  0  0  0  0  0  0  0  0  0
  131.3846  124.6128   61.3090 H   0  0  0  0  0  0  0  0  0  0  0  0
  131.5071  125.5570   59.7858 H   0  0  0  0  0  0  0  0  0  0  0  0
  130.6978  123.9534   59.7858 H   0  0  0  0  0  0  0  0  0  0  0  0
  129.1897  123.3246   65.1619 H   0  0  0  0  0  0  0  0  0  0  0  0
  130.7253  122.8296   66.0744 H   0  0  0  0  0  0  0  0  0  0  0  0
  1  2  1  0
  2  3  1  0
  3  4  1  0
  4  5  1  0
  5  6  2  0
  6  7  1  0
  7  8  1  0
  8  9  1  0
  9 10  1  0
  9 11  1  0
  9 12  2  0
  5 13  1  0
 13 14  1  0
 14  2  1  0
  1 15  1  0
  1 16  1  0
  1 17  1  0
  2 18  1  6
  3 19  1  0
  3 20  1  0
  4 21  1  0
  7 22  1  0
  7 23  1  0
  8 24  1  0
  8 25  1  0
 10 26  1  0
 10 27  1  0
 10 28  1  0
 11 29  1  0
 11 30  1  0
 11 31  1  0
 14 32  1  0
 14 33  1  0
M  END
>  <Binding energies>  (1) 
[-5.19]

>  <Ligand effiencies>  (1) 
[-0.34600000000000003]

>  <Interactions>  (1) 
["V-A:ILE:369:CG2:3237, V-A:GLY:454:CA:4049, V-B:GLU:543:C:9874, H-A:GLU:543:OE2:4910, V-B:GLU:543:CB:9878, V-B:TYR:539:CE2:9848, V-A:TYR:484:CE2:4346, V-B:GLU:543:CG:9879, V-A:ASP:366:CG:3213, H-B:TYR:539:OH:9850, V-A:TYR:484:CZ:4347, V-A:GLU:543:CD:4908, V-B:GLU:543:CA:9876, H-A:GLY:454:N:4050, V-A:ILE:369:CD1:3239, V-A:HIS:456:CE1:4070, V-B:TYR:539:CD2:9846, H-A:ARG:545:NH2:4928, V-A:ARG:545:CZ:4926, H-A:GLU:543:OE1:4909, H-A:TYR:484:OH:4348"]

$$$$
ZINC1891451775
     RDKit          3D

 71 74  0  0  0  0  0  0  0  0999 V2000
  130.5970  122.5160   64.4720 C   0  0  0  0  0  0  0  0  0  0  0  0
  130.9080  124.0270   64.3560 C   0  0  0  0  0  0  0  0  0  0  0  0
  129.5700  124.8100   64.4460 C   0  0  0  0  0  0  0  0  0  0  0  0
  131.7610  124.4020   63.1880 N   0  0  0  0  0  0  0  0  0  0  0  0
  133.1140  124.2310   63.3430 C   0  0  0  0  0  0  0  0  0  0  0  0
  133.6540  123.4680   64.1470 O   0  0  0  0  0  0  0  0  0  0  0  0
  133.9350  125.1460   62.4180 C   0  0  0  0  0  0  0  0  0  0  0  0
  133.7600  124.6080   60.6980 S   0  0  0  0  0  0  0  0  0  0  0  0
  131.9730  124.9140   60.7210 C   0  0  1  0  0  0  0  0  0  0  0  0
  131.4890  124.7510   59.2510 C   0  0  0  0  0  0  0  0  0  0  0  0
  132.3030  124.4080   58.3900 O   0  0  0  0  0  0  0  0  0  0  0  0
  130.1590  124.8490   58.9610 N   0  0  0  0  0  0  0  0  0  0  0  0
  129.2170  125.6560   59.7680 C   0  0  0  0  0  0  0  0  0  0  0  0
  129.1310  127.0530   59.1070 C   0  0  0  0  0  0  0  0  0  0  0  0
  128.6750  126.9560   57.6320 C   0  0  0  0  0  0  0  0  0  0  0  0
  128.5850  128.3370   56.9410 C   0  0  0  0  0  0  0  0  0  0  0  0
  129.1530  129.3870   57.7320 O   0  0  0  0  0  0  0  0  0  0  0  0
  129.0860  130.7140   57.3360 C   0  0  0  0  0  0  0  0  0  0  0  0
  127.9030  131.1560   56.8110 N   0  0  0  0  0  0  0  0  0  0  0  0
  127.8100  132.4510   56.4290 C   0  0  0  0  0  0  0  0  0  0  0  0
  128.8880  133.3180   56.5650 C   0  0  0  0  0  0  0  0  0  0  0  0
  130.0680  132.8910   57.0790 N   0  0  0  0  0  0  0  0  0  0  0  0
  130.1990  131.5850   57.4680 C   0  0  0  0  0  0  0  0  0  0  0  0
  131.4610  131.1940   58.0070 N   0  0  0  0  0  0  0  0  0  0  0  0
  131.8180  131.5540   59.3820 C   0  0  0  0  0  0  0  0  0  0  0  0
  132.5660  130.7730   57.1480 C   0  0  0  0  0  0  0  0  0  0  0  0
  129.6100  125.9850   56.8750 C   0  0  0  0  0  0  0  0  0  0  0  0
  129.6840  124.6090   57.5810 C   0  0  0  0  0  0  0  0  0  0  0  0
  131.2460  124.0490   61.8180 C   0  0  1  0  0  0  0  0  0  0  0  0
  131.0520  122.5440   61.5220 C   0  0  0  0  0  0  0  0  0  0  0  0
  132.1630  121.7670   61.1720 C   0  0  0  0  0  0  0  0  0  0  0  0
  132.0210  120.4080   60.9080 C   0  0  0  0  0  0  0  0  0  0  0  0
  130.7620  119.8120   61.0000 C   0  0  0  0  0  0  0  0  0  0  0  0
  130.6120  118.3900   60.7270 C   0  0  0  0  0  0  0  0  0  0  0  0
  130.4930  117.2590   60.5100 N   0  0  0  0  0  0  0  0  0  0  0  0
  129.6490  120.5740   61.3550 C   0  0  0  0  0  0  0  0  0  0  0  0
  129.7950  121.9330   61.6180 C   0  0  0  0  0  0  0  0  0  0  0  0
  130.5390  122.2340   65.5337 H   0  0  0  0  0  0  0  0  0  0  0  0
  129.6357  122.3009   63.9824 H   0  0  0  0  0  0  0  0  0  0  0  0
  131.3952  121.9387   63.9824 H   0  0  0  0  0  0  0  0  0  0  0  0
  131.5492  124.3158   65.2019 H   0  0  0  0  0  0  0  0  0  0  0  0
  129.3060  124.9645   65.5026 H   0  0  0  0  0  0  0  0  0  0  0  0
  129.6818  125.7852   63.9496 H   0  0  0  0  0  0  0  0  0  0  0  0
  128.7745  124.2349   63.9496 H   0  0  0  0  0  0  0  0  0  0  0  0
  133.5732  126.1803   62.5145 H   0  0  0  0  0  0  0  0  0  0  0  0
  134.9952  125.0925   62.7064 H   0  0  0  0  0  0  0  0  0  0  0  0
  131.7095  125.9321   61.0436 H   0  0  0  0  0  0  0  0  0  0  0  0
  128.2249  125.1810   59.7764 H   0  0  0  0  0  0  0  0  0  0  0  0
  129.5633  125.7365   60.8090 H   0  0  0  0  0  0  0  0  0  0  0  0
  128.4093  127.6682   59.6644 H   0  0  0  0  0  0  0  0  0  0  0  0
  130.1326  127.5072   59.1291 H   0  0  0  0  0  0  0  0  0  0  0  0
  127.6501  126.5572   57.6111 H   0  0  0  0  0  0  0  0  0  0  0  0
  129.1232  128.2872   55.9829 H   0  0  0  0  0  0  0  0  0  0  0  0
  127.5193  128.5682   56.7964 H   0  0  0  0  0  0  0  0  0  0  0  0
  126.8662  132.8234   56.0041 H   0  0  0  0  0  0  0  0  0  0  0  0
  128.7822  134.3668   56.2508 H   0  0  0  0  0  0  0  0  0  0  0  0
  131.2222  130.9531   60.0848 H   0  0  0  0  0  0  0  0  0  0  0  0
  132.8876  131.3571   59.5466 H   0  0  0  0  0  0  0  0  0  0  0  0
  131.6122  132.6220   59.5466 H   0  0  0  0  0  0  0  0  0  0  0  0
  133.4128  130.4504   57.7716 H   0  0  0  0  0  0  0  0  0  0  0  0
  132.2387  129.9366   56.5130 H   0  0  0  0  0  0  0  0  0  0  0  0
  132.8782  131.6152   56.5130 H   0  0  0  0  0  0  0  0  0  0  0  0
  129.2279  125.8433   55.8533 H   0  0  0  0  0  0  0  0  0  0  0  0
  130.6201  126.4200   56.8562 H   0  0  0  0  0  0  0  0  0  0  0  0
  128.6882  124.1420   57.6013 H   0  0  0  0  0  0  0  0  0  0  0  0
  130.3665  123.9324   57.0458 H   0  0  0  0  0  0  0  0  0  0  0  0
  130.1872  124.3452   61.7838 H   0  0  0  0  0  0  0  0  0  0  0  0
  133.1564  122.2347   61.1051 H   0  0  0  0  0  0  0  0  0  0  0  0
  132.8977  119.8056   60.6278 H   0  0  0  0  0  0  0  0  0  0  0  0
  128.6580  120.1020   61.4270 H   0  0  0  0  0  0  0  0  0  0  0  0
  128.9172  122.5315   61.9032 H   0  0  0  0  0  0  0  0  0  0  0  0
  1  2  1  0
  2  3  1  0
  2  4  1  0
  4  5  1  0
  5  6  2  0
  5  7  1  0
  7  8  1  0
  8  9  1  0
  9 10  1  0
 10 11  2  0
 10 12  1  0
 12 13  1  0
 13 14  1  0
 14 15  1  0
 15 16  1  0
 16 17  1  0
 17 18  1  0
 18 19  2  0
 19 20  1  0
 20 21  2  0
 21 22  1  0
 22 23  2  0
 23 24  1  0
 24 25  1  0
 24 26  1  0
 15 27  1  0
 27 28  1  0
  9 29  1  0
 29 30  1  0
 30 31  2  0
 31 32  1  0
 32 33  2  0
 33 34  1  0
 34 35  3  0
 33 36  1  0
 36 37  2  0
 29  4  1  0
 37 30  1  0
 28 12  1  0
 23 18  1  0
  1 38  1  0
  1 39  1  0
  1 40  1  0
  2 41  1  0
  3 42  1  0
  3 43  1  0
  3 44  1  0
  7 45  1  0
  7 46  1  0
  9 47  1  1
 13 48  1  0
 13 49  1  0
 14 50  1  0
 14 51  1  0
 15 52  1  0
 16 53  1  0
 16 54  1  0
 20 55  1  0
 21 56  1  0
 25 57  1  0
 25 58  1  0
 25 59  1  0
 26 60  1  0
 26 61  1  0
 26 62  1  0
 27 63  1  0
 27 64  1  0
 28 65  1  0
 28 66  1  0
 29 67  1  1
 31 68  1  0
 32 69  1  0
 36 70  1  0
 37 71  1  0
M  END
>  <Binding energies>  (1) 
[-7.84]

>  <Ligand effiencies>  (1) 
[-0.2118918918918919]

>  <Interactions>  (1) 
["V-A:ILE:538:C:4858, V-B:ALA:541:CB:9864, V-B:TYR:539:CE2:9848, V-A:TYR:484:CE2:4346, V-B:GLU:543:CG:9879, V-B:TYR:539:C:9839, V-A:TYR:539:CE2:4876, V-A:ASP:366:CG:3213, V-A:TYR:539:CE1:4875, V-A:TYR:539:CD1:4873, V-A:LEU:363:CD1:3189, V-B:TYR:539:CZ:9849, V-A:ILE:538:CA:4860, V-A:TYR:539:CZ:4877, V-A:TYR:531:CE2:4793, H-B:TYR:539:OH:9850, V-A:TYR:539:CA:4869, V-A:TYR:484:CZ:4347, H-A:GLY:454:N:4050, V-A:HIS:383:NE2:3394, V-B:TYR:539:CD2:9846, V-A:TYR:531:CZ:4794, H-A:SER:385:OG:3410, V-A:MET:535:CE:4835, V-B:GLU:543:CD:9880, V-A:LEU:475:CD2:4259, V-A:ARG:545:CZ:4926, H-A:HIS:383:HE2:3395, V-A:TYR:539:CG:4872, H-A:TYR:539:N:4870, V-A:PRO:540:CB:4885, V-A:PRO:540:CA:4883, V-A:TYR:539:CD2:4874, V-B:PRO:540:C:9853, V-B:TYR:539:CE1:9847, H-A:TYR:484:OH:4348"]

$$$$
ZINC1891552735
     RDKit          3D

 60 63  0  0  0  0  0  0  0  0999 V2000
  126.5720  122.5650   56.9900 C   0  0  0  0  0  0  0  0  0  0  0  0
  127.8850  122.6660   57.5170 O   0  0  0  0  0  0  0  0  0  0  0  0
  127.9400  122.5270   58.9300 C   0  0  0  0  0  0  0  0  0  0  0  0
  128.3470  123.8670   59.5600 C   0  0  0  0  0  0  0  0  0  0  0  0
  128.1120  123.9190   61.0840 C   0  0  0  0  0  0  0  0  0  0  0  0
  129.3380  124.3030   61.8030 N   0  0  0  0  0  0  0  0  0  0  0  0
  129.5710  125.4920   62.4990 C   0  0  0  0  0  0  0  0  0  0  0  0
  128.6830  126.6360   62.5760 C   0  0  0  0  0  0  0  0  0  0  0  0
  127.6000  126.6750   61.9900 O   0  0  0  0  0  0  0  0  0  0  0  0
  129.1610  127.6480   63.3260 N   0  0  0  0  0  0  0  0  0  0  0  0
  128.4820  128.9280   63.5400 C   0  0  0  0  0  0  0  0  0  0  0  0
  127.5900  128.9690   64.8100 C   0  0  2  0  0  0  0  0  0  0  0  0
  127.2770  130.3150   65.1200 O   0  0  0  0  0  0  0  0  0  0  0  0
  128.1800  128.3000   66.0490 C   0  0  0  0  0  0  0  0  0  0  0  0
  128.8350  127.0710   66.1280 C   0  0  0  0  0  0  0  0  0  0  0  0
  129.2870  126.7240   67.4040 C   0  0  0  0  0  0  0  0  0  0  0  0
  129.0110  127.6800   68.3720 C   0  0  0  0  0  0  0  0  0  0  0  0
  129.3440  127.6470   69.8010 C   0  0  0  0  0  0  0  0  0  0  0  0
  128.4590  127.2060   70.8020 C   0  0  0  0  0  0  0  0  0  0  0  0
  128.9930  127.2620   72.0820 C   0  0  0  0  0  0  0  0  0  0  0  0
  130.6140  127.8630   72.0860 S   0  0  0  0  0  0  0  0  0  0  0  0
  130.5610  128.0370   70.3630 C   0  0  0  0  0  0  0  0  0  0  0  0
  128.1690  129.0190   67.6450 S   0  0  0  0  0  0  0  0  0  0  0  0
  130.8920  125.4510   62.9550 C   0  0  0  0  0  0  0  0  0  0  0  0
  131.4900  124.2650   62.5390 C   0  0  0  0  0  0  0  0  0  0  0  0
  132.8410  123.7660   62.6970 C   0  0  0  0  0  0  0  0  0  0  0  0
  133.7340  124.3300   63.3360 O   0  0  0  0  0  0  0  0  0  0  0  0
  133.0040  122.5810   61.9950 N   0  0  0  0  0  0  0  0  0  0  0  0
  134.3620  121.9920   62.0500 C   0  0  0  0  0  0  0  0  0  0  0  0
  132.0710  121.8290   61.2880 C   0  0  0  0  0  0  0  0  0  0  0  0
  132.3580  120.8420   60.6000 O   0  0  0  0  0  0  0  0  0  0  0  0
  130.7740  122.2510   61.4460 N   0  0  0  0  0  0  0  0  0  0  0  0
  129.7190  121.2300   61.3770 C   0  0  0  0  0  0  0  0  0  0  0  0
  130.4950  123.5380   61.9090 C   0  0  0  0  0  0  0  0  0  0  0  0
  125.8484  122.5093   57.8166 H   0  0  0  0  0  0  0  0  0  0  0  0
  126.3558  123.4492   56.3723 H   0  0  0  0  0  0  0  0  0  0  0  0
  126.4936  121.6582   56.3723 H   0  0  0  0  0  0  0  0  0  0  0  0
  126.9508  122.2294   59.3081 H   0  0  0  0  0  0  0  0  0  0  0  0
  128.6800  121.7573   59.1945 H   0  0  0  0  0  0  0  0  0  0  0  0
  129.4167  124.0341   59.3654 H   0  0  0  0  0  0  0  0  0  0  0  0
  127.7174  124.6462   59.1056 H   0  0  0  0  0  0  0  0  0  0  0  0
  127.3246  124.6561   61.2999 H   0  0  0  0  0  0  0  0  0  0  0  0
  127.8112  122.9166   61.4227 H   0  0  0  0  0  0  0  0  0  0  0  0
  130.0510  127.5310   63.7870 H   0  0  0  0  0  0  0  0  0  0  0  0
  129.2466  129.7137   63.6296 H   0  0  0  0  0  0  0  0  0  0  0  0
  127.8145  129.0803   62.6791 H   0  0  0  0  0  0  0  0  0  0  0  0
  126.6958  128.3820   64.5533 H   0  0  0  0  0  0  0  0  0  0  0  0
  126.7490  130.3270   65.9200 H   0  0  0  0  0  0  0  0  0  0  0  0
  128.9846  126.4234   65.2515 H   0  0  0  0  0  0  0  0  0  0  0  0
  129.8120  125.7820   67.6209 H   0  0  0  0  0  0  0  0  0  0  0  0
  127.4399  126.8503   70.5901 H   0  0  0  0  0  0  0  0  0  0  0  0
  128.4482  126.9592   72.9884 H   0  0  0  0  0  0  0  0  0  0  0  0
  131.4049  128.4180   69.7691 H   0  0  0  0  0  0  0  0  0  0  0  0
  131.3829  126.2349   63.5505 H   0  0  0  0  0  0  0  0  0  0  0  0
  134.6628  121.8615   63.1000 H   0  0  0  0  0  0  0  0  0  0  0  0
  134.3584  121.0146   61.5454 H   0  0  0  0  0  0  0  0  0  0  0  0
  135.0732  122.6625   61.5454 H   0  0  0  0  0  0  0  0  0  0  0  0
  129.4208  120.9414   62.3957 H   0  0  0  0  0  0  0  0  0  0  0  0
  128.8487  121.6376   60.8418 H   0  0  0  0  0  0  0  0  0  0  0  0
  130.0979  120.3468   60.8418 H   0  0  0  0  0  0  0  0  0  0  0  0
  1  2  1  0
  2  3  1  0
  3  4  1  0
  4  5  1  0
  5  6  1  0
  6  7  1  0
  7  8  1  0
  8  9  2  0
  8 10  1  0
 10 11  1  0
 11 12  1  0
 12 13  1  0
 12 14  1  0
 14 15  2  0
 15 16  1  0
 16 17  2  0
 17 18  1  0
 18 19  1  0
 19 20  2  0
 20 21  1  0
 21 22  1  0
 17 23  1  0
  7 24  2  0
 24 25  1  0
 25 26  1  0
 26 27  2  0
 26 28  1  0
 28 29  1  0
 28 30  1  0
 30 31  2  0
 30 32  1  0
 32 33  1  0
 32 34  1  0
 34  6  1  0
 23 14  1  0
 34 25  2  0
 22 18  2  0
  1 35  1  0
  1 36  1  0
  1 37  1  0
  3 38  1  0
  3 39  1  0
  4 40  1  0
  4 41  1  0
  5 42  1  0
  5 43  1  0
 10 44  1  0
 11 45  1  0
 11 46  1  0
 12 47  1  6
 13 48  1  0
 15 49  1  0
 16 50  1  0
 19 51  1  0
 20 52  1  0
 22 53  1  0
 24 54  1  0
 29 55  1  0
 29 56  1  0
 29 57  1  0
 33 58  1  0
 33 59  1  0
 33 60  1  0
M  END
>  <Binding energies>  (1) 
[-7.25]

>  <Ligand effiencies>  (1) 
[-0.2013888888888889]

>  <Interactions>  (1) 
["V-A:ILE:369:CG2:3237, V-B:PRO:540:CA:9855, V-A:GLY:454:CA:4049, H-A:GLU:543:OE2:4910, V-A:GLU:543:C:4902, V-B:GLU:543:CB:9878, V-B:ALA:541:CB:9864, V-B:TYR:539:CE2:9848, V-B:GLU:543:CG:9879, V-A:GLY:544:C:4912, V-B:TYR:539:C:9839, V-A:GLU:543:CD:4908, V-B:PRO:540:CB:9857, H-B:TYR:484:OH:9319, V-B:HIS:456:CE1:9041, H-A:GLY:454:N:4050, V-A:SER:385:C:3405, V-B:PRO:540:N:9856, V-A:ILE:369:CD1:3239, V-A:HIS:456:CE1:4070, V-B:TYR:539:CD2:9846, V-B:PRO:540:CD:9859, V-A:GLU:543:CG:4907, H-A:SER:385:OG:3410, V-B:GLU:543:CD:9880, V-A:LEU:475:CD2:4259, H-A:ARG:545:NH2:4928, H-A:GLU:543:OE1:4909, V-A:GLU:543:CB:4906"]

$$$$
ZINC1891675219
     RDKit          3D

 70 74  0  0  0  0  0  0  0  0999 V2000
  134.3800  124.3340   60.4400 C   0  0  0  0  0  0  0  0  0  0  0  0
  133.1900  123.7250   59.6730 C   0  0  0  0  0  0  0  0  0  0  0  0
  132.5790  124.7340   58.6790 C   0  0  0  0  0  0  0  0  0  0  0  0
  132.1610  123.0870   60.5320 N   0  0  0  0  0  0  0  0  0  0  0  0
  132.2290  121.7240   60.7120 C   0  0  0  0  0  0  0  0  0  0  0  0
  133.1460  121.0100   60.3010 O   0  0  0  0  0  0  0  0  0  0  0  0
  131.0220  121.1080   61.4490 C   0  0  0  0  0  0  0  0  0  0  0  0
  129.4660  121.4310   60.5370 S   0  0  0  0  0  0  0  0  0  0  0  0
  129.7720  123.1860   60.0940 C   0  0  1  0  0  0  0  0  0  0  0  0
  128.4260  123.9650   60.0320 C   0  0  0  0  0  0  0  0  0  0  0  0
  127.9170  124.3530   61.0870 O   0  0  0  0  0  0  0  0  0  0  0  0
  127.7760  124.1120   58.8400 N   0  0  0  0  0  0  0  0  0  0  0  0
  126.4930  124.8400   58.7750 C   0  0  0  0  0  0  0  0  0  0  0  0
  126.8180  126.3090   58.4050 C   0  0  0  0  0  0  0  0  0  0  0  0
  127.6100  126.3830   57.0760 C   0  0  0  0  0  0  0  0  0  0  0  0
  128.0120  127.7180   56.7550 O   0  0  0  0  0  0  0  0  0  0  0  0
  128.7590  128.4710   57.6440 C   0  0  0  0  0  0  0  0  0  0  0  0
  130.0580  128.1440   57.8970 N   0  0  0  0  0  0  0  0  0  0  0  0
  130.7130  128.9260   58.7940 C   0  0  0  0  0  0  0  0  0  0  0  0
  130.1090  130.0150   59.4390 C   0  0  0  0  0  0  0  0  0  0  0  0
  130.8430  130.8570   60.4270 C   0  0  0  0  0  0  0  0  0  0  0  0
  130.3370  131.5430   61.5460 C   0  0  0  0  0  0  0  0  0  0  0  0
  131.2510  132.2060   62.2180 N   0  0  0  0  0  0  0  0  0  0  0  0
  132.3860  131.9690   61.5540 N   0  0  0  0  0  0  0  0  0  0  0  0
  133.6260  132.5600   62.0280 C   0  0  0  0  0  0  0  0  0  0  0  0
  132.1990  131.1600   60.4640 C   0  0  0  0  0  0  0  0  0  0  0  0
  128.7720  130.2630   59.0990 C   0  0  0  0  0  0  0  0  0  0  0  0
  128.0820  129.5040   58.2070 N   0  0  0  0  0  0  0  0  0  0  0  0
  128.8600  125.4770   57.1440 C   0  0  0  0  0  0  0  0  0  0  0  0
  128.4650  124.0340   57.5360 C   0  0  0  0  0  0  0  0  0  0  0  0
  130.9330  123.8490   60.9230 C   0  0  1  0  0  0  0  0  0  0  0  0
  130.7320  124.1240   62.4380 C   0  0  0  0  0  0  0  0  0  0  0  0
  131.4660  125.0820   63.1530 C   0  0  0  0  0  0  0  0  0  0  0  0
  131.2470  125.2810   64.5130 C   0  0  0  0  0  0  0  0  0  0  0  0
  130.2920  124.5160   65.1810 C   0  0  0  0  0  0  0  0  0  0  0  0
  130.0610  124.7230   66.6030 C   0  0  0  0  0  0  0  0  0  0  0  0
  129.8780  124.8870   67.7340 N   0  0  0  0  0  0  0  0  0  0  0  0
  129.5600  123.5530   64.4880 C   0  0  0  0  0  0  0  0  0  0  0  0
  129.7840  123.3590   63.1280 C   0  0  0  0  0  0  0  0  0  0  0  0
  134.2037  124.2438   61.5220 H   0  0  0  0  0  0  0  0  0  0  0  0
  135.3020  123.7969   60.1727 H   0  0  0  0  0  0  0  0  0  0  0  0
  134.4837  125.3960   60.1727 H   0  0  0  0  0  0  0  0  0  0  0  0
  133.6159  122.8930   59.0929 H   0  0  0  0  0  0  0  0  0  0  0  0
  132.0876  125.5455   59.2358 H   0  0  0  0  0  0  0  0  0  0  0  0
  133.3751  125.1532   58.0462 H   0  0  0  0  0  0  0  0  0  0  0  0
  131.8386  124.2228   58.0462 H   0  0  0  0  0  0  0  0  0  0  0  0
  131.1695  120.0214   61.5365 H   0  0  0  0  0  0  0  0  0  0  0  0
  130.9471  121.5666   62.4460 H   0  0  0  0  0  0  0  0  0  0  0  0
  130.1827  123.2337   59.0747 H   0  0  0  0  0  0  0  0  0  0  0  0
  125.8443  124.3927   58.0074 H   0  0  0  0  0  0  0  0  0  0  0  0
  125.9651  124.7877   59.7386 H   0  0  0  0  0  0  0  0  0  0  0  0
  125.8776  126.8691   58.2953 H   0  0  0  0  0  0  0  0  0  0  0  0
  127.4340  126.7446   59.2055 H   0  0  0  0  0  0  0  0  0  0  0  0
  126.9329  126.0330   56.2829 H   0  0  0  0  0  0  0  0  0  0  0  0
  131.7634  128.6949   59.0246 H   0  0  0  0  0  0  0  0  0  0  0  0
  129.2749  131.5260   61.8319 H   0  0  0  0  0  0  0  0  0  0  0  0
  133.6335  132.5636   63.1280 H   0  0  0  0  0  0  0  0  0  0  0  0
  134.4780  131.9711   61.6574 H   0  0  0  0  0  0  0  0  0  0  0  0
  133.7052  133.5927   61.6574 H   0  0  0  0  0  0  0  0  0  0  0  0
  132.9698  130.8179   59.7577 H   0  0  0  0  0  0  0  0  0  0  0  0
  128.2577  131.1105   59.5757 H   0  0  0  0  0  0  0  0  0  0  0  0
  129.3504  125.4629   56.1595 H   0  0  0  0  0  0  0  0  0  0  0  0
  129.5466  125.8762   57.9051 H   0  0  0  0  0  0  0  0  0  0  0  0
  127.7912  123.6080   56.7780 H   0  0  0  0  0  0  0  0  0  0  0  0
  129.3533  123.3884   57.6003 H   0  0  0  0  0  0  0  0  0  0  0  0
  130.9998  124.9145   60.6578 H   0  0  0  0  0  0  0  0  0  0  0  0
  132.2249  125.6841   62.6318 H   0  0  0  0  0  0  0  0  0  0  0  0
  131.8260  126.0400   65.0594 H   0  0  0  0  0  0  0  0  0  0  0  0
  128.8073  122.9480   65.0146 H   0  0  0  0  0  0  0  0  0  0  0  0
  129.2078  122.5935   62.5875 H   0  0  0  0  0  0  0  0  0  0  0  0
  1  2  1  0
  2  3  1  0
  2  4  1  0
  4  5  1  0
  5  6  2  0
  5  7  1  0
  7  8  1  0
  8  9  1  0
  9 10  1  0
 10 11  2  0
 10 12  1  0
 12 13  1  0
 13 14  1  0
 14 15  1  0
 15 16  1  0
 16 17  1  0
 17 18  2  0
 18 19  1  0
 19 20  2  0
 20 21  1  0
 21 22  1  0
 22 23  2  0
 23 24  1  0
 24 25  1  0
 24 26  1  0
 20 27  1  0
 27 28  2  0
 15 29  1  0
 29 30  1  0
  9 31  1  0
 31 32  1  0
 32 33  2  0
 33 34  1  0
 34 35  2  0
 35 36  1  0
 36 37  3  0
 35 38  1  0
 38 39  2  0
 31  4  1  0
 39 32  1  0
 30 12  1  0
 28 17  1  0
 26 21  2  0
  1 40  1  0
  1 41  1  0
  1 42  1  0
  2 43  1  0
  3 44  1  0
  3 45  1  0
  3 46  1  0
  7 47  1  0
  7 48  1  0
  9 49  1  6
 13 50  1  0
 13 51  1  0
 14 52  1  0
 14 53  1  0
 15 54  1  0
 19 55  1  0
 22 56  1  0
 25 57  1  0
 25 58  1  0
 25 59  1  0
 26 60  1  0
 27 61  1  0
 29 62  1  0
 29 63  1  0
 30 64  1  0
 30 65  1  0
 31 66  1  6
 33 67  1  0
 34 68  1  0
 38 69  1  0
 39 70  1  0
M  END
>  <Binding energies>  (1) 
[-8.21]

>  <Ligand effiencies>  (1) 
[-0.21051282051282053]

>  <Interactions>  (1) 
["V-A:ILE:369:CG2:3237, V-A:ASP:366:CA:3210, V-A:ALA:541:C:4888, V-A:ILE:369:CB:3236, H-A:ALA:541:N:4891, V-B:GLU:543:CB:9878, V-A:PRO:540:C:4881, H-A:TYR:531:OH:4795, V-B:TYR:539:CE2:9848, V-A:TYR:484:CE2:4346, V-B:GLU:543:CG:9879, V-A:ASP:366:CG:3213, V-A:ASN:362:CB:3176, V-B:TYR:539:CZ:9849, V-A:TYR:484:CZ:4347, V-B:GLU:543:CA:9876, V-A:ILE:369:CD1:3239, V-A:HIS:456:CE1:4070, V-B:TYR:539:CD2:9846, H-A:SER:385:OG:3410, V-B:GLU:543:CD:9880, H-B:TYR:531:OH:9767, V-A:ASP:366:CB:3212, V-A:LEU:475:CD2:4259, V-A:PRO:540:CB:4885, V-A:PRO:540:CA:4883, V-B:TYR:539:CE1:9847, H-A:TYR:484:OH:4348"]

$$$$
ZINC1892143083
     RDKit          3D

 68 74  0  0  0  0  0  0  0  0999 V2000
  130.7200  127.8470   71.3800 C   0  0  0  0  0  0  0  0  0  0  0  0
  129.4970  127.5380   70.5370 C   0  0  0  0  0  0  0  0  0  0  0  0
  128.3790  126.9430   71.1250 C   0  0  0  0  0  0  0  0  0  0  0  0
  127.2510  126.6570   70.3560 C   0  0  0  0  0  0  0  0  0  0  0  0
  127.2340  126.9670   68.9980 C   0  0  0  0  0  0  0  0  0  0  0  0
  128.3470  127.5710   68.3930 C   0  0  0  0  0  0  0  0  0  0  0  0
  128.3270  127.8880   67.0090 N   0  0  0  0  0  0  0  0  0  0  0  0
  127.5870  128.9300   66.5660 N   0  0  0  0  0  0  0  0  0  0  0  0
  127.7290  128.9570   65.2590 C   0  0  0  0  0  0  0  0  0  0  0  0
  128.5610  127.9360   64.8020 C   0  0  0  0  0  0  0  0  0  0  0  0
  129.0550  127.5040   63.4960 C   0  0  0  0  0  0  0  0  0  0  0  0
  128.7990  128.0260   62.4110 O   0  0  0  0  0  0  0  0  0  0  0  0
  129.8820  126.3970   63.6410 N   0  0  0  0  0  0  0  0  0  0  0  0
  130.2010  125.7660   64.8360 C   0  0  0  0  0  0  0  0  0  0  0  0
  129.7760  126.1700   65.9850 N   0  0  0  0  0  0  0  0  0  0  0  0
  128.9420  127.2500   65.9470 C   0  0  0  0  0  0  0  0  0  0  0  0
  131.2980  124.3770   64.6020 S   0  0  0  0  0  0  0  0  0  0  0  0
  130.9590  124.3750   62.8230 C   0  0  2  0  0  0  0  0  0  0  0  0
  132.1650  123.9100   61.9650 C   0  0  0  0  0  0  0  0  0  0  0  0
  131.9450  123.9010   60.4350 C   0  0  0  0  0  0  0  0  0  0  0  0
  132.4480  122.9980   59.7610 O   0  0  0  0  0  0  0  0  0  0  0  0
  131.2230  124.9130   59.8780 N   0  0  0  0  0  0  0  0  0  0  0  0
  129.8240  124.7310   59.4680 C   0  0  0  0  0  0  0  0  0  0  0  0
  128.9500  126.0030   59.4890 C   0  0  0  0  0  0  0  0  0  0  0  0
  129.4610  127.2120   58.6740 C   0  0  0  0  0  0  0  0  0  0  0  0
  130.4360  128.0900   59.3330 N   0  0  0  0  0  0  0  0  0  0  0  0
  130.6210  129.3230   58.6980 C   0  0  0  0  0  0  0  0  0  0  0  0
  131.7640  129.6020   57.9330 C   0  0  0  0  0  0  0  0  0  0  0  0
  131.9050  130.8450   57.3120 C   0  0  0  0  0  0  0  0  0  0  0  0
  130.8750  131.7830   57.4820 C   0  0  0  0  0  0  0  0  0  0  0  0
  130.6860  133.0460   57.0360 N   0  0  0  0  0  0  0  0  0  0  0  0
  129.4620  133.4610   57.5400 N   0  0  0  0  0  0  0  0  0  0  0  0
  128.9370  132.4890   58.2580 C   0  0  0  0  0  0  0  0  0  0  0  0
  127.6050  132.5420   58.9760 C   0  0  0  0  0  0  0  0  0  0  0  0
  129.7780  131.3970   58.2660 N   0  0  0  0  0  0  0  0  0  0  0  0
  129.6070  130.2110   58.8800 N   0  0  0  0  0  0  0  0  0  0  0  0
  131.7000  127.4080   59.6520 C   0  0  0  0  0  0  0  0  0  0  0  0
  131.9060  125.9710   59.1180 C   0  0  0  0  0  0  0  0  0  0  0  0
  130.5060  125.7950   62.4600 C   0  0  0  0  0  0  0  0  0  0  0  0
  129.4770  127.8500   69.1730 C   0  0  0  0  0  0  0  0  0  0  0  0
  130.4569  127.7805   72.4460 H   0  0  0  0  0  0  0  0  0  0  0  0
  131.5149  127.1215   71.1526 H   0  0  0  0  0  0  0  0  0  0  0  0
  131.0749  128.8630   71.1526 H   0  0  0  0  0  0  0  0  0  0  0  0
  128.3878  126.6991   72.1976 H   0  0  0  0  0  0  0  0  0  0  0  0
  126.3734  126.1859   70.8227 H   0  0  0  0  0  0  0  0  0  0  0  0
  126.3425  126.7369   68.3960 H   0  0  0  0  0  0  0  0  0  0  0  0
  127.2480  129.6979   64.6035 H   0  0  0  0  0  0  0  0  0  0  0  0
  130.1734  123.6390   62.5969 H   0  0  0  0  0  0  0  0  0  0  0  0
  133.0094  124.5815   62.1796 H   0  0  0  0  0  0  0  0  0  0  0  0
  132.3413  122.8610   62.2453 H   0  0  0  0  0  0  0  0  0  0  0  0
  129.8213  124.3359   58.4414 H   0  0  0  0  0  0  0  0  0  0  0  0
  129.3803  124.0498   60.2091 H   0  0  0  0  0  0  0  0  0  0  0  0
  127.9586  125.7322   59.0968 H   0  0  0  0  0  0  0  0  0  0  0  0
  128.9550  126.3388   60.5365 H   0  0  0  0  0  0  0  0  0  0  0  0
  129.9298  126.8220   57.7585 H   0  0  0  0  0  0  0  0  0  0  0  0
  128.5745  127.8412   58.5058 H   0  0  0  0  0  0  0  0  0  0  0  0
  132.5501  128.8405   57.8223 H   0  0  0  0  0  0  0  0  0  0  0  0
  132.7944  131.0811   56.7093 H   0  0  0  0  0  0  0  0  0  0  0  0
  127.7738  132.5353   60.0629 H   0  0  0  0  0  0  0  0  0  0  0  0
  127.0724  133.4620   58.6933 H   0  0  0  0  0  0  0  0  0  0  0  0
  127.0010  131.6672   58.6933 H   0  0  0  0  0  0  0  0  0  0  0  0
  132.5157  128.0264   59.2493 H   0  0  0  0  0  0  0  0  0  0  0  0
  131.6816  127.2940   60.7459 H   0  0  0  0  0  0  0  0  0  0  0  0
  131.5370  125.9374   58.0823 H   0  0  0  0  0  0  0  0  0  0  0  0
  132.9825  125.7643   59.2099 H   0  0  0  0  0  0  0  0  0  0  0  0
  131.3751  126.3950   62.1524 H   0  0  0  0  0  0  0  0  0  0  0  0
  129.7871  125.7615   61.6281 H   0  0  0  0  0  0  0  0  0  0  0  0
  130.3571  128.3189   68.7086 H   0  0  0  0  0  0  0  0  0  0  0  0
  1  2  1  0
  2  3  2  0
  3  4  1  0
  4  5  2  0
  5  6  1  0
  6  7  1  0
  7  8  1  0
  8  9  2  0
  9 10  1  0
 10 11  1  0
 11 12  2  0
 11 13  1  0
 13 14  1  0
 14 15  2  0
 15 16  1  0
 14 17  1  0
 17 18  1  0
 18 19  1  0
 19 20  1  0
 20 21  2  0
 20 22  1  0
 22 23  1  0
 23 24  1  0
 24 25  1  0
 25 26  1  0
 26 27  1  0
 27 28  1  0
 28 29  2  0
 29 30  1  0
 30 31  2  0
 31 32  1  0
 32 33  2  0
 33 34  1  0
 33 35  1  0
 35 36  1  0
 26 37  1  0
 37 38  1  0
 18 39  1  0
  6 40  2  0
 40  2  1  0
 16  7  1  0
 38 22  1  0
 16 10  2  0
 36 27  2  0
 39 13  1  0
 35 30  1  0
  1 41  1  0
  1 42  1  0
  1 43  1  0
  3 44  1  0
  4 45  1  0
  5 46  1  0
  9 47  1  0
 18 48  1  1
 19 49  1  0
 19 50  1  0
 23 51  1  0
 23 52  1  0
 24 53  1  0
 24 54  1  0
 25 55  1  0
 25 56  1  0
 28 57  1  0
 29 58  1  0
 34 59  1  0
 34 60  1  0
 34 61  1  0
 37 62  1  0
 37 63  1  0
 38 64  1  0
 38 65  1  0
 39 66  1  0
 39 67  1  0
 40 68  1  0
M  END
>  <Binding energies>  (1) 
[-7.09]

>  <Ligand effiencies>  (1) 
[-0.1688095238095238]

>  <Interactions>  (1) 
["V-B:GLU:543:C:9874, V-B:GLU:543:CB:9878, V-B:TYR:539:CE2:9848, V-B:GLU:543:CG:9879, V-A:GLY:544:C:4912, V-A:ASP:366:CG:3213, V-A:LEU:363:CD1:3189, V-A:TYR:539:CD1:4873, V-A:TYR:531:CE2:4793, V-A:GLU:543:CD:4908, H-B:TYR:484:OH:9319, V-B:HIS:456:CE1:9041, V-B:GLU:543:CA:9876, V-A:HIS:456:CE1:4070, V-B:GLY:544:C:9884, V-B:GLY:544:CA:9886, V-A:TYR:531:CZ:4794, V-B:GLU:543:CD:9880, V-A:ASP:366:CB:3212, V-A:GLU:543:CB:4906, H-A:TYR:539:N:4870, V-A:TYR:539:CE1:4875, H-A:TYR:484:OH:4348"]

$$$$
ZINC1892169693
     RDKit          3D

 67 73  0  0  0  0  0  0  0  0999 V2000
  133.8590  123.9310   62.1170 C   0  0  0  0  0  0  0  0  0  0  0  0
  133.2520  124.3510   60.7910 C   0  0  0  0  0  0  0  0  0  0  0  0
  134.0400  124.3770   59.6370 C   0  0  0  0  0  0  0  0  0  0  0  0
  133.4840  124.7600   58.4180 C   0  0  0  0  0  0  0  0  0  0  0  0
  132.1370  125.1150   58.3430 C   0  0  0  0  0  0  0  0  0  0  0  0
  131.3300  125.0830   59.4910 C   0  0  0  0  0  0  0  0  0  0  0  0
  129.9610  125.4420   59.4140 N   0  0  0  0  0  0  0  0  0  0  0  0
  129.0110  124.5720   59.8250 N   0  0  0  0  0  0  0  0  0  0  0  0
  127.8520  125.1560   59.5990 C   0  0  0  0  0  0  0  0  0  0  0  0
  128.0070  126.4230   59.0350 C   0  0  0  0  0  0  0  0  0  0  0  0
  127.1010  127.4840   58.5990 C   0  0  0  0  0  0  0  0  0  0  0  0
  125.8700  127.4610   58.6500 O   0  0  0  0  0  0  0  0  0  0  0  0
  127.8300  128.5630   58.1120 N   0  0  0  0  0  0  0  0  0  0  0  0
  129.2140  128.6420   58.0290 C   0  0  0  0  0  0  0  0  0  0  0  0
  130.0010  127.7040   58.4280 N   0  0  0  0  0  0  0  0  0  0  0  0
  129.3790  126.5940   58.9190 C   0  0  0  0  0  0  0  0  0  0  0  0
  129.7730  130.2000   57.3590 S   0  0  0  0  0  0  0  0  0  0  0  0
  128.0940  130.6260   56.8260 C   0  0  2  0  0  0  0  0  0  0  0  0
  127.7770  132.1360   56.9790 C   0  0  0  0  0  0  0  0  0  0  0  0
  128.5210  132.8800   58.1140 C   0  0  0  0  0  0  0  0  0  0  0  0
  129.5970  133.4270   57.8600 O   0  0  0  0  0  0  0  0  0  0  0  0
  127.9420  132.9610   59.3430 N   0  0  0  0  0  0  0  0  0  0  0  0
  128.6230  133.6080   60.4670 C   0  0  0  0  0  0  0  0  0  0  0  0
  129.0040  132.5170   61.4950 C   0  0  0  0  0  0  0  0  0  0  0  0
  127.9420  131.5600   61.8790 N   0  0  0  0  0  0  0  0  0  0  0  0
  128.1020  130.7330   63.0000 C   0  0  0  0  0  0  0  0  0  0  0  0
  128.1510  129.3310   62.9120 C   0  0  0  0  0  0  0  0  0  0  0  0
  128.2750  128.5810   64.0790 C   0  0  0  0  0  0  0  0  0  0  0  0
  128.3270  129.2620   65.2990 C   0  0  0  0  0  0  0  0  0  0  0  0
  128.4730  128.5650   66.5230 N   0  0  0  0  0  0  0  0  0  0  0  0
  128.7290  127.2170   66.6880 C   0  0  0  0  0  0  0  0  0  0  0  0
  128.7870  126.9080   68.0370 C   0  0  0  0  0  0  0  0  0  0  0  0
  128.5520  128.0890   68.7380 C   0  0  0  0  0  0  0  0  0  0  0  0
  128.3560  129.0870   67.7990 C   0  0  0  0  0  0  0  0  0  0  0  0
  128.2660  130.6200   65.3550 N   0  0  0  0  0  0  0  0  0  0  0  0
  128.1440  131.3360   64.2250 N   0  0  0  0  0  0  0  0  0  0  0  0
  127.0970  131.1420   60.7400 C   0  0  0  0  0  0  0  0  0  0  0  0
  126.7240  132.2410   59.7210 C   0  0  0  0  0  0  0  0  0  0  0  0
  127.1240  129.7580   57.6440 C   0  0  0  0  0  0  0  0  0  0  0  0
  131.9010  124.7000   60.7140 C   0  0  0  0  0  0  0  0  0  0  0  0
  133.2605  124.3451   62.9418 H   0  0  0  0  0  0  0  0  0  0  0  0
  133.8672  122.8331   62.1852 H   0  0  0  0  0  0  0  0  0  0  0  0
  134.8893  124.3103   62.1852 H   0  0  0  0  0  0  0  0  0  0  0  0
  135.1017  124.0944   59.6911 H   0  0  0  0  0  0  0  0  0  0  0  0
  134.1086  124.7825   57.5128 H   0  0  0  0  0  0  0  0  0  0  0  0
  131.7050  125.4217   57.3790 H   0  0  0  0  0  0  0  0  0  0  0  0
  126.8778  124.6992   59.8277 H   0  0  0  0  0  0  0  0  0  0  0  0
  127.9881  130.4233   55.7500 H   0  0  0  0  0  0  0  0  0  0  0  0
  128.0327  132.6302   56.0301 H   0  0  0  0  0  0  0  0  0  0  0  0
  126.7106  132.1870   57.2439 H   0  0  0  0  0  0  0  0  0  0  0  0
  129.5309  134.1160   60.1096 H   0  0  0  0  0  0  0  0  0  0  0  0
  127.9623  134.3541   60.9326 H   0  0  0  0  0  0  0  0  0  0  0  0
  129.8369  131.9369   61.0710 H   0  0  0  0  0  0  0  0  0  0  0  0
  129.2453  133.0640   62.4183 H   0  0  0  0  0  0  0  0  0  0  0  0
  128.0921  128.8322   61.9333 H   0  0  0  0  0  0  0  0  0  0  0  0
  128.3305  127.4830   64.0419 H   0  0  0  0  0  0  0  0  0  0  0  0
  128.8664  126.4958   65.8689 H   0  0  0  0  0  0  0  0  0  0  0  0
  128.9819  125.9170   68.4728 H   0  0  0  0  0  0  0  0  0  0  0  0
  128.5269  128.2062   69.8315 H   0  0  0  0  0  0  0  0  0  0  0  0
  128.1392  130.1398   68.0328 H   0  0  0  0  0  0  0  0  0  0  0  0
  127.6350  130.3510   60.1970 H   0  0  0  0  0  0  0  0  0  0  0  0
  126.1438  130.8217   61.1859 H   0  0  0  0  0  0  0  0  0  0  0  0
  126.2732  131.7816   58.8290 H   0  0  0  0  0  0  0  0  0  0  0  0
  125.9994  132.9375   60.1680 H   0  0  0  0  0  0  0  0  0  0  0  0
  126.7561  130.3307   58.5081 H   0  0  0  0  0  0  0  0  0  0  0  0
  126.2706  129.4626   57.0159 H   0  0  0  0  0  0  0  0  0  0  0  0
  131.2792  124.6742   61.6210 H   0  0  0  0  0  0  0  0  0  0  0  0
  1  2  1  0
  2  3  2  0
  3  4  1  0
  4  5  2  0
  5  6  1  0
  6  7  1  0
  7  8  1  0
  8  9  2  0
  9 10  1  0
 10 11  1  0
 11 12  2  0
 11 13  1  0
 13 14  1  0
 14 15  2  0
 15 16  1  0
 14 17  1  0
 17 18  1  0
 18 19  1  0
 19 20  1  0
 20 21  2  0
 20 22  1  0
 22 23  1  0
 23 24  1  0
 24 25  1  0
 25 26  1  0
 26 27  2  0
 27 28  1  0
 28 29  2  0
 29 30  1  0
 30 31  1  0
 31 32  2  0
 32 33  1  0
 33 34  2  0
 29 35  1  0
 35 36  2  0
 25 37  1  0
 37 38  1  0
 18 39  1  0
  6 40  2  0
 40  2  1  0
 16  7  1  0
 38 22  1  0
 16 10  2  0
 36 26  1  0
 39 13  1  0
 34 30  1  0
  1 41  1  0
  1 42  1  0
  1 43  1  0
  3 44  1  0
  4 45  1  0
  5 46  1  0
  9 47  1  0
 18 48  1  6
 19 49  1  0
 19 50  1  0
 23 51  1  0
 23 52  1  0
 24 53  1  0
 24 54  1  0
 27 55  1  0
 28 56  1  0
 31 57  1  0
 32 58  1  0
 33 59  1  0
 34 60  1  0
 37 61  1  0
 37 62  1  0
 38 63  1  0
 38 64  1  0
 39 65  1  0
 39 66  1  0
 40 67  1  0
M  END
>  <Binding energies>  (1) 
[-8.25]

>  <Ligand effiencies>  (1) 
[-0.20625]

>  <Interactions>  (1) 
["V-A:ILE:369:CG2:3237, V-A:ASP:366:CA:3210, V-A:ILE:369:CB:3236, V-A:PRO:540:C:4881, V-B:GLU:543:CB:9878, H-A:TYR:531:OH:4795, V-B:TYR:539:CE2:9848, V-B:GLU:543:CG:9879, V-A:ASP:366:CG:3213, V-A:TYR:539:CD1:4873, V-B:TYR:539:CZ:9849, V-A:TYR:539:CZ:4877, V-A:GLU:543:CD:4908, H-B:TYR:484:OH:9319, V-B:HIS:456:CE1:9041, V-A:ILE:369:CD1:3239, V-A:ASP:366:C:3208, V-A:GLU:543:CG:4907, V-A:MET:535:CE:4835, V-B:GLU:543:CD:9880, V-A:TYR:539:C:4867, H-B:TYR:531:OH:9767, V-A:ASP:366:CB:3212, V-A:GLU:543:CB:4906, V-A:PRO:540:N:4884, V-A:TYR:539:CG:4872, H-A:TYR:539:N:4870, V-A:PRO:540:CA:4883, V-A:TYR:539:CE1:4875"]

$$$$
ZINC1894250475-again1
     RDKit          3D

 33 34  0  0  0  0  0  0  0  0999 V2000
  128.4310  133.3070   62.2060 C   0  0  0  0  0  0  0  0  0  0  0  0
  129.5590  132.9320   61.3550 N   0  0  0  0  0  0  0  0  0  0  0  0
  129.0660  132.2580   60.1430 C   0  0  0  0  0  0  0  0  0  0  0  0
  129.7720  132.7480   58.8530 C   0  0  2  0  0  0  0  0  0  0  0  0
  128.8020  133.1360   57.7280 C   0  0  0  0  0  0  0  0  0  0  0  0
  129.5340  132.8240   56.4230 C   0  0  0  0  0  0  0  0  0  0  0  0
  130.5420  131.7060   56.7300 C   0  0  2  0  0  0  0  0  0  0  0  0
  130.6700  131.6470   58.2490 C   0  0  1  0  0  0  0  0  0  0  0  0
  131.8500  132.0640   57.4070 C   0  0  0  0  0  0  0  0  0  0  0  0
  132.8610  131.2030   57.2920 F   0  0  0  0  0  0  0  0  0  0  0  0
  132.2390  133.3400   57.4210 F   0  0  0  0  0  0  0  0  0  0  0  0
  130.4910  132.1190   62.1530 C   0  0  0  0  0  0  0  0  0  0  0  0
  131.6940  131.5490   61.3700 C   0  0  2  0  0  0  0  0  0  0  0  0
  131.7910  130.1210   61.6120 N   0  0  0  0  0  0  0  0  0  0  0  0
  132.9820  132.1620   61.7390 C   0  0  0  0  0  0  0  0  0  0  0  0
  133.9950  132.6440   62.0270 N   0  0  0  0  0  0  0  0  0  0  0  0
  128.7210  133.2106   63.2627 H   0  0  0  0  0  0  0  0  0  0  0  0
  128.1450  134.3486   61.9978 H   0  0  0  0  0  0  0  0  0  0  0  0
  127.5783  132.6440   61.9978 H   0  0  0  0  0  0  0  0  0  0  0  0
  129.2373  131.1765   60.2481 H   0  0  0  0  0  0  0  0  0  0  0  0
  127.9962  132.4944   60.0449 H   0  0  0  0  0  0  0  0  0  0  0  0
  130.3445  133.6273   59.1834 H   0  0  0  0  0  0  0  0  0  0  0  0
  127.8767  132.5455   57.7991 H   0  0  0  0  0  0  0  0  0  0  0  0
  128.5145  134.1961   57.7882 H   0  0  0  0  0  0  0  0  0  0  0  0
  128.8176  132.4875   55.6591 H   0  0  0  0  0  0  0  0  0  0  0  0
  130.0449  133.7180   56.0359 H   0  0  0  0  0  0  0  0  0  0  0  0
  130.3391  131.0603   55.8629 H   0  0  0  0  0  0  0  0  0  0  0  0
  130.5875  130.9203   59.0707 H   0  0  0  0  0  0  0  0  0  0  0  0
  130.8806  132.7472   62.9676 H   0  0  0  0  0  0  0  0  0  0  0  0
  129.9159  131.2511   62.5081 H   0  0  0  0  0  0  0  0  0  0  0  0
  131.5081  131.7768   60.3100 H   0  0  0  0  0  0  0  0  0  0  0  0
  130.9230  129.7750   61.9970 H   0  0  0  0  0  0  0  0  0  0  0  0
  131.9530  129.6320   60.7440 H   0  0  0  0  0  0  0  0  0  0  0  0
  1  2  1  0
  2  3  1  0
  3  4  1  0
  4  5  1  0
  5  6  1  0
  6  7  1  0
  7  8  1  0
  8  9  1  0
  9 10  1  0
  9 11  1  0
  2 12  1  0
 12 13  1  0
 13 14  1  0
 13 15  1  0
 15 16  3  0
  8  4  1  0
  9  7  1  0
  1 17  1  0
  1 18  1  0
  1 19  1  0
  3 20  1  0
  3 21  1  0
  4 22  1  1
  5 23  1  0
  5 24  1  0
  6 25  1  0
  6 26  1  0
  7 27  1  6
  8 28  1  1
 12 29  1  0
 12 30  1  0
 13 31  1  6
 14 32  1  0
 14 33  1  0
M  END
>  <Binding energies>  (1) 
[-5.01]

>  <Ligand effiencies>  (1) 
[-0.2783333333333333]

>  <Interactions>  (1) 
["V-A:PRO:540:CG:4886, H-A:ALA:541:N:4891, V-A:PRO:540:C:4881, V-A:ILE:538:CB:4862, V-A:ASN:362:CB:3176, V-A:TYR:539:CD1:4873, V-A:LEU:363:CD1:3189, V-A:ILE:538:CA:4860, V-A:TYR:531:CE2:4793, V-A:ALA:541:CB:4892, V-A:TYR:539:CA:4869, V-A:MET:535:CE:4835, V-A:TYR:539:C:4867, H-A:ARG:545:NH2:4928, H-A:LEU:363:N:3186, H-A:GLU:543:OE1:4909, V-A:PRO:540:N:4884, V-A:TYR:539:CG:4872, V-A:PRO:540:CB:4885, V-A:PRO:540:CA:4883, H-A:ASP:366:OD2:3215, V-A:PRO:540:CD:4887, V-A:TYR:539:CE1:4875"]

$$$$
ZINC1894270473
     RDKit          3D

 37 38  0  0  0  0  0  0  0  0999 V2000
  126.9930  125.4530   57.3200 C   0  0  0  0  0  0  0  0  0  0  0  0
  126.4270  124.3160   57.7540 C   0  0  0  0  0  0  0  0  0  0  0  0
  126.1450  122.9650   56.6490 Cl  0  0  0  0  0  0  0  0  0  0  0  0
  125.9660  124.0430   59.1810 C   0  0  0  0  0  0  0  0  0  0  0  0
  126.8760  124.6070   60.3130 C   0  0  1  0  0  0  0  0  0  0  0  0
  126.0280  125.4960   61.2490 N   0  0  0  0  0  0  0  0  0  0  0  0
  127.6920  123.5270   61.1190 C   0  0  1  0  0  0  0  0  0  0  0  0
  126.8350  123.0760   62.1620 O   0  0  0  0  0  0  0  0  0  0  0  0
  128.1400  122.3440   60.2110 C   0  0  0  0  0  0  0  0  0  0  0  0
  129.6780  122.3080   60.3820 C   0  0  1  0  0  0  0  0  0  0  0  0
  130.0010  123.7960   60.4500 C   0  0  0  0  0  0  0  0  0  0  0  0
  129.0810  124.0280   61.6480 C   0  0  2  0  0  0  0  0  0  0  0  0
  129.7070  123.0480   62.6720 C   0  0  0  0  0  0  0  0  0  0  0  0
  130.1030  121.8360   61.8000 C   0  0  1  0  0  0  0  0  0  0  0  0
  129.3950  120.6740   62.2240 O   0  0  0  0  0  0  0  0  0  0  0  0
  129.8820  119.4560   61.6770 C   0  0  0  0  0  0  0  0  0  0  0  0
  127.1621  126.2850   58.0194 H   0  0  0  0  0  0  0  0  0  0  0  0
  127.2877  125.5528   56.2649 H   0  0  0  0  0  0  0  0  0  0  0  0
  124.9659  124.4848   59.3018 H   0  0  0  0  0  0  0  0  0  0  0  0
  125.9923  122.9494   59.2968 H   0  0  0  0  0  0  0  0  0  0  0  0
  127.6552  125.2048   59.8176 H   0  0  0  0  0  0  0  0  0  0  0  0
  126.6290  126.1280   61.7590 H   0  0  0  0  0  0  0  0  0  0  0  0
  125.5200  124.9240   61.9090 H   0  0  0  0  0  0  0  0  0  0  0  0
  125.3680  126.0400   60.7110 H   0  0  0  0  0  0  0  0  0  0  0  0
  126.9970  123.6150   62.9410 H   0  0  0  0  0  0  0  0  0  0  0  0
  127.6864  121.3995   60.5460 H   0  0  0  0  0  0  0  0  0  0  0  0
  127.8318  122.4723   59.1629 H   0  0  0  0  0  0  0  0  0  0  0  0
  130.1407  121.6745   59.6109 H   0  0  0  0  0  0  0  0  0  0  0  0
  131.0595  124.0034   60.6660 H   0  0  0  0  0  0  0  0  0  0  0  0
  129.8580  124.4091   59.5480 H   0  0  0  0  0  0  0  0  0  0  0  0
  128.9708  125.0381   62.0693 H   0  0  0  0  0  0  0  0  0  0  0  0
  130.5898  123.4922   63.1550 H   0  0  0  0  0  0  0  0  0  0  0  0
  129.0234  122.7852   63.4928 H   0  0  0  0  0  0  0  0  0  0  0  0
  131.1648  121.5536   61.8524 H   0  0  0  0  0  0  0  0  0  0  0  0
  130.1558  118.7711   62.4931 H   0  0  0  0  0  0  0  0  0  0  0  0
  129.0996  118.9936   61.0573 H   0  0  0  0  0  0  0  0  0  0  0  0
  130.7675  119.6605   61.0573 H   0  0  0  0  0  0  0  0  0  0  0  0
  1  2  2  0
  2  3  1  0
  2  4  1  0
  4  5  1  0
  5  6  1  0
  5  7  1  0
  7  8  1  1
  7  9  1  0
  9 10  1  0
 10 11  1  0
 11 12  1  0
 12 13  1  0
 13 14  1  0
 14 15  1  0
 15 16  1  0
 12  7  1  0
 14 10  1  0
  1 17  1  0
  1 18  1  0
  4 19  1  0
  4 20  1  0
  5 21  1  6
  6 22  1  0
  6 23  1  0
  6 24  1  0
  8 25  1  0
  9 26  1  0
  9 27  1  0
 10 28  1  6
 11 29  1  0
 11 30  1  0
 12 31  1  1
 13 32  1  0
 13 33  1  0
 14 34  1  6
 16 35  1  0
 16 36  1  0
 16 37  1  0
M  CHG  1   6   1
M  END
>  <Binding energies>  (1) 
[-6.7]

>  <Ligand effiencies>  (1) 
[-0.335]

>  <Interactions>  (1) 
["V-B:PRO:540:CA:9855, H-B:GLU:543:OE1:9881, V-B:PRO:540:CD:9859, V-B:TYR:539:CD2:9846, H-B:ALA:541:N:9863, V-B:GLU:543:CD:9880, V-B:MET:535:CE:9807, V-B:ASP:366:CG:8184, V-B:PRO:540:C:9853, V-B:PRO:540:CB:9857, V-B:TYR:539:CE2:9848, V-B:ALA:541:CB:9864, V-A:LEU:475:CD2:4259, H-B:ASP:366:OD1:8185, V-B:TYR:539:C:9839, V-B:PRO:540:N:9856"]

$$$$
ZINC1894922354
     RDKit          3D

 38 40  0  0  0  0  0  0  0  0999 V2000
  126.0620  122.1350   56.4360 C   0  0  0  0  0  0  0  0  0  0  0  0
  126.6440  123.1490   57.0910 C   0  0  0  0  0  0  0  0  0  0  0  0
  127.8400  123.6970   57.8050 C   0  0  0  0  0  0  0  0  0  0  0  0
  126.5650  124.5360   57.6500 C   0  0  2  0  0  0  0  0  0  0  0  0
  125.7400  124.8220   58.9230 C   0  0  0  0  0  0  0  0  0  0  0  0
  126.5430  124.7810   60.2510 C   0  0  1  0  0  0  0  0  0  0  0  0
  125.9660  125.8010   61.2530 N   0  0  0  0  0  0  0  0  0  0  0  0
  126.6460  123.3550   60.8850 C   0  0  2  0  0  0  0  0  0  0  0  0
  125.6540  123.1850   61.8870 O   0  0  0  0  0  0  0  0  0  0  0  0
  128.0420  122.9740   61.4650 C   0  0  2  0  0  0  0  0  0  0  0  0
  129.1470  123.9970   61.1460 C   0  0  0  0  0  0  0  0  0  0  0  0
  130.2160  123.1460   60.4440 C   0  0  1  0  0  0  0  0  0  0  0  0
  130.9360  122.1590   61.3740 C   0  0  0  0  0  0  0  0  0  0  0  0
  129.8450  121.1290   61.6560 C   0  0  0  0  0  0  0  0  0  0  0  0
  128.6530  121.6850   60.8610 C   0  0  2  0  0  0  0  0  0  0  0  0
  129.3590  122.2420   59.7610 O   0  0  0  0  0  0  0  0  0  0  0  0
  125.0338  122.2413   56.0598 H   0  0  0  0  0  0  0  0  0  0  0  0
  126.6125  121.1964   56.2746 H   0  0  0  0  0  0  0  0  0  0  0  0
  128.1239  123.3009   58.7912 H   0  0  0  0  0  0  0  0  0  0  0  0
  128.9029  123.8359   57.5583 H   0  0  0  0  0  0  0  0  0  0  0  0
  126.2989  125.5169   57.2293 H   0  0  0  0  0  0  0  0  0  0  0  0
  125.2964  125.8237   58.8237 H   0  0  0  0  0  0  0  0  0  0  0  0
  124.9933  124.0172   58.9915 H   0  0  0  0  0  0  0  0  0  0  0  0
  127.5768  125.0613   60.0008 H   0  0  0  0  0  0  0  0  0  0  0  0
  125.3860  125.3280   61.9320 H   0  0  0  0  0  0  0  0  0  0  0  0
  125.4070  126.4870   60.7670 H   0  0  0  0  0  0  0  0  0  0  0  0
  126.7150  126.2740   61.7390 H   0  0  0  0  0  0  0  0  0  0  0  0
  126.4815  122.6680   60.0418 H   0  0  0  0  0  0  0  0  0  0  0  0
  125.9370  123.6450   62.6820 H   0  0  0  0  0  0  0  0  0  0  0  0
  127.8025  122.8891   62.5353 H   0  0  0  0  0  0  0  0  0  0  0  0
  128.7723  124.7886   60.4804 H   0  0  0  0  0  0  0  0  0  0  0  0
  129.5254  124.5177   62.0380 H   0  0  0  0  0  0  0  0  0  0  0  0
  130.9486  123.7860   59.9305 H   0  0  0  0  0  0  0  0  0  0  0  0
  131.8005  121.6978   60.8741 H   0  0  0  0  0  0  0  0  0  0  0  0
  131.3478  122.6262   62.2807 H   0  0  0  0  0  0  0  0  0  0  0  0
  130.1354  120.1321   61.2928 H   0  0  0  0  0  0  0  0  0  0  0  0
  129.6343  120.9939   62.7272 H   0  0  0  0  0  0  0  0  0  0  0  0
  127.8727  120.9187   60.7428 H   0  0  0  0  0  0  0  0  0  0  0  0
  1  2  2  0
  2  3  1  0
  3  4  1  0
  4  5  1  0
  5  6  1  0
  6  7  1  0
  6  8  1  0
  8  9  1  0
  8 10  1  0
 10 11  1  0
 11 12  1  0
 12 13  1  0
 13 14  1  0
 14 15  1  0
 15 16  1  0
  4  2  1  0
 15 10  1  0
 16 12  1  0
  1 17  1  0
  1 18  1  0
  3 19  1  0
  3 20  1  0
  4 21  1  6
  5 22  1  0
  5 23  1  0
  6 24  1  6
  7 25  1  0
  7 26  1  0
  7 27  1  0
  8 28  1  6
  9 29  1  0
 10 30  1  1
 11 31  1  0
 11 32  1  0
 12 33  1  6
 13 34  1  0
 13 35  1  0
 14 36  1  0
 14 37  1  0
 15 38  1  6
M  CHG  1   7   1
M  END
>  <Binding energies>  (1) 
[-7.21]

>  <Ligand effiencies>  (1) 
[-0.3605]

>  <Interactions>  (1) 
["V-B:PRO:540:CA:9855, V-B:ASP:366:CG:8184, V-B:ALA:541:CB:9864, V-B:TYR:539:CE2:9848, H-B:ALA:541:O:9861, V-B:TYR:539:C:9839, H-B:ASP:366:OD2:8186, V-B:TYR:539:CZ:9849, H-B:GLU:543:OE1:9881, V-B:ILE:538:CG2:9835, H-B:ALA:541:N:9863, V-B:PRO:540:CB:9857, H-B:ASP:366:OD1:8185, V-B:PRO:540:N:9856, V-B:PRO:540:CD:9859, V-B:TYR:539:CD2:9846, V-B:GLU:543:CD:9880, V-A:LEU:475:CD2:4259, V-B:PRO:540:C:9853, V-B:MET:535:CE:9807"]

$$$$
ZINC1895449063
     RDKit          3D

 37 39  0  0  0  0  0  0  0  0999 V2000
  132.3580  125.4610   61.9420 C   0  0  0  0  0  0  0  0  0  0  0  0
  133.2610  124.8180   63.0150 C   0  0  0  0  0  0  0  0  0  0  0  0
  134.0020  123.6050   62.4040 C   0  0  0  0  0  0  0  0  0  0  0  0
  132.4630  124.4560   64.3020 C   0  0  2  0  0  0  0  0  0  0  0  0
  131.2540  123.5480   64.0680 C   0  0  0  0  0  0  0  0  0  0  0  0
  130.1370  123.7720   65.4750 S   0  0  0  0  0  0  0  0  0  0  0  0
  130.8640  125.3290   65.7940 C   0  0  0  0  0  0  0  0  0  0  0  0
  130.4730  126.1610   66.7580 N   0  0  0  0  0  0  0  0  0  0  0  0
  129.1210  126.1840   67.3200 C   0  0  0  0  0  0  0  0  0  0  0  0
  129.1160  126.3770   68.8450 C   0  0  1  0  0  0  0  0  0  0  0  0
  129.2940  127.8080   69.3380 C   0  0  2  0  0  0  0  0  0  0  0  0
  129.8600  127.9490   70.7420 C   0  0  0  0  0  0  0  0  0  0  0  0
  128.6860  127.6610   71.6700 C   0  0  0  0  0  0  0  0  0  0  0  0
  127.8850  126.7540   70.9270 O   0  0  0  0  0  0  0  0  0  0  0  0
  127.9830  127.0770   69.5420 C   0  0  2  0  0  0  0  0  0  0  0  0
  131.8960  125.6040   65.0050 N   0  0  0  0  0  0  0  0  0  0  0  0
  131.5558  126.0322   62.4322 H   0  0  0  0  0  0  0  0  0  0  0  0
  132.9581  126.1362   61.3144 H   0  0  0  0  0  0  0  0  0  0  0  0
  131.9162  124.6730   61.3144 H   0  0  0  0  0  0  0  0  0  0  0  0
  134.0164  125.5500   63.3370 H   0  0  0  0  0  0  0  0  0  0  0  0
  134.3911  122.9680   63.2120 H   0  0  0  0  0  0  0  0  0  0  0  0
  133.3044  123.0241   61.7828 H   0  0  0  0  0  0  0  0  0  0  0  0
  134.8373  123.9605   61.7828 H   0  0  0  0  0  0  0  0  0  0  0  0
  133.2473  123.9555   64.8889 H   0  0  0  0  0  0  0  0  0  0  0  0
  130.7456  123.8304   63.1343 H   0  0  0  0  0  0  0  0  0  0  0  0
  131.5660  122.4968   63.9802 H   0  0  0  0  0  0  0  0  0  0  0  0
  131.0500  126.9720   66.9260 H   0  0  0  0  0  0  0  0  0  0  0  0
  128.5621  127.0115   66.8587 H   0  0  0  0  0  0  0  0  0  0  0  0
  128.6558  125.2103   67.1067 H   0  0  0  0  0  0  0  0  0  0  0  0
  129.5994  125.4013   69.0013 H   0  0  0  0  0  0  0  0  0  0  0  0
  129.7040  128.7013   68.8441 H   0  0  0  0  0  0  0  0  0  0  0  0
  130.6705  127.2238   70.9070 H   0  0  0  0  0  0  0  0  0  0  0  0
  130.2901  128.9463   70.9164 H   0  0  0  0  0  0  0  0  0  0  0  0
  129.0309  127.2020   72.6083 H   0  0  0  0  0  0  0  0  0  0  0  0
  128.1408  128.5704   71.9629 H   0  0  0  0  0  0  0  0  0  0  0  0
  126.9227  127.2204   69.2868 H   0  0  0  0  0  0  0  0  0  0  0  0
  132.3930  126.4840   65.0060 H   0  0  0  0  0  0  0  0  0  0  0  0
  1  2  1  0
  2  3  1  0
  2  4  1  0
  4  5  1  0
  5  6  1  0
  6  7  1  0
  7  8  1  0
  8  9  1  0
  9 10  1  0
 10 11  1  0
 11 12  1  0
 12 13  1  0
 13 14  1  0
 14 15  1  0
  7 16  2  0
 16  4  1  0
 15 10  1  0
 15 11  1  0
  1 17  1  0
  1 18  1  0
  1 19  1  0
  2 20  1  0
  3 21  1  0
  3 22  1  0
  3 23  1  0
  4 24  1  1
  5 25  1  0
  5 26  1  0
  8 27  1  0
  9 28  1  0
  9 29  1  0
 10 30  1  1
 11 31  1  6
 12 32  1  0
 12 33  1  0
 13 34  1  0
 13 35  1  0
 15 36  1  6
 16 37  1  0
M  CHG  1  16   1
M  END
>  <Binding energies>  (1) 
[-6.59]

>  <Ligand effiencies>  (1) 
[-0.3661111111111111]

>  <Interactions>  (1) 
["V-A:HIS:456:CE1:4070, V-A:ILE:369:CD1:3239, V-A:GLY:454:CA:4049, V-B:GLU:543:C:9874, H-A:GLU:543:OE2:4910, V-B:HIS:456:CE1:9041, V-B:HIS:456:CD2:9039, V-B:GLU:543:CB:9878, V-B:GLU:543:CD:9880, V-A:GLU:543:CB:4906, V-A:GLU:543:CD:4908, V-B:GLU:543:CG:9879, V-A:ARG:545:CZ:4926, H-A:GLU:543:OE1:4909, V-B:GLU:543:CA:9876, V-A:ASP:366:CG:3213, H-A:TYR:484:OH:4348"]

$$$$
ZINC1895449471
     RDKit          3D

 37 39  0  0  0  0  0  0  0  0999 V2000
  133.0970  124.1500   64.1090 C   0  0  0  0  0  0  0  0  0  0  0  0
  131.8280  124.9000   63.6340 C   0  0  0  0  0  0  0  0  0  0  0  0
  132.0920  125.8370   62.4330 C   0  0  0  0  0  0  0  0  0  0  0  0
  130.6840  123.9080   63.2690 C   0  0  0  0  0  0  0  0  0  0  0  0
  130.2710  122.9100   64.3760 C   0  0  0  0  0  0  0  0  0  0  0  0
  129.8610  123.7330   65.9430 S   0  0  0  0  0  0  0  0  0  0  0  0
  130.6000  125.3080   65.7550 C   0  0  0  0  0  0  0  0  0  0  0  0
  130.4000  126.1330   66.7870 N   0  0  0  0  0  0  0  0  0  0  0  0
  129.1820  126.2250   67.6020 C   0  0  0  0  0  0  0  0  0  0  0  0
  129.4860  126.5820   69.0640 C   0  0  1  0  0  0  0  0  0  0  0  0
  130.1200  127.9480   69.2780 C   0  0  2  0  0  0  0  0  0  0  0  0
  130.9800  128.0960   70.5240 C   0  0  0  0  0  0  0  0  0  0  0  0
  130.1460  127.5690   71.6900 C   0  0  0  0  0  0  0  0  0  0  0  0
  128.8050  127.6690   71.2260 O   0  0  0  0  0  0  0  0  0  0  0  0
  128.7310  127.6790   69.7950 C   0  0  2  0  0  0  0  0  0  0  0  0
  131.3540  125.7380   64.7480 N   0  0  0  0  0  0  0  0  0  0  0  0
  133.1236  124.1343   65.2086 H   0  0  0  0  0  0  0  0  0  0  0  0
  133.0774  123.1183   63.7279 H   0  0  0  0  0  0  0  0  0  0  0  0
  133.9913  124.6647   63.7279 H   0  0  0  0  0  0  0  0  0  0  0  0
  132.3731  126.8347   62.8012 H   0  0  0  0  0  0  0  0  0  0  0  0
  132.9099  125.4279   61.8216 H   0  0  0  0  0  0  0  0  0  0  0  0
  131.1809  125.9151   61.8216 H   0  0  0  0  0  0  0  0  0  0  0  0
  129.7967  124.5012   63.0030 H   0  0  0  0  0  0  0  0  0  0  0  0
  131.0776  123.2919   62.4471 H   0  0  0  0  0  0  0  0  0  0  0  0
  129.3901  122.3479   64.0325 H   0  0  0  0  0  0  0  0  0  0  0  0
  131.1285  122.2469   64.5629 H   0  0  0  0  0  0  0  0  0  0  0  0
  130.9860  126.9550   66.8040 H   0  0  0  0  0  0  0  0  0  0  0  0
  128.5292  127.0014   67.1765 H   0  0  0  0  0  0  0  0  0  0  0  0
  128.6935  125.2395   67.5904 H   0  0  0  0  0  0  0  0  0  0  0  0
  129.6966  125.5317   69.3140 H   0  0  0  0  0  0  0  0  0  0  0  0
  130.6476  128.6159   68.5812 H   0  0  0  0  0  0  0  0  0  0  0  0
  131.9036  127.5076   70.4206 H   0  0  0  0  0  0  0  0  0  0  0  0
  131.2715  129.1444   70.6846 H   0  0  0  0  0  0  0  0  0  0  0  0
  130.4050  126.5239   71.9152 H   0  0  0  0  0  0  0  0  0  0  0  0
  130.3154  128.1312   72.6202 H   0  0  0  0  0  0  0  0  0  0  0  0
  127.7071  128.0623   69.6737 H   0  0  0  0  0  0  0  0  0  0  0  0
  131.4250  126.7420   64.6500 H   0  0  0  0  0  0  0  0  0  0  0  0
  1  2  1  0
  2  3  1  0
  2  4  1  0
  4  5  1  0
  5  6  1  0
  6  7  1  0
  7  8  1  0
  8  9  1  0
  9 10  1  0
 10 11  1  0
 11 12  1  0
 12 13  1  0
 13 14  1  0
 14 15  1  0
  7 16  2  0
 16  2  1  0
 15 10  1  0
 15 11  1  0
  1 17  1  0
  1 18  1  0
  1 19  1  0
  3 20  1  0
  3 21  1  0
  3 22  1  0
  4 23  1  0
  4 24  1  0
  5 25  1  0
  5 26  1  0
  8 27  1  0
  9 28  1  0
  9 29  1  0
 10 30  1  1
 11 31  1  6
 12 32  1  0
 12 33  1  0
 13 34  1  0
 13 35  1  0
 15 36  1  1
 16 37  1  0
M  CHG  1  16   1
M  END
>  <Binding energies>  (1) 
[-6.84]

>  <Ligand effiencies>  (1) 
[-0.38]

>  <Interactions>  (1) 
["V-A:HIS:456:CE1:4070, V-A:GLY:454:CA:4049, V-B:HIS:456:CE1:9041, H-A:GLU:543:OE2:4910, V-A:GLU:543:C:4902, V-A:HIS:456:CD2:4068, V-B:GLU:543:CB:9878, V-A:GLY:544:C:4912, V-A:GLU:543:CB:4906, V-A:GLU:543:CD:4908, V-A:TYR:484:CE2:4346, V-B:GLU:543:CG:9879, V-A:LEU:475:CD2:4259, V-A:ARG:545:CZ:4926, H-A:GLU:543:OE1:4909, V-B:GLU:543:CA:9876, V-A:ASP:366:CG:3213, H-A:TYR:484:OH:4348"]

$$$$
ZINC1896178183-again1
     RDKit          3D

 36 38  0  0  0  0  0  0  0  0999 V2000
  126.3860  121.7760   56.4460 N   0  0  0  0  0  0  0  0  0  0  0  0
  126.8240  122.5480   57.1890 C   0  0  0  0  0  0  0  0  0  0  0  0
  127.3820  123.5300   58.1350 C   0  0  1  0  0  0  0  0  0  0  0  0
  127.1780  124.9760   57.6520 C   0  0  0  0  0  0  0  0  0  0  0  0
  126.0750  125.5440   58.5370 C   0  0  0  0  0  0  0  0  0  0  0  0
  126.3130  124.8680   59.8840 C   0  0  0  0  0  0  0  0  0  0  0  0
  126.7110  123.4180   59.5330 C   0  0  2  0  0  0  0  0  0  0  0  0
  127.5240  122.7330   60.5540 N   0  0  0  0  0  0  0  0  0  0  0  0
  127.8880  123.6340   61.6490 C   0  0  0  0  0  0  0  0  0  0  0  0
  128.4630  122.8390   62.8300 C   0  0  0  0  0  0  0  0  0  0  0  0
  129.6410  121.8990   62.4900 C   0  0  2  0  0  0  0  0  0  0  0  0
  131.0100  122.5130   62.7720 C   0  0  0  0  0  0  0  0  0  0  0  0
  131.5290  122.9550   61.4140 C   0  0  0  0  0  0  0  0  0  0  0  0
  131.0680  121.9170   60.5670 O   0  0  0  0  0  0  0  0  0  0  0  0
  129.7590  121.5280   60.9860 C   0  0  2  0  0  0  0  0  0  0  0  0
  128.7250  122.1060   59.9780 C   0  0  0  0  0  0  0  0  0  0  0  0
  128.4558  123.3005   58.1998 H   0  0  0  0  0  0  0  0  0  0  0  0
  128.1048  125.5564   57.7712 H   0  0  0  0  0  0  0  0  0  0  0  0
  126.9108  125.0183   56.5858 H   0  0  0  0  0  0  0  0  0  0  0  0
  126.1651  126.6368   58.6245 H   0  0  0  0  0  0  0  0  0  0  0  0
  125.0673  125.3578   58.1371 H   0  0  0  0  0  0  0  0  0  0  0  0
  127.1238  125.3705   60.4318 H   0  0  0  0  0  0  0  0  0  0  0  0
  125.4251  124.9095   60.5319 H   0  0  0  0  0  0  0  0  0  0  0  0
  125.8326  122.7563   59.5078 H   0  0  0  0  0  0  0  0  0  0  0  0
  128.6430  124.3503   61.2928 H   0  0  0  0  0  0  0  0  0  0  0  0
  126.9871  124.1686   61.9846 H   0  0  0  0  0  0  0  0  0  0  0  0
  128.8113  123.5589   63.5853 H   0  0  0  0  0  0  0  0  0  0  0  0
  127.6487  122.1874   63.1797 H   0  0  0  0  0  0  0  0  0  0  0  0
  129.4047  121.0312   63.1233 H   0  0  0  0  0  0  0  0  0  0  0  0
  130.9154  123.3747   63.4491 H   0  0  0  0  0  0  0  0  0  0  0  0
  131.6896  121.8007   63.2626 H   0  0  0  0  0  0  0  0  0  0  0  0
  131.1047  123.9268   61.1216 H   0  0  0  0  0  0  0  0  0  0  0  0
  132.6190  123.1000   61.3829 H   0  0  0  0  0  0  0  0  0  0  0  0
  129.5444  120.4496   60.9534 H   0  0  0  0  0  0  0  0  0  0  0  0
  129.2393  122.8652   59.3705 H   0  0  0  0  0  0  0  0  0  0  0  0
  128.3563  121.2387   59.4107 H   0  0  0  0  0  0  0  0  0  0  0  0
  1  2  3  0
  2  3  1  0
  3  4  1  0
  4  5  1  0
  5  6  1  0
  6  7  1  0
  7  8  1  0
  8  9  1  0
  9 10  1  0
 10 11  1  0
 11 12  1  0
 12 13  1  0
 13 14  1  0
 14 15  1  0
 15 16  1  0
  7  3  1  0
 16  8  1  0
 15 11  1  0
  3 17  1  1
  4 18  1  0
  4 19  1  0
  5 20  1  0
  5 21  1  0
  6 22  1  0
  6 23  1  0
  7 24  1  6
  9 25  1  0
  9 26  1  0
 10 27  1  0
 10 28  1  0
 11 29  1  1
 12 30  1  0
 12 31  1  0
 13 32  1  0
 13 33  1  0
 15 34  1  1
 16 35  1  0
 16 36  1  0
M  END
>  <Binding energies>  (1) 
[-5.96]

>  <Ligand effiencies>  (1) 
[-0.3725]

>  <Interactions>  (1) 
["V-B:PRO:540:CA:9855, V-B:TYR:539:CD2:9846, V-B:PRO:540:CD:9859, H-B:ALA:541:N:9863, V-B:ALA:541:CB:9864, V-B:TYR:539:CE2:9848, V-B:PRO:540:CB:9857, V-A:LEU:475:CD2:4259, H-B:TYR:539:N:9842, V-B:GLU:543:CG:9879, V-B:TYR:539:C:9839, V-B:PRO:540:N:9856"]

$$$$
ZINC1899897467
     RDKit          3D

 40 41  0  0  0  0  0  0  0  0999 V2000
  130.7950  128.1030   70.3100 C   0  0  0  0  0  0  0  0  0  0  0  0
  130.1080  127.5520   69.4650 C   0  0  0  0  0  0  0  0  0  0  0  0
  129.2880  126.8620   68.4470 C   0  0  2  0  0  0  0  0  0  0  0  0
  130.0030  126.5620   67.1260 N   0  0  1  0  0  0  0  0  0  0  0  0
  130.4960  125.1260   66.8590 C   0  0  0  0  0  0  0  0  0  0  0  0
  130.1090  124.6790   65.4300 C   0  0  2  0  0  0  0  0  0  0  0  0
  130.2320  123.1750   65.1340 C   0  0  0  0  0  0  0  0  0  0  0  0
  130.7050  123.5570   63.7220 C   0  0  0  0  0  0  0  0  0  0  0  0
  131.0730  124.9610   64.2510 C   0  0  1  0  0  0  0  0  0  0  0  0
  130.6030  126.1200   63.3420 C   0  0  0  0  0  0  0  0  0  0  0  0
  132.5680  125.1360   64.6440 C   0  0  0  0  0  0  0  0  0  0  0  0
  133.2620  123.9050   64.6340 O   0  0  0  0  0  0  0  0  0  0  0  0
  128.7460  127.0290   66.3830 C   0  0  0  0  0  0  0  0  0  0  0  0
  128.2360  127.7090   67.6720 C   0  0  0  0  0  0  0  0  0  0  0  0
  126.7790  127.3510   68.0300 C   0  0  0  0  0  0  0  0  0  0  0  0
  128.4140  129.2510   67.6550 C   0  0  0  0  0  0  0  0  0  0  0  0
  131.4142  128.5996   71.0716 H   0  0  0  0  0  0  0  0  0  0  0  0
  128.9455  126.0552   69.1117 H   0  0  0  0  0  0  0  0  0  0  0  0
  130.7580  127.2150   66.9690 H   0  0  0  0  0  0  0  0  0  0  0  0
  131.5904  125.0931   66.9649 H   0  0  0  0  0  0  0  0  0  0  0  0
  130.0249  124.4467   67.5847 H   0  0  0  0  0  0  0  0  0  0  0  0
  129.1383  125.1955   65.4602 H   0  0  0  0  0  0  0  0  0  0  0  0
  130.9823  122.6481   65.7418 H   0  0  0  0  0  0  0  0  0  0  0  0
  129.3912  122.4841   65.2943 H   0  0  0  0  0  0  0  0  0  0  0  0
  131.5622  122.9715   63.3581 H   0  0  0  0  0  0  0  0  0  0  0  0
  130.0416  123.4373   62.8528 H   0  0  0  0  0  0  0  0  0  0  0  0
  130.2624  126.9599   63.9653 H   0  0  0  0  0  0  0  0  0  0  0  0
  131.4384  126.4499   62.7070 H   0  0  0  0  0  0  0  0  0  0  0  0
  129.7738  125.7748   62.7070 H   0  0  0  0  0  0  0  0  0  0  0  0
  133.0465  125.8201   63.9277 H   0  0  0  0  0  0  0  0  0  0  0  0
  132.6072  125.5417   65.6657 H   0  0  0  0  0  0  0  0  0  0  0  0
  132.7830  123.2780   65.1800 H   0  0  0  0  0  0  0  0  0  0  0  0
  128.9462  127.7266   65.5564 H   0  0  0  0  0  0  0  0  0  0  0  0
  128.1140  126.3045   65.8485 H   0  0  0  0  0  0  0  0  0  0  0  0
  126.6664  127.3233   69.1239 H   0  0  0  0  0  0  0  0  0  0  0  0
  126.1015  128.1094   67.6107 H   0  0  0  0  0  0  0  0  0  0  0  0
  126.5301  126.3650   67.6107 H   0  0  0  0  0  0  0  0  0  0  0  0
  128.4573  129.6265   68.6880 H   0  0  0  0  0  0  0  0  0  0  0  0
  129.3476  129.5066   67.1325 H   0  0  0  0  0  0  0  0  0  0  0  0
  127.5632  129.7126   67.1325 H   0  0  0  0  0  0  0  0  0  0  0  0
  1  2  3  0
  2  3  1  0
  3  4  1  0
  4  5  1  0
  5  6  1  0
  6  7  1  0
  7  8  1  0
  8  9  1  0
  9 10  1  6
  9 11  1  0
 11 12  1  0
  4 13  1  0
 13 14  1  0
 14 15  1  0
 14 16  1  0
 14  3  1  0
  9  6  1  0
  1 17  1  0
  3 18  1  1
  4 19  1  6
  5 20  1  0
  5 21  1  0
  6 22  1  6
  7 23  1  0
  7 24  1  0
  8 25  1  0
  8 26  1  0
 10 27  1  0
 10 28  1  0
 10 29  1  0
 11 30  1  0
 11 31  1  0
 12 32  1  0
 13 33  1  0
 13 34  1  0
 15 35  1  0
 15 36  1  0
 15 37  1  0
 16 38  1  0
 16 39  1  0
 16 40  1  0
M  CHG  1   4   1
M  END
>  <Binding energies>  (1) 
[-6.68]

>  <Ligand effiencies>  (1) 
[-0.3711111111111111]

>  <Interactions>  (1) 
["V-A:GLU:543:CA:4904, H-A:GLU:543:OE2:4910, V-A:GLU:543:C:4902, V-B:GLU:543:CB:9878, V-A:TYR:484:CE2:4346, V-A:GLY:544:C:4912, V-B:GLU:543:CG:9879, V-B:ARG:545:CG:9894, V-A:TYR:484:CZ:4347, V-A:GLU:543:CD:4908, V-B:HIS:456:CE1:9041, H-A:GLY:454:N:4050, V-A:HIS:456:CE1:4070, V-A:GLU:543:CG:4907, V-B:GLU:543:CD:9880, V-A:ARG:545:CZ:4926, H-A:GLU:543:OE1:4909, V-A:GLU:543:CB:4906, H-A:TYR:484:OH:4348"]

$$$$
ZINC1899971414
     RDKit          3D

 37 38  0  0  0  0  0  0  0  0999 V2000
  127.9810  132.5960   57.9010 C   0  0  0  0  0  0  0  0  0  0  0  0
  129.0830  132.5000   56.4620 S   0  0  0  0  0  0  0  0  0  0  0  0
  130.7040  132.3980   57.2770 C   0  0  0  0  0  0  0  0  0  0  0  0
  130.6000  132.1000   58.7170 C   0  0  0  0  0  0  0  0  0  0  0  0
  130.5010  131.8360   59.9050 C   0  0  0  0  0  0  0  0  0  0  0  0
  130.3610  131.5390   61.3540 C   0  0  1  0  0  0  0  0  0  0  0  0
  131.6180  131.8760   62.0290 N   0  0  0  0  0  0  0  0  0  0  0  0
  132.4890  130.7090   62.2730 N   0  0  0  0  0  0  0  0  0  0  0  0
  129.1520  132.2570   62.0570 C   0  0  2  0  0  0  0  0  0  0  0  0
  129.2330  132.2230   63.6030 C   0  0  0  0  0  0  0  0  0  0  0  0
  127.7580  131.7620   61.5900 C   0  0  0  0  0  0  0  0  0  0  0  0
  126.9440  133.0300   61.4770 C   0  0  0  0  0  0  0  0  0  0  0  0
  127.9860  134.0160   60.9760 C   0  0  0  0  0  0  0  0  0  0  0  0
  129.1670  133.6480   61.6870 O   0  0  0  0  0  0  0  0  0  0  0  0
  131.8720  131.8520   56.4840 C   0  0  0  0  0  0  0  0  0  0  0  0
  131.7920  133.3300   56.7920 C   0  0  0  0  0  0  0  0  0  0  0  0
  128.5775  132.5440   58.8238 H   0  0  0  0  0  0  0  0  0  0  0  0
  127.4268  133.5458   57.8757 H   0  0  0  0  0  0  0  0  0  0  0  0
  127.2709  131.7563   57.8757 H   0  0  0  0  0  0  0  0  0  0  0  0
  130.1397  130.4646   61.4360 H   0  0  0  0  0  0  0  0  0  0  0  0
  132.1670  132.5240   61.4810 H   0  0  0  0  0  0  0  0  0  0  0  0
  131.9380  129.8630   62.3020 H   0  0  0  0  0  0  0  0  0  0  0  0
  132.9730  130.8130   63.1530 H   0  0  0  0  0  0  0  0  0  0  0  0
  133.1730  130.6260   61.5350 H   0  0  0  0  0  0  0  0  0  0  0  0
  128.2975  132.6157   64.0279 H   0  0  0  0  0  0  0  0  0  0  0  0
  129.3819  131.1864   63.9397 H   0  0  0  0  0  0  0  0  0  0  0  0
  130.0772  132.8427   63.9397 H   0  0  0  0  0  0  0  0  0  0  0  0
  127.8285  131.2536   60.6171 H   0  0  0  0  0  0  0  0  0  0  0  0
  127.3128  131.0311   62.2811 H   0  0  0  0  0  0  0  0  0  0  0  0
  126.1202  132.9157   60.7571 H   0  0  0  0  0  0  0  0  0  0  0  0
  126.4540  133.3331   62.4140 H   0  0  0  0  0  0  0  0  0  0  0  0
  128.1333  133.9138   59.8907 H   0  0  0  0  0  0  0  0  0  0  0  0
  127.6967  135.0642   61.1423 H   0  0  0  0  0  0  0  0  0  0  0  0
  132.6293  131.2270   56.9799 H   0  0  0  0  0  0  0  0  0  0  0  0
  131.9778  131.2530   55.5675 H   0  0  0  0  0  0  0  0  0  0  0  0
  132.4914  133.7803   57.5117 H   0  0  0  0  0  0  0  0  0  0  0  0
  131.8158  134.2516   56.1919 H   0  0  0  0  0  0  0  0  0  0  0  0
  1  2  1  0
  2  3  1  0
  3  4  1  0
  4  5  3  0
  5  6  1  0
  6  7  1  0
  7  8  1  0
  6  9  1  0
  9 10  1  1
  9 11  1  0
 11 12  1  0
 12 13  1  0
 13 14  1  0
  3 15  1  0
 15 16  1  0
 16  3  1  0
 14  9  1  0
  1 17  1  0
  1 18  1  0
  1 19  1  0
  6 20  1  6
  7 21  1  0
  8 22  1  0
  8 23  1  0
  8 24  1  0
 10 25  1  0
 10 26  1  0
 10 27  1  0
 11 28  1  0
 11 29  1  0
 12 30  1  0
 12 31  1  0
 13 32  1  0
 13 33  1  0
 15 34  1  0
 15 35  1  0
 16 36  1  0
 16 37  1  0
M  CHG  1   8   1
M  END
>  <Binding energies>  (1) 
[-6.74]

>  <Ligand effiencies>  (1) 
[-0.337]

>  <Interactions>  (1) 
["V-A:PRO:540:CG:4886, H-A:ALA:541:N:4891, V-A:ILE:538:CB:4862, H-A:ALA:541:O:4889, V-A:ASN:362:CB:3176, V-A:ILE:538:CG2:4863, V-A:LEU:363:CD1:3189, V-A:TYR:539:CD1:4873, V-A:ILE:538:CA:4860, V-A:TYR:539:CZ:4877, V-A:ALA:541:CB:4892, V-A:GLU:543:CD:4908, V-A:GLU:543:CG:4907, V-A:TYR:539:C:4867, H-A:GLU:543:OE1:4909, V-A:PRO:540:N:4884, V-A:TYR:539:CG:4872, V-A:PRO:540:CB:4885, V-A:PRO:540:CA:4883, H-A:ASP:366:OD2:3215, V-A:PRO:540:CD:4887, V-A:TYR:539:CE1:4875"]

$$$$
ZINC1900487619
     RDKit          3D

 38 40  0  0  0  0  0  0  0  0999 V2000
  131.3810  128.7860   61.6340 N   0  0  0  0  0  0  0  0  0  0  0  0
  130.8550  128.4910   60.2250 C   0  0  2  0  0  0  0  0  0  0  0  0
  131.3470  127.1560   59.8450 C   0  0  0  0  0  0  0  0  0  0  0  0
  131.7540  126.0560   59.5000 C   0  0  0  0  0  0  0  0  0  0  0  0
  132.2620  124.7340   59.0970 C   0  0  0  0  0  0  0  0  0  0  0  0
  133.5930  124.6670   58.3770 C   0  0  0  0  0  0  0  0  0  0  0  0
  133.4860  124.1900   59.8040 C   0  0  0  0  0  0  0  0  0  0  0  0
  131.2950  129.6210   59.2740 C   0  0  1  0  0  0  0  0  0  0  0  0
  132.3220  129.3480   58.1900 C   0  0  0  0  0  0  0  0  0  0  0  0
  130.8710  129.5910   57.8280 C   0  0  2  0  0  0  0  0  0  0  0  0
  130.4440  130.8990   57.1360 C   0  0  0  0  0  0  0  0  0  0  0  0
  129.1190  131.4490   57.7020 C   0  0  0  0  0  0  0  0  0  0  0  0
  128.7450  132.7820   57.0200 C   0  0  0  0  0  0  0  0  0  0  0  0
  129.8130  133.7190   57.1730 O   0  0  0  0  0  0  0  0  0  0  0  0
  131.0480  133.3030   56.5890 C   0  0  0  0  0  0  0  0  0  0  0  0
  131.5240  131.9940   57.2530 C   0  0  0  0  0  0  0  0  0  0  0  0
  131.1200  128.0460   62.2700 H   0  0  0  0  0  0  0  0  0  0  0  0
  130.9780  129.6490   61.9700 H   0  0  0  0  0  0  0  0  0  0  0  0
  132.3850  128.8930   61.6170 H   0  0  0  0  0  0  0  0  0  0  0  0
  129.7564  128.4691   60.1746 H   0  0  0  0  0  0  0  0  0  0  0  0
  131.2471  124.3601   58.8965 H   0  0  0  0  0  0  0  0  0  0  0  0
  133.7424  123.9408   57.5644 H   0  0  0  0  0  0  0  0  0  0  0  0
  134.2264  125.3926   57.8457 H   0  0  0  0  0  0  0  0  0  0  0  0
  133.5575  123.1161   60.0314 H   0  0  0  0  0  0  0  0  0  0  0  0
  134.0092  124.4242   60.7428 H   0  0  0  0  0  0  0  0  0  0  0  0
  131.2096  130.3470   60.0960 H   0  0  0  0  0  0  0  0  0  0  0  0
  133.0840  130.1040   57.9498 H   0  0  0  0  0  0  0  0  0  0  0  0
  133.0528  128.5504   57.9907 H   0  0  0  0  0  0  0  0  0  0  0  0
  130.1207  129.0381   57.2437 H   0  0  0  0  0  0  0  0  0  0  0  0
  130.3035  130.6409   56.0760 H   0  0  0  0  0  0  0  0  0  0  0  0
  128.3186  130.7157   57.5243 H   0  0  0  0  0  0  0  0  0  0  0  0
  129.2422  131.6264   58.7806 H   0  0  0  0  0  0  0  0  0  0  0  0
  128.5635  132.6064   55.9494 H   0  0  0  0  0  0  0  0  0  0  0  0
  127.8357  133.1873   57.4878 H   0  0  0  0  0  0  0  0  0  0  0  0
  130.9044  133.1349   55.5115 H   0  0  0  0  0  0  0  0  0  0  0  0
  131.8053  134.0856   56.7437 H   0  0  0  0  0  0  0  0  0  0  0  0
  132.4425  131.6498   56.7551 H   0  0  0  0  0  0  0  0  0  0  0  0
  131.7170  132.1879   58.3184 H   0  0  0  0  0  0  0  0  0  0  0  0
  1  2  1  0
  2  3  1  0
  3  4  3  0
  4  5  1  0
  5  6  1  0
  6  7  1  0
  2  8  1  0
  8  9  1  0
  9 10  1  0
 10 11  1  0
 11 12  1  0
 12 13  1  0
 13 14  1  0
 14 15  1  0
 15 16  1  0
  7  5  1  0
 10  8  1  0
 16 11  1  0
  1 17  1  0
  1 18  1  0
  1 19  1  0
  2 20  1  1
  5 21  1  0
  6 22  1  0
  6 23  1  0
  7 24  1  0
  7 25  1  0
  8 26  1  1
  9 27  1  0
  9 28  1  0
 10 29  1  1
 11 30  1  0
 12 31  1  0
 12 32  1  0
 13 33  1  0
 13 34  1  0
 15 35  1  0
 15 36  1  0
 16 37  1  0
 16 38  1  0
M  CHG  1   1   1
M  END
>  <Binding energies>  (1) 
[-7.29]

>  <Ligand effiencies>  (1) 
[-0.3836842105263158]

>  <Interactions>  (1) 
["V-A:ILE:369:CG2:3237, V-A:ASP:366:CA:3210, V-A:ILE:538:C:4858, H-A:GLU:543:OE2:4910, V-A:ILE:369:CB:3236, V-A:ILE:538:CB:4862, V-B:TYR:539:CE2:9848, V-A:ASP:366:CG:3213, V-A:ILE:538:CG2:4863, V-A:LEU:363:CD1:3189, V-A:TYR:539:CD1:4873, V-B:TYR:539:CZ:9849, V-A:ILE:538:CA:4860, V-A:TYR:531:CE2:4793, V-A:GLU:543:CD:4908, V-A:ASP:366:C:3208, V-A:TYR:531:CZ:4794, V-A:MET:535:CE:4835, V-A:ASP:366:CB:3212, H-A:GLU:543:OE1:4909, H-A:ASP:366:OD1:3214, V-A:PRO:540:N:4884, V-A:TYR:539:CG:4872, H-A:TYR:539:N:4870, H-A:ASP:366:OD2:3215, V-A:PRO:540:CD:4887, V-A:TYR:539:CE1:4875"]

$$$$
ZINC1900498805
     RDKit          3D

 40 41  0  0  0  0  0  0  0  0999 V2000
  126.2250  128.6410   62.1740 C   0  0  0  0  0  0  0  0  0  0  0  0
  126.5270  127.7840   60.9380 C   0  0  0  0  0  0  0  0  0  0  0  0
  126.2620  126.3040   61.2690 N   0  0  0  0  0  0  0  0  0  0  0  0
  127.4020  125.3210   60.9150 C   0  0  1  0  0  0  0  0  0  0  0  0
  128.3650  125.4160   62.0340 C   0  0  0  0  0  0  0  0  0  0  0  0
  129.1810  125.4460   62.9420 C   0  0  0  0  0  0  0  0  0  0  0  0
  130.1730  125.4360   64.0300 C   0  0  0  0  0  0  0  0  0  0  0  0
  130.2030  124.2430   64.9620 C   0  0  0  0  0  0  0  0  0  0  0  0
  131.3070  124.4360   63.9550 C   0  0  0  0  0  0  0  0  0  0  0  0
  126.8680  123.8730   60.5830 C   0  0  2  0  0  0  0  0  0  0  0  0
  125.5640  123.9000   59.7480 C   0  0  0  0  0  0  0  0  0  0  0  0
  126.4970  123.2340   61.8030 O   0  0  0  0  0  0  0  0  0  0  0  0
  127.9460  123.0060   59.8230 C   0  0  0  0  0  0  0  0  0  0  0  0
  127.6130  122.6710   58.3510 C   0  0  0  0  0  0  0  0  0  0  0  0
  129.4180  123.2030   60.1400 C   0  0  0  0  0  0  0  0  0  0  0  0
  128.7020  121.9380   60.5900 C   0  0  0  0  0  0  0  0  0  0  0  0
  126.4305  128.0577   63.0837 H   0  0  0  0  0  0  0  0  0  0  0  0
  126.8610  129.5384   62.1623 H   0  0  0  0  0  0  0  0  0  0  0  0
  125.1669  128.9414   62.1623 H   0  0  0  0  0  0  0  0  0  0  0  0
  125.8782  128.0966   60.1065 H   0  0  0  0  0  0  0  0  0  0  0  0
  127.5799  127.9141   60.6472 H   0  0  0  0  0  0  0  0  0  0  0  0
  126.1170  126.2500   62.2670 H   0  0  0  0  0  0  0  0  0  0  0  0
  125.4150  125.9930   60.8140 H   0  0  0  0  0  0  0  0  0  0  0  0
  127.9152  125.5837   59.9782 H   0  0  0  0  0  0  0  0  0  0  0  0
  130.1010  126.5258   64.1608 H   0  0  0  0  0  0  0  0  0  0  0  0
  130.4051  124.3876   66.0336 H   0  0  0  0  0  0  0  0  0  0  0  0
  129.5051  123.4277   65.2031 H   0  0  0  0  0  0  0  0  0  0  0  0
  132.3145  124.7213   64.2920 H   0  0  0  0  0  0  0  0  0  0  0  0
  131.7476  123.8195   63.1576 H   0  0  0  0  0  0  0  0  0  0  0  0
  124.6962  123.9180   60.4237 H   0  0  0  0  0  0  0  0  0  0  0  0
  125.5534  124.7986   59.1136 H   0  0  0  0  0  0  0  0  0  0  0  0
  125.5162  123.0027   59.1136 H   0  0  0  0  0  0  0  0  0  0  0  0
  126.3900  123.9090   62.4770 H   0  0  0  0  0  0  0  0  0  0  0  0
  126.8378  121.8912   58.3187 H   0  0  0  0  0  0  0  0  0  0  0  0
  127.2451  123.5749   57.8434 H   0  0  0  0  0  0  0  0  0  0  0  0
  128.5191  122.3085   57.8434 H   0  0  0  0  0  0  0  0  0  0  0  0
  130.1657  123.1554   59.3346 H   0  0  0  0  0  0  0  0  0  0  0  0
  130.0088  123.9836   60.6415 H   0  0  0  0  0  0  0  0  0  0  0  0
  128.9323  120.9753   60.1102 H   0  0  0  0  0  0  0  0  0  0  0  0
  128.5609  121.4245   61.5525 H   0  0  0  0  0  0  0  0  0  0  0  0
  1  2  1  0
  2  3  1  0
  3  4  1  0
  4  5  1  0
  5  6  3  0
  6  7  1  0
  7  8  1  0
  8  9  1  0
  4 10  1  0
 10 11  1  0
 10 12  1  1
 10 13  1  0
 13 14  1  0
 13 15  1  0
 15 16  1  0
  9  7  1  0
 16 13  1  0
  1 17  1  0
  1 18  1  0
  1 19  1  0
  2 20  1  0
  2 21  1  0
  3 22  1  0
  3 23  1  0
  4 24  1  6
  7 25  1  0
  8 26  1  0
  8 27  1  0
  9 28  1  0
  9 29  1  0
 11 30  1  0
 11 31  1  0
 11 32  1  0
 12 33  1  0
 14 34  1  0
 14 35  1  0
 14 36  1  0
 15 37  1  0
 15 38  1  0
 16 39  1  0
 16 40  1  0
M  CHG  1   3   1
M  END
>  <Binding energies>  (1) 
[-6.32]

>  <Ligand effiencies>  (1) 
[-0.33263157894736844]

>  <Interactions>  (1) 
["V-B:PRO:540:CA:9855, H-B:GLU:543:OE2:9882, H-B:GLU:543:OE1:9881, V-B:TYR:539:CD2:9846, H-B:ALA:541:N:9863, V-B:GLU:543:CD:9880, V-B:ASP:366:CG:8184, V-B:PRO:540:C:9853, V-B:TYR:539:CE2:9848, V-B:PRO:540:CB:9857, V-B:GLU:543:CG:9879, H-B:ASP:366:OD1:8185, V-B:TYR:539:C:9839, V-B:PRO:540:N:9856"]

$$$$
ZINC1900519704
     RDKit          3D

 36 37  0  0  0  0  0  0  0  0999 V2000
  128.3740  132.8820   56.4060 C   0  0  0  0  0  0  0  0  0  0  0  0
  129.5800  133.3580   57.0010 O   0  0  0  0  0  0  0  0  0  0  0  0
  130.4980  132.3800   57.5050 C   0  0  0  0  0  0  0  0  0  0  0  0
  130.4810  132.2800   58.9890 C   0  0  0  0  0  0  0  0  0  0  0  0
  130.4790  132.2190   60.2090 C   0  0  0  0  0  0  0  0  0  0  0  0
  130.4370  132.1370   61.6860 C   0  0  2  0  0  0  0  0  0  0  0  0
  131.5320  131.3100   62.1920 N   0  0  0  0  0  0  0  0  0  0  0  0
  131.5430  129.9470   61.6320 N   0  0  0  0  0  0  0  0  0  0  0  0
  129.0890  131.5610   62.1740 C   0  0  1  0  0  0  0  0  0  0  0  0
  128.7760  130.3840   61.6230 F   0  0  0  0  0  0  0  0  0  0  0  0
  128.7560  131.7560   63.6400 C   0  0  0  0  0  0  0  0  0  0  0  0
  127.8830  132.3840   62.5750 C   0  0  2  0  0  0  0  0  0  0  0  0
  126.4490  131.8480   62.4470 C   0  0  0  0  0  0  0  0  0  0  0  0
  130.4540  131.0270   56.7610 C   0  0  0  0  0  0  0  0  0  0  0  0
  131.9730  131.1190   56.5460 C   0  0  0  0  0  0  0  0  0  0  0  0
  131.9040  132.6100   56.9170 C   0  0  0  0  0  0  0  0  0  0  0  0
  127.6617  132.6008   57.1956 H   0  0  0  0  0  0  0  0  0  0  0  0
  127.9355  133.6745   55.7818 H   0  0  0  0  0  0  0  0  0  0  0  0
  128.5949  132.0036   55.7818 H   0  0  0  0  0  0  0  0  0  0  0  0
  130.5475  133.1598   62.0755 H   0  0  0  0  0  0  0  0  0  0  0  0
  131.4710  131.1990   63.1950 H   0  0  0  0  0  0  0  0  0  0  0  0
  130.8620  129.8690   60.8890 H   0  0  0  0  0  0  0  0  0  0  0  0
  131.3190  129.2720   62.3490 H   0  0  0  0  0  0  0  0  0  0  0  0
  132.4560  129.7310   61.2570 H   0  0  0  0  0  0  0  0  0  0  0  0
  128.3768  130.9121   64.2349 H   0  0  0  0  0  0  0  0  0  0  0  0
  129.3019  132.1300   64.5187 H   0  0  0  0  0  0  0  0  0  0  0  0
  127.5433  133.3936   62.3005 H   0  0  0  0  0  0  0  0  0  0  0  0
  126.0258  131.6898   63.4499 H   0  0  0  0  0  0  0  0  0  0  0  0
  125.8327  132.5765   61.8997 H   0  0  0  0  0  0  0  0  0  0  0  0
  126.4617  130.8939   61.8997 H   0  0  0  0  0  0  0  0  0  0  0  0
  130.1363  130.1784   57.3846 H   0  0  0  0  0  0  0  0  0  0  0  0
  129.7729  130.8733   55.9110 H   0  0  0  0  0  0  0  0  0  0  0  0
  132.5672  130.5060   57.2397 H   0  0  0  0  0  0  0  0  0  0  0  0
  132.4329  130.7904   55.6023 H   0  0  0  0  0  0  0  0  0  0  0  0
  132.6558  132.9272   57.6547 H   0  0  0  0  0  0  0  0  0  0  0  0
  132.0762  133.3873   56.1579 H   0  0  0  0  0  0  0  0  0  0  0  0
  1  2  1  0
  2  3  1  0
  3  4  1  0
  4  5  3  0
  5  6  1  0
  6  7  1  0
  7  8  1  0
  6  9  1  0
  9 10  1  6
  9 11  1  0
 11 12  1  0
 12 13  1  0
  3 14  1  0
 14 15  1  0
 15 16  1  0
 16  3  1  0
 12  9  1  0
  1 17  1  0
  1 18  1  0
  1 19  1  0
  6 20  1  1
  7 21  1  0
  8 22  1  0
  8 23  1  0
  8 24  1  0
 11 25  1  0
 11 26  1  0
 12 27  1  1
 13 28  1  0
 13 29  1  0
 13 30  1  0
 14 31  1  0
 14 32  1  0
 15 33  1  0
 15 34  1  0
 16 35  1  0
 16 36  1  0
M  CHG  1   8   1
M  END
>  <Binding energies>  (1) 
[-7.19]

>  <Ligand effiencies>  (1) 
[-0.35950000000000004]

>  <Interactions>  (1) 
["H-A:GLU:543:OE2:4910, V-A:PRO:540:C:4881, V-A:ILE:538:CB:4862, H-A:ALA:541:O:4889, V-A:TYR:539:CE2:4876, V-A:ASP:366:CG:3213, V-A:LEU:363:CD1:3189, V-A:TYR:539:CD1:4873, V-A:TYR:539:CZ:4877, V-A:TYR:531:CE2:4793, V-A:ALA:541:CB:4892, V-A:GLU:543:CD:4908, V-A:TYR:531:CZ:4794, V-A:GLU:543:CG:4907, V-A:MET:535:CE:4835, H-A:GLU:543:OE1:4909, V-A:PRO:540:N:4884, V-A:TYR:539:CG:4872, H-A:TYR:539:N:4870, V-A:PRO:540:CB:4885, V-A:PRO:540:CA:4883, V-A:TYR:539:CD2:4874, H-A:ASP:366:OD2:3215, V-A:PRO:540:CD:4887, V-A:TYR:539:CE1:4875"]

$$$$
ZINC1900613448
     RDKit          3D

 33 34  0  0  0  0  0  0  0  0999 V2000
  128.6810  126.0400   72.5230 N   0  0  0  0  0  0  0  0  0  0  0  0
  128.5310  126.5780   71.5090 C   0  0  0  0  0  0  0  0  0  0  0  0
  128.3410  127.2610   70.2190 C   0  0  0  0  0  0  0  0  0  0  0  0
  129.4940  127.0480   69.2240 C   0  0  0  0  0  0  0  0  0  0  0  0
  129.1010  126.2330   67.9730 C   0  0  2  0  0  0  0  0  0  0  0  0
  130.2090  125.3300   67.4140 C   0  0  0  0  0  0  0  0  0  0  0  0
  130.1900  126.0910   66.0830 N   0  0  1  0  0  0  0  0  0  0  0  0
  129.8390  125.2790   64.8190 C   0  0  0  0  0  0  0  0  0  0  0  0
  130.9930  125.3220   63.8020 C   0  0  0  0  0  0  0  0  0  0  0  0
  132.2090  125.6800   64.4470 O   0  0  0  0  0  0  0  0  0  0  0  0
  133.2610  124.7570   64.2080 C   0  0  1  0  0  0  0  0  0  0  0  0
  132.8510  123.4660   63.5460 C   0  0  0  0  0  0  0  0  0  0  0  0
  133.6850  124.4760   62.7850 C   0  0  0  0  0  0  0  0  0  0  0  0
  133.0850  125.1150   61.7810 F   0  0  0  0  0  0  0  0  0  0  0  0
  134.9360  124.0980   62.5290 F   0  0  0  0  0  0  0  0  0  0  0  0
  129.1070  127.0160   66.6510 C   0  0  0  0  0  0  0  0  0  0  0  0
  127.4146  126.8842   69.7610 H   0  0  0  0  0  0  0  0  0  0  0  0
  128.2992  128.3393   70.4324 H   0  0  0  0  0  0  0  0  0  0  0  0
  129.8540  128.0341   68.8954 H   0  0  0  0  0  0  0  0  0  0  0  0
  130.2667  126.4692   69.7512 H   0  0  0  0  0  0  0  0  0  0  0  0
  128.1675  125.8053   68.3675 H   0  0  0  0  0  0  0  0  0  0  0  0
  131.1624  125.4061   67.9573 H   0  0  0  0  0  0  0  0  0  0  0  0
  130.0836  124.2372   67.4234 H   0  0  0  0  0  0  0  0  0  0  0  0
  131.0560  126.5900   65.9400 H   0  0  0  0  0  0  0  0  0  0  0  0
  129.6483  124.2337   65.1036 H   0  0  0  0  0  0  0  0  0  0  0  0
  128.9443  125.7196   64.3549 H   0  0  0  0  0  0  0  0  0  0  0  0
  131.1061  124.3302   63.3400 H   0  0  0  0  0  0  0  0  0  0  0  0
  130.7626  126.0734   63.0324 H   0  0  0  0  0  0  0  0  0  0  0  0
  133.8091  125.0505   65.1154 H   0  0  0  0  0  0  0  0  0  0  0  0
  133.2992  122.5152   63.8701 H   0  0  0  0  0  0  0  0  0  0  0  0
  131.8943  122.9537   63.3660 H   0  0  0  0  0  0  0  0  0  0  0  0
  129.4251  128.0639   66.7548 H   0  0  0  0  0  0  0  0  0  0  0  0
  128.1684  127.1677   66.0979 H   0  0  0  0  0  0  0  0  0  0  0  0
  1  2  3  0
  2  3  1  0
  3  4  1  0
  4  5  1  0
  5  6  1  0
  6  7  1  0
  7  8  1  0
  8  9  1  0
  9 10  1  0
 10 11  1  0
 11 12  1  0
 12 13  1  0
 13 14  1  0
 13 15  1  0
  7 16  1  0
 16  5  1  0
 13 11  1  0
  3 17  1  0
  3 18  1  0
  4 19  1  0
  4 20  1  0
  5 21  1  6
  6 22  1  0
  6 23  1  0
  7 24  1  1
  8 25  1  0
  8 26  1  0
  9 27  1  0
  9 28  1  0
 11 29  1  1
 12 30  1  0
 12 31  1  0
 16 32  1  0
 16 33  1  0
M  CHG  1   7   1
M  END
>  <Binding energies>  (1) 
[-4.85]

>  <Ligand effiencies>  (1) 
[-0.2852941176470588]

>  <Interactions>  (1) 
["V-A:GLY:454:CA:4049, V-B:GLU:543:C:9874, H-A:GLU:543:OE2:4910, V-B:GLU:543:CB:9878, H-B:LYS:547:NZ:9923, V-A:TYR:484:CE2:4346, V-B:GLU:543:CG:9879, V-A:ASP:366:CG:3213, V-A:GLU:543:CD:4908, V-A:TYR:484:CZ:4347, V-B:HIS:456:CE1:9041, V-B:GLU:543:CA:9876, V-A:GLY:453:C:4042, V-A:HIS:456:CE1:4070, V-A:ILE:369:CD1:3239, V-B:GLU:543:CD:9880, V-A:LEU:475:CD2:4259, H-A:ARG:545:NH2:4928, V-A:ARG:545:CZ:4926, H-A:GLU:543:OE1:4909, V-A:GLY:453:CA:4044, H-A:ARG:545:NE:4924"]

$$$$
ZINC1900856
     RDKit          3D

 69 75  0  0  0  0  0  0  0  0999 V2000
  130.2380  118.1920   61.3190 C   0  0  0  0  0  0  0  0  0  0  0  0
  130.7980  119.3540   60.7170 O   0  0  0  0  0  0  0  0  0  0  0  0
  130.4070  120.6010   61.1640 C   0  0  0  0  0  0  0  0  0  0  0  0
  131.4020  121.5700   61.2650 C   0  0  0  0  0  0  0  0  0  0  0  0
  131.1010  122.8530   61.7090 C   0  0  0  0  0  0  0  0  0  0  0  0
  129.7960  123.2060   62.0750 C   0  0  0  0  0  0  0  0  0  0  0  0
  129.5220  124.5280   62.4680 N   0  0  0  0  0  0  0  0  0  0  0  0
  129.1100  125.4390   61.6580 C   0  0  0  0  0  0  0  0  0  0  0  0
  128.9250  125.1830   60.2990 N   0  0  0  0  0  0  0  0  0  0  0  0
  128.4980  126.0980   59.3260 C   0  0  0  0  0  0  0  0  0  0  0  0
  128.3570  125.6740   58.0040 C   0  0  0  0  0  0  0  0  0  0  0  0
  127.9350  126.5720   57.0270 C   0  0  0  0  0  0  0  0  0  0  0  0
  127.6540  127.8920   57.3720 C   0  0  0  0  0  0  0  0  0  0  0  0
  127.7940  128.3190   58.6920 C   0  0  0  0  0  0  0  0  0  0  0  0
  128.2250  127.4350   59.7010 C   0  0  0  0  0  0  0  0  0  0  0  0
  128.3990  127.8090   61.0740 N   0  0  0  0  0  0  0  0  0  0  0  0
  128.7820  126.8780   62.0880 C   0  0  0  0  0  0  0  0  0  0  0  0
  128.8680  127.1400   63.3430 N   0  0  0  0  0  0  0  0  0  0  0  0
  128.5170  128.3920   63.7370 C   0  0  0  0  0  0  0  0  0  0  0  0
  128.1750  129.4590   62.9280 C   0  0  0  0  0  0  0  0  0  0  0  0
  127.8280  130.4940   63.8050 C   0  0  0  0  0  0  0  0  0  0  0  0
  127.3660  131.8990   63.4940 C   0  0  0  0  0  0  0  0  0  0  0  0
  127.9490  130.1090   65.0590 N   0  0  0  0  0  0  0  0  0  0  0  0
  128.3630  128.8270   65.0370 N   0  0  0  0  0  0  0  0  0  0  0  0
  128.6040  128.1390   66.2540 C   0  0  0  0  0  0  0  0  0  0  0  0
  129.1030  126.8300   66.2390 C   0  0  0  0  0  0  0  0  0  0  0  0
  129.3390  126.1580   67.4350 C   0  0  0  0  0  0  0  0  0  0  0  0
  129.0790  126.7920   68.6470 C   0  0  0  0  0  0  0  0  0  0  0  0
  128.5850  128.0940   68.6760 C   0  0  0  0  0  0  0  0  0  0  0  0
  128.3490  128.7690   67.4810 C   0  0  0  0  0  0  0  0  0  0  0  0
  128.2540  129.2740   61.4040 C   0  0  1  0  0  0  0  0  0  0  0  0
  129.3430  130.1790   60.8180 C   0  0  0  0  0  0  0  0  0  0  0  0
  129.1440  130.8130   59.5860 C   0  0  0  0  0  0  0  0  0  0  0  0
  130.1300  131.6420   59.0510 C   0  0  0  0  0  0  0  0  0  0  0  0
  131.3220  131.8470   59.7440 C   0  0  0  0  0  0  0  0  0  0  0  0
  131.5280  131.2220   60.9750 C   0  0  0  0  0  0  0  0  0  0  0  0
  133.0020  131.4760   61.8370 Cl  0  0  0  0  0  0  0  0  0  0  0  0
  130.5420  130.3940   61.5110 C   0  0  0  0  0  0  0  0  0  0  0  0
  128.7740  122.2440   61.9580 C   0  0  0  0  0  0  0  0  0  0  0  0
  127.4900  122.6380   62.2990 O   0  0  0  0  0  0  0  0  0  0  0  0
  126.6460  123.2270   61.3160 C   0  0  0  0  0  0  0  0  0  0  0  0
  129.0930  120.9480   61.5120 C   0  0  0  0  0  0  0  0  0  0  0  0
  130.2842  118.2878   62.4138 H   0  0  0  0  0  0  0  0  0  0  0  0
  129.1895  118.0850   61.0042 H   0  0  0  0  0  0  0  0  0  0  0  0
  130.8076  117.3052   61.0042 H   0  0  0  0  0  0  0  0  0  0  0  0
  132.4370  121.3179   60.9907 H   0  0  0  0  0  0  0  0  0  0  0  0
  131.9021  123.6040   61.7739 H   0  0  0  0  0  0  0  0  0  0  0  0
  129.1200  124.2430   59.9860 H   0  0  0  0  0  0  0  0  0  0  0  0
  128.5791  124.6311   57.7339 H   0  0  0  0  0  0  0  0  0  0  0  0
  127.8237  126.2395   55.9844 H   0  0  0  0  0  0  0  0  0  0  0  0
  127.3202  128.6006   56.5997 H   0  0  0  0  0  0  0  0  0  0  0  0
  127.5641  129.3633   58.9499 H   0  0  0  0  0  0  0  0  0  0  0  0
  127.1873  132.4426   64.4334 H   0  0  0  0  0  0  0  0  0  0  0  0
  128.1404  132.4191   62.9111 H   0  0  0  0  0  0  0  0  0  0  0  0
  126.4340  131.8579   62.9111 H   0  0  0  0  0  0  0  0  0  0  0  0
  129.3088  126.3321   65.2800 H   0  0  0  0  0  0  0  0  0  0  0  0
  129.7295  125.1297   67.4226 H   0  0  0  0  0  0  0  0  0  0  0  0
  129.2656  126.2593   69.5911 H   0  0  0  0  0  0  0  0  0  0  0  0
  128.3822  128.5868   69.6383 H   0  0  0  0  0  0  0  0  0  0  0  0
  127.9618  129.7984   67.4994 H   0  0  0  0  0  0  0  0  0  0  0  0
  127.3195  129.5958   60.9212 H   0  0  0  0  0  0  0  0  0  0  0  0
  128.2041  130.6565   59.0363 H   0  0  0  0  0  0  0  0  0  0  0  0
  129.9667  132.1346   58.0811 H   0  0  0  0  0  0  0  0  0  0  0  0
  132.0993  132.5005   59.3213 H   0  0  0  0  0  0  0  0  0  0  0  0
  130.7064  129.9068   62.4834 H   0  0  0  0  0  0  0  0  0  0  0  0
  125.8412  123.7887   61.8127 H   0  0  0  0  0  0  0  0  0  0  0  0
  127.2363  123.9103   60.6878 H   0  0  0  0  0  0  0  0  0  0  0  0
  126.2083  122.4373   60.6878 H   0  0  0  0  0  0  0  0  0  0  0  0
  128.2970  120.1927   61.4348 H   0  0  0  0  0  0  0  0  0  0  0  0
  1  2  1  0
  2  3  1  0
  3  4  2  0
  4  5  1  0
  5  6  2  0
  6  7  1  0
  7  8  2  0
  8  9  1  0
  9 10  1  0
 10 11  2  0
 11 12  1  0
 12 13  2  0
 13 14  1  0
 14 15  2  0
 15 16  1  0
 16 17  1  0
 17 18  2  0
 18 19  1  0
 19 20  2  0
 20 21  1  0
 21 22  1  0
 21 23  2  0
 23 24  1  0
 24 25  1  0
 25 26  2  0
 26 27  1  0
 27 28  2  0
 28 29  1  0
 29 30  2  0
 20 31  1  0
 31 32  1  0
 32 33  2  0
 33 34  1  0
 34 35  2  0
 35 36  1  0
 36 37  1  0
 36 38  2  0
  6 39  1  0
 39 40  1  0
 40 41  1  0
 39 42  2  0
 42  3  1  0
 17  8  1  0
 24 19  1  0
 30 25  1  0
 38 32  1  0
 15 10  1  0
 31 16  1  0
  1 43  1  0
  1 44  1  0
  1 45  1  0
  4 46  1  0
  5 47  1  0
  9 48  1  0
 11 49  1  0
 12 50  1  0
 13 51  1  0
 14 52  1  0
 22 53  1  0
 22 54  1  0
 22 55  1  0
 26 56  1  0
 27 57  1  0
 28 58  1  0
 29 59  1  0
 30 60  1  0
 31 61  1  6
 33 62  1  0
 34 63  1  0
 35 64  1  0
 38 65  1  0
 41 66  1  0
 41 67  1  0
 41 68  1  0
 42 69  1  0
M  END
>  <Binding energies>  (1) 
[-8.19]

>  <Ligand effiencies>  (1) 
[-0.19046511627906976]

>  <Interactions>  (1) 
["V-B:PRO:540:CA:9855, V-B:GLU:543:CB:9878, V-B:ALA:541:CB:9864, V-B:TYR:539:CE2:9848, V-B:GLU:543:CG:9879, V-B:TYR:539:C:9839, V-A:ASN:362:CB:3176, H-B:ALA:541:N:9863, V-A:GLU:543:CD:4908, V-B:PRO:540:CB:9857, H-B:TYR:484:OH:9319, V-B:HIS:456:CE1:9041, V-A:HIS:456:CE1:4070, V-A:PRO:482:CB:4326, V-B:TYR:539:CD2:9846, V-A:GLU:543:CG:4907, H-A:SER:385:OG:3410, V-B:GLU:543:CD:9880, V-A:LEU:475:CD2:4259, V-A:GLU:543:CB:4906, V-A:PRO:540:CB:4885, V-A:PRO:540:CA:4883, V-B:PRO:540:C:9853, V-B:ALA:541:CA:9862"]

$$$$
ZINC1900856-again1
     RDKit          3D

 70 76  0  0  0  0  0  0  0  0999 V2000
  128.7510  127.2090   71.0890 C   0  0  0  0  0  0  0  0  0  0  0  0
  127.9070  126.7120   70.0560 O   0  0  0  0  0  0  0  0  0  0  0  0
  128.3400  126.7630   68.7450 C   0  0  0  0  0  0  0  0  0  0  0  0
  127.8610  127.8160   67.9700 C   0  0  0  0  0  0  0  0  0  0  0  0
  128.2370  127.9480   66.6360 C   0  0  0  0  0  0  0  0  0  0  0  0
  129.0960  127.0170   66.0470 C   0  0  0  0  0  0  0  0  0  0  0  0
  129.4310  127.2110   64.6950 N   0  0  0  0  0  0  0  0  0  0  0  0
  129.4280  126.3050   63.6090 C   0  0  0  0  0  0  0  0  0  0  0  0
  129.3460  124.9930   63.9240 N   0  0  0  0  0  0  0  0  0  0  0  0
  129.3190  124.0780   62.9310 C   0  0  0  0  0  0  0  0  0  0  0  0
  129.2190  122.7120   63.2910 C   0  0  0  0  0  0  0  0  0  0  0  0
  129.1810  121.7280   62.3090 C   0  0  0  0  0  0  0  0  0  0  0  0
  129.2390  122.0710   60.9630 C   0  0  0  0  0  0  0  0  0  0  0  0
  129.3420  123.4040   60.5730 C   0  0  0  0  0  0  0  0  0  0  0  0
  129.3920  124.4430   61.5520 C   0  0  0  0  0  0  0  0  0  0  0  0
  129.5060  125.8090   61.2550 N   0  0  0  0  0  0  0  0  0  0  0  0
  129.4830  126.7490   62.2700 C   0  0  0  0  0  0  0  0  0  0  0  0
  129.4910  128.1640   61.9780 N   0  0  0  0  0  0  0  0  0  0  0  0
  129.4100  128.5690   60.6850 C   0  0  0  0  0  0  0  0  0  0  0  0
  129.4940  127.7120   59.6080 C   0  0  0  0  0  0  0  0  0  0  0  0
  129.3750  128.5360   58.4770 C   0  0  0  0  0  0  0  0  0  0  0  0
  129.3890  128.1560   57.0150 C   0  0  0  0  0  0  0  0  0  0  0  0
  129.2540  129.8010   58.8180 N   0  0  0  0  0  0  0  0  0  0  0  0
  129.2760  129.8400   60.1620 N   0  0  0  0  0  0  0  0  0  0  0  0
  129.1300  131.0850   60.8250 C   0  0  0  0  0  0  0  0  0  0  0  0
  128.2790  132.0680   60.3020 C   0  0  0  0  0  0  0  0  0  0  0  0
  128.1440  133.2910   60.9550 C   0  0  0  0  0  0  0  0  0  0  0  0
  128.8570  133.5310   62.1270 C   0  0  0  0  0  0  0  0  0  0  0  0
  129.7080  132.5620   62.6530 C   0  0  0  0  0  0  0  0  0  0  0  0
  129.8470  131.3390   62.0020 C   0  0  0  0  0  0  0  0  0  0  0  0
  129.7010  126.2120   59.8040 C   0  0  1  0  0  0  0  0  0  0  0  0
  131.0730  125.7890   59.2640 C   0  0  0  0  0  0  0  0  0  0  0  0
  131.4830  126.1750   57.9820 C   0  0  0  0  0  0  0  0  0  0  0  0
  132.7330  125.7930   57.4940 C   0  0  0  0  0  0  0  0  0  0  0  0
  133.5860  125.0240   58.2860 C   0  0  0  0  0  0  0  0  0  0  0  0
  133.1910  124.6400   59.5670 C   0  0  0  0  0  0  0  0  0  0  0  0
  134.2450  123.6920   60.5510 Cl  0  0  0  0  0  0  0  0  0  0  0  0
  131.9400  125.0240   60.0550 C   0  0  0  0  0  0  0  0  0  0  0  0
  129.6180  125.9580   66.8150 C   0  0  0  0  0  0  0  0  0  0  0  0
  130.5210  125.0970   66.2120 O   0  0  0  0  0  0  0  0  0  0  0  0
  131.8970  125.4500   66.1360 C   0  0  0  0  0  0  0  0  0  0  0  0
  129.2220  125.8400   68.1600 C   0  0  0  0  0  0  0  0  0  0  0  0
  128.3199  126.9551   72.0686 H   0  0  0  0  0  0  0  0  0  0  0  0
  129.7484  126.7540   70.9983 H   0  0  0  0  0  0  0  0  0  0  0  0
  128.8369  128.3019   70.9983 H   0  0  0  0  0  0  0  0  0  0  0  0
  127.1772  128.5525   68.4172 H   0  0  0  0  0  0  0  0  0  0  0  0
  127.8551  128.7912   66.0417 H   0  0  0  0  0  0  0  0  0  0  0  0
  129.7540  128.1410   64.4720 H   0  0  0  0  0  0  0  0  0  0  0  0
  129.1711  122.4279   64.3526 H   0  0  0  0  0  0  0  0  0  0  0  0
  129.1044  120.6698   62.5996 H   0  0  0  0  0  0  0  0  0  0  0  0
  129.2032  121.2813   60.1981 H   0  0  0  0  0  0  0  0  0  0  0  0
  129.3851  123.6585   59.5037 H   0  0  0  0  0  0  0  0  0  0  0  0
  129.4810  128.8450   62.7240 H   0  0  0  0  0  0  0  0  0  0  0  0
  129.4294  127.0607   56.9212 H   0  0  0  0  0  0  0  0  0  0  0  0
  128.4764  128.5322   56.5296 H   0  0  0  0  0  0  0  0  0  0  0  0
  130.2715  128.5983   56.5296 H   0  0  0  0  0  0  0  0  0  0  0  0
  127.7178  131.8738   59.3761 H   0  0  0  0  0  0  0  0  0  0  0  0
  127.4768  134.0643   60.5465 H   0  0  0  0  0  0  0  0  0  0  0  0
  128.7469  134.4963   62.6428 H   0  0  0  0  0  0  0  0  0  0  0  0
  130.2678  132.7620   63.5786 H   0  0  0  0  0  0  0  0  0  0  0  0
  130.5201  130.5716   62.4119 H   0  0  0  0  0  0  0  0  0  0  0  0
  128.9342  125.6753   59.2261 H   0  0  0  0  0  0  0  0  0  0  0  0
  130.8148  126.7838   57.3552 H   0  0  0  0  0  0  0  0  0  0  0  0
  133.0460  126.0982   56.4846 H   0  0  0  0  0  0  0  0  0  0  0  0
  134.5703  124.7205   57.8999 H   0  0  0  0  0  0  0  0  0  0  0  0
  131.6333  124.7236   61.0678 H   0  0  0  0  0  0  0  0  0  0  0  0
  132.3053  125.5548   67.1520 H   0  0  0  0  0  0  0  0  0  0  0  0
  132.4480  124.6641   65.5986 H   0  0  0  0  0  0  0  0  0  0  0  0
  132.0016  126.4041   65.5986 H   0  0  0  0  0  0  0  0  0  0  0  0
  129.6111  125.0081   68.7654 H   0  0  0  0  0  0  0  0  0  0  0  0
  1  2  1  0
  2  3  1  0
  3  4  2  0
  4  5  1  0
  5  6  2  0
  6  7  1  0
  7  8  1  0
  8  9  2  0
  9 10  1  0
 10 11  2  0
 11 12  1  0
 12 13  2  0
 13 14  1  0
 14 15  2  0
 15 16  1  0
 16 17  2  0
 17 18  1  0
 18 19  1  0
 19 20  2  0
 20 21  1  0
 21 22  1  0
 21 23  2  0
 23 24  1  0
 24 25  1  0
 25 26  2  0
 26 27  1  0
 27 28  2  0
 28 29  1  0
 29 30  2  0
 20 31  1  0
 31 32  1  0
 32 33  2  0
 33 34  1  0
 34 35  2  0
 35 36  1  0
 36 37  1  0
 36 38  2  0
  6 39  1  0
 39 40  1  0
 40 41  1  0
 39 42  2  0
 42  3  1  0
 17  8  1  0
 24 19  1  0
 30 25  1  0
 38 32  1  0
 15 10  1  0
 31 16  1  0
  1 43  1  0
  1 44  1  0
  1 45  1  0
  4 46  1  0
  5 47  1  0
  7 48  1  0
 11 49  1  0
 12 50  1  0
 13 51  1  0
 14 52  1  0
 18 53  1  0
 22 54  1  0
 22 55  1  0
 22 56  1  0
 26 57  1  0
 27 58  1  0
 28 59  1  0
 29 60  1  0
 30 61  1  0
 31 62  1  6
 33 63  1  0
 34 64  1  0
 35 65  1  0
 38 66  1  0
 41 67  1  0
 41 68  1  0
 41 69  1  0
 42 70  1  0
M  CHG  1  16   1
M  END
>  <Binding energies>  (1) 
[-8.49]

>  <Ligand effiencies>  (1) 
[-0.19295454545454546]

>  <Interactions>  (1) 
["V-A:ILE:369:CG2:3237, V-A:ASP:366:CA:3210, V-B:GLU:543:C:9874, H-A:GLU:543:OE2:4910, V-A:ILE:369:CB:3236, V-B:GLU:543:CB:9878, V-A:PRO:540:C:4881, V-B:ALA:541:CB:9864, V-B:TYR:539:CE2:9848, V-B:GLU:543:CG:9879, V-A:ASP:366:CG:3213, V-A:ALA:541:CB:4892, V-A:GLU:543:CD:4908, V-A:TYR:484:CZ:4347, V-B:HIS:456:CE1:9041, V-B:GLU:543:CA:9876, V-A:HIS:456:CE1:4070, V-A:ILE:369:CD1:3239, V-A:ASP:366:C:3208, V-A:ALA:541:CA:4890, V-B:TYR:539:CD2:9846, V-A:TYR:531:CZ:4794, V-B:GLU:543:CD:9880, V-A:MET:535:CE:4835, V-A:ASP:366:CB:3212, V-A:LEU:475:CD2:4259, H-A:GLU:543:OE1:4909, V-A:PRO:540:CA:4883, V-B:ALA:541:CA:9862, H-A:TYR:484:OH:4348"]

$$$$
ZINC1901939364-again1
     RDKit          3D

 31 32  0  0  0  0  0  0  0  0999 V2000
  125.7960  123.6330   60.0660 C   0  0  0  0  0  0  0  0  0  0  0  0
  127.2970  123.2310   59.9780 C   0  0  1  0  0  0  0  0  0  0  0  0
  127.8270  122.5330   61.2750 C   0  0  1  0  0  0  0  0  0  0  0  0
  129.3070  122.5020   61.3620 C   0  0  0  0  0  0  0  0  0  0  0  0
  130.5280  122.4940   61.4020 C   0  0  0  0  0  0  0  0  0  0  0  0
  132.0020  122.4740   61.4190 C   0  0  2  0  0  0  0  0  0  0  0  0
  132.7580  122.6430   60.1130 C   0  0  0  0  0  0  0  0  0  0  0  0
  132.7280  121.3010   60.7920 C   0  0  0  0  0  0  0  0  0  0  0  0
  133.8490  120.8730   61.3730 F   0  0  0  0  0  0  0  0  0  0  0  0
  132.0320  120.3270   60.2010 F   0  0  0  0  0  0  0  0  0  0  0  0
  127.2670  123.1900   62.4590 N   0  0  0  0  0  0  0  0  0  0  0  0
  125.8820  122.8450   62.7000 N   0  0  0  0  0  0  0  0  0  0  0  0
  127.6480  122.4780   58.6740 C   0  0  0  0  0  0  0  0  0  0  0  0
  128.1020  123.8060   58.0520 C   0  0  1  0  0  0  0  0  0  0  0  0
  127.2190  124.3950   57.2430 F   0  0  0  0  0  0  0  0  0  0  0  0
  128.1930  124.3850   59.4690 C   0  0  0  0  0  0  0  0  0  0  0  0
  125.4990  123.7125   61.1222 H   0  0  0  0  0  0  0  0  0  0  0  0
  125.6464  124.6029   59.5690 H   0  0  0  0  0  0  0  0  0  0  0  0
  125.1817  122.8677   59.5690 H   0  0  0  0  0  0  0  0  0  0  0  0
  127.4944  121.4855   61.2293 H   0  0  0  0  0  0  0  0  0  0  0  0
  132.0195  122.9699   62.4007 H   0  0  0  0  0  0  0  0  0  0  0  0
  132.2056  122.7963   59.1742 H   0  0  0  0  0  0  0  0  0  0  0  0
  133.5520  123.3156   59.7565 H   0  0  0  0  0  0  0  0  0  0  0  0
  127.3030  124.1960   62.3760 H   0  0  0  0  0  0  0  0  0  0  0  0
  125.8520  122.2800   63.5380 H   0  0  0  0  0  0  0  0  0  0  0  0
  125.3730  123.7060   62.8460 H   0  0  0  0  0  0  0  0  0  0  0  0
  128.4499  121.7331   58.7842 H   0  0  0  0  0  0  0  0  0  0  0  0
  126.9015  121.8464   58.1702 H   0  0  0  0  0  0  0  0  0  0  0  0
  128.9581  123.8500   57.3627 H   0  0  0  0  0  0  0  0  0  0  0  0
  129.2087  124.3883   59.8913 H   0  0  0  0  0  0  0  0  0  0  0  0
  127.9264  125.4337   59.6666 H   0  0  0  0  0  0  0  0  0  0  0  0
  2  1  1  6
  2  3  1  0
  3  4  1  0
  4  5  3  0
  5  6  1  0
  6  7  1  0
  7  8  1  0
  8  9  1  0
  8 10  1  0
  3 11  1  0
 11 12  1  0
  2 13  1  0
 13 14  1  0
 14 15  1  0
 14 16  1  0
 16  2  1  0
  8  6  1  0
  1 17  1  0
  1 18  1  0
  1 19  1  0
  3 20  1  6
  6 21  1  1
  7 22  1  0
  7 23  1  0
 11 24  1  0
 12 25  1  0
 12 26  1  0
 13 27  1  0
 13 28  1  0
 14 29  1  1
 16 30  1  0
 16 31  1  0
M  END
>  <Binding energies>  (1) 
[-5.31]

>  <Ligand effiencies>  (1) 
[-0.2794736842105263]

>  <Interactions>  (1) 
["V-A:ILE:369:CG2:3237, V-B:PRO:540:CA:9855, V-B:TYR:539:CZ:9849, H-B:GLU:543:OE1:9881, V-B:TYR:539:CD2:9846, V-A:SER:385:CB:3409, H-B:ALA:541:N:9863, V-B:PRO:540:C:9853, V-A:SER:385:CA:3407, V-B:TYR:539:CE2:9848, V-B:PRO:540:CB:9857, V-A:LEU:475:CD2:4259, H-B:ALA:541:O:9861, V-B:TYR:539:C:9839, V-A:SER:385:C:3405, V-B:PRO:540:N:9856"]

$$$$
ZINC1901944378
     RDKit          3D

 32 33  0  0  0  0  0  0  0  0999 V2000
  131.7590  126.9130   68.0320 O   0  0  0  0  0  0  0  0  0  0  0  0
  130.5250  126.9380   68.0840 C   0  0  0  0  0  0  0  0  0  0  0  0
  129.7420  127.9630   68.7770 C   0  0  0  0  0  0  0  0  0  0  0  0
  129.1040  127.6890   69.8930 C   0  0  0  0  0  0  0  0  0  0  0  0
  128.4650  127.4500   71.0080 C   0  0  0  0  0  0  0  0  0  0  0  0
  127.2210  126.9880   71.7140 C   0  0  0  0  0  0  0  0  0  0  0  0
  128.4610  127.3910   72.5020 C   0  0  0  0  0  0  0  0  0  0  0  0
  129.1800  126.4340   73.0880 F   0  0  0  0  0  0  0  0  0  0  0  0
  128.4450  128.5450   73.1690 F   0  0  0  0  0  0  0  0  0  0  0  0
  129.7420  125.8290   67.3720 C   0  0  0  0  0  0  0  0  0  0  0  0
  130.6350  124.8990   66.5180 C   0  0  1  0  0  0  0  0  0  0  0  0
  129.8610  123.9450   65.5670 C   0  0  0  0  0  0  0  0  0  0  0  0
  130.7710  123.2040   64.5710 C   0  0  0  0  0  0  0  0  0  0  0  0
  131.6560  124.1870   63.7850 C   0  0  0  0  0  0  0  0  0  0  0  0
  132.4790  125.0920   64.7200 C   0  0  0  0  0  0  0  0  0  0  0  0
  131.5380  125.8360   65.6870 N   0  0  0  0  0  0  0  0  0  0  0  0
  129.6869  128.9782   68.3571 H   0  0  0  0  0  0  0  0  0  0  0  0
  126.3254  127.6264   71.7293 H   0  0  0  0  0  0  0  0  0  0  0  0
  126.5801  126.0953   71.6664 H   0  0  0  0  0  0  0  0  0  0  0  0
  129.2305  125.2201   68.1320 H   0  0  0  0  0  0  0  0  0  0  0  0
  129.0343  126.3190   66.6871 H   0  0  0  0  0  0  0  0  0  0  0  0
  131.1884  124.2290   67.1925 H   0  0  0  0  0  0  0  0  0  0  0  0
  129.3314  123.1986   66.1772 H   0  0  0  0  0  0  0  0  0  0  0  0
  129.1704  124.5651   64.9765 H   0  0  0  0  0  0  0  0  0  0  0  0
  131.4156  122.5060   65.1253 H   0  0  0  0  0  0  0  0  0  0  0  0
  130.1346  122.6617   63.8562 H   0  0  0  0  0  0  0  0  0  0  0  0
  132.3452  123.6136   63.1477 H   0  0  0  0  0  0  0  0  0  0  0  0
  130.9986  124.8292   63.1805 H   0  0  0  0  0  0  0  0  0  0  0  0
  133.1836  124.4757   65.2978 H   0  0  0  0  0  0  0  0  0  0  0  0
  133.0357  125.8256   64.1183 H   0  0  0  0  0  0  0  0  0  0  0  0
  132.0950  126.3960   66.3170 H   0  0  0  0  0  0  0  0  0  0  0  0
  130.9570  126.4770   65.1660 H   0  0  0  0  0  0  0  0  0  0  0  0
  1  2  2  0
  2  3  1  0
  3  4  2  0
  4  5  2  0
  5  6  1  0
  6  7  1  0
  7  8  1  0
  7  9  1  0
  2 10  1  0
 10 11  1  0
 11 12  1  0
 12 13  1  0
 13 14  1  0
 14 15  1  0
 15 16  1  0
  7  5  1  0
 16 11  1  0
  3 17  1  0
  6 18  1  0
  6 19  1  0
 10 20  1  0
 10 21  1  0
 11 22  1  1
 12 23  1  0
 12 24  1  0
 13 25  1  0
 13 26  1  0
 14 27  1  0
 14 28  1  0
 15 29  1  0
 15 30  1  0
 16 31  1  0
 16 32  1  0
M  CHG  1  16   1
M  END
>  <Binding energies>  (1) 
[-5.88]

>  <Ligand effiencies>  (1) 
[-0.32666666666666666]

>  <Interactions>  (1) 
["V-A:HIS:456:CE1:4070, V-B:HIS:456:CD2:9039, H-A:GLU:543:OE2:4910, V-B:GLY:544:C:9884, V-B:GLU:543:CB:9878, V-B:GLY:544:CA:9886, V-A:ARG:545:CZ:4926, V-B:HIS:456:CG:9037, V-A:GLU:543:CD:4908, V-A:TYR:484:CE2:4346, V-A:TYR:484:CZ:4347, V-A:LEU:475:CD2:4259, V-B:GLU:543:CG:9879, H-A:GLU:543:OE1:4909, V-B:HIS:456:CE1:9041, V-A:HIS:456:CD2:4068, H-A:HIS:456:ND1:4067, V-A:GLU:543:CB:4906"]

$$$$
ZINC1901944990
     RDKit          3D

 32 34  0  0  0  0  0  0  0  0999 V2000
  126.8700  122.8560   62.3330 O   0  0  0  0  0  0  0  0  0  0  0  0
  128.1780  122.7870   61.8080 C   0  0  2  0  0  0  0  0  0  0  0  0
  129.1810  123.1380   62.8370 C   0  0  0  0  0  0  0  0  0  0  0  0
  130.0160  123.4400   63.6760 C   0  0  0  0  0  0  0  0  0  0  0  0
  131.0380  123.8180   64.6690 C   0  0  2  0  0  0  0  0  0  0  0  0
  130.8870  125.1230   65.4300 C   0  0  0  0  0  0  0  0  0  0  0  0
  131.9500  124.9920   64.3730 C   0  0  0  0  0  0  0  0  0  0  0  0
  133.2190  124.9170   64.7740 F   0  0  0  0  0  0  0  0  0  0  0  0
  131.7900  125.6890   63.2460 F   0  0  0  0  0  0  0  0  0  0  0  0
  128.1600  123.5830   60.4420 C   0  0  2  0  0  0  0  0  0  0  0  0
  128.6330  125.0520   60.5740 C   0  0  0  0  0  0  0  0  0  0  0  0
  127.5660  125.8830   61.3640 C   0  0  0  0  0  0  0  0  0  0  0  0
  126.1080  125.6120   60.8810 N   0  0  0  0  0  0  0  0  0  0  0  0
  125.8080  124.1660   60.4040 C   0  0  0  0  0  0  0  0  0  0  0  0
  126.9740  123.8360   59.4610 C   0  0  2  0  0  0  0  0  0  0  0  0
  127.9300  122.7100   59.2250 C   0  0  0  0  0  0  0  0  0  0  0  0
  126.8030  123.6440   62.8780 H   0  0  0  0  0  0  0  0  0  0  0  0
  128.5124  121.7723   61.5462 H   0  0  0  0  0  0  0  0  0  0  0  0
  131.1841  122.7646   64.9501 H   0  0  0  0  0  0  0  0  0  0  0  0
  130.0114  125.7646   65.2522 H   0  0  0  0  0  0  0  0  0  0  0  0
  130.8793  125.4059   66.4930 H   0  0  0  0  0  0  0  0  0  0  0  0
  129.5910  125.0802   61.1139 H   0  0  0  0  0  0  0  0  0  0  0  0
  128.7606  125.4844   59.5706 H   0  0  0  0  0  0  0  0  0  0  0  0
  127.6369  125.6222   62.4303 H   0  0  0  0  0  0  0  0  0  0  0  0
  127.7799  126.9476   61.1884 H   0  0  0  0  0  0  0  0  0  0  0  0
  125.4520  125.8840   61.6000 H   0  0  0  0  0  0  0  0  0  0  0  0
  125.9360  126.2230   60.0950 H   0  0  0  0  0  0  0  0  0  0  0  0
  125.7851  123.4702   61.2557 H   0  0  0  0  0  0  0  0  0  0  0  0
  124.8280  124.0773   59.9124 H   0  0  0  0  0  0  0  0  0  0  0  0
  126.4855  124.3702   58.6328 H   0  0  0  0  0  0  0  0  0  0  0  0
  127.5903  121.6722   59.3573 H   0  0  0  0  0  0  0  0  0  0  0  0
  128.5569  122.4065   58.3736 H   0  0  0  0  0  0  0  0  0  0  0  0
  1  2  1  0
  2  3  1  0
  3  4  3  0
  4  5  1  0
  5  6  1  0
  6  7  1  0
  7  8  1  0
  7  9  1  0
  2 10  1  0
 10 11  1  6
 11 12  1  0
 12 13  1  0
 13 14  1  0
 14 15  1  0
 15 16  1  0
  7  5  1  0
 15 10  1  0
 16 10  1  0
  1 17  1  0
  2 18  1  6
  5 19  1  1
  6 20  1  0
  6 21  1  0
 11 22  1  0
 11 23  1  0
 12 24  1  0
 12 25  1  0
 13 26  1  0
 13 27  1  0
 14 28  1  0
 14 29  1  0
 15 30  1  6
 16 31  1  0
 16 32  1  0
M  CHG  1  13   1
M  END
>  <Binding energies>  (1) 
[-6.15]

>  <Ligand effiencies>  (1) 
[-0.3236842105263158]

>  <Interactions>  (1) 
["V-B:PRO:540:CA:9855, H-B:GLU:543:OE1:9881, V-B:TYR:539:CD2:9846, H-B:ALA:541:N:9863, V-B:GLU:543:CD:9880, V-B:ALA:541:CB:9864, V-B:ASP:366:CG:8184, V-B:TYR:539:CE2:9848, V-B:PRO:540:CB:9857, V-A:TYR:484:CZ:4347, V-B:GLU:543:CG:9879, V-A:TYR:484:CE2:4346, V-A:ARG:545:CZ:4926, H-B:ASP:366:OD1:8185, V-B:TYR:539:C:9839, V-B:PRO:540:N:9856"]

$$$$
ZINC1902007946-again1
     RDKit          3D

 34 33  0  0  0  0  0  0  0  0999 V2000
  131.7490  133.3680   56.7790 C   0  0  0  0  0  0  0  0  0  0  0  0
  130.7580  132.1950   56.6640 C   0  0  0  0  0  0  0  0  0  0  0  0
  129.5390  132.4200   57.5810 C   0  0  0  0  0  0  0  0  0  0  0  0
  131.4680  130.8410   56.9290 C   0  0  0  0  0  0  0  0  0  0  0  0
  131.3950  130.3020   58.3820 C   0  0  1  0  0  0  0  0  0  0  0  0
  131.8710  128.9150   58.4590 N   0  0  0  0  0  0  0  0  0  0  0  0
  131.1270  127.8170   58.2390 C   0  0  0  0  0  0  0  0  0  0  0  0
  129.9330  127.8110   57.9440 O   0  0  0  0  0  0  0  0  0  0  0  0
  131.9110  126.6050   58.3930 C   0  0  0  0  0  0  0  0  0  0  0  0
  132.4980  125.5410   58.5280 C   0  0  0  0  0  0  0  0  0  0  0  0
  133.1970  124.2570   58.7120 C   0  0  2  0  0  0  0  0  0  0  0  0
  134.1190  124.2350   59.9430 C   0  0  0  0  0  0  0  0  0  0  0  0
  133.9740  123.9900   57.5160 N   0  0  0  0  0  0  0  0  0  0  0  0
  132.1410  131.2300   59.3720 C   0  0  0  0  0  0  0  0  0  0  0  0
  133.2290  131.7900   58.8410 F   0  0  0  0  0  0  0  0  0  0  0  0
  131.3810  132.1980   59.8850 F   0  0  0  0  0  0  0  0  0  0  0  0
  131.9350  133.5881   57.8406 H   0  0  0  0  0  0  0  0  0  0  0  0
  132.6960  133.0973   56.2893 H   0  0  0  0  0  0  0  0  0  0  0  0
  131.3239  134.2565   56.2893 H   0  0  0  0  0  0  0  0  0  0  0  0
  130.3769  132.1520   55.6330 H   0  0  0  0  0  0  0  0  0  0  0  0
  129.8557  132.3616   58.6328 H   0  0  0  0  0  0  0  0  0  0  0  0
  129.1089  133.4127   57.3822 H   0  0  0  0  0  0  0  0  0  0  0  0
  128.7828  131.6463   57.3822 H   0  0  0  0  0  0  0  0  0  0  0  0
  131.0126  130.0884   56.2686 H   0  0  0  0  0  0  0  0  0  0  0  0
  132.5352  131.0257   56.7369 H   0  0  0  0  0  0  0  0  0  0  0  0
  130.3377  130.2993   58.6854 H   0  0  0  0  0  0  0  0  0  0  0  0
  132.8510  128.7920   58.6620 H   0  0  0  0  0  0  0  0  0  0  0  0
  132.4360  123.4815   58.8835 H   0  0  0  0  0  0  0  0  0  0  0  0
  133.5090  124.2496   60.8583 H   0  0  0  0  0  0  0  0  0  0  0  0
  134.7322  123.3220   59.9255 H   0  0  0  0  0  0  0  0  0  0  0  0
  134.7751  125.1177   59.9255 H   0  0  0  0  0  0  0  0  0  0  0  0
  133.8470  124.7370   56.8480 H   0  0  0  0  0  0  0  0  0  0  0  0
  134.9570  123.9510   57.7430 H   0  0  0  0  0  0  0  0  0  0  0  0
  132.4350  130.5495   60.1847 H   0  0  0  0  0  0  0  0  0  0  0  0
  1  2  1  0
  2  3  1  0
  2  4  1  0
  4  5  1  0
  5  6  1  0
  6  7  1  0
  7  8  2  0
  7  9  1  0
  9 10  3  0
 10 11  1  0
 11 12  1  0
 11 13  1  0
  5 14  1  0
 14 15  1  0
 14 16  1  0
  1 17  1  0
  1 18  1  0
  1 19  1  0
  2 20  1  0
  3 21  1  0
  3 22  1  0
  3 23  1  0
  4 24  1  0
  4 25  1  0
  5 26  1  1
  6 27  1  0
 11 28  1  1
 12 29  1  0
 12 30  1  0
 12 31  1  0
 13 32  1  0
 13 33  1  0
 14 34  1  0
M  END
>  <Binding energies>  (1) 
[-5.22]

>  <Ligand effiencies>  (1) 
[-0.27473684210526317]

>  <Interactions>  (1) 
["V-A:ILE:369:CG2:3237, V-A:ASP:366:CA:3210, V-A:PRO:540:CG:4886, V-A:ILE:369:CB:3236, V-A:PRO:540:C:4881, V-A:ILE:538:CB:4862, H-A:TYR:531:OH:4795, V-B:TYR:539:CE2:9848, V-A:ASP:366:CG:3213, V-A:ILE:538:CG2:4863, V-A:LEU:363:CD1:3189, V-A:LEU:363:CB:3187, V-B:TYR:539:CZ:9849, V-A:ILE:538:CA:4860, H-A:ASN:370:N:3244, V-A:TYR:531:CE2:4793, H-B:TYR:539:OH:9850, V-A:ILE:369:CD1:3239, V-A:TYR:531:CZ:4794, V-A:ASP:366:CB:3212, H-A:ASP:366:O:3209, V-A:PRO:540:N:4884, V-A:PRO:540:CB:4885, V-A:PRO:540:CA:4883, V-A:LEU:363:CA:3185, H-A:ASP:366:OD2:3215, V-A:PRO:540:CD:4887"]

$$$$
ZINC1902211121
     RDKit          3D

 40 41  0  0  0  0  0  0  0  0999 V2000
  130.1800  117.4560   60.9270 C   0  0  0  0  0  0  0  0  0  0  0  0
  129.8210  118.7650   61.6520 C   0  0  0  0  0  0  0  0  0  0  0  0
  130.5630  120.0160   61.1340 C   0  0  0  0  0  0  0  0  0  0  0  0
  129.8110  121.2800   61.2390 C   0  0  0  0  0  0  0  0  0  0  0  0
  129.1820  122.3220   61.3390 C   0  0  0  0  0  0  0  0  0  0  0  0
  128.4200  123.5890   61.4380 C   0  0  2  0  0  0  0  0  0  0  0  0
  128.1690  123.9010   62.9330 N   0  0  0  0  0  0  0  0  0  0  0  0
  129.1730  123.3350   63.9550 C   0  0  0  0  0  0  0  0  0  0  0  0
  127.0660  123.6650   60.6640 C   0  0  2  0  0  0  0  0  0  0  0  0
  125.9830  123.2190   61.4660 O   0  0  0  0  0  0  0  0  0  0  0  0
  127.0920  122.9790   59.2610 C   0  0  2  0  0  0  0  0  0  0  0  0
  128.2920  123.3390   58.3490 C   0  0  0  0  0  0  0  0  0  0  0  0
  127.5120  123.6520   57.0570 C   0  0  1  0  0  0  0  0  0  0  0  0
  126.4550  122.5470   56.9760 C   0  0  0  0  0  0  0  0  0  0  0  0
  125.9730  123.2900   58.2340 C   0  0  2  0  0  0  0  0  0  0  0  0
  126.3920  124.5880   57.5140 C   0  0  0  0  0  0  0  0  0  0  0  0
  130.3948  116.6729   61.6690 H   0  0  0  0  0  0  0  0  0  0  0  0
  129.3348  117.1422   60.2969 H   0  0  0  0  0  0  0  0  0  0  0  0
  131.0671  117.6172   60.2969 H   0  0  0  0  0  0  0  0  0  0  0  0
  128.7405  118.9354   61.5359 H   0  0  0  0  0  0  0  0  0  0  0  0
  130.1293  118.6335   62.6997 H   0  0  0  0  0  0  0  0  0  0  0  0
  131.4926  120.1240   61.7120 H   0  0  0  0  0  0  0  0  0  0  0  0
  130.7306  119.8487   60.0598 H   0  0  0  0  0  0  0  0  0  0  0  0
  129.0559  124.3357   60.9399 H   0  0  0  0  0  0  0  0  0  0  0  0
  128.1760  124.9060   63.0320 H   0  0  0  0  0  0  0  0  0  0  0  0
  127.2350  123.5950   63.1680 H   0  0  0  0  0  0  0  0  0  0  0  0
  128.8126  123.5382   64.9742 H   0  0  0  0  0  0  0  0  0  0  0  0
  129.2706  122.2489   63.8103 H   0  0  0  0  0  0  0  0  0  0  0  0
  130.1527  123.8137   63.8103 H   0  0  0  0  0  0  0  0  0  0  0  0
  126.9053  124.7315   60.4480 H   0  0  0  0  0  0  0  0  0  0  0  0
  125.7190  123.9350   62.0490 H   0  0  0  0  0  0  0  0  0  0  0  0
  127.0500  121.9600   59.6731 H   0  0  0  0  0  0  0  0  0  0  0  0
  128.8469  124.2133   58.7201 H   0  0  0  0  0  0  0  0  0  0  0  0
  129.0726  122.5690   58.2608 H   0  0  0  0  0  0  0  0  0  0  0  0
  128.2055  123.8886   56.2366 H   0  0  0  0  0  0  0  0  0  0  0  0
  125.7839  122.5781   56.1050 H   0  0  0  0  0  0  0  0  0  0  0  0
  126.6590  121.4683   56.9071 H   0  0  0  0  0  0  0  0  0  0  0  0
  124.9857  123.1706   58.7040 H   0  0  0  0  0  0  0  0  0  0  0  0
  125.7112  124.9519   56.7304 H   0  0  0  0  0  0  0  0  0  0  0  0
  126.5305  125.5699   57.9901 H   0  0  0  0  0  0  0  0  0  0  0  0
  1  2  1  0
  2  3  1  0
  3  4  1  0
  4  5  3  0
  5  6  1  0
  6  7  1  0
  7  8  1  0
  6  9  1  0
  9 10  1  0
  9 11  1  0
 11 12  1  0
 12 13  1  0
 13 14  1  0
 14 15  1  0
 15 16  1  0
 15 11  1  0
 16 13  1  0
  1 17  1  0
  1 18  1  0
  1 19  1  0
  2 20  1  0
  2 21  1  0
  3 22  1  0
  3 23  1  0
  6 24  1  6
  7 25  1  0
  7 26  1  0
  8 27  1  0
  8 28  1  0
  8 29  1  0
  9 30  1  6
 10 31  1  0
 11 32  1  1
 12 33  1  0
 12 34  1  0
 13 35  1  6
 14 36  1  0
 14 37  1  0
 15 38  1  1
 16 39  1  0
 16 40  1  0
M  CHG  1   7   1
M  END
>  <Binding energies>  (1) 
[-6.91]

>  <Ligand effiencies>  (1) 
[-0.3636842105263158]

>  <Interactions>  (1) 
["V-B:PRO:540:CA:9855, V-B:ALA:541:CB:9864, V-B:TYR:539:CE2:9848, V-A:LEU:475:CG:4257, V-B:GLU:543:CG:9879, V-B:TYR:539:C:9839, V-B:TYR:539:CZ:9849, H-B:GLU:543:OE1:9881, H-B:ALA:541:N:9863, V-A:LEU:475:CD1:4258, V-B:PRO:540:CB:9857, V-B:PRO:540:N:9856, V-A:PRO:482:CB:4326, V-B:TYR:539:CD2:9846, V-B:PRO:540:CD:9859, V-B:GLU:543:CD:9880, V-A:LEU:475:CD2:4259, V-A:PRO:482:CG:4327, V-A:HIS:383:NE2:3394"]

$$$$
ZINC1902235506
     RDKit          3D

 39 40  0  0  0  0  0  0  0  0999 V2000
  129.4170  121.7210   61.7640 C   0  0  0  0  0  0  0  0  0  0  0  0
  129.1230  122.6850   62.9400 C   0  0  0  0  0  0  0  0  0  0  0  0
  127.5920  122.8460   63.0710 C   0  0  0  0  0  0  0  0  0  0  0  0
  129.7670  122.1820   64.2410 C   0  0  0  0  0  0  0  0  0  0  0  0
  131.2060  122.7150   64.2530 C   0  0  0  0  0  0  0  0  0  0  0  0
  131.3010  123.8650   63.2160 C   0  0  2  0  0  0  0  0  0  0  0  0
  132.0340  125.1550   63.7540 C   0  0  2  0  0  0  0  0  0  0  0  0
  133.4880  124.8540   64.2400 C   0  0  0  0  0  0  0  0  0  0  0  0
  134.2620  124.3390   63.4030 O   0  0  0  0  0  0  0  0  0  0  0  0
  133.8100  125.1000   65.4270 O   0  0  0  0  0  0  0  0  0  0  0  0
  131.2360  125.7910   64.9430 N   0  0  0  0  0  0  0  0  0  0  0  0
  129.8430  126.3460   64.5710 C   0  0  0  0  0  0  0  0  0  0  0  0
  129.1300  126.5300   65.9080 C   0  0  0  0  0  0  0  0  0  0  0  0
  129.7490  125.5180   66.8690 C   0  0  0  0  0  0  0  0  0  0  0  0
  130.9140  124.8590   66.1280 C   0  0  0  0  0  0  0  0  0  0  0  0
  129.8350  124.0340   62.7390 C   0  0  0  0  0  0  0  0  0  0  0  0
  129.7163  120.7396   62.1605 H   0  0  0  0  0  0  0  0  0  0  0  0
  128.5127  121.6074   61.1482 H   0  0  0  0  0  0  0  0  0  0  0  0
  130.2308  122.1314   61.1482 H   0  0  0  0  0  0  0  0  0  0  0  0
  127.3161  122.8750   64.1354 H   0  0  0  0  0  0  0  0  0  0  0  0
  127.2789  123.7820   62.5854 H   0  0  0  0  0  0  0  0  0  0  0  0
  127.0910  121.9956   62.5854 H   0  0  0  0  0  0  0  0  0  0  0  0
  129.2133  122.5646   65.1111 H   0  0  0  0  0  0  0  0  0  0  0  0
  129.7507  121.0833   64.2926 H   0  0  0  0  0  0  0  0  0  0  0  0
  131.4550  123.0946   65.2550 H   0  0  0  0  0  0  0  0  0  0  0  0
  131.9128  121.9116   63.9979 H   0  0  0  0  0  0  0  0  0  0  0  0
  131.9593  123.6402   62.3638 H   0  0  0  0  0  0  0  0  0  0  0  0
  132.0840  125.8561   62.9079 H   0  0  0  0  0  0  0  0  0  0  0  0
  131.8030  126.5530   65.2890 H   0  0  0  0  0  0  0  0  0  0  0  0
  129.9363  127.3078   64.0454 H   0  0  0  0  0  0  0  0  0  0  0  0
  129.2938  125.6738   63.8953 H   0  0  0  0  0  0  0  0  0  0  0  0
  129.2821  127.5529   66.2827 H   0  0  0  0  0  0  0  0  0  0  0  0
  128.0460  126.3729   65.8070 H   0  0  0  0  0  0  0  0  0  0  0  0
  130.1150  126.0284   67.7721 H   0  0  0  0  0  0  0  0  0  0  0  0
  129.0077  124.7689   67.1841 H   0  0  0  0  0  0  0  0  0  0  0  0
  131.7868  124.7662   66.7910 H   0  0  0  0  0  0  0  0  0  0  0  0
  130.6571  123.8448   65.7884 H   0  0  0  0  0  0  0  0  0  0  0  0
  129.3351  124.8142   63.3318 H   0  0  0  0  0  0  0  0  0  0  0  0
  129.8047  124.3334   61.6810 H   0  0  0  0  0  0  0  0  0  0  0  0
  1  2  1  0
  2  3  1  0
  2  4  1  0
  4  5  1  0
  5  6  1  0
  6  7  1  0
  7  8  1  0
  8  9  2  0
  8 10  1  0
  7 11  1  0
 11 12  1  0
 12 13  1  0
 13 14  1  0
 14 15  1  0
  6 16  1  0
 16  2  1  0
 15 11  1  0
  1 17  1  0
  1 18  1  0
  1 19  1  0
  3 20  1  0
  3 21  1  0
  3 22  1  0
  4 23  1  0
  4 24  1  0
  5 25  1  0
  5 26  1  0
  6 27  1  6
  7 28  1  6
 11 29  1  0
 12 30  1  0
 12 31  1  0
 13 32  1  0
 13 33  1  0
 14 34  1  0
 14 35  1  0
 15 36  1  0
 15 37  1  0
 16 38  1  0
 16 39  1  0
M  CHG  2  10  -1  11   1
M  END
>  <Binding energies>  (1) 
[-5.93]

>  <Ligand effiencies>  (1) 
[-0.3488235294117647]

>  <Interactions>  (1) 
["V-A:HIS:456:CE1:4070, H-A:GLU:543:OE2:4910, V-B:GLU:543:CB:9878, H-A:ARG:545:NE:4924, V-B:GLU:543:CD:9880, V-B:ALA:541:CB:9864, V-A:TYR:484:CZ:4347, V-A:TYR:484:CE2:4346, V-B:ALA:541:CA:9862, V-B:GLU:543:CG:9879, V-A:LEU:475:CD2:4259, H-A:ARG:545:NH2:4928, V-A:ARG:545:CZ:4926, H-A:GLU:543:OE1:4909, V-A:GLU:543:CD:4908, H-A:GLY:454:N:4050, H-A:TYR:484:OH:4348"]

$$$$
ZINC1902299652
     RDKit          3D

 35 37  0  0  0  0  0  0  0  0999 V2000
  131.4150  129.3800   61.6030 N   0  0  0  0  0  0  0  0  0  0  0  0
  130.0280  129.7410   61.0620 C   0  0  0  0  0  0  0  0  0  0  0  0
  129.3890  130.8290   61.9410 C   0  0  0  0  0  0  0  0  0  0  0  0
  128.2040  130.2990   62.7660 C   0  0  1  0  0  0  0  0  0  0  0  0
  128.3520  128.9630   63.5080 C   0  0  0  0  0  0  0  0  0  0  0  0
  127.4520  129.5790   64.6050 C   0  0  1  0  0  0  0  0  0  0  0  0
  126.1440  129.3520   64.4650 F   0  0  0  0  0  0  0  0  0  0  0  0
  127.8920  129.2520   65.9780 C   0  0  0  0  0  0  0  0  0  0  0  0
  128.2630  129.0020   67.1130 C   0  0  0  0  0  0  0  0  0  0  0  0
  128.7330  128.6960   68.4750 C   0  0  2  0  0  0  0  0  0  0  0  0
  129.8850  127.7250   68.6360 C   0  0  1  0  0  0  0  0  0  0  0  0
  130.6780  127.7810   69.9420 C   0  0  0  0  0  0  0  0  0  0  0  0
  129.9250  127.0230   70.8760 O   0  0  0  0  0  0  0  0  0  0  0  0
  128.5470  127.1340   70.5500 C   0  0  0  0  0  0  0  0  0  0  0  0
  128.4980  127.3080   69.0310 C   0  0  1  0  0  0  0  0  0  0  0  0
  127.9370  130.9680   64.1240 C   0  0  0  0  0  0  0  0  0  0  0  0
  132.0760  129.3070   60.8430 H   0  0  0  0  0  0  0  0  0  0  0  0
  131.3800  128.4960   62.0890 H   0  0  0  0  0  0  0  0  0  0  0  0
  131.7350  130.0920   62.2440 H   0  0  0  0  0  0  0  0  0  0  0  0
  130.1244  130.1146   60.0319 H   0  0  0  0  0  0  0  0  0  0  0  0
  129.3903  128.8448   61.0749 H   0  0  0  0  0  0  0  0  0  0  0  0
  130.1524  131.2190   62.6303 H   0  0  0  0  0  0  0  0  0  0  0  0
  129.0066  131.6157   61.2740 H   0  0  0  0  0  0  0  0  0  0  0  0
  127.5015  130.3906   61.9245 H   0  0  0  0  0  0  0  0  0  0  0  0
  127.9195  128.0952   62.9885 H   0  0  0  0  0  0  0  0  0  0  0  0
  129.3346  128.5232   63.7340 H   0  0  0  0  0  0  0  0  0  0  0  0
  128.5164  129.7189   68.8167 H   0  0  0  0  0  0  0  0  0  0  0  0
  130.6894  127.4492   67.9382 H   0  0  0  0  0  0  0  0  0  0  0  0
  131.6763  127.3398   69.8048 H   0  0  0  0  0  0  0  0  0  0  0  0
  130.8289  128.8157   70.2836 H   0  0  0  0  0  0  0  0  0  0  0  0
  128.0066  126.2241   70.8502 H   0  0  0  0  0  0  0  0  0  0  0  0
  128.0711  127.9770   71.0724 H   0  0  0  0  0  0  0  0  0  0  0  0
  127.7303  126.5611   68.7805 H   0  0  0  0  0  0  0  0  0  0  0  0
  127.1628  131.7493   64.1106 H   0  0  0  0  0  0  0  0  0  0  0  0
  128.7100  131.5383   64.6600 H   0  0  0  0  0  0  0  0  0  0  0  0
  1  2  1  0
  2  3  1  0
  3  4  1  0
  4  5  1  0
  5  6  1  0
  6  7  1  6
  6  8  1  0
  8  9  3  0
  9 10  1  0
 10 11  1  0
 11 12  1  0
 12 13  1  0
 13 14  1  0
 14 15  1  0
  6 16  1  0
 16  4  1  0
 15 10  1  0
 15 11  1  0
  1 17  1  0
  1 18  1  0
  1 19  1  0
  2 20  1  0
  2 21  1  0
  3 22  1  0
  3 23  1  0
  4 24  1  6
  5 25  1  0
  5 26  1  0
 10 27  1  1
 11 28  1  6
 12 29  1  0
 12 30  1  0
 14 31  1  0
 14 32  1  0
 15 33  1  6
 16 34  1  0
 16 35  1  0
M  CHG  1   1   1
M  END
>  <Binding energies>  (1) 
[-6.09]

>  <Ligand effiencies>  (1) 
[-0.32052631578947366]

>  <Interactions>  (1) 
["V-A:HIS:456:CE1:4070, V-A:GLU:543:C:4902, V-B:GLU:543:CB:9878, V-A:GLU:543:CG:4907, V-B:GLU:543:CD:9880, V-A:GLU:543:CD:4908, H-A:ASP:366:OD2:3215, H-A:GLU:543:OE1:4909, V-B:HIS:456:CE1:9041, V-A:ASP:366:CG:3213, V-A:GLU:543:CB:4906"]

$$$$
ZINC1902380140
     RDKit          3D

 38 40  0  0  0  0  0  0  0  0999 V2000
  128.3930  125.5630   72.5150 N   0  0  0  0  0  0  0  0  0  0  0  0
  128.3870  126.3730   71.6890 C   0  0  0  0  0  0  0  0  0  0  0  0
  128.3780  127.4040   70.6370 C   0  0  2  0  0  0  0  0  0  0  0  0
  128.5240  126.7650   69.2400 C   0  0  0  0  0  0  0  0  0  0  0  0
  129.5410  127.4590   68.4410 N   0  0  0  0  0  0  0  0  0  0  0  0
  130.6560  126.5920   68.0240 C   0  0  0  0  0  0  0  0  0  0  0  0
  130.2600  125.6210   66.8770 C   0  0  0  0  0  0  0  0  0  0  0  0
  129.7550  126.4230   65.6580 N   0  0  0  0  0  0  0  0  0  0  0  0
  128.6510  127.4010   66.0990 C   0  0  2  0  0  0  0  0  0  0  0  0
  128.1770  128.4290   65.0770 C   0  0  0  0  0  0  0  0  0  0  0  0
  127.4850  129.4960   65.9530 C   0  0  0  0  0  0  0  0  0  0  0  0
  128.0020  129.3090   67.4010 C   0  0  0  0  0  0  0  0  0  0  0  0
  129.1180  128.2600   67.2820 C   0  0  1  0  0  0  0  0  0  0  0  0
  129.4430  128.4820   70.9140 C   0  0  0  0  0  0  0  0  0  0  0  0
  130.1000  128.5640   72.2700 C   0  0  0  0  0  0  0  0  0  0  0  0
  130.8880  128.0740   71.0680 C   0  0  0  0  0  0  0  0  0  0  0  0
  127.4033  127.9137   70.6509 H   0  0  0  0  0  0  0  0  0  0  0  0
  128.8172  125.7112   69.3566 H   0  0  0  0  0  0  0  0  0  0  0  0
  127.5586  126.8443   68.7188 H   0  0  0  0  0  0  0  0  0  0  0  0
  131.4855  127.2263   67.6782 H   0  0  0  0  0  0  0  0  0  0  0  0
  130.9469  125.9820   68.8919 H   0  0  0  0  0  0  0  0  0  0  0  0
  131.1376  125.0262   66.5837 H   0  0  0  0  0  0  0  0  0  0  0  0
  129.4586  124.9544   67.2283 H   0  0  0  0  0  0  0  0  0  0  0  0
  130.5190  126.9430   65.2500 H   0  0  0  0  0  0  0  0  0  0  0  0
  129.4010  125.7960   64.9500 H   0  0  0  0  0  0  0  0  0  0  0  0
  127.8259  126.7062   66.3147 H   0  0  0  0  0  0  0  0  0  0  0  0
  129.0263  128.8597   64.5263 H   0  0  0  0  0  0  0  0  0  0  0  0
  127.5150  128.0031   64.3086 H   0  0  0  0  0  0  0  0  0  0  0  0
  127.7382  130.5030   65.5900 H   0  0  0  0  0  0  0  0  0  0  0  0
  126.3915  129.3838   65.9124 H   0  0  0  0  0  0  0  0  0  0  0  0
  128.3993  130.2554   67.7967 H   0  0  0  0  0  0  0  0  0  0  0  0
  127.2053  128.9938   68.0908 H   0  0  0  0  0  0  0  0  0  0  0  0
  130.0691  128.7993   67.1610 H   0  0  0  0  0  0  0  0  0  0  0  0
  128.8980  129.1935   70.2762 H   0  0  0  0  0  0  0  0  0  0  0  0
  130.3260  129.5448   72.7138 H   0  0  0  0  0  0  0  0  0  0  0  0
  129.8754  128.1641   73.2698 H   0  0  0  0  0  0  0  0  0  0  0  0
  131.6853  128.6995   70.6402 H   0  0  0  0  0  0  0  0  0  0  0  0
  131.4718  127.1715   70.8345 H   0  0  0  0  0  0  0  0  0  0  0  0
  1  2  3  0
  2  3  1  0
  3  4  1  0
  4  5  1  0
  5  6  1  0
  6  7  1  0
  7  8  1  0
  8  9  1  0
  9 10  1  0
 10 11  1  0
 11 12  1  0
 12 13  1  0
  3 14  1  0
 14 15  1  0
 15 16  1  0
 13  5  1  0
 16 14  1  0
 13  9  1  0
  3 17  1  6
  4 18  1  0
  4 19  1  0
  6 20  1  0
  6 21  1  0
  7 22  1  0
  7 23  1  0
  8 24  1  0
  8 25  1  0
  9 26  1  1
 10 27  1  0
 10 28  1  0
 11 29  1  0
 11 30  1  0
 12 31  1  0
 12 32  1  0
 13 33  1  6
 14 34  1  0
 15 35  1  0
 15 36  1  0
 16 37  1  0
 16 38  1  0
M  CHG  1   8   1
M  END
>  <Binding energies>  (1) 
[-6.64]

>  <Ligand effiencies>  (1) 
[-0.3688888888888889]

>  <Interactions>  (1) 
["V-A:HIS:456:CE1:4070, V-B:TYR:484:CZ:9318, H-B:GLU:543:OE2:9882, V-B:GLU:543:C:9874, H-B:GLU:543:OE1:9881, H-A:GLU:543:OE2:4910, V-B:HIS:456:CD2:9039, V-A:GLU:543:C:4902, V-B:GLU:543:CB:9878, H-B:LYS:547:NZ:9923, V-A:GLU:543:CG:4907, V-B:GLU:543:CD:9880, V-A:GLU:543:CD:4908, V-B:GLU:543:CG:9879, V-A:GLY:544:C:4912, H-A:GLU:543:OE1:4909, V-B:HIS:456:CE1:9041, V-A:GLU:543:CB:4906"]

$$$$
ZINC1902626551-again1
     RDKit          3D

 38 38  0  0  0  0  0  0  0  0999 V2000
  133.9720  121.7310   61.2930 C   0  0  0  0  0  0  0  0  0  0  0  0
  133.4840  122.3240   62.2440 C   0  0  0  0  0  0  0  0  0  0  0  0
  132.8800  123.0340   63.3880 C   0  0  0  0  0  0  0  0  0  0  0  0
  133.2650  124.5370   63.4700 C   0  0  2  0  0  0  0  0  0  0  0  0
  134.6650  124.7890   63.0680 N   0  0  0  0  0  0  0  0  0  0  0  0
  133.0660  125.0540   64.9260 C   0  0  0  0  0  0  0  0  0  0  0  0
  134.0480  125.0920   65.6760 O   0  0  0  0  0  0  0  0  0  0  0  0
  131.8190  125.4190   65.3360 N   0  0  0  0  0  0  0  0  0  0  0  0
  130.7540  125.7280   64.3760 C   0  0  0  0  0  0  0  0  0  0  0  0
  131.3790  125.4740   66.7370 C   0  0  0  0  0  0  0  0  0  0  0  0
  129.8560  125.6490   66.8970 C   0  0  0  0  0  0  0  0  0  0  0  0
  129.4580  125.9570   68.3580 C   0  0  0  0  0  0  0  0  0  0  0  0
  129.2980  127.4410   68.7870 C   0  0  0  0  0  0  0  0  0  0  0  0
  128.6160  128.3320   67.7340 C   0  0  0  0  0  0  0  0  0  0  0  0
  129.0380  127.7690   70.2440 C   0  0  0  0  0  0  0  0  0  0  0  0
  130.3860  128.0830   69.6260 C   0  0  0  0  0  0  0  0  0  0  0  0
  134.4111  121.1974   60.4372 H   0  0  0  0  0  0  0  0  0  0  0  0
  131.7858  122.9609   63.3025 H   0  0  0  0  0  0  0  0  0  0  0  0
  133.2651  122.5553   64.3005 H   0  0  0  0  0  0  0  0  0  0  0  0
  132.6077  125.0718   62.7686 H   0  0  0  0  0  0  0  0  0  0  0  0
  134.7190  125.5180   62.3700 H   0  0  0  0  0  0  0  0  0  0  0  0
  135.2250  125.0880   63.8550 H   0  0  0  0  0  0  0  0  0  0  0  0
  129.8359  125.9944   64.9201 H   0  0  0  0  0  0  0  0  0  0  0  0
  131.0640  126.5732   63.7440 H   0  0  0  0  0  0  0  0  0  0  0  0
  130.5634  124.8481   63.7440 H   0  0  0  0  0  0  0  0  0  0  0  0
  131.6757  124.5376   67.2321 H   0  0  0  0  0  0  0  0  0  0  0  0
  131.8553  126.3554   67.1912 H   0  0  0  0  0  0  0  0  0  0  0  0
  129.5249  126.4796   66.2563 H   0  0  0  0  0  0  0  0  0  0  0  0
  129.3734  124.7044   66.6058 H   0  0  0  0  0  0  0  0  0  0  0  0
  128.4943  125.4600   68.5434 H   0  0  0  0  0  0  0  0  0  0  0  0
  130.3119  125.5967   68.9506 H   0  0  0  0  0  0  0  0  0  0  0  0
  128.0221  129.1079   68.2393 H   0  0  0  0  0  0  0  0  0  0  0  0
  129.3824  128.8084   67.1050 H   0  0  0  0  0  0  0  0  0  0  0  0
  127.9560  127.7166   67.1050 H   0  0  0  0  0  0  0  0  0  0  0  0
  128.3511  128.5861   70.5096 H   0  0  0  0  0  0  0  0  0  0  0  0
  128.6985  127.1983   71.1210 H   0  0  0  0  0  0  0  0  0  0  0  0
  130.6772  129.1278   69.4430 H   0  0  0  0  0  0  0  0  0  0  0  0
  131.4298  127.8346   69.8686 H   0  0  0  0  0  0  0  0  0  0  0  0
  1  2  3  0
  2  3  1  0
  3  4  1  0
  4  5  1  0
  4  6  1  0
  6  7  2  0
  6  8  1  0
  8  9  1  0
  8 10  1  0
 10 11  1  0
 11 12  1  0
 12 13  1  0
 13 14  1  0
 13 15  1  0
 15 16  1  0
 16 13  1  0
  1 17  1  0
  3 18  1  0
  3 19  1  0
  4 20  1  6
  5 21  1  0
  5 22  1  0
  9 23  1  0
  9 24  1  0
  9 25  1  0
 10 26  1  0
 10 27  1  0
 11 28  1  0
 11 29  1  0
 12 30  1  0
 12 31  1  0
 14 32  1  0
 14 33  1  0
 14 34  1  0
 15 35  1  0
 15 36  1  0
 16 37  1  0
 16 38  1  0
M  END
>  <Binding energies>  (1) 
[-5.18]

>  <Ligand effiencies>  (1) 
[-0.28777777777777774]

>  <Interactions>  (1) 
["V-A:ILE:369:CG2:3237, V-A:GLY:454:CA:4049, V-B:GLU:543:C:9874, V-A:GLU:543:C:4902, V-B:GLU:543:CB:9878, H-A:ARG:545:NH1:4927, V-B:GLU:543:CG:9879, V-A:GLU:543:CD:4908, V-A:TYR:484:CZ:4347, V-B:GLU:543:CA:9876, H-A:GLY:454:N:4050, V-B:HIS:456:CE1:9041, V-A:ILE:369:CD1:3239, V-A:HIS:456:CE1:4070, V-A:GLU:543:CG:4907, V-A:LEU:475:CD2:4259, H-A:ARG:545:NH2:4928, V-A:ARG:545:CZ:4926, V-A:GLU:543:CB:4906, H-A:ASP:366:OD1:3214, H-A:ARG:545:NE:4924, H-A:TYR:484:OH:4348"]

$$$$
ZINC1902982931
     RDKit          3D

 41 42  0  0  0  0  0  0  0  0999 V2000
  133.5850  124.4390   58.6220 C   0  0  0  0  0  0  0  0  0  0  0  0
  132.9120  125.0900   59.4060 C   0  0  0  0  0  0  0  0  0  0  0  0
  132.0890  125.8370   60.3770 C   0  0  0  0  0  0  0  0  0  0  0  0
  131.6110  127.1300   59.8550 N   0  0  0  0  0  0  0  0  0  0  0  0
  131.7260  127.0910   58.3970 C   0  0  0  0  0  0  0  0  0  0  0  0
  130.2150  127.4630   60.2030 C   0  0  0  0  0  0  0  0  0  0  0  0
  129.9940  128.7460   61.0400 C   0  0  0  0  0  0  0  0  0  0  0  0
  131.3210  129.4950   61.2680 N   0  0  0  0  0  0  0  0  0  0  0  0
  131.4610  130.8680   60.5770 C   0  0  2  0  0  0  0  0  0  0  0  0
  132.0370  130.6210   59.1650 C   0  0  0  0  0  0  0  0  0  0  0  0
  132.1180  131.8940   58.3010 C   0  0  0  0  0  0  0  0  0  0  0  0
  131.7360  131.8440   56.8460 C   0  0  0  0  0  0  0  0  0  0  0  0
  130.8710  132.6020   57.8440 C   0  0  0  0  0  0  0  0  0  0  0  0
  132.3320  131.8040   61.4460 C   0  0  0  0  0  0  0  0  0  0  0  0
  133.2220  131.2200   62.5180 C   0  0  0  0  0  0  0  0  0  0  0  0
  133.8340  131.8410   61.2790 C   0  0  0  0  0  0  0  0  0  0  0  0
  134.1912  123.8526   57.9158 H   0  0  0  0  0  0  0  0  0  0  0  0
  131.2163  125.2223   60.6425 H   0  0  0  0  0  0  0  0  0  0  0  0
  132.7234  126.0497   61.2501 H   0  0  0  0  0  0  0  0  0  0  0  0
  132.7336  126.7493   58.1177 H   0  0  0  0  0  0  0  0  0  0  0  0
  130.9770  126.3966   57.9886 H   0  0  0  0  0  0  0  0  0  0  0  0
  131.5539  128.0978   57.9886 H   0  0  0  0  0  0  0  0  0  0  0  0
  129.6555  127.5779   59.2629 H   0  0  0  0  0  0  0  0  0  0  0  0
  129.8722  126.6373   60.8439 H   0  0  0  0  0  0  0  0  0  0  0  0
  129.2954  129.4072   60.5064 H   0  0  0  0  0  0  0  0  0  0  0  0
  129.5827  128.4581   62.0187 H   0  0  0  0  0  0  0  0  0  0  0  0
  131.4630  129.6120   62.2620 H   0  0  0  0  0  0  0  0  0  0  0  0
  132.0640  128.9030   60.9250 H   0  0  0  0  0  0  0  0  0  0  0  0
  130.4920  131.3768   60.4672 H   0  0  0  0  0  0  0  0  0  0  0  0
  133.0507  130.2071   59.2704 H   0  0  0  0  0  0  0  0  0  0  0  0
  131.3530  129.9272   58.6542 H   0  0  0  0  0  0  0  0  0  0  0  0
  133.0136  132.2010   58.8609 H   0  0  0  0  0  0  0  0  0  0  0  0
  132.3294  132.3946   56.1012 H   0  0  0  0  0  0  0  0  0  0  0  0
  131.5612  131.0432   56.1124 H   0  0  0  0  0  0  0  0  0  0  0  0
  130.8383  133.7013   57.8215 H   0  0  0  0  0  0  0  0  0  0  0  0
  129.8099  132.5778   58.1329 H   0  0  0  0  0  0  0  0  0  0  0  0
  131.5345  132.5610   61.4171 H   0  0  0  0  0  0  0  0  0  0  0  0
  133.3161  131.7254   63.4905 H   0  0  0  0  0  0  0  0  0  0  0  0
  133.2995  130.2434   63.0182 H   0  0  0  0  0  0  0  0  0  0  0  0
  134.3724  132.7975   61.3514 H   0  0  0  0  0  0  0  0  0  0  0  0
  134.5399  131.5027   60.5062 H   0  0  0  0  0  0  0  0  0  0  0  0
  1  2  3  0
  2  3  1  0
  3  4  1  0
  4  5  1  0
  4  6  1  0
  6  7  1  0
  7  8  1  0
  8  9  1  0
  9 10  1  0
 10 11  1  0
 11 12  1  0
 12 13  1  0
  9 14  1  0
 14 15  1  0
 15 16  1  0
 13 11  1  0
 16 14  1  0
  1 17  1  0
  3 18  1  0
  3 19  1  0
  5 20  1  0
  5 21  1  0
  5 22  1  0
  6 23  1  0
  6 24  1  0
  7 25  1  0
  7 26  1  0
  8 27  1  0
  8 28  1  0
  9 29  1  6
 10 30  1  0
 10 31  1  0
 11 32  1  0
 12 33  1  0
 12 34  1  0
 13 35  1  0
 13 36  1  0
 14 37  1  0
 15 38  1  0
 15 39  1  0
 16 40  1  0
 16 41  1  0
M  CHG  1   8   1
M  END
>  <Binding energies>  (1) 
[-5.71]

>  <Ligand effiencies>  (1) 
[-0.31722222222222224]

>  <Interactions>  (1) 
["V-A:ILE:369:CG2:3237, V-A:ASP:366:CA:3210, V-A:ILE:369:CB:3236, V-B:TYR:539:CE2:9848, V-A:ASP:366:CG:3213, V-A:ASN:362:CB:3176, V-A:LEU:363:CD1:3189, V-A:GLU:543:CD:4908, V-A:ASN:362:CG:3177, V-A:ASP:366:C:3208, V-A:ASP:366:CB:3212, V-A:ASN:362:C:3172, H-A:GLU:543:OE1:4909, H-A:ASP:366:OD1:3214, V-A:PRO:540:N:4884, V-A:PRO:540:CB:4885, V-A:PRO:540:CA:4883, V-A:LEU:363:CA:3185, H-A:ASP:366:OD2:3215, V-A:PRO:540:CD:4887"]

$$$$
ZINC1903081426
     RDKit          3D

 33 33  0  0  0  0  0  0  0  0999 V2000
  128.7400  125.8480   72.7650 N   0  0  0  0  0  0  0  0  0  0  0  0
  129.1080  126.8020   72.2250 C   0  0  0  0  0  0  0  0  0  0  0  0
  129.5780  128.0150   71.5370 C   0  0  0  0  0  0  0  0  0  0  0  0
  130.0500  127.7450   70.1020 C   0  0  0  0  0  0  0  0  0  0  0  0
  129.1640  126.7040   69.3820 C   0  0  0  0  0  0  0  0  0  0  0  0
  128.7380  127.0850   68.0260 N   0  0  0  0  0  0  0  0  0  0  0  0
  128.3040  128.4890   67.9990 C   0  0  0  0  0  0  0  0  0  0  0  0
  127.5190  128.8040   66.7200 C   0  0  0  0  0  0  0  0  0  0  0  0
  128.3490  128.4880   65.4780 C   0  0  0  0  0  0  0  0  0  0  0  0
  128.9120  127.0470   65.5310 C   0  0  1  0  0  0  0  0  0  0  0  0
  129.8930  126.9360   64.3480 N   0  0  0  0  0  0  0  0  0  0  0  0
  129.6140  126.6660   66.8940 C   0  0  2  0  0  0  0  0  0  0  0  0
  130.1030  125.1730   66.9550 C   0  0  0  0  0  0  0  0  0  0  0  0
  129.4870  124.4360   67.8780 F   0  0  0  0  0  0  0  0  0  0  0  0
  129.8970  124.5260   65.8080 F   0  0  0  0  0  0  0  0  0  0  0  0
  131.4070  125.1080   67.2290 F   0  0  0  0  0  0  0  0  0  0  0  0
  128.7526  128.7414   71.5038 H   0  0  0  0  0  0  0  0  0  0  0  0
  130.4408  128.3998   72.1005 H   0  0  0  0  0  0  0  0  0  0  0  0
  130.0200  128.6877   69.5360 H   0  0  0  0  0  0  0  0  0  0  0  0
  131.0718  127.3409   70.1531 H   0  0  0  0  0  0  0  0  0  0  0  0
  129.7307  125.7639   69.3107 H   0  0  0  0  0  0  0  0  0  0  0  0
  128.2453  126.6143   69.9802 H   0  0  0  0  0  0  0  0  0  0  0  0
  127.6616  128.6825   68.8707 H   0  0  0  0  0  0  0  0  0  0  0  0
  129.1978  129.1297   68.0250 H   0  0  0  0  0  0  0  0  0  0  0  0
  126.6008  128.1985   66.7029 H   0  0  0  0  0  0  0  0  0  0  0  0
  127.2731  129.8762   66.7143 H   0  0  0  0  0  0  0  0  0  0  0  0
  127.7136  128.5921   64.5861 H   0  0  0  0  0  0  0  0  0  0  0  0
  129.1945  129.1904   65.4369 H   0  0  0  0  0  0  0  0  0  0  0  0
  128.0802  126.3307   65.4605 H   0  0  0  0  0  0  0  0  0  0  0  0
  129.9010  127.7970   63.8200 H   0  0  0  0  0  0  0  0  0  0  0  0
  129.6170  126.1820   63.7360 H   0  0  0  0  0  0  0  0  0  0  0  0
  130.8280  126.7540   64.6870 H   0  0  0  0  0  0  0  0  0  0  0  0
  130.5572  127.2255   66.9790 H   0  0  0  0  0  0  0  0  0  0  0  0
  1  2  3  0
  2  3  1  0
  3  4  1  0
  4  5  1  0
  5  6  1  0
  6  7  1  0
  7  8  1  0
  8  9  1  0
  9 10  1  0
 10 11  1  0
 10 12  1  0
 12 13  1  0
 13 14  1  0
 13 15  1  0
 13 16  1  0
 12  6  1  0
  3 17  1  0
  3 18  1  0
  4 19  1  0
  4 20  1  0
  5 21  1  0
  5 22  1  0
  7 23  1  0
  7 24  1  0
  8 25  1  0
  8 26  1  0
  9 27  1  0
  9 28  1  0
 10 29  1  6
 11 30  1  0
 11 31  1  0
 11 32  1  0
 12 33  1  1
M  CHG  1  11   1
M  END
>  <Binding energies>  (1) 
[-5.8]

>  <Ligand effiencies>  (1) 
[-0.30526315789473685]

>  <Interactions>  (1) 
["V-A:HIS:456:CE1:4070, V-B:GLU:543:C:9874, H-B:GLU:543:OE1:9881, H-A:GLU:543:OE2:4910, V-B:GLU:543:CB:9878, H-B:LYS:547:NZ:9923, V-A:GLU:543:CG:4907, V-B:GLU:543:CA:9876, V-B:GLU:543:CD:9880, V-A:GLU:543:CD:4908, V-A:TYR:484:CE2:4346, V-A:TYR:484:CZ:4347, V-B:GLU:543:CG:9879, H-A:GLU:543:OE1:4909, V-B:HIS:456:CE1:9041, V-A:HIS:456:CD2:4068, V-A:GLU:543:CB:4906"]

$$$$
ZINC1903419041
     RDKit          3D

 44 44  0  0  0  0  0  0  0  0999 V2000
  135.2480  124.7010   62.4040 C   0  0  0  0  0  0  0  0  0  0  0  0
  133.7150  124.7310   62.5440 C   0  0  2  0  0  0  0  0  0  0  0  0
  133.4160  124.1050   63.7960 O   0  0  0  0  0  0  0  0  0  0  0  0
  132.4870  124.6280   64.6790 C   0  0  0  0  0  0  0  0  0  0  0  0
  131.1100  124.6860   64.4060 C   0  0  0  0  0  0  0  0  0  0  0  0
  130.2140  125.2060   65.3370 C   0  0  0  0  0  0  0  0  0  0  0  0
  130.6800  125.6780   66.5600 C   0  0  0  0  0  0  0  0  0  0  0  0
  129.4580  126.3840   67.8370 Br  0  0  0  0  0  0  0  0  0  0  0  0
  132.0420  125.6320   66.8460 C   0  0  0  0  0  0  0  0  0  0  0  0
  132.9560  125.1180   65.9150 C   0  0  0  0  0  0  0  0  0  0  0  0
  134.3940  125.0900   66.2610 N   0  0  0  0  0  0  0  0  0  0  0  0
  135.2130  125.4310   65.4130 O   0  0  0  0  0  0  0  0  0  0  0  0
  134.7060  124.7450   67.3980 O   0  0  0  0  0  0  0  0  0  0  0  0
  132.9350  124.0830   61.3500 C   0  0  1  0  0  0  0  0  0  0  0  0
  133.7160  124.0900   60.1000 N   0  0  0  0  0  0  0  0  0  0  0  0
  133.2160  124.2800   58.8140 C   0  0  0  0  0  0  0  0  0  0  0  0
  133.9310  124.3260   57.8130 O   0  0  0  0  0  0  0  0  0  0  0  0
  131.8510  124.3950   58.8000 O   0  0  0  0  0  0  0  0  0  0  0  0
  131.1230  125.6340   58.6720 C   0  0  0  0  0  0  0  0  0  0  0  0
  132.0590  126.8020   58.2720 C   0  0  0  0  0  0  0  0  0  0  0  0
  129.9500  125.4910   57.6710 C   0  0  0  0  0  0  0  0  0  0  0  0
  130.5540  125.9070   60.0790 C   0  0  0  0  0  0  0  0  0  0  0  0
  132.3990  122.6540   61.6310 C   0  0  0  0  0  0  0  0  0  0  0  0
  133.3060  121.9280   62.2870 F   0  0  0  0  0  0  0  0  0  0  0  0
  131.2980  122.6590   62.3830 F   0  0  0  0  0  0  0  0  0  0  0  0
  132.1170  121.9880   60.5100 F   0  0  0  0  0  0  0  0  0  0  0  0
  135.7074  124.6920   63.4035 H   0  0  0  0  0  0  0  0  0  0  0  0
  135.5484  123.7968   61.8543 H   0  0  0  0  0  0  0  0  0  0  0  0
  135.5835  125.5928   61.8543 H   0  0  0  0  0  0  0  0  0  0  0  0
  133.3687  125.7747   62.5181 H   0  0  0  0  0  0  0  0  0  0  0  0
  130.7335  124.3147   63.4414 H   0  0  0  0  0  0  0  0  0  0  0  0
  129.1393  125.2434   65.1056 H   0  0  0  0  0  0  0  0  0  0  0  0
  132.4058  126.0038   67.8152 H   0  0  0  0  0  0  0  0  0  0  0  0
  132.0547  124.7311   61.2272 H   0  0  0  0  0  0  0  0  0  0  0  0
  134.7180  124.0010   60.1940 H   0  0  0  0  0  0  0  0  0  0  0  0
  132.4480  127.2874   59.1793 H   0  0  0  0  0  0  0  0  0  0  0  0
  132.8977  126.4123   57.6764 H   0  0  0  0  0  0  0  0  0  0  0  0
  131.4959  127.5356   57.6764 H   0  0  0  0  0  0  0  0  0  0  0  0
  129.0069  125.3760   58.2253 H   0  0  0  0  0  0  0  0  0  0  0  0
  129.8963  126.3892   57.0383 H   0  0  0  0  0  0  0  0  0  0  0  0
  130.1137  124.6062   57.0383 H   0  0  0  0  0  0  0  0  0  0  0  0
  131.2719  125.5626   60.8380 H   0  0  0  0  0  0  0  0  0  0  0  0
  130.3806  126.9863   60.2013 H   0  0  0  0  0  0  0  0  0  0  0  0
  129.6036  125.3668   60.2013 H   0  0  0  0  0  0  0  0  0  0  0  0
  1  2  1  0
  2  3  1  0
  3  4  1  0
  4  5  2  0
  5  6  1  0
  6  7  2  0
  7  8  1  0
  7  9  1  0
  9 10  2  0
 10 11  1  0
 11 12  2  0
 11 13  1  0
  2 14  1  0
 14 15  1  0
 15 16  1  0
 16 17  2  0
 16 18  1  0
 18 19  1  0
 19 20  1  0
 19 21  1  0
 19 22  1  0
 14 23  1  0
 23 24  1  0
 23 25  1  0
 23 26  1  0
 10  4  1  0
  1 27  1  0
  1 28  1  0
  1 29  1  0
  2 30  1  1
  5 31  1  0
  6 32  1  0
  9 33  1  0
 14 34  1  6
 15 35  1  0
 20 36  1  0
 20 37  1  0
 20 38  1  0
 21 39  1  0
 21 40  1  0
 21 41  1  0
 22 42  1  0
 22 43  1  0
 22 44  1  0
M  CHG  2  11   1  13  -1
M  END
>  <Binding energies>  (1) 
[-6.21]

>  <Ligand effiencies>  (1) 
[-0.23]

>  <Interactions>  (1) 
["V-A:ILE:369:CG2:3237, V-A:ASP:366:CA:3210, V-A:GLY:454:CA:4049, V-B:GLU:543:CB:9878, H-A:ARG:545:NH1:4927, V-B:TYR:539:CE2:9848, V-B:GLU:543:CG:9879, V-A:ASP:366:CG:3213, V-B:TYR:539:CZ:9849, H-A:ASN:370:N:3244, H-B:TYR:539:OH:9850, V-A:TYR:484:CZ:4347, V-A:GLU:543:CD:4908, V-A:ARG:545:CG:4922, H-A:GLY:454:N:4050, V-A:GLY:453:C:4042, V-A:ILE:369:CD1:3239, V-A:HIS:456:CE1:4070, V-B:TYR:539:CD2:9846, V-A:ASP:366:CB:3212, V-A:ARG:545:CD:4923, V-A:LEU:475:CD2:4259, H-A:ILE:455:N:4055, H-A:ARG:545:NH2:4928, V-A:ARG:545:CZ:4926, H-A:ASP:366:OD1:3214, V-A:GLY:453:CA:4044, H-A:ARG:545:NE:4924, H-A:HIS:456:ND1:4067, H-A:TYR:484:OH:4348"]

$$$$
ZINC1903798773
     RDKit          3D

 39 39  0  0  0  0  0  0  0  0999 V2000
  134.2420  126.8330   74.3970 C   0  0  0  0  0  0  0  0  0  0  0  0
  133.1120  125.9120   74.8740 C   0  0  0  0  0  0  0  0  0  0  0  0
  131.4400  126.5950   74.6890 S   0  0  0  0  0  0  0  0  0  0  0  0
  131.3960  126.9840   72.9020 C   0  0  0  0  0  0  0  0  0  0  0  0
  130.0450  127.4870   72.2880 C   0  0  2  0  0  0  0  0  0  0  0  0
  129.8260  128.9820   72.6710 C   0  0  0  0  0  0  0  0  0  0  0  0
  128.8850  126.5980   72.8880 C   0  0  0  0  0  0  0  0  0  0  0  0
  129.0600  125.3570   72.8920 O   0  0  0  0  0  0  0  0  0  0  0  0
  127.8280  127.1260   73.3120 O   0  0  0  0  0  0  0  0  0  0  0  0
  130.0550  127.3550   70.7130 N   0  0  2  0  0  0  0  0  0  0  0  0
  131.2330  128.0640   69.9990 C   0  0  0  0  0  0  0  0  0  0  0  0
  128.7170  127.7350   70.0140 C   0  0  0  0  0  0  0  0  0  0  0  0
  128.4320  126.8010   68.8200 C   0  0  2  0  0  0  0  0  0  0  0  0
  129.4810  126.5990   67.7430 C   0  0  0  0  0  0  0  0  0  0  0  0
  128.2100  127.3600   67.4330 C   0  0  2  0  0  0  0  0  0  0  0  0
  128.3040  128.8680   67.1440 C   0  0  0  0  0  0  0  0  0  0  0  0
  134.7621  127.2569   75.2686 H   0  0  0  0  0  0  0  0  0  0  0  0
  134.9546  126.2551   73.7901 H   0  0  0  0  0  0  0  0  0  0  0  0
  133.8197  127.6475   73.7901 H   0  0  0  0  0  0  0  0  0  0  0  0
  133.1655  124.9778   74.2957 H   0  0  0  0  0  0  0  0  0  0  0  0
  133.2679  125.7656   75.9530 H   0  0  0  0  0  0  0  0  0  0  0  0
  132.1484  127.7654   72.7194 H   0  0  0  0  0  0  0  0  0  0  0  0
  131.5778  126.0183   72.4077 H   0  0  0  0  0  0  0  0  0  0  0  0
  129.8114  129.0815   73.7664 H   0  0  0  0  0  0  0  0  0  0  0  0
  130.6447  129.5899   72.2584 H   0  0  0  0  0  0  0  0  0  0  0  0
  128.8674  129.3296   72.2584 H   0  0  0  0  0  0  0  0  0  0  0  0
  130.1880  126.3670   70.5490 H   0  0  0  0  0  0  0  0  0  0  0  0
  131.9213  128.4783   70.7504 H   0  0  0  0  0  0  0  0  0  0  0  0
  131.7702  127.3390   69.3698 H   0  0  0  0  0  0  0  0  0  0  0  0
  130.8439  128.8781   69.3698 H   0  0  0  0  0  0  0  0  0  0  0  0
  127.8952  127.6511   70.7404 H   0  0  0  0  0  0  0  0  0  0  0  0
  128.7975  128.7665   69.6404 H   0  0  0  0  0  0  0  0  0  0  0  0
  127.8602  126.1409   69.4889 H   0  0  0  0  0  0  0  0  0  0  0  0
  130.4412  127.1324   67.8029 H   0  0  0  0  0  0  0  0  0  0  0  0
  129.9927  125.7278   67.3080 H   0  0  0  0  0  0  0  0  0  0  0  0
  127.3915  127.2758   66.7030 H   0  0  0  0  0  0  0  0  0  0  0  0
  128.3385  129.4219   68.0937 H   0  0  0  0  0  0  0  0  0  0  0  0
  129.2168  129.0743   66.5658 H   0  0  0  0  0  0  0  0  0  0  0  0
  127.4239  129.1861   66.5658 H   0  0  0  0  0  0  0  0  0  0  0  0
  1  2  1  0
  2  3  1  0
  3  4  1  0
  5  4  1  1
  5  6  1  0
  5  7  1  0
  7  8  2  0
  7  9  1  0
  5 10  1  0
 10 11  1  0
 10 12  1  0
 12 13  1  0
 13 14  1  0
 14 15  1  0
 15 16  1  0
 15 13  1  0
  1 17  1  0
  1 18  1  0
  1 19  1  0
  2 20  1  0
  2 21  1  0
  4 22  1  0
  4 23  1  0
  6 24  1  0
  6 25  1  0
  6 26  1  0
 10 27  1  1
 11 28  1  0
 11 29  1  0
 11 30  1  0
 12 31  1  0
 12 32  1  0
 13 33  1  1
 14 34  1  0
 14 35  1  0
 15 36  1  6
 16 37  1  0
 16 38  1  0
 16 39  1  0
M  CHG  2   9  -1  10   1
M  END
>  <Binding energies>  (1) 
[-5.27]

>  <Ligand effiencies>  (1) 
[-0.31]

>  <Interactions>  (1) 
["V-A:ARG:545:CA:4919, V-B:HIS:456:CD2:9039, V-B:GLU:543:C:9874, H-B:GLU:543:O:9875, V-A:GLU:543:C:4902, V-B:GLU:543:CB:9878, H-B:LYS:547:NZ:9923, V-A:GLY:544:C:4912, V-B:GLU:543:CG:9879, V-A:HIS:456:CD2:4068, V-A:LYS:547:CG:4948, V-A:HIS:456:CB:4065, V-B:LYS:547:CE:9922, V-A:GLU:543:CD:4908, V-B:HIS:456:CE1:9041, V-A:HIS:456:CE1:4070, V-A:HIS:456:CA:4063, V-A:GLU:543:CG:4907, V-B:GLU:543:CD:9880, H-A:LYS:547:NZ:4951, V-A:ARG:545:C:4917, V-A:GLU:543:CB:4906, V-A:HIS:456:CG:4066, H-A:HIS:456:NE2:4071"]

$$$$
ZINC1904065610
     RDKit          3D

 39 40  0  0  0  0  0  0  0  0999 V2000
  129.0890  127.4900   70.0630 C   0  0  0  0  0  0  0  0  0  0  0  0
  128.7310  126.5710   68.8890 C   0  0  0  0  0  0  0  0  0  0  0  0
  129.6920  126.7230   67.6990 C   0  0  2  0  0  0  0  0  0  0  0  0
  129.1270  126.5770   66.3090 C   0  0  0  0  0  0  0  0  0  0  0  0
  130.0840  125.5310   66.8620 C   0  0  1  0  0  0  0  0  0  0  0  0
  131.5110  125.4500   66.2860 N   0  0  0  0  0  0  0  0  0  0  0  0
  131.6890  124.8840   64.8450 C   0  0  2  0  0  0  0  0  0  0  0  0
  131.0710  125.9000   63.8400 C   0  0  0  0  0  0  0  0  0  0  0  0
  130.9100  123.5260   64.8510 C   0  0  0  0  0  0  0  0  0  0  0  0
  129.6100  123.4290   64.0190 C   0  0  0  0  0  0  0  0  0  0  0  0
  129.5590  122.1540   63.1610 C   0  0  0  0  0  0  0  0  0  0  0  0
  128.8000  122.1250   61.8630 C   0  0  0  0  0  0  0  0  0  0  0  0
  130.3250  122.0780   61.8690 C   0  0  0  0  0  0  0  0  0  0  0  0
  133.2220  124.6540   64.5540 C   0  0  0  0  0  0  0  0  0  0  0  0
  134.0360  125.0910   65.3990 O   0  0  0  0  0  0  0  0  0  0  0  0
  133.5980  124.0560   63.5160 O   0  0  0  0  0  0  0  0  0  0  0  0
  128.8864  126.9699   71.0108 H   0  0  0  0  0  0  0  0  0  0  0  0
  130.1556  127.7537   70.0102 H   0  0  0  0  0  0  0  0  0  0  0  0
  128.4818  128.4057   70.0102 H   0  0  0  0  0  0  0  0  0  0  0  0
  128.7641  125.5278   69.2365 H   0  0  0  0  0  0  0  0  0  0  0  0
  127.7263  126.8537   68.5416 H   0  0  0  0  0  0  0  0  0  0  0  0
  130.2657  127.4873   68.2437 H   0  0  0  0  0  0  0  0  0  0  0  0
  128.0638  126.3318   66.1696 H   0  0  0  0  0  0  0  0  0  0  0  0
  129.0982  127.2088   65.4090 H   0  0  0  0  0  0  0  0  0  0  0  0
  130.0555  124.4403   67.0015 H   0  0  0  0  0  0  0  0  0  0  0  0
  131.9190  126.3740   66.3040 H   0  0  0  0  0  0  0  0  0  0  0  0
  132.0570  124.8780   66.9110 H   0  0  0  0  0  0  0  0  0  0  0  0
  130.5776  126.7112   64.3954 H   0  0  0  0  0  0  0  0  0  0  0  0
  131.8667  126.3201   63.2073 H   0  0  0  0  0  0  0  0  0  0  0  0
  130.3321  125.3866   63.2073 H   0  0  0  0  0  0  0  0  0  0  0  0
  131.5970  122.7536   64.4750 H   0  0  0  0  0  0  0  0  0  0  0  0
  130.5781  123.4052   65.8928 H   0  0  0  0  0  0  0  0  0  0  0  0
  128.7503  123.4280   64.7052 H   0  0  0  0  0  0  0  0  0  0  0  0
  129.5809  124.2931   63.3390 H   0  0  0  0  0  0  0  0  0  0  0  0
  129.5291  121.5533   64.0820 H   0  0  0  0  0  0  0  0  0  0  0  0
  128.2220  121.2322   61.5821 H   0  0  0  0  0  0  0  0  0  0  0  0
  128.0405  122.7637   61.3884 H   0  0  0  0  0  0  0  0  0  0  0  0
  130.8491  121.1513   61.5925 H   0  0  0  0  0  0  0  0  0  0  0  0
  131.1261  122.6686   61.4005 H   0  0  0  0  0  0  0  0  0  0  0  0
  1  2  1  0
  2  3  1  0
  3  4  1  0
  4  5  1  0
  5  6  1  0
  6  7  1  0
  7  8  1  6
  7  9  1  0
  9 10  1  0
 10 11  1  0
 11 12  1  0
 12 13  1  0
  7 14  1  0
 14 15  2  0
 14 16  1  0
  5  3  1  0
 13 11  1  0
  1 17  1  0
  1 18  1  0
  1 19  1  0
  2 20  1  0
  2 21  1  0
  3 22  1  6
  4 23  1  0
  4 24  1  0
  5 25  1  1
  6 26  1  0
  6 27  1  0
  8 28  1  0
  8 29  1  0
  8 30  1  0
  9 31  1  0
  9 32  1  0
 10 33  1  0
 10 34  1  0
 11 35  1  0
 12 36  1  0
 12 37  1  0
 13 38  1  0
 13 39  1  0
M  CHG  2   6   1  16  -1
M  END
>  <Binding energies>  (1) 
[-5.86]

>  <Ligand effiencies>  (1) 
[-0.3255555555555556]

>  <Interactions>  (1) 
["V-A:GLY:454:CA:4049, V-B:GLU:543:C:9874, H-A:GLU:543:OE2:4910, V-B:GLU:543:CB:9878, V-B:ALA:541:CB:9864, H-A:ARG:545:NH1:4927, V-A:TYR:484:CE2:4346, V-B:GLU:543:CG:9879, V-A:TYR:484:CZ:4347, V-A:GLU:543:CD:4908, V-B:HIS:456:CE1:9041, H-A:GLY:454:N:4050, V-A:HIS:456:CE1:4070, V-B:GLU:543:CD:9880, V-A:LEU:475:CD2:4259, H-A:ARG:545:NH2:4928, V-A:ARG:545:CZ:4926, H-A:ARG:545:NE:4924, H-A:TYR:484:OH:4348"]

$$$$
ZINC1904776241
     RDKit          3D

 39 39  0  0  0  0  0  0  0  0999 V2000
  133.0330  120.9970   60.5900 C   0  0  0  0  0  0  0  0  0  0  0  0
  134.0620  121.8280   61.3730 C   0  0  0  0  0  0  0  0  0  0  0  0
  133.8180  123.3590   61.3120 C   0  0  1  0  0  0  0  0  0  0  0  0
  133.1870  123.8470   59.9980 C   0  0  0  0  0  0  0  0  0  0  0  0
  132.6390  125.2240   60.3430 C   0  0  0  0  0  0  0  0  0  0  0  0
  132.0560  125.0130   61.7350 C   0  0  0  0  0  0  0  0  0  0  0  0
  133.0080  124.0250   62.4990 C   0  0  1  0  0  0  0  0  0  0  0  0
  131.8570  122.7950   63.2850 S   0  0  0  0  0  0  0  0  0  0  0  0
  130.2020  123.4560   62.9150 C   0  0  0  0  0  0  0  0  0  0  0  0
  129.2640  123.4770   64.1300 C   0  0  0  0  0  0  0  0  0  0  0  0
  129.9780  123.8710   65.4340 C   0  0  0  0  0  0  0  0  0  0  0  0
  130.1820  125.3910   65.5490 C   0  0  0  0  0  0  0  0  0  0  0  0
  131.6260  125.6950   65.9570 N   0  0  0  0  0  0  0  0  0  0  0  0
  133.9780  124.6980   63.5350 C   0  0  0  0  0  0  0  0  0  0  0  0
  135.0940  125.0990   63.1260 O   0  0  0  0  0  0  0  0  0  0  0  0
  133.6370  124.7560   64.7400 O   0  0  0  0  0  0  0  0  0  0  0  0
  132.3765  120.4668   61.2956 H   0  0  0  0  0  0  0  0  0  0  0  0
  132.4287  121.6635   59.9570 H   0  0  0  0  0  0  0  0  0  0  0  0
  133.5573  120.2660   59.9570 H   0  0  0  0  0  0  0  0  0  0  0  0
  134.0291  121.5147   62.4269 H   0  0  0  0  0  0  0  0  0  0  0  0
  135.0405  121.6438   60.9054 H   0  0  0  0  0  0  0  0  0  0  0  0
  134.8605  123.6982   61.4021 H   0  0  0  0  0  0  0  0  0  0  0  0
  133.9436  123.9152   59.2024 H   0  0  0  0  0  0  0  0  0  0  0  0
  132.4111  123.1643   59.6214 H   0  0  0  0  0  0  0  0  0  0  0  0
  133.4403  125.9774   60.3585 H   0  0  0  0  0  0  0  0  0  0  0  0
  131.9046  125.5969   59.6139 H   0  0  0  0  0  0  0  0  0  0  0  0
  132.0030  125.9728   62.2697 H   0  0  0  0  0  0  0  0  0  0  0  0
  131.0385  124.5999   61.6710 H   0  0  0  0  0  0  0  0  0  0  0  0
  130.3135  124.4854   62.5437 H   0  0  0  0  0  0  0  0  0  0  0  0
  129.7475  122.7891   62.1675 H   0  0  0  0  0  0  0  0  0  0  0  0
  128.4587  124.2015   63.9386 H   0  0  0  0  0  0  0  0  0  0  0  0
  128.8754  122.4566   64.2632 H   0  0  0  0  0  0  0  0  0  0  0  0
  129.3724  123.5295   66.2864 H   0  0  0  0  0  0  0  0  0  0  0  0
  130.9704  123.3966   65.4319 H   0  0  0  0  0  0  0  0  0  0  0  0
  129.9710  125.8616   64.5774 H   0  0  0  0  0  0  0  0  0  0  0  0
  129.4987  125.7907   66.3128 H   0  0  0  0  0  0  0  0  0  0  0  0
  131.6400  126.2710   66.7880 H   0  0  0  0  0  0  0  0  0  0  0  0
  132.1030  126.1850   65.2130 H   0  0  0  0  0  0  0  0  0  0  0  0
  132.1210  124.8360   66.1500 H   0  0  0  0  0  0  0  0  0  0  0  0
  1  2  1  0
  2  3  1  0
  3  4  1  0
  4  5  1  0
  5  6  1  0
  6  7  1  0
  7  8  1  1
  8  9  1  0
  9 10  1  0
 10 11  1  0
 11 12  1  0
 12 13  1  0
  7 14  1  0
 14 15  2  0
 14 16  1  0
  7  3  1  0
  1 17  1  0
  1 18  1  0
  1 19  1  0
  2 20  1  0
  2 21  1  0
  3 22  1  6
  4 23  1  0
  4 24  1  0
  5 25  1  0
  5 26  1  0
  6 27  1  0
  6 28  1  0
  9 29  1  0
  9 30  1  0
 10 31  1  0
 10 32  1  0
 11 33  1  0
 11 34  1  0
 12 35  1  0
 12 36  1  0
 13 37  1  0
 13 38  1  0
 13 39  1  0
M  CHG  2  13   1  16  -1
M  END
>  <Binding energies>  (1) 
[-5.08]

>  <Ligand effiencies>  (1) 
[-0.2673684210526316]

>  <Interactions>  (1) 
["V-A:ILE:369:CG2:3237, V-A:GLY:454:CA:4049, H-A:GLU:543:OE2:4910, V-B:GLU:543:CB:9878, H-A:ARG:545:NH1:4927, V-B:TYR:539:CE2:9848, V-A:TYR:484:CE2:4346, V-B:GLU:543:CG:9879, V-A:ASP:366:CG:3213, V-A:TYR:484:CZ:4347, V-A:GLU:543:CD:4908, H-A:GLY:454:N:4050, V-A:SER:385:C:3405, V-A:GLY:453:C:4042, V-A:ILE:369:CD1:3239, V-B:TYR:539:CD2:9846, V-B:GLU:543:CD:9880, V-A:ASP:366:CB:3212, V-A:LEU:475:CD2:4259, H-A:ARG:545:NH2:4928, V-A:ARG:545:CZ:4926, H-A:GLU:543:OE1:4909, V-A:GLY:453:CA:4044, H-A:ARG:545:NE:4924, H-A:TYR:484:OH:4348"]

$$$$
ZINC1904776766
     RDKit          3D

 39 39  0  0  0  0  0  0  0  0999 V2000
  130.9810  125.7650   67.2290 C   0  0  0  0  0  0  0  0  0  0  0  0
  131.3580  125.4430   65.7780 N   0  0  0  0  0  0  0  0  0  0  0  0
  130.1540  125.4310   64.8200 C   0  0  0  0  0  0  0  0  0  0  0  0
  130.4250  124.5470   63.5820 C   0  0  0  0  0  0  0  0  0  0  0  0
  131.5100  125.1890   62.2540 S   0  0  0  0  0  0  0  0  0  0  0  0
  133.0800  124.2110   62.3230 C   0  0  2  0  0  0  0  0  0  0  0  0
  133.9260  124.7220   63.5530 C   0  0  0  0  0  0  0  0  0  0  0  0
  135.0990  125.1250   63.3700 O   0  0  0  0  0  0  0  0  0  0  0  0
  133.4350  124.6240   64.7030 O   0  0  0  0  0  0  0  0  0  0  0  0
  133.8520  124.5220   60.9850 C   0  0  0  0  0  0  0  0  0  0  0  0
  133.1470  124.0110   59.6970 C   0  0  1  0  0  0  0  0  0  0  0  0
  133.9580  124.3330   58.4310 C   0  0  0  0  0  0  0  0  0  0  0  0
  132.8330  122.5030   59.8070 C   0  0  0  0  0  0  0  0  0  0  0  0
  132.0160  122.2040   61.0800 C   0  0  0  0  0  0  0  0  0  0  0  0
  132.7730  122.6500   62.3630 C   0  0  1  0  0  0  0  0  0  0  0  0
  134.0080  121.7250   62.5730 C   0  0  0  0  0  0  0  0  0  0  0  0
  131.6371  125.2046   67.9113 H   0  0  0  0  0  0  0  0  0  0  0  0
  131.1010  126.8436   67.4083 H   0  0  0  0  0  0  0  0  0  0  0  0
  129.9344  125.4777   67.4083 H   0  0  0  0  0  0  0  0  0  0  0  0
  132.0330  126.1180   65.4500 H   0  0  0  0  0  0  0  0  0  0  0  0
  131.7930  124.5310   65.7500 H   0  0  0  0  0  0  0  0  0  0  0  0
  129.2760  125.0388   65.3541 H   0  0  0  0  0  0  0  0  0  0  0  0
  129.9754  126.4607   64.4767 H   0  0  0  0  0  0  0  0  0  0  0  0
  130.8785  123.6131   63.9456 H   0  0  0  0  0  0  0  0  0  0  0  0
  129.4404  124.4595   63.0994 H   0  0  0  0  0  0  0  0  0  0  0  0
  133.9693  125.6126   60.9022 H   0  0  0  0  0  0  0  0  0  0  0  0
  134.8117  123.9882   61.0476 H   0  0  0  0  0  0  0  0  0  0  0  0
  132.1923  124.5493   59.6033 H   0  0  0  0  0  0  0  0  0  0  0  0
  134.9450  124.7249   58.7177 H   0  0  0  0  0  0  0  0  0  0  0  0
  134.0860  123.4175   57.8348 H   0  0  0  0  0  0  0  0  0  0  0  0
  133.4231  125.0870   57.8348 H   0  0  0  0  0  0  0  0  0  0  0  0
  132.2542  122.1902   58.9255 H   0  0  0  0  0  0  0  0  0  0  0  0
  133.7817  121.9487   59.8593 H   0  0  0  0  0  0  0  0  0  0  0  0
  131.0586  122.7429   61.0247 H   0  0  0  0  0  0  0  0  0  0  0  0
  131.8522  121.1178   61.1369 H   0  0  0  0  0  0  0  0  0  0  0  0
  132.1476  122.5246   63.2592 H   0  0  0  0  0  0  0  0  0  0  0  0
  134.1869  121.5910   63.6501 H   0  0  0  0  0  0  0  0  0  0  0  0
  133.8163  120.7464   62.1086 H   0  0  0  0  0  0  0  0  0  0  0  0
  134.8932  122.1841   62.1086 H   0  0  0  0  0  0  0  0  0  0  0  0
  1  2  1  0
  2  3  1  0
  3  4  1  0
  4  5  1  0
  6  5  1  6
  6  7  1  0
  7  8  2  0
  7  9  1  0
  6 10  1  0
 10 11  1  0
 11 12  1  0
 11 13  1  0
 13 14  1  0
 14 15  1  0
 15 16  1  0
 15  6  1  0
  1 17  1  0
  1 18  1  0
  1 19  1  0
  2 20  1  0
  2 21  1  0
  3 22  1  0
  3 23  1  0
  4 24  1  0
  4 25  1  0
 10 26  1  0
 10 27  1  0
 11 28  1  6
 12 29  1  0
 12 30  1  0
 12 31  1  0
 13 32  1  0
 13 33  1  0
 14 34  1  0
 14 35  1  0
 15 36  1  1
 16 37  1  0
 16 38  1  0
 16 39  1  0
M  CHG  2   2   1   9  -1
M  END
>  <Binding energies>  (1) 
[-5.2]

>  <Ligand effiencies>  (1) 
[-0.2888888888888889]

>  <Interactions>  (1) 
["V-A:ILE:369:CG2:3237, V-A:ASP:366:CA:3210, V-A:GLY:454:CA:4049, H-A:GLU:543:OE2:4910, V-A:ILE:369:CB:3236, H-A:ARG:545:NH1:4927, V-B:TYR:539:CE2:9848, V-B:GLU:543:CG:9879, V-A:ASP:366:CG:3213, V-A:GLU:543:CD:4908, H-A:GLY:454:N:4050, V-A:SER:385:C:3405, V-A:GLY:453:C:4042, V-A:HIS:456:CE1:4070, V-A:ILE:369:CD1:3239, V-A:ASP:366:C:3208, V-B:TYR:539:CD2:9846, V-B:GLU:543:CD:9880, V-A:ASP:366:CB:3212, V-A:LEU:475:CD2:4259, H-A:ARG:545:NH2:4928, V-A:ARG:545:CZ:4926, H-A:GLU:543:OE1:4909, V-A:GLY:453:CA:4044, H-A:ARG:545:NE:4924, H-A:TYR:484:OH:4348"]

$$$$
ZINC1904806416
     RDKit          3D

 39 39  0  0  0  0  0  0  0  0999 V2000
  129.4800  133.6290   73.0200 C   0  0  0  0  0  0  0  0  0  0  0  0
  128.7280  132.4410   73.6350 C   0  0  0  0  0  0  0  0  0  0  0  0
  129.4680  131.1050   73.4510 C   0  0  0  0  0  0  0  0  0  0  0  0
  128.7120  129.7070   74.3430 S   0  0  0  0  0  0  0  0  0  0  0  0
  128.8400  128.2340   73.2390 C   0  0  1  0  0  0  0  0  0  0  0  0
  129.5880  127.1040   74.0530 C   0  0  0  0  0  0  0  0  0  0  0  0
  129.5040  125.9230   73.6370 O   0  0  0  0  0  0  0  0  0  0  0  0
  130.2330  127.3960   75.0870 O   0  0  0  0  0  0  0  0  0  0  0  0
  127.4130  127.7250   72.8520 C   0  0  0  0  0  0  0  0  0  0  0  0
  127.4350  126.6130   71.7860 C   0  0  0  0  0  0  0  0  0  0  0  0
  128.1730  127.0560   70.5100 C   0  0  0  0  0  0  0  0  0  0  0  0
  129.6000  127.6140   70.7760 C   0  0  1  0  0  0  0  0  0  0  0  0
  130.1970  128.2370   69.4760 N   0  0  0  0  0  0  0  0  0  0  0  0
  129.5410  127.7140   68.1790 C   0  0  0  0  0  0  0  0  0  0  0  0
  131.7310  128.0850   69.3700 C   0  0  0  0  0  0  0  0  0  0  0  0
  129.6240  128.6500   71.9440 C   0  0  0  0  0  0  0  0  0  0  0  0
  129.8820  134.2640   73.8232 H   0  0  0  0  0  0  0  0  0  0  0  0
  130.3074  133.2569   72.3980 H   0  0  0  0  0  0  0  0  0  0  0  0
  128.7896  134.2176   72.3980 H   0  0  0  0  0  0  0  0  0  0  0  0
  128.5998  132.6260   74.7117 H   0  0  0  0  0  0  0  0  0  0  0  0
  127.7615  132.3575   73.1164 H   0  0  0  0  0  0  0  0  0  0  0  0
  129.4825  130.8630   72.3781 H   0  0  0  0  0  0  0  0  0  0  0  0
  130.4762  131.2405   73.8695 H   0  0  0  0  0  0  0  0  0  0  0  0
  126.9242  127.3332   73.7562 H   0  0  0  0  0  0  0  0  0  0  0  0
  126.8660  128.5780   72.4240 H   0  0  0  0  0  0  0  0  0  0  0  0
  127.9432  125.7309   72.2027 H   0  0  0  0  0  0  0  0  0  0  0  0
  126.3947  126.3800   71.5148 H   0  0  0  0  0  0  0  0  0  0  0  0
  128.2587  126.1884   69.8392 H   0  0  0  0  0  0  0  0  0  0  0  0
  127.5856  127.8731   70.0657 H   0  0  0  0  0  0  0  0  0  0  0  0
  130.2269  126.7646   71.0851 H   0  0  0  0  0  0  0  0  0  0  0  0
  130.0080  129.2290   69.5170 H   0  0  0  0  0  0  0  0  0  0  0  0
  128.7044  127.0470   68.4344 H   0  0  0  0  0  0  0  0  0  0  0  0
  129.1658  128.5635   67.5895 H   0  0  0  0  0  0  0  0  0  0  0  0
  130.2856  127.1590   67.5895 H   0  0  0  0  0  0  0  0  0  0  0  0
  132.1658  128.0419   70.3795 H   0  0  0  0  0  0  0  0  0  0  0  0
  131.9711  127.1587   68.8275 H   0  0  0  0  0  0  0  0  0  0  0  0
  132.1482  128.9462   68.8275 H   0  0  0  0  0  0  0  0  0  0  0  0
  130.6742  128.8190   72.2243 H   0  0  0  0  0  0  0  0  0  0  0  0
  129.1150  129.5464   71.5602 H   0  0  0  0  0  0  0  0  0  0  0  0
  1  2  1  0
  2  3  1  0
  3  4  1  0
  5  4  1  1
  5  6  1  0
  6  7  2  0
  6  8  1  0
  5  9  1  0
  9 10  1  0
 10 11  1  0
 11 12  1  0
 12 13  1  0
 13 14  1  0
 13 15  1  0
 12 16  1  0
 16  5  1  0
  1 17  1  0
  1 18  1  0
  1 19  1  0
  2 20  1  0
  2 21  1  0
  3 22  1  0
  3 23  1  0
  9 24  1  0
  9 25  1  0
 10 26  1  0
 10 27  1  0
 11 28  1  0
 11 29  1  0
 12 30  1  1
 13 31  1  0
 14 32  1  0
 14 33  1  0
 14 34  1  0
 15 35  1  0
 15 36  1  0
 15 37  1  0
 16 38  1  0
 16 39  1  0
M  CHG  2   8  -1  13   1
M  END
>  <Binding energies>  (1) 
[-5.74]

>  <Ligand effiencies>  (1) 
[-0.3376470588235294]

>  <Interactions>  (1) 
["V-A:ARG:545:CA:4919, V-A:GLU:543:CA:4904, V-B:HIS:456:CD2:9039, V-B:GLU:543:C:9874, V-A:GLU:543:C:4902, H-B:LYS:547:NZ:9923, V-A:GLY:544:C:4912, V-B:LYS:547:CE:9922, V-B:TYR:484:CB:9312, V-A:GLU:543:CD:4908, V-A:ARG:545:CG:4922, V-B:HIS:456:CE1:9041, V-A:HIS:456:CE1:4070, V-B:GLY:544:C:9884, H-B:HIS:456:NE2:9042, V-B:GLY:544:CA:9886, V-B:HIS:456:CG:9037, H-A:LYS:547:NZ:4951, V-A:GLU:543:CB:4906, V-A:LYS:547:CE:4950, H-A:GLU:543:O:4903"]

$$$$
ZINC1904830556
     RDKit          3D

 37 38  0  0  0  0  0  0  0  0999 V2000
  125.4120  131.0890   59.0470 C   0  0  0  0  0  0  0  0  0  0  0  0
  126.1860  131.0590   57.7230 C   0  0  0  0  0  0  0  0  0  0  0  0
  127.6110  131.6170   57.8480 C   0  0  0  0  0  0  0  0  0  0  0  0
  128.8220  130.7880   56.7740 S   0  0  0  0  0  0  0  0  0  0  0  0
  130.4300  131.4770   57.3780 C   0  0  2  0  0  0  0  0  0  0  0  0
  130.3960  133.0550   57.3210 C   0  0  0  0  0  0  0  0  0  0  0  0
  131.3370  133.6640   56.7610 O   0  0  0  0  0  0  0  0  0  0  0  0
  129.4530  133.6540   57.8910 O   0  0  0  0  0  0  0  0  0  0  0  0
  131.6480  130.7940   56.6910 C   0  0  0  0  0  0  0  0  0  0  0  0
  132.3490  130.6840   58.0500 C   0  0  0  0  0  0  0  0  0  0  0  0
  130.9780  130.8760   58.7400 C   0  0  0  0  0  0  0  0  0  0  0  0
  131.0410  131.8230   59.9790 C   0  0  0  0  0  0  0  0  0  0  0  0
  131.7100  131.1850   61.2100 C   0  0  0  0  0  0  0  0  0  0  0  0
  130.9850  129.8790   61.5690 N   0  0  0  0  0  0  0  0  0  0  0  0
  130.9820  128.8780   60.4020 C   0  0  0  0  0  0  0  0  0  0  0  0
  130.3170  129.5310   59.1760 C   0  0  0  0  0  0  0  0  0  0  0  0
  126.1215  131.0615   59.8872 H   0  0  0  0  0  0  0  0  0  0  0  0
  124.8145  132.0110   59.1016 H   0  0  0  0  0  0  0  0  0  0  0  0
  124.7450  130.2160   59.1016 H   0  0  0  0  0  0  0  0  0  0  0  0
  126.2469  130.0169   57.3761 H   0  0  0  0  0  0  0  0  0  0  0  0
  125.6438  131.6981   57.0105 H   0  0  0  0  0  0  0  0  0  0  0  0
  127.5892  132.6851   57.5859 H   0  0  0  0  0  0  0  0  0  0  0  0
  127.9324  131.4440   58.8857 H   0  0  0  0  0  0  0  0  0  0  0  0
  131.4161  129.8249   56.2251 H   0  0  0  0  0  0  0  0  0  0  0  0
  132.1520  131.2771   55.8409 H   0  0  0  0  0  0  0  0  0  0  0  0
  132.8192  129.7078   58.2398 H   0  0  0  0  0  0  0  0  0  0  0  0
  133.2040  131.3294   58.3000 H   0  0  0  0  0  0  0  0  0  0  0  0
  131.6105  132.7220   59.7008 H   0  0  0  0  0  0  0  0  0  0  0  0
  130.0032  132.0550   60.2603 H   0  0  0  0  0  0  0  0  0  0  0  0
  132.7643  130.9684   60.9831 H   0  0  0  0  0  0  0  0  0  0  0  0
  131.6528  131.8811   62.0598 H   0  0  0  0  0  0  0  0  0  0  0  0
  131.4260  129.4570   62.3740 H   0  0  0  0  0  0  0  0  0  0  0  0
  130.0310  130.0900   61.8270 H   0  0  0  0  0  0  0  0  0  0  0  0
  132.0167  128.5989   60.1541 H   0  0  0  0  0  0  0  0  0  0  0  0
  130.4213  127.9765   60.6900 H   0  0  0  0  0  0  0  0  0  0  0  0
  130.3766  128.8265   58.3333 H   0  0  0  0  0  0  0  0  0  0  0  0
  129.2798  129.7622   59.4604 H   0  0  0  0  0  0  0  0  0  0  0  0
  1  2  1  0
  2  3  1  0
  3  4  1  0
  5  4  1  6
  5  6  1  0
  6  7  2  0
  6  8  1  0
  5  9  1  0
  9 10  1  0
 10 11  1  0
 11 12  1  0
 12 13  1  0
 13 14  1  0
 14 15  1  0
 15 16  1  0
 11  5  1  0
 16 11  1  0
  1 17  1  0
  1 18  1  0
  1 19  1  0
  2 20  1  0
  2 21  1  0
  3 22  1  0
  3 23  1  0
  9 24  1  0
  9 25  1  0
 10 26  1  0
 10 27  1  0
 12 28  1  0
 12 29  1  0
 13 30  1  0
 13 31  1  0
 14 32  1  0
 14 33  1  0
 15 34  1  0
 15 35  1  0
 16 36  1  0
 16 37  1  0
M  CHG  2   8  -1  14   1
M  END
>  <Binding energies>  (1) 
[-6.21]

>  <Ligand effiencies>  (1) 
[-0.345]

>  <Interactions>  (1) 
["V-A:LEU:363:CD1:3189, V-A:PRO:540:N:4884, H-A:TYR:539:N:4870, V-A:PRO:540:CB:4885, V-A:PRO:540:CA:4883, V-A:TYR:539:CZ:4877, V-A:TYR:531:CE2:4793, V-A:TYR:531:CZ:4794, V-A:GLU:543:CD:4908, H-A:ASP:366:OD2:3215, V-A:TYR:539:C:4867, V-A:PRO:540:CD:4887, H-A:GLU:543:OE1:4909, V-A:TYR:539:CE1:4875, V-A:ASP:366:CG:3213"]

$$$$
ZINC1904832485
     RDKit          3D

 37 38  0  0  0  0  0  0  0  0999 V2000
  131.8980  125.8380   66.5850 N   0  0  0  0  0  0  0  0  0  0  0  0
  130.4570  125.3770   66.8250 C   0  0  0  0  0  0  0  0  0  0  0  0
  129.8570  124.8680   65.5080 C   0  0  0  0  0  0  0  0  0  0  0  0
  129.8490  123.3330   65.4020 C   0  0  0  0  0  0  0  0  0  0  0  0
  131.0430  122.7600   64.6180 C   0  0  0  0  0  0  0  0  0  0  0  0
  131.0740  123.1450   62.8370 S   0  0  0  0  0  0  0  0  0  0  0  0
  132.5820  124.1980   62.6430 C   0  0  2  0  0  0  0  0  0  0  0  0
  132.7170  125.0870   63.9280 C   0  0  0  0  0  0  0  0  0  0  0  0
  133.5170  124.7410   64.8290 O   0  0  0  0  0  0  0  0  0  0  0  0
  132.0070  126.1180   64.0100 O   0  0  0  0  0  0  0  0  0  0  0  0
  132.4350  125.0210   61.3150 C   0  0  0  0  0  0  0  0  0  0  0  0
  133.6340  124.5850   60.4450 C   0  0  2  0  0  0  0  0  0  0  0  0
  133.3920  123.1680   59.8860 C   0  0  0  0  0  0  0  0  0  0  0  0
  133.5910  122.2850   61.1310 C   0  0  0  0  0  0  0  0  0  0  0  0
  133.8420  123.3260   62.2550 C   0  0  1  0  0  0  0  0  0  0  0  0
  134.7090  124.3310   61.4950 C   0  0  0  0  0  0  0  0  0  0  0  0
  132.5410  125.0730   66.7350 H   0  0  0  0  0  0  0  0  0  0  0  0
  132.1310  126.5900   67.2180 H   0  0  0  0  0  0  0  0  0  0  0  0
  132.0010  126.1710   65.6370 H   0  0  0  0  0  0  0  0  0  0  0  0
  130.4504  124.5663   67.5685 H   0  0  0  0  0  0  0  0  0  0  0  0
  129.8591  126.2216   67.1982 H   0  0  0  0  0  0  0  0  0  0  0  0
  128.8209  125.2296   65.4325 H   0  0  0  0  0  0  0  0  0  0  0  0
  130.4870  125.2500   64.6912 H   0  0  0  0  0  0  0  0  0  0  0  0
  129.8687  122.9147   66.4192 H   0  0  0  0  0  0  0  0  0  0  0  0
  128.9391  123.0539   64.8505 H   0  0  0  0  0  0  0  0  0  0  0  0
  131.9649  123.1587   65.0664 H   0  0  0  0  0  0  0  0  0  0  0  0
  130.9513  121.6660   64.6876 H   0  0  0  0  0  0  0  0  0  0  0  0
  131.4855  124.7815   60.8140 H   0  0  0  0  0  0  0  0  0  0  0  0
  132.4277  126.1057   61.4978 H   0  0  0  0  0  0  0  0  0  0  0  0
  133.8395  125.3089   59.6427 H   0  0  0  0  0  0  0  0  0  0  0  0
  132.3728  123.0669   59.4848 H   0  0  0  0  0  0  0  0  0  0  0  0
  134.0562  122.9055   59.0494 H   0  0  0  0  0  0  0  0  0  0  0  0
  132.6924  121.6858   61.3395 H   0  0  0  0  0  0  0  0  0  0  0  0
  134.4080  121.5566   61.0220 H   0  0  0  0  0  0  0  0  0  0  0  0
  134.2071  122.8247   63.1635 H   0  0  0  0  0  0  0  0  0  0  0  0
  134.9631  125.2237   62.0854 H   0  0  0  0  0  0  0  0  0  0  0  0
  135.7112  124.0219   61.1633 H   0  0  0  0  0  0  0  0  0  0  0  0
  1  2  1  0
  2  3  1  0
  3  4  1  0
  4  5  1  0
  5  6  1  0
  7  6  1  1
  7  8  1  0
  8  9  2  0
  8 10  1  0
  7 11  1  0
 11 12  1  0
 12 13  1  0
 13 14  1  0
 14 15  1  0
 15 16  1  0
 15  7  1  0
 16 12  1  0
  1 17  1  0
  1 18  1  0
  1 19  1  0
  2 20  1  0
  2 21  1  0
  3 22  1  0
  3 23  1  0
  4 24  1  0
  4 25  1  0
  5 26  1  0
  5 27  1  0
 11 28  1  0
 11 29  1  0
 12 30  1  6
 13 31  1  0
 13 32  1  0
 14 33  1  0
 14 34  1  0
 15 35  1  1
 16 36  1  0
 16 37  1  0
M  CHG  2   1   1  10  -1
M  END
>  <Binding energies>  (1) 
[-4.79]

>  <Ligand effiencies>  (1) 
[-0.2521052631578947]

>  <Interactions>  (1) 
["V-A:ILE:369:CG2:3237, V-A:ASP:366:CA:3210, V-A:GLY:454:CA:4049, H-A:GLU:543:OE2:4910, V-A:ILE:369:CB:3236, V-B:GLU:543:CB:9878, V-B:TYR:539:CE2:9848, V-A:TYR:484:CE2:4346, V-B:GLU:543:CG:9879, V-A:ASP:366:CG:3213, V-A:TYR:484:CZ:4347, V-A:GLU:543:CD:4908, V-A:ARG:545:CG:4922, H-A:GLY:454:N:4050, V-A:HIS:456:CE1:4070, V-A:ILE:369:CD1:3239, V-B:GLU:543:CD:9880, V-A:ASP:366:CB:3212, V-A:LEU:475:CD2:4259, H-A:ARG:545:NH2:4928, V-A:ARG:545:CZ:4926, H-A:GLU:543:OE1:4909, H-A:ARG:545:NE:4924, H-A:TYR:484:OH:4348"]

$$$$
ZINC1904938947
     RDKit          3D

 34 36  0  0  0  0  0  0  0  0999 V2000
  133.9460  123.9580   57.7750 O   0  0  0  0  0  0  0  0  0  0  0  0
  133.3370  124.2160   59.0260 C   0  0  1  0  0  0  0  0  0  0  0  0
  134.4120  124.3560   60.1310 C   0  0  0  0  0  0  0  0  0  0  0  0
  133.8880  124.3500   61.5850 C   0  0  1  0  0  0  0  0  0  0  0  0
  134.8860  124.7190   62.6820 C   0  0  0  0  0  0  0  0  0  0  0  0
  133.9720  124.5360   63.7650 O   0  0  0  0  0  0  0  0  0  0  0  0
  132.7620  124.1290   63.1240 C   0  0  1  0  0  0  0  0  0  0  0  0
  131.6000  123.8600   64.0900 C   0  0  0  0  0  0  0  0  0  0  0  0
  131.3830  122.5640   64.3060 F   0  0  0  0  0  0  0  0  0  0  0  0
  132.6040  125.1040   61.9520 C   0  0  0  0  0  0  0  0  0  0  0  0
  133.2090  123.0760   62.1050 C   0  0  0  0  0  0  0  0  0  0  0  0
  132.4550  125.4770   58.8950 C   0  0  1  0  0  0  0  0  0  0  0  0
  132.4160  126.1900   57.5340 C   0  0  0  0  0  0  0  0  0  0  0  0
  130.9390  126.5010   57.8340 C   0  0  2  0  0  0  0  0  0  0  0  0
  130.7020  127.6810   58.4120 F   0  0  0  0  0  0  0  0  0  0  0  0
  130.9360  125.2860   58.7790 C   0  0  0  0  0  0  0  0  0  0  0  0
  134.5460  124.6790   57.5740 H   0  0  0  0  0  0  0  0  0  0  0  0
  132.6938  123.3743   59.3223 H   0  0  0  0  0  0  0  0  0  0  0  0
  135.1175  123.5190   60.0232 H   0  0  0  0  0  0  0  0  0  0  0  0
  134.8662  125.3467   59.9816 H   0  0  0  0  0  0  0  0  0  0  0  0
  135.7444  124.0326   62.7270 H   0  0  0  0  0  0  0  0  0  0  0  0
  135.3888  125.6941   62.6025 H   0  0  0  0  0  0  0  0  0  0  0  0
  131.8280  124.3409   65.0527 H   0  0  0  0  0  0  0  0  0  0  0  0
  130.6902  124.2696   63.6268 H   0  0  0  0  0  0  0  0  0  0  0  0
  131.7352  124.9517   61.2948 H   0  0  0  0  0  0  0  0  0  0  0  0
  132.4744  126.1946   62.0141 H   0  0  0  0  0  0  0  0  0  0  0  0
  133.8699  122.2782   62.4748 H   0  0  0  0  0  0  0  0  0  0  0  0
  132.5618  122.3936   61.5345 H   0  0  0  0  0  0  0  0  0  0  0  0
  132.9019  125.9575   59.7778 H   0  0  0  0  0  0  0  0  0  0  0  0
  133.0669  127.0734   57.4574 H   0  0  0  0  0  0  0  0  0  0  0  0
  132.7309  125.6925   56.6049 H   0  0  0  0  0  0  0  0  0  0  0  0
  130.1992  126.6031   57.0263 H   0  0  0  0  0  0  0  0  0  0  0  0
  130.3800  125.4327   59.7167 H   0  0  0  0  0  0  0  0  0  0  0  0
  130.4893  124.3232   58.4902 H   0  0  0  0  0  0  0  0  0  0  0  0
  1  2  1  0
  2  3  1  0
  4  3  1  1
  4  5  1  0
  5  6  1  0
  6  7  1  0
  7  8  1  6
  8  9  1  0
  7 10  1  0
  7 11  1  0
  2 12  1  0
 12 13  1  0
 13 14  1  0
 14 15  1  0
 14 16  1  0
 10  4  1  0
 16 12  1  0
 11  4  1  0
  1 17  1  0
  2 18  1  1
  3 19  1  0
  3 20  1  0
  5 21  1  0
  5 22  1  0
  8 23  1  0
  8 24  1  0
 10 25  1  0
 10 26  1  0
 11 27  1  0
 11 28  1  0
 12 29  1  1
 13 30  1  0
 13 31  1  0
 14 32  1  6
 16 33  1  0
 16 34  1  0
M  END
>  <Binding energies>  (1) 
[-5.2]

>  <Ligand effiencies>  (1) 
[-0.3058823529411765]

>  <Interactions>  (1) 
["V-A:ILE:369:CG2:3237, V-A:ASP:366:CA:3210, V-A:ILE:369:CB:3236, V-B:TYR:539:CE2:9848, V-A:TYR:484:CE2:4346, V-A:ASP:366:CG:3213, V-B:TYR:539:CZ:9849, H-A:ASN:370:N:3244, H-B:TYR:539:OH:9850, V-A:TYR:484:CZ:4347, H-A:GLY:454:N:4050, V-A:GLY:453:C:4042, V-A:ILE:369:CD1:3239, V-A:TYR:531:CZ:4794, V-A:ASP:366:CB:3212, V-A:LEU:475:CD2:4259, H-A:ARG:545:NH2:4928, V-A:ARG:545:CZ:4926, H-A:ASP:366:O:3209, V-A:GLY:453:CA:4044"]

$$$$
ZINC1905074282
     RDKit          3D

 36 37  0  0  0  0  0  0  0  0999 V2000
  129.2870  132.3180   63.4650 C   0  0  0  0  0  0  0  0  0  0  0  0
  130.2020  132.1000   62.5070 C   0  0  0  0  0  0  0  0  0  0  0  0
  130.1270  131.8840   61.0090 C   0  0  0  0  0  0  0  0  0  0  0  0
  131.4470  131.0840   61.1800 C   0  0  0  0  0  0  0  0  0  0  0  0
  131.3450  129.5470   61.2990 N   0  0  0  0  0  0  0  0  0  0  0  0
  132.5250  131.4070   60.0950 C   0  0  0  0  0  0  0  0  0  0  0  0
  133.6180  131.8240   60.4880 O   0  0  0  0  0  0  0  0  0  0  0  0
  132.2810  131.2200   58.7630 N   0  0  0  0  0  0  0  0  0  0  0  0
  132.5190  129.9110   58.1350 C   0  0  0  0  0  0  0  0  0  0  0  0
  131.8020  132.2540   57.8270 C   0  0  0  0  0  0  0  0  0  0  0  0
  130.2670  132.3840   57.7310 C   0  0  1  0  0  0  0  0  0  0  0  0
  129.6610  132.9670   56.4450 C   0  0  0  0  0  0  0  0  0  0  0  0
  128.5000  131.9790   56.6490 C   0  0  2  0  0  0  0  0  0  0  0  0
  127.4450  132.4560   57.3130 F   0  0  0  0  0  0  0  0  0  0  0  0
  129.4640  131.1030   57.4700 C   0  0  0  0  0  0  0  0  0  0  0  0
  131.6930  131.8330   62.5210 C   0  0  0  0  0  0  0  0  0  0  0  0
  129.6049  132.4467   64.5102 H   0  0  0  0  0  0  0  0  0  0  0  0
  128.2194  132.3679   63.2047 H   0  0  0  0  0  0  0  0  0  0  0  0
  129.2650  131.2932   60.6658 H   0  0  0  0  0  0  0  0  0  0  0  0
  130.0216  132.7122   60.2928 H   0  0  0  0  0  0  0  0  0  0  0  0
  131.3980  129.2750   62.2710 H   0  0  0  0  0  0  0  0  0  0  0  0
  132.1060  129.1070   60.8010 H   0  0  0  0  0  0  0  0  0  0  0  0
  130.4650  129.2240   60.9230 H   0  0  0  0  0  0  0  0  0  0  0  0
  132.6575  129.1492   58.9164 H   0  0  0  0  0  0  0  0  0  0  0  0
  131.6551  129.6419   57.5096 H   0  0  0  0  0  0  0  0  0  0  0  0
  133.4224  129.9632   57.5096 H   0  0  0  0  0  0  0  0  0  0  0  0
  132.2072  133.2235   58.1525 H   0  0  0  0  0  0  0  0  0  0  0  0
  132.1486  131.9499   56.8283 H   0  0  0  0  0  0  0  0  0  0  0  0
  130.1896  132.9283   58.6838 H   0  0  0  0  0  0  0  0  0  0  0  0
  129.3801  134.0287   56.5071 H   0  0  0  0  0  0  0  0  0  0  0  0
  130.2265  133.0190   55.5029 H   0  0  0  0  0  0  0  0  0  0  0  0
  127.9390  131.5697   55.7959 H   0  0  0  0  0  0  0  0  0  0  0  0
  129.0213  130.6449   58.3668 H   0  0  0  0  0  0  0  0  0  0  0  0
  129.9279  130.1962   57.0548 H   0  0  0  0  0  0  0  0  0  0  0  0
  132.0461  131.2018   63.3498 H   0  0  0  0  0  0  0  0  0  0  0  0
  132.4405  132.6329   62.6282 H   0  0  0  0  0  0  0  0  0  0  0  0
  1  2  2  0
  2  3  1  0
  3  4  1  0
  4  5  1  0
  4  6  1  0
  6  7  2  0
  6  8  1  0
  8  9  1  0
  8 10  1  0
 10 11  1  0
 11 12  1  0
 12 13  1  0
 13 14  1  0
 13 15  1  0
  4 16  1  0
 16  2  1  0
 15 11  1  0
  1 17  1  0
  1 18  1  0
  3 19  1  0
  3 20  1  0
  5 21  1  0
  5 22  1  0
  5 23  1  0
  9 24  1  0
  9 25  1  0
  9 26  1  0
 10 27  1  0
 10 28  1  0
 11 29  1  1
 12 30  1  0
 12 31  1  0
 13 32  1  6
 15 33  1  0
 15 34  1  0
 16 35  1  0
 16 36  1  0
M  CHG  1   5   1
M  END
>  <Binding energies>  (1) 
[-6.02]

>  <Ligand effiencies>  (1) 
[-0.31684210526315787]

>  <Interactions>  (1) 
["V-A:ILE:538:C:4858, V-A:ILE:538:CB:4862, V-A:TYR:539:CE2:4876, V-A:ASP:366:CG:3213, V-A:LEU:363:CD1:3189, V-A:TYR:539:CD1:4873, V-A:ILE:538:CA:4860, V-A:TYR:539:CZ:4877, V-A:TYR:531:CE2:4793, V-A:ALA:541:CB:4892, V-A:GLU:543:CD:4908, V-A:ALA:541:CA:4890, V-A:GLU:543:CG:4907, V-A:MET:535:CE:4835, V-A:ASP:366:CB:3212, H-A:LEU:363:N:3186, H-A:GLU:543:OE1:4909, H-A:ASP:366:OD1:3214, V-A:PRO:540:N:4884, V-A:TYR:539:CG:4872, V-A:PRO:540:CB:4885, V-A:PRO:540:CA:4883, H-A:ASP:366:OD2:3215, V-A:TYR:539:CE1:4875"]

$$$$
ZINC1905074282-again1
     RDKit          3D

 35 36  0  0  0  0  0  0  0  0999 V2000
  129.1120  123.6430   62.8210 C   0  0  0  0  0  0  0  0  0  0  0  0
  129.8490  124.1120   63.8390 C   0  0  0  0  0  0  0  0  0  0  0  0
  130.5670  123.4560   65.0020 C   0  0  0  0  0  0  0  0  0  0  0  0
  131.4600  124.7210   65.0270 C   0  0  0  0  0  0  0  0  0  0  0  0
  131.7460  125.3090   66.3280 N   0  0  0  0  0  0  0  0  0  0  0  0
  132.8400  124.5050   64.3080 C   0  0  0  0  0  0  0  0  0  0  0  0
  133.8710  124.7630   64.9370 O   0  0  0  0  0  0  0  0  0  0  0  0
  132.9050  124.0280   63.0310 N   0  0  0  0  0  0  0  0  0  0  0  0
  133.2180  122.6440   62.6560 C   0  0  0  0  0  0  0  0  0  0  0  0
  132.6060  124.8890   61.8750 C   0  0  0  0  0  0  0  0  0  0  0  0
  132.9220  124.2410   60.5120 C   0  0  1  0  0  0  0  0  0  0  0  0
  132.4680  124.9910   59.2530 C   0  0  0  0  0  0  0  0  0  0  0  0
  133.7470  124.4610   58.5810 C   0  0  2  0  0  0  0  0  0  0  0  0
  133.6110  123.3240   57.8960 F   0  0  0  0  0  0  0  0  0  0  0  0
  134.3620  124.3230   59.9850 C   0  0  0  0  0  0  0  0  0  0  0  0
  130.4000  125.4810   64.1840 C   0  0  0  0  0  0  0  0  0  0  0  0
  128.6860  124.3395   62.0838 H   0  0  0  0  0  0  0  0  0  0  0  0
  128.9336  122.5620   62.7235 H   0  0  0  0  0  0  0  0  0  0  0  0
  129.9518  123.3043   65.9012 H   0  0  0  0  0  0  0  0  0  0  0  0
  130.9840  122.4399   64.9412 H   0  0  0  0  0  0  0  0  0  0  0  0
  132.5430  124.8420   66.7350 H   0  0  0  0  0  0  0  0  0  0  0  0
  132.0190  126.2740   66.2050 H   0  0  0  0  0  0  0  0  0  0  0  0
  133.3546  122.0398   63.5650 H   0  0  0  0  0  0  0  0  0  0  0  0
  132.3909  122.2293   62.0610 H   0  0  0  0  0  0  0  0  0  0  0  0
  134.1430  122.6256   62.0610 H   0  0  0  0  0  0  0  0  0  0  0  0
  131.5353  125.1403   61.8986 H   0  0  0  0  0  0  0  0  0  0  0  0
  133.2512  125.7755   61.9631 H   0  0  0  0  0  0  0  0  0  0  0  0
  132.4825  123.2727   60.7935 H   0  0  0  0  0  0  0  0  0  0  0  0
  131.5292  124.6254   58.8114 H   0  0  0  0  0  0  0  0  0  0  0  0
  132.2167  126.0618   59.2691 H   0  0  0  0  0  0  0  0  0  0  0  0
  134.2539  125.0287   57.7869 H   0  0  0  0  0  0  0  0  0  0  0  0
  134.9623  123.4142   60.1388 H   0  0  0  0  0  0  0  0  0  0  0  0
  135.0889  125.0484   60.3792 H   0  0  0  0  0  0  0  0  0  0  0  0
  129.7198  126.1233   64.7625 H   0  0  0  0  0  0  0  0  0  0  0  0
  130.6734  126.2195   63.4160 H   0  0  0  0  0  0  0  0  0  0  0  0
  1  2  2  0
  2  3  1  0
  3  4  1  0
  4  5  1  0
  4  6  1  0
  6  7  2  0
  6  8  1  0
  8  9  1  0
  8 10  1  0
 10 11  1  0
 11 12  1  0
 12 13  1  0
 13 14  1  0
 13 15  1  0
  4 16  1  0
 16  2  1  0
 15 11  1  0
  1 17  1  0
  1 18  1  0
  3 19  1  0
  3 20  1  0
  5 21  1  0
  5 22  1  0
  9 23  1  0
  9 24  1  0
  9 25  1  0
 10 26  1  0
 10 27  1  0
 11 28  1  1
 12 29  1  0
 12 30  1  0
 13 31  1  6
 15 32  1  0
 15 33  1  0
 16 34  1  0
 16 35  1  0
M  END
>  <Binding energies>  (1) 
[-5.27]

>  <Ligand effiencies>  (1) 
[-0.29277777777777775]

>  <Interactions>  (1) 
["V-A:ILE:369:CG2:3237, V-A:ASP:366:CA:3210, V-A:GLY:454:CA:4049, V-A:ILE:369:C:3232, H-A:GLU:543:OE2:4910, V-A:ILE:369:CB:3236, V-B:TYR:539:CE2:9848, V-A:TYR:484:CE2:4346, V-B:GLU:543:CG:9879, V-A:ASP:366:CG:3213, V-B:TYR:539:CZ:9849, V-A:TYR:484:CZ:4347, H-A:GLY:454:N:4050, V-A:ILE:369:CD1:3239, V-A:ASP:366:C:3208, V-A:ASP:366:CB:3212, V-A:LEU:475:CD2:4259, H-A:ARG:545:NH2:4928, V-A:ARG:545:CZ:4926, H-A:ARG:545:NE:4924, H-A:TYR:484:OH:4348"]

$$$$
ZINC1907501403
     RDKit          3D

 39 40  0  0  0  0  0  0  0  0999 V2000
  133.9370  124.3680   58.3190 C   0  0  0  0  0  0  0  0  0  0  0  0
  133.5130  124.0080   59.4060 C   0  0  0  0  0  0  0  0  0  0  0  0
  132.9750  123.5740   60.7230 C   0  0  0  0  0  0  0  0  0  0  0  0
  131.6350  124.0400   60.9730 O   0  0  0  0  0  0  0  0  0  0  0  0
  131.3270  125.1270   61.7430 C   0  0  0  0  0  0  0  0  0  0  0  0
  132.0840  126.0760   61.9580 O   0  0  0  0  0  0  0  0  0  0  0  0
  129.9040  125.0520   62.3630 C   0  0  1  0  0  0  0  0  0  0  0  0
  129.2320  123.6540   62.2530 C   0  0  0  0  0  0  0  0  0  0  0  0
  130.0620  122.4300   62.6930 C   0  0  0  0  0  0  0  0  0  0  0  0
  130.2330  122.2440   64.2130 C   0  0  0  0  0  0  0  0  0  0  0  0
  129.5340  123.3180   65.0660 C   0  0  0  0  0  0  0  0  0  0  0  0
  130.1300  124.7410   65.0180 C   0  0  0  0  0  0  0  0  0  0  0  0
  129.7510  125.6390   63.8040 C   0  0  1  0  0  0  0  0  0  0  0  0
  130.5130  126.9720   63.9230 N   0  0  0  0  0  0  0  0  0  0  0  0
  133.2070  122.0840   61.0620 C   0  0  0  0  0  0  0  0  0  0  0  0
  133.6440  122.5190   62.4700 C   0  0  0  0  0  0  0  0  0  0  0  0
  133.8880  123.9310   61.9130 C   0  0  0  0  0  0  0  0  0  0  0  0
  134.3190  124.6923   57.3398 H   0  0  0  0  0  0  0  0  0  0  0  0
  129.3464  125.7392   61.7096 H   0  0  0  0  0  0  0  0  0  0  0  0
  128.3227  123.6755   62.8716 H   0  0  0  0  0  0  0  0  0  0  0  0
  129.0638  123.5070   61.1759 H   0  0  0  0  0  0  0  0  0  0  0  0
  129.5705  121.5293   62.2964 H   0  0  0  0  0  0  0  0  0  0  0  0
  131.0746  122.5994   62.2981 H   0  0  0  0  0  0  0  0  0  0  0  0
  129.8196  121.2626   64.4885 H   0  0  0  0  0  0  0  0  0  0  0  0
  131.3098  122.3285   64.4212 H   0  0  0  0  0  0  0  0  0  0  0  0
  128.4891  123.3832   64.7284 H   0  0  0  0  0  0  0  0  0  0  0  0
  129.6620  122.9871   66.1072 H   0  0  0  0  0  0  0  0  0  0  0  0
  129.8056  125.2649   65.9292 H   0  0  0  0  0  0  0  0  0  0  0  0
  131.2152  124.5871   64.9244 H   0  0  0  0  0  0  0  0  0  0  0  0
  128.6601  125.7521   63.8883 H   0  0  0  0  0  0  0  0  0  0  0  0
  129.8680  127.7190   64.1430 H   0  0  0  0  0  0  0  0  0  0  0  0
  130.9760  127.1890   63.0520 H   0  0  0  0  0  0  0  0  0  0  0  0
  131.2060  126.9140   64.6550 H   0  0  0  0  0  0  0  0  0  0  0  0
  132.2984  121.4645   61.0380 H   0  0  0  0  0  0  0  0  0  0  0  0
  133.8498  121.4487   60.4350 H   0  0  0  0  0  0  0  0  0  0  0  0
  132.8516  122.4606   63.2308 H   0  0  0  0  0  0  0  0  0  0  0  0
  134.4307  121.9774   63.0157 H   0  0  0  0  0  0  0  0  0  0  0  0
  133.5084  124.7434   62.5501 H   0  0  0  0  0  0  0  0  0  0  0  0
  134.9072  124.3136   61.7552 H   0  0  0  0  0  0  0  0  0  0  0  0
  1  2  3  0
  2  3  1  0
  3  4  1  0
  4  5  1  0
  5  6  2  0
  5  7  1  0
  7  8  1  0
  8  9  1  0
  9 10  1  0
 10 11  1  0
 11 12  1  0
 12 13  1  0
 13 14  1  0
  3 15  1  0
 15 16  1  0
 16 17  1  0
 17  3  1  0
 13  7  1  0
  1 18  1  0
  7 19  1  6
  8 20  1  0
  8 21  1  0
  9 22  1  0
  9 23  1  0
 10 24  1  0
 10 25  1  0
 11 26  1  0
 11 27  1  0
 12 28  1  0
 12 29  1  0
 13 30  1  1
 14 31  1  0
 14 32  1  0
 14 33  1  0
 15 34  1  0
 15 35  1  0
 16 36  1  0
 16 37  1  0
 17 38  1  0
 17 39  1  0
M  CHG  1  14   1
M  END
>  <Binding energies>  (1) 
[-4.29]

>  <Ligand effiencies>  (1) 
[-0.195]

>  <Interactions>  (1) 
["V-A:ILE:369:CG2:3237, V-A:ASP:366:CA:3210, V-A:ILE:369:CD1:3239, V-A:GLY:454:CA:4049, V-A:ASP:366:C:3208, H-A:GLU:543:OE2:4910, V-A:ILE:369:CB:3236, V-B:GLU:543:CB:9878, V-B:GLU:543:CD:9880, V-B:ALA:541:CB:9864, V-B:TYR:539:CE2:9848, V-A:TYR:484:CE2:4346, V-A:ASP:366:CB:3212, V-A:GLU:543:CD:4908, V-A:LEU:475:CD2:4259, H-A:ARG:545:NH2:4928, V-B:GLU:543:CG:9879, H-A:GLU:543:OE1:4909"]

$$$$
ZINC1908077509
     RDKit          3D

 43 45  0  0  0  0  0  0  0  0999 V2000
  133.8880  124.5730   62.4850 C   0  0  0  0  0  0  0  0  0  0  0  0
  132.6890  124.5670   63.4650 C   0  0  0  0  0  0  0  0  0  0  0  0
  133.2230  124.9090   64.8840 C   0  0  0  0  0  0  0  0  0  0  0  0
  131.5130  125.4480   62.9740 C   0  0  2  0  0  0  0  0  0  0  0  0
  130.9730  126.5920   63.8550 N   0  0  0  0  0  0  0  0  0  0  0  0
  129.5460  126.1880   64.2430 C   0  0  0  0  0  0  0  0  0  0  0  0
  129.6330  124.6720   64.3510 C   0  0  0  0  0  0  0  0  0  0  0  0
  130.5420  124.2800   63.1760 C   0  0  2  0  0  0  0  0  0  0  0  0
  131.7370  123.3130   63.4080 C   0  0  2  0  0  0  0  0  0  0  0  0
  131.6780  122.5160   64.5830 O   0  0  0  0  0  0  0  0  0  0  0  0
  131.9420  122.3600   62.1920 C   0  0  0  0  0  0  0  0  0  0  0  0
  130.7300  122.2420   61.2400 C   0  0  0  0  0  0  0  0  0  0  0  0
  130.0220  120.8770   61.3370 C   0  0  0  0  0  0  0  0  0  0  0  0
  130.8930  119.6810   60.9070 C   0  0  0  0  0  0  0  0  0  0  0  0
  130.3430  118.3140   61.3510 C   0  0  1  0  0  0  0  0  0  0  0  0
  130.1990  117.2220   60.3420 C   0  0  0  0  0  0  0  0  0  0  0  0
  131.2230  117.2210   61.3080 O   0  0  0  0  0  0  0  0  0  0  0  0
  134.8282  124.5777   63.0560 H   0  0  0  0  0  0  0  0  0  0  0  0
  133.8482  123.6746   61.8515 H   0  0  0  0  0  0  0  0  0  0  0  0
  133.8392  125.4709   61.8515 H   0  0  0  0  0  0  0  0  0  0  0  0
  132.5516  124.4790   65.6419 H   0  0  0  0  0  0  0  0  0  0  0  0
  134.2320  124.4887   65.0072 H   0  0  0  0  0  0  0  0  0  0  0  0
  133.2633  126.0013   65.0072 H   0  0  0  0  0  0  0  0  0  0  0  0
  131.7193  125.9881   62.0382 H   0  0  0  0  0  0  0  0  0  0  0  0
  131.5370  126.6830   64.6880 H   0  0  0  0  0  0  0  0  0  0  0  0
  130.9870  127.4880   63.3870 H   0  0  0  0  0  0  0  0  0  0  0  0
  129.2565  126.6363   65.2049 H   0  0  0  0  0  0  0  0  0  0  0  0
  128.7893  126.5270   63.5202 H   0  0  0  0  0  0  0  0  0  0  0  0
  130.0790  124.3712   65.3105 H   0  0  0  0  0  0  0  0  0  0  0  0
  128.6486  124.1827   64.3127 H   0  0  0  0  0  0  0  0  0  0  0  0
  129.7950  123.9157   62.4554 H   0  0  0  0  0  0  0  0  0  0  0  0
  131.7830  123.0880   65.3460 H   0  0  0  0  0  0  0  0  0  0  0  0
  132.7983  122.7304   61.6093 H   0  0  0  0  0  0  0  0  0  0  0  0
  132.1000  121.3560   62.6128 H   0  0  0  0  0  0  0  0  0  0  0  0
  130.0068  123.0313   61.4930 H   0  0  0  0  0  0  0  0  0  0  0  0
  131.1066  122.3462   60.2117 H   0  0  0  0  0  0  0  0  0  0  0  0
  129.7143  120.7216   62.3816 H   0  0  0  0  0  0  0  0  0  0  0  0
  129.1700  120.9131   60.6422 H   0  0  0  0  0  0  0  0  0  0  0  0
  130.9671  119.6840   59.8095 H   0  0  0  0  0  0  0  0  0  0  0  0
  131.8694  119.8057   61.3980 H   0  0  0  0  0  0  0  0  0  0  0  0
  129.6791  118.7787   62.0948 H   0  0  0  0  0  0  0  0  0  0  0  0
  129.3672  116.5057   60.4127 H   0  0  0  0  0  0  0  0  0  0  0  0
  130.1470  117.1611   59.2449 H   0  0  0  0  0  0  0  0  0  0  0  0
  1  2  1  0
  2  3  1  0
  2  4  1  0
  4  5  1  0
  5  6  1  0
  6  7  1  0
  7  8  1  0
  8  9  1  0
  9 10  1  1
  9 11  1  0
 11 12  1  0
 12 13  1  0
 13 14  1  0
 14 15  1  0
 15 16  1  0
 16 17  1  0
  9  2  1  0
 17 15  1  0
  8  4  1  0
  1 18  1  0
  1 19  1  0
  1 20  1  0
  3 21  1  0
  3 22  1  0
  3 23  1  0
  4 24  1  6
  5 25  1  0
  5 26  1  0
  6 27  1  0
  6 28  1  0
  7 29  1  0
  7 30  1  0
  8 31  1  6
 10 32  1  0
 11 33  1  0
 11 34  1  0
 12 35  1  0
 12 36  1  0
 13 37  1  0
 13 38  1  0
 14 39  1  0
 14 40  1  0
 15 41  1  1
 16 42  1  0
 16 43  1  0
M  CHG  1   5   1
M  END
>  <Binding energies>  (1) 
[-7.11]

>  <Ligand effiencies>  (1) 
[-0.35550000000000004]

>  <Interactions>  (1) 
["H-A:GLU:543:OE2:4910, V-B:ALA:541:CB:9864, V-B:TYR:539:CE2:9848, V-A:LEU:475:CG:4257, V-B:GLU:543:CG:9879, V-B:TYR:539:C:9839, V-B:VAL:344:CG1:7972, V-B:TYR:539:CB:9843, V-A:HIS:383:CE1:3393, V-A:GLU:543:CD:4908, V-B:TYR:539:CD2:9846, H-A:SER:385:OG:3410, V-B:GLU:543:CD:9880, V-A:LEU:475:CD2:4259, V-A:ARG:545:CZ:4926, H-A:GLU:543:OE1:4909, H-A:HIS:383:HE2:3395, V-A:HIS:383:NE2:3394, H-A:TYR:484:OH:4348"]

$$$$
ZINC1909854085
     RDKit          3D

 43 44  0  0  0  0  0  0  0  0999 V2000
  131.6960  133.2970   57.0680 C   0  0  0  0  0  0  0  0  0  0  0  0
  130.3030  133.3520   57.3370 O   0  0  0  0  0  0  0  0  0  0  0  0
  129.9060  132.5640   58.4530 C   0  0  0  0  0  0  0  0  0  0  0  0
  130.9900  131.5070   58.7850 C   0  0  1  0  0  0  0  0  0  0  0  0
  130.8610  130.9840   60.2470 C   0  0  0  0  0  0  0  0  0  0  0  0
  130.6700  132.0490   61.3600 C   0  0  2  0  0  0  0  0  0  0  0  0
  131.7010  131.9030   62.3230 O   0  0  0  0  0  0  0  0  0  0  0  0
  129.2500  131.9840   62.0010 C   0  0  1  0  0  0  0  0  0  0  0  0
  128.8600  130.6030   62.5990 C   0  0  0  0  0  0  0  0  0  0  0  0
  128.3810  130.6640   64.0590 C   0  0  0  0  0  0  0  0  0  0  0  0
  127.3960  131.6810   64.1750 O   0  0  0  0  0  0  0  0  0  0  0  0
  127.9430  132.9910   64.0610 C   0  0  0  0  0  0  0  0  0  0  0  0
  128.7320  133.2100   62.7500 C   0  0  2  0  0  0  0  0  0  0  0  0
  128.1030  132.8240   61.4360 C   0  0  0  0  0  0  0  0  0  0  0  0
  131.0540  130.3570   57.7280 C   0  0  0  0  0  0  0  0  0  0  0  0
  129.6960  130.0290   57.0710 C   0  0  0  0  0  0  0  0  0  0  0  0
  131.7240  129.0770   58.2700 C   0  0  0  0  0  0  0  0  0  0  0  0
  132.2521  133.2750   58.0168 H   0  0  0  0  0  0  0  0  0  0  0  0
  131.9221  132.3892   56.4894 H   0  0  0  0  0  0  0  0  0  0  0  0
  131.9930  134.1841   56.4894 H   0  0  0  0  0  0  0  0  0  0  0  0
  129.7600  133.2188   59.3247 H   0  0  0  0  0  0  0  0  0  0  0  0
  128.9677  132.0456   58.2064 H   0  0  0  0  0  0  0  0  0  0  0  0
  131.9622  132.0177   58.7220 H   0  0  0  0  0  0  0  0  0  0  0  0
  129.9945  130.3073   60.2825 H   0  0  0  0  0  0  0  0  0  0  0  0
  131.8283  130.5090   60.4678 H   0  0  0  0  0  0  0  0  0  0  0  0
  130.7431  133.0503   60.9104 H   0  0  0  0  0  0  0  0  0  0  0  0
  131.5580  131.0820   62.8000 H   0  0  0  0  0  0  0  0  0  0  0  0
  128.0507  130.1778   61.9873 H   0  0  0  0  0  0  0  0  0  0  0  0
  129.7697  129.9846   62.5891 H   0  0  0  0  0  0  0  0  0  0  0  0
  127.9475  129.6948   64.3468 H   0  0  0  0  0  0  0  0  0  0  0  0
  129.2297  130.8880   64.7220 H   0  0  0  0  0  0  0  0  0  0  0  0
  127.1187  133.7184   64.0985 H   0  0  0  0  0  0  0  0  0  0  0  0
  128.6496  133.1235   64.8935 H   0  0  0  0  0  0  0  0  0  0  0  0
  129.1840  134.1319   63.1448 H   0  0  0  0  0  0  0  0  0  0  0  0
  127.0819  132.4155   61.4152 H   0  0  0  0  0  0  0  0  0  0  0  0
  127.9169  133.3417   60.4835 H   0  0  0  0  0  0  0  0  0  0  0  0
  131.6969  130.7619   56.9325 H   0  0  0  0  0  0  0  0  0  0  0  0
  128.9445  129.8475   57.8535 H   0  0  0  0  0  0  0  0  0  0  0  0
  129.3771  130.8759   56.4457 H   0  0  0  0  0  0  0  0  0  0  0  0
  129.7988  129.1299   56.4457 H   0  0  0  0  0  0  0  0  0  0  0  0
  131.7143  129.0956   59.3698 H   0  0  0  0  0  0  0  0  0  0  0  0
  131.1719  128.1950   57.9133 H   0  0  0  0  0  0  0  0  0  0  0  0
  132.7634  129.0280   57.9133 H   0  0  0  0  0  0  0  0  0  0  0  0
  1  2  1  0
  2  3  1  0
  3  4  1  0
  4  5  1  0
  5  6  1  0
  6  7  1  0
  6  8  1  0
  8  9  1  1
  9 10  1  0
 10 11  1  0
 11 12  1  0
 12 13  1  0
 13 14  1  0
  4 15  1  0
 15 16  1  0
 15 17  1  0
 13  8  1  0
 14  8  1  0
  1 18  1  0
  1 19  1  0
  1 20  1  0
  3 21  1  0
  3 22  1  0
  4 23  1  1
  5 24  1  0
  5 25  1  0
  6 26  1  6
  7 27  1  0
  9 28  1  0
  9 29  1  0
 10 30  1  0
 10 31  1  0
 12 32  1  0
 12 33  1  0
 13 34  1  6
 14 35  1  0
 14 36  1  0
 15 37  1  0
 16 38  1  0
 16 39  1  0
 16 40  1  0
 17 41  1  0
 17 42  1  0
 17 43  1  0
M  END
>  <Binding energies>  (1) 
[-5.32]

>  <Ligand effiencies>  (1) 
[-0.29555555555555557]

>  <Interactions>  (1) 
["V-A:PRO:540:CG:4886, H-A:ALA:541:N:4891, V-A:PRO:540:C:4881, V-A:ILE:538:CB:4862, H-A:ALA:541:O:4889, V-B:LEU:475:CD2:9230, V-A:ASP:366:CG:3213, V-A:LEU:363:CD1:3189, V-B:TYR:484:CE2:9317, V-A:ALA:541:CB:4892, V-A:GLU:543:CD:4908, H-B:TYR:484:OH:9319, V-A:ALA:541:CA:4890, V-A:GLU:543:CG:4907, V-A:MET:535:CE:4835, V-A:TYR:539:C:4867, V-A:ASP:366:CB:3212, H-A:GLU:543:OE1:4909, V-A:PRO:540:N:4884, H-A:TYR:539:N:4870, V-A:PRO:540:CB:4885, V-A:PRO:540:CA:4883, V-A:PRO:540:CD:4887"]

$$$$
ZINC1918578611
     RDKit          3D

 28 29  0  0  0  0  0  0  0  0999 V2000
  130.4090  133.3490   56.8450 F   0  0  0  0  0  0  0  0  0  0  0  0
  129.7960  132.5880   57.7530 C   0  0  0  0  0  0  0  0  0  0  0  0
  129.3190  133.4020   58.6980 F   0  0  0  0  0  0  0  0  0  0  0  0
  128.7490  132.0220   57.1490 F   0  0  0  0  0  0  0  0  0  0  0  0
  130.7630  131.5270   58.3300 C   0  0  1  0  0  0  0  0  0  0  0  0
  132.2600  131.8390   58.0460 C   0  0  0  0  0  0  0  0  0  0  0  0
  133.2450  131.0920   58.9590 C   0  0  0  0  0  0  0  0  0  0  0  0
  133.0420  131.5480   60.7140 S   0  0  0  0  0  0  0  0  0  0  0  0
  131.2610  131.8160   60.8230 C   0  0  0  0  0  0  0  0  0  0  0  0
  130.7890  132.2950   61.9100 N   0  0  0  0  0  0  0  0  0  0  0  0
  129.3520  132.4430   62.0800 C   0  0  0  0  0  0  0  0  0  0  0  0
  128.8090  131.2940   62.9160 C   0  0  0  0  0  0  0  0  0  0  0  0
  128.3630  130.0170   62.5510 C   0  0  0  0  0  0  0  0  0  0  0  0
  127.9370  129.2230   63.6190 C   0  0  0  0  0  0  0  0  0  0  0  0
  128.0430  129.8690   64.8350 C   0  0  0  0  0  0  0  0  0  0  0  0
  127.5940  129.2010   66.5580 Br  0  0  0  0  0  0  0  0  0  0  0  0
  128.6730  131.4700   64.6470 S   0  0  0  0  0  0  0  0  0  0  0  0
  130.4980  131.3430   59.7620 N   0  0  0  0  0  0  0  0  0  0  0  0
  130.5675  130.5793   57.8069 H   0  0  0  0  0  0  0  0  0  0  0  0
  132.4781  131.5621   57.0040 H   0  0  0  0  0  0  0  0  0  0  0  0
  132.4010  132.9123   58.2411 H   0  0  0  0  0  0  0  0  0  0  0  0
  133.0758  130.0103   58.8524 H   0  0  0  0  0  0  0  0  0  0  0  0
  134.2646  131.3703   58.6541 H   0  0  0  0  0  0  0  0  0  0  0  0
  129.1409  133.3955   62.5882 H   0  0  0  0  0  0  0  0  0  0  0  0
  128.8674  132.4333   61.0925 H   0  0  0  0  0  0  0  0  0  0  0  0
  128.3493  129.6677   61.5080 H   0  0  0  0  0  0  0  0  0  0  0  0
  127.5589  128.1965   63.5039 H   0  0  0  0  0  0  0  0  0  0  0  0
  129.5350  131.1000   59.9430 H   0  0  0  0  0  0  0  0  0  0  0  0
  1  2  1  0
  2  3  1  0
  2  4  1  0
  2  5  1  0
  5  6  1  0
  6  7  1  0
  7  8  1  0
  8  9  1  0
  9 10  2  0
 10 11  1  0
 11 12  1  0
 12 13  2  0
 13 14  1  0
 14 15  2  0
 15 16  1  0
 15 17  1  0
  9 18  1  0
 18  5  1  0
 17 12  1  0
  5 19  1  6
  6 20  1  0
  6 21  1  0
  7 22  1  0
  7 23  1  0
 11 24  1  0
 11 25  1  0
 13 26  1  0
 14 27  1  0
 18 28  1  0
M  END
>  <Binding energies>  (1) 
[-5.12]

>  <Ligand effiencies>  (1) 
[-0.2694736842105263]

>  <Interactions>  (1) 
["V-A:ILE:538:C:4858, H-A:ALA:541:N:4891, V-A:ILE:538:CB:4862, V-A:ASP:366:CG:3213, V-A:LEU:363:CD1:3189, V-A:TYR:539:CD1:4873, V-B:TYR:484:CE2:9317, V-A:ILE:538:CA:4860, V-A:ALA:541:CB:4892, V-A:TYR:539:CA:4869, V-A:GLU:543:CD:4908, V-B:HIS:456:CE1:9041, V-B:TYR:484:CZ:9318, V-A:GLU:543:CG:4907, V-A:MET:535:CE:4835, V-A:TYR:539:C:4867, V-A:ASP:366:CB:3212, V-A:PRO:540:N:4884, V-A:PRO:540:CB:4885, V-A:PRO:540:CA:4883, V-A:LEU:363:CA:3185, V-A:PRO:540:CD:4887"]

$$$$
ZINC1918578611-again1
     RDKit          3D

 28 29  0  0  0  0  0  0  0  0999 V2000
  128.2950  122.4010   62.8120 F   0  0  0  0  0  0  0  0  0  0  0  0
  129.4690  122.1000   62.2570 C   0  0  0  0  0  0  0  0  0  0  0  0
  129.4710  120.7830   62.0370 F   0  0  0  0  0  0  0  0  0  0  0  0
  129.5050  122.7080   61.0700 F   0  0  0  0  0  0  0  0  0  0  0  0
  130.6500  122.5340   63.1610 C   0  0  1  0  0  0  0  0  0  0  0  0
  132.0140  122.5350   62.4000 C   0  0  0  0  0  0  0  0  0  0  0  0
  133.1830  123.0490   63.2570 C   0  0  0  0  0  0  0  0  0  0  0  0
  132.8660  124.7860   63.6380 S   0  0  0  0  0  0  0  0  0  0  0  0
  131.1970  124.5850   64.2650 C   0  0  0  0  0  0  0  0  0  0  0  0
  130.8310  125.7440   64.9340 N   0  0  0  0  0  0  0  0  0  0  0  0
  129.4750  126.2900   65.0110 C   0  0  0  0  0  0  0  0  0  0  0  0
  129.1100  126.8990   66.3560 C   0  0  0  0  0  0  0  0  0  0  0  0
  128.4240  128.0860   66.6120 C   0  0  0  0  0  0  0  0  0  0  0  0
  128.2340  128.3630   67.9690 C   0  0  0  0  0  0  0  0  0  0  0  0
  128.7580  127.3820   68.7890 C   0  0  0  0  0  0  0  0  0  0  0  0
  128.7470  127.3160   70.6900 Br  0  0  0  0  0  0  0  0  0  0  0  0
  129.4820  126.1080   67.8700 S   0  0  0  0  0  0  0  0  0  0  0  0
  130.2930  123.7810   63.8530 N   0  0  0  0  0  0  0  0  0  0  0  0
  130.8232  121.7867   63.9494 H   0  0  0  0  0  0  0  0  0  0  0  0
  132.2386  121.5060   62.0827 H   0  0  0  0  0  0  0  0  0  0  0  0
  131.9109  123.2171   61.5432 H   0  0  0  0  0  0  0  0  0  0  0  0
  133.2482  122.4674   64.1884 H   0  0  0  0  0  0  0  0  0  0  0  0
  134.1337  122.9419   62.7141 H   0  0  0  0  0  0  0  0  0  0  0  0
  131.5180  126.2220   65.4980 H   0  0  0  0  0  0  0  0  0  0  0  0
  129.3762  127.0714   64.2431 H   0  0  0  0  0  0  0  0  0  0  0  0
  128.7901  125.4430   64.8576 H   0  0  0  0  0  0  0  0  0  0  0  0
  128.0624  128.7493   65.8124 H   0  0  0  0  0  0  0  0  0  0  0  0
  127.7236  129.2628   68.3428 H   0  0  0  0  0  0  0  0  0  0  0  0
  1  2  1  0
  2  3  1  0
  2  4  1  0
  2  5  1  0
  5  6  1  0
  6  7  1  0
  7  8  1  0
  8  9  1  0
  9 10  1  0
 10 11  1  0
 11 12  1  0
 12 13  2  0
 13 14  1  0
 14 15  2  0
 15 16  1  0
 15 17  1  0
  9 18  2  0
 18  5  1  0
 17 12  1  0
  5 19  1  1
  6 20  1  0
  6 21  1  0
  7 22  1  0
  7 23  1  0
 10 24  1  0
 11 25  1  0
 11 26  1  0
 13 27  1  0
 14 28  1  0
M  END
>  <Binding energies>  (1) 
[-5.17]

>  <Ligand effiencies>  (1) 
[-0.27210526315789474]

>  <Interactions>  (1) 
["V-A:HIS:456:CE1:4070, V-A:GLY:454:CA:4049, H-A:GLU:543:OE2:4910, V-B:GLU:543:CB:9878, V-A:GLU:543:CG:4907, V-B:PRO:540:C:9853, V-B:ALA:541:CB:9864, V-B:GLU:543:CD:9880, V-A:GLU:543:CD:4908, V-B:ALA:541:CA:9862, V-A:LEU:475:CD2:4259, H-A:ARG:545:NH2:4928, V-B:GLU:543:CG:9879, H-A:GLU:543:OE1:4909, V-B:HIS:456:CE1:9041, V-A:GLU:543:CB:4906"]

$$$$
ZINC1921111299
     RDKit          3D

 60 62  0  0  0  0  0  0  0  0999 V2000
  132.5120  124.2150   61.4570 C   0  0  0  0  0  0  0  0  0  0  0  0
  133.5660  123.8160   62.5170 C   0  0  0  0  0  0  0  0  0  0  0  0
  134.8260  124.7100   62.4140 C   0  0  0  0  0  0  0  0  0  0  0  0
  133.9660  122.3410   62.3070 C   0  0  0  0  0  0  0  0  0  0  0  0
  133.0150  123.8440   63.8460 O   0  0  0  0  0  0  0  0  0  0  0  0
  133.2230  124.8280   64.7750 C   0  0  0  0  0  0  0  0  0  0  0  0
  134.3110  125.0870   65.2880 O   0  0  0  0  0  0  0  0  0  0  0  0
  132.0460  125.5080   65.0830 N   0  0  0  0  0  0  0  0  0  0  0  0
  130.7350  125.2830   64.4630 C   0  0  2  0  0  0  0  0  0  0  0  0
  130.3640  123.7960   64.2280 C   0  0  0  0  0  0  0  0  0  0  0  0
  129.0230  123.6150   63.4910 C   0  0  0  0  0  0  0  0  0  0  0  0
  128.9730  124.3690   62.1320 C   0  0  1  0  0  0  0  0  0  0  0  0
  127.6930  124.0620   61.2400 C   0  0  2  0  0  0  0  0  0  0  0  0
  126.8790  125.3620   60.9590 C   0  0  0  0  0  0  0  0  0  0  0  0
  126.7810  123.2770   61.9940 O   0  0  0  0  0  0  0  0  0  0  0  0
  128.0340  123.3710   59.8480 C   0  0  2  0  0  0  0  0  0  0  0  0
  128.9100  122.2090   60.1360 C   0  0  0  0  0  0  0  0  0  0  0  0
  129.5920  121.3010   60.3620 N   0  0  0  0  0  0  0  0  0  0  0  0
  128.7790  124.2960   58.8270 C   0  0  0  0  0  0  0  0  0  0  0  0
  128.0120  124.1080   57.5000 C   0  0  2  0  0  0  0  0  0  0  0  0
  126.6570  124.8380   57.5720 C   0  0  0  0  0  0  0  0  0  0  0  0
  125.8430  123.9330   58.5140 C   0  0  0  0  0  0  0  0  0  0  0  0
  126.8720  122.8500   58.9290 C   0  0  1  0  0  0  0  0  0  0  0  0
  127.5830  122.6500   57.5870 C   0  0  0  0  0  0  0  0  0  0  0  0
  129.1730  125.8700   62.4900 C   0  0  0  0  0  0  0  0  0  0  0  0
  130.5150  126.1450   63.1970 C   0  0  0  0  0  0  0  0  0  0  0  0
  131.5977  124.5611   61.9612 H   0  0  0  0  0  0  0  0  0  0  0  0
  132.9124  125.0238   60.8281 H   0  0  0  0  0  0  0  0  0  0  0  0
  132.2765  123.3438   60.8281 H   0  0  0  0  0  0  0  0  0  0  0  0
  135.1806  124.9616   63.4244 H   0  0  0  0  0  0  0  0  0  0  0  0
  135.6160  124.1693   61.8722 H   0  0  0  0  0  0  0  0  0  0  0  0
  134.5765  125.6342   61.8722 H   0  0  0  0  0  0  0  0  0  0  0  0
  134.0980  121.8542   63.2845 H   0  0  0  0  0  0  0  0  0  0  0  0
  133.1758  121.8235   61.7434 H   0  0  0  0  0  0  0  0  0  0  0  0
  134.9094  122.2936   61.7434 H   0  0  0  0  0  0  0  0  0  0  0  0
  132.1090  126.2580   65.7570 H   0  0  0  0  0  0  0  0  0  0  0  0
  130.0219  125.6294   65.2255 H   0  0  0  0  0  0  0  0  0  0  0  0
  131.1586  123.3278   63.6285 H   0  0  0  0  0  0  0  0  0  0  0  0
  130.2605  123.3244   65.2164 H   0  0  0  0  0  0  0  0  0  0  0  0
  128.8677  122.5423   63.3032 H   0  0  0  0  0  0  0  0  0  0  0  0
  128.2346  124.0367   64.1317 H   0  0  0  0  0  0  0  0  0  0  0  0
  129.7693  124.0147   61.4608 H   0  0  0  0  0  0  0  0  0  0  0  0
  126.5884  125.8261   61.9130 H   0  0  0  0  0  0  0  0  0  0  0  0
  127.4984  126.0651   60.3829 H   0  0  0  0  0  0  0  0  0  0  0  0
  125.9760  125.1118   60.3829 H   0  0  0  0  0  0  0  0  0  0  0  0
  126.4340  123.8180   62.7080 H   0  0  0  0  0  0  0  0  0  0  0  0
  128.7392  125.3458   59.1532 H   0  0  0  0  0  0  0  0  0  0  0  0
  129.8447  124.0403   58.7328 H   0  0  0  0  0  0  0  0  0  0  0  0
  128.6087  124.4333   56.6351 H   0  0  0  0  0  0  0  0  0  0  0  0
  126.7713  125.8485   57.9914 H   0  0  0  0  0  0  0  0  0  0  0  0
  126.1853  124.9866   56.5894 H   0  0  0  0  0  0  0  0  0  0  0  0
  125.4842  124.4940   59.3895 H   0  0  0  0  0  0  0  0  0  0  0  0
  124.9401  123.5166   58.0434 H   0  0  0  0  0  0  0  0  0  0  0  0
  126.3720  122.0176   59.4458 H   0  0  0  0  0  0  0  0  0  0  0  0
  128.4288  121.9488   57.6415 H   0  0  0  0  0  0  0  0  0  0  0  0
  127.0175  122.2153   56.7496 H   0  0  0  0  0  0  0  0  0  0  0  0
  129.1379  126.4597   61.5621 H   0  0  0  0  0  0  0  0  0  0  0  0
  128.3695  126.1530   63.1859 H   0  0  0  0  0  0  0  0  0  0  0  0
  131.3305  125.9373   62.4886 H   0  0  0  0  0  0  0  0  0  0  0  0
  130.5002  127.1962   63.5205 H   0  0  0  0  0  0  0  0  0  0  0  0
  1  2  1  0
  2  3  1  0
  2  4  1  0
  2  5  1  0
  5  6  1  0
  6  7  2  0
  6  8  1  0
  8  9  1  0
  9 10  1  0
 10 11  1  0
 11 12  1  0
 12 13  1  0
 13 14  1  0
 13 15  1  1
 13 16  1  0
 16 17  1  1
 17 18  3  0
 16 19  1  0
 19 20  1  0
 20 21  1  0
 21 22  1  0
 22 23  1  0
 23 24  1  0
 12 25  1  0
 25 26  1  0
 26  9  1  0
 23 16  1  0
 24 20  1  0
  1 27  1  0
  1 28  1  0
  1 29  1  0
  3 30  1  0
  3 31  1  0
  3 32  1  0
  4 33  1  0
  4 34  1  0
  4 35  1  0
  8 36  1  0
  9 37  1  6
 10 38  1  0
 10 39  1  0
 11 40  1  0
 11 41  1  0
 12 42  1  1
 14 43  1  0
 14 44  1  0
 14 45  1  0
 15 46  1  0
 19 47  1  0
 19 48  1  0
 20 49  1  6
 21 50  1  0
 21 51  1  0
 22 52  1  0
 22 53  1  0
 23 54  1  1
 24 55  1  0
 24 56  1  0
 25 57  1  0
 25 58  1  0
 26 59  1  0
 26 60  1  0
M  END
>  <Binding energies>  (1) 
[-8.86]

>  <Ligand effiencies>  (1) 
[-0.3164285714285714]

>  <Interactions>  (1) 
["V-B:PRO:540:CA:9855, V-A:GLY:454:CA:4049, H-A:GLU:543:OE2:4910, H-A:ARG:545:NH1:4927, V-B:TYR:539:CE2:9848, V-B:GLU:543:CG:9879, V-B:TYR:539:C:9839, V-A:ASP:366:CG:3213, V-B:TYR:539:CZ:9849, H-B:GLU:543:OE1:9881, H-B:ALA:541:N:9863, V-A:GLU:543:CD:4908, V-B:PRO:540:CB:9857, H-A:GLY:454:N:4050, V-A:GLY:453:C:4042, V-B:PRO:540:N:9856, V-A:ILE:369:CD1:3239, V-B:TYR:539:CD2:9846, V-B:GLU:543:CD:9880, V-A:LEU:475:CD2:4259, H-A:ARG:545:NH2:4928, V-A:ARG:545:CZ:4926, H-A:GLU:543:OE1:4909, V-B:TYR:539:CG:9844, V-B:TYR:539:CD1:9845, V-A:GLY:453:CA:4044, H-A:ARG:545:NE:4924, V-B:TYR:539:CE1:9847, H-A:TYR:484:OH:4348"]

$$$$
ZINC1922999443
     RDKit          3D

 38 37  0  0  0  0  0  0  0  0999 V2000
  129.3720  122.1250   64.7570 C   0  0  0  0  0  0  0  0  0  0  0  0
  129.3320  123.1970   63.9400 C   0  0  0  0  0  0  0  0  0  0  0  0
  128.5710  123.2020   62.6090 C   0  0  2  0  0  0  0  0  0  0  0  0
  127.1760  123.0670   62.8260 O   0  0  0  0  0  0  0  0  0  0  0  0
  129.0480  122.1390   61.5920 C   0  0  0  0  0  0  0  0  0  0  0  0
  128.4730  122.2870   60.1710 C   0  0  0  0  0  0  0  0  0  0  0  0
  127.8200  123.5450   60.0720 O   0  0  0  0  0  0  0  0  0  0  0  0
  126.7090  123.5480   59.1800 C   0  0  0  0  0  0  0  0  0  0  0  0
  125.4610  124.1400   59.8580 C   0  0  0  0  0  0  0  0  0  0  0  0
  125.7830  124.6380   61.2730 N   0  0  0  0  0  0  0  0  0  0  0  0
  130.2380  124.7710   64.4740 Si  0  0  0  0  0  4  0  0  0  0  0  0
  129.4870  126.2960   63.6590 C   0  0  0  0  0  0  0  0  0  0  0  0
  130.1140  124.9920   66.3420 C   0  0  0  0  0  0  0  0  0  0  0  0
  132.0710  124.7260   64.0230 C   0  0  0  0  0  0  0  0  0  0  0  0
  129.9332  122.1742   65.7018 H   0  0  0  0  0  0  0  0  0  0  0  0
  128.8434  121.2014   64.4787 H   0  0  0  0  0  0  0  0  0  0  0  0
  128.7935  124.1797   62.1567 H   0  0  0  0  0  0  0  0  0  0  0  0
  126.8360  123.9070   63.1430 H   0  0  0  0  0  0  0  0  0  0  0  0
  130.1441  122.2009   61.5238 H   0  0  0  0  0  0  0  0  0  0  0  0
  128.6854  121.1713   61.9689 H   0  0  0  0  0  0  0  0  0  0  0  0
  129.2884  122.2343   59.4345 H   0  0  0  0  0  0  0  0  0  0  0  0
  127.7569  121.4765   59.9704 H   0  0  0  0  0  0  0  0  0  0  0  0
  126.9591  124.1524   58.2956 H   0  0  0  0  0  0  0  0  0  0  0  0
  126.4907  122.5103   58.8876 H   0  0  0  0  0  0  0  0  0  0  0  0
  125.0914  124.9833   59.2561 H   0  0  0  0  0  0  0  0  0  0  0  0
  124.6970  123.3520   59.9311 H   0  0  0  0  0  0  0  0  0  0  0  0
  125.4130  124.0000   61.9630 H   0  0  0  0  0  0  0  0  0  0  0  0
  125.3720  125.5500   61.4180 H   0  0  0  0  0  0  0  0  0  0  0  0
  126.7830  124.7100   61.3990 H   0  0  0  0  0  0  0  0  0  0  0  0
  129.1428  126.9948   64.4356 H   0  0  0  0  0  0  0  0  0  0  0  0
  130.2457  126.7883   63.0329 H   0  0  0  0  0  0  0  0  0  0  0  0
  128.6342  125.9947   63.0329 H   0  0  0  0  0  0  0  0  0  0  0  0
  130.5927  124.1387   66.8447 H   0  0  0  0  0  0  0  0  0  0  0  0
  130.6217  125.9226   66.6356 H   0  0  0  0  0  0  0  0  0  0  0  0
  129.0552  125.0436   66.6356 H   0  0  0  0  0  0  0  0  0  0  0  0
  132.6746  124.7112   64.9425 H   0  0  0  0  0  0  0  0  0  0  0  0
  132.2811  123.8224   63.4319 H   0  0  0  0  0  0  0  0  0  0  0  0
  132.3252  125.6182   63.4319 H   0  0  0  0  0  0  0  0  0  0  0  0
  1  2  2  0
  2  3  1  0
  3  4  1  0
  3  5  1  0
  5  6  1  0
  6  7  1  0
  7  8  1  0
  8  9  1  0
  9 10  1  0
  2 11  1  0
 11 12  1  0
 11 13  1  0
 11 14  1  0
  1 15  1  0
  1 16  1  0
  3 17  1  6
  4 18  1  0
  5 19  1  0
  5 20  1  0
  6 21  1  0
  6 22  1  0
  8 23  1  0
  8 24  1  0
  9 25  1  0
  9 26  1  0
 10 27  1  0
 10 28  1  0
 10 29  1  0
 12 30  1  0
 12 31  1  0
 12 32  1  0
 13 33  1  0
 13 34  1  0
 13 35  1  0
 14 36  1  0
 14 37  1  0
 14 38  1  0
M  CHG  1  10   1
M  END
>  <Binding energies>  (1) 
[-4.58]

>  <Ligand effiencies>  (1) 
[-0.2544444444444445]

>  <Interactions>  (1) 
["V-B:PRO:540:CA:9855, H-B:GLU:543:OE2:9882, H-B:GLU:543:OE1:9881, V-B:GLU:543:CB:9878, V-B:TYR:539:CD2:9846, H-B:ALA:541:N:9863, V-B:PRO:540:C:9853, V-B:ALA:541:CB:9864, V-B:GLU:543:CD:9880, V-B:TYR:539:CE2:9848, V-A:TYR:484:CE2:4346, V-A:GLU:543:CD:4908, V-B:GLU:543:CG:9879, V-A:LEU:475:CD2:4259, V-B:PRO:540:CB:9857, H-B:ASP:366:OD1:8185, V-B:TYR:539:C:9839, V-B:PRO:540:N:9856"]

$$$$
ZINC1927827039
     RDKit          3D

 40 41  0  0  0  0  0  0  0  0999 V2000
  129.9380  120.7530   61.2230 C   0  0  0  0  0  0  0  0  0  0  0  0
  129.0320  121.7420   61.2330 C   0  0  0  0  0  0  0  0  0  0  0  0
  128.4090  122.3280   62.4880 C   0  0  0  0  0  0  0  0  0  0  0  0
  127.5610  123.4920   62.2610 N   0  0  0  0  0  0  0  0  0  0  0  0
  128.3220  124.7190   62.0370 C   0  0  0  0  0  0  0  0  0  0  0  0
  127.6360  125.6340   61.0050 C   0  0  0  0  0  0  0  0  0  0  0  0
  126.1550  125.2430   60.8310 N   0  0  0  0  0  0  0  0  0  0  0  0
  125.8180  124.3960   59.5820 C   0  0  2  0  0  0  0  0  0  0  0  0
  126.9680  123.4040   59.2430 C   0  0  0  0  0  0  0  0  0  0  0  0
  126.5290  122.7760   57.9230 C   0  0  2  0  0  0  0  0  0  0  0  0
  127.3030  122.3560   56.7690 C   0  0  0  0  0  0  0  0  0  0  0  0
  126.7460  123.8000   56.7900 C   0  0  1  0  0  0  0  0  0  0  0  0
  125.3840  124.5140   57.0150 C   0  0  0  0  0  0  0  0  0  0  0  0
  125.3710  125.3130   58.3740 C   0  0  2  0  0  0  0  0  0  0  0  0
  126.2340  126.5940   58.2290 C   0  0  0  0  0  0  0  0  0  0  0  0
  130.3404  120.3854   60.2675 H   0  0  0  0  0  0  0  0  0  0  0  0
  130.2786  120.3095   62.1703 H   0  0  0  0  0  0  0  0  0  0  0  0
  128.7182  122.1579   60.2642 H   0  0  0  0  0  0  0  0  0  0  0  0
  127.7983  121.5468   62.9642 H   0  0  0  0  0  0  0  0  0  0  0  0
  129.2432  122.6697   63.1184 H   0  0  0  0  0  0  0  0  0  0  0  0
  126.9420  123.6090   63.0510 H   0  0  0  0  0  0  0  0  0  0  0  0
  128.4127  125.2613   62.9897 H   0  0  0  0  0  0  0  0  0  0  0  0
  129.3120  124.4421   61.6455 H   0  0  0  0  0  0  0  0  0  0  0  0
  127.6962  126.6767   61.3502 H   0  0  0  0  0  0  0  0  0  0  0  0
  128.1476  125.5226   60.0376 H   0  0  0  0  0  0  0  0  0  0  0  0
  125.8850  124.7080   61.6440 H   0  0  0  0  0  0  0  0  0  0  0  0
  125.5950  126.0840   60.8200 H   0  0  0  0  0  0  0  0  0  0  0  0
  124.9471  123.7628   59.8069 H   0  0  0  0  0  0  0  0  0  0  0  0
  127.9232  123.9367   59.1251 H   0  0  0  0  0  0  0  0  0  0  0  0
  127.1342  122.6585   60.0346 H   0  0  0  0  0  0  0  0  0  0  0  0
  125.7781  122.1622   58.4420 H   0  0  0  0  0  0  0  0  0  0  0  0
  128.3853  122.1879   56.8706 H   0  0  0  0  0  0  0  0  0  0  0  0
  127.2317  121.5165   56.0618 H   0  0  0  0  0  0  0  0  0  0  0  0
  127.2055  124.5953   56.1847 H   0  0  0  0  0  0  0  0  0  0  0  0
  125.2061  125.2149   56.1861 H   0  0  0  0  0  0  0  0  0  0  0  0
  124.5946  123.7490   57.0556 H   0  0  0  0  0  0  0  0  0  0  0  0
  124.3435  125.6296   58.6062 H   0  0  0  0  0  0  0  0  0  0  0  0
  126.4921  126.9772   59.2273 H   0  0  0  0  0  0  0  0  0  0  0  0
  127.1558  126.3548   57.6785 H   0  0  0  0  0  0  0  0  0  0  0  0
  125.6660  127.3584   57.6785 H   0  0  0  0  0  0  0  0  0  0  0  0
  1  2  2  0
  2  3  1  0
  3  4  1  0
  4  5  1  0
  5  6  1  0
  6  7  1  0
  7  8  1  0
  8  9  1  0
  9 10  1  0
 10 11  1  0
 11 12  1  0
 12 13  1  0
 13 14  1  0
 14 15  1  0
 14  8  1  0
 12 10  1  0
  1 16  1  0
  1 17  1  0
  2 18  1  0
  3 19  1  0
  3 20  1  0
  4 21  1  0
  5 22  1  0
  5 23  1  0
  6 24  1  0
  6 25  1  0
  7 26  1  0
  7 27  1  0
  8 28  1  1
  9 29  1  0
  9 30  1  0
 10 31  1  1
 11 32  1  0
 11 33  1  0
 12 34  1  1
 13 35  1  0
 13 36  1  0
 14 37  1  1
 15 38  1  0
 15 39  1  0
 15 40  1  0
M  CHG  1   7   1
M  END
>  <Binding energies>  (1) 
[-6.05]

>  <Ligand effiencies>  (1) 
[-0.3361111111111111]

>  <Interactions>  (1) 
["V-B:TYR:539:CA:9841, V-B:PRO:540:CA:9855, V-B:ALA:541:CB:9864, V-B:ASP:366:CG:8184, V-B:TYR:539:CE2:9848, V-B:TYR:539:C:9839, V-B:TYR:539:CZ:9849, H-B:GLU:543:OE1:9881, H-B:ALA:541:N:9863, V-B:TYR:531:CE2:9765, V-B:ASP:366:CB:8183, V-B:PRO:540:CB:9857, H-B:ASP:366:OD1:8185, V-B:PRO:540:N:9856, V-B:TYR:539:CD2:9846, V-B:PRO:540:CD:9859, V-B:GLU:543:CD:9880, V-A:LEU:475:CD2:4259, V-B:TYR:539:CG:9844, V-B:TYR:539:CD1:9845, V-B:LEU:363:CD1:8160, V-B:PRO:540:C:9853, V-B:MET:535:CE:9807, V-B:ALA:541:CA:9862, V-B:TYR:539:CE1:9847"]

$$$$
ZINC1927827039-again1
     RDKit          3D

 40 41  0  0  0  0  0  0  0  0999 V2000
  133.2390  131.5770   62.1010 C   0  0  0  0  0  0  0  0  0  0  0  0
  131.9920  131.8090   61.6520 C   0  0  0  0  0  0  0  0  0  0  0  0
  130.9710  130.7810   61.1790 C   0  0  0  0  0  0  0  0  0  0  0  0
  131.3340  129.2990   61.3920 N   0  0  0  0  0  0  0  0  0  0  0  0
  130.6340  128.3220   60.4260 C   0  0  0  0  0  0  0  0  0  0  0  0
  130.7770  126.8670   60.9140 C   0  0  0  0  0  0  0  0  0  0  0  0
  131.0810  126.8060   62.3420 N   0  0  0  0  0  0  0  0  0  0  0  0
  132.1400  125.8510   62.6750 C   0  0  2  0  0  0  0  0  0  0  0  0
  132.5760  124.9130   61.5080 C   0  0  0  0  0  0  0  0  0  0  0  0
  133.6590  124.0180   62.1060 C   0  0  2  0  0  0  0  0  0  0  0  0
  133.9780  122.6370   61.8270 C   0  0  0  0  0  0  0  0  0  0  0  0
  133.0180  122.9440   63.0080 C   0  0  1  0  0  0  0  0  0  0  0  0
  132.9420  123.8960   64.2350 C   0  0  0  0  0  0  0  0  0  0  0  0
  131.8980  125.0530   64.0140 C   0  0  2  0  0  0  0  0  0  0  0  0
  130.4530  124.5030   64.1020 C   0  0  0  0  0  0  0  0  0  0  0  0
  133.8763  132.4174   62.4134 H   0  0  0  0  0  0  0  0  0  0  0  0
  133.6211  130.5470   62.1556 H   0  0  0  0  0  0  0  0  0  0  0  0
  131.6728  132.8613   61.6230 H   0  0  0  0  0  0  0  0  0  0  0  0
  130.0300  130.9744   61.7149 H   0  0  0  0  0  0  0  0  0  0  0  0
  130.9126  130.9112   60.0883 H   0  0  0  0  0  0  0  0  0  0  0  0
  132.3300  129.1930   61.2690 H   0  0  0  0  0  0  0  0  0  0  0  0
  131.1160  129.0430   62.3440 H   0  0  0  0  0  0  0  0  0  0  0  0
  129.5659  128.5783   60.3663 H   0  0  0  0  0  0  0  0  0  0  0  0
  131.1064  128.4082   59.4363 H   0  0  0  0  0  0  0  0  0  0  0  0
  129.8335  126.3333   60.7268 H   0  0  0  0  0  0  0  0  0  0  0  0
  131.6081  126.4001   60.3651 H   0  0  0  0  0  0  0  0  0  0  0  0
  131.3630  127.7230   62.6610 H   0  0  0  0  0  0  0  0  0  0  0  0
  133.0025  126.5087   62.8583 H   0  0  0  0  0  0  0  0  0  0  0  0
  131.7253  124.3098   61.1580 H   0  0  0  0  0  0  0  0  0  0  0  0
  132.9402  125.4778   60.6372 H   0  0  0  0  0  0  0  0  0  0  0  0
  134.3704  124.8570   62.1059 H   0  0  0  0  0  0  0  0  0  0  0  0
  133.5864  122.1606   60.9161 H   0  0  0  0  0  0  0  0  0  0  0  0
  134.9162  122.0713   61.7283 H   0  0  0  0  0  0  0  0  0  0  0  0
  132.3346  122.1733   63.3940 H   0  0  0  0  0  0  0  0  0  0  0  0
  132.6457  123.3134   65.1198 H   0  0  0  0  0  0  0  0  0  0  0  0
  133.9330  124.3522   64.3754 H   0  0  0  0  0  0  0  0  0  0  0  0
  132.0430  125.7810   64.8258 H   0  0  0  0  0  0  0  0  0  0  0  0
  130.1660  124.3937   65.1583 H   0  0  0  0  0  0  0  0  0  0  0  0
  129.7638  125.2017   63.6051 H   0  0  0  0  0  0  0  0  0  0  0  0
  130.4028  123.5229   63.6051 H   0  0  0  0  0  0  0  0  0  0  0  0
  1  2  2  0
  2  3  1  0
  3  4  1  0
  4  5  1  0
  5  6  1  0
  6  7  1  0
  7  8  1  0
  8  9  1  0
  9 10  1  0
 10 11  1  0
 11 12  1  0
 12 13  1  0
 13 14  1  0
 14 15  1  0
 14  8  1  0
 12 10  1  0
  1 16  1  0
  1 17  1  0
  2 18  1  0
  3 19  1  0
  3 20  1  0
  4 21  1  0
  4 22  1  0
  5 23  1  0
  5 24  1  0
  6 25  1  0
  6 26  1  0
  7 27  1  0
  8 28  1  1
  9 29  1  0
  9 30  1  0
 10 31  1  1
 11 32  1  0
 11 33  1  0
 12 34  1  6
 13 35  1  0
 13 36  1  0
 14 37  1  1
 15 38  1  0
 15 39  1  0
 15 40  1  0
M  CHG  1   4   1
M  END
>  <Binding energies>  (1) 
[-6.14]

>  <Ligand effiencies>  (1) 
[-0.3411111111111111]

>  <Interactions>  (1) 
["V-A:ILE:369:CG2:3237, V-A:ILE:369:CD1:3239, V-A:PRO:540:CB:4885, V-A:PRO:540:CA:4883, H-A:GLU:543:OE2:4910, V-A:GLY:454:CA:4049, V-A:PRO:540:C:4881, V-A:GLU:543:CD:4908, H-A:ASP:366:OD2:3215, V-A:LEU:475:CD2:4259, H-A:ARG:545:NH2:4928, V-A:ARG:545:CZ:4926, H-A:GLU:543:OE1:4909, V-A:ASP:366:CG:3213, V-A:ASN:362:CB:3176, H-A:ASP:366:OD1:3214"]

$$$$
ZINC1928479841
     RDKit          3D

 31 32  0  0  0  0  0  0  0  0999 V2000
  133.9750  123.9850   57.8660 O   0  0  0  0  0  0  0  0  0  0  0  0
  133.2960  124.2530   59.0250 C   0  0  0  0  0  0  0  0  0  0  0  0
  132.2390  125.1610   59.0110 C   0  0  0  0  0  0  0  0  0  0  0  0
  131.5440  125.4320   60.1870 C   0  0  0  0  0  0  0  0  0  0  0  0
  131.9110  124.7910   61.3730 C   0  0  0  0  0  0  0  0  0  0  0  0
  131.1800  125.0670   62.6010 C   0  0  0  0  0  0  0  0  0  0  0  0
  130.5510  125.2850   63.6250 C   0  0  0  0  0  0  0  0  0  0  0  0
  129.8070  125.5640   64.8690 C   0  0  1  0  0  0  0  0  0  0  0  0
  130.7230  125.4080   66.1050 C   0  0  0  0  0  0  0  0  0  0  0  0
  129.9280  125.6860   67.3940 C   0  0  0  0  0  0  0  0  0  0  0  0
  129.2830  127.0890   67.3790 C   0  0  0  0  0  0  0  0  0  0  0  0
  128.4070  127.2530   66.1200 N   0  0  0  0  0  0  0  0  0  0  0  0
  129.1760  126.9770   64.8100 C   0  0  0  0  0  0  0  0  0  0  0  0
  132.9740  123.8830   61.3850 C   0  0  0  0  0  0  0  0  0  0  0  0
  133.6670  123.6140   60.2080 C   0  0  0  0  0  0  0  0  0  0  0  0
  134.5500  124.7030   57.5930 H   0  0  0  0  0  0  0  0  0  0  0  0
  131.9545  125.6621   58.0740 H   0  0  0  0  0  0  0  0  0  0  0  0
  130.7091  126.1482   60.1822 H   0  0  0  0  0  0  0  0  0  0  0  0
  128.9940  124.8293   64.9652 H   0  0  0  0  0  0  0  0  0  0  0  0
  131.1193  124.3824   66.1365 H   0  0  0  0  0  0  0  0  0  0  0  0
  131.5511  126.1283   66.0314 H   0  0  0  0  0  0  0  0  0  0  0  0
  129.1346  124.9305   67.4929 H   0  0  0  0  0  0  0  0  0  0  0  0
  130.6261  125.6398   68.2428 H   0  0  0  0  0  0  0  0  0  0  0  0
  128.6585  127.2125   68.2760 H   0  0  0  0  0  0  0  0  0  0  0  0
  130.0761  127.8511   67.3690 H   0  0  0  0  0  0  0  0  0  0  0  0
  127.6240  126.6160   66.1800 H   0  0  0  0  0  0  0  0  0  0  0  0
  128.0260  128.1880   66.0950 H   0  0  0  0  0  0  0  0  0  0  0  0
  128.4817  127.0332   63.9586 H   0  0  0  0  0  0  0  0  0  0  0  0
  129.9701  127.7280   64.6861 H   0  0  0  0  0  0  0  0  0  0  0  0
  133.2618  123.3828   62.3214 H   0  0  0  0  0  0  0  0  0  0  0  0
  134.5040  122.9002   60.2109 H   0  0  0  0  0  0  0  0  0  0  0  0
  1  2  1  0
  2  3  2  0
  3  4  1  0
  4  5  2  0
  5  6  1  0
  6  7  3  0
  7  8  1  0
  8  9  1  0
  9 10  1  0
 10 11  1  0
 11 12  1  0
 12 13  1  0
  5 14  1  0
 14 15  2  0
 15  2  1  0
 13  8  1  0
  1 16  1  0
  3 17  1  0
  4 18  1  0
  8 19  1  1
  9 20  1  0
  9 21  1  0
 10 22  1  0
 10 23  1  0
 11 24  1  0
 11 25  1  0
 12 26  1  0
 12 27  1  0
 13 28  1  0
 13 29  1  0
 14 30  1  0
 15 31  1  0
M  CHG  1  12   1
M  END
>  <Binding energies>  (1) 
[-6.26]

>  <Ligand effiencies>  (1) 
[-0.34777777777777774]

>  <Interactions>  (1) 
["V-A:ILE:369:CG2:3237, V-A:ASP:366:CA:3210, H-A:GLU:543:OE2:4910, V-A:ILE:369:CB:3236, V-B:GLU:543:CB:9878, V-B:TYR:539:CE2:9848, V-B:GLU:543:CG:9879, V-A:ASP:366:CG:3213, H-B:GLU:543:OE1:9881, H-A:ASN:370:N:3244, H-B:TYR:539:OH:9850, V-A:GLU:543:CD:4908, V-A:ILE:369:CD1:3239, V-A:HIS:456:CE1:4070, V-B:GLU:543:CD:9880, V-A:ASP:366:CB:3212, H-A:ASP:366:O:3209, V-A:GLU:543:CB:4906, H-B:GLU:543:OE2:9882"]

$$$$
ZINC1929332203
     RDKit          3D

 37 38  0  0  0  0  0  0  0  0999 V2000
  129.8910  132.6000   61.5940 C   0  0  0  0  0  0  0  0  0  0  0  0
  130.8660  131.6880   61.4170 C   0  0  0  0  0  0  0  0  0  0  0  0
  132.2210  131.8470   62.0910 C   0  0  0  0  0  0  0  0  0  0  0  0
  130.7040  130.4430   60.5290 C   0  0  2  0  0  0  0  0  0  0  0  0
  131.1960  129.1520   61.2260 N   0  0  0  0  0  0  0  0  0  0  0  0
  130.2910  127.9170   61.0620 C   0  0  0  0  0  0  0  0  0  0  0  0
  130.9670  126.7020   61.7080 C   0  0  0  0  0  0  0  0  0  0  0  0
  131.2960  130.5350   59.0720 C   0  0  2  0  0  0  0  0  0  0  0  0
  131.8870  129.2710   58.7870 O   0  0  0  0  0  0  0  0  0  0  0  0
  132.3330  131.6950   58.9070 C   0  0  0  0  0  0  0  0  0  0  0  0
  131.7210  132.5730   57.7820 C   0  0  1  0  0  0  0  0  0  0  0  0
  131.7560  131.7800   56.4800 C   0  0  0  0  0  0  0  0  0  0  0  0
  130.8370  130.8020   56.6000 C   0  0  0  0  0  0  0  0  0  0  0  0
  130.2270  130.9450   57.9970 C   0  0  2  0  0  0  0  0  0  0  0  0
  130.2320  132.4680   58.0620 C   0  0  0  0  0  0  0  0  0  0  0  0
  128.9179  132.4680   61.0984 H   0  0  0  0  0  0  0  0  0  0  0  0
  130.0678  133.4769   62.2341 H   0  0  0  0  0  0  0  0  0  0  0  0
  132.0913  131.8318   63.1832 H   0  0  0  0  0  0  0  0  0  0  0  0
  132.8803  131.0201   61.7885 H   0  0  0  0  0  0  0  0  0  0  0  0
  132.6709  132.8041   61.7885 H   0  0  0  0  0  0  0  0  0  0  0  0
  129.6140  130.3970   60.3885 H   0  0  0  0  0  0  0  0  0  0  0  0
  132.1060  128.9250   60.8510 H   0  0  0  0  0  0  0  0  0  0  0  0
  131.3170  129.3480   62.2100 H   0  0  0  0  0  0  0  0  0  0  0  0
  129.3239  128.1028   61.5521 H   0  0  0  0  0  0  0  0  0  0  0  0
  130.1267  127.7209   59.9922 H   0  0  0  0  0  0  0  0  0  0  0  0
  130.9162  126.7933   62.8030 H   0  0  0  0  0  0  0  0  0  0  0  0
  130.4501  125.7838   61.3922 H   0  0  0  0  0  0  0  0  0  0  0  0
  132.0197  126.6572   61.3922 H   0  0  0  0  0  0  0  0  0  0  0  0
  132.8080  129.3020   59.0530 H   0  0  0  0  0  0  0  0  0  0  0  0
  132.4343  132.2673   59.8409 H   0  0  0  0  0  0  0  0  0  0  0  0
  133.3438  131.3342   58.6661 H   0  0  0  0  0  0  0  0  0  0  0  0
  132.2029  133.5607   57.7349 H   0  0  0  0  0  0  0  0  0  0  0  0
  132.4049  131.9694   55.6122 H   0  0  0  0  0  0  0  0  0  0  0  0
  130.5760  130.0483   55.8425 H   0  0  0  0  0  0  0  0  0  0  0  0
  129.2920  130.3881   58.1571 H   0  0  0  0  0  0  0  0  0  0  0  0
  129.6099  132.9379   57.2860 H   0  0  0  0  0  0  0  0  0  0  0  0
  129.8336  132.9546   58.9645 H   0  0  0  0  0  0  0  0  0  0  0  0
  1  2  2  0
  2  3  1  0
  2  4  1  0
  4  5  1  0
  5  6  1  0
  6  7  1  0
  4  8  1  0
  8  9  1  6
  8 10  1  0
 10 11  1  0
 11 12  1  0
 12 13  2  0
 13 14  1  0
 14 15  1  0
 14  8  1  0
 15 11  1  0
  1 16  1  0
  1 17  1  0
  3 18  1  0
  3 19  1  0
  3 20  1  0
  4 21  1  6
  5 22  1  0
  5 23  1  0
  6 24  1  0
  6 25  1  0
  7 26  1  0
  7 27  1  0
  7 28  1  0
  9 29  1  0
 10 30  1  0
 10 31  1  0
 11 32  1  6
 12 33  1  0
 13 34  1  0
 14 35  1  6
 15 36  1  0
 15 37  1  0
M  CHG  1   5   1
M  END
>  <Binding energies>  (1) 
[-6.26]

>  <Ligand effiencies>  (1) 
[-0.34777777777777774]

>  <Interactions>  (1) 
["V-A:LEU:363:CD1:3189, V-A:PRO:540:N:4884, V-A:PRO:540:CG:4886, V-A:PRO:540:CB:4885, V-A:PRO:540:CA:4883, V-A:PRO:540:C:4881, V-A:TYR:531:CZ:4794, V-A:MET:535:CE:4835, H-A:TYR:531:OH:4795, H-A:ASP:366:OD2:3215, V-A:PRO:540:CD:4887, H-A:GLU:543:OE1:4909, V-A:ASP:366:CG:3213, H-A:ASP:366:OD1:3214"]

$$$$
ZINC1931006932
     RDKit          3D

 30 31  0  0  0  0  0  0  0  0999 V2000
  128.8020  132.9880   58.2490 C   0  0  0  0  0  0  0  0  0  0  0  0
  129.6920  131.7350   58.3580 C   0  0  2  0  0  0  0  0  0  0  0  0
  130.3320  131.6340   59.7650 C   0  0  0  0  0  0  0  0  0  0  0  0
  131.1890  130.0510   59.9880 S   0  0  0  0  0  0  0  0  0  0  0  0
  131.5350  129.6050   58.3350 C   0  0  0  0  0  0  0  0  0  0  0  0
  132.0190  128.3670   58.1960 N   0  0  0  0  0  0  0  0  0  0  0  0
  131.5210  127.1740   58.9040 C   0  0  0  0  0  0  0  0  0  0  0  0
  132.3760  125.9140   58.8070 C   0  0  0  0  0  0  0  0  0  0  0  0
  132.9690  125.4710   57.7160 N   0  0  0  0  0  0  0  0  0  0  0  0
  133.6880  124.2980   57.9030 N   0  0  0  0  0  0  0  0  0  0  0  0
  133.6270  123.8780   59.1390 C   0  0  0  0  0  0  0  0  0  0  0  0
  132.6780  124.8860   60.1840 S   0  0  0  0  0  0  0  0  0  0  0  0
  131.4910  130.3900   57.2640 N   0  0  0  0  0  0  0  0  0  0  0  0
  130.7050  131.6290   57.1740 C   0  0  2  0  0  0  0  0  0  0  0  0
  131.6710  132.8250   57.0240 C   0  0  0  0  0  0  0  0  0  0  0  0
  128.5477  133.3460   59.2576 H   0  0  0  0  0  0  0  0  0  0  0  0
  129.3437  133.7764   57.7058 H   0  0  0  0  0  0  0  0  0  0  0  0
  127.8792  132.7362   57.7058 H   0  0  0  0  0  0  0  0  0  0  0  0
  129.0570  130.8429   58.2537 H   0  0  0  0  0  0  0  0  0  0  0  0
  131.0552  132.4535   59.8892 H   0  0  0  0  0  0  0  0  0  0  0  0
  129.5314  131.7039   60.5161 H   0  0  0  0  0  0  0  0  0  0  0  0
  132.4940  128.1800   57.3250 H   0  0  0  0  0  0  0  0  0  0  0  0
  131.4281  127.4328   59.9691 H   0  0  0  0  0  0  0  0  0  0  0  0
  130.5722  126.9188   58.4093 H   0  0  0  0  0  0  0  0  0  0  0  0
  134.1331  122.9652   59.4863 H   0  0  0  0  0  0  0  0  0  0  0  0
  131.6490  129.8990   56.3960 H   0  0  0  0  0  0  0  0  0  0  0  0
  130.0693  131.6299   56.2763 H   0  0  0  0  0  0  0  0  0  0  0  0
  131.9636  133.1872   58.0206 H   0  0  0  0  0  0  0  0  0  0  0  0
  132.5674  132.5054   56.4723 H   0  0  0  0  0  0  0  0  0  0  0  0
  131.1700  133.6341   56.4723 H   0  0  0  0  0  0  0  0  0  0  0  0
  1  2  1  0
  2  3  1  0
  3  4  1  0
  4  5  1  0
  5  6  1  0
  6  7  1  0
  7  8  1  0
  8  9  2  0
  9 10  1  0
 10 11  2  0
 11 12  1  0
  5 13  2  0
 13 14  1  0
 14 15  1  0
 14  2  1  0
 12  8  1  0
  1 16  1  0
  1 17  1  0
  1 18  1  0
  2 19  1  6
  3 20  1  0
  3 21  1  0
  6 22  1  0
  7 23  1  0
  7 24  1  0
 11 25  1  0
 13 26  1  0
 14 27  1  6
 15 28  1  0
 15 29  1  0
 15 30  1  0
M  CHG  1  13   1
M  END
>  <Binding energies>  (1) 
[-6.54]

>  <Ligand effiencies>  (1) 
[-0.3847058823529412]

>  <Interactions>  (1) 
["V-A:ILE:369:CG2:3237, V-A:ASP:366:CA:3210, V-A:ILE:369:CB:3236, V-A:ILE:538:CB:4862, H-A:TYR:531:OH:4795, V-B:TYR:539:CE2:9848, V-A:ASP:366:CG:3213, V-A:TYR:539:CD1:4873, V-A:LEU:363:CD1:3189, V-A:TYR:531:CE2:4793, H-B:TYR:539:OH:9850, V-A:TYR:531:CZ:4794, V-A:TYR:539:C:4867, V-A:ASP:366:CB:3212, V-A:PRO:540:N:4884, V-A:TYR:539:CG:4872, V-A:PRO:540:CB:4885, V-A:PRO:540:CA:4883, H-A:ASP:366:OD2:3215, V-A:PRO:540:CD:4887, V-A:TYR:539:CE1:4875"]

$$$$
ZINC1933230236-again1
     RDKit          3D

 45 46  0  0  0  0  0  0  0  0999 V2000
  132.9060  124.9950   58.6420 C   0  0  0  0  0  0  0  0  0  0  0  0
  131.4880  124.7530   59.1600 C   0  0  0  0  0  0  0  0  0  0  0  0
  131.3080  123.7100   60.0780 C   0  0  0  0  0  0  0  0  0  0  0  0
  130.0470  123.4220   60.6050 C   0  0  0  0  0  0  0  0  0  0  0  0
  129.8380  122.3750   61.5260 N   0  0  0  0  0  0  0  0  0  0  0  0
  128.4200  122.0280   61.7040 C   0  0  0  0  0  0  0  0  0  0  0  0
  127.6180  122.8410   62.7460 C   0  0  0  0  0  0  0  0  0  0  0  0
  126.2600  123.0660   62.4250 O   0  0  0  0  0  0  0  0  0  0  0  0
  130.6840  121.2110   61.2480 C   0  0  0  0  0  0  0  0  0  0  0  0
  130.0630  119.8640   61.6580 C   0  0  0  0  0  0  0  0  0  0  0  0
  130.6650  118.7260   60.9480 C   0  0  0  0  0  0  0  0  0  0  0  0
  131.1400  117.8310   60.3890 N   0  0  0  0  0  0  0  0  0  0  0  0
  128.9600  124.1910   60.2030 C   0  0  0  0  0  0  0  0  0  0  0  0
  129.1310  125.2270   59.2880 C   0  0  0  0  0  0  0  0  0  0  0  0
  130.3940  125.5440   58.7340 C   0  0  0  0  0  0  0  0  0  0  0  0
  130.6320  126.5600   57.8190 N   0  0  0  0  0  0  0  0  0  0  0  0
  131.2910  127.5970   58.3140 N   0  0  0  0  0  0  0  0  0  0  0  0
  131.0010  128.8190   58.0110 C   0  0  0  0  0  0  0  0  0  0  0  0
  131.7840  129.8810   58.6170 C   0  0  0  0  0  0  0  0  0  0  0  0
  131.5970  131.1970   58.3910 C   0  0  0  0  0  0  0  0  0  0  0  0
  130.5520  131.6580   57.4830 C   0  0  0  0  0  0  0  0  0  0  0  0
  130.3650  133.1120   57.2450 N   0  0  0  0  0  0  0  0  0  0  0  0
  129.2760  133.5980   57.5370 O   0  0  0  0  0  0  0  0  0  0  0  0
  131.3050  133.7460   56.7720 O   0  0  0  0  0  0  0  0  0  0  0  0
  129.7610  130.7410   56.8680 C   0  0  0  0  0  0  0  0  0  0  0  0
  129.8960  129.2800   57.0610 C   0  0  0  0  0  0  0  0  0  0  0  0
  129.1400  128.5060   56.4720 O   0  0  0  0  0  0  0  0  0  0  0  0
  133.5924  125.1121   59.4935 H   0  0  0  0  0  0  0  0  0  0  0  0
  133.2240  124.1381   58.0299 H   0  0  0  0  0  0  0  0  0  0  0  0
  132.9218  125.9088   58.0299 H   0  0  0  0  0  0  0  0  0  0  0  0
  132.1744  123.1078   60.3889 H   0  0  0  0  0  0  0  0  0  0  0  0
  127.9234  122.1565   60.7309 H   0  0  0  0  0  0  0  0  0  0  0  0
  128.4270  120.9989   62.0924 H   0  0  0  0  0  0  0  0  0  0  0  0
  127.6552  122.2979   63.7018 H   0  0  0  0  0  0  0  0  0  0  0  0
  128.0891  123.8343   62.7831 H   0  0  0  0  0  0  0  0  0  0  0  0
  126.0040  123.9260   62.7690 H   0  0  0  0  0  0  0  0  0  0  0  0
  130.8861  121.1823   60.1671 H   0  0  0  0  0  0  0  0  0  0  0  0
  131.5961  121.3336   61.8505 H   0  0  0  0  0  0  0  0  0  0  0  0
  130.2096  119.7226   62.7390 H   0  0  0  0  0  0  0  0  0  0  0  0
  128.9954  119.8947   61.3947 H   0  0  0  0  0  0  0  0  0  0  0  0
  127.9601  123.9798   60.6099 H   0  0  0  0  0  0  0  0  0  0  0  0
  128.2545  125.8189   58.9857 H   0  0  0  0  0  0  0  0  0  0  0  0
  132.5874  129.5911   59.3102 H   0  0  0  0  0  0  0  0  0  0  0  0
  132.2400  131.9320   58.8973 H   0  0  0  0  0  0  0  0  0  0  0  0
  128.9762  131.1047   56.1885 H   0  0  0  0  0  0  0  0  0  0  0  0
  1  2  1  0
  2  3  2  0
  3  4  1  0
  4  5  1  0
  5  6  1  0
  6  7  1  0
  7  8  1  0
  5  9  1  0
  9 10  1  0
 10 11  1  0
 11 12  3  0
  4 13  2  0
 13 14  1  0
 14 15  2  0
 15 16  1  0
 16 17  1  0
 17 18  2  0
 18 19  1  0
 19 20  2  0
 20 21  1  0
 21 22  1  0
 22 23  2  0
 22 24  1  0
 21 25  2  0
 25 26  1  0
 26 27  2  0
 15  2  1  0
 26 18  1  0
  1 28  1  0
  1 29  1  0
  1 30  1  0
  3 31  1  0
  6 32  1  0
  6 33  1  0
  7 34  1  0
  7 35  1  0
  8 36  1  0
  9 37  1  0
  9 38  1  0
 10 39  1  0
 10 40  1  0
 13 41  1  0
 14 42  1  0
 19 43  1  0
 20 44  1  0
 25 45  1  0
M  CHG  3  16  -1  22   1  24  -1
M  END
>  <Binding energies>  (1) 
[-6.39]

>  <Ligand effiencies>  (1) 
[-0.2282142857142857]

>  <Interactions>  (1) 
["V-A:ASP:366:CA:3210, V-B:PRO:540:CA:9855, V-B:ALA:541:CB:9864, H-A:TYR:531:OH:4795, V-B:TYR:539:CE2:9848, H-B:ALA:541:O:9861, V-B:GLU:543:CG:9879, V-A:ASP:366:CG:3213, V-B:TYR:539:CZ:9849, H-B:GLU:543:OE1:9881, H-B:TYR:539:OH:9850, H-B:ALA:541:N:9863, V-B:TYR:539:CD2:9846, H-A:SER:385:OG:3410, V-A:MET:535:CE:4835, V-B:GLU:543:CD:9880, V-A:TYR:539:C:4867, V-A:ASP:366:CB:3212, V-A:LEU:475:CD2:4259, H-A:HIS:383:HE2:3395, V-A:PRO:540:N:4884, H-A:TYR:539:N:4870, V-A:PRO:540:CA:4883, V-B:PRO:540:C:9853, V-B:ALA:541:CA:9862, V-A:PRO:540:CD:4887"]

$$$$
ZINC1933279684
     RDKit          3D

 58 61  0  0  0  0  0  0  0  0999 V2000
  126.7140  126.9580   68.8330 C   0  0  0  0  0  0  0  0  0  0  0  0
  127.9360  127.6960   68.4370 N   0  0  0  0  0  0  0  0  0  0  0  0
  127.9880  128.2340   67.0540 C   0  0  0  0  0  0  0  0  0  0  0  0
  128.1630  129.7640   66.9930 C   0  0  0  0  0  0  0  0  0  0  0  0
  128.5510  130.2800   68.2510 O   0  0  0  0  0  0  0  0  0  0  0  0
  129.4710  127.1440   69.1320 S   0  0  0  0  0  0  0  0  0  0  0  0
  130.2750  128.3250   69.4680 O   0  0  0  0  0  0  0  0  0  0  0  0
  129.1650  126.1390   70.1560 O   0  0  0  0  0  0  0  0  0  0  0  0
  130.3400  126.3190   67.8010 C   0  0  0  0  0  0  0  0  0  0  0  0
  131.7170  126.4820   67.6510 C   0  0  0  0  0  0  0  0  0  0  0  0
  132.3870  125.8420   66.6090 C   0  0  0  0  0  0  0  0  0  0  0  0
  131.6990  125.0270   65.6880 C   0  0  0  0  0  0  0  0  0  0  0  0
  130.3070  124.8730   65.8630 C   0  0  0  0  0  0  0  0  0  0  0  0
  129.6360  125.5160   66.9050 C   0  0  0  0  0  0  0  0  0  0  0  0
  129.5650  123.9810   64.9650 C   0  0  0  0  0  0  0  0  0  0  0  0
  130.1770  123.2360   64.0250 C   0  0  0  0  0  0  0  0  0  0  0  0
  131.6300  123.2700   63.7920 C   0  0  0  0  0  0  0  0  0  0  0  0
  132.1690  122.4590   63.0390 O   0  0  0  0  0  0  0  0  0  0  0  0
  132.3990  124.3390   64.5450 C   0  0  0  0  0  0  0  0  0  0  0  0
  133.6100  124.7360   64.2950 N   0  0  0  0  0  0  0  0  0  0  0  0
  134.2790  124.2580   63.2930 N   0  0  0  0  0  0  0  0  0  0  0  0
  133.8730  124.5460   62.1090 C   0  0  0  0  0  0  0  0  0  0  0  0
  134.6000  124.0490   60.9570 C   0  0  0  0  0  0  0  0  0  0  0  0
  134.2470  124.2880   59.6680 C   0  0  0  0  0  0  0  0  0  0  0  0
  133.0950  125.0730   59.2710 C   0  0  0  0  0  0  0  0  0  0  0  0
  132.8200  125.2430   58.0380 N   0  0  0  0  0  0  0  0  0  0  0  0
  131.6950  125.9990   57.6630 N   0  0  0  0  0  0  0  0  0  0  0  0
  130.3810  125.5160   57.6080 C   0  0  0  0  0  0  0  0  0  0  0  0
  129.5730  125.9020   56.5350 C   0  0  0  0  0  0  0  0  0  0  0  0
  128.2590  125.4500   56.4440 C   0  0  0  0  0  0  0  0  0  0  0  0
  127.7490  124.6080   57.4300 C   0  0  0  0  0  0  0  0  0  0  0  0
  128.5430  124.2150   58.5050 C   0  0  0  0  0  0  0  0  0  0  0  0
  129.8570  124.6670   58.5940 C   0  0  0  0  0  0  0  0  0  0  0  0
  132.3600  125.5890   60.4240 C   0  0  0  0  0  0  0  0  0  0  0  0
  132.7130  125.3520   61.7140 C   0  0  0  0  0  0  0  0  0  0  0  0
  126.6489  126.9187   69.9304 H   0  0  0  0  0  0  0  0  0  0  0  0
  125.8286  127.4725   68.4313 H   0  0  0  0  0  0  0  0  0  0  0  0
  126.7572  125.9349   68.4313 H   0  0  0  0  0  0  0  0  0  0  0  0
  128.8347  127.7660   66.5305 H   0  0  0  0  0  0  0  0  0  0  0  0
  127.0228  128.0007   66.5808 H   0  0  0  0  0  0  0  0  0  0  0  0
  128.9364  130.0083   66.2499 H   0  0  0  0  0  0  0  0  0  0  0  0
  127.2007  130.2159   66.7104 H   0  0  0  0  0  0  0  0  0  0  0  0
  128.9500  129.5720   68.7620 H   0  0  0  0  0  0  0  0  0  0  0  0
  132.2751  127.1162   68.3555 H   0  0  0  0  0  0  0  0  0  0  0  0
  133.4737  125.9759   66.5039 H   0  0  0  0  0  0  0  0  0  0  0  0
  128.5494  125.3886   67.0192 H   0  0  0  0  0  0  0  0  0  0  0  0
  128.4711  123.9187   65.0630 H   0  0  0  0  0  0  0  0  0  0  0  0
  129.5619  122.5704   63.4016 H   0  0  0  0  0  0  0  0  0  0  0  0
  135.4964  123.4382   61.1395 H   0  0  0  0  0  0  0  0  0  0  0  0
  134.8755  123.8584   58.8740 H   0  0  0  0  0  0  0  0  0  0  0  0
  131.8850  126.9730   57.4770 H   0  0  0  0  0  0  0  0  0  0  0  0
  129.9775  126.5669   55.7576 H   0  0  0  0  0  0  0  0  0  0  0  0
  127.6267  125.7563   55.5976 H   0  0  0  0  0  0  0  0  0  0  0  0
  126.7111  124.2507   57.3590 H   0  0  0  0  0  0  0  0  0  0  0  0
  128.1337  123.5505   59.2802 H   0  0  0  0  0  0  0  0  0  0  0  0
  130.4867  124.3570   59.4410 H   0  0  0  0  0  0  0  0  0  0  0  0
  131.4686  126.2055   60.2361 H   0  0  0  0  0  0  0  0  0  0  0  0
  132.0923  125.7904   62.5094 H   0  0  0  0  0  0  0  0  0  0  0  0
  1  2  1  0
  2  3  1  0
  3  4  1  0
  4  5  1  0
  2  6  1  0
  6  7  2  0
  6  8  2  0
  6  9  1  0
  9 10  2  0
 10 11  1  0
 11 12  2  0
 12 13  1  0
 13 14  2  0
 13 15  1  0
 15 16  2  0
 16 17  1  0
 17 18  2  0
 17 19  1  0
 19 20  2  0
 20 21  1  0
 21 22  2  0
 22 23  1  0
 23 24  2  0
 24 25  1  0
 25 26  2  3
 26 27  1  0
 27 28  1  0
 28 29  2  0
 29 30  1  0
 30 31  2  0
 31 32  1  0
 32 33  2  0
 25 34  1  0
 34 35  2  0
 14  9  1  0
 35 22  1  0
 19 12  1  0
 33 28  1  0
  1 36  1  0
  1 37  1  0
  1 38  1  0
  3 39  1  0
  3 40  1  0
  4 41  1  0
  4 42  1  0
  5 43  1  0
 10 44  1  0
 11 45  1  0
 14 46  1  0
 15 47  1  0
 16 48  1  0
 23 49  1  0
 24 50  1  0
 27 51  1  0
 29 52  1  0
 30 53  1  0
 31 54  1  0
 32 55  1  0
 33 56  1  0
 34 57  1  0
 35 58  1  0
M  END
>  <Binding energies>  (1) 
[-9.2]

>  <Ligand effiencies>  (1) 
[-0.24864864864864863]

>  <Interactions>  (1) 
["V-A:ILE:369:CG2:3237, V-A:ASP:366:CA:3210, V-A:GLU:543:CA:4904, V-B:GLU:543:C:9874, V-A:ILE:369:CB:3236, V-B:GLU:543:CB:9878, H-A:TYR:531:OH:4795, V-A:TYR:484:CE2:4346, V-B:TYR:539:CE2:9848, V-B:GLU:543:CG:9879, V-A:ASP:366:CG:3213, V-B:TYR:484:CE2:9317, V-B:TYR:539:CZ:9849, H-B:TYR:539:OH:9850, V-B:ARG:545:CG:9894, V-A:GLU:543:CD:4908, V-A:TYR:484:CZ:4347, H-B:TYR:484:OH:9319, V-B:HIS:456:CE1:9041, H-A:GLY:454:N:4050, V-B:GLU:543:CA:9876, V-A:ARG:545:CG:4922, V-A:HIS:456:CE1:4070, V-B:TYR:484:CZ:9318, V-A:ILE:369:CD1:3239, V-B:GLY:544:C:9884, H-B:HIS:456:NE2:9042, V-A:GLU:543:CG:4907, V-B:GLU:543:CD:9880, V-A:ILE:369:CG1:3238, V-A:ASP:366:CB:3212, V-A:ARG:545:CD:4923, V-A:LEU:475:CD2:4259, H-A:ARG:545:NH2:4928, V-A:ARG:545:CZ:4926, V-A:GLU:543:CB:4906, H-A:ARG:545:NE:4924, H-A:TYR:484:OH:4348, H-A:GLU:543:O:4903"]

$$$$
ZINC194202552
     RDKit          3D

 41 41  0  0  0  0  0  0  0  0999 V2000
  128.9370  126.9920   71.6950 C   0  0  0  0  0  0  0  0  0  0  0  0
  129.6380  128.1450   70.9710 C   0  0  0  0  0  0  0  0  0  0  0  0
  130.1430  127.6650   69.7340 O   0  0  0  0  0  0  0  0  0  0  0  0
  129.3280  128.0000   68.6200 C   0  0  2  0  0  0  0  0  0  0  0  0
  128.0550  127.2370   68.4500 C   0  0  0  0  0  0  0  0  0  0  0  0
  129.1900  127.0310   67.4480 C   0  0  2  0  0  0  0  0  0  0  0  0
  129.9660  125.7040   67.4640 C   0  0  0  0  0  0  0  0  0  0  0  0
  129.5030  124.6710   67.9550 O   0  0  0  0  0  0  0  0  0  0  0  0
  131.1750  125.8250   66.8730 O   0  0  0  0  0  0  0  0  0  0  0  0
  131.5100  125.0570   65.7230 C   0  0  0  0  0  0  0  0  0  0  0  0
  132.8450  125.4800   65.0900 C   0  0  0  0  0  0  0  0  0  0  0  0
  133.5440  124.3370   64.6170 O   0  0  0  0  0  0  0  0  0  0  0  0
  133.5640  124.2210   63.2010 C   0  0  0  0  0  0  0  0  0  0  0  0
  133.5370  122.7280   62.8360 C   0  0  0  0  0  0  0  0  0  0  0  0
  133.9720  122.4070   61.3870 C   0  0  0  0  0  0  0  0  0  0  0  0
  133.7820  123.5980   60.4280 C   0  0  0  0  0  0  0  0  0  0  0  0
  133.2420  121.1590   60.8570 C   0  0  0  0  0  0  0  0  0  0  0  0
  129.0239  127.1349   72.7822 H   0  0  0  0  0  0  0  0  0  0  0  0
  127.8743  126.9730   71.4114 H   0  0  0  0  0  0  0  0  0  0  0  0
  129.4092  126.0398   71.4114 H   0  0  0  0  0  0  0  0  0  0  0  0
  128.9201  128.9580   70.7874 H   0  0  0  0  0  0  0  0  0  0  0  0
  130.4628  128.5297   71.5889 H   0  0  0  0  0  0  0  0  0  0  0  0
  129.6111  129.0603   68.6945 H   0  0  0  0  0  0  0  0  0  0  0  0
  127.7973  126.4360   69.1585 H   0  0  0  0  0  0  0  0  0  0  0  0
  126.9929  127.5119   68.3703 H   0  0  0  0  0  0  0  0  0  0  0  0
  129.3025  127.1024   66.3561 H   0  0  0  0  0  0  0  0  0  0  0  0
  131.5798  123.9989   66.0156 H   0  0  0  0  0  0  0  0  0  0  0  0
  130.7219  125.2231   64.9738 H   0  0  0  0  0  0  0  0  0  0  0  0
  132.6493  126.1610   64.2486 H   0  0  0  0  0  0  0  0  0  0  0  0
  133.4581  125.9892   65.8482 H   0  0  0  0  0  0  0  0  0  0  0  0
  132.6834  124.7237   62.7746 H   0  0  0  0  0  0  0  0  0  0  0  0
  134.4714  124.6927   62.7959 H   0  0  0  0  0  0  0  0  0  0  0  0
  134.2123  122.1957   63.5220 H   0  0  0  0  0  0  0  0  0  0  0  0
  132.4886  122.4067   62.9231 H   0  0  0  0  0  0  0  0  0  0  0  0
  135.0514  122.1981   61.4234 H   0  0  0  0  0  0  0  0  0  0  0  0
  133.6351  124.5188   61.0115 H   0  0  0  0  0  0  0  0  0  0  0  0
  134.6746  123.7042   59.7939 H   0  0  0  0  0  0  0  0  0  0  0  0
  132.9007  123.4212   59.7939 H   0  0  0  0  0  0  0  0  0  0  0  0
  132.8880  120.5537   61.7045 H   0  0  0  0  0  0  0  0  0  0  0  0
  132.3830  121.4694   60.2439 H   0  0  0  0  0  0  0  0  0  0  0  0
  133.9335  120.5624   60.2439 H   0  0  0  0  0  0  0  0  0  0  0  0
  1  2  1  0
  2  3  1  0
  3  4  1  0
  4  5  1  0
  5  6  1  0
  6  7  1  0
  7  8  2  0
  7  9  1  0
  9 10  1  0
 10 11  1  0
 11 12  1  0
 12 13  1  0
 13 14  1  0
 14 15  1  0
 15 16  1  0
 15 17  1  0
  6  4  1  0
  1 18  1  0
  1 19  1  0
  1 20  1  0
  2 21  1  0
  2 22  1  0
  4 23  1  6
  5 24  1  0
  5 25  1  0
  6 26  1  6
 10 27  1  0
 10 28  1  0
 11 29  1  0
 11 30  1  0
 13 31  1  0
 13 32  1  0
 14 33  1  0
 14 34  1  0
 15 35  1  0
 16 36  1  0
 16 37  1  0
 16 38  1  0
 17 39  1  0
 17 40  1  0
 17 41  1  0
M  END
>  <Binding energies>  (1) 
[-3.82]

>  <Ligand effiencies>  (1) 
[-0.22470588235294117]

>  <Interactions>  (1) 
["V-A:ILE:369:CG2:3237, V-A:HIS:456:CE1:4070, V-A:ILE:369:CD1:3239, V-A:GLY:454:CA:4049, V-A:ILE:369:CB:3236, V-B:GLU:543:CB:9878, V-A:SER:385:CB:3409, V-A:ARG:545:CZ:4926, V-A:GLU:543:CB:4906, V-A:TYR:484:CZ:4347, V-A:GLU:543:CD:4908, V-A:ARG:545:CD:4923, V-A:LEU:475:CD2:4259, V-B:GLU:543:CG:9879, V-B:HIS:456:CE1:9041, H-A:GLY:454:N:4050, H-A:TYR:484:OH:4348"]

$$$$
ZINC195148842
     RDKit          3D

 83 86  0  0  0  0  0  0  0  0999 V2000
  126.0990  131.5720   62.9460 C   0  0  0  0  0  0  0  0  0  0  0  0
  127.4600  131.9010   63.5880 C   0  0  0  0  0  0  0  0  0  0  0  0
  128.0590  133.1810   62.9760 C   0  0  0  0  0  0  0  0  0  0  0  0
  128.4670  130.7250   63.5080 C   0  0  0  0  0  0  0  0  0  0  0  0
  128.3080  129.7640   62.2990 C   0  0  2  0  0  0  0  0  0  0  0  0
  129.0750  128.5230   62.4510 N   0  0  0  0  0  0  0  0  0  0  0  0
  128.8950  127.3760   61.7700 C   0  0  0  0  0  0  0  0  0  0  0  0
  128.0780  127.2210   60.8630 O   0  0  0  0  0  0  0  0  0  0  0  0
  129.8390  126.2150   62.1520 C   0  0  2  0  0  0  0  0  0  0  0  0
  131.3380  126.5380   61.9360 C   0  0  0  0  0  0  0  0  0  0  0  0
  131.9920  125.8340   60.7560 C   0  0  0  0  0  0  0  0  0  0  0  0
  131.7180  126.2520   59.4360 C   0  0  0  0  0  0  0  0  0  0  0  0
  132.3460  125.6160   58.3480 C   0  0  0  0  0  0  0  0  0  0  0  0
  133.2520  124.5630   58.5740 C   0  0  0  0  0  0  0  0  0  0  0  0
  133.8670  123.9550   57.5190 O   0  0  0  0  0  0  0  0  0  0  0  0
  133.5280  124.1420   59.8900 C   0  0  0  0  0  0  0  0  0  0  0  0
  132.8980  124.7750   60.9780 C   0  0  0  0  0  0  0  0  0  0  0  0
  129.4940  124.9850   61.4130 N   0  0  0  0  0  0  0  0  0  0  0  0
  129.1210  123.7870   62.0300 C   0  0  0  0  0  0  0  0  0  0  0  0
  128.8450  122.7620   61.4080 O   0  0  0  0  0  0  0  0  0  0  0  0
  129.0870  123.9000   63.3950 O   0  0  0  0  0  0  0  0  0  0  0  0
  130.0580  123.3650   64.3110 C   0  0  0  0  0  0  0  0  0  0  0  0
  129.5220  122.1050   65.0330 C   0  0  0  0  0  0  0  0  0  0  0  0
  131.4010  123.0720   63.6000 C   0  0  0  0  0  0  0  0  0  0  0  0
  130.2560  124.4940   65.3430 C   0  0  0  0  0  0  0  0  0  0  0  0
  128.5760  130.4600   60.9000 B   0  0  0  0  0  0  0  0  0  0  0  0
  128.0560  129.9870   59.7230 O   0  0  0  0  0  0  0  0  0  0  0  0
  128.4340  130.8630   58.6780 C   0  0  2  0  0  0  0  0  0  0  0  0
  129.2660  130.0970   57.5910 C   0  0  0  0  0  0  0  0  0  0  0  0
  130.6840  130.7050   57.3640 C   0  0  2  0  0  0  0  0  0  0  0  0
  131.3770  130.8980   58.7200 C   0  0  0  0  0  0  0  0  0  0  0  0
  130.6270  132.2550   58.7890 C   0  0  1  0  0  0  0  0  0  0  0  0
  130.7040  132.2550   57.2230 C   0  0  0  0  0  0  0  0  0  0  0  0
  132.0330  132.8300   56.6550 C   0  0  0  0  0  0  0  0  0  0  0  0
  129.5460  132.8980   56.4140 C   0  0  0  0  0  0  0  0  0  0  0  0
  129.1900  132.0420   59.3830 C   0  0  1  0  0  0  0  0  0  0  0  0
  128.3590  133.3410   59.5080 C   0  0  0  0  0  0  0  0  0  0  0  0
  129.3390  131.5890   60.7220 O   0  0  0  0  0  0  0  0  0  0  0  0
  125.3549  131.3921   63.7359 H   0  0  0  0  0  0  0  0  0  0  0  0
  125.7741  132.4175   62.3218 H   0  0  0  0  0  0  0  0  0  0  0  0
  126.1961  130.6715   62.3218 H   0  0  0  0  0  0  0  0  0  0  0  0
  127.2687  132.0751   64.6571 H   0  0  0  0  0  0  0  0  0  0  0  0
  128.3763  133.8590   63.7820 H   0  0  0  0  0  0  0  0  0  0  0  0
  128.9278  132.9184   62.3544 H   0  0  0  0  0  0  0  0  0  0  0  0
  127.3008  133.6798   62.3544 H   0  0  0  0  0  0  0  0  0  0  0  0
  129.4794  131.1531   63.4649 H   0  0  0  0  0  0  0  0  0  0  0  0
  128.2712  130.1102   64.3989 H   0  0  0  0  0  0  0  0  0  0  0  0
  127.2452  129.4805   62.2991 H   0  0  0  0  0  0  0  0  0  0  0  0
  129.8450  128.5650   63.1020 H   0  0  0  0  0  0  0  0  0  0  0  0
  129.6895  126.0607   63.2308 H   0  0  0  0  0  0  0  0  0  0  0  0
  131.4327  127.6227   61.7795 H   0  0  0  0  0  0  0  0  0  0  0  0
  131.8596  126.1748   62.8338 H   0  0  0  0  0  0  0  0  0  0  0  0
  131.0122  127.0765   59.2568 H   0  0  0  0  0  0  0  0  0  0  0  0
  132.1283  125.9425   57.3204 H   0  0  0  0  0  0  0  0  0  0  0  0
  134.7400  124.3110   57.3360 H   0  0  0  0  0  0  0  0  0  0  0  0
  134.2357  123.3187   60.0671 H   0  0  0  0  0  0  0  0  0  0  0  0
  133.1125  124.4432   62.0046 H   0  0  0  0  0  0  0  0  0  0  0  0
  129.5070  125.0260   60.4040 H   0  0  0  0  0  0  0  0  0  0  0  0
  129.5844  122.2517   66.1214 H   0  0  0  0  0  0  0  0  0  0  0  0
  128.4739  121.9356   64.7453 H   0  0  0  0  0  0  0  0  0  0  0  0
  130.1268  121.2324   64.7453 H   0  0  0  0  0  0  0  0  0  0  0  0
  132.1847  122.9010   64.3527 H   0  0  0  0  0  0  0  0  0  0  0  0
  131.2950  122.1759   62.9710 H   0  0  0  0  0  0  0  0  0  0  0  0
  131.6779  123.9309   62.9710 H   0  0  0  0  0  0  0  0  0  0  0  0
  130.1832  124.0789   66.3591 H   0  0  0  0  0  0  0  0  0  0  0  0
  131.2476  124.9490   65.2030 H   0  0  0  0  0  0  0  0  0  0  0  0
  129.4784  125.2593   65.2030 H   0  0  0  0  0  0  0  0  0  0  0  0
  127.5825  131.2691   58.1123 H   0  0  0  0  0  0  0  0  0  0  0  0
  129.3809  129.0509   57.9112 H   0  0  0  0  0  0  0  0  0  0  0  0
  128.7182  130.1795   56.6407 H   0  0  0  0  0  0  0  0  0  0  0  0
  131.0693  130.0715   56.5515 H   0  0  0  0  0  0  0  0  0  0  0  0
  131.0926  130.1704   59.4945 H   0  0  0  0  0  0  0  0  0  0  0  0
  132.4672  130.8183   58.8432 H   0  0  0  0  0  0  0  0  0  0  0  0
  130.9593  133.1309   59.3655 H   0  0  0  0  0  0  0  0  0  0  0  0
  132.6938  133.1159   57.4866 H   0  0  0  0  0  0  0  0  0  0  0  0
  132.5291  132.0661   56.0384 H   0  0  0  0  0  0  0  0  0  0  0  0
  131.8159  133.7147   56.0384 H   0  0  0  0  0  0  0  0  0  0  0  0
  128.7998  133.3123   57.1079 H   0  0  0  0  0  0  0  0  0  0  0  0
  129.9447  133.7039   55.7803 H   0  0  0  0  0  0  0  0  0  0  0  0
  129.0727  132.1335   55.7803 H   0  0  0  0  0  0  0  0  0  0  0  0
  128.2072  133.5783   60.5713 H   0  0  0  0  0  0  0  0  0  0  0  0
  128.8961  134.1682   59.0208 H   0  0  0  0  0  0  0  0  0  0  0  0
  127.3829  133.2002   59.0208 H   0  0  0  0  0  0  0  0  0  0  0  0
  1  2  1  0
  2  3  1  0
  2  4  1  0
  4  5  1  0
  5  6  1  0
  6  7  1  0
  7  8  2  0
  7  9  1  0
  9 10  1  0
 10 11  1  0
 11 12  2  0
 12 13  1  0
 13 14  2  0
 14 15  1  0
 14 16  1  0
 16 17  2  0
  9 18  1  0
 18 19  1  0
 19 20  2  0
 19 21  1  0
 21 22  1  0
 22 23  1  0
 22 24  1  0
 22 25  1  0
  5 26  1  0
 26 27  1  0
 27 28  1  0
 28 29  1  0
 29 30  1  0
 30 31  1  0
 31 32  1  0
 32 33  1  0
 33 34  1  0
 33 35  1  0
 32 36  1  0
 36 37  1  1
 36 38  1  0
 17 11  1  0
 38 26  1  0
 36 28  1  0
 33 30  1  0
  1 39  1  0
  1 40  1  0
  1 41  1  0
  2 42  1  0
  3 43  1  0
  3 44  1  0
  3 45  1  0
  4 46  1  0
  4 47  1  0
  5 48  1  6
  6 49  1  0
  9 50  1  1
 10 51  1  0
 10 52  1  0
 12 53  1  0
 13 54  1  0
 15 55  1  0
 16 56  1  0
 17 57  1  0
 18 58  1  0
 23 59  1  0
 23 60  1  0
 23 61  1  0
 24 62  1  0
 24 63  1  0
 24 64  1  0
 25 65  1  0
 25 66  1  0
 25 67  1  0
 28 68  1  6
 29 69  1  0
 29 70  1  0
 30 71  1  6
 31 72  1  0
 31 73  1  0
 32 74  1  1
 34 75  1  0
 34 76  1  0
 34 77  1  0
 35 78  1  0
 35 79  1  0
 35 80  1  0
 37 81  1  0
 37 82  1  0
 37 83  1  0
M  END
>  <Binding energies>  (1) 
[-8.02]

>  <Ligand effiencies>  (1) 
[-0.19560975609756096]

>  <Interactions>  (1) 
["V-A:ILE:369:CG2:3237, V-A:ASP:366:CA:3210, H-A:GLU:543:OE2:4910, V-A:ILE:538:CB:4862, V-B:ALA:541:CB:9864, V-B:TYR:539:CE2:9848, V-A:TYR:484:CE2:4346, V-B:LEU:475:CD2:9230, V-B:GLU:543:CG:9879, V-A:ASP:366:CG:3213, V-A:ILE:538:CG2:4863, V-A:TYR:539:CD1:4873, V-A:LEU:363:CD1:3189, V-B:TYR:539:CZ:9849, V-A:ILE:538:CA:4860, H-A:ASN:370:N:3244, H-B:TYR:539:OH:9850, V-A:ALA:541:CB:4892, V-A:GLU:543:CD:4908, V-A:TYR:484:CZ:4347, V-A:GLU:543:CG:4907, V-A:MET:535:CE:4835, V-A:TYR:539:C:4867, V-A:ASP:366:CB:3212, V-A:LEU:475:CD2:4259, H-A:GLU:543:OE1:4909, H-A:ASP:366:O:3209, V-A:PRO:540:N:4884, V-A:PRO:540:CB:4885, V-A:PRO:540:CA:4883, V-A:PRO:540:CD:4887, V-A:TYR:539:CE1:4875"]

$$$$
ZINC1952739026
     RDKit          3D

 41 41  0  0  0  0  0  0  0  0999 V2000
  129.9470  125.2790   66.1120 C   0  0  0  0  0  0  0  0  0  0  0  0
  130.5130  124.9920   64.7000 C   0  0  0  0  0  0  0  0  0  0  0  0
  131.9860  124.5210   64.7720 C   0  0  0  0  0  0  0  0  0  0  0  0
  130.4280  126.2710   63.8430 C   0  0  0  0  0  0  0  0  0  0  0  0
  129.6970  124.0440   63.9930 O   0  0  0  0  0  0  0  0  0  0  0  0
  129.8920  122.6870   63.9600 C   0  0  0  0  0  0  0  0  0  0  0  0
  129.6660  121.9200   64.8950 O   0  0  0  0  0  0  0  0  0  0  0  0
  130.3910  122.2760   62.7240 N   0  0  0  0  0  0  0  0  0  0  0  0
  130.6500  123.1100   61.6230 C   0  0  0  0  0  0  0  0  0  0  0  0
  131.9790  123.3690   61.3030 C   0  0  0  0  0  0  0  0  0  0  0  0
  133.5910  122.5870   62.4000 I   0  0  0  0  0  0  0  0  0  0  0  0
  132.2610  124.1690   60.2170 C   0  0  0  0  0  0  0  0  0  0  0  0
  131.2590  124.7170   59.4220 C   0  0  0  0  0  0  0  0  0  0  0  0
  132.1480  125.8670   57.8980 I   0  0  0  0  0  0  0  0  0  0  0  0
  129.8750  124.4710   59.7060 C   0  0  0  0  0  0  0  0  0  0  0  0
  128.6810  125.0190   58.8250 C   0  0  0  0  0  0  0  0  0  0  0  0
  127.6450  125.7790   59.7050 C   0  0  0  0  0  0  0  0  0  0  0  0
  129.0200  126.0600   57.7320 C   0  0  0  0  0  0  0  0  0  0  0  0
  127.8040  123.5560   57.8890 S   0  0  0  0  0  0  0  0  0  0  0  0
  127.9660  123.7010   56.4370 O   0  0  0  0  0  0  0  0  0  0  0  0
  128.0670  122.2800   58.5640 O   0  0  0  0  0  0  0  0  0  0  0  0
  125.6890  123.8500   58.1740 Cl  0  0  0  0  0  0  0  0  0  0  0  0
  129.6000  123.6630   60.8620 C   0  0  0  0  0  0  0  0  0  0  0  0
  127.6560  123.1950   61.5720 I   0  0  0  0  0  0  0  0  0  0  0  0
  130.6566  124.9192   66.8716 H   0  0  0  0  0  0  0  0  0  0  0  0
  129.7973  126.3619   66.2339 H   0  0  0  0  0  0  0  0  0  0  0  0
  128.9849  124.7598   66.2339 H   0  0  0  0  0  0  0  0  0  0  0  0
  132.2889  124.4241   65.8250 H   0  0  0  0  0  0  0  0  0  0  0  0
  132.0843  123.5466   64.2711 H   0  0  0  0  0  0  0  0  0  0  0  0
  132.6314  125.2576   64.2711 H   0  0  0  0  0  0  0  0  0  0  0  0
  130.3696  127.1503   64.5014 H   0  0  0  0  0  0  0  0  0  0  0  0
  131.3231  126.3471   63.2081 H   0  0  0  0  0  0  0  0  0  0  0  0
  129.5307  126.2280   63.2081 H   0  0  0  0  0  0  0  0  0  0  0  0
  130.5770  121.2910   62.6060 H   0  0  0  0  0  0  0  0  0  0  0  0
  133.3118  124.3812   59.9707 H   0  0  0  0  0  0  0  0  0  0  0  0
  127.8736  125.6113   60.7678 H   0  0  0  0  0  0  0  0  0  0  0  0
  127.6961  126.8554   59.4844 H   0  0  0  0  0  0  0  0  0  0  0  0
  126.6336  125.4071   59.4844 H   0  0  0  0  0  0  0  0  0  0  0  0
  129.3272  127.0034   58.2069 H   0  0  0  0  0  0  0  0  0  0  0  0
  129.8409  125.6803   57.1060 H   0  0  0  0  0  0  0  0  0  0  0  0
  128.1329  126.2365   57.1060 H   0  0  0  0  0  0  0  0  0  0  0  0
  1  2  1  0
  2  3  1  0
  2  4  1  0
  2  5  1  0
  5  6  1  0
  6  7  2  0
  6  8  1  0
  8  9  1  0
  9 10  2  0
 10 11  1  0
 10 12  1  0
 12 13  2  0
 13 14  1  0
 13 15  1  0
 15 16  1  0
 16 17  1  0
 16 18  1  0
 16 19  1  0
 19 20  2  0
 19 21  2  0
 19 22  1  0
 15 23  2  0
 23 24  1  0
 23  9  1  0
  1 25  1  0
  1 26  1  0
  1 27  1  0
  3 28  1  0
  3 29  1  0
  3 30  1  0
  4 31  1  0
  4 32  1  0
  4 33  1  0
  8 34  1  0
 12 35  1  0
 17 36  1  0
 17 37  1  0
 17 38  1  0
 18 39  1  0
 18 40  1  0
 18 41  1  0
M  END
>  <Binding energies>  (1) 
[-6.9]

>  <Ligand effiencies>  (1) 
[-0.276]

>  <Interactions>  (1) 
["V-B:PRO:540:CA:9855, V-A:GLY:454:CA:4049, V-B:TYR:539:CZ:9849, H-B:TYR:539:OH:9850, V-B:GLU:543:CB:9878, V-B:GLU:543:CD:9880, V-B:ALA:541:CB:9864, V-B:TYR:539:CE2:9848, V-A:GLU:543:CD:4908, V-A:ASP:366:CB:3212, V-B:PRO:540:CB:9857, V-A:LEU:475:CD2:4259, V-B:GLU:543:CG:9879"]

$$$$
ZINC195352994
     RDKit          3D

123122  0  0  0  0  0  0  0  0999 V2000
  130.3970  127.8620   70.1240 C   0  0  0  0  0  0  0  0  0  0  0  0
  129.4860  128.1920   68.9320 C   0  0  0  0  0  0  0  0  0  0  0  0
  128.6520  126.9880   68.4120 C   0  0  1  0  0  0  0  0  0  0  0  0
  127.2730  126.9600   69.1110 C   0  0  0  0  0  0  0  0  0  0  0  0
  128.4700  126.9450   66.8600 C   0  0  2  0  0  0  0  0  0  0  0  0
  129.7180  126.5380   66.2100 N   0  0  0  0  0  0  0  0  0  0  0  0
  130.2020  125.2850   66.1980 C   0  0  0  0  0  0  0  0  0  0  0  0
  129.6600  124.3270   66.7490 O   0  0  0  0  0  0  0  0  0  0  0  0
  131.5260  125.0780   65.4400 C   0  0  1  0  0  0  0  0  0  0  0  0
  131.3840  125.5360   64.0560 N   0  0  0  0  0  0  0  0  0  0  0  0
  132.3690  125.5270   63.1420 C   0  0  0  0  0  0  0  0  0  0  0  0
  133.5230  125.1820   63.4050 O   0  0  0  0  0  0  0  0  0  0  0  0
  131.9860  125.9500   61.7100 C   0  0  2  0  0  0  0  0  0  0  0  0
  130.5130  126.4470   61.5780 C   0  0  0  0  0  0  0  0  0  0  0  0
  129.9980  126.7770   60.1470 C   0  0  1  0  0  0  0  0  0  0  0  0
  128.6060  127.0410   60.2660 O   0  0  0  0  0  0  0  0  0  0  0  0
  127.3300  126.3980   59.3670 Si  0  0  0  0  0  4  0  0  0  0  0  0
  126.4740  125.1560   60.5000 C   0  0  0  0  0  0  0  0  0  0  0  0
  126.1130  127.7720   58.9390 C   0  0  0  0  0  0  0  0  0  0  0  0
  127.9630  125.5350   57.7840 C   0  0  0  0  0  0  0  0  0  0  0  0
  126.8060  124.7340   57.1480 C   0  0  0  0  0  0  0  0  0  0  0  0
  128.4580  126.5700   56.7510 C   0  0  0  0  0  0  0  0  0  0  0  0
  129.1060  124.5540   58.1210 C   0  0  0  0  0  0  0  0  0  0  0  0
  130.6760  127.9880   59.4270 C   0  0  2  0  0  0  0  0  0  0  0  0
  131.7420  127.5790   58.3920 C   0  0  0  0  0  0  0  0  0  0  0  0
  131.2450  128.9780   60.3520 N   0  0  0  0  0  0  0  0  0  0  0  0
  131.1320  130.3630   60.2290 C   0  0  0  0  0  0  0  0  0  0  0  0
  131.6190  131.1580   61.0320 O   0  0  0  0  0  0  0  0  0  0  0  0
  130.3970  130.7160   59.1310 O   0  0  0  0  0  0  0  0  0  0  0  0
  130.9230  131.2560   57.9060 C   0  0  0  0  0  0  0  0  0  0  0  0
  130.5020  132.7340   57.7190 C   0  0  0  0  0  0  0  0  0  0  0  0
  132.4620  131.1020   57.8270 C   0  0  0  0  0  0  0  0  0  0  0  0
  130.2620  130.3980   56.8090 C   0  0  0  0  0  0  0  0  0  0  0  0
  132.3480  124.8160   60.7040 C   0  0  1  0  0  0  0  0  0  0  0  0
  133.6630  124.0650   60.9890 C   0  0  0  0  0  0  0  0  0  0  0  0
  131.3060  123.8540   60.6670 O   0  0  0  0  0  0  0  0  0  0  0  0
  131.3120  122.3690   61.4610 Si  0  0  0  0  0  4  0  0  0  0  0  0
  132.4120  121.1990   60.4730 C   0  0  0  0  0  0  0  0  0  0  0  0
  132.0130  122.6220   63.1970 C   0  0  0  0  0  0  0  0  0  0  0  0
  129.5130  121.7510   61.5430 C   0  0  0  0  0  0  0  0  0  0  0  0
  128.7870  122.3930   62.7440 C   0  0  0  0  0  0  0  0  0  0  0  0
  128.7710  122.1280   60.2440 C   0  0  0  0  0  0  0  0  0  0  0  0
  129.4910  120.2190   61.7080 C   0  0  0  0  0  0  0  0  0  0  0  0
  132.6620  125.8490   66.1750 C   0  0  0  0  0  0  0  0  0  0  0  0
  133.9830  125.0570   66.1330 C   0  0  0  0  0  0  0  0  0  0  0  0
  132.3340  126.2270   67.6360 C   0  0  0  0  0  0  0  0  0  0  0  0
  128.0070  128.3310   66.3470 C   0  0  0  0  0  0  0  0  0  0  0  0
  126.8130  128.7610   66.7650 N   0  0  0  0  0  0  0  0  0  0  0  0
  128.7320  128.9930   65.6040 O   0  0  0  0  0  0  0  0  0  0  0  0
  129.8578  128.0573   71.0627 H   0  0  0  0  0  0  0  0  0  0  0  0
  130.6869  126.8017   70.0814 H   0  0  0  0  0  0  0  0  0  0  0  0
  131.2987  128.4906   70.0814 H   0  0  0  0  0  0  0  0  0  0  0  0
  128.7898  128.9860   69.2399 H   0  0  0  0  0  0  0  0  0  0  0  0
  130.1456  128.4983   68.1067 H   0  0  0  0  0  0  0  0  0  0  0  0
  129.2333  126.0894   68.6661 H   0  0  0  0  0  0  0  0  0  0  0  0
  127.4147  126.9629   70.2018 H   0  0  0  0  0  0  0  0  0  0  0  0
  126.6934  127.8466   68.8142 H   0  0  0  0  0  0  0  0  0  0  0  0
  126.7299  126.0506   68.8142 H   0  0  0  0  0  0  0  0  0  0  0  0
  127.6985  126.2022   66.6090 H   0  0  0  0  0  0  0  0  0  0  0  0
  130.2260  127.2690   65.7320 H   0  0  0  0  0  0  0  0  0  0  0  0
  131.7841  124.0089   65.4180 H   0  0  0  0  0  0  0  0  0  0  0  0
  130.4550  125.8240   63.7830 H   0  0  0  0  0  0  0  0  0  0  0  0
  132.5861  126.8351   61.4524 H   0  0  0  0  0  0  0  0  0  0  0  0
  129.8613  125.6632   61.9914 H   0  0  0  0  0  0  0  0  0  0  0  0
  130.4888  127.4063   62.1157 H   0  0  0  0  0  0  0  0  0  0  0  0
  130.2466  125.9096   59.5178 H   0  0  0  0  0  0  0  0  0  0  0  0
  126.6611  125.4275   61.5494 H   0  0  0  0  0  0  0  0  0  0  0  0
  125.3914  125.1679   60.3056 H   0  0  0  0  0  0  0  0  0  0  0  0
  126.8704  124.1485   60.3056 H   0  0  0  0  0  0  0  0  0  0  0  0
  125.7201  128.2156   59.8657 H   0  0  0  0  0  0  0  0  0  0  0  0
  126.6266  128.5467   58.3507 H   0  0  0  0  0  0  0  0  0  0  0  0
  125.2820  127.3556   58.3507 H   0  0  0  0  0  0  0  0  0  0  0  0
  126.1801  124.3007   57.9420 H   0  0  0  0  0  0  0  0  0  0  0  0
  126.1956  125.4038   56.5245 H   0  0  0  0  0  0  0  0  0  0  0  0
  127.2181  123.9269   56.5245 H   0  0  0  0  0  0  0  0  0  0  0  0
  128.8750  127.4418   57.2764 H   0  0  0  0  0  0  0  0  0  0  0  0
  129.2361  126.1153   56.1203 H   0  0  0  0  0  0  0  0  0  0  0  0
  127.6156  126.8903   56.1203 H   0  0  0  0  0  0  0  0  0  0  0  0
  129.2057  124.4684   59.2131 H   0  0  0  0  0  0  0  0  0  0  0  0
  128.8785  123.5657   57.6950 H   0  0  0  0  0  0  0  0  0  0  0  0
  130.0484  124.9288   57.6950 H   0  0  0  0  0  0  0  0  0  0  0  0
  129.8427  128.4610   58.8868 H   0  0  0  0  0  0  0  0  0  0  0  0
  132.6459  127.2322   58.9141 H   0  0  0  0  0  0  0  0  0  0  0  0
  131.3488  126.7679   57.7615 H   0  0  0  0  0  0  0  0  0  0  0  0
  131.9922  128.4450   57.7615 H   0  0  0  0  0  0  0  0  0  0  0  0
  131.7470  128.6210   61.1520 H   0  0  0  0  0  0  0  0  0  0  0  0
  130.3680  133.2045   58.7042 H   0  0  0  0  0  0  0  0  0  0  0  0
  131.2832  133.2699   57.1600 H   0  0  0  0  0  0  0  0  0  0  0  0
  129.5557  132.7778   57.1600 H   0  0  0  0  0  0  0  0  0  0  0  0
  132.8790  131.0603   58.8440 H   0  0  0  0  0  0  0  0  0  0  0  0
  132.7106  130.1745   57.2904 H   0  0  0  0  0  0  0  0  0  0  0  0
  132.8895  131.9619   57.2904 H   0  0  0  0  0  0  0  0  0  0  0  0
  129.6544  129.6093   57.2767 H   0  0  0  0  0  0  0  0  0  0  0  0
  129.6185  131.0344   56.1838 H   0  0  0  0  0  0  0  0  0  0  0  0
  131.0415  129.9381   56.1838 H   0  0  0  0  0  0  0  0  0  0  0  0
  132.4832  125.3380   59.7452 H   0  0  0  0  0  0  0  0  0  0  0  0
  133.8093  123.9814   62.0760 H   0  0  0  0  0  0  0  0  0  0  0  0
  133.6138  123.0588   60.5472 H   0  0  0  0  0  0  0  0  0  0  0  0
  134.5046  124.6187   60.5472 H   0  0  0  0  0  0  0  0  0  0  0  0
  132.9982  120.5755   61.1642 H   0  0  0  0  0  0  0  0  0  0  0  0
  131.7854  120.5542   59.8392 H   0  0  0  0  0  0  0  0  0  0  0  0
  133.0942  121.7846   59.8392 H   0  0  0  0  0  0  0  0  0  0  0  0
  131.2527  122.3476   63.9430 H   0  0  0  0  0  0  0  0  0  0  0  0
  132.9022  121.9881   63.3294 H   0  0  0  0  0  0  0  0  0  0  0  0
  132.2923  123.6777   63.3294 H   0  0  0  0  0  0  0  0  0  0  0  0
  129.2191  122.0109   63.6806 H   0  0  0  0  0  0  0  0  0  0  0  0
  128.9072  123.4857   62.7037 H   0  0  0  0  0  0  0  0  0  0  0  0
  127.7172  122.1400   62.7037 H   0  0  0  0  0  0  0  0  0  0  0  0
  127.8161  122.6131   60.4948 H   0  0  0  0  0  0  0  0  0  0  0  0
  129.3907  122.8205   59.6555 H   0  0  0  0  0  0  0  0  0  0  0  0
  128.5771  121.2191   59.6555 H   0  0  0  0  0  0  0  0  0  0  0  0
  129.4874  119.9655   62.7784 H   0  0  0  0  0  0  0  0  0  0  0  0
  128.5869  119.8119   61.2317 H   0  0  0  0  0  0  0  0  0  0  0  0
  130.3830  119.7861   61.2317 H   0  0  0  0  0  0  0  0  0  0  0  0
  132.7665  126.7944   65.6224 H   0  0  0  0  0  0  0  0  0  0  0  0
  134.3216  124.8540   67.1597 H   0  0  0  0  0  0  0  0  0  0  0  0
  133.8234  124.1055   65.6047 H   0  0  0  0  0  0  0  0  0  0  0  0
  134.7471  125.6461   65.6047 H   0  0  0  0  0  0  0  0  0  0  0  0
  132.8991  125.5757   68.3190 H   0  0  0  0  0  0  0  0  0  0  0  0
  132.6130  127.2759   67.8148 H   0  0  0  0  0  0  0  0  0  0  0  0
  131.2563  126.0986   67.8148 H   0  0  0  0  0  0  0  0  0  0  0  0
  126.2480  128.1880   67.3750 H   0  0  0  0  0  0  0  0  0  0  0  0
  126.4650  129.6580   66.4610 H   0  0  0  0  0  0  0  0  0  0  0  0
  1  2  1  0
  2  3  1  0
  3  4  1  0
  3  5  1  0
  5  6  1  0
  6  7  1  0
  7  8  2  0
  7  9  1  0
  9 10  1  0
 10 11  1  0
 11 12  2  0
 11 13  1  0
 13 14  1  0
 14 15  1  0
 15 16  1  0
 16 17  1  0
 17 18  1  0
 17 19  1  0
 17 20  1  0
 20 21  1  0
 20 22  1  0
 20 23  1  0
 15 24  1  0
 24 25  1  0
 24 26  1  0
 26 27  1  0
 27 28  2  0
 27 29  1  0
 29 30  1  0
 30 31  1  0
 30 32  1  0
 30 33  1  0
 13 34  1  0
 34 35  1  0
 34 36  1  0
 36 37  1  0
 37 38  1  0
 37 39  1  0
 37 40  1  0
 40 41  1  0
 40 42  1  0
 40 43  1  0
  9 44  1  0
 44 45  1  0
 44 46  1  0
  5 47  1  0
 47 48  1  0
 47 49  2  0
  1 50  1  0
  1 51  1  0
  1 52  1  0
  2 53  1  0
  2 54  1  0
  3 55  1  1
  4 56  1  0
  4 57  1  0
  4 58  1  0
  5 59  1  1
  6 60  1  0
  9 61  1  6
 10 62  1  0
 13 63  1  6
 14 64  1  0
 14 65  1  0
 15 66  1  6
 18 67  1  0
 18 68  1  0
 18 69  1  0
 19 70  1  0
 19 71  1  0
 19 72  1  0
 21 73  1  0
 21 74  1  0
 21 75  1  0
 22 76  1  0
 22 77  1  0
 22 78  1  0
 23 79  1  0
 23 80  1  0
 23 81  1  0
 24 82  1  6
 25 83  1  0
 25 84  1  0
 25 85  1  0
 26 86  1  0
 31 87  1  0
 31 88  1  0
 31 89  1  0
 32 90  1  0
 32 91  1  0
 32 92  1  0
 33 93  1  0
 33 94  1  0
 33 95  1  0
 34 96  1  6
 35 97  1  0
 35 98  1  0
 35 99  1  0
 38100  1  0
 38101  1  0
 38102  1  0
 39103  1  0
 39104  1  0
 39105  1  0
 41106  1  0
 41107  1  0
 41108  1  0
 42109  1  0
 42110  1  0
 42111  1  0
 43112  1  0
 43113  1  0
 43114  1  0
 44115  1  0
 45116  1  0
 45117  1  0
 45118  1  0
 46119  1  0
 46120  1  0
 46121  1  0
 48122  1  0
 48123  1  0
M  END
>  <Binding energies>  (1) 
[-7.59]

>  <Ligand effiencies>  (1) 
[-0.14055555555555554]

>  <Interactions>  (1) 
["V-A:ILE:369:CG2:3237, V-B:PRO:540:CA:9855, V-A:GLY:454:CA:4049, V-B:GLU:543:C:9874, H-A:GLU:543:OE2:4910, V-A:GLU:543:C:4902, V-B:GLU:543:CB:9878, V-B:ASP:366:CG:8184, V-B:ALA:541:CB:9864, H-A:ARG:545:NH1:4927, V-B:TYR:539:CE2:9848, V-B:GLU:543:CG:9879, V-B:TYR:539:C:9839, V-A:ASP:366:CG:3213, V-A:LEU:363:CD1:3189, V-B:TYR:539:CZ:9849, V-A:GLU:543:CD:4908, V-A:TYR:484:CZ:4347, V-B:ASP:366:CB:8183, H-B:TYR:484:OH:9319, V-B:HIS:456:CE1:9041, V-B:GLU:543:CA:9876, V-A:ARG:545:CG:4922, V-B:PRO:540:N:9856, V-A:HIS:456:CE1:4070, V-A:ILE:369:CD1:3239, V-B:TYR:539:CD2:9846, V-B:GLU:543:CD:9880, V-A:MET:535:CE:4835, V-A:TYR:539:C:4867, V-A:ASP:366:CB:3212, V-A:ARG:545:CD:4923, V-A:LEU:475:CD2:4259, H-A:ARG:545:NH2:4928, V-A:ARG:545:CZ:4926, H-A:GLU:543:OE1:4909, V-A:GLU:543:CB:4906, H-A:ASP:366:OD1:3214, V-A:PRO:540:N:4884, H-B:GLU:543:OE2:9882, V-A:PRO:540:CB:4885, V-A:PRO:540:CA:4883, H-A:ARG:545:NE:4924, V-B:PRO:540:C:9853, H-A:ASP:366:OD2:3215, V-B:ALA:541:CA:9862, V-A:PRO:540:CD:4887, H-A:TYR:484:OH:4348"]

$$$$
ZINC195434600
     RDKit          3D

 93100  0  0  0  0  0  0  0  0999 V2000
  129.4150  126.6610   67.2800 C   0  0  0  0  0  0  0  0  0  0  0  0
  129.4140  125.9700   66.0360 O   0  0  0  0  0  0  0  0  0  0  0  0
  129.2660  126.6710   64.8490 C   0  0  0  0  0  0  0  0  0  0  0  0
  128.3560  127.7320   64.7140 C   0  0  0  0  0  0  0  0  0  0  0  0
  128.2000  128.3960   63.5020 C   0  0  0  0  0  0  0  0  0  0  0  0
  128.9650  128.0460   62.3800 C   0  0  0  0  0  0  0  0  0  0  0  0
  129.8990  127.0140   62.5270 C   0  0  0  0  0  0  0  0  0  0  0  0
  130.6560  126.7150   61.4080 O   0  0  0  0  0  0  0  0  0  0  0  0
  131.2440  125.4740   61.2970 C   0  0  0  0  0  0  0  0  0  0  0  0
  131.5840  125.0390   60.0170 C   0  0  0  0  0  0  0  0  0  0  0  0
  132.1690  123.7840   59.8500 C   0  0  0  0  0  0  0  0  0  0  0  0
  132.4060  122.9700   60.9580 C   0  0  0  0  0  0  0  0  0  0  0  0
  133.2010  121.2570   60.7240 Br  0  0  0  0  0  0  0  0  0  0  0  0
  132.0530  123.4060   62.2370 C   0  0  0  0  0  0  0  0  0  0  0  0
  131.4630  124.6640   62.4210 C   0  0  0  0  0  0  0  0  0  0  0  0
  131.0240  125.1560   63.7570 C   0  0  0  0  0  0  0  0  0  0  0  0
  131.3320  124.5540   64.7880 O   0  0  0  0  0  0  0  0  0  0  0  0
  130.0520  126.3030   63.7360 C   0  0  0  0  0  0  0  0  0  0  0  0
  128.6990  128.7160   61.0350 C   0  0  1  0  0  0  0  0  0  0  0  0
  128.0360  127.7940   60.1660 O   0  0  0  0  0  0  0  0  0  0  0  0
  127.5770  126.5910   60.5850 C   0  0  0  0  0  0  0  0  0  0  0  0
  126.9510  126.3870   61.6270 O   0  0  0  0  0  0  0  0  0  0  0  0
  127.9470  125.4400   59.6220 C   0  0  1  0  0  0  0  0  0  0  0  0
  128.8390  125.9140   58.4310 C   0  0  0  0  0  0  0  0  0  0  0  0
  128.7140  124.7010   57.4750 C   0  0  0  0  0  0  0  0  0  0  0  0
  127.7820  123.7290   58.2600 C   0  0  1  0  0  0  0  0  0  0  0  0
  127.2220  122.5340   57.4600 C   0  0  0  0  0  0  0  0  0  0  0  0
  128.5910  123.2730   59.4930 C   0  0  0  0  0  0  0  0  0  0  0  0
  129.0660  122.1780   59.7890 O   0  0  0  0  0  0  0  0  0  0  0  0
  128.6410  124.3660   60.2960 O   0  0  0  0  0  0  0  0  0  0  0  0
  126.7610  124.6640   58.9700 C   0  0  0  0  0  0  0  0  0  0  0  0
  125.7680  123.9880   59.9760 C   0  0  0  0  0  0  0  0  0  0  0  0
  125.8660  125.4750   57.9790 C   0  0  0  0  0  0  0  0  0  0  0  0
  127.8490  130.0030   61.2090 C   0  0  1  0  0  0  0  0  0  0  0  0
  127.3170  130.4650   59.9630 O   0  0  0  0  0  0  0  0  0  0  0  0
  128.0300  130.4390   58.8100 C   0  0  0  0  0  0  0  0  0  0  0  0
  127.6820  129.8750   57.7710 O   0  0  0  0  0  0  0  0  0  0  0  0
  129.3430  131.2550   58.8890 C   0  0  1  0  0  0  0  0  0  0  0  0
  129.2800  132.5920   58.0860 C   0  0  0  0  0  0  0  0  0  0  0  0
  130.7870  132.9380   57.9830 C   0  0  0  0  0  0  0  0  0  0  0  0
  131.4710  131.7530   58.7310 C   0  0  1  0  0  0  0  0  0  0  0  0
  133.0000  131.6300   58.5530 C   0  0  0  0  0  0  0  0  0  0  0  0
  131.0650  131.9010   60.2120 C   0  0  0  0  0  0  0  0  0  0  0  0
  131.7240  132.1960   61.2070 O   0  0  0  0  0  0  0  0  0  0  0  0
  129.7530  131.5590   60.2430 O   0  0  0  0  0  0  0  0  0  0  0  0
  130.6060  130.5130   58.3650 C   0  0  0  0  0  0  0  0  0  0  0  0
  130.9470  129.1690   59.1010 C   0  0  0  0  0  0  0  0  0  0  0  0
  130.6000  130.1690   56.8410 C   0  0  0  0  0  0  0  0  0  0  0  0
  126.7140  129.8430   62.2670 C   0  0  0  0  0  0  0  0  0  0  0  0
  126.0950  131.2260   62.5600 C   0  0  0  0  0  0  0  0  0  0  0  0
  125.6520  128.7900   61.8620 C   0  0  0  0  0  0  0  0  0  0  0  0
  127.3070  129.4530   63.5150 O   0  0  0  0  0  0  0  0  0  0  0  0
  129.4139  125.9324   68.1041 H   0  0  0  0  0  0  0  0  0  0  0  0
  130.3141  127.2911   67.3487 H   0  0  0  0  0  0  0  0  0  0  0  0
  128.5178  127.2937   67.3487 H   0  0  0  0  0  0  0  0  0  0  0  0
  127.7562  128.0433   65.5819 H   0  0  0  0  0  0  0  0  0  0  0  0
  131.3922  125.6811   59.1447 H   0  0  0  0  0  0  0  0  0  0  0  0
  132.4439  123.4356   58.8435 H   0  0  0  0  0  0  0  0  0  0  0  0
  132.2393  122.7577   63.1059 H   0  0  0  0  0  0  0  0  0  0  0  0
  129.6619  129.0090   60.5912 H   0  0  0  0  0  0  0  0  0  0  0  0
  128.4466  126.8334   57.9720 H   0  0  0  0  0  0  0  0  0  0  0  0
  129.8719  126.1705   58.7091 H   0  0  0  0  0  0  0  0  0  0  0  0
  128.2598  124.9973   56.5180 H   0  0  0  0  0  0  0  0  0  0  0  0
  129.6844  124.2538   57.2136 H   0  0  0  0  0  0  0  0  0  0  0  0
  126.8608  121.7633   58.1568 H   0  0  0  0  0  0  0  0  0  0  0  0
  126.3897  122.8746   56.8265 H   0  0  0  0  0  0  0  0  0  0  0  0
  128.0163  122.1124   56.8265 H   0  0  0  0  0  0  0  0  0  0  0  0
  126.0860  124.2045   61.0065 H   0  0  0  0  0  0  0  0  0  0  0  0
  124.7550  124.3849   59.8139 H   0  0  0  0  0  0  0  0  0  0  0  0
  125.7658  122.9000   59.8139 H   0  0  0  0  0  0  0  0  0  0  0  0
  125.1685  126.1071   58.5482 H   0  0  0  0  0  0  0  0  0  0  0  0
  126.5028  126.1100   57.3455 H   0  0  0  0  0  0  0  0  0  0  0  0
  125.2966  124.7789   57.3455 H   0  0  0  0  0  0  0  0  0  0  0  0
  128.5415  130.7675   61.5910 H   0  0  0  0  0  0  0  0  0  0  0  0
  128.8288  132.4475   57.0933 H   0  0  0  0  0  0  0  0  0  0  0  0
  128.6630  133.3749   58.5513 H   0  0  0  0  0  0  0  0  0  0  0  0
  131.1115  132.9827   56.9329 H   0  0  0  0  0  0  0  0  0  0  0  0
  131.0361  133.9211   58.4090 H   0  0  0  0  0  0  0  0  0  0  0  0
  133.4822  131.5912   59.5409 H   0  0  0  0  0  0  0  0  0  0  0  0
  133.2315  130.7103   57.9956 H   0  0  0  0  0  0  0  0  0  0  0  0
  133.3755  132.5008   57.9956 H   0  0  0  0  0  0  0  0  0  0  0  0
  130.9071  129.3264   60.1890 H   0  0  0  0  0  0  0  0  0  0  0  0
  130.2159  128.3985   58.8149 H   0  0  0  0  0  0  0  0  0  0  0  0
  131.9570  128.8403   58.8149 H   0  0  0  0  0  0  0  0  0  0  0  0
  130.5809  129.0768   56.7117 H   0  0  0  0  0  0  0  0  0  0  0  0
  129.7094  130.6097   56.3691 H   0  0  0  0  0  0  0  0  0  0  0  0
  131.5054  130.5783   56.3691 H   0  0  0  0  0  0  0  0  0  0  0  0
  126.0284  131.3749   63.6478 H   0  0  0  0  0  0  0  0  0  0  0  0
  126.7275  132.0114   62.1205 H   0  0  0  0  0  0  0  0  0  0  0  0
  125.0879  131.2775   62.1205 H   0  0  0  0  0  0  0  0  0  0  0  0
  125.2082  128.3499   62.7672 H   0  0  0  0  0  0  0  0  0  0  0  0
  124.8646  129.2740   61.2656 H   0  0  0  0  0  0  0  0  0  0  0  0
  126.1293  127.9985   61.2656 H   0  0  0  0  0  0  0  0  0  0  0  0
  1  2  1  0
  2  3  1  0
  3  4  1  0
  4  5  2  0
  5  6  1  0
  6  7  2  0
  7  8  1  0
  8  9  1  0
  9 10  2  0
 10 11  1  0
 11 12  2  0
 12 13  1  0
 12 14  1  0
 14 15  2  0
 15 16  1  0
 16 17  2  0
 16 18  1  0
  6 19  1  0
 19 20  1  0
 20 21  1  0
 21 22  2  0
 23 21  1  1
 23 24  1  0
 24 25  1  0
 25 26  1  0
 26 27  1  6
 26 28  1  0
 28 29  2  0
 28 30  1  0
 26 31  1  0
 31 32  1  0
 31 33  1  0
 19 34  1  0
 34 35  1  0
 35 36  1  0
 36 37  2  0
 38 36  1  1
 38 39  1  0
 39 40  1  0
 40 41  1  0
 41 42  1  1
 41 43  1  0
 43 44  2  0
 43 45  1  0
 41 46  1  0
 46 47  1  0
 46 48  1  0
 34 49  1  0
 49 50  1  0
 49 51  1  0
 49 52  1  0
 18  3  2  0
 30 23  1  0
 45 38  1  0
 52  5  1  0
 18  7  1  0
 31 23  1  0
 46 38  1  0
 15  9  1  0
  1 53  1  0
  1 54  1  0
  1 55  1  0
  4 56  1  0
 10 57  1  0
 11 58  1  0
 14 59  1  0
 19 60  1  6
 24 61  1  0
 24 62  1  0
 25 63  1  0
 25 64  1  0
 27 65  1  0
 27 66  1  0
 27 67  1  0
 32 68  1  0
 32 69  1  0
 32 70  1  0
 33 71  1  0
 33 72  1  0
 33 73  1  0
 34 74  1  1
 39 75  1  0
 39 76  1  0
 40 77  1  0
 40 78  1  0
 42 79  1  0
 42 80  1  0
 42 81  1  0
 47 82  1  0
 47 83  1  0
 47 84  1  0
 48 85  1  0
 48 86  1  0
 48 87  1  0
 50 88  1  0
 50 89  1  0
 50 90  1  0
 51 91  1  0
 51 92  1  0
 51 93  1  0
M  END
>  <Binding energies>  (1) 
[-9.04]

>  <Ligand effiencies>  (1) 
[-0.17384615384615382]

>  <Interactions>  (1) 
["V-A:ILE:369:CG2:3237, V-B:PRO:540:CA:9855, H-A:ALA:541:N:4891, V-B:GLU:543:CB:9878, V-B:ASP:366:CG:8184, V-B:TYR:539:CE2:9848, V-B:GLU:543:CG:9879, V-B:TYR:539:C:9839, V-A:LEU:363:CD1:3189, V-B:TYR:539:CZ:9849, V-A:GLU:543:CD:4908, V-B:PRO:540:CB:9857, V-B:PRO:540:N:9856, V-B:TYR:539:CD2:9846, V-B:PRO:540:CD:9859, V-A:TYR:531:CZ:4794, V-B:GLU:543:CD:9880, V-A:MET:535:CE:4835, V-A:TYR:539:C:4867, V-A:LEU:475:CD2:4259, V-B:TYR:539:CG:9844, H-B:ARG:545:NH2:9900, V-A:PRO:540:N:4884, V-A:PRO:540:CB:4885, V-A:PRO:540:CA:4883, V-A:LEU:363:CA:3185, V-A:PRO:540:CD:4887, H-A:TYR:484:OH:4348"]

$$$$
ZINC1955387781
     RDKit          3D

 35 35  0  0  0  0  0  0  0  0999 V2000
  131.0030  123.8780   62.9870 C   0  0  0  0  0  0  0  0  0  0  0  0
  131.8130  125.0010   63.6490 C   0  0  2  0  0  0  0  0  0  0  0  0
  133.2050  124.4860   64.0690 C   0  0  0  0  0  0  0  0  0  0  0  0
  133.9050  125.0970   64.8750 O   0  0  0  0  0  0  0  0  0  0  0  0
  131.1420  125.7900   64.8150 N   0  0  2  0  0  0  0  0  0  0  0  0
  131.1680  125.0070   66.1530 C   0  0  0  0  0  0  0  0  0  0  0  0
  130.5490  125.8670   67.2700 C   0  0  0  0  0  0  0  0  0  0  0  0
  129.1160  126.3230   66.9320 C   0  0  1  0  0  0  0  0  0  0  0  0
  128.4970  127.4660   68.2550 P   0  0  0  0  0  0  0  0  0  0  0  0
  129.9320  127.7160   69.3760 C   0  0  0  0  0  0  0  0  0  0  0  0
  128.3180  129.0960   67.4270 C   0  0  0  0  0  0  0  0  0  0  0  0
  127.2640  126.9940   68.9430 O   0  0  0  0  0  0  0  0  0  0  0  0
  129.0800  127.0400   65.5680 C   0  0  0  0  0  0  0  0  0  0  0  0
  129.6830  126.1760   64.4480 C   0  0  0  0  0  0  0  0  0  0  0  0
  130.5478  123.2469   63.7645 H   0  0  0  0  0  0  0  0  0  0  0  0
  130.2119  124.3165   62.3610 H   0  0  0  0  0  0  0  0  0  0  0  0
  131.6688  123.2657   62.3610 H   0  0  0  0  0  0  0  0  0  0  0  0
  131.8881  125.7572   62.8537 H   0  0  0  0  0  0  0  0  0  0  0  0
  133.5817  123.5475   63.6362 H   0  0  0  0  0  0  0  0  0  0  0  0
  131.6670  126.6410   64.9630 H   0  0  0  0  0  0  0  0  0  0  0  0
  130.5896  124.0777   66.0441 H   0  0  0  0  0  0  0  0  0  0  0  0
  132.2091  124.7659   66.4137 H   0  0  0  0  0  0  0  0  0  0  0  0
  130.5226  125.2763   68.1976 H   0  0  0  0  0  0  0  0  0  0  0  0
  131.1702  126.7675   67.3844 H   0  0  0  0  0  0  0  0  0  0  0  0
  128.4688  125.4352   66.8781 H   0  0  0  0  0  0  0  0  0  0  0  0
  129.5951  127.6573   70.4215 H   0  0  0  0  0  0  0  0  0  0  0  0
  130.6840  126.9353   69.1887 H   0  0  0  0  0  0  0  0  0  0  0  0
  130.3757  128.7050   69.1887 H   0  0  0  0  0  0  0  0  0  0  0  0
  128.2312  129.8860   68.1875 H   0  0  0  0  0  0  0  0  0  0  0  0
  129.2006  129.2871   66.7988 H   0  0  0  0  0  0  0  0  0  0  0  0
  127.4150  129.0910   66.7988 H   0  0  0  0  0  0  0  0  0  0  0  0
  128.0345  127.2704   65.3152 H   0  0  0  0  0  0  0  0  0  0  0  0
  129.6806  127.9579   65.6503 H   0  0  0  0  0  0  0  0  0  0  0  0
  129.0822  125.2625   64.3268 H   0  0  0  0  0  0  0  0  0  0  0  0
  129.6818  126.7455   63.5069 H   0  0  0  0  0  0  0  0  0  0  0  0
  1  2  1  0
  2  3  1  0
  3  4  2  0
  2  5  1  0
  5  6  1  0
  6  7  1  0
  7  8  1  0
  8  9  1  0
  9 10  1  0
  9 11  1  0
  9 12  2  0
  8 13  1  0
 13 14  1  0
 14  5  1  0
  1 15  1  0
  1 16  1  0
  1 17  1  0
  2 18  1  6
  3 19  1  0
  5 20  1  6
  6 21  1  0
  6 22  1  0
  7 23  1  0
  7 24  1  0
  8 25  1  1
 10 26  1  0
 10 27  1  0
 10 28  1  0
 11 29  1  0
 11 30  1  0
 11 31  1  0
 13 32  1  0
 13 33  1  0
 14 34  1  0
 14 35  1  0
M  CHG  1   5   1
M  END
>  <Binding energies>  (1) 
[-5.88]

>  <Ligand effiencies>  (1) 
[-0.392]

>  <Interactions>  (1) 
["V-A:GLY:454:CA:4049, H-A:GLU:543:OE2:4910, V-B:GLU:543:CB:9878, H-A:ARG:545:NH1:4927, V-A:TYR:484:CE2:4346, V-B:GLU:543:CG:9879, V-A:GLU:543:CD:4908, V-A:TYR:484:CZ:4347, V-B:HIS:456:CE1:9041, H-A:GLY:454:N:4050, V-A:HIS:456:CE1:4070, V-A:GLU:543:CG:4907, V-B:GLU:543:CD:9880, H-A:ARG:545:NH2:4928, V-A:ARG:545:CZ:4926, H-A:GLU:543:OE1:4909, V-A:GLU:543:CB:4906, H-A:ARG:545:NE:4924, H-A:TYR:484:OH:4348"]

$$$$
ZINC1955387781-again1
     RDKit          3D

 34 34  0  0  0  0  0  0  0  0999 V2000
  132.7450  131.4750   58.6420 C   0  0  0  0  0  0  0  0  0  0  0  0
  131.2670  131.7320   58.3130 C   0  0  2  0  0  0  0  0  0  0  0  0
  131.1830  133.0680   57.5380 C   0  0  0  0  0  0  0  0  0  0  0  0
  130.2620  133.3470   56.7690 O   0  0  0  0  0  0  0  0  0  0  0  0
  130.3610  131.6560   59.4910 N   0  0  0  0  0  0  0  0  0  0  0  0
  129.3110  132.6950   59.5320 C   0  0  0  0  0  0  0  0  0  0  0  0
  128.3580  132.5400   60.7360 C   0  0  0  0  0  0  0  0  0  0  0  0
  129.1150  132.4890   62.0730 C   0  0  0  0  0  0  0  0  0  0  0  0
  127.9450  132.1110   63.4590 P   0  0  0  0  0  0  0  0  0  0  0  0
  126.3240  132.7720   62.9010 C   0  0  0  0  0  0  0  0  0  0  0  0
  127.7100  130.2900   63.3850 C   0  0  0  0  0  0  0  0  0  0  0  0
  128.3790  132.6130   64.7920 O   0  0  0  0  0  0  0  0  0  0  0  0
  130.2110  131.4160   61.9900 C   0  0  0  0  0  0  0  0  0  0  0  0
  131.1170  131.6230   60.7610 C   0  0  0  0  0  0  0  0  0  0  0  0
  132.8790  131.4517   59.7336 H   0  0  0  0  0  0  0  0  0  0  0  0
  133.0534  130.5097   58.2140 H   0  0  0  0  0  0  0  0  0  0  0  0
  133.3612  132.2795   58.2140 H   0  0  0  0  0  0  0  0  0  0  0  0
  130.8897  130.9182   57.6764 H   0  0  0  0  0  0  0  0  0  0  0  0
  131.9861  133.8061   57.6807 H   0  0  0  0  0  0  0  0  0  0  0  0
  129.7952  133.6809   59.5925 H   0  0  0  0  0  0  0  0  0  0  0  0
  128.7076  132.5901   58.6183 H   0  0  0  0  0  0  0  0  0  0  0  0
  127.6665  133.3953   60.7528 H   0  0  0  0  0  0  0  0  0  0  0  0
  127.8166  131.5897   60.6180 H   0  0  0  0  0  0  0  0  0  0  0  0
  129.5769  133.4675   62.2707 H   0  0  0  0  0  0  0  0  0  0  0  0
  125.7089  133.0228   63.7778 H   0  0  0  0  0  0  0  0  0  0  0  0
  126.4855  133.6761   62.2956 H   0  0  0  0  0  0  0  0  0  0  0  0
  125.8072  132.0128   62.2956 H   0  0  0  0  0  0  0  0  0  0  0  0
  127.6578  129.8852   64.4065 H   0  0  0  0  0  0  0  0  0  0  0  0
  126.7750  130.0623   62.8521 H   0  0  0  0  0  0  0  0  0  0  0  0
  128.5565  129.8324   62.8521 H   0  0  0  0  0  0  0  0  0  0  0  0
  130.8273  131.4644   62.8998 H   0  0  0  0  0  0  0  0  0  0  0  0
  129.7241  130.4341   61.8965 H   0  0  0  0  0  0  0  0  0  0  0  0
  131.6527  132.5768   60.8760 H   0  0  0  0  0  0  0  0  0  0  0  0
  131.8092  130.7695   60.7123 H   0  0  0  0  0  0  0  0  0  0  0  0
  1  2  1  0
  2  3  1  0
  3  4  2  0
  2  5  1  0
  5  6  1  0
  6  7  1  0
  7  8  1  0
  8  9  1  0
  9 10  1  0
  9 11  1  0
  9 12  2  0
  8 13  1  0
 13 14  1  0
 14  5  1  0
  1 15  1  0
  1 16  1  0
  1 17  1  0
  2 18  1  6
  3 19  1  0
  6 20  1  0
  6 21  1  0
  7 22  1  0
  7 23  1  0
  8 24  1  0
 10 25  1  0
 10 26  1  0
 10 27  1  0
 11 28  1  0
 11 29  1  0
 11 30  1  0
 13 31  1  0
 13 32  1  0
 14 33  1  0
 14 34  1  0
M  END
>  <Binding energies>  (1) 
[-5.14]

>  <Ligand effiencies>  (1) 
[-0.3671428571428571]

>  <Interactions>  (1) 
["V-A:PRO:540:N:4884, V-A:LEU:363:CD1:3189, H-A:TYR:539:N:4870, V-A:PRO:540:CB:4885, V-A:PRO:540:CA:4883, V-A:PRO:540:CG:4886, V-A:ALA:541:CB:4892, V-A:TYR:539:C:4867, H-B:TYR:484:OH:9319, V-A:PRO:540:CD:4887, V-B:LEU:475:CD2:9230"]

$$$$
ZINC1957549469-again1
     RDKit          3D

 36 38  0  0  0  0  0  0  0  0999 V2000
  125.5740  123.0720   62.0130 N   0  0  0  0  0  0  0  0  0  0  0  0
  126.0720  123.5910   61.1080 C   0  0  0  0  0  0  0  0  0  0  0  0
  126.7110  124.2540   59.9510 C   0  0  0  0  0  0  0  0  0  0  0  0
  127.7290  125.3430   60.3700 C   0  0  0  0  0  0  0  0  0  0  0  0
  127.9820  125.3190   61.8920 N   0  0  2  0  0  0  0  0  0  0  0  0
  128.6440  126.5470   62.5200 C   0  0  0  0  0  0  0  0  0  0  0  0
  129.5840  125.6340   63.3240 C   0  0  0  0  0  0  0  0  0  0  0  0
  131.0900  125.9090   63.4970 C   0  0  0  0  0  0  0  0  0  0  0  0
  130.9980  125.1480   64.8280 C   0  0  1  0  0  0  0  0  0  0  0  0
  131.8550  125.6600   65.9940 N   0  0  0  0  0  0  0  0  0  0  0  0
  129.4990  125.4790   64.8550 C   0  0  0  0  0  0  0  0  0  0  0  0
  129.1310  124.4640   62.4290 C   0  0  0  0  0  0  0  0  0  0  0  0
  127.2020  123.2380   58.9000 C   0  0  0  0  0  0  0  0  0  0  0  0
  125.8610  123.4010   58.1720 C   0  0  0  0  0  0  0  0  0  0  0  0
  125.6670  124.7260   58.9250 C   0  0  0  0  0  0  0  0  0  0  0  0
  128.6797  125.1652   59.8460 H   0  0  0  0  0  0  0  0  0  0  0  0
  127.3148  126.3263   60.1026 H   0  0  0  0  0  0  0  0  0  0  0  0
  127.1170  125.1000   62.3680 H   0  0  0  0  0  0  0  0  0  0  0  0
  129.1596  127.1971   61.7978 H   0  0  0  0  0  0  0  0  0  0  0  0
  128.0342  127.3057   63.0324 H   0  0  0  0  0  0  0  0  0  0  0  0
  131.7338  125.4366   62.7405 H   0  0  0  0  0  0  0  0  0  0  0  0
  131.5064  126.9253   63.4357 H   0  0  0  0  0  0  0  0  0  0  0  0
  131.3536  124.1108   64.9167 H   0  0  0  0  0  0  0  0  0  0  0  0
  132.2390  124.8850   66.5160 H   0  0  0  0  0  0  0  0  0  0  0  0
  131.2950  126.2240   66.6180 H   0  0  0  0  0  0  0  0  0  0  0  0
  132.6170  126.2240   65.6470 H   0  0  0  0  0  0  0  0  0  0  0  0
  128.8527  124.6581   65.1992 H   0  0  0  0  0  0  0  0  0  0  0  0
  129.0901  126.2723   65.4980 H   0  0  0  0  0  0  0  0  0  0  0  0
  129.8673  124.1711   61.6661 H   0  0  0  0  0  0  0  0  0  0  0  0
  128.9314  123.4742   62.8655 H   0  0  0  0  0  0  0  0  0  0  0  0
  128.0767  123.5694   58.3212 H   0  0  0  0  0  0  0  0  0  0  0  0
  127.5716  122.2454   59.1969 H   0  0  0  0  0  0  0  0  0  0  0  0
  125.9447  123.5052   57.0801 H   0  0  0  0  0  0  0  0  0  0  0  0
  125.0961  122.6109   58.1980 H   0  0  0  0  0  0  0  0  0  0  0  0
  125.9616  125.6197   58.3553 H   0  0  0  0  0  0  0  0  0  0  0  0
  124.6677  125.0584   59.2425 H   0  0  0  0  0  0  0  0  0  0  0  0
  1  2  3  0
  2  3  1  0
  3  4  1  0
  4  5  1  0
  5  6  1  0
  6  7  1  0
  7  8  1  0
  8  9  1  0
  9 10  1  0
  9 11  1  0
  7 12  1  0
  3 13  1  0
 13 14  1  0
 14 15  1  0
 15  3  1  0
 12  5  1  0
 11  7  1  0
  4 16  1  0
  4 17  1  0
  5 18  1  6
  6 19  1  0
  6 20  1  0
  8 21  1  0
  8 22  1  0
  9 23  1  1
 10 24  1  0
 10 25  1  0
 10 26  1  0
 11 27  1  0
 11 28  1  0
 12 29  1  0
 12 30  1  0
 13 31  1  0
 13 32  1  0
 14 33  1  0
 14 34  1  0
 15 35  1  0
 15 36  1  0
M  CHG  2   5   1  10   1
M  END
>  <Binding energies>  (1) 
[-6.96]

>  <Ligand effiencies>  (1) 
[-0.3663157894736842]

>  <Interactions>  (1) 
["V-B:PRO:540:CA:9855, H-B:GLU:543:OE2:9882, H-A:GLU:543:OE2:4910, H-B:GLU:543:OE1:9881, V-B:GLU:543:CB:9878, H-B:ALA:541:N:9863, V-B:GLU:543:CD:9880, V-A:GLU:543:CD:4908, V-B:PRO:540:CB:9857, V-B:GLU:543:CG:9879, H-A:TYR:484:OH:4348, V-B:PRO:540:N:9856"]

$$$$
ZINC195764949
     RDKit          3D

 32 31  0  0  0  0  0  0  0  0999 V2000
  132.4480  131.4600   59.8200 C   0  0  0  0  0  0  0  0  0  0  0  0
  132.0750  131.9000   61.1570 N   0  0  0  0  0  0  0  0  0  0  0  0
  133.2510  132.0450   62.0030 C   0  0  0  0  0  0  0  0  0  0  0  0
  130.4670  131.6650   61.8240 Si  0  0  0  0  0  4  0  0  0  0  0  0
  130.4500  132.2250   63.5100 N   0  0  0  0  0  0  0  0  0  0  0  0
  129.3610  132.2550   64.0730 N   0  0  0  0  0  0  0  0  0  0  0  0
  128.3650  132.1460   64.6170 N   0  0  0  0  0  0  0  0  0  0  0  0
  129.3550  132.6080   60.8400 N   0  0  0  0  0  0  0  0  0  0  0  0
  129.4910  132.7260   59.3940 C   0  0  0  0  0  0  0  0  0  0  0  0
  128.6150  133.7430   61.3750 C   0  0  0  0  0  0  0  0  0  0  0  0
  130.0490  129.9500   61.7720 N   0  0  0  0  0  0  0  0  0  0  0  0
  128.6380  129.6940   62.3360 C   0  0  0  0  0  0  0  0  0  0  0  0
  130.2010  129.3620   60.3560 C   0  0  0  0  0  0  0  0  0  0  0  0
  133.1577  130.6228   59.8942 H   0  0  0  0  0  0  0  0  0  0  0  0
  131.5489  131.1316   59.2779 H   0  0  0  0  0  0  0  0  0  0  0  0
  132.9191  132.2932   59.2779 H   0  0  0  0  0  0  0  0  0  0  0  0
  132.9491  132.0078   63.0601 H   0  0  0  0  0  0  0  0  0  0  0  0
  133.9561  131.2270   61.7940 H   0  0  0  0  0  0  0  0  0  0  0  0
  133.7363  133.0098   61.7940 H   0  0  0  0  0  0  0  0  0  0  0  0
  130.3026  133.4301   59.1583 H   0  0  0  0  0  0  0  0  0  0  0  0
  129.7252  131.7401   58.9661 H   0  0  0  0  0  0  0  0  0  0  0  0
  128.5480  133.0969   58.9661 H   0  0  0  0  0  0  0  0  0  0  0  0
  128.6368  133.7096   62.4743 H   0  0  0  0  0  0  0  0  0  0  0  0
  129.0771  134.6787   61.0274 H   0  0  0  0  0  0  0  0  0  0  0  0
  127.5724  133.6977   61.0274 H   0  0  0  0  0  0  0  0  0  0  0  0
  130.7040  129.4660   62.3700 H   0  0  0  0  0  0  0  0  0  0  0  0
  128.6757  129.7008   63.4353 H   0  0  0  0  0  0  0  0  0  0  0  0
  127.9552  130.4829   61.9876 H   0  0  0  0  0  0  0  0  0  0  0  0
  128.2758  128.7155   61.9876 H   0  0  0  0  0  0  0  0  0  0  0  0
  130.4757  128.2993   60.4278 H   0  0  0  0  0  0  0  0  0  0  0  0
  129.2483  129.4587   59.8146 H   0  0  0  0  0  0  0  0  0  0  0  0
  130.9875  129.9082   59.8146 H   0  0  0  0  0  0  0  0  0  0  0  0
  1  2  1  0
  2  3  1  0
  2  4  1  0
  4  5  1  0
  5  6  2  0
  6  7  2  0
  4  8  1  0
  8  9  1  0
  8 10  1  0
  4 11  1  0
 11 12  1  0
 11 13  1  0
  1 14  1  0
  1 15  1  0
  1 16  1  0
  3 17  1  0
  3 18  1  0
  3 19  1  0
  9 20  1  0
  9 21  1  0
  9 22  1  0
 10 23  1  0
 10 24  1  0
 10 25  1  0
 11 26  1  0
 12 27  1  0
 12 28  1  0
 12 29  1  0
 13 30  1  0
 13 31  1  0
 13 32  1  0
M  CHG  3   6   1   7  -1  11   1
M  END
>  <Binding energies>  (1) 
[-5.26]

>  <Ligand effiencies>  (1) 
[-0.3757142857142857]

>  <Interactions>  (1) 
["V-A:PRO:540:N:4884, V-A:PRO:540:CB:4885, V-A:PRO:540:CA:4883, H-A:ALA:541:N:4891, V-A:ALA:541:CA:4890, V-A:ALA:541:CB:4892, V-A:PRO:540:C:4881, V-A:GLU:543:CG:4907, V-A:GLU:543:CD:4908, H-A:ASP:366:OD2:3215, V-A:TYR:539:C:4867, H-B:TYR:484:OH:9319, H-A:GLU:543:OE1:4909, V-A:ASN:362:CB:3176"]

$$$$
ZINC1957719113
     RDKit          3D

 36 37  0  0  0  0  0  0  0  0999 V2000
  133.5810  124.4140   58.6910 C   0  0  0  0  0  0  0  0  0  0  0  0
  132.8880  124.3940   60.0670 C   0  0  2  0  0  0  0  0  0  0  0  0
  133.6530  123.5170   61.0760 C   0  0  0  0  0  0  0  0  0  0  0  0
  134.6450  124.3130   61.9400 C   0  0  0  0  0  0  0  0  0  0  0  0
  134.0810  124.7140   63.2370 C   0  0  0  0  0  0  0  0  0  0  0  0
  133.6370  125.0320   64.2580 N   0  0  0  0  0  0  0  0  0  0  0  0
  131.5610  123.8810   59.9780 O   0  0  0  0  0  0  0  0  0  0  0  0
  131.2120  122.8690   60.9180 C   0  0  0  0  0  0  0  0  0  0  0  0
  130.4010  123.4790   62.0790 C   0  0  2  0  0  0  0  0  0  0  0  0
  130.5600  125.0080   62.2090 C   0  0  0  0  0  0  0  0  0  0  0  0
  130.3360  125.3110   63.6950 C   0  0  2  0  0  0  0  0  0  0  0  0
  130.9830  126.5770   64.2710 N   0  0  0  0  0  0  0  0  0  0  0  0
  130.7880  124.0510   64.4510 C   0  0  1  0  0  0  0  0  0  0  0  0
  129.7650  122.9340   64.5490 C   0  0  0  0  0  0  0  0  0  0  0  0
  130.8130  122.9190   63.4570 C   0  0  1  0  0  0  0  0  0  0  0  0
  134.6717  124.4455   58.8302 H   0  0  0  0  0  0  0  0  0  0  0  0
  133.3089  123.5076   58.1302 H   0  0  0  0  0  0  0  0  0  0  0  0
  133.2571  125.3032   58.1302 H   0  0  0  0  0  0  0  0  0  0  0  0
  132.8703  125.4391   60.4096 H   0  0  0  0  0  0  0  0  0  0  0  0
  132.9234  123.0303   61.7399 H   0  0  0  0  0  0  0  0  0  0  0  0
  134.2368  122.7861   60.4973 H   0  0  0  0  0  0  0  0  0  0  0  0
  135.5322  123.6885   62.1212 H   0  0  0  0  0  0  0  0  0  0  0  0
  134.8965  125.2325   61.3912 H   0  0  0  0  0  0  0  0  0  0  0  0
  130.6064  122.1000   60.4162 H   0  0  0  0  0  0  0  0  0  0  0  0
  132.1318  122.4190   61.3197 H   0  0  0  0  0  0  0  0  0  0  0  0
  129.3662  123.2103   61.8201 H   0  0  0  0  0  0  0  0  0  0  0  0
  131.5690  125.3185   61.8999 H   0  0  0  0  0  0  0  0  0  0  0  0
  129.8504  125.5510   61.5674 H   0  0  0  0  0  0  0  0  0  0  0  0
  129.2694  125.5485   63.8213 H   0  0  0  0  0  0  0  0  0  0  0  0
  131.9530  126.3990   64.4900 H   0  0  0  0  0  0  0  0  0  0  0  0
  130.5060  126.8570   65.1160 H   0  0  0  0  0  0  0  0  0  0  0  0
  130.9320  127.3320   63.6020 H   0  0  0  0  0  0  0  0  0  0  0  0
  131.4457  124.5125   65.2023 H   0  0  0  0  0  0  0  0  0  0  0  0
  129.8185  122.2086   65.3742 H   0  0  0  0  0  0  0  0  0  0  0  0
  128.6666  122.8824   64.5769 H   0  0  0  0  0  0  0  0  0  0  0  0
  131.4982  122.1298   63.1141 H   0  0  0  0  0  0  0  0  0  0  0  0
  1  2  1  0
  2  3  1  0
  3  4  1  0
  4  5  1  0
  5  6  3  0
  2  7  1  0
  7  8  1  0
  8  9  1  0
  9 10  1  0
 10 11  1  0
 11 12  1  0
 11 13  1  0
 13 14  1  0
 14 15  1  0
 15  9  1  0
 15 13  1  0
  1 16  1  0
  1 17  1  0
  1 18  1  0
  2 19  1  1
  3 20  1  0
  3 21  1  0
  4 22  1  0
  4 23  1  0
  8 24  1  0
  8 25  1  0
  9 26  1  6
 10 27  1  0
 10 28  1  0
 11 29  1  6
 12 30  1  0
 12 31  1  0
 12 32  1  0
 13 33  1  1
 14 34  1  0
 14 35  1  0
 15 36  1  6
M  CHG  1  12   1
M  END
>  <Binding energies>  (1) 
[-5.36]

>  <Ligand effiencies>  (1) 
[-0.2977777777777778]

>  <Interactions>  (1) 
["V-A:ILE:369:CG2:3237, V-A:ASP:366:CA:3210, H-A:GLU:543:OE2:4910, V-A:ILE:369:CB:3236, V-B:ALA:541:CB:9864, H-A:ARG:545:NH1:4927, V-B:TYR:539:CE2:9848, V-A:TYR:484:CE2:4346, V-B:GLU:543:CG:9879, V-A:ASP:366:CG:3213, V-A:GLU:543:CD:4908, H-A:GLY:454:N:4050, V-A:GLY:453:C:4042, V-A:ILE:369:CD1:3239, V-A:ASP:366:C:3208, V-A:ASP:366:CB:3212, V-A:LEU:475:CD2:4259, H-A:ARG:545:NH2:4928, V-A:ARG:545:CZ:4926, H-A:GLU:543:OE1:4909, V-A:GLY:453:CA:4044, H-A:ARG:545:NE:4924, H-A:TYR:484:OH:4348"]

$$$$
ZINC195787954
     RDKit          3D

 72 71  0  0  0  0  0  0  0  0999 V2000
  133.6190  124.3440   58.4120 C   0  0  0  0  0  0  0  0  0  0  0  0
  132.6300  124.1390   59.5700 C   0  0  0  0  0  0  0  0  0  0  0  0
  133.2780  123.5730   60.8470 C   0  0  0  0  0  0  0  0  0  0  0  0
  134.1640  124.2300   61.3970 O   0  0  0  0  0  0  0  0  0  0  0  0
  132.8730  122.1570   61.3700 C   0  0  0  0  0  0  0  0  0  0  0  0
  133.1460  121.1520   60.2200 C   0  0  0  0  0  0  0  0  0  0  0  0
  133.8240  121.7420   62.5330 C   0  0  0  0  0  0  0  0  0  0  0  0
  131.3670  122.0760   61.8200 C   0  0  2  0  0  0  0  0  0  0  0  0
  130.3650  121.8210   60.6570 C   0  0  0  0  0  0  0  0  0  0  0  0
  129.6390  123.0760   60.1600 C   0  0  0  0  0  0  0  0  0  0  0  0
  128.2430  122.8700   60.2180 O   0  0  0  0  0  0  0  0  0  0  0  0
  127.0940  124.0270   59.8190 Si  0  0  0  0  0  4  0  0  0  0  0  0
  125.5190  123.6330   60.7800 C   0  0  0  0  0  0  0  0  0  0  0  0
  127.7710  125.7130   60.3330 C   0  0  0  0  0  0  0  0  0  0  0  0
  126.8110  123.9320   57.9400 C   0  0  0  0  0  0  0  0  0  0  0  0
  127.8370  124.8220   57.2060 C   0  0  0  0  0  0  0  0  0  0  0  0
  126.9730  122.4750   57.4580 C   0  0  0  0  0  0  0  0  0  0  0  0
  125.3880  124.4210   57.5980 C   0  0  0  0  0  0  0  0  0  0  0  0
  130.9830  123.2950   62.4490 O   0  0  0  0  0  0  0  0  0  0  0  0
  129.9200  123.5130   63.7430 Si  0  0  0  0  0  4  0  0  0  0  0  0
  128.1310  123.4280   63.1420 C   0  0  0  0  0  0  0  0  0  0  0  0
  130.2020  122.1490   65.0150 C   0  0  0  0  0  0  0  0  0  0  0  0
  130.3120  125.2220   64.4820 C   0  0  0  0  0  0  0  0  0  0  0  0
  129.5250  126.3140   63.7260 C   0  0  0  0  0  0  0  0  0  0  0  0
  129.9160  125.2590   65.9740 C   0  0  0  0  0  0  0  0  0  0  0  0
  131.8220  125.5120   64.3550 C   0  0  0  0  0  0  0  0  0  0  0  0
  134.6203  124.5515   58.8174 H   0  0  0  0  0  0  0  0  0  0  0  0
  133.6546  123.4342   57.7948 H   0  0  0  0  0  0  0  0  0  0  0  0
  133.2901  125.1931   57.7948 H   0  0  0  0  0  0  0  0  0  0  0  0
  132.1745  125.1103   59.8133 H   0  0  0  0  0  0  0  0  0  0  0  0
  131.8890  123.3998   59.2317 H   0  0  0  0  0  0  0  0  0  0  0  0
  133.4120  120.1726   60.6444 H   0  0  0  0  0  0  0  0  0  0  0  0
  132.2430  121.0500   59.6001 H   0  0  0  0  0  0  0  0  0  0  0  0
  133.9765  121.5208   59.6001 H   0  0  0  0  0  0  0  0  0  0  0  0
  133.3385  121.9539   63.4970 H   0  0  0  0  0  0  0  0  0  0  0  0
  134.0431  120.6664   62.4614 H   0  0  0  0  0  0  0  0  0  0  0  0
  134.7616  122.3128   62.4614 H   0  0  0  0  0  0  0  0  0  0  0  0
  131.3168  121.2163   62.5043 H   0  0  0  0  0  0  0  0  0  0  0  0
  130.9212  121.3881   59.8124 H   0  0  0  0  0  0  0  0  0  0  0  0
  129.5911  121.1463   61.0517 H   0  0  0  0  0  0  0  0  0  0  0  0
  129.9095  123.9316   60.7963 H   0  0  0  0  0  0  0  0  0  0  0  0
  129.9350  123.2818   59.1208 H   0  0  0  0  0  0  0  0  0  0  0  0
  125.7254  123.6846   61.8592 H   0  0  0  0  0  0  0  0  0  0  0  0
  124.7387  124.3636   60.5205 H   0  0  0  0  0  0  0  0  0  0  0  0
  125.1746  122.6210   60.5205 H   0  0  0  0  0  0  0  0  0  0  0  0
  127.7973  125.7784   61.4307 H   0  0  0  0  0  0  0  0  0  0  0  0
  128.7885  125.8367   59.9339 H   0  0  0  0  0  0  0  0  0  0  0  0
  127.1216  126.5061   59.9339 H   0  0  0  0  0  0  0  0  0  0  0  0
  128.4531  125.3565   57.9441 H   0  0  0  0  0  0  0  0  0  0  0  0
  128.4830  124.1934   56.5755 H   0  0  0  0  0  0  0  0  0  0  0  0
  127.3059  125.5503   56.5755 H   0  0  0  0  0  0  0  0  0  0  0  0
  127.0473  121.8069   58.3287 H   0  0  0  0  0  0  0  0  0  0  0  0
  126.1009  122.1905   56.8509 H   0  0  0  0  0  0  0  0  0  0  0  0
  127.8862  122.3890   56.8509 H   0  0  0  0  0  0  0  0  0  0  0  0
  124.8325  124.6119   58.5280 H   0  0  0  0  0  0  0  0  0  0  0  0
  125.4504  125.3492   57.0111 H   0  0  0  0  0  0  0  0  0  0  0  0
  124.8667  123.6505   57.0111 H   0  0  0  0  0  0  0  0  0  0  0  0
  127.4542  123.3958   64.0086 H   0  0  0  0  0  0  0  0  0  0  0  0
  127.9059  124.3165   62.5337 H   0  0  0  0  0  0  0  0  0  0  0  0
  127.9912  122.5222   62.5337 H   0  0  0  0  0  0  0  0  0  0  0  0
  130.1152  122.5687   66.0281 H   0  0  0  0  0  0  0  0  0  0  0  0
  129.4481  121.3596   64.8794 H   0  0  0  0  0  0  0  0  0  0  0  0
  131.2072  121.7233   64.8794 H   0  0  0  0  0  0  0  0  0  0  0  0
  129.0412  126.9854   64.4507 H   0  0  0  0  0  0  0  0  0  0  0  0
  130.2152  126.8925   63.0943 H   0  0  0  0  0  0  0  0  0  0  0  0
  128.7579  125.8422   63.0943 H   0  0  0  0  0  0  0  0  0  0  0  0
  130.8197  125.1746   66.5954 H   0  0  0  0  0  0  0  0  0  0  0  0
  129.4066  126.2086   66.1947 H   0  0  0  0  0  0  0  0  0  0  0  0
  129.2395  124.4201   66.1947 H   0  0  0  0  0  0  0  0  0  0  0  0
  132.2647  125.5970   65.3584 H   0  0  0  0  0  0  0  0  0  0  0  0
  132.3083  124.6908   63.8080 H   0  0  0  0  0  0  0  0  0  0  0  0
  131.9696  126.4549   63.8080 H   0  0  0  0  0  0  0  0  0  0  0  0
  1  2  1  0
  2  3  1  0
  3  4  2  0
  3  5  1  0
  5  6  1  0
  5  7  1  0
  5  8  1  0
  8  9  1  0
  9 10  1  0
 10 11  1  0
 11 12  1  0
 12 13  1  0
 12 14  1  0
 12 15  1  0
 15 16  1  0
 15 17  1  0
 15 18  1  0
  8 19  1  0
 19 20  1  0
 20 21  1  0
 20 22  1  0
 20 23  1  0
 23 24  1  0
 23 25  1  0
 23 26  1  0
  1 27  1  0
  1 28  1  0
  1 29  1  0
  2 30  1  0
  2 31  1  0
  6 32  1  0
  6 33  1  0
  6 34  1  0
  7 35  1  0
  7 36  1  0
  7 37  1  0
  8 38  1  1
  9 39  1  0
  9 40  1  0
 10 41  1  0
 10 42  1  0
 13 43  1  0
 13 44  1  0
 13 45  1  0
 14 46  1  0
 14 47  1  0
 14 48  1  0
 16 49  1  0
 16 50  1  0
 16 51  1  0
 17 52  1  0
 17 53  1  0
 17 54  1  0
 18 55  1  0
 18 56  1  0
 18 57  1  0
 21 58  1  0
 21 59  1  0
 21 60  1  0
 22 61  1  0
 22 62  1  0
 22 63  1  0
 24 64  1  0
 24 65  1  0
 24 66  1  0
 25 67  1  0
 25 68  1  0
 25 69  1  0
 26 70  1  0
 26 71  1  0
 26 72  1  0
M  END
>  <Binding energies>  (1) 
[-5.66]

>  <Ligand effiencies>  (1) 
[-0.21769230769230768]

>  <Interactions>  (1) 
["V-A:ILE:369:CG2:3237, V-A:ASP:366:CA:3210, V-B:PRO:540:CA:9855, V-A:GLY:454:CA:4049, V-A:ILE:369:CB:3236, V-B:GLU:543:CB:9878, V-B:ALA:541:CB:9864, V-B:TYR:539:CE2:9848, V-A:TYR:484:CE2:4346, V-B:GLU:543:CG:9879, V-B:TYR:539:C:9839, V-B:TYR:539:CZ:9849, V-A:TYR:484:CZ:4347, V-A:GLU:543:CD:4908, V-B:PRO:540:CB:9857, V-B:PRO:540:N:9856, V-A:ASP:366:C:3208, V-B:TYR:539:CD2:9846, V-B:PRO:540:CD:9859, V-B:GLU:543:CD:9880, V-A:ASP:366:CB:3212, V-A:LEU:475:CD2:4259, V-A:ARG:545:CZ:4926"]

$$$$
ZINC195797513
     RDKit          3D

 25 25  0  0  0  0  0  0  0  0999 V2000
  133.6420  130.3830   57.9130 C   0  0  0  0  0  0  0  0  0  0  0  0
  131.7830  130.6070   58.1230 Si  0  0  0  0  0  4  0  0  0  0  0  0
  130.9380  130.8250   56.4500 C   0  0  0  0  0  0  0  0  0  0  0  0
  131.0550  129.1400   59.0560 C   0  0  0  0  0  0  0  0  0  0  0  0
  131.5270  131.9900   59.0470 O   0  0  0  0  0  0  0  0  0  0  0  0
  130.6220  132.1700   60.0590 C   0  0  0  0  0  0  0  0  0  0  0  0
  131.0030  131.9690   61.3920 C   0  0  0  0  0  0  0  0  0  0  0  0
  132.7850  131.4580   61.8310 Br  0  0  0  0  0  0  0  0  0  0  0  0
  130.0780  132.1480   62.4200 C   0  0  0  0  0  0  0  0  0  0  0  0
  128.7700  132.5330   62.1250 C   0  0  0  0  0  0  0  0  0  0  0  0
  127.5100  132.7780   63.5300 Br  0  0  0  0  0  0  0  0  0  0  0  0
  128.3880  132.7430   60.8010 C   0  0  0  0  0  0  0  0  0  0  0  0
  129.3090  132.5650   59.7680 C   0  0  0  0  0  0  0  0  0  0  0  0
  128.7570  132.8760   57.9720 Br  0  0  0  0  0  0  0  0  0  0  0  0
  134.1185  130.3256   58.9028 H   0  0  0  0  0  0  0  0  0  0  0  0
  133.8389  129.4546   57.3568 H   0  0  0  0  0  0  0  0  0  0  0  0
  134.0538  131.2380   57.3568 H   0  0  0  0  0  0  0  0  0  0  0  0
  129.8834  131.0971   56.6045 H   0  0  0  0  0  0  0  0  0  0  0  0
  131.4433  131.6222   55.8851 H   0  0  0  0  0  0  0  0  0  0  0  0
  130.9946  129.8828   55.8851 H   0  0  0  0  0  0  0  0  0  0  0  0
  131.1416  129.3145   60.1386 H   0  0  0  0  0  0  0  0  0  0  0  0
  129.9947  129.0239   58.7869 H   0  0  0  0  0  0  0  0  0  0  0  0
  131.6038  128.2254   58.7869 H   0  0  0  0  0  0  0  0  0  0  0  0
  130.3801  131.9854   63.4651 H   0  0  0  0  0  0  0  0  0  0  0  0
  127.3573  133.0500   60.5698 H   0  0  0  0  0  0  0  0  0  0  0  0
  1  2  1  0
  2  3  1  0
  2  4  1  0
  2  5  1  0
  5  6  1  0
  6  7  2  0
  7  8  1  0
  7  9  1  0
  9 10  2  0
 10 11  1  0
 10 12  1  0
 12 13  2  0
 13 14  1  0
 13  6  1  0
  1 15  1  0
  1 16  1  0
  1 17  1  0
  3 18  1  0
  3 19  1  0
  3 20  1  0
  4 21  1  0
  4 22  1  0
  4 23  1  0
  9 24  1  0
 12 25  1  0
M  END
>  <Binding energies>  (1) 
[-5.19]

>  <Ligand effiencies>  (1) 
[-0.3707142857142857]

>  <Interactions>  (1) 
["V-A:LEU:363:CD1:3189, V-A:PRO:540:N:4884, V-A:TYR:539:CD1:4873, V-A:LEU:363:CA:3185, V-A:PRO:540:CB:4885, V-A:PRO:540:CA:4883, V-A:TYR:531:CE2:4793, V-A:TYR:539:CG:4872, V-A:PRO:540:C:4881, V-A:ALA:541:CB:4892, V-A:TYR:531:CZ:4794, V-A:MET:535:CE:4835, V-A:TYR:539:C:4867, V-A:ASP:366:CB:3212, V-B:LEU:475:CD2:9230, V-A:TYR:539:CE1:4875, V-A:ASP:366:CG:3213, V-A:ASN:362:CB:3176"]

$$$$
ZINC195801970
     RDKit          3D

 40 40  0  0  0  0  0  0  0  0999 V2000
  132.8620  122.2870   60.2040 C   0  0  0  0  0  0  0  0  0  0  0  0
  131.9290  123.4930   60.3120 C   0  0  0  0  0  0  0  0  0  0  0  0
  132.0890  124.5400   59.4000 C   0  0  0  0  0  0  0  0  0  0  0  0
  131.3450  125.8420   59.2520 C   0  0  0  0  0  0  0  0  0  0  0  0
  130.4160  126.3140   59.8880 O   0  0  0  0  0  0  0  0  0  0  0  0
  131.8370  126.5520   58.2350 O   0  0  0  0  0  0  0  0  0  0  0  0
  132.8230  125.8840   57.6790 C   0  0  0  0  0  0  0  0  0  0  0  0
  133.0430  124.7210   58.2720 C   0  0  0  0  0  0  0  0  0  0  0  0
  133.9810  123.9600   57.8280 O   0  0  0  0  0  0  0  0  0  0  0  0
  131.0120  123.2620   61.4290 N   0  0  0  0  0  0  0  0  0  0  0  0
  129.4100  122.4390   61.3710 Si  0  0  0  0  0  4  0  0  0  0  0  0
  128.5810  123.0310   59.7690 C   0  0  0  0  0  0  0  0  0  0  0  0
  129.7630  120.5990   61.6700 C   0  0  0  0  0  0  0  0  0  0  0  0
  128.0780  122.8190   62.6850 C   0  0  0  0  0  0  0  0  0  0  0  0
  131.2300  123.7390   63.1770 Si  0  0  0  0  0  4  0  0  0  0  0  0
  130.6260  122.6110   64.5910 C   0  0  0  0  0  0  0  0  0  0  0  0
  133.0910  123.8350   63.5130 C   0  0  0  0  0  0  0  0  0  0  0  0
  130.2180  125.3140   63.4670 C   0  0  0  0  0  0  0  0  0  0  0  0
  133.1306  121.9398   61.2126 H   0  0  0  0  0  0  0  0  0  0  0  0
  132.3530  121.4771   59.6608 H   0  0  0  0  0  0  0  0  0  0  0  0
  133.7738  122.5763   59.6608 H   0  0  0  0  0  0  0  0  0  0  0  0
  133.4007  126.2502   56.8175 H   0  0  0  0  0  0  0  0  0  0  0  0
  127.7087  123.6539   60.0161 H   0  0  0  0  0  0  0  0  0  0  0  0
  129.2989  123.6220   59.1813 H   0  0  0  0  0  0  0  0  0  0  0  0
  128.2550  122.1601   59.1813 H   0  0  0  0  0  0  0  0  0  0  0  0
  129.8004  120.4039   62.7519 H   0  0  0  0  0  0  0  0  0  0  0  0
  128.9646  119.9939   61.2157 H   0  0  0  0  0  0  0  0  0  0  0  0
  130.7287  120.3324   61.2157 H   0  0  0  0  0  0  0  0  0  0  0  0
  128.5086  122.6962   63.6898 H   0  0  0  0  0  0  0  0  0  0  0  0
  127.7254  123.8536   62.5612 H   0  0  0  0  0  0  0  0  0  0  0  0
  127.2326  122.1262   62.5612 H   0  0  0  0  0  0  0  0  0  0  0  0
  130.8729  123.0720   65.5587 H   0  0  0  0  0  0  0  0  0  0  0  0
  129.5366  122.4791   64.5150 H   0  0  0  0  0  0  0  0  0  0  0  0
  131.1201  121.6312   64.5150 H   0  0  0  0  0  0  0  0  0  0  0  0
  133.2676  123.8441   64.5987 H   0  0  0  0  0  0  0  0  0  0  0  0
  133.5895  122.9614   63.0677 H   0  0  0  0  0  0  0  0  0  0  0  0
  133.4970  124.7553   63.0677 H   0  0  0  0  0  0  0  0  0  0  0  0
  130.1079  125.4853   64.5480 H   0  0  0  0  0  0  0  0  0  0  0  0
  130.7348  126.1711   63.0107 H   0  0  0  0  0  0  0  0  0  0  0  0
  129.2236  125.2001   63.0107 H   0  0  0  0  0  0  0  0  0  0  0  0
  1  2  1  0
  2  3  2  0
  3  4  1  0
  4  5  2  0
  4  6  1  0
  6  7  1  0
  7  8  2  0
  8  9  1  0
  2 10  1  0
 10 11  1  0
 11 12  1  0
 11 13  1  0
 11 14  1  0
 10 15  1  0
 15 16  1  0
 15 17  1  0
 15 18  1  0
  8  3  1  0
  1 19  1  0
  1 20  1  0
  1 21  1  0
  7 22  1  0
 12 23  1  0
 12 24  1  0
 12 25  1  0
 13 26  1  0
 13 27  1  0
 13 28  1  0
 14 29  1  0
 14 30  1  0
 14 31  1  0
 16 32  1  0
 16 33  1  0
 16 34  1  0
 17 35  1  0
 17 36  1  0
 17 37  1  0
 18 38  1  0
 18 39  1  0
 18 40  1  0
M  CHG  1   9  -1
M  END
>  <Binding energies>  (1) 
[-4.54]

>  <Ligand effiencies>  (1) 
[-0.25222222222222224]

>  <Interactions>  (1) 
["V-A:ILE:369:CG2:3237, V-A:ASP:366:CA:3210, V-B:PRO:540:CA:9855, V-A:GLY:454:CA:4049, V-B:ALA:541:CB:9864, H-A:TYR:531:OH:4795, V-B:TYR:539:CE2:9848, V-A:TYR:484:CE2:4346, V-B:GLU:543:CG:9879, V-A:ASP:366:CG:3213, V-B:TYR:539:CZ:9849, H-A:ASN:370:N:3244, H-B:TYR:539:OH:9850, V-A:TYR:484:CZ:4347, V-A:ASP:366:C:3208, V-B:TYR:539:CD2:9846, V-A:TYR:531:CZ:4794, V-B:GLU:543:CD:9880, V-A:ASP:366:CB:3212, V-A:LEU:475:CD2:4259, V-B:ALA:541:CA:9862"]

$$$$
ZINC1958118152
     RDKit          3D

 33 35  0  0  0  0  0  0  0  0999 V2000
  129.8620  123.9540   66.1500 C   0  0  0  0  0  0  0  0  0  0  0  0
  131.0180  124.9500   66.3880 N   0  0  1  0  0  0  0  0  0  0  0  0
  131.6360  125.4680   65.0640 C   0  0  0  0  0  0  0  0  0  0  0  0
  132.5900  124.4330   64.4420 C   0  0  1  0  0  0  0  0  0  0  0  0
  133.3650  124.7930   63.2110 C   0  0  0  0  0  0  0  0  0  0  0  0
  133.9590  124.7460   64.4800 O   0  0  0  0  0  0  0  0  0  0  0  0
  130.6310  126.1390   67.3060 C   0  0  0  0  0  0  0  0  0  0  0  0
  129.1110  126.4630   67.2600 C   0  0  2  0  0  0  0  0  0  0  0  0
  128.6810  127.6230   66.3410 C   0  0  0  0  0  0  0  0  0  0  0  0
  128.3060  128.7610   67.3160 C   0  0  0  0  0  0  0  0  0  0  0  0
  129.1060  128.4410   68.5950 C   0  0  2  0  0  0  0  0  0  0  0  0
  128.4760  126.9840   68.5540 C   0  0  2  0  0  0  0  0  0  0  0  0
  129.0410  127.4980   69.7860 C   0  0  0  0  0  0  0  0  0  0  0  0
  130.1810  126.9710   70.2330 F   0  0  0  0  0  0  0  0  0  0  0  0
  128.1920  127.8040   70.7660 F   0  0  0  0  0  0  0  0  0  0  0  0
  129.4665  123.6132   67.1182 H   0  0  0  0  0  0  0  0  0  0  0  0
  129.0618  124.4501   65.5811 H   0  0  0  0  0  0  0  0  0  0  0  0
  130.2343  123.0893   65.5811 H   0  0  0  0  0  0  0  0  0  0  0  0
  131.7520  124.4460   66.8680 H   0  0  0  0  0  0  0  0  0  0  0  0
  130.8259  125.6808   64.3510 H   0  0  0  0  0  0  0  0  0  0  0  0
  132.2126  126.3781   65.2860 H   0  0  0  0  0  0  0  0  0  0  0  0
  131.9438  123.5912   64.7313 H   0  0  0  0  0  0  0  0  0  0  0  0
  133.6004  124.0262   62.4582 H   0  0  0  0  0  0  0  0  0  0  0  0
  133.2722  125.5400   62.4089 H   0  0  0  0  0  0  0  0  0  0  0  0
  130.9062  125.8884   68.3411 H   0  0  0  0  0  0  0  0  0  0  0  0
  131.1709  127.0268   66.9449 H   0  0  0  0  0  0  0  0  0  0  0  0
  128.7884  125.4596   66.9451 H   0  0  0  0  0  0  0  0  0  0  0  0
  129.5095  127.9286   65.6851 H   0  0  0  0  0  0  0  0  0  0  0  0
  127.8493  127.3472   65.6760 H   0  0  0  0  0  0  0  0  0  0  0  0
  128.5998  129.7387   66.9063 H   0  0  0  0  0  0  0  0  0  0  0  0
  127.2230  128.8193   67.4995 H   0  0  0  0  0  0  0  0  0  0  0  0
  129.7483  129.3327   68.6432 H   0  0  0  0  0  0  0  0  0  0  0  0
  127.6073  126.3096   68.5312 H   0  0  0  0  0  0  0  0  0  0  0  0
  1  2  1  0
  2  3  1  0
  3  4  1  0
  4  5  1  0
  5  6  1  0
  2  7  1  0
  7  8  1  0
  8  9  1  0
  9 10  1  0
 10 11  1  0
 11 12  1  0
 12 13  1  0
 13 14  1  0
 13 15  1  0
  6  4  1  0
 12  8  1  0
 13 11  1  0
  1 16  1  0
  1 17  1  0
  1 18  1  0
  2 19  1  1
  3 20  1  0
  3 21  1  0
  4 22  1  6
  5 23  1  0
  5 24  1  0
  7 25  1  0
  7 26  1  0
  8 27  1  6
  9 28  1  0
  9 29  1  0
 10 30  1  0
 10 31  1  0
 11 32  1  6
 12 33  1  1
M  CHG  1   2   1
M  END
>  <Binding energies>  (1) 
[-5.27]

>  <Ligand effiencies>  (1) 
[-0.329375]

>  <Interactions>  (1) 
["V-B:HIS:456:CD2:9039, V-B:GLU:543:CB:9878, H-A:ARG:545:NH1:4927, V-A:TYR:484:CE2:4346, V-B:GLU:543:CG:9879, V-A:HIS:456:CD2:4068, V-A:TYR:484:CZ:4347, V-A:GLU:543:CD:4908, V-B:HIS:456:CE1:9041, V-B:GLU:543:CA:9876, H-A:GLY:454:N:4050, V-A:HIS:456:CE1:4070, V-A:GLU:543:CG:4907, V-B:GLU:543:CD:9880, H-A:ARG:545:NH2:4928, V-A:ARG:545:CZ:4926, V-A:GLU:543:CB:4906, H-A:ARG:545:NE:4924, H-A:TYR:484:OH:4348"]

$$$$
ZINC1958200688
     RDKit          3D

 40 39  0  0  0  0  0  0  0  0999 V2000
  133.6210  132.1580   62.0180 C   0  0  0  0  0  0  0  0  0  0  0  0
  132.3460  131.7560   61.8960 C   0  0  0  0  0  0  0  0  0  0  0  0
  131.6850  131.3540   60.5890 C   0  0  0  0  0  0  0  0  0  0  0  0
  130.6530  130.2090   60.7330 C   0  0  2  0  0  0  0  0  0  0  0  0
  129.4780  130.5520   61.6700 C   0  0  0  0  0  0  0  0  0  0  0  0
  131.3350  128.9410   61.2870 N   0  0  0  0  0  0  0  0  0  0  0  0
  131.0130  127.6280   60.5530 C   0  0  0  0  0  0  0  0  0  0  0  0
  131.4540  127.7490   59.0880 C   0  0  0  0  0  0  0  0  0  0  0  0
  131.7480  126.3780   58.4490 C   0  0  0  0  0  0  0  0  0  0  0  0
  132.3720  125.4220   59.3620 N   0  0  0  0  0  0  0  0  0  0  0  0
  133.2460  124.4650   59.0010 C   0  0  0  0  0  0  0  0  0  0  0  0
  133.6200  124.2990   57.8380 O   0  0  0  0  0  0  0  0  0  0  0  0
  133.7640  123.5740   60.1410 C   0  0  0  0  0  0  0  0  0  0  0  0
  134.3460  124.3450   61.3470 C   0  0  0  0  0  0  0  0  0  0  0  0
  133.6590  123.9800   62.6700 C   0  0  0  0  0  0  0  0  0  0  0  0
  134.0193  132.4315   63.0062 H   0  0  0  0  0  0  0  0  0  0  0  0
  134.2674  132.2139   61.1298 H   0  0  0  0  0  0  0  0  0  0  0  0
  131.7351  131.7147   62.8098 H   0  0  0  0  0  0  0  0  0  0  0  0
  131.1702  132.2342   60.1764 H   0  0  0  0  0  0  0  0  0  0  0  0
  132.4830  130.9829   59.9290 H   0  0  0  0  0  0  0  0  0  0  0  0
  130.2521  130.0468   59.7216 H   0  0  0  0  0  0  0  0  0  0  0  0
  129.8037  130.4569   62.7164 H   0  0  0  0  0  0  0  0  0  0  0  0
  129.1476  131.5841   61.4811 H   0  0  0  0  0  0  0  0  0  0  0  0
  128.6443  129.8597   61.4811 H   0  0  0  0  0  0  0  0  0  0  0  0
  132.3350  129.0830   61.2940 H   0  0  0  0  0  0  0  0  0  0  0  0
  131.0370  128.8310   62.2470 H   0  0  0  0  0  0  0  0  0  0  0  0
  131.5513  126.7969   61.0320 H   0  0  0  0  0  0  0  0  0  0  0  0
  129.9312  127.4340   60.5990 H   0  0  0  0  0  0  0  0  0  0  0  0
  130.6525  128.2405   58.5170 H   0  0  0  0  0  0  0  0  0  0  0  0
  132.3835  128.3367   59.0645 H   0  0  0  0  0  0  0  0  0  0  0  0
  130.7986  125.9500   58.0947 H   0  0  0  0  0  0  0  0  0  0  0  0
  132.4628  126.5528   57.6314 H   0  0  0  0  0  0  0  0  0  0  0  0
  132.1070  125.4910   60.3340 H   0  0  0  0  0  0  0  0  0  0  0  0
  132.9280  122.9559   60.5002 H   0  0  0  0  0  0  0  0  0  0  0  0
  134.5904  122.9811   59.7221 H   0  0  0  0  0  0  0  0  0  0  0  0
  135.4176  124.1110   61.4305 H   0  0  0  0  0  0  0  0  0  0  0  0
  134.1768  125.4173   61.1692 H   0  0  0  0  0  0  0  0  0  0  0  0
  134.2844  124.3122   63.5117 H   0  0  0  0  0  0  0  0  0  0  0  0
  132.6787  124.4762   62.7232 H   0  0  0  0  0  0  0  0  0  0  0  0
  133.5215  122.8899   62.7232 H   0  0  0  0  0  0  0  0  0  0  0  0
  1  2  2  0
  2  3  1  0
  3  4  1  0
  4  5  1  0
  4  6  1  0
  6  7  1  0
  7  8  1  0
  8  9  1  0
  9 10  1  0
 10 11  1  0
 11 12  2  0
 11 13  1  0
 13 14  1  0
 14 15  1  0
  1 16  1  0
  1 17  1  0
  2 18  1  0
  3 19  1  0
  3 20  1  0
  4 21  1  6
  5 22  1  0
  5 23  1  0
  5 24  1  0
  6 25  1  0
  6 26  1  0
  7 27  1  0
  7 28  1  0
  8 29  1  0
  8 30  1  0
  9 31  1  0
  9 32  1  0
 10 33  1  0
 13 34  1  0
 13 35  1  0
 14 36  1  0
 14 37  1  0
 15 38  1  0
 15 39  1  0
 15 40  1  0
M  CHG  1   6   1
M  END
>  <Binding energies>  (1) 
[-5.38]

>  <Ligand effiencies>  (1) 
[-0.29888888888888887]

>  <Interactions>  (1) 
["V-A:ILE:369:CG2:3237, V-A:ASP:366:CA:3210, V-A:ILE:369:CD1:3239, V-A:PRO:540:CB:4885, V-A:PRO:540:CA:4883, V-A:ILE:369:CB:3236, H-B:TYR:539:OH:9850, V-A:GLU:543:CD:4908, H-A:ASP:366:OD2:3215, V-A:ASP:366:CB:3212, V-B:TYR:539:CE2:9848, V-A:ASN:362:C:3172, H-A:GLU:543:OE1:4909, V-A:ASP:366:CG:3213, V-A:ASN:362:CB:3176, H-A:ASP:366:OD1:3214"]

$$$$
ZINC1958303921
     RDKit          3D

 36 37  0  0  0  0  0  0  0  0999 V2000
  126.7530  128.8310   74.8410 C   0  0  0  0  0  0  0  0  0  0  0  0
  127.1700  128.0950   73.5530 C   0  0  0  0  0  0  0  0  0  0  0  0
  128.7080  127.9130   73.3270 C   0  0  2  0  0  0  0  0  0  0  0  0
  129.3360  127.3420   74.6320 C   0  0  0  0  0  0  0  0  0  0  0  0
  129.3260  129.2350   73.0890 C   0  0  0  0  0  0  0  0  0  0  0  0
  129.8120  130.2690   72.9000 N   0  0  0  0  0  0  0  0  0  0  0  0
  129.0030  126.9800   72.0860 C   0  0  0  0  0  0  0  0  0  0  0  0
  128.9740  125.6350   72.5480 O   0  0  0  0  0  0  0  0  0  0  0  0
  130.3990  127.2390   71.4090 C   0  0  0  0  0  0  0  0  0  0  0  0
  130.0370  127.7870   70.0320 C   0  0  1  0  0  0  0  0  0  0  0  0
  130.8940  127.6260   68.7820 C   0  0  0  0  0  0  0  0  0  0  0  0
  129.8460  127.7520   67.6510 N   0  0  0  0  0  0  0  0  0  0  0  0
  128.4540  127.5890   68.3080 C   0  0  0  0  0  0  0  0  0  0  0  0
  128.8060  127.0010   69.6700 C   0  0  2  0  0  0  0  0  0  0  0  0
  127.9600  127.1590   70.9270 C   0  0  0  0  0  0  0  0  0  0  0  0
  127.0811  128.2519   75.7168 H   0  0  0  0  0  0  0  0  0  0  0  0
  127.2216  129.8260   74.8628 H   0  0  0  0  0  0  0  0  0  0  0  0
  125.6587  128.9405   74.8628 H   0  0  0  0  0  0  0  0  0  0  0  0
  126.7136  127.0944   73.5757 H   0  0  0  0  0  0  0  0  0  0  0  0
  126.8247  128.7322   72.7255 H   0  0  0  0  0  0  0  0  0  0  0  0
  128.8407  127.7924   75.5048 H   0  0  0  0  0  0  0  0  0  0  0  0
  129.2013  126.2506   74.6566 H   0  0  0  0  0  0  0  0  0  0  0  0
  130.4097  127.5796   74.6566 H   0  0  0  0  0  0  0  0  0  0  0  0
  128.7090  125.0660   71.8210 H   0  0  0  0  0  0  0  0  0  0  0  0
  130.9828  127.9740   71.9826 H   0  0  0  0  0  0  0  0  0  0  0  0
  131.0222  126.3340   71.3573 H   0  0  0  0  0  0  0  0  0  0  0  0
  130.0574  128.8730   70.2060 H   0  0  0  0  0  0  0  0  0  0  0  0
  131.6527  128.4195   68.7133 H   0  0  0  0  0  0  0  0  0  0  0  0
  131.4635  126.6853   68.7544 H   0  0  0  0  0  0  0  0  0  0  0  0
  129.9120  128.6520   67.1940 H   0  0  0  0  0  0  0  0  0  0  0  0
  130.0030  127.0450   66.9470 H   0  0  0  0  0  0  0  0  0  0  0  0
  127.9462  128.5592   68.4119 H   0  0  0  0  0  0  0  0  0  0  0  0
  127.7611  126.9653   67.7241 H   0  0  0  0  0  0  0  0  0  0  0  0
  128.7718  125.9172   69.4853 H   0  0  0  0  0  0  0  0  0  0  0  0
  127.4938  128.1546   70.9661 H   0  0  0  0  0  0  0  0  0  0  0  0
  127.1283  126.4410   70.9803 H   0  0  0  0  0  0  0  0  0  0  0  0
  1  2  1  0
  2  3  1  0
  3  4  1  0
  3  5  1  6
  5  6  3  0
  3  7  1  0
  7  8  1  0
  7  9  1  0
  9 10  1  0
 10 11  1  0
 11 12  1  0
 12 13  1  0
 13 14  1  0
 14 15  1  0
 15  7  1  0
 14 10  1  0
  1 16  1  0
  1 17  1  0
  1 18  1  0
  2 19  1  0
  2 20  1  0
  4 21  1  0
  4 22  1  0
  4 23  1  0
  8 24  1  0
  9 25  1  0
  9 26  1  0
 10 27  1  1
 11 28  1  0
 11 29  1  0
 12 30  1  0
 12 31  1  0
 13 32  1  0
 13 33  1  0
 14 34  1  6
 15 35  1  0
 15 36  1  0
M  CHG  1  12   1
M  END
>  <Binding energies>  (1) 
[-6.34]

>  <Ligand effiencies>  (1) 
[-0.3522222222222222]

>  <Interactions>  (1) 
["V-A:HIS:456:CE1:4070, V-B:HIS:456:CD2:9039, H-A:GLU:543:OE2:4910, H-B:GLU:543:O:9875, V-B:GLU:543:CB:9878, H-B:LYS:547:NZ:9923, V-A:GLU:543:CG:4907, V-B:LYS:547:CE:9922, V-B:HIS:456:CB:9036, V-B:HIS:456:CG:9037, V-A:GLU:543:CD:4908, H-A:LYS:547:NZ:4951, V-B:HIS:456:CE1:9041, H-A:GLU:543:OE1:4909, V-A:ARG:545:CG:4922, H-A:HIS:456:NE2:4071, V-A:HIS:456:CD2:4068, V-A:GLU:543:CB:4906"]

$$$$
ZINC1958475594
     RDKit          3D

 39 39  0  0  0  0  0  0  0  0999 V2000
  129.8740  122.7010   64.9670 C   0  0  0  0  0  0  0  0  0  0  0  0
  130.3250  123.9440   64.1680 C   0  0  2  0  0  0  0  0  0  0  0  0
  129.8460  125.2560   64.8360 C   0  0  0  0  0  0  0  0  0  0  0  0
  130.4330  126.5470   64.2330 N   0  0  0  0  0  0  0  0  0  0  0  0
  130.1830  126.7460   62.7290 C   0  0  0  0  0  0  0  0  0  0  0  0
  131.1890  126.0160   61.8200 C   0  0  0  0  0  0  0  0  0  0  0  0
  131.0570  124.4740   61.6930 C   0  0  1  0  0  0  0  0  0  0  0  0
  132.3570  123.7780   61.7710 N   0  0  0  0  0  0  0  0  0  0  0  0
  132.3160  122.3970   61.2810 C   0  0  0  0  0  0  0  0  0  0  0  0
  133.5600  124.5390   61.3820 C   0  0  1  0  0  0  0  0  0  0  0  0
  134.4500  124.7400   62.6220 C   0  0  0  0  0  0  0  0  0  0  0  0
  134.3520  123.9240   60.2030 C   0  0  0  0  0  0  0  0  0  0  0  0
  133.8510  124.3490   58.8860 C   0  0  0  0  0  0  0  0  0  0  0  0
  133.4550  124.6830   57.8510 N   0  0  0  0  0  0  0  0  0  0  0  0
  130.0240  123.8160   62.6510 C   0  0  0  0  0  0  0  0  0  0  0  0
  129.9499  122.9102   66.0443 H   0  0  0  0  0  0  0  0  0  0  0  0
  128.8312  122.4602   64.7128 H   0  0  0  0  0  0  0  0  0  0  0  0
  130.5198  121.8476   64.7128 H   0  0  0  0  0  0  0  0  0  0  0  0
  131.4229  123.9987   64.2079 H   0  0  0  0  0  0  0  0  0  0  0  0
  128.7508  125.3046   64.7456 H   0  0  0  0  0  0  0  0  0  0  0  0
  130.1974  125.2163   65.8776 H   0  0  0  0  0  0  0  0  0  0  0  0
  130.1030  127.3510   64.7470 H   0  0  0  0  0  0  0  0  0  0  0  0
  131.4340  126.5000   64.3620 H   0  0  0  0  0  0  0  0  0  0  0  0
  129.1742  126.3751   62.4949 H   0  0  0  0  0  0  0  0  0  0  0  0
  130.2987  127.8214   62.5289 H   0  0  0  0  0  0  0  0  0  0  0  0
  131.0868  126.4392   60.8098 H   0  0  0  0  0  0  0  0  0  0  0  0
  132.1654  126.1737   62.3014 H   0  0  0  0  0  0  0  0  0  0  0  0
  130.6506  124.3410   60.6795 H   0  0  0  0  0  0  0  0  0  0  0  0
  132.2955  121.7051   62.1359 H   0  0  0  0  0  0  0  0  0  0  0  0
  131.4131  122.2515   60.6697 H   0  0  0  0  0  0  0  0  0  0  0  0
  133.2086  122.1982   60.6697 H   0  0  0  0  0  0  0  0  0  0  0  0
  133.2184  125.5123   60.9998 H   0  0  0  0  0  0  0  0  0  0  0  0
  133.8472  124.6039   63.5320 H   0  0  0  0  0  0  0  0  0  0  0  0
  135.2672  124.0038   62.6100 H   0  0  0  0  0  0  0  0  0  0  0  0
  134.8715  125.7560   62.6100 H   0  0  0  0  0  0  0  0  0  0  0  0
  135.4051  124.2290   60.2919 H   0  0  0  0  0  0  0  0  0  0  0  0
  134.2327  122.8321   60.2622 H   0  0  0  0  0  0  0  0  0  0  0  0
  129.0454  124.2814   62.4617 H   0  0  0  0  0  0  0  0  0  0  0  0
  130.0603  122.7388   62.4314 H   0  0  0  0  0  0  0  0  0  0  0  0
  1  2  1  0
  2  3  1  0
  3  4  1  0
  4  5  1  0
  5  6  1  0
  6  7  1  0
  7  8  1  0
  8  9  1  0
  8 10  1  0
 10 11  1  0
 10 12  1  0
 12 13  1  0
 13 14  3  0
  7 15  1  0
 15  2  1  0
  1 16  1  0
  1 17  1  0
  1 18  1  0
  2 19  1  6
  3 20  1  0
  3 21  1  0
  4 22  1  0
  4 23  1  0
  5 24  1  0
  5 25  1  0
  6 26  1  0
  6 27  1  0
  7 28  1  6
  9 29  1  0
  9 30  1  0
  9 31  1  0
 10 32  1  6
 11 33  1  0
 11 34  1  0
 11 35  1  0
 12 36  1  0
 12 37  1  0
 15 38  1  0
 15 39  1  0
M  CHG  1   4   1
M  END
>  <Binding energies>  (1) 
[-3.8]

>  <Ligand effiencies>  (1) 
[-0.19999999999999998]

>  <Interactions>  (1) 
["V-A:ILE:369:CG2:3237, V-A:ASP:366:CA:3210, H-A:GLU:543:OE2:4910, V-A:ILE:369:CB:3236, V-B:ALA:541:CB:9864, V-B:TYR:539:CE2:9848, V-A:TYR:484:CE2:4346, V-B:GLU:543:CG:9879, V-A:ASP:366:CG:3213, H-B:TYR:539:OH:9850, V-A:TYR:484:CZ:4347, V-A:GLU:543:CD:4908, V-A:GLY:453:C:4042, V-A:ILE:369:CD1:3239, V-A:ASP:366:C:3208, V-B:GLU:543:CD:9880, V-A:ILE:369:CG1:3238, V-A:ASP:366:CB:3212, V-A:LEU:475:CD2:4259, V-A:ARG:545:CZ:4926, H-A:GLU:543:OE1:4909, V-A:GLY:453:CA:4044"]

$$$$
ZINC1958856566-again1
     RDKit          3D

 34 35  0  0  0  0  0  0  0  0999 V2000
  129.2000  124.4530   63.8950 C   0  0  0  0  0  0  0  0  0  0  0  0
  129.9580  124.6600   64.8300 C   0  0  0  0  0  0  0  0  0  0  0  0
  130.8650  124.9090   65.9800 C   0  0  1  0  0  0  0  0  0  0  0  0
  132.1870  125.3380   65.5080 N   0  0  0  0  0  0  0  0  0  0  0  0
  132.4500  125.1240   64.0870 C   0  0  0  0  0  0  0  0  0  0  0  0
  133.1750  123.7860   63.8990 C   0  0  0  0  0  0  0  0  0  0  0  0
  130.3230  125.8890   67.0790 C   0  0  2  0  0  0  0  0  0  0  0  0
  131.4290  126.5820   67.6520 O   0  0  0  0  0  0  0  0  0  0  0  0
  129.4820  125.2210   68.1910 C   0  0  0  0  0  0  0  0  0  0  0  0
  128.4850  126.2660   68.7360 C   0  0  1  0  0  0  0  0  0  0  0  0
  128.8480  126.8910   70.0990 C   0  0  0  0  0  0  0  0  0  0  0  0
  129.7920  128.3840   69.7370 S   0  0  0  0  0  0  0  0  0  0  0  0
  128.7280  128.7390   68.3250 C   0  0  0  0  0  0  0  0  0  0  0  0
  128.4020  127.3790   67.6710 C   0  0  1  0  0  0  0  0  0  0  0  0
  129.3370  126.9440   66.5210 C   0  0  0  0  0  0  0  0  0  0  0  0
  128.5173  124.2666   63.0529 H   0  0  0  0  0  0  0  0  0  0  0  0
  130.9366  123.9381   66.4921 H   0  0  0  0  0  0  0  0  0  0  0  0
  132.3670  126.2950   65.7760 H   0  0  0  0  0  0  0  0  0  0  0  0
  131.4980  125.1061   63.5362 H   0  0  0  0  0  0  0  0  0  0  0  0
  133.0796  125.9401   63.7029 H   0  0  0  0  0  0  0  0  0  0  0  0
  133.4089  123.3543   64.8833 H   0  0  0  0  0  0  0  0  0  0  0  0
  132.5284  123.0941   63.3394 H   0  0  0  0  0  0  0  0  0  0  0  0
  134.1077  123.9498   63.3394 H   0  0  0  0  0  0  0  0  0  0  0  0
  131.9520  126.9590   66.9400 H   0  0  0  0  0  0  0  0  0  0  0  0
  128.9325  124.3626   67.7773 H   0  0  0  0  0  0  0  0  0  0  0  0
  130.1368  124.8632   68.9992 H   0  0  0  0  0  0  0  0  0  0  0  0
  127.5322  125.7481   68.9202 H   0  0  0  0  0  0  0  0  0  0  0  0
  127.9345  127.1441   70.6572 H   0  0  0  0  0  0  0  0  0  0  0  0
  129.4292  126.1910   70.7173 H   0  0  0  0  0  0  0  0  0  0  0  0
  127.8031  129.2313   68.6600 H   0  0  0  0  0  0  0  0  0  0  0  0
  129.2235  129.4151   67.6127 H   0  0  0  0  0  0  0  0  0  0  0  0
  127.3978  127.5200   67.2447 H   0  0  0  0  0  0  0  0  0  0  0  0
  128.7449  126.5062   65.7038 H   0  0  0  0  0  0  0  0  0  0  0  0
  129.8876  127.8111   66.1275 H   0  0  0  0  0  0  0  0  0  0  0  0
  1  2  3  0
  2  3  1  0
  3  4  1  0
  4  5  1  0
  5  6  1  0
  3  7  1  0
  7  8  1  1
  7  9  1  0
  9 10  1  0
 10 11  1  0
 11 12  1  0
 12 13  1  0
 13 14  1  0
 14 15  1  0
 15  7  1  0
 14 10  1  0
  1 16  1  0
  3 17  1  1
  4 18  1  0
  5 19  1  0
  5 20  1  0
  6 21  1  0
  6 22  1  0
  6 23  1  0
  8 24  1  0
  9 25  1  0
  9 26  1  0
 10 27  1  1
 11 28  1  0
 11 29  1  0
 13 30  1  0
 13 31  1  0
 14 32  1  6
 15 33  1  0
 15 34  1  0
M  END
>  <Binding energies>  (1) 
[-5.05]

>  <Ligand effiencies>  (1) 
[-0.29705882352941176]

>  <Interactions>  (1) 
["V-A:GLY:454:CA:4049, V-B:GLU:543:C:9874, H-A:GLU:543:OE2:4910, V-B:GLU:543:CB:9878, V-A:TYR:484:CE2:4346, V-B:GLU:543:CG:9879, V-A:TYR:484:CZ:4347, V-A:GLU:543:CD:4908, V-B:HIS:456:CE1:9041, V-B:GLU:543:CA:9876, V-A:HIS:456:CE1:4070, V-A:GLU:543:CG:4907, V-B:GLU:543:CD:9880, H-A:ARG:545:NH2:4928, V-A:ARG:545:CZ:4926, H-A:GLU:543:OE1:4909, V-A:GLU:543:CB:4906, H-A:ARG:545:NE:4924, H-A:TYR:484:OH:4348"]

$$$$
ZINC195886198
     RDKit          3D

 91 94  0  0  0  0  0  0  0  0999 V2000
  127.2220  122.5170   56.8850 C   0  0  0  0  0  0  0  0  0  0  0  0
  125.8140  122.7770   57.4360 C   0  0  0  0  0  0  0  0  0  0  0  0
  125.6980  124.1200   58.1790 C   0  0  0  0  0  0  0  0  0  0  0  0
  125.4320  123.9480   59.6880 C   0  0  0  0  0  0  0  0  0  0  0  0
  126.6600  124.1840   60.6120 C   0  0  2  0  0  0  0  0  0  0  0  0
  126.9710  125.6890   60.8350 C   0  0  0  0  0  0  0  0  0  0  0  0
  127.0380  126.5440   59.5580 C   0  0  0  0  0  0  0  0  0  0  0  0
  127.9410  123.4160   60.1450 C   0  0  0  0  0  0  0  0  0  0  0  0
  129.2370  123.4860   61.0200 C   0  0  0  0  0  0  0  0  0  0  0  0
  128.8310  123.9260   62.4670 C   0  0  0  0  0  0  0  0  0  0  0  0
  129.9560  124.5120   63.3820 C   0  0  1  0  0  0  0  0  0  0  0  0
  129.4530  125.6820   64.2690 C   0  0  0  0  0  0  0  0  0  0  0  0
  129.1540  126.9840   63.5040 C   0  0  0  0  0  0  0  0  0  0  0  0
  130.6300  123.4080   64.2430 C   0  0  0  0  0  0  0  0  0  0  0  0
  132.1430  123.2030   64.0070 C   0  0  0  0  0  0  0  0  0  0  0  0
  132.9010  124.4960   63.6450 C   0  0  0  0  0  0  0  0  0  0  0  0
  134.0610  124.2570   62.6710 C   0  0  0  0  0  0  0  0  0  0  0  0
  129.9990  122.1650   61.0080 C   0  0  0  0  0  0  0  0  0  0  0  0
  129.5710  120.8880   61.3830 C   0  0  0  0  0  0  0  0  0  0  0  0
  130.4410  119.8020   61.2870 C   0  0  0  0  0  0  0  0  0  0  0  0
  131.7380  119.9860   60.8060 C   0  0  0  0  0  0  0  0  0  0  0  0
  132.1670  121.2550   60.4180 C   0  0  0  0  0  0  0  0  0  0  0  0
  131.2930  122.3400   60.5170 C   0  0  0  0  0  0  0  0  0  0  0  0
  131.4720  123.7570   60.1700 C   0  0  0  0  0  0  0  0  0  0  0  0
  132.5700  124.4430   59.6510 C   0  0  0  0  0  0  0  0  0  0  0  0
  132.4770  125.8150   59.4140 C   0  0  0  0  0  0  0  0  0  0  0  0
  131.2930  126.5090   59.6910 C   0  0  0  0  0  0  0  0  0  0  0  0
  131.1940  128.0670   59.4390 B   0  0  0  0  0  0  0  0  0  0  0  0
  131.9840  128.7640   58.5540 O   0  0  0  0  0  0  0  0  0  0  0  0
  131.4350  130.0670   58.4330 C   0  0  0  0  0  0  0  0  0  0  0  0
  132.6050  131.0450   58.1810 C   0  0  0  0  0  0  0  0  0  0  0  0
  130.4920  130.0220   57.2000 C   0  0  0  0  0  0  0  0  0  0  0  0
  130.7200  130.2340   59.8210 C   0  0  0  0  0  0  0  0  0  0  0  0
  131.6420  130.6400   61.0030 C   0  0  0  0  0  0  0  0  0  0  0  0
  129.4510  131.1170   59.8000 C   0  0  0  0  0  0  0  0  0  0  0  0
  130.3100  128.9000   60.0850 O   0  0  0  0  0  0  0  0  0  0  0  0
  130.1990  125.8060   60.2050 C   0  0  0  0  0  0  0  0  0  0  0  0
  130.2840  124.4330   60.4460 C   0  0  0  0  0  0  0  0  0  0  0  0
  127.9248  122.3872   57.7212 H   0  0  0  0  0  0  0  0  0  0  0  0
  127.2123  121.6055   56.2694 H   0  0  0  0  0  0  0  0  0  0  0  0
  127.5385  123.3719   56.2694 H   0  0  0  0  0  0  0  0  0  0  0  0
  125.1036  122.7784   56.5962 H   0  0  0  0  0  0  0  0  0  0  0  0
  125.5915  121.9797   58.1604 H   0  0  0  0  0  0  0  0  0  0  0  0
  126.6384  124.6757   58.0492 H   0  0  0  0  0  0  0  0  0  0  0  0
  124.8412  124.6615   57.7517 H   0  0  0  0  0  0  0  0  0  0  0  0
  124.6468  124.6618   59.9779 H   0  0  0  0  0  0  0  0  0  0  0  0
  125.1452  122.8953   59.8275 H   0  0  0  0  0  0  0  0  0  0  0  0
  126.3631  123.7607   61.5829 H   0  0  0  0  0  0  0  0  0  0  0  0
  126.1851  126.1059   61.4820 H   0  0  0  0  0  0  0  0  0  0  0  0
  127.9762  125.7286   61.2799 H   0  0  0  0  0  0  0  0  0  0  0  0
  127.1212  127.6061   59.8318 H   0  0  0  0  0  0  0  0  0  0  0  0
  127.9157  126.2485   58.9645 H   0  0  0  0  0  0  0  0  0  0  0  0
  126.1249  126.3888   58.9645 H   0  0  0  0  0  0  0  0  0  0  0  0
  127.6664  122.3540   60.0624 H   0  0  0  0  0  0  0  0  0  0  0  0
  128.2269  123.9276   59.2141 H   0  0  0  0  0  0  0  0  0  0  0  0
  128.0495  124.6942   62.3715 H   0  0  0  0  0  0  0  0  0  0  0  0
  128.5167  122.9975   62.9662 H   0  0  0  0  0  0  0  0  0  0  0  0
  130.7184  124.9263   62.7059 H   0  0  0  0  0  0  0  0  0  0  0  0
  128.5290  125.3592   64.7710 H   0  0  0  0  0  0  0  0  0  0  0  0
  130.2676  125.9132   64.9711 H   0  0  0  0  0  0  0  0  0  0  0  0
  128.9674  127.7964   64.2218 H   0  0  0  0  0  0  0  0  0  0  0  0
  130.0158  127.2440   62.8718 H   0  0  0  0  0  0  0  0  0  0  0  0
  128.2651  126.8419   62.8718 H   0  0  0  0  0  0  0  0  0  0  0  0
  130.4858  123.6701   65.3015 H   0  0  0  0  0  0  0  0  0  0  0  0
  130.1503  122.4633   63.9473 H   0  0  0  0  0  0  0  0  0  0  0  0
  132.5837  122.7892   64.9260 H   0  0  0  0  0  0  0  0  0  0  0  0
  132.2424  122.5240   63.1473 H   0  0  0  0  0  0  0  0  0  0  0  0
  132.1934  125.1993   63.1817 H   0  0  0  0  0  0  0  0  0  0  0  0
  133.3294  124.8980   64.5750 H   0  0  0  0  0  0  0  0  0  0  0  0
  134.9836  124.0669   63.2391 H   0  0  0  0  0  0  0  0  0  0  0  0
  133.8345  123.3866   62.0376 H   0  0  0  0  0  0  0  0  0  0  0  0
  134.1970  125.1460   62.0376 H   0  0  0  0  0  0  0  0  0  0  0  0
  128.5463  120.7394   61.7544 H   0  0  0  0  0  0  0  0  0  0  0  0
  130.1045  118.7997   61.5907 H   0  0  0  0  0  0  0  0  0  0  0  0
  132.4232  119.1286   60.7328 H   0  0  0  0  0  0  0  0  0  0  0  0
  133.1882  121.4007   60.0360 H   0  0  0  0  0  0  0  0  0  0  0  0
  133.5039  123.9055   59.4298 H   0  0  0  0  0  0  0  0  0  0  0  0
  133.3427  126.3568   59.0054 H   0  0  0  0  0  0  0  0  0  0  0  0
  133.0123  131.3855   59.1444 H   0  0  0  0  0  0  0  0  0  0  0  0
  133.3937  130.5337   57.6096 H   0  0  0  0  0  0  0  0  0  0  0  0
  132.2417  131.9119   57.6096 H   0  0  0  0  0  0  0  0  0  0  0  0
  129.4468  129.9721   57.5394 H   0  0  0  0  0  0  0  0  0  0  0  0
  130.6378  130.9281   56.5936 H   0  0  0  0  0  0  0  0  0  0  0  0
  130.7234  129.1339   56.5936 H   0  0  0  0  0  0  0  0  0  0  0  0
  131.1373  130.4178   61.9548 H   0  0  0  0  0  0  0  0  0  0  0  0
  132.5828  130.0729   60.9457 H   0  0  0  0  0  0  0  0  0  0  0  0
  131.8589  131.7169   60.9457 H   0  0  0  0  0  0  0  0  0  0  0  0
  129.1385  131.3344   60.8320 H   0  0  0  0  0  0  0  0  0  0  0  0
  129.6688  132.0596   59.2765 H   0  0  0  0  0  0  0  0  0  0  0  0
  128.6428  130.5852   59.2765 H   0  0  0  0  0  0  0  0  0  0  0  0
  129.2619  126.3398   60.4217 H   0  0  0  0  0  0  0  0  0  0  0  0
  1  2  1  0
  2  3  1  0
  3  4  1  0
  4  5  1  0
  5  6  1  0
  6  7  1  0
  5  8  1  0
  8  9  1  0
  9 10  1  0
 10 11  1  0
 11 12  1  0
 12 13  1  0
 11 14  1  0
 14 15  1  0
 15 16  1  0
 16 17  1  0
  9 18  1  0
 18 19  2  0
 19 20  1  0
 20 21  2  0
 21 22  1  0
 22 23  2  0
 23 24  1  0
 24 25  2  0
 25 26  1  0
 26 27  2  0
 27 28  1  0
 28 29  1  0
 29 30  1  0
 30 31  1  0
 30 32  1  0
 30 33  1  0
 33 34  1  0
 33 35  1  0
 33 36  1  0
 27 37  1  0
 37 38  2  0
 38  9  1  0
 23 18  1  0
 38 24  1  0
 36 28  1  0
  1 39  1  0
  1 40  1  0
  1 41  1  0
  2 42  1  0
  2 43  1  0
  3 44  1  0
  3 45  1  0
  4 46  1  0
  4 47  1  0
  5 48  1  1
  6 49  1  0
  6 50  1  0
  7 51  1  0
  7 52  1  0
  7 53  1  0
  8 54  1  0
  8 55  1  0
 10 56  1  0
 10 57  1  0
 11 58  1  6
 12 59  1  0
 12 60  1  0
 13 61  1  0
 13 62  1  0
 13 63  1  0
 14 64  1  0
 14 65  1  0
 15 66  1  0
 15 67  1  0
 16 68  1  0
 16 69  1  0
 17 70  1  0
 17 71  1  0
 17 72  1  0
 19 73  1  0
 20 74  1  0
 21 75  1  0
 22 76  1  0
 25 77  1  0
 26 78  1  0
 31 79  1  0
 31 80  1  0
 31 81  1  0
 32 82  1  0
 32 83  1  0
 32 84  1  0
 34 85  1  0
 34 86  1  0
 34 87  1  0
 35 88  1  0
 35 89  1  0
 35 90  1  0
 37 91  1  0
M  END
>  <Binding energies>  (1) 
[-7.71]

>  <Ligand effiencies>  (1) 
[-0.20289473684210527]

>  <Interactions>  (1) 
["V-A:ILE:369:CG2:3237, V-A:ASP:366:CA:3210, V-B:PRO:540:CA:9855, V-B:ALA:541:CB:9864, H-A:TYR:531:OH:4795, V-B:TYR:539:CE2:9848, V-B:GLU:543:CG:9879, V-B:TYR:539:C:9839, V-A:ASP:366:CG:3213, V-A:LEU:363:CD1:3189, V-B:TYR:539:CZ:9849, V-A:GLU:543:CD:4908, V-B:PRO:540:CB:9857, V-B:PRO:540:N:9856, V-B:TYR:539:CD2:9846, V-B:PRO:540:CD:9859, V-B:GLU:543:CD:9880, V-A:MET:535:CE:4835, V-A:ASP:366:CB:3212, V-A:LEU:475:CD2:4259, V-A:ARG:545:CZ:4926, V-B:TYR:539:CG:9844, V-B:TYR:539:CD1:9845, V-B:PRO:540:CG:9858, V-A:PRO:540:CB:4885, V-B:PRO:540:C:9853, V-B:TYR:539:CE1:9847"]

$$$$
ZINC1961199745
     RDKit          3D

 31 30  0  0  0  0  0  0  0  0999 V2000
  130.1630  133.3480   57.5230 N   0  0  0  0  0  0  0  0  0  0  0  0
  129.1760  132.9480   57.9760 C   0  0  0  0  0  0  0  0  0  0  0  0
  127.9210  132.4380   58.5530 C   0  0  0  0  0  0  0  0  0  0  0  0
  128.0310  132.0400   60.0350 C   0  0  0  0  0  0  0  0  0  0  0  0
  128.8230  133.0490   60.8900 C   0  0  0  0  0  0  0  0  0  0  0  0
  129.5240  132.4140   62.1010 C   0  0  0  0  0  0  0  0  0  0  0  0
  130.9210  132.3160   61.8490 O   0  0  0  0  0  0  0  0  0  0  0  0
  131.2390  131.8910   60.5270 C   0  0  0  0  0  0  0  0  0  0  0  0
  131.0470  130.3650   60.3770 C   0  0  2  0  0  0  0  0  0  0  0  0
  131.5640  129.6560   61.6440 N   0  0  0  0  0  0  0  0  0  0  0  0
  131.7320  129.7890   59.1080 C   0  0  0  0  0  0  0  0  0  0  0  0
  132.7890  130.6890   58.4290 C   0  0  0  0  0  0  0  0  0  0  0  0
  133.5010  129.9890   57.5470 F   0  0  0  0  0  0  0  0  0  0  0  0
  132.2400  131.7090   57.7700 F   0  0  0  0  0  0  0  0  0  0  0  0
  133.6410  131.1970   59.3190 F   0  0  0  0  0  0  0  0  0  0  0  0
  127.1543  133.2214   58.4611 H   0  0  0  0  0  0  0  0  0  0  0  0
  127.6621  131.5253   57.9963 H   0  0  0  0  0  0  0  0  0  0  0  0
  127.0151  131.9563   60.4485 H   0  0  0  0  0  0  0  0  0  0  0  0
  128.5789  131.0869   60.0723 H   0  0  0  0  0  0  0  0  0  0  0  0
  129.5869  133.5197   60.2536 H   0  0  0  0  0  0  0  0  0  0  0  0
  128.0982  133.7773   61.2827 H   0  0  0  0  0  0  0  0  0  0  0  0
  129.3558  133.0392   62.9903 H   0  0  0  0  0  0  0  0  0  0  0  0
  129.1134  131.4082   62.2737 H   0  0  0  0  0  0  0  0  0  0  0  0
  130.5803  132.4086   59.8141 H   0  0  0  0  0  0  0  0  0  0  0  0
  132.2923  132.1343   60.3235 H   0  0  0  0  0  0  0  0  0  0  0  0
  129.9699  130.1778   60.2551 H   0  0  0  0  0  0  0  0  0  0  0  0
  131.6660  130.3190   62.3990 H   0  0  0  0  0  0  0  0  0  0  0  0
  132.4610  129.2280   61.4640 H   0  0  0  0  0  0  0  0  0  0  0  0
  130.9110  128.9390   61.9280 H   0  0  0  0  0  0  0  0  0  0  0  0
  132.2263  128.8484   59.3923 H   0  0  0  0  0  0  0  0  0  0  0  0
  130.9265  129.6748   58.3676 H   0  0  0  0  0  0  0  0  0  0  0  0
  1  2  3  0
  2  3  1  0
  3  4  1  0
  4  5  1  0
  5  6  1  0
  6  7  1  0
  7  8  1  0
  8  9  1  0
  9 10  1  0
  9 11  1  0
 11 12  1  0
 12 13  1  0
 12 14  1  0
 12 15  1  0
  3 16  1  0
  3 17  1  0
  4 18  1  0
  4 19  1  0
  5 20  1  0
  5 21  1  0
  6 22  1  0
  6 23  1  0
  8 24  1  0
  8 25  1  0
  9 26  1  6
 10 27  1  0
 10 28  1  0
 10 29  1  0
 11 30  1  0
 11 31  1  0
M  CHG  1  10   1
M  END
>  <Binding energies>  (1) 
[-4.99]

>  <Ligand effiencies>  (1) 
[-0.27722222222222226]

>  <Interactions>  (1) 
["H-A:ALA:541:N:4891, V-A:ASP:366:CG:3213, V-A:TYR:539:CD1:4873, V-A:LEU:363:CD1:3189, V-A:LEU:363:CB:3187, V-A:TYR:531:CE2:4793, V-A:ALA:541:CB:4892, V-A:GLU:543:CD:4908, V-A:TYR:531:CZ:4794, V-A:TYR:539:C:4867, V-A:ASP:366:CB:3212, H-A:GLU:543:OE1:4909, H-A:ASP:366:OD1:3214, V-A:PRO:540:N:4884, H-A:TYR:539:N:4870, V-A:PRO:540:CB:4885, V-A:PRO:540:CA:4883, V-A:LEU:363:CA:3185, H-A:ASP:366:OD2:3215, V-A:TYR:539:CE1:4875"]

$$$$
ZINC1961287404
     RDKit          3D

 40 40  0  0  0  0  0  0  0  0999 V2000
  127.8270  129.2000   66.5390 C   0  0  0  0  0  0  0  0  0  0  0  0
  127.8130  129.1190   65.2010 C   0  0  0  0  0  0  0  0  0  0  0  0
  128.2940  130.2040   64.2600 C   0  0  0  0  0  0  0  0  0  0  0  0
  128.2210  131.4670   64.9090 O   0  0  0  0  0  0  0  0  0  0  0  0
  128.7040  132.5680   64.1420 C   0  0  2  0  0  0  0  0  0  0  0  0
  127.6180  132.9250   63.1150 C   0  0  0  0  0  0  0  0  0  0  0  0
  128.3340  132.8680   61.7650 C   0  0  0  0  0  0  0  0  0  0  0  0
  129.3850  131.8780   61.9420 N   0  0  0  0  0  0  0  0  0  0  0  0
  130.3730  131.8840   60.8610 C   0  0  0  0  0  0  0  0  0  0  0  0
  130.7960  130.4560   60.4350 C   0  0  2  0  0  0  0  0  0  0  0  0
  131.4820  129.7840   61.6360 N   0  0  0  0  0  0  0  0  0  0  0  0
  131.7320  130.4130   59.1960 C   0  0  0  0  0  0  0  0  0  0  0  0
  132.1720  131.7900   58.6540 C   0  0  0  0  0  0  0  0  0  0  0  0
  131.3120  132.2690   57.4760 C   0  0  0  0  0  0  0  0  0  0  0  0
  129.9120  132.1830   63.2680 C   0  0  0  0  0  0  0  0  0  0  0  0
  127.4565  128.3599   67.1448 H   0  0  0  0  0  0  0  0  0  0  0  0
  128.2090  130.1066   67.0312 H   0  0  0  0  0  0  0  0  0  0  0  0
  127.4223  128.1938   64.7522 H   0  0  0  0  0  0  0  0  0  0  0  0
  129.3356  130.0014   63.9700 H   0  0  0  0  0  0  0  0  0  0  0  0
  127.6573  130.2175   63.3631 H   0  0  0  0  0  0  0  0  0  0  0  0
  128.9683  133.3680   64.8491 H   0  0  0  0  0  0  0  0  0  0  0  0
  126.7952  132.1958   63.1498 H   0  0  0  0  0  0  0  0  0  0  0  0
  127.1672  133.9096   63.3081 H   0  0  0  0  0  0  0  0  0  0  0  0
  127.6391  132.5574   60.9709 H   0  0  0  0  0  0  0  0  0  0  0  0
  128.7337  133.8482   61.4658 H   0  0  0  0  0  0  0  0  0  0  0  0
  129.9398  132.3980   59.9902 H   0  0  0  0  0  0  0  0  0  0  0  0
  131.2702  132.4014   61.2315 H   0  0  0  0  0  0  0  0  0  0  0  0
  129.8851  129.9191   60.1315 H   0  0  0  0  0  0  0  0  0  0  0  0
  132.4450  129.5770   61.4140 H   0  0  0  0  0  0  0  0  0  0  0  0
  131.0090  128.9220   61.8670 H   0  0  0  0  0  0  0  0  0  0  0  0
  131.4550  130.3950   62.4390 H   0  0  0  0  0  0  0  0  0  0  0  0
  132.6367  129.8517   59.4727 H   0  0  0  0  0  0  0  0  0  0  0  0
  131.1498  129.9409   58.3909 H   0  0  0  0  0  0  0  0  0  0  0  0
  132.0970  132.5277   59.4665 H   0  0  0  0  0  0  0  0  0  0  0  0
  133.2048  131.6874   58.2895 H   0  0  0  0  0  0  0  0  0  0  0  0
  130.4114  132.7706   57.8597 H   0  0  0  0  0  0  0  0  0  0  0  0
  131.8912  132.9744   56.8621 H   0  0  0  0  0  0  0  0  0  0  0  0
  131.0172  131.4051   56.8621 H   0  0  0  0  0  0  0  0  0  0  0  0
  130.4186  131.3013   63.6874 H   0  0  0  0  0  0  0  0  0  0  0  0
  130.6476  132.9997   63.2250 H   0  0  0  0  0  0  0  0  0  0  0  0
  1  2  2  0
  2  3  1  0
  3  4  1  0
  4  5  1  0
  5  6  1  0
  6  7  1  0
  7  8  1  0
  8  9  1  0
  9 10  1  0
 10 11  1  0
 10 12  1  0
 12 13  1  0
 13 14  1  0
  8 15  1  0
 15  5  1  0
  1 16  1  0
  1 17  1  0
  2 18  1  0
  3 19  1  0
  3 20  1  0
  5 21  1  1
  6 22  1  0
  6 23  1  0
  7 24  1  0
  7 25  1  0
  9 26  1  0
  9 27  1  0
 10 28  1  6
 11 29  1  0
 11 30  1  0
 11 31  1  0
 12 32  1  0
 12 33  1  0
 13 34  1  0
 13 35  1  0
 14 36  1  0
 14 37  1  0
 14 38  1  0
 15 39  1  0
 15 40  1  0
M  CHG  1  11   1
M  END
>  <Binding energies>  (1) 
[-5.58]

>  <Ligand effiencies>  (1) 
[-0.31]

>  <Interactions>  (1) 
["V-B:LEU:475:CD2:9230, V-A:ASP:366:CG:3213, V-A:LEU:363:CD1:3189, V-B:TYR:484:CE2:9317, V-A:ALA:541:CB:4892, V-A:GLU:543:CD:4908, H-B:TYR:484:OH:9319, V-B:HIS:456:CE1:9041, V-B:TYR:484:CZ:9318, V-A:ALA:541:CA:4890, V-A:GLU:543:CG:4907, V-B:GLU:543:CD:9880, H-A:GLU:543:OE1:4909, V-A:GLU:543:CB:4906, H-A:ASP:366:OD1:3214, V-A:PRO:540:N:4884, V-A:PRO:540:CB:4885, V-A:PRO:540:CA:4883, H-A:ASP:366:OD2:3215"]

$$$$
ZINC1961287404-again1
     RDKit          3D

 40 40  0  0  0  0  0  0  0  0999 V2000
  128.3170  132.6110   56.5970 C   0  0  0  0  0  0  0  0  0  0  0  0
  129.6230  132.8910   56.4640 C   0  0  0  0  0  0  0  0  0  0  0  0
  130.6000  133.0400   57.6130 C   0  0  0  0  0  0  0  0  0  0  0  0
  131.9020  132.6570   57.1850 O   0  0  0  0  0  0  0  0  0  0  0  0
  132.3740  131.4160   57.7010 C   0  0  2  0  0  0  0  0  0  0  0  0
  131.3130  130.3410   57.4840 C   0  0  0  0  0  0  0  0  0  0  0  0
  131.5210  129.3750   58.6440 C   0  0  0  0  0  0  0  0  0  0  0  0
  131.8640  130.2850   59.8380 N   0  0  2  0  0  0  0  0  0  0  0  0
  130.6140  130.7060   60.6500 C   0  0  0  0  0  0  0  0  0  0  0  0
  130.8510  132.0120   61.4500 C   0  0  2  0  0  0  0  0  0  0  0  0
  131.7490  131.7720   62.5720 N   0  0  0  0  0  0  0  0  0  0  0  0
  129.5230  132.6160   61.9590 C   0  0  0  0  0  0  0  0  0  0  0  0
  128.6770  133.3030   60.8670 C   0  0  0  0  0  0  0  0  0  0  0  0
  127.4220  133.9870   61.4250 C   0  0  0  0  0  0  0  0  0  0  0  0
  132.6480  131.4650   59.2180 C   0  0  0  0  0  0  0  0  0  0  0  0
  127.6802  132.5208   55.7046 H   0  0  0  0  0  0  0  0  0  0  0  0
  127.8836  132.4717   57.5984 H   0  0  0  0  0  0  0  0  0  0  0  0
  130.0136  133.0222   55.4441 H   0  0  0  0  0  0  0  0  0  0  0  0
  130.6175  134.0885   57.9451 H   0  0  0  0  0  0  0  0  0  0  0  0
  130.2849  132.3950   58.4465 H   0  0  0  0  0  0  0  0  0  0  0  0
  133.3127  131.1966   57.1712 H   0  0  0  0  0  0  0  0  0  0  0  0
  130.3035  130.7767   57.5148 H   0  0  0  0  0  0  0  0  0  0  0  0
  131.4034  129.8499   56.5039 H   0  0  0  0  0  0  0  0  0  0  0  0
  130.6041  128.8006   58.8423 H   0  0  0  0  0  0  0  0  0  0  0  0
  132.3084  128.6347   58.4392 H   0  0  0  0  0  0  0  0  0  0  0  0
  132.4700  129.7610   60.4540 H   0  0  0  0  0  0  0  0  0  0  0  0
  129.7759  130.8629   59.9550 H   0  0  0  0  0  0  0  0  0  0  0  0
  130.3914  129.9040   61.3692 H   0  0  0  0  0  0  0  0  0  0  0  0
  131.3162  132.7361   60.7649 H   0  0  0  0  0  0  0  0  0  0  0  0
  131.7850  132.5880   63.1670 H   0  0  0  0  0  0  0  0  0  0  0  0
  131.4060  131.0130   63.1410 H   0  0  0  0  0  0  0  0  0  0  0  0
  128.9234  131.8064   62.4006 H   0  0  0  0  0  0  0  0  0  0  0  0
  129.7908  133.3962   62.6867 H   0  0  0  0  0  0  0  0  0  0  0  0
  129.2976  134.0618   60.3679 H   0  0  0  0  0  0  0  0  0  0  0  0
  128.3436  132.5219   60.1679 H   0  0  0  0  0  0  0  0  0  0  0  0
  127.4533  133.9700   62.5244 H   0  0  0  0  0  0  0  0  0  0  0  0
  127.3863  135.0293   61.0753 H   0  0  0  0  0  0  0  0  0  0  0  0
  126.5267  133.4521   61.0753 H   0  0  0  0  0  0  0  0  0  0  0  0
  132.2963  132.4188   59.6381 H   0  0  0  0  0  0  0  0  0  0  0  0
  133.7240  131.3876   59.4330 H   0  0  0  0  0  0  0  0  0  0  0  0
  1  2  2  0
  2  3  1  0
  3  4  1  0
  4  5  1  0
  5  6  1  0
  6  7  1  0
  7  8  1  0
  8  9  1  0
  9 10  1  0
 10 11  1  0
 10 12  1  0
 12 13  1  0
 13 14  1  0
  8 15  1  0
 15  5  1  0
  1 16  1  0
  1 17  1  0
  2 18  1  0
  3 19  1  0
  3 20  1  0
  5 21  1  6
  6 22  1  0
  6 23  1  0
  7 24  1  0
  7 25  1  0
  8 26  1  1
  9 27  1  0
  9 28  1  0
 10 29  1  6
 11 30  1  0
 11 31  1  0
 12 32  1  0
 12 33  1  0
 13 34  1  0
 13 35  1  0
 14 36  1  0
 14 37  1  0
 14 38  1  0
 15 39  1  0
 15 40  1  0
M  CHG  1   8   1
M  END
>  <Binding energies>  (1) 
[-5.49]

>  <Ligand effiencies>  (1) 
[-0.305]

>  <Interactions>  (1) 
["H-A:ALA:541:N:4891, V-A:PRO:540:C:4881, H-A:ALA:541:O:4889, V-B:LEU:475:CD2:9230, V-A:ASP:366:CG:3213, V-A:LEU:363:CD1:3189, V-A:TYR:539:CD1:4873, V-A:ILE:538:CA:4860, V-A:TYR:539:CZ:4877, V-A:ALA:541:CB:4892, V-A:TYR:531:CZ:4794, V-A:MET:535:CE:4835, V-A:TYR:539:C:4867, V-A:ASP:366:CB:3212, H-A:GLU:543:OE1:4909, V-A:PRO:540:N:4884, V-A:TYR:539:CG:4872, V-A:PRO:540:CB:4885, V-A:PRO:540:CA:4883, H-A:ASP:366:OD2:3215, V-A:PRO:540:CD:4887, V-A:TYR:539:CE1:4875"]

$$$$
ZINC1961472985
     RDKit          3D

 37 38  0  0  0  0  0  0  0  0999 V2000
  129.5160  121.2500   61.5110 C   0  0  0  0  0  0  0  0  0  0  0  0
  129.0980  122.7400   61.5420 C   0  0  1  0  0  0  0  0  0  0  0  0
  127.6040  122.9220   61.1500 C   0  0  2  0  0  0  0  0  0  0  0  0
  127.3430  123.4140   59.7140 C   0  0  0  0  0  0  0  0  0  0  0  0
  126.9650  124.7820   60.2980 C   0  0  0  0  0  0  0  0  0  0  0  0
  126.9000  124.1680   61.6930 N   0  0  0  0  0  0  0  0  0  0  0  0
  129.4240  123.4190   62.8140 N   0  0  0  0  0  0  0  0  0  0  0  0
  130.1130  122.5820   63.8100 C   0  0  0  0  0  0  0  0  0  0  0  0
  130.2410  123.3090   65.1650 C   0  0  0  0  0  0  0  0  0  0  0  0
  130.9240  124.6890   65.0380 C   0  0  0  0  0  0  0  0  0  0  0  0
  130.9460  125.4360   66.3870 C   0  0  0  0  0  0  0  0  0  0  0  0
  132.3260  124.4880   64.6130 C   0  0  0  0  0  0  0  0  0  0  0  0
  133.4220  124.3320   64.2780 N   0  0  0  0  0  0  0  0  0  0  0  0
  130.1890  125.5000   63.9510 C   0  0  0  0  0  0  0  0  0  0  0  0
  130.0640  124.7300   62.6190 C   0  0  0  0  0  0  0  0  0  0  0  0
  129.6206  120.8770   62.5405 H   0  0  0  0  0  0  0  0  0  0  0  0
  128.7475  120.6644   60.9852 H   0  0  0  0  0  0  0  0  0  0  0  0
  130.4770  121.1496   60.9852 H   0  0  0  0  0  0  0  0  0  0  0  0
  129.7089  123.2421   60.7773 H   0  0  0  0  0  0  0  0  0  0  0  0
  127.2780  121.9215   61.4704 H   0  0  0  0  0  0  0  0  0  0  0  0
  128.2330  123.4250   59.0676 H   0  0  0  0  0  0  0  0  0  0  0  0
  126.6625  122.8731   59.0400 H   0  0  0  0  0  0  0  0  0  0  0  0
  127.7432  125.5507   60.1814 H   0  0  0  0  0  0  0  0  0  0  0  0
  126.1079  125.3418   59.8955 H   0  0  0  0  0  0  0  0  0  0  0  0
  127.4450  124.6690   62.3800 H   0  0  0  0  0  0  0  0  0  0  0  0
  125.9550  123.9760   61.9960 H   0  0  0  0  0  0  0  0  0  0  0  0
  129.5408  121.6537   63.9546 H   0  0  0  0  0  0  0  0  0  0  0  0
  131.1247  122.3632   63.4378 H   0  0  0  0  0  0  0  0  0  0  0  0
  129.2342  123.4517   65.5845 H   0  0  0  0  0  0  0  0  0  0  0  0
  130.8690  122.6859   65.8188 H   0  0  0  0  0  0  0  0  0  0  0  0
  130.9245  124.7068   67.2103 H   0  0  0  0  0  0  0  0  0  0  0  0
  131.8623  126.0406   66.4565 H   0  0  0  0  0  0  0  0  0  0  0  0
  130.0668  126.0934   66.4565 H   0  0  0  0  0  0  0  0  0  0  0  0
  129.1793  125.7419   64.3142 H   0  0  0  0  0  0  0  0  0  0  0  0
  130.7786  126.4081   63.7569 H   0  0  0  0  0  0  0  0  0  0  0  0
  129.4581  125.3232   61.9183 H   0  0  0  0  0  0  0  0  0  0  0  0
  131.0751  124.5652   62.2184 H   0  0  0  0  0  0  0  0  0  0  0  0
  1  2  1  0
  2  3  1  0
  3  4  1  0
  4  5  1  0
  5  6  1  0
  2  7  1  0
  7  8  1  0
  8  9  1  0
  9 10  1  0
 10 11  1  0
 10 12  1  0
 12 13  3  0
 10 14  1  0
 14 15  1  0
  6  3  1  0
 15  7  1  0
  1 16  1  0
  1 17  1  0
  1 18  1  0
  2 19  1  6
  3 20  1  6
  4 21  1  0
  4 22  1  0
  5 23  1  0
  5 24  1  0
  6 25  1  0
  6 26  1  0
  8 27  1  0
  8 28  1  0
  9 29  1  0
  9 30  1  0
 11 31  1  0
 11 32  1  0
 11 33  1  0
 14 34  1  0
 14 35  1  0
 15 36  1  0
 15 37  1  0
M  CHG  1   6   1
M  END
>  <Binding energies>  (1) 
[-6.06]

>  <Ligand effiencies>  (1) 
[-0.3564705882352941]

>  <Interactions>  (1) 
["V-B:PRO:540:CA:9855, V-A:HIS:456:CE1:4070, H-B:GLU:543:OE1:9881, V-B:PRO:540:C:9853, V-B:ALA:541:CB:9864, V-B:GLU:543:CD:9880, V-A:TYR:484:CZ:4347, V-B:PRO:540:CB:9857, V-A:TYR:484:CE2:4346, V-A:LEU:475:CD2:4259, V-B:GLU:543:CG:9879, H-A:GLY:454:N:4050, H-A:TYR:484:OH:4348"]

$$$$
ZINC196162751
     RDKit          3D

 51 50  0  0  0  0  0  0  0  0999 V2000
  131.3570  127.2080   59.1700 C   0  0  0  0  0  0  0  0  0  0  0  0
  132.0640  126.3790   58.0930 C   0  0  0  0  0  0  0  0  0  0  0  0
  132.0760  125.0130   58.4810 O   0  0  0  0  0  0  0  0  0  0  0  0
  133.2440  124.3530   58.6340 C   0  0  0  0  0  0  0  0  0  0  0  0
  133.9780  123.9520   57.7310 O   0  0  0  0  0  0  0  0  0  0  0  0
  133.5950  124.1160   60.1050 C   0  0  0  0  0  0  0  0  0  0  0  0
  132.4240  124.4110   61.0700 C   0  0  0  0  0  0  0  0  0  0  0  0
  132.8400  125.2520   62.2960 C   0  0  0  0  0  0  0  0  0  0  0  0
  133.9880  124.6410   63.1030 C   0  0  0  0  0  0  0  0  0  0  0  0
  135.0680  124.3710   62.5750 O   0  0  0  0  0  0  0  0  0  0  0  0
  133.6660  124.4580   64.4010 O   0  0  0  0  0  0  0  0  0  0  0  0
  132.5210  125.0890   64.9570 C   0  0  0  0  0  0  0  0  0  0  0  0
  132.8200  125.4940   66.4040 C   0  0  0  0  0  0  0  0  0  0  0  0
  131.9210  123.1820   61.5640 O   0  0  0  0  0  0  0  0  0  0  0  0
  130.3270  122.6580   61.4560 Si  0  0  0  0  0  4  0  0  0  0  0  0
  129.5590  123.4700   59.9360 C   0  0  0  0  0  0  0  0  0  0  0  0
  130.3390  120.7800   61.2640 C   0  0  0  0  0  0  0  0  0  0  0  0
  129.4520  123.1860   63.0600 C   0  0  0  0  0  0  0  0  0  0  0  0
  127.9520  122.8350   62.9840 C   0  0  0  0  0  0  0  0  0  0  0  0
  130.0840  122.4520   64.2620 C   0  0  0  0  0  0  0  0  0  0  0  0
  129.6030  124.7090   63.2620 C   0  0  0  0  0  0  0  0  0  0  0  0
  131.6609  126.8517   60.1653 H   0  0  0  0  0  0  0  0  0  0  0  0
  131.6346  128.2666   59.0590 H   0  0  0  0  0  0  0  0  0  0  0  0
  130.2679  127.1010   59.0590 H   0  0  0  0  0  0  0  0  0  0  0  0
  131.5282  126.4845   57.1381 H   0  0  0  0  0  0  0  0  0  0  0  0
  133.0976  126.7362   57.9741 H   0  0  0  0  0  0  0  0  0  0  0  0
  133.8915  123.0639   60.2277 H   0  0  0  0  0  0  0  0  0  0  0  0
  134.4095  124.8097   60.3607 H   0  0  0  0  0  0  0  0  0  0  0  0
  131.6789  124.9804   60.4950 H   0  0  0  0  0  0  0  0  0  0  0  0
  133.1537  126.2460   61.9445 H   0  0  0  0  0  0  0  0  0  0  0  0
  131.9674  125.2979   62.9642 H   0  0  0  0  0  0  0  0  0  0  0  0
  132.2725  125.9845   64.3684 H   0  0  0  0  0  0  0  0  0  0  0  0
  131.6698  124.3926   64.9372 H   0  0  0  0  0  0  0  0  0  0  0  0
  132.3098  124.8029   67.0911 H   0  0  0  0  0  0  0  0  0  0  0  0
  133.9050  125.4515   66.5799 H   0  0  0  0  0  0  0  0  0  0  0  0
  132.4599  126.5184   66.5799 H   0  0  0  0  0  0  0  0  0  0  0  0
  128.8356  124.2348   60.2550 H   0  0  0  0  0  0  0  0  0  0  0  0
  130.3493  123.9415   59.3334 H   0  0  0  0  0  0  0  0  0  0  0  0
  129.0443  122.7071   59.3334 H   0  0  0  0  0  0  0  0  0  0  0  0
  130.3420  120.3098   62.2584 H   0  0  0  0  0  0  0  0  0  0  0  0
  129.4429  120.4622   60.7109 H   0  0  0  0  0  0  0  0  0  0  0  0
  131.2391  120.4737   60.7109 H   0  0  0  0  0  0  0  0  0  0  0  0
  127.5457  122.7399   64.0018 H   0  0  0  0  0  0  0  0  0  0  0  0
  127.4157  123.6319   62.4480 H   0  0  0  0  0  0  0  0  0  0  0  0
  127.8249  121.8829   62.4480 H   0  0  0  0  0  0  0  0  0  0  0  0
  129.7072  122.8896   65.1982 H   0  0  0  0  0  0  0  0  0  0  0  0
  129.8170  121.3857   64.2221 H   0  0  0  0  0  0  0  0  0  0  0  0
  131.1782  122.5577   64.2221 H   0  0  0  0  0  0  0  0  0  0  0  0
  129.6255  124.9357   64.3382 H   0  0  0  0  0  0  0  0  0  0  0  0
  130.5393  125.0497   62.7959 H   0  0  0  0  0  0  0  0  0  0  0  0
  128.7518  125.2269   62.7959 H   0  0  0  0  0  0  0  0  0  0  0  0
  1  2  1  0
  2  3  1  0
  3  4  1  0
  4  5  2  0
  4  6  1  0
  6  7  1  0
  7  8  1  0
  8  9  1  0
  9 10  2  0
  9 11  1  0
 11 12  1  0
 12 13  1  0
  7 14  1  0
 14 15  1  0
 15 16  1  0
 15 17  1  0
 15 18  1  0
 18 19  1  0
 18 20  1  0
 18 21  1  0
  1 22  1  0
  1 23  1  0
  1 24  1  0
  2 25  1  0
  2 26  1  0
  6 27  1  0
  6 28  1  0
  7 29  1  0
  8 30  1  0
  8 31  1  0
 12 32  1  0
 12 33  1  0
 13 34  1  0
 13 35  1  0
 13 36  1  0
 16 37  1  0
 16 38  1  0
 16 39  1  0
 17 40  1  0
 17 41  1  0
 17 42  1  0
 19 43  1  0
 19 44  1  0
 19 45  1  0
 20 46  1  0
 20 47  1  0
 20 48  1  0
 21 49  1  0
 21 50  1  0
 21 51  1  0
M  END
>  <Binding energies>  (1) 
[-4.8]

>  <Ligand effiencies>  (1) 
[-0.22857142857142856]

>  <Interactions>  (1) 
["V-A:ILE:369:CG2:3237, V-A:ASP:366:CA:3210, V-B:ALA:541:CB:9864, V-B:TYR:539:CE2:9848, V-A:TYR:484:CE2:4346, V-B:GLU:543:CG:9879, V-A:ASP:366:CG:3213, V-B:TYR:539:CZ:9849, H-A:ASN:370:N:3244, H-B:TYR:539:OH:9850, V-A:TYR:484:CZ:4347, V-A:ARG:545:CG:4922, H-A:GLY:454:N:4050, V-A:ILE:369:CD1:3239, V-A:HIS:456:CE1:4070, V-B:TYR:539:CD2:9846, V-B:GLU:543:CD:9880, V-A:ASP:366:CB:3212, V-A:ARG:545:CD:4923, V-A:LEU:475:CD2:4259, H-A:ARG:545:NH2:4928, V-A:ARG:545:CZ:4926, V-A:GLY:453:CA:4044, V-B:ALA:541:CA:9862, H-A:TYR:484:OH:4348"]

$$$$
ZINC196164450
     RDKit          3D

 69 73  0  0  0  0  0  0  0  0999 V2000
  130.4650  117.3380   60.8790 C   0  0  0  0  0  0  0  0  0  0  0  0
  131.3560  118.1630   60.1880 C   0  0  0  0  0  0  0  0  0  0  0  0
  131.3030  119.5460   60.3810 C   0  0  0  0  0  0  0  0  0  0  0  0
  130.3490  120.0620   61.2660 C   0  0  0  0  0  0  0  0  0  0  0  0
  130.2360  121.5610   61.5200 C   0  0  0  0  0  0  0  0  0  0  0  0
  128.9170  122.1050   61.1680 N   0  0  0  0  0  0  0  0  0  0  0  0
  129.0850  123.0140   60.0200 C   0  0  0  0  0  0  0  0  0  0  0  0
  127.8740  123.1120   59.0970 C   0  0  0  0  0  0  0  0  0  0  0  0
  126.7300  123.8400   59.4520 C   0  0  0  0  0  0  0  0  0  0  0  0
  125.6650  123.8900   58.5520 C   0  0  0  0  0  0  0  0  0  0  0  0
  125.7560  123.2070   57.3380 C   0  0  0  0  0  0  0  0  0  0  0  0
  126.9200  122.4870   57.0660 C   0  0  0  0  0  0  0  0  0  0  0  0
  127.9690  122.4270   57.9260 N   0  0  0  0  0  0  0  0  0  0  0  0
  128.3270  122.7870   62.3370 C   0  0  0  0  0  0  0  0  0  0  0  0
  129.1500  123.9690   62.8270 C   0  0  0  0  0  0  0  0  0  0  0  0
  129.9020  123.8880   64.0030 C   0  0  0  0  0  0  0  0  0  0  0  0
  130.5980  125.0220   64.4290 C   0  0  0  0  0  0  0  0  0  0  0  0
  130.5220  126.1980   63.6800 C   0  0  0  0  0  0  0  0  0  0  0  0
  129.7590  126.1990   62.5080 C   0  0  0  0  0  0  0  0  0  0  0  0
  129.5880  127.4740   61.6880 C   0  0  0  0  0  0  0  0  0  0  0  0
  130.4360  127.5200   60.4870 N   0  0  0  0  0  0  0  0  0  0  0  0
  130.0570  128.6710   59.6540 C   0  0  0  0  0  0  0  0  0  0  0  0
  131.2100  129.6400   59.4270 C   0  0  0  0  0  0  0  0  0  0  0  0
  131.9900  129.5750   58.2680 C   0  0  0  0  0  0  0  0  0  0  0  0
  133.0230  130.5010   58.1090 C   0  0  0  0  0  0  0  0  0  0  0  0
  133.2480  131.4610   59.0990 C   0  0  0  0  0  0  0  0  0  0  0  0
  132.4240  131.4590   60.2260 C   0  0  0  0  0  0  0  0  0  0  0  0
  131.4140  130.5680   60.4020 N   0  0  0  0  0  0  0  0  0  0  0  0
  130.3320  126.2570   59.7390 C   0  0  0  0  0  0  0  0  0  0  0  0
  131.6350  125.4590   59.7090 C   0  0  0  0  0  0  0  0  0  0  0  0
  132.4270  125.4320   58.5570 C   0  0  0  0  0  0  0  0  0  0  0  0
  133.6160  124.6980   58.5800 C   0  0  0  0  0  0  0  0  0  0  0  0
  133.9830  124.0170   59.7430 C   0  0  0  0  0  0  0  0  0  0  0  0
  133.1420  124.0970   60.8540 C   0  0  0  0  0  0  0  0  0  0  0  0
  131.9860  124.8070   60.8530 N   0  0  0  0  0  0  0  0  0  0  0  0
  129.0830  125.0990   62.0760 N   0  0  0  0  0  0  0  0  0  0  0  0
  129.4760  119.2720   61.9470 N   0  0  0  0  0  0  0  0  0  0  0  0
  129.5450  117.9310   61.7460 C   0  0  0  0  0  0  0  0  0  0  0  0
  130.4877  116.2467   60.7432 H   0  0  0  0  0  0  0  0  0  0  0  0
  132.0933  117.7274   59.4976 H   0  0  0  0  0  0  0  0  0  0  0  0
  131.9958  120.2146   59.8491 H   0  0  0  0  0  0  0  0  0  0  0  0
  130.4197  121.7504   62.5879 H   0  0  0  0  0  0  0  0  0  0  0  0
  130.9791  122.0601   60.8807 H   0  0  0  0  0  0  0  0  0  0  0  0
  129.3006  124.0200   60.4092 H   0  0  0  0  0  0  0  0  0  0  0  0
  129.9029  122.5979   59.4135 H   0  0  0  0  0  0  0  0  0  0  0  0
  126.6731  124.3607   60.4193 H   0  0  0  0  0  0  0  0  0  0  0  0
  124.7594  124.4640   58.7976 H   0  0  0  0  0  0  0  0  0  0  0  0
  124.9295  123.2357   56.6127 H   0  0  0  0  0  0  0  0  0  0  0  0
  126.9909  121.9437   56.1122 H   0  0  0  0  0  0  0  0  0  0  0  0
  127.3262  123.1500   62.0603 H   0  0  0  0  0  0  0  0  0  0  0  0
  128.2921  122.0541   63.1566 H   0  0  0  0  0  0  0  0  0  0  0  0
  129.9447  122.9524   64.5798 H   0  0  0  0  0  0  0  0  0  0  0  0
  131.2016  124.9887   65.3480 H   0  0  0  0  0  0  0  0  0  0  0  0
  131.0517  127.1055   64.0053 H   0  0  0  0  0  0  0  0  0  0  0  0
  128.5363  127.5471   61.3741 H   0  0  0  0  0  0  0  0  0  0  0  0
  129.8924  128.3137   62.3301 H   0  0  0  0  0  0  0  0  0  0  0  0
  129.7123  128.2999   58.6776 H   0  0  0  0  0  0  0  0  0  0  0  0
  129.2643  129.2179   60.1855 H   0  0  0  0  0  0  0  0  0  0  0  0
  131.7944  128.8124   57.4998 H   0  0  0  0  0  0  0  0  0  0  0  0
  133.6559  130.4749   57.2097 H   0  0  0  0  0  0  0  0  0  0  0  0
  134.0552  132.2007   58.9929 H   0  0  0  0  0  0  0  0  0  0  0  0
  132.6007  132.2133   61.0069 H   0  0  0  0  0  0  0  0  0  0  0  0
  129.5543  125.6369   60.2087 H   0  0  0  0  0  0  0  0  0  0  0  0
  130.0862  126.5157   58.6985 H   0  0  0  0  0  0  0  0  0  0  0  0
  132.1207  125.9769   57.6519 H   0  0  0  0  0  0  0  0  0  0  0  0
  134.2586  124.6568   57.6882 H   0  0  0  0  0  0  0  0  0  0  0  0
  134.9132  123.4312   59.7824 H   0  0  0  0  0  0  0  0  0  0  0  0
  133.4291  123.5609   61.7706 H   0  0  0  0  0  0  0  0  0  0  0  0
  128.8440  117.2819   62.2912 H   0  0  0  0  0  0  0  0  0  0  0  0
  1  2  2  0
  2  3  1  0
  3  4  2  0
  4  5  1  0
  5  6  1  0
  6  7  1  0
  7  8  1  0
  8  9  2  0
  9 10  1  0
 10 11  2  0
 11 12  1  0
 12 13  2  0
  6 14  1  0
 14 15  1  0
 15 16  2  0
 16 17  1  0
 17 18  2  0
 18 19  1  0
 19 20  1  0
 20 21  1  0
 21 22  1  0
 22 23  1  0
 23 24  2  0
 24 25  1  0
 25 26  2  0
 26 27  1  0
 27 28  2  0
 21 29  1  0
 29 30  1  0
 30 31  2  0
 31 32  1  0
 32 33  2  0
 33 34  1  0
 34 35  2  0
 19 36  2  0
  4 37  1  0
 37 38  2  0
 38  1  1  0
 13  8  1  0
 36 15  1  0
 28 23  1  0
 35 30  1  0
  1 39  1  0
  2 40  1  0
  3 41  1  0
  5 42  1  0
  5 43  1  0
  7 44  1  0
  7 45  1  0
  9 46  1  0
 10 47  1  0
 11 48  1  0
 12 49  1  0
 14 50  1  0
 14 51  1  0
 16 52  1  0
 17 53  1  0
 18 54  1  0
 20 55  1  0
 20 56  1  0
 22 57  1  0
 22 58  1  0
 24 59  1  0
 25 60  1  0
 26 61  1  0
 27 62  1  0
 29 63  1  0
 29 64  1  0
 31 65  1  0
 32 66  1  0
 33 67  1  0
 34 68  1  0
 38 69  1  0
M  END
>  <Binding energies>  (1) 
[-7.64]

>  <Ligand effiencies>  (1) 
[-0.20105263157894737]

>  <Interactions>  (1) 
["V-A:ILE:369:CG2:3237, V-A:ASP:366:CA:3210, V-B:PRO:540:CA:9855, V-A:ILE:369:CB:3236, V-B:ALA:541:CB:9864, V-B:TYR:539:CE2:9848, V-B:GLU:543:CG:9879, V-B:TYR:539:C:9839, V-A:ASP:366:CG:3213, V-A:LEU:363:CD1:3189, V-A:LEU:363:CB:3187, V-A:TYR:531:CE2:4793, H-B:ALA:541:N:9863, V-A:LEU:475:CD1:4258, V-A:HIS:383:CE1:3393, V-B:TYR:539:CB:9843, V-A:GLU:543:CD:4908, V-B:PRO:540:CB:9857, V-B:PRO:540:N:9856, V-A:ILE:369:CD1:3239, V-A:ASP:366:C:3208, V-A:PRO:482:CB:4326, V-B:TYR:539:CD2:9846, V-B:PRO:540:CD:9859, V-B:GLU:543:CD:9880, V-A:ASP:366:CB:3212, V-A:LEU:475:CD2:4259, V-A:HIS:383:CD2:3392, V-A:PRO:482:CG:4327, V-A:PRO:540:CA:4883, V-A:PRO:540:CB:4885, V-A:LEU:363:CA:3185, V-A:HIS:383:NE2:3394"]

$$$$
ZINC196185515
     RDKit          3D

102104  0  0  0  0  0  0  0  0999 V2000
  132.6660  127.5800   57.4480 H   0  0  0  0  0  0  0  0  0  0  0  0
  132.1110  127.7520   58.2740 N   0  0  0  0  0  0  0  0  0  0  0  0
  131.0100  127.1310   58.2650 C   0  0  0  0  0  0  0  0  0  0  0  0
  130.5430  126.2320   57.1540 C   0  0  0  0  0  0  0  0  0  0  0  0
  128.7050  126.4820   57.1430 S   0  0  0  0  0  0  0  0  0  0  0  0
  128.0300  125.2400   56.7500 O   0  0  0  0  0  0  0  0  0  0  0  0
  128.4000  127.7310   56.4360 O   0  0  0  0  0  0  0  0  0  0  0  0
  128.6870  126.6950   58.7880 O   0  0  0  0  0  0  0  0  0  0  0  0
  129.9140  127.1700   59.3580 C   0  0  1  0  0  0  0  0  0  0  0  0
  130.1930  126.3030   60.6170 C   0  0  1  0  0  0  0  0  0  0  0  0
  131.6610  126.1350   61.0690 C   0  0  0  0  0  0  0  0  0  0  0  0
  131.7220  126.1210   62.4820 O   0  0  0  0  0  0  0  0  0  0  0  0
  131.8600  124.7530   63.4450 Si  0  0  0  0  0  4  0  0  0  0  0  0
  132.3620  123.3170   62.3310 C   0  0  0  0  0  0  0  0  0  0  0  0
  133.1860  125.0620   64.7550 C   0  0  0  0  0  0  0  0  0  0  0  0
  130.1590  124.4750   64.2480 C   0  0  0  0  0  0  0  0  0  0  0  0
  129.8430  125.6200   65.2330 C   0  0  0  0  0  0  0  0  0  0  0  0
  129.0710  124.4350   63.1530 C   0  0  0  0  0  0  0  0  0  0  0  0
  130.1540  123.1360   65.0140 C   0  0  0  0  0  0  0  0  0  0  0  0
  129.5480  127.0150   61.6770 O   0  0  0  0  0  0  0  0  0  0  0  0
  128.9060  128.1630   61.2150 C   0  0  1  0  0  0  0  0  0  0  0  0
  128.8050  129.1750   62.2630 N   0  0  0  0  0  0  0  0  0  0  0  0
  129.1090  130.4800   61.9660 C   0  0  0  0  0  0  0  0  0  0  0  0
  128.9740  131.5080   62.8230 C   0  0  0  0  0  0  0  0  0  0  0  0
  129.3200  132.9500   62.4650 C   0  0  0  0  0  0  0  0  0  0  0  0
  128.4550  131.2310   64.1610 C   0  0  0  0  0  0  0  0  0  0  0  0
  128.3180  132.1240   65.0030 O   0  0  0  0  0  0  0  0  0  0  0  0
  128.1420  129.9000   64.3760 N   0  0  0  0  0  0  0  0  0  0  0  0
  127.5670  129.5790   65.7080 C   0  0  0  0  0  0  0  0  0  0  0  0
  128.2670  128.4030   66.4190 C   0  0  0  0  0  0  0  0  0  0  0  0
  128.6460  128.7410   67.8720 C   0  0  0  0  0  0  0  0  0  0  0  0
  129.6620  127.7570   68.4740 C   0  0  0  0  0  0  0  0  0  0  0  0
  128.9910  126.5710   69.1920 C   0  0  0  0  0  0  0  0  0  0  0  0
  127.9730  127.0130   70.2580 C   0  0  0  0  0  0  0  0  0  0  0  0
  128.4190  126.6700   71.6860 C   0  0  0  0  0  0  0  0  0  0  0  0
  129.7110  128.0400   72.3300 Br  0  0  0  0  0  0  0  0  0  0  0  0
  128.3010  128.8280   63.5040 C   0  0  0  0  0  0  0  0  0  0  0  0
  128.0070  127.6680   63.8140 O   0  0  0  0  0  0  0  0  0  0  0  0
  129.6780  128.5590   59.9650 C   0  0  2  0  0  0  0  0  0  0  0  0
  128.9180  129.4230   59.1370 O   0  0  0  0  0  0  0  0  0  0  0  0
  129.4820  130.7920   58.3410 Si  0  0  0  0  0  4  0  0  0  0  0  0
  130.7990  131.6220   59.4130 C   0  0  0  0  0  0  0  0  0  0  0  0
  130.2290  130.2320   56.7020 C   0  0  0  0  0  0  0  0  0  0  0  0
  127.9940  131.9470   58.0700 C   0  0  0  0  0  0  0  0  0  0  0  0
  128.3320  132.9920   56.9860 C   0  0  0  0  0  0  0  0  0  0  0  0
  126.7670  131.1300   57.6160 C   0  0  0  0  0  0  0  0  0  0  0  0
  127.6500  132.6830   59.3820 C   0  0  0  0  0  0  0  0  0  0  0  0
  130.9867  126.5309   56.1929 H   0  0  0  0  0  0  0  0  0  0  0  0
  130.8327  125.1811   57.3013 H   0  0  0  0  0  0  0  0  0  0  0  0
  129.8496  125.2858   60.3772 H   0  0  0  0  0  0  0  0  0  0  0  0
  132.0594  125.1881   60.6757 H   0  0  0  0  0  0  0  0  0  0  0  0
  132.2605  126.9736   60.6850 H   0  0  0  0  0  0  0  0  0  0  0  0
  132.6618  122.4593   62.9511 H   0  0  0  0  0  0  0  0  0  0  0  0
  131.5107  123.0306   61.6960 H   0  0  0  0  0  0  0  0  0  0  0  0
  133.2064  123.6233   61.6960 H   0  0  0  0  0  0  0  0  0  0  0  0
  132.7430  124.9588   65.7566 H   0  0  0  0  0  0  0  0  0  0  0  0
  133.9973  124.3289   64.6356 H   0  0  0  0  0  0  0  0  0  0  0  0
  133.5896  126.0783   64.6356 H   0  0  0  0  0  0  0  0  0  0  0  0
  129.9440  125.2539   66.2654 H   0  0  0  0  0  0  0  0  0  0  0  0
  130.5456  126.4501   65.0679 H   0  0  0  0  0  0  0  0  0  0  0  0
  128.8141  125.9722   65.0679 H   0  0  0  0  0  0  0  0  0  0  0  0
  128.0777  124.3985   63.6242 H   0  0  0  0  0  0  0  0  0  0  0  0
  129.1471  125.3366   62.5274 H   0  0  0  0  0  0  0  0  0  0  0  0
  129.2131  123.5415   62.5274 H   0  0  0  0  0  0  0  0  0  0  0  0
  130.1547  123.3327   66.0963 H   0  0  0  0  0  0  0  0  0  0  0  0
  129.2537  122.5636   64.7460 H   0  0  0  0  0  0  0  0  0  0  0  0
  131.0500  122.5569   64.7460 H   0  0  0  0  0  0  0  0  0  0  0  0
  127.8499  128.0105   60.9476 H   0  0  0  0  0  0  0  0  0  0  0  0
  129.4893  130.7005   60.9576 H   0  0  0  0  0  0  0  0  0  0  0  0
  129.4599  133.5332   63.3871 H   0  0  0  0  0  0  0  0  0  0  0  0
  130.2481  132.9687   61.8749 H   0  0  0  0  0  0  0  0  0  0  0  0
  128.5014  133.3878   61.8749 H   0  0  0  0  0  0  0  0  0  0  0  0
  127.6514  130.4707   66.3466 H   0  0  0  0  0  0  0  0  0  0  0  0
  126.5219  129.2782   65.5427 H   0  0  0  0  0  0  0  0  0  0  0  0
  127.5883  127.5373   66.4227 H   0  0  0  0  0  0  0  0  0  0  0  0
  129.1954  128.1833   65.8715 H   0  0  0  0  0  0  0  0  0  0  0  0
  129.0811  129.7511   67.8945 H   0  0  0  0  0  0  0  0  0  0  0  0
  127.7281  128.6747   68.4746 H   0  0  0  0  0  0  0  0  0  0  0  0
  130.2943  127.3651   67.6637 H   0  0  0  0  0  0  0  0  0  0  0  0
  130.2518  128.3065   69.2224 H   0  0  0  0  0  0  0  0  0  0  0  0
  128.4700  125.9567   68.4429 H   0  0  0  0  0  0  0  0  0  0  0  0
  129.7827  126.0065   69.7064 H   0  0  0  0  0  0  0  0  0  0  0  0
  127.8377  128.1022   70.1843 H   0  0  0  0  0  0  0  0  0  0  0  0
  127.0355  126.4709   70.0650 H   0  0  0  0  0  0  0  0  0  0  0  0
  127.5417  126.6538   72.3494 H   0  0  0  0  0  0  0  0  0  0  0  0
  128.9024  125.6819   71.6900 H   0  0  0  0  0  0  0  0  0  0  0  0
  130.6003  129.1356   60.1291 H   0  0  0  0  0  0  0  0  0  0  0  0
  130.5569  131.4694   60.4751 H   0  0  0  0  0  0  0  0  0  0  0  0
  131.7822  131.1800   59.1939 H   0  0  0  0  0  0  0  0  0  0  0  0
  130.8244  132.6997   59.1939 H   0  0  0  0  0  0  0  0  0  0  0  0
  131.0952  129.5826   56.8967 H   0  0  0  0  0  0  0  0  0  0  0  0
  129.4750  129.6748   56.1267 H   0  0  0  0  0  0  0  0  0  0  0  0
  130.5524  131.1120   56.1267 H   0  0  0  0  0  0  0  0  0  0  0  0
  128.6365  133.9335   57.4666 H   0  0  0  0  0  0  0  0  0  0  0  0
  129.1548  132.6173   56.3594 H   0  0  0  0  0  0  0  0  0  0  0  0
  127.4457  133.1701   56.3594 H   0  0  0  0  0  0  0  0  0  0  0  0
  126.2212  130.7666   58.4992 H   0  0  0  0  0  0  0  0  0  0  0  0
  126.1046  131.7680   57.0125 H   0  0  0  0  0  0  0  0  0  0  0  0
  127.1001  130.2728   57.0125 H   0  0  0  0  0  0  0  0  0  0  0  0
  127.9416  132.0591   60.2397 H   0  0  0  0  0  0  0  0  0  0  0  0
  128.1952  133.6376   59.4207 H   0  0  0  0  0  0  0  0  0  0  0  0
  126.5679  132.8770   59.4207 H   0  0  0  0  0  0  0  0  0  0  0  0
  1  2  1  0
  2  3  2  0
  3  4  1  0
  4  5  1  0
  5  6  2  0
  5  7  2  0
  5  8  1  0
  9  8  1  6
  9 10  1  0
 10 11  1  0
 11 12  1  0
 12 13  1  0
 13 14  1  0
 13 15  1  0
 13 16  1  0
 16 17  1  0
 16 18  1  0
 16 19  1  0
 10 20  1  0
 20 21  1  0
 21 22  1  0
 22 23  1  0
 23 24  2  0
 24 25  1  0
 24 26  1  0
 26 27  2  0
 26 28  1  0
 28 29  1  0
 29 30  1  0
 30 31  1  0
 31 32  1  0
 32 33  1  0
 33 34  1  0
 34 35  1  0
 35 36  1  0
 28 37  1  0
 37 38  2  0
 21 39  1  0
 39 40  1  0
 40 41  1  0
 41 42  1  0
 41 43  1  0
 41 44  1  0
 44 45  1  0
 44 46  1  0
 44 47  1  0
  9  3  1  0
 37 22  1  0
 39  9  1  0
  4 48  1  0
  4 49  1  0
 10 50  1  6
 11 51  1  0
 11 52  1  0
 14 53  1  0
 14 54  1  0
 14 55  1  0
 15 56  1  0
 15 57  1  0
 15 58  1  0
 17 59  1  0
 17 60  1  0
 17 61  1  0
 18 62  1  0
 18 63  1  0
 18 64  1  0
 19 65  1  0
 19 66  1  0
 19 67  1  0
 21 68  1  6
 23 69  1  0
 25 70  1  0
 25 71  1  0
 25 72  1  0
 29 73  1  0
 29 74  1  0
 30 75  1  0
 30 76  1  0
 31 77  1  0
 31 78  1  0
 32 79  1  0
 32 80  1  0
 33 81  1  0
 33 82  1  0
 34 83  1  0
 34 84  1  0
 35 85  1  0
 35 86  1  0
 39 87  1  1
 42 88  1  0
 42 89  1  0
 42 90  1  0
 43 91  1  0
 43 92  1  0
 43 93  1  0
 45 94  1  0
 45 95  1  0
 45 96  1  0
 46 97  1  0
 46 98  1  0
 46 99  1  0
 47100  1  0
 47101  1  0
 47102  1  0
M  END
>  <Binding energies>  (1) 
[-8.58]

>  <Ligand effiencies>  (1) 
[-0.1825531914893617]

>  <Interactions>  (1) 
["V-B:GLU:543:C:9874, V-A:PRO:540:C:4881, V-B:GLU:543:CB:9878, H-A:TYR:531:OH:4795, V-A:TYR:484:CE2:4346, V-B:GLU:543:CG:9879, V-A:TYR:539:CE2:4876, V-A:ASP:366:CG:3213, V-A:TYR:539:CD1:4873, V-A:TYR:539:CZ:4877, V-A:ALA:541:CB:4892, V-A:GLU:543:CD:4908, V-A:TYR:484:CZ:4347, H-B:TYR:484:OH:9319, V-B:HIS:456:CE1:9041, V-B:TYR:484:CZ:9318, V-A:HIS:456:CE1:4070, V-A:ALA:541:CA:4890, V-A:GLU:543:CG:4907, V-A:MET:535:CE:4835, V-B:GLU:543:CD:9880, H-B:TYR:531:OH:9767, H-A:ARG:545:NH2:4928, V-A:ARG:545:CZ:4926, V-A:GLU:543:CB:4906, V-A:TYR:539:CG:4872, V-A:PRO:540:CB:4885, V-A:PRO:540:CA:4883, V-A:TYR:539:CD2:4874, H-A:ASP:366:OD2:3215, V-A:TYR:539:CE1:4875"]

$$$$
ZINC1961932655-again1
     RDKit          3D

 34 34  0  0  0  0  0  0  0  0999 V2000
  130.5840  128.0850   69.9140 C   0  0  0  0  0  0  0  0  0  0  0  0
  129.9440  127.4290   69.1070 C   0  0  0  0  0  0  0  0  0  0  0  0
  129.1760  126.6450   68.1210 C   0  0  0  0  0  0  0  0  0  0  0  0
  129.8800  125.3760   67.5930 C   0  0  0  0  0  0  0  0  0  0  0  0
  130.0040  125.2970   66.0580 C   0  0  0  0  0  0  0  0  0  0  0  0
  131.4540  125.4540   65.5750 C   0  0  0  0  0  0  0  0  0  0  0  0
  131.7100  124.5230   64.5310 O   0  0  0  0  0  0  0  0  0  0  0  0
  132.8630  124.5730   63.8320 C   0  0  0  0  0  0  0  0  0  0  0  0
  133.9720  124.8320   64.3050 O   0  0  0  0  0  0  0  0  0  0  0  0
  132.6270  124.2690   62.3370 C   0  0  1  0  0  0  0  0  0  0  0  0
  133.7670  124.3710   61.2870 C   0  0  1  0  0  0  0  0  0  0  0  0
  135.1280  124.7200   61.6610 N   0  0  0  0  0  0  0  0  0  0  0  0
  133.1930  123.0320   61.6540 C   0  0  0  0  0  0  0  0  0  0  0  0
  134.0590  121.9920   62.4090 C   0  0  0  0  0  0  0  0  0  0  0  0
  132.2870  122.3580   60.6080 C   0  0  0  0  0  0  0  0  0  0  0  0
  131.1605  128.6759   70.6409 H   0  0  0  0  0  0  0  0  0  0  0  0
  128.2311  126.3378   68.5930 H   0  0  0  0  0  0  0  0  0  0  0  0
  129.0405  127.3022   67.2494 H   0  0  0  0  0  0  0  0  0  0  0  0
  130.8931  125.3437   68.0203 H   0  0  0  0  0  0  0  0  0  0  0  0
  129.2534  124.5247   67.8974 H   0  0  0  0  0  0  0  0  0  0  0  0
  129.6248  124.3201   65.7235 H   0  0  0  0  0  0  0  0  0  0  0  0
  129.4189  126.1258   65.6328 H   0  0  0  0  0  0  0  0  0  0  0  0
  131.6066  126.4767   65.1997 H   0  0  0  0  0  0  0  0  0  0  0  0
  132.1417  125.2638   66.4122 H   0  0  0  0  0  0  0  0  0  0  0  0
  131.6255  124.7067   62.4614 H   0  0  0  0  0  0  0  0  0  0  0  0
  133.9094  124.9382   60.3553 H   0  0  0  0  0  0  0  0  0  0  0  0
  135.5810  125.2380   60.9220 H   0  0  0  0  0  0  0  0  0  0  0  0
  135.1370  125.2870   62.4970 H   0  0  0  0  0  0  0  0  0  0  0  0
  133.9406  122.1342   63.4933 H   0  0  0  0  0  0  0  0  0  0  0  0
  133.7354  120.9771   62.1348 H   0  0  0  0  0  0  0  0  0  0  0  0
  135.1157  122.1265   62.1348 H   0  0  0  0  0  0  0  0  0  0  0  0
  131.5057  121.7768   61.1197 H   0  0  0  0  0  0  0  0  0  0  0  0
  131.8178  123.1284   59.9784 H   0  0  0  0  0  0  0  0  0  0  0  0
  132.8900  121.6872   59.9784 H   0  0  0  0  0  0  0  0  0  0  0  0
  1  2  3  0
  2  3  1  0
  3  4  1  0
  4  5  1  0
  5  6  1  0
  6  7  1  0
  7  8  1  0
  8  9  2  0
  8 10  1  0
 10 11  1  0
 11 12  1  0
 11 13  1  0
 13 14  1  0
 13 15  1  0
 13 10  1  0
  1 16  1  0
  3 17  1  0
  3 18  1  0
  4 19  1  0
  4 20  1  0
  5 21  1  0
  5 22  1  0
  6 23  1  0
  6 24  1  0
 10 25  1  6
 11 26  1  6
 12 27  1  0
 12 28  1  0
 14 29  1  0
 14 30  1  0
 14 31  1  0
 15 32  1  0
 15 33  1  0
 15 34  1  0
M  END
>  <Binding energies>  (1) 
[-4.81]

>  <Ligand effiencies>  (1) 
[-0.2829411764705882]

>  <Interactions>  (1) 
["V-A:GLY:454:CA:4049, V-A:GLU:543:C:4902, V-B:GLU:543:CB:9878, H-A:ARG:545:NH1:4927, V-A:TYR:484:CE2:4346, V-B:TYR:539:CE2:9848, V-B:GLU:543:CG:9879, V-A:GLY:544:C:4912, V-A:ASP:366:CG:3213, V-A:GLU:543:CD:4908, V-B:GLU:543:CA:9876, H-A:GLY:454:N:4050, V-A:HIS:456:CE1:4070, V-A:ILE:369:CD1:3239, V-B:TYR:539:CD2:9846, V-B:GLU:543:CD:9880, V-A:LEU:475:CD2:4259, H-A:ARG:545:NH2:4928, V-A:ARG:545:CZ:4926, V-A:GLU:543:CB:4906, H-A:ASP:366:OD1:3214, H-A:ARG:545:NE:4924, H-A:TYR:484:OH:4348"]

$$$$
ZINC1962267982
     RDKit          3D

 37 38  0  0  0  0  0  0  0  0999 V2000
  132.9050  131.8710   61.6330 C   0  0  0  0  0  0  0  0  0  0  0  0
  132.5110  131.1050   60.3580 C   0  0  2  0  0  0  0  0  0  0  0  0
  133.3800  131.5290   59.1510 C   0  0  0  0  0  0  0  0  0  0  0  0
  132.9970  130.7240   57.8910 C   0  0  0  0  0  0  0  0  0  0  0  0
  131.4890  130.8720   57.5630 C   0  0  2  0  0  0  0  0  0  0  0  0
  131.1920  132.2600   57.1610 C   0  0  0  0  0  0  0  0  0  0  0  0
  130.9590  133.3490   56.8450 N   0  0  0  0  0  0  0  0  0  0  0  0
  130.5900  130.4720   58.7720 C   0  0  1  0  0  0  0  0  0  0  0  0
  130.5940  129.0250   59.0030 N   0  0  0  0  0  0  0  0  0  0  0  0
  130.3100  128.1250   57.8840 C   0  0  0  0  0  0  0  0  0  0  0  0
  129.5950  127.1750   58.8290 C   0  0  0  0  0  0  0  0  0  0  0  0
  129.5260  128.3790   59.7690 C   0  0  1  0  0  0  0  0  0  0  0  0
  129.8380  128.0890   61.2530 C   0  0  0  0  0  0  0  0  0  0  0  0
  131.2020  128.6710   61.6440 N   0  0  0  0  0  0  0  0  0  0  0  0
  131.0220  131.3230   59.9980 C   0  0  0  0  0  0  0  0  0  0  0  0
  132.6058  131.2893   62.5174 H   0  0  0  0  0  0  0  0  0  0  0  0
  133.9941  132.0248   61.6465 H   0  0  0  0  0  0  0  0  0  0  0  0
  132.3967  132.8464   61.6465 H   0  0  0  0  0  0  0  0  0  0  0  0
  132.6795  130.0395   60.5733 H   0  0  0  0  0  0  0  0  0  0  0  0
  133.2268  132.6005   58.9549 H   0  0  0  0  0  0  0  0  0  0  0  0
  134.4354  131.3307   59.3891 H   0  0  0  0  0  0  0  0  0  0  0  0
  133.5867  131.0916   57.0383 H   0  0  0  0  0  0  0  0  0  0  0  0
  133.2076  129.6613   58.0814 H   0  0  0  0  0  0  0  0  0  0  0  0
  131.2627  130.1875   56.7322 H   0  0  0  0  0  0  0  0  0  0  0  0
  129.5342  130.6975   58.5613 H   0  0  0  0  0  0  0  0  0  0  0  0
  129.6613  128.5614   57.1102 H   0  0  0  0  0  0  0  0  0  0  0  0
  131.1253  127.7617   57.2411 H   0  0  0  0  0  0  0  0  0  0  0  0
  128.6233  126.8026   58.4725 H   0  0  0  0  0  0  0  0  0  0  0  0
  130.0098  126.2015   59.1294 H   0  0  0  0  0  0  0  0  0  0  0  0
  128.5729  128.9004   59.9414 H   0  0  0  0  0  0  0  0  0  0  0  0
  129.0579  128.5435   61.8815 H   0  0  0  0  0  0  0  0  0  0  0  0
  129.8623  126.9995   61.4029 H   0  0  0  0  0  0  0  0  0  0  0  0
  131.0840  129.5780   62.0740 H   0  0  0  0  0  0  0  0  0  0  0  0
  131.7830  128.7730   60.8240 H   0  0  0  0  0  0  0  0  0  0  0  0
  131.6680  128.0580   62.2990 H   0  0  0  0  0  0  0  0  0  0  0  0
  130.8647  132.3866   59.7654 H   0  0  0  0  0  0  0  0  0  0  0  0
  130.4143  131.0106   60.8601 H   0  0  0  0  0  0  0  0  0  0  0  0
  1  2  1  0
  2  3  1  0
  3  4  1  0
  4  5  1  0
  5  6  1  0
  6  7  3  0
  5  8  1  0
  8  9  1  0
  9 10  1  0
 10 11  1  0
 11 12  1  0
 12 13  1  0
 13 14  1  0
  8 15  1  0
 15  2  1  0
 12  9  1  0
  1 16  1  0
  1 17  1  0
  1 18  1  0
  2 19  1  1
  3 20  1  0
  3 21  1  0
  4 22  1  0
  4 23  1  0
  5 24  1  6
  8 25  1  6
 10 26  1  0
 10 27  1  0
 11 28  1  0
 11 29  1  0
 12 30  1  1
 13 31  1  0
 13 32  1  0
 14 33  1  0
 14 34  1  0
 14 35  1  0
 15 36  1  0
 15 37  1  0
M  CHG  1  14   1
M  END
>  <Binding energies>  (1) 
[-6.71]

>  <Ligand effiencies>  (1) 
[-0.37277777777777776]

>  <Interactions>  (1) 
["V-A:LEU:363:CB:3187, V-A:LEU:363:CD1:3189, H-A:TYR:539:N:4870, V-A:PRO:540:CB:4885, V-A:LEU:363:CA:3185, H-A:GLU:543:OE2:4910, V-A:PRO:540:CA:4883, V-A:TYR:531:CE2:4793, V-A:GLU:543:CD:4908, H-A:ASP:366:OD2:3215, V-A:ASP:366:CB:3212, H-A:GLU:543:OE1:4909, V-A:ASP:366:CG:3213, V-A:ASN:362:CB:3176"]

$$$$
ZINC196272251
     RDKit          3D

 50 52  0  0  0  0  0  0  0  0999 V2000
  130.1980  117.2050   61.0540 C   0  0  0  0  0  0  0  0  0  0  0  0
  130.1380  118.4350   61.5870 C   0  0  0  0  0  0  0  0  0  0  0  0
  130.6150  119.7020   60.9000 C   0  0  0  0  0  0  0  0  0  0  0  0
  130.0970  120.9740   61.5570 C   0  0  0  0  0  0  0  0  0  0  0  0
  128.7680  121.3760   61.3570 C   0  0  0  0  0  0  0  0  0  0  0  0
  128.2770  122.5530   61.9470 C   0  0  0  0  0  0  0  0  0  0  0  0
  126.9860  123.0310   61.8280 O   0  0  0  0  0  0  0  0  0  0  0  0
  126.7430  124.1320   60.9620 C   0  0  0  0  0  0  0  0  0  0  0  0
  129.1570  123.3090   62.7200 C   0  0  0  0  0  0  0  0  0  0  0  0
  130.4720  122.9330   62.9270 C   0  0  0  0  0  0  0  0  0  0  0  0
  130.9500  121.7580   62.3470 C   0  0  0  0  0  0  0  0  0  0  0  0
  131.1190  123.9470   63.8270 C   0  0  1  0  0  0  0  0  0  0  0  0
  132.4270  124.5750   63.2940 C   0  0  0  0  0  0  0  0  0  0  0  0
  133.5090  124.3520   64.1760 O   0  0  0  0  0  0  0  0  0  0  0  0
  129.9850  124.9880   64.0030 C   0  0  2  0  0  0  0  0  0  0  0  0
  129.7280  125.4210   65.4430 C   0  0  0  0  0  0  0  0  0  0  0  0
  130.0950  124.5930   66.5050 C   0  0  0  0  0  0  0  0  0  0  0  0
  129.8550  124.9880   67.8180 C   0  0  0  0  0  0  0  0  0  0  0  0
  129.2470  126.2240   68.0960 C   0  0  0  0  0  0  0  0  0  0  0  0
  128.9730  126.6730   69.3770 O   0  0  0  0  0  0  0  0  0  0  0  0
  129.7580  127.7220   69.9340 C   0  0  0  0  0  0  0  0  0  0  0  0
  128.8840  127.0670   67.0340 C   0  0  0  0  0  0  0  0  0  0  0  0
  128.2920  128.2740   67.3620 O   0  0  0  0  0  0  0  0  0  0  0  0
  127.6530  129.0410   66.3470 C   0  0  0  0  0  0  0  0  0  0  0  0
  129.1310  126.6540   65.7120 C   0  0  0  0  0  0  0  0  0  0  0  0
  128.8160  124.4710   63.3610 O   0  0  0  0  0  0  0  0  0  0  0  0
  129.8283  116.3399   61.6241 H   0  0  0  0  0  0  0  0  0  0  0  0
  130.6169  117.0618   60.0470 H   0  0  0  0  0  0  0  0  0  0  0  0
  129.7117  118.5325   62.5963 H   0  0  0  0  0  0  0  0  0  0  0  0
  131.7146  119.7194   60.9238 H   0  0  0  0  0  0  0  0  0  0  0  0
  130.2233  119.6830   59.8723 H   0  0  0  0  0  0  0  0  0  0  0  0
  128.1027  120.7629   60.7312 H   0  0  0  0  0  0  0  0  0  0  0  0
  126.5442  125.0328   61.5611 H   0  0  0  0  0  0  0  0  0  0  0  0
  127.6254  124.3011   60.3274 H   0  0  0  0  0  0  0  0  0  0  0  0
  125.8714  123.9139   60.3274 H   0  0  0  0  0  0  0  0  0  0  0  0
  131.9927  121.4474   62.5088 H   0  0  0  0  0  0  0  0  0  0  0  0
  131.4757  123.4925   64.7631 H   0  0  0  0  0  0  0  0  0  0  0  0
  132.6650  124.1287   62.3172 H   0  0  0  0  0  0  0  0  0  0  0  0
  132.2752  125.6607   63.2036 H   0  0  0  0  0  0  0  0  0  0  0  0
  133.1730  123.9270   64.9690 H   0  0  0  0  0  0  0  0  0  0  0  0
  130.3028  125.9265   63.5253 H   0  0  0  0  0  0  0  0  0  0  0  0
  130.5758  123.6244   66.3036 H   0  0  0  0  0  0  0  0  0  0  0  0
  130.1444  124.3254   68.6470 H   0  0  0  0  0  0  0  0  0  0  0  0
  129.7171  127.6673   71.0319 H   0  0  0  0  0  0  0  0  0  0  0  0
  130.8008  127.6165   69.6002 H   0  0  0  0  0  0  0  0  0  0  0  0
  129.3626  128.6927   69.6002 H   0  0  0  0  0  0  0  0  0  0  0  0
  127.0152  129.8066   66.8128 H   0  0  0  0  0  0  0  0  0  0  0  0
  128.4151  129.5294   65.7220 H   0  0  0  0  0  0  0  0  0  0  0  0
  127.0350  128.3796   65.7220 H   0  0  0  0  0  0  0  0  0  0  0  0
  128.8494  127.3128   64.8773 H   0  0  0  0  0  0  0  0  0  0  0  0
  1  2  2  0
  2  3  1  0
  3  4  1  0
  4  5  2  0
  5  6  1  0
  6  7  1  0
  7  8  1  0
  6  9  2  0
  9 10  1  0
 10 11  2  0
 10 12  1  0
 12 13  1  0
 13 14  1  0
 12 15  1  0
 15 16  1  0
 16 17  2  0
 17 18  1  0
 18 19  2  0
 19 20  1  0
 20 21  1  0
 19 22  1  0
 22 23  1  0
 23 24  1  0
 22 25  2  0
 15 26  1  0
 11  4  1  0
 25 16  1  0
 26  9  1  0
  1 27  1  0
  1 28  1  0
  2 29  1  0
  3 30  1  0
  3 31  1  0
  5 32  1  0
  8 33  1  0
  8 34  1  0
  8 35  1  0
 11 36  1  0
 12 37  1  1
 13 38  1  0
 13 39  1  0
 14 40  1  0
 15 41  1  6
 17 42  1  0
 18 43  1  0
 21 44  1  0
 21 45  1  0
 21 46  1  0
 24 47  1  0
 24 48  1  0
 24 49  1  0
 25 50  1  0
M  END
>  <Binding energies>  (1) 
[-6.02]

>  <Ligand effiencies>  (1) 
[-0.22296296296296295]

>  <Interactions>  (1) 
["V-B:PRO:540:CA:9855, V-B:GLU:543:C:9874, V-B:GLU:543:CB:9878, V-B:ALA:541:CB:9864, V-A:TYR:484:CE2:4346, V-A:LEU:475:CG:4257, V-B:GLU:543:CG:9879, V-B:TYR:539:C:9839, H-B:ALA:541:N:9863, V-A:LEU:475:CD1:4258, V-A:HIS:383:CE1:3393, V-A:TYR:484:CZ:4347, V-A:GLU:543:CD:4908, V-B:GLU:543:CA:9876, H-A:GLY:454:N:4050, V-B:HIS:456:CE1:9041, V-A:HIS:456:CE1:4070, V-A:PRO:482:CB:4326, V-B:TYR:539:CD2:9846, V-A:GLU:543:CG:4907, V-B:GLU:543:CD:9880, V-A:LEU:475:CD2:4259, V-A:GLU:543:CB:4906, V-A:PRO:482:CG:4327, V-B:PRO:540:C:9853, V-B:ALA:541:CA:9862, V-A:HIS:383:NE2:3394, H-A:TYR:484:OH:4348"]

$$$$
ZINC196750
     RDKit          3D

 34 36  0  0  0  0  0  0  0  0999 V2000
  129.6330  121.3400   60.5350 N   0  0  0  0  0  0  0  0  0  0  0  0
  129.7980  121.9910   61.4780 C   0  0  0  0  0  0  0  0  0  0  0  0
  130.0220  122.8040   62.6310 C   0  0  0  0  0  0  0  0  0  0  0  0
  128.9860  123.1860   63.4070 C   0  0  0  0  0  0  0  0  0  0  0  0
  127.6600  122.8880   63.2350 N   0  0  0  0  0  0  0  0  0  0  0  0
  129.1100  123.9820   64.4950 O   0  0  0  0  0  0  0  0  0  0  0  0
  130.3300  124.4450   64.8760 C   0  0  0  0  0  0  0  0  0  0  0  0
  131.4780  124.1820   64.1930 C   0  0  0  0  0  0  0  0  0  0  0  0
  132.7740  124.7230   64.6640 C   0  0  0  0  0  0  0  0  0  0  0  0
  133.8540  124.3400   64.2140 O   0  0  0  0  0  0  0  0  0  0  0  0
  132.7230  125.7560   65.8030 C   0  0  0  0  0  0  0  0  0  0  0  0
  131.5940  125.4580   66.8060 C   0  0  0  0  0  0  0  0  0  0  0  0
  130.2200  125.3110   66.1260 C   0  0  0  0  0  0  0  0  0  0  0  0
  131.4550  123.2550   62.9480 C   0  0  2  0  0  0  0  0  0  0  0  0
  132.2160  123.7750   61.7110 C   0  0  0  0  0  0  0  0  0  0  0  0
  131.7780  124.9600   61.0960 C   0  0  0  0  0  0  0  0  0  0  0  0
  130.7090  125.6320   61.5840 F   0  0  0  0  0  0  0  0  0  0  0  0
  132.4350  125.4650   59.9740 C   0  0  0  0  0  0  0  0  0  0  0  0
  133.5330  124.7930   59.4460 C   0  0  0  0  0  0  0  0  0  0  0  0
  133.9740  123.6140   60.0390 C   0  0  0  0  0  0  0  0  0  0  0  0
  133.3250  123.0970   61.1630 C   0  0  0  0  0  0  0  0  0  0  0  0
  133.9340  121.6180   61.8250 Cl  0  0  0  0  0  0  0  0  0  0  0  0
  127.3790  122.0300   62.7810 H   0  0  0  0  0  0  0  0  0  0  0  0
  126.9530  123.5960   63.3680 H   0  0  0  0  0  0  0  0  0  0  0  0
  133.6845  125.7425   66.3372 H   0  0  0  0  0  0  0  0  0  0  0  0
  132.5276  126.7423   65.3568 H   0  0  0  0  0  0  0  0  0  0  0  0
  131.8286  124.5209   67.3321 H   0  0  0  0  0  0  0  0  0  0  0  0
  131.5324  126.3090   67.5002 H   0  0  0  0  0  0  0  0  0  0  0  0
  129.5166  124.8422   66.8299 H   0  0  0  0  0  0  0  0  0  0  0  0
  129.8594  126.3088   65.8356 H   0  0  0  0  0  0  0  0  0  0  0  0
  132.0426  122.3699   63.2332 H   0  0  0  0  0  0  0  0  0  0  0  0
  132.0843  126.3965   59.5056 H   0  0  0  0  0  0  0  0  0  0  0  0
  134.0512  125.1928   58.5619 H   0  0  0  0  0  0  0  0  0  0  0  0
  134.8416  123.0841   59.6189 H   0  0  0  0  0  0  0  0  0  0  0  0
  1  2  3  0
  2  3  1  0
  3  4  2  0
  4  5  1  0
  4  6  1  0
  6  7  1  0
  7  8  2  0
  8  9  1  0
  9 10  2  0
  9 11  1  0
 11 12  1  0
 12 13  1  0
  8 14  1  0
 14 15  1  0
 15 16  2  0
 16 17  1  0
 16 18  1  0
 18 19  2  0
 19 20  1  0
 20 21  2  0
 21 22  1  0
 14  3  1  0
 21 15  1  0
 13  7  1  0
  5 23  1  0
  5 24  1  0
 11 25  1  0
 11 26  1  0
 12 27  1  0
 12 28  1  0
 13 29  1  0
 13 30  1  0
 14 31  1  1
 18 32  1  0
 19 33  1  0
 20 34  1  0
M  END
>  <Binding energies>  (1) 
[-6.5]

>  <Ligand effiencies>  (1) 
[-0.2708333333333333]

>  <Interactions>  (1) 
["V-A:ILE:369:CG2:3237, V-A:ASP:366:CA:3210, V-A:GLY:454:CA:4049, V-A:ILE:369:CB:3236, V-B:GLU:543:CB:9878, V-B:ALA:541:CB:9864, H-B:ALA:541:O:9861, V-B:GLU:543:CG:9879, V-A:ASP:366:CG:3213, H-B:GLU:543:OE1:9881, V-A:GLU:543:CD:4908, V-A:TYR:484:CZ:4347, V-A:ARG:545:CG:4922, H-A:GLY:454:N:4050, V-A:SER:385:C:3405, V-A:HIS:456:CE1:4070, V-A:ILE:369:CD1:3239, V-A:SER:385:CB:3409, V-B:GLU:543:CD:9880, V-A:ASP:366:CB:3212, V-A:ARG:545:CD:4923, V-A:LEU:475:CD2:4259, V-A:ARG:545:CZ:4926, V-B:ALA:541:CA:9862, H-A:TYR:484:OH:4348"]

$$$$
ZINC197288867
     RDKit          3D

 92 95  0  0  0  0  0  0  0  0999 V2000
  129.8890  116.9480   60.4430 C   0  0  0  0  0  0  0  0  0  0  0  0
  130.4040  118.0870   61.3290 C   0  0  0  0  0  0  0  0  0  0  0  0
  131.1860  119.0680   60.5850 N   0  0  0  0  0  0  0  0  0  0  0  0
  131.0600  120.4530   60.8210 C   0  0  0  0  0  0  0  0  0  0  0  0
  129.8160  121.0560   61.0530 C   0  0  0  0  0  0  0  0  0  0  0  0
  129.7210  122.4240   61.3010 C   0  0  0  0  0  0  0  0  0  0  0  0
  130.8630  123.2320   61.3170 C   0  0  0  0  0  0  0  0  0  0  0  0
  130.7580  124.6870   61.6300 C   0  0  0  0  0  0  0  0  0  0  0  0
  130.7770  125.6810   60.6940 C   0  0  0  0  0  0  0  0  0  0  0  0
  130.7690  127.1010   61.0330 C   0  0  0  0  0  0  0  0  0  0  0  0
  130.8090  128.0810   60.1020 C   0  0  0  0  0  0  0  0  0  0  0  0
  130.8540  127.7900   58.7270 C   0  0  0  0  0  0  0  0  0  0  0  0
  130.9090  128.7500   57.8000 N   0  0  0  0  0  0  0  0  0  0  0  0
  130.9440  130.2210   58.0430 C   0  0  0  0  0  0  0  0  0  0  0  0
  132.3810  130.7070   58.2830 C   0  0  0  0  0  0  0  0  0  0  0  0
  130.8390  126.4390   58.2990 C   0  0  0  0  0  0  0  0  0  0  0  0
  130.8500  126.0280   56.8270 C   0  0  0  0  0  0  0  0  0  0  0  0
  130.8020  125.4590   59.2460 C   0  0  0  0  0  0  0  0  0  0  0  0
  130.6300  124.9820   63.0840 C   0  0  0  0  0  0  0  0  0  0  0  0
  129.3640  125.3530   63.5580 C   0  0  0  0  0  0  0  0  0  0  0  0
  129.1410  125.5720   64.9140 C   0  0  0  0  0  0  0  0  0  0  0  0
  130.1850  125.4230   65.8240 C   0  0  0  0  0  0  0  0  0  0  0  0
  129.8690  125.6520   67.5700 S   0  0  0  0  0  0  0  0  0  0  0  0
  128.5840  126.3490   67.7090 O   0  0  0  0  0  0  0  0  0  0  0  0
  130.0970  124.3540   68.2130 O   0  0  0  0  0  0  0  0  0  0  0  0
  131.1470  126.7390   68.1050 N   0  0  0  0  0  0  0  0  0  0  0  0
  130.8750  127.8010   69.0960 C   0  0  0  0  0  0  0  0  0  0  0  0
  129.6310  127.5180   69.9640 C   0  0  2  0  0  0  0  0  0  0  0  0
  129.4290  126.1210   70.0940 O   0  0  0  0  0  0  0  0  0  0  0  0
  128.3600  128.1620   69.3590 C   0  0  0  0  0  0  0  0  0  0  0  0
  128.5410  128.7470   68.0280 N   0  0  0  0  0  0  0  0  0  0  0  0
  127.5850  128.8500   67.0840 C   0  0  0  0  0  0  0  0  0  0  0  0
  126.4290  128.4600   67.2630 O   0  0  0  0  0  0  0  0  0  0  0  0
  127.9930  129.4990   65.7780 C   0  0  0  0  0  0  0  0  0  0  0  0
  128.3550  130.8530   65.7580 C   0  0  0  0  0  0  0  0  0  0  0  0
  128.7310  131.4690   64.5680 C   0  0  0  0  0  0  0  0  0  0  0  0
  128.7530  130.7480   63.3700 C   0  0  0  0  0  0  0  0  0  0  0  0
  129.1820  131.4530   62.0110 B   0  0  0  0  0  0  0  0  0  0  0  0
  130.2830  132.2580   61.9670 O   0  0  0  0  0  0  0  0  0  0  0  0
  128.4550  131.2610   60.8720 O   0  0  0  0  0  0  0  0  0  0  0  0
  128.3890  129.3990   63.3850 C   0  0  0  0  0  0  0  0  0  0  0  0
  128.0120  128.7800   64.5730 C   0  0  0  0  0  0  0  0  0  0  0  0
  131.4570  125.0740   65.3680 C   0  0  0  0  0  0  0  0  0  0  0  0
  131.6980  124.8590   64.0040 C   0  0  0  0  0  0  0  0  0  0  0  0
  133.3800  124.4150   63.4990 S   0  0  0  0  0  0  0  0  0  0  0  0
  133.3550  122.9510   63.5940 O   0  0  0  0  0  0  0  0  0  0  0  0
  133.4920  124.9580   62.1400 O   0  0  0  0  0  0  0  0  0  0  0  0
  134.2360  125.0800   64.4880 O   0  0  0  0  0  0  0  0  0  0  0  0
  132.1040  122.6280   61.0790 C   0  0  0  0  0  0  0  0  0  0  0  0
  132.2150  121.2560   60.8320 C   0  0  0  0  0  0  0  0  0  0  0  0
  133.6020  120.6690   60.5940 C   0  0  0  0  0  0  0  0  0  0  0  0
  129.5187  116.1290   61.0771 H   0  0  0  0  0  0  0  0  0  0  0  0
  129.0709  117.3187   59.8079 H   0  0  0  0  0  0  0  0  0  0  0  0
  130.7077  116.5786   59.8079 H   0  0  0  0  0  0  0  0  0  0  0  0
  129.5419  118.5962   61.7845 H   0  0  0  0  0  0  0  0  0  0  0  0
  131.0631  117.6443   62.0903 H   0  0  0  0  0  0  0  0  0  0  0  0
  132.0860  118.7590   60.2470 H   0  0  0  0  0  0  0  0  0  0  0  0
  128.9036  120.4418   61.0391 H   0  0  0  0  0  0  0  0  0  0  0  0
  128.7349  122.8746   61.4867 H   0  0  0  0  0  0  0  0  0  0  0  0
  130.7286  127.3869   62.0944 H   0  0  0  0  0  0  0  0  0  0  0  0
  130.8063  129.1315   60.4283 H   0  0  0  0  0  0  0  0  0  0  0  0
  130.9520  128.4600   56.8280 H   0  0  0  0  0  0  0  0  0  0  0  0
  130.5309  130.7401   57.1656 H   0  0  0  0  0  0  0  0  0  0  0  0
  130.3459  130.4417   58.9394 H   0  0  0  0  0  0  0  0  0  0  0  0
  132.5705  130.7711   59.3646 H   0  0  0  0  0  0  0  0  0  0  0  0
  133.0886  129.9982   57.8281 H   0  0  0  0  0  0  0  0  0  0  0  0
  132.5131  131.6998   57.8281 H   0  0  0  0  0  0  0  0  0  0  0  0
  130.8794  124.9309   56.7528 H   0  0  0  0  0  0  0  0  0  0  0  0
  129.9415  126.4046   56.3344 H   0  0  0  0  0  0  0  0  0  0  0  0
  131.7371  126.4527   56.3344 H   0  0  0  0  0  0  0  0  0  0  0  0
  130.7899  124.4168   58.8944 H   0  0  0  0  0  0  0  0  0  0  0  0
  128.5336  125.4729   62.8467 H   0  0  0  0  0  0  0  0  0  0  0  0
  128.1406  125.8627   65.2671 H   0  0  0  0  0  0  0  0  0  0  0  0
  132.0080  126.7980   67.5560 H   0  0  0  0  0  0  0  0  0  0  0  0
  131.7490  127.8942   69.7574 H   0  0  0  0  0  0  0  0  0  0  0  0
  130.6795  128.7278   68.5367 H   0  0  0  0  0  0  0  0  0  0  0  0
  129.8119  127.9617   70.9542 H   0  0  0  0  0  0  0  0  0  0  0  0
  128.8690  125.8270   69.3720 H   0  0  0  0  0  0  0  0  0  0  0  0
  127.5835  127.3860   69.2889 H   0  0  0  0  0  0  0  0  0  0  0  0
  128.0857  128.9918   70.0270 H   0  0  0  0  0  0  0  0  0  0  0  0
  129.4610  129.1070   67.8210 H   0  0  0  0  0  0  0  0  0  0  0  0
  128.3418  131.4343   66.6918 H   0  0  0  0  0  0  0  0  0  0  0  0
  129.0133  132.5322   64.5698 H   0  0  0  0  0  0  0  0  0  0  0  0
  131.0550  132.0160   62.4840 H   0  0  0  0  0  0  0  0  0  0  0  0
  127.5630  130.9150   60.9440 H   0  0  0  0  0  0  0  0  0  0  0  0
  128.4006  128.8210   62.4492 H   0  0  0  0  0  0  0  0  0  0  0  0
  127.7264  127.7177   64.5675 H   0  0  0  0  0  0  0  0  0  0  0  0
  132.2812  124.9662   66.0884 H   0  0  0  0  0  0  0  0  0  0  0  0
  133.0129  123.2475   61.0865 H   0  0  0  0  0  0  0  0  0  0  0  0
  134.0846  120.4648   61.5611 H   0  0  0  0  0  0  0  0  0  0  0  0
  133.5109  119.7323   60.0246 H   0  0  0  0  0  0  0  0  0  0  0  0
  134.2110  121.3865   60.0246 H   0  0  0  0  0  0  0  0  0  0  0  0
  1  2  1  0
  2  3  1  0
  3  4  1  0
  4  5  2  0
  5  6  1  0
  6  7  2  0
  7  8  1  0
  8  9  2  0
  9 10  1  0
 10 11  2  0
 11 12  1  0
 12 13  2  0
 13 14  1  0
 14 15  1  0
 12 16  1  0
 16 17  1  0
 16 18  2  0
  8 19  1  0
 19 20  2  0
 20 21  1  0
 21 22  2  0
 22 23  1  0
 23 24  2  0
 23 25  2  0
 23 26  1  0
 26 27  1  0
 27 28  1  0
 28 29  1  0
 28 30  1  0
 30 31  1  0
 31 32  1  0
 32 33  2  0
 32 34  1  0
 34 35  2  0
 35 36  1  0
 36 37  2  0
 37 38  1  0
 38 39  1  0
 38 40  1  0
 37 41  1  0
 41 42  2  0
 22 43  1  0
 43 44  2  0
 44 45  1  0
 45 46  2  0
 45 47  2  0
 45 48  1  0
  7 49  1  0
 49 50  2  0
 50 51  1  0
 50  4  1  0
 18  9  1  0
 44 19  1  0
 42 34  1  0
  1 52  1  0
  1 53  1  0
  1 54  1  0
  2 55  1  0
  2 56  1  0
  3 57  1  0
  5 58  1  0
  6 59  1  0
 10 60  1  0
 11 61  1  0
 13 62  1  0
 14 63  1  0
 14 64  1  0
 15 65  1  0
 15 66  1  0
 15 67  1  0
 17 68  1  0
 17 69  1  0
 17 70  1  0
 18 71  1  0
 20 72  1  0
 21 73  1  0
 26 74  1  0
 27 75  1  0
 27 76  1  0
 28 77  1  1
 29 78  1  0
 30 79  1  0
 30 80  1  0
 31 81  1  0
 35 82  1  0
 36 83  1  0
 39 84  1  0
 40 85  1  0
 41 86  1  0
 42 87  1  0
 43 88  1  0
 49 89  1  0
 51 90  1  0
 51 91  1  0
 51 92  1  0
M  CHG  2  13   1  48  -1
M  END
>  <Binding energies>  (1) 
[-8.86]

>  <Ligand effiencies>  (1) 
[-0.15275862068965515]

>  <Interactions>  (1) 
["V-A:ILE:369:CG2:3237, V-B:HIS:456:CD2:9039, H-A:GLU:543:OE2:4910, H-B:GLU:543:O:9875, H-A:ALA:541:N:4891, V-A:GLU:543:C:4902, V-B:GLU:543:CB:9878, H-A:ALA:541:O:4889, V-B:ALA:541:CB:9864, H-A:TYR:531:OH:4795, H-A:ARG:545:NH1:4927, V-B:TYR:539:CE2:9848, V-A:LEU:475:CG:4257, V-B:GLU:543:CG:9879, V-B:TYR:539:C:9839, V-A:ASP:366:CG:3213, V-A:LEU:363:CD1:3189, V-B:TYR:484:CE2:9317, V-B:TYR:539:CZ:9849, V-B:VAL:344:CG1:7972, V-B:TYR:539:CB:9843, V-A:HIS:383:CE1:3393, V-A:GLU:543:CD:4908, H-B:TYR:484:OH:9319, V-B:HIS:456:CE1:9041, H-A:GLY:454:N:4050, V-A:SER:385:C:3405, V-A:HIS:456:CE1:4070, V-B:TYR:484:CZ:9318, V-A:PRO:482:CB:4326, V-B:TYR:539:CD2:9846, V-A:TYR:531:CZ:4794, V-A:SER:385:CB:3409, H-A:SER:385:OG:3410, V-B:GLU:543:CD:9880, V-A:GLU:543:CG:4907, V-A:LEU:475:CD2:4259, H-A:ARG:545:NH2:4928, V-A:ARG:545:CZ:4926, H-A:GLU:543:OE1:4909, V-A:GLU:543:CB:4906, V-A:PRO:482:CG:4327, H-A:ARG:545:NE:4924, V-A:SER:385:CA:3407, V-A:HIS:383:NE2:3394, H-A:HIS:456:NE2:4071, H-A:TYR:484:OH:4348, H-A:GLU:543:O:4903"]

$$$$
ZINC1975070046
     RDKit          3D

 21 21  0  0  0  0  0  0  0  0999 V2000
  128.1190  132.9950   63.2620 C   0  0  0  0  0  0  0  0  0  0  0  0
  129.0170  132.2450   62.2970 C   0  0  0  0  0  0  0  0  0  0  0  0
  130.3490  132.3390   62.5100 N   0  0  0  0  0  0  0  0  0  0  0  0
  131.1460  131.6660   61.6430 C   0  0  0  0  0  0  0  0  0  0  0  0
  133.2090  131.8340   62.0020 I   0  0  0  0  0  0  0  0  0  0  0  0
  130.6410  130.9000   60.5690 C   0  0  0  0  0  0  0  0  0  0  0  0
  131.6130  130.2650   59.7660 N   0  0  0  0  0  0  0  0  0  0  0  0
  131.9900  130.5000   58.0520 S   0  0  0  0  0  0  0  0  0  0  0  0
  133.4420  130.3550   57.8990 O   0  0  0  0  0  0  0  0  0  0  0  0
  131.0580  129.6690   57.2810 O   0  0  0  0  0  0  0  0  0  0  0  0
  131.5340  132.3110   57.8040 C   0  0  0  0  0  0  0  0  0  0  0  0
  129.8980  132.6300   56.4020 I   0  0  0  0  0  0  0  0  0  0  0  0
  129.2240  130.8720   60.4420 C   0  0  0  0  0  0  0  0  0  0  0  0
  128.1100  129.8540   58.9860 I   0  0  0  0  0  0  0  0  0  0  0  0
  128.4200  131.5460   61.3080 N   0  0  0  0  0  0  0  0  0  0  0  0
  128.4084  132.7533   64.2954 H   0  0  0  0  0  0  0  0  0  0  0  0
  128.2244  134.0772   63.0953 H   0  0  0  0  0  0  0  0  0  0  0  0
  127.0729  132.6985   63.0953 H   0  0  0  0  0  0  0  0  0  0  0  0
  132.1760  129.5740   60.2410 H   0  0  0  0  0  0  0  0  0  0  0  0
  131.2414  132.7303   58.7779 H   0  0  0  0  0  0  0  0  0  0  0  0
  132.4190  132.8061   57.3777 H   0  0  0  0  0  0  0  0  0  0  0  0
  1  2  1  0
  2  3  2  0
  3  4  1  0
  4  5  1  0
  4  6  2  0
  6  7  1  0
  7  8  1  0
  8  9  2  0
  8 10  2  0
  8 11  1  0
 11 12  1  0
  6 13  1  0
 13 14  1  0
 13 15  2  0
 15  2  1  0
  1 16  1  0
  1 17  1  0
  1 18  1  0
  7 19  1  0
 11 20  1  0
 11 21  1  0
M  END
>  <Binding energies>  (1) 
[-6.03]

>  <Ligand effiencies>  (1) 
[-0.376875]

>  <Interactions>  (1) 
["V-A:PRO:540:N:4884, V-A:LEU:363:CD1:3189, V-A:PRO:540:CB:4885, V-A:PRO:540:CA:4883, V-A:ILE:538:CA:4860, H-A:ALA:541:N:4891, V-A:ALA:541:CB:4892, V-A:MET:535:CE:4835, H-A:TYR:531:OH:4795, H-A:ASP:366:OD2:3215, V-B:LEU:475:CD2:9230, V-A:ASP:366:CG:3213, V-A:ASN:362:CB:3176"]

$$$$
ZINC19794503-again1
     RDKit          3D

 70 73  0  0  0  0  0  0  0  0999 V2000
  130.5750  117.6180   60.7970 C   0  0  0  0  0  0  0  0  0  0  0  0
  129.8660  118.6740   61.6600 C   0  0  0  0  0  0  0  0  0  0  0  0
  130.1940  120.1190   61.2550 C   0  0  0  0  0  0  0  0  0  0  0  0
  129.1410  120.9830   61.6750 O   0  0  0  0  0  0  0  0  0  0  0  0
  129.4450  122.1980   62.2640 C   0  0  0  0  0  0  0  0  0  0  0  0
  130.7080  122.5150   62.7910 C   0  0  0  0  0  0  0  0  0  0  0  0
  130.9460  123.7580   63.3680 C   0  0  0  0  0  0  0  0  0  0  0  0
  129.9300  124.7140   63.4330 C   0  0  0  0  0  0  0  0  0  0  0  0
  130.1790  126.0970   64.0590 C   0  0  1  0  0  0  0  0  0  0  0  0
  129.6260  127.2550   63.1880 C   0  0  0  0  0  0  0  0  0  0  0  0
  129.9380  127.3870   61.8760 C   0  0  0  0  0  0  0  0  0  0  0  0
  130.7750  126.5710   61.1780 O   0  0  0  0  0  0  0  0  0  0  0  0
  129.3750  128.4680   60.9520 C   0  0  0  0  0  0  0  0  0  0  0  0
  128.7900  129.7150   61.7080 C   0  0  0  0  0  0  0  0  0  0  0  0
  127.5710  130.2550   60.9290 C   0  0  0  0  0  0  0  0  0  0  0  0
  129.9040  130.7680   61.8920 C   0  0  0  0  0  0  0  0  0  0  0  0
  128.3140  129.3320   63.1140 C   0  0  0  0  0  0  0  0  0  0  0  0
  128.7050  128.2250   63.7770 C   0  0  0  0  0  0  0  0  0  0  0  0
  128.2680  128.0410   65.0630 N   0  0  0  0  0  0  0  0  0  0  0  0
  128.7300  127.0750   65.9240 C   0  0  0  0  0  0  0  0  0  0  0  0
  129.6870  126.1860   65.5360 C   0  0  0  0  0  0  0  0  0  0  0  0
  130.2760  125.2400   66.5200 C   0  0  0  0  0  0  0  0  0  0  0  0
  131.0740  124.3590   66.2020 O   0  0  0  0  0  0  0  0  0  0  0  0
  129.7750  125.3370   67.9740 C   0  0  0  0  0  0  0  0  0  0  0  0
  129.2930  126.7520   68.3890 C   0  0  0  0  0  0  0  0  0  0  0  0
  128.6200  126.6320   69.7730 C   0  0  0  0  0  0  0  0  0  0  0  0
  130.4870  127.7460   68.4030 C   0  0  0  0  0  0  0  0  0  0  0  0
  128.2140  127.1990   67.3610 C   0  0  0  0  0  0  0  0  0  0  0  0
  128.6710  124.4010   62.9120 C   0  0  0  0  0  0  0  0  0  0  0  0
  128.4160  123.1500   62.3250 C   0  0  0  0  0  0  0  0  0  0  0  0
  127.1910  122.7890   61.7910 O   0  0  0  0  0  0  0  0  0  0  0  0
  126.5610  123.6370   60.8340 C   0  0  0  0  0  0  0  0  0  0  0  0
  127.3850  123.6190   59.5430 C   0  0  0  0  0  0  0  0  0  0  0  0
  131.0687  116.8827   61.4493 H   0  0  0  0  0  0  0  0  0  0  0  0
  129.8362  117.1072   60.1620 H   0  0  0  0  0  0  0  0  0  0  0  0
  131.3275  118.1084   60.1620 H   0  0  0  0  0  0  0  0  0  0  0  0
  128.7799  118.5253   61.5694 H   0  0  0  0  0  0  0  0  0  0  0  0
  130.2215  118.5393   62.6922 H   0  0  0  0  0  0  0  0  0  0  0  0
  131.1348  120.4289   61.7333 H   0  0  0  0  0  0  0  0  0  0  0  0
  130.3007  120.1772   60.1617 H   0  0  0  0  0  0  0  0  0  0  0  0
  131.5178  121.7719   62.7468 H   0  0  0  0  0  0  0  0  0  0  0  0
  131.9410  123.9896   63.7758 H   0  0  0  0  0  0  0  0  0  0  0  0
  131.2715  126.2218   64.0869 H   0  0  0  0  0  0  0  0  0  0  0  0
  131.6270  127.0010   61.0720 H   0  0  0  0  0  0  0  0  0  0  0  0
  130.1834  128.8127   60.2904 H   0  0  0  0  0  0  0  0  0  0  0  0
  128.5407  128.0110   60.3996 H   0  0  0  0  0  0  0  0  0  0  0  0
  126.8032  130.5951   61.6395 H   0  0  0  0  0  0  0  0  0  0  0  0
  127.8845  131.0985   60.2963 H   0  0  0  0  0  0  0  0  0  0  0  0
  127.1570  129.4561   60.2963 H   0  0  0  0  0  0  0  0  0  0  0  0
  130.0787  130.9332   62.9654 H   0  0  0  0  0  0  0  0  0  0  0  0
  130.8304  130.4078   61.4208 H   0  0  0  0  0  0  0  0  0  0  0  0
  129.5965  131.7132   61.4208 H   0  0  0  0  0  0  0  0  0  0  0  0
  127.6049  130.0065   63.6163 H   0  0  0  0  0  0  0  0  0  0  0  0
  127.5870  128.6950   65.4190 H   0  0  0  0  0  0  0  0  0  0  0  0
  128.9353  124.6371   68.0967 H   0  0  0  0  0  0  0  0  0  0  0  0
  130.6316  125.0935   68.6197 H   0  0  0  0  0  0  0  0  0  0  0  0
  129.3755  126.7667   70.5610 H   0  0  0  0  0  0  0  0  0  0  0  0
  127.8448  127.4061   69.8721 H   0  0  0  0  0  0  0  0  0  0  0  0
  128.1601  125.6377   69.8721 H   0  0  0  0  0  0  0  0  0  0  0  0
  130.7616  127.9746   69.4434 H   0  0  0  0  0  0  0  0  0  0  0  0
  131.3470  127.2933   67.8878 H   0  0  0  0  0  0  0  0  0  0  0  0
  130.1977  128.6738   67.8878 H   0  0  0  0  0  0  0  0  0  0  0  0
  127.3230  126.5646   67.4779 H   0  0  0  0  0  0  0  0  0  0  0  0
  127.9680  128.2540   67.5520 H   0  0  0  0  0  0  0  0  0  0  0  0
  127.8650  125.1479   62.9625 H   0  0  0  0  0  0  0  0  0  0  0  0
  125.5439  123.2718   60.6289 H   0  0  0  0  0  0  0  0  0  0  0  0
  126.5006  124.6632   61.2254 H   0  0  0  0  0  0  0  0  0  0  0  0
  128.4562  123.5956   59.7920 H   0  0  0  0  0  0  0  0  0  0  0  0
  127.1257  122.7263   58.9549 H   0  0  0  0  0  0  0  0  0  0  0  0
  127.1649  124.5222   58.9549 H   0  0  0  0  0  0  0  0  0  0  0  0
  1  2  1  0
  2  3  1  0
  3  4  1  0
  4  5  1  0
  5  6  2  0
  6  7  1  0
  7  8  2  0
  8  9  1  0
  9 10  1  0
 10 11  2  0
 11 12  1  0
 11 13  1  0
 13 14  1  0
 14 15  1  0
 14 16  1  0
 14 17  1  0
 17 18  2  0
 18 19  1  0
 19 20  1  0
 20 21  2  0
 21 22  1  0
 22 23  2  0
 22 24  1  0
 24 25  1  0
 25 26  1  0
 25 27  1  0
 25 28  1  0
  8 29  1  0
 29 30  2  0
 30 31  1  0
 31 32  1  0
 32 33  1  0
 30  5  1  0
 21  9  1  0
 18 10  1  0
 28 20  1  0
  1 34  1  0
  1 35  1  0
  1 36  1  0
  2 37  1  0
  2 38  1  0
  3 39  1  0
  3 40  1  0
  6 41  1  0
  7 42  1  0
  9 43  1  1
 12 44  1  0
 13 45  1  0
 13 46  1  0
 15 47  1  0
 15 48  1  0
 15 49  1  0
 16 50  1  0
 16 51  1  0
 16 52  1  0
 17 53  1  0
 19 54  1  0
 24 55  1  0
 24 56  1  0
 26 57  1  0
 26 58  1  0
 26 59  1  0
 27 60  1  0
 27 61  1  0
 27 62  1  0
 28 63  1  0
 28 64  1  0
 29 65  1  0
 32 66  1  0
 32 67  1  0
 33 68  1  0
 33 69  1  0
 33 70  1  0
M  END
>  <Binding energies>  (1) 
[-6.48]

>  <Ligand effiencies>  (1) 
[-0.18514285714285716]

>  <Interactions>  (1) 
["V-B:PRO:540:CA:9855, V-B:GLU:543:C:9874, V-B:GLU:543:CB:9878, V-B:ALA:541:CB:9864, V-A:TYR:484:CE2:4346, V-A:LEU:475:CG:4257, V-B:GLU:543:CG:9879, H-B:ALA:541:N:9863, V-A:LEU:475:CD1:4258, V-A:GLU:543:CD:4908, V-B:PRO:540:CB:9857, V-B:GLU:543:CA:9876, V-A:HIS:456:CE1:4070, V-A:PRO:482:CB:4326, V-B:TYR:539:CD2:9846, V-A:GLU:543:CG:4907, V-B:GLU:543:CD:9880, V-A:LEU:475:CD2:4259, V-A:GLU:543:CB:4906, H-A:ASP:366:OD1:3214, H-B:GLU:543:OE2:9882, H-A:ASP:366:OD2:3215, V-A:HIS:383:NE2:3394, H-A:TYR:484:OH:4348"]

$$$$
ZINC19807913
     RDKit          3D

 49 53  0  0  0  0  0  0  0  0999 V2000
  126.2260  123.8450   58.5670 C   0  0  0  0  0  0  0  0  0  0  0  0
  126.4470  123.2170   59.6580 N   0  0  0  0  0  0  0  0  0  0  0  0
  127.6740  123.3760   60.3320 N   0  0  0  0  0  0  0  0  0  0  0  0
  127.4390  123.5220   61.7750 C   0  0  0  0  0  0  0  0  0  0  0  0
  128.7810  123.6930   62.5250 C   0  0  0  0  0  0  0  0  0  0  0  0
  129.6330  122.5130   62.3020 N   0  0  0  0  0  0  0  0  0  0  0  0
  130.8810  122.4870   63.0880 C   0  0  0  0  0  0  0  0  0  0  0  0
  132.1300  123.0260   62.3980 C   0  0  0  0  0  0  0  0  0  0  0  0
  132.7720  122.6080   61.2270 C   0  0  0  0  0  0  0  0  0  0  0  0
  133.9280  123.2600   60.7940 C   0  0  0  0  0  0  0  0  0  0  0  0
  134.4550  124.3200   61.5330 C   0  0  0  0  0  0  0  0  0  0  0  0
  133.8280  124.7300   62.7110 C   0  0  0  0  0  0  0  0  0  0  0  0
  132.6700  124.0790   63.1420 C   0  0  0  0  0  0  0  0  0  0  0  0
  131.8300  124.2970   64.3320 C   0  0  0  0  0  0  0  0  0  0  0  0
  131.9390  125.2220   65.3730 C   0  0  0  0  0  0  0  0  0  0  0  0
  130.9890  125.2250   66.3960 C   0  0  0  0  0  0  0  0  0  0  0  0
  129.9370  124.3080   66.3780 C   0  0  0  0  0  0  0  0  0  0  0  0
  129.8320  123.3840   65.3370 C   0  0  0  0  0  0  0  0  0  0  0  0
  130.7790  123.3810   64.3100 C   0  0  0  0  0  0  0  0  0  0  0  0
  129.8590  122.3390   60.8620 C   0  0  0  0  0  0  0  0  0  0  0  0
  128.5040  122.1820   60.1320 C   0  0  0  0  0  0  0  0  0  0  0  0
  127.1290  124.7210   57.8000 C   0  0  0  0  0  0  0  0  0  0  0  0
  128.2530  124.1980   57.1500 C   0  0  0  0  0  0  0  0  0  0  0  0
  129.0970  125.0670   56.4540 C   0  0  0  0  0  0  0  0  0  0  0  0
  128.8090  126.4320   56.4290 C   0  0  0  0  0  0  0  0  0  0  0  0
  127.6780  126.8850   57.1070 C   0  0  0  0  0  0  0  0  0  0  0  0
  126.8470  126.0550   57.7890 N   0  0  0  0  0  0  0  0  0  0  0  0
  125.2206  123.7130   58.1408 H   0  0  0  0  0  0  0  0  0  0  0  0
  126.8095  124.4065   61.9521 H   0  0  0  0  0  0  0  0  0  0  0  0
  126.9344  122.6184   62.1477 H   0  0  0  0  0  0  0  0  0  0  0  0
  129.2958  124.5905   62.1516 H   0  0  0  0  0  0  0  0  0  0  0  0
  128.5834  123.7990   63.6019 H   0  0  0  0  0  0  0  0  0  0  0  0
  130.9868  121.4108   63.2897 H   0  0  0  0  0  0  0  0  0  0  0  0
  132.3658  121.7657   60.6477 H   0  0  0  0  0  0  0  0  0  0  0  0
  134.4251  122.9372   59.8673 H   0  0  0  0  0  0  0  0  0  0  0  0
  135.3647  124.8326   61.1872 H   0  0  0  0  0  0  0  0  0  0  0  0
  134.2443  125.5624   63.2973 H   0  0  0  0  0  0  0  0  0  0  0  0
  132.7687  125.9440   65.3867 H   0  0  0  0  0  0  0  0  0  0  0  0
  131.0698  125.9516   67.2179 H   0  0  0  0  0  0  0  0  0  0  0  0
  129.1897  124.3134   67.1852 H   0  0  0  0  0  0  0  0  0  0  0  0
  129.0047  122.6592   65.3253 H   0  0  0  0  0  0  0  0  0  0  0  0
  130.3866  123.2195   60.4665 H   0  0  0  0  0  0  0  0  0  0  0  0
  130.4662  121.4367   60.6969 H   0  0  0  0  0  0  0  0  0  0  0  0
  128.6859  122.0430   59.0561 H   0  0  0  0  0  0  0  0  0  0  0  0
  127.9768  121.3080   60.5421 H   0  0  0  0  0  0  0  0  0  0  0  0
  128.4683  123.1199   57.1866 H   0  0  0  0  0  0  0  0  0  0  0  0
  129.9822  124.6779   55.9295 H   0  0  0  0  0  0  0  0  0  0  0  0
  129.4592  127.1345   55.8870 H   0  0  0  0  0  0  0  0  0  0  0  0
  127.4489  127.9607   57.0887 H   0  0  0  0  0  0  0  0  0  0  0  0
  1  2  2  0
  2  3  1  0
  3  4  1  0
  4  5  1  0
  5  6  1  0
  6  7  1  0
  7  8  1  0
  8  9  2  0
  9 10  1  0
 10 11  2  0
 11 12  1  0
 12 13  2  0
 13 14  1  0
 14 15  2  0
 15 16  1  0
 16 17  2  0
 17 18  1  0
 18 19  2  0
  6 20  1  0
 20 21  1  0
  1 22  1  0
 22 23  2  0
 23 24  1  0
 24 25  2  0
 25 26  1  0
 26 27  2  0
 21  3  1  0
 27 22  1  0
 19  7  1  0
 13  8  1  0
 19 14  1  0
  1 28  1  0
  4 29  1  0
  4 30  1  0
  5 31  1  0
  5 32  1  0
  7 33  1  0
  9 34  1  0
 10 35  1  0
 11 36  1  0
 12 37  1  0
 15 38  1  0
 16 39  1  0
 17 40  1  0
 18 41  1  0
 20 42  1  0
 20 43  1  0
 21 44  1  0
 21 45  1  0
 23 46  1  0
 24 47  1  0
 25 48  1  0
 26 49  1  0
M  END
>  <Binding energies>  (1) 
[-7.21]

>  <Ligand effiencies>  (1) 
[-0.267037037037037]

>  <Interactions>  (1) 
["V-A:ILE:369:CG2:3237, V-B:PRO:540:CA:9855, V-A:ILE:369:CB:3236, V-B:GLU:543:CB:9878, V-B:TYR:539:CE2:9848, V-A:TYR:484:CE2:4346, V-B:GLU:543:CG:9879, V-B:TYR:539:C:9839, V-A:ASP:366:CG:3213, V-B:TYR:539:CZ:9849, V-A:TYR:484:CZ:4347, V-B:PRO:540:CB:9857, V-B:GLU:543:CA:9876, V-B:PRO:540:N:9856, V-A:ILE:369:CD1:3239, V-A:HIS:456:CE1:4070, V-B:TYR:539:CD2:9846, V-B:GLU:543:CD:9880, H-B:TYR:531:OH:9767, V-A:LEU:475:CD2:4259, V-A:ARG:545:CZ:4926, V-B:PRO:540:C:9853, V-B:TYR:539:CE1:9847"]

$$$$
ZINC198313905
     RDKit          3D

 68 71  0  0  0  0  0  0  0  0999 V2000
  134.3500  126.8510   74.6860 C   0  0  0  0  0  0  0  0  0  0  0  0
  133.0270  127.2060   75.0700 O   0  0  0  0  0  0  0  0  0  0  0  0
  131.9730  126.3960   74.6910 C   0  0  0  0  0  0  0  0  0  0  0  0
  131.8830  125.1550   75.3100 C   0  0  0  0  0  0  0  0  0  0  0  0
  130.8570  124.2750   74.9860 C   0  0  0  0  0  0  0  0  0  0  0  0
  129.8860  124.6190   74.0290 C   0  0  0  0  0  0  0  0  0  0  0  0
  128.8490  123.7640   73.6820 O   0  0  0  0  0  0  0  0  0  0  0  0
  129.0960  122.6540   72.8260 C   0  0  0  0  0  0  0  0  0  0  0  0
  129.9500  125.8750   73.3890 C   0  0  0  0  0  0  0  0  0  0  0  0
  128.9920  126.1950   72.4500 N   0  0  0  0  0  0  0  0  0  0  0  0
  128.9340  127.5650   71.6820 S   0  0  0  0  0  0  0  0  0  0  0  0
  127.5760  127.9980   71.3320 O   0  0  0  0  0  0  0  0  0  0  0  0
  129.8470  128.5720   72.2350 O   0  0  0  0  0  0  0  0  0  0  0  0
  129.6490  127.0910   70.0970 C   0  0  0  0  0  0  0  0  0  0  0  0
  129.0610  126.0660   69.3530 C   0  0  0  0  0  0  0  0  0  0  0  0
  129.6130  125.6830   68.1340 C   0  0  0  0  0  0  0  0  0  0  0  0
  130.7650  126.3090   67.6520 C   0  0  0  0  0  0  0  0  0  0  0  0
  131.2240  125.8520   66.4020 N   0  0  0  0  0  0  0  0  0  0  0  0
  130.9860  124.6880   65.7610 C   0  0  0  0  0  0  0  0  0  0  0  0
  130.2310  123.7970   66.1570 O   0  0  0  0  0  0  0  0  0  0  0  0
  131.7270  124.5210   64.4240 C   0  0  0  0  0  0  0  0  0  0  0  0
  130.8870  124.7400   63.2630 N   0  0  0  0  0  0  0  0  0  0  0  0
  131.5030  124.7280   62.0010 C   0  0  0  0  0  0  0  0  0  0  0  0
  131.4870  125.8620   61.1890 C   0  0  0  0  0  0  0  0  0  0  0  0
  132.0990  125.8330   59.9390 C   0  0  0  0  0  0  0  0  0  0  0  0
  132.7340  124.6690   59.4810 C   0  0  0  0  0  0  0  0  0  0  0  0
  133.3840  124.6380   58.1490 N   0  0  0  0  0  0  0  0  0  0  0  0
  133.9740  123.6180   57.8060 O   0  0  0  0  0  0  0  0  0  0  0  0
  133.3090  125.6340   57.4340 O   0  0  0  0  0  0  0  0  0  0  0  0
  132.7420  123.5340   60.3060 C   0  0  0  0  0  0  0  0  0  0  0  0
  132.1300  123.5630   61.5560 C   0  0  0  0  0  0  0  0  0  0  0  0
  129.1000  124.5720   63.3780 S   0  0  0  0  0  0  0  0  0  0  0  0
  128.8220  123.4120   64.2330 O   0  0  0  0  0  0  0  0  0  0  0  0
  128.5480  125.8940   63.6960 O   0  0  0  0  0  0  0  0  0  0  0  0
  128.5660  124.1300   61.7250 C   0  0  0  0  0  0  0  0  0  0  0  0
  128.7290  122.8170   61.2750 C   0  0  0  0  0  0  0  0  0  0  0  0
  128.3540  122.4770   59.9770 C   0  0  0  0  0  0  0  0  0  0  0  0
  127.8230  123.4520   59.1360 C   0  0  0  0  0  0  0  0  0  0  0  0
  127.6680  124.7650   59.5770 C   0  0  0  0  0  0  0  0  0  0  0  0
  128.0450  125.1070   60.8730 C   0  0  0  0  0  0  0  0  0  0  0  0
  131.3650  127.3290   68.4070 C   0  0  0  0  0  0  0  0  0  0  0  0
  130.8100  127.7110   69.6250 C   0  0  0  0  0  0  0  0  0  0  0  0
  131.0060  126.7410   73.7360 C   0  0  0  0  0  0  0  0  0  0  0  0
  134.9614  126.6870   75.5856 H   0  0  0  0  0  0  0  0  0  0  0  0
  134.3230  125.9283   74.0877 H   0  0  0  0  0  0  0  0  0  0  0  0
  134.7886  127.6632   74.0877 H   0  0  0  0  0  0  0  0  0  0  0  0
  132.6307  124.8664   76.0634 H   0  0  0  0  0  0  0  0  0  0  0  0
  130.8040  123.2962   75.4851 H   0  0  0  0  0  0  0  0  0  0  0  0
  129.2951  121.7592   73.4341 H   0  0  0  0  0  0  0  0  0  0  0  0
  128.2152  122.4774   72.1912 H   0  0  0  0  0  0  0  0  0  0  0  0
  129.9686  122.8675   72.1912 H   0  0  0  0  0  0  0  0  0  0  0  0
  128.1601  125.5604   69.7309 H   0  0  0  0  0  0  0  0  0  0  0  0
  129.1393  124.8826   67.5467 H   0  0  0  0  0  0  0  0  0  0  0  0
  131.8380  126.5000   65.9310 H   0  0  0  0  0  0  0  0  0  0  0  0
  132.5567  125.2426   64.3939 H   0  0  0  0  0  0  0  0  0  0  0  0
  132.0764  123.4790   64.3771 H   0  0  0  0  0  0  0  0  0  0  0  0
  130.9904  126.7799   61.5366 H   0  0  0  0  0  0  0  0  0  0  0  0
  132.0845  126.7314   59.3044 H   0  0  0  0  0  0  0  0  0  0  0  0
  133.2361  122.6134   59.9620 H   0  0  0  0  0  0  0  0  0  0  0  0
  132.1405  122.6668   62.1938 H   0  0  0  0  0  0  0  0  0  0  0  0
  129.1525  122.0536   61.9442 H   0  0  0  0  0  0  0  0  0  0  0  0
  128.4766  121.4443   59.6184 H   0  0  0  0  0  0  0  0  0  0  0  0
  127.5227  123.1828   58.1126 H   0  0  0  0  0  0  0  0  0  0  0  0
  127.2496  125.5279   58.9040 H   0  0  0  0  0  0  0  0  0  0  0  0
  127.9330  126.1431   61.2249 H   0  0  0  0  0  0  0  0  0  0  0  0
  132.2734  127.8262   68.0362 H   0  0  0  0  0  0  0  0  0  0  0  0
  131.2870  128.5044   70.2191 H   0  0  0  0  0  0  0  0  0  0  0  0
  131.0741  127.7209   73.2409 H   0  0  0  0  0  0  0  0  0  0  0  0
  1  2  1  0
  2  3  1  0
  3  4  2  0
  4  5  1  0
  5  6  2  0
  6  7  1  0
  7  8  1  0
  6  9  1  0
  9 10  1  0
 10 11  1  0
 11 12  2  0
 11 13  2  0
 11 14  1  0
 14 15  2  0
 15 16  1  0
 16 17  2  0
 17 18  1  0
 18 19  1  0
 19 20  2  0
 19 21  1  0
 21 22  1  0
 22 23  1  0
 23 24  2  0
 24 25  1  0
 25 26  2  0
 26 27  1  0
 27 28  2  0
 27 29  1  0
 26 30  1  0
 30 31  2  0
 22 32  1  0
 32 33  2  0
 32 34  2  0
 32 35  1  0
 35 36  2  0
 36 37  1  0
 37 38  2  0
 38 39  1  0
 39 40  2  0
 17 41  1  0
 41 42  2  0
  9 43  2  0
 43  3  1  0
 42 14  1  0
 31 23  1  0
 40 35  1  0
  1 44  1  0
  1 45  1  0
  1 46  1  0
  4 47  1  0
  5 48  1  0
  8 49  1  0
  8 50  1  0
  8 51  1  0
 15 52  1  0
 16 53  1  0
 18 54  1  0
 21 55  1  0
 21 56  1  0
 24 57  1  0
 25 58  1  0
 30 59  1  0
 31 60  1  0
 36 61  1  0
 37 62  1  0
 38 63  1  0
 39 64  1  0
 40 65  1  0
 41 66  1  0
 42 67  1  0
 43 68  1  0
M  CHG  3  10  -1  27   1  29  -1
M  END
>  <Binding energies>  (1) 
[-8.86]

>  <Ligand effiencies>  (1) 
[-0.20136363636363636]

>  <Interactions>  (1) 
["V-A:ILE:369:CG2:3237, V-A:ASP:366:CA:3210, V-B:PRO:540:CA:9855, V-B:GLU:543:C:9874, H-A:GLU:543:OE2:4910, V-A:GLU:543:C:4902, V-B:HIS:456:CD2:9039, V-B:GLU:543:CB:9878, H-B:LYS:547:NZ:9923, H-A:TYR:531:OH:4795, V-A:TYR:484:CE2:4346, V-B:TYR:539:CE2:9848, V-B:GLU:543:CG:9879, V-B:TYR:539:C:9839, V-A:HIS:456:CD2:4068, V-A:ASP:366:CG:3213, H-B:HIS:456:ND1:9038, V-B:TYR:539:CZ:9849, H-A:ASN:370:N:3244, V-A:LYS:547:CG:4948, H-B:TYR:539:OH:9850, V-A:HIS:456:CB:4065, V-B:LYS:547:CE:9922, V-A:GLU:543:CD:4908, V-A:TYR:484:CZ:4347, V-A:ARG:545:CG:4922, V-B:GLU:543:CA:9876, V-B:PRO:540:N:9856, V-A:HIS:456:CE1:4070, V-A:ASP:366:C:3208, V-B:TYR:539:CD2:9846, V-B:GLU:543:CD:9880, V-A:ASP:366:CB:3212, H-A:LYS:547:NZ:4951, H-A:GLU:543:OE1:4909, V-A:ARG:545:C:4917, V-A:GLU:543:CB:4906, V-A:HIS:456:CG:4066, H-A:TYR:484:OH:4348"]

$$$$
ZINC19849903
     RDKit          3D

 41 44  0  0  0  0  0  0  0  0999 V2000
  132.5520  125.7880   65.5290 O   0  0  0  0  0  0  0  0  0  0  0  0
  131.7740  124.9370   64.7770 C   0  0  0  0  0  0  0  0  0  0  0  0
  130.3940  124.8500   65.0200 C   0  0  0  0  0  0  0  0  0  0  0  0
  129.7400  125.7230   66.1120 C   0  0  1  0  0  0  0  0  0  0  0  0
  130.6690  126.1100   67.1800 N   0  0  0  0  0  0  0  0  0  0  0  0
  130.2430  126.7170   68.3740 C   0  0  0  0  0  0  0  0  0  0  0  0
  129.0060  126.3380   68.9030 C   0  0  0  0  0  0  0  0  0  0  0  0
  128.5630  126.9340   70.0860 C   0  0  0  0  0  0  0  0  0  0  0  0
  129.3600  127.8910   70.7150 C   0  0  0  0  0  0  0  0  0  0  0  0
  130.5850  128.2200   70.1330 C   0  0  0  0  0  0  0  0  0  0  0  0
  131.0290  127.6490   68.9840 N   0  0  0  0  0  0  0  0  0  0  0  0
  129.0580  126.9740   65.5600 C   0  0  0  0  0  0  0  0  0  0  0  0
  128.9940  127.2000   64.1800 C   0  0  0  0  0  0  0  0  0  0  0  0
  128.3810  128.3680   63.7190 C   0  0  0  0  0  0  0  0  0  0  0  0
  127.8550  129.2770   64.6380 C   0  0  0  0  0  0  0  0  0  0  0  0
  127.9600  128.9840   65.9990 C   0  0  0  0  0  0  0  0  0  0  0  0
  128.5500  127.8550   66.4670 N   0  0  0  0  0  0  0  0  0  0  0  0
  129.6170  123.9730   64.2540 C   0  0  0  0  0  0  0  0  0  0  0  0
  130.1690  123.1830   63.2520 C   0  0  0  0  0  0  0  0  0  0  0  0
  129.1220  122.1310   62.3620 Cl  0  0  0  0  0  0  0  0  0  0  0  0
  131.5620  123.2520   62.9850 C   0  0  0  0  0  0  0  0  0  0  0  0
  132.2020  122.4750   61.9810 C   0  0  0  0  0  0  0  0  0  0  0  0
  133.5740  122.5960   61.7800 C   0  0  0  0  0  0  0  0  0  0  0  0
  134.2900  123.4830   62.5730 C   0  0  0  0  0  0  0  0  0  0  0  0
  133.7230  124.2440   63.5400 N   0  0  0  0  0  0  0  0  0  0  0  0
  132.3770  124.1420   63.7580 C   0  0  0  0  0  0  0  0  0  0  0  0
  132.0870  126.5960   65.7610 H   0  0  0  0  0  0  0  0  0  0  0  0
  128.9677  125.0692   66.5433 H   0  0  0  0  0  0  0  0  0  0  0  0
  131.6110  125.7480   67.1330 H   0  0  0  0  0  0  0  0  0  0  0  0
  128.3902  125.5812   68.3950 H   0  0  0  0  0  0  0  0  0  0  0  0
  127.5922  126.6508   70.5189 H   0  0  0  0  0  0  0  0  0  0  0  0
  129.0309  128.3743   71.6467 H   0  0  0  0  0  0  0  0  0  0  0  0
  131.2172  128.9734   70.6257 H   0  0  0  0  0  0  0  0  0  0  0  0
  129.4180  126.4724   63.4723 H   0  0  0  0  0  0  0  0  0  0  0  0
  128.3135  128.5695   62.6397 H   0  0  0  0  0  0  0  0  0  0  0  0
  127.3688  130.2032   64.2978 H   0  0  0  0  0  0  0  0  0  0  0  0
  127.5461  129.7001   66.7242 H   0  0  0  0  0  0  0  0  0  0  0  0
  128.5368  123.9069   64.4509 H   0  0  0  0  0  0  0  0  0  0  0  0
  131.6140  121.7795   61.3642 H   0  0  0  0  0  0  0  0  0  0  0  0
  134.0817  122.0000   61.0073 H   0  0  0  0  0  0  0  0  0  0  0  0
  135.3738  123.5724   62.4075 H   0  0  0  0  0  0  0  0  0  0  0  0
  1  2  1  0
  2  3  2  0
  3  4  1  0
  4  5  1  0
  5  6  1  0
  6  7  2  0
  7  8  1  0
  8  9  2  0
  9 10  1  0
 10 11  2  0
  4 12  1  0
 12 13  2  0
 13 14  1  0
 14 15  2  0
 15 16  1  0
 16 17  2  0
  3 18  1  0
 18 19  2  0
 19 20  1  0
 19 21  1  0
 21 22  2  0
 22 23  1  0
 23 24  2  0
 24 25  1  0
 25 26  2  0
 26  2  1  0
 11  6  1  0
 17 12  1  0
 26 21  1  0
  1 27  1  0
  4 28  1  1
  5 29  1  0
  7 30  1  0
  8 31  1  0
  9 32  1  0
 10 33  1  0
 13 34  1  0
 14 35  1  0
 15 36  1  0
 16 37  1  0
 18 38  1  0
 22 39  1  0
 23 40  1  0
 24 41  1  0
M  END
>  <Binding energies>  (1) 
[-6.93]

>  <Ligand effiencies>  (1) 
[-0.2475]

>  <Interactions>  (1) 
["V-A:GLY:454:CA:4049, V-B:GLU:543:C:9874, H-A:GLU:543:OE2:4910, V-A:GLU:543:C:4902, V-B:GLU:543:CB:9878, V-B:ALA:541:CB:9864, V-B:GLU:543:CG:9879, V-A:GLY:544:C:4912, V-A:GLU:543:CD:4908, V-B:HIS:456:CE1:9041, V-B:GLU:543:CA:9876, H-A:GLY:454:N:4050, V-A:GLY:453:C:4042, V-A:ILE:369:CD1:3239, V-A:HIS:456:CE1:4070, V-A:GLU:543:CG:4907, V-B:GLU:543:CD:9880, V-A:LEU:475:CD2:4259, H-A:ARG:545:NH2:4928, H-A:GLU:543:OE1:4909, V-A:GLU:543:CB:4906, H-A:ARG:545:NE:4924, H-A:TYR:484:OH:4348"]

$$$$
ZINC198682451
     RDKit          3D

 24 25  0  0  0  0  0  0  0  0999 V2000
  130.2220  129.7610   72.8190 O   0  0  0  0  0  0  0  0  0  0  0  0
  130.2660  128.5450   72.6660 N   0  0  0  0  0  0  0  0  0  0  0  0
  130.4440  127.7510   73.5850 O   0  0  0  0  0  0  0  0  0  0  0  0
  130.1420  128.0010   71.2980 C   0  0  0  0  0  0  0  0  0  0  0  0
  131.1750  128.2250   70.3800 C   0  0  0  0  0  0  0  0  0  0  0  0
  131.0980  127.7200   69.0830 C   0  0  0  0  0  0  0  0  0  0  0  0
  129.9930  126.9660   68.6650 C   0  0  0  0  0  0  0  0  0  0  0  0
  129.9100  126.4250   67.2730 C   0  0  0  0  0  0  0  0  0  0  0  0
  130.5590  125.2300   66.9290 C   0  0  0  0  0  0  0  0  0  0  0  0
  130.4830  124.7230   65.6340 C   0  0  0  0  0  0  0  0  0  0  0  0
  129.7550  125.4090   64.6670 C   0  0  0  0  0  0  0  0  0  0  0  0
  129.6500  124.7210   62.8950 Br  0  0  0  0  0  0  0  0  0  0  0  0
  129.1030  126.5970   64.9860 C   0  0  0  0  0  0  0  0  0  0  0  0
  129.1820  127.1000   66.2830 C   0  0  0  0  0  0  0  0  0  0  0  0
  128.9720  126.7300   69.5960 C   0  0  0  0  0  0  0  0  0  0  0  0
  129.0370  127.2300   70.8980 C   0  0  0  0  0  0  0  0  0  0  0  0
  127.6100  126.8000   72.0890 Br  0  0  0  0  0  0  0  0  0  0  0  0
  132.0575  128.8062   70.6857 H   0  0  0  0  0  0  0  0  0  0  0  0
  131.9177  127.9164   68.3762 H   0  0  0  0  0  0  0  0  0  0  0  0
  131.1355  124.6862   67.6919 H   0  0  0  0  0  0  0  0  0  0  0  0
  130.9962  123.7846   65.3770 H   0  0  0  0  0  0  0  0  0  0  0  0
  128.5285  127.1358   64.2181 H   0  0  0  0  0  0  0  0  0  0  0  0
  128.6665  128.0389   66.5335 H   0  0  0  0  0  0  0  0  0  0  0  0
  128.0973  126.1357   69.2931 H   0  0  0  0  0  0  0  0  0  0  0  0
  1  2  2  0
  2  3  1  0
  2  4  1  0
  4  5  2  0
  5  6  1  0
  6  7  2  0
  7  8  1  0
  8  9  2  0
  9 10  1  0
 10 11  2  0
 11 12  1  0
 11 13  1  0
 13 14  2  0
  7 15  1  0
 15 16  2  0
 16 17  1  0
 16  4  1  0
 14  8  1  0
  5 18  1  0
  6 19  1  0
  9 20  1  0
 10 21  1  0
 13 22  1  0
 14 23  1  0
 15 24  1  0
M  CHG  2   2   1   3  -1
M  END
>  <Binding energies>  (1) 
[-6.62]

>  <Ligand effiencies>  (1) 
[-0.38941176470588235]

>  <Interactions>  (1) 
["V-A:HIS:456:CE1:4070, V-A:ARG:545:CA:4919, V-B:GLU:543:C:9874, V-B:GLY:544:C:9884, V-A:GLU:543:C:4902, V-B:GLU:543:CB:9878, V-B:GLY:544:CA:9886, V-B:LYS:547:CE:9922, V-B:GLU:543:CD:9880, V-A:GLU:543:CD:4908, V-A:TYR:484:CZ:4347, V-A:TYR:484:CE2:4346, V-B:GLU:543:CG:9879, H-A:LYS:547:NZ:4951, V-A:GLY:544:CA:4914, V-A:GLY:544:C:4912, V-A:ARG:545:CG:4922, V-A:GLU:543:CB:4906"]

$$$$
ZINC198725462
     RDKit          3D

122130  0  0  0  0  0  0  0  0999 V2000
  134.0240  124.0550   57.9720 O   0  0  0  0  0  0  0  0  0  0  0  0
  133.2030  124.8890   58.3500 C   0  0  0  0  0  0  0  0  0  0  0  0
  132.7580  124.9140   59.7440 C   0  0  0  0  0  0  0  0  0  0  0  0
  131.4800  124.7090   60.1350 C   0  0  0  0  0  0  0  0  0  0  0  0
  130.9730  124.7070   61.5240 C   0  0  0  0  0  0  0  0  0  0  0  0
  130.7980  125.9330   62.1710 C   0  0  0  0  0  0  0  0  0  0  0  0
  130.3360  125.9810   63.4840 C   0  0  0  0  0  0  0  0  0  0  0  0
  130.0360  124.8000   64.1720 C   0  0  0  0  0  0  0  0  0  0  0  0
  129.5670  124.7980   65.5740 C   0  0  0  0  0  0  0  0  0  0  0  0
  129.8350  125.7390   66.5040 C   0  0  0  0  0  0  0  0  0  0  0  0
  129.3370  125.6600   67.8810 C   0  0  0  0  0  0  0  0  0  0  0  0
  129.7570  124.8250   68.6830 O   0  0  0  0  0  0  0  0  0  0  0  0
  128.2360  126.6310   68.3630 C   0  0  0  0  0  0  0  0  0  0  0  0
  128.7180  128.0950   68.5630 C   0  0  0  0  0  0  0  0  0  0  0  0
  129.3840  128.5730   69.5510 N   0  0  0  0  0  0  0  0  0  0  0  0
  129.6570  127.7070   70.5480 N   0  0  0  0  0  0  0  0  0  0  0  0
  128.7200  127.2710   71.4130 C   0  0  0  0  0  0  0  0  0  0  0  0
  127.5460  127.6550   71.4070 O   0  0  0  0  0  0  0  0  0  0  0  0
  129.1990  126.2490   72.4230 C   0  0  0  0  0  0  0  0  0  0  0  0
  128.7150  124.9290   72.3660 C   0  0  0  0  0  0  0  0  0  0  0  0
  129.1250  123.9710   73.2910 C   0  0  0  0  0  0  0  0  0  0  0  0
  130.0270  124.3150   74.2940 C   0  0  0  0  0  0  0  0  0  0  0  0
  130.5180  125.6160   74.3710 C   0  0  0  0  0  0  0  0  0  0  0  0
  130.1130  126.5830   73.4470 C   0  0  0  0  0  0  0  0  0  0  0  0
  130.6500  127.8420   73.5740 O   0  0  0  0  0  0  0  0  0  0  0  0
  128.3450  129.0260   67.4800 C   0  0  0  0  0  0  0  0  0  0  0  0
  128.5470  130.2370   67.5800 O   0  0  0  0  0  0  0  0  0  0  0  0
  127.8280  128.4620   66.3620 N   0  0  0  0  0  0  0  0  0  0  0  0
  127.4420  129.1140   65.1020 C   0  0  2  0  0  0  0  0  0  0  0  0
  128.2950  130.3880   64.8030 C   0  0  0  0  0  0  0  0  0  0  0  0
  127.9260  131.0450   63.4460 C   0  0  1  0  0  0  0  0  0  0  0  0
  128.1510  129.9980   62.3250 C   0  0  0  0  0  0  0  0  0  0  0  0
  127.2990  128.7210   62.5440 C   0  0  2  0  0  0  0  0  0  0  0  0
  125.8050  129.1370   62.5890 C   0  0  0  0  0  0  0  0  0  0  0  0
  125.5230  130.1630   63.7170 C   0  0  2  0  0  0  0  0  0  0  0  0
  126.4170  131.4080   63.4750 C   0  0  0  0  0  0  0  0  0  0  0  0
  125.9350  129.5220   65.0690 C   0  0  0  0  0  0  0  0  0  0  0  0
  127.6750  128.1200   63.9250 C   0  0  0  0  0  0  0  0  0  0  0  0
  130.2060  123.5730   63.5240 C   0  0  0  0  0  0  0  0  0  0  0  0
  130.6710  123.5250   62.2120 C   0  0  0  0  0  0  0  0  0  0  0  0
  132.6460  125.8810   57.3040 C   0  0  0  0  0  0  0  0  0  0  0  0
  131.7690  126.9920   57.9200 C   0  0  0  0  0  0  0  0  0  0  0  0
  132.2660  128.1700   58.0880 N   0  0  0  0  0  0  0  0  0  0  0  0
  131.5120  129.1670   58.6200 N   0  0  0  0  0  0  0  0  0  0  0  0
  131.5280  130.4250   58.1380 C   0  0  0  0  0  0  0  0  0  0  0  0
  132.2040  130.7820   57.1690 O   0  0  0  0  0  0  0  0  0  0  0  0
  130.6550  131.4130   58.8830 C   0  0  0  0  0  0  0  0  0  0  0  0
  130.4420  131.2520   60.2640 C   0  0  0  0  0  0  0  0  0  0  0  0
  129.6320  132.1390   60.9720 C   0  0  0  0  0  0  0  0  0  0  0  0
  129.0200  133.2010   60.3140 C   0  0  0  0  0  0  0  0  0  0  0  0
  129.2180  133.3770   58.9470 C   0  0  0  0  0  0  0  0  0  0  0  0
  130.0290  132.4950   58.2270 C   0  0  0  0  0  0  0  0  0  0  0  0
  130.1960  132.7400   56.8860 O   0  0  0  0  0  0  0  0  0  0  0  0
  130.3860  126.6050   58.3030 C   0  0  0  0  0  0  0  0  0  0  0  0
  129.7550  127.1950   59.1830 O   0  0  0  0  0  0  0  0  0  0  0  0
  129.9060  125.5470   57.6200 N   0  0  0  0  0  0  0  0  0  0  0  0
  128.6180  124.8590   57.7970 C   0  0  2  0  0  0  0  0  0  0  0  0
  128.6730  123.7400   58.8850 C   0  0  0  0  0  0  0  0  0  0  0  0
  127.2980  123.0530   59.1000 C   0  0  1  0  0  0  0  0  0  0  0  0
  126.2760  124.1390   59.5260 C   0  0  0  0  0  0  0  0  0  0  0  0
  126.1470  125.2630   58.4640 C   0  0  2  0  0  0  0  0  0  0  0  0
  125.7060  124.6170   57.1260 C   0  0  0  0  0  0  0  0  0  0  0  0
  126.7130  123.5420   56.6400 C   0  0  2  0  0  0  0  0  0  0  0  0
  126.8350  122.4570   57.7440 C   0  0  0  0  0  0  0  0  0  0  0  0
  128.0980  124.2200   56.4710 C   0  0  0  0  0  0  0  0  0  0  0  0
  127.5490  125.8960   58.2570 C   0  0  0  0  0  0  0  0  0  0  0  0
  133.5100  125.1119   60.5220 H   0  0  0  0  0  0  0  0  0  0  0  0
  130.7430  124.5251   59.3394 H   0  0  0  0  0  0  0  0  0  0  0  0
  131.0270  126.8681   61.6389 H   0  0  0  0  0  0  0  0  0  0  0  0
  130.2062  126.9527   63.9830 H   0  0  0  0  0  0  0  0  0  0  0  0
  128.9409  123.9502   65.8889 H   0  0  0  0  0  0  0  0  0  0  0  0
  130.4535  126.6021   66.2166 H   0  0  0  0  0  0  0  0  0  0  0  0
  127.4277  126.6332   67.6169 H   0  0  0  0  0  0  0  0  0  0  0  0
  127.9067  126.2701   69.3485 H   0  0  0  0  0  0  0  0  0  0  0  0
  130.6110  127.3780   70.5910 H   0  0  0  0  0  0  0  0  0  0  0  0
  128.0008  124.6486   71.5778 H   0  0  0  0  0  0  0  0  0  0  0  0
  128.7363  122.9438   73.2288 H   0  0  0  0  0  0  0  0  0  0  0  0
  130.3516  123.5599   75.0251 H   0  0  0  0  0  0  0  0  0  0  0  0
  131.2301  125.8845   75.1653 H   0  0  0  0  0  0  0  0  0  0  0  0
  131.4840  127.9420   73.1100 H   0  0  0  0  0  0  0  0  0  0  0  0
  127.7060  127.4600   66.3750 H   0  0  0  0  0  0  0  0  0  0  0  0
  128.1286  131.1206   65.6065 H   0  0  0  0  0  0  0  0  0  0  0  0
  129.3495  130.0794   64.7493 H   0  0  0  0  0  0  0  0  0  0  0  0
  128.5374  131.9423   63.2698 H   0  0  0  0  0  0  0  0  0  0  0  0
  127.8762  130.4471   61.3592 H   0  0  0  0  0  0  0  0  0  0  0  0
  129.2114  129.7060   62.3404 H   0  0  0  0  0  0  0  0  0  0  0  0
  127.4763  127.9920   61.7395 H   0  0  0  0  0  0  0  0  0  0  0  0
  125.5321  129.5868   61.6230 H   0  0  0  0  0  0  0  0  0  0  0  0
  125.2067  128.2362   62.7908 H   0  0  0  0  0  0  0  0  0  0  0  0
  124.4601  130.4458   63.7297 H   0  0  0  0  0  0  0  0  0  0  0  0
  126.1422  131.8603   62.5107 H   0  0  0  0  0  0  0  0  0  0  0  0
  126.2529  132.1102   64.3057 H   0  0  0  0  0  0  0  0  0  0  0  0
  125.7480  130.2470   65.8748 H   0  0  0  0  0  0  0  0  0  0  0  0
  125.3379  128.6077   65.2015 H   0  0  0  0  0  0  0  0  0  0  0  0
  127.0617  127.2231   64.0963 H   0  0  0  0  0  0  0  0  0  0  0  0
  128.7488  127.8828   63.9007 H   0  0  0  0  0  0  0  0  0  0  0  0
  129.9707  122.6384   64.0543 H   0  0  0  0  0  0  0  0  0  0  0  0
  130.8018  122.5533   61.7133 H   0  0  0  0  0  0  0  0  0  0  0  0
  133.4933  126.3529   56.7850 H   0  0  0  0  0  0  0  0  0  0  0  0
  132.0072  125.3054   56.6180 H   0  0  0  0  0  0  0  0  0  0  0  0
  130.9590  128.9110   59.4260 H   0  0  0  0  0  0  0  0  0  0  0  0
  130.9211  130.4148   60.7927 H   0  0  0  0  0  0  0  0  0  0  0  0
  129.4767  131.9989   62.0519 H   0  0  0  0  0  0  0  0  0  0  0  0
  128.3808  133.9005   60.8727 H   0  0  0  0  0  0  0  0  0  0  0  0
  128.7321  134.2172   58.4293 H   0  0  0  0  0  0  0  0  0  0  0  0
  130.8440  132.1610   56.4790 H   0  0  0  0  0  0  0  0  0  0  0  0
  130.5070  125.1410   56.9180 H   0  0  0  0  0  0  0  0  0  0  0  0
  129.4027  122.9788   58.5718 H   0  0  0  0  0  0  0  0  0  0  0  0
  128.9637  124.2114   59.8354 H   0  0  0  0  0  0  0  0  0  0  0  0
  127.3720  122.2660   59.8650 H   0  0  0  0  0  0  0  0  0  0  0  0
  125.2924  123.6664   59.6645 H   0  0  0  0  0  0  0  0  0  0  0  0
  126.6334  124.5942   60.4614 H   0  0  0  0  0  0  0  0  0  0  0  0
  125.4201  126.0226   58.7874 H   0  0  0  0  0  0  0  0  0  0  0  0
  124.7226  124.1446   57.2668 H   0  0  0  0  0  0  0  0  0  0  0  0
  125.6613  125.4096   56.3645 H   0  0  0  0  0  0  0  0  0  0  0  0
  126.3793  123.0952   55.6918 H   0  0  0  0  0  0  0  0  0  0  0  0
  125.8534  121.9803   57.8828 H   0  0  0  0  0  0  0  0  0  0  0  0
  127.5910  121.7269   57.4192 H   0  0  0  0  0  0  0  0  0  0  0  0
  128.8226  123.4630   56.1366 H   0  0  0  0  0  0  0  0  0  0  0  0
  127.9862  125.0277   55.7327 H   0  0  0  0  0  0  0  0  0  0  0  0
  127.4701  126.6823   57.4919 H   0  0  0  0  0  0  0  0  0  0  0  0
  127.8759  126.3009   59.2261 H   0  0  0  0  0  0  0  0  0  0  0  0
  1  2  2  0
  2  3  1  0
  3  4  2  0
  4  5  1  0
  5  6  2  0
  6  7  1  0
  7  8  2  0
  8  9  1  0
  9 10  2  0
 10 11  1  0
 11 12  2  0
 11 13  1  0
 13 14  1  0
 14 15  2  0
 15 16  1  0
 16 17  1  0
 17 18  2  0
 17 19  1  0
 19 20  2  0
 20 21  1  0
 21 22  2  0
 22 23  1  0
 23 24  2  0
 24 25  1  0
 14 26  1  0
 26 27  2  0
 26 28  1  0
 29 28  1  1
 29 30  1  0
 30 31  1  0
 31 32  1  0
 32 33  1  0
 33 34  1  0
 34 35  1  0
 35 36  1  0
 35 37  1  0
 33 38  1  0
  8 39  1  0
 39 40  2  0
  2 41  1  0
 41 42  1  0
 42 43  2  0
 43 44  1  0
 44 45  1  0
 45 46  2  0
 45 47  1  0
 47 48  2  0
 48 49  1  0
 49 50  2  0
 50 51  1  0
 51 52  2  0
 52 53  1  0
 42 54  1  0
 54 55  2  0
 54 56  1  0
 57 56  1  6
 57 58  1  0
 58 59  1  0
 59 60  1  0
 60 61  1  0
 61 62  1  0
 62 63  1  0
 63 64  1  0
 63 65  1  0
 61 66  1  0
 40  5  1  0
 52 47  1  0
 65 57  1  0
 24 19  1  0
 37 29  1  0
 66 57  1  0
 38 29  1  0
 64 59  1  0
 36 31  1  0
  3 67  1  0
  4 68  1  0
  6 69  1  0
  7 70  1  0
  9 71  1  0
 10 72  1  0
 13 73  1  0
 13 74  1  0
 16 75  1  0
 20 76  1  0
 21 77  1  0
 22 78  1  0
 23 79  1  0
 25 80  1  0
 28 81  1  0
 30 82  1  0
 30 83  1  0
 31 84  1  6
 32 85  1  0
 32 86  1  0
 33 87  1  6
 34 88  1  0
 34 89  1  0
 35 90  1  1
 36 91  1  0
 36 92  1  0
 37 93  1  0
 37 94  1  0
 38 95  1  0
 38 96  1  0
 39 97  1  0
 40 98  1  0
 41 99  1  0
 41100  1  0
 44101  1  0
 48102  1  0
 49103  1  0
 50104  1  0
 51105  1  0
 53106  1  0
 56107  1  0
 58108  1  0
 58109  1  0
 59110  1  1
 60111  1  0
 60112  1  0
 61113  1  1
 62114  1  0
 62115  1  0
 63116  1  6
 64117  1  0
 64118  1  0
 65119  1  0
 65120  1  0
 66121  1  0
 66122  1  0
M  END
>  <Binding energies>  (1) 
[-12.42]

>  <Ligand effiencies>  (1) 
[-0.1725]

>  <Interactions>  (1) 
["V-A:ASP:366:CA:3210, V-B:PRO:540:CA:9855, V-B:GLU:543:C:9874, V-B:TYR:539:CE1:9847, V-A:PRO:540:C:4881, V-B:GLU:543:CB:9878, H-A:TYR:531:OH:4795, V-B:TYR:539:CE2:9848, V-B:GLU:543:CG:9879, V-B:TYR:539:C:9839, V-A:ASP:366:CG:3213, V-A:HIS:456:CD2:4068, H-B:HIS:456:ND1:9038, V-A:TYR:539:CD1:4873, V-B:TYR:539:CZ:9849, H-A:ASN:370:N:3244, H-B:TYR:539:OH:9850, V-B:LYS:547:CE:9922, V-B:TYR:531:CE2:9765, V-A:TYR:539:CA:4869, V-A:GLU:543:CD:4908, V-B:PRO:540:CB:9857, H-B:TYR:484:OH:9319, V-B:GLU:543:CA:9876, V-B:HIS:456:CE1:9041, V-B:PRO:540:N:9856, V-A:HIS:456:CE1:4070, V-A:ASP:366:C:3208, V-B:TYR:539:CD2:9846, V-A:TYR:531:CZ:4794, V-B:PRO:540:CD:9859, V-A:GLU:543:CG:4907, V-B:GLU:543:CD:9880, V-B:GLY:544:CA:9886, V-A:TYR:539:C:4867, V-A:ASP:366:CB:3212, H-A:LYS:547:NZ:4951, V-A:GLU:543:CB:4906, V-A:PRO:540:N:4884, H-A:TYR:539:N:4870, H-B:GLU:543:OE2:9882, V-A:PRO:540:CA:4883, V-B:MET:535:CE:9807, H-A:ASP:366:OD2:3215, H-A:GLY:544:O:4913, H-A:HIS:456:NE2:4071"]

$$$$
ZINC198725462-again1
     RDKit          3D

121129  0  0  0  0  0  0  0  0999 V2000
  126.4050  126.3000   56.8990 O   0  0  0  0  0  0  0  0  0  0  0  0
  127.4020  126.6750   57.5240 C   0  0  0  0  0  0  0  0  0  0  0  0
  127.3290  127.1830   58.8910 C   0  0  0  0  0  0  0  0  0  0  0  0
  128.3960  127.2360   59.7170 C   0  0  0  0  0  0  0  0  0  0  0  0
  128.3970  127.7310   61.1110 C   0  0  0  0  0  0  0  0  0  0  0  0
  128.9640  128.9600   61.4680 C   0  0  0  0  0  0  0  0  0  0  0  0
  128.9540  129.3830   62.7950 C   0  0  0  0  0  0  0  0  0  0  0  0
  128.3770  128.5830   63.7890 C   0  0  0  0  0  0  0  0  0  0  0  0
  128.3320  128.9910   65.2090 C   0  0  0  0  0  0  0  0  0  0  0  0
  127.9810  128.2230   66.2620 C   0  0  0  0  0  0  0  0  0  0  0  0
  127.9930  128.6980   67.6450 C   0  0  0  0  0  0  0  0  0  0  0  0
  128.1290  129.8950   67.8890 O   0  0  0  0  0  0  0  0  0  0  0  0
  127.8000  127.7310   68.8410 C   0  0  0  0  0  0  0  0  0  0  0  0
  129.0830  126.9350   69.2210 C   0  0  0  0  0  0  0  0  0  0  0  0
  129.7780  127.0420   70.2980 N   0  0  0  0  0  0  0  0  0  0  0  0
  129.3270  127.9230   71.2140 N   0  0  0  0  0  0  0  0  0  0  0  0
  128.7750  127.5390   72.3830 C   0  0  0  0  0  0  0  0  0  0  0  0
  128.6060  126.3610   72.7070 O   0  0  0  0  0  0  0  0  0  0  0  0
  128.3610  128.6670   73.3090 C   0  0  0  0  0  0  0  0  0  0  0  0
  129.1550  129.8250   73.4010 C   0  0  0  0  0  0  0  0  0  0  0  0
  128.8070  130.8690   74.2560 C   0  0  0  0  0  0  0  0  0  0  0  0
  127.6600  130.7760   75.0380 C   0  0  0  0  0  0  0  0  0  0  0  0
  126.8620  129.6370   74.9660 C   0  0  0  0  0  0  0  0  0  0  0  0
  127.2010  128.5860   74.1110 C   0  0  0  0  0  0  0  0  0  0  0  0
  126.3570  127.5020   74.0810 O   0  0  0  0  0  0  0  0  0  0  0  0
  129.5320  125.9340   68.2270 C   0  0  0  0  0  0  0  0  0  0  0  0
  129.3420  124.7290   68.4040 O   0  0  0  0  0  0  0  0  0  0  0  0
  130.1190  126.4210   67.1080 N   0  0  0  0  0  0  0  0  0  0  0  0
  130.6080  125.6800   65.9350 C   0  0  2  0  0  0  0  0  0  0  0  0
  129.9400  124.2760   65.7930 C   0  0  0  0  0  0  0  0  0  0  0  0
  130.4150  123.5170   64.5240 C   0  0  1  0  0  0  0  0  0  0  0  0
  130.0680  124.3840   63.2850 C   0  0  0  0  0  0  0  0  0  0  0  0
  130.7390  125.7810   63.3500 C   0  0  2  0  0  0  0  0  0  0  0  0
  132.2730  125.5800   63.4430 C   0  0  0  0  0  0  0  0  0  0  0  0
  132.6740  124.7430   64.6850 C   0  0  2  0  0  0  0  0  0  0  0  0
  131.9570  123.3680   64.5950 C   0  0  0  0  0  0  0  0  0  0  0  0
  132.1570  125.4780   65.9510 C   0  0  0  0  0  0  0  0  0  0  0  0
  130.2640  126.4860   64.6470 C   0  0  0  0  0  0  0  0  0  0  0  0
  127.8100  127.3570   63.4310 C   0  0  0  0  0  0  0  0  0  0  0  0
  127.8210  126.9340   62.1040 C   0  0  0  0  0  0  0  0  0  0  0  0
  128.8190  126.5900   56.9140 C   0  0  0  0  0  0  0  0  0  0  0  0
  129.8990  127.4250   57.6270 C   0  0  0  0  0  0  0  0  0  0  0  0
  129.7760  128.6840   57.8900 N   0  0  0  0  0  0  0  0  0  0  0  0
  130.7710  129.3410   58.5460 N   0  0  0  0  0  0  0  0  0  0  0  0
  130.5490  130.3760   59.3810 C   0  0  0  0  0  0  0  0  0  0  0  0
  129.4100  130.8030   59.6000 O   0  0  0  0  0  0  0  0  0  0  0  0
  131.7610  131.0380   60.0570 C   0  0  0  0  0  0  0  0  0  0  0  0
  131.5850  131.4570   61.3910 C   0  0  0  0  0  0  0  0  0  0  0  0
  132.6010  132.0740   62.1150 C   0  0  0  0  0  0  0  0  0  0  0  0
  133.8360  132.2940   61.5250 C   0  0  0  0  0  0  0  0  0  0  0  0
  134.0560  131.8940   60.2130 C   0  0  0  0  0  0  0  0  0  0  0  0
  133.0450  131.2710   59.4650 C   0  0  0  0  0  0  0  0  0  0  0  0
  133.3820  130.9450   58.2750 O   0  0  0  0  0  0  0  0  0  0  0  0
  131.0600  126.6220   58.0170 C   0  0  0  0  0  0  0  0  0  0  0  0
  132.1880  126.8500   57.5790 O   0  0  0  0  0  0  0  0  0  0  0  0
  130.7500  125.6370   58.8810 N   0  0  0  0  0  0  0  0  0  0  0  0
  131.6500  124.6400   59.4770 C   0  0  2  0  0  0  0  0  0  0  0  0
  130.8790  123.4600   60.1480 C   0  0  0  0  0  0  0  0  0  0  0  0
  131.8280  122.4330   60.8190 C   0  0  1  0  0  0  0  0  0  0  0  0
  132.7990  121.8880   59.7380 C   0  0  0  0  0  0  0  0  0  0  0  0
  133.6310  123.0190   59.0770 C   0  0  2  0  0  0  0  0  0  0  0  0
  134.4240  123.7520   60.1890 C   0  0  0  0  0  0  0  0  0  0  0  0
  133.4890  124.3410   61.2770 C   0  0  2  0  0  0  0  0  0  0  0  0
  132.6650  123.1790   61.8900 C   0  0  0  0  0  0  0  0  0  0  0  0
  132.5040  125.3220   60.5880 C   0  0  0  0  0  0  0  0  0  0  0  0
  132.6470  124.0350   58.4370 C   0  0  0  0  0  0  0  0  0  0  0  0
  126.3583  127.5396   59.2660 H   0  0  0  0  0  0  0  0  0  0  0  0
  129.3551  126.8772   59.3153 H   0  0  0  0  0  0  0  0  0  0  0  0
  129.4205  129.5960   60.6953 H   0  0  0  0  0  0  0  0  0  0  0  0
  129.4019  130.3511   63.0638 H   0  0  0  0  0  0  0  0  0  0  0  0
  128.6145  130.0306   65.4311 H   0  0  0  0  0  0  0  0  0  0  0  0
  127.6697  127.1856   66.0698 H   0  0  0  0  0  0  0  0  0  0  0  0
  127.4858  128.3198   69.7154 H   0  0  0  0  0  0  0  0  0  0  0  0
  127.0441  126.9923   68.5361 H   0  0  0  0  0  0  0  0  0  0  0  0
  129.4640  128.8980   70.9880 H   0  0  0  0  0  0  0  0  0  0  0  0
  130.0648  129.9075   72.7883 H   0  0  0  0  0  0  0  0  0  0  0  0
  129.4395  131.7672   74.3127 H   0  0  0  0  0  0  0  0  0  0  0  0
  127.3840  131.6005   75.7118 H   0  0  0  0  0  0  0  0  0  0  0  0
  125.9573  129.5645   75.5876 H   0  0  0  0  0  0  0  0  0  0  0  0
  126.5480  126.8970   73.3600 H   0  0  0  0  0  0  0  0  0  0  0  0
  130.2290  127.4230   67.0510 H   0  0  0  0  0  0  0  0  0  0  0  0
  130.1917  123.6744   66.6788 H   0  0  0  0  0  0  0  0  0  0  0  0
  128.8545  124.4298   65.7037 H   0  0  0  0  0  0  0  0  0  0  0  0
  129.9330  122.5305   64.4573 H   0  0  0  0  0  0  0  0  0  0  0  0
  130.4147  123.8648   62.3793 H   0  0  0  0  0  0  0  0  0  0  0  0
  128.9779  124.5301   63.2658 H   0  0  0  0  0  0  0  0  0  0  0  0
  130.4788  126.3782   62.4636 H   0  0  0  0  0  0  0  0  0  0  0  0
  132.6187  125.0600   62.5374 H   0  0  0  0  0  0  0  0  0  0  0  0
  132.7409  126.5712   63.5353 H   0  0  0  0  0  0  0  0  0  0  0  0
  133.7650  124.6103   64.7301 H   0  0  0  0  0  0  0  0  0  0  0  0
  132.3047  122.8453   63.6918 H   0  0  0  0  0  0  0  0  0  0  0  0
  132.2006  122.7991   65.5044 H   0  0  0  0  0  0  0  0  0  0  0  0
  132.4263  124.8853   66.8376 H   0  0  0  0  0  0  0  0  0  0  0  0
  132.6236  126.4739   65.9732 H   0  0  0  0  0  0  0  0  0  0  0  0
  130.7494  127.4711   64.7091 H   0  0  0  0  0  0  0  0  0  0  0  0
  129.1687  126.5724   64.5940 H   0  0  0  0  0  0  0  0  0  0  0  0
  127.3516  126.7213   64.2029 H   0  0  0  0  0  0  0  0  0  0  0  0
  127.3732  125.9658   61.8357 H   0  0  0  0  0  0  0  0  0  0  0  0
  129.1351  125.5366   56.9367 H   0  0  0  0  0  0  0  0  0  0  0  0
  128.7364  127.0064   55.8992 H   0  0  0  0  0  0  0  0  0  0  0  0
  131.7070  129.0010   58.3730 H   0  0  0  0  0  0  0  0  0  0  0  0
  130.6119  131.2908   61.8763 H   0  0  0  0  0  0  0  0  0  0  0  0
  132.4241  132.3868   63.1546 H   0  0  0  0  0  0  0  0  0  0  0  0
  134.6396  132.7840   62.0942 H   0  0  0  0  0  0  0  0  0  0  0  0
  135.0396  132.0686   59.7524 H   0  0  0  0  0  0  0  0  0  0  0  0
  129.7820  125.5570   59.1570 H   0  0  0  0  0  0  0  0  0  0  0  0
  130.2049  123.8701   60.9145 H   0  0  0  0  0  0  0  0  0  0  0  0
  130.3227  122.9335   59.3585 H   0  0  0  0  0  0  0  0  0  0  0  0
  131.2541  121.6119   61.2735 H   0  0  0  0  0  0  0  0  0  0  0  0
  133.4870  121.1703   60.2087 H   0  0  0  0  0  0  0  0  0  0  0  0
  132.1967  121.4075   58.9529 H   0  0  0  0  0  0  0  0  0  0  0  0
  134.3133  122.6060   58.3194 H   0  0  0  0  0  0  0  0  0  0  0  0
  135.1143  123.0382   60.6624 H   0  0  0  0  0  0  0  0  0  0  0  0
  134.9709  124.5852   59.7235 H   0  0  0  0  0  0  0  0  0  0  0  0
  134.0726  124.8558   62.0545 H   0  0  0  0  0  0  0  0  0  0  0  0
  133.3553  122.4646   62.3624 H   0  0  0  0  0  0  0  0  0  0  0  0
  131.9699  123.6071   62.6272 H   0  0  0  0  0  0  0  0  0  0  0  0
  131.8256  125.7322   61.3506 H   0  0  0  0  0  0  0  0  0  0  0  0
  133.1030  126.1100   60.1082 H   0  0  0  0  0  0  0  0  0  0  0  0
  133.2282  124.8539   57.9880 H   0  0  0  0  0  0  0  0  0  0  0  0
  132.0557  123.4967   57.6816 H   0  0  0  0  0  0  0  0  0  0  0  0
  1  2  2  0
  2  3  1  0
  3  4  2  0
  4  5  1  0
  5  6  2  0
  6  7  1  0
  7  8  2  0
  8  9  1  0
  9 10  2  0
 10 11  1  0
 11 12  2  0
 11 13  1  0
 13 14  1  0
 14 15  2  0
 15 16  1  0
 16 17  1  0
 17 18  2  0
 17 19  1  0
 19 20  2  0
 20 21  1  0
 21 22  2  0
 22 23  1  0
 23 24  2  0
 24 25  1  0
 14 26  1  0
 26 27  2  0
 26 28  1  0
 29 28  1  1
 29 30  1  0
 30 31  1  0
 31 32  1  0
 32 33  1  0
 33 34  1  0
 34 35  1  0
 35 36  1  0
 35 37  1  0
 33 38  1  0
  8 39  1  0
 39 40  2  0
  2 41  1  0
 41 42  1  0
 42 43  2  0
 43 44  1  0
 44 45  1  0
 45 46  2  0
 45 47  1  0
 47 48  2  0
 48 49  1  0
 49 50  2  0
 50 51  1  0
 51 52  2  0
 52 53  1  0
 42 54  1  0
 54 55  2  0
 54 56  1  0
 57 56  1  6
 57 58  1  0
 58 59  1  0
 59 60  1  0
 60 61  1  0
 61 62  1  0
 62 63  1  0
 63 64  1  0
 63 65  1  0
 61 66  1  0
 40  5  1  0
 52 47  1  0
 65 57  1  0
 24 19  1  0
 37 29  1  0
 66 57  1  0
 38 29  1  0
 64 59  1  0
 36 31  1  0
  3 67  1  0
  4 68  1  0
  6 69  1  0
  7 70  1  0
  9 71  1  0
 10 72  1  0
 13 73  1  0
 13 74  1  0
 16 75  1  0
 20 76  1  0
 21 77  1  0
 22 78  1  0
 23 79  1  0
 25 80  1  0
 28 81  1  0
 30 82  1  0
 30 83  1  0
 31 84  1  6
 32 85  1  0
 32 86  1  0
 33 87  1  6
 34 88  1  0
 34 89  1  0
 35 90  1  1
 36 91  1  0
 36 92  1  0
 37 93  1  0
 37 94  1  0
 38 95  1  0
 38 96  1  0
 39 97  1  0
 40 98  1  0
 41 99  1  0
 41100  1  0
 44101  1  0
 48102  1  0
 49103  1  0
 50104  1  0
 51105  1  0
 56106  1  0
 58107  1  0
 58108  1  0
 59109  1  1
 60110  1  0
 60111  1  0
 61112  1  6
 62113  1  0
 62114  1  0
 63115  1  1
 64116  1  0
 64117  1  0
 65118  1  0
 65119  1  0
 66120  1  0
 66121  1  0
M  CHG  1  53  -1
M  END
>  <Binding energies>  (1) 
[-6.88]

>  <Ligand effiencies>  (1) 
[-0.09690140845070422]

>  <Interactions>  (1) 
["V-A:ILE:369:CG2:3237, V-A:ASP:366:CA:3210, V-A:ALA:541:C:4888, V-B:GLU:543:C:9874, H-A:GLU:543:OE2:4910, V-A:ILE:369:CB:3236, V-B:HIS:456:CD2:9039, V-A:PRO:540:C:4881, H-B:LYS:547:NZ:9923, V-B:GLU:543:CB:9878, V-B:HIS:456:CB:9036, H-A:TYR:531:OH:4795, V-B:TYR:539:CE2:9848, V-A:TYR:484:CE2:4346, V-B:GLU:543:CG:9879, V-A:ASP:366:CG:3213, V-A:ASN:362:CB:3176, V-A:LEU:363:CD1:3189, V-A:LEU:363:CB:3187, V-B:TYR:539:CZ:9849, H-B:TYR:539:OH:9850, V-A:GLU:543:CD:4908, V-A:TYR:484:CZ:4347, H-B:TYR:484:OH:9319, V-B:HIS:456:CE1:9041, V-B:GLU:543:CA:9876, V-A:ILE:369:CD1:3239, V-A:HIS:456:CE1:4070, H-B:HIS:456:NE2:9042, V-B:TYR:539:CD2:9846, V-A:GLU:543:CG:4907, V-B:GLU:543:CD:9880, V-B:HIS:456:CG:9037, V-A:ILE:369:CG1:3238, H-B:TYR:531:OH:9767, V-A:ASP:366:CB:3212, V-A:LEU:475:CD2:4259, V-A:ASN:362:C:3172, V-A:ARG:545:CZ:4926, V-A:GLU:543:CB:4906, H-B:GLY:544:O:9885, V-A:PRO:540:CB:4885, V-A:PRO:540:CA:4883, V-A:LEU:363:CA:3185, H-A:ASP:366:OD2:3215, H-A:GLU:543:O:4903"]

$$$$
ZINC198736652
     RDKit          3D

 96104  0  0  0  0  0  0  0  0999 V2000
  128.3510  120.1250   69.7320 C   0  0  0  0  0  0  0  0  0  0  0  0
  128.3500  121.3350   68.9830 O   0  0  0  0  0  0  0  0  0  0  0  0
  128.7330  121.3060   67.6560 C   0  0  0  0  0  0  0  0  0  0  0  0
  129.1180  120.1450   66.9650 C   0  0  0  0  0  0  0  0  0  0  0  0
  129.4810  120.2140   65.6230 C   0  0  0  0  0  0  0  0  0  0  0  0
  129.4700  121.4380   64.9570 C   0  0  0  0  0  0  0  0  0  0  0  0
  129.1000  122.6140   65.6230 C   0  0  0  0  0  0  0  0  0  0  0  0
  129.0960  123.9110   64.8930 C   0  0  0  0  0  0  0  0  0  0  0  0
  128.6660  123.9850   63.6040 C   0  0  0  0  0  0  0  0  0  0  0  0
  128.0760  122.9530   62.7770 C   0  0  0  0  0  0  0  0  0  0  0  0
  127.8510  123.4420   61.5550 C   0  0  0  0  0  0  0  0  0  0  0  0
  128.2800  124.8240   61.5070 C   0  0  0  0  0  0  0  0  0  0  0  0
  128.6910  125.0990   62.7930 N   0  0  0  0  0  0  0  0  0  0  0  0
  128.2810  125.6850   60.4540 C   0  0  0  0  0  0  0  0  0  0  0  0
  127.8990  125.2260   59.0900 C   0  0  0  0  0  0  0  0  0  0  0  0
  127.2970  126.1190   58.1940 C   0  0  0  0  0  0  0  0  0  0  0  0
  126.9320  125.7080   56.9140 C   0  0  0  0  0  0  0  0  0  0  0  0
  127.1700  124.3960   56.5070 C   0  0  0  0  0  0  0  0  0  0  0  0
  127.7820  123.4820   57.3800 C   0  0  0  0  0  0  0  0  0  0  0  0
  128.0630  122.1680   57.0630 O   0  0  0  0  0  0  0  0  0  0  0  0
  128.3940  121.2590   58.1060 C   0  0  0  0  0  0  0  0  0  0  0  0
  128.1400  123.9130   58.6600 C   0  0  0  0  0  0  0  0  0  0  0  0
  128.6990  127.0840   60.5730 C   0  0  0  0  0  0  0  0  0  0  0  0
  129.4920  127.8830   59.7590 C   0  0  0  0  0  0  0  0  0  0  0  0
  129.4910  129.1780   60.2770 C   0  0  0  0  0  0  0  0  0  0  0  0
  128.7020  129.1930   61.4200 C   0  0  0  0  0  0  0  0  0  0  0  0
  128.2540  127.9020   61.5870 N   0  0  0  0  0  0  0  0  0  0  0  0
  128.2820  130.2880   62.2970 C   0  0  0  0  0  0  0  0  0  0  0  0
  127.9010  131.5610   61.6270 C   0  0  0  0  0  0  0  0  0  0  0  0
  127.0950  132.4910   62.2970 C   0  0  0  0  0  0  0  0  0  0  0  0
  126.7280  133.6880   61.6850 C   0  0  0  0  0  0  0  0  0  0  0  0
  127.1560  133.9720   60.3900 C   0  0  0  0  0  0  0  0  0  0  0  0
  127.9560  133.0540   59.6910 C   0  0  0  0  0  0  0  0  0  0  0  0
  128.4230  133.2450   58.4040 O   0  0  0  0  0  0  0  0  0  0  0  0
  128.7770  132.1110   57.6210 C   0  0  0  0  0  0  0  0  0  0  0  0
  128.3150  131.8590   60.3200 C   0  0  0  0  0  0  0  0  0  0  0  0
  128.2790  130.1860   63.6540 C   0  0  0  0  0  0  0  0  0  0  0  0
  127.8480  131.1530   64.6410 C   0  0  0  0  0  0  0  0  0  0  0  0
  128.0710  130.6650   65.8640 C   0  0  0  0  0  0  0  0  0  0  0  0
  128.6610  129.3470   65.7510 C   0  0  0  0  0  0  0  0  0  0  0  0
  128.6880  129.1000   64.3970 N   0  0  0  0  0  0  0  0  0  0  0  0
  129.0900  128.5130   66.7360 C   0  0  0  0  0  0  0  0  0  0  0  0
  129.0900  128.9490   68.1600 C   0  0  0  0  0  0  0  0  0  0  0  0
  128.7540  130.2690   68.4870 C   0  0  0  0  0  0  0  0  0  0  0  0
  128.7440  130.6960   69.8140 C   0  0  0  0  0  0  0  0  0  0  0  0
  129.0690  129.8060   70.8350 C   0  0  0  0  0  0  0  0  0  0  0  0
  129.4010  128.4740   70.5390 C   0  0  0  0  0  0  0  0  0  0  0  0
  129.7300  127.5210   71.4830 O   0  0  0  0  0  0  0  0  0  0  0  0
  128.7920  126.4950   71.7870 C   0  0  0  0  0  0  0  0  0  0  0  0
  129.4030  128.0650   69.2030 C   0  0  0  0  0  0  0  0  0  0  0  0
  129.6210  127.1750   66.4680 C   0  0  0  0  0  0  0  0  0  0  0  0
  130.7160  126.4960   66.9870 C   0  0  0  0  0  0  0  0  0  0  0  0
  130.7190  125.2010   66.4670 C   0  0  0  0  0  0  0  0  0  0  0  0
  129.6260  125.0670   65.6210 C   0  0  0  0  0  0  0  0  0  0  0  0
  128.9930  126.2880   65.6230 N   0  0  0  0  0  0  0  0  0  0  0  0
  128.7270  122.5240   66.9720 C   0  0  0  0  0  0  0  0  0  0  0  0
  128.3508  120.3591   70.8068 H   0  0  0  0  0  0  0  0  0  0  0  0
  127.4533  119.5396   69.4841 H   0  0  0  0  0  0  0  0  0  0  0  0
  129.2496  119.5410   69.4841 H   0  0  0  0  0  0  0  0  0  0  0  0
  129.1327  119.1768   67.4870 H   0  0  0  0  0  0  0  0  0  0  0  0
  129.7772  119.3003   65.0870 H   0  0  0  0  0  0  0  0  0  0  0  0
  129.7553  121.4815   63.8955 H   0  0  0  0  0  0  0  0  0  0  0  0
  127.8489  121.9276   63.1040 H   0  0  0  0  0  0  0  0  0  0  0  0
  127.4093  122.8830   60.7169 H   0  0  0  0  0  0  0  0  0  0  0  0
  129.1850  125.9440   63.0420 H   0  0  0  0  0  0  0  0  0  0  0  0
  127.1102  127.1575   58.5050 H   0  0  0  0  0  0  0  0  0  0  0  0
  126.4554  126.4195   56.2236 H   0  0  0  0  0  0  0  0  0  0  0  0
  126.8768  124.0750   55.4966 H   0  0  0  0  0  0  0  0  0  0  0  0
  128.2191  121.7392   59.0801 H   0  0  0  0  0  0  0  0  0  0  0  0
  127.7655  120.3602   58.0222 H   0  0  0  0  0  0  0  0  0  0  0  0
  129.4533  120.9748   58.0222 H   0  0  0  0  0  0  0  0  0  0  0  0
  128.6234  123.2041   59.3483 H   0  0  0  0  0  0  0  0  0  0  0  0
  130.0295  127.5507   58.8586 H   0  0  0  0  0  0  0  0  0  0  0  0
  130.0246  130.0411   59.8523 H   0  0  0  0  0  0  0  0  0  0  0  0
  127.6250  127.6090   62.3200 H   0  0  0  0  0  0  0  0  0  0  0  0
  126.7479  132.2737   63.3179 H   0  0  0  0  0  0  0  0  0  0  0  0
  126.0989  134.4103   62.2257 H   0  0  0  0  0  0  0  0  0  0  0  0
  126.8659  134.9198   59.9130 H   0  0  0  0  0  0  0  0  0  0  0  0
  129.0383  131.2740   58.2851 H   0  0  0  0  0  0  0  0  0  0  0  0
  127.9259  131.8235   56.9863 H   0  0  0  0  0  0  0  0  0  0  0  0
  129.6405  132.3588   56.9863 H   0  0  0  0  0  0  0  0  0  0  0  0
  128.9381  131.1334   59.7766 H   0  0  0  0  0  0  0  0  0  0  0  0
  127.4062  132.1355   64.4187 H   0  0  0  0  0  0  0  0  0  0  0  0
  127.8428  131.1821   66.8077 H   0  0  0  0  0  0  0  0  0  0  0  0
  129.1840  128.3190   63.9930 H   0  0  0  0  0  0  0  0  0  0  0  0
  128.4948  130.9776   67.6866 H   0  0  0  0  0  0  0  0  0  0  0  0
  128.4794  131.7362   70.0549 H   0  0  0  0  0  0  0  0  0  0  0  0
  129.0656  130.1488   71.8802 H   0  0  0  0  0  0  0  0  0  0  0  0
  128.6998  126.3942   72.8785 H   0  0  0  0  0  0  0  0  0  0  0  0
  127.8127  126.7549   71.3588 H   0  0  0  0  0  0  0  0  0  0  0  0
  129.1384  125.5428   71.3588 H   0  0  0  0  0  0  0  0  0  0  0  0
  129.6568  127.0220   68.9628 H   0  0  0  0  0  0  0  0  0  0  0  0
  131.4554  126.9090   67.6889 H   0  0  0  0  0  0  0  0  0  0  0  0
  131.4607  124.4197   66.6893 H   0  0  0  0  0  0  0  0  0  0  0  0
  128.1380  126.4870   65.1240 H   0  0  0  0  0  0  0  0  0  0  0  0
  128.4218  123.4363   67.5054 H   0  0  0  0  0  0  0  0  0  0  0  0
  1  2  1  0
  2  3  1  0
  3  4  2  0
  4  5  1  0
  5  6  2  0
  6  7  1  0
  7  8  1  0
  8  9  2  0
  9 10  1  0
 10 11  2  0
 11 12  1  0
 12 13  1  0
 12 14  2  0
 14 15  1  0
 15 16  2  0
 16 17  1  0
 17 18  2  0
 18 19  1  0
 19 20  1  0
 20 21  1  0
 19 22  2  0
 14 23  1  0
 23 24  2  0
 24 25  1  0
 25 26  2  0
 26 27  1  0
 26 28  1  0
 28 29  1  0
 29 30  2  0
 30 31  1  0
 31 32  2  0
 32 33  1  0
 33 34  1  0
 34 35  1  0
 33 36  2  0
 28 37  2  0
 37 38  1  0
 38 39  2  0
 39 40  1  0
 40 41  1  0
 40 42  2  0
 42 43  1  0
 43 44  2  0
 44 45  1  0
 45 46  2  0
 46 47  1  0
 47 48  1  0
 48 49  1  0
 47 50  2  0
 42 51  1  0
 51 52  2  0
 52 53  1  0
 53 54  2  0
 54 55  1  0
  7 56  2  0
 56  3  1  0
 54  8  1  0
 13  9  1  0
 22 15  1  0
 27 23  1  0
 36 29  1  0
 41 37  1  0
 50 43  1  0
 55 51  1  0
  1 57  1  0
  1 58  1  0
  1 59  1  0
  4 60  1  0
  5 61  1  0
  6 62  1  0
 10 63  1  0
 11 64  1  0
 13 65  1  0
 16 66  1  0
 17 67  1  0
 18 68  1  0
 21 69  1  0
 21 70  1  0
 21 71  1  0
 22 72  1  0
 24 73  1  0
 25 74  1  0
 27 75  1  0
 30 76  1  0
 31 77  1  0
 32 78  1  0
 35 79  1  0
 35 80  1  0
 35 81  1  0
 36 82  1  0
 38 83  1  0
 39 84  1  0
 41 85  1  0
 44 86  1  0
 45 87  1  0
 46 88  1  0
 49 89  1  0
 49 90  1  0
 49 91  1  0
 50 92  1  0
 52 93  1  0
 53 94  1  0
 55 95  1  0
 56 96  1  0
M  END
>  <Binding energies>  (1) 
[108.57]

>  <Ligand effiencies>  (1) 
[1.8094999999999999]

>  <Interactions>  (1) 
["V-B:TYR:539:CA:9841, V-B:PRO:540:CA:9855, V-A:GLU:543:CA:4904, V-B:GLU:543:C:9874, H-A:GLU:543:OE2:4910, V-A:GLU:543:C:4902, V-B:HIS:456:CD2:9039, V-B:GLU:543:CB:9878, V-B:ALA:541:CB:9864, V-B:TYR:539:CE2:9848, V-A:TYR:484:CE2:4346, V-A:LEU:475:CG:4257, H-B:TYR:539:N:9842, V-B:GLU:543:CG:9879, V-B:LEU:475:CD2:9230, V-B:TYR:539:C:9839, V-A:TYR:539:CE1:4875, V-A:HIS:456:CD2:4068, V-A:TYR:539:CD1:4873, V-B:TYR:484:CE2:9317, V-B:TYR:539:CZ:9849, H-B:GLU:543:OE1:9881, V-A:LEU:475:CD1:4258, V-B:TYR:539:CB:9843, V-A:TYR:484:CA:4339, V-A:TYR:484:CZ:4347, V-A:GLU:543:CD:4908, V-A:LEU:475:CB:4256, V-A:SER:483:CA:4331, V-B:GLU:543:CA:9876, H-B:GLY:544:N:9887, V-B:HIS:456:CE1:9041, V-A:SER:483:C:4329, V-B:PRO:540:N:9856, V-A:TYR:484:CD2:4344, V-A:HIS:456:CE1:4070, V-B:TYR:484:CZ:9318, V-A:TYR:484:CG:4342, V-B:TYR:484:CD2:9315, V-B:PRO:540:CD:9859, V-A:GLU:543:CG:4907, V-B:TYR:539:CD2:9846, V-B:GLU:543:CD:9880, V-A:TYR:539:C:4867, V-A:LEU:475:CD2:4259, H-A:GLU:543:OE1:4909, V-B:TYR:539:CG:9844, V-A:TYR:484:CB:4341, V-A:GLU:543:CB:4906, V-B:VAL:542:C:9866, V-B:TYR:539:CD1:9845, H-B:GLU:543:OE2:9882, V-B:ALA:541:CA:9862, H-B:GLU:543:N:9877, V-B:TYR:539:CE1:9847"]

$$$$
ZINC19907378
     RDKit          3D

 53 57  0  0  0  0  0  0  0  0999 V2000
  127.6340  129.4000   67.2890 O   0  0  0  0  0  0  0  0  0  0  0  0
  128.2250  128.4580   66.7570 C   0  0  0  0  0  0  0  0  0  0  0  0
  128.3600  128.1780   65.4360 N   0  0  0  0  0  0  0  0  0  0  0  0
  127.7700  129.0390   64.3980 C   0  0  0  0  0  0  0  0  0  0  0  0
  128.7040  129.4930   63.3590 N   0  0  0  0  0  0  0  0  0  0  0  0
  128.7310  130.9560   63.2960 C   0  0  0  0  0  0  0  0  0  0  0  0
  129.7620  131.4440   62.2510 C   0  0  0  0  0  0  0  0  0  0  0  0
  129.5360  130.9030   60.8970 N   0  0  0  0  0  0  0  0  0  0  0  0
  130.1630  131.4470   59.7760 C   0  0  0  0  0  0  0  0  0  0  0  0
  131.4910  131.1190   59.4530 C   0  0  0  0  0  0  0  0  0  0  0  0
  132.1270  131.6880   58.3510 C   0  0  0  0  0  0  0  0  0  0  0  0
  131.4520  132.6120   57.5580 C   0  0  0  0  0  0  0  0  0  0  0  0
  130.1450  132.9720   57.8750 C   0  0  0  0  0  0  0  0  0  0  0  0
  129.5070  132.4040   58.9790 C   0  0  0  0  0  0  0  0  0  0  0  0
  128.2510  132.8160   59.2750 F   0  0  0  0  0  0  0  0  0  0  0  0
  129.3550  129.4410   60.9710 C   0  0  0  0  0  0  0  0  0  0  0  0
  128.3230  129.0000   62.0330 C   0  0  0  0  0  0  0  0  0  0  0  0
  129.1040  127.0110   65.2190 C   0  0  0  0  0  0  0  0  0  0  0  0
  129.4610  126.3930   64.0170 C   0  0  0  0  0  0  0  0  0  0  0  0
  130.2140  125.2150   64.0500 C   0  0  0  0  0  0  0  0  0  0  0  0
  130.6070  124.6630   65.2730 C   0  0  0  0  0  0  0  0  0  0  0  0
  130.2510  125.2840   66.4730 C   0  0  0  0  0  0  0  0  0  0  0  0
  129.5000  126.4590   66.4250 C   0  0  0  0  0  0  0  0  0  0  0  0
  128.9840  127.3410   67.5240 C   0  0  2  0  0  0  0  0  0  0  0  0
  128.1290  126.6950   68.4070 O   0  0  0  0  0  0  0  0  0  0  0  0
  128.1770  127.3460   69.6640 C   0  0  0  0  0  0  0  0  0  0  0  0
  129.4790  128.1630   69.6060 C   0  0  1  0  0  0  0  0  0  0  0  0
  130.5520  127.7280   70.6200 C   0  0  0  0  0  0  0  0  0  0  0  0
  130.1650  128.3260   72.2560 Cl  0  0  0  0  0  0  0  0  0  0  0  0
  129.9860  127.8970   68.3090 O   0  0  0  0  0  0  0  0  0  0  0  0
  126.9621  128.4763   63.9074 H   0  0  0  0  0  0  0  0  0  0  0  0
  127.4220  129.9459   64.9141 H   0  0  0  0  0  0  0  0  0  0  0  0
  127.7326  131.3230   63.0157 H   0  0  0  0  0  0  0  0  0  0  0  0
  129.0199  131.3453   64.2834 H   0  0  0  0  0  0  0  0  0  0  0  0
  129.7111  132.5416   62.1993 H   0  0  0  0  0  0  0  0  0  0  0  0
  130.7481  131.0845   62.5802 H   0  0  0  0  0  0  0  0  0  0  0  0
  132.0381  130.4005   60.0811 H   0  0  0  0  0  0  0  0  0  0  0  0
  133.1623  131.4070   58.1078 H   0  0  0  0  0  0  0  0  0  0  0  0
  131.9499  133.0563   56.6835 H   0  0  0  0  0  0  0  0  0  0  0  0
  129.6130  133.7069   57.2530 H   0  0  0  0  0  0  0  0  0  0  0  0
  129.0175  129.0819   59.9876 H   0  0  0  0  0  0  0  0  0  0  0  0
  130.3239  129.0097   61.2631 H   0  0  0  0  0  0  0  0  0  0  0  0
  127.3353  129.4046   61.7670 H   0  0  0  0  0  0  0  0  0  0  0  0
  128.2896  127.9008   62.0597 H   0  0  0  0  0  0  0  0  0  0  0  0
  129.1528  126.8288   63.0552 H   0  0  0  0  0  0  0  0  0  0  0  0
  130.4984  124.7205   63.1095 H   0  0  0  0  0  0  0  0  0  0  0  0
  131.1989  123.7360   65.2906 H   0  0  0  0  0  0  0  0  0  0  0  0
  130.5573  124.8543   67.4382 H   0  0  0  0  0  0  0  0  0  0  0  0
  127.3065  128.0052   69.7971 H   0  0  0  0  0  0  0  0  0  0  0  0
  128.1547  126.6415   70.5085 H   0  0  0  0  0  0  0  0  0  0  0  0
  129.2599  129.2162   69.8356 H   0  0  0  0  0  0  0  0  0  0  0  0
  130.6027  126.6294   70.6412 H   0  0  0  0  0  0  0  0  0  0  0  0
  131.5187  128.1523   70.3112 H   0  0  0  0  0  0  0  0  0  0  0  0
  1  2  2  0
  2  3  1  0
  3  4  1  0
  4  5  1  0
  5  6  1  0
  6  7  1  0
  7  8  1  0
  8  9  1  0
  9 10  2  0
 10 11  1  0
 11 12  2  0
 12 13  1  0
 13 14  2  0
 14 15  1  0
  8 16  1  0
 16 17  1  0
  3 18  1  0
 18 19  2  0
 19 20  1  0
 20 21  2  0
 21 22  1  0
 22 23  2  0
 23 24  1  0
 24 25  1  1
 25 26  1  0
 26 27  1  0
 27 28  1  0
 28 29  1  0
 27 30  1  0
 24  2  1  0
 17  5  1  0
 23 18  1  0
 30 24  1  0
 14  9  1  0
  4 31  1  0
  4 32  1  0
  6 33  1  0
  6 34  1  0
  7 35  1  0
  7 36  1  0
 10 37  1  0
 11 38  1  0
 12 39  1  0
 13 40  1  0
 16 41  1  0
 16 42  1  0
 17 43  1  0
 17 44  1  0
 19 45  1  0
 20 46  1  0
 21 47  1  0
 22 48  1  0
 26 49  1  0
 26 50  1  0
 27 51  1  6
 28 52  1  0
 28 53  1  0
M  END
>  <Binding energies>  (1) 
[-7.15]

>  <Ligand effiencies>  (1) 
[-0.23833333333333334]

>  <Interactions>  (1) 
["V-A:GLU:543:C:4902, V-B:GLU:543:CB:9878, V-B:GLU:543:CG:9879, V-A:GLY:544:C:4912, V-A:LEU:363:CD1:3189, V-A:TYR:539:CD1:4873, V-A:GLU:543:CD:4908, H-B:TYR:484:OH:9319, V-B:HIS:456:CE1:9041, V-A:HIS:456:CE1:4070, V-A:GLU:543:CG:4907, V-B:GLU:543:CD:9880, V-A:TYR:539:C:4867, V-A:GLU:543:CB:4906, V-A:PRO:540:N:4884, V-A:PRO:540:CB:4885, V-A:PRO:540:CA:4883, V-A:PRO:540:CD:4887, V-A:TYR:539:CE1:4875"]

$$$$
ZINC199188022
     RDKit          3D

109112  0  0  0  0  0  0  0  0999 V2000
  128.7210  122.1160   59.7540 C   0  0  0  0  0  0  0  0  0  0  0  0
  129.6060  122.1560   61.0180 C   0  0  0  0  0  0  0  0  0  0  0  0
  130.7380  121.1080   60.9710 C   0  0  0  0  0  0  0  0  0  0  0  0
  128.7450  122.0440   62.2990 C   0  0  0  0  0  0  0  0  0  0  0  0
  128.1510  123.3870   62.8040 C   0  0  1  0  0  0  0  0  0  0  0  0
  129.0950  124.1280   63.6480 N   0  0  0  0  0  0  0  0  0  0  0  0
  130.0500  123.6470   64.4670 C   0  0  0  0  0  0  0  0  0  0  0  0
  130.2220  122.4550   64.7230 O   0  0  0  0  0  0  0  0  0  0  0  0
  131.0000  124.7120   65.0450 C   0  0  1  0  0  0  0  0  0  0  0  0
  131.5890  125.6700   63.9760 C   0  0  0  0  0  0  0  0  0  0  0  0
  132.3160  124.9700   62.8420 C   0  0  0  0  0  0  0  0  0  0  0  0
  131.7910  125.0010   61.5310 C   0  0  0  0  0  0  0  0  0  0  0  0
  132.5100  124.4460   60.4810 C   0  0  0  0  0  0  0  0  0  0  0  0
  133.7600  123.8830   60.7090 C   0  0  0  0  0  0  0  0  0  0  0  0
  134.3060  123.8800   61.9870 C   0  0  0  0  0  0  0  0  0  0  0  0
  133.6030  124.4300   63.0500 C   0  0  0  0  0  0  0  0  0  0  0  0
  130.3660  125.4470   66.1490 N   0  0  0  0  0  0  0  0  0  0  0  0
  129.3460  126.3230   66.0610 C   0  0  0  0  0  0  0  0  0  0  0  0
  128.8600  126.7230   65.0000 O   0  0  0  0  0  0  0  0  0  0  0  0
  128.7910  126.8340   67.4070 C   0  0  2  0  0  0  0  0  0  0  0  0
  127.6630  127.7340   67.1050 N   0  0  0  0  0  0  0  0  0  0  0  0
  129.8820  127.5120   68.2650 C   0  0  0  0  0  0  0  0  0  0  0  0
  129.5370  127.6010   69.7430 C   0  0  0  0  0  0  0  0  0  0  0  0
  128.3360  127.0440   70.2320 C   0  0  0  0  0  0  0  0  0  0  0  0
  128.0800  127.0340   71.5960 C   0  0  0  0  0  0  0  0  0  0  0  0
  129.0150  127.5420   72.4890 C   0  0  0  0  0  0  0  0  0  0  0  0
  130.2210  128.0550   72.0260 C   0  0  0  0  0  0  0  0  0  0  0  0
  130.4950  128.0770   70.6640 C   0  0  0  0  0  0  0  0  0  0  0  0
  127.5830  124.2400   61.6520 C   0  0  0  0  0  0  0  0  0  0  0  0
  126.4430  124.0480   61.2270 O   0  0  0  0  0  0  0  0  0  0  0  0
  128.4260  125.1590   61.1510 N   0  0  0  0  0  0  0  0  0  0  0  0
  128.1690  126.0600   60.0210 C   0  0  2  0  0  0  0  0  0  0  0  0
  129.4810  126.7550   59.5390 C   0  0  0  0  0  0  0  0  0  0  0  0
  130.2240  127.5000   60.5760 N   0  0  0  0  0  0  0  0  0  0  0  0
  131.1140  128.4800   60.3810 C   0  0  0  0  0  0  0  0  0  0  0  0
  131.5410  128.8600   59.1790 N   0  0  0  0  0  0  0  0  0  0  0  0
  131.6000  129.1050   61.4420 N   0  0  0  0  0  0  0  0  0  0  0  0
  126.9920  127.0320   60.3400 C   0  0  0  0  0  0  0  0  0  0  0  0
  126.1480  127.2120   59.4600 O   0  0  0  0  0  0  0  0  0  0  0  0
  126.9340  127.6470   61.5550 N   0  0  0  0  0  0  0  0  0  0  0  0
  128.0010  127.5940   62.5710 C   0  0  0  0  0  0  0  0  0  0  0  0
  128.7260  128.9600   62.5470 C   0  0  0  0  0  0  0  0  0  0  0  0
  127.7500  130.1470   62.7220 C   0  0  0  0  0  0  0  0  0  0  0  0
  128.5200  131.4890   62.5800 N   0  0  2  0  0  0  0  0  0  0  0  0
  127.7630  132.7010   63.1660 C   0  0  0  0  0  0  0  0  0  0  0  0
  128.3100  133.8890   62.3880 C   0  0  0  0  0  0  0  0  0  0  0  0
  128.4530  133.3300   60.9810 C   0  0  0  0  0  0  0  0  0  0  0  0
  129.0420  131.9170   61.1720 C   0  0  1  0  0  0  0  0  0  0  0  0
  130.5900  131.7560   61.1070 C   0  0  0  0  0  0  0  0  0  0  0  0
  131.1930  131.8690   62.1970 O   0  0  0  0  0  0  0  0  0  0  0  0
  131.1740  131.5520   60.0160 O   0  0  0  0  0  0  0  0  0  0  0  0
  126.5070  130.0340   61.7930 C   0  0  0  0  0  0  0  0  0  0  0  0
  125.8690  128.6280   61.8470 C   0  0  0  0  0  0  0  0  0  0  0  0
  127.6624  122.0682   60.0490 H   0  0  0  0  0  0  0  0  0  0  0  0
  128.8944  123.0229   59.1561 H   0  0  0  0  0  0  0  0  0  0  0  0
  128.9755  121.2284   59.1561 H   0  0  0  0  0  0  0  0  0  0  0  0
  130.1054  123.1357   61.0452 H   0  0  0  0  0  0  0  0  0  0  0  0
  131.0301  120.8376   61.9964 H   0  0  0  0  0  0  0  0  0  0  0  0
  130.3852  120.2107   60.4415 H   0  0  0  0  0  0  0  0  0  0  0  0
  131.6055  121.5288   60.4415 H   0  0  0  0  0  0  0  0  0  0  0  0
  127.9110  121.3574   62.0918 H   0  0  0  0  0  0  0  0  0  0  0  0
  129.4163  121.6844   63.0928 H   0  0  0  0  0  0  0  0  0  0  0  0
  127.2967  123.1357   63.4498 H   0  0  0  0  0  0  0  0  0  0  0  0
  129.0560  125.1310   63.5250 H   0  0  0  0  0  0  0  0  0  0  0  0
  131.8629  124.1626   65.4494 H   0  0  0  0  0  0  0  0  0  0  0  0
  130.7632  126.2558   63.5460 H   0  0  0  0  0  0  0  0  0  0  0  0
  132.3345  126.2948   64.4897 H   0  0  0  0  0  0  0  0  0  0  0  0
  130.8118  125.4652   61.3419 H   0  0  0  0  0  0  0  0  0  0  0  0
  132.0888  124.4519   59.4649 H   0  0  0  0  0  0  0  0  0  0  0  0
  134.3201  123.4375   59.8736 H   0  0  0  0  0  0  0  0  0  0  0  0
  135.2997  123.4398   62.1569 H   0  0  0  0  0  0  0  0  0  0  0  0
  134.0494  124.4449   64.0552 H   0  0  0  0  0  0  0  0  0  0  0  0
  130.7000  125.1960   67.0680 H   0  0  0  0  0  0  0  0  0  0  0  0
  128.4379  125.9911   68.0193 H   0  0  0  0  0  0  0  0  0  0  0  0
  127.6510  127.9530   66.1200 H   0  0  0  0  0  0  0  0  0  0  0  0
  126.7890  127.2600   67.2840 H   0  0  0  0  0  0  0  0  0  0  0  0
  130.8128  126.9351   68.1608 H   0  0  0  0  0  0  0  0  0  0  0  0
  129.9813  128.5441   67.8977 H   0  0  0  0  0  0  0  0  0  0  0  0
  127.6026  126.6176   69.5318 H   0  0  0  0  0  0  0  0  0  0  0  0
  127.1320  126.6217   71.9719 H   0  0  0  0  0  0  0  0  0  0  0  0
  128.7999  127.5383   73.5678 H   0  0  0  0  0  0  0  0  0  0  0  0
  130.9611  128.4449   72.7403 H   0  0  0  0  0  0  0  0  0  0  0  0
  131.4588  128.4655   70.3033 H   0  0  0  0  0  0  0  0  0  0  0  0
  129.3440  125.2410   61.5640 H   0  0  0  0  0  0  0  0  0  0  0  0
  127.8304  125.4696   59.1568 H   0  0  0  0  0  0  0  0  0  0  0  0
  130.1478  125.9782   59.1365 H   0  0  0  0  0  0  0  0  0  0  0  0
  129.1707  127.5025   58.7941 H   0  0  0  0  0  0  0  0  0  0  0  0
  130.2650  127.0540   61.4820 H   0  0  0  0  0  0  0  0  0  0  0  0
  131.9510  129.7730   59.0540 H   0  0  0  0  0  0  0  0  0  0  0  0
  131.4560  128.2280   58.3950 H   0  0  0  0  0  0  0  0  0  0  0  0
  131.5590  128.6660   62.3510 H   0  0  0  0  0  0  0  0  0  0  0  0
  132.0130  130.0220   61.3400 H   0  0  0  0  0  0  0  0  0  0  0  0
  127.5656  127.4162   63.5654 H   0  0  0  0  0  0  0  0  0  0  0  0
  128.7040  126.7758   62.3557 H   0  0  0  0  0  0  0  0  0  0  0  0
  129.4620  128.9840   63.3642 H   0  0  0  0  0  0  0  0  0  0  0  0
  129.2111  129.0657   61.5654 H   0  0  0  0  0  0  0  0  0  0  0  0
  127.3339  130.1170   63.7398 H   0  0  0  0  0  0  0  0  0  0  0  0
  129.3540  131.4010   63.1450 H   0  0  0  0  0  0  0  0  0  0  0  0
  126.6790  132.5974   63.0102 H   0  0  0  0  0  0  0  0  0  0  0  0
  127.9059  132.8044   64.2518 H   0  0  0  0  0  0  0  0  0  0  0  0
  127.6069  134.7347   62.4092 H   0  0  0  0  0  0  0  0  0  0  0  0
  129.2511  134.2837   62.7986 H   0  0  0  0  0  0  0  0  0  0  0  0
  127.4729  133.2767   60.4845 H   0  0  0  0  0  0  0  0  0  0  0  0
  129.0923  133.9625   60.3476 H   0  0  0  0  0  0  0  0  0  0  0  0
  128.7216  131.2958   60.3226 H   0  0  0  0  0  0  0  0  0  0  0  0
  125.7588  130.7757   62.1093 H   0  0  0  0  0  0  0  0  0  0  0  0
  126.8375  130.2173   60.7600 H   0  0  0  0  0  0  0  0  0  0  0  0
  125.4517  128.4429   62.8478 H   0  0  0  0  0  0  0  0  0  0  0  0
  125.0527  128.5440   61.1145 H   0  0  0  0  0  0  0  0  0  0  0  0
  1  2  1  0
  2  3  1  0
  2  4  1  0
  4  5  1  0
  5  6  1  0
  6  7  1  0
  7  8  2  0
  7  9  1  0
  9 10  1  0
 10 11  1  0
 11 12  2  0
 12 13  1  0
 13 14  2  0
 14 15  1  0
 15 16  2  0
  9 17  1  0
 17 18  1  0
 18 19  2  0
 18 20  1  0
 20 21  1  0
 20 22  1  0
 22 23  1  0
 23 24  2  0
 24 25  1  0
 25 26  2  0
 26 27  1  0
 27 28  2  0
  5 29  1  0
 29 30  2  0
 29 31  1  0
 31 32  1  0
 32 33  1  0
 33 34  1  0
 34 35  1  0
 35 36  1  0
 35 37  2  0
 32 38  1  0
 38 39  2  0
 38 40  1  0
 40 41  1  0
 41 42  1  0
 42 43  1  0
 43 44  1  0
 44 45  1  0
 45 46  1  0
 46 47  1  0
 47 48  1  0
 48 49  1  0
 49 50  2  0
 49 51  1  0
 43 52  1  0
 52 53  1  0
 16 11  1  0
 28 23  1  0
 53 40  1  0
 48 44  1  0
  1 54  1  0
  1 55  1  0
  1 56  1  0
  2 57  1  0
  3 58  1  0
  3 59  1  0
  3 60  1  0
  4 61  1  0
  4 62  1  0
  5 63  1  1
  6 64  1  0
  9 65  1  1
 10 66  1  0
 10 67  1  0
 12 68  1  0
 13 69  1  0
 14 70  1  0
 15 71  1  0
 16 72  1  0
 17 73  1  0
 20 74  1  1
 21 75  1  0
 21 76  1  0
 22 77  1  0
 22 78  1  0
 24 79  1  0
 25 80  1  0
 26 81  1  0
 27 82  1  0
 28 83  1  0
 31 84  1  0
 32 85  1  6
 33 86  1  0
 33 87  1  0
 34 88  1  0
 36 89  1  0
 36 90  1  0
 37 91  1  0
 37 92  1  0
 41 93  1  0
 41 94  1  0
 42 95  1  0
 42 96  1  0
 43 97  1  0
 44 98  1  1
 45 99  1  0
 45100  1  0
 46101  1  0
 46102  1  0
 47103  1  0
 47104  1  0
 48105  1  6
 52106  1  0
 52107  1  0
 53108  1  0
 53109  1  0
M  CHG  3  37   1  44   1  51  -1
M  END
>  <Binding energies>  (1) 
[-9.58]

>  <Ligand effiencies>  (1) 
[-0.1496875]

>  <Interactions>  (1) 
["V-A:ILE:369:CG2:3237, V-B:PRO:540:CA:9855, V-B:GLU:543:C:9874, H-A:GLU:543:OE2:4910, V-A:GLU:543:C:4902, H-A:ALA:541:N:4891, V-B:GLU:543:CB:9878, V-B:ALA:541:CB:9864, V-B:ASP:366:CG:8184, H-A:TYR:531:OH:4795, V-B:TYR:539:CE2:9848, V-B:GLU:543:CG:9879, V-A:GLY:544:C:4912, V-B:TYR:539:C:9839, V-B:LEU:475:CD2:9230, V-A:ASP:366:CG:3213, H-B:GLU:543:OE1:9881, V-A:ALA:541:CB:4892, V-A:GLU:543:CD:4908, V-B:HIS:456:CE1:9041, V-B:PRO:540:N:9856, V-A:ILE:369:CD1:3239, V-A:HIS:456:CE1:4070, V-B:TYR:539:CD2:9846, V-B:GLU:543:CD:9880, V-A:TYR:539:C:4867, V-A:ASP:366:CB:3212, V-A:LEU:475:CD2:4259, V-A:ARG:545:CZ:4926, H-A:GLU:543:OE1:4909, V-A:GLU:543:CB:4906, H-B:GLU:543:OE2:9882, V-A:PRO:540:CA:4883, H-A:ASP:366:OD2:3215, V-B:ALA:541:CA:9862, H-A:TYR:484:OH:4348"]

$$$$
ZINC200187864
     RDKit          3D

 43 46  0  0  0  0  0  0  0  0999 V2000
  126.8550  130.1300   66.9100 H   0  0  0  0  0  0  0  0  0  0  0  0
  127.2720  129.2830   67.2650 N   0  0  0  0  0  0  0  0  0  0  0  0
  127.9550  128.6620   66.3930 C   0  0  0  0  0  0  0  0  0  0  0  0
  128.1520  129.1010   64.9920 C   0  0  0  0  0  0  0  0  0  0  0  0
  128.0750  130.4340   64.6960 C   0  0  0  0  0  0  0  0  0  0  0  0
  128.3310  131.1230   63.4290 C   0  0  0  0  0  0  0  0  0  0  0  0
  129.4880  131.7730   63.1640 C   0  0  0  0  0  0  0  0  0  0  0  0
  129.8010  132.4460   62.0270 O   0  0  0  0  0  0  0  0  0  0  0  0
  128.6570  132.8610   61.2690 C   0  0  1  0  0  0  0  0  0  0  0  0
  129.1030  133.3350   59.8900 C   0  0  0  0  0  0  0  0  0  0  0  0
  128.5500  132.9360   58.7300 C   0  0  0  0  0  0  0  0  0  0  0  0
  127.4070  131.9330   58.6080 C   0  0  0  0  0  0  0  0  0  0  0  0
  127.0590  131.3490   59.9750 C   0  0  0  0  0  0  0  0  0  0  0  0
  127.6140  131.7290   61.1500 C   0  0  0  0  0  0  0  0  0  0  0  0
  127.2550  131.0520   62.4140 C   0  0  0  0  0  0  0  0  0  0  0  0
  126.1810  130.4730   62.5900 O   0  0  0  0  0  0  0  0  0  0  0  0
  128.4780  128.0890   63.9530 C   0  0  0  0  0  0  0  0  0  0  0  0
  128.1180  128.2760   62.7910 O   0  0  0  0  0  0  0  0  0  0  0  0
  129.1440  126.9450   64.4210 N   0  0  0  0  0  0  0  0  0  0  0  0
  129.1540  126.6840   65.6740 C   0  0  0  0  0  0  0  0  0  0  0  0
  129.8990  125.2440   66.3850 S   0  0  0  0  0  0  0  0  0  0  0  0
  129.5010  125.6870   67.9430 N   0  0  0  0  0  0  0  0  0  0  0  0
  128.8810  126.7950   67.9360 C   0  0  0  0  0  0  0  0  0  0  0  0
  128.3620  127.5230   69.5280 S   0  0  0  0  0  0  0  0  0  0  0  0
  129.8480  127.3900   70.5860 C   0  0  0  0  0  0  0  0  0  0  0  0
  129.6450  127.9380   72.0100 C   0  0  0  0  0  0  0  0  0  0  0  0
  131.0680  128.0390   69.9130 C   0  0  0  0  0  0  0  0  0  0  0  0
  128.6230  127.4400   66.7140 N   0  0  0  0  0  0  0  0  0  0  0  0
  127.7772  131.0840   65.5319 H   0  0  0  0  0  0  0  0  0  0  0  0
  130.2551  131.7542   63.9521 H   0  0  0  0  0  0  0  0  0  0  0  0
  128.1716  133.6939   61.7987 H   0  0  0  0  0  0  0  0  0  0  0  0
  129.9347  134.0531   59.8400 H   0  0  0  0  0  0  0  0  0  0  0  0
  128.9521  133.3650   57.8003 H   0  0  0  0  0  0  0  0  0  0  0  0
  126.5226  132.4406   58.1956 H   0  0  0  0  0  0  0  0  0  0  0  0
  127.7207  131.1159   57.9418 H   0  0  0  0  0  0  0  0  0  0  0  0
  126.2968  130.5565   60.0079 H   0  0  0  0  0  0  0  0  0  0  0  0
  130.0387  126.3128   70.7014 H   0  0  0  0  0  0  0  0  0  0  0  0
  129.9299  127.1688   72.7430 H   0  0  0  0  0  0  0  0  0  0  0  0
  130.2722  128.8304   72.1523 H   0  0  0  0  0  0  0  0  0  0  0  0
  128.5878  128.2064   72.1523 H   0  0  0  0  0  0  0  0  0  0  0  0
  131.7599  128.4071   70.6849 H   0  0  0  0  0  0  0  0  0  0  0  0
  131.5804  127.2943   69.2863 H   0  0  0  0  0  0  0  0  0  0  0  0
  130.7368  128.8801   69.2863 H   0  0  0  0  0  0  0  0  0  0  0  0
  1  2  1  0
  2  3  2  0
  3  4  1  0
  4  5  2  0
  5  6  1  0
  6  7  2  0
  7  8  1  0
  8  9  1  0
  9 10  1  0
 10 11  2  0
 11 12  1  0
 12 13  1  0
 13 14  2  0
 14 15  1  0
 15 16  2  0
  4 17  1  0
 17 18  2  0
 17 19  1  0
 19 20  2  0
 20 21  1  0
 21 22  1  0
 22 23  2  0
 23 24  1  0
 24 25  1  0
 25 26  1  0
 25 27  1  0
 23 28  1  0
 28  3  1  0
 15  6  1  0
 28 20  1  0
 14  9  1  0
  5 29  1  0
  7 30  1  0
  9 31  1  1
 10 32  1  0
 11 33  1  0
 12 34  1  0
 12 35  1  0
 13 36  1  0
 25 37  1  0
 26 38  1  0
 26 39  1  0
 26 40  1  0
 27 41  1  0
 27 42  1  0
 27 43  1  0
M  END
>  <Binding energies>  (1) 
[-7.57]

>  <Ligand effiencies>  (1) 
[-0.27035714285714285]

>  <Interactions>  (1) 
["V-A:GLU:543:C:4902, H-A:ALA:541:N:4891, V-B:GLU:543:CB:9878, V-A:PRO:540:C:4881, V-B:GLU:543:CG:9879, V-A:GLY:544:C:4912, V-A:TYR:539:CD1:4873, V-A:ALA:541:CB:4892, V-A:GLU:543:CD:4908, H-B:TYR:484:OH:9319, V-A:HIS:456:CE1:4070, H-B:HIS:456:NE2:9042, V-A:GLU:543:CG:4907, V-B:GLU:543:CD:9880, V-A:TYR:539:C:4867, V-A:GLU:543:CB:4906, V-A:PRO:540:N:4884, V-A:PRO:540:CA:4883, V-A:TYR:539:CE1:4875"]

$$$$
ZINC2003549
     RDKit          3D

 34 39  0  0  0  0  0  0  0  0999 V2000
  126.3680  122.8410   62.1040 O   0  0  0  0  0  0  0  0  0  0  0  0
  127.4530  123.3650   61.8360 C   0  0  0  0  0  0  0  0  0  0  0  0
  127.7270  123.9990   60.5130 C   0  0  0  0  0  0  0  0  0  0  0  0
  126.7150  123.9960   59.5480 C   0  0  0  0  0  0  0  0  0  0  0  0
  126.8850  124.5640   58.2940 C   0  0  0  0  0  0  0  0  0  0  0  0
  125.4240  124.4940   57.0660 Br  0  0  0  0  0  0  0  0  0  0  0  0
  128.1180  125.1720   57.9560 C   0  0  0  0  0  0  0  0  0  0  0  0
  128.3520  125.7680   56.6910 C   0  0  0  0  0  0  0  0  0  0  0  0
  129.5770  126.3550   56.4010 C   0  0  0  0  0  0  0  0  0  0  0  0
  130.5940  126.3690   57.3440 C   0  0  0  0  0  0  0  0  0  0  0  0
  130.4270  125.7960   58.6120 C   0  0  0  0  0  0  0  0  0  0  0  0
  131.5450  125.8340   59.5930 C   0  0  0  0  0  0  0  0  0  0  0  0
  132.6300  126.3570   59.3260 O   0  0  0  0  0  0  0  0  0  0  0  0
  131.2710  125.2000   60.9160 C   0  0  0  0  0  0  0  0  0  0  0  0
  132.2820  125.2020   61.8820 C   0  0  0  0  0  0  0  0  0  0  0  0
  132.1120  124.6350   63.1360 C   0  0  0  0  0  0  0  0  0  0  0  0
  133.5730  124.7060   64.3630 Br  0  0  0  0  0  0  0  0  0  0  0  0
  130.8790  124.0260   63.4730 C   0  0  0  0  0  0  0  0  0  0  0  0
  130.6450  123.4300   64.7380 C   0  0  0  0  0  0  0  0  0  0  0  0
  129.4210  122.8430   65.0280 C   0  0  0  0  0  0  0  0  0  0  0  0
  128.4030  122.8290   64.0850 C   0  0  0  0  0  0  0  0  0  0  0  0
  128.5710  123.4010   62.8180 C   0  0  0  0  0  0  0  0  0  0  0  0
  129.8310  124.0120   62.5030 C   0  0  0  0  0  0  0  0  0  0  0  0
  130.0210  124.6070   61.1980 C   0  0  0  0  0  0  0  0  0  0  0  0
  128.9770  124.5920   60.2320 C   0  0  0  0  0  0  0  0  0  0  0  0
  129.1670  125.1870   58.9270 C   0  0  0  0  0  0  0  0  0  0  0  0
  125.7504  123.5268   59.7919 H   0  0  0  0  0  0  0  0  0  0  0  0
  127.5558  125.7655   55.9320 H   0  0  0  0  0  0  0  0  0  0  0  0
  129.7421  126.8129   55.4145 H   0  0  0  0  0  0  0  0  0  0  0  0
  131.5546  126.8412   57.0906 H   0  0  0  0  0  0  0  0  0  0  0  0
  133.2471  125.6703   61.6384 H   0  0  0  0  0  0  0  0  0  0  0  0
  131.4412  123.4328   65.4970 H   0  0  0  0  0  0  0  0  0  0  0  0
  129.2565  122.3847   66.0144 H   0  0  0  0  0  0  0  0  0  0  0  0
  127.4420  122.3577   64.3387 H   0  0  0  0  0  0  0  0  0  0  0  0
  1  2  2  0
  2  3  1  0
  3  4  2  0
  4  5  1  0
  5  6  1  0
  5  7  2  0
  7  8  1  0
  8  9  2  0
  9 10  1  0
 10 11  2  0
 11 12  1  0
 12 13  2  0
 12 14  1  0
 14 15  2  0
 15 16  1  0
 16 17  1  0
 16 18  2  0
 18 19  1  0
 19 20  2  0
 20 21  1  0
 21 22  2  0
 22 23  1  0
 23 24  2  0
 24 25  1  0
 25 26  2  0
 22  2  1  0
 25  3  1  0
 26  7  1  0
 26 11  1  0
 24 14  1  0
 23 18  1  0
  4 27  1  0
  8 28  1  0
  9 29  1  0
 10 30  1  0
 15 31  1  0
 19 32  1  0
 20 33  1  0
 21 34  1  0
M  END
>  <Binding energies>  (1) 
[-7.0]

>  <Ligand effiencies>  (1) 
[-0.2692307692307692]

>  <Interactions>  (1) 
["V-B:PRO:540:CA:9855, V-B:LEU:363:CD1:8160, V-A:GLY:454:CA:4049, H-B:ALA:541:N:9863, V-B:GLU:543:CD:9880, V-B:ALA:541:CB:9864, V-A:ARG:545:CZ:4926, V-A:TYR:484:CZ:4347, V-A:TYR:484:CE2:4346, V-B:PRO:540:CB:9857, V-B:TYR:531:CE2:9765, V-B:MET:535:CE:9807, V-B:GLU:543:CG:9879, V-A:ASP:366:CG:3213"]

$$$$
ZINC20058063
     RDKit          3D

 31 32  0  0  0  0  0  0  0  0999 V2000
  131.5600  127.7220   68.8490 C   0  0  0  0  0  0  0  0  0  0  0  0
  130.1600  127.4060   69.3350 C   0  0  0  0  0  0  0  0  0  0  0  0
  130.0720  127.0550   70.6050 N   0  0  0  0  0  0  0  0  0  0  0  0
  128.8390  126.7970   70.9570 C   0  0  0  0  0  0  0  0  0  0  0  0
  128.3990  126.4050   72.2020 N   0  0  0  0  0  0  0  0  0  0  0  0
  127.9640  125.1150   72.5210 N   0  0  0  0  0  0  0  0  0  0  0  0
  128.8600  124.2830   72.8680 C   0  0  0  0  0  0  0  0  0  0  0  0
  128.6030  122.8640   73.2460 C   0  0  0  0  0  0  0  0  0  0  0  0
  128.2300  121.9530   72.2370 C   0  0  0  0  0  0  0  0  0  0  0  0
  127.9680  120.6010   72.4980 C   0  0  0  0  0  0  0  0  0  0  0  0
  127.5770  119.6750   71.4070 N   0  0  0  0  0  0  0  0  0  0  0  0
  127.5980  120.0880   70.2500 O   0  0  0  0  0  0  0  0  0  0  0  0
  127.2450  118.5290   71.6960 O   0  0  0  0  0  0  0  0  0  0  0  0
  128.0820  120.1460   73.8130 C   0  0  0  0  0  0  0  0  0  0  0  0
  128.4480  121.0130   74.8360 C   0  0  0  0  0  0  0  0  0  0  0  0
  128.7100  122.3630   74.5750 C   0  0  0  0  0  0  0  0  0  0  0  0
  129.0390  123.0790   75.5850 O   0  0  0  0  0  0  0  0  0  0  0  0
  127.6760  126.9780   69.6980 S   0  0  0  0  0  0  0  0  0  0  0  0
  128.9600  127.4390   68.6080 C   0  0  0  0  0  0  0  0  0  0  0  0
  128.6810  127.7890   67.1630 C   0  0  0  0  0  0  0  0  0  0  0  0
  132.2232  127.8717   69.7137 H   0  0  0  0  0  0  0  0  0  0  0  0
  131.9343  126.8857   68.2402 H   0  0  0  0  0  0  0  0  0  0  0  0
  131.5388  128.6380   68.2402 H   0  0  0  0  0  0  0  0  0  0  0  0
  128.3580  127.0490   72.9780 H   0  0  0  0  0  0  0  0  0  0  0  0
  129.9016  124.6359   72.8911 H   0  0  0  0  0  0  0  0  0  0  0  0
  128.1410  122.3179   71.2031 H   0  0  0  0  0  0  0  0  0  0  0  0
  127.8799  119.0893   74.0421 H   0  0  0  0  0  0  0  0  0  0  0  0
  128.5329  120.6330   75.8648 H   0  0  0  0  0  0  0  0  0  0  0  0
  127.9959  128.6485   67.1196 H   0  0  0  0  0  0  0  0  0  0  0  0
  129.6244  128.0464   66.6593 H   0  0  0  0  0  0  0  0  0  0  0  0
  128.2198  126.9267   66.6593 H   0  0  0  0  0  0  0  0  0  0  0  0
  1  2  1  0
  2  3  1  0
  3  4  2  0
  4  5  1  0
  5  6  1  0
  6  7  2  0
  7  8  1  0
  8  9  2  0
  9 10  1  0
 10 11  1  0
 11 12  2  0
 11 13  1  0
 10 14  2  0
 14 15  1  0
 15 16  2  0
 16 17  1  0
  4 18  1  0
 18 19  1  0
 19 20  1  0
 19  2  2  0
 16  8  1  0
  1 21  1  0
  1 22  1  0
  1 23  1  0
  5 24  1  0
  7 25  1  0
  9 26  1  0
 14 27  1  0
 15 28  1  0
 20 29  1  0
 20 30  1  0
 20 31  1  0
M  CHG  3  11   1  13  -1  17  -1
M  END
>  <Binding energies>  (1) 
[-6.75]

>  <Ligand effiencies>  (1) 
[-0.32142857142857145]

>  <Interactions>  (1) 
["V-A:TYR:484:CD2:4344, V-A:HIS:456:CE1:4070, V-A:ARG:545:CG:4922, V-B:GLU:543:C:9874, V-A:GLU:543:C:4902, V-B:GLU:543:CB:9878, H-B:LYS:547:NZ:9923, V-B:GLY:544:CA:9886, V-B:LYS:547:CE:9922, H-A:TYR:484:N:4340, V-A:TYR:484:CA:4339, V-A:GLU:543:CD:4908, V-B:VAL:542:CG1:9871, H-A:SER:483:OG:4334, V-B:HIS:456:CE1:9041, V-A:HIS:456:CD2:4068, V-A:TYR:484:CB:4341, V-A:GLU:543:CB:4906"]

$$$$
ZINC2008300654
     RDKit          3D

 27 27  0  0  0  0  0  0  0  0999 V2000
  125.6740  131.0440   58.0380 C   0  0  0  0  0  0  0  0  0  0  0  0
  127.1740  130.7970   57.7750 C   0  0  1  0  0  0  0  0  0  0  0  0
  127.4120  129.5420   56.9050 C   0  0  0  0  0  0  0  0  0  0  0  0
  129.0510  128.8730   57.1380 Cl  0  0  0  0  0  0  0  0  0  0  0  0
  127.8230  132.0670   57.1760 C   0  0  0  0  0  0  0  0  0  0  0  0
  129.1080  132.8400   58.3340 S   0  0  0  0  0  0  0  0  0  0  0  0
  130.2170  133.3510   57.5220 O   0  0  0  0  0  0  0  0  0  0  0  0
  128.4250  133.7200   59.2890 O   0  0  0  0  0  0  0  0  0  0  0  0
  129.7340  131.4460   59.2380 N   0  0  0  0  0  0  0  0  0  0  0  0
  130.7770  131.5780   60.1640 C   0  0  0  0  0  0  0  0  0  0  0  0
  130.5360  131.9190   61.5080 C   0  0  0  0  0  0  0  0  0  0  0  0
  128.5900  132.1730   62.2450 I   0  0  0  0  0  0  0  0  0  0  0  0
  131.5470  132.0650   62.4040 N   0  0  0  0  0  0  0  0  0  0  0  0
  132.8030  131.8480   61.9430 C   0  0  0  0  0  0  0  0  0  0  0  0
  133.1380  131.4850   60.6820 N   0  0  0  0  0  0  0  0  0  0  0  0
  132.1150  131.3430   59.7980 C   0  0  0  0  0  0  0  0  0  0  0  0
  132.6270  130.7140   57.8630 I   0  0  0  0  0  0  0  0  0  0  0  0
  125.4920  131.0740   59.1224 H   0  0  0  0  0  0  0  0  0  0  0  0
  125.3762  132.0033   57.5896 H   0  0  0  0  0  0  0  0  0  0  0  0
  125.0843  130.2309   57.5896 H   0  0  0  0  0  0  0  0  0  0  0  0
  127.6658  130.5885   58.7366 H   0  0  0  0  0  0  0  0  0  0  0  0
  126.6724  128.7747   57.1774 H   0  0  0  0  0  0  0  0  0  0  0  0
  127.3093  129.8339   55.8494 H   0  0  0  0  0  0  0  0  0  0  0  0
  128.3166  131.7985   56.2303 H   0  0  0  0  0  0  0  0  0  0  0  0
  127.0253  132.8081   57.0196 H   0  0  0  0  0  0  0  0  0  0  0  0
  129.3180  130.5390   59.0910 H   0  0  0  0  0  0  0  0  0  0  0  0
  133.6270  131.9789   62.6599 H   0  0  0  0  0  0  0  0  0  0  0  0
  1  2  1  0
  2  3  1  0
  3  4  1  0
  2  5  1  0
  5  6  1  0
  6  7  2  0
  6  8  2  0
  6  9  1  0
  9 10  1  0
 10 11  2  0
 11 12  1  0
 11 13  1  0
 13 14  2  0
 14 15  1  0
 15 16  2  0
 16 17  1  0
 16 10  1  0
  1 18  1  0
  1 19  1  0
  1 20  1  0
  2 21  1  1
  3 22  1  0
  3 23  1  0
  5 24  1  0
  5 25  1  0
  9 26  1  0
 14 27  1  0
M  END
>  <Binding energies>  (1) 
[-6.23]

>  <Ligand effiencies>  (1) 
[-0.34611111111111115]

>  <Interactions>  (1) 
["V-A:PRO:540:N:4884, V-A:TYR:539:CD1:4873, H-A:TYR:539:N:4870, V-A:PRO:540:CB:4885, V-A:PRO:540:CA:4883, V-A:TYR:539:CZ:4877, V-A:TYR:531:CE2:4793, H-A:ALA:541:N:4891, V-A:LEU:363:CD1:3189, V-A:MET:535:CE:4835, V-A:TYR:539:C:4867, V-A:ASP:366:CB:3212, V-A:TYR:539:CE1:4875, V-A:ASN:362:CB:3176"]

$$$$
ZINC2008302046-again1
     RDKit          3D

 26 26  0  0  0  0  0  0  0  0999 V2000
  127.5650  127.5210   73.5580 O   0  0  0  0  0  0  0  0  0  0  0  0
  128.8740  128.0750   73.9250 S   0  0  0  0  0  0  0  0  0  0  0  0
  129.8750  127.1670   74.4950 O   0  0  0  0  0  0  0  0  0  0  0  0
  129.6270  128.6630   72.2910 C   0  0  0  0  0  0  0  0  0  0  0  0
  129.0430  127.8640   71.1140 C   0  0  0  0  0  0  0  0  0  0  0  0
  129.5660  128.3470   69.7500 C   0  0  0  0  0  0  0  0  0  0  0  0
  128.7290  127.8230   68.5740 C   0  0  0  0  0  0  0  0  0  0  0  0
  129.5010  126.3880   67.8500 Cl  0  0  0  0  0  0  0  0  0  0  0  0
  128.7550  129.4130   74.7230 N   0  0  0  0  0  0  0  0  0  0  0  0
  127.6780  130.2730   74.8230 C   0  0  0  0  0  0  0  0  0  0  0  0
  127.9190  131.6170   74.4450 C   0  0  0  0  0  0  0  0  0  0  0  0
  129.8020  132.2740   73.7720 I   0  0  0  0  0  0  0  0  0  0  0  0
  126.9720  132.5890   74.4820 N   0  0  0  0  0  0  0  0  0  0  0  0
  125.7490  132.2210   74.9060 C   0  0  0  0  0  0  0  0  0  0  0  0
  125.3890  130.9800   75.2920 N   0  0  0  0  0  0  0  0  0  0  0  0
  126.3420  130.0130   75.2520 C   0  0  0  0  0  0  0  0  0  0  0  0
  125.5640  128.1700   75.8940 I   0  0  0  0  0  0  0  0  0  0  0  0
  129.4020  129.7307   72.1515 H   0  0  0  0  0  0  0  0  0  0  0  0
  130.7155  128.5074   72.3230 H   0  0  0  0  0  0  0  0  0  0  0  0
  129.3129  126.8050   71.2393 H   0  0  0  0  0  0  0  0  0  0  0  0
  127.9528  128.0100   71.1221 H   0  0  0  0  0  0  0  0  0  0  0  0
  129.5447  129.4467   69.7345 H   0  0  0  0  0  0  0  0  0  0  0  0
  130.5877  127.9577   69.6296 H   0  0  0  0  0  0  0  0  0  0  0  0
  127.7264  127.5511   68.9358 H   0  0  0  0  0  0  0  0  0  0  0  0
  128.6552  128.6112   67.8103 H   0  0  0  0  0  0  0  0  0  0  0  0
  124.9745  133.0014   74.9408 H   0  0  0  0  0  0  0  0  0  0  0  0
  1  2  2  0
  2  3  2  0
  2  4  1  0
  4  5  1  0
  5  6  1  0
  6  7  1  0
  7  8  1  0
  2  9  1  0
  9 10  1  0
 10 11  2  0
 11 12  1  0
 11 13  1  0
 13 14  2  0
 14 15  1  0
 15 16  2  0
 16 17  1  0
 16 10  1  0
  4 18  1  0
  4 19  1  0
  5 20  1  0
  5 21  1  0
  6 22  1  0
  6 23  1  0
  7 24  1  0
  7 25  1  0
 14 26  1  0
M  CHG  1   9  -1
M  END
>  <Binding energies>  (1) 
[-5.79]

>  <Ligand effiencies>  (1) 
[-0.34058823529411764]

>  <Interactions>  (1) 
["V-A:HIS:456:CE1:4070, V-B:HIS:456:CD2:9039, V-B:ASP:473:CB:9210, V-A:LYS:547:CE:4950, V-A:GLU:543:C:4902, V-B:GLU:543:CB:9878, H-B:LYS:547:NZ:9923, H-B:LYS:471:NZ:9192, V-B:ASP:473:CG:9211, V-B:LYS:547:CE:9922, V-B:HIS:456:CB:9036, V-B:HIS:456:CG:9037, V-B:LYS:547:CD:9921, H-A:LYS:547:NZ:4951, V-B:HIS:456:CE1:9041, V-A:GLU:543:CB:4906"]

$$$$
ZINC200851815-again1
     RDKit          3D

 44 48  0  0  0  0  0  0  0  0999 V2000
  132.7850  123.1450   60.4480 C   0  0  0  0  0  0  0  0  0  0  0  0
  132.4170  124.2610   59.4590 C   0  0  0  0  0  0  0  0  0  0  0  0
  133.2380  124.5940   58.3570 C   0  0  0  0  0  0  0  0  0  0  0  0
  134.3260  123.9790   58.0990 O   0  0  0  0  0  0  0  0  0  0  0  0
  132.8570  125.6300   57.4980 C   0  0  0  0  0  0  0  0  0  0  0  0
  131.6720  126.3270   57.7120 C   0  0  0  0  0  0  0  0  0  0  0  0
  130.8340  126.0230   58.7910 C   0  0  0  0  0  0  0  0  0  0  0  0
  131.2350  124.9930   59.6590 C   0  0  0  0  0  0  0  0  0  0  0  0
  130.4420  124.6510   60.7350 O   0  0  0  0  0  0  0  0  0  0  0  0
  129.0760  124.8150   60.6560 C   0  0  0  0  0  0  0  0  0  0  0  0
  128.5280  125.8320   59.8560 C   0  0  0  0  0  0  0  0  0  0  0  0
  127.1320  125.9440   59.8110 C   0  0  0  0  0  0  0  0  0  0  0  0
  126.3150  125.0750   60.5300 C   0  0  0  0  0  0  0  0  0  0  0  0
  126.8760  124.0620   61.3060 C   0  0  0  0  0  0  0  0  0  0  0  0
  126.0350  123.2180   61.9870 O   0  0  0  0  0  0  0  0  0  0  0  0
  128.2700  123.9180   61.3730 C   0  0  0  0  0  0  0  0  0  0  0  0
  128.9120  122.8250   62.2230 C   0  0  0  0  0  0  0  0  0  0  0  0
  129.4820  126.7180   59.0360 C   0  0  2  0  0  0  0  0  0  0  0  0
  128.8750  126.9760   57.7730 O   0  0  0  0  0  0  0  0  0  0  0  0
  128.6690  128.3020   57.5670 C   0  0  0  0  0  0  0  0  0  0  0  0
  128.1530  128.7340   56.5390 O   0  0  0  0  0  0  0  0  0  0  0  0
  129.1650  129.0290   58.7660 C   0  0  0  0  0  0  0  0  0  0  0  0
  129.1980  130.3990   59.0810 C   0  0  0  0  0  0  0  0  0  0  0  0
  128.6950  131.3250   58.1610 N   0  0  0  0  0  0  0  0  0  0  0  0
  127.6900  131.4370   57.4610 C   0  0  0  0  0  0  0  0  0  0  0  0
  126.3990  131.4340   56.5340 S   0  0  0  0  0  0  0  0  0  0  0  0
  129.7410  130.7750   60.3200 C   0  0  0  0  0  0  0  0  0  0  0  0
  130.2340  129.8190   61.2120 C   0  0  0  0  0  0  0  0  0  0  0  0
  130.1920  128.4660   60.8780 C   0  0  0  0  0  0  0  0  0  0  0  0
  129.6540  128.0800   59.6510 C   0  0  0  0  0  0  0  0  0  0  0  0
  132.6637  123.5128   61.4776 H   0  0  0  0  0  0  0  0  0  0  0  0
  132.1245  122.2802   60.2874 H   0  0  0  0  0  0  0  0  0  0  0  0
  133.8304  122.8427   60.2874 H   0  0  0  0  0  0  0  0  0  0  0  0
  133.4998  125.8960   56.6459 H   0  0  0  0  0  0  0  0  0  0  0  0
  131.3881  127.1330   57.0194 H   0  0  0  0  0  0  0  0  0  0  0  0
  126.6730  126.7326   59.1966 H   0  0  0  0  0  0  0  0  0  0  0  0
  125.2218  125.1886   60.4853 H   0  0  0  0  0  0  0  0  0  0  0  0
  125.6930  123.6070   62.7950 H   0  0  0  0  0  0  0  0  0  0  0  0
  128.7737  123.0604   63.2886 H   0  0  0  0  0  0  0  0  0  0  0  0
  128.4381  121.8585   61.9965 H   0  0  0  0  0  0  0  0  0  0  0  0
  129.9869  122.7683   61.9965 H   0  0  0  0  0  0  0  0  0  0  0  0
  129.7790  131.8399   60.5931 H   0  0  0  0  0  0  0  0  0  0  0  0
  130.6554  130.1340   62.1780 H   0  0  0  0  0  0  0  0  0  0  0  0
  130.5799  127.7098   61.5763 H   0  0  0  0  0  0  0  0  0  0  0  0
  1  2  1  0
  2  3  2  0
  3  4  1  0
  3  5  1  0
  5  6  2  0
  6  7  1  0
  7  8  2  0
  8  9  1  0
  9 10  1  0
 10 11  2  0
 11 12  1  0
 12 13  2  0
 13 14  1  0
 14 15  1  0
 14 16  2  0
 16 17  1  0
 11 18  1  0
 18 19  1  6
 19 20  1  0
 20 21  2  0
 20 22  1  0
 22 23  2  0
 23 24  1  0
 24 25  2  0
 25 26  2  0
 23 27  1  0
 27 28  2  0
 28 29  1  0
 29 30  2  0
  8  2  1  0
 16 10  1  0
 30 18  1  0
 18  7  1  0
 30 22  1  0
  1 31  1  0
  1 32  1  0
  1 33  1  0
  5 34  1  0
  6 35  1  0
 12 36  1  0
 13 37  1  0
 15 38  1  0
 17 39  1  0
 17 40  1  0
 17 41  1  0
 27 42  1  0
 28 43  1  0
 29 44  1  0
M  CHG  1   4  -1
M  END
>  <Binding energies>  (1) 
[-6.02]

>  <Ligand effiencies>  (1) 
[-0.19419354838709676]

>  <Interactions>  (1) 
["V-A:ILE:369:CG2:3237, V-A:ASP:366:CA:3210, V-B:TYR:539:CZ:9849, V-A:ASP:366:C:3208, H-A:ASN:370:N:3244, H-B:GLU:543:OE1:9881, V-A:TYR:539:CZ:4877, H-B:TYR:539:OH:9850, V-A:TYR:531:CZ:4794, H-B:ALA:541:N:9863, V-B:GLU:543:CD:9880, V-B:ALA:541:CB:9864, V-A:MET:535:CE:4835, V-B:TYR:539:CE2:9848, H-B:TYR:531:OH:9767, V-A:ASP:366:CB:3212, H-B:ALA:541:O:9861, V-A:TYR:539:CE1:4875"]

$$$$
ZINC20169222
     RDKit          3D

 63 67  0  0  0  0  0  0  0  0999 V2000
  129.8670  118.1580   61.6530 C   0  0  0  0  0  0  0  0  0  0  0  0
  130.9700  118.8480   60.8320 C   0  0  0  0  0  0  0  0  0  0  0  0
  130.8750  120.2680   60.8600 O   0  0  0  0  0  0  0  0  0  0  0  0
  129.7640  120.7880   61.5820 C   0  0  0  0  0  0  0  0  0  0  0  0
  129.2580  122.0610   60.8940 C   0  0  0  0  0  0  0  0  0  0  0  0
  127.8370  122.0980   60.9060 O   0  0  0  0  0  0  0  0  0  0  0  0
  127.1540  123.1920   61.3260 C   0  0  0  0  0  0  0  0  0  0  0  0
  126.3730  123.1620   62.2810 O   0  0  0  0  0  0  0  0  0  0  0  0
  127.4660  124.4220   60.5430 C   0  0  0  0  0  0  0  0  0  0  0  0
  127.2290  124.5140   59.2000 C   0  0  0  0  0  0  0  0  0  0  0  0
  126.7890  123.4160   58.2340 C   0  0  0  0  0  0  0  0  0  0  0  0
  127.3930  125.7260   58.5610 N   0  0  0  0  0  0  0  0  0  0  0  0
  127.6340  126.9200   59.2060 C   0  0  0  0  0  0  0  0  0  0  0  0
  127.9340  126.9290   60.5330 C   0  0  0  0  0  0  0  0  0  0  0  0
  128.1690  128.2000   61.2550 C   0  0  0  0  0  0  0  0  0  0  0  0
  128.2600  128.2500   62.4810 O   0  0  0  0  0  0  0  0  0  0  0  0
  128.1320  129.4950   60.4240 C   0  0  0  0  0  0  0  0  0  0  0  0
  128.5190  129.2700   58.9430 C   0  0  2  0  0  0  0  0  0  0  0  0
  128.5450  130.5640   58.1380 C   0  0  0  0  0  0  0  0  0  0  0  0
  129.3960  131.6700   58.2380 C   0  0  0  0  0  0  0  0  0  0  0  0
  129.1330  132.6950   57.3260 C   0  0  0  0  0  0  0  0  0  0  0  0
  128.0660  132.4040   56.4990 C   0  0  0  0  0  0  0  0  0  0  0  0
  127.3890  130.8530   56.8580 S   0  0  0  0  0  0  0  0  0  0  0  0
  127.6160  128.1720   58.3310 C   0  0  0  0  0  0  0  0  0  0  0  0
  128.1280  125.6030   61.3200 C   0  0  2  0  0  0  0  0  0  0  0  0
  129.6160  125.3420   61.6510 C   0  0  0  0  0  0  0  0  0  0  0  0
  130.0580  125.3840   62.9270 C   0  0  0  0  0  0  0  0  0  0  0  0
  131.3260  125.1640   63.3520 O   0  0  0  0  0  0  0  0  0  0  0  0
  132.2800  124.8650   62.4040 C   0  0  0  0  0  0  0  0  0  0  0  0
  133.5760  124.6380   62.8660 C   0  0  0  0  0  0  0  0  0  0  0  0
  134.5900  124.3350   61.9600 C   0  0  0  0  0  0  0  0  0  0  0  0
  134.3060  124.2570   60.5970 C   0  0  0  0  0  0  0  0  0  0  0  0
  133.0080  124.4840   60.1360 C   0  0  0  0  0  0  0  0  0  0  0  0
  131.9740  124.7910   61.0330 C   0  0  0  0  0  0  0  0  0  0  0  0
  130.5710  125.0390   60.5540 C   0  0  0  0  0  0  0  0  0  0  0  0
  130.2930  124.9850   59.3550 O   0  0  0  0  0  0  0  0  0  0  0  0
  130.0733  118.2871   62.7257 H   0  0  0  0  0  0  0  0  0  0  0  0
  128.8932  118.6082   61.4101 H   0  0  0  0  0  0  0  0  0  0  0  0
  129.8458  117.0854   61.4101 H   0  0  0  0  0  0  0  0  0  0  0  0
  131.9479  118.5535   61.2406 H   0  0  0  0  0  0  0  0  0  0  0  0
  130.8509  118.5297   59.7858 H   0  0  0  0  0  0  0  0  0  0  0  0
  128.9588  120.0390   61.6052 H   0  0  0  0  0  0  0  0  0  0  0  0
  130.0737  121.0254   62.6104 H   0  0  0  0  0  0  0  0  0  0  0  0
  129.6482  122.9407   61.4267 H   0  0  0  0  0  0  0  0  0  0  0  0
  129.6068  122.0661   59.8508 H   0  0  0  0  0  0  0  0  0  0  0  0
  126.4394  122.5435   58.8053 H   0  0  0  0  0  0  0  0  0  0  0  0
  125.9717  123.7909   57.6004 H   0  0  0  0  0  0  0  0  0  0  0  0
  127.6391  123.1228   57.6004 H   0  0  0  0  0  0  0  0  0  0  0  0
  127.3680  125.7320   57.5520 H   0  0  0  0  0  0  0  0  0  0  0  0
  127.1130  129.9076   60.4619 H   0  0  0  0  0  0  0  0  0  0  0  0
  128.8695  130.1868   60.8570 H   0  0  0  0  0  0  0  0  0  0  0  0
  129.5568  128.9078   58.9002 H   0  0  0  0  0  0  0  0  0  0  0  0
  130.2087  131.7279   58.9770 H   0  0  0  0  0  0  0  0  0  0  0  0
  129.7111  133.6293   57.2726 H   0  0  0  0  0  0  0  0  0  0  0  0
  127.6932  133.0745   55.7107 H   0  0  0  0  0  0  0  0  0  0  0  0
  126.5852  128.5490   58.2586 H   0  0  0  0  0  0  0  0  0  0  0  0
  127.9949  127.9143   57.3310 H   0  0  0  0  0  0  0  0  0  0  0  0
  127.6199  125.6917   62.2916 H   0  0  0  0  0  0  0  0  0  0  0  0
  129.3123  125.6210   63.7002 H   0  0  0  0  0  0  0  0  0  0  0  0
  133.7969  124.6980   63.9419 H   0  0  0  0  0  0  0  0  0  0  0  0
  135.6142  124.1574   62.3197 H   0  0  0  0  0  0  0  0  0  0  0  0
  135.1072  124.0159   59.8829 H   0  0  0  0  0  0  0  0  0  0  0  0
  132.7939  124.4215   59.0588 H   0  0  0  0  0  0  0  0  0  0  0  0
  1  2  1  0
  2  3  1  0
  3  4  1  0
  4  5  1  0
  5  6  1  0
  6  7  1  0
  7  8  2  0
  7  9  1  0
  9 10  2  0
 10 11  1  0
 10 12  1  0
 12 13  1  0
 13 14  2  0
 14 15  1  0
 15 16  2  0
 15 17  1  0
 17 18  1  0
 18 19  1  0
 19 20  2  0
 20 21  1  0
 21 22  2  0
 22 23  1  0
 18 24  1  0
 14 25  1  0
 25 26  1  0
 26 27  2  0
 27 28  1  0
 28 29  1  0
 29 30  2  0
 30 31  1  0
 31 32  2  0
 32 33  1  0
 33 34  2  0
 34 35  1  0
 35 36  2  0
 25  9  1  0
 35 26  1  0
 24 13  1  0
 34 29  1  0
 23 19  1  0
  1 37  1  0
  1 38  1  0
  1 39  1  0
  2 40  1  0
  2 41  1  0
  4 42  1  0
  4 43  1  0
  5 44  1  0
  5 45  1  0
 11 46  1  0
 11 47  1  0
 11 48  1  0
 12 49  1  0
 17 50  1  0
 17 51  1  0
 18 52  1  1
 20 53  1  0
 21 54  1  0
 22 55  1  0
 24 56  1  0
 24 57  1  0
 25 58  1  1
 27 59  1  0
 30 60  1  0
 31 61  1  0
 32 62  1  0
 33 63  1  0
M  END
>  <Binding energies>  (1) 
[-6.79]

>  <Ligand effiencies>  (1) 
[-0.18351351351351353]

>  <Interactions>  (1) 
["V-A:ILE:369:CG2:3237, V-A:ASP:366:CA:3210, V-B:PRO:540:CA:9855, V-A:ILE:369:CB:3236, V-B:ALA:541:CB:9864, V-B:TYR:539:CE2:9848, V-A:LEU:475:CG:4257, V-A:TYR:539:CE2:4876, V-A:ASP:366:CG:3213, V-A:TYR:539:CD1:4873, V-A:TYR:539:CZ:4877, H-B:ALA:541:N:9863, V-A:LEU:475:CD1:4258, V-B:PRO:540:CB:9857, V-B:PRO:540:N:9856, V-A:ILE:369:CD1:3239, V-A:PRO:482:CB:4326, V-B:TYR:539:CD2:9846, V-A:MET:535:CE:4835, H-B:TYR:531:OH:9767, V-A:LEU:475:CD2:4259, V-A:ARG:545:CZ:4926, V-A:GLY:453:CA:4044, V-B:PRO:540:C:9853, V-A:TYR:539:CE1:4875"]

$$$$
ZINC202183394
     RDKit          3D

 86 90  0  0  0  0  0  0  0  0999 V2000
  129.8040  119.5770   61.6320 C   0  0  0  0  0  0  0  0  0  0  0  0
  130.5270  120.7700   60.9850 C   0  0  0  0  0  0  0  0  0  0  0  0
  131.5510  121.4700   61.9130 C   0  0  1  0  0  0  0  0  0  0  0  0
  132.8880  121.7190   61.1870 C   0  0  0  0  0  0  0  0  0  0  0  0
  131.0050  122.7570   62.5380 C   0  0  0  0  0  0  0  0  0  0  0  0
  131.7660  123.9280   62.5290 C   0  0  0  0  0  0  0  0  0  0  0  0
  131.2580  125.0980   63.0870 C   0  0  0  0  0  0  0  0  0  0  0  0
  129.9810  125.1220   63.6680 C   0  0  0  0  0  0  0  0  0  0  0  0
  129.4600  126.3220   64.2360 N   0  0  0  0  0  0  0  0  0  0  0  0
  128.9880  127.3660   63.3860 C   0  0  0  0  0  0  0  0  0  0  0  0
  129.7660  127.8270   62.3110 C   0  0  0  0  0  0  0  0  0  0  0  0
  129.3050  128.8440   61.4810 C   0  0  0  0  0  0  0  0  0  0  0  0
  128.0550  129.4230   61.7030 C   0  0  0  0  0  0  0  0  0  0  0  0
  127.5270  130.5750   60.7550 B   0  0  0  0  0  0  0  0  0  0  0  0
  126.8020  131.6630   61.1830 O   0  0  0  0  0  0  0  0  0  0  0  0
  126.7380  132.5840   60.1040 C   0  0  0  0  0  0  0  0  0  0  0  0
  125.3820  133.3190   60.2010 C   0  0  0  0  0  0  0  0  0  0  0  0
  127.9090  133.5790   60.3190 C   0  0  0  0  0  0  0  0  0  0  0  0
  126.8860  131.6270   58.8680 C   0  0  0  0  0  0  0  0  0  0  0  0
  125.5850  130.9070   58.4230 C   0  0  0  0  0  0  0  0  0  0  0  0
  127.6040  132.2450   57.6460 C   0  0  0  0  0  0  0  0  0  0  0  0
  127.7320  130.6150   59.3940 O   0  0  0  0  0  0  0  0  0  0  0  0
  127.2730  128.9740   62.7680 C   0  0  0  0  0  0  0  0  0  0  0  0
  127.7340  127.9590   63.6010 C   0  0  0  0  0  0  0  0  0  0  0  0
  129.4110  126.4760   65.6520 C   0  0  0  0  0  0  0  0  0  0  0  0
  130.1680  125.6450   66.4930 C   0  0  0  0  0  0  0  0  0  0  0  0
  130.1150  125.7930   67.8760 C   0  0  0  0  0  0  0  0  0  0  0  0
  129.3060  126.7740   68.4500 C   0  0  0  0  0  0  0  0  0  0  0  0
  129.2420  126.9370   70.0230 B   0  0  0  0  0  0  0  0  0  0  0  0
  128.1060  126.7530   70.7770 O   0  0  0  0  0  0  0  0  0  0  0  0
  128.5030  126.7140   72.1410 C   0  0  0  0  0  0  0  0  0  0  0  0
  127.3520  127.3080   72.9820 C   0  0  0  0  0  0  0  0  0  0  0  0
  128.7080  125.2130   72.4860 C   0  0  0  0  0  0  0  0  0  0  0  0
  129.8130  127.5790   72.1070 C   0  0  0  0  0  0  0  0  0  0  0  0
  129.5950  129.1160   72.1380 C   0  0  0  0  0  0  0  0  0  0  0  0
  130.8930  127.1690   73.1330 C   0  0  0  0  0  0  0  0  0  0  0  0
  130.3160  127.2810   70.8130 O   0  0  0  0  0  0  0  0  0  0  0  0
  128.5510  127.6080   67.6250 C   0  0  0  0  0  0  0  0  0  0  0  0
  128.6030  127.4610   66.2410 C   0  0  0  0  0  0  0  0  0  0  0  0
  129.2290  123.9370   63.6760 C   0  0  0  0  0  0  0  0  0  0  0  0
  129.7350  122.7670   63.1170 C   0  0  0  0  0  0  0  0  0  0  0  0
  129.8578  119.6657   62.7271 H   0  0  0  0  0  0  0  0  0  0  0  0
  128.7504  119.5714   61.3159 H   0  0  0  0  0  0  0  0  0  0  0  0
  130.2866  118.6404   61.3159 H   0  0  0  0  0  0  0  0  0  0  0  0
  131.0601  120.4082   60.0934 H   0  0  0  0  0  0  0  0  0  0  0  0
  129.7549  121.5161   60.7458 H   0  0  0  0  0  0  0  0  0  0  0  0
  131.7403  120.7774   62.7464 H   0  0  0  0  0  0  0  0  0  0  0  0
  133.6861  121.8676   61.9292 H   0  0  0  0  0  0  0  0  0  0  0  0
  133.1304  120.8506   60.5569 H   0  0  0  0  0  0  0  0  0  0  0  0
  132.8015  122.6165   60.5569 H   0  0  0  0  0  0  0  0  0  0  0  0
  132.7700  123.9259   62.0796 H   0  0  0  0  0  0  0  0  0  0  0  0
  131.8653  126.0150   63.0722 H   0  0  0  0  0  0  0  0  0  0  0  0
  130.7525  127.3781   62.1230 H   0  0  0  0  0  0  0  0  0  0  0  0
  129.9292  129.1935   60.6454 H   0  0  0  0  0  0  0  0  0  0  0  0
  125.1175  133.4624   61.2591 H   0  0  0  0  0  0  0  0  0  0  0  0
  125.4597  134.2985   59.7065 H   0  0  0  0  0  0  0  0  0  0  0  0
  124.6037  132.7193   59.7065 H   0  0  0  0  0  0  0  0  0  0  0  0
  128.0762  133.7211   61.3969 H   0  0  0  0  0  0  0  0  0  0  0  0
  128.8220  133.1762   59.8563 H   0  0  0  0  0  0  0  0  0  0  0  0
  127.6589  134.5451   59.8563 H   0  0  0  0  0  0  0  0  0  0  0  0
  125.0175  130.5929   59.3114 H   0  0  0  0  0  0  0  0  0  0  0  0
  124.9728  131.5947   57.8211 H   0  0  0  0  0  0  0  0  0  0  0  0
  125.8426  130.0231   57.8211 H   0  0  0  0  0  0  0  0  0  0  0  0
  128.3955  132.9262   57.9916 H   0  0  0  0  0  0  0  0  0  0  0  0
  128.0496  131.4435   57.0385 H   0  0  0  0  0  0  0  0  0  0  0  0
  126.8778  132.8049   57.0385 H   0  0  0  0  0  0  0  0  0  0  0  0
  126.2864  129.4250   62.9501 H   0  0  0  0  0  0  0  0  0  0  0  0
  127.1079  127.6171   64.4383 H   0  0  0  0  0  0  0  0  0  0  0  0
  130.8106  124.8677   66.0538 H   0  0  0  0  0  0  0  0  0  0  0  0
  130.7144  125.1327   68.5200 H   0  0  0  0  0  0  0  0  0  0  0  0
  127.5806  127.1900   74.0515 H   0  0  0  0  0  0  0  0  0  0  0  0
  127.2397  128.3767   72.7468 H   0  0  0  0  0  0  0  0  0  0  0  0
  126.4159  126.7804   72.7468 H   0  0  0  0  0  0  0  0  0  0  0  0
  128.7252  125.0869   73.5786 H   0  0  0  0  0  0  0  0  0  0  0  0
  127.8821  124.6232   72.0618 H   0  0  0  0  0  0  0  0  0  0  0  0
  129.6618  124.8662   72.0618 H   0  0  0  0  0  0  0  0  0  0  0  0
  129.5464  129.4585   73.1822 H   0  0  0  0  0  0  0  0  0  0  0  0
  130.4313  129.6153   71.6269 H   0  0  0  0  0  0  0  0  0  0  0  0
  128.6528  129.3631   71.6269 H   0  0  0  0  0  0  0  0  0  0  0  0
  130.5054  127.3161   74.1519 H   0  0  0  0  0  0  0  0  0  0  0  0
  131.1525  126.1098   72.9888 H   0  0  0  0  0  0  0  0  0  0  0  0
  131.7900  127.7892   72.9888 H   0  0  0  0  0  0  0  0  0  0  0  0
  127.9118  128.3851   68.0695 H   0  0  0  0  0  0  0  0  0  0  0  0
  128.0032  128.1253   65.6014 H   0  0  0  0  0  0  0  0  0  0  0  0
  128.2270  123.9328   64.1298 H   0  0  0  0  0  0  0  0  0  0  0  0
  129.1320  121.8471   63.1316 H   0  0  0  0  0  0  0  0  0  0  0  0
  1  2  1  0
  2  3  1  0
  3  4  1  0
  3  5  1  0
  5  6  2  0
  6  7  1  0
  7  8  2  0
  8  9  1  0
  9 10  1  0
 10 11  2  0
 11 12  1  0
 12 13  2  0
 13 14  1  0
 14 15  1  0
 15 16  1  0
 16 17  1  0
 16 18  1  0
 16 19  1  0
 19 20  1  0
 19 21  1  0
 19 22  1  0
 13 23  1  0
 23 24  2  0
  9 25  1  0
 25 26  2  0
 26 27  1  0
 27 28  2  0
 28 29  1  0
 29 30  1  0
 30 31  1  0
 31 32  1  0
 31 33  1  0
 31 34  1  0
 34 35  1  0
 34 36  1  0
 34 37  1  0
 28 38  1  0
 38 39  2  0
  8 40  1  0
 40 41  2  0
 41  5  1  0
 24 10  1  0
 39 25  1  0
 22 14  1  0
 37 29  1  0
  1 42  1  0
  1 43  1  0
  1 44  1  0
  2 45  1  0
  2 46  1  0
  3 47  1  1
  4 48  1  0
  4 49  1  0
  4 50  1  0
  6 51  1  0
  7 52  1  0
 11 53  1  0
 12 54  1  0
 17 55  1  0
 17 56  1  0
 17 57  1  0
 18 58  1  0
 18 59  1  0
 18 60  1  0
 20 61  1  0
 20 62  1  0
 20 63  1  0
 21 64  1  0
 21 65  1  0
 21 66  1  0
 23 67  1  0
 24 68  1  0
 26 69  1  0
 27 70  1  0
 32 71  1  0
 32 72  1  0
 32 73  1  0
 33 74  1  0
 33 75  1  0
 33 76  1  0
 35 77  1  0
 35 78  1  0
 35 79  1  0
 36 80  1  0
 36 81  1  0
 36 82  1  0
 38 83  1  0
 39 84  1  0
 40 85  1  0
 41 86  1  0
M  END
>  <Binding energies>  (1) 
[-6.88]

>  <Ligand effiencies>  (1) 
[-0.1678048780487805]

>  <Interactions>  (1) 
["V-A:ILE:369:CG2:3237, V-B:HIS:456:CD2:9039, V-B:GLU:543:C:9874, V-A:GLU:543:C:4902, V-B:GLU:543:CB:9878, V-B:ALA:541:CB:9864, V-B:TYR:539:CE2:9848, V-B:GLU:543:CG:9879, V-A:HIS:456:CD2:4068, V-A:TYR:539:CD1:4873, V-A:TYR:539:CZ:4877, V-B:LYS:547:CE:9922, V-A:GLU:543:CD:4908, V-B:HIS:456:CE1:9041, V-B:ILE:369:CG2:8208, V-A:HIS:456:CE1:4070, V-B:GLY:544:C:9884, V-B:TYR:539:CD2:9846, V-B:GLY:544:CA:9886, V-B:GLU:543:CD:9880, V-B:HIS:456:CG:9037, V-A:TYR:539:C:4867, V-A:LEU:475:CD2:4259, V-B:PRO:540:C:9853, V-A:TYR:539:CE1:4875"]

$$$$
ZINC2037812440
     RDKit          3D

 75 78  0  0  0  0  0  0  0  0999 V2000
  134.0030  131.8570   60.9730 C   0  0  0  0  0  0  0  0  0  0  0  0
  133.2570  131.3190   61.9500 C   0  0  0  0  0  0  0  0  0  0  0  0
  131.9020  131.8480   62.3910 C   0  0  0  0  0  0  0  0  0  0  0  0
  130.7470  131.1740   61.7800 N   0  0  0  0  0  0  0  0  0  0  0  0
  129.4950  131.8220   62.1820 C   0  0  0  0  0  0  0  0  0  0  0  0
  129.4500  132.2480   63.6370 C   0  0  0  0  0  0  0  0  0  0  0  0
  128.3800  132.1130   64.4370 C   0  0  0  0  0  0  0  0  0  0  0  0
  130.8270  131.0910   60.3110 C   0  0  0  0  0  0  0  0  0  0  0  0
  130.8870  129.6700   59.7110 C   0  0  0  0  0  0  0  0  0  0  0  0
  130.0940  128.6220   60.0730 C   0  0  0  0  0  0  0  0  0  0  0  0
  129.0280  128.8230   61.0500 C   0  0  0  0  0  0  0  0  0  0  0  0
  128.1600  129.6990   61.0490 O   0  0  0  0  0  0  0  0  0  0  0  0
  129.0480  127.8220   62.2210 C   0  0  0  0  0  0  0  0  0  0  0  0
  128.5550  128.2270   63.2770 O   0  0  0  0  0  0  0  0  0  0  0  0
  129.6290  126.4930   61.9570 C   0  0  0  0  0  0  0  0  0  0  0  0
  130.0940  126.1320   60.7080 C   0  0  0  0  0  0  0  0  0  0  0  0
  130.5000  124.6450   60.4420 C   0  0  2  0  0  0  0  0  0  0  0  0
  129.6480  124.0930   59.4310 O   0  0  0  0  0  0  0  0  0  0  0  0
  128.6030  123.2800   59.7220 C   0  0  0  0  0  0  0  0  0  0  0  0
  127.3160  124.0590   59.9550 C   0  0  0  0  0  0  0  0  0  0  0  0
  128.6310  122.0500   59.7860 O   0  0  0  0  0  0  0  0  0  0  0  0
  130.4370  123.7200   61.6960 C   0  0  0  0  0  0  0  0  0  0  0  0
  130.7840  124.4720   62.9840 C   0  0  2  0  0  0  0  0  0  0  0  0
  132.2250  125.0730   62.9260 C   0  0  0  0  0  0  0  0  0  0  0  0
  130.6100  123.6520   64.2860 C   0  0  1  0  0  0  0  0  0  0  0  0
  131.6330  122.7450   64.6470 O   0  0  0  0  0  0  0  0  0  0  0  0
  130.2280  124.6810   65.3700 C   0  0  0  0  0  0  0  0  0  0  0  0
  129.7750  125.9470   64.6160 C   0  0  0  0  0  0  0  0  0  0  0  0
  129.6460  125.5010   63.1450 C   0  0  1  0  0  0  0  0  0  0  0  0
  130.2420  127.1700   59.5190 C   0  0  1  0  0  0  0  0  0  0  0  0
  129.1010  126.9700   58.4810 C   0  0  0  0  0  0  0  0  0  0  0  0
  131.6700  127.1080   58.8340 C   0  0  1  0  0  0  0  0  0  0  0  0
  131.9000  126.0220   57.7530 C   0  0  0  0  0  0  0  0  0  0  0  0
  133.2170  125.5010   57.8820 O   0  0  0  0  0  0  0  0  0  0  0  0
  133.4140  124.7380   59.0620 C   0  0  0  0  0  0  0  0  0  0  0  0
  132.0900  128.2940   58.1490 O   0  0  0  0  0  0  0  0  0  0  0  0
  131.9160  129.5250   58.6740 C   0  0  0  0  0  0  0  0  0  0  0  0
  132.6330  130.3950   58.1800 O   0  0  0  0  0  0  0  0  0  0  0  0
  134.9752  131.4118   60.7148 H   0  0  0  0  0  0  0  0  0  0  0  0
  133.6424  132.7433   60.4303 H   0  0  0  0  0  0  0  0  0  0  0  0
  133.6537  130.4333   62.4679 H   0  0  0  0  0  0  0  0  0  0  0  0
  131.8281  131.7313   63.4823 H   0  0  0  0  0  0  0  0  0  0  0  0
  131.8576  132.8967   62.0619 H   0  0  0  0  0  0  0  0  0  0  0  0
  129.3541  132.7162   61.5570 H   0  0  0  0  0  0  0  0  0  0  0  0
  128.6979  131.0759   62.0482 H   0  0  0  0  0  0  0  0  0  0  0  0
  130.3567  132.6988   64.0667 H   0  0  0  0  0  0  0  0  0  0  0  0
  128.4298  132.4484   65.4834 H   0  0  0  0  0  0  0  0  0  0  0  0
  127.4536  131.6670   64.0459 H   0  0  0  0  0  0  0  0  0  0  0  0
  129.9396  131.5926   59.8977 H   0  0  0  0  0  0  0  0  0  0  0  0
  131.7821  131.5652   60.0409 H   0  0  0  0  0  0  0  0  0  0  0  0
  131.5531  124.6777   60.1259 H   0  0  0  0  0  0  0  0  0  0  0  0
  127.1418  124.1644   61.0360 H   0  0  0  0  0  0  0  0  0  0  0  0
  127.4032  125.0561   59.4987 H   0  0  0  0  0  0  0  0  0  0  0  0
  126.4730  123.5194   59.4987 H   0  0  0  0  0  0  0  0  0  0  0  0
  129.4189  123.3132   61.7860 H   0  0  0  0  0  0  0  0  0  0  0  0
  131.1770  122.9172   61.5624 H   0  0  0  0  0  0  0  0  0  0  0  0
  132.5987  125.2289   63.9488 H   0  0  0  0  0  0  0  0  0  0  0  0
  132.8911  124.3777   62.3942 H   0  0  0  0  0  0  0  0  0  0  0  0
  132.1997  126.0356   62.3942 H   0  0  0  0  0  0  0  0  0  0  0  0
  129.8183  122.9048   64.1283 H   0  0  0  0  0  0  0  0  0  0  0  0
  131.6520  122.6710   65.6040 H   0  0  0  0  0  0  0  0  0  0  0  0
  129.4081  124.2934   65.9925 H   0  0  0  0  0  0  0  0  0  0  0  0
  131.0747  124.8930   66.0394 H   0  0  0  0  0  0  0  0  0  0  0  0
  128.8073  126.3019   65.0001 H   0  0  0  0  0  0  0  0  0  0  0  0
  130.4830  126.7800   64.7380 H   0  0  0  0  0  0  0  0  0  0  0  0
  128.6045  125.1630   63.0400 H   0  0  0  0  0  0  0  0  0  0  0  0
  128.1503  126.8034   59.0087 H   0  0  0  0  0  0  0  0  0  0  0  0
  129.0178  127.8673   57.8501 H   0  0  0  0  0  0  0  0  0  0  0  0
  129.3279  126.0979   57.8501 H   0  0  0  0  0  0  0  0  0  0  0  0
  132.2379  126.9026   59.7534 H   0  0  0  0  0  0  0  0  0  0  0  0
  131.1693  125.2106   57.8862 H   0  0  0  0  0  0  0  0  0  0  0  0
  131.7755  126.4649   56.7538 H   0  0  0  0  0  0  0  0  0  0  0  0
  133.2493  125.3759   59.9429 H   0  0  0  0  0  0  0  0  0  0  0  0
  132.7031  123.8988   59.0789 H   0  0  0  0  0  0  0  0  0  0  0  0
  134.4423  124.3478   59.0789 H   0  0  0  0  0  0  0  0  0  0  0  0
  1  2  2  0
  2  3  1  0
  3  4  1  0
  4  5  1  0
  5  6  1  0
  6  7  2  0
  4  8  1  0
  8  9  1  0
  9 10  2  0
 10 11  1  0
 11 12  2  0
 11 13  1  0
 13 14  2  0
 13 15  1  0
 15 16  2  0
 16 17  1  0
 17 18  1  0
 18 19  1  0
 19 20  1  0
 19 21  2  0
 17 22  1  0
 22 23  1  0
 23 24  1  6
 23 25  1  0
 25 26  1  0
 25 27  1  0
 27 28  1  0
 28 29  1  0
 16 30  1  0
 30 31  1  6
 30 32  1  0
 32 33  1  0
 33 34  1  0
 34 35  1  0
 32 36  1  0
 36 37  1  0
 37 38  2  0
 37  9  1  0
 30 10  1  0
 29 15  1  0
 29 23  1  0
  1 39  1  0
  1 40  1  0
  2 41  1  0
  3 42  1  0
  3 43  1  0
  5 44  1  0
  5 45  1  0
  6 46  1  0
  7 47  1  0
  7 48  1  0
  8 49  1  0
  8 50  1  0
 17 51  1  6
 20 52  1  0
 20 53  1  0
 20 54  1  0
 22 55  1  0
 22 56  1  0
 24 57  1  0
 24 58  1  0
 24 59  1  0
 25 60  1  6
 26 61  1  0
 27 62  1  0
 27 63  1  0
 28 64  1  0
 28 65  1  0
 29 66  1  1
 31 67  1  0
 31 68  1  0
 31 69  1  0
 32 70  1  1
 33 71  1  0
 33 72  1  0
 35 73  1  0
 35 74  1  0
 35 75  1  0
M  END
>  <Binding energies>  (1) 
[-6.56]

>  <Ligand effiencies>  (1) 
[-0.1682051282051282]

>  <Interactions>  (1) 
["V-A:ASP:366:CA:3210, H-A:TYR:531:OH:4795, V-B:TYR:539:CE2:9848, V-B:GLU:543:CG:9879, V-A:ASP:366:CG:3213, V-A:ASN:362:CB:3176, V-A:LEU:363:CB:3187, V-B:TYR:484:CE2:9317, H-B:TYR:539:OH:9850, V-A:ALA:541:CB:4892, V-A:GLU:543:CD:4908, V-B:TYR:484:CZ:9318, V-A:ALA:541:CA:4890, V-B:TYR:539:CD2:9846, V-A:GLU:543:CG:4907, V-B:GLU:543:CD:9880, V-A:ASP:366:CB:3212, V-A:ASN:362:C:3172, V-A:PRO:540:CB:4885, V-A:PRO:540:CA:4883, V-A:LEU:363:CA:3185, H-A:TYR:484:OH:4348"]

$$$$
ZINC2040075303
     RDKit          3D

 78 83  0  0  0  0  0  0  0  0999 V2000
  131.2760  119.3290   60.8650 C   0  0  0  0  0  0  0  0  0  0  0  0
  132.4970  120.2200   60.6820 C   0  0  0  0  0  0  0  0  0  0  0  0
  133.3040  120.0240   59.7720 O   0  0  0  0  0  0  0  0  0  0  0  0
  132.5570  121.2020   61.6100 O   0  0  0  0  0  0  0  0  0  0  0  0
  132.3040  122.5740   61.2810 C   0  0  1  0  0  0  0  0  0  0  0  0
  132.6750  122.8410   59.8020 C   0  0  0  0  0  0  0  0  0  0  0  0
  132.4930  124.3320   59.4270 C   0  0  2  0  0  0  0  0  0  0  0  0
  133.5150  125.0770   60.0740 O   0  0  0  0  0  0  0  0  0  0  0  0
  131.0430  124.8910   59.7180 C   0  0  2  0  0  0  0  0  0  0  0  0
  130.0700  124.2610   58.6680 C   0  0  0  0  0  0  0  0  0  0  0  0
  131.0070  126.4880   59.6120 C   0  0  1  0  0  0  0  0  0  0  0  0
  131.5760  127.0770   58.2860 C   0  0  0  0  0  0  0  0  0  0  0  0
  131.8390  128.5910   58.3970 C   0  0  0  0  0  0  0  0  0  0  0  0
  130.5610  129.4120   58.7070 C   0  0  2  0  0  0  0  0  0  0  0  0
  129.6250  129.4210   57.4630 C   0  0  0  0  0  0  0  0  0  0  0  0
  130.9700  130.8560   59.1680 C   0  0  1  0  0  0  0  0  0  0  0  0
  130.2280  132.0360   58.5380 C   0  0  0  0  0  0  0  0  0  0  0  0
  129.1270  132.7230   59.0700 C   0  0  0  0  0  0  0  0  0  0  0  0
  128.7750  133.7270   58.1850 C   0  0  0  0  0  0  0  0  0  0  0  0
  129.6070  133.7100   57.1190 O   0  0  0  0  0  0  0  0  0  0  0  0
  130.4810  132.6950   57.3330 C   0  0  0  0  0  0  0  0  0  0  0  0
  130.8040  130.8510   60.6920 C   0  0  0  0  0  0  0  0  0  0  0  0
  131.3170  131.5940   61.5260 O   0  0  0  0  0  0  0  0  0  0  0  0
  129.8950  129.7120   61.1270 C   0  0  1  0  0  0  0  0  0  0  0  0
  128.7460  129.5180   60.3450 O   0  0  0  0  0  0  0  0  0  0  0  0
  129.8840  128.7760   59.9580 C   0  0  1  0  0  0  0  0  0  0  0  0
  129.6610  127.2060   60.0630 C   0  0  1  0  0  0  0  0  0  0  0  0
  128.4360  126.8250   59.1740 C   0  0  0  0  0  0  0  0  0  0  0  0
  129.3810  126.7140   61.5360 C   0  0  2  0  0  0  0  0  0  0  0  0
  130.3660  127.1980   62.4650 O   0  0  0  0  0  0  0  0  0  0  0  0
  130.6510  126.5520   63.6210 C   0  0  0  0  0  0  0  0  0  0  0  0
  129.4880  126.5910   64.6030 C   0  0  0  0  0  0  0  0  0  0  0  0
  131.7050  125.9770   63.8960 O   0  0  0  0  0  0  0  0  0  0  0  0
  129.3270  125.1630   61.6420 C   0  0  0  0  0  0  0  0  0  0  0  0
  130.6740  124.5060   61.2160 C   0  0  1  0  0  0  0  0  0  0  0  0
  130.8320  122.9830   61.6230 C   0  0  0  0  0  0  0  0  0  0  0  0
  129.8190  122.0450   60.9090 C   0  0  0  0  0  0  0  0  0  0  0  0
  130.6890  122.8610   63.1670 C   0  0  0  0  0  0  0  0  0  0  0  0
  131.0827  119.1879   61.9386 H   0  0  0  0  0  0  0  0  0  0  0  0
  130.4022  119.8032   60.3943 H   0  0  0  0  0  0  0  0  0  0  0  0
  131.4610  118.3522   60.3943 H   0  0  0  0  0  0  0  0  0  0  0  0
  132.9461  123.2153   61.9027 H   0  0  0  0  0  0  0  0  0  0  0  0
  133.7259  122.5586   59.6414 H   0  0  0  0  0  0  0  0  0  0  0  0
  132.0050  122.2430   59.1667 H   0  0  0  0  0  0  0  0  0  0  0  0
  132.5921  124.4372   58.3365 H   0  0  0  0  0  0  0  0  0  0  0  0
  133.1050  125.7760   60.5880 H   0  0  0  0  0  0  0  0  0  0  0  0
  129.2575  123.7349   59.1905 H   0  0  0  0  0  0  0  0  0  0  0  0
  129.6460  125.0564   58.0375 H   0  0  0  0  0  0  0  0  0  0  0  0
  130.6223  123.5486   58.0375 H   0  0  0  0  0  0  0  0  0  0  0  0
  131.7278  126.7525   60.3997 H   0  0  0  0  0  0  0  0  0  0  0  0
  132.5217  126.5682   58.0476 H   0  0  0  0  0  0  0  0  0  0  0  0
  130.8297  126.9175   57.4938 H   0  0  0  0  0  0  0  0  0  0  0  0
  132.5678  128.7610   59.2032 H   0  0  0  0  0  0  0  0  0  0  0  0
  132.2161  128.9296   57.4207 H   0  0  0  0  0  0  0  0  0  0  0  0
  128.5759  129.4311   57.7936 H   0  0  0  0  0  0  0  0  0  0  0  0
  129.8275  130.3172   56.8582 H   0  0  0  0  0  0  0  0  0  0  0  0
  129.8102  128.5210   56.8582 H   0  0  0  0  0  0  0  0  0  0  0  0
  131.9976  131.0384   58.8206 H   0  0  0  0  0  0  0  0  0  0  0  0
  128.6292  132.5019   60.0257 H   0  0  0  0  0  0  0  0  0  0  0  0
  127.9434  134.4328   58.3273 H   0  0  0  0  0  0  0  0  0  0  0  0
  131.2916  132.4236   56.6407 H   0  0  0  0  0  0  0  0  0  0  0  0
  130.0482  129.7216   62.2162 H   0  0  0  0  0  0  0  0  0  0  0  0
  127.5842  126.5601   59.8176 H   0  0  0  0  0  0  0  0  0  0  0  0
  128.1635  127.6808   58.5389 H   0  0  0  0  0  0  0  0  0  0  0  0
  128.6970  125.9656   58.5389 H   0  0  0  0  0  0  0  0  0  0  0  0
  128.3962  127.1289   61.7968 H   0  0  0  0  0  0  0  0  0  0  0  0
  129.8764  126.5780   65.6321 H   0  0  0  0  0  0  0  0  0  0  0  0
  128.9038  127.5092   64.4432 H   0  0  0  0  0  0  0  0  0  0  0  0
  128.8436  125.7140   64.4432 H   0  0  0  0  0  0  0  0  0  0  0  0
  129.1090  124.8848   62.6837 H   0  0  0  0  0  0  0  0  0  0  0  0
  128.5407  124.8013   60.9630 H   0  0  0  0  0  0  0  0  0  0  0  0
  131.4701  124.9505   61.8313 H   0  0  0  0  0  0  0  0  0  0  0  0
  129.2305  121.5000   61.6618 H   0  0  0  0  0  0  0  0  0  0  0  0
  129.1446  122.6446   60.2800 H   0  0  0  0  0  0  0  0  0  0  0  0
  130.3650  121.3265   60.2800 H   0  0  0  0  0  0  0  0  0  0  0  0
  131.4385  123.5004   63.6563 H   0  0  0  0  0  0  0  0  0  0  0  0
  129.6808  123.1814   63.4683 H   0  0  0  0  0  0  0  0  0  0  0  0
  130.8466  121.8149   63.4683 H   0  0  0  0  0  0  0  0  0  0  0  0
  1  2  1  0
  2  3  2  0
  2  4  1  0
  4  5  1  0
  5  6  1  0
  6  7  1  0
  7  8  1  0
  7  9  1  0
  9 10  1  6
  9 11  1  0
 11 12  1  0
 12 13  1  0
 13 14  1  0
 14 15  1  6
 14 16  1  0
 16 17  1  0
 17 18  1  0
 18 19  2  0
 19 20  1  0
 20 21  1  0
 16 22  1  0
 22 23  2  0
 22 24  1  0
 24 25  1  0
 26 25  1  6
 26 27  1  0
 27 28  1  6
 27 29  1  0
 29 30  1  0
 30 31  1  0
 31 32  1  0
 31 33  2  0
 29 34  1  0
 34 35  1  0
 35 36  1  0
 36 37  1  0
 36 38  1  0
 36  5  1  0
 35  9  1  0
 27 11  1  0
 26 14  1  0
 21 17  2  0
 26 24  1  0
  1 39  1  0
  1 40  1  0
  1 41  1  0
  5 42  1  1
  6 43  1  0
  6 44  1  0
  7 45  1  6
  8 46  1  0
 10 47  1  0
 10 48  1  0
 10 49  1  0
 11 50  1  1
 12 51  1  0
 12 52  1  0
 13 53  1  0
 13 54  1  0
 15 55  1  0
 15 56  1  0
 15 57  1  0
 16 58  1  1
 18 59  1  0
 19 60  1  0
 21 61  1  0
 24 62  1  1
 28 63  1  0
 28 64  1  0
 28 65  1  0
 29 66  1  1
 32 67  1  0
 32 68  1  0
 32 69  1  0
 34 70  1  0
 34 71  1  0
 35 72  1  1
 37 73  1  0
 37 74  1  0
 37 75  1  0
 38 76  1  0
 38 77  1  0
 38 78  1  0
M  END
>  <Binding energies>  (1) 
[-7.2]

>  <Ligand effiencies>  (1) 
[-0.18461538461538463]

>  <Interactions>  (1) 
["V-A:ILE:369:CG2:3237, H-A:ALA:541:N:4891, V-B:TYR:539:CE2:9848, V-B:GLU:543:CG:9879, V-A:ASP:366:CG:3213, V-A:TYR:539:CD1:4873, V-B:TYR:539:CZ:9849, V-A:TYR:539:CA:4869, V-A:GLU:543:CD:4908, V-A:TYR:539:CB:4871, V-B:TYR:539:CD2:9846, V-A:SER:385:CB:3409, H-A:SER:385:OG:3410, V-A:MET:535:CE:4835, V-B:GLU:543:CD:9880, V-A:TYR:539:C:4867, V-A:ASP:366:CB:3212, V-A:LEU:475:CD2:4259, H-A:ARG:545:NH2:4928, H-A:ASP:366:OD1:3214, V-A:PRO:540:N:4884, V-A:TYR:539:CG:4872, H-A:TYR:539:N:4870, V-A:PRO:540:CA:4883, H-A:ASP:366:OD2:3215, V-A:TYR:539:CE1:4875"]

$$$$
ZINC204146431
     RDKit          3D

 71 75  0  0  0  0  0  0  0  0999 V2000
  126.5220  127.4560   60.9260 C   0  0  0  0  0  0  0  0  0  0  0  0
  126.4810  128.7920   61.4150 O   0  0  0  0  0  0  0  0  0  0  0  0
  127.0910  129.0870   62.6180 C   0  0  0  0  0  0  0  0  0  0  0  0
  127.2210  130.4400   62.9430 C   0  0  0  0  0  0  0  0  0  0  0  0
  127.8290  130.8520   64.1290 C   0  0  0  0  0  0  0  0  0  0  0  0
  127.9060  132.2140   64.3490 O   0  0  0  0  0  0  0  0  0  0  0  0
  127.9960  133.0920   63.2310 C   0  0  0  0  0  0  0  0  0  0  0  0
  128.3180  129.8770   65.0120 C   0  0  0  0  0  0  0  0  0  0  0  0
  128.1930  128.5170   64.7110 C   0  0  0  0  0  0  0  0  0  0  0  0
  128.6910  127.5370   65.5940 N   0  0  0  0  0  0  0  0  0  0  0  0
  128.7530  127.9640   67.0080 C   0  0  0  0  0  0  0  0  0  0  0  0
  127.5360  127.6190   67.9000 C   0  0  0  0  0  0  0  0  0  0  0  0
  127.9250  126.8080   69.1510 C   0  0  0  0  0  0  0  0  0  0  0  0
  128.7000  127.6040   70.1060 N   0  0  0  0  0  0  0  0  0  0  0  0
  130.1370  127.5720   69.8560 C   0  0  0  0  0  0  0  0  0  0  0  0
  130.7880  128.0860   71.1390 C   0  0  0  0  0  0  0  0  0  0  0  0
  129.7700  127.7620   72.2340 C   0  0  0  0  0  0  0  0  0  0  0  0
  128.5900  127.1260   71.4810 C   0  0  1  0  0  0  0  0  0  0  0  0
  127.2250  127.3520   72.1640 C   0  0  0  0  0  0  0  0  0  0  0  0
  127.3280  127.7660   73.5730 C   0  0  0  0  0  0  0  0  0  0  0  0
  127.4080  128.0920   74.6810 N   0  0  0  0  0  0  0  0  0  0  0  0
  129.5220  126.4630   65.1630 C   0  0  0  0  0  0  0  0  0  0  0  0
  129.8690  125.3870   66.0000 C   0  0  0  0  0  0  0  0  0  0  0  0
  130.6800  124.3410   65.5640 C   0  0  0  0  0  0  0  0  0  0  0  0
  131.1820  124.3400   64.2460 C   0  0  0  0  0  0  0  0  0  0  0  0
  131.9730  123.3150   63.8180 N   0  0  0  0  0  0  0  0  0  0  0  0
  132.4240  123.3690   62.5390 C   0  0  0  0  0  0  0  0  0  0  0  0
  132.1040  124.4230   61.6810 C   0  0  0  0  0  0  0  0  0  0  0  0
  132.5940  124.4960   60.2740 C   0  0  0  0  0  0  0  0  0  0  0  0
  133.3450  123.5490   59.5510 C   0  0  0  0  0  0  0  0  0  0  0  0
  133.6190  123.9200   58.3210 N   0  0  0  0  0  0  0  0  0  0  0  0
  133.0560  125.1260   58.2060 N   0  0  0  0  0  0  0  0  0  0  0  0
  133.1620  125.8460   56.9490 C   0  0  0  0  0  0  0  0  0  0  0  0
  132.4200  125.5220   59.3550 C   0  0  0  0  0  0  0  0  0  0  0  0
  131.3170  125.4530   62.0970 N   0  0  0  0  0  0  0  0  0  0  0  0
  130.8490  125.4180   63.3770 C   0  0  0  0  0  0  0  0  0  0  0  0
  130.0250  126.4630   63.8510 C   0  0  0  0  0  0  0  0  0  0  0  0
  127.5800  128.1270   63.5180 C   0  0  0  0  0  0  0  0  0  0  0  0
  126.5435  126.7557   61.7740 H   0  0  0  0  0  0  0  0  0  0  0  0
  125.6294  127.2623   60.3130 H   0  0  0  0  0  0  0  0  0  0  0  0
  127.4248  127.3174   60.3130 H   0  0  0  0  0  0  0  0  0  0  0  0
  126.8344  131.1986   62.2466 H   0  0  0  0  0  0  0  0  0  0  0  0
  128.1022  134.1278   63.5858 H   0  0  0  0  0  0  0  0  0  0  0  0
  128.8711  132.8215   62.6219 H   0  0  0  0  0  0  0  0  0  0  0  0
  127.0842  133.0047   62.6219 H   0  0  0  0  0  0  0  0  0  0  0  0
  128.8040  130.1853   65.9494 H   0  0  0  0  0  0  0  0  0  0  0  0
  129.6389  127.4926   67.4585 H   0  0  0  0  0  0  0  0  0  0  0  0
  128.7797  129.0631   66.9737 H   0  0  0  0  0  0  0  0  0  0  0  0
  127.0595  128.5564   68.2227 H   0  0  0  0  0  0  0  0  0  0  0  0
  126.8518  126.9989   67.3022 H   0  0  0  0  0  0  0  0  0  0  0  0
  127.0072  126.4564   69.6450 H   0  0  0  0  0  0  0  0  0  0  0  0
  128.5521  125.9647   68.8260 H   0  0  0  0  0  0  0  0  0  0  0  0
  130.4670  126.5446   69.6428 H   0  0  0  0  0  0  0  0  0  0  0  0
  130.4127  128.1852   68.9854 H   0  0  0  0  0  0  0  0  0  0  0  0
  131.7406  127.5691   71.3270 H   0  0  0  0  0  0  0  0  0  0  0  0
  131.0257  129.1589   71.0896 H   0  0  0  0  0  0  0  0  0  0  0  0
  130.1935  127.0551   72.9627 H   0  0  0  0  0  0  0  0  0  0  0  0
  129.4716  128.6525   72.8067 H   0  0  0  0  0  0  0  0  0  0  0  0
  128.6418  126.0273   71.4927 H   0  0  0  0  0  0  0  0  0  0  0  0
  126.6856  128.1350   71.6108 H   0  0  0  0  0  0  0  0  0  0  0  0
  126.6961  126.3876   72.1508 H   0  0  0  0  0  0  0  0  0  0  0  0
  129.4880  125.3707   67.0318 H   0  0  0  0  0  0  0  0  0  0  0  0
  130.9287  123.5161   66.2478 H   0  0  0  0  0  0  0  0  0  0  0  0
  133.0630  122.5551   62.1659 H   0  0  0  0  0  0  0  0  0  0  0  0
  133.6715  122.5886   59.9765 H   0  0  0  0  0  0  0  0  0  0  0  0
  133.3195  126.9157   57.1513 H   0  0  0  0  0  0  0  0  0  0  0  0
  134.0120  125.4530   56.3719 H   0  0  0  0  0  0  0  0  0  0  0  0
  132.2348  125.7146   56.3719 H   0  0  0  0  0  0  0  0  0  0  0  0
  131.8790  126.4660   59.5164 H   0  0  0  0  0  0  0  0  0  0  0  0
  129.7715  127.2953   63.1779 H   0  0  0  0  0  0  0  0  0  0  0  0
  127.4795  127.0574   63.2815 H   0  0  0  0  0  0  0  0  0  0  0  0
  1  2  1  0
  2  3  1  0
  3  4  2  0
  4  5  1  0
  5  6  1  0
  6  7  1  0
  5  8  2  0
  8  9  1  0
  9 10  1  0
 10 11  1  0
 11 12  1  0
 12 13  1  0
 13 14  1  0
 14 15  1  0
 15 16  1  0
 16 17  1  0
 17 18  1  0
 18 19  1  0
 19 20  1  0
 20 21  3  0
 10 22  1  0
 22 23  2  0
 23 24  1  0
 24 25  2  0
 25 26  1  0
 26 27  2  0
 27 28  1  0
 28 29  1  0
 29 30  1  0
 30 31  2  0
 31 32  1  0
 32 33  1  0
 32 34  1  0
 28 35  2  0
 35 36  1  0
 36 37  2  0
  9 38  2  0
 38  3  1  0
 18 14  1  0
 37 22  1  0
 36 25  1  0
 34 29  2  0
  1 39  1  0
  1 40  1  0
  1 41  1  0
  4 42  1  0
  7 43  1  0
  7 44  1  0
  7 45  1  0
  8 46  1  0
 11 47  1  0
 11 48  1  0
 12 49  1  0
 12 50  1  0
 13 51  1  0
 13 52  1  0
 15 53  1  0
 15 54  1  0
 16 55  1  0
 16 56  1  0
 17 57  1  0
 17 58  1  0
 18 59  1  6
 19 60  1  0
 19 61  1  0
 23 62  1  0
 24 63  1  0
 27 64  1  0
 30 65  1  0
 33 66  1  0
 33 67  1  0
 33 68  1  0
 34 69  1  0
 37 70  1  0
 38 71  1  0
M  END
>  <Binding energies>  (1) 
[-8.19]

>  <Ligand effiencies>  (1) 
[-0.21552631578947368]

>  <Interactions>  (1) 
["V-A:ILE:369:CG2:3237, V-A:ASP:366:CA:3210, V-B:GLU:543:C:9874, V-A:ILE:369:CB:3236, V-A:GLU:543:C:4902, V-B:HIS:456:CD2:9039, V-B:GLU:543:CB:9878, H-B:LYS:547:NZ:9923, V-B:ASP:366:CG:8184, V-B:TYR:539:CE2:9848, V-A:TYR:484:CE2:4346, V-A:ASN:370:CB:3245, V-B:LEU:475:CD2:9230, V-B:GLU:543:CG:9879, V-A:GLY:544:C:4912, V-A:ASP:366:CG:3213, V-B:TYR:539:CZ:9849, V-A:TYR:531:CE2:4793, H-B:TYR:539:OH:9850, V-A:ALA:541:CB:4892, V-B:LYS:547:CE:9922, V-A:GLU:543:CD:4908, V-A:TYR:484:CZ:4347, H-B:TYR:484:OH:9319, V-B:HIS:456:CE1:9041, V-B:GLU:543:CA:9876, V-A:HIS:456:CE1:4070, V-A:ASP:366:C:3208, V-B:GLY:544:C:9884, V-A:GLU:543:CG:4907, V-A:TYR:531:CZ:4794, V-B:GLU:543:CD:9880, V-B:HIS:456:CG:9037, V-A:ASP:366:CB:3212, V-A:GLU:543:CB:4906, H-A:TYR:484:OH:4348"]

$$$$
ZINC204146431-again1
     RDKit          3D

 72 76  0  0  0  0  0  0  0  0999 V2000
  126.0470  123.9270   61.1000 C   0  0  0  0  0  0  0  0  0  0  0  0
  126.4890  122.8900   61.9690 O   0  0  0  0  0  0  0  0  0  0  0  0
  127.8410  122.6250   62.0710 C   0  0  0  0  0  0  0  0  0  0  0  0
  128.5610  121.7990   61.1910 C   0  0  0  0  0  0  0  0  0  0  0  0
  129.9370  121.5780   61.3690 C   0  0  0  0  0  0  0  0  0  0  0  0
  130.7170  120.7840   60.5500 O   0  0  0  0  0  0  0  0  0  0  0  0
  130.8780  119.4060   60.8680 C   0  0  0  0  0  0  0  0  0  0  0  0
  130.5830  122.1950   62.4410 C   0  0  0  0  0  0  0  0  0  0  0  0
  129.8880  123.0280   63.3200 C   0  0  0  0  0  0  0  0  0  0  0  0
  130.5610  123.6400   64.3990 N   0  0  0  0  0  0  0  0  0  0  0  0
  132.0280  123.4830   64.3370 C   0  0  0  0  0  0  0  0  0  0  0  0
  132.8800  124.7570   64.5340 C   0  0  0  0  0  0  0  0  0  0  0  0
  133.9650  124.9190   63.4570 C   0  0  0  0  0  0  0  0  0  0  0  0
  133.3410  125.3960   62.1280 N   0  0  2  0  0  0  0  0  0  0  0  0
  131.9230  125.9860   62.2550 C   0  0  0  0  0  0  0  0  0  0  0  0
  131.3650  125.8480   60.8470 C   0  0  0  0  0  0  0  0  0  0  0  0
  131.8620  124.4790   60.4070 C   0  0  0  0  0  0  0  0  0  0  0  0
  133.2590  124.3000   61.0380 C   0  0  1  0  0  0  0  0  0  0  0  0
  134.4170  124.3340   60.0250 C   0  0  0  0  0  0  0  0  0  0  0  0
  133.9750  124.2920   58.6220 C   0  0  0  0  0  0  0  0  0  0  0  0
  133.6260  124.2590   57.5200 N   0  0  0  0  0  0  0  0  0  0  0  0
  130.0340  124.7910   65.0520 C   0  0  0  0  0  0  0  0  0  0  0  0
  129.5360  125.9060   64.3550 C   0  0  0  0  0  0  0  0  0  0  0  0
  129.0250  127.0210   65.0160 C   0  0  0  0  0  0  0  0  0  0  0  0
  128.9970  127.0550   66.4250 C   0  0  0  0  0  0  0  0  0  0  0  0
  128.4960  128.1460   67.0700 N   0  0  0  0  0  0  0  0  0  0  0  0
  128.4940  128.1210   68.4280 C   0  0  0  0  0  0  0  0  0  0  0  0
  128.9830  127.0310   69.1510 C   0  0  0  0  0  0  0  0  0  0  0  0
  128.9830  126.9910   70.6430 C   0  0  0  0  0  0  0  0  0  0  0  0
  127.9480  126.6040   71.5160 C   0  0  0  0  0  0  0  0  0  0  0  0
  128.2700  126.6890   72.7870 N   0  0  0  0  0  0  0  0  0  0  0  0
  129.5330  127.1280   72.7800 N   0  0  0  0  0  0  0  0  0  0  0  0
  130.2130  127.3600   74.0420 C   0  0  0  0  0  0  0  0  0  0  0  0
  130.0100  127.3350   71.5120 C   0  0  0  0  0  0  0  0  0  0  0  0
  129.4860  125.9370   68.5200 N   0  0  0  0  0  0  0  0  0  0  0  0
  129.4970  125.9380   67.1570 C   0  0  0  0  0  0  0  0  0  0  0  0
  130.0080  124.8220   66.4560 C   0  0  0  0  0  0  0  0  0  0  0  0
  128.5190  123.2320   63.1280 C   0  0  0  0  0  0  0  0  0  0  0  0
  125.6849  124.7766   61.6975 H   0  0  0  0  0  0  0  0  0  0  0  0
  126.8835  124.2551   60.4655 H   0  0  0  0  0  0  0  0  0  0  0  0
  125.2310  123.5507   60.4655 H   0  0  0  0  0  0  0  0  0  0  0  0
  128.0394  121.3183   60.3502 H   0  0  0  0  0  0  0  0  0  0  0  0
  130.8926  119.2812   61.9608 H   0  0  0  0  0  0  0  0  0  0  0  0
  130.0408  118.8317   60.4445 H   0  0  0  0  0  0  0  0  0  0  0  0
  131.8250  119.0402   60.4445 H   0  0  0  0  0  0  0  0  0  0  0  0
  131.6582  122.0222   62.5962 H   0  0  0  0  0  0  0  0  0  0  0  0
  132.3181  122.7659   65.1190 H   0  0  0  0  0  0  0  0  0  0  0  0
  132.2366  123.1569   63.3074 H   0  0  0  0  0  0  0  0  0  0  0  0
  132.2159  125.6332   64.4987 H   0  0  0  0  0  0  0  0  0  0  0  0
  133.3877  124.6695   65.5059 H   0  0  0  0  0  0  0  0  0  0  0  0
  134.7040  125.6597   63.7963 H   0  0  0  0  0  0  0  0  0  0  0  0
  134.4511  123.9460   63.2927 H   0  0  0  0  0  0  0  0  0  0  0  0
  133.9100  126.1450   61.7580 H   0  0  0  0  0  0  0  0  0  0  0  0
  131.3206  125.4144   62.9764 H   0  0  0  0  0  0  0  0  0  0  0  0
  131.9172  127.0226   62.6229 H   0  0  0  0  0  0  0  0  0  0  0  0
  130.2656  125.8849   60.8533 H   0  0  0  0  0  0  0  0  0  0  0  0
  131.6847  126.6586   60.1756 H   0  0  0  0  0  0  0  0  0  0  0  0
  131.1797  123.6936   60.7641 H   0  0  0  0  0  0  0  0  0  0  0  0
  131.9068  124.4042   59.3105 H   0  0  0  0  0  0  0  0  0  0  0  0
  133.3775  123.2950   61.4691 H   0  0  0  0  0  0  0  0  0  0  0  0
  134.9888  125.2606   60.1817 H   0  0  0  0  0  0  0  0  0  0  0  0
  135.0236  123.4330   60.1988 H   0  0  0  0  0  0  0  0  0  0  0  0
  129.5503  125.8978   63.2551 H   0  0  0  0  0  0  0  0  0  0  0  0
  128.6431  127.8754   64.4379 H   0  0  0  0  0  0  0  0  0  0  0  0
  128.0944  128.9871   68.9758 H   0  0  0  0  0  0  0  0  0  0  0  0
  126.9624  126.2626   71.1666 H   0  0  0  0  0  0  0  0  0  0  0  0
  129.5317  127.1276   74.8738 H   0  0  0  0  0  0  0  0  0  0  0  0
  131.1012  126.7141   74.1041 H   0  0  0  0  0  0  0  0  0  0  0  0
  130.5212  128.4141   74.1041 H   0  0  0  0  0  0  0  0  0  0  0  0
  131.0099  127.7016   71.2367 H   0  0  0  0  0  0  0  0  0  0  0  0
  130.3930  123.9605   67.0214 H   0  0  0  0  0  0  0  0  0  0  0  0
  127.9667  123.8823   63.8223 H   0  0  0  0  0  0  0  0  0  0  0  0
  1  2  1  0
  2  3  1  0
  3  4  2  0
  4  5  1  0
  5  6  1  0
  6  7  1  0
  5  8  2  0
  8  9  1  0
  9 10  1  0
 10 11  1  0
 11 12  1  0
 12 13  1  0
 13 14  1  0
 14 15  1  0
 15 16  1  0
 16 17  1  0
 17 18  1  0
 18 19  1  0
 19 20  1  0
 20 21  3  0
 10 22  1  0
 22 23  2  0
 23 24  1  0
 24 25  2  0
 25 26  1  0
 26 27  2  0
 27 28  1  0
 28 29  1  0
 29 30  1  0
 30 31  2  0
 31 32  1  0
 32 33  1  0
 32 34  1  0
 28 35  2  0
 35 36  1  0
 36 37  2  0
  9 38  2  0
 38  3  1  0
 18 14  1  0
 37 22  1  0
 36 25  1  0
 34 29  2  0
  1 39  1  0
  1 40  1  0
  1 41  1  0
  4 42  1  0
  7 43  1  0
  7 44  1  0
  7 45  1  0
  8 46  1  0
 11 47  1  0
 11 48  1  0
 12 49  1  0
 12 50  1  0
 13 51  1  0
 13 52  1  0
 14 53  1  6
 15 54  1  0
 15 55  1  0
 16 56  1  0
 16 57  1  0
 17 58  1  0
 17 59  1  0
 18 60  1  1
 19 61  1  0
 19 62  1  0
 23 63  1  0
 24 64  1  0
 27 65  1  0
 30 66  1  0
 33 67  1  0
 33 68  1  0
 33 69  1  0
 34 70  1  0
 37 71  1  0
 38 72  1  0
M  CHG  1  14   1
M  END
>  <Binding energies>  (1) 
[-10.02]

>  <Ligand effiencies>  (1) 
[-0.2569230769230769]

>  <Interactions>  (1) 
["V-A:ILE:369:CG2:3237, V-A:ASP:366:CA:3210, V-B:PRO:540:CA:9855, V-B:GLU:543:C:9874, V-A:ILE:369:CB:3236, V-B:GLU:543:CB:9878, H-B:LYS:547:NZ:9923, V-B:ALA:541:CB:9864, V-B:TYR:539:CE2:9848, V-A:TYR:484:CE2:4346, V-B:GLU:543:CG:9879, V-B:TYR:539:C:9839, V-A:HIS:456:CD2:4068, V-A:ASP:366:CG:3213, H-A:ASN:370:N:3244, H-B:TYR:539:OH:9850, H-B:ALA:541:N:9863, V-A:TYR:484:CZ:4347, V-B:PRO:540:CB:9857, V-A:GLU:543:CD:4908, V-B:HIS:456:CE1:9041, V-A:GLY:453:C:4042, V-A:HIS:456:CE1:4070, V-A:ILE:369:CD1:3239, V-B:GLY:544:C:9884, V-A:ASP:366:C:3208, V-B:TYR:539:CD2:9846, V-B:GLY:544:CA:9886, V-B:GLU:543:CD:9880, V-A:ASP:366:CB:3212, V-A:LEU:475:CD2:4259, V-A:ARG:545:CZ:4926, V-A:GLU:543:CB:4906, H-A:ASP:366:OD1:3214, V-A:GLY:453:CA:4044, V-B:PRO:540:C:9853, H-A:ASP:366:OD2:3215, V-B:ALA:541:CA:9862"]

$$$$
ZINC2048529344
     RDKit          3D

 78 83  0  0  0  0  0  0  0  0999 V2000
  128.2390  127.6510   69.2090 C   0  0  0  0  0  0  0  0  0  0  0  0
  129.5360  128.0030   68.6330 N   0  0  0  0  0  0  0  0  0  0  0  0
  130.5780  127.6370   69.6080 C   0  0  0  0  0  0  0  0  0  0  0  0
  130.1160  127.7560   71.0460 C   0  0  0  0  0  0  0  0  0  0  0  0
  129.4670  128.8280   71.6650 C   0  0  0  0  0  0  0  0  0  0  0  0
  129.2310  128.5400   73.0030 C   0  0  0  0  0  0  0  0  0  0  0  0
  128.5320  129.3900   74.0050 C   0  0  0  0  0  0  0  0  0  0  0  0
  129.0240  130.6720   74.2700 C   0  0  0  0  0  0  0  0  0  0  0  0
  128.3870  131.4940   75.2000 C   0  0  0  0  0  0  0  0  0  0  0  0
  127.2470  131.0420   75.8650 C   0  0  0  0  0  0  0  0  0  0  0  0
  126.7430  129.7700   75.5970 C   0  0  0  0  0  0  0  0  0  0  0  0
  127.3780  128.9460   74.6670 C   0  0  0  0  0  0  0  0  0  0  0  0
  126.8650  127.7210   74.4090 F   0  0  0  0  0  0  0  0  0  0  0  0
  129.7970  127.3040   73.2620 N   0  0  0  0  0  0  0  0  0  0  0  0
  130.5030  126.8350   74.7730 S   0  0  0  0  0  0  0  0  0  0  0  0
  131.9350  127.1450   74.7020 O   0  0  0  0  0  0  0  0  0  0  0  0
  129.6570  127.4070   75.8280 O   0  0  0  0  0  0  0  0  0  0  0  0
  130.3120  125.0570   74.8100 C   0  0  0  0  0  0  0  0  0  0  0  0
  130.9850  124.2720   75.7530 C   0  0  0  0  0  0  0  0  0  0  0  0
  130.8190  122.8880   75.6990 C   0  0  0  0  0  0  0  0  0  0  0  0
  129.9980  122.3290   74.7160 C   0  0  0  0  0  0  0  0  0  0  0  0
  129.3670  123.1840   73.8110 C   0  0  0  0  0  0  0  0  0  0  0  0
  129.5140  124.5330   73.8430 N   0  0  0  0  0  0  0  0  0  0  0  0
  130.2950  126.8380   72.0670 C   0  0  0  0  0  0  0  0  0  0  0  0
  129.6370  127.4010   67.2700 N   0  0  0  0  0  0  0  0  0  0  0  0
  128.6140  127.7650   66.2860 C   0  0  0  0  0  0  0  0  0  0  0  0
  129.8120  125.9430   67.3300 C   0  0  0  0  0  0  0  0  0  0  0  0
  130.3300  125.3060   66.0500 C   0  0  0  0  0  0  0  0  0  0  0  0
  129.5830  124.6570   65.0630 C   0  0  0  0  0  0  0  0  0  0  0  0
  130.4090  124.2170   64.0350 C   0  0  0  0  0  0  0  0  0  0  0  0
  130.0140  123.4630   62.8100 C   0  0  0  0  0  0  0  0  0  0  0  0
  130.2940  122.0950   62.7010 C   0  0  0  0  0  0  0  0  0  0  0  0
  129.9140  121.3820   61.5660 C   0  0  0  0  0  0  0  0  0  0  0  0
  129.2410  122.0270   60.5300 C   0  0  0  0  0  0  0  0  0  0  0  0
  128.9450  123.3870   60.6330 C   0  0  0  0  0  0  0  0  0  0  0  0
  129.3260  124.1030   61.7690 C   0  0  0  0  0  0  0  0  0  0  0  0
  129.0290  125.4220   61.8470 F   0  0  0  0  0  0  0  0  0  0  0  0
  131.6880  124.6370   64.3520 N   0  0  0  0  0  0  0  0  0  0  0  0
  133.1580  124.1670   63.5710 S   0  0  0  0  0  0  0  0  0  0  0  0
  134.1880  125.0820   64.0740 O   0  0  0  0  0  0  0  0  0  0  0  0
  133.2760  122.7140   63.7470 O   0  0  0  0  0  0  0  0  0  0  0  0
  132.9120  124.4830   61.8240 C   0  0  0  0  0  0  0  0  0  0  0  0
  132.2540  125.6350   61.3830 C   0  0  0  0  0  0  0  0  0  0  0  0
  132.1020  125.8230   60.0060 C   0  0  0  0  0  0  0  0  0  0  0  0
  132.6090  124.8690   59.1200 C   0  0  0  0  0  0  0  0  0  0  0  0
  133.2560  123.7480   59.6460 C   0  0  0  0  0  0  0  0  0  0  0  0
  133.4160  123.5470   60.9780 N   0  0  0  0  0  0  0  0  0  0  0  0
  131.6330  125.2420   65.5870 C   0  0  0  0  0  0  0  0  0  0  0  0
  128.3080  127.6697   70.3067 H   0  0  0  0  0  0  0  0  0  0  0  0
  127.4814  128.3760   68.8768 H   0  0  0  0  0  0  0  0  0  0  0  0
  127.9518  126.6424   68.8768 H   0  0  0  0  0  0  0  0  0  0  0  0
  130.8804  126.5957   69.4227 H   0  0  0  0  0  0  0  0  0  0  0  0
  131.4138  128.3393   69.4733 H   0  0  0  0  0  0  0  0  0  0  0  0
  129.1837  129.7655   71.1642 H   0  0  0  0  0  0  0  0  0  0  0  0
  129.9184  131.0344   73.7421 H   0  0  0  0  0  0  0  0  0  0  0  0
  128.7836  132.4985   75.4089 H   0  0  0  0  0  0  0  0  0  0  0  0
  126.7461  131.6888   76.6003 H   0  0  0  0  0  0  0  0  0  0  0  0
  125.8426  129.4152   76.1199 H   0  0  0  0  0  0  0  0  0  0  0  0
  131.6279  124.7341   76.5166 H   0  0  0  0  0  0  0  0  0  0  0  0
  131.3313  122.2405   76.4259 H   0  0  0  0  0  0  0  0  0  0  0  0
  129.8524  121.2403   74.6568 H   0  0  0  0  0  0  0  0  0  0  0  0
  128.7212  122.7446   73.0365 H   0  0  0  0  0  0  0  0  0  0  0  0
  130.7760  125.8571   71.9386 H   0  0  0  0  0  0  0  0  0  0  0  0
  127.7019  128.0895   66.8083 H   0  0  0  0  0  0  0  0  0  0  0  0
  128.9872  128.5855   65.6555 H   0  0  0  0  0  0  0  0  0  0  0  0
  128.3850  126.8932   65.6555 H   0  0  0  0  0  0  0  0  0  0  0  0
  130.5252  125.7176   68.1365 H   0  0  0  0  0  0  0  0  0  0  0  0
  128.8114  125.5195   67.5018 H   0  0  0  0  0  0  0  0  0  0  0  0
  128.4928  124.5142   65.0951 H   0  0  0  0  0  0  0  0  0  0  0  0
  130.8185  121.5790   63.5187 H   0  0  0  0  0  0  0  0  0  0  0  0
  130.1453  120.3095   61.4875 H   0  0  0  0  0  0  0  0  0  0  0  0
  128.9435  121.4650   59.6324 H   0  0  0  0  0  0  0  0  0  0  0  0
  128.4104  123.8957   59.8173 H   0  0  0  0  0  0  0  0  0  0  0  0
  131.8663  126.3736   62.1001 H   0  0  0  0  0  0  0  0  0  0  0  0
  131.5867  126.7160   59.6227 H   0  0  0  0  0  0  0  0  0  0  0  0
  132.5012  124.9976   58.0329 H   0  0  0  0  0  0  0  0  0  0  0  0
  133.6532  122.9951   58.9493 H   0  0  0  0  0  0  0  0  0  0  0  0
  132.5080  125.6239   66.1334 H   0  0  0  0  0  0  0  0  0  0  0  0
  1  2  1  0
  2  3  1  0
  3  4  1  0
  4  5  1  0
  5  6  2  0
  6  7  1  0
  7  8  2  0
  8  9  1  0
  9 10  2  0
 10 11  1  0
 11 12  2  0
 12 13  1  0
  6 14  1  0
 14 15  1  0
 15 16  2  0
 15 17  2  0
 15 18  1  0
 18 19  2  0
 19 20  1  0
 20 21  2  0
 21 22  1  0
 22 23  2  0
 14 24  1  0
  2 25  1  0
 25 26  1  0
 25 27  1  0
 27 28  1  0
 28 29  1  0
 29 30  2  0
 30 31  1  0
 31 32  2  0
 32 33  1  0
 33 34  2  0
 34 35  1  0
 35 36  2  0
 36 37  1  0
 30 38  1  0
 38 39  1  0
 39 40  2  0
 39 41  2  0
 39 42  1  0
 42 43  2  0
 43 44  1  0
 44 45  2  0
 45 46  1  0
 46 47  2  0
 38 48  1  0
 24  4  2  0
 48 28  2  0
 12  7  1  0
 23 18  1  0
 36 31  1  0
 47 42  1  0
  1 49  1  0
  1 50  1  0
  1 51  1  0
  3 52  1  0
  3 53  1  0
  5 54  1  0
  8 55  1  0
  9 56  1  0
 10 57  1  0
 11 58  1  0
 19 59  1  0
 20 60  1  0
 21 61  1  0
 22 62  1  0
 24 63  1  0
 26 64  1  0
 26 65  1  0
 26 66  1  0
 27 67  1  0
 27 68  1  0
 29 69  1  0
 32 70  1  0
 33 71  1  0
 34 72  1  0
 35 73  1  0
 43 74  1  0
 44 75  1  0
 45 76  1  0
 46 77  1  0
 48 78  1  0
M  END
>  <Binding energies>  (1) 
[-9.52]

>  <Ligand effiencies>  (1) 
[-0.19833333333333333]

>  <Interactions>  (1) 
["V-A:ILE:369:CG2:3237, V-B:PRO:540:CA:9855, V-A:GLY:454:CA:4049, V-B:HIS:456:CD2:9039, V-A:GLU:543:C:4902, V-B:GLU:543:CB:9878, H-B:LYS:547:NZ:9923, V-B:HIS:456:CB:9036, V-B:ALA:541:CB:9864, H-A:ARG:545:NH1:4927, V-B:TYR:539:CE2:9848, V-B:GLU:543:CG:9879, V-A:HIS:456:CD2:4068, V-A:ASP:366:CG:3213, V-B:LYS:547:CE:9922, V-A:GLU:543:CD:4908, V-B:HIS:456:CE1:9041, H-A:GLY:454:N:4050, V-A:HIS:456:CE1:4070, V-B:TYR:539:CD2:9846, V-A:GLU:543:CG:4907, V-B:GLU:543:CD:9880, V-A:ASP:366:CB:3212, H-A:LYS:547:NZ:4951, H-A:ARG:545:NH2:4928, V-A:LEU:475:CD2:4259, V-A:GLU:543:CB:4906, V-A:HIS:456:CG:4066, V-A:LYS:547:CE:4950, H-A:ARG:545:NE:4924, V-B:LYS:471:CE:9191, H-A:TYR:484:OH:4348"]

$$$$
ZINC2048529470
     RDKit          3D

145147  0  0  0  0  0  0  0  0999 V2000
  130.2580  117.2530   59.6900 C   0  0  0  0  0  0  0  0  0  0  0  0
  130.2880  118.0110   61.0460 C   0  0  0  0  0  0  0  0  0  0  0  0
  131.2650  117.2880   62.0090 C   0  0  0  0  0  0  0  0  0  0  0  0
  128.8670  117.9720   61.6580 C   0  0  0  0  0  0  0  0  0  0  0  0
  130.6910  119.5060   60.8920 C   0  0  0  0  0  0  0  0  0  0  0  0
  131.8550  119.8360   60.6420 O   0  0  0  0  0  0  0  0  0  0  0  0
  129.6700  120.3750   61.0840 O   0  0  0  0  0  0  0  0  0  0  0  0
  129.7560  121.7180   60.6280 C   0  0  0  0  0  0  0  0  0  0  0  0
  129.9370  122.6530   61.8430 C   0  0  1  0  0  0  0  0  0  0  0  0
  131.1050  123.4630   61.6990 O   0  0  0  0  0  0  0  0  0  0  0  0
  132.3510  122.9630   61.9320 C   0  0  0  0  0  0  0  0  0  0  0  0
  132.5870  121.8310   62.3640 O   0  0  0  0  0  0  0  0  0  0  0  0
  133.4810  123.9760   61.6050 C   0  0  0  0  0  0  0  0  0  0  0  0
  133.0410  125.4050   62.0130 C   0  0  0  0  0  0  0  0  0  0  0  0
  134.7640  123.5650   62.3670 C   0  0  0  0  0  0  0  0  0  0  0  0
  133.7970  123.9760   60.0860 C   0  0  0  0  0  0  0  0  0  0  0  0
  128.6910  123.5240   62.1990 C   0  0  1  0  0  0  0  0  0  0  0  0
  128.7240  123.8570   63.5920 O   0  0  0  0  0  0  0  0  0  0  0  0
  129.7170  123.4240   64.4150 C   0  0  0  0  0  0  0  0  0  0  0  0
  129.9980  122.2370   64.6090 O   0  0  0  0  0  0  0  0  0  0  0  0
  130.5080  124.5860   65.0800 C   0  0  0  0  0  0  0  0  0  0  0  0
  130.0450  125.9370   64.4790 C   0  0  0  0  0  0  0  0  0  0  0  0
  130.2900  124.5850   66.6130 C   0  0  0  0  0  0  0  0  0  0  0  0
  132.0280  124.4250   64.8070 C   0  0  0  0  0  0  0  0  0  0  0  0
  128.4060  124.8050   61.3520 C   0  0  2  0  0  0  0  0  0  0  0  0
  128.1710  124.3640   60.0100 O   0  0  0  0  0  0  0  0  0  0  0  0
  127.0110  123.7470   59.6390 C   0  0  0  0  0  0  0  0  0  0  0  0
  126.1630  123.3150   60.4240 O   0  0  0  0  0  0  0  0  0  0  0  0
  126.8560  123.6070   58.0990 C   0  0  0  0  0  0  0  0  0  0  0  0
  127.2130  122.1720   57.6320 C   0  0  0  0  0  0  0  0  0  0  0  0
  125.3870  123.9150   57.7320 C   0  0  0  0  0  0  0  0  0  0  0  0
  127.7630  124.6210   57.3550 C   0  0  0  0  0  0  0  0  0  0  0  0
  129.4400  125.9820   61.4550 C   0  0  1  0  0  0  0  0  0  0  0  0
  130.6770  125.5840   60.8450 O   0  0  0  0  0  0  0  0  0  0  0  0
  130.7600  125.2200   59.5350 C   0  0  0  0  0  0  0  0  0  0  0  0
  130.4520  124.1080   59.0940 O   0  0  0  0  0  0  0  0  0  0  0  0
  131.2780  126.3600   58.6140 C   0  0  0  0  0  0  0  0  0  0  0  0
  131.6240  127.5920   59.4840 C   0  0  0  0  0  0  0  0  0  0  0  0
  132.5360  125.9020   57.8360 C   0  0  0  0  0  0  0  0  0  0  0  0
  130.1890  126.7790   57.5900 C   0  0  0  0  0  0  0  0  0  0  0  0
  128.9390  127.3110   60.7970 C   0  0  1  0  0  0  0  0  0  0  0  0
  127.6380  127.1010   60.2340 O   0  0  0  0  0  0  0  0  0  0  0  0
  127.2250  127.7260   59.0960 C   0  0  0  0  0  0  0  0  0  0  0  0
  127.3770  127.2760   57.9560 O   0  0  0  0  0  0  0  0  0  0  0  0
  126.5490  129.1000   59.3670 C   0  0  0  0  0  0  0  0  0  0  0  0
  127.6090  130.2210   59.2220 C   0  0  0  0  0  0  0  0  0  0  0  0
  125.4140  129.3670   58.3430 C   0  0  0  0  0  0  0  0  0  0  0  0
  125.9460  129.1360   60.7910 C   0  0  0  0  0  0  0  0  0  0  0  0
  128.9500  128.5050   61.7750 C   0  0  0  0  0  0  0  0  0  0  0  0
  129.6480  129.6860   61.4980 C   0  0  0  0  0  0  0  0  0  0  0  0
  129.5660  130.7770   62.3620 C   0  0  0  0  0  0  0  0  0  0  0  0
  128.7680  130.7150   63.5060 C   0  0  0  0  0  0  0  0  0  0  0  0
  128.6540  132.1200   64.5080 Cl  0  0  0  0  0  0  0  0  0  0  0  0
  128.0670  129.5340   63.7980 C   0  0  0  0  0  0  0  0  0  0  0  0
  127.1010  129.4090   64.9730 C   0  0  0  0  0  0  0  0  0  0  0  0
  127.8300  129.0000   66.2460 C   0  0  0  0  0  0  0  0  0  0  0  0
  127.9980  129.9220   67.2820 C   0  0  0  0  0  0  0  0  0  0  0  0
  128.7090  129.5640   68.4220 C   0  0  0  0  0  0  0  0  0  0  0  0
  129.2500  128.2830   68.5470 C   0  0  0  0  0  0  0  0  0  0  0  0
  129.9640  128.0310   69.7040 O   0  0  0  0  0  0  0  0  0  0  0  0
  129.2900  127.9030   70.9590 C   0  0  1  0  0  0  0  0  0  0  0  0
  129.9890  126.8250   71.7780 C   0  0  0  0  0  0  0  0  0  0  0  0
  130.7290  127.5780   72.8870 C   0  0  0  0  0  0  0  0  0  0  0  0
  130.6720  128.9530   72.5220 O   0  0  0  0  0  0  0  0  0  0  0  0
  129.4660  129.1700   71.8030 C   0  0  0  0  0  0  0  0  0  0  0  0
  129.0540  127.3520   67.5150 C   0  0  0  0  0  0  0  0  0  0  0  0
  128.3430  127.7090   66.3730 C   0  0  0  0  0  0  0  0  0  0  0  0
  128.1970  128.4350   62.9460 C   0  0  0  0  0  0  0  0  0  0  0  0
  130.2151  116.1697   59.8763 H   0  0  0  0  0  0  0  0  0  0  0  0
  129.3714  117.5618   59.1168 H   0  0  0  0  0  0  0  0  0  0  0  0
  131.1663  117.4908   59.1168 H   0  0  0  0  0  0  0  0  0  0  0  0
  130.9783  117.5002   63.0496 H   0  0  0  0  0  0  0  0  0  0  0  0
  131.2206  116.2035   61.8303 H   0  0  0  0  0  0  0  0  0  0  0  0
  132.2891  117.6474   61.8303 H   0  0  0  0  0  0  0  0  0  0  0  0
  128.9403  117.9740   62.7556 H   0  0  0  0  0  0  0  0  0  0  0  0
  128.3007  118.8549   61.3267 H   0  0  0  0  0  0  0  0  0  0  0  0
  128.3500  117.0593   61.3267 H   0  0  0  0  0  0  0  0  0  0  0  0
  130.6167  121.8228   59.9510 H   0  0  0  0  0  0  0  0  0  0  0  0
  128.8359  121.9858   60.0879 H   0  0  0  0  0  0  0  0  0  0  0  0
  130.0642  121.9774   62.7017 H   0  0  0  0  0  0  0  0  0  0  0  0
  133.0172  125.4821   63.1100 H   0  0  0  0  0  0  0  0  0  0  0  0
  133.7551  126.1378   61.6093 H   0  0  0  0  0  0  0  0  0  0  0  0
  132.0384  125.6092   61.6093 H   0  0  0  0  0  0  0  0  0  0  0  0
  134.5817  123.6234   63.4502 H   0  0  0  0  0  0  0  0  0  0  0  0
  135.0371  122.5344   62.0962 H   0  0  0  0  0  0  0  0  0  0  0  0
  135.5851  124.2451   62.0962 H   0  0  0  0  0  0  0  0  0  0  0  0
  133.8717  122.9389   59.7270 H   0  0  0  0  0  0  0  0  0  0  0  0
  132.9924  124.4945   59.5441 H   0  0  0  0  0  0  0  0  0  0  0  0
  134.7510  124.4945   59.9099 H   0  0  0  0  0  0  0  0  0  0  0  0
  127.8474  122.8704   61.9321 H   0  0  0  0  0  0  0  0  0  0  0  0
  129.8050  126.6372   65.2927 H   0  0  0  0  0  0  0  0  0  0  0  0
  130.8503  126.3576   63.8588 H   0  0  0  0  0  0  0  0  0  0  0  0
  129.1510  125.7753   63.8588 H   0  0  0  0  0  0  0  0  0  0  0  0
  131.2651  124.5895   67.1220 H   0  0  0  0  0  0  0  0  0  0  0  0
  129.7209  125.4805   66.9030 H   0  0  0  0  0  0  0  0  0  0  0  0
  129.7291  123.6843   66.9030 H   0  0  0  0  0  0  0  0  0  0  0  0
  132.5683  124.3678   65.7635 H   0  0  0  0  0  0  0  0  0  0  0  0
  132.2017  123.5034   64.2321 H   0  0  0  0  0  0  0  0  0  0  0  0
  132.3909  125.2897   64.2321 H   0  0  0  0  0  0  0  0  0  0  0  0
  127.5222  125.2991   61.7819 H   0  0  0  0  0  0  0  0  0  0  0  0
  127.3728  121.5296   58.5105 H   0  0  0  0  0  0  0  0  0  0  0  0
  126.3881  121.7674   57.0271 H   0  0  0  0  0  0  0  0  0  0  0  0
  128.1313  122.2011   57.0271 H   0  0  0  0  0  0  0  0  0  0  0  0
  124.7973  124.0386   58.6523 H   0  0  0  0  0  0  0  0  0  0  0  0
  125.3432  124.8418   57.1412 H   0  0  0  0  0  0  0  0  0  0  0  0
  124.9746  123.0838   57.1412 H   0  0  0  0  0  0  0  0  0  0  0  0
  128.3092  125.2317   58.0890 H   0  0  0  0  0  0  0  0  0  0  0  0
  128.4810  124.0766   56.7241 H   0  0  0  0  0  0  0  0  0  0  0  0
  127.1422  125.2741   56.7241 H   0  0  0  0  0  0  0  0  0  0  0  0
  129.5775  126.1912   62.5261 H   0  0  0  0  0  0  0  0  0  0  0  0
  131.5483  127.3226   60.5478 H   0  0  0  0  0  0  0  0  0  0  0  0
  132.6495  127.9218   59.2613 H   0  0  0  0  0  0  0  0  0  0  0  0
  130.9201  128.4075   59.2613 H   0  0  0  0  0  0  0  0  0  0  0  0
  133.3235  125.6153   58.5484 H   0  0  0  0  0  0  0  0  0  0  0  0
  132.2818  125.0387   57.2034 H   0  0  0  0  0  0  0  0  0  0  0  0
  132.8963  126.7266   57.2034 H   0  0  0  0  0  0  0  0  0  0  0  0
  129.2933  127.1236   58.1276 H   0  0  0  0  0  0  0  0  0  0  0  0
  130.5735  127.5934   56.9584 H   0  0  0  0  0  0  0  0  0  0  0  0
  129.9285  125.9169   56.9584 H   0  0  0  0  0  0  0  0  0  0  0  0
  129.6428  127.5801   59.9956 H   0  0  0  0  0  0  0  0  0  0  0  0
  127.9265  130.5568   60.2202 H   0  0  0  0  0  0  0  0  0  0  0  0
  128.4791  129.8339   58.6714 H   0  0  0  0  0  0  0  0  0  0  0  0
  127.1739  131.0681   58.6714 H   0  0  0  0  0  0  0  0  0  0  0  0
  124.4797  129.5868   58.8803 H   0  0  0  0  0  0  0  0  0  0  0  0
  125.6846  130.2260   57.7114 H   0  0  0  0  0  0  0  0  0  0  0  0
  125.2732  128.4775   57.7114 H   0  0  0  0  0  0  0  0  0  0  0  0
  126.7561  129.0876   61.5336 H   0  0  0  0  0  0  0  0  0  0  0  0
  125.3801  130.0695   60.9260 H   0  0  0  0  0  0  0  0  0  0  0  0
  125.2730  128.2764   60.9260 H   0  0  0  0  0  0  0  0  0  0  0  0
  130.2665  129.7540   60.5909 H   0  0  0  0  0  0  0  0  0  0  0  0
  130.1338  131.6928   62.1410 H   0  0  0  0  0  0  0  0  0  0  0  0
  126.6090  130.3790   65.1375 H   0  0  0  0  0  0  0  0  0  0  0  0
  126.3594  128.6330   64.7324 H   0  0  0  0  0  0  0  0  0  0  0  0
  127.5680  130.9308   67.1959 H   0  0  0  0  0  0  0  0  0  0  0  0
  128.8463  130.2958   69.2317 H   0  0  0  0  0  0  0  0  0  0  0  0
  128.2318  127.6916   70.7455 H   0  0  0  0  0  0  0  0  0  0  0  0
  129.2530  126.1301   72.2087 H   0  0  0  0  0  0  0  0  0  0  0  0
  130.6738  126.2220   71.1636 H   0  0  0  0  0  0  0  0  0  0  0  0
  130.2340  127.4174   73.8561 H   0  0  0  0  0  0  0  0  0  0  0  0
  131.7665  127.2284   72.9932 H   0  0  0  0  0  0  0  0  0  0  0  0
  128.6193  129.2982   72.4934 H   0  0  0  0  0  0  0  0  0  0  0  0
  129.5037  130.0810   71.1876 H   0  0  0  0  0  0  0  0  0  0  0  0
  129.4642  126.3357   67.6092 H   0  0  0  0  0  0  0  0  0  0  0  0
  128.1856  126.9732   65.5706 H   0  0  0  0  0  0  0  0  0  0  0  0
  127.6933  127.4920   63.2051 H   0  0  0  0  0  0  0  0  0  0  0  0
  1  2  1  0
  2  3  1  0
  2  4  1  0
  2  5  1  0
  5  6  2  0
  5  7  1  0
  7  8  1  0
  8  9  1  0
  9 10  1  0
 10 11  1  0
 11 12  2  0
 11 13  1  0
 13 14  1  0
 13 15  1  0
 13 16  1  0
  9 17  1  0
 17 18  1  0
 18 19  1  0
 19 20  2  0
 19 21  1  0
 21 22  1  0
 21 23  1  0
 21 24  1  0
 17 25  1  0
 25 26  1  0
 26 27  1  0
 27 28  2  0
 27 29  1  0
 29 30  1  0
 29 31  1  0
 29 32  1  0
 25 33  1  0
 33 34  1  0
 34 35  1  0
 35 36  2  0
 35 37  1  0
 37 38  1  0
 37 39  1  0
 37 40  1  0
 33 41  1  0
 41 42  1  0
 42 43  1  0
 43 44  2  0
 43 45  1  0
 45 46  1  0
 45 47  1  0
 45 48  1  0
 41 49  1  0
 49 50  2  0
 50 51  1  0
 51 52  2  0
 52 53  1  0
 52 54  1  0
 54 55  1  0
 55 56  1  0
 56 57  2  0
 57 58  1  0
 58 59  2  0
 59 60  1  0
 60 61  1  0
 61 62  1  0
 62 63  1  0
 63 64  1  0
 64 65  1  0
 59 66  1  0
 66 67  2  0
 54 68  2  0
 68 49  1  0
 67 56  1  0
 65 61  1  0
  1 69  1  0
  1 70  1  0
  1 71  1  0
  3 72  1  0
  3 73  1  0
  3 74  1  0
  4 75  1  0
  4 76  1  0
  4 77  1  0
  8 78  1  0
  8 79  1  0
  9 80  1  1
 14 81  1  0
 14 82  1  0
 14 83  1  0
 15 84  1  0
 15 85  1  0
 15 86  1  0
 16 87  1  0
 16 88  1  0
 16 89  1  0
 17 90  1  1
 22 91  1  0
 22 92  1  0
 22 93  1  0
 23 94  1  0
 23 95  1  0
 23 96  1  0
 24 97  1  0
 24 98  1  0
 24 99  1  0
 25100  1  1
 30101  1  0
 30102  1  0
 30103  1  0
 31104  1  0
 31105  1  0
 31106  1  0
 32107  1  0
 32108  1  0
 32109  1  0
 33110  1  1
 38111  1  0
 38112  1  0
 38113  1  0
 39114  1  0
 39115  1  0
 39116  1  0
 40117  1  0
 40118  1  0
 40119  1  0
 41120  1  6
 46121  1  0
 46122  1  0
 46123  1  0
 47124  1  0
 47125  1  0
 47126  1  0
 48127  1  0
 48128  1  0
 48129  1  0
 50130  1  0
 51131  1  0
 55132  1  0
 55133  1  0
 57134  1  0
 58135  1  0
 61136  1  6
 62137  1  0
 62138  1  0
 63139  1  0
 63140  1  0
 65141  1  0
 65142  1  0
 66143  1  0
 67144  1  0
 68145  1  0
M  END
>  <Binding energies>  (1) 
[-8.26]

>  <Ligand effiencies>  (1) 
[-0.12147058823529411]

>  <Interactions>  (1) 
["V-B:TYR:539:CA:9841, V-A:ASP:366:CA:3210, V-A:ILE:369:CG2:3237, V-B:PRO:540:CA:9855, V-A:GLY:454:CA:4049, V-A:GLU:543:CA:4904, V-A:ILE:369:CB:3236, V-A:GLU:543:C:4902, V-B:HIS:456:CD2:9039, V-B:GLU:543:CB:9878, V-B:ALA:541:CB:9864, V-B:ASP:366:CG:8184, V-B:TYR:539:CE2:9848, V-A:TYR:484:CE2:4346, V-A:LEU:475:CG:4257, V-B:GLU:543:CG:9879, V-A:GLY:544:C:4912, V-B:TYR:539:C:9839, V-A:ASP:366:CG:3213, V-A:HIS:456:CD2:4068, V-B:TYR:484:CE2:9317, V-B:TYR:531:CZ:9766, H-B:TYR:539:OH:9850, V-B:VAL:344:CG1:7972, V-A:ALA:541:CB:4892, V-A:LEU:475:CD1:4258, V-A:HIS:383:CE1:3393, V-B:TYR:539:CB:9843, V-A:GLU:543:CD:4908, V-A:TYR:484:CZ:4347, V-B:PRO:540:CB:9857, V-B:ASP:366:CB:8183, V-B:HIS:456:CE1:9041, V-A:GLY:453:C:4042, V-B:PRO:540:N:9856, V-A:ILE:369:CD1:3239, V-A:HIS:456:CE1:4070, V-B:TYR:484:CZ:9318, V-A:ASP:366:C:3208, V-A:PRO:482:CB:4326, V-B:TYR:539:CD2:9846, V-B:PRO:540:CD:9859, V-A:SER:385:CB:3409, H-A:SER:385:OG:3410, V-B:GLU:543:CD:9880, V-A:GLU:543:CG:4907, H-B:TYR:531:OH:9767, V-A:ASP:366:CB:3212, H-A:LYS:547:NZ:4951, V-A:LEU:475:CD2:4259, V-A:ARG:545:CZ:4926, V-B:TYR:539:CG:9844, V-A:GLU:543:CB:4906, V-B:TYR:539:CD1:9845, V-B:LEU:363:CD1:8160, V-A:PRO:482:CG:4327, V-A:GLY:453:CA:4044, V-B:PRO:540:C:9853, V-B:ALA:541:CA:9862, V-A:HIS:383:NE2:3394, H-A:TYR:484:OH:4348"]

$$$$
ZINC2053377053
     RDKit          3D

 59 60  0  0  0  0  0  0  0  0999 V2000
  130.1690  127.5660   60.8870 C   0  0  0  0  0  0  0  0  0  0  0  0
  129.0960  126.8280   61.7270 C   0  0  0  0  0  0  0  0  0  0  0  0
  128.6020  127.7950   62.8280 C   0  0  0  0  0  0  0  0  0  0  0  0
  129.5730  125.4060   62.2280 C   0  0  2  0  0  0  0  0  0  0  0  0
  128.3940  124.5700   62.5400 N   0  0  0  0  0  0  0  0  0  0  0  0
  127.7810  123.6330   61.7070 C   0  0  0  0  0  0  0  0  0  0  0  0
  126.7950  122.9760   62.0370 O   0  0  0  0  0  0  0  0  0  0  0  0
  128.4120  123.5330   60.4990 O   0  0  0  0  0  0  0  0  0  0  0  0
  127.8760  123.9540   59.2340 C   0  0  0  0  0  0  0  0  0  0  0  0
  127.6030  122.7400   58.3100 C   0  0  0  0  0  0  0  0  0  0  0  0
  126.6020  124.8120   59.4180 C   0  0  0  0  0  0  0  0  0  0  0  0
  128.9950  124.8200   58.6210 C   0  0  0  0  0  0  0  0  0  0  0  0
  130.6290  125.3450   63.4190 C   0  0  2  0  0  0  0  0  0  0  0  0
  129.8890  125.3450   64.7860 C   0  0  0  0  0  0  0  0  0  0  0  0
  131.3470  126.5620   63.4120 O   0  0  0  0  0  0  0  0  0  0  0  0
  131.7110  124.1570   63.3470 C   0  0  1  0  0  0  0  0  0  0  0  0
  132.8360  124.5480   64.2330 C   0  0  0  0  0  0  0  0  0  0  0  0
  133.7140  124.8530   64.9250 N   0  0  0  0  0  0  0  0  0  0  0  0
  131.1890  122.8040   63.9350 C   0  0  0  0  0  0  0  0  0  0  0  0
  130.1840  122.0590   63.0340 C   0  0  0  0  0  0  0  0  0  0  0  0
  130.7730  121.7700   61.6410 C   0  0  0  0  0  0  0  0  0  0  0  0
  131.3680  123.0210   60.9690 C   0  0  0  0  0  0  0  0  0  0  0  0
  132.3210  123.7850   61.9250 C   0  0  0  0  0  0  0  0  0  0  0  0
  133.3700  124.6940   61.2930 C   0  0  0  0  0  0  0  0  0  0  0  0
  133.7860  123.3520   61.8230 C   0  0  0  0  0  0  0  0  0  0  0  0
  130.8860  128.0592   61.5598 H   0  0  0  0  0  0  0  0  0  0  0  0
  130.7003  126.8413   60.2525 H   0  0  0  0  0  0  0  0  0  0  0  0
  129.6823  128.3213   60.2525 H   0  0  0  0  0  0  0  0  0  0  0  0
  128.2292  126.5681   61.1016 H   0  0  0  0  0  0  0  0  0  0  0  0
  128.8208  127.3667   63.8173 H   0  0  0  0  0  0  0  0  0  0  0  0
  129.1167  128.7617   62.7249 H   0  0  0  0  0  0  0  0  0  0  0  0
  127.5171  127.9445   62.7249 H   0  0  0  0  0  0  0  0  0  0  0  0
  130.1507  125.0145   61.3777 H   0  0  0  0  0  0  0  0  0  0  0  0
  127.9760  124.7120   63.4470 H   0  0  0  0  0  0  0  0  0  0  0  0
  127.4028  121.8496   58.9240 H   0  0  0  0  0  0  0  0  0  0  0  0
  126.7300  122.9515   57.6751 H   0  0  0  0  0  0  0  0  0  0  0  0
  128.4825  122.5574   57.6751 H   0  0  0  0  0  0  0  0  0  0  0  0
  126.4024  124.9465   60.4913 H   0  0  0  0  0  0  0  0  0  0  0  0
  126.7506  125.7948   58.9467 H   0  0  0  0  0  0  0  0  0  0  0  0
  125.7472  124.3049   58.9467 H   0  0  0  0  0  0  0  0  0  0  0  0
  129.5871  125.2782   59.4269 H   0  0  0  0  0  0  0  0  0  0  0  0
  129.6478  124.1895   57.9994 H   0  0  0  0  0  0  0  0  0  0  0  0
  128.5484  125.6100   57.9994 H   0  0  0  0  0  0  0  0  0  0  0  0
  129.7144  124.3079   65.1084 H   0  0  0  0  0  0  0  0  0  0  0  0
  130.5043  125.8635   65.5360 H   0  0  0  0  0  0  0  0  0  0  0  0
  128.9246  125.8635   64.6809 H   0  0  0  0  0  0  0  0  0  0  0  0
  131.2680  126.9650   64.2800 H   0  0  0  0  0  0  0  0  0  0  0  0
  132.0543  122.1456   64.1017 H   0  0  0  0  0  0  0  0  0  0  0  0
  130.6520  123.0530   64.8622 H   0  0  0  0  0  0  0  0  0  0  0  0
  129.9153  121.1055   63.5122 H   0  0  0  0  0  0  0  0  0  0  0  0
  129.2987  122.6991   62.9057 H   0  0  0  0  0  0  0  0  0  0  0  0
  131.5677  121.0167   61.7457 H   0  0  0  0  0  0  0  0  0  0  0  0
  129.9508  121.4131   61.0033 H   0  0  0  0  0  0  0  0  0  0  0  0
  131.9307  122.7126   60.0756 H   0  0  0  0  0  0  0  0  0  0  0  0
  130.5400  123.6932   60.6996 H   0  0  0  0  0  0  0  0  0  0  0  0
  133.3566  124.8744   60.2080 H   0  0  0  0  0  0  0  0  0  0  0  0
  133.7003  125.7292   61.4641 H   0  0  0  0  0  0  0  0  0  0  0  0
  134.0746  122.5518   61.1256 H   0  0  0  0  0  0  0  0  0  0  0  0
  134.5431  123.0021   62.5402 H   0  0  0  0  0  0  0  0  0  0  0  0
  1  2  1  0
  2  3  1  0
  2  4  1  0
  4  5  1  0
  5  6  1  0
  6  7  2  0
  6  8  1  0
  8  9  1  0
  9 10  1  0
  9 11  1  0
  9 12  1  0
  4 13  1  0
 13 14  1  0
 13 15  1  1
 13 16  1  0
 16 17  1  1
 17 18  3  0
 16 19  1  0
 19 20  1  0
 20 21  1  0
 21 22  1  0
 22 23  1  0
 23 24  1  0
 24 25  1  0
 23 16  1  0
 25 23  1  0
  1 26  1  0
  1 27  1  0
  1 28  1  0
  2 29  1  0
  3 30  1  0
  3 31  1  0
  3 32  1  0
  4 33  1  6
  5 34  1  0
 10 35  1  0
 10 36  1  0
 10 37  1  0
 11 38  1  0
 11 39  1  0
 11 40  1  0
 12 41  1  0
 12 42  1  0
 12 43  1  0
 14 44  1  0
 14 45  1  0
 14 46  1  0
 15 47  1  0
 19 48  1  0
 19 49  1  0
 20 50  1  0
 20 51  1  0
 21 52  1  0
 21 53  1  0
 22 54  1  0
 22 55  1  0
 24 56  1  0
 24 57  1  0
 25 58  1  0
 25 59  1  0
M  END
>  <Binding energies>  (1) 
[-6.81]

>  <Ligand effiencies>  (1) 
[-0.2522222222222222]

>  <Interactions>  (1) 
["V-B:PRO:540:CA:9855, H-A:GLU:543:OE2:4910, V-B:ALA:541:CB:9864, V-B:TYR:539:CE2:9848, V-B:GLU:543:CG:9879, V-B:TYR:539:C:9839, V-A:ASP:366:CG:3213, H-B:GLU:543:OE1:9881, H-B:ALA:541:N:9863, H-A:GLY:454:N:4050, V-B:PRO:540:N:9856, V-A:ILE:369:CD1:3239, V-B:TYR:539:CD2:9846, V-B:GLU:543:CD:9880, V-A:LEU:475:CD2:4259, H-A:ARG:545:NH2:4928, V-A:ARG:545:CZ:4926, H-A:GLU:543:OE1:4909, H-B:GLU:543:OE2:9882, H-A:ARG:545:NE:4924, H-A:TYR:484:OH:4348"]

$$$$
ZINC2053578005
     RDKit          3D

 76 79  0  0  0  0  0  0  0  0999 V2000
  130.9980  132.1370   56.6020 C   0  0  0  0  0  0  0  0  0  0  0  0
  130.1720  131.3390   57.6310 C   0  0  0  0  0  0  0  0  0  0  0  0
  129.3990  132.2880   58.5700 C   0  0  0  0  0  0  0  0  0  0  0  0
  131.0300  130.2750   58.3750 C   0  0  2  0  0  0  0  0  0  0  0  0
  132.5420  130.4650   58.1450 C   0  0  0  0  0  0  0  0  0  0  0  0
  130.6030  128.8350   58.1090 C   0  0  0  0  0  0  0  0  0  0  0  0
  129.3250  128.4140   58.1270 C   0  0  0  0  0  0  0  0  0  0  0  0
  128.7950  127.0020   57.8680 C   0  0  2  0  0  0  0  0  0  0  0  0
  129.0870  126.4660   56.4470 C   0  0  0  0  0  0  0  0  0  0  0  0
  127.2960  126.7770   58.2770 C   0  0  2  0  0  0  0  0  0  0  0  0
  126.7230  127.8690   59.2000 C   0  0  0  0  0  0  0  0  0  0  0  0
  126.9670  127.3520   60.6150 C   0  0  0  0  0  0  0  0  0  0  0  0
  126.8930  125.8020   60.5390 C   0  0  2  0  0  0  0  0  0  0  0  0
  127.9030  124.9850   61.3940 C   0  0  0  0  0  0  0  0  0  0  0  0
  128.6660  125.5630   62.3520 C   0  0  0  0  0  0  0  0  0  0  0  0
  129.5720  124.8850   63.2580 C   0  0  0  0  0  0  0  0  0  0  0  0
  130.2020  125.5460   64.0870 O   0  0  0  0  0  0  0  0  0  0  0  0
  129.7080  123.3440   63.1280 C   0  0  2  0  0  0  0  0  0  0  0  0
  128.8550  122.8090   64.1300 O   0  0  0  0  0  0  0  0  0  0  0  0
  131.1570  122.8820   63.5310 C   0  0  0  0  0  0  0  0  0  0  0  0
  132.2710  123.1640   62.4890 C   0  0  2  0  0  0  0  0  0  0  0  0
  132.6080  124.5380   62.4380 O   0  0  0  0  0  0  0  0  0  0  0  0
  131.8550  122.6730   61.0890 C   0  0  0  0  0  0  0  0  0  0  0  0
  130.4660  123.2180   60.6950 C   0  0  0  0  0  0  0  0  0  0  0  0
  129.3080  122.8150   61.6800 C   0  0  1  0  0  0  0  0  0  0  0  0
  129.1970  121.2480   61.6950 C   0  0  0  0  0  0  0  0  0  0  0  0
  127.9190  123.4430   61.1780 C   0  0  1  0  0  0  0  0  0  0  0  0
  126.8370  122.9310   61.9460 O   0  0  0  0  0  0  0  0  0  0  0  0
  127.5850  123.0760   59.6850 C   0  0  0  0  0  0  0  0  0  0  0  0
  127.7820  124.2160   58.6730 C   0  0  0  0  0  0  0  0  0  0  0  0
  126.8920  125.4440   59.0060 C   0  0  2  0  0  0  0  0  0  0  0  0
  125.4370  125.0830   58.5690 C   0  0  0  0  0  0  0  0  0  0  0  0
  131.6921  132.8076   57.1297 H   0  0  0  0  0  0  0  0  0  0  0  0
  131.5696  131.4404   55.9711 H   0  0  0  0  0  0  0  0  0  0  0  0
  130.3215  132.7323   55.9711 H   0  0  0  0  0  0  0  0  0  0  0  0
  129.4129  130.7573   57.0875 H   0  0  0  0  0  0  0  0  0  0  0  0
  129.6139  132.0241   59.6160 H   0  0  0  0  0  0  0  0  0  0  0  0
  129.7123  133.3255   58.3818 H   0  0  0  0  0  0  0  0  0  0  0  0
  128.3196  132.1911   58.3818 H   0  0  0  0  0  0  0  0  0  0  0  0
  130.8307  130.4573   59.4413 H   0  0  0  0  0  0  0  0  0  0  0  0
  133.0553  130.5295   59.1158 H   0  0  0  0  0  0  0  0  0  0  0  0
  132.9369  129.6094   57.5775 H   0  0  0  0  0  0  0  0  0  0  0  0
  132.7130  131.3917   57.5775 H   0  0  0  0  0  0  0  0  0  0  0  0
  131.3874  128.0958   57.8891 H   0  0  0  0  0  0  0  0  0  0  0  0
  128.5683  129.1788   58.3560 H   0  0  0  0  0  0  0  0  0  0  0  0
  129.3896  126.3887   58.5610 H   0  0  0  0  0  0  0  0  0  0  0  0
  129.6121  125.5021   56.5194 H   0  0  0  0  0  0  0  0  0  0  0  0
  128.1396  126.3276   55.9054 H   0  0  0  0  0  0  0  0  0  0  0  0
  129.7170  127.1870   55.9054 H   0  0  0  0  0  0  0  0  0  0  0  0
  126.8822  126.7715   57.2578 H   0  0  0  0  0  0  0  0  0  0  0  0
  127.2454  128.8239   59.0410 H   0  0  0  0  0  0  0  0  0  0  0  0
  125.6571  128.0591   59.0058 H   0  0  0  0  0  0  0  0  0  0  0  0
  127.9595  127.6679   60.9688 H   0  0  0  0  0  0  0  0  0  0  0  0
  126.2209  127.7512   61.3178 H   0  0  0  0  0  0  0  0  0  0  0  0
  125.9679  125.4767   61.0373 H   0  0  0  0  0  0  0  0  0  0  0  0
  128.5908  126.6558   62.4527 H   0  0  0  0  0  0  0  0  0  0  0  0
  127.9590  122.7850   63.7870 H   0  0  0  0  0  0  0  0  0  0  0  0
  131.4286  123.3987   64.4633 H   0  0  0  0  0  0  0  0  0  0  0  0
  131.1059  121.7871   63.6240 H   0  0  0  0  0  0  0  0  0  0  0  0
  133.1617  122.6057   62.8131 H   0  0  0  0  0  0  0  0  0  0  0  0
  131.9770  125.0280   62.9720 H   0  0  0  0  0  0  0  0  0  0  0  0
  132.5970  123.0168   60.3533 H   0  0  0  0  0  0  0  0  0  0  0  0
  131.8054  121.5743   61.1063 H   0  0  0  0  0  0  0  0  0  0  0  0
  130.5236  124.3160   60.6623 H   0  0  0  0  0  0  0  0  0  0  0  0
  130.2186  122.7730   59.7199 H   0  0  0  0  0  0  0  0  0  0  0  0
  129.1718  120.8921   62.7355 H   0  0  0  0  0  0  0  0  0  0  0  0
  128.2748  120.9408   61.1800 H   0  0  0  0  0  0  0  0  0  0  0  0
  130.0666  120.8139   61.1800 H   0  0  0  0  0  0  0  0  0  0  0  0
  126.4100  123.6640   62.3960 H   0  0  0  0  0  0  0  0  0  0  0  0
  128.2340  122.2395   59.3865 H   0  0  0  0  0  0  0  0  0  0  0  0
  126.5133  122.8289   59.6629 H   0  0  0  0  0  0  0  0  0  0  0  0
  128.8371  124.5267   58.6878 H   0  0  0  0  0  0  0  0  0  0  0  0
  127.4928  123.8441   57.6790 H   0  0  0  0  0  0  0  0  0  0  0  0
  124.8137  124.9283   59.4620 H   0  0  0  0  0  0  0  0  0  0  0  0
  125.0199  125.9049   57.9686 H   0  0  0  0  0  0  0  0  0  0  0  0
  125.4525  124.1615   57.9686 H   0  0  0  0  0  0  0  0  0  0  0  0
  1  2  1  0
  2  3  1  0
  2  4  1  0
  4  5  1  0
  4  6  1  0
  6  7  2  0
  7  8  1  0
  8  9  1  0
  8 10  1  0
 10 11  1  0
 11 12  1  0
 12 13  1  0
 13 14  1  0
 14 15  2  0
 15 16  1  0
 16 17  2  0
 16 18  1  0
 18 19  1  1
 18 20  1  0
 20 21  1  0
 21 22  1  0
 21 23  1  0
 23 24  1  0
 24 25  1  0
 25 26  1  1
 25 27  1  0
 27 28  1  1
 27 29  1  0
 29 30  1  0
 30 31  1  0
 31 32  1  6
 31 10  1  0
 31 13  1  0
 27 14  1  0
 25 18  1  0
  1 33  1  0
  1 34  1  0
  1 35  1  0
  2 36  1  0
  3 37  1  0
  3 38  1  0
  3 39  1  0
  4 40  1  1
  5 41  1  0
  5 42  1  0
  5 43  1  0
  6 44  1  0
  7 45  1  0
  8 46  1  1
  9 47  1  0
  9 48  1  0
  9 49  1  0
 10 50  1  6
 11 51  1  0
 11 52  1  0
 12 53  1  0
 12 54  1  0
 13 55  1  1
 15 56  1  0
 19 57  1  0
 20 58  1  0
 20 59  1  0
 21 60  1  1
 22 61  1  0
 23 62  1  0
 23 63  1  0
 24 64  1  0
 24 65  1  0
 26 66  1  0
 26 67  1  0
 26 68  1  0
 28 69  1  0
 29 70  1  0
 29 71  1  0
 30 72  1  0
 30 73  1  0
 32 74  1  0
 32 75  1  0
 32 76  1  0
M  END
>  <Binding energies>  (1) 
[-7.65]

>  <Ligand effiencies>  (1) 
[-0.21857142857142858]

>  <Interactions>  (1) 
["V-A:LEU:363:CD1:3189, V-B:PRO:540:CA:9855, V-A:PRO:540:CA:4883, H-B:GLU:543:OE1:9881, H-B:ALA:541:N:9863, V-B:GLU:543:CD:9880, V-B:ASP:366:CG:8184, V-B:ALA:541:CB:9864, V-B:TYR:539:CE2:9848, V-B:PRO:540:CB:9857, V-A:ASP:366:CB:3212, V-B:PRO:540:C:9853, V-A:LEU:475:CD2:4259, V-B:ALA:541:CA:9862, V-B:GLU:543:CG:9879, V-A:ASP:366:CG:3213, V-B:PRO:540:N:9856"]

$$$$
ZINC205633505-again1
     RDKit          3D

 77 80  0  0  0  0  0  0  0  0999 V2000
  127.9470  129.0210   64.8510 C   0  0  0  0  0  0  0  0  0  0  0  0
  128.7270  127.7340   65.1690 C   0  0  0  0  0  0  0  0  0  0  0  0
  129.3230  127.1080   63.8830 N   0  0  0  0  0  0  0  0  0  0  0  0
  129.8550  125.6710   64.1100 C   0  0  0  0  0  0  0  0  0  0  0  0
  130.3370  125.4850   65.5600 C   0  0  0  0  0  0  0  0  0  0  0  0
  128.3050  127.1750   62.7170 C   0  0  0  0  0  0  0  0  0  0  0  0
  128.8680  127.7650   61.4170 C   0  0  0  0  0  0  0  0  0  0  0  0
  130.0660  128.0200   61.2690 O   0  0  0  0  0  0  0  0  0  0  0  0
  127.8970  127.9460   60.4890 O   0  0  0  0  0  0  0  0  0  0  0  0
  126.8560  126.9870   60.2620 C   0  0  0  0  0  0  0  0  0  0  0  0
  126.4740  126.8260   58.7720 C   0  0  0  0  0  0  0  0  0  0  0  0
  125.7760  127.7040   58.2650 O   0  0  0  0  0  0  0  0  0  0  0  0
  126.9820  125.5940   57.9310 C   0  0  2  0  0  0  0  0  0  0  0  0
  126.8110  125.9620   56.5630 O   0  0  0  0  0  0  0  0  0  0  0  0
  126.1240  124.3370   58.3710 C   0  0  1  0  0  0  0  0  0  0  0  0
  125.3910  123.5930   57.2320 C   0  0  0  0  0  0  0  0  0  0  0  0
  127.0720  123.3990   59.1610 C   0  0  0  0  0  0  0  0  0  0  0  0
  128.3050  124.2530   59.4770 C   0  0  1  0  0  0  0  0  0  0  0  0
  129.6210  123.5680   59.9460 C   0  0  2  0  0  0  0  0  0  0  0  0
  129.3880  122.6450   61.1670 C   0  0  0  0  0  0  0  0  0  0  0  0
  130.6790  121.9710   61.6570 C   0  0  0  0  0  0  0  0  0  0  0  0
  131.7180  123.0460   61.9720 C   0  0  0  0  0  0  0  0  0  0  0  0
  132.2560  123.1830   63.2080 C   0  0  0  0  0  0  0  0  0  0  0  0
  133.2330  124.2010   63.5960 C   0  0  0  0  0  0  0  0  0  0  0  0
  133.7090  124.2830   64.7270 O   0  0  0  0  0  0  0  0  0  0  0  0
  133.5870  125.1140   62.5130 C   0  0  0  0  0  0  0  0  0  0  0  0
  133.0860  125.0290   61.2640 C   0  0  0  0  0  0  0  0  0  0  0  0
  132.0770  123.9750   60.7740 C   0  0  1  0  0  0  0  0  0  0  0  0
  132.8250  123.1100   59.7190 C   0  0  0  0  0  0  0  0  0  0  0  0
  130.7330  124.6400   60.2560 C   0  0  2  0  0  0  0  0  0  0  0  0
  130.2650  125.3520   61.2930 F   0  0  0  0  0  0  0  0  0  0  0  0
  130.8820  125.7250   59.1170 C   0  0  1  0  0  0  0  0  0  0  0  0
  131.6870  125.3350   58.0230 O   0  0  0  0  0  0  0  0  0  0  0  0
  129.5060  126.2700   58.6330 C   0  0  0  0  0  0  0  0  0  0  0  0
  128.4830  125.1560   58.2320 C   0  0  2  0  0  0  0  0  0  0  0  0
  129.0310  124.3500   57.0000 C   0  0  0  0  0  0  0  0  0  0  0  0
  127.6499  129.5112   65.7899 H   0  0  0  0  0  0  0  0  0  0  0  0
  128.5847  129.7016   64.2679 H   0  0  0  0  0  0  0  0  0  0  0  0
  127.0485  128.7706   64.2679 H   0  0  0  0  0  0  0  0  0  0  0  0
  129.5452  127.9728   65.8643 H   0  0  0  0  0  0  0  0  0  0  0  0
  128.0337  127.0090   65.6204 H   0  0  0  0  0  0  0  0  0  0  0  0
  130.1120  127.6800   63.6160 H   0  0  0  0  0  0  0  0  0  0  0  0
  129.0486  124.9519   63.9038 H   0  0  0  0  0  0  0  0  0  0  0  0
  130.7051  125.5005   63.4330 H   0  0  0  0  0  0  0  0  0  0  0  0
  129.5404  125.7924   66.2535 H   0  0  0  0  0  0  0  0  0  0  0  0
  130.5842  124.4269   65.7314 H   0  0  0  0  0  0  0  0  0  0  0  0
  131.2309  126.1028   65.7314 H   0  0  0  0  0  0  0  0  0  0  0  0
  127.9540  126.1537   62.5076 H   0  0  0  0  0  0  0  0  0  0  0  0
  127.4979  127.8474   63.0432 H   0  0  0  0  0  0  0  0  0  0  0  0
  127.1937  126.0113   60.6414 H   0  0  0  0  0  0  0  0  0  0  0  0
  125.9609  127.3537   60.7858 H   0  0  0  0  0  0  0  0  0  0  0  0
  126.4600  126.8550   56.5310 H   0  0  0  0  0  0  0  0  0  0  0  0
  125.2901  124.6971   58.9915 H   0  0  0  0  0  0  0  0  0  0  0  0
  124.6806  122.8720   57.6627 H   0  0  0  0  0  0  0  0  0  0  0  0
  124.8455  124.3191   56.6113 H   0  0  0  0  0  0  0  0  0  0  0  0
  126.1251  123.0584   56.6113 H   0  0  0  0  0  0  0  0  0  0  0  0
  126.5912  123.0563   60.0891 H   0  0  0  0  0  0  0  0  0  0  0  0
  127.3311  122.4965   58.5879 H   0  0  0  0  0  0  0  0  0  0  0  0
  128.0992  124.7981   60.4100 H   0  0  0  0  0  0  0  0  0  0  0  0
  129.9722  122.9336   59.1188 H   0  0  0  0  0  0  0  0  0  0  0  0
  128.9717  123.2467   61.9884 H   0  0  0  0  0  0  0  0  0  0  0  0
  128.6963  121.8490   60.8541 H   0  0  0  0  0  0  0  0  0  0  0  0
  130.4674  121.3865   62.5645 H   0  0  0  0  0  0  0  0  0  0  0  0
  131.0658  121.3006   60.8753 H   0  0  0  0  0  0  0  0  0  0  0  0
  131.9323  122.4717   63.9821 H   0  0  0  0  0  0  0  0  0  0  0  0
  134.3050  125.9189   62.7288 H   0  0  0  0  0  0  0  0  0  0  0  0
  133.4275  125.7766   60.5330 H   0  0  0  0  0  0  0  0  0  0  0  0
  133.4613  122.3742   60.2326 H   0  0  0  0  0  0  0  0  0  0  0  0
  132.0919  122.5846   59.0892 H   0  0  0  0  0  0  0  0  0  0  0  0
  133.4507  123.7596   59.0892 H   0  0  0  0  0  0  0  0  0  0  0  0
  131.4288  126.5455   59.6047 H   0  0  0  0  0  0  0  0  0  0  0  0
  131.1110  125.0740   57.3000 H   0  0  0  0  0  0  0  0  0  0  0  0
  129.0658  126.8671   59.4453 H   0  0  0  0  0  0  0  0  0  0  0  0
  129.7005  126.8630   57.7272 H   0  0  0  0  0  0  0  0  0  0  0  0
  129.6162  123.4893   57.3559 H   0  0  0  0  0  0  0  0  0  0  0  0
  128.1875  123.9932   56.3907 H   0  0  0  0  0  0  0  0  0  0  0  0
  129.6730  125.0032   56.3907 H   0  0  0  0  0  0  0  0  0  0  0  0
  1  2  1  0
  2  3  1  0
  3  4  1  0
  4  5  1  0
  3  6  1  0
  6  7  1  0
  7  8  2  0
  7  9  1  0
  9 10  1  0
 10 11  1  0
 11 12  2  0
 11 13  1  0
 13 14  1  6
 13 15  1  0
 15 16  1  0
 15 17  1  0
 17 18  1  0
 18 19  1  0
 19 20  1  0
 20 21  1  0
 21 22  1  0
 22 23  2  0
 23 24  1  0
 24 25  2  0
 24 26  1  0
 26 27  2  0
 27 28  1  0
 28 29  1  6
 28 30  1  0
 30 31  1  1
 30 32  1  0
 32 33  1  0
 32 34  1  0
 34 35  1  0
 35 36  1  6
 35 13  1  0
 35 18  1  0
 30 19  1  0
 28 22  1  0
  1 37  1  0
  1 38  1  0
  1 39  1  0
  2 40  1  0
  2 41  1  0
  3 42  1  0
  4 43  1  0
  4 44  1  0
  5 45  1  0
  5 46  1  0
  5 47  1  0
  6 48  1  0
  6 49  1  0
 10 50  1  0
 10 51  1  0
 14 52  1  0
 15 53  1  1
 16 54  1  0
 16 55  1  0
 16 56  1  0
 17 57  1  0
 17 58  1  0
 18 59  1  1
 19 60  1  6
 20 61  1  0
 20 62  1  0
 21 63  1  0
 21 64  1  0
 23 65  1  0
 26 66  1  0
 27 67  1  0
 29 68  1  0
 29 69  1  0
 29 70  1  0
 32 71  1  1
 33 72  1  0
 34 73  1  0
 34 74  1  0
 36 75  1  0
 36 76  1  0
 36 77  1  0
M  CHG  1   3   1
M  END
>  <Binding energies>  (1) 
[-8.48]

>  <Ligand effiencies>  (1) 
[-0.21743589743589745]

>  <Interactions>  (1) 
["V-A:ILE:369:CG2:3237, H-B:MET:535:SD:9806, V-B:PRO:540:CA:9855, V-A:GLY:454:CA:4049, H-A:GLU:543:OE2:4910, V-B:ASP:366:CG:8184, H-A:TYR:531:OH:4795, V-B:TYR:539:CE2:9848, V-B:GLU:543:CG:9879, V-A:ASP:366:CG:3213, V-B:TYR:539:CZ:9849, H-B:TYR:539:OH:9850, V-A:GLU:543:CD:4908, V-B:PRO:540:CB:9857, H-A:GLY:454:N:4050, V-B:PRO:540:N:9856, V-B:TYR:539:CD2:9846, V-A:GLU:543:CG:4907, V-B:GLU:543:CD:9880, H-B:TYR:531:OH:9767, V-A:LEU:475:CD2:4259, V-A:ARG:545:CZ:4926, H-A:GLU:543:OE1:4909, V-B:LEU:363:CD1:8160, V-B:MET:535:CE:9807, V-B:TYR:539:CE1:9847, H-A:TYR:484:OH:4348"]

$$$$
ZINC2059891818
     RDKit          3D

 85 86  0  0  0  0  0  0  0  0999 V2000
  129.5180  128.0730   70.0640 C   0  0  0  0  0  0  0  0  0  0  0  0
  128.6620  127.8820   69.0450 C   0  0  0  0  0  0  0  0  0  0  0  0
  128.5240  128.7520   67.8050 C   0  0  0  0  0  0  0  0  0  0  0  0
  127.9210  128.1670   66.6090 N   0  0  0  0  0  0  0  0  0  0  0  0
  128.2920  128.2560   65.2730 C   0  0  0  0  0  0  0  0  0  0  0  0
  128.9100  127.1890   64.6710 C   0  0  0  0  0  0  0  0  0  0  0  0
  129.2110  125.8520   65.3840 C   0  0  0  0  0  0  0  0  0  0  0  0
  130.4790  125.8290   66.2970 C   0  0  1  0  0  0  0  0  0  0  0  0
  130.1420  125.2530   67.6870 C   0  0  0  0  0  0  0  0  0  0  0  0
  131.6780  125.0610   65.6810 C   0  0  0  0  0  0  0  0  0  0  0  0
  131.6660  124.8460   64.1400 C   0  0  2  0  0  0  0  0  0  0  0  0
  130.4910  124.1020   63.8240 O   0  0  0  0  0  0  0  0  0  0  0  0
  130.3580  122.8590   64.5040 C   0  0  0  0  0  0  0  0  0  0  0  0
  132.9040  124.0700   63.5780 C   0  0  2  0  0  0  0  0  0  0  0  0
  134.0920  124.7750   63.8940 O   0  0  0  0  0  0  0  0  0  0  0  0
  132.9080  123.8030   62.0380 C   0  0  1  0  0  0  0  0  0  0  0  0
  134.3280  123.7420   61.4390 C   0  0  0  0  0  0  0  0  0  0  0  0
  132.0670  122.6000   61.6080 C   0  0  0  0  0  0  0  0  0  0  0  0
  130.8150  122.5820   61.0940 C   0  0  0  0  0  0  0  0  0  0  0  0
  130.1530  121.2610   60.7320 C   0  0  0  0  0  0  0  0  0  0  0  0
  129.9520  123.8160   60.7800 C   0  0  2  0  0  0  0  0  0  0  0  0
  128.6190  123.4590   60.3940 O   0  0  0  0  0  0  0  0  0  0  0  0
  127.6050  123.4030   61.2860 C   0  0  0  0  0  0  0  0  0  0  0  0
  127.9560  124.1010   62.4190 N   0  0  0  0  0  0  0  0  0  0  0  0
  126.5320  122.8240   61.1160 O   0  0  0  0  0  0  0  0  0  0  0  0
  130.5470  124.7650   59.7080 C   0  0  1  0  0  0  0  0  0  0  0  0
  131.8190  124.2320   59.3340 O   0  0  0  0  0  0  0  0  0  0  0  0
  132.7230  125.1600   58.7450 C   0  0  0  0  0  0  0  0  0  0  0  0
  129.6550  124.9020   58.4750 C   0  0  0  0  0  0  0  0  0  0  0  0
  128.3730  125.3150   58.4210 C   0  0  0  0  0  0  0  0  0  0  0  0
  127.5720  125.7530   59.5590 C   0  0  0  0  0  0  0  0  0  0  0  0
  127.8040  126.8160   60.3690 C   0  0  0  0  0  0  0  0  0  0  0  0
  126.9140  127.1420   61.5640 C   0  0  0  0  0  0  0  0  0  0  0  0
  128.8760  127.7820   60.1660 C   0  0  0  0  0  0  0  0  0  0  0  0
  129.4290  127.8790   59.0730 O   0  0  0  0  0  0  0  0  0  0  0  0
  129.2930  128.5550   61.2020 N   0  0  0  0  0  0  0  0  0  0  0  0
  128.9760  128.4310   62.5300 C   0  0  0  0  0  0  0  0  0  0  0  0
  128.3770  129.4840   63.1310 C   0  0  0  0  0  0  0  0  0  0  0  0
  128.0170  129.5350   64.5480 C   0  0  0  0  0  0  0  0  0  0  0  0
  127.5240  130.5540   65.0310 O   0  0  0  0  0  0  0  0  0  0  0  0
  129.4110  127.2190   63.2630 C   0  0  0  0  0  0  0  0  0  0  0  0
  130.1070  126.3340   62.7570 O   0  0  0  0  0  0  0  0  0  0  0  0
  129.5274  127.3735   70.9129 H   0  0  0  0  0  0  0  0  0  0  0  0
  130.2090  128.9287   70.0488 H   0  0  0  0  0  0  0  0  0  0  0  0
  127.9952  127.0099   69.1150 H   0  0  0  0  0  0  0  0  0  0  0  0
  127.9126  129.6225   68.0849 H   0  0  0  0  0  0  0  0  0  0  0  0
  129.5613  128.9657   67.5079 H   0  0  0  0  0  0  0  0  0  0  0  0
  127.2490  127.4550   66.8530 H   0  0  0  0  0  0  0  0  0  0  0  0
  128.3417  125.6020   66.0100 H   0  0  0  0  0  0  0  0  0  0  0  0
  129.4126  125.1281   64.5807 H   0  0  0  0  0  0  0  0  0  0  0  0
  130.7949  126.8781   66.3951 H   0  0  0  0  0  0  0  0  0  0  0  0
  130.5340  125.9230   68.4664 H   0  0  0  0  0  0  0  0  0  0  0  0
  129.0506  125.1661   67.7931 H   0  0  0  0  0  0  0  0  0  0  0  0
  130.6010  124.2590   67.7931 H   0  0  0  0  0  0  0  0  0  0  0  0
  132.5924  125.6192   65.9305 H   0  0  0  0  0  0  0  0  0  0  0  0
  131.6186  124.0498   66.1098 H   0  0  0  0  0  0  0  0  0  0  0  0
  131.6947  125.8427   63.6754 H   0  0  0  0  0  0  0  0  0  0  0  0
  130.3765  123.0315   65.5902 H   0  0  0  0  0  0  0  0  0  0  0  0
  129.4043  122.3879   64.2237 H   0  0  0  0  0  0  0  0  0  0  0  0
  131.1904  122.1968   64.2237 H   0  0  0  0  0  0  0  0  0  0  0  0
  132.8440  123.0838   64.0616 H   0  0  0  0  0  0  0  0  0  0  0  0
  134.2000  125.4880   63.2620 H   0  0  0  0  0  0  0  0  0  0  0  0
  132.4112  124.6871   61.6119 H   0  0  0  0  0  0  0  0  0  0  0  0
  135.0680  123.7102   62.2523 H   0  0  0  0  0  0  0  0  0  0  0  0
  134.4258  122.8388   60.8188 H   0  0  0  0  0  0  0  0  0  0  0  0
  134.5029  124.6335   60.8188 H   0  0  0  0  0  0  0  0  0  0  0  0
  132.5440  121.6168   61.7334 H   0  0  0  0  0  0  0  0  0  0  0  0
  129.8829  120.7220   61.6521 H   0  0  0  0  0  0  0  0  0  0  0  0
  129.2458  121.4553   60.1411 H   0  0  0  0  0  0  0  0  0  0  0  0
  130.8517  120.6505   60.1411 H   0  0  0  0  0  0  0  0  0  0  0  0
  129.9337  124.3682   61.7312 H   0  0  0  0  0  0  0  0  0  0  0  0
  128.8650  124.5370   62.4680 H   0  0  0  0  0  0  0  0  0  0  0  0
  127.3040  124.1590   63.1870 H   0  0  0  0  0  0  0  0  0  0  0  0
  130.6343  125.7755   60.1337 H   0  0  0  0  0  0  0  0  0  0  0  0
  133.2554  125.7066   59.5373 H   0  0  0  0  0  0  0  0  0  0  0  0
  133.4495  124.6187   58.1212 H   0  0  0  0  0  0  0  0  0  0  0  0
  132.1628  125.8721   58.1212 H   0  0  0  0  0  0  0  0  0  0  0  0
  130.1154  124.6303   57.5136 H   0  0  0  0  0  0  0  0  0  0  0  0
  127.8888  125.3224   57.4333 H   0  0  0  0  0  0  0  0  0  0  0  0
  126.6784  125.1530   59.7859 H   0  0  0  0  0  0  0  0  0  0  0  0
  127.4630  126.9409   62.4957 H   0  0  0  0  0  0  0  0  0  0  0  0
  126.6275  128.2035   61.5290 H   0  0  0  0  0  0  0  0  0  0  0  0
  126.0097  126.5168   61.5290 H   0  0  0  0  0  0  0  0  0  0  0  0
  130.0360  129.2080   61.0000 H   0  0  0  0  0  0  0  0  0  0  0  0
  128.1444  130.3628   62.5116 H   0  0  0  0  0  0  0  0  0  0  0  0
  1  2  2  0
  2  3  1  0
  3  4  1  0
  4  5  1  0
  5  6  2  0
  6  7  1  0
  7  8  1  0
  8  9  1  0
  8 10  1  0
 10 11  1  0
 11 12  1  0
 12 13  1  0
 11 14  1  0
 14 15  1  0
 14 16  1  0
 16 17  1  0
 16 18  1  0
 18 19  2  0
 19 20  1  0
 19 21  1  0
 21 22  1  0
 22 23  1  0
 23 24  1  0
 23 25  2  0
 21 26  1  0
 26 27  1  0
 27 28  1  0
 26 29  1  0
 29 30  2  0
 30 31  1  0
 31 32  2  0
 32 33  1  0
 32 34  1  0
 34 35  2  0
 34 36  1  0
 36 37  1  0
 37 38  2  0
 38 39  1  0
 39 40  2  0
 37 41  1  0
 41 42  2  0
 39  5  1  0
 41  6  1  0
  1 43  1  0
  1 44  1  0
  2 45  1  0
  3 46  1  0
  3 47  1  0
  4 48  1  0
  7 49  1  0
  7 50  1  0
  8 51  1  1
  9 52  1  0
  9 53  1  0
  9 54  1  0
 10 55  1  0
 10 56  1  0
 11 57  1  6
 13 58  1  0
 13 59  1  0
 13 60  1  0
 14 61  1  1
 15 62  1  0
 16 63  1  6
 17 64  1  0
 17 65  1  0
 17 66  1  0
 18 67  1  0
 20 68  1  0
 20 69  1  0
 20 70  1  0
 21 71  1  1
 24 72  1  0
 24 73  1  0
 26 74  1  1
 28 75  1  0
 28 76  1  0
 28 77  1  0
 29 78  1  0
 30 79  1  0
 31 80  1  0
 33 81  1  0
 33 82  1  0
 33 83  1  0
 36 84  1  0
 38 85  1  0
M  END
>  <Binding energies>  (1) 
[-4.91]

>  <Ligand effiencies>  (1) 
[-0.10020408163265307]

>  <Interactions>  (1) 
["V-A:ASP:366:CA:3210, V-B:PRO:540:CA:9855, V-B:GLU:543:CB:9878, H-A:ARG:545:NH1:4927, V-A:TYR:484:CE2:4346, V-B:TYR:539:CE2:9848, V-B:GLU:543:CG:9879, V-A:ASP:366:CG:3213, V-B:TYR:539:CZ:9849, H-B:GLU:543:OE1:9881, H-B:TYR:539:OH:9850, H-B:ALA:541:N:9863, V-A:GLU:543:CD:4908, V-A:TYR:484:CZ:4347, H-B:TYR:484:OH:9319, V-B:HIS:456:CE1:9041, H-A:GLY:454:N:4050, V-A:HIS:456:CE1:4070, V-A:ILE:369:CD1:3239, V-B:TYR:539:CD2:9846, V-A:GLU:543:CG:4907, V-B:GLU:543:CD:9880, V-A:ASP:366:CB:3212, V-A:LEU:475:CD2:4259, H-A:ARG:545:NH2:4928, H-A:GLU:543:OE1:4909, V-A:GLU:543:CB:4906, H-A:ASP:366:OD1:3214, H-B:GLU:543:OE2:9882, H-A:ARG:545:NE:4924"]

$$$$
ZINC2060005409
     RDKit          3D

 75 79  0  0  0  0  0  0  0  0999 V2000
  131.4020  131.3130   57.5690 C   0  0  0  0  0  0  0  0  0  0  0  0
  130.4300  130.2640   58.0820 C   0  0  0  0  0  0  0  0  0  0  0  0
  130.7120  129.5080   59.1650 C   0  0  0  0  0  0  0  0  0  0  0  0
  129.8320  128.3870   59.7250 C   0  0  1  0  0  0  0  0  0  0  0  0
  129.3600  128.8170   61.0120 O   0  0  0  0  0  0  0  0  0  0  0  0
  128.3490  128.0250   61.6510 C   0  0  2  0  0  0  0  0  0  0  0  0
  128.6610  126.5190   61.7140 C   0  0  0  0  0  0  0  0  0  0  0  0
  128.2740  125.9760   60.3140 C   0  0  1  0  0  0  0  0  0  0  0  0
  127.4640  124.8000   60.3400 O   0  0  0  0  0  0  0  0  0  0  0  0
  127.7940  123.7320   61.1100 C   0  0  0  0  0  0  0  0  0  0  0  0
  127.0100  122.8380   61.4310 O   0  0  0  0  0  0  0  0  0  0  0  0
  129.1630  123.7790   61.6190 C   0  0  0  0  0  0  0  0  0  0  0  0
  129.5050  123.2300   62.8040 C   0  0  0  0  0  0  0  0  0  0  0  0
  130.8610  123.0820   63.2850 C   0  0  0  0  0  0  0  0  0  0  0  0
  131.4880  124.0910   63.9180 C   0  0  0  0  0  0  0  0  0  0  0  0
  132.8520  124.0640   64.5980 C   0  0  2  0  0  0  0  0  0  0  0  0
  133.1390  125.2110   65.6080 C   0  0  1  0  0  0  0  0  0  0  0  0
  131.9850  125.4840   66.5940 C   0  0  0  0  0  0  0  0  0  0  0  0
  134.2680  124.8730   66.3940 O   0  0  0  0  0  0  0  0  0  0  0  0
  133.8600  124.1080   63.5830 O   0  0  0  0  0  0  0  0  0  0  0  0
  133.5190  124.7140   62.3350 C   0  0  0  0  0  0  0  0  0  0  0  0
  132.9160  123.7720   61.2660 C   0  0  0  0  0  0  0  0  0  0  0  0
  132.7440  124.3570   59.8650 C   0  0  0  0  0  0  0  0  0  0  0  0
  133.8700  124.0090   58.8940 C   0  0  0  0  0  0  0  0  0  0  0  0
  131.6220  125.0560   59.5560 C   0  0  0  0  0  0  0  0  0  0  0  0
  131.3090  125.7190   58.2870 C   0  0  0  0  0  0  0  0  0  0  0  0
  132.1570  126.1640   57.5090 O   0  0  0  0  0  0  0  0  0  0  0  0
  129.9720  125.8540   58.1130 O   0  0  0  0  0  0  0  0  0  0  0  0
  129.4050  127.0580   57.6000 C   0  0  0  0  0  0  0  0  0  0  0  0
  128.7040  127.9320   58.7030 C   0  0  2  0  0  0  0  0  0  0  0  0
  128.1250  129.2290   58.0450 C   0  0  0  0  0  0  0  0  0  0  0  0
  129.1680  130.0440   57.2520 C   0  0  0  0  0  0  0  0  0  0  0  0
  127.5820  127.1590   59.5380 C   0  0  1  0  0  0  0  0  0  0  0  0
  126.3330  126.7270   58.7050 C   0  0  0  0  0  0  0  0  0  0  0  0
  127.1460  128.0340   60.7360 C   0  0  2  0  0  0  0  0  0  0  0  0
  126.1120  129.1150   60.7260 C   0  0  0  0  0  0  0  0  0  0  0  0
  125.8820  127.8570   61.3210 O   0  0  0  0  0  0  0  0  0  0  0  0
  131.8746  131.8230   58.4214 H   0  0  0  0  0  0  0  0  0  0  0  0
  132.1764  130.8273   56.9571 H   0  0  0  0  0  0  0  0  0  0  0  0
  130.8588  132.0482   56.9571 H   0  0  0  0  0  0  0  0  0  0  0  0
  131.6558  129.7156   59.6904 H   0  0  0  0  0  0  0  0  0  0  0  0
  130.4086  127.4609   59.8657 H   0  0  0  0  0  0  0  0  0  0  0  0
  128.2374  128.4455   62.6613 H   0  0  0  0  0  0  0  0  0  0  0  0
  129.7301  126.3526   61.9123 H   0  0  0  0  0  0  0  0  0  0  0  0
  128.1111  126.0142   62.5220 H   0  0  0  0  0  0  0  0  0  0  0  0
  129.1859  125.6412   59.7980 H   0  0  0  0  0  0  0  0  0  0  0  0
  129.9385  124.2769   61.0183 H   0  0  0  0  0  0  0  0  0  0  0  0
  128.6925  122.8686   63.4515 H   0  0  0  0  0  0  0  0  0  0  0  0
  131.3886  122.1292   63.1310 H   0  0  0  0  0  0  0  0  0  0  0  0
  130.9514  125.0508   63.9482 H   0  0  0  0  0  0  0  0  0  0  0  0
  132.8590  123.1390   65.1932 H   0  0  0  0  0  0  0  0  0  0  0  0
  133.2920  126.1111   64.9945 H   0  0  0  0  0  0  0  0  0  0  0  0
  132.3559  125.3963   67.6259 H   0  0  0  0  0  0  0  0  0  0  0  0
  131.5948  126.4992   66.4297 H   0  0  0  0  0  0  0  0  0  0  0  0
  131.1812  124.7512   66.4297 H   0  0  0  0  0  0  0  0  0  0  0  0
  133.9700  124.3810   67.1630 H   0  0  0  0  0  0  0  0  0  0  0  0
  132.7852  125.5084   62.5360 H   0  0  0  0  0  0  0  0  0  0  0  0
  134.4679  125.0745   61.9113 H   0  0  0  0  0  0  0  0  0  0  0  0
  133.5739  122.8943   61.1838 H   0  0  0  0  0  0  0  0  0  0  0  0
  131.8978  123.5466   61.6158 H   0  0  0  0  0  0  0  0  0  0  0  0
  134.7704  123.7307   59.4613 H   0  0  0  0  0  0  0  0  0  0  0  0
  133.5601  123.1647   58.2606 H   0  0  0  0  0  0  0  0  0  0  0  0
  134.0905  124.8809   58.2606 H   0  0  0  0  0  0  0  0  0  0  0  0
  130.8620  125.1335   60.3474 H   0  0  0  0  0  0  0  0  0  0  0  0
  130.2070  127.6536   57.1396 H   0  0  0  0  0  0  0  0  0  0  0  0
  128.6328  126.7708   56.8711 H   0  0  0  0  0  0  0  0  0  0  0  0
  127.3168  128.9381   57.3578 H   0  0  0  0  0  0  0  0  0  0  0  0
  127.7705  129.8726   58.8636 H   0  0  0  0  0  0  0  0  0  0  0  0
  129.4308  129.4974   56.3343 H   0  0  0  0  0  0  0  0  0  0  0  0
  128.7345  131.0240   57.0035 H   0  0  0  0  0  0  0  0  0  0  0  0
  125.5172  126.4448   59.3868 H   0  0  0  0  0  0  0  0  0  0  0  0
  126.0076  127.5648   58.0708 H   0  0  0  0  0  0  0  0  0  0  0  0
  126.5947  125.8672   58.0708 H   0  0  0  0  0  0  0  0  0  0  0  0
  126.2382  130.0113   61.3511 H   0  0  0  0  0  0  0  0  0  0  0  0
  125.6177  129.7299   59.9595 H   0  0  0  0  0  0  0  0  0  0  0  0
  1  2  1  0
  2  3  2  0
  3  4  1  0
  4  5  1  0
  5  6  1  0
  6  7  1  0
  7  8  1  0
  8  9  1  0
  9 10  1  0
 10 11  2  0
 10 12  1  0
 12 13  2  0
 13 14  1  0
 14 15  2  0
 15 16  1  0
 16 17  1  0
 17 18  1  0
 17 19  1  0
 16 20  1  0
 20 21  1  0
 21 22  1  0
 22 23  1  0
 23 24  1  0
 23 25  2  0
 25 26  1  0
 26 27  2  0
 26 28  1  0
 28 29  1  0
 30 29  1  6
 30 31  1  0
 31 32  1  0
 30 33  1  0
 33 34  1  6
 33 35  1  0
 35 36  1  0
 36 37  1  0
 32  2  1  0
 35 37  1  1
 30  4  1  0
 35  6  1  0
 33  8  1  0
  1 38  1  0
  1 39  1  0
  1 40  1  0
  3 41  1  0
  4 42  1  1
  6 43  1  1
  7 44  1  0
  7 45  1  0
  8 46  1  6
 12 47  1  0
 13 48  1  0
 14 49  1  0
 15 50  1  0
 16 51  1  1
 17 52  1  6
 18 53  1  0
 18 54  1  0
 18 55  1  0
 19 56  1  0
 21 57  1  0
 21 58  1  0
 22 59  1  0
 22 60  1  0
 24 61  1  0
 24 62  1  0
 24 63  1  0
 25 64  1  0
 29 65  1  0
 29 66  1  0
 31 67  1  0
 31 68  1  0
 32 69  1  0
 32 70  1  0
 34 71  1  0
 34 72  1  0
 34 73  1  0
 36 74  1  0
 36 75  1  0
M  END
>  <Binding energies>  (1) 
[-4.88]

>  <Ligand effiencies>  (1) 
[-0.122]

>  <Interactions>  (1) 
["V-A:ILE:369:CG2:3237, V-A:ASP:366:CA:3210, V-A:GLY:454:CA:4049, V-A:ILE:369:CB:3236, V-B:ASP:366:CG:8184, H-A:TYR:531:OH:4795, V-B:TYR:539:CE2:9848, V-A:ASP:366:CG:3213, V-B:TYR:539:CZ:9849, H-B:TYR:539:OH:9850, H-B:ALA:541:N:9863, H-A:ILE:455:O:4053, V-A:TYR:484:CZ:4347, H-A:GLY:454:N:4050, V-A:HIS:456:CE1:4070, V-A:MET:535:CE:4835, V-A:ASP:366:CB:3212, V-A:ARG:545:CD:4923, V-A:LEU:475:CD2:4259, H-A:ILE:455:N:4055, V-A:ARG:545:CZ:4926, H-B:ARG:545:NH2:9900, H-A:ARG:545:NE:4924, H-A:TYR:484:OH:4348"]

$$$$
ZINC20600179
     RDKit          3D

 57 61  0  0  0  0  0  0  0  0999 V2000
  129.4820  126.2630   66.9400 C   0  0  0  0  0  0  0  0  0  0  0  0
  130.3770  125.0170   67.0530 C   0  0  0  0  0  0  0  0  0  0  0  0
  130.5470  124.3800   65.7490 N   0  0  0  0  0  0  0  0  0  0  0  0
  129.5040  123.7460   65.2070 N   0  0  0  0  0  0  0  0  0  0  0  0
  129.9240  123.2980   64.0470 C   0  0  0  0  0  0  0  0  0  0  0  0
  128.9670  122.4700   63.2110 C   0  0  0  0  0  0  0  0  0  0  0  0
  131.2650  123.6680   63.7950 C   0  0  0  0  0  0  0  0  0  0  0  0
  132.0910  123.3580   62.5840 C   0  0  0  0  0  0  0  0  0  0  0  0
  132.9650  122.2650   62.5350 C   0  0  0  0  0  0  0  0  0  0  0  0
  133.6710  122.0630   61.3490 C   0  0  0  0  0  0  0  0  0  0  0  0
  133.5350  122.8800   60.2740 N   0  0  0  0  0  0  0  0  0  0  0  0
  132.6710  123.9250   60.4000 C   0  0  0  0  0  0  0  0  0  0  0  0
  132.5290  124.7830   59.2950 N   0  0  0  0  0  0  0  0  0  0  0  0
  133.5350  125.0060   58.2520 C   0  0  0  0  0  0  0  0  0  0  0  0
  132.8840  125.8390   57.1520 C   0  0  0  0  0  0  0  0  0  0  0  0
  131.9250  126.7110   57.9340 C   0  0  0  0  0  0  0  0  0  0  0  0
  131.4730  125.7870   59.0740 C   0  0  1  0  0  0  0  0  0  0  0  0
  130.1370  125.1060   58.7730 C   0  0  0  0  0  0  0  0  0  0  0  0
  129.2430  124.8310   59.6910 N   0  0  0  0  0  0  0  0  0  0  0  0
  128.1950  124.2600   59.0140 C   0  0  0  0  0  0  0  0  0  0  0  0
  126.9810  123.7560   59.5150 C   0  0  0  0  0  0  0  0  0  0  0  0
  126.6230  123.7670   60.9910 C   0  0  0  0  0  0  0  0  0  0  0  0
  126.0790  123.2190   58.5890 C   0  0  0  0  0  0  0  0  0  0  0  0
  126.3630  123.1800   57.2240 C   0  0  0  0  0  0  0  0  0  0  0  0
  127.5600  123.6720   56.7020 C   0  0  0  0  0  0  0  0  0  0  0  0
  128.4640  124.2070   57.6210 C   0  0  0  0  0  0  0  0  0  0  0  0
  129.7130  124.7710   57.5040 N   0  0  0  0  0  0  0  0  0  0  0  0
  131.9310  124.1870   61.5130 N   0  0  0  0  0  0  0  0  0  0  0  0
  131.6490  124.3960   64.9260 C   0  0  0  0  0  0  0  0  0  0  0  0
  132.9290  125.1150   65.3020 C   0  0  0  0  0  0  0  0  0  0  0  0
  129.2242  126.6219   67.9474 H   0  0  0  0  0  0  0  0  0  0  0  0
  130.0204  127.0530   66.3959 H   0  0  0  0  0  0  0  0  0  0  0  0
  128.5614  126.0051   66.3959 H   0  0  0  0  0  0  0  0  0  0  0  0
  131.3626  125.3149   67.4400 H   0  0  0  0  0  0  0  0  0  0  0  0
  129.8982  124.2998   67.7359 H   0  0  0  0  0  0  0  0  0  0  0  0
  128.3033  121.8958   63.8742 H   0  0  0  0  0  0  0  0  0  0  0  0
  128.3641  123.1360   62.5762 H   0  0  0  0  0  0  0  0  0  0  0  0
  129.5394  121.7776   62.5762 H   0  0  0  0  0  0  0  0  0  0  0  0
  133.0898  121.5929   63.3968 H   0  0  0  0  0  0  0  0  0  0  0  0
  134.3631  121.2106   61.2827 H   0  0  0  0  0  0  0  0  0  0  0  0
  134.3964  125.5465   58.6714 H   0  0  0  0  0  0  0  0  0  0  0  0
  133.8923  124.0468   57.8492 H   0  0  0  0  0  0  0  0  0  0  0  0
  133.6296  126.4462   56.6178 H   0  0  0  0  0  0  0  0  0  0  0  0
  132.3957  125.2356   56.3725 H   0  0  0  0  0  0  0  0  0  0  0  0
  132.4327  127.6045   58.3264 H   0  0  0  0  0  0  0  0  0  0  0  0
  131.0906  127.0920   57.3268 H   0  0  0  0  0  0  0  0  0  0  0  0
  131.3152  126.3897   59.9806 H   0  0  0  0  0  0  0  0  0  0  0  0
  127.5439  123.7387   61.5919 H   0  0  0  0  0  0  0  0  0  0  0  0
  126.0605  124.6829   61.2250 H   0  0  0  0  0  0  0  0  0  0  0  0
  126.0053  122.8874   61.2250 H   0  0  0  0  0  0  0  0  0  0  0  0
  125.1200  122.8168   58.9476 H   0  0  0  0  0  0  0  0  0  0  0  0
  125.6201  122.7479   56.5374 H   0  0  0  0  0  0  0  0  0  0  0  0
  127.7792  123.6399   55.6245 H   0  0  0  0  0  0  0  0  0  0  0  0
  130.2690  124.9220   56.6750 H   0  0  0  0  0  0  0  0  0  0  0  0
  133.0143  125.1629   66.3976 H   0  0  0  0  0  0  0  0  0  0  0  0
  133.7907  124.5689   64.8906 H   0  0  0  0  0  0  0  0  0  0  0  0
  132.9110  126.1350   64.8906 H   0  0  0  0  0  0  0  0  0  0  0  0
  1  2  1  0
  2  3  1  0
  3  4  1  0
  4  5  2  0
  5  6  1  0
  5  7  1  0
  7  8  1  0
  8  9  2  0
  9 10  1  0
 10 11  2  0
 11 12  1  0
 12 13  1  0
 13 14  1  0
 14 15  1  0
 15 16  1  0
 16 17  1  0
 17 18  1  0
 18 19  2  0
 19 20  1  0
 20 21  2  0
 21 22  1  0
 21 23  1  0
 23 24  2  0
 24 25  1  0
 25 26  2  0
 26 27  1  0
 12 28  2  0
  7 29  2  0
 29 30  1  0
 29  3  1  0
 28  8  1  0
 17 13  1  0
 27 18  1  0
 26 20  1  0
  1 31  1  0
  1 32  1  0
  1 33  1  0
  2 34  1  0
  2 35  1  0
  6 36  1  0
  6 37  1  0
  6 38  1  0
  9 39  1  0
 10 40  1  0
 14 41  1  0
 14 42  1  0
 15 43  1  0
 15 44  1  0
 16 45  1  0
 16 46  1  0
 17 47  1  1
 22 48  1  0
 22 49  1  0
 22 50  1  0
 23 51  1  0
 24 52  1  0
 25 53  1  0
 27 54  1  0
 30 55  1  0
 30 56  1  0
 30 57  1  0
M  END
>  <Binding energies>  (1) 
[-7.65]

>  <Ligand effiencies>  (1) 
[-0.24677419354838712]

>  <Interactions>  (1) 
["V-A:ILE:369:CG2:3237, V-A:ASP:366:CA:3210, V-B:PRO:540:CA:9855, V-A:GLY:454:CA:4049, V-B:GLU:543:CB:9878, V-B:ALA:541:CB:9864, V-B:TYR:539:CE2:9848, V-A:TYR:484:CE2:4346, V-B:GLU:543:CG:9879, V-A:ASP:366:CG:3213, V-B:TYR:539:CZ:9849, H-B:TYR:539:OH:9850, V-A:TYR:484:CZ:4347, V-A:GLU:543:CD:4908, V-B:PRO:540:CB:9857, V-B:PRO:540:N:9856, V-A:ILE:369:CD1:3239, V-A:HIS:456:CE1:4070, V-A:ASP:366:C:3208, V-A:TYR:531:CZ:4794, V-B:GLU:543:CD:9880, V-A:ASP:366:CB:3212, V-A:LEU:475:CD2:4259, V-A:ARG:545:CZ:4926, V-B:TYR:539:CE1:9847"]

$$$$
ZINC20600179-again1
     RDKit          3D

 57 61  0  0  0  0  0  0  0  0999 V2000
  130.2760  126.7050   73.2330 C   0  0  0  0  0  0  0  0  0  0  0  0
  130.2210  127.9450   72.3270 C   0  0  0  0  0  0  0  0  0  0  0  0
  129.5710  127.6300   71.0560 N   0  0  0  0  0  0  0  0  0  0  0  0
  128.2750  127.3090   71.0650 N   0  0  0  0  0  0  0  0  0  0  0  0
  127.9510  127.1010   69.8110 C   0  0  0  0  0  0  0  0  0  0  0  0
  126.5370  126.6510   69.5060 C   0  0  0  0  0  0  0  0  0  0  0  0
  129.0460  127.3220   68.9410 C   0  0  0  0  0  0  0  0  0  0  0  0
  129.0710  127.1980   67.4460 C   0  0  0  0  0  0  0  0  0  0  0  0
  128.5160  128.1690   66.6040 C   0  0  0  0  0  0  0  0  0  0  0  0
  128.6070  127.9520   65.2290 C   0  0  0  0  0  0  0  0  0  0  0  0
  129.2040  126.8520   64.7040 N   0  0  0  0  0  0  0  0  0  0  0  0
  129.7240  125.9540   65.5860 C   0  0  0  0  0  0  0  0  0  0  0  0
  130.3530  124.8150   65.0520 N   0  0  0  0  0  0  0  0  0  0  0  0
  129.9080  123.4300   65.2330 C   0  0  0  0  0  0  0  0  0  0  0  0
  130.7250  122.5550   64.2870 C   0  0  0  0  0  0  0  0  0  0  0  0
  132.0610  123.2690   64.2640 C   0  0  0  0  0  0  0  0  0  0  0  0
  131.6610  124.7470   64.3770 C   0  0  1  0  0  0  0  0  0  0  0  0
  131.6050  125.4340   63.0130 C   0  0  0  0  0  0  0  0  0  0  0  0
  131.8920  124.8280   61.8870 N   0  0  0  0  0  0  0  0  0  0  0  0
  131.6910  125.7750   60.9160 C   0  0  0  0  0  0  0  0  0  0  0  0
  131.8700  125.6690   59.5300 C   0  0  0  0  0  0  0  0  0  0  0  0
  131.5980  126.7910   58.7480 C   0  0  0  0  0  0  0  0  0  0  0  0
  131.1600  127.9860   59.3210 C   0  0  0  0  0  0  0  0  0  0  0  0
  130.9680  128.1350   60.7010 C   0  0  0  0  0  0  0  0  0  0  0  0
  130.4900  129.4680   61.2480 C   0  0  0  0  0  0  0  0  0  0  0  0
  131.2450  126.9990   61.4750 C   0  0  0  0  0  0  0  0  0  0  0  0
  131.1890  126.7360   62.8230 N   0  0  0  0  0  0  0  0  0  0  0  0
  129.6880  126.0910   66.9410 N   0  0  0  0  0  0  0  0  0  0  0  0
  130.0980  127.6870   69.7880 C   0  0  0  0  0  0  0  0  0  0  0  0
  131.5320  128.0960   69.5240 C   0  0  0  0  0  0  0  0  0  0  0  0
  130.2620  127.0200   74.2868 H   0  0  0  0  0  0  0  0  0  0  0  0
  129.4054  126.0639   73.0303 H   0  0  0  0  0  0  0  0  0  0  0  0
  131.1999  126.1435   73.0303 H   0  0  0  0  0  0  0  0  0  0  0  0
  129.6536  128.7384   72.8355 H   0  0  0  0  0  0  0  0  0  0  0  0
  131.2490  128.2798   72.1242 H   0  0  0  0  0  0  0  0  0  0  0  0
  125.9958  126.4788   70.4480 H   0  0  0  0  0  0  0  0  0  0  0  0
  126.0219  127.4296   68.9243 H   0  0  0  0  0  0  0  0  0  0  0  0
  126.5666  125.7179   68.9243 H   0  0  0  0  0  0  0  0  0  0  0  0
  128.0277  129.0670   67.0103 H   0  0  0  0  0  0  0  0  0  0  0  0
  128.1792  128.6999   64.5452 H   0  0  0  0  0  0  0  0  0  0  0  0
  130.0755  123.1153   66.2736 H   0  0  0  0  0  0  0  0  0  0  0  0
  128.8341  123.3377   65.0136 H   0  0  0  0  0  0  0  0  0  0  0  0
  130.8263  121.5317   64.6777 H   0  0  0  0  0  0  0  0  0  0  0  0
  130.2706  122.4363   63.2923 H   0  0  0  0  0  0  0  0  0  0  0  0
  132.6883  122.9625   65.1140 H   0  0  0  0  0  0  0  0  0  0  0  0
  132.6570  123.0473   63.3664 H   0  0  0  0  0  0  0  0  0  0  0  0
  132.4236  125.2835   64.9606 H   0  0  0  0  0  0  0  0  0  0  0  0
  132.2145  124.7295   59.0731 H   0  0  0  0  0  0  0  0  0  0  0  0
  131.7313  126.7332   57.6576 H   0  0  0  0  0  0  0  0  0  0  0  0
  130.9576  128.8444   58.6635 H   0  0  0  0  0  0  0  0  0  0  0  0
  130.5007  129.4382   62.3475 H   0  0  0  0  0  0  0  0  0  0  0  0
  131.1569  130.2690   60.8964 H   0  0  0  0  0  0  0  0  0  0  0  0
  129.4660  129.6627   60.8964 H   0  0  0  0  0  0  0  0  0  0  0  0
  130.9180  127.3470   63.5800 H   0  0  0  0  0  0  0  0  0  0  0  0
  132.0531  128.2446   70.4813 H   0  0  0  0  0  0  0  0  0  0  0  0
  132.0386  127.3065   68.9495 H   0  0  0  0  0  0  0  0  0  0  0  0
  131.5459  129.0339   68.9495 H   0  0  0  0  0  0  0  0  0  0  0  0
  1  2  1  0
  2  3  1  0
  3  4  1  0
  4  5  2  0
  5  6  1  0
  5  7  1  0
  7  8  1  0
  8  9  2  0
  9 10  1  0
 10 11  2  0
 11 12  1  0
 12 13  1  0
 13 14  1  0
 14 15  1  0
 15 16  1  0
 16 17  1  0
 17 18  1  0
 18 19  2  0
 19 20  1  0
 20 21  2  0
 21 22  1  0
 22 23  2  0
 23 24  1  0
 24 25  1  0
 24 26  2  0
 26 27  1  0
 12 28  2  0
  7 29  2  0
 29 30  1  0
 29  3  1  0
 28  8  1  0
 17 13  1  0
 27 18  1  0
 26 20  1  0
  1 31  1  0
  1 32  1  0
  1 33  1  0
  2 34  1  0
  2 35  1  0
  6 36  1  0
  6 37  1  0
  6 38  1  0
  9 39  1  0
 10 40  1  0
 14 41  1  0
 14 42  1  0
 15 43  1  0
 15 44  1  0
 16 45  1  0
 16 46  1  0
 17 47  1  1
 21 48  1  0
 22 49  1  0
 23 50  1  0
 25 51  1  0
 25 52  1  0
 25 53  1  0
 27 54  1  0
 30 55  1  0
 30 56  1  0
 30 57  1  0
M  END
>  <Binding energies>  (1) 
[-7.29]

>  <Ligand effiencies>  (1) 
[-0.23516129032258065]

>  <Interactions>  (1) 
["V-A:ARG:545:CA:4919, V-A:GLU:543:CA:4904, V-B:GLU:543:C:9874, H-A:GLU:543:OE2:4910, V-A:GLU:543:C:4902, V-B:GLU:543:CB:9878, V-A:TYR:484:CE2:4346, V-A:GLY:544:C:4912, V-B:GLU:543:CG:9879, V-A:HIS:456:CD2:4068, V-A:ASP:366:CG:3213, V-B:ARG:545:CG:9894, V-A:GLU:543:CD:4908, V-A:TYR:484:CZ:4347, V-A:ARG:545:CG:4922, V-B:HIS:456:CE1:9041, V-B:GLU:543:CA:9876, V-A:HIS:456:CE1:4070, V-B:GLY:544:C:9884, V-B:GLY:544:CA:9886, V-A:GLU:543:CG:4907, V-B:GLU:543:CD:9880, V-A:ASP:366:CB:3212, V-A:LEU:475:CD2:4259, H-A:GLU:543:OE1:4909, V-A:GLU:543:CB:4906, V-B:ARG:545:CA:9891"]

$$$$
ZINC206074305
     RDKit          3D

 69 74  0  0  0  0  0  0  0  0999 V2000
  130.4200  119.5860   61.0260 C   0  0  0  0  0  0  0  0  0  0  0  0
  130.4900  121.0990   61.1990 C   0  0  0  0  0  0  0  0  0  0  0  0
  129.2800  121.8000   61.2080 C   0  0  0  0  0  0  0  0  0  0  0  0
  129.2970  123.1920   61.3280 C   0  0  0  0  0  0  0  0  0  0  0  0
  128.3060  124.2280   61.3650 C   0  0  0  0  0  0  0  0  0  0  0  0
  126.8080  124.0330   61.2760 C   0  0  0  0  0  0  0  0  0  0  0  0
  129.0290  125.4130   61.5040 C   0  0  0  0  0  0  0  0  0  0  0  0
  128.6410  126.8070   61.5900 C   0  0  0  0  0  0  0  0  0  0  0  0
  128.3020  127.4070   60.4230 O   0  0  0  0  0  0  0  0  0  0  0  0
  127.9570  128.6780   60.7240 C   0  0  0  0  0  0  0  0  0  0  0  0
  128.1000  128.9230   62.0770 C   0  0  0  0  0  0  0  0  0  0  0  0
  128.5470  127.7120   62.6490 C   0  0  0  0  0  0  0  0  0  0  0  0
  128.7610  127.4140   64.1180 C   0  0  0  0  0  0  0  0  0  0  0  0
  127.7570  130.2900   62.6640 C   0  0  1  0  0  0  0  0  0  0  0  0
  128.6380  130.5460   63.7430 O   0  0  0  0  0  0  0  0  0  0  0  0
  127.7570  131.4380   61.5670 C   0  0  1  0  0  0  0  0  0  0  0  0
  129.2040  131.7990   61.1150 C   0  0  0  0  0  0  0  0  0  0  0  0
  126.9950  130.9140   60.3010 C   0  0  0  0  0  0  0  0  0  0  0  0
  125.9290  131.5500   59.7630 C   0  0  0  0  0  0  0  0  0  0  0  0
  125.3740  132.8850   60.2210 C   0  0  0  0  0  0  0  0  0  0  0  0
  126.4380  133.6180   61.0460 C   0  0  0  0  0  0  0  0  0  0  0  0
  127.0040  132.7090   62.1570 C   0  0  2  0  0  0  0  0  0  0  0  0
  127.8260  133.5710   63.1470 C   0  0  0  0  0  0  0  0  0  0  0  0
  127.5320  129.6380   59.6390 C   0  0  0  0  0  0  0  0  0  0  0  0
  130.3710  125.1810   61.5650 O   0  0  0  0  0  0  0  0  0  0  0  0
  130.5410  123.8330   61.4510 C   0  0  0  0  0  0  0  0  0  0  0  0
  131.7780  123.1660   61.4630 C   0  0  0  0  0  0  0  0  0  0  0  0
  131.7360  121.7560   61.3160 C   0  0  0  0  0  0  0  0  0  0  0  0
  133.0480  120.9590   61.2330 C   0  0  0  0  0  0  0  0  0  0  0  0
  134.2580  121.6990   61.8220 C   0  0  0  0  0  0  0  0  0  0  0  0
  134.3270  123.1260   61.2670 C   0  0  0  0  0  0  0  0  0  0  0  0
  133.0850  123.9480   61.6730 C   0  0  2  0  0  0  0  0  0  0  0  0
  133.1940  124.4720   63.1200 C   0  0  0  0  0  0  0  0  0  0  0  0
  130.3977  119.1045   62.0148 H   0  0  0  0  0  0  0  0  0  0  0  0
  129.5087  119.3224   60.4692 H   0  0  0  0  0  0  0  0  0  0  0  0
  131.3031  119.2394   60.4692 H   0  0  0  0  0  0  0  0  0  0  0  0
  128.3249  121.2612   61.1215 H   0  0  0  0  0  0  0  0  0  0  0  0
  126.3845  123.9779   62.2897 H   0  0  0  0  0  0  0  0  0  0  0  0
  126.3593  124.8803   60.7368 H   0  0  0  0  0  0  0  0  0  0  0  0
  126.5912  123.0991   60.7368 H   0  0  0  0  0  0  0  0  0  0  0  0
  128.2259  128.1591   64.7250 H   0  0  0  0  0  0  0  0  0  0  0  0
  128.3768  126.4093   64.3481 H   0  0  0  0  0  0  0  0  0  0  0  0
  129.8358  127.4571   64.3481 H   0  0  0  0  0  0  0  0  0  0  0  0
  126.7255  130.2798   63.0459 H   0  0  0  0  0  0  0  0  0  0  0  0
  129.5250  130.2910   63.4800 H   0  0  0  0  0  0  0  0  0  0  0  0
  129.8363  131.9568   62.0012 H   0  0  0  0  0  0  0  0  0  0  0  0
  129.6159  130.9761   60.5124 H   0  0  0  0  0  0  0  0  0  0  0  0
  129.1811  132.7190   60.5124 H   0  0  0  0  0  0  0  0  0  0  0  0
  125.4213  131.0565   58.9212 H   0  0  0  0  0  0  0  0  0  0  0  0
  125.1060  133.4923   59.3438 H   0  0  0  0  0  0  0  0  0  0  0  0
  124.4778  132.7204   60.8372 H   0  0  0  0  0  0  0  0  0  0  0  0
  127.2585  133.9262   60.3813 H   0  0  0  0  0  0  0  0  0  0  0  0
  125.9712  134.4956   61.5170 H   0  0  0  0  0  0  0  0  0  0  0  0
  126.1837  132.2628   62.7384 H   0  0  0  0  0  0  0  0  0  0  0  0
  127.5631  133.2953   64.1789 H   0  0  0  0  0  0  0  0  0  0  0  0
  128.8993  133.3951   62.9826 H   0  0  0  0  0  0  0  0  0  0  0  0
  127.5994  134.6348   62.9826 H   0  0  0  0  0  0  0  0  0  0  0  0
  126.7435  129.1785   59.0249 H   0  0  0  0  0  0  0  0  0  0  0  0
  128.3889  129.8803   58.9932 H   0  0  0  0  0  0  0  0  0  0  0  0
  132.9166  120.0154   61.7829 H   0  0  0  0  0  0  0  0  0  0  0  0
  133.2587  120.7968   60.1656 H   0  0  0  0  0  0  0  0  0  0  0  0
  134.1616  121.7392   62.9170 H   0  0  0  0  0  0  0  0  0  0  0  0
  135.1770  121.1614   61.5455 H   0  0  0  0  0  0  0  0  0  0  0  0
  135.2276  123.6200   61.6605 H   0  0  0  0  0  0  0  0  0  0  0  0
  134.3614  123.0695   60.1690 H   0  0  0  0  0  0  0  0  0  0  0  0
  133.0538  124.8203   61.0036 H   0  0  0  0  0  0  0  0  0  0  0  0
  133.0218  123.6442   63.8237 H   0  0  0  0  0  0  0  0  0  0  0  0
  134.1983  124.8898   63.2840 H   0  0  0  0  0  0  0  0  0  0  0  0
  132.4396  125.2556   63.2840 H   0  0  0  0  0  0  0  0  0  0  0  0
  1  2  1  0
  2  3  2  0
  3  4  1  0
  4  5  1  0
  5  6  1  0
  5  7  2  0
  7  8  1  0
  8  9  1  0
  9 10  1  0
 10 11  2  0
 11 12  1  0
 12 13  1  0
 11 14  1  0
 14 15  1  0
 14 16  1  0
 16 17  1  6
 16 18  1  0
 18 19  2  0
 19 20  1  0
 20 21  1  0
 21 22  1  0
 22 23  1  0
 18 24  1  0
  7 25  1  0
 25 26  1  0
 26 27  1  0
 27 28  2  0
 28 29  1  0
 29 30  1  0
 30 31  1  0
 31 32  1  0
 32 33  1  0
 28  2  1  0
 26  4  2  0
 32 27  1  0
 12  8  2  0
 22 16  1  0
 24 10  1  0
  1 34  1  0
  1 35  1  0
  1 36  1  0
  3 37  1  0
  6 38  1  0
  6 39  1  0
  6 40  1  0
 13 41  1  0
 13 42  1  0
 13 43  1  0
 14 44  1  1
 15 45  1  0
 17 46  1  0
 17 47  1  0
 17 48  1  0
 19 49  1  0
 20 50  1  0
 20 51  1  0
 21 52  1  0
 21 53  1  0
 22 54  1  1
 23 55  1  0
 23 56  1  0
 23 57  1  0
 24 58  1  0
 24 59  1  0
 29 60  1  0
 29 61  1  0
 30 62  1  0
 30 63  1  0
 31 64  1  0
 31 65  1  0
 32 66  1  6
 33 67  1  0
 33 68  1  0
 33 69  1  0
M  END
>  <Binding energies>  (1) 
[-7.32]

>  <Ligand effiencies>  (1) 
[-0.21529411764705883]

>  <Interactions>  (1) 
["V-A:ILE:369:CG2:3237, V-A:GLY:454:CA:4049, V-B:ALA:541:CB:9864, V-B:TYR:539:CE2:9848, V-B:LEU:475:CD2:9230, V-B:TYR:539:C:9839, V-A:TYR:539:CD1:4873, V-A:ALA:541:CB:4892, V-A:GLU:543:CD:4908, V-A:SER:385:C:3405, V-B:ILE:369:CG2:8208, V-A:ILE:369:CD1:3239, V-B:TYR:539:CD2:9846, V-A:SER:385:CB:3409, V-B:GLU:543:CD:9880, V-A:LEU:475:CD2:4259, V-A:ARG:545:CZ:4926, H-A:GLU:543:OE1:4909, V-A:SER:385:CA:3407, V-A:TYR:539:CE1:4875"]

$$$$
ZINC20607845
     RDKit          3D

 41 42  0  0  0  0  0  0  0  0999 V2000
  133.9840  122.0700   61.3070 C   0  0  0  0  0  0  0  0  0  0  0  0
  134.2860  123.5490   61.5630 C   0  0  0  0  0  0  0  0  0  0  0  0
  134.1610  123.8040   62.9600 O   0  0  0  0  0  0  0  0  0  0  0  0
  132.9220  124.1050   63.4950 C   0  0  0  0  0  0  0  0  0  0  0  0
  131.7020  123.7640   62.8820 C   0  0  0  0  0  0  0  0  0  0  0  0
  130.4780  124.0870   63.4710 C   0  0  0  0  0  0  0  0  0  0  0  0
  129.2300  123.6990   62.7790 C   0  0  0  0  0  0  0  0  0  0  0  0
  128.9290  123.8470   61.4660 C   0  0  0  0  0  0  0  0  0  0  0  0
  129.8710  124.6070   60.1880 S   0  0  0  0  0  0  0  0  0  0  0  0
  128.6380  124.2950   59.0020 C   0  0  0  0  0  0  0  0  0  0  0  0
  128.8990  124.7890   57.4280 S   0  0  0  0  0  0  0  0  0  0  0  0
  127.5820  123.6510   59.5960 N   0  0  0  0  0  0  0  0  0  0  0  0
  126.3760  123.2560   58.8050 C   0  0  0  0  0  0  0  0  0  0  0  0
  126.7010  122.4610   57.5200 C   0  0  0  0  0  0  0  0  0  0  0  0
  125.3800  124.4130   58.5640 C   0  0  0  0  0  0  0  0  0  0  0  0
  127.6680  123.3800   60.9290 C   0  0  0  0  0  0  0  0  0  0  0  0
  126.7910  122.8120   61.5860 O   0  0  0  0  0  0  0  0  0  0  0  0
  130.4770  124.7710   64.6890 C   0  0  0  0  0  0  0  0  0  0  0  0
  131.6750  125.1180   65.3080 C   0  0  0  0  0  0  0  0  0  0  0  0
  132.9070  124.7930   64.7170 C   0  0  0  0  0  0  0  0  0  0  0  0
  134.1330  125.0980   65.2840 O   0  0  0  0  0  0  0  0  0  0  0  0
  134.3830  124.7730   66.6480 C   0  0  0  0  0  0  0  0  0  0  0  0
  135.6390  125.0680   66.9890 F   0  0  0  0  0  0  0  0  0  0  0  0
  133.5540  125.4770   67.4160 F   0  0  0  0  0  0  0  0  0  0  0  0
  133.8770  121.5459   62.2682 H   0  0  0  0  0  0  0  0  0  0  0  0
  133.0490  121.9804   60.7344 H   0  0  0  0  0  0  0  0  0  0  0  0
  134.8090  121.6211   60.7344 H   0  0  0  0  0  0  0  0  0  0  0  0
  135.3099  123.7803   61.2343 H   0  0  0  0  0  0  0  0  0  0  0  0
  133.5804  124.1791   61.0016 H   0  0  0  0  0  0  0  0  0  0  0  0
  131.7129  123.2321   61.9192 H   0  0  0  0  0  0  0  0  0  0  0  0
  128.4534  123.2349   63.4047 H   0  0  0  0  0  0  0  0  0  0  0  0
  125.8460  122.5465   59.4575 H   0  0  0  0  0  0  0  0  0  0  0  0
  127.1044  121.4743   57.7915 H   0  0  0  0  0  0  0  0  0  0  0  0
  125.7836  122.3316   56.9270 H   0  0  0  0  0  0  0  0  0  0  0  0
  127.4463  123.0113   56.9270 H   0  0  0  0  0  0  0  0  0  0  0  0
  125.0382  124.8100   59.5312 H   0  0  0  0  0  0  0  0  0  0  0  0
  125.8771  125.2122   57.9946 H   0  0  0  0  0  0  0  0  0  0  0  0
  124.5158  124.0403   57.9946 H   0  0  0  0  0  0  0  0  0  0  0  0
  129.5211  125.0379   65.1634 H   0  0  0  0  0  0  0  0  0  0  0  0
  131.6564  125.6520   66.2695 H   0  0  0  0  0  0  0  0  0  0  0  0
  134.2251  123.6932   66.7863 H   0  0  0  0  0  0  0  0  0  0  0  0
  1  2  1  0
  2  3  1  0
  3  4  1  0
  4  5  2  0
  5  6  1  0
  6  7  1  0
  7  8  2  0
  8  9  1  0
  9 10  1  0
 10 11  2  0
 10 12  1  0
 12 13  1  0
 13 14  1  0
 13 15  1  0
 12 16  1  0
 16 17  2  0
  6 18  2  0
 18 19  1  0
 19 20  2  0
 20 21  1  0
 21 22  1  0
 22 23  1  0
 22 24  1  0
 20  4  1  0
 16  8  1  0
  1 25  1  0
  1 26  1  0
  1 27  1  0
  2 28  1  0
  2 29  1  0
  5 30  1  0
  7 31  1  0
 13 32  1  0
 14 33  1  0
 14 34  1  0
 14 35  1  0
 15 36  1  0
 15 37  1  0
 15 38  1  0
 18 39  1  0
 19 40  1  0
 22 41  1  0
M  END
>  <Binding energies>  (1) 
[-6.05]

>  <Ligand effiencies>  (1) 
[-0.2520833333333333]

>  <Interactions>  (1) 
["V-A:ILE:369:CG2:3237, V-B:PRO:540:CA:9855, V-A:GLY:454:CA:4049, H-A:ARG:545:NH1:4927, V-B:TYR:539:CE2:9848, V-B:GLU:543:CG:9879, V-B:TYR:539:C:9839, V-B:TYR:539:CZ:9849, V-A:ILE:455:CA:4054, H-B:ALA:541:N:9863, V-A:TYR:484:CZ:4347, V-A:ILE:455:C:4052, V-B:PRO:540:CB:9857, V-A:ARG:545:CG:4922, H-A:GLY:454:N:4050, V-A:GLY:453:C:4042, V-B:PRO:540:N:9856, V-A:ILE:369:CD1:3239, V-A:HIS:456:CE1:4070, V-B:PRO:540:CD:9859, V-A:ARG:545:CD:4923, V-A:ARG:545:CB:4921, H-A:ARG:545:NH2:4928, V-A:ARG:545:CZ:4926, V-A:GLY:453:CA:4044, H-A:ARG:545:NE:4924, V-A:GLY:454:C:4047, H-A:TYR:484:OH:4348"]

$$$$
ZINC2060990664
     RDKit          3D

103110  0  0  0  0  0  0  0  0999 V2000
  130.9440  123.6660   63.5260 C   0  0  0  0  0  0  0  0  0  0  0  0
  129.5610  122.9850   63.4510 C   0  0  2  0  0  0  0  0  0  0  0  0
  129.7140  121.4260   63.5410 C   0  0  0  0  0  0  0  0  0  0  0  0
  130.0310  120.7200   62.1750 C   0  0  1  0  0  0  0  0  0  0  0  0
  129.1910  121.1970   61.1190 O   0  0  0  0  0  0  0  0  0  0  0  0
  129.2530  122.6170   60.9990 C   0  0  1  0  0  0  0  0  0  0  0  0
  128.5820  123.3520   59.8180 C   0  0  0  0  0  0  0  0  0  0  0  0
  128.5170  124.8220   60.3560 C   0  0  1  0  0  0  0  0  0  0  0  0
  130.0150  125.3200   60.3790 C   0  0  0  0  0  0  0  0  0  0  0  0
  127.6080  125.8730   59.5930 C   0  0  2  0  0  0  0  0  0  0  0  0
  128.0600  126.0870   58.1250 C   0  0  0  0  0  0  0  0  0  0  0  0
  129.1850  127.1200   57.9260 C   0  0  0  0  0  0  0  0  0  0  0  0
  129.0510  128.4190   58.7780 C   0  0  1  0  0  0  0  0  0  0  0  0
  129.7440  129.6990   58.1420 C   0  0  0  0  0  0  0  0  0  0  0  0
  131.2320  129.3650   57.8430 C   0  0  0  0  0  0  0  0  0  0  0  0
  129.0330  130.2060   56.8540 C   0  0  0  0  0  0  0  0  0  0  0  0
  129.7390  130.8340   59.2170 C   0  0  1  0  0  0  0  0  0  0  0  0
  130.3060  132.0300   58.6710 O   0  0  0  0  0  0  0  0  0  0  0  0
  131.5920  131.9500   58.1310 C   0  0  2  0  0  0  0  0  0  0  0  0
  131.5970  131.1110   56.9990 O   0  0  0  0  0  0  0  0  0  0  0  0
  132.8890  130.9910   56.4020 C   0  0  0  0  0  0  0  0  0  0  0  0
  133.8740  130.3230   57.3760 C   0  0  1  0  0  0  0  0  0  0  0  0
  135.1480  130.1980   56.7720 O   0  0  0  0  0  0  0  0  0  0  0  0
  133.9350  131.1350   58.6820 C   0  0  2  0  0  0  0  0  0  0  0  0
  134.7650  130.5070   59.6460 O   0  0  0  0  0  0  0  0  0  0  0  0
  132.5060  131.3760   59.2340 C   0  0  1  0  0  0  0  0  0  0  0  0
  132.5280  132.2250   60.3700 O   0  0  0  0  0  0  0  0  0  0  0  0
  128.3210  131.1200   59.7560 C   0  0  0  0  0  0  0  0  0  0  0  0
  127.7400  129.8570   60.4190 C   0  0  0  0  0  0  0  0  0  0  0  0
  127.6550  128.5740   59.5060 C   0  0  1  0  0  0  0  0  0  0  0  0
  126.5540  128.8290   58.4080 C   0  0  0  0  0  0  0  0  0  0  0  0
  127.3130  127.2510   60.4000 C   0  0  1  0  0  0  0  0  0  0  0  0
  125.7940  127.3460   60.8090 C   0  0  0  0  0  0  0  0  0  0  0  0
  128.0510  127.2210   61.8130 C   0  0  0  0  0  0  0  0  0  0  0  0
  128.0620  125.8750   62.6280 C   0  0  0  0  0  0  0  0  0  0  0  0
  127.9310  124.5690   61.7920 C   0  0  1  0  0  0  0  0  0  0  0  0
  126.3960  124.2000   61.7870 C   0  0  0  0  0  0  0  0  0  0  0  0
  128.6230  123.2230   62.2500 C   0  0  2  0  0  0  0  0  0  0  0  0
  131.3890  120.8650   61.8880 O   0  0  0  0  0  0  0  0  0  0  0  0
  131.8210  119.8170   61.0890 C   0  0  2  0  0  0  0  0  0  0  0  0
  131.6930  120.0380   59.7390 O   0  0  0  0  0  0  0  0  0  0  0  0
  131.0160  118.6160   61.5610 C   0  0  2  0  0  0  0  0  0  0  0  0
  131.7110  117.3220   62.0000 C   0  0  0  0  0  0  0  0  0  0  0  0
  129.7010  118.5980   61.0650 O   0  0  0  0  0  0  0  0  0  0  0  0
  129.8760  119.2060   62.3220 C   0  0  2  0  0  0  0  0  0  0  0  0
  131.2273  123.8055   64.5797 H   0  0  0  0  0  0  0  0  0  0  0  0
  131.6919  123.0332   63.0259 H   0  0  0  0  0  0  0  0  0  0  0  0
  130.8984  124.6447   63.0259 H   0  0  0  0  0  0  0  0  0  0  0  0
  129.0745  123.4874   64.3001 H   0  0  0  0  0  0  0  0  0  0  0  0
  130.5322  121.2015   64.2411 H   0  0  0  0  0  0  0  0  0  0  0  0
  128.7410  121.0362   63.8747 H   0  0  0  0  0  0  0  0  0  0  0  0
  130.3299  122.7651   60.8308 H   0  0  0  0  0  0  0  0  0  0  0  0
  129.1923  123.2855   58.9052 H   0  0  0  0  0  0  0  0  0  0  0  0
  127.6044  122.9375   59.5309 H   0  0  0  0  0  0  0  0  0  0  0  0
  130.3486  125.4309   61.4213 H   0  0  0  0  0  0  0  0  0  0  0  0
  130.6534  124.5858   59.8659 H   0  0  0  0  0  0  0  0  0  0  0  0
  130.0867  126.2903   59.8659 H   0  0  0  0  0  0  0  0  0  0  0  0
  126.6147  125.4026   59.5470 H   0  0  0  0  0  0  0  0  0  0  0  0
  128.4125  125.1212   57.7339 H   0  0  0  0  0  0  0  0  0  0  0  0
  127.1839  126.4853   57.5923 H   0  0  0  0  0  0  0  0  0  0  0  0
  130.1391  126.6387   58.1868 H   0  0  0  0  0  0  0  0  0  0  0  0
  129.1262  127.4370   56.8743 H   0  0  0  0  0  0  0  0  0  0  0  0
  129.7010  128.2914   59.6562 H   0  0  0  0  0  0  0  0  0  0  0  0
  131.7778  129.2425   58.7902 H   0  0  0  0  0  0  0  0  0  0  0  0
  131.2890  128.4317   57.2636 H   0  0  0  0  0  0  0  0  0  0  0  0
  131.6824  130.1844   57.2636 H   0  0  0  0  0  0  0  0  0  0  0  0
  128.1666  130.8238   57.1325 H   0  0  0  0  0  0  0  0  0  0  0  0
  129.7364  130.8075   56.2595 H   0  0  0  0  0  0  0  0  0  0  0  0
  128.6935  129.3450   56.2595 H   0  0  0  0  0  0  0  0  0  0  0  0
  130.3499  130.4876   60.0637 H   0  0  0  0  0  0  0  0  0  0  0  0
  131.9452  132.9401   57.8070 H   0  0  0  0  0  0  0  0  0  0  0  0
  132.8110  130.3800   55.4906 H   0  0  0  0  0  0  0  0  0  0  0  0
  133.2608  131.9963   56.1547 H   0  0  0  0  0  0  0  0  0  0  0  0
  133.5266  129.3086   57.6216 H   0  0  0  0  0  0  0  0  0  0  0  0
  135.5030  129.3310   56.9860 H   0  0  0  0  0  0  0  0  0  0  0  0
  134.3863  132.1128   58.4577 H   0  0  0  0  0  0  0  0  0  0  0  0
  135.3650  129.9110   59.1900 H   0  0  0  0  0  0  0  0  0  0  0  0
  132.0962  130.4069   59.5547 H   0  0  0  0  0  0  0  0  0  0  0  0
  133.4110  132.5890   60.4610 H   0  0  0  0  0  0  0  0  0  0  0  0
  128.3709  131.9301   60.4985 H   0  0  0  0  0  0  0  0  0  0  0  0
  127.6719  131.4175   58.9193 H   0  0  0  0  0  0  0  0  0  0  0  0
  128.3706  129.6117   61.2863 H   0  0  0  0  0  0  0  0  0  0  0  0
  126.7002  130.1081   60.6753 H   0  0  0  0  0  0  0  0  0  0  0  0
  125.5938  129.0514   58.8963 H   0  0  0  0  0  0  0  0  0  0  0  0
  126.8525  129.6818   57.7806 H   0  0  0  0  0  0  0  0  0  0  0  0
  126.4472  127.9318   57.7806 H   0  0  0  0  0  0  0  0  0  0  0  0
  125.7092  127.3513   61.9057 H   0  0  0  0  0  0  0  0  0  0  0  0
  125.3623  128.2729   60.4034 H   0  0  0  0  0  0  0  0  0  0  0  0
  125.2502  126.4801   60.4034 H   0  0  0  0  0  0  0  0  0  0  0  0
  129.0998  127.5023   61.6372 H   0  0  0  0  0  0  0  0  0  0  0  0
  127.4621  127.9084   62.4380 H   0  0  0  0  0  0  0  0  0  0  0  0
  129.0105  125.8255   63.1828 H   0  0  0  0  0  0  0  0  0  0  0  0
  127.1673  125.9085   63.2670 H   0  0  0  0  0  0  0  0  0  0  0  0
  126.0363  124.1135   62.8229 H   0  0  0  0  0  0  0  0  0  0  0  0
  125.8312  124.9879   61.2673 H   0  0  0  0  0  0  0  0  0  0  0  0
  126.2510  123.2414   61.2673 H   0  0  0  0  0  0  0  0  0  0  0  0
  127.7494  122.7740   62.7452 H   0  0  0  0  0  0  0  0  0  0  0  0
  132.9054  119.6697   61.2006 H   0  0  0  0  0  0  0  0  0  0  0  0
  130.8530  120.4760   59.5900 H   0  0  0  0  0  0  0  0  0  0  0  0
  131.7367  117.2741   63.0987 H   0  0  0  0  0  0  0  0  0  0  0  0
  131.1562  116.4567   61.6082 H   0  0  0  0  0  0  0  0  0  0  0  0
  132.7387  117.3067   61.6082 H   0  0  0  0  0  0  0  0  0  0  0  0
  129.3909  119.0994   63.3035 H   0  0  0  0  0  0  0  0  0  0  0  0
  1  2  1  0
  2  3  1  0
  3  4  1  0
  4  5  1  6
  5  6  1  0
  6  7  1  0
  7  8  1  0
  8  9  1  1
  8 10  1  0
 10 11  1  0
 11 12  1  0
 12 13  1  0
 13 14  1  0
 14 15  1  0
 14 16  1  0
 14 17  1  0
 17 18  1  0
 18 19  1  0
 19 20  1  0
 20 21  1  0
 21 22  1  0
 22 23  1  0
 22 24  1  0
 24 25  1  0
 24 26  1  0
 26 27  1  0
 17 28  1  0
 28 29  1  0
 29 30  1  0
 30 31  1  6
 30 32  1  0
 32 33  1  1
 32 34  1  0
 34 35  1  0
 35 36  1  0
 36 37  1  6
 36 38  1  0
  4 39  1  0
 39 40  1  0
 40 41  1  0
 40 42  1  0
 42 43  1  1
 42 44  1  0
 44 45  1  0
 38  2  1  0
 45 42  1  0
 45  4  1  0
 38  6  1  0
 36  8  1  0
 32 10  1  0
 30 13  1  0
 26 19  1  0
  1 46  1  0
  1 47  1  0
  1 48  1  0
  2 49  1  1
  3 50  1  0
  3 51  1  0
  6 52  1  1
  7 53  1  0
  7 54  1  0
  9 55  1  0
  9 56  1  0
  9 57  1  0
 10 58  1  6
 11 59  1  0
 11 60  1  0
 12 61  1  0
 12 62  1  0
 13 63  1  1
 15 64  1  0
 15 65  1  0
 15 66  1  0
 16 67  1  0
 16 68  1  0
 16 69  1  0
 17 70  1  1
 19 71  1  6
 21 72  1  0
 21 73  1  0
 22 74  1  1
 23 75  1  0
 24 76  1  6
 25 77  1  0
 26 78  1  1
 27 79  1  0
 28 80  1  0
 28 81  1  0
 29 82  1  0
 29 83  1  0
 31 84  1  0
 31 85  1  0
 31 86  1  0
 33 87  1  0
 33 88  1  0
 33 89  1  0
 34 90  1  0
 34 91  1  0
 35 92  1  0
 35 93  1  0
 37 94  1  0
 37 95  1  0
 37 96  1  0
 38 97  1  1
 40 98  1  6
 41 99  1  0
 43100  1  0
 43101  1  0
 43102  1  0
 45103  1  1
M  END
>  <Binding energies>  (1) 
[8.97]

>  <Ligand effiencies>  (1) 
[0.18306122448979592]

>  <Interactions>  (1) 
["H-A:ASN:362:O:3173, V-B:ALA:541:CB:9864, V-B:ASP:366:CG:8184, H-A:TYR:531:OH:4795, V-B:TYR:539:CE2:9848, V-A:LEU:475:CG:4257, V-B:GLU:543:CG:9879, V-A:ASP:366:CG:3213, V-A:LEU:363:CD1:3189, V-A:LEU:363:CB:3187, V-A:LEU:363:CG:3188, V-A:TYR:531:CE2:4793, V-A:TYR:531:CD2:4791, H-B:ALA:541:N:9863, H-A:LEU:363:O:3184, V-A:LEU:475:CD1:4258, V-B:TYR:539:CD2:9846, V-A:TYR:531:CZ:4794, V-A:SER:385:CB:3409, H-A:SER:385:OG:3410, V-B:GLU:543:CD:9880, V-A:MET:535:CE:4835, V-A:ASP:366:CB:3212, H-A:ALA:367:N:3220, V-A:LEU:475:CD2:4259, H-A:LEU:363:N:3186, H-A:ASP:366:OD1:3214, V-A:PRO:540:CB:4885, V-A:PRO:540:CA:4883, V-A:LEU:363:CA:3185, H-B:TYR:539:O:9840, H-A:ASP:366:OD2:3215, V-B:ALA:541:CA:9862, V-A:HIS:383:NE2:3394, V-A:LEU:363:C:3183"]

$$$$
ZINC2060999613
     RDKit          3D

 82 85  0  0  0  0  0  0  0  0999 V2000
  128.3430  122.6170   62.4610 C   0  0  0  0  0  0  0  0  0  0  0  0
  129.0110  123.7540   61.6620 C   0  0  2  0  0  0  0  0  0  0  0  0
  130.0690  123.2650   60.8450 O   0  0  0  0  0  0  0  0  0  0  0  0
  131.2300  122.8610   61.5610 C   0  0  0  0  0  0  0  0  0  0  0  0
  132.4540  122.9270   60.6490 C   0  0  0  0  0  0  0  0  0  0  0  0
  132.9880  121.9120   60.1990 O   0  0  0  0  0  0  0  0  0  0  0  0
  132.8660  124.2030   60.4380 O   0  0  0  0  0  0  0  0  0  0  0  0
  131.9990  125.2280   59.9320 C   0  0  1  0  0  0  0  0  0  0  0  0
  132.0820  126.4210   60.9060 C   0  0  0  0  0  0  0  0  0  0  0  0
  132.3560  125.5990   58.4690 C   0  0  0  0  0  0  0  0  0  0  0  0
  133.2350  125.0010   57.8410 O   0  0  0  0  0  0  0  0  0  0  0  0
  131.5850  126.6140   57.9850 O   0  0  0  0  0  0  0  0  0  0  0  0
  130.2300  126.4330   57.8340 C   0  0  0  0  0  0  0  0  0  0  0  0
  129.7110  125.1590   58.0950 C   0  0  0  0  0  0  0  0  0  0  0  0
  128.3460  124.9110   57.9710 C   0  0  0  0  0  0  0  0  0  0  0  0
  127.7230  123.3330   58.2920 Cl  0  0  0  0  0  0  0  0  0  0  0  0
  127.4850  125.9390   57.5950 C   0  0  0  0  0  0  0  0  0  0  0  0
  127.9900  127.2160   57.3510 C   0  0  0  0  0  0  0  0  0  0  0  0
  129.3580  127.4830   57.4820 C   0  0  0  0  0  0  0  0  0  0  0  0
  129.8580  128.8990   57.1960 C   0  0  0  0  0  0  0  0  0  0  0  0
  130.5320  129.5680   58.3930 C   0  0  0  0  0  0  0  0  0  0  0  0
  130.1450  129.1770   59.6820 C   0  0  0  0  0  0  0  0  0  0  0  0
  130.7380  129.7460   60.8080 C   0  0  0  0  0  0  0  0  0  0  0  0
  131.7230  130.7190   60.6590 C   0  0  0  0  0  0  0  0  0  0  0  0
  132.4780  131.4090   62.0480 Cl  0  0  0  0  0  0  0  0  0  0  0  0
  132.0980  131.1370   59.3830 C   0  0  0  0  0  0  0  0  0  0  0  0
  131.5080  130.5710   58.2500 C   0  0  0  0  0  0  0  0  0  0  0  0
  132.0050  131.1610   56.7020 Cl  0  0  0  0  0  0  0  0  0  0  0  0
  129.5760  124.8460   62.5770 C   0  0  0  0  0  0  0  0  0  0  0  0
  129.5170  126.0400   62.2760 O   0  0  0  0  0  0  0  0  0  0  0  0
  130.1400  124.3350   63.7070 O   0  0  0  0  0  0  0  0  0  0  0  0
  131.3700  124.8150   64.2730 C   0  0  2  0  0  0  0  0  0  0  0  0
  132.3650  123.6400   64.2510 C   0  0  0  0  0  0  0  0  0  0  0  0
  131.2360  125.3850   65.7060 C   0  0  0  0  0  0  0  0  0  0  0  0
  132.2300  125.7940   66.3110 O   0  0  0  0  0  0  0  0  0  0  0  0
  129.9520  125.3730   66.1720 O   0  0  0  0  0  0  0  0  0  0  0  0
  129.2440  126.5510   66.2990 C   0  0  0  0  0  0  0  0  0  0  0  0
  128.9850  127.3370   65.1680 C   0  0  0  0  0  0  0  0  0  0  0  0
  128.3220  128.5570   65.2880 C   0  0  0  0  0  0  0  0  0  0  0  0
  128.0220  129.5190   63.8880 Cl  0  0  0  0  0  0  0  0  0  0  0  0
  127.9140  129.0050   66.5420 C   0  0  0  0  0  0  0  0  0  0  0  0
  128.1770  128.2380   67.6740 C   0  0  0  0  0  0  0  0  0  0  0  0
  128.8450  127.0120   67.5680 C   0  0  0  0  0  0  0  0  0  0  0  0
  129.1360  126.2110   68.8390 C   0  0  0  0  0  0  0  0  0  0  0  0
  129.0640  127.0020   70.1450 C   0  0  0  0  0  0  0  0  0  0  0  0
  127.9210  126.8920   70.9420 C   0  0  0  0  0  0  0  0  0  0  0  0
  127.8200  127.5900   72.1440 C   0  0  0  0  0  0  0  0  0  0  0  0
  128.8630  128.4160   72.5580 C   0  0  0  0  0  0  0  0  0  0  0  0
  128.7430  129.2780   74.0480 Cl  0  0  0  0  0  0  0  0  0  0  0  0
  130.0020  128.5460   71.7640 C   0  0  0  0  0  0  0  0  0  0  0  0
  130.1080  127.8480   70.5590 C   0  0  0  0  0  0  0  0  0  0  0  0
  131.5390  128.0590   69.6100 Cl  0  0  0  0  0  0  0  0  0  0  0  0
  128.4564  122.8100   63.5380 H   0  0  0  0  0  0  0  0  0  0  0  0
  127.2736  122.5699   62.2075 H   0  0  0  0  0  0  0  0  0  0  0  0
  128.8224  121.6600   62.2075 H   0  0  0  0  0  0  0  0  0  0  0  0
  128.2193  124.1838   61.0307 H   0  0  0  0  0  0  0  0  0  0  0  0
  131.3795  123.5307   62.4207 H   0  0  0  0  0  0  0  0  0  0  0  0
  131.0965  121.8274   61.9129 H   0  0  0  0  0  0  0  0  0  0  0  0
  130.9572  124.8782   59.8840 H   0  0  0  0  0  0  0  0  0  0  0  0
  132.0563  126.0513   61.9417 H   0  0  0  0  0  0  0  0  0  0  0  0
  133.0204  126.9690   60.7355 H   0  0  0  0  0  0  0  0  0  0  0  0
  131.2285  127.0936   60.7355 H   0  0  0  0  0  0  0  0  0  0  0  0
  130.3871  124.3469   58.4006 H   0  0  0  0  0  0  0  0  0  0  0  0
  126.4075  125.7440   57.4905 H   0  0  0  0  0  0  0  0  0  0  0  0
  127.3051  128.0231   57.0520 H   0  0  0  0  0  0  0  0  0  0  0  0
  130.5843  128.8505   56.3713 H   0  0  0  0  0  0  0  0  0  0  0  0
  128.9757  129.5058   56.9444 H   0  0  0  0  0  0  0  0  0  0  0  0
  129.3642  128.4122   59.8066 H   0  0  0  0  0  0  0  0  0  0  0  0
  130.4280  129.4265   61.8139 H   0  0  0  0  0  0  0  0  0  0  0  0
  132.8639  131.9180   59.2674 H   0  0  0  0  0  0  0  0  0  0  0  0
  131.7164  125.6664   63.6687 H   0  0  0  0  0  0  0  0  0  0  0  0
  132.6115  123.3489   65.2827 H   0  0  0  0  0  0  0  0  0  0  0  0
  131.9117  122.7855   63.7273 H   0  0  0  0  0  0  0  0  0  0  0  0
  133.2826  123.9463   63.7273 H   0  0  0  0  0  0  0  0  0  0  0  0
  129.3080  126.9877   64.1762 H   0  0  0  0  0  0  0  0  0  0  0  0
  127.3843  129.9642   66.6381 H   0  0  0  0  0  0  0  0  0  0  0  0
  127.8565  128.5992   68.6623 H   0  0  0  0  0  0  0  0  0  0  0  0
  128.4047  125.3914   68.8982 H   0  0  0  0  0  0  0  0  0  0  0  0
  130.1777  125.8694   68.7493 H   0  0  0  0  0  0  0  0  0  0  0  0
  127.0915  126.2469   70.6167 H   0  0  0  0  0  0  0  0  0  0  0  0
  126.9179  127.4890   72.7652 H   0  0  0  0  0  0  0  0  0  0  0  0
  130.8225  129.2027   72.0890 H   0  0  0  0  0  0  0  0  0  0  0  0
  1  2  1  0
  2  3  1  0
  3  4  1  0
  4  5  1  0
  5  6  2  0
  5  7  1  0
  7  8  1  0
  8  9  1  0
  8 10  1  0
 10 11  2  0
 10 12  1  0
 12 13  1  0
 13 14  2  0
 14 15  1  0
 15 16  1  0
 15 17  2  0
 17 18  1  0
 18 19  2  0
 19 20  1  0
 20 21  1  0
 21 22  2  0
 22 23  1  0
 23 24  2  0
 24 25  1  0
 24 26  1  0
 26 27  2  0
 27 28  1  0
  2 29  1  0
 29 30  2  0
 29 31  1  0
 31 32  1  0
 32 33  1  0
 32 34  1  0
 34 35  2  0
 34 36  1  0
 36 37  1  0
 37 38  2  0
 38 39  1  0
 39 40  1  0
 39 41  2  0
 41 42  1  0
 42 43  2  0
 43 44  1  0
 44 45  1  0
 45 46  2  0
 46 47  1  0
 47 48  2  0
 48 49  1  0
 48 50  1  0
 50 51  2  0
 51 52  1  0
 19 13  1  0
 27 21  1  0
 43 37  1  0
 51 45  1  0
  1 53  1  0
  1 54  1  0
  1 55  1  0
  2 56  1  6
  4 57  1  0
  4 58  1  0
  8 59  1  6
  9 60  1  0
  9 61  1  0
  9 62  1  0
 14 63  1  0
 17 64  1  0
 18 65  1  0
 20 66  1  0
 20 67  1  0
 22 68  1  0
 23 69  1  0
 26 70  1  0
 32 71  1  6
 33 72  1  0
 33 73  1  0
 33 74  1  0
 38 75  1  0
 41 76  1  0
 42 77  1  0
 44 78  1  0
 44 79  1  0
 46 80  1  0
 47 81  1  0
 50 82  1  0
M  END
>  <Binding energies>  (1) 
[-9.59]

>  <Ligand effiencies>  (1) 
[-0.1844230769230769]

>  <Interactions>  (1) 
["V-A:ARG:545:CA:4919, V-A:GLU:543:CA:4904, V-B:PRO:540:CA:9855, V-B:GLU:543:C:9874, V-B:HIS:456:CD2:9039, V-A:GLU:543:C:4902, V-B:GLU:543:CB:9878, V-B:ALA:541:CB:9864, H-A:TYR:531:OH:4795, V-B:TYR:539:CE2:9848, V-B:GLU:543:CG:9879, V-A:GLY:544:C:4912, V-A:ASP:366:CG:3213, V-A:LEU:363:CD1:3189, V-B:TYR:539:CZ:9849, V-A:TYR:531:CE2:4793, H-B:TYR:539:OH:9850, V-A:GLU:543:CD:4908, V-B:HIS:456:CE1:9041, V-B:GLU:543:CA:9876, V-A:ARG:545:CG:4922, V-A:HIS:456:CE1:4070, V-B:GLY:544:C:9884, V-A:GLU:543:CG:4907, V-A:TYR:531:CZ:4794, V-B:GLU:543:CD:9880, V-B:HIS:456:CG:9037, V-A:MET:535:CE:4835, V-A:ASP:366:CB:3212, V-A:GLU:543:CB:4906, V-A:PRO:540:CB:4885, H-A:ARG:545:NE:4924, V-B:ALA:541:CA:9862, H-A:TYR:484:OH:4348"]

$$$$
ZINC2060999769
     RDKit          3D

 39 40  0  0  0  0  0  0  0  0999 V2000
  134.5240  124.6870   62.1920 C   0  0  0  0  0  0  0  0  0  0  0  0
  133.4080  124.4100   61.4920 C   0  0  0  0  0  0  0  0  0  0  0  0
  133.4200  124.0600   60.0800 C   0  0  0  0  0  0  0  0  0  0  0  0
  134.3820  124.0450   59.3120 O   0  0  0  0  0  0  0  0  0  0  0  0
  132.1600  123.7390   59.7250 O   0  0  0  0  0  0  0  0  0  0  0  0
  131.3030  123.5960   60.8490 C   0  0  1  0  0  0  0  0  0  0  0  0
  131.1150  122.1210   61.2080 C   0  0  0  0  0  0  0  0  0  0  0  0
  129.9470  121.4480   61.2340 C   0  0  0  0  0  0  0  0  0  0  0  0
  129.8800  119.9790   61.6130 C   0  0  0  0  0  0  0  0  0  0  0  0
  128.6120  122.0940   60.8820 C   0  0  0  0  0  0  0  0  0  0  0  0
  128.2430  123.3060   61.7770 C   0  0  2  0  0  0  0  0  0  0  0  0
  126.9600  123.1170   62.3360 O   0  0  0  0  0  0  0  0  0  0  0  0
  128.2250  124.6170   61.0080 C   0  0  0  0  0  0  0  0  0  0  0  0
  128.9500  125.7320   61.2460 C   0  0  0  0  0  0  0  0  0  0  0  0
  128.7890  126.9560   60.3520 C   0  0  0  0  0  0  0  0  0  0  0  0
  129.8810  125.9280   62.4500 C   0  0  0  0  0  0  0  0  0  0  0  0
  131.4160  125.8410   62.2120 C   0  0  2  0  0  0  0  0  0  0  0  0
  131.8470  126.7550   61.2180 O   0  0  0  0  0  0  0  0  0  0  0  0
  131.9720  124.4030   61.9730 C   0  0  2  0  0  0  0  0  0  0  0  0
  134.4540  124.9458   63.2588 H   0  0  0  0  0  0  0  0  0  0  0  0
  135.5059  124.6545   61.6972 H   0  0  0  0  0  0  0  0  0  0  0  0
  130.2874  123.9715   60.6551 H   0  0  0  0  0  0  0  0  0  0  0  0
  132.0206  121.5544   61.4704 H   0  0  0  0  0  0  0  0  0  0  0  0
  129.8756  119.8829   62.7088 H   0  0  0  0  0  0  0  0  0  0  0  0
  128.9607  119.5359   61.2024 H   0  0  0  0  0  0  0  0  0  0  0  0
  130.7551  119.4541   61.2024 H   0  0  0  0  0  0  0  0  0  0  0  0
  128.6579  122.4363   59.8376 H   0  0  0  0  0  0  0  0  0  0  0  0
  127.8364  121.3309   61.0435 H   0  0  0  0  0  0  0  0  0  0  0  0
  129.0171  123.3658   62.5563 H   0  0  0  0  0  0  0  0  0  0  0  0
  126.7690  123.8580   62.9160 H   0  0  0  0  0  0  0  0  0  0  0  0
  127.5363  124.6638   60.1515 H   0  0  0  0  0  0  0  0  0  0  0  0
  128.6709  127.8535   60.9769 H   0  0  0  0  0  0  0  0  0  0  0  0
  129.6804  127.0660   59.7170 H   0  0  0  0  0  0  0  0  0  0  0  0
  127.8995  126.8318   59.7170 H   0  0  0  0  0  0  0  0  0  0  0  0
  129.6711  126.9243   62.8662 H   0  0  0  0  0  0  0  0  0  0  0  0
  129.6579  125.0763   63.1095 H   0  0  0  0  0  0  0  0  0  0  0  0
  131.8620  126.1431   63.1711 H   0  0  0  0  0  0  0  0  0  0  0  0
  132.4900  127.3500   61.6090 H   0  0  0  0  0  0  0  0  0  0  0  0
  131.7987  123.9589   62.9643 H   0  0  0  0  0  0  0  0  0  0  0  0
  1  2  2  0
  2  3  1  0
  3  4  2  0
  3  5  1  0
  5  6  1  0
  6  7  1  0
  7  8  2  0
  8  9  1  0
  8 10  1  0
 10 11  1  0
 11 12  1  0
 11 13  1  0
 13 14  2  0
 14 15  1  0
 14 16  1  0
 16 17  1  0
 17 18  1  0
 17 19  1  0
 19  2  1  0
 19  6  1  0
  1 20  1  0
  1 21  1  0
  6 22  1  6
  7 23  1  0
  9 24  1  0
  9 25  1  0
  9 26  1  0
 10 27  1  0
 10 28  1  0
 11 29  1  1
 12 30  1  0
 13 31  1  0
 15 32  1  0
 15 33  1  0
 15 34  1  0
 16 35  1  0
 16 36  1  0
 17 37  1  1
 18 38  1  0
 19 39  1  1
M  END
>  <Binding energies>  (1) 
[-3.77]

>  <Ligand effiencies>  (1) 
[-0.16391304347826088]

>  <Interactions>  (1) 
["V-A:ILE:369:CG2:3237, V-A:ILE:369:CD1:3239, V-B:PRO:540:CA:9855, V-A:GLY:453:CA:4044, H-B:GLU:543:OE1:9881, V-B:TYR:539:CD2:9846, H-B:ALA:541:N:9863, V-B:PRO:540:C:9853, V-B:ALA:541:CB:9864, V-B:TYR:539:CE2:9848, H-A:ASP:366:OD2:3215, V-A:LEU:475:CD2:4259, H-A:ARG:545:NH2:4928, V-A:ARG:545:CZ:4926, H-A:GLU:543:OE1:4909, V-A:ASP:366:CG:3213, H-A:ASP:366:OD1:3214"]

$$$$
ZINC2065294337
     RDKit          3D

 91 96  0  0  0  0  0  0  0  0999 V2000
  130.3640  127.6530   62.3310 O   0  0  0  0  0  0  0  0  0  0  0  0
  130.2830  126.8070   61.4430 C   0  0  0  0  0  0  0  0  0  0  0  0
  129.3710  127.0160   60.4670 N   0  0  0  0  0  0  0  0  0  0  0  0
  129.0090  126.3330   59.2180 C   0  0  1  0  0  0  0  0  0  0  0  0
  127.4870  126.3080   58.9610 C   0  0  0  0  0  0  0  0  0  0  0  0
  126.9110  127.7100   58.6470 C   0  0  0  0  0  0  0  0  0  0  0  0
  127.6110  128.3570   57.5230 N   0  0  0  0  0  0  0  0  0  0  0  0
  127.0310  129.6810   57.2280 C   0  0  0  0  0  0  0  0  0  0  0  0
  127.9690  130.8540   57.6290 C   0  0  0  0  0  0  0  0  0  0  0  0
  128.2820  131.7030   56.7870 O   0  0  0  0  0  0  0  0  0  0  0  0
  128.4180  130.9250   58.9130 N   0  0  0  0  0  0  0  0  0  0  0  0
  129.3230  132.0080   59.3510 C   0  0  0  0  0  0  0  0  0  0  0  0
  128.6390  132.7930   60.4970 C   0  0  0  0  0  0  0  0  0  0  0  0
  128.2760  131.8380   61.5590 N   0  0  0  0  0  0  0  0  0  0  0  0
  128.8670  131.9030   62.7850 C   0  0  0  0  0  0  0  0  0  0  0  0
  129.6880  132.7630   63.1120 O   0  0  0  0  0  0  0  0  0  0  0  0
  128.4780  130.9200   63.7530 C   0  0  0  0  0  0  0  0  0  0  0  0
  128.3370  129.5420   63.6540 C   0  0  0  0  0  0  0  0  0  0  0  0
  128.0360  129.0810   64.9370 C   0  0  0  0  0  0  0  0  0  0  0  0
  128.0470  130.1920   65.7650 C   0  0  0  0  0  0  0  0  0  0  0  0
  128.3370  131.3080   65.0490 O   0  0  0  0  0  0  0  0  0  0  0  0
  127.3520  130.7710   61.1200 C   0  0  0  0  0  0  0  0  0  0  0  0
  128.0320  129.9770   59.9780 C   0  0  0  0  0  0  0  0  0  0  0  0
  129.0620  128.4220   57.7830 C   0  0  0  0  0  0  0  0  0  0  0  0
  129.6670  127.0110   57.9850 C   0  0  1  0  0  0  0  0  0  0  0  0
  131.2120  126.9920   57.9410 C   0  0  0  0  0  0  0  0  0  0  0  0
  131.7960  125.5980   58.0560 C   0  0  0  0  0  0  0  0  0  0  0  0
  132.8610  125.2740   58.8090 C   0  0  0  0  0  0  0  0  0  0  0  0
  133.3750  123.8540   58.9940 C   0  0  0  0  0  0  0  0  0  0  0  0
  132.9510  123.0390   60.2730 C   0  0  0  0  0  0  0  0  0  0  0  0
  133.2290  121.5190   59.9730 C   0  0  0  0  0  0  0  0  0  0  0  0
  133.0740  120.5890   61.1980 C   0  0  0  0  0  0  0  0  0  0  0  0
  133.9240  121.0360   62.2500 O   0  0  0  0  0  0  0  0  0  0  0  0
  133.6320  122.3570   62.6940 C   0  0  0  0  0  0  0  0  0  0  0  0
  133.8270  123.3590   61.5300 C   0  0  0  0  0  0  0  0  0  0  0  0
  131.3970  123.2100   60.5520 C   0  0  0  0  0  0  0  0  0  0  0  0
  130.6350  122.3080   60.2020 O   0  0  0  0  0  0  0  0  0  0  0  0
  130.8040  124.2960   61.1040 N   0  0  0  0  0  0  0  0  0  0  0  0
  131.2900  125.6120   61.5290 C   0  0  2  0  0  0  0  0  0  0  0  0
  131.9260  125.4840   62.9500 C   0  0  0  0  0  0  0  0  0  0  0  0
  131.0740  124.8080   64.0180 C   0  0  0  0  0  0  0  0  0  0  0  0
  130.8020  123.4250   63.9460 C   0  0  0  0  0  0  0  0  0  0  0  0
  130.1070  122.7950   64.9700 C   0  0  0  0  0  0  0  0  0  0  0  0
  129.6970  123.5180   66.0830 C   0  0  0  0  0  0  0  0  0  0  0  0
  129.9880  124.8730   66.1870 C   0  0  0  0  0  0  0  0  0  0  0  0
  130.6810  125.5190   65.1730 C   0  0  0  0  0  0  0  0  0  0  0  0
  128.7680  127.8070   60.6470 H   0  0  0  0  0  0  0  0  0  0  0  0
  129.3762  125.3040   59.3458 H   0  0  0  0  0  0  0  0  0  0  0  0
  127.2852  125.6452   58.1066 H   0  0  0  0  0  0  0  0  0  0  0  0
  127.0009  125.9472   59.8794 H   0  0  0  0  0  0  0  0  0  0  0  0
  125.8464  127.6068   58.3899 H   0  0  0  0  0  0  0  0  0  0  0  0
  127.0466  128.3398   59.5386 H   0  0  0  0  0  0  0  0  0  0  0  0
  126.8315  129.7443   56.1481 H   0  0  0  0  0  0  0  0  0  0  0  0
  126.1092  129.7775   57.8204 H   0  0  0  0  0  0  0  0  0  0  0  0
  130.2691  131.5771   59.7106 H   0  0  0  0  0  0  0  0  0  0  0  0
  129.5352  132.6830   58.5087 H   0  0  0  0  0  0  0  0  0  0  0  0
  129.3323  133.5478   60.8965 H   0  0  0  0  0  0  0  0  0  0  0  0
  127.7395  133.3037   60.1226 H   0  0  0  0  0  0  0  0  0  0  0  0
  128.4419  128.9334   62.7437 H   0  0  0  0  0  0  0  0  0  0  0  0
  127.8307  128.0414   65.2322 H   0  0  0  0  0  0  0  0  0  0  0  0
  127.8492  130.1723   66.8469 H   0  0  0  0  0  0  0  0  0  0  0  0
  127.1343  130.0979   61.9624 H   0  0  0  0  0  0  0  0  0  0  0  0
  126.4077  131.2101   60.7656 H   0  0  0  0  0  0  0  0  0  0  0  0
  128.9273  129.4667   60.3629 H   0  0  0  0  0  0  0  0  0  0  0  0
  127.3379  129.2232   59.5780 H   0  0  0  0  0  0  0  0  0  0  0  0
  129.5571  128.9038   56.9270 H   0  0  0  0  0  0  0  0  0  0  0  0
  129.2215  129.0007   58.7048 H   0  0  0  0  0  0  0  0  0  0  0  0
  129.4145  126.3806   57.1196 H   0  0  0  0  0  0  0  0  0  0  0  0
  131.5399  127.4307   56.9871 H   0  0  0  0  0  0  0  0  0  0  0  0
  131.5706  127.5688   58.8063 H   0  0  0  0  0  0  0  0  0  0  0  0
  131.3133  124.7935   57.4817 H   0  0  0  0  0  0  0  0  0  0  0  0
  133.3946  126.0865   59.3239 H   0  0  0  0  0  0  0  0  0  0  0  0
  133.0405  123.2757   58.1201 H   0  0  0  0  0  0  0  0  0  0  0  0
  134.4602  123.9849   59.1177 H   0  0  0  0  0  0  0  0  0  0  0  0
  132.5238  121.1866   59.1970 H   0  0  0  0  0  0  0  0  0  0  0  0
  134.2797  121.4482   59.6553 H   0  0  0  0  0  0  0  0  0  0  0  0
  132.0287  120.6059   61.5401 H   0  0  0  0  0  0  0  0  0  0  0  0
  133.3531  119.5634   60.9147 H   0  0  0  0  0  0  0  0  0  0  0  0
  132.5900  122.4023   63.0437 H   0  0  0  0  0  0  0  0  0  0  0  0
  134.3122  122.6212   63.5172 H   0  0  0  0  0  0  0  0  0  0  0  0
  133.5645  124.3649   61.8896 H   0  0  0  0  0  0  0  0  0  0  0  0
  134.8789  123.2876   61.2163 H   0  0  0  0  0  0  0  0  0  0  0  0
  129.8030  124.2200   61.2120 H   0  0  0  0  0  0  0  0  0  0  0  0
  132.0429  125.8987   60.7801 H   0  0  0  0  0  0  0  0  0  0  0  0
  132.8562  124.9056   62.8490 H   0  0  0  0  0  0  0  0  0  0  0  0
  132.0663  126.5172   63.3004 H   0  0  0  0  0  0  0  0  0  0  0  0
  131.1417  122.8441   63.0758 H   0  0  0  0  0  0  0  0  0  0  0  0
  129.8806  121.7209   64.8996 H   0  0  0  0  0  0  0  0  0  0  0  0
  129.1389  123.0152   66.8866 H   0  0  0  0  0  0  0  0  0  0  0  0
  129.6678  125.4355   67.0764 H   0  0  0  0  0  0  0  0  0  0  0  0
  130.9247  126.5873   65.2692 H   0  0  0  0  0  0  0  0  0  0  0  0
  1  2  2  0
  2  3  1  0
  3  4  1  0
  4  5  1  0
  5  6  1  0
  6  7  1  0
  7  8  1  0
  8  9  1  0
  9 10  2  0
  9 11  1  0
 11 12  1  0
 12 13  1  0
 13 14  1  0
 14 15  1  0
 15 16  2  0
 15 17  1  0
 17 18  2  0
 18 19  1  0
 19 20  2  0
 20 21  1  0
 14 22  1  0
 22 23  1  0
  7 24  1  0
 24 25  1  0
 25 26  1  0
 26 27  1  0
 27 28  2  0
 28 29  1  0
 29 30  1  0
 30 31  1  0
 31 32  1  0
 32 33  1  0
 33 34  1  0
 34 35  1  0
 30 36  1  0
 36 37  2  0
 36 38  1  0
 38 39  1  0
 39 40  1  0
 40 41  1  0
 41 42  2  0
 42 43  1  0
 43 44  2  0
 44 45  1  0
 45 46  2  0
 39  2  1  0
 46 41  1  0
 25  4  1  0
 35 30  1  0
 23 11  1  0
 21 17  1  0
  3 47  1  0
  4 48  1  1
  5 49  1  0
  5 50  1  0
  6 51  1  0
  6 52  1  0
  8 53  1  0
  8 54  1  0
 12 55  1  0
 12 56  1  0
 13 57  1  0
 13 58  1  0
 18 59  1  0
 19 60  1  0
 20 61  1  0
 22 62  1  0
 22 63  1  0
 23 64  1  0
 23 65  1  0
 24 66  1  0
 24 67  1  0
 25 68  1  6
 26 69  1  0
 26 70  1  0
 27 71  1  0
 28 72  1  0
 29 73  1  0
 29 74  1  0
 31 75  1  0
 31 76  1  0
 32 77  1  0
 32 78  1  0
 34 79  1  0
 34 80  1  0
 35 81  1  0
 35 82  1  0
 38 83  1  0
 39 84  1  6
 40 85  1  0
 40 86  1  0
 42 87  1  0
 43 88  1  0
 44 89  1  0
 45 90  1  0
 46 91  1  0
M  END
>  <Binding energies>  (1) 
[-5.92]

>  <Ligand effiencies>  (1) 
[-0.1184]

>  <Interactions>  (1) 
["V-A:ILE:369:CG2:3237, V-A:ASP:366:CA:3210, V-A:GLY:454:CA:4049, V-A:ILE:369:CB:3236, H-A:ALA:541:N:4891, V-B:GLU:543:CB:9878, V-B:TYR:539:CE2:9848, V-A:TYR:484:CE2:4346, V-B:GLU:543:CG:9879, V-A:ASP:366:CG:3213, V-B:TYR:484:CE2:9317, V-B:TYR:539:CZ:9849, V-A:GLU:543:CD:4908, V-A:TYR:484:CZ:4347, H-B:TYR:484:OH:9319, V-B:GLU:543:CA:9876, V-A:ILE:369:CD1:3239, V-B:TYR:484:CZ:9318, V-B:TYR:539:CD2:9846, V-A:GLU:543:CG:4907, V-A:SER:385:CB:3409, H-A:SER:385:OG:3410, V-A:MET:535:CE:4835, H-B:TYR:531:OH:9767, V-A:ASP:366:CB:3212, V-A:LEU:475:CD2:4259, H-A:ARG:545:NH2:4928, V-A:ARG:545:CZ:4926, V-A:GLU:543:CB:4906, V-A:PRO:540:CA:4883, V-A:SER:385:CA:3407"]

$$$$
ZINC2069425416
     RDKit          3D

 78 83  0  0  0  0  0  0  0  0999 V2000
  132.8360  120.9420   60.6100 C   0  0  0  0  0  0  0  0  0  0  0  0
  133.2430  121.3960   61.8940 O   0  0  0  0  0  0  0  0  0  0  0  0
  132.9380  122.7520   62.2300 C   0  0  1  0  0  0  0  0  0  0  0  0
  132.4910  123.3940   60.8960 C   0  0  0  0  0  0  0  0  0  0  0  0
  131.9280  124.8130   61.0710 C   0  0  0  0  0  0  0  0  0  0  0  0
  132.4360  125.7650   60.4810 O   0  0  0  0  0  0  0  0  0  0  0  0
  130.7400  124.9300   62.0800 C   0  0  2  0  0  0  0  0  0  0  0  0
  129.5560  124.0960   61.5020 C   0  0  0  0  0  0  0  0  0  0  0  0
  130.2930  126.4400   62.2670 C   0  0  1  0  0  0  0  0  0  0  0  0
  129.6990  127.1330   60.9850 C   0  0  0  0  0  0  0  0  0  0  0  0
  129.2200  128.5820   61.2380 C   0  0  0  0  0  0  0  0  0  0  0  0
  128.1760  128.6600   62.3830 C   0  0  2  0  0  0  0  0  0  0  0  0
  126.8940  127.8600   61.9760 C   0  0  0  0  0  0  0  0  0  0  0  0
  127.6980  130.0720   62.8830 C   0  0  2  0  0  0  0  0  0  0  0  0
  128.5650  131.3690   62.7070 C   0  0  1  0  0  0  0  0  0  0  0  0
  128.8190  132.2000   63.9880 C   0  0  0  0  0  0  0  0  0  0  0  0
  129.8320  131.1920   61.8130 C   0  0  1  0  0  0  0  0  0  0  0  0
  129.6220  131.6890   60.3620 C   0  0  0  0  0  0  0  0  0  0  0  0
  130.9240  131.4900   59.5950 C   0  0  0  0  0  0  0  0  0  0  0  0
  130.7650  131.2330   58.1020 C   0  0  0  0  0  0  0  0  0  0  0  0
  132.1180  131.5770   60.2400 C   0  0  0  0  0  0  0  0  0  0  0  0
  133.4930  131.4760   59.5670 C   0  0  0  0  0  0  0  0  0  0  0  0
  133.4540  130.4700   58.5740 O   0  0  0  0  0  0  0  0  0  0  0  0
  132.1800  131.8440   61.6980 C   0  0  0  0  0  0  0  0  0  0  0  0
  133.1680  132.1240   62.3780 O   0  0  0  0  0  0  0  0  0  0  0  0
  130.9970  131.7950   62.3920 O   0  0  0  0  0  0  0  0  0  0  0  0
  127.2940  129.8170   64.3650 C   0  0  0  0  0  0  0  0  0  0  0  0
  127.9610  128.5030   64.8120 C   0  0  0  0  0  0  0  0  0  0  0  0
  128.8790  128.1170   63.6470 C   0  0  1  0  0  0  0  0  0  0  0  0
  129.3440  126.6410   63.4940 C   0  0  2  0  0  0  0  0  0  0  0  0
  129.8700  126.0590   64.8260 C   0  0  0  0  0  0  0  0  0  0  0  0
  130.9030  124.9210   64.7610 C   0  0  2  0  0  0  0  0  0  0  0  0
  132.1400  125.2180   64.1540 O   0  0  0  0  0  0  0  0  0  0  0  0
  131.3120  124.3520   63.4200 C   0  0  2  0  0  0  0  0  0  0  0  0
  131.8700  122.8910   63.3540 C   0  0  2  0  0  0  0  0  0  0  0  0
  132.3600  122.4580   64.6120 O   0  0  0  0  0  0  0  0  0  0  0  0
  132.1057  120.1273   60.7237 H   0  0  0  0  0  0  0  0  0  0  0  0
  132.3749  121.7732   60.0563 H   0  0  0  0  0  0  0  0  0  0  0  0
  133.7124  120.5741   60.0563 H   0  0  0  0  0  0  0  0  0  0  0  0
  133.8124  123.2615   62.6611 H   0  0  0  0  0  0  0  0  0  0  0  0
  133.3590  123.4420   60.2220 H   0  0  0  0  0  0  0  0  0  0  0  0
  131.6850  122.7689   60.4841 H   0  0  0  0  0  0  0  0  0  0  0  0
  128.9633  123.6785   62.3293 H   0  0  0  0  0  0  0  0  0  0  0  0
  128.9175  124.7448   60.8845 H   0  0  0  0  0  0  0  0  0  0  0  0
  129.9519  123.2763   60.8845 H   0  0  0  0  0  0  0  0  0  0  0  0
  131.2424  126.9582   62.4672 H   0  0  0  0  0  0  0  0  0  0  0  0
  130.4766  127.1533   60.2073 H   0  0  0  0  0  0  0  0  0  0  0  0
  128.8194  126.5486   60.6772 H   0  0  0  0  0  0  0  0  0  0  0  0
  130.0887  129.2008   61.5073 H   0  0  0  0  0  0  0  0  0  0  0  0
  128.7407  128.9460   60.3172 H   0  0  0  0  0  0  0  0  0  0  0  0
  126.3648  127.5298   62.8820 H   0  0  0  0  0  0  0  0  0  0  0  0
  126.2326  128.5059   61.3799 H   0  0  0  0  0  0  0  0  0  0  0  0
  127.1835  126.9820   61.3799 H   0  0  0  0  0  0  0  0  0  0  0  0
  126.9042  130.3855   62.1891 H   0  0  0  0  0  0  0  0  0  0  0  0
  127.8897  132.0109   62.1222 H   0  0  0  0  0  0  0  0  0  0  0  0
  128.6283  131.5761   64.8736 H   0  0  0  0  0  0  0  0  0  0  0  0
  129.8635  132.5447   64.0003 H   0  0  0  0  0  0  0  0  0  0  0  0
  128.1457  133.0698   64.0003 H   0  0  0  0  0  0  0  0  0  0  0  0
  130.0034  130.1066   61.7631 H   0  0  0  0  0  0  0  0  0  0  0  0
  128.8167  131.1119   59.8840 H   0  0  0  0  0  0  0  0  0  0  0  0
  129.3411  132.7525   60.3625 H   0  0  0  0  0  0  0  0  0  0  0  0
  130.1919  130.3067   57.9484 H   0  0  0  0  0  0  0  0  0  0  0  0
  130.2303  132.0759   57.6397 H   0  0  0  0  0  0  0  0  0  0  0  0
  131.7579  131.1308   57.6397 H   0  0  0  0  0  0  0  0  0  0  0  0
  133.7469  132.4406   59.1032 H   0  0  0  0  0  0  0  0  0  0  0  0
  134.2540  131.2220   60.3195 H   0  0  0  0  0  0  0  0  0  0  0  0
  133.3650  129.6180   59.0080 H   0  0  0  0  0  0  0  0  0  0  0  0
  127.6420  130.6477   64.9965 H   0  0  0  0  0  0  0  0  0  0  0  0
  126.2004  129.7459   64.4597 H   0  0  0  0  0  0  0  0  0  0  0  0
  128.5449  128.6575   65.7313 H   0  0  0  0  0  0  0  0  0  0  0  0
  127.2242  127.7184   65.0390 H   0  0  0  0  0  0  0  0  0  0  0  0
  129.8618  128.5672   63.8506 H   0  0  0  0  0  0  0  0  0  0  0  0
  128.4585  126.0340   63.2540 H   0  0  0  0  0  0  0  0  0  0  0  0
  130.3306  126.8868   65.3850 H   0  0  0  0  0  0  0  0  0  0  0  0
  128.9858  125.6000   65.2925 H   0  0  0  0  0  0  0  0  0  0  0  0
  130.5482  124.4932   65.7103 H   0  0  0  0  0  0  0  0  0  0  0  0
  131.0339  122.2240   63.0972 H   0  0  0  0  0  0  0  0  0  0  0  0
  132.4670  123.2260   65.1790 H   0  0  0  0  0  0  0  0  0  0  0  0
  1  2  1  0
  2  3  1  0
  3  4  1  0
  4  5  1  0
  5  6  2  0
  5  7  1  0
  7  8  1  6
  7  9  1  0
  9 10  1  0
 10 11  1  0
 11 12  1  0
 12 13  1  6
 12 14  1  0
 14 15  1  0
 15 16  1  0
 15 17  1  0
 17 18  1  0
 18 19  1  0
 19 20  1  0
 19 21  2  0
 21 22  1  0
 22 23  1  0
 21 24  1  0
 24 25  2  0
 24 26  1  0
 14 27  1  0
 27 28  1  0
 28 29  1  0
 29 30  1  0
 30 31  1  0
 31 32  1  0
 32 33  1  0
 34 33  1  6
 34 35  1  0
 35 36  1  0
 35  3  1  0
 34  7  1  0
 30  9  1  0
 34 32  1  0
 29 12  1  0
 26 17  1  0
  1 37  1  0
  1 38  1  0
  1 39  1  0
  3 40  1  1
  4 41  1  0
  4 42  1  0
  8 43  1  0
  8 44  1  0
  8 45  1  0
  9 46  1  1
 10 47  1  0
 10 48  1  0
 11 49  1  0
 11 50  1  0
 13 51  1  0
 13 52  1  0
 13 53  1  0
 14 54  1  6
 15 55  1  6
 16 56  1  0
 16 57  1  0
 16 58  1  0
 17 59  1  6
 18 60  1  0
 18 61  1  0
 20 62  1  0
 20 63  1  0
 20 64  1  0
 22 65  1  0
 22 66  1  0
 23 67  1  0
 27 68  1  0
 27 69  1  0
 28 70  1  0
 28 71  1  0
 29 72  1  1
 30 73  1  6
 31 74  1  0
 31 75  1  0
 32 76  1  1
 35 77  1  6
 36 78  1  0
M  END
>  <Binding energies>  (1) 
[-8.72]

>  <Ligand effiencies>  (1) 
[-0.22947368421052633]

>  <Interactions>  (1) 
["V-A:ILE:369:CG2:3237, H-A:ALA:541:N:4891, V-A:PRO:540:C:4881, V-B:TYR:539:CE2:9848, V-B:GLU:543:CG:9879, V-A:ASP:366:CG:3213, V-A:LEU:363:CD1:3189, V-A:LEU:363:CB:3187, V-A:ALA:541:CB:4892, V-A:GLU:543:CD:4908, V-B:TYR:539:CD2:9846, V-A:GLU:543:CG:4907, V-B:GLU:543:CD:9880, V-A:LEU:475:CD2:4259, H-A:ARG:545:NH2:4928, V-A:PRO:540:CB:4885, V-A:PRO:540:CA:4883, V-A:LEU:363:CA:3185, H-A:ASP:366:OD2:3215, H-A:TYR:484:OH:4348"]

$$$$
ZINC20701401
     RDKit          3D

 37 40  0  0  0  0  0  0  0  0999 V2000
  128.7340  128.3740   62.7150 O   0  0  0  0  0  0  0  0  0  0  0  0
  128.7410  127.9620   64.0250 C   0  0  0  0  0  0  0  0  0  0  0  0
  128.1630  128.7810   65.0060 C   0  0  0  0  0  0  0  0  0  0  0  0
  127.4360  130.2960   64.5920 Cl  0  0  0  0  0  0  0  0  0  0  0  0
  128.1690  128.3820   66.3420 C   0  0  0  0  0  0  0  0  0  0  0  0
  128.7510  127.1700   66.7080 C   0  0  0  0  0  0  0  0  0  0  0  0
  128.7630  126.6820   68.3640 Cl  0  0  0  0  0  0  0  0  0  0  0  0
  129.3270  126.3540   65.7370 C   0  0  0  0  0  0  0  0  0  0  0  0
  129.3240  126.7330   64.3880 C   0  0  0  0  0  0  0  0  0  0  0  0
  129.9830  125.8240   63.3420 C   0  0  2  0  0  0  0  0  0  0  0  0
  129.0270  125.0090   62.5620 N   0  0  0  0  0  0  0  0  0  0  0  0
  129.3430  123.7080   62.0910 C   0  0  0  0  0  0  0  0  0  0  0  0
  128.3390  122.9310   61.4930 C   0  0  0  0  0  0  0  0  0  0  0  0
  126.5630  123.5940   61.2670 Br  0  0  0  0  0  0  0  0  0  0  0  0
  128.6270  121.6390   61.0540 C   0  0  0  0  0  0  0  0  0  0  0  0
  129.9070  121.1150   61.2080 C   0  0  0  0  0  0  0  0  0  0  0  0
  130.9060  121.8810   61.8020 C   0  0  0  0  0  0  0  0  0  0  0  0
  130.6440  123.1790   62.2550 C   0  0  0  0  0  0  0  0  0  0  0  0
  131.7090  124.0700   62.8790 C   0  0  2  0  0  0  0  0  0  0  0  0
  132.8970  123.4970   63.6240 C   0  0  0  0  0  0  0  0  0  0  0  0
  133.2340  124.3330   64.6280 C   0  0  0  0  0  0  0  0  0  0  0  0
  132.2330  125.4720   64.7490 C   0  0  0  0  0  0  0  0  0  0  0  0
  131.0510  124.8980   63.9720 C   0  0  1  0  0  0  0  0  0  0  0  0
  129.5550  128.8040   62.4590 H   0  0  0  0  0  0  0  0  0  0  0  0
  127.7132  129.0255   67.1089 H   0  0  0  0  0  0  0  0  0  0  0  0
  129.7897  125.4009   66.0327 H   0  0  0  0  0  0  0  0  0  0  0  0
  130.4654  126.5205   62.6404 H   0  0  0  0  0  0  0  0  0  0  0  0
  128.0880  125.3750   62.5010 H   0  0  0  0  0  0  0  0  0  0  0  0
  127.8393  121.0317   60.5842 H   0  0  0  0  0  0  0  0  0  0  0  0
  130.1293  120.0954   60.8603 H   0  0  0  0  0  0  0  0  0  0  0  0
  131.9158  121.4601   61.9170 H   0  0  0  0  0  0  0  0  0  0  0  0
  132.1043  124.5461   61.9696 H   0  0  0  0  0  0  0  0  0  0  0  0
  133.4039  122.5506   63.3847 H   0  0  0  0  0  0  0  0  0  0  0  0
  134.1158  124.2075   65.2735 H   0  0  0  0  0  0  0  0  0  0  0  0
  131.9698  125.6698   65.7986 H   0  0  0  0  0  0  0  0  0  0  0  0
  132.5972  126.4400   64.3745 H   0  0  0  0  0  0  0  0  0  0  0  0
  130.4279  124.3796   64.7156 H   0  0  0  0  0  0  0  0  0  0  0  0
  1  2  1  0
  2  3  2  0
  3  4  1  0
  3  5  1  0
  5  6  2  0
  6  7  1  0
  6  8  1  0
  8  9  2  0
  9 10  1  0
 10 11  1  0
 11 12  1  0
 12 13  2  0
 13 14  1  0
 13 15  1  0
 15 16  2  0
 16 17  1  0
 17 18  2  0
 18 19  1  0
 19 20  1  0
 20 21  2  0
 21 22  1  0
 22 23  1  0
  9  2  1  0
 23 10  1  0
 18 12  1  0
 23 19  1  0
  1 24  1  0
  5 25  1  0
  8 26  1  0
 10 27  1  6
 11 28  1  0
 15 29  1  0
 16 30  1  0
 17 31  1  0
 19 32  1  6
 20 33  1  0
 21 34  1  0
 22 35  1  0
 22 36  1  0
 23 37  1  1
M  END
>  <Binding energies>  (1) 
[-6.8]

>  <Ligand effiencies>  (1) 
[-0.272]

>  <Interactions>  (1) 
["V-B:PRO:540:CA:9855, V-A:GLY:454:CA:4049, V-B:GLU:543:C:9874, H-B:GLU:543:OE1:9881, V-B:GLU:543:CB:9878, V-B:TYR:539:CD2:9846, V-A:GLU:543:CG:4907, V-B:GLU:543:CD:9880, V-A:ARG:545:CZ:4926, V-B:ALA:541:CB:9864, V-A:GLU:543:CD:4908, V-B:PRO:540:C:9853, V-B:PRO:540:CB:9857, V-A:LEU:475:CD2:4259, V-B:GLU:543:CG:9879, H-A:GLU:543:OE1:4909, V-B:TYR:539:C:9839, V-B:PRO:540:N:9856"]

$$$$
ZINC20714447
     RDKit          3D

 39 42  0  0  0  0  0  0  0  0999 V2000
  133.4640  125.0280   65.2310 C   0  0  0  0  0  0  0  0  0  0  0  0
  132.6680  124.7030   63.9860 C   0  0  0  0  0  0  0  0  0  0  0  0
  133.1690  125.0350   62.8240 N   0  0  0  0  0  0  0  0  0  0  0  0
  132.2920  124.6410   61.8880 N   0  0  0  0  0  0  0  0  0  0  0  0
  132.5770  124.8920   60.5060 C   0  0  0  0  0  0  0  0  0  0  0  0
  131.8140  125.8150   59.8530 N   0  0  0  0  0  0  0  0  0  0  0  0
  132.0940  126.0350   58.5420 C   0  0  0  0  0  0  0  0  0  0  0  0
  133.1110  125.3570   57.8700 C   0  0  0  0  0  0  0  0  0  0  0  0
  133.8430  124.4280   58.6110 C   0  0  0  0  0  0  0  0  0  0  0  0
  133.5910  124.1820   59.9220 N   0  0  0  0  0  0  0  0  0  0  0  0
  131.2050  124.0240   62.4870 C   0  0  0  0  0  0  0  0  0  0  0  0
  131.4100  124.0780   63.8760 C   0  0  0  0  0  0  0  0  0  0  0  0
  130.5410  123.5910   65.0450 C   0  0  1  0  0  0  0  0  0  0  0  0
  130.0210  124.7690   65.8700 C   0  0  0  0  0  0  0  0  0  0  0  0
  129.5090  125.9040   65.2300 C   0  0  0  0  0  0  0  0  0  0  0  0
  129.0370  126.9770   65.9810 C   0  0  0  0  0  0  0  0  0  0  0  0
  129.0730  126.9150   67.3740 C   0  0  0  0  0  0  0  0  0  0  0  0
  128.4890  128.2440   68.3050 Cl  0  0  0  0  0  0  0  0  0  0  0  0
  129.5770  125.7870   68.0180 C   0  0  0  0  0  0  0  0  0  0  0  0
  130.0500  124.7140   67.2670 C   0  0  0  0  0  0  0  0  0  0  0  0
  129.1390  122.4590   64.7120 S   0  0  0  0  0  0  0  0  0  0  0  0
  129.7760  121.6130   63.2450 C   0  0  0  0  0  0  0  0  0  0  0  0
  129.4040  122.3960   61.9800 C   0  0  0  0  0  0  0  0  0  0  0  0
  128.4500  122.0850   61.2710 O   0  0  0  0  0  0  0  0  0  0  0  0
  130.1560  123.4900   61.7610 N   0  0  0  0  0  0  0  0  0  0  0  0
  132.8668  124.7842   66.1220 H   0  0  0  0  0  0  0  0  0  0  0  0
  134.3914  124.4365   65.2380 H   0  0  0  0  0  0  0  0  0  0  0  0
  133.7124  126.0996   65.2380 H   0  0  0  0  0  0  0  0  0  0  0  0
  131.4965  126.7754   57.9899 H   0  0  0  0  0  0  0  0  0  0  0  0
  133.3257  125.5453   56.8077 H   0  0  0  0  0  0  0  0  0  0  0  0
  134.6539  123.8749   58.1145 H   0  0  0  0  0  0  0  0  0  0  0  0
  131.2635  122.9618   65.5854 H   0  0  0  0  0  0  0  0  0  0  0  0
  129.4796  125.9481   64.1313 H   0  0  0  0  0  0  0  0  0  0  0  0
  128.6374  127.8699   65.4780 H   0  0  0  0  0  0  0  0  0  0  0  0
  129.6012  125.7441   69.1169 H   0  0  0  0  0  0  0  0  0  0  0  0
  130.4470  123.8218   67.7734 H   0  0  0  0  0  0  0  0  0  0  0  0
  130.8710  121.5364   63.3163 H   0  0  0  0  0  0  0  0  0  0  0  0
  129.3326  120.6079   63.1889 H   0  0  0  0  0  0  0  0  0  0  0  0
  129.8940  124.0170   60.9400 H   0  0  0  0  0  0  0  0  0  0  0  0
  1  2  1  0
  2  3  2  0
  3  4  1  0
  4  5  1  0
  5  6  2  0
  6  7  1  0
  7  8  2  0
  8  9  1  0
  9 10  2  0
  4 11  1  0
 11 12  2  0
 12 13  1  0
 13 14  1  0
 14 15  2  0
 15 16  1  0
 16 17  2  0
 17 18  1  0
 17 19  1  0
 19 20  2  0
 13 21  1  0
 21 22  1  0
 22 23  1  0
 23 24  2  0
 23 25  1  0
 12  2  1  0
 20 14  1  0
 10  5  1  0
 25 11  1  0
  1 26  1  0
  1 27  1  0
  1 28  1  0
  7 29  1  0
  8 30  1  0
  9 31  1  0
 13 32  1  1
 15 33  1  0
 16 34  1  0
 19 35  1  0
 20 36  1  0
 22 37  1  0
 22 38  1  0
 25 39  1  0
M  END
>  <Binding energies>  (1) 
[-5.02]

>  <Ligand effiencies>  (1) 
[-0.17928571428571427]

>  <Interactions>  (1) 
["V-A:ILE:369:CG2:3237, V-A:ASP:366:CA:3210, V-A:ILE:369:CB:3236, V-B:GLU:543:CB:9878, V-B:ALA:541:CB:9864, V-B:TYR:539:CE2:9848, V-A:TYR:484:CE2:4346, V-B:GLU:543:CG:9879, V-A:ASP:366:CG:3213, V-B:TYR:539:CZ:9849, H-B:ALA:541:N:9863, V-A:TYR:484:CZ:4347, V-A:GLU:543:CD:4908, V-B:HIS:456:CE1:9041, V-B:GLU:543:CA:9876, V-A:HIS:456:CE1:4070, V-A:ASP:366:C:3208, V-B:GLU:543:CD:9880, V-A:ASP:366:CB:3212, V-A:ARG:545:CD:4923, V-A:LEU:475:CD2:4259, H-A:ARG:545:NH2:4928, V-A:ARG:545:CZ:4926, V-A:GLU:543:CB:4906"]

$$$$
ZINC2073732293
     RDKit          3D

 62 61  0  0  0  0  0  0  0  0999 V2000
  130.0100  126.2500   61.7680 C   0  0  0  0  0  0  0  0  0  0  0  0
  129.6880  126.1830   63.2720 C   0  0  0  0  0  0  0  0  0  0  0  0
  128.8280  127.3770   63.7180 C   0  0  0  0  0  0  0  0  0  0  0  0
  130.9320  126.2100   64.0440 N   0  0  0  0  0  0  0  0  0  0  0  0
  131.3570  124.9790   64.7350 C   0  0  1  0  0  0  0  0  0  0  0  0
  132.8220  124.8310   64.5780 C   0  0  0  0  0  0  0  0  0  0  0  0
  133.9690  124.7150   64.4570 N   0  0  0  0  0  0  0  0  0  0  0  0
  131.0050  125.0830   66.2510 C   0  0  0  0  0  0  0  0  0  0  0  0
  129.6260  125.7010   66.5760 C   0  0  0  0  0  0  0  0  0  0  0  0
  129.5550  126.3870   67.9540 C   0  0  0  0  0  0  0  0  0  0  0  0
  129.0470  128.1330   67.9700 S   0  0  0  0  0  0  0  0  0  0  0  0
  129.4780  128.6030   69.6720 C   0  0  0  0  0  0  0  0  0  0  0  0
  129.8310  127.4280   70.6030 C   0  0  0  0  0  0  0  0  0  0  0  0
  128.6740  126.8410   71.2930 N   0  0  0  0  0  0  0  0  0  0  0  0
  127.3840  126.9700   70.6040 C   0  0  0  0  0  0  0  0  0  0  0  0
  128.8470  126.1380   72.4980 C   0  0  0  0  0  0  0  0  0  0  0  0
  128.6940  124.9200   72.6270 O   0  0  0  0  0  0  0  0  0  0  0  0
  129.2010  126.9720   73.5250 O   0  0  0  0  0  0  0  0  0  0  0  0
  128.5160  128.1800   73.9030 C   0  0  0  0  0  0  0  0  0  0  0  0
  129.1080  129.4170   73.1830 C   0  0  0  0  0  0  0  0  0  0  0  0
  126.9920  128.0640   73.6470 C   0  0  0  0  0  0  0  0  0  0  0  0
  128.7710  128.3030   75.4190 C   0  0  0  0  0  0  0  0  0  0  0  0
  130.6340  123.7750   64.0290 C   0  0  0  0  0  0  0  0  0  0  0  0
  129.9170  122.8160   65.0100 C   0  0  0  0  0  0  0  0  0  0  0  0
  131.5330  122.9640   63.0670 C   0  0  0  0  0  0  0  0  0  0  0  0
  131.0786  126.4723   61.6314 H   0  0  0  0  0  0  0  0  0  0  0  0
  129.7737  125.2835   61.2990 H   0  0  0  0  0  0  0  0  0  0  0  0
  129.4078  127.0421   61.2990 H   0  0  0  0  0  0  0  0  0  0  0  0
  129.1325  125.2503   63.4496 H   0  0  0  0  0  0  0  0  0  0  0  0
  128.7987  127.4176   64.8169 H   0  0  0  0  0  0  0  0  0  0  0  0
  129.2638  128.3087   63.3281 H   0  0  0  0  0  0  0  0  0  0  0  0
  127.8062  127.2589   63.3281 H   0  0  0  0  0  0  0  0  0  0  0  0
  130.9040  126.9700   64.7090 H   0  0  0  0  0  0  0  0  0  0  0  0
  131.0292  124.0680   66.6744 H   0  0  0  0  0  0  0  0  0  0  0  0
  131.7503  125.7647   66.6867 H   0  0  0  0  0  0  0  0  0  0  0  0
  129.3921  126.4495   65.8046 H   0  0  0  0  0  0  0  0  0  0  0  0
  128.9029  124.8723   66.5957 H   0  0  0  0  0  0  0  0  0  0  0  0
  128.8373  125.8251   68.5698 H   0  0  0  0  0  0  0  0  0  0  0  0
  130.5874  126.3822   68.3336 H   0  0  0  0  0  0  0  0  0  0  0  0
  130.3458  129.2776   69.6302 H   0  0  0  0  0  0  0  0  0  0  0  0
  128.5791  129.0728   70.0978 H   0  0  0  0  0  0  0  0  0  0  0  0
  130.3095  126.6417   70.0007 H   0  0  0  0  0  0  0  0  0  0  0  0
  130.4953  127.8293   71.3825 H   0  0  0  0  0  0  0  0  0  0  0  0
  126.5775  127.0506   71.3477 H   0  0  0  0  0  0  0  0  0  0  0  0
  127.3933  127.8717   69.9740 H   0  0  0  0  0  0  0  0  0  0  0  0
  127.2146  126.0843   69.9740 H   0  0  0  0  0  0  0  0  0  0  0  0
  129.4563  130.1447   73.9308 H   0  0  0  0  0  0  0  0  0  0  0  0
  129.9542  129.1047   72.5534 H   0  0  0  0  0  0  0  0  0  0  0  0
  128.3339  129.8801   72.5534 H   0  0  0  0  0  0  0  0  0  0  0  0
  126.4606  128.0236   74.6093 H   0  0  0  0  0  0  0  0  0  0  0  0
  126.6487  128.9386   73.0750 H   0  0  0  0  0  0  0  0  0  0  0  0
  126.7850  127.1475   73.0750 H   0  0  0  0  0  0  0  0  0  0  0  0
  127.9134  127.8893   75.9698 H   0  0  0  0  0  0  0  0  0  0  0  0
  129.6809  127.7447   75.6842 H   0  0  0  0  0  0  0  0  0  0  0  0
  128.9005  129.3627   75.6842 H   0  0  0  0  0  0  0  0  0  0  0  0
  129.8681  124.2758   63.4185 H   0  0  0  0  0  0  0  0  0  0  0  0
  130.1407  123.1152   66.0446 H   0  0  0  0  0  0  0  0  0  0  0  0
  128.8311  122.8634   64.8413 H   0  0  0  0  0  0  0  0  0  0  0  0
  130.2697  121.7878   64.8413 H   0  0  0  0  0  0  0  0  0  0  0  0
  132.2252  122.3396   63.6509 H   0  0  0  0  0  0  0  0  0  0  0  0
  130.9050  122.3209   62.4329 H   0  0  0  0  0  0  0  0  0  0  0  0
  132.1082  123.6547   62.4329 H   0  0  0  0  0  0  0  0  0  0  0  0
  1  2  1  0
  2  3  1  0
  2  4  1  0
  4  5  1  0
  5  6  1  1
  6  7  3  0
  5  8  1  0
  8  9  1  0
  9 10  1  0
 10 11  1  0
 11 12  1  0
 12 13  1  0
 13 14  1  0
 14 15  1  0
 14 16  1  0
 16 17  2  0
 16 18  1  0
 18 19  1  0
 19 20  1  0
 19 21  1  0
 19 22  1  0
  5 23  1  0
 23 24  1  0
 23 25  1  0
  1 26  1  0
  1 27  1  0
  1 28  1  0
  2 29  1  0
  3 30  1  0
  3 31  1  0
  3 32  1  0
  4 33  1  0
  8 34  1  0
  8 35  1  0
  9 36  1  0
  9 37  1  0
 10 38  1  0
 10 39  1  0
 12 40  1  0
 12 41  1  0
 13 42  1  0
 13 43  1  0
 15 44  1  0
 15 45  1  0
 15 46  1  0
 20 47  1  0
 20 48  1  0
 20 49  1  0
 21 50  1  0
 21 51  1  0
 21 52  1  0
 22 53  1  0
 22 54  1  0
 22 55  1  0
 23 56  1  0
 24 57  1  0
 24 58  1  0
 24 59  1  0
 25 60  1  0
 25 61  1  0
 25 62  1  0
M  END
>  <Binding energies>  (1) 
[-6.07]

>  <Ligand effiencies>  (1) 
[-0.23346153846153847]

>  <Interactions>  (1) 
["V-A:GLU:543:CA:4904, V-B:HIS:456:CD2:9039, H-A:GLU:543:OE2:4910, V-A:GLU:543:C:4902, V-B:GLU:543:C:9874, V-B:GLU:543:CB:9878, H-B:LYS:547:NZ:9923, V-B:HIS:456:CB:9036, V-B:ALA:541:CB:9864, H-A:ARG:545:NH1:4927, V-A:TYR:484:CE2:4346, V-B:GLU:543:CG:9879, V-A:HIS:456:CD2:4068, V-B:LYS:547:CE:9922, V-A:TYR:484:CZ:4347, V-A:GLU:543:CD:4908, V-B:HIS:456:CE1:9041, H-A:GLY:454:N:4050, V-A:HIS:456:CE1:4070, V-B:GLY:544:C:9884, V-B:GLY:544:CA:9886, V-B:GLU:543:CD:9880, V-B:HIS:456:CG:9037, V-A:LEU:475:CD2:4259, H-A:ARG:545:NH2:4928, V-A:ARG:545:CZ:4926, H-A:GLU:543:OE1:4909, V-A:GLU:543:CB:4906, H-A:ARG:545:NE:4924, H-A:TYR:484:OH:4348"]

$$$$
ZINC2075944631
     RDKit          3D

 38 38  0  0  0  0  0  0  0  0999 V2000
  127.9780  129.2060   66.8620 C   0  0  0  0  0  0  0  0  0  0  0  0
  127.9970  127.8880   67.6490 C   0  0  0  0  0  0  0  0  0  0  0  0
  129.4200  127.3540   67.8880 C   0  0  0  0  0  0  0  0  0  0  0  0
  129.4430  125.8680   68.2850 C   0  0  0  0  0  0  0  0  0  0  0  0
  130.1600  124.9810   67.2500 C   0  0  0  0  0  0  0  0  0  0  0  0
  129.8760  125.4070   65.8000 C   0  0  0  0  0  0  0  0  0  0  0  0
  131.1610  125.5210   64.9550 C   0  0  0  0  0  0  0  0  0  0  0  0
  131.3910  124.3560   64.0590 N   0  0  0  0  0  0  0  0  0  0  0  0
  130.3460  123.3070   64.0170 C   0  0  0  0  0  0  0  0  0  0  0  0
  133.0690  123.8570   63.7530 S   0  0  0  0  0  0  0  0  0  0  0  0
  133.9800  124.8820   64.2770 O   0  0  0  0  0  0  0  0  0  0  0  0
  133.2240  122.4440   64.1180 O   0  0  0  0  0  0  0  0  0  0  0  0
  133.1480  123.9440   61.9470 C   0  0  0  0  0  0  0  0  0  0  0  0
  132.5390  124.9150   61.1620 C   0  0  0  0  0  0  0  0  0  0  0  0
  132.7780  124.7370   59.7950 C   0  0  0  0  0  0  0  0  0  0  0  0
  132.1220  125.9040   58.4440 Br  0  0  0  0  0  0  0  0  0  0  0  0
  133.5480  123.6100   59.5370 C   0  0  0  0  0  0  0  0  0  0  0  0
  133.9890  122.7660   60.9880 S   0  0  0  0  0  0  0  0  0  0  0  0
  127.9658  130.0524   67.5645 H   0  0  0  0  0  0  0  0  0  0  0  0
  128.8753  129.2679   66.2288 H   0  0  0  0  0  0  0  0  0  0  0  0
  127.0792  129.2420   66.2288 H   0  0  0  0  0  0  0  0  0  0  0  0
  127.5162  128.0545   68.6242 H   0  0  0  0  0  0  0  0  0  0  0  0
  127.4592  127.1382   67.0502 H   0  0  0  0  0  0  0  0  0  0  0  0
  130.0018  127.4792   66.9629 H   0  0  0  0  0  0  0  0  0  0  0  0
  129.8510  127.9255   68.7232 H   0  0  0  0  0  0  0  0  0  0  0  0
  129.9621  125.7707   69.2499 H   0  0  0  0  0  0  0  0  0  0  0  0
  128.3990  125.5266   68.3448 H   0  0  0  0  0  0  0  0  0  0  0  0
  131.2440  125.0401   67.4276 H   0  0  0  0  0  0  0  0  0  0  0  0
  129.7810  123.9558   67.3738 H   0  0  0  0  0  0  0  0  0  0  0  0
  129.2141  124.6607   65.3364 H   0  0  0  0  0  0  0  0  0  0  0  0
  129.4065  126.4013   65.8298 H   0  0  0  0  0  0  0  0  0  0  0  0
  131.0904  126.4273   64.3356 H   0  0  0  0  0  0  0  0  0  0  0  0
  132.0064  125.5588   65.6578 H   0  0  0  0  0  0  0  0  0  0  0  0
  130.0666  123.0265   65.0433 H   0  0  0  0  0  0  0  0  0  0  0  0
  129.4614  123.6916   63.4883 H   0  0  0  0  0  0  0  0  0  0  0  0
  130.7340  122.4239   63.4883 H   0  0  0  0  0  0  0  0  0  0  0  0
  131.9332  125.7366   61.5717 H   0  0  0  0  0  0  0  0  0  0  0  0
  133.8446  123.2889   58.5276 H   0  0  0  0  0  0  0  0  0  0  0  0
  1  2  1  0
  2  3  1  0
  3  4  1  0
  4  5  1  0
  5  6  1  0
  6  7  1  0
  7  8  1  0
  8  9  1  0
  8 10  1  0
 10 11  2  0
 10 12  2  0
 10 13  1  0
 13 14  2  0
 14 15  1  0
 15 16  1  0
 15 17  2  0
 17 18  1  0
 18 13  1  0
  1 19  1  0
  1 20  1  0
  1 21  1  0
  2 22  1  0
  2 23  1  0
  3 24  1  0
  3 25  1  0
  4 26  1  0
  4 27  1  0
  5 28  1  0
  5 29  1  0
  6 30  1  0
  6 31  1  0
  7 32  1  0
  7 33  1  0
  9 34  1  0
  9 35  1  0
  9 36  1  0
 14 37  1  0
 17 38  1  0
M  END
>  <Binding energies>  (1) 
[-5.59]

>  <Ligand effiencies>  (1) 
[-0.31055555555555553]

>  <Interactions>  (1) 
["V-A:ILE:369:CG2:3237, V-A:GLY:454:CA:4049, V-B:GLU:543:C:9874, V-A:ILE:369:CB:3236, V-B:GLU:543:CB:9878, H-A:ARG:545:NH1:4927, V-A:TYR:484:CE2:4346, V-B:TYR:539:CE2:9848, V-B:GLU:543:CG:9879, V-A:ASP:366:CG:3213, V-A:TYR:484:CZ:4347, V-A:GLU:543:CD:4908, V-B:HIS:456:CE1:9041, V-B:GLU:543:CA:9876, H-A:GLY:454:N:4050, V-A:HIS:456:CE1:4070, V-B:TYR:484:CZ:9318, V-A:ILE:369:CD1:3239, V-A:GLU:543:CG:4907, V-B:GLU:543:CD:9880, V-A:ASP:366:CB:3212, H-A:ARG:545:NH2:4928, V-A:GLU:543:CB:4906, H-A:ARG:545:NE:4924, H-A:TYR:484:OH:4348"]

$$$$
ZINC2079616095
     RDKit          3D

 41 42  0  0  0  0  0  0  0  0999 V2000
  130.5350  125.2040   65.7870 C   0  0  0  0  0  0  0  0  0  0  0  0
  130.6920  125.5700   64.3020 C   0  0  0  0  0  0  0  0  0  0  0  0
  130.6170  124.3530   63.3930 C   0  0  0  0  0  0  0  0  0  0  0  0
  129.4240  123.8460   63.1880 N   0  0  0  0  0  0  0  0  0  0  0  0
  129.6000  122.8130   62.3720 N   0  0  0  0  0  0  0  0  0  0  0  0
  128.4240  122.0610   61.9350 C   0  0  0  0  0  0  0  0  0  0  0  0
  127.6710  122.7300   60.7850 C   0  0  0  0  0  0  0  0  0  0  0  0
  128.2730  122.7970   59.5230 C   0  0  0  0  0  0  0  0  0  0  0  0
  127.6050  123.3880   58.4520 C   0  0  0  0  0  0  0  0  0  0  0  0
  126.3290  123.9200   58.6340 C   0  0  0  0  0  0  0  0  0  0  0  0
  125.4160  124.7250   57.1700 Br  0  0  0  0  0  0  0  0  0  0  0  0
  125.7210  123.8580   59.8870 C   0  0  0  0  0  0  0  0  0  0  0  0
  126.3860  123.2660   60.9620 C   0  0  0  0  0  0  0  0  0  0  0  0
  125.7580  123.2190   62.1810 O   0  0  0  0  0  0  0  0  0  0  0  0
  130.9190  122.6320   62.0410 C   0  0  0  0  0  0  0  0  0  0  0  0
  131.4440  121.1970   60.8930 Br  0  0  0  0  0  0  0  0  0  0  0  0
  131.6420  123.6440   62.7000 C   0  0  0  0  0  0  0  0  0  0  0  0
  133.1660  123.9200   62.7100 C   0  0  0  0  0  0  0  0  0  0  0  0
  133.6140  124.7260   63.9540 C   0  0  0  0  0  0  0  0  0  0  0  0
  133.9620  122.5920   62.7400 C   0  0  0  0  0  0  0  0  0  0  0  0
  133.5540  124.7360   61.4570 C   0  0  0  0  0  0  0  0  0  0  0  0
  130.8924  126.0373   66.4098 H   0  0  0  0  0  0  0  0  0  0  0  0
  129.4747  125.0105   66.0068 H   0  0  0  0  0  0  0  0  0  0  0  0
  131.1255  124.3024   66.0068 H   0  0  0  0  0  0  0  0  0  0  0  0
  129.8892  126.2686   64.0237 H   0  0  0  0  0  0  0  0  0  0  0  0
  131.6853  126.0244   64.1722 H   0  0  0  0  0  0  0  0  0  0  0  0
  128.7502  121.0636   61.6052 H   0  0  0  0  0  0  0  0  0  0  0  0
  127.7339  122.0099   62.7901 H   0  0  0  0  0  0  0  0  0  0  0  0
  129.2803  122.3803   59.3756 H   0  0  0  0  0  0  0  0  0  0  0  0
  128.0844  123.4348   57.4631 H   0  0  0  0  0  0  0  0  0  0  0  0
  124.7139  124.2770   60.0290 H   0  0  0  0  0  0  0  0  0  0  0  0
  126.0110  123.9430   62.7590 H   0  0  0  0  0  0  0  0  0  0  0  0
  133.3153  124.1886   64.8661 H   0  0  0  0  0  0  0  0  0  0  0  0
  134.7075  124.8446   63.9398 H   0  0  0  0  0  0  0  0  0  0  0  0
  133.1374  125.7173   63.9398 H   0  0  0  0  0  0  0  0  0  0  0  0
  134.1401  122.2948   63.7840 H   0  0  0  0  0  0  0  0  0  0  0  0
  133.3853  121.8072   62.2287 H   0  0  0  0  0  0  0  0  0  0  0  0
  134.9260  122.7307   62.2287 H   0  0  0  0  0  0  0  0  0  0  0  0
  134.0073  125.6894   61.7662 H   0  0  0  0  0  0  0  0  0  0  0  0
  134.2766  124.1642   60.8563 H   0  0  0  0  0  0  0  0  0  0  0  0
  132.6544  124.9355   60.8563 H   0  0  0  0  0  0  0  0  0  0  0  0
  1  2  1  0
  2  3  1  0
  3  4  2  0
  4  5  1  0
  5  6  1  0
  6  7  1  0
  7  8  2  0
  8  9  1  0
  9 10  2  0
 10 11  1  0
 10 12  1  0
 12 13  2  0
 13 14  1  0
  5 15  1  0
 15 16  1  0
 15 17  2  0
 17 18  1  0
 18 19  1  0
 18 20  1  0
 18 21  1  0
 17  3  1  0
 13  7  1  0
  1 22  1  0
  1 23  1  0
  1 24  1  0
  2 25  1  0
  2 26  1  0
  6 27  1  0
  6 28  1  0
  8 29  1  0
  9 30  1  0
 12 31  1  0
 14 32  1  0
 19 33  1  0
 19 34  1  0
 19 35  1  0
 20 36  1  0
 20 37  1  0
 20 38  1  0
 21 39  1  0
 21 40  1  0
 21 41  1  0
M  END
>  <Binding energies>  (1) 
[-7.15]

>  <Ligand effiencies>  (1) 
[-0.325]

>  <Interactions>  (1) 
["V-B:PRO:540:CA:9855, V-A:GLY:454:CA:4049, V-B:ALA:541:CB:9864, V-B:TYR:539:CE2:9848, H-B:ALA:541:O:9861, V-B:GLU:543:CG:9879, V-B:TYR:539:C:9839, V-A:ASP:366:CG:3213, H-B:GLU:543:OE1:9881, V-B:TYR:531:CZ:9766, H-B:ALA:541:N:9863, V-B:TYR:531:CE2:9765, V-A:GLU:543:CD:4908, V-B:PRO:540:CB:9857, V-B:PRO:540:N:9856, V-A:ILE:369:CD1:3239, V-B:TYR:539:CD2:9846, V-A:LEU:475:CD2:4259, V-A:ARG:545:CZ:4926, V-B:PRO:540:C:9853, V-B:MET:535:CE:9807, V-B:ALA:541:CA:9862"]

$$$$
ZINC208086330
     RDKit          3D

 78 80  0  0  0  0  0  0  0  0999 V2000
  127.9840  123.3500   56.8660 C   0  0  0  0  0  0  0  0  0  0  0  0
  127.3810  123.3370   58.2870 C   0  0  0  0  0  0  0  0  0  0  0  0
  125.9650  123.9520   58.3460 C   0  0  0  0  0  0  0  0  0  0  0  0
  128.3050  123.8310   59.3420 N   0  0  0  0  0  0  0  0  0  0  0  0
  128.8940  125.1300   59.1950 C   0  0  0  0  0  0  0  0  0  0  0  0
  129.9160  125.3070   58.3100 N   0  0  0  0  0  0  0  0  0  0  0  0
  130.4640  126.5440   58.1930 C   0  0  0  0  0  0  0  0  0  0  0  0
  130.0240  127.6330   58.9460 C   0  0  0  0  0  0  0  0  0  0  0  0
  130.6680  129.0680   58.8030 B   0  0  0  0  0  0  0  0  0  0  0  0
  129.9900  130.2460   59.0170 O   0  0  0  0  0  0  0  0  0  0  0  0
  130.9570  131.2840   59.0690 C   0  0  0  0  0  0  0  0  0  0  0  0
  130.2960  132.5680   58.5160 C   0  0  0  0  0  0  0  0  0  0  0  0
  131.3150  131.4630   60.5690 C   0  0  0  0  0  0  0  0  0  0  0  0
  132.0990  130.6870   58.1730 C   0  0  0  0  0  0  0  0  0  0  0  0
  131.8900  130.8420   56.6430 C   0  0  0  0  0  0  0  0  0  0  0  0
  133.5300  131.1190   58.5670 C   0  0  0  0  0  0  0  0  0  0  0  0
  131.9770  129.2990   58.4490 O   0  0  0  0  0  0  0  0  0  0  0  0
  128.9810  127.3780   59.8360 C   0  0  0  0  0  0  0  0  0  0  0  0
  128.4170  126.1510   59.9670 N   0  0  0  0  0  0  0  0  0  0  0  0
  128.2910  123.0580   60.6170 C   0  0  2  0  0  0  0  0  0  0  0  0
  127.1790  123.3520   61.6370 C   0  0  0  0  0  0  0  0  0  0  0  0
  127.6880  122.8510   62.9840 C   0  0  0  0  0  0  0  0  0  0  0  0
  129.1310  123.0360   62.8680 N   0  0  0  0  0  0  0  0  0  0  0  0
  130.0050  123.0840   63.9020 C   0  0  0  0  0  0  0  0  0  0  0  0
  130.6110  122.0900   64.3130 O   0  0  0  0  0  0  0  0  0  0  0  0
  130.2560  124.4350   64.6220 C   0  0  2  0  0  0  0  0  0  0  0  0
  129.9820  125.6220   63.6840 C   0  0  0  0  0  0  0  0  0  0  0  0
  131.6430  124.5550   65.1080 N   0  0  0  0  0  0  0  0  0  0  0  0
  132.7570  124.6310   64.2660 C   0  0  0  0  0  0  0  0  0  0  0  0
  133.9130  124.7100   64.6770 O   0  0  0  0  0  0  0  0  0  0  0  0
  132.4010  124.6330   62.9420 O   0  0  0  0  0  0  0  0  0  0  0  0
  133.0780  123.9230   61.8910 C   0  0  0  0  0  0  0  0  0  0  0  0
  133.0120  122.3920   62.1150 C   0  0  0  0  0  0  0  0  0  0  0  0
  132.5200  124.3070   60.4980 C   0  0  0  0  0  0  0  0  0  0  0  0
  134.5440  124.3890   62.0040 C   0  0  0  0  0  0  0  0  0  0  0  0
  129.5520  123.2700   61.4860 C   0  0  0  0  0  0  0  0  0  0  0  0
  129.0817  123.3737   56.9337 H   0  0  0  0  0  0  0  0  0  0  0  0
  127.6694  122.4449   56.3259 H   0  0  0  0  0  0  0  0  0  0  0  0
  127.6307  124.2407   56.3259 H   0  0  0  0  0  0  0  0  0  0  0  0
  127.2436  122.2743   58.5356 H   0  0  0  0  0  0  0  0  0  0  0  0
  125.6653  124.0822   59.3963 H   0  0  0  0  0  0  0  0  0  0  0  0
  125.9686  124.9297   57.8418 H   0  0  0  0  0  0  0  0  0  0  0  0
  125.2530  123.2821   57.8418 H   0  0  0  0  0  0  0  0  0  0  0  0
  131.2860  126.6930   57.4774 H   0  0  0  0  0  0  0  0  0  0  0  0
  129.9695  133.2022   59.3534 H   0  0  0  0  0  0  0  0  0  0  0  0
  131.0227  133.1187   57.9006 H   0  0  0  0  0  0  0  0  0  0  0  0
  129.4256  132.2965   57.9006 H   0  0  0  0  0  0  0  0  0  0  0  0
  130.5033  131.0572   61.1906 H   0  0  0  0  0  0  0  0  0  0  0  0
  132.2493  130.9260   60.7896 H   0  0  0  0  0  0  0  0  0  0  0  0
  131.4460  132.5327   60.7896 H   0  0  0  0  0  0  0  0  0  0  0  0
  131.0194  131.4877   56.4554 H   0  0  0  0  0  0  0  0  0  0  0  0
  132.7862  131.2955   56.1946 H   0  0  0  0  0  0  0  0  0  0  0  0
  131.7162  129.8527   56.1946 H   0  0  0  0  0  0  0  0  0  0  0  0
  133.6164  131.1451   59.6633 H   0  0  0  0  0  0  0  0  0  0  0  0
  134.2555  130.3998   58.1590 H   0  0  0  0  0  0  0  0  0  0  0  0
  133.7364  132.1195   58.1590 H   0  0  0  0  0  0  0  0  0  0  0  0
  128.6009  128.2035   60.4557 H   0  0  0  0  0  0  0  0  0  0  0  0
  128.1707  122.0563   60.1787 H   0  0  0  0  0  0  0  0  0  0  0  0
  126.9810  124.4331   61.6831 H   0  0  0  0  0  0  0  0  0  0  0  0
  126.2384  122.8556   61.3561 H   0  0  0  0  0  0  0  0  0  0  0  0
  127.2764  123.4481   63.8111 H   0  0  0  0  0  0  0  0  0  0  0  0
  127.3962  121.8134   63.2035 H   0  0  0  0  0  0  0  0  0  0  0  0
  129.5655  124.4551   65.4781 H   0  0  0  0  0  0  0  0  0  0  0  0
  129.7743  126.5216   64.2820 H   0  0  0  0  0  0  0  0  0  0  0  0
  130.8629  125.7988   63.0494 H   0  0  0  0  0  0  0  0  0  0  0  0
  129.1127  125.3948   63.0494 H   0  0  0  0  0  0  0  0  0  0  0  0
  131.7880  124.5930   66.1060 H   0  0  0  0  0  0  0  0  0  0  0  0
  133.0028  122.1794   63.1942 H   0  0  0  0  0  0  0  0  0  0  0  0
  132.0958  121.9933   61.6549 H   0  0  0  0  0  0  0  0  0  0  0  0
  133.8905  121.9159   61.6549 H   0  0  0  0  0  0  0  0  0  0  0  0
  131.6196  124.9266   60.6218 H   0  0  0  0  0  0  0  0  0  0  0  0
  133.2812  124.8734   59.9415 H   0  0  0  0  0  0  0  0  0  0  0  0
  132.2629  123.3937   59.9415 H   0  0  0  0  0  0  0  0  0  0  0  0
  134.8201  124.4768   63.0652 H   0  0  0  0  0  0  0  0  0  0  0  0
  135.2008  123.6553   61.5137 H   0  0  0  0  0  0  0  0  0  0  0  0
  134.6566  125.3672   61.5137 H   0  0  0  0  0  0  0  0  0  0  0  0
  129.9287  124.2969   61.3695 H   0  0  0  0  0  0  0  0  0  0  0  0
  130.3647  122.5900   61.1909 H   0  0  0  0  0  0  0  0  0  0  0  0
  1  2  1  0
  2  3  1  0
  2  4  1  0
  4  5  1  0
  5  6  2  0
  6  7  1  0
  7  8  2  0
  8  9  1  0
  9 10  1  0
 10 11  1  0
 11 12  1  0
 11 13  1  0
 11 14  1  0
 14 15  1  0
 14 16  1  0
 14 17  1  0
  8 18  1  0
 18 19  2  0
  4 20  1  0
 20 21  1  0
 21 22  1  0
 22 23  1  0
 23 24  1  0
 24 25  2  0
 24 26  1  0
 26 27  1  0
 26 28  1  0
 28 29  1  0
 29 30  2  0
 29 31  1  0
 31 32  1  0
 32 33  1  0
 32 34  1  0
 32 35  1  0
 23 36  1  0
 19  5  1  0
 36 20  1  0
 17  9  1  0
  1 37  1  0
  1 38  1  0
  1 39  1  0
  2 40  1  0
  3 41  1  0
  3 42  1  0
  3 43  1  0
  7 44  1  0
 12 45  1  0
 12 46  1  0
 12 47  1  0
 13 48  1  0
 13 49  1  0
 13 50  1  0
 15 51  1  0
 15 52  1  0
 15 53  1  0
 16 54  1  0
 16 55  1  0
 16 56  1  0
 18 57  1  0
 20 58  1  6
 21 59  1  0
 21 60  1  0
 22 61  1  0
 22 62  1  0
 26 63  1  1
 27 64  1  0
 27 65  1  0
 27 66  1  0
 28 67  1  0
 33 68  1  0
 33 69  1  0
 33 70  1  0
 34 71  1  0
 34 72  1  0
 34 73  1  0
 35 74  1  0
 35 75  1  0
 35 76  1  0
 36 77  1  0
 36 78  1  0
M  END
>  <Binding energies>  (1) 
[-7.54]

>  <Ligand effiencies>  (1) 
[-0.20378378378378378]

>  <Interactions>  (1) 
["V-B:PRO:540:CA:9855, H-A:GLU:543:OE2:4910, V-B:ALA:541:CB:9864, H-A:TYR:531:OH:4795, V-B:TYR:539:CE2:9848, V-B:GLU:543:CG:9879, V-A:ASP:366:CG:3213, V-A:LEU:363:CD1:3189, V-A:LEU:363:CB:3187, V-A:LEU:363:CG:3188, V-B:TYR:539:CZ:9849, V-A:TYR:531:CE2:4793, H-B:TYR:539:OH:9850, V-A:TYR:484:CZ:4347, V-B:PRO:540:CB:9857, H-A:GLY:454:N:4050, V-B:PRO:540:N:9856, V-A:ILE:369:CD1:3239, V-B:TYR:539:CD2:9846, V-A:TYR:531:CZ:4794, V-B:GLU:543:CD:9880, V-A:TYR:539:C:4867, V-A:ASP:366:CB:3212, V-A:LEU:475:CD2:4259, H-A:ARG:545:NH2:4928, V-A:ARG:545:CZ:4926, V-B:TYR:539:CG:9844, V-B:TYR:539:CD1:9845, V-A:PRO:540:N:4884, V-A:PRO:540:CB:4885, V-A:PRO:540:CA:4883, V-A:LEU:363:CA:3185, V-A:GLY:453:CA:4044, H-A:ARG:545:NE:4924, V-B:ALA:541:CA:9862, V-B:TYR:539:CE1:9847, H-A:TYR:484:OH:4348"]

$$$$
ZINC2084185357-again2
     RDKit          3D

 68 72  0  0  0  0  0  0  0  0999 V2000
  126.2920  128.8630   58.9530 C   0  0  0  0  0  0  0  0  0  0  0  0
  126.8930  128.8550   60.1580 C   0  0  0  0  0  0  0  0  0  0  0  0
  126.2620  129.4920   61.2140 N   0  0  0  0  0  0  0  0  0  0  0  0
  126.5960  129.4660   62.5780 C   0  0  0  0  0  0  0  0  0  0  0  0
  127.9250  129.6880   62.9400 C   0  0  0  0  0  0  0  0  0  0  0  0
  128.2970  129.6720   64.2810 C   0  0  0  0  0  0  0  0  0  0  0  0
  127.3380  129.4410   65.2770 C   0  0  0  0  0  0  0  0  0  0  0  0
  127.6420  129.4130   66.6480 N   0  0  0  0  0  0  0  0  0  0  0  0
  128.6010  128.4610   67.2090 C   0  0  2  0  0  0  0  0  0  0  0  0
  129.0760  127.3740   66.2260 C   0  0  0  0  0  0  0  0  0  0  0  0
  129.8470  126.0370   67.2950 S   0  0  0  0  0  0  0  0  0  0  0  0
  129.2730  124.7380   66.9300 O   0  0  0  0  0  0  0  0  0  0  0  0
  131.3020  126.2130   67.3510 O   0  0  0  0  0  0  0  0  0  0  0  0
  129.1010  126.6460   68.9110 C   0  0  0  0  0  0  0  0  0  0  0  0
  128.1190  127.7610   68.5130 C   0  0  2  0  0  0  0  0  0  0  0  0
  126.8850  127.1070   68.2630 O   0  0  0  0  0  0  0  0  0  0  0  0
  126.0050  129.2460   64.9120 C   0  0  0  0  0  0  0  0  0  0  0  0
  125.6340  129.2600   63.5710 C   0  0  0  0  0  0  0  0  0  0  0  0
  128.1940  128.1710   60.2760 C   0  0  0  0  0  0  0  0  0  0  0  0
  129.3780  128.7130   59.8630 C   0  0  0  0  0  0  0  0  0  0  0  0
  129.4130  129.9170   59.2290 O   0  0  0  0  0  0  0  0  0  0  0  0
  130.6410  128.0170   60.0610 C   0  0  0  0  0  0  0  0  0  0  0  0
  130.6650  126.7370   60.4650 C   0  0  0  0  0  0  0  0  0  0  0  0
  131.7530  126.0750   60.9040 O   0  0  0  0  0  0  0  0  0  0  0  0
  131.3060  125.1510   61.8180 C   0  0  0  0  0  0  0  0  0  0  0  0
  132.1420  124.4240   62.6780 C   0  0  0  0  0  0  0  0  0  0  0  0
  133.6380  124.5870   62.6970 C   0  0  0  0  0  0  0  0  0  0  0  0
  134.3850  124.3040   61.3940 C   0  0  0  0  0  0  0  0  0  0  0  0
  134.3020  124.8050   63.7110 O   0  0  0  0  0  0  0  0  0  0  0  0
  131.4960  123.5510   63.5890 C   0  0  0  0  0  0  0  0  0  0  0  0
  132.2220  122.7980   64.4850 O   0  0  0  0  0  0  0  0  0  0  0  0
  130.0950  123.3970   63.5860 C   0  0  0  0  0  0  0  0  0  0  0  0
  129.4260  122.4380   64.5740 C   0  0  0  0  0  0  0  0  0  0  0  0
  129.3130  124.1220   62.6710 C   0  0  0  0  0  0  0  0  0  0  0  0
  127.9590  123.9170   62.5920 O   0  0  0  0  0  0  0  0  0  0  0  0
  129.9220  125.0280   61.7990 C   0  0  0  0  0  0  0  0  0  0  0  0
  129.4090  125.9110   60.6760 C   0  0  2  0  0  0  0  0  0  0  0  0
  129.0990  125.0710   59.4130 C   0  0  0  0  0  0  0  0  0  0  0  0
  128.1630  126.8220   60.9310 C   0  0  0  0  0  0  0  0  0  0  0  0
  127.2100  126.4580   61.6200 O   0  0  0  0  0  0  0  0  0  0  0  0
  126.7702  128.3651   58.0966 H   0  0  0  0  0  0  0  0  0  0  0  0
  125.3229  129.3675   58.8251 H   0  0  0  0  0  0  0  0  0  0  0  0
  125.5240  130.1460   60.9950 H   0  0  0  0  0  0  0  0  0  0  0  0
  128.6809  129.8762   62.1633 H   0  0  0  0  0  0  0  0  0  0  0  0
  129.3474  129.8412   64.5604 H   0  0  0  0  0  0  0  0  0  0  0  0
  126.8930  129.6870   67.2670 H   0  0  0  0  0  0  0  0  0  0  0  0
  129.4526  129.1153   67.4472 H   0  0  0  0  0  0  0  0  0  0  0  0
  128.2247  126.9698   65.6586 H   0  0  0  0  0  0  0  0  0  0  0  0
  129.7904  127.7719   65.4903 H   0  0  0  0  0  0  0  0  0  0  0  0
  128.5696  125.8293   69.4215 H   0  0  0  0  0  0  0  0  0  0  0  0
  129.8721  127.0091   69.6064 H   0  0  0  0  0  0  0  0  0  0  0  0
  128.0375  128.5267   69.2986 H   0  0  0  0  0  0  0  0  0  0  0  0
  126.7500  127.0600   67.3140 H   0  0  0  0  0  0  0  0  0  0  0  0
  125.2437  129.0804   65.6886 H   0  0  0  0  0  0  0  0  0  0  0  0
  124.5809  129.1086   63.2916 H   0  0  0  0  0  0  0  0  0  0  0  0
  130.2840  130.0540   58.8500 H   0  0  0  0  0  0  0  0  0  0  0  0
  131.5875  128.5464   59.8773 H   0  0  0  0  0  0  0  0  0  0  0  0
  135.3910  123.9229   61.6234 H   0  0  0  0  0  0  0  0  0  0  0  0
  133.8326  123.5528   60.8104 H   0  0  0  0  0  0  0  0  0  0  0  0
  134.4690  125.2326   60.8104 H   0  0  0  0  0  0  0  0  0  0  0  0
  132.1290  123.1070   65.3900 H   0  0  0  0  0  0  0  0  0  0  0  0
  129.6487  122.7573   65.6028 H   0  0  0  0  0  0  0  0  0  0  0  0
  128.3377  122.4477   64.4146 H   0  0  0  0  0  0  0  0  0  0  0  0
  129.8109  121.4199   64.4146 H   0  0  0  0  0  0  0  0  0  0  0  0
  127.4520  124.7100   62.7760 H   0  0  0  0  0  0  0  0  0  0  0  0
  128.7327  124.0783   59.7137 H   0  0  0  0  0  0  0  0  0  0  0  0
  128.3294  125.5799   58.8140 H   0  0  0  0  0  0  0  0  0  0  0  0
  130.0146  124.9580   58.8140 H   0  0  0  0  0  0  0  0  0  0  0  0
  1  2  2  0
  2  3  1  0
  3  4  1  0
  4  5  2  0
  5  6  1  0
  6  7  2  0
  7  8  1  0
  8  9  1  0
  9 10  1  0
 10 11  1  0
 11 12  2  0
 11 13  2  0
 11 14  1  0
 14 15  1  0
 15 16  1  0
  7 17  1  0
 17 18  2  0
  2 19  1  0
 19 20  2  0
 20 21  1  0
 20 22  1  0
 22 23  2  0
 23 24  1  0
 24 25  1  0
 25 26  2  0
 26 27  1  0
 27 28  1  0
 27 29  2  0
 26 30  1  0
 30 31  1  0
 30 32  2  0
 32 33  1  0
 32 34  1  0
 34 35  1  0
 34 36  2  0
 36 37  1  0
 37 38  1  6
 37 39  1  0
 39 40  2  0
 18  4  1  0
 39 19  1  0
 15  9  1  0
 37 23  1  0
 36 25  1  0
  1 41  1  0
  1 42  1  0
  3 43  1  0
  5 44  1  0
  6 45  1  0
  8 46  1  0
  9 47  1  1
 10 48  1  0
 10 49  1  0
 14 50  1  0
 14 51  1  0
 15 52  1  1
 16 53  1  0
 17 54  1  0
 18 55  1  0
 21 56  1  0
 22 57  1  0
 28 58  1  0
 28 59  1  0
 28 60  1  0
 31 61  1  0
 33 62  1  0
 33 63  1  0
 33 64  1  0
 35 65  1  0
 38 66  1  0
 38 67  1  0
 38 68  1  0
M  END
>  <Binding energies>  (1) 
[-7.09]

>  <Ligand effiencies>  (1) 
[-0.15413043478260868]

>  <Interactions>  (1) 
["V-B:GLU:543:CB:9878, V-B:ASP:366:CG:8184, V-B:ALA:541:CB:9864, H-A:ARG:545:NH1:4927, V-A:TYR:484:CE2:4346, V-B:GLU:543:CG:9879, V-A:ASP:366:CG:3213, H-B:GLU:543:OE1:9881, V-A:GLU:543:CD:4908, H-B:TYR:484:OH:9319, V-B:HIS:456:CE1:9041, H-A:GLY:454:N:4050, V-A:ILE:369:CD1:3239, V-B:TYR:484:CZ:9318, V-A:HIS:456:CE1:4070, H-B:HIS:456:NE2:9042, V-A:GLU:543:CG:4907, V-B:GLU:543:CD:9880, V-B:ARG:545:CZ:9898, V-A:LEU:475:CD2:4259, H-A:ARG:545:NH2:4928, V-A:ARG:545:CZ:4926, V-A:GLU:543:CB:4906, H-B:GLU:543:OE2:9882, H-A:ARG:545:NE:4924, H-A:TYR:484:OH:4348"]

$$$$
ZINC2086896923
     RDKit          3D

 38 40  0  0  0  0  0  0  0  0999 V2000
  133.9880  123.8610   57.2420 N   0  0  0  0  0  0  0  0  0  0  0  0
  133.7370  124.0280   58.3600 C   0  0  0  0  0  0  0  0  0  0  0  0
  133.4210  124.2390   59.7650 C   0  0  0  0  0  0  0  0  0  0  0  0
  132.3730  125.0910   60.1210 C   0  0  0  0  0  0  0  0  0  0  0  0
  132.0690  125.2920   61.4660 C   0  0  0  0  0  0  0  0  0  0  0  0
  132.8170  124.6400   62.4490 C   0  0  0  0  0  0  0  0  0  0  0  0
  132.4440  124.8830   64.1830 S   0  0  0  0  0  0  0  0  0  0  0  0
  133.6900  124.7130   64.9410 O   0  0  0  0  0  0  0  0  0  0  0  0
  131.6740  126.1290   64.2690 O   0  0  0  0  0  0  0  0  0  0  0  0
  131.3630  123.5610   64.6070 N   0  0  0  0  0  0  0  0  0  0  0  0
  129.9160  123.8100   64.7210 C   0  0  0  0  0  0  0  0  0  0  0  0
  129.1030  122.5850   64.2710 C   0  0  0  0  0  0  0  0  0  0  0  0
  129.0070  122.4810   62.7640 C   0  0  0  0  0  0  0  0  0  0  0  0
  129.9090  121.9220   61.8630 C   0  0  0  0  0  0  0  0  0  0  0  0
  129.5070  121.9910   60.5260 C   0  0  0  0  0  0  0  0  0  0  0  0
  128.2780  122.6110   60.3530 C   0  0  0  0  0  0  0  0  0  0  0  0
  127.5580  122.8600   59.1160 C   0  0  0  0  0  0  0  0  0  0  0  0
  126.5250  123.7180   58.7520 C   0  0  0  0  0  0  0  0  0  0  0  0
  126.2600  123.4950   57.4000 C   0  0  0  0  0  0  0  0  0  0  0  0
  127.1400  122.5090   56.9920 C   0  0  0  0  0  0  0  0  0  0  0  0
  127.9260  122.1270   58.0310 O   0  0  0  0  0  0  0  0  0  0  0  0
  127.6300  123.1000   61.8900 S   0  0  0  0  0  0  0  0  0  0  0  0
  133.8630  123.7870   62.0930 C   0  0  0  0  0  0  0  0  0  0  0  0
  134.1660  123.5860   60.7490 C   0  0  0  0  0  0  0  0  0  0  0  0
  131.7890  125.6021   59.3415 H   0  0  0  0  0  0  0  0  0  0  0  0
  131.2440  125.9609   61.7522 H   0  0  0  0  0  0  0  0  0  0  0  0
  131.7510  122.7990   65.1700 H   0  0  0  0  0  0  0  0  0  0  0  0
  129.6726  124.0365   65.7695 H   0  0  0  0  0  0  0  0  0  0  0  0
  129.6565  124.6580   64.0702 H   0  0  0  0  0  0  0  0  0  0  0  0
  129.5882  121.6768   64.6580 H   0  0  0  0  0  0  0  0  0  0  0  0
  128.0824  122.6949   64.6663 H   0  0  0  0  0  0  0  0  0  0  0  0
  130.8587  121.4643   62.1769 H   0  0  0  0  0  0  0  0  0  0  0  0
  130.1058  121.5931   59.6935 H   0  0  0  0  0  0  0  0  0  0  0  0
  126.0128  124.4377   59.4074 H   0  0  0  0  0  0  0  0  0  0  0  0
  125.5033  124.0016   56.7829 H   0  0  0  0  0  0  0  0  0  0  0  0
  127.1950  122.0949   55.9744 H   0  0  0  0  0  0  0  0  0  0  0  0
  134.4464  123.2749   62.8723 H   0  0  0  0  0  0  0  0  0  0  0  0
  134.9895  122.9150   60.4633 H   0  0  0  0  0  0  0  0  0  0  0  0
  1  2  3  0
  2  3  1  0
  3  4  2  0
  4  5  1  0
  5  6  2  0
  6  7  1  0
  7  8  2  0
  7  9  2  0
  7 10  1  0
 10 11  1  0
 11 12  1  0
 12 13  1  0
 13 14  2  0
 14 15  1  0
 15 16  2  0
 16 17  1  0
 17 18  2  0
 18 19  1  0
 19 20  2  0
 20 21  1  0
 16 22  1  0
  6 23  1  0
 23 24  2  0
 24  3  1  0
 22 13  1  0
 21 17  1  0
  4 25  1  0
  5 26  1  0
 10 27  1  0
 11 28  1  0
 11 29  1  0
 12 30  1  0
 12 31  1  0
 14 32  1  0
 15 33  1  0
 18 34  1  0
 19 35  1  0
 20 36  1  0
 23 37  1  0
 24 38  1  0
M  END
>  <Binding energies>  (1) 
[-8.42]

>  <Ligand effiencies>  (1) 
[-0.3368]

>  <Interactions>  (1) 
["V-A:ILE:369:CG2:3237, V-A:ASP:366:CA:3210, V-B:PRO:540:CA:9855, V-A:ILE:369:CB:3236, V-B:ALA:541:CB:9864, V-B:TYR:539:CE2:9848, V-B:GLU:543:CG:9879, V-B:TYR:539:C:9839, V-A:ASP:366:CG:3213, V-B:TYR:539:CZ:9849, H-A:ASN:370:N:3244, H-B:TYR:539:OH:9850, V-B:PRO:540:CB:9857, H-A:GLY:454:N:4050, V-B:PRO:540:N:9856, V-A:ILE:369:CD1:3239, V-A:ASP:366:C:3208, V-B:TYR:539:CD2:9846, V-B:PRO:540:CD:9859, V-A:ASP:366:CB:3212, V-A:LEU:475:CD2:4259, H-A:ARG:545:NH2:4928, V-A:ARG:545:CZ:4926, V-B:TYR:539:CG:9844, V-B:TYR:539:CD1:9845, H-A:ARG:545:NE:4924, V-B:TYR:539:CE1:9847, H-A:TYR:484:OH:4348"]

$$$$
ZINC2098208279
     RDKit          3D

 56 58  0  0  0  0  0  0  0  0999 V2000
  135.2140  124.7090   61.8510 C   0  0  0  0  0  0  0  0  0  0  0  0
  133.9510  123.9100   62.2430 C   0  0  0  0  0  0  0  0  0  0  0  0
  134.2940  122.4060   62.4180 C   0  0  0  0  0  0  0  0  0  0  0  0
  133.5310  124.3700   63.5200 O   0  0  0  0  0  0  0  0  0  0  0  0
  132.1590  124.2650   63.5710 B   0  0  0  0  0  0  0  0  0  0  0  0
  131.3070  124.4230   64.9070 C   0  0  0  0  0  0  0  0  0  0  0  0
  131.6940  125.4010   65.8320 C   0  0  0  0  0  0  0  0  0  0  0  0
  130.9890  125.5860   67.0170 C   0  0  0  0  0  0  0  0  0  0  0  0
  129.8800  124.7940   67.2930 C   0  0  0  0  0  0  0  0  0  0  0  0
  129.4800  123.8190   66.3840 C   0  0  0  0  0  0  0  0  0  0  0  0
  130.1880  123.6140   65.1850 C   0  0  0  0  0  0  0  0  0  0  0  0
  129.8280  122.6610   64.2470 O   0  0  0  0  0  0  0  0  0  0  0  0
  128.5840  122.7400   63.5520 C   0  0  0  0  0  0  0  0  0  0  0  0
  128.7520  123.2810   62.1180 C   0  0  0  0  0  0  0  0  0  0  0  0
  128.3740  122.1070   60.7820 S   0  0  0  0  0  0  0  0  0  0  0  0
  127.6140  123.1860   59.5250 C   0  0  0  0  0  0  0  0  0  0  0  0
  127.6060  122.4890   58.1450 C   0  0  0  0  0  0  0  0  0  0  0  0
  126.8980  123.3440   57.0750 C   0  0  0  0  0  0  0  0  0  0  0  0
  125.4780  123.7540   57.5130 C   0  0  0  0  0  0  0  0  0  0  0  0
  125.4770  124.4420   58.8920 C   0  0  0  0  0  0  0  0  0  0  0  0
  126.1900  123.5910   59.9630 C   0  0  0  0  0  0  0  0  0  0  0  0
  131.6410  124.0080   62.3200 O   0  0  0  0  0  0  0  0  0  0  0  0
  132.6800  124.2130   61.3740 C   0  0  0  0  0  0  0  0  0  0  0  0
  132.5380  125.6820   60.8920 C   0  0  0  0  0  0  0  0  0  0  0  0
  132.4420  123.2340   60.2030 C   0  0  0  0  0  0  0  0  0  0  0  0
  135.7361  125.0393   62.7611 H   0  0  0  0  0  0  0  0  0  0  0  0
  135.8827  124.0693   61.2564 H   0  0  0  0  0  0  0  0  0  0  0  0
  134.9224  125.5873   61.2564 H   0  0  0  0  0  0  0  0  0  0  0  0
  134.3490  122.1648   63.4898 H   0  0  0  0  0  0  0  0  0  0  0  0
  133.5123  121.7941   61.9441 H   0  0  0  0  0  0  0  0  0  0  0  0
  135.2637  122.1935   61.9441 H   0  0  0  0  0  0  0  0  0  0  0  0
  132.5689  126.0326   65.6182 H   0  0  0  0  0  0  0  0  0  0  0  0
  131.3081  126.3569   67.7338 H   0  0  0  0  0  0  0  0  0  0  0  0
  129.3196  124.9379   68.2285 H   0  0  0  0  0  0  0  0  0  0  0  0
  128.5982  123.1999   66.6057 H   0  0  0  0  0  0  0  0  0  0  0  0
  128.1417  121.7341   63.5017 H   0  0  0  0  0  0  0  0  0  0  0  0
  127.9334  123.4361   64.1017 H   0  0  0  0  0  0  0  0  0  0  0  0
  128.0854  124.1485   62.0040 H   0  0  0  0  0  0  0  0  0  0  0  0
  129.8201  123.5216   62.0119 H   0  0  0  0  0  0  0  0  0  0  0  0
  128.2139  124.1031   59.4301 H   0  0  0  0  0  0  0  0  0  0  0  0
  128.6449  122.3124   57.8294 H   0  0  0  0  0  0  0  0  0  0  0  0
  127.0560  121.5415   58.2440 H   0  0  0  0  0  0  0  0  0  0  0  0
  127.4913  124.2529   56.8964 H   0  0  0  0  0  0  0  0  0  0  0  0
  126.8111  122.7405   56.1594 H   0  0  0  0  0  0  0  0  0  0  0  0
  125.0633  124.4495   56.7685 H   0  0  0  0  0  0  0  0  0  0  0  0
  124.8679  122.8417   57.5872 H   0  0  0  0  0  0  0  0  0  0  0  0
  125.9926  125.4099   58.8063 H   0  0  0  0  0  0  0  0  0  0  0  0
  124.4308  124.5747   59.2047 H   0  0  0  0  0  0  0  0  0  0  0  0
  126.2568  124.1739   60.8935 H   0  0  0  0  0  0  0  0  0  0  0  0
  125.6052  122.6712   60.1113 H   0  0  0  0  0  0  0  0  0  0  0  0
  132.4735  126.3494   61.7640 H   0  0  0  0  0  0  0  0  0  0  0  0
  133.4139  125.9551   60.2852 H   0  0  0  0  0  0  0  0  0  0  0  0
  131.6260  125.7823   60.2852 H   0  0  0  0  0  0  0  0  0  0  0  0
  132.1998  122.2377   60.6015 H   0  0  0  0  0  0  0  0  0  0  0  0
  131.6056  123.5957   59.5869 H   0  0  0  0  0  0  0  0  0  0  0  0
  133.3511  123.1714   59.5869 H   0  0  0  0  0  0  0  0  0  0  0  0
  1  2  1  0
  2  3  1  0
  2  4  1  0
  4  5  1  0
  5  6  1  0
  6  7  2  0
  7  8  1  0
  8  9  2  0
  9 10  1  0
 10 11  2  0
 11 12  1  0
 12 13  1  0
 13 14  1  0
 14 15  1  0
 15 16  1  0
 16 17  1  0
 17 18  1  0
 18 19  1  0
 19 20  1  0
 20 21  1  0
  5 22  1  0
 22 23  1  0
 23 24  1  0
 23 25  1  0
 23  2  1  0
 11  6  1  0
 21 16  1  0
  1 26  1  0
  1 27  1  0
  1 28  1  0
  3 29  1  0
  3 30  1  0
  3 31  1  0
  7 32  1  0
  8 33  1  0
  9 34  1  0
 10 35  1  0
 13 36  1  0
 13 37  1  0
 14 38  1  0
 14 39  1  0
 16 40  1  0
 17 41  1  0
 17 42  1  0
 18 43  1  0
 18 44  1  0
 19 45  1  0
 19 46  1  0
 20 47  1  0
 20 48  1  0
 21 49  1  0
 21 50  1  0
 24 51  1  0
 24 52  1  0
 24 53  1  0
 25 54  1  0
 25 55  1  0
 25 56  1  0
M  END
>  <Binding energies>  (1) 
[-6.54]

>  <Ligand effiencies>  (1) 
[-0.2616]

>  <Interactions>  (1) 
["V-A:ASP:366:CA:3210, V-B:PRO:540:CA:9855, V-A:GLY:454:CA:4049, V-B:GLU:543:CB:9878, V-B:ALA:541:CB:9864, V-B:TYR:539:CE2:9848, V-A:TYR:484:CE2:4346, V-B:GLU:543:CG:9879, V-B:TYR:539:C:9839, V-A:ASP:366:CG:3213, H-B:ALA:541:N:9863, V-A:TYR:484:CZ:4347, V-A:GLU:543:CD:4908, V-B:PRO:540:CB:9857, V-B:GLU:543:CA:9876, H-A:GLY:454:N:4050, V-A:GLY:453:C:4042, V-B:PRO:540:N:9856, V-A:HIS:456:CE1:4070, V-A:ILE:369:CD1:3239, V-B:TYR:539:CD2:9846, V-B:GLU:543:CD:9880, V-A:ASP:366:CB:3212, V-A:LEU:475:CD2:4259, H-A:ARG:545:NH2:4928, V-B:TYR:539:CG:9844, V-B:LEU:363:CD1:8160, V-A:GLY:453:CA:4044"]

$$$$
ZINC209946044
     RDKit          3D

 57 59  0  0  0  0  0  0  0  0999 V2000
  128.3820  125.3580   57.9830 C   0  0  0  0  0  0  0  0  0  0  0  0
  129.5300  126.3100   57.6740 C   0  0  0  0  0  0  0  0  0  0  0  0
  129.8190  126.6030   56.5110 O   0  0  0  0  0  0  0  0  0  0  0  0
  130.1350  126.7630   58.8050 O   0  0  0  0  0  0  0  0  0  0  0  0
  131.2420  126.0980   59.2950 C   0  0  0  0  0  0  0  0  0  0  0  0
  132.0740  125.4360   58.3830 C   0  0  0  0  0  0  0  0  0  0  0  0
  133.1860  124.7200   58.8190 C   0  0  0  0  0  0  0  0  0  0  0  0
  133.9850  124.0780   57.9110 O   0  0  0  0  0  0  0  0  0  0  0  0
  133.4840  124.6590   60.1770 C   0  0  0  0  0  0  0  0  0  0  0  0
  132.6670  125.3180   61.0930 C   0  0  0  0  0  0  0  0  0  0  0  0
  133.0220  125.2030   62.4240 O   0  0  0  0  0  0  0  0  0  0  0  0
  132.0570  125.3910   63.3910 C   0  0  0  0  0  0  0  0  0  0  0  0
  132.2830  124.8230   64.6420 C   0  0  0  0  0  0  0  0  0  0  0  0
  131.3370  124.9840   65.6530 C   0  0  0  0  0  0  0  0  0  0  0  0
  130.1560  125.6930   65.4230 C   0  0  0  0  0  0  0  0  0  0  0  0
  129.2800  125.7980   66.4880 O   0  0  0  0  0  0  0  0  0  0  0  0
  128.9220  127.0880   66.9740 C   0  0  0  0  0  0  0  0  0  0  0  0
  129.8900  127.5160   68.0630 C   0  0  0  0  0  0  0  0  0  0  0  0
  129.6320  127.6080   69.3850 C   0  0  0  0  0  0  0  0  0  0  0  0
  130.6880  128.0890   70.3670 C   0  0  0  0  0  0  0  0  0  0  0  0
  128.2950  127.2270   70.0140 C   0  0  0  0  0  0  0  0  0  0  0  0
  128.4290  126.5700   71.3980 C   0  0  0  0  0  0  0  0  0  0  0  0
  127.4730  127.1500   72.4290 C   0  0  0  0  0  0  0  0  0  0  0  0
  127.7470  128.0730   73.3770 C   0  0  0  0  0  0  0  0  0  0  0  0
  126.6810  128.5380   74.3550 C   0  0  0  0  0  0  0  0  0  0  0  0
  129.0990  128.7480   73.5660 C   0  0  0  0  0  0  0  0  0  0  0  0
  129.9290  126.2420   64.1480 C   0  0  0  0  0  0  0  0  0  0  0  0
  130.8740  126.0960   63.1230 C   0  0  0  0  0  0  0  0  0  0  0  0
  130.6450  126.6220   61.7450 C   0  0  0  0  0  0  0  0  0  0  0  0
  129.7000  127.3720   61.4950 O   0  0  0  0  0  0  0  0  0  0  0  0
  131.5220  126.0280   60.6790 C   0  0  0  0  0  0  0  0  0  0  0  0
  128.2676  125.2631   59.0729 H   0  0  0  0  0  0  0  0  0  0  0  0
  127.4513  125.7530   57.5496 H   0  0  0  0  0  0  0  0  0  0  0  0
  128.5980  124.3703   57.5496 H   0  0  0  0  0  0  0  0  0  0  0  0
  131.8459  125.4823   57.3079 H   0  0  0  0  0  0  0  0  0  0  0  0
  134.6950  124.6310   57.5790 H   0  0  0  0  0  0  0  0  0  0  0  0
  134.3605  124.0931   60.5255 H   0  0  0  0  0  0  0  0  0  0  0  0
  133.2029  124.2504   64.8314 H   0  0  0  0  0  0  0  0  0  0  0  0
  131.5231  124.5468   66.6451 H   0  0  0  0  0  0  0  0  0  0  0  0
  128.9592  127.8127   66.1473 H   0  0  0  0  0  0  0  0  0  0  0  0
  127.9039  127.0495   67.3886 H   0  0  0  0  0  0  0  0  0  0  0  0
  130.9084  127.7787   67.7408 H   0  0  0  0  0  0  0  0  0  0  0  0
  130.3330  127.9273   71.3955 H   0  0  0  0  0  0  0  0  0  0  0  0
  131.6199  127.5265   70.2080 H   0  0  0  0  0  0  0  0  0  0  0  0
  130.8753  129.1612   70.2080 H   0  0  0  0  0  0  0  0  0  0  0  0
  127.6882  128.1385   70.1193 H   0  0  0  0  0  0  0  0  0  0  0  0
  127.8263  126.4859   69.3498 H   0  0  0  0  0  0  0  0  0  0  0  0
  128.2234  125.4942   71.2962 H   0  0  0  0  0  0  0  0  0  0  0  0
  129.4517  126.7620   71.7545 H   0  0  0  0  0  0  0  0  0  0  0  0
  126.4394  126.7748   72.3995 H   0  0  0  0  0  0  0  0  0  0  0  0
  127.0356  128.3833   75.3847 H   0  0  0  0  0  0  0  0  0  0  0  0
  126.4770  129.6069   74.1941 H   0  0  0  0  0  0  0  0  0  0  0  0
  125.7588  127.9604   74.1941 H   0  0  0  0  0  0  0  0  0  0  0  0
  129.3094  128.8530   74.6406 H   0  0  0  0  0  0  0  0  0  0  0  0
  129.8833  128.1357   73.0970 H   0  0  0  0  0  0  0  0  0  0  0  0
  129.0809  129.7428   73.0970 H   0  0  0  0  0  0  0  0  0  0  0  0
  128.9974  126.7933   63.9526 H   0  0  0  0  0  0  0  0  0  0  0  0
  1  2  1  0
  2  3  2  0
  2  4  1  0
  4  5  1  0
  5  6  2  0
  6  7  1  0
  7  8  1  0
  7  9  2  0
  9 10  1  0
 10 11  1  0
 11 12  1  0
 12 13  2  0
 13 14  1  0
 14 15  2  0
 15 16  1  0
 16 17  1  0
 17 18  1  0
 18 19  2  0
 19 20  1  0
 19 21  1  0
 21 22  1  0
 22 23  1  0
 23 24  2  3
 24 25  1  0
 24 26  1  0
 15 27  1  0
 27 28  2  0
 28 29  1  0
 29 30  2  0
 29 31  1  0
 31  5  1  0
 31 10  2  0
 28 12  1  0
  1 32  1  0
  1 33  1  0
  1 34  1  0
  6 35  1  0
  8 36  1  0
  9 37  1  0
 13 38  1  0
 14 39  1  0
 17 40  1  0
 17 41  1  0
 18 42  1  0
 20 43  1  0
 20 44  1  0
 20 45  1  0
 21 46  1  0
 21 47  1  0
 22 48  1  0
 22 49  1  0
 23 50  1  0
 25 51  1  0
 25 52  1  0
 25 53  1  0
 26 54  1  0
 26 55  1  0
 26 56  1  0
 27 57  1  0
M  END
>  <Binding energies>  (1) 
[-6.92]

>  <Ligand effiencies>  (1) 
[-0.21625]

>  <Interactions>  (1) 
["V-A:ASP:366:CA:3210, V-B:GLU:543:C:9874, V-B:HIS:456:CD2:9039, V-A:GLU:543:C:4902, V-B:GLU:543:CB:9878, V-B:HIS:456:CB:9036, H-A:TYR:531:OH:4795, V-B:TYR:539:CE2:9848, V-B:GLU:543:CG:9879, V-A:GLY:544:C:4912, V-A:ASP:366:CG:3213, V-B:TYR:539:CZ:9849, H-A:ASN:370:N:3244, H-B:TYR:539:OH:9850, V-B:LYS:547:CE:9922, V-A:GLU:543:CD:4908, V-A:TYR:484:CZ:4347, V-B:HIS:456:CE1:9041, V-A:HIS:456:CE1:4070, V-B:GLY:544:C:9884, V-A:GLU:543:CG:4907, V-B:GLU:543:CD:9880, V-B:HIS:456:CG:9037, V-A:ASP:366:CB:3212, H-A:ARG:545:NH2:4928, V-A:ARG:545:CZ:4926, H-A:ASP:366:O:3209, V-A:GLU:543:CB:4906"]

$$$$
ZINC2100430106
     RDKit          3D

 34 35  0  0  0  0  0  0  0  0999 V2000
  132.1520  124.7390   59.2780 C   0  0  0  0  0  0  0  0  0  0  0  0
  132.3610  125.4820   60.4720 O   0  0  0  0  0  0  0  0  0  0  0  0
  131.6770  124.9650   61.6100 C   0  0  2  0  0  0  0  0  0  0  0  0
  131.7290  125.8820   62.8400 C   0  0  0  0  0  0  0  0  0  0  0  0
  131.9900  124.6310   63.7170 C   0  0  1  0  0  0  0  0  0  0  0  0
  133.1030  124.8650   64.6650 C   0  0  0  0  0  0  0  0  0  0  0  0
  133.9730  125.0490   65.4070 N   0  0  0  0  0  0  0  0  0  0  0  0
  130.7120  124.0830   64.4360 C   0  0  1  0  0  0  0  0  0  0  0  0
  131.0040  122.8300   65.0330 O   0  0  0  0  0  0  0  0  0  0  0  0
  130.1620  125.0360   65.4940 C   0  0  0  0  0  0  0  0  0  0  0  0
  129.5160  126.2580   65.2960 C   0  0  0  0  0  0  0  0  0  0  0  0
  129.1200  126.9160   66.4640 C   0  0  0  0  0  0  0  0  0  0  0  0
  128.2240  128.5960   66.4710 Br  0  0  0  0  0  0  0  0  0  0  0  0
  129.4560  126.2060   67.6030 C   0  0  0  0  0  0  0  0  0  0  0  0
  129.1690  126.6270   69.2440 Cl  0  0  0  0  0  0  0  0  0  0  0  0
  130.2590  124.7250   67.2140 S   0  0  0  0  0  0  0  0  0  0  0  0
  132.4490  123.8910   62.4060 C   0  0  0  0  0  0  0  0  0  0  0  0
  131.9240  122.4560   62.1590 C   0  0  0  0  0  0  0  0  0  0  0  0
  133.9820  123.8950   62.1480 C   0  0  0  0  0  0  0  0  0  0  0  0
  131.8623  123.7090   59.5331 H   0  0  0  0  0  0  0  0  0  0  0  0
  131.3514  125.2098   58.6886 H   0  0  0  0  0  0  0  0  0  0  0  0
  133.0806  124.7234   58.6886 H   0  0  0  0  0  0  0  0  0  0  0  0
  130.7229  124.7161   61.1224 H   0  0  0  0  0  0  0  0  0  0  0  0
  132.5539  126.6096   62.8296 H   0  0  0  0  0  0  0  0  0  0  0  0
  130.9051  126.5742   63.0681 H   0  0  0  0  0  0  0  0  0  0  0  0
  129.9336  123.9760   63.6661 H   0  0  0  0  0  0  0  0  0  0  0  0
  131.7160  122.9510   65.6660 H   0  0  0  0  0  0  0  0  0  0  0  0
  129.3321  126.6727   64.2939 H   0  0  0  0  0  0  0  0  0  0  0  0
  131.7428  121.9607   63.1243 H   0  0  0  0  0  0  0  0  0  0  0  0
  130.9846  122.5024   61.5886 H   0  0  0  0  0  0  0  0  0  0  0  0
  132.6715  121.8852   61.5886 H   0  0  0  0  0  0  0  0  0  0  0  0
  134.5157  123.8964   63.1099 H   0  0  0  0  0  0  0  0  0  0  0  0
  134.2599  122.9976   61.5758 H   0  0  0  0  0  0  0  0  0  0  0  0
  134.2552  124.7939   61.5758 H   0  0  0  0  0  0  0  0  0  0  0  0
  1  2  1  0
  2  3  1  0
  3  4  1  0
  4  5  1  0
  5  6  1  1
  6  7  3  0
  5  8  1  0
  8  9  1  0
  8 10  1  0
 10 11  2  0
 11 12  1  0
 12 13  1  0
 12 14  2  0
 14 15  1  0
 14 16  1  0
  5 17  1  0
 17 18  1  0
 17 19  1  0
 17  3  1  0
 16 10  1  0
  1 20  1  0
  1 21  1  0
  1 22  1  0
  3 23  1  6
  4 24  1  0
  4 25  1  0
  8 26  1  6
  9 27  1  0
 11 28  1  0
 18 29  1  0
 18 30  1  0
 18 31  1  0
 19 32  1  0
 19 33  1  0
 19 34  1  0
M  END
>  <Binding energies>  (1) 
[-6.36]

>  <Ligand effiencies>  (1) 
[-0.318]

>  <Interactions>  (1) 
["V-A:ILE:369:CD1:3239, V-A:HIS:456:CE1:4070, V-B:GLU:543:CB:9878, V-A:GLU:543:CG:4907, H-A:ARG:545:NE:4924, V-B:GLU:543:CD:9880, V-A:GLU:543:CB:4906, V-B:TYR:539:CE2:9848, V-A:GLU:543:CD:4908, V-A:TYR:484:CZ:4347, V-B:GLU:543:CG:9879, V-A:LEU:475:CD2:4259, H-A:ARG:545:NH2:4928, V-A:ARG:545:CZ:4926, V-A:TYR:484:CE2:4346, V-B:GLU:543:CA:9876, H-A:GLY:454:N:4050, H-A:TYR:484:OH:4348"]

$$$$
ZINC2100534136
     RDKit          3D

 87 90  0  0  0  0  0  0  0  0999 V2000
  133.9210  121.3280   62.4160 C   0  0  0  0  0  0  0  0  0  0  0  0
  133.6570  121.4790   60.9060 C   0  0  0  0  0  0  0  0  0  0  0  0
  133.9160  122.9270   60.4500 C   0  0  0  0  0  0  0  0  0  0  0  0
  132.2400  121.0150   60.4950 C   0  0  0  0  0  0  0  0  0  0  0  0
  131.0960  121.6440   61.3240 C   0  0  0  0  0  0  0  0  0  0  0  0
  131.4610  122.9810   61.7740 N   0  0  0  0  0  0  0  0  0  0  0  0
  131.9840  123.1410   62.9960 N   0  0  0  0  0  0  0  0  0  0  0  0
  132.1170  124.4430   63.1730 C   0  0  0  0  0  0  0  0  0  0  0  0
  131.7140  125.1480   62.0190 C   0  0  0  0  0  0  0  0  0  0  0  0
  131.2410  124.1780   61.1460 C   0  0  0  0  0  0  0  0  0  0  0  0
  130.6300  124.4110   59.7720 C   0  0  0  0  0  0  0  0  0  0  0  0
  130.7250  125.9200   59.4150 C   0  0  0  0  0  0  0  0  0  0  0  0
  130.5060  126.8590   60.6280 C   0  0  1  0  0  0  0  0  0  0  0  0
  131.6170  126.6270   61.6880 C   0  0  0  0  0  0  0  0  0  0  0  0
  130.3820  128.2690   60.2680 N   0  0  0  0  0  0  0  0  0  0  0  0
  129.2720  129.0330   60.3010 C   0  0  0  0  0  0  0  0  0  0  0  0
  129.3600  130.2500   60.1510 O   0  0  0  0  0  0  0  0  0  0  0  0
  127.8880  128.4250   60.6190 C   0  0  0  0  0  0  0  0  0  0  0  0
  127.7810  127.7930   61.9560 N   0  0  0  0  0  0  0  0  0  0  0  0
  128.0130  126.3400   62.0710 C   0  0  0  0  0  0  0  0  0  0  0  0
  127.0720  125.5030   61.1860 C   0  0  0  0  0  0  0  0  0  0  0  0
  127.3840  124.0000   61.2680 C   0  0  0  0  0  0  0  0  0  0  0  0
  126.3880  123.3190   62.0010 O   0  0  0  0  0  0  0  0  0  0  0  0
  127.4780  128.5620   63.0460 C   0  0  0  0  0  0  0  0  0  0  0  0
  126.4360  129.2190   63.1180 O   0  0  0  0  0  0  0  0  0  0  0  0
  128.4670  128.6320   64.2330 C   0  0  0  0  0  0  0  0  0  0  0  0
  127.9780  127.9350   65.5320 C   0  0  0  0  0  0  0  0  0  0  0  0
  128.9210  128.1270   66.7370 C   0  0  0  0  0  0  0  0  0  0  0  0
  129.5530  126.8800   67.1990 N   0  0  0  0  0  0  0  0  0  0  0  0
  128.8910  126.3870   68.4130 C   0  0  0  0  0  0  0  0  0  0  0  0
  129.2980  127.1890   69.6530 C   0  0  0  0  0  0  0  0  0  0  0  0
  130.6130  127.6670   69.7590 C   0  0  0  0  0  0  0  0  0  0  0  0
  131.5100  127.4340   68.7720 F   0  0  0  0  0  0  0  0  0  0  0  0
  131.0160  128.3890   70.8810 C   0  0  0  0  0  0  0  0  0  0  0  0
  130.1100  128.6480   71.9070 C   0  0  0  0  0  0  0  0  0  0  0  0
  128.7990  128.1850   71.8100 C   0  0  0  0  0  0  0  0  0  0  0  0
  128.3880  127.4570   70.6910 C   0  0  0  0  0  0  0  0  0  0  0  0
  126.7500  126.8990   70.6390 Cl  0  0  0  0  0  0  0  0  0  0  0  0
  129.6000  125.8290   66.1620 C   0  0  0  0  0  0  0  0  0  0  0  0
  130.4950  126.1830   64.9590 C   0  0  0  0  0  0  0  0  0  0  0  0
  131.8850  125.7680   65.1700 N   0  0  0  0  0  0  0  0  0  0  0  0
  132.6910  125.0640   64.3490 C   0  0  0  0  0  0  0  0  0  0  0  0
  133.8910  124.9520   64.5890 O   0  0  0  0  0  0  0  0  0  0  0  0
  133.1013  121.7968   62.9802 H   0  0  0  0  0  0  0  0  0  0  0  0
  133.9792  120.2600   62.6731 H   0  0  0  0  0  0  0  0  0  0  0  0
  134.8710  121.8193   62.6731 H   0  0  0  0  0  0  0  0  0  0  0  0
  134.3654  120.8128   60.3918 H   0  0  0  0  0  0  0  0  0  0  0  0
  134.0317  123.5740   61.3320 H   0  0  0  0  0  0  0  0  0  0  0  0
  134.8347  122.9625   59.8461 H   0  0  0  0  0  0  0  0  0  0  0  0
  133.0665  123.2788   59.8461 H   0  0  0  0  0  0  0  0  0  0  0  0
  132.0845  121.2789   59.4385 H   0  0  0  0  0  0  0  0  0  0  0  0
  132.1998  119.9309   60.6767 H   0  0  0  0  0  0  0  0  0  0  0  0
  130.1913  121.7070   60.7014 H   0  0  0  0  0  0  0  0  0  0  0  0
  130.9095  121.0128   62.2054 H   0  0  0  0  0  0  0  0  0  0  0  0
  131.1773  123.8211   59.0220 H   0  0  0  0  0  0  0  0  0  0  0  0
  129.5746  124.1011   59.7815 H   0  0  0  0  0  0  0  0  0  0  0  0
  131.7240  126.1167   58.9987 H   0  0  0  0  0  0  0  0  0  0  0  0
  129.9222  126.1321   58.6935 H   0  0  0  0  0  0  0  0  0  0  0  0
  129.5322  126.5940   61.0655 H   0  0  0  0  0  0  0  0  0  0  0  0
  132.5809  126.9755   61.2886 H   0  0  0  0  0  0  0  0  0  0  0  0
  131.3690  127.1873   62.6015 H   0  0  0  0  0  0  0  0  0  0  0  0
  131.2560  128.7390   60.0780 H   0  0  0  0  0  0  0  0  0  0  0  0
  127.1389  129.2283   60.5588 H   0  0  0  0  0  0  0  0  0  0  0  0
  127.7241  127.6242   59.8829 H   0  0  0  0  0  0  0  0  0  0  0  0
  129.0512  126.1274   61.7760 H   0  0  0  0  0  0  0  0  0  0  0  0
  127.8142  126.0593   63.1158 H   0  0  0  0  0  0  0  0  0  0  0  0
  126.0355  125.6684   61.5152 H   0  0  0  0  0  0  0  0  0  0  0  0
  127.2159  125.8219   60.1431 H   0  0  0  0  0  0  0  0  0  0  0  0
  127.4292  123.5853   60.2502 H   0  0  0  0  0  0  0  0  0  0  0  0
  128.3491  123.8683   61.7792 H   0  0  0  0  0  0  0  0  0  0  0  0
  126.1150  123.8740   62.7350 H   0  0  0  0  0  0  0  0  0  0  0  0
  129.4082  128.1548   63.9224 H   0  0  0  0  0  0  0  0  0  0  0  0
  128.5804  129.6983   64.4783 H   0  0  0  0  0  0  0  0  0  0  0  0
  126.9919  128.3453   65.7951 H   0  0  0  0  0  0  0  0  0  0  0  0
  127.9439  126.8558   65.3219 H   0  0  0  0  0  0  0  0  0  0  0  0
  129.7144  128.8320   66.4481 H   0  0  0  0  0  0  0  0  0  0  0  0
  128.3072  128.5034   67.5686 H   0  0  0  0  0  0  0  0  0  0  0  0
  127.8018  126.4656   68.2807 H   0  0  0  0  0  0  0  0  0  0  0  0
  129.1981  125.3421   68.5676 H   0  0  0  0  0  0  0  0  0  0  0  0
  132.0507  128.7547   70.9564 H   0  0  0  0  0  0  0  0  0  0  0  0
  130.4289  129.2172   72.7926 H   0  0  0  0  0  0  0  0  0  0  0  0
  128.0839  128.3941   72.6193 H   0  0  0  0  0  0  0  0  0  0  0  0
  129.9844  124.9060   66.6207 H   0  0  0  0  0  0  0  0  0  0  0  0
  128.5763  125.7126   65.7768 H   0  0  0  0  0  0  0  0  0  0  0  0
  130.1046  125.6761   64.0642 H   0  0  0  0  0  0  0  0  0  0  0  0
  130.4811  127.2758   64.8341 H   0  0  0  0  0  0  0  0  0  0  0  0
  132.3120  126.1480   66.0020 H   0  0  0  0  0  0  0  0  0  0  0  0
  1  2  1  0
  2  3  1  0
  2  4  1  0
  4  5  1  0
  5  6  1  0
  6  7  1  0
  7  8  2  0
  8  9  1  0
  9 10  2  0
 10 11  1  0
 11 12  1  0
 12 13  1  0
 13 14  1  0
 13 15  1  0
 15 16  1  0
 16 17  2  0
 16 18  1  0
 18 19  1  0
 19 20  1  0
 20 21  1  0
 21 22  1  0
 22 23  1  0
 19 24  1  0
 24 25  2  0
 24 26  1  0
 26 27  1  0
 27 28  1  0
 28 29  1  0
 29 30  1  0
 30 31  1  0
 31 32  2  0
 32 33  1  0
 32 34  1  0
 34 35  2  0
 35 36  1  0
 36 37  2  0
 37 38  1  0
 29 39  1  0
 39 40  1  0
 40 41  1  0
 41 42  1  0
 42 43  2  0
 10  6  1  0
 37 31  1  0
 42  8  1  0
 14  9  1  0
  1 44  1  0
  1 45  1  0
  1 46  1  0
  2 47  1  0
  3 48  1  0
  3 49  1  0
  3 50  1  0
  4 51  1  0
  4 52  1  0
  5 53  1  0
  5 54  1  0
 11 55  1  0
 11 56  1  0
 12 57  1  0
 12 58  1  0
 13 59  1  1
 14 60  1  0
 14 61  1  0
 15 62  1  0
 18 63  1  0
 18 64  1  0
 20 65  1  0
 20 66  1  0
 21 67  1  0
 21 68  1  0
 22 69  1  0
 22 70  1  0
 23 71  1  0
 26 72  1  0
 26 73  1  0
 27 74  1  0
 27 75  1  0
 28 76  1  0
 28 77  1  0
 30 78  1  0
 30 79  1  0
 34 80  1  0
 35 81  1  0
 36 82  1  0
 39 83  1  0
 39 84  1  0
 40 85  1  0
 40 86  1  0
 41 87  1  0
M  END
>  <Binding energies>  (1) 
[-4.16]

>  <Ligand effiencies>  (1) 
[-0.08666666666666667]

>  <Interactions>  (1) 
["V-A:ILE:369:CG2:3237, V-A:GLY:454:CA:4049, V-B:GLU:543:C:9874, H-A:GLU:543:OE2:4910, V-A:ILE:369:CB:3236, V-A:GLU:543:C:4902, V-B:HIS:456:CD2:9039, V-B:GLU:543:CB:9878, H-A:ARG:545:NH1:4927, V-B:TYR:539:CE2:9848, H-B:ALA:541:O:9861, V-B:GLU:543:CG:9879, V-A:GLY:544:CA:4914, V-A:GLY:544:C:4912, V-A:ASP:366:CG:3213, H-B:GLU:543:OE1:9881, H-B:ALA:541:N:9863, V-A:GLU:543:CD:4908, V-B:GLU:543:CA:9876, H-A:GLY:454:N:4050, V-A:SER:385:C:3405, V-B:HIS:456:CE1:9041, V-A:ARG:545:CG:4922, V-A:ILE:369:CD1:3239, V-A:HIS:456:CE1:4070, V-B:GLY:544:C:9884, V-B:TYR:539:CD2:9846, V-B:GLY:544:CA:9886, V-A:SER:385:CB:3409, V-A:GLU:543:CG:4907, V-B:GLU:543:CD:9880, V-B:HIS:456:CG:9037, V-A:LEU:475:CD2:4259, H-A:ARG:545:NH2:4928, V-A:ARG:545:CZ:4926, H-B:ARG:545:NH2:9900, V-A:GLU:543:CB:4906, H-A:ARG:545:NE:4924, V-A:SER:385:CA:3407, H-A:ASP:366:OD2:3215, H-A:TYR:484:OH:4348"]

$$$$
ZINC210465041-again1
     RDKit          3D

 81 83  0  0  0  0  0  0  0  0999 V2000
  130.2800  132.9830   57.6660 C   0  0  0  0  0  0  0  0  0  0  0  0
  129.0280  132.8500   58.3360 O   0  0  0  0  0  0  0  0  0  0  0  0
  128.9660  132.1700   59.5200 C   0  0  0  0  0  0  0  0  0  0  0  0
  129.7900  132.3760   60.5820 C   0  0  0  0  0  0  0  0  0  0  0  0
  129.7130  131.6440   61.8460 C   0  0  0  0  0  0  0  0  0  0  0  0
  130.4930  131.8590   62.7740 O   0  0  0  0  0  0  0  0  0  0  0  0
  128.6150  130.6410   61.8680 C   0  0  0  0  0  0  0  0  0  0  0  0
  128.4780  129.8560   63.1380 C   0  0  0  0  0  0  0  0  0  0  0  0
  128.1350  130.4620   64.3730 C   0  0  0  0  0  0  0  0  0  0  0  0
  127.8860  131.7120   64.4780 O   0  0  0  0  0  0  0  0  0  0  0  0
  128.0480  129.6900   65.5380 C   0  0  0  0  0  0  0  0  0  0  0  0
  128.3120  128.3130   65.5190 C   0  0  0  0  0  0  0  0  0  0  0  0
  128.2380  127.4900   66.6290 O   0  0  0  0  0  0  0  0  0  0  0  0
  129.4360  126.9740   67.1950 C   0  0  0  0  0  0  0  0  0  0  0  0
  128.6700  127.7260   64.3060 C   0  0  0  0  0  0  0  0  0  0  0  0
  128.7300  128.4700   63.1190 C   0  0  0  0  0  0  0  0  0  0  0  0
  129.1180  127.7320   61.9040 C   0  0  0  0  0  0  0  0  0  0  0  0
  129.6190  126.4900   61.9800 C   0  0  0  0  0  0  0  0  0  0  0  0
  129.8770  125.8530   63.3500 C   0  0  1  0  0  0  0  0  0  0  0  0
  129.5950  124.3410   63.2580 C   0  0  0  0  0  0  0  0  0  0  0  0
  131.2930  126.2330   63.8700 C   0  0  0  0  0  0  0  0  0  0  0  0
  132.3800  125.1560   63.6710 C   0  0  0  0  0  0  0  0  0  0  0  0
  132.9020  125.0950   62.2440 C   0  0  0  0  0  0  0  0  0  0  0  0
  133.5050  124.0550   61.6280 C   0  0  0  0  0  0  0  0  0  0  0  0
  133.9450  124.1450   60.1780 C   0  0  0  0  0  0  0  0  0  0  0  0
  133.8250  122.7210   62.2920 C   0  0  0  0  0  0  0  0  0  0  0  0
  128.9020  126.3550   64.2980 O   0  0  0  0  0  0  0  0  0  0  0  0
  127.7800  130.4150   60.8080 C   0  0  0  0  0  0  0  0  0  0  0  0
  126.6260  129.3950   60.8380 C   0  0  0  0  0  0  0  0  0  0  0  0
  126.5850  128.4570   59.6360 C   0  0  0  0  0  0  0  0  0  0  0  0
  126.5340  127.1050   59.6100 C   0  0  0  0  0  0  0  0  0  0  0  0
  126.4710  126.3710   58.2760 C   0  0  0  0  0  0  0  0  0  0  0  0
  126.5060  126.2020   60.8470 C   0  0  0  0  0  0  0  0  0  0  0  0
  126.1180  124.7330   60.5870 C   0  0  0  0  0  0  0  0  0  0  0  0
  127.2170  123.7500   60.9600 C   0  0  0  0  0  0  0  0  0  0  0  0
  127.9880  123.0070   60.1400 C   0  0  0  0  0  0  0  0  0  0  0  0
  129.0620  122.0870   60.6970 C   0  0  0  0  0  0  0  0  0  0  0  0
  127.8750  122.9840   58.6210 C   0  0  0  0  0  0  0  0  0  0  0  0
  127.8830  131.1660   59.5200 C   0  0  0  0  0  0  0  0  0  0  0  0
  127.1480  130.9810   58.5470 O   0  0  0  0  0  0  0  0  0  0  0  0
  131.0863  133.0687   58.4093 H   0  0  0  0  0  0  0  0  0  0  0  0
  130.4545  132.0983   57.0360 H   0  0  0  0  0  0  0  0  0  0  0  0
  130.2648  133.8846   57.0360 H   0  0  0  0  0  0  0  0  0  0  0  0
  130.5686  133.1468   60.4836 H   0  0  0  0  0  0  0  0  0  0  0  0
  127.7673  130.1728   66.4857 H   0  0  0  0  0  0  0  0  0  0  0  0
  129.3658  127.0042   68.2923 H   0  0  0  0  0  0  0  0  0  0  0  0
  129.5792  125.9344   66.8653 H   0  0  0  0  0  0  0  0  0  0  0  0
  130.2898  127.5842   66.8653 H   0  0  0  0  0  0  0  0  0  0  0  0
  128.9949  128.2069   60.9195 H   0  0  0  0  0  0  0  0  0  0  0  0
  129.8443  125.9296   61.0607 H   0  0  0  0  0  0  0  0  0  0  0  0
  129.5165  123.9203   64.2713 H   0  0  0  0  0  0  0  0  0  0  0  0
  128.6506  124.1763   62.7185 H   0  0  0  0  0  0  0  0  0  0  0  0
  130.4165  123.8470   62.7185 H   0  0  0  0  0  0  0  0  0  0  0  0
  131.6157  127.1429   63.3428 H   0  0  0  0  0  0  0  0  0  0  0  0
  131.1920  126.3657   64.9573 H   0  0  0  0  0  0  0  0  0  0  0  0
  133.2218  125.3793   64.3429 H   0  0  0  0  0  0  0  0  0  0  0  0
  131.9224  124.1813   63.8959 H   0  0  0  0  0  0  0  0  0  0  0  0
  132.7732  126.0064   61.6416 H   0  0  0  0  0  0  0  0  0  0  0  0
  135.0218  124.3653   60.1346 H   0  0  0  0  0  0  0  0  0  0  0  0
  133.7460  123.1876   59.6743 H   0  0  0  0  0  0  0  0  0  0  0  0
  133.3860  124.9474   59.6743 H   0  0  0  0  0  0  0  0  0  0  0  0
  133.7966  122.8394   63.3852 H   0  0  0  0  0  0  0  0  0  0  0  0
  133.0813  121.9709   61.9850 H   0  0  0  0  0  0  0  0  0  0  0  0
  134.8281  122.3899   61.9850 H   0  0  0  0  0  0  0  0  0  0  0  0
  126.7292  128.7849   61.7475 H   0  0  0  0  0  0  0  0  0  0  0  0
  125.6921  129.9757   60.8160 H   0  0  0  0  0  0  0  0  0  0  0  0
  126.5988  128.9486   58.6520 H   0  0  0  0  0  0  0  0  0  0  0  0
  126.3782  125.2899   58.4564 H   0  0  0  0  0  0  0  0  0  0  0  0
  125.5998  126.7235   57.7043 H   0  0  0  0  0  0  0  0  0  0  0  0
  127.3895  126.5698   57.7043 H   0  0  0  0  0  0  0  0  0  0  0  0
  127.5095  126.2129   61.2975 H   0  0  0  0  0  0  0  0  0  0  0  0
  125.7219  126.6104   61.5016 H   0  0  0  0  0  0  0  0  0  0  0  0
  125.2219  124.4975   61.1799 H   0  0  0  0  0  0  0  0  0  0  0  0
  125.9371  124.6280   59.5071 H   0  0  0  0  0  0  0  0  0  0  0  0
  127.4074  123.6296   62.0367 H   0  0  0  0  0  0  0  0  0  0  0  0
  129.0325  122.1123   61.7963 H   0  0  0  0  0  0  0  0  0  0  0  0
  128.8811  121.0593   60.3489 H   0  0  0  0  0  0  0  0  0  0  0  0
  130.0497  122.4235   60.3489 H   0  0  0  0  0  0  0  0  0  0  0  0
  126.8345  122.7722   58.3339 H   0  0  0  0  0  0  0  0  0  0  0  0
  128.1753  123.9617   58.2161 H   0  0  0  0  0  0  0  0  0  0  0  0
  128.5336  122.2015   58.2161 H   0  0  0  0  0  0  0  0  0  0  0  0
  1  2  1  0
  2  3  1  0
  3  4  2  0
  4  5  1  0
  5  6  2  0
  5  7  1  0
  7  8  1  0
  8  9  2  0
  9 10  1  0
  9 11  1  0
 11 12  2  0
 12 13  1  0
 13 14  1  0
 12 15  1  0
 15 16  2  0
 16 17  1  0
 17 18  2  0
 18 19  1  0
 19 20  1  6
 19 21  1  0
 21 22  1  0
 22 23  1  0
 23 24  2  3
 24 25  1  0
 24 26  1  0
 19 27  1  0
  7 28  2  0
 28 29  1  0
 29 30  1  0
 30 31  2  0
 31 32  1  0
 31 33  1  0
 33 34  1  0
 34 35  1  0
 35 36  2  3
 36 37  1  0
 36 38  1  0
 28 39  1  0
 39 40  2  0
 39  3  1  0
 16  8  1  0
 27 15  1  0
  1 41  1  0
  1 42  1  0
  1 43  1  0
  4 44  1  0
 11 45  1  0
 14 46  1  0
 14 47  1  0
 14 48  1  0
 17 49  1  0
 18 50  1  0
 20 51  1  0
 20 52  1  0
 20 53  1  0
 21 54  1  0
 21 55  1  0
 22 56  1  0
 22 57  1  0
 23 58  1  0
 25 59  1  0
 25 60  1  0
 25 61  1  0
 26 62  1  0
 26 63  1  0
 26 64  1  0
 29 65  1  0
 29 66  1  0
 30 67  1  0
 32 68  1  0
 32 69  1  0
 32 70  1  0
 33 71  1  0
 33 72  1  0
 34 73  1  0
 34 74  1  0
 35 75  1  0
 37 76  1  0
 37 77  1  0
 37 78  1  0
 38 79  1  0
 38 80  1  0
 38 81  1  0
M  CHG  1  10  -1
M  END
>  <Binding energies>  (1) 
[-6.29]

>  <Ligand effiencies>  (1) 
[-0.15725]

>  <Interactions>  (1) 
["V-A:ILE:369:CG2:3237, V-A:ASP:366:CA:3210, V-B:PRO:540:CA:9855, V-A:GLY:454:CA:4049, V-A:ILE:369:CB:3236, H-A:ALA:541:N:4891, V-B:GLU:543:CB:9878, V-B:ASP:366:CG:8184, V-B:TYR:539:CE2:9848, V-B:GLU:543:CG:9879, V-B:TYR:539:C:9839, V-A:ASP:366:CG:3213, V-A:GLU:543:CD:4908, H-B:TYR:484:OH:9319, V-B:PRO:540:N:9856, V-A:ILE:369:CD1:3239, V-B:TYR:539:CD2:9846, V-A:GLU:543:CG:4907, V-B:GLU:543:CD:9880, V-A:TYR:539:C:4867, V-A:LEU:475:CD2:4259, V-A:ARG:545:CZ:4926, V-A:GLU:543:CB:4906, V-A:PRO:540:N:4884, V-A:PRO:540:CB:4885, V-A:PRO:540:CA:4883, V-A:PRO:540:CD:4887"]

$$$$
ZINC2106092492
     RDKit          3D

 51 51  0  0  0  0  0  0  0  0999 V2000
  126.5440  126.0040   59.4000 C   0  0  0  0  0  0  0  0  0  0  0  0
  127.1940  124.8960   60.2650 C   0  0  0  0  0  0  0  0  0  0  0  0
  126.1190  123.9850   60.9040 C   0  0  0  0  0  0  0  0  0  0  0  0
  128.0360  125.5510   61.3790 C   0  0  0  0  0  0  0  0  0  0  0  0
  128.1470  124.1340   59.5020 O   0  0  0  0  0  0  0  0  0  0  0  0
  128.0010  122.8270   59.1220 C   0  0  0  0  0  0  0  0  0  0  0  0
  127.2150  122.4330   58.2620 O   0  0  0  0  0  0  0  0  0  0  0  0
  128.8590  121.9820   59.8230 N   0  0  0  0  0  0  0  0  0  0  0  0
  129.8730  122.3970   60.8020 C   0  0  0  0  0  0  0  0  0  0  0  0
  129.3950  122.3420   62.2690 C   0  0  0  0  0  0  0  0  0  0  0  0
  130.4090  122.8710   63.3020 C   0  0  0  0  0  0  0  0  0  0  0  0
  129.7800  123.1760   64.6730 C   0  0  0  0  0  0  0  0  0  0  0  0
  129.6460  124.6880   64.9390 C   0  0  0  0  0  0  0  0  0  0  0  0
  130.9910  125.4300   65.0320 C   0  0  0  0  0  0  0  0  0  0  0  0
  131.2520  126.2870   63.8820 N   0  0  0  0  0  0  0  0  0  0  0  0
  131.7970  125.8280   62.6660 C   0  0  0  0  0  0  0  0  0  0  0  0
  131.2630  126.2820   61.4480 C   0  0  0  0  0  0  0  0  0  0  0  0
  131.7750  125.8560   60.2260 C   0  0  0  0  0  0  0  0  0  0  0  0
  131.0700  126.4540   58.7650 Cl  0  0  0  0  0  0  0  0  0  0  0  0
  132.8400  124.9570   60.2020 C   0  0  0  0  0  0  0  0  0  0  0  0
  133.5820  124.3380   58.5570 Br  0  0  0  0  0  0  0  0  0  0  0  0
  133.3800  124.4980   61.4000 C   0  0  0  0  0  0  0  0  0  0  0  0
  132.8830  124.9110   62.6490 C   0  0  0  0  0  0  0  0  0  0  0  0
  133.5270  124.3610   63.8820 N   0  0  0  0  0  0  0  0  0  0  0  0
  133.5110  123.1440   64.0540 O   0  0  0  0  0  0  0  0  0  0  0  0
  134.0550  125.1100   64.6980 O   0  0  0  0  0  0  0  0  0  0  0  0
  126.0970  126.7660   60.0554 H   0  0  0  0  0  0  0  0  0  0  0  0
  127.3113  126.4710   58.7651 H   0  0  0  0  0  0  0  0  0  0  0  0
  125.7620  125.5621   58.7651 H   0  0  0  0  0  0  0  0  0  0  0  0
  126.1910  124.0460   61.9999 H   0  0  0  0  0  0  0  0  0  0  0  0
  125.1202  124.3158   60.5832 H   0  0  0  0  0  0  0  0  0  0  0  0
  126.2815  122.9455   60.5832 H   0  0  0  0  0  0  0  0  0  0  0  0
  127.6449  125.2468   62.3611 H   0  0  0  0  0  0  0  0  0  0  0  0
  129.0832  125.2278   61.2852 H   0  0  0  0  0  0  0  0  0  0  0  0
  127.9803  126.6456   61.2852 H   0  0  0  0  0  0  0  0  0  0  0  0
  128.8220  120.9990   59.5990 H   0  0  0  0  0  0  0  0  0  0  0  0
  130.7447  121.7343   60.6980 H   0  0  0  0  0  0  0  0  0  0  0  0
  130.1099  123.4492   60.5856 H   0  0  0  0  0  0  0  0  0  0  0  0
  128.4774  122.9429   62.3522 H   0  0  0  0  0  0  0  0  0  0  0  0
  129.2417  121.2784   62.5039 H   0  0  0  0  0  0  0  0  0  0  0  0
  131.1947  122.1135   63.4393 H   0  0  0  0  0  0  0  0  0  0  0  0
  130.8091  123.8176   62.9098 H   0  0  0  0  0  0  0  0  0  0  0  0
  128.7791  122.7214   64.7106 H   0  0  0  0  0  0  0  0  0  0  0  0
  130.4436  122.7589   65.4448 H   0  0  0  0  0  0  0  0  0  0  0  0
  129.0618  125.1327   64.1198 H   0  0  0  0  0  0  0  0  0  0  0  0
  129.1551  124.7962   65.9174 H   0  0  0  0  0  0  0  0  0  0  0  0
  130.9852  126.0529   65.9386 H   0  0  0  0  0  0  0  0  0  0  0  0
  131.7844  124.6686   65.0604 H   0  0  0  0  0  0  0  0  0  0  0  0
  131.0860  127.2780   63.9870 H   0  0  0  0  0  0  0  0  0  0  0  0
  130.4213  126.9901   61.4607 H   0  0  0  0  0  0  0  0  0  0  0  0
  134.2215  123.7903   61.3688 H   0  0  0  0  0  0  0  0  0  0  0  0
  1  2  1  0
  2  3  1  0
  2  4  1  0
  2  5  1  0
  5  6  1  0
  6  7  2  0
  6  8  1  0
  8  9  1  0
  9 10  1  0
 10 11  1  0
 11 12  1  0
 12 13  1  0
 13 14  1  0
 14 15  1  0
 15 16  1  0
 16 17  2  0
 17 18  1  0
 18 19  1  0
 18 20  2  0
 20 21  1  0
 20 22  1  0
 22 23  2  0
 23 24  1  0
 24 25  2  0
 24 26  1  0
 23 16  1  0
  1 27  1  0
  1 28  1  0
  1 29  1  0
  3 30  1  0
  3 31  1  0
  3 32  1  0
  4 33  1  0
  4 34  1  0
  4 35  1  0
  8 36  1  0
  9 37  1  0
  9 38  1  0
 10 39  1  0
 10 40  1  0
 11 41  1  0
 11 42  1  0
 12 43  1  0
 12 44  1  0
 13 45  1  0
 13 46  1  0
 14 47  1  0
 14 48  1  0
 15 49  1  0
 17 50  1  0
 22 51  1  0
M  CHG  2  24   1  26  -1
M  END
>  <Binding energies>  (1) 
[-6.26]

>  <Ligand effiencies>  (1) 
[-0.22357142857142856]

>  <Interactions>  (1) 
["V-A:ILE:369:CG2:3237, V-A:ASP:366:CA:3210, V-B:PRO:540:CA:9855, V-A:GLY:454:CA:4049, H-A:GLU:543:OE2:4910, V-A:ILE:369:CB:3236, V-B:GLU:543:CB:9878, V-B:ALA:541:CB:9864, H-A:ARG:545:NH1:4927, V-B:TYR:539:CE2:9848, V-A:TYR:484:CE2:4346, V-B:GLU:543:CG:9879, V-B:TYR:539:C:9839, V-A:ASP:366:CG:3213, V-B:TYR:539:CZ:9849, V-A:GLU:543:CD:4908, V-B:PRO:540:CB:9857, H-A:GLY:454:N:4050, V-B:PRO:540:N:9856, V-A:ASP:366:C:3208, V-B:TYR:539:CD2:9846, V-B:GLU:543:CD:9880, V-A:ASP:366:CB:3212, V-A:LEU:475:CD2:4259, H-A:ARG:545:NH2:4928, V-A:ARG:545:CZ:4926, H-A:GLU:543:OE1:4909, V-B:TYR:539:CG:9844, H-B:TYR:539:O:9840, H-A:ARG:545:NE:4924, H-A:TYR:484:OH:4348"]

$$$$
ZINC21359508
     RDKit          3D

 43 46  0  0  0  0  0  0  0  0999 V2000
  130.4380  122.2050   65.2600 O   0  0  0  0  0  0  0  0  0  0  0  0
  130.6290  123.3570   64.8660 C   0  0  0  0  0  0  0  0  0  0  0  0
  131.1410  123.5710   63.5250 C   0  0  0  0  0  0  0  0  0  0  0  0
  130.3110  123.6800   62.4680 C   0  0  0  0  0  0  0  0  0  0  0  0
  130.6300  123.8720   61.1290 N   0  0  0  0  0  0  0  0  0  0  0  0
  129.5390  123.8010   60.2320 C   0  0  0  0  0  0  0  0  0  0  0  0
  129.0320  122.5550   59.8380 C   0  0  0  0  0  0  0  0  0  0  0  0
  127.9720  122.4850   58.9390 C   0  0  0  0  0  0  0  0  0  0  0  0
  127.4200  123.6570   58.4270 C   0  0  0  0  0  0  0  0  0  0  0  0
  125.9690  123.5590   57.1980 Br  0  0  0  0  0  0  0  0  0  0  0  0
  127.9210  124.9000   58.8060 C   0  0  0  0  0  0  0  0  0  0  0  0
  128.9820  124.9720   59.7040 C   0  0  0  0  0  0  0  0  0  0  0  0
  131.9670  124.0240   60.6540 C   0  0  0  0  0  0  0  0  0  0  0  0
  132.2370  124.2760   59.2930 C   0  0  0  0  0  0  0  0  0  0  0  0
  133.5410  124.4310   58.8290 C   0  0  0  0  0  0  0  0  0  0  0  0
  133.7670  124.6680   57.5180 F   0  0  0  0  0  0  0  0  0  0  0  0
  134.6080  124.3450   59.7150 C   0  0  0  0  0  0  0  0  0  0  0  0
  134.3670  124.1130   61.0650 C   0  0  0  0  0  0  0  0  0  0  0  0
  133.0620  123.9590   61.5430 C   0  0  0  0  0  0  0  0  0  0  0  0
  132.9190  123.6830   63.3090 S   0  0  0  0  0  0  0  0  0  0  0  0
  133.4380  124.8750   63.9890 O   0  0  0  0  0  0  0  0  0  0  0  0
  133.5390  122.3880   63.6110 O   0  0  0  0  0  0  0  0  0  0  0  0
  130.3490  124.4390   65.6500 N   0  0  0  0  0  0  0  0  0  0  0  0
  130.3810  125.8570   65.2430 C   0  0  0  0  0  0  0  0  0  0  0  0
  129.4860  126.5280   66.2820 C   0  0  0  0  0  0  0  0  0  0  0  0
  129.7040  125.7010   67.5320 C   0  0  0  0  0  0  0  0  0  0  0  0
  129.8080  124.2710   67.0070 C   0  0  0  0  0  0  0  0  0  0  0  0
  129.2374  123.6072   62.6961 H   0  0  0  0  0  0  0  0  0  0  0  0
  129.4728  121.6309   60.2401 H   0  0  0  0  0  0  0  0  0  0  0  0
  127.5713  121.5072   58.6336 H   0  0  0  0  0  0  0  0  0  0  0  0
  127.4800  125.8211   58.3973 H   0  0  0  0  0  0  0  0  0  0  0  0
  129.3842  125.9521   59.9998 H   0  0  0  0  0  0  0  0  0  0  0  0
  131.4002  124.3517   58.5830 H   0  0  0  0  0  0  0  0  0  0  0  0
  135.6393  124.4600   59.3501 H   0  0  0  0  0  0  0  0  0  0  0  0
  135.2131  124.0499   61.7651 H   0  0  0  0  0  0  0  0  0  0  0  0
  131.4046  126.2578   65.2838 H   0  0  0  0  0  0  0  0  0  0  0  0
  130.0451  126.0206   64.2084 H   0  0  0  0  0  0  0  0  0  0  0  0
  129.7895  127.5727   66.4450 H   0  0  0  0  0  0  0  0  0  0  0  0
  128.4305  126.5656   65.9746 H   0  0  0  0  0  0  0  0  0  0  0  0
  130.6312  125.9996   68.0430 H   0  0  0  0  0  0  0  0  0  0  0  0
  128.8991  125.8260   68.2713 H   0  0  0  0  0  0  0  0  0  0  0  0
  130.4890  123.6725   67.6299 H   0  0  0  0  0  0  0  0  0  0  0  0
  128.8448  123.7398   67.0203 H   0  0  0  0  0  0  0  0  0  0  0  0
  1  2  2  0
  2  3  1  0
  3  4  2  0
  4  5  1  0
  5  6  1  0
  6  7  2  0
  7  8  1  0
  8  9  2  0
  9 10  1  0
  9 11  1  0
 11 12  2  0
  5 13  1  0
 13 14  2  0
 14 15  1  0
 15 16  1  0
 15 17  2  0
 17 18  1  0
 18 19  2  0
 19 20  1  0
 20 21  2  0
 20 22  2  0
  2 23  1  0
 23 24  1  0
 24 25  1  0
 25 26  1  0
 26 27  1  0
 20  3  1  0
 27 23  1  0
 12  6  1  0
 19 13  1  0
  4 28  1  0
  7 29  1  0
  8 30  1  0
 11 31  1  0
 12 32  1  0
 14 33  1  0
 17 34  1  0
 18 35  1  0
 24 36  1  0
 24 37  1  0
 25 38  1  0
 25 39  1  0
 26 40  1  0
 26 41  1  0
 27 42  1  0
 27 43  1  0
M  END
>  <Binding energies>  (1) 
[-7.82]

>  <Ligand effiencies>  (1) 
[-0.2896296296296296]

>  <Interactions>  (1) 
["V-A:ILE:369:CG2:3237, V-A:ASP:366:CA:3210, V-B:PRO:540:CA:9855, V-A:GLY:454:CA:4049, V-A:ILE:369:CB:3236, V-B:GLU:543:CB:9878, V-B:TYR:539:CE2:9848, V-A:ASN:370:CB:3245, V-A:TYR:484:CE2:4346, V-B:GLU:543:CG:9879, V-B:TYR:539:C:9839, V-A:ASP:366:CG:3213, V-B:TYR:539:CZ:9849, V-A:TYR:484:CZ:4347, V-A:GLU:543:CD:4908, V-B:GLU:543:CA:9876, H-A:GLY:454:N:4050, V-B:PRO:540:N:9856, V-A:ILE:369:CD1:3239, V-A:HIS:456:CE1:4070, V-A:ASP:366:C:3208, V-B:TYR:539:CD2:9846, V-B:GLU:543:CD:9880, V-A:ILE:369:CG1:3238, V-A:ASP:366:CB:3212, H-A:ARG:545:NH2:4928, H-A:ARG:545:NE:4924, H-A:TYR:484:OH:4348"]

$$$$
ZINC2141389514
     RDKit          3D

 57 58  0  0  0  0  0  0  0  0999 V2000
  128.5270  124.3040   57.5650 C   0  0  0  0  0  0  0  0  0  0  0  0
  127.8840  123.0300   58.1510 C   0  0  0  0  0  0  0  0  0  0  0  0
  126.7720  122.5090   57.2210 C   0  0  0  0  0  0  0  0  0  0  0  0
  127.3450  123.2340   59.5900 C   0  0  0  0  0  0  0  0  0  0  0  0
  128.3680  123.0600   60.7450 C   0  0  2  0  0  0  0  0  0  0  0  0
  128.4990  121.5950   61.2070 C   0  0  0  0  0  0  0  0  0  0  0  0
  128.0430  123.9770   61.9440 C   0  0  0  0  0  0  0  0  0  0  0  0
  129.2240  124.2240   62.6940 O   0  0  0  0  0  0  0  0  0  0  0  0
  129.2990  123.4970   63.9130 C   0  0  0  0  0  0  0  0  0  0  0  0
  130.3060  124.1800   64.8310 C   0  0  0  0  0  0  0  0  0  0  0  0
  129.8520  124.6440   66.0720 C   0  0  0  0  0  0  0  0  0  0  0  0
  130.7110  125.3110   66.9410 C   0  0  0  0  0  0  0  0  0  0  0  0
  132.0360  125.5250   66.5760 C   0  0  0  0  0  0  0  0  0  0  0  0
  132.8740  126.1740   67.4150 F   0  0  0  0  0  0  0  0  0  0  0  0
  132.4980  125.0680   65.3430 C   0  0  0  0  0  0  0  0  0  0  0  0
  131.6530  124.3860   64.4570 C   0  0  0  0  0  0  0  0  0  0  0  0
  132.2780  123.8930   63.0750 B   0  0  0  0  0  0  0  0  0  0  0  0
  132.6980  122.6000   62.8530 O   0  0  0  0  0  0  0  0  0  0  0  0
  132.8970  122.4420   61.4580 C   0  0  0  0  0  0  0  0  0  0  0  0
  134.0500  121.4310   61.2650 C   0  0  0  0  0  0  0  0  0  0  0  0
  131.5690  121.8630   60.9010 C   0  0  0  0  0  0  0  0  0  0  0  0
  133.2250  123.9130   61.0220 C   0  0  0  0  0  0  0  0  0  0  0  0
  134.6970  124.3590   61.2290 C   0  0  0  0  0  0  0  0  0  0  0  0
  132.7470  124.2950   59.6020 C   0  0  0  0  0  0  0  0  0  0  0  0
  132.4550  124.6640   61.9470 O   0  0  0  0  0  0  0  0  0  0  0  0
  128.8573  124.9585   58.3851 H   0  0  0  0  0  0  0  0  0  0  0  0
  129.3929  124.0263   56.9460 H   0  0  0  0  0  0  0  0  0  0  0  0
  127.7893  124.8356   56.9460 H   0  0  0  0  0  0  0  0  0  0  0  0
  128.6806  122.2744   58.2184 H   0  0  0  0  0  0  0  0  0  0  0  0
  125.9403  122.1193   57.8264 H   0  0  0  0  0  0  0  0  0  0  0  0
  126.4097  123.3311   56.5863 H   0  0  0  0  0  0  0  0  0  0  0  0
  127.1719  121.7045   56.5863 H   0  0  0  0  0  0  0  0  0  0  0  0
  126.9400  124.2548   59.6534 H   0  0  0  0  0  0  0  0  0  0  0  0
  126.6014  122.4370   59.7377 H   0  0  0  0  0  0  0  0  0  0  0  0
  129.3416  123.3632   60.3325 H   0  0  0  0  0  0  0  0  0  0  0  0
  128.5025  121.5561   62.3063 H   0  0  0  0  0  0  0  0  0  0  0  0
  127.6494  121.0118   60.8222 H   0  0  0  0  0  0  0  0  0  0  0  0
  129.4386  121.1718   60.8222 H   0  0  0  0  0  0  0  0  0  0  0  0
  127.6383  124.9310   61.5751 H   0  0  0  0  0  0  0  0  0  0  0  0
  127.2999  123.4838   62.5879 H   0  0  0  0  0  0  0  0  0  0  0  0
  128.3105  123.4810   64.3953 H   0  0  0  0  0  0  0  0  0  0  0  0
  129.6170  122.4632   63.7127 H   0  0  0  0  0  0  0  0  0  0  0  0
  128.8042  124.4794   66.3635 H   0  0  0  0  0  0  0  0  0  0  0  0
  130.3427  125.6680   67.9141 H   0  0  0  0  0  0  0  0  0  0  0  0
  133.5459  125.2460   65.0599 H   0  0  0  0  0  0  0  0  0  0  0  0
  134.4209  121.1058   62.2482 H   0  0  0  0  0  0  0  0  0  0  0  0
  133.6827  120.5585   60.7047 H   0  0  0  0  0  0  0  0  0  0  0  0
  134.8670  121.9091   60.7047 H   0  0  0  0  0  0  0  0  0  0  0  0
  130.9141  121.5775   61.7374 H   0  0  0  0  0  0  0  0  0  0  0  0
  131.0669  122.6239   60.2854 H   0  0  0  0  0  0  0  0  0  0  0  0
  131.7848  120.9773   60.2854 H   0  0  0  0  0  0  0  0  0  0  0  0
  134.9124  124.4243   62.3057 H   0  0  0  0  0  0  0  0  0  0  0  0
  135.3714  123.6249   60.7640 H   0  0  0  0  0  0  0  0  0  0  0  0
  134.8505  125.3440   60.7640 H   0  0  0  0  0  0  0  0  0  0  0  0
  131.8896  124.9802   59.6757 H   0  0  0  0  0  0  0  0  0  0  0  0
  133.5664  124.7899   59.0601 H   0  0  0  0  0  0  0  0  0  0  0  0
  132.4450  123.3867   59.0601 H   0  0  0  0  0  0  0  0  0  0  0  0
  1  2  1  0
  2  3  1  0
  2  4  1  0
  4  5  1  0
  5  6  1  0
  5  7  1  0
  7  8  1  0
  8  9  1  0
  9 10  1  0
 10 11  2  0
 11 12  1  0
 12 13  2  0
 13 14  1  0
 13 15  1  0
 15 16  2  0
 16 17  1  0
 17 18  1  0
 18 19  1  0
 19 20  1  0
 19 21  1  0
 19 22  1  0
 22 23  1  0
 22 24  1  0
 22 25  1  0
 16 10  1  0
 25 17  1  0
  1 26  1  0
  1 27  1  0
  1 28  1  0
  2 29  1  0
  3 30  1  0
  3 31  1  0
  3 32  1  0
  4 33  1  0
  4 34  1  0
  5 35  1  6
  6 36  1  0
  6 37  1  0
  6 38  1  0
  7 39  1  0
  7 40  1  0
  9 41  1  0
  9 42  1  0
 11 43  1  0
 12 44  1  0
 15 45  1  0
 20 46  1  0
 20 47  1  0
 20 48  1  0
 21 49  1  0
 21 50  1  0
 21 51  1  0
 23 52  1  0
 23 53  1  0
 23 54  1  0
 24 55  1  0
 24 56  1  0
 24 57  1  0
M  END
>  <Binding energies>  (1) 
[-5.68]

>  <Ligand effiencies>  (1) 
[-0.22719999999999999]

>  <Interactions>  (1) 
["V-A:ILE:369:CG2:3237, V-A:ASP:366:CA:3210, V-B:PRO:540:CA:9855, V-B:GLU:543:CB:9878, V-B:ALA:541:CB:9864, V-B:TYR:539:CE2:9848, V-A:TYR:484:CE2:4346, V-B:GLU:543:CG:9879, V-B:TYR:539:C:9839, V-A:ASP:366:CG:3213, V-B:TYR:539:CZ:9849, V-A:TYR:484:CZ:4347, V-B:PRO:540:CB:9857, V-A:ARG:545:CG:4922, V-A:SER:385:C:3405, V-B:PRO:540:N:9856, V-A:HIS:456:CE1:4070, V-A:ILE:369:CD1:3239, V-B:TYR:539:CD2:9846, V-B:PRO:540:CD:9859, V-A:SER:385:CB:3409, V-B:GLU:543:CD:9880, V-A:ARG:545:CD:4923, V-A:ARG:545:CB:4921, V-A:LEU:475:CD2:4259, V-A:ARG:545:CZ:4926, V-A:SER:385:CA:3407, V-B:PRO:540:C:9853, V-B:ALA:541:CA:9862"]

$$$$
ZINC2141692
     RDKit          3D

 51 53  0  0  0  0  0  0  0  0999 V2000
  126.7450  128.4710   74.6430 C   0  0  0  0  0  0  0  0  0  0  0  0
  128.2380  128.7310   74.3000 C   0  0  0  0  0  0  0  0  0  0  0  0
  129.0920  127.9930   75.3590 C   0  0  0  0  0  0  0  0  0  0  0  0
  128.4790  130.2570   74.4210 C   0  0  0  0  0  0  0  0  0  0  0  0
  128.6350  128.2490   72.8810 C   0  0  0  0  0  0  0  0  0  0  0  0
  127.8640  127.3220   72.1610 C   0  0  0  0  0  0  0  0  0  0  0  0
  128.2510  126.9110   70.8880 C   0  0  0  0  0  0  0  0  0  0  0  0
  129.4110  127.4250   70.3130 C   0  0  0  0  0  0  0  0  0  0  0  0
  129.7940  127.0190   69.0660 O   0  0  0  0  0  0  0  0  0  0  0  0
  128.7800  127.4080   67.7980 S   0  0  0  0  0  0  0  0  0  0  0  0
  127.4140  127.0020   68.1450 O   0  0  0  0  0  0  0  0  0  0  0  0
  129.0930  128.7670   67.3380 O   0  0  0  0  0  0  0  0  0  0  0  0
  129.4040  126.2400   66.5970 C   0  0  0  0  0  0  0  0  0  0  0  0
  129.8390  124.9790   67.0060 C   0  0  0  0  0  0  0  0  0  0  0  0
  130.3240  124.0770   66.0640 C   0  0  0  0  0  0  0  0  0  0  0  0
  130.3860  124.4270   64.7150 C   0  0  0  0  0  0  0  0  0  0  0  0
  130.8770  123.4700   63.8470 O   0  0  0  0  0  0  0  0  0  0  0  0
  131.3620  123.8180   62.6070 C   0  0  0  0  0  0  0  0  0  0  0  0
  130.5260  123.6930   61.4900 C   0  0  0  0  0  0  0  0  0  0  0  0
  128.9110  123.0980   61.6580 Cl  0  0  0  0  0  0  0  0  0  0  0  0
  130.9870  124.0570   60.2250 C   0  0  0  0  0  0  0  0  0  0  0  0
  132.2810  124.5440   60.0670 C   0  0  0  0  0  0  0  0  0  0  0  0
  133.1200  124.6660   61.1740 C   0  0  0  0  0  0  0  0  0  0  0  0
  132.6780  124.3010   62.4540 C   0  0  0  0  0  0  0  0  0  0  0  0
  133.5980  124.4290   63.6050 N   0  0  0  0  0  0  0  0  0  0  0  0
  133.3170  123.8500   64.6520 O   0  0  0  0  0  0  0  0  0  0  0  0
  134.6190  125.0940   63.4570 O   0  0  0  0  0  0  0  0  0  0  0  0
  129.9510  125.7000   64.3110 C   0  0  0  0  0  0  0  0  0  0  0  0
  129.4630  126.6040   65.2520 C   0  0  0  0  0  0  0  0  0  0  0  0
  130.1910  128.3410   71.0140 C   0  0  0  0  0  0  0  0  0  0  0  0
  129.8030  128.7500   72.2870 C   0  0  0  0  0  0  0  0  0  0  0  0
  126.6182  128.4489   75.7354 H   0  0  0  0  0  0  0  0  0  0  0  0
  126.1258  129.2748   74.2182 H   0  0  0  0  0  0  0  0  0  0  0  0
  126.4340  127.5052   74.2182 H   0  0  0  0  0  0  0  0  0  0  0  0
  128.7574  128.2821   76.3662 H   0  0  0  0  0  0  0  0  0  0  0  0
  128.9755  126.9066   75.2317 H   0  0  0  0  0  0  0  0  0  0  0  0
  130.1500  128.2657   75.2317 H   0  0  0  0  0  0  0  0  0  0  0  0
  128.5234  130.5381   75.4836 H   0  0  0  0  0  0  0  0  0  0  0  0
  129.4295  130.5180   73.9327 H   0  0  0  0  0  0  0  0  0  0  0  0
  127.6552  130.7982   73.9327 H   0  0  0  0  0  0  0  0  0  0  0  0
  126.9443  126.9161   72.6075 H   0  0  0  0  0  0  0  0  0  0  0  0
  127.6408  126.1806   70.3366 H   0  0  0  0  0  0  0  0  0  0  0  0
  129.7987  124.6990   68.0690 H   0  0  0  0  0  0  0  0  0  0  0  0
  130.6611  123.0805   66.3854 H   0  0  0  0  0  0  0  0  0  0  0  0
  130.3266  123.9590   59.3507 H   0  0  0  0  0  0  0  0  0  0  0  0
  132.6420  124.8327   59.0688 H   0  0  0  0  0  0  0  0  0  0  0  0
  134.1410  125.0533   61.0418 H   0  0  0  0  0  0  0  0  0  0  0  0
  129.9958  125.9838   63.2492 H   0  0  0  0  0  0  0  0  0  0  0  0
  129.1253  127.6018   64.9351 H   0  0  0  0  0  0  0  0  0  0  0  0
  131.1114  128.7405   70.5631 H   0  0  0  0  0  0  0  0  0  0  0  0
  130.4212  129.4764   72.8349 H   0  0  0  0  0  0  0  0  0  0  0  0
  1  2  1  0
  2  3  1  0
  2  4  1  0
  2  5  1  0
  5  6  2  0
  6  7  1  0
  7  8  2  0
  8  9  1  0
  9 10  1  0
 10 11  2  0
 10 12  2  0
 10 13  1  0
 13 14  2  0
 14 15  1  0
 15 16  2  0
 16 17  1  0
 17 18  1  0
 18 19  2  0
 19 20  1  0
 19 21  1  0
 21 22  2  0
 22 23  1  0
 23 24  2  0
 24 25  1  0
 25 26  2  0
 25 27  1  0
 16 28  1  0
 28 29  2  0
  8 30  1  0
 30 31  2  0
 31  5  1  0
 29 13  1  0
 24 18  1  0
  1 32  1  0
  1 33  1  0
  1 34  1  0
  3 35  1  0
  3 36  1  0
  3 37  1  0
  4 38  1  0
  4 39  1  0
  4 40  1  0
  6 41  1  0
  7 42  1  0
 14 43  1  0
 15 44  1  0
 21 45  1  0
 22 46  1  0
 23 47  1  0
 28 48  1  0
 29 49  1  0
 30 50  1  0
 31 51  1  0
M  CHG  2  25   1  27  -1
M  END
>  <Binding energies>  (1) 
[-7.8]

>  <Ligand effiencies>  (1) 
[-0.25161290322580643]

>  <Interactions>  (1) 
["V-A:GLY:454:CA:4049, V-B:HIS:456:CD2:9039, V-B:GLU:543:C:9874, V-A:GLU:543:C:4902, V-B:GLU:543:CB:9878, V-B:HIS:456:CB:9036, H-A:ARG:545:NH1:4927, V-A:TYR:484:CE2:4346, V-B:TYR:539:CE2:9848, V-B:GLU:543:CG:9879, V-A:GLY:544:C:4912, V-A:ASP:366:CG:3213, V-B:LYS:547:CE:9922, V-A:GLU:543:CD:4908, V-A:TYR:484:CZ:4347, V-B:HIS:456:CE1:9041, V-B:GLU:543:CA:9876, H-A:GLY:454:N:4050, V-A:HIS:456:CE1:4070, V-B:GLU:543:CD:9880, V-B:HIS:456:CG:9037, H-A:ARG:545:NH2:4928, V-A:ARG:545:CZ:4926, H-A:ARG:545:NE:4924, H-A:TYR:484:OH:4348"]

$$$$
ZINC2142343-again1
     RDKit          3D

 47 49  0  0  0  0  0  0  0  0999 V2000
  129.1070  128.8390   59.6890 O   0  0  0  0  0  0  0  0  0  0  0  0
  129.1050  128.9660   60.9160 C   0  0  0  0  0  0  0  0  0  0  0  0
  127.8480  128.6500   61.7380 C   0  0  0  0  0  0  0  0  0  0  0  0
  128.1590  128.3680   63.5120 S   0  0  0  0  0  0  0  0  0  0  0  0
  128.8780  126.6990   63.4720 C   0  0  0  0  0  0  0  0  0  0  0  0
  129.5000  126.2730   64.7860 C   0  0  0  0  0  0  0  0  0  0  0  0
  129.2210  126.8570   65.9280 N   0  0  0  0  0  0  0  0  0  0  0  0
  129.8580  126.3420   66.9710 C   0  0  0  0  0  0  0  0  0  0  0  0
  129.6310  126.8930   68.3500 C   0  0  0  0  0  0  0  0  0  0  0  0
  130.6550  127.5940   69.0010 C   0  0  0  0  0  0  0  0  0  0  0  0
  130.4590  128.1070   70.2810 C   0  0  0  0  0  0  0  0  0  0  0  0
  129.2350  127.9220   70.9200 C   0  0  0  0  0  0  0  0  0  0  0  0
  128.9920  128.5550   72.5060 Cl  0  0  0  0  0  0  0  0  0  0  0  0
  128.2060  127.2280   70.2870 C   0  0  0  0  0  0  0  0  0  0  0  0
  128.4040  126.7180   69.0060 C   0  0  0  0  0  0  0  0  0  0  0  0
  130.7060  125.2830   66.6360 C   0  0  0  0  0  0  0  0  0  0  0  0
  130.6450  124.9800   64.9290 S   0  0  0  0  0  0  0  0  0  0  0  0
  130.1640  129.3990   61.6250 N   0  0  0  0  0  0  0  0  0  0  0  0
  131.3460  129.7660   61.0160 N   0  0  0  0  0  0  0  0  0  0  0  0
  131.5940  131.5110   60.9930 S   0  0  0  0  0  0  0  0  0  0  0  0
  132.2310  131.9030   62.2560 O   0  0  0  0  0  0  0  0  0  0  0  0
  132.2120  131.8520   59.7080 O   0  0  0  0  0  0  0  0  0  0  0  0
  129.9460  132.2050   60.9750 C   0  0  0  0  0  0  0  0  0  0  0  0
  129.4250  132.7800   59.8140 C   0  0  0  0  0  0  0  0  0  0  0  0
  128.1380  133.3180   59.8210 C   0  0  0  0  0  0  0  0  0  0  0  0
  127.3720  133.2850   60.9850 C   0  0  0  0  0  0  0  0  0  0  0  0
  127.8830  132.7110   62.1550 C   0  0  0  0  0  0  0  0  0  0  0  0
  127.0390  132.6830   63.4290 C   0  0  0  0  0  0  0  0  0  0  0  0
  126.7630  131.4350   63.8130 F   0  0  0  0  0  0  0  0  0  0  0  0
  127.6680  133.2940   64.4340 F   0  0  0  0  0  0  0  0  0  0  0  0
  125.8890  133.3170   63.2010 F   0  0  0  0  0  0  0  0  0  0  0  0
  129.1740  132.1680   62.1410 C   0  0  0  0  0  0  0  0  0  0  0  0
  127.1519  129.4962   61.6411 H   0  0  0  0  0  0  0  0  0  0  0  0
  127.4394  127.7104   61.3378 H   0  0  0  0  0  0  0  0  0  0  0  0
  128.0822  125.9839   63.2163 H   0  0  0  0  0  0  0  0  0  0  0  0
  129.6845  126.7139   62.7241 H   0  0  0  0  0  0  0  0  0  0  0  0
  131.6217  127.7403   68.4969 H   0  0  0  0  0  0  0  0  0  0  0  0
  131.2677  128.6562   70.7854 H   0  0  0  0  0  0  0  0  0  0  0  0
  127.2418  127.0835   70.7964 H   0  0  0  0  0  0  0  0  0  0  0  0
  127.5906  126.1731   68.5045 H   0  0  0  0  0  0  0  0  0  0  0  0
  131.3239  124.7217   67.3524 H   0  0  0  0  0  0  0  0  0  0  0  0
  130.1410  129.5160   62.6280 H   0  0  0  0  0  0  0  0  0  0  0  0
  132.1160  129.2490   61.4490 H   0  0  0  0  0  0  0  0  0  0  0  0
  130.0288  132.8087   58.8950 H   0  0  0  0  0  0  0  0  0  0  0  0
  127.7268  133.7692   58.9060 H   0  0  0  0  0  0  0  0  0  0  0  0
  126.3587  133.7131   60.9842 H   0  0  0  0  0  0  0  0  0  0  0  0
  129.5836  131.7093   63.0530 H   0  0  0  0  0  0  0  0  0  0  0  0
  1  2  2  0
  2  3  1  0
  3  4  1  0
  4  5  1  0
  5  6  1  0
  6  7  2  0
  7  8  1  0
  8  9  1  0
  9 10  2  0
 10 11  1  0
 11 12  2  0
 12 13  1  0
 12 14  1  0
 14 15  2  0
  8 16  2  0
 16 17  1  0
  2 18  1  0
 18 19  1  0
 19 20  1  0
 20 21  2  0
 20 22  2  0
 20 23  1  0
 23 24  2  0
 24 25  1  0
 25 26  2  0
 26 27  1  0
 27 28  1  0
 28 29  1  0
 28 30  1  0
 28 31  1  0
 27 32  2  0
 17  6  1  0
 32 23  1  0
 15  9  1  0
  3 33  1  0
  3 34  1  0
  5 35  1  0
  5 36  1  0
 10 37  1  0
 11 38  1  0
 14 39  1  0
 15 40  1  0
 16 41  1  0
 18 42  1  0
 19 43  1  0
 24 44  1  0
 25 45  1  0
 26 46  1  0
 32 47  1  0
M  END
>  <Binding energies>  (1) 
[-7.55]

>  <Ligand effiencies>  (1) 
[-0.22205882352941175]

>  <Interactions>  (1) 
["V-B:GLU:543:C:9874, V-B:HIS:456:CD2:9039, V-A:GLU:543:C:4902, H-A:ALA:541:N:4891, V-B:GLU:543:CB:9878, V-A:TYR:484:CE2:4346, V-A:GLY:544:C:4912, V-B:GLU:543:CG:9879, V-B:LEU:475:CD2:9230, V-A:TYR:539:CD1:4873, V-B:TYR:484:CE2:9317, V-A:ALA:541:CB:4892, V-A:GLU:543:CD:4908, V-A:TYR:484:CZ:4347, V-B:HIS:456:CE1:9041, V-A:HIS:456:CE1:4070, V-B:TYR:484:CZ:9318, V-B:GLU:543:CD:9880, V-A:TYR:539:C:4867, H-A:GLU:543:OE1:4909, V-A:GLU:543:CB:4906, H-A:ASP:366:OD1:3214, V-A:PRO:540:N:4884, V-A:PRO:540:CB:4885, V-A:PRO:540:CA:4883, H-A:ASP:366:OD2:3215, V-A:TYR:539:CE1:4875"]

$$$$
ZINC2142974
     RDKit          3D

 46 48  0  0  0  0  0  0  0  0999 V2000
  130.9410  125.8020   62.9540 O   0  0  0  0  0  0  0  0  0  0  0  0
  129.8000  125.7880   63.4270 C   0  0  0  0  0  0  0  0  0  0  0  0
  128.7500  125.1320   62.8890 N   0  0  0  0  0  0  0  0  0  0  0  0
  128.8540  124.4080   61.7120 N   0  0  0  0  0  0  0  0  0  0  0  0
  128.1700  123.0040   61.6930 S   0  0  0  0  0  0  0  0  0  0  0  0
  127.6890  122.5740   63.0120 O   0  0  0  0  0  0  0  0  0  0  0  0
  127.2730  122.8000   60.5500 O   0  0  0  0  0  0  0  0  0  0  0  0
  129.6120  121.9920   61.3520 C   0  0  0  0  0  0  0  0  0  0  0  0
  130.8680  122.5880   61.2120 C   0  0  0  0  0  0  0  0  0  0  0  0
  132.0040  121.8080   60.9750 C   0  0  0  0  0  0  0  0  0  0  0  0
  133.3690  122.4750   60.8150 C   0  0  0  0  0  0  0  0  0  0  0  0
  133.5650  123.4370   61.7180 F   0  0  0  0  0  0  0  0  0  0  0  0
  134.3540  121.5840   60.9430 F   0  0  0  0  0  0  0  0  0  0  0  0
  133.4440  123.0200   59.6000 F   0  0  0  0  0  0  0  0  0  0  0  0
  131.8700  120.4170   60.8920 C   0  0  0  0  0  0  0  0  0  0  0  0
  130.6210  119.8040   61.0460 C   0  0  0  0  0  0  0  0  0  0  0  0
  130.5140  118.2830   60.9600 C   0  0  0  0  0  0  0  0  0  0  0  0
  131.3530  117.6630   61.7920 F   0  0  0  0  0  0  0  0  0  0  0  0
  129.2720  117.9010   61.2650 F   0  0  0  0  0  0  0  0  0  0  0  0
  130.7910  117.8850   59.7180 F   0  0  0  0  0  0  0  0  0  0  0  0
  129.4940  120.6020   61.2800 C   0  0  0  0  0  0  0  0  0  0  0  0
  129.4850  126.5060   64.6420 C   0  0  0  0  0  0  0  0  0  0  0  0
  128.7060  127.6690   64.7570 C   0  0  0  0  0  0  0  0  0  0  0  0
  128.5220  128.0380   65.9970 N   0  0  0  0  0  0  0  0  0  0  0  0
  129.1560  127.1170   66.7390 N   0  0  0  0  0  0  0  0  0  0  0  0
  129.0390  127.2090   68.1440 C   0  0  0  0  0  0  0  0  0  0  0  0
  127.8320  126.8750   68.7670 C   0  0  0  0  0  0  0  0  0  0  0  0
  127.7140  126.9770   70.1510 C   0  0  0  0  0  0  0  0  0  0  0  0
  128.7980  127.4180   70.9060 C   0  0  0  0  0  0  0  0  0  0  0  0
  130.0000  127.7620   70.2920 C   0  0  0  0  0  0  0  0  0  0  0  0
  130.1220  127.6620   68.9090 C   0  0  0  0  0  0  0  0  0  0  0  0
  129.8030  126.1600   65.9660 C   0  0  0  0  0  0  0  0  0  0  0  0
  130.6350  125.0130   66.5440 C   0  0  0  0  0  0  0  0  0  0  0  0
  130.0700  124.5040   67.6370 F   0  0  0  0  0  0  0  0  0  0  0  0
  130.7660  123.9930   65.6950 F   0  0  0  0  0  0  0  0  0  0  0  0
  131.8570  125.4300   66.8770 F   0  0  0  0  0  0  0  0  0  0  0  0
  127.8310  125.1390   63.3060 H   0  0  0  0  0  0  0  0  0  0  0  0
  130.9640  123.6811   61.2890 H   0  0  0  0  0  0  0  0  0  0  0  0
  132.7587  119.7969   60.7031 H   0  0  0  0  0  0  0  0  0  0  0  0
  128.5084  120.1305   61.4081 H   0  0  0  0  0  0  0  0  0  0  0  0
  128.2940  128.2123   63.8938 H   0  0  0  0  0  0  0  0  0  0  0  0
  126.9775  126.5324   68.1649 H   0  0  0  0  0  0  0  0  0  0  0  0
  126.7684  126.7103   70.6458 H   0  0  0  0  0  0  0  0  0  0  0  0
  128.7039  127.4955   71.9992 H   0  0  0  0  0  0  0  0  0  0  0  0
  130.8493  128.1112   70.8975 H   0  0  0  0  0  0  0  0  0  0  0  0
  131.0667  127.9380   68.4177 H   0  0  0  0  0  0  0  0  0  0  0  0
  1  2  2  0
  2  3  1  0
  3  4  1  0
  4  5  1  0
  5  6  2  0
  5  7  2  0
  5  8  1  0
  8  9  2  0
  9 10  1  0
 10 11  1  0
 11 12  1  0
 11 13  1  0
 11 14  1  0
 10 15  2  0
 15 16  1  0
 16 17  1  0
 17 18  1  0
 17 19  1  0
 17 20  1  0
 16 21  2  0
  2 22  1  0
 22 23  1  0
 23 24  2  0
 24 25  1  0
 25 26  1  0
 26 27  2  0
 27 28  1  0
 28 29  2  0
 29 30  1  0
 30 31  2  0
 25 32  1  0
 32 33  1  0
 33 34  1  0
 33 35  1  0
 33 36  1  0
 21  8  1  0
 32 22  2  0
 31 26  1  0
  3 37  1  0
  9 38  1  0
 15 39  1  0
 21 40  1  0
 23 41  1  0
 27 42  1  0
 28 43  1  0
 29 44  1  0
 30 45  1  0
 31 46  1  0
M  CHG  1   4  -1
M  END
>  <Binding energies>  (1) 
[-6.14]

>  <Ligand effiencies>  (1) 
[-0.16594594594594594]

>  <Interactions>  (1) 
["V-A:ILE:369:CG2:3237, V-B:PRO:540:CA:9855, V-B:GLU:543:C:9874, V-A:ILE:369:CB:3236, V-B:GLU:543:CB:9878, V-B:ALA:541:CB:9864, V-B:TYR:539:CE2:9848, V-A:TYR:484:CE2:4346, V-A:LEU:475:CG:4257, V-B:GLU:543:CG:9879, V-B:TYR:539:C:9839, H-B:GLU:543:OE1:9881, H-B:ALA:541:N:9863, V-A:LEU:475:CD1:4258, V-B:TYR:539:CB:9843, V-A:HIS:383:CE1:3393, V-A:GLU:543:CD:4908, V-A:TYR:484:CZ:4347, V-B:HIS:456:CE1:9041, V-B:GLU:543:CA:9876, V-A:SER:385:C:3405, V-A:HIS:456:CE1:4070, V-A:ILE:369:CD1:3239, V-B:GLY:544:C:9884, V-A:PRO:482:CB:4326, V-B:TYR:539:CD2:9846, V-A:SER:385:CB:3409, V-B:GLU:543:CD:9880, V-A:ILE:369:CG1:3238, V-A:LEU:475:CD2:4259, H-A:ARG:545:NH2:4928, V-B:TYR:539:CG:9844, V-A:GLU:543:CB:4906, V-A:HIS:383:CD2:3392, H-B:GLU:543:OE2:9882, V-A:PRO:482:CG:4327, V-A:SER:385:CA:3407, V-B:PRO:540:C:9853, V-A:HIS:383:NE2:3394"]

$$$$
ZINC2145324
     RDKit          3D

 54 56  0  0  0  0  0  0  0  0999 V2000
  132.2930  129.5790   58.2000 N   0  0  0  0  0  0  0  0  0  0  0  0
  131.5150  130.7180   57.9760 C   0  0  0  0  0  0  0  0  0  0  0  0
  132.0820  131.7820   57.2700 C   0  0  0  0  0  0  0  0  0  0  0  0
  131.3370  132.9310   57.0060 C   0  0  0  0  0  0  0  0  0  0  0  0
  130.0240  133.0290   57.4610 C   0  0  0  0  0  0  0  0  0  0  0  0
  129.4540  131.9780   58.1790 C   0  0  0  0  0  0  0  0  0  0  0  0
  130.1900  130.8160   58.4370 C   0  0  0  0  0  0  0  0  0  0  0  0
  129.4300  129.5010   59.3630 S   0  0  0  0  0  0  0  0  0  0  0  0
  130.0900  129.5750   61.0580 C   0  0  2  0  0  0  0  0  0  0  0  0
  131.3310  130.4880   61.1590 C   0  0  0  0  0  0  0  0  0  0  0  0
  131.0600  131.8020   61.8280 N   0  0  0  0  0  0  0  0  0  0  0  0
  131.6540  132.0400   62.8730 O   0  0  0  0  0  0  0  0  0  0  0  0
  130.2660  132.5670   61.2890 O   0  0  0  0  0  0  0  0  0  0  0  0
  130.3270  128.1640   61.6020 C   0  0  0  0  0  0  0  0  0  0  0  0
  129.5020  127.6590   62.6110 C   0  0  0  0  0  0  0  0  0  0  0  0
  129.7100  126.3770   63.1060 C   0  0  0  0  0  0  0  0  0  0  0  0
  130.7470  125.5850   62.6030 C   0  0  0  0  0  0  0  0  0  0  0  0
  130.9920  124.1690   63.1390 C   0  0  1  0  0  0  0  0  0  0  0  0
  131.8450  124.1420   64.4300 C   0  0  0  0  0  0  0  0  0  0  0  0
  133.3000  124.4600   64.2540 N   0  0  0  0  0  0  0  0  0  0  0  0
  133.8640  125.0740   65.1530 O   0  0  0  0  0  0  0  0  0  0  0  0
  133.8470  124.0850   63.2220 O   0  0  0  0  0  0  0  0  0  0  0  0
  129.4370  123.2220   63.2660 S   0  0  0  0  0  0  0  0  0  0  0  0
  128.6230  123.3220   61.6870 C   0  0  0  0  0  0  0  0  0  0  0  0
  127.7560  124.3900   61.4340 C   0  0  0  0  0  0  0  0  0  0  0  0
  127.1060  124.4960   60.2050 C   0  0  0  0  0  0  0  0  0  0  0  0
  127.3270  123.5400   59.2160 C   0  0  0  0  0  0  0  0  0  0  0  0
  128.1940  122.4750   59.4580 C   0  0  0  0  0  0  0  0  0  0  0  0
  128.8410  122.3540   60.6900 C   0  0  0  0  0  0  0  0  0  0  0  0
  129.6870  121.2610   60.8920 N   0  0  0  0  0  0  0  0  0  0  0  0
  131.5680  126.0890   61.5900 C   0  0  0  0  0  0  0  0  0  0  0  0
  131.3570  127.3690   61.0890 C   0  0  0  0  0  0  0  0  0  0  0  0
  132.8050  129.4950   59.0660 H   0  0  0  0  0  0  0  0  0  0  0  0
  132.3290  128.8530   57.4980 H   0  0  0  0  0  0  0  0  0  0  0  0
  133.1226  131.7130   56.9202 H   0  0  0  0  0  0  0  0  0  0  0  0
  131.7860  133.7596   56.4387 H   0  0  0  0  0  0  0  0  0  0  0  0
  129.4366  133.9357   57.2539 H   0  0  0  0  0  0  0  0  0  0  0  0
  128.4200  132.0629   58.5446 H   0  0  0  0  0  0  0  0  0  0  0  0
  129.3346  130.0453   61.7047 H   0  0  0  0  0  0  0  0  0  0  0  0
  132.1054  129.9589   61.7338 H   0  0  0  0  0  0  0  0  0  0  0  0
  131.6504  130.7110   60.1303 H   0  0  0  0  0  0  0  0  0  0  0  0
  128.6865  128.2774   63.0141 H   0  0  0  0  0  0  0  0  0  0  0  0
  129.0555  125.9833   63.8976 H   0  0  0  0  0  0  0  0  0  0  0  0
  131.6114  123.6487   62.3936 H   0  0  0  0  0  0  0  0  0  0  0  0
  131.4209  124.8761   65.1309 H   0  0  0  0  0  0  0  0  0  0  0  0
  131.8063  123.1046   64.7937 H   0  0  0  0  0  0  0  0  0  0  0  0
  127.5858  125.1512   62.2096 H   0  0  0  0  0  0  0  0  0  0  0  0
  126.4190  125.3341   60.0164 H   0  0  0  0  0  0  0  0  0  0  0  0
  126.8178  123.6252   58.2447 H   0  0  0  0  0  0  0  0  0  0  0  0
  128.3697  121.7247   58.6730 H   0  0  0  0  0  0  0  0  0  0  0  0
  129.4180  120.3510   60.5490 H   0  0  0  0  0  0  0  0  0  0  0  0
  130.5650  121.4000   61.3730 H   0  0  0  0  0  0  0  0  0  0  0  0
  132.3840  125.4708   61.1877 H   0  0  0  0  0  0  0  0  0  0  0  0
  132.0020  127.7573   60.2870 H   0  0  0  0  0  0  0  0  0  0  0  0
  1  2  1  0
  2  3  2  0
  3  4  1  0
  4  5  2  0
  5  6  1  0
  6  7  2  0
  7  8  1  0
  8  9  1  0
  9 10  1  0
 10 11  1  0
 11 12  2  0
 11 13  1  0
  9 14  1  0
 14 15  2  0
 15 16  1  0
 16 17  2  0
 17 18  1  0
 18 19  1  0
 19 20  1  0
 20 21  2  0
 20 22  1  0
 18 23  1  0
 23 24  1  0
 24 25  2  0
 25 26  1  0
 26 27  2  0
 27 28  1  0
 28 29  2  0
 29 30  1  0
 17 31  1  0
 31 32  2  0
  7  2  1  0
 32 14  1  0
 29 24  1  0
  1 33  1  0
  1 34  1  0
  3 35  1  0
  4 36  1  0
  5 37  1  0
  6 38  1  0
  9 39  1  1
 10 40  1  0
 10 41  1  0
 15 42  1  0
 16 43  1  0
 18 44  1  6
 19 45  1  0
 19 46  1  0
 25 47  1  0
 26 48  1  0
 27 49  1  0
 28 50  1  0
 30 51  1  0
 30 52  1  0
 31 53  1  0
 32 54  1  0
M  CHG  4  11   1  13  -1  20   1  22  -1
M  END
>  <Binding energies>  (1) 
[-8.78]

>  <Ligand effiencies>  (1) 
[-0.24388888888888888]

>  <Interactions>  (1) 
["V-B:PRO:540:CA:9855, V-A:GLY:454:CA:4049, H-A:ALA:541:N:4891, V-A:ILE:538:CB:4862, H-A:TYR:531:OH:4795, H-A:ARG:545:NH1:4927, V-B:TYR:539:CE2:9848, V-B:TYR:539:C:9839, V-A:ASP:366:CG:3213, V-A:LEU:363:CD1:3189, V-A:TYR:531:CE2:4793, V-A:GLU:543:CD:4908, H-A:GLY:454:N:4050, V-B:PRO:540:N:9856, V-B:TYR:539:CD2:9846, V-A:TYR:531:CZ:4794, V-B:GLU:543:CD:9880, V-A:TYR:539:C:4867, V-A:ASP:366:CB:3212, H-A:ARG:545:NH2:4928, V-A:ARG:545:CZ:4926, V-A:PRO:540:N:4884, V-A:PRO:540:CB:4885, V-A:PRO:540:CA:4883, H-B:TYR:539:O:9840, H-A:ARG:545:NE:4924, H-A:ASP:366:OD2:3215, V-A:PRO:540:CD:4887, H-A:TYR:484:OH:4348"]

$$$$
ZINC2150345447
     RDKit          3D

 34 35  0  0  0  0  0  0  0  0999 V2000
  134.4190  124.2870   59.7890 C   0  0  0  0  0  0  0  0  0  0  0  0
  133.5320  123.9280   60.9670 C   0  0  0  0  0  0  0  0  0  0  0  0
  132.3450  123.2250   60.7560 C   0  0  0  0  0  0  0  0  0  0  0  0
  131.5290  122.8870   61.8340 C   0  0  0  0  0  0  0  0  0  0  0  0
  131.8790  123.2550   63.1420 C   0  0  0  0  0  0  0  0  0  0  0  0
  130.9780  122.8670   64.3290 C   0  0  2  0  0  0  0  0  0  0  0  0
  129.6040  122.3950   63.8290 C   0  0  0  0  0  0  0  0  0  0  0  0
  130.8310  123.9430   65.3150 N   0  0  0  0  0  0  0  0  0  0  0  0
  130.1490  125.1570   65.0780 C   0  0  0  0  0  0  0  0  0  0  0  0
  129.9610  125.6630   63.7840 C   0  0  0  0  0  0  0  0  0  0  0  0
  129.2770  126.8560   63.5810 C   0  0  0  0  0  0  0  0  0  0  0  0
  128.7700  127.5710   64.6620 C   0  0  0  0  0  0  0  0  0  0  0  0
  127.9290  129.0500   64.3500 Cl  0  0  0  0  0  0  0  0  0  0  0  0
  128.9490  127.0870   65.9660 C   0  0  0  0  0  0  0  0  0  0  0  0
  128.1810  128.1710   67.5990 I   0  0  0  0  0  0  0  0  0  0  0  0
  129.6390  125.8800   66.1720 C   0  0  0  0  0  0  0  0  0  0  0  0
  129.8580  125.2810   67.7900 Cl  0  0  0  0  0  0  0  0  0  0  0  0
  133.0820  123.9520   63.3490 C   0  0  0  0  0  0  0  0  0  0  0  0
  133.4870  124.3190   64.6080 O   0  0  0  0  0  0  0  0  0  0  0  0
  133.8970  124.2860   62.2660 C   0  0  0  0  0  0  0  0  0  0  0  0
  135.3795  124.6757   60.1583 H   0  0  0  0  0  0  0  0  0  0  0  0
  134.5972  123.3902   59.1775 H   0  0  0  0  0  0  0  0  0  0  0  0
  133.9233  125.0553   59.1775 H   0  0  0  0  0  0  0  0  0  0  0  0
  132.0525  122.9368   59.7355 H   0  0  0  0  0  0  0  0  0  0  0  0
  130.5999  122.3253   61.6574 H   0  0  0  0  0  0  0  0  0  0  0  0
  131.4791  122.0367   64.8481 H   0  0  0  0  0  0  0  0  0  0  0  0
  128.9569  122.1727   64.6903 H   0  0  0  0  0  0  0  0  0  0  0  0
  129.1439  123.1866   63.2194 H   0  0  0  0  0  0  0  0  0  0  0  0
  129.7275  121.4878   63.2194 H   0  0  0  0  0  0  0  0  0  0  0  0
  131.4900  123.9450   66.0790 H   0  0  0  0  0  0  0  0  0  0  0  0
  130.3590  125.1101   62.9203 H   0  0  0  0  0  0  0  0  0  0  0  0
  129.1355  127.2375   62.5590 H   0  0  0  0  0  0  0  0  0  0  0  0
  132.9260  123.9580   65.2980 H   0  0  0  0  0  0  0  0  0  0  0  0
  134.8343  124.8356   62.4375 H   0  0  0  0  0  0  0  0  0  0  0  0
  1  2  1  0
  2  3  2  0
  3  4  1  0
  4  5  2  0
  5  6  1  0
  6  7  1  0
  6  8  1  0
  8  9  1  0
  9 10  2  0
 10 11  1  0
 11 12  2  0
 12 13  1  0
 12 14  1  0
 14 15  1  0
 14 16  2  0
 16 17  1  0
  5 18  1  0
 18 19  1  0
 18 20  2  0
 20  2  1  0
 16  9  1  0
  1 21  1  0
  1 22  1  0
  1 23  1  0
  3 24  1  0
  4 25  1  0
  6 26  1  1
  7 27  1  0
  7 28  1  0
  7 29  1  0
  8 30  1  0
 10 31  1  0
 11 32  1  0
 19 33  1  0
 20 34  1  0
M  END
>  <Binding energies>  (1) 
[-6.71]

>  <Ligand effiencies>  (1) 
[-0.305]

>  <Interactions>  (1) 
["V-A:ILE:369:CG2:3237, V-A:ASP:366:CA:3210, V-A:ILE:369:CB:3236, V-B:GLU:543:CB:9878, V-B:ALA:541:CB:9864, V-B:TYR:539:CE2:9848, V-A:TYR:484:CE2:4346, V-B:GLU:543:CG:9879, V-A:ASP:366:CG:3213, V-A:TYR:484:CZ:4347, V-A:GLU:543:CD:4908, V-B:GLU:543:CA:9876, H-A:GLY:454:N:4050, V-B:HIS:456:CE1:9041, V-A:ILE:369:CD1:3239, V-A:HIS:456:CE1:4070, V-B:GLU:543:CD:9880, V-A:ILE:369:CG1:3238, V-A:ASP:366:CB:3212, V-A:LEU:475:CD2:4259, V-A:GLU:543:CB:4906, H-A:TYR:484:OH:4348"]

$$$$
ZINC215281140
     RDKit          3D

 53 57  0  0  0  0  0  0  0  0999 V2000
  127.6320  128.2590   67.6760 O   0  0  0  0  0  0  0  0  0  0  0  0
  128.3080  127.5590   66.9190 C   0  0  0  0  0  0  0  0  0  0  0  0
  128.5470  127.9440   65.1940 S   0  0  0  0  0  0  0  0  0  0  0  0
  129.5630  126.5250   64.9750 C   0  0  0  0  0  0  0  0  0  0  0  0
  130.1750  126.1920   63.8140 C   0  0  0  0  0  0  0  0  0  0  0  0
  131.1150  125.0910   63.5140 C   0  0  0  0  0  0  0  0  0  0  0  0
  132.4780  125.2990   63.7470 C   0  0  0  0  0  0  0  0  0  0  0  0
  133.3970  124.2710   63.5420 C   0  0  0  0  0  0  0  0  0  0  0  0
  132.9570  123.0180   63.1250 C   0  0  0  0  0  0  0  0  0  0  0  0
  131.5990  122.7960   62.9030 C   0  0  0  0  0  0  0  0  0  0  0  0
  130.6670  123.8330   63.0730 C   0  0  0  0  0  0  0  0  0  0  0  0
  129.3070  123.6450   62.8980 O   0  0  0  0  0  0  0  0  0  0  0  0
  128.7020  123.5880   61.6560 C   0  0  0  0  0  0  0  0  0  0  0  0
  127.8290  124.5920   61.2150 C   0  0  0  0  0  0  0  0  0  0  0  0
  127.2600  124.5330   59.9460 C   0  0  0  0  0  0  0  0  0  0  0  0
  127.5300  123.4520   59.1010 C   0  0  0  0  0  0  0  0  0  0  0  0
  126.9290  123.3660   57.6990 C   0  0  0  0  0  0  0  0  0  0  0  0
  127.3630  124.3890   56.9630 F   0  0  0  0  0  0  0  0  0  0  0  0
  127.2510  122.2330   57.0730 F   0  0  0  0  0  0  0  0  0  0  0  0
  125.6000  123.4320   57.7780 F   0  0  0  0  0  0  0  0  0  0  0  0
  128.3600  122.4250   59.5590 C   0  0  0  0  0  0  0  0  0  0  0  0
  128.9410  122.4720   60.8340 C   0  0  0  0  0  0  0  0  0  0  0  0
  129.7880  121.3460   61.2860 N   0  0  0  0  0  0  0  0  0  0  0  0
  129.4950  120.7730   62.3320 O   0  0  0  0  0  0  0  0  0  0  0  0
  130.7360  121.0180   60.5790 O   0  0  0  0  0  0  0  0  0  0  0  0
  129.6310  125.7610   66.2070 C   0  0  0  0  0  0  0  0  0  0  0  0
  130.1910  124.6730   66.3530 O   0  0  0  0  0  0  0  0  0  0  0  0
  128.9720  126.4190   67.1970 N   0  0  0  0  0  0  0  0  0  0  0  0
  128.9030  125.8700   68.5730 C   0  0  0  0  0  0  0  0  0  0  0  0
  129.3140  126.8020   69.7170 C   0  0  0  0  0  0  0  0  0  0  0  0
  128.4240  126.9590   70.7930 C   0  0  0  0  0  0  0  0  0  0  0  0
  128.7720  127.8400   71.8090 C   0  0  0  0  0  0  0  0  0  0  0  0
  129.9400  128.5440   71.7800 C   0  0  0  0  0  0  0  0  0  0  0  0
  130.8540  128.4050   70.7420 C   0  0  0  0  0  0  0  0  0  0  0  0
  130.5310  127.5280   69.6970 C   0  0  0  0  0  0  0  0  0  0  0  0
  131.6580  127.3720   68.3960 Cl  0  0  0  0  0  0  0  0  0  0  0  0
  130.0350  129.3050   72.9010 O   0  0  0  0  0  0  0  0  0  0  0  0
  128.7920  129.1990   73.5410 C   0  0  0  0  0  0  0  0  0  0  0  0
  128.0970  128.1330   72.9510 O   0  0  0  0  0  0  0  0  0  0  0  0
  129.9352  126.8427   62.9601 H   0  0  0  0  0  0  0  0  0  0  0  0
  132.8280  126.2821   64.0950 H   0  0  0  0  0  0  0  0  0  0  0  0
  134.4693  124.4499   63.7097 H   0  0  0  0  0  0  0  0  0  0  0  0
  133.6803  122.2038   62.9708 H   0  0  0  0  0  0  0  0  0  0  0  0
  131.2538  121.7990   62.5917 H   0  0  0  0  0  0  0  0  0  0  0  0
  127.5909  125.4359   61.8791 H   0  0  0  0  0  0  0  0  0  0  0  0
  126.5948  125.3405   59.6063 H   0  0  0  0  0  0  0  0  0  0  0  0
  128.5613  121.5628   58.9062 H   0  0  0  0  0  0  0  0  0  0  0  0
  127.8631  125.5607   68.7547 H   0  0  0  0  0  0  0  0  0  0  0  0
  129.6405  125.0541   68.5914 H   0  0  0  0  0  0  0  0  0  0  0  0
  127.4776  126.3995   70.8297 H   0  0  0  0  0  0  0  0  0  0  0  0
  131.8006  128.9653   70.7405 H   0  0  0  0  0  0  0  0  0  0  0  0
  128.9385  129.0027   74.6134 H   0  0  0  0  0  0  0  0  0  0  0  0
  128.2235  130.1347   73.4349 H   0  0  0  0  0  0  0  0  0  0  0  0
  1  2  2  0
  2  3  1  0
  3  4  1  0
  4  5  2  0
  5  6  1  0
  6  7  2  0
  7  8  1  0
  8  9  2  0
  9 10  1  0
 10 11  2  0
 11 12  1  0
 12 13  1  0
 13 14  2  0
 14 15  1  0
 15 16  2  0
 16 17  1  0
 17 18  1  0
 17 19  1  0
 17 20  1  0
 16 21  1  0
 21 22  2  0
 22 23  1  0
 23 24  2  0
 23 25  1  0
  4 26  1  0
 26 27  2  0
 26 28  1  0
 28 29  1  0
 29 30  1  0
 30 31  2  0
 31 32  1  0
 32 33  2  0
 33 34  1  0
 34 35  2  0
 35 36  1  0
 33 37  1  0
 37 38  1  0
 38 39  1  0
 28  2  1  0
 35 30  1  0
 11  6  1  0
 22 13  1  0
 39 32  1  0
  5 40  1  0
  7 41  1  0
  8 42  1  0
  9 43  1  0
 10 44  1  0
 14 45  1  0
 15 46  1  0
 21 47  1  0
 29 48  1  0
 29 49  1  0
 31 50  1  0
 34 51  1  0
 38 52  1  0
 38 53  1  0
M  CHG  2  23   1  25  -1
M  END
>  <Binding energies>  (1) 
[-8.13]

>  <Ligand effiencies>  (1) 
[-0.20846153846153848]

>  <Interactions>  (1) 
["V-B:TYR:539:CA:9841, V-B:PRO:540:CA:9855, V-A:GLY:454:CA:4049, V-B:GLU:543:C:9874, V-B:HIS:456:CD2:9039, V-A:GLU:543:C:4902, V-B:GLU:543:CB:9878, V-B:ALA:541:CB:9864, V-B:TYR:539:CE2:9848, V-A:GLY:544:CA:4914, V-B:GLU:543:CG:9879, V-A:GLY:544:C:4912, V-B:TYR:539:C:9839, V-B:TYR:539:CZ:9849, H-B:ALA:541:N:9863, V-A:GLU:543:CD:4908, V-B:PRO:540:CB:9857, V-B:HIS:456:CE1:9041, V-B:GLU:543:CA:9876, V-A:ARG:545:CG:4922, V-B:PRO:540:N:9856, V-A:HIS:456:CE1:4070, V-B:TYR:539:CD2:9846, V-B:PRO:540:CD:9859, V-B:GLU:543:CD:9880, H-A:LYS:547:NZ:4951, V-A:LEU:475:CD2:4259, V-A:ARG:545:CZ:4926, V-B:TYR:539:CG:9844, V-A:GLU:543:CB:4906, V-B:TYR:539:CD1:9845, V-B:TYR:539:CE1:9847, H-A:TYR:484:OH:4348"]

$$$$
ZINC215567951
     RDKit          3D

114123  0  0  0  0  0  0  0  0999 V2000
  126.1890  130.4270   63.6660 C   0  0  0  0  0  0  0  0  0  0  0  0
  127.1720  131.3380   63.5310 C   0  0  0  0  0  0  0  0  0  0  0  0
  128.4500  131.0120   62.9270 C   0  0  0  0  0  0  0  0  0  0  0  0
  128.7000  129.8510   62.5870 O   0  0  0  0  0  0  0  0  0  0  0  0
  129.3430  132.0270   62.7280 N   0  0  0  0  0  0  0  0  0  0  0  0
  130.6470  132.1720   63.4120 C   0  0  0  0  0  0  0  0  0  0  0  0
  131.7380  131.5820   62.4850 C   0  0  0  0  0  0  0  0  0  0  0  0
  131.7000  132.2040   61.0650 C   0  0  0  0  0  0  0  0  0  0  0  0
  130.2650  132.2820   60.4660 C   0  0  1  0  0  0  0  0  0  0  0  0
  129.7800  131.0140   59.8900 N   0  0  0  0  0  0  0  0  0  0  0  0
  130.6050  129.9600   59.7130 N   0  0  0  0  0  0  0  0  0  0  0  0
  129.8920  128.9090   59.3830 C   0  0  0  0  0  0  0  0  0  0  0  0
  130.5500  127.5750   59.2130 C   0  0  0  0  0  0  0  0  0  0  0  0
  131.3420  127.0170   60.2190 C   0  0  0  0  0  0  0  0  0  0  0  0
  132.0030  125.8100   60.0040 C   0  0  0  0  0  0  0  0  0  0  0  0
  131.8710  125.1350   58.7920 C   0  0  0  0  0  0  0  0  0  0  0  0
  132.5670  123.9470   58.6630 O   0  0  0  0  0  0  0  0  0  0  0  0
  133.1470  123.3300   59.7470 C   0  0  0  0  0  0  0  0  0  0  0  0
  134.1480  123.9710   60.4830 C   0  0  0  0  0  0  0  0  0  0  0  0
  134.7130  123.3330   61.5850 C   0  0  0  0  0  0  0  0  0  0  0  0
  134.2660  122.0660   61.9530 C   0  0  0  0  0  0  0  0  0  0  0  0
  133.2590  121.4290   61.2300 C   0  0  0  0  0  0  0  0  0  0  0  0
  132.6980  122.0640   60.1240 C   0  0  0  0  0  0  0  0  0  0  0  0
  131.0590  125.6840   57.7880 C   0  0  0  0  0  0  0  0  0  0  0  0
  130.4110  126.8960   57.9970 C   0  0  0  0  0  0  0  0  0  0  0  0
  128.4980  129.2670   59.3190 C   0  0  0  0  0  0  0  0  0  0  0  0
  127.2400  128.6610   59.1130 C   0  0  0  0  0  0  0  0  0  0  0  0
  127.1660  127.2870   58.8470 N   0  0  0  0  0  0  0  0  0  0  0  0
  126.7100  126.3390   59.8600 C   0  0  0  0  0  0  0  0  0  0  0  0
  127.2760  124.9160   59.6350 C   0  0  0  0  0  0  0  0  0  0  0  0
  126.6780  123.8240   60.5580 C   0  0  0  0  0  0  0  0  0  0  0  0
  125.4690  123.5910   60.4640 O   0  0  0  0  0  0  0  0  0  0  0  0
  127.5030  123.0540   61.3220 N   0  0  0  0  0  0  0  0  0  0  0  0
  128.3510  121.9930   60.7490 C   0  0  0  0  0  0  0  0  0  0  0  0
  129.6770  122.6600   60.3200 C   0  0  0  0  0  0  0  0  0  0  0  0
  130.3580  123.3760   61.5060 C   0  0  0  0  0  0  0  0  0  0  0  0
  129.3700  124.2970   62.2800 C   0  0  2  0  0  0  0  0  0  0  0  0
  129.9700  124.7330   63.5480 N   0  0  0  0  0  0  0  0  0  0  0  0
  129.1990  125.2430   64.5350 N   0  0  0  0  0  0  0  0  0  0  0  0
  129.9750  125.5710   65.5450 C   0  0  0  0  0  0  0  0  0  0  0  0
  129.3890  126.1270   66.8010 C   0  0  0  0  0  0  0  0  0  0  0  0
  128.5540  127.2450   66.7600 C   0  0  0  0  0  0  0  0  0  0  0  0
  127.9950  127.7460   67.9320 C   0  0  0  0  0  0  0  0  0  0  0  0
  128.2540  127.1330   69.1560 C   0  0  0  0  0  0  0  0  0  0  0  0
  127.6890  127.6990   70.2820 O   0  0  0  0  0  0  0  0  0  0  0  0
  128.3900  127.7940   71.4640 C   0  0  0  0  0  0  0  0  0  0  0  0
  127.6900  127.6820   72.6650 C   0  0  0  0  0  0  0  0  0  0  0  0
  128.3710  127.7560   73.8780 C   0  0  0  0  0  0  0  0  0  0  0  0
  129.7530  127.9330   73.8830 C   0  0  0  0  0  0  0  0  0  0  0  0
  130.4610  128.0320   72.6870 C   0  0  0  0  0  0  0  0  0  0  0  0
  129.7800  127.9580   71.4740 C   0  0  0  0  0  0  0  0  0  0  0  0
  129.1010  126.0170   69.2010 C   0  0  0  0  0  0  0  0  0  0  0  0
  129.6600  125.5140   68.0300 C   0  0  0  0  0  0  0  0  0  0  0  0
  131.3500  125.3200   65.2080 C   0  0  0  0  0  0  0  0  0  0  0  0
  132.6410  125.4830   65.7540 C   0  0  0  0  0  0  0  0  0  0  0  0
  132.8520  126.0640   67.0010 N   0  0  0  0  0  0  0  0  0  0  0  0
  133.7440  125.1030   65.0610 N   0  0  0  0  0  0  0  0  0  0  0  0
  133.5480  124.5780   63.8240 C   0  0  0  0  0  0  0  0  0  0  0  0
  132.3670  124.3860   63.1810 N   0  0  0  0  0  0  0  0  0  0  0  0
  131.3050  124.7690   63.9030 C   0  0  0  0  0  0  0  0  0  0  0  0
  128.0240  123.5830   62.5970 C   0  0  0  0  0  0  0  0  0  0  0  0
  126.0960  129.3920   59.2320 N   0  0  0  0  0  0  0  0  0  0  0  0
  126.2230  130.7070   59.5390 C   0  0  0  0  0  0  0  0  0  0  0  0
  127.3690  131.3990   59.7670 N   0  0  0  0  0  0  0  0  0  0  0  0
  128.4700  130.6450   59.6510 C   0  0  0  0  0  0  0  0  0  0  0  0
  129.2620  132.8560   61.5060 C   0  0  0  0  0  0  0  0  0  0  0  0
  125.2335  130.7135   64.1297 H   0  0  0  0  0  0  0  0  0  0  0  0
  126.3417  129.3966   63.3126 H   0  0  0  0  0  0  0  0  0  0  0  0
  126.9999  132.3632   63.8907 H   0  0  0  0  0  0  0  0  0  0  0  0
  130.8532  133.2356   63.6022 H   0  0  0  0  0  0  0  0  0  0  0  0
  130.6354  131.6423   64.3760 H   0  0  0  0  0  0  0  0  0  0  0  0
  132.7246  131.7768   62.9307 H   0  0  0  0  0  0  0  0  0  0  0  0
  131.5492  130.5029   62.3859 H   0  0  0  0  0  0  0  0  0  0  0  0
  132.1120  133.2225   61.1187 H   0  0  0  0  0  0  0  0  0  0  0  0
  132.2930  131.5516   60.4072 H   0  0  0  0  0  0  0  0  0  0  0  0
  130.3322  132.9759   59.6151 H   0  0  0  0  0  0  0  0  0  0  0  0
  131.4442  127.5329   61.1851 H   0  0  0  0  0  0  0  0  0  0  0  0
  132.6350  125.3857   60.7981 H   0  0  0  0  0  0  0  0  0  0  0  0
  134.4884  124.9760   60.1928 H   0  0  0  0  0  0  0  0  0  0  0  0
  135.5084  123.8274   62.1619 H   0  0  0  0  0  0  0  0  0  0  0  0
  134.7125  121.5630   62.8234 H   0  0  0  0  0  0  0  0  0  0  0  0
  132.9091  120.4305   61.5309 H   0  0  0  0  0  0  0  0  0  0  0  0
  131.9023  121.5679   59.5489 H   0  0  0  0  0  0  0  0  0  0  0  0
  130.9348  125.1536   56.8324 H   0  0  0  0  0  0  0  0  0  0  0  0
  129.7844  127.3245   57.2009 H   0  0  0  0  0  0  0  0  0  0  0  0
  127.8350  126.9270   58.1790 H   0  0  0  0  0  0  0  0  0  0  0  0
  127.0342  126.6957   60.8488 H   0  0  0  0  0  0  0  0  0  0  0  0
  125.6138  126.2781   59.7925 H   0  0  0  0  0  0  0  0  0  0  0  0
  127.0759  124.6293   58.5920 H   0  0  0  0  0  0  0  0  0  0  0  0
  128.3486  124.9687   59.8732 H   0  0  0  0  0  0  0  0  0  0  0  0
  128.5452  121.2157   61.5028 H   0  0  0  0  0  0  0  0  0  0  0  0
  127.8561  121.5139   59.8914 H   0  0  0  0  0  0  0  0  0  0  0  0
  130.3564  121.8875   59.9307 H   0  0  0  0  0  0  0  0  0  0  0  0
  129.4528  123.4092   59.5464 H   0  0  0  0  0  0  0  0  0  0  0  0
  130.7527  122.6180   62.1986 H   0  0  0  0  0  0  0  0  0  0  0  0
  131.1639  124.0069   61.1030 H   0  0  0  0  0  0  0  0  0  0  0  0
  129.1661  125.1593   61.6282 H   0  0  0  0  0  0  0  0  0  0  0  0
  128.3370  127.7318   65.7977 H   0  0  0  0  0  0  0  0  0  0  0  0
  127.3443  128.6320   67.8916 H   0  0  0  0  0  0  0  0  0  0  0  0
  126.5999  127.5352   72.6545 H   0  0  0  0  0  0  0  0  0  0  0  0
  127.8205  127.6751   74.8269 H   0  0  0  0  0  0  0  0  0  0  0  0
  130.2905  127.9952   74.8407 H   0  0  0  0  0  0  0  0  0  0  0  0
  131.5525  128.1679   72.7006 H   0  0  0  0  0  0  0  0  0  0  0  0
  130.3335  128.0283   70.5260 H   0  0  0  0  0  0  0  0  0  0  0  0
  129.3246  125.5372   70.1652 H   0  0  0  0  0  0  0  0  0  0  0  0
  130.3166  124.6324   68.0703 H   0  0  0  0  0  0  0  0  0  0  0  0
  133.3440  125.5450   67.7150 H   0  0  0  0  0  0  0  0  0  0  0  0
  132.5030  126.9950   67.1770 H   0  0  0  0  0  0  0  0  0  0  0  0
  134.4527  124.2720   63.2782 H   0  0  0  0  0  0  0  0  0  0  0  0
  128.1917  122.7596   63.3068 H   0  0  0  0  0  0  0  0  0  0  0  0
  127.3076  124.2823   63.0528 H   0  0  0  0  0  0  0  0  0  0  0  0
  125.2873  131.2807   59.6119 H   0  0  0  0  0  0  0  0  0  0  0  0
  129.5260  133.8971   61.7435 H   0  0  0  0  0  0  0  0  0  0  0  0
  128.2398  132.8378   61.1001 H   0  0  0  0  0  0  0  0  0  0  0  0
  1  2  2  0
  2  3  1  0
  3  4  2  0
  3  5  1  0
  5  6  1  0
  6  7  1  0
  7  8  1  0
  8  9  1  0
  9 10  1  0
 10 11  1  0
 11 12  2  0
 12 13  1  0
 13 14  2  0
 14 15  1  0
 15 16  2  0
 16 17  1  0
 17 18  1  0
 18 19  2  0
 19 20  1  0
 20 21  2  0
 21 22  1  0
 22 23  2  0
 16 24  1  0
 24 25  2  0
 12 26  1  0
 26 27  2  0
 27 28  1  0
 28 29  1  0
 29 30  1  0
 30 31  1  0
 31 32  2  0
 31 33  1  0
 33 34  1  0
 34 35  1  0
 35 36  1  0
 36 37  1  0
 37 38  1  0
 38 39  1  0
 39 40  2  0
 40 41  1  0
 41 42  2  0
 42 43  1  0
 43 44  2  0
 44 45  1  0
 45 46  1  0
 46 47  2  0
 47 48  1  0
 48 49  2  0
 49 50  1  0
 50 51  2  0
 44 52  1  0
 52 53  2  0
 40 54  1  0
 54 55  2  0
 55 56  1  0
 55 57  1  0
 57 58  2  0
 58 59  1  0
 59 60  2  0
 37 61  1  0
 27 62  1  0
 62 63  2  0
 63 64  1  0
 64 65  2  0
  9 66  1  0
 66  5  1  0
 65 10  1  0
 25 13  1  0
 65 26  1  0
 23 18  1  0
 61 33  1  0
 60 38  1  0
 53 41  1  0
 60 54  1  0
 51 46  1  0
  1 67  1  0
  1 68  1  0
  2 69  1  0
  6 70  1  0
  6 71  1  0
  7 72  1  0
  7 73  1  0
  8 74  1  0
  8 75  1  0
  9 76  1  6
 14 77  1  0
 15 78  1  0
 19 79  1  0
 20 80  1  0
 21 81  1  0
 22 82  1  0
 23 83  1  0
 24 84  1  0
 25 85  1  0
 28 86  1  0
 29 87  1  0
 29 88  1  0
 30 89  1  0
 30 90  1  0
 34 91  1  0
 34 92  1  0
 35 93  1  0
 35 94  1  0
 36 95  1  0
 36 96  1  0
 37 97  1  6
 42 98  1  0
 43 99  1  0
 47100  1  0
 48101  1  0
 49102  1  0
 50103  1  0
 51104  1  0
 52105  1  0
 53106  1  0
 56107  1  0
 56108  1  0
 58109  1  0
 61110  1  0
 61111  1  0
 63112  1  0
 66113  1  0
 66114  1  0
M  END
>  <Binding energies>  (1) 
[-10.05]

>  <Ligand effiencies>  (1) 
[-0.1456521739130435]

>  <Interactions>  (1) 
["V-A:ILE:369:CG2:3237, V-A:ASP:366:CA:3210, V-B:PRO:540:CA:9855, V-A:ALA:541:C:4888, V-A:GLY:454:CA:4049, V-B:GLU:543:C:9874, H-A:GLU:543:OE2:4910, V-A:ILE:369:CB:3236, V-B:HIS:456:CD2:9039, V-A:PRO:540:C:4881, V-B:GLU:543:CB:9878, H-A:ARG:545:NH1:4927, V-B:TYR:539:CE2:9848, V-B:GLU:543:CG:9879, V-A:GLY:544:C:4912, V-B:TYR:539:C:9839, V-A:ASP:366:CG:3213, H-B:HIS:456:ND1:9038, V-B:TYR:539:CZ:9849, H-B:TYR:539:OH:9850, V-A:ALA:541:CB:4892, V-A:GLU:543:CD:4908, V-B:PRO:540:CB:9857, V-B:GLU:543:CA:9876, H-A:GLY:454:N:4050, V-A:SER:385:C:3405, V-B:HIS:456:CE1:9041, V-A:ARG:545:CG:4922, V-B:PRO:540:N:9856, V-A:ILE:369:CD1:3239, V-A:HIS:456:CE1:4070, V-A:ALA:541:CA:4890, V-B:TYR:539:CD2:9846, V-A:GLU:543:CG:4907, V-B:GLU:543:CD:9880, V-B:HIS:456:CG:9037, V-A:ILE:369:CG1:3238, V-A:ASP:366:CB:3212, V-A:ARG:545:CD:4923, V-A:LEU:475:CD2:4259, H-A:ARG:545:NH2:4928, V-A:ARG:545:CZ:4926, V-A:PRO:540:N:4884, V-A:PRO:540:CB:4885, V-A:PRO:540:CA:4883, H-A:ARG:545:NE:4924, V-B:PRO:540:C:9853, H-A:TYR:484:OH:4348"]

$$$$
ZINC216031930
     RDKit          3D

 85 89  0  0  0  0  0  0  0  0999 V2000
  130.8780  124.9390   75.3530 C   0  0  0  0  0  0  0  0  0  0  0  0
  131.0110  126.0260   74.2680 C   0  0  0  0  0  0  0  0  0  0  0  0
  132.4760  126.4830   74.1300 C   0  0  0  0  0  0  0  0  0  0  0  0
  130.0760  127.2350   74.5090 C   0  0  0  0  0  0  0  0  0  0  0  0
  129.5210  127.8890   73.2270 C   0  0  0  0  0  0  0  0  0  0  0  0
  130.0840  127.2510   71.9400 C   0  0  0  0  0  0  0  0  0  0  0  0
  129.0390  126.6170   70.9800 C   0  0  1  0  0  0  0  0  0  0  0  0
  127.6450  126.5450   71.6530 C   0  0  0  0  0  0  0  0  0  0  0  0
  128.9440  127.3280   69.5820 C   0  0  2  0  0  0  0  0  0  0  0  0
  127.5000  127.3460   69.0270 C   0  0  0  0  0  0  0  0  0  0  0  0
  127.5880  127.3090   67.5030 C   0  0  0  0  0  0  0  0  0  0  0  0
  129.0830  127.4160   67.1590 C   0  0  2  0  0  0  0  0  0  0  0  0
  129.5250  126.8140   65.7790 C   0  0  2  0  0  0  0  0  0  0  0  0
  128.6470  127.3850   64.6390 C   0  0  0  0  0  0  0  0  0  0  0  0
  129.0690  126.8470   63.2700 C   0  0  0  0  0  0  0  0  0  0  0  0
  129.0080  125.2990   63.2350 C   0  0  1  0  0  0  0  0  0  0  0  0
  129.2380  124.8410   61.7740 C   0  0  0  0  0  0  0  0  0  0  0  0
  130.5020  123.9950   61.5810 C   0  0  0  0  0  0  0  0  0  0  0  0
  131.5050  124.5380   61.1090 O   0  0  0  0  0  0  0  0  0  0  0  0
  130.5080  122.5690   61.9610 C   0  0  0  0  0  0  0  0  0  0  0  0
  130.4550  121.6460   60.9630 C   0  0  0  0  0  0  0  0  0  0  0  0
  130.4710  120.1940   61.0400 C   0  0  0  0  0  0  0  0  0  0  0  0
  131.2570  119.2040   60.4570 C   0  0  0  0  0  0  0  0  0  0  0  0
  130.7720  117.9700   60.8910 C   0  0  0  0  0  0  0  0  0  0  0  0
  129.6960  118.2510   61.7110 C   0  0  0  0  0  0  0  0  0  0  0  0
  129.5090  119.5930   61.7910 O   0  0  0  0  0  0  0  0  0  0  0  0
  130.5600  122.2000   63.4440 C   0  0  0  0  0  0  0  0  0  0  0  0
  129.7240  123.1020   64.3820 C   0  0  0  0  0  0  0  0  0  0  0  0
  129.9480  124.6520   64.3270 C   0  0  1  0  0  0  0  0  0  0  0  0
  131.4390  125.0060   64.0340 C   0  0  0  0  0  0  0  0  0  0  0  0
  129.4970  125.2460   65.7370 C   0  0  1  0  0  0  0  0  0  0  0  0
  130.3110  124.7110   66.9520 C   0  0  0  0  0  0  0  0  0  0  0  0
  129.7650  125.2390   68.2860 C   0  0  0  0  0  0  0  0  0  0  0  0
  129.8150  126.7930   68.3890 C   0  0  2  0  0  0  0  0  0  0  0  0
  131.2780  127.3200   68.4380 C   0  0  0  0  0  0  0  0  0  0  0  0
  130.9350  125.4050   76.3478 H   0  0  0  0  0  0  0  0  0  0  0  0
  129.9105  124.4273   75.2427 H   0  0  0  0  0  0  0  0  0  0  0  0
  131.6935  124.2091   75.2427 H   0  0  0  0  0  0  0  0  0  0  0  0
  130.6909  125.5673   73.3208 H   0  0  0  0  0  0  0  0  0  0  0  0
  132.9133  126.6194   75.1301 H   0  0  0  0  0  0  0  0  0  0  0  0
  133.0478  125.7205   73.5807 H   0  0  0  0  0  0  0  0  0  0  0  0
  132.5128  127.4353   73.5807 H   0  0  0  0  0  0  0  0  0  0  0  0
  129.2241  126.8933   75.1152 H   0  0  0  0  0  0  0  0  0  0  0  0
  130.6848  128.0024   75.0096 H   0  0  0  0  0  0  0  0  0  0  0  0
  128.4263  127.7816   73.2230 H   0  0  0  0  0  0  0  0  0  0  0  0
  129.8266  128.9457   73.2346 H   0  0  0  0  0  0  0  0  0  0  0  0
  130.6209  128.0334   71.3836 H   0  0  0  0  0  0  0  0  0  0  0  0
  130.7211  126.4194   72.2756 H   0  0  0  0  0  0  0  0  0  0  0  0
  129.3992  125.5977   70.7768 H   0  0  0  0  0  0  0  0  0  0  0  0
  127.7650  126.5512   72.7464 H   0  0  0  0  0  0  0  0  0  0  0  0
  127.0439  127.4133   71.3452 H   0  0  0  0  0  0  0  0  0  0  0  0
  127.1366  125.6194   71.3452 H   0  0  0  0  0  0  0  0  0  0  0  0
  129.3448  128.3113   69.8694 H   0  0  0  0  0  0  0  0  0  0  0  0
  126.9474  126.4676   69.3918 H   0  0  0  0  0  0  0  0  0  0  0  0
  126.9703  128.2505   69.3605 H   0  0  0  0  0  0  0  0  0  0  0  0
  127.1748  126.3644   67.1196 H   0  0  0  0  0  0  0  0  0  0  0  0
  127.0114  128.1275   67.0474 H   0  0  0  0  0  0  0  0  0  0  0  0
  129.3567  128.4688   66.9957 H   0  0  0  0  0  0  0  0  0  0  0  0
  130.5742  127.1130   65.6382 H   0  0  0  0  0  0  0  0  0  0  0  0
  127.5991  127.1058   64.8233 H   0  0  0  0  0  0  0  0  0  0  0  0
  128.7701  128.4780   64.6286 H   0  0  0  0  0  0  0  0  0  0  0  0
  128.3931  127.2505   62.5017 H   0  0  0  0  0  0  0  0  0  0  0  0
  130.1056  127.1599   63.0765 H   0  0  0  0  0  0  0  0  0  0  0  0
  128.0148  124.9267   63.5263 H   0  0  0  0  0  0  0  0  0  0  0  0
  128.3699  124.2443   61.4571 H   0  0  0  0  0  0  0  0  0  0  0  0
  129.3672  125.7513   61.1701 H   0  0  0  0  0  0  0  0  0  0  0  0
  130.3904  122.0599   59.9459 H   0  0  0  0  0  0  0  0  0  0  0  0
  132.1066  119.3654   59.7772 H   0  0  0  0  0  0  0  0  0  0  0  0
  131.1659  116.9759   60.6330 H   0  0  0  0  0  0  0  0  0  0  0  0
  129.0808  117.4972   62.2241 H   0  0  0  0  0  0  0  0  0  0  0  0
  130.1936  121.1683   63.5500 H   0  0  0  0  0  0  0  0  0  0  0  0
  131.6078  122.3310   63.7523 H   0  0  0  0  0  0  0  0  0  0  0  0
  128.6647  122.9189   64.1489 H   0  0  0  0  0  0  0  0  0  0  0  0
  130.0548  122.8186   65.3921 H   0  0  0  0  0  0  0  0  0  0  0  0
  131.9789  125.1342   64.9838 H   0  0  0  0  0  0  0  0  0  0  0  0
  131.9021  124.1928   63.4558 H   0  0  0  0  0  0  0  0  0  0  0  0
  131.4872  125.9406   63.4558 H   0  0  0  0  0  0  0  0  0  0  0  0
  128.4610  124.8892   65.8339 H   0  0  0  0  0  0  0  0  0  0  0  0
  130.2605  123.6122   66.9574 H   0  0  0  0  0  0  0  0  0  0  0  0
  131.3486  125.0606   66.8468 H   0  0  0  0  0  0  0  0  0  0  0  0
  128.7194  124.9137   68.3907 H   0  0  0  0  0  0  0  0  0  0  0  0
  130.4016  124.8344   69.0866 H   0  0  0  0  0  0  0  0  0  0  0  0
  131.5921  127.4331   69.4861 H   0  0  0  0  0  0  0  0  0  0  0  0
  131.9425  126.6047   67.9313 H   0  0  0  0  0  0  0  0  0  0  0  0
  131.3338  128.2947   67.9313 H   0  0  0  0  0  0  0  0  0  0  0  0
  1  2  1  0
  2  3  1  0
  2  4  1  0
  4  5  1  0
  5  6  1  0
  6  7  1  0
  7  8  1  0
  7  9  1  0
  9 10  1  0
 10 11  1  0
 11 12  1  0
 12 13  1  0
 13 14  1  0
 14 15  1  0
 15 16  1  0
 16 17  1  0
 17 18  1  0
 18 19  2  0
 18 20  1  0
 20 21  2  0
 21 22  1  0
 22 23  2  0
 23 24  1  0
 24 25  2  0
 25 26  1  0
 20 27  1  0
 27 28  1  0
 28 29  1  0
 29 30  1  6
 29 31  1  0
 31 32  1  0
 32 33  1  0
 33 34  1  0
 34 35  1  1
 34  9  1  0
 34 12  1  0
 31 13  1  0
 29 16  1  0
 26 22  1  0
  1 36  1  0
  1 37  1  0
  1 38  1  0
  2 39  1  0
  3 40  1  0
  3 41  1  0
  3 42  1  0
  4 43  1  0
  4 44  1  0
  5 45  1  0
  5 46  1  0
  6 47  1  0
  6 48  1  0
  7 49  1  6
  8 50  1  0
  8 51  1  0
  8 52  1  0
  9 53  1  1
 10 54  1  0
 10 55  1  0
 11 56  1  0
 11 57  1  0
 12 58  1  6
 13 59  1  6
 14 60  1  0
 14 61  1  0
 15 62  1  0
 15 63  1  0
 16 64  1  1
 17 65  1  0
 17 66  1  0
 21 67  1  0
 23 68  1  0
 24 69  1  0
 25 70  1  0
 27 71  1  0
 27 72  1  0
 28 73  1  0
 28 74  1  0
 30 75  1  0
 30 76  1  0
 30 77  1  0
 31 78  1  1
 32 79  1  0
 32 80  1  0
 33 81  1  0
 33 82  1  0
 35 83  1  0
 35 84  1  0
 35 85  1  0
M  END
>  <Binding energies>  (1) 
[-6.37]

>  <Ligand effiencies>  (1) 
[-0.17216216216216215]

>  <Interactions>  (1) 
["V-B:GLU:543:C:9874, V-B:GLU:543:CB:9878, V-B:ALA:541:CB:9864, V-B:TYR:539:CE2:9848, V-A:TYR:484:CE2:4346, V-A:LEU:475:CG:4257, V-B:GLU:543:CG:9879, V-A:HIS:456:CD2:4068, V-A:HIS:456:CB:4065, H-B:ALA:541:N:9863, V-A:LEU:475:CD1:4258, V-A:GLU:543:CD:4908, V-A:TYR:484:CZ:4347, V-A:ARG:545:CG:4922, V-B:HIS:456:CE1:9041, V-B:GLU:543:CA:9876, V-A:HIS:456:CE1:4070, V-B:GLY:544:C:9884, V-A:PRO:482:CB:4326, V-B:GLY:544:CA:9886, V-B:TYR:539:CD2:9846, V-B:GLU:543:CD:9880, V-A:LEU:475:CD2:4259, V-A:HIS:456:CG:4066, V-A:GLU:543:CB:4906, V-A:HIS:383:NE2:3394"]

$$$$
ZINC2162310452
     RDKit          3D

 53 55  0  0  0  0  0  0  0  0999 V2000
  128.0370  129.0330   67.3850 C   0  0  0  0  0  0  0  0  0  0  0  0
  128.6940  127.7800   66.8270 C   0  0  0  0  0  0  0  0  0  0  0  0
  128.7910  127.6050   65.4470 C   0  0  0  0  0  0  0  0  0  0  0  0
  129.3890  126.4660   64.8760 C   0  0  0  0  0  0  0  0  0  0  0  0
  129.4380  126.3700   63.3830 N   0  0  0  0  0  0  0  0  0  0  0  0
  130.4850  126.5750   62.7780 O   0  0  0  0  0  0  0  0  0  0  0  0
  128.4070  126.0780   62.7840 O   0  0  0  0  0  0  0  0  0  0  0  0
  129.9100  125.4740   65.7490 C   0  0  0  0  0  0  0  0  0  0  0  0
  130.5340  124.3150   65.2390 N   0  0  0  0  0  0  0  0  0  0  0  0
  130.2930  123.7580   63.9120 C   0  0  2  0  0  0  0  0  0  0  0  0
  129.2300  122.6430   64.0710 C   0  0  0  0  0  0  0  0  0  0  0  0
  129.0130  122.0900   62.7200 N   0  0  0  0  0  0  0  0  0  0  0  0
  127.9470  122.4960   61.8980 C   0  0  0  0  0  0  0  0  0  0  0  0
  126.8440  122.8690   62.3070 O   0  0  0  0  0  0  0  0  0  0  0  0
  128.2830  122.4380   60.5700 O   0  0  0  0  0  0  0  0  0  0  0  0
  127.8590  123.3630   59.5520 C   0  0  0  0  0  0  0  0  0  0  0  0
  127.9860  122.7410   58.1400 C   0  0  0  0  0  0  0  0  0  0  0  0
  126.4200  123.8700   59.8120 C   0  0  0  0  0  0  0  0  0  0  0  0
  128.8470  124.5410   59.6790 C   0  0  0  0  0  0  0  0  0  0  0  0
  130.1380  121.3520   62.1260 C   0  0  0  0  0  0  0  0  0  0  0  0
  131.3380  122.3310   62.0800 C   0  0  0  0  0  0  0  0  0  0  0  0
  132.5280  121.9540   61.2250 C   0  0  0  0  0  0  0  0  0  0  0  0
  131.5980  123.0570   60.7750 C   0  0  0  0  0  0  0  0  0  0  0  0
  131.6000  123.1010   63.3960 C   0  0  0  0  0  0  0  0  0  0  0  0
  129.8050  125.6630   67.1380 C   0  0  0  0  0  0  0  0  0  0  0  0
  129.2050  126.7970   67.6760 C   0  0  0  0  0  0  0  0  0  0  0  0
  129.1040  126.9670   69.5730 Br  0  0  0  0  0  0  0  0  0  0  0  0
  128.0553  128.9981   68.4843 H   0  0  0  0  0  0  0  0  0  0  0  0
  128.5857  129.9207   67.0371 H   0  0  0  0  0  0  0  0  0  0  0  0
  126.9948  129.0865   67.0371 H   0  0  0  0  0  0  0  0  0  0  0  0
  128.3867  128.3829   64.7826 H   0  0  0  0  0  0  0  0  0  0  0  0
  131.3590  123.9950   65.7270 H   0  0  0  0  0  0  0  0  0  0  0  0
  129.9627  124.5410   63.2136 H   0  0  0  0  0  0  0  0  0  0  0  0
  129.5971  121.8593   64.7500 H   0  0  0  0  0  0  0  0  0  0  0  0
  128.2962  123.0357   64.4997 H   0  0  0  0  0  0  0  0  0  0  0  0
  128.2053  121.6669   58.2309 H   0  0  0  0  0  0  0  0  0  0  0  0
  127.0415  122.8774   57.5929 H   0  0  0  0  0  0  0  0  0  0  0  0
  128.8015  123.2367   57.5929 H   0  0  0  0  0  0  0  0  0  0  0  0
  126.2434  123.9322   60.8959 H   0  0  0  0  0  0  0  0  0  0  0  0
  126.2954  124.8662   59.3624 H   0  0  0  0  0  0  0  0  0  0  0  0
  125.6985  123.1720   59.3624 H   0  0  0  0  0  0  0  0  0  0  0  0
  129.0270  124.7556   60.7428 H   0  0  0  0  0  0  0  0  0  0  0  0
  129.7974  124.2765   59.1924 H   0  0  0  0  0  0  0  0  0  0  0  0
  128.4211  125.4309   59.1924 H   0  0  0  0  0  0  0  0  0  0  0  0
  130.3862  120.4769   62.7446 H   0  0  0  0  0  0  0  0  0  0  0  0
  129.8851  120.9885   61.1191 H   0  0  0  0  0  0  0  0  0  0  0  0
  133.5463  122.1973   61.5625 H   0  0  0  0  0  0  0  0  0  0  0  0
  132.8987  121.0197   60.7781 H   0  0  0  0  0  0  0  0  0  0  0  0
  131.9391  124.1027   60.7858 H   0  0  0  0  0  0  0  0  0  0  0  0
  131.0116  123.2578   59.8662 H   0  0  0  0  0  0  0  0  0  0  0  0
  131.9773  122.4008   64.1558 H   0  0  0  0  0  0  0  0  0  0  0  0
  132.3424  123.8898   63.2043 H   0  0  0  0  0  0  0  0  0  0  0  0
  130.2070  124.8957   67.8159 H   0  0  0  0  0  0  0  0  0  0  0  0
  1  2  1  0
  2  3  2  0
  3  4  1  0
  4  5  1  0
  5  6  2  0
  5  7  1  0
  4  8  2  0
  8  9  1  0
  9 10  1  0
 10 11  1  0
 11 12  1  0
 12 13  1  0
 13 14  2  0
 13 15  1  0
 15 16  1  0
 16 17  1  0
 16 18  1  0
 16 19  1  0
 12 20  1  0
 20 21  1  0
 21 22  1  0
 22 23  1  0
 21 24  1  0
  8 25  1  0
 25 26  2  0
 26 27  1  0
 26  2  1  0
 24 10  1  0
 23 21  1  0
  1 28  1  0
  1 29  1  0
  1 30  1  0
  3 31  1  0
  9 32  1  0
 10 33  1  6
 11 34  1  0
 11 35  1  0
 17 36  1  0
 17 37  1  0
 17 38  1  0
 18 39  1  0
 18 40  1  0
 18 41  1  0
 19 42  1  0
 19 43  1  0
 19 44  1  0
 20 45  1  0
 20 46  1  0
 22 47  1  0
 22 48  1  0
 23 49  1  0
 23 50  1  0
 24 51  1  0
 24 52  1  0
 25 53  1  0
M  CHG  2   5   1   7  -1
M  END
>  <Binding energies>  (1) 
[-7.31]

>  <Ligand effiencies>  (1) 
[-0.26107142857142857]

>  <Interactions>  (1) 
["V-B:PRO:540:CA:9855, V-B:GLU:543:CB:9878, V-B:ALA:541:CB:9864, V-B:TYR:539:CE2:9848, V-A:TYR:484:CE2:4346, V-B:GLU:543:CG:9879, V-B:TYR:539:C:9839, V-B:TYR:539:CZ:9849, H-B:ALA:541:N:9863, V-A:TYR:484:CZ:4347, V-A:GLU:543:CD:4908, V-B:PRO:540:CB:9857, V-B:HIS:456:CE1:9041, V-B:PRO:540:N:9856, V-A:HIS:456:CE1:4070, V-B:TYR:539:CD2:9846, V-A:GLU:543:CG:4907, V-B:GLU:543:CD:9880, V-A:LEU:475:CD2:4259, H-A:ARG:545:NH2:4928, V-B:TYR:539:CG:9844, V-A:GLU:543:CB:4906, V-B:PRO:540:C:9853, V-B:ALA:541:CA:9862, H-A:TYR:484:OH:4348"]

$$$$
ZINC2162386002
     RDKit          3D

 53 55  0  0  0  0  0  0  0  0999 V2000
  134.2770  124.3430   58.9550 C   0  0  0  0  0  0  0  0  0  0  0  0
  133.4360  124.7940   60.1390 C   0  0  0  0  0  0  0  0  0  0  0  0
  133.7870  124.3970   61.4280 C   0  0  0  0  0  0  0  0  0  0  0  0
  133.0450  124.7840   62.5600 C   0  0  0  0  0  0  0  0  0  0  0  0
  133.5070  124.3060   63.9020 N   0  0  0  0  0  0  0  0  0  0  0  0
  134.0880  125.1020   64.6350 O   0  0  0  0  0  0  0  0  0  0  0  0
  133.3060  123.1490   64.2550 O   0  0  0  0  0  0  0  0  0  0  0  0
  131.9000  125.6030   62.3630 C   0  0  0  0  0  0  0  0  0  0  0  0
  131.1130  126.0160   63.4590 N   0  0  0  0  0  0  0  0  0  0  0  0
  130.0340  125.2600   64.1110 C   0  0  1  0  0  0  0  0  0  0  0  0
  129.2570  124.3190   63.1500 C   0  0  0  0  0  0  0  0  0  0  0  0
  129.2350  122.9280   63.7990 C   0  0  0  0  0  0  0  0  0  0  0  0
  129.6930  123.1270   65.2430 C   0  0  0  0  0  0  0  0  0  0  0  0
  130.6350  124.3390   65.1820 C   0  0  2  0  0  0  0  0  0  0  0  0
  130.6870  125.1660   66.4720 C   0  0  0  0  0  0  0  0  0  0  0  0
  129.6830  126.2130   66.2720 N   0  0  0  0  0  0  0  0  0  0  0  0
  129.2760  127.1310   67.2450 C   0  0  0  0  0  0  0  0  0  0  0  0
  128.3450  127.9270   67.1120 O   0  0  0  0  0  0  0  0  0  0  0  0
  130.0500  127.0290   68.3710 O   0  0  0  0  0  0  0  0  0  0  0  0
  129.8580  127.7710   69.5900 C   0  0  0  0  0  0  0  0  0  0  0  0
  129.1110  129.1020   69.3290 C   0  0  0  0  0  0  0  0  0  0  0  0
  129.1240  126.9220   70.6560 C   0  0  0  0  0  0  0  0  0  0  0  0
  131.2880  128.0780   70.0790 C   0  0  0  0  0  0  0  0  0  0  0  0
  129.1020  126.1860   64.9320 C   0  0  0  0  0  0  0  0  0  0  0  0
  131.5610  125.9960   61.0600 C   0  0  0  0  0  0  0  0  0  0  0  0
  132.3120  125.6020   59.9580 C   0  0  0  0  0  0  0  0  0  0  0  0
  131.7720  126.1860   58.2240 Br  0  0  0  0  0  0  0  0  0  0  0  0
  135.1914  123.8526   59.3203 H   0  0  0  0  0  0  0  0  0  0  0  0
  133.6995  123.6335   58.3441 H   0  0  0  0  0  0  0  0  0  0  0  0
  134.5484  125.2166   58.3441 H   0  0  0  0  0  0  0  0  0  0  0  0
  134.6733  123.7601   61.5654 H   0  0  0  0  0  0  0  0  0  0  0  0
  131.2630  126.9570   63.7980 H   0  0  0  0  0  0  0  0  0  0  0  0
  128.2296  124.6867   63.0110 H   0  0  0  0  0  0  0  0  0  0  0  0
  129.7405  124.2824   62.1626 H   0  0  0  0  0  0  0  0  0  0  0  0
  128.2171  122.5117   63.7753 H   0  0  0  0  0  0  0  0  0  0  0  0
  129.8890  122.2242   63.2633 H   0  0  0  0  0  0  0  0  0  0  0  0
  128.8343  123.3341   65.8986 H   0  0  0  0  0  0  0  0  0  0  0  0
  130.1860  122.2333   65.6533 H   0  0  0  0  0  0  0  0  0  0  0  0
  131.6537  123.9713   64.9895 H   0  0  0  0  0  0  0  0  0  0  0  0
  130.4335  124.5446   67.3436 H   0  0  0  0  0  0  0  0  0  0  0  0
  131.6886  125.5764   66.6677 H   0  0  0  0  0  0  0  0  0  0  0  0
  128.8486  129.5696   70.2894 H   0  0  0  0  0  0  0  0  0  0  0  0
  129.7601  129.7805   68.7561 H   0  0  0  0  0  0  0  0  0  0  0  0
  128.1937  128.9014   68.7561 H   0  0  0  0  0  0  0  0  0  0  0  0
  129.4172  127.2612   71.6605 H   0  0  0  0  0  0  0  0  0  0  0  0
  128.0371  127.0381   70.5325 H   0  0  0  0  0  0  0  0  0  0  0  0
  129.3960  125.8633   70.5325 H   0  0  0  0  0  0  0  0  0  0  0  0
  131.3065  128.0820   71.1788 H   0  0  0  0  0  0  0  0  0  0  0  0
  131.9773  127.3074   69.7035 H   0  0  0  0  0  0  0  0  0  0  0  0
  131.6002  129.0636   69.7035 H   0  0  0  0  0  0  0  0  0  0  0  0
  128.0805  125.7790   64.9614 H   0  0  0  0  0  0  0  0  0  0  0  0
  129.0271  127.1919   64.4932 H   0  0  0  0  0  0  0  0  0  0  0  0
  130.6775  126.6329   60.9057 H   0  0  0  0  0  0  0  0  0  0  0  0
  1  2  1  0
  2  3  2  0
  3  4  1  0
  4  5  1  0
  5  6  2  0
  5  7  1  0
  4  8  2  0
  8  9  1  0
 10  9  1  6
 10 11  1  0
 11 12  1  0
 12 13  1  0
 13 14  1  0
 14 15  1  0
 15 16  1  0
 16 17  1  0
 17 18  2  0
 17 19  1  0
 19 20  1  0
 20 21  1  0
 20 22  1  0
 20 23  1  0
 16 24  1  0
  8 25  1  0
 25 26  2  0
 26 27  1  0
 26  2  1  0
 14 10  1  0
 24 10  1  0
  1 28  1  0
  1 29  1  0
  1 30  1  0
  3 31  1  0
  9 32  1  0
 11 33  1  0
 11 34  1  0
 12 35  1  0
 12 36  1  0
 13 37  1  0
 13 38  1  0
 14 39  1  6
 15 40  1  0
 15 41  1  0
 21 42  1  0
 21 43  1  0
 21 44  1  0
 22 45  1  0
 22 46  1  0
 22 47  1  0
 23 48  1  0
 23 49  1  0
 23 50  1  0
 24 51  1  0
 24 52  1  0
 25 53  1  0
M  CHG  2   5   1   7  -1
M  END
>  <Binding energies>  (1) 
[-7.74]

>  <Ligand effiencies>  (1) 
[-0.2764285714285714]

>  <Interactions>  (1) 
["V-A:ILE:369:CG2:3237, V-A:ASP:366:CA:3210, V-A:ARG:545:CA:4919, V-A:GLU:543:CA:4904, V-A:GLY:454:CA:4049, V-B:HIS:456:CD2:9039, H-A:GLU:543:OE2:4910, V-A:ILE:369:CB:3236, V-A:GLU:543:C:4902, V-B:GLU:543:CB:9878, V-B:ALA:541:CB:9864, H-A:ARG:545:NH1:4927, V-A:TYR:484:CE2:4346, V-B:GLU:543:CG:9879, V-A:GLY:544:C:4912, V-A:ASP:366:CG:3213, V-A:TYR:484:CZ:4347, V-A:GLU:543:CD:4908, V-B:HIS:456:CE1:9041, H-A:GLY:454:N:4050, V-A:HIS:456:CE1:4070, V-A:ILE:369:CD1:3239, V-A:ASP:366:C:3208, V-B:GLU:543:CD:9880, V-A:ASP:366:CB:3212, H-A:ARG:545:NH2:4928, V-A:ARG:545:CZ:4926, H-A:GLU:543:OE1:4909, V-A:GLU:543:CB:4906, H-A:ARG:545:NE:4924, H-A:TYR:484:OH:4348"]

$$$$
ZINC2162612
     RDKit          3D

 48 51  0  0  0  0  0  0  0  0999 V2000
  129.8140  126.2730   73.6690 O   0  0  0  0  0  0  0  0  0  0  0  0
  128.7430  126.7520   73.3080 N   0  0  0  0  0  0  0  0  0  0  0  0
  127.9540  126.1560   72.5820 O   0  0  0  0  0  0  0  0  0  0  0  0
  128.3850  128.1020   73.8020 C   0  0  0  0  0  0  0  0  0  0  0  0
  127.3230  128.2400   74.7070 C   0  0  0  0  0  0  0  0  0  0  0  0
  126.9630  129.4900   75.2030 C   0  0  0  0  0  0  0  0  0  0  0  0
  127.6680  130.6240   74.8090 C   0  0  0  0  0  0  0  0  0  0  0  0
  128.7300  130.5100   73.9130 C   0  0  0  0  0  0  0  0  0  0  0  0
  129.5950  131.9370   73.4590 Cl  0  0  0  0  0  0  0  0  0  0  0  0
  129.0860  129.2560   73.3950 C   0  0  0  0  0  0  0  0  0  0  0  0
  130.1530  129.1640   72.5250 O   0  0  0  0  0  0  0  0  0  0  0  0
  130.0290  128.5240   71.3060 C   0  0  0  0  0  0  0  0  0  0  0  0
  131.2030  128.3030   70.5870 C   0  0  0  0  0  0  0  0  0  0  0  0
  131.1650  127.6580   69.3550 C   0  0  0  0  0  0  0  0  0  0  0  0
  129.9510  127.2210   68.8090 C   0  0  0  0  0  0  0  0  0  0  0  0
  129.9100  126.5240   67.4860 C   0  0  0  0  0  0  0  0  0  0  0  0
  130.6520  125.3550   67.2690 C   0  0  0  0  0  0  0  0  0  0  0  0
  130.6200  124.7090   66.0360 C   0  0  0  0  0  0  0  0  0  0  0  0
  129.8550  125.2220   64.9900 C   0  0  0  0  0  0  0  0  0  0  0  0
  129.8770  124.5250   63.7970 O   0  0  0  0  0  0  0  0  0  0  0  0
  130.6860  124.9350   62.7600 C   0  0  0  0  0  0  0  0  0  0  0  0
  130.1000  125.5660   61.6530 C   0  0  0  0  0  0  0  0  0  0  0  0
  128.3900  125.8120   61.5800 Cl  0  0  0  0  0  0  0  0  0  0  0  0
  130.8950  126.0120   60.5970 C   0  0  0  0  0  0  0  0  0  0  0  0
  132.2750  125.8310   60.6380 C   0  0  0  0  0  0  0  0  0  0  0  0
  132.8630  125.1990   61.7320 C   0  0  0  0  0  0  0  0  0  0  0  0
  132.0810  124.7380   62.8010 C   0  0  0  0  0  0  0  0  0  0  0  0
  132.7350  124.0550   63.9390 N   0  0  0  0  0  0  0  0  0  0  0  0
  133.5660  124.6740   64.5980 O   0  0  0  0  0  0  0  0  0  0  0  0
  132.3990  122.9020   64.1910 O   0  0  0  0  0  0  0  0  0  0  0  0
  129.1030  126.3850   65.1990 C   0  0  0  0  0  0  0  0  0  0  0  0
  129.1320  127.0260   66.4340 C   0  0  0  0  0  0  0  0  0  0  0  0
  128.7740  127.4480   69.5340 C   0  0  0  0  0  0  0  0  0  0  0  0
  128.8080  128.0880   70.7700 C   0  0  0  0  0  0  0  0  0  0  0  0
  126.7663  127.3478   75.0297 H   0  0  0  0  0  0  0  0  0  0  0  0
  126.1219  129.5816   75.9059 H   0  0  0  0  0  0  0  0  0  0  0  0
  127.3868  131.6110   75.2051 H   0  0  0  0  0  0  0  0  0  0  0  0
  132.1662  128.6411   70.9969 H   0  0  0  0  0  0  0  0  0  0  0  0
  132.1007  127.4888   68.8021 H   0  0  0  0  0  0  0  0  0  0  0  0
  131.2670  124.9429   68.0826 H   0  0  0  0  0  0  0  0  0  0  0  0
  131.2023  123.7878   65.8865 H   0  0  0  0  0  0  0  0  0  0  0  0
  130.4312  126.5071   59.7311 H   0  0  0  0  0  0  0  0  0  0  0  0
  132.9012  126.1870   59.8066 H   0  0  0  0  0  0  0  0  0  0  0  0
  133.9539  125.0600   61.7574 H   0  0  0  0  0  0  0  0  0  0  0  0
  128.4872  126.7932   64.3840 H   0  0  0  0  0  0  0  0  0  0  0  0
  128.5366  127.9383   66.5863 H   0  0  0  0  0  0  0  0  0  0  0  0
  127.8099  127.1161   69.1212 H   0  0  0  0  0  0  0  0  0  0  0  0
  127.8744  128.2523   71.3281 H   0  0  0  0  0  0  0  0  0  0  0  0
  1  2  2  0
  2  3  1  0
  2  4  1  0
  4  5  2  0
  5  6  1  0
  6  7  2  0
  7  8  1  0
  8  9  1  0
  8 10  2  0
 10 11  1  0
 11 12  1  0
 12 13  2  0
 13 14  1  0
 14 15  2  0
 15 16  1  0
 16 17  2  0
 17 18  1  0
 18 19  2  0
 19 20  1  0
 20 21  1  0
 21 22  2  0
 22 23  1  0
 22 24  1  0
 24 25  2  0
 25 26  1  0
 26 27  2  0
 27 28  1  0
 28 29  2  0
 28 30  1  0
 19 31  1  0
 31 32  2  0
 15 33  1  0
 33 34  2  0
 10  4  1  0
 34 12  1  0
 32 16  1  0
 27 21  1  0
  5 35  1  0
  6 36  1  0
  7 37  1  0
 13 38  1  0
 14 39  1  0
 17 40  1  0
 18 41  1  0
 24 42  1  0
 25 43  1  0
 26 44  1  0
 31 45  1  0
 32 46  1  0
 33 47  1  0
 34 48  1  0
M  CHG  4   2   1   3  -1  28   1  30  -1
M  END
>  <Binding energies>  (1) 
[-8.01]

>  <Ligand effiencies>  (1) 
[-0.23558823529411765]

>  <Interactions>  (1) 
["V-A:ARG:545:CA:4919, V-B:HIS:456:CD2:9039, V-A:GLU:543:C:4902, V-B:GLU:543:CB:9878, H-B:LYS:547:NZ:9923, V-B:HIS:456:CB:9036, V-A:TYR:484:CE2:4346, V-A:GLY:544:CA:4914, V-A:GLY:544:C:4912, V-B:GLU:543:CG:9879, V-A:ASP:366:CG:3213, V-B:LYS:547:CE:9922, V-A:GLU:543:CD:4908, V-A:TYR:484:CZ:4347, V-B:HIS:456:CE1:9041, V-A:ARG:545:CG:4922, H-A:GLY:454:N:4050, V-A:HIS:456:CE1:4070, V-B:GLU:543:CD:9880, V-A:ASP:366:CB:3212, H-A:LYS:547:NZ:4951, H-A:ARG:545:NH2:4928, V-A:GLU:543:CB:4906, V-A:LYS:547:CE:4950, H-A:ARG:545:NE:4924, H-A:TYR:484:OH:4348"]

$$$$
ZINC2163068131
     RDKit          3D

 38 39  0  0  0  0  0  0  0  0999 V2000
  128.0190  129.9200   66.2460 C   0  0  0  0  0  0  0  0  0  0  0  0
  128.1800  128.9660   67.4360 C   0  0  0  0  0  0  0  0  0  0  0  0
  127.9430  127.5970   66.9950 N   0  0  0  0  0  0  0  0  0  0  0  0
  128.9040  126.6550   67.5710 C   0  0  1  0  0  0  0  0  0  0  0  0
  129.8450  126.1810   66.4580 C   0  0  0  0  0  0  0  0  0  0  0  0
  131.0330  125.4980   66.7340 C   0  0  0  0  0  0  0  0  0  0  0  0
  131.8680  125.0910   65.6990 C   0  0  0  0  0  0  0  0  0  0  0  0
  131.5460  125.3560   64.3560 C   0  0  0  0  0  0  0  0  0  0  0  0
  132.4040  124.9420   63.2980 N   0  0  0  0  0  0  0  0  0  0  0  0
  132.2110  125.4700   61.9470 C   0  0  0  0  0  0  0  0  0  0  0  0
  133.1490  123.6870   63.4090 C   0  0  0  0  0  0  0  0  0  0  0  0
  130.3530  126.0530   64.0960 C   0  0  0  0  0  0  0  0  0  0  0  0
  129.5170  126.4610   65.1310 C   0  0  0  0  0  0  0  0  0  0  0  0
  129.6380  127.2070   68.7990 C   0  0  0  0  0  0  0  0  0  0  0  0
  131.3210  127.7010   68.7750 S   0  0  0  0  0  0  0  0  0  0  0  0
  131.2870  128.1370   70.4440 C   0  0  0  0  0  0  0  0  0  0  0  0
  130.0460  127.9150   71.0100 C   0  0  0  0  0  0  0  0  0  0  0  0
  129.6560  128.2790   72.8370 Br  0  0  0  0  0  0  0  0  0  0  0  0
  129.1260  127.3930   70.0890 C   0  0  0  0  0  0  0  0  0  0  0  0
  127.3260  126.9660   70.5500 Br  0  0  0  0  0  0  0  0  0  0  0  0
  127.8466  130.9416   66.6157 H   0  0  0  0  0  0  0  0  0  0  0  0
  128.9331  129.9008   65.6344 H   0  0  0  0  0  0  0  0  0  0  0  0
  127.1618  129.6019   65.6344 H   0  0  0  0  0  0  0  0  0  0  0  0
  129.2002  129.0504   67.8385 H   0  0  0  0  0  0  0  0  0  0  0  0
  127.4544  129.2303   68.2194 H   0  0  0  0  0  0  0  0  0  0  0  0
  127.0090  127.3230   67.2670 H   0  0  0  0  0  0  0  0  0  0  0  0
  128.3587  125.7869   67.9698 H   0  0  0  0  0  0  0  0  0  0  0  0
  131.3092  125.2811   67.7764 H   0  0  0  0  0  0  0  0  0  0  0  0
  132.7973  124.5519   65.9352 H   0  0  0  0  0  0  0  0  0  0  0  0
  131.8339  126.5016   62.0069 H   0  0  0  0  0  0  0  0  0  0  0  0
  133.1706  125.4610   61.4093 H   0  0  0  0  0  0  0  0  0  0  0  0
  131.4834  124.8443   61.4093 H   0  0  0  0  0  0  0  0  0  0  0  0
  133.2955  123.4402   64.4709 H   0  0  0  0  0  0  0  0  0  0  0  0
  132.5834  122.8803   62.9198 H   0  0  0  0  0  0  0  0  0  0  0  0
  134.1280  123.7973   62.9198 H   0  0  0  0  0  0  0  0  0  0  0  0
  130.0755  126.2798   63.0560 H   0  0  0  0  0  0  0  0  0  0  0  0
  128.5908  127.0082   64.9013 H   0  0  0  0  0  0  0  0  0  0  0  0
  132.1500  128.5431   70.9920 H   0  0  0  0  0  0  0  0  0  0  0  0
  1  2  1  0
  2  3  1  0
  3  4  1  0
  4  5  1  0
  5  6  2  0
  6  7  1  0
  7  8  2  0
  8  9  1  0
  9 10  1  0
  9 11  1  0
  8 12  1  0
 12 13  2  0
  4 14  1  0
 14 15  1  0
 15 16  1  0
 16 17  2  0
 17 18  1  0
 17 19  1  0
 19 20  1  0
 13  5  1  0
 19 14  2  0
  1 21  1  0
  1 22  1  0
  1 23  1  0
  2 24  1  0
  2 25  1  0
  3 26  1  0
  4 27  1  1
  6 28  1  0
  7 29  1  0
 10 30  1  0
 10 31  1  0
 10 32  1  0
 11 33  1  0
 11 34  1  0
 11 35  1  0
 12 36  1  0
 13 37  1  0
 16 38  1  0
M  END
>  <Binding energies>  (1) 
[-6.03]

>  <Ligand effiencies>  (1) 
[-0.28714285714285714]

>  <Interactions>  (1) 
["V-A:ARG:545:CA:4919, V-A:GLY:454:CA:4049, V-B:GLU:543:C:9874, V-A:GLU:543:C:4902, V-B:GLU:543:CB:9878, V-A:GLY:544:CA:4914, V-B:GLU:543:CG:9879, V-A:GLY:544:C:4912, V-A:ASP:366:CG:3213, V-B:TYR:484:CE2:9317, V-A:GLU:543:CD:4908, V-A:TYR:484:CZ:4347, V-A:ARG:545:CG:4922, V-B:HIS:456:CE1:9041, V-B:TYR:484:CZ:9318, V-A:HIS:456:CE1:4070, V-B:GLY:544:C:9884, V-B:GLY:544:CA:9886, V-A:GLU:543:CG:4907, V-B:GLU:543:CD:9880, V-A:ARG:545:CZ:4926, V-A:GLU:543:CB:4906, H-B:GLU:543:OE2:9882"]

$$$$
ZINC2163104181
     RDKit          3D

 37 38  0  0  0  0  0  0  0  0999 V2000
  129.4820  122.2240   65.0150 C   0  0  0  0  0  0  0  0  0  0  0  0
  130.4690  122.9790   64.1080 C   0  0  0  0  0  0  0  0  0  0  0  0
  131.1120  124.1330   64.7510 N   0  0  0  0  0  0  0  0  0  0  0  0
  132.4520  124.4970   64.2710 C   0  0  0  0  0  0  0  0  0  0  0  0
  133.3630  125.1000   65.3530 C   0  0  0  0  0  0  0  0  0  0  0  0
  130.3810  124.9910   65.6270 C   0  0  0  0  0  0  0  0  0  0  0  0
  130.2560  124.7010   66.9960 C   0  0  0  0  0  0  0  0  0  0  0  0
  129.5440  125.5380   67.8520 C   0  0  0  0  0  0  0  0  0  0  0  0
  128.9230  126.6920   67.3660 C   0  0  0  0  0  0  0  0  0  0  0  0
  128.1410  127.6440   68.2880 C   0  0  1  0  0  0  0  0  0  0  0  0
  126.7610  127.7090   67.9720 O   0  0  0  0  0  0  0  0  0  0  0  0
  128.2750  127.3790   69.7860 C   0  0  0  0  0  0  0  0  0  0  0  0
  127.2230  126.9510   70.5930 C   0  0  0  0  0  0  0  0  0  0  0  0
  127.6530  126.7330   72.2540 S   0  0  0  0  0  0  0  0  0  0  0  0
  129.2740  127.2140   71.9000 C   0  0  0  0  0  0  0  0  0  0  0  0
  130.5690  127.2700   73.2950 Br  0  0  0  0  0  0  0  0  0  0  0  0
  129.4510  127.5240   70.5560 C   0  0  0  0  0  0  0  0  0  0  0  0
  131.1270  128.0970   69.8480 Br  0  0  0  0  0  0  0  0  0  0  0  0
  129.0560  127.0020   66.0090 C   0  0  0  0  0  0  0  0  0  0  0  0
  129.7690  126.1650   65.1550 C   0  0  0  0  0  0  0  0  0  0  0  0
  129.7324  122.4155   66.0689 H   0  0  0  0  0  0  0  0  0  0  0  0
  128.4583  122.5717   64.8123 H   0  0  0  0  0  0  0  0  0  0  0  0
  129.5496  121.1450   64.8123 H   0  0  0  0  0  0  0  0  0  0  0  0
  131.2549  122.2769   63.7928 H   0  0  0  0  0  0  0  0  0  0  0  0
  129.8858  123.3715   63.2619 H   0  0  0  0  0  0  0  0  0  0  0  0
  132.9360  123.5911   63.8772 H   0  0  0  0  0  0  0  0  0  0  0  0
  132.3145  125.2726   63.5031 H   0  0  0  0  0  0  0  0  0  0  0  0
  132.9717  124.8410   66.3479 H   0  0  0  0  0  0  0  0  0  0  0  0
  134.3803  124.6963   65.2426 H   0  0  0  0  0  0  0  0  0  0  0  0
  133.3888  126.1941   65.2426 H   0  0  0  0  0  0  0  0  0  0  0  0
  130.7301  123.7944   67.4001 H   0  0  0  0  0  0  0  0  0  0  0  0
  129.4698  125.2884   68.9207 H   0  0  0  0  0  0  0  0  0  0  0  0
  128.6291  128.6082   68.0829 H   0  0  0  0  0  0  0  0  0  0  0  0
  126.6320  127.3590   67.0870 H   0  0  0  0  0  0  0  0  0  0  0  0
  126.2090  126.7680   70.2079 H   0  0  0  0  0  0  0  0  0  0  0  0
  128.5923  127.9171   65.6120 H   0  0  0  0  0  0  0  0  0  0  0  0
  129.8551  126.4275   64.0903 H   0  0  0  0  0  0  0  0  0  0  0  0
  1  2  1  0
  2  3  1  0
  3  4  1  0
  4  5  1  0
  3  6  1  0
  6  7  2  0
  7  8  1  0
  8  9  2  0
  9 10  1  0
 10 11  1  0
 10 12  1  0
 12 13  2  0
 13 14  1  0
 14 15  1  0
 15 16  1  0
 15 17  2  0
 17 18  1  0
  9 19  1  0
 19 20  2  0
 20  6  1  0
 17 12  1  0
  1 21  1  0
  1 22  1  0
  1 23  1  0
  2 24  1  0
  2 25  1  0
  4 26  1  0
  4 27  1  0
  5 28  1  0
  5 29  1  0
  5 30  1  0
  7 31  1  0
  8 32  1  0
 10 33  1  1
 11 34  1  0
 13 35  1  0
 19 36  1  0
 20 37  1  0
M  END
>  <Binding energies>  (1) 
[-6.74]

>  <Ligand effiencies>  (1) 
[-0.320952380952381]

>  <Interactions>  (1) 
["V-A:GLU:543:CA:4904, V-B:GLU:543:C:9874, V-B:HIS:456:CD2:9039, V-A:GLU:543:C:4902, V-B:GLU:543:CB:9878, V-B:ALA:541:CB:9864, V-A:TYR:484:CE2:4346, V-B:GLU:543:CG:9879, V-A:GLY:544:C:4912, V-A:HIS:456:CD2:4068, V-B:LYS:547:CE:9922, V-A:TYR:484:CZ:4347, V-A:GLU:543:CD:4908, V-B:HIS:456:CE1:9041, V-B:GLU:543:CA:9876, V-A:HIS:456:CE1:4070, V-B:GLY:544:C:9884, V-B:GLY:544:CA:9886, V-B:GLU:543:CD:9880, V-A:ARG:545:CD:4923, V-A:LEU:475:CD2:4259, V-A:ARG:545:CZ:4926, V-A:GLU:543:CB:4906, H-B:GLU:543:OE2:9882"]

$$$$
ZINC2172636410
     RDKit          3D

 60 62  0  0  0  0  0  0  0  0999 V2000
  126.0010  122.9430   57.2490 C   0  0  0  0  0  0  0  0  0  0  0  0
  125.7360  123.9370   58.3970 C   0  0  0  0  0  0  0  0  0  0  0  0
  125.4650  125.3520   57.8440 C   0  0  0  0  0  0  0  0  0  0  0  0
  126.8370  123.8850   59.5020 C   0  0  1  0  0  0  0  0  0  0  0  0
  126.3880  123.1950   60.8210 C   0  0  0  0  0  0  0  0  0  0  0  0
  127.4840  123.2570   61.9090 C   0  0  0  0  0  0  0  0  0  0  0  0
  128.8250  122.6560   61.4210 C   0  0  1  0  0  0  0  0  0  0  0  0
  128.7830  121.1190   61.2930 C   0  0  0  0  0  0  0  0  0  0  0  0
  129.2550  123.3660   60.1140 C   0  0  0  0  0  0  0  0  0  0  0  0
  128.1730  123.2560   59.0120 C   0  0  2  0  0  0  0  0  0  0  0  0
  128.6440  123.9440   57.8440 O   0  0  0  0  0  0  0  0  0  0  0  0
  129.1760  125.2220   57.9040 C   0  0  0  0  0  0  0  0  0  0  0  0
  128.5400  126.2310   57.1800 C   0  0  0  0  0  0  0  0  0  0  0  0
  129.0640  127.5250   57.2200 C   0  0  0  0  0  0  0  0  0  0  0  0
  130.2120  127.7900   57.9740 C   0  0  0  0  0  0  0  0  0  0  0  0
  130.8390  129.2400   58.0310 B   0  0  0  0  0  0  0  0  0  0  0  0
  130.6110  130.2200   57.0930 O   0  0  0  0  0  0  0  0  0  0  0  0
  131.1030  131.4400   57.6320 C   0  0  0  0  0  0  0  0  0  0  0  0
  131.5950  132.3070   56.4530 C   0  0  0  0  0  0  0  0  0  0  0  0
  129.8970  132.1210   58.3360 C   0  0  0  0  0  0  0  0  0  0  0  0
  132.2310  130.9190   58.5910 C   0  0  0  0  0  0  0  0  0  0  0  0
  133.5780  130.5700   57.9010 C   0  0  0  0  0  0  0  0  0  0  0  0
  132.4760  131.7890   59.8430 C   0  0  0  0  0  0  0  0  0  0  0  0
  131.6790  129.6840   59.0260 O   0  0  0  0  0  0  0  0  0  0  0  0
  130.7880  126.7250   58.6740 C   0  0  0  0  0  0  0  0  0  0  0  0
  130.2890  125.4640   58.6530 N   0  0  0  0  0  0  0  0  0  0  0  0
  126.2630  121.9603   57.6680 H   0  0  0  0  0  0  0  0  0  0  0  0
  125.0967  122.8483   56.6299 H   0  0  0  0  0  0  0  0  0  0  0  0
  126.8324  123.3111   56.6299 H   0  0  0  0  0  0  0  0  0  0  0  0
  124.8170  123.6243   58.9144 H   0  0  0  0  0  0  0  0  0  0  0  0
  125.3307  126.0532   58.6808 H   0  0  0  0  0  0  0  0  0  0  0  0
  126.3177  125.6746   57.2285 H   0  0  0  0  0  0  0  0  0  0  0  0
  124.5534  125.3368   57.2285 H   0  0  0  0  0  0  0  0  0  0  0  0
  127.0136  124.9466   59.7295 H   0  0  0  0  0  0  0  0  0  0  0  0
  125.4858  123.6999   61.1966 H   0  0  0  0  0  0  0  0  0  0  0  0
  126.1885  122.1361   60.5997 H   0  0  0  0  0  0  0  0  0  0  0  0
  127.6474  124.3084   62.1881 H   0  0  0  0  0  0  0  0  0  0  0  0
  127.1406  122.6639   62.7694 H   0  0  0  0  0  0  0  0  0  0  0  0
  129.5938  122.8427   62.1853 H   0  0  0  0  0  0  0  0  0  0  0  0
  128.7707  120.6677   62.2961 H   0  0  0  0  0  0  0  0  0  0  0  0
  127.8764  120.8213   60.7458 H   0  0  0  0  0  0  0  0  0  0  0  0
  129.6720  120.7722   60.7458 H   0  0  0  0  0  0  0  0  0  0  0  0
  129.4352  124.4294   60.3301 H   0  0  0  0  0  0  0  0  0  0  0  0
  130.1676  122.8752   59.7448 H   0  0  0  0  0  0  0  0  0  0  0  0
  127.9864  122.1979   58.7762 H   0  0  0  0  0  0  0  0  0  0  0  0
  127.6401  126.0108   56.5870 H   0  0  0  0  0  0  0  0  0  0  0  0
  128.5745  128.3349   56.6592 H   0  0  0  0  0  0  0  0  0  0  0  0
  132.1027  133.2017   56.8426 H   0  0  0  0  0  0  0  0  0  0  0  0
  132.2975  131.7252   55.8382 H   0  0  0  0  0  0  0  0  0  0  0  0
  130.7353  132.6118   55.8382 H   0  0  0  0  0  0  0  0  0  0  0  0
  130.0216  132.0506   59.4267 H   0  0  0  0  0  0  0  0  0  0  0  0
  129.8494  133.1793   58.0399 H   0  0  0  0  0  0  0  0  0  0  0  0
  128.9662  131.6152   58.0399 H   0  0  0  0  0  0  0  0  0  0  0  0
  134.3420  130.3721   58.6672 H   0  0  0  0  0  0  0  0  0  0  0  0
  133.4477  129.6760   57.2735 H   0  0  0  0  0  0  0  0  0  0  0  0
  133.8983  131.4148   57.2735 H   0  0  0  0  0  0  0  0  0  0  0  0
  132.3062  131.1862   60.7473 H   0  0  0  0  0  0  0  0  0  0  0  0
  133.5127  132.1568   59.8368 H   0  0  0  0  0  0  0  0  0  0  0  0
  131.7836  132.6437   59.8368 H   0  0  0  0  0  0  0  0  0  0  0  0
  131.6908  126.9198   59.2714 H   0  0  0  0  0  0  0  0  0  0  0  0
  1  2  1  0
  2  3  1  0
  2  4  1  0
  4  5  1  0
  5  6  1  0
  6  7  1  0
  7  8  1  0
  7  9  1  0
  9 10  1  0
 10 11  1  0
 11 12  1  0
 12 13  2  0
 13 14  1  0
 14 15  2  0
 15 16  1  0
 16 17  1  0
 17 18  1  0
 18 19  1  0
 18 20  1  0
 18 21  1  0
 21 22  1  0
 21 23  1  0
 21 24  1  0
 15 25  1  0
 25 26  2  0
 10  4  1  0
 26 12  1  0
 24 16  1  0
  1 27  1  0
  1 28  1  0
  1 29  1  0
  2 30  1  0
  3 31  1  0
  3 32  1  0
  3 33  1  0
  4 34  1  1
  5 35  1  0
  5 36  1  0
  6 37  1  0
  6 38  1  0
  7 39  1  1
  8 40  1  0
  8 41  1  0
  8 42  1  0
  9 43  1  0
  9 44  1  0
 10 45  1  6
 13 46  1  0
 14 47  1  0
 19 48  1  0
 19 49  1  0
 19 50  1  0
 20 51  1  0
 20 52  1  0
 20 53  1  0
 22 54  1  0
 22 55  1  0
 22 56  1  0
 23 57  1  0
 23 58  1  0
 23 59  1  0
 25 60  1  0
M  END
>  <Binding energies>  (1) 
[-6.55]

>  <Ligand effiencies>  (1) 
[-0.2519230769230769]

>  <Interactions>  (1) 
["V-B:PRO:540:CA:9855, V-A:ILE:538:CB:4862, V-B:ALA:541:CB:9864, V-B:TYR:539:CE2:9848, H-A:TYR:531:OH:4795, V-B:TYR:539:C:9839, V-A:ASP:366:CG:3213, V-A:ILE:538:CG2:4863, V-A:LEU:363:CD1:3189, V-B:TYR:539:CZ:9849, V-A:TYR:531:CE2:4793, V-B:TYR:531:CZ:9766, H-B:TYR:539:OH:9850, V-B:TYR:531:CE2:9765, V-B:PRO:540:CB:9857, V-B:PRO:540:N:9856, V-B:TYR:539:CD2:9846, V-B:PRO:540:CD:9859, V-B:GLU:543:CD:9880, V-A:ASP:366:CB:3212, V-A:LEU:363:CA:3185, V-A:PRO:540:CA:4883, V-A:PRO:540:CB:4885, V-B:PRO:540:C:9853, V-B:ALA:541:CA:9862"]

$$$$
ZINC217630578
     RDKit          3D

 61 65  0  0  0  0  0  0  0  0999 V2000
  131.4970  129.1740   58.2270 C   0  0  0  0  0  0  0  0  0  0  0  0
  129.9740  129.2030   58.1070 C   0  0  0  0  0  0  0  0  0  0  0  0
  129.2480  128.2120   58.7790 C   0  0  0  0  0  0  0  0  0  0  0  0
  127.8550  128.1570   58.7030 C   0  0  0  0  0  0  0  0  0  0  0  0
  127.0980  127.0850   59.4540 C   0  0  0  0  0  0  0  0  0  0  0  0
  126.8040  127.2940   60.6350 O   0  0  0  0  0  0  0  0  0  0  0  0
  126.7510  125.9370   58.8010 N   0  0  0  0  0  0  0  0  0  0  0  0
  127.5860  125.3560   57.7400 C   0  0  0  0  0  0  0  0  0  0  0  0
  128.6730  124.4900   58.4210 C   0  0  0  0  0  0  0  0  0  0  0  0
  128.1660  123.4050   59.4300 C   0  0  0  0  0  0  0  0  0  0  0  0
  127.5600  122.3820   58.6550 O   0  0  0  0  0  0  0  0  0  0  0  0
  129.3640  122.8830   60.2710 C   0  0  0  0  0  0  0  0  0  0  0  0
  129.5400  121.5220   60.5840 C   0  0  0  0  0  0  0  0  0  0  0  0
  130.6210  121.0890   61.3510 C   0  0  0  0  0  0  0  0  0  0  0  0
  131.5560  122.0060   61.8190 C   0  0  0  0  0  0  0  0  0  0  0  0
  131.4120  123.3560   61.5150 C   0  0  0  0  0  0  0  0  0  0  0  0
  132.3270  124.2450   61.9660 F   0  0  0  0  0  0  0  0  0  0  0  0
  130.3310  123.7930   60.7470 C   0  0  0  0  0  0  0  0  0  0  0  0
  130.2380  125.1150   60.4650 F   0  0  0  0  0  0  0  0  0  0  0  0
  126.9910  124.0150   60.2770 C   0  0  0  0  0  0  0  0  0  0  0  0
  125.9810  124.8980   59.5020 C   0  0  0  0  0  0  0  0  0  0  0  0
  127.1890  129.1430   57.9700 C   0  0  0  0  0  0  0  0  0  0  0  0
  127.9060  130.1330   57.3020 C   0  0  0  0  0  0  0  0  0  0  0  0
  129.3110  130.1910   57.3440 C   0  0  0  0  0  0  0  0  0  0  0  0
  130.0450  131.1590   56.6940 N   0  0  0  0  0  0  0  0  0  0  0  0
  129.9960  132.6860   57.0570 S   0  0  0  0  0  0  0  0  0  0  0  0
  131.3260  133.3040   56.9950 O   0  0  0  0  0  0  0  0  0  0  0  0
  128.8470  133.3530   56.4350 O   0  0  0  0  0  0  0  0  0  0  0  0
  129.5940  132.6510   58.8320 C   0  0  0  0  0  0  0  0  0  0  0  0
  128.3330  133.0240   59.3240 C   0  0  0  0  0  0  0  0  0  0  0  0
  128.0420  132.9920   60.6840 C   0  0  0  0  0  0  0  0  0  0  0  0
  128.9990  132.5850   61.6070 C   0  0  0  0  0  0  0  0  0  0  0  0
  130.2820  132.2000   61.1650 C   0  0  0  0  0  0  0  0  0  0  0  0
  131.2080  131.8060   62.0870 N   0  0  0  0  0  0  0  0  0  0  0  0
  132.4310  131.4440   61.6290 C   0  0  0  0  0  0  0  0  0  0  0  0
  132.7440  131.4700   60.2740 C   0  0  0  0  0  0  0  0  0  0  0  0
  131.8380  131.8570   59.3420 N   0  0  0  0  0  0  0  0  0  0  0  0
  130.5920  132.2310   59.7670 C   0  0  0  0  0  0  0  0  0  0  0  0
  131.7810  129.1686   59.2897 H   0  0  0  0  0  0  0  0  0  0  0  0
  131.8861  128.2683   57.7389 H   0  0  0  0  0  0  0  0  0  0  0  0
  131.9203  130.0642   57.7389 H   0  0  0  0  0  0  0  0  0  0  0  0
  129.7855  127.4624   59.3783 H   0  0  0  0  0  0  0  0  0  0  0  0
  126.9693  124.7311   57.0773 H   0  0  0  0  0  0  0  0  0  0  0  0
  128.0479  126.1494   57.1340 H   0  0  0  0  0  0  0  0  0  0  0  0
  129.2351  123.9739   57.6287 H   0  0  0  0  0  0  0  0  0  0  0  0
  129.2721  125.1907   59.0211 H   0  0  0  0  0  0  0  0  0  0  0  0
  128.0100  121.5540   58.8400 H   0  0  0  0  0  0  0  0  0  0  0  0
  128.8104  120.7855   60.2163 H   0  0  0  0  0  0  0  0  0  0  0  0
  130.7344  120.0205   61.5863 H   0  0  0  0  0  0  0  0  0  0  0  0
  132.4066  121.6651   62.4275 H   0  0  0  0  0  0  0  0  0  0  0  0
  126.4325  123.1810   60.7270 H   0  0  0  0  0  0  0  0  0  0  0  0
  127.4690  124.6837   61.0080 H   0  0  0  0  0  0  0  0  0  0  0  0
  125.4272  124.2858   58.7750 H   0  0  0  0  0  0  0  0  0  0  0  0
  125.2542  125.3524   60.1914 H   0  0  0  0  0  0  0  0  0  0  0  0
  126.0901  129.1373   57.9202 H   0  0  0  0  0  0  0  0  0  0  0  0
  127.3575  130.8918   56.7246 H   0  0  0  0  0  0  0  0  0  0  0  0
  127.5560  133.3496   58.6167 H   0  0  0  0  0  0  0  0  0  0  0  0
  127.0431  133.2922   61.0333 H   0  0  0  0  0  0  0  0  0  0  0  0
  128.7561  132.5633   62.6796 H   0  0  0  0  0  0  0  0  0  0  0  0
  133.1974  131.1206   62.3488 H   0  0  0  0  0  0  0  0  0  0  0  0
  133.7514  131.1692   59.9503 H   0  0  0  0  0  0  0  0  0  0  0  0
  1  2  1  0
  2  3  2  0
  3  4  1  0
  4  5  1  0
  5  6  2  0
  5  7  1  0
  7  8  1  0
  8  9  1  0
  9 10  1  0
 10 11  1  0
 10 12  1  0
 12 13  2  0
 13 14  1  0
 14 15  2  0
 15 16  1  0
 16 17  1  0
 16 18  2  0
 18 19  1  0
 10 20  1  0
 20 21  1  0
  4 22  2  0
 22 23  1  0
 23 24  2  0
 24 25  1  0
 25 26  1  0
 26 27  2  0
 26 28  2  0
 26 29  1  0
 29 30  2  0
 30 31  1  0
 31 32  2  0
 32 33  1  0
 33 34  2  0
 34 35  1  0
 35 36  2  0
 36 37  1  0
 37 38  2  0
 24  2  1  0
 38 29  1  0
 21  7  1  0
 38 33  1  0
 18 12  1  0
  1 39  1  0
  1 40  1  0
  1 41  1  0
  3 42  1  0
  8 43  1  0
  8 44  1  0
  9 45  1  0
  9 46  1  0
 11 47  1  0
 13 48  1  0
 14 49  1  0
 15 50  1  0
 20 51  1  0
 20 52  1  0
 21 53  1  0
 21 54  1  0
 22 55  1  0
 23 56  1  0
 30 57  1  0
 31 58  1  0
 32 59  1  0
 35 60  1  0
 36 61  1  0
M  CHG  1  25  -1
M  END
>  <Binding energies>  (1) 
[-8.14]

>  <Ligand effiencies>  (1) 
[-0.20871794871794874]

>  <Interactions>  (1) 
["V-B:PRO:540:CA:9855, H-A:ALA:541:N:4891, V-A:PRO:540:C:4881, V-B:TYR:539:CE2:9848, V-B:TYR:539:C:9839, V-A:ASP:366:CG:3213, V-A:TYR:539:CD1:4873, V-B:TYR:539:CZ:9849, V-B:TYR:539:CD2:9846, V-A:MET:535:CE:4835, V-A:TYR:539:C:4867, V-A:ASP:366:CB:3212, V-A:LEU:475:CD2:4259, V-A:PRO:540:N:4884, H-A:TYR:539:N:4870, V-A:PRO:540:CB:4885, V-A:PRO:540:CA:4883, H-B:TYR:539:O:9840, V-A:TYR:539:CE1:4875"]

$$$$
ZINC217719638
     RDKit          3D

 64 67  0  0  0  0  0  0  0  0999 V2000
  126.9430  122.4030   56.5220 C   0  0  0  0  0  0  0  0  0  0  0  0
  127.0210  123.2290   57.8150 C   0  0  0  0  0  0  0  0  0  0  0  0
  126.9120  124.5240   57.5110 F   0  0  0  0  0  0  0  0  0  0  0  0
  125.9820  122.9240   58.5940 F   0  0  0  0  0  0  0  0  0  0  0  0
  128.3450  122.9630   58.5640 C   0  0  0  0  0  0  0  0  0  0  0  0
  128.1540  122.4570   60.0110 C   0  0  0  0  0  0  0  0  0  0  0  0
  127.8070  123.5530   61.0490 C   0  0  0  0  0  0  0  0  0  0  0  0
  126.6590  123.2900   61.8400 O   0  0  0  0  0  0  0  0  0  0  0  0
  128.8990  123.6820   62.1650 C   0  0  0  0  0  0  0  0  0  0  0  0
  128.9760  125.0270   62.9280 C   0  0  0  0  0  0  0  0  0  0  0  0
  128.9150  126.1060   61.9360 N   0  0  0  0  0  0  0  0  0  0  0  0
  130.0510  126.5500   61.3280 C   0  0  0  0  0  0  0  0  0  0  0  0
  131.1690  126.0960   61.5810 O   0  0  0  0  0  0  0  0  0  0  0  0
  129.9390  127.6510   60.2970 C   0  0  0  0  0  0  0  0  0  0  0  0
  128.9640  128.6360   60.4780 C   0  0  0  0  0  0  0  0  0  0  0  0
  128.8230  129.6730   59.5620 C   0  0  0  0  0  0  0  0  0  0  0  0
  129.6370  129.7630   58.4310 C   0  0  0  0  0  0  0  0  0  0  0  0
  129.4390  130.8270   57.5850 N   0  0  0  0  0  0  0  0  0  0  0  0
  130.4380  132.0340   57.4770 S   0  0  0  0  0  0  0  0  0  0  0  0
  131.4130  131.8360   56.3970 O   0  0  0  0  0  0  0  0  0  0  0  0
  129.7490  133.3220   57.6140 O   0  0  0  0  0  0  0  0  0  0  0  0
  131.4140  131.8760   59.0040 C   0  0  0  0  0  0  0  0  0  0  0  0
  132.7840  131.5660   58.9920 C   0  0  0  0  0  0  0  0  0  0  0  0
  133.5140  131.4490   60.1690 C   0  0  0  0  0  0  0  0  0  0  0  0
  132.9080  131.6340   61.4050 C   0  0  0  0  0  0  0  0  0  0  0  0
  131.5330  131.9470   61.4750 C   0  0  0  0  0  0  0  0  0  0  0  0
  130.9550  132.1260   62.6970 N   0  0  0  0  0  0  0  0  0  0  0  0
  129.6330  132.4260   62.7270 C   0  0  0  0  0  0  0  0  0  0  0  0
  128.8850  132.5500   61.5620 C   0  0  0  0  0  0  0  0  0  0  0  0
  129.4390  132.3760   60.3370 N   0  0  0  0  0  0  0  0  0  0  0  0
  130.7720  132.0720   60.2670 C   0  0  0  0  0  0  0  0  0  0  0  0
  130.5960  128.7530   58.2430 C   0  0  0  0  0  0  0  0  0  0  0  0
  130.7530  127.6880   59.1470 C   0  0  0  0  0  0  0  0  0  0  0  0
  131.6740  126.6670   58.9600 O   0  0  0  0  0  0  0  0  0  0  0  0
  131.5130  125.7410   57.8890 C   0  0  0  0  0  0  0  0  0  0  0  0
  132.5590  125.7790   57.0640 F   0  0  0  0  0  0  0  0  0  0  0  0
  131.4150  124.5140   58.3990 F   0  0  0  0  0  0  0  0  0  0  0  0
  127.5890  126.1850   61.3070 C   0  0  0  0  0  0  0  0  0  0  0  0
  127.4220  124.9330   60.4140 C   0  0  0  0  0  0  0  0  0  0  0  0
  126.8423  121.3369   56.7735 H   0  0  0  0  0  0  0  0  0  0  0  0
  126.0712  122.7248   55.9334 H   0  0  0  0  0  0  0  0  0  0  0  0
  127.8596  122.5559   55.9334 H   0  0  0  0  0  0  0  0  0  0  0  0
  128.9136  122.2057   58.0043 H   0  0  0  0  0  0  0  0  0  0  0  0
  128.8742  123.9251   58.6291 H   0  0  0  0  0  0  0  0  0  0  0  0
  127.3385  121.7188   60.0092 H   0  0  0  0  0  0  0  0  0  0  0  0
  129.1230  122.0379   60.3198 H   0  0  0  0  0  0  0  0  0  0  0  0
  126.4580  124.0750   62.3530 H   0  0  0  0  0  0  0  0  0  0  0  0
  128.7096  122.8915   62.9062 H   0  0  0  0  0  0  0  0  0  0  0  0
  129.8586  123.6026   61.6331 H   0  0  0  0  0  0  0  0  0  0  0  0
  128.1297  125.1111   63.6256 H   0  0  0  0  0  0  0  0  0  0  0  0
  129.9089  125.0885   63.5077 H   0  0  0  0  0  0  0  0  0  0  0  0
  128.3009  128.5905   61.3545 H   0  0  0  0  0  0  0  0  0  0  0  0
  128.0528  130.4397   59.7323 H   0  0  0  0  0  0  0  0  0  0  0  0
  133.2912  131.4122   58.0281 H   0  0  0  0  0  0  0  0  0  0  0  0
  134.5859  131.2067   60.1210 H   0  0  0  0  0  0  0  0  0  0  0  0
  133.4984  131.5368   62.3280 H   0  0  0  0  0  0  0  0  0  0  0  0
  129.1396  132.5752   63.6987 H   0  0  0  0  0  0  0  0  0  0  0  0
  127.8154  132.7958   61.6360 H   0  0  0  0  0  0  0  0  0  0  0  0
  131.2467  128.7974   57.3572 H   0  0  0  0  0  0  0  0  0  0  0  0
  130.6080  126.0073   57.3232 H   0  0  0  0  0  0  0  0  0  0  0  0
  126.8070  126.2016   62.0804 H   0  0  0  0  0  0  0  0  0  0  0  0
  127.4988  127.1029   60.7076 H   0  0  0  0  0  0  0  0  0  0  0  0
  126.3652  124.8775   60.1138 H   0  0  0  0  0  0  0  0  0  0  0  0
  128.1311  125.0752   59.5852 H   0  0  0  0  0  0  0  0  0  0  0  0
  1  2  1  0
  2  3  1  0
  2  4  1  0
  2  5  1  0
  5  6  1  0
  6  7  1  0
  7  8  1  0
  7  9  1  0
  9 10  1  0
 10 11  1  0
 11 12  1  0
 12 13  2  0
 12 14  1  0
 14 15  2  0
 15 16  1  0
 16 17  2  0
 17 18  1  0
 18 19  1  0
 19 20  2  0
 19 21  2  0
 19 22  1  0
 22 23  2  0
 23 24  1  0
 24 25  2  0
 25 26  1  0
 26 27  2  0
 27 28  1  0
 28 29  2  0
 29 30  1  0
 30 31  2  0
 17 32  1  0
 32 33  2  0
 33 34  1  0
 34 35  1  0
 35 36  1  0
 35 37  1  0
 11 38  1  0
 38 39  1  0
 39  7  1  0
 33 14  1  0
 31 22  1  0
 31 26  1  0
  1 40  1  0
  1 41  1  0
  1 42  1  0
  5 43  1  0
  5 44  1  0
  6 45  1  0
  6 46  1  0
  8 47  1  0
  9 48  1  0
  9 49  1  0
 10 50  1  0
 10 51  1  0
 15 52  1  0
 16 53  1  0
 23 54  1  0
 24 55  1  0
 25 56  1  0
 28 57  1  0
 29 58  1  0
 32 59  1  0
 35 60  1  0
 38 61  1  0
 38 62  1  0
 39 63  1  0
 39 64  1  0
M  CHG  1  18  -1
M  END
>  <Binding energies>  (1) 
[-7.46]

>  <Ligand effiencies>  (1) 
[-0.1865]

>  <Interactions>  (1) 
["V-B:PRO:540:CA:9855, H-A:ALA:541:N:4891, V-A:PRO:540:C:4881, V-B:TYR:539:CE2:9848, V-B:GLU:543:CG:9879, V-B:TYR:539:C:9839, V-A:ASP:366:CG:3213, V-A:ASN:362:CB:3176, V-A:LEU:363:CD1:3189, V-A:LEU:363:CB:3187, V-B:TYR:539:CZ:9849, H-B:GLU:543:OE1:9881, V-A:ALA:541:CB:4892, H-B:ALA:541:N:9863, V-B:PRO:540:CB:9857, V-B:PRO:540:N:9856, V-A:ASP:366:C:3208, V-A:ALA:541:CA:4890, V-B:TYR:539:CD2:9846, V-B:PRO:540:CD:9859, V-A:TYR:531:CZ:4794, V-B:GLU:543:CD:9880, V-A:ASP:366:CB:3212, V-A:ASN:362:C:3172, V-B:TYR:539:CG:9844, V-B:TYR:539:CD1:9845, V-B:PRO:540:CG:9858, H-A:TYR:539:N:4870, V-A:PRO:540:CB:4885, V-A:PRO:540:CA:4883, V-A:LEU:363:CA:3185, V-B:PRO:540:C:9853, V-B:TYR:539:CE1:9847"]

$$$$
ZINC217792084
     RDKit          3D

 58 62  0  0  0  0  0  0  0  0999 V2000
  132.3700  130.7640   61.9110 N   0  0  0  0  0  0  0  0  0  0  0  0
  131.2100  131.4700   61.7890 C   0  0  0  0  0  0  0  0  0  0  0  0
  130.6450  131.7420   60.6500 N   0  0  0  0  0  0  0  0  0  0  0  0
  129.4950  132.4560   60.8150 C   0  0  0  0  0  0  0  0  0  0  0  0
  128.6460  132.9030   59.7790 C   0  0  0  0  0  0  0  0  0  0  0  0
  129.0510  132.5380   58.0530 S   0  0  0  0  0  0  0  0  0  0  0  0
  127.7400  132.4690   57.3980 O   0  0  0  0  0  0  0  0  0  0  0  0
  129.9520  133.6270   57.6580 O   0  0  0  0  0  0  0  0  0  0  0  0
  129.7790  131.1490   58.1510 N   0  0  0  0  0  0  0  0  0  0  0  0
  129.1150  129.9470   58.1110 C   0  0  0  0  0  0  0  0  0  0  0  0
  127.7440  129.7810   58.3690 C   0  0  0  0  0  0  0  0  0  0  0  0
  127.1440  128.5270   58.3040 C   0  0  0  0  0  0  0  0  0  0  0  0
  127.9030  127.3940   57.9910 C   0  0  0  0  0  0  0  0  0  0  0  0
  127.2690  126.0240   57.8900 C   0  0  0  0  0  0  0  0  0  0  0  0
  127.5410  125.3230   56.9110 O   0  0  0  0  0  0  0  0  0  0  0  0
  126.4060  125.6170   58.8660 N   0  0  0  0  0  0  0  0  0  0  0  0
  125.7520  124.3050   58.7670 C   0  0  0  0  0  0  0  0  0  0  0  0
  126.7230  123.2410   59.3360 C   0  0  0  0  0  0  0  0  0  0  0  0
  127.3740  123.5620   60.7290 C   0  0  0  0  0  0  0  0  0  0  0  0
  126.3660  123.2230   61.6730 O   0  0  0  0  0  0  0  0  0  0  0  0
  128.7200  122.8100   60.8750 C   0  0  0  0  0  0  0  0  0  0  0  0
  128.7600  121.5610   61.5160 C   0  0  0  0  0  0  0  0  0  0  0  0
  129.9580  120.8630   61.6590 C   0  0  0  0  0  0  0  0  0  0  0  0
  131.1410  121.4000   61.1630 C   0  0  0  0  0  0  0  0  0  0  0  0
  131.1270  122.6380   60.5240 C   0  0  0  0  0  0  0  0  0  0  0  0
  132.2800  123.1560   60.0440 F   0  0  0  0  0  0  0  0  0  0  0  0
  129.9280  123.3410   60.3790 C   0  0  0  0  0  0  0  0  0  0  0  0
  129.9580  124.5410   59.7510 F   0  0  0  0  0  0  0  0  0  0  0  0
  127.5910  125.1030   60.9310 C   0  0  0  0  0  0  0  0  0  0  0  0
  126.5460  126.0310   60.2710 C   0  0  0  0  0  0  0  0  0  0  0  0
  129.2620  127.5500   57.7080 C   0  0  0  0  0  0  0  0  0  0  0  0
  129.8550  128.8080   57.7740 C   0  0  0  0  0  0  0  0  0  0  0  0
  127.5140  133.6450   60.1510 C   0  0  0  0  0  0  0  0  0  0  0  0
  127.2180  133.9210   61.4850 C   0  0  0  0  0  0  0  0  0  0  0  0
  128.0380  133.4770   62.5180 C   0  0  0  0  0  0  0  0  0  0  0  0
  129.1800  132.7460   62.1750 C   0  0  0  0  0  0  0  0  0  0  0  0
  130.4120  132.0550   63.2230 S   0  0  0  0  0  0  0  0  0  0  0  0
  132.6460  130.3590   62.7930 H   0  0  0  0  0  0  0  0  0  0  0  0
  132.9920  130.6240   61.1280 H   0  0  0  0  0  0  0  0  0  0  0  0
  127.1333  130.6587   58.6272 H   0  0  0  0  0  0  0  0  0  0  0  0
  126.0663  128.4259   58.4999 H   0  0  0  0  0  0  0  0  0  0  0  0
  124.8190  124.3083   59.3496 H   0  0  0  0  0  0  0  0  0  0  0  0
  125.5086  124.0779   57.7186 H   0  0  0  0  0  0  0  0  0  0  0  0
  126.1647  122.2986   59.4369 H   0  0  0  0  0  0  0  0  0  0  0  0
  127.5611  123.2007   58.6246 H   0  0  0  0  0  0  0  0  0  0  0  0
  126.2650  123.9560   62.2840 H   0  0  0  0  0  0  0  0  0  0  0  0
  127.8303  121.1263   61.9118 H   0  0  0  0  0  0  0  0  0  0  0  0
  129.9677  119.8862   62.1648 H   0  0  0  0  0  0  0  0  0  0  0  0
  132.0861  120.8484   61.2750 H   0  0  0  0  0  0  0  0  0  0  0  0
  127.5832  125.3042   62.0124 H   0  0  0  0  0  0  0  0  0  0  0  0
  128.5451  125.3337   60.4346 H   0  0  0  0  0  0  0  0  0  0  0  0
  125.5799  125.9352   60.7881 H   0  0  0  0  0  0  0  0  0  0  0  0
  126.8682  127.0809   60.3336 H   0  0  0  0  0  0  0  0  0  0  0  0
  129.8671  126.6740   57.4314 H   0  0  0  0  0  0  0  0  0  0  0  0
  130.9286  128.9088   57.5565 H   0  0  0  0  0  0  0  0  0  0  0  0
  126.8403  134.0199   59.3664 H   0  0  0  0  0  0  0  0  0  0  0  0
  126.3162  134.5027   61.7265 H   0  0  0  0  0  0  0  0  0  0  0  0
  127.7961  133.6937   63.5690 H   0  0  0  0  0  0  0  0  0  0  0  0
  1  2  1  0
  2  3  2  0
  3  4  1  0
  4  5  2  0
  5  6  1  0
  6  7  2  0
  6  8  2  0
  6  9  1  0
  9 10  1  0
 10 11  2  0
 11 12  1  0
 12 13  2  0
 13 14  1  0
 14 15  2  0
 14 16  1  0
 16 17  1  0
 17 18  1  0
 18 19  1  0
 19 20  1  0
 19 21  1  0
 21 22  2  0
 22 23  1  0
 23 24  2  0
 24 25  1  0
 25 26  1  0
 25 27  2  0
 27 28  1  0
 19 29  1  0
 29 30  1  0
 13 31  1  0
 31 32  2  0
  5 33  1  0
 33 34  2  0
 34 35  1  0
 35 36  2  0
 36 37  1  0
 37  2  1  0
 36  4  1  0
 32 10  1  0
 30 16  1  0
 27 21  1  0
  1 38  1  0
  1 39  1  0
 11 40  1  0
 12 41  1  0
 17 42  1  0
 17 43  1  0
 18 44  1  0
 18 45  1  0
 20 46  1  0
 22 47  1  0
 23 48  1  0
 24 49  1  0
 29 50  1  0
 29 51  1  0
 30 52  1  0
 30 53  1  0
 31 54  1  0
 32 55  1  0
 33 56  1  0
 34 57  1  0
 35 58  1  0
M  CHG  1   9  -1
M  END
>  <Binding energies>  (1) 
[-8.74]

>  <Ligand effiencies>  (1) 
[-0.2185]

>  <Interactions>  (1) 
["V-B:PRO:540:CA:9855, V-A:ALA:541:C:4888, V-B:ALA:541:CB:9864, V-B:TYR:539:CE2:9848, V-B:LEU:475:CD2:9230, V-A:ASP:366:CG:3213, V-A:TYR:539:CD1:4873, H-B:GLU:543:OE1:9881, V-A:ALA:541:CB:4892, H-B:ALA:541:N:9863, V-A:GLU:543:CD:4908, V-B:PRO:540:CB:9857, V-B:PRO:540:N:9856, V-A:ALA:541:CA:4890, V-B:TYR:539:CD2:9846, V-A:GLU:543:CG:4907, V-A:TYR:539:C:4867, V-A:LEU:475:CD2:4259, H-A:GLU:543:OE1:4909, H-A:TYR:539:N:4870, V-A:PRO:540:CA:4883, V-B:PRO:540:C:9853, H-A:ASP:366:OD2:3215, V-B:ALA:541:CA:9862, V-A:TYR:539:CE1:4875"]

$$$$
ZINC217870648
     RDKit          3D

 60 65  0  0  0  0  0  0  0  0999 V2000
  125.7180  132.9350   62.3550 C   0  0  0  0  0  0  0  0  0  0  0  0
  126.7750  132.1700   61.7870 O   0  0  0  0  0  0  0  0  0  0  0  0
  127.2610  131.0770   62.4770 C   0  0  0  0  0  0  0  0  0  0  0  0
  127.9890  130.1410   61.7350 C   0  0  0  0  0  0  0  0  0  0  0  0
  128.5220  129.0000   62.3370 C   0  0  0  0  0  0  0  0  0  0  0  0
  128.3260  128.7900   63.7020 C   0  0  0  0  0  0  0  0  0  0  0  0
  128.8420  127.6100   64.4140 C   0  0  0  0  0  0  0  0  0  0  0  0
  128.6250  127.4170   65.7430 C   0  0  0  0  0  0  0  0  0  0  0  0
  129.1180  126.1710   66.5050 C   0  0  2  0  0  0  0  0  0  0  0  0
  128.8400  126.2650   68.0280 C   0  0  0  0  0  0  0  0  0  0  0  0
  129.8840  127.1170   68.7720 C   0  0  0  0  0  0  0  0  0  0  0  0
  129.6660  127.9400   69.6570 O   0  0  0  0  0  0  0  0  0  0  0  0
  131.1860  126.9670   68.3660 O   0  0  0  0  0  0  0  0  0  0  0  0
  131.5230  126.1920   67.2670 C   0  0  0  0  0  0  0  0  0  0  0  0
  132.8710  125.8690   67.1270 C   0  0  0  0  0  0  0  0  0  0  0  0
  133.3210  125.1770   66.0030 C   0  0  0  0  0  0  0  0  0  0  0  0
  134.6630  124.8990   65.9380 O   0  0  0  0  0  0  0  0  0  0  0  0
  132.4190  124.8090   64.9820 C   0  0  0  0  0  0  0  0  0  0  0  0
  132.8370  124.0970   63.7180 C   0  0  0  0  0  0  0  0  0  0  0  0
  133.9890  123.7320   63.4920 O   0  0  0  0  0  0  0  0  0  0  0  0
  131.7480  123.8990   62.7660 C   0  0  0  0  0  0  0  0  0  0  0  0
  130.4800  124.2850   63.0290 C   0  0  0  0  0  0  0  0  0  0  0  0
  129.3080  124.1050   62.1330 C   0  0  0  0  0  0  0  0  0  0  0  0
  129.3670  124.4380   60.7720 C   0  0  0  0  0  0  0  0  0  0  0  0
  128.2550  124.2840   59.9470 C   0  0  0  0  0  0  0  0  0  0  0  0
  127.0410  123.7950   60.4590 C   0  0  0  0  0  0  0  0  0  0  0  0
  125.8980  123.6180   59.6990 O   0  0  0  0  0  0  0  0  0  0  0  0
  125.4270  124.6870   58.8850 C   0  0  0  0  0  0  0  0  0  0  0  0
  126.9770  123.4660   61.8190 C   0  0  0  0  0  0  0  0  0  0  0  0
  125.8150  122.9850   62.3670 O   0  0  0  0  0  0  0  0  0  0  0  0
  128.0930  123.6240   62.6400 C   0  0  0  0  0  0  0  0  0  0  0  0
  130.1030  124.8350   64.2110 O   0  0  0  0  0  0  0  0  0  0  0  0
  131.0610  125.1410   65.1570 C   0  0  0  0  0  0  0  0  0  0  0  0
  130.5930  125.8200   66.2860 C   0  0  0  0  0  0  0  0  0  0  0  0
  127.8600  128.4010   66.5310 C   0  0  0  0  0  0  0  0  0  0  0  0
  127.6110  128.3030   67.7320 O   0  0  0  0  0  0  0  0  0  0  0  0
  127.4110  129.4720   65.8290 N   0  0  0  0  0  0  0  0  0  0  0  0
  127.5990  129.7160   64.4580 C   0  0  0  0  0  0  0  0  0  0  0  0
  127.0680  130.8550   63.8520 C   0  0  0  0  0  0  0  0  0  0  0  0
  125.7810  132.8894   63.4522 H   0  0  0  0  0  0  0  0  0  0  0  0
  125.8046  133.9810   62.0259 H   0  0  0  0  0  0  0  0  0  0  0  0
  124.7514  132.5259   62.0259 H   0  0  0  0  0  0  0  0  0  0  0  0
  128.1441  130.3069   60.6587 H   0  0  0  0  0  0  0  0  0  0  0  0
  129.0917  128.2726   61.7401 H   0  0  0  0  0  0  0  0  0  0  0  0
  129.4211  126.8608   63.8542 H   0  0  0  0  0  0  0  0  0  0  0  0
  128.5262  125.3547   66.0652 H   0  0  0  0  0  0  0  0  0  0  0  0
  127.8476  126.7153   68.1772 H   0  0  0  0  0  0  0  0  0  0  0  0
  128.8905  125.2455   68.4381 H   0  0  0  0  0  0  0  0  0  0  0  0
  133.5863  126.1623   67.9095 H   0  0  0  0  0  0  0  0  0  0  0  0
  135.1850  125.6410   65.6250 H   0  0  0  0  0  0  0  0  0  0  0  0
  131.9673  123.4188   61.8009 H   0  0  0  0  0  0  0  0  0  0  0  0
  130.3053  124.8266   60.3495 H   0  0  0  0  0  0  0  0  0  0  0  0
  128.3281  124.5484   58.8818 H   0  0  0  0  0  0  0  0  0  0  0  0
  125.0666  125.5049   59.5263 H   0  0  0  0  0  0  0  0  0  0  0  0
  126.2471  125.0531   58.2499 H   0  0  0  0  0  0  0  0  0  0  0  0
  124.6033  124.3289   58.2499 H   0  0  0  0  0  0  0  0  0  0  0  0
  125.4090  123.5980   62.9850 H   0  0  0  0  0  0  0  0  0  0  0  0
  128.0184  123.3660   63.7067 H   0  0  0  0  0  0  0  0  0  0  0  0
  126.8890  130.1430   66.3710 H   0  0  0  0  0  0  0  0  0  0  0  0
  126.4976  131.5804   64.4507 H   0  0  0  0  0  0  0  0  0  0  0  0
  1  2  1  0
  2  3  1  0
  3  4  2  0
  4  5  1  0
  5  6  2  0
  6  7  1  0
  7  8  2  0
  8  9  1  0
  9 10  1  0
 10 11  1  0
 11 12  2  0
 11 13  1  0
 13 14  1  0
 14 15  2  0
 15 16  1  0
 16 17  1  0
 16 18  2  0
 18 19  1  0
 19 20  2  0
 19 21  1  0
 21 22  2  0
 22 23  1  0
 23 24  2  0
 24 25  1  0
 25 26  2  0
 26 27  1  0
 27 28  1  0
 26 29  1  0
 29 30  1  0
 29 31  2  0
 22 32  1  0
 32 33  1  0
 33 34  2  0
  8 35  1  0
 35 36  2  0
 35 37  1  0
 37 38  1  0
 38 39  2  0
 39  3  1  0
 38  6  1  0
 34  9  1  0
 34 14  1  0
 33 18  1  0
 31 23  1  0
  1 40  1  0
  1 41  1  0
  1 42  1  0
  4 43  1  0
  5 44  1  0
  7 45  1  0
  9 46  1  6
 10 47  1  0
 10 48  1  0
 15 49  1  0
 17 50  1  0
 21 51  1  0
 24 52  1  0
 25 53  1  0
 28 54  1  0
 28 55  1  0
 28 56  1  0
 30 57  1  0
 31 58  1  0
 37 59  1  0
 39 60  1  0
M  END
>  <Binding energies>  (1) 
[-7.09]

>  <Ligand effiencies>  (1) 
[-0.1688095238095238]

>  <Interactions>  (1) 
["V-B:PRO:540:CA:9855, V-B:GLU:543:C:9874, V-B:GLU:543:CB:9878, H-B:ALA:541:O:9861, V-B:GLU:543:CG:9879, V-B:LEU:475:CD2:9230, H-B:GLU:543:OE1:9881, H-B:ALA:541:N:9863, V-A:GLU:543:CD:4908, V-A:TYR:484:CZ:4347, H-B:TYR:484:OH:9319, V-A:ARG:545:CG:4922, V-B:GLU:543:CA:9876, H-A:GLY:454:N:4050, V-B:HIS:456:CE1:9041, V-A:HIS:456:CE1:4070, V-B:TYR:484:CZ:9318, V-B:GLU:543:CD:9880, V-A:ARG:545:CD:4923, H-A:ILE:455:N:4055, V-A:ARG:545:CZ:4926, V-A:GLU:543:CB:4906, H-A:ARG:545:NE:4924, H-A:TYR:484:OH:4348"]

$$$$
ZINC217919755
     RDKit          3D

 62 66  0  0  0  0  0  0  0  0999 V2000
  129.3830  126.9860   68.1630 C   0  0  0  0  0  0  0  0  0  0  0  0
  130.2400  125.9040   67.8130 O   0  0  0  0  0  0  0  0  0  0  0  0
  130.6300  125.7470   66.4940 C   0  0  0  0  0  0  0  0  0  0  0  0
  129.7500  125.8350   65.4040 C   0  0  0  0  0  0  0  0  0  0  0  0
  130.2140  125.6610   64.1020 C   0  0  0  0  0  0  0  0  0  0  0  0
  131.5630  125.3890   63.8460 C   0  0  0  0  0  0  0  0  0  0  0  0
  132.0380  125.2180   62.4520 C   0  0  0  0  0  0  0  0  0  0  0  0
  133.1500  124.5490   62.0760 C   0  0  0  0  0  0  0  0  0  0  0  0
  133.5330  124.4070   60.6740 C   0  0  0  0  0  0  0  0  0  0  0  0
  134.5390  123.7940   60.3210 O   0  0  0  0  0  0  0  0  0  0  0  0
  132.5990  125.1060   59.7130 C   0  0  0  0  0  0  0  0  0  0  0  0
  132.8240  125.1750   58.3230 C   0  0  0  0  0  0  0  0  0  0  0  0
  133.9110  124.5900   57.7210 O   0  0  0  0  0  0  0  0  0  0  0  0
  131.9450  125.8770   57.4990 C   0  0  0  0  0  0  0  0  0  0  0  0
  130.8190  126.5000   58.0300 C   0  0  0  0  0  0  0  0  0  0  0  0
  130.5370  126.4130   59.4010 C   0  0  0  0  0  0  0  0  0  0  0  0
  131.4460  125.7380   60.2230 C   0  0  0  0  0  0  0  0  0  0  0  0
  131.1520  125.7490   61.5730 O   0  0  0  0  0  0  0  0  0  0  0  0
  129.2720  127.0900   59.9320 C   0  0  1  0  0  0  0  0  0  0  0  0
  129.5450  128.3780   60.7160 C   0  0  0  0  0  0  0  0  0  0  0  0
  128.7380  128.7660   61.7910 C   0  0  0  0  0  0  0  0  0  0  0  0
  128.9520  129.9840   62.4530 C   0  0  0  0  0  0  0  0  0  0  0  0
  128.1870  130.4290   63.5170 O   0  0  0  0  0  0  0  0  0  0  0  0
  127.9300  129.5500   64.6080 C   0  0  0  0  0  0  0  0  0  0  0  0
  129.9890  130.8200   62.0150 C   0  0  0  0  0  0  0  0  0  0  0  0
  130.2020  132.0220   62.6460 O   0  0  0  0  0  0  0  0  0  0  0  0
  129.1760  132.9790   62.4240 C   0  0  0  0  0  0  0  0  0  0  0  0
  130.8200  130.4430   60.9510 C   0  0  0  0  0  0  0  0  0  0  0  0
  131.8180  131.3280   60.5820 O   0  0  0  0  0  0  0  0  0  0  0  0
  132.9650  131.4730   61.4120 C   0  0  0  0  0  0  0  0  0  0  0  0
  130.5890  129.2140   60.3150 C   0  0  0  0  0  0  0  0  0  0  0  0
  128.2290  127.2530   58.8030 C   0  0  0  0  0  0  0  0  0  0  0  0
  128.8390  127.7630   57.4860 C   0  0  0  0  0  0  0  0  0  0  0  0
  128.3480  128.5910   56.7230 O   0  0  0  0  0  0  0  0  0  0  0  0
  130.0720  127.2630   57.1510 O   0  0  0  0  0  0  0  0  0  0  0  0
  132.4420  125.3150   64.9330 C   0  0  0  0  0  0  0  0  0  0  0  0
  131.9850  125.4870   66.2410 C   0  0  0  0  0  0  0  0  0  0  0  0
  132.8820  125.3970   67.2750 O   0  0  0  0  0  0  0  0  0  0  0  0
  129.3206  127.0648   69.2584 H   0  0  0  0  0  0  0  0  0  0  0  0
  129.7872  127.9222   67.7505 H   0  0  0  0  0  0  0  0  0  0  0  0
  128.3791  126.8069   67.7505 H   0  0  0  0  0  0  0  0  0  0  0  0
  128.6842  126.0433   65.5795 H   0  0  0  0  0  0  0  0  0  0  0  0
  129.5088  125.7386   63.2614 H   0  0  0  0  0  0  0  0  0  0  0  0
  133.7870  124.0970   62.8505 H   0  0  0  0  0  0  0  0  0  0  0  0
  134.6950  124.5950   58.2740 H   0  0  0  0  0  0  0  0  0  0  0  0
  132.1433  125.9391   56.4188 H   0  0  0  0  0  0  0  0  0  0  0  0
  128.8324  126.4198   60.6853 H   0  0  0  0  0  0  0  0  0  0  0  0
  127.9230  128.1056   62.1222 H   0  0  0  0  0  0  0  0  0  0  0  0
  128.0868  130.0862   65.5556 H   0  0  0  0  0  0  0  0  0  0  0  0
  126.8903  129.1946   64.5555 H   0  0  0  0  0  0  0  0  0  0  0  0
  128.6144  128.6905   64.5555 H   0  0  0  0  0  0  0  0  0  0  0  0
  128.7926  133.3366   63.3910 H   0  0  0  0  0  0  0  0  0  0  0  0
  129.5830  133.8275   61.8545 H   0  0  0  0  0  0  0  0  0  0  0  0
  128.3578  132.5140   61.8545 H   0  0  0  0  0  0  0  0  0  0  0  0
  132.6605  131.4345   62.4683 H   0  0  0  0  0  0  0  0  0  0  0  0
  133.6732  130.6572   61.2046 H   0  0  0  0  0  0  0  0  0  0  0  0
  133.4479  132.4393   61.2046 H   0  0  0  0  0  0  0  0  0  0  0  0
  131.2418  128.9035   59.4859 H   0  0  0  0  0  0  0  0  0  0  0  0
  127.7600  126.2757   58.6161 H   0  0  0  0  0  0  0  0  0  0  0  0
  127.4981  128.0037   59.1380 H   0  0  0  0  0  0  0  0  0  0  0  0
  133.5093  125.1183   64.7538 H   0  0  0  0  0  0  0  0  0  0  0  0
  132.8200  124.5700   67.7580 H   0  0  0  0  0  0  0  0  0  0  0  0
  1  2  1  0
  2  3  1  0
  3  4  2  0
  4  5  1  0
  5  6  2  0
  6  7  1  0
  7  8  2  0
  8  9  1  0
  9 10  2  0
  9 11  1  0
 11 12  2  0
 12 13  1  0
 12 14  1  0
 14 15  2  0
 15 16  1  0
 16 17  2  0
 17 18  1  0
 16 19  1  0
 19 20  1  0
 20 21  2  0
 21 22  1  0
 22 23  1  0
 23 24  1  0
 22 25  2  0
 25 26  1  0
 26 27  1  0
 25 28  1  0
 28 29  1  0
 29 30  1  0
 28 31  2  0
 19 32  1  0
 32 33  1  0
 33 34  2  0
 33 35  1  0
  6 36  1  0
 36 37  2  0
 37 38  1  0
 37  3  1  0
 18  7  1  0
 31 20  1  0
 17 11  1  0
 35 15  1  0
  1 39  1  0
  1 40  1  0
  1 41  1  0
  4 42  1  0
  5 43  1  0
  8 44  1  0
 13 45  1  0
 14 46  1  0
 19 47  1  1
 21 48  1  0
 24 49  1  0
 24 50  1  0
 24 51  1  0
 27 52  1  0
 27 53  1  0
 27 54  1  0
 30 55  1  0
 30 56  1  0
 30 57  1  0
 31 58  1  0
 32 59  1  0
 32 60  1  0
 36 61  1  0
 38 62  1  0
M  END
>  <Binding energies>  (1) 
[-6.21]

>  <Ligand effiencies>  (1) 
[-0.15525]

>  <Interactions>  (1) 
["V-A:ASP:366:CA:3210, H-A:ALA:541:N:4891, V-B:GLU:543:CB:9878, V-A:PRO:540:C:4881, H-A:TYR:531:OH:4795, V-B:TYR:539:CE2:9848, V-B:GLU:543:CG:9879, V-A:ASP:366:CG:3213, V-A:ASN:362:CB:3176, V-B:TYR:539:CZ:9849, H-B:TYR:539:OH:9850, V-A:ALA:541:CB:4892, V-A:GLU:543:CD:4908, V-A:TYR:484:CZ:4347, V-A:HIS:456:CE1:4070, V-A:ALA:541:CA:4890, V-A:TYR:531:CZ:4794, V-A:GLU:543:CG:4907, V-B:GLU:543:CD:9880, H-B:TYR:531:OH:9767, V-A:ASP:366:CB:3212, V-A:ARG:545:CZ:4926, H-A:ASP:366:O:3209, V-A:PRO:540:CB:4885, V-A:PRO:540:CA:4883, H-A:ARG:545:NE:4924, H-A:HIS:456:NE2:4071, H-A:HIS:456:ND1:4067, H-A:TYR:484:OH:4348"]

$$$$
ZINC218010804
     RDKit          3D

 32 33  0  0  0  0  0  0  0  0999 V2000
  127.8940  127.7710   73.1670 C   0  0  0  0  0  0  0  0  0  0  0  0
  128.5240  126.9150   72.0460 C   0  0  0  0  0  0  0  0  0  0  0  0
  129.9780  127.3600   71.7930 C   0  0  0  0  0  0  0  0  0  0  0  0
  128.5870  125.5810   72.5190 O   0  0  0  0  0  0  0  0  0  0  0  0
  127.7110  126.9560   70.7190 C   0  0  0  0  0  0  0  0  0  0  0  0
  128.5440  127.0230   69.5170 N   0  0  0  0  0  0  0  0  0  0  0  0
  129.1240  125.9820   68.8400 C   0  0  0  0  0  0  0  0  0  0  0  0
  129.7820  126.5310   67.7450 C   0  0  0  0  0  0  0  0  0  0  0  0
  130.5790  125.8290   66.6910 C   0  0  0  0  0  0  0  0  0  0  0  0
  129.9350  125.1680   65.6390 C   0  0  0  0  0  0  0  0  0  0  0  0
  130.6790  124.5190   64.6570 C   0  0  0  0  0  0  0  0  0  0  0  0
  132.0700  124.5280   64.7240 C   0  0  0  0  0  0  0  0  0  0  0  0
  133.0880  123.6390   63.3830 Br  0  0  0  0  0  0  0  0  0  0  0  0
  132.7230  125.1810   65.7670 C   0  0  0  0  0  0  0  0  0  0  0  0
  131.9780  125.8310   66.7480 C   0  0  0  0  0  0  0  0  0  0  0  0
  129.5060  127.9050   67.8770 C   0  0  0  0  0  0  0  0  0  0  0  0
  128.7670  128.2000   68.9210 N   0  0  0  0  0  0  0  0  0  0  0  0
  128.1906  127.3680   74.1466 H   0  0  0  0  0  0  0  0  0  0  0  0
  128.2448  128.8096   73.0763 H   0  0  0  0  0  0  0  0  0  0  0  0
  126.7981  127.7449   73.0763 H   0  0  0  0  0  0  0  0  0  0  0  0
  130.4866  127.5157   72.7558 H   0  0  0  0  0  0  0  0  0  0  0  0
  130.5053  126.5821   71.2213 H   0  0  0  0  0  0  0  0  0  0  0  0
  129.9796  128.2998   71.2213 H   0  0  0  0  0  0  0  0  0  0  0  0
  128.4280  124.9880   71.7810 H   0  0  0  0  0  0  0  0  0  0  0  0
  127.0933  126.0475   70.6626 H   0  0  0  0  0  0  0  0  0  0  0  0
  127.1072  127.8752   70.7417 H   0  0  0  0  0  0  0  0  0  0  0  0
  129.0778  124.9169   69.1109 H   0  0  0  0  0  0  0  0  0  0  0  0
  128.8362  125.1611   65.5876 H   0  0  0  0  0  0  0  0  0  0  0  0
  130.1697  124.0009   63.8311 H   0  0  0  0  0  0  0  0  0  0  0  0
  133.8219  125.1833   65.8156 H   0  0  0  0  0  0  0  0  0  0  0  0
  132.4913  126.3486   67.5718 H   0  0  0  0  0  0  0  0  0  0  0  0
  129.8758  128.6622   67.1700 H   0  0  0  0  0  0  0  0  0  0  0  0
  1  2  1  0
  2  3  1  0
  2  4  1  0
  2  5  1  0
  5  6  1  0
  6  7  1  0
  7  8  2  0
  8  9  1  0
  9 10  2  0
 10 11  1  0
 11 12  2  0
 12 13  1  0
 12 14  1  0
 14 15  2  0
  8 16  1  0
 16 17  2  0
 17  6  1  0
 15  9  1  0
  1 18  1  0
  1 19  1  0
  1 20  1  0
  3 21  1  0
  3 22  1  0
  3 23  1  0
  4 24  1  0
  5 25  1  0
  5 26  1  0
  7 27  1  0
 10 28  1  0
 11 29  1  0
 14 30  1  0
 15 31  1  0
 16 32  1  0
M  END
>  <Binding energies>  (1) 
[-5.91]

>  <Ligand effiencies>  (1) 
[-0.32833333333333337]

>  <Interactions>  (1) 
["V-A:GLY:454:CA:4049, V-B:GLU:543:C:9874, V-B:HIS:456:CD2:9039, H-B:GLU:543:O:9875, V-B:GLU:543:CB:9878, H-B:LYS:547:NZ:9923, V-B:GLU:543:CG:9879, V-A:HIS:456:CD2:4068, V-A:GLU:543:CD:4908, V-A:TYR:484:CZ:4347, V-A:ARG:545:CG:4922, V-B:GLU:543:CA:9876, V-B:HIS:456:CE1:9041, V-A:HIS:456:CE1:4070, V-B:GLY:544:C:9884, V-A:GLU:543:CG:4907, V-B:GLU:543:CD:9880, V-A:ARG:545:CD:4923, V-A:ARG:545:CZ:4926, V-A:GLU:543:CB:4906, H-A:HIS:456:NE2:4071"]

$$$$
ZINC218080286
     RDKit          3D

 68 72  0  0  0  0  0  0  0  0999 V2000
  132.1670  128.0950   69.5160 C   0  0  0  0  0  0  0  0  0  0  0  0
  130.8430  127.7610   69.1120 O   0  0  0  0  0  0  0  0  0  0  0  0
  129.8790  127.4950   70.0700 C   0  0  0  0  0  0  0  0  0  0  0  0
  130.1690  127.3130   71.4320 C   0  0  0  0  0  0  0  0  0  0  0  0
  129.1560  127.0420   72.3680 C   0  0  0  0  0  0  0  0  0  0  0  0
  129.3890  126.8500   73.7180 O   0  0  0  0  0  0  0  0  0  0  0  0
  130.7050  126.5510   74.1720 C   0  0  0  0  0  0  0  0  0  0  0  0
  127.8290  126.9530   71.9330 C   0  0  0  0  0  0  0  0  0  0  0  0
  126.8680  126.6860   72.8940 O   0  0  0  0  0  0  0  0  0  0  0  0
  126.3880  127.7430   73.7200 C   0  0  0  0  0  0  0  0  0  0  0  0
  127.5390  127.1330   70.5720 C   0  0  0  0  0  0  0  0  0  0  0  0
  128.5460  127.4110   69.6440 C   0  0  0  0  0  0  0  0  0  0  0  0
  128.2100  127.5740   68.2130 C   0  0  0  0  0  0  0  0  0  0  0  0
  128.7830  126.9960   67.1330 C   0  0  0  0  0  0  0  0  0  0  0  0
  128.3760  127.3090   65.8770 O   0  0  0  0  0  0  0  0  0  0  0  0
  129.1220  126.5880   64.9930 C   0  0  0  0  0  0  0  0  0  0  0  0
  130.0300  125.7730   65.6280 C   0  0  0  0  0  0  0  0  0  0  0  0
  130.8840  124.9570   64.8870 C   0  0  0  0  0  0  0  0  0  0  0  0
  130.8080  124.9910   63.4910 C   0  0  0  0  0  0  0  0  0  0  0  0
  129.8780  125.8240   62.8540 C   0  0  0  0  0  0  0  0  0  0  0  0
  129.0110  126.6450   63.6030 C   0  0  0  0  0  0  0  0  0  0  0  0
  128.0280  127.5420   62.8550 C   0  0  1  0  0  0  0  0  0  0  0  0
  128.4900  128.9970   62.6790 C   0  0  0  0  0  0  0  0  0  0  0  0
  129.4100  129.2960   61.6720 C   0  0  0  0  0  0  0  0  0  0  0  0
  129.8510  130.6110   61.4560 C   0  0  0  0  0  0  0  0  0  0  0  0
  130.7600  130.9700   60.4770 O   0  0  0  0  0  0  0  0  0  0  0  0
  132.0930  131.3020   60.8480 C   0  0  0  0  0  0  0  0  0  0  0  0
  129.3500  131.6340   62.2710 C   0  0  0  0  0  0  0  0  0  0  0  0
  129.7830  132.9250   62.0800 O   0  0  0  0  0  0  0  0  0  0  0  0
  128.8780  133.7360   61.3430 C   0  0  0  0  0  0  0  0  0  0  0  0
  128.4350  131.3590   63.2960 C   0  0  0  0  0  0  0  0  0  0  0  0
  128.0040  132.4260   64.0650 O   0  0  0  0  0  0  0  0  0  0  0  0
  126.6880  132.9350   63.8790 C   0  0  0  0  0  0  0  0  0  0  0  0
  128.0080  130.0350   63.4860 C   0  0  0  0  0  0  0  0  0  0  0  0
  127.6510  126.8600   61.5170 C   0  0  0  0  0  0  0  0  0  0  0  0
  128.8890  126.3830   60.7280 C   0  0  0  0  0  0  0  0  0  0  0  0
  129.0630  126.4690   59.5140 O   0  0  0  0  0  0  0  0  0  0  0  0
  129.9180  125.8560   61.4700 O   0  0  0  0  0  0  0  0  0  0  0  0
  129.8540  125.9880   67.0610 C   0  0  0  0  0  0  0  0  0  0  0  0
  130.4390  125.4620   68.0070 O   0  0  0  0  0  0  0  0  0  0  0  0
  132.2226  128.1090   70.6145 H   0  0  0  0  0  0  0  0  0  0  0  0
  132.8703  127.3461   69.1228 H   0  0  0  0  0  0  0  0  0  0  0  0
  132.4309  129.0879   69.1228 H   0  0  0  0  0  0  0  0  0  0  0  0
  131.2121  127.3841   71.7739 H   0  0  0  0  0  0  0  0  0  0  0  0
  130.7214  126.5473   75.2719 H   0  0  0  0  0  0  0  0  0  0  0  0
  131.0061  125.5615   73.7974 H   0  0  0  0  0  0  0  0  0  0  0  0
  131.4041  127.3132   73.7974 H   0  0  0  0  0  0  0  0  0  0  0  0
  126.5131  127.4676   74.7776 H   0  0  0  0  0  0  0  0  0  0  0  0
  126.9579  128.6601   73.5101 H   0  0  0  0  0  0  0  0  0  0  0  0
  125.3224  127.9174   73.5101 H   0  0  0  0  0  0  0  0  0  0  0  0
  126.4971  127.0536   70.2284 H   0  0  0  0  0  0  0  0  0  0  0  0
  127.3784  128.2609   67.9971 H   0  0  0  0  0  0  0  0  0  0  0  0
  131.6053  124.2977   65.3920 H   0  0  0  0  0  0  0  0  0  0  0  0
  131.4809  124.3614   62.8904 H   0  0  0  0  0  0  0  0  0  0  0  0
  127.1296  127.6461   63.4812 H   0  0  0  0  0  0  0  0  0  0  0  0
  129.7964  128.4859   61.0361 H   0  0  0  0  0  0  0  0  0  0  0  0
  132.1741  131.3222   61.9448 H   0  0  0  0  0  0  0  0  0  0  0  0
  132.7847  130.5487   60.4430 H   0  0  0  0  0  0  0  0  0  0  0  0
  132.3506  132.2917   60.4430 H   0  0  0  0  0  0  0  0  0  0  0  0
  128.2440  134.3041   62.0396 H   0  0  0  0  0  0  0  0  0  0  0  0
  129.4442  134.4346   60.7095 H   0  0  0  0  0  0  0  0  0  0  0  0
  128.2454  133.0969   60.7095 H   0  0  0  0  0  0  0  0  0  0  0  0
  126.2225  133.1150   64.8593 H   0  0  0  0  0  0  0  0  0  0  0  0
  126.7362  133.8794   63.3170 H   0  0  0  0  0  0  0  0  0  0  0  0
  126.0882  132.2040   63.3170 H   0  0  0  0  0  0  0  0  0  0  0  0
  127.2829  129.8094   64.2818 H   0  0  0  0  0  0  0  0  0  0  0  0
  127.0128  125.9902   61.7318 H   0  0  0  0  0  0  0  0  0  0  0  0
  127.1264  127.6034   60.8988 H   0  0  0  0  0  0  0  0  0  0  0  0
  1  2  1  0
  2  3  1  0
  3  4  2  0
  4  5  1  0
  5  6  1  0
  6  7  1  0
  5  8  2  0
  8  9  1  0
  9 10  1  0
  8 11  1  0
 11 12  2  0
 12 13  1  0
 13 14  2  0
 14 15  1  0
 15 16  1  0
 16 17  2  0
 17 18  1  0
 18 19  2  0
 19 20  1  0
 20 21  2  0
 21 22  1  0
 22 23  1  0
 23 24  2  0
 24 25  1  0
 25 26  1  0
 26 27  1  0
 25 28  2  0
 28 29  1  0
 29 30  1  0
 28 31  1  0
 31 32  1  0
 32 33  1  0
 31 34  2  0
 22 35  1  0
 35 36  1  0
 36 37  2  0
 36 38  1  0
 17 39  1  0
 39 40  2  0
 12  3  1  0
 39 14  1  0
 21 16  1  0
 34 23  1  0
 38 20  1  0
  1 41  1  0
  1 42  1  0
  1 43  1  0
  4 44  1  0
  7 45  1  0
  7 46  1  0
  7 47  1  0
 10 48  1  0
 10 49  1  0
 10 50  1  0
 11 51  1  0
 13 52  1  0
 18 53  1  0
 19 54  1  0
 22 55  1  1
 24 56  1  0
 27 57  1  0
 27 58  1  0
 27 59  1  0
 30 60  1  0
 30 61  1  0
 30 62  1  0
 33 63  1  0
 33 64  1  0
 33 65  1  0
 34 66  1  0
 35 67  1  0
 35 68  1  0
M  END
>  <Binding energies>  (1) 
[-5.85]

>  <Ligand effiencies>  (1) 
[-0.14625]

>  <Interactions>  (1) 
["V-A:ARG:545:CA:4919, V-A:GLU:543:CA:4904, V-B:HIS:456:CD2:9039, V-B:GLU:543:C:9874, V-A:GLU:543:C:4902, H-A:ALA:541:N:4891, V-B:GLU:543:CB:9878, H-B:LYS:547:NZ:9923, V-A:PRO:540:C:4881, V-B:HIS:456:CB:9036, V-A:GLY:544:CA:4914, V-B:GLU:543:CG:9879, V-A:GLY:544:C:4912, V-B:LEU:475:CD2:9230, V-A:HIS:456:CD2:4068, V-A:ALA:541:CB:4892, V-B:LYS:547:CE:9922, V-A:GLU:543:CD:4908, H-B:TYR:484:OH:9319, V-B:HIS:456:CE1:9041, V-A:ARG:545:CG:4922, V-A:HIS:456:CE1:4070, V-B:TYR:484:CZ:9318, V-B:GLY:544:C:9884, V-B:GLU:543:CD:9880, V-B:HIS:456:CG:9037, V-A:TYR:539:C:4867, V-A:ARG:545:CB:4921, V-A:GLU:543:CB:4906, V-A:PRO:540:N:4884, V-A:PRO:540:CB:4885, V-A:PRO:540:CA:4883, H-A:TYR:484:OH:4348"]

$$$$
ZINC218328499
     RDKit          3D

 41 42  0  0  0  0  0  0  0  0999 V2000
  127.4300  122.8540   63.0290 C   0  0  0  0  0  0  0  0  0  0  0  0
  128.6270  123.4350   62.8320 C   0  0  0  0  0  0  0  0  0  0  0  0
  129.5250  123.1060   61.6440 C   0  0  0  0  0  0  0  0  0  0  0  0
  130.9240  122.6900   62.1440 C   0  0  0  0  0  0  0  0  0  0  0  0
  131.5500  123.7750   63.0610 C   0  0  2  0  0  0  0  0  0  0  0  0
  133.0550  123.5750   63.4290 C   0  0  2  0  0  0  0  0  0  0  0  0
  133.9490  123.2780   62.2020 C   0  0  0  0  0  0  0  0  0  0  0  0
  133.2320  122.4680   64.3000 O   0  0  0  0  0  0  0  0  0  0  0  0
  133.5710  124.8630   64.1270 C   0  0  0  0  0  0  0  0  0  0  0  0
  132.5810  125.4110   65.1450 C   0  0  0  0  0  0  0  0  0  0  0  0
  131.2820  125.0490   65.2710 C   0  0  0  0  0  0  0  0  0  0  0  0
  130.4250  125.6140   66.4180 C   0  0  0  0  0  0  0  0  0  0  0  0
  129.8520  124.5050   67.3200 C   0  0  0  0  0  0  0  0  0  0  0  0
  129.3100  126.5800   65.9620 C   0  0  0  0  0  0  0  0  0  0  0  0
  130.6290  124.0190   64.3170 C   0  0  2  0  0  0  0  0  0  0  0  0
  130.4400  122.8240   65.0620 O   0  0  0  0  0  0  0  0  0  0  0  0
  129.2250  124.4680   63.7930 C   0  0  0  0  0  0  0  0  0  0  0  0
  126.8225  123.1289   63.9039 H   0  0  0  0  0  0  0  0  0  0  0  0
  127.0586  122.1039   62.3152 H   0  0  0  0  0  0  0  0  0  0  0  0
  129.0820  122.2791   61.0696 H   0  0  0  0  0  0  0  0  0  0  0  0
  129.6186  123.9950   61.0030 H   0  0  0  0  0  0  0  0  0  0  0  0
  130.8359  121.7513   62.7107 H   0  0  0  0  0  0  0  0  0  0  0  0
  131.5775  122.5610   61.2686 H   0  0  0  0  0  0  0  0  0  0  0  0
  131.5829  124.6939   62.4573 H   0  0  0  0  0  0  0  0  0  0  0  0
  134.9416  122.9483   62.5427 H   0  0  0  0  0  0  0  0  0  0  0  0
  133.4874  122.4849   61.5954 H   0  0  0  0  0  0  0  0  0  0  0  0
  134.0537  124.1896   61.5954 H   0  0  0  0  0  0  0  0  0  0  0  0
  132.5950  122.5420   65.0150 H   0  0  0  0  0  0  0  0  0  0  0  0
  134.5148  124.6310   64.6423 H   0  0  0  0  0  0  0  0  0  0  0  0
  133.7116  125.6301   63.3512 H   0  0  0  0  0  0  0  0  0  0  0  0
  132.9559  126.1729   65.8443 H   0  0  0  0  0  0  0  0  0  0  0  0
  131.1272  126.2171   67.0123 H   0  0  0  0  0  0  0  0  0  0  0  0
  129.9944  124.7806   68.3754 H   0  0  0  0  0  0  0  0  0  0  0  0
  128.7782  124.3834   67.1145 H   0  0  0  0  0  0  0  0  0  0  0  0
  130.3741  123.5589   67.1145 H   0  0  0  0  0  0  0  0  0  0  0  0
  128.8138  127.0099   66.8446 H   0  0  0  0  0  0  0  0  0  0  0  0
  129.7491  127.3879   65.3583 H   0  0  0  0  0  0  0  0  0  0  0  0
  128.5729  126.0303   65.3583 H   0  0  0  0  0  0  0  0  0  0  0  0
  131.2970  122.5400   65.3910 H   0  0  0  0  0  0  0  0  0  0  0  0
  128.5470  124.5932   64.6501 H   0  0  0  0  0  0  0  0  0  0  0  0
  129.3471  125.4158   63.2482 H   0  0  0  0  0  0  0  0  0  0  0  0
  1  2  2  0
  2  3  1  0
  3  4  1  0
  4  5  1  0
  5  6  1  0
  6  7  1  0
  6  8  1  1
  6  9  1  0
  9 10  1  0
 10 11  2  0
 11 12  1  0
 12 13  1  0
 12 14  1  0
 11 15  1  0
 15 16  1  1
 15 17  1  0
 17  2  1  0
 15  5  1  0
  1 18  1  0
  1 19  1  0
  3 20  1  0
  3 21  1  0
  4 22  1  0
  4 23  1  0
  5 24  1  6
  7 25  1  0
  7 26  1  0
  7 27  1  0
  8 28  1  0
  9 29  1  0
  9 30  1  0
 10 31  1  0
 12 32  1  0
 13 33  1  0
 13 34  1  0
 13 35  1  0
 14 36  1  0
 14 37  1  0
 14 38  1  0
 16 39  1  0
 17 40  1  0
 17 41  1  0
M  END
>  <Binding energies>  (1) 
[-5.56]

>  <Ligand effiencies>  (1) 
[-0.2926315789473684]

>  <Interactions>  (1) 
["V-A:ILE:369:CD1:3239, V-B:ALA:541:C:9860, V-A:GLY:454:CA:4049, V-A:HIS:456:CE1:4070, V-B:GLU:543:CB:9878, V-B:GLU:543:CD:9880, V-B:ALA:541:CB:9864, V-A:ARG:545:CZ:4926, V-A:TYR:484:CZ:4347, V-A:TYR:484:CE2:4346, V-B:ALA:541:CA:9862, V-A:GLU:543:CD:4908, V-A:LEU:475:CD2:4259, V-B:GLU:543:CG:9879, V-B:GLU:543:CA:9876, H-A:GLY:454:N:4050, H-A:TYR:484:OH:4348"]

$$$$
ZINC218484380
     RDKit          3D

 56 59  0  0  0  0  0  0  0  0999 V2000
  130.4190  123.0660   60.2450 C   0  0  0  0  0  0  0  0  0  0  0  0
  129.6640  121.8900   60.8930 C   0  0  0  0  0  0  0  0  0  0  0  0
  128.6600  122.3820   61.9570 C   0  0  0  0  0  0  0  0  0  0  0  0
  130.6420  120.7850   61.4000 C   0  0  1  0  0  0  0  0  0  0  0  0
  130.5990  119.4880   60.6080 C   0  0  0  0  0  0  0  0  0  0  0  0
  131.8920  119.3710   60.0740 O   0  0  0  0  0  0  0  0  0  0  0  0
  132.7530  120.3090   60.5070 C   0  0  0  0  0  0  0  0  0  0  0  0
  133.9330  120.3060   60.1570 O   0  0  0  0  0  0  0  0  0  0  0  0
  132.0490  121.1830   61.3530 N   0  0  0  0  0  0  0  0  0  0  0  0
  132.6230  122.2560   62.0830 C   0  0  0  0  0  0  0  0  0  0  0  0
  133.8750  122.7630   61.7010 C   0  0  0  0  0  0  0  0  0  0  0  0
  134.4070  123.8070   62.4590 C   0  0  0  0  0  0  0  0  0  0  0  0
  133.7610  124.3310   63.5300 N   0  0  0  0  0  0  0  0  0  0  0  0
  132.5530  123.7870   63.8450 C   0  0  0  0  0  0  0  0  0  0  0  0
  131.8210  124.2710   64.9440 N   0  0  0  0  0  0  0  0  0  0  0  0
  130.3600  124.4030   64.9630 C   0  0  1  0  0  0  0  0  0  0  0  0
  129.6830  123.0240   65.0240 C   0  0  0  0  0  0  0  0  0  0  0  0
  129.8660  125.3060   66.0980 C   0  0  0  0  0  0  0  0  0  0  0  0
  129.9510  124.8810   67.4280 C   0  0  0  0  0  0  0  0  0  0  0  0
  129.4840  125.7060   68.4510 C   0  0  0  0  0  0  0  0  0  0  0  0
  128.9370  126.9570   68.1170 C   0  0  0  0  0  0  0  0  0  0  0  0
  128.4490  127.8670   69.0310 O   0  0  0  0  0  0  0  0  0  0  0  0
  128.7160  127.7240   70.3710 C   0  0  0  0  0  0  0  0  0  0  0  0
  127.7700  127.1240   71.2040 C   0  0  0  0  0  0  0  0  0  0  0  0
  128.0380  126.9760   72.5620 C   0  0  0  0  0  0  0  0  0  0  0  0
  129.2530  127.4230   73.0800 C   0  0  0  0  0  0  0  0  0  0  0  0
  129.5130  127.2780   74.3980 F   0  0  0  0  0  0  0  0  0  0  0  0
  130.2030  128.0170   72.2480 C   0  0  0  0  0  0  0  0  0  0  0  0
  129.9350  128.1650   70.8900 C   0  0  0  0  0  0  0  0  0  0  0  0
  128.8720  127.3920   66.8310 N   0  0  0  0  0  0  0  0  0  0  0  0
  129.3280  126.5750   65.8500 C   0  0  0  0  0  0  0  0  0  0  0  0
  131.9620  122.7760   63.1590 N   0  0  0  0  0  0  0  0  0  0  0  0
  130.8344  123.7130   61.0316 H   0  0  0  0  0  0  0  0  0  0  0  0
  131.2367  122.6771   59.6203 H   0  0  0  0  0  0  0  0  0  0  0  0
  129.7251  123.6476   59.6203 H   0  0  0  0  0  0  0  0  0  0  0  0
  129.0550  121.4017   60.1179 H   0  0  0  0  0  0  0  0  0  0  0  0
  129.0635  122.1843   62.9610 H   0  0  0  0  0  0  0  0  0  0  0  0
  128.4957  123.4627   61.8341 H   0  0  0  0  0  0  0  0  0  0  0  0
  127.7053  121.8497   61.8341 H   0  0  0  0  0  0  0  0  0  0  0  0
  130.2826  120.6360   62.4289 H   0  0  0  0  0  0  0  0  0  0  0  0
  130.3692  118.6364   61.2652 H   0  0  0  0  0  0  0  0  0  0  0  0
  129.8199  119.4927   59.8315 H   0  0  0  0  0  0  0  0  0  0  0  0
  134.4168  122.3525   60.8361 H   0  0  0  0  0  0  0  0  0  0  0  0
  135.3867  124.2202   62.1773 H   0  0  0  0  0  0  0  0  0  0  0  0
  132.3080  124.3450   65.8250 H   0  0  0  0  0  0  0  0  0  0  0  0
  130.0736  124.8915   64.0200 H   0  0  0  0  0  0  0  0  0  0  0  0
  129.5397  122.7321   66.0748 H   0  0  0  0  0  0  0  0  0  0  0  0
  128.7062  123.0725   64.5204 H   0  0  0  0  0  0  0  0  0  0  0  0
  130.3187  122.2808   64.5204 H   0  0  0  0  0  0  0  0  0  0  0  0
  130.3850  123.8988   67.6664 H   0  0  0  0  0  0  0  0  0  0  0  0
  129.5427  125.3833   69.5010 H   0  0  0  0  0  0  0  0  0  0  0  0
  126.8154  126.7691   70.7884 H   0  0  0  0  0  0  0  0  0  0  0  0
  127.2942  126.5083   73.2238 H   0  0  0  0  0  0  0  0  0  0  0  0
  131.1596  128.3668   72.6635 H   0  0  0  0  0  0  0  0  0  0  0  0
  130.6813  128.6280   70.2277 H   0  0  0  0  0  0  0  0  0  0  0  0
  129.2728  126.9258   64.8089 H   0  0  0  0  0  0  0  0  0  0  0  0
  1  2  1  0
  2  3  1  0
  2  4  1  0
  4  5  1  0
  5  6  1  0
  6  7  1  0
  7  8  2  0
  7  9  1  0
  9 10  1  0
 10 11  2  0
 11 12  1  0
 12 13  2  0
 13 14  1  0
 14 15  1  0
 15 16  1  0
 16 17  1  0
 16 18  1  0
 18 19  2  0
 19 20  1  0
 20 21  2  0
 21 22  1  0
 22 23  1  0
 23 24  2  0
 24 25  1  0
 25 26  2  0
 26 27  1  0
 26 28  1  0
 28 29  2  0
 21 30  1  0
 30 31  2  0
 14 32  2  0
  9  4  1  0
 32 10  1  0
 31 18  1  0
 29 23  1  0
  1 33  1  0
  1 34  1  0
  1 35  1  0
  2 36  1  0
  3 37  1  0
  3 38  1  0
  3 39  1  0
  4 40  1  1
  5 41  1  0
  5 42  1  0
 11 43  1  0
 12 44  1  0
 15 45  1  0
 16 46  1  6
 17 47  1  0
 17 48  1  0
 17 49  1  0
 19 50  1  0
 20 51  1  0
 24 52  1  0
 25 53  1  0
 28 54  1  0
 29 55  1  0
 31 56  1  0
M  END
>  <Binding energies>  (1) 
[-7.88]

>  <Ligand effiencies>  (1) 
[-0.23878787878787877]

>  <Interactions>  (1) 
["V-A:ILE:369:CG2:3237, V-A:GLY:454:CA:4049, V-B:GLU:543:C:9874, V-B:HIS:456:CD2:9039, V-A:GLU:543:C:4902, V-B:GLU:543:CB:9878, V-B:ALA:541:CB:9864, V-B:TYR:539:CE2:9848, V-A:TYR:484:CE2:4346, V-B:GLU:543:CG:9879, V-A:GLY:544:C:4912, V-B:TYR:539:C:9839, V-B:LYS:547:CE:9922, V-A:TYR:484:CZ:4347, V-A:GLU:543:CD:4908, V-B:GLU:543:CA:9876, H-A:GLY:454:N:4050, V-B:HIS:456:CE1:9041, V-A:GLY:453:C:4042, V-A:ILE:369:CD1:3239, V-A:HIS:456:CE1:4070, V-B:GLY:544:C:9884, V-B:TYR:539:CD2:9846, V-A:SER:385:CB:3409, H-A:SER:385:OG:3410, V-B:GLU:543:CD:9880, V-A:LEU:475:CD2:4259, H-A:ARG:545:NH2:4928, H-A:HIS:383:HE2:3395, V-A:GLY:453:CA:4044, H-A:TYR:484:OH:4348"]

$$$$
ZINC2186631288
     RDKit          3D

 37 38  0  0  0  0  0  0  0  0999 V2000
  134.4000  124.6690   60.2290 C   0  0  0  0  0  0  0  0  0  0  0  0
  133.6090  123.7680   59.2670 C   0  0  2  0  0  0  0  0  0  0  0  0
  133.6520  124.3440   57.9740 O   0  0  0  0  0  0  0  0  0  0  0  0
  132.1830  123.5180   59.7730 C   0  0  0  0  0  0  0  0  0  0  0  0
  131.1460  124.3770   59.3830 C   0  0  0  0  0  0  0  0  0  0  0  0
  129.8450  124.1770   59.8390 C   0  0  0  0  0  0  0  0  0  0  0  0
  129.5430  123.1220   60.7060 C   0  0  0  0  0  0  0  0  0  0  0  0
  128.2100  122.9420   61.1520 N   0  0  0  0  0  0  0  0  0  0  0  0
  128.0650  122.6700   62.5850 C   0  0  0  0  0  0  0  0  0  0  0  0
  127.1690  123.8120   60.5680 C   0  0  2  0  0  0  0  0  0  0  0  0
  125.7770  123.7330   61.2350 C   0  0  0  0  0  0  0  0  0  0  0  0
  127.0550  123.6750   59.0490 C   0  0  0  0  0  0  0  0  0  0  0  0
  127.2390  122.4830   58.3440 C   0  0  0  0  0  0  0  0  0  0  0  0
  127.0570  122.6410   56.6310 S   0  0  0  0  0  0  0  0  0  0  0  0
  126.7200  124.3240   56.8260 C   0  0  0  0  0  0  0  0  0  0  0  0
  126.7550  124.7240   58.1550 C   0  0  0  0  0  0  0  0  0  0  0  0
  126.4300  126.5260   58.6820 Br  0  0  0  0  0  0  0  0  0  0  0  0
  130.5800  122.2590   61.0890 C   0  0  0  0  0  0  0  0  0  0  0  0
  131.8870  122.4530   60.6410 C   0  0  0  0  0  0  0  0  0  0  0  0
  133.2310  121.2490   61.2640 Br  0  0  0  0  0  0  0  0  0  0  0  0
  134.1605  124.3962   61.2674 H   0  0  0  0  0  0  0  0  0  0  0  0
  135.4777  124.5352   60.0540 H   0  0  0  0  0  0  0  0  0  0  0  0
  134.1278  125.7203   60.0540 H   0  0  0  0  0  0  0  0  0  0  0  0
  134.0713  122.7712   59.2157 H   0  0  0  0  0  0  0  0  0  0  0  0
  134.5260  124.7180   57.8380 H   0  0  0  0  0  0  0  0  0  0  0  0
  131.3622  125.2189   58.7089 H   0  0  0  0  0  0  0  0  0  0  0  0
  129.0448  124.8577   59.5129 H   0  0  0  0  0  0  0  0  0  0  0  0
  128.5057  123.4967   63.1616 H   0  0  0  0  0  0  0  0  0  0  0  0
  126.9977  122.5771   62.8344 H   0  0  0  0  0  0  0  0  0  0  0  0
  128.5828  121.7321   62.8344 H   0  0  0  0  0  0  0  0  0  0  0  0
  127.5428  124.8207   60.7978 H   0  0  0  0  0  0  0  0  0  0  0  0
  125.8936  123.7396   62.3288 H   0  0  0  0  0  0  0  0  0  0  0  0
  125.1725  124.5983   60.9255 H   0  0  0  0  0  0  0  0  0  0  0  0
  125.2742  122.8049   60.9255 H   0  0  0  0  0  0  0  0  0  0  0  0
  127.4785  121.5282   58.8349 H   0  0  0  0  0  0  0  0  0  0  0  0
  126.5017  125.0039   55.9893 H   0  0  0  0  0  0  0  0  0  0  0  0
  130.3586  121.4125   61.7557 H   0  0  0  0  0  0  0  0  0  0  0  0
  1  2  1  0
  2  3  1  0
  2  4  1  0
  4  5  2  0
  5  6  1  0
  6  7  2  0
  7  8  1  0
  8  9  1  0
  8 10  1  0
 10 11  1  0
 10 12  1  0
 12 13  2  0
 13 14  1  0
 14 15  1  0
 15 16  2  0
 16 17  1  0
  7 18  1  0
 18 19  2  0
 19 20  1  0
 19  4  1  0
 16 12  1  0
  1 21  1  0
  1 22  1  0
  1 23  1  0
  2 24  1  6
  3 25  1  0
  5 26  1  0
  6 27  1  0
  9 28  1  0
  9 29  1  0
  9 30  1  0
 10 31  1  6
 11 32  1  0
 11 33  1  0
 11 34  1  0
 13 35  1  0
 15 36  1  0
 18 37  1  0
M  END
>  <Binding energies>  (1) 
[-6.43]

>  <Ligand effiencies>  (1) 
[-0.3061904761904762]

>  <Interactions>  (1) 
["V-A:ILE:369:CG2:3237, V-A:ASP:366:CA:3210, V-B:PRO:540:CA:9855, V-A:ILE:369:CB:3236, V-B:ALA:541:CB:9864, V-B:TYR:539:CE2:9848, V-B:GLU:543:CG:9879, V-B:TYR:539:C:9839, V-A:ASP:366:CG:3213, V-B:TYR:539:CZ:9849, H-B:TYR:539:OH:9850, V-B:PRO:540:CB:9857, V-B:PRO:540:N:9856, V-A:ILE:369:CD1:3239, V-B:TYR:539:CD2:9846, V-B:PRO:540:CD:9859, V-A:SER:385:CB:3409, V-A:ASP:366:CB:3212, V-A:LEU:475:CD2:4259, V-B:TYR:539:CG:9844, H-A:ASP:366:O:3209, V-B:TYR:539:CD1:9845, V-B:ALA:541:CA:9862, V-B:TYR:539:CE1:9847"]

$$$$
ZINC2186636636
     RDKit          3D

 37 38  0  0  0  0  0  0  0  0999 V2000
  132.0650  125.9310   57.4510 C   0  0  0  0  0  0  0  0  0  0  0  0
  133.2060  125.2690   58.2420 C   0  0  2  0  0  0  0  0  0  0  0  0
  133.6500  124.1360   57.5200 O   0  0  0  0  0  0  0  0  0  0  0  0
  132.7860  124.9240   59.6690 C   0  0  0  0  0  0  0  0  0  0  0  0
  131.8830  125.7340   60.3650 C   0  0  0  0  0  0  0  0  0  0  0  0
  131.5140  125.4160   61.6700 C   0  0  0  0  0  0  0  0  0  0  0  0
  132.0300  124.2810   62.3060 C   0  0  0  0  0  0  0  0  0  0  0  0
  131.6280  124.0440   63.6360 N   0  0  0  0  0  0  0  0  0  0  0  0
  132.3510  124.7350   64.7010 C   0  0  0  0  0  0  0  0  0  0  0  0
  130.2570  123.5550   63.8440 C   0  0  2  0  0  0  0  0  0  0  0  0
  130.1520  122.5220   64.9860 C   0  0  0  0  0  0  0  0  0  0  0  0
  129.5980  123.0760   62.5570 C   0  0  0  0  0  0  0  0  0  0  0  0
  128.6660  123.7110   61.7290 C   0  0  0  0  0  0  0  0  0  0  0  0
  128.2620  122.9660   60.6190 C   0  0  0  0  0  0  0  0  0  0  0  0
  127.0100  123.5810   59.3250 Br  0  0  0  0  0  0  0  0  0  0  0  0
  128.8760  121.7290   60.5700 C   0  0  0  0  0  0  0  0  0  0  0  0
  129.9510  121.4930   61.9050 S   0  0  0  0  0  0  0  0  0  0  0  0
  132.9520  123.4720   61.6120 C   0  0  0  0  0  0  0  0  0  0  0  0
  133.7630  121.9300   62.3930 Br  0  0  0  0  0  0  0  0  0  0  0  0
  133.3160  123.7970   60.3030 C   0  0  0  0  0  0  0  0  0  0  0  0
  131.3317  126.3565   58.1519 H   0  0  0  0  0  0  0  0  0  0  0  0
  132.4744  126.7318   56.8177 H   0  0  0  0  0  0  0  0  0  0  0  0
  131.5729  125.1781   56.8177 H   0  0  0  0  0  0  0  0  0  0  0  0
  134.0410  125.9771   58.3489 H   0  0  0  0  0  0  0  0  0  0  0  0
  134.5230  124.3230   57.1690 H   0  0  0  0  0  0  0  0  0  0  0  0
  131.4620  126.6267   59.8794 H   0  0  0  0  0  0  0  0  0  0  0  0
  130.8077  126.0655   62.2078 H   0  0  0  0  0  0  0  0  0  0  0  0
  131.9859  124.3861   65.6782 H   0  0  0  0  0  0  0  0  0  0  0  0
  133.4263  124.5203   64.6133 H   0  0  0  0  0  0  0  0  0  0  0  0
  132.1852  125.8189   64.6133 H   0  0  0  0  0  0  0  0  0  0  0  0
  129.6773  124.4293   64.1750 H   0  0  0  0  0  0  0  0  0  0  0  0
  130.2047  123.0400   65.9550 H   0  0  0  0  0  0  0  0  0  0  0  0
  129.1947  121.9857   64.9085 H   0  0  0  0  0  0  0  0  0  0  0  0
  130.9818  121.8041   64.9085 H   0  0  0  0  0  0  0  0  0  0  0  0
  128.2808  124.7202   61.9365 H   0  0  0  0  0  0  0  0  0  0  0  0
  128.7024  120.9850   59.7786 H   0  0  0  0  0  0  0  0  0  0  0  0
  134.0298  123.1569   59.7638 H   0  0  0  0  0  0  0  0  0  0  0  0
  1  2  1  0
  2  3  1  0
  2  4  1  0
  4  5  2  0
  5  6  1  0
  6  7  2  0
  7  8  1  0
  8  9  1  0
  8 10  1  0
 10 11  1  0
 10 12  1  0
 12 13  2  0
 13 14  1  0
 14 15  1  0
 14 16  2  0
 16 17  1  0
  7 18  1  0
 18 19  1  0
 18 20  2  0
 20  4  1  0
 17 12  1  0
  1 21  1  0
  1 22  1  0
  1 23  1  0
  2 24  1  1
  3 25  1  0
  5 26  1  0
  6 27  1  0
  9 28  1  0
  9 29  1  0
  9 30  1  0
 10 31  1  1
 11 32  1  0
 11 33  1  0
 11 34  1  0
 13 35  1  0
 16 36  1  0
 20 37  1  0
M  END
>  <Binding energies>  (1) 
[-6.56]

>  <Ligand effiencies>  (1) 
[-0.31238095238095237]

>  <Interactions>  (1) 
["V-A:ILE:369:CG2:3237, V-A:ASP:366:CA:3210, V-B:PRO:540:CA:9855, V-A:GLY:454:CA:4049, V-B:ALA:541:CB:9864, V-B:TYR:539:CE2:9848, V-A:TYR:484:CE2:4346, V-B:GLU:543:CG:9879, V-B:TYR:539:C:9839, V-A:ASP:366:CG:3213, V-B:TYR:539:CZ:9849, H-A:ASN:370:N:3244, H-B:TYR:539:OH:9850, V-A:TYR:484:CZ:4347, V-B:PRO:540:CB:9857, V-B:PRO:540:N:9856, V-A:ASP:366:C:3208, V-B:TYR:539:CD2:9846, V-A:TYR:531:CZ:4794, V-A:ASP:366:CB:3212, V-A:LEU:475:CD2:4259, V-A:ARG:545:CZ:4926, H-A:ASP:366:O:3209, V-B:PRO:540:C:9853"]

$$$$
ZINC2187312561
     RDKit          3D

 28 29  0  0  0  0  0  0  0  0999 V2000
  129.6980  116.8720   60.7740 C   0  0  0  0  0  0  0  0  0  0  0  0
  130.1370  118.1230   61.5450 C   0  0  0  0  0  0  0  0  0  0  0  0
  131.1870  118.9560   60.7860 C   0  0  0  0  0  0  0  0  0  0  0  0
  130.9350  120.4580   60.8950 C   0  0  0  0  0  0  0  0  0  0  0  0
  129.6350  120.8130   60.8450 N   0  0  0  0  0  0  0  0  0  0  0  0
  129.3030  122.1250   60.9370 C   0  0  0  0  0  0  0  0  0  0  0  0
  127.9260  122.4160   60.8720 C   0  0  0  0  0  0  0  0  0  0  0  0
  127.4740  123.7210   60.9530 C   0  0  0  0  0  0  0  0  0  0  0  0
  125.5930  124.0250   60.8570 Br  0  0  0  0  0  0  0  0  0  0  0  0
  128.3780  124.7720   61.0990 C   0  0  0  0  0  0  0  0  0  0  0  0
  127.6950  126.5580   61.2010 Br  0  0  0  0  0  0  0  0  0  0  0  0
  129.7610  124.5320   61.1700 C   0  0  0  0  0  0  0  0  0  0  0  0
  130.8840  126.0720   61.3740 Br  0  0  0  0  0  0  0  0  0  0  0  0
  130.2690  123.1760   61.0890 C   0  0  0  0  0  0  0  0  0  0  0  0
  131.6540  122.7520   61.1440 C   0  0  0  0  0  0  0  0  0  0  0  0
  132.9910  123.8430   61.3270 Cl  0  0  0  0  0  0  0  0  0  0  0  0
  131.9670  121.3860   61.0470 C   0  0  0  0  0  0  0  0  0  0  0  0
  133.3640  120.9300   61.1080 N   0  0  0  0  0  0  0  0  0  0  0  0
  133.7870  120.2720   60.1640 O   0  0  0  0  0  0  0  0  0  0  0  0
  134.0190  121.2350   62.0990 O   0  0  0  0  0  0  0  0  0  0  0  0
  129.4204  116.0810   61.4862 H   0  0  0  0  0  0  0  0  0  0  0  0
  128.8319  117.1163   60.1414 H   0  0  0  0  0  0  0  0  0  0  0  0
  130.5268  116.5215   60.1414 H   0  0  0  0  0  0  0  0  0  0  0  0
  129.2531  118.7524   61.7256 H   0  0  0  0  0  0  0  0  0  0  0  0
  130.5985  117.7868   62.4852 H   0  0  0  0  0  0  0  0  0  0  0  0
  132.1807  118.7343   61.2023 H   0  0  0  0  0  0  0  0  0  0  0  0
  131.1231  118.6836   59.7222 H   0  0  0  0  0  0  0  0  0  0  0  0
  127.2020  121.5961   60.7555 H   0  0  0  0  0  0  0  0  0  0  0  0
  1  2  1  0
  2  3  1  0
  3  4  1  0
  4  5  2  0
  5  6  1  0
  6  7  2  0
  7  8  1  0
  8  9  1  0
  8 10  2  0
 10 11  1  0
 10 12  1  0
 12 13  1  0
 12 14  2  0
 14 15  1  0
 15 16  1  0
 15 17  2  0
 17 18  1  0
 18 19  2  0
 18 20  1  0
 17  4  1  0
 14  6  1  0
  1 21  1  0
  1 22  1  0
  1 23  1  0
  2 24  1  0
  2 25  1  0
  3 26  1  0
  3 27  1  0
  7 28  1  0
M  CHG  2  18   1  20  -1
M  END
>  <Binding energies>  (1) 
[-6.54]

>  <Ligand effiencies>  (1) 
[-0.327]

>  <Interactions>  (1) 
["V-A:ILE:369:CG2:3237, V-B:PRO:540:CA:9855, V-B:ALA:541:CB:9864, V-B:TYR:539:CE2:9848, V-A:LEU:475:CG:4257, V-B:TYR:539:C:9839, V-B:VAL:344:CG1:7972, V-A:LEU:475:CD1:4258, V-A:HIS:383:CE1:3393, V-B:PRO:540:CB:9857, V-B:PRO:540:N:9856, V-A:PRO:482:CB:4326, V-B:TYR:539:CD2:9846, V-A:SER:385:CB:3409, H-A:SER:385:OG:3410, V-A:LEU:475:CD2:4259, V-A:PRO:482:CG:4327, V-A:SER:385:CA:3407, V-B:PRO:540:C:9853, V-A:HIS:383:NE2:3394"]

$$$$
ZINC2188887
     RDKit          3D

 66 70  0  0  0  0  0  0  0  0999 V2000
  135.0680  123.9770   62.0690 C   0  0  0  0  0  0  0  0  0  0  0  0
  135.1280  124.7220   60.7320 C   0  0  0  0  0  0  0  0  0  0  0  0
  134.3390  124.0270   59.7750 O   0  0  0  0  0  0  0  0  0  0  0  0
  133.2150  124.5780   59.2540 C   0  0  0  0  0  0  0  0  0  0  0  0
  132.9750  124.5990   58.0440 O   0  0  0  0  0  0  0  0  0  0  0  0
  132.2990  125.1160   60.2910 C   0  0  0  0  0  0  0  0  0  0  0  0
  131.3740  126.0950   60.0420 C   0  0  0  0  0  0  0  0  0  0  0  0
  131.2350  126.9480   58.7800 C   0  0  0  0  0  0  0  0  0  0  0  0
  130.4930  126.5350   60.9920 N   0  0  0  0  0  0  0  0  0  0  0  0
  130.5790  126.1330   62.2050 C   0  0  0  0  0  0  0  0  0  0  0  0
  129.6050  126.7480   63.5370 S   0  0  0  0  0  0  0  0  0  0  0  0
  130.5060  125.7230   64.6640 C   0  0  0  0  0  0  0  0  0  0  0  0
  130.3870  125.6450   66.0090 C   0  0  0  0  0  0  0  0  0  0  0  0
  129.4960  126.3820   66.8900 C   0  0  0  0  0  0  0  0  0  0  0  0
  128.3590  127.1600   66.6990 C   0  0  0  0  0  0  0  0  0  0  0  0
  127.9510  127.6200   67.9490 C   0  0  0  0  0  0  0  0  0  0  0  0
  128.8420  127.1000   68.8770 C   0  0  0  0  0  0  0  0  0  0  0  0
  128.9820  127.2390   70.3580 C   0  0  0  0  0  0  0  0  0  0  0  0
  127.8160  127.0430   71.1100 C   0  0  0  0  0  0  0  0  0  0  0  0
  127.8200  127.2080   72.4920 C   0  0  0  0  0  0  0  0  0  0  0  0
  128.9940  127.5730   73.1440 C   0  0  0  0  0  0  0  0  0  0  0  0
  129.0010  127.7880   74.8570 Cl  0  0  0  0  0  0  0  0  0  0  0  0
  130.1650  127.7600   72.4110 C   0  0  0  0  0  0  0  0  0  0  0  0
  130.1840  127.5800   71.0200 C   0  0  0  0  0  0  0  0  0  0  0  0
  131.4670  127.7470   70.3030 N   0  0  0  0  0  0  0  0  0  0  0  0
  131.4510  128.3250   69.2190 O   0  0  0  0  0  0  0  0  0  0  0  0
  132.4970  127.3560   70.8420 O   0  0  0  0  0  0  0  0  0  0  0  0
  129.7820  126.3700   68.2200 O   0  0  0  0  0  0  0  0  0  0  0  0
  131.4640  124.8940   63.9530 C   0  0  0  0  0  0  0  0  0  0  0  0
  132.2040  124.0530   64.4710 O   0  0  0  0  0  0  0  0  0  0  0  0
  131.4430  125.1690   62.6230 N   0  0  0  0  0  0  0  0  0  0  0  0
  132.2750  124.3720   61.6600 C   0  0  1  0  0  0  0  0  0  0  0  0
  131.7340  122.9370   61.5320 C   0  0  0  0  0  0  0  0  0  0  0  0
  132.5570  121.9360   61.0190 C   0  0  0  0  0  0  0  0  0  0  0  0
  132.0840  120.6330   60.8940 C   0  0  0  0  0  0  0  0  0  0  0  0
  130.7750  120.2950   61.2780 C   0  0  0  0  0  0  0  0  0  0  0  0
  130.2920  118.9610   61.1540 N   0  0  0  0  0  0  0  0  0  0  0  0
  130.8770  118.0580   60.1620 C   0  0  0  0  0  0  0  0  0  0  0  0
  129.5720  118.3370   62.2650 C   0  0  0  0  0  0  0  0  0  0  0  0
  129.9590  121.3180   61.7970 C   0  0  0  0  0  0  0  0  0  0  0  0
  130.4300  122.6210   61.9210 C   0  0  0  0  0  0  0  0  0  0  0  0
  135.1263  124.7010   62.8951 H   0  0  0  0  0  0  0  0  0  0  0  0
  134.1221  123.4196   62.1360 H   0  0  0  0  0  0  0  0  0  0  0  0
  135.9125  123.2754   62.1360 H   0  0  0  0  0  0  0  0  0  0  0  0
  134.7365  125.7419   60.8610 H   0  0  0  0  0  0  0  0  0  0  0  0
  136.1702  124.7747   60.3842 H   0  0  0  0  0  0  0  0  0  0  0  0
  131.0641  127.9970   59.0635 H   0  0  0  0  0  0  0  0  0  0  0  0
  132.1569  126.8747   58.1845 H   0  0  0  0  0  0  0  0  0  0  0  0
  130.3840  126.5858   58.1845 H   0  0  0  0  0  0  0  0  0  0  0  0
  131.0559  124.9255   66.5039 H   0  0  0  0  0  0  0  0  0  0  0  0
  127.8710  127.3732   65.7365 H   0  0  0  0  0  0  0  0  0  0  0  0
  127.0889  128.2700   68.1597 H   0  0  0  0  0  0  0  0  0  0  0  0
  126.8845  126.7547   70.6010 H   0  0  0  0  0  0  0  0  0  0  0  0
  126.8963  127.0501   73.0681 H   0  0  0  0  0  0  0  0  0  0  0  0
  131.0886  128.0533   72.9316 H   0  0  0  0  0  0  0  0  0  0  0  0
  133.3067  124.2842   62.0313 H   0  0  0  0  0  0  0  0  0  0  0  0
  133.5853  122.1769   60.7114 H   0  0  0  0  0  0  0  0  0  0  0  0
  132.7462  119.8543   60.4876 H   0  0  0  0  0  0  0  0  0  0  0  0
  131.4058  117.2418   60.6759 H   0  0  0  0  0  0  0  0  0  0  0  0
  130.0787  117.6384   59.5322 H   0  0  0  0  0  0  0  0  0  0  0  0
  131.5862  118.6151   59.5322 H   0  0  0  0  0  0  0  0  0  0  0  0
  129.9865  118.6963   63.2185 H   0  0  0  0  0  0  0  0  0  0  0  0
  128.5059  118.6016   62.2058 H   0  0  0  0  0  0  0  0  0  0  0  0
  129.6824  117.2442   62.2058 H   0  0  0  0  0  0  0  0  0  0  0  0
  128.9310  121.0829   62.1099 H   0  0  0  0  0  0  0  0  0  0  0  0
  129.7736  123.4050   62.3266 H   0  0  0  0  0  0  0  0  0  0  0  0
  1  2  1  0
  2  3  1  0
  3  4  1  0
  4  5  2  0
  4  6  1  0
  6  7  2  0
  7  8  1  0
  7  9  1  0
  9 10  2  0
 10 11  1  0
 11 12  1  0
 12 13  2  0
 13 14  1  0
 14 15  2  0
 15 16  1  0
 16 17  2  0
 17 18  1  0
 18 19  2  0
 19 20  1  0
 20 21  2  0
 21 22  1  0
 21 23  1  0
 23 24  2  0
 24 25  1  0
 25 26  2  0
 25 27  1  0
 17 28  1  0
 12 29  1  0
 29 30  2  0
 29 31  1  0
 31 32  1  0
 32 33  1  0
 33 34  2  0
 34 35  1  0
 35 36  2  0
 36 37  1  0
 37 38  1  0
 37 39  1  0
 36 40  1  0
 40 41  2  0
 32  6  1  0
 41 33  1  0
 31 10  1  0
 28 14  1  0
 24 18  1  0
  1 42  1  0
  1 43  1  0
  1 44  1  0
  2 45  1  0
  2 46  1  0
  8 47  1  0
  8 48  1  0
  8 49  1  0
 13 50  1  0
 15 51  1  0
 16 52  1  0
 19 53  1  0
 20 54  1  0
 23 55  1  0
 32 56  1  1
 34 57  1  0
 35 58  1  0
 38 59  1  0
 38 60  1  0
 38 61  1  0
 39 62  1  0
 39 63  1  0
 39 64  1  0
 40 65  1  0
 41 66  1  0
M  CHG  2  25   1  27  -1
M  END
>  <Binding energies>  (1) 
[-8.23]

>  <Ligand effiencies>  (1) 
[-0.20073170731707318]

>  <Interactions>  (1) 
["V-A:ASP:366:CA:3210, V-A:ARG:545:CA:4919, V-B:HIS:456:CD2:9039, V-A:ILE:369:CB:3236, V-A:GLU:543:C:4902, V-B:GLU:543:CB:9878, V-B:ALA:541:CB:9864, V-B:TYR:539:CE2:9848, V-A:LEU:475:CG:4257, V-B:GLU:543:CG:9879, V-A:GLY:544:C:4912, V-B:TYR:539:C:9839, V-A:ASP:366:CG:3213, H-A:ARG:545:N:4920, H-B:TYR:539:OH:9850, V-B:LYS:547:CE:9922, V-A:LEU:475:CD1:4258, V-B:TYR:539:CB:9843, V-A:GLU:543:CD:4908, V-B:HIS:456:CE1:9041, V-A:GLY:453:C:4042, V-A:ILE:369:CD1:3239, V-A:HIS:456:CE1:4070, V-B:GLY:544:C:9884, V-A:PRO:482:CB:4326, V-B:TYR:539:CD2:9846, V-B:GLU:543:CD:9880, V-A:ILE:369:CG1:3238, V-A:ASP:366:CB:3212, V-A:LEU:475:CD2:4259, V-A:GLU:543:CB:4906, V-A:GLY:453:CA:4044, V-B:ALA:541:CA:9862, V-A:HIS:383:NE2:3394, H-A:HIS:456:ND1:4067, H-A:TYR:484:OH:4348"]

$$$$
ZINC2189901109
     RDKit          3D

 27 28  0  0  0  0  0  0  0  0999 V2000
  134.3530  123.9700   60.5220 C   0  0  0  0  0  0  0  0  0  0  0  0
  133.0710  124.7990   60.5900 C   0  0  0  0  0  0  0  0  0  0  0  0
  132.4680  125.0550   61.8340 C   0  0  0  0  0  0  0  0  0  0  0  0
  133.2380  124.4480   63.4720 Br  0  0  0  0  0  0  0  0  0  0  0  0
  131.2790  125.7780   61.9020 C   0  0  0  0  0  0  0  0  0  0  0  0
  130.6770  126.2520   60.7410 C   0  0  0  0  0  0  0  0  0  0  0  0
  131.2630  126.0080   59.4990 C   0  0  0  0  0  0  0  0  0  0  0  0
  130.6690  126.5100   58.3600 O   0  0  0  0  0  0  0  0  0  0  0  0
  130.7100  127.8580   58.0460 C   0  0  0  0  0  0  0  0  0  0  0  0
  131.6950  128.6370   58.5830 N   0  0  0  0  0  0  0  0  0  0  0  0
  131.7120  129.9580   58.2720 C   0  0  0  0  0  0  0  0  0  0  0  0
  130.7670  130.5490   57.4320 C   0  0  0  0  0  0  0  0  0  0  0  0
  130.8540  132.5920   56.9970 I   0  0  0  0  0  0  0  0  0  0  0  0
  129.7630  129.7460   56.8890 C   0  0  0  0  0  0  0  0  0  0  0  0
  129.7290  128.3840   57.1970 C   0  0  0  0  0  0  0  0  0  0  0  0
  128.3590  127.2770   56.4720 Br  0  0  0  0  0  0  0  0  0  0  0  0
  132.4660  125.2900   59.4130 C   0  0  0  0  0  0  0  0  0  0  0  0
  133.0780  125.0730   58.0900 N   0  0  0  0  0  0  0  0  0  0  0  0
  133.0380  125.9940   57.2800 O   0  0  0  0  0  0  0  0  0  0  0  0
  133.6020  123.9840   57.8720 O   0  0  0  0  0  0  0  0  0  0  0  0
  134.6993  123.7460   61.5417 H   0  0  0  0  0  0  0  0  0  0  0  0
  134.1535  123.0294   59.9877 H   0  0  0  0  0  0  0  0  0  0  0  0
  135.1289  124.5378   59.9877 H   0  0  0  0  0  0  0  0  0  0  0  0
  130.8138  125.9751   62.8791 H   0  0  0  0  0  0  0  0  0  0  0  0
  129.7372  126.8203   60.8025 H   0  0  0  0  0  0  0  0  0  0  0  0
  132.5042  130.5897   58.7002 H   0  0  0  0  0  0  0  0  0  0  0  0
  129.0039  130.1825   56.2233 H   0  0  0  0  0  0  0  0  0  0  0  0
  1  2  1  0
  2  3  2  0
  3  4  1  0
  3  5  1  0
  5  6  2  0
  6  7  1  0
  7  8  1  0
  8  9  1  0
  9 10  2  0
 10 11  1  0
 11 12  2  0
 12 13  1  0
 12 14  1  0
 14 15  2  0
 15 16  1  0
  7 17  2  0
 17 18  1  0
 18 19  2  0
 18 20  1  0
 17  2  1  0
 15  9  1  0
  1 21  1  0
  1 22  1  0
  1 23  1  0
  5 24  1  0
  6 25  1  0
 11 26  1  0
 14 27  1  0
M  CHG  2  18   1  20  -1
M  END
>  <Binding energies>  (1) 
[-6.59]

>  <Ligand effiencies>  (1) 
[-0.3295]

>  <Interactions>  (1) 
["V-A:ILE:369:CG2:3237, V-A:ASP:366:CA:3210, V-A:ILE:369:CD1:3239, V-A:PRO:540:N:4884, V-B:TYR:539:CZ:9849, V-A:ASP:366:C:3208, V-A:ILE:369:CB:3236, H-B:TYR:539:OH:9850, V-A:MET:535:CE:4835, H-A:TYR:531:OH:4795, V-B:TYR:539:CE2:9848, V-A:ASP:366:CB:3212, V-A:ARG:545:CZ:4926, V-A:ASP:366:CG:3213"]

$$$$
ZINC2198815058
     RDKit          3D

 55 55  0  0  0  0  0  0  0  0999 V2000
  130.5410  125.7590   63.4550 C   0  0  0  0  0  0  0  0  0  0  0  0
  131.2060  125.5450   62.1060 C   0  0  0  0  0  0  0  0  0  0  0  0
  130.4340  125.8080   61.0220 N   0  0  0  0  0  0  0  0  0  0  0  0
  130.9670  125.6400   59.7770 C   0  0  0  0  0  0  0  0  0  0  0  0
  130.1620  125.8880   58.6800 O   0  0  0  0  0  0  0  0  0  0  0  0
  128.7430  125.9790   58.8170 C   0  0  0  0  0  0  0  0  0  0  0  0
  128.1840  124.5370   58.9700 C   0  0  1  0  0  0  0  0  0  0  0  0
  127.3470  124.3890   60.1990 N   0  0  0  0  0  0  0  0  0  0  0  0
  126.6720  125.5820   60.7270 C   0  0  0  0  0  0  0  0  0  0  0  0
  127.3370  123.2270   60.9950 C   0  0  0  0  0  0  0  0  0  0  0  0
  126.5390  123.0070   61.9100 O   0  0  0  0  0  0  0  0  0  0  0  0
  128.3270  122.3530   60.6340 O   0  0  0  0  0  0  0  0  0  0  0  0
  129.5050  122.0470   61.4000 C   0  0  0  0  0  0  0  0  0  0  0  0
  130.7890  122.4450   60.6330 C   0  0  0  0  0  0  0  0  0  0  0  0
  129.4590  122.7080   62.8000 C   0  0  0  0  0  0  0  0  0  0  0  0
  129.4610  120.5130   61.5590 C   0  0  0  0  0  0  0  0  0  0  0  0
  127.5440  123.9220   57.6670 C   0  0  0  0  0  0  0  0  0  0  0  0
  126.0030  124.0850   57.6930 C   0  0  0  0  0  0  0  0  0  0  0  0
  128.0600  124.6670   56.4090 C   0  0  0  0  0  0  0  0  0  0  0  0
  127.8730  122.4180   57.4980 C   0  0  0  0  0  0  0  0  0  0  0  0
  132.2920  125.2060   59.5790 C   0  0  0  0  0  0  0  0  0  0  0  0
  132.8730  125.0260   58.2270 N   0  0  0  0  0  0  0  0  0  0  0  0
  133.5950  124.0570   58.0130 O   0  0  0  0  0  0  0  0  0  0  0  0
  132.5900  125.8520   57.3640 O   0  0  0  0  0  0  0  0  0  0  0  0
  133.0660  124.9360   60.7180 C   0  0  0  0  0  0  0  0  0  0  0  0
  132.5290  125.1050   61.9940 C   0  0  0  0  0  0  0  0  0  0  0  0
  133.6020  124.7370   63.5270 Br  0  0  0  0  0  0  0  0  0  0  0  0
  131.2572  125.5285   64.2575 H   0  0  0  0  0  0  0  0  0  0  0  0
  130.2173  126.8067   63.5421 H   0  0  0  0  0  0  0  0  0  0  0  0
  129.6670  125.0967   63.5421 H   0  0  0  0  0  0  0  0  0  0  0  0
  128.4909  126.5739   59.7073 H   0  0  0  0  0  0  0  0  0  0  0  0
  128.3037  126.4685   57.9353 H   0  0  0  0  0  0  0  0  0  0  0  0
  129.0670  123.8981   59.1192 H   0  0  0  0  0  0  0  0  0  0  0  0
  126.6871  125.5553   61.8266 H   0  0  0  0  0  0  0  0  0  0  0  0
  127.1934  126.4843   60.3749 H   0  0  0  0  0  0  0  0  0  0  0  0
  125.6300  125.5997   60.3749 H   0  0  0  0  0  0  0  0  0  0  0  0
  131.5841  122.6915   61.3521 H   0  0  0  0  0  0  0  0  0  0  0  0
  131.1137  121.6053   60.0009 H   0  0  0  0  0  0  0  0  0  0  0  0
  130.5818  123.3211   60.0009 H   0  0  0  0  0  0  0  0  0  0  0  0
  129.5132  121.9293   63.5751 H   0  0  0  0  0  0  0  0  0  0  0  0
  130.3115  123.3944   62.9096 H   0  0  0  0  0  0  0  0  0  0  0  0
  128.5196  123.2697   62.9096 H   0  0  0  0  0  0  0  0  0  0  0  0
  129.4536  120.2553   62.6284 H   0  0  0  0  0  0  0  0  0  0  0  0
  128.5512  120.1208   61.0810 H   0  0  0  0  0  0  0  0  0  0  0  0
  130.3468  120.0693   61.0810 H   0  0  0  0  0  0  0  0  0  0  0  0
  125.6557  124.1217   58.7361 H   0  0  0  0  0  0  0  0  0  0  0  0
  125.7242  125.0176   57.1807 H   0  0  0  0  0  0  0  0  0  0  0  0
  125.5353  123.2313   57.1807 H   0  0  0  0  0  0  0  0  0  0  0  0
  128.6612  125.5349   56.7177 H   0  0  0  0  0  0  0  0  0  0  0  0
  128.6808  123.9859   55.8084 H   0  0  0  0  0  0  0  0  0  0  0  0
  127.2041  125.0087   55.8084 H   0  0  0  0  0  0  0  0  0  0  0  0
  127.9751  121.9514   58.4889 H   0  0  0  0  0  0  0  0  0  0  0  0
  127.0614  121.9253   56.9425 H   0  0  0  0  0  0  0  0  0  0  0  0
  128.8162  122.3091   56.9425 H   0  0  0  0  0  0  0  0  0  0  0  0
  134.1034  124.5887   60.6036 H   0  0  0  0  0  0  0  0  0  0  0  0
  1  2  1  0
  2  3  2  0
  3  4  1  0
  4  5  1  0
  5  6  1  0
  6  7  1  0
  7  8  1  0
  8  9  1  0
  8 10  1  0
 10 11  2  0
 10 12  1  0
 12 13  1  0
 13 14  1  0
 13 15  1  0
 13 16  1  0
  7 17  1  0
 17 18  1  0
 17 19  1  0
 17 20  1  0
  4 21  2  0
 21 22  1  0
 22 23  2  0
 22 24  1  0
 21 25  1  0
 25 26  2  0
 26 27  1  0
 26  2  1  0
  1 28  1  0
  1 29  1  0
  1 30  1  0
  6 31  1  0
  6 32  1  0
  7 33  1  1
  9 34  1  0
  9 35  1  0
  9 36  1  0
 14 37  1  0
 14 38  1  0
 14 39  1  0
 15 40  1  0
 15 41  1  0
 15 42  1  0
 16 43  1  0
 16 44  1  0
 16 45  1  0
 18 46  1  0
 18 47  1  0
 18 48  1  0
 19 49  1  0
 19 50  1  0
 19 51  1  0
 20 52  1  0
 20 53  1  0
 20 54  1  0
 25 55  1  0
M  CHG  2  22   1  24  -1
M  END
>  <Binding energies>  (1) 
[-6.39]

>  <Ligand effiencies>  (1) 
[-0.23666666666666666]

>  <Interactions>  (1) 
["V-B:TYR:539:CA:9841, V-A:ASP:366:CA:3210, V-B:PRO:540:CA:9855, V-B:ALA:541:CB:9864, H-A:TYR:531:OH:4795, V-B:TYR:539:CE2:9848, V-B:TYR:539:C:9839, V-A:ASP:366:CG:3213, V-B:TYR:539:CZ:9849, H-B:TYR:539:OH:9850, H-B:ALA:541:N:9863, V-B:PRO:540:N:9856, V-B:TYR:539:CD2:9846, V-A:ASP:366:CB:3212, V-A:LEU:475:CD2:4259, V-A:ARG:545:CZ:4926, V-B:TYR:539:CG:9844, V-B:TYR:539:CD1:9845, V-B:PRO:540:C:9853, V-B:TYR:539:CE1:9847"]

$$$$
ZINC2198819040
     RDKit          3D

 53 54  0  0  0  0  0  0  0  0999 V2000
  133.6730  123.4760   61.1850 C   0  0  0  0  0  0  0  0  0  0  0  0
  132.8070  124.7020   60.9050 C   0  0  0  0  0  0  0  0  0  0  0  0
  132.1840  125.3830   61.9650 C   0  0  0  0  0  0  0  0  0  0  0  0
  132.3170  124.8000   63.7770 Br  0  0  0  0  0  0  0  0  0  0  0  0
  131.4320  126.5220   61.6810 C   0  0  0  0  0  0  0  0  0  0  0  0
  131.2700  127.0060   60.4280 N   0  0  0  0  0  0  0  0  0  0  0  0
  131.8640  126.3430   59.3980 C   0  0  0  0  0  0  0  0  0  0  0  0
  131.6860  126.8160   58.1070 O   0  0  0  0  0  0  0  0  0  0  0  0
  130.4120  127.2890   57.6540 C   0  0  1  0  0  0  0  0  0  0  0  0
  129.3180  126.3510   58.2160 C   0  0  0  0  0  0  0  0  0  0  0  0
  127.8550  126.7340   57.9280 C   0  0  0  0  0  0  0  0  0  0  0  0
  127.3080  127.9250   58.7380 C   0  0  0  0  0  0  0  0  0  0  0  0
  127.5940  129.3010   58.1060 C   0  0  0  0  0  0  0  0  0  0  0  0
  128.9450  129.4730   57.3770 C   0  0  0  0  0  0  0  0  0  0  0  0
  130.2100  128.8040   57.9820 C   0  0  2  0  0  0  0  0  0  0  0  0
  131.4100  129.6140   57.7070 N   0  0  0  0  0  0  0  0  0  0  0  0
  131.7430  130.8110   58.3400 C   0  0  0  0  0  0  0  0  0  0  0  0
  132.7680  131.4470   58.1000 O   0  0  0  0  0  0  0  0  0  0  0  0
  130.7970  131.1750   59.2600 O   0  0  0  0  0  0  0  0  0  0  0  0
  130.9460  131.1200   60.6890 C   0  0  0  0  0  0  0  0  0  0  0  0
  130.4440  129.7680   61.2520 C   0  0  0  0  0  0  0  0  0  0  0  0
  132.4090  131.3940   61.1160 C   0  0  0  0  0  0  0  0  0  0  0  0
  130.0390  132.2570   61.2020 C   0  0  0  0  0  0  0  0  0  0  0  0
  132.6400  125.1890   59.5920 C   0  0  0  0  0  0  0  0  0  0  0  0
  133.2320  124.5050   58.4280 N   0  0  0  0  0  0  0  0  0  0  0  0
  133.5800  125.1940   57.4750 O   0  0  0  0  0  0  0  0  0  0  0  0
  133.3580  123.2860   58.4810 O   0  0  0  0  0  0  0  0  0  0  0  0
  133.7712  123.3369   62.2717 H   0  0  0  0  0  0  0  0  0  0  0  0
  133.2022  122.5857   60.7425 H   0  0  0  0  0  0  0  0  0  0  0  0
  134.6694  123.6221   60.7425 H   0  0  0  0  0  0  0  0  0  0  0  0
  130.9478  127.0519   62.5145 H   0  0  0  0  0  0  0  0  0  0  0  0
  130.3468  127.2488   56.5567 H   0  0  0  0  0  0  0  0  0  0  0  0
  129.4888  125.3503   57.7923 H   0  0  0  0  0  0  0  0  0  0  0  0
  129.4205  126.4147   59.3094 H   0  0  0  0  0  0  0  0  0  0  0  0
  127.7747  126.9853   56.8601 H   0  0  0  0  0  0  0  0  0  0  0  0
  127.2514  125.8641   58.2262 H   0  0  0  0  0  0  0  0  0  0  0  0
  126.2183  127.8077   58.8314 H   0  0  0  0  0  0  0  0  0  0  0  0
  127.8222  127.9098   59.7103 H   0  0  0  0  0  0  0  0  0  0  0  0
  126.7957  129.5031   57.3767 H   0  0  0  0  0  0  0  0  0  0  0  0
  127.6369  130.0004   58.9539 H   0  0  0  0  0  0  0  0  0  0  0  0
  128.8189  129.0684   56.3619 H   0  0  0  0  0  0  0  0  0  0  0  0
  129.1523  130.5508   57.4498 H   0  0  0  0  0  0  0  0  0  0  0  0
  130.0314  128.7887   59.0673 H   0  0  0  0  0  0  0  0  0  0  0  0
  132.0610  129.2510   57.0260 H   0  0  0  0  0  0  0  0  0  0  0  0
  130.4564  129.8014   62.3514 H   0  0  0  0  0  0  0  0  0  0  0  0
  129.4175  129.5836   60.9023 H   0  0  0  0  0  0  0  0  0  0  0  0
  131.1014  128.9584   60.9023 H   0  0  0  0  0  0  0  0  0  0  0  0
  132.4743  131.4062   62.2140 H   0  0  0  0  0  0  0  0  0  0  0  0
  133.0613  130.6024   60.7187 H   0  0  0  0  0  0  0  0  0  0  0  0
  132.7306  132.3680   60.7187 H   0  0  0  0  0  0  0  0  0  0  0  0
  130.0385  132.2576   62.3020 H   0  0  0  0  0  0  0  0  0  0  0  0
  130.4179  133.2222   60.8349 H   0  0  0  0  0  0  0  0  0  0  0  0
  129.0137  132.1021   60.8349 H   0  0  0  0  0  0  0  0  0  0  0  0
  1  2  1  0
  2  3  2  0
  3  4  1  0
  3  5  1  0
  5  6  2  0
  6  7  1  0
  7  8  1  0
  8  9  1  0
  9 10  1  0
 10 11  1  0
 11 12  1  0
 12 13  1  0
 13 14  1  0
 14 15  1  0
 15 16  1  0
 16 17  1  0
 17 18  2  0
 17 19  1  0
 19 20  1  0
 20 21  1  0
 20 22  1  0
 20 23  1  0
  7 24  2  0
 24 25  1  0
 25 26  2  0
 25 27  1  0
 24  2  1  0
 15  9  1  0
  1 28  1  0
  1 29  1  0
  1 30  1  0
  5 31  1  0
  9 32  1  6
 10 33  1  0
 10 34  1  0
 11 35  1  0
 11 36  1  0
 12 37  1  0
 12 38  1  0
 13 39  1  0
 13 40  1  0
 14 41  1  0
 14 42  1  0
 15 43  1  1
 16 44  1  0
 21 45  1  0
 21 46  1  0
 21 47  1  0
 22 48  1  0
 22 49  1  0
 22 50  1  0
 23 51  1  0
 23 52  1  0
 23 53  1  0
M  CHG  2  25   1  27  -1
M  END
>  <Binding energies>  (1) 
[-4.12]

>  <Ligand effiencies>  (1) 
[-0.13733333333333334]

>  <Interactions>  (1) 
["V-A:ILE:369:CG2:3237, V-A:ASP:366:CA:3210, V-A:ILE:369:CD1:3239, V-B:TYR:539:CZ:9849, V-A:PRO:540:CA:4883, V-A:PRO:540:CB:4885, H-B:TYR:539:OH:9850, V-A:PRO:540:C:4881, V-A:TYR:531:CZ:4794, V-A:MET:535:CE:4835, H-A:TYR:531:OH:4795, V-B:TYR:539:CE2:9848, V-A:ASP:366:CB:3212, V-A:ARG:545:CZ:4926, V-A:ASP:366:CG:3213"]

$$$$
ZINC2198833626
     RDKit          3D

 53 54  0  0  0  0  0  0  0  0999 V2000
  132.9120  125.7600   67.1400 C   0  0  0  0  0  0  0  0  0  0  0  0
  131.7110  125.4740   66.2430 C   0  0  0  0  0  0  0  0  0  0  0  0
  130.4320  125.9190   66.6190 C   0  0  0  0  0  0  0  0  0  0  0  0
  130.1280  126.9460   68.1980 Br  0  0  0  0  0  0  0  0  0  0  0  0
  129.3470  125.6050   65.8040 C   0  0  0  0  0  0  0  0  0  0  0  0
  129.4650  124.8910   64.6610 N   0  0  0  0  0  0  0  0  0  0  0  0
  130.7010  124.4670   64.2840 C   0  0  0  0  0  0  0  0  0  0  0  0
  130.8490  123.7550   63.1010 O   0  0  0  0  0  0  0  0  0  0  0  0
  130.9150  124.3130   61.7740 C   0  0  0  0  0  0  0  0  0  0  0  0
  129.5640  125.0260   61.4970 C   0  0  0  0  0  0  0  0  0  0  0  0
  132.1130  125.2870   61.5920 C   0  0  0  0  0  0  0  0  0  0  0  0
  131.0690  123.0470   60.8450 C   0  0  1  0  0  0  0  0  0  0  0  0
  132.3700  122.2480   61.0730 C   0  0  0  0  0  0  0  0  0  0  0  0
  132.0710  120.8440   60.6000 C   0  0  0  0  0  0  0  0  0  0  0  0
  130.6060  120.6340   60.9580 C   0  0  0  0  0  0  0  0  0  0  0  0
  130.0270  121.9860   60.9140 N   0  0  0  0  0  0  0  0  0  0  0  0
  128.6460  122.2030   60.7610 C   0  0  0  0  0  0  0  0  0  0  0  0
  127.8560  122.4670   61.6650 O   0  0  0  0  0  0  0  0  0  0  0  0
  128.2700  122.0760   59.4480 O   0  0  0  0  0  0  0  0  0  0  0  0
  127.6110  123.0900   58.6650 C   0  0  0  0  0  0  0  0  0  0  0  0
  127.0830  122.5120   57.3270 C   0  0  0  0  0  0  0  0  0  0  0  0
  126.4730  123.7730   59.4620 C   0  0  0  0  0  0  0  0  0  0  0  0
  128.7180  124.1240   58.3700 C   0  0  0  0  0  0  0  0  0  0  0  0
  131.8490  124.7380   65.0470 C   0  0  0  0  0  0  0  0  0  0  0  0
  133.1660  124.2680   64.5780 N   0  0  0  0  0  0  0  0  0  0  0  0
  134.0830  125.0810   64.5320 O   0  0  0  0  0  0  0  0  0  0  0  0
  133.2760  123.0870   64.2640 O   0  0  0  0  0  0  0  0  0  0  0  0
  132.6076  125.6875   68.1945 H   0  0  0  0  0  0  0  0  0  0  0  0
  133.7051  125.0256   66.9360 H   0  0  0  0  0  0  0  0  0  0  0  0
  133.2890  126.7730   66.9360 H   0  0  0  0  0  0  0  0  0  0  0  0
  128.3477  125.9538   66.1037 H   0  0  0  0  0  0  0  0  0  0  0  0
  129.0813  125.2808   62.4520 H   0  0  0  0  0  0  0  0  0  0  0  0
  129.7460  125.9455   60.9214 H   0  0  0  0  0  0  0  0  0  0  0  0
  128.9075  124.3569   60.9214 H   0  0  0  0  0  0  0  0  0  0  0  0
  132.4897  125.5933   62.5790 H   0  0  0  0  0  0  0  0  0  0  0  0
  132.9150  124.7815   61.0341 H   0  0  0  0  0  0  0  0  0  0  0  0
  131.7819  126.1753   61.0341 H   0  0  0  0  0  0  0  0  0  0  0  0
  131.0133  123.5739   59.8810 H   0  0  0  0  0  0  0  0  0  0  0  0
  133.1950  122.6825   60.4895 H   0  0  0  0  0  0  0  0  0  0  0  0
  132.6794  122.2654   62.1284 H   0  0  0  0  0  0  0  0  0  0  0  0
  132.2237  120.7572   59.5141 H   0  0  0  0  0  0  0  0  0  0  0  0
  132.7297  120.0941   61.0624 H   0  0  0  0  0  0  0  0  0  0  0  0
  130.1158  119.9755   60.2258 H   0  0  0  0  0  0  0  0  0  0  0  0
  130.4764  120.1516   61.9380 H   0  0  0  0  0  0  0  0  0  0  0  0
  126.3544  121.7144   57.5343 H   0  0  0  0  0  0  0  0  0  0  0  0
  126.5969  123.3115   56.7487 H   0  0  0  0  0  0  0  0  0  0  0  0
  127.9231  122.1000   56.7487 H   0  0  0  0  0  0  0  0  0  0  0  0
  126.6613  123.6600   60.5399 H   0  0  0  0  0  0  0  0  0  0  0  0
  126.4368  124.8422   59.2062 H   0  0  0  0  0  0  0  0  0  0  0  0
  125.5124  123.3020   59.2062 H   0  0  0  0  0  0  0  0  0  0  0  0
  129.1259  124.5050   59.3179 H   0  0  0  0  0  0  0  0  0  0  0  0
  129.5217  123.6457   57.7909 H   0  0  0  0  0  0  0  0  0  0  0  0
  128.2955  124.9584   57.7909 H   0  0  0  0  0  0  0  0  0  0  0  0
  1  2  1  0
  2  3  2  0
  3  4  1  0
  3  5  1  0
  5  6  2  0
  6  7  1  0
  7  8  1  0
  8  9  1  0
  9 10  1  0
  9 11  1  0
  9 12  1  0
 12 13  1  0
 13 14  1  0
 14 15  1  0
 15 16  1  0
 16 17  1  0
 17 18  2  0
 17 19  1  0
 19 20  1  0
 20 21  1  0
 20 22  1  0
 20 23  1  0
  7 24  2  0
 24 25  1  0
 25 26  2  0
 25 27  1  0
 24  2  1  0
 16 12  1  0
  1 28  1  0
  1 29  1  0
  1 30  1  0
  5 31  1  0
 10 32  1  0
 10 33  1  0
 10 34  1  0
 11 35  1  0
 11 36  1  0
 11 37  1  0
 12 38  1  6
 13 39  1  0
 13 40  1  0
 14 41  1  0
 14 42  1  0
 15 43  1  0
 15 44  1  0
 21 45  1  0
 21 46  1  0
 21 47  1  0
 22 48  1  0
 22 49  1  0
 22 50  1  0
 23 51  1  0
 23 52  1  0
 23 53  1  0
M  CHG  2  25   1  27  -1
M  END
>  <Binding energies>  (1) 
[-6.7]

>  <Ligand effiencies>  (1) 
[-0.24814814814814815]

>  <Interactions>  (1) 
["V-B:PRO:540:CA:9855, V-A:GLY:454:CA:4049, V-B:GLU:543:CB:9878, H-A:ARG:545:NH1:4927, V-B:TYR:539:CE2:9848, V-B:GLU:543:CG:9879, V-B:TYR:539:C:9839, V-A:ASP:366:CG:3213, V-B:TYR:539:CZ:9849, H-B:ALA:541:N:9863, V-A:GLU:543:CD:4908, V-A:TYR:484:CZ:4347, V-B:PRO:540:CB:9857, V-A:ARG:545:CG:4922, H-A:GLY:454:N:4050, V-B:PRO:540:N:9856, V-A:HIS:456:CE1:4070, V-B:TYR:539:CD2:9846, V-B:PRO:540:CD:9859, V-B:GLU:543:CD:9880, V-A:ARG:545:CD:4923, V-A:LEU:475:CD2:4259, H-A:ARG:545:NH2:4928, V-A:ARG:545:CZ:4926, V-B:TYR:539:CG:9844, V-A:GLU:543:CB:4906, H-A:ARG:545:NE:4924, V-B:PRO:540:C:9853, H-A:TYR:484:OH:4348"]

$$$$
ZINC219898762
     RDKit          3D

 45 44  0  0  0  0  0  0  0  0999 V2000
  126.1630  122.4930   56.7660 C   0  0  0  0  0  0  0  0  0  0  0  0
  127.6150  122.3560   57.2400 C   0  0  0  0  0  0  0  0  0  0  0  0
  128.1170  123.6490   58.5200 Si  0  0  0  0  0  4  0  0  0  0  0  0
  128.9250  125.1430   57.7050 C   0  0  0  0  0  0  0  0  0  0  0  0
  126.6540  124.1610   59.5900 C   0  0  0  0  0  0  0  0  0  0  0  0
  129.2540  122.9450   59.5240 O   0  0  0  0  0  0  0  0  0  0  0  0
  130.1280  122.5330   60.8870 Si  0  0  0  0  0  4  0  0  0  0  0  0
  129.1690  123.1340   62.3910 C   0  0  0  0  0  0  0  0  0  0  0  0
  130.3390  120.6630   60.8970 C   0  0  0  0  0  0  0  0  0  0  0  0
  131.6460  123.2320   60.9420 O   0  0  0  0  0  0  0  0  0  0  0  0
  133.1880  123.6530   61.4370 Si  0  0  0  0  0  4  0  0  0  0  0  0
  133.0310  125.0120   62.7340 C   0  0  0  0  0  0  0  0  0  0  0  0
  133.9770  122.1130   62.1800 C   0  0  0  0  0  0  0  0  0  0  0  0
  134.1600  124.2260   59.9160 C   0  0  0  0  0  0  0  0  0  0  0  0
  133.3220  124.4600   58.6580 C   0  0  0  0  0  0  0  0  0  0  0  0
  132.0800  125.3310   58.8150 C   0  0  0  0  0  0  0  0  0  0  0  0
  133.6170  123.9770   57.5660 O   0  0  0  0  0  0  0  0  0  0  0  0
  125.4967  122.5559   57.6390 H   0  0  0  0  0  0  0  0  0  0  0  0
  126.0598  123.4049   56.1595 H   0  0  0  0  0  0  0  0  0  0  0  0
  125.8910  121.6165   56.1595 H   0  0  0  0  0  0  0  0  0  0  0  0
  127.7429  121.3582   57.6850 H   0  0  0  0  0  0  0  0  0  0  0  0
  128.2573  122.5070   56.3599 H   0  0  0  0  0  0  0  0  0  0  0  0
  129.2957  125.8284   58.4814 H   0  0  0  0  0  0  0  0  0  0  0  0
  129.7656  124.8092   57.0789 H   0  0  0  0  0  0  0  0  0  0  0  0
  128.1855  125.6637   57.0789 H   0  0  0  0  0  0  0  0  0  0  0  0
  126.9253  124.0661   60.6518 H   0  0  0  0  0  0  0  0  0  0  0  0
  126.3878  125.2057   59.3716 H   0  0  0  0  0  0  0  0  0  0  0  0
  125.7945  123.5103   59.3716 H   0  0  0  0  0  0  0  0  0  0  0  0
  129.6844  122.8110   63.3076 H   0  0  0  0  0  0  0  0  0  0  0  0
  129.1080  124.2321   62.3722 H   0  0  0  0  0  0  0  0  0  0  0  0
  128.1542  122.7101   62.3722 H   0  0  0  0  0  0  0  0  0  0  0  0
  130.3795  120.3041   61.9360 H   0  0  0  0  0  0  0  0  0  0  0  0
  129.4879  120.1952   60.3804 H   0  0  0  0  0  0  0  0  0  0  0  0
  131.2729  120.3966   60.3804 H   0  0  0  0  0  0  0  0  0  0  0  0
  133.0824  124.5675   63.7389 H   0  0  0  0  0  0  0  0  0  0  0  0
  133.8517  125.7338   62.6100 H   0  0  0  0  0  0  0  0  0  0  0  0
  132.0673  125.5277   62.6100 H   0  0  0  0  0  0  0  0  0  0  0  0
  133.9440  122.1773   63.2776 H   0  0  0  0  0  0  0  0  0  0  0  0
  133.4246  121.2215   61.8482 H   0  0  0  0  0  0  0  0  0  0  0  0
  135.0233  122.0406   61.8482 H   0  0  0  0  0  0  0  0  0  0  0  0
  134.6637  125.1703   60.1699 H   0  0  0  0  0  0  0  0  0  0  0  0
  134.8551  123.4090   59.6723 H   0  0  0  0  0  0  0  0  0  0  0  0
  131.8688  125.4791   59.8843 H   0  0  0  0  0  0  0  0  0  0  0  0
  132.2534  126.3064   58.3370 H   0  0  0  0  0  0  0  0  0  0  0  0
  131.2220  124.8357   58.3370 H   0  0  0  0  0  0  0  0  0  0  0  0
  1  2  1  0
  2  3  1  0
  3  4  1  0
  3  5  1  0
  3  6  1  0
  6  7  1  0
  7  8  1  0
  7  9  1  0
  7 10  1  0
 10 11  1  0
 11 12  1  0
 11 13  1  0
 11 14  1  0
 14 15  1  0
 15 16  1  0
 15 17  2  0
  1 18  1  0
  1 19  1  0
  1 20  1  0
  2 21  1  0
  2 22  1  0
  4 23  1  0
  4 24  1  0
  4 25  1  0
  5 26  1  0
  5 27  1  0
  5 28  1  0
  8 29  1  0
  8 30  1  0
  8 31  1  0
  9 32  1  0
  9 33  1  0
  9 34  1  0
 12 35  1  0
 12 36  1  0
 12 37  1  0
 13 38  1  0
 13 39  1  0
 13 40  1  0
 14 41  1  0
 14 42  1  0
 16 43  1  0
 16 44  1  0
 16 45  1  0
M  END
>  <Binding energies>  (1) 
[-5.12]

>  <Ligand effiencies>  (1) 
[-0.3011764705882353]

>  <Interactions>  (1) 
["V-B:TYR:539:CA:9841, V-A:ILE:369:CG2:3237, V-B:PRO:540:CA:9855, V-A:ASP:366:CA:3210, V-A:GLY:454:CA:4049, V-A:ILE:369:CB:3236, V-B:TYR:539:CE2:9848, V-B:TYR:539:C:9839, V-A:ASP:366:CG:3213, V-B:TYR:539:CZ:9849, H-A:ASN:370:N:3244, H-B:TYR:539:OH:9850, V-B:PRO:540:CB:9857, V-B:PRO:540:N:9856, V-A:ILE:369:CD1:3239, V-B:TYR:539:CD2:9846, V-B:PRO:540:CD:9859, V-A:ASP:366:CB:3212, V-A:LEU:475:CD2:4259, V-A:ARG:545:CZ:4926, V-B:TYR:539:CG:9844, V-B:TYR:539:CD1:9845, V-B:TYR:539:CE1:9847"]

$$$$
ZINC2201912369
     RDKit          3D

 48 50  0  0  0  0  0  0  0  0999 V2000
  129.1180  133.1860   61.9300 C   0  0  0  0  0  0  0  0  0  0  0  0
  129.6560  131.7670   62.2340 C   0  0  0  0  0  0  0  0  0  0  0  0
  131.0460  131.8480   62.9150 C   0  0  0  0  0  0  0  0  0  0  0  0
  129.7830  130.9690   60.9210 C   0  0  0  0  0  0  0  0  0  0  0  0
  128.6930  131.0250   63.0050 O   0  0  0  0  0  0  0  0  0  0  0  0
  128.2310  131.3720   64.2410 C   0  0  0  0  0  0  0  0  0  0  0  0
  127.8830  132.5030   64.5800 O   0  0  0  0  0  0  0  0  0  0  0  0
  128.1870  130.2530   65.0560 N   0  0  0  0  0  0  0  0  0  0  0  0
  127.9340  128.8220   64.7760 C   0  0  0  0  0  0  0  0  0  0  0  0
  127.7760  128.6630   66.3030 C   0  0  0  0  0  0  0  0  0  0  0  0
  128.5160  127.4940   66.9360 C   0  0  0  0  0  0  0  0  0  0  0  0
  128.5760  127.1650   68.2890 C   0  0  0  0  0  0  0  0  0  0  0  0
  129.4780  125.6930   68.4960 S   0  0  0  0  0  0  0  0  0  0  0  0
  129.7050  125.6590   66.7810 C   0  0  0  0  0  0  0  0  0  0  0  0
  130.3980  124.6130   66.2210 N   0  0  0  0  0  0  0  0  0  0  0  0
  130.1120  123.9240   64.9660 C   0  0  0  0  0  0  0  0  0  0  0  0
  131.3420  123.7650   64.0730 C   0  0  0  0  0  0  0  0  0  0  0  0
  131.3200  122.7910   63.0700 C   0  0  0  0  0  0  0  0  0  0  0  0
  132.4280  122.5960   62.2490 C   0  0  0  0  0  0  0  0  0  0  0  0
  132.3750  121.2620   60.8950 Br  0  0  0  0  0  0  0  0  0  0  0  0
  133.5680  123.3800   62.4180 C   0  0  0  0  0  0  0  0  0  0  0  0
  133.5980  124.3650   63.4050 C   0  0  0  0  0  0  0  0  0  0  0  0
  134.7090  125.1230   63.5550 F   0  0  0  0  0  0  0  0  0  0  0  0
  132.4860  124.5650   64.2330 C   0  0  0  0  0  0  0  0  0  0  0  0
  132.5330  125.5430   65.1960 O   0  0  0  0  0  0  0  0  0  0  0  0
  129.1600  126.6620   66.1360 N   0  0  0  0  0  0  0  0  0  0  0  0
  128.3540  130.0790   66.5170 C   0  0  0  0  0  0  0  0  0  0  0  0
  128.9183  133.7126   62.8749 H   0  0  0  0  0  0  0  0  0  0  0  0
  129.8665  133.7453   61.3495 H   0  0  0  0  0  0  0  0  0  0  0  0
  128.1868  133.1085   61.3495 H   0  0  0  0  0  0  0  0  0  0  0  0
  130.9199  131.8407   64.0077 H   0  0  0  0  0  0  0  0  0  0  0  0
  131.6545  130.9838   62.6103 H   0  0  0  0  0  0  0  0  0  0  0  0
  131.5500  132.7770   62.6103 H   0  0  0  0  0  0  0  0  0  0  0  0
  129.9520  129.9070   61.1523 H   0  0  0  0  0  0  0  0  0  0  0  0
  128.8568  131.0742   60.3369 H   0  0  0  0  0  0  0  0  0  0  0  0
  130.6308  131.3565   60.3369 H   0  0  0  0  0  0  0  0  0  0  0  0
  127.0253  128.6167   64.1911 H   0  0  0  0  0  0  0  0  0  0  0  0
  128.6258  128.2035   64.1853 H   0  0  0  0  0  0  0  0  0  0  0  0
  126.8007  128.4082   66.7433 H   0  0  0  0  0  0  0  0  0  0  0  0
  128.1213  127.7485   69.1031 H   0  0  0  0  0  0  0  0  0  0  0  0
  131.3160  124.3860   66.5770 H   0  0  0  0  0  0  0  0  0  0  0  0
  129.7169  122.9240   65.1983 H   0  0  0  0  0  0  0  0  0  0  0  0
  129.3845  124.5377   64.4144 H   0  0  0  0  0  0  0  0  0  0  0  0
  130.4205  122.1739   62.9283 H   0  0  0  0  0  0  0  0  0  0  0  0
  134.4446  123.2218   61.7725 H   0  0  0  0  0  0  0  0  0  0  0  0
  131.8250  126.1840   65.1070 H   0  0  0  0  0  0  0  0  0  0  0  0
  127.7361  130.7443   67.1379 H   0  0  0  0  0  0  0  0  0  0  0  0
  129.3113  130.2566   67.0288 H   0  0  0  0  0  0  0  0  0  0  0  0
  1  2  1  0
  2  3  1  0
  2  4  1  0
  2  5  1  0
  5  6  1  0
  6  7  2  0
  6  8  1  0
  8  9  1  0
  9 10  1  0
 10 11  1  0
 11 12  2  0
 12 13  1  0
 13 14  1  0
 14 15  1  0
 15 16  1  0
 16 17  1  0
 17 18  2  0
 18 19  1  0
 19 20  1  0
 19 21  2  0
 21 22  1  0
 22 23  1  0
 22 24  2  0
 24 25  1  0
 14 26  2  0
 10 27  1  0
 27  8  1  0
 26 11  1  0
 24 17  1  0
  1 28  1  0
  1 29  1  0
  1 30  1  0
  3 31  1  0
  3 32  1  0
  3 33  1  0
  4 34  1  0
  4 35  1  0
  4 36  1  0
  9 37  1  0
  9 38  1  0
 10 39  1  0
 12 40  1  0
 15 41  1  0
 16 42  1  0
 16 43  1  0
 18 44  1  0
 21 45  1  0
 25 46  1  0
 27 47  1  0
 27 48  1  0
M  END
>  <Binding energies>  (1) 
[-6.85]

>  <Ligand effiencies>  (1) 
[-0.23620689655172414]

>  <Interactions>  (1) 
["V-A:GLU:543:CA:4904, V-A:ALA:541:C:4888, V-B:GLU:543:C:9874, H-A:GLU:543:OE2:4910, V-A:GLY:454:CA:4049, V-B:GLU:543:CB:9878, V-A:PRO:540:C:4881, V-B:TYR:539:CE2:9848, V-A:TYR:484:CE2:4346, V-B:GLU:543:CG:9879, V-B:TYR:484:CE2:9317, V-A:ALA:541:CB:4892, V-A:GLU:543:CD:4908, V-A:TYR:484:CZ:4347, H-B:TYR:484:OH:9319, V-B:HIS:456:CE1:9041, V-B:GLU:543:CA:9876, V-A:GLY:453:C:4042, V-A:HIS:456:CE1:4070, V-B:TYR:484:CZ:9318, V-A:ALA:541:CA:4890, V-B:TYR:539:CD2:9846, V-A:GLU:543:CG:4907, V-B:GLU:543:CD:9880, V-A:LEU:475:CD2:4259, H-A:ARG:545:NH2:4928, V-A:ARG:545:CZ:4926, H-A:GLU:543:OE1:4909, V-A:GLU:543:CB:4906, V-A:GLY:453:CA:4044, V-A:PRO:540:CA:4883, H-A:ARG:545:NE:4924, H-A:TYR:484:OH:4348"]

$$$$
ZINC220241004
     RDKit          3D

 66 69  0  0  0  0  0  0  0  0999 V2000
  129.7950  121.1660   61.6130 C   0  0  0  0  0  0  0  0  0  0  0  0
  130.5160  122.3720   60.9810 C   0  0  0  0  0  0  0  0  0  0  0  0
  131.7320  122.7800   61.8340 C   0  0  0  0  0  0  0  0  0  0  0  0
  129.5120  123.5240   60.7060 C   0  0  0  0  0  0  0  0  0  0  0  0
  128.6020  123.9780   61.8930 C   0  0  1  0  0  0  0  0  0  0  0  0
  127.3190  123.1340   62.0940 C   0  0  0  0  0  0  0  0  0  0  0  0
  129.3500  123.9760   63.1010 O   0  0  0  0  0  0  0  0  0  0  0  0
  129.4070  125.2400   63.5590 C   0  0  0  0  0  0  0  0  0  0  0  0
  130.1770  125.3850   64.8250 C   0  0  0  0  0  0  0  0  0  0  0  0
  131.5780  125.3690   64.8540 C   0  0  0  0  0  0  0  0  0  0  0  0
  132.1960  125.4890   66.0990 C   0  0  0  0  0  0  0  0  0  0  0  0
  131.4910  125.6160   67.2530 N   0  0  0  0  0  0  0  0  0  0  0  0
  130.1380  125.6330   67.1450 C   0  0  0  0  0  0  0  0  0  0  0  0
  129.4400  125.7800   68.3540 N   0  0  0  0  0  0  0  0  0  0  0  0
  129.5360  126.9880   69.1710 C   0  0  0  0  0  0  0  0  0  0  0  0
  128.3470  127.1750   70.1280 C   0  0  0  0  0  0  0  0  0  0  0  0
  128.5480  126.6020   71.4690 C   0  0  0  0  0  0  0  0  0  0  0  0
  128.7040  126.1480   72.5220 N   0  0  0  0  0  0  0  0  0  0  0  0
  129.4530  125.5180   65.9730 N   0  0  0  0  0  0  0  0  0  0  0  0
  128.7480  126.1430   62.8080 C   0  0  0  0  0  0  0  0  0  0  0  0
  128.6240  127.6000   63.0060 C   0  0  0  0  0  0  0  0  0  0  0  0
  128.1460  128.0920   64.2190 C   0  0  0  0  0  0  0  0  0  0  0  0
  128.0260  129.4620   64.4170 C   0  0  0  0  0  0  0  0  0  0  0  0
  128.3790  130.3450   63.4010 C   0  0  0  0  0  0  0  0  0  0  0  0
  128.8570  129.8910   62.1580 C   0  0  0  0  0  0  0  0  0  0  0  0
  129.2250  130.7080   61.1100 N   0  0  0  0  0  0  0  0  0  0  0  0
  130.6200  131.4060   60.8990 S   0  0  0  0  0  0  0  0  0  0  0  0
  130.8740  132.5770   61.7470 O   0  0  0  0  0  0  0  0  0  0  0  0
  131.7250  130.4440   60.8150 O   0  0  0  0  0  0  0  0  0  0  0  0
  130.4280  132.0070   59.2010 C   0  0  0  0  0  0  0  0  0  0  0  0
  129.2310  132.5860   58.7430 C   0  0  0  0  0  0  0  0  0  0  0  0
  128.1510  132.7210   59.5440 F   0  0  0  0  0  0  0  0  0  0  0  0
  129.1330  133.0490   57.4290 C   0  0  0  0  0  0  0  0  0  0  0  0
  130.2210  132.9540   56.5650 C   0  0  0  0  0  0  0  0  0  0  0  0
  131.4140  132.3960   57.0140 C   0  0  0  0  0  0  0  0  0  0  0  0
  131.5230  131.9270   58.3230 C   0  0  0  0  0  0  0  0  0  0  0  0
  132.6960  131.3820   58.7200 F   0  0  0  0  0  0  0  0  0  0  0  0
  128.9630  128.4980   61.9830 C   0  0  0  0  0  0  0  0  0  0  0  0
  129.4050  127.9960   60.8010 F   0  0  0  0  0  0  0  0  0  0  0  0
  128.1770  125.4430   61.6800 C   0  0  0  0  0  0  0  0  0  0  0  0
  127.5120  125.9450   60.7730 O   0  0  0  0  0  0  0  0  0  0  0  0
  129.8417  121.2441   62.7092 H   0  0  0  0  0  0  0  0  0  0  0  0
  128.7434  121.1573   61.2905 H   0  0  0  0  0  0  0  0  0  0  0  0
  130.2851  120.2355   61.2905 H   0  0  0  0  0  0  0  0  0  0  0  0
  130.9223  122.0921   59.9979 H   0  0  0  0  0  0  0  0  0  0  0  0
  131.4770  122.6944   62.9006 H   0  0  0  0  0  0  0  0  0  0  0  0
  132.5794  122.1170   61.6053 H   0  0  0  0  0  0  0  0  0  0  0  0
  132.0080  123.8200   61.6053 H   0  0  0  0  0  0  0  0  0  0  0  0
  130.0938  124.3994   60.3816 H   0  0  0  0  0  0  0  0  0  0  0  0
  128.8172  123.1208   59.9546 H   0  0  0  0  0  0  0  0  0  0  0  0
  127.1277  123.0082   63.1699 H   0  0  0  0  0  0  0  0  0  0  0  0
  126.4654  123.6476   61.6274 H   0  0  0  0  0  0  0  0  0  0  0  0
  127.4526  122.1469   61.6274 H   0  0  0  0  0  0  0  0  0  0  0  0
  132.1675  125.2658   63.9310 H   0  0  0  0  0  0  0  0  0  0  0  0
  133.2949  125.4804   66.1479 H   0  0  0  0  0  0  0  0  0  0  0  0
  129.1010  124.9400   68.8010 H   0  0  0  0  0  0  0  0  0  0  0  0
  130.4584  126.9328   69.7678 H   0  0  0  0  0  0  0  0  0  0  0  0
  129.5364  127.8460   68.4826 H   0  0  0  0  0  0  0  0  0  0  0  0
  128.1616  128.2535   70.2393 H   0  0  0  0  0  0  0  0  0  0  0  0
  127.4978  126.6370   69.6815 H   0  0  0  0  0  0  0  0  0  0  0  0
  127.8632  127.3945   65.0212 H   0  0  0  0  0  0  0  0  0  0  0  0
  127.6521  129.8485   65.3766 H   0  0  0  0  0  0  0  0  0  0  0  0
  128.2817  131.4269   63.5743 H   0  0  0  0  0  0  0  0  0  0  0  0
  128.1905  133.4915   57.0743 H   0  0  0  0  0  0  0  0  0  0  0  0
  130.1376  133.3190   55.5307 H   0  0  0  0  0  0  0  0  0  0  0  0
  132.2752  132.3244   56.3334 H   0  0  0  0  0  0  0  0  0  0  0  0
  1  2  1  0
  2  3  1  0
  2  4  1  0
  5  4  1  6
  5  6  1  0
  5  7  1  0
  7  8  1  0
  8  9  1  0
  9 10  2  0
 10 11  1  0
 11 12  2  0
 12 13  1  0
 13 14  1  0
 14 15  1  0
 15 16  1  0
 16 17  1  0
 17 18  3  0
 13 19  2  0
  8 20  2  0
 20 21  1  0
 21 22  2  0
 22 23  1  0
 23 24  2  0
 24 25  1  0
 25 26  1  0
 26 27  1  0
 27 28  2  0
 27 29  2  0
 27 30  1  0
 30 31  2  0
 31 32  1  0
 31 33  1  0
 33 34  2  0
 34 35  1  0
 35 36  2  0
 36 37  1  0
 25 38  2  0
 38 39  1  0
 20 40  1  0
 40 41  2  0
 40  5  1  0
 19  9  1  0
 38 21  1  0
 36 30  1  0
  1 42  1  0
  1 43  1  0
  1 44  1  0
  2 45  1  0
  3 46  1  0
  3 47  1  0
  3 48  1  0
  4 49  1  0
  4 50  1  0
  6 51  1  0
  6 52  1  0
  6 53  1  0
 10 54  1  0
 11 55  1  0
 14 56  1  0
 15 57  1  0
 15 58  1  0
 16 59  1  0
 16 60  1  0
 22 61  1  0
 23 62  1  0
 24 63  1  0
 33 64  1  0
 34 65  1  0
 35 66  1  0
M  CHG  1  26  -1
M  END
>  <Binding energies>  (1) 
[-7.87]

>  <Ligand effiencies>  (1) 
[-0.18738095238095237]

>  <Interactions>  (1) 
["V-B:PRO:540:CA:9855, V-B:GLU:543:C:9874, H-B:GLU:543:O:9875, H-A:ALA:541:N:4891, V-B:GLU:543:CB:9878, H-B:LYS:547:NZ:9923, V-A:ILE:538:CB:4862, V-B:ALA:541:CB:9864, V-B:TYR:539:CE2:9848, V-B:GLU:543:CG:9879, V-A:TYR:539:CD1:4873, V-A:LEU:363:CD1:3189, V-A:ILE:538:CA:4860, V-A:GLU:543:CD:4908, V-A:TYR:484:CZ:4347, V-B:GLU:543:CA:9876, V-B:HIS:456:CE1:9041, V-A:HIS:456:CE1:4070, V-B:TYR:539:CD2:9846, V-A:GLU:543:CG:4907, V-B:GLU:543:CD:9880, V-A:TYR:539:C:4867, V-A:LEU:475:CD2:4259, V-A:ARG:545:CZ:4926, V-A:PRO:540:N:4884, V-A:TYR:539:CG:4872, V-A:PRO:540:CB:4885, V-A:PRO:540:CA:4883, V-A:TYR:539:CE1:4875, H-A:HIS:456:NE2:4071, H-A:TYR:484:OH:4348"]

$$$$
ZINC22064913
     RDKit          3D

 57 58  0  0  0  0  0  0  0  0999 V2000
  128.3610  122.4640   59.9230 C   0  0  0  0  0  0  0  0  0  0  0  0
  128.8400  121.3880   60.7190 O   0  0  0  0  0  0  0  0  0  0  0  0
  129.8480  121.5600   61.6120 C   0  0  0  0  0  0  0  0  0  0  0  0
  129.7860  121.1030   62.7560 O   0  0  0  0  0  0  0  0  0  0  0  0
  131.0170  122.3280   61.0650 C   0  0  0  0  0  0  0  0  0  0  0  0
  132.1580  121.7410   60.5850 C   0  0  0  0  0  0  0  0  0  0  0  0
  132.4010  120.2190   60.5560 C   0  0  0  0  0  0  0  0  0  0  0  0
  133.5050  119.9220   59.7420 O   0  0  0  0  0  0  0  0  0  0  0  0
  133.2150  119.1350   58.5940 C   0  0  0  0  0  0  0  0  0  0  0  0
  131.2490  119.5230   60.1520 O   0  0  0  0  0  0  0  0  0  0  0  0
  130.8670  118.3790   60.9110 C   0  0  0  0  0  0  0  0  0  0  0  0
  133.1490  122.5020   60.0060 N   0  0  0  0  0  0  0  0  0  0  0  0
  133.0890  123.8590   59.7970 C   0  0  0  0  0  0  0  0  0  0  0  0
  134.2740  124.3540   58.9680 C   0  0  0  0  0  0  0  0  0  0  0  0
  132.0120  124.5670   60.2430 C   0  0  0  0  0  0  0  0  0  0  0  0
  131.9100  126.0450   60.0570 C   0  0  0  0  0  0  0  0  0  0  0  0
  131.7200  126.8440   60.9780 O   0  0  0  0  0  0  0  0  0  0  0  0
  132.0190  126.4390   58.7580 O   0  0  0  0  0  0  0  0  0  0  0  0
  130.8830  126.7020   57.9340 C   0  0  0  0  0  0  0  0  0  0  0  0
  130.1680  127.9370   58.5030 C   0  0  0  0  0  0  0  0  0  0  0  0
  129.9510  125.4760   57.8730 C   0  0  0  0  0  0  0  0  0  0  0  0
  130.8910  123.8880   61.0950 C   0  0  2  0  0  0  0  0  0  0  0  0
  130.8510  124.4370   62.5350 C   0  0  0  0  0  0  0  0  0  0  0  0
  129.6290  124.7890   63.1160 C   0  0  0  0  0  0  0  0  0  0  0  0
  129.5820  125.2790   64.4180 C   0  0  0  0  0  0  0  0  0  0  0  0
  130.7570  125.4230   65.1540 C   0  0  0  0  0  0  0  0  0  0  0  0
  131.9980  125.0790   64.5970 C   0  0  0  0  0  0  0  0  0  0  0  0
  133.2500  125.2280   65.3780 N   0  0  0  0  0  0  0  0  0  0  0  0
  134.3240  125.0960   64.7980 O   0  0  0  0  0  0  0  0  0  0  0  0
  133.1680  125.4750   66.5780 O   0  0  0  0  0  0  0  0  0  0  0  0
  132.0270  124.5890   63.2830 C   0  0  0  0  0  0  0  0  0  0  0  0
  128.0013  123.2721   60.5769 H   0  0  0  0  0  0  0  0  0  0  0  0
  129.1761  122.8415   59.2881 H   0  0  0  0  0  0  0  0  0  0  0  0
  127.5350  122.1110   59.2881 H   0  0  0  0  0  0  0  0  0  0  0  0
  132.6306  119.8815   61.5775 H   0  0  0  0  0  0  0  0  0  0  0  0
  132.8507  118.1463   58.9097 H   0  0  0  0  0  0  0  0  0  0  0  0
  132.4422  119.6355   57.9920 H   0  0  0  0  0  0  0  0  0  0  0  0
  134.1277  119.0144   57.9920 H   0  0  0  0  0  0  0  0  0  0  0  0
  130.9437  118.6086   61.9840 H   0  0  0  0  0  0  0  0  0  0  0  0
  129.8293  118.1071   60.6674 H   0  0  0  0  0  0  0  0  0  0  0  0
  131.5331  117.5382   60.6674 H   0  0  0  0  0  0  0  0  0  0  0  0
  133.9750  122.0170   59.6870 H   0  0  0  0  0  0  0  0  0  0  0  0
  135.0772  124.6895   59.6405 H   0  0  0  0  0  0  0  0  0  0  0  0
  134.6449  123.5356   58.3335 H   0  0  0  0  0  0  0  0  0  0  0  0
  133.9526  125.1931   58.3335 H   0  0  0  0  0  0  0  0  0  0  0  0
  131.1960  126.9024   56.8987 H   0  0  0  0  0  0  0  0  0  0  0  0
  130.1898  127.8993   59.6021 H   0  0  0  0  0  0  0  0  0  0  0  0
  130.6784  128.8480   58.1571 H   0  0  0  0  0  0  0  0  0  0  0  0
  129.1238  127.9480   58.1571 H   0  0  0  0  0  0  0  0  0  0  0  0
  129.7044  125.1517   58.8948 H   0  0  0  0  0  0  0  0  0  0  0  0
  129.0267  125.7442   57.3403 H   0  0  0  0  0  0  0  0  0  0  0  0
  130.4567  124.6571   57.3403 H   0  0  0  0  0  0  0  0  0  0  0  0
  129.9266  124.1456   60.6328 H   0  0  0  0  0  0  0  0  0  0  0  0
  128.6983  124.6780   62.5402 H   0  0  0  0  0  0  0  0  0  0  0  0
  128.6159  125.5531   64.8669 H   0  0  0  0  0  0  0  0  0  0  0  0
  130.7108  125.8105   66.1825 H   0  0  0  0  0  0  0  0  0  0  0  0
  132.9922  124.3184   62.8301 H   0  0  0  0  0  0  0  0  0  0  0  0
  1  2  1  0
  2  3  1  0
  3  4  2  0
  3  5  1  0
  5  6  2  0
  6  7  1  0
  7  8  1  0
  8  9  1  0
  7 10  1  0
 10 11  1  0
  6 12  1  0
 12 13  1  0
 13 14  1  0
 13 15  2  0
 15 16  1  0
 16 17  2  0
 16 18  1  0
 18 19  1  0
 19 20  1  0
 19 21  1  0
 15 22  1  0
 22 23  1  0
 23 24  2  0
 24 25  1  0
 25 26  2  0
 26 27  1  0
 27 28  1  0
 28 29  2  0
 28 30  1  0
 27 31  2  0
 22  5  1  0
 31 23  1  0
  1 32  1  0
  1 33  1  0
  1 34  1  0
  7 35  1  0
  9 36  1  0
  9 37  1  0
  9 38  1  0
 11 39  1  0
 11 40  1  0
 11 41  1  0
 12 42  1  0
 14 43  1  0
 14 44  1  0
 14 45  1  0
 19 46  1  0
 20 47  1  0
 20 48  1  0
 20 49  1  0
 21 50  1  0
 21 51  1  0
 21 52  1  0
 22 53  1  6
 24 54  1  0
 25 55  1  0
 26 56  1  0
 31 57  1  0
M  CHG  2  28   1  30  -1
M  END
>  <Binding energies>  (1) 
[-6.0]

>  <Ligand effiencies>  (1) 
[-0.1875]

>  <Interactions>  (1) 
["V-A:ILE:369:CG2:3237, V-A:ASP:366:CA:3210, V-B:PRO:540:CA:9855, V-A:ILE:369:CB:3236, V-B:ALA:541:CB:9864, H-A:ARG:545:NH1:4927, H-A:TYR:531:OH:4795, V-B:TYR:539:CE2:9848, V-B:GLU:543:CG:9879, V-B:TYR:539:C:9839, V-A:ASP:366:CG:3213, V-B:TYR:539:CZ:9849, H-B:ALA:541:N:9863, V-A:GLU:543:CD:4908, H-A:GLY:454:N:4050, V-B:PRO:540:N:9856, V-A:ILE:369:CD1:3239, V-A:ASP:366:C:3208, V-B:TYR:539:CD2:9846, V-A:SER:385:CB:3409, H-A:SER:385:OG:3410, V-B:GLU:543:CD:9880, V-A:ASP:366:CB:3212, V-A:ARG:545:CD:4923, V-A:LEU:475:CD2:4259, H-A:ARG:545:NH2:4928, V-A:ARG:545:CZ:4926, V-B:TYR:539:CG:9844, H-A:HIS:383:HE2:3395, V-A:HIS:383:CD2:3392, H-A:ARG:545:NE:4924, V-A:HIS:383:NE2:3394, H-A:TYR:484:OH:4348"]

$$$$
ZINC2211520
     RDKit          3D

 53 56  0  0  0  0  0  0  0  0999 V2000
  133.5050  122.5130   61.5560 C   0  0  0  0  0  0  0  0  0  0  0  0
  133.8550  124.0260   61.5640 C   0  0  0  0  0  0  0  0  0  0  0  0
  135.1270  124.3260   62.3870 C   0  0  0  0  0  0  0  0  0  0  0  0
  134.1060  124.5240   60.1160 C   0  0  0  0  0  0  0  0  0  0  0  0
  132.8530  124.5360   59.2210 C   0  0  0  0  0  0  0  0  0  0  0  0
  132.9620  124.5620   57.9960 O   0  0  0  0  0  0  0  0  0  0  0  0
  131.5460  124.6600   59.9020 C   0  0  0  0  0  0  0  0  0  0  0  0
  131.4350  124.8020   61.2590 C   0  0  0  0  0  0  0  0  0  0  0  0
  132.6840  124.8600   62.1630 C   0  0  0  0  0  0  0  0  0  0  0  0
  130.1620  124.7220   61.8640 N   0  0  0  0  0  0  0  0  0  0  0  0
  130.0120  125.1340   63.2080 C   0  0  0  0  0  0  0  0  0  0  0  0
  129.3860  126.3470   63.5190 C   0  0  0  0  0  0  0  0  0  0  0  0
  129.2290  126.7310   64.8470 C   0  0  0  0  0  0  0  0  0  0  0  0
  129.6980  125.9010   65.8680 C   0  0  0  0  0  0  0  0  0  0  0  0
  129.5020  126.3700   67.5840 S   0  0  0  0  0  0  0  0  0  0  0  0
  131.0260  127.1200   68.0190 N   0  0  0  0  0  0  0  0  0  0  0  0
  128.4600  127.4010   67.6560 O   0  0  0  0  0  0  0  0  0  0  0  0
  129.3880  125.1250   68.3510 O   0  0  0  0  0  0  0  0  0  0  0  0
  130.3200  124.6900   65.5640 C   0  0  0  0  0  0  0  0  0  0  0  0
  130.4760  124.3070   64.2350 C   0  0  0  0  0  0  0  0  0  0  0  0
  129.0770  124.1720   61.1540 C   0  0  0  0  0  0  0  0  0  0  0  0
  128.0270  123.6800   61.9000 N   0  0  0  0  0  0  0  0  0  0  0  0
  129.1650  123.9950   59.8140 C   0  0  0  0  0  0  0  0  0  0  0  0
  128.1990  123.2280   59.0910 C   0  0  0  0  0  0  0  0  0  0  0  0
  127.4040  122.6130   58.5170 N   0  0  0  0  0  0  0  0  0  0  0  0
  130.2740  124.6990   59.0280 C   0  0  1  0  0  0  0  0  0  0  0  0
  129.8960  126.1490   58.7450 C   0  0  0  0  0  0  0  0  0  0  0  0
  130.1700  127.3710   59.3540 C   0  0  0  0  0  0  0  0  0  0  0  0
  129.5260  128.3590   58.6100 C   0  0  0  0  0  0  0  0  0  0  0  0
  128.8780  127.7050   57.5790 C   0  0  0  0  0  0  0  0  0  0  0  0
  129.0990  126.3680   57.6630 O   0  0  0  0  0  0  0  0  0  0  0  0
  133.4212  122.1506   62.5912 H   0  0  0  0  0  0  0  0  0  0  0  0
  132.5479  122.3608   61.0356 H   0  0  0  0  0  0  0  0  0  0  0  0
  134.2980  121.9560   61.0356 H   0  0  0  0  0  0  0  0  0  0  0  0
  134.8911  124.2704   63.4600 H   0  0  0  0  0  0  0  0  0  0  0  0
  135.9041  123.5865   62.1436 H   0  0  0  0  0  0  0  0  0  0  0  0
  135.4918  125.3348   62.1436 H   0  0  0  0  0  0  0  0  0  0  0  0
  134.5011  125.5493   60.1685 H   0  0  0  0  0  0  0  0  0  0  0  0
  134.8118  123.8152   59.6583 H   0  0  0  0  0  0  0  0  0  0  0  0
  133.0049  125.9073   62.2640 H   0  0  0  0  0  0  0  0  0  0  0  0
  132.4226  124.4368   63.1441 H   0  0  0  0  0  0  0  0  0  0  0  0
  129.0177  126.9975   62.7121 H   0  0  0  0  0  0  0  0  0  0  0  0
  128.7376  127.6842   65.0919 H   0  0  0  0  0  0  0  0  0  0  0  0
  131.8450  126.7240   67.5510 H   0  0  0  0  0  0  0  0  0  0  0  0
  131.0120  128.1430   68.0180 H   0  0  0  0  0  0  0  0  0  0  0  0
  130.6861  124.0397   66.3721 H   0  0  0  0  0  0  0  0  0  0  0  0
  130.9652  123.3521   63.9925 H   0  0  0  0  0  0  0  0  0  0  0  0
  127.4150  124.3060   62.4030 H   0  0  0  0  0  0  0  0  0  0  0  0
  127.7330  122.7180   61.8070 H   0  0  0  0  0  0  0  0  0  0  0  0
  130.4342  124.1962   58.0628 H   0  0  0  0  0  0  0  0  0  0  0  0
  130.7812  127.5278   60.2550 H   0  0  0  0  0  0  0  0  0  0  0  0
  129.5324  129.4416   58.8045 H   0  0  0  0  0  0  0  0  0  0  0  0
  128.2717  128.1961   56.8036 H   0  0  0  0  0  0  0  0  0  0  0  0
  1  2  1  0
  2  3  1  0
  2  4  1  0
  4  5  1  0
  5  6  2  0
  5  7  1  0
  7  8  2  0
  8  9  1  0
  8 10  1  0
 10 11  1  0
 11 12  2  0
 12 13  1  0
 13 14  2  0
 14 15  1  0
 15 16  1  0
 15 17  2  0
 15 18  2  0
 14 19  1  0
 19 20  2  0
 10 21  1  0
 21 22  1  0
 21 23  2  0
 23 24  1  0
 24 25  3  0
 23 26  1  0
 26 27  1  0
 27 28  2  0
 28 29  1  0
 29 30  2  0
 30 31  1  0
  9  2  1  0
 20 11  1  0
 31 27  1  0
 26  7  1  0
  1 32  1  0
  1 33  1  0
  1 34  1  0
  3 35  1  0
  3 36  1  0
  3 37  1  0
  4 38  1  0
  4 39  1  0
  9 40  1  0
  9 41  1  0
 12 42  1  0
 13 43  1  0
 16 44  1  0
 16 45  1  0
 19 46  1  0
 20 47  1  0
 22 48  1  0
 22 49  1  0
 26 50  1  6
 28 51  1  0
 29 52  1  0
 30 53  1  0
M  END
>  <Binding energies>  (1) 
[-8.01]

>  <Ligand effiencies>  (1) 
[-0.22885714285714284]

>  <Interactions>  (1) 
["V-A:ILE:369:CG2:3237, V-A:ASP:366:CA:3210, V-B:PRO:540:CA:9855, H-A:GLU:543:OE2:4910, V-A:ILE:369:CB:3236, V-B:GLU:543:CB:9878, V-B:TYR:539:CE2:9848, V-A:TYR:484:CE2:4346, V-B:GLU:543:CG:9879, V-A:ASP:366:CG:3213, V-B:TYR:539:CZ:9849, H-B:GLU:543:OE1:9881, H-B:TYR:539:OH:9850, V-A:GLU:543:CD:4908, V-A:GLY:453:C:4042, V-A:ILE:369:CD1:3239, V-A:HIS:456:CE1:4070, V-B:TYR:539:CD2:9846, V-B:GLU:543:CD:9880, V-A:ASP:366:CB:3212, V-A:GLY:453:CA:4044"]

$$$$
ZINC2212317
     RDKit          3D

 31 32  0  0  0  0  0  0  0  0999 V2000
  128.3660  127.3850   66.8040 C   0  0  0  0  0  0  0  0  0  0  0  0
  129.6110  126.8400   67.5230 C   0  0  2  0  0  0  0  0  0  0  0  0
  129.7710  125.4050   67.2730 N   0  0  0  0  0  0  0  0  0  0  0  0
  130.5160  124.8750   66.2030 C   0  0  0  0  0  0  0  0  0  0  0  0
  131.7550  125.4630   65.9320 C   0  0  0  0  0  0  0  0  0  0  0  0
  132.5480  124.9890   64.8900 C   0  0  0  0  0  0  0  0  0  0  0  0
  132.1030  123.9190   64.1180 C   0  0  0  0  0  0  0  0  0  0  0  0
  133.2940  123.2050   62.5540 I   0  0  0  0  0  0  0  0  0  0  0  0
  130.8750  123.3180   64.3820 C   0  0  0  0  0  0  0  0  0  0  0  0
  130.0840  123.7920   65.4240 C   0  0  0  0  0  0  0  0  0  0  0  0
  129.5660  127.1950   69.0210 C   0  0  0  0  0  0  0  0  0  0  0  0
  128.3970  126.9800   69.7680 C   0  0  0  0  0  0  0  0  0  0  0  0
  128.3460  127.3060   71.1230 C   0  0  0  0  0  0  0  0  0  0  0  0
  129.4620  127.8610   71.7480 C   0  0  0  0  0  0  0  0  0  0  0  0
  129.4010  128.2640   73.4250 Cl  0  0  0  0  0  0  0  0  0  0  0  0
  130.6250  128.0930   71.0150 C   0  0  0  0  0  0  0  0  0  0  0  0
  130.6810  127.7670   69.6580 C   0  0  0  0  0  0  0  0  0  0  0  0
  131.8430  128.0190   68.9740 O   0  0  0  0  0  0  0  0  0  0  0  0
  127.6248  127.7095   67.5492 H   0  0  0  0  0  0  0  0  0  0  0  0
  128.6514  128.2405   66.1742 H   0  0  0  0  0  0  0  0  0  0  0  0
  127.9311  126.5950   66.1742 H   0  0  0  0  0  0  0  0  0  0  0  0
  130.5086  127.3250   67.1117 H   0  0  0  0  0  0  0  0  0  0  0  0
  129.0650  124.7990   67.6660 H   0  0  0  0  0  0  0  0  0  0  0  0
  132.1058  126.3056   66.5459 H   0  0  0  0  0  0  0  0  0  0  0  0
  133.5205  125.4573   64.6780 H   0  0  0  0  0  0  0  0  0  0  0  0
  130.5315  122.4716   63.7691 H   0  0  0  0  0  0  0  0  0  0  0  0
  129.1159  123.3153   65.6375 H   0  0  0  0  0  0  0  0  0  0  0  0
  127.5109  126.5494   69.2788 H   0  0  0  0  0  0  0  0  0  0  0  0
  127.4260  127.1254   71.6983 H   0  0  0  0  0  0  0  0  0  0  0  0
  131.5033  128.5352   71.5080 H   0  0  0  0  0  0  0  0  0  0  0  0
  131.7100  128.0850   68.0250 H   0  0  0  0  0  0  0  0  0  0  0  0
  1  2  1  0
  2  3  1  0
  3  4  1  0
  4  5  2  0
  5  6  1  0
  6  7  2  0
  7  8  1  0
  7  9  1  0
  9 10  2  0
  2 11  1  0
 11 12  2  0
 12 13  1  0
 13 14  2  0
 14 15  1  0
 14 16  1  0
 16 17  2  0
 17 18  1  0
 10  4  1  0
 17 11  1  0
  1 19  1  0
  1 20  1  0
  1 21  1  0
  2 22  1  6
  3 23  1  0
  5 24  1  0
  6 25  1  0
  9 26  1  0
 10 27  1  0
 12 28  1  0
 13 29  1  0
 16 30  1  0
 18 31  1  0
M  END
>  <Binding energies>  (1) 
[-6.66]

>  <Ligand effiencies>  (1) 
[-0.333]

>  <Interactions>  (1) 
["V-B:GLU:543:C:9874, H-A:GLU:543:OE2:4910, H-B:GLU:543:O:9875, V-A:GLU:543:C:4902, V-B:HIS:456:CD2:9039, V-B:GLU:543:CB:9878, V-A:TYR:484:CE2:4346, V-B:GLU:543:CG:9879, V-A:GLY:544:C:4912, H-A:ARG:545:N:4920, V-A:GLU:543:CD:4908, V-A:TYR:484:CZ:4347, V-B:HIS:456:CE1:9041, V-B:GLU:543:CA:9876, V-A:HIS:456:CE1:4070, V-B:GLU:543:CD:9880, V-A:LEU:475:CD2:4259, V-A:ARG:545:CZ:4926, V-A:GLU:543:CB:4906"]

$$$$
ZINC22135435
     RDKit          3D

 46 49  0  0  0  0  0  0  0  0999 V2000
  131.4480  127.7560   69.1210 C   0  0  0  0  0  0  0  0  0  0  0  0
  130.0720  127.5520   69.7450 C   0  0  0  0  0  0  0  0  0  0  0  0
  129.9100  127.7670   71.1170 C   0  0  0  0  0  0  0  0  0  0  0  0
  128.6660  127.5880   71.7220 C   0  0  0  0  0  0  0  0  0  0  0  0
  128.4660  127.8870   73.5910 Br  0  0  0  0  0  0  0  0  0  0  0  0
  127.5690  127.1900   70.9590 C   0  0  0  0  0  0  0  0  0  0  0  0
  127.7140  126.9740   69.5920 C   0  0  0  0  0  0  0  0  0  0  0  0
  128.9590  127.1580   68.9720 C   0  0  0  0  0  0  0  0  0  0  0  0
  129.0670  126.9210   67.5690 N   0  0  0  0  0  0  0  0  0  0  0  0
  129.5860  125.6880   67.2030 C   0  0  0  0  0  0  0  0  0  0  0  0
  129.9530  124.8500   68.0380 O   0  0  0  0  0  0  0  0  0  0  0  0
  129.6730  125.4180   65.7510 C   0  0  0  0  0  0  0  0  0  0  0  0
  130.0820  124.1790   65.3490 C   0  0  0  0  0  0  0  0  0  0  0  0
  130.2300  123.5830   64.0280 C   0  0  0  0  0  0  0  0  0  0  0  0
  129.6410  122.5010   63.3850 C   0  0  0  0  0  0  0  0  0  0  0  0
  130.2260  122.3990   62.1240 C   0  0  0  0  0  0  0  0  0  0  0  0
  131.1830  123.3980   62.0430 C   0  0  0  0  0  0  0  0  0  0  0  0
  132.1330  123.8300   60.9670 C   0  0  0  0  0  0  0  0  0  0  0  0
  131.5430  124.2100   59.7540 C   0  0  0  0  0  0  0  0  0  0  0  0
  132.3210  124.6530   58.6880 C   0  0  0  0  0  0  0  0  0  0  0  0
  133.7040  124.7220   58.8180 C   0  0  0  0  0  0  0  0  0  0  0  0
  134.3080  124.3420   60.0140 C   0  0  0  0  0  0  0  0  0  0  0  0
  133.5420  123.8860   61.1010 C   0  0  0  0  0  0  0  0  0  0  0  0
  134.2540  123.4550   62.3460 C   0  0  0  0  0  0  0  0  0  0  0  0
  134.7130  122.2900   62.3730 O   0  0  0  0  0  0  0  0  0  0  0  0
  134.3540  124.2930   63.2720 O   0  0  0  0  0  0  0  0  0  0  0  0
  131.1710  124.1110   63.2010 O   0  0  0  0  0  0  0  0  0  0  0  0
  129.3280  126.4690   64.7820 C   0  0  0  0  0  0  0  0  0  0  0  0
  129.4730  126.4230   63.5610 O   0  0  0  0  0  0  0  0  0  0  0  0
  128.8200  127.5980   65.3250 N   0  0  0  0  0  0  0  0  0  0  0  0
  128.6580  127.8900   66.6500 C   0  0  0  0  0  0  0  0  0  0  0  0
  128.0000  129.3940   66.9880 S   0  0  0  0  0  0  0  0  0  0  0  0
  132.1988  127.8673   69.9172 H   0  0  0  0  0  0  0  0  0  0  0  0
  131.7007  126.8855   68.4978 H   0  0  0  0  0  0  0  0  0  0  0  0
  131.4373  128.6624   68.4978 H   0  0  0  0  0  0  0  0  0  0  0  0
  130.7716  128.0802   71.7249 H   0  0  0  0  0  0  0  0  0  0  0  0
  126.5890  127.0468   71.4376 H   0  0  0  0  0  0  0  0  0  0  0  0
  126.8470  126.6570   68.9938 H   0  0  0  0  0  0  0  0  0  0  0  0
  130.3495  123.5055   66.1765 H   0  0  0  0  0  0  0  0  0  0  0  0
  128.8581  121.8462   63.7952 H   0  0  0  0  0  0  0  0  0  0  0  0
  129.9760  121.6660   61.3428 H   0  0  0  0  0  0  0  0  0  0  0  0
  130.4499  124.1575   59.6427 H   0  0  0  0  0  0  0  0  0  0  0  0
  131.8420  124.9485   57.7429 H   0  0  0  0  0  0  0  0  0  0  0  0
  134.3195  125.0760   57.9779 H   0  0  0  0  0  0  0  0  0  0  0  0
  135.4023  124.3996   60.1096 H   0  0  0  0  0  0  0  0  0  0  0  0
  128.5540  128.3470   64.7030 H   0  0  0  0  0  0  0  0  0  0  0  0
  1  2  1  0
  2  3  2  0
  3  4  1  0
  4  5  1  0
  4  6  2  0
  6  7  1  0
  7  8  2  0
  8  9  1  0
  9 10  1  0
 10 11  2  0
 10 12  1  0
 12 13  2  0
 13 14  1  0
 14 15  2  0
 15 16  1  0
 16 17  2  0
 17 18  1  0
 18 19  2  0
 19 20  1  0
 20 21  2  0
 21 22  1  0
 22 23  2  0
 23 24  1  0
 24 25  2  0
 24 26  1  0
 17 27  1  0
 12 28  1  0
 28 29  2  0
 28 30  1  0
 30 31  1  0
 31 32  2  0
  8  2  1  0
 31  9  1  0
 27 14  1  0
 23 18  1  0
  1 33  1  0
  1 34  1  0
  1 35  1  0
  3 36  1  0
  6 37  1  0
  7 38  1  0
 13 39  1  0
 15 40  1  0
 16 41  1  0
 19 42  1  0
 20 43  1  0
 21 44  1  0
 22 45  1  0
 30 46  1  0
M  CHG  1  26  -1
M  END
>  <Binding energies>  (1) 
[-8.82]

>  <Ligand effiencies>  (1) 
[-0.2672727272727273]

>  <Interactions>  (1) 
["V-A:ILE:369:CG2:3237, V-A:ASP:366:CA:3210, V-A:GLY:454:CA:4049, V-B:HIS:456:CD2:9039, H-A:GLU:543:OE2:4910, V-B:GLU:543:C:9874, V-A:GLU:543:C:4902, V-A:ILE:369:CB:3236, V-B:GLU:543:CB:9878, V-B:ALA:541:CB:9864, V-B:TYR:539:CE2:9848, V-A:TYR:484:CE2:4346, V-B:GLU:543:CG:9879, V-A:GLY:544:C:4912, V-A:ASP:366:CG:3213, V-B:TYR:539:CZ:9849, V-A:GLU:543:CD:4908, V-B:HIS:456:CE1:9041, V-B:GLU:543:CA:9876, H-A:GLY:454:N:4050, V-A:ARG:545:CG:4922, V-A:GLY:453:C:4042, V-A:HIS:456:CE1:4070, V-B:TYR:484:CZ:9318, V-A:ILE:369:CD1:3239, V-B:GLY:544:C:9884, V-A:ASP:366:C:3208, V-A:GLU:543:CG:4907, V-B:GLU:543:CD:9880, V-A:ASP:366:CB:3212, V-A:LEU:475:CD2:4259, H-A:GLU:543:OE1:4909, V-A:GLU:543:CB:4906, H-B:GLU:543:OE2:9882, H-A:TYR:484:OH:4348"]

$$$$
ZINC22135435-again1
     RDKit          3D

 45 48  0  0  0  0  0  0  0  0999 V2000
  131.5240  127.7230   69.0070 C   0  0  0  0  0  0  0  0  0  0  0  0
  130.1510  127.5420   69.6430 C   0  0  0  0  0  0  0  0  0  0  0  0
  129.9990  127.7870   71.0120 C   0  0  0  0  0  0  0  0  0  0  0  0
  128.7580  127.6310   71.6280 C   0  0  0  0  0  0  0  0  0  0  0  0
  128.5720  127.9670   73.4910 Br  0  0  0  0  0  0  0  0  0  0  0  0
  127.6520  127.2260   70.8800 C   0  0  0  0  0  0  0  0  0  0  0  0
  127.7880  126.9790   69.5150 C   0  0  0  0  0  0  0  0  0  0  0  0
  129.0300  127.1390   68.8850 C   0  0  0  0  0  0  0  0  0  0  0  0
  129.1310  126.8630   67.4890 N   0  0  0  0  0  0  0  0  0  0  0  0
  129.6750  125.6240   67.1600 C   0  0  0  0  0  0  0  0  0  0  0  0
  130.0890  124.8370   68.0230 O   0  0  0  0  0  0  0  0  0  0  0  0
  129.7350  125.3000   65.7150 C   0  0  0  0  0  0  0  0  0  0  0  0
  130.1370  124.0320   65.3800 C   0  0  0  0  0  0  0  0  0  0  0  0
  130.2650  123.3390   64.1060 C   0  0  0  0  0  0  0  0  0  0  0  0
  129.7910  122.1300   63.6110 C   0  0  0  0  0  0  0  0  0  0  0  0
  130.2740  121.9970   62.3100 C   0  0  0  0  0  0  0  0  0  0  0  0
  131.0630  123.1090   62.0580 C   0  0  0  0  0  0  0  0  0  0  0  0
  131.8330  123.5770   60.8630 C   0  0  0  0  0  0  0  0  0  0  0  0
  131.3990  124.7790   60.2910 C   0  0  0  0  0  0  0  0  0  0  0  0
  132.0580  125.3290   59.1940 C   0  0  0  0  0  0  0  0  0  0  0  0
  133.1620  124.6800   58.6500 C   0  0  0  0  0  0  0  0  0  0  0  0
  133.6010  123.4770   59.2000 C   0  0  0  0  0  0  0  0  0  0  0  0
  132.9490  122.9050   60.3040 C   0  0  0  0  0  0  0  0  0  0  0  0
  133.4440  121.5920   60.8260 C   0  0  0  0  0  0  0  0  0  0  0  0
  133.9550  121.5830   61.9690 O   0  0  0  0  0  0  0  0  0  0  0  0
  133.2980  120.5890   60.0910 O   0  0  0  0  0  0  0  0  0  0  0  0
  131.0480  123.9140   63.1550 O   0  0  0  0  0  0  0  0  0  0  0  0
  129.3460  126.3720   64.7800 C   0  0  0  0  0  0  0  0  0  0  0  0
  129.5080  126.2860   63.5510 O   0  0  0  0  0  0  0  0  0  0  0  0
  128.8760  127.4880   65.1830 N   0  0  0  0  0  0  0  0  0  0  0  0
  128.7050  127.7930   66.5260 C   0  0  0  0  0  0  0  0  0  0  0  0
  128.0130  129.2850   66.8610 S   0  0  0  0  0  0  0  0  0  0  0  0
  132.2835  127.8231   69.7964 H   0  0  0  0  0  0  0  0  0  0  0  0
  131.7572  126.8478   68.3827 H   0  0  0  0  0  0  0  0  0  0  0  0
  131.5224  128.6287   68.3827 H   0  0  0  0  0  0  0  0  0  0  0  0
  130.8668  128.1057   71.6080 H   0  0  0  0  0  0  0  0  0  0  0  0
  126.6736  127.1017   71.3671 H   0  0  0  0  0  0  0  0  0  0  0  0
  126.9152  126.6565   68.9284 H   0  0  0  0  0  0  0  0  0  0  0  0
  130.4188  123.4160   66.2467 H   0  0  0  0  0  0  0  0  0  0  0  0
  129.1531  121.4114   64.1464 H   0  0  0  0  0  0  0  0  0  0  0  0
  130.0685  121.1685   61.6162 H   0  0  0  0  0  0  0  0  0  0  0  0
  130.5252  125.2963   60.7139 H   0  0  0  0  0  0  0  0  0  0  0  0
  131.7059  126.2756   58.7581 H   0  0  0  0  0  0  0  0  0  0  0  0
  133.6874  125.1156   57.7873 H   0  0  0  0  0  0  0  0  0  0  0  0
  134.4721  122.9676   58.7622 H   0  0  0  0  0  0  0  0  0  0  0  0
  1  2  1  0
  2  3  2  0
  3  4  1  0
  4  5  1  0
  4  6  2  0
  6  7  1  0
  7  8  2  0
  8  9  1  0
  9 10  1  0
 10 11  2  0
 10 12  1  0
 12 13  2  0
 13 14  1  0
 14 15  2  0
 15 16  1  0
 16 17  2  0
 17 18  1  0
 18 19  2  0
 19 20  1  0
 20 21  2  0
 21 22  1  0
 22 23  2  0
 23 24  1  0
 24 25  2  0
 24 26  1  0
 17 27  1  0
 12 28  1  0
 28 29  1  0
 28 30  2  0
 30 31  1  0
 31 32  2  0
  8  2  1  0
 31  9  1  0
 27 14  1  0
 23 18  1  0
  1 33  1  0
  1 34  1  0
  1 35  1  0
  3 36  1  0
  6 37  1  0
  7 38  1  0
 13 39  1  0
 15 40  1  0
 16 41  1  0
 19 42  1  0
 20 43  1  0
 21 44  1  0
 22 45  1  0
M  CHG  2  26  -1  29  -1
M  END
>  <Binding energies>  (1) 
[-7.12]

>  <Ligand effiencies>  (1) 
[-0.2225]

>  <Interactions>  (1) 
["V-A:ILE:369:CG2:3237, V-A:ASP:366:CA:3210, V-B:HIS:456:CD2:9039, V-B:GLU:543:C:9874, V-A:GLU:543:C:4902, V-A:ILE:369:CB:3236, V-B:GLU:543:CB:9878, V-B:ALA:541:CB:9864, V-B:TYR:539:CE2:9848, V-A:TYR:484:CE2:4346, V-B:GLU:543:CG:9879, V-A:ASP:366:CG:3213, V-B:TYR:539:CZ:9849, V-A:TYR:484:CZ:4347, V-A:GLU:543:CD:4908, V-B:HIS:456:CE1:9041, V-B:GLU:543:CA:9876, V-A:ARG:545:CG:4922, V-A:HIS:456:CE1:4070, V-B:TYR:484:CZ:9318, V-B:GLY:544:C:9884, V-A:GLU:543:CG:4907, H-A:SER:385:OG:3410, V-B:GLU:543:CD:9880, V-A:ASP:366:CB:3212, V-A:LEU:475:CD2:4259, V-A:GLU:543:CB:4906, H-A:TYR:484:OH:4348"]

$$$$
ZINC2214156076
     RDKit          3D

 40 41  0  0  0  0  0  0  0  0999 V2000
  133.3310  124.4630   63.1280 C   0  0  0  0  0  0  0  0  0  0  0  0
  132.6580  125.0760   64.3700 C   0  0  0  0  0  0  0  0  0  0  0  0
  133.6300  125.0930   65.5670 C   0  0  0  0  0  0  0  0  0  0  0  0
  131.3240  124.3520   64.6840 C   0  0  0  0  0  0  0  0  0  0  0  0
  130.5080  125.0710   65.6600 N   0  0  0  0  0  0  0  0  0  0  0  0
  130.3060  124.7590   66.9780 C   0  0  0  0  0  0  0  0  0  0  0  0
  129.4750  125.7410   67.4940 C   0  0  0  0  0  0  0  0  0  0  0  0
  128.9750  125.8760   68.7620 N   0  0  0  0  0  0  0  0  0  0  0  0
  128.4840  127.1140   69.3560 C   0  0  2  0  0  0  0  0  0  0  0  0
  129.4870  128.2660   69.2020 C   0  0  0  0  0  0  0  0  0  0  0  0
  130.4380  128.1500   70.3970 C   0  0  0  0  0  0  0  0  0  0  0  0
  129.6270  127.5000   71.5340 C   0  0  1  0  0  0  0  0  0  0  0  0
  129.3970  128.4530   72.7270 C   0  0  0  0  0  0  0  0  0  0  0  0
  130.4890  129.3350   72.8920 O   0  0  0  0  0  0  0  0  0  0  0  0
  128.3260  126.9790   70.8800 C   0  0  0  0  0  0  0  0  0  0  0  0
  129.2570  126.5840   66.3940 C   0  0  0  0  0  0  0  0  0  0  0  0
  129.8710  126.1930   65.3010 N   0  0  0  0  0  0  0  0  0  0  0  0
  134.1096  123.7538   63.4454 H   0  0  0  0  0  0  0  0  0  0  0  0
  132.5773  123.9347   62.5257 H   0  0  0  0  0  0  0  0  0  0  0  0
  133.7868  125.2627   62.5257 H   0  0  0  0  0  0  0  0  0  0  0  0
  132.4041  126.1252   64.1584 H   0  0  0  0  0  0  0  0  0  0  0  0
  133.0562  125.0830   66.5054 H   0  0  0  0  0  0  0  0  0  0  0  0
  134.2793  124.2061   65.5247 H   0  0  0  0  0  0  0  0  0  0  0  0
  134.2479  126.0021   65.5247 H   0  0  0  0  0  0  0  0  0  0  0  0
  130.7499  124.2518   63.7510 H   0  0  0  0  0  0  0  0  0  0  0  0
  131.5721  123.3715   65.1164 H   0  0  0  0  0  0  0  0  0  0  0  0
  130.7219  123.8975   67.5210 H   0  0  0  0  0  0  0  0  0  0  0  0
  129.1260  125.1470   69.4450 H   0  0  0  0  0  0  0  0  0  0  0  0
  127.5340  127.3135   68.8387 H   0  0  0  0  0  0  0  0  0  0  0  0
  130.0432  128.1667   68.2582 H   0  0  0  0  0  0  0  0  0  0  0  0
  128.9824  129.2432   69.1780 H   0  0  0  0  0  0  0  0  0  0  0  0
  131.3014  127.5201   70.1368 H   0  0  0  0  0  0  0  0  0  0  0  0
  130.8265  129.1348   70.6957 H   0  0  0  0  0  0  0  0  0  0  0  0
  130.1774  126.6666   71.9949 H   0  0  0  0  0  0  0  0  0  0  0  0
  128.4848  129.0406   72.5466 H   0  0  0  0  0  0  0  0  0  0  0  0
  129.2941  127.8498   73.6411 H   0  0  0  0  0  0  0  0  0  0  0  0
  130.4550  129.9970   72.1980 H   0  0  0  0  0  0  0  0  0  0  0  0
  128.1678  125.9241   71.1485 H   0  0  0  0  0  0  0  0  0  0  0  0
  127.4590  127.5580   71.2309 H   0  0  0  0  0  0  0  0  0  0  0  0
  128.6309  127.4871   66.4425 H   0  0  0  0  0  0  0  0  0  0  0  0
  1  2  1  0
  2  3  1  0
  2  4  1  0
  4  5  1  0
  5  6  1  0
  6  7  2  0
  7  8  1  0
  8  9  1  0
  9 10  1  0
 10 11  1  0
 11 12  1  0
 12 13  1  0
 13 14  1  0
 12 15  1  0
  7 16  1  0
 16 17  2  0
 17  5  1  0
 15  9  1  0
  1 18  1  0
  1 19  1  0
  1 20  1  0
  2 21  1  0
  3 22  1  0
  3 23  1  0
  3 24  1  0
  4 25  1  0
  4 26  1  0
  6 27  1  0
  8 28  1  0
  9 29  1  6
 10 30  1  0
 10 31  1  0
 11 32  1  0
 11 33  1  0
 12 34  1  1
 13 35  1  0
 13 36  1  0
 14 37  1  0
 15 38  1  0
 15 39  1  0
 16 40  1  0
M  END
>  <Binding energies>  (1) 
[-5.99]

>  <Ligand effiencies>  (1) 
[-0.31526315789473686]

>  <Interactions>  (1) 
["V-B:GLU:543:C:9874, V-B:HIS:456:CD2:9039, H-B:GLU:543:O:9875, V-A:GLU:543:C:4902, V-B:GLU:543:CB:9878, V-A:TYR:484:CE2:4346, V-B:GLU:543:CG:9879, V-A:GLY:544:C:4912, V-A:TYR:484:CZ:4347, V-A:GLU:543:CD:4908, V-B:HIS:456:CE1:9041, V-B:GLU:543:CA:9876, V-A:HIS:456:CE1:4070, V-B:GLU:543:CD:9880, V-A:ARG:545:CD:4923, H-A:LYS:547:NZ:4951, V-A:ARG:545:CZ:4926, V-A:GLU:543:CB:4906, H-A:GLY:544:O:4913, H-A:HIS:456:NE2:4071, H-A:GLU:543:O:4903"]

$$$$
ZINC2220635994
     RDKit          3D

 70 70  0  0  0  0  0  0  0  0999 V2000
  130.3830  127.6730   61.9230 C   0  0  0  0  0  0  0  0  0  0  0  0
  129.6270  126.4260   62.4450 C   0  0  0  0  0  0  0  0  0  0  0  0
  128.2310  126.3040   61.7870 C   0  0  0  0  0  0  0  0  0  0  0  0
  129.4630  126.5370   63.9750 C   0  0  0  0  0  0  0  0  0  0  0  0
  130.4000  125.2280   62.2590 O   0  0  0  0  0  0  0  0  0  0  0  0
  131.4760  124.8430   63.0180 C   0  0  0  0  0  0  0  0  0  0  0  0
  132.3360  125.6260   63.4270 O   0  0  0  0  0  0  0  0  0  0  0  0
  131.4720  123.4550   63.2610 N   0  0  0  0  0  0  0  0  0  0  0  0
  130.3000  122.7480   63.8170 C   0  0  0  0  0  0  0  0  0  0  0  0
  128.9160  123.2050   63.2920 C   0  0  0  0  0  0  0  0  0  0  0  0
  128.6090  122.8290   61.8960 N   0  0  0  0  0  0  0  0  0  0  0  0
  127.4340  123.2170   61.2250 C   0  0  0  0  0  0  0  0  0  0  0  0
  126.2970  122.8550   61.5370 O   0  0  0  0  0  0  0  0  0  0  0  0
  127.7000  124.0480   60.1690 O   0  0  0  0  0  0  0  0  0  0  0  0
  127.2260  123.8730   58.8210 C   0  0  0  0  0  0  0  0  0  0  0  0
  127.7690  124.9820   57.8870 C   0  0  0  0  0  0  0  0  0  0  0  0
  127.5730  122.4650   58.2740 C   0  0  0  0  0  0  0  0  0  0  0  0
  125.6940  124.0080   58.9370 C   0  0  0  0  0  0  0  0  0  0  0  0
  129.6140  122.0360   61.1830 C   0  0  0  0  0  0  0  0  0  0  0  0
  130.3530  122.8730   60.1190 C   0  0  0  0  0  0  0  0  0  0  0  0
  131.7840  123.0980   60.4390 N   0  0  0  0  0  0  0  0  0  0  0  0
  132.7080  124.2210   59.4230 S   0  0  0  0  0  0  0  0  0  0  0  0
  133.5860  124.9980   60.3040 O   0  0  0  0  0  0  0  0  0  0  0  0
  133.2840  123.4670   58.3030 O   0  0  0  0  0  0  0  0  0  0  0  0
  131.3950  125.4040   58.7420 C   0  0  0  0  0  0  0  0  0  0  0  0
  131.6440  126.8460   59.2000 C   0  0  0  0  0  0  0  0  0  0  0  0
  131.1610  127.7280   58.1950 O   0  0  0  0  0  0  0  0  0  0  0  0
  131.2160  129.1150   58.5190 C   0  0  0  0  0  0  0  0  0  0  0  0
  132.4050  129.8520   57.8770 C   0  0  0  0  0  0  0  0  0  0  0  0
  131.9670  131.5300   57.4590 Cl  0  0  0  0  0  0  0  0  0  0  0  0
  132.5100  122.1590   61.3380 C   0  0  0  0  0  0  0  0  0  0  0  0
  132.6160  122.6460   62.8040 C   0  0  0  0  0  0  0  0  0  0  0  0
  130.7432  128.2671   62.7758 H   0  0  0  0  0  0  0  0  0  0  0  0
  131.2394  127.3531   61.3112 H   0  0  0  0  0  0  0  0  0  0  0  0
  129.7033  128.2844   61.3112 H   0  0  0  0  0  0  0  0  0  0  0  0
  127.4612  126.2367   62.5699 H   0  0  0  0  0  0  0  0  0  0  0  0
  128.0417  127.1890   61.1618 H   0  0  0  0  0  0  0  0  0  0  0  0
  128.1981  125.3996   61.1618 H   0  0  0  0  0  0  0  0  0  0  0  0
  130.2758  125.9869   64.4718 H   0  0  0  0  0  0  0  0  0  0  0  0
  129.5016  127.5954   64.2721 H   0  0  0  0  0  0  0  0  0  0  0  0
  128.4947  126.1078   64.2721 H   0  0  0  0  0  0  0  0  0  0  0  0
  130.4112  121.6786   63.5845 H   0  0  0  0  0  0  0  0  0  0  0  0
  130.2988  122.9786   64.8926 H   0  0  0  0  0  0  0  0  0  0  0  0
  128.1449  122.7623   63.9396 H   0  0  0  0  0  0  0  0  0  0  0  0
  128.9338  124.3047   63.3116 H   0  0  0  0  0  0  0  0  0  0  0  0
  128.1727  125.8065   58.4929 H   0  0  0  0  0  0  0  0  0  0  0  0
  128.5667  124.5687   57.2522 H   0  0  0  0  0  0  0  0  0  0  0  0
  126.9534  125.3586   57.2522 H   0  0  0  0  0  0  0  0  0  0  0  0
  127.7427  121.7765   59.1149 H   0  0  0  0  0  0  0  0  0  0  0  0
  126.7392  122.0947   57.6594 H   0  0  0  0  0  0  0  0  0  0  0  0
  128.4834  122.5245   57.6594 H   0  0  0  0  0  0  0  0  0  0  0  0
  125.4075  124.0332   59.9987 H   0  0  0  0  0  0  0  0  0  0  0  0
  125.3698  124.9382   58.4475 H   0  0  0  0  0  0  0  0  0  0  0  0
  125.2121  123.1488   58.4475 H   0  0  0  0  0  0  0  0  0  0  0  0
  130.3474  121.6546   61.9087 H   0  0  0  0  0  0  0  0  0  0  0  0
  129.0984  121.2099   60.6714 H   0  0  0  0  0  0  0  0  0  0  0  0
  130.2894  122.3470   59.1550 H   0  0  0  0  0  0  0  0  0  0  0  0
  129.8676  123.8596   60.0859 H   0  0  0  0  0  0  0  0  0  0  0  0
  131.4186  125.3693   57.6428 H   0  0  0  0  0  0  0  0  0  0  0  0
  130.4136  125.0859   59.1236 H   0  0  0  0  0  0  0  0  0  0  0  0
  131.1118  127.0325   60.1444 H   0  0  0  0  0  0  0  0  0  0  0  0
  132.7198  127.0102   59.3604 H   0  0  0  0  0  0  0  0  0  0  0  0
  130.2856  129.5897   58.1741 H   0  0  0  0  0  0  0  0  0  0  0  0
  131.3434  129.1864   59.6093 H   0  0  0  0  0  0  0  0  0  0  0  0
  133.2453  129.8657   58.5867 H   0  0  0  0  0  0  0  0  0  0  0  0
  132.6881  129.3236   56.9547 H   0  0  0  0  0  0  0  0  0  0  0  0
  131.9807  121.1948   61.3312 H   0  0  0  0  0  0  0  0  0  0  0  0
  133.5376  122.0807   60.9535 H   0  0  0  0  0  0  0  0  0  0  0  0
  132.6948  121.7629   63.4551 H   0  0  0  0  0  0  0  0  0  0  0  0
  133.5012  123.2969   62.8553 H   0  0  0  0  0  0  0  0  0  0  0  0
  1  2  1  0
  2  3  1  0
  2  4  1  0
  2  5  1  0
  5  6  1  0
  6  7  2  0
  6  8  1  0
  8  9  1  0
  9 10  1  0
 10 11  1  0
 11 12  1  0
 12 13  2  0
 12 14  1  0
 14 15  1  0
 15 16  1  0
 15 17  1  0
 15 18  1  0
 11 19  1  0
 19 20  1  0
 20 21  1  0
 21 22  1  0
 22 23  2  0
 22 24  2  0
 22 25  1  0
 25 26  1  0
 26 27  1  0
 27 28  1  0
 28 29  1  0
 29 30  1  0
 21 31  1  0
 31 32  1  0
 32  8  1  0
  1 33  1  0
  1 34  1  0
  1 35  1  0
  3 36  1  0
  3 37  1  0
  3 38  1  0
  4 39  1  0
  4 40  1  0
  4 41  1  0
  9 42  1  0
  9 43  1  0
 10 44  1  0
 10 45  1  0
 16 46  1  0
 16 47  1  0
 16 48  1  0
 17 49  1  0
 17 50  1  0
 17 51  1  0
 18 52  1  0
 18 53  1  0
 18 54  1  0
 19 55  1  0
 19 56  1  0
 20 57  1  0
 20 58  1  0
 25 59  1  0
 25 60  1  0
 26 61  1  0
 26 62  1  0
 28 63  1  0
 28 64  1  0
 29 65  1  0
 29 66  1  0
 31 67  1  0
 31 68  1  0
 32 69  1  0
 32 70  1  0
M  END
>  <Binding energies>  (1) 
[-2.29]

>  <Ligand effiencies>  (1) 
[-0.06735294117647059]

>  <Interactions>  (1) 
["V-B:PRO:540:CA:9855, V-B:ALA:541:CB:9864, H-A:TYR:531:OH:4795, V-B:TYR:539:CE2:9848, V-B:GLU:543:CG:9879, V-B:TYR:539:C:9839, V-A:ASP:366:CG:3213, V-A:LEU:363:CD1:3189, V-B:TYR:539:CZ:9849, V-A:TYR:531:CE2:4793, H-B:TYR:539:OH:9850, H-B:ALA:541:N:9863, V-A:GLU:543:CD:4908, V-B:PRO:540:CB:9857, V-B:PRO:540:N:9856, V-B:TYR:539:CD2:9846, V-A:TYR:531:CZ:4794, V-B:GLU:543:CD:9880, V-A:ASP:366:CB:3212, V-A:LEU:475:CD2:4259, H-A:ARG:545:NH2:4928, V-B:TYR:539:CG:9844"]

$$$$
ZINC22215915-again1
     RDKit          3D

 40 43  0  0  0  0  0  0  0  0999 V2000
  130.4590  125.0300   67.5340 O   0  0  0  0  0  0  0  0  0  0  0  0
  129.8730  125.7780   66.7380 C   0  0  0  0  0  0  0  0  0  0  0  0
  129.7460  125.4400   65.3020 C   0  0  0  0  0  0  0  0  0  0  0  0
  130.0850  124.1640   64.9310 C   0  0  0  0  0  0  0  0  0  0  0  0
  130.0330  123.4570   63.6590 C   0  0  0  0  0  0  0  0  0  0  0  0
  130.8280  122.4900   63.0570 C   0  0  0  0  0  0  0  0  0  0  0  0
  130.2820  122.2270   61.8010 C   0  0  0  0  0  0  0  0  0  0  0  0
  129.1770  123.0560   61.6590 C   0  0  0  0  0  0  0  0  0  0  0  0
  128.1770  123.2650   60.5710 C   0  0  0  0  0  0  0  0  0  0  0  0
  128.3550  122.6320   59.3370 C   0  0  0  0  0  0  0  0  0  0  0  0
  127.4260  122.8160   58.3150 C   0  0  0  0  0  0  0  0  0  0  0  0
  126.3190  123.6330   58.5260 C   0  0  0  0  0  0  0  0  0  0  0  0
  125.4170  123.8110   57.5340 F   0  0  0  0  0  0  0  0  0  0  0  0
  126.1330  124.2700   59.7500 C   0  0  0  0  0  0  0  0  0  0  0  0
  127.0600  124.0860   60.7730 C   0  0  0  0  0  0  0  0  0  0  0  0
  129.0490  123.8050   62.7880 O   0  0  0  0  0  0  0  0  0  0  0  0
  129.2410  126.5050   64.4150 C   0  0  0  0  0  0  0  0  0  0  0  0
  129.2980  126.4290   63.1770 O   0  0  0  0  0  0  0  0  0  0  0  0
  128.7800  127.6030   64.8710 N   0  0  0  0  0  0  0  0  0  0  0  0
  128.7310  127.8950   66.2290 C   0  0  0  0  0  0  0  0  0  0  0  0
  127.9980  129.3450   66.6480 S   0  0  0  0  0  0  0  0  0  0  0  0
  129.3020  126.9850   67.1330 N   0  0  0  0  0  0  0  0  0  0  0  0
  129.3460  127.2560   68.5300 C   0  0  0  0  0  0  0  0  0  0  0  0
  128.2260  126.9900   69.3270 C   0  0  0  0  0  0  0  0  0  0  0  0
  128.2740  127.2460   70.6930 C   0  0  0  0  0  0  0  0  0  0  0  0
  129.4380  127.7620   71.2620 C   0  0  0  0  0  0  0  0  0  0  0  0
  129.4930  128.0810   72.9560 Cl  0  0  0  0  0  0  0  0  0  0  0  0
  130.5580  128.0230   70.4730 C   0  0  0  0  0  0  0  0  0  0  0  0
  130.5160  127.7680   69.1050 C   0  0  0  0  0  0  0  0  0  0  0  0
  130.4735  123.5530   65.7591 H   0  0  0  0  0  0  0  0  0  0  0  0
  131.7225  122.0190   63.4906 H   0  0  0  0  0  0  0  0  0  0  0  0
  130.6554  121.5013   61.0635 H   0  0  0  0  0  0  0  0  0  0  0  0
  129.2308  121.9870   59.1726 H   0  0  0  0  0  0  0  0  0  0  0  0
  127.5669  122.3173   57.3447 H   0  0  0  0  0  0  0  0  0  0  0  0
  125.2571  124.9162   59.9085 H   0  0  0  0  0  0  0  0  0  0  0  0
  126.9148  124.5864   61.7417 H   0  0  0  0  0  0  0  0  0  0  0  0
  127.3112  126.5799   68.8742 H   0  0  0  0  0  0  0  0  0  0  0  0
  127.3959  127.0420   71.3233 H   0  0  0  0  0  0  0  0  0  0  0  0
  131.4722  128.4293   70.9304 H   0  0  0  0  0  0  0  0  0  0  0  0
  131.3978  127.9678   68.4785 H   0  0  0  0  0  0  0  0  0  0  0  0
  1  2  2  0
  2  3  1  0
  3  4  2  0
  4  5  1  0
  5  6  2  0
  6  7  1  0
  7  8  2  0
  8  9  1  0
  9 10  2  0
 10 11  1  0
 11 12  2  0
 12 13  1  0
 12 14  1  0
 14 15  2  0
  8 16  1  0
  3 17  1  0
 17 18  1  0
 17 19  2  0
 19 20  1  0
 20 21  2  0
 20 22  1  0
 22 23  1  0
 23 24  2  0
 24 25  1  0
 25 26  2  0
 26 27  1  0
 26 28  1  0
 28 29  2  0
 22  2  1  0
 29 23  1  0
 16  5  1  0
 15  9  1  0
  4 30  1  0
  6 31  1  0
  7 32  1  0
 10 33  1  0
 11 34  1  0
 14 35  1  0
 15 36  1  0
 24 37  1  0
 25 38  1  0
 28 39  1  0
 29 40  1  0
M  CHG  1  18  -1
M  END
>  <Binding energies>  (1) 
[-6.68]

>  <Ligand effiencies>  (1) 
[-0.2303448275862069]

>  <Interactions>  (1) 
["V-B:PRO:540:CA:9855, V-B:GLU:543:C:9874, V-A:GLU:543:C:4902, V-B:GLU:543:CB:9878, V-B:TYR:539:CE2:9848, V-B:GLU:543:CG:9879, V-A:GLY:544:C:4912, V-B:TYR:539:C:9839, V-A:GLU:543:CD:4908, V-B:PRO:540:CB:9857, V-B:HIS:456:CE1:9041, V-B:PRO:540:N:9856, V-B:TYR:484:CZ:9318, V-A:HIS:456:CE1:4070, V-B:TYR:539:CD2:9846, V-A:GLU:543:CG:4907, V-B:GLU:543:CD:9880, V-A:LEU:475:CD2:4259, V-A:GLU:543:CB:4906, V-B:LEU:363:CD1:8160, H-A:TYR:484:OH:4348"]

$$$$
ZINC2224698189
     RDKit          3D

 49 50  0  0  0  0  0  0  0  0999 V2000
  132.4740  123.8890   61.5990 C   0  0  0  0  0  0  0  0  0  0  0  0
  133.5950  123.5130   62.5990 C   0  0  0  0  0  0  0  0  0  0  0  0
  134.8610  124.3730   62.3650 C   0  0  0  0  0  0  0  0  0  0  0  0
  133.9490  122.0210   62.4260 C   0  0  0  0  0  0  0  0  0  0  0  0
  133.1410  123.6120   63.9610 O   0  0  0  0  0  0  0  0  0  0  0  0
  133.2480  124.7200   64.7580 C   0  0  0  0  0  0  0  0  0  0  0  0
  134.3100  125.2570   65.0720 O   0  0  0  0  0  0  0  0  0  0  0  0
  132.0010  125.1720   65.1850 N   0  0  0  0  0  0  0  0  0  0  0  0
  130.6970  124.6050   64.8010 C   0  0  2  0  0  0  0  0  0  0  0  0
  130.6880  123.0540   64.7370 C   0  0  0  0  0  0  0  0  0  0  0  0
  129.3250  122.4670   64.3160 C   0  0  0  0  0  0  0  0  0  0  0  0
  128.7860  123.0990   63.0220 C   0  0  0  0  0  0  0  0  0  0  0  0
  128.7340  124.6320   63.1290 C   0  0  0  0  0  0  0  0  0  0  0  0
  130.1170  125.2210   63.4940 C   0  0  1  0  0  0  0  0  0  0  0  0
  129.9820  126.6710   63.6530 N   0  0  0  0  0  0  0  0  0  0  0  0
  129.2010  127.2940   64.6490 C   0  0  0  0  0  0  0  0  0  0  0  0
  129.2320  126.8860   65.9930 C   0  0  0  0  0  0  0  0  0  0  0  0
  128.4450  127.5250   66.9500 C   0  0  0  0  0  0  0  0  0  0  0  0
  128.5080  126.9580   68.7650 Br  0  0  0  0  0  0  0  0  0  0  0  0
  127.6150  128.5800   66.5790 C   0  0  0  0  0  0  0  0  0  0  0  0
  127.5720  128.9980   65.2510 C   0  0  0  0  0  0  0  0  0  0  0  0
  126.7610  130.0250   64.9060 F   0  0  0  0  0  0  0  0  0  0  0  0
  128.3600  128.3620   64.2830 C   0  0  0  0  0  0  0  0  0  0  0  0
  128.2910  128.8290   62.8920 N   0  0  0  0  0  0  0  0  0  0  0  0
  129.2980  128.7090   62.2020 O   0  0  0  0  0  0  0  0  0  0  0  0
  127.2310  129.3140   62.5080 O   0  0  0  0  0  0  0  0  0  0  0  0
  131.5736  124.1910   62.1541 H   0  0  0  0  0  0  0  0  0  0  0  0
  132.8117  124.7231   60.9663 H   0  0  0  0  0  0  0  0  0  0  0  0
  132.2404  123.0200   60.9663 H   0  0  0  0  0  0  0  0  0  0  0  0
  135.2905  124.6647   63.3348 H   0  0  0  0  0  0  0  0  0  0  0  0
  135.6007  123.7897   61.7970 H   0  0  0  0  0  0  0  0  0  0  0  0
  134.5913  125.2756   61.7970 H   0  0  0  0  0  0  0  0  0  0  0  0
  134.0600  121.5534   63.4154 H   0  0  0  0  0  0  0  0  0  0  0  0
  133.1458  121.5157   61.8696 H   0  0  0  0  0  0  0  0  0  0  0  0
  134.8936  121.9304   61.8696 H   0  0  0  0  0  0  0  0  0  0  0  0
  131.9840  125.9900   65.7760 H   0  0  0  0  0  0  0  0  0  0  0  0
  130.0252  124.8946   65.6225 H   0  0  0  0  0  0  0  0  0  0  0  0
  131.4469  122.7305   64.0094 H   0  0  0  0  0  0  0  0  0  0  0  0
  130.9014  122.6855   65.7512 H   0  0  0  0  0  0  0  0  0  0  0  0
  129.4407  121.3845   64.1583 H   0  0  0  0  0  0  0  0  0  0  0  0
  128.6052  122.6841   65.1190 H   0  0  0  0  0  0  0  0  0  0  0  0
  129.4441  122.8202   62.1858 H   0  0  0  0  0  0  0  0  0  0  0  0
  127.7644  122.7277   62.8534 H   0  0  0  0  0  0  0  0  0  0  0  0
  128.4122  125.0472   62.1625 H   0  0  0  0  0  0  0  0  0  0  0  0
  128.0236  124.8989   63.9253 H   0  0  0  0  0  0  0  0  0  0  0  0
  130.8173  124.9775   62.6814 H   0  0  0  0  0  0  0  0  0  0  0  0
  130.6680  127.2470   63.1860 H   0  0  0  0  0  0  0  0  0  0  0  0
  129.8845  126.0530   66.2936 H   0  0  0  0  0  0  0  0  0  0  0  0
  126.9936  129.0830   67.3345 H   0  0  0  0  0  0  0  0  0  0  0  0
  1  2  1  0
  2  3  1  0
  2  4  1  0
  2  5  1  0
  5  6  1  0
  6  7  2  0
  6  8  1  0
  8  9  1  0
  9 10  1  0
 10 11  1  0
 11 12  1  0
 12 13  1  0
 13 14  1  0
 14 15  1  0
 15 16  1  0
 16 17  2  0
 17 18  1  0
 18 19  1  0
 18 20  2  0
 20 21  1  0
 21 22  1  0
 21 23  2  0
 23 24  1  0
 24 25  2  0
 24 26  1  0
 14  9  1  0
 23 16  1  0
  1 27  1  0
  1 28  1  0
  1 29  1  0
  3 30  1  0
  3 31  1  0
  3 32  1  0
  4 33  1  0
  4 34  1  0
  4 35  1  0
  8 36  1  0
  9 37  1  1
 10 38  1  0
 10 39  1  0
 11 40  1  0
 11 41  1  0
 12 42  1  0
 12 43  1  0
 13 44  1  0
 13 45  1  0
 14 46  1  6
 15 47  1  0
 17 48  1  0
 20 49  1  0
M  CHG  2  24   1  26  -1
M  END
>  <Binding energies>  (1) 
[-6.8]

>  <Ligand effiencies>  (1) 
[-0.24285714285714285]

>  <Interactions>  (1) 
["V-A:GLY:454:CA:4049, V-B:GLU:543:C:9874, H-A:GLU:543:OE2:4910, V-B:GLU:543:CB:9878, V-B:ALA:541:CB:9864, H-A:ARG:545:NH1:4927, V-A:TYR:484:CE2:4346, V-B:GLU:543:CG:9879, V-A:TYR:484:CZ:4347, V-A:GLU:543:CD:4908, V-B:HIS:456:CE1:9041, H-A:GLY:454:N:4050, V-A:GLY:453:C:4042, V-A:ILE:369:CD1:3239, V-B:TYR:484:CZ:9318, V-B:GLU:543:CD:9880, V-A:LEU:475:CD2:4259, H-A:ARG:545:NH2:4928, V-A:ARG:545:CZ:4926, H-A:GLU:543:OE1:4909, V-A:GLY:453:CA:4044, H-A:ARG:545:NE:4924, H-A:TYR:484:OH:4348"]

$$$$
ZINC22258122-again1
     RDKit          3D

 57 60  0  0  0  0  0  0  0  0999 V2000
  127.4190  123.4720   61.7380 C   0  0  0  0  0  0  0  0  0  0  0  0
  128.8860  124.4070   61.2270 S   0  0  0  0  0  0  0  0  0  0  0  0
  129.9640  123.0220   61.0920 C   0  0  0  0  0  0  0  0  0  0  0  0
  129.3090  121.4180   61.0940 S   0  0  0  0  0  0  0  0  0  0  0  0
  130.8800  120.7050   60.9380 C   0  0  0  0  0  0  0  0  0  0  0  0
  131.0620  119.2080   60.8800 C   0  0  0  0  0  0  0  0  0  0  0  0
  131.8360  121.7110   60.8850 C   0  0  0  0  0  0  0  0  0  0  0  0
  131.3540  123.0330   60.9520 C   0  0  0  0  0  0  0  0  0  0  0  0
  132.2180  124.2970   60.8970 C   0  0  2  0  0  0  0  0  0  0  0  0
  132.2220  125.0210   62.2460 C   0  0  0  0  0  0  0  0  0  0  0  0
  133.1840  124.5960   63.2150 C   0  0  0  0  0  0  0  0  0  0  0  0
  133.9580  124.2660   64.0100 N   0  0  0  0  0  0  0  0  0  0  0  0
  131.3260  125.9950   62.5410 C   0  0  0  0  0  0  0  0  0  0  0  0
  131.2910  126.6020   63.7800 N   0  0  0  0  0  0  0  0  0  0  0  0
  130.4900  126.5540   61.5540 N   0  0  0  0  0  0  0  0  0  0  0  0
  129.4320  127.4210   61.9330 C   0  0  0  0  0  0  0  0  0  0  0  0
  128.3290  126.8910   62.6120 C   0  0  0  0  0  0  0  0  0  0  0  0
  127.2790  127.7150   63.0110 C   0  0  0  0  0  0  0  0  0  0  0  0
  127.3040  129.0910   62.7420 C   0  0  0  0  0  0  0  0  0  0  0  0
  126.1880  129.9690   63.1680 N   0  0  0  0  0  0  0  0  0  0  0  0
  125.4170  129.5630   64.0330 O   0  0  0  0  0  0  0  0  0  0  0  0
  126.0730  131.0710   62.6410 O   0  0  0  0  0  0  0  0  0  0  0  0
  128.4120  129.6160   62.0590 C   0  0  0  0  0  0  0  0  0  0  0  0
  129.4680  128.7970   61.6560 C   0  0  0  0  0  0  0  0  0  0  0  0
  130.8000  129.5170   60.8160 Cl  0  0  0  0  0  0  0  0  0  0  0  0
  130.6740  126.2390   60.1930 C   0  0  0  0  0  0  0  0  0  0  0  0
  129.9210  126.7740   59.1930 C   0  0  0  0  0  0  0  0  0  0  0  0
  130.1620  126.5180   57.6990 C   0  0  0  0  0  0  0  0  0  0  0  0
  129.8170  127.8140   56.9330 C   0  0  0  0  0  0  0  0  0  0  0  0
  129.2810  125.3170   57.2880 C   0  0  0  0  0  0  0  0  0  0  0  0
  131.6760  126.1810   57.4610 C   0  0  0  0  0  0  0  0  0  0  0  0
  132.2370  125.2980   58.5730 C   0  0  0  0  0  0  0  0  0  0  0  0
  133.2080  124.4700   58.1000 O   0  0  0  0  0  0  0  0  0  0  0  0
  131.7430  125.2940   59.8290 C   0  0  0  0  0  0  0  0  0  0  0  0
  127.3688  123.4400   62.8364 H   0  0  0  0  0  0  0  0  0  0  0  0
  126.5164  123.9618   61.3438 H   0  0  0  0  0  0  0  0  0  0  0  0
  127.4818  122.4470   61.3438 H   0  0  0  0  0  0  0  0  0  0  0  0
  131.1110  118.8047   61.9022 H   0  0  0  0  0  0  0  0  0  0  0  0
  130.2122  118.7557   60.3477 H   0  0  0  0  0  0  0  0  0  0  0  0
  131.9954  118.9725   60.3477 H   0  0  0  0  0  0  0  0  0  0  0  0
  132.9095  121.4880   60.7957 H   0  0  0  0  0  0  0  0  0  0  0  0
  133.2301  123.9519   60.6391 H   0  0  0  0  0  0  0  0  0  0  0  0
  131.7780  126.1960   64.5660 H   0  0  0  0  0  0  0  0  0  0  0  0
  130.9390  127.5420   63.8860 H   0  0  0  0  0  0  0  0  0  0  0  0
  128.2908  125.8140   62.8326 H   0  0  0  0  0  0  0  0  0  0  0  0
  126.4199  127.2810   63.5435 H   0  0  0  0  0  0  0  0  0  0  0  0
  128.4489  130.6928   61.8372 H   0  0  0  0  0  0  0  0  0  0  0  0
  129.0858  127.4324   59.4739 H   0  0  0  0  0  0  0  0  0  0  0  0
  129.6028  128.6187   57.6517 H   0  0  0  0  0  0  0  0  0  0  0  0
  130.6692  128.1042   56.3009 H   0  0  0  0  0  0  0  0  0  0  0  0
  128.9333  127.6421   56.3009 H   0  0  0  0  0  0  0  0  0  0  0  0
  128.9088  124.8096   58.1902 H   0  0  0  0  0  0  0  0  0  0  0  0
  128.4293  125.6744   56.6906 H   0  0  0  0  0  0  0  0  0  0  0  0
  129.8777  124.6120   56.6906 H   0  0  0  0  0  0  0  0  0  0  0  0
  131.7777  125.6537   56.5010 H   0  0  0  0  0  0  0  0  0  0  0  0
  132.2413  127.1246   57.4529 H   0  0  0  0  0  0  0  0  0  0  0  0
  133.9070  124.9920   57.7000 H   0  0  0  0  0  0  0  0  0  0  0  0
  1  2  1  0
  2  3  1  0
  3  4  1  0
  4  5  1  0
  5  6  1  0
  5  7  2  0
  7  8  1  0
  8  9  1  0
  9 10  1  0
 10 11  1  0
 11 12  3  0
 10 13  2  0
 13 14  1  0
 13 15  1  0
 15 16  1  0
 16 17  2  0
 17 18  1  0
 18 19  2  0
 19 20  1  0
 20 21  2  0
 20 22  1  0
 19 23  1  0
 23 24  2  0
 24 25  1  0
 15 26  1  0
 26 27  2  0
 27 28  1  0
 28 29  1  0
 28 30  1  0
 28 31  1  0
 31 32  1  0
 32 33  1  0
 32 34  2  0
  8  3  2  0
 34  9  1  0
 24 16  1  0
 34 26  1  0
  1 35  1  0
  1 36  1  0
  1 37  1  0
  6 38  1  0
  6 39  1  0
  6 40  1  0
  7 41  1  0
  9 42  1  6
 14 43  1  0
 14 44  1  0
 17 45  1  0
 18 46  1  0
 23 47  1  0
 27 48  1  0
 29 49  1  0
 29 50  1  0
 29 51  1  0
 30 52  1  0
 30 53  1  0
 30 54  1  0
 31 55  1  0
 31 56  1  0
 33 57  1  0
M  CHG  2  20   1  22  -1
M  END
>  <Binding energies>  (1) 
[-7.74]

>  <Ligand effiencies>  (1) 
[-0.2091891891891892]

>  <Interactions>  (1) 
["V-B:PRO:540:CA:9855, H-A:GLU:543:OE2:4910, V-B:ALA:541:CB:9864, V-B:TYR:539:CE2:9848, V-B:TYR:539:C:9839, V-A:ASP:366:CG:3213, V-B:TYR:539:CZ:9849, H-B:TYR:539:OH:9850, V-A:GLU:543:CD:4908, H-B:TYR:484:OH:9319, H-A:GLY:454:N:4050, V-B:TYR:539:CD2:9846, V-A:TYR:531:CZ:4794, V-B:GLU:543:CD:9880, V-A:ASP:366:CB:3212, V-A:LEU:475:CD2:4259, V-A:ARG:545:CZ:4926, H-A:GLU:543:OE1:4909, H-B:ARG:545:NH2:9900, H-A:ASP:366:O:3209, V-B:PRO:540:C:9853, H-A:TYR:484:OH:4348"]

$$$$
ZINC2231672473
     RDKit          3D

 46 47  0  0  0  0  0  0  0  0999 V2000
  127.2490  125.4380   59.6280 C   0  0  0  0  0  0  0  0  0  0  0  0
  126.4950  124.0890   59.5390 C   0  0  0  0  0  0  0  0  0  0  0  0
  125.6480  124.0120   58.2440 C   0  0  0  0  0  0  0  0  0  0  0  0
  125.5700  123.9380   60.7630 C   0  0  0  0  0  0  0  0  0  0  0  0
  127.4030  122.9750   59.6400 O   0  0  0  0  0  0  0  0  0  0  0  0
  128.1270  122.6470   60.7420 C   0  0  0  0  0  0  0  0  0  0  0  0
  127.6600  122.2370   61.8060 O   0  0  0  0  0  0  0  0  0  0  0  0
  129.4720  122.8690   60.4680 N   0  0  0  0  0  0  0  0  0  0  0  0
  130.5060  122.6720   61.4950 C   0  0  2  0  0  0  0  0  0  0  0  0
  130.0220  123.1860   62.8680 C   0  0  0  0  0  0  0  0  0  0  0  0
  129.3470  122.4420   63.5850 O   0  0  0  0  0  0  0  0  0  0  0  0
  130.3820  124.4440   63.1880 N   0  0  0  0  0  0  0  0  0  0  0  0
  130.0910  125.0420   64.4160 C   0  0  0  0  0  0  0  0  0  0  0  0
  130.5030  124.4190   65.5990 C   0  0  0  0  0  0  0  0  0  0  0  0
  130.2180  125.0040   66.8310 C   0  0  0  0  0  0  0  0  0  0  0  0
  129.5170  126.2090   66.8870 C   0  0  0  0  0  0  0  0  0  0  0  0
  129.1280  127.0070   68.5710 Br  0  0  0  0  0  0  0  0  0  0  0  0
  129.1010  126.8310   65.7100 C   0  0  0  0  0  0  0  0  0  0  0  0
  129.3830  126.2540   64.4690 C   0  0  0  0  0  0  0  0  0  0  0  0
  128.7350  127.2410   62.7350 I   0  0  0  0  0  0  0  0  0  0  0  0
  131.8700  123.2570   61.0600 C   0  0  0  0  0  0  0  0  0  0  0  0
  132.8710  122.4440   60.1950 C   0  0  0  0  0  0  0  0  0  0  0  0
  133.5300  123.9970   59.4200 S   0  0  0  0  0  0  0  0  0  0  0  0
  134.7390  124.5080   60.0750 O   0  0  0  0  0  0  0  0  0  0  0  0
  133.4280  123.9770   57.9570 O   0  0  0  0  0  0  0  0  0  0  0  0
  131.9580  124.5660   60.2290 C   0  0  0  0  0  0  0  0  0  0  0  0
  127.3985  125.7055   60.6845 H   0  0  0  0  0  0  0  0  0  0  0  0
  128.2261  125.3454   59.1314 H   0  0  0  0  0  0  0  0  0  0  0  0
  126.6582  126.2218   59.1314 H   0  0  0  0  0  0  0  0  0  0  0  0
  124.5842  123.9153   58.5068 H   0  0  0  0  0  0  0  0  0  0  0  0
  125.7979  124.9275   57.6529 H   0  0  0  0  0  0  0  0  0  0  0  0
  125.9605  123.1386   57.6529 H   0  0  0  0  0  0  0  0  0  0  0  0
  126.1627  124.0347   61.6846 H   0  0  0  0  0  0  0  0  0  0  0  0
  124.7990  124.7222   60.7389 H   0  0  0  0  0  0  0  0  0  0  0  0
  125.0884  122.9493   60.7389 H   0  0  0  0  0  0  0  0  0  0  0  0
  129.7430  123.2460   59.5710 H   0  0  0  0  0  0  0  0  0  0  0  0
  130.6781  121.5917   61.6104 H   0  0  0  0  0  0  0  0  0  0  0  0
  130.9510  124.9710   62.5420 H   0  0  0  0  0  0  0  0  0  0  0  0
  131.0522  123.4669   65.5564 H   0  0  0  0  0  0  0  0  0  0  0  0
  130.5460  124.5154   67.7603 H   0  0  0  0  0  0  0  0  0  0  0  0
  128.5481  127.7807   65.7589 H   0  0  0  0  0  0  0  0  0  0  0  0
  132.1086  123.3348   62.1310 H   0  0  0  0  0  0  0  0  0  0  0  0
  133.6176  121.8901   60.7830 H   0  0  0  0  0  0  0  0  0  0  0  0
  132.5012  121.6299   59.5543 H   0  0  0  0  0  0  0  0  0  0  0  0
  132.0763  125.4728   60.8403 H   0  0  0  0  0  0  0  0  0  0  0  0
  131.1053  124.8747   59.6064 H   0  0  0  0  0  0  0  0  0  0  0  0
  1  2  1  0
  2  3  1  0
  2  4  1  0
  2  5  1  0
  5  6  1  0
  6  7  2  0
  6  8  1  0
  8  9  1  0
  9 10  1  0
 10 11  2  0
 10 12  1  0
 12 13  1  0
 13 14  2  0
 14 15  1  0
 15 16  2  0
 16 17  1  0
 16 18  1  0
 18 19  2  0
 19 20  1  0
  9 21  1  0
 21 22  1  0
 22 23  1  0
 23 24  2  0
 23 25  2  0
 23 26  1  0
 19 13  1  0
 26 21  1  0
  1 27  1  0
  1 28  1  0
  1 29  1  0
  3 30  1  0
  3 31  1  0
  3 32  1  0
  4 33  1  0
  4 34  1  0
  4 35  1  0
  8 36  1  0
  9 37  1  1
 12 38  1  0
 14 39  1  0
 15 40  1  0
 18 41  1  0
 21 42  1  0
 22 43  1  0
 22 44  1  0
 26 45  1  0
 26 46  1  0
M  END
>  <Binding energies>  (1) 
[-7.32]

>  <Ligand effiencies>  (1) 
[-0.26142857142857145]

>  <Interactions>  (1) 
["V-A:ILE:369:CG2:3237, V-A:ASP:366:CA:3210, V-B:PRO:540:CA:9855, V-A:HIS:456:CE1:4070, V-A:ILE:369:CB:3236, H-B:TYR:539:OH:9850, V-B:TYR:539:CD2:9846, V-B:GLU:543:CB:9878, H-B:ALA:541:N:9863, V-B:PRO:540:C:9853, V-B:GLU:543:CD:9880, V-B:TYR:539:CE2:9848, V-B:PRO:540:CB:9857, V-A:TYR:484:CE2:4346, V-A:TYR:484:CZ:4347, V-A:GLU:543:CD:4908, V-B:GLU:543:CG:9879"]

$$$$
ZINC223217901
     RDKit          3D

 92 99  0  0  0  0  0  0  0  0999 V2000
  132.9000  131.5510   60.4040 C   0  0  0  0  0  0  0  0  0  0  0  0
  131.5400  131.5440   60.9300 N   0  0  0  0  0  0  0  0  0  0  0  0
  131.2230  131.7230   62.2230 C   0  0  0  0  0  0  0  0  0  0  0  0
  132.0470  131.9530   63.1110 O   0  0  0  0  0  0  0  0  0  0  0  0
  129.7500  131.6690   62.5470 C   0  0  0  0  0  0  0  0  0  0  0  0
  129.3130  132.4180   63.6480 C   0  0  0  0  0  0  0  0  0  0  0  0
  127.9660  132.4740   63.9960 C   0  0  0  0  0  0  0  0  0  0  0  0
  127.0270  131.7800   63.2410 C   0  0  0  0  0  0  0  0  0  0  0  0
  127.4390  131.0190   62.1520 C   0  0  0  0  0  0  0  0  0  0  0  0
  128.7910  130.9290   61.8020 C   0  0  0  0  0  0  0  0  0  0  0  0
  129.1520  129.8790   60.3950 S   0  0  0  0  0  0  0  0  0  0  0  0
  128.8850  128.2090   60.9260 C   0  0  0  0  0  0  0  0  0  0  0  0
  129.9500  127.4390   61.4010 C   0  0  0  0  0  0  0  0  0  0  0  0
  129.7810  126.0920   61.7140 C   0  0  0  0  0  0  0  0  0  0  0  0
  128.5100  125.5220   61.5680 C   0  0  0  0  0  0  0  0  0  0  0  0
  127.9550  124.2110   61.6950 C   0  0  0  0  0  0  0  0  0  0  0  0
  128.7160  122.9160   61.9550 C   0  0  1  0  0  0  0  0  0  0  0  0
  128.7670  121.9480   60.7400 C   0  0  0  0  0  0  0  0  0  0  0  0
  128.5550  122.6420   59.3980 C   0  0  0  0  0  0  0  0  0  0  0  0
  129.2990  123.7720   59.0470 C   0  0  0  0  0  0  0  0  0  0  0  0
  129.0480  124.3800   57.8130 C   0  0  0  0  0  0  0  0  0  0  0  0
  128.0710  123.8470   56.9700 C   0  0  0  0  0  0  0  0  0  0  0  0
  127.3710  122.7160   57.3930 C   0  0  0  0  0  0  0  0  0  0  0  0
  127.6010  122.1110   58.5870 N   0  0  0  0  0  0  0  0  0  0  0  0
  130.0580  123.2320   62.4640 N   0  0  0  0  0  0  0  0  0  0  0  0
  131.1370  122.9970   61.6890 N   0  0  0  0  0  0  0  0  0  0  0  0
  132.2080  123.4250   62.3130 C   0  0  0  0  0  0  0  0  0  0  0  0
  133.5580  123.3500   61.7660 C   0  0  0  0  0  0  0  0  0  0  0  0
  134.0930  123.9130   60.6600 C   0  0  0  0  0  0  0  0  0  0  0  0
  133.4200  124.7220   59.6280 C   0  0  0  0  0  0  0  0  0  0  0  0
  133.8370  124.7160   58.2900 C   0  0  0  0  0  0  0  0  0  0  0  0
  133.1410  125.4920   57.3610 C   0  0  0  0  0  0  0  0  0  0  0  0
  132.0570  126.2600   57.7850 C   0  0  0  0  0  0  0  0  0  0  0  0
  131.7070  126.2260   59.1350 C   0  0  0  0  0  0  0  0  0  0  0  0
  132.3700  125.4760   60.0510 N   0  0  0  0  0  0  0  0  0  0  0  0
  131.8260  124.0050   63.5660 C   0  0  0  0  0  0  0  0  0  0  0  0
  132.5050  124.6270   64.6240 C   0  0  0  0  0  0  0  0  0  0  0  0
  131.7700  125.0990   65.7090 C   0  0  0  0  0  0  0  0  0  0  0  0
  130.3810  124.9630   65.7600 C   0  0  0  0  0  0  0  0  0  0  0  0
  129.4810  125.5660   67.1620 S   0  0  0  0  0  0  0  0  0  0  0  0
  128.8650  127.1380   66.5880 C   0  0  0  0  0  0  0  0  0  0  0  0
  128.7280  127.2960   65.2060 C   0  0  0  0  0  0  0  0  0  0  0  0
  128.2810  128.4980   64.6660 C   0  0  0  0  0  0  0  0  0  0  0  0
  127.9760  129.5630   65.5070 C   0  0  0  0  0  0  0  0  0  0  0  0
  128.1240  129.4260   66.8840 C   0  0  0  0  0  0  0  0  0  0  0  0
  128.5720  128.2220   67.4550 C   0  0  0  0  0  0  0  0  0  0  0  0
  128.7180  128.1370   68.9600 C   0  0  0  0  0  0  0  0  0  0  0  0
  129.4190  128.9350   69.5820 O   0  0  0  0  0  0  0  0  0  0  0  0
  128.0220  127.1520   69.5560 N   0  0  0  0  0  0  0  0  0  0  0  0
  127.9730  126.9320   70.9960 C   0  0  0  0  0  0  0  0  0  0  0  0
  129.6740  124.3350   64.7320 C   0  0  0  0  0  0  0  0  0  0  0  0
  130.4160  123.8660   63.6390 C   0  0  0  0  0  0  0  0  0  0  0  0
  126.6600  124.2410   61.4780 N   0  0  0  0  0  0  0  0  0  0  0  0
  126.3320  125.5040   61.1550 N   0  0  0  0  0  0  0  0  0  0  0  0
  127.4290  126.3390   61.1600 C   0  0  0  0  0  0  0  0  0  0  0  0
  127.5900  127.6900   60.8410 C   0  0  0  0  0  0  0  0  0  0  0  0
  133.6161  131.5547   61.2390 H   0  0  0  0  0  0  0  0  0  0  0  0
  133.0596  130.6537   59.7881 H   0  0  0  0  0  0  0  0  0  0  0  0
  133.0503  132.4499   59.7881 H   0  0  0  0  0  0  0  0  0  0  0  0
  130.8010  131.3410   60.2720 H   0  0  0  0  0  0  0  0  0  0  0  0
  130.0487  132.9726   64.2491 H   0  0  0  0  0  0  0  0  0  0  0  0
  127.6455  133.0658   64.8661 H   0  0  0  0  0  0  0  0  0  0  0  0
  125.9603  131.8327   63.5044 H   0  0  0  0  0  0  0  0  0  0  0  0
  126.6892  130.4786   61.5556 H   0  0  0  0  0  0  0  0  0  0  0  0
  130.9384  127.9042   61.5299 H   0  0  0  0  0  0  0  0  0  0  0  0
  130.6291  125.4880   62.0688 H   0  0  0  0  0  0  0  0  0  0  0  0
  128.1530  122.3593   62.7186 H   0  0  0  0  0  0  0  0  0  0  0  0
  129.7518  121.4581   60.7266 H   0  0  0  0  0  0  0  0  0  0  0  0
  127.9441  121.2288   60.8653 H   0  0  0  0  0  0  0  0  0  0  0  0
  130.0650  124.1741   59.7264 H   0  0  0  0  0  0  0  0  0  0  0  0
  129.6160  125.2715   57.5088 H   0  0  0  0  0  0  0  0  0  0  0  0
  127.8577  124.3081   55.9943 H   0  0  0  0  0  0  0  0  0  0  0  0
  126.5995  122.2964   56.7306 H   0  0  0  0  0  0  0  0  0  0  0  0
  134.2563  122.7330   62.3505 H   0  0  0  0  0  0  0  0  0  0  0  0
  135.1699  123.7459   60.5107 H   0  0  0  0  0  0  0  0  0  0  0  0
  134.6993  124.1093   57.9765 H   0  0  0  0  0  0  0  0  0  0  0  0
  133.4451  125.4975   56.3039 H   0  0  0  0  0  0  0  0  0  0  0  0
  131.4914  126.8779   57.0720 H   0  0  0  0  0  0  0  0  0  0  0  0
  130.8550  126.8347   59.4721 H   0  0  0  0  0  0  0  0  0  0  0  0
  133.5988  124.7401   64.5974 H   0  0  0  0  0  0  0  0  0  0  0  0
  132.2943  125.5889   66.5427 H   0  0  0  0  0  0  0  0  0  0  0  0
  128.9768  126.4593   64.5366 H   0  0  0  0  0  0  0  0  0  0  0  0
  128.1692  128.6056   63.5770 H   0  0  0  0  0  0  0  0  0  0  0  0
  127.6180  130.5132   65.0839 H   0  0  0  0  0  0  0  0  0  0  0  0
  127.8856  130.2771   67.5389 H   0  0  0  0  0  0  0  0  0  0  0  0
  127.4930  126.5130   68.9820 H   0  0  0  0  0  0  0  0  0  0  0  0
  128.1834  127.8768   71.5186 H   0  0  0  0  0  0  0  0  0  0  0  0
  126.9726  126.5719   71.2781 H   0  0  0  0  0  0  0  0  0  0  0  0
  128.7260  126.1813   71.2781 H   0  0  0  0  0  0  0  0  0  0  0  0
  128.5817  124.2136   64.7781 H   0  0  0  0  0  0  0  0  0  0  0  0
  125.3760  125.7380   60.9250 H   0  0  0  0  0  0  0  0  0  0  0  0
  126.7377  128.3155   60.5373 H   0  0  0  0  0  0  0  0  0  0  0  0
  1  2  1  0
  2  3  1  0
  3  4  2  0
  3  5  1  0
  5  6  2  0
  6  7  1  0
  7  8  2  0
  8  9  1  0
  9 10  2  0
 10 11  1  0
 11 12  1  0
 12 13  2  0
 13 14  1  0
 14 15  2  0
 15 16  1  0
 16 17  1  0
 17 18  1  0
 18 19  1  0
 19 20  2  0
 20 21  1  0
 21 22  2  0
 22 23  1  0
 23 24  2  0
 17 25  1  0
 25 26  1  0
 26 27  2  0
 27 28  1  0
 28 29  2  0
 29 30  1  0
 30 31  2  0
 31 32  1  0
 32 33  2  0
 33 34  1  0
 34 35  2  0
 27 36  1  0
 36 37  2  0
 37 38  1  0
 38 39  2  0
 39 40  1  0
 40 41  1  0
 41 42  2  0
 42 43  1  0
 43 44  2  0
 44 45  1  0
 45 46  2  0
 46 47  1  0
 47 48  2  0
 47 49  1  0
 49 50  1  0
 39 51  1  0
 51 52  2  0
 16 53  2  0
 53 54  1  0
 54 55  1  0
 55 56  2  0
 10  5  1  0
 56 12  1  0
 55 15  1  0
 24 19  1  0
 52 25  1  0
 35 30  1  0
 52 36  1  0
 46 41  1  0
  1 57  1  0
  1 58  1  0
  1 59  1  0
  2 60  1  0
  6 61  1  0
  7 62  1  0
  8 63  1  0
  9 64  1  0
 13 65  1  0
 14 66  1  0
 17 67  1  1
 18 68  1  0
 18 69  1  0
 20 70  1  0
 21 71  1  0
 22 72  1  0
 23 73  1  0
 28 74  1  0
 29 75  1  0
 31 76  1  0
 32 77  1  0
 33 78  1  0
 34 79  1  0
 37 80  1  0
 38 81  1  0
 42 82  1  0
 43 83  1  0
 44 84  1  0
 45 85  1  0
 49 86  1  0
 50 87  1  0
 50 88  1  0
 50 89  1  0
 51 90  1  0
 54 91  1  0
 56 92  1  0
M  END
>  <Binding energies>  (1) 
[-11.66]

>  <Ligand effiencies>  (1) 
[-0.1976271186440678]

>  <Interactions>  (1) 
["V-A:ILE:369:CG2:3237, V-A:ASP:366:CA:3210, V-B:PRO:540:CA:9855, V-B:GLU:543:C:9874, V-A:ILE:369:CB:3236, H-B:GLU:543:O:9875, H-A:ALA:541:N:4891, V-B:GLU:543:CB:9878, V-B:TYR:539:CE2:9848, V-B:LEU:475:CD2:9230, V-B:GLU:543:CG:9879, V-B:TYR:539:C:9839, V-A:ASP:366:CG:3213, V-B:TYR:484:CE2:9317, V-B:TYR:539:CZ:9849, H-B:GLU:543:OE1:9881, V-A:ALA:541:CB:4892, V-A:GLU:543:CD:4908, V-A:TYR:484:CZ:4347, H-B:ASP:366:OD1:8185, V-B:HIS:456:CE1:9041, V-B:PRO:540:N:9856, V-A:ILE:369:CD1:3239, V-B:TYR:484:CZ:9318, V-A:ASP:366:C:3208, V-B:GLY:544:C:9884, V-A:ALA:541:CA:4890, V-B:TYR:539:CD2:9846, V-A:GLU:543:CG:4907, V-A:TYR:531:CZ:4794, V-B:GLU:543:CD:9880, V-A:ASP:366:CB:3212, V-A:ARG:545:CZ:4926, V-B:TYR:539:CG:9844, V-A:GLU:543:CB:4906, V-B:TYR:539:CD1:9845, V-A:PRO:540:CB:4885, V-A:PRO:540:CA:4883, V-B:PRO:540:C:9853, V-B:TYR:539:CE1:9847"]

$$$$
ZINC223382050
     RDKit          3D

 94102  0  0  0  0  0  0  0  0999 V2000
  125.6380  124.9150   59.6560 C   0  0  0  0  0  0  0  0  0  0  0  0
  126.8890  125.6020   60.2470 C   0  0  0  0  0  0  0  0  0  0  0  0
  127.1670  127.0770   59.7710 C   0  0  1  0  0  0  0  0  0  0  0  0
  128.5110  127.1120   59.2290 O   0  0  0  0  0  0  0  0  0  0  0  0
  129.1360  126.1360   58.4990 C   0  0  0  0  0  0  0  0  0  0  0  0
  130.3530  125.9680   58.3940 O   0  0  0  0  0  0  0  0  0  0  0  0
  128.1240  125.2260   57.7960 C   0  0  0  0  0  0  0  0  0  0  0  0
  128.6760  123.8280   57.4310 C   0  0  0  0  0  0  0  0  0  0  0  0
  127.7940  122.6610   57.8880 C   0  0  0  0  0  0  0  0  0  0  0  0
  127.4690  121.7780   57.0910 O   0  0  0  0  0  0  0  0  0  0  0  0
  127.4480  122.7370   59.2060 O   0  0  0  0  0  0  0  0  0  0  0  0
  128.4340  123.1640   60.1070 C   0  0  2  0  0  0  0  0  0  0  0  0
  129.6580  122.5490   59.8030 O   0  0  0  0  0  0  0  0  0  0  0  0
  130.7500  122.9760   60.5730 C   0  0  2  0  0  0  0  0  0  0  0  0
  131.8690  122.3120   60.0220 O   0  0  0  0  0  0  0  0  0  0  0  0
  132.3410  121.1480   60.7220 C   0  0  1  0  0  0  0  0  0  0  0  0
  132.9060  120.2110   59.6400 C   0  0  0  0  0  0  0  0  0  0  0  0
  133.3690  121.5600   61.8040 C   0  0  0  0  0  0  0  0  0  0  0  0
  133.1060  122.9130   62.4850 C   0  0  0  0  0  0  0  0  0  0  0  0
  131.6730  123.1730   63.0340 C   0  0  1  0  0  0  0  0  0  0  0  0
  131.5470  124.6870   63.4180 C   0  0  2  0  0  0  0  0  0  0  0  0
  132.5820  125.1540   64.4670 C   0  0  0  0  0  0  0  0  0  0  0  0
  130.1280  125.0290   63.8990 C   0  0  0  0  0  0  0  0  0  0  0  0
  129.1000  124.6850   62.8240 C   0  0  0  0  0  0  0  0  0  0  0  0
  129.0990  123.1630   62.5430 C   0  0  1  0  0  0  0  0  0  0  0  0
  128.0000  122.7370   61.5210 C   0  0  1  0  0  0  0  0  0  0  0  0
  126.5750  123.1980   61.9050 C   0  0  0  0  0  0  0  0  0  0  0  0
  130.5130  122.6600   62.0850 C   0  0  1  0  0  0  0  0  0  0  0  0
  130.4400  121.2320   62.2390 O   0  0  0  0  0  0  0  0  0  0  0  0
  131.2850  120.4210   61.3390 O   0  0  0  0  0  0  0  0  0  0  0  0
  126.0960  127.4730   58.6930 C   0  0  0  0  0  0  0  0  0  0  0  0
  125.5050  126.7160   57.9220 O   0  0  0  0  0  0  0  0  0  0  0  0
  125.6850  128.7740   58.6560 O   0  0  0  0  0  0  0  0  0  0  0  0
  126.3590  129.8000   59.3920 C   0  0  0  0  0  0  0  0  0  0  0  0
  126.8090  129.3510   60.7810 C   0  0  0  0  0  0  0  0  0  0  0  0
  127.1950  128.0550   60.9660 C   0  0  0  0  0  0  0  0  0  0  0  0
  127.6620  127.6800   62.3030 C   0  0  0  0  0  0  0  0  0  0  0  0
  127.6440  128.6070   63.2800 C   0  0  0  0  0  0  0  0  0  0  0  0
  127.2240  129.9010   63.0810 N   0  0  0  0  0  0  0  0  0  0  0  0
  126.7950  130.3560   61.8600 C   0  0  0  0  0  0  0  0  0  0  0  0
  126.4310  131.5210   61.6870 O   0  0  0  0  0  0  0  0  0  0  0  0
  127.2870  130.7390   64.2760 C   0  0  0  0  0  0  0  0  0  0  0  0
  127.8110  129.7670   65.2930 C   0  0  0  0  0  0  0  0  0  0  0  0
  128.0920  129.9190   66.6480 C   0  0  0  0  0  0  0  0  0  0  0  0
  128.5810  128.8020   67.3760 C   0  0  0  0  0  0  0  0  0  0  0  0
  128.8860  128.8670   68.7570 C   0  0  0  0  0  0  0  0  0  0  0  0
  129.3610  127.7370   69.4220 C   0  0  0  0  0  0  0  0  0  0  0  0
  129.5410  126.5370   68.7410 C   0  0  0  0  0  0  0  0  0  0  0  0
  129.2510  126.4390   67.3820 C   0  0  0  0  0  0  0  0  0  0  0  0
  128.7660  127.5660   66.6750 C   0  0  0  0  0  0  0  0  0  0  0  0
  128.4860  127.4400   65.3460 N   0  0  0  0  0  0  0  0  0  0  0  0
  128.0180  128.5350   64.6970 C   0  0  0  0  0  0  0  0  0  0  0  0
  124.9933  124.5609   60.4739 H   0  0  0  0  0  0  0  0  0  0  0  0
  125.0826  125.6347   59.0366 H   0  0  0  0  0  0  0  0  0  0  0  0
  125.9473  124.0602   59.0366 H   0  0  0  0  0  0  0  0  0  0  0  0
  126.7764  125.6188   61.3411 H   0  0  0  0  0  0  0  0  0  0  0  0
  127.7446  125.0120   59.8867 H   0  0  0  0  0  0  0  0  0  0  0  0
  127.2590  125.0923   58.4623 H   0  0  0  0  0  0  0  0  0  0  0  0
  127.8597  125.7190   56.8488 H   0  0  0  0  0  0  0  0  0  0  0  0
  128.7794  123.7736   56.3372 H   0  0  0  0  0  0  0  0  0  0  0  0
  129.6358  123.7217   57.9578 H   0  0  0  0  0  0  0  0  0  0  0  0
  128.5546  124.2555   60.0436 H   0  0  0  0  0  0  0  0  0  0  0  0
  130.9041  124.0647   60.5410 H   0  0  0  0  0  0  0  0  0  0  0  0
  133.4172  119.3633   60.1196 H   0  0  0  0  0  0  0  0  0  0  0  0
  132.0832  119.8362   59.0135 H   0  0  0  0  0  0  0  0  0  0  0  0
  133.6215  120.7638   59.0135 H   0  0  0  0  0  0  0  0  0  0  0  0
  133.3711  120.7832   62.5828 H   0  0  0  0  0  0  0  0  0  0  0  0
  134.3312  121.6665   61.2817 H   0  0  0  0  0  0  0  0  0  0  0  0
  133.8037  122.9974   63.3312 H   0  0  0  0  0  0  0  0  0  0  0  0
  133.2413  123.6594   61.6884 H   0  0  0  0  0  0  0  0  0  0  0  0
  131.5346  122.5640   63.9395 H   0  0  0  0  0  0  0  0  0  0  0  0
  131.7626  125.2361   62.4896 H   0  0  0  0  0  0  0  0  0  0  0  0
  132.1860  124.9753   65.4776 H   0  0  0  0  0  0  0  0  0  0  0  0
  133.5176  124.5908   64.3349 H   0  0  0  0  0  0  0  0  0  0  0  0
  132.7788  126.2282   64.3349 H   0  0  0  0  0  0  0  0  0  0  0  0
  129.9060  124.4529   64.8094 H   0  0  0  0  0  0  0  0  0  0  0  0
  130.0746  126.1074   64.1093 H   0  0  0  0  0  0  0  0  0  0  0  0
  128.1007  124.9904   63.1676 H   0  0  0  0  0  0  0  0  0  0  0  0
  129.3615  125.2178   61.8979 H   0  0  0  0  0  0  0  0  0  0  0  0
  128.8527  122.6765   63.4984 H   0  0  0  0  0  0  0  0  0  0  0  0
  127.9163  121.6404   61.5404 H   0  0  0  0  0  0  0  0  0  0  0  0
  126.4821  123.2280   63.0007 H   0  0  0  0  0  0  0  0  0  0  0  0
  126.3910  124.2015   61.4938 H   0  0  0  0  0  0  0  0  0  0  0  0
  125.8381  122.4924   61.4938 H   0  0  0  0  0  0  0  0  0  0  0  0
  127.2461  130.1133   58.8219 H   0  0  0  0  0  0  0  0  0  0  0  0
  125.6438  130.6240   59.5318 H   0  0  0  0  0  0  0  0  0  0  0  0
  128.0208  126.6600   62.5053 H   0  0  0  0  0  0  0  0  0  0  0  0
  127.9749  131.5861   64.1374 H   0  0  0  0  0  0  0  0  0  0  0  0
  126.3283  131.2033   64.5504 H   0  0  0  0  0  0  0  0  0  0  0  0
  127.9379  130.8876   67.1461 H   0  0  0  0  0  0  0  0  0  0  0  0
  128.7481  129.8101   69.3062 H   0  0  0  0  0  0  0  0  0  0  0  0
  129.5956  127.7949   70.4951 H   0  0  0  0  0  0  0  0  0  0  0  0
  129.9165  125.6558   69.2818 H   0  0  0  0  0  0  0  0  0  0  0  0
  129.3991  125.4839   66.8568 H   0  0  0  0  0  0  0  0  0  0  0  0
  1  2  1  0
  2  3  1  0
  3  4  1  6
  4  5  1  0
  5  6  2  0
  5  7  1  0
  7  8  1  0
  8  9  1  0
  9 10  2  0
  9 11  1  0
 11 12  1  0
 12 13  1  0
 13 14  1  0
 14 15  1  0
 15 16  1  0
 16 17  1  6
 16 18  1  0
 18 19  1  0
 19 20  1  0
 20 21  1  0
 21 22  1  0
 21 23  1  0
 23 24  1  0
 24 25  1  0
 25 26  1  0
 26 27  1  0
 25 28  1  0
 28 29  1  6
 29 30  1  0
  3 31  1  0
 31 32  2  0
 31 33  1  0
 33 34  1  0
 34 35  1  0
 35 36  2  0
 36 37  1  0
 37 38  2  0
 38 39  1  0
 39 40  1  0
 40 41  2  0
 39 42  1  0
 42 43  1  0
 43 44  2  0
 44 45  1  0
 45 46  2  0
 46 47  1  0
 47 48  2  0
 48 49  1  0
 49 50  2  0
 50 51  1  0
 51 52  2  0
 36  3  1  0
 52 38  1  0
 26 12  1  0
 40 35  1  0
 52 43  1  0
 28 14  1  0
 50 45  1  0
 30 16  1  0
 28 20  1  0
  1 53  1  0
  1 54  1  0
  1 55  1  0
  2 56  1  0
  2 57  1  0
  7 58  1  0
  7 59  1  0
  8 60  1  0
  8 61  1  0
 12 62  1  1
 14 63  1  1
 17 64  1  0
 17 65  1  0
 17 66  1  0
 18 67  1  0
 18 68  1  0
 19 69  1  0
 19 70  1  0
 20 71  1  1
 21 72  1  6
 22 73  1  0
 22 74  1  0
 22 75  1  0
 23 76  1  0
 23 77  1  0
 24 78  1  0
 24 79  1  0
 25 80  1  1
 26 81  1  6
 27 82  1  0
 27 83  1  0
 27 84  1  0
 34 85  1  0
 34 86  1  0
 37 87  1  0
 42 88  1  0
 42 89  1  0
 44 90  1  0
 46 91  1  0
 47 92  1  0
 48 93  1  0
 49 94  1  0
M  END
>  <Binding energies>  (1) 
[-8.85]

>  <Ligand effiencies>  (1) 
[-0.1638888888888889]

>  <Interactions>  (1) 
["V-A:ILE:369:CG2:3237, V-B:PRO:540:CA:9855, V-A:GLU:543:CA:4904, V-A:GLU:543:C:4902, V-B:GLU:543:CB:9878, V-B:ASP:366:CG:8184, V-B:TYR:539:CE2:9848, H-B:TYR:539:N:9842, V-B:GLU:543:CG:9879, V-B:TYR:539:C:9839, V-B:TYR:484:CE2:9317, V-B:TYR:539:CZ:9849, H-B:TYR:539:OH:9850, V-B:ASP:366:CB:8183, V-A:GLU:543:CD:4908, V-B:PRO:540:CB:9857, V-B:HIS:456:CE1:9041, V-B:PRO:540:N:9856, V-B:TYR:484:CZ:9318, V-A:HIS:456:CE1:4070, V-B:TYR:539:CD2:9846, V-A:GLU:543:CG:4907, V-A:SER:385:CB:3409, H-A:SER:385:OG:3410, V-B:GLU:543:CD:9880, H-B:TYR:531:OH:9767, V-A:LEU:475:CD2:4259, V-A:ARG:545:CZ:4926, V-B:TYR:539:CG:9844, V-A:GLU:543:CB:4906, V-B:TYR:539:CD1:9845, V-B:PRO:540:C:9853, V-B:TYR:539:CE1:9847"]

$$$$
ZINC223383468
     RDKit          3D

 81 83  0  0  0  0  0  0  0  0999 V2000
  127.9950  133.0500   64.2350 C   0  0  0  0  0  0  0  0  0  0  0  0
  128.5080  131.6010   64.2860 C   0  0  0  0  0  0  0  0  0  0  0  0
  127.9950  130.7090   63.1200 C   0  0  1  0  0  0  0  0  0  0  0  0
  128.7070  130.9930   61.7790 C   0  0  0  0  0  0  0  0  0  0  0  0
  128.0780  131.5000   60.8490 O   0  0  0  0  0  0  0  0  0  0  0  0
  129.9990  130.6150   61.7150 N   0  0  0  0  0  0  0  0  0  0  0  0
  130.9050  130.6770   60.5570 C   0  0  0  0  0  0  0  0  0  0  0  0
  132.2850  131.1340   61.0750 C   0  0  0  0  0  0  0  0  0  0  0  0
  131.0640  129.2830   59.9030 C   0  0  0  0  0  0  0  0  0  0  0  0
  130.4210  131.6990   59.5010 C   0  0  0  0  0  0  0  0  0  0  0  0
  127.9190  129.2510   63.4140 N   0  0  0  0  0  0  0  0  0  0  0  0
  127.1260  128.9410   64.6220 C   0  0  0  0  0  0  0  0  0  0  0  0
  127.9600  128.6140   65.8590 C   0  0  0  0  0  0  0  0  0  0  0  0
  127.9660  129.5090   66.9320 C   0  0  0  0  0  0  0  0  0  0  0  0
  128.7240  129.2330   68.0660 C   0  0  0  0  0  0  0  0  0  0  0  0
  129.4760  128.0620   68.1270 C   0  0  0  0  0  0  0  0  0  0  0  0
  130.4170  127.7210   69.5340 Cl  0  0  0  0  0  0  0  0  0  0  0  0
  129.4760  127.1640   67.0620 C   0  0  0  0  0  0  0  0  0  0  0  0
  128.7180  127.4390   65.9280 C   0  0  0  0  0  0  0  0  0  0  0  0
  128.4060  128.2720   62.5940 C   0  0  0  0  0  0  0  0  0  0  0  0
  129.6150  128.1140   62.4120 O   0  0  0  0  0  0  0  0  0  0  0  0
  127.4190  127.3800   61.7930 C   0  0  0  0  0  0  0  0  0  0  0  0
  128.0370  126.2250   61.1600 N   0  0  0  0  0  0  0  0  0  0  0  0
  127.8670  125.9690   59.7780 C   0  0  0  0  0  0  0  0  0  0  0  0
  127.5590  124.6660   59.3620 C   0  0  0  0  0  0  0  0  0  0  0  0
  127.3560  124.3730   58.0170 C   0  0  0  0  0  0  0  0  0  0  0  0
  126.9690  122.7620   57.5340 Cl  0  0  0  0  0  0  0  0  0  0  0  0
  127.4600  125.3820   57.0650 C   0  0  0  0  0  0  0  0  0  0  0  0
  127.7670  126.6810   57.4610 C   0  0  0  0  0  0  0  0  0  0  0  0
  127.9770  126.9950   58.8170 C   0  0  0  0  0  0  0  0  0  0  0  0
  128.3040  128.2680   59.2500 O   0  0  0  0  0  0  0  0  0  0  0  0
  128.0900  129.3840   58.3930 C   0  0  0  0  0  0  0  0  0  0  0  0
  128.8430  125.0260   62.2240 S   0  0  0  0  0  0  0  0  0  0  0  0
  128.8680  125.5580   63.5920 O   0  0  0  0  0  0  0  0  0  0  0  0
  128.2400  123.7210   61.9230 O   0  0  0  0  0  0  0  0  0  0  0  0
  130.5230  124.9800   61.6010 C   0  0  0  0  0  0  0  0  0  0  0  0
  130.7720  124.8500   60.2370 C   0  0  0  0  0  0  0  0  0  0  0  0
  132.0770  124.6700   59.7830 C   0  0  0  0  0  0  0  0  0  0  0  0
  133.1490  124.6040   60.6810 C   0  0  0  0  0  0  0  0  0  0  0  0
  134.5320  124.3150   60.1140 C   0  0  0  0  0  0  0  0  0  0  0  0
  132.9090  124.7500   62.0670 C   0  0  0  0  0  0  0  0  0  0  0  0
  133.9850  124.6840   63.0870 N   0  0  0  0  0  0  0  0  0  0  0  0
  135.1580  124.7010   62.7270 O   0  0  0  0  0  0  0  0  0  0  0  0
  133.6550  124.6480   64.2690 O   0  0  0  0  0  0  0  0  0  0  0  0
  131.5890  124.9440   62.5010 C   0  0  0  0  0  0  0  0  0  0  0  0
  127.8612  133.4279   65.2594 H   0  0  0  0  0  0  0  0  0  0  0  0
  128.7251  133.6790   63.7046 H   0  0  0  0  0  0  0  0  0  0  0  0
  127.0318  133.0795   63.7046 H   0  0  0  0  0  0  0  0  0  0  0  0
  129.6072  131.6213   64.2487 H   0  0  0  0  0  0  0  0  0  0  0  0
  128.1249  131.1595   65.2178 H   0  0  0  0  0  0  0  0  0  0  0  0
  126.9467  131.0229   63.0080 H   0  0  0  0  0  0  0  0  0  0  0  0
  130.4010  130.2060   62.5460 H   0  0  0  0  0  0  0  0  0  0  0  0
  132.2824  131.1331   62.1750 H   0  0  0  0  0  0  0  0  0  0  0  0
  133.0605  130.4447   60.7096 H   0  0  0  0  0  0  0  0  0  0  0  0
  132.4958  132.1499   60.7096 H   0  0  0  0  0  0  0  0  0  0  0  0
  131.1513  128.5175   60.6881 H   0  0  0  0  0  0  0  0  0  0  0  0
  130.1845  129.0687   59.2781 H   0  0  0  0  0  0  0  0  0  0  0  0
  131.9692  129.2723   59.2781 H   0  0  0  0  0  0  0  0  0  0  0  0
  130.0033  132.5809   60.0087 H   0  0  0  0  0  0  0  0  0  0  0  0
  131.2695  132.0058   58.8718 H   0  0  0  0  0  0  0  0  0  0  0  0
  129.6461  131.2369   58.8718 H   0  0  0  0  0  0  0  0  0  0  0  0
  126.4960  129.8127   64.8527 H   0  0  0  0  0  0  0  0  0  0  0  0
  126.5419  128.0382   64.3902 H   0  0  0  0  0  0  0  0  0  0  0  0
  127.3710  130.4327   66.8803 H   0  0  0  0  0  0  0  0  0  0  0  0
  128.7293  129.9370   68.9112 H   0  0  0  0  0  0  0  0  0  0  0  0
  130.0726  126.2415   67.1173 H   0  0  0  0  0  0  0  0  0  0  0  0
  128.7143  126.7325   65.0849 H   0  0  0  0  0  0  0  0  0  0  0  0
  126.6416  127.0202   62.4831 H   0  0  0  0  0  0  0  0  0  0  0  0
  127.0145  128.0051   60.9832 H   0  0  0  0  0  0  0  0  0  0  0  0
  127.4766  123.8636   60.1099 H   0  0  0  0  0  0  0  0  0  0  0  0
  127.2999  125.1539   56.0009 H   0  0  0  0  0  0  0  0  0  0  0  0
  127.8466  127.4739   56.7027 H   0  0  0  0  0  0  0  0  0  0  0  0
  127.9173  130.2848   59.0002 H   0  0  0  0  0  0  0  0  0  0  0  0
  128.9757  129.5340   57.7582 H   0  0  0  0  0  0  0  0  0  0  0  0
  127.2116  129.1957   57.7582 H   0  0  0  0  0  0  0  0  0  0  0  0
  129.9396  124.8894   59.5190 H   0  0  0  0  0  0  0  0  0  0  0  0
  132.2677  124.5784   58.7035 H   0  0  0  0  0  0  0  0  0  0  0  0
  135.2432  124.1664   60.9399 H   0  0  0  0  0  0  0  0  0  0  0  0
  134.4923  123.4057   59.4962 H   0  0  0  0  0  0  0  0  0  0  0  0
  134.8598  125.1641   59.4962 H   0  0  0  0  0  0  0  0  0  0  0  0
  131.3897  125.0706   63.5754 H   0  0  0  0  0  0  0  0  0  0  0  0
  1  2  1  0
  2  3  1  0
  3  4  1  0
  4  5  2  0
  4  6  1  0
  6  7  1  0
  7  8  1  0
  7  9  1  0
  7 10  1  0
  3 11  1  0
 11 12  1  0
 12 13  1  0
 13 14  2  0
 14 15  1  0
 15 16  2  0
 16 17  1  0
 16 18  1  0
 18 19  2  0
 11 20  1  0
 20 21  2  0
 20 22  1  0
 22 23  1  0
 23 24  1  0
 24 25  2  0
 25 26  1  0
 26 27  1  0
 26 28  2  0
 28 29  1  0
 29 30  2  0
 30 31  1  0
 31 32  1  0
 23 33  1  0
 33 34  2  0
 33 35  2  0
 33 36  1  0
 36 37  2  0
 37 38  1  0
 38 39  2  0
 39 40  1  0
 39 41  1  0
 41 42  1  0
 42 43  2  0
 42 44  1  0
 41 45  2  0
 19 13  1  0
 30 24  1  0
 45 36  1  0
  1 46  1  0
  1 47  1  0
  1 48  1  0
  2 49  1  0
  2 50  1  0
  3 51  1  6
  6 52  1  0
  8 53  1  0
  8 54  1  0
  8 55  1  0
  9 56  1  0
  9 57  1  0
  9 58  1  0
 10 59  1  0
 10 60  1  0
 10 61  1  0
 12 62  1  0
 12 63  1  0
 14 64  1  0
 15 65  1  0
 18 66  1  0
 19 67  1  0
 22 68  1  0
 22 69  1  0
 25 70  1  0
 28 71  1  0
 29 72  1  0
 32 73  1  0
 32 74  1  0
 32 75  1  0
 37 76  1  0
 38 77  1  0
 40 78  1  0
 40 79  1  0
 40 80  1  0
 45 81  1  0
M  CHG  2  42   1  44  -1
M  END
>  <Binding energies>  (1) 
[-7.76]

>  <Ligand effiencies>  (1) 
[-0.16869565217391305]

>  <Interactions>  (1) 
["V-A:ILE:369:CG2:3237, V-A:ASP:366:CA:3210, V-B:PRO:540:CA:9855, V-A:GLU:543:CA:4904, V-A:ILE:369:CB:3236, V-A:GLU:543:C:4902, V-B:GLU:543:CB:9878, H-A:ARG:545:NH1:4927, V-B:TYR:539:CE2:9848, V-B:GLU:543:CG:9879, V-B:LEU:475:CD2:9230, V-B:TYR:539:C:9839, V-A:ASP:366:CG:3213, V-B:TYR:484:CE2:9317, V-A:ALA:541:CB:4892, V-A:GLU:543:CD:4908, V-B:PRO:540:CB:9857, V-B:HIS:456:CE1:9041, H-A:GLY:454:N:4050, V-B:PRO:540:N:9856, V-B:TYR:484:CZ:9318, V-A:HIS:456:CE1:4070, V-A:ILE:369:CD1:3239, V-B:PRO:540:CD:9859, V-A:GLU:543:CG:4907, V-B:GLU:543:CD:9880, V-A:ILE:369:CG1:3238, V-A:ASP:366:CB:3212, H-A:ARG:545:NH2:4928, V-A:ARG:545:CZ:4926, H-A:GLU:543:OE1:4909, V-A:GLU:543:CB:4906, V-A:PRO:540:CB:4885, V-A:PRO:540:CA:4883, V-A:GLY:453:CA:4044, H-A:ARG:545:NE:4924, H-A:TYR:484:OH:4348"]

$$$$
ZINC2234500203
     RDKit          3D

 33 34  0  0  0  0  0  0  0  0999 V2000
  129.4830  122.3950   64.1560 C   0  0  0  0  0  0  0  0  0  0  0  0
  129.8840  122.8980   62.7600 C   0  0  2  0  0  0  0  0  0  0  0  0
  128.4080  122.5020   61.4800 Br  0  0  0  0  0  0  0  0  0  0  0  0
  131.2150  122.3090   62.2740 C   0  0  0  0  0  0  0  0  0  0  0  0
  131.2100  121.5240   61.1120 C   0  0  0  0  0  0  0  0  0  0  0  0
  132.3840  120.9560   60.6270 C   0  0  0  0  0  0  0  0  0  0  0  0
  133.5830  121.1630   61.3010 C   0  0  0  0  0  0  0  0  0  0  0  0
  133.6070  121.9360   62.4590 C   0  0  0  0  0  0  0  0  0  0  0  0
  132.4310  122.5150   62.9600 C   0  0  0  0  0  0  0  0  0  0  0  0
  132.4510  123.2930   64.1300 N   0  0  0  0  0  0  0  0  0  0  0  0
  132.9130  125.0040   64.1900 S   0  0  0  0  0  0  0  0  0  0  0  0
  131.7020  125.7600   64.5330 O   0  0  0  0  0  0  0  0  0  0  0  0
  134.1060  125.0980   65.0370 O   0  0  0  0  0  0  0  0  0  0  0  0
  133.3900  125.3470   62.3950 C   0  0  0  0  0  0  0  0  0  0  0  0
  132.2070  125.4820   61.4600 C   0  0  0  0  0  0  0  0  0  0  0  0
  130.9590  126.0110   61.8310 C   0  0  0  0  0  0  0  0  0  0  0  0
  130.0340  126.0460   60.8000 C   0  0  0  0  0  0  0  0  0  0  0  0
  130.6830  125.4120   59.3290 S   0  0  0  0  0  0  0  0  0  0  0  0
  132.1970  125.1040   60.1170 C   0  0  0  0  0  0  0  0  0  0  0  0
  133.6220  124.3280   59.1210 Br  0  0  0  0  0  0  0  0  0  0  0  0
  129.9745  123.0115   64.9230 H   0  0  0  0  0  0  0  0  0  0  0  0
  128.3915  122.4666   64.2720 H   0  0  0  0  0  0  0  0  0  0  0  0
  129.7961  121.3469   64.2720 H   0  0  0  0  0  0  0  0  0  0  0  0
  130.0440  123.9846   62.8205 H   0  0  0  0  0  0  0  0  0  0  0  0
  130.2643  121.3548   60.5762 H   0  0  0  0  0  0  0  0  0  0  0  0
  132.3639  120.3447   59.7127 H   0  0  0  0  0  0  0  0  0  0  0  0
  134.5126  120.7159   60.9191 H   0  0  0  0  0  0  0  0  0  0  0  0
  134.5588  122.0946   62.9871 H   0  0  0  0  0  0  0  0  0  0  0  0
  132.3870  122.8030   65.0100 H   0  0  0  0  0  0  0  0  0  0  0  0
  133.9654  126.2839   62.3627 H   0  0  0  0  0  0  0  0  0  0  0  0
  133.9728  124.4807   62.0488 H   0  0  0  0  0  0  0  0  0  0  0  0
  130.7365  126.3654   62.8483 H   0  0  0  0  0  0  0  0  0  0  0  0
  129.0091  126.4313   60.9052 H   0  0  0  0  0  0  0  0  0  0  0  0
  1  2  1  0
  2  3  1  0
  2  4  1  0
  4  5  2  0
  5  6  1  0
  6  7  2  0
  7  8  1  0
  8  9  2  0
  9 10  1  0
 10 11  1  0
 11 12  2  0
 11 13  2  0
 11 14  1  0
 14 15  1  0
 15 16  1  0
 16 17  2  0
 17 18  1  0
 18 19  1  0
 19 20  1  0
  9  4  1  0
 19 15  2  0
  1 21  1  0
  1 22  1  0
  1 23  1  0
  2 24  1  1
  5 25  1  0
  6 26  1  0
  7 27  1  0
  8 28  1  0
 10 29  1  0
 14 30  1  0
 14 31  1  0
 16 32  1  0
 17 33  1  0
M  END
>  <Binding energies>  (1) 
[-6.28]

>  <Ligand effiencies>  (1) 
[-0.29904761904761906]

>  <Interactions>  (1) 
["V-A:ILE:369:CG2:3237, V-A:ASP:366:CA:3210, V-B:PRO:540:CA:9855, V-A:GLY:454:CA:4049, V-A:ILE:369:CB:3236, V-B:ALA:541:CB:9864, H-A:ARG:545:NH1:4927, V-B:TYR:539:CE2:9848, V-B:GLU:543:CG:9879, V-A:ASP:366:CG:3213, H-A:GLY:454:N:4050, V-A:SER:385:C:3405, V-B:TYR:539:CD2:9846, V-A:SER:385:CB:3409, V-A:ASP:366:CB:3212, V-A:LEU:475:CD2:4259, H-A:ARG:545:NH2:4928, V-A:ARG:545:CZ:4926, H-A:ARG:545:NE:4924, V-A:SER:385:CA:3407, V-B:PRO:540:C:9853, H-A:TYR:484:OH:4348"]

$$$$
ZINC223510168
     RDKit          3D

 34 33  0  0  0  0  0  0  0  0999 V2000
  127.5710  122.5370   57.3630 C   0  0  0  0  0  0  0  0  0  0  0  0
  126.8560  123.2180   58.5550 C   0  0  0  0  0  0  0  0  0  0  0  0
  125.9970  124.3930   58.0270 C   0  0  0  0  0  0  0  0  0  0  0  0
  127.8010  123.6050   59.7550 C   0  0  1  0  0  0  0  0  0  0  0  0
  128.3570  122.0730   60.5060 Cl  0  0  0  0  0  0  0  0  0  0  0  0
  129.3100  124.4890   59.1920 S   0  0  0  0  0  0  0  0  0  0  0  0
  130.8740  123.8980   60.3840 S   0  0  0  0  0  0  0  0  0  0  0  0
  132.1120  125.2540   60.4590 C   0  0  2  0  0  0  0  0  0  0  0  0
  131.2790  126.7990   60.8450 Cl  0  0  0  0  0  0  0  0  0  0  0  0
  132.8840  125.4470   59.1020 C   0  0  0  0  0  0  0  0  0  0  0  0
  132.0430  126.0620   57.9620 C   0  0  0  0  0  0  0  0  0  0  0  0
  133.5750  124.1630   58.5890 C   0  0  0  0  0  0  0  0  0  0  0  0
  133.0890  124.9670   61.6480 C   0  0  0  0  0  0  0  0  0  0  0  0
  132.2970  125.0690   63.2480 Cl  0  0  0  0  0  0  0  0  0  0  0  0
  133.9050  123.3800   61.5050 Cl  0  0  0  0  0  0  0  0  0  0  0  0
  127.0470  124.3830   60.8830 C   0  0  0  0  0  0  0  0  0  0  0  0
  126.8730  126.1270   60.5180 Cl  0  0  0  0  0  0  0  0  0  0  0  0
  125.4400  123.6950   61.2520 Cl  0  0  0  0  0  0  0  0  0  0  0  0
  128.3187  121.8249   57.7422 H   0  0  0  0  0  0  0  0  0  0  0  0
  126.8318  122.0007   56.7498 H   0  0  0  0  0  0  0  0  0  0  0  0
  128.0706  123.3014   56.7498 H   0  0  0  0  0  0  0  0  0  0  0  0
  126.1885  122.4746   59.0153 H   0  0  0  0  0  0  0  0  0  0  0  0
  125.5849  124.9568   58.8769 H   0  0  0  0  0  0  0  0  0  0  0  0
  126.6230  125.0586   57.4145 H   0  0  0  0  0  0  0  0  0  0  0  0
  125.1729  123.9984   57.4145 H   0  0  0  0  0  0  0  0  0  0  0  0
  133.6589  126.1783   59.3752 H   0  0  0  0  0  0  0  0  0  0  0  0
  131.2254  126.6599   58.3910 H   0  0  0  0  0  0  0  0  0  0  0  0
  132.6825  126.7071   57.3415 H   0  0  0  0  0  0  0  0  0  0  0  0
  131.6221  125.2571   57.3415 H   0  0  0  0  0  0  0  0  0  0  0  0
  133.9020  123.5553   59.4456 H   0  0  0  0  0  0  0  0  0  0  0  0
  132.8665  123.5843   57.9782 H   0  0  0  0  0  0  0  0  0  0  0  0
  134.4482  124.4356   57.9782 H   0  0  0  0  0  0  0  0  0  0  0  0
  133.8435  125.7646   61.5797 H   0  0  0  0  0  0  0  0  0  0  0  0
  127.6840  124.2696   61.7726 H   0  0  0  0  0  0  0  0  0  0  0  0
  1  2  1  0
  2  3  1  0
  2  4  1  0
  4  5  1  1
  4  6  1  0
  6  7  1  0
  7  8  1  0
  8  9  1  1
  8 10  1  0
 10 11  1  0
 10 12  1  0
  8 13  1  0
 13 14  1  0
 13 15  1  0
  4 16  1  0
 16 17  1  0
 16 18  1  0
  1 19  1  0
  1 20  1  0
  1 21  1  0
  2 22  1  0
  3 23  1  0
  3 24  1  0
  3 25  1  0
 10 26  1  0
 11 27  1  0
 11 28  1  0
 11 29  1  0
 12 30  1  0
 12 31  1  0
 12 32  1  0
 13 33  1  0
 16 34  1  0
M  END
>  <Binding energies>  (1) 
[-5.12]

>  <Ligand effiencies>  (1) 
[-0.28444444444444444]

>  <Interactions>  (1) 
["V-A:ILE:369:CG2:3237, V-A:ASP:366:CA:3210, V-B:PRO:540:CA:9855, V-A:ILE:369:CB:3236, V-B:TYR:539:CE2:9848, V-B:TYR:539:C:9839, V-A:ASP:366:CG:3213, V-B:TYR:539:CZ:9849, V-B:PRO:540:CB:9857, V-B:PRO:540:N:9856, V-A:ILE:369:CD1:3239, V-A:ASP:366:C:3208, V-B:TYR:539:CD2:9846, V-A:ASP:366:CB:3212, V-A:ARG:545:CZ:4926, V-B:TYR:539:CG:9844, V-B:TYR:539:CD1:9845, V-B:PRO:540:C:9853, V-B:TYR:539:CE1:9847"]

$$$$
ZINC2236171855
     RDKit          3D

 55 58  0  0  0  0  0  0  0  0999 V2000
  133.6140  124.6830   60.0580 C   0  0  0  0  0  0  0  0  0  0  0  0
  134.2760  123.7200   61.0680 C   0  0  1  0  0  0  0  0  0  0  0  0
  134.8120  124.4010   62.3390 C   0  0  0  0  0  0  0  0  0  0  0  0
  133.5040  124.0330   63.0560 C   0  0  0  0  0  0  0  0  0  0  0  0
  133.3110  122.9410   61.9880 C   0  0  1  0  0  0  0  0  0  0  0  0
  131.8560  122.6930   61.5100 C   0  0  0  0  0  0  0  0  0  0  0  0
  130.8840  122.3480   62.5600 N   0  0  0  0  0  0  0  0  0  0  0  0
  129.8410  121.3950   62.1830 C   0  0  0  0  0  0  0  0  0  0  0  0
  130.5290  123.3220   63.5290 C   0  0  0  0  0  0  0  0  0  0  0  0
  130.4950  122.9450   64.8330 N   0  0  0  0  0  0  0  0  0  0  0  0
  130.1820  123.8380   65.7910 C   0  0  0  0  0  0  0  0  0  0  0  0
  129.8530  125.1700   65.5500 C   0  0  0  0  0  0  0  0  0  0  0  0
  129.5210  126.1290   66.7710 B   0  0  0  0  0  0  0  0  0  0  0  0
  128.9400  127.3700   66.6290 O   0  0  0  0  0  0  0  0  0  0  0  0
  128.5290  127.7980   67.9190 C   0  0  0  0  0  0  0  0  0  0  0  0
  128.6330  129.3390   67.9570 C   0  0  0  0  0  0  0  0  0  0  0  0
  127.0490  127.3510   68.0680 C   0  0  0  0  0  0  0  0  0  0  0  0
  129.5550  127.0430   68.8340 C   0  0  0  0  0  0  0  0  0  0  0  0
  130.9510  127.7110   68.9630 C   0  0  0  0  0  0  0  0  0  0  0  0
  129.0180  126.6450   70.2280 C   0  0  0  0  0  0  0  0  0  0  0  0
  129.7580  125.8470   68.0950 O   0  0  0  0  0  0  0  0  0  0  0  0
  129.8210  125.5970   64.2010 C   0  0  0  0  0  0  0  0  0  0  0  0
  129.4940  126.8710   63.6400 C   0  0  0  0  0  0  0  0  0  0  0  0
  129.5420  126.8880   62.2670 C   0  0  0  0  0  0  0  0  0  0  0  0
  129.9750  125.3590   61.5690 S   0  0  0  0  0  0  0  0  0  0  0  0
  130.1600  124.6460   63.1780 C   0  0  0  0  0  0  0  0  0  0  0  0
  133.0727  125.4704   60.6029 H   0  0  0  0  0  0  0  0  0  0  0  0
  134.3891  125.1410   59.4259 H   0  0  0  0  0  0  0  0  0  0  0  0
  132.9088  124.1234   59.4259 H   0  0  0  0  0  0  0  0  0  0  0  0
  134.9309  123.1983   60.3546 H   0  0  0  0  0  0  0  0  0  0  0  0
  135.7096  123.9269   62.7627 H   0  0  0  0  0  0  0  0  0  0  0  0
  135.1704  125.4407   62.3151 H   0  0  0  0  0  0  0  0  0  0  0  0
  133.6324  123.6555   64.0812 H   0  0  0  0  0  0  0  0  0  0  0  0
  132.7269  124.7825   63.2666 H   0  0  0  0  0  0  0  0  0  0  0  0
  133.5001  121.8783   62.1999 H   0  0  0  0  0  0  0  0  0  0  0  0
  131.5040  123.6089   61.0127 H   0  0  0  0  0  0  0  0  0  0  0  0
  131.9054  121.8144   60.8500 H   0  0  0  0  0  0  0  0  0  0  0  0
  129.3821  120.9757   63.0905 H   0  0  0  0  0  0  0  0  0  0  0  0
  129.0723  121.9093   61.5875 H   0  0  0  0  0  0  0  0  0  0  0  0
  130.2840  120.5832   61.5875 H   0  0  0  0  0  0  0  0  0  0  0  0
  130.1864  123.4921   66.8352 H   0  0  0  0  0  0  0  0  0  0  0  0
  128.6560  129.6793   69.0028 H   0  0  0  0  0  0  0  0  0  0  0  0
  129.5546  129.6570   67.4476 H   0  0  0  0  0  0  0  0  0  0  0  0
  127.7624  129.7779   67.4476 H   0  0  0  0  0  0  0  0  0  0  0  0
  126.7949  127.2742   69.1355 H   0  0  0  0  0  0  0  0  0  0  0  0
  126.3923  128.0909   67.5870 H   0  0  0  0  0  0  0  0  0  0  0  0
  126.9117  126.3713   67.5870 H   0  0  0  0  0  0  0  0  0  0  0  0
  131.2029  127.8315   70.0270 H   0  0  0  0  0  0  0  0  0  0  0  0
  131.7071  127.0771   68.4767 H   0  0  0  0  0  0  0  0  0  0  0  0
  130.9318  128.6975   68.4767 H   0  0  0  0  0  0  0  0  0  0  0  0
  129.6419  127.1074   71.0070 H   0  0  0  0  0  0  0  0  0  0  0  0
  127.9802  126.9938   70.3344 H   0  0  0  0  0  0  0  0  0  0  0  0
  129.0498  125.5506   70.3344 H   0  0  0  0  0  0  0  0  0  0  0  0
  129.2304  127.7496   64.2470 H   0  0  0  0  0  0  0  0  0  0  0  0
  129.3266  127.7848   61.6675 H   0  0  0  0  0  0  0  0  0  0  0  0
  1  2  1  0
  2  3  1  0
  3  4  1  0
  4  5  1  0
  5  6  1  0
  6  7  1  0
  7  8  1  0
  7  9  1  0
  9 10  2  0
 10 11  1  0
 11 12  2  0
 12 13  1  0
 13 14  1  0
 14 15  1  0
 15 16  1  0
 15 17  1  0
 15 18  1  0
 18 19  1  0
 18 20  1  0
 18 21  1  0
 12 22  1  0
 22 23  1  0
 23 24  2  0
 24 25  1  0
 25 26  1  0
  5  2  1  0
 26  9  1  0
 21 13  1  0
 26 22  2  0
  1 27  1  0
  1 28  1  0
  1 29  1  0
  2 30  1  6
  3 31  1  0
  3 32  1  0
  4 33  1  0
  4 34  1  0
  5 35  1  1
  6 36  1  0
  6 37  1  0
  8 38  1  0
  8 39  1  0
  8 40  1  0
 11 41  1  0
 16 42  1  0
 16 43  1  0
 16 44  1  0
 17 45  1  0
 17 46  1  0
 17 47  1  0
 19 48  1  0
 19 49  1  0
 19 50  1  0
 20 51  1  0
 20 52  1  0
 20 53  1  0
 23 54  1  0
 24 55  1  0
M  END
>  <Binding energies>  (1) 
[-6.43]

>  <Ligand effiencies>  (1) 
[-0.24730769230769228]

>  <Interactions>  (1) 
["V-A:ILE:369:CG2:3237, V-A:ASP:366:CA:3210, V-A:GLU:543:CA:4904, V-A:GLY:454:CA:4049, V-B:GLU:543:C:9874, V-A:GLU:543:C:4902, V-B:GLU:543:CB:9878, V-B:ALA:541:CB:9864, V-A:TYR:484:CE2:4346, V-B:GLU:543:CG:9879, V-A:ASP:366:CG:3213, V-A:TYR:484:CZ:4347, V-A:GLU:543:CD:4908, V-B:HIS:456:CE1:9041, V-A:ARG:545:CG:4922, V-A:GLY:453:C:4042, V-A:ILE:369:CD1:3239, V-A:HIS:456:CE1:4070, V-A:GLU:543:CG:4907, V-B:GLU:543:CD:9880, V-A:ASP:366:CB:3212, V-A:LEU:475:CD2:4259, V-A:GLU:543:CB:4906, V-A:GLY:453:CA:4044, H-A:TYR:484:OH:4348"]

$$$$
ZINC2236744072
     RDKit          3D

 57 58  0  0  0  0  0  0  0  0999 V2000
  134.3390  121.9370   61.4830 C   0  0  0  0  0  0  0  0  0  0  0  0
  133.7320  123.2740   61.9760 C   0  0  0  0  0  0  0  0  0  0  0  0
  132.5910  123.7450   61.0400 C   0  0  0  0  0  0  0  0  0  0  0  0
  134.8340  124.3520   62.0170 C   0  0  0  0  0  0  0  0  0  0  0  0
  133.2870  123.1710   63.3400 O   0  0  0  0  0  0  0  0  0  0  0  0
  132.8910  124.2170   64.1350 C   0  0  0  0  0  0  0  0  0  0  0  0
  133.5910  124.7000   65.0260 O   0  0  0  0  0  0  0  0  0  0  0  0
  131.5950  124.6480   63.7990 N   0  0  0  0  0  0  0  0  0  0  0  0
  131.3210  125.9810   63.2350 C   0  0  0  0  0  0  0  0  0  0  0  0
  129.7930  126.1600   63.2710 C   0  0  1  0  0  0  0  0  0  0  0  0
  129.4040  126.8990   64.5770 C   0  0  0  0  0  0  0  0  0  0  0  0
  129.2290  127.0140   62.0990 C   0  0  0  0  0  0  0  0  0  0  0  0
  129.9050  128.3960   62.0000 N   0  0  0  0  0  0  0  0  0  0  0  0
  130.5980  128.6640   60.6570 C   0  0  0  0  0  0  0  0  0  0  0  0
  130.3040  130.0640   60.1050 C   0  0  0  0  0  0  0  0  0  0  0  0
  130.9930  130.4510   58.9510 C   0  0  0  0  0  0  0  0  0  0  0  0
  130.7920  131.7070   58.3870 C   0  0  0  0  0  0  0  0  0  0  0  0
  131.6510  132.1620   56.9610 Cl  0  0  0  0  0  0  0  0  0  0  0  0
  129.9000  132.5970   58.9760 C   0  0  0  0  0  0  0  0  0  0  0  0
  129.2000  132.2420   60.1300 C   0  0  0  0  0  0  0  0  0  0  0  0
  128.1080  133.4290   60.7830 Cl  0  0  0  0  0  0  0  0  0  0  0  0
  129.3960  130.9680   60.7100 C   0  0  0  0  0  0  0  0  0  0  0  0
  128.7520  130.6370   61.7660 O   0  0  0  0  0  0  0  0  0  0  0  0
  129.2800  124.7110   63.3150 C   0  0  0  0  0  0  0  0  0  0  0  0
  130.3670  123.8280   63.9740 C   0  0  0  0  0  0  0  0  0  0  0  0
  130.4710  122.4850   63.2010 C   0  0  0  0  0  0  0  0  0  0  0  0
  130.0620  123.5350   65.4640 C   0  0  0  0  0  0  0  0  0  0  0  0
  134.6192  121.3199   62.3494 H   0  0  0  0  0  0  0  0  0  0  0  0
  133.5967  121.3995   60.8747 H   0  0  0  0  0  0  0  0  0  0  0  0
  135.2323  122.1421   60.8747 H   0  0  0  0  0  0  0  0  0  0  0  0
  131.7417  124.0956   61.6448 H   0  0  0  0  0  0  0  0  0  0  0  0
  132.9532  124.5671   60.4053 H   0  0  0  0  0  0  0  0  0  0  0  0
  132.2678  122.9067   60.4053 H   0  0  0  0  0  0  0  0  0  0  0  0
  135.0763  124.5890   63.0635 H   0  0  0  0  0  0  0  0  0  0  0  0
  135.7339  123.9759   61.5084 H   0  0  0  0  0  0  0  0  0  0  0  0
  134.4778  125.2600   61.5084 H   0  0  0  0  0  0  0  0  0  0  0  0
  131.8098  126.7585   63.8405 H   0  0  0  0  0  0  0  0  0  0  0  0
  131.7096  126.0686   62.2097 H   0  0  0  0  0  0  0  0  0  0  0  0
  129.7190  126.3006   65.4446 H   0  0  0  0  0  0  0  0  0  0  0  0
  129.9033  127.8787   64.6066 H   0  0  0  0  0  0  0  0  0  0  0  0
  128.3137  127.0420   64.6066 H   0  0  0  0  0  0  0  0  0  0  0  0
  129.3935  126.4720   61.1560 H   0  0  0  0  0  0  0  0  0  0  0  0
  128.1579  127.1776   62.2886 H   0  0  0  0  0  0  0  0  0  0  0  0
  129.2100  129.1120   62.1540 H   0  0  0  0  0  0  0  0  0  0  0  0
  130.5970  128.4750   62.7320 H   0  0  0  0  0  0  0  0  0  0  0  0
  131.6844  128.5620   60.7957 H   0  0  0  0  0  0  0  0  0  0  0  0
  130.2086  127.9340   59.9322 H   0  0  0  0  0  0  0  0  0  0  0  0
  131.7031  129.7533   58.4831 H   0  0  0  0  0  0  0  0  0  0  0  0
  129.7449  133.5897   58.5282 H   0  0  0  0  0  0  0  0  0  0  0  0
  128.3535  124.6627   63.9059 H   0  0  0  0  0  0  0  0  0  0  0  0
  129.0689  124.3536   62.2963 H   0  0  0  0  0  0  0  0  0  0  0  0
  130.5354  121.6533   63.9180 H   0  0  0  0  0  0  0  0  0  0  0  0
  129.5802  122.3559   62.5687 H   0  0  0  0  0  0  0  0  0  0  0  0
  131.3711  122.4946   62.5687 H   0  0  0  0  0  0  0  0  0  0  0  0
  130.7093  124.1568   66.0999 H   0  0  0  0  0  0  0  0  0  0  0  0
  129.0078  123.7678   65.6751 H   0  0  0  0  0  0  0  0  0  0  0  0
  130.2523  122.4724   65.6751 H   0  0  0  0  0  0  0  0  0  0  0  0
  1  2  1  0
  2  3  1  0
  2  4  1  0
  2  5  1  0
  5  6  1  0
  6  7  2  0
  6  8  1  0
  8  9  1  0
  9 10  1  0
 10 11  1  1
 10 12  1  0
 12 13  1  0
 13 14  1  0
 14 15  1  0
 15 16  2  0
 16 17  1  0
 17 18  1  0
 17 19  2  0
 19 20  1  0
 20 21  1  0
 20 22  2  0
 22 23  1  0
 10 24  1  0
 24 25  1  0
 25 26  1  0
 25 27  1  0
 25  8  1  0
 22 15  1  0
  1 28  1  0
  1 29  1  0
  1 30  1  0
  3 31  1  0
  3 32  1  0
  3 33  1  0
  4 34  1  0
  4 35  1  0
  4 36  1  0
  9 37  1  0
  9 38  1  0
 11 39  1  0
 11 40  1  0
 11 41  1  0
 12 42  1  0
 12 43  1  0
 13 44  1  0
 13 45  1  0
 14 46  1  0
 14 47  1  0
 16 48  1  0
 19 49  1  0
 24 50  1  0
 24 51  1  0
 26 52  1  0
 26 53  1  0
 26 54  1  0
 27 55  1  0
 27 56  1  0
 27 57  1  0
M  CHG  2  13   1  23  -1
M  END
>  <Binding energies>  (1) 
[-6.84]

>  <Ligand effiencies>  (1) 
[-0.23586206896551723]

>  <Interactions>  (1) 
["V-A:ILE:369:CG2:3237, V-A:GLY:454:CA:4049, H-A:GLU:543:OE2:4910, V-A:TYR:484:CE2:4346, V-B:GLU:543:CG:9879, V-A:ASP:366:CG:3213, V-A:LEU:363:CD1:3189, V-A:TYR:539:CD1:4873, V-A:GLU:543:CD:4908, V-A:TYR:484:CZ:4347, H-A:GLY:454:N:4050, V-A:SER:385:C:3405, V-A:GLY:453:C:4042, V-A:ILE:369:CD1:3239, V-B:GLU:543:CD:9880, V-A:TYR:539:C:4867, V-A:LEU:475:CD2:4259, H-A:ARG:545:NH2:4928, H-A:GLU:543:OE1:4909, V-A:PRO:540:N:4884, V-A:GLY:453:CA:4044, V-A:PRO:540:CA:4883, V-A:PRO:540:CB:4885, H-A:ARG:545:NE:4924, H-A:TYR:484:OH:4348"]

$$$$
ZINC223747110
     RDKit          3D

 63 69  0  0  0  0  0  0  0  0999 V2000
  125.4730  124.3370   57.9400 C   0  0  0  0  0  0  0  0  0  0  0  0
  126.2970  123.5780   57.1110 C   0  0  0  0  0  0  0  0  0  0  0  0
  127.3580  122.8650   57.6610 C   0  0  0  0  0  0  0  0  0  0  0  0
  127.6010  122.9110   59.0390 C   0  0  0  0  0  0  0  0  0  0  0  0
  128.7670  122.1070   59.6270 C   0  0  2  0  0  0  0  0  0  0  0  0
  128.4680  121.4110   60.9540 C   0  0  0  0  0  0  0  0  0  0  0  0
  129.5900  121.7750   61.7220 O   0  0  0  0  0  0  0  0  0  0  0  0
  130.3260  122.6980   61.0350 C   0  0  0  0  0  0  0  0  0  0  0  0
  131.4770  123.2950   61.7340 C   0  0  0  0  0  0  0  0  0  0  0  0
  132.7440  123.3240   61.1350 C   0  0  0  0  0  0  0  0  0  0  0  0
  133.8300  123.8810   61.8070 C   0  0  0  0  0  0  0  0  0  0  0  0
  133.6650  124.4150   63.0830 C   0  0  0  0  0  0  0  0  0  0  0  0
  132.4100  124.4000   63.7020 C   0  0  0  0  0  0  0  0  0  0  0  0
  132.2340  124.9670   65.0720 C   0  0  0  0  0  0  0  0  0  0  0  0
  133.1270  125.0910   66.0260 N   0  0  0  0  0  0  0  0  0  0  0  0
  132.4660  125.6650   67.1080 N   0  0  0  0  0  0  0  0  0  0  0  0
  131.2240  125.8480   66.7240 C   0  0  0  0  0  0  0  0  0  0  0  0
  130.0870  126.4280   67.5010 C   0  0  0  0  0  0  0  0  0  0  0  0
  128.8560  126.6690   66.8780 C   0  0  0  0  0  0  0  0  0  0  0  0
  127.7950  127.2130   67.5980 C   0  0  0  0  0  0  0  0  0  0  0  0
  127.9510  127.5220   68.9480 C   0  0  0  0  0  0  0  0  0  0  0  0
  129.1730  127.2880   69.5950 C   0  0  0  0  0  0  0  0  0  0  0  0
  129.3350  127.6110   71.0230 C   0  0  0  0  0  0  0  0  0  0  0  0
  128.4530  128.0400   71.8330 N   0  0  0  0  0  0  0  0  0  0  0  0
  129.0930  128.1930   73.1130 C   0  0  2  0  0  0  0  0  0  0  0  0
  128.8090  129.5660   73.7320 C   0  0  0  0  0  0  0  0  0  0  0  0
  127.9130  129.6650   74.8020 C   0  0  0  0  0  0  0  0  0  0  0  0
  127.6560  130.9010   75.3880 C   0  0  0  0  0  0  0  0  0  0  0  0
  128.2980  132.0400   74.9080 C   0  0  0  0  0  0  0  0  0  0  0  0
  129.1970  131.9540   73.8480 C   0  0  0  0  0  0  0  0  0  0  0  0
  129.4540  130.7180   73.2620 C   0  0  0  0  0  0  0  0  0  0  0  0
  130.5720  127.8790   72.8980 C   0  0  0  0  0  0  0  0  0  0  0  0
  130.5780  127.4340   71.5630 O   0  0  0  0  0  0  0  0  0  0  0  0
  130.2340  126.7400   68.8580 C   0  0  0  0  0  0  0  0  0  0  0  0
  131.0130  125.4290   65.4490 O   0  0  0  0  0  0  0  0  0  0  0  0
  131.3220  123.8400   63.0190 C   0  0  0  0  0  0  0  0  0  0  0  0
  129.9190  122.9390   59.8550 N   0  0  0  0  0  0  0  0  0  0  0  0
  126.7590  123.6710   59.8630 C   0  0  0  0  0  0  0  0  0  0  0  0
  125.6990  124.3850   59.3130 C   0  0  0  0  0  0  0  0  0  0  0  0
  124.6362  124.9035   57.5055 H   0  0  0  0  0  0  0  0  0  0  0  0
  126.1097  123.5427   56.0276 H   0  0  0  0  0  0  0  0  0  0  0  0
  128.0087  122.2625   57.0101 H   0  0  0  0  0  0  0  0  0  0  0  0
  128.9519  121.3382   58.8623 H   0  0  0  0  0  0  0  0  0  0  0  0
  127.5358  121.7849   61.4025 H   0  0  0  0  0  0  0  0  0  0  0  0
  128.3182  120.3248   60.8665 H   0  0  0  0  0  0  0  0  0  0  0  0
  132.8818  122.9042   60.1276 H   0  0  0  0  0  0  0  0  0  0  0  0
  134.8204  123.8991   61.3287 H   0  0  0  0  0  0  0  0  0  0  0  0
  134.5275  124.8516   63.6079 H   0  0  0  0  0  0  0  0  0  0  0  0
  128.7262  126.4270   65.8128 H   0  0  0  0  0  0  0  0  0  0  0  0
  126.8320  127.3991   67.1001 H   0  0  0  0  0  0  0  0  0  0  0  0
  127.1093  127.9527   69.5102 H   0  0  0  0  0  0  0  0  0  0  0  0
  128.6886  127.4954   73.8612 H   0  0  0  0  0  0  0  0  0  0  0  0
  127.4101  128.7632   75.1813 H   0  0  0  0  0  0  0  0  0  0  0  0
  126.9487  130.9780   76.2269 H   0  0  0  0  0  0  0  0  0  0  0  0
  128.0930  133.0167   75.3706 H   0  0  0  0  0  0  0  0  0  0  0  0
  129.7013  132.8580   73.4759 H   0  0  0  0  0  0  0  0  0  0  0  0
  130.1661  130.6451   72.4268 H   0  0  0  0  0  0  0  0  0  0  0  0
  131.1950  128.7767   73.0242 H   0  0  0  0  0  0  0  0  0  0  0  0
  130.9825  127.1510   73.6132 H   0  0  0  0  0  0  0  0  0  0  0  0
  131.1974  126.5524   69.3547 H   0  0  0  0  0  0  0  0  0  0  0  0
  130.3313  123.8271   63.4968 H   0  0  0  0  0  0  0  0  0  0  0  0
  126.9370  123.7029   60.9480 H   0  0  0  0  0  0  0  0  0  0  0  0
  125.0423  124.9849   59.9602 H   0  0  0  0  0  0  0  0  0  0  0  0
  1  2  2  0
  2  3  1  0
  3  4  2  0
  4  5  1  0
  5  6  1  0
  6  7  1  0
  7  8  1  0
  8  9  1  0
  9 10  2  0
 10 11  1  0
 11 12  2  0
 12 13  1  0
 13 14  1  0
 14 15  2  0
 15 16  1  0
 16 17  2  0
 17 18  1  0
 18 19  2  0
 19 20  1  0
 20 21  2  0
 21 22  1  0
 22 23  1  0
 23 24  2  0
 24 25  1  0
 25 26  1  0
 26 27  2  0
 27 28  1  0
 28 29  2  0
 29 30  1  0
 30 31  2  0
 25 32  1  0
 32 33  1  0
 22 34  2  0
 17 35  1  0
 13 36  2  0
  8 37  2  0
  4 38  1  0
 38 39  2  0
 39  1  1  0
 37  5  1  0
 36  9  1  0
 35 14  1  0
 34 18  1  0
 33 23  1  0
 31 26  1  0
  1 40  1  0
  2 41  1  0
  3 42  1  0
  5 43  1  6
  6 44  1  0
  6 45  1  0
 10 46  1  0
 11 47  1  0
 12 48  1  0
 19 49  1  0
 20 50  1  0
 21 51  1  0
 25 52  1  1
 27 53  1  0
 28 54  1  0
 29 55  1  0
 30 56  1  0
 31 57  1  0
 32 58  1  0
 32 59  1  0
 34 60  1  0
 36 61  1  0
 38 62  1  0
 39 63  1  0
M  END
>  <Binding energies>  (1) 
[-8.46]

>  <Ligand effiencies>  (1) 
[-0.21692307692307694]

>  <Interactions>  (1) 
["V-B:PRO:540:CA:9855, V-B:HIS:456:CD2:9039, V-B:GLU:543:CB:9878, V-B:ALA:541:CB:9864, V-B:TYR:539:CE2:9848, V-B:GLU:543:CG:9879, V-A:GLY:544:C:4912, V-B:TYR:539:C:9839, V-A:GLU:543:CD:4908, V-B:PRO:540:CB:9857, V-B:HIS:456:CE1:9041, V-B:PRO:540:N:9856, V-A:HIS:456:CE1:4070, V-A:ILE:369:CD1:3239, V-B:TYR:539:CD2:9846, V-B:GLU:543:CD:9880, V-A:ARG:545:CZ:4926, V-B:TYR:539:CG:9844, V-A:LYS:547:CE:4950, H-A:ARG:545:NE:4924, V-B:PRO:540:C:9853, H-A:HIS:456:ND1:4067, H-A:TYR:484:OH:4348"]

$$$$
ZINC223803445
     RDKit          3D

 74 76  0  0  0  0  0  0  0  0999 V2000
  128.0790  126.9990   71.5100 C   0  0  0  0  0  0  0  0  0  0  0  0
  128.9850  127.2560   70.2980 C   0  0  0  0  0  0  0  0  0  0  0  0
  128.2540  127.0930   68.9550 C   0  0  0  0  0  0  0  0  0  0  0  0
  129.1250  127.5000   67.7520 C   0  0  0  0  0  0  0  0  0  0  0  0
  129.0780  126.5650   66.6320 N   0  0  0  0  0  0  0  0  0  0  0  0
  130.0690  125.7180   66.3040 C   0  0  0  0  0  0  0  0  0  0  0  0
  131.1260  125.6470   66.9340 O   0  0  0  0  0  0  0  0  0  0  0  0
  129.8460  124.8360   65.0420 C   0  0  2  0  0  0  0  0  0  0  0  0
  129.9310  123.3010   65.2920 C   0  0  0  0  0  0  0  0  0  0  0  0
  129.1010  122.4520   64.3150 C   0  0  0  0  0  0  0  0  0  0  0  0
  130.6330  125.3090   63.8670 N   0  0  0  0  0  0  0  0  0  0  0  0
  132.0060  124.7670   63.7950 C   0  0  0  0  0  0  0  0  0  0  0  0
  132.2070  123.6550   62.7680 C   0  0  0  0  0  0  0  0  0  0  0  0
  133.4450  123.0100   62.6960 C   0  0  0  0  0  0  0  0  0  0  0  0
  133.6450  121.9860   61.7740 C   0  0  0  0  0  0  0  0  0  0  0  0
  132.6090  121.6110   60.9220 C   0  0  0  0  0  0  0  0  0  0  0  0
  132.8570  120.3410   59.7800 Cl  0  0  0  0  0  0  0  0  0  0  0  0
  131.3740  122.2540   60.9830 C   0  0  0  0  0  0  0  0  0  0  0  0
  131.1720  123.2770   61.9070 C   0  0  0  0  0  0  0  0  0  0  0  0
  130.0860  126.0370   62.8470 C   0  0  0  0  0  0  0  0  0  0  0  0
  129.0880  125.6610   62.2290 O   0  0  0  0  0  0  0  0  0  0  0  0
  130.7590  127.3410   62.3640 C   0  0  0  0  0  0  0  0  0  0  0  0
  130.2520  127.7980   61.0870 N   0  0  0  0  0  0  0  0  0  0  0  0
  130.6870  127.1470   59.9200 C   0  0  0  0  0  0  0  0  0  0  0  0
  130.0230  127.3410   58.7040 C   0  0  0  0  0  0  0  0  0  0  0  0
  130.4670  126.6920   57.5550 C   0  0  0  0  0  0  0  0  0  0  0  0
  131.5720  125.8450   57.6140 C   0  0  0  0  0  0  0  0  0  0  0  0
  132.2500  125.6310   58.8250 C   0  0  0  0  0  0  0  0  0  0  0  0
  133.4330  124.7400   58.8850 N   0  0  0  0  0  0  0  0  0  0  0  0
  133.7390  124.0990   57.8830 O   0  0  0  0  0  0  0  0  0  0  0  0
  134.0610  124.6670   59.9380 O   0  0  0  0  0  0  0  0  0  0  0  0
  131.7860  126.2880   59.9750 C   0  0  0  0  0  0  0  0  0  0  0  0
  129.7250  129.4950   60.9420 S   0  0  0  0  0  0  0  0  0  0  0  0
  128.8520  129.5910   59.7650 O   0  0  0  0  0  0  0  0  0  0  0  0
  129.2740  129.9220   62.2720 O   0  0  0  0  0  0  0  0  0  0  0  0
  131.2350  130.3930   60.5840 C   0  0  0  0  0  0  0  0  0  0  0  0
  131.9900  130.9240   61.6340 C   0  0  0  0  0  0  0  0  0  0  0  0
  133.1910  131.5720   61.3630 C   0  0  0  0  0  0  0  0  0  0  0  0
  133.6370  131.6780   60.0470 C   0  0  0  0  0  0  0  0  0  0  0  0
  132.8960  131.1370   58.9990 C   0  0  0  0  0  0  0  0  0  0  0  0
  131.6940  130.4880   59.2680 C   0  0  0  0  0  0  0  0  0  0  0  0
  128.6504  127.1611   72.4359 H   0  0  0  0  0  0  0  0  0  0  0  0
  127.2235  127.6899   71.4814 H   0  0  0  0  0  0  0  0  0  0  0  0
  127.7137  125.9618   71.4814 H   0  0  0  0  0  0  0  0  0  0  0  0
  129.3740  128.2829   70.3628 H   0  0  0  0  0  0  0  0  0  0  0  0
  129.7914  126.5084   70.3261 H   0  0  0  0  0  0  0  0  0  0  0  0
  127.9630  126.0386   68.8383 H   0  0  0  0  0  0  0  0  0  0  0  0
  127.3773  127.7572   68.9707 H   0  0  0  0  0  0  0  0  0  0  0  0
  128.7820  128.4824   67.3952 H   0  0  0  0  0  0  0  0  0  0  0  0
  130.1659  127.5135   68.1073 H   0  0  0  0  0  0  0  0  0  0  0  0
  128.2440  126.5840   66.0630 H   0  0  0  0  0  0  0  0  0  0  0  0
  128.7893  124.9837   64.7744 H   0  0  0  0  0  0  0  0  0  0  0  0
  130.9842  122.9958   65.2041 H   0  0  0  0  0  0  0  0  0  0  0  0
  129.5154  123.1225   66.2947 H   0  0  0  0  0  0  0  0  0  0  0  0
  128.4424  121.7783   64.8828 H   0  0  0  0  0  0  0  0  0  0  0  0
  128.4912  123.1130   63.6816 H   0  0  0  0  0  0  0  0  0  0  0  0
  129.7756  121.8573   63.6816 H   0  0  0  0  0  0  0  0  0  0  0  0
  132.6863  125.5933   63.5411 H   0  0  0  0  0  0  0  0  0  0  0  0
  132.2119  124.3188   64.7782 H   0  0  0  0  0  0  0  0  0  0  0  0
  134.2618  123.3116   63.3682 H   0  0  0  0  0  0  0  0  0  0  0  0
  134.6176  121.4751   61.7187 H   0  0  0  0  0  0  0  0  0  0  0  0
  130.5618  121.9549   60.3042 H   0  0  0  0  0  0  0  0  0  0  0  0
  130.1988  123.7871   61.9592 H   0  0  0  0  0  0  0  0  0  0  0  0
  130.5809  128.1262   63.1135 H   0  0  0  0  0  0  0  0  0  0  0  0
  131.8313  127.1313   62.2371 H   0  0  0  0  0  0  0  0  0  0  0  0
  129.1490  128.0072   58.6556 H   0  0  0  0  0  0  0  0  0  0  0  0
  129.9449  126.8480   56.5995 H   0  0  0  0  0  0  0  0  0  0  0  0
  131.9173  125.3379   56.7010 H   0  0  0  0  0  0  0  0  0  0  0  0
  132.2966  126.1234   60.9353 H   0  0  0  0  0  0  0  0  0  0  0  0
  131.6357  130.8298   62.6711 H   0  0  0  0  0  0  0  0  0  0  0  0
  133.7859  131.9988   62.1839 H   0  0  0  0  0  0  0  0  0  0  0  0
  134.5845  132.1945   59.8336 H   0  0  0  0  0  0  0  0  0  0  0  0
  133.2587  131.2221   57.9640 H   0  0  0  0  0  0  0  0  0  0  0  0
  131.1073  130.0512   58.4465 H   0  0  0  0  0  0  0  0  0  0  0  0
  1  2  1  0
  2  3  1  0
  3  4  1  0
  4  5  1  0
  5  6  1  0
  6  7  2  0
  6  8  1  0
  8  9  1  0
  9 10  1  0
  8 11  1  0
 11 12  1  0
 12 13  1  0
 13 14  2  0
 14 15  1  0
 15 16  2  0
 16 17  1  0
 16 18  1  0
 18 19  2  0
 11 20  1  0
 20 21  2  0
 20 22  1  0
 22 23  1  0
 23 24  1  0
 24 25  2  0
 25 26  1  0
 26 27  2  0
 27 28  1  0
 28 29  1  0
 29 30  2  0
 29 31  1  0
 28 32  2  0
 23 33  1  0
 33 34  2  0
 33 35  2  0
 33 36  1  0
 36 37  2  0
 37 38  1  0
 38 39  2  0
 39 40  1  0
 40 41  2  0
 19 13  1  0
 32 24  1  0
 41 36  1  0
  1 42  1  0
  1 43  1  0
  1 44  1  0
  2 45  1  0
  2 46  1  0
  3 47  1  0
  3 48  1  0
  4 49  1  0
  4 50  1  0
  5 51  1  0
  8 52  1  6
  9 53  1  0
  9 54  1  0
 10 55  1  0
 10 56  1  0
 10 57  1  0
 12 58  1  0
 12 59  1  0
 14 60  1  0
 15 61  1  0
 18 62  1  0
 19 63  1  0
 22 64  1  0
 22 65  1  0
 25 66  1  0
 26 67  1  0
 27 68  1  0
 32 69  1  0
 37 70  1  0
 38 71  1  0
 39 72  1  0
 40 73  1  0
 41 74  1  0
M  CHG  2  29   1  31  -1
M  END
>  <Binding energies>  (1) 
[-7.83]

>  <Ligand effiencies>  (1) 
[-0.18642857142857144]

>  <Interactions>  (1) 
["V-A:ILE:369:CG2:3237, V-A:ASP:366:CA:3210, V-A:GLY:454:CA:4049, V-B:GLU:543:C:9874, V-B:GLU:543:CB:9878, V-B:ALA:541:CB:9864, V-B:TYR:539:CE2:9848, V-A:TYR:484:CE2:4346, V-B:GLU:543:CG:9879, V-A:ASP:366:CG:3213, V-A:ASN:362:CB:3176, V-A:LEU:363:CD1:3189, V-A:LEU:363:CB:3187, V-B:TYR:539:CZ:9849, H-B:GLU:543:OE1:9881, H-B:TYR:539:OH:9850, V-A:GLU:543:CD:4908, V-A:TYR:484:CZ:4347, V-B:HIS:456:CE1:9041, V-A:HIS:456:CE1:4070, V-A:ILE:369:CD1:3239, V-A:ASP:366:C:3208, V-B:TYR:539:CD2:9846, V-A:SER:385:CB:3409, V-B:GLU:543:CD:9880, V-A:ASP:366:CB:3212, V-A:LEU:475:CD2:4259, V-A:ASN:362:C:3172, V-A:GLU:543:CB:4906, H-B:GLU:543:OE2:9882, V-A:PRO:540:CA:4883, V-A:PRO:540:CB:4885, V-A:LEU:363:CA:3185, H-A:TYR:484:OH:4348"]

$$$$
ZINC223871708
     RDKit          3D

 50 54  0  0  0  0  0  0  0  0999 V2000
  133.9950  123.7660   57.1940 O   0  0  0  0  0  0  0  0  0  0  0  0
  133.3120  124.2710   58.2680 C   0  0  0  0  0  0  0  0  0  0  0  0
  133.2960  123.5670   59.4700 C   0  0  0  0  0  0  0  0  0  0  0  0
  132.6020  124.0780   60.5630 C   0  0  0  0  0  0  0  0  0  0  0  0
  131.9080  125.2920   60.4580 C   0  0  0  0  0  0  0  0  0  0  0  0
  131.2210  125.8270   61.5790 N   0  0  0  0  0  0  0  0  0  0  0  0
  130.4200  126.9570   61.5880 C   0  0  0  0  0  0  0  0  0  0  0  0
  129.8630  127.9420   60.3640 S   0  0  0  0  0  0  0  0  0  0  0  0
  130.1680  127.1440   62.9130 N   0  0  0  0  0  0  0  0  0  0  0  0
  130.9110  126.2530   63.7790 C   0  0  1  0  0  0  0  0  0  0  0  0
  130.3230  125.9910   65.1690 C   0  0  0  0  0  0  0  0  0  0  0  0
  130.7950  124.9130   65.9280 C   0  0  0  0  0  0  0  0  0  0  0  0
  130.2560  124.6970   67.1980 C   0  0  0  0  0  0  0  0  0  0  0  0
  129.2750  125.5620   67.6840 C   0  0  0  0  0  0  0  0  0  0  0  0
  128.8570  126.6180   66.8720 C   0  0  0  0  0  0  0  0  0  0  0  0
  129.3610  126.8390   65.6320 N   0  0  0  0  0  0  0  0  0  0  0  0
  131.0020  125.0780   62.8230 C   0  0  1  0  0  0  0  0  0  0  0  0
  129.7980  124.1280   62.8190 C   0  0  0  0  0  0  0  0  0  0  0  0
  129.4730  122.9620   63.5030 C   0  0  0  0  0  0  0  0  0  0  0  0
  128.1980  122.5810   63.0850 C   0  0  0  0  0  0  0  0  0  0  0  0
  127.8030  123.5190   62.1480 C   0  0  0  0  0  0  0  0  0  0  0  0
  126.3450  123.7180   61.1880 S   0  0  0  0  0  0  0  0  0  0  0  0
  126.9930  123.7070   59.5360 C   0  0  0  0  0  0  0  0  0  0  0  0
  126.1740  123.2480   58.5030 C   0  0  0  0  0  0  0  0  0  0  0  0
  126.6620  123.1980   57.2000 C   0  0  0  0  0  0  0  0  0  0  0  0
  127.9710  123.5980   56.9370 C   0  0  0  0  0  0  0  0  0  0  0  0
  128.7950  124.0510   57.9650 C   0  0  0  0  0  0  0  0  0  0  0  0
  128.3070  124.1070   59.2680 C   0  0  0  0  0  0  0  0  0  0  0  0
  128.7700  124.4580   61.9930 O   0  0  0  0  0  0  0  0  0  0  0  0
  131.9490  126.0000   59.2460 C   0  0  0  0  0  0  0  0  0  0  0  0
  132.6430  125.4880   58.1540 C   0  0  0  0  0  0  0  0  0  0  0  0
  134.7220  124.3270   56.9150 H   0  0  0  0  0  0  0  0  0  0  0  0
  133.8306  122.6094   59.5551 H   0  0  0  0  0  0  0  0  0  0  0  0
  132.5979  123.5263   61.5147 H   0  0  0  0  0  0  0  0  0  0  0  0
  129.6610  127.9560   63.2350 H   0  0  0  0  0  0  0  0  0  0  0  0
  131.8750  126.6329   64.1484 H   0  0  0  0  0  0  0  0  0  0  0  0
  131.5763  124.2483   65.5309 H   0  0  0  0  0  0  0  0  0  0  0  0
  130.6022  123.8514   67.8105 H   0  0  0  0  0  0  0  0  0  0  0  0
  128.8409  125.4153   68.6840 H   0  0  0  0  0  0  0  0  0  0  0  0
  128.0846  127.3013   67.2547 H   0  0  0  0  0  0  0  0  0  0  0  0
  131.7774  124.3371   63.0679 H   0  0  0  0  0  0  0  0  0  0  0  0
  130.1034  122.4380   64.2365 H   0  0  0  0  0  0  0  0  0  0  0  0
  127.6223  121.7098   63.4309 H   0  0  0  0  0  0  0  0  0  0  0  0
  125.1444  122.9262   58.7182 H   0  0  0  0  0  0  0  0  0  0  0  0
  126.0174  122.8444   56.3818 H   0  0  0  0  0  0  0  0  0  0  0  0
  128.3572  123.5556   55.9079 H   0  0  0  0  0  0  0  0  0  0  0  0
  129.8272  124.3633   57.7482 H   0  0  0  0  0  0  0  0  0  0  0  0
  128.9523  124.4645   60.0840 H   0  0  0  0  0  0  0  0  0  0  0  0
  131.4292  126.9655   59.1593 H   0  0  0  0  0  0  0  0  0  0  0  0
  132.6634  126.0421   57.2040 H   0  0  0  0  0  0  0  0  0  0  0  0
  1  2  1  0
  2  3  2  0
  3  4  1  0
  4  5  2  0
  5  6  1  0
  6  7  1  0
  7  8  2  0
  7  9  1  0
  9 10  1  0
 10 11  1  0
 11 12  2  0
 12 13  1  0
 13 14  2  0
 14 15  1  0
 15 16  2  0
 10 17  1  0
 17 18  1  0
 18 19  2  0
 19 20  1  0
 20 21  2  0
 21 22  1  0
 22 23  1  0
 23 24  2  0
 24 25  1  0
 25 26  2  0
 26 27  1  0
 27 28  2  0
 21 29  1  0
  5 30  1  0
 30 31  2  0
 31  2  1  0
 17  6  1  0
 29 18  1  0
 16 11  1  0
 28 23  1  0
  1 32  1  0
  3 33  1  0
  4 34  1  0
  9 35  1  0
 10 36  1  1
 12 37  1  0
 13 38  1  0
 14 39  1  0
 15 40  1  0
 17 41  1  1
 19 42  1  0
 20 43  1  0
 24 44  1  0
 25 45  1  0
 26 46  1  0
 27 47  1  0
 28 48  1  0
 30 49  1  0
 31 50  1  0
M  END
>  <Binding energies>  (1) 
[-7.27]

>  <Ligand effiencies>  (1) 
[-0.22030303030303028]

>  <Interactions>  (1) 
["V-A:ILE:369:CG2:3237, V-A:ASP:366:CA:3210, V-B:PRO:540:CA:9855, V-B:GLU:543:C:9874, H-A:GLU:543:OE2:4910, V-A:ILE:369:CB:3236, V-B:GLU:543:CB:9878, V-B:ALA:541:CB:9864, V-B:TYR:539:CE2:9848, V-A:TYR:484:CE2:4346, V-B:GLU:543:CG:9879, V-A:ASP:366:CG:3213, V-B:TYR:539:CZ:9849, H-A:ASN:370:N:3244, H-B:TYR:539:OH:9850, V-A:GLU:543:CD:4908, V-B:PRO:540:CB:9857, V-A:TYR:484:CZ:4347, V-B:GLU:543:CA:9876, V-B:PRO:540:N:9856, V-A:HIS:456:CE1:4070, V-B:TYR:539:CD2:9846, V-B:GLU:543:CD:9880, V-A:ASP:366:CB:3212, H-A:GLU:543:OE1:4909, H-A:ASP:366:O:3209, V-B:ALA:541:CA:9862, V-B:TYR:539:CE1:9847"]

$$$$
ZINC224096833
     RDKit          3D

 66 70  0  0  0  0  0  0  0  0999 V2000
  126.1370  126.9430   69.4680 C   0  0  0  0  0  0  0  0  0  0  0  0
  127.3900  126.3460   69.1370 O   0  0  0  0  0  0  0  0  0  0  0  0
  128.5660  126.9240   69.5850 C   0  0  0  0  0  0  0  0  0  0  0  0
  128.7530  127.0970   70.9260 N   0  0  0  0  0  0  0  0  0  0  0  0
  129.9260  127.6500   71.3510 C   0  0  0  0  0  0  0  0  0  0  0  0
  130.1170  127.8370   72.7470 N   0  0  0  0  0  0  0  0  0  0  0  0
  131.0290  126.9610   73.4830 C   0  0  0  0  0  0  0  0  0  0  0  0
  129.1100  128.5520   73.5330 C   0  0  0  0  0  0  0  0  0  0  0  0
  130.9220  128.0420   70.5020 N   0  0  0  0  0  0  0  0  0  0  0  0
  130.7230  127.8650   69.1720 C   0  0  0  0  0  0  0  0  0  0  0  0
  129.5500  127.3040   68.6600 C   0  0  0  0  0  0  0  0  0  0  0  0
  129.3750  127.1390   67.2740 N   0  0  0  0  0  0  0  0  0  0  0  0
  130.1300  126.2220   66.6340 N   0  0  0  0  0  0  0  0  0  0  0  0
  129.7400  126.2980   65.3880 C   0  0  0  0  0  0  0  0  0  0  0  0
  128.7650  127.2350   65.1910 C   0  0  0  0  0  0  0  0  0  0  0  0
  128.4900  127.8000   66.4310 C   0  0  0  0  0  0  0  0  0  0  0  0
  127.5460  128.9140   66.8750 C   0  0  0  0  0  0  0  0  0  0  0  0
  126.4620  129.2220   65.8250 C   0  0  0  0  0  0  0  0  0  0  0  0
  128.3340  130.1850   67.2420 C   0  0  0  0  0  0  0  0  0  0  0  0
  128.4240  127.2880   63.7480 C   0  0  1  0  0  0  0  0  0  0  0  0
  128.7170  128.6400   63.0880 C   0  0  0  0  0  0  0  0  0  0  0  0
  129.3240  128.6670   61.8300 C   0  0  0  0  0  0  0  0  0  0  0  0
  129.5860  129.8830   61.2060 C   0  0  0  0  0  0  0  0  0  0  0  0
  129.2410  131.0750   61.8410 C   0  0  0  0  0  0  0  0  0  0  0  0
  129.5640  132.5830   61.0670 Cl  0  0  0  0  0  0  0  0  0  0  0  0
  128.6340  131.0580   63.0960 C   0  0  0  0  0  0  0  0  0  0  0  0
  128.3730  129.8420   63.7190 C   0  0  0  0  0  0  0  0  0  0  0  0
  129.2650  126.1930   63.2270 N   0  0  0  0  0  0  0  0  0  0  0  0
  129.1940  125.8010   61.9030 C   0  0  0  0  0  0  0  0  0  0  0  0
  130.3880  125.7390   61.0670 C   0  0  0  0  0  0  0  0  0  0  0  0
  130.3190  125.2660   59.8000 C   0  0  0  0  0  0  0  0  0  0  0  0
  131.7900  125.2030   58.8180 Cl  0  0  0  0  0  0  0  0  0  0  0  0
  129.0600  124.8010   59.2010 C   0  0  0  0  0  0  0  0  0  0  0  0
  129.0310  124.3650   58.0470 O   0  0  0  0  0  0  0  0  0  0  0  0
  127.9490  124.8970   60.0190 N   0  0  0  0  0  0  0  0  0  0  0  0
  126.6530  124.4670   59.4780 C   0  0  0  0  0  0  0  0  0  0  0  0
  128.0570  125.3620   61.3110 C   0  0  0  0  0  0  0  0  0  0  0  0
  130.0900  125.6300   64.1690 C   0  0  0  0  0  0  0  0  0  0  0  0
  130.9190  124.7310   64.0220 O   0  0  0  0  0  0  0  0  0  0  0  0
  126.0322  126.9929   70.5619 H   0  0  0  0  0  0  0  0  0  0  0  0
  126.0927  127.9590   69.0487 H   0  0  0  0  0  0  0  0  0  0  0  0
  125.3201  126.3373   69.0487 H   0  0  0  0  0  0  0  0  0  0  0  0
  130.8813  127.1029   74.5638 H   0  0  0  0  0  0  0  0  0  0  0  0
  130.8235  125.9130   73.2193 H   0  0  0  0  0  0  0  0  0  0  0  0
  132.0678  127.2085   73.2193 H   0  0  0  0  0  0  0  0  0  0  0  0
  129.3118  128.4087   74.6048 H   0  0  0  0  0  0  0  0  0  0  0  0
  129.1507  129.6246   73.2924 H   0  0  0  0  0  0  0  0  0  0  0  0
  128.1108  128.1599   73.2924 H   0  0  0  0  0  0  0  0  0  0  0  0
  131.5129  128.1740   68.4716 H   0  0  0  0  0  0  0  0  0  0  0  0
  127.0242  128.5525   67.7734 H   0  0  0  0  0  0  0  0  0  0  0  0
  125.5239  129.4885   66.3338 H   0  0  0  0  0  0  0  0  0  0  0  0
  126.7895  130.0627   65.1957 H   0  0  0  0  0  0  0  0  0  0  0  0
  126.2985  128.3348   65.1957 H   0  0  0  0  0  0  0  0  0  0  0  0
  128.3914  130.2776   68.3366 H   0  0  0  0  0  0  0  0  0  0  0  0
  129.3501  130.1194   66.8258 H   0  0  0  0  0  0  0  0  0  0  0  0
  127.8234  131.0660   66.8258 H   0  0  0  0  0  0  0  0  0  0  0  0
  127.3492  127.1748   63.5431 H   0  0  0  0  0  0  0  0  0  0  0  0
  129.5955  127.7248   61.3315 H   0  0  0  0  0  0  0  0  0  0  0  0
  130.0636  129.9035   60.2153 H   0  0  0  0  0  0  0  0  0  0  0  0
  128.3627  132.0020   63.5913 H   0  0  0  0  0  0  0  0  0  0  0  0
  127.8953  129.8245   64.7097 H   0  0  0  0  0  0  0  0  0  0  0  0
  131.3533  126.0797   61.4696 H   0  0  0  0  0  0  0  0  0  0  0  0
  125.9669  124.2394   60.3071 H   0  0  0  0  0  0  0  0  0  0  0  0
  126.2279  125.2722   58.8609 H   0  0  0  0  0  0  0  0  0  0  0  0
  126.7936  123.5674   58.8609 H   0  0  0  0  0  0  0  0  0  0  0  0
  127.1385  125.3784   61.9160 H   0  0  0  0  0  0  0  0  0  0  0  0
  1  2  1  0
  2  3  1  0
  3  4  2  0
  4  5  1  0
  5  6  1  0
  6  7  1  0
  6  8  1  0
  5  9  2  0
  9 10  1  0
 10 11  2  0
 11 12  1  0
 12 13  1  0
 13 14  2  0
 14 15  1  0
 15 16  2  0
 16 17  1  0
 17 18  1  0
 17 19  1  0
 15 20  1  0
 20 21  1  0
 21 22  2  0
 22 23  1  0
 23 24  2  0
 24 25  1  0
 24 26  1  0
 26 27  2  0
 20 28  1  0
 28 29  1  0
 29 30  1  0
 30 31  2  0
 31 32  1  0
 31 33  1  0
 33 34  2  0
 33 35  1  0
 35 36  1  0
 35 37  1  0
 28 38  1  0
 38 39  2  0
 11  3  1  0
 16 12  1  0
 27 21  1  0
 37 29  2  0
 38 14  1  0
  1 40  1  0
  1 41  1  0
  1 42  1  0
  7 43  1  0
  7 44  1  0
  7 45  1  0
  8 46  1  0
  8 47  1  0
  8 48  1  0
 10 49  1  0
 17 50  1  0
 18 51  1  0
 18 52  1  0
 18 53  1  0
 19 54  1  0
 19 55  1  0
 19 56  1  0
 20 57  1  1
 22 58  1  0
 23 59  1  0
 26 60  1  0
 27 61  1  0
 30 62  1  0
 36 63  1  0
 36 64  1  0
 36 65  1  0
 37 66  1  0
M  END
>  <Binding energies>  (1) 
[-6.17]

>  <Ligand effiencies>  (1) 
[-0.1582051282051282]

>  <Interactions>  (1) 
["V-A:GLU:543:CA:4904, V-B:GLU:543:C:9874, V-B:HIS:456:CD2:9039, V-A:GLU:543:C:4902, V-B:GLU:543:CB:9878, V-A:PRO:540:C:4881, V-B:TYR:539:CE2:9848, V-B:GLU:543:CG:9879, V-A:HIS:456:CD2:4068, V-B:TYR:484:CE2:9317, V-B:TYR:539:CZ:9849, H-B:TYR:539:OH:9850, V-B:ARG:545:CG:9894, V-A:GLU:543:CD:4908, V-B:HIS:456:CE1:9041, V-A:HIS:456:CE1:4070, V-B:TYR:484:CZ:9318, V-B:GLY:544:C:9884, V-B:GLY:544:CA:9886, V-A:GLU:543:CG:4907, V-B:GLU:543:CD:9880, V-A:HIS:456:CG:4066, V-A:GLU:543:CB:4906, V-A:PRO:540:CA:4883, V-B:ARG:545:CA:9891"]

$$$$
ZINC2241056304
     RDKit          3D

 61 63  0  0  0  0  0  0  0  0999 V2000
  131.5080  121.3060   60.9040 C   0  0  0  0  0  0  0  0  0  0  0  0
  132.6220  122.2850   61.3300 C   0  0  0  0  0  0  0  0  0  0  0  0
  133.8930  121.5190   61.7540 C   0  0  0  0  0  0  0  0  0  0  0  0
  132.1680  123.3470   62.3810 C   0  0  2  0  0  0  0  0  0  0  0  0
  133.3510  124.0020   63.1440 C   0  0  0  0  0  0  0  0  0  0  0  0
  133.0800  124.4750   64.5850 C   0  0  0  0  0  0  0  0  0  0  0  0
  131.8960  125.4540   64.7100 C   0  0  0  0  0  0  0  0  0  0  0  0
  130.5030  124.8130   64.9260 C   0  0  1  0  0  0  0  0  0  0  0  0
  129.4770  125.8280   65.1810 N   0  0  0  0  0  0  0  0  0  0  0  0
  129.2800  126.4320   66.4360 C   0  0  0  0  0  0  0  0  0  0  0  0
  129.6570  125.7450   67.5510 N   0  0  0  0  0  0  0  0  0  0  0  0
  129.4580  126.3050   68.7680 C   0  0  0  0  0  0  0  0  0  0  0  0
  128.8760  127.5590   68.9290 C   0  0  0  0  0  0  0  0  0  0  0  0
  128.4890  128.2590   67.7890 C   0  0  0  0  0  0  0  0  0  0  0  0
  128.6860  127.7110   66.5140 C   0  0  0  0  0  0  0  0  0  0  0  0
  128.2310  128.5600   65.2440 B   0  0  0  0  0  0  0  0  0  0  0  0
  128.5770  128.2420   63.9490 O   0  0  0  0  0  0  0  0  0  0  0  0
  127.7960  129.0520   63.0820 C   0  0  0  0  0  0  0  0  0  0  0  0
  128.6480  129.3460   61.8260 C   0  0  0  0  0  0  0  0  0  0  0  0
  126.5520  128.2020   62.7060 C   0  0  0  0  0  0  0  0  0  0  0  0
  127.5090  130.2970   63.9930 C   0  0  0  0  0  0  0  0  0  0  0  0
  128.6500  131.3470   64.0680 C   0  0  0  0  0  0  0  0  0  0  0  0
  126.1530  130.9940   63.7400 C   0  0  0  0  0  0  0  0  0  0  0  0
  127.4470  129.6950   65.2760 O   0  0  0  0  0  0  0  0  0  0  0  0
  130.0290  123.8670   63.7960 C   0  0  0  0  0  0  0  0  0  0  0  0
  131.0300  122.8050   63.2890 C   0  0  0  0  0  0  0  0  0  0  0  0
  131.0282  120.8844   61.7996 H   0  0  0  0  0  0  0  0  0  0  0  0
  130.7579  121.8425   60.3044 H   0  0  0  0  0  0  0  0  0  0  0  0
  131.9437  120.4932   60.3044 H   0  0  0  0  0  0  0  0  0  0  0  0
  132.8725  122.8818   60.4406 H   0  0  0  0  0  0  0  0  0  0  0  0
  133.9509  121.4841   62.8519 H   0  0  0  0  0  0  0  0  0  0  0  0
  133.8534  120.4942   61.3561 H   0  0  0  0  0  0  0  0  0  0  0  0
  134.7806  122.0327   61.3561 H   0  0  0  0  0  0  0  0  0  0  0  0
  131.7256  124.1861   61.8241 H   0  0  0  0  0  0  0  0  0  0  0  0
  134.1674  123.2659   63.1847 H   0  0  0  0  0  0  0  0  0  0  0  0
  133.5799  124.9191   62.5814 H   0  0  0  0  0  0  0  0  0  0  0  0
  132.8657  123.5918   65.2047 H   0  0  0  0  0  0  0  0  0  0  0  0
  133.9780  125.0167   64.9169 H   0  0  0  0  0  0  0  0  0  0  0  0
  132.0970  126.1174   65.5641 H   0  0  0  0  0  0  0  0  0  0  0  0
  131.8365  125.9715   63.7412 H   0  0  0  0  0  0  0  0  0  0  0  0
  130.6394  124.1797   65.8150 H   0  0  0  0  0  0  0  0  0  0  0  0
  129.1540  126.3510   64.3800 H   0  0  0  0  0  0  0  0  0  0  0  0
  129.7683  125.7472   69.6638 H   0  0  0  0  0  0  0  0  0  0  0  0
  128.7255  127.9864   69.9314 H   0  0  0  0  0  0  0  0  0  0  0  0
  128.0245  129.2510   67.8900 H   0  0  0  0  0  0  0  0  0  0  0  0
  129.6466  129.6906   62.1327 H   0  0  0  0  0  0  0  0  0  0  0  0
  128.7448  128.4293   61.2258 H   0  0  0  0  0  0  0  0  0  0  0  0
  128.1589  130.1273   61.2258 H   0  0  0  0  0  0  0  0  0  0  0  0
  126.0509  127.8596   63.6235 H   0  0  0  0  0  0  0  0  0  0  0  0
  125.8552  128.8137   62.1141 H   0  0  0  0  0  0  0  0  0  0  0  0
  126.8686  127.3306   62.1141 H   0  0  0  0  0  0  0  0  0  0  0  0
  128.8826  131.5611   65.1216 H   0  0  0  0  0  0  0  0  0  0  0  0
  129.5461  130.9511   63.5678 H   0  0  0  0  0  0  0  0  0  0  0  0
  128.3297  132.2729   63.5678 H   0  0  0  0  0  0  0  0  0  0  0  0
  125.6803  131.2370   64.7031 H   0  0  0  0  0  0  0  0  0  0  0  0
  126.3174  131.9194   63.1684 H   0  0  0  0  0  0  0  0  0  0  0  0
  125.4962  130.3218   63.1684 H   0  0  0  0  0  0  0  0  0  0  0  0
  129.1404  123.3332   64.1640 H   0  0  0  0  0  0  0  0  0  0  0  0
  129.8574  124.5259   62.9320 H   0  0  0  0  0  0  0  0  0  0  0  0
  131.4925  122.3278   64.1656 H   0  0  0  0  0  0  0  0  0  0  0  0
  130.4477  122.1104   62.6658 H   0  0  0  0  0  0  0  0  0  0  0  0
  1  2  1  0
  2  3  1  0
  2  4  1  0
  4  5  1  0
  5  6  1  0
  6  7  1  0
  7  8  1  0
  8  9  1  0
  9 10  1  0
 10 11  2  0
 11 12  1  0
 12 13  2  0
 13 14  1  0
 14 15  2  0
 15 16  1  0
 16 17  1  0
 17 18  1  0
 18 19  1  0
 18 20  1  0
 18 21  1  0
 21 22  1  0
 21 23  1  0
 21 24  1  0
  8 25  1  0
 25 26  1  0
 26  4  1  0
 15 10  1  0
 24 16  1  0
  1 27  1  0
  1 28  1  0
  1 29  1  0
  2 30  1  0
  3 31  1  0
  3 32  1  0
  3 33  1  0
  4 34  1  6
  5 35  1  0
  5 36  1  0
  6 37  1  0
  6 38  1  0
  7 39  1  0
  7 40  1  0
  8 41  1  1
  9 42  1  0
 12 43  1  0
 13 44  1  0
 14 45  1  0
 19 46  1  0
 19 47  1  0
 19 48  1  0
 20 49  1  0
 20 50  1  0
 20 51  1  0
 22 52  1  0
 22 53  1  0
 22 54  1  0
 23 55  1  0
 23 56  1  0
 23 57  1  0
 25 58  1  0
 25 59  1  0
 26 60  1  0
 26 61  1  0
M  END
>  <Binding energies>  (1) 
[-4.5]

>  <Ligand effiencies>  (1) 
[-0.15517241379310345]

>  <Interactions>  (1) 
["V-A:ILE:369:CG2:3237, V-A:GLY:454:CA:4049, H-A:GLU:543:OE2:4910, V-B:GLU:543:CB:9878, V-B:TYR:539:CE2:9848, V-B:GLU:543:CG:9879, H-B:GLU:543:OE1:9881, V-A:GLU:543:CD:4908, H-B:TYR:484:OH:9319, V-B:HIS:456:CE1:9041, V-A:SER:385:C:3405, V-A:ILE:369:CD1:3239, V-A:HIS:456:CE1:4070, V-B:TYR:539:CD2:9846, V-A:GLU:543:CG:4907, V-A:SER:385:CB:3409, V-B:GLU:543:CD:9880, V-A:LEU:475:CD2:4259, V-A:ARG:545:CZ:4926, H-A:GLU:543:OE1:4909, V-A:GLU:543:CB:4906, H-B:GLU:543:OE2:9882"]

$$$$
ZINC224146182
     RDKit          3D

 71 76  0  0  0  0  0  0  0  0999 V2000
  128.8660  131.8520   57.0630 C   0  0  0  0  0  0  0  0  0  0  0  0
  130.0010  131.2410   57.9000 C   0  0  1  0  0  0  0  0  0  0  0  0
  130.8340  132.2860   58.6700 C   0  0  0  0  0  0  0  0  0  0  0  0
  131.9400  131.6340   59.5370 C   0  0  2  0  0  0  0  0  0  0  0  0
  133.1000  131.1350   58.6470 C   0  0  0  0  0  0  0  0  0  0  0  0
  131.3150  130.4800   60.3700 C   0  0  0  0  0  0  0  0  0  0  0  0
  130.6050  129.4740   59.5610 N   0  0  0  0  0  0  0  0  0  0  0  0
  130.3390  128.2490   60.1530 C   0  0  0  0  0  0  0  0  0  0  0  0
  129.5030  128.1630   61.2740 C   0  0  0  0  0  0  0  0  0  0  0  0
  129.2320  126.9330   61.8690 C   0  0  0  0  0  0  0  0  0  0  0  0
  129.8030  125.7550   61.3670 C   0  0  0  0  0  0  0  0  0  0  0  0
  129.5070  124.4990   61.9540 N   0  0  0  0  0  0  0  0  0  0  0  0
  128.3060  123.8170   61.8700 C   0  0  0  0  0  0  0  0  0  0  0  0
  126.8130  124.2550   61.2710 S   0  0  0  0  0  0  0  0  0  0  0  0
  128.6090  122.5920   62.3850 N   0  0  0  0  0  0  0  0  0  0  0  0
  129.9860  122.4290   62.8050 C   0  0  1  0  0  0  0  0  0  0  0  0
  130.9060  121.6690   61.8400 C   0  0  0  0  0  0  0  0  0  0  0  0
  132.1360  122.2290   61.4770 C   0  0  0  0  0  0  0  0  0  0  0  0
  132.9690  121.5180   60.6110 C   0  0  0  0  0  0  0  0  0  0  0  0
  132.5620  120.2700   60.1360 C   0  0  0  0  0  0  0  0  0  0  0  0
  131.3250  119.7720   60.5490 C   0  0  0  0  0  0  0  0  0  0  0  0
  130.5020  120.4470   61.3900 N   0  0  0  0  0  0  0  0  0  0  0  0
  130.3270  123.8900   63.0090 C   0  0  2  0  0  0  0  0  0  0  0  0
  130.0650  124.3640   64.4370 C   0  0  0  0  0  0  0  0  0  0  0  0
  130.1980  123.8050   65.7000 C   0  0  0  0  0  0  0  0  0  0  0  0
  129.8050  124.7790   66.6150 C   0  0  0  0  0  0  0  0  0  0  0  0
  129.4590  125.9100   65.8860 C   0  0  0  0  0  0  0  0  0  0  0  0
  128.9520  127.2630   66.2640 C   0  0  0  0  0  0  0  0  0  0  0  0
  128.5370  128.1060   65.2260 C   0  0  0  0  0  0  0  0  0  0  0  0
  128.0480  129.4060   65.4650 C   0  0  0  0  0  0  0  0  0  0  0  0
  127.6030  130.3050   64.3290 C   0  0  0  0  0  0  0  0  0  0  0  0
  127.7120  131.5470   64.4630 O   0  0  0  0  0  0  0  0  0  0  0  0
  127.1380  129.7790   63.2880 O   0  0  0  0  0  0  0  0  0  0  0  0
  127.9910  129.8350   66.8040 C   0  0  0  0  0  0  0  0  0  0  0  0
  128.3940  129.0060   67.8470 C   0  0  0  0  0  0  0  0  0  0  0  0
  128.8710  127.7240   67.5900 C   0  0  0  0  0  0  0  0  0  0  0  0
  129.3190  126.7400   68.9440 Cl  0  0  0  0  0  0  0  0  0  0  0  0
  129.6020  125.6340   64.5630 O   0  0  0  0  0  0  0  0  0  0  0  0
  130.6260  125.8400   60.2350 C   0  0  0  0  0  0  0  0  0  0  0  0
  130.8990  127.0700   59.6360 C   0  0  0  0  0  0  0  0  0  0  0  0
  131.9360  127.0960   58.2480 Cl  0  0  0  0  0  0  0  0  0  0  0  0
  129.4950  130.1610   58.8840 C   0  0  0  0  0  0  0  0  0  0  0  0
  128.0979  132.2655   57.7331 H   0  0  0  0  0  0  0  0  0  0  0  0
  129.2696  132.6547   56.4284 H   0  0  0  0  0  0  0  0  0  0  0  0
  128.4181  131.0731   56.4284 H   0  0  0  0  0  0  0  0  0  0  0  0
  130.6610  130.7681   57.1579 H   0  0  0  0  0  0  0  0  0  0  0  0
  131.3070  132.9649   57.9452 H   0  0  0  0  0  0  0  0  0  0  0  0
  130.1541  132.8278   59.3439 H   0  0  0  0  0  0  0  0  0  0  0  0
  132.3614  132.3778   60.2292 H   0  0  0  0  0  0  0  0  0  0  0  0
  133.9241  130.7805   59.2835 H   0  0  0  0  0  0  0  0  0  0  0  0
  132.7460  130.3096   58.0119 H   0  0  0  0  0  0  0  0  0  0  0  0
  133.4558  131.9597   58.0119 H   0  0  0  0  0  0  0  0  0  0  0  0
  132.1220  129.9744   60.9206 H   0  0  0  0  0  0  0  0  0  0  0  0
  130.5689  130.9366   61.0370 H   0  0  0  0  0  0  0  0  0  0  0  0
  129.0552  129.0779   61.6893 H   0  0  0  0  0  0  0  0  0  0  0  0
  128.5635  126.8855   62.7412 H   0  0  0  0  0  0  0  0  0  0  0  0
  127.9120  121.8640   62.4350 H   0  0  0  0  0  0  0  0  0  0  0  0
  130.1265  121.7785   63.6809 H   0  0  0  0  0  0  0  0  0  0  0  0
  132.4410  123.2114   61.8668 H   0  0  0  0  0  0  0  0  0  0  0  0
  133.9386  121.9380   60.3053 H   0  0  0  0  0  0  0  0  0  0  0  0
  133.2012  119.6924   59.4521 H   0  0  0  0  0  0  0  0  0  0  0  0
  131.0033  118.7885   60.1759 H   0  0  0  0  0  0  0  0  0  0  0  0
  131.3902  124.1570   62.9179 H   0  0  0  0  0  0  0  0  0  0  0  0
  130.5467  122.7883   65.9337 H   0  0  0  0  0  0  0  0  0  0  0  0
  129.7743  124.6727   67.7094 H   0  0  0  0  0  0  0  0  0  0  0  0
  128.5945  127.7416   64.1897 H   0  0  0  0  0  0  0  0  0  0  0  0
  127.6206  130.8456   67.0310 H   0  0  0  0  0  0  0  0  0  0  0  0
  128.3349  129.3675   68.8842 H   0  0  0  0  0  0  0  0  0  0  0  0
  131.0630  124.9230   59.8129 H   0  0  0  0  0  0  0  0  0  0  0  0
  128.9051  129.4192   58.3256 H   0  0  0  0  0  0  0  0  0  0  0  0
  128.8827  130.6580   59.6509 H   0  0  0  0  0  0  0  0  0  0  0  0
  1  2  1  0
  2  3  1  0
  3  4  1  0
  4  5  1  0
  4  6  1  0
  6  7  1  0
  7  8  1  0
  8  9  2  0
  9 10  1  0
 10 11  2  0
 11 12  1  0
 12 13  1  0
 13 14  2  0
 13 15  1  0
 15 16  1  0
 16 17  1  0
 17 18  2  0
 18 19  1  0
 19 20  2  0
 20 21  1  0
 21 22  2  0
 16 23  1  0
 23 24  1  0
 24 25  2  0
 25 26  1  0
 26 27  2  0
 27 28  1  0
 28 29  2  0
 29 30  1  0
 30 31  1  0
 31 32  2  0
 31 33  1  0
 30 34  2  0
 34 35  1  0
 35 36  2  0
 36 37  1  0
 27 38  1  0
 11 39  1  0
 39 40  2  0
 40 41  1  0
  7 42  1  0
 42  2  1  0
 40  8  1  0
 23 12  1  0
 38 24  1  0
 22 17  1  0
 36 28  1  0
  1 43  1  0
  1 44  1  0
  1 45  1  0
  2 46  1  6
  3 47  1  0
  3 48  1  0
  4 49  1  1
  5 50  1  0
  5 51  1  0
  5 52  1  0
  6 53  1  0
  6 54  1  0
  9 55  1  0
 10 56  1  0
 15 57  1  0
 16 58  1  1
 18 59  1  0
 19 60  1  0
 20 61  1  0
 21 62  1  0
 23 63  1  6
 25 64  1  0
 26 65  1  0
 29 66  1  0
 34 67  1  0
 35 68  1  0
 39 69  1  0
 42 70  1  0
 42 71  1  0
M  CHG  1  33  -1
M  END
>  <Binding energies>  (1) 
[-8.15]

>  <Ligand effiencies>  (1) 
[-0.18953488372093025]

>  <Interactions>  (1) 
["V-A:ILE:369:CG2:3237, V-B:GLU:543:CB:9878, V-B:ALA:541:CB:9864, V-B:TYR:539:CE2:9848, V-A:TYR:484:CE2:4346, V-B:GLU:543:CG:9879, V-A:ASP:366:CG:3213, V-A:LEU:363:CD1:3189, V-B:TYR:484:CE2:9317, V-A:TYR:484:CZ:4347, V-A:GLU:543:CD:4908, H-B:TYR:484:OH:9319, V-B:GLU:543:CA:9876, V-B:HIS:456:CE1:9041, V-B:TYR:484:CZ:9318, V-A:HIS:456:CE1:4070, V-B:TYR:539:CD2:9846, V-A:GLU:543:CG:4907, V-A:SER:385:CB:3409, V-B:GLU:543:CD:9880, V-A:MET:535:CE:4835, V-A:ASP:366:CB:3212, V-A:LEU:475:CD2:4259, V-A:GLU:543:CB:4906, V-A:PRO:540:N:4884, V-A:PRO:540:CB:4885, V-A:PRO:540:CA:4883, V-A:LEU:363:CA:3185"]

$$$$
ZINC224174913
     RDKit          3D

 57 61  0  0  0  0  0  0  0  0999 V2000
  130.9690  129.8100   59.6470 C   0  0  0  0  0  0  0  0  0  0  0  0
  130.2070  129.7290   60.8940 N   0  0  0  0  0  0  0  0  0  0  0  0
  130.0240  130.9860   61.6190 C   0  0  0  0  0  0  0  0  0  0  0  0
  130.1230  128.4880   61.5880 C   0  0  0  0  0  0  0  0  0  0  0  0
  128.9640  128.1280   62.2980 C   0  0  0  0  0  0  0  0  0  0  0  0
  128.8780  126.9130   62.9710 C   0  0  0  0  0  0  0  0  0  0  0  0
  129.9560  126.0280   62.9480 C   0  0  0  0  0  0  0  0  0  0  0  0
  129.8770  124.7920   63.6210 N   0  0  0  0  0  0  0  0  0  0  0  0
  129.9180  124.6540   64.9920 C   0  0  0  0  0  0  0  0  0  0  0  0
  129.8260  123.3200   65.3290 C   0  0  0  0  0  0  0  0  0  0  0  0
  129.7070  122.6190   64.1330 C   0  0  0  0  0  0  0  0  0  0  0  0
  129.7270  123.5230   63.0710 C   0  0  0  0  0  0  0  0  0  0  0  0
  129.5840  123.2710   61.5650 C   0  0  2  0  0  0  0  0  0  0  0  0
  128.4040  122.3910   61.1960 C   0  0  1  0  0  0  0  0  0  0  0  0
  127.6770  122.7730   59.8990 C   0  0  0  0  0  0  0  0  0  0  0  0
  126.5650  123.6270   59.8620 C   0  0  0  0  0  0  0  0  0  0  0  0
  125.9730  123.9050   58.6280 C   0  0  0  0  0  0  0  0  0  0  0  0
  126.4960  123.3310   57.4680 C   0  0  0  0  0  0  0  0  0  0  0  0
  127.6060  122.4930   57.5830 C   0  0  0  0  0  0  0  0  0  0  0  0
  128.1960  122.2130   58.7720 N   0  0  0  0  0  0  0  0  0  0  0  0
  129.0790  121.1100   61.1870 N   0  0  0  0  0  0  0  0  0  0  0  0
  130.4140  121.1710   60.9250 C   0  0  0  0  0  0  0  0  0  0  0  0
  131.4030  119.8610   60.6370 S   0  0  0  0  0  0  0  0  0  0  0  0
  130.6820  122.5230   60.9530 N   0  0  0  0  0  0  0  0  0  0  0  0
  131.9400  123.0950   60.7140 C   0  0  0  0  0  0  0  0  0  0  0  0
  133.0160  122.8070   61.5600 C   0  0  0  0  0  0  0  0  0  0  0  0
  134.2500  123.4090   61.3290 C   0  0  0  0  0  0  0  0  0  0  0  0
  134.3990  124.2930   60.2620 C   0  0  0  0  0  0  0  0  0  0  0  0
  133.3250  124.5840   59.4210 C   0  0  0  0  0  0  0  0  0  0  0  0
  132.0890  123.9860   59.6490 C   0  0  0  0  0  0  0  0  0  0  0  0
  131.1100  126.3550   62.2380 C   0  0  0  0  0  0  0  0  0  0  0  0
  131.1920  127.5740   61.5700 C   0  0  0  0  0  0  0  0  0  0  0  0
  132.0385  129.9237   59.8776 H   0  0  0  0  0  0  0  0  0  0  0  0
  130.8155  128.8905   59.0631 H   0  0  0  0  0  0  0  0  0  0  0  0
  130.6256  130.6767   59.0631 H   0  0  0  0  0  0  0  0  0  0  0  0
  130.0522  130.7924   62.7015 H   0  0  0  0  0  0  0  0  0  0  0  0
  130.8299  131.6849   61.3504 H   0  0  0  0  0  0  0  0  0  0  0  0
  129.0523  131.4261   61.3504 H   0  0  0  0  0  0  0  0  0  0  0  0
  128.1091  128.8198   62.3219 H   0  0  0  0  0  0  0  0  0  0  0  0
  127.9616  126.6510   63.5201 H   0  0  0  0  0  0  0  0  0  0  0  0
  130.0102  125.4830   65.7091 H   0  0  0  0  0  0  0  0  0  0  0  0
  129.8433  122.8942   66.3431 H   0  0  0  0  0  0  0  0  0  0  0  0
  129.6123  121.5270   64.0399 H   0  0  0  0  0  0  0  0  0  0  0  0
  129.5098  124.3083   61.2064 H   0  0  0  0  0  0  0  0  0  0  0  0
  127.5420  122.4536   61.8764 H   0  0  0  0  0  0  0  0  0  0  0  0
  126.1668  124.0693   60.7871 H   0  0  0  0  0  0  0  0  0  0  0  0
  125.1002  124.5720   58.5705 H   0  0  0  0  0  0  0  0  0  0  0  0
  126.0437  123.5345   56.4861 H   0  0  0  0  0  0  0  0  0  0  0  0
  128.0203  122.0400   56.6702 H   0  0  0  0  0  0  0  0  0  0  0  0
  128.6060  120.2200   61.2620 H   0  0  0  0  0  0  0  0  0  0  0  0
  132.8882  122.1102   62.4015 H   0  0  0  0  0  0  0  0  0  0  0  0
  135.1040  123.1877   61.9861 H   0  0  0  0  0  0  0  0  0  0  0  0
  135.3751  124.7668   60.0809 H   0  0  0  0  0  0  0  0  0  0  0  0
  133.4542  125.2829   58.5814 H   0  0  0  0  0  0  0  0  0  0  0  0
  131.2348  124.2138   58.9944 H   0  0  0  0  0  0  0  0  0  0  0  0
  131.9547  125.6511   62.2054 H   0  0  0  0  0  0  0  0  0  0  0  0
  132.1094  127.8268   61.0182 H   0  0  0  0  0  0  0  0  0  0  0  0
  1  2  1  0
  2  3  1  0
  2  4  1  0
  4  5  2  0
  5  6  1  0
  6  7  2  0
  7  8  1  0
  8  9  1  0
  9 10  2  0
 10 11  1  0
 11 12  2  0
 12 13  1  0
 13 14  1  0
 14 15  1  0
 15 16  2  0
 16 17  1  0
 17 18  2  0
 18 19  1  0
 19 20  2  0
 14 21  1  0
 21 22  1  0
 22 23  2  0
 22 24  1  0
 24 25  1  0
 25 26  2  0
 26 27  1  0
 27 28  2  0
 28 29  1  0
 29 30  2  0
  7 31  1  0
 31 32  2  0
 32  4  1  0
 12  8  1  0
 24 13  1  0
 30 25  1  0
 20 15  1  0
  1 33  1  0
  1 34  1  0
  1 35  1  0
  3 36  1  0
  3 37  1  0
  3 38  1  0
  5 39  1  0
  6 40  1  0
  9 41  1  0
 10 42  1  0
 11 43  1  0
 13 44  1  6
 14 45  1  1
 16 46  1  0
 17 47  1  0
 18 48  1  0
 19 49  1  0
 21 50  1  0
 26 51  1  0
 27 52  1  0
 28 53  1  0
 29 54  1  0
 30 55  1  0
 31 56  1  0
 32 57  1  0
M  END
>  <Binding energies>  (1) 
[-7.61]

>  <Ligand effiencies>  (1) 
[-0.23060606060606062]

>  <Interactions>  (1) 
["V-A:ILE:369:CG2:3237, V-A:ASP:366:CA:3210, V-B:PRO:540:CA:9855, V-A:ILE:369:CB:3236, V-B:ALA:541:CB:9864, V-B:TYR:539:CE2:9848, V-A:TYR:484:CE2:4346, V-B:GLU:543:CG:9879, V-B:TYR:539:C:9839, V-A:ASP:366:CG:3213, V-B:TYR:539:CZ:9849, V-A:GLU:543:CD:4908, V-A:TYR:484:CZ:4347, V-B:PRO:540:CB:9857, V-B:PRO:540:N:9856, V-A:ILE:369:CD1:3239, V-B:TYR:539:CD2:9846, V-B:GLU:543:CD:9880, V-A:ASP:366:CB:3212, V-A:LEU:475:CD2:4259, V-B:TYR:539:CG:9844, V-B:TYR:539:CD1:9845, H-B:TYR:539:O:9840, V-B:PRO:540:C:9853, V-B:TYR:539:CE1:9847, H-B:PRO:540:O:9854"]

$$$$
ZINC224454465
     RDKit          3D

 48 52  0  0  0  0  0  0  0  0999 V2000
  129.8480  120.6080   62.0420 S   0  0  0  0  0  0  0  0  0  0  0  0
  129.2220  121.9310   61.2420 C   0  0  0  0  0  0  0  0  0  0  0  0
  128.7860  121.9250   59.9530 N   0  0  0  0  0  0  0  0  0  0  0  0
  128.4600  123.2280   59.4250 C   0  0  1  0  0  0  0  0  0  0  0  0
  127.3700  123.2460   58.3520 C   0  0  0  0  0  0  0  0  0  0  0  0
  126.4260  124.2780   58.3310 C   0  0  0  0  0  0  0  0  0  0  0  0
  125.4380  124.2660   57.3460 C   0  0  0  0  0  0  0  0  0  0  0  0
  125.4180  123.2350   56.4040 C   0  0  0  0  0  0  0  0  0  0  0  0
  126.3980  122.2450   56.4810 C   0  0  0  0  0  0  0  0  0  0  0  0
  127.3690  122.2400   57.4320 N   0  0  0  0  0  0  0  0  0  0  0  0
  128.0760  123.8900   60.7290 C   0  0  2  0  0  0  0  0  0  0  0  0
  128.1660  125.4180   60.6730 C   0  0  0  0  0  0  0  0  0  0  0  0
  127.2020  126.3580   61.0310 C   0  0  0  0  0  0  0  0  0  0  0  0
  127.6800  127.6310   60.7510 C   0  0  0  0  0  0  0  0  0  0  0  0
  128.9420  127.4630   60.2240 C   0  0  0  0  0  0  0  0  0  0  0  0
  129.2630  126.1210   60.1790 N   0  0  0  0  0  0  0  0  0  0  0  0
  130.5060  125.6220   59.7180 C   0  0  0  0  0  0  0  0  0  0  0  0
  131.0470  126.0800   58.5070 C   0  0  0  0  0  0  0  0  0  0  0  0
  132.2830  125.5790   58.0940 C   0  0  0  0  0  0  0  0  0  0  0  0
  132.9500  124.6450   58.8910 C   0  0  0  0  0  0  0  0  0  0  0  0
  132.3520  124.2420   60.0850 C   0  0  0  0  0  0  0  0  0  0  0  0
  131.1530  124.7180   60.5040 N   0  0  0  0  0  0  0  0  0  0  0  0
  129.0110  123.2340   61.6500 N   0  0  0  0  0  0  0  0  0  0  0  0
  129.3360  123.7520   62.9240 C   0  0  0  0  0  0  0  0  0  0  0  0
  129.6530  122.8750   63.9690 C   0  0  0  0  0  0  0  0  0  0  0  0
  129.9460  123.3770   65.2340 C   0  0  0  0  0  0  0  0  0  0  0  0
  129.9160  124.7520   65.4560 C   0  0  0  0  0  0  0  0  0  0  0  0
  130.2790  125.3730   67.0250 Cl  0  0  0  0  0  0  0  0  0  0  0  0
  129.5940  125.6320   64.4230 C   0  0  0  0  0  0  0  0  0  0  0  0
  129.3010  125.1320   63.1580 C   0  0  0  0  0  0  0  0  0  0  0  0
  128.8770  121.0950   59.3850 H   0  0  0  0  0  0  0  0  0  0  0  0
  129.2622  123.7189   58.8544 H   0  0  0  0  0  0  0  0  0  0  0  0
  126.4620  125.0848   59.0779 H   0  0  0  0  0  0  0  0  0  0  0  0
  124.6803  125.0627   57.3115 H   0  0  0  0  0  0  0  0  0  0  0  0
  124.6474  123.2043   55.6196 H   0  0  0  0  0  0  0  0  0  0  0  0
  126.3842  121.4327   55.7394 H   0  0  0  0  0  0  0  0  0  0  0  0
  127.0251  123.7654   61.0291 H   0  0  0  0  0  0  0  0  0  0  0  0
  126.2183  126.1280   61.4664 H   0  0  0  0  0  0  0  0  0  0  0  0
  127.1558  128.5837   60.9168 H   0  0  0  0  0  0  0  0  0  0  0  0
  129.5982  128.2794   59.8880 H   0  0  0  0  0  0  0  0  0  0  0  0
  130.5082  126.8188   57.8955 H   0  0  0  0  0  0  0  0  0  0  0  0
  132.7289  125.9174   57.1471 H   0  0  0  0  0  0  0  0  0  0  0  0
  133.9242  124.2369   58.5839 H   0  0  0  0  0  0  0  0  0  0  0  0
  132.8753  123.5066   60.7138 H   0  0  0  0  0  0  0  0  0  0  0  0
  129.6705  121.7898   63.7902 H   0  0  0  0  0  0  0  0  0  0  0  0
  130.2002  122.6906   66.0551 H   0  0  0  0  0  0  0  0  0  0  0  0
  129.5718  126.7162   64.6074 H   0  0  0  0  0  0  0  0  0  0  0  0
  129.0416  125.8215   62.3411 H   0  0  0  0  0  0  0  0  0  0  0  0
  1  2  2  0
  2  3  1  0
  3  4  1  0
  4  5  1  0
  5  6  2  0
  6  7  1  0
  7  8  2  0
  8  9  1  0
  9 10  2  0
  4 11  1  0
 11 12  1  0
 12 13  2  0
 13 14  1  0
 14 15  2  0
 15 16  1  0
 16 17  1  0
 17 18  2  0
 18 19  1  0
 19 20  2  0
 20 21  1  0
 21 22  2  0
 11 23  1  0
 23 24  1  0
 24 25  2  0
 25 26  1  0
 26 27  2  0
 27 28  1  0
 27 29  1  0
 29 30  2  0
 23  2  1  0
 30 24  1  0
 10  5  1  0
 16 12  1  0
 22 17  1  0
  3 31  1  0
  4 32  1  6
  6 33  1  0
  7 34  1  0
  8 35  1  0
  9 36  1  0
 11 37  1  1
 13 38  1  0
 14 39  1  0
 15 40  1  0
 18 41  1  0
 19 42  1  0
 20 43  1  0
 21 44  1  0
 25 45  1  0
 26 46  1  0
 29 47  1  0
 30 48  1  0
M  END
>  <Binding energies>  (1) 
[-7.47]

>  <Ligand effiencies>  (1) 
[-0.24096774193548387]

>  <Interactions>  (1) 
["V-A:ASP:366:CA:3210, V-B:PRO:540:CA:9855, V-B:GLU:543:CB:9878, V-B:ALA:541:CB:9864, V-B:TYR:539:CE2:9848, V-A:TYR:484:CE2:4346, H-B:TYR:539:N:9842, V-B:GLU:543:CG:9879, V-B:TYR:539:C:9839, V-A:ASP:366:CG:3213, V-B:TYR:539:CZ:9849, V-A:TYR:484:CZ:4347, V-B:PRO:540:N:9856, V-A:HIS:456:CE1:4070, V-B:TYR:539:CD2:9846, V-B:PRO:540:CD:9859, V-B:GLU:543:CD:9880, V-A:ASP:366:CB:3212, V-A:LEU:475:CD2:4259, V-B:LEU:363:CD1:8160, H-B:TYR:539:O:9840, V-B:MET:535:CE:9807"]

$$$$
ZINC2244602892-again1
     RDKit          3D

 34 34  0  0  0  0  0  0  0  0999 V2000
  129.6440  126.2520   73.2810 C   0  0  0  0  0  0  0  0  0  0  0  0
  128.9120  127.2410   72.7260 C   0  0  0  0  0  0  0  0  0  0  0  0
  127.4020  127.3550   72.9300 C   0  0  0  0  0  0  0  0  0  0  0  0
  127.0550  127.7150   74.2630 O   0  0  0  0  0  0  0  0  0  0  0  0
  125.6930  128.0820   74.4150 C   0  0  0  0  0  0  0  0  0  0  0  0
  129.5080  128.3440   71.8300 C   0  0  1  0  0  0  0  0  0  0  0  0
  130.5540  129.1780   72.4210 N   0  0  0  0  0  0  0  0  0  0  0  0
  130.0390  130.4330   72.9130 N   0  0  0  0  0  0  0  0  0  0  0  0
  130.0220  127.8480   70.4860 C   0  0  0  0  0  0  0  0  0  0  0  0
  131.2940  128.0950   69.9850 C   0  0  0  0  0  0  0  0  0  0  0  0
  131.5740  127.3790   68.4400 S   0  0  0  0  0  0  0  0  0  0  0  0
  129.9700  126.7170   68.4070 C   0  0  0  0  0  0  0  0  0  0  0  0
  129.5090  125.8790   67.2360 C   0  0  0  0  0  0  0  0  0  0  0  0
  129.2730  127.0890   69.5630 C   0  0  0  0  0  0  0  0  0  0  0  0
  127.9880  126.6850   69.8090 O   0  0  0  0  0  0  0  0  0  0  0  0
  127.0990  127.0250   68.7520 C   0  0  0  0  0  0  0  0  0  0  0  0
  130.7294  126.2076   73.1080 H   0  0  0  0  0  0  0  0  0  0  0  0
  129.1551  125.4904   73.9063 H   0  0  0  0  0  0  0  0  0  0  0  0
  127.0109  128.1216   72.2449 H   0  0  0  0  0  0  0  0  0  0  0  0
  126.9630  126.3671   72.7268 H   0  0  0  0  0  0  0  0  0  0  0  0
  125.4483  128.1479   75.4854 H   0  0  0  0  0  0  0  0  0  0  0  0
  125.5210  129.0585   73.9387 H   0  0  0  0  0  0  0  0  0  0  0  0
  125.0537  127.3241   73.9387 H   0  0  0  0  0  0  0  0  0  0  0  0
  128.6171  128.9745   71.6929 H   0  0  0  0  0  0  0  0  0  0  0  0
  131.2620  129.4140   71.7400 H   0  0  0  0  0  0  0  0  0  0  0  0
  130.7850  131.1100   72.8570 H   0  0  0  0  0  0  0  0  0  0  0  0
  129.2790  130.7080   72.3080 H   0  0  0  0  0  0  0  0  0  0  0  0
  132.0490  128.6890   70.5208 H   0  0  0  0  0  0  0  0  0  0  0  0
  129.0101  124.9720   67.6081 H   0  0  0  0  0  0  0  0  0  0  0  0
  128.8038  126.4606   66.6240 H   0  0  0  0  0  0  0  0  0  0  0  0
  130.3777  125.5947   66.6240 H   0  0  0  0  0  0  0  0  0  0  0  0
  126.1500  127.3879   69.1735 H   0  0  0  0  0  0  0  0  0  0  0  0
  127.5506  127.8139   68.1325 H   0  0  0  0  0  0  0  0  0  0  0  0
  126.9089  126.1361   68.1325 H   0  0  0  0  0  0  0  0  0  0  0  0
  1  2  2  0
  2  3  1  0
  3  4  1  0
  4  5  1  0
  2  6  1  0
  6  7  1  0
  7  8  1  0
  6  9  1  0
  9 10  2  0
 10 11  1  0
 11 12  1  0
 12 13  1  0
 12 14  2  0
 14 15  1  0
 15 16  1  0
 14  9  1  0
  1 17  1  0
  1 18  1  0
  3 19  1  0
  3 20  1  0
  5 21  1  0
  5 22  1  0
  5 23  1  0
  6 24  1  6
  7 25  1  0
  8 26  1  0
  8 27  1  0
 10 28  1  0
 13 29  1  0
 13 30  1  0
 13 31  1  0
 16 32  1  0
 16 33  1  0
 16 34  1  0
M  END
>  <Binding energies>  (1) 
[-4.98]

>  <Ligand effiencies>  (1) 
[-0.2621052631578948]

>  <Interactions>  (1) 
["V-A:ARG:545:CA:4919, V-B:HIS:456:CD2:9039, V-B:GLU:543:C:9874, V-A:GLU:543:C:4902, V-B:GLU:543:CB:9878, H-B:LYS:547:NZ:9923, V-B:HIS:456:CB:9036, V-A:GLY:544:C:4912, V-B:GLU:543:CG:9879, V-A:HIS:456:CD2:4068, V-B:LYS:547:CE:9922, V-A:GLU:543:CD:4908, V-A:ARG:545:CG:4922, V-B:GLU:543:CA:9876, V-B:HIS:456:CE1:9041, V-A:HIS:456:CE1:4070, V-B:GLY:544:C:9884, H-B:HIS:456:NE2:9042, V-B:HIS:456:CG:9037, H-A:LYS:547:NZ:4951, V-A:GLU:543:CB:4906, H-A:GLY:544:O:4913, H-A:GLU:543:O:4903"]

$$$$
ZINC2245801099
     RDKit          3D

 42 41  0  0  0  0  0  0  0  0999 V2000
  131.7100  132.0710   57.9040 C   0  0  0  0  0  0  0  0  0  0  0  0
  130.8710  132.9780   56.9880 C   0  0  0  0  0  0  0  0  0  0  0  0
  129.4790  133.3490   57.5400 C   0  0  0  0  0  0  0  0  0  0  0  0
  129.1610  132.7930   58.8680 C   0  0  0  0  0  0  0  0  0  0  0  0
  128.8990  132.3170   59.9620 C   0  0  0  0  0  0  0  0  0  0  0  0
  128.5880  131.7250   61.2860 C   0  0  2  0  0  0  0  0  0  0  0  0
  127.0520  131.6130   61.4660 C   0  0  0  0  0  0  0  0  0  0  0  0
  129.1700  132.5910   62.4430 C   0  0  0  0  0  0  0  0  0  0  0  0
  130.5390  132.1670   63.0260 C   0  0  0  0  0  0  0  0  0  0  0  0
  131.4580  131.8830   61.9790 O   0  0  0  0  0  0  0  0  0  0  0  0
  132.8130  131.8670   62.4030 C   0  0  0  0  0  0  0  0  0  0  0  0
  129.2110  130.4410   61.4390 O   0  0  0  0  0  0  0  0  0  0  0  0
  128.6110  129.4460   62.2710 C   0  0  0  0  0  0  0  0  0  0  0  0
  129.3220  128.1090   62.0160 C   0  0  0  0  0  0  0  0  0  0  0  0
  130.4550  128.2240   60.9810 C   0  0  0  0  0  0  0  0  0  0  0  0
  131.3600  129.4110   61.3230 N   0  0  0  0  0  0  0  0  0  0  0  0
  131.4906  132.3082   58.9555 H   0  0  0  0  0  0  0  0  0  0  0  0
  131.4604  131.0182   57.7058 H   0  0  0  0  0  0  0  0  0  0  0  0
  132.7790  132.2380   57.7058 H   0  0  0  0  0  0  0  0  0  0  0  0
  131.4323  133.9094   56.8223 H   0  0  0  0  0  0  0  0  0  0  0  0
  130.6946  132.4060   56.0651 H   0  0  0  0  0  0  0  0  0  0  0  0
  129.4210  134.4454   57.6075 H   0  0  0  0  0  0  0  0  0  0  0  0
  128.7483  132.9120   56.8435 H   0  0  0  0  0  0  0  0  0  0  0  0
  126.8089  131.5953   62.5386 H   0  0  0  0  0  0  0  0  0  0  0  0
  126.5634  132.4779   60.9935 H   0  0  0  0  0  0  0  0  0  0  0  0
  126.6941  130.6864   60.9935 H   0  0  0  0  0  0  0  0  0  0  0  0
  129.2754  133.6189   62.0658 H   0  0  0  0  0  0  0  0  0  0  0  0
  128.4589  132.4685   63.2732 H   0  0  0  0  0  0  0  0  0  0  0  0
  130.9373  132.9836   63.6461 H   0  0  0  0  0  0  0  0  0  0  0  0
  130.4019  131.2615   63.6353 H   0  0  0  0  0  0  0  0  0  0  0  0
  132.8532  131.8665   63.5023 H   0  0  0  0  0  0  0  0  0  0  0  0
  133.3071  130.9630   62.0176 H   0  0  0  0  0  0  0  0  0  0  0  0
  133.3284  132.7591   62.0176 H   0  0  0  0  0  0  0  0  0  0  0  0
  128.7210  129.7298   63.3281 H   0  0  0  0  0  0  0  0  0  0  0  0
  127.5396  129.3549   62.0391 H   0  0  0  0  0  0  0  0  0  0  0  0
  129.7478  127.7508   62.9649 H   0  0  0  0  0  0  0  0  0  0  0  0
  128.5756  127.4084   61.6135 H   0  0  0  0  0  0  0  0  0  0  0  0
  131.0499  127.2988   60.9881 H   0  0  0  0  0  0  0  0  0  0  0  0
  130.0178  128.3795   59.9837 H   0  0  0  0  0  0  0  0  0  0  0  0
  131.2140  130.1600   60.6610 H   0  0  0  0  0  0  0  0  0  0  0  0
  132.3290  129.1290   61.2870 H   0  0  0  0  0  0  0  0  0  0  0  0
  131.1540  129.7520   62.2510 H   0  0  0  0  0  0  0  0  0  0  0  0
  1  2  1  0
  2  3  1  0
  3  4  1  0
  4  5  3  0
  6  5  1  6
  6  7  1  0
  6  8  1  0
  8  9  1  0
  9 10  1  0
 10 11  1  0
  6 12  1  0
 12 13  1  0
 13 14  1  0
 14 15  1  0
 15 16  1  0
  1 17  1  0
  1 18  1  0
  1 19  1  0
  2 20  1  0
  2 21  1  0
  3 22  1  0
  3 23  1  0
  7 24  1  0
  7 25  1  0
  7 26  1  0
  8 27  1  0
  8 28  1  0
  9 29  1  0
  9 30  1  0
 11 31  1  0
 11 32  1  0
 11 33  1  0
 13 34  1  0
 13 35  1  0
 14 36  1  0
 14 37  1  0
 15 38  1  0
 15 39  1  0
 16 40  1  0
 16 41  1  0
 16 42  1  0
M  CHG  1  16   1
M  END
>  <Binding energies>  (1) 
[-4.33]

>  <Ligand effiencies>  (1) 
[-0.22789473684210526]

>  <Interactions>  (1) 
["V-A:ALA:541:C:4888, H-A:ALA:541:N:4891, V-A:ILE:538:CB:4862, V-A:ASP:366:CG:3213, V-A:ASN:362:CB:3176, V-A:TYR:539:CD1:4873, V-A:LEU:363:CD1:3189, V-A:ALA:541:CB:4892, V-A:TYR:539:CA:4869, V-A:GLU:543:CD:4908, V-A:ALA:541:CA:4890, V-A:GLU:543:CG:4907, V-A:TYR:539:C:4867, H-A:GLU:543:OE1:4909, H-A:ASP:366:OD1:3214, V-A:PRO:540:N:4884, V-A:TYR:539:CG:4872, V-A:PRO:540:CB:4885, V-A:PRO:540:CA:4883, H-A:ASP:366:OD2:3215, V-A:PRO:540:CD:4887"]

$$$$
ZINC2245888066
     RDKit          3D

 34 35  0  0  0  0  0  0  0  0999 V2000
  131.3660  132.0370   61.5540 N   0  0  0  0  0  0  0  0  0  0  0  0
  131.4310  131.9340   60.4020 C   0  0  0  0  0  0  0  0  0  0  0  0
  131.5120  131.8070   58.9560 C   0  0  0  0  0  0  0  0  0  0  0  0
  132.7530  130.8020   58.2750 S   0  0  0  0  0  0  0  0  0  0  0  0
  132.2030  131.1690   56.6790 C   0  0  0  0  0  0  0  0  0  0  0  0
  131.1150  132.0280   56.6940 C   0  0  0  0  0  0  0  0  0  0  0  0
  130.7020  132.4070   57.9830 C   0  0  0  0  0  0  0  0  0  0  0  0
  129.5370  133.3440   58.2560 C   0  0  0  0  0  0  0  0  0  0  0  0
  128.3170  132.6030   58.5430 N   0  0  0  0  0  0  0  0  0  0  0  0
  128.2190  131.1820   58.2140 C   0  0  0  0  0  0  0  0  0  0  0  0
  127.3290  130.9760   59.4360 C   0  0  0  0  0  0  0  0  0  0  0  0
  127.6530  129.7200   60.2690 C   0  0  0  0  0  0  0  0  0  0  0  0
  128.9100  129.8870   61.1420 C   0  0  0  0  0  0  0  0  0  0  0  0
  130.0440  128.9390   60.7190 C   0  0  0  0  0  0  0  0  0  0  0  0
  131.2580  129.1320   61.6350 N   0  0  0  0  0  0  0  0  0  0  0  0
  127.9750  132.2700   59.9250 C   0  0  0  0  0  0  0  0  0  0  0  0
  132.6606  130.7695   55.7620 H   0  0  0  0  0  0  0  0  0  0  0  0
  130.6188  132.3817   55.7782 H   0  0  0  0  0  0  0  0  0  0  0  0
  129.7825  133.9783   59.1205 H   0  0  0  0  0  0  0  0  0  0  0  0
  129.3674  133.9571   57.3586 H   0  0  0  0  0  0  0  0  0  0  0  0
  127.7231  130.9741   57.2544 H   0  0  0  0  0  0  0  0  0  0  0  0
  129.1250  130.5749   58.0701 H   0  0  0  0  0  0  0  0  0  0  0  0
  126.2406  130.8259   59.3826 H   0  0  0  0  0  0  0  0  0  0  0  0
  126.7967  129.5034   60.9247 H   0  0  0  0  0  0  0  0  0  0  0  0
  127.8477  128.8981   59.5643 H   0  0  0  0  0  0  0  0  0  0  0  0
  129.2654  130.9244   61.0557 H   0  0  0  0  0  0  0  0  0  0  0  0
  128.6351  129.6416   62.1784 H   0  0  0  0  0  0  0  0  0  0  0  0
  129.6949  127.8984   60.7913 H   0  0  0  0  0  0  0  0  0  0  0  0
  130.3347  129.1638   59.6822 H   0  0  0  0  0  0  0  0  0  0  0  0
  131.1560  129.9810   62.1730 H   0  0  0  0  0  0  0  0  0  0  0  0
  132.1030  129.1950   61.0850 H   0  0  0  0  0  0  0  0  0  0  0  0
  131.3420  128.3520   62.2710 H   0  0  0  0  0  0  0  0  0  0  0  0
  127.2744  132.9734   60.3988 H   0  0  0  0  0  0  0  0  0  0  0  0
  128.7486  132.2516   60.7068 H   0  0  0  0  0  0  0  0  0  0  0  0
  1  2  3  0
  2  3  1  0
  3  4  1  0
  4  5  1  0
  5  6  2  0
  6  7  1  0
  7  8  1  0
  8  9  1  0
  9 10  1  0
 10 11  1  0
 11 12  1  0
 12 13  1  0
 13 14  1  0
 14 15  1  0
 11 16  1  0
  7  3  2  0
 16  9  1  0
  5 17  1  0
  6 18  1  0
  8 19  1  0
  8 20  1  0
 10 21  1  0
 10 22  1  0
 11 23  1  0
 12 24  1  0
 12 25  1  0
 13 26  1  0
 13 27  1  0
 14 28  1  0
 14 29  1  0
 15 30  1  0
 15 31  1  0
 15 32  1  0
 16 33  1  0
 16 34  1  0
M  CHG  1  15   1
M  END
>  <Binding energies>  (1) 
[-5.65]

>  <Ligand effiencies>  (1) 
[-0.2973684210526316]

>  <Interactions>  (1) 
["V-A:TYR:539:CD1:4873, V-A:PRO:540:N:4884, V-A:LEU:363:CD1:3189, V-A:PRO:540:CB:4885, V-A:PRO:540:CA:4883, H-A:GLU:543:OE2:4910, V-A:TYR:531:CE2:4793, H-A:ALA:541:N:4891, V-A:TYR:531:CZ:4794, V-A:TYR:539:CA:4869, V-A:GLU:543:CD:4908, H-A:ASP:366:OD2:3215, V-A:TYR:539:C:4867, V-A:ASP:366:CB:3212, H-A:GLU:543:OE1:4909, V-A:ASP:366:CG:3213, H-A:ASP:366:OD1:3214"]

$$$$
ZINC224690579
     RDKit          3D

 75 77  0  0  0  0  0  0  0  0999 V2000
  126.6300  128.5280   61.7730 C   0  0  0  0  0  0  0  0  0  0  0  0
  127.2330  128.3400   60.4980 O   0  0  0  0  0  0  0  0  0  0  0  0
  127.3130  127.0690   59.9540 C   0  0  0  0  0  0  0  0  0  0  0  0
  126.4480  126.6070   58.9460 C   0  0  0  0  0  0  0  0  0  0  0  0
  126.5570  125.3100   58.4490 C   0  0  0  0  0  0  0  0  0  0  0  0
  127.5310  124.4510   58.9510 C   0  0  0  0  0  0  0  0  0  0  0  0
  127.6630  122.8420   58.3380 Cl  0  0  0  0  0  0  0  0  0  0  0  0
  128.3960  124.8910   59.9500 C   0  0  0  0  0  0  0  0  0  0  0  0
  128.3000  126.1920   60.4520 C   0  0  0  0  0  0  0  0  0  0  0  0
  129.2000  126.5750   61.4650 N   0  0  0  0  0  0  0  0  0  0  0  0
  128.9860  126.0420   62.7940 C   0  0  0  0  0  0  0  0  0  0  0  0
  129.9260  124.8630   63.1390 C   0  0  0  0  0  0  0  0  0  0  0  0
  129.9690  123.9120   62.3540 O   0  0  0  0  0  0  0  0  0  0  0  0
  130.7070  124.9190   64.2600 N   0  0  0  0  0  0  0  0  0  0  0  0
  130.2590  124.4360   65.5900 C   0  0  0  0  0  0  0  0  0  0  0  0
  129.6680  125.4690   66.5500 C   0  0  0  0  0  0  0  0  0  0  0  0
  129.6870  125.2750   67.9360 C   0  0  0  0  0  0  0  0  0  0  0  0
  129.1690  126.2500   68.7890 C   0  0  0  0  0  0  0  0  0  0  0  0
  128.6320  127.4260   68.2640 C   0  0  0  0  0  0  0  0  0  0  0  0
  128.6100  127.6240   66.8820 C   0  0  0  0  0  0  0  0  0  0  0  0
  127.8880  129.2300   66.1600 Br  0  0  0  0  0  0  0  0  0  0  0  0
  129.1230  126.6470   66.0300 C   0  0  0  0  0  0  0  0  0  0  0  0
  132.1340  125.3370   64.1620 C   0  0  1  0  0  0  0  0  0  0  0  0
  132.7650  125.4520   65.5700 C   0  0  0  0  0  0  0  0  0  0  0  0
  132.9550  124.4500   63.1890 C   0  0  0  0  0  0  0  0  0  0  0  0
  133.9250  123.8100   63.5990 O   0  0  0  0  0  0  0  0  0  0  0  0
  132.5300  124.4160   61.9120 N   0  0  0  0  0  0  0  0  0  0  0  0
  133.1260  123.6190   60.8410 C   0  0  0  0  0  0  0  0  0  0  0  0
  133.4660  122.1820   61.2860 C   0  0  0  0  0  0  0  0  0  0  0  0
  134.3550  124.3360   60.2570 C   0  0  0  0  0  0  0  0  0  0  0  0
  130.8780  126.9600   60.9660 S   0  0  0  0  0  0  0  0  0  0  0  0
  131.7030  127.0350   62.1770 O   0  0  0  0  0  0  0  0  0  0  0  0
  131.2250  126.0670   59.8540 O   0  0  0  0  0  0  0  0  0  0  0  0
  130.7520  128.6130   60.2880 C   0  0  0  0  0  0  0  0  0  0  0  0
  130.4050  128.8000   58.9510 C   0  0  0  0  0  0  0  0  0  0  0  0
  130.1940  130.0840   58.4600 C   0  0  0  0  0  0  0  0  0  0  0  0
  130.3060  131.1990   59.2990 C   0  0  0  0  0  0  0  0  0  0  0  0
  130.0870  132.5750   58.6830 C   0  0  0  0  0  0  0  0  0  0  0  0
  130.6470  131.0200   60.6590 C   0  0  0  0  0  0  0  0  0  0  0  0
  130.7410  132.1470   61.6170 N   0  0  0  0  0  0  0  0  0  0  0  0
  131.7140  132.2170   62.3590 O   0  0  0  0  0  0  0  0  0  0  0  0
  129.8510  132.9930   61.5990 O   0  0  0  0  0  0  0  0  0  0  0  0
  130.8780  129.7190   61.1290 C   0  0  0  0  0  0  0  0  0  0  0  0
  127.3618  128.2998   62.5619 H   0  0  0  0  0  0  0  0  0  0  0  0
  126.2983  129.5722   61.8714 H   0  0  0  0  0  0  0  0  0  0  0  0
  125.7637  127.8573   61.8714 H   0  0  0  0  0  0  0  0  0  0  0  0
  125.6749  127.2787   58.5445 H   0  0  0  0  0  0  0  0  0  0  0  0
  125.8732  124.9645   57.6596 H   0  0  0  0  0  0  0  0  0  0  0  0
  129.1616  124.2085   60.3475 H   0  0  0  0  0  0  0  0  0  0  0  0
  129.1535  126.8473   63.5243 H   0  0  0  0  0  0  0  0  0  0  0  0
  127.9557  125.6583   62.8292 H   0  0  0  0  0  0  0  0  0  0  0  0
  129.4920  123.6660   65.4205 H   0  0  0  0  0  0  0  0  0  0  0  0
  131.1757  124.0831   66.0851 H   0  0  0  0  0  0  0  0  0  0  0  0
  130.1118  124.3506   68.3542 H   0  0  0  0  0  0  0  0  0  0  0  0
  129.1840  126.0913   69.8774 H   0  0  0  0  0  0  0  0  0  0  0  0
  128.2268  128.1955   68.9375 H   0  0  0  0  0  0  0  0  0  0  0  0
  129.0989  126.8039   64.9415 H   0  0  0  0  0  0  0  0  0  0  0  0
  132.1606  126.3405   63.7121 H   0  0  0  0  0  0  0  0  0  0  0  0
  131.9860  125.3100   66.3336 H   0  0  0  0  0  0  0  0  0  0  0  0
  133.5398  124.6803   65.6887 H   0  0  0  0  0  0  0  0  0  0  0  0
  133.2177  126.4475   65.6887 H   0  0  0  0  0  0  0  0  0  0  0  0
  131.7170  124.9620   61.6610 H   0  0  0  0  0  0  0  0  0  0  0  0
  132.3698  123.5207   60.0483 H   0  0  0  0  0  0  0  0  0  0  0  0
  133.4779  122.1316   62.3848 H   0  0  0  0  0  0  0  0  0  0  0  0
  132.7073  121.4880   60.8953 H   0  0  0  0  0  0  0  0  0  0  0  0
  134.4553  121.9016   60.8953 H   0  0  0  0  0  0  0  0  0  0  0  0
  134.9881  124.7054   61.0772 H   0  0  0  0  0  0  0  0  0  0  0  0
  134.9305  123.6319   59.6381 H   0  0  0  0  0  0  0  0  0  0  0  0
  134.0253  125.1835   59.6381 H   0  0  0  0  0  0  0  0  0  0  0  0
  130.2980  127.9318   58.2841 H   0  0  0  0  0  0  0  0  0  0  0  0
  129.9361  130.2251   57.4000 H   0  0  0  0  0  0  0  0  0  0  0  0
  129.9684  133.3203   59.4833 H   0  0  0  0  0  0  0  0  0  0  0  0
  130.9542  132.8403   58.0605 H   0  0  0  0  0  0  0  0  0  0  0  0
  129.1803  132.5579   58.0605 H   0  0  0  0  0  0  0  0  0  0  0  0
  131.1639  129.5678   62.1804 H   0  0  0  0  0  0  0  0  0  0  0  0
  1  2  1  0
  2  3  1  0
  3  4  2  0
  4  5  1  0
  5  6  2  0
  6  7  1  0
  6  8  1  0
  8  9  2  0
  9 10  1  0
 10 11  1  0
 11 12  1  0
 12 13  2  0
 12 14  1  0
 14 15  1  0
 15 16  1  0
 16 17  2  0
 17 18  1  0
 18 19  2  0
 19 20  1  0
 20 21  1  0
 20 22  2  0
 14 23  1  0
 23 24  1  0
 23 25  1  0
 25 26  2  0
 25 27  1  0
 27 28  1  0
 28 29  1  0
 28 30  1  0
 10 31  1  0
 31 32  2  0
 31 33  2  0
 31 34  1  0
 34 35  2  0
 35 36  1  0
 36 37  2  0
 37 38  1  0
 37 39  1  0
 39 40  1  0
 40 41  2  0
 40 42  1  0
 39 43  2  0
  9  3  1  0
 22 16  1  0
 43 34  1  0
  1 44  1  0
  1 45  1  0
  1 46  1  0
  4 47  1  0
  5 48  1  0
  8 49  1  0
 11 50  1  0
 11 51  1  0
 15 52  1  0
 15 53  1  0
 17 54  1  0
 18 55  1  0
 19 56  1  0
 22 57  1  0
 23 58  1  6
 24 59  1  0
 24 60  1  0
 24 61  1  0
 27 62  1  0
 28 63  1  0
 29 64  1  0
 29 65  1  0
 29 66  1  0
 30 67  1  0
 30 68  1  0
 30 69  1  0
 35 70  1  0
 36 71  1  0
 38 72  1  0
 38 73  1  0
 38 74  1  0
 43 75  1  0
M  CHG  2  40   1  42  -1
M  END
>  <Binding energies>  (1) 
[-8.79]

>  <Ligand effiencies>  (1) 
[-0.19977272727272724]

>  <Interactions>  (1) 
["V-A:ILE:369:CG2:3237, V-A:ASP:366:CA:3210, V-B:PRO:540:CA:9855, V-B:GLU:543:C:9874, V-A:ILE:369:CB:3236, H-A:ALA:541:N:4891, V-A:PRO:540:C:4881, V-B:GLU:543:CB:9878, V-B:ASP:366:CG:8184, V-B:TYR:539:CE2:9848, V-A:TYR:484:CE2:4346, V-B:GLU:543:CG:9879, V-B:TYR:539:C:9839, V-A:ASP:366:CG:3213, V-A:TYR:484:CZ:4347, V-A:GLU:543:CD:4908, V-B:GLU:543:CA:9876, H-A:GLY:454:N:4050, V-B:HIS:456:CE1:9041, V-B:PRO:540:N:9856, V-A:HIS:456:CE1:4070, V-A:ILE:369:CD1:3239, V-B:TYR:539:CD2:9846, V-A:GLU:543:CG:4907, V-B:GLU:543:CD:9880, V-A:TYR:539:C:4867, V-A:ASP:366:CB:3212, V-A:ARG:545:CD:4923, V-A:LEU:475:CD2:4259, H-A:ARG:545:NH2:4928, V-A:ARG:545:CZ:4926, V-A:GLU:543:CB:4906, V-A:PRO:540:N:4884, V-A:PRO:540:CB:4885, V-A:PRO:540:CA:4883"]

$$$$
ZINC2247425
     RDKit          3D

 51 56  0  0  0  0  0  0  0  0999 V2000
  133.1400  121.4640   61.0340 C   0  0  0  0  0  0  0  0  0  0  0  0
  133.9490  122.1930   62.4910 S   0  0  0  0  0  0  0  0  0  0  0  0
  132.7290  123.3660   62.9980 C   0  0  0  0  0  0  0  0  0  0  0  0
  132.5740  123.7730   64.2530 N   0  0  0  0  0  0  0  0  0  0  0  0
  131.5810  124.6200   64.1740 C   0  0  0  0  0  0  0  0  0  0  0  0
  131.1460  124.6940   62.8760 N   0  0  0  0  0  0  0  0  0  0  0  0
  131.8960  123.8870   62.1190 N   0  0  0  0  0  0  0  0  0  0  0  0
  130.0280  125.5300   62.4130 C   0  0  1  0  0  0  0  0  0  0  0  0
  129.0980  124.7880   61.4450 C   0  0  0  0  0  0  0  0  0  0  0  0
  129.2600  124.9290   60.0630 C   0  0  0  0  0  0  0  0  0  0  0  0
  128.4020  124.2700   59.1880 C   0  0  0  0  0  0  0  0  0  0  0  0
  127.3840  123.4650   59.6920 C   0  0  0  0  0  0  0  0  0  0  0  0
  126.5500  122.8260   58.8420 F   0  0  0  0  0  0  0  0  0  0  0  0
  127.2190  123.3110   61.0670 C   0  0  0  0  0  0  0  0  0  0  0  0
  128.0750  123.9720   61.9430 C   0  0  0  0  0  0  0  0  0  0  0  0
  129.2570  126.1930   63.6350 C   0  0  1  0  0  0  0  0  0  0  0  0
  129.9760  126.0410   64.9950 C   0  0  0  0  0  0  0  0  0  0  0  0
  131.0190  125.3260   65.1910 N   0  0  0  0  0  0  0  0  0  0  0  0
  129.3560  126.7730   66.1050 C   0  0  0  0  0  0  0  0  0  0  0  0
  129.4860  126.3630   67.4430 C   0  0  0  0  0  0  0  0  0  0  0  0
  128.9160  127.1120   68.4720 C   0  0  0  0  0  0  0  0  0  0  0  0
  129.1040  126.6060   70.1120 Cl  0  0  0  0  0  0  0  0  0  0  0  0
  128.1950  128.2690   68.1790 C   0  0  0  0  0  0  0  0  0  0  0  0
  128.0300  128.6700   66.8540 C   0  0  0  0  0  0  0  0  0  0  0  0
  128.6010  127.9240   65.8220 C   0  0  0  0  0  0  0  0  0  0  0  0
  128.2640  128.3240   64.5420 O   0  0  0  0  0  0  0  0  0  0  0  0
  128.9820  127.7230   63.4510 C   0  0  2  0  0  0  0  0  0  0  0  0
  128.2550  128.0510   62.1480 C   0  0  0  0  0  0  0  0  0  0  0  0
  126.8620  127.9460   62.0680 C   0  0  0  0  0  0  0  0  0  0  0  0
  126.2060  128.2700   60.8830 C   0  0  0  0  0  0  0  0  0  0  0  0
  126.9410  128.6960   59.7790 C   0  0  0  0  0  0  0  0  0  0  0  0
  126.1260  129.1080   58.3150 Cl  0  0  0  0  0  0  0  0  0  0  0  0
  128.3300  128.7950   59.8480 C   0  0  0  0  0  0  0  0  0  0  0  0
  128.9870  128.4690   61.0320 C   0  0  0  0  0  0  0  0  0  0  0  0
  132.3598  120.7610   61.3612 H   0  0  0  0  0  0  0  0  0  0  0  0
  132.6842  122.2623   60.4299 H   0  0  0  0  0  0  0  0  0  0  0  0
  133.8867  120.9279   60.4299 H   0  0  0  0  0  0  0  0  0  0  0  0
  130.4580  126.3547   61.8256 H   0  0  0  0  0  0  0  0  0  0  0  0
  130.0675  125.5623   59.6669 H   0  0  0  0  0  0  0  0  0  0  0  0
  128.5276  124.3847   58.1012 H   0  0  0  0  0  0  0  0  0  0  0  0
  126.4156  122.6697   61.4585 H   0  0  0  0  0  0  0  0  0  0  0  0
  127.9475  123.8531   63.0291 H   0  0  0  0  0  0  0  0  0  0  0  0
  128.3124  125.6294   63.6429 H   0  0  0  0  0  0  0  0  0  0  0  0
  130.0418  125.4439   67.6805 H   0  0  0  0  0  0  0  0  0  0  0  0
  127.7566  128.8651   68.9929 H   0  0  0  0  0  0  0  0  0  0  0  0
  127.4494  129.5750   66.6219 H   0  0  0  0  0  0  0  0  0  0  0  0
  129.9918  128.1583   63.4213 H   0  0  0  0  0  0  0  0  0  0  0  0
  126.2850  127.6075   62.9412 H   0  0  0  0  0  0  0  0  0  0  0  0
  125.1108  128.1898   60.8190 H   0  0  0  0  0  0  0  0  0  0  0  0
  128.9043  129.1291   58.9713 H   0  0  0  0  0  0  0  0  0  0  0  0
  130.0832  128.5404   61.0895 H   0  0  0  0  0  0  0  0  0  0  0  0
  1  2  1  0
  2  3  1  0
  3  4  1  0
  4  5  2  0
  5  6  1  0
  6  7  1  0
  6  8  1  0
  8  9  1  0
  9 10  2  0
 10 11  1  0
 11 12  2  0
 12 13  1  0
 12 14  1  0
 14 15  2  0
  8 16  1  0
 16 17  1  0
 17 18  2  0
 17 19  1  0
 19 20  2  0
 20 21  1  0
 21 22  1  0
 21 23  2  0
 23 24  1  0
 24 25  2  0
 25 26  1  0
 26 27  1  0
 27 28  1  0
 28 29  2  0
 29 30  1  0
 30 31  2  0
 31 32  1  0
 31 33  1  0
 33 34  2  0
  7  3  2  0
 15  9  1  0
 27 16  1  0
 34 28  1  0
 18  5  1  0
 25 19  1  0
  1 35  1  0
  1 36  1  0
  1 37  1  0
  8 38  1  6
 10 39  1  0
 11 40  1  0
 14 41  1  0
 15 42  1  0
 16 43  1  1
 20 44  1  0
 23 45  1  0
 24 46  1  0
 27 47  1  6
 29 48  1  0
 30 49  1  0
 33 50  1  0
 34 51  1  0
M  END
>  <Binding energies>  (1) 
[-6.88]

>  <Ligand effiencies>  (1) 
[-0.2023529411764706]

>  <Interactions>  (1) 
["V-A:ILE:369:CG2:3237, V-B:PRO:540:CA:9855, V-B:GLU:543:C:9874, V-B:GLU:543:CB:9878, V-B:ASP:366:CG:8184, V-B:GLU:543:CG:9879, V-B:TYR:539:C:9839, V-A:GLU:543:CD:4908, V-B:PRO:540:CB:9857, V-B:HIS:456:CE1:9041, H-A:GLY:454:N:4050, V-B:PRO:540:N:9856, V-A:HIS:456:CE1:4070, V-B:PRO:540:CD:9859, V-A:GLU:543:CG:4907, V-B:GLU:543:CD:9880, V-A:LEU:475:CD2:4259, V-A:GLU:543:CB:4906, H-A:TYR:484:OH:4348"]

$$$$
ZINC2247549
     RDKit          3D

 47 52  0  0  0  0  0  0  0  0999 V2000
  134.3800  120.5900   60.8140 F   0  0  0  0  0  0  0  0  0  0  0  0
  133.2400  121.3160   60.8570 C   0  0  0  0  0  0  0  0  0  0  0  0
  132.0080  120.6660   60.8830 C   0  0  0  0  0  0  0  0  0  0  0  0
  130.8340  121.4120   60.9290 C   0  0  0  0  0  0  0  0  0  0  0  0
  130.8920  122.8090   60.9560 C   0  0  0  0  0  0  0  0  0  0  0  0
  129.6030  123.6280   61.0200 C   0  0  2  0  0  0  0  0  0  0  0  0
  128.5230  122.9630   60.3330 O   0  0  0  0  0  0  0  0  0  0  0  0
  128.2590  123.3240   59.0250 C   0  0  0  0  0  0  0  0  0  0  0  0
  127.6090  122.3760   58.2350 C   0  0  0  0  0  0  0  0  0  0  0  0
  127.2560  122.6940   56.9240 C   0  0  0  0  0  0  0  0  0  0  0  0
  127.5450  123.9580   56.4120 C   0  0  0  0  0  0  0  0  0  0  0  0
  128.1900  124.9060   57.2070 C   0  0  0  0  0  0  0  0  0  0  0  0
  128.5550  124.6020   58.5300 C   0  0  0  0  0  0  0  0  0  0  0  0
  129.2830  125.5400   59.4170 C   0  0  0  0  0  0  0  0  0  0  0  0
  129.7810  125.0980   60.6060 C   0  0  0  0  0  0  0  0  0  0  0  0
  130.6270  126.0780   61.4520 C   0  0  2  0  0  0  0  0  0  0  0  0
  130.4960  125.8810   62.9630 C   0  0  0  0  0  0  0  0  0  0  0  0
  131.4290  125.0870   63.6430 C   0  0  0  0  0  0  0  0  0  0  0  0
  131.3190  124.8910   65.0200 C   0  0  0  0  0  0  0  0  0  0  0  0
  130.2770  125.4880   65.7290 C   0  0  0  0  0  0  0  0  0  0  0  0
  129.3450  126.2810   65.0600 C   0  0  0  0  0  0  0  0  0  0  0  0
  129.4510  126.4770   63.6830 C   0  0  0  0  0  0  0  0  0  0  0  0
  128.5320  127.2450   63.0500 F   0  0  0  0  0  0  0  0  0  0  0  0
  130.4130  127.4670   61.0150 N   0  0  0  0  0  0  0  0  0  0  0  0
  131.3430  128.4740   61.3230 N   0  0  0  0  0  0  0  0  0  0  0  0
  131.1640  129.4000   60.2650 C   0  0  0  0  0  0  0  0  0  0  0  0
  130.4640  128.9660   59.2910 N   0  0  0  0  0  0  0  0  0  0  0  0
  130.0660  127.6980   59.6610 C   0  0  0  0  0  0  0  0  0  0  0  0
  129.4990  126.8070   58.9310 N   0  0  0  0  0  0  0  0  0  0  0  0
  132.1330  123.4530   60.9250 C   0  0  0  0  0  0  0  0  0  0  0  0
  133.3070  122.7070   60.8780 C   0  0  0  0  0  0  0  0  0  0  0  0
  131.9633  119.5670   60.8672 H   0  0  0  0  0  0  0  0  0  0  0  0
  129.8594  120.9022   60.9441 H   0  0  0  0  0  0  0  0  0  0  0  0
  129.3195  123.6829   62.0814 H   0  0  0  0  0  0  0  0  0  0  0  0
  127.3759  121.3819   58.6443 H   0  0  0  0  0  0  0  0  0  0  0  0
  126.7497  121.9478   56.2941 H   0  0  0  0  0  0  0  0  0  0  0  0
  127.2638  124.2087   55.3785 H   0  0  0  0  0  0  0  0  0  0  0  0
  128.4150  125.9006   56.7946 H   0  0  0  0  0  0  0  0  0  0  0  0
  131.6813  125.8323   61.2569 H   0  0  0  0  0  0  0  0  0  0  0  0
  132.2532  124.6153   63.0878 H   0  0  0  0  0  0  0  0  0  0  0  0
  132.0546  124.2652   65.5467 H   0  0  0  0  0  0  0  0  0  0  0  0
  130.1903  125.3336   66.8147 H   0  0  0  0  0  0  0  0  0  0  0  0
  128.5241  126.7532   65.6197 H   0  0  0  0  0  0  0  0  0  0  0  0
  131.2260  128.7140   62.2980 H   0  0  0  0  0  0  0  0  0  0  0  0
  131.5944  130.4122   60.2824 H   0  0  0  0  0  0  0  0  0  0  0  0
  132.1814  124.5519   60.9378 H   0  0  0  0  0  0  0  0  0  0  0  0
  134.2832  123.2136   60.8575 H   0  0  0  0  0  0  0  0  0  0  0  0
  1  2  1  0
  2  3  2  0
  3  4  1  0
  4  5  2  0
  5  6  1  0
  6  7  1  0
  7  8  1  0
  8  9  2  0
  9 10  1  0
 10 11  2  0
 11 12  1  0
 12 13  2  0
 13 14  1  0
 14 15  2  0
 15 16  1  0
 16 17  1  0
 17 18  2  0
 18 19  1  0
 19 20  2  0
 20 21  1  0
 21 22  2  0
 22 23  1  0
 16 24  1  0
 24 25  1  0
 25 26  1  0
 26 27  2  0
 27 28  1  0
 28 29  2  0
  5 30  1  0
 30 31  2  0
 31  2  1  0
 15  6  1  0
 22 17  1  0
 28 24  1  0
 13  8  1  0
 29 14  1  0
  3 32  1  0
  4 33  1  0
  6 34  1  1
  9 35  1  0
 10 36  1  0
 11 37  1  0
 12 38  1  0
 16 39  1  6
 18 40  1  0
 19 41  1  0
 20 42  1  0
 21 43  1  0
 25 44  1  0
 26 45  1  0
 30 46  1  0
 31 47  1  0
M  END
>  <Binding energies>  (1) 
[-6.74]

>  <Ligand effiencies>  (1) 
[-0.210625]

>  <Interactions>  (1) 
["V-A:ILE:369:CG2:3237, V-B:PRO:540:CA:9855, H-A:GLU:543:OE2:4910, V-A:ILE:369:CB:3236, V-B:TYR:539:CE2:9848, V-B:GLU:543:CG:9879, V-B:TYR:539:C:9839, V-A:ASP:366:CG:3213, V-B:TYR:539:CZ:9849, V-A:GLU:543:CD:4908, V-B:PRO:540:CB:9857, V-A:SER:385:C:3405, V-B:PRO:540:N:9856, V-A:ILE:369:CD1:3239, V-B:TYR:539:CD2:9846, V-A:SER:385:CB:3409, V-B:GLU:543:CD:9880, V-A:LEU:475:CD2:4259, H-A:GLU:543:OE1:4909, V-B:TYR:539:CG:9844, V-B:TYR:539:CD1:9845, V-A:SER:385:CA:3407, H-A:ASP:366:OD2:3215, V-B:TYR:539:CE1:9847"]

$$$$
ZINC224764978
     RDKit          3D

 45 46  0  0  0  0  0  0  0  0999 V2000
  129.3510  122.0300   61.4730 C   0  0  0  0  0  0  0  0  0  0  0  0
  130.4160  122.4420   62.1780 C   0  0  0  0  0  0  0  0  0  0  0  0
  130.4590  122.5600   63.6880 C   0  0  0  0  0  0  0  0  0  0  0  0
  131.2930  123.6380   64.2110 N   0  0  0  0  0  0  0  0  0  0  0  0
  130.6660  124.6280   64.9860 C   0  0  0  0  0  0  0  0  0  0  0  0
  131.0620  124.7720   66.3190 C   0  0  0  0  0  0  0  0  0  0  0  0
  130.4860  125.7480   67.1300 C   0  0  0  0  0  0  0  0  0  0  0  0
  129.5070  126.5990   66.6140 C   0  0  0  0  0  0  0  0  0  0  0  0
  128.8720  127.6530   67.5020 C   0  0  0  0  0  0  0  0  0  0  0  0
  129.1030  126.4570   65.2860 C   0  0  0  0  0  0  0  0  0  0  0  0
  129.6760  125.4820   64.4620 C   0  0  0  0  0  0  0  0  0  0  0  0
  129.1810  125.3550   63.0260 C   0  0  0  0  0  0  0  0  0  0  0  0
  132.9130  123.8800   63.5090 S   0  0  0  0  0  0  0  0  0  0  0  0
  133.6630  124.7330   64.4390 O   0  0  0  0  0  0  0  0  0  0  0  0
  133.4180  122.5590   63.1150 O   0  0  0  0  0  0  0  0  0  0  0  0
  132.6230  124.8150   62.0120 C   0  0  0  0  0  0  0  0  0  0  0  0
  131.8790  125.9930   62.0430 C   0  0  0  0  0  0  0  0  0  0  0  0
  131.6170  126.6780   60.8590 C   0  0  0  0  0  0  0  0  0  0  0  0
  132.0850  126.1970   59.6320 C   0  0  0  0  0  0  0  0  0  0  0  0
  131.7100  126.9710   58.3750 C   0  0  0  0  0  0  0  0  0  0  0  0
  132.8380  125.0010   59.5910 C   0  0  0  0  0  0  0  0  0  0  0  0
  133.3730  124.4310   58.3300 N   0  0  0  0  0  0  0  0  0  0  0  0
  133.6020  123.2270   58.2690 O   0  0  0  0  0  0  0  0  0  0  0  0
  133.5350  125.1890   57.3780 O   0  0  0  0  0  0  0  0  0  0  0  0
  133.0870  124.3200   60.7930 C   0  0  0  0  0  0  0  0  0  0  0  0
  129.4060  121.9737   60.3758 H   0  0  0  0  0  0  0  0  0  0  0  0
  128.4230  121.7486   61.9923 H   0  0  0  0  0  0  0  0  0  0  0  0
  131.3236  122.7138   61.6191 H   0  0  0  0  0  0  0  0  0  0  0  0
  129.4313  122.7233   64.0445 H   0  0  0  0  0  0  0  0  0  0  0  0
  130.9112  121.6253   64.0510 H   0  0  0  0  0  0  0  0  0  0  0  0
  131.8360  124.1083   66.7318 H   0  0  0  0  0  0  0  0  0  0  0  0
  130.8033  125.8480   68.1785 H   0  0  0  0  0  0  0  0  0  0  0  0
  129.0318  127.3878   68.5575 H   0  0  0  0  0  0  0  0  0  0  0  0
  129.3313  128.6311   67.2961 H   0  0  0  0  0  0  0  0  0  0  0  0
  127.7927  127.7041   67.2961 H   0  0  0  0  0  0  0  0  0  0  0  0
  128.3240  127.1201   64.8816 H   0  0  0  0  0  0  0  0  0  0  0  0
  128.1155  125.0816   63.0283 H   0  0  0  0  0  0  0  0  0  0  0  0
  129.3119  126.3158   62.5067 H   0  0  0  0  0  0  0  0  0  0  0  0
  129.7583  124.5759   62.5067 H   0  0  0  0  0  0  0  0  0  0  0  0
  131.4997  126.3807   63.0000 H   0  0  0  0  0  0  0  0  0  0  0  0
  131.0339  127.6102   60.8894 H   0  0  0  0  0  0  0  0  0  0  0  0
  131.2465  127.9276   58.6580 H   0  0  0  0  0  0  0  0  0  0  0  0
  132.6146  127.1638   57.7796 H   0  0  0  0  0  0  0  0  0  0  0  0
  130.9980  126.3806   57.7796 H   0  0  0  0  0  0  0  0  0  0  0  0
  133.6578  123.3799   60.7734 H   0  0  0  0  0  0  0  0  0  0  0  0
  1  2  2  0
  2  3  1  0
  3  4  1  0
  4  5  1  0
  5  6  2  0
  6  7  1  0
  7  8  2  0
  8  9  1  0
  8 10  1  0
 10 11  2  0
 11 12  1  0
  4 13  1  0
 13 14  2  0
 13 15  2  0
 13 16  1  0
 16 17  2  0
 17 18  1  0
 18 19  2  0
 19 20  1  0
 19 21  1  0
 21 22  1  0
 22 23  2  0
 22 24  1  0
 21 25  2  0
 11  5  1  0
 25 16  1  0
  1 26  1  0
  1 27  1  0
  2 28  1  0
  3 29  1  0
  3 30  1  0
  6 31  1  0
  7 32  1  0
  9 33  1  0
  9 34  1  0
  9 35  1  0
 10 36  1  0
 12 37  1  0
 12 38  1  0
 12 39  1  0
 17 40  1  0
 18 41  1  0
 20 42  1  0
 20 43  1  0
 20 44  1  0
 25 45  1  0
M  CHG  2  22   1  24  -1
M  END
>  <Binding energies>  (1) 
[-7.13]

>  <Ligand effiencies>  (1) 
[-0.2852]

>  <Interactions>  (1) 
["V-A:ILE:369:CG2:3237, V-A:ASP:366:CA:3210, V-B:GLU:543:CB:9878, V-B:ALA:541:CB:9864, V-B:TYR:539:CE2:9848, V-A:TYR:484:CE2:4346, V-B:GLU:543:CG:9879, V-A:ASP:366:CG:3213, V-B:TYR:539:CZ:9849, H-B:TYR:539:OH:9850, V-A:TYR:484:CZ:4347, V-A:GLU:543:CD:4908, H-A:GLY:454:N:4050, V-A:HIS:456:CE1:4070, V-A:ASP:366:C:3208, V-B:GLU:543:CD:9880, V-A:ASP:366:CB:3212, V-A:LEU:475:CD2:4259, H-A:ARG:545:NH2:4928, V-A:GLU:543:CB:4906, H-A:ARG:545:NE:4924, H-A:TYR:484:OH:4348"]

$$$$
ZINC224906773
     RDKit          3D

 52 56  0  0  0  0  0  0  0  0999 V2000
  128.1710  128.8280   67.5510 C   0  0  0  0  0  0  0  0  0  0  0  0
  128.3580  128.3070   66.1360 C   0  0  0  0  0  0  0  0  0  0  0  0
  128.9940  127.0800   65.9220 C   0  0  0  0  0  0  0  0  0  0  0  0
  129.1780  126.5820   64.6230 C   0  0  0  0  0  0  0  0  0  0  0  0
  129.8460  125.3500   64.4090 N   0  0  0  0  0  0  0  0  0  0  0  0
  130.8780  124.8360   65.1730 C   0  0  0  0  0  0  0  0  0  0  0  0
  131.7460  125.4720   66.4470 S   0  0  0  0  0  0  0  0  0  0  0  0
  131.0630  123.5920   64.6500 N   0  0  0  0  0  0  0  0  0  0  0  0
  130.0450  123.2060   63.7020 C   0  0  2  0  0  0  0  0  0  0  0  0
  130.4400  122.1220   62.6950 C   0  0  0  0  0  0  0  0  0  0  0  0
  131.7040  122.1540   62.0960 C   0  0  0  0  0  0  0  0  0  0  0  0
  132.0350  121.1620   61.1710 C   0  0  0  0  0  0  0  0  0  0  0  0
  131.1030  120.1700   60.8630 C   0  0  0  0  0  0  0  0  0  0  0  0
  129.8570  120.2100   61.4920 C   0  0  0  0  0  0  0  0  0  0  0  0
  129.5150  121.1680   62.3890 N   0  0  0  0  0  0  0  0  0  0  0  0
  129.7370  124.5900   63.1560 C   0  0  2  0  0  0  0  0  0  0  0  0
  130.6430  125.0720   62.0030 C   0  0  0  0  0  0  0  0  0  0  0  0
  131.9270  125.6160   62.0410 C   0  0  0  0  0  0  0  0  0  0  0  0
  132.3640  125.8560   60.7430 C   0  0  0  0  0  0  0  0  0  0  0  0
  131.3370  125.4650   59.9100 C   0  0  0  0  0  0  0  0  0  0  0  0
  130.2760  125.0070   60.6620 N   0  0  0  0  0  0  0  0  0  0  0  0
  129.0620  124.5490   60.1100 C   0  0  0  0  0  0  0  0  0  0  0  0
  127.9140  125.3460   60.1720 C   0  0  0  0  0  0  0  0  0  0  0  0
  126.7220  124.8810   59.6220 C   0  0  0  0  0  0  0  0  0  0  0  0
  126.6840  123.6320   59.0050 C   0  0  0  0  0  0  0  0  0  0  0  0
  125.5250  123.1830   58.4740 F   0  0  0  0  0  0  0  0  0  0  0  0
  127.8310  122.8440   58.9260 C   0  0  0  0  0  0  0  0  0  0  0  0
  129.0250  123.3040   59.4740 C   0  0  0  0  0  0  0  0  0  0  0  0
  128.7390  127.3540   63.5360 C   0  0  0  0  0  0  0  0  0  0  0  0
  128.1080  128.5790   63.7460 C   0  0  0  0  0  0  0  0  0  0  0  0
  127.9150  129.0560   65.0410 C   0  0  0  0  0  0  0  0  0  0  0  0
  127.3010  130.2470   65.2290 F   0  0  0  0  0  0  0  0  0  0  0  0
  128.4522  128.0447   68.2703 H   0  0  0  0  0  0  0  0  0  0  0  0
  128.8081  129.7117   67.7036 H   0  0  0  0  0  0  0  0  0  0  0  0
  127.1174  129.1048   67.7036 H   0  0  0  0  0  0  0  0  0  0  0  0
  129.3546  126.4979   66.7829 H   0  0  0  0  0  0  0  0  0  0  0  0
  131.7250  122.9510   65.0640 H   0  0  0  0  0  0  0  0  0  0  0  0
  129.1773  122.6692   64.1131 H   0  0  0  0  0  0  0  0  0  0  0  0
  132.4238  122.9463   62.3492 H   0  0  0  0  0  0  0  0  0  0  0  0
  133.0235  121.1623   60.6884 H   0  0  0  0  0  0  0  0  0  0  0  0
  131.3443  119.3753   60.1417 H   0  0  0  0  0  0  0  0  0  0  0  0
  129.1203  119.4301   61.2493 H   0  0  0  0  0  0  0  0  0  0  0  0
  128.7718  124.6810   62.6364 H   0  0  0  0  0  0  0  0  0  0  0  0
  132.5035  125.8227   62.9547 H   0  0  0  0  0  0  0  0  0  0  0  0
  133.3354  126.2744   60.4408 H   0  0  0  0  0  0  0  0  0  0  0  0
  131.3607  125.5115   58.8112 H   0  0  0  0  0  0  0  0  0  0  0  0
  127.9526  126.3347   60.6526 H   0  0  0  0  0  0  0  0  0  0  0  0
  125.8128  125.4980   59.6745 H   0  0  0  0  0  0  0  0  0  0  0  0
  127.7928  121.8618   58.4322 H   0  0  0  0  0  0  0  0  0  0  0  0
  129.9358  122.6908   59.4071 H   0  0  0  0  0  0  0  0  0  0  0  0
  128.8942  126.9892   62.5099 H   0  0  0  0  0  0  0  0  0  0  0  0
  127.7612  129.1713   62.8864 H   0  0  0  0  0  0  0  0  0  0  0  0
  1  2  1  0
  2  3  2  0
  3  4  1  0
  4  5  1  0
  5  6  1  0
  6  7  2  0
  6  8  1  0
  8  9  1  0
  9 10  1  0
 10 11  2  0
 11 12  1  0
 12 13  2  0
 13 14  1  0
 14 15  2  0
  9 16  1  0
 16 17  1  0
 17 18  2  0
 18 19  1  0
 19 20  2  0
 20 21  1  0
 21 22  1  0
 22 23  2  0
 23 24  1  0
 24 25  2  0
 25 26  1  0
 25 27  1  0
 27 28  2  0
  4 29  2  0
 29 30  1  0
 30 31  2  0
 31 32  1  0
 31  2  1  0
 16  5  1  0
 21 17  1  0
 28 22  1  0
 15 10  1  0
  1 33  1  0
  1 34  1  0
  1 35  1  0
  3 36  1  0
  8 37  1  0
  9 38  1  1
 11 39  1  0
 12 40  1  0
 13 41  1  0
 14 42  1  0
 16 43  1  6
 18 44  1  0
 19 45  1  0
 20 46  1  0
 23 47  1  0
 24 48  1  0
 27 49  1  0
 28 50  1  0
 29 51  1  0
 30 52  1  0
M  END
>  <Binding energies>  (1) 
[-6.61]

>  <Ligand effiencies>  (1) 
[-0.20030303030303032]

>  <Interactions>  (1) 
["V-B:PRO:540:CA:9855, V-B:GLU:543:CB:9878, V-B:ALA:541:CB:9864, V-B:TYR:539:CE2:9848, V-A:TYR:484:CE2:4346, V-B:GLU:543:CG:9879, V-B:TYR:539:C:9839, V-A:ASP:366:CG:3213, V-B:TYR:484:CE2:9317, H-B:ALA:541:N:9863, V-A:TYR:484:CZ:4347, V-A:GLU:543:CD:4908, V-B:PRO:540:CB:9857, V-B:HIS:456:CE1:9041, V-B:PRO:540:N:9856, V-A:HIS:456:CE1:4070, V-B:TYR:484:CZ:9318, V-B:TYR:539:CD2:9846, V-A:GLU:543:CG:4907, V-B:PRO:540:CD:9859, V-B:GLU:543:CD:9880, V-A:ASP:366:CB:3212, V-A:LEU:475:CD2:4259, V-A:GLU:543:CB:4906, V-B:PRO:540:CG:9858, H-A:TYR:484:OH:4348"]

$$$$
ZINC2249848596
     RDKit          3D

 42 43  0  0  0  0  0  0  0  0999 V2000
  129.8800  120.5670   61.2870 C   0  0  0  0  0  0  0  0  0  0  0  0
  130.2370  121.7000   61.0050 C   0  0  0  0  0  0  0  0  0  0  0  0
  130.6440  123.0790   60.6680 C   0  0  0  0  0  0  0  0  0  0  0  0
  132.0810  123.3300   60.9210 N   0  0  0  0  0  0  0  0  0  0  0  0
  132.6390  124.4080   60.0620 C   0  0  2  0  0  0  0  0  0  0  0  0
  131.6970  125.0250   59.0320 C   0  0  0  0  0  0  0  0  0  0  0  0
  132.6350  125.5700   57.9690 C   0  0  0  0  0  0  0  0  0  0  0  0
  133.6080  124.5450   57.8720 O   0  0  0  0  0  0  0  0  0  0  0  0
  133.8380  123.9950   59.1680 C   0  0  0  0  0  0  0  0  0  0  0  0
  132.3380  123.6100   62.3620 C   0  0  1  0  0  0  0  0  0  0  0  0
  133.7790  124.0010   62.7950 C   0  0  0  0  0  0  0  0  0  0  0  0
  133.6070  124.9090   64.0200 C   0  0  0  0  0  0  0  0  0  0  0  0
  132.1420  124.7750   64.4410 C   0  0  0  0  0  0  0  0  0  0  0  0
  131.3380  124.5270   63.1440 C   0  0  2  0  0  0  0  0  0  0  0  0
  130.0240  123.7670   63.4850 C   0  0  0  0  0  0  0  0  0  0  0  0
  131.0260  125.9250   62.5060 C   0  0  0  0  0  0  0  0  0  0  0  0
  130.4970  126.9710   63.5010 N   0  0  0  0  0  0  0  0  0  0  0  0
  129.5584  119.5462   61.5411 H   0  0  0  0  0  0  0  0  0  0  0  0
  130.4385  123.2557   59.6019 H   0  0  0  0  0  0  0  0  0  0  0  0
  130.0697  123.7611   61.3122 H   0  0  0  0  0  0  0  0  0  0  0  0
  132.9018  125.1097   60.8673 H   0  0  0  0  0  0  0  0  0  0  0  0
  131.0248  124.2638   58.6093 H   0  0  0  0  0  0  0  0  0  0  0  0
  131.0429  125.7983   59.4611 H   0  0  0  0  0  0  0  0  0  0  0  0
  132.1119  125.7148   57.0122 H   0  0  0  0  0  0  0  0  0  0  0  0
  133.0562  126.5557   58.2161 H   0  0  0  0  0  0  0  0  0  0  0  0
  133.9017  122.8986   59.1061 H   0  0  0  0  0  0  0  0  0  0  0  0
  134.7841  124.3676   59.5876 H   0  0  0  0  0  0  0  0  0  0  0  0
  132.1522  122.5691   62.6651 H   0  0  0  0  0  0  0  0  0  0  0  0
  134.3576  123.1037   63.0598 H   0  0  0  0  0  0  0  0  0  0  0  0
  134.3251  124.5072   61.9854 H   0  0  0  0  0  0  0  0  0  0  0  0
  134.2703  124.5821   64.8344 H   0  0  0  0  0  0  0  0  0  0  0  0
  133.8660  125.9526   63.7879 H   0  0  0  0  0  0  0  0  0  0  0  0
  132.0204  123.9280   65.1322 H   0  0  0  0  0  0  0  0  0  0  0  0
  131.7917  125.6785   64.9616 H   0  0  0  0  0  0  0  0  0  0  0  0
  129.9111  123.7017   64.5772 H   0  0  0  0  0  0  0  0  0  0  0  0
  129.1663  124.3084   63.0594 H   0  0  0  0  0  0  0  0  0  0  0  0
  130.0656  122.7535   63.0594 H   0  0  0  0  0  0  0  0  0  0  0  0
  131.9524  126.3135   62.0578 H   0  0  0  0  0  0  0  0  0  0  0  0
  130.2284  125.7625   61.7662 H   0  0  0  0  0  0  0  0  0  0  0  0
  130.5460  127.8950   63.0970 H   0  0  0  0  0  0  0  0  0  0  0  0
  131.0470  126.9530   64.3480 H   0  0  0  0  0  0  0  0  0  0  0  0
  129.5350  126.7660   63.7360 H   0  0  0  0  0  0  0  0  0  0  0  0
  1  2  3  0
  2  3  1  0
  3  4  1  0
  4  5  1  0
  5  6  1  0
  6  7  1  0
  7  8  1  0
  8  9  1  0
  4 10  1  0
 10 11  1  0
 11 12  1  0
 12 13  1  0
 13 14  1  0
 14 15  1  1
 14 16  1  0
 16 17  1  0
  9  5  1  0
 14 10  1  0
  1 18  1  0
  3 19  1  0
  3 20  1  0
  5 21  1  1
  6 22  1  0
  6 23  1  0
  7 24  1  0
  7 25  1  0
  9 26  1  0
  9 27  1  0
 10 28  1  1
 11 29  1  0
 11 30  1  0
 12 31  1  0
 12 32  1  0
 13 33  1  0
 13 34  1  0
 15 35  1  0
 15 36  1  0
 15 37  1  0
 16 38  1  0
 16 39  1  0
 17 40  1  0
 17 41  1  0
 17 42  1  0
M  CHG  1  17   1
M  END
>  <Binding energies>  (1) 
[-6.63]

>  <Ligand effiencies>  (1) 
[-0.3315]

>  <Interactions>  (1) 
["V-A:ILE:369:CG2:3237, V-A:ASP:366:CA:3210, V-A:ILE:369:CD1:3239, V-A:GLY:454:CA:4049, V-B:TYR:539:CZ:9849, H-A:GLU:543:OE2:4910, V-A:ILE:369:CB:3236, V-A:ASP:366:C:3208, H-B:TYR:539:OH:9850, V-B:TYR:539:CD2:9846, V-B:ALA:541:CB:9864, V-B:TYR:539:CE2:9848, V-A:GLU:543:CD:4908, V-A:ASP:366:CB:3212, V-A:LEU:475:CD2:4259, V-A:ARG:545:CZ:4926, H-A:GLU:543:OE1:4909, V-A:ASP:366:CG:3213"]

$$$$
ZINC2251061652
     RDKit          3D

 41 42  0  0  0  0  0  0  0  0999 V2000
  134.4070  124.3170   60.6810 C   0  0  0  0  0  0  0  0  0  0  0  0
  134.3930  123.8180   62.1400 C   0  0  0  0  0  0  0  0  0  0  0  0
  134.2240  122.2880   62.2340 C   0  0  0  0  0  0  0  0  0  0  0  0
  133.3430  124.4980   62.9040 N   0  0  0  0  0  0  0  0  0  0  0  0
  132.3890  125.3570   62.4290 C   0  0  0  0  0  0  0  0  0  0  0  0
  131.6270  125.7370   63.5180 C   0  0  0  0  0  0  0  0  0  0  0  0
  130.5580  126.5880   63.5160 N   0  0  0  0  0  0  0  0  0  0  0  0
  132.2030  125.0510   64.6080 C   0  0  0  0  0  0  0  0  0  0  0  0
  131.7980  125.0960   65.9210 N   0  0  0  0  0  0  0  0  0  0  0  0
  130.4660  125.4230   66.4110 C   0  0  0  0  0  0  0  0  0  0  0  0
  130.4910  126.3210   67.6570 C   0  0  0  0  0  0  0  0  0  0  0  0
  129.1620  126.2740   68.4400 C   0  0  2  0  0  0  0  0  0  0  0  0
  128.1480  127.3990   68.3810 C   0  0  2  0  0  0  0  0  0  0  0  0
  128.4040  128.6830   67.5700 C   0  0  0  0  0  0  0  0  0  0  0  0
  128.9000  127.1080   69.6790 C   0  0  2  0  0  0  0  0  0  0  0  0
  129.9560  128.0820   70.2380 C   0  0  0  0  0  0  0  0  0  0  0  0
  133.2290  124.3150   64.2280 N   0  0  0  0  0  0  0  0  0  0  0  0
  134.4378  125.4165   60.6698 H   0  0  0  0  0  0  0  0  0  0  0  0
  135.2944  123.9200   60.1662 H   0  0  0  0  0  0  0  0  0  0  0  0
  133.4988  123.9704   60.1662 H   0  0  0  0  0  0  0  0  0  0  0  0
  135.3725  124.0633   62.5764 H   0  0  0  0  0  0  0  0  0  0  0  0
  134.1908  121.9871   63.2915 H   0  0  0  0  0  0  0  0  0  0  0  0
  133.2876  121.9914   61.7388 H   0  0  0  0  0  0  0  0  0  0  0  0
  135.0731  121.7942   61.7388 H   0  0  0  0  0  0  0  0  0  0  0  0
  132.2551  125.6810   61.3864 H   0  0  0  0  0  0  0  0  0  0  0  0
  129.6080  126.2470   63.4880 H   0  0  0  0  0  0  0  0  0  0  0  0
  130.6780  127.5910   63.5440 H   0  0  0  0  0  0  0  0  0  0  0  0
  132.3950  124.7140   66.6400 H   0  0  0  0  0  0  0  0  0  0  0  0
  129.9169  125.9448   65.6133 H   0  0  0  0  0  0  0  0  0  0  0  0
  129.9776  124.4790   66.6943 H   0  0  0  0  0  0  0  0  0  0  0  0
  131.3033  125.9855   68.3185 H   0  0  0  0  0  0  0  0  0  0  0  0
  130.6475  127.3570   67.3219 H   0  0  0  0  0  0  0  0  0  0  0  0
  129.1462  125.1965   68.2194 H   0  0  0  0  0  0  0  0  0  0  0  0
  127.0894  127.4779   68.0925 H   0  0  0  0  0  0  0  0  0  0  0  0
  128.5717  129.5243   68.2586 H   0  0  0  0  0  0  0  0  0  0  0  0
  129.2924  128.5453   66.9361 H   0  0  0  0  0  0  0  0  0  0  0  0
  127.5307  128.8965   66.9361 H   0  0  0  0  0  0  0  0  0  0  0  0
  128.6088  126.8912   70.7174 H   0  0  0  0  0  0  0  0  0  0  0  0
  129.9307  128.0587   71.3375 H   0  0  0  0  0  0  0  0  0  0  0  0
  130.9543  127.7810   69.8877 H   0  0  0  0  0  0  0  0  0  0  0  0
  129.7365  129.1014   69.8877 H   0  0  0  0  0  0  0  0  0  0  0  0
  1  2  1  0
  2  3  1  0
  2  4  1  0
  4  5  1  0
  5  6  2  0
  6  7  1  0
  6  8  1  0
  8  9  1  0
  9 10  1  0
 10 11  1  0
 11 12  1  0
 12 13  1  0
 13 14  1  0
 13 15  1  0
 15 16  1  0
  8 17  2  0
 17  4  1  0
 15 12  1  0
  1 18  1  0
  1 19  1  0
  1 20  1  0
  2 21  1  0
  3 22  1  0
  3 23  1  0
  3 24  1  0
  5 25  1  0
  7 26  1  0
  7 27  1  0
  9 28  1  0
 10 29  1  0
 10 30  1  0
 11 31  1  0
 11 32  1  0
 12 33  1  1
 13 34  1  1
 14 35  1  0
 14 36  1  0
 14 37  1  0
 15 38  1  1
 16 39  1  0
 16 40  1  0
 16 41  1  0
M  END
>  <Binding energies>  (1) 
[-5.83]

>  <Ligand effiencies>  (1) 
[-0.2915]

>  <Interactions>  (1) 
["V-A:ILE:369:CG2:3237, V-A:ASP:366:CA:3210, V-A:GLY:454:CA:4049, V-B:GLU:543:C:9874, H-A:GLU:543:OE2:4910, V-A:ILE:369:CB:3236, V-A:GLU:543:C:4902, V-B:GLU:543:CB:9878, V-B:GLU:543:CG:9879, V-A:ASP:366:CG:3213, V-A:TYR:484:CZ:4347, V-A:GLU:543:CD:4908, V-B:GLU:543:CA:9876, H-A:GLY:454:N:4050, V-B:HIS:456:CE1:9041, V-A:ILE:369:CD1:3239, V-A:HIS:456:CE1:4070, V-A:GLU:543:CG:4907, V-A:ASP:366:CB:3212, V-A:LEU:475:CD2:4259, V-A:ARG:545:CZ:4926, H-A:GLU:543:OE1:4909, V-A:GLU:543:CB:4906, H-A:TYR:484:OH:4348"]

$$$$
ZINC225418485
     RDKit          3D

 63 67  0  0  0  0  0  0  0  0999 V2000
  125.8570  123.5370   61.6410 C   0  0  0  0  0  0  0  0  0  0  0  0
  126.8550  122.5960   62.0230 O   0  0  0  0  0  0  0  0  0  0  0  0
  128.1850  122.9840   62.0560 C   0  0  0  0  0  0  0  0  0  0  0  0
  128.8030  123.5240   63.1980 C   0  0  0  0  0  0  0  0  0  0  0  0
  130.1500  123.8900   63.1760 C   0  0  0  0  0  0  0  0  0  0  0  0
  130.7270  124.4640   64.3200 N   0  0  0  0  0  0  0  0  0  0  0  0
  132.0670  124.7440   64.4990 C   0  0  0  0  0  0  0  0  0  0  0  0
  133.3830  124.4920   63.5100 S   0  0  0  0  0  0  0  0  0  0  0  0
  132.1100  125.3010   65.7410 N   0  0  0  0  0  0  0  0  0  0  0  0
  130.9060  125.0930   66.5120 C   0  0  1  0  0  0  0  0  0  0  0  0
  130.6460  126.1010   67.6360 C   0  0  0  0  0  0  0  0  0  0  0  0
  129.4080  126.2230   68.2840 C   0  0  0  0  0  0  0  0  0  0  0  0
  129.2800  127.1570   69.3150 C   0  0  0  0  0  0  0  0  0  0  0  0
  130.3770  127.9430   69.6720 C   0  0  0  0  0  0  0  0  0  0  0  0
  131.5740  127.7680   68.9760 C   0  0  0  0  0  0  0  0  0  0  0  0
  131.7190  126.8680   67.9720 N   0  0  0  0  0  0  0  0  0  0  0  0
  129.9090  125.0790   65.3650 C   0  0  1  0  0  0  0  0  0  0  0  0
  129.3090  126.4410   64.9930 C   0  0  0  0  0  0  0  0  0  0  0  0
  128.5400  127.2810   65.8030 C   0  0  0  0  0  0  0  0  0  0  0  0
  128.1840  128.4240   65.1150 C   0  0  0  0  0  0  0  0  0  0  0  0
  127.3940  129.6230   65.6020 C   0  0  0  0  0  0  0  0  0  0  0  0
  128.7240  128.3080   63.8430 N   0  0  0  0  0  0  0  0  0  0  0  0
  128.6130  129.2380   62.8180 C   0  0  0  0  0  0  0  0  0  0  0  0
  129.0470  130.4760   62.9090 N   0  0  0  0  0  0  0  0  0  0  0  0
  128.8500  131.1560   61.7980 C   0  0  0  0  0  0  0  0  0  0  0  0
  128.2480  130.4680   60.7510 C   0  0  0  0  0  0  0  0  0  0  0  0
  127.9300  128.8400   61.2620 S   0  0  0  0  0  0  0  0  0  0  0  0
  129.4180  127.1050   63.7700 C   0  0  0  0  0  0  0  0  0  0  0  0
  130.1240  126.6530   62.5020 C   0  0  0  0  0  0  0  0  0  0  0  0
  130.8930  123.7330   62.0040 C   0  0  0  0  0  0  0  0  0  0  0  0
  130.2920  123.2030   60.8670 C   0  0  0  0  0  0  0  0  0  0  0  0
  128.9420  122.8260   60.8800 C   0  0  0  0  0  0  0  0  0  0  0  0
  128.3160  122.2930   59.7390 N   0  0  0  0  0  0  0  0  0  0  0  0
  128.0240  123.2010   58.2430 S   0  0  0  0  0  0  0  0  0  0  0  0
  126.5570  124.2880   58.7090 C   0  0  0  0  0  0  0  0  0  0  0  0
  129.2030  124.0430   58.0170 O   0  0  0  0  0  0  0  0  0  0  0  0
  127.6040  122.2270   57.2280 O   0  0  0  0  0  0  0  0  0  0  0  0
  125.3976  123.9702   62.5417 H   0  0  0  0  0  0  0  0  0  0  0  0
  126.3174  124.3374   61.0431 H   0  0  0  0  0  0  0  0  0  0  0  0
  125.0851  123.0304   61.0431 H   0  0  0  0  0  0  0  0  0  0  0  0
  128.2180  123.6596   64.1196 H   0  0  0  0  0  0  0  0  0  0  0  0
  132.9970  125.5610   66.1470 H   0  0  0  0  0  0  0  0  0  0  0  0
  130.8973  124.1918   67.1426 H   0  0  0  0  0  0  0  0  0  0  0  0
  128.5548  125.5957   67.9863 H   0  0  0  0  0  0  0  0  0  0  0  0
  128.3213  127.2723   69.8419 H   0  0  0  0  0  0  0  0  0  0  0  0
  130.2998  128.6826   70.4825 H   0  0  0  0  0  0  0  0  0  0  0  0
  132.4389  128.3881   69.2544 H   0  0  0  0  0  0  0  0  0  0  0  0
  128.9775  124.5404   65.5936 H   0  0  0  0  0  0  0  0  0  0  0  0
  128.2577  127.0621   66.8434 H   0  0  0  0  0  0  0  0  0  0  0  0
  127.3862  129.6348   66.7019 H   0  0  0  0  0  0  0  0  0  0  0  0
  127.8613  130.5462   65.2287 H   0  0  0  0  0  0  0  0  0  0  0  0
  126.3613  129.5579   65.2287 H   0  0  0  0  0  0  0  0  0  0  0  0
  129.1459  132.2113   61.7040 H   0  0  0  0  0  0  0  0  0  0  0  0
  128.0120  130.8864   59.7614 H   0  0  0  0  0  0  0  0  0  0  0  0
  131.0229  126.0775   62.7681 H   0  0  0  0  0  0  0  0  0  0  0  0
  129.4457  126.0208   61.9102 H   0  0  0  0  0  0  0  0  0  0  0  0
  130.4143  127.5336   61.9102 H   0  0  0  0  0  0  0  0  0  0  0  0
  131.9524  124.0281   61.9800 H   0  0  0  0  0  0  0  0  0  0  0  0
  130.8827  123.0783   59.9475 H   0  0  0  0  0  0  0  0  0  0  0  0
  127.9690  121.3480   59.7970 H   0  0  0  0  0  0  0  0  0  0  0  0
  126.4776  124.3468   59.8046 H   0  0  0  0  0  0  0  0  0  0  0  0
  126.7032  125.2975   58.2972 H   0  0  0  0  0  0  0  0  0  0  0  0
  125.6338  123.8542   58.2972 H   0  0  0  0  0  0  0  0  0  0  0  0
  1  2  1  0
  2  3  1  0
  3  4  2  0
  4  5  1  0
  5  6  1  0
  6  7  1  0
  7  8  2  0
  7  9  1  0
  9 10  1  0
 10 11  1  0
 11 12  2  0
 12 13  1  0
 13 14  2  0
 14 15  1  0
 15 16  2  0
 10 17  1  0
 17 18  1  0
 18 19  1  0
 19 20  2  0
 20 21  1  0
 20 22  1  0
 22 23  1  0
 23 24  2  0
 24 25  1  0
 25 26  2  0
 26 27  1  0
 22 28  1  0
 28 29  1  0
  5 30  2  0
 30 31  1  0
 31 32  2  0
 32 33  1  0
 33 34  1  0
 34 35  1  0
 34 36  2  0
 34 37  2  0
 32  3  1  0
 17  6  1  0
 28 18  2  0
 16 11  1  0
 27 23  1  0
  1 38  1  0
  1 39  1  0
  1 40  1  0
  4 41  1  0
  9 42  1  0
 10 43  1  1
 12 44  1  0
 13 45  1  0
 14 46  1  0
 15 47  1  0
 17 48  1  1
 19 49  1  0
 21 50  1  0
 21 51  1  0
 21 52  1  0
 25 53  1  0
 26 54  1  0
 29 55  1  0
 29 56  1  0
 29 57  1  0
 30 58  1  0
 31 59  1  0
 33 60  1  0
 35 61  1  0
 35 62  1  0
 35 63  1  0
M  END
>  <Binding energies>  (1) 
[-7.22]

>  <Ligand effiencies>  (1) 
[-0.18512820512820513]

>  <Interactions>  (1) 
["V-B:PRO:540:CA:9855, V-A:ARG:545:CA:4919, H-A:GLU:543:OE2:4910, V-A:GLU:543:C:4902, V-B:GLU:543:CB:9878, V-B:ALA:541:CB:9864, V-B:TYR:539:CE2:9848, V-A:TYR:484:CE2:4346, H-B:TYR:539:N:9842, V-B:GLU:543:CG:9879, V-A:GLY:544:C:4912, V-B:TYR:539:C:9839, V-B:TYR:539:CZ:9849, H-B:TYR:539:OH:9850, H-B:ALA:541:N:9863, V-A:TYR:484:CZ:4347, V-B:PRO:540:CB:9857, V-A:GLU:543:CD:4908, V-A:ARG:545:CG:4922, V-B:PRO:540:N:9856, V-A:HIS:456:CE1:4070, V-B:TYR:484:CZ:9318, V-B:TYR:539:CD2:9846, V-A:GLU:543:CG:4907, V-B:GLU:543:CD:9880, V-A:ARG:545:CZ:4926, V-A:GLU:543:CB:4906, H-B:TYR:539:O:9840, H-A:HIS:456:ND1:4067, H-A:TYR:484:OH:4348"]

$$$$
ZINC225419823
     RDKit          3D

 67 71  0  0  0  0  0  0  0  0999 V2000
  128.6990  122.1790   60.5840 C   0  0  0  0  0  0  0  0  0  0  0  0
  130.1230  122.1820   60.5670 O   0  0  0  0  0  0  0  0  0  0  0  0
  130.8150  122.9200   61.5150 C   0  0  0  0  0  0  0  0  0  0  0  0
  130.3260  123.1600   62.8100 C   0  0  0  0  0  0  0  0  0  0  0  0
  131.0640  123.9180   63.7240 C   0  0  0  0  0  0  0  0  0  0  0  0
  130.5620  124.1880   65.0060 N   0  0  0  0  0  0  0  0  0  0  0  0
  129.7300  123.3610   65.7350 C   0  0  0  0  0  0  0  0  0  0  0  0
  129.0820  121.8680   65.3790 S   0  0  0  0  0  0  0  0  0  0  0  0
  129.5400  124.0510   66.8930 N   0  0  0  0  0  0  0  0  0  0  0  0
  130.4600  125.1540   67.0710 C   0  0  2  0  0  0  0  0  0  0  0  0
  129.9910  126.2770   68.0030 C   0  0  0  0  0  0  0  0  0  0  0  0
  130.8910  127.2700   68.4060 C   0  0  0  0  0  0  0  0  0  0  0  0
  130.4350  128.2930   69.2410 C   0  0  0  0  0  0  0  0  0  0  0  0
  129.1030  128.2980   69.6570 C   0  0  0  0  0  0  0  0  0  0  0  0
  128.2660  127.2680   69.2240 C   0  0  0  0  0  0  0  0  0  0  0  0
  128.6920  126.2630   68.4160 N   0  0  0  0  0  0  0  0  0  0  0  0
  130.6500  125.5170   65.6070 C   0  0  2  0  0  0  0  0  0  0  0  0
  129.6610  126.5540   65.0570 C   0  0  0  0  0  0  0  0  0  0  0  0
  128.7440  127.3290   65.7760 C   0  0  0  0  0  0  0  0  0  0  0  0
  128.0690  128.1820   64.9270 C   0  0  0  0  0  0  0  0  0  0  0  0
  127.0190  129.2310   65.2290 C   0  0  0  0  0  0  0  0  0  0  0  0
  128.5340  127.9240   63.6530 N   0  0  0  0  0  0  0  0  0  0  0  0
  128.1500  128.6660   62.4490 C   0  0  0  0  0  0  0  0  0  0  0  0
  128.8150  130.0250   62.3780 C   0  0  0  0  0  0  0  0  0  0  0  0
  129.8300  130.5590   61.5970 C   0  0  0  0  0  0  0  0  0  0  0  0
  130.0010  131.8840   61.9970 C   0  0  0  0  0  0  0  0  0  0  0  0
  129.0840  132.1030   63.0100 C   0  0  0  0  0  0  0  0  0  0  0  0
  128.3650  130.9760   63.2410 O   0  0  0  0  0  0  0  0  0  0  0  0
  129.5060  126.9390   63.7250 C   0  0  0  0  0  0  0  0  0  0  0  0
  130.2370  126.4530   62.4860 C   0  0  0  0  0  0  0  0  0  0  0  0
  132.2940  124.4550   63.3480 C   0  0  0  0  0  0  0  0  0  0  0  0
  132.7930  124.2170   62.0710 C   0  0  0  0  0  0  0  0  0  0  0  0
  132.0650  123.4510   61.1480 C   0  0  0  0  0  0  0  0  0  0  0  0
  132.5520  123.2020   59.8530 N   0  0  0  0  0  0  0  0  0  0  0  0
  133.5530  124.3350   58.9230 S   0  0  0  0  0  0  0  0  0  0  0  0
  132.4330  125.8450   58.7870 C   0  0  0  0  0  0  0  0  0  0  0  0
  134.7130  124.6620   59.7600 O   0  0  0  0  0  0  0  0  0  0  0  0
  133.7400  123.7450   57.5930 O   0  0  0  0  0  0  0  0  0  0  0  0
  128.3447  122.1783   61.6254 H   0  0  0  0  0  0  0  0  0  0  0  0
  128.3243  123.0764   60.0699 H   0  0  0  0  0  0  0  0  0  0  0  0
  128.3281  121.2801   60.0699 H   0  0  0  0  0  0  0  0  0  0  0  0
  129.3512  122.7467   63.1083 H   0  0  0  0  0  0  0  0  0  0  0  0
  128.9930  123.6500   67.6410 H   0  0  0  0  0  0  0  0  0  0  0  0
  131.3869  124.9165   67.6135 H   0  0  0  0  0  0  0  0  0  0  0  0
  131.9386  127.2455   68.0713 H   0  0  0  0  0  0  0  0  0  0  0  0
  131.1207  129.0885   69.5681 H   0  0  0  0  0  0  0  0  0  0  0  0
  128.7211  129.0955   70.3113 H   0  0  0  0  0  0  0  0  0  0  0  0
  127.2159  127.2706   69.5515 H   0  0  0  0  0  0  0  0  0  0  0  0
  131.5867  126.0508   65.3886 H   0  0  0  0  0  0  0  0  0  0  0  0
  128.5842  127.2670   66.8626 H   0  0  0  0  0  0  0  0  0  0  0  0
  126.9111  129.3388   66.3184 H   0  0  0  0  0  0  0  0  0  0  0  0
  127.3264  130.1934   64.7940 H   0  0  0  0  0  0  0  0  0  0  0  0
  126.0569  128.9226   64.7940 H   0  0  0  0  0  0  0  0  0  0  0  0
  128.4429  128.0816   61.5643 H   0  0  0  0  0  0  0  0  0  0  0  0
  127.0619  128.8238   62.4823 H   0  0  0  0  0  0  0  0  0  0  0  0
  130.3936  130.0358   60.8105 H   0  0  0  0  0  0  0  0  0  0  0  0
  130.7204  132.6094   61.5892 H   0  0  0  0  0  0  0  0  0  0  0  0
  128.9566  133.0530   63.5496 H   0  0  0  0  0  0  0  0  0  0  0  0
  131.1182  125.8671   62.7864 H   0  0  0  0  0  0  0  0  0  0  0  0
  129.5639  125.8220   61.8870 H   0  0  0  0  0  0  0  0  0  0  0  0
  130.5584  127.3178   61.8870 H   0  0  0  0  0  0  0  0  0  0  0  0
  132.8692  125.0658   64.0594 H   0  0  0  0  0  0  0  0  0  0  0  0
  133.7690  124.6340   61.7820 H   0  0  0  0  0  0  0  0  0  0  0  0
  132.3280  122.3110   59.4340 H   0  0  0  0  0  0  0  0  0  0  0  0
  132.1706  126.1988   59.7949 H   0  0  0  0  0  0  0  0  0  0  0  0
  132.9588  126.6437   58.2434 H   0  0  0  0  0  0  0  0  0  0  0  0
  131.5160  125.5736   58.2434 H   0  0  0  0  0  0  0  0  0  0  0  0
  1  2  1  0
  2  3  1  0
  3  4  2  0
  4  5  1  0
  5  6  1  0
  6  7  1  0
  7  8  2  0
  7  9  1  0
  9 10  1  0
 10 11  1  0
 11 12  2  0
 12 13  1  0
 13 14  2  0
 14 15  1  0
 15 16  2  0
 10 17  1  0
 17 18  1  0
 18 19  1  0
 19 20  2  0
 20 21  1  0
 20 22  1  0
 22 23  1  0
 23 24  1  0
 24 25  2  0
 25 26  1  0
 26 27  2  0
 27 28  1  0
 22 29  1  0
 29 30  1  0
  5 31  2  0
 31 32  1  0
 32 33  2  0
 33 34  1  0
 34 35  1  0
 35 36  1  0
 35 37  2  0
 35 38  2  0
 33  3  1  0
 17  6  1  0
 29 18  2  0
 16 11  1  0
 28 24  1  0
  1 39  1  0
  1 40  1  0
  1 41  1  0
  4 42  1  0
  9 43  1  0
 10 44  1  1
 12 45  1  0
 13 46  1  0
 14 47  1  0
 15 48  1  0
 17 49  1  1
 19 50  1  0
 21 51  1  0
 21 52  1  0
 21 53  1  0
 23 54  1  0
 23 55  1  0
 25 56  1  0
 26 57  1  0
 27 58  1  0
 30 59  1  0
 30 60  1  0
 30 61  1  0
 31 62  1  0
 32 63  1  0
 34 64  1  0
 36 65  1  0
 36 66  1  0
 36 67  1  0
M  END
>  <Binding energies>  (1) 
[-6.9]

>  <Ligand effiencies>  (1) 
[-0.17250000000000001]

>  <Interactions>  (1) 
["V-A:ILE:369:CG2:3237, V-A:ASP:366:CA:3210, V-B:PRO:540:CA:9855, V-A:GLU:543:CA:4904, V-B:GLU:543:C:9874, V-A:ILE:369:CB:3236, H-B:GLU:543:O:9875, V-A:GLU:543:C:4902, V-B:GLU:543:CB:9878, V-B:ALA:541:CB:9864, V-B:TYR:539:CE2:9848, V-A:TYR:484:CE2:4346, V-B:GLU:543:CG:9879, V-B:TYR:539:C:9839, V-A:ASP:366:CG:3213, H-A:ASN:370:N:3244, H-B:TYR:539:OH:9850, V-A:ALA:541:CB:4892, V-A:TYR:484:CZ:4347, V-A:GLU:543:CD:4908, V-B:GLU:543:CA:9876, V-A:ARG:545:CG:4922, V-B:HIS:456:CE1:9041, V-A:TYR:484:CD2:4344, V-A:HIS:456:CE1:4070, V-B:TYR:539:CD2:9846, V-B:GLU:543:CD:9880, V-A:ASP:366:CB:3212, V-A:LEU:475:CD2:4259, V-B:VAL:542:C:9866, V-A:GLU:543:CB:4906, V-B:PRO:540:C:9853"]

$$$$
ZINC225435826
     RDKit          3D

 53 55  0  0  0  0  0  0  0  0999 V2000
  128.2120  127.0960   71.2640 C   0  0  0  0  0  0  0  0  0  0  0  0
  129.7130  127.4170   71.1400 C   0  0  0  0  0  0  0  0  0  0  0  0
  130.1680  128.3410   72.2840 C   0  0  0  0  0  0  0  0  0  0  0  0
  130.1110  128.0010   69.7630 C   0  0  0  0  0  0  0  0  0  0  0  0
  129.0460  127.5530   68.3480 S   0  0  0  0  0  0  0  0  0  0  0  0
  130.0470  126.4910   67.3450 C   0  0  0  0  0  0  0  0  0  0  0  0
  131.3230  126.3070   67.5800 N   0  0  0  0  0  0  0  0  0  0  0  0
  131.9370  125.4460   66.6780 N   0  0  0  0  0  0  0  0  0  0  0  0
  131.1060  124.9760   65.7720 C   0  0  0  0  0  0  0  0  0  0  0  0
  131.3550  124.1390   64.7190 N   0  0  0  0  0  0  0  0  0  0  0  0
  132.5080  123.9720   64.1730 C   0  0  0  0  0  0  0  0  0  0  0  0
  133.6370  124.4170   64.4580 O   0  0  0  0  0  0  0  0  0  0  0  0
  132.4620  122.9980   62.9850 C   0  0  0  0  0  0  0  0  0  0  0  0
  131.2870  123.2530   62.1260 N   0  0  0  0  0  0  0  0  0  0  0  0
  131.4740  124.2920   61.1990 C   0  0  0  0  0  0  0  0  0  0  0  0
  130.8310  125.5130   61.4070 C   0  0  0  0  0  0  0  0  0  0  0  0
  130.9860  126.5520   60.4920 C   0  0  0  0  0  0  0  0  0  0  0  0
  131.7790  126.3740   59.3600 C   0  0  0  0  0  0  0  0  0  0  0  0
  132.4310  125.1530   59.1240 C   0  0  0  0  0  0  0  0  0  0  0  0
  133.2660  124.9570   57.9140 N   0  0  0  0  0  0  0  0  0  0  0  0
  133.2270  125.8060   57.0280 O   0  0  0  0  0  0  0  0  0  0  0  0
  133.9720  123.9530   57.8430 O   0  0  0  0  0  0  0  0  0  0  0  0
  132.2710  124.1190   60.0590 C   0  0  0  0  0  0  0  0  0  0  0  0
  130.2820  121.8540   61.6150 S   0  0  0  0  0  0  0  0  0  0  0  0
  131.0040  121.1300   60.5630 O   0  0  0  0  0  0  0  0  0  0  0  0
  129.8570  121.1640   62.8390 O   0  0  0  0  0  0  0  0  0  0  0  0
  128.8240  122.5840   60.8720 C   0  0  0  0  0  0  0  0  0  0  0  0
  127.8380  123.1490   61.6850 C   0  0  0  0  0  0  0  0  0  0  0  0
  126.7330  123.7650   61.1060 C   0  0  0  0  0  0  0  0  0  0  0  0
  126.6210  123.8190   59.7170 C   0  0  0  0  0  0  0  0  0  0  0  0
  127.6090  123.2690   58.9030 C   0  0  0  0  0  0  0  0  0  0  0  0
  128.7160  122.6540   59.4810 C   0  0  0  0  0  0  0  0  0  0  0  0
  129.4950  125.6000   65.9470 S   0  0  0  0  0  0  0  0  0  0  0  0
  127.9363  127.0370   72.3272 H   0  0  0  0  0  0  0  0  0  0  0  0
  127.6259  127.8891   70.7767 H   0  0  0  0  0  0  0  0  0  0  0  0
  128.0016  126.1326   70.7767 H   0  0  0  0  0  0  0  0  0  0  0  0
  130.2406  126.4553   71.2225 H   0  0  0  0  0  0  0  0  0  0  0  0
  129.9359  127.8696   73.2504 H   0  0  0  0  0  0  0  0  0  0  0  0
  131.2524  128.5101   72.2095 H   0  0  0  0  0  0  0  0  0  0  0  0
  129.6409  129.3036   72.2095 H   0  0  0  0  0  0  0  0  0  0  0  0
  130.1058  129.0975   69.8510 H   0  0  0  0  0  0  0  0  0  0  0  0
  131.0951  127.5651   69.5357 H   0  0  0  0  0  0  0  0  0  0  0  0
  133.3767  123.1199   62.3862 H   0  0  0  0  0  0  0  0  0  0  0  0
  132.3880  121.9736   63.3789 H   0  0  0  0  0  0  0  0  0  0  0  0
  130.1997  125.6555   62.2964 H   0  0  0  0  0  0  0  0  0  0  0  0
  130.4816  127.5144   60.6633 H   0  0  0  0  0  0  0  0  0  0  0  0
  131.8956  127.1998   58.6428 H   0  0  0  0  0  0  0  0  0  0  0  0
  132.7791  123.1573   59.8947 H   0  0  0  0  0  0  0  0  0  0  0  0
  127.9352  123.1069   62.7799 H   0  0  0  0  0  0  0  0  0  0  0  0
  125.9513  124.2074   61.7410 H   0  0  0  0  0  0  0  0  0  0  0  0
  125.7441  124.3005   59.2596 H   0  0  0  0  0  0  0  0  0  0  0  0
  127.5147  123.3205   57.8083 H   0  0  0  0  0  0  0  0  0  0  0  0
  129.5034  122.2244   58.8443 H   0  0  0  0  0  0  0  0  0  0  0  0
  1  2  1  0
  2  3  1  0
  2  4  1  0
  4  5  1  0
  5  6  1  0
  6  7  2  0
  7  8  1  0
  8  9  2  0
  9 10  1  0
 10 11  2  0
 11 12  1  0
 11 13  1  0
 13 14  1  0
 14 15  1  0
 15 16  2  0
 16 17  1  0
 17 18  2  0
 18 19  1  0
 19 20  1  0
 20 21  2  0
 20 22  1  0
 19 23  2  0
 14 24  1  0
 24 25  2  0
 24 26  2  0
 24 27  1  0
 27 28  2  0
 28 29  1  0
 29 30  2  0
 30 31  1  0
 31 32  2  0
  9 33  1  0
 33  6  1  0
 23 15  1  0
 32 27  1  0
  1 34  1  0
  1 35  1  0
  1 36  1  0
  2 37  1  0
  3 38  1  0
  3 39  1  0
  3 40  1  0
  4 41  1  0
  4 42  1  0
 13 43  1  0
 13 44  1  0
 16 45  1  0
 17 46  1  0
 18 47  1  0
 23 48  1  0
 28 49  1  0
 29 50  1  0
 30 51  1  0
 31 52  1  0
 32 53  1  0
M  CHG  3  12  -1  20   1  22  -1
M  END
>  <Binding energies>  (1) 
[-8.36]

>  <Ligand effiencies>  (1) 
[-0.2533333333333333]

>  <Interactions>  (1) 
["V-A:ASP:366:CA:3210, V-B:PRO:540:CA:9855, V-A:GLU:543:C:4902, V-B:GLU:543:CB:9878, H-A:TYR:531:OH:4795, V-B:TYR:539:CE2:9848, V-B:GLU:543:CG:9879, V-A:GLY:544:C:4912, V-B:TYR:539:C:9839, V-A:ASP:366:CG:3213, V-B:TYR:539:CZ:9849, H-A:ASN:370:N:3244, H-B:TYR:539:OH:9850, V-A:TYR:484:CZ:4347, V-A:GLU:543:CD:4908, V-B:PRO:540:CB:9857, V-B:HIS:456:CE1:9041, H-A:GLY:454:N:4050, V-B:PRO:540:N:9856, V-A:HIS:456:CE1:4070, V-A:ASP:366:C:3208, V-B:TYR:539:CD2:9846, V-B:GLU:543:CD:9880, V-A:ASP:366:CB:3212, V-A:LEU:475:CD2:4259, V-A:GLU:543:CB:4906, H-A:TYR:484:OH:4348"]

$$$$
ZINC225488171
     RDKit          3D

 62 66  0  0  0  0  0  0  0  0999 V2000
  127.5850  129.2230   66.3380 C   0  0  0  0  0  0  0  0  0  0  0  0
  127.3720  129.7030   65.0160 O   0  0  0  0  0  0  0  0  0  0  0  0
  127.8950  129.0080   63.9330 C   0  0  0  0  0  0  0  0  0  0  0  0
  128.4110  127.7040   64.0530 C   0  0  0  0  0  0  0  0  0  0  0  0
  128.9350  127.0370   62.9510 C   0  0  0  0  0  0  0  0  0  0  0  0
  128.9380  127.6510   61.7000 C   0  0  0  0  0  0  0  0  0  0  0  0
  129.4950  127.0090   60.5680 N   0  0  0  0  0  0  0  0  0  0  0  0
  130.1480  127.6490   59.5320 C   0  0  0  0  0  0  0  0  0  0  0  0
  130.5150  129.2560   59.2750 S   0  0  0  0  0  0  0  0  0  0  0  0
  130.4690  126.6380   58.6790 N   0  0  0  0  0  0  0  0  0  0  0  0
  129.9730  125.3310   59.0500 C   0  0  2  0  0  0  0  0  0  0  0  0
  128.7220  124.8710   58.2830 C   0  0  0  0  0  0  0  0  0  0  0  0
  127.7200  125.7520   57.8490 C   0  0  0  0  0  0  0  0  0  0  0  0
  126.6250  125.2330   57.1540 C   0  0  0  0  0  0  0  0  0  0  0  0
  126.5550  123.8610   56.9050 C   0  0  0  0  0  0  0  0  0  0  0  0
  127.5930  123.0490   57.3610 C   0  0  0  0  0  0  0  0  0  0  0  0
  128.6680  123.5340   58.0350 N   0  0  0  0  0  0  0  0  0  0  0  0
  129.8370  125.5830   60.5410 C   0  0  2  0  0  0  0  0  0  0  0  0
  128.8830  124.6240   61.2690 C   0  0  0  0  0  0  0  0  0  0  0  0
  127.6690  124.0810   60.8520 C   0  0  0  0  0  0  0  0  0  0  0  0
  127.1940  123.2200   61.8350 C   0  0  0  0  0  0  0  0  0  0  0  0
  128.1210  123.2410   62.8560 C   0  0  0  0  0  0  0  0  0  0  0  0
  129.1430  124.1080   62.5330 N   0  0  0  0  0  0  0  0  0  0  0  0
  130.2450  124.3790   63.3670 C   0  0  0  0  0  0  0  0  0  0  0  0
  130.0450  124.7090   64.7080 C   0  0  0  0  0  0  0  0  0  0  0  0
  131.1390  124.9620   65.5280 C   0  0  0  0  0  0  0  0  0  0  0  0
  132.4450  124.8840   65.0220 C   0  0  0  0  0  0  0  0  0  0  0  0
  133.6110  125.1560   65.8970 N   0  0  0  0  0  0  0  0  0  0  0  0
  134.7380  125.0960   65.4130 O   0  0  0  0  0  0  0  0  0  0  0  0
  133.4090  125.4340   67.0770 O   0  0  0  0  0  0  0  0  0  0  0  0
  132.6300  124.5430   63.6730 C   0  0  0  0  0  0  0  0  0  0  0  0
  131.5380  124.2860   62.8490 C   0  0  0  0  0  0  0  0  0  0  0  0
  128.4240  128.9450   61.5800 C   0  0  0  0  0  0  0  0  0  0  0  0
  127.9090  129.6560   62.6790 C   0  0  0  0  0  0  0  0  0  0  0  0
  127.4270  130.9470   62.5740 N   0  0  0  0  0  0  0  0  0  0  0  0
  128.1640  132.1990   63.1660 S   0  0  0  0  0  0  0  0  0  0  0  0
  129.9760  131.8420   62.7830 C   0  0  0  0  0  0  0  0  0  0  0  0
  127.8560  133.4360   62.4370 O   0  0  0  0  0  0  0  0  0  0  0  0
  128.0890  132.2630   64.6290 O   0  0  0  0  0  0  0  0  0  0  0  0
  127.2490  129.9803   67.0616 H   0  0  0  0  0  0  0  0  0  0  0  0
  127.0144  128.2945   66.4873 H   0  0  0  0  0  0  0  0  0  0  0  0
  128.6563  129.0231   66.4873 H   0  0  0  0  0  0  0  0  0  0  0  0
  128.3996  127.2050   65.0332 H   0  0  0  0  0  0  0  0  0  0  0  0
  129.3475  126.0239   63.0669 H   0  0  0  0  0  0  0  0  0  0  0  0
  130.9840  126.8230   57.8300 H   0  0  0  0  0  0  0  0  0  0  0  0
  130.6022  124.4654   58.7952 H   0  0  0  0  0  0  0  0  0  0  0  0
  127.7952  126.8305   58.0521 H   0  0  0  0  0  0  0  0  0  0  0  0
  125.8234  125.9007   56.8053 H   0  0  0  0  0  0  0  0  0  0  0  0
  125.7009  123.4305   56.3617 H   0  0  0  0  0  0  0  0  0  0  0  0
  127.5388  121.9677   57.1662 H   0  0  0  0  0  0  0  0  0  0  0  0
  130.7452  125.3668   61.1227 H   0  0  0  0  0  0  0  0  0  0  0  0
  127.1669  124.2988   59.8978 H   0  0  0  0  0  0  0  0  0  0  0  0
  126.2619  122.6366   61.8044 H   0  0  0  0  0  0  0  0  0  0  0  0
  128.0550  122.6559   63.7852 H   0  0  0  0  0  0  0  0  0  0  0  0
  129.0249  124.7688   65.1152 H   0  0  0  0  0  0  0  0  0  0  0  0
  130.9788  125.2259   66.5838 H   0  0  0  0  0  0  0  0  0  0  0  0
  133.6486  124.4782   63.2627 H   0  0  0  0  0  0  0  0  0  0  0  0
  131.6930  124.0111   61.7953 H   0  0  0  0  0  0  0  0  0  0  0  0
  128.4221  129.4249   60.5902 H   0  0  0  0  0  0  0  0  0  0  0  0
  130.5349  131.7319   63.7240 H   0  0  0  0  0  0  0  0  0  0  0  0
  130.0513  130.9117   62.2008 H   0  0  0  0  0  0  0  0  0  0  0  0
  130.3986  132.6742   62.2008 H   0  0  0  0  0  0  0  0  0  0  0  0
  1  2  1  0
  2  3  1  0
  3  4  2  0
  4  5  1  0
  5  6  2  0
  6  7  1  0
  7  8  1  0
  8  9  2  0
  8 10  1  0
 10 11  1  0
 11 12  1  0
 12 13  2  0
 13 14  1  0
 14 15  2  0
 15 16  1  0
 16 17  2  0
 11 18  1  0
 18 19  1  0
 19 20  2  0
 20 21  1  0
 21 22  2  0
 22 23  1  0
 23 24  1  0
 24 25  2  0
 25 26  1  0
 26 27  2  0
 27 28  1  0
 28 29  2  0
 28 30  1  0
 27 31  1  0
 31 32  2  0
  6 33  1  0
 33 34  2  0
 34 35  1  0
 35 36  1  0
 36 37  1  0
 36 38  2  0
 36 39  2  0
 34  3  1  0
 18  7  1  0
 23 19  1  0
 32 24  1  0
 17 12  1  0
  1 40  1  0
  1 41  1  0
  1 42  1  0
  4 43  1  0
  5 44  1  0
 10 45  1  0
 11 46  1  1
 13 47  1  0
 14 48  1  0
 15 49  1  0
 16 50  1  0
 18 51  1  1
 20 52  1  0
 21 53  1  0
 22 54  1  0
 25 55  1  0
 26 56  1  0
 31 57  1  0
 32 58  1  0
 33 59  1  0
 37 60  1  0
 37 61  1  0
 37 62  1  0
M  CHG  3  28   1  30  -1  35  -1
M  END
>  <Binding energies>  (1) 
[-7.14]

>  <Ligand effiencies>  (1) 
[-0.1785]

>  <Interactions>  (1) 
["V-B:PRO:540:CA:9855, V-B:ALA:541:CB:9864, H-A:TYR:531:OH:4795, H-A:ARG:545:NH1:4927, V-B:TYR:539:CE2:9848, V-B:GLU:543:CG:9879, V-B:TYR:539:CZ:9849, H-B:TYR:539:OH:9850, V-A:ALA:541:CB:4892, V-A:GLU:543:CD:4908, H-B:TYR:484:OH:9319, V-B:HIS:456:CE1:9041, H-A:GLY:454:N:4050, V-A:ARG:545:CG:4922, V-B:PRO:540:N:9856, V-B:TYR:484:CZ:9318, V-B:TYR:539:CD2:9846, V-A:GLU:543:CG:4907, V-B:GLU:543:CD:9880, V-A:ARG:545:CD:4923, H-A:ARG:545:NH2:4928, V-A:ARG:545:CZ:4926, H-A:ARG:545:NE:4924, V-B:TYR:539:CE1:9847, H-A:HIS:456:ND1:4067, H-A:TYR:484:OH:4348"]

$$$$
ZINC225488171-again1
     RDKit          3D

 63 67  0  0  0  0  0  0  0  0999 V2000
  130.3710  120.7630   60.9520 C   0  0  0  0  0  0  0  0  0  0  0  0
  129.3740  121.6010   61.5280 O   0  0  0  0  0  0  0  0  0  0  0  0
  128.9680  122.7420   60.8550 C   0  0  0  0  0  0  0  0  0  0  0  0
  129.1770  122.9450   59.4790 C   0  0  0  0  0  0  0  0  0  0  0  0
  128.7650  124.1230   58.8590 C   0  0  0  0  0  0  0  0  0  0  0  0
  128.1210  125.1190   59.5990 C   0  0  0  0  0  0  0  0  0  0  0  0
  127.7470  126.3450   59.0010 N   0  0  0  0  0  0  0  0  0  0  0  0
  127.4090  126.5110   57.6730 C   0  0  0  0  0  0  0  0  0  0  0  0
  127.2930  125.4220   56.4150 S   0  0  0  0  0  0  0  0  0  0  0  0
  127.1690  127.8470   57.5660 N   0  0  0  0  0  0  0  0  0  0  0  0
  127.4210  128.6210   58.7590 C   0  0  2  0  0  0  0  0  0  0  0  0
  128.7500  129.3930   58.7650 C   0  0  0  0  0  0  0  0  0  0  0  0
  129.2290  130.0870   59.8860 C   0  0  0  0  0  0  0  0  0  0  0  0
  130.4490  130.7590   59.7880 C   0  0  0  0  0  0  0  0  0  0  0  0
  131.1610  130.7210   58.5870 C   0  0  0  0  0  0  0  0  0  0  0  0
  130.6250  130.0030   57.5190 C   0  0  0  0  0  0  0  0  0  0  0  0
  129.4430  129.3410   57.5950 N   0  0  0  0  0  0  0  0  0  0  0  0
  127.2570  127.4980   59.7680 C   0  0  2  0  0  0  0  0  0  0  0  0
  127.9060  127.7680   61.1340 C   0  0  0  0  0  0  0  0  0  0  0  0
  127.3690  128.3260   62.2940 C   0  0  0  0  0  0  0  0  0  0  0  0
  128.3330  128.3080   63.2960 C   0  0  0  0  0  0  0  0  0  0  0  0
  129.4580  127.7300   62.7460 C   0  0  0  0  0  0  0  0  0  0  0  0
  129.2160  127.4130   61.4280 N   0  0  0  0  0  0  0  0  0  0  0  0
  130.1560  126.8110   60.5690 C   0  0  0  0  0  0  0  0  0  0  0  0
  130.8980  125.7120   61.0040 C   0  0  0  0  0  0  0  0  0  0  0  0
  131.8220  125.1210   60.1470 C   0  0  0  0  0  0  0  0  0  0  0  0
  132.0100  125.6180   58.8480 C   0  0  0  0  0  0  0  0  0  0  0  0
  133.0000  124.9890   57.9360 N   0  0  0  0  0  0  0  0  0  0  0  0
  133.2730  125.5570   56.8830 O   0  0  0  0  0  0  0  0  0  0  0  0
  133.5110  123.9230   58.2680 O   0  0  0  0  0  0  0  0  0  0  0  0
  131.2500  126.7170   58.4230 C   0  0  0  0  0  0  0  0  0  0  0  0
  130.3230  127.3090   59.2760 C   0  0  0  0  0  0  0  0  0  0  0  0
  127.9010  124.9180   60.9640 C   0  0  0  0  0  0  0  0  0  0  0  0
  128.3230  123.7450   61.6000 C   0  0  0  0  0  0  0  0  0  0  0  0
  128.1650  123.5790   62.9850 N   0  0  0  0  0  0  0  0  0  0  0  0
  129.5200  123.3190   64.1040 S   0  0  0  0  0  0  0  0  0  0  0  0
  129.8150  125.0490   64.7880 C   0  0  0  0  0  0  0  0  0  0  0  0
  129.0280  122.4450   65.1740 O   0  0  0  0  0  0  0  0  0  0  0  0
  130.6740  122.9170   63.2920 O   0  0  0  0  0  0  0  0  0  0  0  0
  130.9488  120.2773   61.7522 H   0  0  0  0  0  0  0  0  0  0  0  0
  129.8893  119.9946   60.3295 H   0  0  0  0  0  0  0  0  0  0  0  0
  131.0450  121.3697   60.3295 H   0  0  0  0  0  0  0  0  0  0  0  0
  129.6723  122.1634   58.8843 H   0  0  0  0  0  0  0  0  0  0  0  0
  128.9470  124.2696   57.7841 H   0  0  0  0  0  0  0  0  0  0  0  0
  126.8760  128.2500   56.6860 H   0  0  0  0  0  0  0  0  0  0  0  0
  126.7679  129.4883   58.9359 H   0  0  0  0  0  0  0  0  0  0  0  0
  128.6547  130.1015   60.8240 H   0  0  0  0  0  0  0  0  0  0  0  0
  130.8465  131.3143   60.6504 H   0  0  0  0  0  0  0  0  0  0  0  0
  132.1226  131.2456   58.4862 H   0  0  0  0  0  0  0  0  0  0  0  0
  131.1851  129.9717   56.5728 H   0  0  0  0  0  0  0  0  0  0  0  0
  126.2273  127.3427   60.1224 H   0  0  0  0  0  0  0  0  0  0  0  0
  126.3465  128.7177   62.3994 H   0  0  0  0  0  0  0  0  0  0  0  0
  128.2205  128.6812   64.3246 H   0  0  0  0  0  0  0  0  0  0  0  0
  130.4035  127.5499   63.2785 H   0  0  0  0  0  0  0  0  0  0  0  0
  130.7533  125.3146   62.0195 H   0  0  0  0  0  0  0  0  0  0  0  0
  132.4098  124.2571   60.4908 H   0  0  0  0  0  0  0  0  0  0  0  0
  131.3876  127.1148   57.4067 H   0  0  0  0  0  0  0  0  0  0  0  0
  129.7246  128.1657   58.9325 H   0  0  0  0  0  0  0  0  0  0  0  0
  127.3872  125.6951   61.5489 H   0  0  0  0  0  0  0  0  0  0  0  0
  127.2290  123.6020   63.3630 H   0  0  0  0  0  0  0  0  0  0  0  0
  129.8091  125.0145   65.8874 H   0  0  0  0  0  0  0  0  0  0  0  0
  130.7894  125.4204   64.4380 H   0  0  0  0  0  0  0  0  0  0  0  0
  129.0187  125.7224   64.4380 H   0  0  0  0  0  0  0  0  0  0  0  0
  1  2  1  0
  2  3  1  0
  3  4  2  0
  4  5  1  0
  5  6  2  0
  6  7  1  0
  7  8  1  0
  8  9  2  0
  8 10  1  0
 10 11  1  0
 11 12  1  0
 12 13  2  0
 13 14  1  0
 14 15  2  0
 15 16  1  0
 16 17  2  0
 11 18  1  0
 18 19  1  0
 19 20  2  0
 20 21  1  0
 21 22  2  0
 22 23  1  0
 23 24  1  0
 24 25  2  0
 25 26  1  0
 26 27  2  0
 27 28  1  0
 28 29  2  0
 28 30  1  0
 27 31  1  0
 31 32  2  0
  6 33  1  0
 33 34  2  0
 34 35  1  0
 35 36  1  0
 36 37  1  0
 36 38  2  0
 36 39  2  0
 34  3  1  0
 18  7  1  0
 23 19  1  0
 32 24  1  0
 17 12  1  0
  1 40  1  0
  1 41  1  0
  1 42  1  0
  4 43  1  0
  5 44  1  0
 10 45  1  0
 11 46  1  1
 13 47  1  0
 14 48  1  0
 15 49  1  0
 16 50  1  0
 18 51  1  1
 20 52  1  0
 21 53  1  0
 22 54  1  0
 25 55  1  0
 26 56  1  0
 31 57  1  0
 32 58  1  0
 33 59  1  0
 35 60  1  0
 37 61  1  0
 37 62  1  0
 37 63  1  0
M  CHG  2  28   1  30  -1
M  END
>  <Binding energies>  (1) 
[-6.77]

>  <Ligand effiencies>  (1) 
[-0.16512195121951218]

>  <Interactions>  (1) 
["V-A:ASP:366:CA:3210, V-B:TYR:539:CZ:9849, V-A:ASP:366:C:3208, H-B:GLU:543:OE1:9881, H-B:TYR:539:OH:9850, V-B:TYR:539:CD2:9846, V-B:GLU:543:CD:9880, H-A:TYR:531:OH:4795, V-B:TYR:539:CE2:9848, H-B:TYR:531:OH:9767, V-A:GLU:543:CD:4908, V-A:LEU:475:CD2:4259, V-A:ASP:366:CB:3212, V-B:GLU:543:CG:9879, V-A:ASP:366:CG:3213"]

$$$$
ZINC2255526631
     RDKit          3D

 79 80  0  0  0  0  0  0  0  0999 V2000
  133.2040  131.4830   59.4320 C   0  0  0  0  0  0  0  0  0  0  0  0
  131.7900  131.3630   58.8140 C   0  0  0  0  0  0  0  0  0  0  0  0
  131.5890  129.9730   58.1580 C   0  0  0  0  0  0  0  0  0  0  0  0
  131.6070  132.4570   57.7440 C   0  0  0  0  0  0  0  0  0  0  0  0
  130.7680  131.6450   59.7900 O   0  0  0  0  0  0  0  0  0  0  0  0
  130.8660  131.4170   61.1360 C   0  0  0  0  0  0  0  0  0  0  0  0
  131.4680  132.1440   61.9270 O   0  0  0  0  0  0  0  0  0  0  0  0
  130.2100  130.2480   61.5170 N   0  0  0  0  0  0  0  0  0  0  0  0
  129.3730  129.4060   60.6480 C   0  0  0  0  0  0  0  0  0  0  0  0
  129.0250  128.0100   61.2390 C   0  0  0  0  0  0  0  0  0  0  0  0
  127.6930  127.4650   60.6370 C   0  0  0  0  0  0  0  0  0  0  0  0
  127.1650  126.2270   61.2300 N   0  0  0  0  0  0  0  0  0  0  0  0
  127.0930  124.9900   60.5960 C   0  0  0  0  0  0  0  0  0  0  0  0
  126.6890  123.9650   61.1440 O   0  0  0  0  0  0  0  0  0  0  0  0
  127.5260  125.0610   59.3000 O   0  0  0  0  0  0  0  0  0  0  0  0
  126.9080  124.4130   58.1740 C   0  0  0  0  0  0  0  0  0  0  0  0
  127.3210  125.0870   56.8430 C   0  0  0  0  0  0  0  0  0  0  0  0
  127.2240  122.8970   58.1530 C   0  0  0  0  0  0  0  0  0  0  0  0
  125.3970  124.6180   58.4030 C   0  0  0  0  0  0  0  0  0  0  0  0
  129.0990  127.9690   62.7090 N   0  0  0  0  0  0  0  0  0  0  0  0
  128.0660  128.0750   63.5690 C   0  0  0  0  0  0  0  0  0  0  0  0
  126.8890  128.1720   63.2190 O   0  0  0  0  0  0  0  0  0  0  0  0
  128.4400  128.0770   65.0280 C   0  0  0  0  0  0  0  0  0  0  0  0
  128.0510  129.1680   65.8200 C   0  0  0  0  0  0  0  0  0  0  0  0
  128.2920  129.1770   67.1910 C   0  0  0  0  0  0  0  0  0  0  0  0
  127.9000  130.2310   67.9420 F   0  0  0  0  0  0  0  0  0  0  0  0
  128.9240  128.0920   67.7900 C   0  0  0  0  0  0  0  0  0  0  0  0
  129.3290  127.0090   67.0140 C   0  0  0  0  0  0  0  0  0  0  0  0
  129.1120  126.9880   65.6300 C   0  0  0  0  0  0  0  0  0  0  0  0
  129.6760  125.7370   64.8220 B   0  0  0  0  0  0  0  0  0  0  0  0
  130.4190  125.8380   63.6680 O   0  0  0  0  0  0  0  0  0  0  0  0
  130.9740  124.5550   63.4130 C   0  0  0  0  0  0  0  0  0  0  0  0
  131.1280  124.4060   61.8830 C   0  0  0  0  0  0  0  0  0  0  0  0
  132.3660  124.5390   64.1010 C   0  0  0  0  0  0  0  0  0  0  0  0
  129.8930  123.6240   64.0640 C   0  0  0  0  0  0  0  0  0  0  0  0
  128.6300  123.3660   63.1970 C   0  0  0  0  0  0  0  0  0  0  0  0
  130.4350  122.2940   64.6390 C   0  0  0  0  0  0  0  0  0  0  0  0
  129.4680  124.4180   65.1600 O   0  0  0  0  0  0  0  0  0  0  0  0
  133.1264  131.4764   60.5292 H   0  0  0  0  0  0  0  0  0  0  0  0
  133.8212  130.6340   59.1030 H   0  0  0  0  0  0  0  0  0  0  0  0
  133.6693  132.4239   59.1030 H   0  0  0  0  0  0  0  0  0  0  0  0
  131.4786  129.2098   58.9425 H   0  0  0  0  0  0  0  0  0  0  0  0
  130.6840  129.9899   57.5330 H   0  0  0  0  0  0  0  0  0  0  0  0
  132.4618  129.7329   57.5330 H   0  0  0  0  0  0  0  0  0  0  0  0
  131.4447  133.4274   58.2358 H   0  0  0  0  0  0  0  0  0  0  0  0
  132.5087  132.5104   57.1162 H   0  0  0  0  0  0  0  0  0  0  0  0
  130.7370  132.2140   57.1162 H   0  0  0  0  0  0  0  0  0  0  0  0
  130.2580  129.9900   62.4920 H   0  0  0  0  0  0  0  0  0  0  0  0
  128.4316  129.9413   60.4553 H   0  0  0  0  0  0  0  0  0  0  0  0
  129.9588  129.2209   59.7356 H   0  0  0  0  0  0  0  0  0  0  0  0
  129.8095  127.3060   60.9245 H   0  0  0  0  0  0  0  0  0  0  0  0
  126.9277  128.2460   60.7564 H   0  0  0  0  0  0  0  0  0  0  0  0
  127.9268  127.2117   59.5924 H   0  0  0  0  0  0  0  0  0  0  0  0
  126.8900  126.2660   62.2010 H   0  0  0  0  0  0  0  0  0  0  0  0
  127.8847  126.0069   57.0573 H   0  0  0  0  0  0  0  0  0  0  0  0
  127.9517  124.3972   56.2630 H   0  0  0  0  0  0  0  0  0  0  0  0
  126.4201  125.3357   56.2630 H   0  0  0  0  0  0  0  0  0  0  0  0
  127.3017  122.5243   59.1850 H   0  0  0  0  0  0  0  0  0  0  0  0
  126.4181  122.3617   57.6295 H   0  0  0  0  0  0  0  0  0  0  0  0
  128.1766  122.7282   57.6295 H   0  0  0  0  0  0  0  0  0  0  0  0
  125.1903  124.6460   59.4830 H   0  0  0  0  0  0  0  0  0  0  0  0
  125.0821  125.5671   57.9447 H   0  0  0  0  0  0  0  0  0  0  0  0
  124.8406  123.7871   57.9447 H   0  0  0  0  0  0  0  0  0  0  0  0
  130.0250  127.8750   63.1000 H   0  0  0  0  0  0  0  0  0  0  0  0
  127.5491  130.0274   65.3514 H   0  0  0  0  0  0  0  0  0  0  0  0
  129.1036  128.0896   68.8752 H   0  0  0  0  0  0  0  0  0  0  0  0
  129.8279  126.1553   67.4959 H   0  0  0  0  0  0  0  0  0  0  0  0
  131.9027  123.6565   61.6637 H   0  0  0  0  0  0  0  0  0  0  0  0
  130.1710  124.0822   61.4480 H   0  0  0  0  0  0  0  0  0  0  0  0
  131.4200  125.3732   61.4480 H   0  0  0  0  0  0  0  0  0  0  0  0
  132.2352  124.5405   65.1932 H   0  0  0  0  0  0  0  0  0  0  0  0
  132.9141  123.6345   63.7986 H   0  0  0  0  0  0  0  0  0  0  0  0
  132.9347  125.4307   63.7986 H   0  0  0  0  0  0  0  0  0  0  0  0
  127.7648  123.1893   63.8529 H   0  0  0  0  0  0  0  0  0  0  0  0
  128.4357  124.2430   62.5621 H   0  0  0  0  0  0  0  0  0  0  0  0
  128.7952  122.4831   62.5621 H   0  0  0  0  0  0  0  0  0  0  0  0
  130.4180  122.3357   65.7381 H   0  0  0  0  0  0  0  0  0  0  0  0
  129.8045  121.4613   64.2939 H   0  0  0  0  0  0  0  0  0  0  0  0
  131.4679  122.1392   64.2939 H   0  0  0  0  0  0  0  0  0  0  0  0
  1  2  1  0
  2  3  1  0
  2  4  1  0
  2  5  1  0
  5  6  1  0
  6  7  2  0
  6  8  1  0
  8  9  1  0
  9 10  1  0
 10 11  1  0
 11 12  1  0
 12 13  1  0
 13 14  2  0
 13 15  1  0
 15 16  1  0
 16 17  1  0
 16 18  1  0
 16 19  1  0
 10 20  1  0
 20 21  1  0
 21 22  2  0
 21 23  1  0
 23 24  2  0
 24 25  1  0
 25 26  1  0
 25 27  2  0
 27 28  1  0
 28 29  2  0
 29 30  1  0
 30 31  1  0
 31 32  1  0
 32 33  1  0
 32 34  1  0
 32 35  1  0
 35 36  1  0
 35 37  1  0
 35 38  1  0
 29 23  1  0
 38 30  1  0
  1 39  1  0
  1 40  1  0
  1 41  1  0
  3 42  1  0
  3 43  1  0
  3 44  1  0
  4 45  1  0
  4 46  1  0
  4 47  1  0
  8 48  1  0
  9 49  1  0
  9 50  1  0
 10 51  1  0
 11 52  1  0
 11 53  1  0
 12 54  1  0
 17 55  1  0
 17 56  1  0
 17 57  1  0
 18 58  1  0
 18 59  1  0
 18 60  1  0
 19 61  1  0
 19 62  1  0
 19 63  1  0
 20 64  1  0
 24 65  1  0
 27 66  1  0
 28 67  1  0
 33 68  1  0
 33 69  1  0
 33 70  1  0
 34 71  1  0
 34 72  1  0
 34 73  1  0
 36 74  1  0
 36 75  1  0
 36 76  1  0
 37 77  1  0
 37 78  1  0
 37 79  1  0
M  END
>  <Binding energies>  (1) 
[-7.84]

>  <Ligand effiencies>  (1) 
[-0.19121951219512195]

>  <Interactions>  (1) 
["V-B:PRO:540:CA:9855, V-A:GLU:543:CA:4904, H-A:GLU:543:OE2:4910, H-A:ALA:541:N:4891, V-B:GLU:543:CB:9878, V-B:ALA:541:CB:9864, V-A:TYR:484:CE2:4346, V-B:GLU:543:CG:9879, V-B:TYR:539:C:9839, V-A:ASP:366:CG:3213, V-A:LEU:363:CB:3187, V-A:LEU:363:CD1:3189, V-B:TYR:484:CE2:9317, H-B:GLU:543:OE1:9881, V-A:GLU:543:CD:4908, V-B:PRO:540:CB:9857, V-A:TYR:484:CZ:4347, H-B:ASP:366:OD1:8185, V-B:HIS:456:CE1:9041, V-B:PRO:540:N:9856, V-B:TYR:484:CZ:9318, V-B:TYR:484:CD2:9315, V-A:GLU:543:CG:4907, V-B:GLU:543:CD:9880, V-A:LEU:475:CD2:4259, H-A:GLU:543:OE1:4909, H-B:ARG:545:NH2:9900, V-A:GLU:543:CB:4906, V-A:PRO:540:N:4884, H-B:GLU:543:OE2:9882, V-A:PRO:540:CA:4883, V-A:PRO:540:CB:4885, V-A:LEU:363:CA:3185, V-A:PRO:540:CD:4887, V-B:TYR:484:CE1:9316"]

$$$$
ZINC225643921
     RDKit          3D

 34 36  0  0  0  0  0  0  0  0999 V2000
  133.5950  123.9430   58.0620 O   0  0  0  0  0  0  0  0  0  0  0  0
  133.0370  124.8560   58.6700 C   0  0  0  0  0  0  0  0  0  0  0  0
  132.8090  124.8180   60.1880 C   0  0  1  0  0  0  0  0  0  0  0  0
  131.5160  124.2590   60.7990 C   0  0  1  0  0  0  0  0  0  0  0  0
  130.2950  123.9110   59.9610 C   0  0  0  0  0  0  0  0  0  0  0  0
  129.9290  124.7330   58.8940 C   0  0  0  0  0  0  0  0  0  0  0  0
  128.8070  124.4230   58.1300 C   0  0  0  0  0  0  0  0  0  0  0  0
  128.0490  123.2970   58.4430 C   0  0  0  0  0  0  0  0  0  0  0  0
  126.5150  122.8720   57.3990 Br  0  0  0  0  0  0  0  0  0  0  0  0
  128.4020  122.4780   59.5150 C   0  0  0  0  0  0  0  0  0  0  0  0
  129.5250  122.7890   60.2780 C   0  0  0  0  0  0  0  0  0  0  0  0
  132.7700  123.4450   60.8530 C   0  0  2  0  0  0  0  0  0  0  0  0
  133.6110  123.2910   62.5410 S   0  0  0  0  0  0  0  0  0  0  0  0
  133.9890  121.8920   62.7690 O   0  0  0  0  0  0  0  0  0  0  0  0
  134.6130  124.3570   62.6590 O   0  0  0  0  0  0  0  0  0  0  0  0
  132.2790  123.6790   63.6740 C   0  0  0  0  0  0  0  0  0  0  0  0
  131.1690  122.8350   63.7550 C   0  0  0  0  0  0  0  0  0  0  0  0
  130.1410  123.1280   64.6460 C   0  0  0  0  0  0  0  0  0  0  0  0
  130.2270  124.2620   65.4510 C   0  0  0  0  0  0  0  0  0  0  0  0
  131.3340  125.1060   65.3750 C   0  0  0  0  0  0  0  0  0  0  0  0
  132.3640  124.8140   64.4850 C   0  0  0  0  0  0  0  0  0  0  0  0
  132.6883  125.7327   58.1044 H   0  0  0  0  0  0  0  0  0  0  0  0
  133.3580  125.7638   60.3063 H   0  0  0  0  0  0  0  0  0  0  0  0
  130.7904  124.5970   61.5535 H   0  0  0  0  0  0  0  0  0  0  0  0
  130.5268  125.6254   58.6568 H   0  0  0  0  0  0  0  0  0  0  0  0
  128.5205  125.0642   57.2833 H   0  0  0  0  0  0  0  0  0  0  0  0
  127.7971  121.5916   59.7566 H   0  0  0  0  0  0  0  0  0  0  0  0
  129.8055  122.1517   61.1296 H   0  0  0  0  0  0  0  0  0  0  0  0
  133.0451  122.4273   60.5391 H   0  0  0  0  0  0  0  0  0  0  0  0
  131.1076  121.9414   63.1164 H   0  0  0  0  0  0  0  0  0  0  0  0
  129.2643  122.4672   64.7145 H   0  0  0  0  0  0  0  0  0  0  0  0
  129.4131  124.4937   66.1537 H   0  0  0  0  0  0  0  0  0  0  0  0
  131.3934  125.9985   66.0152 H   0  0  0  0  0  0  0  0  0  0  0  0
  133.2415  125.4742   64.4204 H   0  0  0  0  0  0  0  0  0  0  0  0
  1  2  2  0
  2  3  1  0
  3  4  1  0
  4  5  1  0
  5  6  2  0
  6  7  1  0
  7  8  2  0
  8  9  1  0
  8 10  1  0
 10 11  2  0
  4 12  1  0
 12 13  1  0
 13 14  2  0
 13 15  2  0
 13 16  1  0
 16 17  2  0
 17 18  1  0
 18 19  2  0
 19 20  1  0
 20 21  2  0
 12  3  1  0
 21 16  1  0
 11  5  1  0
  2 22  1  0
  3 23  1  1
  4 24  1  1
  6 25  1  0
  7 26  1  0
 10 27  1  0
 11 28  1  0
 12 29  1  6
 17 30  1  0
 18 31  1  0
 19 32  1  0
 20 33  1  0
 21 34  1  0
M  END
>  <Binding energies>  (1) 
[-7.42]

>  <Ligand effiencies>  (1) 
[-0.35333333333333333]

>  <Interactions>  (1) 
["V-A:ASP:366:CA:3210, V-B:PRO:540:CA:9855, V-A:GLY:454:CA:4049, V-B:TYR:539:CE2:9848, V-A:TYR:484:CE2:4346, V-B:GLU:543:CG:9879, V-B:TYR:539:C:9839, V-A:ASP:366:CG:3213, V-B:TYR:539:CZ:9849, H-B:TYR:539:OH:9850, V-A:TYR:484:CZ:4347, V-B:PRO:540:CB:9857, H-A:GLY:454:N:4050, V-B:PRO:540:N:9856, V-B:TYR:539:CD2:9846, V-B:PRO:540:CD:9859, V-A:ASP:366:CB:3212, V-A:LEU:475:CD2:4259, V-A:ARG:545:CZ:4926"]

$$$$
ZINC2258179031
     RDKit          3D

 68 68  0  0  0  0  0  0  0  0999 V2000
  131.4080  126.1920   62.5020 C   0  0  0  0  0  0  0  0  0  0  0  0
  131.7520  124.8780   62.9150 O   0  0  0  0  0  0  0  0  0  0  0  0
  132.0850  124.6220   64.2090 C   0  0  0  0  0  0  0  0  0  0  0  0
  133.2390  124.5250   64.6340 O   0  0  0  0  0  0  0  0  0  0  0  0
  130.8750  124.4130   65.1060 C   0  0  2  0  0  0  0  0  0  0  0  0
  129.5750  124.3960   64.2690 C   0  0  0  0  0  0  0  0  0  0  0  0
  129.1190  122.7010   63.5680 S   0  0  0  0  0  0  0  0  0  0  0  0
  129.7800  121.6810   64.3890 O   0  0  0  0  0  0  0  0  0  0  0  0
  127.6730  122.6460   63.3340 O   0  0  0  0  0  0  0  0  0  0  0  0
  129.9170  122.7120   61.9980 N   0  0  0  0  0  0  0  0  0  0  0  0
  129.7580  121.5250   61.1360 C   0  0  0  0  0  0  0  0  0  0  0  0
  131.0650  120.7360   60.9860 C   0  0  0  0  0  0  0  0  0  0  0  0
  132.4510  121.5840   60.1740 S   0  0  0  0  0  0  0  0  0  0  0  0
  133.9860  121.4540   61.5140 S   0  0  0  0  0  0  0  0  0  0  0  0
  134.0750  123.0960   62.2870 C   0  0  0  0  0  0  0  0  0  0  0  0
  134.2270  124.3080   61.3450 C   0  0  0  0  0  0  0  0  0  0  0  0
  134.4670  123.9560   59.9420 N   0  0  0  0  0  0  0  0  0  0  0  0
  133.6100  124.1920   58.8720 C   0  0  0  0  0  0  0  0  0  0  0  0
  133.9100  123.9550   57.7030 O   0  0  0  0  0  0  0  0  0  0  0  0
  132.4150  124.7120   59.2810 O   0  0  0  0  0  0  0  0  0  0  0  0
  131.6870  125.7580   58.6110 C   0  0  0  0  0  0  0  0  0  0  0  0
  131.4610  126.9690   59.5510 C   0  0  0  0  0  0  0  0  0  0  0  0
  132.3920  126.1930   57.3020 C   0  0  0  0  0  0  0  0  0  0  0  0
  130.3270  125.1170   58.2710 C   0  0  0  0  0  0  0  0  0  0  0  0
  130.9210  125.5360   66.0570 N   0  0  0  0  0  0  0  0  0  0  0  0
  130.1900  125.5190   67.2360 C   0  0  0  0  0  0  0  0  0  0  0  0
  129.4980  124.5900   67.6610 O   0  0  0  0  0  0  0  0  0  0  0  0
  130.3360  126.7160   67.8470 O   0  0  0  0  0  0  0  0  0  0  0  0
  129.2150  127.4750   68.2980 C   0  0  0  0  0  0  0  0  0  0  0  0
  129.1250  127.4870   69.8190 C   0  0  0  0  0  0  0  0  0  0  0  0
  127.9860  126.9830   70.4520 C   0  0  0  0  0  0  0  0  0  0  0  0
  127.9020  126.9970   71.8420 C   0  0  0  0  0  0  0  0  0  0  0  0
  128.9560  127.5160   72.5920 C   0  0  0  0  0  0  0  0  0  0  0  0
  130.0940  128.0200   71.9650 C   0  0  0  0  0  0  0  0  0  0  0  0
  130.1780  128.0070   70.5760 C   0  0  0  0  0  0  0  0  0  0  0  0
  131.2427  126.8232   63.3876 H   0  0  0  0  0  0  0  0  0  0  0  0
  132.2262  126.6129   61.8992 H   0  0  0  0  0  0  0  0  0  0  0  0
  130.4885  126.1580   61.8992 H   0  0  0  0  0  0  0  0  0  0  0  0
  130.8900  123.4475   65.6329 H   0  0  0  0  0  0  0  0  0  0  0  0
  128.7487  124.7366   64.9102 H   0  0  0  0  0  0  0  0  0  0  0  0
  129.7488  125.0558   63.4062 H   0  0  0  0  0  0  0  0  0  0  0  0
  130.8500  123.1320   61.9920 H   0  0  0  0  0  0  0  0  0  0  0  0
  128.9958  120.8664   61.5778 H   0  0  0  0  0  0  0  0  0  0  0  0
  129.4577  121.8724   60.1364 H   0  0  0  0  0  0  0  0  0  0  0  0
  131.3968  120.4485   61.9946 H   0  0  0  0  0  0  0  0  0  0  0  0
  130.8164  119.8946   60.3225 H   0  0  0  0  0  0  0  0  0  0  0  0
  133.1511  123.2402   62.8663 H   0  0  0  0  0  0  0  0  0  0  0  0
  134.9995  123.0806   62.8829 H   0  0  0  0  0  0  0  0  0  0  0  0
  133.3034  124.9031   61.3976 H   0  0  0  0  0  0  0  0  0  0  0  0
  135.1134  124.8628   61.6864 H   0  0  0  0  0  0  0  0  0  0  0  0
  135.3740  123.5720   59.7240 H   0  0  0  0  0  0  0  0  0  0  0  0
  131.5229  126.6371   60.5979 H   0  0  0  0  0  0  0  0  0  0  0  0
  132.2327  127.7295   59.3612 H   0  0  0  0  0  0  0  0  0  0  0  0
  130.4669  127.4000   59.3612 H   0  0  0  0  0  0  0  0  0  0  0  0
  133.3047  126.7561   57.5468 H   0  0  0  0  0  0  0  0  0  0  0  0
  132.6576  125.3015   56.7149 H   0  0  0  0  0  0  0  0  0  0  0  0
  131.7143  126.8302   56.7149 H   0  0  0  0  0  0  0  0  0  0  0  0
  129.7966  124.8670   59.2017 H   0  0  0  0  0  0  0  0  0  0  0  0
  129.7240  125.8257   57.6843 H   0  0  0  0  0  0  0  0  0  0  0  0
  130.4899  124.2009   57.6843 H   0  0  0  0  0  0  0  0  0  0  0  0
  131.3840  126.3880   65.7790 H   0  0  0  0  0  0  0  0  0  0  0  0
  129.3153  128.5094   67.9376 H   0  0  0  0  0  0  0  0  0  0  0  0
  128.3006  127.0094   67.9016 H   0  0  0  0  0  0  0  0  0  0  0  0
  127.1574  126.5760   69.8538 H   0  0  0  0  0  0  0  0  0  0  0  0
  127.0081  126.6004   72.3456 H   0  0  0  0  0  0  0  0  0  0  0  0
  128.8889  127.5279   73.6899 H   0  0  0  0  0  0  0  0  0  0  0  0
  130.9217  128.4261   72.5650 H   0  0  0  0  0  0  0  0  0  0  0  0
  131.0723  128.4056   70.0746 H   0  0  0  0  0  0  0  0  0  0  0  0
  1  2  1  0
  2  3  1  0
  3  4  2  0
  3  5  1  0
  5  6  1  0
  6  7  1  0
  7  8  2  0
  7  9  2  0
  7 10  1  0
 10 11  1  0
 11 12  1  0
 12 13  1  0
 13 14  1  0
 14 15  1  0
 15 16  1  0
 16 17  1  0
 17 18  1  0
 18 19  2  0
 18 20  1  0
 20 21  1  0
 21 22  1  0
 21 23  1  0
 21 24  1  0
  5 25  1  0
 25 26  1  0
 26 27  2  0
 26 28  1  0
 28 29  1  0
 29 30  1  0
 30 31  2  0
 31 32  1  0
 32 33  2  0
 33 34  1  0
 34 35  2  0
 35 30  1  0
  1 36  1  0
  1 37  1  0
  1 38  1  0
  5 39  1  1
  6 40  1  0
  6 41  1  0
 10 42  1  0
 11 43  1  0
 11 44  1  0
 12 45  1  0
 12 46  1  0
 15 47  1  0
 15 48  1  0
 16 49  1  0
 16 50  1  0
 17 51  1  0
 22 52  1  0
 22 53  1  0
 22 54  1  0
 23 55  1  0
 23 56  1  0
 23 57  1  0
 24 58  1  0
 24 59  1  0
 24 60  1  0
 25 61  1  0
 29 62  1  0
 29 63  1  0
 31 64  1  0
 32 65  1  0
 33 66  1  0
 34 67  1  0
 35 68  1  0
M  END
>  <Binding energies>  (1) 
[-7.2]

>  <Ligand effiencies>  (1) 
[-0.18947368421052632]

>  <Interactions>  (1) 
["V-A:ILE:369:CG2:3237, V-A:ASP:366:CA:3210, V-A:GLY:454:CA:4049, V-B:GLU:543:C:9874, H-A:GLU:543:OE2:4910, V-A:GLU:543:C:4902, V-B:HIS:456:CD2:9039, V-A:ILE:369:CB:3236, V-B:GLU:543:CB:9878, V-B:ALA:541:CB:9864, V-B:TYR:539:CE2:9848, V-B:GLU:543:CG:9879, V-A:GLY:544:C:4912, V-A:ASP:366:CG:3213, V-B:TYR:539:CZ:9849, H-A:ASN:370:N:3244, H-B:TYR:539:OH:9850, H-B:ALA:541:N:9863, V-A:TYR:484:CZ:4347, V-A:GLU:543:CD:4908, V-B:HIS:456:CE1:9041, H-A:GLY:454:N:4050, V-A:HIS:456:CE1:4070, V-A:ILE:369:CD1:3239, V-B:GLY:544:C:9884, V-B:TYR:539:CD2:9846, V-A:TYR:531:CZ:4794, V-B:GLU:543:CD:9880, V-A:ILE:369:CG1:3238, V-A:ASP:366:CB:3212, V-A:LEU:475:CD2:4259, H-A:ARG:545:NH2:4928, H-A:GLU:543:OE1:4909, V-A:GLU:543:CB:4906, H-A:TYR:484:OH:4348"]

$$$$
ZINC226328977
     RDKit          3D

 76 80  0  0  0  0  0  0  0  0999 V2000
  126.5000  123.1490   57.3790 C   0  0  0  0  0  0  0  0  0  0  0  0
  127.7460  123.0140   58.2800 C   0  0  0  0  0  0  0  0  0  0  0  0
  128.0940  124.2500   59.1690 C   0  0  1  0  0  0  0  0  0  0  0  0
  129.2490  124.8000   58.5510 O   0  0  0  0  0  0  0  0  0  0  0  0
  126.9290  125.2720   59.1480 C   0  0  0  0  0  0  0  0  0  0  0  0
  127.2990  126.6180   59.8010 C   0  0  2  0  0  0  0  0  0  0  0  0
  128.2640  127.2510   58.9520 O   0  0  0  0  0  0  0  0  0  0  0  0
  128.8730  128.4480   59.3230 C   0  0  2  0  0  0  0  0  0  0  0  0
  129.7990  128.8070   58.1550 C   0  0  0  0  0  0  0  0  0  0  0  0
  130.6160  130.0710   58.4900 C   0  0  2  0  0  0  0  0  0  0  0  0
  131.5550  130.3780   57.2840 N   0  0  0  0  0  0  0  0  0  0  0  0
  133.0710  130.3470   57.5710 C   0  0  0  0  0  0  0  0  0  0  0  0
  131.1670  131.6520   56.5070 C   0  0  0  0  0  0  0  0  0  0  0  0
  131.3770  129.8790   59.8280 C   0  0  1  0  0  0  0  0  0  0  0  0
  132.1630  130.9880   60.2260 O   0  0  0  0  0  0  0  0  0  0  0  0
  130.3920  129.4160   60.9300 C   0  0  1  0  0  0  0  0  0  0  0  0
  129.5030  130.5370   61.5120 C   0  0  0  0  0  0  0  0  0  0  0  0
  129.6500  128.2630   60.4870 O   0  0  0  0  0  0  0  0  0  0  0  0
  127.8050  126.4100   61.2620 C   0  0  0  0  0  0  0  0  0  0  0  0
  128.4680  125.1990   61.5810 C   0  0  0  0  0  0  0  0  0  0  0  0
  129.1200  125.0960   62.8060 C   0  0  0  0  0  0  0  0  0  0  0  0
  129.0990  126.1000   63.7720 C   0  0  0  0  0  0  0  0  0  0  0  0
  128.3620  127.2830   63.5330 C   0  0  0  0  0  0  0  0  0  0  0  0
  127.6850  127.4040   62.2760 C   0  0  0  0  0  0  0  0  0  0  0  0
  126.9070  128.3960   62.0290 O   0  0  0  0  0  0  0  0  0  0  0  0
  128.3510  128.3460   64.6410 C   0  0  0  0  0  0  0  0  0  0  0  0
  127.9650  129.4990   64.4360 O   0  0  0  0  0  0  0  0  0  0  0  0
  128.7010  127.8920   66.0420 C   0  0  0  0  0  0  0  0  0  0  0  0
  128.3270  128.6320   67.1920 C   0  0  0  0  0  0  0  0  0  0  0  0
  127.6030  129.7980   67.1300 O   0  0  0  0  0  0  0  0  0  0  0  0
  128.6800  128.1930   68.4670 C   0  0  0  0  0  0  0  0  0  0  0  0
  129.4000  127.0180   68.6330 C   0  0  0  0  0  0  0  0  0  0  0  0
  129.7680  126.2730   67.5200 C   0  0  0  0  0  0  0  0  0  0  0  0
  129.4290  126.6910   66.2240 C   0  0  0  0  0  0  0  0  0  0  0  0
  129.8310  125.8400   65.0610 C   0  0  0  0  0  0  0  0  0  0  0  0
  130.6040  124.8860   65.1960 O   0  0  0  0  0  0  0  0  0  0  0  0
  128.4560  123.9510   60.6630 C   0  0  1  0  0  0  0  0  0  0  0  0
  127.5290  122.9030   61.3320 C   0  0  0  0  0  0  0  0  0  0  0  0
  126.4310  123.2020   61.8100 O   0  0  0  0  0  0  0  0  0  0  0  0
  128.0670  121.6650   61.3200 O   0  0  0  0  0  0  0  0  0  0  0  0
  129.4400  121.4710   61.6270 C   0  0  0  0  0  0  0  0  0  0  0  0
  125.6022  123.2463   58.0070 H   0  0  0  0  0  0  0  0  0  0  0  0
  126.6017  124.0414   56.7439 H   0  0  0  0  0  0  0  0  0  0  0  0
  126.4082  122.2555   56.7439 H   0  0  0  0  0  0  0  0  0  0  0  0
  127.5850  122.1552   58.9482 H   0  0  0  0  0  0  0  0  0  0  0  0
  128.5956  122.8999   57.5906 H   0  0  0  0  0  0  0  0  0  0  0  0
  129.2790  125.7380   58.7560 H   0  0  0  0  0  0  0  0  0  0  0  0
  126.6429  125.4564   58.1020 H   0  0  0  0  0  0  0  0  0  0  0  0
  126.1010  124.8401   59.7293 H   0  0  0  0  0  0  0  0  0  0  0  0
  126.4202  127.2731   59.8935 H   0  0  0  0  0  0  0  0  0  0  0  0
  128.1299  129.2312   59.5339 H   0  0  0  0  0  0  0  0  0  0  0  0
  130.4868  127.9696   57.9664 H   0  0  0  0  0  0  0  0  0  0  0  0
  129.1887  129.0015   57.2608 H   0  0  0  0  0  0  0  0  0  0  0  0
  129.9598  130.9411   58.6395 H   0  0  0  0  0  0  0  0  0  0  0  0
  131.3860  129.6200   56.6370 H   0  0  0  0  0  0  0  0  0  0  0  0
  133.2384  130.3436   58.6582 H   0  0  0  0  0  0  0  0  0  0  0  0
  133.5092  129.4397   57.1297 H   0  0  0  0  0  0  0  0  0  0  0  0
  133.5460  131.2356   57.1297 H   0  0  0  0  0  0  0  0  0  0  0  0
  130.9225  132.4549   57.2180 H   0  0  0  0  0  0  0  0  0  0  0  0
  132.0100  131.9667   55.8743 H   0  0  0  0  0  0  0  0  0  0  0  0
  130.2917  131.4433   55.8743 H   0  0  0  0  0  0  0  0  0  0  0  0
  132.1216  129.0872   59.6587 H   0  0  0  0  0  0  0  0  0  0  0  0
  132.9620  130.6620   60.6460 H   0  0  0  0  0  0  0  0  0  0  0  0
  131.0032  129.1141   61.7933 H   0  0  0  0  0  0  0  0  0  0  0  0
  129.5348  130.4969   62.6108 H   0  0  0  0  0  0  0  0  0  0  0  0
  129.8743  131.5143   61.1698 H   0  0  0  0  0  0  0  0  0  0  0  0
  128.4668  130.3981   61.1698 H   0  0  0  0  0  0  0  0  0  0  0  0
  129.6807  124.1748   63.0229 H   0  0  0  0  0  0  0  0  0  0  0  0
  127.0990  129.8820   66.3180 H   0  0  0  0  0  0  0  0  0  0  0  0
  128.3858  128.7821   69.3481 H   0  0  0  0  0  0  0  0  0  0  0  0
  129.6780  126.6783   69.6416 H   0  0  0  0  0  0  0  0  0  0  0  0
  130.3345  125.3400   67.6567 H   0  0  0  0  0  0  0  0  0  0  0  0
  129.4774  123.5521   60.5761 H   0  0  0  0  0  0  0  0  0  0  0  0
  129.5725  121.4523   62.7188 H   0  0  0  0  0  0  0  0  0  0  0  0
  129.7798  120.5159   61.2000 H   0  0  0  0  0  0  0  0  0  0  0  0
  130.0311  122.2945   61.2000 H   0  0  0  0  0  0  0  0  0  0  0  0
  1  2  1  0
  2  3  1  0
  3  4  1  6
  3  5  1  0
  5  6  1  0
  6  7  1  0
  7  8  1  0
  8  9  1  0
  9 10  1  0
 10 11  1  0
 11 12  1  0
 11 13  1  0
 10 14  1  0
 14 15  1  0
 14 16  1  0
 16 17  1  0
 16 18  1  0
  6 19  1  0
 19 20  2  0
 20 21  1  0
 21 22  2  0
 22 23  1  0
 23 24  2  0
 24 25  1  0
 23 26  1  0
 26 27  2  0
 26 28  1  0
 28 29  2  0
 29 30  1  0
 29 31  1  0
 31 32  2  0
 32 33  1  0
 33 34  2  0
 34 35  1  0
 35 36  2  0
 20 37  1  0
 37 38  1  0
 38 39  2  0
 38 40  1  0
 40 41  1  0
 37  3  1  0
 18  8  1  0
 24 19  1  0
 34 28  1  0
 35 22  1  0
  1 42  1  0
  1 43  1  0
  1 44  1  0
  2 45  1  0
  2 46  1  0
  4 47  1  0
  5 48  1  0
  5 49  1  0
  6 50  1  1
  8 51  1  1
  9 52  1  0
  9 53  1  0
 10 54  1  1
 11 55  1  0
 12 56  1  0
 12 57  1  0
 12 58  1  0
 13 59  1  0
 13 60  1  0
 13 61  1  0
 14 62  1  6
 15 63  1  0
 16 64  1  1
 17 65  1  0
 17 66  1  0
 17 67  1  0
 21 68  1  0
 30 69  1  0
 31 70  1  0
 32 71  1  0
 33 72  1  0
 37 73  1  6
 41 74  1  0
 41 75  1  0
 41 76  1  0
M  CHG  2  11   1  25  -1
M  END
>  <Binding energies>  (1) 
[-7.07]

>  <Ligand effiencies>  (1) 
[-0.15711111111111112]

>  <Interactions>  (1) 
["V-B:PRO:540:CA:9855, V-B:GLU:543:CB:9878, V-B:ALA:541:CB:9864, H-A:TYR:531:OH:4795, V-B:TYR:539:CE2:9848, V-B:GLU:543:CG:9879, V-B:TYR:539:C:9839, V-A:ASP:366:CG:3213, V-A:LEU:363:CD1:3189, V-A:TYR:531:CE2:4793, H-B:ALA:541:N:9863, V-A:GLU:543:CD:4908, V-B:PRO:540:CB:9857, H-B:TYR:484:OH:9319, V-B:HIS:456:CE1:9041, V-B:PRO:540:N:9856, V-A:HIS:456:CE1:4070, V-B:TYR:539:CD2:9846, V-A:GLU:543:CG:4907, V-A:TYR:531:CZ:4794, V-B:GLU:543:CD:9880, V-A:MET:535:CE:4835, V-A:ASP:366:CB:3212, V-A:LEU:475:CD2:4259, V-A:GLU:543:CB:4906, H-B:GLU:543:OE2:9882, V-B:PRO:540:C:9853, H-A:ASP:366:OD2:3215, H-A:TYR:484:OH:4348"]

$$$$
ZINC226328977-again1
     RDKit          3D

 77 81  0  0  0  0  0  0  0  0999 V2000
  132.9690  120.6230   60.3440 C   0  0  0  0  0  0  0  0  0  0  0  0
  133.1830  121.5350   61.5720 C   0  0  0  0  0  0  0  0  0  0  0  0
  132.2850  122.8120   61.6720 C   0  0  1  0  0  0  0  0  0  0  0  0
  131.0040  122.3650   61.2510 O   0  0  0  0  0  0  0  0  0  0  0  0
  132.2300  123.3860   63.1060 C   0  0  0  0  0  0  0  0  0  0  0  0
  131.1460  124.4780   63.2520 C   0  0  2  0  0  0  0  0  0  0  0  0
  129.7980  123.9970   63.2210 O   0  0  0  0  0  0  0  0  0  0  0  0
  129.1230  124.0160   62.0000 C   0  0  2  0  0  0  0  0  0  0  0  0
  128.2450  125.2660   62.0160 C   0  0  0  0  0  0  0  0  0  0  0  0
  127.4640  125.3780   60.6820 C   0  0  2  0  0  0  0  0  0  0  0  0
  126.4560  126.5740   60.7020 N   0  0  0  0  0  0  0  0  0  0  0  0
  126.5040  127.3850   59.3860 C   0  0  0  0  0  0  0  0  0  0  0  0
  126.5520  127.5610   61.8880 C   0  0  0  0  0  0  0  0  0  0  0  0
  126.6730  124.0590   60.4500 C   0  0  1  0  0  0  0  0  0  0  0  0
  125.9260  124.0110   59.2480 O   0  0  0  0  0  0  0  0  0  0  0  0
  127.5820  122.8120   60.6240 C   0  0  1  0  0  0  0  0  0  0  0  0
  128.5030  122.5000   59.4220 C   0  0  0  0  0  0  0  0  0  0  0  0
  128.2970  122.8840   61.8670 O   0  0  0  0  0  0  0  0  0  0  0  0
  131.2810  125.5610   62.1620 C   0  0  0  0  0  0  0  0  0  0  0  0
  131.9730  125.2930   60.9570 C   0  0  0  0  0  0  0  0  0  0  0  0
  131.9790  126.2690   59.9610 C   0  0  0  0  0  0  0  0  0  0  0  0
  131.3310  127.4990   60.0960 C   0  0  0  0  0  0  0  0  0  0  0  0
  130.6210  127.7780   61.2830 C   0  0  0  0  0  0  0  0  0  0  0  0
  130.6100  126.7920   62.3010 C   0  0  0  0  0  0  0  0  0  0  0  0
  129.9300  127.0010   63.4810 O   0  0  0  0  0  0  0  0  0  0  0  0
  129.8950  129.1050   61.4280 C   0  0  0  0  0  0  0  0  0  0  0  0
  129.1160  129.3140   62.3590 O   0  0  0  0  0  0  0  0  0  0  0  0
  130.2520  130.2020   60.4460 C   0  0  0  0  0  0  0  0  0  0  0  0
  129.8840  131.5540   60.6630 C   0  0  0  0  0  0  0  0  0  0  0  0
  129.1940  131.9760   61.7750 O   0  0  0  0  0  0  0  0  0  0  0  0
  130.2180  132.5420   59.7390 C   0  0  0  0  0  0  0  0  0  0  0  0
  130.9240  132.2200   58.5890 C   0  0  0  0  0  0  0  0  0  0  0  0
  131.3010  130.9050   58.3580 C   0  0  0  0  0  0  0  0  0  0  0  0
  130.9770  129.8850   59.2690 C   0  0  0  0  0  0  0  0  0  0  0  0
  131.4270  128.4860   58.9690 C   0  0  0  0  0  0  0  0  0  0  0  0
  131.9460  128.1910   57.8890 O   0  0  0  0  0  0  0  0  0  0  0  0
  132.7310  123.9650   60.7090 C   0  0  1  0  0  0  0  0  0  0  0  0
  134.2590  124.2410   60.6940 C   0  0  0  0  0  0  0  0  0  0  0  0
  134.8790  124.3640   61.7530 O   0  0  0  0  0  0  0  0  0  0  0  0
  134.7980  124.3300   59.4550 O   0  0  0  0  0  0  0  0  0  0  0  0
  133.9690  124.3200   58.3030 C   0  0  0  0  0  0  0  0  0  0  0  0
  132.7298  119.6037   60.6815 H   0  0  0  0  0  0  0  0  0  0  0  0
  132.1380  121.0130   59.7380 H   0  0  0  0  0  0  0  0  0  0  0  0
  133.8868  120.6027   59.7380 H   0  0  0  0  0  0  0  0  0  0  0  0
  132.9999  120.9290   62.4716 H   0  0  0  0  0  0  0  0  0  0  0  0
  134.2104  121.9149   61.4707 H   0  0  0  0  0  0  0  0  0  0  0  0
  130.4290  122.3240   62.0190 H   0  0  0  0  0  0  0  0  0  0  0  0
  132.0071  122.5684   63.8074 H   0  0  0  0  0  0  0  0  0  0  0  0
  133.2055  123.8444   63.3259 H   0  0  0  0  0  0  0  0  0  0  0  0
  131.3320  124.8925   64.2538 H   0  0  0  0  0  0  0  0  0  0  0  0
  129.8387  124.0155   61.1647 H   0  0  0  0  0  0  0  0  0  0  0  0
  127.5326  125.2008   62.8516 H   0  0  0  0  0  0  0  0  0  0  0  0
  128.8816  126.1546   62.1391 H   0  0  0  0  0  0  0  0  0  0  0  0
  128.1888  125.5519   59.8731 H   0  0  0  0  0  0  0  0  0  0  0  0
  125.5360  126.1590   60.7510 H   0  0  0  0  0  0  0  0  0  0  0  0
  126.5675  128.4582   59.6188 H   0  0  0  0  0  0  0  0  0  0  0  0
  127.3859  127.0837   58.8016 H   0  0  0  0  0  0  0  0  0  0  0  0
  125.5927  127.1899   58.8016 H   0  0  0  0  0  0  0  0  0  0  0  0
  126.4977  127.0032   62.8345 H   0  0  0  0  0  0  0  0  0  0  0  0
  127.5072  128.1041   61.8367 H   0  0  0  0  0  0  0  0  0  0  0  0
  125.7194  128.2780   61.8367 H   0  0  0  0  0  0  0  0  0  0  0  0
  125.9097  124.0440   61.2420 H   0  0  0  0  0  0  0  0  0  0  0  0
  126.5280  124.0980   58.5050 H   0  0  0  0  0  0  0  0  0  0  0  0
  126.9055  121.9452   60.6556 H   0  0  0  0  0  0  0  0  0  0  0  0
  129.4851  122.1673   59.7892 H   0  0  0  0  0  0  0  0  0  0  0  0
  128.0514  121.7047   58.8108 H   0  0  0  0  0  0  0  0  0  0  0  0
  128.6278  123.4060   58.8108 H   0  0  0  0  0  0  0  0  0  0  0  0
  132.5191  126.0606   59.0257 H   0  0  0  0  0  0  0  0  0  0  0  0
  129.9690  127.9110   63.7800 H   0  0  0  0  0  0  0  0  0  0  0  0
  129.2010  131.3340   62.4870 H   0  0  0  0  0  0  0  0  0  0  0  0
  129.9198  133.5847   59.9227 H   0  0  0  0  0  0  0  0  0  0  0  0
  131.1839  133.0044   57.8630 H   0  0  0  0  0  0  0  0  0  0  0  0
  131.8633  130.6563   57.4459 H   0  0  0  0  0  0  0  0  0  0  0  0
  132.4584  123.5767   59.7165 H   0  0  0  0  0  0  0  0  0  0  0  0
  132.9131  124.3073   58.6112 H   0  0  0  0  0  0  0  0  0  0  0  0
  134.1649  125.2206   57.7025 H   0  0  0  0  0  0  0  0  0  0  0  0
  134.1865  123.4244   57.7025 H   0  0  0  0  0  0  0  0  0  0  0  0
  1  2  1  0
  2  3  1  0
  3  4  1  6
  3  5  1  0
  5  6  1  0
  6  7  1  0
  7  8  1  0
  8  9  1  0
  9 10  1  0
 10 11  1  0
 11 12  1  0
 11 13  1  0
 10 14  1  0
 14 15  1  0
 14 16  1  0
 16 17  1  0
 16 18  1  0
  6 19  1  0
 19 20  2  0
 20 21  1  0
 21 22  2  0
 22 23  1  0
 23 24  2  0
 24 25  1  0
 23 26  1  0
 26 27  2  0
 26 28  1  0
 28 29  2  0
 29 30  1  0
 29 31  1  0
 31 32  2  0
 32 33  1  0
 33 34  2  0
 34 35  1  0
 35 36  2  0
 20 37  1  0
 37 38  1  0
 38 39  2  0
 38 40  1  0
 40 41  1  0
 37  3  1  0
 18  8  1  0
 24 19  1  0
 34 28  1  0
 35 22  1  0
  1 42  1  0
  1 43  1  0
  1 44  1  0
  2 45  1  0
  2 46  1  0
  4 47  1  0
  5 48  1  0
  5 49  1  0
  6 50  1  1
  8 51  1  6
  9 52  1  0
  9 53  1  0
 10 54  1  6
 11 55  1  0
 12 56  1  0
 12 57  1  0
 12 58  1  0
 13 59  1  0
 13 60  1  0
 13 61  1  0
 14 62  1  1
 15 63  1  0
 16 64  1  1
 17 65  1  0
 17 66  1  0
 17 67  1  0
 21 68  1  0
 25 69  1  0
 30 70  1  0
 31 71  1  0
 32 72  1  0
 33 73  1  0
 37 74  1  6
 41 75  1  0
 41 76  1  0
 41 77  1  0
M  CHG  1  11   1
M  END
>  <Binding energies>  (1) 
[-6.59]

>  <Ligand effiencies>  (1) 
[-0.14326086956521739]

>  <Interactions>  (1) 
["V-A:ILE:369:CG2:3237, V-A:ASP:366:CA:3210, V-B:PRO:540:CA:9855, H-A:GLU:543:OE2:4910, V-A:ILE:369:CB:3236, V-B:ASP:366:CG:8184, H-A:TYR:531:OH:4795, V-B:TYR:539:CE2:9848, V-B:TYR:539:C:9839, V-A:ASP:366:CG:3213, H-B:GLU:543:OE1:9881, H-B:ALA:541:N:9863, V-A:GLU:543:CD:4908, V-B:PRO:540:CB:9857, H-B:ASP:366:OD1:8185, H-A:GLY:454:N:4050, V-B:PRO:540:N:9856, V-A:ILE:369:CD1:3239, V-A:ASP:366:C:3208, V-B:TYR:539:CD2:9846, V-A:SER:385:CB:3409, V-B:GLU:543:CD:9880, V-A:TYR:539:C:4867, V-A:ASP:366:CB:3212, V-A:LEU:475:CD2:4259, H-A:GLU:543:OE1:4909, V-A:PRO:540:N:4884, V-A:PRO:540:CB:4885, V-A:PRO:540:CA:4883, V-B:PRO:540:C:9853"]

$$$$
ZINC2265328757-again1
     RDKit          3D

 46 47  0  0  0  0  0  0  0  0999 V2000
  129.4950  130.6670   73.3050 C   0  0  0  0  0  0  0  0  0  0  0  0
  130.1590  129.4750   72.8990 O   0  0  0  0  0  0  0  0  0  0  0  0
  129.4800  128.5230   72.1460 C   0  0  0  0  0  0  0  0  0  0  0  0
  129.6420  128.4030   70.7530 C   0  0  0  0  0  0  0  0  0  0  0  0
  128.9330  127.4510   70.0060 C   0  0  0  0  0  0  0  0  0  0  0  0
  129.0750  127.3220   68.5380 C   0  0  0  0  0  0  0  0  0  0  0  0
  129.5740  126.2530   67.8830 C   0  0  0  0  0  0  0  0  0  0  0  0
  129.7430  126.2000   66.4310 C   0  0  0  0  0  0  0  0  0  0  0  0
  129.0180  126.8240   65.6540 O   0  0  0  0  0  0  0  0  0  0  0  0
  130.8600  125.3220   65.8370 C   0  0  0  0  0  0  0  0  0  0  0  0
  130.3500  124.1160   65.0290 C   0  0  0  0  0  0  0  0  0  0  0  0
  129.5810  123.3190   65.5670 O   0  0  0  0  0  0  0  0  0  0  0  0
  130.8070  123.9800   63.6500 C   0  0  0  0  0  0  0  0  0  0  0  0
  131.9130  124.5930   63.1760 C   0  0  0  0  0  0  0  0  0  0  0  0
  132.4590  124.4780   61.8060 C   0  0  0  0  0  0  0  0  0  0  0  0
  133.4490  123.5460   61.4640 C   0  0  0  0  0  0  0  0  0  0  0  0
  133.9450  123.4840   60.1640 C   0  0  0  0  0  0  0  0  0  0  0  0
  133.4620  124.3520   59.1860 C   0  0  0  0  0  0  0  0  0  0  0  0
  133.9750  124.2700   57.9170 O   0  0  0  0  0  0  0  0  0  0  0  0
  132.4700  125.2920   59.4970 C   0  0  0  0  0  0  0  0  0  0  0  0
  132.0330  126.1210   58.4780 O   0  0  0  0  0  0  0  0  0  0  0  0
  131.5380  127.4170   58.7950 C   0  0  0  0  0  0  0  0  0  0  0  0
  131.9790  125.3410   60.8140 C   0  0  0  0  0  0  0  0  0  0  0  0
  128.0520  126.5980   70.6720 C   0  0  0  0  0  0  0  0  0  0  0  0
  127.8840  126.6860   72.0520 C   0  0  0  0  0  0  0  0  0  0  0  0
  128.5890  127.6410   72.7930 C   0  0  0  0  0  0  0  0  0  0  0  0
  128.3970  127.6840   74.0550 O   0  0  0  0  0  0  0  0  0  0  0  0
  129.4679  130.7156   74.4036 H   0  0  0  0  0  0  0  0  0  0  0  0
  130.0366  131.5403   72.9126 H   0  0  0  0  0  0  0  0  0  0  0  0
  128.4674  130.6661   72.9126 H   0  0  0  0  0  0  0  0  0  0  0  0
  130.3438  129.0741   70.2362 H   0  0  0  0  0  0  0  0  0  0  0  0
  128.7440  128.1742   67.9263 H   0  0  0  0  0  0  0  0  0  0  0  0
  129.8699  125.3732   68.4733 H   0  0  0  0  0  0  0  0  0  0  0  0
  131.4745  125.9476   65.1728 H   0  0  0  0  0  0  0  0  0  0  0  0
  131.4293  124.9163   66.6863 H   0  0  0  0  0  0  0  0  0  0  0  0
  130.2232  123.3484   62.9642 H   0  0  0  0  0  0  0  0  0  0  0  0
  132.4609  125.2405   63.8764 H   0  0  0  0  0  0  0  0  0  0  0  0
  133.8374  122.8577   62.2291 H   0  0  0  0  0  0  0  0  0  0  0  0
  134.7208  122.7473   59.9081 H   0  0  0  0  0  0  0  0  0  0  0  0
  133.9270  125.1000   57.4380 H   0  0  0  0  0  0  0  0  0  0  0  0
  131.4929  127.5351   59.8877 H   0  0  0  0  0  0  0  0  0  0  0  0
  132.2083  128.1793   58.3712 H   0  0  0  0  0  0  0  0  0  0  0  0
  130.5302  127.5384   58.3712 H   0  0  0  0  0  0  0  0  0  0  0  0
  131.2001  126.0742   61.0703 H   0  0  0  0  0  0  0  0  0  0  0  0
  127.4843  125.8483   70.1013 H   0  0  0  0  0  0  0  0  0  0  0  0
  127.1923  126.0000   72.5628 H   0  0  0  0  0  0  0  0  0  0  0  0
  1  2  1  0
  2  3  1  0
  3  4  2  0
  4  5  1  0
  5  6  1  0
  6  7  2  0
  7  8  1  0
  8  9  2  0
  8 10  1  0
 10 11  1  0
 11 12  2  0
 11 13  1  0
 13 14  2  0
 14 15  1  0
 15 16  2  0
 16 17  1  0
 17 18  2  0
 18 19  1  0
 18 20  1  0
 20 21  1  0
 21 22  1  0
 20 23  2  0
  5 24  2  0
 24 25  1  0
 25 26  2  0
 26 27  1  0
 26  3  1  0
 23 15  1  0
  1 28  1  0
  1 29  1  0
  1 30  1  0
  4 31  1  0
  6 32  1  0
  7 33  1  0
 10 34  1  0
 10 35  1  0
 13 36  1  0
 14 37  1  0
 16 38  1  0
 17 39  1  0
 19 40  1  0
 22 41  1  0
 22 42  1  0
 22 43  1  0
 23 44  1  0
 24 45  1  0
 25 46  1  0
M  CHG  1  27  -1
M  END
>  <Binding energies>  (1) 
[-7.92]

>  <Ligand effiencies>  (1) 
[-0.28285714285714286]

>  <Interactions>  (1) 
["V-A:ILE:369:CG2:3237, V-A:ASP:366:CA:3210, V-B:GLU:543:C:9874, V-A:ILE:369:CB:3236, V-A:GLU:543:C:4902, V-B:HIS:456:CD2:9039, V-B:GLU:543:CB:9878, H-B:LYS:547:NZ:9923, H-A:TYR:531:OH:4795, V-A:TYR:484:CE2:4346, V-B:TYR:539:CE2:9848, V-B:GLU:543:CG:9879, V-A:ASP:366:CG:3213, H-A:ASN:370:N:3244, H-B:TYR:539:OH:9850, V-B:LYS:547:CE:9922, V-A:GLU:543:CD:4908, V-B:HIS:456:CE1:9041, V-A:ILE:369:CD1:3239, V-A:HIS:456:CE1:4070, V-B:GLY:544:C:9884, V-B:GLY:544:CA:9886, V-B:GLU:543:CD:9880, V-A:ASP:366:CB:3212, H-A:LYS:547:NZ:4951, H-A:ASP:366:O:3209, V-A:LYS:547:CE:4950, H-A:TYR:484:OH:4348"]

$$$$
ZINC2265364113
     RDKit          3D

 75 77  0  0  0  0  0  0  0  0999 V2000
  127.8290  130.4880   65.1570 O   0  0  0  0  0  0  0  0  0  0  0  0
  127.9740  129.3280   65.5500 C   0  0  0  0  0  0  0  0  0  0  0  0
  128.3300  128.1750   64.5970 C   0  0  0  0  0  0  0  0  0  0  0  0
  128.1300  128.4370   63.0850 C   0  0  0  0  0  0  0  0  0  0  0  0
  129.4110  128.1400   62.2820 N   0  0  0  0  0  0  0  0  0  0  0  0
  129.3460  128.6120   60.8210 C   0  0  0  0  0  0  0  0  0  0  0  0
  129.3180  127.3820   59.8880 C   0  0  0  0  0  0  0  0  0  0  0  0
  130.4380  126.3550   60.1800 C   0  0  0  0  0  0  0  0  0  0  0  0
  131.2560  126.6160   61.0670 O   0  0  0  0  0  0  0  0  0  0  0  0
  130.4660  125.1750   59.4930 N   0  0  0  0  0  0  0  0  0  0  0  0
  131.7650  124.4830   59.2810 C   0  0  0  0  0  0  0  0  0  0  0  0
  132.4250  123.8400   60.5300 C   0  0  0  0  0  0  0  0  0  0  0  0
  133.7050  124.2690   60.8980 C   0  0  0  0  0  0  0  0  0  0  0  0
  134.3600  123.7010   61.9920 C   0  0  0  0  0  0  0  0  0  0  0  0
  133.7460  122.6920   62.7300 C   0  0  0  0  0  0  0  0  0  0  0  0
  132.4700  122.2460   62.3810 C   0  0  0  0  0  0  0  0  0  0  0  0
  131.8100  122.8120   61.2880 C   0  0  0  0  0  0  0  0  0  0  0  0
  130.4680  122.3850   60.9350 C   0  0  0  0  0  0  0  0  0  0  0  0
  129.4570  122.5650   60.2800 C   0  0  0  0  0  0  0  0  0  0  0  0
  128.7590  123.3580   59.2800 C   0  0  0  0  0  0  0  0  0  0  0  0
  127.5990  122.8650   58.6800 C   0  0  0  0  0  0  0  0  0  0  0  0
  126.9580  123.6040   57.6860 C   0  0  0  0  0  0  0  0  0  0  0  0
  127.4790  124.8320   57.2810 C   0  0  0  0  0  0  0  0  0  0  0  0
  128.6370  125.3330   57.8740 C   0  0  0  0  0  0  0  0  0  0  0  0
  129.2890  124.6180   58.8890 C   0  0  0  0  0  0  0  0  0  0  0  0
  127.8430  128.9020   66.8230 O   0  0  0  0  0  0  0  0  0  0  0  0
  128.6740  127.8630   67.3310 C   0  0  0  0  0  0  0  0  0  0  0  0
  128.0190  127.3030   68.5980 C   0  0  0  0  0  0  0  0  0  0  0  0
  129.0190  127.1530   69.5950 O   0  0  0  0  0  0  0  0  0  0  0  0
  129.6720  128.3690   69.9370 C   0  0  0  0  0  0  0  0  0  0  0  0
  131.0730  128.0580   70.4780 C   0  0  0  0  0  0  0  0  0  0  0  0
  130.9910  127.8180   71.8800 O   0  0  0  0  0  0  0  0  0  0  0  0
  129.6850  127.8920   72.4400 C   0  0  0  0  0  0  0  0  0  0  0  0
  128.9930  126.5200   72.5340 C   0  0  0  0  0  0  0  0  0  0  0  0
  129.5380  125.8050   73.6340 O   0  0  0  0  0  0  0  0  0  0  0  0
  130.2280  126.6260   74.5670 C   0  0  0  0  0  0  0  0  0  0  0  0
  131.6830  126.1450   74.6570 C   0  0  0  0  0  0  0  0  0  0  0  0
  132.5780  127.2010   74.3730 O   0  0  0  0  0  0  0  0  0  0  0  0
  129.3899  127.9269   64.7551 H   0  0  0  0  0  0  0  0  0  0  0  0
  127.6272  127.3663   64.8460 H   0  0  0  0  0  0  0  0  0  0  0  0
  127.3196  127.7916   62.7153 H   0  0  0  0  0  0  0  0  0  0  0  0
  127.8792  129.4996   62.9508 H   0  0  0  0  0  0  0  0  0  0  0  0
  130.1930  128.5910   62.7370 H   0  0  0  0  0  0  0  0  0  0  0  0
  129.5750  127.1440   62.2930 H   0  0  0  0  0  0  0  0  0  0  0  0
  128.4354  129.2099   60.6682 H   0  0  0  0  0  0  0  0  0  0  0  0
  130.2288  129.2274   60.5930 H   0  0  0  0  0  0  0  0  0  0  0  0
  128.3466  126.8793   60.0049 H   0  0  0  0  0  0  0  0  0  0  0  0
  129.4787  127.7510   58.8643 H   0  0  0  0  0  0  0  0  0  0  0  0
  131.6005  123.6843   58.5427 H   0  0  0  0  0  0  0  0  0  0  0  0
  132.4624  125.2703   58.9589 H   0  0  0  0  0  0  0  0  0  0  0  0
  134.2004  125.0623   60.3190 H   0  0  0  0  0  0  0  0  0  0  0  0
  135.3643  124.0514   62.2721 H   0  0  0  0  0  0  0  0  0  0  0  0
  134.2675  122.2456   63.5895 H   0  0  0  0  0  0  0  0  0  0  0  0
  131.9853  121.4503   62.9658 H   0  0  0  0  0  0  0  0  0  0  0  0
  127.1900  121.8925   58.9916 H   0  0  0  0  0  0  0  0  0  0  0  0
  126.0394  123.2171   57.2206 H   0  0  0  0  0  0  0  0  0  0  0  0
  126.9747  125.4076   56.4909 H   0  0  0  0  0  0  0  0  0  0  0  0
  129.0437  126.2997   57.5421 H   0  0  0  0  0  0  0  0  0  0  0  0
  128.7743  127.0656   66.5800 H   0  0  0  0  0  0  0  0  0  0  0  0
  129.6751  128.2558   67.5624 H   0  0  0  0  0  0  0  0  0  0  0  0
  127.2432  127.9976   68.9524 H   0  0  0  0  0  0  0  0  0  0  0  0
  127.5535  126.3299   68.3824 H   0  0  0  0  0  0  0  0  0  0  0  0
  129.7561  129.0047   69.0433 H   0  0  0  0  0  0  0  0  0  0  0  0
  129.0889  128.8963   70.7063 H   0  0  0  0  0  0  0  0  0  0  0  0
  131.4720  127.1650   69.9746 H   0  0  0  0  0  0  0  0  0  0  0  0
  131.7406  128.9112   70.2875 H   0  0  0  0  0  0  0  0  0  0  0  0
  129.7609  128.3165   73.4519 H   0  0  0  0  0  0  0  0  0  0  0  0
  129.0768  128.5228   71.7750 H   0  0  0  0  0  0  0  0  0  0  0  0
  127.9124  126.6608   72.6838 H   0  0  0  0  0  0  0  0  0  0  0  0
  129.1564  125.9553   71.6042 H   0  0  0  0  0  0  0  0  0  0  0  0
  130.2035  127.6726   74.2294 H   0  0  0  0  0  0  0  0  0  0  0  0
  129.7476  126.5599   75.5544 H   0  0  0  0  0  0  0  0  0  0  0  0
  131.8772  125.7708   75.6730 H   0  0  0  0  0  0  0  0  0  0  0  0
  131.8364  125.3440   73.9188 H   0  0  0  0  0  0  0  0  0  0  0  0
  132.4570  127.4660   73.4580 H   0  0  0  0  0  0  0  0  0  0  0  0
  1  2  2  0
  2  3  1  0
  3  4  1  0
  4  5  1  0
  5  6  1  0
  6  7  1  0
  7  8  1  0
  8  9  2  0
  8 10  1  0
 10 11  1  0
 11 12  1  0
 12 13  2  0
 13 14  1  0
 14 15  2  0
 15 16  1  0
 16 17  2  0
 17 18  1  0
 18 19  3  0
 19 20  1  0
 20 21  2  0
 21 22  1  0
 22 23  2  0
 23 24  1  0
 24 25  2  0
  2 26  1  0
 26 27  1  0
 27 28  1  0
 28 29  1  0
 29 30  1  0
 30 31  1  0
 31 32  1  0
 32 33  1  0
 33 34  1  0
 34 35  1  0
 35 36  1  0
 36 37  1  0
 37 38  1  0
 25 10  1  0
 17 12  1  0
 25 20  1  0
  3 39  1  0
  3 40  1  0
  4 41  1  0
  4 42  1  0
  5 43  1  0
  5 44  1  0
  6 45  1  0
  6 46  1  0
  7 47  1  0
  7 48  1  0
 11 49  1  0
 11 50  1  0
 13 51  1  0
 14 52  1  0
 15 53  1  0
 16 54  1  0
 21 55  1  0
 22 56  1  0
 23 57  1  0
 24 58  1  0
 27 59  1  0
 27 60  1  0
 28 61  1  0
 28 62  1  0
 30 63  1  0
 30 64  1  0
 31 65  1  0
 31 66  1  0
 33 67  1  0
 33 68  1  0
 34 69  1  0
 34 70  1  0
 36 71  1  0
 36 72  1  0
 37 73  1  0
 37 74  1  0
 38 75  1  0
M  CHG  1   5   1
M  END
>  <Binding energies>  (1) 
[-5.77]

>  <Ligand effiencies>  (1) 
[-0.1341860465116279]

>  <Interactions>  (1) 
["V-B:PRO:540:CA:9855, V-A:GLY:454:CA:4049, H-A:GLU:543:OE2:4910, V-A:GLU:543:C:4902, V-B:GLU:543:CB:9878, H-B:LYS:547:NZ:9923, V-B:TYR:539:CE2:9848, V-A:GLY:544:C:4912, V-B:TYR:539:C:9839, V-A:ASP:366:CG:3213, V-A:HIS:456:CD2:4068, V-B:TYR:539:CZ:9849, V-A:GLU:543:CD:4908, V-B:PRO:540:CB:9857, H-B:TYR:484:OH:9319, V-B:HIS:456:CE1:9041, V-B:PRO:540:N:9856, V-A:ILE:369:CD1:3239, V-A:HIS:456:CE1:4070, V-B:TYR:539:CD2:9846, V-A:GLU:543:CG:4907, V-B:GLU:543:CD:9880, H-A:LYS:547:NZ:4951, V-A:LEU:475:CD2:4259, H-A:GLU:543:OE1:4909, V-A:GLU:543:CB:4906, V-A:HIS:456:CG:4066, H-A:GLY:544:O:4913"]

$$$$
ZINC2265384776
     RDKit          3D

 18 19  0  0  0  0  0  0  0  0999 V2000
  126.2860  134.0030   61.2590 Br  0  0  0  0  0  0  0  0  0  0  0  0
  128.0230  133.2730   61.5260 C   0  0  0  0  0  0  0  0  0  0  0  0
  128.7140  133.1090   62.7290 C   0  0  0  0  0  0  0  0  0  0  0  0
  129.8850  132.5700   62.5050 N   0  0  0  0  0  0  0  0  0  0  0  0
  129.8750  132.4210   61.1750 N   0  0  0  0  0  0  0  0  0  0  0  0
  131.0240  131.8350   60.4650 C   0  0  0  0  0  0  0  0  0  0  0  0
  132.3870  131.7700   61.1950 C   0  0  0  0  0  0  0  0  0  0  0  0
  132.0410  130.3570   61.6590 N   0  0  0  0  0  0  0  0  0  0  0  0
  131.1540  130.2950   60.4170 C   0  0  0  0  0  0  0  0  0  0  0  0
  128.7670  132.8330   60.5410 N   0  0  0  0  0  0  0  0  0  0  0  0
  128.3296  133.3918   63.7201 H   0  0  0  0  0  0  0  0  0  0  0  0
  130.8458  132.4535   59.5730 H   0  0  0  0  0  0  0  0  0  0  0  0
  133.2607  131.8269   60.5291 H   0  0  0  0  0  0  0  0  0  0  0  0
  132.6794  132.5466   61.9171 H   0  0  0  0  0  0  0  0  0  0  0  0
  132.8170  129.7110   61.6570 H   0  0  0  0  0  0  0  0  0  0  0  0
  131.5090  130.3480   62.5190 H   0  0  0  0  0  0  0  0  0  0  0  0
  131.6592  129.9110   59.5185 H   0  0  0  0  0  0  0  0  0  0  0  0
  130.2612  129.6529   60.3915 H   0  0  0  0  0  0  0  0  0  0  0  0
  1  2  1  0
  2  3  1  0
  3  4  2  0
  4  5  1  0
  5  6  1  0
  6  7  1  0
  7  8  1  0
  8  9  1  0
  5 10  1  0
 10  2  2  0
  9  6  1  0
  3 11  1  0
  6 12  1  0
  7 13  1  0
  7 14  1  0
  8 15  1  0
  8 16  1  0
  9 17  1  0
  9 18  1  0
M  CHG  1   8   1
M  END
>  <Binding energies>  (1) 
[-5.1]

>  <Ligand effiencies>  (1) 
[-0.425]

>  <Interactions>  (1) 
["V-A:TYR:539:CD1:4873, V-A:PRO:540:CB:4885, V-A:PRO:540:CA:4883, H-A:ALA:541:N:4891, V-A:ALA:541:CA:4890, V-A:PRO:540:C:4881, V-A:ALA:541:CB:4892, V-A:GLU:543:CD:4908, H-A:ASP:366:OD2:3215, V-B:LEU:475:CD2:9230, H-A:GLU:543:OE1:4909, V-A:TYR:539:CE1:4875, V-A:ASP:366:CG:3213, H-A:ASP:366:OD1:3214"]

$$$$
ZINC2265385783
     RDKit          3D

 37 37  0  0  0  0  0  0  0  0999 V2000
  127.5190  122.4840   57.6890 C   0  0  0  0  0  0  0  0  0  0  0  0
  127.2800  123.5640   58.7730 C   0  0  0  0  0  0  0  0  0  0  0  0
  125.7830  123.9570   58.8440 C   0  0  0  0  0  0  0  0  0  0  0  0
  128.1180  124.8150   58.4400 C   0  0  0  0  0  0  0  0  0  0  0  0
  127.7720  123.1370   60.0570 O   0  0  0  0  0  0  0  0  0  0  0  0
  127.2550  123.5070   61.2690 C   0  0  0  0  0  0  0  0  0  0  0  0
  126.1360  123.2040   61.6780 O   0  0  0  0  0  0  0  0  0  0  0  0
  128.1530  124.2860   61.9970 N   0  0  0  0  0  0  0  0  0  0  0  0
  129.4980  124.6650   61.5480 C   0  0  1  0  0  0  0  0  0  0  0  0
  129.5910  126.1560   61.1780 C   0  0  0  0  0  0  0  0  0  0  0  0
  131.0180  126.5660   61.5480 C   0  0  1  0  0  0  0  0  0  0  0  0
  131.3450  128.0660   61.4880 N   0  0  0  0  0  0  0  0  0  0  0  0
  131.3190  125.7810   62.8430 C   0  0  1  0  0  0  0  0  0  0  0  0
  130.9090  126.4900   64.0480 N   0  0  0  0  0  0  0  0  0  0  0  0
  130.5510  124.4530   62.6600 C   0  0  0  0  0  0  0  0  0  0  0  0
  127.7324  121.5196   58.1731 H   0  0  0  0  0  0  0  0  0  0  0  0
  126.6202  122.3886   57.0620 H   0  0  0  0  0  0  0  0  0  0  0  0
  128.3741  122.7767   57.0620 H   0  0  0  0  0  0  0  0  0  0  0  0
  125.4747  124.0379   59.8968 H   0  0  0  0  0  0  0  0  0  0  0  0
  125.6338  124.9247   58.3428 H   0  0  0  0  0  0  0  0  0  0  0  0
  125.1777  123.1873   58.3428 H   0  0  0  0  0  0  0  0  0  0  0  0
  128.4419  125.2985   59.3734 H   0  0  0  0  0  0  0  0  0  0  0  0
  129.0011  124.5196   57.8545 H   0  0  0  0  0  0  0  0  0  0  0  0
  127.5087  125.5193   57.8545 H   0  0  0  0  0  0  0  0  0  0  0  0
  127.8550  124.6200   62.9010 H   0  0  0  0  0  0  0  0  0  0  0  0
  129.6928  124.0263   60.6739 H   0  0  0  0  0  0  0  0  0  0  0  0
  129.4140  126.2993   60.1018 H   0  0  0  0  0  0  0  0  0  0  0  0
  128.8373  126.7606   61.7037 H   0  0  0  0  0  0  0  0  0  0  0  0
  131.7473  126.2882   60.7728 H   0  0  0  0  0  0  0  0  0  0  0  0
  132.3250  128.1960   61.2780 H   0  0  0  0  0  0  0  0  0  0  0  0
  131.1400  128.5060   62.3730 H   0  0  0  0  0  0  0  0  0  0  0  0
  130.7980  128.5120   60.7660 H   0  0  0  0  0  0  0  0  0  0  0  0
  132.3991  125.6307   62.9874 H   0  0  0  0  0  0  0  0  0  0  0  0
  131.6990  126.5970   64.6680 H   0  0  0  0  0  0  0  0  0  0  0  0
  130.6090  127.4250   63.8090 H   0  0  0  0  0  0  0  0  0  0  0  0
  131.2487  123.6546   62.3673 H   0  0  0  0  0  0  0  0  0  0  0  0
  130.0624  124.1591   63.6007 H   0  0  0  0  0  0  0  0  0  0  0  0
  1  2  1  0
  2  3  1  0
  2  4  1  0
  2  5  1  0
  5  6  1  0
  6  7  2  0
  6  8  1  0
  8  9  1  0
  9 10  1  0
 10 11  1  0
 11 12  1  0
 11 13  1  0
 13 14  1  0
 13 15  1  0
 15  9  1  0
  1 16  1  0
  1 17  1  0
  1 18  1  0
  3 19  1  0
  3 20  1  0
  3 21  1  0
  4 22  1  0
  4 23  1  0
  4 24  1  0
  8 25  1  0
  9 26  1  6
 10 27  1  0
 10 28  1  0
 11 29  1  6
 12 30  1  0
 12 31  1  0
 12 32  1  0
 13 33  1  1
 14 34  1  0
 14 35  1  0
 15 36  1  0
 15 37  1  0
M  CHG  1  12   1
M  END
>  <Binding energies>  (1) 
[-6.14]

>  <Ligand effiencies>  (1) 
[-0.29238095238095235]

>  <Interactions>  (1) 
["V-B:PRO:540:CA:9855, H-A:GLU:543:OE2:4910, V-B:TYR:539:CE2:9848, V-B:TYR:539:C:9839, V-A:ASP:366:CG:3213, V-B:TYR:539:CZ:9849, H-B:GLU:543:OE1:9881, H-B:ALA:541:N:9863, V-A:GLU:543:CD:4908, V-B:PRO:540:CB:9857, V-B:PRO:540:N:9856, V-B:TYR:539:CD2:9846, V-B:GLU:543:CD:9880, H-A:ARG:545:NH2:4928, H-A:GLU:543:OE1:4909, V-B:TYR:539:CG:9844, H-A:ASP:366:OD1:3214, V-B:TYR:539:CD1:9845, H-A:ASP:366:OD2:3215"]

$$$$
ZINC2267423972
     RDKit          3D

 63 65  0  0  0  0  0  0  0  0999 V2000
  126.5580  125.1100   59.7070 C   0  0  0  0  0  0  0  0  0  0  0  0
  127.1000  124.0110   60.6540 C   0  0  0  0  0  0  0  0  0  0  0  0
  125.9420  123.2540   61.3490 C   0  0  0  0  0  0  0  0  0  0  0  0
  127.9990  124.6570   61.7270 C   0  0  0  0  0  0  0  0  0  0  0  0
  127.9790  123.1090   59.9570 O   0  0  0  0  0  0  0  0  0  0  0  0
  128.2500  123.1390   58.6150 C   0  0  0  0  0  0  0  0  0  0  0  0
  127.6340  122.5020   57.7610 O   0  0  0  0  0  0  0  0  0  0  0  0
  129.3230  123.9780   58.3240 N   0  0  0  0  0  0  0  0  0  0  0  0
  130.0450  124.7920   59.3070 C   0  0  2  0  0  0  0  0  0  0  0  0
  130.8130  125.9080   58.5660 C   0  0  0  0  0  0  0  0  0  0  0  0
  131.7830  126.5830   59.5390 C   0  0  0  0  0  0  0  0  0  0  0  0
  132.4520  125.1580   60.5560 S   0  0  1  0  0  6  0  0  0  0  0  0
  133.7240  124.7020   59.9860 O   0  0  0  0  0  0  0  0  0  0  0  0
  132.3350  125.5190   62.0390 N   0  0  0  0  0  0  0  0  0  0  0  0
  133.0250  124.3070   63.1060 S   0  0  0  0  0  0  0  0  0  0  0  0
  133.0730  122.9060   62.6680 O   0  0  0  0  0  0  0  0  0  0  0  0
  134.1700  124.7290   63.9170 O   0  0  0  0  0  0  0  0  0  0  0  0
  131.6650  124.3210   64.3140 C   0  0  0  0  0  0  0  0  0  0  0  0
  131.3560  125.3850   65.1550 C   0  0  0  0  0  0  0  0  0  0  0  0
  130.2910  125.1050   66.0200 C   0  0  0  0  0  0  0  0  0  0  0  0
  129.7640  126.1120   67.1040 B   0  0  0  0  0  0  0  0  0  0  0  0
  129.1720  127.3190   66.8160 O   0  0  0  0  0  0  0  0  0  0  0  0
  128.6220  127.8170   68.0270 C   0  0  0  0  0  0  0  0  0  0  0  0
  128.6990  129.3600   67.9760 C   0  0  0  0  0  0  0  0  0  0  0  0
  127.1410  127.3500   68.0530 C   0  0  0  0  0  0  0  0  0  0  0  0
  129.5570  127.1410   69.0920 C   0  0  0  0  0  0  0  0  0  0  0  0
  130.9230  127.8470   69.3160 C   0  0  0  0  0  0  0  0  0  0  0  0
  128.8850  126.8280   70.4480 C   0  0  0  0  0  0  0  0  0  0  0  0
  129.8500  125.9040   68.4600 O   0  0  0  0  0  0  0  0  0  0  0  0
  129.7670  123.8340   65.8270 C   0  0  0  0  0  0  0  0  0  0  0  0
  130.6040  122.9660   64.5810 S   0  0  0  0  0  0  0  0  0  0  0  0
  131.0740  123.9550   60.0980 C   0  0  0  0  0  0  0  0  0  0  0  0
  126.1492  125.9390   60.3034 H   0  0  0  0  0  0  0  0  0  0  0  0
  127.3754  125.4831   59.0725 H   0  0  0  0  0  0  0  0  0  0  0  0
  125.7644  124.6886   59.0725 H   0  0  0  0  0  0  0  0  0  0  0  0
  126.0574  123.3295   62.4403 H   0  0  0  0  0  0  0  0  0  0  0  0
  124.9815  123.6991   61.0502 H   0  0  0  0  0  0  0  0  0  0  0  0
  125.9644  122.1956   61.0502 H   0  0  0  0  0  0  0  0  0  0  0  0
  127.6266  124.3894   62.7269 H   0  0  0  0  0  0  0  0  0  0  0  0
  129.0300  124.2919   61.6098 H   0  0  0  0  0  0  0  0  0  0  0  0
  127.9818  125.7506   61.6098 H   0  0  0  0  0  0  0  0  0  0  0  0
  129.6130  124.0480   57.3590 H   0  0  0  0  0  0  0  0  0  0  0  0
  129.3058  125.2042   60.0096 H   0  0  0  0  0  0  0  0  0  0  0  0
  131.3764  125.4726   57.7276 H   0  0  0  0  0  0  0  0  0  0  0  0
  130.1012  126.6517   58.1783 H   0  0  0  0  0  0  0  0  0  0  0  0
  132.5930  127.0920   58.9960 H   0  0  0  0  0  0  0  0  0  0  0  0
  131.3011  127.3573   60.1540 H   0  0  0  0  0  0  0  0  0  0  0  0
  131.8920  126.3455   65.1419 H   0  0  0  0  0  0  0  0  0  0  0  0
  128.7190  129.7602   69.0004 H   0  0  0  0  0  0  0  0  0  0  0  0
  129.6134  129.6642   67.4456 H   0  0  0  0  0  0  0  0  0  0  0  0
  127.8194  129.7537   67.4456 H   0  0  0  0  0  0  0  0  0  0  0  0
  126.8079  127.2450   69.0961 H   0  0  0  0  0  0  0  0  0  0  0  0
  126.5130  128.0937   67.5407 H   0  0  0  0  0  0  0  0  0  0  0  0
  127.0532  126.3806   67.5407 H   0  0  0  0  0  0  0  0  0  0  0  0
  131.1125  127.9449   70.3951 H   0  0  0  0  0  0  0  0  0  0  0  0
  131.7241  127.2500   68.8557 H   0  0  0  0  0  0  0  0  0  0  0  0
  130.8994  128.8458   68.8557 H   0  0  0  0  0  0  0  0  0  0  0  0
  129.5505  127.1380   71.2672 H   0  0  0  0  0  0  0  0  0  0  0  0
  127.9339  127.3758   70.5210 H   0  0  0  0  0  0  0  0  0  0  0  0
  128.6923  125.7475   70.5210 H   0  0  0  0  0  0  0  0  0  0  0  0
  128.9200  123.4254   66.3977 H   0  0  0  0  0  0  0  0  0  0  0  0
  131.4672  123.1388   59.4742 H   0  0  0  0  0  0  0  0  0  0  0  0
  130.6252  123.4892   60.9877 H   0  0  0  0  0  0  0  0  0  0  0  0
  1  2  1  0
  2  3  1  0
  2  4  1  0
  2  5  1  0
  5  6  1  0
  6  7  2  0
  6  8  1  0
  8  9  1  0
  9 10  1  0
 10 11  1  0
 12 11  1  6
 12 13  2  0
 12 14  2  0
 14 15  1  0
 15 16  2  0
 15 17  2  0
 15 18  1  0
 18 19  2  0
 19 20  1  0
 20 21  1  0
 21 22  1  0
 22 23  1  0
 23 24  1  0
 23 25  1  0
 23 26  1  0
 26 27  1  0
 26 28  1  0
 26 29  1  0
 20 30  2  0
 30 31  1  0
 12 32  1  0
 32  9  1  0
 31 18  1  0
 29 21  1  0
  1 33  1  0
  1 34  1  0
  1 35  1  0
  3 36  1  0
  3 37  1  0
  3 38  1  0
  4 39  1  0
  4 40  1  0
  4 41  1  0
  8 42  1  0
  9 43  1  1
 10 44  1  0
 10 45  1  0
 11 46  1  0
 11 47  1  0
 19 48  1  0
 24 49  1  0
 24 50  1  0
 24 51  1  0
 25 52  1  0
 25 53  1  0
 25 54  1  0
 27 55  1  0
 27 56  1  0
 27 57  1  0
 28 58  1  0
 28 59  1  0
 28 60  1  0
 30 61  1  0
 32 62  1  0
 32 63  1  0
M  END
>  <Binding energies>  (1) 
[-8.48]

>  <Ligand effiencies>  (1) 
[-0.25696969696969696]

>  <Interactions>  (1) 
["V-B:PRO:540:CA:9855, V-A:GLU:543:CA:4904, V-A:GLU:543:C:4902, V-B:GLU:543:CB:9878, H-A:ARG:545:NH1:4927, V-B:TYR:539:CE2:9848, V-A:TYR:484:CE2:4346, V-B:GLU:543:CG:9879, V-A:ASP:366:CG:3213, V-B:TYR:539:CZ:9849, H-B:TYR:539:OH:9850, V-A:GLU:543:CD:4908, V-B:PRO:540:CB:9857, V-A:TYR:484:CZ:4347, V-B:GLU:543:CA:9876, H-A:GLY:454:N:4050, V-B:HIS:456:CE1:9041, V-A:HIS:456:CE1:4070, V-B:TYR:539:CD2:9846, V-A:GLU:543:CG:4907, V-B:GLU:543:CD:9880, V-A:ASP:366:CB:3212, V-A:LEU:475:CD2:4259, H-A:ARG:545:NH2:4928, V-A:GLU:543:CB:4906, H-A:ARG:545:NE:4924, V-B:PRO:540:C:9853"]

$$$$
ZINC2267459323
     RDKit          3D

 85 86  0  0  0  0  0  0  0  0999 V2000
  128.6970  128.3000   68.0120 C   0  0  0  0  0  0  0  0  0  0  0  0
  129.1930  127.1880   67.2050 N   0  0  0  0  0  0  0  0  0  0  0  0
  129.8170  126.1880   67.8390 N   0  0  0  0  0  0  0  0  0  0  0  0
  130.1080  125.3270   66.8980 C   0  0  0  0  0  0  0  0  0  0  0  0
  129.6500  125.7200   65.6360 C   0  0  0  0  0  0  0  0  0  0  0  0
  129.7540  124.8470   64.3250 B   0  0  0  0  0  0  0  0  0  0  0  0
  130.0980  125.3600   63.0950 O   0  0  0  0  0  0  0  0  0  0  0  0
  130.3260  124.2610   62.2250 C   0  0  0  0  0  0  0  0  0  0  0  0
  129.9060  124.6910   60.8020 C   0  0  0  0  0  0  0  0  0  0  0  0
  131.8530  123.9810   62.2770 C   0  0  0  0  0  0  0  0  0  0  0  0
  129.4200  123.1570   62.8750 C   0  0  0  0  0  0  0  0  0  0  0  0
  127.9090  123.2450   62.5310 C   0  0  0  0  0  0  0  0  0  0  0  0
  129.9290  121.7080   62.7050 C   0  0  0  0  0  0  0  0  0  0  0  0
  129.5310  123.4930   64.2480 O   0  0  0  0  0  0  0  0  0  0  0  0
  129.0990  126.9950   65.8370 C   0  0  0  0  0  0  0  0  0  0  0  0
  128.4090  127.8830   64.9310 C   0  0  0  0  0  0  0  0  0  0  0  0
  127.9090  128.9420   65.3130 O   0  0  0  0  0  0  0  0  0  0  0  0
  128.4020  127.4660   63.6520 N   0  0  0  0  0  0  0  0  0  0  0  0
  127.7970  128.1770   62.5190 C   0  0  0  0  0  0  0  0  0  0  0  0
  128.2650  127.6040   61.1570 C   0  0  0  0  0  0  0  0  0  0  0  0
  127.1400  127.0640   60.2510 C   0  0  0  0  0  0  0  0  0  0  0  0
  126.5000  125.8690   60.8110 N   0  0  0  0  0  0  0  0  0  0  0  0
  126.2100  124.7010   60.1080 C   0  0  0  0  0  0  0  0  0  0  0  0
  125.7480  123.6900   60.6350 O   0  0  0  0  0  0  0  0  0  0  0  0
  126.5070  124.8170   58.7760 O   0  0  0  0  0  0  0  0  0  0  0  0
  126.9720  123.7550   57.9240 C   0  0  0  0  0  0  0  0  0  0  0  0
  125.7920  122.8980   57.4040 C   0  0  0  0  0  0  0  0  0  0  0  0
  127.8250  124.2900   56.7470 C   0  0  0  0  0  0  0  0  0  0  0  0
  127.8600  122.8940   58.8470 C   0  0  0  0  0  0  0  0  0  0  0  0
  128.0560  129.7050   62.5970 C   0  0  0  0  0  0  0  0  0  0  0  0
  129.0150  130.2980   61.5410 C   0  0  0  0  0  0  0  0  0  0  0  0
  130.2090  130.9120   62.1350 N   0  0  0  0  0  0  0  0  0  0  0  0
  131.1230  131.7220   61.4630 C   0  0  0  0  0  0  0  0  0  0  0  0
  132.1170  132.2120   61.9960 O   0  0  0  0  0  0  0  0  0  0  0  0
  130.7710  131.9100   60.1520 O   0  0  0  0  0  0  0  0  0  0  0  0
  131.5020  131.4310   59.0090 C   0  0  0  0  0  0  0  0  0  0  0  0
  131.1440  132.2310   57.7320 C   0  0  0  0  0  0  0  0  0  0  0  0
  133.0280  131.4480   59.2650 C   0  0  0  0  0  0  0  0  0  0  0  0
  131.0330  129.9710   58.8460 C   0  0  0  0  0  0  0  0  0  0  0  0
  128.8059  128.0559   69.0790 H   0  0  0  0  0  0  0  0  0  0  0  0
  129.2760  129.2066   67.7823 H   0  0  0  0  0  0  0  0  0  0  0  0
  127.6356  128.4749   67.7823 H   0  0  0  0  0  0  0  0  0  0  0  0
  130.6561  124.3909   67.0803 H   0  0  0  0  0  0  0  0  0  0  0  0
  129.1388  125.4765   60.8678 H   0  0  0  0  0  0  0  0  0  0  0  0
  130.7826  125.0789   60.2625 H   0  0  0  0  0  0  0  0  0  0  0  0
  129.4976  123.8238   60.2625 H   0  0  0  0  0  0  0  0  0  0  0  0
  132.1793  123.9212   63.3258 H   0  0  0  0  0  0  0  0  0  0  0  0
  132.0685  123.0284   61.7710 H   0  0  0  0  0  0  0  0  0  0  0  0
  132.3925  124.7952   61.7710 H   0  0  0  0  0  0  0  0  0  0  0  0
  127.3226  123.2792   63.4610 H   0  0  0  0  0  0  0  0  0  0  0  0
  127.7190  124.1557   61.9441 H   0  0  0  0  0  0  0  0  0  0  0  0
  127.6146  122.3625   61.9441 H   0  0  0  0  0  0  0  0  0  0  0  0
  130.0876  121.2565   63.6955 H   0  0  0  0  0  0  0  0  0  0  0  0
  129.1835  121.1203   62.1493 H   0  0  0  0  0  0  0  0  0  0  0  0
  130.8783  121.7156   62.1493 H   0  0  0  0  0  0  0  0  0  0  0  0
  128.8530  126.5880   63.4360 H   0  0  0  0  0  0  0  0  0  0  0  0
  126.7111  128.0159   62.5889 H   0  0  0  0  0  0  0  0  0  0  0  0
  128.7863  128.4047   60.6119 H   0  0  0  0  0  0  0  0  0  0  0  0
  128.9075  126.7428   61.3925 H   0  0  0  0  0  0  0  0  0  0  0  0
  126.3785  127.8480   60.1271 H   0  0  0  0  0  0  0  0  0  0  0  0
  127.5893  126.7846   59.2866 H   0  0  0  0  0  0  0  0  0  0  0  0
  126.3690  125.8480   61.8120 H   0  0  0  0  0  0  0  0  0  0  0  0
  125.2307  122.4904   58.2577 H   0  0  0  0  0  0  0  0  0  0  0  0
  125.1257  123.5241   56.7924 H   0  0  0  0  0  0  0  0  0  0  0  0
  126.1813  122.0707   56.7924 H   0  0  0  0  0  0  0  0  0  0  0  0
  128.6945  124.8354   57.1426 H   0  0  0  0  0  0  0  0  0  0  0  0
  128.1703  123.4464   56.1313 H   0  0  0  0  0  0  0  0  0  0  0  0
  127.2159  124.9682   56.1313 H   0  0  0  0  0  0  0  0  0  0  0  0
  127.6257  123.1212   59.8975 H   0  0  0  0  0  0  0  0  0  0  0  0
  127.6684  121.8287   58.6507 H   0  0  0  0  0  0  0  0  0  0  0  0
  128.9188  123.1184   58.6507 H   0  0  0  0  0  0  0  0  0  0  0  0
  127.0866  130.2138   62.4908 H   0  0  0  0  0  0  0  0  0  0  0  0
  128.5540  129.8661   63.5645 H   0  0  0  0  0  0  0  0  0  0  0  0
  129.3345  129.4915   60.8647 H   0  0  0  0  0  0  0  0  0  0  0  0
  128.4687  131.0885   61.0056 H   0  0  0  0  0  0  0  0  0  0  0  0
  130.3410  130.7930   63.1290 H   0  0  0  0  0  0  0  0  0  0  0  0
  130.7100  133.2009   58.0166 H   0  0  0  0  0  0  0  0  0  0  0  0
  132.0537  132.3970   57.1363 H   0  0  0  0  0  0  0  0  0  0  0  0
  130.4141  131.6633   57.1363 H   0  0  0  0  0  0  0  0  0  0  0  0
  133.2180  131.4501   60.3485 H   0  0  0  0  0  0  0  0  0  0  0  0
  133.4854  130.5549   58.8143 H   0  0  0  0  0  0  0  0  0  0  0  0
  133.4654  132.3511   58.8143 H   0  0  0  0  0  0  0  0  0  0  0  0
  130.8880  129.5195   59.8385 H   0  0  0  0  0  0  0  0  0  0  0  0
  130.0831  129.9507   58.2916 H   0  0  0  0  0  0  0  0  0  0  0  0
  131.7934  129.4014   58.2916 H   0  0  0  0  0  0  0  0  0  0  0  0
  1  2  1  0
  2  3  1  0
  3  4  2  0
  4  5  1  0
  5  6  1  0
  6  7  1  0
  7  8  1  0
  8  9  1  0
  8 10  1  0
  8 11  1  0
 11 12  1  0
 11 13  1  0
 11 14  1  0
  5 15  2  0
 15 16  1  0
 16 17  2  0
 16 18  1  0
 18 19  1  0
 19 20  1  0
 20 21  1  0
 21 22  1  0
 22 23  1  0
 23 24  2  0
 23 25  1  0
 25 26  1  0
 26 27  1  0
 26 28  1  0
 26 29  1  0
 19 30  1  0
 30 31  1  0
 31 32  1  0
 32 33  1  0
 33 34  2  0
 33 35  1  0
 35 36  1  0
 36 37  1  0
 36 38  1  0
 36 39  1  0
 15  2  1  0
 14  6  1  0
  1 40  1  0
  1 41  1  0
  1 42  1  0
  4 43  1  0
  9 44  1  0
  9 45  1  0
  9 46  1  0
 10 47  1  0
 10 48  1  0
 10 49  1  0
 12 50  1  0
 12 51  1  0
 12 52  1  0
 13 53  1  0
 13 54  1  0
 13 55  1  0
 18 56  1  0
 19 57  1  0
 20 58  1  0
 20 59  1  0
 21 60  1  0
 21 61  1  0
 22 62  1  0
 27 63  1  0
 27 64  1  0
 27 65  1  0
 28 66  1  0
 28 67  1  0
 28 68  1  0
 29 69  1  0
 29 70  1  0
 29 71  1  0
 30 72  1  0
 30 73  1  0
 31 74  1  0
 31 75  1  0
 32 76  1  0
 37 77  1  0
 37 78  1  0
 37 79  1  0
 38 80  1  0
 38 81  1  0
 38 82  1  0
 39 83  1  0
 39 84  1  0
 39 85  1  0
M  END
>  <Binding energies>  (1) 
[-7.11]

>  <Ligand effiencies>  (1) 
[-0.1692857142857143]

>  <Interactions>  (1) 
["V-B:PRO:540:CA:9855, H-A:ALA:541:N:4891, V-B:GLU:543:CB:9878, V-B:ALA:541:CB:9864, V-B:TYR:539:CE2:9848, V-A:TYR:484:CE2:4346, V-B:GLU:543:CG:9879, V-B:TYR:539:C:9839, V-A:LEU:363:CD1:3189, V-B:TYR:539:CZ:9849, H-B:GLU:543:OE1:9881, V-A:GLU:543:CD:4908, V-B:PRO:540:CB:9857, H-B:ASP:366:OD1:8185, V-B:HIS:456:CE1:9041, V-B:PRO:540:N:9856, V-A:HIS:456:CE1:4070, V-B:PRO:540:CD:9859, V-B:TYR:539:CD2:9846, V-B:GLU:543:CD:9880, V-A:LEU:475:CD2:4259, H-A:GLU:543:OE1:4909, V-A:GLU:543:CB:4906, V-A:PRO:540:N:4884, H-B:GLU:543:OE2:9882, V-A:PRO:540:CB:4885, V-A:PRO:540:CA:4883, V-A:LEU:363:CA:3185"]

$$$$
ZINC226748488
     RDKit          3D

 51 54  0  0  0  0  0  0  0  0999 V2000
  129.8390  126.6470   73.4310 C   0  0  0  0  0  0  0  0  0  0  0  0
  129.4800  128.0500   72.9150 C   0  0  0  0  0  0  0  0  0  0  0  0
  130.5700  128.6910   72.2600 O   0  0  0  0  0  0  0  0  0  0  0  0
  130.8750  128.2020   70.9580 C   0  0  0  0  0  0  0  0  0  0  0  0
  129.5720  127.8380   70.2340 C   0  0  0  0  0  0  0  0  0  0  0  0
  129.7920  126.7050   69.3980 O   0  0  0  0  0  0  0  0  0  0  0  0
  129.5300  126.8010   68.0450 C   0  0  0  0  0  0  0  0  0  0  0  0
  128.5630  127.6470   67.4800 C   0  0  0  0  0  0  0  0  0  0  0  0
  128.3610  127.6680   66.1020 C   0  0  0  0  0  0  0  0  0  0  0  0
  129.1100  126.8410   65.2650 C   0  0  0  0  0  0  0  0  0  0  0  0
  130.1110  126.0040   65.8100 C   0  0  0  0  0  0  0  0  0  0  0  0
  130.2910  125.9920   67.1980 C   0  0  0  0  0  0  0  0  0  0  0  0
  130.9280  125.1380   64.8610 C   0  0  2  0  0  0  0  0  0  0  0  0
  132.3580  124.7450   65.1810 C   0  0  0  0  0  0  0  0  0  0  0  0
  133.0910  124.7340   64.0480 C   0  0  0  0  0  0  0  0  0  0  0  0
  132.2850  125.2430   62.8610 C   0  0  0  0  0  0  0  0  0  0  0  0
  131.1350  125.9370   63.5850 C   0  0  1  0  0  0  0  0  0  0  0  0
  129.7870  126.2650   62.8900 C   0  0  1  0  0  0  0  0  0  0  0  0
  129.1660  125.0540   62.1700 C   0  0  0  0  0  0  0  0  0  0  0  0
  129.8690  123.8430   62.0780 C   0  0  0  0  0  0  0  0  0  0  0  0
  129.3230  122.7480   61.4140 C   0  0  0  0  0  0  0  0  0  0  0  0
  130.2110  121.2720   61.3080 Cl  0  0  0  0  0  0  0  0  0  0  0  0
  128.0610  122.8450   60.8330 C   0  0  0  0  0  0  0  0  0  0  0  0
  127.3420  124.0370   60.9160 C   0  0  0  0  0  0  0  0  0  0  0  0
  125.7790  124.1200   60.1790 Cl  0  0  0  0  0  0  0  0  0  0  0  0
  127.8890  125.1420   61.5830 C   0  0  0  0  0  0  0  0  0  0  0  0
  127.1680  126.3090   61.6520 O   0  0  0  0  0  0  0  0  0  0  0  0
  128.8930  126.9270   63.8650 N   0  0  0  0  0  0  0  0  0  0  0  0
  129.8383  126.6496   74.5310 H   0  0  0  0  0  0  0  0  0  0  0  0
  129.0977  125.9211   73.0656 H   0  0  0  0  0  0  0  0  0  0  0  0
  130.8379  126.3664   73.0656 H   0  0  0  0  0  0  0  0  0  0  0  0
  128.6457  127.9604   72.2037 H   0  0  0  0  0  0  0  0  0  0  0  0
  129.2083  128.6645   73.7860 H   0  0  0  0  0  0  0  0  0  0  0  0
  131.4066  128.9790   70.3890 H   0  0  0  0  0  0  0  0  0  0  0  0
  131.5124  127.3092   71.0400 H   0  0  0  0  0  0  0  0  0  0  0  0
  128.7948  127.6009   70.9754 H   0  0  0  0  0  0  0  0  0  0  0  0
  129.2452  128.6891   69.6185 H   0  0  0  0  0  0  0  0  0  0  0  0
  127.9603  128.2982   68.1302 H   0  0  0  0  0  0  0  0  0  0  0  0
  127.6056  128.3414   65.6709 H   0  0  0  0  0  0  0  0  0  0  0  0
  131.0521  125.3278   67.6334 H   0  0  0  0  0  0  0  0  0  0  0  0
  130.3292  124.2153   64.8670 H   0  0  0  0  0  0  0  0  0  0  0  0
  132.7395  124.5053   66.1845 H   0  0  0  0  0  0  0  0  0  0  0  0
  134.1374  124.3999   63.9896 H   0  0  0  0  0  0  0  0  0  0  0  0
  132.8650  125.9493   62.2488 H   0  0  0  0  0  0  0  0  0  0  0  0
  131.9755  124.4642   62.1485 H   0  0  0  0  0  0  0  0  0  0  0  0
  131.4748  126.9772   63.6969 H   0  0  0  0  0  0  0  0  0  0  0  0
  129.9658  126.9731   62.0674 H   0  0  0  0  0  0  0  0  0  0  0  0
  130.8651  123.7578   62.5368 H   0  0  0  0  0  0  0  0  0  0  0  0
  127.6306  121.9797   60.3076 H   0  0  0  0  0  0  0  0  0  0  0  0
  126.4950  126.2870   62.3370 H   0  0  0  0  0  0  0  0  0  0  0  0
  128.3060  127.6570   63.4840 H   0  0  0  0  0  0  0  0  0  0  0  0
  1  2  1  0
  2  3  1  0
  3  4  1  0
  4  5  1  0
  5  6  1  0
  6  7  1  0
  7  8  2  0
  8  9  1  0
  9 10  2  0
 10 11  1  0
 11 12  2  0
 11 13  1  0
 13 14  1  0
 14 15  2  0
 15 16  1  0
 16 17  1  0
 17 18  1  0
 18 19  1  0
 19 20  2  0
 20 21  1  0
 21 22  1  0
 21 23  2  0
 23 24  1  0
 24 25  1  0
 24 26  2  0
 26 27  1  0
 18 28  1  0
 12  7  1  0
 17 13  1  0
 26 19  1  0
 28 10  1  0
  1 29  1  0
  1 30  1  0
  1 31  1  0
  2 32  1  0
  2 33  1  0
  4 34  1  0
  4 35  1  0
  5 36  1  0
  5 37  1  0
  8 38  1  0
  9 39  1  0
 12 40  1  0
 13 41  1  6
 14 42  1  0
 15 43  1  0
 16 44  1  0
 16 45  1  0
 17 46  1  1
 18 47  1  6
 20 48  1  0
 23 49  1  0
 27 50  1  0
 28 51  1  0
M  END
>  <Binding energies>  (1) 
[-6.34]

>  <Ligand effiencies>  (1) 
[-0.21133333333333332]

>  <Interactions>  (1) 
["V-B:PRO:540:CA:9855, V-A:GLU:543:C:4902, V-B:GLU:543:CB:9878, V-A:GLY:544:CA:4914, V-A:GLY:544:C:4912, V-B:GLU:543:CG:9879, V-A:HIS:456:CD2:4068, H-B:GLU:543:OE1:9881, V-A:GLU:543:CD:4908, V-A:TYR:484:CZ:4347, V-B:PRO:540:CB:9857, H-B:ASP:366:OD1:8185, V-A:HIS:456:CE1:4070, V-B:TYR:539:CD2:9846, V-B:GLU:543:CD:9880, H-A:LYS:547:NZ:4951, V-A:LEU:475:CD2:4259, V-A:ARG:545:CZ:4926, H-A:GLU:543:OE1:4909, V-A:GLU:543:CB:4906, H-B:GLU:543:OE2:9882"]

$$$$
ZINC2267512509
     RDKit          3D

 85 86  0  0  0  0  0  0  0  0999 V2000
  130.0750  123.6440   65.0470 C   0  0  0  0  0  0  0  0  0  0  0  0
  129.9570  124.9240   64.2450 C   0  0  0  0  0  0  0  0  0  0  0  0
  129.1790  125.8830   64.6920 N   0  0  0  0  0  0  0  0  0  0  0  0
  129.2490  126.8660   63.7860 N   0  0  0  0  0  0  0  0  0  0  0  0
  128.5060  128.0970   64.0390 C   0  0  0  0  0  0  0  0  0  0  0  0
  130.1230  126.5810   62.7630 C   0  0  0  0  0  0  0  0  0  0  0  0
  130.4530  127.4850   61.6840 C   0  0  0  0  0  0  0  0  0  0  0  0
  131.6140  127.8840   61.5760 O   0  0  0  0  0  0  0  0  0  0  0  0
  129.4460  127.8480   60.8390 N   0  0  0  0  0  0  0  0  0  0  0  0
  128.0550  127.3650   60.9170 C   0  0  0  0  0  0  0  0  0  0  0  0
  127.7660  126.1140   60.0670 C   0  0  0  0  0  0  0  0  0  0  0  0
  127.1820  125.0550   60.8950 N   0  0  0  0  0  0  0  0  0  0  0  0
  127.1710  123.6890   60.6180 C   0  0  0  0  0  0  0  0  0  0  0  0
  126.6760  122.8560   61.3740 O   0  0  0  0  0  0  0  0  0  0  0  0
  127.7490  123.3930   59.4100 O   0  0  0  0  0  0  0  0  0  0  0  0
  127.0840  123.4640   58.1330 C   0  0  0  0  0  0  0  0  0  0  0  0
  127.5980  124.6610   57.2970 C   0  0  0  0  0  0  0  0  0  0  0  0
  127.2280  122.1350   57.3480 C   0  0  0  0  0  0  0  0  0  0  0  0
  125.5960  123.6830   58.4700 C   0  0  0  0  0  0  0  0  0  0  0  0
  129.6750  128.8470   59.7840 C   0  0  0  0  0  0  0  0  0  0  0  0
  130.6580  128.3480   58.7030 C   0  0  0  0  0  0  0  0  0  0  0  0
  131.9180  129.0930   58.6620 N   0  0  0  0  0  0  0  0  0  0  0  0
  132.1160  130.3080   58.0100 C   0  0  0  0  0  0  0  0  0  0  0  0
  133.1800  130.9240   58.0350 O   0  0  0  0  0  0  0  0  0  0  0  0
  130.9890  130.7240   57.3460 O   0  0  0  0  0  0  0  0  0  0  0  0
  130.5530  132.0920   57.2200 C   0  0  0  0  0  0  0  0  0  0  0  0
  131.6700  132.9710   56.6090 C   0  0  0  0  0  0  0  0  0  0  0  0
  129.2440  132.2030   56.4000 C   0  0  0  0  0  0  0  0  0  0  0  0
  130.2760  132.5530   58.6650 C   0  0  0  0  0  0  0  0  0  0  0  0
  130.5720  125.2850   63.0300 C   0  0  0  0  0  0  0  0  0  0  0  0
  131.5650  124.4120   62.1660 B   0  0  0  0  0  0  0  0  0  0  0  0
  132.1660  124.8320   61.0040 O   0  0  0  0  0  0  0  0  0  0  0  0
  133.1550  123.8700   60.6650 C   0  0  0  0  0  0  0  0  0  0  0  0
  133.2500  123.8240   59.1230 C   0  0  0  0  0  0  0  0  0  0  0  0
  134.4850  124.3870   61.2740 C   0  0  0  0  0  0  0  0  0  0  0  0
  132.5690  122.5750   61.3310 C   0  0  0  0  0  0  0  0  0  0  0  0
  131.4630  121.8500   60.5180 C   0  0  0  0  0  0  0  0  0  0  0  0
  133.6230  121.5600   61.8300 C   0  0  0  0  0  0  0  0  0  0  0  0
  131.9330  123.1220   62.4750 O   0  0  0  0  0  0  0  0  0  0  0  0
  130.0532  123.8809   66.1210 H   0  0  0  0  0  0  0  0  0  0  0  0
  129.2344  122.9785   64.8012 H   0  0  0  0  0  0  0  0  0  0  0  0
  131.0231  123.1433   64.8012 H   0  0  0  0  0  0  0  0  0  0  0  0
  128.4123  128.2523   65.1239 H   0  0  0  0  0  0  0  0  0  0  0  0
  129.0419  128.9472   63.5918 H   0  0  0  0  0  0  0  0  0  0  0  0
  127.5040  128.0190   63.5918 H   0  0  0  0  0  0  0  0  0  0  0  0
  127.8325  127.1258   61.9674 H   0  0  0  0  0  0  0  0  0  0  0  0
  127.4210  128.1695   60.5161 H   0  0  0  0  0  0  0  0  0  0  0  0
  127.0609  126.3765   59.2645 H   0  0  0  0  0  0  0  0  0  0  0  0
  128.7108  125.7496   59.6373 H   0  0  0  0  0  0  0  0  0  0  0  0
  126.7070  125.3510   61.7360 H   0  0  0  0  0  0  0  0  0  0  0  0
  127.9408  125.4592   57.9718 H   0  0  0  0  0  0  0  0  0  0  0  0
  128.4345  124.3328   56.6626 H   0  0  0  0  0  0  0  0  0  0  0  0
  126.7840  125.0416   56.6626 H   0  0  0  0  0  0  0  0  0  0  0  0
  127.3186  121.2986   58.0566 H   0  0  0  0  0  0  0  0  0  0  0  0
  126.3409  121.9850   56.7152 H   0  0  0  0  0  0  0  0  0  0  0  0
  128.1267  122.1785   56.7152 H   0  0  0  0  0  0  0  0  0  0  0  0
  125.4664  123.7021   59.5622 H   0  0  0  0  0  0  0  0  0  0  0  0
  125.2606  124.6402   58.0442 H   0  0  0  0  0  0  0  0  0  0  0  0
  124.9991  122.8630   58.0442 H   0  0  0  0  0  0  0  0  0  0  0  0
  128.7129  129.0817   59.3051 H   0  0  0  0  0  0  0  0  0  0  0  0
  130.1187  129.7363   60.2554 H   0  0  0  0  0  0  0  0  0  0  0  0
  130.8864  127.2907   58.9031 H   0  0  0  0  0  0  0  0  0  0  0  0
  130.1665  128.4952   57.7300 H   0  0  0  0  0  0  0  0  0  0  0  0
  132.7030  128.6970   59.1570 H   0  0  0  0  0  0  0  0  0  0  0  0
  132.2566  133.4326   57.4170 H   0  0  0  0  0  0  0  0  0  0  0  0
  132.3292  132.3469   55.9878 H   0  0  0  0  0  0  0  0  0  0  0  0
  131.2184  133.7585   55.9878 H   0  0  0  0  0  0  0  0  0  0  0  0
  128.3869  132.2757   57.0856 H   0  0  0  0  0  0  0  0  0  0  0  0
  129.2835  133.1010   55.7660 H   0  0  0  0  0  0  0  0  0  0  0  0
  129.1318  131.3111   55.7660 H   0  0  0  0  0  0  0  0  0  0  0  0
  130.7107  131.8295   59.3704 H   0  0  0  0  0  0  0  0  0  0  0  0
  130.7297  133.5418   58.8278 H   0  0  0  0  0  0  0  0  0  0  0  0
  129.1900  132.6166   58.8278 H   0  0  0  0  0  0  0  0  0  0  0  0
  134.2038  123.3622   58.8280 H   0  0  0  0  0  0  0  0  0  0  0  0
  132.4155  123.2302   58.7218 H   0  0  0  0  0  0  0  0  0  0  0  0
  133.1983  124.8469   58.7218 H   0  0  0  0  0  0  0  0  0  0  0  0
  134.4199  124.3617   62.3718 H   0  0  0  0  0  0  0  0  0  0  0  0
  135.3144  123.7458   60.9410 H   0  0  0  0  0  0  0  0  0  0  0  0
  134.6636  125.4201   60.9410 H   0  0  0  0  0  0  0  0  0  0  0  0
  130.7475  121.3810   61.2095 H   0  0  0  0  0  0  0  0  0  0  0  0
  130.9365  122.5788   59.8842 H   0  0  0  0  0  0  0  0  0  0  0  0
  131.9213  121.0765   59.8842 H   0  0  0  0  0  0  0  0  0  0  0  0
  133.6319  121.5515   62.9299 H   0  0  0  0  0  0  0  0  0  0  0  0
  133.3705  120.5562   61.4576 H   0  0  0  0  0  0  0  0  0  0  0  0
  134.6165  121.8501   61.4576 H   0  0  0  0  0  0  0  0  0  0  0  0
  1  2  1  0
  2  3  2  0
  3  4  1  0
  4  5  1  0
  4  6  1  0
  6  7  1  0
  7  8  2  0
  7  9  1  0
  9 10  1  0
 10 11  1  0
 11 12  1  0
 12 13  1  0
 13 14  2  0
 13 15  1  0
 15 16  1  0
 16 17  1  0
 16 18  1  0
 16 19  1  0
  9 20  1  0
 20 21  1  0
 21 22  1  0
 22 23  1  0
 23 24  2  0
 23 25  1  0
 25 26  1  0
 26 27  1  0
 26 28  1  0
 26 29  1  0
  6 30  2  0
 30 31  1  0
 31 32  1  0
 32 33  1  0
 33 34  1  0
 33 35  1  0
 33 36  1  0
 36 37  1  0
 36 38  1  0
 36 39  1  0
 30  2  1  0
 39 31  1  0
  1 40  1  0
  1 41  1  0
  1 42  1  0
  5 43  1  0
  5 44  1  0
  5 45  1  0
 10 46  1  0
 10 47  1  0
 11 48  1  0
 11 49  1  0
 12 50  1  0
 17 51  1  0
 17 52  1  0
 17 53  1  0
 18 54  1  0
 18 55  1  0
 18 56  1  0
 19 57  1  0
 19 58  1  0
 19 59  1  0
 20 60  1  0
 20 61  1  0
 21 62  1  0
 21 63  1  0
 22 64  1  0
 27 65  1  0
 27 66  1  0
 27 67  1  0
 28 68  1  0
 28 69  1  0
 28 70  1  0
 29 71  1  0
 29 72  1  0
 29 73  1  0
 34 74  1  0
 34 75  1  0
 34 76  1  0
 35 77  1  0
 35 78  1  0
 35 79  1  0
 37 80  1  0
 37 81  1  0
 37 82  1  0
 38 83  1  0
 38 84  1  0
 38 85  1  0
M  END
>  <Binding energies>  (1) 
[-7.04]

>  <Ligand effiencies>  (1) 
[-0.17170731707317075]

>  <Interactions>  (1) 
["V-A:ILE:369:CG2:3237, V-A:ASP:366:CA:3210, V-B:PRO:540:CA:9855, V-B:TYR:539:CA:9841, V-A:ILE:369:CB:3236, V-A:ILE:538:CB:4862, H-A:TYR:531:OH:4795, V-A:TYR:484:CE2:4346, V-B:TYR:539:CE2:9848, V-B:GLU:543:CG:9879, V-B:TYR:539:C:9839, V-A:ASP:366:CG:3213, V-A:ILE:538:CG2:4863, V-A:LEU:363:CD1:3189, V-B:TYR:539:CZ:9849, V-A:ILE:538:CA:4860, H-B:GLU:543:OE1:9881, H-B:ALA:541:N:9863, V-A:GLU:543:CD:4908, V-A:TYR:484:CZ:4347, V-B:PRO:540:CB:9857, H-B:ASP:366:OD1:8185, V-B:PRO:540:N:9856, V-A:ILE:369:CD1:3239, V-B:TYR:539:CD2:9846, V-B:PRO:540:CD:9859, V-B:GLU:543:CD:9880, V-A:MET:535:CE:4835, V-A:TYR:539:C:4867, V-A:ASP:366:CB:3212, V-A:LEU:475:CD2:4259, H-A:ARG:545:NH2:4928, V-B:TYR:539:CG:9844, H-A:ASP:366:OD1:3214, V-B:TYR:539:CD1:9845, V-A:PRO:540:N:4884, V-A:PRO:540:CB:4885, V-A:PRO:540:CA:4883, H-A:ASP:366:OD2:3215, V-A:PRO:540:CD:4887, V-B:TYR:539:CE1:9847"]

$$$$
ZINC2267826524
     RDKit          3D

 41 43  0  0  0  0  0  0  0  0999 V2000
  129.0370  126.5600   70.3090 C   0  0  0  0  0  0  0  0  0  0  0  0
  129.6820  127.0880   69.0080 C   0  0  0  0  0  0  0  0  0  0  0  0
  131.0230  127.8070   69.3200 C   0  0  0  0  0  0  0  0  0  0  0  0
  130.0190  125.9650   68.2070 O   0  0  0  0  0  0  0  0  0  0  0  0
  129.8960  126.3430   66.8890 B   0  0  0  0  0  0  0  0  0  0  0  0
  130.4470  125.4860   65.6680 C   0  0  0  0  0  0  0  0  0  0  0  0
  129.5370  125.0890   64.6820 C   0  0  0  0  0  0  0  0  0  0  0  0
  129.9330  124.2790   63.6140 C   0  0  0  0  0  0  0  0  0  0  0  0
  129.0010  123.8820   62.6330 N   0  0  0  0  0  0  0  0  0  0  0  0
  127.9110  123.0640   62.8190 C   0  0  0  0  0  0  0  0  0  0  0  0
  127.2150  122.8500   61.7310 N   0  0  0  0  0  0  0  0  0  0  0  0
  127.8300  123.5430   60.7910 C   0  0  0  0  0  0  0  0  0  0  0  0
  127.1120  123.5780   58.7750 I   0  0  0  0  0  0  0  0  0  0  0  0
  128.9410  124.2090   61.2940 C   0  0  0  0  0  0  0  0  0  0  0  0
  130.3140  125.5390   60.3190 I   0  0  0  0  0  0  0  0  0  0  0  0
  131.2660  123.8790   63.5120 C   0  0  0  0  0  0  0  0  0  0  0  0
  132.1870  124.2810   64.4740 C   0  0  0  0  0  0  0  0  0  0  0  0
  131.7950  125.0890   65.5480 C   0  0  0  0  0  0  0  0  0  0  0  0
  132.8230  125.5230   66.5070 N   0  0  0  0  0  0  0  0  0  0  0  0
  132.4700  126.2500   67.4310 O   0  0  0  0  0  0  0  0  0  0  0  0
  133.9660  125.1060   66.3490 O   0  0  0  0  0  0  0  0  0  0  0  0
  129.2630  127.5620   66.7850 O   0  0  0  0  0  0  0  0  0  0  0  0
  128.7080  127.8650   68.0550 C   0  0  0  0  0  0  0  0  0  0  0  0
  127.2470  127.3380   68.0190 C   0  0  0  0  0  0  0  0  0  0  0  0
  128.7240  129.4020   68.2160 C   0  0  0  0  0  0  0  0  0  0  0  0
  129.5596  126.9878   71.1772 H   0  0  0  0  0  0  0  0  0  0  0  0
  127.9772  126.8531   70.3380 H   0  0  0  0  0  0  0  0  0  0  0  0
  129.1150  125.4632   70.3380 H   0  0  0  0  0  0  0  0  0  0  0  0
  131.1560  127.8783   70.4096 H   0  0  0  0  0  0  0  0  0  0  0  0
  131.8558  127.2344   68.8857 H   0  0  0  0  0  0  0  0  0  0  0  0
  131.0070  128.8175   68.8857 H   0  0  0  0  0  0  0  0  0  0  0  0
  128.4903  125.4206   64.7487 H   0  0  0  0  0  0  0  0  0  0  0  0
  127.6477  122.6287   63.7943 H   0  0  0  0  0  0  0  0  0  0  0  0
  131.5882  123.2464   62.6717 H   0  0  0  0  0  0  0  0  0  0  0  0
  133.2358  123.9602   64.3898 H   0  0  0  0  0  0  0  0  0  0  0  0
  126.8796  127.2055   69.0473 H   0  0  0  0  0  0  0  0  0  0  0  0
  126.6087  128.0626   67.4921 H   0  0  0  0  0  0  0  0  0  0  0  0
  127.2182  126.3728   67.4921 H   0  0  0  0  0  0  0  0  0  0  0  0
  128.7267  129.6586   69.2856 H   0  0  0  0  0  0  0  0  0  0  0  0
  129.6265  129.8113   67.7385 H   0  0  0  0  0  0  0  0  0  0  0  0
  127.8303  129.8300   67.7385 H   0  0  0  0  0  0  0  0  0  0  0  0
  1  2  1  0
  2  3  1  0
  2  4  1  0
  4  5  1  0
  5  6  1  0
  6  7  2  0
  7  8  1  0
  8  9  1  0
  9 10  1  0
 10 11  2  0
 11 12  1  0
 12 13  1  0
 12 14  2  0
 14 15  1  0
  8 16  2  0
 16 17  1  0
 17 18  2  0
 18 19  1  0
 19 20  2  0
 19 21  1  0
  5 22  1  0
 22 23  1  0
 23 24  1  0
 23 25  1  0
 23  2  1  0
 18  6  1  0
 14  9  1  0
  1 26  1  0
  1 27  1  0
  1 28  1  0
  3 29  1  0
  3 30  1  0
  3 31  1  0
  7 32  1  0
 10 33  1  0
 16 34  1  0
 17 35  1  0
 24 36  1  0
 24 37  1  0
 24 38  1  0
 25 39  1  0
 25 40  1  0
 25 41  1  0
M  CHG  2  19   1  21  -1
M  END
>  <Binding energies>  (1) 
[-7.64]

>  <Ligand effiencies>  (1) 
[-0.3056]

>  <Interactions>  (1) 
["V-B:PRO:540:CA:9855, V-A:GLU:543:CA:4904, V-B:GLU:543:C:9874, V-A:GLU:543:C:4902, V-B:GLU:543:CB:9878, V-B:ALA:541:CB:9864, V-B:GLU:543:CG:9879, H-B:ALA:541:N:9863, V-A:GLU:543:CD:4908, V-A:TYR:484:CZ:4347, V-A:ARG:545:CG:4922, V-B:HIS:456:CE1:9041, H-A:GLY:454:N:4050, V-A:HIS:456:CE1:4070, V-A:GLU:543:CG:4907, V-B:GLU:543:CD:9880, V-A:ARG:545:CD:4923, V-A:ARG:545:CZ:4926, V-A:GLU:543:CB:4906, H-A:ARG:545:NE:4924, H-A:HIS:456:ND1:4067, H-A:TYR:484:OH:4348"]

$$$$
ZINC226906944
     RDKit          3D

 48 53  0  0  0  0  0  0  0  0999 V2000
  130.8210  132.5450   56.6000 Cl  0  0  0  0  0  0  0  0  0  0  0  0
  130.9120  131.4160   57.9030 C   0  0  0  0  0  0  0  0  0  0  0  0
  131.3080  131.8420   59.1670 C   0  0  0  0  0  0  0  0  0  0  0  0
  131.3860  130.9350   60.2240 C   0  0  0  0  0  0  0  0  0  0  0  0
  131.8910  131.5210   61.7740 Cl  0  0  0  0  0  0  0  0  0  0  0  0
  131.0620  129.5850   60.0140 C   0  0  0  0  0  0  0  0  0  0  0  0
  130.6540  129.1460   58.7310 C   0  0  0  0  0  0  0  0  0  0  0  0
  130.5900  130.0770   57.6890 C   0  0  0  0  0  0  0  0  0  0  0  0
  130.3180  127.6710   58.5470 C   0  0  2  0  0  0  0  0  0  0  0  0
  129.3670  127.2050   57.4620 C   0  0  0  0  0  0  0  0  0  0  0  0
  128.6210  126.1800   57.9220 C   0  0  0  0  0  0  0  0  0  0  0  0
  128.8810  125.9270   59.3990 C   0  0  0  0  0  0  0  0  0  0  0  0
  129.5680  127.2330   59.7900 C   0  0  1  0  0  0  0  0  0  0  0  0
  130.4130  127.3870   61.0890 C   0  0  1  0  0  0  0  0  0  0  0  0
  131.1840  126.1090   61.5270 C   0  0  0  0  0  0  0  0  0  0  0  0
  130.9550  125.6290   62.8690 C   0  0  0  0  0  0  0  0  0  0  0  0
  130.0200  126.2040   63.7880 C   0  0  0  0  0  0  0  0  0  0  0  0
  129.8580  125.6980   65.0740 C   0  0  0  0  0  0  0  0  0  0  0  0
  130.6030  124.6100   65.5010 C   0  0  0  0  0  0  0  0  0  0  0  0
  131.5150  124.0080   64.6450 C   0  0  0  0  0  0  0  0  0  0  0  0
  131.6970  124.4970   63.3280 C   0  0  0  0  0  0  0  0  0  0  0  0
  132.6060  123.8770   62.4590 C   0  0  0  0  0  0  0  0  0  0  0  0
  132.8120  124.2940   61.1350 C   0  0  0  0  0  0  0  0  0  0  0  0
  133.7270  123.5970   60.3060 C   0  0  0  0  0  0  0  0  0  0  0  0
  133.9270  123.9910   58.9890 C   0  0  0  0  0  0  0  0  0  0  0  0
  133.2290  125.0700   58.4730 C   0  0  0  0  0  0  0  0  0  0  0  0
  132.3300  125.7750   59.2660 C   0  0  0  0  0  0  0  0  0  0  0  0
  132.0910  125.4230   60.6330 C   0  0  0  0  0  0  0  0  0  0  0  0
  131.1540  128.6680   61.0950 N   0  0  0  0  0  0  0  0  0  0  0  0
  131.5609  132.8995   59.3337 H   0  0  0  0  0  0  0  0  0  0  0  0
  130.2810  129.7475   56.6860 H   0  0  0  0  0  0  0  0  0  0  0  0
  131.3089  127.2624   58.2998 H   0  0  0  0  0  0  0  0  0  0  0  0
  129.2963  127.6373   56.4530 H   0  0  0  0  0  0  0  0  0  0  0  0
  127.9152  125.6014   57.3079 H   0  0  0  0  0  0  0  0  0  0  0  0
  127.9443  125.7785   59.9563 H   0  0  0  0  0  0  0  0  0  0  0  0
  129.4663  125.0203   59.6120 H   0  0  0  0  0  0  0  0  0  0  0  0
  128.7490  127.8854   60.1271 H   0  0  0  0  0  0  0  0  0  0  0  0
  129.7139  127.4716   61.9341 H   0  0  0  0  0  0  0  0  0  0  0  0
  129.4154  127.0662   63.4700 H   0  0  0  0  0  0  0  0  0  0  0  0
  129.1331  126.1650   65.7570 H   0  0  0  0  0  0  0  0  0  0  0  0
  130.4711  124.2222   66.5219 H   0  0  0  0  0  0  0  0  0  0  0  0
  132.1011  123.1443   64.9921 H   0  0  0  0  0  0  0  0  0  0  0  0
  133.1866  123.0211   62.8337 H   0  0  0  0  0  0  0  0  0  0  0  0
  134.2829  122.7375   60.7089 H   0  0  0  0  0  0  0  0  0  0  0  0
  134.6410  123.4450   58.3549 H   0  0  0  0  0  0  0  0  0  0  0  0
  133.3870  125.3720   57.4271 H   0  0  0  0  0  0  0  0  0  0  0  0
  131.7873  126.6270   58.8307 H   0  0  0  0  0  0  0  0  0  0  0  0
  131.3180  129.0350   62.0220 H   0  0  0  0  0  0  0  0  0  0  0  0
  1  2  1  0
  2  3  2  0
  3  4  1  0
  4  5  1  0
  4  6  2  0
  6  7  1  0
  7  8  2  0
  7  9  1  0
  9 10  1  0
 10 11  2  0
 11 12  1  0
 12 13  1  0
 13 14  1  0
 14 15  1  0
 15 16  1  0
 16 17  2  0
 17 18  1  0
 18 19  2  0
 19 20  1  0
 20 21  2  0
 21 22  1  0
 22 23  2  0
 23 24  1  0
 24 25  2  0
 25 26  1  0
 26 27  2  0
 27 28  1  0
 14 29  1  0
  8  2  1  0
 13  9  1  0
 28 15  2  0
 29  6  1  0
 21 16  1  0
 28 23  1  0
  3 30  1  0
  8 31  1  0
  9 32  1  6
 10 33  1  0
 11 34  1  0
 12 35  1  0
 12 36  1  0
 13 37  1  1
 14 38  1  1
 17 39  1  0
 18 40  1  0
 19 41  1  0
 20 42  1  0
 22 43  1  0
 24 44  1  0
 25 45  1  0
 26 46  1  0
 27 47  1  0
 29 48  1  0
M  END
>  <Binding energies>  (1) 
[-8.46]

>  <Ligand effiencies>  (1) 
[-0.28200000000000003]

>  <Interactions>  (1) 
["V-A:ILE:369:CG2:3237, V-A:ASP:366:CA:3210, V-A:ILE:369:CD1:3239, V-A:PRO:540:CB:4885, V-A:PRO:540:CA:4883, V-A:ASP:366:C:3208, V-A:ILE:369:CB:3236, V-A:ILE:538:CB:4862, V-B:GLU:543:CD:9880, V-A:GLU:543:CD:4908, H-A:ASP:366:OD2:3215, V-A:ASP:366:CB:3212, V-A:TYR:484:CZ:4347, V-A:TYR:484:CE2:4346, V-B:TYR:539:CE2:9848, V-B:GLU:543:CG:9879, H-A:GLU:543:OE1:4909, V-A:ASP:366:CG:3213"]

$$$$
ZINC2280785924
     RDKit          3D

 61 63  0  0  0  0  0  0  0  0999 V2000
  131.3630  126.5780   61.8730 C   0  0  0  0  0  0  0  0  0  0  0  0
  131.9030  125.4360   62.6110 N   0  0  0  0  0  0  0  0  0  0  0  0
  133.1570  124.8220   62.1360 C   0  0  0  0  0  0  0  0  0  0  0  0
  133.0950  123.8770   60.8770 C   0  0  0  0  0  0  0  0  0  0  0  0
  132.7830  122.3720   61.3070 C   0  0  0  0  0  0  0  0  0  0  0  0
  131.2730  122.0980   61.5690 C   0  0  0  0  0  0  0  0  0  0  0  0
  133.2320  121.3790   60.2010 C   0  0  0  0  0  0  0  0  0  0  0  0
  133.5320  122.0000   62.6170 C   0  0  0  0  0  0  0  0  0  0  0  0
  132.2240  124.3950   59.6940 C   0  0  0  0  0  0  0  0  0  0  0  0
  133.3940  124.1640   58.7310 C   0  0  0  0  0  0  0  0  0  0  0  0
  134.3260  124.0320   59.9410 C   0  0  0  0  0  0  0  0  0  0  0  0
  131.2370  124.9610   63.7770 C   0  0  0  0  0  0  0  0  0  0  0  0
  130.7710  125.8460   64.7680 C   0  0  0  0  0  0  0  0  0  0  0  0
  130.1080  125.3510   65.8980 C   0  0  0  0  0  0  0  0  0  0  0  0
  129.5750  126.3330   67.0180 B   0  0  0  0  0  0  0  0  0  0  0  0
  129.6930  126.1050   68.3700 O   0  0  0  0  0  0  0  0  0  0  0  0
  129.3540  127.3140   69.0350 C   0  0  0  0  0  0  0  0  0  0  0  0
  128.7020  126.9380   70.3840 C   0  0  0  0  0  0  0  0  0  0  0  0
  130.6910  128.0650   69.2690 C   0  0  0  0  0  0  0  0  0  0  0  0
  128.3840  127.9780   67.9930 C   0  0  0  0  0  0  0  0  0  0  0  0
  126.9210  127.4590   68.0210 C   0  0  0  0  0  0  0  0  0  0  0  0
  128.4070  129.5240   67.9740 C   0  0  0  0  0  0  0  0  0  0  0  0
  128.9360  127.5250   66.7660 O   0  0  0  0  0  0  0  0  0  0  0  0
  129.9230  123.9710   66.0150 C   0  0  0  0  0  0  0  0  0  0  0  0
  130.4040  123.1410   65.0060 C   0  0  0  0  0  0  0  0  0  0  0  0
  131.0470  123.6170   63.9120 N   0  0  0  0  0  0  0  0  0  0  0  0
  131.0040  127.3372   62.5835 H   0  0  0  0  0  0  0  0  0  0  0  0
  132.1514  127.0117   61.2403 H   0  0  0  0  0  0  0  0  0  0  0  0
  130.5275  126.2438   61.2403 H   0  0  0  0  0  0  0  0  0  0  0  0
  133.8499  125.6415   61.8945 H   0  0  0  0  0  0  0  0  0  0  0  0
  133.4636  124.1591   62.9585 H   0  0  0  0  0  0  0  0  0  0  0  0
  131.0891  122.0646   62.6530 H   0  0  0  0  0  0  0  0  0  0  0  0
  130.6711  122.9016   61.1196 H   0  0  0  0  0  0  0  0  0  0  0  0
  130.9919  121.1342   61.1196 H   0  0  0  0  0  0  0  0  0  0  0  0
  133.6424  120.4714   60.6677 H   0  0  0  0  0  0  0  0  0  0  0  0
  132.3675  121.1110   59.5759 H   0  0  0  0  0  0  0  0  0  0  0  0
  134.0042  121.8511   59.5759 H   0  0  0  0  0  0  0  0  0  0  0  0
  132.9258  122.3011   63.4841 H   0  0  0  0  0  0  0  0  0  0  0  0
  133.7006  120.9134   62.6470 H   0  0  0  0  0  0  0  0  0  0  0  0
  134.4997  122.5222   62.6470 H   0  0  0  0  0  0  0  0  0  0  0  0
  131.3396  123.7759   59.4828 H   0  0  0  0  0  0  0  0  0  0  0  0
  131.7362  125.3792   59.7512 H   0  0  0  0  0  0  0  0  0  0  0  0
  133.3077  123.2510   58.1236 H   0  0  0  0  0  0  0  0  0  0  0  0
  133.6122  124.8783   57.9234 H   0  0  0  0  0  0  0  0  0  0  0  0
  134.9796  123.1478   59.9094 H   0  0  0  0  0  0  0  0  0  0  0  0
  135.0849  124.8019   60.1442 H   0  0  0  0  0  0  0  0  0  0  0  0
  130.9280  126.9288   64.6544 H   0  0  0  0  0  0  0  0  0  0  0  0
  129.3318  127.3012   71.2095 H   0  0  0  0  0  0  0  0  0  0  0  0
  127.7063  127.4006   70.4516 H   0  0  0  0  0  0  0  0  0  0  0  0
  128.6036  125.8445   70.4516 H   0  0  0  0  0  0  0  0  0  0  0  0
  130.8706  128.1659   70.3495 H   0  0  0  0  0  0  0  0  0  0  0  0
  131.5151  127.4978   68.8117 H   0  0  0  0  0  0  0  0  0  0  0  0
  130.6354  129.0639   68.8117 H   0  0  0  0  0  0  0  0  0  0  0  0
  126.5931  127.3427   69.0645 H   0  0  0  0  0  0  0  0  0  0  0  0
  126.2664  128.1798   67.5092 H   0  0  0  0  0  0  0  0  0  0  0  0
  126.8670  126.4868   67.5092 H   0  0  0  0  0  0  0  0  0  0  0  0
  128.4126  129.9033   69.0065 H   0  0  0  0  0  0  0  0  0  0  0  0
  129.3104  129.8709   67.4510 H   0  0  0  0  0  0  0  0  0  0  0  0
  127.5143  129.8976   67.4510 H   0  0  0  0  0  0  0  0  0  0  0  0
  129.4064  123.5478   66.8890 H   0  0  0  0  0  0  0  0  0  0  0  0
  130.2562  122.0551   65.1005 H   0  0  0  0  0  0  0  0  0  0  0  0
  1  2  1  0
  2  3  1  0
  3  4  1  0
  4  5  1  0
  5  6  1  0
  5  7  1  0
  5  8  1  0
  4  9  1  0
  9 10  1  0
 10 11  1  0
  2 12  1  0
 12 13  2  0
 13 14  1  0
 14 15  1  0
 15 16  1  0
 16 17  1  0
 17 18  1  0
 17 19  1  0
 17 20  1  0
 20 21  1  0
 20 22  1  0
 20 23  1  0
 14 24  2  0
 24 25  1  0
 25 26  2  0
 11  4  1  0
 26 12  1  0
 23 15  1  0
  1 27  1  0
  1 28  1  0
  1 29  1  0
  3 30  1  0
  3 31  1  0
  6 32  1  0
  6 33  1  0
  6 34  1  0
  7 35  1  0
  7 36  1  0
  7 37  1  0
  8 38  1  0
  8 39  1  0
  8 40  1  0
  9 41  1  0
  9 42  1  0
 10 43  1  0
 10 44  1  0
 11 45  1  0
 11 46  1  0
 13 47  1  0
 18 48  1  0
 18 49  1  0
 18 50  1  0
 19 51  1  0
 19 52  1  0
 19 53  1  0
 21 54  1  0
 21 55  1  0
 21 56  1  0
 22 57  1  0
 22 58  1  0
 22 59  1  0
 24 60  1  0
 25 61  1  0
M  END
>  <Binding energies>  (1) 
[-6.68]

>  <Ligand effiencies>  (1) 
[-0.2569230769230769]

>  <Interactions>  (1) 
["V-A:ILE:369:CG2:3237, V-A:ASP:366:CA:3210, V-A:GLU:543:CA:4904, V-A:GLY:454:CA:4049, V-A:ILE:369:CB:3236, V-A:GLU:543:C:4902, V-B:GLU:543:CB:9878, V-B:TYR:539:CE2:9848, V-A:TYR:484:CE2:4346, V-B:GLU:543:CG:9879, V-A:ASP:366:CG:3213, V-B:TYR:484:CE2:9317, V-B:TYR:539:CZ:9849, V-A:GLU:543:CD:4908, V-A:TYR:484:CZ:4347, V-B:GLU:543:CA:9876, V-B:HIS:456:CE1:9041, V-A:ILE:369:CD1:3239, V-A:HIS:456:CE1:4070, V-B:TYR:484:CZ:9318, V-B:TYR:539:CD2:9846, V-A:GLU:543:CG:4907, V-B:GLU:543:CD:9880, V-A:ILE:369:CG1:3238, V-A:ASP:366:CB:3212, V-A:LEU:475:CD2:4259, V-A:GLU:543:CB:4906, H-A:TYR:484:OH:4348"]

$$$$
ZINC2280785924-again1
     RDKit          3D

 62 64  0  0  0  0  0  0  0  0999 V2000
  129.5900  128.9760   58.5580 C   0  0  0  0  0  0  0  0  0  0  0  0
  131.0290  128.6950   58.4190 N   0  0  0  0  0  0  0  0  0  0  0  0
  131.9250  129.7460   57.8650 C   0  0  0  0  0  0  0  0  0  0  0  0
  131.8480  131.2180   58.4460 C   0  0  0  0  0  0  0  0  0  0  0  0
  130.9680  132.1490   57.4980 C   0  0  0  0  0  0  0  0  0  0  0  0
  129.8570  132.9540   58.2380 C   0  0  0  0  0  0  0  0  0  0  0  0
  131.8670  133.1930   56.7820 C   0  0  0  0  0  0  0  0  0  0  0  0
  130.2430  131.3050   56.4170 C   0  0  0  0  0  0  0  0  0  0  0  0
  131.4570  131.2500   59.9510 C   0  0  0  0  0  0  0  0  0  0  0  0
  132.9240  131.4930   60.3270 C   0  0  0  0  0  0  0  0  0  0  0  0
  133.2150  131.8360   58.8610 C   0  0  0  0  0  0  0  0  0  0  0  0
  131.5520  127.4160   58.8450 C   0  0  0  0  0  0  0  0  0  0  0  0
  131.4000  126.9290   60.1570 C   0  0  0  0  0  0  0  0  0  0  0  0
  131.9330  125.6860   60.5250 C   0  0  0  0  0  0  0  0  0  0  0  0
  131.7710  125.1460   62.0040 B   0  0  0  0  0  0  0  0  0  0  0  0
  132.1010  125.8630   63.1320 O   0  0  0  0  0  0  0  0  0  0  0  0
  131.5560  125.1700   64.2460 C   0  0  0  0  0  0  0  0  0  0  0  0
  132.4940  125.4090   65.4510 C   0  0  0  0  0  0  0  0  0  0  0  0
  130.1650  125.8080   64.5100 C   0  0  0  0  0  0  0  0  0  0  0  0
  131.5280  123.6960   63.7110 C   0  0  0  0  0  0  0  0  0  0  0  0
  132.8780  122.9320   63.7940 C   0  0  0  0  0  0  0  0  0  0  0  0
  130.3800  122.8210   64.2650 C   0  0  0  0  0  0  0  0  0  0  0  0
  131.2790  123.9030   62.3280 O   0  0  0  0  0  0  0  0  0  0  0  0
  132.6150  124.9350   59.5620 C   0  0  0  0  0  0  0  0  0  0  0  0
  132.7510  125.4330   58.2670 C   0  0  0  0  0  0  0  0  0  0  0  0
  132.2210  126.6340   57.9660 N   0  0  0  0  0  0  0  0  0  0  0  0
  129.3278  129.0272   59.6251 H   0  0  0  0  0  0  0  0  0  0  0  0
  129.3558  129.9368   58.0764 H   0  0  0  0  0  0  0  0  0  0  0  0
  129.0116  128.1738   58.0764 H   0  0  0  0  0  0  0  0  0  0  0  0
  132.9577  129.3969   58.0120 H   0  0  0  0  0  0  0  0  0  0  0  0
  131.5819  129.8586   56.8259 H   0  0  0  0  0  0  0  0  0  0  0  0
  129.9943  132.8545   59.3248 H   0  0  0  0  0  0  0  0  0  0  0  0
  129.9233  134.0151   57.9557 H   0  0  0  0  0  0  0  0  0  0  0  0
  128.8694  132.5605   57.9557 H   0  0  0  0  0  0  0  0  0  0  0  0
  132.3914  133.8019   57.5332 H   0  0  0  0  0  0  0  0  0  0  0  0
  132.6039  132.6723   56.1528 H   0  0  0  0  0  0  0  0  0  0  0  0
  131.2427  133.8444   56.1528 H   0  0  0  0  0  0  0  0  0  0  0  0
  129.6007  130.5573   56.9053 H   0  0  0  0  0  0  0  0  0  0  0  0
  129.6258  131.9648   55.7896 H   0  0  0  0  0  0  0  0  0  0  0  0
  130.9884  130.7944   55.7896 H   0  0  0  0  0  0  0  0  0  0  0  0
  130.7814  132.0747   60.2220 H   0  0  0  0  0  0  0  0  0  0  0  0
  130.8984  130.4149   60.3990 H   0  0  0  0  0  0  0  0  0  0  0  0
  133.0800  132.3271   61.0269 H   0  0  0  0  0  0  0  0  0  0  0  0
  133.5075  130.7240   60.8544 H   0  0  0  0  0  0  0  0  0  0  0  0
  133.3000  132.9142   58.6603 H   0  0  0  0  0  0  0  0  0  0  0  0
  134.1469  131.4979   58.3842 H   0  0  0  0  0  0  0  0  0  0  0  0
  130.8572  127.5303   60.9012 H   0  0  0  0  0  0  0  0  0  0  0  0
  131.9330  125.2661   66.3863 H   0  0  0  0  0  0  0  0  0  0  0  0
  133.3300  124.6952   65.4121 H   0  0  0  0  0  0  0  0  0  0  0  0
  132.8865  126.4359   65.4121 H   0  0  0  0  0  0  0  0  0  0  0  0
  129.9968  125.8851   65.5943 H   0  0  0  0  0  0  0  0  0  0  0  0
  130.1309  126.8118   64.0613 H   0  0  0  0  0  0  0  0  0  0  0  0
  129.3820  125.1790   64.0613 H   0  0  0  0  0  0  0  0  0  0  0  0
  133.1484  122.7790   64.8492 H   0  0  0  0  0  0  0  0  0  0  0  0
  132.7784  121.9564   63.2958 H   0  0  0  0  0  0  0  0  0  0  0  0
  133.6631  123.5197   63.2958 H   0  0  0  0  0  0  0  0  0  0  0  0
  130.4033  122.8388   65.3646 H   0  0  0  0  0  0  0  0  0  0  0  0
  129.4155  123.2152   63.9123 H   0  0  0  0  0  0  0  0  0  0  0  0
  130.5044  121.7865   63.9123 H   0  0  0  0  0  0  0  0  0  0  0  0
  133.0420  123.9560   59.8252 H   0  0  0  0  0  0  0  0  0  0  0  0
  133.2847  124.8521   57.5004 H   0  0  0  0  0  0  0  0  0  0  0  0
  132.3340  126.9770   57.0230 H   0  0  0  0  0  0  0  0  0  0  0  0
  1  2  1  0
  2  3  1  0
  3  4  1  0
  4  5  1  0
  5  6  1  0
  5  7  1  0
  5  8  1  0
  4  9  1  0
  9 10  1  0
 10 11  1  0
  2 12  1  0
 12 13  2  0
 13 14  1  0
 14 15  1  0
 15 16  1  0
 16 17  1  0
 17 18  1  0
 17 19  1  0
 17 20  1  0
 20 21  1  0
 20 22  1  0
 20 23  1  0
 14 24  2  0
 24 25  1  0
 25 26  2  0
 11  4  1  0
 26 12  1  0
 23 15  1  0
  1 27  1  0
  1 28  1  0
  1 29  1  0
  3 30  1  0
  3 31  1  0
  6 32  1  0
  6 33  1  0
  6 34  1  0
  7 35  1  0
  7 36  1  0
  7 37  1  0
  8 38  1  0
  8 39  1  0
  8 40  1  0
  9 41  1  0
  9 42  1  0
 10 43  1  0
 10 44  1  0
 11 45  1  0
 11 46  1  0
 13 47  1  0
 18 48  1  0
 18 49  1  0
 18 50  1  0
 19 51  1  0
 19 52  1  0
 19 53  1  0
 21 54  1  0
 21 55  1  0
 21 56  1  0
 22 57  1  0
 22 58  1  0
 22 59  1  0
 24 60  1  0
 25 61  1  0
 26 62  1  0
M  CHG  1  26   1
M  END
>  <Binding energies>  (1) 
[-7.36]

>  <Ligand effiencies>  (1) 
[-0.2725925925925926]

>  <Interactions>  (1) 
["V-A:ASP:366:CA:3210, V-A:PRO:540:CG:4886, V-A:GLY:454:CA:4049, V-A:ILE:538:CB:4862, H-A:TYR:531:OH:4795, V-A:TYR:484:CE2:4346, V-B:GLU:543:CG:9879, V-A:ASP:366:CG:3213, V-A:ILE:538:CG2:4863, V-A:LEU:363:CB:3187, V-A:LEU:363:CD1:3189, V-A:ILE:538:CA:4860, V-A:TYR:531:CE2:4793, H-B:TYR:539:OH:9850, V-A:GLU:543:CD:4908, V-A:TYR:531:CZ:4794, V-A:MET:535:CE:4835, V-B:GLU:543:CD:9880, V-A:TYR:539:C:4867, V-A:ASP:366:CB:3212, V-A:LEU:475:CD2:4259, H-A:ARG:545:NH2:4928, V-A:ARG:545:CZ:4926, V-A:PRO:540:N:4884, V-A:PRO:540:CB:4885, V-A:PRO:540:CA:4883, V-A:LEU:363:CA:3185, V-A:PRO:540:CD:4887"]

$$$$
ZINC2281489274-again1
     RDKit          3D

 60 63  0  0  0  0  0  0  0  0999 V2000
  130.3950  132.3880   59.0780 C   0  0  0  0  0  0  0  0  0  0  0  0
  131.1060  131.1090   59.5770 C   0  0  0  0  0  0  0  0  0  0  0  0
  132.2970  131.4770   60.5040 C   0  0  0  0  0  0  0  0  0  0  0  0
  130.1840  130.3970   60.3890 O   0  0  0  0  0  0  0  0  0  0  0  0
  130.4510  129.0570   60.2350 B   0  0  0  0  0  0  0  0  0  0  0  0
  129.8370  127.9150   61.1370 C   0  0  0  0  0  0  0  0  0  0  0  0
  128.6240  127.2960   60.8130 C   0  0  0  0  0  0  0  0  0  0  0  0
  128.1140  126.2870   61.6320 C   0  0  0  0  0  0  0  0  0  0  0  0
  128.8210  125.9050   62.7740 C   0  0  0  0  0  0  0  0  0  0  0  0
  130.0300  126.5450   63.0860 C   0  0  0  0  0  0  0  0  0  0  0  0
  130.8330  126.2320   64.2180 N   0  0  0  0  0  0  0  0  0  0  0  0
  131.4150  124.8980   64.4910 C   0  0  1  0  0  0  0  0  0  0  0  0
  130.2860  123.8600   64.6220 C   0  0  0  0  0  0  0  0  0  0  0  0
  130.9480  122.5150   64.3020 C   0  0  0  0  0  0  0  0  0  0  0  0
  132.3430  122.8470   63.7530 C   0  0  0  0  0  0  0  0  0  0  0  0
  132.3450  124.3490   63.3550 C   0  0  0  0  0  0  0  0  0  0  0  0
  131.8140  124.5870   61.9000 C   0  0  0  0  0  0  0  0  0  0  0  0
  132.6830  123.8760   60.8330 C   0  0  0  0  0  0  0  0  0  0  0  0
  134.1710  124.2890   60.9510 C   0  0  0  0  0  0  0  0  0  0  0  0
  134.7180  124.2360   62.4000 C   0  0  0  0  0  0  0  0  0  0  0  0
  133.7670  124.9740   63.3710 C   0  0  0  0  0  0  0  0  0  0  0  0
  130.4780  127.5080   62.2540 N   0  0  0  0  0  0  0  0  0  0  0  0
  131.3210  128.8340   59.1930 O   0  0  0  0  0  0  0  0  0  0  0  0
  131.4250  130.0480   58.4640 C   0  0  0  0  0  0  0  0  0  0  0  0
  130.3790  129.9520   57.3190 C   0  0  0  0  0  0  0  0  0  0  0  0
  132.8540  130.1230   57.8810 C   0  0  0  0  0  0  0  0  0  0  0  0
  130.0637  132.9839   59.9412 H   0  0  0  0  0  0  0  0  0  0  0  0
  131.0927  132.9814   58.4689 H   0  0  0  0  0  0  0  0  0  0  0  0
  129.5227  132.1087   58.4689 H   0  0  0  0  0  0  0  0  0  0  0  0
  131.9868  131.3812   61.5550 H   0  0  0  0  0  0  0  0  0  0  0  0
  133.1389  130.7971   60.3067 H   0  0  0  0  0  0  0  0  0  0  0  0
  132.6086  132.5133   60.3067 H   0  0  0  0  0  0  0  0  0  0  0  0
  128.0724  127.6047   59.9127 H   0  0  0  0  0  0  0  0  0  0  0  0
  127.1623  125.7965   61.3796 H   0  0  0  0  0  0  0  0  0  0  0  0
  128.4327  125.1076   63.4247 H   0  0  0  0  0  0  0  0  0  0  0  0
  130.9750  126.9460   64.9180 H   0  0  0  0  0  0  0  0  0  0  0  0
  132.0079  125.0356   65.4073 H   0  0  0  0  0  0  0  0  0  0  0  0
  129.8790  123.8577   65.6440 H   0  0  0  0  0  0  0  0  0  0  0  0
  129.4434  124.0774   63.9491 H   0  0  0  0  0  0  0  0  0  0  0  0
  131.0317  121.9043   65.2131 H   0  0  0  0  0  0  0  0  0  0  0  0
  130.3567  121.9389   63.5751 H   0  0  0  0  0  0  0  0  0  0  0  0
  133.1040  122.6625   64.5256 H   0  0  0  0  0  0  0  0  0  0  0  0
  132.5763  122.2160   62.8827 H   0  0  0  0  0  0  0  0  0  0  0  0
  130.7855  124.2030   61.8316 H   0  0  0  0  0  0  0  0  0  0  0  0
  131.8536  125.6680   61.7001 H   0  0  0  0  0  0  0  0  0  0  0  0
  132.6013  122.7878   60.9717 H   0  0  0  0  0  0  0  0  0  0  0  0
  132.3194  124.1704   59.8374 H   0  0  0  0  0  0  0  0  0  0  0  0
  134.7708  123.6091   60.3281 H   0  0  0  0  0  0  0  0  0  0  0  0
  134.2422  125.3350   60.6180 H   0  0  0  0  0  0  0  0  0  0  0  0
  134.8096  123.1855   62.7131 H   0  0  0  0  0  0  0  0  0  0  0  0
  135.7010  124.7290   62.4250 H   0  0  0  0  0  0  0  0  0  0  0  0
  134.1752  124.9090   64.3904 H   0  0  0  0  0  0  0  0  0  0  0  0
  133.6882  126.0227   63.0486 H   0  0  0  0  0  0  0  0  0  0  0  0
  131.3520  127.9590   62.4830 H   0  0  0  0  0  0  0  0  0  0  0  0
  129.3711  129.8595   57.7499 H   0  0  0  0  0  0  0  0  0  0  0  0
  130.4306  130.8587   56.6983 H   0  0  0  0  0  0  0  0  0  0  0  0
  130.5948  129.0699   56.6983 H   0  0  0  0  0  0  0  0  0  0  0  0
  133.5839  130.1613   58.7031 H   0  0  0  0  0  0  0  0  0  0  0  0
  133.0448  129.2336   57.2624 H   0  0  0  0  0  0  0  0  0  0  0  0
  132.9506  131.0275   57.2624 H   0  0  0  0  0  0  0  0  0  0  0  0
  1  2  1  0
  2  3  1  0
  2  4  1  0
  4  5  1  0
  5  6  1  0
  6  7  2  0
  7  8  1  0
  8  9  2  0
  9 10  1  0
 10 11  1  0
 11 12  1  0
 12 13  1  0
 13 14  1  0
 14 15  1  0
 15 16  1  0
 16 17  1  0
 17 18  1  0
 18 19  1  0
 19 20  1  0
 20 21  1  0
 10 22  2  0
  5 23  1  0
 23 24  1  0
 24 25  1  0
 24 26  1  0
 24  2  1  0
 22  6  1  0
 16 12  1  0
 21 16  1  0
  1 27  1  0
  1 28  1  0
  1 29  1  0
  3 30  1  0
  3 31  1  0
  3 32  1  0
  7 33  1  0
  8 34  1  0
  9 35  1  0
 11 36  1  0
 12 37  1  1
 13 38  1  0
 13 39  1  0
 14 40  1  0
 14 41  1  0
 15 42  1  0
 15 43  1  0
 17 44  1  0
 17 45  1  0
 18 46  1  0
 18 47  1  0
 19 48  1  0
 19 49  1  0
 20 50  1  0
 20 51  1  0
 21 52  1  0
 21 53  1  0
 22 54  1  0
 25 55  1  0
 25 56  1  0
 25 57  1  0
 26 58  1  0
 26 59  1  0
 26 60  1  0
M  CHG  1  22   1
M  END
>  <Binding energies>  (1) 
[-8.06]

>  <Ligand effiencies>  (1) 
[-0.28785714285714287]

>  <Interactions>  (1) 
["V-A:ASP:366:CA:3210, V-A:GLY:454:CA:4049, H-A:GLU:543:OE2:4910, V-A:TYR:484:CE2:4346, V-B:GLU:543:CG:9879, V-A:ASP:366:CG:3213, V-A:LEU:363:CD1:3189, V-A:TYR:531:CE2:4793, V-A:GLU:543:CD:4908, V-A:TYR:484:CZ:4347, V-A:GLY:453:C:4042, V-A:ILE:369:CD1:3239, V-A:TYR:531:CZ:4794, V-B:GLU:543:CD:9880, V-A:MET:535:CE:4835, V-A:TYR:539:C:4867, V-A:ASP:366:CB:3212, V-A:LEU:475:CD2:4259, V-A:ARG:545:CZ:4926, H-A:GLU:543:OE1:4909, V-A:PRO:540:N:4884, V-A:PRO:540:CB:4885, V-A:PRO:540:CA:4883, V-A:GLY:453:CA:4044, H-A:ASP:366:OD2:3215"]

$$$$
ZINC2282008383
     RDKit          3D

 66 67  0  0  0  0  0  0  0  0999 V2000
  133.4780  124.5140   61.7880 C   0  0  0  0  0  0  0  0  0  0  0  0
  132.8980  124.0680   63.0540 N   0  0  0  0  0  0  0  0  0  0  0  0
  132.2910  122.7300   63.0460 C   0  0  0  0  0  0  0  0  0  0  0  0
  131.4760  122.4310   61.7760 C   0  0  0  0  0  0  0  0  0  0  0  0
  129.7800  121.7130   62.2140 S   0  0  1  0  0  6  0  0  0  0  0  0
  129.8580  119.9160   61.6470 C   0  0  0  0  0  0  0  0  0  0  0  0
  129.5730  121.7380   63.6670 O   0  0  0  0  0  0  0  0  0  0  0  0
  128.8590  122.3480   61.1400 N   0  0  0  0  0  0  0  0  0  0  0  0
  127.8700  123.2260   61.5440 C   0  0  0  0  0  0  0  0  0  0  0  0
  126.7680  122.9170   62.0050 O   0  0  0  0  0  0  0  0  0  0  0  0
  128.2710  124.6660   61.4090 C   0  0  0  0  0  0  0  0  0  0  0  0
  129.3370  125.0560   62.1610 N   0  0  0  0  0  0  0  0  0  0  0  0
  129.7540  126.3430   62.0690 C   0  0  0  0  0  0  0  0  0  0  0  0
  129.1450  127.2880   61.2390 C   0  0  0  0  0  0  0  0  0  0  0  0
  129.6780  128.7750   61.1680 B   0  0  0  0  0  0  0  0  0  0  0  0
  131.0040  129.1280   61.2590 O   0  0  0  0  0  0  0  0  0  0  0  0
  131.1050  130.4910   60.8740 C   0  0  0  0  0  0  0  0  0  0  0  0
  132.2700  131.1180   61.6740 C   0  0  0  0  0  0  0  0  0  0  0  0
  131.4330  130.4850   59.3570 C   0  0  0  0  0  0  0  0  0  0  0  0
  129.6780  131.0250   61.2520 C   0  0  0  0  0  0  0  0  0  0  0  0
  129.4760  131.3770   62.7510 C   0  0  0  0  0  0  0  0  0  0  0  0
  129.1490  132.1670   60.3550 C   0  0  0  0  0  0  0  0  0  0  0  0
  128.8750  129.8790   61.0070 O   0  0  0  0  0  0  0  0  0  0  0  0
  128.0520  126.8710   60.4710 C   0  0  0  0  0  0  0  0  0  0  0  0
  127.6020  125.5510   60.5460 C   0  0  0  0  0  0  0  0  0  0  0  0
  126.2530  125.0700   59.5700 Cl  0  0  0  0  0  0  0  0  0  0  0  0
  132.9850  124.8710   64.2030 C   0  0  0  0  0  0  0  0  0  0  0  0
  133.9810  124.9700   64.9230 O   0  0  0  0  0  0  0  0  0  0  0  0
  131.8080  125.5360   64.4350 O   0  0  0  0  0  0  0  0  0  0  0  0
  130.8990  125.2860   65.5210 C   0  0  0  0  0  0  0  0  0  0  0  0
  131.5910  125.4690   66.8940 C   0  0  0  0  0  0  0  0  0  0  0  0
  129.6360  126.1740   65.4110 C   0  0  0  0  0  0  0  0  0  0  0  0
  130.5020  123.8050   65.3460 C   0  0  0  0  0  0  0  0  0  0  0  0
  134.3352  125.1732   61.9895 H   0  0  0  0  0  0  0  0  0  0  0  0
  133.8150  123.6402   61.2111 H   0  0  0  0  0  0  0  0  0  0  0  0
  132.7200  125.0641   61.2111 H   0  0  0  0  0  0  0  0  0  0  0  0
  133.0945  121.9831   63.1274 H   0  0  0  0  0  0  0  0  0  0  0  0
  131.5927  122.6875   63.8948 H   0  0  0  0  0  0  0  0  0  0  0  0
  131.3367  123.3637   61.2097 H   0  0  0  0  0  0  0  0  0  0  0  0
  132.0245  121.6929   61.1724 H   0  0  0  0  0  0  0  0  0  0  0  0
  129.8867  119.2551   62.5259 H   0  0  0  0  0  0  0  0  0  0  0  0
  128.9691  119.6834   61.0422 H   0  0  0  0  0  0  0  0  0  0  0  0
  130.7637  119.7613   61.0422 H   0  0  0  0  0  0  0  0  0  0  0  0
  130.6141  126.6587   62.6777 H   0  0  0  0  0  0  0  0  0  0  0  0
  132.0737  131.0124   62.7512 H   0  0  0  0  0  0  0  0  0  0  0  0
  133.2082  130.6030   61.4200 H   0  0  0  0  0  0  0  0  0  0  0  0
  132.3569  132.1847   61.4200 H   0  0  0  0  0  0  0  0  0  0  0  0
  132.5240  130.4650   59.2178 H   0  0  0  0  0  0  0  0  0  0  0  0
  130.9873  129.5949   58.8890 H   0  0  0  0  0  0  0  0  0  0  0  0
  131.0202  131.3908   58.8890 H   0  0  0  0  0  0  0  0  0  0  0  0
  129.9266  130.5919   63.3759 H   0  0  0  0  0  0  0  0  0  0  0  0
  129.9582  132.3413   62.9694 H   0  0  0  0  0  0  0  0  0  0  0  0
  128.4002  131.4472   62.9694 H   0  0  0  0  0  0  0  0  0  0  0  0
  128.7705  132.9841   60.9867 H   0  0  0  0  0  0  0  0  0  0  0  0
  129.9650  132.5424   59.7199 H   0  0  0  0  0  0  0  0  0  0  0  0
  128.3350  131.7873   59.7199 H   0  0  0  0  0  0  0  0  0  0  0  0
  127.5453  127.5856   59.8057 H   0  0  0  0  0  0  0  0  0  0  0  0
  130.8658  125.2772   67.6986 H   0  0  0  0  0  0  0  0  0  0  0  0
  132.4290  124.7616   66.9794 H   0  0  0  0  0  0  0  0  0  0  0  0
  131.9698  126.4982   66.9794 H   0  0  0  0  0  0  0  0  0  0  0  0
  129.2765  126.4267   66.4194 H   0  0  0  0  0  0  0  0  0  0  0  0
  129.8835  127.0979   64.8677 H   0  0  0  0  0  0  0  0  0  0  0  0
  128.8504  125.6284   64.8677 H   0  0  0  0  0  0  0  0  0  0  0  0
  130.3772  123.3395   66.3348 H   0  0  0  0  0  0  0  0  0  0  0  0
  129.5554  123.7425   64.7892 H   0  0  0  0  0  0  0  0  0  0  0  0
  131.2904  123.2774   64.7892 H   0  0  0  0  0  0  0  0  0  0  0  0
  1  2  1  0
  2  3  1  0
  3  4  1  0
  5  4  1  1
  5  6  1  0
  5  7  2  0
  5  8  2  0
  8  9  1  0
  9 10  2  0
  9 11  1  0
 11 12  2  0
 12 13  1  0
 13 14  2  0
 14 15  1  0
 15 16  1  0
 16 17  1  0
 17 18  1  0
 17 19  1  0
 17 20  1  0
 20 21  1  0
 20 22  1  0
 20 23  1  0
 14 24  1  0
 24 25  2  0
 25 26  1  0
  2 27  1  0
 27 28  2  0
 27 29  1  0
 29 30  1  0
 30 31  1  0
 30 32  1  0
 30 33  1  0
 25 11  1  0
 23 15  1  0
  1 34  1  0
  1 35  1  0
  1 36  1  0
  3 37  1  0
  3 38  1  0
  4 39  1  0
  4 40  1  0
  6 41  1  0
  6 42  1  0
  6 43  1  0
 13 44  1  0
 18 45  1  0
 18 46  1  0
 18 47  1  0
 19 48  1  0
 19 49  1  0
 19 50  1  0
 21 51  1  0
 21 52  1  0
 21 53  1  0
 22 54  1  0
 22 55  1  0
 22 56  1  0
 24 57  1  0
 31 58  1  0
 31 59  1  0
 31 60  1  0
 32 61  1  0
 32 62  1  0
 32 63  1  0
 33 64  1  0
 33 65  1  0
 33 66  1  0
M  END
>  <Binding energies>  (1) 
[-6.36]

>  <Ligand effiencies>  (1) 
[-0.19272727272727275]

>  <Interactions>  (1) 
["V-B:PRO:540:CA:9855, V-B:ALA:541:CB:9864, H-A:ARG:545:NH1:4927, V-A:TYR:484:CE2:4346, V-B:GLU:543:CG:9879, V-A:ASP:366:CG:3213, H-B:ALA:541:N:9863, V-A:TYR:484:CZ:4347, V-A:GLU:543:CD:4908, H-A:GLY:454:N:4050, V-A:HIS:456:CE1:4070, V-A:GLU:543:CG:4907, V-B:GLU:543:CD:9880, V-A:LEU:475:CD2:4259, H-A:ARG:545:NH2:4928, V-A:ARG:545:CZ:4926, V-A:PRO:540:CA:4883, H-A:ARG:545:NE:4924, H-A:TYR:484:OH:4348"]

$$$$
ZINC2282309053
     RDKit          3D

 63 65  0  0  0  0  0  0  0  0999 V2000
  131.4340  133.0160   56.6370 C   0  0  0  0  0  0  0  0  0  0  0  0
  130.3860  132.4300   57.6140 C   0  0  0  0  0  0  0  0  0  0  0  0
  130.0090  130.9810   57.2220 C   0  0  0  0  0  0  0  0  0  0  0  0
  129.1200  133.3100   57.5920 C   0  0  0  0  0  0  0  0  0  0  0  0
  130.8410  132.4990   58.9790 O   0  0  0  0  0  0  0  0  0  0  0  0
  131.6020  131.5540   59.6130 C   0  0  0  0  0  0  0  0  0  0  0  0
  132.4760  130.8800   59.0720 O   0  0  0  0  0  0  0  0  0  0  0  0
  131.2610  131.4350   60.9590 N   0  0  0  0  0  0  0  0  0  0  0  0
  130.2190  132.2110   61.6430 C   0  0  1  0  0  0  0  0  0  0  0  0
  128.8420  131.9710   60.9760 C   0  0  0  0  0  0  0  0  0  0  0  0
  127.7460  132.4550   61.9250 C   0  0  0  0  0  0  0  0  0  0  0  0
  128.3050  131.7440   63.5600 S   0  0  1  0  0  6  0  0  0  0  0  0
  127.9860  132.6900   64.6350 O   0  0  0  0  0  0  0  0  0  0  0  0
  127.8750  130.2720   63.6290 N   0  0  0  0  0  0  0  0  0  0  0  0
  127.4730  129.6970   65.2390 S   0  0  0  0  0  0  0  0  0  0  0  0
  128.0610  130.3440   66.4190 O   0  0  0  0  0  0  0  0  0  0  0  0
  126.0980  129.2270   65.4310 O   0  0  0  0  0  0  0  0  0  0  0  0
  128.3950  128.1370   65.1010 C   0  0  0  0  0  0  0  0  0  0  0  0
  128.7650  127.3100   66.1560 C   0  0  0  0  0  0  0  0  0  0  0  0
  129.4640  126.1690   65.7460 C   0  0  0  0  0  0  0  0  0  0  0  0
  130.0320  124.9830   66.8560 Cl  0  0  0  0  0  0  0  0  0  0  0  0
  129.6380  126.1170   64.3620 C   0  0  0  0  0  0  0  0  0  0  0  0
  130.3690  125.0130   63.5060 B   0  0  0  0  0  0  0  0  0  0  0  0
  131.7160  125.0180   63.2220 O   0  0  0  0  0  0  0  0  0  0  0  0
  132.0390  123.7440   62.6860 C   0  0  0  0  0  0  0  0  0  0  0  0
  133.1940  123.9390   61.6770 C   0  0  0  0  0  0  0  0  0  0  0  0
  132.5100  122.8790   63.8860 C   0  0  0  0  0  0  0  0  0  0  0  0
  130.6680  123.3210   62.0490 C   0  0  0  0  0  0  0  0  0  0  0  0
  130.3660  123.9320   60.6540 C   0  0  0  0  0  0  0  0  0  0  0  0
  130.3940  121.8000   62.0430 C   0  0  0  0  0  0  0  0  0  0  0  0
  129.7470  123.9200   62.9480 O   0  0  0  0  0  0  0  0  0  0  0  0
  128.9310  127.5010   63.5790 S   0  0  0  0  0  0  0  0  0  0  0  0
  130.1420  131.8230   63.1410 C   0  0  0  0  0  0  0  0  0  0  0  0
  132.2535  133.4743   57.2100 H   0  0  0  0  0  0  0  0  0  0  0  0
  131.8349  132.2112   56.0034 H   0  0  0  0  0  0  0  0  0  0  0  0
  130.9582  133.7790   56.0034 H   0  0  0  0  0  0  0  0  0  0  0  0
  129.8535  130.3835   58.1324 H   0  0  0  0  0  0  0  0  0  0  0  0
  129.0835  130.9910   56.6275 H   0  0  0  0  0  0  0  0  0  0  0  0
  130.8220  130.5387   56.6275 H   0  0  0  0  0  0  0  0  0  0  0  0
  128.8068  133.5277   58.6238 H   0  0  0  0  0  0  0  0  0  0  0  0
  129.3377  134.2525   57.0683 H   0  0  0  0  0  0  0  0  0  0  0  0
  128.3124  132.7776   57.0683 H   0  0  0  0  0  0  0  0  0  0  0  0
  131.7570  130.7460   61.5050 H   0  0  0  0  0  0  0  0  0  0  0  0
  130.4804  133.2765   61.5628 H   0  0  0  0  0  0  0  0  0  0  0  0
  128.7863  132.5304   60.0305 H   0  0  0  0  0  0  0  0  0  0  0  0
  128.7093  130.8994   60.7661 H   0  0  0  0  0  0  0  0  0  0  0  0
  127.7045  133.5537   61.9603 H   0  0  0  0  0  0  0  0  0  0  0  0
  126.7336  132.1430   61.6289 H   0  0  0  0  0  0  0  0  0  0  0  0
  128.5315  127.5307   67.2080 H   0  0  0  0  0  0  0  0  0  0  0  0
  134.1353  124.0979   62.2235 H   0  0  0  0  0  0  0  0  0  0  0  0
  133.2837  123.0433   61.0448 H   0  0  0  0  0  0  0  0  0  0  0  0
  132.9847  124.8145   61.0448 H   0  0  0  0  0  0  0  0  0  0  0  0
  132.2379  123.3787   64.8274 H   0  0  0  0  0  0  0  0  0  0  0  0
  132.0241  121.8932   63.8404 H   0  0  0  0  0  0  0  0  0  0  0  0
  133.6017  122.7522   63.8404 H   0  0  0  0  0  0  0  0  0  0  0  0
  129.8818  124.9116   60.7798 H   0  0  0  0  0  0  0  0  0  0  0  0
  131.3063  124.0566   60.0969 H   0  0  0  0  0  0  0  0  0  0  0  0
  129.6960  123.2607   60.0969 H   0  0  0  0  0  0  0  0  0  0  0  0
  130.3283  121.4352   63.0787 H   0  0  0  0  0  0  0  0  0  0  0  0
  129.4454  121.6004   61.5230 H   0  0  0  0  0  0  0  0  0  0  0  0
  131.2133  121.2819   61.5230 H   0  0  0  0  0  0  0  0  0  0  0  0
  130.6432  132.5823   63.7593 H   0  0  0  0  0  0  0  0  0  0  0  0
  130.6426  130.8631   63.3360 H   0  0  0  0  0  0  0  0  0  0  0  0
  1  2  1  0
  2  3  1  0
  2  4  1  0
  2  5  1  0
  5  6  1  0
  6  7  2  0
  6  8  1  0
  8  9  1  0
  9 10  1  0
 10 11  1  0
 12 11  1  6
 12 13  2  0
 12 14  2  0
 14 15  1  0
 15 16  2  0
 15 17  2  0
 15 18  1  0
 18 19  2  0
 19 20  1  0
 20 21  1  0
 20 22  2  0
 22 23  1  0
 23 24  1  0
 24 25  1  0
 25 26  1  0
 25 27  1  0
 25 28  1  0
 28 29  1  0
 28 30  1  0
 28 31  1  0
 22 32  1  0
 12 33  1  0
 33  9  1  0
 32 18  1  0
 31 23  1  0
  1 34  1  0
  1 35  1  0
  1 36  1  0
  3 37  1  0
  3 38  1  0
  3 39  1  0
  4 40  1  0
  4 41  1  0
  4 42  1  0
  8 43  1  0
  9 44  1  1
 10 45  1  0
 10 46  1  0
 11 47  1  0
 11 48  1  0
 19 49  1  0
 26 50  1  0
 26 51  1  0
 26 52  1  0
 27 53  1  0
 27 54  1  0
 27 55  1  0
 29 56  1  0
 29 57  1  0
 29 58  1  0
 30 59  1  0
 30 60  1  0
 30 61  1  0
 33 62  1  0
 33 63  1  0
M  END
>  <Binding energies>  (1) 
[-8.17]

>  <Ligand effiencies>  (1) 
[-0.24029411764705882]

>  <Interactions>  (1) 
["V-A:GLY:454:CA:4049, V-A:PRO:540:C:4881, V-A:ILE:538:CB:4862, V-B:GLU:543:CB:9878, V-B:TYR:539:CE2:9848, V-A:TYR:484:CE2:4346, V-B:GLU:543:CG:9879, V-A:ILE:538:CG2:4863, V-A:LEU:363:CD1:3189, V-A:TYR:539:CD1:4873, V-A:ILE:538:CA:4860, V-A:ALA:541:CB:4892, V-A:TYR:539:CA:4869, V-A:GLU:543:CD:4908, V-A:TYR:484:CZ:4347, H-B:TYR:484:OH:9319, V-B:GLU:543:CA:9876, V-A:HIS:456:CE1:4070, V-A:GLU:543:CG:4907, V-A:MET:535:CE:4835, V-B:GLU:543:CD:9880, V-A:TYR:539:C:4867, V-A:LEU:475:CD2:4259, H-A:ARG:545:NH2:4928, H-A:GLU:543:OE1:4909, V-A:PRO:540:N:4884, V-A:TYR:539:CG:4872, V-A:PRO:540:CB:4885, V-A:PRO:540:CA:4883, H-A:ASP:366:OD2:3215, V-A:PRO:540:CD:4887, V-A:TYR:539:CE1:4875"]

$$$$
ZINC2282327201
     RDKit          3D

 70 72  0  0  0  0  0  0  0  0999 V2000
  128.1810  129.0700   67.5780 C   0  0  0  0  0  0  0  0  0  0  0  0
  128.8280  127.7280   67.3140 C   0  0  0  0  0  0  0  0  0  0  0  0
  129.0450  127.2070   66.0280 C   0  0  0  0  0  0  0  0  0  0  0  0
  129.6310  125.9510   66.0160 C   0  0  0  0  0  0  0  0  0  0  0  0
  130.0420  124.9920   64.5390 S   0  0  0  0  0  0  0  0  0  0  0  0
  129.1120  123.8590   64.4830 O   0  0  0  0  0  0  0  0  0  0  0  0
  130.1610  125.9490   63.4340 O   0  0  0  0  0  0  0  0  0  0  0  0
  131.6590  124.4170   64.9540 N   0  0  0  0  0  0  0  0  0  0  0  0
  132.6780  124.1420   63.9180 C   0  0  2  0  0  0  0  0  0  0  0  0
  133.9190  125.0250   64.0300 C   0  0  0  0  0  0  0  0  0  0  0  0
  134.6250  124.8420   62.6850 C   0  0  0  0  0  0  0  0  0  0  0  0
  133.5090  124.5990   61.6440 C   0  0  1  0  0  0  0  0  0  0  0  0
  133.8280  123.4830   60.6170 C   0  0  0  0  0  0  0  0  0  0  0  0
  134.1830  123.9650   59.2780 N   0  0  0  0  0  0  0  0  0  0  0  0
  133.2740  124.3790   58.3070 C   0  0  0  0  0  0  0  0  0  0  0  0
  133.6060  124.7970   57.1990 O   0  0  0  0  0  0  0  0  0  0  0  0
  131.9810  124.2590   58.7420 O   0  0  0  0  0  0  0  0  0  0  0  0
  131.0720  125.3490   58.9740 C   0  0  0  0  0  0  0  0  0  0  0  0
  129.8210  124.8880   59.7610 C   0  0  0  0  0  0  0  0  0  0  0  0
  131.7780  126.5260   59.6910 C   0  0  0  0  0  0  0  0  0  0  0  0
  130.6460  125.7920   57.5590 C   0  0  0  0  0  0  0  0  0  0  0  0
  132.2300  124.3150   62.4610 C   0  0  0  0  0  0  0  0  0  0  0  0
  129.9370  125.3730   67.6160 S   0  0  0  0  0  0  0  0  0  0  0  0
  129.2620  126.8250   68.2950 C   0  0  0  0  0  0  0  0  0  0  0  0
  129.2030  126.9970   69.8620 B   0  0  0  0  0  0  0  0  0  0  0  0
  128.0740  126.7930   70.6220 O   0  0  0  0  0  0  0  0  0  0  0  0
  128.4770  126.7780   71.9840 C   0  0  0  0  0  0  0  0  0  0  0  0
  127.3110  127.3520   72.8210 C   0  0  0  0  0  0  0  0  0  0  0  0
  128.7200  125.2870   72.3430 C   0  0  0  0  0  0  0  0  0  0  0  0
  129.7630  127.6760   71.9360 C   0  0  0  0  0  0  0  0  0  0  0  0
  129.5040  129.2070   71.9420 C   0  0  0  0  0  0  0  0  0  0  0  0
  130.8550  127.3110   72.9660 C   0  0  0  0  0  0  0  0  0  0  0  0
  130.2700  127.3690   70.6460 O   0  0  0  0  0  0  0  0  0  0  0  0
  128.1028  129.2322   68.6632 H   0  0  0  0  0  0  0  0  0  0  0  0
  128.7939  129.8668   67.1314 H   0  0  0  0  0  0  0  0  0  0  0  0
  127.1759  129.0867   67.1314 H   0  0  0  0  0  0  0  0  0  0  0  0
  128.7735  127.7487   65.1099 H   0  0  0  0  0  0  0  0  0  0  0  0
  131.7690  123.9280   65.8470 H   0  0  0  0  0  0  0  0  0  0  0  0
  132.8816  123.0821   64.1306 H   0  0  0  0  0  0  0  0  0  0  0  0
  133.6378  126.0772   64.1842 H   0  0  0  0  0  0  0  0  0  0  0  0
  134.5569  124.7530   64.8839 H   0  0  0  0  0  0  0  0  0  0  0  0
  135.1965  125.7460   62.4278 H   0  0  0  0  0  0  0  0  0  0  0  0
  135.3356  124.0028   62.7153 H   0  0  0  0  0  0  0  0  0  0  0  0
  133.3908  125.4851   61.0031 H   0  0  0  0  0  0  0  0  0  0  0  0
  134.6720  122.8928   61.0035 H   0  0  0  0  0  0  0  0  0  0  0  0
  132.9056  122.8950   60.5009 H   0  0  0  0  0  0  0  0  0  0  0  0
  135.1650  124.0270   59.0550 H   0  0  0  0  0  0  0  0  0  0  0  0
  130.0194  124.9611   60.8405 H   0  0  0  0  0  0  0  0  0  0  0  0
  128.9668  125.5304   59.5008 H   0  0  0  0  0  0  0  0  0  0  0  0
  129.5879  123.8449   59.5008 H   0  0  0  0  0  0  0  0  0  0  0  0
  131.6982  126.3929   60.7800 H   0  0  0  0  0  0  0  0  0  0  0  0
  132.8389  126.5486   59.4012 H   0  0  0  0  0  0  0  0  0  0  0  0
  131.2985  127.4726   59.4012 H   0  0  0  0  0  0  0  0  0  0  0  0
  129.8854  126.5829   57.6359 H   0  0  0  0  0  0  0  0  0  0  0  0
  131.5218  126.1770   57.0161 H   0  0  0  0  0  0  0  0  0  0  0  0
  130.2270  124.9319   57.0161 H   0  0  0  0  0  0  0  0  0  0  0  0
  131.5288  125.1583   62.3759 H   0  0  0  0  0  0  0  0  0  0  0  0
  131.7123  123.4169   62.0931 H   0  0  0  0  0  0  0  0  0  0  0  0
  127.5382  127.2401   73.8914 H   0  0  0  0  0  0  0  0  0  0  0  0
  127.1792  128.4180   72.5836 H   0  0  0  0  0  0  0  0  0  0  0  0
  126.3858  126.8064   72.5836 H   0  0  0  0  0  0  0  0  0  0  0  0
  128.7388  125.1716   73.4368 H   0  0  0  0  0  0  0  0  0  0  0  0
  127.9102  124.6721   71.9233 H   0  0  0  0  0  0  0  0  0  0  0  0
  129.6831  124.9611   71.9233 H   0  0  0  0  0  0  0  0  0  0  0  0
  129.4435  129.5646   72.9805 H   0  0  0  0  0  0  0  0  0  0  0  0
  130.3281  129.7203   71.4249 H   0  0  0  0  0  0  0  0  0  0  0  0
  128.5569  129.4207   71.4249 H   0  0  0  0  0  0  0  0  0  0  0  0
  130.4584  127.4436   73.9834 H   0  0  0  0  0  0  0  0  0  0  0  0
  131.1574  126.2629   72.8240 H   0  0  0  0  0  0  0  0  0  0  0  0
  131.7268  127.9666   72.8240 H   0  0  0  0  0  0  0  0  0  0  0  0
  1  2  1  0
  2  3  1  0
  3  4  2  0
  4  5  1  0
  5  6  2  0
  5  7  2  0
  5  8  1  0
  8  9  1  0
  9 10  1  0
 10 11  1  0
 11 12  1  0
 12 13  1  0
 13 14  1  0
 14 15  1  0
 15 16  2  0
 15 17  1  0
 17 18  1  0
 18 19  1  0
 18 20  1  0
 18 21  1  0
 12 22  1  0
  4 23  1  0
 23 24  1  0
 24 25  1  0
 25 26  1  0
 26 27  1  0
 27 28  1  0
 27 29  1  0
 27 30  1  0
 30 31  1  0
 30 32  1  0
 30 33  1  0
 24  2  2  0
 33 25  1  0
 22  9  1  0
  1 34  1  0
  1 35  1  0
  1 36  1  0
  3 37  1  0
  8 38  1  0
  9 39  1  6
 10 40  1  0
 10 41  1  0
 11 42  1  0
 11 43  1  0
 12 44  1  6
 13 45  1  0
 13 46  1  0
 14 47  1  0
 19 48  1  0
 19 49  1  0
 19 50  1  0
 20 51  1  0
 20 52  1  0
 20 53  1  0
 21 54  1  0
 21 55  1  0
 21 56  1  0
 22 57  1  0
 22 58  1  0
 28 59  1  0
 28 60  1  0
 28 61  1  0
 29 62  1  0
 29 63  1  0
 29 64  1  0
 31 65  1  0
 31 66  1  0
 31 67  1  0
 32 68  1  0
 32 69  1  0
 32 70  1  0
M  END
>  <Binding energies>  (1) 
[-7.52]

>  <Ligand effiencies>  (1) 
[-0.21485714285714286]

>  <Interactions>  (1) 
["V-A:ILE:369:CG2:3237, V-A:ASP:366:CA:3210, V-B:HIS:456:CD2:9039, V-B:GLU:543:C:9874, V-A:GLU:543:C:4902, V-A:ILE:369:CB:3236, V-B:GLU:543:CB:9878, V-B:TYR:539:CE2:9848, V-A:TYR:484:CE2:4346, V-B:GLU:543:CG:9879, V-A:GLY:544:C:4912, V-A:ASP:366:CG:3213, V-A:HIS:456:CD2:4068, V-B:TYR:539:CZ:9849, H-A:ASN:370:N:3244, H-B:TYR:539:OH:9850, V-B:LYS:547:CE:9922, V-A:GLU:543:CD:4908, V-B:HIS:456:CE1:9041, V-B:GLU:543:CA:9876, V-A:GLY:453:C:4042, V-A:ILE:369:CD1:3239, V-A:HIS:456:CE1:4070, V-B:GLY:544:C:9884, V-A:ASP:366:C:3208, V-B:GLY:544:CA:9886, V-A:GLU:543:CG:4907, V-B:GLU:543:CD:9880, V-B:HIS:456:CG:9037, V-A:ASP:366:CB:3212, V-A:ARG:545:CZ:4926, H-A:ASP:366:O:3209, V-A:GLU:543:CB:4906, V-A:GLY:453:CA:4044, H-A:TYR:484:OH:4348"]

$$$$
ZINC2282346873
     RDKit          3D

 70 72  0  0  0  0  0  0  0  0999 V2000
  129.5570  121.6590   62.2720 C   0  0  0  0  0  0  0  0  0  0  0  0
  129.0700  123.0620   62.2240 N   0  0  0  0  0  0  0  0  0  0  0  0
  129.1050  123.8010   63.5290 C   0  0  2  0  0  0  0  0  0  0  0  0
  129.5100  125.2850   63.5100 C   0  0  0  0  0  0  0  0  0  0  0  0
  129.8960  125.6330   64.9560 C   0  0  0  0  0  0  0  0  0  0  0  0
  129.9390  124.3030   65.7230 C   0  0  0  0  0  0  0  0  0  0  0  0
  129.9840  123.2010   64.6500 C   0  0  2  0  0  0  0  0  0  0  0  0
  131.4310  122.8370   64.2060 C   0  0  0  0  0  0  0  0  0  0  0  0
  132.4320  123.8660   64.5060 N   0  0  0  0  0  0  0  0  0  0  0  0
  133.4620  124.2520   63.6520 C   0  0  0  0  0  0  0  0  0  0  0  0
  134.3230  125.0780   63.9540 O   0  0  0  0  0  0  0  0  0  0  0  0
  133.3930  123.6030   62.4470 O   0  0  0  0  0  0  0  0  0  0  0  0
  133.0120  124.1990   61.1940 C   0  0  0  0  0  0  0  0  0  0  0  0
  131.8830  123.3910   60.5090 C   0  0  0  0  0  0  0  0  0  0  0  0
  132.4780  125.5920   61.5800 C   0  0  0  0  0  0  0  0  0  0  0  0
  134.2310  124.3590   60.2520 C   0  0  0  0  0  0  0  0  0  0  0  0
  127.7310  123.3480   61.0780 S   0  0  0  0  0  0  0  0  0  0  0  0
  127.9680  122.6280   59.8230 O   0  0  0  0  0  0  0  0  0  0  0  0
  126.4560  123.2110   61.7920 O   0  0  0  0  0  0  0  0  0  0  0  0
  127.9460  125.1140   60.7390 C   0  0  0  0  0  0  0  0  0  0  0  0
  126.9640  126.0860   60.8870 C   0  0  0  0  0  0  0  0  0  0  0  0
  127.4160  127.3640   60.5470 C   0  0  0  0  0  0  0  0  0  0  0  0
  128.7420  127.3790   60.1280 C   0  0  0  0  0  0  0  0  0  0  0  0
  129.5820  128.6270   59.6740 B   0  0  0  0  0  0  0  0  0  0  0  0
  129.3410  129.9100   60.1040 O   0  0  0  0  0  0  0  0  0  0  0  0
  130.4490  130.7040   59.7070 C   0  0  0  0  0  0  0  0  0  0  0  0
  129.9250  132.1290   59.4190 C   0  0  0  0  0  0  0  0  0  0  0  0
  131.4210  130.7200   60.9180 C   0  0  0  0  0  0  0  0  0  0  0  0
  130.9590  129.9180   58.4470 C   0  0  0  0  0  0  0  0  0  0  0  0
  130.1890  130.2020   57.1290 C   0  0  0  0  0  0  0  0  0  0  0  0
  132.4840  129.9910   58.2040 C   0  0  0  0  0  0  0  0  0  0  0  0
  130.6450  128.5790   58.8030 O   0  0  0  0  0  0  0  0  0  0  0  0
  129.4350  125.7860   60.1500 S   0  0  0  0  0  0  0  0  0  0  0  0
  129.6662  121.3444   63.3204 H   0  0  0  0  0  0  0  0  0  0  0  0
  128.8342  121.0024   61.7656 H   0  0  0  0  0  0  0  0  0  0  0  0
  130.5312  121.5915   61.7656 H   0  0  0  0  0  0  0  0  0  0  0  0
  128.0307  123.6896   63.7377 H   0  0  0  0  0  0  0  0  0  0  0  0
  130.3665  125.4396   62.8373 H   0  0  0  0  0  0  0  0  0  0  0  0
  128.6916  125.9230   63.1450 H   0  0  0  0  0  0  0  0  0  0  0  0
  130.8826  126.1188   64.9804 H   0  0  0  0  0  0  0  0  0  0  0  0
  129.1740  126.3305   65.4056 H   0  0  0  0  0  0  0  0  0  0  0  0
  130.8359  124.2560   66.3581 H   0  0  0  0  0  0  0  0  0  0  0  0
  129.0673  124.1887   66.3841 H   0  0  0  0  0  0  0  0  0  0  0  0
  129.6128  122.2266   65.0005 H   0  0  0  0  0  0  0  0  0  0  0  0
  131.7257  121.9098   64.7193 H   0  0  0  0  0  0  0  0  0  0  0  0
  131.4070  122.7310   63.1114 H   0  0  0  0  0  0  0  0  0  0  0  0
  132.4010  124.2880   65.4220 H   0  0  0  0  0  0  0  0  0  0  0  0
  131.2424  122.9326   61.2768 H   0  0  0  0  0  0  0  0  0  0  0  0
  131.2795  124.0635   59.8817 H   0  0  0  0  0  0  0  0  0  0  0  0
  132.3249  122.6028   59.8817 H   0  0  0  0  0  0  0  0  0  0  0  0
  132.4439  125.6809   62.6759 H   0  0  0  0  0  0  0  0  0  0  0  0
  133.1431  126.3662   61.1698 H   0  0  0  0  0  0  0  0  0  0  0  0
  131.4658  125.7233   61.1698 H   0  0  0  0  0  0  0  0  0  0  0  0
  135.1450  124.4790   60.8522 H   0  0  0  0  0  0  0  0  0  0  0  0
  134.3238  123.4653   59.6174 H   0  0  0  0  0  0  0  0  0  0  0  0
  134.0900  125.2463   59.6174 H   0  0  0  0  0  0  0  0  0  0  0  0
  125.9422  125.8728   61.2340 H   0  0  0  0  0  0  0  0  0  0  0  0
  126.7877  128.2651   60.6048 H   0  0  0  0  0  0  0  0  0  0  0  0
  129.7340  132.6485   60.3696 H   0  0  0  0  0  0  0  0  0  0  0  0
  130.6770  132.6864   58.8412 H   0  0  0  0  0  0  0  0  0  0  0  0
  128.9911  132.0664   58.8412 H   0  0  0  0  0  0  0  0  0  0  0  0
  130.8419  130.7105   61.8532 H   0  0  0  0  0  0  0  0  0  0  0  0
  132.0696  129.8324   60.8793 H   0  0  0  0  0  0  0  0  0  0  0  0
  132.0400  131.6285   60.8793 H   0  0  0  0  0  0  0  0  0  0  0  0
  129.1812  130.5737   57.3659 H   0  0  0  0  0  0  0  0  0  0  0  0
  130.7309  130.9594   56.5436 H   0  0  0  0  0  0  0  0  0  0  0  0
  130.1093  129.2741   56.5436 H   0  0  0  0  0  0  0  0  0  0  0  0
  133.0085  130.0161   59.1706 H   0  0  0  0  0  0  0  0  0  0  0  0
  132.8072  129.1073   57.6343 H   0  0  0  0  0  0  0  0  0  0  0  0
  132.7213  130.9015   57.6343 H   0  0  0  0  0  0  0  0  0  0  0  0
  1  2  1  0
  2  3  1  0
  3  4  1  0
  4  5  1  0
  5  6  1  0
  6  7  1  0
  7  8  1  0
  8  9  1  0
  9 10  1  0
 10 11  2  0
 10 12  1  0
 12 13  1  0
 13 14  1  0
 13 15  1  0
 13 16  1  0
  2 17  1  0
 17 18  2  0
 17 19  2  0
 17 20  1  0
 20 21  2  0
 21 22  1  0
 22 23  2  0
 23 24  1  0
 24 25  1  0
 25 26  1  0
 26 27  1  0
 26 28  1  0
 26 29  1  0
 29 30  1  0
 29 31  1  0
 29 32  1  0
 23 33  1  0
  7  3  1  0
 33 20  1  0
 32 24  1  0
  1 34  1  0
  1 35  1  0
  1 36  1  0
  3 37  1  1
  4 38  1  0
  4 39  1  0
  5 40  1  0
  5 41  1  0
  6 42  1  0
  6 43  1  0
  7 44  1  1
  8 45  1  0
  8 46  1  0
  9 47  1  0
 14 48  1  0
 14 49  1  0
 14 50  1  0
 15 51  1  0
 15 52  1  0
 15 53  1  0
 16 54  1  0
 16 55  1  0
 16 56  1  0
 21 57  1  0
 22 58  1  0
 27 59  1  0
 27 60  1  0
 27 61  1  0
 28 62  1  0
 28 63  1  0
 28 64  1  0
 30 65  1  0
 30 66  1  0
 30 67  1  0
 31 68  1  0
 31 69  1  0
 31 70  1  0
M  END
>  <Binding energies>  (1) 
[-7.3]

>  <Ligand effiencies>  (1) 
[-0.21470588235294116]

>  <Interactions>  (1) 
["V-A:ILE:369:CG2:3237, V-A:ASP:366:CA:3210, V-B:PRO:540:CA:9855, V-A:GLY:454:CA:4049, V-A:ILE:369:CB:3236, V-B:GLU:543:CB:9878, V-B:ALA:541:CB:9864, H-A:TYR:531:OH:4795, H-A:ARG:545:NH1:4927, V-A:TYR:484:CE2:4346, V-B:TYR:539:CE2:9848, V-B:GLU:543:CG:9879, V-A:ASP:366:CG:3213, V-A:TYR:531:CE2:4793, H-B:ALA:541:N:9863, V-A:GLU:543:CD:4908, V-A:TYR:484:CZ:4347, H-A:GLY:454:N:4050, V-A:ILE:369:CD1:3239, V-B:GLU:543:CD:9880, V-A:MET:535:CE:4835, V-A:ASP:366:CB:3212, V-A:LEU:475:CD2:4259, H-A:ARG:545:NH2:4928, V-A:ARG:545:CZ:4926, V-A:PRO:540:CA:4883, H-A:ARG:545:NE:4924, H-A:TYR:484:OH:4348"]

$$$$
ZINC2282493142
     RDKit          3D

 69 71  0  0  0  0  0  0  0  0999 V2000
  132.5860  125.3740   58.8650 C   0  0  0  0  0  0  0  0  0  0  0  0
  132.6770  124.4890   60.1200 C   0  0  1  0  0  0  0  0  0  0  0  0
  134.1030  123.9920   60.3930 C   0  0  0  0  0  0  0  0  0  0  0  0
  134.2290  123.8790   61.9050 C   0  0  2  0  0  0  0  0  0  0  0  0
  133.7490  122.5030   62.4380 C   0  0  0  0  0  0  0  0  0  0  0  0
  133.8790  121.3980   61.4850 N   0  0  0  0  0  0  0  0  0  0  0  0
  132.9230  121.0200   60.5450 C   0  0  0  0  0  0  0  0  0  0  0  0
  133.1040  120.1330   59.7130 O   0  0  0  0  0  0  0  0  0  0  0  0
  131.7760  121.7540   60.6690 O   0  0  0  0  0  0  0  0  0  0  0  0
  130.5220  121.2660   61.1810 C   0  0  0  0  0  0  0  0  0  0  0  0
  129.3300  121.7750   60.3340 C   0  0  0  0  0  0  0  0  0  0  0  0
  130.5170  119.7200   61.2780 C   0  0  0  0  0  0  0  0  0  0  0  0
  130.4320  121.8680   62.5990 C   0  0  0  0  0  0  0  0  0  0  0  0
  133.4210  125.0860   62.4050 C   0  0  0  0  0  0  0  0  0  0  0  0
  132.3410  125.1880   61.3920 N   0  0  0  0  0  0  0  0  0  0  0  0
  130.6770  125.5930   61.8410 S   0  0  0  0  0  0  0  0  0  0  0  0
  129.8230  124.5030   61.3570 O   0  0  0  0  0  0  0  0  0  0  0  0
  130.6640  125.9590   63.2610 O   0  0  0  0  0  0  0  0  0  0  0  0
  130.2760  127.1530   60.8380 C   0  0  0  0  0  0  0  0  0  0  0  0
  129.8940  126.8990   59.3910 C   0  0  0  0  0  0  0  0  0  0  0  0
  129.5720  125.6590   59.0720 N   0  0  0  0  0  0  0  0  0  0  0  0
  129.2560  125.5410   57.8090 C   0  0  0  0  0  0  0  0  0  0  0  0
  129.3480  126.9980   56.8840 S   0  0  0  0  0  0  0  0  0  0  0  0
  129.8530  127.8160   58.3350 C   0  0  0  0  0  0  0  0  0  0  0  0
  130.1660  129.3570   58.3540 B   0  0  0  0  0  0  0  0  0  0  0  0
  129.4130  130.2970   59.0180 O   0  0  0  0  0  0  0  0  0  0  0  0
  130.1760  131.4950   59.0570 C   0  0  0  0  0  0  0  0  0  0  0  0
  129.1870  132.6810   59.0350 C   0  0  0  0  0  0  0  0  0  0  0  0
  130.9570  131.4640   60.3990 C   0  0  0  0  0  0  0  0  0  0  0  0
  131.0560  131.3400   57.7650 C   0  0  0  0  0  0  0  0  0  0  0  0
  130.3570  131.7300   56.4340 C   0  0  0  0  0  0  0  0  0  0  0  0
  132.4580  131.9840   57.8470 C   0  0  0  0  0  0  0  0  0  0  0  0
  131.2360  129.9340   57.7150 O   0  0  0  0  0  0  0  0  0  0  0  0
  132.4778  126.4266   59.1656 H   0  0  0  0  0  0  0  0  0  0  0  0
  133.5010  125.2560   58.2660 H   0  0  0  0  0  0  0  0  0  0  0  0
  131.7141  125.0723   58.2660 H   0  0  0  0  0  0  0  0  0  0  0  0
  131.9613  123.6888   59.8803 H   0  0  0  0  0  0  0  0  0  0  0  0
  134.2617  123.0105   59.9224 H   0  0  0  0  0  0  0  0  0  0  0  0
  134.8544  124.6797   59.9777 H   0  0  0  0  0  0  0  0  0  0  0  0
  135.2656  123.9092   62.2717 H   0  0  0  0  0  0  0  0  0  0  0  0
  134.3411  122.2562   63.3316 H   0  0  0  0  0  0  0  0  0  0  0  0
  132.6741  122.6085   62.6465 H   0  0  0  0  0  0  0  0  0  0  0  0
  134.7690  120.9210   61.4580 H   0  0  0  0  0  0  0  0  0  0  0  0
  128.5260  122.1183   61.0016 H   0  0  0  0  0  0  0  0  0  0  0  0
  129.6613  122.6101   59.6993 H   0  0  0  0  0  0  0  0  0  0  0  0
  128.9559  120.9582   59.6993 H   0  0  0  0  0  0  0  0  0  0  0  0
  130.5160  119.4190   62.3360 H   0  0  0  0  0  0  0  0  0  0  0  0
  129.6176  119.3245   60.7834 H   0  0  0  0  0  0  0  0  0  0  0  0
  131.4139  119.3187   60.7834 H   0  0  0  0  0  0  0  0  0  0  0  0
  130.5515  121.0685   63.3450 H   0  0  0  0  0  0  0  0  0  0  0  0
  131.2284  122.6151   62.7314 H   0  0  0  0  0  0  0  0  0  0  0  0
  129.4519  122.3495   62.7314 H   0  0  0  0  0  0  0  0  0  0  0  0
  133.0095  124.9014   63.4083 H   0  0  0  0  0  0  0  0  0  0  0  0
  134.0185  126.0042   62.5045 H   0  0  0  0  0  0  0  0  0  0  0  0
  129.4368  127.6685   61.3280 H   0  0  0  0  0  0  0  0  0  0  0  0
  131.1987  127.7514   60.8141 H   0  0  0  0  0  0  0  0  0  0  0  0
  128.9526  124.5810   57.3658 H   0  0  0  0  0  0  0  0  0  0  0  0
  128.9427  132.9739   60.0668 H   0  0  0  0  0  0  0  0  0  0  0  0
  129.6467  133.5321   58.5113 H   0  0  0  0  0  0  0  0  0  0  0  0
  128.2671  132.3817   58.5113 H   0  0  0  0  0  0  0  0  0  0  0  0
  130.2459  131.4922   61.2378 H   0  0  0  0  0  0  0  0  0  0  0  0
  131.5535  130.5415   60.4549 H   0  0  0  0  0  0  0  0  0  0  0  0
  131.6247  132.3363   60.4549 H   0  0  0  0  0  0  0  0  0  0  0  0
  129.4159  132.2551   56.6543 H   0  0  0  0  0  0  0  0  0  0  0  0
  131.0176  132.3899   55.8525 H   0  0  0  0  0  0  0  0  0  0  0  0
  130.1424  130.8212   55.8525 H   0  0  0  0  0  0  0  0  0  0  0  0
  132.7407  132.1139   58.9021 H   0  0  0  0  0  0  0  0  0  0  0  0
  133.1906  131.3322   57.3486 H   0  0  0  0  0  0  0  0  0  0  0  0
  132.4408  132.9645   57.3486 H   0  0  0  0  0  0  0  0  0  0  0  0
  1  2  1  0
  2  3  1  0
  3  4  1  0
  4  5  1  0
  5  6  1  0
  6  7  1  0
  7  8  2  0
  7  9  1  0
  9 10  1  0
 10 11  1  0
 10 12  1  0
 10 13  1  0
  4 14  1  0
 14 15  1  0
 15 16  1  0
 16 17  2  0
 16 18  2  0
 16 19  1  0
 19 20  1  0
 20 21  1  0
 21 22  2  0
 22 23  1  0
 23 24  1  0
 24 25  1  0
 25 26  1  0
 26 27  1  0
 27 28  1  0
 27 29  1  0
 27 30  1  0
 30 31  1  0
 30 32  1  0
 30 33  1  0
 15  2  1  0
 24 20  2  0
 33 25  1  0
  1 34  1  0
  1 35  1  0
  1 36  1  0
  2 37  1  6
  3 38  1  0
  3 39  1  0
  4 40  1  6
  5 41  1  0
  5 42  1  0
  6 43  1  0
 11 44  1  0
 11 45  1  0
 11 46  1  0
 12 47  1  0
 12 48  1  0
 12 49  1  0
 13 50  1  0
 13 51  1  0
 13 52  1  0
 14 53  1  0
 14 54  1  0
 19 55  1  0
 19 56  1  0
 22 57  1  0
 28 58  1  0
 28 59  1  0
 28 60  1  0
 29 61  1  0
 29 62  1  0
 29 63  1  0
 31 64  1  0
 31 65  1  0
 31 66  1  0
 32 67  1  0
 32 68  1  0
 32 69  1  0
M  END
>  <Binding energies>  (1) 
[-6.87]

>  <Ligand effiencies>  (1) 
[-0.20205882352941176]

>  <Interactions>  (1) 
["V-A:ILE:369:CG2:3237, V-A:ASP:366:CA:3210, V-B:PRO:540:CA:9855, V-A:GLY:454:CA:4049, V-A:ILE:369:CB:3236, V-B:ALA:541:CB:9864, H-A:TYR:531:OH:4795, V-B:TYR:539:CE2:9848, V-B:TYR:539:C:9839, V-A:ASP:366:CG:3213, V-A:LEU:363:CD1:3189, V-A:SER:385:C:3405, V-A:ILE:369:CD1:3239, V-B:TYR:539:CD2:9846, V-A:SER:385:CB:3409, H-A:SER:385:OG:3410, V-A:MET:535:CE:4835, V-A:TYR:539:C:4867, V-A:ASP:366:CB:3212, V-A:LEU:475:CD2:4259, V-A:ARG:545:CZ:4926, V-A:PRO:540:N:4884, V-A:PRO:540:CB:4885, V-A:PRO:540:CA:4883, H-A:SER:385:O:3406, V-A:SER:385:CA:3407"]

$$$$
ZINC2282496947
     RDKit          3D

 69 71  0  0  0  0  0  0  0  0999 V2000
  129.6960  121.0340   60.9460 C   0  0  0  0  0  0  0  0  0  0  0  0
  129.5820  122.5050   61.3840 C   0  0  2  0  0  0  0  0  0  0  0  0
  130.8390  122.9950   62.1500 C   0  0  0  0  0  0  0  0  0  0  0  0
  130.8590  122.4750   63.5940 C   0  0  1  0  0  0  0  0  0  0  0  0
  132.0680  123.0070   64.2560 N   0  0  0  0  0  0  0  0  0  0  0  0
  132.9450  124.3570   63.5470 S   0  0  0  0  0  0  0  0  0  0  0  0
  133.9740  124.7630   64.5100 O   0  0  0  0  0  0  0  0  0  0  0  0
  133.3150  123.9890   62.1760 O   0  0  0  0  0  0  0  0  0  0  0  0
  131.6460  125.7260   63.4690 C   0  0  0  0  0  0  0  0  0  0  0  0
  130.8140  125.8530   64.7290 C   0  0  0  0  0  0  0  0  0  0  0  0
  131.2790  125.2260   65.7950 N   0  0  0  0  0  0  0  0  0  0  0  0
  130.5040  125.3830   66.8360 C   0  0  0  0  0  0  0  0  0  0  0  0
  129.0980  126.3520   66.5710 S   0  0  0  0  0  0  0  0  0  0  0  0
  129.6140  126.5500   64.9190 C   0  0  0  0  0  0  0  0  0  0  0  0
  128.7690  127.3870   63.8900 B   0  0  0  0  0  0  0  0  0  0  0  0
  127.7440  128.2360   64.2360 O   0  0  0  0  0  0  0  0  0  0  0  0
  127.4460  129.0230   63.0940 C   0  0  0  0  0  0  0  0  0  0  0  0
  125.9380  129.3580   63.1370 C   0  0  0  0  0  0  0  0  0  0  0  0
  128.2920  130.3190   63.2340 C   0  0  0  0  0  0  0  0  0  0  0  0
  127.8790  128.0590   61.9330 C   0  0  0  0  0  0  0  0  0  0  0  0
  126.8390  126.9700   61.5510 C   0  0  0  0  0  0  0  0  0  0  0  0
  128.4120  128.7630   60.6640 C   0  0  0  0  0  0  0  0  0  0  0  0
  128.9670  127.3700   62.5290 O   0  0  0  0  0  0  0  0  0  0  0  0
  129.6330  123.0430   64.3120 C   0  0  0  0  0  0  0  0  0  0  0  0
  128.3450  122.4950   63.6690 C   0  0  0  0  0  0  0  0  0  0  0  0
  128.3700  122.7890   62.2060 N   0  0  0  0  0  0  0  0  0  0  0  0
  127.2300  123.2840   61.5370 C   0  0  0  0  0  0  0  0  0  0  0  0
  126.0650  123.0000   61.8270 O   0  0  0  0  0  0  0  0  0  0  0  0
  127.5590  124.1420   60.5200 O   0  0  0  0  0  0  0  0  0  0  0  0
  127.0180  124.1140   59.1850 C   0  0  0  0  0  0  0  0  0  0  0  0
  125.4720  124.0240   59.2030 C   0  0  0  0  0  0  0  0  0  0  0  0
  127.4950  125.3330   58.3580 C   0  0  0  0  0  0  0  0  0  0  0  0
  127.5950  122.8240   58.5680 C   0  0  0  0  0  0  0  0  0  0  0  0
  129.7460  120.3893   61.8359 H   0  0  0  0  0  0  0  0  0  0  0  0
  128.8163  120.7613   60.3445 H   0  0  0  0  0  0  0  0  0  0  0  0
  130.6072  120.9001   60.3445 H   0  0  0  0  0  0  0  0  0  0  0  0
  129.4928  123.0631   60.4403 H   0  0  0  0  0  0  0  0  0  0  0  0
  131.7379  122.6347   61.6283 H   0  0  0  0  0  0  0  0  0  0  0  0
  130.8166  124.0944   62.1804 H   0  0  0  0  0  0  0  0  0  0  0  0
  130.8549  121.3753   63.6181 H   0  0  0  0  0  0  0  0  0  0  0  0
  132.1820  122.8240   65.2570 H   0  0  0  0  0  0  0  0  0  0  0  0
  132.1605  126.6826   63.2954 H   0  0  0  0  0  0  0  0  0  0  0  0
  130.9548  125.4653   62.6540 H   0  0  0  0  0  0  0  0  0  0  0  0
  130.7310  124.9300   67.8123 H   0  0  0  0  0  0  0  0  0  0  0  0
  125.6084  129.4312   64.1839 H   0  0  0  0  0  0  0  0  0  0  0  0
  125.7609  130.3174   62.6289 H   0  0  0  0  0  0  0  0  0  0  0  0
  125.3713  128.5638   62.6289 H   0  0  0  0  0  0  0  0  0  0  0  0
  128.4405  130.5465   64.2999 H   0  0  0  0  0  0  0  0  0  0  0  0
  129.2692  130.1730   62.7506 H   0  0  0  0  0  0  0  0  0  0  0  0
  127.7651  131.1549   62.7506 H   0  0  0  0  0  0  0  0  0  0  0  0
  126.4174  126.5286   62.4661 H   0  0  0  0  0  0  0  0  0  0  0  0
  126.0321  127.4255   60.9582 H   0  0  0  0  0  0  0  0  0  0  0  0
  127.3311  126.1849   60.9582 H   0  0  0  0  0  0  0  0  0  0  0  0
  129.0523  129.6087   60.9554 H   0  0  0  0  0  0  0  0  0  0  0  0
  128.9976  128.0485   60.0669 H   0  0  0  0  0  0  0  0  0  0  0  0
  127.5654  129.1328   60.0669 H   0  0  0  0  0  0  0  0  0  0  0  0
  129.6638  122.7508   65.3720 H   0  0  0  0  0  0  0  0  0  0  0  0
  129.6407  124.1397   64.2270 H   0  0  0  0  0  0  0  0  0  0  0  0
  128.2881  121.4077   63.8259 H   0  0  0  0  0  0  0  0  0  0  0  0
  127.4673  122.9723   64.1293 H   0  0  0  0  0  0  0  0  0  0  0  0
  125.1180  124.0034   60.2443 H   0  0  0  0  0  0  0  0  0  0  0  0
  125.0478  124.8990   58.6888 H   0  0  0  0  0  0  0  0  0  0  0  0
  125.1522  123.1057   58.6888 H   0  0  0  0  0  0  0  0  0  0  0  0
  127.8098  126.1375   59.0389 H   0  0  0  0  0  0  0  0  0  0  0  0
  128.3434  125.0365   57.7238 H   0  0  0  0  0  0  0  0  0  0  0  0
  126.6706  125.6910   57.7238 H   0  0  0  0  0  0  0  0  0  0  0  0
  127.9016  122.1384   59.3717 H   0  0  0  0  0  0  0  0  0  0  0  0
  126.8276  122.3399   57.9461 H   0  0  0  0  0  0  0  0  0  0  0  0
  128.4674  123.0734   57.9461 H   0  0  0  0  0  0  0  0  0  0  0  0
  1  2  1  0
  2  3  1  0
  3  4  1  0
  4  5  1  0
  5  6  1  0
  6  7  2  0
  6  8  2  0
  6  9  1  0
  9 10  1  0
 10 11  1  0
 11 12  2  0
 12 13  1  0
 13 14  1  0
 14 15  1  0
 15 16  1  0
 16 17  1  0
 17 18  1  0
 17 19  1  0
 17 20  1  0
 20 21  1  0
 20 22  1  0
 20 23  1  0
  4 24  1  0
 24 25  1  0
 25 26  1  0
 26 27  1  0
 27 28  2  0
 27 29  1  0
 29 30  1  0
 30 31  1  0
 30 32  1  0
 30 33  1  0
 26  2  1  0
 14 10  2  0
 23 15  1  0
  1 34  1  0
  1 35  1  0
  1 36  1  0
  2 37  1  6
  3 38  1  0
  3 39  1  0
  4 40  1  6
  5 41  1  0
  9 42  1  0
  9 43  1  0
 12 44  1  0
 18 45  1  0
 18 46  1  0
 18 47  1  0
 19 48  1  0
 19 49  1  0
 19 50  1  0
 21 51  1  0
 21 52  1  0
 21 53  1  0
 22 54  1  0
 22 55  1  0
 22 56  1  0
 24 57  1  0
 24 58  1  0
 25 59  1  0
 25 60  1  0
 31 61  1  0
 31 62  1  0
 31 63  1  0
 32 64  1  0
 32 65  1  0
 32 66  1  0
 33 67  1  0
 33 68  1  0
 33 69  1  0
M  END
>  <Binding energies>  (1) 
[-7.55]

>  <Ligand effiencies>  (1) 
[-0.22205882352941175]

>  <Interactions>  (1) 
["V-B:PRO:540:CA:9855, V-B:GLU:543:CB:9878, V-B:ALA:541:CB:9864, H-A:ARG:545:NH1:4927, V-B:TYR:539:CE2:9848, V-A:TYR:484:CE2:4346, V-B:GLU:543:CG:9879, V-B:TYR:539:C:9839, H-B:ALA:541:N:9863, V-A:GLU:543:CD:4908, V-B:PRO:540:CB:9857, H-A:GLY:454:N:4050, V-B:PRO:540:N:9856, V-A:HIS:456:CE1:4070, V-B:TYR:539:CD2:9846, V-B:GLU:543:CD:9880, V-A:LEU:475:CD2:4259, H-A:ARG:545:NH2:4928, V-A:ARG:545:CZ:4926, H-A:ARG:545:NE:4924, V-B:ALA:541:CA:9862, H-A:TYR:484:OH:4348"]

$$$$
ZINC2282500829
     RDKit          3D

 70 72  0  0  0  0  0  0  0  0999 V2000
  128.3240  122.9720   60.4480 C   0  0  0  0  0  0  0  0  0  0  0  0
  129.8180  123.1590   60.0970 C   0  0  1  0  0  0  0  0  0  0  0  0
  130.1420  124.5990   59.6320 C   0  0  0  0  0  0  0  0  0  0  0  0
  131.5360  124.7380   59.1070 N   0  0  0  0  0  0  0  0  0  0  0  0
  131.7940  126.1990   58.0910 S   0  0  0  0  0  0  0  0  0  0  0  0
  132.1410  127.3320   58.9560 O   0  0  0  0  0  0  0  0  0  0  0  0
  132.6510  125.8540   56.9520 O   0  0  0  0  0  0  0  0  0  0  0  0
  130.1440  126.5760   57.4180 C   0  0  0  0  0  0  0  0  0  0  0  0
  129.3010  125.5690   56.9530 C   0  0  0  0  0  0  0  0  0  0  0  0
  127.7710  126.1520   56.3980 S   0  0  0  0  0  0  0  0  0  0  0  0
  128.2570  127.7700   56.7590 C   0  0  0  0  0  0  0  0  0  0  0  0
  129.5450  127.8530   57.2810 C   0  0  0  0  0  0  0  0  0  0  0  0
  130.1700  129.2560   57.6410 B   0  0  0  0  0  0  0  0  0  0  0  0
  130.1090  130.3440   56.7980 O   0  0  0  0  0  0  0  0  0  0  0  0
  130.6110  131.4660   57.5070 C   0  0  0  0  0  0  0  0  0  0  0  0
  131.3070  132.3950   56.4870 C   0  0  0  0  0  0  0  0  0  0  0  0
  129.3730  132.1690   58.1280 C   0  0  0  0  0  0  0  0  0  0  0  0
  131.5720  130.7710   58.5310 C   0  0  0  0  0  0  0  0  0  0  0  0
  132.9590  130.3510   57.9690 C   0  0  0  0  0  0  0  0  0  0  0  0
  131.7500  131.5250   59.8660 C   0  0  0  0  0  0  0  0  0  0  0  0
  130.8630  129.5670   58.7860 O   0  0  0  0  0  0  0  0  0  0  0  0
  132.6290  124.1730   60.0010 C   0  0  0  0  0  0  0  0  0  0  0  0
  133.9050  123.9680   59.1580 C   0  0  0  0  0  0  0  0  0  0  0  0
  132.8540  125.1590   61.1800 C   0  0  0  0  0  0  0  0  0  0  0  0
  132.2250  122.7580   60.5270 C   0  0  0  0  0  0  0  0  0  0  0  0
  130.8590  122.8020   61.0900 N   0  0  0  0  0  0  0  0  0  0  0  0
  130.6650  122.9850   62.4790 C   0  0  0  0  0  0  0  0  0  0  0  0
  129.7340  122.5290   63.1440 O   0  0  0  0  0  0  0  0  0  0  0  0
  131.6650  123.7490   63.0250 O   0  0  0  0  0  0  0  0  0  0  0  0
  131.5010  124.7510   64.0440 C   0  0  0  0  0  0  0  0  0  0  0  0
  132.8570  125.1270   64.6910 C   0  0  0  0  0  0  0  0  0  0  0  0
  130.7800  126.0060   63.4900 C   0  0  0  0  0  0  0  0  0  0  0  0
  130.6060  124.0720   65.1000 C   0  0  0  0  0  0  0  0  0  0  0  0
  128.2033  122.9569   61.5413 H   0  0  0  0  0  0  0  0  0  0  0  0
  127.7413  123.8042   60.0262 H   0  0  0  0  0  0  0  0  0  0  0  0
  127.9644  122.0218   60.0262 H   0  0  0  0  0  0  0  0  0  0  0  0
  129.8908  122.4016   59.3026 H   0  0  0  0  0  0  0  0  0  0  0  0
  129.4368  124.8783   58.8353 H   0  0  0  0  0  0  0  0  0  0  0  0
  130.0501  125.2587   60.5074 H   0  0  0  0  0  0  0  0  0  0  0  0
  129.5818  124.5055   56.9402 H   0  0  0  0  0  0  0  0  0  0  0  0
  127.6135  128.6466   56.5931 H   0  0  0  0  0  0  0  0  0  0  0  0
  131.8826  133.1633   57.0240 H   0  0  0  0  0  0  0  0  0  0  0  0
  131.9857  131.8030   55.8554 H   0  0  0  0  0  0  0  0  0  0  0  0
  130.5481  132.8800   55.8554 H   0  0  0  0  0  0  0  0  0  0  0  0
  129.4413  132.1302   59.2252 H   0  0  0  0  0  0  0  0  0  0  0  0
  129.3440  133.2183   57.7993 H   0  0  0  0  0  0  0  0  0  0  0  0
  128.4570  131.6563   57.7993 H   0  0  0  0  0  0  0  0  0  0  0  0
  133.6451  130.1433   58.8034 H   0  0  0  0  0  0  0  0  0  0  0  0
  132.8465  129.4467   57.3530 H   0  0  0  0  0  0  0  0  0  0  0  0
  133.3670  131.1659   57.3530 H   0  0  0  0  0  0  0  0  0  0  0  0
  131.5862  130.8311   60.7037 H   0  0  0  0  0  0  0  0  0  0  0  0
  132.7694  131.9343   59.9229 H   0  0  0  0  0  0  0  0  0  0  0  0
  131.0212  132.3470   59.9229 H   0  0  0  0  0  0  0  0  0  0  0  0
  134.7676  123.8294   59.8263 H   0  0  0  0  0  0  0  0  0  0  0  0
  133.7860  123.0774   58.5234 H   0  0  0  0  0  0  0  0  0  0  0  0
  134.0710  124.8510   58.5234 H   0  0  0  0  0  0  0  0  0  0  0  0
  132.7320  124.6243   62.1335 H   0  0  0  0  0  0  0  0  0  0  0  0
  133.8703  125.5756   61.1207 H   0  0  0  0  0  0  0  0  0  0  0  0
  132.1190  125.9753   61.1207 H   0  0  0  0  0  0  0  0  0  0  0  0
  132.2540  122.0379   59.6960 H   0  0  0  0  0  0  0  0  0  0  0  0
  132.9306  122.4483   61.3120 H   0  0  0  0  0  0  0  0  0  0  0  0
  132.7605  125.1003   65.7864 H   0  0  0  0  0  0  0  0  0  0  0  0
  133.6268  124.4084   64.3730 H   0  0  0  0  0  0  0  0  0  0  0  0
  133.1468  126.1394   64.3730 H   0  0  0  0  0  0  0  0  0  0  0  0
  130.4247  126.6244   64.3275 H   0  0  0  0  0  0  0  0  0  0  0  0
  131.4805  126.5896   62.8746 H   0  0  0  0  0  0  0  0  0  0  0  0
  129.9230  125.6948   62.8746 H   0  0  0  0  0  0  0  0  0  0  0  0
  130.9590  124.3398   66.1068 H   0  0  0  0  0  0  0  0  0  0  0  0
  129.5674  124.4114   64.9733 H   0  0  0  0  0  0  0  0  0  0  0  0
  130.6531  122.9803   64.9733 H   0  0  0  0  0  0  0  0  0  0  0  0
  1  2  1  0
  2  3  1  0
  3  4  1  0
  4  5  1  0
  5  6  2  0
  5  7  2  0
  5  8  1  0
  8  9  2  0
  9 10  1  0
 10 11  1  0
 11 12  2  0
 12 13  1  0
 13 14  1  0
 14 15  1  0
 15 16  1  0
 15 17  1  0
 15 18  1  0
 18 19  1  0
 18 20  1  0
 18 21  1  0
  4 22  1  0
 22 23  1  0
 22 24  1  0
 22 25  1  0
 25 26  1  0
 26 27  1  0
 27 28  2  0
 27 29  1  0
 29 30  1  0
 30 31  1  0
 30 32  1  0
 30 33  1  0
 26  2  1  0
 12  8  1  0
 21 13  1  0
  1 34  1  0
  1 35  1  0
  1 36  1  0
  2 37  1  6
  3 38  1  0
  3 39  1  0
  9 40  1  0
 11 41  1  0
 16 42  1  0
 16 43  1  0
 16 44  1  0
 17 45  1  0
 17 46  1  0
 17 47  1  0
 19 48  1  0
 19 49  1  0
 19 50  1  0
 20 51  1  0
 20 52  1  0
 20 53  1  0
 23 54  1  0
 23 55  1  0
 23 56  1  0
 24 57  1  0
 24 58  1  0
 24 59  1  0
 25 60  1  0
 25 61  1  0
 31 62  1  0
 31 63  1  0
 31 64  1  0
 32 65  1  0
 32 66  1  0
 32 67  1  0
 33 68  1  0
 33 69  1  0
 33 70  1  0
M  END
>  <Binding energies>  (1) 
[-7.21]

>  <Ligand effiencies>  (1) 
[-0.21848484848484848]

>  <Interactions>  (1) 
["V-A:ILE:369:CG2:3237, V-A:ASP:366:CA:3210, V-B:PRO:540:CA:9855, V-A:ILE:369:CB:3236, V-A:ILE:538:CB:4862, V-B:TYR:539:CE2:9848, H-A:TYR:531:OH:4795, V-A:TYR:484:CE2:4346, V-B:GLU:543:CG:9879, V-A:ASP:366:CG:3213, V-A:ILE:538:CG2:4863, V-A:LEU:363:CD1:3189, V-B:TYR:539:CZ:9849, V-A:TYR:531:CE2:4793, H-B:TYR:539:OH:9850, V-A:GLU:543:CD:4908, V-A:TYR:484:CZ:4347, V-A:ILE:369:CD1:3239, V-B:TYR:539:CD2:9846, V-A:MET:535:CE:4835, V-A:ASP:366:CB:3212, V-A:LEU:475:CD2:4259, V-A:ARG:545:CZ:4926, V-A:PRO:540:CB:4885, V-A:PRO:540:CA:4883"]

$$$$
ZINC2282521792
     RDKit          3D

 69 70  0  0  0  0  0  0  0  0999 V2000
  131.2100  126.9680   68.0950 C   0  0  0  0  0  0  0  0  0  0  0  0
  130.1130  125.9900   67.6390 C   0  0  0  0  0  0  0  0  0  0  0  0
  130.3990  125.3150   66.3090 C   0  0  0  0  0  0  0  0  0  0  0  0
  129.4870  124.7020   65.5930 N   0  0  0  0  0  0  0  0  0  0  0  0
  129.9620  124.1690   64.4790 C   0  0  0  0  0  0  0  0  0  0  0  0
  129.0250  123.4680   63.6450 C   0  0  0  0  0  0  0  0  0  0  0  0
  128.3990  122.4810   64.0410 O   0  0  0  0  0  0  0  0  0  0  0  0
  128.9690  124.0270   62.3820 N   0  0  0  0  0  0  0  0  0  0  0  0
  127.7730  123.6710   61.4590 S   0  0  2  0  0  6  0  0  0  0  0  0
  127.1470  125.3790   60.9620 C   0  0  0  0  0  0  0  0  0  0  0  0
  126.6180  122.8380   61.8150 O   0  0  0  0  0  0  0  0  0  0  0  0
  128.6310  123.0020   59.8970 C   0  0  0  0  0  0  0  0  0  0  0  0
  128.3760  123.9160   58.6830 C   0  0  2  0  0  0  0  0  0  0  0  0
  127.4590  123.2260   57.6540 C   0  0  0  0  0  0  0  0  0  0  0  0
  129.6420  124.3390   58.0690 N   0  0  0  0  0  0  0  0  0  0  0  0
  130.5470  125.2460   58.6170 C   0  0  0  0  0  0  0  0  0  0  0  0
  131.5780  125.6040   58.0490 O   0  0  0  0  0  0  0  0  0  0  0  0
  130.1500  125.6750   59.8540 O   0  0  0  0  0  0  0  0  0  0  0  0
  130.1770  127.0370   60.3180 C   0  0  0  0  0  0  0  0  0  0  0  0
  131.3530  127.8220   59.6860 C   0  0  0  0  0  0  0  0  0  0  0  0
  128.8270  127.7500   60.0560 C   0  0  0  0  0  0  0  0  0  0  0  0
  130.4030  126.9140   61.8390 C   0  0  0  0  0  0  0  0  0  0  0  0
  131.3360  124.3570   64.2610 C   0  0  0  0  0  0  0  0  0  0  0  0
  132.2600  123.9190   63.0590 B   0  0  0  0  0  0  0  0  0  0  0  0
  132.7730  124.7930   62.1280 O   0  0  0  0  0  0  0  0  0  0  0  0
  133.7500  124.0880   61.3790 C   0  0  0  0  0  0  0  0  0  0  0  0
  133.7540  124.6690   59.9470 C   0  0  0  0  0  0  0  0  0  0  0  0
  135.1090  124.3620   62.0790 C   0  0  0  0  0  0  0  0  0  0  0  0
  133.2210  122.6150   61.4950 C   0  0  0  0  0  0  0  0  0  0  0  0
  132.0690  122.2440   60.5230 C   0  0  0  0  0  0  0  0  0  0  0  0
  134.3200  121.5280   61.4650 C   0  0  0  0  0  0  0  0  0  0  0  0
  132.6510  122.6260   62.7950 O   0  0  0  0  0  0  0  0  0  0  0  0
  131.9860  125.2440   65.6090 S   0  0  0  0  0  0  0  0  0  0  0  0
  131.2420  126.9965   69.1942 H   0  0  0  0  0  0  0  0  0  0  0  0
  132.1838  126.6329   67.7084 H   0  0  0  0  0  0  0  0  0  0  0  0
  130.9884  127.9737   67.7084 H   0  0  0  0  0  0  0  0  0  0  0  0
  130.0050  125.2095   68.4065 H   0  0  0  0  0  0  0  0  0  0  0  0
  129.1959  126.5821   67.5039 H   0  0  0  0  0  0  0  0  0  0  0  0
  126.9312  125.9677   61.8658 H   0  0  0  0  0  0  0  0  0  0  0  0
  127.9156  125.8919   60.3652 H   0  0  0  0  0  0  0  0  0  0  0  0
  126.2290  125.2737   60.3652 H   0  0  0  0  0  0  0  0  0  0  0  0
  129.7140  122.9436   60.0803 H   0  0  0  0  0  0  0  0  0  0  0  0
  128.2196  122.0064   59.6744 H   0  0  0  0  0  0  0  0  0  0  0  0
  127.8579  124.8184   59.0397 H   0  0  0  0  0  0  0  0  0  0  0  0
  126.6876  122.6456   58.1814 H   0  0  0  0  0  0  0  0  0  0  0  0
  126.9775  123.9877   57.0231 H   0  0  0  0  0  0  0  0  0  0  0  0
  128.0575  122.5523   57.0231 H   0  0  0  0  0  0  0  0  0  0  0  0
  129.8530  123.9720   57.1530 H   0  0  0  0  0  0  0  0  0  0  0  0
  131.9834  128.2428   60.4832 H   0  0  0  0  0  0  0  0  0  0  0  0
  131.9541  127.1434   59.0630 H   0  0  0  0  0  0  0  0  0  0  0  0
  130.9568  128.6374   59.0630 H   0  0  0  0  0  0  0  0  0  0  0  0
  128.3523  128.0007   61.0161 H   0  0  0  0  0  0  0  0  0  0  0  0
  129.0044  128.6720   59.4829 H   0  0  0  0  0  0  0  0  0  0  0  0
  128.1656  127.0836   59.4829 H   0  0  0  0  0  0  0  0  0  0  0  0
  129.5586  127.3736   62.3735 H   0  0  0  0  0  0  0  0  0  0  0  0
  130.4765  125.8515   62.1140 H   0  0  0  0  0  0  0  0  0  0  0  0
  131.3351  127.4292   62.1140 H   0  0  0  0  0  0  0  0  0  0  0  0
  133.7616  125.7678   59.9972 H   0  0  0  0  0  0  0  0  0  0  0  0
  134.6498  124.3202   59.4123 H   0  0  0  0  0  0  0  0  0  0  0  0
  132.8535  124.3325   59.4123 H   0  0  0  0  0  0  0  0  0  0  0  0
  134.9716  124.3343   63.1700 H   0  0  0  0  0  0  0  0  0  0  0  0
  135.8365  123.5925   61.7814 H   0  0  0  0  0  0  0  0  0  0  0  0
  135.4815  125.3533   61.7814 H   0  0  0  0  0  0  0  0  0  0  0  0
  131.1787  121.9573   61.1020 H   0  0  0  0  0  0  0  0  0  0  0  0
  131.8306  123.1108   59.8891 H   0  0  0  0  0  0  0  0  0  0  0  0
  132.3813  121.4010   59.8891 H   0  0  0  0  0  0  0  0  0  0  0  0
  134.5949  121.2561   62.4948 H   0  0  0  0  0  0  0  0  0  0  0  0
  133.9419  120.6387   60.9394 H   0  0  0  0  0  0  0  0  0  0  0  0
  135.2051  121.9158   60.9394 H   0  0  0  0  0  0  0  0  0  0  0  0
  1  2  1  0
  2  3  1  0
  3  4  2  0
  4  5  1  0
  5  6  1  0
  6  7  2  0
  6  8  1  0
  8  9  2  0
  9 10  1  6
  9 11  2  0
  9 12  1  0
 12 13  1  0
 13 14  1  0
 13 15  1  0
 15 16  1  0
 16 17  2  0
 16 18  1  0
 18 19  1  0
 19 20  1  0
 19 21  1  0
 19 22  1  0
  5 23  2  0
 23 24  1  0
 24 25  1  0
 25 26  1  0
 26 27  1  0
 26 28  1  0
 26 29  1  0
 29 30  1  0
 29 31  1  0
 29 32  1  0
 23 33  1  0
 33  3  1  0
 32 24  1  0
  1 34  1  0
  1 35  1  0
  1 36  1  0
  2 37  1  0
  2 38  1  0
 10 39  1  0
 10 40  1  0
 10 41  1  0
 12 42  1  0
 12 43  1  0
 13 44  1  1
 14 45  1  0
 14 46  1  0
 14 47  1  0
 15 48  1  0
 20 49  1  0
 20 50  1  0
 20 51  1  0
 21 52  1  0
 21 53  1  0
 21 54  1  0
 22 55  1  0
 22 56  1  0
 22 57  1  0
 27 58  1  0
 27 59  1  0
 27 60  1  0
 28 61  1  0
 28 62  1  0
 28 63  1  0
 30 64  1  0
 30 65  1  0
 30 66  1  0
 31 67  1  0
 31 68  1  0
 31 69  1  0
M  END
>  <Binding energies>  (1) 
[-6.13]

>  <Ligand effiencies>  (1) 
[-0.18029411764705883]

>  <Interactions>  (1) 
["V-A:ILE:369:CG2:3237, V-A:ASP:366:CA:3210, V-B:PRO:540:CA:9855, V-B:GLU:543:CB:9878, H-A:TYR:531:OH:4795, V-B:TYR:539:CE2:9848, V-B:GLU:543:CG:9879, V-A:ASP:366:CG:3213, V-B:TYR:539:CZ:9849, H-B:TYR:539:OH:9850, H-B:ALA:541:N:9863, V-A:GLU:543:CD:4908, V-A:ARG:545:CG:4922, V-A:SER:385:C:3405, V-A:GLY:453:C:4042, V-B:PRO:540:N:9856, V-A:HIS:456:CE1:4070, V-A:ILE:369:CD1:3239, V-B:TYR:539:CD2:9846, V-A:SER:385:CB:3409, V-B:GLU:543:CD:9880, V-A:ASP:366:CB:3212, V-A:LEU:475:CD2:4259, H-A:ARG:545:NH2:4928, V-A:GLU:543:CB:4906, V-A:GLY:453:CA:4044, V-A:SER:385:CA:3407"]

$$$$
ZINC2282637726
     RDKit          3D

 67 69  0  0  0  0  0  0  0  0999 V2000
  133.6880  124.6560   63.2600 C   0  0  0  0  0  0  0  0  0  0  0  0
  134.0150  123.3880   62.7060 O   0  0  0  0  0  0  0  0  0  0  0  0
  133.6020  123.1720   61.3570 C   0  0  1  0  0  0  0  0  0  0  0  0
  132.8450  121.8540   61.2850 C   0  0  0  0  0  0  0  0  0  0  0  0
  131.3890  122.1900   61.6530 C   0  0  2  0  0  0  0  0  0  0  0  0
  130.3250  121.3540   60.8890 C   0  0  0  0  0  0  0  0  0  0  0  0
  128.9610  121.6170   61.3580 N   0  0  0  0  0  0  0  0  0  0  0  0
  128.0420  122.4820   60.7660 C   0  0  0  0  0  0  0  0  0  0  0  0
  126.9450  122.7430   61.2570 O   0  0  0  0  0  0  0  0  0  0  0  0
  128.4990  122.9800   59.5770 O   0  0  0  0  0  0  0  0  0  0  0  0
  127.6880  123.5800   58.5500 C   0  0  0  0  0  0  0  0  0  0  0  0
  126.9960  122.5050   57.6750 C   0  0  0  0  0  0  0  0  0  0  0  0
  126.6480  124.5560   59.1550 C   0  0  0  0  0  0  0  0  0  0  0  0
  128.6900  124.3710   57.6820 C   0  0  0  0  0  0  0  0  0  0  0  0
  131.2950  123.6480   61.4380 N   0  0  0  0  0  0  0  0  0  0  0  0
  130.3010  124.4000   61.9820 C   0  0  0  0  0  0  0  0  0  0  0  0
  129.4870  125.0430   61.3190 O   0  0  0  0  0  0  0  0  0  0  0  0
  130.2190  124.4410   63.4170 C   0  0  0  0  0  0  0  0  0  0  0  0
  130.5830  123.0110   64.3360 S   0  0  0  0  0  0  0  0  0  0  0  0
  130.2340  123.8500   65.8080 C   0  0  0  0  0  0  0  0  0  0  0  0
  129.8500  125.1700   65.5950 C   0  0  0  0  0  0  0  0  0  0  0  0
  129.4630  126.1270   66.7870 B   0  0  0  0  0  0  0  0  0  0  0  0
  129.6660  125.8560   68.1200 O   0  0  0  0  0  0  0  0  0  0  0  0
  129.4500  127.0600   68.8380 C   0  0  0  0  0  0  0  0  0  0  0  0
  128.8890  126.6830   70.2270 C   0  0  0  0  0  0  0  0  0  0  0  0
  130.8430  127.7310   68.9810 C   0  0  0  0  0  0  0  0  0  0  0  0
  128.4380  127.8030   67.8940 C   0  0  0  0  0  0  0  0  0  0  0  0
  126.9560  127.3630   68.0290 C   0  0  0  0  0  0  0  0  0  0  0  0
  128.5460  129.3460   67.9080 C   0  0  0  0  0  0  0  0  0  0  0  0
  128.8650  127.3550   66.6160 O   0  0  0  0  0  0  0  0  0  0  0  0
  129.8250  125.5100   64.2270 C   0  0  0  0  0  0  0  0  0  0  0  0
  129.3550  127.0520   63.6080 Cl  0  0  0  0  0  0  0  0  0  0  0  0
  132.5510  124.1950   60.9100 C   0  0  0  0  0  0  0  0  0  0  0  0
  133.7046  124.5917   64.3580 H   0  0  0  0  0  0  0  0  0  0  0  0
  134.4229  125.4029   62.9253 H   0  0  0  0  0  0  0  0  0  0  0  0
  132.6835  124.9544   62.9253 H   0  0  0  0  0  0  0  0  0  0  0  0
  134.5114  123.2205   60.7400 H   0  0  0  0  0  0  0  0  0  0  0  0
  132.8973  121.4366   60.2686 H   0  0  0  0  0  0  0  0  0  0  0  0
  133.2727  121.1023   61.9647 H   0  0  0  0  0  0  0  0  0  0  0  0
  131.1545  121.9161   62.6922 H   0  0  0  0  0  0  0  0  0  0  0  0
  130.3839  121.6015   59.8188 H   0  0  0  0  0  0  0  0  0  0  0  0
  130.5417  120.2910   61.0710 H   0  0  0  0  0  0  0  0  0  0  0  0
  128.6870  121.1800   62.2260 H   0  0  0  0  0  0  0  0  0  0  0  0
  126.5152  121.7581   58.3237 H   0  0  0  0  0  0  0  0  0  0  0  0
  126.2355  122.9830   57.0400 H   0  0  0  0  0  0  0  0  0  0  0  0
  127.7459  122.0107   57.0400 H   0  0  0  0  0  0  0  0  0  0  0  0
  126.6972  124.5098   60.2529 H   0  0  0  0  0  0  0  0  0  0  0  0
  126.8688  125.5805   58.8208 H   0  0  0  0  0  0  0  0  0  0  0  0
  125.6396  124.2706   58.8208 H   0  0  0  0  0  0  0  0  0  0  0  0
  129.3857  124.9202   58.3335 H   0  0  0  0  0  0  0  0  0  0  0  0
  129.2557  123.6733   57.0470 H   0  0  0  0  0  0  0  0  0  0  0  0
  128.1426  125.0832   57.0470 H   0  0  0  0  0  0  0  0  0  0  0  0
  130.3077  123.3897   66.8043 H   0  0  0  0  0  0  0  0  0  0  0  0
  129.5298  127.1137   71.0105 H   0  0  0  0  0  0  0  0  0  0  0  0
  127.8679  127.0789   70.3298 H   0  0  0  0  0  0  0  0  0  0  0  0
  128.8698  125.5880   70.3298 H   0  0  0  0  0  0  0  0  0  0  0  0
  131.0859  127.8480   70.0475 H   0  0  0  0  0  0  0  0  0  0  0  0
  131.6047  127.1010   68.4984 H   0  0  0  0  0  0  0  0  0  0  0  0
  130.8252  128.7193   68.4984 H   0  0  0  0  0  0  0  0  0  0  0  0
  126.6923  127.2847   69.0941 H   0  0  0  0  0  0  0  0  0  0  0  0
  126.3070  128.1072   67.5443 H   0  0  0  0  0  0  0  0  0  0  0  0
  126.8182  126.3852   67.5443 H   0  0  0  0  0  0  0  0  0  0  0  0
  128.5709  129.7024   68.9484 H   0  0  0  0  0  0  0  0  0  0  0  0
  129.4679  129.6537   67.3928 H   0  0  0  0  0  0  0  0  0  0  0  0
  127.6760  129.7792   67.3928 H   0  0  0  0  0  0  0  0  0  0  0  0
  132.5169  124.2701   59.8131 H   0  0  0  0  0  0  0  0  0  0  0  0
  132.7615  125.2121   61.2723 H   0  0  0  0  0  0  0  0  0  0  0  0
  1  2  1  0
  2  3  1  0
  3  4  1  0
  4  5  1  0
  5  6  1  0
  6  7  1  0
  7  8  1  0
  8  9  2  0
  8 10  1  0
 10 11  1  0
 11 12  1  0
 11 13  1  0
 11 14  1  0
  5 15  1  0
 15 16  1  0
 16 17  2  0
 16 18  1  0
 18 19  1  0
 19 20  1  0
 20 21  2  0
 21 22  1  0
 22 23  1  0
 23 24  1  0
 24 25  1  0
 24 26  1  0
 24 27  1  0
 27 28  1  0
 27 29  1  0
 27 30  1  0
 21 31  1  0
 31 32  1  0
 15 33  1  0
 33  3  1  0
 31 18  2  0
 30 22  1  0
  1 34  1  0
  1 35  1  0
  1 36  1  0
  3 37  1  6
  4 38  1  0
  4 39  1  0
  5 40  1  1
  6 41  1  0
  6 42  1  0
  7 43  1  0
 12 44  1  0
 12 45  1  0
 12 46  1  0
 13 47  1  0
 13 48  1  0
 13 49  1  0
 14 50  1  0
 14 51  1  0
 14 52  1  0
 20 53  1  0
 25 54  1  0
 25 55  1  0
 25 56  1  0
 26 57  1  0
 26 58  1  0
 26 59  1  0
 28 60  1  0
 28 61  1  0
 28 62  1  0
 29 63  1  0
 29 64  1  0
 29 65  1  0
 33 66  1  0
 33 67  1  0
M  END
>  <Binding energies>  (1) 
[-7.13]

>  <Ligand effiencies>  (1) 
[-0.2097058823529412]

>  <Interactions>  (1) 
["V-A:ILE:369:CG2:3237, V-B:PRO:540:CA:9855, V-A:GLU:543:CA:4904, V-B:GLU:543:C:9874, V-A:GLU:543:C:4902, V-B:GLU:543:CB:9878, V-B:ALA:541:CB:9864, V-B:TYR:539:CE2:9848, V-A:TYR:484:CE2:4346, V-B:GLU:543:CG:9879, V-B:TYR:539:C:9839, V-B:TYR:539:CZ:9849, H-B:ALA:541:N:9863, V-A:TYR:484:CZ:4347, V-B:PRO:540:CB:9857, V-A:GLU:543:CD:4908, V-B:HIS:456:CE1:9041, H-A:GLY:454:N:4050, V-B:PRO:540:N:9856, V-A:ILE:369:CD1:3239, V-A:HIS:456:CE1:4070, V-B:TYR:539:CD2:9846, V-B:PRO:540:CD:9859, V-A:GLU:543:CG:4907, V-B:GLU:543:CD:9880, V-A:LEU:475:CD2:4259, V-A:ARG:545:CZ:4926, V-A:GLU:543:CB:4906, H-B:TYR:539:O:9840, V-B:PRO:540:C:9853"]

$$$$
ZINC2282829499
     RDKit          3D

 65 68  0  0  0  0  0  0  0  0999 V2000
  127.4570  125.2290   59.5840 C   0  0  0  0  0  0  0  0  0  0  0  0
  128.4120  124.0640   59.2280 C   0  0  0  0  0  0  0  0  0  0  0  0
  129.6280  124.5700   58.4100 C   0  0  0  0  0  0  0  0  0  0  0  0
  127.6480  123.0090   58.4020 C   0  0  0  0  0  0  0  0  0  0  0  0
  128.8360  123.3520   60.4050 O   0  0  0  0  0  0  0  0  0  0  0  0
  128.0030  122.7880   61.3380 C   0  0  0  0  0  0  0  0  0  0  0  0
  126.7750  122.8830   61.2980 O   0  0  0  0  0  0  0  0  0  0  0  0
  128.7130  122.1180   62.3510 N   0  0  0  0  0  0  0  0  0  0  0  0
  129.8390  121.2180   62.0210 C   0  0  0  0  0  0  0  0  0  0  0  0
  131.1530  122.0400   62.1130 C   0  0  0  0  0  0  0  0  0  0  0  0
  131.0870  123.3130   63.0100 C   0  0  2  0  0  0  0  0  0  0  0  0
  132.4090  123.5340   63.6290 N   0  0  0  0  0  0  0  0  0  0  0  0
  133.7790  123.8890   62.5780 S   0  0  0  0  0  0  0  0  0  0  0  0
  134.6960  124.7850   63.2890 O   0  0  0  0  0  0  0  0  0  0  0  0
  134.2340  122.6400   61.9560 O   0  0  0  0  0  0  0  0  0  0  0  0
  132.9620  124.8690   61.2940 C   0  0  0  0  0  0  0  0  0  0  0  0
  133.1910  124.7700   59.9300 C   0  0  0  0  0  0  0  0  0  0  0  0
  132.4890  125.7260   59.1860 C   0  0  0  0  0  0  0  0  0  0  0  0
  132.6150  125.8460   57.4750 Cl  0  0  0  0  0  0  0  0  0  0  0  0
  131.7120  126.5650   59.9910 C   0  0  0  0  0  0  0  0  0  0  0  0
  130.8310  127.7990   59.5650 B   0  0  0  0  0  0  0  0  0  0  0  0
  129.7500  128.2580   60.2840 O   0  0  0  0  0  0  0  0  0  0  0  0
  129.4290  129.5480   59.7860 C   0  0  0  0  0  0  0  0  0  0  0  0
  127.9050  129.7420   59.9460 C   0  0  0  0  0  0  0  0  0  0  0  0
  130.2010  130.5580   60.6780 C   0  0  0  0  0  0  0  0  0  0  0  0
  129.9320  129.4350   58.3020 C   0  0  0  0  0  0  0  0  0  0  0  0
  128.9580  128.7240   57.3240 C   0  0  0  0  0  0  0  0  0  0  0  0
  130.4470  130.7560   57.6870 C   0  0  0  0  0  0  0  0  0  0  0  0
  131.0470  128.5670   58.4460 O   0  0  0  0  0  0  0  0  0  0  0  0
  131.8360  126.1330   61.6700 S   0  0  0  0  0  0  0  0  0  0  0  0
  129.9330  123.3700   64.0480 C   0  0  2  0  0  0  0  0  0  0  0  0
  129.5820  122.1260   64.8310 C   0  0  0  0  0  0  0  0  0  0  0  0
  128.6400  122.6270   63.7360 C   0  0  2  0  0  0  0  0  0  0  0  0
  127.3820  125.3205   60.6776 H   0  0  0  0  0  0  0  0  0  0  0  0
  127.8498  126.1666   59.1637 H   0  0  0  0  0  0  0  0  0  0  0  0
  126.4606  125.0278   59.1637 H   0  0  0  0  0  0  0  0  0  0  0  0
  130.4207  124.8999   59.0976 H   0  0  0  0  0  0  0  0  0  0  0  0
  130.0080  123.7553   57.7760 H   0  0  0  0  0  0  0  0  0  0  0  0
  129.3179  125.4138   57.7760 H   0  0  0  0  0  0  0  0  0  0  0  0
  127.1406  122.3084   59.0815 H   0  0  0  0  0  0  0  0  0  0  0  0
  126.9018  123.5099   57.7677 H   0  0  0  0  0  0  0  0  0  0  0  0
  128.3567  122.4563   57.7677 H   0  0  0  0  0  0  0  0  0  0  0  0
  129.8707  120.3823   62.7355 H   0  0  0  0  0  0  0  0  0  0  0  0
  129.7155  120.8069   61.0082 H   0  0  0  0  0  0  0  0  0  0  0  0
  131.9369  121.3818   62.5159 H   0  0  0  0  0  0  0  0  0  0  0  0
  131.3563  122.3993   61.0934 H   0  0  0  0  0  0  0  0  0  0  0  0
  130.8304  124.1432   62.3355 H   0  0  0  0  0  0  0  0  0  0  0  0
  132.3910  124.0400   64.5190 H   0  0  0  0  0  0  0  0  0  0  0  0
  133.8554  124.0182   59.4791 H   0  0  0  0  0  0  0  0  0  0  0  0
  127.6498  129.7745   61.0155 H   0  0  0  0  0  0  0  0  0  0  0  0
  127.6034  130.6858   59.4682 H   0  0  0  0  0  0  0  0  0  0  0  0
  127.3765  128.9039   59.4682 H   0  0  0  0  0  0  0  0  0  0  0  0
  130.0215  130.3232   61.7376 H   0  0  0  0  0  0  0  0  0  0  0  0
  131.2777  130.4877   60.4641 H   0  0  0  0  0  0  0  0  0  0  0  0
  129.8506  131.5785   60.4641 H   0  0  0  0  0  0  0  0  0  0  0  0
  128.2004  128.1709   57.8985 H   0  0  0  0  0  0  0  0  0  0  0  0
  128.4623  129.4741   56.6903 H   0  0  0  0  0  0  0  0  0  0  0  0
  129.5213  128.0232   56.6903 H   0  0  0  0  0  0  0  0  0  0  0  0
  130.7191  131.4539   58.4925 H   0  0  0  0  0  0  0  0  0  0  0  0
  131.3310  130.5509   57.0654 H   0  0  0  0  0  0  0  0  0  0  0  0
  129.6574  131.2034   57.0654 H   0  0  0  0  0  0  0  0  0  0  0  0
  130.1922  124.4037   64.3203 H   0  0  0  0  0  0  0  0  0  0  0  0
  130.1576  121.2009   64.6799 H   0  0  0  0  0  0  0  0  0  0  0  0
  129.4735  121.8848   65.8987 H   0  0  0  0  0  0  0  0  0  0  0  0
  127.5481  122.7601   63.7479 H   0  0  0  0  0  0  0  0  0  0  0  0
  1  2  1  0
  2  3  1  0
  2  4  1  0
  2  5  1  0
  5  6  1  0
  6  7  2  0
  6  8  1  0
  8  9  1  0
  9 10  1  0
 10 11  1  0
 11 12  1  0
 12 13  1  0
 13 14  2  0
 13 15  2  0
 13 16  1  0
 16 17  2  0
 17 18  1  0
 18 19  1  0
 18 20  2  0
 20 21  1  0
 21 22  1  0
 22 23  1  0
 23 24  1  0
 23 25  1  0
 23 26  1  0
 26 27  1  0
 26 28  1  0
 26 29  1  0
 20 30  1  0
 11 31  1  0
 31 32  1  0
 32 33  1  0
 33  8  1  0
 30 16  1  0
 33 31  1  0
 29 21  1  0
  1 34  1  0
  1 35  1  0
  1 36  1  0
  3 37  1  0
  3 38  1  0
  3 39  1  0
  4 40  1  0
  4 41  1  0
  4 42  1  0
  9 43  1  0
  9 44  1  0
 10 45  1  0
 10 46  1  0
 11 47  1  6
 12 48  1  0
 17 49  1  0
 24 50  1  0
 24 51  1  0
 24 52  1  0
 25 53  1  0
 25 54  1  0
 25 55  1  0
 27 56  1  0
 27 57  1  0
 27 58  1  0
 28 59  1  0
 28 60  1  0
 28 61  1  0
 31 62  1  1
 32 63  1  0
 32 64  1  0
 33 65  1  1
M  END
>  <Binding energies>  (1) 
[-7.08]

>  <Ligand effiencies>  (1) 
[-0.20823529411764707]

>  <Interactions>  (1) 
["V-A:ASP:366:CA:3210, V-B:PRO:540:CA:9855, V-B:ALA:541:CB:9864, H-A:ARG:545:NH1:4927, H-A:TYR:531:OH:4795, V-A:TYR:484:CE2:4346, V-B:TYR:539:CE2:9848, V-B:GLU:543:CG:9879, V-B:TYR:539:C:9839, V-A:ASP:366:CG:3213, V-B:TYR:539:CZ:9849, H-B:ALA:541:N:9863, H-A:GLY:454:N:4050, V-B:PRO:540:N:9856, V-A:ASP:366:C:3208, V-B:TYR:539:CD2:9846, V-A:TYR:531:CZ:4794, V-B:GLU:543:CD:9880, V-A:MET:535:CE:4835, V-A:ASP:366:CB:3212, V-A:LEU:475:CD2:4259, H-A:ARG:545:NH2:4928, V-B:PRO:540:C:9853, V-B:ALA:541:CA:9862, H-A:TYR:484:OH:4348"]

$$$$
ZINC2282832542
     RDKit          3D

 69 71  0  0  0  0  0  0  0  0999 V2000
  129.6670  122.4150   65.0570 C   0  0  0  0  0  0  0  0  0  0  0  0
  129.4550  123.6990   64.2430 C   0  0  0  0  0  0  0  0  0  0  0  0
  130.4860  124.8130   64.5880 C   0  0  2  0  0  0  0  0  0  0  0  0
  131.8950  124.6000   63.9840 C   0  0  2  0  0  0  0  0  0  0  0  0
  132.3810  123.1980   63.9930 N   0  0  0  0  0  0  0  0  0  0  0  0
  133.5190  122.6640   62.7590 S   0  0  0  0  0  0  0  0  0  0  0  0
  134.4720  123.7530   62.5110 O   0  0  0  0  0  0  0  0  0  0  0  0
  133.9990  121.3360   63.1540 O   0  0  0  0  0  0  0  0  0  0  0  0
  132.4270  122.4530   61.2320 C   0  0  0  0  0  0  0  0  0  0  0  0
  132.6330  123.5210   60.1780 C   0  0  0  0  0  0  0  0  0  0  0  0
  133.8780  123.7500   59.8030 N   0  0  0  0  0  0  0  0  0  0  0  0
  133.9490  124.6810   58.8860 C   0  0  0  0  0  0  0  0  0  0  0  0
  132.4350  125.3610   58.4010 S   0  0  0  0  0  0  0  0  0  0  0  0
  131.6590  124.2960   59.5390 C   0  0  0  0  0  0  0  0  0  0  0  0
  130.0990  124.3020   59.7550 B   0  0  0  0  0  0  0  0  0  0  0  0
  129.1890  124.6740   58.7950 O   0  0  0  0  0  0  0  0  0  0  0  0
  127.9090  124.2530   59.2380 C   0  0  0  0  0  0  0  0  0  0  0  0
  126.8740  125.2570   58.6830 C   0  0  0  0  0  0  0  0  0  0  0  0
  127.6810  122.8440   58.6250 C   0  0  0  0  0  0  0  0  0  0  0  0
  128.1020  124.2860   60.7960 C   0  0  0  0  0  0  0  0  0  0  0  0
  127.9650  125.6870   61.4500 C   0  0  0  0  0  0  0  0  0  0  0  0
  127.2740  123.2410   61.5780 C   0  0  0  0  0  0  0  0  0  0  0  0
  129.4710  123.9270   60.9200 O   0  0  0  0  0  0  0  0  0  0  0  0
  132.7590  125.5170   64.8320 C   0  0  0  0  0  0  0  0  0  0  0  0
  132.1880  125.3880   66.2410 C   0  0  0  0  0  0  0  0  0  0  0  0
  130.7750  125.0410   66.0220 N   0  0  0  0  0  0  0  0  0  0  0  0
  129.8060  125.1400   67.0330 C   0  0  0  0  0  0  0  0  0  0  0  0
  129.6270  124.3190   67.9330 O   0  0  0  0  0  0  0  0  0  0  0  0
  129.0700  126.2880   66.8930 O   0  0  0  0  0  0  0  0  0  0  0  0
  128.9500  127.3350   67.8740 C   0  0  0  0  0  0  0  0  0  0  0  0
  128.5900  128.6880   67.2130 C   0  0  0  0  0  0  0  0  0  0  0  0
  127.9240  126.9640   68.9750 C   0  0  0  0  0  0  0  0  0  0  0  0
  130.3560  127.4300   68.5010 C   0  0  0  0  0  0  0  0  0  0  0  0
  129.6280  122.6509   66.1307 H   0  0  0  0  0  0  0  0  0  0  0  0
  128.8763  121.6907   64.8118 H   0  0  0  0  0  0  0  0  0  0  0  0
  130.6486  121.9833   64.8118 H   0  0  0  0  0  0  0  0  0  0  0  0
  129.5458  123.4558   63.1741 H   0  0  0  0  0  0  0  0  0  0  0  0
  128.4558  124.0859   64.4917 H   0  0  0  0  0  0  0  0  0  0  0  0
  129.9452  125.6663   64.1527 H   0  0  0  0  0  0  0  0  0  0  0  0
  131.9107  124.8292   62.9083 H   0  0  0  0  0  0  0  0  0  0  0  0
  132.4920  122.7720   64.9170 H   0  0  0  0  0  0  0  0  0  0  0  0
  132.6475  121.4742   60.7810 H   0  0  0  0  0  0  0  0  0  0  0  0
  131.3840  122.5362   61.5713 H   0  0  0  0  0  0  0  0  0  0  0  0
  134.9060  125.0084   58.4535 H   0  0  0  0  0  0  0  0  0  0  0  0
  126.3610  125.7546   59.5192 H   0  0  0  0  0  0  0  0  0  0  0  0
  127.3874  126.0102   58.0674 H   0  0  0  0  0  0  0  0  0  0  0  0
  126.1367  124.7209   58.0674 H   0  0  0  0  0  0  0  0  0  0  0  0
  127.5618  122.1074   59.4332 H   0  0  0  0  0  0  0  0  0  0  0  0
  126.7733  122.8569   58.0038 H   0  0  0  0  0  0  0  0  0  0  0  0
  128.5465  122.5699   58.0038 H   0  0  0  0  0  0  0  0  0  0  0  0
  127.9752  125.5831   62.5450 H   0  0  0  0  0  0  0  0  0  0  0  0
  128.8053  126.3228   61.1342 H   0  0  0  0  0  0  0  0  0  0  0  0
  127.0175  126.1480   61.1342 H   0  0  0  0  0  0  0  0  0  0  0  0
  127.4034  123.4044   62.6581 H   0  0  0  0  0  0  0  0  0  0  0  0
  126.2107  123.3453   61.3162 H   0  0  0  0  0  0  0  0  0  0  0  0
  127.6186  122.2297   61.3162 H   0  0  0  0  0  0  0  0  0  0  0  0
  133.8099  125.1929   64.8075 H   0  0  0  0  0  0  0  0  0  0  0  0
  132.7461  126.5556   64.4698 H   0  0  0  0  0  0  0  0  0  0  0  0
  132.7035  124.5936   66.8006 H   0  0  0  0  0  0  0  0  0  0  0  0
  132.3115  126.3065   66.8336 H   0  0  0  0  0  0  0  0  0  0  0  0
  128.3909  129.4363   67.9943 H   0  0  0  0  0  0  0  0  0  0  0  0
  129.4296  129.0254   66.5875 H   0  0  0  0  0  0  0  0  0  0  0  0
  127.6937  128.5635   66.5875 H   0  0  0  0  0  0  0  0  0  0  0  0
  128.3741  127.1267   69.9654 H   0  0  0  0  0  0  0  0  0  0  0  0
  127.0295  127.5956   68.8705 H   0  0  0  0  0  0  0  0  0  0  0  0
  127.6403  125.9064   68.8705 H   0  0  0  0  0  0  0  0  0  0  0  0
  130.2696  127.4242   69.5976 H   0  0  0  0  0  0  0  0  0  0  0  0
  130.9611  126.5707   68.1763 H   0  0  0  0  0  0  0  0  0  0  0  0
  130.8400  128.3629   68.1763 H   0  0  0  0  0  0  0  0  0  0  0  0
  1  2  1  0
  2  3  1  0
  3  4  1  0
  4  5  1  0
  5  6  1  0
  6  7  2  0
  6  8  2  0
  6  9  1  0
  9 10  1  0
 10 11  1  0
 11 12  2  0
 12 13  1  0
 13 14  1  0
 14 15  1  0
 15 16  1  0
 16 17  1  0
 17 18  1  0
 17 19  1  0
 17 20  1  0
 20 21  1  0
 20 22  1  0
 20 23  1  0
  4 24  1  0
 24 25  1  0
 25 26  1  0
 26 27  1  0
 27 28  2  0
 27 29  1  0
 29 30  1  0
 30 31  1  0
 30 32  1  0
 30 33  1  0
 26  3  1  0
 14 10  2  0
 23 15  1  0
  1 34  1  0
  1 35  1  0
  1 36  1  0
  2 37  1  0
  2 38  1  0
  3 39  1  6
  4 40  1  6
  5 41  1  0
  9 42  1  0
  9 43  1  0
 12 44  1  0
 18 45  1  0
 18 46  1  0
 18 47  1  0
 19 48  1  0
 19 49  1  0
 19 50  1  0
 21 51  1  0
 21 52  1  0
 21 53  1  0
 22 54  1  0
 22 55  1  0
 22 56  1  0
 24 57  1  0
 24 58  1  0
 25 59  1  0
 25 60  1  0
 31 61  1  0
 31 62  1  0
 31 63  1  0
 32 64  1  0
 32 65  1  0
 32 66  1  0
 33 67  1  0
 33 68  1  0
 33 69  1  0
M  END
>  <Binding energies>  (1) 
[-7.37]

>  <Ligand effiencies>  (1) 
[-0.21676470588235294]

>  <Interactions>  (1) 
["V-A:ILE:369:CG2:3237, V-A:ASP:366:CA:3210, V-B:PRO:540:CA:9855, V-A:GLY:454:CA:4049, V-B:GLU:543:C:9874, V-A:ILE:369:CB:3236, V-B:GLU:543:CB:9878, V-B:ALA:541:CB:9864, V-B:TYR:539:CE2:9848, V-A:TYR:484:CE2:4346, V-B:GLU:543:CG:9879, V-B:TYR:539:C:9839, V-A:ASP:366:CG:3213, V-B:TYR:539:CZ:9849, V-A:TYR:484:CZ:4347, V-A:GLU:543:CD:4908, V-B:HIS:456:CE1:9041, V-B:GLU:543:CA:9876, H-A:GLY:454:N:4050, V-B:PRO:540:N:9856, V-A:HIS:456:CE1:4070, V-A:ASP:366:C:3208, V-B:TYR:539:CD2:9846, V-A:GLU:543:CG:4907, V-B:GLU:543:CD:9880, V-A:ASP:366:CB:3212, V-A:LEU:475:CD2:4259, V-A:ARG:545:CZ:4926, V-A:GLU:543:CB:4906, H-A:TYR:484:OH:4348"]

$$$$
ZINC2282835627
     RDKit          3D

 69 71  0  0  0  0  0  0  0  0999 V2000
  129.5880  122.1300   64.8120 C   0  0  0  0  0  0  0  0  0  0  0  0
  129.0070  122.8810   63.6040 C   0  0  0  0  0  0  0  0  0  0  0  0
  129.5880  122.4700   62.3130 N   0  0  0  0  0  0  0  0  0  0  0  0
  128.7240  122.0960   61.2650 C   0  0  0  0  0  0  0  0  0  0  0  0
  129.0510  121.4130   60.2920 O   0  0  0  0  0  0  0  0  0  0  0  0
  127.4530  122.5720   61.4620 O   0  0  0  0  0  0  0  0  0  0  0  0
  126.8370  123.6550   60.7430 C   0  0  0  0  0  0  0  0  0  0  0  0
  127.4990  125.0110   61.0940 C   0  0  0  0  0  0  0  0  0  0  0  0
  126.8550  123.4040   59.2160 C   0  0  0  0  0  0  0  0  0  0  0  0
  125.3770  123.6550   61.2410 C   0  0  0  0  0  0  0  0  0  0  0  0
  131.0550  122.5740   62.1290 C   0  0  1  0  0  0  0  0  0  0  0  0
  131.6200  121.3840   61.3550 C   0  0  0  0  0  0  0  0  0  0  0  0
  132.7800  121.9400   60.5460 C   0  0  0  0  0  0  0  0  0  0  0  0
  132.3130  123.3020   60.2220 N   0  0  0  0  0  0  0  0  0  0  0  0
  133.3550  124.3850   59.2990 S   0  0  0  0  0  0  0  0  0  0  0  0
  134.6260  124.4960   60.0230 O   0  0  0  0  0  0  0  0  0  0  0  0
  133.3470  123.9240   57.9060 O   0  0  0  0  0  0  0  0  0  0  0  0
  132.4690  126.0600   59.3820 C   0  0  0  0  0  0  0  0  0  0  0  0
  131.1780  126.1720   58.5870 C   0  0  0  0  0  0  0  0  0  0  0  0
  130.5770  125.0310   58.2950 N   0  0  0  0  0  0  0  0  0  0  0  0
  129.4730  125.2080   57.6210 C   0  0  0  0  0  0  0  0  0  0  0  0
  129.0860  126.8510   57.2590 S   0  0  0  0  0  0  0  0  0  0  0  0
  130.5370  127.3220   58.1030 C   0  0  0  0  0  0  0  0  0  0  0  0
  130.9660  128.8360   58.1950 B   0  0  0  0  0  0  0  0  0  0  0  0
  130.1350  129.8630   58.5710 O   0  0  0  0  0  0  0  0  0  0  0  0
  130.9570  130.9630   58.9250 C   0  0  0  0  0  0  0  0  0  0  0  0
  130.1700  132.2540   58.6020 C   0  0  0  0  0  0  0  0  0  0  0  0
  131.1920  130.8440   60.4560 C   0  0  0  0  0  0  0  0  0  0  0  0
  132.2210  130.7100   58.0270 C   0  0  0  0  0  0  0  0  0  0  0  0
  132.1150  131.2330   56.5720 C   0  0  0  0  0  0  0  0  0  0  0  0
  133.5660  131.1450   58.6550 C   0  0  0  0  0  0  0  0  0  0  0  0
  132.2370  129.2920   57.9360 O   0  0  0  0  0  0  0  0  0  0  0  0
  131.5180  123.8290   61.3580 C   0  0  0  0  0  0  0  0  0  0  0  0
  129.2277  122.5957   65.7412 H   0  0  0  0  0  0  0  0  0  0  0  0
  129.2657  121.0788   64.7798 H   0  0  0  0  0  0  0  0  0  0  0  0
  130.6865  122.1779   64.7798 H   0  0  0  0  0  0  0  0  0  0  0  0
  127.9228  122.6981   63.5705 H   0  0  0  0  0  0  0  0  0  0  0  0
  129.2501  123.9450   63.7408 H   0  0  0  0  0  0  0  0  0  0  0  0
  127.5526  125.1208   62.1872 H   0  0  0  0  0  0  0  0  0  0  0  0
  128.5143  125.0435   60.6720 H   0  0  0  0  0  0  0  0  0  0  0  0
  126.9001  125.8315   60.6720 H   0  0  0  0  0  0  0  0  0  0  0  0
  126.9325  122.3239   59.0229 H   0  0  0  0  0  0  0  0  0  0  0  0
  125.9268  123.7906   58.7699 H   0  0  0  0  0  0  0  0  0  0  0  0
  127.7185  123.9191   58.7699 H   0  0  0  0  0  0  0  0  0  0  0  0
  125.0300  122.6179   61.3594 H   0  0  0  0  0  0  0  0  0  0  0  0
  125.3199  124.1735   62.2094 H   0  0  0  0  0  0  0  0  0  0  0  0
  124.7400  124.1735   60.5093 H   0  0  0  0  0  0  0  0  0  0  0  0
  131.4301  122.6164   63.1622 H   0  0  0  0  0  0  0  0  0  0  0  0
  131.9728  120.6066   62.0487 H   0  0  0  0  0  0  0  0  0  0  0  0
  130.8597  120.9177   60.7111 H   0  0  0  0  0  0  0  0  0  0  0  0
  133.7044  121.9670   61.1416 H   0  0  0  0  0  0  0  0  0  0  0  0
  133.0283  121.3370   59.6601 H   0  0  0  0  0  0  0  0  0  0  0  0
  132.2332  126.2639   60.4369 H   0  0  0  0  0  0  0  0  0  0  0  0
  133.1609  126.7840   58.9269 H   0  0  0  0  0  0  0  0  0  0  0  0
  128.8345  124.3695   57.3060 H   0  0  0  0  0  0  0  0  0  0  0  0
  129.8706  132.7452   59.5396 H   0  0  0  0  0  0  0  0  0  0  0  0
  130.8066  132.9352   58.0183 H   0  0  0  0  0  0  0  0  0  0  0  0
  129.2729  132.0002   58.0183 H   0  0  0  0  0  0  0  0  0  0  0  0
  130.3356  131.2776   60.9932 H   0  0  0  0  0  0  0  0  0  0  0  0
  131.2976  129.7838   60.7294 H   0  0  0  0  0  0  0  0  0  0  0  0
  132.1091  131.3863   60.7294 H   0  0  0  0  0  0  0  0  0  0  0  0
  131.8965  132.3110   56.5849 H   0  0  0  0  0  0  0  0  0  0  0  0
  133.0669  131.0580   56.0492 H   0  0  0  0  0  0  0  0  0  0  0  0
  131.3064  130.7012   56.0492 H   0  0  0  0  0  0  0  0  0  0  0  0
  133.4842  131.1185   59.7516 H   0  0  0  0  0  0  0  0  0  0  0  0
  134.3615  130.4583   58.3300 H   0  0  0  0  0  0  0  0  0  0  0  0
  133.8088  132.1675   58.3300 H   0  0  0  0  0  0  0  0  0  0  0  0
  132.1381  124.4718   62.0001 H   0  0  0  0  0  0  0  0  0  0  0  0
  130.6719  124.4466   61.0224 H   0  0  0  0  0  0  0  0  0  0  0  0
  1  2  1  0
  2  3  1  0
  3  4  1  0
  4  5  2  0
  4  6  1  0
  6  7  1  0
  7  8  1  0
  7  9  1  0
  7 10  1  0
  3 11  1  0
 11 12  1  0
 12 13  1  0
 13 14  1  0
 14 15  1  0
 15 16  2  0
 15 17  2  0
 15 18  1  0
 18 19  1  0
 19 20  1  0
 20 21  2  0
 21 22  1  0
 22 23  1  0
 23 24  1  0
 24 25  1  0
 25 26  1  0
 26 27  1  0
 26 28  1  0
 26 29  1  0
 29 30  1  0
 29 31  1  0
 29 32  1  0
 14 33  1  0
 33 11  1  0
 23 19  2  0
 32 24  1  0
  1 34  1  0
  1 35  1  0
  1 36  1  0
  2 37  1  0
  2 38  1  0
  8 39  1  0
  8 40  1  0
  8 41  1  0
  9 42  1  0
  9 43  1  0
  9 44  1  0
 10 45  1  0
 10 46  1  0
 10 47  1  0
 11 48  1  1
 12 49  1  0
 12 50  1  0
 13 51  1  0
 13 52  1  0
 18 53  1  0
 18 54  1  0
 21 55  1  0
 27 56  1  0
 27 57  1  0
 27 58  1  0
 28 59  1  0
 28 60  1  0
 28 61  1  0
 30 62  1  0
 30 63  1  0
 30 64  1  0
 31 65  1  0
 31 66  1  0
 31 67  1  0
 33 68  1  0
 33 69  1  0
M  END
>  <Binding energies>  (1) 
[-7.61]

>  <Ligand effiencies>  (1) 
[-0.23060606060606062]

>  <Interactions>  (1) 
["V-A:ILE:369:CG2:3237, V-A:ASP:366:CA:3210, V-B:PRO:540:CA:9855, V-B:ALA:541:CB:9864, V-B:TYR:539:CE2:9848, H-A:TYR:531:OH:4795, V-A:TYR:484:CE2:4346, V-B:GLU:543:CG:9879, V-A:ASP:366:CG:3213, V-A:LEU:363:CD1:3189, V-A:LEU:363:CB:3187, V-A:LEU:363:CG:3188, V-B:TYR:539:CZ:9849, V-A:TYR:531:CE2:4793, H-B:TYR:539:OH:9850, H-B:ALA:541:N:9863, V-B:PRO:540:CB:9857, V-B:PRO:540:N:9856, V-B:TYR:539:CD2:9846, V-A:TYR:531:CZ:4794, V-A:ASP:366:CB:3212, V-A:LEU:475:CD2:4259, V-A:PRO:540:N:4884, V-A:PRO:540:CB:4885, V-A:PRO:540:CA:4883, V-A:LEU:363:CA:3185, V-B:PRO:540:C:9853"]

$$$$
ZINC2282854180
     RDKit          3D

 70 72  0  0  0  0  0  0  0  0999 V2000
  128.2090  123.7120   56.8030 C   0  0  0  0  0  0  0  0  0  0  0  0
  126.8950  123.5040   57.5960 C   0  0  0  0  0  0  0  0  0  0  0  0
  125.9800  122.4690   56.8980 C   0  0  0  0  0  0  0  0  0  0  0  0
  126.1490  124.8500   57.7070 C   0  0  0  0  0  0  0  0  0  0  0  0
  127.1600  123.1340   58.9620 O   0  0  0  0  0  0  0  0  0  0  0  0
  128.3910  123.1230   59.5630 C   0  0  0  0  0  0  0  0  0  0  0  0
  129.1210  122.1300   59.6060 O   0  0  0  0  0  0  0  0  0  0  0  0
  128.7120  124.3770   60.1150 N   0  0  0  0  0  0  0  0  0  0  0  0
  128.4640  124.7200   61.5300 C   0  0  0  0  0  0  0  0  0  0  0  0
  129.8530  124.7860   62.1980 C   0  0  0  0  0  0  0  0  0  0  0  0
  130.7740  125.7860   61.4570 C   0  0  1  0  0  0  0  0  0  0  0  0
  132.0890  125.7770   62.1410 N   0  0  0  0  0  0  0  0  0  0  0  0
  132.6560  124.3410   62.9910 S   0  0  0  0  0  0  0  0  0  0  0  0
  132.3950  123.1670   62.1520 O   0  0  0  0  0  0  0  0  0  0  0  0
  133.9830  124.6150   63.5540 O   0  0  0  0  0  0  0  0  0  0  0  0
  131.4950  124.2890   64.3770 C   0  0  0  0  0  0  0  0  0  0  0  0
  131.1790  125.3620   65.1990 C   0  0  0  0  0  0  0  0  0  0  0  0
  130.2140  125.0440   66.1600 C   0  0  0  0  0  0  0  0  0  0  0  0
  129.6340  126.0840   67.1830 B   0  0  0  0  0  0  0  0  0  0  0  0
  129.6780  125.9290   68.5480 O   0  0  0  0  0  0  0  0  0  0  0  0
  129.3670  127.1900   69.1220 C   0  0  0  0  0  0  0  0  0  0  0  0
  128.6610  126.9290   70.4710 C   0  0  0  0  0  0  0  0  0  0  0  0
  130.7270  127.9040   69.3530 C   0  0  0  0  0  0  0  0  0  0  0  0
  128.4570  127.8180   68.0060 C   0  0  0  0  0  0  0  0  0  0  0  0
  126.9770  127.3500   68.0160 C   0  0  0  0  0  0  0  0  0  0  0  0
  128.5350  129.3570   67.8930 C   0  0  0  0  0  0  0  0  0  0  0  0
  129.0350  127.2710   66.8300 O   0  0  0  0  0  0  0  0  0  0  0  0
  129.8210  123.7120   66.0990 C   0  0  0  0  0  0  0  0  0  0  0  0
  130.6250  122.8520   64.8240 S   0  0  0  0  0  0  0  0  0  0  0  0
  130.9460  125.4360   59.9380 C   0  0  0  0  0  0  0  0  0  0  0  0
  131.6440  126.6280   59.2410 C   0  0  0  0  0  0  0  0  0  0  0  0
  131.7150  124.1050   59.7130 C   0  0  0  0  0  0  0  0  0  0  0  0
  129.5110  125.3310   59.3210 C   0  0  0  0  0  0  0  0  0  0  0  0
  129.0446  123.8443   57.5061 H   0  0  0  0  0  0  0  0  0  0  0  0
  128.3983  122.8326   56.1698 H   0  0  0  0  0  0  0  0  0  0  0  0
  128.1174  124.6068   56.1698 H   0  0  0  0  0  0  0  0  0  0  0  0
  125.4535  121.8734   57.6583 H   0  0  0  0  0  0  0  0  0  0  0  0
  125.2452  122.9939   56.2698 H   0  0  0  0  0  0  0  0  0  0  0  0
  126.5910  121.8041   56.2698 H   0  0  0  0  0  0  0  0  0  0  0  0
  126.0079  125.1046   58.7678 H   0  0  0  0  0  0  0  0  0  0  0  0
  126.7392  125.6379   57.2162 H   0  0  0  0  0  0  0  0  0  0  0  0
  125.1681  124.7671   57.2162 H   0  0  0  0  0  0  0  0  0  0  0  0
  127.9567  125.6932   61.6047 H   0  0  0  0  0  0  0  0  0  0  0  0
  127.8156  123.9775   62.0182 H   0  0  0  0  0  0  0  0  0  0  0  0
  129.7355  125.1102   63.2425 H   0  0  0  0  0  0  0  0  0  0  0  0
  130.3118  123.7871   62.1557 H   0  0  0  0  0  0  0  0  0  0  0  0
  130.3150  126.7851   61.4896 H   0  0  0  0  0  0  0  0  0  0  0  0
  132.7780  126.4790   61.8590 H   0  0  0  0  0  0  0  0  0  0  0  0
  131.6388  126.3568   65.1045 H   0  0  0  0  0  0  0  0  0  0  0  0
  129.3429  127.1811   71.2965 H   0  0  0  0  0  0  0  0  0  0  0  0
  127.7573  127.5525   70.5385 H   0  0  0  0  0  0  0  0  0  0  0  0
  128.3801  125.8676   70.5385 H   0  0  0  0  0  0  0  0  0  0  0  0
  130.9115  128.0009   70.4331 H   0  0  0  0  0  0  0  0  0  0  0  0
  131.5338  127.3132   68.8947 H   0  0  0  0  0  0  0  0  0  0  0  0
  130.6988  128.9036   68.8947 H   0  0  0  0  0  0  0  0  0  0  0  0
  126.6338  127.2415   69.0554 H   0  0  0  0  0  0  0  0  0  0  0  0
  126.3534  128.0948   67.4998 H   0  0  0  0  0  0  0  0  0  0  0  0
  126.8950  126.3821   67.4998 H   0  0  0  0  0  0  0  0  0  0  0  0
  128.5573  129.7980   68.9005 H   0  0  0  0  0  0  0  0  0  0  0  0
  129.4486  129.6389   67.3490 H   0  0  0  0  0  0  0  0  0  0  0  0
  127.6546  129.7298   67.3490 H   0  0  0  0  0  0  0  0  0  0  0  0
  129.0864  123.2564   66.7793 H   0  0  0  0  0  0  0  0  0  0  0  0
  132.0455  127.3136   60.0017 H   0  0  0  0  0  0  0  0  0  0  0  0
  132.4664  126.2551   58.6129 H   0  0  0  0  0  0  0  0  0  0  0  0
  130.9163  127.1627   58.6129 H   0  0  0  0  0  0  0  0  0  0  0  0
  131.9716  123.6608   60.6861 H   0  0  0  0  0  0  0  0  0  0  0  0
  131.0812  123.4066   59.1468 H   0  0  0  0  0  0  0  0  0  0  0  0
  132.6366  124.3052   59.1468 H   0  0  0  0  0  0  0  0  0  0  0  0
  129.0291  126.3196   59.3392 H   0  0  0  0  0  0  0  0  0  0  0  0
  129.5799  124.9805   58.2806 H   0  0  0  0  0  0  0  0  0  0  0  0
  1  2  1  0
  2  3  1  0
  2  4  1  0
  2  5  1  0
  5  6  1  0
  6  7  2  0
  6  8  1  0
  8  9  1  0
  9 10  1  0
 10 11  1  0
 11 12  1  0
 12 13  1  0
 13 14  2  0
 13 15  2  0
 13 16  1  0
 16 17  2  0
 17 18  1  0
 18 19  1  0
 19 20  1  0
 20 21  1  0
 21 22  1  0
 21 23  1  0
 21 24  1  0
 24 25  1  0
 24 26  1  0
 24 27  1  0
 18 28  2  0
 28 29  1  0
 11 30  1  0
 30 31  1  0
 30 32  1  0
 30 33  1  0
 33  8  1  0
 29 16  1  0
 27 19  1  0
  1 34  1  0
  1 35  1  0
  1 36  1  0
  3 37  1  0
  3 38  1  0
  3 39  1  0
  4 40  1  0
  4 41  1  0
  4 42  1  0
  9 43  1  0
  9 44  1  0
 10 45  1  0
 10 46  1  0
 11 47  1  6
 12 48  1  0
 17 49  1  0
 22 50  1  0
 22 51  1  0
 22 52  1  0
 23 53  1  0
 23 54  1  0
 23 55  1  0
 25 56  1  0
 25 57  1  0
 25 58  1  0
 26 59  1  0
 26 60  1  0
 26 61  1  0
 28 62  1  0
 31 63  1  0
 31 64  1  0
 31 65  1  0
 32 66  1  0
 32 67  1  0
 32 68  1  0
 33 69  1  0
 33 70  1  0
M  END
>  <Binding energies>  (1) 
[-8.13]

>  <Ligand effiencies>  (1) 
[-0.23911764705882355]

>  <Interactions>  (1) 
["V-B:PRO:540:CA:9855, V-A:GLU:543:CA:4904, V-A:GLU:543:C:4902, V-B:GLU:543:CB:9878, V-B:TYR:539:CE2:9848, V-A:TYR:484:CE2:4346, V-B:GLU:543:CG:9879, V-B:TYR:539:C:9839, V-A:ASP:366:CG:3213, V-B:TYR:539:CZ:9849, V-A:GLU:543:CD:4908, V-B:PRO:540:CB:9857, V-A:TYR:484:CZ:4347, V-B:GLU:543:CA:9876, H-A:GLY:454:N:4050, V-B:HIS:456:CE1:9041, V-B:PRO:540:N:9856, V-A:HIS:456:CE1:4070, V-B:TYR:539:CD2:9846, V-B:PRO:540:CD:9859, V-A:GLU:543:CG:4907, V-B:GLU:543:CD:9880, V-A:ASP:366:CB:3212, V-A:LEU:475:CD2:4259, H-A:ARG:545:NH2:4928, V-A:GLU:543:CB:4906, H-A:ASP:366:OD1:3214, V-B:TYR:539:CD1:9845, H-A:ASP:366:OD2:3215, V-B:TYR:539:CE1:9847"]

$$$$
ZINC2282858448
     RDKit          3D

 70 72  0  0  0  0  0  0  0  0999 V2000
  132.8240  124.7060   58.8200 C   0  0  0  0  0  0  0  0  0  0  0  0
  131.6710  125.3220   59.6370 C   0  0  2  0  0  0  0  0  0  0  0  0
  131.9220  125.2520   61.1580 C   0  0  0  0  0  0  0  0  0  0  0  0
  131.8110  123.8770   61.7240 N   0  0  0  0  0  0  0  0  0  0  0  0
  132.7970  123.5330   63.1770 S   0  0  0  0  0  0  0  0  0  0  0  0
  132.9650  122.0820   63.3130 O   0  0  0  0  0  0  0  0  0  0  0  0
  133.9490  124.4370   63.2450 O   0  0  0  0  0  0  0  0  0  0  0  0
  131.6390  124.0210   64.4790 C   0  0  0  0  0  0  0  0  0  0  0  0
  130.6410  123.2110   65.0030 C   0  0  0  0  0  0  0  0  0  0  0  0
  129.8870  123.8550   65.9900 C   0  0  0  0  0  0  0  0  0  0  0  0
  130.3040  125.1610   66.2270 C   0  0  0  0  0  0  0  0  0  0  0  0
  129.6960  126.1800   67.2570 B   0  0  0  0  0  0  0  0  0  0  0  0
  129.0810  127.3640   66.9160 O   0  0  0  0  0  0  0  0  0  0  0  0
  128.4430  127.8580   68.0850 C   0  0  0  0  0  0  0  0  0  0  0  0
  128.4740  129.4020   68.0160 C   0  0  0  0  0  0  0  0  0  0  0  0
  126.9790  127.3420   68.0250 C   0  0  0  0  0  0  0  0  0  0  0  0
  129.3320  127.2280   69.2160 C   0  0  0  0  0  0  0  0  0  0  0  0
  130.6520  127.9840   69.5230 C   0  0  0  0  0  0  0  0  0  0  0  0
  128.5830  126.9000   70.5270 C   0  0  0  0  0  0  0  0  0  0  0  0
  129.7150  125.9980   68.6190 O   0  0  0  0  0  0  0  0  0  0  0  0
  131.6490  125.5940   65.2150 S   0  0  0  0  0  0  0  0  0  0  0  0
  130.6680  122.9930   61.2660 C   0  0  0  0  0  0  0  0  0  0  0  0
  131.1290  121.5170   61.3290 C   0  0  0  0  0  0  0  0  0  0  0  0
  129.4810  123.3280   62.1990 C   0  0  0  0  0  0  0  0  0  0  0  0
  130.2560  123.2480   59.7770 C   0  0  0  0  0  0  0  0  0  0  0  0
  130.3530  124.6790   59.4460 N   0  0  0  0  0  0  0  0  0  0  0  0
  129.1640  125.4050   59.2330 C   0  0  0  0  0  0  0  0  0  0  0  0
  128.8030  126.3770   59.9020 O   0  0  0  0  0  0  0  0  0  0  0  0
  128.4390  124.9010   58.1860 O   0  0  0  0  0  0  0  0  0  0  0  0
  127.3180  124.0050   58.2930 C   0  0  0  0  0  0  0  0  0  0  0  0
  127.5850  122.6740   57.5470 C   0  0  0  0  0  0  0  0  0  0  0  0
  126.9390  123.7480   59.7730 C   0  0  0  0  0  0  0  0  0  0  0  0
  126.1650  124.7560   57.5970 C   0  0  0  0  0  0  0  0  0  0  0  0
  133.5830  124.3005   59.5051 H   0  0  0  0  0  0  0  0  0  0  0  0
  132.4326  123.8968   58.1859 H   0  0  0  0  0  0  0  0  0  0  0  0
  133.2791  125.4812   58.1859 H   0  0  0  0  0  0  0  0  0  0  0  0
  131.6483  126.3530   59.2544 H   0  0  0  0  0  0  0  0  0  0  0  0
  132.9353  125.6293   61.3599 H   0  0  0  0  0  0  0  0  0  0  0  0
  131.1423  125.8604   61.6395 H   0  0  0  0  0  0  0  0  0  0  0  0
  130.4624  122.1755   64.6777 H   0  0  0  0  0  0  0  0  0  0  0  0
  129.0513  123.3783   66.5232 H   0  0  0  0  0  0  0  0  0  0  0  0
  128.4823  129.8145   69.0357 H   0  0  0  0  0  0  0  0  0  0  0  0
  129.3789  129.7271   67.4816 H   0  0  0  0  0  0  0  0  0  0  0  0
  127.5829  129.7631   67.4816 H   0  0  0  0  0  0  0  0  0  0  0  0
  126.5957  127.2069   69.0472 H   0  0  0  0  0  0  0  0  0  0  0  0
  126.3538  128.0739   67.4927 H   0  0  0  0  0  0  0  0  0  0  0  0
  126.9509  126.3798   67.4927 H   0  0  0  0  0  0  0  0  0  0  0  0
  130.7858  128.0607   70.6121 H   0  0  0  0  0  0  0  0  0  0  0  0
  131.4993  127.4342   69.0872 H   0  0  0  0  0  0  0  0  0  0  0  0
  130.6065  128.9930   69.0872 H   0  0  0  0  0  0  0  0  0  0  0  0
  129.2113  127.1752   71.3869 H   0  0  0  0  0  0  0  0  0  0  0  0
  127.6419  127.4684   70.5637 H   0  0  0  0  0  0  0  0  0  0  0  0
  128.3625  125.8230   70.5637 H   0  0  0  0  0  0  0  0  0  0  0  0
  131.2256  121.2076   62.3802 H   0  0  0  0  0  0  0  0  0  0  0  0
  130.3872  120.8794   60.8258 H   0  0  0  0  0  0  0  0  0  0  0  0
  132.1018  121.4149   60.8258 H   0  0  0  0  0  0  0  0  0  0  0  0
  129.8017  123.2375   63.2473 H   0  0  0  0  0  0  0  0  0  0  0  0
  129.1424  124.3568   62.0067 H   0  0  0  0  0  0  0  0  0  0  0  0
  128.6545  122.6280   62.0067 H   0  0  0  0  0  0  0  0  0  0  0  0
  130.9249  122.6785   59.1150 H   0  0  0  0  0  0  0  0  0  0  0  0
  129.2140  122.9238   59.6388 H   0  0  0  0  0  0  0  0  0  0  0  0
  127.7464  121.8692   58.2793 H   0  0  0  0  0  0  0  0  0  0  0  0
  126.7185  122.4271   56.9160 H   0  0  0  0  0  0  0  0  0  0  0  0
  128.4797  122.7804   56.9160 H   0  0  0  0  0  0  0  0  0  0  0  0
  127.6693  124.2432   60.4298 H   0  0  0  0  0  0  0  0  0  0  0  0
  125.9352  124.1525   59.9700 H   0  0  0  0  0  0  0  0  0  0  0  0
  126.9434  122.6658   59.9700 H   0  0  0  0  0  0  0  0  0  0  0  0
  125.4986  125.1901   58.3569 H   0  0  0  0  0  0  0  0  0  0  0  0
  126.5771  125.5594   56.9688 H   0  0  0  0  0  0  0  0  0  0  0  0
  125.5968  124.0543   56.9688 H   0  0  0  0  0  0  0  0  0  0  0  0
  1  2  1  0
  2  3  1  0
  3  4  1  0
  4  5  1  0
  5  6  2  0
  5  7  2  0
  5  8  1  0
  8  9  2  0
  9 10  1  0
 10 11  2  0
 11 12  1  0
 12 13  1  0
 13 14  1  0
 14 15  1  0
 14 16  1  0
 14 17  1  0
 17 18  1  0
 17 19  1  0
 17 20  1  0
 11 21  1  0
  4 22  1  0
 22 23  1  0
 22 24  1  0
 22 25  1  0
 25 26  1  0
 26 27  1  0
 27 28  2  0
 27 29  1  0
 29 30  1  0
 30 31  1  0
 30 32  1  0
 30 33  1  0
 26  2  1  0
 21  8  1  0
 20 12  1  0
  1 34  1  0
  1 35  1  0
  1 36  1  0
  2 37  1  6
  3 38  1  0
  3 39  1  0
  9 40  1  0
 10 41  1  0
 15 42  1  0
 15 43  1  0
 15 44  1  0
 16 45  1  0
 16 46  1  0
 16 47  1  0
 18 48  1  0
 18 49  1  0
 18 50  1  0
 19 51  1  0
 19 52  1  0
 19 53  1  0
 23 54  1  0
 23 55  1  0
 23 56  1  0
 24 57  1  0
 24 58  1  0
 24 59  1  0
 25 60  1  0
 25 61  1  0
 31 62  1  0
 31 63  1  0
 31 64  1  0
 32 65  1  0
 32 66  1  0
 32 67  1  0
 33 68  1  0
 33 69  1  0
 33 70  1  0
M  END
>  <Binding energies>  (1) 
[-7.52]

>  <Ligand effiencies>  (1) 
[-0.22787878787878788]

>  <Interactions>  (1) 
["V-A:ASP:366:CA:3210, V-B:PRO:540:CA:9855, V-A:GLU:543:CA:4904, V-A:GLU:543:C:4902, V-B:GLU:543:CB:9878, V-B:TYR:539:CE2:9848, V-A:TYR:484:CE2:4346, V-B:GLU:543:CG:9879, V-B:TYR:539:C:9839, V-A:ASP:366:CG:3213, V-B:TYR:539:CZ:9849, V-A:TYR:484:CZ:4347, V-B:PRO:540:CB:9857, V-A:GLU:543:CD:4908, V-B:GLU:543:CA:9876, H-A:GLY:454:N:4050, V-B:HIS:456:CE1:9041, V-B:PRO:540:N:9856, V-A:HIS:456:CE1:4070, V-B:TYR:484:CZ:9318, V-B:TYR:539:CD2:9846, V-A:GLU:543:CG:4907, V-B:GLU:543:CD:9880, V-A:ASP:366:CB:3212, V-A:LEU:475:CD2:4259, H-A:ARG:545:NH2:4928, V-A:ARG:545:CZ:4926, V-B:TYR:539:CG:9844, V-A:GLU:543:CB:4906, V-B:TYR:539:CD1:9845, V-B:TYR:539:CE1:9847"]

$$$$
ZINC2282865982
     RDKit          3D

 70 72  0  0  0  0  0  0  0  0999 V2000
  130.5870  125.1050   67.2740 C   0  0  0  0  0  0  0  0  0  0  0  0
  129.7250  126.2250   66.7310 C   0  0  0  0  0  0  0  0  0  0  0  0
  128.8520  127.2480   67.8200 S   0  0  0  0  0  0  0  0  0  0  0  0
  128.1360  128.1780   66.5450 C   0  0  0  0  0  0  0  0  0  0  0  0
  127.1800  129.3000   66.8890 C   0  0  0  0  0  0  0  0  0  0  0  0
  128.5940  127.7210   65.3030 C   0  0  0  0  0  0  0  0  0  0  0  0
  128.1270  128.5230   63.7290 S   0  0  0  0  0  0  0  0  0  0  0  0
  129.1500  128.1660   62.7410 O   0  0  0  0  0  0  0  0  0  0  0  0
  126.7040  128.2720   63.4780 O   0  0  0  0  0  0  0  0  0  0  0  0
  128.3200  130.2190   64.1560 N   0  0  0  0  0  0  0  0  0  0  0  0
  128.1030  131.2980   63.1670 C   0  0  1  0  0  0  0  0  0  0  0  0
  127.8650  132.6920   63.7660 C   0  0  0  0  0  0  0  0  0  0  0  0
  128.3050  133.6900   62.6810 C   0  0  0  0  0  0  0  0  0  0  0  0
  128.8470  132.8560   61.5080 C   0  0  0  0  0  0  0  0  0  0  0  0
  129.1880  131.4770   62.0900 C   0  0  1  0  0  0  0  0  0  0  0  0
  130.5670  131.4760   62.6100 N   0  0  0  0  0  0  0  0  0  0  0  0
  131.7030  131.8510   61.8940 C   0  0  0  0  0  0  0  0  0  0  0  0
  132.8420  131.8200   62.3570 O   0  0  0  0  0  0  0  0  0  0  0  0
  131.3890  132.2230   60.6150 O   0  0  0  0  0  0  0  0  0  0  0  0
  131.6120  131.4360   59.4320 C   0  0  0  0  0  0  0  0  0  0  0  0
  131.1200  129.9800   59.6240 C   0  0  0  0  0  0  0  0  0  0  0  0
  130.9580  132.0870   58.1880 C   0  0  0  0  0  0  0  0  0  0  0  0
  133.1440  131.4450   59.2580 C   0  0  0  0  0  0  0  0  0  0  0  0
  129.4640  126.6060   65.4140 C   0  0  0  0  0  0  0  0  0  0  0  0
  130.1300  125.8350   64.1970 B   0  0  0  0  0  0  0  0  0  0  0  0
  129.6970  124.6130   63.7360 O   0  0  0  0  0  0  0  0  0  0  0  0
  130.2670  124.4120   62.4520 C   0  0  0  0  0  0  0  0  0  0  0  0
  130.4760  122.8910   62.2700 C   0  0  0  0  0  0  0  0  0  0  0  0
  129.2240  124.9410   61.4330 C   0  0  0  0  0  0  0  0  0  0  0  0
  131.5860  125.2540   62.5660 C   0  0  0  0  0  0  0  0  0  0  0  0
  132.7760  124.5350   63.2550 C   0  0  0  0  0  0  0  0  0  0  0  0
  132.0550  125.9190   61.2530 C   0  0  0  0  0  0  0  0  0  0  0  0
  131.1860  126.2940   63.4460 O   0  0  0  0  0  0  0  0  0  0  0  0
  130.5689  125.1285   68.3736 H   0  0  0  0  0  0  0  0  0  0  0  0
  130.1974  124.1386   66.9215 H   0  0  0  0  0  0  0  0  0  0  0  0
  131.6209  125.2342   66.9215 H   0  0  0  0  0  0  0  0  0  0  0  0
  127.1013  129.3924   67.9823 H   0  0  0  0  0  0  0  0  0  0  0  0
  127.5556  130.2440   66.4674 H   0  0  0  0  0  0  0  0  0  0  0  0
  126.1883  129.0790   66.4674 H   0  0  0  0  0  0  0  0  0  0  0  0
  128.2580  130.4730   65.1460 H   0  0  0  0  0  0  0  0  0  0  0  0
  127.1877  130.9107   62.6957 H   0  0  0  0  0  0  0  0  0  0  0  0
  126.8003  132.8302   64.0056 H   0  0  0  0  0  0  0  0  0  0  0  0
  128.4265  132.8341   64.7011 H   0  0  0  0  0  0  0  0  0  0  0  0
  127.4472  134.2949   62.3518 H   0  0  0  0  0  0  0  0  0  0  0  0
  129.0718  134.3792   63.0645 H   0  0  0  0  0  0  0  0  0  0  0  0
  128.0834  132.7607   60.7220 H   0  0  0  0  0  0  0  0  0  0  0  0
  129.7286  133.3293   61.0511 H   0  0  0  0  0  0  0  0  0  0  0  0
  129.1788  130.6438   61.3719 H   0  0  0  0  0  0  0  0  0  0  0  0
  130.6980  131.1690   63.5640 H   0  0  0  0  0  0  0  0  0  0  0  0
  131.0447  129.7571   60.6985 H   0  0  0  0  0  0  0  0  0  0  0  0
  130.1321  129.8619   59.1549 H   0  0  0  0  0  0  0  0  0  0  0  0
  131.8338  129.2869   59.1549 H   0  0  0  0  0  0  0  0  0  0  0  0
  130.2128  132.8287   58.5114 H   0  0  0  0  0  0  0  0  0  0  0  0
  131.7320  132.5838   57.5846 H   0  0  0  0  0  0  0  0  0  0  0  0
  130.4647  131.3108   57.5846 H   0  0  0  0  0  0  0  0  0  0  0  0
  133.6253  131.4478   60.2471 H   0  0  0  0  0  0  0  0  0  0  0  0
  133.4551  130.5487   58.7014 H   0  0  0  0  0  0  0  0  0  0  0  0
  133.4445  132.3449   58.7014 H   0  0  0  0  0  0  0  0  0  0  0  0
  130.5422  122.4093   63.2567 H   0  0  0  0  0  0  0  0  0  0  0  0
  129.6275  122.4685   61.7119 H   0  0  0  0  0  0  0  0  0  0  0  0
  131.4070  122.7130   61.7119 H   0  0  0  0  0  0  0  0  0  0  0  0
  128.3698  125.3742   61.9740 H   0  0  0  0  0  0  0  0  0  0  0  0
  129.6875  125.7130   60.8012 H   0  0  0  0  0  0  0  0  0  0  0  0
  128.8750  124.1110   60.8012 H   0  0  0  0  0  0  0  0  0  0  0  0
  132.6631  124.6032   64.3471 H   0  0  0  0  0  0  0  0  0  0  0  0
  132.7898  123.4773   62.9532 H   0  0  0  0  0  0  0  0  0  0  0  0
  133.7187  125.0148   62.9532 H   0  0  0  0  0  0  0  0  0  0  0  0
  132.6744  126.7972   61.4877 H   0  0  0  0  0  0  0  0  0  0  0  0
  132.6463  125.1990   60.6682 H   0  0  0  0  0  0  0  0  0  0  0  0
  131.1783  126.2343   60.6682 H   0  0  0  0  0  0  0  0  0  0  0  0
  1  2  1  0
  2  3  1  0
  3  4  1  0
  4  5  1  0
  4  6  2  0
  6  7  1  0
  7  8  2  0
  7  9  2  0
  7 10  1  0
 10 11  1  0
 11 12  1  0
 12 13  1  0
 13 14  1  0
 14 15  1  0
 15 16  1  0
 16 17  1  0
 17 18  2  0
 17 19  1  0
 19 20  1  0
 20 21  1  0
 20 22  1  0
 20 23  1  0
  6 24  1  0
 24 25  1  0
 25 26  1  0
 26 27  1  0
 27 28  1  0
 27 29  1  0
 27 30  1  0
 30 31  1  0
 30 32  1  0
 30 33  1  0
 24  2  2  0
 33 25  1  0
 15 11  1  0
  1 34  1  0
  1 35  1  0
  1 36  1  0
  5 37  1  0
  5 38  1  0
  5 39  1  0
 10 40  1  0
 11 41  1  6
 12 42  1  0
 12 43  1  0
 13 44  1  0
 13 45  1  0
 14 46  1  0
 14 47  1  0
 15 48  1  6
 16 49  1  0
 21 50  1  0
 21 51  1  0
 21 52  1  0
 22 53  1  0
 22 54  1  0
 22 55  1  0
 23 56  1  0
 23 57  1  0
 23 58  1  0
 28 59  1  0
 28 60  1  0
 28 61  1  0
 29 62  1  0
 29 63  1  0
 29 64  1  0
 31 65  1  0
 31 66  1  0
 31 67  1  0
 32 68  1  0
 32 69  1  0
 32 70  1  0
M  END
>  <Binding energies>  (1) 
[-7.55]

>  <Ligand effiencies>  (1) 
[-0.21571428571428572]

>  <Interactions>  (1) 
["H-A:ALA:541:N:4891, V-B:GLU:543:CB:9878, V-A:PRO:540:C:4881, V-A:TYR:484:CE2:4346, V-B:GLU:543:CG:9879, V-B:LEU:475:CD2:9230, V-A:ASP:366:CG:3213, V-A:LEU:363:CD1:3189, V-A:ALA:541:CB:4892, V-A:GLU:543:CD:4908, V-A:TYR:484:CZ:4347, H-B:TYR:484:OH:9319, V-B:HIS:456:CE1:9041, V-A:HIS:456:CE1:4070, V-B:TYR:484:CZ:9318, V-A:ALA:541:CA:4890, V-A:GLU:543:CG:4907, V-B:GLU:543:CD:9880, H-A:ARG:545:NH2:4928, H-A:GLU:543:OE1:4909, H-B:ARG:545:NH2:9900, V-A:PRO:540:N:4884, V-A:PRO:540:CB:4885, V-A:PRO:540:CA:4883, V-A:LEU:363:CA:3185"]

$$$$
ZINC2282869506
     RDKit          3D

 70 72  0  0  0  0  0  0  0  0999 V2000
  129.2390  122.1660   60.9210 C   0  0  0  0  0  0  0  0  0  0  0  0
  130.2630  123.0840   60.2890 C   0  0  0  0  0  0  0  0  0  0  0  0
  131.9370  122.9230   60.6930 S   0  0  0  0  0  0  0  0  0  0  0  0
  132.4200  124.2450   59.6810 C   0  0  0  0  0  0  0  0  0  0  0  0
  133.8850  124.6250   59.6140 C   0  0  0  0  0  0  0  0  0  0  0  0
  131.3020  124.7920   59.0350 C   0  0  0  0  0  0  0  0  0  0  0  0
  131.4170  126.1840   57.8510 S   0  0  0  0  0  0  0  0  0  0  0  0
  132.8270  126.5630   57.7160 O   0  0  0  0  0  0  0  0  0  0  0  0
  130.6150  125.8270   56.6760 O   0  0  0  0  0  0  0  0  0  0  0  0
  130.5850  127.4620   58.7370 N   0  0  0  0  0  0  0  0  0  0  0  0
  131.3660  128.6230   59.2020 C   0  0  0  0  0  0  0  0  0  0  0  0
  131.8240  129.5010   58.0210 C   0  0  1  0  0  0  0  0  0  0  0  0
  130.8340  130.4080   57.3110 C   0  0  0  0  0  0  0  0  0  0  0  0
  131.9530  131.0070   58.1330 C   0  0  1  0  0  0  0  0  0  0  0  0
  131.5860  131.7900   59.4080 C   0  0  0  0  0  0  0  0  0  0  0  0
  132.3300  131.3330   60.5820 N   0  0  0  0  0  0  0  0  0  0  0  0
  132.0800  131.7490   61.8880 C   0  0  0  0  0  0  0  0  0  0  0  0
  132.7590  131.4040   62.8530 O   0  0  0  0  0  0  0  0  0  0  0  0
  130.9900  132.5760   61.9550 O   0  0  0  0  0  0  0  0  0  0  0  0
  129.6550  132.1750   62.3150 C   0  0  0  0  0  0  0  0  0  0  0  0
  129.4410  132.2120   63.8480 C   0  0  0  0  0  0  0  0  0  0  0  0
  128.5980  133.0400   61.5860 C   0  0  0  0  0  0  0  0  0  0  0  0
  129.5530  130.7160   61.8250 C   0  0  0  0  0  0  0  0  0  0  0  0
  130.0950  124.1450   59.3980 C   0  0  0  0  0  0  0  0  0  0  0  0
  128.6480  124.5640   58.9050 B   0  0  0  0  0  0  0  0  0  0  0  0
  128.2070  125.8570   58.7560 O   0  0  0  0  0  0  0  0  0  0  0  0
  126.9350  125.8130   58.1300 C   0  0  0  0  0  0  0  0  0  0  0  0
  126.1100  127.0000   58.6750 C   0  0  0  0  0  0  0  0  0  0  0  0
  127.1970  125.9890   56.6100 C   0  0  0  0  0  0  0  0  0  0  0  0
  126.4270  124.3950   58.5660 C   0  0  0  0  0  0  0  0  0  0  0  0
  125.8240  124.3140   59.9950 C   0  0  0  0  0  0  0  0  0  0  0  0
  125.4990  123.6920   57.5500 C   0  0  0  0  0  0  0  0  0  0  0  0
  127.6440  123.6680   58.6120 O   0  0  0  0  0  0  0  0  0  0  0  0
  129.3134  122.2327   62.0165 H   0  0  0  0  0  0  0  0  0  0  0  0
  128.2302  122.4678   60.6029 H   0  0  0  0  0  0  0  0  0  0  0  0
  129.4292  121.1303   60.6029 H   0  0  0  0  0  0  0  0  0  0  0  0
  134.2840  124.7285   60.6339 H   0  0  0  0  0  0  0  0  0  0  0  0
  134.4429  123.8418   59.0797 H   0  0  0  0  0  0  0  0  0  0  0  0
  133.9919  125.5806   59.0797 H   0  0  0  0  0  0  0  0  0  0  0  0
  129.8650  127.1370   59.3870 H   0  0  0  0  0  0  0  0  0  0  0  0
  130.7418  129.2274   59.8766 H   0  0  0  0  0  0  0  0  0  0  0  0
  132.2597  128.2523   59.7253 H   0  0  0  0  0  0  0  0  0  0  0  0
  132.5084  128.6920   57.7257 H   0  0  0  0  0  0  0  0  0  0  0  0
  130.8523  130.4904   56.2142 H   0  0  0  0  0  0  0  0  0  0  0  0
  129.7384  130.5061   57.3001 H   0  0  0  0  0  0  0  0  0  0  0  0
  132.7902  131.7010   57.9676 H   0  0  0  0  0  0  0  0  0  0  0  0
  131.8069  132.8549   59.2434 H   0  0  0  0  0  0  0  0  0  0  0  0
  130.5167  131.6235   59.6053 H   0  0  0  0  0  0  0  0  0  0  0  0
  133.1100  130.7120   60.4270 H   0  0  0  0  0  0  0  0  0  0  0  0
  130.4021  132.0458   64.3565 H   0  0  0  0  0  0  0  0  0  0  0  0
  129.0374  133.1932   64.1383 H   0  0  0  0  0  0  0  0  0  0  0  0
  128.7314  131.4232   64.1383 H   0  0  0  0  0  0  0  0  0  0  0  0
  127.9697  133.5541   62.3283 H   0  0  0  0  0  0  0  0  0  0  0  0
  129.1054  133.7853   60.9559 H   0  0  0  0  0  0  0  0  0  0  0  0
  127.9678  132.3952   60.9559 H   0  0  0  0  0  0  0  0  0  0  0  0
  129.5058  130.0405   62.6919 H   0  0  0  0  0  0  0  0  0  0  0  0
  128.6443  130.5961   61.2168 H   0  0  0  0  0  0  0  0  0  0  0  0
  130.4362  130.4709   61.2168 H   0  0  0  0  0  0  0  0  0  0  0  0
  126.1230  126.9813   59.7748 H   0  0  0  0  0  0  0  0  0  0  0  0
  126.5473  127.9445   58.3191 H   0  0  0  0  0  0  0  0  0  0  0  0
  125.0723  126.9194   58.3191 H   0  0  0  0  0  0  0  0  0  0  0  0
  128.1018  126.5968   56.4618 H   0  0  0  0  0  0  0  0  0  0  0  0
  127.3383  125.0019   56.1456 H   0  0  0  0  0  0  0  0  0  0  0  0
  126.3366  126.4930   56.1456 H   0  0  0  0  0  0  0  0  0  0  0  0
  126.6274  124.4219   60.7386 H   0  0  0  0  0  0  0  0  0  0  0  0
  125.0892  125.1215   60.1292 H   0  0  0  0  0  0  0  0  0  0  0  0
  125.3284  123.3412   60.1292 H   0  0  0  0  0  0  0  0  0  0  0  0
  124.7352  123.1134   58.0903 H   0  0  0  0  0  0  0  0  0  0  0  0
  125.0082  124.4470   56.9182 H   0  0  0  0  0  0  0  0  0  0  0  0
  126.0929  123.0151   56.9182 H   0  0  0  0  0  0  0  0  0  0  0  0
  1  2  1  0
  2  3  1  0
  3  4  1  0
  4  5  1  0
  4  6  2  0
  6  7  1  0
  7  8  2  0
  7  9  2  0
  7 10  1  0
 10 11  1  0
 11 12  1  0
 12 13  1  0
 13 14  1  0
 14 15  1  0
 15 16  1  0
 16 17  1  0
 17 18  2  0
 17 19  1  0
 19 20  1  0
 20 21  1  0
 20 22  1  0
 20 23  1  0
  6 24  1  0
 24 25  1  0
 25 26  1  0
 26 27  1  0
 27 28  1  0
 27 29  1  0
 27 30  1  0
 30 31  1  0
 30 32  1  0
 30 33  1  0
 24  2  2  0
 33 25  1  0
 14 12  1  0
  1 34  1  0
  1 35  1  0
  1 36  1  0
  5 37  1  0
  5 38  1  0
  5 39  1  0
 10 40  1  0
 11 41  1  0
 11 42  1  0
 12 43  1  6
 13 44  1  0
 13 45  1  0
 14 46  1  6
 15 47  1  0
 15 48  1  0
 16 49  1  0
 21 50  1  0
 21 51  1  0
 21 52  1  0
 22 53  1  0
 22 54  1  0
 22 55  1  0
 23 56  1  0
 23 57  1  0
 23 58  1  0
 28 59  1  0
 28 60  1  0
 28 61  1  0
 29 62  1  0
 29 63  1  0
 29 64  1  0
 31 65  1  0
 31 66  1  0
 31 67  1  0
 32 68  1  0
 32 69  1  0
 32 70  1  0
M  END
>  <Binding energies>  (1) 
[-7.68]

>  <Ligand effiencies>  (1) 
[-0.21942857142857142]

>  <Interactions>  (1) 
["V-A:ILE:369:CG2:3237, V-A:ASP:366:CA:3210, V-B:PRO:540:CA:9855, V-A:ILE:369:CB:3236, H-A:ALA:541:N:4891, V-B:ASP:366:CG:8184, H-A:TYR:531:OH:4795, V-B:TYR:539:CE2:9848, V-A:ASP:366:CG:3213, V-A:LEU:363:CD1:3189, V-B:TYR:539:CZ:9849, V-B:TYR:531:CZ:9766, H-B:TYR:539:OH:9850, V-A:ALA:541:CB:4892, V-B:ASP:366:CB:8183, V-B:PRO:540:CB:9857, V-A:GLU:543:CD:4908, V-A:ILE:369:CD1:3239, V-A:ALA:541:CA:4890, V-B:TYR:539:CD2:9846, V-A:TYR:531:CZ:4794, V-A:GLU:543:CG:4907, V-A:ASP:366:CB:3212, H-A:ARG:545:NH2:4928, V-B:LEU:363:CD1:8160, V-A:PRO:540:CB:4885, V-A:PRO:540:CA:4883, H-A:ASP:366:OD2:3215"]

$$$$
ZINC2282883445
     RDKit          3D

 70 72  0  0  0  0  0  0  0  0999 V2000
  132.4190  125.3460   59.8390 C   0  0  0  0  0  0  0  0  0  0  0  0
  132.4220  123.8170   60.0590 C   0  0  2  0  0  0  0  0  0  0  0  0
  131.0730  123.2810   60.6020 C   0  0  0  0  0  0  0  0  0  0  0  0
  131.0020  121.7610   60.9430 C   0  0  2  0  0  0  0  0  0  0  0  0
  129.8470  121.3430   61.8770 C   0  0  0  0  0  0  0  0  0  0  0  0
  128.5110  121.4840   61.2570 N   0  0  0  0  0  0  0  0  0  0  0  0
  127.7030  123.0520   61.2950 S   0  0  0  0  0  0  0  0  0  0  0  0
  126.2870  122.8530   61.6190 O   0  0  0  0  0  0  0  0  0  0  0  0
  128.5360  123.9880   62.0600 O   0  0  0  0  0  0  0  0  0  0  0  0
  127.8000  123.5460   59.5470 C   0  0  0  0  0  0  0  0  0  0  0  0
  127.5020  122.6620   58.5140 C   0  0  0  0  0  0  0  0  0  0  0  0
  127.6750  123.3620   56.9410 S   0  0  0  0  0  0  0  0  0  0  0  0
  128.1630  124.8580   57.6560 C   0  0  0  0  0  0  0  0  0  0  0  0
  128.1650  124.8210   59.0470 C   0  0  0  0  0  0  0  0  0  0  0  0
  128.5140  126.1110   59.8910 B   0  0  0  0  0  0  0  0  0  0  0  0
  129.7450  126.7260   59.8680 O   0  0  0  0  0  0  0  0  0  0  0  0
  129.6070  127.9870   60.5060 C   0  0  0  0  0  0  0  0  0  0  0  0
  130.9460  128.3020   61.2110 C   0  0  0  0  0  0  0  0  0  0  0  0
  129.3350  129.0150   59.3760 C   0  0  0  0  0  0  0  0  0  0  0  0
  128.3990  127.7160   61.4700 C   0  0  0  0  0  0  0  0  0  0  0  0
  128.7520  126.9940   62.7980 C   0  0  0  0  0  0  0  0  0  0  0  0
  127.4930  128.9370   61.7440 C   0  0  0  0  0  0  0  0  0  0  0  0
  127.6420  126.7900   60.7080 O   0  0  0  0  0  0  0  0  0  0  0  0
  132.3550  121.0820   61.2930 C   0  0  0  0  0  0  0  0  0  0  0  0
  133.6110  121.7430   60.6800 C   0  0  0  0  0  0  0  0  0  0  0  0
  133.4710  123.1940   60.8920 N   0  0  0  0  0  0  0  0  0  0  0  0
  133.9520  123.8010   62.0740 C   0  0  0  0  0  0  0  0  0  0  0  0
  134.9460  124.5260   62.1550 O   0  0  0  0  0  0  0  0  0  0  0  0
  133.1650  123.4860   63.1540 O   0  0  0  0  0  0  0  0  0  0  0  0
  132.3680  124.4140   63.9120 C   0  0  0  0  0  0  0  0  0  0  0  0
  133.1820  125.0460   65.0690 C   0  0  0  0  0  0  0  0  0  0  0  0
  131.7560  125.5060   62.9990 C   0  0  0  0  0  0  0  0  0  0  0  0
  131.2350  123.5480   64.4990 C   0  0  0  0  0  0  0  0  0  0  0  0
  132.4180  125.8566   60.8133 H   0  0  0  0  0  0  0  0  0  0  0  0
  133.3166  125.6368   59.2735 H   0  0  0  0  0  0  0  0  0  0  0  0
  131.5203  125.6333   59.2735 H   0  0  0  0  0  0  0  0  0  0  0  0
  132.6399  123.5187   59.0229 H   0  0  0  0  0  0  0  0  0  0  0  0
  130.8399  123.8387   61.5210 H   0  0  0  0  0  0  0  0  0  0  0  0
  130.3566  123.4234   59.7795 H   0  0  0  0  0  0  0  0  0  0  0  0
  130.7338  121.3345   59.9651 H   0  0  0  0  0  0  0  0  0  0  0  0
  129.9909  120.2898   62.1600 H   0  0  0  0  0  0  0  0  0  0  0  0
  129.8738  122.0144   62.7480 H   0  0  0  0  0  0  0  0  0  0  0  0
  128.3510  120.9250   60.4140 H   0  0  0  0  0  0  0  0  0  0  0  0
  127.1876  121.6212   58.6811 H   0  0  0  0  0  0  0  0  0  0  0  0
  128.4430  125.7471   57.0720 H   0  0  0  0  0  0  0  0  0  0  0  0
  130.8032  128.2684   62.3012 H   0  0  0  0  0  0  0  0  0  0  0  0
  131.6995  127.5566   60.9168 H   0  0  0  0  0  0  0  0  0  0  0  0
  131.2882  129.3052   60.9168 H   0  0  0  0  0  0  0  0  0  0  0  0
  129.0775  129.9881   59.8197 H   0  0  0  0  0  0  0  0  0  0  0  0
  130.2356  129.1226   58.7536 H   0  0  0  0  0  0  0  0  0  0  0  0
  128.4991  128.6631   58.7536 H   0  0  0  0  0  0  0  0  0  0  0  0
  128.4457  127.6205   63.6486 H   0  0  0  0  0  0  0  0  0  0  0  0
  128.2234  126.0304   62.8432 H   0  0  0  0  0  0  0  0  0  0  0  0
  129.8371  126.8194   62.8432 H   0  0  0  0  0  0  0  0  0  0  0  0
  127.3876  129.0791   62.8297 H   0  0  0  0  0  0  0  0  0  0  0  0
  127.9444  129.8358   61.2987 H   0  0  0  0  0  0  0  0  0  0  0  0
  126.5019  128.7655   61.2987 H   0  0  0  0  0  0  0  0  0  0  0  0
  132.4664  121.0931   62.3873 H   0  0  0  0  0  0  0  0  0  0  0  0
  132.3055  120.0712   60.8619 H   0  0  0  0  0  0  0  0  0  0  0  0
  134.5174  121.3723   61.1810 H   0  0  0  0  0  0  0  0  0  0  0  0
  133.7007  121.5061   59.6096 H   0  0  0  0  0  0  0  0  0  0  0  0
  132.7629  124.7206   66.0326 H   0  0  0  0  0  0  0  0  0  0  0  0
  134.2313  124.7236   64.9979 H   0  0  0  0  0  0  0  0  0  0  0  0
  133.1297  126.1425   64.9979 H   0  0  0  0  0  0  0  0  0  0  0  0
  131.3124  126.2975   63.6208 H   0  0  0  0  0  0  0  0  0  0  0  0
  132.5440  125.9370   62.3640 H   0  0  0  0  0  0  0  0  0  0  0  0
  130.9771  125.0588   62.3640 H   0  0  0  0  0  0  0  0  0  0  0  0
  131.2792  123.5818   65.5976 H   0  0  0  0  0  0  0  0  0  0  0  0
  130.2634  123.9358   64.1591 H   0  0  0  0  0  0  0  0  0  0  0  0
  131.3542  122.5087   64.1591 H   0  0  0  0  0  0  0  0  0  0  0  0
  1  2  1  0
  2  3  1  0
  3  4  1  0
  4  5  1  0
  5  6  1  0
  6  7  1  0
  7  8  2  0
  7  9  2  0
  7 10  1  0
 10 11  2  0
 11 12  1  0
 12 13  1  0
 13 14  2  0
 14 15  1  0
 15 16  1  0
 16 17  1  0
 17 18  1  0
 17 19  1  0
 17 20  1  0
 20 21  1  0
 20 22  1  0
 20 23  1  0
  4 24  1  0
 24 25  1  0
 25 26  1  0
 26 27  1  0
 27 28  2  0
 27 29  1  0
 29 30  1  0
 30 31  1  0
 30 32  1  0
 30 33  1  0
 26  2  1  0
 14 10  1  0
 23 15  1  0
  1 34  1  0
  1 35  1  0
  1 36  1  0
  2 37  1  6
  3 38  1  0
  3 39  1  0
  4 40  1  6
  5 41  1  0
  5 42  1  0
  6 43  1  0
 11 44  1  0
 13 45  1  0
 18 46  1  0
 18 47  1  0
 18 48  1  0
 19 49  1  0
 19 50  1  0
 19 51  1  0
 21 52  1  0
 21 53  1  0
 21 54  1  0
 22 55  1  0
 22 56  1  0
 22 57  1  0
 24 58  1  0
 24 59  1  0
 25 60  1  0
 25 61  1  0
 31 62  1  0
 31 63  1  0
 31 64  1  0
 32 65  1  0
 32 66  1  0
 32 67  1  0
 33 68  1  0
 33 69  1  0
 33 70  1  0
M  END
>  <Binding energies>  (1) 
[-6.92]

>  <Ligand effiencies>  (1) 
[-0.20352941176470588]

>  <Interactions>  (1) 
["V-A:ILE:369:CG2:3237, V-B:PRO:540:CA:9855, V-B:ALA:541:CB:9864, V-B:TYR:539:CE2:9848, V-A:TYR:484:CE2:4346, V-B:TYR:539:C:9839, V-A:ASP:366:CG:3213, V-B:TYR:539:CZ:9849, H-B:ALA:541:N:9863, V-A:TYR:484:CZ:4347, V-B:PRO:540:CB:9857, H-A:GLY:454:N:4050, V-B:PRO:540:N:9856, V-A:ILE:369:CD1:3239, V-B:TYR:539:CD2:9846, V-B:GLU:543:CD:9880, V-A:ASP:366:CB:3212, V-A:ARG:545:CD:4923, V-A:LEU:475:CD2:4259, V-A:ARG:545:CZ:4926, H-B:TYR:539:O:9840, V-B:TYR:539:CE1:9847"]

$$$$
ZINC2287640306
     RDKit          3D

 86 88  0  0  0  0  0  0  0  0999 V2000
  128.7650  133.0500   62.9110 C   0  0  0  0  0  0  0  0  0  0  0  0
  128.5000  131.5830   63.1840 C   0  0  0  0  0  0  0  0  0  0  0  0
  127.8790  131.2490   64.2880 N   0  0  0  0  0  0  0  0  0  0  0  0
  127.8110  129.9150   64.2820 N   0  0  0  0  0  0  0  0  0  0  0  0
  127.1950  129.2610   65.4340 C   0  0  0  0  0  0  0  0  0  0  0  0
  128.3570  129.3460   63.1460 C   0  0  0  0  0  0  0  0  0  0  0  0
  128.4750  127.9180   62.9180 C   0  0  0  0  0  0  0  0  0  0  0  0
  127.7070  127.3130   62.1700 O   0  0  0  0  0  0  0  0  0  0  0  0
  129.4960  127.3420   63.5750 N   0  0  0  0  0  0  0  0  0  0  0  0
  129.8670  125.9250   63.6230 C   0  0  0  0  0  0  0  0  0  0  0  0
  131.2800  125.6420   63.0360 C   0  0  0  0  0  0  0  0  0  0  0  0
  132.2650  124.9930   63.9210 N   0  0  0  0  0  0  0  0  0  0  0  0
  132.9180  123.7800   63.6400 C   0  0  0  0  0  0  0  0  0  0  0  0
  132.7790  122.7410   64.2910 O   0  0  0  0  0  0  0  0  0  0  0  0
  133.7400  123.8800   62.5450 O   0  0  0  0  0  0  0  0  0  0  0  0
  133.4750  123.2950   61.2540 C   0  0  0  0  0  0  0  0  0  0  0  0
  131.9570  123.2770   60.9430 C   0  0  0  0  0  0  0  0  0  0  0  0
  134.2660  124.0160   60.1330 C   0  0  0  0  0  0  0  0  0  0  0  0
  133.9780  121.8420   61.3630 C   0  0  0  0  0  0  0  0  0  0  0  0
  132.5240  125.6530   65.2110 C   0  0  0  0  0  0  0  0  0  0  0  0
  131.5590  125.3010   66.3550 C   0  0  0  0  0  0  0  0  0  0  0  0
  130.1770  125.7650   66.1570 N   0  0  0  0  0  0  0  0  0  0  0  0
  129.5020  126.6060   67.0550 C   0  0  0  0  0  0  0  0  0  0  0  0
  128.4000  127.1180   66.8510 O   0  0  0  0  0  0  0  0  0  0  0  0
  130.2170  126.7760   68.2130 O   0  0  0  0  0  0  0  0  0  0  0  0
  129.8320  127.6080   69.3240 C   0  0  0  0  0  0  0  0  0  0  0  0
  129.0910  128.8800   68.8450 C   0  0  0  0  0  0  0  0  0  0  0  0
  128.9810  126.8210   70.3510 C   0  0  0  0  0  0  0  0  0  0  0  0
  131.1700  128.0100   69.9760 C   0  0  0  0  0  0  0  0  0  0  0  0
  129.4820  125.2560   64.9720 C   0  0  0  0  0  0  0  0  0  0  0  0
  128.8610  130.4510   62.4300 C   0  0  0  0  0  0  0  0  0  0  0  0
  129.6800  130.4840   61.0730 B   0  0  0  0  0  0  0  0  0  0  0  0
  130.0720  131.6410   60.4400 O   0  0  0  0  0  0  0  0  0  0  0  0
  131.0100  131.2830   59.4360 C   0  0  0  0  0  0  0  0  0  0  0  0
  130.8580  132.2850   58.2710 C   0  0  0  0  0  0  0  0  0  0  0  0
  132.4120  131.4200   60.0890 C   0  0  0  0  0  0  0  0  0  0  0  0
  130.5620  129.8160   59.1070 C   0  0  0  0  0  0  0  0  0  0  0  0
  129.3440  129.6860   58.1530 C   0  0  0  0  0  0  0  0  0  0  0  0
  131.6970  128.8650   58.6650 C   0  0  0  0  0  0  0  0  0  0  0  0
  130.1150  129.3790   60.3790 O   0  0  0  0  0  0  0  0  0  0  0  0
  128.8623  133.5888   63.8651 H   0  0  0  0  0  0  0  0  0  0  0  0
  129.6964  133.1533   62.3349 H   0  0  0  0  0  0  0  0  0  0  0  0
  127.9287  133.4727   62.3349 H   0  0  0  0  0  0  0  0  0  0  0  0
  127.6011  129.6922   66.3609 H   0  0  0  0  0  0  0  0  0  0  0  0
  126.1062  129.4150   65.4042 H   0  0  0  0  0  0  0  0  0  0  0  0
  127.4138  128.1834   65.4042 H   0  0  0  0  0  0  0  0  0  0  0  0
  130.0770  127.9500   64.1330 H   0  0  0  0  0  0  0  0  0  0  0  0
  129.2343  125.3741   62.9115 H   0  0  0  0  0  0  0  0  0  0  0  0
  131.1484  124.9936   62.1572 H   0  0  0  0  0  0  0  0  0  0  0  0
  131.7019  126.6361   62.8267 H   0  0  0  0  0  0  0  0  0  0  0  0
  131.3897  123.2703   61.8854 H   0  0  0  0  0  0  0  0  0  0  0  0
  131.6912  124.1721   60.3614 H   0  0  0  0  0  0  0  0  0  0  0  0
  131.7125  122.3759   60.3614 H   0  0  0  0  0  0  0  0  0  0  0  0
  135.0075  124.6919   60.5840 H   0  0  0  0  0  0  0  0  0  0  0  0
  134.7810  123.2701   59.5097 H   0  0  0  0  0  0  0  0  0  0  0  0
  133.5709  124.5977   59.5097 H   0  0  0  0  0  0  0  0  0  0  0  0
  134.0737  121.5657   62.4234 H   0  0  0  0  0  0  0  0  0  0  0  0
  133.2609  121.1679   60.8717 H   0  0  0  0  0  0  0  0  0  0  0  0
  134.9584  121.7555   60.8717 H   0  0  0  0  0  0  0  0  0  0  0  0
  133.5399  125.3784   65.5314 H   0  0  0  0  0  0  0  0  0  0  0  0
  132.3849  126.7285   65.0266 H   0  0  0  0  0  0  0  0  0  0  0  0
  131.5409  124.2065   66.4637 H   0  0  0  0  0  0  0  0  0  0  0  0
  131.9356  125.8181   67.2499 H   0  0  0  0  0  0  0  0  0  0  0  0
  128.7540  129.4586   69.7177 H   0  0  0  0  0  0  0  0  0  0  0  0
  129.7723  129.4947   68.2384 H   0  0  0  0  0  0  0  0  0  0  0  0
  128.2202  128.5905   68.2384 H   0  0  0  0  0  0  0  0  0  0  0  0
  129.2844  127.1016   71.3704 H   0  0  0  0  0  0  0  0  0  0  0  0
  127.9172  127.0606   70.2060 H   0  0  0  0  0  0  0  0  0  0  0  0
  129.1368  125.7418   70.2060 H   0  0  0  0  0  0  0  0  0  0  0  0
  131.0682  127.9794   71.0708 H   0  0  0  0  0  0  0  0  0  0  0  0
  131.9567  127.3085   69.6612 H   0  0  0  0  0  0  0  0  0  0  0  0
  131.4398  129.0289   69.6612 H   0  0  0  0  0  0  0  0  0  0  0  0
  129.6987  124.1807   64.8895 H   0  0  0  0  0  0  0  0  0  0  0  0
  128.4178  125.4872   65.1273 H   0  0  0  0  0  0  0  0  0  0  0  0
  130.7046  133.2965   58.6750 H   0  0  0  0  0  0  0  0  0  0  0  0
  131.7686  132.2708   57.6540 H   0  0  0  0  0  0  0  0  0  0  0  0
  129.9926  132.0014   57.6540 H   0  0  0  0  0  0  0  0  0  0  0  0
  132.3090  131.4099   61.1841 H   0  0  0  0  0  0  0  0  0  0  0  0
  133.0475  130.5797   59.7728 H   0  0  0  0  0  0  0  0  0  0  0  0
  132.8728  132.3674   59.7728 H   0  0  0  0  0  0  0  0  0  0  0  0
  128.4227  129.5877   58.7459 H   0  0  0  0  0  0  0  0  0  0  0  0
  129.2779  130.5822   57.5186 H   0  0  0  0  0  0  0  0  0  0  0  0
  129.4685  128.7960   57.5186 H   0  0  0  0  0  0  0  0  0  0  0  0
  132.1937  128.4488   59.5539 H   0  0  0  0  0  0  0  0  0  0  0  0
  131.2758  128.0462   58.0632 H   0  0  0  0  0  0  0  0  0  0  0  0
  132.4295  129.4230   58.0632 H   0  0  0  0  0  0  0  0  0  0  0  0
  1  2  1  0
  2  3  2  0
  3  4  1  0
  4  5  1  0
  4  6  1  0
  6  7  1  0
  7  8  2  0
  7  9  1  0
  9 10  1  0
 10 11  1  0
 11 12  1  0
 12 13  1  0
 13 14  2  0
 13 15  1  0
 15 16  1  0
 16 17  1  0
 16 18  1  0
 16 19  1  0
 12 20  1  0
 20 21  1  0
 21 22  1  0
 22 23  1  0
 23 24  2  0
 23 25  1  0
 25 26  1  0
 26 27  1  0
 26 28  1  0
 26 29  1  0
 22 30  1  0
  6 31  2  0
 31 32  1  0
 32 33  1  0
 33 34  1  0
 34 35  1  0
 34 36  1  0
 34 37  1  0
 37 38  1  0
 37 39  1  0
 37 40  1  0
 31  2  1  0
 40 32  1  0
 30 10  1  0
  1 41  1  0
  1 42  1  0
  1 43  1  0
  5 44  1  0
  5 45  1  0
  5 46  1  0
  9 47  1  0
 10 48  1  0
 11 49  1  0
 11 50  1  0
 17 51  1  0
 17 52  1  0
 17 53  1  0
 18 54  1  0
 18 55  1  0
 18 56  1  0
 19 57  1  0
 19 58  1  0
 19 59  1  0
 20 60  1  0
 20 61  1  0
 21 62  1  0
 21 63  1  0
 27 64  1  0
 27 65  1  0
 27 66  1  0
 28 67  1  0
 28 68  1  0
 28 69  1  0
 29 70  1  0
 29 71  1  0
 29 72  1  0
 30 73  1  0
 30 74  1  0
 35 75  1  0
 35 76  1  0
 35 77  1  0
 36 78  1  0
 36 79  1  0
 36 80  1  0
 38 81  1  0
 38 82  1  0
 38 83  1  0
 39 84  1  0
 39 85  1  0
 39 86  1  0
M  END
>  <Binding energies>  (1) 
[-5.75]

>  <Ligand effiencies>  (1) 
[-0.13372093023255813]

>  <Interactions>  (1) 
["V-A:ILE:369:CG2:3237, V-A:ASP:366:CA:3210, V-A:GLU:543:CA:4904, V-A:GLY:454:CA:4049, H-A:GLU:543:OE2:4910, V-A:ILE:369:CB:3236, V-A:GLU:543:C:4902, V-B:GLU:543:CB:9878, V-B:TYR:539:CE2:9848, V-B:GLU:543:CG:9879, V-A:GLY:544:C:4912, V-A:ASP:366:CG:3213, V-A:ALA:541:CB:4892, V-A:GLU:543:CD:4908, V-A:TYR:484:CZ:4347, H-B:TYR:484:OH:9319, V-B:HIS:456:CE1:9041, H-A:GLY:454:N:4050, V-A:ILE:369:CD1:3239, V-A:HIS:456:CE1:4070, V-A:ALA:541:CA:4890, V-A:GLU:543:CG:4907, V-B:GLU:543:CD:9880, V-A:ASP:366:CB:3212, V-A:ARG:545:CD:4923, V-A:LEU:475:CD2:4259, V-A:ARG:545:CZ:4926, H-A:GLU:543:OE1:4909, V-A:GLU:543:CB:4906, V-A:PRO:540:N:4884, V-A:PRO:540:CB:4885, V-A:PRO:540:CA:4883, H-A:TYR:484:OH:4348"]

$$$$
ZINC2288557153
     RDKit          3D

 66 67  0  0  0  0  0  0  0  0999 V2000
  127.9800  128.4180   64.1900 C   0  0  0  0  0  0  0  0  0  0  0  0
  126.7580  129.1450   63.5770 C   0  0  0  0  0  0  0  0  0  0  0  0
  127.1470  130.5580   63.0740 C   0  0  0  0  0  0  0  0  0  0  0  0
  125.6520  129.2710   64.6440 C   0  0  0  0  0  0  0  0  0  0  0  0
  126.1540  128.3600   62.5310 O   0  0  0  0  0  0  0  0  0  0  0  0
  126.8130  127.8200   61.4710 C   0  0  0  0  0  0  0  0  0  0  0  0
  127.6710  128.3970   60.7990 O   0  0  0  0  0  0  0  0  0  0  0  0
  126.3680  126.5150   61.2900 N   0  0  0  0  0  0  0  0  0  0  0  0
  126.9250  125.6550   60.2340 C   0  0  2  0  0  0  0  0  0  0  0  0
  126.0860  124.3610   60.0630 C   0  0  0  0  0  0  0  0  0  0  0  0
  126.3840  123.5830   58.7930 C   0  0  0  0  0  0  0  0  0  0  0  0
  127.4490  122.7320   58.4840 C   0  0  0  0  0  0  0  0  0  0  0  0
  127.4770  122.1860   57.2850 N   0  0  0  0  0  0  0  0  0  0  0  0
  126.4510  122.5640   56.5750 C   0  0  0  0  0  0  0  0  0  0  0  0
  125.3630  123.6420   57.3740 S   0  0  0  0  0  0  0  0  0  0  0  0
  128.4300  125.4010   60.4780 C   0  0  0  0  0  0  0  0  0  0  0  0
  129.1480  125.0520   59.5400 O   0  0  0  0  0  0  0  0  0  0  0  0
  128.8670  125.6020   61.7330 N   0  0  0  0  0  0  0  0  0  0  0  0
  130.2410  125.3940   62.1860 C   0  0  0  0  0  0  0  0  0  0  0  0
  130.5140  123.9880   62.7860 C   0  0  0  0  0  0  0  0  0  0  0  0
  129.3850  123.2730   62.7730 F   0  0  0  0  0  0  0  0  0  0  0  0
  131.3690  123.3290   61.9980 F   0  0  0  0  0  0  0  0  0  0  0  0
  131.0640  124.0640   64.2440 C   0  0  0  0  0  0  0  0  0  0  0  0
  132.3970  123.5800   64.2890 O   0  0  0  0  0  0  0  0  0  0  0  0
  130.8850  125.4610   64.8800 C   0  0  0  0  0  0  0  0  0  0  0  0
  130.1460  124.7640   65.9590 N   0  0  0  0  0  0  0  0  0  0  0  0
  129.6100  125.1990   67.1600 C   0  0  0  0  0  0  0  0  0  0  0  0
  129.4950  124.5040   68.1690 O   0  0  0  0  0  0  0  0  0  0  0  0
  129.2230  126.5020   67.0490 O   0  0  0  0  0  0  0  0  0  0  0  0
  128.9660  127.3920   68.1500 C   0  0  0  0  0  0  0  0  0  0  0  0
  127.8260  126.8660   69.0570 C   0  0  0  0  0  0  0  0  0  0  0  0
  130.2530  127.6510   68.9700 C   0  0  0  0  0  0  0  0  0  0  0  0
  128.5140  128.7060   67.4790 C   0  0  0  0  0  0  0  0  0  0  0  0
  130.1160  123.4420   65.2940 C   0  0  0  0  0  0  0  0  0  0  0  0
  127.9165  128.4558   65.2875 H   0  0  0  0  0  0  0  0  0  0  0  0
  127.9866  127.3690   63.8590 H   0  0  0  0  0  0  0  0  0  0  0  0
  128.9050  128.9128   63.8590 H   0  0  0  0  0  0  0  0  0  0  0  0
  127.3284  131.2170   63.9359 H   0  0  0  0  0  0  0  0  0  0  0  0
  128.0603  130.4917   62.4645 H   0  0  0  0  0  0  0  0  0  0  0  0
  126.3284  130.9685   62.4645 H   0  0  0  0  0  0  0  0  0  0  0  0
  126.1020  129.2197   65.6464 H   0  0  0  0  0  0  0  0  0  0  0  0
  125.1341  130.2340   64.5234 H   0  0  0  0  0  0  0  0  0  0  0  0
  124.9308  128.4492   64.5234 H   0  0  0  0  0  0  0  0  0  0  0  0
  125.6930  126.1240   61.9310 H   0  0  0  0  0  0  0  0  0  0  0  0
  126.8563  126.1771   59.2683 H   0  0  0  0  0  0  0  0  0  0  0  0
  126.2861  123.7051   60.9231 H   0  0  0  0  0  0  0  0  0  0  0  0
  125.0338  124.6754   59.9989 H   0  0  0  0  0  0  0  0  0  0  0  0
  128.2400  122.5243   59.2196 H   0  0  0  0  0  0  0  0  0  0  0  0
  126.2898  122.2214   55.5422 H   0  0  0  0  0  0  0  0  0  0  0  0
  128.2040  125.9000   62.4330 H   0  0  0  0  0  0  0  0  0  0  0  0
  130.9119  125.5370   61.3261 H   0  0  0  0  0  0  0  0  0  0  0  0
  130.4178  126.1192   62.9939 H   0  0  0  0  0  0  0  0  0  0  0  0
  132.5310  123.1340   65.1290 H   0  0  0  0  0  0  0  0  0  0  0  0
  131.8181  125.9494   65.1973 H   0  0  0  0  0  0  0  0  0  0  0  0
  130.4595  126.3114   64.3270 H   0  0  0  0  0  0  0  0  0  0  0  0
  128.1076  126.9959   70.1124 H   0  0  0  0  0  0  0  0  0  0  0  0
  126.9041  127.4298   68.8514 H   0  0  0  0  0  0  0  0  0  0  0  0
  127.6567  125.7987   68.8514 H   0  0  0  0  0  0  0  0  0  0  0  0
  130.0193  127.6040   70.0438 H   0  0  0  0  0  0  0  0  0  0  0  0
  131.0044  126.8861   68.7244 H   0  0  0  0  0  0  0  0  0  0  0  0
  130.6500  128.6470   68.7244 H   0  0  0  0  0  0  0  0  0  0  0  0
  128.2599  129.4447   68.2535 H   0  0  0  0  0  0  0  0  0  0  0  0
  129.3292  129.0972   66.8526 H   0  0  0  0  0  0  0  0  0  0  0  0
  127.6306  128.5129   66.8526 H   0  0  0  0  0  0  0  0  0  0  0  0
  130.5495  122.6181   65.8799 H   0  0  0  0  0  0  0  0  0  0  0  0
  129.1760  122.9420   65.0174 H   0  0  0  0  0  0  0  0  0  0  0  0
  1  2  1  0
  2  3  1  0
  2  4  1  0
  2  5  1  0
  5  6  1  0
  6  7  2  0
  6  8  1  0
  8  9  1  0
  9 10  1  0
 10 11  1  0
 11 12  2  0
 12 13  1  0
 13 14  2  0
 14 15  1  0
  9 16  1  0
 16 17  2  0
 16 18  1  0
 18 19  1  0
 19 20  1  0
 20 21  1  0
 20 22  1  0
 20 23  1  0
 23 24  1  0
 23 25  1  0
 25 26  1  0
 26 27  1  0
 27 28  2  0
 27 29  1  0
 29 30  1  0
 30 31  1  0
 30 32  1  0
 30 33  1  0
 26 34  1  0
 15 11  1  0
 34 23  1  0
  1 35  1  0
  1 36  1  0
  1 37  1  0
  3 38  1  0
  3 39  1  0
  3 40  1  0
  4 41  1  0
  4 42  1  0
  4 43  1  0
  8 44  1  0
  9 45  1  6
 10 46  1  0
 10 47  1  0
 12 48  1  0
 14 49  1  0
 18 50  1  0
 19 51  1  0
 19 52  1  0
 24 53  1  0
 25 54  1  0
 25 55  1  0
 31 56  1  0
 31 57  1  0
 31 58  1  0
 32 59  1  0
 32 60  1  0
 32 61  1  0
 33 62  1  0
 33 63  1  0
 33 64  1  0
 34 65  1  0
 34 66  1  0
M  END
>  <Binding energies>  (1) 
[-6.04]

>  <Ligand effiencies>  (1) 
[-0.16324324324324324]

>  <Interactions>  (1) 
["V-B:PRO:540:CA:9855, V-B:GLU:543:C:9874, V-B:GLU:543:CB:9878, V-B:ASP:366:CG:8184, V-B:TYR:539:CE2:9848, V-A:TYR:484:CE2:4346, H-B:TYR:539:N:9842, V-B:GLU:543:CG:9879, V-B:TYR:539:C:9839, H-B:GLU:543:OE1:9881, V-A:GLU:543:CD:4908, V-B:PRO:540:CB:9857, V-A:TYR:484:CZ:4347, H-B:ASP:366:OD1:8185, V-B:GLU:543:CA:9876, V-B:HIS:456:CE1:9041, V-B:PRO:540:N:9856, V-A:HIS:456:CE1:4070, V-B:TYR:539:CD2:9846, V-B:PRO:540:CD:9859, V-A:GLU:543:CG:4907, V-B:GLU:543:CD:9880, V-B:ARG:545:CZ:9898, H-B:ARG:545:NH2:9900, V-A:GLU:543:CB:4906, V-B:LEU:363:CD1:8160, H-B:GLU:543:OE2:9882, H-A:TYR:484:OH:4348"]

$$$$
ZINC22940187
     RDKit          3D

 42 44  0  0  0  0  0  0  0  0999 V2000
  128.6940  127.8700   63.2970 N   0  0  0  0  0  0  0  0  0  0  0  0
  127.6580  128.8050   62.8720 C   0  0  1  0  0  0  0  0  0  0  0  0
  128.1830  130.2570   62.7210 C   0  0  0  0  0  0  0  0  0  0  0  0
  129.0690  130.5030   61.4680 C   0  0  1  0  0  0  0  0  0  0  0  0
  130.4710  129.8800   61.6540 N   0  0  0  0  0  0  0  0  0  0  0  0
  131.3640  129.9570   60.4000 C   0  0  2  0  0  0  0  0  0  0  0  0
  131.9500  131.3800   60.2160 C   0  0  0  0  0  0  0  0  0  0  0  0
  132.8030  131.4970   58.9390 C   0  0  0  0  0  0  0  0  0  0  0  0
  132.0330  131.0230   57.6920 C   0  0  0  0  0  0  0  0  0  0  0  0
  131.4710  129.5970   57.8730 C   0  0  0  0  0  0  0  0  0  0  0  0
  130.6080  129.4220   59.1450 C   0  0  2  0  0  0  0  0  0  0  0  0
  129.3070  130.0840   58.9980 N   0  0  0  0  0  0  0  0  0  0  0  0
  128.4200  129.9620   60.1560 C   0  0  1  0  0  0  0  0  0  0  0  0
  127.8380  128.5310   60.3080 C   0  0  0  0  0  0  0  0  0  0  0  0
  126.9220  128.4210   61.5510 C   0  0  1  0  0  0  0  0  0  0  0  0
  126.3570  126.9890   61.6270 N   0  0  0  0  0  0  0  0  0  0  0  0
  129.5710  128.3610   63.4120 H   0  0  0  0  0  0  0  0  0  0  0  0
  128.4670  127.4840   64.2040 H   0  0  0  0  0  0  0  0  0  0  0  0
  126.9307  128.7433   63.6949 H   0  0  0  0  0  0  0  0  0  0  0  0
  127.3151  130.9304   62.6639 H   0  0  0  0  0  0  0  0  0  0  0  0
  128.8233  130.4471   63.5950 H   0  0  0  0  0  0  0  0  0  0  0  0
  129.1636  131.5941   61.3649 H   0  0  0  0  0  0  0  0  0  0  0  0
  130.3600  128.9120   61.9220 H   0  0  0  0  0  0  0  0  0  0  0  0
  130.9440  130.3300   62.4260 H   0  0  0  0  0  0  0  0  0  0  0  0
  132.2304  129.2936   60.5387 H   0  0  0  0  0  0  0  0  0  0  0  0
  131.1203  132.0997   60.1550 H   0  0  0  0  0  0  0  0  0  0  0  0
  132.6007  131.5914   61.0774 H   0  0  0  0  0  0  0  0  0  0  0  0
  133.0934  132.5488   58.7998 H   0  0  0  0  0  0  0  0  0  0  0  0
  133.6883  130.8552   59.0589 H   0  0  0  0  0  0  0  0  0  0  0  0
  131.1976  131.7139   57.5054 H   0  0  0  0  0  0  0  0  0  0  0  0
  132.7323  131.0097   56.8430 H   0  0  0  0  0  0  0  0  0  0  0  0
  130.8508  129.3551   56.9973 H   0  0  0  0  0  0  0  0  0  0  0  0
  132.3345  128.9235   57.9769 H   0  0  0  0  0  0  0  0  0  0  0  0
  130.4234  128.3466   59.2846 H   0  0  0  0  0  0  0  0  0  0  0  0
  129.4070  131.0400   58.6880 H   0  0  0  0  0  0  0  0  0  0  0  0
  127.5584  130.6170   59.9595 H   0  0  0  0  0  0  0  0  0  0  0  0
  127.2526  128.2858   59.4096 H   0  0  0  0  0  0  0  0  0  0  0  0
  128.6755  127.8289   60.4329 H   0  0  0  0  0  0  0  0  0  0  0  0
  126.0995  129.1431   61.4412 H   0  0  0  0  0  0  0  0  0  0  0  0
  125.4030  126.9740   61.2940 H   0  0  0  0  0  0  0  0  0  0  0  0
  126.3720  126.6590   62.5820 H   0  0  0  0  0  0  0  0  0  0  0  0
  126.9110  126.3640   61.0590 H   0  0  0  0  0  0  0  0  0  0  0  0
  1  2  1  0
  2  3  1  0
  3  4  1  0
  4  5  1  0
  5  6  1  0
  6  7  1  0
  7  8  1  0
  8  9  1  0
  9 10  1  0
 10 11  1  0
 11 12  1  0
 12 13  1  0
 13 14  1  0
 14 15  1  0
 15 16  1  0
 15  2  1  0
 13  4  1  0
 11  6  1  0
  1 17  1  0
  1 18  1  0
  2 19  1  1
  3 20  1  0
  3 21  1  0
  4 22  1  6
  5 23  1  0
  5 24  1  0
  6 25  1  1
  7 26  1  0
  7 27  1  0
  8 28  1  0
  8 29  1  0
  9 30  1  0
  9 31  1  0
 10 32  1  0
 10 33  1  0
 11 34  1  1
 12 35  1  0
 13 36  1  6
 14 37  1  0
 14 38  1  0
 15 39  1  6
 16 40  1  0
 16 41  1  0
 16 42  1  0
M  CHG  2   5   1  16   1
M  END
>  <Binding energies>  (1) 
[-6.76]

>  <Ligand effiencies>  (1) 
[-0.2816666666666667]

>  <Interactions>  (1) 
["V-A:LEU:363:CD1:3189, H-B:GLU:543:OE2:9882, V-A:PRO:540:CB:4885, H-B:GLU:543:OE1:9881, H-A:GLU:543:OE2:4910, V-A:PRO:540:CA:4883, V-A:ASP:366:CG:3213, V-A:TYR:531:CZ:4794, V-B:GLU:543:CD:9880, V-B:ASP:366:CG:8184, V-A:GLU:543:CD:4908, H-B:ASP:366:OD1:8185, H-A:GLU:543:OE1:4909, H-B:ASP:366:OD2:8186"]

$$$$
ZINC2294819110
     RDKit          3D

 66 67  0  0  0  0  0  0  0  0999 V2000
  133.5930  121.3440   61.6150 C   0  0  0  0  0  0  0  0  0  0  0  0
  132.6670  120.8190   60.5100 C   0  0  0  0  0  0  0  0  0  0  0  0
  131.2080  120.6630   60.9740 C   0  0  0  0  0  0  0  0  0  0  0  0
  130.4540  122.0080   61.0440 C   0  0  0  0  0  0  0  0  0  0  0  0
  129.1440  121.9830   61.8750 C   0  0  2  0  0  0  0  0  0  0  0  0
  128.0170  122.8190   61.2100 C   0  0  0  0  0  0  0  0  0  0  0  0
  128.1240  122.9730   59.6840 C   0  0  0  0  0  0  0  0  0  0  0  0
  129.3930  122.4340   63.3350 C   0  0  0  0  0  0  0  0  0  0  0  0
  130.7520  122.2380   63.7100 O   0  0  0  0  0  0  0  0  0  0  0  0
  131.5620  123.2920   63.9410 C   0  0  0  0  0  0  0  0  0  0  0  0
  132.7530  123.2340   64.2570 O   0  0  0  0  0  0  0  0  0  0  0  0
  130.8280  124.6430   63.7500 C   0  0  2  0  0  0  0  0  0  0  0  0
  131.7250  125.7000   63.0600 C   0  0  0  0  0  0  0  0  0  0  0  0
  132.2170  125.3080   61.6710 C   0  0  0  0  0  0  0  0  0  0  0  0
  133.4750  124.7190   61.5110 C   0  0  0  0  0  0  0  0  0  0  0  0
  133.9300  124.3660   60.2410 C   0  0  0  0  0  0  0  0  0  0  0  0
  133.1320  124.6000   59.1190 C   0  0  0  0  0  0  0  0  0  0  0  0
  133.6040  124.2540   57.8770 O   0  0  0  0  0  0  0  0  0  0  0  0
  131.8710  125.1890   59.2730 C   0  0  0  0  0  0  0  0  0  0  0  0
  131.0710  125.4400   58.1870 O   0  0  0  0  0  0  0  0  0  0  0  0
  131.4170  125.5380   60.5460 C   0  0  0  0  0  0  0  0  0  0  0  0
  130.3760  125.2280   64.9840 O   0  0  0  0  0  0  0  0  0  0  0  0
  131.1890  125.4660   66.0520 C   0  0  0  0  0  0  0  0  0  0  0  0
  132.4220  125.4800   66.0030 O   0  0  0  0  0  0  0  0  0  0  0  0
  130.4220  125.6880   67.2720 C   0  0  0  0  0  0  0  0  0  0  0  0
  130.5440  126.8080   68.0170 C   0  0  0  0  0  0  0  0  0  0  0  0
  129.8130  127.1180   69.2660 C   0  0  0  0  0  0  0  0  0  0  0  0
  128.5000  126.6850   69.5000 C   0  0  0  0  0  0  0  0  0  0  0  0
  127.8480  127.0040   70.6920 C   0  0  0  0  0  0  0  0  0  0  0  0
  128.4980  127.7600   71.6680 C   0  0  0  0  0  0  0  0  0  0  0  0
  127.8350  128.0600   72.8320 O   0  0  0  0  0  0  0  0  0  0  0  0
  129.8090  128.1990   71.4460 C   0  0  0  0  0  0  0  0  0  0  0  0
  130.4730  128.9450   72.3860 O   0  0  0  0  0  0  0  0  0  0  0  0
  130.4560  127.8760   70.2520 C   0  0  0  0  0  0  0  0  0  0  0  0
  133.1645  121.1011   62.5986 H   0  0  0  0  0  0  0  0  0  0  0  0
  134.5821  120.8723   61.5193 H   0  0  0  0  0  0  0  0  0  0  0  0
  133.6962  122.4350   61.5193 H   0  0  0  0  0  0  0  0  0  0  0  0
  132.6932  121.5239   59.6660 H   0  0  0  0  0  0  0  0  0  0  0  0
  133.0299  119.8213   60.2221 H   0  0  0  0  0  0  0  0  0  0  0  0
  130.6835  120.0027   60.2676 H   0  0  0  0  0  0  0  0  0  0  0  0
  131.2275  120.2417   61.9899 H   0  0  0  0  0  0  0  0  0  0  0  0
  131.1276  122.7539   61.4912 H   0  0  0  0  0  0  0  0  0  0  0  0
  130.1589  122.2490   60.0121 H   0  0  0  0  0  0  0  0  0  0  0  0
  128.7991  120.9388   61.9007 H   0  0  0  0  0  0  0  0  0  0  0  0
  127.0560  122.3336   61.4357 H   0  0  0  0  0  0  0  0  0  0  0  0
  128.1073  123.8339   61.6244 H   0  0  0  0  0  0  0  0  0  0  0  0
  128.7369  123.8551   59.4466 H   0  0  0  0  0  0  0  0  0  0  0  0
  128.5934  122.0746   59.2568 H   0  0  0  0  0  0  0  0  0  0  0  0
  127.1183  123.0995   59.2568 H   0  0  0  0  0  0  0  0  0  0  0  0
  129.1457  123.5018   63.4277 H   0  0  0  0  0  0  0  0  0  0  0  0
  128.7579  121.8295   63.9992 H   0  0  0  0  0  0  0  0  0  0  0  0
  129.9616  124.3882   63.1220 H   0  0  0  0  0  0  0  0  0  0  0  0
  131.1482  126.6322   62.9689 H   0  0  0  0  0  0  0  0  0  0  0  0
  132.6212  125.8058   63.6890 H   0  0  0  0  0  0  0  0  0  0  0  0
  134.1086  124.5333   62.3908 H   0  0  0  0  0  0  0  0  0  0  0  0
  134.9203  123.9019   60.1226 H   0  0  0  0  0  0  0  0  0  0  0  0
  134.3740  124.7620   57.6160 H   0  0  0  0  0  0  0  0  0  0  0  0
  131.4500  125.1110   57.3680 H   0  0  0  0  0  0  0  0  0  0  0  0
  130.4243  125.9966   60.6656 H   0  0  0  0  0  0  0  0  0  0  0  0
  129.7149  124.9114   67.5991 H   0  0  0  0  0  0  0  0  0  0  0  0
  131.2577  127.5651   67.6599 H   0  0  0  0  0  0  0  0  0  0  0  0
  127.9790  126.0883   68.7368 H   0  0  0  0  0  0  0  0  0  0  0  0
  126.8178  126.6581   70.8627 H   0  0  0  0  0  0  0  0  0  0  0  0
  128.3420  128.6280   73.4170 H   0  0  0  0  0  0  0  0  0  0  0  0
  130.5850  129.8630   72.1270 H   0  0  0  0  0  0  0  0  0  0  0  0
  131.4864  128.2222   70.0833 H   0  0  0  0  0  0  0  0  0  0  0  0
  1  2  1  0
  2  3  1  0
  3  4  1  0
  4  5  1  0
  5  6  1  0
  6  7  1  0
  5  8  1  0
  8  9  1  0
  9 10  1  0
 10 11  2  0
 10 12  1  0
 12 13  1  0
 13 14  1  0
 14 15  2  0
 15 16  1  0
 16 17  2  0
 17 18  1  0
 17 19  1  0
 19 20  1  0
 19 21  2  0
 12 22  1  0
 22 23  1  0
 23 24  2  0
 23 25  1  0
 25 26  2  0
 26 27  1  0
 27 28  2  0
 28 29  1  0
 29 30  2  0
 30 31  1  0
 30 32  1  0
 32 33  1  0
 32 34  2  0
 21 14  1  0
 34 27  1  0
  1 35  1  0
  1 36  1  0
  1 37  1  0
  2 38  1  0
  2 39  1  0
  3 40  1  0
  3 41  1  0
  4 42  1  0
  4 43  1  0
  5 44  1  1
  6 45  1  0
  6 46  1  0
  7 47  1  0
  7 48  1  0
  7 49  1  0
  8 50  1  0
  8 51  1  0
 12 52  1  6
 13 53  1  0
 13 54  1  0
 15 55  1  0
 16 56  1  0
 18 57  1  0
 20 58  1  0
 21 59  1  0
 25 60  1  0
 26 61  1  0
 28 62  1  0
 29 63  1  0
 31 64  1  0
 33 65  1  0
 34 66  1  0
M  END
>  <Binding energies>  (1) 
[-7.15]

>  <Ligand effiencies>  (1) 
[-0.1881578947368421]

>  <Interactions>  (1) 
["V-A:ILE:369:CG2:3237, V-A:ASP:366:CA:3210, V-B:PRO:540:CA:9855, V-B:GLU:543:C:9874, V-B:HIS:456:CD2:9039, V-A:GLU:543:C:4902, V-B:GLU:543:CB:9878, V-B:ALA:541:CB:9864, H-A:TYR:531:OH:4795, V-B:TYR:539:CE2:9848, V-A:ASP:366:CG:3213, H-B:TYR:539:OH:9850, V-A:GLU:543:CD:4908, V-B:HIS:456:CE1:9041, H-A:GLY:454:N:4050, V-A:ILE:369:CD1:3239, V-A:HIS:456:CE1:4070, V-B:GLY:544:C:9884, H-B:HIS:456:NE2:9042, V-B:TYR:539:CD2:9846, V-A:SER:385:CB:3409, V-A:ASP:366:CB:3212, H-A:LYS:547:NZ:4951, V-A:LEU:475:CD2:4259, V-A:ARG:545:CZ:4926, H-A:ASP:366:O:3209, V-A:GLU:543:CB:4906, H-A:ARG:545:NE:4924, V-B:PRO:540:C:9853, H-A:GLY:544:O:4913, H-A:TYR:484:OH:4348, H-A:GLU:543:O:4903"]

$$$$
ZINC2294845337
     RDKit          3D

 75 79  0  0  0  0  0  0  0  0999 V2000
  131.2280  119.8460   60.8790 C   0  0  0  0  0  0  0  0  0  0  0  0
  130.4910  120.9730   61.6220 C   0  0  0  0  0  0  0  0  0  0  0  0
  131.4110  122.0260   62.0370 N   0  0  0  0  0  0  0  0  0  0  0  0
  132.5320  122.4610   61.3890 C   0  0  0  0  0  0  0  0  0  0  0  0
  133.0580  123.4880   62.1620 C   0  0  0  0  0  0  0  0  0  0  0  0
  134.2550  124.2240   61.8770 N   0  0  0  0  0  0  0  0  0  0  0  0
  134.5860  124.3290   60.7000 O   0  0  0  0  0  0  0  0  0  0  0  0
  134.8930  124.6920   62.8130 O   0  0  0  0  0  0  0  0  0  0  0  0
  132.1390  123.6110   63.2440 C   0  0  0  0  0  0  0  0  0  0  0  0
  132.1840  124.5710   64.3270 C   0  0  0  0  0  0  0  0  0  0  0  0
  133.2570  124.7850   64.8960 O   0  0  0  0  0  0  0  0  0  0  0  0
  131.0160  125.1820   64.6840 N   0  0  0  0  0  0  0  0  0  0  0  0
  130.6710  125.4230   65.9850 N   0  0  0  0  0  0  0  0  0  0  0  0
  129.7270  126.2740   66.0450 C   0  0  0  0  0  0  0  0  0  0  0  0
  129.1770  126.9260   67.2240 C   0  0  0  0  0  0  0  0  0  0  0  0
  129.2750  126.2910   68.4190 C   0  0  0  0  0  0  0  0  0  0  0  0
  128.8650  126.7800   69.7510 C   0  0  0  0  0  0  0  0  0  0  0  0
  127.5250  126.8760   70.1310 C   0  0  0  0  0  0  0  0  0  0  0  0
  127.1780  127.3500   71.3930 C   0  0  0  0  0  0  0  0  0  0  0  0
  128.1680  127.7460   72.3070 C   0  0  0  0  0  0  0  0  0  0  0  0
  127.8930  128.2230   73.5770 O   0  0  0  0  0  0  0  0  0  0  0  0
  126.5460  128.2460   74.0400 C   0  0  0  0  0  0  0  0  0  0  0  0
  129.5180  127.6630   71.9340 C   0  0  0  0  0  0  0  0  0  0  0  0
  130.4550  128.0700   72.8680 O   0  0  0  0  0  0  0  0  0  0  0  0
  131.2330  127.0940   73.5530 C   0  0  0  0  0  0  0  0  0  0  0  0
  129.8510  127.1830   70.6540 C   0  0  0  0  0  0  0  0  0  0  0  0
  128.5240  128.3090   67.0250 C   0  0  0  0  0  0  0  0  0  0  0  0
  127.8460  128.4970   65.6500 C   0  0  0  0  0  0  0  0  0  0  0  0
  128.7490  128.0170   64.5010 C   0  0  0  0  0  0  0  0  0  0  0  0
  129.1100  126.5310   64.6910 C   0  0  1  0  0  0  0  0  0  0  0  0
  130.1670  125.9500   63.7580 C   0  0  2  0  0  0  0  0  0  0  0  0
  129.5960  125.1560   62.5760 C   0  0  0  0  0  0  0  0  0  0  0  0
  130.1730  125.2460   61.3080 C   0  0  0  0  0  0  0  0  0  0  0  0
  129.6390  124.5320   60.2390 C   0  0  0  0  0  0  0  0  0  0  0  0
  128.5130  123.7090   60.4160 C   0  0  0  0  0  0  0  0  0  0  0  0
  127.9340  122.9740   59.3970 O   0  0  0  0  0  0  0  0  0  0  0  0
  127.1790  123.6410   58.3920 C   0  0  0  0  0  0  0  0  0  0  0  0
  127.9270  123.6130   61.6880 C   0  0  0  0  0  0  0  0  0  0  0  0
  126.8220  122.7880   61.8090 O   0  0  0  0  0  0  0  0  0  0  0  0
  125.5190  123.3270   61.6130 C   0  0  0  0  0  0  0  0  0  0  0  0
  128.4760  124.3400   62.7570 C   0  0  0  0  0  0  0  0  0  0  0  0
  131.1720  122.7190   63.1550 N   0  0  0  0  0  0  0  0  0  0  0  0
  131.6779  119.1580   61.6099 H   0  0  0  0  0  0  0  0  0  0  0  0
  130.5149  119.2954   60.2478 H   0  0  0  0  0  0  0  0  0  0  0  0
  132.0183  120.2785   60.2478 H   0  0  0  0  0  0  0  0  0  0  0  0
  129.7306  121.4045   60.9545 H   0  0  0  0  0  0  0  0  0  0  0  0
  130.0233  120.5469   62.5218 H   0  0  0  0  0  0  0  0  0  0  0  0
  132.9378  122.0745   60.4424 H   0  0  0  0  0  0  0  0  0  0  0  0
  129.7160  125.2836   68.3924 H   0  0  0  0  0  0  0  0  0  0  0  0
  126.7360  126.5742   69.4265 H   0  0  0  0  0  0  0  0  0  0  0  0
  126.1174  127.4151   71.6773 H   0  0  0  0  0  0  0  0  0  0  0  0
  126.5363  128.2462   75.1400 H   0  0  0  0  0  0  0  0  0  0  0  0
  126.0461  129.1528   73.6688 H   0  0  0  0  0  0  0  0  0  0  0  0
  126.0154  127.3568   73.6688 H   0  0  0  0  0  0  0  0  0  0  0  0
  131.1223  127.2328   74.6386 H   0  0  0  0  0  0  0  0  0  0  0  0
  130.8866  126.0877   73.2748 H   0  0  0  0  0  0  0  0  0  0  0  0
  132.2912  127.2074   73.2748 H   0  0  0  0  0  0  0  0  0  0  0  0
  130.9090  127.1240   70.3588 H   0  0  0  0  0  0  0  0  0  0  0  0
  127.7625  128.4467   67.8068 H   0  0  0  0  0  0  0  0  0  0  0  0
  129.3332  129.0519   67.0827 H   0  0  0  0  0  0  0  0  0  0  0  0
  126.9095  127.9203   65.6323 H   0  0  0  0  0  0  0  0  0  0  0  0
  127.6504  129.5701   65.5076 H   0  0  0  0  0  0  0  0  0  0  0  0
  128.2185  128.1425   63.5456 H   0  0  0  0  0  0  0  0  0  0  0  0
  129.6736  128.6129   64.4991 H   0  0  0  0  0  0  0  0  0  0  0  0
  128.1306  126.0646   64.5086 H   0  0  0  0  0  0  0  0  0  0  0  0
  130.7359  126.7160   63.2106 H   0  0  0  0  0  0  0  0  0  0  0  0
  131.0549  125.8849   61.1527 H   0  0  0  0  0  0  0  0  0  0  0  0
  130.1031  124.6126   59.2449 H   0  0  0  0  0  0  0  0  0  0  0  0
  126.4355  124.2978   58.8673 H   0  0  0  0  0  0  0  0  0  0  0  0
  127.8536  124.2435   57.7659 H   0  0  0  0  0  0  0  0  0  0  0  0
  126.6643  122.8973   57.7659 H   0  0  0  0  0  0  0  0  0  0  0  0
  125.0515  123.5204   62.5897 H   0  0  0  0  0  0  0  0  0  0  0  0
  125.5927  124.2685   61.0489 H   0  0  0  0  0  0  0  0  0  0  0  0
  124.9061  122.6086   61.0489 H   0  0  0  0  0  0  0  0  0  0  0  0
  128.0166  124.2658   63.7537 H   0  0  0  0  0  0  0  0  0  0  0  0
  1  2  1  0
  2  3  1  0
  3  4  1  0
  4  5  2  0
  5  6  1  0
  6  7  2  0
  6  8  1  0
  5  9  1  0
  9 10  1  0
 10 11  2  0
 10 12  1  0
 12 13  1  0
 13 14  2  0
 14 15  1  0
 15 16  2  0
 16 17  1  0
 17 18  2  0
 18 19  1  0
 19 20  2  0
 20 21  1  0
 21 22  1  0
 20 23  1  0
 23 24  1  0
 24 25  1  0
 23 26  2  0
 15 27  1  0
 27 28  1  0
 28 29  1  0
 29 30  1  0
 30 31  1  0
 31 32  1  0
 32 33  2  0
 33 34  1  0
 34 35  2  0
 35 36  1  0
 36 37  1  0
 35 38  1  0
 38 39  1  0
 39 40  1  0
 38 41  2  0
  9 42  2  0
 42  3  1  0
 31 12  1  0
 41 32  1  0
 30 14  1  0
 26 17  1  0
  1 43  1  0
  1 44  1  0
  1 45  1  0
  2 46  1  0
  2 47  1  0
  4 48  1  0
 16 49  1  0
 18 50  1  0
 19 51  1  0
 22 52  1  0
 22 53  1  0
 22 54  1  0
 25 55  1  0
 25 56  1  0
 25 57  1  0
 26 58  1  0
 27 59  1  0
 27 60  1  0
 28 61  1  0
 28 62  1  0
 29 63  1  0
 29 64  1  0
 30 65  1  1
 31 66  1  6
 33 67  1  0
 34 68  1  0
 37 69  1  0
 37 70  1  0
 37 71  1  0
 40 72  1  0
 40 73  1  0
 40 74  1  0
 41 75  1  0
M  CHG  2   6   1   8  -1
M  END
>  <Binding energies>  (1) 
[-9.15]

>  <Ligand effiencies>  (1) 
[-0.21785714285714286]

>  <Interactions>  (1) 
["V-B:PRO:540:CA:9855, V-B:GLU:543:C:9874, V-B:HIS:456:CD2:9039, V-B:GLU:543:CB:9878, H-B:LYS:547:NZ:9923, V-B:HIS:456:CB:9036, V-B:ALA:541:CB:9864, H-A:ARG:545:NH1:4927, V-B:TYR:539:CE2:9848, V-B:GLU:543:CG:9879, V-A:HIS:456:CD2:4068, V-B:LYS:547:CE:9922, H-B:ALA:541:N:9863, V-A:GLU:543:CD:4908, V-B:PRO:540:CB:9857, V-B:HIS:456:CE1:9041, H-A:GLY:454:N:4050, V-A:HIS:456:CE1:4070, V-A:ILE:369:CD1:3239, V-B:GLY:544:C:9884, V-B:TYR:539:CD2:9846, V-A:GLU:543:CG:4907, V-B:GLU:543:CD:9880, V-B:HIS:456:CG:9037, H-A:LYS:547:NZ:4951, H-A:ARG:545:NH2:4928, V-A:LEU:475:CD2:4259, V-A:GLU:543:CB:4906, V-A:HIS:456:CG:4066, H-A:ARG:545:NE:4924, V-B:PRO:540:C:9853, H-A:TYR:484:OH:4348"]

$$$$
ZINC2295967751
     RDKit          3D

 56 59  0  0  0  0  0  0  0  0999 V2000
  128.4410  133.1350   73.6320 C   0  0  0  0  0  0  0  0  0  0  0  0
  129.4810  132.1330   73.1130 C   0  0  0  0  0  0  0  0  0  0  0  0
  129.1720  130.6760   73.4930 C   0  0  0  0  0  0  0  0  0  0  0  0
  129.9210  129.7990   72.6570 O   0  0  0  0  0  0  0  0  0  0  0  0
  129.7880  128.4280   72.7990 C   0  0  0  0  0  0  0  0  0  0  0  0
  130.0580  127.7440   73.9980 C   0  0  0  0  0  0  0  0  0  0  0  0
  129.8990  126.3620   74.0810 C   0  0  0  0  0  0  0  0  0  0  0  0
  129.4730  125.6430   72.9700 C   0  0  0  0  0  0  0  0  0  0  0  0
  129.2040  126.3070   71.7750 C   0  0  0  0  0  0  0  0  0  0  0  0
  129.3560  127.6970   71.6790 C   0  0  0  0  0  0  0  0  0  0  0  0
  129.0770  128.3920   70.4040 C   0  0  0  0  0  0  0  0  0  0  0  0
  129.1660  127.8710   69.1590 C   0  0  0  0  0  0  0  0  0  0  0  0
  129.5720  126.2230   68.6630 S   0  0  0  0  0  0  0  0  0  0  0  0
  129.3470  126.7250   66.9740 C   0  0  0  0  0  0  0  0  0  0  0  0
  129.5230  125.8250   65.9160 N   0  0  0  0  0  0  0  0  0  0  0  0
  129.8560  124.4030   66.0710 C   0  0  0  0  0  0  0  0  0  0  0  0
  131.0270  123.9680   65.1630 C   0  0  0  0  0  0  0  0  0  0  0  0
  130.8750  124.3310   63.7480 N   0  0  0  0  0  0  0  0  0  0  0  0
  131.5950  123.7020   62.7300 C   0  0  0  0  0  0  0  0  0  0  0  0
  130.8890  123.0100   61.7280 C   0  0  0  0  0  0  0  0  0  0  0  0
  131.5490  122.2850   60.7420 C   0  0  0  0  0  0  0  0  0  0  0  0
  132.9370  122.2310   60.7350 C   0  0  0  0  0  0  0  0  0  0  0  0
  133.6590  122.9160   61.7050 C   0  0  0  0  0  0  0  0  0  0  0  0
  133.0150  123.6610   62.7070 C   0  0  0  0  0  0  0  0  0  0  0  0
  133.8610  124.4690   63.6250 N   0  0  0  0  0  0  0  0  0  0  0  0
  133.5740  124.5130   64.8170 O   0  0  0  0  0  0  0  0  0  0  0  0
  134.7860  125.1150   63.1400 O   0  0  0  0  0  0  0  0  0  0  0  0
  130.4690  125.7350   63.5960 C   0  0  0  0  0  0  0  0  0  0  0  0
  129.3040  126.1790   64.5060 C   0  0  0  0  0  0  0  0  0  0  0  0
  129.0190  127.9380   66.8250 N   0  0  0  0  0  0  0  0  0  0  0  0
  128.8860  128.6730   67.9830 C   0  0  0  0  0  0  0  0  0  0  0  0
  128.5670  129.8630   67.9840 O   0  0  0  0  0  0  0  0  0  0  0  0
  128.4451  133.1311   74.7320 H   0  0  0  0  0  0  0  0  0  0  0  0
  128.6894  134.1429   73.2680 H   0  0  0  0  0  0  0  0  0  0  0  0
  127.4431  132.8493   73.2680 H   0  0  0  0  0  0  0  0  0  0  0  0
  129.5179  132.2063   72.0161 H   0  0  0  0  0  0  0  0  0  0  0  0
  130.4419  132.3925   73.5812 H   0  0  0  0  0  0  0  0  0  0  0  0
  129.4472  130.5048   74.5442 H   0  0  0  0  0  0  0  0  0  0  0  0
  128.0975  130.4818   73.3594 H   0  0  0  0  0  0  0  0  0  0  0  0
  130.3985  128.3062   74.8800 H   0  0  0  0  0  0  0  0  0  0  0  0
  130.1106  125.8399   75.0258 H   0  0  0  0  0  0  0  0  0  0  0  0
  129.3485  124.5520   73.0343 H   0  0  0  0  0  0  0  0  0  0  0  0
  128.8688  125.7343   70.8977 H   0  0  0  0  0  0  0  0  0  0  0  0
  128.7639  129.4441   70.4756 H   0  0  0  0  0  0  0  0  0  0  0  0
  130.1345  124.2180   67.1190 H   0  0  0  0  0  0  0  0  0  0  0  0
  128.9712  123.8185   65.7787 H   0  0  0  0  0  0  0  0  0  0  0  0
  131.9465  124.4392   65.5406 H   0  0  0  0  0  0  0  0  0  0  0  0
  131.0567  122.8690   65.2000 H   0  0  0  0  0  0  0  0  0  0  0  0
  129.7895  123.0435   61.7249 H   0  0  0  0  0  0  0  0  0  0  0  0
  130.9730  121.7552   59.9690 H   0  0  0  0  0  0  0  0  0  0  0  0
  133.4628  121.6481   59.9644 H   0  0  0  0  0  0  0  0  0  0  0  0
  134.7581  122.8740   61.6879 H   0  0  0  0  0  0  0  0  0  0  0  0
  131.3394  126.3684   63.8224 H   0  0  0  0  0  0  0  0  0  0  0  0
  130.1091  125.8409   62.5619 H   0  0  0  0  0  0  0  0  0  0  0  0
  129.1934  127.2708   64.4297 H   0  0  0  0  0  0  0  0  0  0  0  0
  128.3978  125.6554   64.1674 H   0  0  0  0  0  0  0  0  0  0  0  0
  1  2  1  0
  2  3  1  0
  3  4  1  0
  4  5  1  0
  5  6  2  0
  6  7  1  0
  7  8  2  0
  8  9  1  0
  9 10  2  0
 10 11  1  0
 11 12  2  0
 12 13  1  0
 13 14  1  0
 14 15  1  0
 15 16  1  0
 16 17  1  0
 17 18  1  0
 18 19  1  0
 19 20  2  0
 20 21  1  0
 21 22  2  0
 22 23  1  0
 23 24  2  0
 24 25  1  0
 25 26  2  0
 25 27  1  0
 18 28  1  0
 28 29  1  0
 14 30  2  0
 30 31  1  0
 31 32  2  0
 10  5  1  0
 31 12  1  0
 29 15  1  0
 24 19  1  0
  1 33  1  0
  1 34  1  0
  1 35  1  0
  2 36  1  0
  2 37  1  0
  3 38  1  0
  3 39  1  0
  6 40  1  0
  7 41  1  0
  8 42  1  0
  9 43  1  0
 11 44  1  0
 16 45  1  0
 16 46  1  0
 17 47  1  0
 17 48  1  0
 20 49  1  0
 21 50  1  0
 22 51  1  0
 23 52  1  0
 28 53  1  0
 28 54  1  0
 29 55  1  0
 29 56  1  0
M  CHG  2  25   1  27  -1
M  END
>  <Binding energies>  (1) 
[-7.69]

>  <Ligand effiencies>  (1) 
[-0.2403125]

>  <Interactions>  (1) 
["V-A:ILE:369:CG2:3237, V-A:GLU:543:CA:4904, V-A:GLY:454:CA:4049, V-B:HIS:456:CD2:9039, V-A:GLU:543:C:4902, V-B:GLU:543:CB:9878, H-A:ARG:545:NH1:4927, V-A:TYR:484:CE2:4346, V-B:TYR:539:CE2:9848, V-B:GLU:543:CG:9879, V-A:HIS:456:CD2:4068, V-B:TYR:484:CB:9312, V-A:GLU:543:CD:4908, V-A:TYR:484:CZ:4347, H-B:TYR:484:OH:9319, V-B:HIS:456:CE1:9041, H-A:GLY:454:N:4050, V-B:GLU:543:CA:9876, V-A:GLY:453:C:4042, V-A:HIS:456:CE1:4070, V-A:ILE:369:CD1:3239, V-B:TYR:539:CD2:9846, V-A:GLU:543:CG:4907, V-B:GLU:543:CD:9880, H-A:LYS:547:NZ:4951, H-A:ARG:545:NH2:4928, V-A:ARG:545:CZ:4926, V-A:GLU:543:CB:4906, V-A:GLY:453:CA:4044, V-A:LYS:547:CE:4950, H-A:ARG:545:NE:4924, H-A:TYR:484:OH:4348"]

$$$$
ZINC2297456886
     RDKit          3D

 82 88  0  0  0  0  0  0  0  0999 V2000
  126.3690  128.4850   74.9840 C   0  0  0  0  0  0  0  0  0  0  0  0
  127.8710  128.2770   74.7200 C   0  0  0  0  0  0  0  0  0  0  0  0
  128.7200  129.4150   75.3220 C   0  0  0  0  0  0  0  0  0  0  0  0
  128.1570  128.0590   73.2330 C   0  0  0  0  0  0  0  0  0  0  0  0
  129.2680  128.6500   72.6270 C   0  0  0  0  0  0  0  0  0  0  0  0
  129.5140  128.4550   71.2710 C   0  0  0  0  0  0  0  0  0  0  0  0
  128.6580  127.6730   70.4820 C   0  0  0  0  0  0  0  0  0  0  0  0
  128.9220  127.4750   69.0160 C   0  0  0  0  0  0  0  0  0  0  0  0
  128.2700  128.2360   68.0320 C   0  0  0  0  0  0  0  0  0  0  0  0
  128.5460  127.9980   66.6820 C   0  0  0  0  0  0  0  0  0  0  0  0
  127.8800  128.7830   65.5490 C   0  0  0  0  0  0  0  0  0  0  0  0
  128.4470  129.9780   65.3690 F   0  0  0  0  0  0  0  0  0  0  0  0
  127.9790  128.1040   64.4040 F   0  0  0  0  0  0  0  0  0  0  0  0
  126.5900  128.9760   65.8250 F   0  0  0  0  0  0  0  0  0  0  0  0
  129.4560  127.0070   66.3960 N   0  0  0  0  0  0  0  0  0  0  0  0
  129.8580  126.6010   65.1690 N   0  0  0  0  0  0  0  0  0  0  0  0
  130.7590  125.6440   65.3470 C   0  0  0  0  0  0  0  0  0  0  0  0
  131.4340  124.8920   64.2890 C   0  0  0  0  0  0  0  0  0  0  0  0
  132.0760  123.8840   64.5990 O   0  0  0  0  0  0  0  0  0  0  0  0
  131.3530  125.3050   62.9860 N   0  0  0  0  0  0  0  0  0  0  0  0
  131.0480  126.5730   62.5860 N   0  0  0  0  0  0  0  0  0  0  0  0
  131.2520  126.7200   61.3390 C   0  0  0  0  0  0  0  0  0  0  0  0
  130.9510  127.8780   60.5100 C   0  0  0  0  0  0  0  0  0  0  0  0
  130.8320  129.0910   61.1110 C   0  0  0  0  0  0  0  0  0  0  0  0
  130.4690  130.3800   60.4890 C   0  0  0  0  0  0  0  0  0  0  0  0
  129.5810  131.2250   61.1590 C   0  0  0  0  0  0  0  0  0  0  0  0
  129.2140  132.4480   60.6020 C   0  0  0  0  0  0  0  0  0  0  0  0
  129.7290  132.8350   59.3660 C   0  0  0  0  0  0  0  0  0  0  0  0
  130.6150  132.0020   58.6670 C   0  0  0  0  0  0  0  0  0  0  0  0
  131.1590  132.4090   57.3480 N   0  0  0  0  0  0  0  0  0  0  0  0
  130.6290  133.3470   56.7570 O   0  0  0  0  0  0  0  0  0  0  0  0
  132.1220  131.7970   56.8950 O   0  0  0  0  0  0  0  0  0  0  0  0
  130.9720  130.7730   59.2430 C   0  0  0  0  0  0  0  0  0  0  0  0
  130.7780  127.6490   58.9950 C   0  0  0  0  0  0  0  0  0  0  0  0
  131.6220  126.4870   58.4320 C   0  0  0  0  0  0  0  0  0  0  0  0
  131.4900  125.2290   59.3020 C   0  0  0  0  0  0  0  0  0  0  0  0
  131.9600  125.5220   60.7450 C   0  0  2  0  0  0  0  0  0  0  0  0
  131.7490  124.4710   61.8350 C   0  0  2  0  0  0  0  0  0  0  0  0
  130.7530  123.3420   61.5150 C   0  0  0  0  0  0  0  0  0  0  0  0
  131.1910  122.0370   61.2540 C   0  0  0  0  0  0  0  0  0  0  0  0
  130.2730  121.0340   60.9480 C   0  0  0  0  0  0  0  0  0  0  0  0
  128.9110  121.3270   60.8960 C   0  0  0  0  0  0  0  0  0  0  0  0
  128.4460  122.6260   61.1470 C   0  0  0  0  0  0  0  0  0  0  0  0
  126.9970  122.9390   61.0890 N   0  0  0  0  0  0  0  0  0  0  0  0
  126.5060  123.2540   60.0080 O   0  0  0  0  0  0  0  0  0  0  0  0
  126.3410  122.8720   62.1240 O   0  0  0  0  0  0  0  0  0  0  0  0
  129.3840  123.6250   61.4540 C   0  0  0  0  0  0  0  0  0  0  0  0
  130.9180  125.3620   66.7160 C   0  0  0  0  0  0  0  0  0  0  0  0
  130.0790  126.2680   67.4020 C   0  0  0  0  0  0  0  0  0  0  0  0
  129.8180  126.4920   68.6940 N   0  0  0  0  0  0  0  0  0  0  0  0
  127.5470  127.0820   71.1080 C   0  0  0  0  0  0  0  0  0  0  0  0
  127.2980  127.2730   72.4640 C   0  0  0  0  0  0  0  0  0  0  0  0
  126.1874  128.5101   76.0686 H   0  0  0  0  0  0  0  0  0  0  0  0
  126.0463  129.4364   74.5360 H   0  0  0  0  0  0  0  0  0  0  0  0
  125.7999  127.6571   74.5360 H   0  0  0  0  0  0  0  0  0  0  0  0
  128.1721  127.3544   75.2379 H   0  0  0  0  0  0  0  0  0  0  0  0
  128.6798  129.3611   76.4199 H   0  0  0  0  0  0  0  0  0  0  0  0
  129.7628  129.3108   74.9877 H   0  0  0  0  0  0  0  0  0  0  0  0
  128.3230  130.3849   74.9877 H   0  0  0  0  0  0  0  0  0  0  0  0
  129.9513  129.2720   73.2238 H   0  0  0  0  0  0  0  0  0  0  0  0
  130.3962  128.9229   70.8097 H   0  0  0  0  0  0  0  0  0  0  0  0
  127.5476  129.0135   68.3211 H   0  0  0  0  0  0  0  0  0  0  0  0
  131.0303  129.1156   62.1927 H   0  0  0  0  0  0  0  0  0  0  0  0
  129.1688  130.9226   62.1330 H   0  0  0  0  0  0  0  0  0  0  0  0
  128.5171  133.1089   61.1382 H   0  0  0  0  0  0  0  0  0  0  0  0
  129.4376  133.8038   58.9342 H   0  0  0  0  0  0  0  0  0  0  0  0
  131.6607  130.1052   58.7047 H   0  0  0  0  0  0  0  0  0  0  0  0
  129.7177  127.4329   58.7974 H   0  0  0  0  0  0  0  0  0  0  0  0
  131.1261  128.5646   58.4946 H   0  0  0  0  0  0  0  0  0  0  0  0
  131.2785  126.2556   57.4130 H   0  0  0  0  0  0  0  0  0  0  0  0
  132.6777  126.7958   58.4261 H   0  0  0  0  0  0  0  0  0  0  0  0
  130.4375  124.9100   59.3211 H   0  0  0  0  0  0  0  0  0  0  0  0
  132.1179  124.4325   58.8763 H   0  0  0  0  0  0  0  0  0  0  0  0
  133.0363  125.6228   60.5416 H   0  0  0  0  0  0  0  0  0  0  0  0
  132.6536  123.8669   61.9988 H   0  0  0  0  0  0  0  0  0  0  0  0
  132.2652  121.8028   61.2908 H   0  0  0  0  0  0  0  0  0  0  0  0
  130.6233  120.0107   60.7474 H   0  0  0  0  0  0  0  0  0  0  0  0
  128.1925  120.5297   60.6552 H   0  0  0  0  0  0  0  0  0  0  0  0
  129.0358  124.6498   61.6503 H   0  0  0  0  0  0  0  0  0  0  0  0
  131.5647  124.5920   67.1619 H   0  0  0  0  0  0  0  0  0  0  0  0
  126.8621  126.4574   70.5157 H   0  0  0  0  0  0  0  0  0  0  0  0
  126.4204  126.8024   72.9314 H   0  0  0  0  0  0  0  0  0  0  0  0
  1  2  1  0
  2  3  1  0
  2  4  1  0
  4  5  2  0
  5  6  1  0
  6  7  2  0
  7  8  1  0
  8  9  1  0
  9 10  2  0
 10 11  1  0
 11 12  1  0
 11 13  1  0
 11 14  1  0
 10 15  1  0
 15 16  1  0
 16 17  2  0
 17 18  1  0
 18 19  2  0
 18 20  1  0
 20 21  1  0
 21 22  2  0
 22 23  1  0
 23 24  2  0
 24 25  1  0
 25 26  2  0
 26 27  1  0
 27 28  2  0
 28 29  1  0
 29 30  1  0
 30 31  2  0
 30 32  1  0
 29 33  2  0
 23 34  1  0
 34 35  1  0
 35 36  1  0
 36 37  1  0
 37 38  1  0
 38 39  1  0
 39 40  2  0
 40 41  1  0
 41 42  2  0
 42 43  1  0
 43 44  1  0
 44 45  2  0
 44 46  1  0
 43 47  2  0
 17 48  1  0
 48 49  2  0
 49 50  1  0
  7 51  1  0
 51 52  2  0
 52  4  1  0
 50  8  2  0
 49 15  1  0
 38 20  1  0
 47 39  1  0
 37 22  1  0
 33 25  1  0
  1 53  1  0
  1 54  1  0
  1 55  1  0
  2 56  1  0
  3 57  1  0
  3 58  1  0
  3 59  1  0
  5 60  1  0
  6 61  1  0
  9 62  1  0
 24 63  1  0
 26 64  1  0
 27 65  1  0
 28 66  1  0
 33 67  1  0
 34 68  1  0
 34 69  1  0
 35 70  1  0
 35 71  1  0
 36 72  1  0
 36 73  1  0
 37 74  1  6
 38 75  1  1
 40 76  1  0
 41 77  1  0
 42 78  1  0
 47 79  1  0
 48 80  1  0
 51 81  1  0
 52 82  1  0
M  CHG  4  30   1  32  -1  44   1  46  -1
M  END
>  <Binding energies>  (1) 
[-12.08]

>  <Ligand effiencies>  (1) 
[-0.2323076923076923]

>  <Interactions>  (1) 
["V-B:PRO:540:CA:9855, V-B:HIS:456:CD2:9039, V-B:GLU:543:C:9874, V-A:GLU:543:C:4902, V-B:HIS:456:CB:9036, V-B:ALA:541:CB:9864, V-B:TYR:539:CE2:9848, V-A:TYR:484:CE2:4346, V-B:GLU:543:CG:9879, V-B:TYR:539:C:9839, V-A:ASP:366:CG:3213, V-B:LYS:547:CE:9922, H-B:ALA:541:N:9863, V-A:GLU:543:CD:4908, V-A:TYR:484:CZ:4347, V-B:PRO:540:CB:9857, V-B:HIS:456:CE1:9041, V-B:PRO:540:N:9856, V-A:HIS:456:CE1:4070, V-B:GLY:544:C:9884, V-B:TYR:539:CD2:9846, V-A:GLU:543:CG:4907, V-B:GLU:543:CD:9880, V-B:HIS:456:CG:9037, V-A:TYR:539:C:4867, V-A:ASP:366:CB:3212, V-A:LEU:475:CD2:4259, H-A:ARG:545:NH2:4928, V-A:GLU:543:CB:4906, V-A:PRO:540:N:4884, H-A:TYR:539:N:4870, V-A:PRO:540:CB:4885, V-A:PRO:540:CA:4883, V-B:PRO:540:C:9853, H-A:TYR:484:OH:4348"]

$$$$
ZINC2297469923
     RDKit          3D

 91 97  0  0  0  0  0  0  0  0999 V2000
  127.8490  128.5590   64.7490 C   0  0  0  0  0  0  0  0  0  0  0  0
  128.7250  128.1780   65.9530 C   0  0  2  0  0  0  0  0  0  0  0  0
  128.8090  126.7490   66.0350 O   0  0  0  0  0  0  0  0  0  0  0  0
  129.7870  126.3180   66.9570 C   0  0  2  0  0  0  0  0  0  0  0  0
  129.8570  124.9260   66.9760 O   0  0  0  0  0  0  0  0  0  0  0  0
  130.5300  124.3160   65.8750 C   0  0  2  0  0  0  0  0  0  0  0  0
  131.5960  125.2900   65.3520 C   0  0  0  0  0  0  0  0  0  0  0  0
  132.3250  124.6830   64.1360 C   0  0  0  0  0  0  0  0  0  0  0  0
  131.3860  124.2610   62.9340 C   0  0  2  0  0  0  0  0  0  0  0  0
  132.2320  123.4700   61.8830 C   0  0  0  0  0  0  0  0  0  0  0  0
  132.1570  122.2150   61.6700 N   0  0  0  0  0  0  0  0  0  0  0  0
  133.0120  121.6540   60.6390 C   0  0  0  0  0  0  0  0  0  0  0  0
  132.4420  120.3190   60.1910 C   0  0  0  0  0  0  0  0  0  0  0  0
  131.3570  119.5320   60.5690 C   0  0  0  0  0  0  0  0  0  0  0  0
  131.3670  118.3980   59.7550 C   0  0  0  0  0  0  0  0  0  0  0  0
  132.4550  118.5380   58.9130 C   0  0  0  0  0  0  0  0  0  0  0  0
  133.1050  119.7010   59.1780 O   0  0  0  0  0  0  0  0  0  0  0  0
  130.7490  125.5360   62.2200 C   0  0  1  0  0  0  0  0  0  0  0  0
  131.7950  126.4860   61.5670 C   0  0  0  0  0  0  0  0  0  0  0  0
  131.1400  127.7680   61.0360 C   0  0  0  0  0  0  0  0  0  0  0  0
  130.0680  127.4890   59.9380 C   0  0  2  0  0  0  0  0  0  0  0  0
  130.7740  127.0480   58.6240 C   0  0  0  0  0  0  0  0  0  0  0  0
  129.1520  128.7260   59.6940 C   0  0  2  0  0  0  0  0  0  0  0  0
  129.8470  130.0600   59.4260 C   0  0  0  0  0  0  0  0  0  0  0  0
  129.8490  130.8070   58.3150 C   0  0  0  0  0  0  0  0  0  0  0  0
  130.6310  132.0030   58.5350 C   0  0  0  0  0  0  0  0  0  0  0  0
  130.8500  132.9040   57.7280 O   0  0  0  0  0  0  0  0  0  0  0  0
  131.0870  131.9770   59.7900 O   0  0  0  0  0  0  0  0  0  0  0  0
  130.6540  130.8130   60.4570 C   0  0  0  0  0  0  0  0  0  0  0  0
  128.1370  128.7430   60.8540 C   0  0  0  0  0  0  0  0  0  0  0  0
  128.0720  127.2950   61.3700 C   0  0  0  0  0  0  0  0  0  0  0  0
  129.0170  126.4490   60.4780 C   0  0  1  0  0  0  0  0  0  0  0  0
  128.2610  125.9280   59.3860 O   0  0  0  0  0  0  0  0  0  0  0  0
  129.6580  125.1740   61.1500 C   0  0  2  0  0  0  0  0  0  0  0  0
  128.5730  124.2550   61.7790 C   0  0  0  0  0  0  0  0  0  0  0  0
  129.1550  122.9830   62.4200 C   0  0  0  0  0  0  0  0  0  0  0  0
  130.2330  123.3080   63.4920 C   0  0  1  0  0  0  0  0  0  0  0  0
  130.7400  122.0690   63.9800 O   0  0  0  0  0  0  0  0  0  0  0  0
  129.5510  123.9930   64.7260 C   0  0  0  0  0  0  0  0  0  0  0  0
  129.3860  126.7580   68.3720 C   0  0  0  0  0  0  0  0  0  0  0  0
  129.1710  128.2860   68.4170 C   0  0  2  0  0  0  0  0  0  0  0  0
  128.7670  128.7120   69.7040 O   0  0  0  0  0  0  0  0  0  0  0  0
  128.1970  128.7290   67.3010 C   0  0  2  0  0  0  0  0  0  0  0  0
  126.8760  128.2840   67.5700 O   0  0  0  0  0  0  0  0  0  0  0  0
  126.8950  128.9739   65.1064 H   0  0  0  0  0  0  0  0  0  0  0  0
  128.3707  129.3115   64.1395 H   0  0  0  0  0  0  0  0  0  0  0  0
  127.6543  127.6643   64.1395 H   0  0  0  0  0  0  0  0  0  0  0  0
  129.7123  128.6333   65.7861 H   0  0  0  0  0  0  0  0  0  0  0  0
  130.7518  126.7521   66.6558 H   0  0  0  0  0  0  0  0  0  0  0  0
  130.9841  123.3757   66.2208 H   0  0  0  0  0  0  0  0  0  0  0  0
  131.1118  126.2311   65.0522 H   0  0  0  0  0  0  0  0  0  0  0  0
  132.3287  125.4808   66.1499 H   0  0  0  0  0  0  0  0  0  0  0  0
  133.0433  125.4276   63.7624 H   0  0  0  0  0  0  0  0  0  0  0  0
  132.8004  123.7577   64.4936 H   0  0  0  0  0  0  0  0  0  0  0  0
  132.9503  124.0430   61.2782 H   0  0  0  0  0  0  0  0  0  0  0  0
  133.0552  122.3421   59.7819 H   0  0  0  0  0  0  0  0  0  0  0  0
  134.0265  121.5080   61.0384 H   0  0  0  0  0  0  0  0  0  0  0  0
  130.6285  119.7611   61.3607 H   0  0  0  0  0  0  0  0  0  0  0  0
  130.6531  117.5614   59.7786 H   0  0  0  0  0  0  0  0  0  0  0  0
  132.7511  117.8128   58.1407 H   0  0  0  0  0  0  0  0  0  0  0  0
  130.2687  126.0714   63.0523 H   0  0  0  0  0  0  0  0  0  0  0  0
  132.5504  126.7564   62.3195 H   0  0  0  0  0  0  0  0  0  0  0  0
  132.2564  125.9587   60.7190 H   0  0  0  0  0  0  0  0  0  0  0  0
  130.6561  128.2890   61.8753 H   0  0  0  0  0  0  0  0  0  0  0  0
  131.9317  128.3792   60.5781 H   0  0  0  0  0  0  0  0  0  0  0  0
  131.6835  126.4799   58.8693 H   0  0  0  0  0  0  0  0  0  0  0  0
  130.0931  126.4144   58.0368 H   0  0  0  0  0  0  0  0  0  0  0  0
  131.0447  127.9379   58.0368 H   0  0  0  0  0  0  0  0  0  0  0  0
  128.6447  128.6066   58.7253 H   0  0  0  0  0  0  0  0  0  0  0  0
  129.3341  130.5500   57.3775 H   0  0  0  0  0  0  0  0  0  0  0  0
  131.5142  130.2137   60.7900 H   0  0  0  0  0  0  0  0  0  0  0  0
  130.0675  131.0431   61.3587 H   0  0  0  0  0  0  0  0  0  0  0  0
  128.4772  129.4197   61.6517 H   0  0  0  0  0  0  0  0  0  0  0  0
  127.1505  129.1022   60.5257 H   0  0  0  0  0  0  0  0  0  0  0  0
  128.4044  127.2527   62.4177 H   0  0  0  0  0  0  0  0  0  0  0  0
  127.0427  126.9096   61.3248 H   0  0  0  0  0  0  0  0  0  0  0  0
  128.6380  125.0830   59.1300 H   0  0  0  0  0  0  0  0  0  0  0  0
  130.1605  124.6246   60.3403 H   0  0  0  0  0  0  0  0  0  0  0  0
  128.0388  124.8243   62.5540 H   0  0  0  0  0  0  0  0  0  0  0  0
  127.9037  123.9354   60.9667 H   0  0  0  0  0  0  0  0  0  0  0  0
  128.3386  122.4211   62.8972 H   0  0  0  0  0  0  0  0  0  0  0  0
  129.6351  122.3929   61.6254 H   0  0  0  0  0  0  0  0  0  0  0  0
  131.3600  121.7190   63.3370 H   0  0  0  0  0  0  0  0  0  0  0  0
  129.0878  124.9324   64.3899 H   0  0  0  0  0  0  0  0  0  0  0  0
  128.8132  123.2801   65.1227 H   0  0  0  0  0  0  0  0  0  0  0  0
  128.4525  126.2516   68.6586 H   0  0  0  0  0  0  0  0  0  0  0  0
  130.1908  126.4891   69.0720 H   0  0  0  0  0  0  0  0  0  0  0  0
  130.1320  128.7838   68.2204 H   0  0  0  0  0  0  0  0  0  0  0  0
  129.1090  129.5960   69.8540 H   0  0  0  0  0  0  0  0  0  0  0  0
  128.1507  129.8270   67.2538 H   0  0  0  0  0  0  0  0  0  0  0  0
  126.7240  127.4730   67.0780 H   0  0  0  0  0  0  0  0  0  0  0  0
  1  2  1  0
  2  3  1  0
  3  4  1  0
  4  5  1  0
  5  6  1  0
  6  7  1  0
  7  8  1  0
  8  9  1  0
  9 10  1  6
 10 11  2  0
 11 12  1  0
 12 13  1  0
 13 14  2  0
 14 15  1  0
 15 16  2  0
 16 17  1  0
  9 18  1  0
 18 19  1  0
 19 20  1  0
 20 21  1  0
 21 22  1  6
 21 23  1  0
 23 24  1  0
 24 25  2  0
 25 26  1  0
 26 27  2  0
 26 28  1  0
 28 29  1  0
 23 30  1  0
 30 31  1  0
 31 32  1  0
 32 33  1  6
 32 34  1  0
 34 35  1  0
 35 36  1  0
 36 37  1  0
 37 38  1  1
 37 39  1  0
  4 40  1  0
 40 41  1  0
 41 42  1  0
 41 43  1  0
 43 44  1  0
 43  2  1  0
 39  6  1  0
 37  9  1  0
 17 13  1  0
 34 18  1  0
 32 21  1  0
 29 24  1  0
  1 45  1  0
  1 46  1  0
  1 47  1  0
  2 48  1  6
  4 49  1  6
  6 50  1  1
  7 51  1  0
  7 52  1  0
  8 53  1  0
  8 54  1  0
 10 55  1  0
 12 56  1  0
 12 57  1  0
 14 58  1  0
 15 59  1  0
 16 60  1  0
 18 61  1  1
 19 62  1  0
 19 63  1  0
 20 64  1  0
 20 65  1  0
 22 66  1  0
 22 67  1  0
 22 68  1  0
 23 69  1  6
 25 70  1  0
 29 71  1  0
 29 72  1  0
 30 73  1  0
 30 74  1  0
 31 75  1  0
 31 76  1  0
 33 77  1  0
 34 78  1  6
 35 79  1  0
 35 80  1  0
 36 81  1  0
 36 82  1  0
 38 83  1  0
 39 84  1  0
 39 85  1  0
 40 86  1  0
 40 87  1  0
 41 88  1  6
 42 89  1  0
 43 90  1  6
 44 91  1  0
M  END
>  <Binding energies>  (1) 
[-7.98]

>  <Ligand effiencies>  (1) 
[-0.16625]

>  <Interactions>  (1) 
["V-A:ILE:369:CG2:3237, V-B:GLU:543:CB:9878, V-B:ALA:541:CB:9864, V-B:TYR:539:CE2:9848, V-A:TYR:484:CE2:4346, V-B:GLU:543:CG:9879, V-A:ASP:366:CG:3213, V-B:TYR:539:CB:9843, V-A:TYR:484:CZ:4347, V-A:GLU:543:CD:4908, V-B:HIS:456:CE1:9041, V-A:HIS:456:CE1:4070, H-B:HIS:456:NE2:9042, V-B:TYR:539:CD2:9846, V-A:GLU:543:CG:4907, V-A:SER:385:CB:3409, H-A:SER:385:OG:3410, V-B:GLU:543:CD:9880, V-A:LEU:475:CD2:4259, V-B:TYR:539:CG:9844, V-A:GLU:543:CB:4906, V-A:HIS:383:CD2:3392, V-A:PRO:540:N:4884, H-A:TYR:539:N:4870, H-B:GLU:543:OE2:9882, V-A:PRO:540:CB:4885, V-A:PRO:540:CA:4883, V-A:HIS:383:NE2:3394, H-A:TYR:484:OH:4348, H-A:GLU:543:O:4903"]

$$$$
ZINC2297633239
     RDKit          3D

 75 80  0  0  0  0  0  0  0  0999 V2000
  130.6560  132.5630   57.0010 C   0  0  0  0  0  0  0  0  0  0  0  0
  129.9340  133.0250   58.1380 O   0  0  0  0  0  0  0  0  0  0  0  0
  128.9960  132.2010   58.7320 C   0  0  0  0  0  0  0  0  0  0  0  0
  127.7760  131.8350   58.1240 C   0  0  0  0  0  0  0  0  0  0  0  0
  126.8580  130.9880   58.7750 C   0  0  0  0  0  0  0  0  0  0  0  0
  125.6470  130.5820   58.2500 O   0  0  0  0  0  0  0  0  0  0  0  0
  125.4170  130.7160   56.8520 C   0  0  0  0  0  0  0  0  0  0  0  0
  127.1840  130.5090   60.0460 C   0  0  0  0  0  0  0  0  0  0  0  0
  128.3780  130.8670   60.6430 C   0  0  0  0  0  0  0  0  0  0  0  0
  129.2910  131.7070   60.0110 C   0  0  0  0  0  0  0  0  0  0  0  0
  130.7710  132.1260   60.8040 Cl  0  0  0  0  0  0  0  0  0  0  0  0
  128.5620  130.3330   61.8920 O   0  0  0  0  0  0  0  0  0  0  0  0
  127.4370  129.5010   62.1830 C   0  0  1  0  0  0  0  0  0  0  0  0
  128.0620  128.0780   62.3000 C   0  0  0  0  0  0  0  0  0  0  0  0
  128.0770  127.2960   61.3430 O   0  0  0  0  0  0  0  0  0  0  0  0
  128.6590  127.6950   63.6040 C   0  0  0  0  0  0  0  0  0  0  0  0
  129.5570  126.6720   63.6180 C   0  0  0  0  0  0  0  0  0  0  0  0
  130.2690  126.1220   64.6620 N   0  0  0  0  0  0  0  0  0  0  0  0
  130.4570  124.6940   64.8690 C   0  0  0  0  0  0  0  0  0  0  0  0
  131.0870  123.9930   63.6440 C   0  0  0  0  0  0  0  0  0  0  0  0
  132.5740  124.3330   63.4020 C   0  0  0  0  0  0  0  0  0  0  0  0
  133.3940  124.0750   64.2860 O   0  0  0  0  0  0  0  0  0  0  0  0
  132.9420  124.8940   62.2170 N   0  0  0  0  0  0  0  0  0  0  0  0
  132.1520  125.9940   61.6210 C   0  0  0  0  0  0  0  0  0  0  0  0
  131.4880  125.4950   60.2990 C   0  0  1  0  0  0  0  0  0  0  0  0
  132.5820  125.0210   59.3460 C   0  0  0  0  0  0  0  0  0  0  0  0
  133.3510  123.8860   60.0290 C   0  0  1  0  0  0  0  0  0  0  0  0
  134.0170  124.3630   61.3480 C   0  0  0  0  0  0  0  0  0  0  0  0
  132.4440  122.6740   60.2840 C   0  0  0  0  0  0  0  0  0  0  0  0
  132.9800  121.4550   60.5240 C   0  0  0  0  0  0  0  0  0  0  0  0
  132.1000  120.3620   60.8680 C   0  0  0  0  0  0  0  0  0  0  0  0
  130.7820  120.6050   61.0090 C   0  0  0  0  0  0  0  0  0  0  0  0
  130.2040  121.9410   60.9110 C   0  0  0  0  0  0  0  0  0  0  0  0
  129.0260  122.1190   61.2300 O   0  0  0  0  0  0  0  0  0  0  0  0
  131.0740  122.9380   60.5030 N   0  0  0  0  0  0  0  0  0  0  0  0
  130.4930  124.3190   60.5270 C   0  0  0  0  0  0  0  0  0  0  0  0
  128.2880  128.4060   64.8530 C   0  0  0  0  0  0  0  0  0  0  0  0
  128.4990  127.9420   65.9750 O   0  0  0  0  0  0  0  0  0  0  0  0
  127.6950  129.8150   64.7250 C   0  0  0  0  0  0  0  0  0  0  0  0
  126.7710  130.0040   63.5030 C   0  0  1  0  0  0  0  0  0  0  0  0
  126.2180  131.4460   63.5160 C   0  0  0  0  0  0  0  0  0  0  0  0
  126.4780  129.6270   60.9800 C   0  0  0  0  0  0  0  0  0  0  0  0
  125.3720  129.1020   60.8450 O   0  0  0  0  0  0  0  0  0  0  0  0
  131.5395  131.9977   57.3325 H   0  0  0  0  0  0  0  0  0  0  0  0
  130.0091  131.9107   56.3961 H   0  0  0  0  0  0  0  0  0  0  0  0
  130.9772  133.4237   56.3961 H   0  0  0  0  0  0  0  0  0  0  0  0
  127.5372  132.2191   57.1213 H   0  0  0  0  0  0  0  0  0  0  0  0
  124.4775  131.2634   56.6858 H   0  0  0  0  0  0  0  0  0  0  0  0
  126.2500  131.2701   56.3948 H   0  0  0  0  0  0  0  0  0  0  0  0
  125.3458  129.7181   56.3948 H   0  0  0  0  0  0  0  0  0  0  0  0
  129.7447  126.2097   62.6377 H   0  0  0  0  0  0  0  0  0  0  0  0
  130.3810  126.6680   65.5060 H   0  0  0  0  0  0  0  0  0  0  0  0
  131.1173  124.5478   65.7366 H   0  0  0  0  0  0  0  0  0  0  0  0
  129.4650  124.2481   65.0340 H   0  0  0  0  0  0  0  0  0  0  0  0
  131.0031  122.9060   63.7902 H   0  0  0  0  0  0  0  0  0  0  0  0
  130.5375  124.3538   62.7620 H   0  0  0  0  0  0  0  0  0  0  0  0
  131.3708  126.3102   62.3279 H   0  0  0  0  0  0  0  0  0  0  0  0
  132.8128  126.8459   61.4027 H   0  0  0  0  0  0  0  0  0  0  0  0
  130.9190  126.3389   59.8819 H   0  0  0  0  0  0  0  0  0  0  0  0
  132.1300  124.6556   58.4121 H   0  0  0  0  0  0  0  0  0  0  0  0
  133.2627  125.8508   59.1052 H   0  0  0  0  0  0  0  0  0  0  0  0
  134.1515  123.5741   59.3421 H   0  0  0  0  0  0  0  0  0  0  0  0
  134.5187  123.5186   61.8432 H   0  0  0  0  0  0  0  0  0  0  0  0
  134.7720  125.1369   61.1454 H   0  0  0  0  0  0  0  0  0  0  0  0
  134.0669  121.2989   60.4583 H   0  0  0  0  0  0  0  0  0  0  0  0
  132.4996  119.3474   61.0126 H   0  0  0  0  0  0  0  0  0  0  0  0
  130.1106  119.7565   61.2072 H   0  0  0  0  0  0  0  0  0  0  0  0
  129.7261  124.3727   59.7403 H   0  0  0  0  0  0  0  0  0  0  0  0
  130.1094  124.4559   61.5488 H   0  0  0  0  0  0  0  0  0  0  0  0
  127.1131  130.0282   65.6338 H   0  0  0  0  0  0  0  0  0  0  0  0
  128.5422  130.5035   64.5901 H   0  0  0  0  0  0  0  0  0  0  0  0
  125.8853  129.3545   63.5630 H   0  0  0  0  0  0  0  0  0  0  0  0
  126.0898  131.7802   64.5561 H   0  0  0  0  0  0  0  0  0  0  0  0
  126.9237  132.1140   63.0006 H   0  0  0  0  0  0  0  0  0  0  0  0
  125.2466  131.4708   63.0006 H   0  0  0  0  0  0  0  0  0  0  0  0
  1  2  1  0
  2  3  1  0
  3  4  1  0
  4  5  2  0
  5  6  1  0
  6  7  1  0
  5  8  1  0
  8  9  2  0
  9 10  1  0
 10 11  1  0
  9 12  1  0
 13 12  1  6
 13 14  1  0
 14 15  2  0
 14 16  1  0
 16 17  2  0
 17 18  1  0
 18 19  1  0
 19 20  1  0
 20 21  1  0
 21 22  2  0
 21 23  1  0
 23 24  1  0
 24 25  1  0
 25 26  1  0
 26 27  1  0
 27 28  1  0
 27 29  1  0
 29 30  2  0
 30 31  1  0
 31 32  2  0
 32 33  1  0
 33 34  2  0
 33 35  1  0
 35 36  1  0
 16 37  1  0
 37 38  2  0
 37 39  1  0
 39 40  1  0
 40 41  1  0
 13 42  1  0
 42 43  2  0
 10  3  2  0
 40 13  1  0
 42  8  1  0
 28 23  1  0
 35 29  1  0
 36 25  1  0
  1 44  1  0
  1 45  1  0
  1 46  1  0
  4 47  1  0
  7 48  1  0
  7 49  1  0
  7 50  1  0
 17 51  1  0
 18 52  1  0
 19 53  1  0
 19 54  1  0
 20 55  1  0
 20 56  1  0
 24 57  1  0
 24 58  1  0
 25 59  1  6
 26 60  1  0
 26 61  1  0
 27 62  1  6
 28 63  1  0
 28 64  1  0
 30 65  1  0
 31 66  1  0
 32 67  1  0
 36 68  1  0
 36 69  1  0
 39 70  1  0
 39 71  1  0
 40 72  1  1
 41 73  1  0
 41 74  1  0
 41 75  1  0
M  END
>  <Binding energies>  (1) 
[-8.31]

>  <Ligand effiencies>  (1) 
[-0.18886363636363637]

>  <Interactions>  (1) 
["V-A:ILE:369:CG2:3237, H-A:GLU:543:OE2:4910, V-A:PRO:540:C:4881, V-B:TYR:539:CE2:9848, V-B:GLU:543:CG:9879, V-A:ASP:366:CG:3213, V-A:TYR:539:CD1:4873, V-A:TYR:539:CZ:4877, V-B:TYR:531:CZ:9766, V-A:GLU:543:CD:4908, H-A:GLY:454:N:4050, V-A:ILE:369:CD1:3239, V-B:TYR:539:CD2:9846, V-A:GLU:543:CG:4907, V-A:SER:385:CB:3409, V-B:GLU:543:CD:9880, H-B:TYR:531:OH:9767, V-A:ASP:366:CB:3212, V-A:LEU:475:CD2:4259, H-A:GLU:543:OE1:4909, H-A:TYR:539:N:4870, V-A:PRO:540:CB:4885, V-A:PRO:540:CA:4883, V-A:TYR:539:CE1:4875, H-A:TYR:484:OH:4348"]

$$$$
ZINC2297633265
     RDKit          3D

 63 67  0  0  0  0  0  0  0  0999 V2000
  130.6160  118.7880   61.0490 C   0  0  0  0  0  0  0  0  0  0  0  0
  131.3770  119.9780   61.2250 O   0  0  0  0  0  0  0  0  0  0  0  0
  130.7840  121.2070   60.9940 C   0  0  0  0  0  0  0  0  0  0  0  0
  129.4600  121.3650   60.5330 C   0  0  0  0  0  0  0  0  0  0  0  0
  128.9080  122.6410   60.3160 C   0  0  0  0  0  0  0  0  0  0  0  0
  127.6220  122.8820   59.8700 O   0  0  0  0  0  0  0  0  0  0  0  0
  127.3830  122.9940   58.4720 C   0  0  0  0  0  0  0  0  0  0  0  0
  129.7050  123.7610   60.5670 C   0  0  0  0  0  0  0  0  0  0  0  0
  131.0020  123.6070   61.0210 C   0  0  0  0  0  0  0  0  0  0  0  0
  131.5590  122.3500   61.2410 C   0  0  0  0  0  0  0  0  0  0  0  0
  133.1850  122.2140   61.8140 Cl  0  0  0  0  0  0  0  0  0  0  0  0
  131.6620  124.7890   61.2350 O   0  0  0  0  0  0  0  0  0  0  0  0
  130.7680  125.8560   60.9030 C   0  0  2  0  0  0  0  0  0  0  0  0
  131.4320  126.6060   59.7170 C   0  0  0  0  0  0  0  0  0  0  0  0
  132.2010  126.0210   58.9460 O   0  0  0  0  0  0  0  0  0  0  0  0
  131.1080  128.0470   59.5440 C   0  0  0  0  0  0  0  0  0  0  0  0
  131.3660  128.6110   58.3330 C   0  0  0  0  0  0  0  0  0  0  0  0
  131.2190  129.9130   57.9020 N   0  0  0  0  0  0  0  0  0  0  0  0
  132.2480  130.6000   57.1370 C   0  0  0  0  0  0  0  0  0  0  0  0
  132.1050  132.1340   57.1460 C   0  0  0  0  0  0  0  0  0  0  0  0
  130.7620  132.6020   57.6650 C   0  0  0  0  0  0  0  0  0  0  0  0
  129.8750  133.3700   57.0810 N   0  0  0  0  0  0  0  0  0  0  0  0
  128.9040  133.6300   58.0450 N   0  0  0  0  0  0  0  0  0  0  0  0
  129.2900  133.0090   59.1370 C   0  0  0  0  0  0  0  0  0  0  0  0
  128.6770  133.0230   60.5000 C   0  0  0  0  0  0  0  0  0  0  0  0
  127.3050  133.2870   60.6050 C   0  0  0  0  0  0  0  0  0  0  0  0
  126.6720  133.2920   61.8480 C   0  0  0  0  0  0  0  0  0  0  0  0
  127.4030  133.0230   63.0020 C   0  0  0  0  0  0  0  0  0  0  0  0
  128.7680  132.7560   62.9140 C   0  0  0  0  0  0  0  0  0  0  0  0
  129.4080  132.7520   61.6720 C   0  0  0  0  0  0  0  0  0  0  0  0
  130.7470  132.4570   61.6350 O   0  0  0  0  0  0  0  0  0  0  0  0
  130.4480  132.3250   58.9540 O   0  0  0  0  0  0  0  0  0  0  0  0
  130.5730  128.8520   60.6730 C   0  0  0  0  0  0  0  0  0  0  0  0
  130.5620  130.0840   60.6680 O   0  0  0  0  0  0  0  0  0  0  0  0
  129.9350  128.1060   61.8540 C   0  0  0  0  0  0  0  0  0  0  0  0
  130.5990  126.7480   62.1710 C   0  0  1  0  0  0  0  0  0  0  0  0
  129.9280  126.1120   63.4070 C   0  0  0  0  0  0  0  0  0  0  0  0
  129.4530  125.2000   60.4420 C   0  0  0  0  0  0  0  0  0  0  0  0
  128.4240  125.7610   60.0630 O   0  0  0  0  0  0  0  0  0  0  0  0
  130.3509  118.3734   62.0328 H   0  0  0  0  0  0  0  0  0  0  0  0
  129.6979  119.0194   60.4891 H   0  0  0  0  0  0  0  0  0  0  0  0
  131.2112  118.0516   60.4891 H   0  0  0  0  0  0  0  0  0  0  0  0
  128.8468  120.4726   60.3393 H   0  0  0  0  0  0  0  0  0  0  0  0
  126.3986  123.4553   58.3041 H   0  0  0  0  0  0  0  0  0  0  0  0
  128.1639  123.6199   58.0155 H   0  0  0  0  0  0  0  0  0  0  0  0
  127.4017  121.9934   58.0155 H   0  0  0  0  0  0  0  0  0  0  0  0
  131.7550  127.9158   57.5745 H   0  0  0  0  0  0  0  0  0  0  0  0
  130.6880  130.5410   58.4890 H   0  0  0  0  0  0  0  0  0  0  0  0
  133.2287  130.3400   57.5620 H   0  0  0  0  0  0  0  0  0  0  0  0
  132.1440  130.2732   56.0918 H   0  0  0  0  0  0  0  0  0  0  0  0
  132.8940  132.5554   57.7862 H   0  0  0  0  0  0  0  0  0  0  0  0
  132.1923  132.4778   56.1047 H   0  0  0  0  0  0  0  0  0  0  0  0
  126.7201  133.4928   59.6964 H   0  0  0  0  0  0  0  0  0  0  0  0
  125.5957  133.5084   61.9164 H   0  0  0  0  0  0  0  0  0  0  0  0
  126.9037  133.0212   63.9821 H   0  0  0  0  0  0  0  0  0  0  0  0
  129.3446  132.5473   63.8272 H   0  0  0  0  0  0  0  0  0  0  0  0
  130.9660  131.7890   60.9820 H   0  0  0  0  0  0  0  0  0  0  0  0
  130.0089  128.7441   62.7469 H   0  0  0  0  0  0  0  0  0  0  0  0
  128.8936  127.8930   61.5710 H   0  0  0  0  0  0  0  0  0  0  0  0
  131.6469  126.8932   62.4724 H   0  0  0  0  0  0  0  0  0  0  0  0
  130.3713  126.5322   64.3218 H   0  0  0  0  0  0  0  0  0  0  0  0
  128.8494  126.3271   63.3900 H   0  0  0  0  0  0  0  0  0  0  0  0
  130.0851  125.0234   63.3900 H   0  0  0  0  0  0  0  0  0  0  0  0
  1  2  1  0
  2  3  1  0
  3  4  2  0
  4  5  1  0
  5  6  1  0
  6  7  1  0
  5  8  2  0
  8  9  1  0
  9 10  2  0
 10 11  1  0
  9 12  1  0
 13 12  1  1
 13 14  1  0
 14 15  2  0
 14 16  1  0
 16 17  2  0
 17 18  1  0
 18 19  1  0
 19 20  1  0
 20 21  1  0
 21 22  2  0
 22 23  1  0
 23 24  2  0
 24 25  1  0
 25 26  2  0
 26 27  1  0
 27 28  2  0
 28 29  1  0
 29 30  2  0
 30 31  1  0
 24 32  1  0
 16 33  1  0
 33 34  2  0
 33 35  1  0
 35 36  1  0
 36 37  1  0
 13 38  1  0
 38 39  2  0
 10  3  1  0
 36 13  1  0
 38  8  1  0
 32 21  1  0
 30 25  1  0
  1 40  1  0
  1 41  1  0
  1 42  1  0
  4 43  1  0
  7 44  1  0
  7 45  1  0
  7 46  1  0
 17 47  1  0
 18 48  1  0
 19 49  1  0
 19 50  1  0
 20 51  1  0
 20 52  1  0
 26 53  1  0
 27 54  1  0
 28 55  1  0
 29 56  1  0
 31 57  1  0
 35 58  1  0
 35 59  1  0
 36 60  1  1
 37 61  1  0
 37 62  1  0
 37 63  1  0
M  END
>  <Binding energies>  (1) 
[-7.6]

>  <Ligand effiencies>  (1) 
[-0.18536585365853658]

>  <Interactions>  (1) 
["V-B:PRO:540:CA:9855, H-A:ALA:541:N:4891, V-A:PRO:540:C:4881, V-B:TYR:539:CE2:9848, V-B:LEU:475:CD2:9230, V-B:TYR:539:C:9839, V-A:ASP:366:CG:3213, V-A:LEU:363:CD1:3189, V-A:TYR:539:CD1:4873, V-A:TYR:531:CE2:4793, V-A:ALA:541:CB:4892, V-A:GLU:543:CD:4908, V-B:PRO:540:CB:9857, V-B:PRO:540:N:9856, V-B:TYR:539:CD2:9846, V-A:TYR:531:CZ:4794, H-A:SER:385:OG:3410, V-A:TYR:539:C:4867, V-A:ASP:366:CB:3212, V-A:LEU:475:CD2:4259, V-A:PRO:540:N:4884, H-A:TYR:539:N:4870, V-A:PRO:540:CB:4885, V-A:PRO:540:CA:4883, V-A:PRO:540:CD:4887, V-A:TYR:539:CE1:4875"]

$$$$
ZINC2297661939
     RDKit          3D

 73 76  0  0  0  0  0  0  0  0999 V2000
  131.6520  132.6250   56.4860 C   0  0  0  0  0  0  0  0  0  0  0  0
  131.4530  132.3630   57.7870 C   0  0  0  0  0  0  0  0  0  0  0  0
  132.2090  131.3100   58.5770 C   0  0  0  0  0  0  0  0  0  0  0  0
  131.4590  130.7330   59.6970 N   0  0  0  0  0  0  0  0  0  0  0  0
  131.4480  131.6640   60.8390 C   0  0  0  0  0  0  0  0  0  0  0  0
  132.5750  131.5640   61.8570 C   0  0  0  0  0  0  0  0  0  0  0  0
  133.5820  132.4340   62.0380 C   0  0  0  0  0  0  0  0  0  0  0  0
  130.0940  130.3810   59.2660 C   0  0  0  0  0  0  0  0  0  0  0  0
  129.9110  129.0270   58.5510 C   0  0  0  0  0  0  0  0  0  0  0  0
  130.0130  127.7870   59.1170 C   0  0  0  0  0  0  0  0  0  0  0  0
  130.4140  127.6210   60.5120 C   0  0  0  0  0  0  0  0  0  0  0  0
  131.2950  128.2230   61.1290 O   0  0  0  0  0  0  0  0  0  0  0  0
  129.6140  126.5600   61.2960 C   0  0  0  0  0  0  0  0  0  0  0  0
  129.3380  126.8450   62.4630 O   0  0  0  0  0  0  0  0  0  0  0  0
  129.2820  125.3230   60.5800 C   0  0  0  0  0  0  0  0  0  0  0  0
  129.3140  125.2550   59.2070 C   0  0  0  0  0  0  0  0  0  0  0  0
  129.0310  123.8970   58.4810 C   0  0  2  0  0  0  0  0  0  0  0  0
  128.0260  124.0410   57.4790 O   0  0  0  0  0  0  0  0  0  0  0  0
  126.9950  123.1730   57.3620 C   0  0  0  0  0  0  0  0  0  0  0  0
  125.7360  123.6840   58.0480 C   0  0  0  0  0  0  0  0  0  0  0  0
  127.0150  122.0870   56.7790 O   0  0  0  0  0  0  0  0  0  0  0  0
  128.6190  122.7270   59.4210 C   0  0  0  0  0  0  0  0  0  0  0  0
  129.4020  122.7950   60.7400 C   0  0  2  0  0  0  0  0  0  0  0  0
  130.9470  122.6860   60.5200 C   0  0  0  0  0  0  0  0  0  0  0  0
  129.0510  121.7450   61.8120 C   0  0  0  0  0  0  0  0  0  0  0  0
  128.7040  120.5830   61.6110 O   0  0  0  0  0  0  0  0  0  0  0  0
  129.1800  122.4210   63.1870 C   0  0  0  0  0  0  0  0  0  0  0  0
  129.4160  123.9080   62.8850 C   0  0  0  0  0  0  0  0  0  0  0  0
  128.9370  124.0850   61.4400 C   0  0  1  0  0  0  0  0  0  0  0  0
  129.7160  126.4870   58.3090 C   0  0  2  0  0  0  0  0  0  0  0  0
  131.0200  126.1000   57.5590 C   0  0  0  0  0  0  0  0  0  0  0  0
  128.6100  126.9020   57.2760 C   0  0  1  0  0  0  0  0  0  0  0  0
  127.1880  127.0750   57.8750 C   0  0  0  0  0  0  0  0  0  0  0  0
  127.1710  128.2340   58.6970 O   0  0  0  0  0  0  0  0  0  0  0  0
  126.4960  128.0420   59.9310 C   0  0  0  0  0  0  0  0  0  0  0  0
  128.9610  128.0730   56.5240 O   0  0  0  0  0  0  0  0  0  0  0  0
  129.4710  129.1810   57.1430 C   0  0  0  0  0  0  0  0  0  0  0  0
  129.5090  130.1920   56.4420 O   0  0  0  0  0  0  0  0  0  0  0  0
  131.0610  133.4063   55.9856 H   0  0  0  0  0  0  0  0  0  0  0  0
  132.4061  132.0585   55.9199 H   0  0  0  0  0  0  0  0  0  0  0  0
  130.6898  132.9515   58.3173 H   0  0  0  0  0  0  0  0  0  0  0  0
  132.4811  130.4951   57.8900 H   0  0  0  0  0  0  0  0  0  0  0  0
  133.0829  131.8153   59.0139 H   0  0  0  0  0  0  0  0  0  0  0  0
  131.4683  132.6844   60.4286 H   0  0  0  0  0  0  0  0  0  0  0  0
  130.5442  131.3927   61.4042 H   0  0  0  0  0  0  0  0  0  0  0  0
  132.5635  130.6834   62.5161 H   0  0  0  0  0  0  0  0  0  0  0  0
  134.3388  132.2456   62.8137 H   0  0  0  0  0  0  0  0  0  0  0  0
  133.6499  133.3349   61.4105 H   0  0  0  0  0  0  0  0  0  0  0  0
  129.4556  130.3718   60.1617 H   0  0  0  0  0  0  0  0  0  0  0  0
  129.8285  131.1385   58.5138 H   0  0  0  0  0  0  0  0  0  0  0  0
  129.9995  123.6310   58.0324 H   0  0  0  0  0  0  0  0  0  0  0  0
  125.8658  123.6313   59.1390 H   0  0  0  0  0  0  0  0  0  0  0  0
  125.5539  124.7272   57.7504 H   0  0  0  0  0  0  0  0  0  0  0  0
  124.8784  123.0628   57.7504 H   0  0  0  0  0  0  0  0  0  0  0  0
  127.5423  122.7969   59.6353 H   0  0  0  0  0  0  0  0  0  0  0  0
  128.8455  121.7733   58.9219 H   0  0  0  0  0  0  0  0  0  0  0  0
  131.4546  122.6502   61.4952 H   0  0  0  0  0  0  0  0  0  0  0  0
  131.1732  121.7697   59.9550 H   0  0  0  0  0  0  0  0  0  0  0  0
  131.2996  123.5615   59.9550 H   0  0  0  0  0  0  0  0  0  0  0  0
  128.2569  122.2878   63.7703 H   0  0  0  0  0  0  0  0  0  0  0  0
  129.9972  121.9880   63.7825 H   0  0  0  0  0  0  0  0  0  0  0  0
  128.8320  124.5414   63.5689 H   0  0  0  0  0  0  0  0  0  0  0  0
  130.4683  124.2003   63.0164 H   0  0  0  0  0  0  0  0  0  0  0  0
  127.8583  124.2818   61.5275 H   0  0  0  0  0  0  0  0  0  0  0  0
  131.8079  125.8662   58.2901 H   0  0  0  0  0  0  0  0  0  0  0  0
  130.8323  125.2189   56.9279 H   0  0  0  0  0  0  0  0  0  0  0  0
  131.3433  126.9409   56.9279 H   0  0  0  0  0  0  0  0  0  0  0  0
  128.5663  126.0373   56.5975 H   0  0  0  0  0  0  0  0  0  0  0  0
  126.4563  127.1888   57.0615 H   0  0  0  0  0  0  0  0  0  0  0  0
  126.9265  126.1902   58.4740 H   0  0  0  0  0  0  0  0  0  0  0  0
  127.1888  128.2391   60.7624 H   0  0  0  0  0  0  0  0  0  0  0  0
  125.6424  128.7330   59.9934 H   0  0  0  0  0  0  0  0  0  0  0  0
  126.1338  127.0052   59.9934 H   0  0  0  0  0  0  0  0  0  0  0  0
  1  2  2  0
  2  3  1  0
  3  4  1  0
  4  5  1  0
  5  6  1  0
  6  7  2  0
  4  8  1  0
  8  9  1  0
  9 10  2  0
 10 11  1  0
 11 12  2  0
 11 13  1  0
 13 14  2  0
 13 15  1  0
 15 16  2  0
 16 17  1  0
 17 18  1  0
 18 19  1  0
 19 20  1  0
 19 21  2  0
 17 22  1  0
 22 23  1  0
 23 24  1  6
 23 25  1  0
 25 26  2  0
 25 27  1  0
 27 28  1  0
 28 29  1  0
 16 30  1  0
 30 31  1  6
 30 32  1  0
 32 33  1  0
 33 34  1  0
 34 35  1  0
 32 36  1  0
 36 37  1  0
 37 38  2  0
 37  9  1  0
 30 10  1  0
 29 15  1  0
 29 23  1  0
  1 39  1  0
  1 40  1  0
  2 41  1  0
  3 42  1  0
  3 43  1  0
  5 44  1  0
  5 45  1  0
  6 46  1  0
  7 47  1  0
  7 48  1  0
  8 49  1  0
  8 50  1  0
 17 51  1  6
 20 52  1  0
 20 53  1  0
 20 54  1  0
 22 55  1  0
 22 56  1  0
 24 57  1  0
 24 58  1  0
 24 59  1  0
 27 60  1  0
 27 61  1  0
 28 62  1  0
 28 63  1  0
 29 64  1  1
 31 65  1  0
 31 66  1  0
 31 67  1  0
 32 68  1  6
 33 69  1  0
 33 70  1  0
 35 71  1  0
 35 72  1  0
 35 73  1  0
M  END
>  <Binding energies>  (1) 
[-7.1]

>  <Ligand effiencies>  (1) 
[-0.1868421052631579]

>  <Interactions>  (1) 
["V-B:PRO:540:CA:9855, V-A:ALA:541:C:4888, V-A:PRO:540:C:4881, V-A:ILE:538:CB:4862, V-B:ALA:541:CB:9864, V-B:ASP:366:CG:8184, H-A:TYR:531:OH:4795, V-B:TYR:539:CE2:9848, H-B:TYR:539:N:9842, V-B:GLU:543:CG:9879, V-B:TYR:539:C:9839, V-A:ASN:362:CB:3176, V-A:ILE:538:CG2:4863, V-A:LEU:363:CD1:3189, V-B:TYR:539:CZ:9849, H-B:ALA:541:N:9863, V-B:PRO:540:CB:9857, V-B:PRO:540:N:9856, V-B:TYR:539:CD2:9846, V-A:MET:535:CE:4835, H-B:TYR:531:OH:9767, H-A:ARG:545:NH2:4928, V-A:PRO:540:N:4884, V-A:PRO:540:CB:4885, V-A:PRO:540:CA:4883, V-B:PRO:540:C:9853, V-A:PRO:540:CD:4887"]

$$$$
ZINC2297738318-again1
     RDKit          3D

 40 42  0  0  0  0  0  0  0  0999 V2000
  127.9700  128.9560   65.2380 C   0  0  0  0  0  0  0  0  0  0  0  0
  127.8800  128.6120   66.7410 C   0  0  0  0  0  0  0  0  0  0  0  0
  128.3370  129.8050   67.6010 C   0  0  0  0  0  0  0  0  0  0  0  0
  128.6490  127.3440   67.1120 C   0  0  0  0  0  0  0  0  0  0  0  0
  129.4960  126.6290   66.2860 N   0  0  0  0  0  0  0  0  0  0  0  0
  130.0330  125.5560   66.9670 C   0  0  0  0  0  0  0  0  0  0  0  0
  129.5140  125.6020   68.2510 C   0  0  0  0  0  0  0  0  0  0  0  0
  128.6660  126.7000   68.3450 N   0  0  0  0  0  0  0  0  0  0  0  0
  127.9160  127.0740   69.5440 C   0  0  0  0  0  0  0  0  0  0  0  0
  128.7660  126.8890   70.8250 C   0  0  0  0  0  0  0  0  0  0  0  0
  129.6850  128.0580   71.1490 C   0  0  0  0  0  0  0  0  0  0  0  0
  129.0300  128.2520   72.4440 N   0  0  0  0  0  0  0  0  0  0  0  0
  128.9390  129.4040   73.2510 C   0  0  0  0  0  0  0  0  0  0  0  0
  129.8180  130.3960   72.9340 N   0  0  0  0  0  0  0  0  0  0  0  0
  129.8330  131.5200   73.6960 C   0  0  0  0  0  0  0  0  0  0  0  0
  128.9830  131.6590   74.7920 C   0  0  0  0  0  0  0  0  0  0  0  0
  128.1160  130.6760   75.1410 N   0  0  0  0  0  0  0  0  0  0  0  0
  128.0970  129.5480   74.3810 C   0  0  0  0  0  0  0  0  0  0  0  0
  127.1530  128.5420   74.8520 C   0  0  0  0  0  0  0  0  0  0  0  0
  126.4030  127.7430   75.2240 N   0  0  0  0  0  0  0  0  0  0  0  0
  128.0570  127.2030   72.1370 C   0  0  0  0  0  0  0  0  0  0  0  0
  128.2468  130.0140   65.1200 H   0  0  0  0  0  0  0  0  0  0  0  0
  128.7325  128.3222   64.7618 H   0  0  0  0  0  0  0  0  0  0  0  0
  126.9947  128.7768   64.7618 H   0  0  0  0  0  0  0  0  0  0  0  0
  126.8208  128.4047   66.9533 H   0  0  0  0  0  0  0  0  0  0  0  0
  128.2386  129.5482   68.6661 H   0  0  0  0  0  0  0  0  0  0  0  0
  129.3881  130.0382   67.3756 H   0  0  0  0  0  0  0  0  0  0  0  0
  127.7107  130.6807   67.3756 H   0  0  0  0  0  0  0  0  0  0  0  0
  129.6940  126.8620   65.3220 H   0  0  0  0  0  0  0  0  0  0  0  0
  130.7359  124.8097   66.5685 H   0  0  0  0  0  0  0  0  0  0  0  0
  129.7355  124.8899   69.0596 H   0  0  0  0  0  0  0  0  0  0  0  0
  127.6159  128.1292   69.4633 H   0  0  0  0  0  0  0  0  0  0  0  0
  127.0340  126.4208   69.6174 H   0  0  0  0  0  0  0  0  0  0  0  0
  129.1441  125.8813   70.5979 H   0  0  0  0  0  0  0  0  0  0  0  0
  130.7468  127.7810   71.2249 H   0  0  0  0  0  0  0  0  0  0  0  0
  129.7665  128.9002   70.4461 H   0  0  0  0  0  0  0  0  0  0  0  0
  130.5278  132.3347   73.4440 H   0  0  0  0  0  0  0  0  0  0  0  0
  129.0160  132.5844   75.3857 H   0  0  0  0  0  0  0  0  0  0  0  0
  128.0601  126.3695   72.8548 H   0  0  0  0  0  0  0  0  0  0  0  0
  126.9822  127.4372   72.1356 H   0  0  0  0  0  0  0  0  0  0  0  0
  1  2  1  0
  2  3  1  0
  2  4  1  0
  4  5  2  0
  5  6  1  0
  6  7  2  0
  7  8  1  0
  8  9  1  0
  9 10  1  0
 10 11  1  0
 11 12  1  0
 12 13  1  0
 13 14  2  0
 14 15  1  0
 15 16  2  0
 16 17  1  0
 17 18  2  0
 18 19  1  0
 19 20  3  0
 12 21  1  0
  8  4  1  0
 21 10  1  0
 18 13  1  0
  1 22  1  0
  1 23  1  0
  1 24  1  0
  2 25  1  0
  3 26  1  0
  3 27  1  0
  3 28  1  0
  5 29  1  0
  6 30  1  0
  7 31  1  0
  9 32  1  0
  9 33  1  0
 10 34  1  0
 11 35  1  0
 11 36  1  0
 15 37  1  0
 16 38  1  0
 21 39  1  0
 21 40  1  0
M  CHG  1   5   1
M  END
>  <Binding energies>  (1) 
[-6.08]

>  <Ligand effiencies>  (1) 
[-0.27636363636363637]

>  <Interactions>  (1) 
["V-A:GLU:543:CA:4904, V-B:GLU:543:C:9874, H-A:GLU:543:OE2:4910, V-B:HIS:456:CD2:9039, V-B:GLU:543:CB:9878, H-B:LYS:547:NZ:9923, V-A:GLY:544:CA:4914, V-B:GLU:543:CG:9879, V-B:TYR:484:CE2:9317, V-A:GLU:543:CD:4908, V-B:HIS:456:CE1:9041, V-B:GLU:543:CA:9876, V-A:HIS:456:CE1:4070, V-B:TYR:484:CZ:9318, V-A:GLU:543:CG:4907, V-B:GLU:543:CD:9880, H-A:LYS:547:NZ:4951, H-A:GLU:543:OE1:4909, V-A:GLU:543:CB:4906, V-A:LYS:547:CE:4950"]

$$$$
ZINC231419790
     RDKit          3D

 42 42  0  0  0  0  0  0  0  0999 V2000
  127.2350  122.5110   57.7100 C   0  0  0  0  0  0  0  0  0  0  0  0
  127.2260  123.5160   58.8880 C   0  0  0  0  0  0  0  0  0  0  0  0
  125.9020  124.3200   58.9230 C   0  0  0  0  0  0  0  0  0  0  0  0
  128.4110  124.4910   58.7360 C   0  0  0  0  0  0  0  0  0  0  0  0
  127.4770  122.8490   60.1370 O   0  0  0  0  0  0  0  0  0  0  0  0
  126.9370  123.1930   61.3470 C   0  0  0  0  0  0  0  0  0  0  0  0
  125.7510  123.0650   61.6480 O   0  0  0  0  0  0  0  0  0  0  0  0
  127.9010  123.7010   62.2140 N   0  0  0  0  0  0  0  0  0  0  0  0
  129.3290  123.8270   61.9000 C   0  0  1  0  0  0  0  0  0  0  0  0
  130.1370  124.2500   63.1300 C   0  0  0  0  0  0  0  0  0  0  0  0
  131.5680  123.8030   62.8240 C   0  0  0  0  0  0  0  0  0  0  0  0
  131.4310  122.5070   62.0020 C   0  0  2  0  0  0  0  0  0  0  0  0
  132.4770  122.3900   60.8770 C   0  0  0  0  0  0  0  0  0  0  0  0
  132.1090  123.2350   59.7960 O   0  0  0  0  0  0  0  0  0  0  0  0
  133.2330  124.3320   59.2260 S   0  0  0  0  0  0  0  0  0  0  0  0
  132.1240  125.8590   59.1510 C   0  0  0  0  0  0  0  0  0  0  0  0
  134.2370  124.5300   60.2750 O   0  0  0  0  0  0  0  0  0  0  0  0
  133.6280  123.9430   57.8670 O   0  0  0  0  0  0  0  0  0  0  0  0
  129.9740  122.4910   61.4880 C   0  0  0  0  0  0  0  0  0  0  0  0
  127.2442  121.4841   58.1042 H   0  0  0  0  0  0  0  0  0  0  0  0
  126.3355  122.6594   57.0945 H   0  0  0  0  0  0  0  0  0  0  0  0
  128.1317  122.6755   57.0945 H   0  0  0  0  0  0  0  0  0  0  0  0
  125.6087  124.4981   59.9681 H   0  0  0  0  0  0  0  0  0  0  0  0
  126.0448  125.2840   58.4129 H   0  0  0  0  0  0  0  0  0  0  0  0
  125.1125  123.7487   58.4129 H   0  0  0  0  0  0  0  0  0  0  0  0
  128.7717  124.7878   59.7319 H   0  0  0  0  0  0  0  0  0  0  0  0
  129.2239  123.9968   58.1838 H   0  0  0  0  0  0  0  0  0  0  0  0
  128.0826  125.3839   58.1838 H   0  0  0  0  0  0  0  0  0  0  0  0
  127.6020  123.9790   63.1370 H   0  0  0  0  0  0  0  0  0  0  0  0
  129.3578  124.5642   61.0841 H   0  0  0  0  0  0  0  0  0  0  0  0
  130.0919  125.3404   63.2681 H   0  0  0  0  0  0  0  0  0  0  0  0
  129.7497  123.8031   64.0575 H   0  0  0  0  0  0  0  0  0  0  0  0
  132.0945  124.5733   62.2414 H   0  0  0  0  0  0  0  0  0  0  0  0
  132.1493  123.6418   63.7438 H   0  0  0  0  0  0  0  0  0  0  0  0
  131.6363  121.6222   62.6225 H   0  0  0  0  0  0  0  0  0  0  0  0
  133.4625  122.6934   61.2601 H   0  0  0  0  0  0  0  0  0  0  0  0
  132.5234  121.3480   60.5275 H   0  0  0  0  0  0  0  0  0  0  0  0
  131.8845  126.1888   60.1727 H   0  0  0  0  0  0  0  0  0  0  0  0
  132.6475  126.6666   58.6183 H   0  0  0  0  0  0  0  0  0  0  0  0
  131.1941  125.6110   58.6183 H   0  0  0  0  0  0  0  0  0  0  0  0
  129.9622  122.3891   60.3928 H   0  0  0  0  0  0  0  0  0  0  0  0
  129.4194  121.6425   61.9151 H   0  0  0  0  0  0  0  0  0  0  0  0
  1  2  1  0
  2  3  1  0
  2  4  1  0
  2  5  1  0
  5  6  1  0
  6  7  2  0
  6  8  1  0
  8  9  1  0
  9 10  1  0
 10 11  1  0
 11 12  1  0
 12 13  1  0
 13 14  1  0
 14 15  1  0
 15 16  1  0
 15 17  2  0
 15 18  2  0
 12 19  1  0
 19  9  1  0
  1 20  1  0
  1 21  1  0
  1 22  1  0
  3 23  1  0
  3 24  1  0
  3 25  1  0
  4 26  1  0
  4 27  1  0
  4 28  1  0
  8 29  1  0
  9 30  1  6
 10 31  1  0
 10 32  1  0
 11 33  1  0
 11 34  1  0
 12 35  1  1
 13 36  1  0
 13 37  1  0
 16 38  1  0
 16 39  1  0
 16 40  1  0
 19 41  1  0
 19 42  1  0
M  END
>  <Binding energies>  (1) 
[-5.69]

>  <Ligand effiencies>  (1) 
[-0.28450000000000003]

>  <Interactions>  (1) 
["V-A:ILE:369:CG2:3237, V-A:ASP:366:CA:3210, V-B:PRO:540:CA:9855, V-B:TYR:539:CE2:9848, V-B:GLU:543:CG:9879, V-B:TYR:539:C:9839, V-A:ASP:366:CG:3213, H-B:GLU:543:OE1:9881, H-B:TYR:539:OH:9850, H-B:ALA:541:N:9863, V-B:PRO:540:CB:9857, V-B:PRO:540:N:9856, V-B:TYR:539:CD2:9846, V-B:PRO:540:CD:9859, V-B:GLU:543:CD:9880, V-A:ASP:366:CB:3212, V-A:LEU:475:CD2:4259, V-B:TYR:539:CG:9844, V-B:PRO:540:C:9853"]

$$$$
ZINC2314399667
     RDKit          3D

 64 68  0  0  0  0  0  0  0  0999 V2000
  125.6890  124.7240   57.4250 C   0  0  0  0  0  0  0  0  0  0  0  0
  126.5240  125.8620   57.9820 C   0  0  0  0  0  0  0  0  0  0  0  0
  127.4170  126.6440   57.1350 C   0  0  0  0  0  0  0  0  0  0  0  0
  128.1460  127.6590   57.6510 C   0  0  0  0  0  0  0  0  0  0  0  0
  128.0790  128.0150   59.0560 C   0  0  0  0  0  0  0  0  0  0  0  0
  128.7790  128.9800   59.5380 N   0  0  0  0  0  0  0  0  0  0  0  0
  128.6910  129.2860   60.8680 C   0  0  0  0  0  0  0  0  0  0  0  0
  129.5040  130.3310   61.2670 N   0  0  0  0  0  0  0  0  0  0  0  0
  128.9370  131.6800   61.4250 C   0  0  0  0  0  0  0  0  0  0  0  0
  129.8530  132.5810   62.2840 C   0  0  1  0  0  0  0  0  0  0  0  0
  129.8470  132.2480   63.7920 C   0  0  0  0  0  0  0  0  0  0  0  0
  131.1530  132.5910   61.7030 O   0  0  0  0  0  0  0  0  0  0  0  0
  131.7740  131.3110   61.6440 C   0  0  2  0  0  0  0  0  0  0  0  0
  133.1720  131.4740   61.0320 C   0  0  0  0  0  0  0  0  0  0  0  0
  130.8980  130.3540   60.8010 C   0  0  0  0  0  0  0  0  0  0  0  0
  127.8770  128.6120   61.7320 C   0  0  0  0  0  0  0  0  0  0  0  0
  127.7820  128.9470   63.1500 C   0  0  0  0  0  0  0  0  0  0  0  0
  128.3430  128.2130   64.1370 C   0  0  0  0  0  0  0  0  0  0  0  0
  129.3230  126.7610   63.9880 S   0  0  0  0  0  0  0  0  0  0  0  0
  129.4570  126.6030   65.7160 C   0  0  0  0  0  0  0  0  0  0  0  0
  130.3000  125.3030   66.3380 S   0  0  0  0  0  0  0  0  0  0  0  0
  128.8020  127.6450   66.3230 N   0  0  0  0  0  0  0  0  0  0  0  0
  128.7530  127.7790   67.8080 C   0  0  0  0  0  0  0  0  0  0  0  0
  127.6330  126.9630   68.5140 C   0  0  0  0  0  0  0  0  0  0  0  0
  127.6150  127.1280   70.0460 C   0  0  0  0  0  0  0  0  0  0  0  0
  128.9980  126.9020   70.6730 C   0  0  0  0  0  0  0  0  0  0  0  0
  130.0440  127.8450   70.0590 C   0  0  0  0  0  0  0  0  0  0  0  0
  130.1310  127.7040   68.5260 C   0  0  0  0  0  0  0  0  0  0  0  0
  128.1780  128.5600   65.5300 C   0  0  0  0  0  0  0  0  0  0  0  0
  127.5500  129.5390   65.9440 O   0  0  0  0  0  0  0  0  0  0  0  0
  127.0620  127.5020   61.2260 C   0  0  0  0  0  0  0  0  0  0  0  0
  126.3150  126.8620   61.9760 O   0  0  0  0  0  0  0  0  0  0  0  0
  127.2160  127.2620   59.8720 N   0  0  0  0  0  0  0  0  0  0  0  0
  126.4850  126.2260   59.2860 C   0  0  0  0  0  0  0  0  0  0  0  0
  125.2620  124.1421   58.2551 H   0  0  0  0  0  0  0  0  0  0  0  0
  124.8757  125.1338   56.8081 H   0  0  0  0  0  0  0  0  0  0  0  0
  126.3240  124.0712   56.8081 H   0  0  0  0  0  0  0  0  0  0  0  0
  127.4984  126.4054   56.0643 H   0  0  0  0  0  0  0  0  0  0  0  0
  128.8093  128.2317   56.9862 H   0  0  0  0  0  0  0  0  0  0  0  0
  128.8168  132.1361   60.4313 H   0  0  0  0  0  0  0  0  0  0  0  0
  127.9659  131.5894   61.9336 H   0  0  0  0  0  0  0  0  0  0  0  0
  129.4448  133.6023   62.2677 H   0  0  0  0  0  0  0  0  0  0  0  0
  129.8638  133.1815   64.3737 H   0  0  0  0  0  0  0  0  0  0  0  0
  128.9385  131.6789   64.0382 H   0  0  0  0  0  0  0  0  0  0  0  0
  130.7345  131.6465   64.0382 H   0  0  0  0  0  0  0  0  0  0  0  0
  131.8760  130.8796   62.6507 H   0  0  0  0  0  0  0  0  0  0  0  0
  133.9168  131.5608   61.8369 H   0  0  0  0  0  0  0  0  0  0  0  0
  133.4046  130.5969   60.4103 H   0  0  0  0  0  0  0  0  0  0  0  0
  133.1966  132.3811   60.4103 H   0  0  0  0  0  0  0  0  0  0  0  0
  130.9167  130.6860   59.7525 H   0  0  0  0  0  0  0  0  0  0  0  0
  131.3079  129.3384   60.9036 H   0  0  0  0  0  0  0  0  0  0  0  0
  127.2207  129.8501   63.4319 H   0  0  0  0  0  0  0  0  0  0  0  0
  128.4395  128.8258   67.9342 H   0  0  0  0  0  0  0  0  0  0  0  0
  126.6613  127.2933   68.1182 H   0  0  0  0  0  0  0  0  0  0  0  0
  127.8323  125.9009   68.3084 H   0  0  0  0  0  0  0  0  0  0  0  0
  127.2792  128.1472   70.2880 H   0  0  0  0  0  0  0  0  0  0  0  0
  126.9312  126.3711   70.4578 H   0  0  0  0  0  0  0  0  0  0  0  0
  128.9368  127.0891   71.7552 H   0  0  0  0  0  0  0  0  0  0  0  0
  129.3053  125.8641   70.4770 H   0  0  0  0  0  0  0  0  0  0  0  0
  129.7721  128.8823   70.3039 H   0  0  0  0  0  0  0  0  0  0  0  0
  131.0253  127.5773   70.4777 H   0  0  0  0  0  0  0  0  0  0  0  0
  130.7678  128.5132   68.1391 H   0  0  0  0  0  0  0  0  0  0  0  0
  130.5452  126.7061   68.3197 H   0  0  0  0  0  0  0  0  0  0  0  0
  125.8158  125.6528   59.9444 H   0  0  0  0  0  0  0  0  0  0  0  0
  1  2  1  0
  2  3  1  0
  3  4  2  0
  4  5  1  0
  5  6  2  0
  6  7  1  0
  7  8  1  0
  8  9  1  0
  9 10  1  0
 10 11  1  0
 10 12  1  0
 12 13  1  0
 13 14  1  0
 13 15  1  0
  7 16  2  0
 16 17  1  0
 17 18  2  0
 18 19  1  0
 19 20  1  0
 20 21  2  0
 20 22  1  0
 22 23  1  0
 23 24  1  0
 24 25  1  0
 25 26  1  0
 26 27  1  0
 27 28  1  0
 22 29  1  0
 29 30  2  0
 16 31  1  0
 31 32  2  0
 31 33  1  0
 33 34  1  0
 34  2  2  0
 33  5  1  0
 15  8  1  0
 29 18  1  0
 28 23  1  0
  1 35  1  0
  1 36  1  0
  1 37  1  0
  3 38  1  0
  4 39  1  0
  9 40  1  0
  9 41  1  0
 10 42  1  1
 11 43  1  0
 11 44  1  0
 11 45  1  0
 13 46  1  1
 14 47  1  0
 14 48  1  0
 14 49  1  0
 15 50  1  0
 15 51  1  0
 17 52  1  0
 23 53  1  0
 24 54  1  0
 24 55  1  0
 25 56  1  0
 25 57  1  0
 26 58  1  0
 26 59  1  0
 27 60  1  0
 27 61  1  0
 28 62  1  0
 28 63  1  0
 34 64  1  0
M  END
>  <Binding energies>  (1) 
[-8.15]

>  <Ligand effiencies>  (1) 
[-0.23970588235294119]

>  <Interactions>  (1) 
["V-B:GLU:543:C:9874, V-A:GLU:543:C:4902, H-A:ALA:541:N:4891, V-B:GLU:543:CB:9878, V-A:PRO:540:C:4881, V-B:ASP:366:CG:8184, V-B:GLU:543:CG:9879, V-A:ASP:366:CG:3213, V-A:ASN:362:CB:3176, V-A:ALA:541:CB:4892, V-B:TYR:531:CE2:9765, V-A:GLU:543:CD:4908, H-B:TYR:484:OH:9319, V-B:HIS:456:CE1:9041, V-B:GLU:543:CA:9876, V-A:HIS:456:CE1:4070, V-A:ALA:541:CA:4890, V-A:GLU:543:CG:4907, V-B:GLU:543:CD:9880, H-B:ARG:545:NH2:9900, V-A:GLU:543:CB:4906, V-A:PRO:540:CB:4885, V-A:PRO:540:CA:4883"]

$$$$
ZINC2314459940
     RDKit          3D

 69 72  0  0  0  0  0  0  0  0999 V2000
  131.7210  132.1580   57.7190 C   0  0  0  0  0  0  0  0  0  0  0  0
  132.7400  131.0740   58.1000 C   0  0  0  0  0  0  0  0  0  0  0  0
  132.1130  129.6750   58.2280 C   0  0  0  0  0  0  0  0  0  0  0  0
  130.6240  129.5920   57.8030 C   0  0  0  0  0  0  0  0  0  0  0  0
  129.7780  128.6770   58.6260 N   0  0  0  0  0  0  0  0  0  0  0  0
  129.3820  128.9070   59.9500 C   0  0  0  0  0  0  0  0  0  0  0  0
  129.8530  130.1120   60.4710 N   0  0  0  0  0  0  0  0  0  0  0  0
  128.9300  131.2020   60.8470 C   0  0  0  0  0  0  0  0  0  0  0  0
  129.6550  132.5570   61.0270 C   0  0  1  0  0  0  0  0  0  0  0  0
  128.7150  133.6090   61.6300 C   0  0  0  0  0  0  0  0  0  0  0  0
  130.7600  132.3850   61.9020 O   0  0  0  0  0  0  0  0  0  0  0  0
  131.7300  131.4930   61.3700 C   0  0  1  0  0  0  0  0  0  0  0  0
  132.9420  131.4780   62.3110 C   0  0  0  0  0  0  0  0  0  0  0  0
  131.0970  130.0880   61.2570 C   0  0  0  0  0  0  0  0  0  0  0  0
  128.6120  128.0400   60.6720 C   0  0  0  0  0  0  0  0  0  0  0  0
  128.2460  128.3020   62.0620 C   0  0  0  0  0  0  0  0  0  0  0  0
  128.7310  127.6230   63.1250 C   0  0  0  0  0  0  0  0  0  0  0  0
  129.8330  126.2540   63.1320 S   0  0  0  0  0  0  0  0  0  0  0  0
  129.7680  126.1310   64.8660 C   0  0  0  0  0  0  0  0  0  0  0  0
  130.6730  124.9380   65.6010 S   0  0  0  0  0  0  0  0  0  0  0  0
  128.9290  127.1000   65.3650 N   0  0  0  0  0  0  0  0  0  0  0  0
  128.6330  127.2780   66.8210 C   0  0  2  0  0  0  0  0  0  0  0  0
  128.7410  128.7480   67.3160 C   0  0  0  0  0  0  0  0  0  0  0  0
  128.8650  128.7780   68.8450 C   0  0  0  0  0  0  0  0  0  0  0  0
  130.0380  127.3630   69.2020 S   0  0  0  0  0  0  0  0  0  0  0  0
  131.4090  127.7930   68.9140 O   0  0  0  0  0  0  0  0  0  0  0  0
  129.7130  126.7410   70.4900 O   0  0  0  0  0  0  0  0  0  0  0  0
  129.3850  126.3160   67.7840 C   0  0  0  0  0  0  0  0  0  0  0  0
  128.3310  127.9430   64.4760 C   0  0  0  0  0  0  0  0  0  0  0  0
  127.5550  128.8550   64.7810 O   0  0  0  0  0  0  0  0  0  0  0  0
  128.2150  126.7840   60.0180 C   0  0  0  0  0  0  0  0  0  0  0  0
  127.4410  125.7190   60.8040 C   0  0  0  0  0  0  0  0  0  0  0  0
  128.6340  126.5500   58.7450 C   0  0  0  0  0  0  0  0  0  0  0  0
  128.2740  125.3230   58.0980 C   0  0  0  0  0  0  0  0  0  0  0  0
  127.9860  124.3390   57.5590 N   0  0  0  0  0  0  0  0  0  0  0  0
  129.4610  127.4910   57.9910 C   0  0  0  0  0  0  0  0  0  0  0  0
  129.8410  127.1890   56.8550 O   0  0  0  0  0  0  0  0  0  0  0  0
  131.3015  132.6043   58.6327 H   0  0  0  0  0  0  0  0  0  0  0  0
  132.2202  132.9382   57.1257 H   0  0  0  0  0  0  0  0  0  0  0  0
  130.9114  131.7079   57.1257 H   0  0  0  0  0  0  0  0  0  0  0  0
  133.5198  131.0386   57.3250 H   0  0  0  0  0  0  0  0  0  0  0  0
  133.1503  131.3411   59.0851 H   0  0  0  0  0  0  0  0  0  0  0  0
  132.6888  128.9822   57.5968 H   0  0  0  0  0  0  0  0  0  0  0  0
  132.1465  129.4156   59.2965 H   0  0  0  0  0  0  0  0  0  0  0  0
  130.1947  130.6027   57.8679 H   0  0  0  0  0  0  0  0  0  0  0  0
  130.6200  129.1775   56.7841 H   0  0  0  0  0  0  0  0  0  0  0  0
  128.1715  131.3099   60.0577 H   0  0  0  0  0  0  0  0  0  0  0  0
  128.4744  130.9360   61.8122 H   0  0  0  0  0  0  0  0  0  0  0  0
  129.9907  132.9017   60.0378 H   0  0  0  0  0  0  0  0  0  0  0  0
  128.7619  133.5565   62.7277 H   0  0  0  0  0  0  0  0  0  0  0  0
  129.0243  134.6108   61.2973 H   0  0  0  0  0  0  0  0  0  0  0  0
  127.6848  133.4140   61.2973 H   0  0  0  0  0  0  0  0  0  0  0  0
  132.0606  131.8115   60.3704 H   0  0  0  0  0  0  0  0  0  0  0  0
  132.5957  131.4823   63.3550 H   0  0  0  0  0  0  0  0  0  0  0  0
  133.5385  130.5724   62.1263 H   0  0  0  0  0  0  0  0  0  0  0  0
  133.5607  132.3686   62.1263 H   0  0  0  0  0  0  0  0  0  0  0  0
  131.8143  129.4123   60.7682 H   0  0  0  0  0  0  0  0  0  0  0  0
  130.8544  129.7391   62.2716 H   0  0  0  0  0  0  0  0  0  0  0  0
  127.5246  129.1091   62.2571 H   0  0  0  0  0  0  0  0  0  0  0  0
  127.5740  126.9848   66.8709 H   0  0  0  0  0  0  0  0  0  0  0  0
  129.6290  129.2188   66.8690 H   0  0  0  0  0  0  0  0  0  0  0  0
  127.8369  129.2979   67.0158 H   0  0  0  0  0  0  0  0  0  0  0  0
  129.2843  129.7351   69.1887 H   0  0  0  0  0  0  0  0  0  0  0  0
  127.8979  128.6791   69.3598 H   0  0  0  0  0  0  0  0  0  0  0  0
  130.2194  125.8297   67.2574 H   0  0  0  0  0  0  0  0  0  0  0  0
  128.7148  125.5261   68.1540 H   0  0  0  0  0  0  0  0  0  0  0  0
  127.5685  125.8944   61.8824 H   0  0  0  0  0  0  0  0  0  0  0  0
  126.3731  125.7773   60.5467 H   0  0  0  0  0  0  0  0  0  0  0  0
  127.8262  124.7213   60.5467 H   0  0  0  0  0  0  0  0  0  0  0  0
  1  2  1  0
  2  3  1  0
  3  4  1  0
  4  5  1  0
  5  6  1  0
  6  7  1  0
  7  8  1  0
  8  9  1  0
  9 10  1  0
  9 11  1  0
 11 12  1  0
 12 13  1  0
 12 14  1  0
  6 15  2  0
 15 16  1  0
 16 17  2  0
 17 18  1  0
 18 19  1  0
 19 20  2  0
 19 21  1  0
 21 22  1  0
 22 23  1  0
 23 24  1  0
 24 25  1  0
 25 26  2  0
 25 27  2  0
 25 28  1  0
 21 29  1  0
 29 30  2  0
 15 31  1  0
 31 32  1  0
 31 33  2  0
 33 34  1  0
 34 35  3  0
 33 36  1  0
 36 37  2  0
 36  5  1  0
 14  7  1  0
 29 17  1  0
 28 22  1  0
  1 38  1  0
  1 39  1  0
  1 40  1  0
  2 41  1  0
  2 42  1  0
  3 43  1  0
  3 44  1  0
  4 45  1  0
  4 46  1  0
  8 47  1  0
  8 48  1  0
  9 49  1  6
 10 50  1  0
 10 51  1  0
 10 52  1  0
 12 53  1  6
 13 54  1  0
 13 55  1  0
 13 56  1  0
 14 57  1  0
 14 58  1  0
 16 59  1  0
 22 60  1  6
 23 61  1  0
 23 62  1  0
 24 63  1  0
 24 64  1  0
 28 65  1  0
 28 66  1  0
 32 67  1  0
 32 68  1  0
 32 69  1  0
M  END
>  <Binding energies>  (1) 
[-8.55]

>  <Ligand effiencies>  (1) 
[-0.2310810810810811]

>  <Interactions>  (1) 
["V-A:GLU:543:CA:4904, V-A:GLU:543:C:4902, H-A:ALA:541:N:4891, V-A:PRO:540:C:4881, V-B:GLU:543:CB:9878, H-A:TYR:531:OH:4795, V-B:GLU:543:CG:9879, V-A:ASP:366:CG:3213, V-A:ASN:362:CB:3176, V-A:LEU:363:CD1:3189, V-A:ALA:541:CB:4892, V-A:GLU:543:CD:4908, V-B:HIS:456:CE1:9041, V-A:HIS:456:CE1:4070, V-A:GLU:543:CG:4907, V-B:GLU:543:CD:9880, V-A:ASP:366:CB:3212, V-A:GLU:543:CB:4906, V-A:PRO:540:CB:4885, V-A:PRO:540:CA:4883"]

$$$$
ZINC2314461452
     RDKit          3D

 68 72  0  0  0  0  0  0  0  0999 V2000
  130.8160  126.0960   57.4950 C   0  0  0  0  0  0  0  0  0  0  0  0
  132.0950  126.0510   58.3470 C   0  0  0  0  0  0  0  0  0  0  0  0
  131.9700  125.1850   59.5500 N   0  0  0  0  0  0  0  0  0  0  0  0
  131.2900  125.5450   60.7140 C   0  0  0  0  0  0  0  0  0  0  0  0
  130.7320  126.8170   60.6560 N   0  0  0  0  0  0  0  0  0  0  0  0
  131.2910  127.9340   61.4190 C   0  0  0  0  0  0  0  0  0  0  0  0
  131.0070  129.2960   60.7520 C   0  0  0  0  0  0  0  0  0  0  0  0
  129.6030  129.5270   60.3810 N   0  0  0  0  0  0  0  0  0  0  0  0
  129.1740  130.8300   60.1300 C   0  0  0  0  0  0  0  0  0  0  0  0
  128.7830  131.6820   61.1780 C   0  0  0  0  0  0  0  0  0  0  0  0
  128.3880  132.9960   60.9280 C   0  0  0  0  0  0  0  0  0  0  0  0
  128.3910  133.4900   59.6270 C   0  0  0  0  0  0  0  0  0  0  0  0
  128.7990  132.6700   58.5770 C   0  0  0  0  0  0  0  0  0  0  0  0
  129.1970  131.3550   58.8240 C   0  0  0  0  0  0  0  0  0  0  0  0
  129.6280  130.6070   57.7800 F   0  0  0  0  0  0  0  0  0  0  0  0
  129.0690  128.3770   59.6370 C   0  0  0  0  0  0  0  0  0  0  0  0
  129.3270  127.0050   60.2960 C   0  0  0  0  0  0  0  0  0  0  0  0
  131.1840  124.7460   61.8130 C   0  0  0  0  0  0  0  0  0  0  0  0
  130.4730  125.1720   63.0130 C   0  0  0  0  0  0  0  0  0  0  0  0
  131.0600  125.3320   64.2190 C   0  0  0  0  0  0  0  0  0  0  0  0
  132.7500  125.1000   64.6400 S   0  0  0  0  0  0  0  0  0  0  0  0
  132.4400  125.4410   66.3170 C   0  0  0  0  0  0  0  0  0  0  0  0
  133.7220  125.3600   67.3820 S   0  0  0  0  0  0  0  0  0  0  0  0
  131.1090  125.7400   66.4880 N   0  0  0  0  0  0  0  0  0  0  0  0
  130.4930  126.0740   67.8080 C   0  0  2  0  0  0  0  0  0  0  0  0
  128.9510  125.8690   67.8680 C   0  0  0  0  0  0  0  0  0  0  0  0
  128.3670  126.6430   69.0570 C   0  0  0  0  0  0  0  0  0  0  0  0
  129.3100  128.2610   69.0170 S   0  0  0  0  0  0  0  0  0  0  0  0
  128.7470  129.1170   67.9690 O   0  0  0  0  0  0  0  0  0  0  0  0
  129.4970  128.7810   70.3760 O   0  0  0  0  0  0  0  0  0  0  0  0
  130.8910  127.4550   68.3990 C   0  0  0  0  0  0  0  0  0  0  0  0
  130.3040  125.7130   65.3890 C   0  0  0  0  0  0  0  0  0  0  0  0
  129.0950  125.9670   65.3910 O   0  0  0  0  0  0  0  0  0  0  0  0
  131.8240  123.4280   61.7500 C   0  0  0  0  0  0  0  0  0  0  0  0
  131.7320  122.4900   62.9550 C   0  0  0  0  0  0  0  0  0  0  0  0
  132.4820  123.0740   60.6090 C   0  0  0  0  0  0  0  0  0  0  0  0
  133.1070  121.7880   60.5260 C   0  0  0  0  0  0  0  0  0  0  0  0
  133.6070  120.7480   60.4390 N   0  0  0  0  0  0  0  0  0  0  0  0
  132.5860  123.9530   59.4420 C   0  0  0  0  0  0  0  0  0  0  0  0
  133.2050  123.5760   58.4420 O   0  0  0  0  0  0  0  0  0  0  0  0
  129.9366  126.1269   58.1551 H   0  0  0  0  0  0  0  0  0  0  0  0
  130.8297  126.9942   56.8602 H   0  0  0  0  0  0  0  0  0  0  0  0
  130.7666  125.1990   56.8602 H   0  0  0  0  0  0  0  0  0  0  0  0
  132.9162  125.6669   57.7241 H   0  0  0  0  0  0  0  0  0  0  0  0
  132.2872  127.0747   58.7008 H   0  0  0  0  0  0  0  0  0  0  0  0
  130.8468  127.9330   62.4253 H   0  0  0  0  0  0  0  0  0  0  0  0
  132.3820  127.8005   61.4626 H   0  0  0  0  0  0  0  0  0  0  0  0
  131.3094  130.0884   61.4525 H   0  0  0  0  0  0  0  0  0  0  0  0
  131.5778  129.3021   59.8117 H   0  0  0  0  0  0  0  0  0  0  0  0
  128.7888  131.3061   62.2118 H   0  0  0  0  0  0  0  0  0  0  0  0
  128.0736  133.6428   61.7604 H   0  0  0  0  0  0  0  0  0  0  0  0
  128.0725  134.5240   59.4283 H   0  0  0  0  0  0  0  0  0  0  0  0
  128.8075  133.0606   57.5487 H   0  0  0  0  0  0  0  0  0  0  0  0
  127.9817  128.5094   59.5361 H   0  0  0  0  0  0  0  0  0  0  0  0
  129.5950  128.3611   58.6711 H   0  0  0  0  0  0  0  0  0  0  0  0
  128.7153  126.9297   61.2072 H   0  0  0  0  0  0  0  0  0  0  0  0
  129.0596  126.2261   59.5668 H   0  0  0  0  0  0  0  0  0  0  0  0
  129.3950  125.3750   62.9311 H   0  0  0  0  0  0  0  0  0  0  0  0
  130.9490  125.3190   68.4652 H   0  0  0  0  0  0  0  0  0  0  0  0
  128.4977  126.2365   66.9355 H   0  0  0  0  0  0  0  0  0  0  0  0
  128.7327  124.7979   67.9908 H   0  0  0  0  0  0  0  0  0  0  0  0
  127.2879  126.8118   68.9264 H   0  0  0  0  0  0  0  0  0  0  0  0
  128.4682  126.1076   70.0126 H   0  0  0  0  0  0  0  0  0  0  0  0
  131.3550  128.0796   67.6214 H   0  0  0  0  0  0  0  0  0  0  0  0
  131.6187  127.3386   69.2157 H   0  0  0  0  0  0  0  0  0  0  0  0
  131.7897  123.0782   63.8828 H   0  0  0  0  0  0  0  0  0  0  0  0
  130.7762  121.9464   62.9243 H   0  0  0  0  0  0  0  0  0  0  0  0
  132.5639  121.7710   62.9243 H   0  0  0  0  0  0  0  0  0  0  0  0
  1  2  1  0
  2  3  1  0
  3  4  1  0
  4  5  1  0
  5  6  1  0
  6  7  1  0
  7  8  1  0
  8  9  1  0
  9 10  2  0
 10 11  1  0
 11 12  2  0
 12 13  1  0
 13 14  2  0
 14 15  1  0
  8 16  1  0
 16 17  1  0
  4 18  2  0
 18 19  1  0
 19 20  2  0
 20 21  1  0
 21 22  1  0
 22 23  2  0
 22 24  1  0
 24 25  1  0
 25 26  1  0
 26 27  1  0
 27 28  1  0
 28 29  2  0
 28 30  2  0
 28 31  1  0
 24 32  1  0
 32 33  2  0
 18 34  1  0
 34 35  1  0
 34 36  2  0
 36 37  1  0
 37 38  3  0
 36 39  1  0
 39 40  2  0
 39  3  1  0
 17  5  1  0
 32 20  1  0
 14  9  1  0
 31 25  1  0
  1 41  1  0
  1 42  1  0
  1 43  1  0
  2 44  1  0
  2 45  1  0
  6 46  1  0
  6 47  1  0
  7 48  1  0
  7 49  1  0
 10 50  1  0
 11 51  1  0
 12 52  1  0
 13 53  1  0
 16 54  1  0
 16 55  1  0
 17 56  1  0
 17 57  1  0
 19 58  1  0
 25 59  1  1
 26 60  1  0
 26 61  1  0
 27 62  1  0
 27 63  1  0
 31 64  1  0
 31 65  1  0
 35 66  1  0
 35 67  1  0
 35 68  1  0
M  END
>  <Binding energies>  (1) 
[-7.79]

>  <Ligand effiencies>  (1) 
[-0.19475]

>  <Interactions>  (1) 
["V-A:ILE:369:CG2:3237, V-B:GLU:543:C:9874, V-B:GLU:543:CB:9878, V-B:TYR:539:CE2:9848, V-B:GLU:543:CG:9879, V-A:ASP:366:CG:3213, V-A:TYR:539:CD1:4873, V-B:TYR:539:CZ:9849, H-B:TYR:539:OH:9850, V-A:GLU:543:CD:4908, V-A:TYR:484:CZ:4347, V-A:ARG:545:CG:4922, V-B:GLU:543:CA:9876, V-B:HIS:456:CE1:9041, V-A:HIS:456:CE1:4070, V-A:GLU:543:CG:4907, H-A:SER:385:OG:3410, V-A:TYR:539:C:4867, V-A:ASP:366:CB:3212, V-A:ARG:545:CD:4923, V-A:LEU:475:CD2:4259, H-A:ARG:545:NH2:4928, V-A:ARG:545:CZ:4926, V-A:ARG:545:CB:4921, V-A:GLU:543:CB:4906, V-A:PRO:540:N:4884, V-A:PRO:540:CA:4883, H-A:ARG:545:NE:4924, V-A:TYR:539:CE1:4875, H-A:TYR:484:OH:4348"]

$$$$
ZINC2321591139
     RDKit          3D

 39 41  0  0  0  0  0  0  0  0999 V2000
  132.8800  124.9800   60.2530 C   0  0  0  0  0  0  0  0  0  0  0  0
  132.8300  124.2030   61.5620 C   0  0  0  0  0  0  0  0  0  0  0  0
  133.6130  123.0500   61.6820 C   0  0  0  0  0  0  0  0  0  0  0  0
  133.6170  122.3140   62.8620 C   0  0  0  0  0  0  0  0  0  0  0  0
  132.8410  122.7250   63.9400 C   0  0  0  0  0  0  0  0  0  0  0  0
  132.0520  123.8790   63.8450 C   0  0  0  0  0  0  0  0  0  0  0  0
  131.2800  124.2530   64.9760 N   0  0  0  0  0  0  0  0  0  0  0  0
  131.6090  125.3690   65.6820 C   0  0  0  0  0  0  0  0  0  0  0  0
  132.5580  126.1130   65.4110 O   0  0  0  0  0  0  0  0  0  0  0  0
  130.6990  125.5520   66.7930 C   0  0  0  0  0  0  0  0  0  0  0  0
  130.8290  126.6010   67.6410 C   0  0  0  0  0  0  0  0  0  0  0  0
  130.0090  126.9050   68.8310 C   0  0  0  0  0  0  0  0  0  0  0  0
  128.6370  126.6500   68.7870 C   0  0  0  0  0  0  0  0  0  0  0  0
  127.8320  126.9130   69.8930 C   0  0  0  0  0  0  0  0  0  0  0  0
  128.3830  127.4430   71.0610 C   0  0  0  0  0  0  0  0  0  0  0  0
  127.3270  127.6940   72.4100 Cl  0  0  0  0  0  0  0  0  0  0  0  0
  129.7580  127.7310   71.1180 C   0  0  0  0  0  0  0  0  0  0  0  0
  130.3980  128.2850   72.3300 N   0  0  0  0  0  0  0  0  0  0  0  0
  131.0710  127.5270   73.0200 O   0  0  0  0  0  0  0  0  0  0  0  0
  130.2570  129.4800   72.5750 O   0  0  0  0  0  0  0  0  0  0  0  0
  130.5550  127.4470   70.0010 C   0  0  0  0  0  0  0  0  0  0  0  0
  129.4890  124.2690   66.7870 S   0  0  0  0  0  0  0  0  0  0  0  0
  130.1910  123.5240   65.3820 C   0  0  0  0  0  0  0  0  0  0  0  0
  129.5040  122.1340   64.7590 S   0  0  0  0  0  0  0  0  0  0  0  0
  132.0370  124.6290   62.6460 C   0  0  0  0  0  0  0  0  0  0  0  0
  131.1660  125.8810   62.5090 C   0  0  0  0  0  0  0  0  0  0  0  0
  132.9493  126.0565   60.4680 H   0  0  0  0  0  0  0  0  0  0  0  0
  133.7597  124.6646   59.6728 H   0  0  0  0  0  0  0  0  0  0  0  0
  131.9671  124.7800   59.6728 H   0  0  0  0  0  0  0  0  0  0  0  0
  134.2321  122.7220   60.8340 H   0  0  0  0  0  0  0  0  0  0  0  0
  134.2340  121.4069   62.9425 H   0  0  0  0  0  0  0  0  0  0  0  0
  132.8465  122.1412   64.8723 H   0  0  0  0  0  0  0  0  0  0  0  0
  131.6404  127.3090   67.4167 H   0  0  0  0  0  0  0  0  0  0  0  0
  128.1880  126.2379   67.8713 H   0  0  0  0  0  0  0  0  0  0  0  0
  126.7536  126.7014   69.8456 H   0  0  0  0  0  0  0  0  0  0  0  0
  131.6344  127.6546   70.0442 H   0  0  0  0  0  0  0  0  0  0  0  0
  130.9045  126.2569   63.5091 H   0  0  0  0  0  0  0  0  0  0  0  0
  131.7212  126.6556   61.9597 H   0  0  0  0  0  0  0  0  0  0  0  0
  130.2467  125.6298   61.9597 H   0  0  0  0  0  0  0  0  0  0  0  0
  1  2  1  0
  2  3  2  0
  3  4  1  0
  4  5  2  0
  5  6  1  0
  6  7  1  0
  7  8  1  0
  8  9  2  0
  8 10  1  0
 10 11  2  0
 11 12  1  0
 12 13  2  0
 13 14  1  0
 14 15  2  0
 15 16  1  0
 15 17  1  0
 17 18  1  0
 18 19  2  0
 18 20  1  0
 17 21  2  0
 10 22  1  0
 22 23  1  0
 23 24  2  0
  6 25  2  0
 25 26  1  0
 25  2  1  0
 23  7  1  0
 21 12  1  0
  1 27  1  0
  1 28  1  0
  1 29  1  0
  3 30  1  0
  4 31  1  0
  5 32  1  0
 11 33  1  0
 13 34  1  0
 14 35  1  0
 21 36  1  0
 26 37  1  0
 26 38  1  0
 26 39  1  0
M  CHG  2  18   1  20  -1
M  END
>  <Binding energies>  (1) 
[-8.04]

>  <Ligand effiencies>  (1) 
[-0.3092307692307692]

>  <Interactions>  (1) 
["V-A:GLY:454:CA:4049, V-B:GLU:543:C:9874, V-B:HIS:456:CD2:9039, V-B:GLU:543:CB:9878, V-B:ALA:541:CB:9864, V-A:TYR:484:CE2:4346, V-B:GLU:543:CG:9879, V-A:GLY:544:C:4912, V-A:ASP:366:CG:3213, V-A:TYR:484:CZ:4347, V-A:GLU:543:CD:4908, V-B:HIS:456:CE1:9041, V-A:HIS:456:CE1:4070, V-A:ILE:369:CD1:3239, V-B:GLY:544:C:9884, V-B:HIS:456:CG:9037, V-A:ASP:366:CB:3212, H-A:LYS:547:NZ:4951, H-A:ARG:545:NH2:4928, V-A:LEU:475:CD2:4259, V-A:GLU:543:CB:4906, H-A:ARG:545:NE:4924, H-A:TYR:484:OH:4348"]

$$$$
ZINC2321745598
     RDKit          3D

 31 33  0  0  0  0  0  0  0  0999 V2000
  128.3600  129.9230   68.2610 O   0  0  0  0  0  0  0  0  0  0  0  0
  128.5640  128.9150   67.5740 C   0  0  0  0  0  0  0  0  0  0  0  0
  128.2990  128.8090   66.1560 C   0  0  0  0  0  0  0  0  0  0  0  0
  127.8090  129.8540   65.4490 C   0  0  0  0  0  0  0  0  0  0  0  0
  127.4820  129.8680   64.0080 C   0  0  0  0  0  0  0  0  0  0  0  0
  126.7060  128.8440   63.4470 C   0  0  0  0  0  0  0  0  0  0  0  0
  126.4030  128.8420   62.0880 C   0  0  0  0  0  0  0  0  0  0  0  0
  126.8760  129.8630   61.2670 C   0  0  0  0  0  0  0  0  0  0  0  0
  126.5050  129.8610   59.5810 Cl  0  0  0  0  0  0  0  0  0  0  0  0
  127.6510  130.8870   61.8100 C   0  0  0  0  0  0  0  0  0  0  0  0
  127.9560  130.8940   63.1720 C   0  0  0  0  0  0  0  0  0  0  0  0
  128.9330  132.1850   63.7880 Cl  0  0  0  0  0  0  0  0  0  0  0  0
  128.7400  127.2010   65.5830 S   0  0  0  0  0  0  0  0  0  0  0  0
  129.2510  126.7080   67.1710 C   0  0  0  0  0  0  0  0  0  0  0  0
  129.8450  125.1630   67.4010 S   0  0  0  0  0  0  0  0  0  0  0  0
  129.0730  127.7450   68.0510 N   0  0  0  0  0  0  0  0  0  0  0  0
  129.4050  127.6290   69.4200 C   0  0  0  0  0  0  0  0  0  0  0  0
  130.6430  128.0930   69.8840 C   0  0  0  0  0  0  0  0  0  0  0  0
  130.9760  127.9630   71.2320 C   0  0  0  0  0  0  0  0  0  0  0  0
  130.0790  127.3680   72.1210 C   0  0  0  0  0  0  0  0  0  0  0  0
  130.4090  127.2440   73.4270 F   0  0  0  0  0  0  0  0  0  0  0  0
  128.8460  126.9000   71.6620 C   0  0  0  0  0  0  0  0  0  0  0  0
  127.9780  126.3210   72.5210 F   0  0  0  0  0  0  0  0  0  0  0  0
  128.5090  127.0270   70.3140 C   0  0  0  0  0  0  0  0  0  0  0  0
  127.6366  130.7881   66.0037 H   0  0  0  0  0  0  0  0  0  0  0  0
  126.3320  128.0323   64.0883 H   0  0  0  0  0  0  0  0  0  0  0  0
  125.7899  128.0339   61.6626 H   0  0  0  0  0  0  0  0  0  0  0  0
  128.0240  131.6935   61.1616 H   0  0  0  0  0  0  0  0  0  0  0  0
  131.3524  128.5599   69.1849 H   0  0  0  0  0  0  0  0  0  0  0  0
  131.9472  128.3300   71.5954 H   0  0  0  0  0  0  0  0  0  0  0  0
  127.5392  126.6543   69.9526 H   0  0  0  0  0  0  0  0  0  0  0  0
  1  2  2  0
  2  3  1  0
  3  4  2  0
  4  5  1  0
  5  6  2  0
  6  7  1  0
  7  8  2  0
  8  9  1  0
  8 10  1  0
 10 11  2  0
 11 12  1  0
  3 13  1  0
 13 14  1  0
 14 15  2  0
 14 16  1  0
 16 17  1  0
 17 18  2  0
 18 19  1  0
 19 20  2  0
 20 21  1  0
 20 22  1  0
 22 23  1  0
 22 24  2  0
 16  2  1  0
 24 17  1  0
 11  5  1  0
  4 25  1  0
  6 26  1  0
  7 27  1  0
 10 28  1  0
 18 29  1  0
 19 30  1  0
 24 31  1  0
M  END
>  <Binding energies>  (1) 
[-6.9]

>  <Ligand effiencies>  (1) 
[-0.28750000000000003]

>  <Interactions>  (1) 
["V-A:GLU:543:C:4902, V-B:GLU:543:CB:9878, V-A:TYR:484:CE2:4346, V-B:GLU:543:CG:9879, V-A:GLY:544:C:4912, V-A:HIS:456:CD2:4068, V-A:ALA:541:CB:4892, V-B:LYS:547:CE:9922, V-A:GLU:543:CD:4908, H-B:TYR:484:OH:9319, V-B:HIS:456:CE1:9041, V-B:GLU:543:CA:9876, V-B:TYR:484:CZ:9318, V-A:HIS:456:CE1:4070, V-B:GLY:544:C:9884, V-B:GLY:544:CA:9886, V-A:GLU:543:CG:4907, V-B:GLU:543:CD:9880, V-A:GLU:543:CB:4906"]

$$$$
ZINC2322659873
     RDKit          3D

 56 58  0  0  0  0  0  0  0  0999 V2000
  134.2270  123.2120   62.3110 C   0  0  0  0  0  0  0  0  0  0  0  0
  133.6380  122.3350   61.2010 C   0  0  0  0  0  0  0  0  0  0  0  0
  132.6260  121.5060   61.7630 O   0  0  0  0  0  0  0  0  0  0  0  0
  131.3030  121.9110   61.7260 C   0  0  0  0  0  0  0  0  0  0  0  0
  130.8330  123.1000   62.3130 C   0  0  0  0  0  0  0  0  0  0  0  0
  129.4840  123.4660   62.2500 C   0  0  0  0  0  0  0  0  0  0  0  0
  129.0440  124.7190   62.8780 C   0  0  0  0  0  0  0  0  0  0  0  0
  129.7340  125.3660   63.7260 N   0  0  0  0  0  0  0  0  0  0  0  0
  129.1620  126.5420   64.2350 N   0  0  0  0  0  0  0  0  0  0  0  0
  129.1000  126.9330   65.5810 C   0  0  0  0  0  0  0  0  0  0  0  0
  129.5770  126.0210   66.6040 C   0  0  0  0  0  0  0  0  0  0  0  0
  129.5330  126.3560   67.8420 N   0  0  0  0  0  0  0  0  0  0  0  0
  129.0240  127.6040   68.2270 N   0  0  0  0  0  0  0  0  0  0  0  0
  129.0040  127.9050   69.6830 C   0  0  2  0  0  0  0  0  0  0  0  0
  130.4090  127.7180   70.3230 C   0  0  0  0  0  0  0  0  0  0  0  0
  130.2850  127.8180   71.8460 C   0  0  0  0  0  0  0  0  0  0  0  0
  128.6730  126.9380   72.2350 S   0  0  0  0  0  0  0  0  0  0  0  0
  128.9300  125.5430   72.6070 O   0  0  0  0  0  0  0  0  0  0  0  0
  127.8590  127.7980   73.1020 O   0  0  0  0  0  0  0  0  0  0  0  0
  128.0250  126.9980   70.4690 C   0  0  0  0  0  0  0  0  0  0  0  0
  128.5370  128.5660   67.3590 C   0  0  0  0  0  0  0  0  0  0  0  0
  128.0840  129.6660   67.6870 O   0  0  0  0  0  0  0  0  0  0  0  0
  128.6090  128.1440   65.9600 C   0  0  0  0  0  0  0  0  0  0  0  0
  127.9420  129.4380   64.6070 Br  0  0  0  0  0  0  0  0  0  0  0  0
  128.5980  122.6120   61.5820 C   0  0  0  0  0  0  0  0  0  0  0  0
  129.0470  121.4330   60.9940 C   0  0  0  0  0  0  0  0  0  0  0  0
  130.4010  121.0700   61.0560 C   0  0  0  0  0  0  0  0  0  0  0  0
  130.9220  119.9130   60.4990 O   0  0  0  0  0  0  0  0  0  0  0  0
  130.7620  118.6430   61.1330 C   0  0  0  0  0  0  0  0  0  0  0  0
  130.6560  117.5970   60.0140 C   0  0  0  0  0  0  0  0  0  0  0  0
  129.5130  118.6360   62.0380 C   0  0  0  0  0  0  0  0  0  0  0  0
  133.9491  122.7982   63.2916 H   0  0  0  0  0  0  0  0  0  0  0  0
  135.3230  123.2329   62.2191 H   0  0  0  0  0  0  0  0  0  0  0  0
  133.8318  124.2344   62.2191 H   0  0  0  0  0  0  0  0  0  0  0  0
  133.2017  122.9724   60.4178 H   0  0  0  0  0  0  0  0  0  0  0  0
  134.4282  121.7125   60.7560 H   0  0  0  0  0  0  0  0  0  0  0  0
  131.5436  123.7582   62.8344 H   0  0  0  0  0  0  0  0  0  0  0  0
  128.0591  125.1206   62.5975 H   0  0  0  0  0  0  0  0  0  0  0  0
  128.7430  127.1160   63.5160 H   0  0  0  0  0  0  0  0  0  0  0  0
  129.9782  125.0378   66.3169 H   0  0  0  0  0  0  0  0  0  0  0  0
  128.6755  128.9525   69.7524 H   0  0  0  0  0  0  0  0  0  0  0  0
  130.8091  126.7303   70.0504 H   0  0  0  0  0  0  0  0  0  0  0  0
  131.0900  128.4996   69.9552 H   0  0  0  0  0  0  0  0  0  0  0  0
  131.1314  127.3184   72.3400 H   0  0  0  0  0  0  0  0  0  0  0  0
  130.2937  128.8587   72.2022 H   0  0  0  0  0  0  0  0  0  0  0  0
  128.0078  125.9878   70.0341 H   0  0  0  0  0  0  0  0  0  0  0  0
  126.9972  127.3881   70.4310 H   0  0  0  0  0  0  0  0  0  0  0  0
  127.5320  122.8766   61.5210 H   0  0  0  0  0  0  0  0  0  0  0  0
  128.3320  120.7781   60.4746 H   0  0  0  0  0  0  0  0  0  0  0  0
  131.6173  118.4162   61.7865 H   0  0  0  0  0  0  0  0  0  0  0  0
  130.5545  116.5952   60.4569 H   0  0  0  0  0  0  0  0  0  0  0  0
  129.7752  117.8137   59.3917 H   0  0  0  0  0  0  0  0  0  0  0  0
  131.5624  117.6326   59.3917 H   0  0  0  0  0  0  0  0  0  0  0  0
  129.8246  118.6377   63.0929 H   0  0  0  0  0  0  0  0  0  0  0  0
  128.9068  119.5308   61.8332 H   0  0  0  0  0  0  0  0  0  0  0  0
  128.9169  117.7345   61.8332 H   0  0  0  0  0  0  0  0  0  0  0  0
  1  2  1  0
  2  3  1  0
  3  4  1  0
  4  5  2  0
  5  6  1  0
  6  7  1  0
  7  8  2  0
  8  9  1  0
  9 10  1  0
 10 11  1  0
 11 12  2  0
 12 13  1  0
 13 14  1  0
 14 15  1  0
 15 16  1  0
 16 17  1  0
 17 18  2  0
 17 19  2  0
 17 20  1  0
 13 21  1  0
 21 22  2  0
 21 23  1  0
 23 24  1  0
  6 25  2  0
 25 26  1  0
 26 27  2  0
 27 28  1  0
 28 29  1  0
 29 30  1  0
 29 31  1  0
 27  4  1  0
 23 10  2  0
 20 14  1  0
  1 32  1  0
  1 33  1  0
  1 34  1  0
  2 35  1  0
  2 36  1  0
  5 37  1  0
  7 38  1  0
  9 39  1  0
 11 40  1  0
 14 41  1  6
 15 42  1  0
 15 43  1  0
 16 44  1  0
 16 45  1  0
 20 46  1  0
 20 47  1  0
 25 48  1  0
 26 49  1  0
 29 50  1  0
 30 51  1  0
 30 52  1  0
 30 53  1  0
 31 54  1  0
 31 55  1  0
 31 56  1  0
M  END
>  <Binding energies>  (1) 
[-8.17]

>  <Ligand effiencies>  (1) 
[-0.2553125]

>  <Interactions>  (1) 
["V-A:ILE:369:CG2:3237, V-B:PRO:540:CA:9855, V-A:GLY:454:CA:4049, V-B:GLU:543:C:9874, V-B:GLU:543:CB:9878, H-B:LYS:547:NZ:9923, V-B:ALA:541:CB:9864, V-B:TYR:539:CE2:9848, V-A:LEU:475:CG:4257, V-B:GLU:543:CG:9879, V-A:GLY:544:C:4912, V-B:TYR:539:C:9839, H-B:GLU:543:OE1:9881, V-A:LEU:475:CD1:4258, V-B:TYR:539:CB:9843, V-A:HIS:383:CE1:3393, V-A:GLU:543:CD:4908, H-B:TYR:484:OH:9319, V-B:HIS:456:CE1:9041, V-A:GLY:453:C:4042, V-A:ILE:369:CD1:3239, V-A:HIS:456:CE1:4070, V-A:PRO:482:CB:4326, V-B:TYR:539:CD2:9846, V-A:GLU:543:CG:4907, H-A:SER:385:OG:3410, V-B:GLU:543:CD:9880, V-A:LEU:475:CD2:4259, H-A:GLU:543:OE1:4909, V-A:GLU:543:CB:4906, H-B:GLU:543:OE2:9882, V-B:PRO:540:C:9853, V-B:ALA:541:CA:9862, V-A:HIS:383:NE2:3394"]

$$$$
ZINC2322659880
     RDKit          3D

 53 56  0  0  0  0  0  0  0  0999 V2000
  128.3660  129.7270   67.6590 O   0  0  0  0  0  0  0  0  0  0  0  0
  128.7340  128.5820   67.3900 C   0  0  0  0  0  0  0  0  0  0  0  0
  128.6930  128.0520   66.0270 C   0  0  0  0  0  0  0  0  0  0  0  0
  127.9500  129.2470   64.6250 Br  0  0  0  0  0  0  0  0  0  0  0  0
  129.1060  126.7930   65.7180 C   0  0  0  0  0  0  0  0  0  0  0  0
  129.0340  126.2680   64.4220 N   0  0  0  0  0  0  0  0  0  0  0  0
  129.7140  125.1230   63.9780 N   0  0  0  0  0  0  0  0  0  0  0  0
  129.3380  124.6200   62.8750 C   0  0  0  0  0  0  0  0  0  0  0  0
  129.8970  123.3920   62.2780 C   0  0  0  0  0  0  0  0  0  0  0  0
  131.2930  123.2470   62.3140 C   0  0  0  0  0  0  0  0  0  0  0  0
  131.9180  122.1190   61.7870 C   0  0  0  0  0  0  0  0  0  0  0  0
  131.1560  121.1120   61.2090 C   0  0  0  0  0  0  0  0  0  0  0  0
  129.7710  121.2370   61.1500 C   0  0  0  0  0  0  0  0  0  0  0  0
  129.1220  122.3720   61.6720 C   0  0  0  0  0  0  0  0  0  0  0  0
  127.7480  122.5360   61.5950 O   0  0  0  0  0  0  0  0  0  0  0  0
  127.1860  123.6760   60.9420 C   0  0  0  0  0  0  0  0  0  0  0  0
  126.9140  123.3790   59.4700 C   0  0  0  0  0  0  0  0  0  0  0  0
  125.6770  123.7330   58.9210 C   0  0  0  0  0  0  0  0  0  0  0  0
  125.4070  123.4730   57.5800 C   0  0  0  0  0  0  0  0  0  0  0  0
  126.3760  122.8610   56.7860 C   0  0  0  0  0  0  0  0  0  0  0  0
  127.6130  122.5110   57.3210 C   0  0  0  0  0  0  0  0  0  0  0  0
  127.8820  122.7730   58.6610 C   0  0  0  0  0  0  0  0  0  0  0  0
  129.6550  125.9570   66.7660 C   0  0  0  0  0  0  0  0  0  0  0  0
  129.7030  126.3850   67.9750 N   0  0  0  0  0  0  0  0  0  0  0  0
  129.2130  127.6560   68.3020 N   0  0  0  0  0  0  0  0  0  0  0  0
  129.2270  128.0390   69.7380 C   0  0  1  0  0  0  0  0  0  0  0  0
  128.6090  126.9340   70.6440 C   0  0  0  0  0  0  0  0  0  0  0  0
  128.8640  127.2880   72.1120 C   0  0  0  0  0  0  0  0  0  0  0  0
  130.6020  127.9950   72.1170 S   0  0  0  0  0  0  0  0  0  0  0  0
  130.5950  129.2700   72.8420 O   0  0  0  0  0  0  0  0  0  0  0  0
  131.5760  126.9530   72.4620 O   0  0  0  0  0  0  0  0  0  0  0  0
  130.6580  128.3010   70.2610 C   0  0  0  0  0  0  0  0  0  0  0  0
  128.2920  126.5460   63.7960 H   0  0  0  0  0  0  0  0  0  0  0  0
  128.5379  125.1367   62.3247 H   0  0  0  0  0  0  0  0  0  0  0  0
  131.9056  124.0401   62.7675 H   0  0  0  0  0  0  0  0  0  0  0  0
  133.0133  122.0261   61.8286 H   0  0  0  0  0  0  0  0  0  0  0  0
  131.6463  120.2170   60.7984 H   0  0  0  0  0  0  0  0  0  0  0  0
  129.1743  120.4365   60.6883 H   0  0  0  0  0  0  0  0  0  0  0  0
  126.2407  123.9449   61.4361 H   0  0  0  0  0  0  0  0  0  0  0  0
  127.9026  124.5080   61.0069 H   0  0  0  0  0  0  0  0  0  0  0  0
  124.9159  124.2178   59.5501 H   0  0  0  0  0  0  0  0  0  0  0  0
  124.4334  123.7492   57.1489 H   0  0  0  0  0  0  0  0  0  0  0  0
  126.1614  122.6528   55.7274 H   0  0  0  0  0  0  0  0  0  0  0  0
  128.3733  122.0301   56.6880 H   0  0  0  0  0  0  0  0  0  0  0  0
  128.8598  122.5026   59.0862 H   0  0  0  0  0  0  0  0  0  0  0  0
  130.0319  124.9521   66.5248 H   0  0  0  0  0  0  0  0  0  0  0  0
  128.6277  128.9599   69.7910 H   0  0  0  0  0  0  0  0  0  0  0  0
  127.5258  126.8725   70.4629 H   0  0  0  0  0  0  0  0  0  0  0  0
  129.0711  125.9632   70.4115 H   0  0  0  0  0  0  0  0  0  0  0  0
  128.1377  128.0347   72.4655 H   0  0  0  0  0  0  0  0  0  0  0  0
  128.7593  126.4203   72.7799 H   0  0  0  0  0  0  0  0  0  0  0  0
  130.9554  129.3397   70.0545 H   0  0  0  0  0  0  0  0  0  0  0  0
  131.3914  127.6456   69.7684 H   0  0  0  0  0  0  0  0  0  0  0  0
  1  2  2  0
  2  3  1  0
  3  4  1  0
  3  5  2  0
  5  6  1  0
  6  7  1  0
  7  8  2  0
  8  9  1  0
  9 10  2  0
 10 11  1  0
 11 12  2  0
 12 13  1  0
 13 14  2  0
 14 15  1  0
 15 16  1  0
 16 17  1  0
 17 18  2  0
 18 19  1  0
 19 20  2  0
 20 21  1  0
 21 22  2  0
  5 23  1  0
 23 24  2  0
 24 25  1  0
 25 26  1  0
 26 27  1  0
 27 28  1  0
 28 29  1  0
 29 30  2  0
 29 31  2  0
 29 32  1  0
 25  2  1  0
 32 26  1  0
 14  9  1  0
 22 17  1  0
  6 33  1  0
  8 34  1  0
 10 35  1  0
 11 36  1  0
 12 37  1  0
 13 38  1  0
 16 39  1  0
 16 40  1  0
 18 41  1  0
 19 42  1  0
 20 43  1  0
 21 44  1  0
 22 45  1  0
 23 46  1  0
 26 47  1  6
 27 48  1  0
 27 49  1  0
 28 50  1  0
 28 51  1  0
 32 52  1  0
 32 53  1  0
M  END
>  <Binding energies>  (1) 
[-9.64]

>  <Ligand effiencies>  (1) 
[-0.2921212121212121]

>  <Interactions>  (1) 
["V-B:TYR:539:CA:9841, V-B:PRO:540:CA:9855, V-A:GLU:543:C:4902, V-B:GLU:543:CB:9878, V-B:ALA:541:CB:9864, V-B:TYR:539:CE2:9848, V-B:GLU:543:CG:9879, V-A:GLY:544:C:4912, V-B:TYR:539:C:9839, V-B:TYR:539:CZ:9849, H-B:GLU:543:OE1:9881, H-B:ALA:541:N:9863, V-A:GLU:543:CD:4908, V-B:PRO:540:CB:9857, H-B:TYR:484:OH:9319, V-B:HIS:456:CE1:9041, V-B:PRO:540:N:9856, V-A:HIS:456:CE1:4070, V-B:TYR:539:CD2:9846, V-A:GLU:543:CG:4907, V-B:PRO:540:CD:9859, V-B:GLU:543:CD:9880, H-A:LYS:547:NZ:4951, V-A:LEU:475:CD2:4259, V-B:TYR:539:CG:9844, V-A:GLU:543:CB:4906, V-B:TYR:539:CD1:9845, V-B:LEU:363:CD1:8160, H-B:GLU:543:OE2:9882, V-B:TYR:539:CE1:9847, H-A:HIS:456:ND1:4067"]

$$$$
ZINC232288878
     RDKit          3D

 33 35  0  0  0  0  0  0  0  0999 V2000
  127.2640  129.7150   64.4960 C   0  0  0  0  0  0  0  0  0  0  0  0
  128.3690  130.6530   64.0060 C   0  0  0  0  0  0  0  0  0  0  0  0
  127.8870  131.9900   64.0500 O   0  0  0  0  0  0  0  0  0  0  0  0
  128.4610  132.8530   63.0750 C   0  0  1  0  0  0  0  0  0  0  0  0
  129.5790  132.2150   62.2380 C   0  0  0  0  0  0  0  0  0  0  0  0
  128.9820  132.9630   61.0380 C   0  0  1  0  0  0  0  0  0  0  0  0
  129.0550  132.2630   59.7600 N   0  0  0  0  0  0  0  0  0  0  0  0
  129.8990  132.5460   58.7160 C   0  0  0  0  0  0  0  0  0  0  0  0
  129.5850  133.3470   57.7280 N   0  0  0  0  0  0  0  0  0  0  0  0
  130.6010  133.4680   56.7870 N   0  0  0  0  0  0  0  0  0  0  0  0
  131.6490  132.7440   57.0920 C   0  0  0  0  0  0  0  0  0  0  0  0
  131.4890  131.8410   58.5660 S   0  0  0  0  0  0  0  0  0  0  0  0
  127.6230  132.9810   61.7910 C   0  0  0  0  0  0  0  0  0  0  0  0
  126.5920  134.0910   61.5350 C   0  0  0  0  0  0  0  0  0  0  0  0
  125.8260  133.1030   60.6410 C   0  0  0  0  0  0  0  0  0  0  0  0
  126.5220  131.9690   61.4070 C   0  0  0  0  0  0  0  0  0  0  0  0
  127.2524  129.7052   65.5959 H   0  0  0  0  0  0  0  0  0  0  0  0
  126.2914  130.0675   64.1222 H   0  0  0  0  0  0  0  0  0  0  0  0
  127.4538  128.6980   64.1222 H   0  0  0  0  0  0  0  0  0  0  0  0
  129.2513  130.5564   64.6558 H   0  0  0  0  0  0  0  0  0  0  0  0
  128.6524  130.3912   62.9759 H   0  0  0  0  0  0  0  0  0  0  0  0
  128.6646  133.7221   63.7179 H   0  0  0  0  0  0  0  0  0  0  0  0
  130.5977  132.5241   62.5151 H   0  0  0  0  0  0  0  0  0  0  0  0
  129.7542  131.1291   62.2240 H   0  0  0  0  0  0  0  0  0  0  0  0
  129.4097  133.9011   60.6546 H   0  0  0  0  0  0  0  0  0  0  0  0
  128.1880  131.7900   59.5460 H   0  0  0  0  0  0  0  0  0  0  0  0
  132.5537  132.7109   56.4672 H   0  0  0  0  0  0  0  0  0  0  0  0
  126.0418  134.4181   62.4296 H   0  0  0  0  0  0  0  0  0  0  0  0
  126.8958  135.0816   61.1656 H   0  0  0  0  0  0  0  0  0  0  0  0
  124.7327  133.1316   60.7583 H   0  0  0  0  0  0  0  0  0  0  0  0
  125.8650  133.1675   59.5436 H   0  0  0  0  0  0  0  0  0  0  0  0
  125.9484  131.5726   62.2578 H   0  0  0  0  0  0  0  0  0  0  0  0
  126.7643  131.0117   60.9224 H   0  0  0  0  0  0  0  0  0  0  0  0
  1  2  1  0
  2  3  1  0
  3  4  1  0
  4  5  1  0
  5  6  1  0
  6  7  1  0
  7  8  1  0
  8  9  2  0
  9 10  1  0
 10 11  2  0
 11 12  1  0
  6 13  1  0
 13 14  1  0
 14 15  1  0
 15 16  1  0
 13  4  1  0
 12  8  1  0
 16 13  1  0
  1 17  1  0
  1 18  1  0
  1 19  1  0
  2 20  1  0
  2 21  1  0
  4 22  1  1
  5 23  1  0
  5 24  1  0
  6 25  1  6
  7 26  1  0
 11 27  1  0
 14 28  1  0
 14 29  1  0
 15 30  1  0
 15 31  1  0
 16 32  1  0
 16 33  1  0
M  END
>  <Binding energies>  (1) 
[-5.57]

>  <Ligand effiencies>  (1) 
[-0.3276470588235294]

>  <Interactions>  (1) 
["V-A:TYR:539:CD1:4873, V-A:PRO:540:N:4884, H-A:TYR:539:N:4870, V-A:PRO:540:CB:4885, V-A:PRO:540:CA:4883, V-A:LEU:363:CD1:3189, V-A:ALA:541:CB:4892, V-A:PRO:540:C:4881, V-A:GLU:543:CG:4907, V-A:ILE:538:CB:4862, V-A:GLU:543:CD:4908, V-A:TYR:539:C:4867, H-B:TYR:484:OH:9319, V-A:PRO:540:CD:4887, V-B:LEU:475:CD2:9230, V-A:TYR:539:CE1:4875"]

$$$$
ZINC2323581213
     RDKit          3D

 69 72  0  0  0  0  0  0  0  0999 V2000
  126.1560  122.4730   56.7750 C   0  0  0  0  0  0  0  0  0  0  0  0
  127.2350  123.3680   57.4000 C   0  0  0  0  0  0  0  0  0  0  0  0
  127.8670  122.7520   58.6630 C   0  0  0  0  0  0  0  0  0  0  0  0
  127.6190  123.5760   59.9370 C   0  0  0  0  0  0  0  0  0  0  0  0
  128.1720  122.9100   61.0660 O   0  0  0  0  0  0  0  0  0  0  0  0
  127.6950  123.1290   62.3180 C   0  0  0  0  0  0  0  0  0  0  0  0
  126.5260  122.9110   62.6480 O   0  0  0  0  0  0  0  0  0  0  0  0
  128.7400  123.6410   63.2650 C   0  0  0  0  0  0  0  0  0  0  0  0
  129.3320  124.9040   63.1030 C   0  0  0  0  0  0  0  0  0  0  0  0
  130.2940  125.3540   64.0030 C   0  0  0  0  0  0  0  0  0  0  0  0
  130.6700  124.5540   65.0820 C   0  0  0  0  0  0  0  0  0  0  0  0
  131.7390  125.0440   66.0520 C   0  0  0  0  0  0  0  0  0  0  0  0
  131.2670  126.1000   66.9460 N   0  0  0  0  0  0  0  0  0  0  0  0
  130.1450  126.0450   67.6850 C   0  0  0  0  0  0  0  0  0  0  0  0
  129.4370  125.0380   67.7680 O   0  0  0  0  0  0  0  0  0  0  0  0
  129.8200  127.2980   68.5290 C   0  0  2  0  0  0  0  0  0  0  0  0
  130.8860  127.5860   69.6030 C   0  0  0  0  0  0  0  0  0  0  0  0
  130.1120  127.8520   70.8880 C   0  0  2  0  0  0  0  0  0  0  0  0
  130.8440  127.5420   72.0560 O   0  0  0  0  0  0  0  0  0  0  0  0
  128.7860  127.1070   70.7250 C   0  0  0  0  0  0  0  0  0  0  0  0
  128.5510  127.1440   69.2730 N   0  0  0  0  0  0  0  0  0  0  0  0
  127.3340  127.3230   68.6830 C   0  0  0  0  0  0  0  0  0  0  0  0
  126.3160  126.7730   69.1140 O   0  0  0  0  0  0  0  0  0  0  0  0
  127.2720  128.2310   67.5510 C   0  0  0  0  0  0  0  0  0  0  0  0
  128.0130  128.0570   66.4350 C   0  0  0  0  0  0  0  0  0  0  0  0
  128.0060  128.9160   65.2310 C   0  0  0  0  0  0  0  0  0  0  0  0
  128.0390  128.3050   63.9690 C   0  0  0  0  0  0  0  0  0  0  0  0
  128.0440  129.0670   62.8000 C   0  0  0  0  0  0  0  0  0  0  0  0
  128.0200  130.4580   62.8830 C   0  0  0  0  0  0  0  0  0  0  0  0
  127.9730  131.0840   64.1380 C   0  0  0  0  0  0  0  0  0  0  0  0
  127.9770  130.3190   65.3030 C   0  0  0  0  0  0  0  0  0  0  0  0
  127.9890  132.4590   64.2710 O   0  0  0  0  0  0  0  0  0  0  0  0
  127.6120  133.1650   63.0840 C   0  0  0  0  0  0  0  0  0  0  0  0
  128.3140  132.5570   61.8460 C   0  0  0  0  0  0  0  0  0  0  0  0
  127.9740  131.1740   61.7040 O   0  0  0  0  0  0  0  0  0  0  0  0
  130.1020  123.2910   65.2430 C   0  0  0  0  0  0  0  0  0  0  0  0
  129.1370  122.8400   64.3450 C   0  0  0  0  0  0  0  0  0  0  0  0
  125.5732  121.9896   57.5729 H   0  0  0  0  0  0  0  0  0  0  0  0
  125.4874  123.0853   56.1521 H   0  0  0  0  0  0  0  0  0  0  0  0
  126.6342  121.7027   56.1521 H   0  0  0  0  0  0  0  0  0  0  0  0
  128.0279  123.5337   56.6558 H   0  0  0  0  0  0  0  0  0  0  0  0
  126.7508  124.3095   57.6987 H   0  0  0  0  0  0  0  0  0  0  0  0
  127.4432  121.7476   58.8100 H   0  0  0  0  0  0  0  0  0  0  0  0
  128.9547  122.7262   58.5009 H   0  0  0  0  0  0  0  0  0  0  0  0
  128.0919  124.5633   59.8294 H   0  0  0  0  0  0  0  0  0  0  0  0
  126.5353  123.6939   60.0840 H   0  0  0  0  0  0  0  0  0  0  0  0
  129.0333  125.5426   62.2586 H   0  0  0  0  0  0  0  0  0  0  0  0
  130.7581  126.3414   63.8631 H   0  0  0  0  0  0  0  0  0  0  0  0
  132.0731  124.1925   66.6630 H   0  0  0  0  0  0  0  0  0  0  0  0
  132.5564  125.4675   65.4499 H   0  0  0  0  0  0  0  0  0  0  0  0
  131.7830  126.9680   66.9220 H   0  0  0  0  0  0  0  0  0  0  0  0
  129.7702  128.1154   67.7946 H   0  0  0  0  0  0  0  0  0  0  0  0
  131.5499  126.7178   69.7274 H   0  0  0  0  0  0  0  0  0  0  0  0
  131.5216  128.4402   69.3266 H   0  0  0  0  0  0  0  0  0  0  0  0
  129.9181  128.9243   71.0381 H   0  0  0  0  0  0  0  0  0  0  0  0
  131.7710  127.7280   71.8950 H   0  0  0  0  0  0  0  0  0  0  0  0
  128.8700  126.0706   71.0840 H   0  0  0  0  0  0  0  0  0  0  0  0
  127.9664  127.5568   71.3045 H   0  0  0  0  0  0  0  0  0  0  0  0
  126.5940  129.0956   67.6047 H   0  0  0  0  0  0  0  0  0  0  0  0
  128.6893  127.1896   66.4202 H   0  0  0  0  0  0  0  0  0  0  0  0
  128.0613  127.2074   63.8996 H   0  0  0  0  0  0  0  0  0  0  0  0
  128.0668  128.5722   61.8178 H   0  0  0  0  0  0  0  0  0  0  0  0
  127.9574  130.8162   66.2840 H   0  0  0  0  0  0  0  0  0  0  0  0
  126.5221  133.0960   62.9525 H   0  0  0  0  0  0  0  0  0  0  0  0
  127.9158  134.2174   63.1843 H   0  0  0  0  0  0  0  0  0  0  0  0
  127.9952  133.1022   60.9453 H   0  0  0  0  0  0  0  0  0  0  0  0
  129.4027  132.6434   61.9770 H   0  0  0  0  0  0  0  0  0  0  0  0
  130.4161  122.6499   66.0799 H   0  0  0  0  0  0  0  0  0  0  0  0
  128.6831  121.8478   64.4844 H   0  0  0  0  0  0  0  0  0  0  0  0
  1  2  1  0
  2  3  1  0
  3  4  1  0
  4  5  1  0
  5  6  1  0
  6  7  2  0
  6  8  1  0
  8  9  2  0
  9 10  1  0
 10 11  2  0
 11 12  1  0
 12 13  1  0
 13 14  1  0
 14 15  2  0
 14 16  1  0
 16 17  1  0
 17 18  1  0
 18 19  1  0
 18 20  1  0
 20 21  1  0
 21 22  1  0
 22 23  2  0
 22 24  1  0
 24 25  2  0
 25 26  1  0
 26 27  2  0
 27 28  1  0
 28 29  2  0
 29 30  1  0
 30 31  2  0
 30 32  1  0
 32 33  1  0
 33 34  1  0
 34 35  1  0
 11 36  1  0
 36 37  2  0
 37  8  1  0
 21 16  1  0
 31 26  1  0
 35 29  1  0
  1 38  1  0
  1 39  1  0
  1 40  1  0
  2 41  1  0
  2 42  1  0
  3 43  1  0
  3 44  1  0
  4 45  1  0
  4 46  1  0
  9 47  1  0
 10 48  1  0
 12 49  1  0
 12 50  1  0
 13 51  1  0
 16 52  1  6
 17 53  1  0
 17 54  1  0
 18 55  1  1
 19 56  1  0
 20 57  1  0
 20 58  1  0
 24 59  1  0
 25 60  1  0
 27 61  1  0
 28 62  1  0
 31 63  1  0
 33 64  1  0
 33 65  1  0
 34 66  1  0
 34 67  1  0
 36 68  1  0
 37 69  1  0
M  END
>  <Binding energies>  (1) 
[-8.26]

>  <Ligand effiencies>  (1) 
[-0.2117948717948718]

>  <Interactions>  (1) 
["V-B:PRO:540:CA:9855, V-B:GLU:543:C:9874, H-A:GLU:543:OE2:4910, V-B:GLU:543:CB:9878, V-B:ALA:541:CB:9864, V-B:TYR:539:CE2:9848, V-A:TYR:484:CE2:4346, V-B:GLU:543:CG:9879, V-B:LEU:475:CD2:9230, V-B:TYR:539:C:9839, H-B:HIS:456:ND1:9038, V-B:TYR:484:CE2:9317, V-A:ALA:541:CB:4892, H-B:ARG:545:N:9892, H-B:ALA:541:N:9863, V-A:TYR:484:CZ:4347, V-B:PRO:540:CB:9857, V-A:GLU:543:CD:4908, H-B:TYR:484:OH:9319, V-B:HIS:456:CE1:9041, V-B:PRO:540:N:9856, V-A:HIS:456:CE1:4070, V-B:TYR:484:CZ:9318, V-B:TYR:539:CD2:9846, V-B:PRO:540:CD:9859, V-A:GLU:543:CG:4907, V-B:GLU:543:CD:9880, V-A:GLU:543:CB:4906, H-A:GLY:544:O:4913, H-A:HIS:456:NE2:4071"]

$$$$
ZINC2323790869
     RDKit          3D

 43 46  0  0  0  0  0  0  0  0999 V2000
  129.0790  125.1470   63.1590 C   0  0  0  0  0  0  0  0  0  0  0  0
  130.4490  124.9920   63.7840 C   0  0  0  0  0  0  0  0  0  0  0  0
  130.9650  125.5990   64.9110 C   0  0  0  0  0  0  0  0  0  0  0  0
  132.6100  125.1150   65.2810 S   0  0  0  0  0  0  0  0  0  0  0  0
  132.5970  124.0710   63.8740 C   0  0  0  0  0  0  0  0  0  0  0  0
  133.4550  123.2580   63.3080 N   0  0  0  0  0  0  0  0  0  0  0  0
  132.8270  122.7760   62.2560 C   0  0  0  0  0  0  0  0  0  0  0  0
  133.6220  121.6850   61.1910 Cl  0  0  0  0  0  0  0  0  0  0  0  0
  131.5190  123.2560   62.1400 C   0  0  0  0  0  0  0  0  0  0  0  0
  130.4900  123.0240   61.1450 C   0  0  0  0  0  0  0  0  0  0  0  0
  130.0900  123.8820   60.1810 C   0  0  0  0  0  0  0  0  0  0  0  0
  130.7050  125.4880   59.8370 S   0  0  0  0  0  0  0  0  0  0  0  0
  129.5850  125.6990   58.5230 C   0  0  0  0  0  0  0  0  0  0  0  0
  129.6200  127.1420   57.6830 S   0  0  0  0  0  0  0  0  0  0  0  0
  128.8080  124.5710   58.3880 N   0  0  0  0  0  0  0  0  0  0  0  0
  127.7460  124.4640   57.3320 C   0  0  1  0  0  0  0  0  0  0  0  0
  127.7930  123.2170   56.4010 C   0  0  0  0  0  0  0  0  0  0  0  0
  126.7910  122.0930   56.7380 C   0  0  0  0  0  0  0  0  0  0  0  0
  125.3740  122.6180   57.0280 C   0  0  0  0  0  0  0  0  0  0  0  0
  125.3850  123.7220   58.1000 C   0  0  0  0  0  0  0  0  0  0  0  0
  126.2910  124.9090   57.7010 C   0  0  1  0  0  0  0  0  0  0  0  0
  126.2200  126.0530   58.7330 C   0  0  0  0  0  0  0  0  0  0  0  0
  129.0390  123.5400   59.2490 C   0  0  0  0  0  0  0  0  0  0  0  0
  128.4390  122.4640   59.2410 O   0  0  0  0  0  0  0  0  0  0  0  0
  131.3850  124.1320   63.2110 N   0  0  0  0  0  0  0  0  0  0  0  0
  128.3217  125.2327   63.9522 H   0  0  0  0  0  0  0  0  0  0  0  0
  129.0609  126.0529   62.5353 H   0  0  0  0  0  0  0  0  0  0  0  0
  128.8589  124.2680   62.5353 H   0  0  0  0  0  0  0  0  0  0  0  0
  130.3981  126.3186   65.5199 H   0  0  0  0  0  0  0  0  0  0  0  0
  129.9826  122.0486   61.1785 H   0  0  0  0  0  0  0  0  0  0  0  0
  128.1019  125.2904   56.6993 H   0  0  0  0  0  0  0  0  0  0  0  0
  127.5900  123.5541   55.3738 H   0  0  0  0  0  0  0  0  0  0  0  0
  128.7927  122.7786   56.5368 H   0  0  0  0  0  0  0  0  0  0  0  0
  126.7406  121.4008   55.8846 H   0  0  0  0  0  0  0  0  0  0  0  0
  127.1503  121.5944   57.6503 H   0  0  0  0  0  0  0  0  0  0  0  0
  124.9482  123.0266   56.0997 H   0  0  0  0  0  0  0  0  0  0  0  0
  124.7681  121.7805   57.4041 H   0  0  0  0  0  0  0  0  0  0  0  0
  124.3582  124.0907   58.2403 H   0  0  0  0  0  0  0  0  0  0  0  0
  125.7832  123.2886   59.0293 H   0  0  0  0  0  0  0  0  0  0  0  0
  125.8896  125.3284   56.7667 H   0  0  0  0  0  0  0  0  0  0  0  0
  126.2461  125.6324   59.7491 H   0  0  0  0  0  0  0  0  0  0  0  0
  127.0780  126.7269   58.5930 H   0  0  0  0  0  0  0  0  0  0  0  0
  125.2852  126.6156   58.5930 H   0  0  0  0  0  0  0  0  0  0  0  0
  1  2  1  0
  2  3  2  0
  3  4  1  0
  4  5  1  0
  5  6  2  0
  6  7  1  0
  7  8  1  0
  7  9  2  0
  9 10  1  0
 10 11  2  0
 11 12  1  0
 12 13  1  0
 13 14  2  0
 13 15  1  0
 15 16  1  0
 16 17  1  0
 17 18  1  0
 18 19  1  0
 19 20  1  0
 20 21  1  0
 21 22  1  0
 15 23  1  0
 23 24  2  0
  9 25  1  0
 25  2  1  0
 25  5  1  0
 23 11  1  0
 21 16  1  0
  1 26  1  0
  1 27  1  0
  1 28  1  0
  3 29  1  0
 10 30  1  0
 16 31  1  6
 17 32  1  0
 17 33  1  0
 18 34  1  0
 18 35  1  0
 19 36  1  0
 19 37  1  0
 20 38  1  0
 20 39  1  0
 21 40  1  6
 22 41  1  0
 22 42  1  0
 22 43  1  0
M  END
>  <Binding energies>  (1) 
[-7.44]

>  <Ligand effiencies>  (1) 
[-0.29760000000000003]

>  <Interactions>  (1) 
["V-A:ILE:369:CG2:3237, V-B:TYR:539:CA:9841, V-B:PRO:540:CA:9855, V-B:ASP:366:CG:8184, V-B:TYR:539:CE2:9848, V-B:GLU:543:CG:9879, V-B:TYR:539:C:9839, V-B:TYR:539:CZ:9849, V-A:GLU:543:CD:4908, V-B:PRO:540:CB:9857, H-A:GLY:454:N:4050, V-B:PRO:540:N:9856, V-A:ILE:369:CD1:3239, V-B:TYR:539:CD2:9846, V-B:PRO:540:CD:9859, V-B:GLU:543:CD:9880, V-A:LEU:475:CD2:4259, V-A:ARG:545:CZ:4926, V-B:TYR:539:CG:9844, V-B:TYR:539:CD1:9845, V-B:PRO:540:CG:9858, V-B:LEU:363:CD1:8160, V-B:MET:535:CE:9807, V-B:TYR:539:CE1:9847"]

$$$$
ZINC2325147711
     RDKit          3D

 85 86  0  0  0  0  0  0  0  0999 V2000
  128.9870  131.1030   62.0900 C   0  0  0  0  0  0  0  0  0  0  0  0
  128.0570  131.1430   63.3290 C   0  0  0  0  0  0  0  0  0  0  0  0
  126.6890  131.7730   62.9760 C   0  0  0  0  0  0  0  0  0  0  0  0
  128.7340  131.9720   64.4380 C   0  0  0  0  0  0  0  0  0  0  0  0
  127.8930  129.8380   63.9090 O   0  0  0  0  0  0  0  0  0  0  0  0
  126.9560  128.9110   63.5370 C   0  0  0  0  0  0  0  0  0  0  0  0
  125.7400  129.0960   63.5610 O   0  0  0  0  0  0  0  0  0  0  0  0
  127.5450  127.7190   63.1240 N   0  0  0  0  0  0  0  0  0  0  0  0
  128.9870  127.4640   63.0690 C   0  0  0  0  0  0  0  0  0  0  0  0
  129.5090  126.5200   64.1830 C   0  0  0  0  0  0  0  0  0  0  0  0
  128.9830  126.8220   65.6130 C   0  0  0  0  0  0  0  0  0  0  0  0
  128.7080  128.2400   65.8770 N   0  0  0  0  0  0  0  0  0  0  0  0
  128.2500  128.7690   67.0820 C   0  0  0  0  0  0  0  0  0  0  0  0
  128.1600  129.9770   67.2970 O   0  0  0  0  0  0  0  0  0  0  0  0
  127.9070  127.7900   67.9780 O   0  0  0  0  0  0  0  0  0  0  0  0
  128.7480  127.3030   69.0430 C   0  0  0  0  0  0  0  0  0  0  0  0
  129.4750  126.0050   68.6180 C   0  0  0  0  0  0  0  0  0  0  0  0
  129.7590  128.3790   69.5150 C   0  0  0  0  0  0  0  0  0  0  0  0
  127.7790  126.9920   70.2010 C   0  0  0  0  0  0  0  0  0  0  0  0
  131.0530  126.5750   64.1630 N   0  0  0  0  0  0  0  0  0  0  0  0
  131.8330  125.4560   63.4160 C   0  0  1  0  0  0  0  0  0  0  0  0
  132.9850  125.0210   64.3970 C   0  0  0  0  0  0  0  0  0  0  0  0
  132.9180  125.3820   65.5930 O   0  0  0  0  0  0  0  0  0  0  0  0
  133.9530  124.3610   63.9450 O   0  0  0  0  0  0  0  0  0  0  0  0
  130.8890  124.2860   63.0780 C   0  0  0  0  0  0  0  0  0  0  0  0
  131.2540  123.7940   61.7370 N   0  0  0  0  0  0  0  0  0  0  0  0
  130.6500  122.6590   61.1640 C   0  0  0  0  0  0  0  0  0  0  0  0
  131.2340  121.7830   60.5260 O   0  0  0  0  0  0  0  0  0  0  0  0
  129.2980  122.6500   61.3970 O   0  0  0  0  0  0  0  0  0  0  0  0
  128.3060  123.3510   60.6250 C   0  0  0  0  0  0  0  0  0  0  0  0
  126.9140  123.2770   61.3000 C   0  0  0  0  0  0  0  0  0  0  0  0
  128.7240  124.8200   60.3690 C   0  0  0  0  0  0  0  0  0  0  0  0
  128.2630  122.5900   59.2840 C   0  0  0  0  0  0  0  0  0  0  0  0
  132.3020  124.6200   61.0860 C   0  0  2  0  0  0  0  0  0  0  0  0
  132.0710  124.9650   59.6010 C   0  0  0  0  0  0  0  0  0  0  0  0
  133.0260  124.0860   58.7860 C   0  0  0  0  0  0  0  0  0  0  0  0
  133.6730  123.2490   59.7330 O   0  0  0  0  0  0  0  0  0  0  0  0
  133.6700  123.9160   60.9850 C   0  0  0  0  0  0  0  0  0  0  0  0
  132.2410  125.8700   61.9880 C   0  0  0  0  0  0  0  0  0  0  0  0
  130.0354  131.0579   62.4198 H   0  0  0  0  0  0  0  0  0  0  0  0
  128.7543  130.2140   61.4854 H   0  0  0  0  0  0  0  0  0  0  0  0
  128.8314  132.0087   61.4854 H   0  0  0  0  0  0  0  0  0  0  0  0
  126.1498  132.0213   63.9021 H   0  0  0  0  0  0  0  0  0  0  0  0
  126.8479  132.6886   62.3875 H   0  0  0  0  0  0  0  0  0  0  0  0
  126.0965  131.0570   62.3875 H   0  0  0  0  0  0  0  0  0  0  0  0
  128.4230  131.5912   65.4220 H   0  0  0  0  0  0  0  0  0  0  0  0
  129.8267  131.8901   64.3417 H   0  0  0  0  0  0  0  0  0  0  0  0
  128.4354  133.0263   64.3417 H   0  0  0  0  0  0  0  0  0  0  0  0
  126.9310  126.9770   62.8210 H   0  0  0  0  0  0  0  0  0  0  0  0
  129.2200  127.0096   62.0947 H   0  0  0  0  0  0  0  0  0  0  0  0
  129.4851  128.4335   63.2174 H   0  0  0  0  0  0  0  0  0  0  0  0
  129.1211  125.5159   63.9564 H   0  0  0  0  0  0  0  0  0  0  0  0
  128.0502  126.2583   65.7615 H   0  0  0  0  0  0  0  0  0  0  0  0
  129.7822  126.5251   66.3080 H   0  0  0  0  0  0  0  0  0  0  0  0
  128.9550  128.8960   65.1500 H   0  0  0  0  0  0  0  0  0  0  0  0
  129.7865  125.4489   69.5145 H   0  0  0  0  0  0  0  0  0  0  0  0
  128.7941  125.3828   68.0187 H   0  0  0  0  0  0  0  0  0  0  0  0
  130.3613  126.2606   68.0187 H   0  0  0  0  0  0  0  0  0  0  0  0
  129.7819  128.4034   70.6145 H   0  0  0  0  0  0  0  0  0  0  0  0
  130.7608  128.1336   69.1327 H   0  0  0  0  0  0  0  0  0  0  0  0
  129.4517  129.3636   69.1327 H   0  0  0  0  0  0  0  0  0  0  0  0
  128.2903  127.1561   71.1610 H   0  0  0  0  0  0  0  0  0  0  0  0
  126.9032  127.6542   70.1341 H   0  0  0  0  0  0  0  0  0  0  0  0
  127.4521  125.9438   70.1341 H   0  0  0  0  0  0  0  0  0  0  0  0
  131.3280  127.4510   63.7410 H   0  0  0  0  0  0  0  0  0  0  0  0
  131.3720  126.6030   65.1200 H   0  0  0  0  0  0  0  0  0  0  0  0
  131.0084  123.4813   63.8184 H   0  0  0  0  0  0  0  0  0  0  0  0
  129.8402  124.6172   63.0965 H   0  0  0  0  0  0  0  0  0  0  0  0
  127.0358  123.2835   62.3932 H   0  0  0  0  0  0  0  0  0  0  0  0
  126.3111  124.1444   60.9931 H   0  0  0  0  0  0  0  0  0  0  0  0
  126.4065  122.3506   60.9931 H   0  0  0  0  0  0  0  0  0  0  0  0
  128.8699  125.3327   61.3312 H   0  0  0  0  0  0  0  0  0  0  0  0
  129.6634  124.8396   59.7970 H   0  0  0  0  0  0  0  0  0  0  0  0
  127.9357  125.3312   59.7970 H   0  0  0  0  0  0  0  0  0  0  0  0
  128.2019  121.5089   59.4777 H   0  0  0  0  0  0  0  0  0  0  0  0
  127.3815  122.9099   58.7090 H   0  0  0  0  0  0  0  0  0  0  0  0
  129.1749  122.8085   58.7090 H   0  0  0  0  0  0  0  0  0  0  0  0
  131.0288  124.7520   59.3209 H   0  0  0  0  0  0  0  0  0  0  0  0
  132.2589  126.0320   59.4108 H   0  0  0  0  0  0  0  0  0  0  0  0
  132.4651  123.4811   58.0583 H   0  0  0  0  0  0  0  0  0  0  0  0
  133.7471  124.6884   58.2141 H   0  0  0  0  0  0  0  0  0  0  0  0
  133.7890  123.1919   61.8045 H   0  0  0  0  0  0  0  0  0  0  0  0
  134.5000  124.6337   61.0620 H   0  0  0  0  0  0  0  0  0  0  0  0
  133.2298  126.3513   62.0145 H   0  0  0  0  0  0  0  0  0  0  0  0
  131.4994  126.5758   61.5856 H   0  0  0  0  0  0  0  0  0  0  0  0
  1  2  1  0
  2  3  1  0
  2  4  1  0
  2  5  1  0
  5  6  1  0
  6  7  2  0
  6  8  1  0
  8  9  1  0
  9 10  1  0
 10 11  1  0
 11 12  1  0
 12 13  1  0
 13 14  2  0
 13 15  1  0
 15 16  1  0
 16 17  1  0
 16 18  1  0
 16 19  1  0
 10 20  1  0
 21 20  1  1
 21 22  1  0
 22 23  2  0
 22 24  1  0
 21 25  1  0
 25 26  1  0
 26 27  1  0
 27 28  2  0
 27 29  1  0
 29 30  1  0
 30 31  1  0
 30 32  1  0
 30 33  1  0
 34 26  1  1
 34 35  1  0
 35 36  1  0
 36 37  1  0
 37 38  1  0
 34 39  1  0
 39 21  1  0
 38 34  1  0
  1 40  1  0
  1 41  1  0
  1 42  1  0
  3 43  1  0
  3 44  1  0
  3 45  1  0
  4 46  1  0
  4 47  1  0
  4 48  1  0
  8 49  1  0
  9 50  1  0
  9 51  1  0
 10 52  1  0
 11 53  1  0
 11 54  1  0
 12 55  1  0
 17 56  1  0
 17 57  1  0
 17 58  1  0
 18 59  1  0
 18 60  1  0
 18 61  1  0
 19 62  1  0
 19 63  1  0
 19 64  1  0
 20 65  1  0
 20 66  1  0
 25 67  1  0
 25 68  1  0
 31 69  1  0
 31 70  1  0
 31 71  1  0
 32 72  1  0
 32 73  1  0
 32 74  1  0
 33 75  1  0
 33 76  1  0
 33 77  1  0
 35 78  1  0
 35 79  1  0
 36 80  1  0
 36 81  1  0
 38 82  1  0
 38 83  1  0
 39 84  1  0
 39 85  1  0
M  CHG  2  20   1  24  -1
M  END
>  <Binding energies>  (1) 
[-7.77]

>  <Ligand effiencies>  (1) 
[-0.18069767441860465]

>  <Interactions>  (1) 
["V-A:ILE:369:CG2:3237, V-B:PRO:540:CA:9855, V-A:GLU:543:CA:4904, V-B:GLU:543:C:9874, H-A:GLU:543:OE2:4910, V-A:GLU:543:C:4902, V-B:GLU:543:CB:9878, V-B:TYR:539:CE2:9848, V-B:GLU:543:CG:9879, V-B:TYR:539:C:9839, V-A:ASP:366:CG:3213, V-B:TYR:484:CE2:9317, V-B:TYR:539:CZ:9849, H-B:GLU:543:OE1:9881, V-A:ALA:541:CB:4892, V-A:GLU:543:CD:4908, V-B:PRO:540:CB:9857, H-B:TYR:484:OH:9319, V-B:HIS:456:CE1:9041, H-A:GLY:454:N:4050, V-B:GLU:543:CA:9876, V-B:PRO:540:N:9856, V-A:HIS:456:CE1:4070, V-A:ILE:369:CD1:3239, V-B:TYR:539:CD2:9846, V-A:GLU:543:CG:4907, V-B:GLU:543:CD:9880, H-A:ARG:545:NH2:4928, V-A:ARG:545:CZ:4926, H-A:GLU:543:OE1:4909, H-B:ARG:545:NH2:9900, V-A:GLU:543:CB:4906, H-B:GLU:543:OE2:9882, H-A:ARG:545:NE:4924, V-B:PRO:540:C:9853, H-A:TYR:484:OH:4348"]

$$$$
ZINC232554328
     RDKit          3D

 39 40  0  0  0  0  0  0  0  0999 V2000
  130.6090  125.4860   66.9370 C   0  0  0  0  0  0  0  0  0  0  0  0
  131.5690  125.4150   66.0000 C   0  0  0  0  0  0  0  0  0  0  0  0
  131.5370  124.4900   64.7910 C   0  0  0  0  0  0  0  0  0  0  0  0
  132.8800  124.4430   64.0240 C   0  0  0  0  0  0  0  0  0  0  0  0
  133.9210  124.7420   64.6150 O   0  0  0  0  0  0  0  0  0  0  0  0
  132.8820  124.0680   62.7140 N   0  0  0  0  0  0  0  0  0  0  0  0
  131.7740  124.4520   61.8190 C   0  0  0  0  0  0  0  0  0  0  0  0
  131.8370  125.8810   61.2090 C   0  0  1  0  0  0  0  0  0  0  0  0
  131.1950  126.0270   59.8030 C   0  0  0  0  0  0  0  0  0  0  0  0
  131.3340  127.4620   59.2660 C   0  0  0  0  0  0  0  0  0  0  0  0
  130.7290  128.4990   60.2340 C   0  0  0  0  0  0  0  0  0  0  0  0
  131.3580  128.3370   61.6310 N   0  0  0  0  0  0  0  0  0  0  0  0
  131.2110  126.9050   62.1860 C   0  0  0  0  0  0  0  0  0  0  0  0
  134.0380  123.4550   62.0410 C   0  0  0  0  0  0  0  0  0  0  0  0
  133.9370  122.0500   61.4740 C   0  0  0  0  0  0  0  0  0  0  0  0
  134.0110  123.2300   60.5410 C   0  0  0  0  0  0  0  0  0  0  0  0
  130.7138  126.1850   67.7799 H   0  0  0  0  0  0  0  0  0  0  0  0
  129.7181  124.8452   66.8614 H   0  0  0  0  0  0  0  0  0  0  0  0
  132.4425  126.0736   66.1146 H   0  0  0  0  0  0  0  0  0  0  0  0
  131.2949  123.4735   65.1348 H   0  0  0  0  0  0  0  0  0  0  0  0
  130.7785  124.8834   64.0983 H   0  0  0  0  0  0  0  0  0  0  0  0
  131.7533  123.7339   60.9860 H   0  0  0  0  0  0  0  0  0  0  0  0
  130.8739  124.4452   62.4513 H   0  0  0  0  0  0  0  0  0  0  0  0
  132.9079  126.0846   61.0619 H   0  0  0  0  0  0  0  0  0  0  0  0
  131.6944  125.3355   59.1085 H   0  0  0  0  0  0  0  0  0  0  0  0
  130.1236  125.7921   59.8867 H   0  0  0  0  0  0  0  0  0  0  0  0
  132.4014  127.6872   59.1252 H   0  0  0  0  0  0  0  0  0  0  0  0
  130.7868  127.5243   58.3138 H   0  0  0  0  0  0  0  0  0  0  0  0
  130.9320  129.5124   59.8573 H   0  0  0  0  0  0  0  0  0  0  0  0
  129.6427  128.3406   60.3039 H   0  0  0  0  0  0  0  0  0  0  0  0
  132.3400  128.5700   61.5800 H   0  0  0  0  0  0  0  0  0  0  0  0
  130.9310  128.9920   62.2700 H   0  0  0  0  0  0  0  0  0  0  0  0
  131.7225  126.8385   63.1576 H   0  0  0  0  0  0  0  0  0  0  0  0
  130.1416  126.6766   62.3055 H   0  0  0  0  0  0  0  0  0  0  0  0
  134.7135  123.9651   62.7435 H   0  0  0  0  0  0  0  0  0  0  0  0
  134.7906  121.3612   61.5574 H   0  0  0  0  0  0  0  0  0  0  0  0
  133.2428  121.2071   61.6065 H   0  0  0  0  0  0  0  0  0  0  0  0
  134.9185  123.4016   59.9435 H   0  0  0  0  0  0  0  0  0  0  0  0
  133.3927  123.6033   59.7113 H   0  0  0  0  0  0  0  0  0  0  0  0
  1  2  2  0
  2  3  1  0
  3  4  1  0
  4  5  2  0
  4  6  1  0
  6  7  1  0
  7  8  1  0
  8  9  1  0
  9 10  1  0
 10 11  1  0
 11 12  1  0
 12 13  1  0
  6 14  1  0
 14 15  1  0
 15 16  1  0
 13  8  1  0
 16 14  1  0
  1 17  1  0
  1 18  1  0
  2 19  1  0
  3 20  1  0
  3 21  1  0
  7 22  1  0
  7 23  1  0
  8 24  1  6
  9 25  1  0
  9 26  1  0
 10 27  1  0
 10 28  1  0
 11 29  1  0
 11 30  1  0
 12 31  1  0
 12 32  1  0
 13 33  1  0
 13 34  1  0
 14 35  1  0
 15 36  1  0
 15 37  1  0
 16 38  1  0
 16 39  1  0
M  CHG  1  12   1
M  END
>  <Binding energies>  (1) 
[-5.81]

>  <Ligand effiencies>  (1) 
[-0.3227777777777778]

>  <Interactions>  (1) 
["V-A:ILE:369:CG2:3237, V-A:HIS:456:CE1:4070, V-A:ILE:369:CD1:3239, V-A:ILE:369:CB:3236, H-A:ARG:545:NE:4924, V-A:GLU:543:CD:4908, H-A:ASP:366:OD2:3215, V-A:ASP:366:CB:3212, V-A:LEU:475:CD2:4259, H-A:ARG:545:NH2:4928, V-A:ARG:545:CZ:4926, H-A:GLU:543:OE1:4909, H-A:GLY:454:N:4050, V-A:ASP:366:CG:3213, H-A:TYR:484:OH:4348, H-A:ASP:366:OD1:3214"]

$$$$
ZINC2325767670
     RDKit          3D

 29 30  0  0  0  0  0  0  0  0999 V2000
  127.9190  127.5600   68.7530 C   0  0  0  0  0  0  0  0  0  0  0  0
  129.1760  127.6130   69.6040 C   0  0  0  0  0  0  0  0  0  0  0  0
  130.1800  128.2270   69.0210 N   0  0  0  0  0  0  0  0  0  0  0  0
  131.5120  128.2190   70.0760 S   0  0  0  0  0  0  0  0  0  0  0  0
  130.6790  127.3400   71.3480 C   0  0  0  0  0  0  0  0  0  0  0  0
  131.1980  126.9790   72.5730 N   0  0  0  0  0  0  0  0  0  0  0  0
  130.5970  126.6770   73.6730 C   0  0  0  0  0  0  0  0  0  0  0  0
  129.3910  126.6310   73.9740 O   0  0  0  0  0  0  0  0  0  0  0  0
  131.5620  126.2960   74.8260 C   0  0  2  0  0  0  0  0  0  0  0  0
  133.2590  126.8770   74.5190 S   0  0  0  0  0  0  0  0  0  0  0  0
  134.0790  125.4540   75.2740 C   0  0  0  0  0  0  0  0  0  0  0  0
  132.9880  124.5710   75.8920 C   0  0  0  0  0  0  0  0  0  0  0  0
  131.6940  124.7680   75.0820 C   0  0  1  0  0  0  0  0  0  0  0  0
  130.4650  124.1740   75.7950 C   0  0  0  0  0  0  0  0  0  0  0  0
  129.3770  127.0980   70.8990 C   0  0  0  0  0  0  0  0  0  0  0  0
  128.3530  126.4000   71.6700 C   0  0  0  0  0  0  0  0  0  0  0  0
  127.5400  125.8460   72.2810 N   0  0  0  0  0  0  0  0  0  0  0  0
  127.0350  127.5227   69.4066 H   0  0  0  0  0  0  0  0  0  0  0  0
  127.8680  128.4568   68.1180 H   0  0  0  0  0  0  0  0  0  0  0  0
  127.9437  126.6621   68.1180 H   0  0  0  0  0  0  0  0  0  0  0  0
  131.1010  126.7833   75.6978 H   0  0  0  0  0  0  0  0  0  0  0  0
  134.6316  124.8889   74.5090 H   0  0  0  0  0  0  0  0  0  0  0  0
  134.7956  125.7809   76.0419 H   0  0  0  0  0  0  0  0  0  0  0  0
  133.2957  123.5157   75.8515 H   0  0  0  0  0  0  0  0  0  0  0  0
  132.8242  124.8492   76.9435 H   0  0  0  0  0  0  0  0  0  0  0  0
  131.7430  124.2247   74.1268 H   0  0  0  0  0  0  0  0  0  0  0  0
  130.6047  124.2415   76.8840 H   0  0  0  0  0  0  0  0  0  0  0  0
  129.5654  124.7367   75.5051 H   0  0  0  0  0  0  0  0  0  0  0  0
  130.3471  123.1195   75.5051 H   0  0  0  0  0  0  0  0  0  0  0  0
  1  2  1  0
  2  3  2  0
  3  4  1  0
  4  5  1  0
  5  6  1  0
  6  7  2  0
  7  8  1  0
  7  9  1  0
  9 10  1  0
 10 11  1  0
 11 12  1  0
 12 13  1  0
 13 14  1  0
  5 15  2  0
 15 16  1  0
 16 17  3  0
 15  2  1  0
 13  9  1  0
  1 18  1  0
  1 19  1  0
  1 20  1  0
  9 21  1  1
 11 22  1  0
 11 23  1  0
 12 24  1  0
 12 25  1  0
 13 26  1  6
 14 27  1  0
 14 28  1  0
 14 29  1  0
M  CHG  1   8  -1
M  END
>  <Binding energies>  (1) 
[-6.59]

>  <Ligand effiencies>  (1) 
[-0.3876470588235294]

>  <Interactions>  (1) 
["V-A:ARG:545:CA:4919, V-A:GLU:543:CA:4904, V-B:GLU:543:C:9874, V-A:GLU:543:C:4902, V-B:GLU:543:CB:9878, H-B:LYS:547:NZ:9923, V-A:GLY:544:CA:4914, V-A:GLY:544:C:4912, V-A:HIS:456:CD2:4068, V-A:HIS:456:CB:4065, V-A:ARG:545:CG:4922, V-B:HIS:456:CE1:9041, V-A:HIS:456:CE1:4070, V-A:HIS:456:CA:4063, H-A:LYS:547:NZ:4951, V-A:HIS:456:C:4061, V-A:HIS:456:CG:4066, V-A:GLU:543:CB:4906, V-A:VAL:458:CG2:4087"]

$$$$
ZINC2325767670-again1
     RDKit          3D

 30 31  0  0  0  0  0  0  0  0999 V2000
  132.7940  122.3370   62.7300 C   0  0  0  0  0  0  0  0  0  0  0  0
  131.7710  123.1320   63.5220 C   0  0  0  0  0  0  0  0  0  0  0  0
  130.5260  122.7730   63.2900 N   0  0  0  0  0  0  0  0  0  0  0  0
  129.4880  123.7400   64.2440 S   0  0  0  0  0  0  0  0  0  0  0  0
  130.7930  124.6470   64.9580 C   0  0  0  0  0  0  0  0  0  0  0  0
  130.6170  125.6770   65.8830 N   0  0  0  0  0  0  0  0  0  0  0  0
  130.0320  125.6090   67.1000 C   0  0  0  0  0  0  0  0  0  0  0  0
  129.5570  124.5830   67.5930 O   0  0  0  0  0  0  0  0  0  0  0  0
  129.9820  126.9320   67.8900 C   0  0  2  0  0  0  0  0  0  0  0  0
  131.6260  127.3670   68.5120 S   0  0  0  0  0  0  0  0  0  0  0  0
  131.0530  128.0170   70.0990 C   0  0  0  0  0  0  0  0  0  0  0  0
  129.5200  128.0010   70.0720 C   0  0  0  0  0  0  0  0  0  0  0  0
  129.0640  126.8680   69.1350 C   0  0  1  0  0  0  0  0  0  0  0  0
  127.5680  126.9760   68.7760 C   0  0  0  0  0  0  0  0  0  0  0  0
  132.0030  124.1750   64.4440 C   0  0  0  0  0  0  0  0  0  0  0  0
  133.3180  124.6880   64.8090 C   0  0  0  0  0  0  0  0  0  0  0  0
  134.3610  125.0960   65.0990 N   0  0  0  0  0  0  0  0  0  0  0  0
  133.4681  121.8131   63.4236 H   0  0  0  0  0  0  0  0  0  0  0  0
  132.2763  121.6018   62.0963 H   0  0  0  0  0  0  0  0  0  0  0  0
  133.3786  123.0202   62.0963 H   0  0  0  0  0  0  0  0  0  0  0  0
  130.9800  126.5750   65.5990 H   0  0  0  0  0  0  0  0  0  0  0  0
  129.5918  127.6726   67.1764 H   0  0  0  0  0  0  0  0  0  0  0  0
  131.4216  127.3844   70.9200 H   0  0  0  0  0  0  0  0  0  0  0  0
  131.4289  129.0382   70.2600 H   0  0  0  0  0  0  0  0  0  0  0  0
  129.1321  127.8237   71.0860 H   0  0  0  0  0  0  0  0  0  0  0  0
  129.1376  128.9674   69.7116 H   0  0  0  0  0  0  0  0  0  0  0  0
  129.1573  125.8898   69.6294 H   0  0  0  0  0  0  0  0  0  0  0  0
  126.9716  127.0191   69.6993 H   0  0  0  0  0  0  0  0  0  0  0  0
  127.3974  127.8888   68.1863 H   0  0  0  0  0  0  0  0  0  0  0  0
  127.2680  126.0972   68.1863 H   0  0  0  0  0  0  0  0  0  0  0  0
  1  2  1  0
  2  3  2  0
  3  4  1  0
  4  5  1  0
  5  6  1  0
  6  7  1  0
  7  8  2  0
  7  9  1  0
  9 10  1  0
 10 11  1  0
 11 12  1  0
 12 13  1  0
 13 14  1  0
  5 15  2  0
 15 16  1  0
 16 17  3  0
 15  2  1  0
 13  9  1  0
  1 18  1  0
  1 19  1  0
  1 20  1  0
  6 21  1  0
  9 22  1  6
 11 23  1  0
 11 24  1  0
 12 25  1  0
 12 26  1  0
 13 27  1  1
 14 28  1  0
 14 29  1  0
 14 30  1  0
M  END
>  <Binding energies>  (1) 
[-6.2]

>  <Ligand effiencies>  (1) 
[-0.34444444444444444]

>  <Interactions>  (1) 
["V-A:GLY:454:CA:4049, V-B:GLU:543:C:9874, H-A:GLU:543:OE2:4910, V-A:GLU:543:C:4902, V-B:GLU:543:CB:9878, H-A:ARG:545:NH1:4927, V-A:GLY:544:C:4912, V-B:GLU:543:CG:9879, V-A:GLU:543:CD:4908, V-B:HIS:456:CE1:9041, H-A:GLY:454:N:4050, V-B:GLU:543:CA:9876, V-A:HIS:456:CE1:4070, V-B:GLU:543:CD:9880, V-A:LEU:475:CD2:4259, H-A:ARG:545:NH2:4928, V-A:ARG:545:CZ:4926, H-A:GLU:543:OE1:4909, V-A:GLU:543:CB:4906, H-A:ARG:545:NE:4924, H-A:HIS:456:ND1:4067, H-A:TYR:484:OH:4348"]

$$$$
ZINC2325826274
     RDKit          3D

 74 77  0  0  0  0  0  0  0  0999 V2000
  127.6260  122.4290   56.8500 C   0  0  0  0  0  0  0  0  0  0  0  0
  127.1690  123.8230   57.3430 C   0  0  0  0  0  0  0  0  0  0  0  0
  125.7550  124.0950   56.7810 C   0  0  0  0  0  0  0  0  0  0  0  0
  128.1560  124.8780   56.7910 C   0  0  0  0  0  0  0  0  0  0  0  0
  127.1450  123.8770   58.8790 C   0  0  0  0  0  0  0  0  0  0  0  0
  126.5090  124.7790   59.7400 C   0  0  0  0  0  0  0  0  0  0  0  0
  126.6940  124.5340   61.1040 C   0  0  0  0  0  0  0  0  0  0  0  0
  127.5050  123.4340   61.3580 C   0  0  0  0  0  0  0  0  0  0  0  0
  127.9460  122.8520   62.6130 C   0  0  0  0  0  0  0  0  0  0  0  0
  127.0910  122.4730   63.4210 O   0  0  0  0  0  0  0  0  0  0  0  0
  129.2880  122.7560   62.8670 N   0  0  0  0  0  0  0  0  0  0  0  0
  129.8490  121.9810   63.9960 C   0  0  0  0  0  0  0  0  0  0  0  0
  129.8570  122.9080   65.2370 C   0  0  0  0  0  0  0  0  0  0  0  0
  130.6320  124.2150   64.9670 C   0  0  0  0  0  0  0  0  0  0  0  0
  130.1660  124.9070   63.6640 C   0  0  1  0  0  0  0  0  0  0  0  0
  130.9890  126.1830   63.3540 C   0  0  0  0  0  0  0  0  0  0  0  0
  131.1750  126.5360   61.8470 C   0  0  1  0  0  0  0  0  0  0  0  0
  131.0750  127.9760   61.5580 N   0  0  0  0  0  0  0  0  0  0  0  0
  130.7340  128.5470   60.3910 C   0  0  0  0  0  0  0  0  0  0  0  0
  130.4490  127.9020   59.3790 O   0  0  0  0  0  0  0  0  0  0  0  0
  130.7530  130.0900   60.3980 C   0  0  0  0  0  0  0  0  0  0  0  0
  130.0750  130.6550   61.5830 N   0  0  0  0  0  0  0  0  0  0  0  0
  128.8730  130.1690   62.0370 C   0  0  0  0  0  0  0  0  0  0  0  0
  128.2260  130.6390   63.1230 C   0  0  0  0  0  0  0  0  0  0  0  0
  128.8170  131.7260   63.8800 C   0  0  0  0  0  0  0  0  0  0  0  0
  128.3110  132.2230   64.8830 O   0  0  0  0  0  0  0  0  0  0  0  0
  130.0070  132.1460   63.3590 N   0  0  0  0  0  0  0  0  0  0  0  0
  130.6920  131.6950   62.2580 C   0  0  0  0  0  0  0  0  0  0  0  0
  131.7620  132.2150   61.9400 O   0  0  0  0  0  0  0  0  0  0  0  0
  132.4520  125.8770   61.2380 C   0  0  0  0  0  0  0  0  0  0  0  0
  133.2480  125.0090   62.2360 C   0  0  0  0  0  0  0  0  0  0  0  0
  133.8380  123.8650   61.4110 C   0  0  0  0  0  0  0  0  0  0  0  0
  132.7540  123.5740   60.3790 C   0  0  0  0  0  0  0  0  0  0  0  0
  132.1810  124.9500   60.0250 C   0  0  0  0  0  0  0  0  0  0  0  0
  130.1640  123.8850   62.4900 C   0  0  0  0  0  0  0  0  0  0  0  0
  127.9770  122.6890   59.8630 S   0  0  0  0  0  0  0  0  0  0  0  0
  127.8372  121.7848   57.7163 H   0  0  0  0  0  0  0  0  0  0  0  0
  126.8294  121.9759   56.2417 H   0  0  0  0  0  0  0  0  0  0  0  0
  128.5363  122.5355   56.2417 H   0  0  0  0  0  0  0  0  0  0  0  0
  125.0493  124.2308   57.6138 H   0  0  0  0  0  0  0  0  0  0  0  0
  125.7744  125.0059   56.1646 H   0  0  0  0  0  0  0  0  0  0  0  0
  125.4351  123.2419   56.1646 H   0  0  0  0  0  0  0  0  0  0  0  0
  128.6429  125.3984   57.6289 H   0  0  0  0  0  0  0  0  0  0  0  0
  128.9194  124.3794   56.1757 H   0  0  0  0  0  0  0  0  0  0  0  0
  127.6077  125.6066   56.1757 H   0  0  0  0  0  0  0  0  0  0  0  0
  125.9061  125.6212   59.3696 H   0  0  0  0  0  0  0  0  0  0  0  0
  126.2432  125.1497   61.8963 H   0  0  0  0  0  0  0  0  0  0  0  0
  129.2249  121.0966   64.1916 H   0  0  0  0  0  0  0  0  0  0  0  0
  130.8673  121.6369   63.7623 H   0  0  0  0  0  0  0  0  0  0  0  0
  128.8191  123.1572   65.5027 H   0  0  0  0  0  0  0  0  0  0  0  0
  130.3572  122.3760   66.0597 H   0  0  0  0  0  0  0  0  0  0  0  0
  130.4731  124.9027   65.8107 H   0  0  0  0  0  0  0  0  0  0  0  0
  131.6965  123.9616   64.8550 H   0  0  0  0  0  0  0  0  0  0  0  0
  129.1322  125.2559   63.8035 H   0  0  0  0  0  0  0  0  0  0  0  0
  130.4847  127.0327   63.8374 H   0  0  0  0  0  0  0  0  0  0  0  0
  132.0008  125.9789   63.7344 H   0  0  0  0  0  0  0  0  0  0  0  0
  130.3149  126.0868   61.3288 H   0  0  0  0  0  0  0  0  0  0  0  0
  131.3010  128.5880   62.3290 H   0  0  0  0  0  0  0  0  0  0  0  0
  131.7989  130.4307   60.3932 H   0  0  0  0  0  0  0  0  0  0  0  0
  130.2128  130.4367   59.5047 H   0  0  0  0  0  0  0  0  0  0  0  0
  128.4081  129.3431   61.4787 H   0  0  0  0  0  0  0  0  0  0  0  0
  127.2635  130.2041   63.4304 H   0  0  0  0  0  0  0  0  0  0  0  0
  130.4500  132.9020   63.8590 H   0  0  0  0  0  0  0  0  0  0  0  0
  133.0259  126.7642   60.9322 H   0  0  0  0  0  0  0  0  0  0  0  0
  134.0507  125.5992   62.7023 H   0  0  0  0  0  0  0  0  0  0  0  0
  132.6082  124.6351   63.0489 H   0  0  0  0  0  0  0  0  0  0  0  0
  134.7734  124.1747   60.9220 H   0  0  0  0  0  0  0  0  0  0  0  0
  134.0962  122.9863   62.0203 H   0  0  0  0  0  0  0  0  0  0  0  0
  133.1841  123.0914   59.4890 H   0  0  0  0  0  0  0  0  0  0  0  0
  131.9852  122.8872   60.7627 H   0  0  0  0  0  0  0  0  0  0  0  0
  132.6776  125.3469   59.1273 H   0  0  0  0  0  0  0  0  0  0  0  0
  131.1037  124.8848   59.8125 H   0  0  0  0  0  0  0  0  0  0  0  0
  129.7812  124.3657   61.5776 H   0  0  0  0  0  0  0  0  0  0  0  0
  131.1854  123.5266   62.2944 H   0  0  0  0  0  0  0  0  0  0  0  0
  1  2  1  0
  2  3  1  0
  2  4  1  0
  2  5  1  0
  5  6  2  0
  6  7  1  0
  7  8  2  0
  8  9  1  0
  9 10  2  0
  9 11  1  0
 11 12  1  0
 12 13  1  0
 13 14  1  0
 14 15  1  0
 15 16  1  0
 16 17  1  0
 17 18  1  0
 18 19  1  0
 19 20  2  0
 19 21  1  0
 21 22  1  0
 22 23  1  0
 23 24  2  0
 24 25  1  0
 25 26  2  0
 25 27  1  0
 27 28  1  0
 28 29  2  0
 17 30  1  0
 30 31  1  0
 31 32  1  0
 32 33  1  0
 33 34  1  0
 15 35  1  0
  8 36  1  0
 36  5  1  0
 35 11  1  0
 28 22  1  0
 34 30  1  0
  1 37  1  0
  1 38  1  0
  1 39  1  0
  3 40  1  0
  3 41  1  0
  3 42  1  0
  4 43  1  0
  4 44  1  0
  4 45  1  0
  6 46  1  0
  7 47  1  0
 12 48  1  0
 12 49  1  0
 13 50  1  0
 13 51  1  0
 14 52  1  0
 14 53  1  0
 15 54  1  1
 16 55  1  0
 16 56  1  0
 17 57  1  6
 18 58  1  0
 21 59  1  0
 21 60  1  0
 23 61  1  0
 24 62  1  0
 27 63  1  0
 30 64  1  0
 31 65  1  0
 31 66  1  0
 32 67  1  0
 32 68  1  0
 33 69  1  0
 33 70  1  0
 34 71  1  0
 34 72  1  0
 35 73  1  0
 35 74  1  0
M  END
>  <Binding energies>  (1) 
[-9.52]

>  <Ligand effiencies>  (1) 
[-0.25052631578947365]

>  <Interactions>  (1) 
["V-B:TYR:539:CA:9841, V-B:PRO:540:CA:9855, H-A:GLU:543:OE2:4910, H-A:ALA:541:N:4891, H-A:ALA:541:O:4889, V-B:ALA:541:CB:9864, V-B:TYR:539:CE2:9848, V-A:TYR:484:CE2:4346, V-B:GLU:543:CG:9879, V-B:TYR:539:C:9839, V-A:ASP:366:CG:3213, V-B:TYR:539:CZ:9849, V-A:ALA:541:CB:4892, H-B:ALA:541:N:9863, V-A:GLU:543:CD:4908, V-A:TYR:484:CZ:4347, H-B:TYR:484:OH:9319, V-B:PRO:540:N:9856, V-A:ILE:369:CD1:3239, V-A:ALA:541:CA:4890, V-B:TYR:539:CD2:9846, V-A:GLU:543:CG:4907, V-B:GLU:543:CD:9880, V-A:LEU:475:CD2:4259, V-A:ARG:545:CZ:4926, H-A:GLU:543:OE1:4909, V-B:TYR:539:CG:9844, V-B:TYR:539:CD1:9845, V-B:MET:535:CE:9807, H-A:ASP:366:OD2:3215, V-B:ALA:541:CA:9862, V-B:TYR:539:CE1:9847"]

$$$$
ZINC2325830127
     RDKit          3D

100106  0  0  0  0  0  0  0  0999 V2000
  128.6820  131.1500   74.8230 C   0  0  0  0  0  0  0  0  0  0  0  0
  129.0780  129.7800   74.8390 O   0  0  0  0  0  0  0  0  0  0  0  0
  128.7200  128.9600   73.7850 C   0  0  0  0  0  0  0  0  0  0  0  0
  127.5660  128.2740   73.9720 N   0  0  0  0  0  0  0  0  0  0  0  0
  127.1940  127.4460   72.9650 C   0  0  0  0  0  0  0  0  0  0  0  0
  127.9440  127.2970   71.7960 C   0  0  0  0  0  0  0  0  0  0  0  0
  129.1270  128.0510   71.6670 C   0  0  0  0  0  0  0  0  0  0  0  0
  129.9740  127.9600   70.5260 N   0  0  0  0  0  0  0  0  0  0  0  0
  131.4060  127.7240   70.7670 C   0  0  0  0  0  0  0  0  0  0  0  0
  129.5830  127.9330   69.1620 C   0  0  0  0  0  0  0  0  0  0  0  0
  128.8250  128.9720   68.6060 C   0  0  0  0  0  0  0  0  0  0  0  0
  128.4430  128.9390   67.2670 C   0  0  0  0  0  0  0  0  0  0  0  0
  128.8170  127.8730   66.4450 C   0  0  0  0  0  0  0  0  0  0  0  0
  128.3360  127.8770   65.0000 C   0  0  0  0  0  0  0  0  0  0  0  0
  129.5890  126.8210   66.9780 C   0  0  0  0  0  0  0  0  0  0  0  0
  130.0730  125.6400   66.1910 C   0  0  0  0  0  0  0  0  0  0  0  0
  129.5390  124.3550   66.1520 C   0  0  0  0  0  0  0  0  0  0  0  0
  130.3590  123.6520   65.3110 N   0  0  0  0  0  0  0  0  0  0  0  0
  130.2540  122.2620   64.8900 C   0  0  0  0  0  0  0  0  0  0  0  0
  130.0030  122.1500   63.3710 C   0  0  0  0  0  0  0  0  0  0  0  0
  128.5510  122.4590   62.9520 C   0  0  0  0  0  0  0  0  0  0  0  0
  128.4380  123.1510   61.6680 N   0  0  0  0  0  0  0  0  0  0  0  0
  128.8210  122.6520   60.4750 C   0  0  0  0  0  0  0  0  0  0  0  0
  129.3660  121.5520   60.3610 O   0  0  0  0  0  0  0  0  0  0  0  0
  128.5370  123.5050   59.2550 C   0  0  0  0  0  0  0  0  0  0  0  0
  129.4930  124.4260   58.7950 C   0  0  0  0  0  0  0  0  0  0  0  0
  129.2200  125.2150   57.6660 C   0  0  0  0  0  0  0  0  0  0  0  0
  130.2190  126.2600   57.2140 C   0  0  0  0  0  0  0  0  0  0  0  0
  131.1400  125.9100   56.4710 O   0  0  0  0  0  0  0  0  0  0  0  0
  130.1170  127.5360   57.6730 N   0  0  0  0  0  0  0  0  0  0  0  0
  129.0190  128.4510   57.3400 C   0  0  0  0  0  0  0  0  0  0  0  0
  131.1030  128.0790   58.6220 C   0  0  0  0  0  0  0  0  0  0  0  0
  131.0860  127.3820   59.9910 C   0  0  0  0  0  0  0  0  0  0  0  0
  130.3700  127.9670   61.0470 C   0  0  0  0  0  0  0  0  0  0  0  0
  129.7500  129.1800   60.8090 O   0  0  0  0  0  0  0  0  0  0  0  0
  130.4450  130.3980   61.0750 C   0  0  0  0  0  0  0  0  0  0  0  0
  130.6100  131.1760   59.7760 C   0  0  0  0  0  0  0  0  0  0  0  0
  131.8280  131.1370   59.0910 C   0  0  0  0  0  0  0  0  0  0  0  0
  131.9930  131.8780   57.9240 C   0  0  0  0  0  0  0  0  0  0  0  0
  130.9380  132.6470   57.4390 C   0  0  0  0  0  0  0  0  0  0  0  0
  129.7170  132.6770   58.1070 C   0  0  0  0  0  0  0  0  0  0  0  0
  129.5510  131.9390   59.2770 C   0  0  0  0  0  0  0  0  0  0  0  0
  130.2970  127.3130   62.2810 C   0  0  0  0  0  0  0  0  0  0  0  0
  130.9390  126.1010   62.4930 C   0  0  0  0  0  0  0  0  0  0  0  0
  131.6890  125.4970   61.4610 C   0  0  0  0  0  0  0  0  0  0  0  0
  132.3550  124.2640   61.6800 C   0  0  0  0  0  0  0  0  0  0  0  0
  133.0990  123.6750   60.6630 C   0  0  0  0  0  0  0  0  0  0  0  0
  133.2000  124.2870   59.4220 C   0  0  0  0  0  0  0  0  0  0  0  0
  132.5550  125.4950   59.1730 C   0  0  0  0  0  0  0  0  0  0  0  0
  131.7740  126.1350   60.1820 C   0  0  0  0  0  0  0  0  0  0  0  0
  127.9700  125.0670   57.0450 C   0  0  0  0  0  0  0  0  0  0  0  0
  127.0690  124.1300   57.5460 C   0  0  0  0  0  0  0  0  0  0  0  0
  127.3350  123.3580   58.6260 N   0  0  0  0  0  0  0  0  0  0  0  0
  131.3370  124.4320   64.8430 N   0  0  0  0  0  0  0  0  0  0  0  0
  131.1480  125.6770   65.4160 N   0  0  0  0  0  0  0  0  0  0  0  0
  129.9520  126.8670   68.3310 C   0  0  0  0  0  0  0  0  0  0  0  0
  129.5140  128.8840   72.6790 N   0  0  0  0  0  0  0  0  0  0  0  0
  128.5770  131.5134   75.8559 H   0  0  0  0  0  0  0  0  0  0  0  0
  129.4446  131.7460   74.3004 H   0  0  0  0  0  0  0  0  0  0  0  0
  127.7190  131.2472   74.3004 H   0  0  0  0  0  0  0  0  0  0  0  0
  126.2642  126.8683   73.0728 H   0  0  0  0  0  0  0  0  0  0  0  0
  127.6203  126.6109   70.9994 H   0  0  0  0  0  0  0  0  0  0  0  0
  131.5953  127.6928   71.8501 H   0  0  0  0  0  0  0  0  0  0  0  0
  131.7007  126.7652   70.3155 H   0  0  0  0  0  0  0  0  0  0  0  0
  131.9928  128.5376   70.3155 H   0  0  0  0  0  0  0  0  0  0  0  0
  128.5279  129.8243   69.2348 H   0  0  0  0  0  0  0  0  0  0  0  0
  127.8406  129.7607   66.8524 H   0  0  0  0  0  0  0  0  0  0  0  0
  127.2362  127.8861   64.9797 H   0  0  0  0  0  0  0  0  0  0  0  0
  128.7196  128.7720   64.4883 H   0  0  0  0  0  0  0  0  0  0  0  0
  128.7047  126.9758   64.4883 H   0  0  0  0  0  0  0  0  0  0  0  0
  128.6496  123.9843   66.6827 H   0  0  0  0  0  0  0  0  0  0  0  0
  131.1911  121.7416   65.1370 H   0  0  0  0  0  0  0  0  0  0  0  0
  129.4028  121.8048   65.4158 H   0  0  0  0  0  0  0  0  0  0  0  0
  130.6698  122.8579   62.8569 H   0  0  0  0  0  0  0  0  0  0  0  0
  130.1999  121.1045   63.0915 H   0  0  0  0  0  0  0  0  0  0  0  0
  128.0011  121.5089   62.8827 H   0  0  0  0  0  0  0  0  0  0  0  0
  128.1355  123.1334   63.7153 H   0  0  0  0  0  0  0  0  0  0  0  0
  128.0270  124.0730   61.6880 H   0  0  0  0  0  0  0  0  0  0  0  0
  130.4547  124.5290   59.3189 H   0  0  0  0  0  0  0  0  0  0  0  0
  128.5639  128.8303   58.2668 H   0  0  0  0  0  0  0  0  0  0  0  0
  129.4100  129.2943   56.7518 H   0  0  0  0  0  0  0  0  0  0  0  0
  128.2601  127.9143   56.7518 H   0  0  0  0  0  0  0  0  0  0  0  0
  132.1061  127.9640   58.1854 H   0  0  0  0  0  0  0  0  0  0  0  0
  130.8401  129.1334   58.7930 H   0  0  0  0  0  0  0  0  0  0  0  0
  129.8697  131.0002   61.7937 H   0  0  0  0  0  0  0  0  0  0  0  0
  131.4349  130.1731   61.4987 H   0  0  0  0  0  0  0  0  0  0  0  0
  132.6553  130.5214   59.4737 H   0  0  0  0  0  0  0  0  0  0  0  0
  132.9528  131.8562   57.3871 H   0  0  0  0  0  0  0  0  0  0  0  0
  131.0707  133.2361   56.5196 H   0  0  0  0  0  0  0  0  0  0  0  0
  128.8865  133.2810   57.7126 H   0  0  0  0  0  0  0  0  0  0  0  0
  128.5874  131.9569   59.8073 H   0  0  0  0  0  0  0  0  0  0  0  0
  129.7196  127.7680   63.0993 H   0  0  0  0  0  0  0  0  0  0  0  0
  130.8628  125.6072   63.4730 H   0  0  0  0  0  0  0  0  0  0  0  0
  132.2827  123.7704   62.6604 H   0  0  0  0  0  0  0  0  0  0  0  0
  133.6105  122.7181   60.8438 H   0  0  0  0  0  0  0  0  0  0  0  0
  133.7953  123.8132   58.6276 H   0  0  0  0  0  0  0  0  0  0  0  0
  132.6486  125.9642   58.1825 H   0  0  0  0  0  0  0  0  0  0  0  0
  127.7050  125.6834   56.1733 H   0  0  0  0  0  0  0  0  0  0  0  0
  126.0985  124.0121   57.0418 H   0  0  0  0  0  0  0  0  0  0  0  0
  130.5442  126.0416   68.7530 H   0  0  0  0  0  0  0  0  0  0  0  0
  1  2  1  0
  2  3  1  0
  3  4  2  0
  4  5  1  0
  5  6  2  0
  6  7  1  0
  7  8  1  0
  8  9  1  0
  8 10  1  0
 10 11  2  0
 11 12  1  0
 12 13  2  0
 13 14  1  0
 13 15  1  0
 15 16  1  0
 16 17  2  0
 17 18  1  0
 18 19  1  0
 19 20  1  0
 20 21  1  0
 21 22  1  0
 22 23  1  0
 23 24  2  0
 23 25  1  0
 25 26  2  0
 26 27  1  0
 27 28  1  0
 28 29  2  0
 28 30  1  0
 30 31  1  0
 30 32  1  0
 32 33  1  0
 33 34  1  0
 34 35  1  0
 35 36  1  0
 36 37  1  0
 37 38  2  0
 38 39  1  0
 39 40  2  0
 40 41  1  0
 41 42  2  0
 34 43  2  0
 43 44  1  0
 44 45  2  0
 45 46  1  0
 46 47  2  0
 47 48  1  0
 48 49  2  0
 49 50  1  0
 27 51  2  0
 51 52  1  0
 52 53  2  0
 18 54  1  0
 54 55  2  0
 15 56  2  0
  7 57  2  0
 57  3  1  0
 56 10  1  0
 55 16  1  0
 53 25  1  0
 50 33  2  0
 42 37  1  0
 50 45  1  0
  1 58  1  0
  1 59  1  0
  1 60  1  0
  5 61  1  0
  6 62  1  0
  9 63  1  0
  9 64  1  0
  9 65  1  0
 11 66  1  0
 12 67  1  0
 14 68  1  0
 14 69  1  0
 14 70  1  0
 17 71  1  0
 19 72  1  0
 19 73  1  0
 20 74  1  0
 20 75  1  0
 21 76  1  0
 21 77  1  0
 22 78  1  0
 26 79  1  0
 31 80  1  0
 31 81  1  0
 31 82  1  0
 32 83  1  0
 32 84  1  0
 36 85  1  0
 36 86  1  0
 38 87  1  0
 39 88  1  0
 40 89  1  0
 41 90  1  0
 42 91  1  0
 43 92  1  0
 44 93  1  0
 46 94  1  0
 47 95  1  0
 48 96  1  0
 49 97  1  0
 51 98  1  0
 52 99  1  0
 56100  1  0
M  END
>  <Binding energies>  (1) 
[-9.57]

>  <Ligand effiencies>  (1) 
[-0.165]

>  <Interactions>  (1) 
["V-A:ILE:369:CG2:3237, V-A:ASP:366:CA:3210, V-B:PRO:540:CA:9855, V-A:GLU:543:CA:4904, V-A:ARG:545:CA:4919, V-B:HIS:456:CD2:9039, V-A:GLU:543:C:4902, V-B:GLU:543:CB:9878, H-B:LYS:547:NZ:9923, V-B:ALA:541:CB:9864, H-A:TYR:531:OH:4795, V-B:TYR:539:CE2:9848, V-A:TYR:484:CE2:4346, V-B:GLU:543:CG:9879, V-A:GLY:544:C:4912, V-A:HIS:456:CD2:4068, V-A:ASP:366:CG:3213, V-A:LEU:363:CD1:3189, V-B:TYR:539:CZ:9849, H-B:GLU:543:OE1:9881, H-B:TYR:539:OH:9850, V-B:LYS:547:CE:9922, V-A:TYR:484:CZ:4347, V-A:GLU:543:CD:4908, V-B:GLU:543:CA:9876, V-B:HIS:456:CE1:9041, V-A:HIS:456:CE1:4070, V-B:GLY:544:C:9884, V-B:TYR:539:CD2:9846, V-A:GLU:543:CG:4907, V-B:GLU:543:CD:9880, V-B:HIS:456:CG:9037, V-A:TYR:539:C:4867, V-A:ASP:366:CB:3212, H-A:LYS:547:NZ:4951, V-A:LEU:475:CD2:4259, V-A:GLU:543:CB:4906, V-A:PRO:540:N:4884, V-A:PRO:540:CB:4885, V-A:PRO:540:CA:4883, V-B:ALA:541:CA:9862, V-A:PRO:540:CD:4887, H-A:TYR:484:OH:4348"]

$$$$
ZINC2325831347
     RDKit          3D

 68 72  0  0  0  0  0  0  0  0999 V2000
  130.9780  126.7840   62.5230 C   0  0  0  0  0  0  0  0  0  0  0  0
  131.0380  125.7680   63.6860 C   0  0  1  0  0  0  0  0  0  0  0  0
  129.7230  125.9070   64.4980 C   0  0  0  0  0  0  0  0  0  0  0  0
  129.7800  125.0180   65.6670 N   0  0  0  0  0  0  0  0  0  0  0  0
  129.8620  125.4530   66.9600 C   0  0  0  0  0  0  0  0  0  0  0  0
  130.3320  124.7610   67.8660 O   0  0  0  0  0  0  0  0  0  0  0  0
  129.3340  126.8230   67.3210 C   0  0  0  0  0  0  0  0  0  0  0  0
  129.6300  127.3810   68.5710 C   0  0  0  0  0  0  0  0  0  0  0  0
  129.1360  128.6360   68.9210 C   0  0  0  0  0  0  0  0  0  0  0  0
  128.3340  129.3450   68.0280 C   0  0  0  0  0  0  0  0  0  0  0  0
  128.0130  128.8030   66.7800 C   0  0  0  0  0  0  0  0  0  0  0  0
  127.1340  129.6070   65.8220 C   0  0  0  0  0  0  0  0  0  0  0  0
  127.8500  130.3020   64.7570 N   0  0  0  0  0  0  0  0  0  0  0  0
  128.3380  129.7870   63.5840 C   0  0  0  0  0  0  0  0  0  0  0  0
  128.8570  130.8800   62.8950 C   0  0  0  0  0  0  0  0  0  0  0  0
  129.4840  130.9040   61.5320 C   0  0  0  0  0  0  0  0  0  0  0  0
  129.9490  129.6790   61.0370 C   0  0  0  0  0  0  0  0  0  0  0  0
  130.5310  129.5850   59.7750 C   0  0  0  0  0  0  0  0  0  0  0  0
  130.9640  128.3850   59.3230 F   0  0  0  0  0  0  0  0  0  0  0  0
  130.6660  130.7270   58.9850 C   0  0  0  0  0  0  0  0  0  0  0  0
  131.4620  130.5990   57.2570 Br  0  0  0  0  0  0  0  0  0  0  0  0
  130.2170  131.9600   59.4620 C   0  0  0  0  0  0  0  0  0  0  0  0
  130.3600  133.0630   58.6870 F   0  0  0  0  0  0  0  0  0  0  0  0
  129.6300  132.0580   60.7320 C   0  0  0  0  0  0  0  0  0  0  0  0
  129.2140  133.3150   61.1810 N   0  0  0  0  0  0  0  0  0  0  0  0
  128.6830  131.9680   63.6330 N   0  0  0  0  0  0  0  0  0  0  0  0
  128.0400  131.6220   64.8080 N   0  0  0  0  0  0  0  0  0  0  0  0
  128.4960  127.5310   66.4470 C   0  0  0  0  0  0  0  0  0  0  0  0
  130.0130  123.6040   65.3430 C   0  0  0  0  0  0  0  0  0  0  0  0
  131.2850  123.4830   64.4790 C   0  0  0  0  0  0  0  0  0  0  0  0
  131.3430  124.3690   63.3000 N   0  0  0  0  0  0  0  0  0  0  0  0
  132.3300  124.1070   62.3530 C   0  0  0  0  0  0  0  0  0  0  0  0
  132.1060  124.3900   60.9980 C   0  0  0  0  0  0  0  0  0  0  0  0
  133.1520  124.1820   60.0800 C   0  0  0  0  0  0  0  0  0  0  0  0
  132.9900  124.4560   58.6940 N   0  0  0  0  0  0  0  0  0  0  0  0
  132.1140  125.5430   58.2570 C   0  0  0  0  0  0  0  0  0  0  0  0
  133.9820  123.9710   57.7330 C   0  0  0  0  0  0  0  0  0  0  0  0
  134.3570  123.7070   60.5160 N   0  0  0  0  0  0  0  0  0  0  0  0
  134.4930  123.4640   61.8420 C   0  0  0  0  0  0  0  0  0  0  0  0
  133.5400  123.6500   62.7860 N   0  0  0  0  0  0  0  0  0  0  0  0
  130.9178  127.8041   62.9301 H   0  0  0  0  0  0  0  0  0  0  0  0
  131.8834  126.6885   61.9056 H   0  0  0  0  0  0  0  0  0  0  0  0
  130.0902  126.5826   61.9056 H   0  0  0  0  0  0  0  0  0  0  0  0
  131.9075  126.0189   64.3114 H   0  0  0  0  0  0  0  0  0  0  0  0
  129.6059  126.9482   64.8331 H   0  0  0  0  0  0  0  0  0  0  0  0
  128.8670  125.6303   63.8650 H   0  0  0  0  0  0  0  0  0  0  0  0
  130.2576  126.8240   69.2823 H   0  0  0  0  0  0  0  0  0  0  0  0
  129.3791  129.0678   69.9031 H   0  0  0  0  0  0  0  0  0  0  0  0
  127.9511  130.3377   68.3073 H   0  0  0  0  0  0  0  0  0  0  0  0
  126.4178  128.9148   65.3552 H   0  0  0  0  0  0  0  0  0  0  0  0
  126.6563  130.3895   66.4299 H   0  0  0  0  0  0  0  0  0  0  0  0
  128.3228  128.7367   63.2575 H   0  0  0  0  0  0  0  0  0  0  0  0
  129.8528  128.7748   61.6561 H   0  0  0  0  0  0  0  0  0  0  0  0
  129.2010  134.0730   60.5130 H   0  0  0  0  0  0  0  0  0  0  0  0
  129.2930  133.5150   62.1690 H   0  0  0  0  0  0  0  0  0  0  0  0
  128.2135  127.0800   65.4843 H   0  0  0  0  0  0  0  0  0  0  0  0
  130.1440  123.0306   66.2725 H   0  0  0  0  0  0  0  0  0  0  0  0
  129.1508  123.2057   64.7880 H   0  0  0  0  0  0  0  0  0  0  0  0
  132.1507  123.7127   65.1176 H   0  0  0  0  0  0  0  0  0  0  0  0
  131.2831  122.4565   64.0836 H   0  0  0  0  0  0  0  0  0  0  0  0
  131.1302  124.7678   60.6588 H   0  0  0  0  0  0  0  0  0  0  0  0
  131.7000  126.0567   59.1372 H   0  0  0  0  0  0  0  0  0  0  0  0
  132.6909  126.2584   57.6526 H   0  0  0  0  0  0  0  0  0  0  0  0
  131.2923  125.1313   57.6526 H   0  0  0  0  0  0  0  0  0  0  0  0
  134.8421  123.5505   58.2746 H   0  0  0  0  0  0  0  0  0  0  0  0
  133.5302  123.1922   57.1011 H   0  0  0  0  0  0  0  0  0  0  0  0
  134.3191  124.8059   57.1011 H   0  0  0  0  0  0  0  0  0  0  0  0
  135.4661  123.0807   62.1828 H   0  0  0  0  0  0  0  0  0  0  0  0
  1  2  1  0
  2  3  1  0
  3  4  1  0
  4  5  1  0
  5  6  2  0
  5  7  1  0
  7  8  2  0
  8  9  1  0
  9 10  2  0
 10 11  1  0
 11 12  1  0
 12 13  1  0
 13 14  1  0
 14 15  2  0
 15 16  1  0
 16 17  2  0
 17 18  1  0
 18 19  1  0
 18 20  2  0
 20 21  1  0
 20 22  1  0
 22 23  1  0
 22 24  2  0
 24 25  1  0
 15 26  1  0
 26 27  2  0
 11 28  2  0
  4 29  1  0
 29 30  1  0
 30 31  1  0
 31 32  1  0
 32 33  2  0
 33 34  1  0
 34 35  1  0
 35 36  1  0
 35 37  1  0
 34 38  2  0
 38 39  1  0
 39 40  2  0
 31  2  1  0
 40 32  1  0
 28  7  1  0
 27 13  1  0
 24 16  1  0
  1 41  1  0
  1 42  1  0
  1 43  1  0
  2 44  1  1
  3 45  1  0
  3 46  1  0
  8 47  1  0
  9 48  1  0
 10 49  1  0
 12 50  1  0
 12 51  1  0
 14 52  1  0
 17 53  1  0
 25 54  1  0
 25 55  1  0
 28 56  1  0
 29 57  1  0
 29 58  1  0
 30 59  1  0
 30 60  1  0
 33 61  1  0
 36 62  1  0
 36 63  1  0
 36 64  1  0
 37 65  1  0
 37 66  1  0
 37 67  1  0
 39 68  1  0
M  END
>  <Binding energies>  (1) 
[-8.13]

>  <Ligand effiencies>  (1) 
[-0.1935714285714286]

>  <Interactions>  (1) 
["V-A:ILE:369:CG2:3237, V-A:ASP:366:CA:3210, V-A:GLU:543:CA:4904, V-A:ILE:369:C:3232, V-A:ILE:369:CB:3236, V-A:GLU:543:C:4902, V-B:GLU:543:CB:9878, V-A:PRO:540:C:4881, V-B:TYR:539:CE2:9848, V-A:TYR:484:CE2:4346, V-A:ASN:370:CB:3245, V-B:GLU:543:CG:9879, V-A:ASP:366:CG:3213, V-B:TYR:539:CZ:9849, V-A:TYR:531:CE2:4793, V-A:GLU:543:CD:4908, V-A:TYR:484:CZ:4347, H-B:TYR:484:OH:9319, V-B:HIS:456:CE1:9041, H-A:GLY:454:N:4050, V-A:HIS:456:CE1:4070, V-B:TYR:484:CZ:9318, V-A:ILE:369:CD1:3239, V-A:ASP:366:C:3208, V-A:GLU:543:CG:4907, V-A:TYR:531:CZ:4794, V-B:GLU:543:CD:9880, V-A:TYR:539:C:4867, V-A:ASP:366:CB:3212, V-A:LEU:475:CD2:4259, V-A:GLU:543:CB:4906, H-A:TYR:539:O:4868, V-A:PRO:540:N:4884, V-A:PRO:540:CB:4885, V-A:PRO:540:CA:4883, V-A:PRO:540:CD:4887, H-A:TYR:484:OH:4348"]

$$$$
ZINC2325831860
     RDKit          3D

 95101  0  0  0  0  0  0  0  0999 V2000
  132.5830  131.4860   62.3370 C   0  0  0  0  0  0  0  0  0  0  0  0
  131.6190  132.2210   63.0870 O   0  0  0  0  0  0  0  0  0  0  0  0
  130.2780  132.1020   62.7660 C   0  0  0  0  0  0  0  0  0  0  0  0
  129.7750  132.7530   61.6810 N   0  0  0  0  0  0  0  0  0  0  0  0
  128.4500  132.5840   61.4470 C   0  0  0  0  0  0  0  0  0  0  0  0
  127.6410  131.7850   62.2560 C   0  0  0  0  0  0  0  0  0  0  0  0
  128.2360  131.1290   63.3520 C   0  0  0  0  0  0  0  0  0  0  0  0
  127.4650  130.3100   64.2270 N   0  0  0  0  0  0  0  0  0  0  0  0
  126.0110  130.2720   63.9960 C   0  0  0  0  0  0  0  0  0  0  0  0
  127.9340  129.4890   65.2870 C   0  0  0  0  0  0  0  0  0  0  0  0
  127.9120  129.9260   66.6180 C   0  0  0  0  0  0  0  0  0  0  0  0
  128.3650  129.1050   67.6490 C   0  0  0  0  0  0  0  0  0  0  0  0
  128.8490  127.8240   67.3770 C   0  0  0  0  0  0  0  0  0  0  0  0
  129.3480  126.9700   68.5360 C   0  0  0  0  0  0  0  0  0  0  0  0
  128.8920  127.3680   66.0460 C   0  0  0  0  0  0  0  0  0  0  0  0
  129.3830  126.0140   65.6460 C   0  0  0  0  0  0  0  0  0  0  0  0
  129.5310  125.4960   64.3630 C   0  0  0  0  0  0  0  0  0  0  0  0
  130.0090  124.2250   64.5490 N   0  0  0  0  0  0  0  0  0  0  0  0
  130.3990  123.2460   63.5430 C   0  0  0  0  0  0  0  0  0  0  0  0
  130.3410  123.8390   62.1100 C   0  0  2  0  0  0  0  0  0  0  0  0
  129.4070  123.1590   61.1740 N   0  0  0  0  0  0  0  0  0  0  0  0
  128.0710  122.9900   61.1960 C   0  0  0  0  0  0  0  0  0  0  0  0
  127.4980  122.6200   62.2210 O   0  0  0  0  0  0  0  0  0  0  0  0
  127.2740  123.3510   59.9150 C   0  0  2  0  0  0  0  0  0  0  0  0
  127.6860  122.4750   58.6990 C   0  0  0  0  0  0  0  0  0  0  0  0
  126.7650  122.7470   57.4870 C   0  0  0  0  0  0  0  0  0  0  0  0
  126.6330  124.2450   57.1450 C   0  0  0  0  0  0  0  0  0  0  0  0
  126.2080  125.0690   58.3790 C   0  0  0  0  0  0  0  0  0  0  0  0
  127.1430  124.8910   59.6090 C   0  0  2  0  0  0  0  0  0  0  0  0
  128.4780  125.6530   59.3060 C   0  0  0  0  0  0  0  0  0  0  0  0
  129.2070  125.2340   58.4040 O   0  0  0  0  0  0  0  0  0  0  0  0
  128.7720  126.8190   59.9540 N   0  0  0  0  0  0  0  0  0  0  0  0
  129.5830  127.9070   59.5590 C   0  0  0  0  0  0  0  0  0  0  0  0
  129.7760  128.5050   58.3050 C   0  0  0  0  0  0  0  0  0  0  0  0
  130.6150  129.6130   58.1860 C   0  0  0  0  0  0  0  0  0  0  0  0
  131.2300  130.1530   59.3170 C   0  0  0  0  0  0  0  0  0  0  0  0
  130.9690  129.6150   60.5760 C   0  0  0  0  0  0  0  0  0  0  0  0
  130.0960  128.5330   60.6960 C   0  0  0  0  0  0  0  0  0  0  0  0
  129.6670  127.7780   61.9160 C   0  0  0  0  0  0  0  0  0  0  0  0
  128.5130  126.9110   61.4050 C   0  0  1  0  0  0  0  0  0  0  0  0
  127.1360  127.5500   61.6730 C   0  0  0  0  0  0  0  0  0  0  0  0
  130.4300  122.8380   60.1470 C   0  0  0  0  0  0  0  0  0  0  0  0
  131.4650  123.4790   61.1000 C   0  0  0  0  0  0  0  0  0  0  0  0
  132.1320  124.7400   60.5160 C   0  0  0  0  0  0  0  0  0  0  0  0
  132.5220  122.4650   61.5970 C   0  0  0  0  0  0  0  0  0  0  0  0
  130.1370  123.9530   65.8510 N   0  0  0  0  0  0  0  0  0  0  0  0
  129.7320  125.0880   66.5270 N   0  0  0  0  0  0  0  0  0  0  0  0
  128.4480  128.2120   65.0220 C   0  0  0  0  0  0  0  0  0  0  0  0
  129.5680  131.3090   63.6070 N   0  0  0  0  0  0  0  0  0  0  0  0
  133.2649  130.9661   63.0260 H   0  0  0  0  0  0  0  0  0  0  0  0
  132.0694  130.7481   61.7031 H   0  0  0  0  0  0  0  0  0  0  0  0
  133.1586  132.1766   61.7031 H   0  0  0  0  0  0  0  0  0  0  0  0
  127.9954  133.0965   60.5863 H   0  0  0  0  0  0  0  0  0  0  0  0
  126.5678  131.6704   62.0438 H   0  0  0  0  0  0  0  0  0  0  0  0
  125.4864  130.2583   64.9627 H   0  0  0  0  0  0  0  0  0  0  0  0
  125.7068  131.1625   63.4264 H   0  0  0  0  0  0  0  0  0  0  0  0
  125.7538  129.3668   63.4264 H   0  0  0  0  0  0  0  0  0  0  0  0
  127.5318  130.9312   66.8525 H   0  0  0  0  0  0  0  0  0  0  0  0
  128.3410  129.4696   68.6865 H   0  0  0  0  0  0  0  0  0  0  0  0
  129.0701  127.4456   69.4881 H   0  0  0  0  0  0  0  0  0  0  0  0
  128.8916  125.9708   68.4783 H   0  0  0  0  0  0  0  0  0  0  0  0
  130.4425  126.8770   68.4783 H   0  0  0  0  0  0  0  0  0  0  0  0
  129.3122  125.9969   63.4084 H   0  0  0  0  0  0  0  0  0  0  0  0
  131.4269  122.9132   63.7495 H   0  0  0  0  0  0  0  0  0  0  0  0
  129.6935  122.4036   63.5936 H   0  0  0  0  0  0  0  0  0  0  0  0
  130.2125  124.8756   62.4548 H   0  0  0  0  0  0  0  0  0  0  0  0
  126.2322  123.0798   60.1408 H   0  0  0  0  0  0  0  0  0  0  0  0
  128.7246  122.7087   58.4220 H   0  0  0  0  0  0  0  0  0  0  0  0
  127.5931  121.4158   58.9808 H   0  0  0  0  0  0  0  0  0  0  0  0
  127.1768  122.2239   56.6113 H   0  0  0  0  0  0  0  0  0  0  0  0
  125.7612  122.3839   57.7527 H   0  0  0  0  0  0  0  0  0  0  0  0
  127.6032  124.6164   56.7835 H   0  0  0  0  0  0  0  0  0  0  0  0
  125.8594  124.3566   56.3710 H   0  0  0  0  0  0  0  0  0  0  0  0
  126.2022  126.1329   58.0996 H   0  0  0  0  0  0  0  0  0  0  0  0
  125.2141  124.7052   58.6786 H   0  0  0  0  0  0  0  0  0  0  0  0
  126.7508  125.3332   60.5367 H   0  0  0  0  0  0  0  0  0  0  0  0
  129.2669  128.1012   57.4175 H   0  0  0  0  0  0  0  0  0  0  0  0
  130.7926  130.0627   57.1979 H   0  0  0  0  0  0  0  0  0  0  0  0
  131.9206  131.0031   59.2145 H   0  0  0  0  0  0  0  0  0  0  0  0
  131.4484  130.0408   61.4698 H   0  0  0  0  0  0  0  0  0  0  0  0
  130.4870  127.1549   62.3026 H   0  0  0  0  0  0  0  0  0  0  0  0
  129.3762  128.4349   62.7490 H   0  0  0  0  0  0  0  0  0  0  0  0
  128.4750  125.9345   61.9100 H   0  0  0  0  0  0  0  0  0  0  0  0
  126.9720  127.6261   62.7580 H   0  0  0  0  0  0  0  0  0  0  0  0
  127.1048  128.5546   61.2261 H   0  0  0  0  0  0  0  0  0  0  0  0
  126.3486  126.9252   61.2261 H   0  0  0  0  0  0  0  0  0  0  0  0
  130.5767  121.7636   59.9622 H   0  0  0  0  0  0  0  0  0  0  0  0
  130.3255  123.1559   59.0991 H   0  0  0  0  0  0  0  0  0  0  0  0
  132.4744  125.3873   61.3369 H   0  0  0  0  0  0  0  0  0  0  0  0
  132.9927  124.4464   59.8972 H   0  0  0  0  0  0  0  0  0  0  0  0
  131.4049  125.2862   59.8972 H   0  0  0  0  0  0  0  0  0  0  0  0
  132.5321  122.4553   62.6969 H   0  0  0  0  0  0  0  0  0  0  0  0
  132.2710  121.4611   61.2238 H   0  0  0  0  0  0  0  0  0  0  0  0
  133.5146  122.7574   61.2238 H   0  0  0  0  0  0  0  0  0  0  0  0
  128.5039  127.8637   63.9801 H   0  0  0  0  0  0  0  0  0  0  0  0
  1  2  1  0
  2  3  1  0
  3  4  2  0
  4  5  1  0
  5  6  2  0
  6  7  1  0
  7  8  1  0
  8  9  1  0
  8 10  1  0
 10 11  2  0
 11 12  1  0
 12 13  2  0
 13 14  1  0
 13 15  1  0
 15 16  1  0
 16 17  2  0
 17 18  1  0
 18 19  1  0
 19 20  1  0
 20 21  1  0
 21 22  1  0
 22 23  2  0
 22 24  1  0
 24 25  1  0
 25 26  1  0
 26 27  1  0
 27 28  1  0
 28 29  1  0
 29 30  1  0
 30 31  2  0
 30 32  1  0
 32 33  1  0
 33 34  2  0
 34 35  1  0
 35 36  2  0
 36 37  1  0
 37 38  2  0
 38 39  1  0
 39 40  1  0
 40 41  1  0
 21 42  1  0
 42 43  1  0
 43 44  1  0
 43 45  1  0
 18 46  1  0
 46 47  2  0
 15 48  2  0
  7 49  2  0
 49  3  1  0
 48 10  1  0
 47 16  1  0
 43 20  1  0
 29 24  1  0
 40 32  1  0
 38 33  1  0
  1 50  1  0
  1 51  1  0
  1 52  1  0
  5 53  1  0
  6 54  1  0
  9 55  1  0
  9 56  1  0
  9 57  1  0
 11 58  1  0
 12 59  1  0
 14 60  1  0
 14 61  1  0
 14 62  1  0
 17 63  1  0
 19 64  1  0
 19 65  1  0
 20 66  1  1
 24 67  1  1
 25 68  1  0
 25 69  1  0
 26 70  1  0
 26 71  1  0
 27 72  1  0
 27 73  1  0
 28 74  1  0
 28 75  1  0
 29 76  1  1
 34 77  1  0
 35 78  1  0
 36 79  1  0
 37 80  1  0
 39 81  1  0
 39 82  1  0
 40 83  1  1
 41 84  1  0
 41 85  1  0
 41 86  1  0
 42 87  1  0
 42 88  1  0
 44 89  1  0
 44 90  1  0
 44 91  1  0
 45 92  1  0
 45 93  1  0
 45 94  1  0
 48 95  1  0
M  END
>  <Binding energies>  (1) 
[-9.8]

>  <Ligand effiencies>  (1) 
[-0.2]

>  <Interactions>  (1) 
["V-B:PRO:540:CA:9855, H-A:ALA:541:N:4891, V-B:GLU:543:CB:9878, V-B:TYR:539:CE2:9848, V-B:GLU:543:CG:9879, V-B:TYR:539:C:9839, V-A:ASN:362:CB:3176, V-B:TYR:484:CE2:9317, V-A:ALA:541:CB:4892, H-B:ALA:541:N:9863, V-A:GLU:543:CD:4908, V-B:PRO:540:CB:9857, V-B:HIS:456:CE1:9041, V-B:PRO:540:N:9856, V-B:TYR:484:CZ:9318, V-A:HIS:456:CE1:4070, V-A:ALA:541:CA:4890, V-B:TYR:539:CD2:9846, V-A:GLU:543:CG:4907, V-B:PRO:540:CD:9859, V-B:GLU:543:CD:9880, V-A:LEU:475:CD2:4259, V-A:GLU:543:CB:4906, H-A:TYR:484:OH:4348"]

$$$$
ZINC2325832150
     RDKit          3D

 98105  0  0  0  0  0  0  0  0999 V2000
  133.9150  131.8640   61.6410 C   0  0  0  0  0  0  0  0  0  0  0  0
  132.7730  132.2630   62.3970 O   0  0  0  0  0  0  0  0  0  0  0  0
  131.5190  131.8200   62.0140 C   0  0  0  0  0  0  0  0  0  0  0  0
  130.4050  132.3020   62.6330 N   0  0  0  0  0  0  0  0  0  0  0  0
  129.2200  131.8150   62.1870 C   0  0  0  0  0  0  0  0  0  0  0  0
  129.1340  130.8710   61.1610 C   0  0  0  0  0  0  0  0  0  0  0  0
  130.3290  130.4100   60.5800 C   0  0  0  0  0  0  0  0  0  0  0  0
  130.3140  129.4590   59.5180 N   0  0  0  0  0  0  0  0  0  0  0  0
  129.4740  129.7660   58.3470 C   0  0  0  0  0  0  0  0  0  0  0  0
  130.9700  128.2030   59.4660 C   0  0  0  0  0  0  0  0  0  0  0  0
  131.5100  127.7330   58.2640 C   0  0  0  0  0  0  0  0  0  0  0  0
  132.1430  126.4940   58.2000 C   0  0  0  0  0  0  0  0  0  0  0  0
  132.2540  125.6920   59.3390 C   0  0  0  0  0  0  0  0  0  0  0  0
  132.9230  124.3300   59.1980 C   0  0  0  0  0  0  0  0  0  0  0  0
  131.7180  126.1410   60.5620 C   0  0  0  0  0  0  0  0  0  0  0  0
  131.7840  125.3760   61.8490 C   0  0  0  0  0  0  0  0  0  0  0  0
  130.7480  124.7290   62.5150 C   0  0  0  0  0  0  0  0  0  0  0  0
  131.3200  124.2110   63.6480 N   0  0  0  0  0  0  0  0  0  0  0  0
  130.6960  123.4130   64.6940 C   0  0  0  0  0  0  0  0  0  0  0  0
  130.3180  124.2440   65.9020 C   0  0  0  0  0  0  0  0  0  0  0  0
  130.4900  125.5600   66.2770 C   0  0  0  0  0  0  0  0  0  0  0  0
  129.9130  125.6670   67.5400 C   0  0  0  0  0  0  0  0  0  0  0  0
  129.8190  126.8840   68.4400 C   0  0  0  0  0  0  0  0  0  0  0  0
  128.6020  126.9240   69.4110 C   0  0  0  0  0  0  0  0  0  0  0  0
  128.7190  127.8690   70.6330 C   0  0  0  0  0  0  0  0  0  0  0  0
  130.1040  127.8560   71.1270 N   0  0  0  0  0  0  0  0  0  0  0  0
  130.5700  127.1120   72.1760 C   0  0  0  0  0  0  0  0  0  0  0  0
  131.7840  126.9800   72.3590 O   0  0  0  0  0  0  0  0  0  0  0  0
  129.5890  126.5530   73.2800 C   0  0  0  0  0  0  0  0  0  0  0  0
  129.8570  125.1250   73.5640 N   0  0  0  0  0  0  0  0  0  0  0  0
  130.2640  124.5730   74.7290 C   0  0  0  0  0  0  0  0  0  0  0  0
  130.5290  125.2240   75.7400 O   0  0  0  0  0  0  0  0  0  0  0  0
  130.3790  123.0440   74.7530 C   0  0  0  0  0  0  0  0  0  0  0  0
  129.0320  122.3570   74.6270 C   0  0  0  0  0  0  0  0  0  0  0  0
  128.1110  122.1140   75.6300 C   0  0  0  0  0  0  0  0  0  0  0  0
  127.0100  121.4720   75.1260 N   0  0  0  0  0  0  0  0  0  0  0  0
  127.1710  121.2640   73.7740 C   0  0  0  0  0  0  0  0  0  0  0  0
  126.3320  120.6590   72.8310 C   0  0  0  0  0  0  0  0  0  0  0  0
  126.7920  120.6070   71.5160 C   0  0  0  0  0  0  0  0  0  0  0  0
  128.0290  121.1310   71.1490 C   0  0  0  0  0  0  0  0  0  0  0  0
  128.8640  121.7320   72.0880 C   0  0  0  0  0  0  0  0  0  0  0  0
  128.4450  121.8120   73.4270 C   0  0  0  0  0  0  0  0  0  0  0  0
  129.6400  127.3780   74.5990 C   0  0  0  0  0  0  0  0  0  0  0  0
  128.7600  128.6200   74.3920 C   0  0  0  0  0  0  0  0  0  0  0  0
  127.7780  128.2490   73.2730 C   0  0  0  0  0  0  0  0  0  0  0  0
  128.1100  126.8000   72.8830 C   0  0  0  0  0  0  0  0  0  0  0  0
  131.0390  128.4250   70.1440 C   0  0  0  0  0  0  0  0  0  0  0  0
  131.1710  127.4150   68.9840 C   0  0  0  0  0  0  0  0  0  0  0  0
  129.4220  124.5100   67.9330 N   0  0  0  0  0  0  0  0  0  0  0  0
  129.6650  123.6020   66.9030 O   0  0  0  0  0  0  0  0  0  0  0  0
  132.6230  124.5000   63.6930 N   0  0  0  0  0  0  0  0  0  0  0  0
  132.8950  125.2440   62.5590 N   0  0  0  0  0  0  0  0  0  0  0  0
  131.0770  127.3870   60.6020 C   0  0  0  0  0  0  0  0  0  0  0  0
  131.5290  130.9070   61.0110 N   0  0  0  0  0  0  0  0  0  0  0  0
  134.7274  131.5802   62.3262 H   0  0  0  0  0  0  0  0  0  0  0  0
  133.6529  131.0042   61.0069 H   0  0  0  0  0  0  0  0  0  0  0  0
  134.2453  132.7000   61.0069 H   0  0  0  0  0  0  0  0  0  0  0  0
  128.2910  132.1775   62.6512 H   0  0  0  0  0  0  0  0  0  0  0  0
  128.1580  130.4982   60.8167 H   0  0  0  0  0  0  0  0  0  0  0  0
  128.4908  130.1253   58.6851 H   0  0  0  0  0  0  0  0  0  0  0  0
  129.9603  130.5445   57.7409 H   0  0  0  0  0  0  0  0  0  0  0  0
  129.3437  128.8574   57.7409 H   0  0  0  0  0  0  0  0  0  0  0  0
  131.4336  128.3505   57.3569 H   0  0  0  0  0  0  0  0  0  0  0  0
  132.5594  126.1435   57.2441 H   0  0  0  0  0  0  0  0  0  0  0  0
  133.1263  123.9162   60.1967 H   0  0  0  0  0  0  0  0  0  0  0  0
  132.2567  123.6494   58.6478 H   0  0  0  0  0  0  0  0  0  0  0  0
  133.8690  124.4413   58.6478 H   0  0  0  0  0  0  0  0  0  0  0  0
  129.6969  124.6501   62.2004 H   0  0  0  0  0  0  0  0  0  0  0  0
  129.7869  122.9456   64.2876 H   0  0  0  0  0  0  0  0  0  0  0  0
  131.4249  122.6566   65.0204 H   0  0  0  0  0  0  0  0  0  0  0  0
  130.9801  126.3578   65.6996 H   0  0  0  0  0  0  0  0  0  0  0  0
  129.5387  127.6840   67.7389 H   0  0  0  0  0  0  0  0  0  0  0  0
  127.7220  127.2374   68.8301 H   0  0  0  0  0  0  0  0  0  0  0  0
  128.5356  125.9107   69.8339 H   0  0  0  0  0  0  0  0  0  0  0  0
  128.4451  128.8916   70.3342 H   0  0  0  0  0  0  0  0  0  0  0  0
  128.0408  127.5276   71.4289 H   0  0  0  0  0  0  0  0  0  0  0  0
  129.4800  124.4850   72.8830 H   0  0  0  0  0  0  0  0  0  0  0  0
  131.0171  122.7252   73.9156 H   0  0  0  0  0  0  0  0  0  0  0  0
  130.8107  122.7569   75.7232 H   0  0  0  0  0  0  0  0  0  0  0  0
  128.2437  122.3966   76.6848 H   0  0  0  0  0  0  0  0  0  0  0  0
  126.2210  121.2120   75.7000 H   0  0  0  0  0  0  0  0  0  0  0  0
  125.3539  120.2433   73.1147 H   0  0  0  0  0  0  0  0  0  0  0  0
  126.1602  120.1390   70.7467 H   0  0  0  0  0  0  0  0  0  0  0  0
  128.3522  121.0692   70.0994 H   0  0  0  0  0  0  0  0  0  0  0  0
  129.8399  122.1392   71.7850 H   0  0  0  0  0  0  0  0  0  0  0  0
  129.2528  126.7768   75.4348 H   0  0  0  0  0  0  0  0  0  0  0  0
  130.6738  127.6674   74.8389 H   0  0  0  0  0  0  0  0  0  0  0  0
  128.2150  128.8626   75.3162 H   0  0  0  0  0  0  0  0  0  0  0  0
  129.3596  129.5043   74.1303 H   0  0  0  0  0  0  0  0  0  0  0  0
  126.7416  128.3198   73.6347 H   0  0  0  0  0  0  0  0  0  0  0  0
  127.8701  128.9293   72.4135 H   0  0  0  0  0  0  0  0  0  0  0  0
  127.4522  126.1030   73.4228 H   0  0  0  0  0  0  0  0  0  0  0  0
  127.9598  126.6385   71.8053 H   0  0  0  0  0  0  0  0  0  0  0  0
  130.6490  129.3814   69.7657 H   0  0  0  0  0  0  0  0  0  0  0  0
  132.0194  128.6109   70.6069 H   0  0  0  0  0  0  0  0  0  0  0  0
  131.7046  127.9077   68.1579 H   0  0  0  0  0  0  0  0  0  0  0  0
  131.7115  126.5450   69.3852 H   0  0  0  0  0  0  0  0  0  0  0  0
  130.6453  127.7351   61.5520 H   0  0  0  0  0  0  0  0  0  0  0  0
  1  2  1  0
  2  3  1  0
  3  4  2  0
  4  5  1  0
  5  6  2  0
  6  7  1  0
  7  8  1  0
  8  9  1  0
  8 10  1  0
 10 11  2  0
 11 12  1  0
 12 13  2  0
 13 14  1  0
 13 15  1  0
 15 16  1  0
 16 17  2  0
 17 18  1  0
 18 19  1  0
 19 20  1  0
 20 21  2  0
 21 22  1  0
 22 23  1  0
 23 24  1  0
 24 25  1  0
 25 26  1  0
 26 27  1  0
 27 28  2  0
 27 29  1  0
 29 30  1  0
 30 31  1  0
 31 32  2  0
 31 33  1  0
 33 34  1  0
 34 35  2  0
 35 36  1  0
 36 37  1  0
 37 38  2  0
 38 39  1  0
 39 40  2  0
 40 41  1  0
 41 42  2  0
 29 43  1  0
 43 44  1  0
 44 45  1  0
 45 46  1  0
 26 47  1  0
 47 48  1  0
 22 49  2  0
 49 50  1  0
 18 51  1  0
 51 52  2  0
 15 53  2  0
  7 54  2  0
 54  3  1  0
 53 10  1  0
 52 16  1  0
 50 20  1  0
 48 23  1  0
 46 29  1  0
 42 34  1  0
 42 37  1  0
  1 55  1  0
  1 56  1  0
  1 57  1  0
  5 58  1  0
  6 59  1  0
  9 60  1  0
  9 61  1  0
  9 62  1  0
 11 63  1  0
 12 64  1  0
 14 65  1  0
 14 66  1  0
 14 67  1  0
 17 68  1  0
 19 69  1  0
 19 70  1  0
 21 71  1  0
 23 72  1  0
 24 73  1  0
 24 74  1  0
 25 75  1  0
 25 76  1  0
 30 77  1  0
 33 78  1  0
 33 79  1  0
 35 80  1  0
 36 81  1  0
 38 82  1  0
 39 83  1  0
 40 84  1  0
 41 85  1  0
 43 86  1  0
 43 87  1  0
 44 88  1  0
 44 89  1  0
 45 90  1  0
 45 91  1  0
 46 92  1  0
 46 93  1  0
 47 94  1  0
 47 95  1  0
 48 96  1  0
 48 97  1  0
 53 98  1  0
M  END
>  <Binding energies>  (1) 
[-10.42]

>  <Ligand effiencies>  (1) 
[-0.18607142857142858]

>  <Interactions>  (1) 
["V-A:GLU:543:CA:4904, V-B:GLU:543:C:9874, V-B:HIS:456:CD2:9039, H-B:GLU:543:O:9875, H-A:ALA:541:N:4891, V-A:GLU:543:C:4902, V-B:GLU:543:CB:9878, H-B:LYS:547:NZ:9923, V-A:PRO:540:C:4881, V-B:TYR:539:CE2:9848, V-A:TYR:484:CE2:4346, V-A:GLY:544:CA:4914, V-B:GLU:543:CG:9879, V-A:GLY:544:C:4912, V-A:ASP:366:CG:3213, V-A:ASN:362:CB:3176, V-A:HIS:456:CD2:4068, V-B:LYS:547:CE:9922, V-A:TYR:484:CZ:4347, V-A:GLU:543:CD:4908, V-B:HIS:456:CE1:9041, V-A:ARG:545:CG:4922, V-B:GLU:543:CA:9876, V-A:TYR:484:CD2:4344, V-A:HIS:456:CE1:4070, V-A:TYR:484:CG:4342, V-B:GLY:544:CA:9886, V-B:HIS:456:CG:9037, V-A:ASP:366:CB:3212, V-B:LYS:547:CD:9921, V-B:VAL:542:CG1:9871, H-A:ARG:545:NH2:4928, V-A:ASN:362:C:3172, V-A:TYR:484:CB:4341, V-A:GLU:543:CB:4906, V-A:HIS:456:CG:4066, V-A:PRO:540:CB:4885, V-A:PRO:540:CA:4883, V-A:LEU:363:CA:3185, V-A:ASN:362:CA:3174, H-A:HIS:456:NE2:4071, H-A:HIS:456:ND1:4067, H-A:TYR:484:OH:4348"]

$$$$
ZINC2325832558
     RDKit          3D

 85 91  0  0  0  0  0  0  0  0999 V2000
  128.7490  131.5230   74.8070 C   0  0  0  0  0  0  0  0  0  0  0  0
  129.0940  130.1470   74.9540 O   0  0  0  0  0  0  0  0  0  0  0  0
  128.7270  129.2490   73.9690 C   0  0  0  0  0  0  0  0  0  0  0  0
  127.5480  128.6190   74.1940 N   0  0  0  0  0  0  0  0  0  0  0  0
  127.1520  127.7370   73.2440 C   0  0  0  0  0  0  0  0  0  0  0  0
  127.9060  127.4750   72.0990 C   0  0  0  0  0  0  0  0  0  0  0  0
  129.1290  128.1540   71.9390 C   0  0  0  0  0  0  0  0  0  0  0  0
  129.9430  127.9490   70.7870 N   0  0  0  0  0  0  0  0  0  0  0  0
  131.3830  127.7310   71.0060 C   0  0  0  0  0  0  0  0  0  0  0  0
  129.5480  127.9900   69.4260 C   0  0  0  0  0  0  0  0  0  0  0  0
  128.8330  129.0840   68.9260 C   0  0  0  0  0  0  0  0  0  0  0  0
  128.4410  129.1320   67.5920 C   0  0  0  0  0  0  0  0  0  0  0  0
  128.7480  128.0840   66.7200 C   0  0  0  0  0  0  0  0  0  0  0  0
  128.3360  128.2170   65.2600 C   0  0  0  0  0  0  0  0  0  0  0  0
  129.4540  126.9630   67.2020 C   0  0  0  0  0  0  0  0  0  0  0  0
  129.8380  125.7810   66.3660 C   0  0  0  0  0  0  0  0  0  0  0  0
  130.5390  125.7730   65.1650 C   0  0  0  0  0  0  0  0  0  0  0  0
  130.6270  124.4520   64.7980 N   0  0  0  0  0  0  0  0  0  0  0  0
  131.2720  123.8280   63.6330 C   0  0  2  0  0  0  0  0  0  0  0  0
  132.5060  123.0460   64.0980 C   0  0  0  0  0  0  0  0  0  0  0  0
  133.2340  122.4580   62.8800 C   0  0  0  0  0  0  0  0  0  0  0  0
  133.5520  123.4350   61.6930 C   0  0  0  0  0  0  0  0  0  0  0  0
  134.7300  124.3560   62.1080 C   0  0  0  0  0  0  0  0  0  0  0  0
  133.9790  122.5020   60.5190 C   0  0  0  0  0  0  0  0  0  0  0  0
  132.2930  124.2260   61.4310 N   0  0  0  0  0  0  0  0  0  0  0  0
  132.0910  124.8680   60.2350 C   0  0  0  0  0  0  0  0  0  0  0  0
  132.7310  124.6140   59.2120 O   0  0  0  0  0  0  0  0  0  0  0  0
  131.0330  125.8670   60.1620 C   0  0  0  0  0  0  0  0  0  0  0  0
  131.1150  127.1110   60.6170 N   0  0  0  0  0  0  0  0  0  0  0  0
  129.9290  127.7060   60.3850 N   0  0  0  0  0  0  0  0  0  0  0  0
  129.7150  129.0580   60.7290 C   0  0  0  0  0  0  0  0  0  0  0  0
  128.9610  129.3680   61.8670 C   0  0  0  0  0  0  0  0  0  0  0  0
  128.7420  130.6970   62.2280 C   0  0  0  0  0  0  0  0  0  0  0  0
  129.2740  131.7280   61.4530 C   0  0  0  0  0  0  0  0  0  0  0  0
  129.0040  133.3730   61.9010 Cl  0  0  0  0  0  0  0  0  0  0  0  0
  130.0250  131.4280   60.3170 C   0  0  0  0  0  0  0  0  0  0  0  0
  130.2480  130.1000   59.9490 C   0  0  0  0  0  0  0  0  0  0  0  0
  130.9670  129.8440   58.8300 F   0  0  0  0  0  0  0  0  0  0  0  0
  129.0450  126.8050   59.8490 C   0  0  0  0  0  0  0  0  0  0  0  0
  129.7240  125.6280   59.7070 C   0  0  0  0  0  0  0  0  0  0  0  0
  128.8370  124.5820   59.0820 C   0  0  0  0  0  0  0  0  0  0  0  0
  127.4370  125.2140   59.2300 C   0  0  0  0  0  0  0  0  0  0  0  0
  127.6130  126.7360   59.3980 C   0  0  0  0  0  0  0  0  0  0  0  0
  131.6950  124.9040   62.6170 C   0  0  0  0  0  0  0  0  0  0  0  0
  130.0540  123.6800   65.7290 N   0  0  0  0  0  0  0  0  0  0  0  0
  129.5620  124.5300   66.7030 N   0  0  0  0  0  0  0  0  0  0  0  0
  129.8420  126.9350   68.5490 C   0  0  0  0  0  0  0  0  0  0  0  0
  129.5300  129.0580   72.8840 N   0  0  0  0  0  0  0  0  0  0  0  0
  128.6343  131.9804   75.8008 H   0  0  0  0  0  0  0  0  0  0  0  0
  129.5445  132.0434   74.2534 H   0  0  0  0  0  0  0  0  0  0  0  0
  127.8021  131.6065   74.2534 H   0  0  0  0  0  0  0  0  0  0  0  0
  126.1982  127.2064   73.3809 H   0  0  0  0  0  0  0  0  0  0  0  0
  127.5545  126.7579   71.3426 H   0  0  0  0  0  0  0  0  0  0  0  0
  131.5890  127.6998   72.0861 H   0  0  0  0  0  0  0  0  0  0  0  0
  131.6833  126.7772   70.5477 H   0  0  0  0  0  0  0  0  0  0  0  0
  131.9522  128.5532   70.5477 H   0  0  0  0  0  0  0  0  0  0  0  0
  128.5774  129.9174   69.5969 H   0  0  0  0  0  0  0  0  0  0  0  0
  127.8835  130.0041   67.2197 H   0  0  0  0  0  0  0  0  0  0  0  0
  127.2906  128.5545   65.2033 H   0  0  0  0  0  0  0  0  0  0  0  0
  128.9858  128.9510   64.7610 H   0  0  0  0  0  0  0  0  0  0  0  0
  128.4340  127.2416   64.7610 H   0  0  0  0  0  0  0  0  0  0  0  0
  130.9392  126.6422   64.6225 H   0  0  0  0  0  0  0  0  0  0  0  0
  130.5584  123.1454   63.1484 H   0  0  0  0  0  0  0  0  0  0  0  0
  133.1849  123.7216   64.6390 H   0  0  0  0  0  0  0  0  0  0  0  0
  132.1907  122.2292   64.7639 H   0  0  0  0  0  0  0  0  0  0  0  0
  134.1902  122.0450   63.2337 H   0  0  0  0  0  0  0  0  0  0  0  0
  132.5339  121.7207   62.4602 H   0  0  0  0  0  0  0  0  0  0  0  0
  134.7898  124.4028   63.2054 H   0  0  0  0  0  0  0  0  0  0  0  0
  135.6708  123.9515   61.7064 H   0  0  0  0  0  0  0  0  0  0  0  0
  134.5644  125.3666   61.7064 H   0  0  0  0  0  0  0  0  0  0  0  0
  134.4044  121.5725   60.9254 H   0  0  0  0  0  0  0  0  0  0  0  0
  133.1003  122.2639   59.9017 H   0  0  0  0  0  0  0  0  0  0  0  0
  134.7336  123.0114   59.9017 H   0  0  0  0  0  0  0  0  0  0  0  0
  128.5387  128.5583   62.4802 H   0  0  0  0  0  0  0  0  0  0  0  0
  128.1495  130.9326   63.1243 H   0  0  0  0  0  0  0  0  0  0  0  0
  130.4440  132.2422   59.7075 H   0  0  0  0  0  0  0  0  0  0  0  0
  129.0929  124.4219   58.0242 H   0  0  0  0  0  0  0  0  0  0  0  0
  128.9261  123.5900   59.5490 H   0  0  0  0  0  0  0  0  0  0  0  0
  126.8370  125.0051   58.3320 H   0  0  0  0  0  0  0  0  0  0  0  0
  126.9192  124.7919   60.1039 H   0  0  0  0  0  0  0  0  0  0  0  0
  127.4617  127.2685   58.4475 H   0  0  0  0  0  0  0  0  0  0  0  0
  126.8950  127.2045   60.0873 H   0  0  0  0  0  0  0  0  0  0  0  0
  132.4372  125.5748   63.0743 H   0  0  0  0  0  0  0  0  0  0  0  0
  130.8210  125.4976   62.3108 H   0  0  0  0  0  0  0  0  0  0  0  0
  130.3923  126.0615   68.9288 H   0  0  0  0  0  0  0  0  0  0  0  0
  1  2  1  0
  2  3  1  0
  3  4  2  0
  4  5  1  0
  5  6  2  0
  6  7  1  0
  7  8  1  0
  8  9  1  0
  8 10  1  0
 10 11  2  0
 11 12  1  0
 12 13  2  0
 13 14  1  0
 13 15  1  0
 15 16  1  0
 16 17  2  0
 17 18  1  0
 18 19  1  0
 19 20  1  0
 20 21  1  0
 21 22  1  0
 22 23  1  0
 22 24  1  0
 22 25  1  0
 25 26  1  0
 26 27  2  0
 26 28  1  0
 28 29  2  0
 29 30  1  0
 30 31  1  0
 31 32  2  0
 32 33  1  0
 33 34  2  0
 34 35  1  0
 34 36  1  0
 36 37  2  0
 37 38  1  0
 30 39  1  0
 39 40  2  0
 40 41  1  0
 41 42  1  0
 42 43  1  0
 25 44  1  0
 18 45  1  0
 45 46  2  0
 15 47  2  0
  7 48  2  0
 48  3  1  0
 47 10  1  0
 46 16  1  0
 44 19  1  0
 40 28  1  0
 37 31  1  0
 43 39  1  0
  1 49  1  0
  1 50  1  0
  1 51  1  0
  5 52  1  0
  6 53  1  0
  9 54  1  0
  9 55  1  0
  9 56  1  0
 11 57  1  0
 12 58  1  0
 14 59  1  0
 14 60  1  0
 14 61  1  0
 17 62  1  0
 19 63  1  6
 20 64  1  0
 20 65  1  0
 21 66  1  0
 21 67  1  0
 23 68  1  0
 23 69  1  0
 23 70  1  0
 24 71  1  0
 24 72  1  0
 24 73  1  0
 32 74  1  0
 33 75  1  0
 36 76  1  0
 41 77  1  0
 41 78  1  0
 42 79  1  0
 42 80  1  0
 43 81  1  0
 43 82  1  0
 44 83  1  0
 44 84  1  0
 47 85  1  0
M  END
>  <Binding energies>  (1) 
[-9.11]

>  <Ligand effiencies>  (1) 
[-0.18979166666666666]

>  <Interactions>  (1) 
["V-A:ILE:369:CG2:3237, V-A:ARG:545:CA:4919, V-A:GLU:543:CA:4904, V-A:GLY:454:CA:4049, V-B:HIS:456:CD2:9039, V-A:ILE:369:CB:3236, V-A:GLU:543:C:4902, V-B:GLU:543:CB:9878, H-B:LYS:547:NZ:9923, V-A:PRO:540:C:4881, V-B:TYR:539:CE2:9848, V-B:GLU:543:CG:9879, V-A:GLY:544:C:4912, V-A:HIS:456:CD2:4068, H-B:TYR:539:OH:9850, V-A:ALA:541:CB:4892, V-B:LYS:547:CE:9922, V-A:GLU:543:CD:4908, V-A:TYR:484:CZ:4347, V-B:HIS:456:CE1:9041, V-A:GLY:453:C:4042, V-A:HIS:456:CE1:4070, V-A:ILE:369:CD1:3239, V-A:ALA:541:CA:4890, V-A:GLU:543:CG:4907, V-B:GLU:543:CD:9880, V-B:HIS:456:CG:9037, V-A:ILE:369:CG1:3238, H-A:LYS:547:NZ:4951, V-A:LEU:475:CD2:4259, V-A:GLU:543:CB:4906, V-A:GLY:453:CA:4044, V-A:PRO:540:CA:4883, H-A:TYR:484:OH:4348"]

$$$$
ZINC2325832897
     RDKit          3D

 78 82  0  0  0  0  0  0  0  0999 V2000
  133.3230  120.5720   61.0480 C   0  0  0  0  0  0  0  0  0  0  0  0
  133.1510  122.0910   61.1700 C   0  0  2  0  0  0  0  0  0  0  0  0
  132.9530  122.7530   59.7830 C   0  0  0  0  0  0  0  0  0  0  0  0
  132.9650  124.2120   59.9850 N   0  0  0  0  0  0  0  0  0  0  0  0
  131.8160  124.9360   59.9030 C   0  0  0  0  0  0  0  0  0  0  0  0
  130.7460  124.4270   59.5570 O   0  0  0  0  0  0  0  0  0  0  0  0
  131.9000  126.4680   60.1350 C   0  0  0  0  0  0  0  0  0  0  0  0
  130.6310  127.0270   60.6680 N   0  0  0  0  0  0  0  0  0  0  0  0
  130.1410  128.1570   60.0870 C   0  0  0  0  0  0  0  0  0  0  0  0
  130.6980  128.7600   59.1660 O   0  0  0  0  0  0  0  0  0  0  0  0
  128.9000  128.5500   60.7200 C   0  0  0  0  0  0  0  0  0  0  0  0
  128.1930  129.6640   60.4240 C   0  0  0  0  0  0  0  0  0  0  0  0
  128.4160  130.7120   59.4330 C   0  0  0  0  0  0  0  0  0  0  0  0
  127.7060  131.1160   58.3130 C   0  0  0  0  0  0  0  0  0  0  0  0
  128.3960  132.2120   57.7990 C   0  0  0  0  0  0  0  0  0  0  0  0
  129.4540  132.5060   58.5150 N   0  0  0  0  0  0  0  0  0  0  0  0
  129.4770  131.6000   59.5110 N   0  0  0  0  0  0  0  0  0  0  0  0
  130.5350  131.6360   60.4470 C   0  0  0  0  0  0  0  0  0  0  0  0
  130.2550  131.7920   61.8100 C   0  0  0  0  0  0  0  0  0  0  0  0
  131.2960  131.8320   62.7330 C   0  0  0  0  0  0  0  0  0  0  0  0
  132.6130  131.7090   62.2960 C   0  0  0  0  0  0  0  0  0  0  0  0
  133.6230  131.7480   63.1940 F   0  0  0  0  0  0  0  0  0  0  0  0
  132.8990  131.5470   60.9420 C   0  0  0  0  0  0  0  0  0  0  0  0
  131.8620  131.5070   60.0150 C   0  0  0  0  0  0  0  0  0  0  0  0
  128.4650  127.3960   61.9650 S   0  0  0  0  0  0  0  0  0  0  0  0
  129.9480  126.4600   61.7130 C   0  0  0  0  0  0  0  0  0  0  0  0
  130.3510  125.3720   62.4200 C   0  0  0  0  0  0  0  0  0  0  0  0
  129.6500  124.7420   63.5500 C   0  0  0  0  0  0  0  0  0  0  0  0
  128.9890  123.7140   63.3880 O   0  0  0  0  0  0  0  0  0  0  0  0
  129.6710  125.4360   64.8840 C   0  0  0  0  0  0  0  0  0  0  0  0
  129.1020  126.7100   65.0100 C   0  0  0  0  0  0  0  0  0  0  0  0
  129.0970  127.3710   66.2350 C   0  0  0  0  0  0  0  0  0  0  0  0
  129.6520  126.7730   67.3760 C   0  0  0  0  0  0  0  0  0  0  0  0
  129.6720  127.4770   68.7570 C   0  0  0  0  0  0  0  0  0  0  0  0
  129.0080  126.6400   69.8840 C   0  0  0  0  0  0  0  0  0  0  0  0
  131.1340  127.7500   69.1870 C   0  0  0  0  0  0  0  0  0  0  0  0
  128.9060  128.8200   68.6660 C   0  0  0  0  0  0  0  0  0  0  0  0
  130.2020  125.4910   67.2500 C   0  0  0  0  0  0  0  0  0  0  0  0
  130.2090  124.8280   66.0270 C   0  0  0  0  0  0  0  0  0  0  0  0
  134.2030  124.7270   60.5980 C   0  0  0  0  0  0  0  0  0  0  0  0
  134.3530  124.0410   61.9780 C   0  0  1  0  0  0  0  0  0  0  0  0
  133.3650  124.5410   63.0520 C   0  0  0  0  0  0  0  0  0  0  0  0
  134.3180  122.6220   61.8030 O   0  0  0  0  0  0  0  0  0  0  0  0
  133.3734  120.1268   62.0526 H   0  0  0  0  0  0  0  0  0  0  0  0
  132.4670  120.1488   60.5019 H   0  0  0  0  0  0  0  0  0  0  0  0
  134.2519  120.3509   60.5019 H   0  0  0  0  0  0  0  0  0  0  0  0
  132.2526  122.3064   61.7670 H   0  0  0  0  0  0  0  0  0  0  0  0
  133.7698  122.4604   59.1068 H   0  0  0  0  0  0  0  0  0  0  0  0
  132.0029  122.4314   59.3315 H   0  0  0  0  0  0  0  0  0  0  0  0
  132.7068  126.6734   60.8540 H   0  0  0  0  0  0  0  0  0  0  0  0
  132.0969  126.9455   59.1638 H   0  0  0  0  0  0  0  0  0  0  0  0
  127.2913  129.8052   61.0380 H   0  0  0  0  0  0  0  0  0  0  0  0
  126.7866  130.6641   57.9123 H   0  0  0  0  0  0  0  0  0  0  0  0
  128.0892  132.7651   56.8990 H   0  0  0  0  0  0  0  0  0  0  0  0
  129.2132  131.8829   62.1510 H   0  0  0  0  0  0  0  0  0  0  0  0
  131.0795  131.9603   63.8038 H   0  0  0  0  0  0  0  0  0  0  0  0
  133.9422  131.4509   60.6066 H   0  0  0  0  0  0  0  0  0  0  0  0
  132.0832  131.3744   58.9457 H   0  0  0  0  0  0  0  0  0  0  0  0
  131.3030  124.9131   62.1151 H   0  0  0  0  0  0  0  0  0  0  0  0
  128.6536  127.1940   64.1299 H   0  0  0  0  0  0  0  0  0  0  0  0
  128.6524  128.3744   66.3092 H   0  0  0  0  0  0  0  0  0  0  0  0
  129.3190  127.0320   70.8636 H   0  0  0  0  0  0  0  0  0  0  0  0
  127.9137  126.7057   69.7933 H   0  0  0  0  0  0  0  0  0  0  0  0
  129.3210  125.5894   69.7933 H   0  0  0  0  0  0  0  0  0  0  0  0
  131.1971  127.7618   70.2851 H   0  0  0  0  0  0  0  0  0  0  0  0
  131.7867  126.9582   68.7907 H   0  0  0  0  0  0  0  0  0  0  0  0
  131.4570  128.7240   68.7907 H   0  0  0  0  0  0  0  0  0  0  0  0
  128.6945  129.1909   69.6798 H   0  0  0  0  0  0  0  0  0  0  0  0
  129.5199  129.5565   68.1268 H   0  0  0  0  0  0  0  0  0  0  0  0
  127.9596  128.6665   68.1268 H   0  0  0  0  0  0  0  0  0  0  0  0
  130.6360  124.9999   68.1335 H   0  0  0  0  0  0  0  0  0  0  0  0
  130.6402  123.8185   65.9562 H   0  0  0  0  0  0  0  0  0  0  0  0
  135.0670  124.4854   59.9615 H   0  0  0  0  0  0  0  0  0  0  0  0
  134.1569  125.8204   60.7094 H   0  0  0  0  0  0  0  0  0  0  0  0
  135.3326  124.3303   62.3861 H   0  0  0  0  0  0  0  0  0  0  0  0
  133.7744  124.3338   64.0517 H   0  0  0  0  0  0  0  0  0  0  0  0
  133.2136  125.6242   62.9351 H   0  0  0  0  0  0  0  0  0  0  0  0
  132.4025  124.0215   62.9351 H   0  0  0  0  0  0  0  0  0  0  0  0
  1  2  1  0
  2  3  1  0
  3  4  1  0
  4  5  1  0
  5  6  2  0
  5  7  1  0
  7  8  1  0
  8  9  1  0
  9 10  2  0
  9 11  1  0
 11 12  2  0
 12 13  1  0
 13 14  2  0
 14 15  1  0
 15 16  2  0
 16 17  1  0
 17 18  1  0
 18 19  2  0
 19 20  1  0
 20 21  2  0
 21 22  1  0
 21 23  1  0
 23 24  2  0
 11 25  1  0
 25 26  1  0
 26 27  2  0
 27 28  1  0
 28 29  2  0
 28 30  1  0
 30 31  2  0
 31 32  1  0
 32 33  2  0
 33 34  1  0
 34 35  1  0
 34 36  1  0
 34 37  1  0
 33 38  1  0
 38 39  2  0
  4 40  1  0
 40 41  1  0
 41 42  1  0
 41 43  1  0
 43  2  1  0
 26  8  1  0
 39 30  1  0
 17 13  1  0
 24 18  1  0
  1 44  1  0
  1 45  1  0
  1 46  1  0
  2 47  1  1
  3 48  1  0
  3 49  1  0
  7 50  1  0
  7 51  1  0
 12 52  1  0
 14 53  1  0
 15 54  1  0
 19 55  1  0
 20 56  1  0
 23 57  1  0
 24 58  1  0
 27 59  1  0
 31 60  1  0
 32 61  1  0
 35 62  1  0
 35 63  1  0
 35 64  1  0
 36 65  1  0
 36 66  1  0
 36 67  1  0
 37 68  1  0
 37 69  1  0
 37 70  1  0
 38 71  1  0
 39 72  1  0
 40 73  1  0
 40 74  1  0
 41 75  1  1
 42 76  1  0
 42 77  1  0
 42 78  1  0
M  END
>  <Binding energies>  (1) 
[-8.69]

>  <Ligand effiencies>  (1) 
[-0.20209302325581394]

>  <Interactions>  (1) 
["V-A:ILE:369:CG2:3237, V-A:ASP:366:CA:3210, V-A:GLU:543:CA:4904, V-A:ALA:541:C:4888, V-B:GLU:543:C:9874, V-A:GLU:543:C:4902, V-B:GLU:543:CB:9878, V-B:TYR:539:CE2:9848, V-A:TYR:484:CE2:4346, V-B:GLU:543:CG:9879, V-A:ASP:366:CG:3213, V-A:ASN:362:CB:3176, V-A:TYR:539:CD1:4873, V-A:GLU:543:CD:4908, V-A:ASN:362:CG:3177, V-A:ARG:545:CG:4922, H-A:GLY:454:N:4050, V-B:HIS:456:CE1:9041, V-A:ILE:369:CD1:3239, V-A:HIS:456:CE1:4070, V-A:ALA:541:CA:4890, V-B:TYR:539:CD2:9846, V-A:GLU:543:CG:4907, V-A:SER:385:CB:3409, V-B:GLU:543:CD:9880, V-A:ASP:366:CB:3212, V-A:LEU:475:CD2:4259, V-A:ARG:545:CZ:4926, V-A:GLU:543:CB:4906, V-A:PRO:540:CB:4885, V-A:PRO:540:CA:4883, V-A:ASN:362:CA:3174, V-A:SER:385:CA:3407, V-A:TYR:539:CE1:4875"]

$$$$
ZINC2325846519
     RDKit          3D

 91 97  0  0  0  0  0  0  0  0999 V2000
  135.2390  126.9100   75.1870 C   0  0  0  0  0  0  0  0  0  0  0  0
  134.1890  126.6950   74.2440 O   0  0  0  0  0  0  0  0  0  0  0  0
  132.9660  126.2290   74.6880 C   0  0  0  0  0  0  0  0  0  0  0  0
  132.9030  125.1350   75.4990 N   0  0  0  0  0  0  0  0  0  0  0  0
  131.6610  124.7530   75.8850 C   0  0  0  0  0  0  0  0  0  0  0  0
  130.5060  125.4280   75.4830 C   0  0  0  0  0  0  0  0  0  0  0  0
  130.6520  126.5460   74.6360 C   0  0  0  0  0  0  0  0  0  0  0  0
  129.5400  127.3170   74.1880 N   0  0  0  0  0  0  0  0  0  0  0  0
  128.9730  128.2920   75.1350 C   0  0  0  0  0  0  0  0  0  0  0  0
  128.8830  127.2490   72.9300 C   0  0  0  0  0  0  0  0  0  0  0  0
  127.4870  127.3260   72.8430 C   0  0  0  0  0  0  0  0  0  0  0  0
  126.8420  127.2580   71.6110 C   0  0  0  0  0  0  0  0  0  0  0  0
  127.5740  127.1140   70.4290 C   0  0  0  0  0  0  0  0  0  0  0  0
  126.8090  127.0000   69.1160 C   0  0  0  0  0  0  0  0  0  0  0  0
  128.9800  127.0410   70.4880 C   0  0  0  0  0  0  0  0  0  0  0  0
  129.8710  126.8900   69.2920 C   0  0  0  0  0  0  0  0  0  0  0  0
  129.5910  126.2440   68.0920 C   0  0  0  0  0  0  0  0  0  0  0  0
  130.7280  126.3680   67.3350 N   0  0  0  0  0  0  0  0  0  0  0  0
  130.9690  125.8430   65.9830 C   0  0  1  0  0  0  0  0  0  0  0  0
  132.3640  125.1750   65.9210 C   0  0  0  0  0  0  0  0  0  0  0  0
  132.5610  124.4200   64.5930 C   0  0  0  0  0  0  0  0  0  0  0  0
  131.4710  123.5210   64.3690 O   0  0  0  0  0  0  0  0  0  0  0  0
  130.1560  124.1000   64.2820 C   0  0  0  0  0  0  0  0  0  0  0  0
  129.1900  122.9140   64.0350 C   0  0  0  0  0  0  0  0  0  0  0  0
  129.5100  122.1760   62.7100 C   0  0  0  0  0  0  0  0  0  0  0  0
  129.3850  123.1670   61.6180 N   0  0  0  0  0  0  0  0  0  0  0  0
  128.2200  123.2550   60.9070 C   0  0  0  0  0  0  0  0  0  0  0  0
  127.2790  122.4910   61.1500 O   0  0  0  0  0  0  0  0  0  0  0  0
  128.0900  124.2040   59.6580 C   0  0  0  0  0  0  0  0  0  0  0  0
  129.4380  124.2770   58.8830 C   0  0  0  0  0  0  0  0  0  0  0  0
  127.0480  123.5720   58.6870 C   0  0  0  0  0  0  0  0  0  0  0  0
  127.7520  125.6650   60.0440 C   0  0  0  0  0  0  0  0  0  0  0  0
  126.5280  126.1900   60.4750 C   0  0  0  0  0  0  0  0  0  0  0  0
  126.6850  127.8820   60.8300 S   0  0  0  0  0  0  0  0  0  0  0  0
  128.3600  127.7490   60.4060 C   0  0  0  0  0  0  0  0  0  0  0  0
  129.2790  128.9230   60.4850 C   0  0  0  0  0  0  0  0  0  0  0  0
  130.1080  129.2260   59.3930 C   0  0  0  0  0  0  0  0  0  0  0  0
  130.0820  128.4670   58.2720 F   0  0  0  0  0  0  0  0  0  0  0  0
  130.9850  130.3100   59.4520 C   0  0  0  0  0  0  0  0  0  0  0  0
  131.0450  131.1010   60.5960 C   0  0  0  0  0  0  0  0  0  0  0  0
  130.2280  130.8090   61.6870 C   0  0  0  0  0  0  0  0  0  0  0  0
  129.3480  129.7270   61.6390 C   0  0  0  0  0  0  0  0  0  0  0  0
  128.3450  129.4270   63.0180 Cl  0  0  0  0  0  0  0  0  0  0  0  0
  128.7420  126.5470   60.0490 N   0  0  0  0  0  0  0  0  0  0  0  0
  130.3530  124.2810   61.7270 C   0  0  0  0  0  0  0  0  0  0  0  0
  130.0300  125.0330   63.0420 C   0  0  0  0  0  0  0  0  0  0  0  0
  129.8690  124.8090   65.6320 C   0  0  0  0  0  0  0  0  0  0  0  0
  131.6670  127.0360   68.0200 N   0  0  0  0  0  0  0  0  0  0  0  0
  131.1110  127.3540   69.2460 N   0  0  0  0  0  0  0  0  0  0  0  0
  129.6090  127.1080   71.7380 C   0  0  0  0  0  0  0  0  0  0  0  0
  131.9000  126.9430   74.2490 N   0  0  0  0  0  0  0  0  0  0  0  0
  134.8375  126.8278   76.2078 H   0  0  0  0  0  0  0  0  0  0  0  0
  136.0244  126.1540   75.0399 H   0  0  0  0  0  0  0  0  0  0  0  0
  135.6641  127.9138   75.0399 H   0  0  0  0  0  0  0  0  0  0  0  0
  131.5585  123.8762   76.5412 H   0  0  0  0  0  0  0  0  0  0  0  0
  129.5116  125.0971   75.8174 H   0  0  0  0  0  0  0  0  0  0  0  0
  129.1671  127.9583   76.1650 H   0  0  0  0  0  0  0  0  0  0  0  0
  129.4406  129.2745   74.9737 H   0  0  0  0  0  0  0  0  0  0  0  0
  127.8878  128.3715   74.9737 H   0  0  0  0  0  0  0  0  0  0  0  0
  126.8920  127.4418   73.7609 H   0  0  0  0  0  0  0  0  0  0  0  0
  125.7445  127.3183   71.5674 H   0  0  0  0  0  0  0  0  0  0  0  0
  125.7411  126.8409   69.3265 H   0  0  0  0  0  0  0  0  0  0  0  0
  126.9345  127.9268   68.5369 H   0  0  0  0  0  0  0  0  0  0  0  0
  127.1992  126.1501   68.5369 H   0  0  0  0  0  0  0  0  0  0  0  0
  128.6549  125.7400   67.8098 H   0  0  0  0  0  0  0  0  0  0  0  0
  130.9383  126.6682   65.2563 H   0  0  0  0  0  0  0  0  0  0  0  0
  133.1380  125.9514   66.0106 H   0  0  0  0  0  0  0  0  0  0  0  0
  132.4417  124.4530   66.7472 H   0  0  0  0  0  0  0  0  0  0  0  0
  132.6098  125.1447   63.7669 H   0  0  0  0  0  0  0  0  0  0  0  0
  133.4967  123.8439   64.6432 H   0  0  0  0  0  0  0  0  0  0  0  0
  129.2794  122.2025   64.8692 H   0  0  0  0  0  0  0  0  0  0  0  0
  128.1681  123.3149   63.9644 H   0  0  0  0  0  0  0  0  0  0  0  0
  130.5337  121.7745   62.7396 H   0  0  0  0  0  0  0  0  0  0  0  0
  128.8198  121.3337   62.5548 H   0  0  0  0  0  0  0  0  0  0  0  0
  130.2711  124.3221   59.5999 H   0  0  0  0  0  0  0  0  0  0  0  0
  129.5463  123.3834   58.2507 H   0  0  0  0  0  0  0  0  0  0  0  0
  129.4492  125.1771   58.2507 H   0  0  0  0  0  0  0  0  0  0  0  0
  126.2502  123.0881   59.2696 H   0  0  0  0  0  0  0  0  0  0  0  0
  126.6133  124.3588   58.0530 H   0  0  0  0  0  0  0  0  0  0  0  0
  127.5449  122.8229   58.0530 H   0  0  0  0  0  0  0  0  0  0  0  0
  125.5976  125.6117   60.5747 H   0  0  0  0  0  0  0  0  0  0  0  0
  131.6309  130.5401   58.5918 H   0  0  0  0  0  0  0  0  0  0  0  0
  131.7364  131.9555   60.6389 H   0  0  0  0  0  0  0  0  0  0  0  0
  130.2772  131.4347   62.5904 H   0  0  0  0  0  0  0  0  0  0  0  0
  131.3798  123.8877   61.7589 H   0  0  0  0  0  0  0  0  0  0  0  0
  130.2767  124.9542   60.8604 H   0  0  0  0  0  0  0  0  0  0  0  0
  130.7315  125.8728   63.1545 H   0  0  0  0  0  0  0  0  0  0  0  0
  128.9920  125.3927   62.9864 H   0  0  0  0  0  0  0  0  0  0  0  0
  128.9014  125.3276   65.5634 H   0  0  0  0  0  0  0  0  0  0  0  0
  129.8522  124.0450   66.4232 H   0  0  0  0  0  0  0  0  0  0  0  0
  130.7063  127.0482   71.7863 H   0  0  0  0  0  0  0  0  0  0  0  0
  1  2  1  0
  2  3  1  0
  3  4  2  0
  4  5  1  0
  5  6  2  0
  6  7  1  0
  7  8  1  0
  8  9  1  0
  8 10  1  0
 10 11  2  0
 11 12  1  0
 12 13  2  0
 13 14  1  0
 13 15  1  0
 15 16  1  0
 16 17  2  0
 17 18  1  0
 18 19  1  0
 19 20  1  0
 20 21  1  0
 21 22  1  0
 22 23  1  0
 23 24  1  0
 24 25  1  0
 25 26  1  0
 26 27  1  0
 27 28  2  0
 27 29  1  0
 29 30  1  0
 29 31  1  0
 29 32  1  0
 32 33  2  0
 33 34  1  0
 34 35  1  0
 35 36  1  0
 36 37  2  0
 37 38  1  0
 37 39  1  0
 39 40  2  0
 40 41  1  0
 41 42  2  0
 42 43  1  0
 35 44  2  0
 26 45  1  0
 45 46  1  0
 23 47  1  0
 18 48  1  0
 48 49  2  0
 15 50  2  0
  7 51  2  0
 51  3  1  0
 50 10  1  0
 49 16  1  0
 47 19  1  0
 46 23  1  0
 44 32  1  0
 42 36  1  0
  1 52  1  0
  1 53  1  0
  1 54  1  0
  5 55  1  0
  6 56  1  0
  9 57  1  0
  9 58  1  0
  9 59  1  0
 11 60  1  0
 12 61  1  0
 14 62  1  0
 14 63  1  0
 14 64  1  0
 17 65  1  0
 19 66  1  6
 20 67  1  0
 20 68  1  0
 21 69  1  0
 21 70  1  0
 24 71  1  0
 24 72  1  0
 25 73  1  0
 25 74  1  0
 30 75  1  0
 30 76  1  0
 30 77  1  0
 31 78  1  0
 31 79  1  0
 31 80  1  0
 33 81  1  0
 39 82  1  0
 40 83  1  0
 41 84  1  0
 45 85  1  0
 45 86  1  0
 46 87  1  0
 46 88  1  0
 47 89  1  0
 47 90  1  0
 50 91  1  0
M  END
>  <Binding energies>  (1) 
[-8.98]

>  <Ligand effiencies>  (1) 
[-0.17607843137254903]

>  <Interactions>  (1) 
["V-B:PRO:540:CA:9855, V-B:HIS:456:CD2:9039, V-B:GLU:543:C:9874, V-B:GLU:543:CB:9878, V-B:ALA:541:CB:9864, V-B:ASP:366:CG:8184, V-B:TYR:539:CE2:9848, V-A:VAL:457:CA:4075, V-B:GLU:543:CG:9879, V-A:HIS:456:CD2:4068, V-A:VAL:457:C:4073, V-B:TYR:539:CZ:9849, V-A:LYS:547:CG:4948, V-A:LYS:547:CB:4947, V-A:HIS:456:CB:4065, V-B:LYS:547:CE:9922, H-B:ALA:541:N:9863, V-A:GLU:543:CD:4908, V-A:TYR:484:CZ:4347, V-B:PRO:540:CB:9857, V-B:GLU:543:CA:9876, V-B:HIS:456:CE1:9041, V-A:HIS:456:CE1:4070, V-B:GLY:544:C:9884, V-B:GLY:544:CA:9886, V-B:GLU:543:CD:9880, V-B:HIS:456:CG:9037, H-A:LYS:547:NZ:4951, V-A:LEU:475:CD2:4259, V-A:ARG:545:CZ:4926, V-A:ARG:545:C:4917, V-A:HIS:456:CG:4066, V-A:ILE:546:C:4934, V-A:VAL:458:CG2:4087, H-A:HIS:456:ND1:4067, H-A:TYR:484:OH:4348"]

$$$$
ZINC2325847771
     RDKit          3D

 86 93  0  0  0  0  0  0  0  0999 V2000
  133.0590  131.4580   62.1340 C   0  0  0  0  0  0  0  0  0  0  0  0
  131.7970  132.0740   62.3860 O   0  0  0  0  0  0  0  0  0  0  0  0
  130.8820  132.1880   61.3550 C   0  0  0  0  0  0  0  0  0  0  0  0
  129.8200  132.9830   61.6320 N   0  0  0  0  0  0  0  0  0  0  0  0
  128.9070  133.1250   60.6390 C   0  0  0  0  0  0  0  0  0  0  0  0
  129.0340  132.4880   59.4020 C   0  0  0  0  0  0  0  0  0  0  0  0
  130.1540  131.6630   59.1920 C   0  0  0  0  0  0  0  0  0  0  0  0
  130.3550  130.9900   57.9510 N   0  0  0  0  0  0  0  0  0  0  0  0
  130.7940  131.8050   56.8040 C   0  0  0  0  0  0  0  0  0  0  0  0
  130.1280  129.6210   57.6560 C   0  0  0  0  0  0  0  0  0  0  0  0
  129.1050  129.2210   56.7860 C   0  0  0  0  0  0  0  0  0  0  0  0
  128.8980  127.8730   56.5000 C   0  0  0  0  0  0  0  0  0  0  0  0
  129.7090  126.8900   57.0740 C   0  0  0  0  0  0  0  0  0  0  0  0
  129.4600  125.4360   56.6920 C   0  0  0  0  0  0  0  0  0  0  0  0
  130.7460  127.2680   57.9480 C   0  0  0  0  0  0  0  0  0  0  0  0
  131.6710  126.3080   58.6300 C   0  0  0  0  0  0  0  0  0  0  0  0
  131.7930  126.0530   59.9910 C   0  0  0  0  0  0  0  0  0  0  0  0
  132.7520  125.0750   60.0940 N   0  0  0  0  0  0  0  0  0  0  0  0
  133.3360  124.4400   61.2850 C   0  0  2  0  0  0  0  0  0  0  0  0
  134.3060  123.2560   61.0250 C   0  0  0  0  0  0  0  0  0  0  0  0
  133.6950  122.1210   61.8780 C   0  0  2  0  0  0  0  0  0  0  0  0
  132.3860  121.6190   61.2380 C   0  0  0  0  0  0  0  0  0  0  0  0
  131.4000  122.7680   61.5370 C   0  0  0  0  0  0  0  0  0  0  0  0
  132.2880  123.8160   62.2590 C   0  0  2  0  0  0  0  0  0  0  0  0
  131.4750  124.7800   63.0150 N   0  0  0  0  0  0  0  0  0  0  0  0
  130.6190  124.5210   64.0240 C   0  0  0  0  0  0  0  0  0  0  0  0
  130.3930  123.3830   64.4410 O   0  0  0  0  0  0  0  0  0  0  0  0
  129.9050  125.7150   64.6200 C   0  0  0  0  0  0  0  0  0  0  0  0
  129.3830  126.7050   63.7750 C   0  0  0  0  0  0  0  0  0  0  0  0
  128.7110  127.8080   64.2980 C   0  0  0  0  0  0  0  0  0  0  0  0
  128.5540  127.9420   65.6750 C   0  0  0  0  0  0  0  0  0  0  0  0
  129.0710  126.9770   66.5430 C   0  0  0  0  0  0  0  0  0  0  0  0
  128.8530  127.2000   67.9160 N   0  0  0  0  0  0  0  0  0  0  0  0
  129.7470  127.4190   68.9070 C   0  0  0  0  0  0  0  0  0  0  0  0
  130.9650  127.5030   68.7390 O   0  0  0  0  0  0  0  0  0  0  0  0
  129.1550  127.6180   70.2880 C   0  0  0  0  0  0  0  0  0  0  0  0
  127.9660  126.9530   70.6330 C   0  0  0  0  0  0  0  0  0  0  0  0
  127.3590  127.0790   71.8840 C   0  0  0  0  0  0  0  0  0  0  0  0
  127.9940  127.9140   72.8030 C   0  0  0  0  0  0  0  0  0  0  0  0
  127.7190  128.2850   74.0990 N   0  0  0  0  0  0  0  0  0  0  0  0
  128.7180  129.1440   74.4880 C   0  0  0  0  0  0  0  0  0  0  0  0
  129.6150  129.3640   73.5600 N   0  0  0  0  0  0  0  0  0  0  0  0
  129.1910  128.6080   72.4970 C   0  0  0  0  0  0  0  0  0  0  0  0
  129.7740  128.4610   71.2300 C   0  0  0  0  0  0  0  0  0  0  0  0
  129.7330  125.8580   66.0090 C   0  0  0  0  0  0  0  0  0  0  0  0
  133.1750  122.8840   63.0960 C   0  0  0  0  0  0  0  0  0  0  0  0
  133.2160  124.7570   58.8810 N   0  0  0  0  0  0  0  0  0  0  0  0
  132.5150  125.5270   57.9720 N   0  0  0  0  0  0  0  0  0  0  0  0
  130.9440  128.6300   58.2150 C   0  0  0  0  0  0  0  0  0  0  0  0
  131.0910  131.5280   60.1800 N   0  0  0  0  0  0  0  0  0  0  0  0
  133.5479  131.2193   63.0900 H   0  0  0  0  0  0  0  0  0  0  0  0
  132.9071  130.5327   61.5588 H   0  0  0  0  0  0  0  0  0  0  0  0
  133.6950  132.1470   61.5588 H   0  0  0  0  0  0  0  0  0  0  0  0
  128.0315  133.7674   60.8146 H   0  0  0  0  0  0  0  0  0  0  0  0
  128.2792  132.6277   58.6141 H   0  0  0  0  0  0  0  0  0  0  0  0
  131.2859  132.7183   57.1700 H   0  0  0  0  0  0  0  0  0  0  0  0
  131.5026  131.2266   56.1930 H   0  0  0  0  0  0  0  0  0  0  0  0
  129.9211  132.0784   56.1930 H   0  0  0  0  0  0  0  0  0  0  0  0
  128.4575  129.9803   56.3232 H   0  0  0  0  0  0  0  0  0  0  0  0
  128.0883  127.5796   55.8157 H   0  0  0  0  0  0  0  0  0  0  0  0
  129.3562  124.8299   57.6041 H   0  0  0  0  0  0  0  0  0  0  0  0
  128.5368  125.3659   56.0981 H   0  0  0  0  0  0  0  0  0  0  0  0
  130.3073  125.0627   56.0981 H   0  0  0  0  0  0  0  0  0  0  0  0
  131.2391  126.5326   60.8114 H   0  0  0  0  0  0  0  0  0  0  0  0
  133.8637  125.3089   61.7052 H   0  0  0  0  0  0  0  0  0  0  0  0
  134.3241  122.9851   59.9590 H   0  0  0  0  0  0  0  0  0  0  0  0
  135.3505  123.4829   61.2849 H   0  0  0  0  0  0  0  0  0  0  0  0
  134.4122  121.3013   62.0317 H   0  0  0  0  0  0  0  0  0  0  0  0
  132.5055  121.4707   60.1546 H   0  0  0  0  0  0  0  0  0  0  0  0
  132.0540  120.6459   61.6290 H   0  0  0  0  0  0  0  0  0  0  0  0
  130.9801  123.1797   60.6074 H   0  0  0  0  0  0  0  0  0  0  0  0
  130.5341  122.4494   62.1359 H   0  0  0  0  0  0  0  0  0  0  0  0
  131.6010  125.7450   62.7520 H   0  0  0  0  0  0  0  0  0  0  0  0
  129.5055  126.6097   62.6860 H   0  0  0  0  0  0  0  0  0  0  0  0
  128.3038  128.5742   63.6218 H   0  0  0  0  0  0  0  0  0  0  0  0
  128.0196  128.8131   66.0820 H   0  0  0  0  0  0  0  0  0  0  0  0
  127.8790  127.2340   68.1820 H   0  0  0  0  0  0  0  0  0  0  0  0
  127.4917  126.3032   69.8828 H   0  0  0  0  0  0  0  0  0  0  0  0
  126.4284  126.5474   72.1318 H   0  0  0  0  0  0  0  0  0  0  0  0
  126.9500  128.0110   74.6940 H   0  0  0  0  0  0  0  0  0  0  0  0
  128.7604  129.6042   75.4862 H   0  0  0  0  0  0  0  0  0  0  0  0
  130.7009  128.9963   70.9763 H   0  0  0  0  0  0  0  0  0  0  0  0
  130.1219  125.0835   66.6864 H   0  0  0  0  0  0  0  0  0  0  0  0
  133.9659  123.4153   63.6457 H   0  0  0  0  0  0  0  0  0  0  0  0
  132.7090  122.3118   63.9117 H   0  0  0  0  0  0  0  0  0  0  0  0
  131.7648  128.9290   58.8835 H   0  0  0  0  0  0  0  0  0  0  0  0
  1  2  1  0
  2  3  1  0
  3  4  2  0
  4  5  1  0
  5  6  2  0
  6  7  1  0
  7  8  1  0
  8  9  1  0
  8 10  1  0
 10 11  2  0
 11 12  1  0
 12 13  2  0
 13 14  1  0
 13 15  1  0
 15 16  1  0
 16 17  2  0
 17 18  1  0
 18 19  1  0
 19 20  1  0
 20 21  1  0
 21 22  1  0
 22 23  1  0
 23 24  1  0
 24 25  1  1
 25 26  1  0
 26 27  2  0
 26 28  1  0
 28 29  2  0
 29 30  1  0
 30 31  2  0
 31 32  1  0
 32 33  1  0
 33 34  1  0
 34 35  2  0
 34 36  1  0
 36 37  2  0
 37 38  1  0
 38 39  2  0
 39 40  1  0
 40 41  1  0
 41 42  2  0
 42 43  1  0
 43 44  2  0
 32 45  2  0
 24 46  1  0
 18 47  1  0
 47 48  2  0
 15 49  2  0
  7 50  2  0
 50  3  1  0
 49 10  1  0
 48 16  1  0
 24 19  1  0
 45 28  1  0
 46 21  1  0
 44 36  1  0
 43 39  1  0
  1 51  1  0
  1 52  1  0
  1 53  1  0
  5 54  1  0
  6 55  1  0
  9 56  1  0
  9 57  1  0
  9 58  1  0
 11 59  1  0
 12 60  1  0
 14 61  1  0
 14 62  1  0
 14 63  1  0
 17 64  1  0
 19 65  1  1
 20 66  1  0
 20 67  1  0
 21 68  1  1
 22 69  1  0
 22 70  1  0
 23 71  1  0
 23 72  1  0
 25 73  1  0
 29 74  1  0
 30 75  1  0
 31 76  1  0
 33 77  1  0
 37 78  1  0
 38 79  1  0
 40 80  1  0
 41 81  1  0
 44 82  1  0
 45 83  1  0
 46 84  1  0
 46 85  1  0
 49 86  1  0
M  END
>  <Binding energies>  (1) 
[-11.9]

>  <Ligand effiencies>  (1) 
[-0.22452830188679246]

>  <Interactions>  (1) 
["V-A:ILE:369:CG2:3237, V-A:GLY:454:CA:4049, V-B:GLU:543:C:9874, V-A:ILE:369:CB:3236, V-A:GLU:543:C:4902, H-A:ALA:541:N:4891, V-B:HIS:456:CD2:9039, V-A:PRO:540:C:4881, V-B:GLU:543:CB:9878, H-A:TYR:531:OH:4795, V-B:TYR:539:CE2:9848, V-B:GLU:543:CG:9879, V-A:ASP:366:CG:3213, V-A:ASN:362:CB:3176, V-B:TYR:539:CZ:9849, H-B:TYR:539:OH:9850, V-A:GLU:543:CD:4908, V-B:HIS:456:CE1:9041, V-A:ILE:369:CD1:3239, V-A:HIS:456:CE1:4070, V-B:GLY:544:C:9884, V-B:GLY:544:CA:9886, V-A:GLU:543:CG:4907, V-A:MET:535:CE:4835, V-B:GLU:543:CD:9880, V-B:HIS:456:CG:9037, V-A:ILE:369:CG1:3238, V-A:ASP:366:CB:3212, V-A:TYR:539:C:4867, H-A:LYS:547:NZ:4951, V-A:LEU:475:CD2:4259, V-A:GLU:543:CB:4906, V-A:PRO:540:N:4884, H-B:GLU:543:OE2:9882, V-A:PRO:540:CA:4883, V-A:PRO:540:CB:4885, H-A:TYR:484:OH:4348"]

$$$$
ZINC2325874268
     RDKit          3D

 57 59  0  0  0  0  0  0  0  0999 V2000
  130.6300  128.0770   70.2740 C   0  0  0  0  0  0  0  0  0  0  0  0
  129.4680  127.0720   70.2340 C   0  0  0  0  0  0  0  0  0  0  0  0
  128.8020  126.9070   68.8460 C   0  0  1  0  0  0  0  0  0  0  0  0
  128.7910  128.2220   68.0370 C   0  0  0  0  0  0  0  0  0  0  0  0
  129.4650  125.7610   68.0530 C   0  0  0  0  0  0  0  0  0  0  0  0
  130.5400  126.2770   67.2680 O   0  0  0  0  0  0  0  0  0  0  0  0
  130.7350  125.8170   65.9780 C   0  0  0  0  0  0  0  0  0  0  0  0
  131.8240  125.0220   65.5880 C   0  0  0  0  0  0  0  0  0  0  0  0
  131.9820  124.5680   64.2690 C   0  0  0  0  0  0  0  0  0  0  0  0
  133.1490  123.7030   63.9490 N   0  0  0  0  0  0  0  0  0  0  0  0
  133.0910  122.4980   64.1700 O   0  0  0  0  0  0  0  0  0  0  0  0
  134.1580  124.2360   63.4950 O   0  0  0  0  0  0  0  0  0  0  0  0
  131.0160  124.9520   63.3130 C   0  0  0  0  0  0  0  0  0  0  0  0
  131.0960  124.5660   61.8410 C   0  0  0  0  0  0  0  0  0  0  0  0
  131.5630  123.2280   61.7430 O   0  0  0  0  0  0  0  0  0  0  0  0
  130.7140  122.2010   61.5400 C   0  0  0  0  0  0  0  0  0  0  0  0
  131.0580  121.0580   61.2310 O   0  0  0  0  0  0  0  0  0  0  0  0
  129.3150  122.6110   61.7270 C   0  0  0  0  0  0  0  0  0  0  0  0
  128.6700  122.7560   62.9560 C   0  0  0  0  0  0  0  0  0  0  0  0
  129.1380  122.5620   64.3840 C   0  0  0  0  0  0  0  0  0  0  0  0
  127.3720  123.1360   62.7250 N   0  0  0  0  0  0  0  0  0  0  0  0
  127.1220  123.2630   61.3790 C   0  0  0  0  0  0  0  0  0  0  0  0
  125.9520  123.6270   60.7030 C   0  0  0  0  0  0  0  0  0  0  0  0
  126.0100  123.6670   59.3110 C   0  0  0  0  0  0  0  0  0  0  0  0
  127.1770  123.3590   58.6180 C   0  0  0  0  0  0  0  0  0  0  0  0
  127.1880  123.4270   56.8930 Cl  0  0  0  0  0  0  0  0  0  0  0  0
  128.3400  122.9960   59.2950 C   0  0  0  0  0  0  0  0  0  0  0  0
  128.3370  122.9390   60.7040 C   0  0  0  0  0  0  0  0  0  0  0  0
  129.9300  125.7400   63.7020 C   0  0  0  0  0  0  0  0  0  0  0  0
  129.7750  126.1750   65.0260 C   0  0  0  0  0  0  0  0  0  0  0  0
  128.7140  126.9520   65.4610 O   0  0  0  0  0  0  0  0  0  0  0  0
  128.3570  128.1220   64.7350 C   0  0  0  0  0  0  0  0  0  0  0  0
  130.8868  128.2991   71.3203 H   0  0  0  0  0  0  0  0  0  0  0  0
  131.5050  127.6463   69.7652 H   0  0  0  0  0  0  0  0  0  0  0  0
  130.3299  129.0049   69.7652 H   0  0  0  0  0  0  0  0  0  0  0  0
  129.8530  126.0906   70.5480 H   0  0  0  0  0  0  0  0  0  0  0  0
  128.6919  127.4679   70.9056 H   0  0  0  0  0  0  0  0  0  0  0  0
  127.7491  126.6406   69.0206 H   0  0  0  0  0  0  0  0  0  0  0  0
  128.7838  129.0777   68.7282 H   0  0  0  0  0  0  0  0  0  0  0  0
  129.6888  128.2701   67.4032 H   0  0  0  0  0  0  0  0  0  0  0  0
  127.8925  128.2551   67.4032 H   0  0  0  0  0  0  0  0  0  0  0  0
  129.8534  125.0080   68.7546 H   0  0  0  0  0  0  0  0  0  0  0  0
  128.7193  125.2986   67.3896 H   0  0  0  0  0  0  0  0  0  0  0  0
  132.5778  124.7458   66.3400 H   0  0  0  0  0  0  0  0  0  0  0  0
  130.0986  124.6438   61.3837 H   0  0  0  0  0  0  0  0  0  0  0  0
  131.7858  125.2420   61.3145 H   0  0  0  0  0  0  0  0  0  0  0  0
  128.3483  122.8893   65.0763 H   0  0  0  0  0  0  0  0  0  0  0  0
  129.3588  121.4982   64.5562 H   0  0  0  0  0  0  0  0  0  0  0  0
  130.0466  123.1576   64.5562 H   0  0  0  0  0  0  0  0  0  0  0  0
  126.7210  123.2950   63.4800 H   0  0  0  0  0  0  0  0  0  0  0  0
  125.0272  123.8708   61.2464 H   0  0  0  0  0  0  0  0  0  0  0  0
  125.1099  123.9494   58.7453 H   0  0  0  0  0  0  0  0  0  0  0  0
  129.2548  122.7554   58.7335 H   0  0  0  0  0  0  0  0  0  0  0  0
  129.1784  126.0261   62.9516 H   0  0  0  0  0  0  0  0  0  0  0  0
  128.1105  128.9299   65.4397 H   0  0  0  0  0  0  0  0  0  0  0  0
  129.2013  128.4326   64.1019 H   0  0  0  0  0  0  0  0  0  0  0  0
  127.4832  127.9083   64.1019 H   0  0  0  0  0  0  0  0  0  0  0  0
  1  2  1  0
  2  3  1  0
  3  4  1  0
  3  5  1  0
  5  6  1  0
  6  7  1  0
  7  8  2  0
  8  9  1  0
  9 10  1  0
 10 11  2  0
 10 12  1  0
  9 13  2  0
 13 14  1  0
 14 15  1  0
 15 16  1  0
 16 17  2  0
 16 18  1  0
 18 19  2  0
 19 20  1  0
 19 21  1  0
 21 22  1  0
 22 23  2  0
 23 24  1  0
 24 25  2  0
 25 26  1  0
 25 27  1  0
 27 28  2  0
 13 29  1  0
 29 30  2  0
 30 31  1  0
 31 32  1  0
 30  7  1  0
 28 18  1  0
 28 22  1  0
  1 33  1  0
  1 34  1  0
  1 35  1  0
  2 36  1  0
  2 37  1  0
  3 38  1  1
  4 39  1  0
  4 40  1  0
  4 41  1  0
  5 42  1  0
  5 43  1  0
  8 44  1  0
 14 45  1  0
 14 46  1  0
 20 47  1  0
 20 48  1  0
 20 49  1  0
 21 50  1  0
 23 51  1  0
 24 52  1  0
 27 53  1  0
 29 54  1  0
 32 55  1  0
 32 56  1  0
 32 57  1  0
M  CHG  2  10   1  12  -1
M  END
>  <Binding energies>  (1) 
[-7.27]

>  <Ligand effiencies>  (1) 
[-0.22030303030303028]

>  <Interactions>  (1) 
["V-B:PRO:540:CA:9855, V-A:GLY:454:CA:4049, V-B:GLU:543:C:9874, V-A:GLU:543:C:4902, V-B:GLU:543:CB:9878, V-B:ALA:541:CB:9864, V-B:TYR:539:CE2:9848, H-B:ALA:541:O:9861, V-B:GLU:543:CG:9879, V-A:GLY:544:C:4912, H-B:GLU:543:OE1:9881, V-A:GLU:543:CD:4908, V-A:TYR:484:CZ:4347, V-B:PRO:540:CB:9857, V-B:HIS:456:CE1:9041, V-B:GLU:543:CA:9876, H-A:GLY:454:N:4050, V-B:PRO:540:N:9856, V-A:HIS:456:CE1:4070, V-B:TYR:539:CD2:9846, V-B:GLU:543:CD:9880, V-A:LEU:475:CD2:4259, V-A:GLU:543:CB:4906, V-B:PRO:540:C:9853, V-B:ALA:541:CA:9862, H-A:TYR:484:OH:4348"]

$$$$
ZINC2326489362
     RDKit          3D

 63 65  0  0  0  0  0  0  0  0999 V2000
  133.6030  131.8410   61.6400 C   0  0  0  0  0  0  0  0  0  0  0  0
  132.5820  131.8090   62.5100 C   0  0  0  0  0  0  0  0  0  0  0  0
  131.1310  131.5870   62.1350 C   0  0  0  0  0  0  0  0  0  0  0  0
  130.2930  132.1890   63.1160 O   0  0  0  0  0  0  0  0  0  0  0  0
  128.9560  132.4110   62.8390 C   0  0  0  0  0  0  0  0  0  0  0  0
  128.4960  133.2530   61.8110 C   0  0  0  0  0  0  0  0  0  0  0  0
  127.1300  133.4480   61.6130 C   0  0  0  0  0  0  0  0  0  0  0  0
  126.2080  132.8020   62.4320 C   0  0  0  0  0  0  0  0  0  0  0  0
  126.6510  131.9600   63.4490 C   0  0  0  0  0  0  0  0  0  0  0  0
  128.0250  131.7580   63.6600 C   0  0  0  0  0  0  0  0  0  0  0  0
  128.5300  130.9240   64.6360 O   0  0  0  0  0  0  0  0  0  0  0  0
  128.2780  129.5240   64.5790 C   0  0  0  0  0  0  0  0  0  0  0  0
  128.3220  129.0000   66.0000 C   0  0  0  0  0  0  0  0  0  0  0  0
  127.8380  129.6280   67.0380 N   0  0  0  0  0  0  0  0  0  0  0  0
  128.0050  128.7860   68.1270 N   0  0  0  0  0  0  0  0  0  0  0  0
  128.5740  127.6840   67.7030 C   0  0  0  0  0  0  0  0  0  0  0  0
  128.8110  126.2970   68.7720 S   0  0  0  0  0  0  0  0  0  0  0  0
  128.0030  126.9950   70.2500 C   0  0  0  0  0  0  0  0  0  0  0  0
  128.7690  126.9050   71.5830 C   0  0  0  0  0  0  0  0  0  0  0  0
  128.3340  125.7980   72.3460 O   0  0  0  0  0  0  0  0  0  0  0  0
  128.8620  127.7750   66.3420 N   0  0  0  0  0  0  0  0  0  0  0  0
  129.4170  126.8960   65.4210 N   0  0  0  0  0  0  0  0  0  0  0  0
  130.0820  125.8800   65.8040 C   0  0  0  0  0  0  0  0  0  0  0  0
  130.6470  124.8910   64.8780 C   0  0  0  0  0  0  0  0  0  0  0  0
  132.0240  124.8910   64.6310 C   0  0  0  0  0  0  0  0  0  0  0  0
  132.6120  123.9610   63.7590 C   0  0  0  0  0  0  0  0  0  0  0  0
  133.9660  123.9100   63.4810 O   0  0  0  0  0  0  0  0  0  0  0  0
  134.4400  124.3690   62.2200 C   0  0  0  0  0  0  0  0  0  0  0  0
  131.7940  123.0180   63.1250 C   0  0  0  0  0  0  0  0  0  0  0  0
  132.3540  122.1080   62.2600 O   0  0  0  0  0  0  0  0  0  0  0  0
  132.0610  122.3560   60.8910 C   0  0  0  0  0  0  0  0  0  0  0  0
  130.4100  123.0030   63.3390 C   0  0  0  0  0  0  0  0  0  0  0  0
  129.6740  122.0540   62.6530 O   0  0  0  0  0  0  0  0  0  0  0  0
  128.4980  122.4500   61.9570 C   0  0  0  0  0  0  0  0  0  0  0  0
  129.8520  123.9380   64.2250 C   0  0  0  0  0  0  0  0  0  0  0  0
  134.6284  132.0084   62.0013 H   0  0  0  0  0  0  0  0  0  0  0  0
  133.4146  131.6998   60.5655 H   0  0  0  0  0  0  0  0  0  0  0  0
  132.8159  131.9548   63.5749 H   0  0  0  0  0  0  0  0  0  0  0  0
  130.9318  132.0412   61.1531 H   0  0  0  0  0  0  0  0  0  0  0  0
  130.9244  130.5077   62.0867 H   0  0  0  0  0  0  0  0  0  0  0  0
  129.2200  133.7620   61.1577 H   0  0  0  0  0  0  0  0  0  0  0  0
  126.7804  134.1126   60.8092 H   0  0  0  0  0  0  0  0  0  0  0  0
  125.1302  132.9566   62.2759 H   0  0  0  0  0  0  0  0  0  0  0  0
  125.9192  131.4491   64.0921 H   0  0  0  0  0  0  0  0  0  0  0  0
  127.2870  129.3375   64.1395 H   0  0  0  0  0  0  0  0  0  0  0  0
  129.0288  129.0183   63.9541 H   0  0  0  0  0  0  0  0  0  0  0  0
  127.8117  128.0596   70.0502 H   0  0  0  0  0  0  0  0  0  0  0  0
  127.1046  126.3779   70.3985 H   0  0  0  0  0  0  0  0  0  0  0  0
  129.8434  126.7969   71.3734 H   0  0  0  0  0  0  0  0  0  0  0  0
  128.5778  127.8228   72.1585 H   0  0  0  0  0  0  0  0  0  0  0  0
  128.2260  125.0470   71.7600 H   0  0  0  0  0  0  0  0  0  0  0  0
  130.2411  125.7361   66.8829 H   0  0  0  0  0  0  0  0  0  0  0  0
  132.6601  125.6362   65.1311 H   0  0  0  0  0  0  0  0  0  0  0  0
  135.2222  125.1265   62.3759 H   0  0  0  0  0  0  0  0  0  0  0  0
  134.8569  123.5224   61.6547 H   0  0  0  0  0  0  0  0  0  0  0  0
  133.6073  124.8129   61.6547 H   0  0  0  0  0  0  0  0  0  0  0  0
  131.2232  123.0651   60.8180 H   0  0  0  0  0  0  0  0  0  0  0  0
  132.9468  122.7829   60.3979 H   0  0  0  0  0  0  0  0  0  0  0  0
  131.7863  121.4118   60.3979 H   0  0  0  0  0  0  0  0  0  0  0  0
  127.7141  122.7140   62.6822 H   0  0  0  0  0  0  0  0  0  0  0  0
  128.7220  123.3223   61.3254 H   0  0  0  0  0  0  0  0  0  0  0  0
  128.1487  121.6199   61.3254 H   0  0  0  0  0  0  0  0  0  0  0  0
  128.7680  123.9228   64.4110 H   0  0  0  0  0  0  0  0  0  0  0  0
  1  2  2  0
  2  3  1  0
  3  4  1  0
  4  5  1  0
  5  6  2  0
  6  7  1  0
  7  8  2  0
  8  9  1  0
  9 10  2  0
 10 11  1  0
 11 12  1  0
 12 13  1  0
 13 14  2  0
 14 15  1  0
 15 16  2  0
 16 17  1  0
 17 18  1  0
 18 19  1  0
 19 20  1  0
 16 21  1  0
 21 22  1  0
 22 23  2  0
 23 24  1  0
 24 25  2  0
 25 26  1  0
 26 27  1  0
 27 28  1  0
 26 29  2  0
 29 30  1  0
 30 31  1  0
 29 32  1  0
 32 33  1  0
 33 34  1  0
 32 35  2  0
 10  5  1  0
 21 13  1  0
 35 24  1  0
  1 36  1  0
  1 37  1  0
  2 38  1  0
  3 39  1  0
  3 40  1  0
  6 41  1  0
  7 42  1  0
  8 43  1  0
  9 44  1  0
 12 45  1  0
 12 46  1  0
 18 47  1  0
 18 48  1  0
 19 49  1  0
 19 50  1  0
 20 51  1  0
 23 52  1  0
 25 53  1  0
 28 54  1  0
 28 55  1  0
 28 56  1  0
 31 57  1  0
 31 58  1  0
 31 59  1  0
 34 60  1  0
 34 61  1  0
 34 62  1  0
 35 63  1  0
M  END
>  <Binding energies>  (1) 
[-7.1]

>  <Ligand effiencies>  (1) 
[-0.19722222222222222]

>  <Interactions>  (1) 
["V-B:PRO:540:CA:9855, V-A:ALA:541:C:4888, V-B:GLU:543:C:9874, H-B:GLU:543:O:9875, H-A:ALA:541:N:4891, V-B:GLU:543:CB:9878, H-B:LYS:547:NZ:9923, V-B:ALA:541:CB:9864, V-B:TYR:539:CE2:9848, V-B:LEU:475:CD2:9230, V-B:GLU:543:CG:9879, V-A:ASN:362:CB:3176, V-A:ALA:541:CB:4892, V-A:GLU:543:CD:4908, H-B:TYR:484:OH:9319, V-B:HIS:456:CE1:9041, H-A:GLY:454:N:4050, V-A:ILE:369:CD1:3239, V-B:TYR:539:CD2:9846, V-A:GLU:543:CG:4907, V-B:GLU:543:CD:9880, V-A:LEU:475:CD2:4259, V-A:ASN:362:C:3172, V-A:GLU:543:CB:4906, V-A:PRO:540:CB:4885, V-A:PRO:540:CA:4883, V-A:GLY:453:CA:4044, H-A:HIS:456:NE2:4071"]

$$$$
ZINC232790712-again1
     RDKit          3D

 38 39  0  0  0  0  0  0  0  0999 V2000
  130.5150  132.9640   57.5150 C   0  0  0  0  0  0  0  0  0  0  0  0
  131.7410  132.5050   57.2140 C   0  0  0  0  0  0  0  0  0  0  0  0
  132.4800  131.4440   58.0060 C   0  0  0  0  0  0  0  0  0  0  0  0
  131.9260  130.1360   57.6330 N   0  0  0  0  0  0  0  0  0  0  0  0
  131.6620  129.1400   58.5250 C   0  0  0  0  0  0  0  0  0  0  0  0
  131.7510  127.7840   58.2810 N   0  0  0  0  0  0  0  0  0  0  0  0
  131.3710  127.0580   59.3950 C   0  0  0  0  0  0  0  0  0  0  0  0
  131.3830  125.5470   59.4110 C   0  0  0  0  0  0  0  0  0  0  0  0
  131.0220  128.0040   60.3540 C   0  0  0  0  0  0  0  0  0  0  0  0
  131.1880  129.2770   59.8230 N   0  0  0  0  0  0  0  0  0  0  0  0
  130.9250  130.4420   60.5020 C   0  0  0  0  0  0  0  0  0  0  0  0
  131.8000  131.1410   61.3370 C   0  0  0  0  0  0  0  0  0  0  0  0
  131.2330  132.2160   61.8370 N   0  0  0  0  0  0  0  0  0  0  0  0
  129.9840  132.2280   61.3260 N   0  0  0  0  0  0  0  0  0  0  0  0
  129.0460  133.2980   61.6810 C   0  0  0  0  0  0  0  0  0  0  0  0
  128.3420  132.9840   63.0170 C   0  0  0  0  0  0  0  0  0  0  0  0
  128.0440  133.5360   60.5340 C   0  0  0  0  0  0  0  0  0  0  0  0
  129.7440  131.1570   60.4990 C   0  0  0  0  0  0  0  0  0  0  0  0
  130.0477  133.7371   56.8873 H   0  0  0  0  0  0  0  0  0  0  0  0
  129.9783  132.5668   58.3892 H   0  0  0  0  0  0  0  0  0  0  0  0
  132.2437  132.9282   56.3318 H   0  0  0  0  0  0  0  0  0  0  0  0
  133.5530  131.4778   57.7660 H   0  0  0  0  0  0  0  0  0  0  0  0
  132.3597  131.6178   59.0855 H   0  0  0  0  0  0  0  0  0  0  0  0
  131.7830  129.9650   56.6490 H   0  0  0  0  0  0  0  0  0  0  0  0
  132.0550  127.3780   57.4060 H   0  0  0  0  0  0  0  0  0  0  0  0
  131.3858  125.1913   60.4519 H   0  0  0  0  0  0  0  0  0  0  0  0
  130.4878  125.1677   58.8964 H   0  0  0  0  0  0  0  0  0  0  0  0
  132.2841  125.1820   58.8964 H   0  0  0  0  0  0  0  0  0  0  0  0
  130.6702  127.7793   61.3717 H   0  0  0  0  0  0  0  0  0  0  0  0
  132.8337  130.8306   61.5493 H   0  0  0  0  0  0  0  0  0  0  0  0
  129.6067  134.2333   61.8251 H   0  0  0  0  0  0  0  0  0  0  0  0
  128.9950  133.2753   63.8529 H   0  0  0  0  0  0  0  0  0  0  0  0
  127.3986  133.5467   63.0754 H   0  0  0  0  0  0  0  0  0  0  0  0
  128.1303  131.9061   63.0754 H   0  0  0  0  0  0  0  0  0  0  0  0
  127.0549  133.7709   60.9541 H   0  0  0  0  0  0  0  0  0  0  0  0
  128.3886  134.3773   59.9147 H   0  0  0  0  0  0  0  0  0  0  0  0
  127.9735  132.6296   59.9147 H   0  0  0  0  0  0  0  0  0  0  0  0
  128.8170  130.9217   59.9555 H   0  0  0  0  0  0  0  0  0  0  0  0
  1  2  2  0
  2  3  1  0
  3  4  1  0
  4  5  1  0
  5  6  2  0
  6  7  1  0
  7  8  1  0
  7  9  2  0
  9 10  1  0
 10 11  1  0
 11 12  1  0
 12 13  2  0
 13 14  1  0
 14 15  1  0
 15 16  1  0
 15 17  1  0
 14 18  1  0
 10  5  1  0
 18 11  2  0
  1 19  1  0
  1 20  1  0
  2 21  1  0
  3 22  1  0
  3 23  1  0
  4 24  1  0
  6 25  1  0
  8 26  1  0
  8 27  1  0
  8 28  1  0
  9 29  1  0
 12 30  1  0
 15 31  1  0
 16 32  1  0
 16 33  1  0
 16 34  1  0
 17 35  1  0
 17 36  1  0
 17 37  1  0
 18 38  1  0
M  CHG  1   6   1
M  END
>  <Binding energies>  (1) 
[-5.65]

>  <Ligand effiencies>  (1) 
[-0.28250000000000003]

>  <Interactions>  (1) 
["V-A:LEU:363:CD1:3189, V-A:PRO:540:N:4884, V-A:TYR:539:CD1:4873, V-A:PRO:540:CB:4885, V-A:PRO:540:CA:4883, V-A:TYR:531:CE2:4793, H-A:ALA:541:N:4891, V-A:PRO:540:C:4881, V-A:ALA:541:CB:4892, V-A:TYR:531:CZ:4794, H-A:TYR:531:OH:4795, V-A:TYR:539:C:4867, V-A:ASP:366:CB:3212, V-A:PRO:540:CD:4887, V-B:LEU:475:CD2:9230, V-A:ASP:366:CG:3213"]

$$$$
ZINC2328961682
     RDKit          3D

 49 51  0  0  0  0  0  0  0  0999 V2000
  129.9630  127.7100   69.4600 C   0  0  0  0  0  0  0  0  0  0  0  0
  129.6320  127.0550   68.3380 C   0  0  0  0  0  0  0  0  0  0  0  0
  130.5730  126.1830   67.5310 C   0  0  0  0  0  0  0  0  0  0  0  0
  129.8790  125.6100   65.9510 S   0  0  0  0  0  0  0  0  0  0  0  0
  131.3960  125.0810   65.2200 C   0  0  0  0  0  0  0  0  0  0  0  0
  132.5540  125.3780   65.7560 N   0  0  0  0  0  0  0  0  0  0  0  0
  133.5380  124.7290   65.0270 N   0  0  0  0  0  0  0  0  0  0  0  0
  132.9340  124.0750   64.0690 C   0  0  0  0  0  0  0  0  0  0  0  0
  133.6630  123.1730   63.0810 C   0  0  0  0  0  0  0  0  0  0  0  0
  134.5120  123.9420   62.0430 C   0  0  0  0  0  0  0  0  0  0  0  0
  133.7010  124.5380   60.9010 C   0  0  0  0  0  0  0  0  0  0  0  0
  133.9690  124.1740   59.5800 C   0  0  0  0  0  0  0  0  0  0  0  0
  133.2120  124.7060   58.5390 C   0  0  0  0  0  0  0  0  0  0  0  0
  132.1760  125.6100   58.8020 C   0  0  0  0  0  0  0  0  0  0  0  0
  131.3630  126.1630   57.6390 C   0  0  0  0  0  0  0  0  0  0  0  0
  131.9000  125.9790   60.1300 C   0  0  0  0  0  0  0  0  0  0  0  0
  130.7860  126.9610   60.4680 C   0  0  0  0  0  0  0  0  0  0  0  0
  132.6690  125.4420   61.1680 C   0  0  0  0  0  0  0  0  0  0  0  0
  131.5680  124.2810   64.0910 N   0  0  0  0  0  0  0  0  0  0  0  0
  130.6730  123.6950   63.2070 N   0  0  0  0  0  0  0  0  0  0  0  0
  129.8710  124.4250   62.5420 C   0  0  0  0  0  0  0  0  0  0  0  0
  128.8660  123.8520   61.6550 C   0  0  0  0  0  0  0  0  0  0  0  0
  128.9980  123.2240   60.4190 C   0  0  0  0  0  0  0  0  0  0  0  0
  127.7310  122.8510   59.9560 C   0  0  0  0  0  0  0  0  0  0  0  0
  126.8150  123.2530   60.9120 C   0  0  0  0  0  0  0  0  0  0  0  0
  127.5150  123.8530   61.9260 N   0  0  0  0  0  0  0  0  0  0  0  0
  129.2123  128.3220   69.9814 H   0  0  0  0  0  0  0  0  0  0  0  0
  130.9853  127.6354   69.8591 H   0  0  0  0  0  0  0  0  0  0  0  0
  128.5986  127.1584   67.9755 H   0  0  0  0  0  0  0  0  0  0  0  0
  131.4842  126.7615   67.3189 H   0  0  0  0  0  0  0  0  0  0  0  0
  130.7718  125.2855   68.1352 H   0  0  0  0  0  0  0  0  0  0  0  0
  134.3288  122.5052   63.6473 H   0  0  0  0  0  0  0  0  0  0  0  0
  132.8925  122.6232   62.5205 H   0  0  0  0  0  0  0  0  0  0  0  0
  135.0340  124.7602   62.5607 H   0  0  0  0  0  0  0  0  0  0  0  0
  135.2051  123.2142   61.5959 H   0  0  0  0  0  0  0  0  0  0  0  0
  134.7807  123.4647   59.3607 H   0  0  0  0  0  0  0  0  0  0  0  0
  133.4300  124.4133   57.5013 H   0  0  0  0  0  0  0  0  0  0  0  0
  130.5124  126.7416   58.0286 H   0  0  0  0  0  0  0  0  0  0  0  0
  131.9998  126.8161   57.0242 H   0  0  0  0  0  0  0  0  0  0  0  0
  130.9895  125.3308   57.0242 H   0  0  0  0  0  0  0  0  0  0  0  0
  130.6905  127.0452   61.5606 H   0  0  0  0  0  0  0  0  0  0  0  0
  131.0254  127.9473   60.0438 H   0  0  0  0  0  0  0  0  0  0  0  0
  129.8376  126.5998   60.0438 H   0  0  0  0  0  0  0  0  0  0  0  0
  132.4588  125.7349   62.2073 H   0  0  0  0  0  0  0  0  0  0  0  0
  129.9377  125.5187   62.6390 H   0  0  0  0  0  0  0  0  0  0  0  0
  129.9469  123.0490   59.8908 H   0  0  0  0  0  0  0  0  0  0  0  0
  127.5059  122.3356   59.0106 H   0  0  0  0  0  0  0  0  0  0  0  0
  125.7245  123.1161   60.8665 H   0  0  0  0  0  0  0  0  0  0  0  0
  127.0990  124.2430   62.7590 H   0  0  0  0  0  0  0  0  0  0  0  0
  1  2  2  0
  2  3  1  0
  3  4  1  0
  4  5  1  0
  5  6  2  0
  6  7  1  0
  7  8  2  0
  8  9  1  0
  9 10  1  0
 10 11  1  0
 11 12  2  0
 12 13  1  0
 13 14  2  0
 14 15  1  0
 14 16  1  0
 16 17  1  0
 16 18  2  0
  8 19  1  0
 19 20  1  0
 20 21  2  0
 21 22  1  0
 22 23  2  0
 23 24  1  0
 24 25  2  0
 25 26  1  0
 19  5  1  0
 26 22  1  0
 18 11  1  0
  1 27  1  0
  1 28  1  0
  2 29  1  0
  3 30  1  0
  3 31  1  0
  9 32  1  0
  9 33  1  0
 10 34  1  0
 10 35  1  0
 12 36  1  0
 13 37  1  0
 15 38  1  0
 15 39  1  0
 15 40  1  0
 17 41  1  0
 17 42  1  0
 17 43  1  0
 18 44  1  0
 21 45  1  0
 23 46  1  0
 24 47  1  0
 25 48  1  0
 26 49  1  0
M  END
>  <Binding energies>  (1) 
[-6.78]

>  <Ligand effiencies>  (1) 
[-0.2511111111111111]

>  <Interactions>  (1) 
["V-A:ILE:369:CG2:3237, V-A:ASP:366:CA:3210, V-B:PRO:540:CA:9855, V-A:GLY:454:CA:4049, V-A:ILE:369:CB:3236, V-B:TYR:539:CE2:9848, V-B:GLU:543:CG:9879, V-A:ASP:366:CG:3213, V-B:TYR:539:CZ:9849, H-B:GLU:543:OE1:9881, V-A:GLU:543:CD:4908, V-B:PRO:540:CB:9857, H-A:GLY:454:N:4050, V-A:GLY:453:C:4042, V-B:PRO:540:N:9856, V-A:HIS:456:CE1:4070, V-A:ILE:369:CD1:3239, V-A:ASP:366:C:3208, V-B:GLU:543:CD:9880, V-A:ASP:366:CB:3212, H-A:ARG:545:NH2:4928, V-A:GLU:543:CB:4906, H-A:ARG:545:NE:4924, V-B:PRO:540:C:9853, H-A:TYR:484:OH:4348"]

$$$$
ZINC2329056476
     RDKit          3D

 57 59  0  0  0  0  0  0  0  0999 V2000
  125.8280  129.2160   63.2630 C   0  0  0  0  0  0  0  0  0  0  0  0
  126.7090  128.0890   62.7160 C   0  0  0  0  0  0  0  0  0  0  0  0
  128.0600  128.3410   63.0930 O   0  0  0  0  0  0  0  0  0  0  0  0
  128.7960  127.3460   63.7140 C   0  0  0  0  0  0  0  0  0  0  0  0
  129.5600  126.3890   63.0230 C   0  0  0  0  0  0  0  0  0  0  0  0
  130.2910  125.4070   63.7020 C   0  0  0  0  0  0  0  0  0  0  0  0
  131.0830  124.4400   62.9310 C   0  0  0  0  0  0  0  0  0  0  0  0
  130.6730  123.8750   61.8650 N   0  0  0  0  0  0  0  0  0  0  0  0
  131.4660  122.9160   61.2490 N   0  0  0  0  0  0  0  0  0  0  0  0
  132.8510  122.7840   61.1210 C   0  0  0  0  0  0  0  0  0  0  0  0
  134.1080  123.8660   61.7290 S   0  0  0  0  0  0  0  0  0  0  0  0
  134.5340  124.6720   60.1520 C   0  0  0  0  0  0  0  0  0  0  0  0
  133.4500  124.5810   59.0670 C   0  0  0  0  0  0  0  0  0  0  0  0
  133.9620  124.0020   57.8840 O   0  0  0  0  0  0  0  0  0  0  0  0
  133.1500  121.6900   60.4660 N   0  0  0  0  0  0  0  0  0  0  0  0
  131.9670  121.0240   60.1920 N   0  0  0  0  0  0  0  0  0  0  0  0
  130.9890  121.7530   60.6720 C   0  0  0  0  0  0  0  0  0  0  0  0
  129.5100  121.3570   60.5960 C   0  0  1  0  0  0  0  0  0  0  0  0
  128.8430  121.2810   61.9650 C   0  0  0  0  0  0  0  0  0  0  0  0
  128.0080  122.5530   62.1140 C   0  0  0  0  0  0  0  0  0  0  0  0
  127.4270  122.9020   63.1420 O   0  0  0  0  0  0  0  0  0  0  0  0
  128.0240  123.1700   60.9060 N   0  0  0  0  0  0  0  0  0  0  0  0
  127.1770  124.3390   60.6210 C   0  0  0  0  0  0  0  0  0  0  0  0
  125.9380  123.9610   59.7850 C   0  0  0  0  0  0  0  0  0  0  0  0
  127.9610  125.4990   59.9780 C   0  0  0  0  0  0  0  0  0  0  0  0
  128.6700  122.3850   59.8560 C   0  0  0  0  0  0  0  0  0  0  0  0
  130.2480  125.3910   65.1020 C   0  0  0  0  0  0  0  0  0  0  0  0
  129.4940  126.3270   65.8060 C   0  0  0  0  0  0  0  0  0  0  0  0
  129.4740  126.2530   67.7120 Br  0  0  0  0  0  0  0  0  0  0  0  0
  128.7690  127.3030   65.1140 C   0  0  0  0  0  0  0  0  0  0  0  0
  128.0280  128.2270   65.8090 O   0  0  0  0  0  0  0  0  0  0  0  0
  125.8452  129.1940   64.3626 H   0  0  0  0  0  0  0  0  0  0  0  0
  126.2106  130.1849   62.9096 H   0  0  0  0  0  0  0  0  0  0  0  0
  124.7954  129.0786   62.9096 H   0  0  0  0  0  0  0  0  0  0  0  0
  126.3812  127.1263   63.1352 H   0  0  0  0  0  0  0  0  0  0  0  0
  126.6273  128.0480   61.6198 H   0  0  0  0  0  0  0  0  0  0  0  0
  129.5838  126.4125   61.9235 H   0  0  0  0  0  0  0  0  0  0  0  0
  132.0900  124.1885   63.2954 H   0  0  0  0  0  0  0  0  0  0  0  0
  134.7280  125.7359   60.3532 H   0  0  0  0  0  0  0  0  0  0  0  0
  135.4109  124.1371   59.7585 H   0  0  0  0  0  0  0  0  0  0  0  0
  132.6198  123.9628   59.4394 H   0  0  0  0  0  0  0  0  0  0  0  0
  133.1009  125.5981   58.8356 H   0  0  0  0  0  0  0  0  0  0  0  0
  134.6730  124.5560   57.5540 H   0  0  0  0  0  0  0  0  0  0  0  0
  129.5379  120.3816   60.0883 H   0  0  0  0  0  0  0  0  0  0  0  0
  128.1962  120.3932   62.0235 H   0  0  0  0  0  0  0  0  0  0  0  0
  129.5911  121.2008   62.7674 H   0  0  0  0  0  0  0  0  0  0  0  0
  126.8197  124.7037   61.5953 H   0  0  0  0  0  0  0  0  0  0  0  0
  125.1054  123.7070   60.4576 H   0  0  0  0  0  0  0  0  0  0  0  0
  125.6502  124.8122   59.1505 H   0  0  0  0  0  0  0  0  0  0  0  0
  126.1744  123.0941   59.1505 H   0  0  0  0  0  0  0  0  0  0  0  0
  128.3899  126.1337   60.7674 H   0  0  0  0  0  0  0  0  0  0  0  0
  128.7705  125.0928   59.3537 H   0  0  0  0  0  0  0  0  0  0  0  0
  127.2823  126.0987   59.3537 H   0  0  0  0  0  0  0  0  0  0  0  0
  127.9175  121.8885   59.2258 H   0  0  0  0  0  0  0  0  0  0  0  0
  129.2776  123.0109   59.1859 H   0  0  0  0  0  0  0  0  0  0  0  0
  130.8178  124.6285   65.6533 H   0  0  0  0  0  0  0  0  0  0  0  0
  127.2500  128.5100   65.3250 H   0  0  0  0  0  0  0  0  0  0  0  0
  1  2  1  0
  2  3  1  0
  3  4  1  0
  4  5  2  0
  5  6  1  0
  6  7  1  0
  7  8  2  0
  8  9  1  0
  9 10  1  0
 10 11  1  0
 11 12  1  0
 12 13  1  0
 13 14  1  0
 10 15  2  0
 15 16  1  0
 16 17  2  0
 17 18  1  0
 18 19  1  0
 19 20  1  0
 20 21  2  0
 20 22  1  0
 22 23  1  0
 23 24  1  0
 23 25  1  0
 22 26  1  0
  6 27  2  0
 27 28  1  0
 28 29  1  0
 28 30  2  0
 30 31  1  0
 30  4  1  0
 17  9  1  0
 26 18  1  0
  1 32  1  0
  1 33  1  0
  1 34  1  0
  2 35  1  0
  2 36  1  0
  5 37  1  0
  7 38  1  0
 12 39  1  0
 12 40  1  0
 13 41  1  0
 13 42  1  0
 14 43  1  0
 18 44  1  6
 19 45  1  0
 19 46  1  0
 23 47  1  0
 24 48  1  0
 24 49  1  0
 24 50  1  0
 25 51  1  0
 25 52  1  0
 25 53  1  0
 26 54  1  0
 26 55  1  0
 27 56  1  0
 31 57  1  0
M  END
>  <Binding energies>  (1) 
[-6.09]

>  <Ligand effiencies>  (1) 
[-0.18454545454545454]

>  <Interactions>  (1) 
["V-A:ILE:369:CG2:3237, V-A:ASP:366:CA:3210, V-B:PRO:540:CA:9855, V-A:ILE:369:CB:3236, V-B:GLU:543:CB:9878, V-B:ALA:541:CB:9864, V-B:TYR:539:CE2:9848, V-B:GLU:543:CG:9879, V-B:TYR:539:C:9839, V-A:ASP:366:CG:3213, H-A:ASN:370:N:3244, H-B:TYR:539:OH:9850, H-B:ALA:541:N:9863, V-A:GLU:543:CD:4908, V-B:PRO:540:CB:9857, V-B:PRO:540:N:9856, V-A:HIS:456:CE1:4070, V-A:ILE:369:CD1:3239, V-B:TYR:539:CD2:9846, V-B:GLU:543:CD:9880, V-B:ARG:545:CZ:9898, V-A:ASP:366:CB:3212, H-A:ASP:366:O:3209, H-B:GLU:543:OE2:9882, V-B:PRO:540:C:9853, V-B:ALA:541:CA:9862"]

$$$$
ZINC2329911
     RDKit          3D

 45 48  0  0  0  0  0  0  0  0999 V2000
  131.7290  132.9300   56.7790 C   0  0  0  0  0  0  0  0  0  0  0  0
  132.1110  132.1610   58.0550 C   0  0  0  0  0  0  0  0  0  0  0  0
  131.3600  130.8970   58.2300 N   0  0  0  0  0  0  0  0  0  0  0  0
  132.0050  129.7060   58.1230 C   0  0  0  0  0  0  0  0  0  0  0  0
  133.2130  129.5810   57.8950 O   0  0  0  0  0  0  0  0  0  0  0  0
  131.0690  128.6190   58.3000 C   0  0  0  0  0  0  0  0  0  0  0  0
  131.4510  127.3270   58.1920 C   0  0  0  0  0  0  0  0  0  0  0  0
  130.5380  126.1890   58.2970 C   0  0  0  0  0  0  0  0  0  0  0  0
  130.7380  125.1530   59.1660 C   0  0  0  0  0  0  0  0  0  0  0  0
  131.8150  125.0940   60.0360 N   0  0  0  0  0  0  0  0  0  0  0  0
  131.8610  125.8660   61.2880 C   0  0  0  0  0  0  0  0  0  0  0  0
  132.5490  125.0970   62.4330 C   0  0  0  0  0  0  0  0  0  0  0  0
  134.2820  124.7180   62.0700 S   0  0  0  0  0  0  0  0  0  0  0  0
  133.8990  123.8140   60.5490 C   0  0  0  0  0  0  0  0  0  0  0  0
  133.1370  124.6900   59.5390 C   0  0  0  0  0  0  0  0  0  0  0  0
  129.9030  124.0740   59.2380 N   0  0  0  0  0  0  0  0  0  0  0  0
  128.8680  124.0120   58.4780 C   0  0  0  0  0  0  0  0  0  0  0  0
  127.9590  122.8780   58.5290 C   0  0  0  0  0  0  0  0  0  0  0  0
  126.8620  122.8010   57.7410 C   0  0  0  0  0  0  0  0  0  0  0  0
  126.5700  123.8780   56.8080 C   0  0  0  0  0  0  0  0  0  0  0  0
  127.4280  124.9210   56.7730 C   0  0  0  0  0  0  0  0  0  0  0  0
  128.5730  125.0410   57.5640 N   0  0  0  0  0  0  0  0  0  0  0  0
  129.3660  126.1660   57.4160 C   0  0  0  0  0  0  0  0  0  0  0  0
  129.1380  127.0880   56.6240 O   0  0  0  0  0  0  0  0  0  0  0  0
  129.4620  129.2560   58.6440 S   0  0  0  0  0  0  0  0  0  0  0  0
  130.0170  130.8990   58.4950 C   0  0  0  0  0  0  0  0  0  0  0  0
  128.9330  132.1550   58.6790 S   0  0  0  0  0  0  0  0  0  0  0  0
  131.2551  133.8839   57.0538 H   0  0  0  0  0  0  0  0  0  0  0  0
  132.6337  133.1276   56.1853 H   0  0  0  0  0  0  0  0  0  0  0  0
  131.0250  132.3285   56.1853 H   0  0  0  0  0  0  0  0  0  0  0  0
  133.1845  131.9250   58.0110 H   0  0  0  0  0  0  0  0  0  0  0  0
  131.8605  132.8071   58.9093 H   0  0  0  0  0  0  0  0  0  0  0  0
  132.5162  127.1180   58.0138 H   0  0  0  0  0  0  0  0  0  0  0  0
  132.4155  126.7986   61.1068 H   0  0  0  0  0  0  0  0  0  0  0  0
  130.8237  126.0643   61.5957 H   0  0  0  0  0  0  0  0  0  0  0  0
  132.5055  125.7096   63.3456 H   0  0  0  0  0  0  0  0  0  0  0  0
  132.0177  124.1424   62.5612 H   0  0  0  0  0  0  0  0  0  0  0  0
  134.8396  123.4767   60.0891 H   0  0  0  0  0  0  0  0  0  0  0  0
  133.2581  122.9595   60.8118 H   0  0  0  0  0  0  0  0  0  0  0  0
  133.7302  125.5940   59.3369 H   0  0  0  0  0  0  0  0  0  0  0  0
  132.9856  124.0958   58.6258 H   0  0  0  0  0  0  0  0  0  0  0  0
  128.1700  122.0572   59.2302 H   0  0  0  0  0  0  0  0  0  0  0  0
  126.1947  121.9289   57.8055 H   0  0  0  0  0  0  0  0  0  0  0  0
  125.6847  123.8446   56.1560 H   0  0  0  0  0  0  0  0  0  0  0  0
  127.2084  125.7370   56.0687 H   0  0  0  0  0  0  0  0  0  0  0  0
  1  2  1  0
  2  3  1  0
  3  4  1  0
  4  5  2  0
  4  6  1  0
  6  7  2  0
  7  8  1  0
  8  9  2  0
  9 10  1  0
 10 11  1  0
 11 12  1  0
 12 13  1  0
 13 14  1  0
 14 15  1  0
  9 16  1  0
 16 17  2  0
 17 18  1  0
 18 19  2  0
 19 20  1  0
 20 21  2  0
 21 22  1  0
 22 23  1  0
 23 24  2  0
  6 25  1  0
 25 26  1  0
 26 27  2  0
 26  3  1  0
 23  8  1  0
 15 10  1  0
 22 17  1  0
  1 28  1  0
  1 29  1  0
  1 30  1  0
  2 31  1  0
  2 32  1  0
  7 33  1  0
 11 34  1  0
 11 35  1  0
 12 36  1  0
 12 37  1  0
 14 38  1  0
 14 39  1  0
 15 40  1  0
 15 41  1  0
 18 42  1  0
 19 43  1  0
 20 44  1  0
 21 45  1  0
M  END
>  <Binding energies>  (1) 
[-6.46]

>  <Ligand effiencies>  (1) 
[-0.23925925925925925]

>  <Interactions>  (1) 
["V-A:ILE:369:CG2:3237, V-A:ASP:366:CA:3210, V-B:PRO:540:CA:9855, V-A:ILE:538:CB:4862, H-A:TYR:531:OH:4795, V-B:TYR:539:CE2:9848, V-B:TYR:539:C:9839, V-A:ASP:366:CG:3213, V-A:ILE:538:CG2:4863, V-A:LEU:363:CD1:3189, V-B:TYR:539:CZ:9849, V-B:PRO:540:CB:9857, V-B:PRO:540:N:9856, V-A:ILE:369:CD1:3239, V-B:TYR:539:CD2:9846, V-A:TYR:531:CZ:4794, V-B:PRO:540:CD:9859, V-A:ASP:366:CB:3212, H-A:ARG:545:NH2:4928, V-A:PRO:540:N:4884, V-A:PRO:540:CB:4885, V-A:PRO:540:CA:4883, V-B:MET:535:CE:9807, V-A:PRO:540:CD:4887"]

$$$$
ZINC2332240505
     RDKit          3D

146156  0  0  0  0  0  0  0  0999 V2000
  133.9620  125.0690   58.2240 C   0  0  0  0  0  0  0  0  0  0  0  0
  134.5250  126.2680   59.0350 C   0  0  0  0  0  0  0  0  0  0  0  0
  134.4190  127.5710   58.2120 C   0  0  0  0  0  0  0  0  0  0  0  0
  133.6790  126.4070   60.1680 O   0  0  0  0  0  0  0  0  0  0  0  0
  134.2560  125.7030   61.2010 B   0  0  0  0  0  0  0  0  0  0  0  0
  133.5380  125.3860   62.5760 C   0  0  0  0  0  0  0  0  0  0  0  0
  132.3230  125.9910   62.8940 C   0  0  0  0  0  0  0  0  0  0  0  0
  131.6900  125.7050   64.1010 C   0  0  0  0  0  0  0  0  0  0  0  0
  132.2590  124.8100   65.0210 C   0  0  0  0  0  0  0  0  0  0  0  0
  131.5230  124.5120   66.3550 C   0  0  1  0  0  0  0  0  0  0  0  0
  132.5100  123.8660   67.3750 C   0  0  0  0  0  0  0  0  0  0  0  0
  131.8200  123.4900   68.7220 C   0  0  1  0  0  0  0  0  0  0  0  0
  132.8350  122.7980   69.6710 C   0  0  0  0  0  0  0  0  0  0  0  0
  132.3660  121.9100   70.6500 C   0  0  0  0  0  0  0  0  0  0  0  0
  133.2440  121.2830   71.5270 C   0  0  0  0  0  0  0  0  0  0  0  0
  134.6150  121.5300   71.4490 C   0  0  0  0  0  0  0  0  0  0  0  0
  135.6110  120.8240   72.4550 B   0  0  0  0  0  0  0  0  0  0  0  0
  135.3630  120.6420   73.7970 O   0  0  0  0  0  0  0  0  0  0  0  0
  136.5830  120.2360   74.4010 C   0  0  0  0  0  0  0  0  0  0  0  0
  137.2530  121.5350   74.9260 C   0  0  0  0  0  0  0  0  0  0  0  0
  136.2310  119.2980   75.5780 C   0  0  0  0  0  0  0  0  0  0  0  0
  137.3120  119.5430   73.1960 C   0  0  0  0  0  0  0  0  0  0  0  0
  138.8520  119.6550   73.2140 C   0  0  0  0  0  0  0  0  0  0  0  0
  136.8790  118.0800   72.9100 C   0  0  0  0  0  0  0  0  0  0  0  0
  136.8390  120.3130   72.1010 O   0  0  0  0  0  0  0  0  0  0  0  0
  135.0950  122.4070   70.4770 C   0  0  0  0  0  0  0  0  0  0  0  0
  134.2170  123.0350   69.5970 C   0  0  0  0  0  0  0  0  0  0  0  0
  131.2120  124.8020   69.3150 C   0  0  0  0  0  0  0  0  0  0  0  0
  130.1860  125.4860   68.3570 C   0  0  1  0  0  0  0  0  0  0  0  0
  129.5770  126.7910   68.9360 C   0  0  0  0  0  0  0  0  0  0  0  0
  128.8780  127.7130   68.1410 C   0  0  0  0  0  0  0  0  0  0  0  0
  128.3470  128.8740   68.6970 C   0  0  0  0  0  0  0  0  0  0  0  0
  128.4990  129.1400   70.0580 C   0  0  0  0  0  0  0  0  0  0  0  0
  127.8990  130.4600   70.6900 B   0  0  0  0  0  0  0  0  0  0  0  0
  127.6010  130.6150   72.0260 O   0  0  0  0  0  0  0  0  0  0  0  0
  126.8650  131.8220   72.1600 C   0  0  0  0  0  0  0  0  0  0  0  0
  125.3670  131.4170   72.1120 C   0  0  0  0  0  0  0  0  0  0  0  0
  127.2160  132.4310   73.5360 C   0  0  0  0  0  0  0  0  0  0  0  0
  127.3810  132.6390   70.9220 C   0  0  0  0  0  0  0  0  0  0  0  0
  126.3490  133.6100   70.3060 C   0  0  0  0  0  0  0  0  0  0  0  0
  128.7450  133.3550   71.1210 C   0  0  0  0  0  0  0  0  0  0  0  0
  127.6140  131.6030   69.9800 O   0  0  0  0  0  0  0  0  0  0  0  0
  129.1890  128.2300   70.8580 C   0  0  0  0  0  0  0  0  0  0  0  0
  129.7210  127.0700   70.3040 C   0  0  0  0  0  0  0  0  0  0  0  0
  130.9300  125.7930   67.0250 C   0  0  0  0  0  0  0  0  0  0  0  0
  129.0580  124.4530   68.0690 C   0  0  0  0  0  0  0  0  0  0  0  0
  129.5970  123.1320   67.4320 C   0  0  1  0  0  0  0  0  0  0  0  0
  128.4830  122.0930   67.1400 C   0  0  0  0  0  0  0  0  0  0  0  0
  127.2160  122.1580   67.7400 C   0  0  0  0  0  0  0  0  0  0  0  0
  126.2460  121.1970   67.4690 C   0  0  0  0  0  0  0  0  0  0  0  0
  126.5180  120.1480   66.5910 C   0  0  0  0  0  0  0  0  0  0  0  0
  125.4170  119.0520   66.2890 B   0  0  0  0  0  0  0  0  0  0  0  0
  125.6900  117.7260   66.0360 O   0  0  0  0  0  0  0  0  0  0  0  0
  124.4950  117.1340   65.5480 C   0  0  0  0  0  0  0  0  0  0  0  0
  124.5760  117.2200   63.9990 C   0  0  0  0  0  0  0  0  0  0  0  0
  124.4830  115.6580   66.0060 C   0  0  0  0  0  0  0  0  0  0  0  0
  123.4030  118.0440   66.2150 C   0  0  0  0  0  0  0  0  0  0  0  0
  122.1060  118.2160   65.3930 C   0  0  0  0  0  0  0  0  0  0  0  0
  123.0660  117.7020   67.6920 C   0  0  0  0  0  0  0  0  0  0  0  0
  124.0640  119.3000   66.2440 O   0  0  0  0  0  0  0  0  0  0  0  0
  127.7730  120.0730   65.9850 C   0  0  0  0  0  0  0  0  0  0  0  0
  128.7420  121.0340   66.2560 C   0  0  0  0  0  0  0  0  0  0  0  0
  130.3380  123.5220   66.1130 C   0  0  0  0  0  0  0  0  0  0  0  0
  130.6340  122.5240   68.4260 C   0  0  0  0  0  0  0  0  0  0  0  0
  133.4840  124.2080   64.6880 C   0  0  0  0  0  0  0  0  0  0  0  0
  134.1130  124.4930   63.4810 C   0  0  0  0  0  0  0  0  0  0  0  0
  135.5390  125.3160   60.8860 O   0  0  0  0  0  0  0  0  0  0  0  0
  135.9180  126.0230   59.7160 C   0  0  0  0  0  0  0  0  0  0  0  0
  136.8850  125.1220   58.9140 C   0  0  0  0  0  0  0  0  0  0  0  0
  136.6520  127.3020   60.2050 C   0  0  0  0  0  0  0  0  0  0  0  0
  133.5989  124.2958   58.9170 H   0  0  0  0  0  0  0  0  0  0  0  0
  133.1312  125.4128   57.5903 H   0  0  0  0  0  0  0  0  0  0  0  0
  134.7572  124.6493   57.5903 H   0  0  0  0  0  0  0  0  0  0  0  0
  134.3490  128.4310   58.8943 H   0  0  0  0  0  0  0  0  0  0  0  0
  135.3114  127.6778   57.5778 H   0  0  0  0  0  0  0  0  0  0  0  0
  133.5211  127.5321   57.5778 H   0  0  0  0  0  0  0  0  0  0  0  0
  131.8621  126.6977   62.1882 H   0  0  0  0  0  0  0  0  0  0  0  0
  130.7300  126.1874   64.3371 H   0  0  0  0  0  0  0  0  0  0  0  0
  132.9310  122.9533   66.9281 H   0  0  0  0  0  0  0  0  0  0  0  0
  133.2919  124.6072   67.5969 H   0  0  0  0  0  0  0  0  0  0  0  0
  131.2876  121.7066   70.7251 H   0  0  0  0  0  0  0  0  0  0  0  0
  132.8556  120.5884   72.2865 H   0  0  0  0  0  0  0  0  0  0  0  0
  137.2505  121.5301   76.0260 H   0  0  0  0  0  0  0  0  0  0  0  0
  138.2898  121.5858   74.5619 H   0  0  0  0  0  0  0  0  0  0  0  0
  136.6933  122.4092   74.5619 H   0  0  0  0  0  0  0  0  0  0  0  0
  136.4250  119.8149   76.5294 H   0  0  0  0  0  0  0  0  0  0  0  0
  135.1679  119.0213   75.5211 H   0  0  0  0  0  0  0  0  0  0  0  0
  136.8497  118.3902   75.5211 H   0  0  0  0  0  0  0  0  0  0  0  0
  139.2056  119.6807   74.2553 H   0  0  0  0  0  0  0  0  0  0  0  0
  139.2889  118.7863   72.6998 H   0  0  0  0  0  0  0  0  0  0  0  0
  139.1586  120.5778   72.6998 H   0  0  0  0  0  0  0  0  0  0  0  0
  136.7225  117.5512   73.8618 H   0  0  0  0  0  0  0  0  0  0  0  0
  135.9426  118.0809   72.3328 H   0  0  0  0  0  0  0  0  0  0  0  0
  137.6651  117.5711   72.3328 H   0  0  0  0  0  0  0  0  0  0  0  0
  136.1748  122.6042   70.4047 H   0  0  0  0  0  0  0  0  0  0  0  0
  134.6106  123.7244   68.8355 H   0  0  0  0  0  0  0  0  0  0  0  0
  130.7016  124.5568   70.2581 H   0  0  0  0  0  0  0  0  0  0  0  0
  132.0408  125.5088   69.4685 H   0  0  0  0  0  0  0  0  0  0  0  0
  128.7483  127.5161   67.0666 H   0  0  0  0  0  0  0  0  0  0  0  0
  127.8039  129.5864   68.0586 H   0  0  0  0  0  0  0  0  0  0  0  0
  124.9823  131.3130   73.1373 H   0  0  0  0  0  0  0  0  0  0  0  0
  124.7943  132.1925   71.5824 H   0  0  0  0  0  0  0  0  0  0  0  0
  125.2631  130.4585   71.5824 H   0  0  0  0  0  0  0  0  0  0  0  0
  126.8381  131.7753   74.3343 H   0  0  0  0  0  0  0  0  0  0  0  0
  128.3080  132.5271   73.6266 H   0  0  0  0  0  0  0  0  0  0  0  0
  126.7517  133.4241   73.6266 H   0  0  0  0  0  0  0  0  0  0  0  0
  125.8030  134.1238   71.1109 H   0  0  0  0  0  0  0  0  0  0  0  0
  126.8701  134.3529   69.6843 H   0  0  0  0  0  0  0  0  0  0  0  0
  125.6392  133.0446   69.6843 H   0  0  0  0  0  0  0  0  0  0  0  0
  128.9493  133.4623   72.1965 H   0  0  0  0  0  0  0  0  0  0  0  0
  129.5432  132.7597   70.6537 H   0  0  0  0  0  0  0  0  0  0  0  0
  128.7084  134.3501   70.6537 H   0  0  0  0  0  0  0  0  0  0  0  0
  129.3133  128.4303   71.9324 H   0  0  0  0  0  0  0  0  0  0  0  0
  130.2625  126.3610   70.9476 H   0  0  0  0  0  0  0  0  0  0  0  0
  130.2208  126.2595   66.3255 H   0  0  0  0  0  0  0  0  0  0  0  0
  131.7699  126.4630   67.2610 H   0  0  0  0  0  0  0  0  0  0  0  0
  128.5558  124.2073   69.0163 H   0  0  0  0  0  0  0  0  0  0  0  0
  128.3652  124.9107   67.3475 H   0  0  0  0  0  0  0  0  0  0  0  0
  126.9862  122.9798   68.4341 H   0  0  0  0  0  0  0  0  0  0  0  0
  125.2592  121.2654   67.9502 H   0  0  0  0  0  0  0  0  0  0  0  0
  125.3041  117.9931   63.7123 H   0  0  0  0  0  0  0  0  0  0  0  0
  124.8944  116.2481   63.5940 H   0  0  0  0  0  0  0  0  0  0  0  0
  123.5868  117.4797   63.5940 H   0  0  0  0  0  0  0  0  0  0  0  0
  124.4827  115.6152   67.1052 H   0  0  0  0  0  0  0  0  0  0  0  0
  123.5808  115.1614   65.6194 H   0  0  0  0  0  0  0  0  0  0  0  0
  125.3770  115.1468   65.6194 H   0  0  0  0  0  0  0  0  0  0  0  0
  121.2513  118.3293   66.0761 H   0  0  0  0  0  0  0  0  0  0  0  0
  122.1898  119.1109   64.7589 H   0  0  0  0  0  0  0  0  0  0  0  0
  121.9536  117.3302   64.7589 H   0  0  0  0  0  0  0  0  0  0  0  0
  123.6787  118.3238   68.3613 H   0  0  0  0  0  0  0  0  0  0  0  0
  122.0006  117.9004   67.8804 H   0  0  0  0  0  0  0  0  0  0  0  0
  123.2801  116.6396   67.8804 H   0  0  0  0  0  0  0  0  0  0  0  0
  127.9971  119.2504   65.2900 H   0  0  0  0  0  0  0  0  0  0  0  0
  129.7262  120.9627   65.7700 H   0  0  0  0  0  0  0  0  0  0  0  0
  130.7337  122.6069   65.6482 H   0  0  0  0  0  0  0  0  0  0  0  0
  129.6107  124.0284   65.4614 H   0  0  0  0  0  0  0  0  0  0  0  0
  130.1221  122.2948   69.3723 H   0  0  0  0  0  0  0  0  0  0  0  0
  131.0506  121.6190   67.9597 H   0  0  0  0  0  0  0  0  0  0  0  0
  133.9513  123.5025   65.3908 H   0  0  0  0  0  0  0  0  0  0  0  0
  135.0713  124.0107   63.2378 H   0  0  0  0  0  0  0  0  0  0  0  0
  137.5080  124.5416   59.6104 H   0  0  0  0  0  0  0  0  0  0  0  0
  136.3053  124.4346   58.2805 H   0  0  0  0  0  0  0  0  0  0  0  0
  137.5298  125.7488   58.2805 H   0  0  0  0  0  0  0  0  0  0  0  0
  136.6628  127.3207   61.3048 H   0  0  0  0  0  0  0  0  0  0  0  0
  137.6855  127.2984   59.8282 H   0  0  0  0  0  0  0  0  0  0  0  0
  136.1275  128.1925   59.8282 H   0  0  0  0  0  0  0  0  0  0  0  0
  1  2  1  0
  2  3  1  0
  2  4  1  0
  4  5  1  0
  5  6  1  0
  6  7  2  0
  7  8  1  0
  8  9  2  0
 10  9  1  1
 10 11  1  0
 11 12  1  0
 12 13  1  6
 13 14  2  0
 14 15  1  0
 15 16  2  0
 16 17  1  0
 17 18  1  0
 18 19  1  0
 19 20  1  0
 19 21  1  0
 19 22  1  0
 22 23  1  0
 22 24  1  0
 22 25  1  0
 16 26  1  0
 26 27  2  0
 12 28  1  0
 28 29  1  0
 29 30  1  6
 30 31  2  0
 31 32  1  0
 32 33  2  0
 33 34  1  0
 34 35  1  0
 35 36  1  0
 36 37  1  0
 36 38  1  0
 36 39  1  0
 39 40  1  0
 39 41  1  0
 39 42  1  0
 33 43  1  0
 43 44  2  0
 29 45  1  0
 29 46  1  0
 46 47  1  0
 47 48  1  1
 48 49  2  0
 49 50  1  0
 50 51  2  0
 51 52  1  0
 52 53  1  0
 53 54  1  0
 54 55  1  0
 54 56  1  0
 54 57  1  0
 57 58  1  0
 57 59  1  0
 57 60  1  0
 51 61  1  0
 61 62  2  0
 47 63  1  0
 47 64  1  0
  9 65  1  0
 65 66  2  0
  5 67  1  0
 67 68  1  0
 68 69  1  0
 68 70  1  0
 68  2  1  0
 66  6  1  0
 45 10  1  0
 62 48  1  0
 63 10  1  0
 64 12  1  0
 27 13  1  0
 44 30  1  0
 60 52  1  0
 25 17  1  0
 42 34  1  0
  1 71  1  0
  1 72  1  0
  1 73  1  0
  3 74  1  0
  3 75  1  0
  3 76  1  0
  7 77  1  0
  8 78  1  0
 11 79  1  0
 11 80  1  0
 14 81  1  0
 15 82  1  0
 20 83  1  0
 20 84  1  0
 20 85  1  0
 21 86  1  0
 21 87  1  0
 21 88  1  0
 23 89  1  0
 23 90  1  0
 23 91  1  0
 24 92  1  0
 24 93  1  0
 24 94  1  0
 26 95  1  0
 27 96  1  0
 28 97  1  0
 28 98  1  0
 31 99  1  0
 32100  1  0
 37101  1  0
 37102  1  0
 37103  1  0
 38104  1  0
 38105  1  0
 38106  1  0
 40107  1  0
 40108  1  0
 40109  1  0
 41110  1  0
 41111  1  0
 41112  1  0
 43113  1  0
 44114  1  0
 45115  1  0
 45116  1  0
 46117  1  0
 46118  1  0
 49119  1  0
 50120  1  0
 55121  1  0
 55122  1  0
 55123  1  0
 56124  1  0
 56125  1  0
 56126  1  0
 58127  1  0
 58128  1  0
 58129  1  0
 59130  1  0
 59131  1  0
 59132  1  0
 61133  1  0
 62134  1  0
 63135  1  0
 63136  1  0
 64137  1  0
 64138  1  0
 65139  1  0
 66140  1  0
 69141  1  0
 69142  1  0
 69143  1  0
 70144  1  0
 70145  1  0
 70146  1  0
M  END
>  <Binding energies>  (1) 
[135000000.0]

>  <Ligand effiencies>  (1) 
[1928571.4285714286]

>  <Interactions>  (1) 
["V-A:GLU:543:C:4902, V-B:HIS:456:CB:9036, V-A:TYR:484:CE2:4346, V-A:VAL:474:CA:4246, V-A:LEU:472:CA:4228, H-A:ASP:366:N:3211, V-B:TYR:484:CZ:9318, V-A:ASP:366:C:3208, V-A:ILE:369:CA:3234, V-B:HIS:456:CG:9037, V-A:ASP:473:C:4235, V-A:ILE:369:CG1:3238, V-A:ASP:366:CB:3212, V-B:ALA:541:CA:9862, V-A:GLY:454:C:4047, V-A:LEU:472:CD2:4233, V-B:TYR:484:CE1:9316, V-B:HIS:456:CA:9034, V-A:GLY:454:CA:4049, V-B:GLU:543:C:9874, V-A:ILE:369:CB:3236, V-A:ASP:473:CB:4239, V-B:VAL:542:CA:9868, V-A:VAL:474:CG1:4249, V-B:TYR:484:CE2:9317, V-A:HIS:456:CB:4065, V-A:ASP:473:CG:4240, V-A:VAL:474:CG2:4250, V-A:ILE:455:C:4052, V-A:LEU:487:CB:4371, V-A:TYR:484:CD1:4343, V-B:HIS:456:CE1:9041, V-B:TYR:484:CD1:9314, V-A:HIS:456:CE1:4070, V-A:PRO:486:C:4360, V-A:ILE:455:CB:4056, H-A:ARG:545:NH2:4928, V-A:HIS:456:C:4061, V-A:ARG:545:CZ:4926, V-A:ASN:362:C:3172, V-A:TYR:484:CE1:4345, V-A:ASP:473:CA:4237, V-A:ILE:369:CG2:3237, V-A:ASP:366:CA:3210, H-A:HIS:456:N:4064, V-B:VAL:542:CG2:9872, V-B:ALA:541:CB:9864, V-A:LEU:472:CB:4230, H-B:VAL:542:N:9869, V-A:TYR:531:CE2:4793, V-A:GLU:543:CD:4908, V-B:TYR:484:CB:9312, V-B:GLU:543:CA:9876, V-A:GLY:453:C:4042, V-A:CYS:365:CA:3203, V-A:TYR:484:CD2:4344, V-B:ALA:541:C:9860, V-A:PRO:482:C:4322, V-B:TYR:484:CG:9313, V-A:TYR:484:CG:4342, V-A:TYR:484:CB:4341, V-A:HIS:456:CG:4066, V-A:GLU:543:CB:4906, V-B:ASP:473:CB:9210, V-A:VAL:474:CB:4248, V-B:VAL:542:CB:9870, V-A:CYS:365:CB:3201, V-B:HIS:456:CD2:9039, V-B:GLU:543:CB:9878, V-A:VAL:457:CA:4075, V-B:GLU:543:CG:9879, V-A:HIS:456:CD2:4068, V-A:ASP:366:CG:3213, V-A:LEU:472:CG:4231, H-B:HIS:456:ND1:9038, V-A:LEU:472:C:4226, V-A:ILE:455:CA:4054, V-A:LEU:475:CD1:4258, V-A:TYR:484:CZ:4347, H-A:VAL:474:N:4247, V-A:SER:483:CA:4331, V-B:TYR:484:CA:9310, H-A:ASP:473:N:4238, V-A:ILE:369:CD1:3239, H-A:SER:483:N:4332, V-A:HIS:456:CA:4063, V-B:TYR:484:CD2:9315, V-B:VAL:542:CG1:9871, V-A:PRO:486:CA:4362, V-B:VAL:542:C:9866, V-A:GLY:453:CA:4044, V-A:CYS:365:C:3204, V-A:LYS:471:C:4213"]

$$$$
ZINC2332241207-again1
     RDKit          3D

 91 92  0  0  0  0  0  0  0  0999 V2000
  126.7880  123.7770   61.3610 C   0  0  0  0  0  0  0  0  0  0  0  0
  128.1100  123.1820   61.1680 N   0  0  0  0  0  0  0  0  0  0  0  0
  128.3930  122.1330   62.1520 C   0  0  0  0  0  0  0  0  0  0  0  0
  129.0050  123.5190   60.1980 C   0  0  0  0  0  0  0  0  0  0  0  0
  130.0940  122.9510   60.0980 O   0  0  0  0  0  0  0  0  0  0  0  0
  128.6790  124.6800   59.2020 C   0  0  1  0  0  0  0  0  0  0  0  0
  129.9820  125.2170   58.7420 N   0  0  0  0  0  0  0  0  0  0  0  0
  130.3900  126.5130   58.8760 C   0  0  0  0  0  0  0  0  0  0  0  0
  131.9230  126.8680   58.3200 S   0  0  0  0  0  0  0  0  0  0  0  0
  129.5070  127.4000   59.4390 N   0  0  0  0  0  0  0  0  0  0  0  0
  129.7160  128.8480   59.6380 C   0  0  1  0  0  0  0  0  0  0  0  0
  129.3760  129.6430   58.3560 C   0  0  0  0  0  0  0  0  0  0  0  0
  129.5730  131.1640   58.5130 C   0  0  0  0  0  0  0  0  0  0  0  0
  128.8350  131.7270   59.7410 C   0  0  0  0  0  0  0  0  0  0  0  0
  129.2130  130.9650   61.0210 C   0  0  0  0  0  0  0  0  0  0  0  0
  128.9730  129.4460   60.8710 C   0  0  2  0  0  0  0  0  0  0  0  0
  129.4170  128.7590   62.1150 N   0  0  0  0  0  0  0  0  0  0  0  0
  128.6210  127.9960   62.8490 C   0  0  0  0  0  0  0  0  0  0  0  0
  129.1200  127.2390   64.0030 C   0  0  0  0  0  0  0  0  0  0  0  0
  129.9690  126.1410   63.8100 C   0  0  0  0  0  0  0  0  0  0  0  0
  130.4310  125.3820   64.8820 C   0  0  0  0  0  0  0  0  0  0  0  0
  131.2360  124.2830   64.6800 O   0  0  0  0  0  0  0  0  0  0  0  0
  132.5270  124.4460   64.2580 C   0  0  0  0  0  0  0  0  0  0  0  0
  133.4670  124.8260   64.9650 O   0  0  0  0  0  0  0  0  0  0  0  0
  132.7130  124.0980   62.7540 C   0  0  0  0  0  0  0  0  0  0  0  0
  131.9050  122.8200   62.4140 C   0  0  0  0  0  0  0  0  0  0  0  0
  132.2030  125.2520   61.8510 C   0  0  0  0  0  0  0  0  0  0  0  0
  134.2150  123.8720   62.4540 C   0  0  0  0  0  0  0  0  0  0  0  0
  130.0230  125.7050   66.1720 C   0  0  0  0  0  0  0  0  0  0  0  0
  129.1730  126.7940   66.4320 C   0  0  0  0  0  0  0  0  0  0  0  0
  128.7260  127.1120   67.8960 C   0  0  0  0  0  0  0  0  0  0  0  0
  127.1960  127.3570   67.9640 C   0  0  0  0  0  0  0  0  0  0  0  0
  129.1310  125.9570   68.8510 C   0  0  0  0  0  0  0  0  0  0  0  0
  129.3880  128.3970   68.4750 C   0  0  0  0  0  0  0  0  0  0  0  0
  128.7350  127.5650   65.3250 C   0  0  0  0  0  0  0  0  0  0  0  0
  127.9090  128.6470   65.5330 O   0  0  0  0  0  0  0  0  0  0  0  0
  127.6910  124.3370   58.0080 C   0  0  0  0  0  0  0  0  0  0  0  0
  127.3210  122.8280   57.9540 C   0  0  0  0  0  0  0  0  0  0  0  0
  126.3510  125.0980   58.2010 C   0  0  0  0  0  0  0  0  0  0  0  0
  128.2470  124.7850   56.6280 C   0  0  0  0  0  0  0  0  0  0  0  0
  126.5814  123.8700   62.4374 H   0  0  0  0  0  0  0  0  0  0  0  0
  126.7628  124.7733   60.8954 H   0  0  0  0  0  0  0  0  0  0  0  0
  126.0255  123.1352   60.8954 H   0  0  0  0  0  0  0  0  0  0  0  0
  128.2825  122.5428   63.1668 H   0  0  0  0  0  0  0  0  0  0  0  0
  127.6873  121.3006   62.0138 H   0  0  0  0  0  0  0  0  0  0  0  0
  129.4216  121.7685   62.0138 H   0  0  0  0  0  0  0  0  0  0  0  0
  128.0896  125.4358   59.7417 H   0  0  0  0  0  0  0  0  0  0  0  0
  130.6110  124.5550   58.3100 H   0  0  0  0  0  0  0  0  0  0  0  0
  128.6190  127.0350   59.7500 H   0  0  0  0  0  0  0  0  0  0  0  0
  130.7883  128.9542   59.8592 H   0  0  0  0  0  0  0  0  0  0  0  0
  130.0260  129.2886   57.5424 H   0  0  0  0  0  0  0  0  0  0  0  0
  128.3112  129.4725   58.1390 H   0  0  0  0  0  0  0  0  0  0  0  0
  130.6478  131.3719   58.6207 H   0  0  0  0  0  0  0  0  0  0  0  0
  129.1563  131.6505   57.6188 H   0  0  0  0  0  0  0  0  0  0  0  0
  129.1016  132.7871   59.8637 H   0  0  0  0  0  0  0  0  0  0  0  0
  127.7533  131.6128   59.5770 H   0  0  0  0  0  0  0  0  0  0  0  0
  130.2773  131.1384   61.2385 H   0  0  0  0  0  0  0  0  0  0  0  0
  128.5791  131.3340   61.8408 H   0  0  0  0  0  0  0  0  0  0  0  0
  127.8971  129.2863   60.7072 H   0  0  0  0  0  0  0  0  0  0  0  0
  130.3970  128.8420   62.3710 H   0  0  0  0  0  0  0  0  0  0  0  0
  127.5551  127.9278   62.5860 H   0  0  0  0  0  0  0  0  0  0  0  0
  130.2774  125.8727   62.7888 H   0  0  0  0  0  0  0  0  0  0  0  0
  131.5922  122.3253   63.3454 H   0  0  0  0  0  0  0  0  0  0  0  0
  131.0155  123.0937   61.8276 H   0  0  0  0  0  0  0  0  0  0  0  0
  132.5338  122.1338   61.8276 H   0  0  0  0  0  0  0  0  0  0  0  0
  131.8385  126.0768   62.4809 H   0  0  0  0  0  0  0  0  0  0  0  0
  133.0260  125.6117   61.2159 H   0  0  0  0  0  0  0  0  0  0  0  0
  131.3830  124.8856   61.2159 H   0  0  0  0  0  0  0  0  0  0  0  0
  134.7694  123.7886   63.4004 H   0  0  0  0  0  0  0  0  0  0  0  0
  134.3377  122.9453   61.8742 H   0  0  0  0  0  0  0  0  0  0  0  0
  134.6050  124.7216   61.8742 H   0  0  0  0  0  0  0  0  0  0  0  0
  130.3758  125.0903   67.0132 H   0  0  0  0  0  0  0  0  0  0  0  0
  126.8792  127.4077   69.0162 H   0  0  0  0  0  0  0  0  0  0  0  0
  126.9539  128.3054   67.4620 H   0  0  0  0  0  0  0  0  0  0  0  0
  126.6698  126.5317   67.4620 H   0  0  0  0  0  0  0  0  0  0  0  0
  129.0156  126.2862   69.8942 H   0  0  0  0  0  0  0  0  0  0  0  0
  128.4847  125.0860   68.6677 H   0  0  0  0  0  0  0  0  0  0  0  0
  130.1798  125.6804   68.6677 H   0  0  0  0  0  0  0  0  0  0  0  0
  129.3673  128.3568   69.5741 H   0  0  0  0  0  0  0  0  0  0  0  0
  130.4306  128.4597   68.1300 H   0  0  0  0  0  0  0  0  0  0  0  0
  128.8338  129.2823   68.1300 H   0  0  0  0  0  0  0  0  0  0  0  0
  126.9810  128.4100   65.5920 H   0  0  0  0  0  0  0  0  0  0  0  0
  127.2252  122.4371   58.9777 H   0  0  0  0  0  0  0  0  0  0  0  0
  126.3657  122.7035   57.4230 H   0  0  0  0  0  0  0  0  0  0  0  0
  128.1103  122.2757   57.4230 H   0  0  0  0  0  0  0  0  0  0  0  0
  126.1467  125.2140   59.2756 H   0  0  0  0  0  0  0  0  0  0  0  0
  126.4221  126.0905   57.7320 H   0  0  0  0  0  0  0  0  0  0  0  0
  125.5351  124.5285   57.7320 H   0  0  0  0  0  0  0  0  0  0  0  0
  129.0954  125.4686   56.7789 H   0  0  0  0  0  0  0  0  0  0  0  0
  128.5831  123.9024   56.0640 H   0  0  0  0  0  0  0  0  0  0  0  0
  127.4561  125.3011   56.0640 H   0  0  0  0  0  0  0  0  0  0  0  0
  1  2  1  0
  2  3  1  0
  2  4  1  0
  4  5  2  0
  4  6  1  0
  6  7  1  0
  7  8  1  0
  8  9  2  0
  8 10  1  0
 10 11  1  0
 11 12  1  0
 12 13  1  0
 13 14  1  0
 14 15  1  0
 15 16  1  0
 16 17  1  0
 17 18  2  0
 18 19  1  0
 19 20  2  0
 20 21  1  0
 21 22  1  0
 22 23  1  0
 23 24  2  0
 23 25  1  0
 25 26  1  0
 25 27  1  0
 25 28  1  0
 21 29  2  0
 29 30  1  0
 30 31  1  0
 31 32  1  0
 31 33  1  0
 31 34  1  0
 30 35  2  0
 35 36  1  0
  6 37  1  0
 37 38  1  0
 37 39  1  0
 37 40  1  0
 16 11  1  0
 35 19  1  0
  1 41  1  0
  1 42  1  0
  1 43  1  0
  3 44  1  0
  3 45  1  0
  3 46  1  0
  6 47  1  1
  7 48  1  0
 10 49  1  0
 11 50  1  1
 12 51  1  0
 12 52  1  0
 13 53  1  0
 13 54  1  0
 14 55  1  0
 14 56  1  0
 15 57  1  0
 15 58  1  0
 16 59  1  6
 17 60  1  0
 18 61  1  0
 20 62  1  0
 26 63  1  0
 26 64  1  0
 26 65  1  0
 27 66  1  0
 27 67  1  0
 27 68  1  0
 28 69  1  0
 28 70  1  0
 28 71  1  0
 29 72  1  0
 32 73  1  0
 32 74  1  0
 32 75  1  0
 33 76  1  0
 33 77  1  0
 33 78  1  0
 34 79  1  0
 34 80  1  0
 34 81  1  0
 36 82  1  0
 38 83  1  0
 38 84  1  0
 38 85  1  0
 39 86  1  0
 39 87  1  0
 39 88  1  0
 40 89  1  0
 40 90  1  0
 40 91  1  0
M  CHG  1  17   1
M  END
>  <Binding energies>  (1) 
[-8.95]

>  <Ligand effiencies>  (1) 
[-0.2034090909090909]

>  <Interactions>  (1) 
["V-B:PRO:540:CA:9855, V-A:GLU:543:CA:4904, V-A:GLY:454:CA:4049, V-B:GLU:543:C:9874, V-B:GLU:543:CB:9878, V-B:ALA:541:CB:9864, V-B:TYR:539:CE2:9848, V-B:GLU:543:CG:9879, V-B:TYR:539:C:9839, V-A:ASP:366:CG:3213, V-B:TYR:539:CZ:9849, H-B:TYR:539:OH:9850, V-A:GLU:543:CD:4908, V-B:PRO:540:CB:9857, V-B:HIS:456:CE1:9041, H-A:GLY:454:N:4050, V-B:GLU:543:CA:9876, V-A:GLY:453:C:4042, V-B:PRO:540:N:9856, V-A:ILE:369:CD1:3239, V-A:HIS:456:CE1:4070, V-B:TYR:539:CD2:9846, V-A:GLU:543:CG:4907, V-B:GLU:543:CD:9880, V-A:ASP:366:CB:3212, V-A:LEU:475:CD2:4259, H-A:ARG:545:NH2:4928, H-A:GLU:543:OE1:4909, V-A:GLU:543:CB:4906, H-B:GLU:543:OE2:9882, H-A:ARG:545:NE:4924, V-B:PRO:540:C:9853, V-B:ALA:541:CA:9862, H-A:TYR:484:OH:4348"]

$$$$
ZINC2333108758
     RDKit          3D

 70 74  0  0  0  0  0  0  0  0999 V2000
  128.6870  122.5400   62.0980 C   0  0  0  0  0  0  0  0  0  0  0  0
  129.7840  122.8160   61.0790 C   0  0  0  0  0  0  0  0  0  0  0  0
  130.7160  121.6200   60.8790 C   0  0  0  0  0  0  0  0  0  0  0  0
  129.2090  123.1530   59.8590 O   0  0  0  0  0  0  0  0  0  0  0  0
  129.9890  124.1490   59.2270 C   0  0  1  0  0  0  0  0  0  0  0  0
  129.1750  125.2940   58.5920 C   0  0  0  0  0  0  0  0  0  0  0  0
  129.8680  126.5680   59.0980 C   0  0  1  0  0  0  0  0  0  0  0  0
  129.1600  127.9430   58.9460 C   0  0  2  0  0  0  0  0  0  0  0  0
  128.6740  128.1950   57.4960 C   0  0  0  0  0  0  0  0  0  0  0  0
  128.0160  129.5730   57.3080 C   0  0  0  0  0  0  0  0  0  0  0  0
  129.0030  130.6420   57.7730 C   0  0  0  0  0  0  0  0  0  0  0  0
  129.5540  131.5200   56.9020 C   0  0  0  0  0  0  0  0  0  0  0  0
  130.6020  132.4690   57.2400 C   0  0  0  0  0  0  0  0  0  0  0  0
  130.9560  133.3540   56.4640 O   0  0  0  0  0  0  0  0  0  0  0  0
  131.3350  132.1920   58.5550 C   0  0  0  0  0  0  0  0  0  0  0  0
  130.3460  131.7410   59.6460 C   0  0  0  0  0  0  0  0  0  0  0  0
  129.4000  130.5410   59.2750 C   0  0  1  0  0  0  0  0  0  0  0  0
  128.1050  130.7250   60.1260 C   0  0  0  0  0  0  0  0  0  0  0  0
  130.0840  129.1150   59.4620 C   0  0  2  0  0  0  0  0  0  0  0  0
  131.1550  129.1130   58.6560 F   0  0  0  0  0  0  0  0  0  0  0  0
  130.7090  128.8100   60.8810 C   0  0  1  0  0  0  0  0  0  0  0  0
  129.8710  129.1160   61.9770 O   0  0  0  0  0  0  0  0  0  0  0  0
  131.2740  127.3630   60.9920 C   0  0  0  0  0  0  0  0  0  0  0  0
  130.2720  126.2450   60.5560 C   0  0  1  0  0  0  0  0  0  0  0  0
  129.0390  126.2100   61.5210 C   0  0  0  0  0  0  0  0  0  0  0  0
  130.8230  124.7690   60.3840 C   0  0  2  0  0  0  0  0  0  0  0  0
  132.3460  124.7000   60.0670 C   0  0  0  0  0  0  0  0  0  0  0  0
  132.7620  124.6040   58.9090 O   0  0  0  0  0  0  0  0  0  0  0  0
  133.3140  124.7590   61.2540 C   0  0  0  0  0  0  0  0  0  0  0  0
  132.6570  125.2410   62.4170 O   0  0  0  0  0  0  0  0  0  0  0  0
  133.0140  124.5000   63.8690 S   0  0  0  0  0  0  0  0  0  0  0  0
  131.5840  125.1860   64.8940 C   0  0  0  0  0  0  0  0  0  0  0  0
  132.8540  123.0500   63.7130 O   0  0  0  0  0  0  0  0  0  0  0  0
  134.2690  125.0700   64.3700 O   0  0  0  0  0  0  0  0  0  0  0  0
  130.5350  123.9160   61.4870 O   0  0  0  0  0  0  0  0  0  0  0  0
  129.0960  122.6429   63.1140 H   0  0  0  0  0  0  0  0  0  0  0  0
  127.8671  123.2598   61.9581 H   0  0  0  0  0  0  0  0  0  0  0  0
  128.3054  121.5178   61.9581 H   0  0  0  0  0  0  0  0  0  0  0  0
  131.0228  121.2263   61.8592 H   0  0  0  0  0  0  0  0  0  0  0  0
  130.1893  120.8347   60.3170 H   0  0  0  0  0  0  0  0  0  0  0  0
  131.6062  121.9388   60.3170 H   0  0  0  0  0  0  0  0  0  0  0  0
  130.5606  123.6892   58.4074 H   0  0  0  0  0  0  0  0  0  0  0  0
  129.2126  125.2382   57.4941 H   0  0  0  0  0  0  0  0  0  0  0  0
  128.1093  125.2561   58.8621 H   0  0  0  0  0  0  0  0  0  0  0  0
  130.7133  126.7689   58.4234 H   0  0  0  0  0  0  0  0  0  0  0  0
  128.2602  127.9183   59.5783 H   0  0  0  0  0  0  0  0  0  0  0  0
  129.5392  128.1257   56.8203 H   0  0  0  0  0  0  0  0  0  0  0  0
  127.9113  127.4351   57.2702 H   0  0  0  0  0  0  0  0  0  0  0  0
  127.7728  129.7276   56.2464 H   0  0  0  0  0  0  0  0  0  0  0  0
  127.0873  129.6332   57.8944 H   0  0  0  0  0  0  0  0  0  0  0  0
  129.1828  131.5149   55.8665 H   0  0  0  0  0  0  0  0  0  0  0  0
  132.0799  131.3990   58.3929 H   0  0  0  0  0  0  0  0  0  0  0  0
  131.8284  133.1177   58.8862 H   0  0  0  0  0  0  0  0  0  0  0  0
  130.9323  131.4453   60.5285 H   0  0  0  0  0  0  0  0  0  0  0  0
  129.6793  132.6002   59.8112 H   0  0  0  0  0  0  0  0  0  0  0  0
  128.3607  130.6887   61.1953 H   0  0  0  0  0  0  0  0  0  0  0  0
  127.6471  131.6972   59.8913 H   0  0  0  0  0  0  0  0  0  0  0  0
  127.3944  129.9188   59.8913 H   0  0  0  0  0  0  0  0  0  0  0  0
  131.5536  129.5114   60.9500 H   0  0  0  0  0  0  0  0  0  0  0  0
  130.1990  129.9140   62.3990 H   0  0  0  0  0  0  0  0  0  0  0  0
  132.1675  127.2924   60.3543 H   0  0  0  0  0  0  0  0  0  0  0  0
  131.4931  127.1916   62.0562 H   0  0  0  0  0  0  0  0  0  0  0  0
  129.3891  126.2199   62.5638 H   0  0  0  0  0  0  0  0  0  0  0  0
  128.4055  127.0905   61.3385 H   0  0  0  0  0  0  0  0  0  0  0  0
  128.4564  125.2950   61.3385 H   0  0  0  0  0  0  0  0  0  0  0  0
  133.7036  123.7496   61.4521 H   0  0  0  0  0  0  0  0  0  0  0  0
  134.1369  125.4448   61.0041 H   0  0  0  0  0  0  0  0  0  0  0  0
  131.8139  125.0757   65.9640 H   0  0  0  0  0  0  0  0  0  0  0  0
  131.4410  126.2507   64.6575 H   0  0  0  0  0  0  0  0  0  0  0  0
  130.6641  124.6311   64.6575 H   0  0  0  0  0  0  0  0  0  0  0  0
  1  2  1  0
  2  3  1  0
  2  4  1  0
  4  5  1  0
  5  6  1  0
  6  7  1  0
  7  8  1  0
  8  9  1  0
  9 10  1  0
 10 11  1  0
 11 12  2  0
 12 13  1  0
 13 14  2  0
 13 15  1  0
 15 16  1  0
 16 17  1  0
 17 18  1  1
 17 19  1  0
 19 20  1  6
 19 21  1  0
 21 22  1  0
 21 23  1  0
 23 24  1  0
 24 25  1  1
 24 26  1  0
 26 27  1  6
 27 28  2  0
 27 29  1  0
 29 30  1  0
 30 31  1  0
 31 32  1  0
 31 33  2  0
 31 34  2  0
 26 35  1  0
 35  2  1  0
 26  5  1  0
 24  7  1  0
 19  8  1  0
 17 11  1  0
  1 36  1  0
  1 37  1  0
  1 38  1  0
  3 39  1  0
  3 40  1  0
  3 41  1  0
  5 42  1  6
  6 43  1  0
  6 44  1  0
  7 45  1  6
  8 46  1  1
  9 47  1  0
  9 48  1  0
 10 49  1  0
 10 50  1  0
 12 51  1  0
 15 52  1  0
 15 53  1  0
 16 54  1  0
 16 55  1  0
 18 56  1  0
 18 57  1  0
 18 58  1  0
 21 59  1  1
 22 60  1  0
 23 61  1  0
 23 62  1  0
 25 63  1  0
 25 64  1  0
 25 65  1  0
 29 66  1  0
 29 67  1  0
 32 68  1  0
 32 69  1  0
 32 70  1  0
M  END
>  <Binding energies>  (1) 
[-8.26]

>  <Ligand effiencies>  (1) 
[-0.22944444444444445]

>  <Interactions>  (1) 
["V-B:ALA:541:CB:9864, H-A:ARG:545:NH1:4927, V-B:TYR:539:CE2:9848, V-A:ASP:366:CG:3213, V-B:TYR:539:CZ:9849, H-B:TYR:539:OH:9850, H-A:GLY:454:N:4050, V-B:TYR:539:CD2:9846, V-A:MET:535:CE:4835, V-A:LEU:475:CD2:4259, H-A:ARG:545:NH2:4928, V-A:ARG:545:CZ:4926, H-A:GLU:543:OE1:4909, V-A:PRO:540:N:4884, H-A:TYR:539:N:4870, V-A:PRO:540:CB:4885, V-A:PRO:540:CA:4883, H-A:ARG:545:NE:4924, H-A:TYR:484:OH:4348"]

$$$$
ZINC2333271043-again1
     RDKit          3D

 70 72  0  0  0  0  0  0  0  0999 V2000
  125.9860  122.2510   56.4900 C   0  0  0  0  0  0  0  0  0  0  0  0
  125.8460  123.6220   57.1700 C   0  0  0  0  0  0  0  0  0  0  0  0
  127.0270  124.5780   56.9130 C   0  0  0  0  0  0  0  0  0  0  0  0
  126.7790  126.0330   57.3700 C   0  0  0  0  0  0  0  0  0  0  0  0
  128.0260  126.7260   57.9650 C   0  0  2  0  0  0  0  0  0  0  0  0
  129.1740  126.7720   56.9410 C   0  0  0  0  0  0  0  0  0  0  0  0
  128.4790  126.0750   59.2680 C   0  0  0  0  0  0  0  0  0  0  0  0
  127.9700  126.2670   60.5120 C   0  0  0  0  0  0  0  0  0  0  0  0
  126.7960  127.1820   60.8600 C   0  0  0  0  0  0  0  0  0  0  0  0
  128.5140  125.5560   61.6560 C   0  0  0  0  0  0  0  0  0  0  0  0
  128.0670  124.4590   62.0000 O   0  0  0  0  0  0  0  0  0  0  0  0
  129.5440  126.1920   62.2650 N   0  0  0  0  0  0  0  0  0  0  0  0
  130.3090  125.7920   63.3320 C   0  0  0  0  0  0  0  0  0  0  0  0
  129.8300  125.4530   64.5720 C   0  0  0  0  0  0  0  0  0  0  0  0
  130.7400  125.0330   65.7550 C   0  0  2  0  0  0  0  0  0  0  0  0
  130.6060  123.6380   65.9930 O   0  0  0  0  0  0  0  0  0  0  0  0
  130.4050  125.8730   66.9850 C   0  0  0  0  0  0  0  0  0  0  0  0
  129.1970  126.0200   67.5650 C   0  0  0  0  0  0  0  0  0  0  0  0
  128.9860  126.8420   68.7410 C   0  0  0  0  0  0  0  0  0  0  0  0
  129.9270  127.6570   69.2470 C   0  0  0  0  0  0  0  0  0  0  0  0
  129.7080  128.4820   70.4200 C   0  0  0  0  0  0  0  0  0  0  0  0
  129.7410  127.9900   71.6750 C   0  0  0  0  0  0  0  0  0  0  0  0
  129.5270  128.8140   72.8450 C   0  0  0  0  0  0  0  0  0  0  0  0
  129.4950  128.3590   73.9910 O   0  0  0  0  0  0  0  0  0  0  0  0
  129.3720  130.1180   72.5340 N   0  0  0  0  0  0  0  0  0  0  0  0
  129.1690  131.1810   73.4380 C   0  0  0  0  0  0  0  0  0  0  0  0
  129.1520  131.1240   74.8600 C   0  0  0  0  0  0  0  0  0  0  0  0
  129.3730  130.1230   75.6150 O   0  0  0  0  0  0  0  0  0  0  0  0
  128.8510  132.5290   75.3630 C   0  0  0  0  0  0  0  0  0  0  0  0
  128.9100  133.4320   74.1400 C   0  0  0  0  0  0  0  0  0  0  0  0
  129.0390  132.5040   72.9430 C   0  0  0  0  0  0  0  0  0  0  0  0
  129.0320  132.8880   71.7280 O   0  0  0  0  0  0  0  0  0  0  0  0
  132.1900  125.4110   65.2970 C   0  0  1  0  0  0  0  0  0  0  0  0
  133.3160  124.6410   65.0370 O   0  0  0  0  0  0  0  0  0  0  0  0
  132.3790  124.5890   63.9980 C   0  0  2  0  0  0  0  0  0  0  0  0
  131.7580  125.6200   63.0410 C   0  0  0  0  0  0  0  0  0  0  0  0
  132.3800  126.1600   62.1260 O   0  0  0  0  0  0  0  0  0  0  0  0
  126.0660  121.4674   57.2578 H   0  0  0  0  0  0  0  0  0  0  0  0
  125.1026  122.0609   55.8627 H   0  0  0  0  0  0  0  0  0  0  0  0
  126.8896  122.2434   55.8627 H   0  0  0  0  0  0  0  0  0  0  0  0
  124.9280  124.0998   56.7973 H   0  0  0  0  0  0  0  0  0  0  0  0
  125.8198  123.4361   58.2539 H   0  0  0  0  0  0  0  0  0  0  0  0
  127.9054  124.1928   57.4516 H   0  0  0  0  0  0  0  0  0  0  0  0
  127.1739  124.6110   55.8234 H   0  0  0  0  0  0  0  0  0  0  0  0
  126.4411  126.6159   56.5005 H   0  0  0  0  0  0  0  0  0  0  0  0
  126.0256  125.9913   58.1704 H   0  0  0  0  0  0  0  0  0  0  0  0
  127.7371  127.7599   58.2049 H   0  0  0  0  0  0  0  0  0  0  0  0
  130.1370  126.8106   57.4713 H   0  0  0  0  0  0  0  0  0  0  0  0
  129.1387  125.8717   56.3099 H   0  0  0  0  0  0  0  0  0  0  0  0
  129.0668  127.6666   56.3099 H   0  0  0  0  0  0  0  0  0  0  0  0
  129.3168  125.3664   59.1907 H   0  0  0  0  0  0  0  0  0  0  0  0
  126.7006  127.2563   61.9533 H   0  0  0  0  0  0  0  0  0  0  0  0
  126.9734  128.1825   60.4385 H   0  0  0  0  0  0  0  0  0  0  0  0
  125.8692  126.7657   60.4385 H   0  0  0  0  0  0  0  0  0  0  0  0
  129.7520  127.1210   61.9290 H   0  0  0  0  0  0  0  0  0  0  0  0
  128.7426  125.4806   64.7357 H   0  0  0  0  0  0  0  0  0  0  0  0
  131.4360  123.2130   65.7710 H   0  0  0  0  0  0  0  0  0  0  0  0
  131.2406  126.4178   67.4486 H   0  0  0  0  0  0  0  0  0  0  0  0
  128.3352  125.4944   67.1279 H   0  0  0  0  0  0  0  0  0  0  0  0
  128.0083  126.7961   69.2431 H   0  0  0  0  0  0  0  0  0  0  0  0
  130.9071  127.7005   68.7496 H   0  0  0  0  0  0  0  0  0  0  0  0
  129.5065  129.5542   70.2797 H   0  0  0  0  0  0  0  0  0  0  0  0
  129.9389  126.9171   71.8153 H   0  0  0  0  0  0  0  0  0  0  0  0
  129.1960  130.3380   71.5650 H   0  0  0  0  0  0  0  0  0  0  0  0
  127.8502  132.5662   75.8180 H   0  0  0  0  0  0  0  0  0  0  0  0
  129.5704  132.8448   76.1329 H   0  0  0  0  0  0  0  0  0  0  0  0
  127.9909  134.0314   74.0622 H   0  0  0  0  0  0  0  0  0  0  0  0
  129.7532  134.1360   74.1980 H   0  0  0  0  0  0  0  0  0  0  0  0
  132.1846  126.3736   65.8294 H   0  0  0  0  0  0  0  0  0  0  0  0
  132.2787  123.7227   63.3275 H   0  0  0  0  0  0  0  0  0  0  0  0
  1  2  1  0
  2  3  1  0
  3  4  1  0
  4  5  1  0
  5  6  1  0
  5  7  1  0
  7  8  2  0
  8  9  1  0
  8 10  1  0
 10 11  2  0
 10 12  1  0
 12 13  1  0
 13 14  2  0
 14 15  1  0
 15 16  1  1
 15 17  1  0
 17 18  2  0
 18 19  1  0
 19 20  2  0
 20 21  1  0
 21 22  2  0
 22 23  1  0
 23 24  2  0
 23 25  1  0
 25 26  1  0
 26 27  2  0
 27 28  1  0
 27 29  1  0
 29 30  1  0
 30 31  1  0
 31 32  2  0
 15 33  1  0
 33 34  1  0
 34 35  1  0
 35 36  1  0
 36 37  2  0
 36 13  1  0
 31 26  1  0
 35 33  1  0
  1 38  1  0
  1 39  1  0
  1 40  1  0
  2 41  1  0
  2 42  1  0
  3 43  1  0
  3 44  1  0
  4 45  1  0
  4 46  1  0
  5 47  1  1
  6 48  1  0
  6 49  1  0
  6 50  1  0
  7 51  1  0
  9 52  1  0
  9 53  1  0
  9 54  1  0
 12 55  1  0
 14 56  1  0
 16 57  1  0
 17 58  1  0
 18 59  1  0
 19 60  1  0
 20 61  1  0
 21 62  1  0
 22 63  1  0
 25 64  1  0
 29 65  1  0
 29 66  1  0
 30 67  1  0
 30 68  1  0
 33 69  1  6
 35 70  1  1
M  CHG  1  28  -1
M  END
>  <Binding energies>  (1) 
[-10.02]

>  <Ligand effiencies>  (1) 
[-0.2505]

>  <Interactions>  (1) 
["V-B:PRO:540:CA:9855, V-B:HIS:456:CD2:9039, V-A:GLU:543:C:4902, V-B:GLU:543:CB:9878, V-B:GLU:543:CG:9879, V-B:TYR:539:C:9839, V-B:ILE:538:CG2:9835, V-B:TYR:531:CZ:9766, V-A:GLU:543:CD:4908, V-B:PRO:540:CB:9857, V-B:TYR:484:CB:9312, V-B:GLU:543:CA:9876, H-A:GLY:454:N:4050, V-B:HIS:456:CE1:9041, V-B:PRO:540:N:9856, V-A:HIS:456:CE1:4070, H-B:HIS:456:NE2:9042, V-B:PRO:540:CD:9859, V-B:GLU:543:CD:9880, H-A:LYS:547:NZ:4951, H-A:ARG:545:NH2:4928, V-A:ARG:545:CZ:4926, H-A:GLU:543:OE1:4909, V-A:GLU:543:CB:4906, V-A:LYS:547:CE:4950, H-A:ARG:545:NE:4924, V-B:MET:535:CE:9807, H-A:TYR:484:OH:4348, H-A:GLU:543:O:4903"]

$$$$
ZINC2333287863
     RDKit          3D

 80 82  0  0  0  0  0  0  0  0999 V2000
  127.6600  130.4240   60.5280 C   0  0  0  0  0  0  0  0  0  0  0  0
  128.2650  131.2520   59.5410 O   0  0  0  0  0  0  0  0  0  0  0  0
  129.1240  132.2720   59.9810 C   0  0  2  0  0  0  0  0  0  0  0  0
  128.5200  133.0350   61.1660 C   0  0  0  0  0  0  0  0  0  0  0  0
  129.3170  133.2260   58.7860 C   0  0  0  0  0  0  0  0  0  0  0  0
  130.1730  132.5800   57.6850 C   0  0  1  0  0  0  0  0  0  0  0  0
  129.5110  131.9970   56.4740 C   0  0  0  0  0  0  0  0  0  0  0  0
  130.1960  133.2280   56.4410 O   0  0  0  0  0  0  0  0  0  0  0  0
  131.5070  132.0410   58.2400 C   0  0  2  0  0  0  0  0  0  0  0  0
  132.2950  131.4040   57.2450 O   0  0  0  0  0  0  0  0  0  0  0  0
  131.2400  131.1320   59.4640 C   0  0  2  0  0  0  0  0  0  0  0  0
  130.7080  129.7550   59.0680 C   0  0  0  0  0  0  0  0  0  0  0  0
  131.4720  128.7200   58.6680 C   0  0  0  0  0  0  0  0  0  0  0  0
  130.9820  127.4030   58.2760 C   0  0  0  0  0  0  0  0  0  0  0  0
  131.9380  126.2280   58.4200 C   0  0  0  0  0  0  0  0  0  0  0  0
  129.7070  127.2490   57.8430 C   0  0  0  0  0  0  0  0  0  0  0  0
  129.0190  125.9820   57.3480 C   0  0  0  0  0  0  0  0  0  0  0  0
  127.7700  125.5110   58.1410 C   0  0  2  0  0  0  0  0  0  0  0  0
  127.7210  126.2580   59.3650 O   0  0  0  0  0  0  0  0  0  0  0  0
  126.5340  126.0740   60.1420 C   0  0  2  0  0  0  0  0  0  0  0  0
  126.5670  127.0850   61.3020 C   0  0  0  0  0  0  0  0  0  0  0  0
  126.4360  124.5900   60.6060 C   0  0  2  0  0  0  0  0  0  0  0  0
  127.4310  124.1890   61.6120 N   0  0  0  0  0  0  0  0  0  0  0  0
  128.1220  123.0330   61.6190 C   0  0  0  0  0  0  0  0  0  0  0  0
  127.9620  122.1400   60.7850 O   0  0  0  0  0  0  0  0  0  0  0  0
  129.0750  122.9490   62.7010 C   0  0  0  0  0  0  0  0  0  0  0  0
  129.5480  124.0370   63.3450 C   0  0  0  0  0  0  0  0  0  0  0  0
  130.5640  124.0430   64.4820 C   0  0  2  0  0  0  0  0  0  0  0  0
  130.6570  125.4300   65.1510 C   0  0  0  0  0  0  0  0  0  0  0  0
  131.8540  123.6160   64.0320 O   0  0  0  0  0  0  0  0  0  0  0  0
  132.8430  124.4910   63.7460 C   0  0  0  0  0  0  0  0  0  0  0  0
  132.6770  125.1140   62.3670 C   0  0  0  0  0  0  0  0  0  0  0  0
  133.7920  124.7850   64.4750 O   0  0  0  0  0  0  0  0  0  0  0  0
  126.5080  123.7090   59.3450 C   0  0  0  0  0  0  0  0  0  0  0  0
  127.7740  123.9950   58.4990 C   0  0  1  0  0  0  0  0  0  0  0  0
  127.7580  123.0720   57.2600 C   0  0  0  0  0  0  0  0  0  0  0  0
  130.3790  131.7820   60.4220 O   0  0  0  0  0  0  0  0  0  0  0  0
  127.9284  130.7914   61.5295 H   0  0  0  0  0  0  0  0  0  0  0  0
  126.5668  130.4502   60.4087 H   0  0  0  0  0  0  0  0  0  0  0  0
  128.0172  129.3905   60.4087 H   0  0  0  0  0  0  0  0  0  0  0  0
  128.8730  132.5890   62.1075 H   0  0  0  0  0  0  0  0  0  0  0  0
  128.8310  134.0891   61.1203 H   0  0  0  0  0  0  0  0  0  0  0  0
  127.4226  132.9742   61.1203 H   0  0  0  0  0  0  0  0  0  0  0  0
  128.3316  133.4816   58.3694 H   0  0  0  0  0  0  0  0  0  0  0  0
  129.8357  134.1278   59.1433 H   0  0  0  0  0  0  0  0  0  0  0  0
  129.9355  131.1105   55.9802 H   0  0  0  0  0  0  0  0  0  0  0  0
  128.5010  131.6459   56.2157 H   0  0  0  0  0  0  0  0  0  0  0  0
  132.1094  132.8976   58.5767 H   0  0  0  0  0  0  0  0  0  0  0  0
  132.4300  130.4900   57.5060 H   0  0  0  0  0  0  0  0  0  0  0  0
  132.2119  130.9598   59.9496 H   0  0  0  0  0  0  0  0  0  0  0  0
  129.6203  129.5973   59.1129 H   0  0  0  0  0  0  0  0  0  0  0  0
  132.5595  128.8820   58.6340 H   0  0  0  0  0  0  0  0  0  0  0  0
  132.1064  126.0210   59.4871 H   0  0  0  0  0  0  0  0  0  0  0  0
  131.5027  125.3400   57.9385 H   0  0  0  0  0  0  0  0  0  0  0  0
  132.8960  126.4736   57.9385 H   0  0  0  0  0  0  0  0  0  0  0  0
  129.0872  128.1577   57.8496 H   0  0  0  0  0  0  0  0  0  0  0  0
  128.7069  126.1570   56.3078 H   0  0  0  0  0  0  0  0  0  0  0  0
  129.7618  125.1809   57.4765 H   0  0  0  0  0  0  0  0  0  0  0  0
  126.8964  125.6797   57.4942 H   0  0  0  0  0  0  0  0  0  0  0  0
  125.6239  126.2669   59.5550 H   0  0  0  0  0  0  0  0  0  0  0  0
  126.5494  126.5446   62.2600 H   0  0  0  0  0  0  0  0  0  0  0  0
  127.4853  127.6872   61.2376 H   0  0  0  0  0  0  0  0  0  0  0  0
  125.6899  127.7458   61.2376 H   0  0  0  0  0  0  0  0  0  0  0  0
  125.4792  124.4588   61.1325 H   0  0  0  0  0  0  0  0  0  0  0  0
  127.6300  124.8700   62.3300 H   0  0  0  0  0  0  0  0  0  0  0  0
  129.4305  121.9561   63.0136 H   0  0  0  0  0  0  0  0  0  0  0  0
  129.1631  125.0141   63.0178 H   0  0  0  0  0  0  0  0  0  0  0  0
  130.2088  123.3249   65.2357 H   0  0  0  0  0  0  0  0  0  0  0  0
  130.6490  125.3109   66.2445 H   0  0  0  0  0  0  0  0  0  0  0  0
  131.5903  125.9239   64.8428 H   0  0  0  0  0  0  0  0  0  0  0  0
  129.7980  126.0441   64.8428 H   0  0  0  0  0  0  0  0  0  0  0  0
  132.3951  126.1719   62.4741 H   0  0  0  0  0  0  0  0  0  0  0  0
  133.6258  125.0414   61.8152 H   0  0  0  0  0  0  0  0  0  0  0  0
  131.8901  124.5789   61.8152 H   0  0  0  0  0  0  0  0  0  0  0  0
  126.5188  122.6527   59.6517 H   0  0  0  0  0  0  0  0  0  0  0  0
  125.6295  123.9382   58.7239 H   0  0  0  0  0  0  0  0  0  0  0  0
  128.7052  123.7805   59.0438 H   0  0  0  0  0  0  0  0  0  0  0  0
  127.7398  122.0215   57.5856 H   0  0  0  0  0  0  0  0  0  0  0  0
  126.8634  123.2843   56.6562 H   0  0  0  0  0  0  0  0  0  0  0  0
  128.6594  123.2532   56.6562 H   0  0  0  0  0  0  0  0  0  0  0  0
  1  2  1  0
  3  2  1  6
  3  4  1  0
  3  5  1  0
  5  6  1  0
  6  7  1  0
  7  8  1  0
  6  9  1  0
  9 10  1  0
  9 11  1  0
 11 12  1  0
 12 13  2  0
 13 14  1  0
 14 15  1  0
 14 16  2  0
 16 17  1  0
 17 18  1  0
 18 19  1  0
 19 20  1  0
 20 21  1  0
 20 22  1  0
 22 23  1  0
 23 24  1  0
 24 25  2  0
 24 26  1  0
 26 27  2  0
 27 28  1  0
 28 29  1  0
 28 30  1  0
 30 31  1  0
 31 32  1  0
 31 33  2  0
 22 34  1  0
 34 35  1  0
 35 36  1  0
 11 37  1  0
 37  3  1  0
  6  8  1  6
 35 18  1  0
  1 38  1  0
  1 39  1  0
  1 40  1  0
  4 41  1  0
  4 42  1  0
  4 43  1  0
  5 44  1  0
  5 45  1  0
  7 46  1  0
  7 47  1  0
  9 48  1  1
 10 49  1  0
 11 50  1  1
 12 51  1  0
 13 52  1  0
 15 53  1  0
 15 54  1  0
 15 55  1  0
 16 56  1  0
 17 57  1  0
 17 58  1  0
 18 59  1  6
 20 60  1  6
 21 61  1  0
 21 62  1  0
 21 63  1  0
 22 64  1  1
 23 65  1  0
 26 66  1  0
 27 67  1  0
 28 68  1  1
 29 69  1  0
 29 70  1  0
 29 71  1  0
 32 72  1  0
 32 73  1  0
 32 74  1  0
 34 75  1  0
 34 76  1  0
 35 77  1  1
 36 78  1  0
 36 79  1  0
 36 80  1  0
M  END
>  <Binding energies>  (1) 
[-8.32]

>  <Ligand effiencies>  (1) 
[-0.21333333333333335]

>  <Interactions>  (1) 
["V-B:PRO:540:CA:9855, V-B:ASP:366:CG:8184, V-B:ALA:541:CB:9864, H-A:TYR:531:OH:4795, V-B:TYR:539:CE2:9848, V-B:GLU:543:CG:9879, V-A:ASP:366:CG:3213, V-A:TYR:539:CD1:4873, V-B:TYR:539:CZ:9849, H-B:GLU:543:OE1:9881, H-B:ALA:541:N:9863, V-A:TYR:539:CA:4869, V-A:GLU:543:CD:4908, V-B:PRO:540:CB:9857, H-A:GLY:454:N:4050, V-B:TYR:539:CD2:9846, V-A:MET:535:CE:4835, V-B:GLU:543:CD:9880, V-A:TYR:539:C:4867, V-A:ASP:366:CB:3212, H-A:ARG:545:NH2:4928, V-A:ARG:545:CZ:4926, V-B:TYR:539:CG:9844, V-B:TYR:539:CD1:9845, V-A:PRO:540:N:4884, H-A:TYR:539:N:4870, V-A:PRO:540:CB:4885, V-A:PRO:540:CA:4883, H-A:ARG:545:NE:4924, V-B:TYR:539:CE1:9847, H-A:TYR:484:OH:4348"]

$$$$
ZINC2334210147
     RDKit          3D

 63 64  0  0  0  0  0  0  0  0999 V2000
  129.0620  122.6820   61.9730 C   0  0  0  0  0  0  0  0  0  0  0  0
  129.5580  122.1560   63.1030 C   0  0  0  0  0  0  0  0  0  0  0  0
  129.5060  122.8270   64.4630 C   0  0  0  0  0  0  0  0  0  0  0  0
  130.8700  123.3080   65.0050 C   0  0  0  0  0  0  0  0  0  0  0  0
  131.0900  124.8500   65.0770 C   0  0  0  0  0  0  0  0  0  0  0  0
  132.4480  125.3320   64.4600 C   0  0  1  0  0  0  0  0  0  0  0  0
  133.5580  124.7020   65.0810 O   0  0  0  0  0  0  0  0  0  0  0  0
  132.5540  125.1210   62.9270 C   0  0  0  0  0  0  0  0  0  0  0  0
  133.5210  123.9980   62.4730 C   0  0  1  0  0  0  0  0  0  0  0  0
  132.7900  122.6900   62.1150 C   0  0  0  0  0  0  0  0  0  0  0  0
  133.4940  122.1440   60.8710 C   0  0  0  0  0  0  0  0  0  0  0  0
  133.9530  123.3880   60.1020 C   0  0  1  0  0  0  0  0  0  0  0  0
  132.8720  123.9800   59.1610 C   0  0  0  0  0  0  0  0  0  0  0  0
  133.3990  124.5370   57.9600 O   0  0  0  0  0  0  0  0  0  0  0  0
  132.8470  125.7900   57.5780 C   0  0  0  0  0  0  0  0  0  0  0  0
  134.3600  124.3610   61.2240 C   0  0  0  0  0  0  0  0  0  0  0  0
  129.8530  125.6350   64.5620 C   0  0  0  0  0  0  0  0  0  0  0  0
  129.7380  126.1870   65.9280 N   0  0  0  0  0  0  0  0  0  0  0  0
  128.8630  127.1110   66.4740 C   0  0  0  0  0  0  0  0  0  0  0  0
  128.3560  128.0480   65.8570 O   0  0  0  0  0  0  0  0  0  0  0  0
  128.6470  126.8210   67.7890 O   0  0  0  0  0  0  0  0  0  0  0  0
  129.0840  127.6190   68.9040 C   0  0  0  0  0  0  0  0  0  0  0  0
  130.5990  127.4340   69.1700 C   0  0  0  0  0  0  0  0  0  0  0  0
  128.7350  129.1130   68.7000 C   0  0  0  0  0  0  0  0  0  0  0  0
  128.2870  127.0670   70.1040 C   0  0  0  0  0  0  0  0  0  0  0  0
  130.8390  125.3870   66.5100 C   0  0  0  0  0  0  0  0  0  0  0  0
  129.1420  122.1270   61.0266 H   0  0  0  0  0  0  0  0  0  0  0  0
  128.5753  123.6683   61.9928 H   0  0  0  0  0  0  0  0  0  0  0  0
  130.0366  121.1676   63.0391 H   0  0  0  0  0  0  0  0  0  0  0  0
  128.8414  123.7003   64.3877 H   0  0  0  0  0  0  0  0  0  0  0  0
  129.1458  122.0643   65.1690 H   0  0  0  0  0  0  0  0  0  0  0  0
  130.9845  122.9070   66.0229 H   0  0  0  0  0  0  0  0  0  0  0  0
  131.6138  122.9431   64.2814 H   0  0  0  0  0  0  0  0  0  0  0  0
  132.4675  126.4150   64.6519 H   0  0  0  0  0  0  0  0  0  0  0  0
  133.2720  124.3460   65.9260 H   0  0  0  0  0  0  0  0  0  0  0  0
  131.5504  124.8775   62.5483 H   0  0  0  0  0  0  0  0  0  0  0  0
  132.9663  126.0566   62.5213 H   0  0  0  0  0  0  0  0  0  0  0  0
  134.1738  123.8689   63.3489 H   0  0  0  0  0  0  0  0  0  0  0  0
  132.8647  121.9706   62.9438 H   0  0  0  0  0  0  0  0  0  0  0  0
  131.7194  122.8628   61.9304 H   0  0  0  0  0  0  0  0  0  0  0  0
  134.3570  121.5239   61.1551 H   0  0  0  0  0  0  0  0  0  0  0  0
  132.8334  121.5038   60.2679 H   0  0  0  0  0  0  0  0  0  0  0  0
  134.7727  123.1618   59.4041 H   0  0  0  0  0  0  0  0  0  0  0  0
  132.1689  123.1779   58.8922 H   0  0  0  0  0  0  0  0  0  0  0  0
  132.3846  124.8003   59.7083 H   0  0  0  0  0  0  0  0  0  0  0  0
  132.5923  126.3682   58.4784 H   0  0  0  0  0  0  0  0  0  0  0  0
  133.5827  126.3478   56.9800 H   0  0  0  0  0  0  0  0  0  0  0  0
  131.9389  125.6236   56.9800 H   0  0  0  0  0  0  0  0  0  0  0  0
  135.4320  124.2529   61.4459 H   0  0  0  0  0  0  0  0  0  0  0  0
  134.1784  125.4029   60.9216 H   0  0  0  0  0  0  0  0  0  0  0  0
  130.0706  126.3782   63.7808 H   0  0  0  0  0  0  0  0  0  0  0  0
  129.0109  125.1355   64.0606 H   0  0  0  0  0  0  0  0  0  0  0  0
  130.7808  127.4118   70.2546 H   0  0  0  0  0  0  0  0  0  0  0  0
  130.9371  126.4879   68.7221 H   0  0  0  0  0  0  0  0  0  0  0  0
  131.1548  128.2709   68.7221 H   0  0  0  0  0  0  0  0  0  0  0  0
  128.6212  129.6000   69.6797 H   0  0  0  0  0  0  0  0  0  0  0  0
  129.5425  129.6047   68.1376 H   0  0  0  0  0  0  0  0  0  0  0  0
  127.7933  129.1961   68.1376 H   0  0  0  0  0  0  0  0  0  0  0  0
  128.7608  127.3951   71.0410 H   0  0  0  0  0  0  0  0  0  0  0  0
  127.2546  127.4445   70.0633 H   0  0  0  0  0  0  0  0  0  0  0  0
  128.2774  125.9678   70.0633 H   0  0  0  0  0  0  0  0  0  0  0  0
  131.6651  125.9777   66.9327 H   0  0  0  0  0  0  0  0  0  0  0  0
  130.6837  124.7153   67.3671 H   0  0  0  0  0  0  0  0  0  0  0  0
  1  2  2  0
  2  3  1  0
  3  4  1  0
  4  5  1  0
  5  6  1  0
  6  7  1  0
  6  8  1  0
  8  9  1  0
  9 10  1  0
 10 11  1  0
 11 12  1  0
 12 13  1  0
 13 14  1  0
 14 15  1  0
 12 16  1  0
  5 17  1  0
 17 18  1  0
 18 19  1  0
 19 20  2  0
 19 21  1  0
 21 22  1  0
 22 23  1  0
 22 24  1  0
 22 25  1  0
 18 26  1  0
 26  5  1  0
 16  9  1  0
  1 27  1  0
  1 28  1  0
  2 29  1  0
  3 30  1  0
  3 31  1  0
  4 32  1  0
  4 33  1  0
  6 34  1  6
  7 35  1  0
  8 36  1  0
  8 37  1  0
  9 38  1  1
 10 39  1  0
 10 40  1  0
 11 41  1  0
 11 42  1  0
 12 43  1  6
 13 44  1  0
 13 45  1  0
 15 46  1  0
 15 47  1  0
 15 48  1  0
 16 49  1  0
 16 50  1  0
 17 51  1  0
 17 52  1  0
 23 53  1  0
 23 54  1  0
 23 55  1  0
 24 56  1  0
 24 57  1  0
 24 58  1  0
 25 59  1  0
 25 60  1  0
 25 61  1  0
 26 62  1  0
 26 63  1  0
M  END
>  <Binding energies>  (1) 
[-6.78]

>  <Ligand effiencies>  (1) 
[-0.2511111111111111]

>  <Interactions>  (1) 
["V-A:ILE:369:CG2:3237, V-A:ASP:366:CA:3210, V-A:GLU:543:CA:4904, V-B:GLU:543:C:9874, V-A:ILE:369:CB:3236, V-A:GLU:543:C:4902, V-B:GLU:543:CB:9878, V-B:ALA:541:CB:9864, V-B:TYR:539:CE2:9848, V-A:TYR:484:CE2:4346, V-B:GLU:543:CG:9879, V-A:ASP:366:CG:3213, V-B:TYR:539:CZ:9849, H-B:TYR:539:OH:9850, V-A:TYR:484:CZ:4347, V-A:GLU:543:CD:4908, V-B:HIS:456:CE1:9041, H-A:GLY:454:N:4050, V-A:HIS:456:CE1:4070, V-A:ILE:369:CD1:3239, V-A:ASP:366:C:3208, V-A:GLU:543:CG:4907, V-A:TYR:531:CZ:4794, V-B:GLU:543:CD:9880, V-A:ASP:366:CB:3212, V-A:LEU:475:CD2:4259, H-A:ARG:545:NH2:4928, V-A:ARG:545:CZ:4926, V-A:GLU:543:CB:4906, H-A:ARG:545:NE:4924, H-A:TYR:484:OH:4348"]

$$$$
ZINC233748876
     RDKit          3D

 37 37  0  0  0  0  0  0  0  0999 V2000
  131.8550  126.0610   58.7600 C   0  0  0  0  0  0  0  0  0  0  0  0
  132.8550  125.7170   57.6530 C   0  0  0  0  0  0  0  0  0  0  0  0
  133.3730  124.4160   57.8900 O   0  0  0  0  0  0  0  0  0  0  0  0
  134.2030  124.3360   59.0400 C   0  0  0  0  0  0  0  0  0  0  0  0
  133.5580  123.3770   60.0560 C   0  0  0  0  0  0  0  0  0  0  0  0
  134.2120  123.3910   61.4510 C   0  0  0  0  0  0  0  0  0  0  0  0
  134.0700  124.6620   62.1490 N   0  0  0  0  0  0  0  0  0  0  0  0
  133.3800  124.8690   63.3220 C   0  0  0  0  0  0  0  0  0  0  0  0
  133.8930  124.8220   64.5330 N   0  0  0  0  0  0  0  0  0  0  0  0
  132.8900  125.0970   65.3480 C   0  0  0  0  0  0  0  0  0  0  0  0
  131.7150  125.3270   64.6530 C   0  0  0  0  0  0  0  0  0  0  0  0
  132.0320  125.1680   63.3280 N   0  0  0  0  0  0  0  0  0  0  0  0
  131.1370  125.3490   62.1910 C   0  0  0  0  0  0  0  0  0  0  0  0
  130.0730  124.2390   62.1620 C   0  0  0  0  0  0  0  0  0  0  0  0
  130.7530  122.5650   62.3110 S   0  0  0  0  0  0  0  0  0  0  0  0
  129.7600  121.7180   61.0540 C   0  0  0  0  0  0  0  0  0  0  0  0
  132.3246  125.8995   59.7415 H   0  0  0  0  0  0  0  0  0  0  0  0
  131.5531  127.1147   58.6669 H   0  0  0  0  0  0  0  0  0  0  0  0
  130.9688  125.4161   58.6669 H   0  0  0  0  0  0  0  0  0  0  0  0
  132.3482  125.7407   56.6770 H   0  0  0  0  0  0  0  0  0  0  0  0
  133.6750  126.4502   57.6501 H   0  0  0  0  0  0  0  0  0  0  0  0
  135.1952  123.9572   58.7534 H   0  0  0  0  0  0  0  0  0  0  0  0
  134.3142  125.3341   59.4889 H   0  0  0  0  0  0  0  0  0  0  0  0
  132.5003  123.6570   60.1694 H   0  0  0  0  0  0  0  0  0  0  0  0
  133.6931  122.3609   59.6570 H   0  0  0  0  0  0  0  0  0  0  0  0
  133.7448  122.6046   62.0620 H   0  0  0  0  0  0  0  0  0  0  0  0
  135.2890  123.2222   61.3041 H   0  0  0  0  0  0  0  0  0  0  0  0
  134.8130  125.3020   61.9060 H   0  0  0  0  0  0  0  0  0  0  0  0
  132.9778  125.1381   66.4437 H   0  0  0  0  0  0  0  0  0  0  0  0
  130.7322  125.5837   65.0753 H   0  0  0  0  0  0  0  0  0  0  0  0
  130.6387  126.3261   62.2743 H   0  0  0  0  0  0  0  0  0  0  0  0
  131.7260  125.3020   61.2632 H   0  0  0  0  0  0  0  0  0  0  0  0
  129.3762  124.4053   62.9968 H   0  0  0  0  0  0  0  0  0  0  0  0
  129.5785  124.2965   61.1811 H   0  0  0  0  0  0  0  0  0  0  0  0
  129.0117  121.0797   61.5466 H   0  0  0  0  0  0  0  0  0  0  0  0
  129.2499  122.4634   60.4262 H   0  0  0  0  0  0  0  0  0  0  0  0
  130.4156  121.0967   60.4262 H   0  0  0  0  0  0  0  0  0  0  0  0
  1  2  1  0
  2  3  1  0
  3  4  1  0
  4  5  1  0
  5  6  1  0
  6  7  1  0
  7  8  1  0
  8  9  2  0
  9 10  1  0
 10 11  2  0
 11 12  1  0
 12 13  1  0
 13 14  1  0
 14 15  1  0
 15 16  1  0
 12  8  1  0
  1 17  1  0
  1 18  1  0
  1 19  1  0
  2 20  1  0
  2 21  1  0
  4 22  1  0
  4 23  1  0
  5 24  1  0
  5 25  1  0
  6 26  1  0
  6 27  1  0
  7 28  1  0
 10 29  1  0
 11 30  1  0
 13 31  1  0
 13 32  1  0
 14 33  1  0
 14 34  1  0
 16 35  1  0
 16 36  1  0
 16 37  1  0
M  END
>  <Binding energies>  (1) 
[-3.62]

>  <Ligand effiencies>  (1) 
[-0.21294117647058824]

>  <Interactions>  (1) 
["V-A:ILE:369:CG2:3237, V-A:ASP:366:CA:3210, V-A:ILE:369:CD1:3239, V-A:ASP:366:C:3208, V-A:ILE:369:CB:3236, H-B:TYR:539:OH:9850, V-B:TYR:539:CD2:9846, V-A:TYR:531:CZ:4794, H-A:ARG:545:NE:4924, H-A:ARG:545:NH1:4927, V-B:TYR:539:CE2:9848, V-A:ASP:366:CB:3212, H-A:ARG:545:NH2:4928, V-A:ARG:545:CZ:4926, H-A:GLY:454:N:4050, V-A:ASP:366:CG:3213, H-A:TYR:484:OH:4348, H-A:ASP:366:OD1:3214"]

$$$$
ZINC233748876-again1
     RDKit          3D

 38 38  0  0  0  0  0  0  0  0999 V2000
  132.9140  123.2810   63.5360 C   0  0  0  0  0  0  0  0  0  0  0  0
  133.3890  124.7190   63.7680 C   0  0  0  0  0  0  0  0  0  0  0  0
  133.0500  125.1050   65.0920 O   0  0  0  0  0  0  0  0  0  0  0  0
  131.6610  125.3410   65.2810 C   0  0  0  0  0  0  0  0  0  0  0  0
  131.3870  125.4680   66.7920 C   0  0  0  0  0  0  0  0  0  0  0  0
  130.0810  124.8000   67.2640 C   0  0  0  0  0  0  0  0  0  0  0  0
  129.3360  125.5840   68.2590 N   0  0  0  0  0  0  0  0  0  0  0  0
  128.9430  126.8770   68.0790 C   0  0  0  0  0  0  0  0  0  0  0  0
  127.9890  127.3280   67.1870 N   0  0  0  0  0  0  0  0  0  0  0  0
  127.8550  128.6980   67.2970 C   0  0  0  0  0  0  0  0  0  0  0  0
  128.7450  129.1090   68.2780 C   0  0  0  0  0  0  0  0  0  0  0  0
  129.4240  127.9930   68.7570 N   0  0  0  0  0  0  0  0  0  0  0  0
  130.4320  128.0230   69.8180 C   0  0  0  0  0  0  0  0  0  0  0  0
  129.7670  128.1400   71.2010 C   0  0  0  0  0  0  0  0  0  0  0  0
  128.9070  126.6350   71.7250 S   0  0  0  0  0  0  0  0  0  0  0  0
  127.2410  127.0000   71.1130 C   0  0  0  0  0  0  0  0  0  0  0  0
  132.7511  122.7877   64.5056 H   0  0  0  0  0  0  0  0  0  0  0  0
  131.9721  123.2931   62.9679 H   0  0  0  0  0  0  0  0  0  0  0  0
  133.6778  122.7297   62.9679 H   0  0  0  0  0  0  0  0  0  0  0  0
  134.4795  124.7742   63.6346 H   0  0  0  0  0  0  0  0  0  0  0  0
  132.9048  125.3935   63.0465 H   0  0  0  0  0  0  0  0  0  0  0  0
  131.3702  126.2717   64.7718 H   0  0  0  0  0  0  0  0  0  0  0  0
  131.0771  124.5087   64.8610 H   0  0  0  0  0  0  0  0  0  0  0  0
  132.2249  125.0042   67.3331 H   0  0  0  0  0  0  0  0  0  0  0  0
  131.2815  126.5428   67.0011 H   0  0  0  0  0  0  0  0  0  0  0  0
  129.4336  124.6480   66.3878 H   0  0  0  0  0  0  0  0  0  0  0  0
  130.3639  123.8545   67.7498 H   0  0  0  0  0  0  0  0  0  0  0  0
  129.1090  125.1190   69.1260 H   0  0  0  0  0  0  0  0  0  0  0  0
  127.4660  126.7410   66.5530 H   0  0  0  0  0  0  0  0  0  0  0  0
  127.1740  129.3394   66.7184 H   0  0  0  0  0  0  0  0  0  0  0  0
  128.8899  130.1443   68.6202 H   0  0  0  0  0  0  0  0  0  0  0  0
  131.0236  127.0964   69.7796 H   0  0  0  0  0  0  0  0  0  0  0  0
  131.0803  128.8981   69.6635 H   0  0  0  0  0  0  0  0  0  0  0  0
  130.5460  128.3708   71.9425 H   0  0  0  0  0  0  0  0  0  0  0  0
  129.0093  128.9340   71.1272 H   0  0  0  0  0  0  0  0  0  0  0  0
  126.5617  127.1488   71.9653 H   0  0  0  0  0  0  0  0  0  0  0  0
  127.2672  127.9137   70.5011 H   0  0  0  0  0  0  0  0  0  0  0  0
  126.8827  126.1590   70.5011 H   0  0  0  0  0  0  0  0  0  0  0  0
  1  2  1  0
  2  3  1  0
  3  4  1  0
  4  5  1  0
  5  6  1  0
  6  7  1  0
  7  8  1  0
  8  9  2  0
  9 10  1  0
 10 11  2  0
 11 12  1  0
 12 13  1  0
 13 14  1  0
 14 15  1  0
 15 16  1  0
 12  8  1  0
  1 17  1  0
  1 18  1  0
  1 19  1  0
  2 20  1  0
  2 21  1  0
  4 22  1  0
  4 23  1  0
  5 24  1  0
  5 25  1  0
  6 26  1  0
  6 27  1  0
  7 28  1  0
  9 29  1  0
 10 30  1  0
 11 31  1  0
 13 32  1  0
 13 33  1  0
 14 34  1  0
 14 35  1  0
 16 36  1  0
 16 37  1  0
 16 38  1  0
M  CHG  1   9   1
M  END
>  <Binding energies>  (1) 
[-4.37]

>  <Ligand effiencies>  (1) 
[-0.2427777777777778]

>  <Interactions>  (1) 
["V-A:GLU:543:CA:4904, V-A:GLY:454:CA:4049, V-B:GLU:543:C:9874, V-B:HIS:456:CD2:9039, H-B:GLU:543:O:9875, V-A:GLU:543:C:4902, V-B:GLU:543:CB:9878, V-A:TYR:484:CE2:4346, V-B:GLU:543:CG:9879, H-B:GLU:543:OE1:9881, V-A:TYR:484:CZ:4347, V-A:GLU:543:CD:4908, V-B:GLU:543:CA:9876, V-B:HIS:456:CE1:9041, V-A:HIS:456:CE1:4070, V-B:GLY:544:C:9884, V-B:GLY:544:CA:9886, V-A:GLU:543:CG:4907, V-B:GLU:543:CD:9880, V-B:HIS:456:CG:9037, V-A:LEU:475:CD2:4259, H-A:ARG:545:NH2:4928, V-A:ARG:545:CZ:4926, V-A:GLU:543:CB:4906, H-B:GLU:543:OE2:9882, H-A:ARG:545:NE:4924, H-A:HIS:456:NE2:4071, H-A:TYR:484:OH:4348"]

$$$$
ZINC23384605
     RDKit          3D

 56 58  0  0  0  0  0  0  0  0999 V2000
  133.9690  126.3270   75.1060 C   0  0  0  0  0  0  0  0  0  0  0  0
  133.1380  126.6000   74.0880 C   0  0  0  0  0  0  0  0  0  0  0  0
  131.6300  126.4750   74.1420 C   0  0  0  0  0  0  0  0  0  0  0  0
  131.0280  127.6570   73.6250 O   0  0  0  0  0  0  0  0  0  0  0  0
  130.3630  127.6050   72.4140 C   0  0  0  0  0  0  0  0  0  0  0  0
  129.0170  127.2410   72.4590 C   0  0  0  0  0  0  0  0  0  0  0  0
  128.2650  127.1600   71.2910 C   0  0  0  0  0  0  0  0  0  0  0  0
  128.8570  127.4520   70.0590 C   0  0  0  0  0  0  0  0  0  0  0  0
  128.0430  127.3640   68.7730 C   0  0  0  0  0  0  0  0  0  0  0  0
  128.7250  127.9500   67.6120 N   0  0  0  0  0  0  0  0  0  0  0  0
  128.3530  129.3580   67.4870 C   0  0  0  0  0  0  0  0  0  0  0  0
  128.4400  127.2280   66.3610 C   0  0  0  0  0  0  0  0  0  0  0  0
  129.4950  126.2850   65.9360 N   0  0  0  0  0  0  0  0  0  0  0  0
  130.0160  125.3460   66.7700 C   0  0  0  0  0  0  0  0  0  0  0  0
  130.0390  125.3550   68.0000 O   0  0  0  0  0  0  0  0  0  0  0  0
  130.7560  124.5560   65.9830 N   0  0  0  0  0  0  0  0  0  0  0  0
  130.8650  125.0050   64.6210 C   0  0  1  0  0  0  0  0  0  0  0  0
  132.2890  125.4850   64.2070 C   0  0  0  0  0  0  0  0  0  0  0  0
  133.2850  124.3170   64.0930 C   0  0  0  0  0  0  0  0  0  0  0  0
  132.7740  123.2680   63.0900 C   0  0  0  0  0  0  0  0  0  0  0  0
  131.3420  122.8070   63.4250 C   0  0  0  0  0  0  0  0  0  0  0  0
  130.3310  123.9820   63.5560 C   0  0  1  0  0  0  0  0  0  0  0  0
  128.9100  123.4060   63.7570 C   0  0  0  0  0  0  0  0  0  0  0  0
  129.9500  126.2220   64.6650 C   0  0  0  0  0  0  0  0  0  0  0  0
  129.6700  126.9570   63.7140 O   0  0  0  0  0  0  0  0  0  0  0  0
  130.2040  127.8130   70.0040 C   0  0  0  0  0  0  0  0  0  0  0  0
  130.9550  127.8910   71.1740 C   0  0  0  0  0  0  0  0  0  0  0  0
  135.0548  126.4465   74.9768 H   0  0  0  0  0  0  0  0  0  0  0  0
  133.5642  125.9838   76.0695 H   0  0  0  0  0  0  0  0  0  0  0  0
  133.5864  126.9403   73.1429 H   0  0  0  0  0  0  0  0  0  0  0  0
  131.3136  125.6108   73.5395 H   0  0  0  0  0  0  0  0  0  0  0  0
  131.3150  126.3347   75.1865 H   0  0  0  0  0  0  0  0  0  0  0  0
  128.5456  127.0159   73.4271 H   0  0  0  0  0  0  0  0  0  0  0  0
  127.2059  126.8665   71.3372 H   0  0  0  0  0  0  0  0  0  0  0  0
  127.8400  126.3040   68.5602 H   0  0  0  0  0  0  0  0  0  0  0  0
  127.1191  127.9394   68.9325 H   0  0  0  0  0  0  0  0  0  0  0  0
  128.2370  129.7969   68.4889 H   0  0  0  0  0  0  0  0  0  0  0  0
  129.1394  129.8978   66.9390 H   0  0  0  0  0  0  0  0  0  0  0  0
  127.4027  129.4389   66.9390 H   0  0  0  0  0  0  0  0  0  0  0  0
  127.5082  126.6598   66.4984 H   0  0  0  0  0  0  0  0  0  0  0  0
  128.3704  127.9912   65.5719 H   0  0  0  0  0  0  0  0  0  0  0  0
  131.0290  123.6200   66.2420 H   0  0  0  0  0  0  0  0  0  0  0  0
  132.2231  125.9910   63.2325 H   0  0  0  0  0  0  0  0  0  0  0  0
  132.6561  126.1673   64.9878 H   0  0  0  0  0  0  0  0  0  0  0  0
  134.2567  124.7022   63.7502 H   0  0  0  0  0  0  0  0  0  0  0  0
  133.3913  123.8429   65.0799 H   0  0  0  0  0  0  0  0  0  0  0  0
  132.7801  123.7069   62.0814 H   0  0  0  0  0  0  0  0  0  0  0  0
  133.4370  122.3919   63.1435 H   0  0  0  0  0  0  0  0  0  0  0  0
  130.9954  122.1359   62.6253 H   0  0  0  0  0  0  0  0  0  0  0  0
  131.3827  122.3024   64.4016 H   0  0  0  0  0  0  0  0  0  0  0  0
  130.2411  124.5846   62.6401 H   0  0  0  0  0  0  0  0  0  0  0  0
  128.6980  123.3201   64.8330 H   0  0  0  0  0  0  0  0  0  0  0  0
  128.1732  124.0765   63.2905 H   0  0  0  0  0  0  0  0  0  0  0  0
  128.8480  122.4117   63.2905 H   0  0  0  0  0  0  0  0  0  0  0  0
  130.6733  128.0363   69.0345 H   0  0  0  0  0  0  0  0  0  0  0  0
  132.0159  128.1778   71.1262 H   0  0  0  0  0  0  0  0  0  0  0  0
  1  2  2  0
  2  3  1  0
  3  4  1  0
  4  5  1  0
  5  6  2  0
  6  7  1  0
  7  8  2  0
  8  9  1  0
  9 10  1  0
 10 11  1  0
 10 12  1  0
 12 13  1  0
 13 14  1  0
 14 15  2  0
 14 16  1  0
 17 16  1  1
 17 18  1  0
 18 19  1  0
 19 20  1  0
 20 21  1  0
 21 22  1  0
 22 23  1  0
 17 24  1  0
 24 25  2  0
  8 26  1  0
 26 27  2  0
 27  5  1  0
 24 13  1  0
 22 17  1  0
  1 28  1  0
  1 29  1  0
  2 30  1  0
  3 31  1  0
  3 32  1  0
  6 33  1  0
  7 34  1  0
  9 35  1  0
  9 36  1  0
 11 37  1  0
 11 38  1  0
 11 39  1  0
 12 40  1  0
 12 41  1  0
 16 42  1  0
 18 43  1  0
 18 44  1  0
 19 45  1  0
 19 46  1  0
 20 47  1  0
 20 48  1  0
 21 49  1  0
 21 50  1  0
 22 51  1  6
 23 52  1  0
 23 53  1  0
 23 54  1  0
 26 55  1  0
 27 56  1  0
M  END
>  <Binding energies>  (1) 
[-7.29]

>  <Ligand effiencies>  (1) 
[-0.26035714285714284]

>  <Interactions>  (1) 
["V-A:GLU:543:CA:4904, V-A:GLY:454:CA:4049, V-B:HIS:456:CD2:9039, V-A:GLU:543:C:4902, V-B:GLU:543:CB:9878, V-B:ALA:541:CB:9864, V-A:TYR:484:CE2:4346, V-B:GLU:543:CG:9879, V-A:GLY:544:C:4912, V-A:HIS:456:CD2:4068, V-A:LYS:547:CG:4948, V-A:HIS:456:CB:4065, V-A:GLU:543:CD:4908, V-A:TYR:484:CZ:4347, V-B:HIS:456:CE1:9041, V-A:HIS:456:CE1:4070, V-B:TYR:484:CZ:9318, V-A:GLU:543:CG:4907, V-B:GLU:543:CD:9880, H-A:LYS:547:NZ:4951, V-A:LEU:475:CD2:4259, V-A:ARG:545:CZ:4926, V-A:GLU:543:CB:4906, V-A:HIS:456:CG:4066, H-A:TYR:484:OH:4348"]

$$$$
ZINC2339943226
     RDKit          3D

 64 65  0  0  0  0  0  0  0  0999 V2000
  130.8070  126.9450   62.0280 C   0  0  0  0  0  0  0  0  0  0  0  0
  129.4960  127.0640   61.4900 O   0  0  0  0  0  0  0  0  0  0  0  0
  129.2320  128.2860   60.8020 C   0  0  2  0  0  0  0  0  0  0  0  0
  130.5760  128.9860   60.4870 C   0  0  0  0  0  0  0  0  0  0  0  0
  130.8470  130.1490   61.3400 N   0  0  0  0  0  0  0  0  0  0  0  0
  131.0900  131.4460   60.8890 C   0  0  0  0  0  0  0  0  0  0  0  0
  131.1790  132.4180   61.6360 O   0  0  0  0  0  0  0  0  0  0  0  0
  131.2190  131.4940   59.5270 O   0  0  0  0  0  0  0  0  0  0  0  0
  130.2800  132.0910   58.6170 C   0  0  0  0  0  0  0  0  0  0  0  0
  129.2100  132.9070   59.3840 C   0  0  0  0  0  0  0  0  0  0  0  0
  130.9880  132.9620   57.5500 C   0  0  0  0  0  0  0  0  0  0  0  0
  129.6070  130.8900   57.9250 C   0  0  0  0  0  0  0  0  0  0  0  0
  128.2560  129.1730   61.6120 C   0  0  0  0  0  0  0  0  0  0  0  0
  128.7410  129.4630   62.9790 N   0  0  0  0  0  0  0  0  0  0  0  0
  127.6090  130.0230   64.2080 S   0  0  0  0  0  0  0  0  0  0  0  0
  127.9210  131.4210   64.5240 O   0  0  0  0  0  0  0  0  0  0  0  0
  126.2540  129.5930   63.8430 O   0  0  0  0  0  0  0  0  0  0  0  0
  128.1380  129.0450   65.6310 C   0  0  0  0  0  0  0  0  0  0  0  0
  128.7090  127.7840   65.5600 C   0  0  0  0  0  0  0  0  0  0  0  0
  128.9980  127.2400   66.8170 C   0  0  0  0  0  0  0  0  0  0  0  0
  129.6770  125.6710   67.0120 Cl  0  0  0  0  0  0  0  0  0  0  0  0
  128.6600  128.1030   67.8620 C   0  0  0  0  0  0  0  0  0  0  0  0
  128.8000  127.8610   69.4130 B   0  0  0  0  0  0  0  0  0  0  0  0
  128.4290  126.7060   70.0570 O   0  0  0  0  0  0  0  0  0  0  0  0
  128.4250  126.9780   71.4500 C   0  0  0  0  0  0  0  0  0  0  0  0
  126.9710  127.3980   71.8000 C   0  0  0  0  0  0  0  0  0  0  0  0
  128.8010  125.6720   72.1840 C   0  0  0  0  0  0  0  0  0  0  0  0
  129.4960  128.1220   71.5410 C   0  0  0  0  0  0  0  0  0  0  0  0
  129.2540  129.1560   72.6640 C   0  0  0  0  0  0  0  0  0  0  0  0
  130.9750  127.6490   71.5520 C   0  0  0  0  0  0  0  0  0  0  0  0
  129.3050  128.7860   70.3000 O   0  0  0  0  0  0  0  0  0  0  0  0
  127.9890  129.5950   67.2670 S   0  0  0  0  0  0  0  0  0  0  0  0
  130.7543  126.9498   63.1267 H   0  0  0  0  0  0  0  0  0  0  0  0
  131.2592  126.0021   61.6867 H   0  0  0  0  0  0  0  0  0  0  0  0
  131.4216  127.7911   61.6867 H   0  0  0  0  0  0  0  0  0  0  0  0
  128.7277  128.0844   59.8454 H   0  0  0  0  0  0  0  0  0  0  0  0
  131.3883  128.2571   60.6245 H   0  0  0  0  0  0  0  0  0  0  0  0
  130.5137  129.3528   59.4518 H   0  0  0  0  0  0  0  0  0  0  0  0
  130.7520  130.0180   62.3360 H   0  0  0  0  0  0  0  0  0  0  0  0
  129.3651  132.7887   60.4666 H   0  0  0  0  0  0  0  0  0  0  0  0
  129.2972  133.9701   59.1151 H   0  0  0  0  0  0  0  0  0  0  0  0
  128.2079  132.5417   59.1151 H   0  0  0  0  0  0  0  0  0  0  0  0
  131.6063  133.7227   58.0490 H   0  0  0  0  0  0  0  0  0  0  0  0
  131.6272  132.3245   56.9215 H   0  0  0  0  0  0  0  0  0  0  0  0
  130.2333  133.4575   56.9215 H   0  0  0  0  0  0  0  0  0  0  0  0
  129.2192  130.1979   58.6869 H   0  0  0  0  0  0  0  0  0  0  0  0
  128.7772  131.2464   57.2970 H   0  0  0  0  0  0  0  0  0  0  0  0
  130.3442  130.3683   57.2970 H   0  0  0  0  0  0  0  0  0  0  0  0
  128.1216  130.1252   61.0779 H   0  0  0  0  0  0  0  0  0  0  0  0
  127.3098  128.6202   61.7079 H   0  0  0  0  0  0  0  0  0  0  0  0
  129.4980  128.8640   63.3180 H   0  0  0  0  0  0  0  0  0  0  0  0
  128.9141  127.2639   64.6127 H   0  0  0  0  0  0  0  0  0  0  0  0
  126.8523  127.4323   72.8930 H   0  0  0  0  0  0  0  0  0  0  0  0
  126.7648  128.3924   71.3774 H   0  0  0  0  0  0  0  0  0  0  0  0
  126.2663  126.6667   71.3774 H   0  0  0  0  0  0  0  0  0  0  0  0
  128.7539  125.8356   73.2708 H   0  0  0  0  0  0  0  0  0  0  0  0
  128.0953  124.8767   71.9020 H   0  0  0  0  0  0  0  0  0  0  0  0
  129.8215  125.3737   71.9020 H   0  0  0  0  0  0  0  0  0  0  0  0
  129.3683  128.6676   73.6430 H   0  0  0  0  0  0  0  0  0  0  0  0
  129.9852  129.9728   72.5741 H   0  0  0  0  0  0  0  0  0  0  0  0
  128.2362  129.5635   72.5741 H   0  0  0  0  0  0  0  0  0  0  0  0
  131.3172  127.5396   72.5917 H   0  0  0  0  0  0  0  0  0  0  0  0
  131.0541  126.6807   71.0361 H   0  0  0  0  0  0  0  0  0  0  0  0
  131.6013  128.3917   71.0361 H   0  0  0  0  0  0  0  0  0  0  0  0
  1  2  1  0
  2  3  1  0
  3  4  1  0
  4  5  1  0
  5  6  1  0
  6  7  2  0
  6  8  1  0
  8  9  1  0
  9 10  1  0
  9 11  1  0
  9 12  1  0
  3 13  1  0
 13 14  1  0
 14 15  1  0
 15 16  2  0
 15 17  2  0
 15 18  1  0
 18 19  2  0
 19 20  1  0
 20 21  1  0
 20 22  2  0
 22 23  1  0
 23 24  1  0
 24 25  1  0
 25 26  1  0
 25 27  1  0
 25 28  1  0
 28 29  1  0
 28 30  1  0
 28 31  1  0
 22 32  1  0
 32 18  1  0
 31 23  1  0
  1 33  1  0
  1 34  1  0
  1 35  1  0
  3 36  1  6
  4 37  1  0
  4 38  1  0
  5 39  1  0
 10 40  1  0
 10 41  1  0
 10 42  1  0
 11 43  1  0
 11 44  1  0
 11 45  1  0
 12 46  1  0
 12 47  1  0
 12 48  1  0
 13 49  1  0
 13 50  1  0
 14 51  1  0
 19 52  1  0
 26 53  1  0
 26 54  1  0
 26 55  1  0
 27 56  1  0
 27 57  1  0
 27 58  1  0
 29 59  1  0
 29 60  1  0
 29 61  1  0
 30 62  1  0
 30 63  1  0
 30 64  1  0
M  END
>  <Binding energies>  (1) 
[-7.39]

>  <Ligand effiencies>  (1) 
[-0.21735294117647058]

>  <Interactions>  (1) 
["V-B:HIS:456:CD2:9039, H-A:GLU:543:OE2:4910, V-B:GLU:543:C:9874, H-A:ALA:541:N:4891, V-B:GLU:543:CB:9878, V-B:GLU:543:CG:9879, V-A:GLY:544:C:4912, V-A:HIS:456:CD2:4068, V-A:TYR:539:CD1:4873, V-B:TYR:484:CE2:9317, V-B:LYS:547:CE:9922, V-A:GLU:543:CD:4908, H-B:TYR:484:OH:9319, V-B:HIS:456:CE1:9041, V-B:TYR:484:CZ:9318, V-A:HIS:456:CE1:4070, V-B:GLY:544:C:9884, V-A:GLU:543:CG:4907, V-B:GLU:543:CD:9880, V-B:HIS:456:CG:9037, V-A:TYR:539:C:4867, H-A:GLU:543:OE1:4909, V-A:GLU:543:CB:4906, V-A:PRO:540:N:4884, V-A:PRO:540:CB:4885, V-A:PRO:540:CA:4883, V-A:PRO:540:CD:4887"]

$$$$
ZINC23419674
     RDKit          3D

 42 44  0  0  0  0  0  0  0  0999 V2000
  131.2970  125.6310   62.1240 C   0  0  0  0  0  0  0  0  0  0  0  0
  132.2390  125.2020   61.0930 N   0  0  0  0  0  0  0  0  0  0  0  0
  132.2160  125.6660   59.7960 C   0  0  0  0  0  0  0  0  0  0  0  0
  133.2190  125.0590   59.0630 C   0  0  0  0  0  0  0  0  0  0  0  0
  133.8830  124.1910   59.9270 C   0  0  0  0  0  0  0  0  0  0  0  0
  133.2680  124.2660   61.1750 C   0  0  0  0  0  0  0  0  0  0  0  0
  133.5970  123.5740   62.4370 C   0  0  0  0  0  0  0  0  0  0  0  0
  133.9600  124.1580   63.4580 O   0  0  0  0  0  0  0  0  0  0  0  0
  133.4800  122.0430   62.5040 C   0  0  0  0  0  0  0  0  0  0  0  0
  134.0470  121.4300   61.3510 O   0  0  0  0  0  0  0  0  0  0  0  0
  133.3170  120.6210   60.5360 C   0  0  0  0  0  0  0  0  0  0  0  0
  133.8420  119.8580   59.7220 O   0  0  0  0  0  0  0  0  0  0  0  0
  131.8360  120.7380   60.7050 C   0  0  0  0  0  0  0  0  0  0  0  0
  131.2710  121.9780   60.7520 C   0  0  0  0  0  0  0  0  0  0  0  0
  129.8620  122.3380   61.0150 C   0  0  0  0  0  0  0  0  0  0  0  0
  129.3740  122.4820   62.3190 C   0  0  0  0  0  0  0  0  0  0  0  0
  128.0440  122.8300   62.5350 C   0  0  0  0  0  0  0  0  0  0  0  0
  127.2010  123.0430   61.4470 C   0  0  0  0  0  0  0  0  0  0  0  0
  125.9080  123.3810   61.6570 F   0  0  0  0  0  0  0  0  0  0  0  0
  127.6790  122.9150   60.1460 C   0  0  0  0  0  0  0  0  0  0  0  0
  129.0100  122.5650   59.9310 C   0  0  0  0  0  0  0  0  0  0  0  0
  131.0440  119.4920   60.8210 C   0  0  0  0  0  0  0  0  0  0  0  0
  131.1980  118.3400   60.0400 C   0  0  0  0  0  0  0  0  0  0  0  0
  130.3000  117.3160   60.3540 C   0  0  0  0  0  0  0  0  0  0  0  0
  129.4560  117.6480   61.4000 C   0  0  0  0  0  0  0  0  0  0  0  0
  129.7950  119.2290   62.0190 S   0  0  0  0  0  0  0  0  0  0  0  0
  131.7266  125.4353   63.1175 H   0  0  0  0  0  0  0  0  0  0  0  0
  131.0998  126.7077   62.0154 H   0  0  0  0  0  0  0  0  0  0  0  0
  130.3553  125.0730   62.0154 H   0  0  0  0  0  0  0  0  0  0  0  0
  131.5060  126.4083   59.4025 H   0  0  0  0  0  0  0  0  0  0  0  0
  133.4487  125.2290   58.0008 H   0  0  0  0  0  0  0  0  0  0  0  0
  134.7436  123.5564   59.6687 H   0  0  0  0  0  0  0  0  0  0  0  0
  134.0089  121.6820   63.3984 H   0  0  0  0  0  0  0  0  0  0  0  0
  132.4134  121.7779   62.5491 H   0  0  0  0  0  0  0  0  0  0  0  0
  131.9536  122.8212   60.5703 H   0  0  0  0  0  0  0  0  0  0  0  0
  130.0441  122.3195   63.1760 H   0  0  0  0  0  0  0  0  0  0  0  0
  127.6603  122.9364   63.5604 H   0  0  0  0  0  0  0  0  0  0  0  0
  127.0087  123.0895   59.2915 H   0  0  0  0  0  0  0  0  0  0  0  0
  129.3918  122.4669   58.9041 H   0  0  0  0  0  0  0  0  0  0  0  0
  131.9579  118.2490   59.2499 H   0  0  0  0  0  0  0  0  0  0  0  0
  130.2674  116.3509   59.8271 H   0  0  0  0  0  0  0  0  0  0  0  0
  128.6669  116.9883   61.7900 H   0  0  0  0  0  0  0  0  0  0  0  0
  1  2  1  0
  2  3  1  0
  3  4  2  0
  4  5  1  0
  5  6  2  0
  6  7  1  0
  7  8  2  0
  7  9  1  0
  9 10  1  0
 10 11  1  0
 11 12  2  0
 11 13  1  0
 13 14  2  0
 14 15  1  0
 15 16  2  0
 16 17  1  0
 17 18  2  0
 18 19  1  0
 18 20  1  0
 20 21  2  0
 13 22  1  0
 22 23  2  0
 23 24  1  0
 24 25  2  0
 25 26  1  0
  6  2  1  0
 21 15  1  0
 26 22  1  0
  1 27  1  0
  1 28  1  0
  1 29  1  0
  3 30  1  0
  4 31  1  0
  5 32  1  0
  9 33  1  0
  9 34  1  0
 14 35  1  0
 16 36  1  0
 17 37  1  0
 20 38  1  0
 21 39  1  0
 23 40  1  0
 24 41  1  0
 25 42  1  0
M  END
>  <Binding energies>  (1) 
[-6.66]

>  <Ligand effiencies>  (1) 
[-0.2561538461538462]

>  <Interactions>  (1) 
["V-A:ILE:369:CG2:3237, V-A:ASP:366:CA:3210, V-B:PRO:540:CA:9855, V-A:GLY:454:CA:4049, V-A:ILE:369:CB:3236, V-B:ALA:541:CB:9864, V-B:TYR:539:CE2:9848, V-A:LEU:475:CG:4257, V-B:GLU:543:CG:9879, V-B:TYR:539:C:9839, V-A:ASP:366:CG:3213, V-A:LEU:475:CD1:4258, V-B:TYR:539:CB:9843, V-A:HIS:383:CE1:3393, V-B:PRO:540:CB:9857, H-A:GLY:454:N:4050, V-B:PRO:540:N:9856, V-A:ILE:369:CD1:3239, V-A:PRO:482:CB:4326, V-B:TYR:539:CD2:9846, V-A:SER:385:CB:3409, H-A:SER:385:OG:3410, V-B:GLU:543:CD:9880, V-A:ASP:366:CB:3212, V-A:LEU:475:CD2:4259, V-B:TYR:539:CG:9844, V-A:PRO:482:CG:4327, V-A:SER:385:CA:3407, V-B:PRO:540:C:9853, V-B:ALA:541:CA:9862, V-A:HIS:383:NE2:3394"]

$$$$
ZINC2343559616
     RDKit          3D

 61 61  0  0  0  0  0  0  0  0999 V2000
  130.5470  120.5720   60.9420 C   0  0  0  0  0  0  0  0  0  0  0  0
  131.4880  121.7360   61.2850 C   0  0  0  0  0  0  0  0  0  0  0  0
  132.9180  121.5230   60.7560 C   0  0  0  0  0  0  0  0  0  0  0  0
  133.9380  122.5010   61.3720 C   0  0  0  0  0  0  0  0  0  0  0  0
  133.4880  123.9860   61.3780 C   0  0  2  0  0  0  0  0  0  0  0  0
  133.9100  124.7230   60.0760 C   0  0  0  0  0  0  0  0  0  0  0  0
  133.0870  124.4220   58.8110 C   0  0  0  0  0  0  0  0  0  0  0  0
  133.6220  124.2490   57.7170 O   0  0  0  0  0  0  0  0  0  0  0  0
  131.5290  124.3580   58.9950 C   0  0  0  0  0  0  0  0  0  0  0  0
  130.3240  124.2700   59.1680 C   0  0  0  0  0  0  0  0  0  0  0  0
  128.8640  124.1550   59.4010 C   0  0  2  0  0  0  0  0  0  0  0  0
  128.5060  122.9430   60.0720 O   0  0  0  0  0  0  0  0  0  0  0  0
  127.7650  123.0820   61.2830 C   0  0  0  0  0  0  0  0  0  0  0  0
  128.0170  124.2400   58.1000 C   0  0  0  0  0  0  0  0  0  0  0  0
  127.9800  122.9060   57.3100 C   0  0  0  0  0  0  0  0  0  0  0  0
  126.5080  122.4960   57.2000 C   0  0  0  0  0  0  0  0  0  0  0  0
  125.7410  123.8110   57.2830 C   0  0  0  0  0  0  0  0  0  0  0  0
  126.5320  124.6250   58.3060 C   0  0  0  0  0  0  0  0  0  0  0  0
  133.9820  124.6910   62.5740 N   0  0  0  0  0  0  0  0  0  0  0  0
  133.5140  124.5160   63.8760 C   0  0  0  0  0  0  0  0  0  0  0  0
  133.9920  125.0890   64.8540 O   0  0  0  0  0  0  0  0  0  0  0  0
  132.4680  123.6340   63.9240 O   0  0  0  0  0  0  0  0  0  0  0  0
  131.0950  123.9740   64.1850 C   0  0  0  0  0  0  0  0  0  0  0  0
  130.9670  124.8900   65.4260 C   0  0  0  0  0  0  0  0  0  0  0  0
  130.4300  124.6200   62.9440 C   0  0  0  0  0  0  0  0  0  0  0  0
  130.4220  122.6180   64.4820 C   0  0  0  0  0  0  0  0  0  0  0  0
  130.1767  120.1139   61.8710 H   0  0  0  0  0  0  0  0  0  0  0  0
  129.6967  120.9488   60.3547 H   0  0  0  0  0  0  0  0  0  0  0  0
  131.0936  119.8195   60.3547 H   0  0  0  0  0  0  0  0  0  0  0  0
  131.0830  122.6577   60.8418 H   0  0  0  0  0  0  0  0  0  0  0  0
  131.5469  121.8021   62.3814 H   0  0  0  0  0  0  0  0  0  0  0  0
  133.2302  120.4952   60.9928 H   0  0  0  0  0  0  0  0  0  0  0  0
  132.8991  121.7059   59.6715 H   0  0  0  0  0  0  0  0  0  0  0  0
  134.1222  122.1943   62.4122 H   0  0  0  0  0  0  0  0  0  0  0  0
  134.8377  122.4508   60.7411 H   0  0  0  0  0  0  0  0  0  0  0  0
  132.3886  123.9915   61.4146 H   0  0  0  0  0  0  0  0  0  0  0  0
  133.8416  125.8039   60.2683 H   0  0  0  0  0  0  0  0  0  0  0  0
  134.9236  124.3578   59.8539 H   0  0  0  0  0  0  0  0  0  0  0  0
  128.6341  125.0220   60.0377 H   0  0  0  0  0  0  0  0  0  0  0  0
  128.4399  122.9554   62.1424 H   0  0  0  0  0  0  0  0  0  0  0  0
  127.3075  124.0816   61.3202 H   0  0  0  0  0  0  0  0  0  0  0  0
  126.9763  122.3161   61.3202 H   0  0  0  0  0  0  0  0  0  0  0  0
  128.5407  125.0357   57.5500 H   0  0  0  0  0  0  0  0  0  0  0  0
  128.4093  123.0480   56.3072 H   0  0  0  0  0  0  0  0  0  0  0  0
  128.5685  122.1292   57.8202 H   0  0  0  0  0  0  0  0  0  0  0  0
  126.3148  121.9925   56.2413 H   0  0  0  0  0  0  0  0  0  0  0  0
  126.2104  121.7866   57.9863 H   0  0  0  0  0  0  0  0  0  0  0  0
  125.7236  124.3177   56.3068 H   0  0  0  0  0  0  0  0  0  0  0  0
  124.6876  123.6739   57.5685 H   0  0  0  0  0  0  0  0  0  0  0  0
  126.3884  125.7015   58.1316 H   0  0  0  0  0  0  0  0  0  0  0  0
  126.1995  124.4142   59.3331 H   0  0  0  0  0  0  0  0  0  0  0  0
  134.7560  125.3260   62.4440 H   0  0  0  0  0  0  0  0  0  0  0  0
  131.0518  124.2835   66.3397 H   0  0  0  0  0  0  0  0  0  0  0  0
  131.7686  125.6431   65.4101 H   0  0  0  0  0  0  0  0  0  0  0  0
  129.9896  125.3945   65.4101 H   0  0  0  0  0  0  0  0  0  0  0  0
  129.6767  125.3518   63.2710 H   0  0  0  0  0  0  0  0  0  0  0  0
  131.1964  125.1277   62.3399 H   0  0  0  0  0  0  0  0  0  0  0  0
  129.9448  123.8392   62.3399 H   0  0  0  0  0  0  0  0  0  0  0  0
  130.3508  122.4746   65.5703 H   0  0  0  0  0  0  0  0  0  0  0  0
  129.4131  122.6056   64.0437 H   0  0  0  0  0  0  0  0  0  0  0  0
  131.0222  121.8070   64.0437 H   0  0  0  0  0  0  0  0  0  0  0  0
  1  2  1  0
  2  3  1  0
  3  4  1  0
  4  5  1  0
  5  6  1  0
  6  7  1  0
  7  8  2  0
  7  9  1  0
  9 10  3  0
 10 11  1  0
 11 12  1  0
 12 13  1  0
 11 14  1  0
 14 15  1  0
 15 16  1  0
 16 17  1  0
 17 18  1  0
  5 19  1  0
 19 20  1  0
 20 21  2  0
 20 22  1  0
 22 23  1  0
 23 24  1  0
 23 25  1  0
 23 26  1  0
 18 14  1  0
  1 27  1  0
  1 28  1  0
  1 29  1  0
  2 30  1  0
  2 31  1  0
  3 32  1  0
  3 33  1  0
  4 34  1  0
  4 35  1  0
  5 36  1  1
  6 37  1  0
  6 38  1  0
 11 39  1  1
 13 40  1  0
 13 41  1  0
 13 42  1  0
 14 43  1  0
 15 44  1  0
 15 45  1  0
 16 46  1  0
 16 47  1  0
 17 48  1  0
 17 49  1  0
 18 50  1  0
 18 51  1  0
 19 52  1  0
 24 53  1  0
 24 54  1  0
 24 55  1  0
 25 56  1  0
 25 57  1  0
 25 58  1  0
 26 59  1  0
 26 60  1  0
 26 61  1  0
M  END
>  <Binding energies>  (1) 
[-7.35]

>  <Ligand effiencies>  (1) 
[-0.2722222222222222]

>  <Interactions>  (1) 
["V-A:ILE:369:CG2:3237, V-A:ASP:366:CA:3210, V-B:PRO:540:CA:9855, V-A:GLY:454:CA:4049, H-A:ARG:545:NH1:4927, V-B:TYR:539:CE2:9848, V-A:TYR:484:CE2:4346, V-B:TYR:539:C:9839, V-A:ASP:366:CG:3213, V-B:TYR:539:CZ:9849, H-B:TYR:539:OH:9850, V-A:TYR:484:CZ:4347, V-B:PRO:540:CB:9857, H-A:GLY:454:N:4050, V-B:PRO:540:N:9856, V-A:ILE:369:CD1:3239, V-B:TYR:539:CD2:9846, V-B:PRO:540:CD:9859, V-A:ASP:366:CB:3212, V-A:LEU:475:CD2:4259, H-A:ARG:545:NH2:4928, V-A:ARG:545:CZ:4926, V-B:TYR:539:CG:9844, H-A:ASP:366:OD1:3214, V-B:TYR:539:CD1:9845, H-A:ARG:545:NE:4924, V-B:TYR:539:CE1:9847, H-A:TYR:484:OH:4348"]

$$$$
ZINC2343584812
     RDKit          3D

 61 63  0  0  0  0  0  0  0  0999 V2000
  131.9130  129.9340   58.1930 C   0  0  0  0  0  0  0  0  0  0  0  0
  130.5900  129.1770   58.4860 C   0  0  0  0  0  0  0  0  0  0  0  0
  129.6660  129.2060   57.2480 C   0  0  0  0  0  0  0  0  0  0  0  0
  130.9550  127.8230   58.7180 O   0  0  0  0  0  0  0  0  0  0  0  0
  131.1150  127.6650   60.0750 B   0  0  0  0  0  0  0  0  0  0  0  0
  131.7570  126.3980   60.7570 C   0  0  0  0  0  0  0  0  0  0  0  0
  131.7320  126.2320   62.4900 S   0  0  0  0  0  0  0  0  0  0  0  0
  132.5660  124.7170   62.3900 C   0  0  0  0  0  0  0  0  0  0  0  0
  133.0220  123.7500   63.8480 S   0  0  0  0  0  0  0  0  0  0  0  0
  133.4220  122.4120   63.3940 O   0  0  0  0  0  0  0  0  0  0  0  0
  133.9070  124.5970   64.6530 O   0  0  0  0  0  0  0  0  0  0  0  0
  131.4650  123.6380   64.6630 N   0  0  0  0  0  0  0  0  0  0  0  0
  130.2250  124.1110   64.0070 C   0  0  1  0  0  0  0  0  0  0  0  0
  129.3120  122.9210   63.6340 C   0  0  0  0  0  0  0  0  0  0  0  0
  128.3800  123.2080   62.4420 C   0  0  0  0  0  0  0  0  0  0  0  0
  127.0490  122.8450   62.7470 O   0  0  0  0  0  0  0  0  0  0  0  0
  129.5130  125.1340   64.9130 C   0  0  0  0  0  0  0  0  0  0  0  0
  129.8110  124.8530   66.2740 O   0  0  0  0  0  0  0  0  0  0  0  0
  130.7560  125.7500   66.8500 C   0  0  0  0  0  0  0  0  0  0  0  0
  130.1460  126.5020   68.0260 C   0  0  0  0  0  0  0  0  0  0  0  0
  130.9540  127.3650   68.7740 C   0  0  0  0  0  0  0  0  0  0  0  0
  130.4210  128.0540   69.8600 C   0  0  0  0  0  0  0  0  0  0  0  0
  129.0810  127.8800   70.2000 C   0  0  0  0  0  0  0  0  0  0  0  0
  128.2700  127.0180   69.4640 C   0  0  0  0  0  0  0  0  0  0  0  0
  128.8030  126.3270   68.3790 C   0  0  0  0  0  0  0  0  0  0  0  0
  132.8320  124.3600   61.0760 C   0  0  0  0  0  0  0  0  0  0  0  0
  132.3850  125.3090   60.1480 C   0  0  0  0  0  0  0  0  0  0  0  0
  132.6060  125.1190   58.4540 Cl  0  0  0  0  0  0  0  0  0  0  0  0
  130.6360  128.7590   60.7620 O   0  0  0  0  0  0  0  0  0  0  0  0
  129.8900  129.5430   59.8430 C   0  0  0  0  0  0  0  0  0  0  0  0
  130.0260  131.0220   60.2670 C   0  0  0  0  0  0  0  0  0  0  0  0
  128.4160  129.0760   59.9770 C   0  0  0  0  0  0  0  0  0  0  0  0
  132.3954  130.2100   59.1422 H   0  0  0  0  0  0  0  0  0  0  0  0
  132.5866  129.2847   57.6146 H   0  0  0  0  0  0  0  0  0  0  0  0
  131.6945  130.8438   57.6146 H   0  0  0  0  0  0  0  0  0  0  0  0
  128.6162  129.2389   57.5747 H   0  0  0  0  0  0  0  0  0  0  0  0
  129.8902  130.0976   56.6439 H   0  0  0  0  0  0  0  0  0  0  0  0
  129.8338  128.3021   56.6439 H   0  0  0  0  0  0  0  0  0  0  0  0
  131.4440  123.4700   65.6720 H   0  0  0  0  0  0  0  0  0  0  0  0
  130.4816  124.6184   63.0653 H   0  0  0  0  0  0  0  0  0  0  0  0
  129.9487  122.0612   63.3783 H   0  0  0  0  0  0  0  0  0  0  0  0
  128.6698  122.7223   64.5047 H   0  0  0  0  0  0  0  0  0  0  0  0
  128.4160  124.2819   62.2065 H   0  0  0  0  0  0  0  0  0  0  0  0
  128.7182  122.6153   61.5793 H   0  0  0  0  0  0  0  0  0  0  0  0
  126.5650  123.6370   62.9920 H   0  0  0  0  0  0  0  0  0  0  0  0
  129.8599  126.1477   64.6639 H   0  0  0  0  0  0  0  0  0  0  0  0
  128.4263  125.0680   64.7554 H   0  0  0  0  0  0  0  0  0  0  0  0
  131.6274  125.1780   67.2014 H   0  0  0  0  0  0  0  0  0  0  0  0
  131.0584  126.4803   66.0850 H   0  0  0  0  0  0  0  0  0  0  0  0
  132.0118  127.4993   68.5037 H   0  0  0  0  0  0  0  0  0  0  0  0
  131.0557  128.7335   70.4477 H   0  0  0  0  0  0  0  0  0  0  0  0
  128.6598  128.4274   71.0562 H   0  0  0  0  0  0  0  0  0  0  0  0
  127.2134  126.8841   69.7391 H   0  0  0  0  0  0  0  0  0  0  0  0
  128.1674  125.6423   67.7982 H   0  0  0  0  0  0  0  0  0  0  0  0
  133.3416  123.4274   60.7922 H   0  0  0  0  0  0  0  0  0  0  0  0
  130.0322  131.0896   61.3649 H   0  0  0  0  0  0  0  0  0  0  0  0
  130.9657  131.4326   59.8690 H   0  0  0  0  0  0  0  0  0  0  0  0
  129.1769  131.5971   59.8690 H   0  0  0  0  0  0  0  0  0  0  0  0
  128.1531  128.9927   61.0419 H   0  0  0  0  0  0  0  0  0  0  0  0
  127.7538  129.8083   59.4920 H   0  0  0  0  0  0  0  0  0  0  0  0
  128.2963  128.0959   59.4920 H   0  0  0  0  0  0  0  0  0  0  0  0
  1  2  1  0
  2  3  1  0
  2  4  1  0
  4  5  1  0
  5  6  1  0
  6  7  1  0
  7  8  1  0
  8  9  1  0
  9 10  2  0
  9 11  2  0
  9 12  1  0
 12 13  1  0
 13 14  1  0
 14 15  1  0
 15 16  1  0
 13 17  1  0
 17 18  1  0
 18 19  1  0
 19 20  1  0
 20 21  2  0
 21 22  1  0
 22 23  2  0
 23 24  1  0
 24 25  2  0
  8 26  2  0
 26 27  1  0
 27 28  1  0
  5 29  1  0
 29 30  1  0
 30 31  1  0
 30 32  1  0
 30  2  1  0
 27  6  2  0
 25 20  1  0
  1 33  1  0
  1 34  1  0
  1 35  1  0
  3 36  1  0
  3 37  1  0
  3 38  1  0
 12 39  1  0
 13 40  1  6
 14 41  1  0
 14 42  1  0
 15 43  1  0
 15 44  1  0
 16 45  1  0
 17 46  1  0
 17 47  1  0
 19 48  1  0
 19 49  1  0
 21 50  1  0
 22 51  1  0
 23 52  1  0
 24 53  1  0
 25 54  1  0
 26 55  1  0
 31 56  1  0
 31 57  1  0
 31 58  1  0
 32 59  1  0
 32 60  1  0
 32 61  1  0
M  END
>  <Binding energies>  (1) 
[-7.75]

>  <Ligand effiencies>  (1) 
[-0.22794117647058823]

>  <Interactions>  (1) 
["V-A:ASP:366:CA:3210, V-A:GLY:454:CA:4049, V-B:GLU:543:C:9874, V-A:GLU:543:C:4902, V-B:GLU:543:CB:9878, V-B:ALA:541:CB:9864, H-A:TYR:531:OH:4795, V-B:TYR:539:CE2:9848, H-B:ALA:541:O:9861, V-B:GLU:543:CG:9879, V-A:ASP:366:CG:3213, V-B:TYR:539:CZ:9849, H-B:GLU:543:OE1:9881, H-B:ALA:541:N:9863, V-A:GLU:543:CD:4908, V-A:ARG:545:CG:4922, H-A:GLY:454:N:4050, V-B:GLU:543:CA:9876, V-B:HIS:456:CE1:9041, V-A:HIS:456:CE1:4070, V-A:MET:535:CE:4835, V-B:GLU:543:CD:9880, V-A:ASP:366:CB:3212, H-A:ARG:545:NH2:4928, V-A:ARG:545:CZ:4926, V-A:GLU:543:CB:4906, H-A:ARG:545:NE:4924, H-A:TYR:484:OH:4348"]

$$$$
ZINC2349388584
     RDKit          3D

 66 65  0  0  0  0  0  0  0  0999 V2000
  132.1210  120.7690   60.8740 C   0  0  0  0  0  0  0  0  0  0  0  0
  133.5940  121.0190   61.2270 C   0  0  0  0  0  0  0  0  0  0  0  0
  133.7900  122.2280   62.1590 C   0  0  0  0  0  0  0  0  0  0  0  0
  134.3190  123.4720   61.4240 C   0  0  0  0  0  0  0  0  0  0  0  0
  133.2630  124.1250   60.5150 C   0  0  0  0  0  0  0  0  0  0  0  0
  131.9460  124.4310   61.2500 C   0  0  0  0  0  0  0  0  0  0  0  0
  132.0950  125.5630   62.2960 C   0  0  0  0  0  0  0  0  0  0  0  0
  131.5550  125.3050   63.7420 C   0  0  2  0  0  0  0  0  0  0  0  0
  130.5860  124.0900   63.7860 C   0  0  0  0  0  0  0  0  0  0  0  0
  130.7520  126.5960   64.0940 N   0  0  0  0  0  0  0  0  0  0  0  0
  129.2060  126.5600   64.1760 C   0  0  2  0  0  0  0  0  0  0  0  0
  128.6090  127.1460   62.8810 C   0  0  0  0  0  0  0  0  0  0  0  0
  128.7480  127.2960   65.4580 C   0  0  0  0  0  0  0  0  0  0  0  0
  129.1250  126.6100   66.7910 C   0  0  0  0  0  0  0  0  0  0  0  0
  129.1720  127.5410   67.9280 N   0  0  0  0  0  0  0  0  0  0  0  0
  128.3470  128.7440   67.8050 C   0  0  0  0  0  0  0  0  0  0  0  0
  130.0120  127.3620   69.0390 C   0  0  0  0  0  0  0  0  0  0  0  0
  131.1350  127.8560   69.1650 O   0  0  0  0  0  0  0  0  0  0  0  0
  129.4280  126.5520   69.9790 O   0  0  0  0  0  0  0  0  0  0  0  0
  128.6840  126.9950   71.1280 C   0  0  0  0  0  0  0  0  0  0  0  0
  128.8450  126.0160   72.3180 C   0  0  0  0  0  0  0  0  0  0  0  0
  129.0790  128.4350   71.5350 C   0  0  0  0  0  0  0  0  0  0  0  0
  127.2160  126.9810   70.6530 C   0  0  0  0  0  0  0  0  0  0  0  0
  132.7450  125.1250   64.7630 C   0  0  0  0  0  0  0  0  0  0  0  0
  132.5980  125.6120   65.9070 O   0  0  0  0  0  0  0  0  0  0  0  0
  133.7920  124.5170   64.4310 O   0  0  0  0  0  0  0  0  0  0  0  0
  131.5341  120.6694   61.7990 H   0  0  0  0  0  0  0  0  0  0  0  0
  131.7365  121.6147   60.2850 H   0  0  0  0  0  0  0  0  0  0  0  0
  132.0370  119.8438   60.2850 H   0  0  0  0  0  0  0  0  0  0  0  0
  133.9922  120.1231   61.7259 H   0  0  0  0  0  0  0  0  0  0  0  0
  134.1259  121.2359   60.2889 H   0  0  0  0  0  0  0  0  0  0  0  0
  132.8222  122.4772   62.6187 H   0  0  0  0  0  0  0  0  0  0  0  0
  134.5406  121.9457   62.9119 H   0  0  0  0  0  0  0  0  0  0  0  0
  134.6429  124.2104   62.1722 H   0  0  0  0  0  0  0  0  0  0  0  0
  135.1513  123.1471   60.7823 H   0  0  0  0  0  0  0  0  0  0  0  0
  133.6726  125.0672   60.1220 H   0  0  0  0  0  0  0  0  0  0  0  0
  133.0335  123.4109   59.7104 H   0  0  0  0  0  0  0  0  0  0  0  0
  131.1914  124.7335   60.5090 H   0  0  0  0  0  0  0  0  0  0  0  0
  131.6456  123.5194   61.7873 H   0  0  0  0  0  0  0  0  0  0  0  0
  133.1682  125.7881   62.3833 H   0  0  0  0  0  0  0  0  0  0  0  0
  131.4651  126.3778   61.9096 H   0  0  0  0  0  0  0  0  0  0  0  0
  130.3758  123.8264   64.8331 H   0  0  0  0  0  0  0  0  0  0  0  0
  129.6461  124.3520   63.2780 H   0  0  0  0  0  0  0  0  0  0  0  0
  131.0505  123.2320   63.2780 H   0  0  0  0  0  0  0  0  0  0  0  0
  131.0940  126.8990   64.9960 H   0  0  0  0  0  0  0  0  0  0  0  0
  131.0080  127.3180   63.4370 H   0  0  0  0  0  0  0  0  0  0  0  0
  128.8356  125.5270   64.2519 H   0  0  0  0  0  0  0  0  0  0  0  0
  127.8453  127.8956   63.1357 H   0  0  0  0  0  0  0  0  0  0  0  0
  129.4070  127.6212   62.2916 H   0  0  0  0  0  0  0  0  0  0  0  0
  128.1487  126.3393   62.2916 H   0  0  0  0  0  0  0  0  0  0  0  0
  129.2007  128.2985   65.4531 H   0  0  0  0  0  0  0  0  0  0  0  0
  127.6486  127.3052   65.4240 H   0  0  0  0  0  0  0  0  0  0  0  0
  128.3784  125.8316   67.0071 H   0  0  0  0  0  0  0  0  0  0  0  0
  130.1349  126.1912   66.6692 H   0  0  0  0  0  0  0  0  0  0  0  0
  128.0911  129.1172   68.8076 H   0  0  0  0  0  0  0  0  0  0  0  0
  128.9057  129.5174   67.2575 H   0  0  0  0  0  0  0  0  0  0  0  0
  127.4243  128.5014   67.2575 H   0  0  0  0  0  0  0  0  0  0  0  0
  128.7538  126.5703   73.2637 H   0  0  0  0  0  0  0  0  0  0  0  0
  128.0615  125.2456   72.2676 H   0  0  0  0  0  0  0  0  0  0  0  0
  129.8340  125.5371   72.2676 H   0  0  0  0  0  0  0  0  0  0  0  0
  129.1004  128.5131   72.6320 H   0  0  0  0  0  0  0  0  0  0  0  0
  130.0748  128.6701   71.1311 H   0  0  0  0  0  0  0  0  0  0  0  0
  128.3425  129.1453   71.1311 H   0  0  0  0  0  0  0  0  0  0  0  0
  126.5479  126.9746   71.5269 H   0  0  0  0  0  0  0  0  0  0  0  0
  127.0182  127.8773   70.0468 H   0  0  0  0  0  0  0  0  0  0  0  0
  127.0353  126.0811   70.0468 H   0  0  0  0  0  0  0  0  0  0  0  0
  1  2  1  0
  2  3  1  0
  3  4  1  0
  4  5  1  0
  5  6  1  0
  6  7  1  0
  8  7  1  6
  8  9  1  0
  8 10  1  0
 10 11  1  0
 11 12  1  0
 11 13  1  0
 13 14  1  0
 14 15  1  0
 15 16  1  0
 15 17  1  0
 17 18  2  0
 17 19  1  0
 19 20  1  0
 20 21  1  0
 20 22  1  0
 20 23  1  0
  8 24  1  0
 24 25  2  0
 24 26  1  0
  1 27  1  0
  1 28  1  0
  1 29  1  0
  2 30  1  0
  2 31  1  0
  3 32  1  0
  3 33  1  0
  4 34  1  0
  4 35  1  0
  5 36  1  0
  5 37  1  0
  6 38  1  0
  6 39  1  0
  7 40  1  0
  7 41  1  0
  9 42  1  0
  9 43  1  0
  9 44  1  0
 10 45  1  0
 10 46  1  0
 11 47  1  1
 12 48  1  0
 12 49  1  0
 12 50  1  0
 13 51  1  0
 13 52  1  0
 14 53  1  0
 14 54  1  0
 16 55  1  0
 16 56  1  0
 16 57  1  0
 21 58  1  0
 21 59  1  0
 21 60  1  0
 22 61  1  0
 22 62  1  0
 22 63  1  0
 23 64  1  0
 23 65  1  0
 23 66  1  0
M  CHG  2  10   1  26  -1
M  END
>  <Binding energies>  (1) 
[-5.83]

>  <Ligand effiencies>  (1) 
[-0.2082142857142857]

>  <Interactions>  (1) 
["V-A:ILE:369:CG2:3237, V-A:GLY:454:CA:4049, V-B:HIS:456:CD2:9039, H-A:GLU:543:OE2:4910, V-B:GLU:543:C:9874, V-B:GLU:543:CB:9878, V-B:TYR:539:CE2:9848, V-B:GLU:543:CG:9879, V-A:HIS:456:CD2:4068, V-A:GLU:543:CD:4908, V-B:HIS:456:CE1:9041, H-A:GLY:454:N:4050, V-A:SER:385:C:3405, V-A:ILE:369:CD1:3239, V-A:HIS:456:CE1:4070, V-B:GLY:544:C:9884, V-B:TYR:539:CD2:9846, V-A:GLU:543:CG:4907, V-A:SER:385:CB:3409, V-B:GLY:544:CA:9886, V-B:GLU:543:CD:9880, V-A:LEU:475:CD2:4259, H-A:ARG:545:NH2:4928, V-A:ARG:545:CZ:4926, H-A:GLU:543:OE1:4909, V-A:GLU:543:CB:4906, H-A:ARG:545:NE:4924, V-A:SER:385:CA:3407, H-A:TYR:484:OH:4348"]

$$$$
ZINC2352932994
     RDKit          3D

 31 32  0  0  0  0  0  0  0  0999 V2000
  128.9060  126.9890   69.4800 C   0  0  0  0  0  0  0  0  0  0  0  0
  129.2110  126.4050   68.1090 C   0  0  0  0  0  0  0  0  0  0  0  0
  129.7210  125.1090   68.0170 C   0  0  0  0  0  0  0  0  0  0  0  0
  130.0100  124.5510   66.7730 C   0  0  0  0  0  0  0  0  0  0  0  0
  129.7930  125.2810   65.6030 C   0  0  0  0  0  0  0  0  0  0  0  0
  130.1260  124.6410   64.2620 C   0  0  0  0  0  0  0  0  0  0  0  0
  131.0330  123.5180   64.4570 N   0  0  0  0  0  0  0  0  0  0  0  0
  132.0460  123.4250   63.4920 C   0  0  0  0  0  0  0  0  0  0  0  0
  133.2620  124.1070   63.6650 C   0  0  0  0  0  0  0  0  0  0  0  0
  133.5690  125.0820   65.0650 Cl  0  0  0  0  0  0  0  0  0  0  0  0
  134.2610  124.0120   62.6930 C   0  0  0  0  0  0  0  0  0  0  0  0
  134.0570  123.2450   61.5480 C   0  0  0  0  0  0  0  0  0  0  0  0
  132.8510  122.5710   61.3670 C   0  0  0  0  0  0  0  0  0  0  0  0
  131.8440  122.6590   62.3310 C   0  0  0  0  0  0  0  0  0  0  0  0
  130.2090  121.7200   62.0230 Br  0  0  0  0  0  0  0  0  0  0  0  0
  129.2850  126.5870   65.6880 C   0  0  0  0  0  0  0  0  0  0  0  0
  129.0680  127.3210   64.5480 O   0  0  0  0  0  0  0  0  0  0  0  0
  128.9930  127.1490   66.9390 C   0  0  0  0  0  0  0  0  0  0  0  0
  128.2950  128.9280   67.0410 Br  0  0  0  0  0  0  0  0  0  0  0  0
  129.2652  126.3012   70.2597 H   0  0  0  0  0  0  0  0  0  0  0  0
  129.4122  127.9598   69.5859 H   0  0  0  0  0  0  0  0  0  0  0  0
  127.8200  127.1283   69.5859 H   0  0  0  0  0  0  0  0  0  0  0  0
  129.8959  124.5243   68.9322 H   0  0  0  0  0  0  0  0  0  0  0  0
  130.4117  123.5287   66.7127 H   0  0  0  0  0  0  0  0  0  0  0  0
  129.1995  124.2830   63.7892 H   0  0  0  0  0  0  0  0  0  0  0  0
  130.6103  125.3880   63.6159 H   0  0  0  0  0  0  0  0  0  0  0  0
  131.3490  123.3940   65.4090 H   0  0  0  0  0  0  0  0  0  0  0  0
  135.2130  124.5452   62.8324 H   0  0  0  0  0  0  0  0  0  0  0  0
  134.8479  123.1715   60.7870 H   0  0  0  0  0  0  0  0  0  0  0  0
  132.6913  121.9673   60.4615 H   0  0  0  0  0  0  0  0  0  0  0  0
  129.8590  127.7700   64.2420 H   0  0  0  0  0  0  0  0  0  0  0  0
  1  2  1  0
  2  3  2  0
  3  4  1  0
  4  5  2  0
  5  6  1  0
  6  7  1  0
  7  8  1  0
  8  9  2  0
  9 10  1  0
  9 11  1  0
 11 12  2  0
 12 13  1  0
 13 14  2  0
 14 15  1  0
  5 16  1  0
 16 17  1  0
 16 18  2  0
 18 19  1  0
 18  2  1  0
 14  8  1  0
  1 20  1  0
  1 21  1  0
  1 22  1  0
  3 23  1  0
  4 24  1  0
  6 25  1  0
  6 26  1  0
  7 27  1  0
 11 28  1  0
 12 29  1  0
 13 30  1  0
 17 31  1  0
M  END
>  <Binding energies>  (1) 
[-6.22]

>  <Ligand effiencies>  (1) 
[-0.29619047619047617]

>  <Interactions>  (1) 
["V-A:ILE:369:CG2:3237, V-A:GLY:454:CA:4049, V-B:GLU:543:C:9874, H-A:GLU:543:OE2:4910, V-B:GLU:543:CB:9878, V-B:ALA:541:CB:9864, V-A:TYR:484:CE2:4346, V-B:GLU:543:CG:9879, V-A:GLU:543:CD:4908, V-A:TYR:484:CZ:4347, V-B:HIS:456:CE1:9041, V-B:GLU:543:CA:9876, V-A:GLY:453:C:4042, V-A:HIS:456:CE1:4070, V-A:ILE:369:CD1:3239, V-A:GLU:543:CG:4907, V-B:GLU:543:CD:9880, V-A:ARG:545:CD:4923, V-A:LEU:475:CD2:4259, V-A:ARG:545:CZ:4926, H-A:GLU:543:OE1:4909, V-A:GLU:543:CB:4906, V-A:GLY:453:CA:4044, H-A:TYR:484:OH:4348"]

$$$$
ZINC2356161328
     RDKit          3D

 84 89  0  0  0  0  0  0  0  0999 V2000
  129.1630  122.4910   65.3910 C   0  0  0  0  0  0  0  0  0  0  0  0
  130.3230  123.4970   65.5090 C   0  0  0  0  0  0  0  0  0  0  0  0
  129.8310  124.8320   66.1030 C   0  0  0  0  0  0  0  0  0  0  0  0
  131.0430  123.6730   64.1450 C   0  0  0  0  0  0  0  0  0  0  0  0
  131.6590  125.0690   63.8730 C   0  0  2  0  0  0  0  0  0  0  0  0
  131.0470  125.6990   62.5920 C   0  0  0  0  0  0  0  0  0  0  0  0
  129.7370  125.1470   62.2150 N   0  0  0  0  0  0  0  0  0  0  0  0
  129.6440  123.8510   61.7960 C   0  0  0  0  0  0  0  0  0  0  0  0
  128.5550  123.2870   61.6530 O   0  0  0  0  0  0  0  0  0  0  0  0
  130.9420  123.0640   61.4950 C   0  0  0  0  0  0  0  0  0  0  0  0
  130.7860  121.5620   61.3070 C   0  0  0  0  0  0  0  0  0  0  0  0
  131.5640  120.7060   60.5300 C   0  0  0  0  0  0  0  0  0  0  0  0
  131.0110  119.4520   60.6970 N   0  0  0  0  0  0  0  0  0  0  0  0
  131.1950  118.1450   60.2800 C   0  0  0  0  0  0  0  0  0  0  0  0
  130.2540  117.3040   60.8360 C   0  0  0  0  0  0  0  0  0  0  0  0
  129.1230  118.1410   61.8930 S   0  0  0  0  0  0  0  0  0  0  0  0
  129.9550  119.6500   61.5610 C   0  0  0  0  0  0  0  0  0  0  0  0
  129.8240  120.9030   61.9310 N   0  0  0  0  0  0  0  0  0  0  0  0
  128.5680  126.0310   62.3860 C   0  0  0  0  0  0  0  0  0  0  0  0
  128.7730  127.2600   63.2910 C   0  0  0  0  0  0  0  0  0  0  0  0
  128.4160  127.2360   64.4670 O   0  0  0  0  0  0  0  0  0  0  0  0
  129.3180  128.3720   62.7540 N   0  0  0  0  0  0  0  0  0  0  0  0
  129.7700  128.5960   61.3680 C   0  0  2  0  0  0  0  0  0  0  0  0
  129.8600  130.1060   60.9820 C   0  0  0  0  0  0  0  0  0  0  0  0
  131.2800  130.6480   60.8520 C   0  0  0  0  0  0  0  0  0  0  0  0
  131.8720  130.7680   59.5910 C   0  0  0  0  0  0  0  0  0  0  0  0
  133.1690  131.2610   59.4760 C   0  0  0  0  0  0  0  0  0  0  0  0
  133.8730  131.6310   60.6200 C   0  0  0  0  0  0  0  0  0  0  0  0
  133.2910  131.5100   61.8800 C   0  0  0  0  0  0  0  0  0  0  0  0
  131.9950  131.0160   61.9970 C   0  0  0  0  0  0  0  0  0  0  0  0
  129.0540  127.6820   60.3610 C   0  0  0  0  0  0  0  0  0  0  0  0
  129.6350  126.6860   59.7270 N   0  0  0  0  0  0  0  0  0  0  0  0
  128.8120  126.0050   58.9500 C   0  0  0  0  0  0  0  0  0  0  0  0
  127.5100  126.4900   58.8830 C   0  0  0  0  0  0  0  0  0  0  0  0
  127.3710  127.8590   59.9420 S   0  0  0  0  0  0  0  0  0  0  0  0
  129.3070  124.8540   58.2470 C   0  0  0  0  0  0  0  0  0  0  0  0
  128.5270  123.9770   57.8820 O   0  0  0  0  0  0  0  0  0  0  0  0
  130.6300  124.7790   57.9840 N   0  0  0  0  0  0  0  0  0  0  0  0
  131.7120  125.6730   58.4100 C   0  0  2  0  0  0  0  0  0  0  0  0
  132.6350  126.0060   57.2280 C   0  0  0  0  0  0  0  0  0  0  0  0
  132.5070  125.0830   59.5620 C   0  0  0  0  0  0  0  0  0  0  0  0
  132.8060  125.6780   60.6910 N   0  0  0  0  0  0  0  0  0  0  0  0
  133.5250  124.8060   61.3830 C   0  0  0  0  0  0  0  0  0  0  0  0
  133.6800  123.6590   60.6070 C   0  0  0  0  0  0  0  0  0  0  0  0
  133.0450  123.8470   59.4290 O   0  0  0  0  0  0  0  0  0  0  0  0
  133.9920  124.9330   62.7510 C   0  0  0  0  0  0  0  0  0  0  0  0
  135.2000  124.9840   62.9720 O   0  0  0  0  0  0  0  0  0  0  0  0
  133.1250  124.9910   63.7890 N   0  0  0  0  0  0  0  0  0  0  0  0
  128.8268  122.1994   66.3969 H   0  0  0  0  0  0  0  0  0  0  0  0
  128.3284  122.9560   64.8459 H   0  0  0  0  0  0  0  0  0  0  0  0
  129.5053  121.5990   64.8459 H   0  0  0  0  0  0  0  0  0  0  0  0
  131.0707  123.0965   66.2094 H   0  0  0  0  0  0  0  0  0  0  0  0
  129.8522  124.7746   67.2013 H   0  0  0  0  0  0  0  0  0  0  0  0
  130.4876  125.6475   65.7657 H   0  0  0  0  0  0  0  0  0  0  0  0
  128.8022  125.0264   65.7657 H   0  0  0  0  0  0  0  0  0  0  0  0
  131.8547  122.9323   64.0957 H   0  0  0  0  0  0  0  0  0  0  0  0
  130.2632  123.5407   63.3806 H   0  0  0  0  0  0  0  0  0  0  0  0
  131.4126  125.7262   64.7200 H   0  0  0  0  0  0  0  0  0  0  0  0
  130.9302  126.7796   62.7611 H   0  0  0  0  0  0  0  0  0  0  0  0
  131.7364  125.4687   61.7663 H   0  0  0  0  0  0  0  0  0  0  0  0
  131.3777  123.4747   60.5722 H   0  0  0  0  0  0  0  0  0  0  0  0
  131.5749  123.1860   62.3864 H   0  0  0  0  0  0  0  0  0  0  0  0
  132.4350  120.9730   59.9136 H   0  0  0  0  0  0  0  0  0  0  0  0
  131.9899  117.8189   59.5931 H   0  0  0  0  0  0  0  0  0  0  0  0
  130.2145  116.2225   60.6392 H   0  0  0  0  0  0  0  0  0  0  0  0
  128.2720  126.3928   61.3903 H   0  0  0  0  0  0  0  0  0  0  0  0
  127.8058  125.4180   62.8893 H   0  0  0  0  0  0  0  0  0  0  0  0
  129.4490  129.1580   63.3750 H   0  0  0  0  0  0  0  0  0  0  0  0
  130.8197  128.2719   61.3133 H   0  0  0  0  0  0  0  0  0  0  0  0
  129.3512  130.2436   60.0165 H   0  0  0  0  0  0  0  0  0  0  0  0
  129.3885  130.6650   61.8037 H   0  0  0  0  0  0  0  0  0  0  0  0
  131.3134  130.4731   58.6904 H   0  0  0  0  0  0  0  0  0  0  0  0
  133.6365  131.3581   58.4850 H   0  0  0  0  0  0  0  0  0  0  0  0
  134.8970  132.0220   60.5276 H   0  0  0  0  0  0  0  0  0  0  0  0
  133.8534  131.8036   62.7786 H   0  0  0  0  0  0  0  0  0  0  0  0
  131.5327  130.9149   62.9900 H   0  0  0  0  0  0  0  0  0  0  0  0
  126.7024  126.0751   58.2621 H   0  0  0  0  0  0  0  0  0  0  0  0
  130.9420  123.9160   57.5630 H   0  0  0  0  0  0  0  0  0  0  0  0
  131.2509  126.6047   58.7696 H   0  0  0  0  0  0  0  0  0  0  0  0
  133.6059  126.3563   57.6083 H   0  0  0  0  0  0  0  0  0  0  0  0
  132.7848  125.1052   56.6147 H   0  0  0  0  0  0  0  0  0  0  0  0
  132.1752  126.7949   56.6147 H   0  0  0  0  0  0  0  0  0  0  0  0
  134.2276  122.7523   60.9037 H   0  0  0  0  0  0  0  0  0  0  0  0
  133.5680  125.0620   64.6930 H   0  0  0  0  0  0  0  0  0  0  0  0
  1  2  1  0
  2  3  1  0
  2  4  1  0
  4  5  1  0
  5  6  1  0
  6  7  1  0
  7  8  1  0
  8  9  2  0
  8 10  1  0
 10 11  1  0
 11 12  2  0
 12 13  1  0
 13 14  1  0
 14 15  2  0
 15 16  1  0
 16 17  1  0
 17 18  2  0
  7 19  1  0
 19 20  1  0
 20 21  2  0
 20 22  1  0
 22 23  1  0
 23 24  1  0
 24 25  1  0
 25 26  2  0
 26 27  1  0
 27 28  2  0
 28 29  1  0
 29 30  2  0
 23 31  1  0
 31 32  2  0
 32 33  1  0
 33 34  2  0
 34 35  1  0
 33 36  1  0
 36 37  2  0
 36 38  1  0
 38 39  1  0
 39 40  1  0
 39 41  1  0
 41 42  2  0
 42 43  1  0
 43 44  2  0
 44 45  1  0
 43 46  1  0
 46 47  2  0
 46 48  1  0
 48  5  1  0
 18 11  1  0
 30 25  1  0
 35 31  1  0
 45 41  1  0
 17 13  1  0
  1 49  1  0
  1 50  1  0
  1 51  1  0
  2 52  1  0
  3 53  1  0
  3 54  1  0
  3 55  1  0
  4 56  1  0
  4 57  1  0
  5 58  1  1
  6 59  1  0
  6 60  1  0
 10 61  1  0
 10 62  1  0
 12 63  1  0
 14 64  1  0
 15 65  1  0
 19 66  1  0
 19 67  1  0
 22 68  1  0
 23 69  1  1
 24 70  1  0
 24 71  1  0
 26 72  1  0
 27 73  1  0
 28 74  1  0
 29 75  1  0
 30 76  1  0
 34 77  1  0
 38 78  1  0
 39 79  1  1
 40 80  1  0
 40 81  1  0
 40 82  1  0
 44 83  1  0
 48 84  1  0
M  END
>  <Binding energies>  (1) 
[-4.31]

>  <Ligand effiencies>  (1) 
[-0.08132075471698112]

>  <Interactions>  (1) 
["V-A:ILE:369:CG2:3237, V-A:ASP:366:CA:3210, H-A:GLU:543:OE2:4910, V-B:GLU:543:CB:9878, V-B:ALA:541:CB:9864, H-A:ARG:545:NH1:4927, V-A:TYR:484:CE2:4346, V-B:TYR:539:CE2:9848, V-B:GLU:543:CG:9879, V-B:TYR:539:C:9839, V-A:ASP:366:CG:3213, V-A:ASN:362:CB:3176, V-A:LEU:363:CD1:3189, V-A:LEU:363:CB:3187, V-B:TYR:539:CZ:9849, H-B:TYR:539:OH:9850, V-A:LEU:475:CD1:4258, V-B:TYR:539:CB:9843, V-A:HIS:383:CE1:3393, V-A:TYR:484:CZ:4347, V-A:GLU:543:CD:4908, V-B:GLU:543:CA:9876, H-A:GLY:454:N:4050, V-A:ILE:369:CD1:3239, V-A:ASP:366:C:3208, V-A:PRO:482:CB:4326, V-B:TYR:539:CD2:9846, V-A:TYR:531:CZ:4794, V-B:GLU:543:CD:9880, V-A:ASP:366:CB:3212, V-A:LEU:475:CD2:4259, H-A:ARG:545:NH2:4928, V-A:ARG:545:CZ:4926, H-A:GLU:543:OE1:4909, V-A:ASN:362:C:3172, V-A:PRO:482:CG:4327, V-A:LEU:363:CA:3185, V-A:PRO:540:CB:4885, V-B:PRO:540:C:9853, V-B:ALA:541:CA:9862, V-A:HIS:383:NE2:3394, H-A:TYR:484:OH:4348"]

$$$$
ZINC2356288734
     RDKit          3D

108116  0  0  0  0  0  0  0  0999 V2000
  129.8290  120.1520   62.5410 C   0  0  0  0  0  0  0  0  0  0  0  0
  130.0550  120.8490   61.1960 C   0  0  0  0  0  0  0  0  0  0  0  0
  131.1260  120.1370   60.3780 C   0  0  0  0  0  0  0  0  0  0  0  0
  129.4230  121.9840   60.7740 C   0  0  0  0  0  0  0  0  0  0  0  0
  129.6760  122.6920   59.4290 C   0  0  0  0  0  0  0  0  0  0  0  0
  128.4320  123.1970   58.6530 C   0  0  0  0  0  0  0  0  0  0  0  0
  128.0580  124.6380   58.9590 C   0  0  0  0  0  0  0  0  0  0  0  0
  126.7300  125.0550   58.9160 C   0  0  0  0  0  0  0  0  0  0  0  0
  126.3940  126.3540   59.2890 C   0  0  0  0  0  0  0  0  0  0  0  0
  127.3710  127.2610   59.7230 C   0  0  0  0  0  0  0  0  0  0  0  0
  128.7260  126.8450   59.7320 C   0  0  0  0  0  0  0  0  0  0  0  0
  129.0470  125.5420   59.3320 C   0  0  0  0  0  0  0  0  0  0  0  0
  129.8930  127.7100   60.2080 C   0  0  0  0  0  0  0  0  0  0  0  0
  130.7860  126.9310   61.0760 C   0  0  0  0  0  0  0  0  0  0  0  0
  131.3480  126.1680   61.8520 C   0  0  0  0  0  0  0  0  0  0  0  0
  131.9570  125.3430   62.9010 C   0  0  0  0  0  0  0  0  0  0  0  0
  131.0840  124.1820   63.4750 C   0  0  1  0  0  0  0  0  0  0  0  0
  131.5860  122.7840   63.0550 C   0  0  0  0  0  0  0  0  0  0  0  0
  131.2670  124.1890   64.9020 O   0  0  0  0  0  0  0  0  0  0  0  0
  130.7100  125.2400   65.6110 C   0  0  0  0  0  0  0  0  0  0  0  0
  131.3270  125.5370   66.8250 C   0  0  0  0  0  0  0  0  0  0  0  0
  130.8340  126.5640   67.6250 C   0  0  0  0  0  0  0  0  0  0  0  0
  129.7100  127.2950   67.2250 C   0  0  0  0  0  0  0  0  0  0  0  0
  129.1350  128.4200   68.0050 C   0  0  0  0  0  0  0  0  0  0  0  0
  129.7570  128.8020   69.3480 C   0  0  0  0  0  0  0  0  0  0  0  0
  128.7510  128.8710   70.3390 O   0  0  0  0  0  0  0  0  0  0  0  0
  128.1070  129.1290   67.4910 C   0  0  0  0  0  0  0  0  0  0  0  0
  127.4860  128.7950   66.2050 C   0  0  0  0  0  0  0  0  0  0  0  0
  126.5560  129.3820   65.6580 O   0  0  0  0  0  0  0  0  0  0  0  0
  127.9900  127.6930   65.5410 O   0  0  0  0  0  0  0  0  0  0  0  0
  129.0960  126.9830   65.9990 C   0  0  0  0  0  0  0  0  0  0  0  0
  129.5700  125.9460   65.1780 C   0  0  0  0  0  0  0  0  0  0  0  0
  128.9550  125.6380   63.8090 C   0  0  1  0  0  0  0  0  0  0  0  0
  129.1250  126.7770   62.9520 O   0  0  0  0  0  0  0  0  0  0  0  0
  128.0770  127.5390   62.5470 C   0  0  0  0  0  0  0  0  0  0  0  0
  126.8990  127.1870   62.4970 O   0  0  0  0  0  0  0  0  0  0  0  0
  128.4860  128.9810   62.2210 C   0  0  0  0  0  0  0  0  0  0  0  0
  128.0040  129.5300   60.8510 C   0  0  2  0  0  0  0  0  0  0  0  0
  127.4960  130.9840   61.0190 C   0  0  0  0  0  0  0  0  0  0  0  0
  127.1660  131.6540   59.6560 C   0  0  1  0  0  0  0  0  0  0  0  0
  128.3690  132.1040   58.8030 C   0  0  0  0  0  0  0  0  0  0  0  0
  128.2630  133.0740   57.7930 C   0  0  0  0  0  0  0  0  0  0  0  0
  129.3800  133.4570   57.0500 C   0  0  0  0  0  0  0  0  0  0  0  0
  130.6180  132.8710   57.2990 C   0  0  0  0  0  0  0  0  0  0  0  0
  130.7440  131.8900   58.2840 C   0  0  0  0  0  0  0  0  0  0  0  0
  132.0970  131.2570   58.5720 C   0  0  0  0  0  0  0  0  0  0  0  0
  132.5600  131.4590   60.0080 C   0  0  0  0  0  0  0  0  0  0  0  0
  133.8820  131.8290   60.2680 C   0  0  0  0  0  0  0  0  0  0  0  0
  134.3010  132.0300   61.5800 C   0  0  0  0  0  0  0  0  0  0  0  0
  133.3960  131.8670   62.6270 C   0  0  0  0  0  0  0  0  0  0  0  0
  132.0740  131.5070   62.3730 C   0  0  0  0  0  0  0  0  0  0  0  0
  131.6540  131.3060   61.0620 C   0  0  0  0  0  0  0  0  0  0  0  0
  129.6210  131.5150   59.0290 C   0  0  0  0  0  0  0  0  0  0  0  0
  126.1950  130.7350   58.9170 C   0  0  0  0  0  0  0  0  0  0  0  0
  126.0700  129.4140   59.1560 C   0  0  0  0  0  0  0  0  0  0  0  0
  126.8840  128.6430   60.1990 C   0  0  1  0  0  0  0  0  0  0  0  0
  129.5290  124.3070   63.2600 C   0  0  1  0  0  0  0  0  0  0  0  0
  128.9410  123.9810   61.9850 O   0  0  0  0  0  0  0  0  0  0  0  0
  128.5310  122.7100   61.6910 C   0  0  0  0  0  0  0  0  0  0  0  0
  127.4840  122.1990   62.0930 O   0  0  0  0  0  0  0  0  0  0  0  0
  130.0558  120.8515   63.3591 H   0  0  0  0  0  0  0  0  0  0  0  0
  128.7801  119.8290   62.6149 H   0  0  0  0  0  0  0  0  0  0  0  0
  130.4888  119.2750   62.6149 H   0  0  0  0  0  0  0  0  0  0  0  0
  131.8472  119.6576   61.0563 H   0  0  0  0  0  0  0  0  0  0  0  0
  130.6547  119.3718   59.7437 H   0  0  0  0  0  0  0  0  0  0  0  0
  131.6491  120.8677   59.7437 H   0  0  0  0  0  0  0  0  0  0  0  0
  130.3185  123.5624   59.6281 H   0  0  0  0  0  0  0  0  0  0  0  0
  130.1231  121.9232   58.7817 H   0  0  0  0  0  0  0  0  0  0  0  0
  128.6387  123.1142   57.5758 H   0  0  0  0  0  0  0  0  0  0  0  0
  127.5833  122.5729   58.9696 H   0  0  0  0  0  0  0  0  0  0  0  0
  125.9455  124.3576   58.5870 H   0  0  0  0  0  0  0  0  0  0  0  0
  125.3427  126.6743   59.2422 H   0  0  0  0  0  0  0  0  0  0  0  0
  130.1009  125.2276   59.3124 H   0  0  0  0  0  0  0  0  0  0  0  0
  130.4580  128.0688   59.3351 H   0  0  0  0  0  0  0  0  0  0  0  0
  129.4961  128.5632   60.7776 H   0  0  0  0  0  0  0  0  0  0  0  0
  132.8727  124.8974   62.4852 H   0  0  0  0  0  0  0  0  0  0  0  0
  132.1221  126.0263   63.7471 H   0  0  0  0  0  0  0  0  0  0  0  0
  131.8006  122.1864   63.9532 H   0  0  0  0  0  0  0  0  0  0  0  0
  130.8123  122.2812   62.4563 H   0  0  0  0  0  0  0  0  0  0  0  0
  132.5029  122.8882   62.4563 H   0  0  0  0  0  0  0  0  0  0  0  0
  132.2044  124.9593   67.1513 H   0  0  0  0  0  0  0  0  0  0  0  0
  131.3309  126.8022   68.5770 H   0  0  0  0  0  0  0  0  0  0  0  0
  130.5008  128.0441   69.6348 H   0  0  0  0  0  0  0  0  0  0  0  0
  130.2447  129.7837   69.2564 H   0  0  0  0  0  0  0  0  0  0  0  0
  128.9230  129.6320   70.8980 H   0  0  0  0  0  0  0  0  0  0  0  0
  127.7210  129.9890   68.0579 H   0  0  0  0  0  0  0  0  0  0  0  0
  127.8698  125.4725   63.8793 H   0  0  0  0  0  0  0  0  0  0  0  0
  128.0781  129.6329   63.0076 H   0  0  0  0  0  0  0  0  0  0  0  0
  129.5847  128.9739   62.1686 H   0  0  0  0  0  0  0  0  0  0  0  0
  128.8678  129.5063   60.1704 H   0  0  0  0  0  0  0  0  0  0  0  0
  126.5860  130.9717   61.6368 H   0  0  0  0  0  0  0  0  0  0  0  0
  128.2971  131.5677   61.4960 H   0  0  0  0  0  0  0  0  0  0  0  0
  126.6974  132.6267   59.8661 H   0  0  0  0  0  0  0  0  0  0  0  0
  127.2873  133.5375   57.5852 H   0  0  0  0  0  0  0  0  0  0  0  0
  129.2824  134.2229   56.2665 H   0  0  0  0  0  0  0  0  0  0  0  0
  131.4990  133.1818   56.7182 H   0  0  0  0  0  0  0  0  0  0  0  0
  132.0265  130.1769   58.3761 H   0  0  0  0  0  0  0  0  0  0  0  0
  132.8334  131.7482   57.9189 H   0  0  0  0  0  0  0  0  0  0  0  0
  134.5906  131.9612   59.4371 H   0  0  0  0  0  0  0  0  0  0  0  0
  135.3422  132.3163   61.7895 H   0  0  0  0  0  0  0  0  0  0  0  0
  133.7283  132.0240   63.6638 H   0  0  0  0  0  0  0  0  0  0  0  0
  131.3657  131.3823   63.2053 H   0  0  0  0  0  0  0  0  0  0  0  0
  130.6103  131.0270   60.8548 H   0  0  0  0  0  0  0  0  0  0  0  0
  129.7221  130.7436   59.8066 H   0  0  0  0  0  0  0  0  0  0  0  0
  125.5565  131.1798   58.1396 H   0  0  0  0  0  0  0  0  0  0  0  0
  125.3340  128.8524   58.5619 H   0  0  0  0  0  0  0  0  0  0  0  0
  126.1816  128.4013   61.0103 H   0  0  0  0  0  0  0  0  0  0  0  0
  129.2052  123.4506   63.8697 H   0  0  0  0  0  0  0  0  0  0  0  0
  1  2  1  0
  2  3  1  0
  2  4  2  3
  4  5  1  0
  5  6  1  0
  6  7  1  0
  7  8  1  0
  8  9  2  0
  9 10  1  0
 10 11  2  0
 11 12  1  0
 11 13  1  0
 13 14  1  0
 14 15  3  0
 15 16  1  0
 16 17  1  0
 17 18  1  6
 17 19  1  0
 19 20  1  0
 20 21  2  0
 21 22  1  0
 22 23  2  0
 23 24  1  0
 24 25  1  0
 25 26  1  0
 24 27  2  0
 27 28  1  0
 28 29  2  0
 28 30  1  0
 30 31  1  0
 31 32  2  0
 32 33  1  0
 33 34  1  0
 34 35  1  0
 35 36  2  0
 35 37  1  0
 37 38  1  0
 38 39  1  0
 39 40  1  0
 40 41  1  0
 41 42  2  0
 42 43  1  0
 43 44  2  0
 44 45  1  0
 45 46  1  0
 46 47  1  0
 47 48  2  0
 48 49  1  0
 49 50  2  0
 50 51  1  0
 51 52  2  0
 45 53  2  0
 40 54  1  0
 54 55  2  0
 55 56  1  0
 33 57  1  0
 57 58  1  0
 58 59  1  0
 59 60  2  0
 59  4  1  0
 12  7  2  0
 57 17  1  0
 56 10  1  0
 32 20  1  0
 56 38  1  0
 31 23  1  0
 53 41  1  0
 52 47  1  0
  1 61  1  0
  1 62  1  0
  1 63  1  0
  3 64  1  0
  3 65  1  0
  3 66  1  0
  5 67  1  0
  5 68  1  0
  6 69  1  0
  6 70  1  0
  8 71  1  0
  9 72  1  0
 12 73  1  0
 13 74  1  0
 13 75  1  0
 16 76  1  0
 16 77  1  0
 18 78  1  0
 18 79  1  0
 18 80  1  0
 21 81  1  0
 22 82  1  0
 25 83  1  0
 25 84  1  0
 26 85  1  0
 27 86  1  0
 33 87  1  1
 37 88  1  0
 37 89  1  0
 38 90  1  6
 39 91  1  0
 39 92  1  0
 40 93  1  1
 42 94  1  0
 43 95  1  0
 44 96  1  0
 46 97  1  0
 46 98  1  0
 48 99  1  0
 49100  1  0
 50101  1  0
 51102  1  0
 52103  1  0
 53104  1  0
 54105  1  0
 55106  1  0
 56107  1  1
 57108  1  1
M  END
>  <Binding energies>  (1) 
[1.9]

>  <Ligand effiencies>  (1) 
[0.02923076923076923]

>  <Interactions>  (1) 
["V-A:ILE:538:C:4858, V-A:ALA:541:C:4888, V-A:GLU:543:CA:4904, V-A:GLU:543:C:4902, V-B:GLU:543:CB:9878, V-B:ASP:366:CG:8184, V-B:ALA:541:CB:9864, V-B:TYR:539:CE2:9848, V-A:LEU:475:CG:4257, V-B:GLU:543:CG:9879, V-A:ASP:366:CG:3213, V-A:ASN:362:CB:3176, V-A:TYR:539:CD1:4873, V-A:LEU:363:CD1:3189, V-A:LEU:363:CB:3187, V-B:TYR:539:CZ:9849, V-A:ILE:538:CA:4860, V-A:TYR:539:CZ:4877, H-B:ALA:541:N:9863, V-A:LEU:475:CD1:4258, V-A:TYR:539:CA:4869, V-A:GLU:543:CD:4908, V-A:TYR:484:CZ:4347, H-B:TYR:484:OH:9319, V-A:ASN:362:CG:3177, V-B:HIS:456:CE1:9041, V-A:HIS:456:CE1:4070, V-B:TYR:484:CZ:9318, H-B:HIS:456:NE2:9042, V-B:TYR:539:CD2:9846, V-A:GLU:543:CG:4907, V-B:GLU:543:CD:9880, V-A:TYR:539:C:4867, V-A:LEU:475:CD2:4259, V-A:ASN:362:C:3172, V-B:TYR:539:CG:9844, H-B:ARG:545:NH2:9900, V-A:GLU:543:CB:4906, V-A:PRO:540:N:4884, V-A:TYR:539:CG:4872, V-A:PRO:540:CB:4885, V-A:PRO:540:CA:4883, V-A:LEU:363:CA:3185, V-A:ASN:362:CA:3174, V-B:ALA:541:CA:9862, V-A:PRO:540:CD:4887, V-A:TYR:539:CE1:4875, H-A:TYR:484:OH:4348, H-A:GLU:543:O:4903"]

$$$$
ZINC2356293032-again1
     RDKit          3D

137146  0  0  0  0  0  0  0  0999 V2000
  128.7490  122.7790   62.0760 N   0  0  0  0  0  0  0  0  0  0  0  0
  127.9190  123.8510   61.5620 C   0  0  1  0  0  0  0  0  0  0  0  0
  126.4900  123.3480   61.3360 N   0  0  0  0  0  0  0  0  0  0  0  0
  127.9790  125.1110   62.4380 C   0  0  0  0  0  0  0  0  0  0  0  0
  128.6430  125.0550   63.6710 C   0  0  0  0  0  0  0  0  0  0  0  0
  128.7080  126.1660   64.5120 C   0  0  0  0  0  0  0  0  0  0  0  0
  128.0980  127.3830   64.1300 C   0  0  0  0  0  0  0  0  0  0  0  0
  127.4660  127.4410   62.8810 C   0  0  0  0  0  0  0  0  0  0  0  0
  127.3830  126.3250   62.0440 C   0  0  0  0  0  0  0  0  0  0  0  0
  126.6200  126.4690   60.7320 C   0  0  0  0  0  0  0  0  0  0  0  0
  126.7640  124.9710   59.7190 S   0  0  0  0  0  0  0  0  0  0  0  0
  126.8950  125.6560   57.8010 S   0  0  0  0  0  0  0  0  0  0  0  0
  128.4930  126.5300   57.7000 C   0  0  0  0  0  0  0  0  0  0  0  0
  129.6900  125.9920   58.5770 C   0  0  1  0  0  0  0  0  0  0  0  0
  129.3060  124.3980   58.7110 C   0  0  0  0  0  0  0  0  0  0  0  0
  129.9950  123.2950   59.4600 C   0  0  0  0  0  0  0  0  0  0  0  0
  130.7750  122.7210   60.2260 C   0  0  0  0  0  0  0  0  0  0  0  0
  131.8510  122.9140   61.2950 C   0  0  2  0  0  0  0  0  0  0  0  0
  131.3230  122.5390   62.6990 C   0  0  0  0  0  0  0  0  0  0  0  0
  130.5690  123.7500   63.2290 C   0  0  0  0  0  0  0  0  0  0  0  0
  130.6440  124.7790   62.0980 C   0  0  0  0  0  0  0  0  0  0  0  0
  132.0120  124.4950   61.2620 C   0  0  1  0  0  0  0  0  0  0  0  0
  132.7980  125.7430   62.0680 C   0  0  0  0  0  0  0  0  0  0  0  0
  132.2400  127.1670   61.4950 C   0  0  0  0  0  0  0  0  0  0  0  0
  131.3500  127.5140   60.1310 C   0  0  1  0  0  0  0  0  0  0  0  0
  131.3020  129.0550   60.2580 C   0  0  0  0  0  0  0  0  0  0  0  0
  131.2650  129.7570   61.4120 C   0  0  0  0  0  0  0  0  0  0  0  0
  131.2220  131.2140   61.5080 C   0  0  0  0  0  0  0  0  0  0  0  0
  130.6060  131.7630   62.4200 O   0  0  0  0  0  0  0  0  0  0  0  0
  131.9130  132.1060   60.4590 C   0  0  0  0  0  0  0  0  0  0  0  0
  130.9870  132.6000   59.3240 C   0  0  0  0  0  0  0  0  0  0  0  0
  130.2250  131.5130   58.5690 C   0  0  0  0  0  0  0  0  0  0  0  0
  130.7410  130.9600   57.3940 C   0  0  0  0  0  0  0  0  0  0  0  0
  130.0300  129.9710   56.7120 C   0  0  0  0  0  0  0  0  0  0  0  0
  128.7900  129.5400   57.1900 C   0  0  0  0  0  0  0  0  0  0  0  0
  128.1000  128.5730   56.5050 O   0  0  0  0  0  0  0  0  0  0  0  0
  128.2570  130.1050   58.3550 C   0  0  0  0  0  0  0  0  0  0  0  0
  128.9890  131.0740   59.0450 C   0  0  0  0  0  0  0  0  0  0  0  0
  127.0270  129.7240   58.8380 O   0  0  0  0  0  0  0  0  0  0  0  0
  126.9020  129.7650   60.2620 C   0  0  0  0  0  0  0  0  0  0  0  0
  127.2470  131.1680   60.8090 C   0  0  0  0  0  0  0  0  0  0  0  0
  127.6200  131.2070   62.2850 C   0  0  0  0  0  0  0  0  0  0  0  0
  128.0290  132.4020   62.8750 C   0  0  0  0  0  0  0  0  0  0  0  0
  128.4800  132.4070   64.1910 C   0  0  0  0  0  0  0  0  0  0  0  0
  128.5300  131.2250   64.9340 C   0  0  0  0  0  0  0  0  0  0  0  0
  129.0250  131.3360   66.2060 O   0  0  0  0  0  0  0  0  0  0  0  0
  128.0900  130.0060   64.3670 C   0  0  0  0  0  0  0  0  0  0  0  0
  127.6200  130.0350   63.0440 C   0  0  0  0  0  0  0  0  0  0  0  0
  128.0800  128.6180   65.0730 C   0  0  2  0  0  0  0  0  0  0  0  0
  129.0280  128.3790   66.2940 C   0  0  0  0  0  0  0  0  0  0  0  0
  128.4460  128.9530   67.6240 C   0  0  0  0  0  0  0  0  0  0  0  0
  127.7430  129.9630   67.6240 O   0  0  0  0  0  0  0  0  0  0  0  0
  128.7380  128.2220   68.8490 C   0  0  0  0  0  0  0  0  0  0  0  0
  128.0990  128.4390   70.0790 C   0  0  0  0  0  0  0  0  0  0  0  0
  128.6280  127.5540   70.9990 C   0  0  0  0  0  0  0  0  0  0  0  0
  129.5720  126.8050   70.3510 N   0  0  0  0  0  0  0  0  0  0  0  0
  129.6770  127.1870   69.0340 C   0  0  0  0  0  0  0  0  0  0  0  0
  130.6660  126.4710   68.1160 C   0  0  0  0  0  0  0  0  0  0  0  0
  130.1190  126.2430   66.7690 C   0  0  0  0  0  0  0  0  0  0  0  0
  129.4600  126.0560   65.7580 C   0  0  0  0  0  0  0  0  0  0  0  0
  131.9800  127.2070   58.7160 C   0  0  0  0  0  0  0  0  0  0  0  0
  131.0220  126.3490   57.8190 C   0  0  1  0  0  0  0  0  0  0  0  0
  131.6440  125.3070   57.0930 O   0  0  0  0  0  0  0  0  0  0  0  0
  129.8660  126.9760   59.8210 C   0  0  0  0  0  0  0  0  0  0  0  0
  132.6840  124.8250   59.8120 C   0  0  0  0  0  0  0  0  0  0  0  0
  133.6040  123.7780   59.0550 C   0  0  1  0  0  0  0  0  0  0  0  0
  133.6060  123.9180   57.6430 O   0  0  0  0  0  0  0  0  0  0  0  0
  135.0710  124.3360   59.2660 C   0  0  0  0  0  0  0  0  0  0  0  0
  135.9200  124.3680   58.1240 O   0  0  0  0  0  0  0  0  0  0  0  0
  133.6600  122.3060   59.5560 C   0  0  0  0  0  0  0  0  0  0  0  0
  133.1640  122.1590   60.9970 C   0  0  0  0  0  0  0  0  0  0  0  0
  129.6950  122.8730   61.7340 H   0  0  0  0  0  0  0  0  0  0  0  0
  128.8020  122.8290   63.0830 H   0  0  0  0  0  0  0  0  0  0  0  0
  128.3223  124.1613   60.5867 H   0  0  0  0  0  0  0  0  0  0  0  0
  126.4000  123.0110   60.3880 H   0  0  0  0  0  0  0  0  0  0  0  0
  125.8250  124.0930   61.4800 H   0  0  0  0  0  0  0  0  0  0  0  0
  126.2870  122.5820   61.9620 H   0  0  0  0  0  0  0  0  0  0  0  0
  129.1229  124.1153   63.9820 H   0  0  0  0  0  0  0  0  0  0  0  0
  127.0227  128.3917   62.5499 H   0  0  0  0  0  0  0  0  0  0  0  0
  125.5580  126.6515   60.9531 H   0  0  0  0  0  0  0  0  0  0  0  0
  127.0505  127.3111   60.1703 H   0  0  0  0  0  0  0  0  0  0  0  0
  128.8173  126.4978   56.6494 H   0  0  0  0  0  0  0  0  0  0  0  0
  128.2842  127.5309   58.1056 H   0  0  0  0  0  0  0  0  0  0  0  0
  128.2852  124.4025   59.1209 H   0  0  0  0  0  0  0  0  0  0  0  0
  129.6078  124.0929   57.6982 H   0  0  0  0  0  0  0  0  0  0  0  0
  130.6472  121.6738   62.6298 H   0  0  0  0  0  0  0  0  0  0  0  0
  132.1511  122.2676   63.3702 H   0  0  0  0  0  0  0  0  0  0  0  0
  129.5229  123.4902   63.4485 H   0  0  0  0  0  0  0  0  0  0  0  0
  130.9989  124.1304   64.1674 H   0  0  0  0  0  0  0  0  0  0  0  0
  129.7716  124.6731   61.4364 H   0  0  0  0  0  0  0  0  0  0  0  0
  130.6461  125.8007   62.5056 H   0  0  0  0  0  0  0  0  0  0  0  0
  132.5953  125.6728   63.1469 H   0  0  0  0  0  0  0  0  0  0  0  0
  133.8833  125.6714   61.9037 H   0  0  0  0  0  0  0  0  0  0  0  0
  131.6276  127.5625   62.3188 H   0  0  0  0  0  0  0  0  0  0  0  0
  133.2030  127.5576   61.1344 H   0  0  0  0  0  0  0  0  0  0  0  0
  131.2976  129.6329   59.3220 H   0  0  0  0  0  0  0  0  0  0  0  0
  131.2675  129.1868   62.3526 H   0  0  0  0  0  0  0  0  0  0  0  0
  132.3237  132.9867   60.9745 H   0  0  0  0  0  0  0  0  0  0  0  0
  132.6862  131.4853   59.9827 H   0  0  0  0  0  0  0  0  0  0  0  0
  130.2486  133.2858   59.7649 H   0  0  0  0  0  0  0  0  0  0  0  0
  131.6482  133.0721   58.5824 H   0  0  0  0  0  0  0  0  0  0  0  0
  131.7104  131.3051   57.0053 H   0  0  0  0  0  0  0  0  0  0  0  0
  130.4475  129.5295   55.7951 H   0  0  0  0  0  0  0  0  0  0  0  0
  127.2010  128.4590   56.8220 H   0  0  0  0  0  0  0  0  0  0  0  0
  128.5854  131.4970   59.9768 H   0  0  0  0  0  0  0  0  0  0  0  0
  125.8672  129.5154   60.5394 H   0  0  0  0  0  0  0  0  0  0  0  0
  127.6040  129.0378   60.6960 H   0  0  0  0  0  0  0  0  0  0  0  0
  128.0969  131.5605   60.2313 H   0  0  0  0  0  0  0  0  0  0  0  0
  126.3338  131.7725   60.7055 H   0  0  0  0  0  0  0  0  0  0  0  0
  127.9952  133.3396   62.3008 H   0  0  0  0  0  0  0  0  0  0  0  0
  128.8010  133.3528   64.6520 H   0  0  0  0  0  0  0  0  0  0  0  0
  128.3440  131.2610   66.8780 H   0  0  0  0  0  0  0  0  0  0  0  0
  127.2405  129.1067   62.5921 H   0  0  0  0  0  0  0  0  0  0  0  0
  127.0795  128.7081   65.5212 H   0  0  0  0  0  0  0  0  0  0  0  0
  129.1820  127.2965   66.4145 H   0  0  0  0  0  0  0  0  0  0  0  0
  129.9741  128.9018   66.0900 H   0  0  0  0  0  0  0  0  0  0  0  0
  127.3139  129.1837   70.2766 H   0  0  0  0  0  0  0  0  0  0  0  0
  128.3426  127.4676   72.0578 H   0  0  0  0  0  0  0  0  0  0  0  0
  130.1190  126.0730   70.7820 H   0  0  0  0  0  0  0  0  0  0  0  0
  131.5747  127.0848   68.0288 H   0  0  0  0  0  0  0  0  0  0  0  0
  130.8836  125.4883   68.5598 H   0  0  0  0  0  0  0  0  0  0  0  0
  132.1865  128.1591   58.2053 H   0  0  0  0  0  0  0  0  0  0  0  0
  132.9038  126.6309   58.8736 H   0  0  0  0  0  0  0  0  0  0  0  0
  130.7064  126.9923   56.9844 H   0  0  0  0  0  0  0  0  0  0  0  0
  131.5250  124.4840   57.5710 H   0  0  0  0  0  0  0  0  0  0  0  0
  129.5138  126.4430   60.7165 H   0  0  0  0  0  0  0  0  0  0  0  0
  129.2895  127.8742   59.5548 H   0  0  0  0  0  0  0  0  0  0  0  0
  131.8507  125.0520   59.1308 H   0  0  0  0  0  0  0  0  0  0  0  0
  133.3995  125.6214   60.0646 H   0  0  0  0  0  0  0  0  0  0  0  0
  133.9110  124.8050   57.4320 H   0  0  0  0  0  0  0  0  0  0  0  0
  134.9835  125.3655   59.6435 H   0  0  0  0  0  0  0  0  0  0  0  0
  135.5495  123.6277   59.9583 H   0  0  0  0  0  0  0  0  0  0  0  0
  135.5510  123.7900   57.4520 H   0  0  0  0  0  0  0  0  0  0  0  0
  133.0303  121.6860   58.9010 H   0  0  0  0  0  0  0  0  0  0  0  0
  134.7112  121.9831   59.5293 H   0  0  0  0  0  0  0  0  0  0  0  0
  133.0003  121.0900   61.1980 H   0  0  0  0  0  0  0  0  0  0  0  0
  133.9363  122.6012   61.6435 H   0  0  0  0  0  0  0  0  0  0  0  0
  1  2  1  0
  2  3  1  0
  2  4  1  0
  4  5  2  0
  5  6  1  0
  6  7  2  0
  7  8  1  0
  8  9  2  0
  9 10  1  0
 10 11  1  0
 11 12  1  0
 12 13  1  0
 14 13  1  6
 14 15  1  0
 15 16  1  0
 16 17  3  0
 18 17  1  6
 18 19  1  0
 19 20  1  0
 20 21  1  0
 22 21  1  6
 22 23  1  0
 23 24  1  0
 25 24  1  1
 25 26  1  0
 26 27  2  0
 27 28  1  0
 28 29  2  0
 28 30  1  0
 30 31  1  0
 31 32  1  0
 32 33  1  0
 33 34  2  0
 34 35  1  0
 35 36  1  0
 35 37  2  0
 37 38  1  0
 37 39  1  0
 39 40  1  0
 40 41  1  0
 41 42  1  0
 42 43  1  0
 43 44  2  0
 44 45  1  0
 45 46  1  0
 45 47  2  0
 47 48  1  0
 47 49  1  0
 49 50  1  0
 50 51  1  0
 51 52  2  0
 51 53  1  0
 53 54  1  0
 54 55  2  0
 55 56  1  0
 56 57  1  0
 57 58  1  0
 58 59  1  0
 59 60  3  0
 25 61  1  0
 61 62  1  0
 62 63  1  0
 25 64  1  0
 22 65  1  0
 65 66  1  0
 66 67  1  6
 66 68  1  0
 68 69  1  0
 66 70  1  0
 70 71  1  0
  9  4  1  0
 62 14  1  0
 60  6  1  0
 49  7  1  0
 57 53  2  0
 64 14  1  0
 22 18  1  0
 38 32  2  0
 48 42  2  0
 71 18  1  0
  1 72  1  0
  1 73  1  0
  2 74  1  6
  3 75  1  0
  3 76  1  0
  3 77  1  0
  5 78  1  0
  8 79  1  0
 10 80  1  0
 10 81  1  0
 13 82  1  0
 13 83  1  0
 15 84  1  0
 15 85  1  0
 19 86  1  0
 19 87  1  0
 20 88  1  0
 20 89  1  0
 21 90  1  0
 21 91  1  0
 23 92  1  0
 23 93  1  0
 24 94  1  0
 24 95  1  0
 26 96  1  0
 27 97  1  0
 30 98  1  0
 30 99  1  0
 31100  1  0
 31101  1  0
 33102  1  0
 34103  1  0
 36104  1  0
 38105  1  0
 40106  1  0
 40107  1  0
 41108  1  0
 41109  1  0
 43110  1  0
 44111  1  0
 46112  1  0
 48113  1  0
 49114  1  1
 50115  1  0
 50116  1  0
 54117  1  0
 55118  1  0
 56119  1  0
 58120  1  0
 58121  1  0
 61122  1  0
 61123  1  0
 62124  1  6
 63125  1  0
 64126  1  0
 64127  1  0
 65128  1  0
 65129  1  0
 67130  1  0
 68131  1  0
 68132  1  0
 69133  1  0
 70134  1  0
 70135  1  0
 71136  1  0
 71137  1  0
M  CHG  1   3   1
M  END
>  <Binding energies>  (1) 
[44.97]

>  <Ligand effiencies>  (1) 
[0.5110227272727272]

>  <Interactions>  (1) 
["V-A:ILE:369:CG2:3237, V-A:ASP:366:CA:3210, V-B:PRO:540:CA:9855, V-B:HIS:456:CD2:9039, V-A:ILE:369:CB:3236, H-B:GLU:543:O:9875, H-A:CYS:365:O:3206, H-A:ALA:541:N:4891, V-B:GLU:543:CB:9878, V-A:PRO:540:C:4881, V-B:ASP:366:CG:8184, H-A:TYR:531:OH:4795, V-B:TYR:539:CE2:9848, H-B:ALA:541:O:9861, V-B:GLU:543:CG:9879, V-A:HIS:456:CD2:4068, V-A:ASP:366:CG:3213, V-B:TYR:484:CE2:9317, V-B:TYR:539:CZ:9849, H-B:GLU:543:OE1:9881, H-A:ASN:370:N:3244, H-B:TYR:539:OH:9850, V-A:ALA:541:CB:4892, V-A:GLU:543:CD:4908, V-B:PRO:540:CB:9857, H-B:TYR:484:OH:9319, H-B:ASP:366:OD1:8185, V-B:HIS:456:CE1:9041, H-A:ASP:366:N:3211, V-B:TYR:484:CZ:9318, V-A:HIS:456:CE1:4070, V-A:ILE:369:CD1:3239, V-A:ASP:366:C:3208, V-B:TYR:539:CD2:9846, V-A:GLU:543:CG:4907, V-B:GLU:543:CD:9880, V-B:HIS:456:CG:9037, V-A:MET:535:CE:4835, V-A:ILE:369:CG1:3238, H-B:TYR:531:OH:9767, V-A:ASP:366:CB:3212, H-A:ALA:367:N:3220, V-A:LEU:475:CD2:4259, V-A:ARG:545:CZ:4926, V-A:TYR:539:C:4867, H-A:ASP:366:O:3209, V-A:GLU:543:CB:4906, V-A:PRO:540:N:4884, V-A:PRO:540:CB:4885, V-A:PRO:540:CA:4883, V-B:PRO:540:C:9853, H-A:ILE:369:N:3235, H-A:HIS:456:NE2:4071"]

$$$$
ZINC2356293717
     RDKit          3D

 79 81  0  0  0  0  0  0  0  0999 V2000
  129.3220  126.9620   68.3910 C   0  0  0  0  0  0  0  0  0  0  0  0
  129.4350  126.5700   66.9100 C   0  0  0  0  0  0  0  0  0  0  0  0
  130.4690  125.4650   66.6240 C   0  0  0  0  0  0  0  0  0  0  0  0
  129.8530  124.1000   66.2610 C   0  0  0  0  0  0  0  0  0  0  0  0
  130.4210  123.5160   64.9520 C   0  0  0  0  0  0  0  0  0  0  0  0
  131.3830  124.4730   64.2120 C   0  0  2  0  0  0  0  0  0  0  0  0
  130.6640  125.3850   63.1810 C   0  0  0  0  0  0  0  0  0  0  0  0
  129.2040  124.9920   62.8310 C   0  0  1  0  0  0  0  0  0  0  0  0
  128.3740  126.1700   62.2720 C   0  0  0  0  0  0  0  0  0  0  0  0
  128.2080  126.1300   60.7380 C   0  0  0  0  0  0  0  0  0  0  0  0
  129.2820  126.9380   60.0060 C   0  0  0  0  0  0  0  0  0  0  0  0
  130.2620  126.2190   59.3220 C   0  0  0  0  0  0  0  0  0  0  0  0
  131.2850  126.8650   58.6220 C   0  0  0  0  0  0  0  0  0  0  0  0
  132.2840  126.1960   57.9320 O   0  0  0  0  0  0  0  0  0  0  0  0
  132.9530  125.1010   58.5500 C   0  0  0  0  0  0  0  0  0  0  0  0
  131.3130  128.2630   58.6130 C   0  0  0  0  0  0  0  0  0  0  0  0
  132.3340  128.8810   57.9270 O   0  0  0  0  0  0  0  0  0  0  0  0
  130.3350  129.0210   59.2880 C   0  0  0  0  0  0  0  0  0  0  0  0
  129.3050  128.3490   60.0010 C   0  0  0  0  0  0  0  0  0  0  0  0
  128.2230  129.1160   60.7870 C   0  0  0  0  0  0  0  0  0  0  0  0
  128.6540  129.2530   62.5570 S   0  0  0  0  0  0  0  0  0  0  0  0
  127.2620  130.4900   63.4350 S   0  0  0  0  0  0  0  0  0  0  0  0
  127.7550  132.2480   63.2420 C   0  0  0  0  0  0  0  0  0  0  0  0
  129.1580  132.5690   63.5140 N   0  0  0  0  0  0  0  0  0  0  0  0
  130.1670  132.2300   62.5960 C   0  0  0  0  0  0  0  0  0  0  0  0
  129.8690  131.8930   61.2700 C   0  0  0  0  0  0  0  0  0  0  0  0
  130.8230  131.2160   60.5140 C   0  0  0  0  0  0  0  0  0  0  0  0
  132.1210  131.0870   61.0170 C   0  0  0  0  0  0  0  0  0  0  0  0
  132.3870  131.5830   62.2970 C   0  0  0  0  0  0  0  0  0  0  0  0
  131.4280  132.1240   63.0920 N   0  0  0  0  0  0  0  0  0  0  0  0
  130.4050  130.5610   59.2080 C   0  0  0  0  0  0  0  0  0  0  0  0
  129.2050  123.9590   61.8430 O   0  0  0  0  0  0  0  0  0  0  0  0
  128.4230  122.8610   61.9530 C   0  0  0  0  0  0  0  0  0  0  0  0
  129.1540  121.5920   61.5340 C   0  0  0  0  0  0  0  0  0  0  0  0
  127.2520  122.8340   62.3330 O   0  0  0  0  0  0  0  0  0  0  0  0
  132.3750  123.6820   63.5530 O   0  0  0  0  0  0  0  0  0  0  0  0
  133.5710  124.1970   63.1840 C   0  0  0  0  0  0  0  0  0  0  0  0
  133.9220  123.8600   61.7410 C   0  0  0  0  0  0  0  0  0  0  0  0
  134.3280  124.8640   63.8900 O   0  0  0  0  0  0  0  0  0  0  0  0
  129.5720  126.0948   69.0199 H   0  0  0  0  0  0  0  0  0  0  0  0
  130.0196  127.7847   68.6068 H   0  0  0  0  0  0  0  0  0  0  0  0
  128.2936  127.2872   68.6068 H   0  0  0  0  0  0  0  0  0  0  0  0
  128.4501  126.2162   66.5712 H   0  0  0  0  0  0  0  0  0  0  0  0
  129.7755  127.4669   66.3718 H   0  0  0  0  0  0  0  0  0  0  0  0
  131.1002  125.7925   65.7847 H   0  0  0  0  0  0  0  0  0  0  0  0
  131.0379  125.3171   67.5538 H   0  0  0  0  0  0  0  0  0  0  0  0
  130.0580  123.3935   67.0788 H   0  0  0  0  0  0  0  0  0  0  0  0
  128.7737  124.2529   66.1139 H   0  0  0  0  0  0  0  0  0  0  0  0
  130.9669  122.5916   65.1920 H   0  0  0  0  0  0  0  0  0  0  0  0
  129.5670  123.3366   64.2823 H   0  0  0  0  0  0  0  0  0  0  0  0
  131.8337  125.1466   64.9557 H   0  0  0  0  0  0  0  0  0  0  0  0
  130.6498  126.4071   63.5873 H   0  0  0  0  0  0  0  0  0  0  0  0
  131.2326  125.2822   62.2450 H   0  0  0  0  0  0  0  0  0  0  0  0
  128.7436  124.6588   63.7728 H   0  0  0  0  0  0  0  0  0  0  0  0
  127.3750  126.1416   62.7316 H   0  0  0  0  0  0  0  0  0  0  0  0
  128.9179  127.0946   62.5156 H   0  0  0  0  0  0  0  0  0  0  0  0
  128.2671  125.0833   60.4049 H   0  0  0  0  0  0  0  0  0  0  0  0
  127.2331  126.5792   60.4977 H   0  0  0  0  0  0  0  0  0  0  0  0
  130.2292  125.1196   59.3337 H   0  0  0  0  0  0  0  0  0  0  0  0
  132.8906  125.2031   59.6435 H   0  0  0  0  0  0  0  0  0  0  0  0
  132.4761  124.1588   58.2419 H   0  0  0  0  0  0  0  0  0  0  0  0
  134.0090  125.0953   58.2419 H   0  0  0  0  0  0  0  0  0  0  0  0
  132.8070  128.2740   57.3530 H   0  0  0  0  0  0  0  0  0  0  0  0
  128.1225  130.1265   60.3641 H   0  0  0  0  0  0  0  0  0  0  0  0
  127.2767  128.5614   60.7036 H   0  0  0  0  0  0  0  0  0  0  0  0
  127.5402  132.5429   62.2043 H   0  0  0  0  0  0  0  0  0  0  0  0
  127.1793  132.7960   64.0024 H   0  0  0  0  0  0  0  0  0  0  0  0
  129.4310  132.6670   64.4820 H   0  0  0  0  0  0  0  0  0  0  0  0
  128.8957  132.1590   60.8318 H   0  0  0  0  0  0  0  0  0  0  0  0
  132.9122  130.6079   60.4215 H   0  0  0  0  0  0  0  0  0  0  0  0
  133.4182  131.5328   62.6767 H   0  0  0  0  0  0  0  0  0  0  0  0
  129.4108  130.9410   58.9301 H   0  0  0  0  0  0  0  0  0  0  0  0
  131.1710  130.8123   58.4596 H   0  0  0  0  0  0  0  0  0  0  0  0
  129.4724  121.0393   62.4302 H   0  0  0  0  0  0  0  0  0  0  0  0
  128.4805  120.9618   60.9346 H   0  0  0  0  0  0  0  0  0  0  0  0
  130.0370  121.8584   60.9346 H   0  0  0  0  0  0  0  0  0  0  0  0
  134.7154  123.0982   61.7249 H   0  0  0  0  0  0  0  0  0  0  0  0
  133.0300  123.4713   61.2279 H   0  0  0  0  0  0  0  0  0  0  0  0
  134.2741  124.7670   61.2279 H   0  0  0  0  0  0  0  0  0  0  0  0
  1  2  1  0
  2  3  1  0
  3  4  1  0
  4  5  1  0
  5  6  1  0
  6  7  1  0
  7  8  1  0
  8  9  1  0
  9 10  1  0
 10 11  1  0
 11 12  2  0
 12 13  1  0
 13 14  1  0
 14 15  1  0
 13 16  2  0
 16 17  1  0
 16 18  1  0
 18 19  2  0
 19 20  1  0
 20 21  1  0
 21 22  1  0
 22 23  1  0
 23 24  1  0
 24 25  1  0
 25 26  1  0
 26 27  2  0
 27 28  1  0
 28 29  2  0
 29 30  1  0
 27 31  1  0
  8 32  1  0
 32 33  1  0
 33 34  1  0
 33 35  2  0
  6 36  1  0
 36 37  1  0
 37 38  1  0
 37 39  2  0
 19 11  1  0
 30 25  2  0
 31 18  1  0
  1 40  1  0
  1 41  1  0
  1 42  1  0
  2 43  1  0
  2 44  1  0
  3 45  1  0
  3 46  1  0
  4 47  1  0
  4 48  1  0
  5 49  1  0
  5 50  1  0
  6 51  1  1
  7 52  1  0
  7 53  1  0
  8 54  1  1
  9 55  1  0
  9 56  1  0
 10 57  1  0
 10 58  1  0
 12 59  1  0
 15 60  1  0
 15 61  1  0
 15 62  1  0
 17 63  1  0
 20 64  1  0
 20 65  1  0
 23 66  1  0
 23 67  1  0
 24 68  1  0
 26 69  1  0
 28 70  1  0
 29 71  1  0
 31 72  1  0
 31 73  1  0
 34 74  1  0
 34 75  1  0
 34 76  1  0
 38 77  1  0
 38 78  1  0
 38 79  1  0
M  END
>  <Binding energies>  (1) 
[-6.85]

>  <Ligand effiencies>  (1) 
[-0.1670731707317073]

>  <Interactions>  (1) 
["V-A:ASP:366:CA:3210, V-B:PRO:540:CA:9855, V-A:GLY:454:CA:4049, H-A:ALA:541:N:4891, V-B:GLU:543:CB:9878, V-B:ALA:541:CB:9864, H-A:ARG:545:NH1:4927, H-A:TYR:531:OH:4795, V-A:TYR:484:CE2:4346, V-B:TYR:539:CE2:9848, V-B:GLU:543:CG:9879, V-A:ASP:366:CG:3213, H-B:TYR:539:OH:9850, V-A:ALA:541:CB:4892, H-B:ALA:541:N:9863, V-A:TYR:484:CZ:4347, V-A:GLU:543:CD:4908, H-B:TYR:484:OH:9319, V-B:GLU:543:CA:9876, H-A:GLY:454:N:4050, V-A:HIS:456:CE1:4070, V-A:ILE:369:CD1:3239, V-A:ALA:541:CA:4890, V-A:GLU:543:CG:4907, V-B:GLU:543:CD:9880, V-A:ASP:366:CB:3212, H-A:ARG:545:NH2:4928, V-A:PRO:540:CB:4885, V-A:PRO:540:CA:4883, H-A:ARG:545:NE:4924, V-B:PRO:540:C:9853, H-A:ASP:366:OD2:3215, H-A:TYR:484:OH:4348"]

$$$$
ZINC2356295962-again1
     RDKit          3D

 97104  0  0  0  0  0  0  0  0999 V2000
  129.2350  126.8650   69.5440 C   0  0  0  0  0  0  0  0  0  0  0  0
  128.9140  126.7670   68.0610 C   0  0  0  0  0  0  0  0  0  0  0  0
  129.6950  126.2260   67.0930 C   0  0  0  0  0  0  0  0  0  0  0  0
  131.1080  125.6880   67.3260 C   0  0  0  0  0  0  0  0  0  0  0  0
  129.2380  126.1580   65.6910 C   0  0  0  0  0  0  0  0  0  0  0  0
  128.7120  127.1210   65.1300 O   0  0  0  0  0  0  0  0  0  0  0  0
  129.4380  124.9360   65.0940 O   0  0  0  0  0  0  0  0  0  0  0  0
  130.4750  124.6060   64.1360 C   0  0  2  0  0  0  0  0  0  0  0  0
  131.3050  123.4340   64.7400 C   0  0  0  0  0  0  0  0  0  0  0  0
  131.4430  125.7910   63.8240 C   0  0  0  0  0  0  0  0  0  0  0  0
  130.7590  126.9170   63.0740 C   0  0  0  0  0  0  0  0  0  0  0  0
  129.5840  126.8300   62.4160 C   0  0  0  0  0  0  0  0  0  0  0  0
  128.9960  128.0780   61.7620 C   0  0  0  0  0  0  0  0  0  0  0  0
  130.1170  128.9280   60.6250 S   0  0  0  0  0  0  0  0  0  0  0  0
  129.5220  130.8720   60.7060 S   0  0  0  0  0  0  0  0  0  0  0  0
  128.0760  131.1120   59.5920 C   0  0  0  0  0  0  0  0  0  0  0  0
  128.2780  132.3610   58.7050 C   0  0  0  0  0  0  0  0  0  0  0  0
  127.4630  132.1000   57.4340 C   0  0  0  0  0  0  0  0  0  0  0  0
  127.5010  130.5780   57.2460 C   0  0  0  0  0  0  0  0  0  0  0  0
  128.2130  130.0270   58.4930 C   0  0  0  0  0  0  0  0  0  0  0  0
  126.6410  130.9630   60.2500 C   0  0  2  0  0  0  0  0  0  0  0  0
  126.1920  131.5040   61.6420 C   0  0  2  0  0  0  0  0  0  0  0  0
  127.0690  132.4690   62.4670 C   0  0  0  0  0  0  0  0  0  0  0  0
  127.8300  131.7730   63.6060 C   0  0  0  0  0  0  0  0  0  0  0  0
  126.0760  130.0750   62.1950 C   0  0  0  0  0  0  0  0  0  0  0  0
  126.3250  129.6160   60.8070 N   0  0  0  0  0  0  0  0  0  0  0  0
  126.2000  128.4070   60.2330 C   0  0  0  0  0  0  0  0  0  0  0  0
  125.8140  128.2710   59.0720 O   0  0  0  0  0  0  0  0  0  0  0  0
  126.3880  127.1630   61.1190 C   0  0  0  0  0  0  0  0  0  0  0  0
  127.0830  126.0030   60.3900 C   0  0  0  0  0  0  0  0  0  0  0  0
  126.5880  125.6520   59.1250 C   0  0  0  0  0  0  0  0  0  0  0  0
  127.1160  124.6180   58.4480 N   0  0  0  0  0  0  0  0  0  0  0  0
  128.1210  123.8650   58.9240 C   0  0  0  0  0  0  0  0  0  0  0  0
  128.6050  122.7920   58.1490 N   0  0  0  0  0  0  0  0  0  0  0  0
  128.6550  124.1640   60.1780 C   0  0  0  0  0  0  0  0  0  0  0  0
  128.1530  125.2400   60.9340 C   0  0  0  0  0  0  0  0  0  0  0  0
  128.7900  125.5040   62.3210 C   0  0  1  0  0  0  0  0  0  0  0  0
  129.6360  124.2700   62.8420 C   0  0  2  0  0  0  0  0  0  0  0  0
  128.7980  122.9590   62.9970 C   0  0  0  0  0  0  0  0  0  0  0  0
  129.5910  121.9520   62.2320 C   0  0  0  0  0  0  0  0  0  0  0  0
  129.4200  120.5810   62.0330 C   0  0  0  0  0  0  0  0  0  0  0  0
  130.2920  119.9090   61.1690 C   0  0  0  0  0  0  0  0  0  0  0  0
  130.1940  118.4740   60.9000 C   0  0  0  0  0  0  0  0  0  0  0  0
  131.0380  117.8580   60.0510 C   0  0  0  0  0  0  0  0  0  0  0  0
  132.0990  118.6060   59.3570 C   0  0  0  0  0  0  0  0  0  0  0  0
  132.9230  118.1550   58.5650 O   0  0  0  0  0  0  0  0  0  0  0  0
  132.1840  119.9720   59.6230 O   0  0  0  0  0  0  0  0  0  0  0  0
  131.3090  120.6100   60.4960 C   0  0  0  0  0  0  0  0  0  0  0  0
  131.4650  121.9850   60.6840 C   0  0  0  0  0  0  0  0  0  0  0  0
  130.5910  122.6270   61.5580 C   0  0  0  0  0  0  0  0  0  0  0  0
  130.6190  123.9690   61.8320 O   0  0  0  0  0  0  0  0  0  0  0  0
  128.3450  126.5933   70.1305 H   0  0  0  0  0  0  0  0  0  0  0  0
  130.0584  126.1773   69.7872 H   0  0  0  0  0  0  0  0  0  0  0  0
  129.5339  127.8953   69.7872 H   0  0  0  0  0  0  0  0  0  0  0  0
  127.9459  127.1784   67.7391 H   0  0  0  0  0  0  0  0  0  0  0  0
  131.2990  125.6153   68.4068 H   0  0  0  0  0  0  0  0  0  0  0  0
  131.2009  124.6916   66.8694 H   0  0  0  0  0  0  0  0  0  0  0  0
  131.8401  126.3703   66.8694 H   0  0  0  0  0  0  0  0  0  0  0  0
  131.2680  123.4863   65.8381 H   0  0  0  0  0  0  0  0  0  0  0  0
  130.8836  122.4750   64.4042 H   0  0  0  0  0  0  0  0  0  0  0  0
  132.3495  123.5132   64.4042 H   0  0  0  0  0  0  0  0  0  0  0  0
  131.8345  126.1860   64.7731 H   0  0  0  0  0  0  0  0  0  0  0  0
  132.2494  125.4042   63.1836 H   0  0  0  0  0  0  0  0  0  0  0  0
  131.2662  127.8930   63.0654 H   0  0  0  0  0  0  0  0  0  0  0  0
  128.0977  127.7810   61.2009 H   0  0  0  0  0  0  0  0  0  0  0  0
  128.7803  128.7857   62.5760 H   0  0  0  0  0  0  0  0  0  0  0  0
  127.9096  133.2609   59.2193 H   0  0  0  0  0  0  0  0  0  0  0  0
  129.3408  132.5321   58.4790 H   0  0  0  0  0  0  0  0  0  0  0  0
  126.4273  132.4486   57.5600 H   0  0  0  0  0  0  0  0  0  0  0  0
  127.8707  132.6350   56.5636 H   0  0  0  0  0  0  0  0  0  0  0  0
  126.4804  130.1738   57.1761 H   0  0  0  0  0  0  0  0  0  0  0  0
  128.0224  130.2943   56.3199 H   0  0  0  0  0  0  0  0  0  0  0  0
  127.7363  129.0914   58.8208 H   0  0  0  0  0  0  0  0  0  0  0  0
  129.2695  129.8043   58.2826 H   0  0  0  0  0  0  0  0  0  0  0  0
  126.2165  131.4473   59.3583 H   0  0  0  0  0  0  0  0  0  0  0  0
  125.3474  132.2087   61.6399 H   0  0  0  0  0  0  0  0  0  0  0  0
  127.8010  132.9384   61.7933 H   0  0  0  0  0  0  0  0  0  0  0  0
  126.3970  133.2082   62.9273 H   0  0  0  0  0  0  0  0  0  0  0  0
  127.4443  132.1258   64.5739 H   0  0  0  0  0  0  0  0  0  0  0  0
  127.6891  130.6847   63.5298 H   0  0  0  0  0  0  0  0  0  0  0  0
  128.9014  132.0102   63.5298 H   0  0  0  0  0  0  0  0  0  0  0  0
  126.8534  129.7954   62.9213 H   0  0  0  0  0  0  0  0  0  0  0  0
  125.2053  129.7394   62.7774 H   0  0  0  0  0  0  0  0  0  0  0  0
  126.9969  127.4432   61.9912 H   0  0  0  0  0  0  0  0  0  0  0  0
  125.3865  126.8138   61.4107 H   0  0  0  0  0  0  0  0  0  0  0  0
  125.7611  126.2278   58.6837 H   0  0  0  0  0  0  0  0  0  0  0  0
  126.7350  124.3910   57.5410 H   0  0  0  0  0  0  0  0  0  0  0  0
  128.6020  121.8540   58.5260 H   0  0  0  0  0  0  0  0  0  0  0  0
  128.9510  122.9530   57.2140 H   0  0  0  0  0  0  0  0  0  0  0  0
  129.4765  123.5527   60.5798 H   0  0  0  0  0  0  0  0  0  0  0  0
  127.9345  125.6292   63.0011 H   0  0  0  0  0  0  0  0  0  0  0  0
  128.7101  122.6703   64.0548 H   0  0  0  0  0  0  0  0  0  0  0  0
  127.7658  123.0622   62.6311 H   0  0  0  0  0  0  0  0  0  0  0  0
  128.6132  120.0378   62.5468 H   0  0  0  0  0  0  0  0  0  0  0  0
  129.4129  117.8851   61.4030 H   0  0  0  0  0  0  0  0  0  0  0  0
  130.9330  116.7776   59.8729 H   0  0  0  0  0  0  0  0  0  0  0  0
  132.2535  122.5435   60.1583 H   0  0  0  0  0  0  0  0  0  0  0  0
  1  2  1  0
  2  3  2  0
  3  4  1  0
  3  5  1  0
  5  6  2  0
  5  7  1  0
  8  7  1  1
  8  9  1  0
  8 10  1  0
 10 11  1  0
 11 12  2  0
 12 13  1  0
 13 14  1  0
 14 15  1  0
 15 16  1  0
 16 17  1  0
 17 18  1  0
 18 19  1  0
 19 20  1  0
 16 21  1  0
 21 22  1  0
 22 23  1  0
 23 24  1  0
 22 25  1  0
 25 26  1  0
 26 27  1  0
 27 28  2  0
 27 29  1  0
 29 30  1  0
 30 31  2  0
 31 32  1  0
 32 33  2  0
 33 34  1  0
 33 35  1  0
 35 36  2  0
 36 37  1  0
 37 38  1  0
 38 39  1  0
 39 40  1  0
 40 41  2  0
 41 42  1  0
 42 43  1  0
 43 44  2  0
 44 45  1  0
 45 46  2  0
 45 47  1  0
 47 48  1  0
 48 49  1  0
 49 50  2  0
 50 51  1  0
 38  8  1  0
 50 40  1  0
 37 12  1  0
 38 51  1  6
 20 16  1  0
 26 21  1  0
 36 30  1  0
 48 42  2  0
  1 52  1  0
  1 53  1  0
  1 54  1  0
  2 55  1  0
  4 56  1  0
  4 57  1  0
  4 58  1  0
  9 59  1  0
  9 60  1  0
  9 61  1  0
 10 62  1  0
 10 63  1  0
 11 64  1  0
 13 65  1  0
 13 66  1  0
 17 67  1  0
 17 68  1  0
 18 69  1  0
 18 70  1  0
 19 71  1  0
 19 72  1  0
 20 73  1  0
 20 74  1  0
 21 75  1  6
 22 76  1  6
 23 77  1  0
 23 78  1  0
 24 79  1  0
 24 80  1  0
 24 81  1  0
 25 82  1  0
 25 83  1  0
 29 84  1  0
 29 85  1  0
 31 86  1  0
 32 87  1  0
 34 88  1  0
 34 89  1  0
 35 90  1  0
 37 91  1  1
 39 92  1  0
 39 93  1  0
 41 94  1  0
 43 95  1  0
 44 96  1  0
 49 97  1  0
M  CHG  1  32   1
M  END
>  <Binding energies>  (1) 
[-4.96]

>  <Ligand effiencies>  (1) 
[-0.08857142857142856]

>  <Interactions>  (1) 
["V-B:TYR:539:CE1:9847, V-B:GLU:543:CB:9878, V-B:ASP:366:CG:8184, V-B:ALA:541:CB:9864, V-B:TYR:539:CE2:9848, V-A:TYR:484:CE2:4346, V-B:GLU:543:CG:9879, V-B:TYR:539:C:9839, V-A:TYR:539:CE1:4875, V-A:TYR:539:CD1:4873, V-B:TYR:539:CZ:9849, V-A:TYR:539:CZ:4877, H-B:TYR:539:OH:9850, V-A:HIS:383:CE1:3393, V-B:TYR:539:CB:9843, V-A:GLU:543:CD:4908, V-A:TYR:484:CZ:4347, V-A:HIS:456:CE1:4070, V-B:TYR:539:CD2:9846, V-A:SER:385:CB:3409, H-A:SER:385:OG:3410, V-B:GLU:543:CD:9880, V-A:MET:535:CE:4835, H-B:TYR:531:OH:9767, V-A:LEU:475:CD2:4259, V-A:ARG:545:CZ:4926, V-B:TYR:539:CG:9844, V-A:HIS:383:CD2:3392, H-A:HIS:383:HE2:3395, V-B:TYR:539:CD1:9845, H-B:TYR:539:O:9840, V-B:PRO:540:C:9853, V-B:ALA:541:CA:9862, V-A:HIS:383:NE2:3394"]

$$$$
ZINC2356306645
     RDKit          3D

 40 41  0  0  0  0  0  0  0  0999 V2000
  130.2850  116.8960   60.5300 C   0  0  0  0  0  0  0  0  0  0  0  0
  130.5050  118.0820   60.7170 C   0  0  0  0  0  0  0  0  0  0  0  0
  130.8160  119.4640   60.8830 C   0  0  0  0  0  0  0  0  0  0  0  0
  130.1260  120.2950   61.6860 C   0  0  0  0  0  0  0  0  0  0  0  0
  130.4380  121.7690   61.8740 C   0  0  0  0  0  0  0  0  0  0  0  0
  129.9830  122.3370   63.2410 C   0  0  2  0  0  0  0  0  0  0  0  0
  128.0590  122.8680   63.1340 Br  0  0  0  0  0  0  0  0  0  0  0  0
  130.8430  123.5110   63.7470 C   0  0  2  0  0  0  0  0  0  0  0  0
  130.6040  123.7560   65.0820 O   0  0  0  0  0  0  0  0  0  0  0  0
  130.6340  124.8470   62.9940 C   0  0  0  0  0  0  0  0  0  0  0  0
  132.0350  125.1370   62.4620 C   0  0  2  0  0  0  0  0  0  0  0  0
  132.0980  124.6270   61.1270 O   0  0  0  0  0  0  0  0  0  0  0  0
  133.3850  124.7620   60.5280 C   0  0  2  0  0  0  0  0  0  0  0  0
  133.2870  124.4670   59.0150 C   0  0  0  0  0  0  0  0  0  0  0  0
  132.5670  125.5720   58.2290 C   0  0  0  0  0  0  0  0  0  0  0  0
  134.3320  123.7860   61.2720 C   0  0  2  0  0  0  0  0  0  0  0  0
  133.6680  121.9120   61.0420 Br  0  0  0  0  0  0  0  0  0  0  0  0
  134.3560  124.0720   62.7910 C   0  0  0  0  0  0  0  0  0  0  0  0
  132.9600  124.3540   63.3990 C   0  0  2  0  0  0  0  0  0  0  0  0
  132.1780  123.1780   63.4980 O   0  0  0  0  0  0  0  0  0  0  0  0
  130.0867  115.8272   60.3615 H   0  0  0  0  0  0  0  0  0  0  0  0
  131.6689  119.8743   60.3225 H   0  0  0  0  0  0  0  0  0  0  0  0
  129.2762  119.8769   62.2455 H   0  0  0  0  0  0  0  0  0  0  0  0
  131.5258  121.9067   61.7864 H   0  0  0  0  0  0  0  0  0  0  0  0
  129.8796  122.3150   61.0994 H   0  0  0  0  0  0  0  0  0  0  0  0
  130.1175  121.5334   63.9801 H   0  0  0  0  0  0  0  0  0  0  0  0
  131.3650  123.4450   65.5770 H   0  0  0  0  0  0  0  0  0  0  0  0
  129.9107  124.7336   62.1730 H   0  0  0  0  0  0  0  0  0  0  0  0
  130.2247  125.6506   63.6238 H   0  0  0  0  0  0  0  0  0  0  0  0
  132.3070  126.2025   62.4349 H   0  0  0  0  0  0  0  0  0  0  0  0
  133.7815  125.7842   60.6168 H   0  0  0  0  0  0  0  0  0  0  0  0
  134.3053  124.3588   58.6132 H   0  0  0  0  0  0  0  0  0  0  0  0
  132.6971  123.5458   58.8990 H   0  0  0  0  0  0  0  0  0  0  0  0
  132.1052  126.2807   58.9322 H   0  0  0  0  0  0  0  0  0  0  0  0
  133.2925  126.1038   57.5958 H   0  0  0  0  0  0  0  0  0  0  0  0
  131.7875  125.1232   57.5958 H   0  0  0  0  0  0  0  0  0  0  0  0
  135.3395  123.9182   60.8507 H   0  0  0  0  0  0  0  0  0  0  0  0
  134.7856  123.1973   63.3013 H   0  0  0  0  0  0  0  0  0  0  0  0
  134.9565  124.9823   62.9348 H   0  0  0  0  0  0  0  0  0  0  0  0
  133.2169  124.8599   64.3414 H   0  0  0  0  0  0  0  0  0  0  0  0
  1  2  3  0
  2  3  1  0
  3  4  2  0
  4  5  1  0
  5  6  1  0
  6  7  1  0
  6  8  1  0
  8  9  1  1
  8 10  1  0
 10 11  1  0
 11 12  1  0
 12 13  1  0
 13 14  1  0
 14 15  1  0
 13 16  1  0
 16 17  1  0
 16 18  1  0
 18 19  1  0
 19 20  1  0
 20  8  1  0
 19 11  1  0
  1 21  1  0
  3 22  1  0
  4 23  1  0
  5 24  1  0
  5 25  1  0
  6 26  1  1
  9 27  1  0
 10 28  1  0
 10 29  1  0
 11 30  1  6
 13 31  1  6
 14 32  1  0
 14 33  1  0
 15 34  1  0
 15 35  1  0
 15 36  1  0
 16 37  1  6
 18 38  1  0
 18 39  1  0
 19 40  1  1
M  END
>  <Binding energies>  (1) 
[-6.32]

>  <Ligand effiencies>  (1) 
[-0.30095238095238097]

>  <Interactions>  (1) 
["V-A:ILE:369:CG2:3237, V-A:ASP:366:CA:3210, V-A:GLY:454:CA:4049, V-B:ALA:541:CB:9864, V-B:TYR:539:CE2:9848, V-B:GLU:543:CG:9879, V-B:TYR:539:C:9839, V-A:ASP:366:CG:3213, V-B:VAL:344:CG1:7972, V-A:HIS:383:CE1:3393, V-A:GLY:453:C:4042, V-A:ILE:369:CD1:3239, V-A:PRO:482:CB:4326, V-B:TYR:539:CD2:9846, V-B:GLU:543:CD:9880, V-A:ASP:366:CB:3212, V-A:LEU:475:CD2:4259, V-A:PRO:482:CG:4327, V-A:GLY:453:CA:4044, V-B:ALA:541:CA:9862, V-A:HIS:383:NE2:3394, H-A:TYR:484:OH:4348"]

$$$$
ZINC2356314241
     RDKit          3D

 81 86  0  0  0  0  0  0  0  0999 V2000
  133.5550  131.1600   58.9380 C   0  0  0  0  0  0  0  0  0  0  0  0
  132.1970  131.5380   59.5020 C   0  0  0  0  0  0  0  0  0  0  0  0
  131.8300  131.5810   60.8080 C   0  0  0  0  0  0  0  0  0  0  0  0
  132.7390  131.1890   61.9750 C   0  0  0  0  0  0  0  0  0  0  0  0
  130.4580  131.9670   61.2030 C   0  0  0  0  0  0  0  0  0  0  0  0
  130.0300  133.1170   61.0780 O   0  0  0  0  0  0  0  0  0  0  0  0
  129.7280  130.9470   61.7420 O   0  0  0  0  0  0  0  0  0  0  0  0
  128.7750  130.1900   60.9840 C   0  0  1  0  0  0  0  0  0  0  0  0
  129.4480  129.6690   59.6980 C   0  0  0  0  0  0  0  0  0  0  0  0
  130.2410  128.3840   59.9420 C   0  0  0  0  0  0  0  0  0  0  0  0
  129.9730  127.6200   61.0900 C   0  0  0  0  0  0  0  0  0  0  0  0
  130.4710  126.3200   61.2400 C   0  0  0  0  0  0  0  0  0  0  0  0
  131.3930  125.8530   60.2890 C   0  0  0  0  0  0  0  0  0  0  0  0
  131.9000  124.5810   60.4780 O   0  0  0  0  0  0  0  0  0  0  0  0
  132.8290  124.0880   59.6220 C   0  0  0  0  0  0  0  0  0  0  0  0
  133.2880  122.7100   60.0670 C   0  0  0  0  0  0  0  0  0  0  0  0
  132.3920  122.2030   61.0360 O   0  0  0  0  0  0  0  0  0  0  0  0
  133.2960  124.7630   58.5560 C   0  0  0  0  0  0  0  0  0  0  0  0
  132.8120  126.0900   58.2140 C   0  0  0  0  0  0  0  0  0  0  0  0
  133.2150  126.6970   57.2230 O   0  0  0  0  0  0  0  0  0  0  0  0
  131.7830  126.6370   59.1810 C   0  0  0  0  0  0  0  0  0  0  0  0
  131.1690  127.8940   59.0110 C   0  0  0  0  0  0  0  0  0  0  0  0
  131.4380  128.6780   57.9130 O   0  0  0  0  0  0  0  0  0  0  0  0
  129.9170  125.4290   62.3770 C   0  0  2  0  0  0  0  0  0  0  0  0
  130.9310  125.0450   63.4970 C   0  0  0  0  0  0  0  0  0  0  0  0
  130.5510  125.5970   64.8660 C   0  0  0  0  0  0  0  0  0  0  0  0
  131.2240  125.1640   66.0150 C   0  0  0  0  0  0  0  0  0  0  0  0
  130.8630  125.6570   67.2690 C   0  0  0  0  0  0  0  0  0  0  0  0
  129.8280  126.5860   67.3820 C   0  0  0  0  0  0  0  0  0  0  0  0
  129.1530  127.0220   66.2410 C   0  0  0  0  0  0  0  0  0  0  0  0
  128.1350  127.9310   66.3540 O   0  0  0  0  0  0  0  0  0  0  0  0
  129.5150  126.5300   64.9860 C   0  0  0  0  0  0  0  0  0  0  0  0
  129.1190  124.2430   61.7860 C   0  0  0  0  0  0  0  0  0  0  0  0
  129.4570  122.9550   62.2280 C   0  0  0  0  0  0  0  0  0  0  0  0
  128.7720  121.8510   61.7390 C   0  0  0  0  0  0  0  0  0  0  0  0
  127.7660  121.9560   60.8470 N   0  0  0  0  0  0  0  0  0  0  0  0
  127.4180  123.1900   60.4150 C   0  0  0  0  0  0  0  0  0  0  0  0
  126.3400  123.2030   59.5260 N   0  0  0  0  0  0  0  0  0  0  0  0
  128.0650  124.3760   60.8360 C   0  0  0  0  0  0  0  0  0  0  0  0
  127.5610  125.7330   60.2970 C   0  0  0  0  0  0  0  0  0  0  0  0
  126.9700  126.7140   61.3380 C   0  0  0  0  0  0  0  0  0  0  0  0
  127.0560  128.2380   61.0660 C   0  0  0  0  0  0  0  0  0  0  0  0
  128.1630  129.0310   61.8390 C   0  0  2  0  0  0  0  0  0  0  0  0
  127.6760  129.6180   63.1890 C   0  0  0  0  0  0  0  0  0  0  0  0
  129.2250  128.1250   62.1440 O   0  0  0  0  0  0  0  0  0  0  0  0
  134.2541  130.9654   59.7647 H   0  0  0  0  0  0  0  0  0  0  0  0
  133.4565  130.2551   58.3204 H   0  0  0  0  0  0  0  0  0  0  0  0
  133.9382  131.9856   58.3204 H   0  0  0  0  0  0  0  0  0  0  0  0
  131.4225  131.8077   58.7689 H   0  0  0  0  0  0  0  0  0  0  0  0
  132.2306  131.4083   62.9255 H   0  0  0  0  0  0  0  0  0  0  0  0
  132.9643  130.1138   61.9192 H   0  0  0  0  0  0  0  0  0  0  0  0
  133.6756  131.7632   61.9192 H   0  0  0  0  0  0  0  0  0  0  0  0
  127.9354  130.8410   60.6989 H   0  0  0  0  0  0  0  0  0  0  0  0
  128.6697  129.4680   58.9471 H   0  0  0  0  0  0  0  0  0  0  0  0
  130.1513  130.4392   59.3485 H   0  0  0  0  0  0  0  0  0  0  0  0
  133.3108  122.0337   59.1998 H   0  0  0  0  0  0  0  0  0  0  0  0
  134.2953  122.7830   60.5028 H   0  0  0  0  0  0  0  0  0  0  0  0
  131.8160  122.9150   61.3240 H   0  0  0  0  0  0  0  0  0  0  0  0
  134.0668  124.2968   57.9247 H   0  0  0  0  0  0  0  0  0  0  0  0
  132.0620  128.2710   57.3090 H   0  0  0  0  0  0  0  0  0  0  0  0
  129.2130  126.0536   62.9464 H   0  0  0  0  0  0  0  0  0  0  0  0
  130.9796  123.9481   63.5635 H   0  0  0  0  0  0  0  0  0  0  0  0
  131.9013  125.4858   63.2246 H   0  0  0  0  0  0  0  0  0  0  0  0
  132.0406  124.4321   65.9284 H   0  0  0  0  0  0  0  0  0  0  0  0
  131.3943  125.3134   68.1688 H   0  0  0  0  0  0  0  0  0  0  0  0
  129.5440  126.9749   68.3710 H   0  0  0  0  0  0  0  0  0  0  0  0
  127.2830  127.5170   66.5110 H   0  0  0  0  0  0  0  0  0  0  0  0
  128.9837  126.8771   64.0875 H   0  0  0  0  0  0  0  0  0  0  0  0
  130.2649  122.8200   62.9622 H   0  0  0  0  0  0  0  0  0  0  0  0
  129.0613  120.8506   62.0932 H   0  0  0  0  0  0  0  0  0  0  0  0
  126.4110  122.7040   58.6510 H   0  0  0  0  0  0  0  0  0  0  0  0
  125.5060  123.7140   59.7720 H   0  0  0  0  0  0  0  0  0  0  0  0
  128.4098  126.2348   59.8094 H   0  0  0  0  0  0  0  0  0  0  0  0
  126.7270  125.4866   59.6234 H   0  0  0  0  0  0  0  0  0  0  0  0
  125.9040  126.4653   61.4468 H   0  0  0  0  0  0  0  0  0  0  0  0
  127.6011  126.5680   62.2271 H   0  0  0  0  0  0  0  0  0  0  0  0
  127.2389  128.3743   59.9899 H   0  0  0  0  0  0  0  0  0  0  0  0
  126.1018  128.6494   61.4268 H   0  0  0  0  0  0  0  0  0  0  0  0
  128.1374  129.0619   64.0184 H   0  0  0  0  0  0  0  0  0  0  0  0
  127.9638  130.6777   63.2532 H   0  0  0  0  0  0  0  0  0  0  0  0
  126.5813  129.5308   63.2532 H   0  0  0  0  0  0  0  0  0  0  0  0
  1  2  1  0
  2  3  2  0
  3  4  1  0
  3  5  1  0
  5  6  2  0
  5  7  1  0
  7  8  1  0
  8  9  1  0
  9 10  1  0
 10 11  2  0
 11 12  1  0
 12 13  2  0
 13 14  1  0
 14 15  1  0
 15 16  1  0
 16 17  1  0
 15 18  2  0
 18 19  1  0
 19 20  2  0
 19 21  1  0
 21 22  2  0
 22 23  1  0
 12 24  1  0
 24 25  1  0
 25 26  1  0
 26 27  2  0
 27 28  1  0
 28 29  2  0
 29 30  1  0
 30 31  1  0
 30 32  2  0
 24 33  1  0
 33 34  2  0
 34 35  1  0
 35 36  2  0
 36 37  1  0
 37 38  1  0
 37 39  2  0
 39 40  1  0
 40 41  1  0
 41 42  1  0
 42 43  1  0
 43 44  1  1
 43 45  1  0
 43  8  1  0
 22 10  1  0
 32 26  1  0
 39 33  1  0
 45 11  1  0
 21 13  1  0
  1 46  1  0
  1 47  1  0
  1 48  1  0
  2 49  1  0
  4 50  1  0
  4 51  1  0
  4 52  1  0
  8 53  1  6
  9 54  1  0
  9 55  1  0
 16 56  1  0
 16 57  1  0
 17 58  1  0
 18 59  1  0
 23 60  1  0
 24 61  1  1
 25 62  1  0
 25 63  1  0
 27 64  1  0
 28 65  1  0
 29 66  1  0
 31 67  1  0
 32 68  1  0
 34 69  1  0
 35 70  1  0
 38 71  1  0
 38 72  1  0
 40 73  1  0
 40 74  1  0
 41 75  1  0
 41 76  1  0
 42 77  1  0
 42 78  1  0
 44 79  1  0
 44 80  1  0
 44 81  1  0
M  END
>  <Binding energies>  (1) 
[-3.66]

>  <Ligand effiencies>  (1) 
[-0.07038461538461539]

>  <Interactions>  (1) 
["V-A:ILE:369:CG2:3237, V-A:ASP:366:CA:3210, V-B:PRO:540:CA:9855, H-A:ALA:541:N:4891, V-B:GLU:543:CB:9878, V-B:ALA:541:CB:9864, H-A:TYR:531:OH:4795, V-B:TYR:539:CE2:9848, V-B:GLU:543:CG:9879, V-A:ASP:366:CG:3213, V-A:ASN:362:CB:3176, V-A:LEU:363:CB:3187, V-A:LEU:363:CD1:3189, H-B:ALA:541:N:9863, V-A:GLU:543:CD:4908, V-B:PRO:540:CB:9857, V-A:TYR:484:CZ:4347, H-B:ASP:366:OD1:8185, V-B:PRO:540:N:9856, V-A:HIS:456:CE1:4070, V-A:ASP:366:C:3208, V-B:GLU:543:CD:9880, V-A:ASP:366:CB:3212, H-B:GLU:543:OE2:9882, V-A:PRO:540:CA:4883, V-A:PRO:540:CB:4885, V-A:LEU:363:CA:3185, V-B:PRO:540:C:9853, V-B:ALA:541:CA:9862"]

$$$$
ZINC2356315921
     RDKit          3D

 86 93  0  0  0  0  0  0  0  0999 V2000
  125.9280  133.2280   60.9810 C   0  0  0  0  0  0  0  0  0  0  0  0
  127.2460  133.5040   61.4310 O   0  0  0  0  0  0  0  0  0  0  0  0
  128.1700  132.4090   61.4400 C   0  0  2  0  0  0  0  0  0  0  0  0
  129.0910  132.7000   62.6330 C   0  0  0  0  0  0  0  0  0  0  0  0
  130.4730  132.1950   62.2320 C   0  0  0  0  0  0  0  0  0  0  0  0
  131.3970  131.9400   63.0000 O   0  0  0  0  0  0  0  0  0  0  0  0
  130.4930  132.0240   60.7110 C   0  0  1  0  0  0  0  0  0  0  0  0
  130.9190  130.6920   60.0250 C   0  0  2  0  0  0  0  0  0  0  0  0
  131.2570  131.1390   58.5890 C   0  0  0  0  0  0  0  0  0  0  0  0
  129.8410  131.2290   57.9580 C   0  0  1  0  0  0  0  0  0  0  0  0
  129.6950  130.1860   56.8510 C   0  0  0  0  0  0  0  0  0  0  0  0
  130.0060  128.7800   57.3750 C   0  0  0  0  0  0  0  0  0  0  0  0
  129.7270  128.5060   58.9130 C   0  0  2  0  0  0  0  0  0  0  0  0
  130.8030  127.4970   59.4150 C   0  0  0  0  0  0  0  0  0  0  0  0
  130.2710  126.0640   59.1720 C   0  0  2  0  0  0  0  0  0  0  0  0
  131.2450  125.1580   58.3750 C   0  0  0  0  0  0  0  0  0  0  0  0
  132.9110  124.8800   59.0550 S   0  0  0  0  0  0  0  0  0  0  0  0
  132.6120  124.2190   60.9700 S   0  0  0  0  0  0  0  0  0  0  0  0
  132.0700  125.7020   61.8760 C   0  0  0  0  0  0  0  0  0  0  0  0
  131.3340  125.5220   63.2360 C   0  0  2  0  0  0  0  0  0  0  0  0
  132.2800  125.5390   64.4730 C   0  0  2  0  0  0  0  0  0  0  0  0
  133.5980  124.7720   64.2500 C   0  0  0  0  0  0  0  0  0  0  0  0
  131.6530  124.9640   65.6050 O   0  0  0  0  0  0  0  0  0  0  0  0
  130.3700  124.4120   63.2800 N   0  0  0  0  0  0  0  0  0  0  0  0
  129.6270  123.9170   62.1940 C   0  0  0  0  0  0  0  0  0  0  0  0
  129.2110  122.5830   62.2460 C   0  0  0  0  0  0  0  0  0  0  0  0
  128.3940  122.0530   61.2480 C   0  0  0  0  0  0  0  0  0  0  0  0
  127.9610  122.8620   60.1980 C   0  0  0  0  0  0  0  0  0  0  0  0
  128.3750  124.1950   60.1280 C   0  0  0  0  0  0  0  0  0  0  0  0
  129.2500  124.6970   61.0930 C   0  0  0  0  0  0  0  0  0  0  0  0
  127.8210  125.1280   59.0600 C   0  0  0  0  0  0  0  0  0  0  0  0
  128.8380  126.2100   58.5900 C   0  0  1  0  0  0  0  0  0  0  0  0
  128.4210  127.6500   58.9740 C   0  0  2  0  0  0  0  0  0  0  0  0
  127.2430  128.2320   58.2030 C   0  0  0  0  0  0  0  0  0  0  0  0
  126.8260  129.5140   58.1540 C   0  0  0  0  0  0  0  0  0  0  0  0
  127.3660  130.7800   58.8270 C   0  0  0  0  0  0  0  0  0  0  0  0
  128.8740  131.0070   59.1950 C   0  0  2  0  0  0  0  0  0  0  0  0
  129.0700  132.2720   60.1690 C   0  0  1  0  0  0  0  0  0  0  0  0
  129.0530  133.5190   59.4790 O   0  0  0  0  0  0  0  0  0  0  0  0
  129.6260  129.8120   59.8690 C   0  0  2  0  0  0  0  0  0  0  0  0
  129.0390  129.3700   61.2620 C   0  0  0  0  0  0  0  0  0  0  0  0
  125.2659  133.0894   61.8484 H   0  0  0  0  0  0  0  0  0  0  0  0
  125.5644  134.0695   60.3730 H   0  0  0  0  0  0  0  0  0  0  0  0
  125.9326  132.3113   60.3730 H   0  0  0  0  0  0  0  0  0  0  0  0
  127.5958  131.4719   61.4855 H   0  0  0  0  0  0  0  0  0  0  0  0
  129.1233  133.7806   62.8359 H   0  0  0  0  0  0  0  0  0  0  0  0
  128.7321  132.2062   63.5481 H   0  0  0  0  0  0  0  0  0  0  0  0
  131.2978  132.7325   60.4655 H   0  0  0  0  0  0  0  0  0  0  0  0
  131.7173  130.1592   60.5625 H   0  0  0  0  0  0  0  0  0  0  0  0
  131.7648  132.1147   58.5799 H   0  0  0  0  0  0  0  0  0  0  0  0
  131.9454  130.4655   58.0575 H   0  0  0  0  0  0  0  0  0  0  0  0
  129.6173  132.1828   57.4577 H   0  0  0  0  0  0  0  0  0  0  0  0
  128.6632  130.2077   56.4704 H   0  0  0  0  0  0  0  0  0  0  0  0
  130.4077  130.4258   56.0481 H   0  0  0  0  0  0  0  0  0  0  0  0
  129.3993  128.0683   56.7958 H   0  0  0  0  0  0  0  0  0  0  0  0
  131.0937  128.6655   57.2573 H   0  0  0  0  0  0  0  0  0  0  0  0
  131.7408  127.6454   58.8596 H   0  0  0  0  0  0  0  0  0  0  0  0
  131.0007  127.6530   60.4858 H   0  0  0  0  0  0  0  0  0  0  0  0
  130.2073  125.5022   60.1156 H   0  0  0  0  0  0  0  0  0  0  0  0
  130.7655  124.1732   58.2735 H   0  0  0  0  0  0  0  0  0  0  0  0
  131.4208  125.7050   57.4370 H   0  0  0  0  0  0  0  0  0  0  0  0
  132.9673  126.3075   62.0715 H   0  0  0  0  0  0  0  0  0  0  0  0
  131.3106  126.1522   61.2198 H   0  0  0  0  0  0  0  0  0  0  0  0
  130.7191  126.4313   63.3075 H   0  0  0  0  0  0  0  0  0  0  0  0
  132.5069  126.6030   64.6354 H   0  0  0  0  0  0  0  0  0  0  0  0
  134.0413  124.5140   65.2231 H   0  0  0  0  0  0  0  0  0  0  0  0
  133.3950  123.8510   63.6839 H   0  0  0  0  0  0  0  0  0  0  0  0
  134.2985  125.4035   63.6839 H   0  0  0  0  0  0  0  0  0  0  0  0
  132.3320  124.6570   66.2090 H   0  0  0  0  0  0  0  0  0  0  0  0
  130.1810  124.0180   64.1900 H   0  0  0  0  0  0  0  0  0  0  0  0
  129.5316  121.9451   63.0828 H   0  0  0  0  0  0  0  0  0  0  0  0
  128.0910  120.9964   61.2890 H   0  0  0  0  0  0  0  0  0  0  0  0
  127.2942  122.4514   59.4255 H   0  0  0  0  0  0  0  0  0  0  0  0
  129.6481  125.7170   60.9877 H   0  0  0  0  0  0  0  0  0  0  0  0
  127.5279  124.5241   58.1885 H   0  0  0  0  0  0  0  0  0  0  0  0
  126.9675  125.6593   59.5065 H   0  0  0  0  0  0  0  0  0  0  0  0
  128.8380  126.0432   57.5027 H   0  0  0  0  0  0  0  0  0  0  0  0
  127.9964  127.6509   59.9887 H   0  0  0  0  0  0  0  0  0  0  0  0
  126.6570  127.5145   57.6099 H   0  0  0  0  0  0  0  0  0  0  0  0
  125.9430  129.6795   57.5192 H   0  0  0  0  0  0  0  0  0  0  0  0
  127.0946  131.6108   58.1591 H   0  0  0  0  0  0  0  0  0  0  0  0
  126.9195  130.6892   59.8282 H   0  0  0  0  0  0  0  0  0  0  0  0
  128.3140  134.0370   59.8070 H   0  0  0  0  0  0  0  0  0  0  0  0
  129.6351  129.8189   62.0702 H   0  0  0  0  0  0  0  0  0  0  0  0
  127.9957  129.7087   61.3444 H   0  0  0  0  0  0  0  0  0  0  0  0
  129.0762  128.2737   61.3444 H   0  0  0  0  0  0  0  0  0  0  0  0
  1  2  1  0
  2  3  1  0
  3  4  1  0
  4  5  1  0
  5  6  2  0
  5  7  1  0
  7  8  1  0
  8  9  1  0
  9 10  1  0
 10 11  1  0
 11 12  1  0
 13 12  1  6
 13 14  1  0
 14 15  1  0
 15 16  1  0
 16 17  1  0
 17 18  1  0
 18 19  1  0
 19 20  1  0
 20 21  1  0
 21 22  1  0
 21 23  1  0
 20 24  1  0
 24 25  1  0
 25 26  2  0
 26 27  1  0
 27 28  2  0
 28 29  1  0
 29 30  2  0
 29 31  1  0
 31 32  1  0
 32 33  1  0
 33 34  1  0
 34 35  2  0
 35 36  1  0
 37 36  1  6
 37 38  1  0
 38 39  1  6
 37 40  1  0
 40 41  1  1
 38  3  1  0
 38  7  1  0
 40  8  1  0
 37 10  1  0
 33 13  1  0
 40 13  1  0
 32 15  1  0
 30 25  1  0
  1 42  1  0
  1 43  1  0
  1 44  1  0
  3 45  1  1
  4 46  1  0
  4 47  1  0
  7 48  1  6
  8 49  1  1
  9 50  1  0
  9 51  1  0
 10 52  1  6
 11 53  1  0
 11 54  1  0
 12 55  1  0
 12 56  1  0
 14 57  1  0
 14 58  1  0
 15 59  1  1
 16 60  1  0
 16 61  1  0
 19 62  1  0
 19 63  1  0
 20 64  1  1
 21 65  1  1
 22 66  1  0
 22 67  1  0
 22 68  1  0
 23 69  1  0
 24 70  1  0
 26 71  1  0
 27 72  1  0
 28 73  1  0
 30 74  1  0
 31 75  1  0
 31 76  1  0
 32 77  1  6
 33 78  1  1
 34 79  1  0
 35 80  1  0
 36 81  1  0
 36 82  1  0
 39 83  1  0
 41 84  1  0
 41 85  1  0
 41 86  1  0
M  END
>  <Binding energies>  (1) 
[-5.02]

>  <Ligand effiencies>  (1) 
[-0.10458333333333332]

>  <Interactions>  (1) 
["V-B:PRO:540:CA:9855, V-A:GLY:454:CA:4049, H-A:GLU:543:OE2:4910, H-A:ALA:541:N:4891, V-A:PRO:540:C:4881, V-B:ALA:541:CB:9864, V-B:TYR:539:CE2:9848, V-A:ASP:366:CG:3213, V-A:TYR:539:CD1:4873, V-B:TYR:539:CZ:9849, H-B:TYR:539:OH:9850, V-A:ALA:541:CB:4892, V-A:GLU:543:CD:4908, V-A:ALA:541:CA:4890, V-A:MET:535:CE:4835, V-A:ARG:545:CZ:4926, H-A:TYR:539:O:4868, V-A:PRO:540:CB:4885, V-A:PRO:540:CA:4883, V-B:PRO:540:C:9853, V-A:TYR:539:CE1:4875, H-A:TYR:484:OH:4348"]

$$$$
ZINC2356317099
     RDKit          3D

 92 95  0  0  0  0  0  0  0  0999 V2000
  128.5830  133.3670   60.8310 C   0  0  0  0  0  0  0  0  0  0  0  0
  129.1860  133.1150   59.4410 C   0  0  0  0  0  0  0  0  0  0  0  0
  130.0490  131.8290   59.3270 C   0  0  2  0  0  0  0  0  0  0  0  0
  130.5940  131.6100   57.8970 C   0  0  0  0  0  0  0  0  0  0  0  0
  129.3280  130.5450   59.8360 C   0  0  2  0  0  0  0  0  0  0  0  0
  130.3530  129.6040   60.2060 O   0  0  0  0  0  0  0  0  0  0  0  0
  129.9160  128.4490   60.8890 C   0  0  1  0  0  0  0  0  0  0  0  0
  131.2080  127.6820   61.2310 C   0  0  0  0  0  0  0  0  0  0  0  0
  130.9790  126.4990   62.1920 C   0  0  1  0  0  0  0  0  0  0  0  0
  130.1470  126.9460   63.4090 C   0  0  0  0  0  0  0  0  0  0  0  0
  128.9400  127.8320   63.0310 C   0  0  1  0  0  0  0  0  0  0  0  0
  128.2860  128.5020   64.2570 C   0  0  0  0  0  0  0  0  0  0  0  0
  128.4560  127.7080   65.5450 C   0  0  0  0  0  0  0  0  0  0  0  0
  128.1720  128.0890   66.8140 C   0  0  0  0  0  0  0  0  0  0  0  0
  127.6070  129.4620   67.1740 C   0  0  0  0  0  0  0  0  0  0  0  0
  128.3390  127.1560   68.0320 C   0  0  2  0  0  0  0  0  0  0  0  0
  128.0030  127.8240   69.2400 O   0  0  0  0  0  0  0  0  0  0  0  0
  129.7600  126.5360   68.1660 C   0  0  2  0  0  0  0  0  0  0  0  0
  130.7210  127.4310   68.9820 C   0  0  0  0  0  0  0  0  0  0  0  0
  130.3220  126.0170   66.8390 C   0  0  0  0  0  0  0  0  0  0  0  0
  131.5730  125.5780   66.5980 C   0  0  0  0  0  0  0  0  0  0  0  0
  132.0470  125.0670   65.3190 C   0  0  0  0  0  0  0  0  0  0  0  0
  131.6000  123.9790   64.6380 C   0  0  0  0  0  0  0  0  0  0  0  0
  130.5120  123.0510   65.1950 C   0  0  0  0  0  0  0  0  0  0  0  0
  132.1660  123.5400   63.2580 C   0  0  2  0  0  0  0  0  0  0  0  0
  132.9220  122.3460   63.4320 O   0  0  0  0  0  0  0  0  0  0  0  0
  133.1610  124.5810   62.6430 C   0  0  0  0  0  0  0  0  0  0  0  0
  133.6610  124.2360   61.2240 C   0  0  0  0  0  0  0  0  0  0  0  0
  134.6970  124.7370   60.7860 O   0  0  0  0  0  0  0  0  0  0  0  0
  132.7720  123.3930   60.3980 C   0  0  0  0  0  0  0  0  0  0  0  0
  133.2870  123.0730   58.9990 C   0  0  0  0  0  0  0  0  0  0  0  0
  131.5760  122.9550   60.8500 C   0  0  0  0  0  0  0  0  0  0  0  0
  131.0030  123.2120   62.2450 C   0  0  2  0  0  0  0  0  0  0  0  0
  129.9250  124.3110   62.1010 C   0  0  0  0  0  0  0  0  0  0  0  0
  128.7750  124.1640   62.5200 O   0  0  0  0  0  0  0  0  0  0  0  0
  130.3990  125.4110   61.4690 O   0  0  0  0  0  0  0  0  0  0  0  0
  129.3040  128.8560   62.0960 O   0  0  0  0  0  0  0  0  0  0  0  0
  128.9210  127.6870   59.9750 C   0  0  0  0  0  0  0  0  0  0  0  0
  127.7780  128.6090   59.5190 C   0  0  2  0  0  0  0  0  0  0  0  0
  126.8570  127.9010   58.7110 O   0  0  0  0  0  0  0  0  0  0  0  0
  128.3600  129.8620   58.8280 C   0  0  1  0  0  0  0  0  0  0  0  0
  127.2510  130.8060   58.3100 C   0  0  0  0  0  0  0  0  0  0  0  0
  129.3050  133.0653   61.6041 H   0  0  0  0  0  0  0  0  0  0  0  0
  128.3524  134.4368   60.9422 H   0  0  0  0  0  0  0  0  0  0  0  0
  127.6598  132.7794   60.9422 H   0  0  0  0  0  0  0  0  0  0  0  0
  128.3598  133.0374   58.7189 H   0  0  0  0  0  0  0  0  0  0  0  0
  129.8617  133.9593   59.2397 H   0  0  0  0  0  0  0  0  0  0  0  0
  130.9017  132.0053   59.9992 H   0  0  0  0  0  0  0  0  0  0  0  0
  131.6134  131.2004   57.9519 H   0  0  0  0  0  0  0  0  0  0  0  0
  129.9433  130.9035   57.3608 H   0  0  0  0  0  0  0  0  0  0  0  0
  130.6131  132.5703   57.3608 H   0  0  0  0  0  0  0  0  0  0  0  0
  128.6848  130.8577   60.6718 H   0  0  0  0  0  0  0  0  0  0  0  0
  131.6413  127.2943   60.2972 H   0  0  0  0  0  0  0  0  0  0  0  0
  131.8812  128.3883   61.7388 H   0  0  0  0  0  0  0  0  0  0  0  0
  131.9366  126.1429   62.5996 H   0  0  0  0  0  0  0  0  0  0  0  0
  129.7738  126.0492   63.9253 H   0  0  0  0  0  0  0  0  0  0  0  0
  130.8060  127.5493   64.0506 H   0  0  0  0  0  0  0  0  0  0  0  0
  128.2123  127.1479   62.5701 H   0  0  0  0  0  0  0  0  0  0  0  0
  128.7415  129.4935   64.3964 H   0  0  0  0  0  0  0  0  0  0  0  0
  127.2065  128.5639   64.0548 H   0  0  0  0  0  0  0  0  0  0  0  0
  128.8625  126.6923   65.4304 H   0  0  0  0  0  0  0  0  0  0  0  0
  127.5644  129.5655   68.2683 H   0  0  0  0  0  0  0  0  0  0  0  0
  128.2555  130.2463   66.7565 H   0  0  0  0  0  0  0  0  0  0  0  0
  126.5943  129.5627   66.7565 H   0  0  0  0  0  0  0  0  0  0  0  0
  127.6409  126.3254   67.8512 H   0  0  0  0  0  0  0  0  0  0  0  0
  127.6400  127.1800   69.8510 H   0  0  0  0  0  0  0  0  0  0  0  0
  129.6525  125.6245   68.7723 H   0  0  0  0  0  0  0  0  0  0  0  0
  130.5484  127.2702   70.0564 H   0  0  0  0  0  0  0  0  0  0  0  0
  131.7613  127.1725   68.7351 H   0  0  0  0  0  0  0  0  0  0  0  0
  130.5371  128.4870   68.7351 H   0  0  0  0  0  0  0  0  0  0  0  0
  129.6263  126.0008   65.9871 H   0  0  0  0  0  0  0  0  0  0  0  0
  132.2911  125.6078   67.4307 H   0  0  0  0  0  0  0  0  0  0  0  0
  132.8659  125.6298   64.8471 H   0  0  0  0  0  0  0  0  0  0  0  0
  130.5384  123.0736   66.2945 H   0  0  0  0  0  0  0  0  0  0  0  0
  129.5260  123.3905   64.8449 H   0  0  0  0  0  0  0  0  0  0  0  0
  130.6917  122.0238   64.8449 H   0  0  0  0  0  0  0  0  0  0  0  0
  132.9830  122.1600   64.3720 H   0  0  0  0  0  0  0  0  0  0  0  0
  132.6533  125.5559   62.5997 H   0  0  0  0  0  0  0  0  0  0  0  0
  134.0486  124.5834   63.2928 H   0  0  0  0  0  0  0  0  0  0  0  0
  134.2191  122.4938   59.0750 H   0  0  0  0  0  0  0  0  0  0  0  0
  132.5327  122.4843   58.4564 H   0  0  0  0  0  0  0  0  0  0  0  0
  133.4807  124.0100   58.4564 H   0  0  0  0  0  0  0  0  0  0  0  0
  130.9620  122.3630   60.1553 H   0  0  0  0  0  0  0  0  0  0  0  0
  130.5129  122.3252   62.6732 H   0  0  0  0  0  0  0  0  0  0  0  0
  129.4578  127.3143   59.0902 H   0  0  0  0  0  0  0  0  0  0  0  0
  128.4912  126.8499   60.5446 H   0  0  0  0  0  0  0  0  0  0  0  0
  127.2096  128.9588   60.3934 H   0  0  0  0  0  0  0  0  0  0  0  0
  126.1380  127.5910   59.2680 H   0  0  0  0  0  0  0  0  0  0  0  0
  128.9205  129.5785   57.9250 H   0  0  0  0  0  0  0  0  0  0  0  0
  126.7233  131.2552   59.1643 H   0  0  0  0  0  0  0  0  0  0  0  0
  127.7024  131.6012   57.6986 H   0  0  0  0  0  0  0  0  0  0  0  0
  126.5381  130.2334   57.6986 H   0  0  0  0  0  0  0  0  0  0  0  0
  1  2  1  0
  2  3  1  0
  3  4  1  0
  3  5  1  0
  5  6  1  0
  7  6  1  6
  7  8  1  0
  8  9  1  0
  9 10  1  0
 10 11  1  0
 11 12  1  0
 12 13  1  0
 13 14  2  0
 14 15  1  0
 14 16  1  0
 16 17  1  0
 16 18  1  0
 18 19  1  0
 18 20  1  0
 20 21  2  0
 21 22  1  0
 22 23  2  0
 23 24  1  0
 23 25  1  0
 25 26  1  1
 25 27  1  0
 27 28  1  0
 28 29  2  0
 28 30  1  0
 30 31  1  0
 30 32  2  0
 32 33  1  0
 33 34  1  0
 34 35  2  0
 34 36  1  0
 11 37  1  0
  7 38  1  0
 38 39  1  0
 39 40  1  0
 39 41  1  0
 41 42  1  0
 41  5  1  0
 37  7  1  0
 36  9  1  0
 33 25  1  0
  1 43  1  0
  1 44  1  0
  1 45  1  0
  2 46  1  0
  2 47  1  0
  3 48  1  1
  4 49  1  0
  4 50  1  0
  4 51  1  0
  5 52  1  1
  8 53  1  0
  8 54  1  0
  9 55  1  1
 10 56  1  0
 10 57  1  0
 11 58  1  6
 12 59  1  0
 12 60  1  0
 13 61  1  0
 15 62  1  0
 15 63  1  0
 15 64  1  0
 16 65  1  6
 17 66  1  0
 18 67  1  1
 19 68  1  0
 19 69  1  0
 19 70  1  0
 20 71  1  0
 21 72  1  0
 22 73  1  0
 24 74  1  0
 24 75  1  0
 24 76  1  0
 26 77  1  0
 27 78  1  0
 27 79  1  0
 31 80  1  0
 31 81  1  0
 31 82  1  0
 32 83  1  0
 33 84  1  1
 38 85  1  0
 38 86  1  0
 39 87  1  1
 40 88  1  0
 41 89  1  6
 42 90  1  0
 42 91  1  0
 42 92  1  0
M  END
>  <Binding energies>  (1) 
[-4.31]

>  <Ligand effiencies>  (1) 
[-0.09170212765957446]

>  <Interactions>  (1) 
["V-A:ILE:369:CG2:3237, V-A:ILE:369:CB:3236, H-B:GLU:543:O:9875, V-B:GLU:543:CB:9878, V-B:TYR:539:CE2:9848, V-A:TYR:484:CE2:4346, V-B:GLU:543:CG:9879, V-A:ASP:366:CG:3213, V-A:TYR:539:CD1:4873, V-B:TYR:484:CE2:9317, V-B:TYR:539:CZ:9849, V-A:GLU:543:CD:4908, V-A:TYR:484:CZ:4347, H-B:ASP:366:OD1:8185, V-B:HIS:456:CE1:9041, H-A:GLY:454:N:4050, V-B:TYR:484:CZ:9318, V-A:HIS:456:CE1:4070, V-A:ILE:369:CD1:3239, H-B:HIS:456:NE2:9042, V-B:TYR:539:CD2:9846, V-B:GLU:543:CD:9880, V-A:TYR:539:C:4867, H-B:TYR:531:OH:9767, V-A:LEU:475:CD2:4259, V-A:GLU:543:CB:4906, V-A:PRO:540:N:4884, V-A:PRO:540:CA:4883, H-A:TYR:484:OH:4348"]

$$$$
ZINC2356322368-again1
     RDKit          3D

 82 88  0  0  0  0  0  0  0  0999 V2000
  129.3880  132.9010   57.5030 C   0  0  0  0  0  0  0  0  0  0  0  0
  129.9450  131.5040   57.6880 C   0  0  0  0  0  0  0  0  0  0  0  0
  131.2300  131.1410   57.5190 C   0  0  0  0  0  0  0  0  0  0  0  0
  131.6770  129.7660   57.7180 C   0  0  0  0  0  0  0  0  0  0  0  0
  132.8500  129.4270   57.5660 O   0  0  0  0  0  0  0  0  0  0  0  0
  130.5700  128.8170   58.1230 C   0  0  0  0  0  0  0  0  0  0  0  0
  130.7710  127.4390   58.3690 C   0  0  0  0  0  0  0  0  0  0  0  0
  132.0180  126.8760   58.2340 O   0  0  0  0  0  0  0  0  0  0  0  0
  129.7100  126.5940   58.7580 C   0  0  0  0  0  0  0  0  0  0  0  0
  128.4230  127.1570   58.8610 C   0  0  0  0  0  0  0  0  0  0  0  0
  128.2040  128.5060   58.6170 C   0  0  0  0  0  0  0  0  0  0  0  0
  129.2670  129.3250   58.2630 C   0  0  0  0  0  0  0  0  0  0  0  0
  128.9520  130.6530   58.0480 O   0  0  0  0  0  0  0  0  0  0  0  0
  127.2760  126.4270   59.1180 O   0  0  0  0  0  0  0  0  0  0  0  0
  127.4130  125.1800   59.8080 C   0  0  0  0  0  0  0  0  0  0  0  0
  127.6900  125.4650   61.3040 C   0  0  0  0  0  0  0  0  0  0  0  0
  126.0600  124.4730   59.5830 C   0  0  0  0  0  0  0  0  0  0  0  0
  128.5420  124.3680   59.1050 C   0  0  2  0  0  0  0  0  0  0  0  0
  128.6910  123.0600   59.6580 O   0  0  0  0  0  0  0  0  0  0  0  0
  128.6240  122.8430   60.9850 C   0  0  0  0  0  0  0  0  0  0  0  0
  127.6010  122.8460   61.6710 O   0  0  0  0  0  0  0  0  0  0  0  0
  129.9950  122.4540   61.5620 C   0  0  2  0  0  0  0  0  0  0  0  0
  131.0230  121.9250   60.5250 C   0  0  0  0  0  0  0  0  0  0  0  0
  132.3430  122.7410   60.4640 C   0  0  0  0  0  0  0  0  0  0  0  0
  132.1880  124.2510   60.1630 C   0  0  0  0  0  0  0  0  0  0  0  0
  130.7850  124.8850   60.3600 C   0  0  0  0  0  0  0  0  0  0  0  0
  129.9180  125.1020   59.0730 C   0  0  2  0  0  0  0  0  0  0  0  0
  130.0250  121.8190   62.8200 O   0  0  0  0  0  0  0  0  0  0  0  0
  130.5320  123.1300   62.7950 C   0  0  2  0  0  0  0  0  0  0  0  0
  129.7370  124.1960   63.5750 C   0  0  0  0  0  0  0  0  0  0  0  0
  130.6390  125.0400   64.4950 C   0  0  0  0  0  0  0  0  0  0  0  0
  129.8660  126.0780   65.2970 C   0  0  0  0  0  0  0  0  0  0  0  0
  129.0510  127.0130   64.6510 C   0  0  0  0  0  0  0  0  0  0  0  0
  128.3680  127.9530   65.4240 C   0  0  0  0  0  0  0  0  0  0  0  0
  127.5490  128.8980   64.8110 N   0  0  0  0  0  0  0  0  0  0  0  0
  128.4650  127.9970   66.7750 N   0  0  0  0  0  0  0  0  0  0  0  0
  129.2540  127.0850   67.4100 C   0  0  0  0  0  0  0  0  0  0  0  0
  129.3380  127.1970   68.9000 C   0  0  0  0  0  0  0  0  0  0  0  0
  130.4020  127.8750   69.5250 C   0  0  0  0  0  0  0  0  0  0  0  0
  130.4650  127.9600   70.9170 C   0  0  0  0  0  0  0  0  0  0  0  0
  129.4950  127.3880   71.6540 N   0  0  0  0  0  0  0  0  0  0  0  0
  128.4510  126.7280   71.1180 C   0  0  0  0  0  0  0  0  0  0  0  0
  127.4820  126.1620   71.9720 N   0  0  0  0  0  0  0  0  0  0  0  0
  128.3560  126.6220   69.7260 C   0  0  0  0  0  0  0  0  0  0  0  0
  129.9650  126.1120   66.6930 C   0  0  0  0  0  0  0  0  0  0  0  0
  129.2063  133.3567   58.4876 H   0  0  0  0  0  0  0  0  0  0  0  0
  130.1109  133.5129   56.9436 H   0  0  0  0  0  0  0  0  0  0  0  0
  128.4424  132.8476   56.9436 H   0  0  0  0  0  0  0  0  0  0  0  0
  131.9652  131.9034   57.2220 H   0  0  0  0  0  0  0  0  0  0  0  0
  132.5760  127.3550   57.6180 H   0  0  0  0  0  0  0  0  0  0  0  0
  127.1905  128.9247   58.7040 H   0  0  0  0  0  0  0  0  0  0  0  0
  127.0570  124.8137   61.9247 H   0  0  0  0  0  0  0  0  0  0  0  0
  128.7490  125.2659   61.5252 H   0  0  0  0  0  0  0  0  0  0  0  0
  127.4609  126.5179   61.5252 H   0  0  0  0  0  0  0  0  0  0  0  0
  125.6045  124.2350   60.5555 H   0  0  0  0  0  0  0  0  0  0  0  0
  125.3896  125.1360   59.0165 H   0  0  0  0  0  0  0  0  0  0  0  0
  126.2215  123.5440   59.0165 H   0  0  0  0  0  0  0  0  0  0  0  0
  128.2078  124.2715   58.0615 H   0  0  0  0  0  0  0  0  0  0  0  0
  131.2717  120.8855   60.7851 H   0  0  0  0  0  0  0  0  0  0  0  0
  130.5496  122.0152   59.5362 H   0  0  0  0  0  0  0  0  0  0  0  0
  132.8470  122.6407   61.4366 H   0  0  0  0  0  0  0  0  0  0  0  0
  132.9126  122.3250   59.6199 H   0  0  0  0  0  0  0  0  0  0  0  0
  132.8874  124.7903   60.8188 H   0  0  0  0  0  0  0  0  0  0  0  0
  132.3854  124.3415   59.0846 H   0  0  0  0  0  0  0  0  0  0  0  0
  130.2166  124.2304   61.0371 H   0  0  0  0  0  0  0  0  0  0  0  0
  130.9790  125.8956   60.7487 H   0  0  0  0  0  0  0  0  0  0  0  0
  130.5068  124.6446   58.2643 H   0  0  0  0  0  0  0  0  0  0  0  0
  131.4716  123.6559   63.0201 H   0  0  0  0  0  0  0  0  0  0  0  0
  129.2411  124.8643   62.8556 H   0  0  0  0  0  0  0  0  0  0  0  0
  129.0048  123.6736   64.2083 H   0  0  0  0  0  0  0  0  0  0  0  0
  131.1524  124.3661   65.1966 H   0  0  0  0  0  0  0  0  0  0  0  0
  131.3485  125.5822   63.8526 H   0  0  0  0  0  0  0  0  0  0  0  0
  128.9503  127.0076   63.5556 H   0  0  0  0  0  0  0  0  0  0  0  0
  126.5710  128.6940   64.6660 H   0  0  0  0  0  0  0  0  0  0  0  0
  127.9470  129.7780   64.5180 H   0  0  0  0  0  0  0  0  0  0  0  0
  131.1884  128.3405   68.9127 H   0  0  0  0  0  0  0  0  0  0  0  0
  131.2972  128.4880   71.4055 H   0  0  0  0  0  0  0  0  0  0  0  0
  129.5520  127.4560   72.6610 H   0  0  0  0  0  0  0  0  0  0  0  0
  126.8880  126.7590   72.5290 H   0  0  0  0  0  0  0  0  0  0  0  0
  127.3800  125.1590   72.0300 H   0  0  0  0  0  0  0  0  0  0  0  0
  127.5080  126.0856   69.2752 H   0  0  0  0  0  0  0  0  0  0  0  0
  130.5948  125.3821   67.2227 H   0  0  0  0  0  0  0  0  0  0  0  0
  1  2  1  0
  2  3  2  0
  3  4  1  0
  4  5  2  0
  4  6  1  0
  6  7  2  0
  7  8  1  0
  7  9  1  0
  9 10  2  0
 10 11  1  0
 11 12  2  0
 12 13  1  0
 10 14  1  0
 14 15  1  0
 15 16  1  0
 15 17  1  0
 15 18  1  0
 18 19  1  0
 19 20  1  0
 20 21  2  0
 20 22  1  0
 22 23  1  0
 23 24  1  0
 24 25  1  0
 25 26  1  0
 26 27  1  0
 22 28  1  1
 28 29  1  0
 29 30  1  0
 30 31  1  0
 31 32  1  0
 32 33  2  0
 33 34  1  0
 34 35  1  0
 34 36  2  0
 36 37  1  0
 37 38  1  0
 38 39  2  0
 39 40  1  0
 40 41  2  0
 41 42  1  0
 42 43  1  0
 42 44  2  0
 37 45  2  0
 13  2  1  0
 27 18  1  0
 45 32  1  0
 12  6  1  0
 29 22  1  0
 44 38  1  0
 27  9  1  0
  1 46  1  0
  1 47  1  0
  1 48  1  0
  3 49  1  0
  8 50  1  0
 11 51  1  0
 16 52  1  0
 16 53  1  0
 16 54  1  0
 17 55  1  0
 17 56  1  0
 17 57  1  0
 18 58  1  6
 23 59  1  0
 23 60  1  0
 24 61  1  0
 24 62  1  0
 25 63  1  0
 25 64  1  0
 26 65  1  0
 26 66  1  0
 27 67  1  6
 29 68  1  6
 30 69  1  0
 30 70  1  0
 31 71  1  0
 31 72  1  0
 33 73  1  0
 35 74  1  0
 35 75  1  0
 39 76  1  0
 40 77  1  0
 41 78  1  0
 43 79  1  0
 43 80  1  0
 44 81  1  0
 45 82  1  0
M  CHG  1  41   1
M  END
>  <Binding energies>  (1) 
[-5.83]

>  <Ligand effiencies>  (1) 
[-0.11]

>  <Interactions>  (1) 
["V-B:PRO:540:CA:9855, V-B:GLU:543:C:9874, H-B:GLU:543:O:9875, V-A:GLU:543:C:4902, V-B:GLU:543:CB:9878, H-A:TYR:531:OH:4795, V-B:TYR:539:CE2:9848, V-B:GLU:543:CG:9879, V-A:GLY:544:C:4912, V-A:TYR:539:CD1:4873, H-B:GLU:543:OE1:9881, V-A:TYR:531:CE2:4793, V-B:LYS:547:CE:9922, H-B:ALA:541:N:9863, V-A:GLU:543:CD:4908, H-B:TYR:484:OH:9319, V-B:HIS:456:CE1:9041, V-A:HIS:456:CE1:4070, V-B:GLY:544:C:9884, V-B:TYR:539:CD2:9846, V-A:TYR:531:CZ:4794, V-B:GLY:544:CA:9886, V-B:GLU:543:CD:9880, V-A:TYR:539:C:4867, V-A:LEU:475:CD2:4259, H-A:GLU:543:OE1:4909, V-A:GLU:543:CB:4906, H-B:GLY:544:O:9885, V-A:PRO:540:N:4884, H-B:GLU:543:OE2:9882, H-A:ASP:366:OD2:3215"]

$$$$
ZINC2356324670
     RDKit          3D

 95 98  0  0  0  0  0  0  0  0999 V2000
  128.7920  126.9090   68.4100 C   0  0  0  0  0  0  0  0  0  0  0  0
  129.8860  126.8990   67.6290 C   0  0  0  0  0  0  0  0  0  0  0  0
  130.4150  125.7380   66.7800 C   0  0  0  0  0  0  0  0  0  0  0  0
  131.9550  125.6990   66.8910 C   0  0  0  0  0  0  0  0  0  0  0  0
  129.8650  124.3500   67.2040 C   0  0  0  0  0  0  0  0  0  0  0  0
  130.1520  125.9060   65.3430 N   0  0  0  0  0  0  0  0  0  0  0  0
  130.8500  125.0310   64.3620 C   0  0  2  0  0  0  0  0  0  0  0  0
  131.7140  125.8690   63.3850 C   0  0  0  0  0  0  0  0  0  0  0  0
  132.5770  125.0690   62.4180 C   0  0  0  0  0  0  0  0  0  0  0  0
  133.4970  124.1140   62.9040 C   0  0  0  0  0  0  0  0  0  0  0  0
  134.3690  123.4790   62.0280 C   0  0  0  0  0  0  0  0  0  0  0  0
  134.3550  123.7950   60.6760 C   0  0  0  0  0  0  0  0  0  0  0  0
  133.4800  124.7580   60.1880 C   0  0  0  0  0  0  0  0  0  0  0  0
  132.6010  125.4050   61.0480 C   0  0  0  0  0  0  0  0  0  0  0  0
  129.8040  124.1660   63.6120 C   0  0  0  0  0  0  0  0  0  0  0  0
  129.1650  123.2960   64.2080 O   0  0  0  0  0  0  0  0  0  0  0  0
  129.6560  124.4620   62.3080 N   0  0  0  0  0  0  0  0  0  0  0  0
  128.7660  123.8250   61.3370 C   0  0  2  0  0  0  0  0  0  0  0  0
  128.6350  122.3010   61.5880 C   0  0  0  0  0  0  0  0  0  0  0  0
  129.9020  121.5080   61.3090 C   0  0  0  0  0  0  0  0  0  0  0  0
  129.8550  120.0990   61.2900 C   0  0  0  0  0  0  0  0  0  0  0  0
  130.9780  119.3670   60.9260 C   0  0  0  0  0  0  0  0  0  0  0  0
  132.1490  120.0210   60.5620 C   0  0  0  0  0  0  0  0  0  0  0  0
  132.2030  121.4090   60.5480 C   0  0  0  0  0  0  0  0  0  0  0  0
  131.0890  122.1570   60.9060 C   0  0  0  0  0  0  0  0  0  0  0  0
  129.1470  124.1940   59.8820 C   0  0  0  0  0  0  0  0  0  0  0  0
  130.2180  124.7710   59.6860 O   0  0  0  0  0  0  0  0  0  0  0  0
  128.2700  123.9180   58.8860 N   0  0  0  0  0  0  0  0  0  0  0  0
  127.0650  123.1220   59.1330 C   0  0  0  0  0  0  0  0  0  0  0  0
  126.2240  123.2490   57.8700 C   0  0  0  0  0  0  0  0  0  0  0  0
  127.2670  123.4790   56.7890 C   0  0  0  0  0  0  0  0  0  0  0  0
  128.3570  124.3240   57.4690 C   0  0  1  0  0  0  0  0  0  0  0  0
  128.1190  125.8310   57.2580 C   0  0  0  0  0  0  0  0  0  0  0  0
  127.2800  126.2170   56.4440 O   0  0  0  0  0  0  0  0  0  0  0  0
  128.8550  126.6430   58.0360 N   0  0  0  0  0  0  0  0  0  0  0  0
  128.6790  128.0970   58.1750 C   0  0  2  0  0  0  0  0  0  0  0  0
  129.5410  128.7480   59.2670 C   0  0  0  0  0  0  0  0  0  0  0  0
  130.2310  128.0220   60.1190 N   0  0  0  0  0  0  0  0  0  0  0  0
  130.9110  128.7480   60.9870 C   0  0  0  0  0  0  0  0  0  0  0  0
  130.7970  130.1330   60.8700 C   0  0  0  0  0  0  0  0  0  0  0  0
  131.3850  131.2240   61.6400 C   0  0  0  0  0  0  0  0  0  0  0  0
  130.7580  132.2220   62.0030 O   0  0  0  0  0  0  0  0  0  0  0  0
  132.6910  130.9800   61.8940 O   0  0  0  0  0  0  0  0  0  0  0  0
  133.7020  131.8030   61.3290 C   0  0  0  0  0  0  0  0  0  0  0  0
  129.7300  130.4620   59.5380 S   0  0  0  0  0  0  0  0  0  0  0  0
  127.1720  128.4700   58.3190 C   0  0  0  0  0  0  0  0  0  0  0  0
  126.8620  129.9160   57.8780 C   0  0  0  0  0  0  0  0  0  0  0  0
  126.6310  128.2160   59.7440 C   0  0  0  0  0  0  0  0  0  0  0  0
  128.5244  127.8171   68.9702 H   0  0  0  0  0  0  0  0  0  0  0  0
  128.1643  126.0091   68.4889 H   0  0  0  0  0  0  0  0  0  0  0  0
  130.4686  127.8315   67.5954 H   0  0  0  0  0  0  0  0  0  0  0  0
  132.2461  125.6916   67.9518 H   0  0  0  0  0  0  0  0  0  0  0  0
  132.3351  124.7909   66.4001 H   0  0  0  0  0  0  0  0  0  0  0  0
  132.3806  126.5867   66.4001 H   0  0  0  0  0  0  0  0  0  0  0  0
  129.8394  124.2855   68.3018 H   0  0  0  0  0  0  0  0  0  0  0  0
  128.8479  124.2213   66.8053 H   0  0  0  0  0  0  0  0  0  0  0  0
  130.5179  123.5595   66.8053 H   0  0  0  0  0  0  0  0  0  0  0  0
  130.2430  126.8800   65.0900 H   0  0  0  0  0  0  0  0  0  0  0  0
  131.5389  124.3603   64.8964 H   0  0  0  0  0  0  0  0  0  0  0  0
  131.0371  126.5008   62.7912 H   0  0  0  0  0  0  0  0  0  0  0  0
  132.4147  126.4371   64.0144 H   0  0  0  0  0  0  0  0  0  0  0  0
  133.5233  123.8726   63.9769 H   0  0  0  0  0  0  0  0  0  0  0  0
  135.0728  122.7233   62.4070 H   0  0  0  0  0  0  0  0  0  0  0  0
  135.0406  123.2800   59.9871 H   0  0  0  0  0  0  0  0  0  0  0  0
  133.4832  125.0090   59.1170 H   0  0  0  0  0  0  0  0  0  0  0  0
  131.9233  126.1798   60.6603 H   0  0  0  0  0  0  0  0  0  0  0  0
  130.2260  125.2050   61.9300 H   0  0  0  0  0  0  0  0  0  0  0  0
  127.7549  124.2316   61.4867 H   0  0  0  0  0  0  0  0  0  0  0  0
  128.3584  122.1482   62.6416 H   0  0  0  0  0  0  0  0  0  0  0  0
  127.8722  121.9315   60.8869 H   0  0  0  0  0  0  0  0  0  0  0  0
  128.9260  119.5777   61.5643 H   0  0  0  0  0  0  0  0  0  0  0  0
  130.9404  118.2676   60.9259 H   0  0  0  0  0  0  0  0  0  0  0  0
  133.0381  119.4362   60.2834 H   0  0  0  0  0  0  0  0  0  0  0  0
  133.1322  121.9179   60.2520 H   0  0  0  0  0  0  0  0  0  0  0  0
  131.1316  123.2558   60.8755 H   0  0  0  0  0  0  0  0  0  0  0  0
  127.3302  122.0698   59.3135 H   0  0  0  0  0  0  0  0  0  0  0  0
  126.5202  123.4735   60.0217 H   0  0  0  0  0  0  0  0  0  0  0  0
  125.6537  122.3277   57.6800 H   0  0  0  0  0  0  0  0  0  0  0  0
  125.4734  124.0511   57.9269 H   0  0  0  0  0  0  0  0  0  0  0  0
  127.6806  122.5215   56.4395 H   0  0  0  0  0  0  0  0  0  0  0  0
  126.8453  123.9788   55.9045 H   0  0  0  0  0  0  0  0  0  0  0  0
  129.3620  124.1562   57.0545 H   0  0  0  0  0  0  0  0  0  0  0  0
  129.4230  126.2060   58.7480 H   0  0  0  0  0  0  0  0  0  0  0  0
  129.0574  128.5278   57.2363 H   0  0  0  0  0  0  0  0  0  0  0  0
  131.5363  128.2836   61.7638 H   0  0  0  0  0  0  0  0  0  0  0  0
  134.2827  132.2758   62.1348 H   0  0  0  0  0  0  0  0  0  0  0  0
  134.3700  131.1887   60.7074 H   0  0  0  0  0  0  0  0  0  0  0  0
  133.2360  132.5817   60.7074 H   0  0  0  0  0  0  0  0  0  0  0  0
  126.6453  127.7939   57.6294 H   0  0  0  0  0  0  0  0  0  0  0  0
  126.7262  130.5493   58.7671 H   0  0  0  0  0  0  0  0  0  0  0  0
  127.6976  130.3030   57.2763 H   0  0  0  0  0  0  0  0  0  0  0  0
  125.9412  129.9264   57.2763 H   0  0  0  0  0  0  0  0  0  0  0  0
  127.3683  128.5622   60.4832 H   0  0  0  0  0  0  0  0  0  0  0  0
  125.6881  128.7655   59.8816 H   0  0  0  0  0  0  0  0  0  0  0  0
  126.4515  127.1395   59.8816 H   0  0  0  0  0  0  0  0  0  0  0  0
  1  2  2  0
  2  3  1  0
  3  4  1  0
  3  5  1  0
  3  6  1  0
  6  7  1  0
  7  8  1  0
  8  9  1  0
  9 10  2  0
 10 11  1  0
 11 12  2  0
 12 13  1  0
 13 14  2  0
  7 15  1  0
 15 16  2  0
 15 17  1  0
 17 18  1  0
 18 19  1  0
 19 20  1  0
 20 21  2  0
 21 22  1  0
 22 23  2  0
 23 24  1  0
 24 25  2  0
 18 26  1  0
 26 27  2  0
 26 28  1  0
 28 29  1  0
 29 30  1  0
 30 31  1  0
 31 32  1  0
 32 33  1  0
 33 34  2  0
 33 35  1  0
 35 36  1  0
 36 37  1  0
 37 38  2  0
 38 39  1  0
 39 40  2  0
 40 41  1  0
 41 42  2  0
 41 43  1  0
 43 44  1  0
 40 45  1  0
 36 46  1  0
 46 47  1  0
 46 48  1  0
 14  9  1  0
 25 20  1  0
 32 28  1  0
 45 37  1  0
  1 49  1  0
  1 50  1  0
  2 51  1  0
  4 52  1  0
  4 53  1  0
  4 54  1  0
  5 55  1  0
  5 56  1  0
  5 57  1  0
  6 58  1  0
  7 59  1  1
  8 60  1  0
  8 61  1  0
 10 62  1  0
 11 63  1  0
 12 64  1  0
 13 65  1  0
 14 66  1  0
 17 67  1  0
 18 68  1  1
 19 69  1  0
 19 70  1  0
 21 71  1  0
 22 72  1  0
 23 73  1  0
 24 74  1  0
 25 75  1  0
 29 76  1  0
 29 77  1  0
 30 78  1  0
 30 79  1  0
 31 80  1  0
 31 81  1  0
 32 82  1  6
 35 83  1  0
 36 84  1  6
 39 85  1  0
 44 86  1  0
 44 87  1  0
 44 88  1  0
 46 89  1  0
 47 90  1  0
 47 91  1  0
 47 92  1  0
 48 93  1  0
 48 94  1  0
 48 95  1  0
M  END
>  <Binding energies>  (1) 
[-8.48]

>  <Ligand effiencies>  (1) 
[-0.16627450980392158]

>  <Interactions>  (1) 
["V-A:ILE:369:CG2:3237, V-A:ASP:366:CA:3210, V-B:PRO:540:CA:9855, H-A:GLU:543:OE2:4910, V-A:ILE:369:CB:3236, H-A:ALA:541:N:4891, V-B:GLU:543:CB:9878, V-B:ALA:541:CB:9864, V-B:ASP:366:CG:8184, V-B:TYR:539:CE2:9848, V-A:TYR:484:CE2:4346, V-B:GLU:543:CG:9879, V-B:TYR:539:C:9839, V-A:ASP:366:CG:3213, V-A:ASN:362:CB:3176, V-B:TYR:539:CZ:9849, V-A:TYR:484:CZ:4347, V-B:PRO:540:CB:9857, V-A:GLU:543:CD:4908, V-A:ARG:545:CG:4922, V-B:GLU:543:CA:9876, V-B:PRO:540:N:9856, V-A:HIS:456:CE1:4070, V-A:ILE:369:CD1:3239, V-B:TYR:539:CD2:9846, V-A:SER:385:CB:3409, V-A:ILE:369:CG1:3238, H-B:TYR:531:OH:9767, V-A:ASP:366:CB:3212, V-A:LEU:475:CD2:4259, H-A:ARG:545:NH2:4928, V-A:ARG:545:CZ:4926, H-A:GLU:543:OE1:4909, V-A:ASN:362:C:3172, V-A:GLU:543:CB:4906, V-A:LEU:363:CA:3185, V-A:PRO:540:CB:4885, V-A:PRO:540:CA:4883, V-B:PRO:540:C:9853"]

$$$$
ZINC2356328358
     RDKit          3D

 40 40  0  0  0  0  0  0  0  0999 V2000
  127.7160  132.9740   62.6750 C   0  0  0  0  0  0  0  0  0  0  0  0
  128.1530  133.8000   61.4580 C   0  0  0  0  0  0  0  0  0  0  0  0
  128.0750  133.0060   60.1390 C   0  0  0  0  0  0  0  0  0  0  0  0
  129.2310  131.9880   59.9510 C   0  0  2  0  0  0  0  0  0  0  0  0
  130.5420  132.4100   60.6730 C   0  0  0  0  0  0  0  0  0  0  0  0
  131.0870  131.4030   61.7190 C   0  0  2  0  0  0  0  0  0  0  0  0
  130.7190  131.8740   63.0050 O   0  0  0  0  0  0  0  0  0  0  0  0
  132.6110  131.0890   61.6500 C   0  0  2  0  0  0  0  0  0  0  0  0
  133.2400  131.5260   62.8400 O   0  0  0  0  0  0  0  0  0  0  0  0
  133.3590  131.7390   60.4870 C   0  0  0  0  0  0  0  0  0  0  0  0
  133.2420  131.4980   59.1620 C   0  0  0  0  0  0  0  0  0  0  0  0
  132.3460  130.4920   58.4230 C   0  0  1  0  0  0  0  0  0  0  0  0
  131.5160  129.7110   59.2810 O   0  0  0  0  0  0  0  0  0  0  0  0
  131.2380  128.3900   58.8280 C   0  0  0  0  0  0  0  0  0  0  0  0
  131.4600  131.1210   57.3160 C   0  0  0  0  0  0  0  0  0  0  0  0
  130.4510  132.1650   57.8110 C   0  0  0  0  0  0  0  0  0  0  0  0
  130.6010  133.3590   57.5490 O   0  0  0  0  0  0  0  0  0  0  0  0
  129.4700  131.6250   58.5820 O   0  0  0  0  0  0  0  0  0  0  0  0
  127.9962  133.5037   63.5974 H   0  0  0  0  0  0  0  0  0  0  0  0
  126.6254  132.8331   62.6500 H   0  0  0  0  0  0  0  0  0  0  0  0
  128.2131  131.9931   62.6500 H   0  0  0  0  0  0  0  0  0  0  0  0
  127.4988  134.6806   61.3775 H   0  0  0  0  0  0  0  0  0  0  0  0
  129.2041  134.0857   61.6113 H   0  0  0  0  0  0  0  0  0  0  0  0
  127.1224  132.4562   60.1211 H   0  0  0  0  0  0  0  0  0  0  0  0
  128.1552  133.7364   59.3204 H   0  0  0  0  0  0  0  0  0  0  0  0
  128.8729  131.0747   60.4487 H   0  0  0  0  0  0  0  0  0  0  0  0
  131.3181  132.5551   59.9071 H   0  0  0  0  0  0  0  0  0  0  0  0
  130.2946  133.3224   61.2354 H   0  0  0  0  0  0  0  0  0  0  0  0
  130.6288  130.4308   61.4845 H   0  0  0  0  0  0  0  0  0  0  0  0
  131.2280  131.3930   63.6620 H   0  0  0  0  0  0  0  0  0  0  0  0
  132.6627  129.9997   61.5056 H   0  0  0  0  0  0  0  0  0  0  0  0
  132.7860  132.3120   63.1520 H   0  0  0  0  0  0  0  0  0  0  0  0
  134.0935  132.5087   60.7662 H   0  0  0  0  0  0  0  0  0  0  0  0
  133.8845  132.1144   58.5161 H   0  0  0  0  0  0  0  0  0  0  0  0
  133.0829  129.8290   57.9462 H   0  0  0  0  0  0  0  0  0  0  0  0
  131.0985  127.7270   59.6946 H   0  0  0  0  0  0  0  0  0  0  0  0
  130.3215  128.3962   58.2197 H   0  0  0  0  0  0  0  0  0  0  0  0
  132.0793  128.0263   58.2197 H   0  0  0  0  0  0  0  0  0  0  0  0
  132.1217  131.6060   56.5833 H   0  0  0  0  0  0  0  0  0  0  0  0
  130.8678  130.2976   56.8902 H   0  0  0  0  0  0  0  0  0  0  0  0
  1  2  1  0
  2  3  1  0
  3  4  1  0
  4  5  1  0
  5  6  1  0
  6  7  1  0
  6  8  1  0
  8  9  1  0
  8 10  1  0
 10 11  2  0
 11 12  1  0
 12 13  1  0
 13 14  1  0
 12 15  1  0
 15 16  1  0
 16 17  2  0
 16 18  1  0
 18  4  1  0
  1 19  1  0
  1 20  1  0
  1 21  1  0
  2 22  1  0
  2 23  1  0
  3 24  1  0
  3 25  1  0
  4 26  1  1
  5 27  1  0
  5 28  1  0
  6 29  1  6
  7 30  1  0
  8 31  1  6
  9 32  1  0
 10 33  1  0
 11 34  1  0
 12 35  1  6
 14 36  1  0
 14 37  1  0
 14 38  1  0
 15 39  1  0
 15 40  1  0
M  END
>  <Binding energies>  (1) 
[-3.18]

>  <Ligand effiencies>  (1) 
[-0.14454545454545456]

>  <Interactions>  (1) 
["H-A:ALA:541:N:4891, V-A:PRO:540:C:4881, H-A:ALA:541:O:4889, V-B:LEU:475:CD2:9230, V-A:ASP:366:CG:3213, V-A:TYR:539:CD1:4873, V-A:LEU:363:CB:3187, V-A:LEU:363:CD1:3189, V-A:ALA:541:CB:4892, V-A:TYR:539:C:4867, V-A:ASP:366:CB:3212, H-A:ARG:545:NH2:4928, H-A:GLU:543:OE1:4909, V-A:PRO:540:N:4884, H-A:ASN:362:ND2:3179, H-A:TYR:539:N:4870, V-A:PRO:540:CB:4885, V-A:PRO:540:CA:4883, V-A:LEU:363:CA:3185, V-A:TYR:539:CE1:4875"]

$$$$
ZINC2356329217
     RDKit          3D

117123  0  0  0  0  0  0  0  0999 V2000
  126.3650  132.7830   60.7440 C   0  0  0  0  0  0  0  0  0  0  0  0
  127.5750  132.4780   59.8690 C   0  0  0  0  0  0  0  0  0  0  0  0
  128.6480  133.0620   60.0320 O   0  0  0  0  0  0  0  0  0  0  0  0
  127.3120  131.5300   58.9450 O   0  0  0  0  0  0  0  0  0  0  0  0
  128.2200  130.4550   58.6900 C   0  0  1  0  0  0  0  0  0  0  0  0
  127.5360  129.3410   57.8660 C   0  0  2  0  0  0  0  0  0  0  0  0
  126.3490  128.9560   58.5060 O   0  0  0  0  0  0  0  0  0  0  0  0
  126.3360  127.9000   59.4820 C   0  0  1  0  0  0  0  0  0  0  0  0
  126.4870  126.4870   58.8620 C   0  0  0  0  0  0  0  0  0  0  0  0
  126.4040  125.4030   59.9400 C   0  0  0  0  0  0  0  0  0  0  0  0
  127.3930  125.6400   61.1110 C   0  0  1  0  0  0  0  0  0  0  0  0
  127.3820  124.4140   62.0140 C   0  0  0  0  0  0  0  0  0  0  0  0
  128.6640  124.8050   61.2830 C   0  0  1  0  0  0  0  0  0  0  0  0
  129.0760  123.8740   60.0920 C   0  0  0  0  0  0  0  0  0  0  0  0
  130.3780  123.0600   60.3380 C   0  0  0  0  0  0  0  0  0  0  0  0
  131.5290  123.9180   60.9480 C   0  0  2  0  0  0  0  0  0  0  0  0
  131.8880  125.0280   59.8920 C   0  0  0  0  0  0  0  0  0  0  0  0
  132.9220  123.2500   61.3210 C   0  0  2  0  0  0  0  0  0  0  0  0
  133.1120  121.6790   61.2350 C   0  0  1  0  0  0  0  0  0  0  0  0
  134.2820  121.1320   62.1000 C   0  0  0  0  0  0  0  0  0  0  0  0
  131.8350  120.8830   61.6080 C   0  0  0  0  0  0  0  0  0  0  0  0
  131.8850  119.6770   60.6950 C   0  0  0  0  0  0  0  0  0  0  0  0
  132.5000  120.2550   59.4170 C   0  0  2  0  0  0  0  0  0  0  0  0
  133.2750  119.2820   58.4800 C   0  0  0  0  0  0  0  0  0  0  0  0
  133.3440  119.8510   57.0480 C   0  0  0  0  0  0  0  0  0  0  0  0
  134.6930  118.9370   58.9890 C   0  0  0  0  0  0  0  0  0  0  0  0
  132.5510  118.0670   58.4060 O   0  0  0  0  0  0  0  0  0  0  0  0
  133.3930  121.2690   59.8920 O   0  0  0  0  0  0  0  0  0  0  0  0
  133.3770  124.0260   62.6140 C   0  0  2  0  0  0  0  0  0  0  0  0
  133.5970  123.2080   63.7460 O   0  0  0  0  0  0  0  0  0  0  0  0
  132.2600  125.0370   62.9510 C   0  0  0  0  0  0  0  0  0  0  0  0
  130.9790  124.4700   62.3220 C   0  0  2  0  0  0  0  0  0  0  0  0
  130.4210  123.3780   63.3030 C   0  0  0  0  0  0  0  0  0  0  0  0
  129.8340  125.5070   62.0430 C   0  0  2  0  0  0  0  0  0  0  0  0
  129.3300  126.2790   63.2840 C   0  0  0  0  0  0  0  0  0  0  0  0
  128.3140  127.3860   62.9250 C   0  0  2  0  0  0  0  0  0  0  0  0
  127.5700  127.7220   64.0800 O   0  0  0  0  0  0  0  0  0  0  0  0
  127.3560  127.0970   61.7020 C   0  0  1  0  0  0  0  0  0  0  0  0
  127.4290  128.2030   60.5700 C   0  0  0  0  0  0  0  0  0  0  0  0
  128.8290  128.2040   59.8950 C   0  0  0  0  0  0  0  0  0  0  0  0
  127.0730  129.5910   61.1840 C   0  0  0  0  0  0  0  0  0  0  0  0
  128.4030  128.2550   57.6060 O   0  0  0  0  0  0  0  0  0  0  0  0
  129.5940  128.6440   56.9170 C   0  0  0  0  0  0  0  0  0  0  0  0
  130.3910  129.6650   57.7510 C   0  0  1  0  0  0  0  0  0  0  0  0
  131.6660  129.9280   57.1660 O   0  0  0  0  0  0  0  0  0  0  0  0
  132.7160  130.3360   57.9150 C   0  0  0  0  0  0  0  0  0  0  0  0
  132.2780  130.9230   59.2510 C   0  0  0  0  0  0  0  0  0  0  0  0
  133.9060  130.2620   57.6060 O   0  0  0  0  0  0  0  0  0  0  0  0
  129.5220  130.9180   57.9950 C   0  0  1  0  0  0  0  0  0  0  0  0
  129.2050  131.6150   56.7840 O   0  0  0  0  0  0  0  0  0  0  0  0
  129.5660  132.9010   56.5790 C   0  0  0  0  0  0  0  0  0  0  0  0
  128.3620  133.8170   56.4130 C   0  0  0  0  0  0  0  0  0  0  0  0
  130.7160  133.3400   56.5280 O   0  0  0  0  0  0  0  0  0  0  0  0
  126.6513  132.7108   61.8036 H   0  0  0  0  0  0  0  0  0  0  0  0
  126.0047  133.8000   60.5299 H   0  0  0  0  0  0  0  0  0  0  0  0
  125.5657  132.0582   60.5299 H   0  0  0  0  0  0  0  0  0  0  0  0
  128.5080  130.0519   59.6721 H   0  0  0  0  0  0  0  0  0  0  0  0
  127.2778  129.7376   56.8730 H   0  0  0  0  0  0  0  0  0  0  0  0
  125.3452  127.8805   59.9594 H   0  0  0  0  0  0  0  0  0  0  0  0
  125.6822  126.3279   58.1292 H   0  0  0  0  0  0  0  0  0  0  0  0
  127.4708  126.4216   58.3743 H   0  0  0  0  0  0  0  0  0  0  0  0
  125.3805  125.3861   60.3428 H   0  0  0  0  0  0  0  0  0  0  0  0
  126.6738  124.4467   59.4682 H   0  0  0  0  0  0  0  0  0  0  0  0
  127.3128  124.5360   63.1050 H   0  0  0  0  0  0  0  0  0  0  0  0
  126.7714  123.5011   62.0763 H   0  0  0  0  0  0  0  0  0  0  0  0
  128.2554  123.1646   59.9092 H   0  0  0  0  0  0  0  0  0  0  0  0
  129.2724  124.5307   59.2317 H   0  0  0  0  0  0  0  0  0  0  0  0
  130.1504  122.2362   61.0305 H   0  0  0  0  0  0  0  0  0  0  0  0
  130.7249  122.6923   59.3610 H   0  0  0  0  0  0  0  0  0  0  0  0
  132.1858  125.9488   60.4148 H   0  0  0  0  0  0  0  0  0  0  0  0
  132.7191  124.6792   59.2615 H   0  0  0  0  0  0  0  0  0  0  0  0
  131.0100  125.2319   59.2615 H   0  0  0  0  0  0  0  0  0  0  0  0
  133.6440  123.3709   60.5000 H   0  0  0  0  0  0  0  0  0  0  0  0
  134.0352  121.2474   63.1657 H   0  0  0  0  0  0  0  0  0  0  0  0
  134.4390  120.0671   61.8732 H   0  0  0  0  0  0  0  0  0  0  0  0
  135.1998  121.6944   61.8732 H   0  0  0  0  0  0  0  0  0  0  0  0
  131.8582  120.5767   62.6642 H   0  0  0  0  0  0  0  0  0  0  0  0
  130.9143  121.4724   61.4860 H   0  0  0  0  0  0  0  0  0  0  0  0
  132.5192  118.8840   61.1181 H   0  0  0  0  0  0  0  0  0  0  0  0
  130.9037  119.2062   60.5357 H   0  0  0  0  0  0  0  0  0  0  0  0
  131.6761  120.5918   58.7707 H   0  0  0  0  0  0  0  0  0  0  0  0
  133.4763  120.9421   57.0930 H   0  0  0  0  0  0  0  0  0  0  0  0
  134.1941  119.4002   56.5149 H   0  0  0  0  0  0  0  0  0  0  0  0
  132.4108  119.6165   56.5149 H   0  0  0  0  0  0  0  0  0  0  0  0
  134.6975  118.9359   60.0890 H   0  0  0  0  0  0  0  0  0  0  0  0
  134.9830  117.9421   58.6201 H   0  0  0  0  0  0  0  0  0  0  0  0
  135.4077  119.6875   58.6201 H   0  0  0  0  0  0  0  0  0  0  0  0
  131.6130  118.2720   58.4090 H   0  0  0  0  0  0  0  0  0  0  0  0
  134.3457  124.4967   62.3901 H   0  0  0  0  0  0  0  0  0  0  0  0
  132.8830  123.3590   64.3700 H   0  0  0  0  0  0  0  0  0  0  0  0
  132.1431  125.1295   64.0409 H   0  0  0  0  0  0  0  0  0  0  0  0
  132.4915  126.0402   62.5637 H   0  0  0  0  0  0  0  0  0  0  0  0
  130.5855  123.6999   64.3419 H   0  0  0  0  0  0  0  0  0  0  0  0
  129.3435  123.2433   63.1271 H   0  0  0  0  0  0  0  0  0  0  0  0
  130.9431  122.4259   63.1271 H   0  0  0  0  0  0  0  0  0  0  0  0
  130.2772  126.2899   61.4100 H   0  0  0  0  0  0  0  0  0  0  0  0
  128.8471  125.5669   63.9694 H   0  0  0  0  0  0  0  0  0  0  0  0
  130.2003  126.7648   63.7493 H   0  0  0  0  0  0  0  0  0  0  0  0
  128.9213  128.2329   62.5731 H   0  0  0  0  0  0  0  0  0  0  0  0
  126.6410  127.5570   63.9030 H   0  0  0  0  0  0  0  0  0  0  0  0
  126.3616  127.1638   62.1674 H   0  0  0  0  0  0  0  0  0  0  0  0
  129.6097  128.2046   60.6699 H   0  0  0  0  0  0  0  0  0  0  0  0
  128.9347  127.3059   59.2687 H   0  0  0  0  0  0  0  0  0  0  0  0
  128.9334  129.1022   59.2687 H   0  0  0  0  0  0  0  0  0  0  0  0
  127.0907  129.5218   62.2817 H   0  0  0  0  0  0  0  0  0  0  0  0
  127.8085  130.3384   60.8518 H   0  0  0  0  0  0  0  0  0  0  0  0
  126.0685  129.8922   60.8518 H   0  0  0  0  0  0  0  0  0  0  0  0
  130.2173  127.7548   56.7413 H   0  0  0  0  0  0  0  0  0  0  0  0
  129.3155  129.1073   55.9590 H   0  0  0  0  0  0  0  0  0  0  0  0
  130.6244  129.2490   58.7422 H   0  0  0  0  0  0  0  0  0  0  0  0
  132.7164  130.3354   60.0711 H   0  0  0  0  0  0  0  0  0  0  0  0
  132.6205  131.9658   59.3233 H   0  0  0  0  0  0  0  0  0  0  0  0
  131.1808  130.8916   59.3233 H   0  0  0  0  0  0  0  0  0  0  0  0
  130.0875  131.6237   58.6212 H   0  0  0  0  0  0  0  0  0  0  0  0
  127.9819  134.1062   57.4039 H   0  0  0  0  0  0  0  0  0  0  0  0
  128.6608  134.7182   55.8576 H   0  0  0  0  0  0  0  0  0  0  0  0
  127.5731  133.2886   55.8576 H   0  0  0  0  0  0  0  0  0  0  0  0
  1  2  1  0
  2  3  2  0
  2  4  1  0
  4  5  1  0
  5  6  1  0
  6  7  1  0
  7  8  1  0
  8  9  1  0
  9 10  1  0
 11 10  1  6
 11 12  1  0
 13 12  1  1
 13 14  1  0
 14 15  1  0
 15 16  1  0
 16 17  1  6
 16 18  1  0
 18 19  1  0
 19 20  1  1
 19 21  1  0
 21 22  1  0
 22 23  1  0
 23 24  1  0
 24 25  1  0
 24 26  1  0
 24 27  1  0
 23 28  1  0
 18 29  1  0
 29 30  1  0
 29 31  1  0
 31 32  1  0
 32 33  1  1
 32 34  1  0
 34 35  1  0
 35 36  1  0
 36 37  1  0
 36 38  1  0
 38 39  1  0
 39 40  1  0
 39 41  1  0
  6 42  1  0
 42 43  1  0
 43 44  1  0
 44 45  1  0
 45 46  1  0
 46 47  1  0
 46 48  2  0
 44 49  1  0
 49 50  1  0
 50 51  1  0
 51 52  1  0
 51 53  2  0
 49  5  1  0
 39  8  1  0
 13 11  1  0
 32 16  1  0
 38 11  1  0
 34 13  1  0
 28 19  1  0
  1 54  1  0
  1 55  1  0
  1 56  1  0
  5 57  1  1
  6 58  1  6
  8 59  1  1
  9 60  1  0
  9 61  1  0
 10 62  1  0
 10 63  1  0
 12 64  1  0
 12 65  1  0
 14 66  1  0
 14 67  1  0
 15 68  1  0
 15 69  1  0
 17 70  1  0
 17 71  1  0
 17 72  1  0
 18 73  1  6
 20 74  1  0
 20 75  1  0
 20 76  1  0
 21 77  1  0
 21 78  1  0
 22 79  1  0
 22 80  1  0
 23 81  1  6
 25 82  1  0
 25 83  1  0
 25 84  1  0
 26 85  1  0
 26 86  1  0
 26 87  1  0
 27 88  1  0
 29 89  1  6
 30 90  1  0
 31 91  1  0
 31 92  1  0
 33 93  1  0
 33 94  1  0
 33 95  1  0
 34 96  1  6
 35 97  1  0
 35 98  1  0
 36 99  1  6
 37100  1  0
 38101  1  1
 40102  1  0
 40103  1  0
 40104  1  0
 41105  1  0
 41106  1  0
 41107  1  0
 43108  1  0
 43109  1  0
 44110  1  1
 47111  1  0
 47112  1  0
 47113  1  0
 49114  1  1
 52115  1  0
 52116  1  0
 52117  1  0
M  END
>  <Binding energies>  (1) 
[-0.79]

>  <Ligand effiencies>  (1) 
[-0.014107142857142858]

>  <Interactions>  (1) 
["V-A:ILE:369:CG2:3237, V-A:ILE:538:C:4858, V-A:GLY:454:CA:4049, V-A:ILE:369:C:3232, V-B:TYR:539:CE1:9847, V-B:ASP:366:CG:8184, H-A:TYR:531:OH:4795, V-B:TYR:539:CE2:9848, V-A:VAL:384:C:3397, V-B:GLU:543:CG:9879, V-A:TYR:539:CE2:4876, V-A:ASP:366:CG:3213, V-A:LEU:363:CD1:3189, V-A:TYR:539:CD1:4873, V-A:LEU:373:CG:3279, V-B:TYR:539:CZ:9849, V-A:ILE:538:CA:4860, H-B:GLU:543:OE1:9881, V-A:TYR:531:CE2:4793, V-A:TYR:539:CZ:4877, V-A:TYR:539:CA:4869, H-A:GLY:454:N:4050, V-A:SER:385:C:3405, V-A:ILE:369:CD1:3239, V-A:TYR:539:CB:4871, V-B:TYR:539:CD2:9846, V-A:TYR:531:CZ:4794, V-A:SER:385:CB:3409, H-A:SER:385:OG:3410, V-B:GLU:543:CD:9880, V-A:MET:535:CE:4835, V-A:TYR:539:C:4867, H-B:TYR:531:OH:9767, V-A:ASP:366:CB:3212, V-A:LEU:475:CD2:4259, V-B:TYR:539:CG:9844, H-A:HIS:383:HE2:3395, V-A:HIS:383:CD2:3392, V-B:TYR:539:CD1:9845, V-A:TYR:539:CG:4872, H-A:TYR:539:N:4870, H-B:GLU:543:OE2:9882, V-A:PRO:540:CB:4885, V-A:LEU:373:CD1:3280, H-B:TYR:539:O:9840, V-A:TYR:539:CD2:4874, V-A:SER:385:CA:3407, V-A:TYR:539:CE1:4875, H-A:TYR:484:OH:4348"]

$$$$
ZINC2356335098
     RDKit          3D

115117  0  0  0  0  0  0  0  0999 V2000
  128.1240  128.9590   66.0840 C   0  0  0  0  0  0  0  0  0  0  0  0
  128.3210  127.9080   66.8960 C   0  0  0  0  0  0  0  0  0  0  0  0
  129.2820  126.7700   66.6140 C   0  0  0  0  0  0  0  0  0  0  0  0
  129.4370  126.4180   65.1230 C   0  0  0  0  0  0  0  0  0  0  0  0
  130.1090  125.0510   64.8790 C   0  0  0  0  0  0  0  0  0  0  0  0
  130.6190  124.8020   63.4350 C   0  0  2  0  0  0  0  0  0  0  0  0
  129.5540  124.2960   62.6130 O   0  0  0  0  0  0  0  0  0  0  0  0
  129.0840  123.0270   62.6830 C   0  0  0  0  0  0  0  0  0  0  0  0
  129.4880  122.1640   63.4630 O   0  0  0  0  0  0  0  0  0  0  0  0
  127.9500  122.7330   61.6940 C   0  0  2  0  0  0  0  0  0  0  0  0
  128.4940  122.0740   60.3690 C   0  0  2  0  0  0  0  0  0  0  0  0
  129.7970  121.2790   60.6030 C   0  0  0  0  0  0  0  0  0  0  0  0
  128.6750  123.0460   59.1690 C   0  0  0  0  0  0  0  0  0  0  0  0
  127.9860  122.5770   57.8820 C   0  0  0  0  0  0  0  0  0  0  0  0
  127.0440  123.9410   61.6000 N   0  0  0  0  0  0  0  0  0  0  0  0
  125.6100  123.6010   61.4430 C   0  0  0  0  0  0  0  0  0  0  0  0
  127.4300  125.2450   61.4230 C   0  0  0  0  0  0  0  0  0  0  0  0
  128.2680  125.8270   62.1120 O   0  0  0  0  0  0  0  0  0  0  0  0
  126.7440  126.1050   60.3200 C   0  0  2  0  0  0  0  0  0  0  0  0
  126.4850  125.2960   59.0310 C   0  0  0  0  0  0  0  0  0  0  0  0
  127.5500  125.7480   58.0480 C   0  0  0  0  0  0  0  0  0  0  0  0
  127.7150  127.2180   58.3930 C   0  0  0  0  0  0  0  0  0  0  0  0
  127.5220  127.2780   59.8420 N   0  0  0  0  0  0  0  0  0  0  0  0
  127.9590  128.2830   60.6410 C   0  0  0  0  0  0  0  0  0  0  0  0
  127.1730  129.0490   61.1980 O   0  0  0  0  0  0  0  0  0  0  0  0
  129.4870  128.4770   60.8710 C   0  0  2  0  0  0  0  0  0  0  0  0
  130.1640  128.9990   59.5760 C   0  0  0  0  0  0  0  0  0  0  0  0
  129.8240  130.4530   59.2720 C   0  0  0  0  0  0  0  0  0  0  0  0
  129.4860  131.3230   60.3120 C   0  0  0  0  0  0  0  0  0  0  0  0
  129.1480  132.6450   60.0300 C   0  0  0  0  0  0  0  0  0  0  0  0
  129.1540  133.0910   58.7110 C   0  0  0  0  0  0  0  0  0  0  0  0
  129.4930  132.2290   57.6700 C   0  0  0  0  0  0  0  0  0  0  0  0
  129.8280  130.9070   57.9510 C   0  0  0  0  0  0  0  0  0  0  0  0
  130.1230  127.2190   61.1480 O   0  0  0  0  0  0  0  0  0  0  0  0
  130.3480  126.2430   60.2240 C   0  0  0  0  0  0  0  0  0  0  0  0
  129.4850  125.5000   59.7570 O   0  0  0  0  0  0  0  0  0  0  0  0
  131.8170  126.1780   59.7940 C   0  0  2  0  0  0  0  0  0  0  0  0
  132.0640  126.5010   58.2820 C   0  0  0  0  0  0  0  0  0  0  0  0
  130.7550  126.8150   57.5340 C   0  0  0  0  0  0  0  0  0  0  0  0
  132.8310  125.3820   57.5500 C   0  0  0  0  0  0  0  0  0  0  0  0
  132.2980  124.8340   60.2360 N   0  0  0  0  0  0  0  0  0  0  0  0
  131.2920  123.8690   60.7080 C   0  0  0  0  0  0  0  0  0  0  0  0
  133.6280  124.5230   60.1940 C   0  0  0  0  0  0  0  0  0  0  0  0
  134.3850  124.9610   59.3230 O   0  0  0  0  0  0  0  0  0  0  0  0
  134.3220  123.8070   61.3950 C   0  0  2  0  0  0  0  0  0  0  0  0
  134.0020  122.2690   61.5670 C   0  0  0  0  0  0  0  0  0  0  0  0
  132.8710  121.7210   60.6700 C   0  0  0  0  0  0  0  0  0  0  0  0
  133.8660  121.7210   63.0070 C   0  0  0  0  0  0  0  0  0  0  0  0
  134.1330  124.6710   62.5630 N   0  0  0  0  0  0  0  0  0  0  0  0
  133.2410  124.6010   63.5640 C   0  0  0  0  0  0  0  0  0  0  0  0
  133.4870  125.1720   64.6250 O   0  0  0  0  0  0  0  0  0  0  0  0
  131.8870  123.8590   63.4120 C   0  0  1  0  0  0  0  0  0  0  0  0
  131.7700  122.7560   64.4860 C   0  0  0  0  0  0  0  0  0  0  0  0
  127.4060  129.7437   66.3644 H   0  0  0  0  0  0  0  0  0  0  0  0
  128.6806  129.0353   65.1383 H   0  0  0  0  0  0  0  0  0  0  0  0
  127.7444  127.8700   67.8320 H   0  0  0  0  0  0  0  0  0  0  0  0
  130.2710  127.0510   67.0050 H   0  0  0  0  0  0  0  0  0  0  0  0
  128.8626  125.8786   67.1033 H   0  0  0  0  0  0  0  0  0  0  0  0
  128.4376  126.4014   64.6637 H   0  0  0  0  0  0  0  0  0  0  0  0
  130.0893  127.1830   64.6766 H   0  0  0  0  0  0  0  0  0  0  0  0
  130.9690  124.9705   65.5601 H   0  0  0  0  0  0  0  0  0  0  0  0
  129.3285  124.2965   65.0564 H   0  0  0  0  0  0  0  0  0  0  0  0
  130.9455  125.7646   63.0146 H   0  0  0  0  0  0  0  0  0  0  0  0
  127.2766  121.9398   62.0508 H   0  0  0  0  0  0  0  0  0  0  0  0
  127.6886  121.3824   60.0808 H   0  0  0  0  0  0  0  0  0  0  0  0
  129.9722  121.1721   61.6837 H   0  0  0  0  0  0  0  0  0  0  0  0
  129.7057  120.2826   60.1460 H   0  0  0  0  0  0  0  0  0  0  0  0
  130.6413  121.8160   60.1460 H   0  0  0  0  0  0  0  0  0  0  0  0
  128.2571  124.0242   59.4492 H   0  0  0  0  0  0  0  0  0  0  0  0
  129.7531  123.0936   58.9556 H   0  0  0  0  0  0  0  0  0  0  0  0
  127.1016  121.9750   58.1380 H   0  0  0  0  0  0  0  0  0  0  0  0
  127.6756  123.4522   57.2924 H   0  0  0  0  0  0  0  0  0  0  0  0
  128.6864  121.9673   57.2924 H   0  0  0  0  0  0  0  0  0  0  0  0
  125.1483  123.4915   62.4354 H   0  0  0  0  0  0  0  0  0  0  0  0
  125.1015  124.4035   60.8885 H   0  0  0  0  0  0  0  0  0  0  0  0
  125.5159  122.6556   60.8885 H   0  0  0  0  0  0  0  0  0  0  0  0
  125.8297  126.4347   60.8352 H   0  0  0  0  0  0  0  0  0  0  0  0
  126.5770  124.2178   59.2287 H   0  0  0  0  0  0  0  0  0  0  0  0
  125.4707  125.4646   58.6401 H   0  0  0  0  0  0  0  0  0  0  0  0
  128.4897  125.1966   58.1990 H   0  0  0  0  0  0  0  0  0  0  0  0
  127.2783  125.5727   56.9966 H   0  0  0  0  0  0  0  0  0  0  0  0
  128.7203  127.5711   58.1197 H   0  0  0  0  0  0  0  0  0  0  0  0
  127.0040  127.8576   57.8495 H   0  0  0  0  0  0  0  0  0  0  0  0
  129.5954  129.1815   61.7088 H   0  0  0  0  0  0  0  0  0  0  0  0
  131.2545  128.9103   59.6901 H   0  0  0  0  0  0  0  0  0  0  0  0
  129.7883  128.3910   58.7398 H   0  0  0  0  0  0  0  0  0  0  0  0
  129.4868  130.9646   61.3520 H   0  0  0  0  0  0  0  0  0  0  0  0
  128.8779  133.3326   60.8450 H   0  0  0  0  0  0  0  0  0  0  0  0
  128.8883  134.1350   58.4884 H   0  0  0  0  0  0  0  0  0  0  0  0
  129.4960  132.5911   56.6313 H   0  0  0  0  0  0  0  0  0  0  0  0
  130.0955  130.2210   57.1337 H   0  0  0  0  0  0  0  0  0  0  0  0
  132.4047  126.9760   60.2713 H   0  0  0  0  0  0  0  0  0  0  0  0
  132.6951  127.4019   58.2757 H   0  0  0  0  0  0  0  0  0  0  0  0
  129.9535  127.0073   58.2624 H   0  0  0  0  0  0  0  0  0  0  0  0
  130.8978  127.7044   56.9026 H   0  0  0  0  0  0  0  0  0  0  0  0
  130.4787  125.9576   56.9026 H   0  0  0  0  0  0  0  0  0  0  0  0
  133.2919  124.7096   58.2886 H   0  0  0  0  0  0  0  0  0  0  0  0
  132.1334  124.8112   56.9195 H   0  0  0  0  0  0  0  0  0  0  0  0
  133.6150  125.8267   56.9195 H   0  0  0  0  0  0  0  0  0  0  0  0
  131.2814  123.8588   61.8079 H   0  0  0  0  0  0  0  0  0  0  0  0
  130.2996  124.1616   60.3344 H   0  0  0  0  0  0  0  0  0  0  0  0
  131.5431  122.8653   60.3344 H   0  0  0  0  0  0  0  0  0  0  0  0
  135.4004  123.7025   61.2051 H   0  0  0  0  0  0  0  0  0  0  0  0
  134.9541  121.8622   61.1954 H   0  0  0  0  0  0  0  0  0  0  0  0
  132.0602  121.3282   61.3011 H   0  0  0  0  0  0  0  0  0  0  0  0
  132.4819  122.5305   60.0349 H   0  0  0  0  0  0  0  0  0  0  0  0
  133.2651  120.9140   60.0349 H   0  0  0  0  0  0  0  0  0  0  0  0
  134.0663  122.5282   63.7269 H   0  0  0  0  0  0  0  0  0  0  0  0
  132.8458  121.3389   63.1591 H   0  0  0  0  0  0  0  0  0  0  0  0
  134.5892  120.9062   63.1591 H   0  0  0  0  0  0  0  0  0  0  0  0
  134.9230  125.2800   62.7260 H   0  0  0  0  0  0  0  0  0  0  0  0
  131.8937  123.4108   62.4075 H   0  0  0  0  0  0  0  0  0  0  0  0
  131.8183  123.2115   65.4861 H   0  0  0  0  0  0  0  0  0  0  0  0
  130.8110  122.2301   64.3685 H   0  0  0  0  0  0  0  0  0  0  0  0
  132.5973  122.0406   64.3685 H   0  0  0  0  0  0  0  0  0  0  0  0
  1  2  2  0
  2  3  1  0
  3  4  1  0
  4  5  1  0
  5  6  1  0
  6  7  1  0
  7  8  1  0
  8  9  2  0
  8 10  1  0
 10 11  1  0
 11 12  1  0
 11 13  1  0
 13 14  1  0
 10 15  1  0
 15 16  1  0
 15 17  1  0
 17 18  2  0
 17 19  1  0
 19 20  1  0
 20 21  1  0
 21 22  1  0
 22 23  1  0
 23 24  1  0
 24 25  2  0
 24 26  1  0
 26 27  1  0
 27 28  1  0
 28 29  2  0
 29 30  1  0
 30 31  2  0
 31 32  1  0
 32 33  2  0
 26 34  1  0
 34 35  1  0
 35 36  2  0
 35 37  1  0
 37 38  1  0
 38 39  1  0
 38 40  1  0
 37 41  1  0
 41 42  1  0
 41 43  1  0
 43 44  2  0
 43 45  1  0
 45 46  1  0
 46 47  1  0
 46 48  1  0
 45 49  1  0
 49 50  1  0
 50 51  2  0
 50 52  1  0
 52 53  1  0
 52  6  1  0
 23 19  1  0
 33 28  1  0
  1 54  1  0
  1 55  1  0
  2 56  1  0
  3 57  1  0
  3 58  1  0
  4 59  1  0
  4 60  1  0
  5 61  1  0
  5 62  1  0
  6 63  1  6
 10 64  1  1
 11 65  1  6
 12 66  1  0
 12 67  1  0
 12 68  1  0
 13 69  1  0
 13 70  1  0
 14 71  1  0
 14 72  1  0
 14 73  1  0
 16 74  1  0
 16 75  1  0
 16 76  1  0
 19 77  1  1
 20 78  1  0
 20 79  1  0
 21 80  1  0
 21 81  1  0
 22 82  1  0
 22 83  1  0
 26 84  1  1
 27 85  1  0
 27 86  1  0
 29 87  1  0
 30 88  1  0
 31 89  1  0
 32 90  1  0
 33 91  1  0
 37 92  1  1
 38 93  1  0
 39 94  1  0
 39 95  1  0
 39 96  1  0
 40 97  1  0
 40 98  1  0
 40 99  1  0
 42100  1  0
 42101  1  0
 42102  1  0
 45103  1  6
 46104  1  0
 47105  1  0
 47106  1  0
 47107  1  0
 48108  1  0
 48109  1  0
 48110  1  0
 49111  1  0
 52112  1  6
 53113  1  0
 53114  1  0
 53115  1  0
M  END
>  <Binding energies>  (1) 
[-2.53]

>  <Ligand effiencies>  (1) 
[-0.04517857142857142]

>  <Interactions>  (1) 
["V-A:ILE:369:CG2:3237, V-A:ASP:366:CA:3210, V-B:PRO:540:CA:9855, V-A:GLY:454:CA:4049, V-B:GLU:543:CB:9878, V-B:ALA:541:CB:9864, H-A:ARG:545:NH1:4927, V-B:TYR:539:CE2:9848, V-A:TYR:484:CE2:4346, V-B:GLU:543:CG:9879, V-B:TYR:539:C:9839, V-A:ASP:366:CG:3213, V-A:TYR:539:CD1:4873, V-B:TYR:539:CZ:9849, V-A:TYR:484:CZ:4347, V-A:GLU:543:CD:4908, V-B:PRO:540:CB:9857, H-A:GLY:454:N:4050, V-B:PRO:540:N:9856, V-A:ILE:369:CD1:3239, V-A:ASP:366:C:3208, V-B:TYR:539:CD2:9846, V-A:GLU:543:CG:4907, V-A:TYR:531:CZ:4794, V-B:GLU:543:CD:9880, V-A:TYR:539:C:4867, V-A:ASP:366:CB:3212, V-A:LEU:475:CD2:4259, H-A:ARG:545:NH2:4928, V-A:ARG:545:CZ:4926, V-B:TYR:539:CG:9844, V-A:GLU:543:CB:4906, H-A:ASP:366:OD1:3214, V-B:TYR:539:CD1:9845, V-A:PRO:540:N:4884, V-A:GLY:453:CA:4044, V-A:PRO:540:CA:4883, H-A:ARG:545:NE:4924, V-B:PRO:540:C:9853, V-B:TYR:539:CE1:9847, H-A:TYR:484:OH:4348"]

$$$$
ZINC2356340741
     RDKit          3D

 41 44  0  0  0  0  0  0  0  0999 V2000
  128.7010  133.7660   61.7970 C   0  0  0  0  0  0  0  0  0  0  0  0
  128.8230  132.2470   61.5510 C   0  0  2  0  0  0  0  0  0  0  0  0
  129.8800  131.5770   62.4630 C   0  0  0  0  0  0  0  0  0  0  0  0
  131.1540  131.4060   61.6250 C   0  0  2  0  0  0  0  0  0  0  0  0
  131.4820  132.5940   60.9400 O   0  0  0  0  0  0  0  0  0  0  0  0
  130.7660  131.6210   60.2100 C   0  0  2  0  0  0  0  0  0  0  0  0
  129.2380  131.8440   60.1030 C   0  0  1  0  0  0  0  0  0  0  0  0
  128.4880  130.5970   59.5680 C   0  0  0  0  0  0  0  0  0  0  0  0
  128.6100  130.6430   58.0330 C   0  0  0  0  0  0  0  0  0  0  0  0
  129.4000  131.9350   57.7360 C   0  0  1  0  0  0  0  0  0  0  0  0
  128.9700  132.8050   58.9380 C   0  0  0  0  0  0  0  0  0  0  0  0
  130.9730  131.7590   57.6320 C   0  0  0  0  0  0  0  0  0  0  0  0
  131.6360  133.1520   57.4270 C   0  0  0  0  0  0  0  0  0  0  0  0
  131.3390  130.8840   56.3980 C   0  0  0  0  0  0  0  0  0  0  0  0
  131.5640  131.1000   58.9730 C   0  0  1  0  0  0  0  0  0  0  0  0
  133.1140  131.2040   59.0800 C   0  0  0  0  0  0  0  0  0  0  0  0
  131.3860  129.6900   59.0130 O   0  0  0  0  0  0  0  0  0  0  0  0
  128.6853  133.9621   62.8793 H   0  0  0  0  0  0  0  0  0  0  0  0
  129.5607  134.2811   61.3435 H   0  0  0  0  0  0  0  0  0  0  0  0
  127.7701  134.1373   61.3435 H   0  0  0  0  0  0  0  0  0  0  0  0
  127.8001  131.9025   61.7631 H   0  0  0  0  0  0  0  0  0  0  0  0
  130.0848  132.2150   63.3354 H   0  0  0  0  0  0  0  0  0  0  0  0
  129.5200  130.6052   62.8318 H   0  0  0  0  0  0  0  0  0  0  0  0
  131.7245  130.6764   62.2185 H   0  0  0  0  0  0  0  0  0  0  0  0
  128.9495  129.6783   59.9592 H   0  0  0  0  0  0  0  0  0  0  0  0
  127.4347  130.5981   59.8850 H   0  0  0  0  0  0  0  0  0  0  0  0
  129.1545  129.7624   57.6615 H   0  0  0  0  0  0  0  0  0  0  0  0
  127.6271  130.6358   57.5391 H   0  0  0  0  0  0  0  0  0  0  0  0
  129.1793  132.3569   56.7444 H   0  0  0  0  0  0  0  0  0  0  0  0
  129.5812  133.7162   59.0167 H   0  0  0  0  0  0  0  0  0  0  0  0
  127.9357  133.1755   58.8836 H   0  0  0  0  0  0  0  0  0  0  0  0
  131.8509  133.6035   58.4068 H   0  0  0  0  0  0  0  0  0  0  0  0
  132.5738  133.0325   56.8647 H   0  0  0  0  0  0  0  0  0  0  0  0
  130.9519  133.8045   56.8647 H   0  0  0  0  0  0  0  0  0  0  0  0
  131.7425  129.9193   56.7393 H   0  0  0  0  0  0  0  0  0  0  0  0
  130.4380  130.7106   55.7913 H   0  0  0  0  0  0  0  0  0  0  0  0
  132.0952  131.4037   55.7913 H   0  0  0  0  0  0  0  0  0  0  0  0
  133.4079  131.2237   60.1398 H   0  0  0  0  0  0  0  0  0  0  0  0
  133.5747  130.3347   58.5879 H   0  0  0  0  0  0  0  0  0  0  0  0
  133.4544  132.1270   58.5879 H   0  0  0  0  0  0  0  0  0  0  0  0
  132.1630  129.2990   59.4180 H   0  0  0  0  0  0  0  0  0  0  0  0
  1  2  1  0
  2  3  1  0
  3  4  1  0
  4  5  1  0
  6  5  1  6
  6  7  1  0
  7  8  1  6
  8  9  1  0
  9 10  1  0
 10 11  1  0
 10 12  1  0
 12 13  1  0
 12 14  1  0
 12 15  1  0
 15 16  1  0
 15 17  1  6
  7  2  1  0
  6  4  1  0
 11  7  1  0
 15  6  1  0
  1 18  1  0
  1 19  1  0
  1 20  1  0
  2 21  1  1
  3 22  1  0
  3 23  1  0
  4 24  1  6
  8 25  1  0
  8 26  1  0
  9 27  1  0
  9 28  1  0
 10 29  1  6
 11 30  1  0
 11 31  1  0
 13 32  1  0
 13 33  1  0
 13 34  1  0
 14 35  1  0
 14 36  1  0
 14 37  1  0
 16 38  1  0
 16 39  1  0
 16 40  1  0
 17 41  1  0
M  END
>  <Binding energies>  (1) 
[-6.02]

>  <Ligand effiencies>  (1) 
[-0.33444444444444443]

>  <Interactions>  (1) 
["V-A:PRO:540:CG:4886, H-A:ALA:541:N:4891, V-A:PRO:540:C:4881, V-A:ILE:538:CB:4862, V-A:ASP:366:CG:3213, V-A:LEU:363:CD1:3189, V-A:TYR:539:CD1:4873, V-A:TYR:531:CE2:4793, V-A:ALA:541:CB:4892, V-A:GLU:543:CD:4908, V-A:GLU:543:CG:4907, V-A:TYR:531:CZ:4794, V-A:MET:535:CE:4835, V-A:TYR:539:C:4867, V-A:ASP:366:CB:3212, V-A:PRO:540:N:4884, V-A:PRO:540:CB:4885, V-A:PRO:540:CA:4883, V-A:LEU:363:CA:3185, H-A:ASP:366:OD2:3215, V-A:PRO:540:CD:4887"]

$$$$
ZINC2356345854
     RDKit          3D

 75 78  0  0  0  0  0  0  0  0999 V2000
  126.1830  127.5100   59.1790 C   0  0  0  0  0  0  0  0  0  0  0  0
  126.3920  126.1370   58.8590 O   0  0  0  0  0  0  0  0  0  0  0  0
  127.2510  125.3580   59.6240 C   0  0  0  0  0  0  0  0  0  0  0  0
  126.7940  124.6080   60.7100 C   0  0  0  0  0  0  0  0  0  0  0  0
  127.6600  123.8590   61.4900 C   0  0  0  0  0  0  0  0  0  0  0  0
  127.0990  123.1590   62.5290 O   0  0  0  0  0  0  0  0  0  0  0  0
  129.0380  123.8150   61.2140 C   0  0  0  0  0  0  0  0  0  0  0  0
  129.9370  122.9740   62.1750 C   0  0  2  0  0  0  0  0  0  0  0  0
  130.4810  123.7340   63.3890 C   0  0  0  0  0  0  0  0  0  0  0  0
  129.8770  123.9340   64.5750 C   0  0  0  0  0  0  0  0  0  0  0  0
  130.4950  124.6990   65.7340 C   0  0  0  0  0  0  0  0  0  0  0  0
  129.4800  125.1280   66.8150 C   0  0  1  0  0  0  0  0  0  0  0  0
  129.8750  124.6090   68.0730 O   0  0  0  0  0  0  0  0  0  0  0  0
  129.3370  126.6660   66.9100 C   0  0  0  0  0  0  0  0  0  0  0  0
  128.3690  127.1730   68.0030 C   0  0  0  0  0  0  0  0  0  0  0  0
  129.0390  127.4170   69.3490 C   0  0  0  0  0  0  0  0  0  0  0  0
  128.3150  127.2510   70.5320 C   0  0  0  0  0  0  0  0  0  0  0  0
  128.9280  127.4840   71.7610 C   0  0  0  0  0  0  0  0  0  0  0  0
  130.2650  127.8760   71.8030 C   0  0  0  0  0  0  0  0  0  0  0  0
  130.8680  128.1050   73.0110 O   0  0  0  0  0  0  0  0  0  0  0  0
  130.9930  128.0380   70.6250 C   0  0  0  0  0  0  0  0  0  0  0  0
  130.3800  127.8090   69.3970 C   0  0  0  0  0  0  0  0  0  0  0  0
  130.9160  122.0540   61.4240 C   0  0  0  0  0  0  0  0  0  0  0  0
  132.1510  122.5260   60.9620 C   0  0  0  0  0  0  0  0  0  0  0  0
  133.0190  121.6780   60.2800 C   0  0  0  0  0  0  0  0  0  0  0  0
  132.6570  120.3510   60.0570 C   0  0  0  0  0  0  0  0  0  0  0  0
  133.5090  119.5170   59.3860 O   0  0  0  0  0  0  0  0  0  0  0  0
  131.4320  119.8680   60.5150 C   0  0  0  0  0  0  0  0  0  0  0  0
  130.5670  120.7170   61.1980 C   0  0  0  0  0  0  0  0  0  0  0  0
  129.5220  124.5480   60.0920 C   0  0  0  0  0  0  0  0  0  0  0  0
  130.7650  124.4600   59.7750 O   0  0  0  0  0  0  0  0  0  0  0  0
  128.6270  125.3410   59.3060 C   0  0  0  0  0  0  0  0  0  0  0  0
  129.0620  126.1580   58.1010 C   0  0  0  0  0  0  0  0  0  0  0  0
  128.8900  125.7460   56.9500 O   0  0  0  0  0  0  0  0  0  0  0  0
  129.5450  127.5180   58.3520 C   0  0  0  0  0  0  0  0  0  0  0  0
  129.6680  128.4530   57.3830 C   0  0  0  0  0  0  0  0  0  0  0  0
  130.1720  129.8300   57.5620 C   0  0  0  0  0  0  0  0  0  0  0  0
  131.4910  130.0980   57.9550 C   0  0  0  0  0  0  0  0  0  0  0  0
  131.9220  131.4120   58.1190 C   0  0  0  0  0  0  0  0  0  0  0  0
  131.0370  132.4630   57.8940 C   0  0  0  0  0  0  0  0  0  0  0  0
  129.7240  132.2110   57.5060 C   0  0  0  0  0  0  0  0  0  0  0  0
  129.2930  130.8960   57.3410 C   0  0  0  0  0  0  0  0  0  0  0  0
  126.1643  127.6330   60.2719 H   0  0  0  0  0  0  0  0  0  0  0  0
  126.9996  128.1135   58.7560 H   0  0  0  0  0  0  0  0  0  0  0  0
  125.2238  127.8432   58.7560 H   0  0  0  0  0  0  0  0  0  0  0  0
  125.7209  124.6121   60.9518 H   0  0  0  0  0  0  0  0  0  0  0  0
  126.6070  123.7240   63.1280 H   0  0  0  0  0  0  0  0  0  0  0  0
  129.2632  122.2656   62.6792 H   0  0  0  0  0  0  0  0  0  0  0  0
  131.4856  124.1682   63.2780 H   0  0  0  0  0  0  0  0  0  0  0  0
  128.8691  123.5161   64.7149 H   0  0  0  0  0  0  0  0  0  0  0  0
  131.2534  124.0576   66.2066 H   0  0  0  0  0  0  0  0  0  0  0  0
  130.9225  125.6217   65.3146 H   0  0  0  0  0  0  0  0  0  0  0  0
  128.4995  124.7218   66.5258 H   0  0  0  0  0  0  0  0  0  0  0  0
  129.1110  124.6050   68.6550 H   0  0  0  0  0  0  0  0  0  0  0  0
  130.3320  127.0878   67.1150 H   0  0  0  0  0  0  0  0  0  0  0  0
  128.9095  126.9916   65.9502 H   0  0  0  0  0  0  0  0  0  0  0  0
  127.9231  128.1185   67.6606 H   0  0  0  0  0  0  0  0  0  0  0  0
  127.6166  126.3854   68.1565 H   0  0  0  0  0  0  0  0  0  0  0  0
  127.2616  126.9365   70.4931 H   0  0  0  0  0  0  0  0  0  0  0  0
  128.3594  127.3592   72.6943 H   0  0  0  0  0  0  0  0  0  0  0  0
  131.7830  127.8190   73.0310 H   0  0  0  0  0  0  0  0  0  0  0  0
  132.0483  128.3458   70.6662 H   0  0  0  0  0  0  0  0  0  0  0  0
  130.9501  127.9363   68.4649 H   0  0  0  0  0  0  0  0  0  0  0  0
  132.4368  123.5733   61.1392 H   0  0  0  0  0  0  0  0  0  0  0  0
  133.9874  122.0541   59.9183 H   0  0  0  0  0  0  0  0  0  0  0  0
  133.5840  119.7320   58.4530 H   0  0  0  0  0  0  0  0  0  0  0  0
  131.1505  118.8196   60.3370 H   0  0  0  0  0  0  0  0  0  0  0  0
  129.6021  120.3352   61.5630 H   0  0  0  0  0  0  0  0  0  0  0  0
  129.8216  127.7924   59.3807 H   0  0  0  0  0  0  0  0  0  0  0  0
  129.3645  128.1611   56.3668 H   0  0  0  0  0  0  0  0  0  0  0  0
  132.1885  129.2666   58.1346 H   0  0  0  0  0  0  0  0  0  0  0  0
  132.9581  131.6189   58.4252 H   0  0  0  0  0  0  0  0  0  0  0  0
  131.3780  133.5007   58.0238 H   0  0  0  0  0  0  0  0  0  0  0  0
  129.0298  133.0461   57.3304 H   0  0  0  0  0  0  0  0  0  0  0  0
  128.2557  130.6949   57.0352 H   0  0  0  0  0  0  0  0  0  0  0  0
  1  2  1  0
  2  3  1  0
  3  4  2  0
  4  5  1  0
  5  6  1  0
  5  7  2  0
  7  8  1  0
  8  9  1  0
  9 10  2  0
 10 11  1  0
 11 12  1  0
 12 13  1  0
 12 14  1  0
 14 15  1  0
 15 16  1  0
 16 17  2  0
 17 18  1  0
 18 19  2  0
 19 20  1  0
 19 21  1  0
 21 22  2  0
  8 23  1  0
 23 24  2  0
 24 25  1  0
 25 26  2  0
 26 27  1  0
 26 28  1  0
 28 29  2  0
  7 30  1  0
 30 31  1  0
 30 32  2  0
 32 33  1  0
 33 34  2  0
 33 35  1  0
 35 36  2  0
 36 37  1  0
 37 38  2  0
 38 39  1  0
 39 40  2  0
 40 41  1  0
 41 42  2  0
 32  3  1  0
 42 37  1  0
 22 16  1  0
 29 23  1  0
  1 43  1  0
  1 44  1  0
  1 45  1  0
  4 46  1  0
  6 47  1  0
  8 48  1  1
  9 49  1  0
 10 50  1  0
 11 51  1  0
 11 52  1  0
 12 53  1  6
 13 54  1  0
 14 55  1  0
 14 56  1  0
 15 57  1  0
 15 58  1  0
 17 59  1  0
 18 60  1  0
 20 61  1  0
 21 62  1  0
 22 63  1  0
 24 64  1  0
 25 65  1  0
 27 66  1  0
 28 67  1  0
 29 68  1  0
 35 69  1  0
 36 70  1  0
 38 71  1  0
 39 72  1  0
 40 73  1  0
 41 74  1  0
 42 75  1  0
M  CHG  1  31  -1
M  END
>  <Binding energies>  (1) 
[-8.39]

>  <Ligand effiencies>  (1) 
[-0.1823913043478261]

>  <Interactions>  (1) 
["V-A:ILE:369:CG2:3237, H-B:GLU:543:O:9875, V-A:GLU:543:C:4902, V-B:GLU:543:CB:9878, V-B:ASP:366:CG:8184, V-B:TYR:539:CE2:9848, V-A:TYR:484:CE2:4346, H-B:ALA:541:O:9861, V-B:GLU:543:CG:9879, V-A:GLY:544:C:4912, V-A:LEU:363:CD1:3189, H-B:GLU:543:OE1:9881, H-B:TYR:539:OH:9850, H-B:ALA:541:N:9863, V-A:TYR:484:CZ:4347, V-B:ASP:366:CB:8183, V-A:GLU:543:CD:4908, V-B:GLU:543:CA:9876, V-B:HIS:456:CE1:9041, V-A:HIS:456:CE1:4070, V-B:TYR:539:CD2:9846, V-A:SER:385:CB:3409, H-A:SER:385:OG:3410, V-B:GLU:543:CD:9880, V-A:MET:535:CE:4835, H-A:LYS:547:NZ:4951, V-A:LEU:475:CD2:4259, V-A:GLU:543:CB:4906, H-A:HIS:383:HE2:3395, V-A:PRO:540:N:4884, V-A:PRO:540:CB:4885, V-A:PRO:540:CA:4883, V-A:PRO:540:CD:4887, H-A:GLY:544:O:4913, H-A:HIS:456:NE2:4071, H-A:TYR:484:OH:4348"]

$$$$
ZINC2356346926
     RDKit          3D

 83 88  0  0  0  0  0  0  0  0999 V2000
  133.3000  122.4320   62.4830 C   0  0  0  0  0  0  0  0  0  0  0  0
  133.0400  123.2840   61.2590 C   0  0  0  0  0  0  0  0  0  0  0  0
  133.7220  123.2280   60.0990 C   0  0  0  0  0  0  0  0  0  0  0  0
  133.4010  124.0930   58.9690 C   0  0  0  0  0  0  0  0  0  0  0  0
  134.0210  124.0460   57.9070 O   0  0  0  0  0  0  0  0  0  0  0  0
  132.2520  125.0390   59.2330 C   0  0  0  0  0  0  0  0  0  0  0  0
  131.7680  125.9670   58.2820 C   0  0  0  0  0  0  0  0  0  0  0  0
  132.3400  126.0690   57.0350 O   0  0  0  0  0  0  0  0  0  0  0  0
  130.6960  126.8290   58.5800 C   0  0  0  0  0  0  0  0  0  0  0  0
  130.1050  126.7500   59.8530 C   0  0  0  0  0  0  0  0  0  0  0  0
  130.5610  125.8420   60.7990 C   0  0  0  0  0  0  0  0  0  0  0  0
  131.6230  125.0010   60.4920 C   0  0  0  0  0  0  0  0  0  0  0  0
  132.0090  124.1330   61.4950 O   0  0  0  0  0  0  0  0  0  0  0  0
  128.9970  127.4850   60.2380 O   0  0  0  0  0  0  0  0  0  0  0  0
  128.7000  128.6870   59.5100 C   0  0  0  0  0  0  0  0  0  0  0  0
  127.2600  129.0650   59.9200 C   0  0  0  0  0  0  0  0  0  0  0  0
  129.7140  129.7840   59.9230 C   0  0  0  0  0  0  0  0  0  0  0  0
  128.7770  128.3890   57.9790 C   0  0  2  0  0  0  0  0  0  0  0  0
  127.7550  127.4630   57.5880 O   0  0  0  0  0  0  0  0  0  0  0  0
  127.4020  126.4040   58.3590 C   0  0  0  0  0  0  0  0  0  0  0  0
  126.5760  126.4240   59.2730 O   0  0  0  0  0  0  0  0  0  0  0  0
  128.1180  125.1040   57.9550 C   0  0  1  0  0  0  0  0  0  0  0  0
  128.8430  125.1370   56.5970 C   0  0  0  0  0  0  0  0  0  0  0  0
  128.7390  124.3340   58.9590 O   0  0  0  0  0  0  0  0  0  0  0  0
  127.5880  123.7600   58.3960 C   0  0  1  0  0  0  0  0  0  0  0  0
  126.3650  123.5990   59.3230 C   0  0  0  0  0  0  0  0  0  0  0  0
  126.5840  124.2470   60.7000 C   0  0  0  0  0  0  0  0  0  0  0  0
  127.7210  123.5990   61.4760 C   0  0  0  0  0  0  0  0  0  0  0  0
  128.1100  122.2860   61.1990 C   0  0  0  0  0  0  0  0  0  0  0  0
  129.1640  121.7320   61.9260 C   0  0  0  0  0  0  0  0  0  0  0  0
  129.5750  120.4270   61.6720 N   0  0  0  0  0  0  0  0  0  0  0  0
  129.8230  122.4190   62.8900 N   0  0  0  0  0  0  0  0  0  0  0  0
  129.4540  123.7030   63.1650 C   0  0  0  0  0  0  0  0  0  0  0  0
  130.2180  124.4050   64.2480 C   0  0  0  0  0  0  0  0  0  0  0  0
  131.6200  124.3350   64.3220 C   0  0  0  0  0  0  0  0  0  0  0  0
  132.2960  125.0000   65.3460 C   0  0  0  0  0  0  0  0  0  0  0  0
  133.6840  124.9360   65.4250 N   0  0  0  0  0  0  0  0  0  0  0  0
  131.6540  125.7240   66.2920 N   0  0  0  0  0  0  0  0  0  0  0  0
  130.2980  125.8050   66.2360 C   0  0  0  0  0  0  0  0  0  0  0  0
  129.6510  126.6520   67.3420 C   0  0  0  0  0  0  0  0  0  0  0  0
  129.1230  125.8480   68.5490 C   0  0  0  0  0  0  0  0  0  0  0  0
  128.5610  127.5870   66.7810 C   0  0  0  0  0  0  0  0  0  0  0  0
  129.5590  125.1630   65.2310 C   0  0  0  0  0  0  0  0  0  0  0  0
  128.3970  124.3140   62.4700 C   0  0  0  0  0  0  0  0  0  0  0  0
  130.1780  127.8670   57.5830 C   0  0  0  0  0  0  0  0  0  0  0  0
  133.1182  123.0277   63.3897 H   0  0  0  0  0  0  0  0  0  0  0  0
  132.6263  121.5625   62.4743 H   0  0  0  0  0  0  0  0  0  0  0  0
  134.3444  122.0868   62.4743 H   0  0  0  0  0  0  0  0  0  0  0  0
  134.5471  122.5073   60.0005 H   0  0  0  0  0  0  0  0  0  0  0  0
  133.2820  125.8860   57.0410 H   0  0  0  0  0  0  0  0  0  0  0  0
  130.0829  125.7887   61.7883 H   0  0  0  0  0  0  0  0  0  0  0  0
  127.1844  129.0848   61.0172 H   0  0  0  0  0  0  0  0  0  0  0  0
  127.0129  130.0584   59.5174 H   0  0  0  0  0  0  0  0  0  0  0  0
  126.5569  128.3210   59.5174 H   0  0  0  0  0  0  0  0  0  0  0  0
  129.7663  129.8406   61.0203 H   0  0  0  0  0  0  0  0  0  0  0  0
  130.7072  129.5354   59.5209 H   0  0  0  0  0  0  0  0  0  0  0  0
  129.3881  130.7546   59.5209 H   0  0  0  0  0  0  0  0  0  0  0  0
  128.6060  129.3332   57.4411 H   0  0  0  0  0  0  0  0  0  0  0  0
  129.9294  125.1864   56.7624 H   0  0  0  0  0  0  0  0  0  0  0  0
  128.5996  124.2268   56.0292 H   0  0  0  0  0  0  0  0  0  0  0  0
  128.5179  126.0213   56.0292 H   0  0  0  0  0  0  0  0  0  0  0  0
  127.2992  122.8476   57.8537 H   0  0  0  0  0  0  0  0  0  0  0  0
  125.4945  124.0716   58.8446 H   0  0  0  0  0  0  0  0  0  0  0  0
  126.2032  122.5225   59.4808 H   0  0  0  0  0  0  0  0  0  0  0  0
  126.8180  125.3120   60.5552 H   0  0  0  0  0  0  0  0  0  0  0  0
  125.6615  124.1107   61.2835 H   0  0  0  0  0  0  0  0  0  0  0  0
  127.5953  121.7005   60.4229 H   0  0  0  0  0  0  0  0  0  0  0  0
  130.1480  119.9430   62.3490 H   0  0  0  0  0  0  0  0  0  0  0  0
  129.2990  119.9820   60.8070 H   0  0  0  0  0  0  0  0  0  0  0  0
  132.1832  123.7572   63.5743 H   0  0  0  0  0  0  0  0  0  0  0  0
  134.1180  124.4820   66.2170 H   0  0  0  0  0  0  0  0  0  0  0  0
  134.2390  125.3340   64.6820 H   0  0  0  0  0  0  0  0  0  0  0  0
  130.4751  127.2635   67.7382 H   0  0  0  0  0  0  0  0  0  0  0  0
  129.4428  126.3349   69.4821 H   0  0  0  0  0  0  0  0  0  0  0  0
  128.0242  125.8110   68.5126 H   0  0  0  0  0  0  0  0  0  0  0  0
  129.5257  124.8250   68.5126 H   0  0  0  0  0  0  0  0  0  0  0  0
  128.0154  128.0551   67.6136 H   0  0  0  0  0  0  0  0  0  0  0  0
  129.0297  128.3682   66.1646 H   0  0  0  0  0  0  0  0  0  0  0  0
  127.8602  127.0048   66.1646 H   0  0  0  0  0  0  0  0  0  0  0  0
  128.4628  125.2530   65.2124 H   0  0  0  0  0  0  0  0  0  0  0  0
  128.1031  125.3474   62.7059 H   0  0  0  0  0  0  0  0  0  0  0  0
  130.1182  127.4055   56.5863 H   0  0  0  0  0  0  0  0  0  0  0  0
  130.8741  128.7188   57.5811 H   0  0  0  0  0  0  0  0  0  0  0  0
  1  2  1  0
  2  3  2  0
  3  4  1  0
  4  5  2  0
  4  6  1  0
  6  7  2  0
  7  8  1  0
  7  9  1  0
  9 10  2  0
 10 11  1  0
 11 12  2  0
 12 13  1  0
 10 14  1  0
 14 15  1  0
 15 16  1  0
 15 17  1  0
 15 18  1  0
 18 19  1  0
 19 20  1  0
 20 21  2  0
 20 22  1  0
 22 23  1  6
 22 24  1  0
 24 25  1  0
 25 26  1  0
 26 27  1  0
 27 28  1  0
 28 29  2  0
 29 30  1  0
 30 31  1  0
 30 32  2  0
 32 33  1  0
 33 34  1  0
 34 35  2  0
 35 36  1  0
 36 37  1  0
 36 38  2  0
 38 39  1  0
 39 40  1  0
 40 41  1  0
 40 42  1  0
 39 43  2  0
 33 44  2  0
 18 45  1  0
 13  2  1  0
 25 22  1  0
 44 28  1  0
 12  6  1  0
 43 34  1  0
 45  9  1  0
  1 46  1  0
  1 47  1  0
  1 48  1  0
  3 49  1  0
  8 50  1  0
 11 51  1  0
 16 52  1  0
 16 53  1  0
 16 54  1  0
 17 55  1  0
 17 56  1  0
 17 57  1  0
 18 58  1  6
 23 59  1  0
 23 60  1  0
 23 61  1  0
 25 62  1  6
 26 63  1  0
 26 64  1  0
 27 65  1  0
 27 66  1  0
 29 67  1  0
 31 68  1  0
 31 69  1  0
 35 70  1  0
 37 71  1  0
 37 72  1  0
 40 73  1  0
 41 74  1  0
 41 75  1  0
 41 76  1  0
 42 77  1  0
 42 78  1  0
 42 79  1  0
 43 80  1  0
 44 81  1  0
 45 82  1  0
 45 83  1  0
M  END
>  <Binding energies>  (1) 
[-7.12]

>  <Ligand effiencies>  (1) 
[-0.1424]

>  <Interactions>  (1) 
["V-A:ILE:369:CG2:3237, V-A:ASP:366:CA:3210, V-B:PRO:540:CA:9855, V-A:GLY:454:CA:4049, V-B:GLU:543:C:9874, V-A:ILE:369:CB:3236, V-B:GLU:543:CB:9878, V-B:ALA:541:CB:9864, H-A:TYR:531:OH:4795, V-B:TYR:539:CE2:9848, V-B:GLU:543:CG:9879, V-A:ASP:366:CG:3213, V-B:TYR:539:CZ:9849, H-A:ASN:370:N:3244, H-B:TYR:539:OH:9850, V-A:TYR:484:CZ:4347, V-B:PRO:540:CB:9857, V-A:GLU:543:CD:4908, V-B:GLU:543:CA:9876, V-A:ILE:369:CD1:3239, V-A:HIS:456:CE1:4070, V-B:GLU:543:CD:9880, H-B:TYR:531:OH:9767, V-A:ASP:366:CB:3212, V-A:LEU:475:CD2:4259, V-A:ARG:545:CD:4923, V-A:ARG:545:CZ:4926, H-A:ASP:366:O:3209, H-B:TYR:539:O:9840, H-A:ARG:545:NE:4924, V-B:PRO:540:C:9853, H-A:TYR:484:OH:4348"]

$$$$
ZINC2356350018
     RDKit          3D

 69 74  0  0  0  0  0  0  0  0999 V2000
  126.2810  122.8750   57.5750 C   0  0  0  0  0  0  0  0  0  0  0  0
  127.6720  122.6620   58.1860 C   0  0  0  0  0  0  0  0  0  0  0  0
  127.7690  123.1590   59.6390 C   0  0  0  0  0  0  0  0  0  0  0  0
  129.1780  123.5520   60.0460 C   0  0  0  0  0  0  0  0  0  0  0  0
  130.1310  122.7140   60.4950 C   0  0  0  0  0  0  0  0  0  0  0  0
  129.9070  121.3710   60.6130 O   0  0  0  0  0  0  0  0  0  0  0  0
  131.0230  120.6450   60.8880 C   0  0  0  0  0  0  0  0  0  0  0  0
  131.0840  119.4190   60.9690 O   0  0  0  0  0  0  0  0  0  0  0  0
  132.0710  121.6010   61.0590 C   0  0  0  0  0  0  0  0  0  0  0  0
  133.3870  121.4470   61.3240 C   0  0  0  0  0  0  0  0  0  0  0  0
  134.1470  122.7780   61.5020 C   0  0  1  0  0  0  0  0  0  0  0  0
  133.9660  123.5360   60.1420 C   0  0  0  0  0  0  0  0  0  0  0  0
  132.4450  123.6320   59.7510 C   0  0  0  0  0  0  0  0  0  0  0  0
  131.5660  123.0020   60.8900 C   0  0  1  0  0  0  0  0  0  0  0  0
  131.9110  123.8590   62.1730 C   0  0  1  0  0  0  0  0  0  0  0  0
  131.0830  123.9980   63.4580 C   0  0  0  0  0  0  0  0  0  0  0  0
  131.6190  124.5930   64.5460 C   0  0  0  0  0  0  0  0  0  0  0  0
  133.0810  125.0870   64.6220 C   0  0  0  0  0  0  0  0  0  0  0  0
  133.9250  124.7450   63.3510 C   0  0  0  0  0  0  0  0  0  0  0  0
  133.3620  123.4940   62.6560 C   0  0  2  0  0  0  0  0  0  0  0  0
  130.5890  124.6090   65.5500 C   0  0  0  0  0  0  0  0  0  0  0  0
  130.6320  125.0940   66.8050 C   0  0  0  0  0  0  0  0  0  0  0  0
  129.4890  125.0750   67.8040 C   0  0  0  0  0  0  0  0  0  0  0  0
  129.0810  126.4860   68.2670 C   0  0  0  0  0  0  0  0  0  0  0  0
  129.2370  126.7430   69.7850 C   0  0  0  0  0  0  0  0  0  0  0  0
  130.1840  127.9370   70.0510 C   0  0  0  0  0  0  0  0  0  0  0  0
  130.4240  128.1450   71.5600 C   0  0  0  0  0  0  0  0  0  0  0  0
  129.0970  128.3300   72.3250 C   0  0  0  0  0  0  0  0  0  0  0  0
  128.0790  127.2100   72.0140 C   0  0  0  0  0  0  0  0  0  0  0  0
  127.8880  127.0200   70.4960 C   0  0  0  0  0  0  0  0  0  0  0  0
  129.4840  124.0330   65.0530 O   0  0  0  0  0  0  0  0  0  0  0  0
  129.7170  123.6130   63.7990 C   0  0  0  0  0  0  0  0  0  0  0  0
  128.8950  123.0020   63.1210 O   0  0  0  0  0  0  0  0  0  0  0  0
  125.5403  122.9884   58.3803 H   0  0  0  0  0  0  0  0  0  0  0  0
  126.2886  123.7824   56.9533 H   0  0  0  0  0  0  0  0  0  0  0  0
  126.0167  122.0069   56.9533 H   0  0  0  0  0  0  0  0  0  0  0  0
  127.9033  121.5868   58.1664 H   0  0  0  0  0  0  0  0  0  0  0  0
  128.3883  123.2451   57.5886 H   0  0  0  0  0  0  0  0  0  0  0  0
  127.1152  124.0363   59.7524 H   0  0  0  0  0  0  0  0  0  0  0  0
  127.4619  122.3267   60.2894 H   0  0  0  0  0  0  0  0  0  0  0  0
  129.4437  124.6165   59.9669 H   0  0  0  0  0  0  0  0  0  0  0  0
  133.8720  120.4631   61.4054 H   0  0  0  0  0  0  0  0  0  0  0  0
  135.2181  122.7032   61.7410 H   0  0  0  0  0  0  0  0  0  0  0  0
  134.3780  124.5514   60.2380 H   0  0  0  0  0  0  0  0  0  0  0  0
  134.4966  122.9789   59.3558 H   0  0  0  0  0  0  0  0  0  0  0  0
  132.1677  124.6880   59.6166 H   0  0  0  0  0  0  0  0  0  0  0  0
  132.2742  123.0835   58.8129 H   0  0  0  0  0  0  0  0  0  0  0  0
  131.6774  124.8255   61.7025 H   0  0  0  0  0  0  0  0  0  0  0  0
  133.0726  126.1795   64.7500 H   0  0  0  0  0  0  0  0  0  0  0  0
  133.5523  124.5695   65.4706 H   0  0  0  0  0  0  0  0  0  0  0  0
  133.8900  125.5944   62.6530 H   0  0  0  0  0  0  0  0  0  0  0  0
  134.9640  124.5484   63.6541 H   0  0  0  0  0  0  0  0  0  0  0  0
  133.4361  122.7191   63.4332 H   0  0  0  0  0  0  0  0  0  0  0  0
  131.5795  125.5441   67.1361 H   0  0  0  0  0  0  0  0  0  0  0  0
  128.6188  124.5935   67.3340 H   0  0  0  0  0  0  0  0  0  0  0  0
  129.8314  124.5205   68.6902 H   0  0  0  0  0  0  0  0  0  0  0  0
  129.7055  127.2157   67.7307 H   0  0  0  0  0  0  0  0  0  0  0  0
  128.0082  126.5857   68.0454 H   0  0  0  0  0  0  0  0  0  0  0  0
  129.6612  125.8163   70.1988 H   0  0  0  0  0  0  0  0  0  0  0  0
  131.1488  127.7440   69.5592 H   0  0  0  0  0  0  0  0  0  0  0  0
  129.7133  128.8461   69.6486 H   0  0  0  0  0  0  0  0  0  0  0  0
  130.9488  127.2661   71.9626 H   0  0  0  0  0  0  0  0  0  0  0  0
  131.0267  129.0559   71.6906 H   0  0  0  0  0  0  0  0  0  0  0  0
  129.3078  128.3265   73.4046 H   0  0  0  0  0  0  0  0  0  0  0  0
  128.6546  129.2849   72.0048 H   0  0  0  0  0  0  0  0  0  0  0  0
  128.4423  126.2670   72.4486 H   0  0  0  0  0  0  0  0  0  0  0  0
  127.1100  127.4963   72.4488 H   0  0  0  0  0  0  0  0  0  0  0  0
  127.2120  126.1694   70.3243 H   0  0  0  0  0  0  0  0  0  0  0  0
  127.4634  127.9467   70.0825 H   0  0  0  0  0  0  0  0  0  0  0  0
  1  2  1  0
  2  3  1  0
  3  4  1  0
  4  5  2  0
  5  6  1  0
  6  7  1  0
  7  8  2  0
  7  9  1  0
  9 10  2  0
 10 11  1  0
 11 12  1  0
 12 13  1  0
 13 14  1  0
 14 15  1  0
 15 16  1  0
 16 17  2  0
 17 18  1  0
 18 19  1  0
 19 20  1  0
 17 21  1  0
 21 22  2  0
 22 23  1  0
 23 24  1  0
 24 25  1  0
 25 26  1  0
 26 27  1  0
 27 28  1  0
 28 29  1  0
 29 30  1  0
 21 31  1  0
 31 32  1  0
 32 33  2  0
 14  5  1  6
 20 15  1  0
 30 25  1  0
 14  9  1  0
 32 16  1  0
 20 11  1  0
  1 34  1  0
  1 35  1  0
  1 36  1  0
  2 37  1  0
  2 38  1  0
  3 39  1  0
  3 40  1  0
  4 41  1  0
 10 42  1  0
 11 43  1  1
 12 44  1  0
 12 45  1  0
 13 46  1  0
 13 47  1  0
 15 48  1  6
 18 49  1  0
 18 50  1  0
 19 51  1  0
 19 52  1  0
 20 53  1  1
 22 54  1  0
 23 55  1  0
 23 56  1  0
 24 57  1  0
 24 58  1  0
 25 59  1  0
 26 60  1  0
 26 61  1  0
 27 62  1  0
 27 63  1  0
 28 64  1  0
 28 65  1  0
 29 66  1  0
 29 67  1  0
 30 68  1  0
 30 69  1  0
M  END
>  <Binding energies>  (1) 
[-11.11]

>  <Ligand effiencies>  (1) 
[-0.33666666666666667]

>  <Interactions>  (1) 
["V-A:ILE:369:CG2:3237, V-B:PRO:540:CA:9855, V-B:GLU:543:C:9874, V-A:ILE:369:CB:3236, V-A:GLU:543:C:4902, V-B:HIS:456:CD2:9039, V-B:GLU:543:CB:9878, V-B:TYR:539:CE2:9848, V-A:TYR:484:CE2:4346, V-B:GLU:543:CG:9879, V-A:GLY:544:C:4912, V-B:TYR:539:C:9839, V-B:TYR:539:CZ:9849, V-A:TYR:484:CZ:4347, V-B:PRO:540:CB:9857, V-B:GLU:543:CA:9876, V-B:HIS:456:CE1:9041, V-A:GLY:453:C:4042, V-B:PRO:540:N:9856, V-A:ILE:369:CD1:3239, V-A:HIS:456:CE1:4070, V-B:TYR:539:CD2:9846, V-B:PRO:540:CD:9859, H-A:SER:385:OG:3410, V-A:LEU:475:CD2:4259, V-A:ARG:545:CZ:4926, V-B:TYR:539:CG:9844, V-A:GLU:543:CB:4906, V-A:GLY:453:CA:4044"]

$$$$
ZINC2356350160
     RDKit          3D

103109  0  0  0  0  0  0  0  0999 V2000
  134.1410  124.6900   60.1630 C   0  0  0  0  0  0  0  0  0  0  0  0
  133.0710  124.4800   59.0990 C   0  0  0  0  0  0  0  0  0  0  0  0
  133.1980  124.9400   57.9630 O   0  0  0  0  0  0  0  0  0  0  0  0
  132.0240  123.7580   59.5600 O   0  0  0  0  0  0  0  0  0  0  0  0
  130.9010  124.3850   60.1780 C   0  0  2  0  0  0  0  0  0  0  0  0
  130.9180  124.1230   61.6940 C   0  0  0  0  0  0  0  0  0  0  0  0
  129.6850  124.7750   62.3640 C   0  0  2  0  0  0  0  0  0  0  0  0
  129.6360  124.4940   63.8640 C   0  0  0  0  0  0  0  0  0  0  0  0
  129.2200  123.2500   64.3490 C   0  0  0  0  0  0  0  0  0  0  0  0
  129.1760  123.0060   65.7210 C   0  0  0  0  0  0  0  0  0  0  0  0
  128.7560  121.7770   66.1660 O   0  0  0  0  0  0  0  0  0  0  0  0
  129.5580  124.0070   66.6240 C   0  0  0  0  0  0  0  0  0  0  0  0
  129.5130  123.7610   67.9750 O   0  0  0  0  0  0  0  0  0  0  0  0
  129.9870  125.2580   66.1570 C   0  0  0  0  0  0  0  0  0  0  0  0
  130.3550  126.2020   67.1010 O   0  0  0  0  0  0  0  0  0  0  0  0
  129.3650  127.0530   67.6730 C   0  0  0  0  0  0  0  0  0  0  0  0
  130.0460  127.9940   68.6760 C   0  0  0  0  0  0  0  0  0  0  0  0
  129.5720  127.7730   70.1040 C   0  0  0  0  0  0  0  0  0  0  0  0
  128.3450  127.1510   70.3650 C   0  0  0  0  0  0  0  0  0  0  0  0
  127.9380  126.9580   71.6870 C   0  0  0  0  0  0  0  0  0  0  0  0
  128.7760  127.3960   72.7140 C   0  0  0  0  0  0  0  0  0  0  0  0
  129.9690  128.0010   72.4830 N   0  0  0  0  0  0  0  0  0  0  0  0
  130.3500  128.1810   71.1930 C   0  0  0  0  0  0  0  0  0  0  0  0
  130.0200  125.4870   64.7710 C   0  0  0  0  0  0  0  0  0  0  0  0
  128.4950  124.3160   61.7060 O   0  0  0  0  0  0  0  0  0  0  0  0
  128.3730  124.6060   60.3050 C   0  0  1  0  0  0  0  0  0  0  0  0
  128.1830  126.1290   60.0120 C   0  0  2  0  0  0  0  0  0  0  0  0
  129.3710  126.9670   60.5610 C   0  0  0  0  0  0  0  0  0  0  0  0
  129.5610  128.6590   59.9240 S   0  0  0  0  0  0  0  0  0  0  0  0
  131.1770  129.3750   60.9490 S   0  0  0  0  0  0  0  0  0  0  0  0
  131.0090  131.2080   61.0670 C   0  0  0  0  0  0  0  0  0  0  0  0
  131.6150  131.8160   59.7610 C   0  0  0  0  0  0  0  0  0  0  0  0
  133.1070  131.4590   59.5440 C   0  0  0  0  0  0  0  0  0  0  0  0
  133.9750  131.8420   60.7630 C   0  0  0  0  0  0  0  0  0  0  0  0
  133.3980  131.3270   62.0990 C   0  0  0  0  0  0  0  0  0  0  0  0
  131.9060  131.7040   62.2480 C   0  0  0  0  0  0  0  0  0  0  0  0
  129.5200  131.6560   61.2820 C   0  0  1  0  0  0  0  0  0  0  0  0
  129.3150  133.0500   61.9710 C   0  0  0  0  0  0  0  0  0  0  0  0
  127.9320  133.7230   61.8440 C   0  0  0  0  0  0  0  0  0  0  0  0
  127.3080  133.5220   60.4570 C   0  0  0  0  0  0  0  0  0  0  0  0
  127.1480  132.0240   60.1680 C   0  0  1  0  0  0  0  0  0  0  0  0
  128.5420  131.3480   60.1030 C   0  0  0  0  0  0  0  0  0  0  0  0
  126.2620  131.4930   61.1600 O   0  0  0  0  0  0  0  0  0  0  0  0
  126.5930  130.2740   61.6980 C   0  0  0  0  0  0  0  0  0  0  0  0
  126.5970  129.1500   60.8710 C   0  0  0  0  0  0  0  0  0  0  0  0
  126.9070  127.8900   61.3840 C   0  0  0  0  0  0  0  0  0  0  0  0
  127.2670  127.7650   62.7300 C   0  0  0  0  0  0  0  0  0  0  0  0
  127.2990  128.8890   63.5550 C   0  0  0  0  0  0  0  0  0  0  0  0
  126.9620  130.1450   63.0440 C   0  0  0  0  0  0  0  0  0  0  0  0
  126.9960  131.2380   63.8710 O   0  0  0  0  0  0  0  0  0  0  0  0
  126.8040  126.6620   60.4910 C   0  0  0  0  0  0  0  0  0  0  0  0
  129.5560  123.9050   59.5910 C   0  0  0  0  0  0  0  0  0  0  0  0
  133.6878  124.6011   61.1613 H   0  0  0  0  0  0  0  0  0  0  0  0
  134.9269  123.9290   60.0479 H   0  0  0  0  0  0  0  0  0  0  0  0
  134.5809  125.6916   60.0479 H   0  0  0  0  0  0  0  0  0  0  0  0
  130.9866  125.4630   59.9765 H   0  0  0  0  0  0  0  0  0  0  0  0
  130.8986  123.0382   61.8753 H   0  0  0  0  0  0  0  0  0  0  0  0
  131.8319  124.5597   62.1230 H   0  0  0  0  0  0  0  0  0  0  0  0
  129.7610  125.8671   62.2567 H   0  0  0  0  0  0  0  0  0  0  0  0
  128.9256  122.4590   63.6435 H   0  0  0  0  0  0  0  0  0  0  0  0
  128.7570  121.7030   67.1230 H   0  0  0  0  0  0  0  0  0  0  0  0
  129.6620  124.5520   68.4990 H   0  0  0  0  0  0  0  0  0  0  0  0
  128.8817  127.6434   66.8807 H   0  0  0  0  0  0  0  0  0  0  0  0
  128.6012  126.4489   68.1845 H   0  0  0  0  0  0  0  0  0  0  0  0
  131.1321  127.8247   68.6357 H   0  0  0  0  0  0  0  0  0  0  0  0
  129.7839  129.0247   68.3950 H   0  0  0  0  0  0  0  0  0  0  0  0
  127.7059  126.8166   69.5345 H   0  0  0  0  0  0  0  0  0  0  0  0
  126.9780  126.4714   71.9141 H   0  0  0  0  0  0  0  0  0  0  0  0
  128.4557  127.2443   73.7554 H   0  0  0  0  0  0  0  0  0  0  0  0
  131.3150  128.6702   70.9944 H   0  0  0  0  0  0  0  0  0  0  0  0
  130.3537  126.4645   64.3927 H   0  0  0  0  0  0  0  0  0  0  0  0
  127.4423  124.1959   59.8859 H   0  0  0  0  0  0  0  0  0  0  0  0
  128.1846  126.2481   58.9185 H   0  0  0  0  0  0  0  0  0  0  0  0
  129.2504  127.0361   61.6522 H   0  0  0  0  0  0  0  0  0  0  0  0
  130.2725  126.4348   60.2233 H   0  0  0  0  0  0  0  0  0  0  0  0
  131.0391  131.4397   58.9026 H   0  0  0  0  0  0  0  0  0  0  0  0
  131.5562  132.9102   59.8574 H   0  0  0  0  0  0  0  0  0  0  0  0
  133.1921  130.3757   59.3733 H   0  0  0  0  0  0  0  0  0  0  0  0
  133.4703  132.0275   58.6752 H   0  0  0  0  0  0  0  0  0  0  0  0
  134.9792  131.4143   60.6267 H   0  0  0  0  0  0  0  0  0  0  0  0
  134.0008  132.9404   60.8169 H   0  0  0  0  0  0  0  0  0  0  0  0
  133.4962  130.2319   62.1335 H   0  0  0  0  0  0  0  0  0  0  0  0
  133.9583  131.7937   62.9225 H   0  0  0  0  0  0  0  0  0  0  0  0
  131.5277  131.2606   63.1809 H   0  0  0  0  0  0  0  0  0  0  0  0
  131.8519  132.8027   62.2520 H   0  0  0  0  0  0  0  0  0  0  0  0
  129.1888  130.9550   62.0623 H   0  0  0  0  0  0  0  0  0  0  0  0
  129.5174  132.9177   63.0441 H   0  0  0  0  0  0  0  0  0  0  0  0
  129.9997  133.7248   61.4364 H   0  0  0  0  0  0  0  0  0  0  0  0
  127.2589  133.2921   62.5998 H   0  0  0  0  0  0  0  0  0  0  0  0
  128.0701  134.8037   61.9958 H   0  0  0  0  0  0  0  0  0  0  0  0
  126.3209  134.0065   60.4276 H   0  0  0  0  0  0  0  0  0  0  0  0
  127.9648  133.9692   59.6964 H   0  0  0  0  0  0  0  0  0  0  0  0
  126.6972  131.8250   59.1845 H   0  0  0  0  0  0  0  0  0  0  0  0
  128.3850  130.2596   60.0743 H   0  0  0  0  0  0  0  0  0  0  0  0
  129.0259  131.7627   59.2064 H   0  0  0  0  0  0  0  0  0  0  0  0
  126.3533  129.2584   59.8038 H   0  0  0  0  0  0  0  0  0  0  0  0
  127.5256  126.7771   63.1389 H   0  0  0  0  0  0  0  0  0  0  0  0
  127.5903  128.7864   64.6108 H   0  0  0  0  0  0  0  0  0  0  0  0
  126.7310  132.0480   63.4300 H   0  0  0  0  0  0  0  0  0  0  0  0
  126.2979  125.8635   61.0534 H   0  0  0  0  0  0  0  0  0  0  0  0
  126.2417  126.9596   59.5937 H   0  0  0  0  0  0  0  0  0  0  0  0
  129.4686  122.8171   59.7281 H   0  0  0  0  0  0  0  0  0  0  0  0
  129.5249  124.1553   58.5203 H   0  0  0  0  0  0  0  0  0  0  0  0
  1  2  1  0
  2  3  2  0
  2  4  1  0
  4  5  1  0
  5  6  1  0
  6  7  1  0
  7  8  1  0
  8  9  2  0
  9 10  1  0
 10 11  1  0
 10 12  2  0
 12 13  1  0
 12 14  1  0
 14 15  1  0
 15 16  1  0
 16 17  1  0
 17 18  1  0
 18 19  2  0
 19 20  1  0
 20 21  2  0
 21 22  1  0
 22 23  2  0
 14 24  2  0
  7 25  1  0
 25 26  1  0
 26 27  1  0
 27 28  1  0
 28 29  1  0
 29 30  1  0
 30 31  1  0
 31 32  1  0
 32 33  1  0
 33 34  1  0
 34 35  1  0
 35 36  1  0
 31 37  1  0
 37 38  1  0
 38 39  1  0
 39 40  1  0
 40 41  1  0
 41 42  1  0
 41 43  1  0
 43 44  1  0
 44 45  1  0
 45 46  2  0
 46 47  1  0
 47 48  2  0
 48 49  1  0
 49 50  1  0
 46 51  1  0
 26 52  1  0
 52  5  1  0
 24  8  1  0
 51 27  1  0
 23 18  1  0
 36 31  1  0
 42 37  1  0
 49 44  2  0
  1 53  1  0
  1 54  1  0
  1 55  1  0
  5 56  1  1
  6 57  1  0
  6 58  1  0
  7 59  1  1
  9 60  1  0
 11 61  1  0
 13 62  1  0
 16 63  1  0
 16 64  1  0
 17 65  1  0
 17 66  1  0
 19 67  1  0
 20 68  1  0
 21 69  1  0
 23 70  1  0
 24 71  1  0
 26 72  1  6
 27 73  1  6
 28 74  1  0
 28 75  1  0
 32 76  1  0
 32 77  1  0
 33 78  1  0
 33 79  1  0
 34 80  1  0
 34 81  1  0
 35 82  1  0
 35 83  1  0
 36 84  1  0
 36 85  1  0
 37 86  1  1
 38 87  1  0
 38 88  1  0
 39 89  1  0
 39 90  1  0
 40 91  1  0
 40 92  1  0
 41 93  1  6
 42 94  1  0
 42 95  1  0
 45 96  1  0
 47 97  1  0
 48 98  1  0
 50 99  1  0
 51100  1  0
 51101  1  0
 52102  1  0
 52103  1  0
M  END
>  <Binding energies>  (1) 
[-5.49]

>  <Ligand effiencies>  (1) 
[-0.09631578947368422]

>  <Interactions>  (1) 
["V-A:ASP:366:CA:3210, H-B:GLU:543:O:9875, V-A:GLU:543:C:4902, V-B:GLU:543:CB:9878, V-A:PRO:540:C:4881, V-B:ALA:541:CB:9864, V-B:TYR:539:CE2:9848, V-A:TYR:484:CE2:4346, V-B:GLU:543:CG:9879, V-A:GLY:544:C:4912, V-B:LEU:475:CD2:9230, V-A:ASP:366:CG:3213, V-A:ASN:362:CB:3176, V-A:LEU:363:CD1:3189, V-A:LEU:363:CB:3187, V-A:TYR:539:CD1:4873, H-B:TYR:539:OH:9850, V-A:ALA:541:CB:4892, V-A:TYR:484:CZ:4347, V-A:GLU:543:CD:4908, H-B:TYR:484:OH:9319, V-B:GLU:543:CA:9876, V-B:HIS:456:CE1:9041, V-A:ILE:369:CD1:3239, V-A:HIS:456:CE1:4070, V-B:GLY:544:C:9884, V-A:ALA:541:CA:4890, V-B:TYR:539:CD2:9846, V-A:GLU:543:CG:4907, V-B:GLU:543:CD:9880, V-A:ASP:366:CB:3212, V-A:ASN:362:C:3172, V-A:GLU:543:CB:4906, V-A:PRO:540:CB:4885, V-A:PRO:540:CA:4883, V-A:LEU:363:CA:3185, H-B:VAL:542:O:9867, H-B:GLU:543:N:9877, V-A:TYR:539:CE1:4875, H-A:HIS:456:NE2:4071, H-A:TYR:484:OH:4348"]

$$$$
ZINC2356355373
     RDKit          3D

 98104  0  0  0  0  0  0  0  0999 V2000
  128.3970  132.6230   64.2820 C   0  0  0  0  0  0  0  0  0  0  0  0
  128.0060  132.6260   62.7930 C   0  0  2  0  0  0  0  0  0  0  0  0
  126.9450  131.5930   62.3980 C   0  0  0  0  0  0  0  0  0  0  0  0
  127.2290  131.2730   61.0340 O   0  0  0  0  0  0  0  0  0  0  0  0
  128.3000  132.0670   60.5200 C   0  0  2  0  0  0  0  0  0  0  0  0
  129.0210  131.3340   59.3440 C   0  0  2  0  0  0  0  0  0  0  0  0
  129.7830  132.3050   58.6420 O   0  0  0  0  0  0  0  0  0  0  0  0
  128.1260  130.5190   58.3330 C   0  0  2  0  0  0  0  0  0  0  0  0
  128.8060  130.4700   56.9360 C   0  0  0  0  0  0  0  0  0  0  0  0
  126.9110  131.2110   58.1070 O   0  0  0  0  0  0  0  0  0  0  0  0
  127.7930  129.0550   58.8450 C   0  0  2  0  0  0  0  0  0  0  0  0
  126.5120  128.9300   59.6800 C   0  0  0  0  0  0  0  0  0  0  0  0
  126.5390  127.4860   60.1490 C   0  0  0  0  0  0  0  0  0  0  0  0
  127.9970  127.2390   60.6050 C   0  0  2  0  0  0  0  0  0  0  0  0
  128.1390  127.8640   61.9110 O   0  0  0  0  0  0  0  0  0  0  0  0
  129.3630  127.9100   62.6550 C   0  0  0  0  0  0  0  0  0  0  0  0
  129.3170  127.1400   63.9100 C   0  0  0  0  0  0  0  0  0  0  0  0
  129.3060  126.5650   64.9910 C   0  0  0  0  0  0  0  0  0  0  0  0
  129.4070  125.8030   66.2650 C   0  0  2  0  0  0  0  0  0  0  0  0
  129.5510  126.6610   67.5480 C   0  0  0  0  0  0  0  0  0  0  0  0
  128.4370  127.1380   68.2650 C   0  0  0  0  0  0  0  0  0  0  0  0
  128.6030  127.9000   69.4180 C   0  0  0  0  0  0  0  0  0  0  0  0
  129.8840  128.1860   69.8780 C   0  0  0  0  0  0  0  0  0  0  0  0
  130.9990  127.7110   69.1960 C   0  0  0  0  0  0  0  0  0  0  0  0
  130.8320  126.9490   68.0430 C   0  0  0  0  0  0  0  0  0  0  0  0
  130.4230  124.6120   66.1520 C   0  0  0  0  0  0  0  0  0  0  0  0
  130.0720  123.5320   65.2700 O   0  0  0  0  0  0  0  0  0  0  0  0
  130.0260  123.8540   63.8820 C   0  0  1  0  0  0  0  0  0  0  0  0
  131.2900  124.6090   63.4620 C   0  0  0  0  0  0  0  0  0  0  0  0
  131.1430  125.1810   62.0430 C   0  0  0  0  0  0  0  0  0  0  0  0
  130.4680  124.2680   60.9470 C   0  0  2  0  0  0  0  0  0  0  0  0
  131.6150  123.5510   60.1900 C   0  0  0  0  0  0  0  0  0  0  0  0
  129.6750  125.1900   59.9500 C   0  0  2  0  0  0  0  0  0  0  0  0
  130.4960  126.2440   59.1780 C   0  0  0  0  0  0  0  0  0  0  0  0
  129.5760  127.2740   58.5380 C   0  0  0  0  0  0  0  0  0  0  0  0
  128.8640  128.1490   59.6030 C   0  0  1  0  0  0  0  0  0  0  0  0
  129.9420  128.9690   60.3940 C   0  0  0  0  0  0  0  0  0  0  0  0
  128.3900  125.7260   60.6440 C   0  0  0  0  0  0  0  0  0  0  0  0
  127.6190  124.8150   61.2780 C   0  0  0  0  0  0  0  0  0  0  0  0
  127.9920  123.4210   61.4540 C   0  0  0  0  0  0  0  0  0  0  0  0
  127.1410  122.5550   61.6550 O   0  0  0  0  0  0  0  0  0  0  0  0
  129.5170  123.1190   61.5220 C   0  0  2  0  0  0  0  0  0  0  0  0
  129.8920  122.6380   62.9530 C   0  0  0  0  0  0  0  0  0  0  0  0
  129.1290  132.4060   61.7790 C   0  0  2  0  0  0  0  0  0  0  0  0
  130.2400  131.3910   62.1800 C   0  0  0  0  0  0  0  0  0  0  0  0
  131.3660  131.9970   62.7850 O   0  0  0  0  0  0  0  0  0  0  0  0
  127.4871  132.6300   64.9000 H   0  0  0  0  0  0  0  0  0  0  0  0
  128.9848  131.7203   64.5049 H   0  0  0  0  0  0  0  0  0  0  0  0
  128.9985  133.5166   64.5049 H   0  0  0  0  0  0  0  0  0  0  0  0
  127.6328  133.6591   62.7347 H   0  0  0  0  0  0  0  0  0  0  0  0
  127.0245  130.6962   63.0300 H   0  0  0  0  0  0  0  0  0  0  0  0
  125.9235  131.9802   62.5272 H   0  0  0  0  0  0  0  0  0  0  0  0
  128.0099  133.0070   60.0278 H   0  0  0  0  0  0  0  0  0  0  0  0
  129.6290  130.5484   59.8164 H   0  0  0  0  0  0  0  0  0  0  0  0
  129.2170  132.7200   57.9870 H   0  0  0  0  0  0  0  0  0  0  0  0
  129.8960  130.3915   57.0613 H   0  0  0  0  0  0  0  0  0  0  0  0
  128.4370  129.5961   56.3791 H   0  0  0  0  0  0  0  0  0  0  0  0
  128.5661  131.3878   56.3791 H   0  0  0  0  0  0  0  0  0  0  0  0
  126.5420  131.4620   58.9560 H   0  0  0  0  0  0  0  0  0  0  0  0
  127.7246  128.6542   57.8229 H   0  0  0  0  0  0  0  0  0  0  0  0
  126.5299  129.6221   60.5348 H   0  0  0  0  0  0  0  0  0  0  0  0
  125.6032  129.1813   59.1135 H   0  0  0  0  0  0  0  0  0  0  0  0
  125.8418  127.3388   60.9870 H   0  0  0  0  0  0  0  0  0  0  0  0
  126.2308  126.7887   59.3561 H   0  0  0  0  0  0  0  0  0  0  0  0
  130.1683  127.5028   62.0260 H   0  0  0  0  0  0  0  0  0  0  0  0
  129.5372  128.9616   62.9268 H   0  0  0  0  0  0  0  0  0  0  0  0
  128.4154  125.3505   66.4133 H   0  0  0  0  0  0  0  0  0  0  0  0
  127.4224  126.9055   67.9094 H   0  0  0  0  0  0  0  0  0  0  0  0
  127.7242  128.2746   69.9634 H   0  0  0  0  0  0  0  0  0  0  0  0
  130.0160  128.7916   70.7868 H   0  0  0  0  0  0  0  0  0  0  0  0
  132.0098  127.9367   69.5665 H   0  0  0  0  0  0  0  0  0  0  0  0
  131.7168  126.5673   67.5125 H   0  0  0  0  0  0  0  0  0  0  0  0
  131.3810  125.0258   65.8040 H   0  0  0  0  0  0  0  0  0  0  0  0
  130.4470  124.1628   67.1558 H   0  0  0  0  0  0  0  0  0  0  0  0
  129.1212  124.4697   63.7710 H   0  0  0  0  0  0  0  0  0  0  0  0
  131.4665  125.4351   64.1665 H   0  0  0  0  0  0  0  0  0  0  0  0
  132.1371  123.9074   63.4714 H   0  0  0  0  0  0  0  0  0  0  0  0
  130.5423  126.0993   62.1202 H   0  0  0  0  0  0  0  0  0  0  0  0
  132.1763  125.3174   61.6913 H   0  0  0  0  0  0  0  0  0  0  0  0
  132.3158  123.1129   60.9159 H   0  0  0  0  0  0  0  0  0  0  0  0
  131.1955  122.7540   59.5584 H   0  0  0  0  0  0  0  0  0  0  0  0
  132.1477  124.2772   59.5584 H   0  0  0  0  0  0  0  0  0  0  0  0
  129.3699  124.5499   59.1090 H   0  0  0  0  0  0  0  0  0  0  0  0
  131.1788  126.7522   59.8748 H   0  0  0  0  0  0  0  0  0  0  0  0
  131.0684  125.7384   58.3864 H   0  0  0  0  0  0  0  0  0  0  0  0
  130.1721  127.9255   57.8822 H   0  0  0  0  0  0  0  0  0  0  0  0
  128.8056  126.7365   57.9656 H   0  0  0  0  0  0  0  0  0  0  0  0
  129.7777  128.8440   61.4745 H   0  0  0  0  0  0  0  0  0  0  0  0
  130.9459  128.6042   60.1311 H   0  0  0  0  0  0  0  0  0  0  0  0
  129.8584  130.0339   60.1311 H   0  0  0  0  0  0  0  0  0  0  0  0
  126.6526  125.1478   61.6847 H   0  0  0  0  0  0  0  0  0  0  0  0
  129.7132  122.2966   60.8183 H   0  0  0  0  0  0  0  0  0  0  0  0
  129.1049  121.9705   63.3337 H   0  0  0  0  0  0  0  0  0  0  0  0
  130.8479  122.0948   62.9190 H   0  0  0  0  0  0  0  0  0  0  0  0
  129.7939  133.2732   61.6528 H   0  0  0  0  0  0  0  0  0  0  0  0
  129.8111  130.6674   62.8888 H   0  0  0  0  0  0  0  0  0  0  0  0
  130.5893  130.9109   61.2540 H   0  0  0  0  0  0  0  0  0  0  0  0
  131.6330  131.4640   63.5370 H   0  0  0  0  0  0  0  0  0  0  0  0
  1  2  1  0
  2  3  1  0
  3  4  1  0
  4  5  1  0
  5  6  1  0
  6  7  1  0
  6  8  1  0
  8  9  1  0
  8 10  1  6
  8 11  1  0
 11 12  1  0
 12 13  1  0
 14 13  1  6
 14 15  1  0
 15 16  1  0
 16 17  1  0
 17 18  3  0
 18 19  1  0
 19 20  1  0
 20 21  2  0
 21 22  1  0
 22 23  2  0
 23 24  1  0
 24 25  2  0
 19 26  1  0
 26 27  1  0
 27 28  1  0
 28 29  1  0
 29 30  1  0
 30 31  1  0
 31 32  1  6
 31 33  1  0
 33 34  1  0
 34 35  1  0
 35 36  1  0
 36 37  1  1
 33 38  1  0
 38 39  2  0
 39 40  1  0
 40 41  2  0
 40 42  1  0
 42 43  1  0
  5 44  1  0
 44 45  1  0
 45 46  1  0
 44  2  1  0
 36 11  1  0
 36 14  1  0
 38 14  1  0
 25 20  1  0
 43 28  1  0
 42 31  1  0
  1 47  1  0
  1 48  1  0
  1 49  1  0
  2 50  1  6
  3 51  1  0
  3 52  1  0
  5 53  1  6
  6 54  1  1
  7 55  1  0
  9 56  1  0
  9 57  1  0
  9 58  1  0
 10 59  1  0
 11 60  1  6
 12 61  1  0
 12 62  1  0
 13 63  1  0
 13 64  1  0
 16 65  1  0
 16 66  1  0
 19 67  1  1
 21 68  1  0
 22 69  1  0
 23 70  1  0
 24 71  1  0
 25 72  1  0
 26 73  1  0
 26 74  1  0
 28 75  1  1
 29 76  1  0
 29 77  1  0
 30 78  1  0
 30 79  1  0
 32 80  1  0
 32 81  1  0
 32 82  1  0
 33 83  1  6
 34 84  1  0
 34 85  1  0
 35 86  1  0
 35 87  1  0
 37 88  1  0
 37 89  1  0
 37 90  1  0
 39 91  1  0
 42 92  1  6
 43 93  1  0
 43 94  1  0
 44 95  1  6
 45 96  1  0
 45 97  1  0
 46 98  1  0
M  END
>  <Binding energies>  (1) 
[-6.61]

>  <Ligand effiencies>  (1) 
[-0.1296078431372549]

>  <Interactions>  (1) 
["V-A:GLU:543:C:4902, H-A:ALA:541:N:4891, V-B:GLU:543:CB:9878, H-A:ALA:541:O:4889, V-B:ASP:366:CG:8184, V-B:ALA:541:CB:9864, V-B:TYR:539:CE2:9848, V-A:TYR:484:CE2:4346, V-B:GLU:543:CG:9879, V-B:LEU:475:CD2:9230, V-B:TYR:484:CE2:9317, V-A:ALA:541:CB:4892, H-B:ALA:541:N:9863, V-A:GLU:543:CD:4908, V-A:TYR:484:CZ:4347, V-B:HIS:456:CE1:9041, V-A:ARG:545:CG:4922, V-A:HIS:456:CE1:4070, V-A:GLU:543:CG:4907, V-A:MET:535:CE:4835, V-B:GLU:543:CD:9880, V-A:LEU:475:CD2:4259, H-A:GLU:543:OE1:4909, V-A:GLU:543:CB:4906, H-A:TYR:484:OH:4348"]

$$$$
ZINC2356355468
     RDKit          3D

 97104  0  0  0  0  0  0  0  0999 V2000
  128.5520  132.1720   63.7820 C   0  0  0  0  0  0  0  0  0  0  0  0
  127.8860  132.5570   62.5870 O   0  0  0  0  0  0  0  0  0  0  0  0
  128.7110  132.5810   61.4230 C   0  0  2  0  0  0  0  0  0  0  0  0
  128.2300  133.6160   60.3320 C   0  0  0  0  0  0  0  0  0  0  0  0
  128.5900  132.9610   58.9690 C   0  0  0  0  0  0  0  0  0  0  0  0
  128.3130  133.3260   57.8290 O   0  0  0  0  0  0  0  0  0  0  0  0
  129.3970  131.7650   59.4230 C   0  0  2  0  0  0  0  0  0  0  0  0
  130.1110  130.5370   58.7880 C   0  0  1  0  0  0  0  0  0  0  0  0
  131.5570  130.4690   59.4130 C   0  0  2  0  0  0  0  0  0  0  0  0
  132.2640  129.5380   58.3410 C   0  0  0  0  0  0  0  0  0  0  0  0
  131.4240  128.2740   57.9750 C   0  0  0  0  0  0  0  0  0  0  0  0
  130.3780  127.8820   59.0770 C   0  0  1  0  0  0  0  0  0  0  0  0
  129.6050  126.5920   58.5680 C   0  0  0  0  0  0  0  0  0  0  0  0
  129.8840  125.3900   59.5090 C   0  0  2  0  0  0  0  0  0  0  0  0
  128.6900  125.2400   60.5180 C   0  0  0  0  0  0  0  0  0  0  0  0
  128.9480  124.5700   61.8630 C   0  0  0  0  0  0  0  0  0  0  0  0
  128.6960  123.2020   62.0080 C   0  0  0  0  0  0  0  0  0  0  0  0
  128.8010  122.5950   63.2580 C   0  0  0  0  0  0  0  0  0  0  0  0
  129.1210  123.3610   64.3780 C   0  0  0  0  0  0  0  0  0  0  0  0
  129.3850  124.7300   64.2440 C   0  0  0  0  0  0  0  0  0  0  0  0
  129.3890  125.2990   62.9700 C   0  0  0  0  0  0  0  0  0  0  0  0
  129.5870  125.5890   65.3390 N   0  0  0  0  0  0  0  0  0  0  0  0
  130.6270  125.3100   66.3440 C   0  0  2  0  0  0  0  0  0  0  0  0
  130.4340  126.1230   67.6640 C   0  0  2  0  0  0  0  0  0  0  0  0
  129.3370  127.2050   67.6190 C   0  0  0  0  0  0  0  0  0  0  0  0
  131.6430  126.7840   67.9970 O   0  0  0  0  0  0  0  0  0  0  0  0
  132.0840  125.2940   65.7820 C   0  0  0  0  0  0  0  0  0  0  0  0
  132.3730  124.4540   64.1850 S   0  0  0  0  0  0  0  0  0  0  0  0
  132.0690  125.7910   62.6610 S   0  0  0  0  0  0  0  0  0  0  0  0
  132.1430  124.8940   61.0530 C   0  0  0  0  0  0  0  0  0  0  0  0
  131.3710  123.5350   61.3130 C   0  0  0  0  0  0  0  0  0  0  0  0
  132.1480  122.2080   61.2150 C   0  0  0  0  0  0  0  0  0  0  0  0
  133.2750  122.2470   60.1860 C   0  0  0  0  0  0  0  0  0  0  0  0
  134.2680  123.3320   60.5940 C   0  0  0  0  0  0  0  0  0  0  0  0
  133.6410  124.7360   60.6010 C   0  0  0  0  0  0  0  0  0  0  0  0
  131.3100  125.7500   60.0130 C   0  0  2  0  0  0  0  0  0  0  0  0
  131.1750  127.2570   60.2750 C   0  0  0  0  0  0  0  0  0  0  0  0
  129.4700  129.2310   59.3680 C   0  0  2  0  0  0  0  0  0  0  0  0
  128.0900  129.0800   58.6370 C   0  0  0  0  0  0  0  0  0  0  0  0
  129.5020  129.9210   60.8240 C   0  0  1  0  0  0  0  0  0  0  0  0
  128.9470  129.0970   62.0200 C   0  0  0  0  0  0  0  0  0  0  0  0
  131.0350  130.2680   60.9320 C   0  0  0  0  0  0  0  0  0  0  0  0
  128.6540  131.2450   60.6420 C   0  0  1  0  0  0  0  0  0  0  0  0
  127.2550  130.9290   60.5490 O   0  0  0  0  0  0  0  0  0  0  0  0
  127.9689  132.5091   64.6517 H   0  0  0  0  0  0  0  0  0  0  0  0
  128.6518  131.0769   63.8096 H   0  0  0  0  0  0  0  0  0  0  0  0
  129.5508  132.6320   63.8096 H   0  0  0  0  0  0  0  0  0  0  0  0
  129.7030  132.8226   61.8324 H   0  0  0  0  0  0  0  0  0  0  0  0
  127.1450  133.7806   60.4071 H   0  0  0  0  0  0  0  0  0  0  0  0
  128.7073  134.5992   60.4566 H   0  0  0  0  0  0  0  0  0  0  0  0
  130.3289  132.3284   59.2675 H   0  0  0  0  0  0  0  0  0  0  0  0
  130.0654  130.6189   57.6920 H   0  0  0  0  0  0  0  0  0  0  0  0
  132.3917  131.1714   59.5537 H   0  0  0  0  0  0  0  0  0  0  0  0
  132.4312  130.1239   57.4252 H   0  0  0  0  0  0  0  0  0  0  0  0
  133.2072  129.1865   58.7846 H   0  0  0  0  0  0  0  0  0  0  0  0
  130.8848  128.4730   57.0371 H   0  0  0  0  0  0  0  0  0  0  0  0
  132.1266  127.4330   57.8795 H   0  0  0  0  0  0  0  0  0  0  0  0
  128.5246  126.7985   58.5538 H   0  0  0  0  0  0  0  0  0  0  0  0
  129.9545  126.3420   57.5554 H   0  0  0  0  0  0  0  0  0  0  0  0
  129.9097  124.3674   59.1044 H   0  0  0  0  0  0  0  0  0  0  0  0
  128.3139  126.2523   60.7274 H   0  0  0  0  0  0  0  0  0  0  0  0
  127.9939  124.5573   60.0086 H   0  0  0  0  0  0  0  0  0  0  0  0
  128.4134  122.6019   61.1305 H   0  0  0  0  0  0  0  0  0  0  0  0
  128.6316  121.5130   63.3608 H   0  0  0  0  0  0  0  0  0  0  0  0
  129.1663  122.8886   65.3704 H   0  0  0  0  0  0  0  0  0  0  0  0
  129.7429  126.3319   62.8360 H   0  0  0  0  0  0  0  0  0  0  0  0
  128.7270  125.9280   65.7460 H   0  0  0  0  0  0  0  0  0  0  0  0
  130.4722  124.2618   66.6395 H   0  0  0  0  0  0  0  0  0  0  0  0
  130.1267  125.3712   68.4059 H   0  0  0  0  0  0  0  0  0  0  0  0
  129.0545  127.4836   68.6449 H   0  0  0  0  0  0  0  0  0  0  0  0
  129.7175  128.0912   67.0900 H   0  0  0  0  0  0  0  0  0  0  0  0
  128.4561  126.8123   67.0900 H   0  0  0  0  0  0  0  0  0  0  0  0
  132.1200  126.9660   67.1840 H   0  0  0  0  0  0  0  0  0  0  0  0
  132.4016  126.3406   65.6643 H   0  0  0  0  0  0  0  0  0  0  0  0
  132.6559  124.7033   66.5128 H   0  0  0  0  0  0  0  0  0  0  0  0
  130.9529  123.5903   62.3289 H   0  0  0  0  0  0  0  0  0  0  0  0
  130.6459  123.4796   60.4877 H   0  0  0  0  0  0  0  0  0  0  0  0
  132.5817  121.9830   62.2005 H   0  0  0  0  0  0  0  0  0  0  0  0
  131.4358  121.4347   60.8914 H   0  0  0  0  0  0  0  0  0  0  0  0
  133.7831  121.2719   60.1554 H   0  0  0  0  0  0  0  0  0  0  0  0
  132.8664  122.4667   59.1886 H   0  0  0  0  0  0  0  0  0  0  0  0
  134.6397  123.1072   61.6046 H   0  0  0  0  0  0  0  0  0  0  0  0
  135.0814  123.3344   59.8534 H   0  0  0  0  0  0  0  0  0  0  0  0
  134.2492  125.3584   61.2739 H   0  0  0  0  0  0  0  0  0  0  0  0
  133.6314  125.0285   59.5407 H   0  0  0  0  0  0  0  0  0  0  0  0
  132.0364  125.4326   59.2503 H   0  0  0  0  0  0  0  0  0  0  0  0
  130.6304  127.4260   61.2156 H   0  0  0  0  0  0  0  0  0  0  0  0
  132.1678  127.7227   60.3609 H   0  0  0  0  0  0  0  0  0  0  0  0
  127.2872  128.9922   59.3838 H   0  0  0  0  0  0  0  0  0  0  0  0
  127.9100  129.9638   58.0073 H   0  0  0  0  0  0  0  0  0  0  0  0
  128.1053  128.1782   58.0073 H   0  0  0  0  0  0  0  0  0  0  0  0
  129.2618  129.5643   62.9647 H   0  0  0  0  0  0  0  0  0  0  0  0
  127.8484  129.0736   61.9707 H   0  0  0  0  0  0  0  0  0  0  0  0
  129.3382  128.0701   61.9707 H   0  0  0  0  0  0  0  0  0  0  0  0
  131.1774  131.1928   61.5103 H   0  0  0  0  0  0  0  0  0  0  0  0
  131.5924  129.4715   61.4467 H   0  0  0  0  0  0  0  0  0  0  0  0
  126.8250  131.2070   61.3620 H   0  0  0  0  0  0  0  0  0  0  0  0
  1  2  1  0
  2  3  1  0
  3  4  1  0
  4  5  1  0
  5  6  2  0
  5  7  1  0
  7  8  1  0
  8  9  1  0
  9 10  1  0
 10 11  1  0
 12 11  1  6
 12 13  1  0
 13 14  1  0
 14 15  1  0
 15 16  1  0
 16 17  2  0
 17 18  1  0
 18 19  2  0
 19 20  1  0
 20 21  2  0
 20 22  1  0
 22 23  1  0
 23 24  1  0
 24 25  1  0
 24 26  1  0
 23 27  1  0
 27 28  1  0
 28 29  1  0
 29 30  1  0
 30 31  1  0
 31 32  1  0
 32 33  1  0
 33 34  1  0
 34 35  1  0
 30 36  1  0
 36 37  1  0
 12 38  1  0
 38 39  1  6
 38 40  1  0
 40 41  1  1
 40 42  1  0
 40 43  1  0
 43 44  1  6
 43  3  1  0
 43  7  1  0
 38  8  1  0
 42  9  1  0
 37 12  1  0
 36 14  1  0
 21 16  1  0
 35 30  1  0
  1 45  1  0
  1 46  1  0
  1 47  1  0
  3 48  1  1
  4 49  1  0
  4 50  1  0
  7 51  1  1
  8 52  1  6
  9 53  1  1
 10 54  1  0
 10 55  1  0
 11 56  1  0
 11 57  1  0
 13 58  1  0
 13 59  1  0
 14 60  1  6
 15 61  1  0
 15 62  1  0
 17 63  1  0
 18 64  1  0
 19 65  1  0
 21 66  1  0
 22 67  1  0
 23 68  1  1
 24 69  1  1
 25 70  1  0
 25 71  1  0
 25 72  1  0
 26 73  1  0
 27 74  1  0
 27 75  1  0
 31 76  1  0
 31 77  1  0
 32 78  1  0
 32 79  1  0
 33 80  1  0
 33 81  1  0
 34 82  1  0
 34 83  1  0
 35 84  1  0
 35 85  1  0
 36 86  1  6
 37 87  1  0
 37 88  1  0
 39 89  1  0
 39 90  1  0
 39 91  1  0
 41 92  1  0
 41 93  1  0
 41 94  1  0
 42 95  1  0
 42 96  1  0
 44 97  1  0
M  END
>  <Binding energies>  (1) 
[-6.58]

>  <Ligand effiencies>  (1) 
[-0.13428571428571429]

>  <Interactions>  (1) 
["V-A:ILE:369:CG2:3237, V-A:ASP:366:CA:3210, H-A:GLU:543:OE2:4910, V-A:ILE:369:CB:3236, V-B:GLU:543:CB:9878, V-B:ALA:541:CB:9864, V-B:TYR:539:CE2:9848, V-B:GLU:543:CG:9879, V-A:ASP:366:CG:3213, V-A:TYR:539:CD1:4873, H-B:GLU:543:OE1:9881, V-A:ALA:541:CB:4892, V-A:TYR:484:CZ:4347, V-A:GLU:543:CD:4908, V-A:ILE:369:CD1:3239, V-A:HIS:456:CE1:4070, V-A:TYR:531:CZ:4794, V-A:GLU:543:CG:4907, V-B:GLU:543:CD:9880, V-A:TYR:539:C:4867, V-A:ASP:366:CB:3212, V-A:ILE:369:CG1:3238, V-A:LEU:475:CD2:4259, H-A:ARG:545:NH2:4928, V-A:ARG:545:CZ:4926, V-A:GLU:543:CB:4906, V-A:PRO:540:N:4884, H-A:TYR:539:N:4870, H-B:GLU:543:OE2:9882, V-A:PRO:540:CA:4883, V-A:TYR:539:CE1:4875, H-A:HIS:456:ND1:4067, H-A:TYR:484:OH:4348"]

$$$$
ZINC2356356362
     RDKit          3D

109116  0  0  0  0  0  0  0  0999 V2000
  130.0330  131.1110   56.9750 C   0  0  0  0  0  0  0  0  0  0  0  0
  129.6700  132.4740   57.5920 C   0  0  2  0  0  0  0  0  0  0  0  0
  129.6780  132.3440   58.9990 O   0  0  0  0  0  0  0  0  0  0  0  0
  128.2930  133.0160   57.1590 C   0  0  0  0  0  0  0  0  0  0  0  0
  127.1710  132.2100   57.6330 N   0  0  0  0  0  0  0  0  0  0  0  0
  126.9760  131.9570   59.0030 C   0  0  0  0  0  0  0  0  0  0  0  0
  126.4930  133.0010   59.7960 C   0  0  0  0  0  0  0  0  0  0  0  0
  126.2630  132.8200   61.1670 C   0  0  0  0  0  0  0  0  0  0  0  0
  125.7190  133.9350   62.0580 C   0  0  0  0  0  0  0  0  0  0  0  0
  125.6600  133.6380   63.4390 O   0  0  0  0  0  0  0  0  0  0  0  0
  126.5210  131.5730   61.7400 C   0  0  0  0  0  0  0  0  0  0  0  0
  127.0140  130.5150   60.9690 C   0  0  0  0  0  0  0  0  0  0  0  0
  127.2580  129.1490   61.6170 C   0  0  2  0  0  0  0  0  0  0  0  0
  127.2800  129.2460   63.0930 C   0  0  0  0  0  0  0  0  0  0  0  0
  127.4800  129.2630   64.2990 C   0  0  0  0  0  0  0  0  0  0  0  0
  127.7560  128.8910   65.7040 C   0  0  2  0  0  0  0  0  0  0  0  0
  128.5320  129.9690   66.4910 C   0  0  0  0  0  0  0  0  0  0  0  0
  128.7820  129.5060   67.9460 C   0  0  0  0  0  0  0  0  0  0  0  0
  128.7180  130.2030   68.9560 O   0  0  0  0  0  0  0  0  0  0  0  0
  129.0310  128.1570   68.1340 O   0  0  0  0  0  0  0  0  0  0  0  0
  129.1110  127.2790   67.0650 C   0  0  0  0  0  0  0  0  0  0  0  0
  129.7560  126.0570   67.2800 C   0  0  0  0  0  0  0  0  0  0  0  0
  129.8540  125.1190   66.2440 C   0  0  0  0  0  0  0  0  0  0  0  0
  130.4720  123.9210   66.4910 O   0  0  0  0  0  0  0  0  0  0  0  0
  129.3310  125.4230   64.9770 C   0  0  0  0  0  0  0  0  0  0  0  0
  128.7070  126.6470   64.7910 C   0  0  0  0  0  0  0  0  0  0  0  0
  128.5270  127.5710   65.8240 C   0  0  0  0  0  0  0  0  0  0  0  0
  129.4130  124.4920   63.7680 C   0  0  0  0  0  0  0  0  0  0  0  0
  130.7120  124.6120   62.8270 C   0  0  1  0  0  0  0  0  0  0  0  0
  130.8070  125.9730   62.3350 O   0  0  0  0  0  0  0  0  0  0  0  0
  129.8410  126.9330   62.5510 C   0  0  0  0  0  0  0  0  0  0  0  0
  129.8230  127.6800   63.5310 O   0  0  0  0  0  0  0  0  0  0  0  0
  128.8210  127.0110   61.4690 C   0  0  0  0  0  0  0  0  0  0  0  0
  128.2290  125.8960   60.9310 C   0  0  0  0  0  0  0  0  0  0  0  0
  127.2860  126.0010   59.7190 C   0  0  0  0  0  0  0  0  0  0  0  0
  127.9200  125.6840   58.3330 C   0  0  0  0  0  0  0  0  0  0  0  0
  129.3890  125.2460   58.3020 C   0  0  0  0  0  0  0  0  0  0  0  0
  130.3290  125.9480   57.5350 C   0  0  0  0  0  0  0  0  0  0  0  0
  131.6890  125.6630   57.6300 C   0  0  0  0  0  0  0  0  0  0  0  0
  132.1230  124.6390   58.4690 C   0  0  0  0  0  0  0  0  0  0  0  0
  131.1860  123.8540   59.1390 C   0  0  0  0  0  0  0  0  0  0  0  0
  129.8310  124.1740   59.1070 C   0  0  0  0  0  0  0  0  0  0  0  0
  128.8820  123.5090   60.0950 C   0  0  0  0  0  0  0  0  0  0  0  0
  128.5320  124.4320   61.2850 C   0  0  2  0  0  0  0  0  0  0  0  0
  127.3860  123.9170   61.9340 O   0  0  0  0  0  0  0  0  0  0  0  0
  133.5960  124.4620   58.7980 C   0  0  0  0  0  0  0  0  0  0  0  0
  133.5990  124.5220   60.4110 C   0  0  1  0  0  0  0  0  0  0  0  0
  132.7660  123.3740   61.0830 C   0  0  0  0  0  0  0  0  0  0  0  0
  132.9130  123.1990   62.6150 C   0  0  1  0  0  0  0  0  0  0  0  0
  134.4400  123.0930   62.8870 C   0  0  0  0  0  0  0  0  0  0  0  0
  135.2110  124.3570   62.4730 C   0  0  0  0  0  0  0  0  0  0  0  0
  135.0410  124.6520   60.9730 C   0  0  0  0  0  0  0  0  0  0  0  0
  136.0110  124.9350   60.2710 O   0  0  0  0  0  0  0  0  0  0  0  0
  132.0590  124.1780   63.5260 C   0  0  1  0  0  0  0  0  0  0  0  0
  132.8210  125.4170   64.0620 C   0  0  0  0  0  0  0  0  0  0  0  0
  131.6970  123.4430   64.6880 O   0  0  0  0  0  0  0  0  0  0  0  0
  128.5110  128.4470   60.9860 C   0  0  0  0  0  0  0  0  0  0  0  0
  127.2320  130.7150   59.5990 C   0  0  0  0  0  0  0  0  0  0  0  0
  130.2264  130.3848   57.7782 H   0  0  0  0  0  0  0  0  0  0  0  0
  129.1981  130.7561   56.3530 H   0  0  0  0  0  0  0  0  0  0  0  0
  130.9339  131.2183   56.3530 H   0  0  0  0  0  0  0  0  0  0  0  0
  130.4194  133.1937   57.2307 H   0  0  0  0  0  0  0  0  0  0  0  0
  129.9940  131.4650   59.2230 H   0  0  0  0  0  0  0  0  0  0  0  0
  128.1805  134.0358   57.5557 H   0  0  0  0  0  0  0  0  0  0  0  0
  128.2673  132.9890   56.0596 H   0  0  0  0  0  0  0  0  0  0  0  0
  126.3460  132.1930   57.0510 H   0  0  0  0  0  0  0  0  0  0  0  0
  126.2901  133.9801   59.3375 H   0  0  0  0  0  0  0  0  0  0  0  0
  126.3636  134.8169   61.9285 H   0  0  0  0  0  0  0  0  0  0  0  0
  124.6784  134.0949   61.7393 H   0  0  0  0  0  0  0  0  0  0  0  0
  126.3480  133.0010   63.6430 H   0  0  0  0  0  0  0  0  0  0  0  0
  126.3339  131.4204   62.8132 H   0  0  0  0  0  0  0  0  0  0  0  0
  126.4086  128.4869   61.3932 H   0  0  0  0  0  0  0  0  0  0  0  0
  126.7547  128.7824   66.1463 H   0  0  0  0  0  0  0  0  0  0  0  0
  129.4985  130.1508   65.9983 H   0  0  0  0  0  0  0  0  0  0  0  0
  127.9352  130.8928   66.5102 H   0  0  0  0  0  0  0  0  0  0  0  0
  130.1880  125.8314   68.2662 H   0  0  0  0  0  0  0  0  0  0  0  0
  130.4870  123.3450   65.7240 H   0  0  0  0  0  0  0  0  0  0  0  0
  128.3375  126.9020   63.7868 H   0  0  0  0  0  0  0  0  0  0  0  0
  129.3724  123.4590   64.1439 H   0  0  0  0  0  0  0  0  0  0  0  0
  128.5720  124.7914   63.1253 H   0  0  0  0  0  0  0  0  0  0  0  0
  130.5779  123.9024   61.9972 H   0  0  0  0  0  0  0  0  0  0  0  0
  126.4544  125.2986   59.8775 H   0  0  0  0  0  0  0  0  0  0  0  0
  126.9800  127.0565   59.6713 H   0  0  0  0  0  0  0  0  0  0  0  0
  127.3273  124.8767   57.8781 H   0  0  0  0  0  0  0  0  0  0  0  0
  127.9058  126.6439   57.7959 H   0  0  0  0  0  0  0  0  0  0  0  0
  129.9874  126.7359   56.8476 H   0  0  0  0  0  0  0  0  0  0  0  0
  132.4173  126.2439   57.0451 H   0  0  0  0  0  0  0  0  0  0  0  0
  131.5214  122.9697   59.7007 H   0  0  0  0  0  0  0  0  0  0  0  0
  127.9534  123.2427   59.5689 H   0  0  0  0  0  0  0  0  0  0  0  0
  129.3857  122.6177   60.4974 H   0  0  0  0  0  0  0  0  0  0  0  0
  129.4362  124.4416   61.9113 H   0  0  0  0  0  0  0  0  0  0  0  0
  126.7500  124.6270   62.0410 H   0  0  0  0  0  0  0  0  0  0  0  0
  133.9716  123.4940   58.4349 H   0  0  0  0  0  0  0  0  0  0  0  0
  134.2454  125.2155   58.3284 H   0  0  0  0  0  0  0  0  0  0  0  0
  133.0668  125.4427   60.6923 H   0  0  0  0  0  0  0  0  0  0  0  0
  131.7040  123.5682   60.8721 H   0  0  0  0  0  0  0  0  0  0  0  0
  133.1636  122.4438   60.6510 H   0  0  0  0  0  0  0  0  0  0  0  0
  132.4243  122.2725   62.9509 H   0  0  0  0  0  0  0  0  0  0  0  0
  134.5939  122.9248   63.9631 H   0  0  0  0  0  0  0  0  0  0  0  0
  134.8256  122.2586   62.2828 H   0  0  0  0  0  0  0  0  0  0  0  0
  134.8323  125.2127   63.0512 H   0  0  0  0  0  0  0  0  0  0  0  0
  136.2798  124.1921   62.6744 H   0  0  0  0  0  0  0  0  0  0  0  0
  132.8134  125.4046   65.1619 H   0  0  0  0  0  0  0  0  0  0  0  0
  133.8602  125.3923   63.7022 H   0  0  0  0  0  0  0  0  0  0  0  0
  132.3301  126.3333   63.7022 H   0  0  0  0  0  0  0  0  0  0  0  0
  132.0700  123.8830   65.4550 H   0  0  0  0  0  0  0  0  0  0  0  0
  129.3895  129.0703   61.2090 H   0  0  0  0  0  0  0  0  0  0  0  0
  128.2772  128.3472   59.9158 H   0  0  0  0  0  0  0  0  0  0  0  0
  127.6093  129.8854   58.9831 H   0  0  0  0  0  0  0  0  0  0  0  0
  1  2  1  0
  2  3  1  0
  2  4  1  0
  4  5  1  0
  5  6  1  0
  6  7  2  0
  7  8  1  0
  8  9  1  0
  9 10  1  0
  8 11  2  0
 11 12  1  0
 12 13  1  0
 13 14  1  0
 14 15  3  0
 15 16  1  0
 16 17  1  0
 17 18  1  0
 18 19  2  0
 18 20  1  0
 20 21  1  0
 21 22  2  0
 22 23  1  0
 23 24  1  0
 23 25  2  0
 25 26  1  0
 26 27  2  0
 25 28  1  0
 28 29  1  0
 29 30  1  0
 30 31  1  0
 31 32  2  0
 31 33  1  0
 33 34  2  0
 34 35  1  0
 35 36  1  0
 36 37  1  0
 37 38  2  0
 38 39  1  0
 39 40  2  0
 40 41  1  0
 41 42  2  0
 42 43  1  0
 43 44  1  0
 44 45  1  0
 40 46  1  0
 46 47  1  0
 47 48  1  0
 48 49  1  0
 49 50  1  0
 50 51  1  0
 51 52  1  0
 52 53  2  0
 49 54  1  0
 54 55  1  0
 54 56  1  1
 33 57  1  0
 12 58  2  0
 58  6  1  0
 57 13  1  0
 27 16  1  0
 54 29  1  0
 27 21  1  0
 44 34  1  0
 52 47  1  0
 42 37  1  0
  1 59  1  0
  1 60  1  0
  1 61  1  0
  2 62  1  1
  3 63  1  0
  4 64  1  0
  4 65  1  0
  5 66  1  0
  7 67  1  0
  9 68  1  0
  9 69  1  0
 10 70  1  0
 11 71  1  0
 13 72  1  1
 16 73  1  1
 17 74  1  0
 17 75  1  0
 22 76  1  0
 24 77  1  0
 26 78  1  0
 28 79  1  0
 28 80  1  0
 29 81  1  6
 35 82  1  0
 35 83  1  0
 36 84  1  0
 36 85  1  0
 38 86  1  0
 39 87  1  0
 41 88  1  0
 43 89  1  0
 43 90  1  0
 44 91  1  1
 45 92  1  0
 46 93  1  0
 46 94  1  0
 47 95  1  6
 48 96  1  0
 48 97  1  0
 49 98  1  6
 50 99  1  0
 50100  1  0
 51101  1  0
 51102  1  0
 55103  1  0
 55104  1  0
 55105  1  0
 56106  1  0
 57107  1  0
 57108  1  0
 58109  1  0
M  END
>  <Binding energies>  (1) 
[35.17]

>  <Ligand effiencies>  (1) 
[0.5024285714285714]

>  <Interactions>  (1) 
["V-A:ILE:369:CG2:3237, V-A:ASP:366:CA:3210, V-A:GLU:543:CA:4904, V-A:GLY:454:CA:4049, V-A:ILE:369:CB:3236, V-A:GLU:543:C:4902, V-B:GLU:543:CB:9878, V-B:TYR:539:CE2:9848, V-B:LEU:475:CD2:9230, V-B:GLU:543:CG:9879, V-A:TYR:539:CE2:4876, V-A:ASP:366:CG:3213, V-A:TYR:539:CD1:4873, V-B:TYR:484:CE2:9317, V-B:TYR:539:CZ:9849, H-B:GLU:543:OE1:9881, V-A:TYR:539:CZ:4877, V-A:GLU:543:CD:4908, H-B:TYR:484:OH:9319, V-B:HIS:456:CE1:9041, V-A:GLY:453:C:4042, H-A:ASP:366:N:3211, V-B:TYR:484:CZ:9318, V-A:HIS:456:CE1:4070, V-A:ILE:369:CD1:3239, V-A:ASP:366:C:3208, V-B:TYR:539:CD2:9846, V-A:GLU:543:CG:4907, V-A:MET:535:CE:4835, V-B:GLU:543:CD:9880, V-A:ILE:369:CG1:3238, V-A:ASP:366:CB:3212, V-A:LEU:475:CD2:4259, V-A:ARG:545:CZ:4926, V-A:GLU:543:CB:4906, V-A:TYR:539:CG:4872, V-A:GLY:453:CA:4044, V-A:TYR:539:CD2:4874, H-A:TYR:539:OH:4878, V-A:TYR:539:CE1:4875, H-A:TYR:484:OH:4348"]

$$$$
ZINC2356356419
     RDKit          3D

 91 95  0  0  0  0  0  0  0  0999 V2000
  131.6550  132.9230   56.6010 C   0  0  0  0  0  0  0  0  0  0  0  0
  130.6290  132.1920   57.4520 C   0  0  0  0  0  0  0  0  0  0  0  0
  131.1880  130.9930   58.2040 C   0  0  0  0  0  0  0  0  0  0  0  0
  129.3410  132.5980   57.4940 C   0  0  0  0  0  0  0  0  0  0  0  0
  128.1980  132.0030   58.3020 C   0  0  0  0  0  0  0  0  0  0  0  0
  127.2030  131.1950   57.4430 C   0  0  0  0  0  0  0  0  0  0  0  0
  127.0780  129.6920   57.7200 C   0  0  0  0  0  0  0  0  0  0  0  0
  128.2680  128.8980   57.1930 C   0  0  0  0  0  0  0  0  0  0  0  0
  126.0230  129.1420   58.3650 C   0  0  0  0  0  0  0  0  0  0  0  0
  125.7660  127.6750   58.6850 C   0  0  0  0  0  0  0  0  0  0  0  0
  126.7040  127.1310   59.7920 C   0  0  0  0  0  0  0  0  0  0  0  0
  127.4080  127.9890   60.6740 C   0  0  0  0  0  0  0  0  0  0  0  0
  127.2450  129.2590   60.5960 O   0  0  0  0  0  0  0  0  0  0  0  0
  128.2820  127.4460   61.6450 C   0  0  0  0  0  0  0  0  0  0  0  0
  129.1200  128.3260   62.5990 C   0  0  0  0  0  0  0  0  0  0  0  0
  128.2930  128.9470   63.7160 C   0  0  0  0  0  0  0  0  0  0  0  0
  128.1550  128.4840   64.9770 C   0  0  0  0  0  0  0  0  0  0  0  0
  127.2870  129.2030   65.9940 C   0  0  0  0  0  0  0  0  0  0  0  0
  128.8390  127.2340   65.5140 C   0  0  0  0  0  0  0  0  0  0  0  0
  128.4110  126.0520   61.7420 C   0  0  0  0  0  0  0  0  0  0  0  0
  127.6880  125.1720   60.9020 C   0  0  0  0  0  0  0  0  0  0  0  0
  126.8520  125.7380   59.9180 C   0  0  0  0  0  0  0  0  0  0  0  0
  126.1400  124.9300   59.0580 O   0  0  0  0  0  0  0  0  0  0  0  0
  127.8210  123.6710   61.0900 C   0  0  0  0  0  0  0  0  0  0  0  0
  127.2630  122.8240   60.3900 O   0  0  0  0  0  0  0  0  0  0  0  0
  128.6260  123.3560   62.2590 C   0  0  0  0  0  0  0  0  0  0  0  0
  128.1280  122.5490   63.2320 C   0  0  0  0  0  0  0  0  0  0  0  0
  128.6980  122.4690   64.6560 C   0  0  0  0  0  0  0  0  0  0  0  0
  129.7300  123.6020   64.9240 C   0  0  0  0  0  0  0  0  0  0  0  0
  130.6310  123.7430   63.6890 C   0  0  2  0  0  0  0  0  0  0  0  0
  131.9340  124.5510   63.6960 C   0  0  0  0  0  0  0  0  0  0  0  0
  131.8620  125.9030   64.4320 C   0  0  0  0  0  0  0  0  0  0  0  0
  133.1490  123.7240   64.1660 C   0  0  0  0  0  0  0  0  0  0  0  0
  132.1280  124.7940   62.2910 O   0  0  0  0  0  0  0  0  0  0  0  0
  131.0410  124.3330   61.4530 C   0  0  2  0  0  0  0  0  0  0  0  0
  131.4370  122.9450   60.8440 C   0  0  0  0  0  0  0  0  0  0  0  0
  132.5400  123.0770   59.8030 C   0  0  0  0  0  0  0  0  0  0  0  0
  132.8910  124.2180   59.1750 C   0  0  0  0  0  0  0  0  0  0  0  0
  134.0460  124.2870   58.1800 C   0  0  0  0  0  0  0  0  0  0  0  0
  132.1570  125.4760   59.3880 C   0  0  0  0  0  0  0  0  0  0  0  0
  132.4230  126.5150   58.7810 O   0  0  0  0  0  0  0  0  0  0  0  0
  130.9460  125.4150   60.3360 C   0  0  0  0  0  0  0  0  0  0  0  0
  129.8440  124.2650   62.4790 C   0  0  1  0  0  0  0  0  0  0  0  0
  129.2870  125.5740   62.7180 O   0  0  0  0  0  0  0  0  0  0  0  0
  132.3753  133.4362   57.2551 H   0  0  0  0  0  0  0  0  0  0  0  0
  132.1872  132.1994   55.9661 H   0  0  0  0  0  0  0  0  0  0  0  0
  131.1449  133.6624   55.9661 H   0  0  0  0  0  0  0  0  0  0  0  0
  131.1061  131.1686   59.2868 H   0  0  0  0  0  0  0  0  0  0  0  0
  130.6170  130.0923   57.9344 H   0  0  0  0  0  0  0  0  0  0  0  0
  132.2450  130.8514   57.9344 H   0  0  0  0  0  0  0  0  0  0  0  0
  129.0879  133.4655   56.8667 H   0  0  0  0  0  0  0  0  0  0  0  0
  128.6211  131.3359   59.0675 H   0  0  0  0  0  0  0  0  0  0  0  0
  127.6409  132.8409   58.7466 H   0  0  0  0  0  0  0  0  0  0  0  0
  126.2074  131.6396   57.5882 H   0  0  0  0  0  0  0  0  0  0  0  0
  127.6048  131.2565   56.4209 H   0  0  0  0  0  0  0  0  0  0  0  0
  128.8524  128.5081   58.0394 H   0  0  0  0  0  0  0  0  0  0  0  0
  127.9066  128.0594   56.5797 H   0  0  0  0  0  0  0  0  0  0  0  0
  128.9036  129.5536   56.5797 H   0  0  0  0  0  0  0  0  0  0  0  0
  125.2492  129.8471   58.7026 H   0  0  0  0  0  0  0  0  0  0  0  0
  124.7244  127.5654   59.0212 H   0  0  0  0  0  0  0  0  0  0  0  0
  125.9613  127.0963   57.7701 H   0  0  0  0  0  0  0  0  0  0  0  0
  129.9067  127.7033   63.0500 H   0  0  0  0  0  0  0  0  0  0  0  0
  129.5395  129.1500   62.0032 H   0  0  0  0  0  0  0  0  0  0  0  0
  127.7500  129.8714   63.4697 H   0  0  0  0  0  0  0  0  0  0  0  0
  127.6124  128.9335   67.0096 H   0  0  0  0  0  0  0  0  0  0  0  0
  127.3828  130.2899   65.8546 H   0  0  0  0  0  0  0  0  0  0  0  0
  126.2369  128.9066   65.8546 H   0  0  0  0  0  0  0  0  0  0  0  0
  128.8281  127.2539   66.6138 H   0  0  0  0  0  0  0  0  0  0  0  0
  128.3036  126.3414   65.1581 H   0  0  0  0  0  0  0  0  0  0  0  0
  129.8794  127.2037   65.1581 H   0  0  0  0  0  0  0  0  0  0  0  0
  125.8160  124.1350   59.4850 H   0  0  0  0  0  0  0  0  0  0  0  0
  127.2641  121.9144   62.9849 H   0  0  0  0  0  0  0  0  0  0  0  0
  127.8721  122.5605   65.3768 H   0  0  0  0  0  0  0  0  0  0  0  0
  129.2113  121.5025   64.7675 H   0  0  0  0  0  0  0  0  0  0  0  0
  129.2017  124.5491   65.1078 H   0  0  0  0  0  0  0  0  0  0  0  0
  130.3376  123.3568   65.8076 H   0  0  0  0  0  0  0  0  0  0  0  0
  130.9682  122.6963   63.6611 H   0  0  0  0  0  0  0  0  0  0  0  0
  131.8712  125.7301   65.5183 H   0  0  0  0  0  0  0  0  0  0  0  0
  132.7286  126.5198   64.1515 H   0  0  0  0  0  0  0  0  0  0  0  0
  130.9348  126.4242   64.1515 H   0  0  0  0  0  0  0  0  0  0  0  0
  133.1766  123.7052   65.2655 H   0  0  0  0  0  0  0  0  0  0  0  0
  133.0629  122.6961   63.7838 H   0  0  0  0  0  0  0  0  0  0  0  0
  134.0736  124.1811   63.7838 H   0  0  0  0  0  0  0  0  0  0  0  0
  131.7885  122.2885   61.6536 H   0  0  0  0  0  0  0  0  0  0  0  0
  130.5495  122.5234   60.3494 H   0  0  0  0  0  0  0  0  0  0  0  0
  133.0974  122.1656   59.5410 H   0  0  0  0  0  0  0  0  0  0  0  0
  134.9985  124.3439   58.7273 H   0  0  0  0  0  0  0  0  0  0  0  0
  134.0396  123.3869   57.5478 H   0  0  0  0  0  0  0  0  0  0  0  0
  133.9325  125.1800   57.5478 H   0  0  0  0  0  0  0  0  0  0  0  0
  130.8410  126.3973   60.8199 H   0  0  0  0  0  0  0  0  0  0  0  0
  130.0810  125.1412   59.7141 H   0  0  0  0  0  0  0  0  0  0  0  0
  1  2  1  0
  2  3  1  0
  2  4  2  3
  4  5  1  0
  5  6  1  0
  6  7  1  0
  7  8  1  0
  7  9  2  0
  9 10  1  0
 10 11  1  0
 11 12  2  0
 12 13  1  0
 12 14  1  0
 14 15  1  0
 15 16  1  0
 16 17  2  3
 17 18  1  0
 17 19  1  0
 14 20  2  0
 20 21  1  0
 21 22  2  0
 22 23  1  0
 21 24  1  0
 24 25  2  0
 24 26  1  0
 26 27  2  0
 27 28  1  0
 28 29  1  0
 29 30  1  0
 30 31  1  0
 31 32  1  0
 31 33  1  0
 31 34  1  0
 35 34  1  1
 35 36  1  0
 36 37  1  0
 37 38  2  0
 38 39  1  0
 38 40  1  0
 40 41  2  0
 40 42  1  0
 35 43  1  0
 43 44  1  1
 22 11  1  0
 43 26  1  0
 44 20  1  0
 43 30  1  0
 42 35  1  0
  1 45  1  0
  1 46  1  0
  1 47  1  0
  3 48  1  0
  3 49  1  0
  3 50  1  0
  4 51  1  0
  5 52  1  0
  5 53  1  0
  6 54  1  0
  6 55  1  0
  8 56  1  0
  8 57  1  0
  8 58  1  0
  9 59  1  0
 10 60  1  0
 10 61  1  0
 15 62  1  0
 15 63  1  0
 16 64  1  0
 18 65  1  0
 18 66  1  0
 18 67  1  0
 19 68  1  0
 19 69  1  0
 19 70  1  0
 23 71  1  0
 27 72  1  0
 28 73  1  0
 28 74  1  0
 29 75  1  0
 29 76  1  0
 30 77  1  6
 32 78  1  0
 32 79  1  0
 32 80  1  0
 33 81  1  0
 33 82  1  0
 33 83  1  0
 36 84  1  0
 36 85  1  0
 37 86  1  0
 39 87  1  0
 39 88  1  0
 39 89  1  0
 42 90  1  0
 42 91  1  0
M  CHG  1  13  -1
M  END
>  <Binding energies>  (1) 
[-6.61]

>  <Ligand effiencies>  (1) 
[-0.1468888888888889]

>  <Interactions>  (1) 
["V-A:ILE:369:CG2:3237, V-A:ASP:366:CA:3210, V-A:GLY:454:CA:4049, V-A:ILE:369:CB:3236, V-B:GLU:543:CB:9878, V-A:ILE:538:CB:4862, V-B:ASP:366:CG:8184, V-B:ALA:541:CB:9864, H-A:TYR:531:OH:4795, V-A:TYR:484:CE2:4346, V-B:TYR:539:CE2:9848, V-B:GLU:543:CG:9879, V-A:ASP:366:CG:3213, V-A:ILE:538:CG2:4863, V-A:TYR:539:CD1:4873, V-A:LEU:363:CD1:3189, V-B:TYR:539:CZ:9849, V-A:ILE:538:CA:4860, H-B:ALA:541:N:9863, V-B:ASP:366:CB:8183, V-A:GLU:543:CD:4908, H-B:ASP:366:OD1:8185, V-B:TYR:484:CZ:9318, V-A:ASP:366:C:3208, V-B:TYR:539:CD2:9846, V-A:GLU:543:CG:4907, V-A:MET:535:CE:4835, V-B:GLU:543:CD:9880, V-A:ASP:366:CB:3212, V-A:ARG:545:CZ:4926, V-A:PRO:540:N:4884, V-A:PRO:540:CB:4885, V-B:ALA:541:CA:9862, V-A:PRO:540:CD:4887, V-A:TYR:539:CE1:4875"]

$$$$
ZINC2356356419-again1
     RDKit          3D

 92 96  0  0  0  0  0  0  0  0999 V2000
  129.3550  128.1020   71.4010 C   0  0  0  0  0  0  0  0  0  0  0  0
  129.8270  127.7920   69.9900 C   0  0  0  0  0  0  0  0  0  0  0  0
  131.2990  128.0960   69.7490 C   0  0  0  0  0  0  0  0  0  0  0  0
  128.9780  127.3040   69.0590 C   0  0  0  0  0  0  0  0  0  0  0  0
  129.2920  126.9200   67.6220 C   0  0  0  0  0  0  0  0  0  0  0  0
  129.8360  125.4830   67.4810 C   0  0  0  0  0  0  0  0  0  0  0  0
  129.8190  124.8460   66.0880 C   0  0  0  0  0  0  0  0  0  0  0  0
  129.7860  125.8760   64.9670 C   0  0  0  0  0  0  0  0  0  0  0  0
  129.8570  123.5060   65.8810 C   0  0  0  0  0  0  0  0  0  0  0  0
  129.8020  122.7320   64.5650 C   0  0  0  0  0  0  0  0  0  0  0  0
  129.6430  123.5660   63.2800 C   0  0  0  0  0  0  0  0  0  0  0  0
  130.7380  124.2580   62.7410 C   0  0  0  0  0  0  0  0  0  0  0  0
  131.9670  124.1860   63.3550 O   0  0  0  0  0  0  0  0  0  0  0  0
  130.5900  125.0530   61.5970 C   0  0  0  0  0  0  0  0  0  0  0  0
  131.7890  125.8200   61.0250 C   0  0  0  0  0  0  0  0  0  0  0  0
  132.7410  124.9260   60.2440 C   0  0  0  0  0  0  0  0  0  0  0  0
  132.9500  124.9320   58.9110 C   0  0  0  0  0  0  0  0  0  0  0  0
  133.9540  123.9930   58.2650 C   0  0  0  0  0  0  0  0  0  0  0  0
  132.2250  125.8440   57.9310 C   0  0  0  0  0  0  0  0  0  0  0  0
  129.3270  125.1510   60.9950 C   0  0  0  0  0  0  0  0  0  0  0  0
  128.2150  124.4180   61.4750 C   0  0  0  0  0  0  0  0  0  0  0  0
  128.3960  123.6250   62.6300 C   0  0  0  0  0  0  0  0  0  0  0  0
  127.3560  122.8920   63.1550 O   0  0  0  0  0  0  0  0  0  0  0  0
  126.8850  124.5060   60.7480 C   0  0  0  0  0  0  0  0  0  0  0  0
  125.8610  123.9130   61.0890 O   0  0  0  0  0  0  0  0  0  0  0  0
  126.9940  125.3330   59.5540 C   0  0  0  0  0  0  0  0  0  0  0  0
  126.5960  124.8480   58.3490 C   0  0  0  0  0  0  0  0  0  0  0  0
  127.0190  125.4490   57.0000 C   0  0  0  0  0  0  0  0  0  0  0  0
  128.1520  126.5040   57.1720 C   0  0  0  0  0  0  0  0  0  0  0  0
  127.8280  127.3760   58.3920 C   0  0  2  0  0  0  0  0  0  0  0  0
  128.5650  128.6860   58.7020 C   0  0  0  0  0  0  0  0  0  0  0  0
  130.0970  128.6410   58.5380 C   0  0  0  0  0  0  0  0  0  0  0  0
  127.9560  129.8970   57.9670 C   0  0  0  0  0  0  0  0  0  0  0  0
  128.2620  128.8600   60.0960 O   0  0  0  0  0  0  0  0  0  0  0  0
  127.5700  127.7410   60.6980 C   0  0  2  0  0  0  0  0  0  0  0  0
  126.0500  128.1000   60.7880 C   0  0  0  0  0  0  0  0  0  0  0  0
  125.7870  129.1850   61.8230 C   0  0  0  0  0  0  0  0  0  0  0  0
  126.6270  129.5390   62.8170 C   0  0  0  0  0  0  0  0  0  0  0  0
  126.3240  130.6760   63.7870 C   0  0  0  0  0  0  0  0  0  0  0  0
  127.8930  128.8230   63.0540 C   0  0  0  0  0  0  0  0  0  0  0  0
  128.6380  129.0730   64.0010 O   0  0  0  0  0  0  0  0  0  0  0  0
  128.1900  127.6350   62.1230 C   0  0  0  0  0  0  0  0  0  0  0  0
  127.8970  126.5680   59.6920 C   0  0  1  0  0  0  0  0  0  0  0  0
  129.2170  126.0260   59.9140 O   0  0  0  0  0  0  0  0  0  0  0  0
  130.0459  127.6482   72.1268 H   0  0  0  0  0  0  0  0  0  0  0  0
  129.3318  129.1918   71.5487 H   0  0  0  0  0  0  0  0  0  0  0  0
  128.3457  127.6904   71.5487 H   0  0  0  0  0  0  0  0  0  0  0  0
  131.8144  128.2024   70.7150 H   0  0  0  0  0  0  0  0  0  0  0  0
  131.7548  127.2730   69.1789 H   0  0  0  0  0  0  0  0  0  0  0  0
  131.3915  129.0322   69.1789 H   0  0  0  0  0  0  0  0  0  0  0  0
  127.9344  127.1683   69.3793 H   0  0  0  0  0  0  0  0  0  0  0  0
  128.3699  127.0044   67.0283 H   0  0  0  0  0  0  0  0  0  0  0  0
  130.0773  127.6029   67.2657 H   0  0  0  0  0  0  0  0  0  0  0  0
  130.8809  125.4927   67.8245 H   0  0  0  0  0  0  0  0  0  0  0  0
  129.1463  124.8662   68.0759 H   0  0  0  0  0  0  0  0  0  0  0  0
  129.7536  126.8871   65.3989 H   0  0  0  0  0  0  0  0  0  0  0  0
  130.6880  125.7712   64.3461 H   0  0  0  0  0  0  0  0  0  0  0  0
  128.8926  125.7137   64.3461 H   0  0  0  0  0  0  0  0  0  0  0  0
  129.9390  122.8898   66.7885 H   0  0  0  0  0  0  0  0  0  0  0  0
  130.7359  122.1576   64.4765 H   0  0  0  0  0  0  0  0  0  0  0  0
  128.8908  122.1190   64.6272 H   0  0  0  0  0  0  0  0  0  0  0  0
  132.1790  124.9760   63.8550 H   0  0  0  0  0  0  0  0  0  0  0  0
  131.4152  126.6071   60.3536 H   0  0  0  0  0  0  0  0  0  0  0  0
  132.3492  126.2403   61.8732 H   0  0  0  0  0  0  0  0  0  0  0  0
  133.3209  124.1968   60.8288 H   0  0  0  0  0  0  0  0  0  0  0  0
  134.5185  123.4650   59.0477 H   0  0  0  0  0  0  0  0  0  0  0  0
  133.4218  123.2610   57.6397 H   0  0  0  0  0  0  0  0  0  0  0  0
  134.6488  124.5729   57.6397 H   0  0  0  0  0  0  0  0  0  0  0  0
  131.6350  126.5862   58.4886 H   0  0  0  0  0  0  0  0  0  0  0  0
  132.9612  126.3613   57.2981 H   0  0  0  0  0  0  0  0  0  0  0  0
  131.5550  125.2435   57.2981 H   0  0  0  0  0  0  0  0  0  0  0  0
  126.5180  123.3550   63.1010 H   0  0  0  0  0  0  0  0  0  0  0  0
  125.9307  123.9721   58.3387 H   0  0  0  0  0  0  0  0  0  0  0  0
  127.3799  124.6409   56.3467 H   0  0  0  0  0  0  0  0  0  0  0  0
  126.1457  125.9511   56.5582 H   0  0  0  0  0  0  0  0  0  0  0  0
  129.1138  125.9930   57.3267 H   0  0  0  0  0  0  0  0  0  0  0  0
  128.2222  127.1304   56.2705 H   0  0  0  0  0  0  0  0  0  0  0  0
  126.8355  127.7024   58.0480 H   0  0  0  0  0  0  0  0  0  0  0  0
  130.5717  128.6271   59.5302 H   0  0  0  0  0  0  0  0  0  0  0  0
  130.3799  127.7342   57.9834 H   0  0  0  0  0  0  0  0  0  0  0  0
  130.4327  129.5297   57.9834 H   0  0  0  0  0  0  0  0  0  0  0  0
  127.5891  130.6266   58.7039 H   0  0  0  0  0  0  0  0  0  0  0  0
  128.7246  130.3677   57.3364 H   0  0  0  0  0  0  0  0  0  0  0  0
  127.1198  129.5606   57.3364 H   0  0  0  0  0  0  0  0  0  0  0  0
  125.7091  128.4556   59.8045 H   0  0  0  0  0  0  0  0  0  0  0  0
  125.5021  127.1961   61.0926 H   0  0  0  0  0  0  0  0  0  0  0  0
  124.8315  129.7257   61.7544 H   0  0  0  0  0  0  0  0  0  0  0  0
  126.4210  130.3119   64.8205 H   0  0  0  0  0  0  0  0  0  0  0  0
  127.0341  131.4994   63.6201 H   0  0  0  0  0  0  0  0  0  0  0  0
  125.2984  131.0368   63.6201 H   0  0  0  0  0  0  0  0  0  0  0  0
  129.2815  127.5518   62.0144 H   0  0  0  0  0  0  0  0  0  0  0  0
  127.7281  126.7544   62.5933 H   0  0  0  0  0  0  0  0  0  0  0  0
  1  2  1  0
  2  3  1  0
  2  4  2  3
  4  5  1  0
  5  6  1  0
  6  7  1  0
  7  8  1  0
  7  9  2  0
  9 10  1  0
 10 11  1  0
 11 12  2  0
 12 13  1  0
 12 14  1  0
 14 15  1  0
 15 16  1  0
 16 17  2  3
 17 18  1  0
 17 19  1  0
 14 20  2  0
 20 21  1  0
 21 22  2  0
 22 23  1  0
 21 24  1  0
 24 25  2  0
 24 26  1  0
 26 27  2  0
 27 28  1  0
 28 29  1  0
 29 30  1  0
 30 31  1  0
 31 32  1  0
 31 33  1  0
 31 34  1  0
 35 34  1  6
 35 36  1  0
 36 37  1  0
 37 38  2  0
 38 39  1  0
 38 40  1  0
 40 41  2  0
 40 42  1  0
 35 43  1  0
 43 44  1  1
 22 11  1  0
 43 26  1  0
 44 20  1  0
 43 30  1  0
 42 35  1  0
  1 45  1  0
  1 46  1  0
  1 47  1  0
  3 48  1  0
  3 49  1  0
  3 50  1  0
  4 51  1  0
  5 52  1  0
  5 53  1  0
  6 54  1  0
  6 55  1  0
  8 56  1  0
  8 57  1  0
  8 58  1  0
  9 59  1  0
 10 60  1  0
 10 61  1  0
 13 62  1  0
 15 63  1  0
 15 64  1  0
 16 65  1  0
 18 66  1  0
 18 67  1  0
 18 68  1  0
 19 69  1  0
 19 70  1  0
 19 71  1  0
 23 72  1  0
 27 73  1  0
 28 74  1  0
 28 75  1  0
 29 76  1  0
 29 77  1  0
 30 78  1  6
 32 79  1  0
 32 80  1  0
 32 81  1  0
 33 82  1  0
 33 83  1  0
 33 84  1  0
 36 85  1  0
 36 86  1  0
 37 87  1  0
 39 88  1  0
 39 89  1  0
 39 90  1  0
 42 91  1  0
 42 92  1  0
M  END
>  <Binding energies>  (1) 
[-8.95]

>  <Ligand effiencies>  (1) 
[-0.19456521739130433]

>  <Interactions>  (1) 
["V-A:ILE:369:CG2:3237, V-A:ASP:366:CA:3210, V-A:ARG:545:CA:4919, V-A:GLU:543:CA:4904, V-B:HIS:456:CD2:9039, V-A:ILE:369:CB:3236, V-A:GLU:543:C:4902, V-B:GLU:543:CB:9878, V-B:ALA:541:CB:9864, V-B:ASP:366:CG:8184, V-B:TYR:539:CE2:9848, V-A:TYR:484:CE2:4346, H-B:ALA:541:O:9861, V-B:GLU:543:CG:9879, V-A:GLY:544:C:4912, V-A:ASP:366:CG:3213, V-B:TYR:539:CZ:9849, H-B:GLU:543:OE1:9881, H-B:ALA:541:N:9863, V-A:GLU:543:CD:4908, V-A:TYR:484:CZ:4347, V-A:ARG:545:CG:4922, V-B:HIS:456:CE1:9041, V-B:GLU:543:CA:9876, V-A:HIS:456:CE1:4070, V-A:ASP:366:C:3208, V-B:GLU:543:CD:9880, V-A:ASP:366:CB:3212, V-A:LEU:475:CD2:4259, V-A:GLU:543:CB:4906"]

$$$$
ZINC2356359230
     RDKit          3D

121130  0  0  0  0  0  0  0  0999 V2000
  132.8100  131.1620   57.0390 C   0  0  0  0  0  0  0  0  0  0  0  0
  131.6070  131.7370   56.5400 O   0  0  0  0  0  0  0  0  0  0  0  0
  130.5310  131.6060   57.3880 C   0  0  0  0  0  0  0  0  0  0  0  0
  130.0200  132.7360   58.0320 C   0  0  0  0  0  0  0  0  0  0  0  0
  130.5970  133.9620   57.8100 O   0  0  0  0  0  0  0  0  0  0  0  0
  128.9310  132.6260   58.9010 C   0  0  0  0  0  0  0  0  0  0  0  0
  128.4720  133.7860   59.5010 O   0  0  0  0  0  0  0  0  0  0  0  0
  128.3570  133.8550   60.9190 C   0  0  0  0  0  0  0  0  0  0  0  0
  127.0300  133.2070   61.3550 C   0  0  0  0  0  0  0  0  0  0  0  0
  127.1440  132.1910   62.5190 C   0  0  0  0  0  0  0  0  0  0  0  0
  125.7950  131.9250   63.2160 C   0  0  0  0  0  0  0  0  0  0  0  0
  128.2060  132.6390   63.5390 C   0  0  0  0  0  0  0  0  0  0  0  0
  128.3680  131.3600   59.1120 C   0  0  0  0  0  0  0  0  0  0  0  0
  128.8590  130.2030   58.4870 C   0  0  0  0  0  0  0  0  0  0  0  0
  128.1520  128.8480   58.7990 C   0  0  1  0  0  0  0  0  0  0  0  0
  127.2670  128.4410   57.5780 C   0  0  0  0  0  0  0  0  0  0  0  0
  126.6490  127.0210   57.6590 C   0  0  0  0  0  0  0  0  0  0  0  0
  127.6380  125.9390   58.2170 C   0  0  2  0  0  0  0  0  0  0  0  0
  126.8430  124.2710   58.0720 S   0  0  0  0  0  0  0  0  0  0  0  0
  128.2860  122.7700   57.9420 S   0  0  0  0  0  0  0  0  0  0  0  0
  129.3480  122.9040   59.4270 C   0  0  1  0  0  0  0  0  0  0  0  0
  129.4230  121.6290   60.3220 C   0  0  0  0  0  0  0  0  0  0  0  0
  130.1990  122.0980   61.5900 C   0  0  1  0  0  0  0  0  0  0  0  0
  129.8650  121.6330   63.0420 C   0  0  0  0  0  0  0  0  0  0  0  0
  128.6670  122.4440   63.7270 C   0  0  0  0  0  0  0  0  0  0  0  0
  128.4480  124.0350   63.6470 C   0  0  1  0  0  0  0  0  0  0  0  0
  129.0560  124.9290   64.7390 C   0  0  0  0  0  0  0  0  0  0  0  0
  129.7600  124.4070   65.8390 C   0  0  0  0  0  0  0  0  0  0  0  0
  130.3050  125.2320   66.8180 C   0  0  0  0  0  0  0  0  0  0  0  0
  130.9820  124.6910   67.8780 O   0  0  0  0  0  0  0  0  0  0  0  0
  130.1680  126.6080   66.7080 C   0  0  0  0  0  0  0  0  0  0  0  0
  129.4830  127.1480   65.6270 C   0  0  0  0  0  0  0  0  0  0  0  0
  128.8930  126.3330   64.6440 C   0  0  0  0  0  0  0  0  0  0  0  0
  128.2150  126.9550   63.4420 C   0  0  0  0  0  0  0  0  0  0  0  0
  127.5980  128.2260   63.4830 C   0  0  0  0  0  0  0  0  0  0  0  0
  127.3590  128.8020   64.7190 O   0  0  0  0  0  0  0  0  0  0  0  0
  128.2130  129.8280   65.2170 C   0  0  0  0  0  0  0  0  0  0  0  0
  128.1900  129.7700   66.7500 C   0  0  0  0  0  0  0  0  0  0  0  0
  128.7240  130.9540   67.3070 O   0  0  0  0  0  0  0  0  0  0  0  0
  127.2360  128.8540   62.2840 C   0  0  0  0  0  0  0  0  0  0  0  0
  127.5040  128.2490   61.0670 C   0  0  0  0  0  0  0  0  0  0  0  0
  128.0090  126.9390   60.9850 C   0  0  0  0  0  0  0  0  0  0  0  0
  128.2700  126.2540   62.2170 C   0  0  0  0  0  0  0  0  0  0  0  0
  128.6160  124.7430   62.2310 C   0  0  2  0  0  0  0  0  0  0  0  0
  127.3880  124.1540   61.4620 C   0  0  0  0  0  0  0  0  0  0  0  0
  126.5120  123.2520   62.1370 O   0  0  0  0  0  0  0  0  0  0  0  0
  130.1390  124.8130   61.7220 C   0  0  0  0  0  0  0  0  0  0  0  0
  131.3240  126.1810   61.4630 S   0  0  0  0  0  0  0  0  0  0  0  0
  131.8220  126.1260   59.4390 S   0  0  0  0  0  0  0  0  0  0  0  0
  130.7530  124.9040   58.5760 C   0  0  0  0  0  0  0  0  0  0  0  0
  130.7470  123.5500   59.2710 C   0  0  0  0  0  0  0  0  0  0  0  0
  131.8300  123.1200   59.9990 C   0  0  0  0  0  0  0  0  0  0  0  0
  133.1570  123.7250   59.9140 C   0  0  0  0  0  0  0  0  0  0  0  0
  133.9500  123.7610   58.7560 C   0  0  0  0  0  0  0  0  0  0  0  0
  135.1440  124.3960   59.0650 C   0  0  0  0  0  0  0  0  0  0  0  0
  135.1020  124.7360   60.3910 N   0  0  0  0  0  0  0  0  0  0  0  0
  133.9060  124.3290   60.9200 C   0  0  0  0  0  0  0  0  0  0  0  0
  131.6810  122.1070   61.1520 C   0  0  0  0  0  0  0  0  0  0  0  0
  128.4080  126.4220   59.5420 C   0  0  2  0  0  0  0  0  0  0  0  0
  129.1820  127.6770   59.0120 C   0  0  2  0  0  0  0  0  0  0  0  0
  130.3210  128.0160   59.7980 O   0  0  0  0  0  0  0  0  0  0  0  0
  127.2360  128.9750   59.9210 O   0  0  0  0  0  0  0  0  0  0  0  0
  129.9700  130.3440   57.6230 C   0  0  0  0  0  0  0  0  0  0  0  0
  130.5550  129.2760   56.9900 O   0  0  0  0  0  0  0  0  0  0  0  0
  132.7919  131.1707   58.1388 H   0  0  0  0  0  0  0  0  0  0  0  0
  132.8965  130.1252   56.6819 H   0  0  0  0  0  0  0  0  0  0  0  0
  133.6711  131.7459   56.6819 H   0  0  0  0  0  0  0  0  0  0  0  0
  131.3650  133.9110   57.2360 H   0  0  0  0  0  0  0  0  0  0  0  0
  129.1977  133.3178   61.3822 H   0  0  0  0  0  0  0  0  0  0  0  0
  128.3754  134.9073   61.2390 H   0  0  0  0  0  0  0  0  0  0  0  0
  126.3464  134.0094   61.6693 H   0  0  0  0  0  0  0  0  0  0  0  0
  126.6683  132.6372   60.4864 H   0  0  0  0  0  0  0  0  0  0  0  0
  127.4624  131.2379   62.0716 H   0  0  0  0  0  0  0  0  0  0  0  0
  125.9342  131.9524   64.3068 H   0  0  0  0  0  0  0  0  0  0  0  0
  125.0703  132.6976   62.9193 H   0  0  0  0  0  0  0  0  0  0  0  0
  125.4179  130.9352   62.9193 H   0  0  0  0  0  0  0  0  0  0  0  0
  127.8257  132.4786   64.5586 H   0  0  0  0  0  0  0  0  0  0  0  0
  129.1247  132.0518   63.3937 H   0  0  0  0  0  0  0  0  0  0  0  0
  128.4265  133.7068   63.3937 H   0  0  0  0  0  0  0  0  0  0  0  0
  127.5089  131.2696   59.7931 H   0  0  0  0  0  0  0  0  0  0  0  0
  126.4444  129.1667   57.4962 H   0  0  0  0  0  0  0  0  0  0  0  0
  127.9344  128.4357   56.7036 H   0  0  0  0  0  0  0  0  0  0  0  0
  125.7691  127.0613   58.3180 H   0  0  0  0  0  0  0  0  0  0  0  0
  126.3884  126.7226   56.6328 H   0  0  0  0  0  0  0  0  0  0  0  0
  128.5429  125.7979   57.6078 H   0  0  0  0  0  0  0  0  0  0  0  0
  128.7564  123.6588   59.9658 H   0  0  0  0  0  0  0  0  0  0  0  0
  128.4147  121.2795   60.5886 H   0  0  0  0  0  0  0  0  0  0  0  0
  129.9147  120.7859   59.8145 H   0  0  0  0  0  0  0  0  0  0  0  0
  129.7893  123.0808   61.8661 H   0  0  0  0  0  0  0  0  0  0  0  0
  129.5878  120.5690   63.0091 H   0  0  0  0  0  0  0  0  0  0  0  0
  130.7629  121.8188   63.6497 H   0  0  0  0  0  0  0  0  0  0  0  0
  127.7463  122.0032   63.3171 H   0  0  0  0  0  0  0  0  0  0  0  0
  128.9469  122.3418   64.7859 H   0  0  0  0  0  0  0  0  0  0  0  0
  127.3716  123.9724   63.8649 H   0  0  0  0  0  0  0  0  0  0  0  0
  129.8830  123.3175   65.9277 H   0  0  0  0  0  0  0  0  0  0  0  0
  131.8570  124.3770   67.6400 H   0  0  0  0  0  0  0  0  0  0  0  0
  130.6001  127.2689   67.4738 H   0  0  0  0  0  0  0  0  0  0  0  0
  129.3998  128.2412   65.5373 H   0  0  0  0  0  0  0  0  0  0  0  0
  129.2388  129.6673   64.8538 H   0  0  0  0  0  0  0  0  0  0  0  0
  127.8665  130.8124   64.8691 H   0  0  0  0  0  0  0  0  0  0  0  0
  127.1511  129.6485   67.0904 H   0  0  0  0  0  0  0  0  0  0  0  0
  128.8039  128.9186   67.0790 H   0  0  0  0  0  0  0  0  0  0  0  0
  129.0750  131.4950   66.5960 H   0  0  0  0  0  0  0  0  0  0  0  0
  126.7359  129.8334   62.3092 H   0  0  0  0  0  0  0  0  0  0  0  0
  126.7777  125.0067   61.1296 H   0  0  0  0  0  0  0  0  0  0  0  0
  127.8440  123.5362   60.6744 H   0  0  0  0  0  0  0  0  0  0  0  0
  125.9810  123.7500   62.7620 H   0  0  0  0  0  0  0  0  0  0  0  0
  130.6681  124.1549   62.4270 H   0  0  0  0  0  0  0  0  0  0  0  0
  129.9020  124.6741   60.6569 H   0  0  0  0  0  0  0  0  0  0  0  0
  129.7240  125.2918   58.5477 H   0  0  0  0  0  0  0  0  0  0  0  0
  131.1560  124.7605   57.5626 H   0  0  0  0  0  0  0  0  0  0  0  0
  133.6721  123.3551   57.7721 H   0  0  0  0  0  0  0  0  0  0  0  0
  135.9744  124.5912   58.3705 H   0  0  0  0  0  0  0  0  0  0  0  0
  135.8390  125.2050   60.8990 H   0  0  0  0  0  0  0  0  0  0  0  0
  133.5899  124.4579   61.9657 H   0  0  0  0  0  0  0  0  0  0  0  0
  131.9750  121.1042   60.8084 H   0  0  0  0  0  0  0  0  0  0  0  0
  132.3275  122.3900   61.9958 H   0  0  0  0  0  0  0  0  0  0  0  0
  128.6991  125.4072   59.8511 H   0  0  0  0  0  0  0  0  0  0  0  0
  129.6331  127.4431   58.0364 H   0  0  0  0  0  0  0  0  0  0  0  0
  130.0320  128.1800   60.6990 H   0  0  0  0  0  0  0  0  0  0  0  0
  131.2850  129.5380   56.4240 H   0  0  0  0  0  0  0  0  0  0  0  0
  1  2  1  0
  2  3  1  0
  3  4  2  0
  4  5  1  0
  4  6  1  0
  6  7  1  0
  7  8  1  0
  8  9  1  0
  9 10  1  0
 10 11  1  0
 10 12  1  0
  6 13  2  0
 13 14  1  0
 15 14  1  6
 15 16  1  0
 16 17  1  0
 17 18  1  0
 18 19  1  0
 19 20  1  0
 20 21  1  0
 21 22  1  0
 22 23  1  0
 23 24  1  0
 24 25  1  0
 25 26  1  0
 26 27  1  0
 27 28  2  0
 28 29  1  0
 29 30  1  0
 29 31  2  0
 31 32  1  0
 32 33  2  0
 33 34  1  0
 34 35  2  0
 35 36  1  0
 36 37  1  0
 37 38  1  0
 38 39  1  0
 35 40  1  0
 40 41  2  0
 41 42  1  0
 42 43  2  0
 43 44  1  0
 44 45  1  6
 45 46  1  0
 44 47  1  0
 47 48  1  0
 48 49  1  0
 49 50  1  0
 50 51  1  0
 51 52  2  0
 52 53  1  0
 53 54  1  0
 54 55  2  0
 55 56  1  0
 56 57  1  0
 52 58  1  0
 42 59  1  0
 59 60  1  0
 60 61  1  0
 41 62  1  0
 14 63  2  0
 63 64  1  0
 63  3  1  0
 60 15  1  0
 62 15  1  0
 59 18  1  0
 51 21  1  0
 57 53  2  0
 58 23  1  0
 44 26  1  0
 33 27  1  0
 43 34  1  0
  1 65  1  0
  1 66  1  0
  1 67  1  0
  5 68  1  0
  8 69  1  0
  8 70  1  0
  9 71  1  0
  9 72  1  0
 10 73  1  0
 11 74  1  0
 11 75  1  0
 11 76  1  0
 12 77  1  0
 12 78  1  0
 12 79  1  0
 13 80  1  0
 16 81  1  0
 16 82  1  0
 17 83  1  0
 17 84  1  0
 18 85  1  6
 21 86  1  1
 22 87  1  0
 22 88  1  0
 23 89  1  1
 24 90  1  0
 24 91  1  0
 25 92  1  0
 25 93  1  0
 26 94  1  1
 28 95  1  0
 30 96  1  0
 31 97  1  0
 32 98  1  0
 37 99  1  0
 37100  1  0
 38101  1  0
 38102  1  0
 39103  1  0
 40104  1  0
 45105  1  0
 45106  1  0
 46107  1  0
 47108  1  0
 47109  1  0
 50110  1  0
 50111  1  0
 54112  1  0
 55113  1  0
 56114  1  0
 57115  1  0
 58116  1  0
 58117  1  0
 59118  1  1
 60119  1  6
 61120  1  0
 64121  1  0
M  END
>  <Binding energies>  (1) 
[12.3]

>  <Ligand effiencies>  (1) 
[0.164]

>  <Interactions>  (1) 
["V-A:ILE:369:CG2:3237, V-A:ASP:366:CA:3210, V-B:PRO:540:CA:9855, V-A:ILE:369:CB:3236, H-A:CYS:365:O:3206, V-B:GLU:543:CB:9878, V-A:PRO:540:C:4881, V-B:ALA:541:CB:9864, H-A:TYR:531:OH:4795, V-A:TYR:484:CE2:4346, V-B:TYR:539:CE2:9848, H-B:ALA:541:O:9861, V-B:GLU:543:CG:9879, V-B:LEU:475:CD2:9230, V-B:TYR:539:C:9839, V-A:ASP:366:CG:3213, V-A:TYR:539:CD1:4873, V-A:LEU:363:CD1:3189, V-B:TYR:484:CE2:9317, V-B:TYR:539:CZ:9849, H-B:GLU:543:OE1:9881, V-A:TYR:531:CE2:4793, V-B:TYR:531:CZ:9766, V-A:ALA:541:CB:4892, H-B:ALA:541:N:9863, V-A:TYR:484:CZ:4347, V-A:GLU:543:CD:4908, H-B:TYR:484:OH:9319, V-B:GLU:543:CA:9876, V-B:HIS:456:CE1:9041, V-A:HIS:456:CE1:4070, V-A:ILE:369:CD1:3239, V-B:TYR:484:CZ:9318, V-A:ASP:366:C:3208, V-B:TYR:539:CD2:9846, V-A:GLU:543:CG:4907, V-A:TYR:531:CZ:4794, V-B:GLU:543:CD:9880, V-A:TYR:539:C:4867, V-A:ILE:369:CG1:3238, V-A:ASP:366:CB:3212, V-A:LEU:475:CD2:4259, H-A:ARG:545:NH2:4928, V-A:GLU:543:CB:4906, H-A:ASP:366:OD1:3214, V-A:PRO:540:N:4884, H-A:TYR:539:N:4870, V-A:PRO:540:CA:4883, V-B:ALA:541:CA:9862, H-A:HIS:456:NE2:4071, H-A:HIS:456:ND1:4067, H-A:TYR:484:OH:4348"]

$$$$
ZINC2356360872
     RDKit          3D

 84 90  0  0  0  0  0  0  0  0999 V2000
  126.1470  128.4840   74.1820 C   0  0  0  0  0  0  0  0  0  0  0  0
  126.4720  127.3590   73.3740 O   0  0  0  0  0  0  0  0  0  0  0  0
  127.6920  127.3180   72.7200 C   0  0  0  0  0  0  0  0  0  0  0  0
  127.8300  127.0920   71.3410 C   0  0  0  0  0  0  0  0  0  0  0  0
  129.0900  127.0650   70.7380 C   0  0  0  0  0  0  0  0  0  0  0  0
  129.2450  126.8170   69.2330 C   0  0  2  0  0  0  0  0  0  0  0  0
  130.6060  126.9420   68.8040 O   0  0  0  0  0  0  0  0  0  0  0  0
  130.8030  126.4750   67.5230 C   0  0  0  0  0  0  0  0  0  0  0  0
  132.0180  125.8590   67.2790 C   0  0  0  0  0  0  0  0  0  0  0  0
  132.3070  125.3280   66.0170 C   0  0  0  0  0  0  0  0  0  0  0  0
  133.5600  124.8220   65.7130 O   0  0  0  0  0  0  0  0  0  0  0  0
  134.6740  125.0930   66.5580 C   0  0  0  0  0  0  0  0  0  0  0  0
  131.3030  125.3320   65.0190 C   0  0  0  0  0  0  0  0  0  0  0  0
  130.0630  125.9650   65.2840 C   0  0  0  0  0  0  0  0  0  0  0  0
  129.8420  126.6230   66.5170 C   0  0  0  0  0  0  0  0  0  0  0  0
  128.6080  127.5040   66.8090 C   0  0  2  0  0  0  0  0  0  0  0  0
  128.6890  128.8040   65.9620 C   0  0  0  0  0  0  0  0  0  0  0  0
  127.1940  129.2520   65.0320 S   0  0  0  0  0  0  0  0  0  0  0  0
  127.6570  131.0500   64.1680 S   0  0  0  0  0  0  0  0  0  0  0  0
  128.3690  130.6680   62.5330 C   0  0  1  0  0  0  0  0  0  0  0  0
  129.7970  131.2540   62.4190 C   0  0  0  0  0  0  0  0  0  0  0  0
  130.5030  130.8520   61.1050 C   0  0  0  0  0  0  0  0  0  0  0  0
  130.4520  129.3270   60.8670 C   0  0  0  0  0  0  0  0  0  0  0  0
  128.9970  128.8100   60.8770 C   0  0  1  0  0  0  0  0  0  0  0  0
  128.9170  127.2990   60.5210 C   0  0  0  0  0  0  0  0  0  0  0  0
  128.5440  126.3730   61.7060 C   0  0  0  0  0  0  0  0  0  0  0  0
  129.6340  126.2740   62.8210 C   0  0  1  0  0  0  0  0  0  0  0  0
  129.0010  125.9170   64.1830 C   0  0  0  0  0  0  0  0  0  0  0  0
  130.7660  125.2660   62.5420 C   0  0  0  0  0  0  0  0  0  0  0  0
  131.0510  124.7980   61.2480 C   0  0  0  0  0  0  0  0  0  0  0  0
  131.9940  123.8010   61.0260 C   0  0  0  0  0  0  0  0  0  0  0  0
  132.2390  123.3560   59.7540 O   0  0  0  0  0  0  0  0  0  0  0  0
  132.6680  123.2400   62.1010 C   0  0  0  0  0  0  0  0  0  0  0  0
  132.4250  123.7090   63.3890 C   0  0  0  0  0  0  0  0  0  0  0  0
  131.5200  124.7580   63.6310 C   0  0  0  0  0  0  0  0  0  0  0  0
  128.3660  129.1520   62.2470 C   0  0  0  0  0  0  0  0  0  0  0  0
  128.3800  127.7540   68.3480 C   0  0  2  0  0  0  0  0  0  0  0  0
  128.5460  129.1070   68.7500 O   0  0  0  0  0  0  0  0  0  0  0  0
  130.2270  127.2600   71.5250 C   0  0  0  0  0  0  0  0  0  0  0  0
  130.1220  127.4830   72.9070 C   0  0  0  0  0  0  0  0  0  0  0  0
  131.2120  127.6790   73.7380 O   0  0  0  0  0  0  0  0  0  0  0  0
  132.0840  126.5900   74.0200 C   0  0  0  0  0  0  0  0  0  0  0  0
  128.8470  127.5100   73.4900 C   0  0  0  0  0  0  0  0  0  0  0  0
  128.7250  127.7310   74.8410 O   0  0  0  0  0  0  0  0  0  0  0  0
  126.2267  128.2081   75.2438 H   0  0  0  0  0  0  0  0  0  0  0  0
  126.8444  129.3061   73.9634 H   0  0  0  0  0  0  0  0  0  0  0  0
  125.1186  128.8076   73.9634 H   0  0  0  0  0  0  0  0  0  0  0  0
  126.9319  126.9337   70.7258 H   0  0  0  0  0  0  0  0  0  0  0  0
  128.8916  125.7842   69.0973 H   0  0  0  0  0  0  0  0  0  0  0  0
  132.7635  125.7861   68.0846 H   0  0  0  0  0  0  0  0  0  0  0  0
  134.3629  125.0173   67.6104 H   0  0  0  0  0  0  0  0  0  0  0  0
  135.4720  124.3628   66.3581 H   0  0  0  0  0  0  0  0  0  0  0  0
  135.0474  126.1082   66.3581 H   0  0  0  0  0  0  0  0  0  0  0  0
  127.7035  126.9603   66.4987 H   0  0  0  0  0  0  0  0  0  0  0  0
  128.9209  129.6349   66.6445 H   0  0  0  0  0  0  0  0  0  0  0  0
  129.4609  128.6119   65.2023 H   0  0  0  0  0  0  0  0  0  0  0  0
  127.7338  131.1407   61.7694 H   0  0  0  0  0  0  0  0  0  0  0  0
  129.7316  132.3512   62.4620 H   0  0  0  0  0  0  0  0  0  0  0  0
  130.3900  130.8490   63.2523 H   0  0  0  0  0  0  0  0  0  0  0  0
  130.0067  131.3598   60.2649 H   0  0  0  0  0  0  0  0  0  0  0  0
  131.5591  131.1501   61.1805 H   0  0  0  0  0  0  0  0  0  0  0  0
  130.9068  129.1005   59.8914 H   0  0  0  0  0  0  0  0  0  0  0  0
  131.0049  128.8288   61.6770 H   0  0  0  0  0  0  0  0  0  0  0  0
  128.4138  129.3127   60.0914 H   0  0  0  0  0  0  0  0  0  0  0  0
  128.1581  127.1720   59.7350 H   0  0  0  0  0  0  0  0  0  0  0  0
  129.9264  127.0017   60.2004 H   0  0  0  0  0  0  0  0  0  0  0  0
  127.6194  126.7557   62.1628 H   0  0  0  0  0  0  0  0  0  0  0  0
  128.4318  125.3615   61.2884 H   0  0  0  0  0  0  0  0  0  0  0  0
  130.0887  127.2755   62.8361 H   0  0  0  0  0  0  0  0  0  0  0  0
  128.2039  126.6389   64.4144 H   0  0  0  0  0  0  0  0  0  0  0  0
  128.5818  124.9014   64.1306 H   0  0  0  0  0  0  0  0  0  0  0  0
  130.5152  125.2308   60.3904 H   0  0  0  0  0  0  0  0  0  0  0  0
  131.8840  123.9390   59.0790 H   0  0  0  0  0  0  0  0  0  0  0  0
  133.3915  122.4279   61.9363 H   0  0  0  0  0  0  0  0  0  0  0  0
  132.9530  123.2485   64.2370 H   0  0  0  0  0  0  0  0  0  0  0  0
  127.3264  128.7926   62.2569 H   0  0  0  0  0  0  0  0  0  0  0  0
  128.9688  128.6622   63.0259 H   0  0  0  0  0  0  0  0  0  0  0  0
  127.3198  127.5083   68.5081 H   0  0  0  0  0  0  0  0  0  0  0  0
  129.4440  129.2230   69.0690 H   0  0  0  0  0  0  0  0  0  0  0  0
  131.2210  127.2385   71.0544 H   0  0  0  0  0  0  0  0  0  0  0  0
  132.1802  126.4699   75.1092 H   0  0  0  0  0  0  0  0  0  0  0  0
  131.6718  125.6679   73.5844 H   0  0  0  0  0  0  0  0  0  0  0  0
  133.0739  126.7906   73.5844 H   0  0  0  0  0  0  0  0  0  0  0  0
  129.5750  127.8380   75.2740 H   0  0  0  0  0  0  0  0  0  0  0  0
  1  2  1  0
  2  3  1  0
  3  4  2  0
  4  5  1  0
  5  6  1  0
  6  7  1  0
  7  8  1  0
  8  9  2  0
  9 10  1  0
 10 11  1  0
 11 12  1  0
 10 13  2  0
 13 14  1  0
 14 15  2  0
 15 16  1  0
 16 17  1  0
 17 18  1  0
 18 19  1  0
 19 20  1  0
 20 21  1  0
 21 22  1  0
 22 23  1  0
 23 24  1  0
 24 25  1  0
 25 26  1  0
 26 27  1  0
 27 28  1  0
 27 29  1  0
 29 30  2  0
 30 31  1  0
 31 32  1  0
 31 33  2  0
 33 34  1  0
 34 35  2  0
 24 36  1  0
 16 37  1  0
 37 38  1  0
  5 39  2  0
 39 40  1  0
 40 41  1  0
 41 42  1  0
 40 43  2  0
 43 44  1  0
 43  3  1  0
 37  6  1  0
 15  8  1  0
 36 20  1  0
 35 13  1  0
 28 14  1  0
 35 29  1  0
  1 45  1  0
  1 46  1  0
  1 47  1  0
  4 48  1  0
  6 49  1  1
  9 50  1  0
 12 51  1  0
 12 52  1  0
 12 53  1  0
 16 54  1  6
 17 55  1  0
 17 56  1  0
 20 57  1  6
 21 58  1  0
 21 59  1  0
 22 60  1  0
 22 61  1  0
 23 62  1  0
 23 63  1  0
 24 64  1  6
 25 65  1  0
 25 66  1  0
 26 67  1  0
 26 68  1  0
 27 69  1  1
 28 70  1  0
 28 71  1  0
 30 72  1  0
 32 73  1  0
 33 74  1  0
 34 75  1  0
 36 76  1  0
 36 77  1  0
 37 78  1  1
 38 79  1  0
 39 80  1  0
 42 81  1  0
 42 82  1  0
 42 83  1  0
 44 84  1  0
M  END
>  <Binding energies>  (1) 
[-4.36]

>  <Ligand effiencies>  (1) 
[-0.0889795918367347]

>  <Interactions>  (1) 
["V-A:GLY:454:CA:4049, V-B:HIS:456:CD2:9039, V-B:GLU:543:CB:9878, H-B:LYS:547:NZ:9923, V-B:HIS:456:CB:9036, V-B:GLU:543:CG:9879, V-A:HIS:456:CD2:4068, H-B:TYR:539:OH:9850, V-A:HIS:456:CB:4065, V-B:LYS:547:CE:9922, V-A:GLU:543:CD:4908, V-A:TYR:484:CZ:4347, H-B:TYR:484:OH:9319, V-A:ARG:545:CG:4922, V-B:HIS:456:CE1:9041, H-A:GLY:454:N:4050, V-A:GLY:453:C:4042, V-A:HIS:456:CE1:4070, V-B:GLY:544:C:9884, H-B:HIS:456:NE2:9042, V-A:GLU:543:CG:4907, V-B:GLU:543:CD:9880, V-B:HIS:456:CG:9037, V-A:ARG:545:CD:4923, H-A:LYS:547:NZ:4951, V-A:ARG:545:CZ:4926, V-A:GLU:543:CB:4906, V-A:HIS:456:CG:4066, V-A:GLY:453:CA:4044, H-A:ARG:545:NE:4924, H-A:TYR:484:OH:4348, H-A:GLU:543:O:4903"]

$$$$
ZINC2356362107
     RDKit          3D

139147  0  0  0  0  0  0  0  0999 V2000
  132.4440  131.7010   62.6520 C   0  0  0  0  0  0  0  0  0  0  0  0
  132.5060  131.3290   61.1650 N   0  0  0  0  0  0  0  0  0  0  0  0
  133.9380  131.2620   60.6110 C   0  0  0  0  0  0  0  0  0  0  0  0
  133.9550  131.8180   59.1790 C   0  0  0  0  0  0  0  0  0  0  0  0
  133.5630  130.7080   58.1910 N   0  0  0  0  0  0  0  0  0  0  0  0
  132.0640  130.7050   57.8420 C   0  0  0  0  0  0  0  0  0  0  0  0
  131.2800  129.7370   58.7600 C   0  0  2  0  0  0  0  0  0  0  0  0
  131.7370  128.2620   58.6390 C   0  0  0  0  0  0  0  0  0  0  0  0
  130.8550  127.4000   59.5570 C   0  0  2  0  0  0  0  0  0  0  0  0
  131.3980  126.0330   59.9360 C   0  0  0  0  0  0  0  0  0  0  0  0
  130.6870  124.9510   60.3600 C   0  0  0  0  0  0  0  0  0  0  0  0
  131.4460  123.7120   60.9810 C   0  0  1  0  0  0  0  0  0  0  0  0
  132.6520  124.3150   61.8630 C   0  0  0  0  0  0  0  0  0  0  0  0
  134.0010  124.0400   61.6770 C   0  0  0  0  0  0  0  0  0  0  0  0
  134.4940  122.8480   60.7570 C   0  0  0  0  0  0  0  0  0  0  0  0
  133.1970  121.9800   60.7200 C   0  0  2  0  0  0  0  0  0  0  0  0
  133.2560  121.4220   62.2390 C   0  0  0  0  0  0  0  0  0  0  0  0
  132.4930  120.7730   60.0960 C   0  0  0  0  0  0  0  0  0  0  0  0
  130.9530  120.9470   60.6250 C   0  0  1  0  0  0  0  0  0  0  0  0
  130.3830  119.5720   61.0780 C   0  0  0  0  0  0  0  0  0  0  0  0
  131.1320  118.5170   60.4860 O   0  0  0  0  0  0  0  0  0  0  0  0
  130.8110  117.2340   61.0000 C   0  0  0  0  0  0  0  0  0  0  0  0
  130.5050  122.3840   61.4390 C   0  0  1  0  0  0  0  0  0  0  0  0
  130.4650  122.2380   63.0290 C   0  0  0  0  0  0  0  0  0  0  0  0
  131.4710  122.5430   63.7090 O   0  0  0  0  0  0  0  0  0  0  0  0
  129.4640  121.7240   63.5800 O   0  0  0  0  0  0  0  0  0  0  0  0
  128.9610  122.5340   61.0950 C   0  0  0  0  0  0  0  0  0  0  0  0
  128.5250  123.6170   60.1000 C   0  0  2  0  0  0  0  0  0  0  0  0
  128.6900  123.0750   58.6560 C   0  0  0  0  0  0  0  0  0  0  0  0
  128.1890  124.0390   57.5980 C   0  0  0  0  0  0  0  0  0  0  0  0
  128.9060  125.3670   57.8160 C   0  0  0  0  0  0  0  0  0  0  0  0
  128.6110  126.0550   59.1970 C   0  0  2  0  0  0  0  0  0  0  0  0
  127.0850  126.4020   59.3300 C   0  0  0  0  0  0  0  0  0  0  0  0
  126.5590  127.4700   58.3370 C   0  0  0  0  0  0  0  0  0  0  0  0
  127.3080  128.8460   58.3700 C   0  0  1  0  0  0  0  0  0  0  0  0
  126.7410  129.8930   59.4360 C   0  0  0  0  0  0  0  0  0  0  0  0
  125.3850  130.4400   58.9050 C   0  0  0  0  0  0  0  0  0  0  0  0
  126.5540  129.2990   60.8610 C   0  0  0  0  0  0  0  0  0  0  0  0
  127.7030  131.1240   59.5260 C   0  0  1  0  0  0  0  0  0  0  0  0
  127.2000  132.0770   60.4760 O   0  0  0  0  0  0  0  0  0  0  0  0
  127.2130  131.7300   61.8340 C   0  0  1  0  0  0  0  0  0  0  0  0
  128.2530  130.8090   62.1010 O   0  0  0  0  0  0  0  0  0  0  0  0
  128.3130  130.3410   63.4620 C   0  0  2  0  0  0  0  0  0  0  0  0
  127.1180  129.3990   63.8410 C   0  0  0  0  0  0  0  0  0  0  0  0
  126.2670  129.8560   64.6400 O   0  0  0  0  0  0  0  0  0  0  0  0
  127.0290  128.2580   63.3320 O   0  0  0  0  0  0  0  0  0  0  0  0
  128.5870  131.5640   64.3930 C   0  0  2  0  0  0  0  0  0  0  0  0
  128.7930  131.2440   65.7590 O   0  0  0  0  0  0  0  0  0  0  0  0
  127.5600  132.6950   64.1550 C   0  0  1  0  0  0  0  0  0  0  0  0
  127.8740  133.8550   64.9080 O   0  0  0  0  0  0  0  0  0  0  0  0
  127.4390  133.0200   62.6420 C   0  0  2  0  0  0  0  0  0  0  0  0
  126.4090  133.9640   62.3960 O   0  0  0  0  0  0  0  0  0  0  0  0
  129.1460  130.6740   59.8180 C   0  0  0  0  0  0  0  0  0  0  0  0
  129.7200  129.9290   58.5980 C   0  0  2  0  0  0  0  0  0  0  0  0
  128.8890  128.6180   58.2660 C   0  0  2  0  0  0  0  0  0  0  0  0
  129.2030  128.3080   56.7500 C   0  0  0  0  0  0  0  0  0  0  0  0
  129.3290  127.4550   59.2660 C   0  0  2  0  0  0  0  0  0  0  0  0
  129.1330  125.0500   60.3730 C   0  0  2  0  0  0  0  0  0  0  0  0
  128.6980  125.4840   61.8390 C   0  0  0  0  0  0  0  0  0  0  0  0
  129.7050  125.4020   63.0180 C   0  0  0  0  0  0  0  0  0  0  0  0
  130.5850  126.6470   63.1240 C   0  0  0  0  0  0  0  0  0  0  0  0
  130.4740  127.5710   62.3210 O   0  0  0  0  0  0  0  0  0  0  0  0
  132.2960  123.0720   59.9320 C   0  0  0  0  0  0  0  0  0  0  0  0
  132.5944  130.7983   63.2624 H   0  0  0  0  0  0  0  0  0  0  0  0
  133.2325  132.4334   62.8799 H   0  0  0  0  0  0  0  0  0  0  0  0
  131.4606  132.1381   62.8799 H   0  0  0  0  0  0  0  0  0  0  0  0
  132.0630  130.4280   61.0370 H   0  0  0  0  0  0  0  0  0  0  0  0
  131.9790  132.0100   60.6360 H   0  0  0  0  0  0  0  0  0  0  0  0
  134.6061  131.8622   61.2461 H   0  0  0  0  0  0  0  0  0  0  0  0
  134.2821  130.2172   60.6047 H   0  0  0  0  0  0  0  0  0  0  0  0
  133.2380  132.6485   59.1001 H   0  0  0  0  0  0  0  0  0  0  0  0
  134.9656  132.1804   58.9395 H   0  0  0  0  0  0  0  0  0  0  0  0
  134.0980  130.8050   57.3390 H   0  0  0  0  0  0  0  0  0  0  0  0
  133.7910  129.8150   58.6040 H   0  0  0  0  0  0  0  0  0  0  0  0
  131.6640  131.7220   57.9673 H   0  0  0  0  0  0  0  0  0  0  0  0
  131.9485  130.3695   56.8008 H   0  0  0  0  0  0  0  0  0  0  0  0
  131.5284  130.0116   59.7958 H   0  0  0  0  0  0  0  0  0  0  0  0
  131.6293  127.9246   57.5976 H   0  0  0  0  0  0  0  0  0  0  0  0
  132.7923  128.1693   58.9354 H   0  0  0  0  0  0  0  0  0  0  0  0
  130.9450  127.9417   60.5102 H   0  0  0  0  0  0  0  0  0  0  0  0
  132.4875  125.9020   59.8595 H   0  0  0  0  0  0  0  0  0  0  0  0
  132.3851  125.0013   62.6802 H   0  0  0  0  0  0  0  0  0  0  0  0
  134.7487  124.6682   62.1833 H   0  0  0  0  0  0  0  0  0  0  0  0
  134.7799  123.1977   59.7540 H   0  0  0  0  0  0  0  0  0  0  0  0
  135.3916  122.3247   61.1181 H   0  0  0  0  0  0  0  0  0  0  0  0
  133.1671  122.2631   62.9423 H   0  0  0  0  0  0  0  0  0  0  0  0
  132.4273  120.7175   62.4033 H   0  0  0  0  0  0  0  0  0  0  0  0
  134.2137  120.9064   62.4033 H   0  0  0  0  0  0  0  0  0  0  0  0
  132.5422  120.8083   58.9977 H   0  0  0  0  0  0  0  0  0  0  0  0
  132.9456  119.8098   60.3741 H   0  0  0  0  0  0  0  0  0  0  0  0
  130.3430  121.2405   59.7580 H   0  0  0  0  0  0  0  0  0  0  0  0
  130.4466  119.4941   62.1734 H   0  0  0  0  0  0  0  0  0  0  0  0
  129.3331  119.4931   60.7593 H   0  0  0  0  0  0  0  0  0  0  0  0
  130.8192  117.2669   62.0995 H   0  0  0  0  0  0  0  0  0  0  0  0
  129.8112  116.9382   60.6495 H   0  0  0  0  0  0  0  0  0  0  0  0
  131.5537  116.5022   60.6495 H   0  0  0  0  0  0  0  0  0  0  0  0
  128.6255  121.5684   60.6887 H   0  0  0  0  0  0  0  0  0  0  0  0
  128.5072  122.8498   62.0460 H   0  0  0  0  0  0  0  0  0  0  0  0
  127.4549  123.8222   60.2512 H   0  0  0  0  0  0  0  0  0  0  0  0
  129.7574  122.8803   58.4750 H   0  0  0  0  0  0  0  0  0  0  0  0
  128.0854  122.1594   58.5782 H   0  0  0  0  0  0  0  0  0  0  0  0
  128.4171  123.6486   56.5952 H   0  0  0  0  0  0  0  0  0  0  0  0
  127.0993  124.1684   57.6747 H   0  0  0  0  0  0  0  0  0  0  0  0
  129.9890  125.1866   57.7478 H   0  0  0  0  0  0  0  0  0  0  0  0
  128.5310  126.0525   57.0418 H   0  0  0  0  0  0  0  0  0  0  0  0
  126.5111  125.4773   59.1699 H   0  0  0  0  0  0  0  0  0  0  0  0
  126.9574  126.8319   60.3345 H   0  0  0  0  0  0  0  0  0  0  0  0
  126.6469  127.0602   57.3200 H   0  0  0  0  0  0  0  0  0  0  0  0
  125.5231  127.6817   58.6406 H   0  0  0  0  0  0  0  0  0  0  0  0
  127.0658  129.4173   57.4617 H   0  0  0  0  0  0  0  0  0  0  0  0
  124.7371  130.7014   59.7546 H   0  0  0  0  0  0  0  0  0  0  0  0
  125.5655  131.3356   58.2924 H   0  0  0  0  0  0  0  0  0  0  0  0
  124.8935  129.6698   58.2924 H   0  0  0  0  0  0  0  0  0  0  0  0
  126.7953  130.0654   61.6123 H   0  0  0  0  0  0  0  0  0  0  0  0
  125.5105  128.9754   60.9893 H   0  0  0  0  0  0  0  0  0  0  0  0
  127.2239  128.4360   60.9893 H   0  0  0  0  0  0  0  0  0  0  0  0
  127.7368  131.6341   58.5520 H   0  0  0  0  0  0  0  0  0  0  0  0
  126.2604  131.2555   62.1123 H   0  0  0  0  0  0  0  0  0  0  0  0
  129.1613  129.6557   63.6063 H   0  0  0  0  0  0  0  0  0  0  0  0
  129.5694  131.9565   64.0916 H   0  0  0  0  0  0  0  0  0  0  0  0
  128.0820  130.6620   66.0410 H   0  0  0  0  0  0  0  0  0  0  0  0
  126.5812  132.3365   64.5062 H   0  0  0  0  0  0  0  0  0  0  0  0
  128.5430  133.6250   65.5550 H   0  0  0  0  0  0  0  0  0  0  0  0
  128.3850  133.4749   62.3132 H   0  0  0  0  0  0  0  0  0  0  0  0
  126.0540  133.8020   61.5180 H   0  0  0  0  0  0  0  0  0  0  0  0
  129.7670  131.5564   60.0318 H   0  0  0  0  0  0  0  0  0  0  0  0
  129.1462  129.9997   60.6871 H   0  0  0  0  0  0  0  0  0  0  0  0
  129.5996  130.5418   57.6925 H   0  0  0  0  0  0  0  0  0  0  0  0
  129.9845  127.5364   56.6878 H   0  0  0  0  0  0  0  0  0  0  0  0
  128.2906  127.9467   56.2530 H   0  0  0  0  0  0  0  0  0  0  0  0
  129.5526  129.2249   56.2530 H   0  0  0  0  0  0  0  0  0  0  0  0
  128.8533  127.8269   60.1855 H   0  0  0  0  0  0  0  0  0  0  0  0
  128.3744  126.5333   61.7737 H   0  0  0  0  0  0  0  0  0  0  0  0
  127.9435  124.7294   62.1060 H   0  0  0  0  0  0  0  0  0  0  0  0
  129.1416  125.2874   63.9558 H   0  0  0  0  0  0  0  0  0  0  0  0
  130.3647  124.5411   62.8347 H   0  0  0  0  0  0  0  0  0  0  0  0
  131.3290  126.7173   63.9312 H   0  0  0  0  0  0  0  0  0  0  0  0
  132.9372  123.8216   59.4453 H   0  0  0  0  0  0  0  0  0  0  0  0
  131.6901  122.6088   59.1393 H   0  0  0  0  0  0  0  0  0  0  0  0
  1  2  1  0
  2  3  1  0
  3  4  1  0
  4  5  1  0
  5  6  1  0
  6  7  1  0
  7  8  1  0
  8  9  1  0
  9 10  1  0
 10 11  2  0
 11 12  1  0
 12 13  1  1
 13 14  2  0
 14 15  1  0
 15 16  1  0
 16 17  1  1
 16 18  1  0
 18 19  1  0
 19 20  1  0
 20 21  1  0
 21 22  1  0
 19 23  1  0
 23 24  1  1
 24 25  2  0
 24 26  1  0
 23 27  1  0
 27 28  1  0
 28 29  1  0
 29 30  1  0
 30 31  1  0
 32 31  1  6
 32 33  1  0
 33 34  1  0
 34 35  1  0
 35 36  1  0
 36 37  1  0
 36 38  1  0
 36 39  1  0
 39 40  1  0
 40 41  1  0
 41 42  1  0
 42 43  1  0
 43 44  1  0
 44 45  2  0
 44 46  1  0
 43 47  1  0
 47 48  1  0
 47 49  1  0
 49 50  1  0
 49 51  1  0
 51 52  1  0
 39 53  1  0
 53 54  1  0
 54 55  1  0
 55 56  1  6
 55 57  1  0
 32 58  1  0
 58 59  1  1
 59 60  1  0
 60 61  1  0
 61 62  2  0
 16 63  1  0
 54  7  1  0
 57  9  1  0
 58 11  1  0
 23 12  1  0
 58 28  1  0
 63 12  1  0
 57 32  1  0
 55 35  1  0
 51 41  1  0
  1 64  1  0
  1 65  1  0
  1 66  1  0
  2 67  1  0
  2 68  1  0
  3 69  1  0
  3 70  1  0
  4 71  1  0
  4 72  1  0
  5 73  1  0
  5 74  1  0
  6 75  1  0
  6 76  1  0
  7 77  1  1
  8 78  1  0
  8 79  1  0
  9 80  1  1
 10 81  1  0
 13 82  1  0
 14 83  1  0
 15 84  1  0
 15 85  1  0
 17 86  1  0
 17 87  1  0
 17 88  1  0
 18 89  1  0
 18 90  1  0
 19 91  1  6
 20 92  1  0
 20 93  1  0
 22 94  1  0
 22 95  1  0
 22 96  1  0
 27 97  1  0
 27 98  1  0
 28 99  1  1
 29100  1  0
 29101  1  0
 30102  1  0
 30103  1  0
 31104  1  0
 31105  1  0
 33106  1  0
 33107  1  0
 34108  1  0
 34109  1  0
 35110  1  6
 37111  1  0
 37112  1  0
 37113  1  0
 38114  1  0
 38115  1  0
 38116  1  0
 39117  1  6
 41118  1  1
 43119  1  6
 47120  1  6
 48121  1  0
 49122  1  1
 50123  1  0
 51124  1  6
 52125  1  0
 53126  1  0
 53127  1  0
 54128  1  6
 56129  1  0
 56130  1  0
 56131  1  0
 57132  1  1
 59133  1  0
 59134  1  0
 60135  1  0
 60136  1  0
 61137  1  0
 63138  1  0
 63139  1  0
M  CHG  4   2   1   5   1  26  -1  46  -1
M  END
>  <Binding energies>  (1) 
[-4.65]

>  <Ligand effiencies>  (1) 
[-0.06642857142857143]

>  <Interactions>  (1) 
["V-A:ILE:369:CG2:3237, V-A:PRO:540:CG:4886, V-A:ALA:541:C:4888, V-A:GLY:454:CA:4049, V-A:ILE:369:CB:3236, V-B:ALA:541:CB:9864, V-B:TYR:539:CE2:9848, V-B:LEU:475:CD2:9230, V-B:TYR:539:C:9839, V-A:ASP:366:CG:3213, V-A:ASN:362:CB:3176, V-A:LEU:363:CD1:3189, V-A:LEU:363:CB:3187, V-A:LEU:363:CG:3188, V-B:TYR:539:CZ:9849, V-B:TYR:484:CE2:9317, V-A:TYR:531:CE2:4793, V-A:ALA:541:CB:4892, H-A:LEU:363:O:3184, V-A:HIS:383:CE1:3393, V-A:GLU:543:CD:4908, H-B:TYR:484:OH:9319, V-A:ILE:369:CD1:3239, V-B:TYR:484:CZ:9318, V-A:PRO:482:CB:4326, V-B:TYR:539:CD2:9846, V-A:GLU:543:CG:4907, H-A:SER:385:OG:3410, V-A:MET:535:CE:4835, V-B:GLU:543:CD:9880, V-A:ILE:369:CG1:3238, V-A:ASP:366:CB:3212, V-A:LEU:475:CD2:4259, H-A:ARG:545:NH2:4928, V-A:ASN:362:C:3172, H-A:GLU:543:OE1:4909, H-B:ARG:545:NH2:9900, H-A:HIS:383:HE2:3395, V-A:LEU:363:CA:3185, V-A:PRO:540:CB:4885, V-A:PRO:540:CA:4883, H-A:ASP:366:OD2:3215, V-A:HIS:383:NE2:3394, H-A:TYR:484:OH:4348"]

$$$$
ZINC2356362107-again2
     RDKit          3D

138146  0  0  0  0  0  0  0  0999 V2000
  130.7610  131.7220   62.4910 C   0  0  0  0  0  0  0  0  0  0  0  0
  131.9440  132.2290   61.8150 N   0  0  0  0  0  0  0  0  0  0  0  0
  132.4330  131.2680   60.8390 C   0  0  0  0  0  0  0  0  0  0  0  0
  132.9360  132.0220   59.5980 C   0  0  0  0  0  0  0  0  0  0  0  0
  133.2870  131.0080   58.4990 N   0  0  0  0  0  0  0  0  0  0  0  0
  132.0550  130.4180   57.7910 C   0  0  0  0  0  0  0  0  0  0  0  0
  131.2750  129.4630   58.7260 C   0  0  2  0  0  0  0  0  0  0  0  0
  131.7480  127.9890   58.6430 C   0  0  0  0  0  0  0  0  0  0  0  0
  130.8590  127.1320   59.5580 C   0  0  2  0  0  0  0  0  0  0  0  0
  131.4110  125.7770   59.9650 C   0  0  0  0  0  0  0  0  0  0  0  0
  130.7060  124.6910   60.3860 C   0  0  0  0  0  0  0  0  0  0  0  0
  131.4690  123.4690   61.0360 C   0  0  1  0  0  0  0  0  0  0  0  0
  132.6520  124.1000   61.9310 C   0  0  0  0  0  0  0  0  0  0  0  0
  134.0080  123.8390   61.7720 C   0  0  0  0  0  0  0  0  0  0  0  0
  134.5300  122.6380   60.8790 C   0  0  0  0  0  0  0  0  0  0  0  0
  133.2440  121.7550   60.8340 C   0  0  2  0  0  0  0  0  0  0  0  0
  133.2810  121.2250   62.3650 C   0  0  0  0  0  0  0  0  0  0  0  0
  132.5670  120.5280   60.2200 C   0  0  0  0  0  0  0  0  0  0  0  0
  131.0160  120.6930   60.7190 C   0  0  1  0  0  0  0  0  0  0  0  0
  130.4520  119.3200   61.1900 C   0  0  0  0  0  0  0  0  0  0  0  0
  129.1130  119.4750   61.6460 O   0  0  0  0  0  0  0  0  0  0  0  0
  128.3820  118.2580   61.6810 C   0  0  0  0  0  0  0  0  0  0  0  0
  130.5360  122.1380   61.4970 C   0  0  1  0  0  0  0  0  0  0  0  0
  130.4640  122.0250   63.0890 C   0  0  0  0  0  0  0  0  0  0  0  0
  129.4660  121.4970   63.6320 O   0  0  0  0  0  0  0  0  0  0  0  0
  131.3580  122.5530   63.7890 O   0  0  0  0  0  0  0  0  0  0  0  0
  128.9970  122.2610   61.1170 C   0  0  0  0  0  0  0  0  0  0  0  0
  128.5650  123.3250   60.0980 C   0  0  2  0  0  0  0  0  0  0  0  0
  128.7680  122.7670   58.6660 C   0  0  0  0  0  0  0  0  0  0  0  0
  128.2860  123.7120   57.5810 C   0  0  0  0  0  0  0  0  0  0  0  0
  128.9820  125.0500   57.8000 C   0  0  0  0  0  0  0  0  0  0  0  0
  128.6420  125.7510   59.1630 C   0  0  2  0  0  0  0  0  0  0  0  0
  127.1070  126.0760   59.2540 C   0  0  0  0  0  0  0  0  0  0  0  0
  126.5900  127.1320   58.2450 C   0  0  0  0  0  0  0  0  0  0  0  0
  127.3190  128.5180   58.2920 C   0  0  1  0  0  0  0  0  0  0  0  0
  126.7230  129.5570   59.3490 C   0  0  0  0  0  0  0  0  0  0  0  0
  125.3640  130.0800   58.8010 C   0  0  0  0  0  0  0  0  0  0  0  0
  126.5290  128.9730   60.7780 C   0  0  0  0  0  0  0  0  0  0  0  0
  127.6660  130.8000   59.4340 C   0  0  1  0  0  0  0  0  0  0  0  0
  127.1560  131.7600   60.3720 O   0  0  0  0  0  0  0  0  0  0  0  0
  127.0930  131.3660   61.7150 C   0  0  1  0  0  0  0  0  0  0  0  0
  128.0320  130.3410   61.9720 O   0  0  0  0  0  0  0  0  0  0  0  0
  127.9800  129.7990   63.3050 C   0  0  2  0  0  0  0  0  0  0  0  0
  126.6790  128.9690   63.5820 C   0  0  0  0  0  0  0  0  0  0  0  0
  125.7430  129.4650   64.2470 O   0  0  0  0  0  0  0  0  0  0  0  0
  126.6440  127.8010   63.1240 O   0  0  0  0  0  0  0  0  0  0  0  0
  128.3350  130.9460   64.3060 C   0  0  2  0  0  0  0  0  0  0  0  0
  128.4430  130.5500   65.6640 O   0  0  0  0  0  0  0  0  0  0  0  0
  127.4400  132.1870   64.0840 C   0  0  1  0  0  0  0  0  0  0  0  0
  127.8450  133.2730   64.9020 O   0  0  0  0  0  0  0  0  0  0  0  0
  127.4180  132.5910   62.5840 C   0  0  2  0  0  0  0  0  0  0  0  0
  126.4900  133.6370   62.3440 O   0  0  0  0  0  0  0  0  0  0  0  0
  129.1120  130.3750   59.7550 C   0  0  0  0  0  0  0  0  0  0  0  0
  129.7130  129.6340   58.5470 C   0  0  2  0  0  0  0  0  0  0  0  0
  128.9040  128.3090   58.2130 C   0  0  2  0  0  0  0  0  0  0  0  0
  129.2470  127.9910   56.7060 C   0  0  0  0  0  0  0  0  0  0  0  0
  129.3400  127.1620   59.2330 C   0  0  2  0  0  0  0  0  0  0  0  0
  129.1500  124.7690   60.3650 C   0  0  2  0  0  0  0  0  0  0  0  0
  128.6770  125.2210   61.8140 C   0  0  0  0  0  0  0  0  0  0  0  0
  129.3900  126.3890   62.5480 C   0  0  0  0  0  0  0  0  0  0  0  0
  129.8110  126.0130   63.9680 C   0  0  0  0  0  0  0  0  0  0  0  0
  130.9760  125.7110   64.2210 O   0  0  0  0  0  0  0  0  0  0  0  0
  132.3440  122.8240   60.0130 C   0  0  0  0  0  0  0  0  0  0  0  0
  130.9059  131.7841   63.5796 H   0  0  0  0  0  0  0  0  0  0  0  0
  129.8872  132.3247   62.2024 H   0  0  0  0  0  0  0  0  0  0  0  0
  130.5948  130.6736   62.2024 H   0  0  0  0  0  0  0  0  0  0  0  0
  132.6640  132.4360   62.4930 H   0  0  0  0  0  0  0  0  0  0  0  0
  133.2582  130.6867   61.2762 H   0  0  0  0  0  0  0  0  0  0  0  0
  131.6199  130.5847   60.5527 H   0  0  0  0  0  0  0  0  0  0  0  0
  132.1493  132.7000   59.2354 H   0  0  0  0  0  0  0  0  0  0  0  0
  133.8293  132.6086   59.8587 H   0  0  0  0  0  0  0  0  0  0  0  0
  133.8730  131.4570   57.8110 H   0  0  0  0  0  0  0  0  0  0  0  0
  133.8130  130.2500   58.9120 H   0  0  0  0  0  0  0  0  0  0  0  0
  131.3913  131.2391   57.4824 H   0  0  0  0  0  0  0  0  0  0  0  0
  132.3973  129.8457   56.9162 H   0  0  0  0  0  0  0  0  0  0  0  0
  131.5136  129.7645   59.7566 H   0  0  0  0  0  0  0  0  0  0  0  0
  131.6645  127.6316   57.6060 H   0  0  0  0  0  0  0  0  0  0  0  0
  132.7974  127.9143   58.9643 H   0  0  0  0  0  0  0  0  0  0  0  0
  130.9221  127.6884   60.5048 H   0  0  0  0  0  0  0  0  0  0  0  0
  132.5035  125.6598   59.9139 H   0  0  0  0  0  0  0  0  0  0  0  0
  132.3623  124.7942   62.7336 H   0  0  0  0  0  0  0  0  0  0  0  0
  134.7396  124.4843   62.2803 H   0  0  0  0  0  0  0  0  0  0  0  0
  134.8290  122.9753   59.8756 H   0  0  0  0  0  0  0  0  0  0  0  0
  135.4272  122.1307   61.2633 H   0  0  0  0  0  0  0  0  0  0  0  0
  133.2211  122.0825   63.0514 H   0  0  0  0  0  0  0  0  0  0  0  0
  132.4275  120.5538   62.5414 H   0  0  0  0  0  0  0  0  0  0  0  0
  134.2195  120.6789   62.5414 H   0  0  0  0  0  0  0  0  0  0  0  0
  132.6353  120.5438   59.1222 H   0  0  0  0  0  0  0  0  0  0  0  0
  133.0265  119.5757   60.5232 H   0  0  0  0  0  0  0  0  0  0  0  0
  130.4211  120.9616   59.8336 H   0  0  0  0  0  0  0  0  0  0  0  0
  130.4709  118.6107   60.3495 H   0  0  0  0  0  0  0  0  0  0  0  0
  131.0724  118.9381   62.0142 H   0  0  0  0  0  0  0  0  0  0  0  0
  128.2064  117.9657   62.7268 H   0  0  0  0  0  0  0  0  0  0  0  0
  127.4167  118.3953   61.1716 H   0  0  0  0  0  0  0  0  0  0  0  0
  128.9566  117.4704   61.1716 H   0  0  0  0  0  0  0  0  0  0  0  0
  128.6849  121.2853   60.7163 H   0  0  0  0  0  0  0  0  0  0  0  0
  128.5188  122.5831   62.0538 H   0  0  0  0  0  0  0  0  0  0  0  0
  127.4891  123.5168   60.2233 H   0  0  0  0  0  0  0  0  0  0  0  0
  129.8409  122.5781   58.5135 H   0  0  0  0  0  0  0  0  0  0  0  0
  128.1704  121.8469   58.5865 H   0  0  0  0  0  0  0  0  0  0  0  0
  128.5458  123.3108   56.5903 H   0  0  0  0  0  0  0  0  0  0  0  0
  127.1933  123.8305   57.6263 H   0  0  0  0  0  0  0  0  0  0  0  0
  130.0683  124.8812   57.7631 H   0  0  0  0  0  0  0  0  0  0  0  0
  128.6212  125.7214   57.0069 H   0  0  0  0  0  0  0  0  0  0  0  0
  126.5517  125.1421   59.0822 H   0  0  0  0  0  0  0  0  0  0  0  0
  126.9475  126.5080   60.2530 H   0  0  0  0  0  0  0  0  0  0  0  0
  126.7084  126.7202   57.2319 H   0  0  0  0  0  0  0  0  0  0  0  0
  125.5439  127.3296   58.5217 H   0  0  0  0  0  0  0  0  0  0  0  0
  127.0817  129.0883   57.3818 H   0  0  0  0  0  0  0  0  0  0  0  0
  124.7028  130.3344   59.6425 H   0  0  0  0  0  0  0  0  0  0  0  0
  125.5368  130.9759   58.1865 H   0  0  0  0  0  0  0  0  0  0  0  0
  124.8916  129.2994   58.1865 H   0  0  0  0  0  0  0  0  0  0  0  0
  126.7836  129.7393   61.5250 H   0  0  0  0  0  0  0  0  0  0  0  0
  125.4808  128.6665   60.9097 H   0  0  0  0  0  0  0  0  0  0  0  0
  127.1855  128.1003   60.9097 H   0  0  0  0  0  0  0  0  0  0  0  0
  127.6908  131.2909   58.4499 H   0  0  0  0  0  0  0  0  0  0  0  0
  126.0888  130.9806   61.9454 H   0  0  0  0  0  0  0  0  0  0  0  0
  128.7413  129.0186   63.4511 H   0  0  0  0  0  0  0  0  0  0  0  0
  129.3655  131.2428   64.0613 H   0  0  0  0  0  0  0  0  0  0  0  0
  127.6820  130.0070   65.8840 H   0  0  0  0  0  0  0  0  0  0  0  0
  126.4151  131.9183   64.3797 H   0  0  0  0  0  0  0  0  0  0  0  0
  127.6550  134.0910   64.4370 H   0  0  0  0  0  0  0  0  0  0  0  0
  128.4161  132.9661   62.3134 H   0  0  0  0  0  0  0  0  0  0  0  0
  126.2360  133.6070   61.4190 H   0  0  0  0  0  0  0  0  0  0  0  0
  129.7159  131.2679   59.9741 H   0  0  0  0  0  0  0  0  0  0  0  0
  129.1109  129.7074   60.6293 H   0  0  0  0  0  0  0  0  0  0  0  0
  129.5970  130.2433   57.6385 H   0  0  0  0  0  0  0  0  0  0  0  0
  130.0530  127.2437   56.6632 H   0  0  0  0  0  0  0  0  0  0  0  0
  128.3529  127.5952   56.2021 H   0  0  0  0  0  0  0  0  0  0  0  0
  129.5742  128.9124   56.2021 H   0  0  0  0  0  0  0  0  0  0  0  0
  128.8407  127.5361   60.1390 H   0  0  0  0  0  0  0  0  0  0  0  0
  127.6178  125.5044   61.7254 H   0  0  0  0  0  0  0  0  0  0  0  0
  128.9247  124.3494   62.4377 H   0  0  0  0  0  0  0  0  0  0  0  0
  130.2866  126.6707   61.9764 H   0  0  0  0  0  0  0  0  0  0  0  0
  128.6786  127.2250   62.6190 H   0  0  0  0  0  0  0  0  0  0  0  0
  129.0626  126.0124   64.7741 H   0  0  0  0  0  0  0  0  0  0  0  0
  132.9848  123.5738   59.5259 H   0  0  0  0  0  0  0  0  0  0  0  0
  131.7578  122.3414   59.2170 H   0  0  0  0  0  0  0  0  0  0  0  0
  1  2  1  0
  2  3  1  0
  3  4  1  0
  4  5  1  0
  5  6  1  0
  6  7  1  0
  7  8  1  0
  8  9  1  0
  9 10  1  0
 10 11  2  0
 11 12  1  0
 12 13  1  1
 13 14  2  0
 14 15  1  0
 15 16  1  0
 16 17  1  1
 16 18  1  0
 18 19  1  0
 19 20  1  0
 20 21  1  0
 21 22  1  0
 19 23  1  0
 23 24  1  1
 24 25  2  0
 24 26  1  0
 23 27  1  0
 27 28  1  0
 28 29  1  0
 29 30  1  0
 30 31  1  0
 32 31  1  6
 32 33  1  0
 33 34  1  0
 34 35  1  0
 35 36  1  0
 36 37  1  0
 36 38  1  0
 36 39  1  0
 39 40  1  0
 40 41  1  0
 41 42  1  0
 42 43  1  0
 43 44  1  0
 44 45  2  0
 44 46  1  0
 43 47  1  0
 47 48  1  0
 47 49  1  0
 49 50  1  0
 49 51  1  0
 51 52  1  0
 39 53  1  0
 53 54  1  0
 54 55  1  0
 55 56  1  6
 55 57  1  0
 32 58  1  0
 58 59  1  1
 59 60  1  0
 60 61  1  0
 61 62  2  0
 16 63  1  0
 54  7  1  0
 57  9  1  0
 58 11  1  0
 23 12  1  0
 58 28  1  0
 63 12  1  0
 57 32  1  0
 55 35  1  0
 51 41  1  0
  1 64  1  0
  1 65  1  0
  1 66  1  0
  2 67  1  0
  3 68  1  0
  3 69  1  0
  4 70  1  0
  4 71  1  0
  5 72  1  0
  5 73  1  0
  6 74  1  0
  6 75  1  0
  7 76  1  1
  8 77  1  0
  8 78  1  0
  9 79  1  1
 10 80  1  0
 13 81  1  0
 14 82  1  0
 15 83  1  0
 15 84  1  0
 17 85  1  0
 17 86  1  0
 17 87  1  0
 18 88  1  0
 18 89  1  0
 19 90  1  6
 20 91  1  0
 20 92  1  0
 22 93  1  0
 22 94  1  0
 22 95  1  0
 27 96  1  0
 27 97  1  0
 28 98  1  1
 29 99  1  0
 29100  1  0
 30101  1  0
 30102  1  0
 31103  1  0
 31104  1  0
 33105  1  0
 33106  1  0
 34107  1  0
 34108  1  0
 35109  1  6
 37110  1  0
 37111  1  0
 37112  1  0
 38113  1  0
 38114  1  0
 38115  1  0
 39116  1  6
 41117  1  1
 43118  1  6
 47119  1  6
 48120  1  0
 49121  1  1
 50122  1  0
 51123  1  6
 52124  1  0
 53125  1  0
 53126  1  0
 54127  1  6
 56128  1  0
 56129  1  0
 56130  1  0
 57131  1  1
 59132  1  0
 59133  1  0
 60134  1  0
 60135  1  0
 61136  1  0
 63137  1  0
 63138  1  0
M  CHG  3   5   1  26  -1  46  -1
M  END
>  <Binding energies>  (1) 
[-3.13]

>  <Ligand effiencies>  (1) 
[-0.04536231884057971]

>  <Interactions>  (1) 
["V-A:ILE:369:CG2:3237, V-B:PRO:540:CA:9855, V-A:PRO:540:CG:4886, V-A:GLY:454:CA:4049, V-A:ILE:369:CB:3236, H-A:ALA:541:N:4891, H-A:ALA:541:O:4889, V-B:ASP:366:CG:8184, V-B:ALA:541:CB:9864, V-B:TYR:539:CE2:9848, V-A:LEU:475:CG:4257, V-B:LEU:475:CD2:9230, V-B:GLU:543:CG:9879, V-B:TYR:539:C:9839, V-A:ASP:366:CG:3213, V-A:LEU:363:CD1:3189, V-B:TYR:484:CE2:9317, V-B:TYR:539:CZ:9849, V-A:TYR:531:CE2:4793, H-B:ALA:541:N:9863, V-A:GLU:543:CD:4908, V-B:ASP:366:CB:8183, H-B:TYR:484:OH:9319, V-B:PRO:540:N:9856, V-A:ILE:369:CD1:3239, V-B:TYR:484:CZ:9318, V-A:PRO:482:CB:4326, V-B:TYR:539:CD2:9846, V-A:GLU:543:CG:4907, V-A:SER:385:CB:3409, V-A:MET:535:CE:4835, V-B:GLU:543:CD:9880, V-A:ILE:369:CG1:3238, V-A:ASP:366:CB:3212, V-A:LEU:475:CD2:4259, H-A:ARG:545:NH2:4928, V-B:TYR:539:CG:9844, H-B:ARG:545:NH2:9900, V-A:PRO:540:CB:4885, V-A:LEU:363:CA:3185, V-A:PRO:540:CA:4883, V-A:PRO:482:CG:4327, V-B:PRO:540:C:9853, H-A:ASP:366:OD2:3215, V-B:ALA:541:CA:9862, V-B:TYR:539:CE1:9847, H-A:TYR:484:OH:4348"]

$$$$
ZINC2356365838
     RDKit          3D

 94100  0  0  0  0  0  0  0  0999 V2000
  131.8250  130.8730   60.9080 C   0  0  0  0  0  0  0  0  0  0  0  0
  130.6920  130.3960   60.1890 O   0  0  0  0  0  0  0  0  0  0  0  0
  130.1120  129.1830   60.5210 C   0  0  0  0  0  0  0  0  0  0  0  0
  130.3540  128.0200   59.7840 C   0  0  0  0  0  0  0  0  0  0  0  0
  129.8460  126.7940   60.1900 C   0  0  0  0  0  0  0  0  0  0  0  0
  129.0840  126.6810   61.3650 C   0  0  0  0  0  0  0  0  0  0  0  0
  128.7810  127.8580   62.0850 C   0  0  0  0  0  0  0  0  0  0  0  0
  129.2770  129.1150   61.6570 C   0  0  0  0  0  0  0  0  0  0  0  0
  128.9180  130.3280   62.4890 C   0  0  0  0  0  0  0  0  0  0  0  0
  128.8030  131.6090   61.9210 C   0  0  0  0  0  0  0  0  0  0  0  0
  128.4640  132.7150   62.6930 C   0  0  0  0  0  0  0  0  0  0  0  0
  128.2080  132.5570   64.0480 C   0  0  0  0  0  0  0  0  0  0  0  0
  127.8710  133.6410   64.8120 O   0  0  0  0  0  0  0  0  0  0  0  0
  128.2770  131.2910   64.6220 C   0  0  0  0  0  0  0  0  0  0  0  0
  128.6200  130.1570   63.8670 C   0  0  0  0  0  0  0  0  0  0  0  0
  128.6450  128.7220   64.4340 C   0  0  1  0  0  0  0  0  0  0  0  0
  128.0890  128.5330   65.8800 C   0  0  0  0  0  0  0  0  0  0  0  0
  128.9960  127.7580   66.8780 C   0  0  0  0  0  0  0  0  0  0  0  0
  129.0670  126.2070   66.7810 C   0  0  2  0  0  0  0  0  0  0  0  0
  129.4660  125.5650   68.1240 C   0  0  0  0  0  0  0  0  0  0  0  0
  130.0120  125.7280   65.6440 C   0  0  0  0  0  0  0  0  0  0  0  0
  130.6130  124.3130   65.8230 C   0  0  0  0  0  0  0  0  0  0  0  0
  129.5690  122.8820   65.4050 S   0  0  0  0  0  0  0  0  0  0  0  0
  129.1810  123.0150   63.4080 S   0  0  0  0  0  0  0  0  0  0  0  0
  129.4220  124.7730   63.0310 C   0  0  0  0  0  0  0  0  0  0  0  0
  128.6130  125.2920   61.8130 C   0  0  2  0  0  0  0  0  0  0  0  0
  128.6050  124.3050   60.6170 C   0  0  1  0  0  0  0  0  0  0  0  0
  127.4700  124.5070   59.7920 O   0  0  0  0  0  0  0  0  0  0  0  0
  129.9070  124.4060   59.7680 C   0  0  2  0  0  0  0  0  0  0  0  0
  131.1420  123.7150   60.3980 C   0  0  0  0  0  0  0  0  0  0  0  0
  131.3190  122.3540   60.1200 C   0  0  0  0  0  0  0  0  0  0  0  0
  132.3680  121.6070   60.6720 C   0  0  0  0  0  0  0  0  0  0  0  0
  132.5800  120.2530   60.4560 O   0  0  0  0  0  0  0  0  0  0  0  0
  131.6480  119.2270   60.8220 C   0  0  0  0  0  0  0  0  0  0  0  0
  130.3270  119.7300   61.4630 C   0  0  0  0  0  0  0  0  0  0  0  0
  129.4760  118.5520   61.9790 C   0  0  0  0  0  0  0  0  0  0  0  0
  129.2400  117.4880   60.8870 C   0  0  0  0  0  0  0  0  0  0  0  0
  130.5610  116.9870   60.2700 C   0  0  0  0  0  0  0  0  0  0  0  0
  131.4290  118.1460   59.7340 C   0  0  0  0  0  0  0  0  0  0  0  0
  133.2840  122.2630   61.5000 C   0  0  0  0  0  0  0  0  0  0  0  0
  134.3320  121.5610   62.0460 O   0  0  0  0  0  0  0  0  0  0  0  0
  133.1490  123.6280   61.7780 C   0  0  0  0  0  0  0  0  0  0  0  0
  134.0670  124.2590   62.5830 O   0  0  0  0  0  0  0  0  0  0  0  0
  133.5450  124.6920   63.8330 C   0  0  0  0  0  0  0  0  0  0  0  0
  132.0910  124.3570   61.2210 C   0  0  0  0  0  0  0  0  0  0  0  0
  132.0280  125.6960   61.5060 O   0  0  0  0  0  0  0  0  0  0  0  0
  130.1150  125.7520   59.3160 O   0  0  0  0  0  0  0  0  0  0  0  0
  127.9440  127.8430   63.3710 C   0  0  0  0  0  0  0  0  0  0  0  0
  131.6341  130.7926   61.9883 H   0  0  0  0  0  0  0  0  0  0  0  0
  132.7065  130.2696   60.6455 H   0  0  0  0  0  0  0  0  0  0  0  0
  132.0095  131.9252   60.6455 H   0  0  0  0  0  0  0  0  0  0  0  0
  130.9576  128.0776   58.8662 H   0  0  0  0  0  0  0  0  0  0  0  0
  128.9849  131.7391   60.8440 H   0  0  0  0  0  0  0  0  0  0  0  0
  128.3990  133.7114   62.2314 H   0  0  0  0  0  0  0  0  0  0  0  0
  128.4350  133.7460   65.5810 H   0  0  0  0  0  0  0  0  0  0  0  0
  128.0575  131.1754   65.6937 H   0  0  0  0  0  0  0  0  0  0  0  0
  129.6895  128.4174   64.5959 H   0  0  0  0  0  0  0  0  0  0  0  0
  127.9072  129.5328   66.3012 H   0  0  0  0  0  0  0  0  0  0  0  0
  127.1872  127.9136   65.7658 H   0  0  0  0  0  0  0  0  0  0  0  0
  130.0200  128.1370   66.7447 H   0  0  0  0  0  0  0  0  0  0  0  0
  128.5292  127.9410   67.8571 H   0  0  0  0  0  0  0  0  0  0  0  0
  128.0502  125.8700   66.5307 H   0  0  0  0  0  0  0  0  0  0  0  0
  129.0839  126.1799   68.9522 H   0  0  0  0  0  0  0  0  0  0  0  0
  129.0366  124.5544   68.1892 H   0  0  0  0  0  0  0  0  0  0  0  0
  130.5623  125.5025   68.1892 H   0  0  0  0  0  0  0  0  0  0  0  0
  129.4410  125.7363   64.7038 H   0  0  0  0  0  0  0  0  0  0  0  0
  130.8667  126.4203   65.6526 H   0  0  0  0  0  0  0  0  0  0  0  0
  131.5122  124.2573   65.1919 H   0  0  0  0  0  0  0  0  0  0  0  0
  130.7832  124.2218   66.9059 H   0  0  0  0  0  0  0  0  0  0  0  0
  129.1237  125.3568   63.9143 H   0  0  0  0  0  0  0  0  0  0  0  0
  130.4844  124.8922   62.7718 H   0  0  0  0  0  0  0  0  0  0  0  0
  127.5739  125.3744   62.1643 H   0  0  0  0  0  0  0  0  0  0  0  0
  128.5565  123.2924   61.0439 H   0  0  0  0  0  0  0  0  0  0  0  0
  127.7100  125.1120   59.0860 H   0  0  0  0  0  0  0  0  0  0  0  0
  129.7559  123.7991   58.8631 H   0  0  0  0  0  0  0  0  0  0  0  0
  130.6095  121.8537   59.4445 H   0  0  0  0  0  0  0  0  0  0  0  0
  132.1650  118.7106   61.6442 H   0  0  0  0  0  0  0  0  0  0  0  0
  130.5671  120.3956   62.3052 H   0  0  0  0  0  0  0  0  0  0  0  0
  129.7499  120.2684   60.6967 H   0  0  0  0  0  0  0  0  0  0  0  0
  129.9967  118.0820   62.8263 H   0  0  0  0  0  0  0  0  0  0  0  0
  128.4965  118.9485   62.2846 H   0  0  0  0  0  0  0  0  0  0  0  0
  128.7104  116.6333   61.3331 H   0  0  0  0  0  0  0  0  0  0  0  0
  128.6461  117.9514   60.0854 H   0  0  0  0  0  0  0  0  0  0  0  0
  131.1293  116.4454   61.0406 H   0  0  0  0  0  0  0  0  0  0  0  0
  130.3115  116.3313   59.4228 H   0  0  0  0  0  0  0  0  0  0  0  0
  132.4056  117.7485   59.4206 H   0  0  0  0  0  0  0  0  0  0  0  0
  130.9085  118.6077   58.8820 H   0  0  0  0  0  0  0  0  0  0  0  0
  134.3850  120.6620   61.7130 H   0  0  0  0  0  0  0  0  0  0  0  0
  134.1120  124.2217   64.6499 H   0  0  0  0  0  0  0  0  0  0  0  0
  133.6330  125.7859   63.9080 H   0  0  0  0  0  0  0  0  0  0  0  0
  132.4862  124.4034   63.9080 H   0  0  0  0  0  0  0  0  0  0  0  0
  131.7940  126.2230   60.7390 H   0  0  0  0  0  0  0  0  0  0  0  0
  127.8572  126.8116   63.7433 H   0  0  0  0  0  0  0  0  0  0  0  0
  126.9376  128.2367   63.1659 H   0  0  0  0  0  0  0  0  0  0  0  0
  1  2  1  0
  2  3  1  0
  3  4  2  0
  4  5  1  0
  5  6  2  0
  6  7  1  0
  7  8  2  0
  8  9  1  0
  9 10  2  0
 10 11  1  0
 11 12  2  0
 12 13  1  0
 12 14  1  0
 14 15  2  0
 15 16  1  0
 16 17  1  0
 17 18  1  0
 18 19  1  0
 19 20  1  0
 19 21  1  0
 21 22  1  0
 22 23  1  0
 23 24  1  0
 24 25  1  0
 25 26  1  0
 26 27  1  0
 27 28  1  0
 27 29  1  0
 29 30  1  0
 30 31  2  0
 31 32  1  0
 32 33  1  0
 33 34  1  0
 34 35  1  0
 35 36  1  0
 36 37  1  0
 37 38  1  0
 38 39  1  0
 32 40  2  0
 40 41  1  0
 40 42  1  0
 42 43  1  0
 43 44  1  0
 42 45  2  0
 45 46  1  0
 29 47  1  0
 16 48  1  0
  8  3  1  0
 15  9  1  0
 45 30  1  0
 47  5  1  0
 26  6  1  0
 39 34  1  0
 48  7  1  0
  1 49  1  0
  1 50  1  0
  1 51  1  0
  4 52  1  0
 10 53  1  0
 11 54  1  0
 13 55  1  0
 14 56  1  0
 16 57  1  1
 17 58  1  0
 17 59  1  0
 18 60  1  0
 18 61  1  0
 19 62  1  6
 20 63  1  0
 20 64  1  0
 20 65  1  0
 21 66  1  0
 21 67  1  0
 22 68  1  0
 22 69  1  0
 25 70  1  0
 25 71  1  0
 26 72  1  1
 27 73  1  1
 28 74  1  0
 29 75  1  6
 31 76  1  0
 34 77  1  0
 35 78  1  0
 35 79  1  0
 36 80  1  0
 36 81  1  0
 37 82  1  0
 37 83  1  0
 38 84  1  0
 38 85  1  0
 39 86  1  0
 39 87  1  0
 41 88  1  0
 44 89  1  0
 44 90  1  0
 44 91  1  0
 46 92  1  0
 48 93  1  0
 48 94  1  0
M  END
>  <Binding energies>  (1) 
[-3.52]

>  <Ligand effiencies>  (1) 
[-0.06518518518518518]

>  <Interactions>  (1) 
["V-A:ILE:369:CG2:3237, V-B:GLU:543:C:9874, V-B:GLU:543:CB:9878, V-B:ALA:541:CB:9864, V-B:TYR:539:CE2:9848, V-A:TYR:484:CE2:4346, V-A:LEU:475:CG:4257, V-B:GLU:543:CG:9879, V-B:LEU:475:CD2:9230, V-B:TYR:539:C:9839, V-B:TYR:484:CE2:9317, V-B:TYR:539:CZ:9849, V-A:ALA:541:CB:4892, V-B:VAL:344:CG1:7972, V-A:LEU:475:CD1:4258, V-B:TYR:539:CB:9843, V-A:HIS:383:CE1:3393, V-A:GLU:543:CD:4908, V-A:TYR:484:CZ:4347, H-B:TYR:484:OH:9319, V-B:GLU:543:CA:9876, H-A:GLY:454:N:4050, V-B:TYR:484:CZ:9318, V-A:HIS:456:CE1:4070, V-A:PRO:482:CB:4326, V-B:TYR:539:CD2:9846, V-A:GLU:543:CG:4907, V-A:SER:385:CB:3409, H-A:SER:385:OG:3410, V-B:GLU:543:CD:9880, V-A:LEU:475:CD2:4259, H-A:ARG:545:NH2:4928, V-A:ARG:545:CZ:4926, V-B:TYR:539:CG:9844, V-A:GLU:543:CB:4906, H-A:ASP:366:OD1:3214, V-A:HIS:383:CD2:3392, V-A:PRO:482:CG:4327, H-A:SER:385:O:3406, V-B:PRO:540:C:9853, H-A:ASP:366:OD2:3215, V-B:ALA:541:CA:9862, V-A:HIS:383:NE2:3394, H-A:TYR:484:OH:4348"]

$$$$
ZINC2356367037
     RDKit          3D

132138  0  0  0  0  0  0  0  0999 V2000
  125.3790  124.5070   56.9870 C   0  0  0  0  0  0  0  0  0  0  0  0
  126.1910  123.6140   57.9230 C   0  0  0  0  0  0  0  0  0  0  0  0
  125.8350  123.4290   59.0850 O   0  0  0  0  0  0  0  0  0  0  0  0
  127.4810  122.9880   57.3900 C   0  0  0  0  0  0  0  0  0  0  0  0
  128.6350  123.4090   58.1760 N   0  0  0  0  0  0  0  0  0  0  0  0
  128.6550  123.5860   59.5490 C   0  0  0  0  0  0  0  0  0  0  0  0
  128.3820  124.7990   60.1380 C   0  0  0  0  0  0  0  0  0  0  0  0
  128.4700  124.9850   61.6810 C   0  0  2  0  0  0  0  0  0  0  0  0
  129.6630  125.9380   61.9410 C   0  0  0  0  0  0  0  0  0  0  0  0
  129.4930  127.2900   61.2280 C   0  0  0  0  0  0  0  0  0  0  0  0
  129.2020  127.2120   59.6930 C   0  0  2  0  0  0  0  0  0  0  0  0
  130.5350  126.8000   59.0060 C   0  0  0  0  0  0  0  0  0  0  0  0
  128.5580  128.6100   59.2620 C   0  0  2  0  0  0  0  0  0  0  0  0
  126.9920  128.3660   59.3460 C   0  0  2  0  0  0  0  0  0  0  0  0
  126.1690  129.3530   60.2430 C   0  0  0  0  0  0  0  0  0  0  0  0
  126.8770  129.8880   61.4250 C   0  0  0  0  0  0  0  0  0  0  0  0
  127.4760  130.1930   62.4470 C   0  0  0  0  0  0  0  0  0  0  0  0
  128.2760  130.4540   63.6670 C   0  0  2  0  0  0  0  0  0  0  0  0
  127.4690  130.1230   64.9650 C   0  0  2  0  0  0  0  0  0  0  0  0
  127.9880  130.7940   66.2400 C   0  0  0  0  0  0  0  0  0  0  0  0
  127.4470  130.0160   67.3000 O   0  0  0  0  0  0  0  0  0  0  0  0
  127.0710  128.7910   66.8780 C   0  0  0  0  0  0  0  0  0  0  0  0
  126.5920  127.9610   67.6470 O   0  0  0  0  0  0  0  0  0  0  0  0
  127.3400  128.6460   65.3810 C   0  0  2  0  0  0  0  0  0  0  0  0
  128.5590  127.7640   65.1160 C   0  0  0  0  0  0  0  0  0  0  0  0
  129.0950  126.7910   65.9790 C   0  0  0  0  0  0  0  0  0  0  0  0
  130.1810  126.1800   65.3730 C   0  0  0  0  0  0  0  0  0  0  0  0
  130.3360  126.7550   64.1420 N   0  0  0  0  0  0  0  0  0  0  0  0
  129.3670  127.7100   63.9780 C   0  0  0  0  0  0  0  0  0  0  0  0
  128.9320  131.8710   63.7190 C   0  0  0  0  0  0  0  0  0  0  0  0
  129.4120  132.6170   62.4240 C   0  0  2  0  0  0  0  0  0  0  0  0
  128.6340  133.9120   62.0580 C   0  0  0  0  0  0  0  0  0  0  0  0
  127.6410  133.8290   60.8760 C   0  0  0  0  0  0  0  0  0  0  0  0
  126.2630  133.1870   61.1770 C   0  0  0  0  0  0  0  0  0  0  0  0
  125.5210  132.8510   59.8720 C   0  0  0  0  0  0  0  0  0  0  0  0
  125.3860  134.0550   62.0990 C   0  0  0  0  0  0  0  0  0  0  0  0
  129.8000  131.6960   61.2040 C   0  0  2  0  0  0  0  0  0  0  0  0
  131.3230  131.4130   61.1640 C   0  0  0  0  0  0  0  0  0  0  0  0
  129.2230  132.0380   59.7830 C   0  0  2  0  0  0  0  0  0  0  0  0
  127.8280  131.4150   59.5560 C   0  0  0  0  0  0  0  0  0  0  0  0
  130.1560  131.7600   58.5590 C   0  0  0  0  0  0  0  0  0  0  0  0
  130.3220  130.2430   58.2540 C   0  0  2  0  0  0  0  0  0  0  0  0
  131.3440  130.0490   57.2890 O   0  0  0  0  0  0  0  0  0  0  0  0
  129.0450  129.3810   57.9480 C   0  0  1  0  0  0  0  0  0  0  0  0
  129.3730  128.4680   56.7320 C   0  0  0  0  0  0  0  0  0  0  0  0
  128.0020  130.2460   57.5350 O   0  0  0  0  0  0  0  0  0  0  0  0
  126.7970  126.9020   59.7980 C   0  0  0  0  0  0  0  0  0  0  0  0
  128.0790  126.1530   59.3860 C   0  0  2  0  0  0  0  0  0  0  0  0
  127.9430  125.9940   57.9770 O   0  0  0  0  0  0  0  0  0  0  0  0
  128.4480  123.6270   62.4820 C   0  0  2  0  0  0  0  0  0  0  0  0
  126.9700  123.1160   62.5140 C   0  0  0  0  0  0  0  0  0  0  0  0
  128.9560  123.8220   63.9480 C   0  0  0  0  0  0  0  0  0  0  0  0
  128.9960  122.5230   64.7810 C   0  0  2  0  0  0  0  0  0  0  0  0
  129.4370  122.8060   66.0960 O   0  0  0  0  0  0  0  0  0  0  0  0
  129.8930  121.4670   64.0870 C   0  0  1  0  0  0  0  0  0  0  0  0
  129.8560  120.2300   64.7740 O   0  0  0  0  0  0  0  0  0  0  0  0
  129.5300  121.2710   62.5990 C   0  0  0  0  0  0  0  0  0  0  0  0
  129.4140  122.6120   61.8080 C   0  0  1  0  0  0  0  0  0  0  0  0
  129.0300  122.3830   60.3310 C   0  0  0  0  0  0  0  0  0  0  0  0
  129.0230  121.2490   59.8390 O   0  0  0  0  0  0  0  0  0  0  0  0
  124.7565  125.1916   57.5818 H   0  0  0  0  0  0  0  0  0  0  0  0
  126.0624  125.0905   56.3525 H   0  0  0  0  0  0  0  0  0  0  0  0
  124.7333  123.8820   56.3525 H   0  0  0  0  0  0  0  0  0  0  0  0
  127.3946  121.8924   57.4377 H   0  0  0  0  0  0  0  0  0  0  0  0
  127.6266  123.3205   56.3516 H   0  0  0  0  0  0  0  0  0  0  0  0
  129.4900  123.0660   57.7620 H   0  0  0  0  0  0  0  0  0  0  0  0
  127.5645  125.4579   62.0891 H   0  0  0  0  0  0  0  0  0  0  0  0
  129.7446  126.1162   63.0234 H   0  0  0  0  0  0  0  0  0  0  0  0
  130.5703  125.4590   61.5444 H   0  0  0  0  0  0  0  0  0  0  0  0
  128.6560  127.8212   61.7047 H   0  0  0  0  0  0  0  0  0  0  0  0
  130.4598  127.8056   61.3255 H   0  0  0  0  0  0  0  0  0  0  0  0
  131.2870  126.5676   59.7744 H   0  0  0  0  0  0  0  0  0  0  0  0
  130.3652  125.9124   58.3788 H   0  0  0  0  0  0  0  0  0  0  0  0
  130.8956  127.6286   58.3788 H   0  0  0  0  0  0  0  0  0  0  0  0
  128.9465  129.3699   59.9560 H   0  0  0  0  0  0  0  0  0  0  0  0
  126.5793  128.5682   58.3466 H   0  0  0  0  0  0  0  0  0  0  0  0
  125.8651  130.2049   59.6170 H   0  0  0  0  0  0  0  0  0  0  0  0
  125.3266  128.7666   60.6385 H   0  0  0  0  0  0  0  0  0  0  0  0
  129.1271  129.7592   63.6133 H   0  0  0  0  0  0  0  0  0  0  0  0
  126.4990  130.5121   64.6220 H   0  0  0  0  0  0  0  0  0  0  0  0
  129.0875  130.7771   66.2678 H   0  0  0  0  0  0  0  0  0  0  0  0
  127.6920  131.8514   66.3053 H   0  0  0  0  0  0  0  0  0  0  0  0
  126.5687  128.1249   64.7949 H   0  0  0  0  0  0  0  0  0  0  0  0
  128.7108  126.5518   66.9816 H   0  0  0  0  0  0  0  0  0  0  0  0
  130.8030  125.3808   65.8024 H   0  0  0  0  0  0  0  0  0  0  0  0
  131.0450  126.5150   63.4650 H   0  0  0  0  0  0  0  0  0  0  0  0
  129.2440  128.3395   63.0844 H   0  0  0  0  0  0  0  0  0  0  0  0
  128.1965  132.5326   64.1999 H   0  0  0  0  0  0  0  0  0  0  0  0
  129.8835  131.6647   64.2309 H   0  0  0  0  0  0  0  0  0  0  0  0
  130.3878  133.0109   62.7445 H   0  0  0  0  0  0  0  0  0  0  0  0
  128.0646  134.2187   62.9478 H   0  0  0  0  0  0  0  0  0  0  0  0
  129.4061  134.6238   61.7305 H   0  0  0  0  0  0  0  0  0  0  0  0
  127.4617  134.8532   60.5171 H   0  0  0  0  0  0  0  0  0  0  0  0
  128.1180  133.1651   60.1400 H   0  0  0  0  0  0  0  0  0  0  0  0
  126.4628  132.2532   61.7230 H   0  0  0  0  0  0  0  0  0  0  0  0
  124.5427  132.4080   60.1101 H   0  0  0  0  0  0  0  0  0  0  0  0
  125.3744  133.7705   59.2864 H   0  0  0  0  0  0  0  0  0  0  0  0
  126.1154  132.1342   59.2864 H   0  0  0  0  0  0  0  0  0  0  0  0
  125.6184  133.8249   63.1493 H   0  0  0  0  0  0  0  0  0  0  0  0
  125.5884  135.1183   61.9031 H   0  0  0  0  0  0  0  0  0  0  0  0
  124.3248  133.8416   61.9031 H   0  0  0  0  0  0  0  0  0  0  0  0
  129.2489  130.7731   61.4374 H   0  0  0  0  0  0  0  0  0  0  0  0
  131.7097  131.3411   62.1913 H   0  0  0  0  0  0  0  0  0  0  0  0
  131.5061  130.4655   60.6362 H   0  0  0  0  0  0  0  0  0  0  0  0
  131.8343  132.2315   60.6362 H   0  0  0  0  0  0  0  0  0  0  0  0
  129.1398  133.1343   59.8177 H   0  0  0  0  0  0  0  0  0  0  0  0
  127.3577  131.2050   60.5279 H   0  0  0  0  0  0  0  0  0  0  0  0
  127.2002  132.1183   58.9892 H   0  0  0  0  0  0  0  0  0  0  0  0
  127.9327  130.4781   58.9892 H   0  0  0  0  0  0  0  0  0  0  0  0
  129.7275  132.2510   57.6728 H   0  0  0  0  0  0  0  0  0  0  0  0
  131.1515  132.1569   58.8069 H   0  0  0  0  0  0  0  0  0  0  0  0
  130.6089  129.8267   59.2309 H   0  0  0  0  0  0  0  0  0  0  0  0
  131.4830  129.1060   57.1770 H   0  0  0  0  0  0  0  0  0  0  0  0
  129.7244  127.4898   57.0922 H   0  0  0  0  0  0  0  0  0  0  0  0
  128.4680  128.3306   56.1220 H   0  0  0  0  0  0  0  0  0  0  0  0
  130.1585  128.9379   56.1220 H   0  0  0  0  0  0  0  0  0  0  0  0
  127.3450  129.7290   57.0620 H   0  0  0  0  0  0  0  0  0  0  0  0
  126.6607  126.8541   60.8885 H   0  0  0  0  0  0  0  0  0  0  0  0
  125.9044  126.4545   59.3365 H   0  0  0  0  0  0  0  0  0  0  0  0
  127.0850  126.3380   57.7180 H   0  0  0  0  0  0  0  0  0  0  0  0
  126.6436  123.0031   63.5584 H   0  0  0  0  0  0  0  0  0  0  0  0
  126.3200  123.8416   62.0031 H   0  0  0  0  0  0  0  0  0  0  0  0
  126.9070  122.1439   62.0031 H   0  0  0  0  0  0  0  0  0  0  0  0
  129.9736  124.2379   63.9082 H   0  0  0  0  0  0  0  0  0  0  0  0
  128.2404  124.4942   64.4441 H   0  0  0  0  0  0  0  0  0  0  0  0
  127.9825  122.1010   64.8496 H   0  0  0  0  0  0  0  0  0  0  0  0
  130.3420  123.1230   66.0480 H   0  0  0  0  0  0  0  0  0  0  0  0
  130.9206  121.8577   64.1242 H   0  0  0  0  0  0  0  0  0  0  0  0
  129.5690  120.3890   65.6760 H   0  0  0  0  0  0  0  0  0  0  0  0
  130.3098  120.6545   62.1280 H   0  0  0  0  0  0  0  0  0  0  0  0
  128.5423  120.7878   62.5663 H   0  0  0  0  0  0  0  0  0  0  0  0
  130.4186  123.0596   61.8294 H   0  0  0  0  0  0  0  0  0  0  0  0
  1  2  1  0
  2  3  2  0
  2  4  1  0
  4  5  1  0
  5  6  1  0
  6  7  2  0
  7  8  1  0
  8  9  1  0
  9 10  1  0
 10 11  1  0
 11 12  1  6
 11 13  1  0
 13 14  1  0
 14 15  1  0
 15 16  1  0
 16 17  3  0
 17 18  1  0
 18 19  1  0
 19 20  1  0
 20 21  1  0
 21 22  1  0
 22 23  2  0
 22 24  1  0
 24 25  1  0
 25 26  1  0
 26 27  2  0
 27 28  1  0
 28 29  1  0
 18 30  1  0
 30 31  1  0
 31 32  1  0
 32 33  1  0
 33 34  1  0
 34 35  1  0
 34 36  1  0
 31 37  1  0
 37 38  1  0
 37 39  1  0
 39 40  1  0
 39 41  1  0
 41 42  1  0
 42 43  1  0
 42 44  1  0
 44 45  1  0
 44 46  1  6
 14 47  1  0
 47 48  1  0
 48 49  1  6
  8 50  1  0
 50 51  1  1
 50 52  1  0
 52 53  1  0
 53 54  1  0
 53 55  1  0
 55 56  1  0
 55 57  1  0
 57 58  1  0
 58 59  1  0
 59 60  2  0
 59  6  1  0
 48  7  1  0
 58 50  1  0
 48 11  1  0
 44 13  1  0
 24 19  1  0
 29 25  2  0
  1 61  1  0
  1 62  1  0
  1 63  1  0
  4 64  1  0
  4 65  1  0
  5 66  1  0
  8 67  1  1
  9 68  1  0
  9 69  1  0
 10 70  1  0
 10 71  1  0
 12 72  1  0
 12 73  1  0
 12 74  1  0
 13 75  1  1
 14 76  1  6
 15 77  1  0
 15 78  1  0
 18 79  1  6
 19 80  1  6
 20 81  1  0
 20 82  1  0
 24 83  1  6
 26 84  1  0
 27 85  1  0
 28 86  1  0
 29 87  1  0
 30 88  1  0
 30 89  1  0
 31 90  1  1
 32 91  1  0
 32 92  1  0
 33 93  1  0
 33 94  1  0
 34 95  1  0
 35 96  1  0
 35 97  1  0
 35 98  1  0
 36 99  1  0
 36100  1  0
 36101  1  0
 37102  1  1
 38103  1  0
 38104  1  0
 38105  1  0
 39106  1  1
 40107  1  0
 40108  1  0
 40109  1  0
 41110  1  0
 41111  1  0
 42112  1  1
 43113  1  0
 45114  1  0
 45115  1  0
 45116  1  0
 46117  1  0
 47118  1  0
 47119  1  0
 49120  1  0
 51121  1  0
 51122  1  0
 51123  1  0
 52124  1  0
 52125  1  0
 53126  1  1
 54127  1  0
 55128  1  6
 56129  1  0
 57130  1  0
 57131  1  0
 58132  1  6
M  END
>  <Binding energies>  (1) 
[4.83]

>  <Ligand effiencies>  (1) 
[0.07]

>  <Interactions>  (1) 
["V-B:PRO:540:CA:9855, H-A:GLU:543:OE2:4910, V-B:GLU:543:CB:9878, V-A:PRO:540:C:4881, V-B:ALA:541:CB:9864, V-B:ASP:366:CG:8184, H-A:TYR:531:OH:4795, V-B:TYR:539:CE2:9848, V-A:TYR:484:CE2:4346, V-A:LEU:475:CG:4257, V-B:GLU:543:CG:9879, V-B:LEU:475:CD2:9230, V-A:TYR:539:CE1:4875, V-A:TYR:539:CD1:4873, V-B:TYR:484:CE2:9317, V-B:TYR:539:CZ:9849, H-B:TYR:539:OH:9850, V-A:ALA:541:CB:4892, V-B:TYR:531:CE2:9765, V-A:LEU:475:CD1:4258, V-A:GLU:543:CD:4908, V-B:PRO:540:CB:9857, H-B:TYR:484:OH:9319, V-B:HIS:456:CE1:9041, V-B:ILE:369:CG2:8208, V-B:PRO:540:N:9856, V-B:TYR:484:CZ:9318, V-A:ALA:541:CA:4890, V-B:TYR:539:CD2:9846, V-A:GLU:543:CG:4907, V-B:GLU:543:CD:9880, V-A:MET:535:CE:4835, V-A:TYR:539:C:4867, H-B:TYR:531:OH:9767, V-A:LEU:475:CD2:4259, H-A:GLU:543:OE1:4909, V-A:GLU:543:CB:4906, V-B:LEU:363:CD1:8160, V-A:PRO:540:CB:4885, V-A:PRO:540:CA:4883, H-B:VAL:542:O:9867, V-B:MET:535:CE:9807, V-B:ALA:541:CA:9862, V-B:TYR:539:CE1:9847, H-A:TYR:484:OH:4348"]

$$$$
ZINC2356368724
     RDKit          3D

 43 45  0  0  0  0  0  0  0  0999 V2000
  127.5140  122.9190   57.0500 C   0  0  0  0  0  0  0  0  0  0  0  0
  127.7610  123.9000   57.9440 C   0  0  0  0  0  0  0  0  0  0  0  0
  127.6430  125.3540   57.4710 C   0  0  0  0  0  0  0  0  0  0  0  0
  128.8160  126.2950   57.8250 C   0  0  0  0  0  0  0  0  0  0  0  0
  130.2020  125.6050   57.7620 C   0  0  2  0  0  0  0  0  0  0  0  0
  130.5170  124.5640   58.8160 C   0  0  2  0  0  0  0  0  0  0  0  0
  129.4500  124.2920   59.9150 C   0  0  2  0  0  0  0  0  0  0  0  0
  129.9950  123.4140   61.0630 C   0  0  0  0  0  0  0  0  0  0  0  0
  129.1480  122.1290   61.1110 C   0  0  2  0  0  0  0  0  0  0  0  0
  129.9880  120.8630   61.3600 C   0  0  0  0  0  0  0  0  0  0  0  0
  128.4050  122.0980   59.7710 C   0  0  0  0  0  0  0  0  0  0  0  0
  128.1790  123.5730   59.3930 C   0  0  2  0  0  0  0  0  0  0  0  0
  131.3540  125.8520   58.7430 C   0  0  2  0  0  0  0  0  0  0  0  0
  131.1880  126.9570   59.8220 C   0  0  0  0  0  0  0  0  0  0  0  0
  132.8340  125.7470   58.2480 C   0  0  2  0  0  0  0  0  0  0  0  0
  133.0300  125.8380   56.7900 N   0  0  0  0  0  0  0  0  0  0  0  0
  133.4420  124.4360   58.6840 C   0  0  0  0  0  0  0  0  0  0  0  0
  134.0430  123.6970   57.9060 O   0  0  0  0  0  0  0  0  0  0  0  0
  127.5894  121.8649   57.3553 H   0  0  0  0  0  0  0  0  0  0  0  0
  127.2373  123.1738   56.0163 H   0  0  0  0  0  0  0  0  0  0  0  0
  127.5445  125.3414   56.3755 H   0  0  0  0  0  0  0  0  0  0  0  0
  126.7726  125.7626   58.0053 H   0  0  0  0  0  0  0  0  0  0  0  0
  128.8134  127.1365   57.1166 H   0  0  0  0  0  0  0  0  0  0  0  0
  128.6650  126.6239   58.8638 H   0  0  0  0  0  0  0  0  0  0  0  0
  130.1503  125.6695   56.6651 H   0  0  0  0  0  0  0  0  0  0  0  0
  130.7926  123.4995   58.8451 H   0  0  0  0  0  0  0  0  0  0  0  0
  129.1920  125.3014   60.2680 H   0  0  0  0  0  0  0  0  0  0  0  0
  131.0488  123.1615   60.8739 H   0  0  0  0  0  0  0  0  0  0  0  0
  129.9353  123.9512   62.0210 H   0  0  0  0  0  0  0  0  0  0  0  0
  128.4499  122.1381   61.9611 H   0  0  0  0  0  0  0  0  0  0  0  0
  130.0953  120.7013   62.4427 H   0  0  0  0  0  0  0  0  0  0  0  0
  129.4860  119.9950   60.9076 H   0  0  0  0  0  0  0  0  0  0  0  0
  130.9828  120.9882   60.9076 H   0  0  0  0  0  0  0  0  0  0  0  0
  129.0131  121.5936   59.0056 H   0  0  0  0  0  0  0  0  0  0  0  0
  127.4570  121.5447   59.8423 H   0  0  0  0  0  0  0  0  0  0  0  0
  127.2586  123.9470   59.8652 H   0  0  0  0  0  0  0  0  0  0  0  0
  131.2558  126.5054   60.8227 H   0  0  0  0  0  0  0  0  0  0  0  0
  131.9835  127.7075   59.7037 H   0  0  0  0  0  0  0  0  0  0  0  0
  130.2071  127.4406   59.7037 H   0  0  0  0  0  0  0  0  0  0  0  0
  133.3200  126.6229   58.7026 H   0  0  0  0  0  0  0  0  0  0  0  0
  133.1620  126.7980   56.5070 H   0  0  0  0  0  0  0  0  0  0  0  0
  133.8610  125.3370   56.5090 H   0  0  0  0  0  0  0  0  0  0  0  0
  133.3439  124.1304   59.7361 H   0  0  0  0  0  0  0  0  0  0  0  0
  1  2  2  0
  2  3  1  0
  3  4  1  0
  4  5  1  0
  5  6  1  0
  6  7  1  0
  7  8  1  0
  8  9  1  0
  9 10  1  0
  9 11  1  0
 11 12  1  0
  6 13  1  0
 13 14  1  1
 13 15  1  0
 15 16  1  0
 15 17  1  0
 17 18  2  0
 12  2  1  0
 13  5  1  0
 12  7  1  0
  1 19  1  0
  1 20  1  0
  3 21  1  0
  3 22  1  0
  4 23  1  0
  4 24  1  0
  5 25  1  6
  6 26  1  6
  7 27  1  1
  8 28  1  0
  8 29  1  0
  9 30  1  1
 10 31  1  0
 10 32  1  0
 10 33  1  0
 11 34  1  0
 11 35  1  0
 12 36  1  1
 14 37  1  0
 14 38  1  0
 14 39  1  0
 15 40  1  1
 16 41  1  0
 16 42  1  0
 17 43  1  0
M  END
>  <Binding energies>  (1) 
[-5.11]

>  <Ligand effiencies>  (1) 
[-0.2322727272727273]

>  <Interactions>  (1) 
["V-A:ILE:369:CG2:3237, V-A:ASP:366:CA:3210, V-B:PRO:540:CA:9855, V-B:ALA:541:CB:9864, V-B:TYR:539:CE2:9848, H-A:TYR:531:OH:4795, V-B:TYR:539:C:9839, V-A:ASP:366:CG:3213, V-B:TYR:539:CZ:9849, H-A:ASN:370:N:3244, H-B:TYR:539:OH:9850, V-B:PRO:540:N:9856, V-A:ASP:366:C:3208, V-B:TYR:539:CD2:9846, V-A:ASP:366:CB:3212, V-A:LEU:475:CD2:4259, V-B:TYR:539:CG:9844, H-A:ASP:366:O:3209, V-B:TYR:539:CD1:9845, V-B:PRO:540:C:9853, V-B:TYR:539:CE1:9847"]

$$$$
ZINC2356369204
     RDKit          3D

112116  0  0  0  0  0  0  0  0999 V2000
  131.1070  127.6350   68.7710 C   0  0  0  0  0  0  0  0  0  0  0  0
  129.7740  127.5140   68.6100 C   0  0  0  0  0  0  0  0  0  0  0  0
  129.2980  126.8650   67.3910 C   0  0  0  0  0  0  0  0  0  0  0  0
  130.0350  126.0670   66.5940 C   0  0  0  0  0  0  0  0  0  0  0  0
  129.5010  125.4360   65.3980 C   0  0  0  0  0  0  0  0  0  0  0  0
  130.2100  124.7030   64.5090 C   0  0  0  0  0  0  0  0  0  0  0  0
  131.7180  124.4660   64.6390 C   0  0  0  0  0  0  0  0  0  0  0  0
  132.3950  125.7050   64.6050 O   0  0  0  0  0  0  0  0  0  0  0  0
  129.5130  124.0760   63.2920 C   0  0  2  0  0  0  0  0  0  0  0  0
  130.2120  122.8280   62.7230 C   0  0  0  0  0  0  0  0  0  0  0  0
  130.4890  123.1440   61.2510 C   0  0  0  0  0  0  0  0  0  0  0  0
  129.4900  124.2460   60.7730 C   0  0  1  0  0  0  0  0  0  0  0  0
  130.1340  125.1260   59.6160 C   0  0  2  0  0  0  0  0  0  0  0  0
  131.6280  125.5920   59.6540 C   0  0  0  0  0  0  0  0  0  0  0  0
  132.6850  124.5320   59.2310 C   0  0  0  0  0  0  0  0  0  0  0  0
  133.7040  124.0890   60.3190 C   0  0  0  0  0  0  0  0  0  0  0  0
  135.0040  124.4090   59.8510 O   0  0  0  0  0  0  0  0  0  0  0  0
  133.4860  124.7100   61.7110 C   0  0  0  0  0  0  0  0  0  0  0  0
  134.1740  123.7690   62.7120 C   0  0  0  0  0  0  0  0  0  0  0  0
  134.2840  122.4050   62.0130 C   0  0  0  0  0  0  0  0  0  0  0  0
  133.6410  122.5820   60.6300 C   0  0  0  0  0  0  0  0  0  0  0  0
  129.1240  126.2370   59.2280 C   0  0  0  0  0  0  0  0  0  0  0  0
  129.1950  127.5770   59.5100 C   0  0  0  0  0  0  0  0  0  0  0  0
  130.2670  128.2890   60.3380 C   0  0  0  0  0  0  0  0  0  0  0  0
  128.1460  128.5050   59.0730 C   0  0  0  0  0  0  0  0  0  0  0  0
  128.1700  129.0430   57.9650 O   0  0  0  0  0  0  0  0  0  0  0  0
  126.9830  128.7680   60.0470 C   0  0  0  0  0  0  0  0  0  0  0  0
  127.4700  129.3600   61.3690 C   0  0  0  0  0  0  0  0  0  0  0  0
  127.1840  128.6920   62.5620 C   0  0  0  0  0  0  0  0  0  0  0  0
  127.6170  129.2080   63.7810 C   0  0  0  0  0  0  0  0  0  0  0  0
  128.3450  130.3970   63.8180 C   0  0  0  0  0  0  0  0  0  0  0  0
  128.6600  131.0840   62.6400 C   0  0  0  0  0  0  0  0  0  0  0  0
  128.2060  130.5580   61.4130 C   0  0  0  0  0  0  0  0  0  0  0  0
  128.5080  131.1710   60.2030 O   0  0  0  0  0  0  0  0  0  0  0  0
  128.9130  132.4800   60.1470 C   0  0  0  0  0  0  0  0  0  0  0  0
  128.9260  133.0450   59.0560 O   0  0  0  0  0  0  0  0  0  0  0  0
  129.3090  133.0630   61.3460 N   0  0  0  0  0  0  0  0  0  0  0  0
  129.4300  132.4050   62.6460 C   0  0  2  0  0  0  0  0  0  0  0  0
  130.8470  132.2230   62.8930 N   0  0  0  0  0  0  0  0  0  0  0  0
  127.9630  125.5610   58.4860 C   0  0  0  0  0  0  0  0  0  0  0  0
  127.2200  124.6610   59.4920 C   0  0  0  0  0  0  0  0  0  0  0  0
  128.1020  123.6200   60.2540 C   0  0  2  0  0  0  0  0  0  0  0  0
  127.1870  122.8340   61.2210 C   0  0  0  0  0  0  0  0  0  0  0  0
  128.4700  122.6750   59.2550 O   0  0  0  0  0  0  0  0  0  0  0  0
  129.3410  125.0590   62.1060 C   0  0  1  0  0  0  0  0  0  0  0  0
  128.2010  125.8870   62.2320 O   0  0  0  0  0  0  0  0  0  0  0  0
  128.7780  128.0380   69.6560 C   0  0  0  0  0  0  0  0  0  0  0  0
  128.0640  127.0120   70.5590 C   0  0  0  0  0  0  0  0  0  0  0  0
  128.0890  127.3910   72.0300 C   0  0  0  0  0  0  0  0  0  0  0  0
  129.1660  127.6660   72.7990 C   0  0  0  0  0  0  0  0  0  0  0  0
  129.0120  128.0550   74.2590 C   0  0  0  0  0  0  0  0  0  0  0  0
  130.6100  127.6050   72.3210 C   0  0  0  0  0  0  0  0  0  0  0  0
  131.5105  128.1170   69.6737 H   0  0  0  0  0  0  0  0  0  0  0  0
  131.7912  127.2517   67.9997 H   0  0  0  0  0  0  0  0  0  0  0  0
  128.2521  127.0423   67.0999 H   0  0  0  0  0  0  0  0  0  0  0  0
  131.0868  125.8849   66.8598 H   0  0  0  0  0  0  0  0  0  0  0  0
  128.4271  125.5659   65.1986 H   0  0  0  0  0  0  0  0  0  0  0  0
  131.9285  123.9594   65.5925 H   0  0  0  0  0  0  0  0  0  0  0  0
  132.0631  123.8372   63.8051 H   0  0  0  0  0  0  0  0  0  0  0  0
  131.8460  126.3650   65.0330 H   0  0  0  0  0  0  0  0  0  0  0  0
  128.5367  123.7922   63.7118 H   0  0  0  0  0  0  0  0  0  0  0  0
  131.1539  122.6382   63.2585 H   0  0  0  0  0  0  0  0  0  0  0  0
  129.5902  121.9275   62.8351 H   0  0  0  0  0  0  0  0  0  0  0  0
  131.5211  123.5078   61.1394 H   0  0  0  0  0  0  0  0  0  0  0  0
  130.3599  122.2356   60.6442 H   0  0  0  0  0  0  0  0  0  0  0  0
  130.2969  124.3904   58.8146 H   0  0  0  0  0  0  0  0  0  0  0  0
  131.7284  126.4550   58.9793 H   0  0  0  0  0  0  0  0  0  0  0  0
  131.8410  125.8178   60.7093 H   0  0  0  0  0  0  0  0  0  0  0  0
  132.1426  123.6351   58.8974 H   0  0  0  0  0  0  0  0  0  0  0  0
  133.2883  125.0204   58.4516 H   0  0  0  0  0  0  0  0  0  0  0  0
  135.3380  125.1470   60.3660 H   0  0  0  0  0  0  0  0  0  0  0  0
  133.9379  125.7119   61.7567 H   0  0  0  0  0  0  0  0  0  0  0  0
  132.4153  124.8224   61.9369 H   0  0  0  0  0  0  0  0  0  0  0  0
  135.1745  124.1487   62.9665 H   0  0  0  0  0  0  0  0  0  0  0  0
  133.6028  123.6940   63.6491 H   0  0  0  0  0  0  0  0  0  0  0  0
  135.3395  122.1135   61.9087 H   0  0  0  0  0  0  0  0  0  0  0  0
  133.7820  121.6154   62.5914 H   0  0  0  0  0  0  0  0  0  0  0  0
  134.2004  122.0124   59.8733 H   0  0  0  0  0  0  0  0  0  0  0  0
  132.6050  122.2124   60.6184 H   0  0  0  0  0  0  0  0  0  0  0  0
  130.0564  128.1491   61.4086 H   0  0  0  0  0  0  0  0  0  0  0  0
  131.2545  127.8667   60.1003 H   0  0  0  0  0  0  0  0  0  0  0  0
  130.2607  129.3630   60.1003 H   0  0  0  0  0  0  0  0  0  0  0  0
  126.2798  129.4728   59.5793 H   0  0  0  0  0  0  0  0  0  0  0  0
  126.4951  127.8061   60.2633 H   0  0  0  0  0  0  0  0  0  0  0  0
  126.6130  127.7521   62.5385 H   0  0  0  0  0  0  0  0  0  0  0  0
  127.3845  128.6770   64.7159 H   0  0  0  0  0  0  0  0  0  0  0  0
  128.6762  130.8004   64.7863 H   0  0  0  0  0  0  0  0  0  0  0  0
  129.5440  134.0430   61.3010 H   0  0  0  0  0  0  0  0  0  0  0  0
  128.9924  133.0087   63.4548 H   0  0  0  0  0  0  0  0  0  0  0  0
  130.9880  131.4100   63.4760 H   0  0  0  0  0  0  0  0  0  0  0  0
  131.3280  132.0510   62.0220 H   0  0  0  0  0  0  0  0  0  0  0  0
  127.2773  126.3244   58.0898 H   0  0  0  0  0  0  0  0  0  0  0  0
  128.3419  124.9636   57.6436 H   0  0  0  0  0  0  0  0  0  0  0  0
  126.7443  125.3122   60.2401 H   0  0  0  0  0  0  0  0  0  0  0  0
  126.5088  124.0704   58.8958 H   0  0  0  0  0  0  0  0  0  0  0  0
  127.4621  123.0703   62.2595 H   0  0  0  0  0  0  0  0  0  0  0  0
  126.1387  123.1175   61.0458 H   0  0  0  0  0  0  0  0  0  0  0  0
  127.3092  121.7549   61.0458 H   0  0  0  0  0  0  0  0  0  0  0  0
  128.3550  121.7930   59.6160 H   0  0  0  0  0  0  0  0  0  0  0  0
  130.1403  125.8147   62.1002 H   0  0  0  0  0  0  0  0  0  0  0  0
  127.4470  125.3360   62.4570 H   0  0  0  0  0  0  0  0  0  0  0  0
  129.3284  128.7255   70.3151 H   0  0  0  0  0  0  0  0  0  0  0  0
  127.9692  128.4879   69.0615 H   0  0  0  0  0  0  0  0  0  0  0  0
  127.0155  126.9319   70.2362 H   0  0  0  0  0  0  0  0  0  0  0  0
  128.6011  126.0574   70.4578 H   0  0  0  0  0  0  0  0  0  0  0  0
  127.1111  127.4487   72.5304 H   0  0  0  0  0  0  0  0  0  0  0  0
  129.3418  127.2219   74.8972 H   0  0  0  0  0  0  0  0  0  0  0  0
  129.6264  128.9430   74.4686 H   0  0  0  0  0  0  0  0  0  0  0  0
  127.9562  128.2818   74.4686 H   0  0  0  0  0  0  0  0  0  0  0  0
  131.2832  127.5766   73.1905 H   0  0  0  0  0  0  0  0  0  0  0  0
  130.7572  126.6998   71.7135 H   0  0  0  0  0  0  0  0  0  0  0  0
  130.8330  128.4945   71.7135 H   0  0  0  0  0  0  0  0  0  0  0  0
  1  2  2  0
  2  3  1  0
  3  4  2  0
  4  5  1  0
  5  6  2  0
  6  7  1  0
  7  8  1  0
  6  9  1  0
  9 10  1  0
 10 11  1  0
 12 11  1  1
 12 13  1  0
 13 14  1  0
 14 15  1  0
 15 16  1  0
 16 17  1  0
 16 18  1  0
 18 19  1  0
 19 20  1  0
 20 21  1  0
 13 22  1  0
 22 23  2  0
 23 24  1  0
 23 25  1  0
 25 26  2  0
 25 27  1  0
 27 28  1  0
 28 29  2  0
 29 30  1  0
 30 31  2  0
 31 32  1  0
 32 33  2  0
 33 34  1  0
 34 35  1  0
 35 36  2  0
 35 37  1  0
 37 38  1  0
 38 39  1  0
 22 40  1  0
 40 41  1  0
 41 42  1  0
 42 43  1  0
 42 44  1  6
 12 45  1  0
 45 46  1  0
  2 47  1  0
 47 48  1  0
 48 49  1  0
 49 50  2  3
 50 51  1  0
 50 52  1  0
 45  9  1  0
 42 12  1  0
 21 16  1  0
 33 28  1  0
 38 32  1  0
  1 53  1  0
  1 54  1  0
  3 55  1  0
  4 56  1  0
  5 57  1  0
  7 58  1  0
  7 59  1  0
  8 60  1  0
  9 61  1  1
 10 62  1  0
 10 63  1  0
 11 64  1  0
 11 65  1  0
 13 66  1  6
 14 67  1  0
 14 68  1  0
 15 69  1  0
 15 70  1  0
 17 71  1  0
 18 72  1  0
 18 73  1  0
 19 74  1  0
 19 75  1  0
 20 76  1  0
 20 77  1  0
 21 78  1  0
 21 79  1  0
 24 80  1  0
 24 81  1  0
 24 82  1  0
 27 83  1  0
 27 84  1  0
 29 85  1  0
 30 86  1  0
 31 87  1  0
 37 88  1  0
 38 89  1  1
 39 90  1  0
 39 91  1  0
 40 92  1  0
 40 93  1  0
 41 94  1  0
 41 95  1  0
 43 96  1  0
 43 97  1  0
 43 98  1  0
 44 99  1  0
 45100  1  1
 46101  1  0
 47102  1  0
 47103  1  0
 48104  1  0
 48105  1  0
 49106  1  0
 51107  1  0
 51108  1  0
 51109  1  0
 52110  1  0
 52111  1  0
 52112  1  0
M  END
>  <Binding energies>  (1) 
[-10.91]

>  <Ligand effiencies>  (1) 
[-0.18491525423728813]

>  <Interactions>  (1) 
["V-A:ILE:369:CG2:3237, V-B:PRO:540:CA:9855, V-A:GLY:454:CA:4049, V-B:GLU:543:C:9874, H-A:GLU:543:OE2:4910, V-B:HIS:456:CD2:9039, H-A:ALA:541:N:4891, V-A:ILE:369:CB:3236, V-B:GLU:543:CB:9878, V-A:PRO:540:C:4881, H-A:ALA:541:O:4889, V-B:TYR:539:CE2:9848, V-B:GLU:543:CG:9879, V-A:GLY:544:C:4912, V-A:HIS:456:CD2:4068, V-A:ASP:366:CG:3213, H-B:GLU:543:OE1:9881, V-A:ALA:541:CB:4892, V-A:GLU:543:CD:4908, V-B:PRO:540:CB:9857, V-B:HIS:456:CE1:9041, V-A:ARG:545:CG:4922, V-A:GLY:453:C:4042, V-A:HIS:456:CE1:4070, V-A:ILE:369:CD1:3239, V-A:GLU:543:CG:4907, V-B:GLU:543:CD:9880, V-A:LEU:475:CD2:4259, H-A:ARG:545:NH2:4928, H-A:GLU:543:OE1:4909, V-A:GLU:543:CB:4906, H-A:ASP:366:OD1:3214, H-A:TYR:539:O:4868, H-B:GLU:543:OE2:9882, V-A:PRO:540:CA:4883, H-B:TYR:539:O:9840, H-A:ARG:545:NE:4924, V-B:PRO:540:C:9853"]

$$$$
ZINC2356370573
     RDKit          3D

 88 92  0  0  0  0  0  0  0  0999 V2000
  129.1410  128.6430   69.0440 C   0  0  0  0  0  0  0  0  0  0  0  0
  128.2600  128.2250   68.0060 O   0  0  0  0  0  0  0  0  0  0  0  0
  128.7440  127.4270   66.9840 C   0  0  0  0  0  0  0  0  0  0  0  0
  128.6260  127.7450   65.6190 C   0  0  0  0  0  0  0  0  0  0  0  0
  129.1390  126.8980   64.6290 C   0  0  0  0  0  0  0  0  0  0  0  0
  128.9970  127.2520   63.1420 C   0  0  2  0  0  0  0  0  0  0  0  0
  128.3230  128.6420   62.9720 C   0  0  0  0  0  0  0  0  0  0  0  0
  128.8470  129.6440   61.9060 C   0  0  2  0  0  0  0  0  0  0  0  0
  128.8000  130.9720   62.4290 O   0  0  0  0  0  0  0  0  0  0  0  0
  129.6150  131.9570   61.9870 C   0  0  0  0  0  0  0  0  0  0  0  0
  130.7680  132.1750   62.3620 O   0  0  0  0  0  0  0  0  0  0  0  0
  128.9500  132.8190   60.9120 C   0  0  0  0  0  0  0  0  0  0  0  0
  129.5690  132.5160   59.5560 C   0  0  0  0  0  0  0  0  0  0  0  0
  129.0930  133.1550   58.4070 C   0  0  0  0  0  0  0  0  0  0  0  0
  129.6570  132.8730   57.1650 C   0  0  0  0  0  0  0  0  0  0  0  0
  130.6940  131.9470   57.0620 C   0  0  0  0  0  0  0  0  0  0  0  0
  131.1780  131.2930   58.2030 C   0  0  0  0  0  0  0  0  0  0  0  0
  132.3140  130.2730   58.1420 C   0  0  0  0  0  0  0  0  0  0  0  0
  133.5680  130.7330   58.6120 O   0  0  0  0  0  0  0  0  0  0  0  0
  130.6060  131.5840   59.4470 C   0  0  0  0  0  0  0  0  0  0  0  0
  128.3050  129.5040   60.4510 C   0  0  0  0  0  0  0  0  0  0  0  0
  128.6990  128.2770   59.5710 C   0  0  2  0  0  0  0  0  0  0  0  0
  127.5990  127.7740   58.8060 O   0  0  0  0  0  0  0  0  0  0  0  0
  127.7780  127.1360   57.6260 C   0  0  0  0  0  0  0  0  0  0  0  0
  126.9400  125.8690   57.5210 C   0  0  0  0  0  0  0  0  0  0  0  0
  128.5190  127.4920   56.7090 O   0  0  0  0  0  0  0  0  0  0  0  0
  129.4190  127.0960   60.2800 C   0  0  2  0  0  0  0  0  0  0  0  0
  130.5360  126.5210   59.3650 C   0  0  0  0  0  0  0  0  0  0  0  0
  131.1670  125.2970   60.0170 C   0  0  0  0  0  0  0  0  0  0  0  0
  132.5520  125.1490   60.1390 C   0  0  0  0  0  0  0  0  0  0  0  0
  133.1170  124.0150   60.7410 C   0  0  0  0  0  0  0  0  0  0  0  0
  134.4790  123.8150   60.8870 O   0  0  0  0  0  0  0  0  0  0  0  0
  135.1410  124.3280   62.0380 C   0  0  0  0  0  0  0  0  0  0  0  0
  132.2570  123.0240   61.2250 C   0  0  0  0  0  0  0  0  0  0  0  0
  132.7600  121.8970   61.8250 O   0  0  0  0  0  0  0  0  0  0  0  0
  130.8760  123.1670   61.1090 C   0  0  0  0  0  0  0  0  0  0  0  0
  130.3100  124.3010   60.5100 C   0  0  0  0  0  0  0  0  0  0  0  0
  128.7980  124.5450   60.3590 C   0  0  1  0  0  0  0  0  0  0  0  0
  127.8940  123.4110   60.9130 C   0  0  0  0  0  0  0  0  0  0  0  0
  126.5870  123.8730   61.1890 O   0  0  0  0  0  0  0  0  0  0  0  0
  128.4440  125.9960   60.8460 C   0  0  1  0  0  0  0  0  0  0  0  0
  128.3140  126.0730   62.3960 C   0  0  0  0  0  0  0  0  0  0  0  0
  129.7750  125.7140   65.0120 C   0  0  0  0  0  0  0  0  0  0  0  0
  129.8990  125.3840   66.3600 C   0  0  0  0  0  0  0  0  0  0  0  0
  129.3890  126.2340   67.3400 C   0  0  0  0  0  0  0  0  0  0  0  0
  129.5260  125.8820   68.6590 O   0  0  0  0  0  0  0  0  0  0  0  0
  128.6849  128.4266   70.0213 H   0  0  0  0  0  0  0  0  0  0  0  0
  130.0943  128.1012   68.9562 H   0  0  0  0  0  0  0  0  0  0  0  0
  129.3243  129.7241   68.9562 H   0  0  0  0  0  0  0  0  0  0  0  0
  128.1212  128.6766   65.3236 H   0  0  0  0  0  0  0  0  0  0  0  0
  129.9807  127.3719   62.6645 H   0  0  0  0  0  0  0  0  0  0  0  0
  127.2655  128.4533   62.7352 H   0  0  0  0  0  0  0  0  0  0  0  0
  128.5515  129.1472   63.9220 H   0  0  0  0  0  0  0  0  0  0  0  0
  129.8951  129.3587   61.7324 H   0  0  0  0  0  0  0  0  0  0  0  0
  127.8731  132.5972   60.8800 H   0  0  0  0  0  0  0  0  0  0  0  0
  129.1015  133.8817   61.1522 H   0  0  0  0  0  0  0  0  0  0  0  0
  128.2712  133.8821   58.4841 H   0  0  0  0  0  0  0  0  0  0  0  0
  129.2836  133.3818   56.2640 H   0  0  0  0  0  0  0  0  0  0  0  0
  131.1353  131.7282   56.0785 H   0  0  0  0  0  0  0  0  0  0  0  0
  132.0222  129.4031   58.7488 H   0  0  0  0  0  0  0  0  0  0  0  0
  132.4561  130.0403   57.0763 H   0  0  0  0  0  0  0  0  0  0  0  0
  133.7210  130.3630   59.4850 H   0  0  0  0  0  0  0  0  0  0  0  0
  130.9762  131.0741   60.3486 H   0  0  0  0  0  0  0  0  0  0  0  0
  127.2074  129.4999   60.5232 H   0  0  0  0  0  0  0  0  0  0  0  0
  128.7830  130.3455   59.9282 H   0  0  0  0  0  0  0  0  0  0  0  0
  129.4586  128.7196   58.9098 H   0  0  0  0  0  0  0  0  0  0  0  0
  126.6988  125.5043   58.5303 H   0  0  0  0  0  0  0  0  0  0  0  0
  126.0088  126.0892   56.9784 H   0  0  0  0  0  0  0  0  0  0  0  0
  127.5070  125.0983   56.9784 H   0  0  0  0  0  0  0  0  0  0  0  0
  129.8979  127.5024   61.1831 H   0  0  0  0  0  0  0  0  0  0  0  0
  130.1012  126.2339   58.3962 H   0  0  0  0  0  0  0  0  0  0  0  0
  131.3096  127.2885   59.2147 H   0  0  0  0  0  0  0  0  0  0  0  0
  133.2132  125.9394   59.7543 H   0  0  0  0  0  0  0  0  0  0  0  0
  134.6487  123.9465   62.9447 H   0  0  0  0  0  0  0  0  0  0  0  0
  136.1931  124.0070   62.0294 H   0  0  0  0  0  0  0  0  0  0  0  0
  135.0928  125.4269   62.0294 H   0  0  0  0  0  0  0  0  0  0  0  0
  133.7200  121.8730   61.8400 H   0  0  0  0  0  0  0  0  0  0  0  0
  130.2173  122.3750   61.4948 H   0  0  0  0  0  0  0  0  0  0  0  0
  128.5532  124.4965   59.2877 H   0  0  0  0  0  0  0  0  0  0  0  0
  127.8370  122.6041   60.1676 H   0  0  0  0  0  0  0  0  0  0  0  0
  128.3355  123.0484   61.8530 H   0  0  0  0  0  0  0  0  0  0  0  0
  126.5910  124.3100   62.0440 H   0  0  0  0  0  0  0  0  0  0  0  0
  127.4549  126.2246   60.4223 H   0  0  0  0  0  0  0  0  0  0  0  0
  127.2401  126.1203   62.6293 H   0  0  0  0  0  0  0  0  0  0  0  0
  128.8504  125.1821   62.7546 H   0  0  0  0  0  0  0  0  0  0  0  0
  130.1803  125.0383   64.2444 H   0  0  0  0  0  0  0  0  0  0  0  0
  130.4010  124.4497   66.6518 H   0  0  0  0  0  0  0  0  0  0  0  0
  128.9480  125.1600   68.9160 H   0  0  0  0  0  0  0  0  0  0  0  0
  1  2  1  0
  2  3  1  0
  3  4  2  0
  4  5  1  0
  5  6  1  0
  6  7  1  0
  7  8  1  0
  8  9  1  0
  9 10  1  0
 10 11  2  0
 10 12  1  0
 12 13  1  0
 13 14  2  0
 14 15  1  0
 15 16  2  0
 16 17  1  0
 17 18  1  0
 18 19  1  0
 17 20  2  0
  8 21  1  0
 21 22  1  0
 22 23  1  0
 23 24  1  0
 24 25  1  0
 24 26  2  0
 22 27  1  0
 27 28  1  0
 28 29  1  0
 29 30  2  0
 30 31  1  0
 31 32  1  0
 32 33  1  0
 31 34  2  0
 34 35  1  0
 34 36  1  0
 36 37  2  0
 37 38  1  0
 38 39  1  0
 39 40  1  0
 38 41  1  0
 41 42  1  0
  5 43  2  0
 43 44  1  0
 44 45  2  0
 45 46  1  0
 45  3  1  0
 42  6  1  0
 20 13  1  0
 41 27  1  0
 37 29  1  0
  1 47  1  0
  1 48  1  0
  1 49  1  0
  4 50  1  0
  6 51  1  6
  7 52  1  0
  7 53  1  0
  8 54  1  6
 12 55  1  0
 12 56  1  0
 14 57  1  0
 15 58  1  0
 16 59  1  0
 18 60  1  0
 18 61  1  0
 19 62  1  0
 20 63  1  0
 21 64  1  0
 21 65  1  0
 22 66  1  6
 25 67  1  0
 25 68  1  0
 25 69  1  0
 27 70  1  1
 28 71  1  0
 28 72  1  0
 30 73  1  0
 33 74  1  0
 33 75  1  0
 33 76  1  0
 35 77  1  0
 36 78  1  0
 38 79  1  6
 39 80  1  0
 39 81  1  0
 40 82  1  0
 41 83  1  6
 42 84  1  0
 42 85  1  0
 43 86  1  0
 44 87  1  0
 46 88  1  0
M  END
>  <Binding energies>  (1) 
[-4.85]

>  <Ligand effiencies>  (1) 
[-0.09326923076923076]

>  <Interactions>  (1) 
["V-B:PRO:540:CA:9855, V-A:GLU:543:CA:4904, H-B:GLU:543:O:9875, H-A:ALA:541:N:4891, V-A:GLU:543:C:4902, V-B:GLU:543:CB:9878, V-B:TYR:539:CE2:9848, V-B:GLU:543:CG:9879, V-A:ASP:366:CG:3213, V-A:TYR:539:CD1:4873, H-B:GLU:543:OE1:9881, V-A:TYR:539:CA:4869, V-A:GLU:543:CD:4908, V-B:HIS:456:CE1:9041, V-A:GLY:453:C:4042, V-A:HIS:456:CE1:4070, V-A:ILE:369:CD1:3239, V-A:GLU:543:CG:4907, V-B:GLU:543:CD:9880, V-A:TYR:539:C:4867, H-B:TYR:531:OH:9767, V-A:ASP:366:CB:3212, V-A:GLU:543:CB:4906, V-A:PRO:540:N:4884, V-A:PRO:540:CB:4885, V-A:PRO:540:CA:4883, V-A:GLY:453:CA:4044, H-A:SER:385:O:3406, H-A:ASP:366:OD2:3215, V-A:TYR:539:CE1:4875, H-A:HIS:456:NE2:4071"]

$$$$
ZINC2356371134
     RDKit          3D

127135  0  0  0  0  0  0  0  0999 V2000
  134.0200  121.8920   61.9330 C   0  0  0  0  0  0  0  0  0  0  0  0
  133.8910  121.7860   60.5240 O   0  0  0  0  0  0  0  0  0  0  0  0
  133.0840  120.6910   60.1110 C   0  0  0  0  0  0  0  0  0  0  0  0
  132.0290  120.3700   61.1850 C   0  0  0  0  0  0  0  0  0  0  0  0
  130.6960  119.8430   60.6300 C   0  0  0  0  0  0  0  0  0  0  0  0
  129.6630  120.7910   60.8780 O   0  0  0  0  0  0  0  0  0  0  0  0
  130.0010  121.8880   61.7260 C   0  0  2  0  0  0  0  0  0  0  0  0
  128.7220  122.6970   61.9920 C   0  0  0  0  0  0  0  0  0  0  0  0
  128.1600  123.3890   60.7240 C   0  0  0  0  0  0  0  0  0  0  0  0
  129.1820  124.1330   59.7800 C   0  0  2  0  0  0  0  0  0  0  0  0
  128.6350  123.9470   58.3170 C   0  0  0  0  0  0  0  0  0  0  0  0
  130.5730  123.3730   59.7580 C   0  0  2  0  0  0  0  0  0  0  0  0
  131.0680  122.8210   61.1180 C   0  0  0  0  0  0  0  0  0  0  0  0
  131.6890  124.1470   59.0230 C   0  0  0  0  0  0  0  0  0  0  0  0
  132.7030  123.5820   58.6150 O   0  0  0  0  0  0  0  0  0  0  0  0
  131.5070  125.5760   58.8030 C   0  0  0  0  0  0  0  0  0  0  0  0
  130.4970  126.3360   59.2910 C   0  0  0  0  0  0  0  0  0  0  0  0
  129.3270  125.7090   60.1660 C   0  0  2  0  0  0  0  0  0  0  0  0
  129.7640  125.8640   61.5840 C   0  0  0  0  0  0  0  0  0  0  0  0
  130.1710  126.0010   62.7280 C   0  0  0  0  0  0  0  0  0  0  0  0
  130.7590  126.2240   64.0580 C   0  0  0  0  0  0  0  0  0  0  0  0
  129.8220  126.9190   65.0630 C   0  0  2  0  0  0  0  0  0  0  0  0
  128.7380  126.0900   65.6690 C   0  0  0  0  0  0  0  0  0  0  0  0
  128.4210  127.1380   64.7050 N   0  0  0  0  0  0  0  0  0  0  0  0
  127.7140  128.3040   65.0390 C   0  0  0  0  0  0  0  0  0  0  0  0
  127.2330  128.5240   66.1530 O   0  0  0  0  0  0  0  0  0  0  0  0
  127.5400  129.3260   63.8960 C   0  0  2  0  0  0  0  0  0  0  0  0
  128.9020  129.5820   63.1570 C   0  0  0  0  0  0  0  0  0  0  0  0
  128.9890  131.0120   62.5830 C   0  0  1  0  0  0  0  0  0  0  0  0
  129.8120  131.3340   61.3440 C   0  0  2  0  0  0  0  0  0  0  0  0
  131.3030  131.5630   61.6980 C   0  0  0  0  0  0  0  0  0  0  0  0
  132.2180  130.7300   60.7890 N   0  0  0  0  0  0  0  0  0  0  0  0
  133.4970  131.4600   60.3400 C   0  0  0  0  0  0  0  0  0  0  0  0
  133.4690  131.7330   58.8200 C   0  0  1  0  0  0  0  0  0  0  0  0
  133.8520  130.4870   58.0050 C   0  0  0  0  0  0  0  0  0  0  0  0
  132.1860  132.1590   58.3960 O   0  0  0  0  0  0  0  0  0  0  0  0
  129.0380  132.5550   60.7340 C   0  0  2  0  0  0  0  0  0  0  0  0
  127.8550  132.7350   61.5350 O   0  0  0  0  0  0  0  0  0  0  0  0
  127.6150  131.5770   62.3250 C   0  0  2  0  0  0  0  0  0  0  0  0
  126.7650  131.7000   63.6130 C   0  0  2  0  0  0  0  0  0  0  0  0
  127.0750  132.9190   64.2560 O   0  0  0  0  0  0  0  0  0  0  0  0
  126.9330  130.5310   64.4920 N   0  0  0  0  0  0  0  0  0  0  0  0
  128.6940  132.5920   59.1890 C   0  0  0  0  0  0  0  0  0  0  0  0
  127.5010  133.3630   59.1430 O   0  0  0  0  0  0  0  0  0  0  0  0
  129.7510  133.2930   58.5600 O   0  0  0  0  0  0  0  0  0  0  0  0
  128.4440  131.2150   58.3980 C   0  0  1  0  0  0  0  0  0  0  0  0
  126.9610  130.7580   58.4880 C   0  0  0  0  0  0  0  0  0  0  0  0
  128.6000  131.4990   57.0110 O   0  0  0  0  0  0  0  0  0  0  0  0
  129.4680  130.0590   58.7810 C   0  0  2  0  0  0  0  0  0  0  0  0
  130.7690  129.9810   57.9150 C   0  0  0  0  0  0  0  0  0  0  0  0
  131.2850  128.5240   57.9690 C   0  0  0  0  0  0  0  0  0  0  0  0
  130.5150  127.8850   59.1380 C   0  0  2  0  0  0  0  0  0  0  0  0
  131.1710  128.3700   60.3110 O   0  0  0  0  0  0  0  0  0  0  0  0
  129.0820  128.5340   58.9160 C   0  0  2  0  0  0  0  0  0  0  0  0
  128.3160  128.0170   57.6080 C   0  0  0  0  0  0  0  0  0  0  0  0
  126.8720  127.4230   57.8140 C   0  0  0  0  0  0  0  0  0  0  0  0
  126.7230  126.5600   59.1350 C   0  0  0  0  0  0  0  0  0  0  0  0
  127.9870  126.5980   60.0700 C   0  0  2  0  0  0  0  0  0  0  0  0
  128.2670  128.1310   60.1720 C   0  0  0  0  0  0  0  0  0  0  0  0
  133.2576  121.2656   62.4192 H   0  0  0  0  0  0  0  0  0  0  0  0
  135.0214  121.5524   62.2361 H   0  0  0  0  0  0  0  0  0  0  0  0
  133.8810  122.9402   62.2361 H   0  0  0  0  0  0  0  0  0  0  0  0
  132.5767  120.9488   59.1696 H   0  0  0  0  0  0  0  0  0  0  0  0
  133.7251  119.8093   59.9643 H   0  0  0  0  0  0  0  0  0  0  0  0
  132.4460  119.6077   61.8595 H   0  0  0  0  0  0  0  0  0  0  0  0
  131.8031  121.3178   61.6955 H   0  0  0  0  0  0  0  0  0  0  0  0
  130.7902  119.6804   59.5462 H   0  0  0  0  0  0  0  0  0  0  0  0
  130.4453  118.8938   61.1262 H   0  0  0  0  0  0  0  0  0  0  0  0
  130.4294  121.4761   62.6516 H   0  0  0  0  0  0  0  0  0  0  0  0
  127.9540  122.0161   62.3877 H   0  0  0  0  0  0  0  0  0  0  0  0
  128.9812  123.4903   62.7086 H   0  0  0  0  0  0  0  0  0  0  0  0
  127.6600  122.6158   60.1222 H   0  0  0  0  0  0  0  0  0  0  0  0
  127.5066  124.1858   61.1089 H   0  0  0  0  0  0  0  0  0  0  0  0
  127.5942  123.5931   58.3569 H   0  0  0  0  0  0  0  0  0  0  0  0
  128.6750  124.9092   57.7855 H   0  0  0  0  0  0  0  0  0  0  0  0
  129.2533  123.2086   57.7855 H   0  0  0  0  0  0  0  0  0  0  0  0
  130.3370  122.4789   59.1623 H   0  0  0  0  0  0  0  0  0  0  0  0
  132.0005  122.2579   60.9654 H   0  0  0  0  0  0  0  0  0  0  0  0
  131.2487  123.6606   61.8053 H   0  0  0  0  0  0  0  0  0  0  0  0
  132.2597  126.0851   58.1830 H   0  0  0  0  0  0  0  0  0  0  0  0
  131.0459  125.2473   64.4748 H   0  0  0  0  0  0  0  0  0  0  0  0
  131.6158  126.8982   63.9118 H   0  0  0  0  0  0  0  0  0  0  0  0
  130.6321  127.5644   65.4333 H   0  0  0  0  0  0  0  0  0  0  0  0
  128.6307  125.0317   65.3887 H   0  0  0  0  0  0  0  0  0  0  0  0
  128.4192  125.8484   66.6937 H   0  0  0  0  0  0  0  0  0  0  0  0
  126.8729  128.9532   63.1048 H   0  0  0  0  0  0  0  0  0  0  0  0
  129.7262  129.4351   63.8705 H   0  0  0  0  0  0  0  0  0  0  0  0
  128.9712  128.8744   62.3176 H   0  0  0  0  0  0  0  0  0  0  0  0
  129.5608  131.4679   63.4047 H   0  0  0  0  0  0  0  0  0  0  0  0
  129.8933  130.5248   60.6034 H   0  0  0  0  0  0  0  0  0  0  0  0
  131.5434  132.6289   61.5710 H   0  0  0  0  0  0  0  0  0  0  0  0
  131.4676  131.2527   62.7404 H   0  0  0  0  0  0  0  0  0  0  0  0
  132.4840  129.8900   61.2820 H   0  0  0  0  0  0  0  0  0  0  0  0
  131.6940  130.4510   59.9700 H   0  0  0  0  0  0  0  0  0  0  0  0
  133.5730  132.4171   60.8768 H   0  0  0  0  0  0  0  0  0  0  0  0
  134.3644  130.8229   60.5675 H   0  0  0  0  0  0  0  0  0  0  0  0
  134.2080  132.5279   58.6409 H   0  0  0  0  0  0  0  0  0  0  0  0
  134.1049  129.6643   58.6900 H   0  0  0  0  0  0  0  0  0  0  0  0
  133.0041  130.1887   57.3709 H   0  0  0  0  0  0  0  0  0  0  0  0
  134.7211  130.7165   57.3709 H   0  0  0  0  0  0  0  0  0  0  0  0
  131.7580  132.6190   59.1230 H   0  0  0  0  0  0  0  0  0  0  0  0
  129.7577  133.3859   60.7746 H   0  0  0  0  0  0  0  0  0  0  0  0
  126.9414  130.9185   61.7570 H   0  0  0  0  0  0  0  0  0  0  0  0
  125.6978  131.7128   63.3467 H   0  0  0  0  0  0  0  0  0  0  0  0
  127.4960  133.4990   63.6170 H   0  0  0  0  0  0  0  0  0  0  0  0
  127.4810  130.8110   65.2940 H   0  0  0  0  0  0  0  0  0  0  0  0
  127.4950  133.9650   59.8890 H   0  0  0  0  0  0  0  0  0  0  0  0
  130.1530  132.7090   57.9120 H   0  0  0  0  0  0  0  0  0  0  0  0
  126.6686  130.6679   59.5446 H   0  0  0  0  0  0  0  0  0  0  0  0
  126.3180  131.4997   57.9916 H   0  0  0  0  0  0  0  0  0  0  0  0
  126.8470  129.7830   57.9916 H   0  0  0  0  0  0  0  0  0  0  0  0
  128.6310  132.4510   56.8920 H   0  0  0  0  0  0  0  0  0  0  0  0
  129.5492  130.4735   59.7967 H   0  0  0  0  0  0  0  0  0  0  0  0
  130.5438  130.2601   56.8751 H   0  0  0  0  0  0  0  0  0  0  0  0
  131.5309  130.6735   58.3022 H   0  0  0  0  0  0  0  0  0  0  0  0
  131.0672  127.9993   57.0271 H   0  0  0  0  0  0  0  0  0  0  0  0
  132.3749  128.4714   58.1079 H   0  0  0  0  0  0  0  0  0  0  0  0
  132.1150  128.4030   60.1360 H   0  0  0  0  0  0  0  0  0  0  0  0
  128.2295  128.8676   56.9160 H   0  0  0  0  0  0  0  0  0  0  0  0
  128.9205  127.1767   57.2359 H   0  0  0  0  0  0  0  0  0  0  0  0
  126.1564  128.2571   57.8610 H   0  0  0  0  0  0  0  0  0  0  0  0
  126.6759  126.7506   56.9658 H   0  0  0  0  0  0  0  0  0  0  0  0
  125.8615  126.9420   59.7024 H   0  0  0  0  0  0  0  0  0  0  0  0
  126.5923  125.5145   58.8190 H   0  0  0  0  0  0  0  0  0  0  0  0
  127.6383  125.9161   60.8595 H   0  0  0  0  0  0  0  0  0  0  0  0
  127.3178  128.6863   60.1993 H   0  0  0  0  0  0  0  0  0  0  0  0
  128.8249  128.3653   61.0906 H   0  0  0  0  0  0  0  0  0  0  0  0
  1  2  1  0
  2  3  1  0
  3  4  1  0
  4  5  1  0
  5  6  1  0
  6  7  1  0
  7  8  1  0
  8  9  1  0
  9 10  1  0
 10 11  1  6
 10 12  1  0
 12 13  1  0
 12 14  1  0
 14 15  2  0
 14 16  1  0
 16 17  2  0
 17 18  1  0
 18 19  1  1
 19 20  3  0
 20 21  1  0
 21 22  1  0
 22 23  1  0
 23 24  1  0
 24 25  1  0
 25 26  2  0
 25 27  1  0
 27 28  1  0
 28 29  1  0
 29 30  1  0
 30 31  1  0
 31 32  1  0
 32 33  1  0
 33 34  1  0
 34 35  1  0
 34 36  1  0
 30 37  1  0
 37 38  1  0
 38 39  1  0
 39 40  1  0
 40 41  1  0
 40 42  1  0
 37 43  1  0
 43 44  1  0
 43 45  1  0
 43 46  1  0
 46 47  1  0
 46 48  1  6
 46 49  1  0
 49 50  1  0
 50 51  1  0
 51 52  1  0
 52 53  1  1
 52 54  1  0
 54 55  1  6
 55 56  1  0
 56 57  1  0
 57 58  1  0
 58 59  1  0
 13  7  1  0
 52 17  1  0
 59 54  1  0
 18 10  1  0
 24 22  1  0
 42 27  1  0
 54 49  1  0
 58 18  1  0
 39 29  1  0
  1 60  1  0
  1 61  1  0
  1 62  1  0
  3 63  1  0
  3 64  1  0
  4 65  1  0
  4 66  1  0
  5 67  1  0
  5 68  1  0
  7 69  1  1
  8 70  1  0
  8 71  1  0
  9 72  1  0
  9 73  1  0
 11 74  1  0
 11 75  1  0
 11 76  1  0
 12 77  1  6
 13 78  1  0
 13 79  1  0
 16 80  1  0
 21 81  1  0
 21 82  1  0
 22 83  1  1
 23 84  1  0
 23 85  1  0
 27 86  1  6
 28 87  1  0
 28 88  1  0
 29 89  1  1
 30 90  1  6
 31 91  1  0
 31 92  1  0
 32 93  1  0
 32 94  1  0
 33 95  1  0
 33 96  1  0
 34 97  1  1
 35 98  1  0
 35 99  1  0
 35100  1  0
 36101  1  0
 37102  1  6
 39103  1  6
 40104  1  6
 41105  1  0
 42106  1  0
 44107  1  0
 45108  1  0
 47109  1  0
 47110  1  0
 47111  1  0
 48112  1  0
 49113  1  1
 50114  1  0
 50115  1  0
 51116  1  0
 51117  1  0
 53118  1  0
 55119  1  0
 55120  1  0
 56121  1  0
 56122  1  0
 57123  1  0
 57124  1  0
 58125  1  1
 59126  1  0
 59127  1  0
M  CHG  1  32   1
M  END
>  <Binding energies>  (1) 
[-0.7]

>  <Ligand effiencies>  (1) 
[-0.01]

>  <Interactions>  (1) 
["V-A:ILE:369:CG2:3237, V-B:PRO:540:CA:9855, V-A:GLY:454:CA:4049, V-B:GLU:543:CB:9878, V-B:ALA:541:CB:9864, V-B:TYR:539:CE2:9848, V-B:GLU:543:CG:9879, V-A:ASP:366:CG:3213, V-A:TYR:539:CD1:4873, V-A:LEU:363:CB:3187, V-A:LEU:363:CG:3188, V-B:TYR:539:CZ:9849, V-A:LEU:363:CD1:3189, V-A:TYR:531:CE2:4793, H-B:TYR:539:OH:9850, V-A:GLU:543:CD:4908, H-B:TYR:484:OH:9319, V-A:SER:385:C:3405, V-A:ILE:369:CD1:3239, V-B:TYR:539:CD2:9846, V-A:TYR:531:CZ:4794, V-A:SER:385:CB:3409, V-A:GLU:543:CG:4907, V-B:GLU:543:CD:9880, V-A:TYR:539:C:4867, V-A:ASP:366:CB:3212, V-A:LEU:475:CD2:4259, V-A:ASN:362:C:3172, H-A:GLU:543:OE1:4909, H-A:ASP:366:OD1:3214, H-A:TYR:539:O:4868, H-A:TYR:539:N:4870, V-A:LEU:363:CA:3185, V-A:PRO:540:CA:4883, V-A:PRO:540:CB:4885, H-A:ASP:366:OD2:3215"]

$$$$
ZINC2356373988
     RDKit          3D

106114  0  0  0  0  0  0  0  0999 V2000
  127.9870  129.4010   66.8350 C   0  0  0  0  0  0  0  0  0  0  0  0
  128.6110  128.0190   66.5980 C   0  0  0  0  0  0  0  0  0  0  0  0
  129.3550  127.4780   67.8310 C   0  0  0  0  0  0  0  0  0  0  0  0
  130.1950  126.2250   67.5260 C   0  0  0  0  0  0  0  0  0  0  0  0
  129.8520  125.5940   66.1650 C   0  0  0  0  0  0  0  0  0  0  0  0
  131.0660  125.4650   65.2690 C   0  0  0  0  0  0  0  0  0  0  0  0
  132.2690  125.6290   65.8810 O   0  0  0  0  0  0  0  0  0  0  0  0
  133.2200  125.4640   64.9350 C   0  0  0  0  0  0  0  0  0  0  0  0
  132.6220  125.1910   63.7220 C   0  0  0  0  0  0  0  0  0  0  0  0
  131.2280  125.2050   63.9050 C   0  0  0  0  0  0  0  0  0  0  0  0
  130.1130  124.9470   62.8870 C   0  0  2  0  0  0  0  0  0  0  0  0
  130.4540  123.8760   62.0010 O   0  0  0  0  0  0  0  0  0  0  0  0
  130.9820  124.1170   60.7630 C   0  0  0  0  0  0  0  0  0  0  0  0
  131.1990  123.1230   60.0740 O   0  0  0  0  0  0  0  0  0  0  0  0
  131.2240  125.5780   60.3240 C   0  0  2  0  0  0  0  0  0  0  0  0
  131.7760  126.5110   61.2230 O   0  0  0  0  0  0  0  0  0  0  0  0
  130.4010  126.6640   61.0020 C   0  0  1  0  0  0  0  0  0  0  0  0
  130.0460  128.0260   60.2090 C   0  0  1  0  0  0  0  0  0  0  0  0
  128.8590  127.7080   59.1720 C   0  0  2  0  0  0  0  0  0  0  0  0
  127.5090  128.4590   59.3560 C   0  0  0  0  0  0  0  0  0  0  0  0
  126.4630  128.1960   58.2650 C   0  0  0  0  0  0  0  0  0  0  0  0
  126.1930  126.7070   58.0430 C   0  0  0  0  0  0  0  0  0  0  0  0
  127.4710  125.8980   57.7320 C   0  0  2  0  0  0  0  0  0  0  0  0
  127.2910  124.3660   57.6130 C   0  0  0  0  0  0  0  0  0  0  0  0
  127.4210  123.6200   58.9340 C   0  0  0  0  0  0  0  0  0  0  0  0
  128.4950  122.7510   59.1450 C   0  0  0  0  0  0  0  0  0  0  0  0
  128.6140  122.0760   60.3570 C   0  0  0  0  0  0  0  0  0  0  0  0
  127.6580  122.2710   61.3530 C   0  0  0  0  0  0  0  0  0  0  0  0
  126.5860  123.1360   61.1490 C   0  0  0  0  0  0  0  0  0  0  0  0
  126.4670  123.8130   59.9370 C   0  0  0  0  0  0  0  0  0  0  0  0
  128.7730  126.3160   58.4700 C   0  0  0  0  0  0  0  0  0  0  0  0
  129.7450  129.1140   61.3470 C   0  0  2  0  0  0  0  0  0  0  0  0
  128.7340  128.6290   62.4280 C   0  0  0  0  0  0  0  0  0  0  0  0
  129.1910  127.3330   63.1190 C   0  0  0  0  0  0  0  0  0  0  0  0
  129.4310  126.1610   62.1440 C   0  0  2  0  0  0  0  0  0  0  0  0
  128.0400  125.6300   61.6910 C   0  0  0  0  0  0  0  0  0  0  0  0
  129.8670  130.7040   61.0380 C   0  0  2  0  0  0  0  0  0  0  0  0
  130.7410  131.3500   62.1710 C   0  0  0  0  0  0  0  0  0  0  0  0
  130.1000  131.5960   63.4480 O   0  0  0  0  0  0  0  0  0  0  0  0
  128.7390  131.8610   63.5860 C   0  0  0  0  0  0  0  0  0  0  0  0
  128.3800  132.2900   64.6790 O   0  0  0  0  0  0  0  0  0  0  0  0
  127.8200  131.6350   62.3600 C   0  0  0  0  0  0  0  0  0  0  0  0
  128.6690  131.6790   61.1000 C   0  0  2  0  0  0  0  0  0  0  0  0
  128.0770  131.7160   59.8150 O   0  0  0  0  0  0  0  0  0  0  0  0
  129.1620  131.8220   58.8740 C   0  0  0  0  0  0  0  0  0  0  0  0
  129.4860  133.3230   58.6570 C   0  0  0  0  0  0  0  0  0  0  0  0
  128.6400  131.2630   57.5310 C   0  0  0  0  0  0  0  0  0  0  0  0
  130.3360  131.0590   59.5950 C   0  0  2  0  0  0  0  0  0  0  0  0
  131.0830  129.9850   58.7870 C   0  0  0  0  0  0  0  0  0  0  0  0
  131.4460  130.2090   57.6290 O   0  0  0  0  0  0  0  0  0  0  0  0
  131.3360  128.6420   59.4990 C   0  0  2  0  0  0  0  0  0  0  0  0
  132.0740  127.8040   58.6230 O   0  0  0  0  0  0  0  0  0  0  0  0
  127.9038  129.5852   67.9163 H   0  0  0  0  0  0  0  0  0  0  0  0
  128.6235  130.1738   66.3793 H   0  0  0  0  0  0  0  0  0  0  0  0
  126.9864  129.4346   66.3793 H   0  0  0  0  0  0  0  0  0  0  0  0
  127.8099  127.3130   66.3338 H   0  0  0  0  0  0  0  0  0  0  0  0
  129.3478  128.1243   65.7881 H   0  0  0  0  0  0  0  0  0  0  0  0
  130.0241  128.2647   68.2095 H   0  0  0  0  0  0  0  0  0  0  0  0
  128.5956  127.1917   68.5735 H   0  0  0  0  0  0  0  0  0  0  0  0
  131.2584  126.5064   67.5249 H   0  0  0  0  0  0  0  0  0  0  0  0
  129.9712  125.4790   68.3028 H   0  0  0  0  0  0  0  0  0  0  0  0
  129.4303  124.5925   66.3356 H   0  0  0  0  0  0  0  0  0  0  0  0
  129.1301  126.2533   65.6608 H   0  0  0  0  0  0  0  0  0  0  0  0
  134.3042  125.5363   65.1059 H   0  0  0  0  0  0  0  0  0  0  0  0
  133.1458  124.9959   62.7746 H   0  0  0  0  0  0  0  0  0  0  0  0
  129.2837  124.6531   63.5472 H   0  0  0  0  0  0  0  0  0  0  0  0
  131.4532  125.2553   59.2977 H   0  0  0  0  0  0  0  0  0  0  0  0
  129.3418  128.2598   58.3520 H   0  0  0  0  0  0  0  0  0  0  0  0
  127.0784  128.1541   60.3212 H   0  0  0  0  0  0  0  0  0  0  0  0
  127.7457  129.5318   59.3006 H   0  0  0  0  0  0  0  0  0  0  0  0
  125.5212  128.6833   58.5575 H   0  0  0  0  0  0  0  0  0  0  0  0
  126.8602  128.6025   57.3232 H   0  0  0  0  0  0  0  0  0  0  0  0
  125.7314  126.2957   58.9528 H   0  0  0  0  0  0  0  0  0  0  0  0
  125.5304  126.6211   57.1692 H   0  0  0  0  0  0  0  0  0  0  0  0
  127.6533  126.2372   56.7016 H   0  0  0  0  0  0  0  0  0  0  0  0
  126.2908  124.1667   57.2008 H   0  0  0  0  0  0  0  0  0  0  0  0
  128.0993  124.0014   56.9621 H   0  0  0  0  0  0  0  0  0  0  0  0
  129.2452  122.6005   58.3547 H   0  0  0  0  0  0  0  0  0  0  0  0
  129.4584  121.3920   60.5279 H   0  0  0  0  0  0  0  0  0  0  0  0
  127.7515  121.7361   62.3096 H   0  0  0  0  0  0  0  0  0  0  0  0
  125.8369  123.2841   61.9407 H   0  0  0  0  0  0  0  0  0  0  0  0
  125.6232  124.4986   59.7698 H   0  0  0  0  0  0  0  0  0  0  0  0
  128.9563  125.5574   59.2452 H   0  0  0  0  0  0  0  0  0  0  0  0
  129.5100  126.3963   57.6574 H   0  0  0  0  0  0  0  0  0  0  0  0
  130.7151  129.1423   61.8648 H   0  0  0  0  0  0  0  0  0  0  0  0
  128.6260  129.4159   63.1890 H   0  0  0  0  0  0  0  0  0  0  0  0
  127.7784  128.4214   61.9243 H   0  0  0  0  0  0  0  0  0  0  0  0
  130.1301  127.5374   63.6541 H   0  0  0  0  0  0  0  0  0  0  0  0
  128.3800  127.0267   63.7961 H   0  0  0  0  0  0  0  0  0  0  0  0
  127.4303  125.3972   62.5765 H   0  0  0  0  0  0  0  0  0  0  0  0
  127.5330  126.3978   61.0882 H   0  0  0  0  0  0  0  0  0  0  0  0
  128.1736  124.7196   61.0882 H   0  0  0  0  0  0  0  0  0  0  0  0
  131.5936  130.6793   62.3533 H   0  0  0  0  0  0  0  0  0  0  0  0
  131.0032  132.3481   61.7903 H   0  0  0  0  0  0  0  0  0  0  0  0
  127.3289  130.6541   62.4414 H   0  0  0  0  0  0  0  0  0  0  0  0
  127.0490  132.4185   62.3200 H   0  0  0  0  0  0  0  0  0  0  0  0
  128.9977  132.7107   61.2939 H   0  0  0  0  0  0  0  0  0  0  0  0
  129.5932  133.8197   59.6326 H   0  0  0  0  0  0  0  0  0  0  0  0
  130.4252  133.4175   58.0922 H   0  0  0  0  0  0  0  0  0  0  0  0
  128.6694  133.7965   58.0922 H   0  0  0  0  0  0  0  0  0  0  0  0
  127.9011  130.4717   57.7256 H   0  0  0  0  0  0  0  0  0  0  0  0
  128.1673  132.0727   56.9558 H   0  0  0  0  0  0  0  0  0  0  0  0
  129.4801  130.8467   56.9558 H   0  0  0  0  0  0  0  0  0  0  0  0
  131.1972  131.7377   59.6830 H   0  0  0  0  0  0  0  0  0  0  0  0
  131.9689  128.7887   60.3866 H   0  0  0  0  0  0  0  0  0  0  0  0
  132.0500  128.1860   57.7420 H   0  0  0  0  0  0  0  0  0  0  0  0
  1  2  1  0
  2  3  1  0
  3  4  1  0
  4  5  1  0
  5  6  1  0
  6  7  1  0
  7  8  1  0
  8  9  2  0
  9 10  1  0
 10 11  1  0
 11 12  1  0
 12 13  1  0
 13 14  2  0
 13 15  1  0
 15 16  1  0
 17 16  1  1
 18 17  1  1
 18 19  1  0
 19 20  1  0
 20 21  1  0
 21 22  1  0
 22 23  1  0
 23 24  1  0
 24 25  1  0
 25 26  2  0
 26 27  1  0
 27 28  2  0
 28 29  1  0
 29 30  2  0
 23 31  1  0
 18 32  1  0
 32 33  1  0
 33 34  1  0
 34 35  1  0
 35 36  1  6
 32 37  1  0
 37 38  1  1
 38 39  1  0
 39 40  1  0
 40 41  2  0
 40 42  1  0
 42 43  1  0
 43 44  1  0
 44 45  1  0
 45 46  1  0
 45 47  1  0
 45 48  1  0
 48 49  1  0
 49 50  2  0
 49 51  1  0
 51 52  1  0
 10  6  2  0
 35 11  1  0
 43 37  1  0
 17 15  1  0
 51 18  1  0
 35 17  1  0
 48 37  1  0
 31 19  1  0
 30 25  1  0
  1 53  1  0
  1 54  1  0
  1 55  1  0
  2 56  1  0
  2 57  1  0
  3 58  1  0
  3 59  1  0
  4 60  1  0
  4 61  1  0
  5 62  1  0
  5 63  1  0
  8 64  1  0
  9 65  1  0
 11 66  1  1
 15 67  1  6
 19 68  1  6
 20 69  1  0
 20 70  1  0
 21 71  1  0
 21 72  1  0
 22 73  1  0
 22 74  1  0
 23 75  1  6
 24 76  1  0
 24 77  1  0
 26 78  1  0
 27 79  1  0
 28 80  1  0
 29 81  1  0
 30 82  1  0
 31 83  1  0
 31 84  1  0
 32 85  1  1
 33 86  1  0
 33 87  1  0
 34 88  1  0
 34 89  1  0
 36 90  1  0
 36 91  1  0
 36 92  1  0
 38 93  1  0
 38 94  1  0
 42 95  1  0
 42 96  1  0
 43 97  1  1
 46 98  1  0
 46 99  1  0
 46100  1  0
 47101  1  0
 47102  1  0
 47103  1  0
 48104  1  1
 51105  1  1
 52106  1  0
M  END
>  <Binding energies>  (1) 
[-9.1]

>  <Ligand effiencies>  (1) 
[-0.17169811320754716]

>  <Interactions>  (1) 
["V-B:PRO:540:CA:9855, V-B:GLU:543:CB:9878, V-B:ALA:541:CB:9864, H-A:TYR:531:OH:4795, V-B:TYR:539:CE2:9848, V-B:GLU:543:CG:9879, V-B:TYR:539:C:9839, V-A:ASP:366:CG:3213, V-A:TYR:539:CD1:4873, V-B:TYR:539:CZ:9849, V-B:TYR:531:CZ:9766, V-A:ALA:541:CB:4892, V-A:TYR:539:CA:4869, V-A:GLU:543:CD:4908, V-B:PRO:540:CB:9857, H-B:TYR:484:OH:9319, V-B:HIS:456:CE1:9041, V-B:PRO:540:N:9856, V-A:HIS:456:CE1:4070, V-B:TYR:484:CZ:9318, V-B:TYR:539:CD2:9846, V-A:GLU:543:CG:4907, V-B:GLU:543:CD:9880, V-A:MET:535:CE:4835, V-A:TYR:539:C:4867, V-A:ASP:366:CB:3212, V-A:ARG:545:CD:4923, H-A:ARG:545:NH2:4928, V-A:ARG:545:CZ:4926, V-A:GLU:543:CB:4906, V-A:PRO:540:N:4884, V-A:PRO:540:CA:4883, H-A:ARG:545:NE:4924, V-B:PRO:540:C:9853, H-A:ASP:366:OD2:3215, V-B:ALA:541:CA:9862, H-A:TYR:484:OH:4348"]

$$$$
ZINC2356376227
     RDKit          3D

133141  0  0  0  0  0  0  0  0999 V2000
  132.3150  127.7300   69.9230 C   0  0  0  0  0  0  0  0  0  0  0  0
  130.8120  127.6970   70.1380 C   0  0  0  0  0  0  0  0  0  0  0  0
  129.9600  127.3840   69.0760 C   0  0  0  0  0  0  0  0  0  0  0  0
  128.5760  127.3590   69.2660 C   0  0  0  0  0  0  0  0  0  0  0  0
  127.6460  127.0240   68.1040 C   0  0  0  0  0  0  0  0  0  0  0  0
  128.2130  127.3310   66.7220 C   0  0  0  0  0  0  0  0  0  0  0  0
  129.1090  126.5540   65.9840 C   0  0  0  0  0  0  0  0  0  0  0  0
  129.7240  125.2150   66.3790 C   0  0  0  0  0  0  0  0  0  0  0  0
  131.1520  125.3230   66.9480 C   0  0  0  0  0  0  0  0  0  0  0  0
  132.0860  125.7020   65.9570 O   0  0  0  0  0  0  0  0  0  0  0  0
  129.3840  127.1760   64.7620 N   0  0  0  0  0  0  0  0  0  0  0  0
  130.2360  126.6840   63.6680 C   0  0  0  0  0  0  0  0  0  0  0  0
  129.4910  126.6340   62.2990 C   0  0  2  0  0  0  0  0  0  0  0  0
  130.0480  125.6490   61.2620 C   0  0  0  0  0  0  0  0  0  0  0  0
  131.2550  125.0500   61.0860 C   0  0  0  0  0  0  0  0  0  0  0  0
  132.5720  125.1560   61.8820 C   0  0  2  0  0  0  0  0  0  0  0  0
  133.8220  124.5590   61.1930 C   0  0  0  0  0  0  0  0  0  0  0  0
  132.4790  124.7920   63.3920 C   0  0  0  0  0  0  0  0  0  0  0  0
  132.2050  123.3160   63.7670 C   0  0  2  0  0  0  0  0  0  0  0  0
  132.4610  122.4620   62.6690 O   0  0  0  0  0  0  0  0  0  0  0  0
  130.7430  123.0920   64.2060 C   0  0  2  0  0  0  0  0  0  0  0  0
  130.2970  121.7590   64.3050 O   0  0  0  0  0  0  0  0  0  0  0  0
  129.7180  122.5060   63.2680 C   0  0  0  0  0  0  0  0  0  0  0  0
  128.2560  122.9390   63.4500 C   0  0  0  0  0  0  0  0  0  0  0  0
  130.0860  122.1030   61.8270 C   0  0  0  0  0  0  0  0  0  0  0  0
  131.2100  124.2320   59.8660 C   0  0  0  0  0  0  0  0  0  0  0  0
  132.1430  123.5840   59.3950 O   0  0  0  0  0  0  0  0  0  0  0  0
  129.7970  124.2920   59.3270 C   0  0  0  0  0  0  0  0  0  0  0  0
  129.0540  125.3640   60.1370 C   0  0  1  0  0  0  0  0  0  0  0  0
  127.7700  124.6810   60.7110 C   0  0  0  0  0  0  0  0  0  0  0  0
  128.7340  126.7150   59.3250 C   0  0  2  0  0  0  0  0  0  0  0  0
  127.5670  126.3860   58.3370 C   0  0  0  0  0  0  0  0  0  0  0  0
  129.9600  127.2210   58.5020 C   0  0  0  0  0  0  0  0  0  0  0  0
  129.7280  128.5200   57.6950 C   0  0  0  0  0  0  0  0  0  0  0  0
  129.1170  129.7450   58.4580 C   0  0  2  0  0  0  0  0  0  0  0  0
  130.1950  130.9130   58.6700 C   0  0  0  0  0  0  0  0  0  0  0  0
  131.5770  130.4440   59.2270 C   0  0  0  0  0  0  0  0  0  0  0  0
  130.3980  131.6240   57.2910 C   0  0  0  0  0  0  0  0  0  0  0  0
  129.6560  131.9700   59.6720 C   0  0  0  0  0  0  0  0  0  0  0  0
  129.6230  133.1820   59.4530 O   0  0  0  0  0  0  0  0  0  0  0  0
  129.1310  131.3960   60.9840 C   0  0  0  0  0  0  0  0  0  0  0  0
  127.9450  130.4590   60.7370 C   0  0  0  0  0  0  0  0  0  0  0  0
  128.0890  129.3450   59.6330 C   0  0  1  0  0  0  0  0  0  0  0  0
  126.6550  129.2840   58.9920 C   0  0  0  0  0  0  0  0  0  0  0  0
  128.3930  127.9220   60.3200 C   0  0  2  0  0  0  0  0  0  0  0  0
  129.3470  127.9860   61.5770 C   0  0  2  0  0  0  0  0  0  0  0  0
  130.6300  128.4980   61.2990 O   0  0  0  0  0  0  0  0  0  0  0  0
  128.6380  128.3220   64.6840 C   0  0  0  0  0  0  0  0  0  0  0  0
  128.3150  129.4330   63.8360 C   0  0  0  0  0  0  0  0  0  0  0  0
  127.4350  130.2020   64.5740 C   0  0  0  0  0  0  0  0  0  0  0  0
  127.2110  129.6120   65.8000 N   0  0  0  0  0  0  0  0  0  0  0  0
  127.9300  128.4530   65.8770 C   0  0  0  0  0  0  0  0  0  0  0  0
  128.0490  127.6400   70.5310 C   0  0  0  0  0  0  0  0  0  0  0  0
  128.8870  127.9880   71.6000 C   0  0  0  0  0  0  0  0  0  0  0  0
  128.3340  128.3370   72.9900 C   0  0  0  0  0  0  0  0  0  0  0  0
  126.9190  127.7570   73.2270 C   0  0  0  0  0  0  0  0  0  0  0  0
  126.3960  128.1040   74.6360 C   0  0  0  0  0  0  0  0  0  0  0  0
  127.3490  127.7330   75.6290 O   0  0  0  0  0  0  0  0  0  0  0  0
  128.5820  128.4420   75.5230 C   0  0  0  0  0  0  0  0  0  0  0  0
  129.2760  128.0880   74.1940 C   0  0  0  0  0  0  0  0  0  0  0  0
  130.2730  128.0010   71.3880 C   0  0  0  0  0  0  0  0  0  0  0  0
  132.8247  127.7412   70.8977 H   0  0  0  0  0  0  0  0  0  0  0  0
  132.6242  126.8384   69.3578 H   0  0  0  0  0  0  0  0  0  0  0  0
  132.5848  128.6343   69.3578 H   0  0  0  0  0  0  0  0  0  0  0  0
  130.3808  127.1562   68.0855 H   0  0  0  0  0  0  0  0  0  0  0  0
  127.4162  125.9492   68.1485 H   0  0  0  0  0  0  0  0  0  0  0  0
  126.7586  127.6629   68.2235 H   0  0  0  0  0  0  0  0  0  0  0  0
  129.0819  124.7515   67.1425 H   0  0  0  0  0  0  0  0  0  0  0  0
  129.7928  124.6138   65.4604 H   0  0  0  0  0  0  0  0  0  0  0  0
  131.1594  126.0755   67.7503 H   0  0  0  0  0  0  0  0  0  0  0  0
  131.4428  124.3335   67.3305 H   0  0  0  0  0  0  0  0  0  0  0  0
  131.8050  126.5360   65.5750 H   0  0  0  0  0  0  0  0  0  0  0  0
  131.1048  127.3517   63.5714 H   0  0  0  0  0  0  0  0  0  0  0  0
  130.5377  125.6564   63.9191 H   0  0  0  0  0  0  0  0  0  0  0  0
  128.5097  126.2813   62.6493 H   0  0  0  0  0  0  0  0  0  0  0  0
  132.7388  126.2432   61.8677 H   0  0  0  0  0  0  0  0  0  0  0  0
  134.5350  124.2185   61.9583 H   0  0  0  0  0  0  0  0  0  0  0  0
  133.5228  123.7066   60.5654 H   0  0  0  0  0  0  0  0  0  0  0  0
  134.2969  125.3275   60.5654 H   0  0  0  0  0  0  0  0  0  0  0  0
  133.4349  125.0756   63.8565 H   0  0  0  0  0  0  0  0  0  0  0  0
  131.5936  125.3363   63.7522 H   0  0  0  0  0  0  0  0  0  0  0  0
  132.8780  123.0821   64.6051 H   0  0  0  0  0  0  0  0  0  0  0  0
  131.9640  121.6510   62.7970 H   0  0  0  0  0  0  0  0  0  0  0  0
  130.7798  123.9913   64.8384 H   0  0  0  0  0  0  0  0  0  0  0  0
  128.0248  123.0075   64.5232 H   0  0  0  0  0  0  0  0  0  0  0  0
  128.1030  123.9210   62.9786 H   0  0  0  0  0  0  0  0  0  0  0  0
  127.5929  122.1987   62.9786 H   0  0  0  0  0  0  0  0  0  0  0  0
  130.8276  121.2909   61.8514 H   0  0  0  0  0  0  0  0  0  0  0  0
  129.1833  121.7596   61.3004 H   0  0  0  0  0  0  0  0  0  0  0  0
  130.5098  122.9708   61.3004 H   0  0  0  0  0  0  0  0  0  0  0  0
  129.8102  124.5649   58.2615 H   0  0  0  0  0  0  0  0  0  0  0  0
  129.2996  123.3152   59.4185 H   0  0  0  0  0  0  0  0  0  0  0  0
  127.8050  124.6996   61.8103 H   0  0  0  0  0  0  0  0  0  0  0  0
  126.8790  125.2244   60.3633 H   0  0  0  0  0  0  0  0  0  0  0  0
  127.7226  123.6385   60.3633 H   0  0  0  0  0  0  0  0  0  0  0  0
  126.6629  126.1311   58.9094 H   0  0  0  0  0  0  0  0  0  0  0  0
  127.3650  127.2622   57.7034 H   0  0  0  0  0  0  0  0  0  0  0  0
  127.8524  125.5333   57.7034 H   0  0  0  0  0  0  0  0  0  0  0  0
  130.7884  127.4006   59.2031 H   0  0  0  0  0  0  0  0  0  0  0  0
  130.1706  126.4370   57.7597 H   0  0  0  0  0  0  0  0  0  0  0  0
  130.7012  128.8353   57.2908 H   0  0  0  0  0  0  0  0  0  0  0  0
  128.9714  128.2519   56.9428 H   0  0  0  0  0  0  0  0  0  0  0  0
  128.3891  130.2622   57.8156 H   0  0  0  0  0  0  0  0  0  0  0  0
  131.5512  130.4528   60.3267 H   0  0  0  0  0  0  0  0  0  0  0  0
  131.7879  129.4240   58.8733 H   0  0  0  0  0  0  0  0  0  0  0  0
  132.3651  131.1250   58.8733 H   0  0  0  0  0  0  0  0  0  0  0  0
  130.6965  132.6695   57.4579 H   0  0  0  0  0  0  0  0  0  0  0  0
  131.1837  131.1046   56.7228 H   0  0  0  0  0  0  0  0  0  0  0  0
  129.4565  131.5978   56.7228 H   0  0  0  0  0  0  0  0  0  0  0  0
  129.9367  130.8338   61.4788 H   0  0  0  0  0  0  0  0  0  0  0  0
  128.7943  132.2274   61.6207 H   0  0  0  0  0  0  0  0  0  0  0  0
  127.7297  129.9491   61.6876 H   0  0  0  0  0  0  0  0  0  0  0  0
  127.1533  131.1195   60.3536 H   0  0  0  0  0  0  0  0  0  0  0  0
  125.8980  129.2518   59.7894 H   0  0  0  0  0  0  0  0  0  0  0  0
  126.4936  130.1761   58.3690 H   0  0  0  0  0  0  0  0  0  0  0  0
  126.5699  128.3814   58.3690 H   0  0  0  0  0  0  0  0  0  0  0  0
  127.4034  127.6527   60.7178 H   0  0  0  0  0  0  0  0  0  0  0  0
  128.8366  128.6946   62.2458 H   0  0  0  0  0  0  0  0  0  0  0  0
  131.0370  128.7610   62.1270 H   0  0  0  0  0  0  0  0  0  0  0  0
  128.6867  129.6300   62.8196 H   0  0  0  0  0  0  0  0  0  0  0  0
  126.9809  131.1444   64.2339 H   0  0  0  0  0  0  0  0  0  0  0  0
  126.5900  130.0160   66.4870 H   0  0  0  0  0  0  0  0  0  0  0  0
  126.9617  127.5872   70.6893 H   0  0  0  0  0  0  0  0  0  0  0  0
  128.2566  129.4337   72.9532 H   0  0  0  0  0  0  0  0  0  0  0  0
  126.2310  128.1747   72.4772 H   0  0  0  0  0  0  0  0  0  0  0  0
  126.9750  126.6620   73.1390 H   0  0  0  0  0  0  0  0  0  0  0  0
  126.2126  129.1869   74.6973 H   0  0  0  0  0  0  0  0  0  0  0  0
  125.4627  127.5500   74.8148 H   0  0  0  0  0  0  0  0  0  0  0  0
  128.3850  129.5237   75.5551 H   0  0  0  0  0  0  0  0  0  0  0  0
  129.2364  128.1590   76.3607 H   0  0  0  0  0  0  0  0  0  0  0  0
  130.1756  128.7109   74.0813 H   0  0  0  0  0  0  0  0  0  0  0  0
  129.5445  127.0214   74.2131 H   0  0  0  0  0  0  0  0  0  0  0  0
  130.9457  128.2549   72.2205 H   0  0  0  0  0  0  0  0  0  0  0  0
  1  2  1  0
  2  3  2  0
  3  4  1  0
  4  5  1  0
  5  6  1  0
  6  7  2  0
  7  8  1  0
  8  9  1  0
  9 10  1  0
  7 11  1  0
 11 12  1  0
 12 13  1  0
 13 14  1  0
 14 15  2  0
 15 16  1  0
 16 17  1  0
 16 18  1  0
 18 19  1  0
 19 20  1  0
 19 21  1  0
 21 22  1  0
 22 23  1  0
 23 24  1  0
 23 25  1  0
 15 26  1  0
 26 27  2  0
 26 28  1  0
 28 29  1  0
 29 30  1  1
 29 31  1  0
 31 32  1  6
 31 33  1  0
 33 34  1  0
 34 35  1  0
 35 36  1  0
 36 37  1  0
 36 38  1  0
 36 39  1  0
 39 40  2  0
 39 41  1  0
 41 42  1  0
 42 43  1  0
 43 44  1  6
 43 45  1  0
 45 46  1  0
 46 47  1  0
 11 48  1  0
 48 49  1  0
 49 50  2  0
 50 51  1  0
 51 52  1  0
  4 53  2  0
 53 54  1  0
 54 55  1  0
 55 56  1  0
 56 57  1  0
 57 58  1  0
 58 59  1  0
 59 60  1  0
 54 61  2  0
 61  2  1  0
 52  6  1  0
 60 55  1  0
 46 13  1  0
 52 48  2  0
 29 14  1  0
 45 31  1  0
 23 21  1  0
 43 35  1  0
  1 62  1  0
  1 63  1  0
  1 64  1  0
  3 65  1  0
  5 66  1  0
  5 67  1  0
  8 68  1  0
  8 69  1  0
  9 70  1  0
  9 71  1  0
 10 72  1  0
 12 73  1  0
 12 74  1  0
 13 75  1  1
 16 76  1  1
 17 77  1  0
 17 78  1  0
 17 79  1  0
 18 80  1  0
 18 81  1  0
 19 82  1  1
 20 83  1  0
 21 84  1  1
 24 85  1  0
 24 86  1  0
 24 87  1  0
 25 88  1  0
 25 89  1  0
 25 90  1  0
 28 91  1  0
 28 92  1  0
 30 93  1  0
 30 94  1  0
 30 95  1  0
 32 96  1  0
 32 97  1  0
 32 98  1  0
 33 99  1  0
 33100  1  0
 34101  1  0
 34102  1  0
 35103  1  6
 37104  1  0
 37105  1  0
 37106  1  0
 38107  1  0
 38108  1  0
 38109  1  0
 41110  1  0
 41111  1  0
 42112  1  0
 42113  1  0
 44114  1  0
 44115  1  0
 44116  1  0
 45117  1  1
 46118  1  1
 47119  1  0
 49120  1  0
 50121  1  0
 51122  1  0
 53123  1  0
 55124  1  0
 56125  1  0
 56126  1  0
 57127  1  0
 57128  1  0
 59129  1  0
 59130  1  0
 60131  1  0
 60132  1  0
 61133  1  0
M  END
>  <Binding energies>  (1) 
[-10.81]

>  <Ligand effiencies>  (1) 
[-0.16630769230769232]

>  <Interactions>  (1) 
["V-A:ARG:545:CA:4919, V-B:GLU:543:C:9874, H-A:GLU:543:OE2:4910, V-A:GLU:543:C:4902, V-B:HIS:456:CD2:9039, V-B:GLU:543:CB:9878, H-B:LYS:547:NZ:9923, V-B:HIS:456:CB:9036, V-B:ALA:541:CB:9864, V-B:TYR:539:CE2:9848, V-A:TYR:484:CE2:4346, V-B:GLU:543:CG:9879, V-A:GLY:544:C:4912, V-A:ASP:366:CG:3213, V-B:TYR:539:CZ:9849, H-B:TYR:539:OH:9850, V-B:LYS:547:CE:9922, V-A:GLU:543:CD:4908, V-A:TYR:484:CZ:4347, H-B:TYR:484:OH:9319, V-B:GLU:543:CA:9876, V-B:HIS:456:CE1:9041, V-A:ARG:545:CG:4922, V-B:TYR:484:CZ:9318, V-A:HIS:456:CE1:4070, V-A:ILE:369:CD1:3239, V-B:GLY:544:C:9884, V-A:GLU:543:CG:4907, V-B:GLU:543:CD:9880, V-B:HIS:456:CG:9037, V-A:ARG:545:CB:4921, V-A:LEU:475:CD2:4259, V-A:ARG:545:CZ:4926, H-A:GLU:543:OE1:4909, V-A:GLU:543:CB:4906, H-B:GLU:543:OE2:9882, V-A:PRO:540:CA:4883, H-A:ARG:545:NE:4924, H-A:ASP:366:OD2:3215, H-A:TYR:484:OH:4348"]

$$$$
ZINC2356376887-again1
     RDKit          3D

112118  0  0  0  0  0  0  0  0999 V2000
  126.8680  127.9560   73.1450 C   0  0  0  0  0  0  0  0  0  0  0  0
  127.0780  127.9340   71.6220 C   0  0  0  0  0  0  0  0  0  0  0  0
  128.5380  128.1930   71.1520 C   0  0  2  0  0  0  0  0  0  0  0  0
  128.6500  128.8750   69.7560 C   0  0  0  0  0  0  0  0  0  0  0  0
  128.6960  127.8860   68.5550 C   0  0  2  0  0  0  0  0  0  0  0  0
  127.4800  127.1630   68.5720 O   0  0  0  0  0  0  0  0  0  0  0  0
  126.5900  127.6570   67.7130 C   0  0  0  0  0  0  0  0  0  0  0  0
  125.3720  127.2880   67.7660 O   0  0  0  0  0  0  0  0  0  0  0  0
  127.2780  128.4960   66.7870 C   0  0  0  0  0  0  0  0  0  0  0  0
  126.5850  129.1950   65.7360 C   0  0  0  0  0  0  0  0  0  0  0  0
  125.4650  129.7600   65.9780 O   0  0  0  0  0  0  0  0  0  0  0  0
  127.0500  129.1490   64.2120 C   0  0  2  0  0  0  0  0  0  0  0  0
  126.0000  128.2270   63.4430 C   0  0  0  0  0  0  0  0  0  0  0  0
  125.9930  128.1410   61.8950 C   0  0  0  0  0  0  0  0  0  0  0  0
  128.4900  128.5050   63.9620 C   0  0  2  0  0  0  0  0  0  0  0  0
  129.0160  128.8420   62.5600 C   0  0  0  0  0  0  0  0  0  0  0  0
  128.5000  129.7710   61.7370 C   0  0  0  0  0  0  0  0  0  0  0  0
  127.3070  130.6570   62.0760 C   0  0  2  0  0  0  0  0  0  0  0  0
  127.3490  132.0970   61.4820 C   0  0  2  0  0  0  0  0  0  0  0  0
  127.6750  132.0210   60.0890 O   0  0  0  0  0  0  0  0  0  0  0  0
  129.0190  131.8640   59.7440 C   0  0  2  0  0  0  0  0  0  0  0  0
  129.0520  130.9640   58.5030 C   0  0  0  0  0  0  0  0  0  0  0  0
  130.5130  130.6870   58.0930 C   0  0  2  0  0  0  0  0  0  0  0  0
  130.5510  129.8460   56.9550 O   0  0  0  0  0  0  0  0  0  0  0  0
  131.3160  130.1220   59.2910 C   0  0  2  0  0  0  0  0  0  0  0  0
  130.9870  128.7190   59.5940 N   0  0  0  0  0  0  0  0  0  0  0  0
  130.0310  127.9820   59.0000 C   0  0  0  0  0  0  0  0  0  0  0  0
  129.2840  128.3850   58.1090 O   0  0  0  0  0  0  0  0  0  0  0  0
  129.9360  126.6440   59.5030 C   0  0  0  0  0  0  0  0  0  0  0  0
  128.8310  126.1500   60.1520 N   0  0  0  0  0  0  0  0  0  0  0  0
  129.0360  124.8420   60.4980 C   0  0  0  0  0  0  0  0  0  0  0  0
  127.8260  123.9480   61.3280 Cl  0  0  0  0  0  0  0  0  0  0  0  0
  130.3020  124.4800   60.0580 C   0  0  0  0  0  0  0  0  0  0  0  0
  131.0360  122.9360   60.2460 Cl  0  0  0  0  0  0  0  0  0  0  0  0
  130.8680  125.6050   59.4310 C   0  0  0  0  0  0  0  0  0  0  0  0
  132.4290  125.6730   58.7040 Cl  0  0  0  0  0  0  0  0  0  0  0  0
  131.1330  131.0990   60.4880 C   0  0  2  0  0  0  0  0  0  0  0  0
  131.8530  130.6750   61.7790 C   0  0  0  0  0  0  0  0  0  0  0  0
  129.7360  131.2340   60.7770 O   0  0  0  0  0  0  0  0  0  0  0  0
  128.2460  133.0800   62.2880 C   0  0  2  0  0  0  0  0  0  0  0  0
  129.7600  132.8470   62.0930 C   0  0  0  0  0  0  0  0  0  0  0  0
  127.8260  133.0550   63.7740 C   0  0  0  0  0  0  0  0  0  0  0  0
  127.9050  131.6430   64.3750 C   0  0  0  0  0  0  0  0  0  0  0  0
  127.0150  130.6180   63.6170 C   0  0  2  0  0  0  0  0  0  0  0  0
  128.6210  126.9800   64.2680 C   0  0  0  0  0  0  0  0  0  0  0  0
  129.6990  126.2030   63.4750 C   0  0  0  0  0  0  0  0  0  0  0  0
  129.8670  124.7440   63.9600 C   0  0  0  0  0  0  0  0  0  0  0  0
  129.7130  124.4960   65.4750 C   0  0  0  0  0  0  0  0  0  0  0  0
  129.8480  125.7150   66.3700 C   0  0  0  0  0  0  0  0  0  0  0  0
  129.7390  125.7090   67.7110 C   0  0  0  0  0  0  0  0  0  0  0  0
  129.9280  126.8990   68.6670 C   0  0  1  0  0  0  0  0  0  0  0  0
  131.3410  127.5250   68.4740 C   0  0  0  0  0  0  0  0  0  0  0  0
  129.9600  126.3420   70.0960 C   0  0  0  0  0  0  0  0  0  0  0  0
  129.3740  126.8940   71.1900 C   0  0  0  0  0  0  0  0  0  0  0  0
  129.5760  126.1990   72.5740 C   0  0  0  0  0  0  0  0  0  0  0  0
  128.9210  125.1420   72.7340 O   0  0  0  0  0  0  0  0  0  0  0  0
  130.3780  126.7650   73.3540 O   0  0  0  0  0  0  0  0  0  0  0  0
  128.6100  128.6870   67.2460 C   0  0  0  0  0  0  0  0  0  0  0  0
  129.5080  129.4700   66.7950 O   0  0  0  0  0  0  0  0  0  0  0  0
  127.8396  127.8542   73.6506 H   0  0  0  0  0  0  0  0  0  0  0  0
  126.4007  128.9080   73.4370 H   0  0  0  0  0  0  0  0  0  0  0  0
  126.2135  127.1215   73.4370 H   0  0  0  0  0  0  0  0  0  0  0  0
  126.7709  126.9453   71.2502 H   0  0  0  0  0  0  0  0  0  0  0  0
  126.4756  128.7612   71.2184 H   0  0  0  0  0  0  0  0  0  0  0  0
  128.9504  128.9140   71.8731 H   0  0  0  0  0  0  0  0  0  0  0  0
  127.7791  129.5340   69.6249 H   0  0  0  0  0  0  0  0  0  0  0  0
  129.6063  129.4186   69.7498 H   0  0  0  0  0  0  0  0  0  0  0  0
  126.1551  127.2024   63.8120 H   0  0  0  0  0  0  0  0  0  0  0  0
  125.0413  128.7202   63.6612 H   0  0  0  0  0  0  0  0  0  0  0  0
  125.9073  127.0886   61.5866 H   0  0  0  0  0  0  0  0  0  0  0  0
  125.1382  128.7096   61.5000 H   0  0  0  0  0  0  0  0  0  0  0  0
  126.9285  128.5638   61.5000 H   0  0  0  0  0  0  0  0  0  0  0  0
  129.1304  128.9826   64.7182 H   0  0  0  0  0  0  0  0  0  0  0  0
  129.8875  128.2763   62.1988 H   0  0  0  0  0  0  0  0  0  0  0  0
  128.9709  129.9007   60.7514 H   0  0  0  0  0  0  0  0  0  0  0  0
  126.4451  130.2175   61.5526 H   0  0  0  0  0  0  0  0  0  0  0  0
  126.3475  132.5420   61.5762 H   0  0  0  0  0  0  0  0  0  0  0  0
  129.4782  132.8466   59.5606 H   0  0  0  0  0  0  0  0  0  0  0  0
  128.5502  130.0118   58.7298 H   0  0  0  0  0  0  0  0  0  0  0  0
  128.5337  131.4700   57.6752 H   0  0  0  0  0  0  0  0  0  0  0  0
  131.0000  131.6312   57.8079 H   0  0  0  0  0  0  0  0  0  0  0  0
  131.1080  129.0890   57.1540 H   0  0  0  0  0  0  0  0  0  0  0  0
  132.3858  130.0723   59.0400 H   0  0  0  0  0  0  0  0  0  0  0  0
  131.4950  128.3080   60.3650 H   0  0  0  0  0  0  0  0  0  0  0  0
  127.9910  126.6750   60.3480 H   0  0  0  0  0  0  0  0  0  0  0  0
  131.5891  132.0479   60.1693 H   0  0  0  0  0  0  0  0  0  0  0  0
  131.2744  131.0157   62.6503 H   0  0  0  0  0  0  0  0  0  0  0  0
  131.9440  129.5791   61.8051 H   0  0  0  0  0  0  0  0  0  0  0  0
  132.8555  131.1269   61.8051 H   0  0  0  0  0  0  0  0  0  0  0  0
  128.0791  134.0903   61.8861 H   0  0  0  0  0  0  0  0  0  0  0  0
  130.2489  132.7718   63.0755 H   0  0  0  0  0  0  0  0  0  0  0  0
  129.9182  131.9139   61.5323 H   0  0  0  0  0  0  0  0  0  0  0  0
  130.1914  133.6893   61.5323 H   0  0  0  0  0  0  0  0  0  0  0  0
  128.4933  133.7198   64.3421 H   0  0  0  0  0  0  0  0  0  0  0  0
  126.7802  133.3905   63.8354 H   0  0  0  0  0  0  0  0  0  0  0  0
  128.9496  131.3007   64.3334 H   0  0  0  0  0  0  0  0  0  0  0  0
  127.5371  131.7012   65.4100 H   0  0  0  0  0  0  0  0  0  0  0  0
  125.9755  130.9409   63.7759 H   0  0  0  0  0  0  0  0  0  0  0  0
  128.8525  126.8733   65.3381 H   0  0  0  0  0  0  0  0  0  0  0  0
  127.6613  126.5395   63.9599 H   0  0  0  0  0  0  0  0  0  0  0  0
  129.4120  126.1892   62.4132 H   0  0  0  0  0  0  0  0  0  0  0  0
  130.6591  126.7162   63.6325 H   0  0  0  0  0  0  0  0  0  0  0  0
  129.1128  124.1320   63.4436 H   0  0  0  0  0  0  0  0  0  0  0  0
  130.9094  124.4802   63.7281 H   0  0  0  0  0  0  0  0  0  0  0  0
  128.7159  124.0635   65.6448 H   0  0  0  0  0  0  0  0  0  0  0  0
  130.5465  123.8335   65.7515 H   0  0  0  0  0  0  0  0  0  0  0  0
  130.0512  126.6802   65.8831 H   0  0  0  0  0  0  0  0  0  0  0  0
  129.4863  124.7446   68.1759 H   0  0  0  0  0  0  0  0  0  0  0  0
  131.7912  127.7244   69.4577 H   0  0  0  0  0  0  0  0  0  0  0  0
  131.9787  126.8252   67.9140 H   0  0  0  0  0  0  0  0  0  0  0  0
  131.2511  128.4675   67.9140 H   0  0  0  0  0  0  0  0  0  0  0  0
  130.5119  125.4030   70.2499 H   0  0  0  0  0  0  0  0  0  0  0  0
  1  2  1  0
  2  3  1  0
  3  4  1  0
  4  5  1  0
  5  6  1  1
  6  7  1  0
  7  8  2  0
  7  9  1  0
  9 10  2  0
 10 11  1  0
 10 12  1  0
 12 13  1  6
 13 14  1  0
 12 15  1  0
 15 16  1  0
 16 17  2  0
 17 18  1  0
 18 19  1  0
 19 20  1  0
 20 21  1  0
 21 22  1  0
 22 23  1  0
 23 24  1  0
 23 25  1  0
 25 26  1  0
 26 27  1  0
 27 28  2  0
 27 29  1  0
 29 30  1  0
 30 31  1  0
 31 32  1  0
 31 33  2  0
 33 34  1  0
 33 35  1  0
 35 36  1  0
 25 37  1  0
 37 38  1  0
 37 39  1  0
 19 40  1  0
 40 41  1  0
 40 42  1  0
 42 43  1  0
 43 44  1  0
 15 45  1  0
 45 46  1  0
 46 47  1  0
 47 48  1  0
 48 49  1  0
 49 50  2  0
 50 51  1  0
 51 52  1  6
 51 53  1  0
 53 54  2  0
 54 55  1  0
 55 56  2  0
 55 57  1  0
  9 58  1  0
 58 59  2  0
 54  3  1  0
 51  5  1  0
 58  5  1  0
 44 12  1  0
 44 18  1  0
 39 21  1  0
 35 29  2  0
  1 60  1  0
  1 61  1  0
  1 62  1  0
  2 63  1  0
  2 64  1  0
  3 65  1  1
  4 66  1  0
  4 67  1  0
 13 68  1  0
 13 69  1  0
 14 70  1  0
 14 71  1  0
 14 72  1  0
 15 73  1  1
 16 74  1  0
 17 75  1  0
 18 76  1  6
 19 77  1  6
 21 78  1  6
 22 79  1  0
 22 80  1  0
 23 81  1  6
 24 82  1  0
 25 83  1  6
 26 84  1  0
 30 85  1  0
 37 86  1  6
 38 87  1  0
 38 88  1  0
 38 89  1  0
 40 90  1  6
 41 91  1  0
 41 92  1  0
 41 93  1  0
 42 94  1  0
 42 95  1  0
 43 96  1  0
 43 97  1  0
 44 98  1  6
 45 99  1  0
 45100  1  0
 46101  1  0
 46102  1  0
 47103  1  0
 47104  1  0
 48105  1  0
 48106  1  0
 49107  1  0
 50108  1  0
 52109  1  0
 52110  1  0
 52111  1  0
 53112  1  0
M  CHG  2  11  -1  57  -1
M  END
>  <Binding energies>  (1) 
[7.45]

>  <Ligand effiencies>  (1) 
[0.11640625]

>  <Interactions>  (1) 
["V-A:ASP:366:CA:3210, V-B:HIS:456:CD2:9039, V-A:GLU:543:C:4902, V-A:PRO:540:C:4881, H-B:LYS:547:NZ:9923, V-B:GLU:543:CB:9878, V-B:HIS:456:CB:9036, V-B:ASP:366:CG:8184, H-A:TYR:531:OH:4795, V-B:TYR:539:CE2:9848, V-B:LEU:475:CD2:9230, V-B:GLU:543:CG:9879, V-A:HIS:456:CD2:4068, V-A:ASP:366:CG:3213, H-B:HIS:456:ND1:9038, V-B:TYR:484:CE2:9317, V-A:ALA:541:CB:4892, H-B:ARG:545:NE:9896, V-B:ARG:545:CG:9894, V-B:LYS:547:CE:9922, V-A:GLU:543:CD:4908, H-B:TYR:484:OH:9319, V-B:HIS:456:CE1:9041, V-A:ARG:545:CG:4922, V-B:GLU:543:CA:9876, V-B:TYR:484:CZ:9318, V-A:HIS:456:CE1:4070, V-B:GLY:544:C:9884, V-A:ALA:541:CA:4890, V-B:TYR:539:CD2:9846, V-A:GLU:543:CG:4907, V-B:GLU:543:CD:9880, V-B:HIS:456:CG:9037, V-B:ARG:545:CZ:9898, V-A:ASP:366:CB:3212, V-A:GLU:543:CB:4906, V-A:PRO:540:CA:4883, H-A:ASP:366:OD2:3215"]

$$$$
ZINC2356383863
     RDKit          3D

113116  0  0  0  0  0  0  0  0999 V2000
  131.7360  126.2360   57.8920 C   0  0  0  0  0  0  0  0  0  0  0  0
  130.3540  126.0110   58.1260 O   0  0  0  0  0  0  0  0  0  0  0  0
  129.5880  126.9520   58.7340 C   0  0  0  0  0  0  0  0  0  0  0  0
  130.0620  127.9060   59.3550 O   0  0  0  0  0  0  0  0  0  0  0  0
  128.1070  126.9710   58.2130 C   0  0  2  0  0  0  0  0  0  0  0  0
  127.9590  128.0950   57.1260 C   0  0  0  0  0  0  0  0  0  0  0  0
  129.0200  129.2100   57.0840 C   0  0  0  0  0  0  0  0  0  0  0  0
  130.1600  128.9620   56.6940 O   0  0  0  0  0  0  0  0  0  0  0  0
  128.5950  130.6230   57.5540 C   0  0  2  0  0  0  0  0  0  0  0  0
  129.0390  131.7970   56.6190 C   0  0  0  0  0  0  0  0  0  0  0  0
  130.5720  131.9230   56.4970 C   0  0  0  0  0  0  0  0  0  0  0  0
  128.3920  133.1690   56.9230 C   0  0  0  0  0  0  0  0  0  0  0  0
  129.0460  130.8700   59.0260 C   0  0  0  0  0  0  0  0  0  0  0  0
  129.5800  132.2820   59.3340 C   0  0  0  0  0  0  0  0  0  0  0  0
  130.7400  132.5970   59.0630 O   0  0  0  0  0  0  0  0  0  0  0  0
  128.6130  133.3270   59.9300 C   0  0  2  0  0  0  0  0  0  0  0  0
  129.0130  133.7660   61.3550 C   0  0  0  0  0  0  0  0  0  0  0  0
  127.1310  132.8680   59.8520 C   0  0  0  0  0  0  0  0  0  0  0  0
  126.7900  131.6210   60.6970 C   0  0  0  0  0  0  0  0  0  0  0  0
  127.8830  131.2580   61.7230 C   0  0  0  0  0  0  0  0  0  0  0  0
  127.9900  129.7400   62.0300 C   0  0  2  0  0  0  0  0  0  0  0  0
  129.3970  129.1960   61.7070 C   0  0  0  0  0  0  0  0  0  0  0  0
  126.8530  128.8760   61.4120 C   0  0  0  0  0  0  0  0  0  0  0  0
  126.8680  128.6710   59.8840 C   0  0  0  0  0  0  0  0  0  0  0  0
  126.6820  129.6100   59.1110 O   0  0  0  0  0  0  0  0  0  0  0  0
  127.0580  127.2110   59.3760 C   0  0  2  0  0  0  0  0  0  0  0  0
  127.0820  126.1600   60.5410 C   0  0  2  0  0  0  0  0  0  0  0  0
  128.0610  126.5100   61.6700 C   0  0  0  0  0  0  0  0  0  0  0  0
  129.3790  126.2240   61.7680 C   0  0  0  0  0  0  0  0  0  0  0  0
  130.1370  125.3470   60.7760 C   0  0  0  0  0  0  0  0  0  0  0  0
  130.1710  126.7350   62.9730 C   0  0  0  0  0  0  0  0  0  0  0  0
  129.5860  126.5210   64.3910 C   0  0  0  0  0  0  0  0  0  0  0  0
  129.5660  125.0860   64.9840 C   0  0  2  0  0  0  0  0  0  0  0  0
  129.9410  125.2520   66.7270 Cl  0  0  0  0  0  0  0  0  0  0  0  0
  130.5080  124.0140   64.3370 C   0  0  1  0  0  0  0  0  0  0  0  0
  131.9790  124.4560   64.1810 C   0  0  0  0  0  0  0  0  0  0  0  0
  130.4050  122.6340   65.0340 C   0  0  0  0  0  0  0  0  0  0  0  0
  130.2450  121.6470   63.9040 C   0  0  0  0  0  0  0  0  0  0  0  0
  129.4420  122.4550   62.8890 C   0  0  1  0  0  0  0  0  0  0  0  0
  130.0140  123.7620   63.0120 O   0  0  0  0  0  0  0  0  0  0  0  0
  129.4460  121.9910   61.3960 C   0  0  1  0  0  0  0  0  0  0  0  0
  130.6500  122.5260   60.5830 C   0  0  0  0  0  0  0  0  0  0  0  0
  129.5850  120.5800   61.3960 O   0  0  0  0  0  0  0  0  0  0  0  0
  128.1180  122.3380   60.6530 C   0  0  0  0  0  0  0  0  0  0  0  0
  127.2750  123.5820   61.0730 C   0  0  1  0  0  0  0  0  0  0  0  0
  127.6130  124.0970   62.3460 O   0  0  0  0  0  0  0  0  0  0  0  0
  127.3260  124.7150   60.0230 C   0  0  0  0  0  0  0  0  0  0  0  0
  127.6410  124.4650   58.7180 C   0  0  0  0  0  0  0  0  0  0  0  0
  127.9240  123.0770   58.1460 C   0  0  0  0  0  0  0  0  0  0  0  0
  127.6870  125.5690   57.6550 C   0  0  0  0  0  0  0  0  0  0  0  0
  132.2617  126.3216   58.8545 H   0  0  0  0  0  0  0  0  0  0  0  0
  132.1529  125.3939   57.3201 H   0  0  0  0  0  0  0  0  0  0  0  0
  131.8643  127.1669   57.3201 H   0  0  0  0  0  0  0  0  0  0  0  0
  127.9656  127.6012   56.1431 H   0  0  0  0  0  0  0  0  0  0  0  0
  127.0278  128.6146   57.3959 H   0  0  0  0  0  0  0  0  0  0  0  0
  127.4964  130.6281   57.4980 H   0  0  0  0  0  0  0  0  0  0  0  0
  128.6392  131.4976   55.6390 H   0  0  0  0  0  0  0  0  0  0  0  0
  131.0180  131.9597   57.5019 H   0  0  0  0  0  0  0  0  0  0  0  0
  130.9690  131.0545   55.9511 H   0  0  0  0  0  0  0  0  0  0  0  0
  130.8219  132.8447   55.9511 H   0  0  0  0  0  0  0  0  0  0  0  0
  128.3256  133.3098   58.0119 H   0  0  0  0  0  0  0  0  0  0  0  0
  129.0075  133.9694   56.4866 H   0  0  0  0  0  0  0  0  0  0  0  0
  127.3828  133.2033   56.4866 H   0  0  0  0  0  0  0  0  0  0  0  0
  128.1807  130.6860   59.6798 H   0  0  0  0  0  0  0  0  0  0  0  0
  129.8900  130.1862   59.1994 H   0  0  0  0  0  0  0  0  0  0  0  0
  128.7020  134.2221   59.2969 H   0  0  0  0  0  0  0  0  0  0  0  0
  128.4633  133.1627   62.0924 H   0  0  0  0  0  0  0  0  0  0  0  0
  130.0943  133.6192   61.4940 H   0  0  0  0  0  0  0  0  0  0  0  0
  128.7665  134.8290   61.4940 H   0  0  0  0  0  0  0  0  0  0  0  0
  126.4977  133.6983   60.1976 H   0  0  0  0  0  0  0  0  0  0  0  0
  126.9499  132.5886   58.8036 H   0  0  0  0  0  0  0  0  0  0  0  0
  125.8526  131.8133   61.2396 H   0  0  0  0  0  0  0  0  0  0  0  0
  126.7022  130.7725   60.0025 H   0  0  0  0  0  0  0  0  0  0  0  0
  128.8520  131.5994   61.3299 H   0  0  0  0  0  0  0  0  0  0  0  0
  127.6072  131.7522   62.6663 H   0  0  0  0  0  0  0  0  0  0  0  0
  127.8383  129.6456   63.1154 H   0  0  0  0  0  0  0  0  0  0  0  0
  129.9339  128.9884   62.6443 H   0  0  0  0  0  0  0  0  0  0  0  0
  129.3063  128.2681   61.1232 H   0  0  0  0  0  0  0  0  0  0  0  0
  129.9540  129.9436   61.1232 H   0  0  0  0  0  0  0  0  0  0  0  0
  126.9037  127.8813   61.8788 H   0  0  0  0  0  0  0  0  0  0  0  0
  125.9306  129.4413   61.6108 H   0  0  0  0  0  0  0  0  0  0  0  0
  126.1306  127.0170   58.8172 H   0  0  0  0  0  0  0  0  0  0  0  0
  126.0745  126.2012   60.9805 H   0  0  0  0  0  0  0  0  0  0  0  0
  127.6322  127.0696   62.5143 H   0  0  0  0  0  0  0  0  0  0  0  0
  130.7601  124.6261   61.3255 H   0  0  0  0  0  0  0  0  0  0  0  0
  129.4192  124.8040   60.1436 H   0  0  0  0  0  0  0  0  0  0  0  0
  130.7782  125.9786   60.1436 H   0  0  0  0  0  0  0  0  0  0  0  0
  131.1527  126.2393   62.9493 H   0  0  0  0  0  0  0  0  0  0  0  0
  130.1745  127.8278   62.8471 H   0  0  0  0  0  0  0  0  0  0  0  0
  130.1716  127.1473   65.0801 H   0  0  0  0  0  0  0  0  0  0  0  0
  128.5221  126.7779   64.2810 H   0  0  0  0  0  0  0  0  0  0  0  0
  128.5661  124.6821   64.7671 H   0  0  0  0  0  0  0  0  0  0  0  0
  132.4287  124.5911   65.1757 H   0  0  0  0  0  0  0  0  0  0  0  0
  132.5366  123.6857   63.6281 H   0  0  0  0  0  0  0  0  0  0  0  0
  132.0197  125.4061   63.6281 H   0  0  0  0  0  0  0  0  0  0  0  0
  131.3179  122.4206   65.6094 H   0  0  0  0  0  0  0  0  0  0  0  0
  129.5696  122.5890   65.7482 H   0  0  0  0  0  0  0  0  0  0  0  0
  131.2207  121.3470   63.4941 H   0  0  0  0  0  0  0  0  0  0  0  0
  129.7623  120.7048   64.2028 H   0  0  0  0  0  0  0  0  0  0  0  0
  128.3720  122.3555   63.1239 H   0  0  0  0  0  0  0  0  0  0  0  0
  131.4328  122.8739   61.2730 H   0  0  0  0  0  0  0  0  0  0  0  0
  131.0510  121.7214   59.9492 H   0  0  0  0  0  0  0  0  0  0  0  0
  130.3216  123.3629   59.9492 H   0  0  0  0  0  0  0  0  0  0  0  0
  128.7430  120.1910   61.1500 H   0  0  0  0  0  0  0  0  0  0  0  0
  128.3774  122.4769   59.5931 H   0  0  0  0  0  0  0  0  0  0  0  0
  127.4614  121.4954   60.9154 H   0  0  0  0  0  0  0  0  0  0  0  0
  126.2447  123.2015   61.1344 H   0  0  0  0  0  0  0  0  0  0  0  0
  128.5500  124.3080   62.3490 H   0  0  0  0  0  0  0  0  0  0  0  0
  128.0695  122.3634   58.9704 H   0  0  0  0  0  0  0  0  0  0  0  0
  127.0731  122.7547   57.5279 H   0  0  0  0  0  0  0  0  0  0  0  0
  128.8332  123.1135   57.5279 H   0  0  0  0  0  0  0  0  0  0  0  0
  128.4101  125.2739   56.8804 H   0  0  0  0  0  0  0  0  0  0  0  0
  126.6655  125.6754   57.2611 H   0  0  0  0  0  0  0  0  0  0  0  0
  1  2  1  0
  2  3  1  0
  3  4  2  0
  5  3  1  1
  5  6  1  0
  6  7  1  0
  7  8  2  0
  7  9  1  0
  9 10  1  0
 10 11  1  0
 10 12  1  0
  9 13  1  0
 13 14  1  0
 14 15  2  0
 14 16  1  0
 16 17  1  0
 16 18  1  0
 18 19  1  0
 19 20  1  0
 20 21  1  0
 21 22  1  0
 21 23  1  0
 23 24  1  0
 24 25  2  0
 24 26  1  0
 26 27  1  0
 27 28  1  0
 28 29  2  0
 29 30  1  0
 29 31  1  0
 31 32  1  0
 32 33  1  0
 33 34  1  0
 33 35  1  0
 35 36  1  6
 35 37  1  0
 37 38  1  0
 38 39  1  0
 39 40  1  0
 39 41  1  0
 41 42  1  0
 41 43  1  1
 41 44  1  0
 44 45  1  0
 45 46  1  0
 45 47  1  0
 47 48  2  0
 48 49  1  0
 48 50  1  0
 26  5  1  0
 47 27  1  0
 50  5  1  0
 40 35  1  0
  1 51  1  0
  1 52  1  0
  1 53  1  0
  6 54  1  0
  6 55  1  0
  9 56  1  1
 10 57  1  0
 11 58  1  0
 11 59  1  0
 11 60  1  0
 12 61  1  0
 12 62  1  0
 12 63  1  0
 13 64  1  0
 13 65  1  0
 16 66  1  6
 17 67  1  0
 17 68  1  0
 17 69  1  0
 18 70  1  0
 18 71  1  0
 19 72  1  0
 19 73  1  0
 20 74  1  0
 20 75  1  0
 21 76  1  1
 22 77  1  0
 22 78  1  0
 22 79  1  0
 23 80  1  0
 23 81  1  0
 26 82  1  6
 27 83  1  1
 28 84  1  0
 30 85  1  0
 30 86  1  0
 30 87  1  0
 31 88  1  0
 31 89  1  0
 32 90  1  0
 32 91  1  0
 33 92  1  1
 36 93  1  0
 36 94  1  0
 36 95  1  0
 37 96  1  0
 37 97  1  0
 38 98  1  0
 38 99  1  0
 39100  1  1
 42101  1  0
 42102  1  0
 42103  1  0
 43104  1  0
 44105  1  0
 44106  1  0
 45107  1  1
 46108  1  0
 49109  1  0
 49110  1  0
 49111  1  0
 50112  1  0
 50113  1  0
M  END
>  <Binding energies>  (1) 
[-1.53]

>  <Ligand effiencies>  (1) 
[-0.027321428571428573]

>  <Interactions>  (1) 
["V-B:PRO:540:CA:9855, V-A:PRO:540:C:4881, V-B:GLU:543:CB:9878, V-B:ALA:541:CB:9864, H-A:TYR:531:OH:4795, V-B:TYR:539:CE2:9848, V-A:TYR:484:CE2:4346, V-A:LEU:475:CG:4257, V-B:GLU:543:CG:9879, V-A:TYR:539:CE2:4876, V-B:TYR:539:C:9839, V-A:TYR:539:CD1:4873, V-B:TYR:539:CZ:9849, H-B:GLU:543:OE1:9881, V-A:TYR:539:CZ:4877, H-B:TYR:539:OH:9850, V-A:ALA:541:CB:4892, H-B:ALA:541:N:9863, V-A:LEU:475:CD1:4258, V-A:GLU:543:CD:4908, V-A:TYR:484:CZ:4347, V-B:PRO:540:N:9856, V-A:HIS:456:CE1:4070, V-B:TYR:539:CD2:9846, V-A:MET:535:CE:4835, V-B:GLU:543:CD:9880, V-A:TYR:539:C:4867, V-A:ASP:366:CB:3212, V-A:LEU:475:CD2:4259, V-A:PRO:540:N:4884, V-A:TYR:539:CG:4872, V-A:PRO:540:CA:4883, H-B:TYR:539:O:9840, V-A:TYR:539:CD2:4874, V-B:PRO:540:C:9853, V-A:TYR:539:CE1:4875, H-B:PRO:540:O:9854"]

$$$$
ZINC2356384163
     RDKit          3D

 83 86  0  0  0  0  0  0  0  0999 V2000
  126.7350  131.8320   62.5540 C   0  0  0  0  0  0  0  0  0  0  0  0
  128.0010  132.0020   63.3830 C   0  0  0  0  0  0  0  0  0  0  0  0
  127.9930  131.8420   64.6040 O   0  0  0  0  0  0  0  0  0  0  0  0
  129.0680  132.3430   62.6240 O   0  0  0  0  0  0  0  0  0  0  0  0
  129.4680  131.5770   61.4800 C   0  0  2  0  0  0  0  0  0  0  0  0
  129.7700  130.1000   61.7970 C   0  0  1  0  0  0  0  0  0  0  0  0
  128.6320  129.5520   62.4020 O   0  0  0  0  0  0  0  0  0  0  0  0
  128.7310  128.2860   62.9010 C   0  0  0  0  0  0  0  0  0  0  0  0
  128.9610  127.9920   64.0780 O   0  0  0  0  0  0  0  0  0  0  0  0
  128.5680  127.2240   61.7740 C   0  0  2  0  0  0  0  0  0  0  0  0
  127.0720  126.8640   61.6240 C   0  0  0  0  0  0  0  0  0  0  0  0
  126.8930  126.2220   60.2480 C   0  0  0  0  0  0  0  0  0  0  0  0
  127.6790  124.8890   60.0660 C   0  0  2  0  0  0  0  0  0  0  0  0
  127.6040  124.5560   58.5460 C   0  0  0  0  0  0  0  0  0  0  0  0
  127.0610  123.6680   60.7920 C   0  0  0  0  0  0  0  0  0  0  0  0
  125.5460  123.6070   60.9500 C   0  0  0  0  0  0  0  0  0  0  0  0
  127.8160  122.6230   61.1970 C   0  0  0  0  0  0  0  0  0  0  0  0
  129.3290  122.5190   61.0950 C   0  0  0  0  0  0  0  0  0  0  0  0
  129.9640  123.7360   60.3860 C   0  0  0  0  0  0  0  0  0  0  0  0
  129.1930  125.0850   60.5230 C   0  0  2  0  0  0  0  0  0  0  0  0
  129.4700  125.9250   61.8640 C   0  0  1  0  0  0  0  0  0  0  0  0
  130.9520  126.4200   61.7910 C   0  0  0  0  0  0  0  0  0  0  0  0
  129.1130  125.1130   63.1690 C   0  0  0  0  0  0  0  0  0  0  0  0
  130.0820  123.9680   63.5550 C   0  0  0  0  0  0  0  0  0  0  0  0
  131.3780  124.4350   64.1940 C   0  0  0  0  0  0  0  0  0  0  0  0
  131.5130  125.2590   65.3190 C   0  0  0  0  0  0  0  0  0  0  0  0
  132.8630  125.4380   65.5640 C   0  0  0  0  0  0  0  0  0  0  0  0
  133.5870  124.7640   64.6430 O   0  0  0  0  0  0  0  0  0  0  0  0
  132.6930  124.1600   63.8200 C   0  0  0  0  0  0  0  0  0  0  0  0
  130.0780  129.4150   60.6060 O   0  0  0  0  0  0  0  0  0  0  0  0
  131.2640  129.9050   59.9720 C   0  0  0  0  0  0  0  0  0  0  0  0
  131.1560  131.4040   59.5970 C   0  0  1  0  0  0  0  0  0  0  0  0
  130.2040  131.6390   58.5570 O   0  0  0  0  0  0  0  0  0  0  0  0
  130.4770  132.4650   57.5230 C   0  0  0  0  0  0  0  0  0  0  0  0
  131.7780  132.1010   56.8200 C   0  0  0  0  0  0  0  0  0  0  0  0
  129.7880  133.4150   57.1450 O   0  0  0  0  0  0  0  0  0  0  0  0
  130.7140  132.2230   60.8310 C   0  0  2  0  0  0  0  0  0  0  0  0
  131.7730  132.3360   61.7870 O   0  0  0  0  0  0  0  0  0  0  0  0
  132.9610  131.7120   61.6150 C   0  0  0  0  0  0  0  0  0  0  0  0
  133.2930  130.7770   62.7710 C   0  0  0  0  0  0  0  0  0  0  0  0
  133.7230  131.8430   60.6570 O   0  0  0  0  0  0  0  0  0  0  0  0
  125.8706  131.7159   63.2243 H   0  0  0  0  0  0  0  0  0  0  0  0
  126.5904  132.7188   61.9194 H   0  0  0  0  0  0  0  0  0  0  0  0
  126.8295  130.9385   61.9194 H   0  0  0  0  0  0  0  0  0  0  0  0
  128.6124  131.5849   60.7887 H   0  0  0  0  0  0  0  0  0  0  0  0
  130.6327  130.0116   62.4737 H   0  0  0  0  0  0  0  0  0  0  0  0
  128.9564  127.7148   60.8694 H   0  0  0  0  0  0  0  0  0  0  0  0
  126.7748  126.1555   62.4112 H   0  0  0  0  0  0  0  0  0  0  0  0
  126.4445  127.7625   61.7184 H   0  0  0  0  0  0  0  0  0  0  0  0
  125.8228  126.0162   60.0984 H   0  0  0  0  0  0  0  0  0  0  0  0
  127.2938  126.9322   59.5098 H   0  0  0  0  0  0  0  0  0  0  0  0
  127.3640  123.4905   58.4155 H   0  0  0  0  0  0  0  0  0  0  0  0
  126.8213  125.1685   58.0746 H   0  0  0  0  0  0  0  0  0  0  0  0
  128.5737  124.7739   58.0746 H   0  0  0  0  0  0  0  0  0  0  0  0
  125.2890  123.5967   62.0195 H   0  0  0  0  0  0  0  0  0  0  0  0
  125.0918  124.4876   60.4723 H   0  0  0  0  0  0  0  0  0  0  0  0
  125.1640  122.6927   60.4723 H   0  0  0  0  0  0  0  0  0  0  0  0
  127.2862  121.7678   61.6420 H   0  0  0  0  0  0  0  0  0  0  0  0
  129.7460  122.4462   62.1103 H   0  0  0  0  0  0  0  0  0  0  0  0
  129.5609  121.6267   60.4950 H   0  0  0  0  0  0  0  0  0  0  0  0
  130.9718  123.8803   60.8026 H   0  0  0  0  0  0  0  0  0  0  0  0
  129.9514  123.4944   59.3129 H   0  0  0  0  0  0  0  0  0  0  0  0
  129.6302  125.8024   59.8130 H   0  0  0  0  0  0  0  0  0  0  0  0
  131.3453  126.5514   62.8098 H   0  0  0  0  0  0  0  0  0  0  0  0
  131.5610  125.6765   61.2559 H   0  0  0  0  0  0  0  0  0  0  0  0
  130.9919  127.3803   61.2559 H   0  0  0  0  0  0  0  0  0  0  0  0
  129.0841  125.8239   64.0079 H   0  0  0  0  0  0  0  0  0  0  0  0
  128.1523  124.6224   62.9539 H   0  0  0  0  0  0  0  0  0  0  0  0
  129.5666  123.3054   64.2659 H   0  0  0  0  0  0  0  0  0  0  0  0
  130.3574  123.4595   62.6193 H   0  0  0  0  0  0  0  0  0  0  0  0
  130.6883  125.6893   65.9061 H   0  0  0  0  0  0  0  0  0  0  0  0
  133.2834  126.0382   66.3844 H   0  0  0  0  0  0  0  0  0  0  0  0
  132.9716  123.5302   62.9623 H   0  0  0  0  0  0  0  0  0  0  0  0
  132.1125  129.7729   60.6594 H   0  0  0  0  0  0  0  0  0  0  0  0
  131.4070  129.3357   59.0417 H   0  0  0  0  0  0  0  0  0  0  0  0
  132.1511  131.7124   59.2441 H   0  0  0  0  0  0  0  0  0  0  0  0
  132.5523  131.8844   57.5707 H   0  0  0  0  0  0  0  0  0  0  0  0
  131.6187  131.2129   56.1907 H   0  0  0  0  0  0  0  0  0  0  0  0
  132.1027  132.9428   56.1907 H   0  0  0  0  0  0  0  0  0  0  0  0
  130.4569  133.2377   60.4931 H   0  0  0  0  0  0  0  0  0  0  0  0
  133.1096  131.2936   63.7247 H   0  0  0  0  0  0  0  0  0  0  0  0
  132.6582  129.8806   62.7115 H   0  0  0  0  0  0  0  0  0  0  0  0
  134.3509  130.4817   62.7115 H   0  0  0  0  0  0  0  0  0  0  0  0
  1  2  1  0
  2  3  2  0
  2  4  1  0
  4  5  1  0
  5  6  1  0
  6  7  1  0
  7  8  1  0
  8  9  2  0
  8 10  1  0
 10 11  1  0
 11 12  1  0
 12 13  1  0
 13 14  1  6
 13 15  1  0
 15 16  1  0
 15 17  2  0
 17 18  1  0
 18 19  1  0
 19 20  1  0
 20 21  1  0
 21 22  1  1
 21 23  1  0
 23 24  1  0
 24 25  1  0
 25 26  1  0
 26 27  2  0
 27 28  1  0
 28 29  1  0
  6 30  1  0
 30 31  1  0
 31 32  1  0
 32 33  1  0
 33 34  1  0
 34 35  1  0
 34 36  2  0
 32 37  1  0
 37 38  1  0
 38 39  1  0
 39 40  1  0
 39 41  2  0
 37  5  1  0
 21 10  1  0
 29 25  2  0
 20 13  1  0
  1 42  1  0
  1 43  1  0
  1 44  1  0
  5 45  1  6
  6 46  1  1
 10 47  1  6
 11 48  1  0
 11 49  1  0
 12 50  1  0
 12 51  1  0
 14 52  1  0
 14 53  1  0
 14 54  1  0
 16 55  1  0
 16 56  1  0
 16 57  1  0
 17 58  1  0
 18 59  1  0
 18 60  1  0
 19 61  1  0
 19 62  1  0
 20 63  1  6
 22 64  1  0
 22 65  1  0
 22 66  1  0
 23 67  1  0
 23 68  1  0
 24 69  1  0
 24 70  1  0
 26 71  1  0
 27 72  1  0
 29 73  1  0
 31 74  1  0
 31 75  1  0
 32 76  1  6
 35 77  1  0
 35 78  1  0
 35 79  1  0
 37 80  1  6
 40 81  1  0
 40 82  1  0
 40 83  1  0
M  END
>  <Binding energies>  (1) 
[-8.55]

>  <Ligand effiencies>  (1) 
[-0.20853658536585368]

>  <Interactions>  (1) 
["V-B:PRO:540:CA:9855, H-A:ALA:541:N:4891, V-A:PRO:540:C:4881, V-B:TYR:539:CE2:9848, V-B:GLU:543:CG:9879, V-A:ASP:366:CG:3213, V-A:ASN:362:CB:3176, V-A:LEU:363:CD1:3189, V-A:GLU:543:CD:4908, V-B:PRO:540:CB:9857, H-B:TYR:484:OH:9319, V-A:ASN:362:CG:3177, H-A:GLY:454:N:4050, V-A:GLU:543:CG:4907, V-B:GLU:543:CD:9880, V-A:ARG:545:CD:4923, H-A:ARG:545:NH2:4928, V-A:ARG:545:CZ:4926, H-A:LEU:363:N:3186, V-A:PRO:540:N:4884, H-A:TYR:539:N:4870, V-A:PRO:540:CB:4885, V-A:PRO:540:CA:4883, H-A:ARG:545:NE:4924, V-B:PRO:540:C:9853, H-A:TYR:484:OH:4348"]

$$$$
ZINC2356387859
     RDKit          3D

 57 57  0  0  0  0  0  0  0  0999 V2000
  126.6550  127.8240   73.6180 C   0  0  0  0  0  0  0  0  0  0  0  0
  128.0280  127.8180   72.9200 C   0  0  0  0  0  0  0  0  0  0  0  0
  128.1970  126.7250   71.8330 C   0  0  2  0  0  0  0  0  0  0  0  0
  128.3200  125.4730   72.4900 O   0  0  0  0  0  0  0  0  0  0  0  0
  129.4240  126.9340   70.8870 C   0  0  2  0  0  0  0  0  0  0  0  0
  130.3370  128.0950   71.3360 C   0  0  0  0  0  0  0  0  0  0  0  0
  129.0970  127.0930   69.3990 C   0  0  0  0  0  0  0  0  0  0  0  0
  129.6530  126.4200   68.3700 C   0  0  0  0  0  0  0  0  0  0  0  0
  129.2760  126.6390   66.9770 C   0  0  0  0  0  0  0  0  0  0  0  0
  128.3630  127.3970   66.6420 O   0  0  0  0  0  0  0  0  0  0  0  0
  130.0670  125.8550   65.9080 C   0  0  2  0  0  0  0  0  0  0  0  0
  129.4810  126.1300   64.5060 C   0  0  0  0  0  0  0  0  0  0  0  0
  130.1700  124.3260   66.1770 C   0  0  0  0  0  0  0  0  0  0  0  0
  129.7950  123.3840   64.9950 C   0  0  2  0  0  0  0  0  0  0  0  0
  129.0910  122.0940   65.4710 C   0  0  0  0  0  0  0  0  0  0  0  0
  131.0030  123.0520   64.0700 C   0  0  2  0  0  0  0  0  0  0  0  0
  132.0310  124.0280   64.2920 O   0  0  0  0  0  0  0  0  0  0  0  0
  133.1980  123.9650   63.5890 C   0  0  0  0  0  0  0  0  0  0  0  0
  134.0650  124.7740   63.9190 O   0  0  0  0  0  0  0  0  0  0  0  0
  133.2890  122.9080   62.4600 C   0  0  2  0  0  0  0  0  0  0  0  0
  134.3530  123.3080   61.4080 C   0  0  0  0  0  0  0  0  0  0  0  0
  131.9500  122.5200   61.7860 C   0  0  0  0  0  0  0  0  0  0  0  0
  131.9150  121.8860   60.7300 O   0  0  0  0  0  0  0  0  0  0  0  0
  130.6730  122.9390   62.5510 C   0  0  1  0  0  0  0  0  0  0  0  0
  129.4960  121.9880   62.2190 C   0  0  0  0  0  0  0  0  0  0  0  0
  126.7981  127.8234   74.7086 H   0  0  0  0  0  0  0  0  0  0  0  0
  126.0971  128.7246   73.3219 H   0  0  0  0  0  0  0  0  0  0  0  0
  126.0892  126.9283   73.3219 H   0  0  0  0  0  0  0  0  0  0  0  0
  128.1754  128.7992   72.4452 H   0  0  0  0  0  0  0  0  0  0  0  0
  128.7722  127.5987   73.6998 H   0  0  0  0  0  0  0  0  0  0  0  0
  127.3107  126.7757   71.1835 H   0  0  0  0  0  0  0  0  0  0  0  0
  128.2540  124.7770   71.8330 H   0  0  0  0  0  0  0  0  0  0  0  0
  129.9617  125.9796   70.9867 H   0  0  0  0  0  0  0  0  0  0  0  0
  130.3674  128.1336   72.4349 H   0  0  0  0  0  0  0  0  0  0  0  0
  131.3531  127.9341   70.9465 H   0  0  0  0  0  0  0  0  0  0  0  0
  129.9411  129.0445   70.9465 H   0  0  0  0  0  0  0  0  0  0  0  0
  128.3267  127.8350   69.1418 H   0  0  0  0  0  0  0  0  0  0  0  0
  130.4272  125.6707   68.5915 H   0  0  0  0  0  0  0  0  0  0  0  0
  131.1010  126.2266   65.9613 H   0  0  0  0  0  0  0  0  0  0  0  0
  128.4895  126.5953   64.6078 H   0  0  0  0  0  0  0  0  0  0  0  0
  130.1496  126.8084   63.9557 H   0  0  0  0  0  0  0  0  0  0  0  0
  129.3865  125.1822   63.9557 H   0  0  0  0  0  0  0  0  0  0  0  0
  131.2095  124.1064   66.4621 H   0  0  0  0  0  0  0  0  0  0  0  0
  129.4267  124.1184   66.9608 H   0  0  0  0  0  0  0  0  0  0  0  0
  129.0755  123.9529   64.3879 H   0  0  0  0  0  0  0  0  0  0  0  0
  129.0770  122.0683   66.5706 H   0  0  0  0  0  0  0  0  0  0  0  0
  128.0590  122.0778   65.0907 H   0  0  0  0  0  0  0  0  0  0  0  0
  129.6357  121.2173   65.0907 H   0  0  0  0  0  0  0  0  0  0  0  0
  131.3366  122.0414   64.3481 H   0  0  0  0  0  0  0  0  0  0  0  0
  133.6043  121.9882   62.9743 H   0  0  0  0  0  0  0  0  0  0  0  0
  135.2643  123.6506   61.9201 H   0  0  0  0  0  0  0  0  0  0  0  0
  134.5913  122.4381   60.7784 H   0  0  0  0  0  0  0  0  0  0  0  0
  133.9592  124.1195   60.7784 H   0  0  0  0  0  0  0  0  0  0  0  0
  130.3330  123.9333   62.2258 H   0  0  0  0  0  0  0  0  0  0  0  0
  129.0445  121.6232   63.1534 H   0  0  0  0  0  0  0  0  0  0  0  0
  128.7394  122.5314   61.6339 H   0  0  0  0  0  0  0  0  0  0  0  0
  129.8683  121.1341   61.6339 H   0  0  0  0  0  0  0  0  0  0  0  0
  1  2  1  0
  2  3  1  0
  3  4  1  0
  3  5  1  0
  5  6  1  0
  5  7  1  0
  7  8  2  0
  8  9  1  0
  9 10  2  0
  9 11  1  0
 11 12  1  0
 11 13  1  0
 13 14  1  0
 14 15  1  0
 14 16  1  0
 16 17  1  0
 17 18  1  0
 18 19  2  0
 18 20  1  0
 20 21  1  0
 20 22  1  0
 22 23  2  0
 22 24  1  0
 24 25  1  0
 24 16  1  0
  1 26  1  0
  1 27  1  0
  1 28  1  0
  2 29  1  0
  2 30  1  0
  3 31  1  6
  4 32  1  0
  5 33  1  6
  6 34  1  0
  6 35  1  0
  6 36  1  0
  7 37  1  0
  8 38  1  0
 11 39  1  6
 12 40  1  0
 12 41  1  0
 12 42  1  0
 13 43  1  0
 13 44  1  0
 14 45  1  6
 15 46  1  0
 15 47  1  0
 15 48  1  0
 16 49  1  1
 20 50  1  1
 21 51  1  0
 21 52  1  0
 21 53  1  0
 24 54  1  6
 25 55  1  0
 25 56  1  0
 25 57  1  0
M  END
>  <Binding energies>  (1) 
[-7.57]

>  <Ligand effiencies>  (1) 
[-0.29115384615384615]

>  <Interactions>  (1) 
["V-A:ILE:369:CG2:3237, V-A:GLY:454:CA:4049, V-B:HIS:456:CD2:9039, H-B:GLU:543:O:9875, V-A:GLU:543:C:4902, V-B:GLU:543:CB:9878, H-B:LYS:547:NZ:9923, V-B:HIS:456:CB:9036, V-B:ALA:541:CB:9864, H-A:ARG:545:NH1:4927, V-A:TYR:484:CE2:4346, V-B:GLU:543:CG:9879, V-A:GLY:544:C:4912, V-A:HIS:456:CD2:4068, V-B:LYS:547:CE:9922, V-A:GLU:543:CD:4908, V-A:TYR:484:CZ:4347, V-B:GLU:543:CA:9876, H-A:GLY:454:N:4050, V-A:TYR:484:CD2:4344, V-A:HIS:456:CE1:4070, V-A:ILE:369:CD1:3239, V-B:GLU:543:CD:9880, V-B:HIS:456:CG:9037, V-A:LEU:475:CD2:4259, H-A:ARG:545:NH2:4928, V-B:VAL:542:C:9866, H-A:ARG:545:NE:4924, H-A:HIS:456:NE2:4071, H-A:TYR:484:OH:4348"]

$$$$
ZINC2356395396
     RDKit          3D

 34 33  0  0  0  0  0  0  0  0999 V2000
  127.6270  127.3920   72.5220 C   0  0  0  0  0  0  0  0  0  0  0  0
  128.3320  126.8030   71.3180 C   0  0  0  0  0  0  0  0  0  0  0  0
  128.2730  127.3100   70.0740 C   0  0  0  0  0  0  0  0  0  0  0  0
  128.9430  126.7380   68.9530 C   0  0  0  0  0  0  0  0  0  0  0  0
  129.5560  126.2920   67.9960 C   0  0  0  0  0  0  0  0  0  0  0  0
  130.2440  125.7990   66.9240 C   0  0  0  0  0  0  0  0  0  0  0  0
  130.8590  125.3530   65.9690 C   0  0  0  0  0  0  0  0  0  0  0  0
  131.5540  124.7670   64.8690 C   0  0  0  0  0  0  0  0  0  0  0  0
  132.8410  125.0260   64.5740 C   0  0  0  0  0  0  0  0  0  0  0  0
  133.5290  124.4210   63.4500 C   0  0  0  0  0  0  0  0  0  0  0  0
  133.2870  123.1660   63.0330 C   0  0  0  0  0  0  0  0  0  0  0  0
  133.9830  122.4920   61.8660 C   0  0  0  0  0  0  0  0  0  0  0  0
  133.3930  122.8880   60.5020 C   0  0  0  0  0  0  0  0  0  0  0  0
  133.9820  124.2040   59.9540 C   0  0  0  0  0  0  0  0  0  0  0  0
  133.3110  124.7120   58.6640 C   0  0  0  0  0  0  0  0  0  0  0  0
  133.7270  123.9620   57.5410 O   0  0  0  0  0  0  0  0  0  0  0  0
  128.0890  127.0060   73.4426 H   0  0  0  0  0  0  0  0  0  0  0  0
  127.7158  128.4882   72.4990 H   0  0  0  0  0  0  0  0  0  0  0  0
  126.5641  127.1097   72.4990 H   0  0  0  0  0  0  0  0  0  0  0  0
  128.9351  125.8961   71.4721 H   0  0  0  0  0  0  0  0  0  0  0  0
  127.6735  128.2180   69.9120 H   0  0  0  0  0  0  0  0  0  0  0  0
  131.0061  124.0631   64.2253 H   0  0  0  0  0  0  0  0  0  0  0  0
  133.3959  125.7279   65.2139 H   0  0  0  0  0  0  0  0  0  0  0  0
  134.2832  125.0160   62.9142 H   0  0  0  0  0  0  0  0  0  0  0  0
  132.5284  122.5852   63.5783 H   0  0  0  0  0  0  0  0  0  0  0  0
  135.0463  122.7733   61.8826 H   0  0  0  0  0  0  0  0  0  0  0  0
  133.8423  121.4072   61.9820 H   0  0  0  0  0  0  0  0  0  0  0  0
  133.6018  122.0831   59.7820 H   0  0  0  0  0  0  0  0  0  0  0  0
  132.3127  123.0418   60.6411 H   0  0  0  0  0  0  0  0  0  0  0  0
  133.8720  124.9786   60.7272 H   0  0  0  0  0  0  0  0  0  0  0  0
  135.0324  123.9970   59.7014 H   0  0  0  0  0  0  0  0  0  0  0  0
  132.2195  124.6247   58.7692 H   0  0  0  0  0  0  0  0  0  0  0  0
  133.6037  125.7610   58.5095 H   0  0  0  0  0  0  0  0  0  0  0  0
  134.4860  124.3980   57.1450 H   0  0  0  0  0  0  0  0  0  0  0  0
  1  2  1  0
  2  3  2  0
  3  4  1  0
  4  5  3  0
  5  6  1  0
  6  7  3  0
  7  8  1  0
  8  9  2  0
  9 10  1  0
 10 11  2  0
 11 12  1  0
 12 13  1  0
 13 14  1  0
 14 15  1  0
 15 16  1  0
  1 17  1  0
  1 18  1  0
  1 19  1  0
  2 20  1  0
  3 21  1  0
  8 22  1  0
  9 23  1  0
 10 24  1  0
 11 25  1  0
 12 26  1  0
 12 27  1  0
 13 28  1  0
 13 29  1  0
 14 30  1  0
 14 31  1  0
 15 32  1  0
 15 33  1  0
 16 34  1  0
M  END
>  <Binding energies>  (1) 
[-6.04]

>  <Ligand effiencies>  (1) 
[-0.3552941176470588]

>  <Interactions>  (1) 
["V-A:ILE:369:CG2:3237, V-A:ASP:366:CA:3210, V-A:GLY:454:CA:4049, V-B:HIS:456:CD2:9039, V-A:ILE:369:CB:3236, V-B:GLU:543:CB:9878, V-B:TYR:539:CE2:9848, V-A:ASP:366:CG:3213, H-A:ASN:370:N:3244, H-B:TYR:539:OH:9850, V-B:HIS:456:CE1:9041, V-A:ILE:369:CD1:3239, V-A:HIS:456:CE1:4070, V-B:GLY:544:C:9884, V-A:ASP:366:C:3208, V-B:HIS:456:CG:9037, V-A:ASP:366:CB:3212, V-A:LEU:475:CD2:4259, V-A:ARG:545:CZ:4926, H-A:ASP:366:O:3209"]

$$$$
ZINC2356395414
     RDKit          3D

 86 90  0  0  0  0  0  0  0  0999 V2000
  126.5090  124.3310   60.6700 C   0  0  0  0  0  0  0  0  0  0  0  0
  127.0200  123.8560   59.5130 C   0  0  0  0  0  0  0  0  0  0  0  0
  128.1920  122.9450   59.5240 C   0  0  0  0  0  0  0  0  0  0  0  0
  128.3440  122.1260   58.6190 O   0  0  0  0  0  0  0  0  0  0  0  0
  129.2250  122.8940   60.6870 C   0  0  2  0  0  0  0  0  0  0  0  0
  128.9680  123.9330   61.6200 O   0  0  0  0  0  0  0  0  0  0  0  0
  130.7550  122.8430   60.3130 C   0  0  2  0  0  0  0  0  0  0  0  0
  131.5350  121.6310   60.8900 C   0  0  0  0  0  0  0  0  0  0  0  0
  131.6040  124.1720   60.4080 C   0  0  2  0  0  0  0  0  0  0  0  0
  132.2050  124.6620   61.7670 C   0  0  2  0  0  0  0  0  0  0  0  0
  131.5470  124.0880   62.8950 O   0  0  0  0  0  0  0  0  0  0  0  0
  132.0220  124.2670   64.1500 C   0  0  0  0  0  0  0  0  0  0  0  0
  130.9270  124.6350   65.1420 C   0  0  0  0  0  0  0  0  0  0  0  0
  133.1960  124.1590   64.5070 O   0  0  0  0  0  0  0  0  0  0  0  0
  132.0420  126.2080   61.7760 C   0  0  0  0  0  0  0  0  0  0  0  0
  130.8910  126.5080   60.7950 C   0  0  1  0  0  0  0  0  0  0  0  0
  129.5520  126.2800   61.5820 C   0  0  0  0  0  0  0  0  0  0  0  0
  130.8080  127.9500   60.1960 C   0  0  2  0  0  0  0  0  0  0  0  0
  131.0270  129.1330   61.1830 C   0  0  0  0  0  0  0  0  0  0  0  0
  130.2840  130.4300   60.8160 C   0  0  0  0  0  0  0  0  0  0  0  0
  130.1110  130.6330   59.2930 C   0  0  2  0  0  0  0  0  0  0  0  0
  129.5040  132.0280   58.9390 C   0  0  2  0  0  0  0  0  0  0  0  0
  128.1670  132.3550   59.6460 C   0  0  0  0  0  0  0  0  0  0  0  0
  129.3180  132.1680   57.4140 C   0  0  0  0  0  0  0  0  0  0  0  0
  129.8100  133.0870   56.7640 O   0  0  0  0  0  0  0  0  0  0  0  0
  128.4790  131.0540   56.7750 C   0  0  0  0  0  0  0  0  0  0  0  0
  129.0430  129.6580   57.1140 C   0  0  0  0  0  0  0  0  0  0  0  0
  129.3280  129.4590   58.6260 C   0  0  2  0  0  0  0  0  0  0  0  0
  128.3060  128.6280   59.3920 C   0  0  0  0  0  0  0  0  0  0  0  0
  129.6870  128.0490   59.1010 C   0  0  2  0  0  0  0  0  0  0  0  0
  129.6680  126.8720   58.0590 C   0  0  0  0  0  0  0  0  0  0  0  0
  129.9480  125.4720   58.6850 C   0  0  0  0  0  0  0  0  0  0  0  0
  131.1880  125.4830   59.6340 C   0  0  2  0  0  0  0  0  0  0  0  0
  132.4420  125.8410   58.7460 C   0  0  0  0  0  0  0  0  0  0  0  0
  126.4550  124.2090   58.1170 C   0  0  2  0  0  0  0  0  0  0  0  0
  125.6820  125.5470   58.0410 C   0  0  0  0  0  0  0  0  0  0  0  0
  125.6330  123.0610   57.4760 C   0  0  0  0  0  0  0  0  0  0  0  0
  126.4610  122.1100   56.8350 O   0  0  0  0  0  0  0  0  0  0  0  0
  125.6403  125.0056   60.6517 H   0  0  0  0  0  0  0  0  0  0  0  0
  126.9617  124.0432   61.6303 H   0  0  0  0  0  0  0  0  0  0  0  0
  129.0541  121.9021   61.1307 H   0  0  0  0  0  0  0  0  0  0  0  0
  129.6840  123.9540   62.2600 H   0  0  0  0  0  0  0  0  0  0  0  0
  130.6434  122.6925   59.2291 H   0  0  0  0  0  0  0  0  0  0  0  0
  131.5106  121.6689   61.9891 H   0  0  0  0  0  0  0  0  0  0  0  0
  131.0683  120.6966   60.5449 H   0  0  0  0  0  0  0  0  0  0  0  0
  132.5788  121.6687   60.5449 H   0  0  0  0  0  0  0  0  0  0  0  0
  132.3614  123.6221   59.8302 H   0  0  0  0  0  0  0  0  0  0  0  0
  133.2577  124.3530   61.8468 H   0  0  0  0  0  0  0  0  0  0  0  0
  131.3038  124.5084   66.1677 H   0  0  0  0  0  0  0  0  0  0  0  0
  130.6292  125.6826   64.9875 H   0  0  0  0  0  0  0  0  0  0  0  0
  130.0570  123.9799   64.9875 H   0  0  0  0  0  0  0  0  0  0  0  0
  131.7879  126.5617   62.7861 H   0  0  0  0  0  0  0  0  0  0  0  0
  132.9714  126.7175   61.4818 H   0  0  0  0  0  0  0  0  0  0  0  0
  129.7518  126.3140   62.6632 H   0  0  0  0  0  0  0  0  0  0  0  0
  128.8322  127.0685   61.3172 H   0  0  0  0  0  0  0  0  0  0  0  0
  129.1337  125.2977   61.3172 H   0  0  0  0  0  0  0  0  0  0  0  0
  131.7329  128.1259   59.6271 H   0  0  0  0  0  0  0  0  0  0  0  0
  130.6862  128.8143   62.1791 H   0  0  0  0  0  0  0  0  0  0  0  0
  132.1002  129.3713   61.1452 H   0  0  0  0  0  0  0  0  0  0  0  0
  129.2865  130.4025   61.2789 H   0  0  0  0  0  0  0  0  0  0  0  0
  130.8935  131.2674   61.1864 H   0  0  0  0  0  0  0  0  0  0  0  0
  131.1232  130.6205   58.8625 H   0  0  0  0  0  0  0  0  0  0  0  0
  130.2381  132.7560   59.3147 H   0  0  0  0  0  0  0  0  0  0  0  0
  128.3105  132.3199   60.7360 H   0  0  0  0  0  0  0  0  0  0  0  0
  127.8334  133.3612   59.3523 H   0  0  0  0  0  0  0  0  0  0  0  0
  127.4067  131.6163   59.3523 H   0  0  0  0  0  0  0  0  0  0  0  0
  127.4471  131.1236   57.1498 H   0  0  0  0  0  0  0  0  0  0  0  0
  128.5077  131.1827   55.6829 H   0  0  0  0  0  0  0  0  0  0  0  0
  128.3130  128.8999   56.7941 H   0  0  0  0  0  0  0  0  0  0  0  0
  130.0034  129.5590   56.5868 H   0  0  0  0  0  0  0  0  0  0  0  0
  128.0324  128.9055   60.4206 H   0  0  0  0  0  0  0  0  0  0  0  0
  127.2723  128.3024   59.2038 H   0  0  0  0  0  0  0  0  0  0  0  0
  128.6769  126.8468   57.5825 H   0  0  0  0  0  0  0  0  0  0  0  0
  130.4765  127.0684   57.3395 H   0  0  0  0  0  0  0  0  0  0  0  0
  129.0647  125.1593   59.2612 H   0  0  0  0  0  0  0  0  0  0  0  0
  130.1604  124.7727   57.8628 H   0  0  0  0  0  0  0  0  0  0  0  0
  133.2947  126.0844   59.3969 H   0  0  0  0  0  0  0  0  0  0  0  0
  132.6993  124.9804   58.1110 H   0  0  0  0  0  0  0  0  0  0  0  0
  132.2062  126.7077   58.1110 H   0  0  0  0  0  0  0  0  0  0  0  0
  127.3645  124.3510   57.5148 H   0  0  0  0  0  0  0  0  0  0  0  0
  125.4733  125.9082   59.0588 H   0  0  0  0  0  0  0  0  0  0  0  0
  126.2892  126.2913   57.5051 H   0  0  0  0  0  0  0  0  0  0  0  0
  124.7339  125.3928   57.5051 H   0  0  0  0  0  0  0  0  0  0  0  0
  125.0553  122.5552   58.2637 H   0  0  0  0  0  0  0  0  0  0  0  0
  124.9701  123.5010   56.7164 H   0  0  0  0  0  0  0  0  0  0  0  0
  127.2740  122.0240   57.3390 H   0  0  0  0  0  0  0  0  0  0  0  0
  1  2  2  0
  2  3  1  0
  3  4  2  0
  3  5  1  0
  5  6  1  0
  5  7  1  0
  7  8  1  0
  7  9  1  0
  9 10  1  0
 10 11  1  0
 11 12  1  0
 12 13  1  0
 12 14  2  0
 10 15  1  0
 15 16  1  0
 16 17  1  1
 16 18  1  0
 18 19  1  0
 19 20  1  0
 20 21  1  0
 21 22  1  0
 22 23  1  0
 22 24  1  0
 24 25  2  0
 24 26  1  0
 26 27  1  0
 28 27  1  6
 28 29  1  0
 30 29  1  1
 30 31  1  0
 31 32  1  0
 32 33  1  0
 33 34  1  6
  2 35  1  0
 35 36  1  0
 35 37  1  0
 37 38  1  0
 33  9  1  0
 33 16  1  0
 30 18  1  0
 28 21  1  0
 30 28  1  0
  1 39  1  0
  1 40  1  0
  5 41  1  1
  6 42  1  0
  7 43  1  6
  8 44  1  0
  8 45  1  0
  8 46  1  0
  9 47  1  6
 10 48  1  6
 13 49  1  0
 13 50  1  0
 13 51  1  0
 15 52  1  0
 15 53  1  0
 17 54  1  0
 17 55  1  0
 17 56  1  0
 18 57  1  6
 19 58  1  0
 19 59  1  0
 20 60  1  0
 20 61  1  0
 21 62  1  6
 22 63  1  1
 23 64  1  0
 23 65  1  0
 23 66  1  0
 26 67  1  0
 26 68  1  0
 27 69  1  0
 27 70  1  0
 29 71  1  0
 29 72  1  0
 31 73  1  0
 31 74  1  0
 32 75  1  0
 32 76  1  0
 34 77  1  0
 34 78  1  0
 34 79  1  0
 35 80  1  6
 36 81  1  0
 36 82  1  0
 36 83  1  0
 37 84  1  0
 37 85  1  0
 38 86  1  0
M  END
>  <Binding energies>  (1) 
[-8.39]

>  <Ligand effiencies>  (1) 
[-0.20975000000000002]

>  <Interactions>  (1) 
["V-A:ASP:366:CA:3210, V-B:PRO:540:CA:9855, V-B:TYR:539:CE2:9848, H-B:TYR:539:N:9842, V-A:ASP:366:CG:3213, V-A:TYR:539:CD1:4873, V-B:PRO:540:CB:9857, H-A:GLY:454:N:4050, V-B:PRO:540:N:9856, V-B:TYR:539:CD2:9846, V-B:PRO:540:CD:9859, V-A:MET:535:CE:4835, V-A:ASP:366:CB:3212, V-A:LEU:475:CD2:4259, H-A:TYR:539:N:4870, V-B:LEU:363:CD1:8160, V-A:PRO:540:CA:4883, H-B:TYR:539:O:9840, H-A:TYR:484:OH:4348"]

$$$$
ZINC2356397786-again1
     RDKit          3D

 98101  0  0  0  0  0  0  0  0999 V2000
  133.1780  124.0400   59.3300 C   0  0  0  0  0  0  0  0  0  0  0  0
  133.5390  123.4940   60.7250 C   0  0  0  0  0  0  0  0  0  0  0  0
  132.3290  123.1750   61.6410 C   0  0  2  0  0  0  0  0  0  0  0  0
  131.1540  122.6890   60.8890 C   0  0  0  0  0  0  0  0  0  0  0  0
  130.0720  122.3520   60.4390 C   0  0  0  0  0  0  0  0  0  0  0  0
  128.6920  122.1710   59.9660 C   0  0  0  0  0  0  0  0  0  0  0  0
  127.5860  122.8080   60.8720 C   0  0  2  0  0  0  0  0  0  0  0  0
  126.9450  124.0740   60.2000 C   0  0  2  0  0  0  0  0  0  0  0  0
  126.0040  124.6610   61.0830 O   0  0  0  0  0  0  0  0  0  0  0  0
  126.2130  123.7770   58.8630 C   0  0  0  0  0  0  0  0  0  0  0  0
  126.5380  124.7120   57.6750 C   0  0  0  0  0  0  0  0  0  0  0  0
  127.9030  125.3640   57.8460 C   0  0  0  0  0  0  0  0  0  0  0  0
  129.0660  124.5940   57.8450 C   0  0  0  0  0  0  0  0  0  0  0  0
  130.3120  125.2110   57.9400 C   0  0  0  0  0  0  0  0  0  0  0  0
  130.4020  126.6020   58.0140 C   0  0  0  0  0  0  0  0  0  0  0  0
  131.6430  127.1820   58.0740 O   0  0  0  0  0  0  0  0  0  0  0  0
  129.2460  127.3940   58.0090 C   0  0  0  0  0  0  0  0  0  0  0  0
  129.4160  128.7690   58.0490 O   0  0  0  0  0  0  0  0  0  0  0  0
  128.3100  129.6520   58.2760 C   0  0  2  0  0  0  0  0  0  0  0  0
  128.8110  131.1100   58.1130 C   0  0  0  0  0  0  0  0  0  0  0  0
  129.8590  131.5680   59.1690 C   0  0  2  0  0  0  0  0  0  0  0  0
  130.9040  130.4700   59.4920 C   0  0  0  0  0  0  0  0  0  0  0  0
  132.0670  130.9590   60.3340 C   0  0  0  0  0  0  0  0  0  0  0  0
  133.2590  131.5890   59.9890 C   0  0  0  0  0  0  0  0  0  0  0  0
  133.9850  131.8430   61.1580 C   0  0  0  0  0  0  0  0  0  0  0  0
  133.2340  131.3670   62.2180 C   0  0  0  0  0  0  0  0  0  0  0  0
  132.0800  130.8370   61.7030 N   0  0  0  0  0  0  0  0  0  0  0  0
  129.2140  132.1080   60.4510 C   0  0  0  0  0  0  0  0  0  0  0  0
  128.5540  133.3470   60.4610 C   0  0  0  0  0  0  0  0  0  0  0  0
  127.9990  133.8260   61.6500 C   0  0  0  0  0  0  0  0  0  0  0  0
  128.1070  133.0860   62.7720 N   0  0  0  0  0  0  0  0  0  0  0  0
  128.7280  131.8920   62.8140 C   0  0  0  0  0  0  0  0  0  0  0  0
  128.7940  131.1920   64.0360 N   0  0  0  0  0  0  0  0  0  0  0  0
  129.2950  131.3760   61.6440 C   0  0  0  0  0  0  0  0  0  0  0  0
  127.6770  129.3220   59.6550 C   0  0  1  0  0  0  0  0  0  0  0  0
  126.4630  128.6130   59.4800 O   0  0  0  0  0  0  0  0  0  0  0  0
  128.6250  128.5310   60.5920 C   0  0  0  0  0  0  0  0  0  0  0  0
  127.9510  127.8200   61.7840 C   0  0  0  0  0  0  0  0  0  0  0  0
  127.1400  126.7400   61.3720 O   0  0  0  0  0  0  0  0  0  0  0  0
  127.9950  126.7540   57.9540 C   0  0  0  0  0  0  0  0  0  0  0  0
  128.0450  123.0770   62.3570 C   0  0  2  0  0  0  0  0  0  0  0  0
  126.9950  122.8190   63.2740 O   0  0  0  0  0  0  0  0  0  0  0  0
  128.7510  124.4410   62.6340 C   0  0  0  0  0  0  0  0  0  0  0  0
  129.6450  125.0330   61.5090 C   0  0  0  0  0  0  0  0  0  0  0  0
  131.0510  125.4870   61.9830 C   0  0  0  0  0  0  0  0  0  0  0  0
  131.9770  124.3810   62.5610 C   0  0  0  0  0  0  0  0  0  0  0  0
  132.5743  124.9531   59.4386 H   0  0  0  0  0  0  0  0  0  0  0  0
  134.1002  124.2737   58.7778 H   0  0  0  0  0  0  0  0  0  0  0  0
  132.6018  123.2830   58.7778 H   0  0  0  0  0  0  0  0  0  0  0  0
  134.1168  122.5679   60.5892 H   0  0  0  0  0  0  0  0  0  0  0  0
  134.1025  124.2926   61.2296 H   0  0  0  0  0  0  0  0  0  0  0  0
  132.6372  122.3430   62.2912 H   0  0  0  0  0  0  0  0  0  0  0  0
  128.6135  122.6221   58.9658 H   0  0  0  0  0  0  0  0  0  0  0  0
  128.5065  121.0868   59.9760 H   0  0  0  0  0  0  0  0  0  0  0  0
  126.7977  122.0458   60.9595 H   0  0  0  0  0  0  0  0  0  0  0  0
  127.7855  124.7487   59.9804 H   0  0  0  0  0  0  0  0  0  0  0  0
  126.4150  124.7650   61.9450 H   0  0  0  0  0  0  0  0  0  0  0  0
  126.4716  122.7513   58.5613 H   0  0  0  0  0  0  0  0  0  0  0  0
  125.1453  123.9361   59.0745 H   0  0  0  0  0  0  0  0  0  0  0  0
  126.5346  124.1249   56.7448 H   0  0  0  0  0  0  0  0  0  0  0  0
  125.7757  125.5041   57.6360 H   0  0  0  0  0  0  0  0  0  0  0  0
  128.9997  123.4986   57.7692 H   0  0  0  0  0  0  0  0  0  0  0  0
  131.2268  124.6003   57.9567 H   0  0  0  0  0  0  0  0  0  0  0  0
  131.6750  128.0470   57.6610 H   0  0  0  0  0  0  0  0  0  0  0  0
  127.5018  129.5204   57.5415 H   0  0  0  0  0  0  0  0  0  0  0  0
  129.2671  131.2046   57.1165 H   0  0  0  0  0  0  0  0  0  0  0  0
  127.9310  131.7548   58.2539 H   0  0  0  0  0  0  0  0  0  0  0  0
  130.3980  132.4036   58.6987 H   0  0  0  0  0  0  0  0  0  0  0  0
  130.3980  129.6596   60.0372 H   0  0  0  0  0  0  0  0  0  0  0  0
  131.3230  130.1347   58.5318 H   0  0  0  0  0  0  0  0  0  0  0  0
  133.5774  131.8447   58.9676 H   0  0  0  0  0  0  0  0  0  0  0  0
  134.9691  132.3302   61.2222 H   0  0  0  0  0  0  0  0  0  0  0  0
  133.5127  131.4068   63.2814 H   0  0  0  0  0  0  0  0  0  0  0  0
  131.3410  130.4210   62.2520 H   0  0  0  0  0  0  0  0  0  0  0  0
  128.4743  133.9380   59.5367 H   0  0  0  0  0  0  0  0  0  0  0  0
  127.4799  134.7956   61.6708 H   0  0  0  0  0  0  0  0  0  0  0  0
  127.7000  133.4460   63.6240 H   0  0  0  0  0  0  0  0  0  0  0  0
  128.0540  131.2950   64.7160 H   0  0  0  0  0  0  0  0  0  0  0  0
  129.5800  130.5910   64.2380 H   0  0  0  0  0  0  0  0  0  0  0  0
  129.8023  130.4001   61.6599 H   0  0  0  0  0  0  0  0  0  0  0  0
  127.4809  130.2862   60.1467 H   0  0  0  0  0  0  0  0  0  0  0  0
  126.5370  127.7710   59.9360 H   0  0  0  0  0  0  0  0  0  0  0  0
  129.1360  127.7667   59.9881 H   0  0  0  0  0  0  0  0  0  0  0  0
  129.3011  129.2782   61.0331 H   0  0  0  0  0  0  0  0  0  0  0  0
  128.7329  127.4390   62.4574 H   0  0  0  0  0  0  0  0  0  0  0  0
  127.3060  128.5516   62.2927 H   0  0  0  0  0  0  0  0  0  0  0  0
  126.5350  126.5210   62.0840 H   0  0  0  0  0  0  0  0  0  0  0  0
  127.0756  127.3564   57.9966 H   0  0  0  0  0  0  0  0  0  0  0  0
  128.8534  122.3492   62.5204 H   0  0  0  0  0  0  0  0  0  0  0  0
  126.2980  123.4630   63.1320 H   0  0  0  0  0  0  0  0  0  0  0  0
  127.9653  125.1793   62.8521 H   0  0  0  0  0  0  0  0  0  0  0  0
  129.4461  124.2316   63.4604 H   0  0  0  0  0  0  0  0  0  0  0  0
  129.7747  124.2651   60.7321 H   0  0  0  0  0  0  0  0  0  0  0  0
  129.1315  125.9328   61.1393 H   0  0  0  0  0  0  0  0  0  0  0  0
  131.5653  125.9371   61.1211 H   0  0  0  0  0  0  0  0  0  0  0  0
  130.8679  126.1797   62.8176 H   0  0  0  0  0  0  0  0  0  0  0  0
  132.9237  124.8624   62.8476 H   0  0  0  0  0  0  0  0  0  0  0  0
  131.3997  123.9401   63.3871 H   0  0  0  0  0  0  0  0  0  0  0  0
  1  2  1  0
  2  3  1  0
  3  4  1  0
  4  5  3  0
  5  6  1  0
  6  7  1  0
  7  8  1  0
  8  9  1  0
  8 10  1  0
 10 11  1  0
 11 12  1  0
 12 13  2  0
 13 14  1  0
 14 15  2  0
 15 16  1  0
 15 17  1  0
 17 18  1  0
 18 19  1  0
 19 20  1  0
 20 21  1  0
 21 22  1  0
 22 23  1  0
 23 24  2  0
 24 25  1  0
 25 26  2  0
 26 27  1  0
 21 28  1  0
 28 29  2  0
 29 30  1  0
 30 31  2  0
 31 32  1  0
 32 33  1  0
 32 34  2  0
 19 35  1  0
 35 36  1  0
 35 37  1  0
 37 38  1  0
 38 39  1  0
 17 40  2  0
  7 41  1  0
 41 42  1  0
 41 43  1  0
 43 44  1  0
 44 45  1  0
 45 46  1  0
 46  3  1  0
 40 12  1  0
 27 23  1  0
 34 28  1  0
  1 47  1  0
  1 48  1  0
  1 49  1  0
  2 50  1  0
  2 51  1  0
  3 52  1  1
  6 53  1  0
  6 54  1  0
  7 55  1  1
  8 56  1  6
  9 57  1  0
 10 58  1  0
 10 59  1  0
 11 60  1  0
 11 61  1  0
 13 62  1  0
 14 63  1  0
 16 64  1  0
 19 65  1  6
 20 66  1  0
 20 67  1  0
 21 68  1  6
 22 69  1  0
 22 70  1  0
 24 71  1  0
 25 72  1  0
 26 73  1  0
 27 74  1  0
 29 75  1  0
 30 76  1  0
 31 77  1  0
 33 78  1  0
 33 79  1  0
 34 80  1  0
 35 81  1  1
 36 82  1  0
 37 83  1  0
 37 84  1  0
 38 85  1  0
 38 86  1  0
 39 87  1  0
 40 88  1  0
 41 89  1  1
 42 90  1  0
 43 91  1  0
 43 92  1  0
 44 93  1  0
 44 94  1  0
 45 95  1  0
 45 96  1  0
 46 97  1  0
 46 98  1  0
M  CHG  1  31   1
M  END
>  <Binding energies>  (1) 
[-5.18]

>  <Ligand effiencies>  (1) 
[-0.09087719298245614]

>  <Interactions>  (1) 
["V-A:ILE:369:CG2:3237, V-B:PRO:540:CA:9855, H-A:GLU:543:OE2:4910, V-B:ALA:541:CB:9864, H-A:TYR:531:OH:4795, V-B:TYR:539:CE2:9848, H-B:ALA:541:O:9861, V-B:GLU:543:CG:9879, V-B:LEU:475:CD2:9230, V-B:TYR:539:C:9839, V-A:ASP:366:CG:3213, V-A:ASN:362:CB:3176, V-A:TYR:539:CD1:4873, V-B:TYR:539:CZ:9849, H-B:GLU:543:OE1:9881, V-A:ALA:541:CB:4892, H-B:ALA:541:N:9863, V-A:GLU:543:CD:4908, V-B:PRO:540:CB:9857, H-B:TYR:484:OH:9319, H-B:ASP:366:OD1:8185, V-B:PRO:540:N:9856, V-A:ILE:369:CD1:3239, V-B:TYR:539:CD2:9846, V-A:GLU:543:CG:4907, V-B:GLU:543:CD:9880, V-A:TYR:539:C:4867, V-A:ASN:362:C:3172, H-A:GLU:543:OE1:4909, V-A:PRO:540:N:4884, H-B:GLU:543:OE2:9882, V-A:PRO:540:CB:4885, V-A:PRO:540:CA:4883, V-A:LEU:363:CA:3185, V-A:ASN:362:CA:3174, V-B:PRO:540:C:9853, H-A:ASP:366:OD2:3215"]

$$$$
ZINC2356398408
     RDKit          3D

 91 94  0  0  0  0  0  0  0  0999 V2000
  126.3630  130.3440   61.9500 C   0  0  0  0  0  0  0  0  0  0  0  0
  126.5840  129.0250   62.1010 C   0  0  0  0  0  0  0  0  0  0  0  0
  127.1410  128.4860   63.4050 C   0  0  0  0  0  0  0  0  0  0  0  0
  126.2920  128.0970   61.0180 C   0  0  0  0  0  0  0  0  0  0  0  0
  127.1790  127.3280   60.3530 C   0  0  0  0  0  0  0  0  0  0  0  0
  128.6870  127.2200   60.6060 C   0  0  1  0  0  0  0  0  0  0  0  0
  128.9740  126.1960   61.9030 C   0  0  0  0  0  0  0  0  0  0  0  0
  130.4680  125.5440   62.1330 C   0  0  1  0  0  0  0  0  0  0  0  0
  131.0960  125.9450   63.4840 C   0  0  0  0  0  0  0  0  0  0  0  0
  130.6820  124.9310   64.5650 C   0  0  2  0  0  0  0  0  0  0  0  0
  131.0970  125.4090   65.9820 C   0  0  0  0  0  0  0  0  0  0  0  0
  129.9230  125.7180   66.9000 C   0  0  0  0  0  0  0  0  0  0  0  0
  129.9130  126.5550   67.9600 C   0  0  0  0  0  0  0  0  0  0  0  0
  128.6520  126.7840   68.7750 C   0  0  0  0  0  0  0  0  0  0  0  0
  131.1290  127.3240   68.4590 C   0  0  0  0  0  0  0  0  0  0  0  0
  131.2230  123.5070   64.1850 C   0  0  0  0  0  0  0  0  0  0  0  0
  132.7660  123.3950   64.2820 C   0  0  0  0  0  0  0  0  0  0  0  0
  130.5150  122.4280   65.0330 C   0  0  0  0  0  0  0  0  0  0  0  0
  130.8570  123.1210   62.8440 O   0  0  0  0  0  0  0  0  0  0  0  0
  130.9900  124.0440   61.8440 C   0  0  0  0  0  0  0  0  0  0  0  0
  131.5630  123.5900   60.6280 C   0  0  0  0  0  0  0  0  0  0  0  0
  132.1040  122.2260   60.5430 C   0  0  0  0  0  0  0  0  0  0  0  0
  133.3130  122.0530   60.3830 O   0  0  0  0  0  0  0  0  0  0  0  0
  131.2190  121.0800   60.8820 C   0  0  0  0  0  0  0  0  0  0  0  0
  129.9200  121.3330   61.3280 C   0  0  0  0  0  0  0  0  0  0  0  0
  129.0730  120.2800   61.6740 C   0  0  0  0  0  0  0  0  0  0  0  0
  129.5200  118.9570   61.5970 C   0  0  0  0  0  0  0  0  0  0  0  0
  128.7110  118.0220   61.9240 O   0  0  0  0  0  0  0  0  0  0  0  0
  130.8390  118.6950   61.1690 C   0  0  0  0  0  0  0  0  0  0  0  0
  131.3570  117.4220   61.0820 O   0  0  0  0  0  0  0  0  0  0  0  0
  131.6730  119.7580   60.8150 C   0  0  0  0  0  0  0  0  0  0  0  0
  131.4790  124.5600   59.4120 C   0  0  0  0  0  0  0  0  0  0  0  0
  132.1510  124.5400   58.3810 O   0  0  0  0  0  0  0  0  0  0  0  0
  130.3240  125.5580   59.7090 C   0  0  1  0  0  0  0  0  0  0  0  0
  129.0900  124.4520   59.6750 C   0  0  0  0  0  0  0  0  0  0  0  0
  128.7760  123.7540   58.3420 C   0  0  0  0  0  0  0  0  0  0  0  0
  127.5580  123.3770   57.8980 C   0  0  0  0  0  0  0  0  0  0  0  0
  127.3770  122.7140   56.5430 C   0  0  0  0  0  0  0  0  0  0  0  0
  126.2660  123.5700   58.6760 C   0  0  0  0  0  0  0  0  0  0  0  0
  131.0830  126.1800   60.9750 C   0  0  0  0  0  0  0  0  0  0  0  0
  132.0610  126.9400   60.9970 O   0  0  0  0  0  0  0  0  0  0  0  0
  129.5870  126.8970   59.2290 C   0  0  0  0  0  0  0  0  0  0  0  0
  128.7160  126.7150   57.9390 C   0  0  0  0  0  0  0  0  0  0  0  0
  130.5460  128.0910   58.8660 C   0  0  0  0  0  0  0  0  0  0  0  0
  125.9590  130.7290   61.0021 H   0  0  0  0  0  0  0  0  0  0  0  0
  126.5864  131.0370   62.7745 H   0  0  0  0  0  0  0  0  0  0  0  0
  126.6350  128.9757   64.2501 H   0  0  0  0  0  0  0  0  0  0  0  0
  126.9714  127.4003   63.4552 H   0  0  0  0  0  0  0  0  0  0  0  0
  128.2205  128.6912   63.4552 H   0  0  0  0  0  0  0  0  0  0  0  0
  125.2393  128.0142   60.7100 H   0  0  0  0  0  0  0  0  0  0  0  0
  126.7748  126.7094   59.5382 H   0  0  0  0  0  0  0  0  0  0  0  0
  129.0609  128.2133   60.8949 H   0  0  0  0  0  0  0  0  0  0  0  0
  128.7338  126.7645   62.8135 H   0  0  0  0  0  0  0  0  0  0  0  0
  128.3525  125.3188   61.6701 H   0  0  0  0  0  0  0  0  0  0  0  0
  132.1920  125.9538   63.3904 H   0  0  0  0  0  0  0  0  0  0  0  0
  130.7435  126.9475   63.7683 H   0  0  0  0  0  0  0  0  0  0  0  0
  129.5852  124.8564   64.6042 H   0  0  0  0  0  0  0  0  0  0  0  0
  131.7031  124.6192   66.4497 H   0  0  0  0  0  0  0  0  0  0  0  0
  131.6538  126.3485   65.8504 H   0  0  0  0  0  0  0  0  0  0  0  0
  128.9777  125.2024   66.6752 H   0  0  0  0  0  0  0  0  0  0  0  0
  128.8951  126.7398   69.8469 H   0  0  0  0  0  0  0  0  0  0  0  0
  128.2343  127.7727   68.5342 H   0  0  0  0  0  0  0  0  0  0  0  0
  127.9133  126.0053   68.5342 H   0  0  0  0  0  0  0  0  0  0  0  0
  131.1346  127.3275   69.5590 H   0  0  0  0  0  0  0  0  0  0  0  0
  132.0454  126.8409   68.0892 H   0  0  0  0  0  0  0  0  0  0  0  0
  131.0853  128.3591   68.0892 H   0  0  0  0  0  0  0  0  0  0  0  0
  133.0663  123.3732   65.3400 H   0  0  0  0  0  0  0  0  0  0  0  0
  133.0983  122.4704   63.7874 H   0  0  0  0  0  0  0  0  0  0  0  0
  133.2284  124.2619   63.7874 H   0  0  0  0  0  0  0  0  0  0  0  0
  130.6593  122.6480   66.1011 H   0  0  0  0  0  0  0  0  0  0  0  0
  129.4397  122.4264   64.8010 H   0  0  0  0  0  0  0  0  0  0  0  0
  130.9416  121.4410   64.8010 H   0  0  0  0  0  0  0  0  0  0  0  0
  129.5621  122.3702   61.4070 H   0  0  0  0  0  0  0  0  0  0  0  0
  128.0470  120.4915   62.0095 H   0  0  0  0  0  0  0  0  0  0  0  0
  132.0430  117.2650   61.7360 H   0  0  0  0  0  0  0  0  0  0  0  0
  132.7003  119.5533   60.4791 H   0  0  0  0  0  0  0  0  0  0  0  0
  129.3362  123.6663   60.4044 H   0  0  0  0  0  0  0  0  0  0  0  0
  128.1882  125.0434   59.8917 H   0  0  0  0  0  0  0  0  0  0  0  0
  129.6303  123.5399   57.6830 H   0  0  0  0  0  0  0  0  0  0  0  0
  127.0897  121.6617   56.6851 H   0  0  0  0  0  0  0  0  0  0  0  0
  126.5887  123.2367   55.9814 H   0  0  0  0  0  0  0  0  0  0  0  0
  128.3216  122.7636   55.9814 H   0  0  0  0  0  0  0  0  0  0  0  0
  126.4793  123.5381   59.7547 H   0  0  0  0  0  0  0  0  0  0  0  0
  125.8247  124.5440   58.4181 H   0  0  0  0  0  0  0  0  0  0  0  0
  125.5593  122.7675   58.4181 H   0  0  0  0  0  0  0  0  0  0  0  0
  127.6766  126.4978   58.2260 H   0  0  0  0  0  0  0  0  0  0  0  0
  128.7463  127.6389   57.3427 H   0  0  0  0  0  0  0  0  0  0  0  0
  129.1137  125.8806   57.3427 H   0  0  0  0  0  0  0  0  0  0  0  0
  130.9192  128.5557   59.7906 H   0  0  0  0  0  0  0  0  0  0  0  0
  131.3948  127.7135   58.2769 H   0  0  0  0  0  0  0  0  0  0  0  0
  129.9943  128.8383   58.2769 H   0  0  0  0  0  0  0  0  0  0  0  0
  1  2  2  0
  2  3  1  0
  2  4  1  0
  4  5  2  0
  5  6  1  0
  6  7  1  0
  8  7  1  1
  8  9  1  0
  9 10  1  0
 10 11  1  0
 11 12  1  0
 12 13  2  3
 13 14  1  0
 13 15  1  0
 10 16  1  0
 16 17  1  0
 16 18  1  0
 16 19  1  0
 19 20  1  0
 20 21  2  0
 21 22  1  0
 22 23  2  0
 22 24  1  0
 24 25  2  0
 25 26  1  0
 26 27  2  0
 27 28  1  0
 27 29  1  0
 29 30  1  0
 29 31  2  0
 21 32  1  0
 32 33  2  0
 32 34  1  0
 34 35  1  1
 35 36  1  0
 36 37  2  3
 37 38  1  0
 37 39  1  0
 34 40  1  0
 40 41  2  0
 34 42  1  0
 42 43  1  0
 42 44  1  0
 42  6  1  0
 20  8  1  0
 31 24  1  0
 40  8  1  0
  1 45  1  0
  1 46  1  0
  3 47  1  0
  3 48  1  0
  3 49  1  0
  4 50  1  0
  5 51  1  0
  6 52  1  1
  7 53  1  0
  7 54  1  0
  9 55  1  0
  9 56  1  0
 10 57  1  1
 11 58  1  0
 11 59  1  0
 12 60  1  0
 14 61  1  0
 14 62  1  0
 14 63  1  0
 15 64  1  0
 15 65  1  0
 15 66  1  0
 17 67  1  0
 17 68  1  0
 17 69  1  0
 18 70  1  0
 18 71  1  0
 18 72  1  0
 25 73  1  0
 26 74  1  0
 30 75  1  0
 31 76  1  0
 35 77  1  0
 35 78  1  0
 36 79  1  0
 38 80  1  0
 38 81  1  0
 38 82  1  0
 39 83  1  0
 39 84  1  0
 39 85  1  0
 43 86  1  0
 43 87  1  0
 43 88  1  0
 44 89  1  0
 44 90  1  0
 44 91  1  0
M  CHG  1  28  -1
M  END
>  <Binding energies>  (1) 
[-8.33]

>  <Ligand effiencies>  (1) 
[-0.18511111111111112]

>  <Interactions>  (1) 
["V-B:PRO:540:CA:9855, V-A:GLY:454:CA:4049, V-B:GLU:543:C:9874, V-B:GLU:543:CB:9878, V-B:ASP:366:CG:8184, V-B:ALA:541:CB:9864, V-B:TYR:539:CE2:9848, V-A:TYR:484:CE2:4346, V-A:LEU:475:CG:4257, V-B:GLU:543:CG:9879, V-B:TYR:539:C:9839, V-B:TYR:539:CZ:9849, H-B:TYR:539:OH:9850, H-B:ALA:541:N:9863, V-A:GLU:543:CD:4908, V-A:TYR:484:CZ:4347, V-B:PRO:540:CB:9857, V-A:ARG:545:CG:4922, V-B:PRO:540:N:9856, V-A:HIS:456:CE1:4070, V-A:PRO:482:CB:4326, V-B:TYR:539:CD2:9846, V-A:SER:385:CB:3409, H-A:SER:385:OG:3410, V-B:GLU:543:CD:9880, V-A:LEU:475:CD2:4259, H-A:ARG:545:NH2:4928, V-B:TYR:539:CG:9844, V-A:GLU:543:CB:4906, H-A:HIS:383:HE2:3395, V-B:TYR:539:CD1:9845, V-B:PRO:540:C:9853, V-B:ALA:541:CA:9862, V-B:TYR:539:CE1:9847"]

$$$$
ZINC2356398408-again1
     RDKit          3D

 91 94  0  0  0  0  0  0  0  0999 V2000
  126.9420  132.0410   63.5500 C   0  0  0  0  0  0  0  0  0  0  0  0
  126.7990  130.7240   63.7920 C   0  0  0  0  0  0  0  0  0  0  0  0
  127.6150  130.0520   64.8810 C   0  0  0  0  0  0  0  0  0  0  0  0
  125.8620  129.9260   63.0160 C   0  0  0  0  0  0  0  0  0  0  0  0
  126.1660  128.9330   62.1530 C   0  0  0  0  0  0  0  0  0  0  0  0
  127.5580  128.3870   61.8220 C   0  0  1  0  0  0  0  0  0  0  0  0
  127.9810  127.2010   62.9300 C   0  0  0  0  0  0  0  0  0  0  0  0
  129.1960  126.1450   62.5900 C   0  0  1  0  0  0  0  0  0  0  0  0
  130.3620  126.2320   63.5990 C   0  0  0  0  0  0  0  0  0  0  0  0
  130.1080  125.2620   64.7670 C   0  0  2  0  0  0  0  0  0  0  0  0
  131.1260  125.4770   65.9190 C   0  0  0  0  0  0  0  0  0  0  0  0
  130.4860  125.7010   67.2820 C   0  0  0  0  0  0  0  0  0  0  0  0
  129.4520  126.5180   67.5740 C   0  0  0  0  0  0  0  0  0  0  0  0
  128.9020  126.6230   68.9870 C   0  0  0  0  0  0  0  0  0  0  0  0
  128.7510  127.4160   66.5630 C   0  0  0  0  0  0  0  0  0  0  0  0
  130.0600  123.7900   64.2220 C   0  0  0  0  0  0  0  0  0  0  0  0
  131.4330  123.2780   63.7160 C   0  0  0  0  0  0  0  0  0  0  0  0
  129.4540  122.8500   65.2870 C   0  0  0  0  0  0  0  0  0  0  0  0
  129.1290  123.6440   63.1310 O   0  0  0  0  0  0  0  0  0  0  0  0
  129.1220  124.5940   62.1450 C   0  0  0  0  0  0  0  0  0  0  0  0
  129.0600  124.1220   60.8110 C   0  0  0  0  0  0  0  0  0  0  0  0
  129.2160  122.6880   60.5410 C   0  0  0  0  0  0  0  0  0  0  0  0
  128.2780  122.0690   60.0350 O   0  0  0  0  0  0  0  0  0  0  0  0
  130.5640  122.0590   60.6590 C   0  0  0  0  0  0  0  0  0  0  0  0
  130.7160  120.6780   60.8100 C   0  0  0  0  0  0  0  0  0  0  0  0
  131.9860  120.1080   60.8700 C   0  0  0  0  0  0  0  0  0  0  0  0
  133.1280  120.9050   60.7820 C   0  0  0  0  0  0  0  0  0  0  0  0
  134.3500  120.2720   60.8610 O   0  0  0  0  0  0  0  0  0  0  0  0
  132.9920  122.3000   60.6100 C   0  0  0  0  0  0  0  0  0  0  0  0
  133.9990  123.0790   60.5160 O   0  0  0  0  0  0  0  0  0  0  0  0
  131.7090  122.8590   60.5380 C   0  0  0  0  0  0  0  0  0  0  0  0
  128.8130  125.1840   59.7000 C   0  0  0  0  0  0  0  0  0  0  0  0
  129.0060  125.0660   58.4910 O   0  0  0  0  0  0  0  0  0  0  0  0
  128.1960  126.4330   60.3960 C   0  0  1  0  0  0  0  0  0  0  0  0
  126.7670  125.7240   60.8440 C   0  0  0  0  0  0  0  0  0  0  0  0
  126.2550  124.5350   60.0190 C   0  0  0  0  0  0  0  0  0  0  0  0
  125.9600  124.5370   58.7010 C   0  0  0  0  0  0  0  0  0  0  0  0
  125.4710  123.2860   57.9940 C   0  0  0  0  0  0  0  0  0  0  0  0
  126.0800  125.7590   57.8000 C   0  0  0  0  0  0  0  0  0  0  0  0
  129.5070  126.6970   61.2760 C   0  0  0  0  0  0  0  0  0  0  0  0
  130.6030  127.1470   60.9170 O   0  0  0  0  0  0  0  0  0  0  0  0
  127.7610  127.9660   60.2130 C   0  0  0  0  0  0  0  0  0  0  0  0
  126.4700  128.1630   59.3470 C   0  0  0  0  0  0  0  0  0  0  0  0
  128.8280  128.8830   59.5030 C   0  0  0  0  0  0  0  0  0  0  0  0
  126.3479  132.5226   62.7594 H   0  0  0  0  0  0  0  0  0  0  0  0
  127.6529  132.6351   64.1429 H   0  0  0  0  0  0  0  0  0  0  0  0
  127.2377  130.3627   65.8664 H   0  0  0  0  0  0  0  0  0  0  0  0
  127.5284  128.9598   64.7829 H   0  0  0  0  0  0  0  0  0  0  0  0
  128.6703  130.3464   64.7829 H   0  0  0  0  0  0  0  0  0  0  0  0
  124.7941  130.1557   63.1460 H   0  0  0  0  0  0  0  0  0  0  0  0
  125.3198  128.4641   61.6295 H   0  0  0  0  0  0  0  0  0  0  0  0
  128.2854  129.2044   61.9355 H   0  0  0  0  0  0  0  0  0  0  0  0
  128.2637  127.7207   63.8573 H   0  0  0  0  0  0  0  0  0  0  0  0
  127.0901  126.5565   62.9590 H   0  0  0  0  0  0  0  0  0  0  0  0
  131.3021  125.9612   63.0962 H   0  0  0  0  0  0  0  0  0  0  0  0
  130.4339  127.2591   63.9863 H   0  0  0  0  0  0  0  0  0  0  0  0
  129.1270  125.4714   65.2185 H   0  0  0  0  0  0  0  0  0  0  0  0
  131.7693  124.5869   65.9818 H   0  0  0  0  0  0  0  0  0  0  0  0
  131.6875  126.3918   65.6787 H   0  0  0  0  0  0  0  0  0  0  0  0
  130.9137  125.1341   68.1221 H   0  0  0  0  0  0  0  0  0  0  0  0
  129.7164  126.4675   69.7099 H   0  0  0  0  0  0  0  0  0  0  0  0
  128.4642  127.6209   69.1368 H   0  0  0  0  0  0  0  0  0  0  0  0
  128.1274  125.8565   69.1368 H   0  0  0  0  0  0  0  0  0  0  0  0
  128.1587  128.1748   67.0953 H   0  0  0  0  0  0  0  0  0  0  0  0
  129.5020  127.9135   65.9318 H   0  0  0  0  0  0  0  0  0  0  0  0
  128.0861  126.8082   65.9318 H   0  0  0  0  0  0  0  0  0  0  0  0
  132.0749  123.0386   64.5766 H   0  0  0  0  0  0  0  0  0  0  0  0
  131.2853  122.3745   63.1062 H   0  0  0  0  0  0  0  0  0  0  0  0
  131.9130  124.0576   63.1062 H   0  0  0  0  0  0  0  0  0  0  0  0
  129.6976  123.2279   66.2909 H   0  0  0  0  0  0  0  0  0  0  0  0
  128.3615  122.8129   65.1643 H   0  0  0  0  0  0  0  0  0  0  0  0
  129.8712  121.8396   65.1643 H   0  0  0  0  0  0  0  0  0  0  0  0
  129.8258  120.0358   60.8821 H   0  0  0  0  0  0  0  0  0  0  0  0
  132.0894  119.0192   60.9879 H   0  0  0  0  0  0  0  0  0  0  0  0
  135.0760  120.8820   61.0040 H   0  0  0  0  0  0  0  0  0  0  0  0
  131.5985  123.9426   60.3841 H   0  0  0  0  0  0  0  0  0  0  0  0
  126.8877  125.3739   61.8798 H   0  0  0  0  0  0  0  0  0  0  0  0
  126.0129  126.5091   60.6860 H   0  0  0  0  0  0  0  0  0  0  0  0
  126.1141  123.5852   60.5556 H   0  0  0  0  0  0  0  0  0  0  0  0
  125.1770  122.5339   58.7409 H   0  0  0  0  0  0  0  0  0  0  0  0
  124.6043  123.5357   57.3644 H   0  0  0  0  0  0  0  0  0  0  0  0
  126.2773  122.8818   57.3644 H   0  0  0  0  0  0  0  0  0  0  0  0
  126.1689  126.6638   58.4192 H   0  0  0  0  0  0  0  0  0  0  0  0
  126.9728  125.6601   57.1650 H   0  0  0  0  0  0  0  0  0  0  0  0
  125.1851  125.8357   57.1650 H   0  0  0  0  0  0  0  0  0  0  0  0
  125.6013  128.2956   60.0087 H   0  0  0  0  0  0  0  0  0  0  0  0
  126.5867  129.0537   58.7122 H   0  0  0  0  0  0  0  0  0  0  0  0
  126.3157  127.2780   58.7122 H   0  0  0  0  0  0  0  0  0  0  0  0
  129.4306  129.4009   60.2637 H   0  0  0  0  0  0  0  0  0  0  0  0
  129.4845  128.2629   58.8749 H   0  0  0  0  0  0  0  0  0  0  0  0
  128.3137  129.6252   58.8749 H   0  0  0  0  0  0  0  0  0  0  0  0
  1  2  2  0
  2  3  1  0
  2  4  1  0
  4  5  2  0
  5  6  1  0
  6  7  1  0
  8  7  1  1
  8  9  1  0
  9 10  1  0
 10 11  1  0
 11 12  1  0
 12 13  2  3
 13 14  1  0
 13 15  1  0
 10 16  1  0
 16 17  1  0
 16 18  1  0
 16 19  1  0
 19 20  1  0
 20 21  2  0
 21 22  1  0
 22 23  2  0
 22 24  1  0
 24 25  2  0
 25 26  1  0
 26 27  2  0
 27 28  1  0
 27 29  1  0
 29 30  1  0
 29 31  2  0
 21 32  1  0
 32 33  2  0
 32 34  1  0
 34 35  1  1
 35 36  1  0
 36 37  2  3
 37 38  1  0
 37 39  1  0
 34 40  1  0
 40 41  2  0
 34 42  1  0
 42 43  1  0
 42 44  1  0
 42  6  1  0
 20  8  1  0
 31 24  1  0
 40  8  1  0
  1 45  1  0
  1 46  1  0
  3 47  1  0
  3 48  1  0
  3 49  1  0
  4 50  1  0
  5 51  1  0
  6 52  1  1
  7 53  1  0
  7 54  1  0
  9 55  1  0
  9 56  1  0
 10 57  1  1
 11 58  1  0
 11 59  1  0
 12 60  1  0
 14 61  1  0
 14 62  1  0
 14 63  1  0
 15 64  1  0
 15 65  1  0
 15 66  1  0
 17 67  1  0
 17 68  1  0
 17 69  1  0
 18 70  1  0
 18 71  1  0
 18 72  1  0
 25 73  1  0
 26 74  1  0
 28 75  1  0
 31 76  1  0
 35 77  1  0
 35 78  1  0
 36 79  1  0
 38 80  1  0
 38 81  1  0
 38 82  1  0
 39 83  1  0
 39 84  1  0
 39 85  1  0
 43 86  1  0
 43 87  1  0
 43 88  1  0
 44 89  1  0
 44 90  1  0
 44 91  1  0
M  CHG  1  30  -1
M  END
>  <Binding energies>  (1) 
[-8.2]

>  <Ligand effiencies>  (1) 
[-0.1822222222222222]

>  <Interactions>  (1) 
["V-A:ILE:369:CG2:3237, V-B:PRO:540:CA:9855, V-B:GLU:543:C:9874, V-B:GLU:543:CB:9878, V-B:ALA:541:CB:9864, V-B:ASP:366:CG:8184, V-B:TYR:539:CE2:9848, V-A:TYR:484:CE2:4346, V-B:GLU:543:CG:9879, V-B:TYR:531:CZ:9766, V-A:GLU:543:CD:4908, V-A:TYR:484:CZ:4347, V-B:PRO:540:CB:9857, V-B:GLU:543:CA:9876, V-B:PRO:540:N:9856, V-A:HIS:456:CE1:4070, V-B:PRO:540:CD:9859, V-A:GLU:543:CG:4907, V-B:TYR:539:CD2:9846, H-A:SER:385:OG:3410, V-B:GLU:543:CD:9880, V-A:SER:385:CB:3409, V-A:LEU:475:CD2:4259, H-A:SER:385:O:3406"]

$$$$
ZINC2356402098
     RDKit          3D

100105  0  0  0  0  0  0  0  0999 V2000
  125.3570  131.4980   58.1000 C   0  0  0  0  0  0  0  0  0  0  0  0
  126.7380  131.1980   58.7290 C   0  0  0  0  0  0  0  0  0  0  0  0
  127.8280  132.1370   58.1500 C   0  0  0  0  0  0  0  0  0  0  0  0
  126.5980  131.3630   60.2720 C   0  0  0  0  0  0  0  0  0  0  0  0
  127.8540  130.8750   61.0400 C   0  0  0  0  0  0  0  0  0  0  0  0
  128.2430  129.3900   60.7350 C   0  0  2  0  0  0  0  0  0  0  0  0
  127.1900  128.4370   61.3660 C   0  0  0  0  0  0  0  0  0  0  0  0
  129.6430  129.1180   61.3450 C   0  0  0  0  0  0  0  0  0  0  0  0
  130.2890  127.7650   60.9280 C   0  0  2  0  0  0  0  0  0  0  0  0
  131.5700  127.7450   61.5370 O   0  0  0  0  0  0  0  0  0  0  0  0
  130.3100  127.4660   59.3660 C   0  0  2  0  0  0  0  0  0  0  0  0
  131.3040  128.5180   58.7490 C   0  0  0  0  0  0  0  0  0  0  0  0
  128.8740  127.8010   58.8460 C   0  0  0  0  0  0  0  0  0  0  0  0
  128.1020  126.9130   58.1800 C   0  0  0  0  0  0  0  0  0  0  0  0
  128.4190  125.4730   57.8560 C   0  0  0  0  0  0  0  0  0  0  0  0
  129.5760  124.8970   58.7180 C   0  0  2  0  0  0  0  0  0  0  0  0
  129.1230  123.8920   59.8800 C   0  0  2  0  0  0  0  0  0  0  0  0
  128.4870  122.6440   59.1610 C   0  0  0  0  0  0  0  0  0  0  0  0
  128.0670  124.5570   60.8120 C   0  0  0  0  0  0  0  0  0  0  0  0
  127.6450  123.7140   62.0290 C   0  0  0  0  0  0  0  0  0  0  0  0
  128.8660  123.3320   62.8950 C   0  0  2  0  0  0  0  0  0  0  0  0
  129.3930  124.5090   63.5150 O   0  0  0  0  0  0  0  0  0  0  0  0
  130.1350  124.3310   64.6850 C   0  0  2  0  0  0  0  0  0  0  0  0
  129.4550  124.7680   65.8230 O   0  0  0  0  0  0  0  0  0  0  0  0
  130.3480  125.2730   66.8150 C   0  0  2  0  0  0  0  0  0  0  0  0
  129.8610  126.6870   67.2060 C   0  0  0  0  0  0  0  0  0  0  0  0
  130.7280  127.2740   68.1550 O   0  0  0  0  0  0  0  0  0  0  0  0
  131.7260  125.2040   66.1260 C   0  0  2  0  0  0  0  0  0  0  0  0
  132.6490  126.2120   66.5000 O   0  0  0  0  0  0  0  0  0  0  0  0
  131.4030  125.1800   64.6320 C   0  0  2  0  0  0  0  0  0  0  0  0
  131.1520  126.4580   64.0600 O   0  0  0  0  0  0  0  0  0  0  0  0
  129.9880  122.5790   62.0890 C   0  0  2  0  0  0  0  0  0  0  0  0
  129.4640  121.1600   61.7040 C   0  0  0  0  0  0  0  0  0  0  0  0
  131.2360  122.4230   63.0310 C   0  0  0  0  0  0  0  0  0  0  0  0
  132.4610  122.2410   62.3400 O   0  0  0  0  0  0  0  0  0  0  0  0
  130.3580  123.4250   60.7760 C   0  0  2  0  0  0  0  0  0  0  0  0
  131.3380  124.5980   61.0500 C   0  0  0  0  0  0  0  0  0  0  0  0
  131.8460  125.3150   59.7930 C   0  0  0  0  0  0  0  0  0  0  0  0
  130.7500  125.9560   58.9000 C   0  0  2  0  0  0  0  0  0  0  0  0
  131.4190  126.0280   57.4700 C   0  0  0  0  0  0  0  0  0  0  0  0
  128.3610  129.2240   59.1830 C   0  0  1  0  0  0  0  0  0  0  0  0
  127.0500  129.6940   58.4760 C   0  0  0  0  0  0  0  0  0  0  0  0
  124.6176  131.6586   58.8984 H   0  0  0  0  0  0  0  0  0  0  0  0
  125.4264  132.4020   57.4772 H   0  0  0  0  0  0  0  0  0  0  0  0
  125.0450  130.6467   57.4772 H   0  0  0  0  0  0  0  0  0  0  0  0
  128.3791  132.6117   58.9752 H   0  0  0  0  0  0  0  0  0  0  0  0
  128.5252  131.5522   57.5321 H   0  0  0  0  0  0  0  0  0  0  0  0
  127.3528  132.9131   57.5321 H   0  0  0  0  0  0  0  0  0  0  0  0
  126.4373  132.4272   60.4994 H   0  0  0  0  0  0  0  0  0  0  0  0
  125.7476  130.7458   60.5974 H   0  0  0  0  0  0  0  0  0  0  0  0
  128.7016  131.5194   60.7638 H   0  0  0  0  0  0  0  0  0  0  0  0
  127.6155  130.9301   62.1124 H   0  0  0  0  0  0  0  0  0  0  0  0
  127.2538  128.4947   62.4626 H   0  0  0  0  0  0  0  0  0  0  0  0
  126.1828  128.7368   61.0410 H   0  0  0  0  0  0  0  0  0  0  0  0
  127.3881  127.4050   61.0410 H   0  0  0  0  0  0  0  0  0  0  0  0
  130.3161  129.9291   61.0303 H   0  0  0  0  0  0  0  0  0  0  0  0
  129.4999  129.0682   62.4345 H   0  0  0  0  0  0  0  0  0  0  0  0
  129.6639  126.9326   61.2833 H   0  0  0  0  0  0  0  0  0  0  0  0
  131.4660  127.9460   62.4700 H   0  0  0  0  0  0  0  0  0  0  0  0
  131.8150  129.0588   59.5592 H   0  0  0  0  0  0  0  0  0  0  0  0
  132.0488  127.9985   58.1282 H   0  0  0  0  0  0  0  0  0  0  0  0
  130.7432  129.2322   58.1282 H   0  0  0  0  0  0  0  0  0  0  0  0
  127.1264  127.2841   57.8328 H   0  0  0  0  0  0  0  0  0  0  0  0
  127.5172  124.8678   58.0304 H   0  0  0  0  0  0  0  0  0  0  0  0
  128.7418  125.4357   56.8051 H   0  0  0  0  0  0  0  0  0  0  0  0
  130.1292  124.1171   58.1742 H   0  0  0  0  0  0  0  0  0  0  0  0
  128.1238  121.9314   59.9162 H   0  0  0  0  0  0  0  0  0  0  0  0
  127.6462  122.9722   58.5322 H   0  0  0  0  0  0  0  0  0  0  0  0
  129.2466  122.1565   58.5322 H   0  0  0  0  0  0  0  0  0  0  0  0
  128.4879  125.5033   61.1827 H   0  0  0  0  0  0  0  0  0  0  0  0
  127.1609  124.6887   60.2023 H   0  0  0  0  0  0  0  0  0  0  0  0
  126.9392  124.2952   62.6406 H   0  0  0  0  0  0  0  0  0  0  0  0
  127.1732  122.7893   61.6652 H   0  0  0  0  0  0  0  0  0  0  0  0
  128.5173  122.6238   63.6611 H   0  0  0  0  0  0  0  0  0  0  0  0
  130.3385  123.2518   64.7468 H   0  0  0  0  0  0  0  0  0  0  0  0
  130.3985  124.7213   67.7653 H   0  0  0  0  0  0  0  0  0  0  0  0
  129.8307  127.3191   66.3063 H   0  0  0  0  0  0  0  0  0  0  0  0
  128.8582  126.6032   67.6504 H   0  0  0  0  0  0  0  0  0  0  0  0
  131.4730  127.6600   67.6860 H   0  0  0  0  0  0  0  0  0  0  0  0
  132.2752  124.3073   66.4489 H   0  0  0  0  0  0  0  0  0  0  0  0
  132.1620  126.9490   66.8780 H   0  0  0  0  0  0  0  0  0  0  0  0
  132.2251  124.8100   64.0018 H   0  0  0  0  0  0  0  0  0  0  0  0
  130.6880  126.3350   63.2270 H   0  0  0  0  0  0  0  0  0  0  0  0
  129.2523  120.5867   62.6186 H   0  0  0  0  0  0  0  0  0  0  0  0
  128.5427  121.2578   61.1110 H   0  0  0  0  0  0  0  0  0  0  0  0
  130.2277  120.6355   61.1110 H   0  0  0  0  0  0  0  0  0  0  0  0
  131.3186  123.3295   63.6487 H   0  0  0  0  0  0  0  0  0  0  0  0
  131.0709  121.5156   63.6305 H   0  0  0  0  0  0  0  0  0  0  0  0
  132.3980  121.4410   61.8130 H   0  0  0  0  0  0  0  0  0  0  0  0
  130.8890  122.6841   60.1603 H   0  0  0  0  0  0  0  0  0  0  0  0
  130.8210  125.3364   61.6804 H   0  0  0  0  0  0  0  0  0  0  0  0
  132.2216  124.1580   61.5354 H   0  0  0  0  0  0  0  0  0  0  0  0
  132.5325  126.1130   60.1122 H   0  0  0  0  0  0  0  0  0  0  0  0
  132.3234  124.5399   59.1755 H   0  0  0  0  0  0  0  0  0  0  0  0
  132.5072  126.1451   57.5798 H   0  0  0  0  0  0  0  0  0  0  0  0
  131.2038  125.1015   56.9175 H   0  0  0  0  0  0  0  0  0  0  0  0
  131.0116  126.8875   56.9175 H   0  0  0  0  0  0  0  0  0  0  0  0
  129.1255  129.8936   58.7621 H   0  0  0  0  0  0  0  0  0  0  0  0
  127.1573  129.5340   57.3930 H   0  0  0  0  0  0  0  0  0  0  0  0
  126.2184  129.1071   58.8931 H   0  0  0  0  0  0  0  0  0  0  0  0
  1  2  1  0
  2  3  1  0
  2  4  1  0
  4  5  1  0
  5  6  1  0
  6  7  1  1
  6  8  1  0
  8  9  1  0
  9 10  1  0
  9 11  1  0
 11 12  1  6
 11 13  1  0
 13 14  2  0
 14 15  1  0
 15 16  1  0
 16 17  1  0
 17 18  1  6
 17 19  1  0
 19 20  1  0
 20 21  1  0
 21 22  1  0
 22 23  1  0
 23 24  1  0
 24 25  1  0
 25 26  1  0
 26 27  1  0
 25 28  1  0
 28 29  1  0
 28 30  1  0
 30 31  1  0
 21 32  1  0
 32 33  1  6
 32 34  1  0
 34 35  1  0
 32 36  1  0
 36 37  1  0
 37 38  1  0
 38 39  1  0
 39 40  1  6
 13 41  1  0
 41 42  1  0
 42  2  1  0
 41  6  1  0
 39 11  1  0
 39 16  1  0
 36 17  1  0
 30 23  1  0
  1 43  1  0
  1 44  1  0
  1 45  1  0
  3 46  1  0
  3 47  1  0
  3 48  1  0
  4 49  1  0
  4 50  1  0
  5 51  1  0
  5 52  1  0
  7 53  1  0
  7 54  1  0
  7 55  1  0
  8 56  1  0
  8 57  1  0
  9 58  1  1
 10 59  1  0
 12 60  1  0
 12 61  1  0
 12 62  1  0
 14 63  1  0
 15 64  1  0
 15 65  1  0
 16 66  1  6
 18 67  1  0
 18 68  1  0
 18 69  1  0
 19 70  1  0
 19 71  1  0
 20 72  1  0
 20 73  1  0
 21 74  1  1
 23 75  1  1
 25 76  1  1
 26 77  1  0
 26 78  1  0
 27 79  1  0
 28 80  1  1
 29 81  1  0
 30 82  1  6
 31 83  1  0
 33 84  1  0
 33 85  1  0
 33 86  1  0
 34 87  1  0
 34 88  1  0
 35 89  1  0
 36 90  1  6
 37 91  1  0
 37 92  1  0
 38 93  1  0
 38 94  1  0
 40 95  1  0
 40 96  1  0
 40 97  1  0
 41 98  1  6
 42 99  1  0
 42100  1  0
M  END
>  <Binding energies>  (1) 
[-7.56]

>  <Ligand effiencies>  (1) 
[-0.16085106382978723]

>  <Interactions>  (1) 
["V-B:PRO:540:CA:9855, H-A:GLU:543:OE2:4910, V-B:GLU:543:CB:9878, V-B:ALA:541:CB:9864, V-B:TYR:539:CE2:9848, V-A:TYR:484:CE2:4346, V-B:GLU:543:CG:9879, V-B:TYR:539:C:9839, V-A:ASP:366:CG:3213, V-A:TYR:539:CD1:4873, V-B:TYR:539:CZ:9849, V-A:TYR:539:CZ:4877, V-A:TYR:484:CZ:4347, V-A:GLU:543:CD:4908, V-B:PRO:540:N:9856, V-A:HIS:456:CE1:4070, V-B:TYR:539:CD2:9846, V-A:TYR:531:CZ:4794, V-B:GLU:543:CD:9880, V-A:ASP:366:CB:3212, V-A:LEU:475:CD2:4259, H-A:ARG:545:NH2:4928, H-A:GLU:543:OE1:4909, H-A:ARG:545:NE:4924, H-A:ASP:366:OD2:3215, V-A:TYR:539:CE1:4875, H-A:TYR:484:OH:4348"]

$$$$
ZINC2356402838
     RDKit          3D

 82 85  0  0  0  0  0  0  0  0999 V2000
  133.0540  120.8560   60.6090 C   0  0  0  0  0  0  0  0  0  0  0  0
  131.6170  121.2010   60.9620 C   0  0  0  0  0  0  0  0  0  0  0  0
  130.5940  120.3530   61.2310 C   0  0  0  0  0  0  0  0  0  0  0  0
  129.1960  120.8560   61.6300 C   0  0  0  0  0  0  0  0  0  0  0  0
  129.0250  122.3750   61.8750 C   0  0  0  0  0  0  0  0  0  0  0  0
  129.1520  123.2660   60.6050 C   0  0  2  0  0  0  0  0  0  0  0  0
  128.7230  122.4970   59.3310 C   0  0  0  0  0  0  0  0  0  0  0  0
  130.5520  123.9420   60.3870 C   0  0  2  0  0  0  0  0  0  0  0  0
  131.3550  124.2350   61.6870 C   0  0  0  0  0  0  0  0  0  0  0  0
  131.5470  125.7610   61.7820 C   0  0  0  0  0  0  0  0  0  0  0  0
  130.6510  126.3370   60.6800 C   0  0  1  0  0  0  0  0  0  0  0  0
  130.9210  127.7660   60.1350 C   0  0  2  0  0  0  0  0  0  0  0  0
  130.9200  128.8170   61.2730 C   0  0  0  0  0  0  0  0  0  0  0  0
  131.0660  130.2740   60.7730 C   0  0  2  0  0  0  0  0  0  0  0  0
  131.0110  131.1610   61.8770 O   0  0  0  0  0  0  0  0  0  0  0  0
  130.0320  130.6310   59.6510 C   0  0  1  0  0  0  0  0  0  0  0  0
  128.7210  130.6030   60.2170 O   0  0  0  0  0  0  0  0  0  0  0  0
  130.2150  132.0840   59.1090 C   0  0  0  0  0  0  0  0  0  0  0  0
  129.2480  132.4760   57.9620 C   0  0  1  0  0  0  0  0  0  0  0  0
  129.6180  133.7220   57.4100 O   0  0  0  0  0  0  0  0  0  0  0  0
  129.1360  131.4060   56.8510 C   0  0  0  0  0  0  0  0  0  0  0  0
  129.0000  129.9740   57.4130 C   0  0  0  0  0  0  0  0  0  0  0  0
  130.1080  129.5920   58.4520 C   0  0  1  0  0  0  0  0  0  0  0  0
  131.4980  129.6400   57.7300 C   0  0  0  0  0  0  0  0  0  0  0  0
  129.8550  128.1460   59.0460 C   0  0  1  0  0  0  0  0  0  0  0  0
  129.6400  127.0190   57.9790 C   0  0  0  0  0  0  0  0  0  0  0  0
  129.4830  125.6110   58.6030 C   0  0  0  0  0  0  0  0  0  0  0  0
  130.6550  125.2690   59.5610 C   0  0  2  0  0  0  0  0  0  0  0  0
  131.9960  125.2180   58.7540 C   0  0  0  0  0  0  0  0  0  0  0  0
  130.7360  118.8230   61.1650 C   0  0  0  0  0  0  0  0  0  0  0  0
  131.0430  118.2710   59.7570 C   0  0  0  0  0  0  0  0  0  0  0  0
  129.5300  118.1010   61.7940 C   0  0  0  0  0  0  0  0  0  0  0  0
  133.6351  120.7165   61.5325 H   0  0  0  0  0  0  0  0  0  0  0  0
  133.0740  119.9275   60.0195 H   0  0  0  0  0  0  0  0  0  0  0  0
  133.4933  121.6742   60.0195 H   0  0  0  0  0  0  0  0  0  0  0  0
  131.3765  122.2735   61.0047 H   0  0  0  0  0  0  0  0  0  0  0  0
  128.5018  120.5720   60.8254 H   0  0  0  0  0  0  0  0  0  0  0  0
  128.9997  120.3911   62.6074 H   0  0  0  0  0  0  0  0  0  0  0  0
  128.0279  122.5402   62.3091 H   0  0  0  0  0  0  0  0  0  0  0  0
  129.8474  122.6727   62.5421 H   0  0  0  0  0  0  0  0  0  0  0  0
  128.4574  124.0976   60.7947 H   0  0  0  0  0  0  0  0  0  0  0  0
  128.2058  121.5699   59.6190 H   0  0  0  0  0  0  0  0  0  0  0  0
  128.0449  123.1250   58.7345 H   0  0  0  0  0  0  0  0  0  0  0  0
  129.6136  122.2499   58.7345 H   0  0  0  0  0  0  0  0  0  0  0  0
  130.9711  123.1242   59.7824 H   0  0  0  0  0  0  0  0  0  0  0  0
  130.7968  123.8719   62.5626 H   0  0  0  0  0  0  0  0  0  0  0  0
  132.3287  123.7238   61.6631 H   0  0  0  0  0  0  0  0  0  0  0  0
  131.2331  126.1304   62.7694 H   0  0  0  0  0  0  0  0  0  0  0  0
  132.5995  126.0558   61.6582 H   0  0  0  0  0  0  0  0  0  0  0  0
  129.6690  126.5255   61.1384 H   0  0  0  0  0  0  0  0  0  0  0  0
  131.9205  127.7657   59.6756 H   0  0  0  0  0  0  0  0  0  0  0  0
  129.9715  128.7320   61.8236 H   0  0  0  0  0  0  0  0  0  0  0  0
  131.7934  128.6054   61.9073 H   0  0  0  0  0  0  0  0  0  0  0  0
  132.0501  130.3831   60.2939 H   0  0  0  0  0  0  0  0  0  0  0  0
  130.9560  130.6370   62.6810 H   0  0  0  0  0  0  0  0  0  0  0  0
  128.7940  130.7790   61.1580 H   0  0  0  0  0  0  0  0  0  0  0  0
  130.0574  132.7831   59.9436 H   0  0  0  0  0  0  0  0  0  0  0  0
  131.2303  132.1324   58.6886 H   0  0  0  0  0  0  0  0  0  0  0  0
  128.2490  132.5526   58.4160 H   0  0  0  0  0  0  0  0  0  0  0  0
  129.0960  133.8730   56.6180 H   0  0  0  0  0  0  0  0  0  0  0  0
  128.2511  131.6282   56.2365 H   0  0  0  0  0  0  0  0  0  0  0  0
  130.0626  131.4437   56.2593 H   0  0  0  0  0  0  0  0  0  0  0  0
  128.0197  129.8864   57.9042 H   0  0  0  0  0  0  0  0  0  0  0  0
  129.1092  129.2854   56.5622 H   0  0  0  0  0  0  0  0  0  0  0  0
  132.3008  129.6677   58.4815 H   0  0  0  0  0  0  0  0  0  0  0  0
  131.6155  128.7454   57.1008 H   0  0  0  0  0  0  0  0  0  0  0  0
  131.5535  130.5406   57.1008 H   0  0  0  0  0  0  0  0  0  0  0  0
  128.8798  128.2129   59.5504 H   0  0  0  0  0  0  0  0  0  0  0  0
  128.7309  127.2502   57.4045 H   0  0  0  0  0  0  0  0  0  0  0  0
  130.5365  126.9963   57.3420 H   0  0  0  0  0  0  0  0  0  0  0  0
  128.5398  125.5755   59.1680 H   0  0  0  0  0  0  0  0  0  0  0  0
  129.4839  124.8740   57.7864 H   0  0  0  0  0  0  0  0  0  0  0  0
  132.8441  125.1857   59.4538 H   0  0  0  0  0  0  0  0  0  0  0  0
  132.0088  124.3187   58.1207 H   0  0  0  0  0  0  0  0  0  0  0  0
  132.0771  126.1137   58.1207 H   0  0  0  0  0  0  0  0  0  0  0  0
  131.6264  118.6016   61.7718 H   0  0  0  0  0  0  0  0  0  0  0  0
  131.5759  117.3129   59.8469 H   0  0  0  0  0  0  0  0  0  0  0  0
  130.1011  118.1168   59.2102 H   0  0  0  0  0  0  0  0  0  0  0  0
  131.6709  118.9899   59.2102 H   0  0  0  0  0  0  0  0  0  0  0  0
  129.6063  118.1467   62.8904 H   0  0  0  0  0  0  0  0  0  0  0  0
  128.5998  118.5909   61.4705 H   0  0  0  0  0  0  0  0  0  0  0  0
  129.5225  117.0497   61.4705 H   0  0  0  0  0  0  0  0  0  0  0  0
  1  2  1  0
  2  3  2  0
  3  4  1  0
  4  5  1  0
  5  6  1  0
  6  7  1  0
  6  8  1  0
  8  9  1  0
  9 10  1  0
 10 11  1  0
 11 12  1  0
 12 13  1  0
 13 14  1  0
 14 15  1  0
 14 16  1  0
 16 17  1  1
 16 18  1  0
 18 19  1  0
 19 20  1  0
 19 21  1  0
 21 22  1  0
 22 23  1  0
 23 24  1  6
 23 25  1  0
 25 26  1  0
 26 27  1  0
 27 28  1  0
 28 29  1  6
  3 30  1  0
 30 31  1  0
 30 32  1  0
 28  8  1  0
 28 11  1  0
 25 12  1  0
 23 16  1  0
  1 33  1  0
  1 34  1  0
  1 35  1  0
  2 36  1  0
  4 37  1  0
  4 38  1  0
  5 39  1  0
  5 40  1  0
  6 41  1  1
  7 42  1  0
  7 43  1  0
  7 44  1  0
  8 45  1  6
  9 46  1  0
  9 47  1  0
 10 48  1  0
 10 49  1  0
 11 50  1  1
 12 51  1  6
 13 52  1  0
 13 53  1  0
 14 54  1  6
 15 55  1  0
 17 56  1  0
 18 57  1  0
 18 58  1  0
 19 59  1  1
 20 60  1  0
 21 61  1  0
 21 62  1  0
 22 63  1  0
 22 64  1  0
 24 65  1  0
 24 66  1  0
 24 67  1  0
 25 68  1  1
 26 69  1  0
 26 70  1  0
 27 71  1  0
 27 72  1  0
 29 73  1  0
 29 74  1  0
 29 75  1  0
 30 76  1  0
 31 77  1  0
 31 78  1  0
 31 79  1  0
 32 80  1  0
 32 81  1  0
 32 82  1  0
M  END
>  <Binding energies>  (1) 
[-8.04]

>  <Ligand effiencies>  (1) 
[-0.22971428571428568]

>  <Interactions>  (1) 
["V-A:ILE:369:CG2:3237, V-B:PRO:540:CA:9855, V-B:ALA:541:CB:9864, V-B:TYR:539:CE2:9848, V-A:LEU:475:CG:4257, V-B:TYR:539:C:9839, V-A:ASP:366:CG:3213, V-B:TYR:539:CZ:9849, V-A:LEU:475:CD1:4258, V-B:TYR:539:CB:9843, V-B:PRO:540:N:9856, V-A:PRO:482:CB:4326, V-B:TYR:539:CD2:9846, V-A:TYR:531:CZ:4794, V-A:SER:385:CB:3409, V-A:MET:535:CE:4835, V-A:ASP:366:CB:3212, V-A:LEU:475:CD2:4259, H-A:GLU:543:OE1:4909, V-B:TYR:539:CG:9844, V-A:PRO:540:N:4884, H-A:TYR:539:N:4870, V-A:PRO:482:CG:4327, V-A:PRO:540:CA:4883, V-A:PRO:540:CB:4885, V-B:PRO:540:C:9853, V-B:ALA:541:CA:9862, V-A:HIS:383:NE2:3394"]

$$$$
ZINC2356406367
     RDKit          3D

 37 39  0  0  0  0  0  0  0  0999 V2000
  133.2630  131.6330   61.6450 C   0  0  0  0  0  0  0  0  0  0  0  0
  131.7440  131.4290   61.5440 C   0  0  2  0  0  0  0  0  0  0  0  0
  131.3230  130.0100   61.1900 C   0  0  0  0  0  0  0  0  0  0  0  0
  130.0590  130.2560   60.4080 C   0  0  0  0  0  0  0  0  0  0  0  0
  130.3990  131.4940   59.5500 C   0  0  2  0  0  0  0  0  0  0  0  0
  131.2550  132.2220   60.4590 O   0  0  0  0  0  0  0  0  0  0  0  0
  129.1370  132.4040   59.1650 C   0  0  0  0  0  0  0  0  0  0  0  0
  127.8780  131.5750   58.7800 C   0  0  0  0  0  0  0  0  0  0  0  0
  128.7220  133.3460   60.3290 C   0  0  0  0  0  0  0  0  0  0  0  0
  129.4170  133.3220   57.8910 C   0  0  0  0  0  0  0  0  0  0  0  0
  130.6070  132.9620   56.9430 C   0  0  0  0  0  0  0  0  0  0  0  0
  131.7840  132.5510   57.8360 C   0  0  2  0  0  0  0  0  0  0  0  0
  132.5720  131.4050   58.0060 O   0  0  0  0  0  0  0  0  0  0  0  0
  131.2400  131.1590   58.2720 C   0  0  1  0  0  0  0  0  0  0  0  0
  130.7130  130.0320   57.3400 C   0  0  0  0  0  0  0  0  0  0  0  0
  133.5580  131.6726   62.7040 H   0  0  0  0  0  0  0  0  0  0  0  0
  133.7790  130.7961   61.1517 H   0  0  0  0  0  0  0  0  0  0  0  0
  133.5399  132.5764   61.1517 H   0  0  0  0  0  0  0  0  0  0  0  0
  131.3471  131.6916   62.5357 H   0  0  0  0  0  0  0  0  0  0  0  0
  132.0840  129.5070   60.5753 H   0  0  0  0  0  0  0  0  0  0  0  0
  131.1896  129.3520   62.0613 H   0  0  0  0  0  0  0  0  0  0  0  0
  129.8160  129.3920   59.7721 H   0  0  0  0  0  0  0  0  0  0  0  0
  129.1807  130.4101   61.0521 H   0  0  0  0  0  0  0  0  0  0  0  0
  127.3669  131.2385   59.6941 H   0  0  0  0  0  0  0  0  0  0  0  0
  127.1945  132.2003   58.1868 H   0  0  0  0  0  0  0  0  0  0  0  0
  128.1824  130.7001   58.1868 H   0  0  0  0  0  0  0  0  0  0  0  0
  128.9373  132.8573   61.2907 H   0  0  0  0  0  0  0  0  0  0  0  0
  129.2894  134.2859   60.2602 H   0  0  0  0  0  0  0  0  0  0  0  0
  127.6455  133.5617   60.2602 H   0  0  0  0  0  0  0  0  0  0  0  0
  128.5030  133.3113   57.2790 H   0  0  0  0  0  0  0  0  0  0  0  0
  129.7084  134.2906   58.3233 H   0  0  0  0  0  0  0  0  0  0  0  0
  130.3250  132.1287   56.2826 H   0  0  0  0  0  0  0  0  0  0  0  0
  130.8765  133.8194   56.3087 H   0  0  0  0  0  0  0  0  0  0  0  0
  132.1757  133.5709   57.9638 H   0  0  0  0  0  0  0  0  0  0  0  0
  130.3253  129.2029   57.9502 H   0  0  0  0  0  0  0  0  0  0  0  0
  129.9068  130.4282   56.7052 H   0  0  0  0  0  0  0  0  0  0  0  0
  131.5340  129.6673   56.7052 H   0  0  0  0  0  0  0  0  0  0  0  0
  1  2  1  0
  2  3  1  0
  3  4  1  0
  4  5  1  0
  5  6  1  1
  5  7  1  0
  7  8  1  0
  7  9  1  0
  7 10  1  0
 10 11  1  0
 11 12  1  0
 12 13  1  0
 13 14  1  0
 14 15  1  6
  6  2  1  0
 14 12  1  0
 14  5  1  0
  1 16  1  0
  1 17  1  0
  1 18  1  0
  2 19  1  1
  3 20  1  0
  3 21  1  0
  4 22  1  0
  4 23  1  0
  8 24  1  0
  8 25  1  0
  8 26  1  0
  9 27  1  0
  9 28  1  0
  9 29  1  0
 10 30  1  0
 10 31  1  0
 11 32  1  0
 11 33  1  0
 12 34  1  1
 15 35  1  0
 15 36  1  0
 15 37  1  0
M  END
>  <Binding energies>  (1) 
[-5.45]

>  <Ligand effiencies>  (1) 
[-0.36333333333333334]

>  <Interactions>  (1) 
["V-A:PRO:540:N:4884, V-A:TYR:539:CD1:4873, V-A:TYR:539:CG:4872, V-A:PRO:540:CB:4885, V-A:PRO:540:CA:4883, V-A:ILE:538:CA:4860, V-A:PRO:540:CG:4886, H-A:ALA:541:N:4891, V-A:LEU:363:CD1:3189, V-A:ILE:538:CB:4862, V-A:TYR:539:CA:4869, V-A:TYR:539:C:4867, V-A:PRO:540:CD:4887, V-A:ASN:362:CB:3176"]

$$$$
ZINC2356410392
     RDKit          3D

109114  0  0  0  0  0  0  0  0999 V2000
  126.8410  128.5590   64.1280 C   0  0  0  0  0  0  0  0  0  0  0  0
  126.2820  128.4570   62.8250 O   0  0  0  0  0  0  0  0  0  0  0  0
  126.7590  127.4010   62.0600 C   0  0  2  0  0  0  0  0  0  0  0  0
  127.5820  126.5700   62.8450 O   0  0  0  0  0  0  0  0  0  0  0  0
  128.9510  126.7700   62.5210 C   0  0  2  0  0  0  0  0  0  0  0  0
  129.3990  128.1670   63.0190 C   0  0  0  0  0  0  0  0  0  0  0  0
  129.1450  129.3010   62.3360 C   0  0  0  0  0  0  0  0  0  0  0  0
  128.4080  129.2690   60.9990 C   0  0  1  0  0  0  0  0  0  0  0  0
  127.6330  127.8820   60.8370 C   0  0  2  0  0  0  0  0  0  0  0  0
  126.8310  127.8220   59.4880 C   0  0  0  0  0  0  0  0  0  0  0  0
  126.1320  129.1520   59.0920 C   0  0  0  0  0  0  0  0  0  0  0  0
  127.1430  130.3410   59.0490 C   0  0  1  0  0  0  0  0  0  0  0  0
  128.2740  130.0020   58.0050 C   0  0  0  0  0  0  0  0  0  0  0  0
  126.6070  131.7750   58.7000 C   0  0  2  0  0  0  0  0  0  0  0  0
  126.3080  132.1750   57.2120 C   0  0  2  0  0  0  0  0  0  0  0  0
  125.5870  131.0140   56.4790 C   0  0  0  0  0  0  0  0  0  0  0  0
  127.5620  132.6220   56.4160 C   0  0  0  0  0  0  0  0  0  0  0  0
  128.8920  132.2770   57.0660 C   0  0  0  0  0  0  0  0  0  0  0  0
  130.0720  132.8280   56.7250 C   0  0  0  0  0  0  0  0  0  0  0  0
  131.4480  132.5390   57.3380 C   0  0  0  0  0  0  0  0  0  0  0  0
  132.4900  133.6490   57.0680 C   0  0  0  0  0  0  0  0  0  0  0  0
  131.3340  132.3340   58.8660 C   0  0  0  0  0  0  0  0  0  0  0  0
  132.0420  131.3770   56.7410 O   0  0  0  0  0  0  0  0  0  0  0  0
  132.6320  130.3850   57.5810 C   0  0  0  0  0  0  0  0  0  0  0  0
  127.6830  132.6960   59.3620 C   0  0  0  0  0  0  0  0  0  0  0  0
  128.4840  131.8350   60.3650 C   0  0  0  0  0  0  0  0  0  0  0  0
  127.6380  130.5580   60.5330 C   0  0  2  0  0  0  0  0  0  0  0  0
  126.5300  130.9510   61.5750 C   0  0  0  0  0  0  0  0  0  0  0  0
  128.7190  126.7810   60.9820 C   0  0  2  0  0  0  0  0  0  0  0  0
  128.3750  125.3870   60.3780 C   0  0  0  0  0  0  0  0  0  0  0  0
  129.3380  124.2940   60.8580 C   0  0  0  0  0  0  0  0  0  0  0  0
  129.3460  124.2440   62.4040 C   0  0  1  0  0  0  0  0  0  0  0  0
  130.1520  123.1350   62.8340 O   0  0  0  0  0  0  0  0  0  0  0  0
  131.1060  122.5910   61.9570 C   0  0  1  0  0  0  0  0  0  0  0  0
  132.3880  122.5960   62.5460 O   0  0  0  0  0  0  0  0  0  0  0  0
  133.4540  122.1660   61.6890 C   0  0  2  0  0  0  0  0  0  0  0  0
  133.7490  123.1880   60.5580 C   0  0  0  0  0  0  0  0  0  0  0  0
  133.0460  124.4010   60.7440 O   0  0  0  0  0  0  0  0  0  0  0  0
  133.1950  120.7030   61.2500 C   0  0  2  0  0  0  0  0  0  0  0  0
  134.2370  120.1750   60.4460 O   0  0  0  0  0  0  0  0  0  0  0  0
  131.8040  120.5580   60.5990 C   0  0  1  0  0  0  0  0  0  0  0  0
  131.5160  119.2050   60.2860 O   0  0  0  0  0  0  0  0  0  0  0  0
  130.7060  121.1660   61.5080 C   0  0  2  0  0  0  0  0  0  0  0  0
  129.4470  121.1780   60.8560 O   0  0  0  0  0  0  0  0  0  0  0  0
  129.8440  125.5860   63.0560 C   0  0  0  0  0  0  0  0  0  0  0  0
  131.3430  125.7980   62.7030 C   0  0  0  0  0  0  0  0  0  0  0  0
  129.6950  125.4210   64.5920 C   0  0  0  0  0  0  0  0  0  0  0  0
  126.0500  128.4147   64.8787 H   0  0  0  0  0  0  0  0  0  0  0  0
  127.6140  127.7871   64.2568 H   0  0  0  0  0  0  0  0  0  0  0  0
  127.2916  129.5542   64.2568 H   0  0  0  0  0  0  0  0  0  0  0  0
  125.8709  126.8696   61.6874 H   0  0  0  0  0  0  0  0  0  0  0  0
  129.9475  128.2364   63.9700 H   0  0  0  0  0  0  0  0  0  0  0  0
  129.4743  130.2660   62.7488 H   0  0  0  0  0  0  0  0  0  0  0  0
  129.1969  129.3132   60.2337 H   0  0  0  0  0  0  0  0  0  0  0  0
  127.5310  127.5497   58.6844 H   0  0  0  0  0  0  0  0  0  0  0  0
  126.0315  127.0805   59.6330 H   0  0  0  0  0  0  0  0  0  0  0  0
  125.6770  129.0340   58.0975 H   0  0  0  0  0  0  0  0  0  0  0  0
  125.3668  129.3777   59.8494 H   0  0  0  0  0  0  0  0  0  0  0  0
  129.1952  129.7259   58.5391 H   0  0  0  0  0  0  0  0  0  0  0  0
  127.9502  129.1614   57.3737 H   0  0  0  0  0  0  0  0  0  0  0  0
  128.4660  130.8821   57.3737 H   0  0  0  0  0  0  0  0  0  0  0  0
  125.5752  131.8602   59.0717 H   0  0  0  0  0  0  0  0  0  0  0  0
  125.6505  133.0557   57.2585 H   0  0  0  0  0  0  0  0  0  0  0  0
  125.1579  130.3231   57.2196 H   0  0  0  0  0  0  0  0  0  0  0  0
  124.7828  131.4215   55.8487 H   0  0  0  0  0  0  0  0  0  0  0  0
  126.3088  130.4739   55.8487 H   0  0  0  0  0  0  0  0  0  0  0  0
  127.5294  132.1389   55.4283 H   0  0  0  0  0  0  0  0  0  0  0  0
  127.5196  133.7201   56.3666 H   0  0  0  0  0  0  0  0  0  0  0  0
  128.8902  131.5260   57.8697 H   0  0  0  0  0  0  0  0  0  0  0  0
  130.0465  133.5705   55.9138 H   0  0  0  0  0  0  0  0  0  0  0  0
  132.8610  134.0443   58.0251 H   0  0  0  0  0  0  0  0  0  0  0  0
  133.3300  133.2315   56.4934 H   0  0  0  0  0  0  0  0  0  0  0  0
  132.0203  134.4609   56.4934 H   0  0  0  0  0  0  0  0  0  0  0  0
  131.8052  133.1813   59.3858 H   0  0  0  0  0  0  0  0  0  0  0  0
  130.2729  132.2739   59.1497 H   0  0  0  0  0  0  0  0  0  0  0  0
  131.8428  131.4009   59.1497 H   0  0  0  0  0  0  0  0  0  0  0  0
  132.4716  130.6547   58.6353 H   0  0  0  0  0  0  0  0  0  0  0  0
  132.1676  129.4088   57.3775 H   0  0  0  0  0  0  0  0  0  0  0  0
  133.7115  130.3271   57.3775 H   0  0  0  0  0  0  0  0  0  0  0  0
  128.3571  133.0985   58.5916 H   0  0  0  0  0  0  0  0  0  0  0  0
  127.2031  133.5415   59.8766 H   0  0  0  0  0  0  0  0  0  0  0  0
  129.4789  131.5930   59.9629 H   0  0  0  0  0  0  0  0  0  0  0  0
  128.6557  132.3535   61.3198 H   0  0  0  0  0  0  0  0  0  0  0  0
  126.9197  130.8128   62.5943 H   0  0  0  0  0  0  0  0  0  0  0  0
  126.2475  132.0042   61.4302 H   0  0  0  0  0  0  0  0  0  0  0  0
  125.6470  130.3112   61.4302 H   0  0  0  0  0  0  0  0  0  0  0  0
  129.6182  127.0063   60.3898 H   0  0  0  0  0  0  0  0  0  0  0  0
  127.3521  125.1141   60.6768 H   0  0  0  0  0  0  0  0  0  0  0  0
  128.4663  125.4610   59.2843 H   0  0  0  0  0  0  0  0  0  0  0  0
  129.0116  123.3207   60.4629 H   0  0  0  0  0  0  0  0  0  0  0  0
  130.3522  124.5197   60.4969 H   0  0  0  0  0  0  0  0  0  0  0  0
  128.3085  124.1088   62.7437 H   0  0  0  0  0  0  0  0  0  0  0  0
  131.1404  123.2254   61.0590 H   0  0  0  0  0  0  0  0  0  0  0  0
  134.4076  122.1477   62.2369 H   0  0  0  0  0  0  0  0  0  0  0  0
  134.8280  123.4013   60.5445 H   0  0  0  0  0  0  0  0  0  0  0  0
  133.4190  122.7463   59.6061 H   0  0  0  0  0  0  0  0  0  0  0  0
  132.3740  124.2640   61.4170 H   0  0  0  0  0  0  0  0  0  0  0  0
  133.1947  120.0861   62.1607 H   0  0  0  0  0  0  0  0  0  0  0  0
  133.9540  120.1940   59.5280 H   0  0  0  0  0  0  0  0  0  0  0  0
  131.8159  121.1194   59.6531 H   0  0  0  0  0  0  0  0  0  0  0  0
  131.9890  118.6440   60.9060 H   0  0  0  0  0  0  0  0  0  0  0  0
  130.6124  120.5310   62.4013 H   0  0  0  0  0  0  0  0  0  0  0  0
  129.4190  120.4510   60.2300 H   0  0  0  0  0  0  0  0  0  0  0  0
  131.9297  125.8810   63.6297 H   0  0  0  0  0  0  0  0  0  0  0  0
  131.7058  124.9422   62.1147 H   0  0  0  0  0  0  0  0  0  0  0  0
  131.4542  126.7208   62.1147 H   0  0  0  0  0  0  0  0  0  0  0  0
  130.3477  126.1438   65.1034 H   0  0  0  0  0  0  0  0  0  0  0  0
  128.6493  125.6031   64.8806 H   0  0  0  0  0  0  0  0  0  0  0  0
  129.9824  124.3992   64.8806 H   0  0  0  0  0  0  0  0  0  0  0  0
  1  2  1  0
  2  3  1  0
  3  4  1  0
  5  4  1  1
  5  6  1  0
  6  7  2  0
  7  8  1  0
  8  9  1  0
  9 10  1  6
 10 11  1  0
 11 12  1  0
 12 13  1  6
 12 14  1  0
 14 15  1  0
 15 16  1  0
 15 17  1  0
 17 18  1  0
 18 19  2  0
 19 20  1  0
 20 21  1  0
 20 22  1  0
 20 23  1  0
 23 24  1  0
 14 25  1  0
 25 26  1  0
 26 27  1  0
 27 28  1  1
  9 29  1  0
 29 30  1  0
 30 31  1  0
 31 32  1  0
 32 33  1  0
 33 34  1  0
 34 35  1  0
 35 36  1  0
 36 37  1  0
 37 38  1  0
 36 39  1  0
 39 40  1  0
 39 41  1  0
 41 42  1  0
 41 43  1  0
 43 44  1  0
 32 45  1  0
 45 46  1  0
 45 47  1  0
  9  3  1  0
 27 12  1  0
 43 34  1  0
 29  5  1  0
 45  5  1  0
 27  8  1  0
  1 48  1  0
  1 49  1  0
  1 50  1  0
  3 51  1  6
  6 52  1  0
  7 53  1  0
  8 54  1  6
 10 55  1  0
 10 56  1  0
 11 57  1  0
 11 58  1  0
 13 59  1  0
 13 60  1  0
 13 61  1  0
 14 62  1  1
 15 63  1  1
 16 64  1  0
 16 65  1  0
 16 66  1  0
 17 67  1  0
 17 68  1  0
 18 69  1  0
 19 70  1  0
 21 71  1  0
 21 72  1  0
 21 73  1  0
 22 74  1  0
 22 75  1  0
 22 76  1  0
 24 77  1  0
 24 78  1  0
 24 79  1  0
 25 80  1  0
 25 81  1  0
 26 82  1  0
 26 83  1  0
 28 84  1  0
 28 85  1  0
 28 86  1  0
 29 87  1  6
 30 88  1  0
 30 89  1  0
 31 90  1  0
 31 91  1  0
 32 92  1  1
 34 93  1  6
 36 94  1  1
 37 95  1  0
 37 96  1  0
 38 97  1  0
 39 98  1  1
 40 99  1  0
 41100  1  6
 42101  1  0
 43102  1  1
 44103  1  0
 46104  1  0
 46105  1  0
 46106  1  0
 47107  1  0
 47108  1  0
 47109  1  0
M  END
>  <Binding energies>  (1) 
[-2.17]

>  <Ligand effiencies>  (1) 
[-0.04254901960784314]

>  <Interactions>  (1) 
["V-A:ILE:369:CG2:3237, V-A:PRO:540:CG:4886, V-B:TYR:531:CE1:9764, V-A:ILE:369:CB:3236, V-A:ILE:538:CB:4862, V-B:ASP:366:CG:8184, H-A:TYR:531:OH:4795, V-B:TYR:539:CE2:9848, V-B:GLU:543:CG:9879, V-A:TYR:539:CE2:4876, V-A:ILE:538:CG2:4863, V-A:TYR:539:CD1:4873, V-A:LEU:363:CD1:3189, V-A:ILE:538:CA:4860, V-A:TYR:539:CZ:4877, V-A:TYR:531:CE2:4793, V-B:TYR:531:CZ:9766, V-A:GLU:543:CD:4908, V-A:ILE:369:CD1:3239, V-B:TYR:539:CD2:9846, V-A:TYR:531:CZ:4794, V-A:SER:385:CB:3409, H-A:SER:385:OG:3410, V-B:GLU:543:CD:9880, V-A:MET:535:CE:4835, V-A:ASP:366:CB:3212, V-A:LEU:475:CD2:4259, H-B:ARG:545:NH2:9900, H-A:HIS:383:HE2:3395, V-A:PRO:540:N:4884, V-A:TYR:539:CG:4872, V-A:PRO:540:CB:4885, V-A:PRO:540:CA:4883, H-B:TYR:539:O:9840, V-A:TYR:539:CD2:4874, V-A:SER:385:CA:3407, V-A:PRO:540:CD:4887, V-A:TYR:539:CE1:4875"]

$$$$
ZINC2356414017-again1
     RDKit          3D

 46 49  0  0  0  0  0  0  0  0999 V2000
  134.3270  123.6430   57.4070 O   0  0  0  0  0  0  0  0  0  0  0  0
  133.7350  124.3000   58.2600 C   0  0  0  0  0  0  0  0  0  0  0  0
  134.0370  124.3350   59.7680 C   0  0  0  0  0  0  0  0  0  0  0  0
  132.7440  124.3320   60.6180 C   0  0  2  0  0  0  0  0  0  0  0  0
  132.1150  122.9370   60.7560 C   0  0  0  0  0  0  0  0  0  0  0  0
  132.8870  121.7680   60.8050 C   0  0  0  0  0  0  0  0  0  0  0  0
  132.2760  120.5190   60.9070 C   0  0  0  0  0  0  0  0  0  0  0  0
  130.8850  120.4180   60.9550 C   0  0  0  0  0  0  0  0  0  0  0  0
  130.3080  119.1770   61.0520 O   0  0  0  0  0  0  0  0  0  0  0  0
  130.1030  121.5790   60.9030 C   0  0  0  0  0  0  0  0  0  0  0  0
  128.7320  121.5120   60.9430 O   0  0  0  0  0  0  0  0  0  0  0  0
  130.7200  122.8270   60.8040 C   0  0  0  0  0  0  0  0  0  0  0  0
  131.7940  125.4280   60.1080 C   0  0  0  0  0  0  0  0  0  0  0  0
  130.8720  126.1240   60.9180 C   0  0  0  0  0  0  0  0  0  0  0  0
  130.7380  125.7920   62.3580 C   0  0  0  0  0  0  0  0  0  0  0  0
  130.0530  126.4860   63.2920 C   0  0  0  0  0  0  0  0  0  0  0  0
  129.9060  126.1360   64.7230 C   0  0  0  0  0  0  0  0  0  0  0  0
  130.5370  125.0230   65.2970 C   0  0  0  0  0  0  0  0  0  0  0  0
  130.3730  124.7400   66.6510 C   0  0  0  0  0  0  0  0  0  0  0  0
  129.5790  125.5690   67.4400 C   0  0  0  0  0  0  0  0  0  0  0  0
  129.4220  125.2920   68.7720 O   0  0  0  0  0  0  0  0  0  0  0  0
  128.9450  126.6760   66.8830 C   0  0  0  0  0  0  0  0  0  0  0  0
  129.1090  126.9570   65.5290 C   0  0  0  0  0  0  0  0  0  0  0  0
  130.0820  127.1350   60.3470 C   0  0  0  0  0  0  0  0  0  0  0  0
  130.1770  127.4450   58.9880 C   0  0  0  0  0  0  0  0  0  0  0  0
  129.4470  128.3570   58.4860 O   0  0  0  0  0  0  0  0  0  0  0  0
  131.0650  126.7360   58.1800 C   0  0  0  0  0  0  0  0  0  0  0  0
  131.8650  125.7410   58.7360 C   0  0  0  0  0  0  0  0  0  0  0  0
  132.6610  125.0410   57.8440 O   0  0  0  0  0  0  0  0  0  0  0  0
  134.6368  123.4512   60.0307 H   0  0  0  0  0  0  0  0  0  0  0  0
  134.5834  125.2650   59.9837 H   0  0  0  0  0  0  0  0  0  0  0  0
  132.9960  124.5859   61.6582 H   0  0  0  0  0  0  0  0  0  0  0  0
  133.9840  121.8367   60.7626 H   0  0  0  0  0  0  0  0  0  0  0  0
  132.8930  119.6093   60.9498 H   0  0  0  0  0  0  0  0  0  0  0  0
  129.3540  119.1990   60.9530 H   0  0  0  0  0  0  0  0  0  0  0  0
  128.3970  120.6150   60.8840 H   0  0  0  0  0  0  0  0  0  0  0  0
  130.1022  123.7362   60.7631 H   0  0  0  0  0  0  0  0  0  0  0  0
  131.2522  124.8823   62.7017 H   0  0  0  0  0  0  0  0  0  0  0  0
  129.5528  127.4059   62.9550 H   0  0  0  0  0  0  0  0  0  0  0  0
  131.1654  124.3694   64.6742 H   0  0  0  0  0  0  0  0  0  0  0  0
  130.8689  123.8646   67.0957 H   0  0  0  0  0  0  0  0  0  0  0  0
  129.0390  124.4260   68.9310 H   0  0  0  0  0  0  0  0  0  0  0  0
  128.3170  127.3262   67.5098 H   0  0  0  0  0  0  0  0  0  0  0  0
  128.6078  127.8318   65.0891 H   0  0  0  0  0  0  0  0  0  0  0  0
  129.3763  127.6924   60.9806 H   0  0  0  0  0  0  0  0  0  0  0  0
  131.1335  126.9621   57.1057 H   0  0  0  0  0  0  0  0  0  0  0  0
  1  2  2  0
  2  3  1  0
  3  4  1  0
  4  5  1  0
  5  6  2  0
  6  7  1  0
  7  8  2  0
  8  9  1  0
  8 10  1  0
 10 11  1  0
 10 12  2  0
  4 13  1  0
 13 14  2  0
 14 15  1  0
 15 16  2  0
 16 17  1  0
 17 18  2  0
 18 19  1  0
 19 20  2  0
 20 21  1  0
 20 22  1  0
 22 23  2  0
 14 24  1  0
 24 25  2  0
 25 26  1  0
 25 27  1  0
 27 28  2  0
 28 29  1  0
 29  2  1  0
 12  5  1  0
 28 13  1  0
 23 17  1  0
  3 30  1  0
  3 31  1  0
  4 32  1  1
  6 33  1  0
  7 34  1  0
  9 35  1  0
 11 36  1  0
 12 37  1  0
 15 38  1  0
 16 39  1  0
 18 40  1  0
 19 41  1  0
 21 42  1  0
 22 43  1  0
 23 44  1  0
 24 45  1  0
 27 46  1  0
M  CHG  1  26  -1
M  END
>  <Binding energies>  (1) 
[-6.61]

>  <Ligand effiencies>  (1) 
[-0.2065625]

>  <Interactions>  (1) 
["V-A:ILE:369:CG2:3237, V-A:ASP:366:CA:3210, V-A:ILE:369:CB:3236, H-B:GLU:543:O:9875, V-B:GLU:543:CB:9878, V-B:TYR:539:CE2:9848, V-A:TYR:484:CE2:4346, V-B:GLU:543:CG:9879, V-A:ASP:366:CG:3213, V-B:TYR:539:CZ:9849, H-A:ASN:370:N:3244, H-B:TYR:539:OH:9850, H-B:ALA:541:N:9863, V-A:GLU:543:CD:4908, V-A:TYR:484:CZ:4347, V-B:GLU:543:CA:9876, V-A:ILE:369:CD1:3239, V-A:HIS:456:CE1:4070, V-A:ASP:366:C:3208, V-B:TYR:539:CD2:9846, V-A:SER:385:CB:3409, V-B:GLU:543:CD:9880, V-A:ASP:366:CB:3212, V-A:LEU:475:CD2:4259, H-B:TYR:539:O:9840, H-A:HIS:456:NE2:4071, H-B:PRO:540:O:9854"]

$$$$
ZINC2356418528
     RDKit          3D

 95102  0  0  0  0  0  0  0  0999 V2000
  134.5600  120.1930   60.1980 C   0  0  0  0  0  0  0  0  0  0  0  0
  133.9260  120.3840   61.4590 O   0  0  0  0  0  0  0  0  0  0  0  0
  132.6110  120.8180   61.5030 C   0  0  0  0  0  0  0  0  0  0  0  0
  132.2350  122.1430   61.7520 C   0  0  0  0  0  0  0  0  0  0  0  0
  130.8940  122.5450   61.7850 C   0  0  0  0  0  0  0  0  0  0  0  0
  129.8770  121.5770   61.5440 C   0  0  0  0  0  0  0  0  0  0  0  0
  130.2580  120.2380   61.3230 C   0  0  0  0  0  0  0  0  0  0  0  0
  129.3040  119.2700   61.1070 O   0  0  0  0  0  0  0  0  0  0  0  0
  129.4150  118.1400   61.9640 C   0  0  0  0  0  0  0  0  0  0  0  0
  131.6100  119.8720   61.2880 C   0  0  0  0  0  0  0  0  0  0  0  0
  131.9590  118.5680   61.0340 O   0  0  0  0  0  0  0  0  0  0  0  0
  128.3660  121.8990   61.5390 C   0  0  0  0  0  0  0  0  0  0  0  0
  128.0060  123.0350   60.6810 C   0  0  0  0  0  0  0  0  0  0  0  0
  127.9890  124.1420   60.1550 C   0  0  0  0  0  0  0  0  0  0  0  0
  128.3290  125.5260   59.7740 C   0  0  1  0  0  0  0  0  0  0  0  0
  127.0450  126.4030   60.0950 C   0  0  0  0  0  0  0  0  0  0  0  0
  127.0180  127.6470   59.2150 C   0  0  0  0  0  0  0  0  0  0  0  0
  126.4860  129.0410   59.5270 C   0  0  1  0  0  0  0  0  0  0  0  0
  126.7350  129.5530   60.9820 C   0  0  0  0  0  0  0  0  0  0  0  0
  128.1480  130.0790   61.3760 C   0  0  1  0  0  0  0  0  0  0  0  0
  128.1500  130.6450   62.7950 C   0  0  0  0  0  0  0  0  0  0  0  0
  127.8970  132.0030   63.0220 C   0  0  0  0  0  0  0  0  0  0  0  0
  127.9980  132.5500   64.2970 C   0  0  0  0  0  0  0  0  0  0  0  0
  127.7530  133.8820   64.4990 O   0  0  0  0  0  0  0  0  0  0  0  0
  128.3740  131.7410   65.3640 C   0  0  0  0  0  0  0  0  0  0  0  0
  128.6220  130.3870   65.1550 C   0  0  0  0  0  0  0  0  0  0  0  0
  128.4800  129.8030   63.8840 C   0  0  0  0  0  0  0  0  0  0  0  0
  128.7200  128.3290   63.6270 C   0  0  0  0  0  0  0  0  0  0  0  0
  128.5190  127.3440   64.6210 C   0  0  0  0  0  0  0  0  0  0  0  0
  128.0100  127.7240   65.8520 O   0  0  0  0  0  0  0  0  0  0  0  0
  128.8600  127.8130   66.9940 C   0  0  0  0  0  0  0  0  0  0  0  0
  128.1510  127.1370   68.1750 C   0  0  0  0  0  0  0  0  0  0  0  0
  126.7620  127.3940   68.1390 O   0  0  0  0  0  0  0  0  0  0  0  0
  128.8140  126.0070   64.3290 C   0  0  0  0  0  0  0  0  0  0  0  0
  129.2250  125.6380   63.0610 C   0  0  0  0  0  0  0  0  0  0  0  0
  129.3140  126.5690   62.0200 C   0  0  0  0  0  0  0  0  0  0  0  0
  129.1180  127.9380   62.3200 C   0  0  0  0  0  0  0  0  0  0  0  0
  129.3040  129.0450   61.2670 C   0  0  2  0  0  0  0  0  0  0  0  0
  130.7270  129.6530   61.3610 C   0  0  0  0  0  0  0  0  0  0  0  0
  131.7090  128.6510   61.5340 O   0  0  0  0  0  0  0  0  0  0  0  0
  129.6140  126.0040   60.6140 C   0  0  1  0  0  0  0  0  0  0  0  0
  130.7760  124.9500   60.7760 C   0  0  1  0  0  0  0  0  0  0  0  0
  132.0350  125.6050   60.7640 O   0  0  0  0  0  0  0  0  0  0  0  0
  130.6540  124.0480   62.0590 C   0  0  1  0  0  0  0  0  0  0  0  0
  129.5020  124.3010   62.8750 O   0  0  0  0  0  0  0  0  0  0  0  0
  127.0040  129.9770   58.3610 C   0  0  2  0  0  0  0  0  0  0  0  0
  126.3210  131.3590   58.4250 C   0  0  0  0  0  0  0  0  0  0  0  0
  126.9200  129.3850   56.8910 C   0  0  0  0  0  0  0  0  0  0  0  0
  127.2010  127.8450   56.6470 C   0  0  0  0  0  0  0  0  0  0  0  0
  128.9240  127.1850   56.8430 S   0  0  0  0  0  0  0  0  0  0  0  0
  128.9220  125.4290   57.9920 S   0  0  0  0  0  0  0  0  0  0  0  0
  135.6024  119.8790   60.3555 H   0  0  0  0  0  0  0  0  0  0  0  0
  134.0246  119.4163   59.6323 H   0  0  0  0  0  0  0  0  0  0  0  0
  134.5427  121.1362   59.6323 H   0  0  0  0  0  0  0  0  0  0  0  0
  133.0194  122.8939   61.9277 H   0  0  0  0  0  0  0  0  0  0  0  0
  129.3825  118.4705   63.0127 H   0  0  0  0  0  0  0  0  0  0  0  0
  128.5803  117.4500   61.7710 H   0  0  0  0  0  0  0  0  0  0  0  0
  130.3680  117.6256   61.7710 H   0  0  0  0  0  0  0  0  0  0  0  0
  131.7450  117.9840   61.7660 H   0  0  0  0  0  0  0  0  0  0  0  0
  127.8230  121.0105   61.1843 H   0  0  0  0  0  0  0  0  0  0  0  0
  128.0934  122.1753   62.5683 H   0  0  0  0  0  0  0  0  0  0  0  0
  126.1412  125.8053   59.9056 H   0  0  0  0  0  0  0  0  0  0  0  0
  127.0790  126.7128   61.1499 H   0  0  0  0  0  0  0  0  0  0  0  0
  128.0718  127.8124   58.9463 H   0  0  0  0  0  0  0  0  0  0  0  0
  126.2187  127.3299   58.5290 H   0  0  0  0  0  0  0  0  0  0  0  0
  125.3861  129.0348   59.5405 H   0  0  0  0  0  0  0  0  0  0  0  0
  126.0262  130.3756   61.1580 H   0  0  0  0  0  0  0  0  0  0  0  0
  126.6124  128.6508   61.5993 H   0  0  0  0  0  0  0  0  0  0  0  0
  128.3480  130.8599   60.6275 H   0  0  0  0  0  0  0  0  0  0  0  0
  127.6135  132.6486   62.1777 H   0  0  0  0  0  0  0  0  0  0  0  0
  127.4300  134.0740   65.3830 H   0  0  0  0  0  0  0  0  0  0  0  0
  128.4753  132.1703   66.3717 H   0  0  0  0  0  0  0  0  0  0  0  0
  128.9359  129.7605   66.0029 H   0  0  0  0  0  0  0  0  0  0  0  0
  129.8124  127.3019   66.7897 H   0  0  0  0  0  0  0  0  0  0  0  0
  129.0693  128.8668   67.2299 H   0  0  0  0  0  0  0  0  0  0  0  0
  128.3185  126.0511   68.1228 H   0  0  0  0  0  0  0  0  0  0  0  0
  128.5609  127.5425   69.1118 H   0  0  0  0  0  0  0  0  0  0  0  0
  126.4730  127.3770   67.2230 H   0  0  0  0  0  0  0  0  0  0  0  0
  128.7181  125.2433   65.1149 H   0  0  0  0  0  0  0  0  0  0  0  0
  129.2374  128.6244   60.2528 H   0  0  0  0  0  0  0  0  0  0  0  0
  130.9408  130.2067   60.4349 H   0  0  0  0  0  0  0  0  0  0  0  0
  130.7592  130.3216   62.2339 H   0  0  0  0  0  0  0  0  0  0  0  0
  131.5650  128.2260   62.3830 H   0  0  0  0  0  0  0  0  0  0  0  0
  129.9598  126.8123   59.9530 H   0  0  0  0  0  0  0  0  0  0  0  0
  130.6871  124.2704   59.9156 H   0  0  0  0  0  0  0  0  0  0  0  0
  131.8920  126.5460   60.8890 H   0  0  0  0  0  0  0  0  0  0  0  0
  131.4968  124.3761   62.6851 H   0  0  0  0  0  0  0  0  0  0  0  0
  128.0830  130.0672   58.5550 H   0  0  0  0  0  0  0  0  0  0  0  0
  126.1777  131.6489   59.4764 H   0  0  0  0  0  0  0  0  0  0  0  0
  126.9543  132.1046   57.9221 H   0  0  0  0  0  0  0  0  0  0  0  0
  125.3440  131.3088   57.9221 H   0  0  0  0  0  0  0  0  0  0  0  0
  125.9025  129.5855   56.5242 H   0  0  0  0  0  0  0  0  0  0  0  0
  127.7494  129.8825   56.3671 H   0  0  0  0  0  0  0  0  0  0  0  0
  126.5640  127.2887   57.3504 H   0  0  0  0  0  0  0  0  0  0  0  0
  126.9957  127.7130   55.5744 H   0  0  0  0  0  0  0  0  0  0  0  0
  1  2  1  0
  2  3  1  0
  3  4  2  0
  4  5  1  0
  5  6  2  0
  6  7  1  0
  7  8  1  0
  8  9  1  0
  7 10  2  0
 10 11  1  0
  6 12  1  0
 12 13  1  0
 13 14  3  0
 15 14  1  1
 15 16  1  0
 16 17  1  0
 17 18  1  0
 18 19  1  0
 19 20  1  0
 20 21  1  0
 21 22  2  0
 22 23  1  0
 23 24  1  0
 23 25  2  0
 25 26  1  0
 26 27  2  0
 27 28  1  0
 28 29  2  0
 29 30  1  0
 30 31  1  0
 31 32  1  0
 32 33  1  0
 29 34  1  0
 34 35  2  0
 35 36  1  0
 36 37  2  0
 37 38  1  0
 38 39  1  0
 39 40  1  0
 36 41  1  0
 41 42  1  0
 42 43  1  0
 42 44  1  0
 44 45  1  0
 18 46  1  0
 46 47  1  0
 46 48  1  0
 48 49  1  0
 49 50  1  0
 50 51  1  0
 10  3  1  0
 41 15  1  0
 44  5  1  0
 51 15  1  0
 38 20  1  0
 27 21  1  0
 37 28  1  0
 45 35  1  0
  1 52  1  0
  1 53  1  0
  1 54  1  0
  4 55  1  0
  9 56  1  0
  9 57  1  0
  9 58  1  0
 11 59  1  0
 12 60  1  0
 12 61  1  0
 16 62  1  0
 16 63  1  0
 17 64  1  0
 17 65  1  0
 18 66  1  6
 19 67  1  0
 19 68  1  0
 20 69  1  6
 22 70  1  0
 24 71  1  0
 25 72  1  0
 26 73  1  0
 31 74  1  0
 31 75  1  0
 32 76  1  0
 32 77  1  0
 33 78  1  0
 34 79  1  0
 38 80  1  6
 39 81  1  0
 39 82  1  0
 40 83  1  0
 41 84  1  6
 42 85  1  6
 43 86  1  0
 44 87  1  1
 46 88  1  1
 47 89  1  0
 47 90  1  0
 47 91  1  0
 48 92  1  0
 48 93  1  0
 49 94  1  0
 49 95  1  0
M  END
>  <Binding energies>  (1) 
[19.65]

>  <Ligand effiencies>  (1) 
[0.3169354838709677]

>  <Interactions>  (1) 
["V-A:ILE:369:CG2:3237, V-B:PRO:540:CA:9855, H-A:GLU:543:OE2:4910, V-A:ILE:369:CB:3236, V-B:GLU:543:CB:9878, V-B:ALA:541:CB:9864, H-A:TYR:531:OH:4795, V-A:LEU:475:CG:4257, V-B:GLU:543:CG:9879, V-B:LEU:475:CD2:9230, V-B:TYR:484:CE2:9317, V-B:TYR:531:CZ:9766, V-A:ALA:541:CB:4892, H-B:ALA:541:N:9863, V-A:LEU:475:CD1:4258, V-A:GLU:543:CD:4908, H-B:TYR:484:OH:9319, V-B:HIS:456:CE1:9041, V-A:SER:385:C:3405, V-B:TYR:484:CZ:9318, V-A:ILE:369:CD1:3239, V-A:PRO:482:CB:4326, V-B:TYR:539:CD2:9846, V-A:GLU:543:CG:4907, V-A:SER:385:CB:3409, H-A:SER:385:OG:3410, V-B:GLU:543:CD:9880, V-A:MET:535:CE:4835, V-A:ILE:369:CG1:3238, V-A:LEU:475:CD2:4259, H-A:ARG:545:NH2:4928, H-A:GLU:543:OE1:4909, V-A:GLU:543:CB:4906, H-A:HIS:383:HE2:3395, H-A:ASP:366:OD1:3214, H-B:GLU:543:OE2:9882, V-A:PRO:482:CG:4327, V-A:SER:385:CA:3407, V-B:PRO:540:C:9853, H-A:ASP:366:OD2:3215, V-B:ALA:541:CA:9862, V-A:TYR:539:CE1:4875"]

$$$$
ZINC2356424533
     RDKit          3D

 79 83  0  0  0  0  0  0  0  0999 V2000
  133.9720  124.7680   59.5450 C   0  0  0  0  0  0  0  0  0  0  0  0
  132.6600  125.0260   59.3950 C   0  0  0  0  0  0  0  0  0  0  0  0
  132.1820  126.0790   58.4040 C   0  0  0  0  0  0  0  0  0  0  0  0
  131.5990  124.2550   60.1960 C   0  0  2  0  0  0  0  0  0  0  0  0
  130.1650  124.4230   59.6130 C   0  0  0  0  0  0  0  0  0  0  0  0
  129.5050  125.7180   60.0940 C   0  0  0  0  0  0  0  0  0  0  0  0
  129.7330  126.1430   61.3530 C   0  0  0  0  0  0  0  0  0  0  0  0
  129.2420  127.3130   61.8270 O   0  0  0  0  0  0  0  0  0  0  0  0
  128.3840  128.0840   61.0690 C   0  0  0  0  0  0  0  0  0  0  0  0
  127.9060  129.2300   61.7080 C   0  0  0  0  0  0  0  0  0  0  0  0
  128.3480  129.5810   63.1300 C   0  0  0  0  0  0  0  0  0  0  0  0
  127.1850  129.6080   64.1070 C   0  0  0  0  0  0  0  0  0  0  0  0
  127.1660  129.1280   65.3690 C   0  0  0  0  0  0  0  0  0  0  0  0
  125.9110  129.2150   66.2240 C   0  0  0  0  0  0  0  0  0  0  0  0
  128.3710  128.4810   66.0510 C   0  0  0  0  0  0  0  0  0  0  0  0
  128.1110  127.9920   67.4910 C   0  0  0  0  0  0  0  0  0  0  0  0
  129.2950  128.1530   68.4330 C   0  0  0  0  0  0  0  0  0  0  0  0
  129.3910  127.7380   69.7150 C   0  0  0  0  0  0  0  0  0  0  0  0
  130.6600  127.9610   70.5210 C   0  0  0  0  0  0  0  0  0  0  0  0
  128.2800  127.0400   70.4890 C   0  0  0  0  0  0  0  0  0  0  0  0
  127.0250  130.0590   61.0230 C   0  0  0  0  0  0  0  0  0  0  0  0
  126.6090  129.7650   59.7180 C   0  0  0  0  0  0  0  0  0  0  0  0
  127.1220  128.6150   59.0620 C   0  0  0  0  0  0  0  0  0  0  0  0
  126.7450  128.3950   57.8530 O   0  0  0  0  0  0  0  0  0  0  0  0
  128.0230  127.7400   59.7500 C   0  0  0  0  0  0  0  0  0  0  0  0
  128.6320  126.4640   59.1720 C   0  0  0  0  0  0  0  0  0  0  0  0
  128.4120  126.0700   58.0250 O   0  0  0  0  0  0  0  0  0  0  0  0
  125.6890  130.7640   59.1100 C   0  0  0  0  0  0  0  0  0  0  0  0
  125.4960  131.9690   59.6660 C   0  0  0  0  0  0  0  0  0  0  0  0
  126.2850  132.3590   60.9150 C   0  0  0  0  0  0  0  0  0  0  0  0
  127.6390  132.9810   60.5070 C   0  0  0  0  0  0  0  0  0  0  0  0
  125.4150  133.2730   61.7950 C   0  0  0  0  0  0  0  0  0  0  0  0
  126.5260  131.1680   61.6990 O   0  0  0  0  0  0  0  0  0  0  0  0
  130.7120  125.4780   62.2660 C   0  0  0  0  0  0  0  0  0  0  0  0
  130.7550  125.7430   63.6520 C   0  0  0  0  0  0  0  0  0  0  0  0
  129.8730  126.5870   64.2780 O   0  0  0  0  0  0  0  0  0  0  0  0
  131.7010  125.1210   64.4620 C   0  0  0  0  0  0  0  0  0  0  0  0
  132.6130  124.2260   63.9200 C   0  0  0  0  0  0  0  0  0  0  0  0
  133.5310  123.6290   64.7490 O   0  0  0  0  0  0  0  0  0  0  0  0
  132.5820  123.9450   62.5520 C   0  0  0  0  0  0  0  0  0  0  0  0
  133.4920  123.0550   62.0330 O   0  0  0  0  0  0  0  0  0  0  0  0
  131.6380  124.5620   61.7090 C   0  0  0  0  0  0  0  0  0  0  0  0
  134.3037  124.0048   60.2644 H   0  0  0  0  0  0  0  0  0  0  0  0
  134.7129  125.3203   58.9482 H   0  0  0  0  0  0  0  0  0  0  0  0
  131.7880  126.9470   58.9529 H   0  0  0  0  0  0  0  0  0  0  0  0
  133.0242  126.3965   57.7717 H   0  0  0  0  0  0  0  0  0  0  0  0
  131.3886  125.6540   57.7717 H   0  0  0  0  0  0  0  0  0  0  0  0
  131.8684  123.1942   60.0857 H   0  0  0  0  0  0  0  0  0  0  0  0
  130.2267  124.4412   58.5149 H   0  0  0  0  0  0  0  0  0  0  0  0
  129.5530  123.5774   59.9601 H   0  0  0  0  0  0  0  0  0  0  0  0
  129.0770  128.8302   63.4690 H   0  0  0  0  0  0  0  0  0  0  0  0
  128.7893  130.5883   63.1054 H   0  0  0  0  0  0  0  0  0  0  0  0
  126.2544  130.0702   63.7461 H   0  0  0  0  0  0  0  0  0  0  0  0
  126.1900  129.1957   67.2878 H   0  0  0  0  0  0  0  0  0  0  0  0
  125.3798  130.1521   66.0012 H   0  0  0  0  0  0  0  0  0  0  0  0
  125.2556  128.3601   66.0012 H   0  0  0  0  0  0  0  0  0  0  0  0
  128.6834  127.6166   65.4467 H   0  0  0  0  0  0  0  0  0  0  0  0
  129.1434  129.2609   66.1224 H   0  0  0  0  0  0  0  0  0  0  0  0
  127.2651  128.5634   67.9009 H   0  0  0  0  0  0  0  0  0  0  0  0
  127.9075  126.9131   67.4242 H   0  0  0  0  0  0  0  0  0  0  0  0
  130.1760  128.6676   68.0220 H   0  0  0  0  0  0  0  0  0  0  0  0
  130.4244  127.9196   71.5947 H   0  0  0  0  0  0  0  0  0  0  0  0
  131.3925  127.1778   70.2758 H   0  0  0  0  0  0  0  0  0  0  0  0
  131.0816  128.9470   70.2758 H   0  0  0  0  0  0  0  0  0  0  0  0
  128.4588  127.1523   71.5685 H   0  0  0  0  0  0  0  0  0  0  0  0
  127.3117  127.4923   70.2287 H   0  0  0  0  0  0  0  0  0  0  0  0
  128.2673  125.9713   70.2287 H   0  0  0  0  0  0  0  0  0  0  0  0
  125.1548  130.5082   58.1830 H   0  0  0  0  0  0  0  0  0  0  0  0
  124.7740  132.6724   59.2255 H   0  0  0  0  0  0  0  0  0  0  0  0
  128.2092  133.2430   61.4104 H   0  0  0  0  0  0  0  0  0  0  0  0
  128.2108  132.2553   59.9100 H   0  0  0  0  0  0  0  0  0  0  0  0
  127.4610  133.8876   59.9100 H   0  0  0  0  0  0  0  0  0  0  0  0
  125.6167  133.0611   62.8554 H   0  0  0  0  0  0  0  0  0  0  0  0
  125.6537  134.3249   61.5794 H   0  0  0  0  0  0  0  0  0  0  0  0
  124.3526  133.0865   61.5794 H   0  0  0  0  0  0  0  0  0  0  0  0
  129.8700  127.4720   63.9060 H   0  0  0  0  0  0  0  0  0  0  0  0
  131.7259  125.3404   65.5396 H   0  0  0  0  0  0  0  0  0  0  0  0
  133.4560  123.9200   65.6600 H   0  0  0  0  0  0  0  0  0  0  0  0
  134.0810  122.7010   62.7030 H   0  0  0  0  0  0  0  0  0  0  0  0
  1  2  2  0
  2  3  1  0
  2  4  1  0
  4  5  1  0
  5  6  1  0
  6  7  2  0
  7  8  1  0
  8  9  1  0
  9 10  2  0
 10 11  1  0
 11 12  1  0
 12 13  2  0
 13 14  1  0
 13 15  1  0
 15 16  1  0
 16 17  1  0
 17 18  2  3
 18 19  1  0
 18 20  1  0
 10 21  1  0
 21 22  2  0
 22 23  1  0
 23 24  1  0
 23 25  2  0
 25 26  1  0
 26 27  2  0
 22 28  1  0
 28 29  2  0
 29 30  1  0
 30 31  1  0
 30 32  1  0
 30 33  1  0
  7 34  1  0
 34 35  2  0
 35 36  1  0
 35 37  1  0
 37 38  2  0
 38 39  1  0
 38 40  1  0
 40 41  1  0
 40 42  2  0
 42  4  1  0
 26  6  1  0
 42 34  1  0
 25  9  1  0
 33 21  1  0
  1 43  1  0
  1 44  1  0
  3 45  1  0
  3 46  1  0
  3 47  1  0
  4 48  1  1
  5 49  1  0
  5 50  1  0
 11 51  1  0
 11 52  1  0
 12 53  1  0
 14 54  1  0
 14 55  1  0
 14 56  1  0
 15 57  1  0
 15 58  1  0
 16 59  1  0
 16 60  1  0
 17 61  1  0
 19 62  1  0
 19 63  1  0
 19 64  1  0
 20 65  1  0
 20 66  1  0
 20 67  1  0
 28 68  1  0
 29 69  1  0
 31 70  1  0
 31 71  1  0
 31 72  1  0
 32 73  1  0
 32 74  1  0
 32 75  1  0
 36 76  1  0
 37 77  1  0
 39 78  1  0
 41 79  1  0
M  CHG  1  24  -1
M  END
>  <Binding energies>  (1) 
[-5.73]

>  <Ligand effiencies>  (1) 
[-0.12733333333333335]

>  <Interactions>  (1) 
["V-A:ILE:369:CG2:3237, V-A:ASP:366:CA:3210, V-B:GLU:543:C:9874, H-A:GLU:543:OE2:4910, V-A:ILE:369:CB:3236, V-A:GLU:543:C:4902, V-B:GLU:543:CB:9878, V-B:TYR:539:CE2:9848, V-B:LEU:475:CD2:9230, V-A:GLY:544:C:4912, V-A:ASP:366:CG:3213, V-A:TYR:539:CD1:4873, V-A:GLU:543:CD:4908, V-B:HIS:456:CE1:9041, H-A:GLY:454:N:4050, V-B:TYR:484:CZ:9318, V-A:ILE:369:CD1:3239, V-A:HIS:456:CE1:4070, V-A:ASP:366:C:3208, V-A:GLU:543:CG:4907, V-B:GLU:543:CD:9880, H-B:TYR:531:OH:9767, V-A:ASP:366:CB:3212, H-A:GLU:543:OE1:4909, V-A:GLU:543:CB:4906, H-A:SER:385:O:3406, V-A:TYR:539:CE1:4875, H-A:TYR:484:OH:4348"]

$$$$
ZINC2356424533-again1
     RDKit          3D

 80 84  0  0  0  0  0  0  0  0999 V2000
  134.7170  124.3570   60.4800 C   0  0  0  0  0  0  0  0  0  0  0  0
  133.4870  123.9710   60.8720 C   0  0  0  0  0  0  0  0  0  0  0  0
  133.1170  124.0290   62.3490 C   0  0  0  0  0  0  0  0  0  0  0  0
  132.3740  123.5660   59.8780 C   0  0  2  0  0  0  0  0  0  0  0  0
  132.0470  124.6710   58.8280 C   0  0  0  0  0  0  0  0  0  0  0  0
  131.2580  125.7950   59.5040 C   0  0  0  0  0  0  0  0  0  0  0  0
  130.2810  125.4620   60.3760 C   0  0  0  0  0  0  0  0  0  0  0  0
  129.5710  126.3820   61.0760 O   0  0  0  0  0  0  0  0  0  0  0  0
  129.7600  127.7290   60.8490 C   0  0  0  0  0  0  0  0  0  0  0  0
  128.9300  128.5950   61.5710 C   0  0  0  0  0  0  0  0  0  0  0  0
  127.8880  128.0510   62.5480 C   0  0  0  0  0  0  0  0  0  0  0  0
  128.5180  127.1850   63.6280 C   0  0  0  0  0  0  0  0  0  0  0  0
  128.7320  127.5150   64.9190 C   0  0  0  0  0  0  0  0  0  0  0  0
  129.3840  126.5340   65.8810 C   0  0  0  0  0  0  0  0  0  0  0  0
  128.3400  128.8590   65.5300 C   0  0  0  0  0  0  0  0  0  0  0  0
  127.7310  128.7680   66.9440 C   0  0  0  0  0  0  0  0  0  0  0  0
  128.7450  128.8790   68.0740 C   0  0  0  0  0  0  0  0  0  0  0  0
  129.0150  127.9660   69.0320 C   0  0  0  0  0  0  0  0  0  0  0  0
  130.0780  128.2240   70.0870 C   0  0  0  0  0  0  0  0  0  0  0  0
  128.3050  126.6260   69.1810 C   0  0  0  0  0  0  0  0  0  0  0  0
  129.0760  129.9700   61.3830 C   0  0  0  0  0  0  0  0  0  0  0  0
  130.0190  130.4790   60.4830 C   0  0  0  0  0  0  0  0  0  0  0  0
  130.8580  129.6020   59.7790 C   0  0  0  0  0  0  0  0  0  0  0  0
  131.7930  130.1440   58.9260 O   0  0  0  0  0  0  0  0  0  0  0  0
  130.7310  128.2030   59.9460 C   0  0  0  0  0  0  0  0  0  0  0  0
  131.5850  127.1990   59.2060 C   0  0  0  0  0  0  0  0  0  0  0  0
  132.4690  127.5300   58.4150 O   0  0  0  0  0  0  0  0  0  0  0  0
  130.1130  131.9450   60.3830 C   0  0  0  0  0  0  0  0  0  0  0  0
  129.5040  132.7350   61.2810 C   0  0  0  0  0  0  0  0  0  0  0  0
  128.7670  132.1090   62.4690 C   0  0  0  0  0  0  0  0  0  0  0  0
  129.7530  131.8940   63.6380 C   0  0  0  0  0  0  0  0  0  0  0  0
  127.5540  132.9850   62.8260 C   0  0  0  0  0  0  0  0  0  0  0  0
  128.2250  130.8250   62.0740 O   0  0  0  0  0  0  0  0  0  0  0  0
  130.0380  124.0500   60.7990 C   0  0  0  0  0  0  0  0  0  0  0  0
  128.8460  123.6410   61.4330 C   0  0  0  0  0  0  0  0  0  0  0  0
  127.8100  124.5030   61.6920 O   0  0  0  0  0  0  0  0  0  0  0  0
  128.6640  122.3100   61.7950 C   0  0  0  0  0  0  0  0  0  0  0  0
  129.6480  121.3660   61.5340 C   0  0  0  0  0  0  0  0  0  0  0  0
  129.4320  120.0610   61.9010 O   0  0  0  0  0  0  0  0  0  0  0  0
  130.8370  121.7530   60.9090 C   0  0  0  0  0  0  0  0  0  0  0  0
  131.8070  120.8080   60.6690 O   0  0  0  0  0  0  0  0  0  0  0  0
  131.0540  123.0940   60.5430 C   0  0  0  0  0  0  0  0  0  0  0  0
  134.9925  124.3184   59.4158 H   0  0  0  0  0  0  0  0  0  0  0  0
  135.4457  124.7108   61.2242 H   0  0  0  0  0  0  0  0  0  0  0  0
  134.0211  123.8873   62.9593 H   0  0  0  0  0  0  0  0  0  0  0  0
  132.6705  125.0081   62.5770 H   0  0  0  0  0  0  0  0  0  0  0  0
  132.3923  123.2335   62.5770 H   0  0  0  0  0  0  0  0  0  0  0  0
  132.8161  122.7011   59.3616 H   0  0  0  0  0  0  0  0  0  0  0  0
  132.9836  125.0756   58.4168 H   0  0  0  0  0  0  0  0  0  0  0  0
  131.4473  124.2388   58.0134 H   0  0  0  0  0  0  0  0  0  0  0  0
  127.3736  128.8974   63.0265 H   0  0  0  0  0  0  0  0  0  0  0  0
  127.1825  127.4267   61.9800 H   0  0  0  0  0  0  0  0  0  0  0  0
  128.8347  126.1768   63.3227 H   0  0  0  0  0  0  0  0  0  0  0  0
  129.1781  126.8438   66.9162 H   0  0  0  0  0  0  0  0  0  0  0  0
  128.9748  125.5272   65.7113 H   0  0  0  0  0  0  0  0  0  0  0  0
  130.4708  126.5215   65.7113 H   0  0  0  0  0  0  0  0  0  0  0  0
  129.2414  129.4872   65.5844 H   0  0  0  0  0  0  0  0  0  0  0  0
  127.5588  129.2808   64.8806 H   0  0  0  0  0  0  0  0  0  0  0  0
  126.9999  129.5821   67.0567 H   0  0  0  0  0  0  0  0  0  0  0  0
  127.2772  127.7694   67.0266 H   0  0  0  0  0  0  0  0  0  0  0  0
  129.3259  129.8122   68.1151 H   0  0  0  0  0  0  0  0  0  0  0  0
  129.6348  128.1164   71.0880 H   0  0  0  0  0  0  0  0  0  0  0  0
  130.8961  127.4983   69.9683 H   0  0  0  0  0  0  0  0  0  0  0  0
  130.4725  129.2440   69.9683 H   0  0  0  0  0  0  0  0  0  0  0  0
  128.1816  126.3932   70.2490 H   0  0  0  0  0  0  0  0  0  0  0  0
  127.3168  126.6793   68.7008 H   0  0  0  0  0  0  0  0  0  0  0  0
  128.9040  125.8382   68.7008 H   0  0  0  0  0  0  0  0  0  0  0  0
  132.6160  129.6530   58.9200 H   0  0  0  0  0  0  0  0  0  0  0  0
  130.6891  132.3980   59.5627 H   0  0  0  0  0  0  0  0  0  0  0  0
  129.5340  133.8284   61.1642 H   0  0  0  0  0  0  0  0  0  0  0  0
  129.2201  132.0102   64.5932 H   0  0  0  0  0  0  0  0  0  0  0  0
  130.1793  130.8818   63.5767 H   0  0  0  0  0  0  0  0  0  0  0  0
  130.5620  132.6369   63.5767 H   0  0  0  0  0  0  0  0  0  0  0  0
  127.4600  133.0529   63.9199 H   0  0  0  0  0  0  0  0  0  0  0  0
  127.6931  133.9924   62.4067 H   0  0  0  0  0  0  0  0  0  0  0  0
  126.6415  132.5361   62.4067 H   0  0  0  0  0  0  0  0  0  0  0  0
  128.0830  125.2760   62.1910 H   0  0  0  0  0  0  0  0  0  0  0  0
  127.7322  122.0029   62.2924 H   0  0  0  0  0  0  0  0  0  0  0  0
  129.0850  119.5290   61.1820 H   0  0  0  0  0  0  0  0  0  0  0  0
  131.5700  119.9350   60.9920 H   0  0  0  0  0  0  0  0  0  0  0  0
  1  2  2  0
  2  3  1  0
  2  4  1  0
  4  5  1  0
  5  6  1  0
  6  7  2  0
  7  8  1  0
  8  9  1  0
  9 10  2  0
 10 11  1  0
 11 12  1  0
 12 13  2  0
 13 14  1  0
 13 15  1  0
 15 16  1  0
 16 17  1  0
 17 18  2  3
 18 19  1  0
 18 20  1  0
 10 21  1  0
 21 22  2  0
 22 23  1  0
 23 24  1  0
 23 25  2  0
 25 26  1  0
 26 27  2  0
 22 28  1  0
 28 29  2  0
 29 30  1  0
 30 31  1  0
 30 32  1  0
 30 33  1  0
  7 34  1  0
 34 35  2  0
 35 36  1  0
 35 37  1  0
 37 38  2  0
 38 39  1  0
 38 40  1  0
 40 41  1  0
 40 42  2  0
 42  4  1  0
 26  6  1  0
 42 34  1  0
 25  9  1  0
 33 21  1  0
  1 43  1  0
  1 44  1  0
  3 45  1  0
  3 46  1  0
  3 47  1  0
  4 48  1  6
  5 49  1  0
  5 50  1  0
 11 51  1  0
 11 52  1  0
 12 53  1  0
 14 54  1  0
 14 55  1  0
 14 56  1  0
 15 57  1  0
 15 58  1  0
 16 59  1  0
 16 60  1  0
 17 61  1  0
 19 62  1  0
 19 63  1  0
 19 64  1  0
 20 65  1  0
 20 66  1  0
 20 67  1  0
 24 68  1  0
 28 69  1  0
 29 70  1  0
 31 71  1  0
 31 72  1  0
 31 73  1  0
 32 74  1  0
 32 75  1  0
 32 76  1  0
 36 77  1  0
 37 78  1  0
 39 79  1  0
 41 80  1  0
M  END
>  <Binding energies>  (1) 
[-6.83]

>  <Ligand effiencies>  (1) 
[-0.14847826086956523]

>  <Interactions>  (1) 
["V-A:ILE:369:CG2:3237, V-A:ASP:366:CA:3210, V-B:PRO:540:CA:9855, V-A:GLU:543:CA:4904, V-B:GLU:543:C:9874, V-A:ILE:369:CB:3236, V-A:GLU:543:C:4902, V-B:GLU:543:CB:9878, V-A:PRO:540:C:4881, V-B:ALA:541:CB:9864, H-A:TYR:531:OH:4795, V-B:TYR:539:CE2:9848, V-B:GLU:543:CG:9879, V-B:LEU:475:CD2:9230, V-A:ASP:366:CG:3213, V-B:TYR:539:CZ:9849, H-B:GLU:543:OE1:9881, V-A:ALA:541:CB:4892, H-B:ALA:541:N:9863, V-A:GLU:543:CD:4908, V-B:HIS:456:CE1:9041, V-B:GLU:543:CA:9876, V-A:ILE:369:CD1:3239, V-A:HIS:456:CE1:4070, V-B:TYR:539:CD2:9846, V-A:GLU:543:CG:4907, H-A:SER:385:OG:3410, V-B:GLU:543:CD:9880, V-A:ILE:369:CG1:3238, V-A:ASP:366:CB:3212, V-A:LEU:475:CD2:4259, V-A:GLU:543:CB:4906, V-A:PRO:540:CA:4883, H-B:TYR:539:O:9840, H-A:ASP:366:OD2:3215, H-B:PRO:540:O:9854"]

$$$$
ZINC2356438653
     RDKit          3D

 82 84  0  0  0  0  0  0  0  0999 V2000
  128.3340  123.8190   58.0820 C   0  0  0  0  0  0  0  0  0  0  0  0
  129.0060  124.8810   58.5550 C   0  0  0  0  0  0  0  0  0  0  0  0
  129.5580  125.0050   59.9630 C   0  0  2  0  0  0  0  0  0  0  0  0
  129.5600  126.4170   60.3890 C   0  0  0  0  0  0  0  0  0  0  0  0
  129.5880  127.5830   60.7530 C   0  0  0  0  0  0  0  0  0  0  0  0
  129.6180  128.8890   61.1460 C   0  0  0  0  0  0  0  0  0  0  0  0
  129.6530  130.0600   61.4900 C   0  0  0  0  0  0  0  0  0  0  0  0
  129.6920  131.4800   61.8800 C   0  0  1  0  0  0  0  0  0  0  0  0
  130.9410  131.8540   62.4310 O   0  0  0  0  0  0  0  0  0  0  0  0
  129.3240  132.3700   60.6940 C   0  0  0  0  0  0  0  0  0  0  0  0
  129.4940  132.1050   59.3840 C   0  0  0  0  0  0  0  0  0  0  0  0
  129.0950  133.0450   58.2610 C   0  0  0  0  0  0  0  0  0  0  0  0
  129.7920  132.7480   56.9200 C   0  0  0  0  0  0  0  0  0  0  0  0
  130.9000  131.6810   57.0220 C   0  0  0  0  0  0  0  0  0  0  0  0
  132.1990  132.2210   57.6450 C   0  0  0  0  0  0  0  0  0  0  0  0
  132.8920  131.1990   58.5650 C   0  0  0  0  0  0  0  0  0  0  0  0
  132.6460  131.4750   60.0590 C   0  0  0  0  0  0  0  0  0  0  0  0
  133.9280  131.8470   60.8170 C   0  0  0  0  0  0  0  0  0  0  0  0
  130.8730  124.4450   59.9920 O   0  0  0  0  0  0  0  0  0  0  0  0
  132.0370  125.2440   59.7130 C   0  0  0  0  0  0  0  0  0  0  0  0
  131.8480  126.0600   58.4060 C   0  0  0  0  0  0  0  0  0  0  0  0
  132.2840  126.2040   60.9080 C   0  0  0  0  0  0  0  0  0  0  0  0
  133.2000  124.2110   59.5290 C   0  0  1  0  0  0  0  0  0  0  0  0
  133.6420  124.1730   58.1810 O   0  0  0  0  0  0  0  0  0  0  0  0
  134.4430  124.4280   60.4280 C   0  0  0  0  0  0  0  0  0  0  0  0
  134.4330  123.4870   61.4990 O   0  0  0  0  0  0  0  0  0  0  0  0
  133.1950  123.1450   61.9860 C   0  0  0  0  0  0  0  0  0  0  0  0
  132.5680  123.9570   62.9460 C   0  0  0  0  0  0  0  0  0  0  0  0
  133.0800  125.0970   63.4980 O   0  0  0  0  0  0  0  0  0  0  0  0
  132.1370  125.5510   64.3690 C   0  0  0  0  0  0  0  0  0  0  0  0
  131.0180  124.7350   64.3920 C   0  0  0  0  0  0  0  0  0  0  0  0
  131.2790  123.6790   63.4610 C   0  0  0  0  0  0  0  0  0  0  0  0
  130.5960  122.5400   62.9910 C   0  0  0  0  0  0  0  0  0  0  0  0
  129.3390  122.2810   63.4830 O   0  0  0  0  0  0  0  0  0  0  0  0
  128.2930  122.9750   62.8130 C   0  0  0  0  0  0  0  0  0  0  0  0
  131.2010  121.7380   62.0130 C   0  0  0  0  0  0  0  0  0  0  0  0
  130.5470  120.5520   61.4530 C   0  0  0  0  0  0  0  0  0  0  0  0
  131.1400  119.7920   60.5150 C   0  0  0  0  0  0  0  0  0  0  0  0
  132.4800  120.1220   60.0100 C   0  0  0  0  0  0  0  0  0  0  0  0
  133.1210  119.5070   59.1600 O   0  0  0  0  0  0  0  0  0  0  0  0
  133.0910  121.2500   60.5470 O   0  0  0  0  0  0  0  0  0  0  0  0
  132.4790  122.0400   61.5180 C   0  0  0  0  0  0  0  0  0  0  0  0
  127.9695  123.8165   57.0442 H   0  0  0  0  0  0  0  0  0  0  0  0
  128.1480  122.9516   58.7324 H   0  0  0  0  0  0  0  0  0  0  0  0
  129.1688  125.7256   57.8694 H   0  0  0  0  0  0  0  0  0  0  0  0
  128.9214  124.4524   60.6696 H   0  0  0  0  0  0  0  0  0  0  0  0
  128.9434  131.6226   62.6733 H   0  0  0  0  0  0  0  0  0  0  0  0
  131.3240  131.0870   62.8620 H   0  0  0  0  0  0  0  0  0  0  0  0
  128.8669  133.3403   60.9381 H   0  0  0  0  0  0  0  0  0  0  0  0
  129.9525  131.1434   59.1100 H   0  0  0  0  0  0  0  0  0  0  0  0
  128.0082  132.9642   58.1116 H   0  0  0  0  0  0  0  0  0  0  0  0
  129.4060  134.0553   58.5652 H   0  0  0  0  0  0  0  0  0  0  0  0
  129.0342  132.3948   56.2052 H   0  0  0  0  0  0  0  0  0  0  0  0
  130.2731  133.6817   56.5934 H   0  0  0  0  0  0  0  0  0  0  0  0
  130.5316  130.8514   57.6434 H   0  0  0  0  0  0  0  0  0  0  0  0
  131.1370  131.3538   55.9989 H   0  0  0  0  0  0  0  0  0  0  0  0
  132.8919  132.4898   56.8341 H   0  0  0  0  0  0  0  0  0  0  0  0
  131.9324  133.0924   58.2611 H   0  0  0  0  0  0  0  0  0  0  0  0
  132.5098  130.1956   58.3258 H   0  0  0  0  0  0  0  0  0  0  0  0
  133.9750  131.2772   58.3887 H   0  0  0  0  0  0  0  0  0  0  0  0
  131.9312  132.3062   60.1493 H   0  0  0  0  0  0  0  0  0  0  0  0
  132.2555  130.5488   60.5058 H   0  0  0  0  0  0  0  0  0  0  0  0
  133.7424  131.7931   61.8999 H   0  0  0  0  0  0  0  0  0  0  0  0
  134.7304  131.1446   60.5471 H   0  0  0  0  0  0  0  0  0  0  0  0
  134.2298  132.8698   60.5471 H   0  0  0  0  0  0  0  0  0  0  0  0
  131.6063  127.1034   58.6569 H   0  0  0  0  0  0  0  0  0  0  0  0
  132.7769  126.0301   57.8175 H   0  0  0  0  0  0  0  0  0  0  0  0
  131.0269  125.6248   57.8175 H   0  0  0  0  0  0  0  0  0  0  0  0
  132.1434  125.6577   61.8523 H   0  0  0  0  0  0  0  0  0  0  0  0
  133.3116  126.5934   60.8591 H   0  0  0  0  0  0  0  0  0  0  0  0
  131.5720  127.0410   60.8591 H   0  0  0  0  0  0  0  0  0  0  0  0
  132.7430  123.2598   59.8394 H   0  0  0  0  0  0  0  0  0  0  0  0
  134.4250  124.7250   58.1020 H   0  0  0  0  0  0  0  0  0  0  0  0
  135.3555  124.2905   59.8293 H   0  0  0  0  0  0  0  0  0  0  0  0
  134.4207  125.4479   60.8396 H   0  0  0  0  0  0  0  0  0  0  0  0
  132.2503  126.4577   64.9814 H   0  0  0  0  0  0  0  0  0  0  0  0
  130.1126  124.8707   65.0018 H   0  0  0  0  0  0  0  0  0  0  0  0
  127.6165  123.4238   63.5553 H   0  0  0  0  0  0  0  0  0  0  0  0
  128.7235  123.7672   62.1829 H   0  0  0  0  0  0  0  0  0  0  0  0
  127.7304  122.2704   62.1829 H   0  0  0  0  0  0  0  0  0  0  0  0
  129.5437  120.2758   61.8096 H   0  0  0  0  0  0  0  0  0  0  0  0
  130.6141  118.9103   60.1200 H   0  0  0  0  0  0  0  0  0  0  0  0
  1  2  2  0
  2  3  1  0
  3  4  1  0
  4  5  3  0
  5  6  1  0
  6  7  3  0
  7  8  1  0
  8  9  1  0
  8 10  1  0
 10 11  2  0
 11 12  1  0
 12 13  1  0
 13 14  1  0
 14 15  1  0
 15 16  1  0
 16 17  1  0
 17 18  1  0
  3 19  1  0
 19 20  1  0
 20 21  1  0
 20 22  1  0
 20 23  1  0
 23 24  1  0
 23 25  1  0
 25 26  1  0
 26 27  1  0
 27 28  2  0
 28 29  1  0
 29 30  1  0
 30 31  2  0
 31 32  1  0
 32 33  2  0
 33 34  1  0
 34 35  1  0
 33 36  1  0
 36 37  1  0
 37 38  2  0
 38 39  1  0
 39 40  2  0
 39 41  1  0
 41 42  1  0
 42 27  1  0
 32 28  1  0
 42 36  2  0
  1 43  1  0
  1 44  1  0
  2 45  1  0
  3 46  1  1
  8 47  1  1
  9 48  1  0
 10 49  1  0
 11 50  1  0
 12 51  1  0
 12 52  1  0
 13 53  1  0
 13 54  1  0
 14 55  1  0
 14 56  1  0
 15 57  1  0
 15 58  1  0
 16 59  1  0
 16 60  1  0
 17 61  1  0
 17 62  1  0
 18 63  1  0
 18 64  1  0
 18 65  1  0
 21 66  1  0
 21 67  1  0
 21 68  1  0
 22 69  1  0
 22 70  1  0
 22 71  1  0
 23 72  1  1
 24 73  1  0
 25 74  1  0
 25 75  1  0
 30 76  1  0
 31 77  1  0
 35 78  1  0
 35 79  1  0
 35 80  1  0
 37 81  1  0
 38 82  1  0
M  END
>  <Binding energies>  (1) 
[-8.09]

>  <Ligand effiencies>  (1) 
[-0.18386363636363637]

>  <Interactions>  (1) 
["V-A:ILE:369:CG2:3237, V-A:ASP:366:CA:3210, V-A:ILE:369:CB:3236, H-A:ALA:541:N:4891, V-B:ALA:541:CB:9864, V-B:TYR:539:CE2:9848, V-B:GLU:543:CG:9879, V-A:ASP:366:CG:3213, V-A:ASN:362:CB:3176, V-A:TYR:539:CD1:4873, V-A:LEU:363:CD1:3189, V-A:LEU:363:CB:3187, V-B:TYR:539:CZ:9849, H-B:TYR:539:OH:9850, V-A:GLU:543:CD:4908, V-A:ILE:369:CD1:3239, V-B:TYR:539:CD2:9846, V-A:SER:385:CB:3409, H-A:SER:385:OG:3410, V-B:GLU:543:CD:9880, V-A:TYR:539:C:4867, V-A:ASP:366:CB:3212, V-A:LEU:475:CD2:4259, H-A:ARG:545:NH2:4928, V-A:ARG:545:CZ:4926, H-A:GLU:543:OE1:4909, V-A:ASN:362:C:3172, H-A:ASP:366:O:3209, H-A:HIS:383:HE2:3395, V-A:PRO:540:N:4884, V-A:PRO:540:CB:4885, V-A:PRO:540:CA:4883, V-A:LEU:363:CA:3185, V-A:TYR:539:CE1:4875"]

$$$$
ZINC2356439010
     RDKit          3D

 96 98  0  0  0  0  0  0  0  0999 V2000
  131.9050  125.2340   63.6910 C   0  0  0  0  0  0  0  0  0  0  0  0
  130.5740  125.1840   63.8840 C   0  0  0  0  0  0  0  0  0  0  0  0
  129.9980  124.6470   65.1880 C   0  0  0  0  0  0  0  0  0  0  0  0
  129.5920  125.6650   62.8010 C   0  0  2  0  0  0  0  0  0  0  0  0
  129.5520  124.7160   61.5750 C   0  0  0  0  0  0  0  0  0  0  0  0
  129.9440  123.2690   61.8430 C   0  0  0  0  0  0  0  0  0  0  0  0
  129.3190  122.1490   61.4180 C   0  0  0  0  0  0  0  0  0  0  0  0
  129.8580  120.7700   61.7560 C   0  0  0  0  0  0  0  0  0  0  0  0
  128.0340  122.1290   60.6000 C   0  0  0  0  0  0  0  0  0  0  0  0
  129.7280  127.1670   62.3790 C   0  0  0  0  0  0  0  0  0  0  0  0
  130.0490  127.5230   60.8690 C   0  0  2  0  0  0  0  0  0  0  0  0
  130.3400  129.0450   60.6760 C   0  0  0  0  0  0  0  0  0  0  0  0
  130.5770  129.4960   59.2040 C   0  0  2  0  0  0  0  0  0  0  0  0
  130.9440  131.0080   59.1450 C   0  0  0  0  0  0  0  0  0  0  0  0
  132.1670  131.3850   59.9710 C   0  0  0  0  0  0  0  0  0  0  0  0
  132.2080  131.7330   61.2760 C   0  0  0  0  0  0  0  0  0  0  0  0
  133.5190  132.0970   61.9520 C   0  0  0  0  0  0  0  0  0  0  0  0
  131.0000  131.7790   62.2010 C   0  0  0  0  0  0  0  0  0  0  0  0
  129.3790  129.0380   58.2640 C   0  0  0  0  0  0  0  0  0  0  0  0
  128.0890  129.8400   58.6310 C   0  0  0  0  0  0  0  0  0  0  0  0
  129.7840  129.3650   56.7940 C   0  0  0  0  0  0  0  0  0  0  0  0
  129.1270  127.4520   58.4620 C   0  0  2  0  0  0  0  0  0  0  0  0
  127.8930  126.8990   57.6270 C   0  0  0  0  0  0  0  0  0  0  0  0
  128.1250  125.6130   56.7670 C   0  0  0  0  0  0  0  0  0  0  0  0
  128.0380  124.2510   57.5080 C   0  0  0  0  0  0  0  0  0  0  0  0
  127.0980  124.3470   58.7270 C   0  0  0  0  0  0  0  0  0  0  0  0
  127.6360  123.0920   56.5700 C   0  0  0  0  0  0  0  0  0  0  0  0
  129.3250  123.9250   58.0010 O   0  0  0  0  0  0  0  0  0  0  0  0
  128.8300  127.2030   59.9710 C   0  0  0  0  0  0  0  0  0  0  0  0
  127.7340  126.8420   60.4100 O   0  0  0  0  0  0  0  0  0  0  0  0
  130.4280  126.6640   58.0710 C   0  0  0  0  0  0  0  0  0  0  0  0
  130.6000  126.3370   56.8430 O   0  0  0  0  0  0  0  0  0  0  0  0
  131.3940  126.2470   59.0570 C   0  0  0  0  0  0  0  0  0  0  0  0
  132.4340  125.3290   58.6810 C   0  0  0  0  0  0  0  0  0  0  0  0
  132.8730  125.3320   57.4810 O   0  0  0  0  0  0  0  0  0  0  0  0
  132.8840  124.4000   59.6870 C   0  0  0  0  0  0  0  0  0  0  0  0
  132.2860  123.1330   59.8120 C   0  0  0  0  0  0  0  0  0  0  0  0
  132.7050  122.2270   60.7870 C   0  0  0  0  0  0  0  0  0  0  0  0
  133.7350  122.5640   61.6630 C   0  0  0  0  0  0  0  0  0  0  0  0
  134.1250  121.6580   62.6160 O   0  0  0  0  0  0  0  0  0  0  0  0
  134.3530  123.8150   61.5550 C   0  0  0  0  0  0  0  0  0  0  0  0
  135.3700  124.1790   62.4010 O   0  0  0  0  0  0  0  0  0  0  0  0
  133.9330  124.7140   60.5750 C   0  0  0  0  0  0  0  0  0  0  0  0
  131.3340  126.7440   60.4120 C   0  0  0  0  0  0  0  0  0  0  0  0
  132.3240  126.5640   61.2040 O   0  0  0  0  0  0  0  0  0  0  0  0
  132.3093  125.6238   62.7452 H   0  0  0  0  0  0  0  0  0  0  0  0
  132.5885  124.8851   64.4791 H   0  0  0  0  0  0  0  0  0  0  0  0
  130.5087  125.1231   66.0380 H   0  0  0  0  0  0  0  0  0  0  0  0
  128.9222  124.8720   65.2338 H   0  0  0  0  0  0  0  0  0  0  0  0
  130.1471  123.5581   65.2338 H   0  0  0  0  0  0  0  0  0  0  0  0
  128.6129  125.6165   63.3000 H   0  0  0  0  0  0  0  0  0  0  0  0
  128.5258  124.7197   61.1789 H   0  0  0  0  0  0  0  0  0  0  0  0
  130.3045  125.1039   60.8727 H   0  0  0  0  0  0  0  0  0  0  0  0
  130.8444  123.1174   62.4564 H   0  0  0  0  0  0  0  0  0  0  0  0
  129.9041  120.6520   62.8487 H   0  0  0  0  0  0  0  0  0  0  0  0
  129.1936  120.0026   61.3321 H   0  0  0  0  0  0  0  0  0  0  0  0
  130.8667  120.6565   61.3321 H   0  0  0  0  0  0  0  0  0  0  0  0
  127.1679  122.1155   61.2780 H   0  0  0  0  0  0  0  0  0  0  0  0
  127.9891  123.0266   59.9657 H   0  0  0  0  0  0  0  0  0  0  0  0
  128.0171  121.2305   59.9657 H   0  0  0  0  0  0  0  0  0  0  0  0
  128.7758  127.6578   62.6288 H   0  0  0  0  0  0  0  0  0  0  0  0
  130.6207  127.5101   62.9225 H   0  0  0  0  0  0  0  0  0  0  0  0
  129.4808  129.6079   61.0697 H   0  0  0  0  0  0  0  0  0  0  0  0
  131.2803  129.2451   61.2106 H   0  0  0  0  0  0  0  0  0  0  0  0
  131.4555  128.9799   58.7896 H   0  0  0  0  0  0  0  0  0  0  0  0
  131.1402  131.2749   58.0961 H   0  0  0  0  0  0  0  0  0  0  0  0
  130.0920  131.5576   59.5717 H   0  0  0  0  0  0  0  0  0  0  0  0
  133.1315  131.3725   59.4423 H   0  0  0  0  0  0  0  0  0  0  0  0
  133.3908  132.0614   63.0439 H   0  0  0  0  0  0  0  0  0  0  0  0
  134.2980  131.3812   61.6508 H   0  0  0  0  0  0  0  0  0  0  0  0
  133.8174  133.1120   61.6508 H   0  0  0  0  0  0  0  0  0  0  0  0
  131.3388  131.7661   63.2475 H   0  0  0  0  0  0  0  0  0  0  0  0
  130.4283  132.6996   62.0120 H   0  0  0  0  0  0  0  0  0  0  0  0
  130.3600  130.9046   62.0120 H   0  0  0  0  0  0  0  0  0  0  0  0
  127.9932  129.8996   59.7252 H   0  0  0  0  0  0  0  0  0  0  0  0
  128.1571  130.8552   58.2131 H   0  0  0  0  0  0  0  0  0  0  0  0
  127.2087  129.3297   58.2131 H   0  0  0  0  0  0  0  0  0  0  0  0
  130.6399  130.0560   56.7945 H   0  0  0  0  0  0  0  0  0  0  0  0
  130.0631  128.4360   56.2753 H   0  0  0  0  0  0  0  0  0  0  0  0
  128.9347  129.8336   56.2753 H   0  0  0  0  0  0  0  0  0  0  0  0
  127.0847  126.6782   58.3396 H   0  0  0  0  0  0  0  0  0  0  0  0
  127.6704  127.6903   56.8960 H   0  0  0  0  0  0  0  0  0  0  0  0
  127.3692  125.6061   55.9678 H   0  0  0  0  0  0  0  0  0  0  0  0
  129.1652  125.6845   56.4165 H   0  0  0  0  0  0  0  0  0  0  0  0
  127.6900  124.2865   59.6522 H   0  0  0  0  0  0  0  0  0  0  0  0
  126.5581  125.3050   58.6991 H   0  0  0  0  0  0  0  0  0  0  0  0
  126.3756  123.5180   58.6991 H   0  0  0  0  0  0  0  0  0  0  0  0
  127.3341  122.2217   57.1711 H   0  0  0  0  0  0  0  0  0  0  0  0
  126.7952  123.4087   55.9354 H   0  0  0  0  0  0  0  0  0  0  0  0
  128.4923  122.8201   55.9354 H   0  0  0  0  0  0  0  0  0  0  0  0
  129.9810  124.3650   57.4540 H   0  0  0  0  0  0  0  0  0  0  0  0
  131.4722  122.8509   59.1278 H   0  0  0  0  0  0  0  0  0  0  0  0
  132.2202  121.2426   60.8644 H   0  0  0  0  0  0  0  0  0  0  0  0
  135.0550  121.7310   62.8410 H   0  0  0  0  0  0  0  0  0  0  0  0
  135.6270  125.0990   62.3000 H   0  0  0  0  0  0  0  0  0  0  0  0
  134.4319  125.6909   60.4930 H   0  0  0  0  0  0  0  0  0  0  0  0
  1  2  2  0
  2  3  1  0
  2  4  1  0
  4  5  1  0
  5  6  1  0
  6  7  2  3
  7  8  1  0
  7  9  1  0
  4 10  1  0
 11 10  1  1
 11 12  1  0
 12 13  1  0
 13 14  1  0
 14 15  1  0
 15 16  2  3
 16 17  1  0
 16 18  1  0
 13 19  1  0
 19 20  1  0
 19 21  1  0
 19 22  1  0
 22 23  1  6
 23 24  1  0
 24 25  1  0
 25 26  1  0
 25 27  1  0
 25 28  1  0
 22 29  1  0
 29 30  2  0
 22 31  1  0
 31 32  1  0
 31 33  2  0
 33 34  1  0
 34 35  2  0
 34 36  1  0
 36 37  2  0
 37 38  1  0
 38 39  2  0
 39 40  1  0
 39 41  1  0
 41 42  1  0
 41 43  2  0
 33 44  1  0
 44 45  2  0
 29 11  1  0
 43 36  1  0
 44 11  1  0
  1 46  1  0
  1 47  1  0
  3 48  1  0
  3 49  1  0
  3 50  1  0
  4 51  1  1
  5 52  1  0
  5 53  1  0
  6 54  1  0
  8 55  1  0
  8 56  1  0
  8 57  1  0
  9 58  1  0
  9 59  1  0
  9 60  1  0
 10 61  1  0
 10 62  1  0
 12 63  1  0
 12 64  1  0
 13 65  1  6
 14 66  1  0
 14 67  1  0
 15 68  1  0
 17 69  1  0
 17 70  1  0
 17 71  1  0
 18 72  1  0
 18 73  1  0
 18 74  1  0
 20 75  1  0
 20 76  1  0
 20 77  1  0
 21 78  1  0
 21 79  1  0
 21 80  1  0
 23 81  1  0
 23 82  1  0
 24 83  1  0
 24 84  1  0
 26 85  1  0
 26 86  1  0
 26 87  1  0
 27 88  1  0
 27 89  1  0
 27 90  1  0
 28 91  1  0
 37 92  1  0
 38 93  1  0
 40 94  1  0
 42 95  1  0
 43 96  1  0
M  CHG  1  32  -1
M  END
>  <Binding energies>  (1) 
[-7.39]

>  <Ligand effiencies>  (1) 
[-0.15395833333333334]

>  <Interactions>  (1) 
["V-A:ILE:369:CG2:3237, V-A:ASP:366:CA:3210, V-B:PRO:540:CA:9855, V-B:ALA:541:CB:9864, H-A:TYR:531:OH:4795, V-B:TYR:539:CE2:9848, V-B:GLU:543:CG:9879, V-B:TYR:539:C:9839, V-A:ASP:366:CG:3213, V-A:ASN:362:CB:3176, V-B:TYR:539:CZ:9849, H-B:TYR:539:OH:9850, V-A:GLU:543:CD:4908, H-A:GLY:454:N:4050, V-B:PRO:540:N:9856, V-A:ILE:369:CD1:3239, V-B:TYR:539:CD2:9846, V-A:MET:535:CE:4835, V-B:GLU:543:CD:9880, V-A:ASP:366:CB:3212, V-A:LEU:475:CD2:4259, H-A:ARG:545:NH2:4928, V-A:ARG:545:CZ:4926, V-B:TYR:539:CG:9844, H-A:ASP:366:OD1:3214, V-B:TYR:539:CD1:9845, V-A:PRO:540:CB:4885, V-A:PRO:540:CA:4883, H-A:SER:385:O:3406, V-B:PRO:540:C:9853, V-B:TYR:539:CE1:9847"]

$$$$
ZINC2356439010-again1
     RDKit          3D

 97 99  0  0  0  0  0  0  0  0999 V2000
  130.9260  122.1330   65.0020 C   0  0  0  0  0  0  0  0  0  0  0  0
  129.9310  123.0080   64.7670 C   0  0  0  0  0  0  0  0  0  0  0  0
  128.5810  122.5380   64.2420 C   0  0  0  0  0  0  0  0  0  0  0  0
  130.0640  124.5220   65.0080 C   0  0  2  0  0  0  0  0  0  0  0  0
  129.6200  124.9270   66.4380 C   0  0  0  0  0  0  0  0  0  0  0  0
  129.1380  126.3620   66.5860 C   0  0  0  0  0  0  0  0  0  0  0  0
  129.0090  127.0660   67.7300 C   0  0  0  0  0  0  0  0  0  0  0  0
  128.5350  128.5100   67.7190 C   0  0  0  0  0  0  0  0  0  0  0  0
  129.2950  126.5110   69.1180 C   0  0  0  0  0  0  0  0  0  0  0  0
  129.3510  125.4300   63.9480 C   0  0  0  0  0  0  0  0  0  0  0  0
  130.1280  125.8420   62.6360 C   0  0  1  0  0  0  0  0  0  0  0  0
  129.7860  127.2920   62.1700 C   0  0  0  0  0  0  0  0  0  0  0  0
  130.4970  127.7500   60.8600 C   0  0  2  0  0  0  0  0  0  0  0  0
  130.1710  129.2410   60.5570 C   0  0  0  0  0  0  0  0  0  0  0  0
  131.3460  130.1870   60.7600 C   0  0  0  0  0  0  0  0  0  0  0  0
  131.4030  131.2450   61.5970 C   0  0  0  0  0  0  0  0  0  0  0  0
  132.6560  132.0950   61.7140 C   0  0  0  0  0  0  0  0  0  0  0  0
  130.2500  131.7060   62.4780 C   0  0  0  0  0  0  0  0  0  0  0  0
  130.2310  126.7240   59.6780 C   0  0  0  0  0  0  0  0  0  0  0  0
  128.7210  126.7920   59.2750 C   0  0  0  0  0  0  0  0  0  0  0  0
  131.1060  127.1730   58.4630 C   0  0  0  0  0  0  0  0  0  0  0  0
  130.6040  125.2190   60.1590 C   0  0  1  0  0  0  0  0  0  0  0  0
  130.2500  124.1360   59.0520 C   0  0  0  0  0  0  0  0  0  0  0  0
  128.8630  124.2180   58.3420 C   0  0  0  0  0  0  0  0  0  0  0  0
  127.8410  123.1010   58.6890 C   0  0  0  0  0  0  0  0  0  0  0  0
  126.7220  123.5960   59.6310 C   0  0  0  0  0  0  0  0  0  0  0  0
  127.2570  122.4700   57.4090 C   0  0  0  0  0  0  0  0  0  0  0  0
  128.5180  122.0770   59.3940 O   0  0  0  0  0  0  0  0  0  0  0  0
  132.1410  125.1060   60.4700 C   0  0  0  0  0  0  0  0  0  0  0  0
  132.9740  124.9830   59.5710 O   0  0  0  0  0  0  0  0  0  0  0  0
  132.6050  125.1120   61.9560 C   0  0  2  0  0  0  0  0  0  0  0  0
  133.0240  123.7020   62.4730 C   0  0  0  0  0  0  0  0  0  0  0  0
  133.9310  123.6000   63.3030 O   0  0  0  0  0  0  0  0  0  0  0  0
  132.4440  122.4890   61.8000 C   0  0  0  0  0  0  0  0  0  0  0  0
  133.2850  121.6360   61.0700 C   0  0  0  0  0  0  0  0  0  0  0  0
  132.7800  120.4950   60.4470 C   0  0  0  0  0  0  0  0  0  0  0  0
  131.4260  120.1810   60.5490 C   0  0  0  0  0  0  0  0  0  0  0  0
  130.9510  119.0570   59.9230 O   0  0  0  0  0  0  0  0  0  0  0  0
  130.5750  121.0110   61.2890 C   0  0  0  0  0  0  0  0  0  0  0  0
  129.2380  120.7240   61.4130 O   0  0  0  0  0  0  0  0  0  0  0  0
  131.0860  122.1500   61.9150 C   0  0  0  0  0  0  0  0  0  0  0  0
  131.6550  125.8100   62.9640 C   0  0  0  0  0  0  0  0  0  0  0  0
  132.1070  126.3370   63.9840 O   0  0  0  0  0  0  0  0  0  0  0  0
  129.7830  124.8990   61.4520 C   0  0  0  0  0  0  0  0  0  0  0  0
  128.9220  124.0180   61.5170 O   0  0  0  0  0  0  0  0  0  0  0  0
  131.8947  122.4905   65.3812 H   0  0  0  0  0  0  0  0  0  0  0  0
  130.7707  121.0602   64.8149 H   0  0  0  0  0  0  0  0  0  0  0  0
  127.9183  122.3073   65.0891 H   0  0  0  0  0  0  0  0  0  0  0  0
  128.1295  123.3318   63.6288 H   0  0  0  0  0  0  0  0  0  0  0  0
  128.7201  121.6354   63.6288 H   0  0  0  0  0  0  0  0  0  0  0  0
  131.1418  124.7088   64.8921 H   0  0  0  0  0  0  0  0  0  0  0  0
  128.7996  124.2598   66.7411 H   0  0  0  0  0  0  0  0  0  0  0  0
  130.5153  124.8396   67.0711 H   0  0  0  0  0  0  0  0  0  0  0  0
  128.8641  126.8840   65.6573 H   0  0  0  0  0  0  0  0  0  0  0  0
  128.4183  128.8655   68.7534 H   0  0  0  0  0  0  0  0  0  0  0  0
  129.2752  129.1349   67.1978 H   0  0  0  0  0  0  0  0  0  0  0  0
  127.5685  128.5747   67.1978 H   0  0  0  0  0  0  0  0  0  0  0  0
  128.9307  127.2180   69.8778 H   0  0  0  0  0  0  0  0  0  0  0  0
  128.7822  125.5455   69.2397 H   0  0  0  0  0  0  0  0  0  0  0  0
  130.3789  126.3683   69.2397 H   0  0  0  0  0  0  0  0  0  0  0  0
  128.4422  124.8984   63.6293 H   0  0  0  0  0  0  0  0  0  0  0  0
  129.2074  126.3840   64.4764 H   0  0  0  0  0  0  0  0  0  0  0  0
  128.6998  127.3503   62.0066 H   0  0  0  0  0  0  0  0  0  0  0  0
  130.1457  127.9623   62.9646 H   0  0  0  0  0  0  0  0  0  0  0  0
  131.5890  127.7261   60.9899 H   0  0  0  0  0  0  0  0  0  0  0  0
  129.8430  129.3171   59.5098 H   0  0  0  0  0  0  0  0  0  0  0  0
  129.3906  129.5465   61.2695 H   0  0  0  0  0  0  0  0  0  0  0  0
  132.2460  129.9872   60.1600 H   0  0  0  0  0  0  0  0  0  0  0  0
  132.8924  132.2554   62.7763 H   0  0  0  0  0  0  0  0  0  0  0  0
  133.4958  131.5794   61.2252 H   0  0  0  0  0  0  0  0  0  0  0  0
  132.4874  133.0659   61.2252 H   0  0  0  0  0  0  0  0  0  0  0  0
  130.5295  131.5942   63.5360 H   0  0  0  0  0  0  0  0  0  0  0  0
  130.0272  132.7624   62.2673 H   0  0  0  0  0  0  0  0  0  0  0  0
  129.3603  131.0945   62.2673 H   0  0  0  0  0  0  0  0  0  0  0  0
  128.1002  126.8200   60.1826 H   0  0  0  0  0  0  0  0  0  0  0  0
  128.5409  127.6992   58.6795 H   0  0  0  0  0  0  0  0  0  0  0  0
  128.4601  125.9047   58.6795 H   0  0  0  0  0  0  0  0  0  0  0  0
  132.0284  127.6463   58.8305 H   0  0  0  0  0  0  0  0  0  0  0  0
  131.3627  126.2952   57.8517 H   0  0  0  0  0  0  0  0  0  0  0  0
  130.5426  127.8934   57.8517 H   0  0  0  0  0  0  0  0  0  0  0  0
  131.0195  124.2092   58.2694 H   0  0  0  0  0  0  0  0  0  0  0  0
  130.2104  123.1878   59.6082 H   0  0  0  0  0  0  0  0  0  0  0  0
  128.4072  125.1829   58.6088 H   0  0  0  0  0  0  0  0  0  0  0  0
  129.0765  124.0952   57.2699 H   0  0  0  0  0  0  0  0  0  0  0  0
  127.0349  123.4576   60.6764 H   0  0  0  0  0  0  0  0  0  0  0  0
  126.5303  124.6629   59.4438 H   0  0  0  0  0  0  0  0  0  0  0  0
  125.8037  123.0201   59.4438 H   0  0  0  0  0  0  0  0  0  0  0  0
  126.5334  121.6881   57.6829 H   0  0  0  0  0  0  0  0  0  0  0  0
  126.7514  123.2459   56.8155 H   0  0  0  0  0  0  0  0  0  0  0  0
  128.0697  122.0258   56.8155 H   0  0  0  0  0  0  0  0  0  0  0  0
  128.6190  122.3530   60.3070 H   0  0  0  0  0  0  0  0  0  0  0  0
  133.4998  125.7508   61.9185 H   0  0  0  0  0  0  0  0  0  0  0  0
  134.3567  121.8701   60.9879 H   0  0  0  0  0  0  0  0  0  0  0  0
  133.4527  119.8406   59.8731 H   0  0  0  0  0  0  0  0  0  0  0  0
  130.0020  118.9460   60.0150 H   0  0  0  0  0  0  0  0  0  0  0  0
  128.8700  120.3070   60.6320 H   0  0  0  0  0  0  0  0  0  0  0  0
  130.4154  122.7906   62.5065 H   0  0  0  0  0  0  0  0  0  0  0  0
  1  2  2  0
  2  3  1  0
  2  4  1  0
  4  5  1  0
  5  6  1  0
  6  7  2  3
  7  8  1  0
  7  9  1  0
  4 10  1  0
 11 10  1  1
 11 12  1  0
 12 13  1  0
 13 14  1  0
 14 15  1  0
 15 16  2  3
 16 17  1  0
 16 18  1  0
 13 19  1  0
 19 20  1  0
 19 21  1  0
 19 22  1  0
 22 23  1  6
 23 24  1  0
 24 25  1  0
 25 26  1  0
 25 27  1  0
 25 28  1  0
 22 29  1  0
 29 30  2  0
 29 31  1  0
 31 32  1  0
 32 33  2  0
 32 34  1  0
 34 35  2  0
 35 36  1  0
 36 37  2  0
 37 38  1  0
 37 39  1  0
 39 40  1  0
 39 41  2  0
 31 42  1  0
 42 43  2  0
 22 44  1  0
 44 45  2  0
 42 11  1  0
 44 11  1  0
 41 34  1  0
  1 46  1  0
  1 47  1  0
  3 48  1  0
  3 49  1  0
  3 50  1  0
  4 51  1  1
  5 52  1  0
  5 53  1  0
  6 54  1  0
  8 55  1  0
  8 56  1  0
  8 57  1  0
  9 58  1  0
  9 59  1  0
  9 60  1  0
 10 61  1  0
 10 62  1  0
 12 63  1  0
 12 64  1  0
 13 65  1  1
 14 66  1  0
 14 67  1  0
 15 68  1  0
 17 69  1  0
 17 70  1  0
 17 71  1  0
 18 72  1  0
 18 73  1  0
 18 74  1  0
 20 75  1  0
 20 76  1  0
 20 77  1  0
 21 78  1  0
 21 79  1  0
 21 80  1  0
 23 81  1  0
 23 82  1  0
 24 83  1  0
 24 84  1  0
 26 85  1  0
 26 86  1  0
 26 87  1  0
 27 88  1  0
 27 89  1  0
 27 90  1  0
 28 91  1  0
 31 92  1  6
 35 93  1  0
 36 94  1  0
 38 95  1  0
 40 96  1  0
 41 97  1  0
M  END
>  <Binding energies>  (1) 
[-8.11]

>  <Ligand effiencies>  (1) 
[-0.16895833333333332]

>  <Interactions>  (1) 
["V-A:ILE:369:CG2:3237, V-B:TYR:539:CA:9841, V-B:PRO:540:CA:9855, V-B:GLU:543:CB:9878, V-A:PRO:540:C:4881, V-B:ALA:541:CB:9864, V-B:TYR:539:CE2:9848, V-A:TYR:484:CE2:4346, V-A:LEU:475:CG:4257, V-B:GLU:543:CG:9879, V-B:TYR:539:C:9839, V-A:ASP:366:CG:3213, V-B:TYR:539:CZ:9849, H-B:ALA:541:N:9863, V-A:TYR:484:CZ:4347, V-A:GLU:543:CD:4908, V-B:PRO:540:CB:9857, V-B:GLU:543:CA:9876, H-A:GLY:454:N:4050, V-B:HIS:456:CE1:9041, V-B:PRO:540:N:9856, V-A:HIS:456:CE1:4070, V-B:TYR:539:CD2:9846, V-A:GLU:543:CG:4907, V-A:SER:385:CB:3409, H-A:SER:385:OG:3410, V-B:GLU:543:CD:9880, V-B:PRO:540:CD:9859, V-A:LEU:475:CD2:4259, H-A:ARG:545:NH2:4928, V-A:ARG:545:CZ:4926, V-B:TYR:539:CG:9844, V-A:GLU:543:CB:4906, H-A:HIS:383:HE2:3395, V-B:TYR:539:CD1:9845, V-A:PRO:540:CB:4885, V-A:PRO:540:CA:4883, H-B:TYR:539:O:9840, H-A:ARG:545:NE:4924, V-B:ALA:541:CA:9862"]

$$$$
ZINC2356439010-again2
     RDKit          3D

 96 98  0  0  0  0  0  0  0  0999 V2000
  129.8950  130.3060   56.8880 C   0  0  0  0  0  0  0  0  0  0  0  0
  130.9390  130.5500   57.7020 C   0  0  0  0  0  0  0  0  0  0  0  0
  132.0930  131.4310   57.2410 C   0  0  0  0  0  0  0  0  0  0  0  0
  131.0040  129.9540   59.1200 C   0  0  2  0  0  0  0  0  0  0  0  0
  131.7370  130.8880   60.1170 C   0  0  0  0  0  0  0  0  0  0  0  0
  130.9240  131.3410   61.3250 C   0  0  0  0  0  0  0  0  0  0  0  0
  129.8120  132.1060   61.3380 C   0  0  0  0  0  0  0  0  0  0  0  0
  129.1070  132.4480   62.6400 C   0  0  0  0  0  0  0  0  0  0  0  0
  129.1620  132.7170   60.1040 C   0  0  0  0  0  0  0  0  0  0  0  0
  131.5120  128.4790   59.2110 C   0  0  0  0  0  0  0  0  0  0  0  0
  130.4610  127.3160   59.3990 C   0  0  1  0  0  0  0  0  0  0  0  0
  128.9850  127.8050   59.2620 C   0  0  0  0  0  0  0  0  0  0  0  0
  127.8880  126.7210   59.5040 C   0  0  2  0  0  0  0  0  0  0  0  0
  126.4700  127.3170   59.2700 C   0  0  0  0  0  0  0  0  0  0  0  0
  126.4700  128.6660   58.5600 C   0  0  0  0  0  0  0  0  0  0  0  0
  126.5080  129.8960   59.1180 C   0  0  0  0  0  0  0  0  0  0  0  0
  126.4860  131.1490   58.2600 C   0  0  0  0  0  0  0  0  0  0  0  0
  126.5930  130.1700   60.6130 C   0  0  0  0  0  0  0  0  0  0  0  0
  128.1050  125.9740   60.8920 C   0  0  0  0  0  0  0  0  0  0  0  0
  127.8190  126.9710   62.0640 C   0  0  0  0  0  0  0  0  0  0  0  0
  127.0690  124.8070   60.9650 C   0  0  0  0  0  0  0  0  0  0  0  0
  129.6340  125.4370   60.9870 C   0  0  1  0  0  0  0  0  0  0  0  0
  129.9640  124.7400   62.3730 C   0  0  0  0  0  0  0  0  0  0  0  0
  130.1690  125.6590   63.6210 C   0  0  0  0  0  0  0  0  0  0  0  0
  130.8310  125.0120   64.8660 C   0  0  0  0  0  0  0  0  0  0  0  0
  132.2820  125.5040   65.0390 C   0  0  0  0  0  0  0  0  0  0  0  0
  130.0070  125.2220   66.1550 C   0  0  0  0  0  0  0  0  0  0  0  0
  130.8890  123.6100   64.6680 O   0  0  0  0  0  0  0  0  0  0  0  0
  129.9110  124.3740   59.8600 C   0  0  0  0  0  0  0  0  0  0  0  0
  129.4240  123.2430   59.9050 O   0  0  0  0  0  0  0  0  0  0  0  0
  130.8550  124.7760   58.6950 C   0  0  2  0  0  0  0  0  0  0  0  0
  132.3280  124.3550   58.9940 C   0  0  0  0  0  0  0  0  0  0  0  0
  133.1940  124.5140   58.1270 O   0  0  0  0  0  0  0  0  0  0  0  0
  132.6940  123.9340   60.3900 C   0  0  0  0  0  0  0  0  0  0  0  0
  132.1700  122.7400   60.9080 C   0  0  0  0  0  0  0  0  0  0  0  0
  132.4920  122.3140   62.1950 C   0  0  0  0  0  0  0  0  0  0  0  0
  133.3380  123.0780   63.0060 C   0  0  0  0  0  0  0  0  0  0  0  0
  133.6070  122.6460   64.1770 O   0  0  0  0  0  0  0  0  0  0  0  0
  133.8590  124.2900   62.5070 C   0  0  0  0  0  0  0  0  0  0  0  0
  134.6940  125.1050   63.2400 O   0  0  0  0  0  0  0  0  0  0  0  0
  133.5280  124.7040   61.2140 C   0  0  0  0  0  0  0  0  0  0  0  0
  130.7250  126.2630   58.2720 C   0  0  0  0  0  0  0  0  0  0  0  0
  130.8310  126.5850   57.0870 O   0  0  0  0  0  0  0  0  0  0  0  0
  130.5740  126.6760   60.8100 C   0  0  0  0  0  0  0  0  0  0  0  0
  131.2940  127.1250   61.7060 O   0  0  0  0  0  0  0  0  0  0  0  0
  129.0671  129.6683   57.2314 H   0  0  0  0  0  0  0  0  0  0  0  0
  129.8698  130.7443   55.8794 H   0  0  0  0  0  0  0  0  0  0  0  0
  132.6202  131.8335   58.1185 H   0  0  0  0  0  0  0  0  0  0  0  0
  132.7910  130.8340   56.6358 H   0  0  0  0  0  0  0  0  0  0  0  0
  131.7010  132.2617   56.6358 H   0  0  0  0  0  0  0  0  0  0  0  0
  129.9495  129.8903   59.4267 H   0  0  0  0  0  0  0  0  0  0  0  0
  132.6244  130.3546   60.4886 H   0  0  0  0  0  0  0  0  0  0  0  0
  131.9679  131.8037   59.5528 H   0  0  0  0  0  0  0  0  0  0  0  0
  131.2885  131.0028   62.3062 H   0  0  0  0  0  0  0  0  0  0  0  0
  129.7364  132.1427   63.4889 H   0  0  0  0  0  0  0  0  0  0  0  0
  128.9292  133.5325   62.6868 H   0  0  0  0  0  0  0  0  0  0  0  0
  128.1451  131.9164   62.6868 H   0  0  0  0  0  0  0  0  0  0  0  0
  128.3931  133.4398   60.4144 H   0  0  0  0  0  0  0  0  0  0  0  0
  129.9268  133.2307   59.5031 H   0  0  0  0  0  0  0  0  0  0  0  0
  128.6965  131.9219   59.5031 H   0  0  0  0  0  0  0  0  0  0  0  0
  132.0611  128.2696   58.2811 H   0  0  0  0  0  0  0  0  0  0  0  0
  132.0960  128.4590   60.1429 H   0  0  0  0  0  0  0  0  0  0  0  0
  128.8278  128.6137   59.9909 H   0  0  0  0  0  0  0  0  0  0  0  0
  128.8694  128.1202   58.2145 H   0  0  0  0  0  0  0  0  0  0  0  0
  127.9833  125.9195   58.7566 H   0  0  0  0  0  0  0  0  0  0  0  0
  125.8930  126.6060   58.6604 H   0  0  0  0  0  0  0  0  0  0  0  0
  126.0279  127.4821   60.2636 H   0  0  0  0  0  0  0  0  0  0  0  0
  126.4348  128.6342   57.4610 H   0  0  0  0  0  0  0  0  0  0  0  0
  126.4704  132.0373   58.9086 H   0  0  0  0  0  0  0  0  0  0  0  0
  127.3838  131.1744   57.6250 H   0  0  0  0  0  0  0  0  0  0  0  0
  125.5878  131.1428   57.6250 H   0  0  0  0  0  0  0  0  0  0  0  0
  126.3117  129.2632   61.1685 H   0  0  0  0  0  0  0  0  0  0  0  0
  127.6222  130.4563   60.8754 H   0  0  0  0  0  0  0  0  0  0  0  0
  125.9065  130.9885   60.8754 H   0  0  0  0  0  0  0  0  0  0  0  0
  127.9661  126.4581   63.0259 H   0  0  0  0  0  0  0  0  0  0  0  0
  128.5082  127.8255   61.9949 H   0  0  0  0  0  0  0  0  0  0  0  0
  126.7816  127.3302   61.9949 H   0  0  0  0  0  0  0  0  0  0  0  0
  126.8580  124.5693   62.0181 H   0  0  0  0  0  0  0  0  0  0  0  0
  126.1381  125.1112   60.4642 H   0  0  0  0  0  0  0  0  0  0  0  0
  127.4814  123.9187   60.4642 H   0  0  0  0  0  0  0  0  0  0  0  0
  129.1335  124.0561   62.6022 H   0  0  0  0  0  0  0  0  0  0  0  0
  130.9428  124.2629   62.2168 H   0  0  0  0  0  0  0  0  0  0  0  0
  130.7997  126.5052   63.3109 H   0  0  0  0  0  0  0  0  0  0  0  0
  129.1545  125.9341   63.9452 H   0  0  0  0  0  0  0  0  0  0  0  0
  132.5169  125.5836   66.1107 H   0  0  0  0  0  0  0  0  0  0  0  0
  132.9706  124.7891   64.5649 H   0  0  0  0  0  0  0  0  0  0  0  0
  132.3937  126.4903   64.5649 H   0  0  0  0  0  0  0  0  0  0  0  0
  130.6502  125.0581   67.0321 H   0  0  0  0  0  0  0  0  0  0  0  0
  129.6137  126.2491   66.1755 H   0  0  0  0  0  0  0  0  0  0  0  0
  129.1701  124.5084   66.1755 H   0  0  0  0  0  0  0  0  0  0  0  0
  131.7180  123.2870   65.0310 H   0  0  0  0  0  0  0  0  0  0  0  0
  130.5230  124.2094   57.8125 H   0  0  0  0  0  0  0  0  0  0  0  0
  131.4949  122.1311   60.2888 H   0  0  0  0  0  0  0  0  0  0  0  0
  132.0776  121.3692   62.5765 H   0  0  0  0  0  0  0  0  0  0  0  0
  134.9350  125.9100   62.7750 H   0  0  0  0  0  0  0  0  0  0  0  0
  133.9303  125.6547   60.8340 H   0  0  0  0  0  0  0  0  0  0  0  0
  1  2  2  0
  2  3  1  0
  2  4  1  0
  4  5  1  0
  5  6  1  0
  6  7  2  3
  7  8  1  0
  7  9  1  0
  4 10  1  0
 11 10  1  1
 11 12  1  0
 12 13  1  0
 13 14  1  0
 14 15  1  0
 15 16  2  3
 16 17  1  0
 16 18  1  0
 13 19  1  0
 19 20  1  0
 19 21  1  0
 19 22  1  0
 22 23  1  1
 23 24  1  0
 24 25  1  0
 25 26  1  0
 25 27  1  0
 25 28  1  0
 22 29  1  0
 29 30  2  0
 29 31  1  0
 31 32  1  0
 32 33  2  0
 32 34  1  0
 34 35  2  0
 35 36  1  0
 36 37  2  0
 37 38  1  0
 37 39  1  0
 39 40  1  0
 39 41  2  0
 31 42  1  0
 42 43  2  0
 22 44  1  0
 44 45  2  0
 42 11  1  0
 44 11  1  0
 41 34  1  0
  1 46  1  0
  1 47  1  0
  3 48  1  0
  3 49  1  0
  3 50  1  0
  4 51  1  1
  5 52  1  0
  5 53  1  0
  6 54  1  0
  8 55  1  0
  8 56  1  0
  8 57  1  0
  9 58  1  0
  9 59  1  0
  9 60  1  0
 10 61  1  0
 10 62  1  0
 12 63  1  0
 12 64  1  0
 13 65  1  6
 14 66  1  0
 14 67  1  0
 15 68  1  0
 17 69  1  0
 17 70  1  0
 17 71  1  0
 18 72  1  0
 18 73  1  0
 18 74  1  0
 20 75  1  0
 20 76  1  0
 20 77  1  0
 21 78  1  0
 21 79  1  0
 21 80  1  0
 23 81  1  0
 23 82  1  0
 24 83  1  0
 24 84  1  0
 26 85  1  0
 26 86  1  0
 26 87  1  0
 27 88  1  0
 27 89  1  0
 27 90  1  0
 28 91  1  0
 31 92  1  6
 35 93  1  0
 36 94  1  0
 40 95  1  0
 41 96  1  0
M  CHG  1  38  -1
M  END
>  <Binding energies>  (1) 
[-7.66]

>  <Ligand effiencies>  (1) 
[-0.16297872340425532]

>  <Interactions>  (1) 
["V-A:GLY:454:CA:4049, V-B:GLU:543:CB:9878, V-B:ASP:366:CG:8184, H-A:TYR:531:OH:4795, H-A:ARG:545:NH1:4927, V-B:TYR:539:CE2:9848, V-B:GLU:543:CG:9879, V-A:ASP:366:CG:3213, V-A:LEU:363:CD1:3189, V-B:TYR:539:CZ:9849, H-B:TYR:539:OH:9850, V-A:ALA:541:CB:4892, V-A:GLU:543:CD:4908, H-A:GLY:454:N:4050, V-B:GLU:543:CD:9880, V-A:MET:535:CE:4835, V-A:TYR:539:C:4867, V-A:ASP:366:CB:3212, V-A:LEU:475:CD2:4259, H-A:ARG:545:NH2:4928, V-A:ARG:545:CZ:4926, H-A:ASP:366:OD1:3214, V-A:PRO:540:N:4884, V-A:PRO:540:CB:4885, V-A:PRO:540:CA:4883, V-A:TYR:539:CE1:4875, H-A:TYR:484:OH:4348"]

$$$$
ZINC2356439348-again1
     RDKit          3D

 31 32  0  0  0  0  0  0  0  0999 V2000
  130.9860  127.7590   58.2180 C   0  0  0  0  0  0  0  0  0  0  0  0
  131.3400  126.3150   57.8540 C   0  0  0  0  0  0  0  0  0  0  0  0
  130.9740  125.8890   56.7580 O   0  0  0  0  0  0  0  0  0  0  0  0
  131.9770  125.4660   58.9320 C   0  0  0  0  0  0  0  0  0  0  0  0
  131.4870  125.6210   60.2380 C   0  0  0  0  0  0  0  0  0  0  0  0
  132.0210  124.9310   61.3370 C   0  0  0  0  0  0  0  0  0  0  0  0
  133.0760  124.0250   61.1140 C   0  0  0  0  0  0  0  0  0  0  0  0
  133.5880  123.8790   59.8240 C   0  0  0  0  0  0  0  0  0  0  0  0
  133.0670  124.5820   58.7320 C   0  0  0  0  0  0  0  0  0  0  0  0
  133.6060  124.3480   57.5960 O   0  0  0  0  0  0  0  0  0  0  0  0
  133.6480  123.2050   62.2670 C   0  0  0  0  0  0  0  0  0  0  0  0
  133.6120  124.0160   63.5750 C   0  0  1  0  0  0  0  0  0  0  0  0
  134.5380  125.0910   63.5030 O   0  0  0  0  0  0  0  0  0  0  0  0
  132.1590  124.4790   63.9130 C   0  0  2  0  0  0  0  0  0  0  0  0
  132.1270  125.4120   65.1540 C   0  0  0  0  0  0  0  0  0  0  0  0
  131.3660  123.3630   64.2880 O   0  0  0  0  0  0  0  0  0  0  0  0
  131.4430  125.1680   62.7120 C   0  0  0  0  0  0  0  0  0  0  0  0
  130.4720  125.9150   62.8600 O   0  0  0  0  0  0  0  0  0  0  0  0
  130.9599  127.8654   59.3125 H   0  0  0  0  0  0  0  0  0  0  0  0
  131.7442  128.4385   57.8015 H   0  0  0  0  0  0  0  0  0  0  0  0
  129.9995  128.0108   57.8015 H   0  0  0  0  0  0  0  0  0  0  0  0
  130.6487  126.3128   60.4073 H   0  0  0  0  0  0  0  0  0  0  0  0
  134.4286  123.1887   59.6602 H   0  0  0  0  0  0  0  0  0  0  0  0
  133.0504  122.2899   62.3918 H   0  0  0  0  0  0  0  0  0  0  0  0
  134.6923  122.9474   62.0367 H   0  0  0  0  0  0  0  0  0  0  0  0
  133.9237  123.3727   64.4110 H   0  0  0  0  0  0  0  0  0  0  0  0
  134.4110  125.5480   62.6680 H   0  0  0  0  0  0  0  0  0  0  0  0
  132.1479  124.8040   66.0705 H   0  0  0  0  0  0  0  0  0  0  0  0
  133.0029  126.0772   65.1353 H   0  0  0  0  0  0  0  0  0  0  0  0
  131.2076  126.0157   65.1353 H   0  0  0  0  0  0  0  0  0  0  0  0
  131.7370  122.9810   65.0860 H   0  0  0  0  0  0  0  0  0  0  0  0
  1  2  1  0
  2  3  2  0
  2  4  1  0
  4  5  2  0
  5  6  1  0
  6  7  2  0
  7  8  1  0
  8  9  2  0
  9 10  1  0
  7 11  1  0
 11 12  1  0
 12 13  1  0
 12 14  1  0
 14 15  1  0
 14 16  1  1
 14 17  1  0
 17 18  2  0
  9  4  1  0
 17  6  1  0
  1 19  1  0
  1 20  1  0
  1 21  1  0
  5 22  1  0
  8 23  1  0
 11 24  1  0
 11 25  1  0
 12 26  1  1
 13 27  1  0
 15 28  1  0
 15 29  1  0
 15 30  1  0
 16 31  1  0
M  CHG  1  10  -1
M  END
>  <Binding energies>  (1) 
[-5.34]

>  <Ligand effiencies>  (1) 
[-0.267]

>  <Interactions>  (1) 
["V-A:ILE:369:CG2:3237, V-A:ASP:366:CA:3210, V-A:GLY:454:CA:4049, V-A:ILE:369:CB:3236, H-A:TYR:531:OH:4795, H-A:ARG:545:NH1:4927, V-B:TYR:539:CE2:9848, V-A:ASP:366:CG:3213, V-B:TYR:539:CZ:9849, H-B:TYR:539:OH:9850, V-A:GLU:543:CD:4908, H-A:GLY:454:N:4050, V-A:ILE:369:CD1:3239, V-A:ASP:366:CB:3212, H-A:ARG:545:NH2:4928, V-A:ARG:545:CZ:4926, H-A:ASP:366:OD1:3214, H-A:ARG:545:NE:4924, H-A:TYR:484:OH:4348"]

$$$$
ZINC2356440017
     RDKit          3D

 79 83  0  0  0  0  0  0  0  0999 V2000
  132.0470  125.5670   66.1850 C   0  0  0  0  0  0  0  0  0  0  0  0
  130.7780  124.6780   66.2270 C   0  0  1  0  0  0  0  0  0  0  0  0
  129.5320  125.5300   66.5850 C   0  0  0  0  0  0  0  0  0  0  0  0
  129.7990  126.6890   67.5310 C   0  0  0  0  0  0  0  0  0  0  0  0
  129.3600  126.7530   68.8030 C   0  0  0  0  0  0  0  0  0  0  0  0
  129.5810  127.8930   69.7920 C   0  0  0  0  0  0  0  0  0  0  0  0
  128.7960  127.7740   71.1170 C   0  0  0  0  0  0  0  0  0  0  0  0
  131.0820  128.1100   70.0640 C   0  0  0  0  0  0  0  0  0  0  0  0
  129.1160  129.0680   69.1570 O   0  0  0  0  0  0  0  0  0  0  0  0
  130.6290  123.8610   64.8970 C   0  0  1  0  0  0  0  0  0  0  0  0
  129.4970  122.7960   64.9740 C   0  0  0  0  0  0  0  0  0  0  0  0
  128.9180  122.6220   63.5630 C   0  0  0  0  0  0  0  0  0  0  0  0
  129.8630  123.4320   62.6760 C   0  0  1  0  0  0  0  0  0  0  0  0
  129.3760  123.8700   61.2680 C   0  0  2  0  0  0  0  0  0  0  0  0
  128.8550  122.6990   60.4160 C   0  0  0  0  0  0  0  0  0  0  0  0
  128.3560  123.1340   59.0240 C   0  0  0  0  0  0  0  0  0  0  0  0
  128.9990  124.4000   58.3490 C   0  0  1  0  0  0  0  0  0  0  0  0
  127.9610  125.5820   58.1290 C   0  0  0  0  0  0  0  0  0  0  0  0
  126.8270  125.0920   57.1800 C   0  0  0  0  0  0  0  0  0  0  0  0
  127.3960  126.0940   59.4830 C   0  0  0  0  0  0  0  0  0  0  0  0
  128.6770  126.7710   57.3870 C   0  0  1  0  0  0  0  0  0  0  0  0
  127.8300  127.8790   57.1240 O   0  0  0  0  0  0  0  0  0  0  0  0
  129.9420  127.2830   58.1050 C   0  0  0  0  0  0  0  0  0  0  0  0
  130.9470  126.1550   58.3530 C   0  0  0  0  0  0  0  0  0  0  0  0
  130.3000  124.9360   59.0560 C   0  0  2  0  0  0  0  0  0  0  0  0
  131.3940  123.9740   59.5070 C   0  0  0  0  0  0  0  0  0  0  0  0
  130.5120  124.6580   60.5460 C   0  0  2  0  0  0  0  0  0  0  0  0
  131.2490  125.7250   61.4120 C   0  0  0  0  0  0  0  0  0  0  0  0
  131.5830  125.2010   62.8290 C   0  0  0  0  0  0  0  0  0  0  0  0
  130.3350  124.6220   63.5590 C   0  0  2  0  0  0  0  0  0  0  0  0
  129.2350  125.7100   63.7730 C   0  0  0  0  0  0  0  0  0  0  0  0
  132.3702  125.7934   67.2118 H   0  0  0  0  0  0  0  0  0  0  0  0
  132.8510  125.0336   65.6567 H   0  0  0  0  0  0  0  0  0  0  0  0
  131.8204  126.5048   65.6567 H   0  0  0  0  0  0  0  0  0  0  0  0
  130.8768  123.9304   67.0278 H   0  0  0  0  0  0  0  0  0  0  0  0
  129.1184  125.9393   65.6515 H   0  0  0  0  0  0  0  0  0  0  0  0
  128.8388  124.8567   67.1104 H   0  0  0  0  0  0  0  0  0  0  0  0
  130.3917  127.5341   67.1508 H   0  0  0  0  0  0  0  0  0  0  0  0
  128.7807  125.8917   69.1671 H   0  0  0  0  0  0  0  0  0  0  0  0
  129.4892  127.8791   71.9646 H   0  0  0  0  0  0  0  0  0  0  0  0
  128.0353  128.5671   71.1650 H   0  0  0  0  0  0  0  0  0  0  0  0
  128.3045  126.7911   71.1650 H   0  0  0  0  0  0  0  0  0  0  0  0
  131.2580  128.1354   71.1495 H   0  0  0  0  0  0  0  0  0  0  0  0
  131.6583  127.2858   69.6183 H   0  0  0  0  0  0  0  0  0  0  0  0
  131.4013  129.0636   69.6183 H   0  0  0  0  0  0  0  0  0  0  0  0
  129.2690  129.8110   69.7450 H   0  0  0  0  0  0  0  0  0  0  0  0
  131.6515  123.4591   64.8423 H   0  0  0  0  0  0  0  0  0  0  0  0
  129.9070  121.8396   65.3306 H   0  0  0  0  0  0  0  0  0  0  0  0
  128.7123  123.1199   65.6735 H   0  0  0  0  0  0  0  0  0  0  0  0
  128.9167  121.5622   63.2683 H   0  0  0  0  0  0  0  0  0  0  0  0
  127.8733  122.9583   63.4885 H   0  0  0  0  0  0  0  0  0  0  0  0
  130.6772  122.7618   62.3632 H   0  0  0  0  0  0  0  0  0  0  0  0
  128.5087  124.5330   61.4034 H   0  0  0  0  0  0  0  0  0  0  0  0
  129.6709  121.9732   60.2836 H   0  0  0  0  0  0  0  0  0  0  0  0
  127.9967  122.2642   60.9491 H   0  0  0  0  0  0  0  0  0  0  0  0
  128.5200  122.2862   58.3426 H   0  0  0  0  0  0  0  0  0  0  0  0
  127.3101  123.4278   59.1968 H   0  0  0  0  0  0  0  0  0  0  0  0
  129.3139  124.0278   57.3630 H   0  0  0  0  0  0  0  0  0  0  0  0
  125.9801  124.7261   57.7791 H   0  0  0  0  0  0  0  0  0  0  0  0
  126.4938  125.9264   56.5454 H   0  0  0  0  0  0  0  0  0  0  0  0
  127.2063  124.2775   56.5454 H   0  0  0  0  0  0  0  0  0  0  0  0
  127.9323  125.6080   60.3114 H   0  0  0  0  0  0  0  0  0  0  0  0
  127.5310  127.1837   59.5481 H   0  0  0  0  0  0  0  0  0  0  0  0
  126.3248  125.8527   59.5481 H   0  0  0  0  0  0  0  0  0  0  0  0
  128.9716  126.3161   56.4298 H   0  0  0  0  0  0  0  0  0  0  0  0
  127.2170  127.6330   56.4280 H   0  0  0  0  0  0  0  0  0  0  0  0
  130.4182  128.0543   57.4819 H   0  0  0  0  0  0  0  0  0  0  0  0
  129.6407  127.6947   59.0795 H   0  0  0  0  0  0  0  0  0  0  0  0
  131.3584  125.8288   57.3864 H   0  0  0  0  0  0  0  0  0  0  0  0
  131.7352  126.5454   59.0136 H   0  0  0  0  0  0  0  0  0  0  0  0
  131.2878  122.8951   59.3209 H   0  0  0  0  0  0  0  0  0  0  0  0
  132.4783  123.8973   59.3385 H   0  0  0  0  0  0  0  0  0  0  0  0
  132.1860  126.0041   60.9079 H   0  0  0  0  0  0  0  0  0  0  0  0
  130.5793  126.5907   61.5221 H   0  0  0  0  0  0  0  0  0  0  0  0
  132.3408  124.4083   62.7427 H   0  0  0  0  0  0  0  0  0  0  0  0
  131.9531  126.0507   63.4215 H   0  0  0  0  0  0  0  0  0  0  0  0
  129.0778  125.8655   64.8505 H   0  0  0  0  0  0  0  0  0  0  0  0
  129.5578  126.6539   63.3096 H   0  0  0  0  0  0  0  0  0  0  0  0
  128.2947  125.3768   63.3096 H   0  0  0  0  0  0  0  0  0  0  0  0
  1  2  1  0
  2  3  1  0
  3  4  1  0
  4  5  2  0
  5  6  1  0
  6  7  1  0
  6  8  1  0
  6  9  1  0
  2 10  1  0
 10 11  1  0
 11 12  1  0
 12 13  1  0
 13 14  1  0
 14 15  1  0
 15 16  1  0
 16 17  1  0
 17 18  1  0
 18 19  1  0
 18 20  1  0
 18 21  1  0
 21 22  1  0
 21 23  1  0
 23 24  1  0
 25 24  1  1
 25 26  1  0
 27 26  1  6
 27 28  1  0
 28 29  1  0
 29 30  1  0
 30 31  1  1
 30 10  1  0
 30 13  1  0
 27 14  1  0
 25 17  1  0
 27 25  1  0
  1 32  1  0
  1 33  1  0
  1 34  1  0
  2 35  1  1
  3 36  1  0
  3 37  1  0
  4 38  1  0
  5 39  1  0
  7 40  1  0
  7 41  1  0
  7 42  1  0
  8 43  1  0
  8 44  1  0
  8 45  1  0
  9 46  1  0
 10 47  1  6
 11 48  1  0
 11 49  1  0
 12 50  1  0
 12 51  1  0
 13 52  1  6
 14 53  1  1
 15 54  1  0
 15 55  1  0
 16 56  1  0
 16 57  1  0
 17 58  1  6
 19 59  1  0
 19 60  1  0
 19 61  1  0
 20 62  1  0
 20 63  1  0
 20 64  1  0
 21 65  1  6
 22 66  1  0
 23 67  1  0
 23 68  1  0
 24 69  1  0
 24 70  1  0
 26 71  1  0
 26 72  1  0
 28 73  1  0
 28 74  1  0
 29 75  1  0
 29 76  1  0
 31 77  1  0
 31 78  1  0
 31 79  1  0
M  END
>  <Binding energies>  (1) 
[-8.52]

>  <Ligand effiencies>  (1) 
[-0.2581818181818182]

>  <Interactions>  (1) 
["V-B:PRO:540:CA:9855, V-B:HIS:456:CD2:9039, V-A:GLU:543:C:4902, V-B:GLU:543:CB:9878, V-B:ALA:541:CB:9864, V-B:TYR:539:CE2:9848, V-A:TYR:484:CE2:4346, V-B:GLU:543:CG:9879, V-A:GLY:544:C:4912, V-B:TYR:539:CZ:9849, V-A:TYR:484:CZ:4347, V-A:GLU:543:CD:4908, V-B:HIS:456:CE1:9041, V-B:GLU:543:CA:9876, V-A:HIS:456:CE1:4070, H-B:HIS:456:NE2:9042, V-B:TYR:539:CD2:9846, V-B:GLU:543:CD:9880, H-B:TYR:531:OH:9767, V-A:GLU:543:CB:4906, H-A:GLU:543:O:4903"]

$$$$
ZINC2356441322
     RDKit          3D

 96102  0  0  0  0  0  0  0  0999 V2000
  133.6020  131.4920   59.6380 C   0  0  0  0  0  0  0  0  0  0  0  0
  132.1420  131.8500   59.2910 C   0  0  0  0  0  0  0  0  0  0  0  0
  131.2550  131.8200   60.5520 C   0  0  0  0  0  0  0  0  0  0  0  0
  131.5470  131.0190   58.1140 C   0  0  2  0  0  0  0  0  0  0  0  0
  132.6170  130.4650   57.1480 C   0  0  0  0  0  0  0  0  0  0  0  0
  130.4800  131.8180   57.3180 C   0  0  2  0  0  0  0  0  0  0  0  0
  129.7920  132.8320   58.0010 O   0  0  0  0  0  0  0  0  0  0  0  0
  128.9710  131.7930   57.5320 C   0  0  2  0  0  0  0  0  0  0  0  0
  128.1090  131.0790   58.6250 C   0  0  2  0  0  0  0  0  0  0  0  0
  126.6280  131.4380   58.3420 C   0  0  0  0  0  0  0  0  0  0  0  0
  128.3340  131.5620   59.9340 O   0  0  0  0  0  0  0  0  0  0  0  0
  128.2910  129.5140   58.5700 C   0  0  2  0  0  0  0  0  0  0  0  0
  127.0160  128.6990   58.2020 C   0  0  0  0  0  0  0  0  0  0  0  0
  127.1530  127.3220   58.8830 C   0  0  0  0  0  0  0  0  0  0  0  0
  128.6270  127.2460   59.3360 C   0  0  2  0  0  0  0  0  0  0  0  0
  129.3750  126.8600   58.1830 O   0  0  0  0  0  0  0  0  0  0  0  0
  129.0250  126.2930   60.4810 C   0  0  0  0  0  0  0  0  0  0  0  0
  128.1990  125.3360   60.9570 C   0  0  0  0  0  0  0  0  0  0  0  0
  128.5940  124.3040   61.8990 C   0  0  0  0  0  0  0  0  0  0  0  0
  127.7380  123.5970   62.4310 O   0  0  0  0  0  0  0  0  0  0  0  0
  130.1370  124.0880   62.0710 C   0  0  2  0  0  0  0  0  0  0  0  0
  130.6000  123.2970   60.7720 C   0  0  0  0  0  0  0  0  0  0  0  0
  130.7470  121.7730   60.8800 C   0  0  0  0  0  0  0  0  0  0  0  0
  129.7190  120.9980   61.4250 C   0  0  0  0  0  0  0  0  0  0  0  0
  129.8630  119.6170   61.5260 C   0  0  0  0  0  0  0  0  0  0  0  0
  131.0390  119.0100   61.0890 C   0  0  0  0  0  0  0  0  0  0  0  0
  131.1800  117.6520   61.1860 O   0  0  0  0  0  0  0  0  0  0  0  0
  132.0760  119.7760   60.5580 C   0  0  0  0  0  0  0  0  0  0  0  0
  131.9310  121.1570   60.4580 C   0  0  0  0  0  0  0  0  0  0  0  0
  130.5070  123.2820   63.3840 C   0  0  1  0  0  0  0  0  0  0  0  0
  132.0550  123.0960   63.5080 C   0  0  0  0  0  0  0  0  0  0  0  0
  132.8620  124.4070   63.4230 C   0  0  0  0  0  0  0  0  0  0  0  0
  132.3810  125.3020   62.2640 C   0  0  0  0  0  0  0  0  0  0  0  0
  130.8290  125.5150   62.2180 C   0  0  2  0  0  0  0  0  0  0  0  0
  130.3820  126.2450   63.5480 C   0  0  0  0  0  0  0  0  0  0  0  0
  130.0990  125.4260   64.8440 C   0  0  2  0  0  0  0  0  0  0  0  0
  131.0280  125.7710   65.8590 O   0  0  0  0  0  0  0  0  0  0  0  0
  129.8670  123.8980   64.6680 C   0  0  2  0  0  0  0  0  0  0  0  0
  130.1830  123.1430   65.8280 O   0  0  0  0  0  0  0  0  0  0  0  0
  130.5000  126.4370   60.9610 C   0  0  2  0  0  0  0  0  0  0  0  0
  130.9310  127.9430   61.1030 C   0  0  0  0  0  0  0  0  0  0  0  0
  130.4260  128.8680   59.9750 C   0  0  0  0  0  0  0  0  0  0  0  0
  128.8930  128.7240   59.7870 C   0  0  1  0  0  0  0  0  0  0  0  0
  128.1450  129.0980   61.1120 C   0  0  0  0  0  0  0  0  0  0  0  0
  133.7224  131.4625   60.7310 H   0  0  0  0  0  0  0  0  0  0  0  0
  133.8484  130.5068   59.2152 H   0  0  0  0  0  0  0  0  0  0  0  0
  134.2762  132.2514   59.2152 H   0  0  0  0  0  0  0  0  0  0  0  0
  132.1559  132.8827   58.9124 H   0  0  0  0  0  0  0  0  0  0  0  0
  131.8917  131.8415   61.4487 H   0  0  0  0  0  0  0  0  0  0  0  0
  130.5899  132.6962   60.5534 H   0  0  0  0  0  0  0  0  0  0  0  0
  130.6506  130.9009   60.5534 H   0  0  0  0  0  0  0  0  0  0  0  0
  131.0620  130.1562   58.5938 H   0  0  0  0  0  0  0  0  0  0  0  0
  133.4471  130.0352   57.7278 H   0  0  0  0  0  0  0  0  0  0  0  0
  132.1701  129.6850   56.5141 H   0  0  0  0  0  0  0  0  0  0  0  0
  132.9960  131.2802   56.5141 H   0  0  0  0  0  0  0  0  0  0  0  0
  131.1023  131.6675   56.4235 H   0  0  0  0  0  0  0  0  0  0  0  0
  128.1613  131.5560   56.8262 H   0  0  0  0  0  0  0  0  0  0  0  0
  126.0936  131.5675   59.2947 H   0  0  0  0  0  0  0  0  0  0  0  0
  126.5812  132.3735   57.7652 H   0  0  0  0  0  0  0  0  0  0  0  0
  126.1581  130.6278   57.7652 H   0  0  0  0  0  0  0  0  0  0  0  0
  128.8310  132.3800   59.8740 H   0  0  0  0  0  0  0  0  0  0  0  0
  129.0525  129.5604   57.7775 H   0  0  0  0  0  0  0  0  0  0  0  0
  126.1174  129.2155   58.5704 H   0  0  0  0  0  0  0  0  0  0  0  0
  126.9184  128.5913   57.1116 H   0  0  0  0  0  0  0  0  0  0  0  0
  126.4781  127.2498   59.7487 H   0  0  0  0  0  0  0  0  0  0  0  0
  126.8855  126.4974   58.2059 H   0  0  0  0  0  0  0  0  0  0  0  0
  129.8790  127.6190   57.8810 H   0  0  0  0  0  0  0  0  0  0  0  0
  127.1561  125.3387   60.6072 H   0  0  0  0  0  0  0  0  0  0  0  0
  129.8617  123.5008   59.9825 H   0  0  0  0  0  0  0  0  0  0  0  0
  131.6185  123.6614   60.5725 H   0  0  0  0  0  0  0  0  0  0  0  0
  128.7944  121.4804   61.7748 H   0  0  0  0  0  0  0  0  0  0  0  0
  129.0514  119.0070   61.9493 H   0  0  0  0  0  0  0  0  0  0  0  0
  132.0060  117.3910   61.5980 H   0  0  0  0  0  0  0  0  0  0  0  0
  133.0039  119.2916   60.2198 H   0  0  0  0  0  0  0  0  0  0  0  0
  132.7493  121.7659   60.0461 H   0  0  0  0  0  0  0  0  0  0  0  0
  130.0643  122.2794   63.2907 H   0  0  0  0  0  0  0  0  0  0  0  0
  132.2682  122.6228   64.4779 H   0  0  0  0  0  0  0  0  0  0  0  0
  132.3669  122.4789   62.6525 H   0  0  0  0  0  0  0  0  0  0  0  0
  132.7477  124.9572   64.3686 H   0  0  0  0  0  0  0  0  0  0  0  0
  133.9155  124.1484   63.2404 H   0  0  0  0  0  0  0  0  0  0  0  0
  132.8614  126.2863   62.3660 H   0  0  0  0  0  0  0  0  0  0  0  0
  132.6571  124.7874   61.3318 H   0  0  0  0  0  0  0  0  0  0  0  0
  131.1779  126.9626   63.7963 H   0  0  0  0  0  0  0  0  0  0  0  0
  129.3915  126.6469   63.2884 H   0  0  0  0  0  0  0  0  0  0  0  0
  129.0981  125.7373   65.1774 H   0  0  0  0  0  0  0  0  0  0  0  0
  131.4780  126.5770   65.6000 H   0  0  0  0  0  0  0  0  0  0  0  0
  128.7801  123.8202   64.5180 H   0  0  0  0  0  0  0  0  0  0  0  0
  130.8970  123.5840   66.2940 H   0  0  0  0  0  0  0  0  0  0  0  0
  131.1485  126.0388   60.1667 H   0  0  0  0  0  0  0  0  0  0  0  0
  130.5397  128.3227   62.0584 H   0  0  0  0  0  0  0  0  0  0  0  0
  132.0295  127.9580   61.0485 H   0  0  0  0  0  0  0  0  0  0  0  0
  130.6610  129.9113   60.2323 H   0  0  0  0  0  0  0  0  0  0  0  0
  130.9239  128.5826   59.0366 H   0  0  0  0  0  0  0  0  0  0  0  0
  128.7544  128.7933   61.9756 H   0  0  0  0  0  0  0  0  0  0  0  0
  127.9794  130.1850   61.1453 H   0  0  0  0  0  0  0  0  0  0  0  0
  127.1761  128.5783   61.1453 H   0  0  0  0  0  0  0  0  0  0  0  0
  1  2  1  0
  2  3  1  0
  2  4  1  0
  4  5  1  0
  4  6  1  0
  6  7  1  0
  7  8  1  0
  8  9  1  0
  9 10  1  0
  9 11  1  1
  9 12  1  0
 12 13  1  0
 13 14  1  0
 14 15  1  0
 15 16  1  6
 15 17  1  0
 17 18  2  0
 18 19  1  0
 19 20  2  0
 19 21  1  0
 21 22  1  6
 22 23  1  0
 23 24  2  0
 24 25  1  0
 25 26  2  0
 26 27  1  0
 26 28  1  0
 28 29  2  0
 21 30  1  0
 30 31  1  0
 31 32  1  0
 32 33  1  0
 34 33  1  1
 34 35  1  0
 35 36  1  0
 36 37  1  0
 36 38  1  0
 38 39  1  0
 34 40  1  0
 40 41  1  0
 41 42  1  0
 42 43  1  0
 43 44  1  1
  8  6  1  0
 43 12  1  0
 43 15  1  0
 40 17  1  0
 34 21  1  0
 29 23  1  0
 38 30  1  0
  1 45  1  0
  1 46  1  0
  1 47  1  0
  2 48  1  0
  3 49  1  0
  3 50  1  0
  3 51  1  0
  4 52  1  1
  5 53  1  0
  5 54  1  0
  5 55  1  0
  6 56  1  6
  8 57  1  6
 10 58  1  0
 10 59  1  0
 10 60  1  0
 11 61  1  0
 12 62  1  6
 13 63  1  0
 13 64  1  0
 14 65  1  0
 14 66  1  0
 16 67  1  0
 18 68  1  0
 22 69  1  0
 22 70  1  0
 24 71  1  0
 25 72  1  0
 27 73  1  0
 28 74  1  0
 29 75  1  0
 30 76  1  6
 31 77  1  0
 31 78  1  0
 32 79  1  0
 32 80  1  0
 33 81  1  0
 33 82  1  0
 35 83  1  0
 35 84  1  0
 36 85  1  1
 37 86  1  0
 38 87  1  6
 39 88  1  0
 40 89  1  6
 41 90  1  0
 41 91  1  0
 42 92  1  0
 42 93  1  0
 44 94  1  0
 44 95  1  0
 44 96  1  0
M  END
>  <Binding energies>  (1) 
[-8.79]

>  <Ligand effiencies>  (1) 
[-0.1793877551020408]

>  <Interactions>  (1) 
["H-A:GLU:543:OE2:4910, V-B:ALA:541:CB:9864, H-A:TYR:531:OH:4795, V-B:TYR:539:CE2:9848, V-A:LEU:475:CG:4257, V-B:GLU:543:CG:9879, V-B:TYR:539:C:9839, V-A:ASP:366:CG:3213, V-A:LEU:363:CD1:3189, V-A:LEU:363:CB:3187, V-A:TYR:531:CE2:4793, V-A:GLU:543:CD:4908, V-B:TYR:539:CD2:9846, V-A:TYR:531:CZ:4794, V-A:SER:385:CB:3409, H-A:SER:385:OG:3410, V-B:GLU:543:CD:9880, V-A:LEU:475:CD2:4259, H-A:GLU:543:OE1:4909, H-A:HIS:383:HE2:3395, V-A:PRO:540:CB:4885, V-A:PRO:540:CA:4883, V-A:LEU:363:CA:3185, V-A:TYR:539:CE1:4875, H-A:TYR:484:OH:4348"]

$$$$
ZINC2356448259
     RDKit          3D

 86 91  0  0  0  0  0  0  0  0999 V2000
  132.8850  124.0340   59.6680 C   0  0  0  0  0  0  0  0  0  0  0  0
  134.3290  123.9320   60.7660 S   0  0  0  0  0  0  0  0  0  0  0  0
  133.9830  122.2940   61.5250 C   0  0  0  0  0  0  0  0  0  0  0  0
  134.1940  121.2110   60.9790 O   0  0  0  0  0  0  0  0  0  0  0  0
  133.4100  122.3630   62.9450 C   0  0  0  0  0  0  0  0  0  0  0  0
  132.0800  123.1120   63.0390 C   0  0  1  0  0  0  0  0  0  0  0  0
  131.2990  122.7660   61.9220 O   0  0  0  0  0  0  0  0  0  0  0  0
  130.0510  123.4720   61.8450 C   0  0  1  0  0  0  0  0  0  0  0  0
  129.0530  122.9350   60.7550 C   0  0  1  0  0  0  0  0  0  0  0  0
  128.9200  121.3990   60.9300 C   0  0  0  0  0  0  0  0  0  0  0  0
  127.6580  123.7050   60.6100 C   0  0  2  0  0  0  0  0  0  0  0  0
  126.8460  123.1910   61.6590 O   0  0  0  0  0  0  0  0  0  0  0  0
  126.9060  123.4390   59.2600 C   0  0  0  0  0  0  0  0  0  0  0  0
  127.2820  124.5560   58.2730 C   0  0  0  0  0  0  0  0  0  0  0  0
  128.1630  125.5090   59.0850 C   0  0  1  0  0  0  0  0  0  0  0  0
  128.2280  127.0110   58.6720 C   0  0  2  0  0  0  0  0  0  0  0  0
  128.5240  127.2080   57.1600 C   0  0  2  0  0  0  0  0  0  0  0  0
  129.6770  126.5080   56.7200 O   0  0  0  0  0  0  0  0  0  0  0  0
  128.6310  128.7040   56.8000 C   0  0  0  0  0  0  0  0  0  0  0  0
  129.7020  129.3680   57.6640 C   0  0  0  0  0  0  0  0  0  0  0  0
  130.7860  129.9680   57.1170 C   0  0  0  0  0  0  0  0  0  0  0  0
  131.8770  130.5870   57.8690 C   0  0  0  0  0  0  0  0  0  0  0  0
  132.8350  131.1420   57.3340 O   0  0  0  0  0  0  0  0  0  0  0  0
  131.7260  130.4710   59.3160 C   0  0  0  0  0  0  0  0  0  0  0  0
  130.6690  129.8890   59.9170 C   0  0  0  0  0  0  0  0  0  0  0  0
  129.4610  129.2650   59.1980 C   0  0  1  0  0  0  0  0  0  0  0  0
  128.2240  130.1220   59.5780 C   0  0  0  0  0  0  0  0  0  0  0  0
  129.2930  127.7430   59.5620 C   0  0  1  0  0  0  0  0  0  0  0  0
  129.0290  127.4870   61.0800 C   0  0  0  0  0  0  0  0  0  0  0  0
  128.8580  125.9870   61.4260 C   0  0  0  0  0  0  0  0  0  0  0  0
  127.7580  125.2900   60.5670 C   0  0  2  0  0  0  0  0  0  0  0  0
  126.3660  125.9260   60.9110 C   0  0  0  0  0  0  0  0  0  0  0  0
  129.4030  123.6340   63.2550 C   0  0  0  0  0  0  0  0  0  0  0  0
  130.4660  123.7570   64.3860 C   0  0  1  0  0  0  0  0  0  0  0  0
  129.8360  123.5820   65.7840 C   0  0  0  0  0  0  0  0  0  0  0  0
  131.3960  122.7150   64.1820 O   0  0  0  0  0  0  0  0  0  0  0  0
  131.4710  124.9440   64.2560 C   0  0  0  0  0  0  0  0  0  0  0  0
  130.8450  126.2990   63.8610 C   0  0  0  0  0  0  0  0  0  0  0  0
  132.4420  125.1210   65.4500 C   0  0  0  0  0  0  0  0  0  0  0  0
  132.2820  124.4900   63.1800 O   0  0  0  0  0  0  0  0  0  0  0  0
  131.9684  124.0987   60.2727 H   0  0  0  0  0  0  0  0  0  0  0  0
  132.9695  124.9284   59.0333 H   0  0  0  0  0  0  0  0  0  0  0  0
  132.8429  123.1366   59.0333 H   0  0  0  0  0  0  0  0  0  0  0  0
  133.2557  121.3357   63.3068 H   0  0  0  0  0  0  0  0  0  0  0  0
  134.1352  122.9205   63.5560 H   0  0  0  0  0  0  0  0  0  0  0  0
  130.3008  124.4792   61.4802 H   0  0  0  0  0  0  0  0  0  0  0  0
  129.4956  123.1641   59.7744 H   0  0  0  0  0  0  0  0  0  0  0  0
  128.8987  121.1526   62.0018 H   0  0  0  0  0  0  0  0  0  0  0  0
  127.9887  121.0552   60.4561 H   0  0  0  0  0  0  0  0  0  0  0  0
  129.7783  120.9003   60.4561 H   0  0  0  0  0  0  0  0  0  0  0  0
  126.6130  123.9170   62.2430 H   0  0  0  0  0  0  0  0  0  0  0  0
  127.2083  122.4635   58.8513 H   0  0  0  0  0  0  0  0  0  0  0  0
  125.8187  123.4287   59.4262 H   0  0  0  0  0  0  0  0  0  0  0  0
  127.8389  124.1467   57.4172 H   0  0  0  0  0  0  0  0  0  0  0  0
  126.3972  125.0593   57.8561 H   0  0  0  0  0  0  0  0  0  0  0  0
  129.2101  125.2458   58.8746 H   0  0  0  0  0  0  0  0  0  0  0  0
  127.2358  127.4546   58.8415 H   0  0  0  0  0  0  0  0  0  0  0  0
  127.6657  126.7739   56.6263 H   0  0  0  0  0  0  0  0  0  0  0  0
  130.4440  127.0660   56.8640 H   0  0  0  0  0  0  0  0  0  0  0  0
  128.9026  128.8059   55.7389 H   0  0  0  0  0  0  0  0  0  0  0  0
  127.6623  129.1921   56.9827 H   0  0  0  0  0  0  0  0  0  0  0  0
  130.8511  129.9916   56.0192 H   0  0  0  0  0  0  0  0  0  0  0  0
  132.5218  130.8829   59.9540 H   0  0  0  0  0  0  0  0  0  0  0  0
  130.6706  129.8577   61.0166 H   0  0  0  0  0  0  0  0  0  0  0  0
  128.1405  130.1799   60.6733 H   0  0  0  0  0  0  0  0  0  0  0  0
  128.3389  131.1350   59.1650 H   0  0  0  0  0  0  0  0  0  0  0  0
  127.3159  129.6585   59.1650 H   0  0  0  0  0  0  0  0  0  0  0  0
  130.2725  127.2980   59.3328 H   0  0  0  0  0  0  0  0  0  0  0  0
  129.8794  127.8833   61.6543 H   0  0  0  0  0  0  0  0  0  0  0  0
  128.0856  127.9909   61.3369 H   0  0  0  0  0  0  0  0  0  0  0  0
  129.8160  125.4750   61.2529 H   0  0  0  0  0  0  0  0  0  0  0  0
  128.5457  125.9235   62.4788 H   0  0  0  0  0  0  0  0  0  0  0  0
  126.2475  125.9801   62.0033 H   0  0  0  0  0  0  0  0  0  0  0  0
  126.3104  126.9388   60.4855 H   0  0  0  0  0  0  0  0  0  0  0  0
  125.5639  125.3050   60.4855 H   0  0  0  0  0  0  0  0  0  0  0  0
  128.7801  124.5406   63.2555 H   0  0  0  0  0  0  0  0  0  0  0  0
  128.8038  122.7333   63.4543 H   0  0  0  0  0  0  0  0  0  0  0  0
  130.5915  123.7919   66.5555 H   0  0  0  0  0  0  0  0  0  0  0  0
  128.9934  124.2801   65.8964 H   0  0  0  0  0  0  0  0  0  0  0  0
  129.4741  122.5493   65.8964 H   0  0  0  0  0  0  0  0  0  0  0  0
  130.5851  126.8616   64.7698 H   0  0  0  0  0  0  0  0  0  0  0  0
  131.5673  126.8770   63.2659 H   0  0  0  0  0  0  0  0  0  0  0  0
  129.9366  126.1237   63.2659 H   0  0  0  0  0  0  0  0  0  0  0  0
  131.8854  125.0195   66.3934 H   0  0  0  0  0  0  0  0  0  0  0  0
  133.2261  124.3510   65.4022 H   0  0  0  0  0  0  0  0  0  0  0  0
  132.9040  126.1182   65.4022 H   0  0  0  0  0  0  0  0  0  0  0  0
  1  2  1  0
  2  3  1  0
  3  4  2  0
  3  5  1  0
  6  5  1  6
  6  7  1  0
  7  8  1  0
  8  9  1  0
  9 10  1  0
  9 11  1  0
 11 12  1  1
 11 13  1  0
 13 14  1  0
 14 15  1  0
 15 16  1  0
 16 17  1  0
 17 18  1  0
 17 19  1  0
 19 20  1  0
 20 21  2  0
 21 22  1  0
 22 23  2  0
 22 24  1  0
 24 25  2  0
 25 26  1  0
 26 27  1  6
 26 28  1  0
 28 29  1  0
 29 30  1  0
 30 31  1  0
 31 32  1  6
  8 33  1  0
 33 34  1  0
 34 35  1  1
 34 36  1  0
 34 37  1  0
 37 38  1  0
 37 39  1  0
 37 40  1  0
 36  6  1  0
 40  6  1  0
 31 11  1  0
 31 15  1  0
 28 16  1  0
 26 20  1  0
  1 41  1  0
  1 42  1  0
  1 43  1  0
  5 44  1  0
  5 45  1  0
  8 46  1  6
  9 47  1  6
 10 48  1  0
 10 49  1  0
 10 50  1  0
 12 51  1  0
 13 52  1  0
 13 53  1  0
 14 54  1  0
 14 55  1  0
 15 56  1  1
 16 57  1  6
 17 58  1  6
 18 59  1  0
 19 60  1  0
 19 61  1  0
 21 62  1  0
 24 63  1  0
 25 64  1  0
 27 65  1  0
 27 66  1  0
 27 67  1  0
 28 68  1  6
 29 69  1  0
 29 70  1  0
 30 71  1  0
 30 72  1  0
 32 73  1  0
 32 74  1  0
 32 75  1  0
 33 76  1  0
 33 77  1  0
 35 78  1  0
 35 79  1  0
 35 80  1  0
 38 81  1  0
 38 82  1  0
 38 83  1  0
 39 84  1  0
 39 85  1  0
 39 86  1  0
M  END
>  <Binding energies>  (1) 
[-8.83]

>  <Ligand effiencies>  (1) 
[-0.21023809523809525]

>  <Interactions>  (1) 
["V-A:ILE:369:CG2:3237, V-B:PRO:540:CA:9855, V-A:GLY:454:CA:4049, V-B:GLU:543:CB:9878, V-B:ALA:541:CB:9864, V-B:ASP:366:CG:8184, H-A:TYR:531:OH:4795, V-A:TYR:484:CE2:4346, V-B:TYR:539:CE2:9848, V-B:GLU:543:CG:9879, V-B:TYR:539:C:9839, H-B:GLU:543:OE1:9881, H-B:TYR:539:OH:9850, H-B:ALA:541:N:9863, V-A:TYR:484:CZ:4347, V-A:GLU:543:CD:4908, V-B:PRO:540:CB:9857, V-B:GLU:543:CA:9876, V-B:PRO:540:N:9856, V-A:ILE:369:CD1:3239, V-B:TYR:539:CD2:9846, V-A:TYR:531:CZ:4794, H-A:SER:385:OG:3410, V-A:MET:535:CE:4835, V-A:LEU:475:CD2:4259, V-A:ARG:545:CZ:4926, V-B:PRO:540:C:9853, H-A:TYR:484:OH:4348"]

$$$$
ZINC2356450355
     RDKit          3D

 40 40  0  0  0  0  0  0  0  0999 V2000
  133.9730  124.3470   58.8430 C   0  0  0  0  0  0  0  0  0  0  0  0
  134.1750  124.0510   60.1390 C   0  0  0  0  0  0  0  0  0  0  0  0
  133.2500  124.3650   61.3150 C   0  0  2  0  0  0  0  0  0  0  0  0
  133.9330  124.1320   62.6890 C   0  0  0  0  0  0  0  0  0  0  0  0
  133.1030  124.7930   63.8130 C   0  0  2  0  0  0  0  0  0  0  0  0
  133.8030  124.7170   65.0400 O   0  0  0  0  0  0  0  0  0  0  0  0
  131.6390  124.2190   63.8390 C   0  0  1  0  0  0  0  0  0  0  0  0
  130.7430  124.7150   65.0350 C   0  0  0  0  0  0  0  0  0  0  0  0
  129.8580  125.9300   64.6740 C   0  0  0  0  0  0  0  0  0  0  0  0
  129.8730  123.5840   65.6340 C   0  0  0  0  0  0  0  0  0  0  0  0
  131.5790  125.1150   66.1070 O   0  0  0  0  0  0  0  0  0  0  0  0
  131.0060  124.4790   62.4350 C   0  0  0  0  0  0  0  0  0  0  0  0
  131.7940  123.7930   61.2790 C   0  0  2  0  0  0  0  0  0  0  0  0
  131.6270  122.2530   61.2980 C   0  0  0  0  0  0  0  0  0  0  0  0
  130.4540  121.5950   61.3930 C   0  0  0  0  0  0  0  0  0  0  0  0
  132.9250  121.4570   61.2430 C   0  0  0  0  0  0  0  0  0  0  0  0
  134.7233  124.0628   58.0905 H   0  0  0  0  0  0  0  0  0  0  0  0
  133.0574  124.8734   58.5353 H   0  0  0  0  0  0  0  0  0  0  0  0
  135.1101  123.5242   60.3799 H   0  0  0  0  0  0  0  0  0  0  0  0
  133.0787  125.4426   61.1759 H   0  0  0  0  0  0  0  0  0  0  0  0
  134.0080  123.0512   62.8795 H   0  0  0  0  0  0  0  0  0  0  0  0
  134.9377  124.5795   62.6724 H   0  0  0  0  0  0  0  0  0  0  0  0
  132.9749  125.8673   63.6141 H   0  0  0  0  0  0  0  0  0  0  0  0
  133.2190  124.3390   65.7010 H   0  0  0  0  0  0  0  0  0  0  0  0
  131.6945  123.1386   64.0380 H   0  0  0  0  0  0  0  0  0  0  0  0
  129.5055  126.4139   65.5968 H   0  0  0  0  0  0  0  0  0  0  0  0
  130.4454  126.6491   64.0842 H   0  0  0  0  0  0  0  0  0  0  0  0
  128.9934  125.5915   64.0842 H   0  0  0  0  0  0  0  0  0  0  0  0
  129.9116  123.6342   66.7322 H   0  0  0  0  0  0  0  0  0  0  0  0
  128.8326  123.7045   65.2978 H   0  0  0  0  0  0  0  0  0  0  0  0
  130.2564  122.6093   65.2978 H   0  0  0  0  0  0  0  0  0  0  0  0
  132.0960  124.3560   66.3880 H   0  0  0  0  0  0  0  0  0  0  0  0
  129.9766  124.0912   62.4367 H   0  0  0  0  0  0  0  0  0  0  0  0
  131.0341  125.5639   62.2557 H   0  0  0  0  0  0  0  0  0  0  0  0
  131.3886  124.0338   60.2852 H   0  0  0  0  0  0  0  0  0  0  0  0
  130.4392  120.4951   61.3983 H   0  0  0  0  0  0  0  0  0  0  0  0
  129.5118  122.1581   61.4652 H   0  0  0  0  0  0  0  0  0  0  0  0
  133.2693  121.2459   62.2662 H   0  0  0  0  0  0  0  0  0  0  0  0
  132.7519  120.5096   60.7116 H   0  0  0  0  0  0  0  0  0  0  0  0
  133.6909  122.0409   60.7116 H   0  0  0  0  0  0  0  0  0  0  0  0
  1  2  2  0
  2  3  1  0
  3  4  1  0
  4  5  1  0
  5  6  1  0
  5  7  1  0
  7  8  1  0
  8  9  1  0
  8 10  1  0
  8 11  1  0
  7 12  1  0
 12 13  1  0
 13 14  1  0
 14 15  2  0
 14 16  1  0
 13  3  1  0
  1 17  1  0
  1 18  1  0
  2 19  1  0
  3 20  1  1
  4 21  1  0
  4 22  1  0
  5 23  1  6
  6 24  1  0
  7 25  1  1
  9 26  1  0
  9 27  1  0
  9 28  1  0
 10 29  1  0
 10 30  1  0
 10 31  1  0
 11 32  1  0
 12 33  1  0
 12 34  1  0
 13 35  1  6
 15 36  1  0
 15 37  1  0
 16 38  1  0
 16 39  1  0
 16 40  1  0
M  END
>  <Binding energies>  (1) 
[-5.58]

>  <Ligand effiencies>  (1) 
[-0.31]

>  <Interactions>  (1) 
["V-A:ILE:369:CG2:3237, V-A:ASP:366:CA:3210, V-A:ILE:369:CB:3236, V-B:GLU:543:CB:9878, V-B:TYR:539:CE2:9848, V-A:TYR:484:CE2:4346, V-B:GLU:543:CG:9879, V-A:ASP:366:CG:3213, V-A:GLU:543:CD:4908, V-A:TYR:484:CZ:4347, H-A:GLY:454:N:4050, V-A:ILE:369:CD1:3239, V-A:ASP:366:C:3208, V-B:TYR:539:CD2:9846, V-B:GLU:543:CD:9880, V-A:ASP:366:CB:3212, V-A:LEU:475:CD2:4259, H-A:ARG:545:NH2:4928, V-A:ARG:545:CZ:4926, H-A:ARG:545:NE:4924, H-A:TYR:484:OH:4348"]

$$$$
ZINC2356450384
     RDKit          3D

107113  0  0  0  0  0  0  0  0999 V2000
  126.0820  128.5820   61.2850 C   0  0  0  0  0  0  0  0  0  0  0  0
  126.4990  129.3730   60.2770 C   0  0  0  0  0  0  0  0  0  0  0  0
  125.6680  130.5650   59.8230 C   0  0  0  0  0  0  0  0  0  0  0  0
  127.8110  129.1570   59.5060 C   0  0  2  0  0  0  0  0  0  0  0  0
  127.9060  127.8340   58.6960 C   0  0  0  0  0  0  0  0  0  0  0  0
  129.2080  127.0700   58.8920 C   0  0  0  0  0  0  0  0  0  0  0  0
  129.7900  126.2180   58.0230 C   0  0  0  0  0  0  0  0  0  0  0  0
  131.1120  125.5420   58.3450 C   0  0  0  0  0  0  0  0  0  0  0  0
  129.2030  125.8320   56.6710 C   0  0  0  0  0  0  0  0  0  0  0  0
  129.0510  129.3570   60.4140 C   0  0  0  0  0  0  0  0  0  0  0  0
  128.7830  130.2500   61.6340 C   0  0  0  0  0  0  0  0  0  0  0  0
  128.6940  131.6430   61.4940 C   0  0  0  0  0  0  0  0  0  0  0  0
  128.8500  132.1740   60.2250 O   0  0  0  0  0  0  0  0  0  0  0  0
  129.7000  131.5680   59.2920 C   0  0  1  0  0  0  0  0  0  0  0  0
  129.5810  132.2220   58.0490 O   0  0  0  0  0  0  0  0  0  0  0  0
  130.4010  131.6850   57.0030 C   0  0  2  0  0  0  0  0  0  0  0  0
  129.9440  130.2700   56.5560 C   0  0  0  0  0  0  0  0  0  0  0  0
  130.7090  129.2530   57.1720 O   0  0  0  0  0  0  0  0  0  0  0  0
  131.8930  131.8430   57.3960 C   0  0  2  0  0  0  0  0  0  0  0  0
  132.7760  131.3500   56.4040 O   0  0  0  0  0  0  0  0  0  0  0  0
  132.1640  131.2300   58.7880 C   0  0  1  0  0  0  0  0  0  0  0  0
  133.4940  131.4730   59.2160 O   0  0  0  0  0  0  0  0  0  0  0  0
  131.1330  131.7360   59.8280 C   0  0  2  0  0  0  0  0  0  0  0  0
  131.2960  131.0820   61.0750 O   0  0  0  0  0  0  0  0  0  0  0  0
  128.4670  132.4220   62.6370 C   0  0  0  0  0  0  0  0  0  0  0  0
  128.3080  131.8410   63.8950 C   0  0  0  0  0  0  0  0  0  0  0  0
  128.0910  132.6920   64.9510 O   0  0  0  0  0  0  0  0  0  0  0  0
  128.3570  130.4410   64.0460 C   0  0  0  0  0  0  0  0  0  0  0  0
  128.6220  129.6650   62.8990 C   0  0  0  0  0  0  0  0  0  0  0  0
  128.6960  128.2830   62.9420 O   0  0  0  0  0  0  0  0  0  0  0  0
  129.1130  127.7140   64.1850 C   0  0  2  0  0  0  0  0  0  0  0  0
  129.1970  126.1900   64.0360 C   0  0  0  0  0  0  0  0  0  0  0  0
  129.1210  125.5780   62.7720 C   0  0  0  0  0  0  0  0  0  0  0  0
  129.2030  124.1900   62.6600 C   0  0  0  0  0  0  0  0  0  0  0  0
  129.3550  123.4210   63.7950 C   0  0  0  0  0  0  0  0  0  0  0  0
  129.4670  123.9880   65.0580 C   0  0  0  0  0  0  0  0  0  0  0  0
  129.3860  125.3800   65.1770 C   0  0  0  0  0  0  0  0  0  0  0  0
  129.5000  125.9320   66.4270 O   0  0  0  0  0  0  0  0  0  0  0  0
  129.3880  122.0730   63.5420 O   0  0  0  0  0  0  0  0  0  0  0  0
  129.0780  121.8870   62.1560 C   0  0  2  0  0  0  0  0  0  0  0  0
  129.8920  120.7800   61.4960 C   0  0  0  0  0  0  0  0  0  0  0  0
  131.0440  121.0980   60.7710 C   0  0  0  0  0  0  0  0  0  0  0  0
  131.7930  120.0870   60.1750 C   0  0  0  0  0  0  0  0  0  0  0  0
  131.3900  118.7590   60.3050 C   0  0  0  0  0  0  0  0  0  0  0  0
  132.1270  117.7650   59.7180 O   0  0  0  0  0  0  0  0  0  0  0  0
  130.2430  118.4350   61.0290 C   0  0  0  0  0  0  0  0  0  0  0  0
  129.4940  119.4460   61.6250 C   0  0  0  0  0  0  0  0  0  0  0  0
  129.1800  123.2710   61.4760 C   0  0  1  0  0  0  0  0  0  0  0  0
  128.1000  123.5600   60.4320 C   0  0  0  0  0  0  0  0  0  0  0  0
  127.8070  122.6110   59.4470 C   0  0  0  0  0  0  0  0  0  0  0  0
  126.8260  122.8700   58.4880 C   0  0  0  0  0  0  0  0  0  0  0  0
  126.5460  121.9350   57.5260 O   0  0  0  0  0  0  0  0  0  0  0  0
  126.1320  124.0790   58.5070 C   0  0  0  0  0  0  0  0  0  0  0  0
  126.4180  125.0300   59.4860 C   0  0  0  0  0  0  0  0  0  0  0  0
  125.7370  126.2190   59.5080 O   0  0  0  0  0  0  0  0  0  0  0  0
  127.3980  124.7710   60.4460 C   0  0  0  0  0  0  0  0  0  0  0  0
  128.1620  128.2240   65.2940 C   0  0  0  0  0  0  0  0  0  0  0  0
  128.2660  129.7490   65.3770 C   0  0  0  0  0  0  0  0  0  0  0  0
  128.2890  130.3500   66.4510 O   0  0  0  0  0  0  0  0  0  0  0  0
  126.6945  127.7246   61.6008 H   0  0  0  0  0  0  0  0  0  0  0  0
  125.1291  128.7937   61.7921 H   0  0  0  0  0  0  0  0  0  0  0  0
  125.2910  131.1058   60.7036 H   0  0  0  0  0  0  0  0  0  0  0  0
  126.2931  131.2389   59.2187 H   0  0  0  0  0  0  0  0  0  0  0  0
  124.8195  130.2116   59.2187 H   0  0  0  0  0  0  0  0  0  0  0  0
  127.8007  129.9451   58.7387 H   0  0  0  0  0  0  0  0  0  0  0  0
  127.0748  127.1821   59.0028 H   0  0  0  0  0  0  0  0  0  0  0  0
  127.8619  128.1125   57.6327 H   0  0  0  0  0  0  0  0  0  0  0  0
  129.7313  127.2301   59.8462 H   0  0  0  0  0  0  0  0  0  0  0  0
  131.2353  125.4789   59.4362 H   0  0  0  0  0  0  0  0  0  0  0  0
  131.1200  124.5292   57.9159 H   0  0  0  0  0  0  0  0  0  0  0  0
  131.9378  126.1285   57.9159 H   0  0  0  0  0  0  0  0  0  0  0  0
  128.2928  125.2335   56.8238 H   0  0  0  0  0  0  0  0  0  0  0  0
  128.9527  126.7424   56.1065 H   0  0  0  0  0  0  0  0  0  0  0  0
  129.9397  125.2415   56.1065 H   0  0  0  0  0  0  0  0  0  0  0  0
  129.3829  128.3710   60.7712 H   0  0  0  0  0  0  0  0  0  0  0  0
  129.8167  129.8621   59.8070 H   0  0  0  0  0  0  0  0  0  0  0  0
  129.4473  130.5066   59.1519 H   0  0  0  0  0  0  0  0  0  0  0  0
  130.2736  132.2644   56.0767 H   0  0  0  0  0  0  0  0  0  0  0  0
  128.8868  130.1347   56.8280 H   0  0  0  0  0  0  0  0  0  0  0  0
  130.0849  130.1927   55.4678 H   0  0  0  0  0  0  0  0  0  0  0  0
  131.6360  129.4050   56.9760 H   0  0  0  0  0  0  0  0  0  0  0  0
  132.1009  132.9211   57.4630 H   0  0  0  0  0  0  0  0  0  0  0  0
  132.7810  130.3910   56.4450 H   0  0  0  0  0  0  0  0  0  0  0  0
  132.0458  130.1399   58.7002 H   0  0  0  0  0  0  0  0  0  0  0  0
  133.7710  130.7520   59.7860 H   0  0  0  0  0  0  0  0  0  0  0  0
  131.3130  132.8082   59.9950 H   0  0  0  0  0  0  0  0  0  0  0  0
  132.1150  130.5810   61.0540 H   0  0  0  0  0  0  0  0  0  0  0  0
  128.4130  133.5164   62.5396 H   0  0  0  0  0  0  0  0  0  0  0  0
  128.4130  132.3420   65.7850 H   0  0  0  0  0  0  0  0  0  0  0  0
  130.1240  128.0298   64.4820 H   0  0  0  0  0  0  0  0  0  0  0  0
  128.9966  126.1951   61.8699 H   0  0  0  0  0  0  0  0  0  0  0  0
  129.6162  123.3562   65.9460 H   0  0  0  0  0  0  0  0  0  0  0  0
  130.1660  126.6210   66.4740 H   0  0  0  0  0  0  0  0  0  0  0  0
  128.0512  121.5107   62.0370 H   0  0  0  0  0  0  0  0  0  0  0  0
  131.3589  122.1473   60.6713 H   0  0  0  0  0  0  0  0  0  0  0  0
  132.6995  120.3353   59.6036 H   0  0  0  0  0  0  0  0  0  0  0  0
  132.9180  118.0930   59.2840 H   0  0  0  0  0  0  0  0  0  0  0  0
  129.9313  117.3848   61.1288 H   0  0  0  0  0  0  0  0  0  0  0  0
  128.5889  119.1951   62.1975 H   0  0  0  0  0  0  0  0  0  0  0  0
  130.0668  123.3806   60.8345 H   0  0  0  0  0  0  0  0  0  0  0  0
  128.3523  121.6558   59.4279 H   0  0  0  0  0  0  0  0  0  0  0  0
  126.4460  122.3170   56.6510 H   0  0  0  0  0  0  0  0  0  0  0  0
  125.3597  124.2825   57.7506 H   0  0  0  0  0  0  0  0  0  0  0  0
  125.5290  126.5140   60.3980 H   0  0  0  0  0  0  0  0  0  0  0  0
  127.6198  125.5228   61.2178 H   0  0  0  0  0  0  0  0  0  0  0  0
  127.1276  127.9374   65.0534 H   0  0  0  0  0  0  0  0  0  0  0  0
  128.4445  127.7791   66.2595 H   0  0  0  0  0  0  0  0  0  0  0  0
  1  2  2  0
  2  3  1  0
  2  4  1  0
  4  5  1  0
  5  6  1  0
  6  7  2  3
  7  8  1  0
  7  9  1  0
  4 10  1  0
 10 11  1  0
 11 12  2  0
 12 13  1  0
 13 14  1  0
 14 15  1  0
 15 16  1  0
 16 17  1  0
 17 18  1  0
 16 19  1  0
 19 20  1  0
 19 21  1  0
 21 22  1  0
 21 23  1  0
 23 24  1  0
 12 25  1  0
 25 26  2  0
 26 27  1  0
 26 28  1  0
 28 29  2  0
 29 30  1  0
 30 31  1  0
 31 32  1  0
 32 33  2  0
 33 34  1  0
 34 35  2  0
 35 36  1  0
 36 37  2  0
 37 38  1  0
 35 39  1  0
 39 40  1  0
 40 41  1  0
 41 42  2  0
 42 43  1  0
 43 44  2  0
 44 45  1  0
 44 46  1  0
 46 47  2  0
 40 48  1  0
 48 49  1  0
 49 50  2  0
 50 51  1  0
 51 52  1  0
 51 53  2  0
 53 54  1  0
 54 55  1  0
 54 56  2  0
 31 57  1  0
 57 58  1  0
 58 59  2  0
 29 11  1  0
 37 32  1  0
 47 41  1  0
 56 49  1  0
 23 14  1  0
 58 28  1  0
 48 34  1  0
  1 60  1  0
  1 61  1  0
  3 62  1  0
  3 63  1  0
  3 64  1  0
  4 65  1  6
  5 66  1  0
  5 67  1  0
  6 68  1  0
  8 69  1  0
  8 70  1  0
  8 71  1  0
  9 72  1  0
  9 73  1  0
  9 74  1  0
 10 75  1  0
 10 76  1  0
 14 77  1  6
 16 78  1  6
 17 79  1  0
 17 80  1  0
 18 81  1  0
 19 82  1  1
 20 83  1  0
 21 84  1  6
 22 85  1  0
 23 86  1  1
 24 87  1  0
 25 88  1  0
 27 89  1  0
 31 90  1  1
 33 91  1  0
 36 92  1  0
 38 93  1  0
 40 94  1  1
 42 95  1  0
 43 96  1  0
 45 97  1  0
 46 98  1  0
 47 99  1  0
 48100  1  6
 50101  1  0
 52102  1  0
 53103  1  0
 55104  1  0
 56105  1  0
 57106  1  0
 57107  1  0
M  END
>  <Binding energies>  (1) 
[-5.92]

>  <Ligand effiencies>  (1) 
[-0.08705882352941176]

>  <Interactions>  (1) 
["V-B:PRO:540:CA:9855, H-A:GLU:543:OE2:4910, V-B:GLU:543:CB:9878, V-B:ASP:366:CG:8184, V-B:ALA:541:CB:9864, H-A:TYR:531:OH:4795, V-B:TYR:539:CE2:9848, H-B:TYR:539:N:9842, V-B:GLU:543:CG:9879, V-B:TYR:539:C:9839, H-B:ASP:366:OD2:8186, V-A:LEU:363:CD1:3189, V-B:TYR:539:CZ:9849, H-B:GLU:543:OE1:9881, V-A:ALA:541:CB:4892, V-A:GLU:543:CD:4908, V-B:PRO:540:CB:9857, H-B:TYR:484:OH:9319, H-B:ASP:366:OD1:8185, V-B:PRO:540:N:9856, V-B:TYR:539:CD2:9846, V-A:GLU:543:CG:4907, H-A:SER:385:OG:3410, V-B:GLU:543:CD:9880, V-A:MET:535:CE:4835, V-A:LEU:475:CD2:4259, H-A:GLU:543:OE1:4909, V-A:GLU:543:CB:4906, H-A:HIS:383:HE2:3395, V-A:PRO:540:CB:4885, V-A:PRO:540:CA:4883, V-B:PRO:540:C:9853, H-A:ASP:366:OD2:3215, V-B:ALA:541:CA:9862, V-A:HIS:383:NE2:3394"]

$$$$
ZINC2356451363
     RDKit          3D

 59 60  0  0  0  0  0  0  0  0999 V2000
  125.4100  124.2840   59.5110 C   0  0  0  0  0  0  0  0  0  0  0  0
  126.7080  124.2940   60.0890 O   0  0  0  0  0  0  0  0  0  0  0  0
  127.0550  123.3810   61.0300 C   0  0  0  0  0  0  0  0  0  0  0  0
  126.2700  122.8890   61.8480 O   0  0  0  0  0  0  0  0  0  0  0  0
  128.5580  122.9570   61.0090 C   0  0  2  0  0  0  0  0  0  0  0  0
  129.0370  123.2850   59.5600 C   0  0  0  0  0  0  0  0  0  0  0  0
  128.7250  121.4320   61.2910 C   0  0  0  0  0  0  0  0  0  0  0  0
  130.1940  120.9980   61.3520 C   0  0  0  0  0  0  0  0  0  0  0  0
  130.5560  119.8690   61.0280 O   0  0  0  0  0  0  0  0  0  0  0  0
  131.1220  121.9620   61.9250 C   0  0  0  0  0  0  0  0  0  0  0  0
  130.8270  123.2510   62.2440 C   0  0  0  0  0  0  0  0  0  0  0  0
  129.3910  123.8050   62.0520 C   0  0  2  0  0  0  0  0  0  0  0  0
  128.8040  123.9440   63.4840 C   0  0  0  0  0  0  0  0  0  0  0  0
  129.6740  124.8390   64.3840 C   0  0  0  0  0  0  0  0  0  0  0  0
  131.1730  124.4340   64.4100 C   0  0  2  0  0  0  0  0  0  0  0  0
  131.9490  125.3950   65.3420 C   0  0  0  0  0  0  0  0  0  0  0  0
  131.8020  124.2370   62.9710 C   0  0  2  0  0  0  0  0  0  0  0  0
  131.8590  125.5880   62.2000 C   0  0  0  0  0  0  0  0  0  0  0  0
  133.2410  123.6260   63.1170 C   0  0  0  0  0  0  0  0  0  0  0  0
  134.2070  123.8740   61.9270 C   0  0  0  0  0  0  0  0  0  0  0  0
  134.2480  122.7390   60.8730 C   0  0  1  0  0  0  0  0  0  0  0  0
  134.0200  121.3510   61.5140 C   0  0  0  0  0  0  0  0  0  0  0  0
  133.2450  123.0220   59.7260 C   0  0  0  0  0  0  0  0  0  0  0  0
  133.5430  124.2890   58.9020 C   0  0  0  0  0  0  0  0  0  0  0  0
  133.6790  123.9740   57.5320 O   0  0  0  0  0  0  0  0  0  0  0  0
  124.6532  124.2782   60.3093 H   0  0  0  0  0  0  0  0  0  0  0  0
  125.2791  125.1812   58.8881 H   0  0  0  0  0  0  0  0  0  0  0  0
  125.2929  123.3849   58.8881 H   0  0  0  0  0  0  0  0  0  0  0  0
  129.9438  123.9060   59.6053 H   0  0  0  0  0  0  0  0  0  0  0  0
  129.2598  122.3490   59.0268 H   0  0  0  0  0  0  0  0  0  0  0  0
  128.2449  123.8311   59.0268 H   0  0  0  0  0  0  0  0  0  0  0  0
  128.2489  121.1983   62.2547 H   0  0  0  0  0  0  0  0  0  0  0  0
  128.2523  120.8873   60.4605 H   0  0  0  0  0  0  0  0  0  0  0  0
  132.1494  121.6189   62.1164 H   0  0  0  0  0  0  0  0  0  0  0  0
  129.3647  124.7964   61.5762 H   0  0  0  0  0  0  0  0  0  0  0  0
  127.7981  124.3835   63.4135 H   0  0  0  0  0  0  0  0  0  0  0  0
  128.7717  122.9411   63.9348 H   0  0  0  0  0  0  0  0  0  0  0  0
  129.6007  125.8739   64.0185 H   0  0  0  0  0  0  0  0  0  0  0  0
  129.2942  124.7268   65.4102 H   0  0  0  0  0  0  0  0  0  0  0  0
  131.2613  123.4257   64.8408 H   0  0  0  0  0  0  0  0  0  0  0  0
  131.7404  125.1367   66.3907 H   0  0  0  0  0  0  0  0  0  0  0  0
  133.0279  125.3015   65.1489 H   0  0  0  0  0  0  0  0  0  0  0  0
  131.6303  126.4300   65.1489 H   0  0  0  0  0  0  0  0  0  0  0  0
  131.8941  126.4195   62.9193 H   0  0  0  0  0  0  0  0  0  0  0  0
  132.7589  125.6118   61.5679 H   0  0  0  0  0  0  0  0  0  0  0  0
  130.9643  125.6875   61.5679 H   0  0  0  0  0  0  0  0  0  0  0  0
  133.7001  124.0566   64.0191 H   0  0  0  0  0  0  0  0  0  0  0  0
  133.0984  122.5362   63.1625 H   0  0  0  0  0  0  0  0  0  0  0  0
  133.8951  124.7994   61.4207 H   0  0  0  0  0  0  0  0  0  0  0  0
  135.2178  123.9326   62.3570 H   0  0  0  0  0  0  0  0  0  0  0  0
  135.2576  122.7179   60.4368 H   0  0  0  0  0  0  0  0  0  0  0  0
  134.0356  121.4461   62.6098 H   0  0  0  0  0  0  0  0  0  0  0  0
  133.0448  120.9552   61.1942 H   0  0  0  0  0  0  0  0  0  0  0  0
  134.8173  120.6640   61.1942 H   0  0  0  0  0  0  0  0  0  0  0  0
  133.2549  122.1599   59.0429 H   0  0  0  0  0  0  0  0  0  0  0  0
  132.2682  123.1874   60.2040 H   0  0  0  0  0  0  0  0  0  0  0  0
  132.7165  125.0039   59.0276 H   0  0  0  0  0  0  0  0  0  0  0  0
  134.4861  124.7287   59.2587 H   0  0  0  0  0  0  0  0  0  0  0  0
  134.4740  124.3970   57.1980 H   0  0  0  0  0  0  0  0  0  0  0  0
  1  2  1  0
  2  3  1  0
  3  4  2  0
  3  5  1  0
  5  6  1  6
  5  7  1  0
  7  8  1  0
  8  9  2  0
  8 10  1  0
 10 11  2  0
 11 12  1  0
 12 13  1  0
 13 14  1  0
 14 15  1  0
 15 16  1  0
 15 17  1  0
 17 18  1  6
 17 19  1  0
 19 20  1  0
 20 21  1  0
 21 22  1  0
 21 23  1  0
 23 24  1  0
 24 25  1  0
 12  5  1  0
 17 11  1  0
  1 26  1  0
  1 27  1  0
  1 28  1  0
  6 29  1  0
  6 30  1  0
  6 31  1  0
  7 32  1  0
  7 33  1  0
 10 34  1  0
 12 35  1  6
 13 36  1  0
 13 37  1  0
 14 38  1  0
 14 39  1  0
 15 40  1  1
 16 41  1  0
 16 42  1  0
 16 43  1  0
 18 44  1  0
 18 45  1  0
 18 46  1  0
 19 47  1  0
 19 48  1  0
 20 49  1  0
 20 50  1  0
 21 51  1  6
 22 52  1  0
 22 53  1  0
 22 54  1  0
 23 55  1  0
 23 56  1  0
 24 57  1  0
 24 58  1  0
 25 59  1  0
M  END
>  <Binding energies>  (1) 
[-7.48]

>  <Ligand effiencies>  (1) 
[-0.2876923076923077]

>  <Interactions>  (1) 
["V-A:ILE:369:CG2:3237, V-A:ASP:366:CA:3210, V-B:PRO:540:CA:9855, V-A:GLY:454:CA:4049, V-A:ILE:369:CB:3236, V-B:ALA:541:CB:9864, V-B:TYR:539:CE2:9848, V-B:GLU:543:CG:9879, V-B:TYR:539:C:9839, H-A:ASN:370:N:3244, H-B:TYR:539:OH:9850, H-B:ALA:541:N:9863, V-A:GLU:543:CD:4908, V-B:PRO:540:CB:9857, V-A:SER:385:C:3405, V-A:ILE:369:CD1:3239, V-B:TYR:539:CD2:9846, V-A:SER:385:CB:3409, V-B:GLU:543:CD:9880, V-A:ILE:369:CG1:3238, V-A:ASP:366:CB:3212, V-A:LEU:475:CD2:4259, V-A:ARG:545:CZ:4926, H-A:ASP:366:O:3209, V-A:SER:385:CA:3407, V-B:PRO:540:C:9853, V-B:ALA:541:CA:9862"]

$$$$
ZINC2356451875
     RDKit          3D

 96 98  0  0  0  0  0  0  0  0999 V2000
  130.9920  130.5580   57.2240 C   0  0  0  0  0  0  0  0  0  0  0  0
  130.4040  129.3860   57.5280 C   0  0  0  0  0  0  0  0  0  0  0  0
  130.8880  128.4310   58.5190 C   0  0  0  0  0  0  0  0  0  0  0  0
  130.9900  128.9090   59.9610 C   0  0  0  0  0  0  0  0  0  0  0  0
  131.2400  127.1790   58.1370 C   0  0  0  0  0  0  0  0  0  0  0  0
  131.7360  126.0310   59.0130 C   0  0  0  0  0  0  0  0  0  0  0  0
  130.6560  125.3340   59.9120 C   0  0  2  0  0  0  0  0  0  0  0  0
  129.2700  125.3740   59.1950 C   0  0  0  0  0  0  0  0  0  0  0  0
  130.5110  126.0910   61.2980 C   0  0  2  0  0  0  0  0  0  0  0  0
  131.8140  126.5950   61.9820 C   0  0  0  0  0  0  0  0  0  0  0  0
  129.5960  125.3060   62.2920 C   0  0  2  0  0  0  0  0  0  0  0  0
  129.4070  125.9720   63.5450 O   0  0  0  0  0  0  0  0  0  0  0  0
  130.2590  125.8090   64.5830 C   0  0  0  0  0  0  0  0  0  0  0  0
  131.4830  125.9560   64.5420 O   0  0  0  0  0  0  0  0  0  0  0  0
  129.5190  125.4050   65.8640 C   0  0  0  0  0  0  0  0  0  0  0  0
  129.1050  126.5860   66.7660 C   0  0  0  0  0  0  0  0  0  0  0  0
  129.3270  126.2960   68.2600 C   0  0  0  0  0  0  0  0  0  0  0  0
  128.6090  127.3060   69.1780 C   0  0  0  0  0  0  0  0  0  0  0  0
  129.4990  128.4620   69.6740 C   0  0  0  0  0  0  0  0  0  0  0  0
  130.5840  128.0420   70.6840 C   0  0  0  0  0  0  0  0  0  0  0  0
  130.0850  128.0680   72.1400 C   0  0  0  0  0  0  0  0  0  0  0  0
  129.1610  126.8850   72.4800 C   0  0  0  0  0  0  0  0  0  0  0  0
  127.6730  127.2610   72.4510 C   0  0  0  0  0  0  0  0  0  0  0  0
  130.0530  123.8480   62.5410 C   0  0  2  0  0  0  0  0  0  0  0  0
  131.3160  123.8160   63.2170 O   0  0  0  0  0  0  0  0  0  0  0  0
  131.4830  122.8670   64.2680 C   0  0  0  0  0  0  0  0  0  0  0  0
  130.1430  122.3700   64.8300 C   0  0  0  0  0  0  0  0  0  0  0  0
  130.1720  123.0270   61.2090 C   0  0  2  0  0  0  0  0  0  0  0  0
  130.6760  121.6020   61.4480 C   0  0  0  0  0  0  0  0  0  0  0  0
  131.9050  121.1760   61.0890 C   0  0  0  0  0  0  0  0  0  0  0  0
  132.9500  122.0300   60.3940 C   0  0  2  0  0  0  0  0  0  0  0  0
  134.2210  121.8070   60.9640 O   0  0  0  0  0  0  0  0  0  0  0  0
  132.5690  123.5250   60.4350 C   0  0  0  0  0  0  0  0  0  0  0  0
  131.0590  123.8040   60.1390 C   0  0  2  0  0  0  0  0  0  0  0  0
  129.5100  120.8260   61.9960 C   0  0  2  0  0  0  0  0  0  0  0  0
  129.4780  119.5250   61.5630 O   0  0  0  0  0  0  0  0  0  0  0  0
  128.3830  121.5380   61.6160 O   0  0  0  0  0  0  0  0  0  0  0  0
  128.7540  122.5790   60.7540 C   0  0  2  0  0  0  0  0  0  0  0  0
  128.7400  122.1730   59.4050 O   0  0  0  0  0  0  0  0  0  0  0  0
  127.6650  122.5370   58.6560 C   0  0  0  0  0  0  0  0  0  0  0  0
  126.7420  123.4820   59.4140 C   0  0  0  0  0  0  0  0  0  0  0  0
  127.4040  122.1800   57.5050 O   0  0  0  0  0  0  0  0  0  0  0  0
  130.5497  131.2132   56.4591 H   0  0  0  0  0  0  0  0  0  0  0  0
  131.9148  130.8606   57.7405 H   0  0  0  0  0  0  0  0  0  0  0  0
  129.4832  129.1271   56.9848 H   0  0  0  0  0  0  0  0  0  0  0  0
  130.8096  128.0635   60.6412 H   0  0  0  0  0  0  0  0  0  0  0  0
  131.9954  129.3170   60.1418 H   0  0  0  0  0  0  0  0  0  0  0  0
  130.2387  129.6918   60.1418 H   0  0  0  0  0  0  0  0  0  0  0  0
  131.1581  126.9631   57.0615 H   0  0  0  0  0  0  0  0  0  0  0  0
  132.1678  125.2655   58.3515 H   0  0  0  0  0  0  0  0  0  0  0  0
  132.4564  126.4817   59.7115 H   0  0  0  0  0  0  0  0  0  0  0  0
  128.4683  125.3971   59.9478 H   0  0  0  0  0  0  0  0  0  0  0  0
  129.2084  126.2743   58.5660 H   0  0  0  0  0  0  0  0  0  0  0  0
  129.1566  124.4788   58.5660 H   0  0  0  0  0  0  0  0  0  0  0  0
  130.0186  127.0311   61.0085 H   0  0  0  0  0  0  0  0  0  0  0  0
  131.6958  126.5493   63.0747 H   0  0  0  0  0  0  0  0  0  0  0  0
  132.6578  125.9584   61.6775 H   0  0  0  0  0  0  0  0  0  0  0  0
  132.0098  127.6337   61.6775 H   0  0  0  0  0  0  0  0  0  0  0  0
  128.6262  125.2725   61.7739 H   0  0  0  0  0  0  0  0  0  0  0  0
  128.6093  124.8575   65.5766 H   0  0  0  0  0  0  0  0  0  0  0  0
  130.2219  124.7957   66.4511 H   0  0  0  0  0  0  0  0  0  0  0  0
  129.6996  127.4681   66.4863 H   0  0  0  0  0  0  0  0  0  0  0  0
  128.0288  126.7578   66.6165 H   0  0  0  0  0  0  0  0  0  0  0  0
  128.9478  125.2877   68.4824 H   0  0  0  0  0  0  0  0  0  0  0  0
  130.4061  126.3787   68.4566 H   0  0  0  0  0  0  0  0  0  0  0  0
  127.7644  127.7372   68.6205 H   0  0  0  0  0  0  0  0  0  0  0  0
  128.2935  126.7478   70.0718 H   0  0  0  0  0  0  0  0  0  0  0  0
  129.9963  128.9118   68.8020 H   0  0  0  0  0  0  0  0  0  0  0  0
  128.8362  129.1651   70.1997 H   0  0  0  0  0  0  0  0  0  0  0  0
  130.9120  127.0201   70.4430 H   0  0  0  0  0  0  0  0  0  0  0  0
  131.4093  128.7648   70.6035 H   0  0  0  0  0  0  0  0  0  0  0  0
  130.9568  128.0357   72.8100 H   0  0  0  0  0  0  0  0  0  0  0  0
  129.5004  128.9905   72.2712 H   0  0  0  0  0  0  0  0  0  0  0  0
  129.3345  126.0826   71.7479 H   0  0  0  0  0  0  0  0  0  0  0  0
  129.4001  126.5635   73.5045 H   0  0  0  0  0  0  0  0  0  0  0  0
  127.2986  127.3556   73.4810 H   0  0  0  0  0  0  0  0  0  0  0  0
  127.5471  128.2192   71.9256 H   0  0  0  0  0  0  0  0  0  0  0  0
  127.1070  126.4776   71.9256 H   0  0  0  0  0  0  0  0  0  0  0  0
  129.2787  123.3846   63.1701 H   0  0  0  0  0  0  0  0  0  0  0  0
  132.0439  122.0045   63.8787 H   0  0  0  0  0  0  0  0  0  0  0  0
  132.0241  123.3656   65.0857 H   0  0  0  0  0  0  0  0  0  0  0  0
  130.1789  122.3833   65.9293 H   0  0  0  0  0  0  0  0  0  0  0  0
  129.3328  123.0274   64.4816 H   0  0  0  0  0  0  0  0  0  0  0  0
  129.9575  121.3433   64.4816 H   0  0  0  0  0  0  0  0  0  0  0  0
  132.1692  120.1328   61.3168 H   0  0  0  0  0  0  0  0  0  0  0  0
  132.9909  121.7344   59.3352 H   0  0  0  0  0  0  0  0  0  0  0  0
  134.1780  121.0100   61.4980 H   0  0  0  0  0  0  0  0  0  0  0  0
  132.8030  123.9144   61.4368 H   0  0  0  0  0  0  0  0  0  0  0  0
  133.1464  124.0228   59.6421 H   0  0  0  0  0  0  0  0  0  0  0  0
  130.8416  123.3998   59.1393 H   0  0  0  0  0  0  0  0  0  0  0  0
  129.5800  120.7331   63.0898 H   0  0  0  0  0  0  0  0  0  0  0  0
  128.7690  119.4460   60.9210 H   0  0  0  0  0  0  0  0  0  0  0  0
  128.0388  123.4128   60.8100 H   0  0  0  0  0  0  0  0  0  0  0  0
  126.8804  123.3403   60.4960 H   0  0  0  0  0  0  0  0  0  0  0  0
  126.9820  124.5217   59.1467 H   0  0  0  0  0  0  0  0  0  0  0  0
  125.6969  123.2666   59.1467 H   0  0  0  0  0  0  0  0  0  0  0  0
  1  2  2  0
  2  3  1  0
  3  4  1  0
  3  5  2  0
  5  6  1  0
  7  6  1  6
  7  8  1  0
  7  9  1  0
  9 10  1  0
  9 11  1  0
 11 12  1  0
 12 13  1  0
 13 14  2  0
 13 15  1  0
 15 16  1  0
 16 17  1  0
 17 18  1  0
 18 19  1  0
 19 20  1  0
 20 21  1  0
 21 22  1  0
 22 23  1  0
 11 24  1  0
 24 25  1  0
 25 26  1  0
 26 27  1  0
 24 28  1  0
 28 29  1  1
 29 30  2  0
 30 31  1  0
 31 32  1  0
 31 33  1  0
 33 34  1  0
 29 35  1  0
 35 36  1  0
 35 37  1  0
 37 38  1  0
 38 39  1  0
 39 40  1  0
 40 41  1  0
 40 42  2  0
 34  7  1  0
 34 28  1  0
 38 28  1  0
  1 43  1  0
  1 44  1  0
  2 45  1  0
  4 46  1  0
  4 47  1  0
  4 48  1  0
  5 49  1  0
  6 50  1  0
  6 51  1  0
  8 52  1  0
  8 53  1  0
  8 54  1  0
  9 55  1  6
 10 56  1  0
 10 57  1  0
 10 58  1  0
 11 59  1  6
 15 60  1  0
 15 61  1  0
 16 62  1  0
 16 63  1  0
 17 64  1  0
 17 65  1  0
 18 66  1  0
 18 67  1  0
 19 68  1  0
 19 69  1  0
 20 70  1  0
 20 71  1  0
 21 72  1  0
 21 73  1  0
 22 74  1  0
 22 75  1  0
 23 76  1  0
 23 77  1  0
 23 78  1  0
 24 79  1  1
 26 80  1  0
 26 81  1  0
 27 82  1  0
 27 83  1  0
 27 84  1  0
 30 85  1  0
 31 86  1  6
 32 87  1  0
 33 88  1  0
 33 89  1  0
 34 90  1  6
 35 91  1  1
 36 92  1  0
 38 93  1  6
 41 94  1  0
 41 95  1  0
 41 96  1  0
M  END
>  <Binding energies>  (1) 
[-7.23]

>  <Ligand effiencies>  (1) 
[-0.16431818181818184]

>  <Interactions>  (1) 
["V-A:ILE:369:CG2:3237, V-B:PRO:540:CA:9855, V-B:HIS:456:CD2:9039, V-A:GLU:543:C:4902, V-B:GLU:543:CB:9878, V-B:ALA:541:CB:9864, V-B:TYR:539:CE2:9848, V-A:TYR:484:CE2:4346, H-B:TYR:539:N:9842, V-B:GLU:543:CG:9879, V-A:GLY:544:C:4912, V-B:TYR:539:C:9839, V-A:ASP:366:CG:3213, V-A:HIS:456:CD2:4068, V-B:LYS:547:CE:9922, H-B:ALA:541:N:9863, V-A:GLU:543:CD:4908, V-A:TYR:484:CZ:4347, V-B:PRO:540:CB:9857, V-B:HIS:456:CE1:9041, V-B:PRO:540:N:9856, V-A:HIS:456:CE1:4070, V-B:GLY:544:C:9884, V-B:TYR:539:CD2:9846, H-A:SER:385:OG:3410, V-B:GLU:543:CD:9880, V-A:ASP:366:CB:3212, V-A:LEU:475:CD2:4259, H-A:ARG:545:NH2:4928, V-A:ARG:545:CZ:4926, V-A:GLU:543:CB:4906, H-B:TYR:539:O:9840, H-A:SER:385:O:3406, V-B:PRO:540:C:9853, V-B:ALA:541:CA:9862, H-B:PRO:540:O:9854"]

$$$$
ZINC2356457692
     RDKit          3D

 85 88  0  0  0  0  0  0  0  0999 V2000
  132.8940  120.9220   60.0720 C   0  0  0  0  0  0  0  0  0  0  0  0
  133.7410  121.3800   61.2520 C   0  0  0  0  0  0  0  0  0  0  0  0
  134.0250  120.6130   62.1730 O   0  0  0  0  0  0  0  0  0  0  0  0
  134.1130  122.6760   61.1420 O   0  0  0  0  0  0  0  0  0  0  0  0
  133.3120  123.7370   61.6700 C   0  0  2  0  0  0  0  0  0  0  0  0
  132.7590  123.3530   63.0650 C   0  0  0  0  0  0  0  0  0  0  0  0
  131.3610  123.9170   63.3920 C   0  0  1  0  0  0  0  0  0  0  0  0
  131.4250  125.4410   63.8060 C   0  0  2  0  0  0  0  0  0  0  0  0
  130.5490  125.7500   64.8920 O   0  0  0  0  0  0  0  0  0  0  0  0
  130.8390  125.3410   66.1610 C   0  0  0  0  0  0  0  0  0  0  0  0
  132.3130  125.4860   66.5150 C   0  0  0  0  0  0  0  0  0  0  0  0
  130.0340  124.9090   66.9870 O   0  0  0  0  0  0  0  0  0  0  0  0
  131.4320  126.4310   62.6390 C   0  0  0  0  0  0  0  0  0  0  0  0
  130.5210  127.2260   62.0190 C   0  0  0  0  0  0  0  0  0  0  0  0
  130.9260  127.8260   60.6710 C   0  0  0  0  0  0  0  0  0  0  0  0
  129.9720  127.4210   59.4930 C   0  0  1  0  0  0  0  0  0  0  0  0
  130.3960  128.3250   58.2830 C   0  0  0  0  0  0  0  0  0  0  0  0
  130.1300  125.9190   58.9940 C   0  0  0  0  0  0  0  0  0  0  0  0
  130.3740  125.6740   57.8100 O   0  0  0  0  0  0  0  0  0  0  0  0
  129.8810  124.6610   59.9260 C   0  0  0  0  0  0  0  0  0  0  0  0
  128.8000  124.0940   59.7660 O   0  0  0  0  0  0  0  0  0  0  0  0
  130.8960  124.1270   60.8980 C   0  0  0  0  0  0  0  0  0  0  0  0
  132.2480  124.1590   60.6310 C   0  0  0  0  0  0  0  0  0  0  0  0
  132.8770  124.5810   59.3000 C   0  0  0  0  0  0  0  0  0  0  0  0
  130.3590  123.5050   62.2430 C   0  0  0  0  0  0  0  0  0  0  0  0
  128.9450  123.9400   62.7150 C   0  0  0  0  0  0  0  0  0  0  0  0
  130.3380  121.9650   62.0250 C   0  0  0  0  0  0  0  0  0  0  0  0
  128.4800  127.7350   59.8610 C   0  0  2  0  0  0  0  0  0  0  0  0
  128.2370  129.1490   59.8370 O   0  0  0  0  0  0  0  0  0  0  0  0
  127.2720  129.6980   59.0660 C   0  0  0  0  0  0  0  0  0  0  0  0
  125.9840  128.8870   59.0910 C   0  0  0  0  0  0  0  0  0  0  0  0
  127.3690  130.7280   58.3980 O   0  0  0  0  0  0  0  0  0  0  0  0
  128.0870  127.2100   61.2570 C   0  0  0  0  0  0  0  0  0  0  0  0
  129.0740  127.6470   62.3750 C   0  0  1  0  0  0  0  0  0  0  0  0
  128.6070  127.2160   63.6510 O   0  0  0  0  0  0  0  0  0  0  0  0
  128.2560  128.1060   64.6190 C   0  0  0  0  0  0  0  0  0  0  0  0
  127.5580  129.1050   64.4310 O   0  0  0  0  0  0  0  0  0  0  0  0
  128.7680  127.7140   65.9260 C   0  0  0  0  0  0  0  0  0  0  0  0
  128.1440  128.0340   67.0810 C   0  0  0  0  0  0  0  0  0  0  0  0
  128.5930  127.6850   68.4460 C   0  0  0  0  0  0  0  0  0  0  0  0
  127.7610  127.0290   69.3650 C   0  0  0  0  0  0  0  0  0  0  0  0
  128.2240  126.7290   70.6430 C   0  0  0  0  0  0  0  0  0  0  0  0
  129.5190  127.0860   71.0100 C   0  0  0  0  0  0  0  0  0  0  0  0
  130.3550  127.7390   70.1100 C   0  0  0  0  0  0  0  0  0  0  0  0
  129.8910  128.0380   68.8300 C   0  0  0  0  0  0  0  0  0  0  0  0
  131.9833  120.4295   60.4436 H   0  0  0  0  0  0  0  0  0  0  0  0
  132.6163  121.7929   59.4601 H   0  0  0  0  0  0  0  0  0  0  0  0
  133.4707  120.2128   59.4601 H   0  0  0  0  0  0  0  0  0  0  0  0
  133.9208  124.6360   61.8464 H   0  0  0  0  0  0  0  0  0  0  0  0
  132.7053  122.2557   63.1202 H   0  0  0  0  0  0  0  0  0  0  0  0
  133.4476  123.7951   63.8001 H   0  0  0  0  0  0  0  0  0  0  0  0
  130.9415  123.4634   64.3021 H   0  0  0  0  0  0  0  0  0  0  0  0
  132.4332  125.5981   64.2170 H   0  0  0  0  0  0  0  0  0  0  0  0
  132.4280  125.4973   67.6089 H   0  0  0  0  0  0  0  0  0  0  0  0
  132.8758  124.6389   66.0959 H   0  0  0  0  0  0  0  0  0  0  0  0
  132.6999  126.4265   66.0959 H   0  0  0  0  0  0  0  0  0  0  0  0
  132.4302  126.5224   62.1861 H   0  0  0  0  0  0  0  0  0  0  0  0
  130.9205  128.9222   60.7622 H   0  0  0  0  0  0  0  0  0  0  0  0
  131.9241  127.4322   60.4287 H   0  0  0  0  0  0  0  0  0  0  0  0
  130.8348  129.2605   58.6603 H   0  0  0  0  0  0  0  0  0  0  0  0
  131.1384  127.7928   57.6701 H   0  0  0  0  0  0  0  0  0  0  0  0
  129.5121  128.5556   57.6701 H   0  0  0  0  0  0  0  0  0  0  0  0
  133.7761  125.1842   59.4943 H   0  0  0  0  0  0  0  0  0  0  0  0
  133.1537  123.6851   58.7248 H   0  0  0  0  0  0  0  0  0  0  0  0
  132.1530  125.1768   58.7248 H   0  0  0  0  0  0  0  0  0  0  0  0
  128.9124  123.9500   63.8145 H   0  0  0  0  0  0  0  0  0  0  0  0
  128.7246  124.9475   62.3324 H   0  0  0  0  0  0  0  0  0  0  0  0
  128.1964  123.2306   62.3324 H   0  0  0  0  0  0  0  0  0  0  0  0
  130.3311  121.4567   63.0005 H   0  0  0  0  0  0  0  0  0  0  0  0
  129.4360  121.6869   61.4602 H   0  0  0  0  0  0  0  0  0  0  0  0
  131.2321  121.6624   61.4602 H   0  0  0  0  0  0  0  0  0  0  0  0
  127.8699  127.2201   59.1043 H   0  0  0  0  0  0  0  0  0  0  0  0
  125.6882  128.7007   60.1340 H   0  0  0  0  0  0  0  0  0  0  0  0
  125.1880  129.4471   58.5785 H   0  0  0  0  0  0  0  0  0  0  0  0
  126.1451  127.9271   58.5785 H   0  0  0  0  0  0  0  0  0  0  0  0
  127.0859  127.5923   61.5053 H   0  0  0  0  0  0  0  0  0  0  0  0
  128.1099  126.1112   61.2116 H   0  0  0  0  0  0  0  0  0  0  0  0
  129.1102  128.7442   62.4445 H   0  0  0  0  0  0  0  0  0  0  0  0
  129.7011  127.1335   65.9742 H   0  0  0  0  0  0  0  0  0  0  0  0
  127.2108  128.6104   66.9977 H   0  0  0  0  0  0  0  0  0  0  0  0
  126.7374  126.7502   69.0744 H   0  0  0  0  0  0  0  0  0  0  0  0
  127.5695  126.2120   71.3602 H   0  0  0  0  0  0  0  0  0  0  0  0
  129.8841  126.8496   72.0204 H   0  0  0  0  0  0  0  0  0  0  0  0
  131.3768  128.0179   70.4069 H   0  0  0  0  0  0  0  0  0  0  0  0
  130.5500  128.5551   68.1170 H   0  0  0  0  0  0  0  0  0  0  0  0
  1  2  1  0
  2  3  2  0
  2  4  1  0
  4  5  1  0
  5  6  1  0
  6  7  1  0
  7  8  1  0
  8  9  1  0
  9 10  1  0
 10 11  1  0
 10 12  2  0
  8 13  1  0
 13 14  2  0
 14 15  1  0
 15 16  1  0
 16 17  1  6
 16 18  1  0
 18 19  2  0
 18 20  1  0
 20 21  2  0
 20 22  1  0
 22 23  2  0
 23 24  1  0
 22 25  1  0
 25 26  1  0
 25 27  1  0
 16 28  1  0
 28 29  1  0
 29 30  1  0
 30 31  1  0
 30 32  2  0
 28 33  1  0
 33 34  1  0
 34 35  1  0
 35 36  1  0
 36 37  2  0
 36 38  1  0
 38 39  2  0
 39 40  1  0
 40 41  2  0
 41 42  1  0
 42 43  2  0
 43 44  1  0
 44 45  2  0
 23  5  1  0
 45 40  1  0
 25  7  1  0
 34 14  1  0
  1 46  1  0
  1 47  1  0
  1 48  1  0
  5 49  1  1
  6 50  1  0
  6 51  1  0
  7 52  1  1
  8 53  1  1
 11 54  1  0
 11 55  1  0
 11 56  1  0
 13 57  1  0
 15 58  1  0
 15 59  1  0
 17 60  1  0
 17 61  1  0
 17 62  1  0
 24 63  1  0
 24 64  1  0
 24 65  1  0
 26 66  1  0
 26 67  1  0
 26 68  1  0
 27 69  1  0
 27 70  1  0
 27 71  1  0
 28 72  1  6
 31 73  1  0
 31 74  1  0
 31 75  1  0
 33 76  1  0
 33 77  1  0
 34 78  1  1
 38 79  1  0
 39 80  1  0
 41 81  1  0
 42 82  1  0
 43 83  1  0
 44 84  1  0
 45 85  1  0
M  END
>  <Binding energies>  (1) 
[-6.01]

>  <Ligand effiencies>  (1) 
[-0.12787234042553192]

>  <Interactions>  (1) 
["V-A:ILE:369:CG2:3237, V-B:GLU:543:C:9874, V-A:GLU:543:C:4902, V-B:GLU:543:CB:9878, V-B:ASP:366:CG:8184, V-B:TYR:539:CE2:9848, V-B:GLU:543:CG:9879, V-A:ASP:366:CG:3213, V-A:HIS:456:CD2:4068, H-B:TYR:539:OH:9850, V-A:GLU:543:CD:4908, V-A:TYR:484:CZ:4347, V-B:ASP:366:CB:8183, V-A:ARG:545:CG:4922, V-B:HIS:456:CE1:9041, V-A:SER:385:C:3405, V-A:HIS:456:CE1:4070, V-A:ILE:369:CD1:3239, V-B:TYR:539:CD2:9846, V-A:GLU:543:CG:4907, V-A:SER:385:CB:3409, H-A:SER:385:OG:3410, V-B:GLU:543:CD:9880, V-A:ASP:366:CB:3212, V-A:ARG:545:CD:4923, V-A:LEU:475:CD2:4259, V-A:GLU:543:CB:4906, V-A:SER:385:CA:3407, H-A:TYR:484:OH:4348"]

$$$$
ZINC2356471602-again1
     RDKit          3D

 83 88  0  0  0  0  0  0  0  0999 V2000
  131.2520  133.3370   57.2560 C   0  0  0  0  0  0  0  0  0  0  0  0
  130.4430  132.1360   56.8140 C   0  0  0  0  0  0  0  0  0  0  0  0
  129.2290  131.8170   57.2910 C   0  0  0  0  0  0  0  0  0  0  0  0
  128.4300  130.6040   56.8520 C   0  0  2  0  0  0  0  0  0  0  0  0
  127.0600  130.8170   56.6300 O   0  0  0  0  0  0  0  0  0  0  0  0
  127.3630  130.0140   57.7420 C   0  0  1  0  0  0  0  0  0  0  0  0
  127.0740  128.5110   57.6010 C   0  0  0  0  0  0  0  0  0  0  0  0
  127.0650  130.6150   59.1060 C   0  0  0  0  0  0  0  0  0  0  0  0
  126.4540  131.7890   59.3320 C   0  0  0  0  0  0  0  0  0  0  0  0
  126.2180  132.2820   60.6780 C   0  0  0  0  0  0  0  0  0  0  0  0
  125.6330  133.3440   60.8820 O   0  0  0  0  0  0  0  0  0  0  0  0
  126.7620  131.3830   61.7730 C   0  0  0  0  0  0  0  0  0  0  0  0
  126.6590  131.6940   63.1470 C   0  0  0  0  0  0  0  0  0  0  0  0
  125.9790  132.9550   63.6800 C   0  0  0  0  0  0  0  0  0  0  0  0
  127.1960  130.8250   64.0940 C   0  0  0  0  0  0  0  0  0  0  0  0
  127.8540  129.6440   63.7390 C   0  0  0  0  0  0  0  0  0  0  0  0
  127.9790  129.3060   62.3740 C   0  0  0  0  0  0  0  0  0  0  0  0
  127.4130  130.1780   61.4150 C   0  0  0  0  0  0  0  0  0  0  0  0
  127.5150  129.7980   60.0850 O   0  0  0  0  0  0  0  0  0  0  0  0
  128.7080  128.0360   61.9770 C   0  0  0  0  0  0  0  0  0  0  0  0
  128.9890  127.8030   60.8000 O   0  0  0  0  0  0  0  0  0  0  0  0
  128.9780  127.0150   63.0660 C   0  0  0  0  0  0  0  0  0  0  0  0
  128.8320  127.3890   64.4240 C   0  0  0  0  0  0  0  0  0  0  0  0
  129.0900  126.4490   65.4300 C   0  0  0  0  0  0  0  0  0  0  0  0
  129.4820  125.1560   65.1210 C   0  0  0  0  0  0  0  0  0  0  0  0
  129.6210  124.7510   63.7940 C   0  0  0  0  0  0  0  0  0  0  0  0
  130.0340  123.3020   63.4650 C   0  0  2  0  0  0  0  0  0  0  0  0
  131.5870  123.1570   63.3770 C   0  0  0  0  0  0  0  0  0  0  0  0
  132.2050  123.2390   61.9560 C   0  0  2  0  0  0  0  0  0  0  0  0
  133.7090  122.8560   61.9810 C   0  0  0  0  0  0  0  0  0  0  0  0
  132.0540  124.7100   61.4130 N   0  0  0  0  0  0  0  0  0  0  0  0
  132.4640  125.8530   62.3760 C   0  0  0  0  0  0  0  0  0  0  0  0
  132.7040  124.9810   60.0340 C   0  0  0  0  0  0  0  0  0  0  0  0
  131.3770  122.2750   61.0570 C   0  0  1  0  0  0  0  0  0  0  0  0
  131.5230  120.9150   61.4940 O   0  0  0  0  0  0  0  0  0  0  0  0
  131.7780  119.8970   60.6390 C   0  0  0  0  0  0  0  0  0  0  0  0
  130.8230  118.7280   60.8390 C   0  0  0  0  0  0  0  0  0  0  0  0
  132.6640  119.8610   59.7850 O   0  0  0  0  0  0  0  0  0  0  0  0
  129.8700  122.6320   61.0470 C   0  0  1  0  0  0  0  0  0  0  0  0
  128.9890  121.7140   60.1850 C   0  0  0  0  0  0  0  0  0  0  0  0
  129.2870  122.7930   62.3440 O   0  0  0  0  0  0  0  0  0  0  0  0
  129.3730  125.6830   62.7690 C   0  0  0  0  0  0  0  0  0  0  0  0
  129.5150  125.2530   61.4690 O   0  0  0  0  0  0  0  0  0  0  0  0
  128.3950  128.7660   64.8300 C   0  0  0  0  0  0  0  0  0  0  0  0
  128.3840  129.1190   66.0130 O   0  0  0  0  0  0  0  0  0  0  0  0
  131.2788  133.3767   58.3550 H   0  0  0  0  0  0  0  0  0  0  0  0
  132.2774  133.2516   56.8671 H   0  0  0  0  0  0  0  0  0  0  0  0
  130.7876  134.2552   56.8671 H   0  0  0  0  0  0  0  0  0  0  0  0
  130.8805  131.4785   56.0483 H   0  0  0  0  0  0  0  0  0  0  0  0
  128.7847  132.4782   58.0495 H   0  0  0  0  0  0  0  0  0  0  0  0
  129.2933  130.1856   56.3137 H   0  0  0  0  0  0  0  0  0  0  0  0
  126.9871  128.0590   58.6001 H   0  0  0  0  0  0  0  0  0  0  0  0
  126.1321  128.3687   57.0510 H   0  0  0  0  0  0  0  0  0  0  0  0
  127.8960  128.0296   57.0510 H   0  0  0  0  0  0  0  0  0  0  0  0
  126.1232  132.3939   58.4749 H   0  0  0  0  0  0  0  0  0  0  0  0
  125.9875  132.9392   64.7799 H   0  0  0  0  0  0  0  0  0  0  0  0
  126.5206  133.8429   63.3219 H   0  0  0  0  0  0  0  0  0  0  0  0
  124.9395  132.9903   63.3219 H   0  0  0  0  0  0  0  0  0  0  0  0
  127.0987  131.0774   65.1602 H   0  0  0  0  0  0  0  0  0  0  0  0
  128.9795  126.7424   66.4844 H   0  0  0  0  0  0  0  0  0  0  0  0
  129.6858  124.4412   65.9319 H   0  0  0  0  0  0  0  0  0  0  0  0
  129.7556  122.6404   64.2985 H   0  0  0  0  0  0  0  0  0  0  0  0
  132.0335  123.9587   63.9836 H   0  0  0  0  0  0  0  0  0  0  0  0
  131.8077  122.1406   63.7350 H   0  0  0  0  0  0  0  0  0  0  0  0
  134.0481  122.7696   63.0239 H   0  0  0  0  0  0  0  0  0  0  0  0
  133.8507  121.8931   61.4684 H   0  0  0  0  0  0  0  0  0  0  0  0
  134.2940  123.6338   61.4684 H   0  0  0  0  0  0  0  0  0  0  0  0
  131.0610  124.8280   61.2720 H   0  0  0  0  0  0  0  0  0  0  0  0
  132.3434  125.5168   63.4164 H   0  0  0  0  0  0  0  0  0  0  0  0
  133.5152  126.1235   62.1975 H   0  0  0  0  0  0  0  0  0  0  0  0
  131.8244  126.7300   62.1975 H   0  0  0  0  0  0  0  0  0  0  0  0
  133.7104  125.4006   60.1791 H   0  0  0  0  0  0  0  0  0  0  0  0
  132.7773  124.0385   59.4716 H   0  0  0  0  0  0  0  0  0  0  0  0
  132.0861  125.6964   59.4716 H   0  0  0  0  0  0  0  0  0  0  0  0
  131.7726  122.3884   60.0369 H   0  0  0  0  0  0  0  0  0  0  0  0
  130.6792  118.5520   61.9153 H   0  0  0  0  0  0  0  0  0  0  0  0
  129.8544  118.9620   60.3731 H   0  0  0  0  0  0  0  0  0  0  0  0
  131.2455  117.8255   60.3731 H   0  0  0  0  0  0  0  0  0  0  0  0
  129.8805  123.6190   60.5615 H   0  0  0  0  0  0  0  0  0  0  0  0
  128.3760  121.0753   60.8379 H   0  0  0  0  0  0  0  0  0  0  0  0
  128.3322  122.3267   59.5500 H   0  0  0  0  0  0  0  0  0  0  0  0
  129.6282  121.0829   59.5500 H   0  0  0  0  0  0  0  0  0  0  0  0
  128.9160  125.6990   60.8640 H   0  0  0  0  0  0  0  0  0  0  0  0
  1  2  1  0
  2  3  2  0
  3  4  1  0
  4  5  1  0
  5  6  1  0
  6  7  1  6
  6  8  1  0
  8  9  2  0
  9 10  1  0
 10 11  2  0
 10 12  1  0
 12 13  2  0
 13 14  1  0
 13 15  1  0
 15 16  2  0
 16 17  1  0
 17 18  2  0
 18 19  1  0
 17 20  1  0
 20 21  2  0
 20 22  1  0
 22 23  2  0
 23 24  1  0
 24 25  2  0
 25 26  1  0
 26 27  1  0
 27 28  1  0
 28 29  1  0
 29 30  1  1
 29 31  1  0
 31 32  1  0
 31 33  1  0
 29 34  1  0
 34 35  1  0
 35 36  1  0
 36 37  1  0
 36 38  2  0
 34 39  1  0
 39 40  1  0
 39 41  1  0
 26 42  2  0
 42 43  1  0
 23 44  1  0
 44 45  2  0
  6  4  1  0
 19  8  1  0
 42 22  1  0
 18 12  1  0
 41 27  1  0
 44 16  1  0
  1 46  1  0
  1 47  1  0
  1 48  1  0
  2 49  1  0
  3 50  1  0
  4 51  1  6
  7 52  1  0
  7 53  1  0
  7 54  1  0
  9 55  1  0
 14 56  1  0
 14 57  1  0
 14 58  1  0
 15 59  1  0
 24 60  1  0
 25 61  1  0
 27 62  1  1
 28 63  1  0
 28 64  1  0
 30 65  1  0
 30 66  1  0
 30 67  1  0
 31 68  1  0
 32 69  1  0
 32 70  1  0
 32 71  1  0
 33 72  1  0
 33 73  1  0
 33 74  1  0
 34 75  1  6
 37 76  1  0
 37 77  1  0
 37 78  1  0
 39 79  1  6
 40 80  1  0
 40 81  1  0
 40 82  1  0
 43 83  1  0
M  CHG  1  31   1
M  END
>  <Binding energies>  (1) 
[-6.82]

>  <Ligand effiencies>  (1) 
[-0.1451063829787234]

>  <Interactions>  (1) 
["V-B:PRO:540:CA:9855, V-A:PRO:540:CG:4886, V-B:GLU:543:CB:9878, V-A:ILE:538:CB:4862, V-B:TYR:539:CE2:9848, V-B:GLU:543:CG:9879, V-B:LEU:475:CD2:9230, V-B:TYR:539:C:9839, V-A:ASP:366:CG:3213, V-A:TYR:539:CD1:4873, V-A:LEU:363:CD1:3189, V-A:GLU:543:CD:4908, V-B:PRO:540:N:9856, V-A:ILE:369:CD1:3239, V-B:TYR:539:CD2:9846, V-A:GLU:543:CG:4907, H-A:SER:385:OG:3410, V-B:GLU:543:CD:9880, V-A:MET:535:CE:4835, V-A:TYR:539:C:4867, H-B:TYR:531:OH:9767, V-A:ASP:366:CB:3212, V-A:LEU:475:CD2:4259, V-A:ARG:545:CZ:4926, V-A:PRO:540:N:4884, V-A:PRO:540:CB:4885, V-A:PRO:540:CA:4883, V-B:PRO:540:C:9853, V-A:PRO:540:CD:4887, V-A:TYR:539:CE1:4875"]

$$$$
ZINC2356474339
     RDKit          3D

 57 58  0  0  0  0  0  0  0  0999 V2000
  130.5490  117.5640   60.2430 C   0  0  0  0  0  0  0  0  0  0  0  0
  131.3540  118.8510   60.2060 C   0  0  0  0  0  0  0  0  0  0  0  0
  131.0640  120.0220   60.8280 C   0  0  0  0  0  0  0  0  0  0  0  0
  129.8020  120.2710   61.6550 C   0  0  0  0  0  0  0  0  0  0  0  0
  131.9450  121.1980   60.6840 C   0  0  0  0  0  0  0  0  0  0  0  0
  133.1320  121.1830   61.0220 O   0  0  0  0  0  0  0  0  0  0  0  0
  131.3130  122.3070   60.1990 O   0  0  0  0  0  0  0  0  0  0  0  0
  130.8430  123.3630   61.0440 C   0  0  2  0  0  0  0  0  0  0  0  0
  129.3060  123.3910   61.0840 C   0  0  0  0  0  0  0  0  0  0  0  0
  128.4700  123.1520   62.1070 C   0  0  0  0  0  0  0  0  0  0  0  0
  128.7170  122.7730   63.5580 C   0  0  0  0  0  0  0  0  0  0  0  0
  127.0970  123.2580   61.6300 C   0  0  0  0  0  0  0  0  0  0  0  0
  126.0660  123.1070   62.2810 O   0  0  0  0  0  0  0  0  0  0  0  0
  127.1250  123.5690   60.3290 O   0  0  0  0  0  0  0  0  0  0  0  0
  128.4320  123.6440   59.8850 C   0  0  2  0  0  0  0  0  0  0  0  0
  128.6950  122.6710   58.9060 O   0  0  0  0  0  0  0  0  0  0  0  0
  127.9860  122.7300   57.7470 C   0  0  0  0  0  0  0  0  0  0  0  0
  127.9120  124.1510   57.2040 C   0  0  0  0  0  0  0  0  0  0  0  0
  127.4360  121.7950   57.1610 O   0  0  0  0  0  0  0  0  0  0  0  0
  131.5670  124.7360   60.7320 C   0  0  1  0  0  0  0  0  0  0  0  0
  132.7040  125.0520   61.7490 C   0  0  0  0  0  0  0  0  0  0  0  0
  132.2090  124.7540   59.3010 C   0  0  0  0  0  0  0  0  0  0  0  0
  133.1850  123.7000   58.9580 C   0  0  0  0  0  0  0  0  0  0  0  0
  133.8080  123.6410   57.8970 O   0  0  0  0  0  0  0  0  0  0  0  0
  131.9660  125.7080   58.3640 C   0  0  0  0  0  0  0  0  0  0  0  0
  131.0930  126.9300   58.5790 C   0  0  0  0  0  0  0  0  0  0  0  0
  130.9000  127.1720   60.0820 C   0  0  0  0  0  0  0  0  0  0  0  0
  130.4640  125.8810   60.8060 C   0  0  2  0  0  0  0  0  0  0  0  0
  129.9780  126.2240   62.2360 C   0  0  0  0  0  0  0  0  0  0  0  0
  130.3680  117.2747   61.2887 H   0  0  0  0  0  0  0  0  0  0  0  0
  129.5865  117.7188   59.7335 H   0  0  0  0  0  0  0  0  0  0  0  0
  131.1094  116.7662   59.7335 H   0  0  0  0  0  0  0  0  0  0  0  0
  132.2766  118.8322   59.6073 H   0  0  0  0  0  0  0  0  0  0  0  0
  130.0497  120.2221   62.7256 H   0  0  0  0  0  0  0  0  0  0  0  0
  129.3981  121.2661   61.4171 H   0  0  0  0  0  0  0  0  0  0  0  0
  129.0504  119.5038   61.4171 H   0  0  0  0  0  0  0  0  0  0  0  0
  131.1356  123.1608   62.0849 H   0  0  0  0  0  0  0  0  0  0  0  0
  128.2360  123.5111   64.2167 H   0  0  0  0  0  0  0  0  0  0  0  0
  128.2944  121.7764   63.7537 H   0  0  0  0  0  0  0  0  0  0  0  0
  129.7993  122.7572   63.7537 H   0  0  0  0  0  0  0  0  0  0  0  0
  128.6231  124.6281   59.4321 H   0  0  0  0  0  0  0  0  0  0  0  0
  127.8750  124.8624   58.0422 H   0  0  0  0  0  0  0  0  0  0  0  0
  128.8007  124.3552   56.5888 H   0  0  0  0  0  0  0  0  0  0  0  0
  127.0069  124.2618   56.5888 H   0  0  0  0  0  0  0  0  0  0  0  0
  132.3193  124.9451   62.7740 H   0  0  0  0  0  0  0  0  0  0  0  0
  133.5383  124.3517   61.5956 H   0  0  0  0  0  0  0  0  0  0  0  0
  133.0573  126.0824   61.5956 H   0  0  0  0  0  0  0  0  0  0  0  0
  133.3686  122.9117   59.7029 H   0  0  0  0  0  0  0  0  0  0  0  0
  132.4368  125.5851   57.3775 H   0  0  0  0  0  0  0  0  0  0  0  0
  131.5764  127.8085   58.1266 H   0  0  0  0  0  0  0  0  0  0  0  0
  130.1126  126.7637   58.1087 H   0  0  0  0  0  0  0  0  0  0  0  0
  131.8495  127.5217   60.5135 H   0  0  0  0  0  0  0  0  0  0  0  0
  130.1113  127.9274   60.2137 H   0  0  0  0  0  0  0  0  0  0  0  0
  129.6054  125.4415   60.2772 H   0  0  0  0  0  0  0  0  0  0  0  0
  130.6453  125.7531   62.9729 H   0  0  0  0  0  0  0  0  0  0  0  0
  129.9897  127.3151   62.3754 H   0  0  0  0  0  0  0  0  0  0  0  0
  128.9539  125.8475   62.3754 H   0  0  0  0  0  0  0  0  0  0  0  0
  1  2  1  0
  2  3  2  0
  3  4  1  0
  3  5  1  0
  5  6  2  0
  5  7  1  0
  7  8  1  0
  8  9  1  0
  9 10  2  0
 10 11  1  0
 10 12  1  0
 12 13  2  0
 12 14  1  0
 14 15  1  0
 15 16  1  0
 16 17  1  0
 17 18  1  0
 17 19  2  0
  8 20  1  0
 20 21  1  1
 20 22  1  0
 22 23  1  0
 23 24  2  0
 22 25  2  0
 25 26  1  0
 26 27  1  0
 27 28  1  0
 28 29  1  0
 15  9  1  0
 28 20  1  0
  1 30  1  0
  1 31  1  0
  1 32  1  0
  2 33  1  0
  4 34  1  0
  4 35  1  0
  4 36  1  0
  8 37  1  1
 11 38  1  0
 11 39  1  0
 11 40  1  0
 15 41  1  6
 18 42  1  0
 18 43  1  0
 18 44  1  0
 21 45  1  0
 21 46  1  0
 21 47  1  0
 23 48  1  0
 25 49  1  0
 26 50  1  0
 26 51  1  0
 27 52  1  0
 27 53  1  0
 28 54  1  6
 29 55  1  0
 29 56  1  0
 29 57  1  0
M  END
>  <Binding energies>  (1) 
[-7.87]

>  <Ligand effiencies>  (1) 
[-0.2713793103448276]

>  <Interactions>  (1) 
["V-A:ILE:369:CG2:3237, V-B:PRO:540:CA:9855, V-A:ILE:369:CB:3236, V-B:ALA:541:CB:9864, V-B:TYR:539:CE2:9848, H-B:TYR:539:N:9842, V-B:GLU:543:CG:9879, V-B:TYR:539:C:9839, V-A:ASP:366:CG:3213, V-B:TYR:539:CZ:9849, H-A:ASN:370:N:3244, H-B:TYR:539:OH:9850, H-B:ALA:541:N:9863, V-B:TYR:539:CB:9843, V-A:HIS:383:CE1:3393, V-A:HIS:383:NE2:3394, V-B:PRO:540:N:9856, V-B:TYR:539:CD2:9846, H-A:SER:385:OG:3410, V-B:GLU:543:CD:9880, V-A:ASP:366:CB:3212, V-A:LEU:475:CD2:4259, V-B:TYR:539:CG:9844, V-B:TYR:539:CD1:9845, V-B:TYR:539:CE1:9847"]

$$$$
ZINC2356476052
     RDKit          3D

102111  0  0  0  0  0  0  0  0999 V2000
  126.6430  129.6880   62.9570 O   0  0  0  0  0  0  0  0  0  0  0  0
  127.7190  129.1110   62.7770 C   0  0  0  0  0  0  0  0  0  0  0  0
  128.0010  127.8050   63.0550 O   0  0  0  0  0  0  0  0  0  0  0  0
  128.4350  127.5010   64.3200 C   0  0  0  0  0  0  0  0  0  0  0  0
  128.3360  128.3370   65.4230 C   0  0  0  0  0  0  0  0  0  0  0  0
  127.7530  129.7270   65.5660 C   0  0  0  0  0  0  0  0  0  0  0  0
  127.7150  130.1050   66.9270 O   0  0  0  0  0  0  0  0  0  0  0  0
  128.9350  127.7070   66.4910 N   0  0  0  0  0  0  0  0  0  0  0  0
  129.3830  126.4500   66.1470 C   0  0  0  0  0  0  0  0  0  0  0  0
  130.0350  125.4660   66.8930 C   0  0  0  0  0  0  0  0  0  0  0  0
  130.3600  124.2720   66.2480 C   0  0  0  0  0  0  0  0  0  0  0  0
  130.0380  124.0320   64.8890 C   0  0  0  0  0  0  0  0  0  0  0  0
  130.3700  122.8150   64.2490 C   0  0  0  0  0  0  0  0  0  0  0  0
  130.0500  122.5540   62.8990 C   0  0  0  0  0  0  0  0  0  0  0  0
  130.3940  121.3350   62.2620 C   0  0  0  0  0  0  0  0  0  0  0  0
  130.0560  121.1210   60.9270 C   0  0  0  0  0  0  0  0  0  0  0  0
  129.3770  122.0960   60.2030 C   0  0  0  0  0  0  0  0  0  0  0  0
  129.0230  123.3040   60.8010 C   0  0  0  0  0  0  0  0  0  0  0  0
  129.3540  123.5520   62.1570 C   0  0  0  0  0  0  0  0  0  0  0  0
  129.0170  124.7630   62.7980 C   0  0  0  0  0  0  0  0  0  0  0  0
  129.3600  125.0380   64.1460 C   0  0  0  0  0  0  0  0  0  0  0  0
  129.0480  126.2750   64.7820 C   0  0  0  0  0  0  0  0  0  0  0  0
  128.9670  129.8640   62.2880 C   0  0  2  0  0  0  0  0  0  0  0  0
  128.7030  131.2530   62.1500 O   0  0  0  0  0  0  0  0  0  0  0  0
  129.7700  131.8510   61.4700 C   0  0  2  0  0  0  0  0  0  0  0  0
  130.9360  131.8290   62.2280 O   0  0  0  0  0  0  0  0  0  0  0  0
  129.4430  133.3320   61.1930 C   0  0  2  0  0  0  0  0  0  0  0  0
  129.0640  134.0120   62.3790 O   0  0  0  0  0  0  0  0  0  0  0  0
  128.3640  133.4720   60.1210 C   0  0  0  0  0  0  0  0  0  0  0  0
  128.8340  132.8550   58.8030 C   0  0  0  0  0  0  0  0  0  0  0  0
  129.2180  131.3570   58.8800 C   0  0  2  0  0  0  0  0  0  0  0  0
  128.0460  130.4300   58.4420 C   0  0  2  0  0  0  0  0  0  0  0  0
  126.6510  130.7170   59.0550 C   0  0  0  0  0  0  0  0  0  0  0  0
  125.5810  129.7850   58.4580 C   0  0  0  0  0  0  0  0  0  0  0  0
  125.9370  128.2880   58.6220 C   0  0  2  0  0  0  0  0  0  0  0  0
  125.7550  127.8850   59.9660 O   0  0  0  0  0  0  0  0  0  0  0  0
  127.3750  127.9790   58.0720 C   0  0  2  0  0  0  0  0  0  0  0  0
  127.7840  126.4470   57.9850 C   0  0  0  0  0  0  0  0  0  0  0  0
  129.2050  126.2800   58.6140 C   0  0  0  0  0  0  0  0  0  0  0  0
  130.3170  126.0320   57.7910 C   0  0  0  0  0  0  0  0  0  0  0  0
  131.5840  125.8360   58.3340 C   0  0  0  0  0  0  0  0  0  0  0  0
  131.7560  125.8640   59.7130 C   0  0  0  0  0  0  0  0  0  0  0  0
  133.0010  125.6650   60.2490 O   0  0  0  0  0  0  0  0  0  0  0  0
  130.6680  126.0810   60.5530 C   0  0  0  0  0  0  0  0  0  0  0  0
  129.4020  126.2780   60.0070 C   0  0  0  0  0  0  0  0  0  0  0  0
  126.7410  125.5630   58.7660 C   0  0  0  0  0  0  0  0  0  0  0  0
  127.0880  124.0570   58.7580 C   0  0  0  0  0  0  0  0  0  0  0  0
  127.1480  123.5130   57.3160 C   0  0  0  0  0  0  0  0  0  0  0  0
  128.0440  124.3740   56.4030 C   0  0  0  0  0  0  0  0  0  0  0  0
  127.7050  125.8820   56.5200 C   0  0  0  0  0  0  0  0  0  0  0  0
  128.4320  128.9560   58.6980 C   0  0  2  0  0  0  0  0  0  0  0  0
  128.4890  128.7660   60.1030 O   0  0  0  0  0  0  0  0  0  0  0  0
  129.4230  129.5530   60.8490 C   0  0  1  0  0  0  0  0  0  0  0  0
  129.9500  130.8900   60.2220 C   0  0  2  0  0  0  0  0  0  0  0  0
  131.3240  130.7690   59.8410 O   0  0  0  0  0  0  0  0  0  0  0  0
  128.3765  130.4412   65.0083 H   0  0  0  0  0  0  0  0  0  0  0  0
  126.7285  129.7284   65.1654 H   0  0  0  0  0  0  0  0  0  0  0  0
  126.8010  130.0910   67.2230 H   0  0  0  0  0  0  0  0  0  0  0  0
  129.0000  128.1460   67.4000 H   0  0  0  0  0  0  0  0  0  0  0  0
  130.2838  125.6265   67.9524 H   0  0  0  0  0  0  0  0  0  0  0  0
  130.8850  123.4890   66.8148 H   0  0  0  0  0  0  0  0  0  0  0  0
  130.8983  122.0416   64.8259 H   0  0  0  0  0  0  0  0  0  0  0  0
  130.9296  120.5553   62.8235 H   0  0  0  0  0  0  0  0  0  0  0  0
  130.3286  120.1725   60.4412 H   0  0  0  0  0  0  0  0  0  0  0  0
  129.1175  121.9119   59.1500 H   0  0  0  0  0  0  0  0  0  0  0  0
  128.4853  124.0672   60.2193 H   0  0  0  0  0  0  0  0  0  0  0  0
  128.4653  125.5253   62.2283 H   0  0  0  0  0  0  0  0  0  0  0  0
  129.7090  129.5614   63.0416 H   0  0  0  0  0  0  0  0  0  0  0  0
  131.3900  131.0030   62.0470 H   0  0  0  0  0  0  0  0  0  0  0  0
  130.3623  133.8024   60.8141 H   0  0  0  0  0  0  0  0  0  0  0  0
  128.9260  133.3590   63.0700 H   0  0  0  0  0  0  0  0  0  0  0  0
  127.4517  132.9572   60.4565 H   0  0  0  0  0  0  0  0  0  0  0  0
  128.1594  134.5408   59.9601 H   0  0  0  0  0  0  0  0  0  0  0  0
  128.0224  132.9616   58.0681 H   0  0  0  0  0  0  0  0  0  0  0  0
  129.7517  133.3928   58.5226 H   0  0  0  0  0  0  0  0  0  0  0  0
  130.0160  131.2394   58.1321 H   0  0  0  0  0  0  0  0  0  0  0  0
  127.9155  130.6505   57.3723 H   0  0  0  0  0  0  0  0  0  0  0  0
  126.6974  130.5603   60.1428 H   0  0  0  0  0  0  0  0  0  0  0  0
  126.3758  131.7570   58.8256 H   0  0  0  0  0  0  0  0  0  0  0  0
  124.6239  129.9771   58.9651 H   0  0  0  0  0  0  0  0  0  0  0  0
  125.5189  129.9965   57.3803 H   0  0  0  0  0  0  0  0  0  0  0  0
  125.2476  127.6868   58.0110 H   0  0  0  0  0  0  0  0  0  0  0  0
  126.5590  128.0800   60.4530 H   0  0  0  0  0  0  0  0  0  0  0  0
  127.3514  128.2045   56.9956 H   0  0  0  0  0  0  0  0  0  0  0  0
  130.1841  125.9921   56.6998 H   0  0  0  0  0  0  0  0  0  0  0  0
  132.4460  125.6596   57.6739 H   0  0  0  0  0  0  0  0  0  0  0  0
  133.1780  126.2300   61.0040 H   0  0  0  0  0  0  0  0  0  0  0  0
  130.8073  126.0969   61.6440 H   0  0  0  0  0  0  0  0  0  0  0  0
  128.5426  126.4345   60.6755 H   0  0  0  0  0  0  0  0  0  0  0  0
  126.7041  125.9072   59.8101 H   0  0  0  0  0  0  0  0  0  0  0  0
  125.7723  125.6767   58.2575 H   0  0  0  0  0  0  0  0  0  0  0  0
  128.0663  123.9104   59.2391 H   0  0  0  0  0  0  0  0  0  0  0  0
  126.3046  123.5132   59.3062 H   0  0  0  0  0  0  0  0  0  0  0  0
  127.5484  122.4888   57.3406 H   0  0  0  0  0  0  0  0  0  0  0  0
  126.1280  123.5356   56.9049 H   0  0  0  0  0  0  0  0  0  0  0  0
  129.0950  124.2221   56.6898 H   0  0  0  0  0  0  0  0  0  0  0  0
  127.8694  124.0641   55.3621 H   0  0  0  0  0  0  0  0  0  0  0  0
  128.4134  126.4447   55.8943 H   0  0  0  0  0  0  0  0  0  0  0  0
  126.6617  125.9985   56.1914 H   0  0  0  0  0  0  0  0  0  0  0  0
  129.4033  128.7386   58.2298 H   0  0  0  0  0  0  0  0  0  0  0  0
  130.2718  128.8536   60.8316 H   0  0  0  0  0  0  0  0  0  0  0  0
  131.8490  130.6300   60.6330 H   0  0  0  0  0  0  0  0  0  0  0  0
  1  2  2  0
  2  3  1  0
  3  4  1  0
  4  5  2  0
  5  6  1  0
  6  7  1  0
  5  8  1  0
  8  9  1  0
  9 10  2  0
 10 11  1  0
 11 12  2  0
 12 13  1  0
 13 14  2  0
 14 15  1  0
 15 16  2  0
 16 17  1  0
 17 18  2  0
 18 19  1  0
 19 20  2  0
 20 21  1  0
 21 22  2  0
  2 23  1  0
 23 24  1  0
 24 25  1  0
 25 26  1  1
 25 27  1  0
 27 28  1  0
 27 29  1  0
 29 30  1  0
 30 31  1  0
 31 32  1  0
 32 33  1  0
 33 34  1  0
 34 35  1  0
 35 36  1  0
 35 37  1  0
 37 38  1  0
 38 39  1  0
 39 40  2  0
 40 41  1  0
 41 42  2  0
 42 43  1  0
 42 44  1  0
 44 45  2  0
 38 46  1  0
 46 47  1  0
 47 48  1  0
 48 49  1  0
 49 50  1  0
 37 51  1  0
 51 52  1  0
 52 53  1  0
 53 54  1  0
 54 55  1  6
 22  4  1  0
 53 23  1  0
 22  9  1  0
 54 25  1  0
 21 12  1  0
 54 31  1  0
 19 14  1  0
 51 32  1  0
 50 38  1  0
 45 39  1  0
  6 56  1  0
  6 57  1  0
  7 58  1  0
  8 59  1  0
 10 60  1  0
 11 61  1  0
 13 62  1  0
 15 63  1  0
 16 64  1  0
 17 65  1  0
 18 66  1  0
 20 67  1  0
 23 68  1  1
 26 69  1  0
 27 70  1  6
 28 71  1  0
 29 72  1  0
 29 73  1  0
 30 74  1  0
 30 75  1  0
 31 76  1  6
 32 77  1  6
 33 78  1  0
 33 79  1  0
 34 80  1  0
 34 81  1  0
 35 82  1  6
 36 83  1  0
 37 84  1  6
 40 85  1  0
 41 86  1  0
 43 87  1  0
 44 88  1  0
 45 89  1  0
 46 90  1  0
 46 91  1  0
 47 92  1  0
 47 93  1  0
 48 94  1  0
 48 95  1  0
 49 96  1  0
 49 97  1  0
 50 98  1  0
 50 99  1  0
 51100  1  6
 53101  1  1
 55102  1  0
M  END
>  <Binding energies>  (1) 
[-7.94]

>  <Ligand effiencies>  (1) 
[-0.12806451612903227]

>  <Interactions>  (1) 
["H-A:GLU:543:OE2:4910, V-B:TYR:539:CE1:9847, H-A:ALA:541:N:4891, V-B:GLU:543:CB:9878, V-A:PRO:540:C:4881, V-B:ALA:541:CB:9864, V-B:ASP:366:CG:8184, V-B:TYR:539:CE2:9848, V-A:TYR:484:CE2:4346, V-B:GLU:543:CG:9879, V-B:TYR:539:C:9839, V-A:ASP:366:CG:3213, V-A:TYR:539:CD1:4873, V-B:TYR:539:CZ:9849, V-A:ALA:541:CB:4892, V-A:GLU:543:CD:4908, V-A:TYR:484:CZ:4347, V-B:ASP:366:CB:8183, H-B:TYR:484:OH:9319, H-B:ASP:366:OD1:8185, V-A:HIS:456:CE1:4070, V-B:TYR:484:CZ:9318, H-B:HIS:456:NE2:9042, V-B:TYR:539:CD2:9846, V-A:GLU:543:CG:4907, V-B:GLU:543:CD:9880, V-A:TYR:539:C:4867, V-A:ASP:366:CB:3212, V-A:LEU:475:CD2:4259, H-A:GLU:543:OE1:4909, V-A:GLU:543:CB:4906, H-A:ASP:366:OD1:3214, V-A:PRO:540:N:4884, V-A:PRO:540:CA:4883, H-A:ASP:366:OD2:3215, V-A:TYR:539:CE1:4875"]

$$$$
ZINC2356479911
     RDKit          3D

 80 86  0  0  0  0  0  0  0  0999 V2000
  129.8420  124.5610   64.8550 C   0  0  0  0  0  0  0  0  0  0  0  0
  129.5610  124.5570   63.4600 O   0  0  0  0  0  0  0  0  0  0  0  0
  130.0810  123.4610   62.7130 C   0  0  2  0  0  0  0  0  0  0  0  0
  131.2090  122.7580   63.5010 C   0  0  0  0  0  0  0  0  0  0  0  0
  132.4790  123.6120   63.5610 C   0  0  0  0  0  0  0  0  0  0  0  0
  132.9770  123.9270   64.6440 O   0  0  0  0  0  0  0  0  0  0  0  0
  133.0560  124.0500   62.1800 C   0  0  0  0  0  0  0  0  0  0  0  0
  134.1950  125.0900   62.4250 C   0  0  0  0  0  0  0  0  0  0  0  0
  133.6780  122.7930   61.4940 C   0  0  0  0  0  0  0  0  0  0  0  0
  131.8700  124.6780   61.2990 C   0  0  2  0  0  0  0  0  0  0  0  0
  131.5860  126.1720   61.6330 C   0  0  0  0  0  0  0  0  0  0  0  0
  130.6880  126.8450   60.5770 C   0  0  2  0  0  0  0  0  0  0  0  0
  130.6610  128.2610   60.7970 O   0  0  0  0  0  0  0  0  0  0  0  0
  131.1740  129.1500   59.8680 C   0  0  0  0  0  0  0  0  0  0  0  0
  131.0890  130.5010   60.2080 C   0  0  0  0  0  0  0  0  0  0  0  0
  131.5680  131.4810   59.3430 C   0  0  0  0  0  0  0  0  0  0  0  0
  132.1380  131.1090   58.1300 C   0  0  0  0  0  0  0  0  0  0  0  0
  132.2350  129.7660   57.7760 C   0  0  0  0  0  0  0  0  0  0  0  0
  131.7570  128.7860   58.6430 C   0  0  0  0  0  0  0  0  0  0  0  0
  129.2320  126.2610   60.5670 C   0  0  2  0  0  0  0  0  0  0  0  0
  128.5340  126.7020   61.8970 C   0  0  0  0  0  0  0  0  0  0  0  0
  129.3520  124.6810   60.4770 C   0  0  2  0  0  0  0  0  0  0  0  0
  127.9780  123.9550   60.3220 C   0  0  0  0  0  0  0  0  0  0  0  0
  126.7970  124.8670   59.9390 C   0  0  0  0  0  0  0  0  0  0  0  0
  127.1200  125.9160   58.8390 C   0  0  2  0  0  0  0  0  0  0  0  0
  125.8150  126.7300   58.6390 C   0  0  0  0  0  0  0  0  0  0  0  0
  127.5410  125.2860   57.4330 C   0  0  2  0  0  0  0  0  0  0  0  0
  126.9450  123.9390   57.0540 C   0  0  0  0  0  0  0  0  0  0  0  0
  125.5990  123.6450   56.7980 C   0  0  0  0  0  0  0  0  0  0  0  0
  125.5040  122.3010   56.4840 C   0  0  0  0  0  0  0  0  0  0  0  0
  126.7320  121.7360   56.5150 O   0  0  0  0  0  0  0  0  0  0  0  0
  127.5980  122.7250   56.8510 C   0  0  0  0  0  0  0  0  0  0  0  0
  128.9680  125.3130   57.1720 O   0  0  0  0  0  0  0  0  0  0  0  0
  129.6590  126.4830   57.4520 C   0  0  0  0  0  0  0  0  0  0  0  0
  130.8510  126.5400   57.1600 O   0  0  0  0  0  0  0  0  0  0  0  0
  128.7640  127.5840   58.0450 C   0  0  2  0  0  0  0  0  0  0  0  0
  128.4920  128.1600   59.2860 O   0  0  0  0  0  0  0  0  0  0  0  0
  128.3350  126.7890   59.3360 C   0  0  2  0  0  0  0  0  0  0  0  0
  130.4970  123.8670   61.2530 C   0  0  2  0  0  0  0  0  0  0  0  0
  130.7040  122.5520   60.4280 C   0  0  0  0  0  0  0  0  0  0  0  0
  128.8978  124.5476   65.4193 H   0  0  0  0  0  0  0  0  0  0  0  0
  130.4355  123.6712   65.1120 H   0  0  0  0  0  0  0  0  0  0  0  0
  130.4099  125.4673   65.1120 H   0  0  0  0  0  0  0  0  0  0  0  0
  129.2734  122.7265   62.5780 H   0  0  0  0  0  0  0  0  0  0  0  0
  130.8605  122.5658   64.5265 H   0  0  0  0  0  0  0  0  0  0  0  0
  131.4531  121.8185   62.9836 H   0  0  0  0  0  0  0  0  0  0  0  0
  134.3423  125.2245   63.5068 H   0  0  0  0  0  0  0  0  0  0  0  0
  135.1281  124.7258   61.9704 H   0  0  0  0  0  0  0  0  0  0  0  0
  133.9169  126.0523   61.9704 H   0  0  0  0  0  0  0  0  0  0  0  0
  134.0262  122.0894   62.2645 H   0  0  0  0  0  0  0  0  0  0  0  0
  132.9180  122.3037   60.8671 H   0  0  0  0  0  0  0  0  0  0  0  0
  134.5280  123.1003   60.8671 H   0  0  0  0  0  0  0  0  0  0  0  0
  132.2898  124.5953   60.2856 H   0  0  0  0  0  0  0  0  0  0  0  0
  131.0851  126.2272   62.6108 H   0  0  0  0  0  0  0  0  0  0  0  0
  132.5488  126.7038   61.6453 H   0  0  0  0  0  0  0  0  0  0  0  0
  131.1206  126.6324   59.5882 H   0  0  0  0  0  0  0  0  0  0  0  0
  130.6394  130.7941   61.1682 H   0  0  0  0  0  0  0  0  0  0  0  0
  131.4961  132.5438   59.6173 H   0  0  0  0  0  0  0  0  0  0  0  0
  132.5153  131.8823   57.4447 H   0  0  0  0  0  0  0  0  0  0  0  0
  132.6875  129.4798   56.8151 H   0  0  0  0  0  0  0  0  0  0  0  0
  131.8363  127.7240   58.3675 H   0  0  0  0  0  0  0  0  0  0  0  0
  129.1154  126.3347   62.7555 H   0  0  0  0  0  0  0  0  0  0  0  0
  128.4778  127.7999   61.9350 H   0  0  0  0  0  0  0  0  0  0  0  0
  127.5183  126.2813   61.9350 H   0  0  0  0  0  0  0  0  0  0  0  0
  129.8806  124.6297   59.5137 H   0  0  0  0  0  0  0  0  0  0  0  0
  128.0839  123.1882   59.5405 H   0  0  0  0  0  0  0  0  0  0  0  0
  127.7368  123.5407   61.3121 H   0  0  0  0  0  0  0  0  0  0  0  0
  125.9760  124.2311   59.5762 H   0  0  0  0  0  0  0  0  0  0  0  0
  126.5353  125.4348   60.8440 H   0  0  0  0  0  0  0  0  0  0  0  0
  125.3930  126.9932   59.6202 H   0  0  0  0  0  0  0  0  0  0  0  0
  126.0386  127.6491   58.0775 H   0  0  0  0  0  0  0  0  0  0  0  0
  125.0879  126.1250   58.0775 H   0  0  0  0  0  0  0  0  0  0  0  0
  127.0474  125.9970   56.7541 H   0  0  0  0  0  0  0  0  0  0  0  0
  124.7631  124.3589   56.8395 H   0  0  0  0  0  0  0  0  0  0  0  0
  124.5698  121.7716   56.2450 H   0  0  0  0  0  0  0  0  0  0  0  0
  128.6845  122.5853   56.9511 H   0  0  0  0  0  0  0  0  0  0  0  0
  128.6828  128.1554   57.1086 H   0  0  0  0  0  0  0  0  0  0  0  0
  130.8374  121.7045   61.1164 H   0  0  0  0  0  0  0  0  0  0  0  0
  129.8228  122.3743   59.7941 H   0  0  0  0  0  0  0  0  0  0  0  0
  131.5972  122.6536   59.7941 H   0  0  0  0  0  0  0  0  0  0  0  0
  1  2  1  0
  2  3  1  0
  3  4  1  0
  4  5  1  0
  5  6  2  0
  5  7  1  0
  7  8  1  0
  7  9  1  0
  7 10  1  0
 10 11  1  0
 11 12  1  0
 12 13  1  0
 13 14  1  0
 14 15  2  0
 15 16  1  0
 16 17  2  0
 17 18  1  0
 18 19  2  0
 12 20  1  0
 20 21  1  1
 20 22  1  0
 22 23  1  0
 23 24  1  0
 24 25  1  0
 25 26  1  6
 25 27  1  0
 27 28  1  0
 28 29  1  0
 29 30  2  0
 30 31  1  0
 31 32  1  0
 27 33  1  0
 33 34  1  0
 34 35  2  0
 34 36  1  0
 36 37  1  0
 38 37  1  1
 22 39  1  0
 39 40  1  6
 39  3  1  0
 39 10  1  0
 19 14  1  0
 38 20  1  0
 38 25  1  0
 32 28  2  0
 38 36  1  0
  1 41  1  0
  1 42  1  0
  1 43  1  0
  3 44  1  6
  4 45  1  0
  4 46  1  0
  8 47  1  0
  8 48  1  0
  8 49  1  0
  9 50  1  0
  9 51  1  0
  9 52  1  0
 10 53  1  6
 11 54  1  0
 11 55  1  0
 12 56  1  6
 15 57  1  0
 16 58  1  0
 17 59  1  0
 18 60  1  0
 19 61  1  0
 21 62  1  0
 21 63  1  0
 21 64  1  0
 22 65  1  6
 23 66  1  0
 23 67  1  0
 24 68  1  0
 24 69  1  0
 26 70  1  0
 26 71  1  0
 26 72  1  0
 27 73  1  6
 29 74  1  0
 30 75  1  0
 32 76  1  0
 36 77  1  6
 40 78  1  0
 40 79  1  0
 40 80  1  0
M  END
>  <Binding energies>  (1) 
[-8.55]

>  <Ligand effiencies>  (1) 
[-0.21375000000000002]

>  <Interactions>  (1) 
["V-A:ILE:369:CG2:3237, V-B:PRO:540:CA:9855, V-B:ASP:366:CG:8184, H-A:TYR:531:OH:4795, V-B:TYR:539:CE2:9848, H-B:TYR:539:N:9842, V-B:GLU:543:CG:9879, V-B:TYR:539:C:9839, V-A:ASP:366:CG:3213, V-A:LEU:363:CD1:3189, V-B:TYR:539:CZ:9849, V-A:TYR:531:CE2:4793, V-B:ILE:538:CG2:9835, H-B:TYR:539:OH:9850, V-B:ASP:366:CB:8183, V-B:PRO:540:CB:9857, H-A:GLY:454:N:4050, V-B:PRO:540:N:9856, V-A:ILE:369:CD1:3239, V-B:TYR:539:CD2:9846, V-A:TYR:531:CZ:4794, V-B:PRO:540:CD:9859, V-B:GLU:543:CD:9880, V-A:ASP:366:CB:3212, V-A:LEU:475:CD2:4259, V-A:ARG:545:CZ:4926, V-B:TYR:539:CG:9844, V-B:TYR:539:CD1:9845, V-B:PRO:540:CG:9858, V-B:LEU:363:CD1:8160, V-A:GLY:453:CA:4044, V-A:PRO:540:CB:4885, V-A:PRO:540:CA:4883, V-B:MET:535:CE:9807, V-B:TYR:539:CE1:9847, H-A:TYR:484:OH:4348"]

$$$$
ZINC2356481445
     RDKit          3D

 41 43  0  0  0  0  0  0  0  0999 V2000
  130.1950  120.0330   61.2900 C   0  0  0  0  0  0  0  0  0  0  0  0
  130.3710  121.3510   61.0690 C   0  0  0  0  0  0  0  0  0  0  0  0
  129.1820  122.2480   60.7400 C   0  0  0  0  0  0  0  0  0  0  0  0
  128.2640  122.6060   61.9300 C   0  0  0  0  0  0  0  0  0  0  0  0
  128.8080  123.6120   62.9780 C   0  0  2  0  0  0  0  0  0  0  0  0
  128.9810  125.0400   62.4100 C   0  0  0  0  0  0  0  0  0  0  0  0
  129.9670  123.0550   63.8710 C   0  0  2  0  0  0  0  0  0  0  0  0
  129.4890  122.0780   64.9630 C   0  0  0  0  0  0  0  0  0  0  0  0
  130.9750  123.9610   64.2460 O   0  0  0  0  0  0  0  0  0  0  0  0
  131.4040  122.8930   63.4380 C   0  0  2  0  0  0  0  0  0  0  0  0
  131.9180  123.2240   62.0120 C   0  0  2  0  0  0  0  0  0  0  0  0
  131.7420  122.0420   61.0380 C   0  0  1  0  0  0  0  0  0  0  0  0
  132.9780  121.1670   61.3060 C   0  0  0  0  0  0  0  0  0  0  0  0
  134.1070  122.1440   61.6670 C   0  0  0  0  0  0  0  0  0  0  0  0
  133.4460  123.5170   61.9570 C   0  0  1  0  0  0  0  0  0  0  0  0
  133.7800  124.5470   60.8500 C   0  0  0  0  0  0  0  0  0  0  0  0
  133.9750  124.1190   63.1270 O   0  0  0  0  0  0  0  0  0  0  0  0
  131.0591  119.3948   61.5266 H   0  0  0  0  0  0  0  0  0  0  0  0
  129.1872  119.5957   61.2338 H   0  0  0  0  0  0  0  0  0  0  0  0
  129.5726  123.1866   60.3201 H   0  0  0  0  0  0  0  0  0  0  0  0
  128.5567  121.6731   60.0410 H   0  0  0  0  0  0  0  0  0  0  0  0
  127.3380  123.0309   61.5154 H   0  0  0  0  0  0  0  0  0  0  0  0
  128.1430  121.6632   62.4836 H   0  0  0  0  0  0  0  0  0  0  0  0
  128.0128  123.7403   63.7272 H   0  0  0  0  0  0  0  0  0  0  0  0
  129.0678  125.7567   63.2399 H   0  0  0  0  0  0  0  0  0  0  0  0
  129.8907  125.0815   61.7930 H   0  0  0  0  0  0  0  0  0  0  0  0
  128.1075  125.2975   61.7930 H   0  0  0  0  0  0  0  0  0  0  0  0
  129.6982  122.5056   65.9547 H   0  0  0  0  0  0  0  0  0  0  0  0
  128.4071  121.9103   64.8569 H   0  0  0  0  0  0  0  0  0  0  0  0
  130.0206  121.1208   64.8569 H   0  0  0  0  0  0  0  0  0  0  0  0
  132.1192  122.0585   63.4826 H   0  0  0  0  0  0  0  0  0  0  0  0
  131.3217  124.1048   61.7317 H   0  0  0  0  0  0  0  0  0  0  0  0
  131.7101  122.3631   59.9864 H   0  0  0  0  0  0  0  0  0  0  0  0
  132.7860  120.4770   62.1409 H   0  0  0  0  0  0  0  0  0  0  0  0
  133.2373  120.5512   60.4322 H   0  0  0  0  0  0  0  0  0  0  0  0
  134.6437  121.7877   62.5586 H   0  0  0  0  0  0  0  0  0  0  0  0
  134.8331  122.2247   60.8446 H   0  0  0  0  0  0  0  0  0  0  0  0
  134.0878  125.4961   61.3131 H   0  0  0  0  0  0  0  0  0  0  0  0
  134.5991  124.1612   60.2253 H   0  0  0  0  0  0  0  0  0  0  0  0
  132.8904  124.7153   60.2253 H   0  0  0  0  0  0  0  0  0  0  0  0
  133.2500  124.2940   63.7320 H   0  0  0  0  0  0  0  0  0  0  0  0
  1  2  2  0
  2  3  1  0
  3  4  1  0
  4  5  1  0
  5  6  1  0
  5  7  1  0
  7  8  1  1
  7  9  1  0
  9 10  1  0
 10 11  1  0
 11 12  1  0
 12 13  1  0
 13 14  1  0
 14 15  1  0
 15 16  1  0
 15 17  1  1
 12  2  1  0
 10  7  1  0
 15 11  1  0
  1 18  1  0
  1 19  1  0
  3 20  1  0
  3 21  1  0
  4 22  1  0
  4 23  1  0
  5 24  1  1
  6 25  1  0
  6 26  1  0
  6 27  1  0
  8 28  1  0
  8 29  1  0
  8 30  1  0
 10 31  1  1
 11 32  1  6
 12 33  1  6
 13 34  1  0
 13 35  1  0
 14 36  1  0
 14 37  1  0
 16 38  1  0
 16 39  1  0
 16 40  1  0
 17 41  1  0
M  END
>  <Binding energies>  (1) 
[-3.96]

>  <Ligand effiencies>  (1) 
[-0.198]

>  <Interactions>  (1) 
["V-A:ILE:369:CG2:3237, V-A:ASP:366:CA:3210, V-A:ILE:369:CD1:3239, V-B:PRO:540:CA:9855, V-B:TYR:539:CD2:9846, V-A:SER:385:CB:3409, V-B:GLU:543:CD:9880, V-B:ALA:541:CB:9864, V-B:TYR:539:CE2:9848, V-A:TYR:484:CE2:4346, V-A:LEU:475:CD2:4259, V-B:GLU:543:CG:9879, H-A:GLY:454:N:4050, V-A:ASP:366:CG:3213, H-A:TYR:484:OH:4348"]

$$$$
ZINC2356482123
     RDKit          3D

 50 52  0  0  0  0  0  0  0  0999 V2000
  129.0420  126.5660   68.7010 C   0  0  0  0  0  0  0  0  0  0  0  0
  130.0040  126.4070   67.5420 C   0  0  0  0  0  0  0  0  0  0  0  0
  130.0760  125.3210   66.7530 C   0  0  0  0  0  0  0  0  0  0  0  0
  131.0030  125.1780   65.6410 C   0  0  0  0  0  0  0  0  0  0  0  0
  130.5680  125.0200   64.3670 C   0  0  0  0  0  0  0  0  0  0  0  0
  131.5140  124.8790   63.2700 C   0  0  0  0  0  0  0  0  0  0  0  0
  131.1110  124.8020   61.9800 C   0  0  0  0  0  0  0  0  0  0  0  0
  132.1600  124.7500   60.8740 C   0  0  2  0  0  0  0  0  0  0  0  0
  131.8850  124.2040   59.4780 C   0  0  1  0  0  0  0  0  0  0  0  0
  131.0400  125.1670   58.6230 C   0  0  0  0  0  0  0  0  0  0  0  0
  131.5020  125.7470   57.6380 O   0  0  0  0  0  0  0  0  0  0  0  0
  129.5860  125.3670   59.0750 C   0  0  0  0  0  0  0  0  0  0  0  0
  128.7960  124.0620   59.3070 C   0  0  0  0  0  0  0  0  0  0  0  0
  128.3540  123.4010   57.9900 C   0  0  0  0  0  0  0  0  0  0  0  0
  126.8320  123.1880   57.9070 C   0  0  0  0  0  0  0  0  0  0  0  0
  126.3940  122.5110   56.6020 C   0  0  0  0  0  0  0  0  0  0  0  0
  133.3580  124.0510   59.0330 C   0  0  0  0  0  0  0  0  0  0  0  0
  133.8270  124.0560   57.8960 O   0  0  0  0  0  0  0  0  0  0  0  0
  134.1620  123.9720   60.1500 O   0  0  0  0  0  0  0  0  0  0  0  0
  133.3610  123.8960   61.3310 C   0  0  2  0  0  0  0  0  0  0  0  0
  133.0900  122.3870   61.6320 C   0  0  0  0  0  0  0  0  0  0  0  0
  133.9770  124.5350   62.6020 C   0  0  0  0  0  0  0  0  0  0  0  0
  135.1850  124.7360   62.7450 O   0  0  0  0  0  0  0  0  0  0  0  0
  132.9480  124.8370   63.6250 C   0  0  0  0  0  0  0  0  0  0  0  0
  133.2750  125.0020   64.9270 C   0  0  0  0  0  0  0  0  0  0  0  0
  132.3490  125.2150   65.9090 O   0  0  0  0  0  0  0  0  0  0  0  0
  129.5921  126.4751   69.6492 H   0  0  0  0  0  0  0  0  0  0  0  0
  128.5641  127.5553   68.6478 H   0  0  0  0  0  0  0  0  0  0  0  0
  128.2712  125.7831   68.6478 H   0  0  0  0  0  0  0  0  0  0  0  0
  130.6922  127.2388   67.3310 H   0  0  0  0  0  0  0  0  0  0  0  0
  129.3899  124.4869   66.9616 H   0  0  0  0  0  0  0  0  0  0  0  0
  129.4879  124.9981   64.1599 H   0  0  0  0  0  0  0  0  0  0  0  0
  130.0395  124.7772   61.7323 H   0  0  0  0  0  0  0  0  0  0  0  0
  132.2712  125.8366   60.7436 H   0  0  0  0  0  0  0  0  0  0  0  0
  131.2801  123.2884   59.4023 H   0  0  0  0  0  0  0  0  0  0  0  0
  129.5954  125.9337   60.0178 H   0  0  0  0  0  0  0  0  0  0  0  0
  129.0768  125.8962   58.2561 H   0  0  0  0  0  0  0  0  0  0  0  0
  129.4340  123.3565   59.8594 H   0  0  0  0  0  0  0  0  0  0  0  0
  127.8890  124.3159   59.8753 H   0  0  0  0  0  0  0  0  0  0  0  0
  128.6644  124.0441   57.1533 H   0  0  0  0  0  0  0  0  0  0  0  0
  128.8287  122.4098   57.9431 H   0  0  0  0  0  0  0  0  0  0  0  0
  126.5194  122.5568   58.7519 H   0  0  0  0  0  0  0  0  0  0  0  0
  126.3577  124.1800   57.9395 H   0  0  0  0  0  0  0  0  0  0  0  0
  125.8101  121.6084   56.8352 H   0  0  0  0  0  0  0  0  0  0  0  0
  125.7748  123.2074   56.0175 H   0  0  0  0  0  0  0  0  0  0  0  0
  127.2830  122.2317   56.0175 H   0  0  0  0  0  0  0  0  0  0  0  0
  133.0617  122.2295   62.7203 H   0  0  0  0  0  0  0  0  0  0  0  0
  132.1247  122.0933   61.1938 H   0  0  0  0  0  0  0  0  0  0  0  0
  133.8927  121.7758   61.1938 H   0  0  0  0  0  0  0  0  0  0  0  0
  134.3375  124.9628   65.2090 H   0  0  0  0  0  0  0  0  0  0  0  0
  1  2  1  0
  2  3  2  0
  3  4  1  0
  4  5  2  0
  5  6  1  0
  6  7  2  0
  7  8  1  0
  8  9  1  0
  9 10  1  0
 10 11  2  0
 10 12  1  0
 12 13  1  0
 13 14  1  0
 14 15  1  0
 15 16  1  0
  9 17  1  0
 17 18  2  0
 17 19  1  0
 19 20  1  0
 20 21  1  1
 20 22  1  0
 22 23  2  0
 22 24  1  0
 24 25  2  0
 25 26  1  0
 26  4  1  0
 24  6  1  0
 20  8  1  0
  1 27  1  0
  1 28  1  0
  1 29  1  0
  2 30  1  0
  3 31  1  0
  5 32  1  0
  7 33  1  0
  8 34  1  6
  9 35  1  1
 12 36  1  0
 12 37  1  0
 13 38  1  0
 13 39  1  0
 14 40  1  0
 14 41  1  0
 15 42  1  0
 15 43  1  0
 16 44  1  0
 16 45  1  0
 16 46  1  0
 21 47  1  0
 21 48  1  0
 21 49  1  0
 25 50  1  0
M  END
>  <Binding energies>  (1) 
[-7.81]

>  <Ligand effiencies>  (1) 
[-0.30038461538461536]

>  <Interactions>  (1) 
["V-A:ILE:369:CG2:3237, V-A:ASP:366:CA:3210, V-B:PRO:540:CA:9855, V-B:GLU:543:C:9874, V-A:ILE:369:CB:3236, V-B:GLU:543:CB:9878, H-A:ARG:545:NH1:4927, H-A:TYR:531:OH:4795, V-B:TYR:539:CE2:9848, V-B:GLU:543:CG:9879, V-B:TYR:539:C:9839, V-B:TYR:539:CZ:9849, H-A:ASN:370:N:3244, H-B:TYR:539:OH:9850, V-A:GLU:543:CD:4908, V-B:PRO:540:CB:9857, H-A:GLY:454:N:4050, V-B:PRO:540:N:9856, V-A:HIS:456:CE1:4070, V-B:TYR:539:CD2:9846, V-B:PRO:540:CD:9859, V-A:LEU:475:CD2:4259, H-A:ARG:545:NH2:4928, V-A:ARG:545:CZ:4926, H-A:ARG:545:NE:4924, V-B:TYR:539:CE1:9847, H-A:TYR:484:OH:4348"]

$$$$
ZINC2356485250
     RDKit          3D

 77 81  0  0  0  0  0  0  0  0999 V2000
  128.3710  133.3520   59.5910 C   0  0  0  0  0  0  0  0  0  0  0  0
  128.2140  131.9960   59.9890 O   0  0  0  0  0  0  0  0  0  0  0  0
  129.2850  131.4900   60.7840 C   0  0  2  0  0  0  0  0  0  0  0  0
  129.5170  132.3660   62.0320 C   0  0  0  0  0  0  0  0  0  0  0  0
  130.5820  132.3530   62.6530 O   0  0  0  0  0  0  0  0  0  0  0  0
  128.4380  133.1330   62.3220 O   0  0  0  0  0  0  0  0  0  0  0  0
  127.5190  132.7920   63.3630 C   0  0  2  0  0  0  0  0  0  0  0  0
  128.3540  132.6560   64.6520 C   0  0  0  0  0  0  0  0  0  0  0  0
  126.6960  131.5170   63.0050 C   0  0  2  0  0  0  0  0  0  0  0  0
  125.4100  131.3780   63.8400 C   0  0  0  0  0  0  0  0  0  0  0  0
  127.5250  130.2390   63.0180 C   0  0  0  0  0  0  0  0  0  0  0  0
  127.3680  129.2140   62.1580 C   0  0  0  0  0  0  0  0  0  0  0  0
  128.1710  128.0010   62.1410 C   0  0  0  0  0  0  0  0  0  0  0  0
  128.6580  127.3990   63.2560 C   0  0  0  0  0  0  0  0  0  0  0  0
  129.4320  126.1620   63.1700 C   0  0  0  0  0  0  0  0  0  0  0  0
  129.8350  125.4590   64.2730 C   0  0  0  0  0  0  0  0  0  0  0  0
  129.4990  126.0230   65.9210 Cl  0  0  0  0  0  0  0  0  0  0  0  0
  130.5300  124.1490   64.1590 C   0  0  0  0  0  0  0  0  0  0  0  0
  131.1350  123.6150   65.0890 O   0  0  0  0  0  0  0  0  0  0  0  0
  130.4070  123.5060   62.7540 C   0  0  2  0  0  0  0  0  0  0  0  0
  128.9970  122.8460   62.6350 C   0  0  0  0  0  0  0  0  0  0  0  0
  131.4480  122.5850   62.4290 O   0  0  0  0  0  0  0  0  0  0  0  0
  131.5550  122.4260   61.0260 C   0  0  2  0  0  0  0  0  0  0  0  0
  130.6630  121.4940   60.5410 O   0  0  0  0  0  0  0  0  0  0  0  0
  132.9740  121.9570   60.6520 C   0  0  2  0  0  0  0  0  0  0  0  0
  133.5970  120.8280   61.4990 C   0  0  0  0  0  0  0  0  0  0  0  0
  133.9120  123.1810   60.4970 C   0  0  2  0  0  0  0  0  0  0  0  0
  134.4010  123.8320   61.8090 C   0  0  0  0  0  0  0  0  0  0  0  0
  133.4210  124.1460   59.5560 O   0  0  0  0  0  0  0  0  0  0  0  0
  132.1020  124.5070   59.4940 C   0  0  0  0  0  0  0  0  0  0  0  0
  131.8210  125.3740   58.6680 O   0  0  0  0  0  0  0  0  0  0  0  0
  131.0990  123.7960   60.4300 C   0  0  2  0  0  0  0  0  0  0  0  0
  130.7770  124.5680   61.7160 C   0  0  1  0  0  0  0  0  0  0  0  0
  129.7650  125.7050   61.8090 C   0  0  0  0  0  0  0  0  0  0  0  0
  129.2240  126.3690   60.7660 C   0  0  0  0  0  0  0  0  0  0  0  0
  128.3860  127.4360   60.9120 O   0  0  0  0  0  0  0  0  0  0  0  0
  130.5510  131.4530   59.9280 C   0  0  0  0  0  0  0  0  0  0  0  0
  130.4340  131.4090   58.5350 C   0  0  0  0  0  0  0  0  0  0  0  0
  131.5740  131.3870   57.7370 C   0  0  0  0  0  0  0  0  0  0  0  0
  132.8340  131.4190   58.3320 C   0  0  0  0  0  0  0  0  0  0  0  0
  132.9630  131.4760   59.7180 C   0  0  0  0  0  0  0  0  0  0  0  0
  131.8240  131.4950   60.5160 C   0  0  0  0  0  0  0  0  0  0  0  0
  128.4449  133.9900   60.4840 H   0  0  0  0  0  0  0  0  0  0  0  0
  129.2870  133.4542   58.9905 H   0  0  0  0  0  0  0  0  0  0  0  0
  127.5026  133.6608   58.9905 H   0  0  0  0  0  0  0  0  0  0  0  0
  129.0284  130.4782   61.1309 H   0  0  0  0  0  0  0  0  0  0  0  0
  126.7541  133.5697   63.5047 H   0  0  0  0  0  0  0  0  0  0  0  0
  127.6968  132.7630   65.5276 H   0  0  0  0  0  0  0  0  0  0  0  0
  128.8361  131.6675   64.6740 H   0  0  0  0  0  0  0  0  0  0  0  0
  129.1248  133.4404   64.6740 H   0  0  0  0  0  0  0  0  0  0  0  0
  126.3797  131.6660   61.9621 H   0  0  0  0  0  0  0  0  0  0  0  0
  125.6629  131.4053   64.9102 H   0  0  0  0  0  0  0  0  0  0  0  0
  124.7276  132.2076   63.6032 H   0  0  0  0  0  0  0  0  0  0  0  0
  124.9206  130.4217   63.6032 H   0  0  0  0  0  0  0  0  0  0  0  0
  128.3082  130.1465   63.7848 H   0  0  0  0  0  0  0  0  0  0  0  0
  126.5680  129.3013   61.4081 H   0  0  0  0  0  0  0  0  0  0  0  0
  128.4669  127.8498   64.2410 H   0  0  0  0  0  0  0  0  0  0  0  0
  128.5943  122.6575   63.6411 H   0  0  0  0  0  0  0  0  0  0  0  0
  128.3209  123.5212   62.0900 H   0  0  0  0  0  0  0  0  0  0  0  0
  129.0824  121.8943   62.0900 H   0  0  0  0  0  0  0  0  0  0  0  0
  129.8780  121.9620   60.2480 H   0  0  0  0  0  0  0  0  0  0  0  0
  132.8509  121.4498   59.6837 H   0  0  0  0  0  0  0  0  0  0  0  0
  133.4700  121.0582   62.5671 H   0  0  0  0  0  0  0  0  0  0  0  0
  133.0962  119.8765   61.2669 H   0  0  0  0  0  0  0  0  0  0  0  0
  134.6690  120.7443   61.2669 H   0  0  0  0  0  0  0  0  0  0  0  0
  134.8255  122.7399   60.0716 H   0  0  0  0  0  0  0  0  0  0  0  0
  133.9879  123.2820   62.6674 H   0  0  0  0  0  0  0  0  0  0  0  0
  135.4999  123.7995   61.8471 H   0  0  0  0  0  0  0  0  0  0  0  0
  134.0636  124.8783   61.8471 H   0  0  0  0  0  0  0  0  0  0  0  0
  130.2601  123.6970   59.7254 H   0  0  0  0  0  0  0  0  0  0  0  0
  131.6931  125.1628   61.8465 H   0  0  0  0  0  0  0  0  0  0  0  0
  129.4708  126.0335   59.7479 H   0  0  0  0  0  0  0  0  0  0  0  0
  129.4379  131.3917   58.0687 H   0  0  0  0  0  0  0  0  0  0  0  0
  131.4811  131.3446   56.6418 H   0  0  0  0  0  0  0  0  0  0  0  0
  133.7350  131.3991   57.7013 H   0  0  0  0  0  0  0  0  0  0  0  0
  133.9612  131.5058   60.1792 H   0  0  0  0  0  0  0  0  0  0  0  0
  131.9216  131.5431   61.6106 H   0  0  0  0  0  0  0  0  0  0  0  0
  1  2  1  0
  2  3  1  0
  3  4  1  0
  4  5  2  0
  4  6  1  0
  6  7  1  0
  7  8  1  0
  7  9  1  0
  9 10  1  0
  9 11  1  0
 11 12  2  0
 12 13  1  0
 13 14  2  0
 14 15  1  0
 15 16  2  0
 16 17  1  0
 16 18  1  0
 18 19  2  0
 18 20  1  0
 20 21  1  6
 20 22  1  0
 22 23  1  0
 23 24  1  6
 23 25  1  0
 25 26  1  0
 25 27  1  0
 27 28  1  0
 27 29  1  0
 29 30  1  0
 30 31  2  0
 30 32  1  0
 32 33  1  0
 33 34  1  0
 34 35  2  0
 35 36  1  0
  3 37  1  0
 37 38  2  0
 38 39  1  0
 39 40  2  0
 40 41  1  0
 41 42  2  0
 36 13  1  0
 42 37  1  0
 34 15  1  0
 33 20  1  0
 32 23  1  0
  1 43  1  0
  1 44  1  0
  1 45  1  0
  3 46  1  1
  7 47  1  1
  8 48  1  0
  8 49  1  0
  8 50  1  0
  9 51  1  6
 10 52  1  0
 10 53  1  0
 10 54  1  0
 11 55  1  0
 12 56  1  0
 14 57  1  0
 21 58  1  0
 21 59  1  0
 21 60  1  0
 24 61  1  0
 25 62  1  6
 26 63  1  0
 26 64  1  0
 26 65  1  0
 27 66  1  6
 28 67  1  0
 28 68  1  0
 28 69  1  0
 32 70  1  6
 33 71  1  1
 35 72  1  0
 38 73  1  0
 39 74  1  0
 40 75  1  0
 41 76  1  0
 42 77  1  0
M  END
>  <Binding energies>  (1) 
[-7.96]

>  <Ligand effiencies>  (1) 
[-0.18511627906976744]

>  <Interactions>  (1) 
["V-A:ILE:369:CG2:3237, V-A:ILE:369:CB:3236, H-A:ALA:541:N:4891, V-B:GLU:543:CB:9878, V-B:ALA:541:CB:9864, V-B:TYR:539:CE2:9848, V-B:LEU:475:CD2:9230, V-B:GLU:543:CG:9879, V-A:ASP:366:CG:3213, V-A:TYR:539:CD1:4873, V-B:TYR:484:CE2:9317, V-A:LEU:363:CD1:3189, H-B:TYR:539:OH:9850, V-A:ALA:541:CB:4892, V-A:GLU:543:CD:4908, V-B:GLY:454:CA:9020, V-A:SER:385:C:3405, V-B:TYR:484:CZ:9318, V-A:ILE:369:CD1:3239, V-B:TYR:539:CD2:9846, V-A:GLU:543:CG:4907, V-A:SER:385:CB:3409, V-B:GLU:543:CD:9880, V-A:TYR:539:C:4867, V-A:LEU:475:CD2:4259, V-A:PRO:540:N:4884, V-A:PRO:540:CB:4885, V-A:PRO:540:CA:4883, V-A:LEU:363:CA:3185, H-B:TYR:539:O:9840, V-A:SER:385:CA:3407, V-A:TYR:539:CE1:4875, H-A:TYR:484:OH:4348"]

$$$$
ZINC2356488397
     RDKit          3D

 86 88  0  0  0  0  0  0  0  0999 V2000
  132.1290  122.0740   61.9800 C   0  0  0  0  0  0  0  0  0  0  0  0
  130.7000  122.5760   61.8160 C   0  0  0  0  0  0  0  0  0  0  0  0
  129.8500  121.8770   61.0210 C   0  0  0  0  0  0  0  0  0  0  0  0
  128.4300  122.1390   60.7720 C   0  0  0  0  0  0  0  0  0  0  0  0
  127.5940  122.3590   61.6520 O   0  0  0  0  0  0  0  0  0  0  0  0
  128.1380  122.0480   59.4520 O   0  0  0  0  0  0  0  0  0  0  0  0
  127.7890  123.1920   58.6760 C   0  0  0  0  0  0  0  0  0  0  0  0
  127.5050  124.4270   59.5520 C   0  0  0  0  0  0  0  0  0  0  0  0
  126.1530  125.0800   59.2120 C   0  0  0  0  0  0  0  0  0  0  0  0
  126.1940  126.0530   58.0170 C   0  0  0  0  0  0  0  0  0  0  0  0
  127.1560  127.2440   58.1960 C   0  0  0  0  0  0  0  0  0  0  0  0
  127.5870  127.4420   59.6600 C   0  0  0  0  0  0  0  0  0  0  0  0
  128.9960  128.0630   59.7930 C   0  0  0  0  0  0  0  0  0  0  0  0
  130.1050  127.0390   60.0840 C   0  0  0  0  0  0  0  0  0  0  0  0
  130.1220  126.4340   61.1580 O   0  0  0  0  0  0  0  0  0  0  0  0
  130.9910  126.8440   59.0850 N   0  0  0  0  0  0  0  0  0  0  0  0
  132.0540  125.9850   59.0860 C   0  0  0  0  0  0  0  0  0  0  0  0
  132.7900  125.4410   60.0700 C   0  0  0  0  0  0  0  0  0  0  0  0
  132.7800  125.5400   61.8400 S   0  0  0  0  0  0  0  0  0  0  0  0
  134.3670  124.2690   62.0600 S   0  0  0  0  0  0  0  0  0  0  0  0
  134.6310  124.0120   60.3190 C   0  0  0  0  0  0  0  0  0  0  0  0
  133.7980  124.6390   59.4770 C   0  0  0  0  0  0  0  0  0  0  0  0
  133.6510  124.7260   58.1500 N   0  0  0  0  0  0  0  0  0  0  0  0
  132.6280  125.5420   57.8260 C   0  0  0  0  0  0  0  0  0  0  0  0
  132.2740  125.8270   56.6820 O   0  0  0  0  0  0  0  0  0  0  0  0
  130.3530  123.8590   62.5920 C   0  0  0  0  0  0  0  0  0  0  0  0
  130.6280  123.8560   64.1180 C   0  0  2  0  0  0  0  0  0  0  0  0
  129.3910  123.9070   64.8310 O   0  0  0  0  0  0  0  0  0  0  0  0
  129.5390  123.6810   66.2330 C   0  0  0  0  0  0  0  0  0  0  0  0
  130.3570  124.8270   66.8850 C   0  0  2  0  0  0  0  0  0  0  0  0
  129.5160  126.1250   67.0240 C   0  0  0  0  0  0  0  0  0  0  0  0
  129.1260  126.4600   68.4530 C   0  0  0  0  0  0  0  0  0  0  0  0
  129.7690  127.3470   69.2340 C   0  0  0  0  0  0  0  0  0  0  0  0
  129.3810  127.6930   70.6650 C   0  0  2  0  0  0  0  0  0  0  0  0
  130.6340  127.7120   71.5660 C   0  0  0  0  0  0  0  0  0  0  0  0
  128.2640  126.7650   71.2180 C   0  0  2  0  0  0  0  0  0  0  0  0
  127.1580  127.5040   71.9970 C   0  0  0  0  0  0  0  0  0  0  0  0
  128.8160  125.8000   72.0950 O   0  0  0  0  0  0  0  0  0  0  0  0
  131.6960  125.0010   66.1030 C   0  0  2  0  0  0  0  0  0  0  0  0
  132.4830  126.0750   66.5860 O   0  0  0  0  0  0  0  0  0  0  0  0
  131.4850  125.0730   64.5650 C   0  0  2  0  0  0  0  0  0  0  0  0
  130.9270  126.3150   64.1630 O   0  0  0  0  0  0  0  0  0  0  0  0
  132.3676  121.9902   63.0505 H   0  0  0  0  0  0  0  0  0  0  0  0
  132.2279  121.0873   61.5039 H   0  0  0  0  0  0  0  0  0  0  0  0
  132.8233  122.7821   61.5039 H   0  0  0  0  0  0  0  0  0  0  0  0
  130.2795  121.0083   60.5005 H   0  0  0  0  0  0  0  0  0  0  0  0
  128.6208  123.4249   57.9950 H   0  0  0  0  0  0  0  0  0  0  0  0
  126.8699  122.9545   58.1203 H   0  0  0  0  0  0  0  0  0  0  0  0
  127.4941  124.1181   60.6077 H   0  0  0  0  0  0  0  0  0  0  0  0
  128.2961  125.1670   59.3607 H   0  0  0  0  0  0  0  0  0  0  0  0
  125.4344  124.2804   58.9791 H   0  0  0  0  0  0  0  0  0  0  0  0
  125.8645  125.6762   60.0903 H   0  0  0  0  0  0  0  0  0  0  0  0
  126.5068  125.4895   57.1256 H   0  0  0  0  0  0  0  0  0  0  0  0
  125.1836  126.4778   57.9243 H   0  0  0  0  0  0  0  0  0  0  0  0
  128.0536  127.0666   57.5854 H   0  0  0  0  0  0  0  0  0  0  0  0
  126.6232  128.1529   57.8798 H   0  0  0  0  0  0  0  0  0  0  0  0
  126.8623  128.1071   60.1524 H   0  0  0  0  0  0  0  0  0  0  0  0
  127.6178  126.4491   60.1324 H   0  0  0  0  0  0  0  0  0  0  0  0
  129.2380  128.5768   58.8510 H   0  0  0  0  0  0  0  0  0  0  0  0
  128.9621  128.7487   60.6525 H   0  0  0  0  0  0  0  0  0  0  0  0
  130.8280  127.3350   58.2170 H   0  0  0  0  0  0  0  0  0  0  0  0
  135.4421  123.3670   59.9502 H   0  0  0  0  0  0  0  0  0  0  0  0
  134.2460  124.2520   57.4850 H   0  0  0  0  0  0  0  0  0  0  0  0
  130.9363  124.6810   62.1515 H   0  0  0  0  0  0  0  0  0  0  0  0
  129.2618  123.9622   62.4990 H   0  0  0  0  0  0  0  0  0  0  0  0
  131.1817  122.9319   64.3403 H   0  0  0  0  0  0  0  0  0  0  0  0
  128.5438  123.6359   66.6994 H   0  0  0  0  0  0  0  0  0  0  0  0
  130.0729  122.7314   66.3858 H   0  0  0  0  0  0  0  0  0  0  0  0
  130.6193  124.5669   67.9211 H   0  0  0  0  0  0  0  0  0  0  0  0
  130.1040  126.9627   66.6208 H   0  0  0  0  0  0  0  0  0  0  0  0
  128.5803  125.9580   66.4703 H   0  0  0  0  0  0  0  0  0  0  0  0
  128.2556  125.9403   68.8800 H   0  0  0  0  0  0  0  0  0  0  0  0
  130.6419  127.8616   68.8059 H   0  0  0  0  0  0  0  0  0  0  0  0
  128.9479  128.7042   70.6653 H   0  0  0  0  0  0  0  0  0  0  0  0
  130.3263  127.7073   72.6221 H   0  0  0  0  0  0  0  0  0  0  0  0
  131.2480  126.8231   71.3590 H   0  0  0  0  0  0  0  0  0  0  0  0
  131.2207  128.6191   71.3590 H   0  0  0  0  0  0  0  0  0  0  0  0
  127.8105  126.3069   70.3266 H   0  0  0  0  0  0  0  0  0  0  0  0
  127.3307  127.3886   73.0772 H   0  0  0  0  0  0  0  0  0  0  0  0
  127.1760  128.5722   71.7348 H   0  0  0  0  0  0  0  0  0  0  0  0
  126.1781  127.0786   71.7348 H   0  0  0  0  0  0  0  0  0  0  0  0
  128.6890  124.9300   71.7110 H   0  0  0  0  0  0  0  0  0  0  0  0
  132.2746  124.0860   66.2977 H   0  0  0  0  0  0  0  0  0  0  0  0
  132.5120  126.7570   65.9110 H   0  0  0  0  0  0  0  0  0  0  0  0
  132.4605  125.0182   64.0597 H   0  0  0  0  0  0  0  0  0  0  0  0
  131.0960  126.9620   64.8510 H   0  0  0  0  0  0  0  0  0  0  0  0
  1  2  1  0
  2  3  2  0
  3  4  1  0
  4  5  2  0
  4  6  1  0
  6  7  1  0
  7  8  1  0
  8  9  1  0
  9 10  1  0
 10 11  1  0
 11 12  1  0
 12 13  1  0
 13 14  1  0
 14 15  2  0
 14 16  1  0
 16 17  1  0
 17 18  2  0
 18 19  1  0
 19 20  1  0
 20 21  1  0
 21 22  2  0
 22 23  1  0
 23 24  1  0
 24 25  2  0
  2 26  1  0
 26 27  1  0
 27 28  1  0
 28 29  1  0
 29 30  1  0
 30 31  1  0
 31 32  1  0
 32 33  2  0
 33 34  1  0
 34 35  1  0
 34 36  1  0
 36 37  1  0
 36 38  1  0
 30 39  1  0
 39 40  1  0
 39 41  1  0
 41 42  1  0
 24 17  1  0
 41 27  1  0
 22 18  1  0
  1 43  1  0
  1 44  1  0
  1 45  1  0
  3 46  1  0
  7 47  1  0
  7 48  1  0
  8 49  1  0
  8 50  1  0
  9 51  1  0
  9 52  1  0
 10 53  1  0
 10 54  1  0
 11 55  1  0
 11 56  1  0
 12 57  1  0
 12 58  1  0
 13 59  1  0
 13 60  1  0
 16 61  1  0
 21 62  1  0
 23 63  1  0
 26 64  1  0
 26 65  1  0
 27 66  1  1
 29 67  1  0
 29 68  1  0
 30 69  1  1
 31 70  1  0
 31 71  1  0
 32 72  1  0
 33 73  1  0
 34 74  1  6
 35 75  1  0
 35 76  1  0
 35 77  1  0
 36 78  1  6
 37 79  1  0
 37 80  1  0
 37 81  1  0
 38 82  1  0
 39 83  1  6
 40 84  1  0
 41 85  1  6
 42 86  1  0
M  END
>  <Binding energies>  (1) 
[-7.42]

>  <Ligand effiencies>  (1) 
[-0.15787234042553192]

>  <Interactions>  (1) 
["V-A:ILE:369:CG2:3237, V-A:ASP:366:CA:3210, V-B:PRO:540:CA:9855, V-B:GLU:543:C:9874, H-A:GLU:543:OE2:4910, H-B:GLU:543:O:9875, V-B:HIS:456:CD2:9039, V-A:ILE:369:CB:3236, V-B:GLU:543:CB:9878, H-B:LYS:547:NZ:9923, H-A:TYR:531:OH:4795, V-B:TYR:539:CE2:9848, V-A:TYR:484:CE2:4346, V-B:GLU:543:CG:9879, V-A:GLY:544:C:4912, V-B:TYR:539:C:9839, V-A:HIS:456:CD2:4068, V-A:ASP:366:CG:3213, V-B:TYR:539:CZ:9849, H-B:TYR:539:OH:9850, H-B:ALA:541:N:9863, V-A:TYR:484:CZ:4347, V-B:GLU:543:CA:9876, V-B:HIS:456:CE1:9041, V-B:PRO:540:N:9856, V-A:HIS:456:CE1:4070, V-A:ILE:369:CD1:3239, V-B:GLY:544:C:9884, V-A:ASP:366:C:3208, V-B:TYR:539:CD2:9846, V-B:GLU:543:CD:9880, V-B:HIS:456:CG:9037, V-A:ILE:369:CG1:3238, V-A:ASP:366:CB:3212, V-A:LEU:475:CD2:4259, H-A:ARG:545:NH2:4928, V-A:ARG:545:CZ:4926, H-A:GLU:543:OE1:4909, H-A:ASP:366:O:3209, V-A:GLU:543:CB:4906, H-A:ARG:545:NE:4924, V-B:PRO:540:C:9853, H-A:HIS:456:NE2:4071, H-A:TYR:484:OH:4348"]

$$$$
ZINC2356490089
     RDKit          3D

 94 94  0  0  0  0  0  0  0  0999 V2000
  127.5600  120.4330   75.6790 C   0  0  0  0  0  0  0  0  0  0  0  0
  128.6810  120.0730   74.7130 C   0  0  0  0  0  0  0  0  0  0  0  0
  128.2780  119.0810   73.6360 C   0  0  0  0  0  0  0  0  0  0  0  0
  129.9320  120.5800   74.7660 C   0  0  0  0  0  0  0  0  0  0  0  0
  130.4980  121.5540   75.7870 C   0  0  0  0  0  0  0  0  0  0  0  0
  129.7200  122.8850   75.8550 C   0  0  0  0  0  0  0  0  0  0  0  0
  129.6470  123.7380   74.5850 C   0  0  0  0  0  0  0  0  0  0  0  0
  128.8280  123.0730   73.4820 C   0  0  0  0  0  0  0  0  0  0  0  0
  130.2510  124.9460   74.4650 C   0  0  0  0  0  0  0  0  0  0  0  0
  130.2200  125.8250   73.3060 C   0  0  0  0  0  0  0  0  0  0  0  0
  129.5770  127.0100   73.3130 C   0  0  0  0  0  0  0  0  0  0  0  0
  129.4960  127.9410   72.1880 C   0  0  0  0  0  0  0  0  0  0  0  0
  129.5640  129.4490   72.4370 C   0  0  0  0  0  0  0  0  0  0  0  0
  129.3630  127.4060   70.9500 C   0  0  0  0  0  0  0  0  0  0  0  0
  129.2640  128.1230   69.6870 C   0  0  0  0  0  0  0  0  0  0  0  0
  129.1980  127.4960   68.4990 C   0  0  0  0  0  0  0  0  0  0  0  0
  129.1060  128.2150   67.2360 C   0  0  0  0  0  0  0  0  0  0  0  0
  127.9740  128.6500   66.6300 C   0  0  0  0  0  0  0  0  0  0  0  0
  126.5870  128.4810   67.2400 C   0  0  0  0  0  0  0  0  0  0  0  0
  128.0600  129.3650   65.3620 C   0  0  0  0  0  0  0  0  0  0  0  0
  127.4840  128.9750   64.2070 C   0  0  0  0  0  0  0  0  0  0  0  0
  127.6030  129.7400   62.9740 C   0  0  0  0  0  0  0  0  0  0  0  0
  127.9820  131.0350   62.8470 C   0  0  0  0  0  0  0  0  0  0  0  0
  128.3390  131.9170   64.0450 C   0  0  0  0  0  0  0  0  0  0  0  0
  128.0330  131.5850   61.4930 C   0  0  0  0  0  0  0  0  0  0  0  0
  126.9720  131.7840   60.6860 C   0  0  0  0  0  0  0  0  0  0  0  0
  127.1040  132.3330   59.3450 C   0  0  0  0  0  0  0  0  0  0  0  0
  127.0400  131.6480   58.1810 C   0  0  0  0  0  0  0  0  0  0  0  0
  126.7980  130.1460   58.0600 C   0  0  0  0  0  0  0  0  0  0  0  0
  127.2090  132.3600   56.8450 C   0  0  0  0  0  0  0  0  0  0  0  0
  128.5660  132.2840   56.4060 O   0  0  0  0  0  0  0  0  0  0  0  0
  129.4920  131.6070   57.2130 C   0  0  1  0  0  0  0  0  0  0  0  0
  129.7250  130.3060   56.7250 O   0  0  0  0  0  0  0  0  0  0  0  0
  130.5360  129.4850   57.5780 C   0  0  2  0  0  0  0  0  0  0  0  0
  129.7960  129.0700   58.8780 C   0  0  0  0  0  0  0  0  0  0  0  0
  128.7080  128.2070   58.6130 O   0  0  0  0  0  0  0  0  0  0  0  0
  131.9350  130.1370   57.7570 C   0  0  2  0  0  0  0  0  0  0  0  0
  132.7910  129.3710   58.5860 O   0  0  0  0  0  0  0  0  0  0  0  0
  131.8110  131.6030   58.2280 C   0  0  1  0  0  0  0  0  0  0  0  0
  133.0770  132.2410   58.2690 O   0  0  0  0  0  0  0  0  0  0  0  0
  130.8210  132.3880   57.3320 C   0  0  2  0  0  0  0  0  0  0  0  0
  130.5930  133.6960   57.8280 O   0  0  0  0  0  0  0  0  0  0  0  0
  127.9164  120.3185   76.7133 H   0  0  0  0  0  0  0  0  0  0  0  0
  127.2516  121.4754   75.5107 H   0  0  0  0  0  0  0  0  0  0  0  0
  126.7023  119.7651   75.5107 H   0  0  0  0  0  0  0  0  0  0  0  0
  127.9039  118.1601   74.1072 H   0  0  0  0  0  0  0  0  0  0  0  0
  127.4870  119.5202   73.0104 H   0  0  0  0  0  0  0  0  0  0  0  0
  129.1512  118.8441   73.0104 H   0  0  0  0  0  0  0  0  0  0  0  0
  130.6231  120.2489   73.9769 H   0  0  0  0  0  0  0  0  0  0  0  0
  130.4653  121.0790   76.7786 H   0  0  0  0  0  0  0  0  0  0  0  0
  131.5260  121.7921   75.4762 H   0  0  0  0  0  0  0  0  0  0  0  0
  128.6873  122.6462   76.1490 H   0  0  0  0  0  0  0  0  0  0  0  0
  130.2878  123.5003   76.5684 H   0  0  0  0  0  0  0  0  0  0  0  0
  128.0494  122.4408   73.9339 H   0  0  0  0  0  0  0  0  0  0  0  0
  128.3560  123.8467   72.8586 H   0  0  0  0  0  0  0  0  0  0  0  0
  129.4883  122.4522   72.8586 H   0  0  0  0  0  0  0  0  0  0  0  0
  130.8245  125.2984   75.3350 H   0  0  0  0  0  0  0  0  0  0  0  0
  130.7408  125.5109   72.3895 H   0  0  0  0  0  0  0  0  0  0  0  0
  129.0699  127.3015   74.2446 H   0  0  0  0  0  0  0  0  0  0  0  0
  129.5727  129.6418   73.5199 H   0  0  0  0  0  0  0  0  0  0  0  0
  130.4813  129.8543   71.9850 H   0  0  0  0  0  0  0  0  0  0  0  0
  128.6869  129.9352   71.9850 H   0  0  0  0  0  0  0  0  0  0  0  0
  129.3257  126.3081   70.8932 H   0  0  0  0  0  0  0  0  0  0  0  0
  129.2423  129.2226   69.7050 H   0  0  0  0  0  0  0  0  0  0  0  0
  129.2142  126.3963   68.4807 H   0  0  0  0  0  0  0  0  0  0  0  0
  130.0539  128.4273   66.7198 H   0  0  0  0  0  0  0  0  0  0  0  0
  126.6653  128.4905   68.3372 H   0  0  0  0  0  0  0  0  0  0  0  0
  125.9388  129.3068   66.9115 H   0  0  0  0  0  0  0  0  0  0  0  0
  126.1561  127.5237   66.9115 H   0  0  0  0  0  0  0  0  0  0  0  0
  128.6420  130.2983   65.3465 H   0  0  0  0  0  0  0  0  0  0  0  0
  126.9012  128.0421   64.1958 H   0  0  0  0  0  0  0  0  0  0  0  0
  127.3583  129.2082   62.0427 H   0  0  0  0  0  0  0  0  0  0  0  0
  128.1199  131.3756   64.9771 H   0  0  0  0  0  0  0  0  0  0  0  0
  129.4094  132.1678   64.0096 H   0  0  0  0  0  0  0  0  0  0  0  0
  127.7444  132.8418   64.0096 H   0  0  0  0  0  0  0  0  0  0  0  0
  129.0226  131.8600   61.0992 H   0  0  0  0  0  0  0  0  0  0  0  0
  125.9694  131.5217   61.0547 H   0  0  0  0  0  0  0  0  0  0  0  0
  127.2734  133.4173   59.2705 H   0  0  0  0  0  0  0  0  0  0  0  0
  126.7268  129.7040   59.0648 H   0  0  0  0  0  0  0  0  0  0  0  0
  125.8597  129.9686   57.5140 H   0  0  0  0  0  0  0  0  0  0  0  0
  127.6331  129.6829   57.5140 H   0  0  0  0  0  0  0  0  0  0  0  0
  126.5590  131.8837   56.0962 H   0  0  0  0  0  0  0  0  0  0  0  0
  126.9336  133.4178   56.9682 H   0  0  0  0  0  0  0  0  0  0  0  0
  129.0571  131.5301   58.2204 H   0  0  0  0  0  0  0  0  0  0  0  0
  130.7257  128.5138   57.0977 H   0  0  0  0  0  0  0  0  0  0  0  0
  130.5055  128.5542   59.5418 H   0  0  0  0  0  0  0  0  0  0  0  0
  129.4009  129.9812   59.3509 H   0  0  0  0  0  0  0  0  0  0  0  0
  128.4590  128.3030   57.6900 H   0  0  0  0  0  0  0  0  0  0  0  0
  132.4155  130.1515   56.7676 H   0  0  0  0  0  0  0  0  0  0  0  0
  133.3240  129.9710   59.1130 H   0  0  0  0  0  0  0  0  0  0  0  0
  131.4108  131.5938   59.2526 H   0  0  0  0  0  0  0  0  0  0  0  0
  132.9900  133.1150   57.8820 H   0  0  0  0  0  0  0  0  0  0  0  0
  131.2685  132.4926   56.3326 H   0  0  0  0  0  0  0  0  0  0  0  0
  129.6750  133.9260   57.6640 H   0  0  0  0  0  0  0  0  0  0  0  0
  1  2  1  0
  2  3  1  0
  2  4  2  3
  4  5  1  0
  5  6  1  0
  6  7  1  0
  7  8  1  0
  7  9  2  0
  9 10  1  0
 10 11  2  0
 11 12  1  0
 12 13  1  0
 12 14  2  0
 14 15  1  0
 15 16  2  0
 16 17  1  0
 17 18  2  0
 18 19  1  0
 18 20  1  0
 20 21  2  0
 21 22  1  0
 22 23  2  0
 23 24  1  0
 23 25  1  0
 25 26  2  0
 26 27  1  0
 27 28  2  0
 28 29  1  0
 28 30  1  0
 30 31  1  0
 31 32  1  0
 32 33  1  0
 33 34  1  0
 34 35  1  0
 35 36  1  0
 34 37  1  0
 37 38  1  0
 37 39  1  0
 39 40  1  0
 39 41  1  0
 41 42  1  0
 41 32  1  0
  1 43  1  0
  1 44  1  0
  1 45  1  0
  3 46  1  0
  3 47  1  0
  3 48  1  0
  4 49  1  0
  5 50  1  0
  5 51  1  0
  6 52  1  0
  6 53  1  0
  8 54  1  0
  8 55  1  0
  8 56  1  0
  9 57  1  0
 10 58  1  0
 11 59  1  0
 13 60  1  0
 13 61  1  0
 13 62  1  0
 14 63  1  0
 15 64  1  0
 16 65  1  0
 17 66  1  0
 19 67  1  0
 19 68  1  0
 19 69  1  0
 20 70  1  0
 21 71  1  0
 22 72  1  0
 24 73  1  0
 24 74  1  0
 24 75  1  0
 25 76  1  0
 26 77  1  0
 27 78  1  0
 29 79  1  0
 29 80  1  0
 29 81  1  0
 30 82  1  0
 30 83  1  0
 32 84  1  1
 34 85  1  6
 35 86  1  0
 35 87  1  0
 36 88  1  0
 37 89  1  6
 38 90  1  0
 39 91  1  1
 40 92  1  0
 41 93  1  6
 42 94  1  0
M  END
>  <Binding energies>  (1) 
[-3.93]

>  <Ligand effiencies>  (1) 
[-0.08543478260869565]

>  <Interactions>  (1) 
["V-B:HIS:456:CD2:9039, V-A:GLU:543:C:4902, H-A:TYR:531:OH:4795, V-A:TYR:539:CE2:4876, V-A:HIS:456:CD2:4068, V-A:TYR:539:CD1:4873, V-A:LEU:363:CD1:3189, V-A:TYR:539:CZ:4877, V-A:TYR:531:CE2:4793, V-A:ALA:541:CB:4892, V-B:LYS:547:CE:9922, V-A:ASP:473:CG:4240, V-A:GLU:543:CD:4908, V-B:HIS:456:CE1:9041, V-A:HIS:456:CE1:4070, V-A:GLU:543:CG:4907, V-A:TYR:531:CZ:4794, V-B:GLU:543:CD:9880, V-A:MET:535:CE:4835, V-A:TYR:484:CB:4341, V-A:HIS:456:CG:4066, V-A:GLU:543:CB:4906, H-A:TYR:539:O:4868, V-A:PRO:540:N:4884, H-A:TYR:539:N:4870, V-A:PRO:540:CB:4885, H-A:ASP:366:OD2:3215, V-A:TYR:484:C:4337, V-A:TYR:539:CE1:4875"]

$$$$
ZINC2356491213
     RDKit          3D

 88 90  0  0  0  0  0  0  0  0999 V2000
  128.2890  123.3670   59.0310 C   0  0  0  0  0  0  0  0  0  0  0  0
  129.3200  124.1690   59.3720 C   0  0  0  0  0  0  0  0  0  0  0  0
  129.6110  124.5630   60.8250 C   0  0  0  0  0  0  0  0  0  0  0  0
  128.4610  124.4140   61.8500 C   0  0  0  0  0  0  0  0  0  0  0  0
  128.4940  123.0870   62.6500 C   0  0  2  0  0  0  0  0  0  0  0  0
  127.1880  122.8190   63.1350 O   0  0  0  0  0  0  0  0  0  0  0  0
  129.5250  123.0580   63.8260 C   0  0  2  0  0  0  0  0  0  0  0  0
  129.1200  122.1620   65.0180 C   0  0  0  0  0  0  0  0  0  0  0  0
  129.9680  124.4650   64.2890 C   0  0  0  0  0  0  0  0  0  0  0  0
  131.1960  124.7500   63.4610 C   0  0  0  0  0  0  0  0  0  0  0  0
  131.8500  123.3720   63.3740 C   0  0  2  0  0  0  0  0  0  0  0  0
  132.8110  123.1040   62.1770 C   0  0  0  0  0  0  0  0  0  0  0  0
  133.4030  124.4270   61.6470 C   0  0  0  0  0  0  0  0  0  0  0  0
  133.9420  122.1050   62.5110 C   0  0  0  0  0  0  0  0  0  0  0  0
  132.0540  122.5420   61.1200 O   0  0  0  0  0  0  0  0  0  0  0  0
  130.7340  122.4810   63.3050 O   0  0  0  0  0  0  0  0  0  0  0  0
  130.2870  124.6990   58.2910 C   0  0  2  0  0  0  0  0  0  0  0  0
  131.6950  125.1710   58.7710 C   0  0  0  0  0  0  0  0  0  0  0  0
  131.7140  126.6280   59.2600 C   0  0  0  0  0  0  0  0  0  0  0  0
  131.0860  127.5090   58.1680 C   0  0  2  0  0  0  0  0  0  0  0  0
  131.1130  128.8780   58.5550 O   0  0  0  0  0  0  0  0  0  0  0  0
  130.7060  129.8020   57.5340 C   0  0  2  0  0  0  0  0  0  0  0  0
  130.8060  131.2770   58.0620 C   0  0  2  0  0  0  0  0  0  0  0  0
  131.2610  132.2150   56.9070 C   0  0  0  0  0  0  0  0  0  0  0  0
  131.8240  131.3700   59.2390 C   0  0  0  0  0  0  0  0  0  0  0  0
  131.2200  131.2390   60.6600 C   0  0  0  0  0  0  0  0  0  0  0  0
  132.0990  131.8040   61.7830 C   0  0  0  0  0  0  0  0  0  0  0  0
  133.6000  131.8430   61.5220 C   0  0  0  0  0  0  0  0  0  0  0  0
  131.6350  132.2110   62.8490 O   0  0  0  0  0  0  0  0  0  0  0  0
  129.5510  131.7270   58.6160 O   0  0  0  0  0  0  0  0  0  0  0  0
  129.0480  132.9880   58.5090 C   0  0  0  0  0  0  0  0  0  0  0  0
  128.3630  133.4390   59.7920 C   0  0  0  0  0  0  0  0  0  0  0  0
  129.1030  133.7240   57.5240 O   0  0  0  0  0  0  0  0  0  0  0  0
  129.3380  129.4120   56.8850 C   0  0  0  0  0  0  0  0  0  0  0  0
  129.1520  127.8920   56.6680 C   0  0  0  0  0  0  0  0  0  0  0  0
  129.6270  127.0660   57.8830 C   0  0  2  0  0  0  0  0  0  0  0  0
  128.6630  127.2930   59.0820 C   0  0  0  0  0  0  0  0  0  0  0  0
  129.6770  125.6940   57.4390 O   0  0  0  0  0  0  0  0  0  0  0  0
  128.1177  123.1103   57.9752 H   0  0  0  0  0  0  0  0  0  0  0  0
  127.6202  122.9702   59.8090 H   0  0  0  0  0  0  0  0  0  0  0  0
  130.4467  123.9390   61.1745 H   0  0  0  0  0  0  0  0  0  0  0  0
  129.8141  125.6434   60.7870 H   0  0  0  0  0  0  0  0  0  0  0  0
  128.5238  125.2490   62.5633 H   0  0  0  0  0  0  0  0  0  0  0  0
  127.5226  124.4150   61.2761 H   0  0  0  0  0  0  0  0  0  0  0  0
  128.8345  122.3057   61.9545 H   0  0  0  0  0  0  0  0  0  0  0  0
  126.6860  123.6370   63.1280 H   0  0  0  0  0  0  0  0  0  0  0  0
  129.3534  122.6784   65.9608 H   0  0  0  0  0  0  0  0  0  0  0  0
  128.0407  121.9548   64.9709 H   0  0  0  0  0  0  0  0  0  0  0  0
  129.6776  121.2149   64.9709 H   0  0  0  0  0  0  0  0  0  0  0  0
  129.1813  125.2079   64.0907 H   0  0  0  0  0  0  0  0  0  0  0  0
  130.1650  124.5131   65.3701 H   0  0  0  0  0  0  0  0  0  0  0  0
  130.9263  125.1277   62.4637 H   0  0  0  0  0  0  0  0  0  0  0  0
  131.8495  125.5238   63.8902 H   0  0  0  0  0  0  0  0  0  0  0  0
  132.5221  123.2508   64.2363 H   0  0  0  0  0  0  0  0  0  0  0  0
  133.6891  125.0664   62.4951 H   0  0  0  0  0  0  0  0  0  0  0  0
  134.2907  124.2119   61.0341 H   0  0  0  0  0  0  0  0  0  0  0  0
  132.6511  124.9456   61.0341 H   0  0  0  0  0  0  0  0  0  0  0  0
  134.0423  122.0164   63.6028 H   0  0  0  0  0  0  0  0  0  0  0  0
  133.6997  121.1207   62.0839 H   0  0  0  0  0  0  0  0  0  0  0  0
  134.8889  122.4670   62.0839 H   0  0  0  0  0  0  0  0  0  0  0  0
  131.2170  122.2340   61.4730 H   0  0  0  0  0  0  0  0  0  0  0  0
  130.4919  123.7909   57.7050 H   0  0  0  0  0  0  0  0  0  0  0  0
  132.0180  124.5211   59.5976 H   0  0  0  0  0  0  0  0  0  0  0  0
  132.3717  125.1089   57.9060 H   0  0  0  0  0  0  0  0  0  0  0  0
  131.1329  126.7164   60.1898 H   0  0  0  0  0  0  0  0  0  0  0  0
  132.7472  126.9485   59.4595 H   0  0  0  0  0  0  0  0  0  0  0  0
  131.6771  127.3899   57.2480 H   0  0  0  0  0  0  0  0  0  0  0  0
  131.4098  129.7398   56.6909 H   0  0  0  0  0  0  0  0  0  0  0  0
  131.7042  133.1287   57.3297 H   0  0  0  0  0  0  0  0  0  0  0  0
  132.0083  131.6977   56.2874 H   0  0  0  0  0  0  0  0  0  0  0  0
  130.3921  132.4817   56.2874 H   0  0  0  0  0  0  0  0  0  0  0  0
  132.5639  130.5662   59.1106 H   0  0  0  0  0  0  0  0  0  0  0  0
  132.2521  132.3819   59.1867 H   0  0  0  0  0  0  0  0  0  0  0  0
  130.2589  131.7739   60.6748 H   0  0  0  0  0  0  0  0  0  0  0  0
  131.1178  130.1616   60.8568 H   0  0  0  0  0  0  0  0  0  0  0  0
  134.1387  131.8570   62.4810 H   0  0  0  0  0  0  0  0  0  0  0  0
  133.8957  130.9522   60.9483 H   0  0  0  0  0  0  0  0  0  0  0  0
  133.8490  132.7479   60.9483 H   0  0  0  0  0  0  0  0  0  0  0  0
  128.9279  133.0671   60.6595 H   0  0  0  0  0  0  0  0  0  0  0  0
  128.3270  134.5380   59.8217 H   0  0  0  0  0  0  0  0  0  0  0  0
  127.3392  133.0377   59.8217 H   0  0  0  0  0  0  0  0  0  0  0  0
  128.5303  129.7686   57.5412 H   0  0  0  0  0  0  0  0  0  0  0  0
  129.3147  129.8795   55.8896 H   0  0  0  0  0  0  0  0  0  0  0  0
  128.0851  127.6869   56.4957 H   0  0  0  0  0  0  0  0  0  0  0  0
  129.7618  127.5979   55.8010 H   0  0  0  0  0  0  0  0  0  0  0  0
  129.2140  127.1632   60.0252 H   0  0  0  0  0  0  0  0  0  0  0  0
  128.2524  128.3124   59.0345 H   0  0  0  0  0  0  0  0  0  0  0  0
  127.8407  126.5639   59.0345 H   0  0  0  0  0  0  0  0  0  0  0  0
  1  2  2  0
  2  3  1  0
  3  4  1  0
  4  5  1  0
  5  6  1  0
  5  7  1  0
  7  8  1  1
  7  9  1  0
  9 10  1  0
 10 11  1  0
 11 12  1  0
 12 13  1  0
 12 14  1  0
 12 15  1  0
 11 16  1  0
  2 17  1  0
 17 18  1  0
 18 19  1  0
 19 20  1  0
 20 21  1  0
 21 22  1  0
 22 23  1  0
 23 24  1  0
 23 25  1  0
 25 26  1  0
 26 27  1  0
 27 28  1  0
 27 29  2  0
 23 30  1  1
 30 31  1  0
 31 32  1  0
 31 33  2  0
 22 34  1  0
 34 35  1  0
 35 36  1  0
 36 37  1  1
 36 38  1  0
 16  7  1  0
 38 17  1  0
 36 20  1  0
  1 39  1  0
  1 40  1  0
  3 41  1  0
  3 42  1  0
  4 43  1  0
  4 44  1  0
  5 45  1  6
  6 46  1  0
  8 47  1  0
  8 48  1  0
  8 49  1  0
  9 50  1  0
  9 51  1  0
 10 52  1  0
 10 53  1  0
 11 54  1  1
 13 55  1  0
 13 56  1  0
 13 57  1  0
 14 58  1  0
 14 59  1  0
 14 60  1  0
 15 61  1  0
 17 62  1  6
 18 63  1  0
 18 64  1  0
 19 65  1  0
 19 66  1  0
 20 67  1  6
 22 68  1  6
 24 69  1  0
 24 70  1  0
 24 71  1  0
 25 72  1  0
 25 73  1  0
 26 74  1  0
 26 75  1  0
 28 76  1  0
 28 77  1  0
 28 78  1  0
 32 79  1  0
 32 80  1  0
 32 81  1  0
 34 82  1  0
 34 83  1  0
 35 84  1  0
 35 85  1  0
 37 86  1  0
 37 87  1  0
 37 88  1  0
M  END
>  <Binding energies>  (1) 
[-8.33]

>  <Ligand effiencies>  (1) 
[-0.20825]

>  <Interactions>  (1) 
["V-A:GLY:454:CA:4049, H-A:ALA:541:N:4891, V-B:ALA:541:CB:9864, H-A:TYR:531:OH:4795, V-B:TYR:539:CE2:9848, V-A:TYR:484:CE2:4346, H-B:ALA:541:O:9861, V-B:GLU:543:CG:9879, V-A:ASP:366:CG:3213, V-A:ASN:362:CB:3176, V-A:LEU:363:CD1:3189, V-A:TYR:539:CD1:4873, V-B:TYR:539:CZ:9849, H-B:GLU:543:OE1:9881, H-B:TYR:539:OH:9850, H-B:ALA:541:N:9863, V-A:ILE:369:CD1:3239, V-B:TYR:539:CD2:9846, V-B:GLU:543:CD:9880, V-A:MET:535:CE:4835, V-A:TYR:539:C:4867, V-A:ASP:366:CB:3212, V-A:LEU:475:CD2:4259, V-A:ASN:362:C:3172, V-A:PRO:540:N:4884, H-A:TYR:539:N:4870, V-A:PRO:540:CB:4885, V-A:PRO:540:CA:4883, V-A:TYR:539:CE1:4875"]

$$$$
ZINC2356504005
     RDKit          3D

 59 61  0  0  0  0  0  0  0  0999 V2000
  129.0310  125.0920   56.3980 C   0  0  0  0  0  0  0  0  0  0  0  0
  128.1710  124.0290   56.7810 O   0  0  0  0  0  0  0  0  0  0  0  0
  126.9820  124.2780   57.3850 C   0  0  0  0  0  0  0  0  0  0  0  0
  125.8910  124.0680   56.8440 O   0  0  0  0  0  0  0  0  0  0  0  0
  127.0910  124.3810   58.9430 C   0  0  2  0  0  0  0  0  0  0  0  0
  125.6600  124.6340   59.4970 C   0  0  0  0  0  0  0  0  0  0  0  0
  127.9380  125.6380   59.3530 C   0  0  0  0  0  0  0  0  0  0  0  0
  128.6730  125.5360   60.6980 C   0  0  0  0  0  0  0  0  0  0  0  0
  129.5280  124.2430   60.7820 C   0  0  2  0  0  0  0  0  0  0  0  0
  128.6120  122.9600   60.7410 C   0  0  2  0  0  0  0  0  0  0  0  0
  127.6800  122.9030   61.9850 C   0  0  0  0  0  0  0  0  0  0  0  0
  126.4500  122.8650   61.9090 O   0  0  0  0  0  0  0  0  0  0  0  0
  129.4940  121.6690   60.6950 C   0  0  0  0  0  0  0  0  0  0  0  0
  130.7370  121.6620   61.6070 C   0  0  0  0  0  0  0  0  0  0  0  0
  131.5840  122.9650   61.5450 C   0  0  2  0  0  0  0  0  0  0  0  0
  132.9870  122.8660   62.2770 C   0  0  0  0  0  0  0  0  0  0  0  0
  132.8630  122.6550   63.8120 C   0  0  0  0  0  0  0  0  0  0  0  0
  133.8070  121.6890   61.6720 C   0  0  0  0  0  0  0  0  0  0  0  0
  133.7800  124.1970   62.0190 C   0  0  1  0  0  0  0  0  0  0  0  0
  134.2380  124.3190   60.6800 O   0  0  0  0  0  0  0  0  0  0  0  0
  132.9620  125.4560   62.3780 C   0  0  0  0  0  0  0  0  0  0  0  0
  131.5990  125.5010   61.6570 C   0  0  0  0  0  0  0  0  0  0  0  0
  130.6950  124.2390   61.8680 C   0  0  1  0  0  0  0  0  0  0  0  0
  130.1330  124.2700   63.3220 C   0  0  0  0  0  0  0  0  0  0  0  0
  127.6000  123.0120   59.5430 C   0  0  0  0  0  0  0  0  0  0  0  0
  129.4290  125.5840   57.2978 H   0  0  0  0  0  0  0  0  0  0  0  0
  129.8634  124.6929   55.7998 H   0  0  0  0  0  0  0  0  0  0  0  0
  128.4669  125.8227   55.7998 H   0  0  0  0  0  0  0  0  0  0  0  0
  125.6864  124.6293   60.5967 H   0  0  0  0  0  0  0  0  0  0  0  0
  125.2971  125.6102   59.1431 H   0  0  0  0  0  0  0  0  0  0  0  0
  124.9844  123.8414   59.1431 H   0  0  0  0  0  0  0  0  0  0  0  0
  128.6903  125.8091   58.5689 H   0  0  0  0  0  0  0  0  0  0  0  0
  127.2172  126.4611   59.4668 H   0  0  0  0  0  0  0  0  0  0  0  0
  129.3327  126.4088   60.8120 H   0  0  0  0  0  0  0  0  0  0  0  0
  127.9215  125.5058   61.5007 H   0  0  0  0  0  0  0  0  0  0  0  0
  130.1368  124.2174   59.8662 H   0  0  0  0  0  0  0  0  0  0  0  0
  128.1418  122.8962   62.9834 H   0  0  0  0  0  0  0  0  0  0  0  0
  128.8597  120.8185   60.9854 H   0  0  0  0  0  0  0  0  0  0  0  0
  129.8822  121.6137   59.6673 H   0  0  0  0  0  0  0  0  0  0  0  0
  130.4020  121.5180   62.6448 H   0  0  0  0  0  0  0  0  0  0  0  0
  131.3849  120.8480   61.2499 H   0  0  0  0  0  0  0  0  0  0  0  0
  131.9088  123.1087   60.5039 H   0  0  0  0  0  0  0  0  0  0  0  0
  133.3527  123.4882   64.3374 H   0  0  0  0  0  0  0  0  0  0  0  0
  131.8000  122.6188   64.0925 H   0  0  0  0  0  0  0  0  0  0  0  0
  133.3486  121.7087   64.0925 H   0  0  0  0  0  0  0  0  0  0  0  0
  134.2305  121.0811   62.4851 H   0  0  0  0  0  0  0  0  0  0  0  0
  133.1480  121.0637   61.0517 H   0  0  0  0  0  0  0  0  0  0  0  0
  134.6219  122.0905   61.0517 H   0  0  0  0  0  0  0  0  0  0  0  0
  134.6515  124.1309   62.6869 H   0  0  0  0  0  0  0  0  0  0  0  0
  134.7950  125.0990   60.6170 H   0  0  0  0  0  0  0  0  0  0  0  0
  132.7870  125.4651   63.4640 H   0  0  0  0  0  0  0  0  0  0  0  0
  133.5404  126.3337   62.0540 H   0  0  0  0  0  0  0  0  0  0  0  0
  131.0483  126.3800   62.0232 H   0  0  0  0  0  0  0  0  0  0  0  0
  131.8224  125.5420   60.5807 H   0  0  0  0  0  0  0  0  0  0  0  0
  130.9665  124.2240   64.0383 H   0  0  0  0  0  0  0  0  0  0  0  0
  129.5675  125.2007   63.4767 H   0  0  0  0  0  0  0  0  0  0  0  0
  129.4685  123.4071   63.4767 H   0  0  0  0  0  0  0  0  0  0  0  0
  128.0755  122.4688   58.7131 H   0  0  0  0  0  0  0  0  0  0  0  0
  126.6847  122.5998   59.9928 H   0  0  0  0  0  0  0  0  0  0  0  0
  1  2  1  0
  2  3  1  0
  3  4  2  0
  3  5  1  0
  5  6  1  1
  5  7  1  0
  7  8  1  0
  8  9  1  0
  9 10  1  0
 10 11  1  1
 11 12  2  0
 10 13  1  0
 13 14  1  0
 14 15  1  0
 15 16  1  0
 16 17  1  0
 16 18  1  0
 16 19  1  0
 19 20  1  0
 19 21  1  0
 21 22  1  0
 22 23  1  0
 23 24  1  1
 10 25  1  0
 25  5  1  0
 23  9  1  0
 23 15  1  0
  1 26  1  0
  1 27  1  0
  1 28  1  0
  6 29  1  0
  6 30  1  0
  6 31  1  0
  7 32  1  0
  7 33  1  0
  8 34  1  0
  8 35  1  0
  9 36  1  6
 11 37  1  0
 13 38  1  0
 13 39  1  0
 14 40  1  0
 14 41  1  0
 15 42  1  6
 17 43  1  0
 17 44  1  0
 17 45  1  0
 18 46  1  0
 18 47  1  0
 18 48  1  0
 19 49  1  1
 20 50  1  0
 21 51  1  0
 21 52  1  0
 22 53  1  0
 22 54  1  0
 24 55  1  0
 24 56  1  0
 24 57  1  0
 25 58  1  0
 25 59  1  0
M  END
>  <Binding energies>  (1) 
[-7.07]

>  <Ligand effiencies>  (1) 
[-0.27192307692307693]

>  <Interactions>  (1) 
["V-A:ILE:369:CG2:3237, V-B:PRO:540:CA:9855, V-A:GLY:454:CA:4049, V-B:ALA:541:CB:9864, V-B:TYR:539:CE2:9848, V-B:TYR:539:C:9839, V-A:ASP:366:CG:3213, V-B:TYR:539:CZ:9849, H-B:TYR:539:OH:9850, H-B:ALA:541:N:9863, V-B:PRO:540:CB:9857, V-B:PRO:540:N:9856, V-A:ILE:369:CD1:3239, V-B:TYR:539:CD2:9846, V-A:LEU:475:CD2:4259, V-A:ARG:545:CZ:4926, H-A:ASP:366:OD1:3214, V-B:PRO:540:C:9853, V-B:TYR:539:CE1:9847"]

$$$$
ZINC2356506847
     RDKit          3D

 82 84  0  0  0  0  0  0  0  0999 V2000
  131.4690  131.8500   56.9390 C   0  0  0  0  0  0  0  0  0  0  0  0
  131.9750  130.7870   57.9010 C   0  0  0  0  0  0  0  0  0  0  0  0
  133.2330  131.1870   58.6610 C   0  0  0  0  0  0  0  0  0  0  0  0
  131.3430  129.6000   58.0270 C   0  0  0  0  0  0  0  0  0  0  0  0
  131.7060  128.4390   58.9510 C   0  0  0  0  0  0  0  0  0  0  0  0
  130.7930  127.1670   58.8800 C   0  0  0  0  0  0  0  0  0  0  0  0
  129.6250  127.2850   57.8270 C   0  0  0  0  0  0  0  0  0  0  0  0
  129.1280  125.9770   57.2070 C   0  0  0  0  0  0  0  0  0  0  0  0
  128.0750  125.2140   57.5720 C   0  0  0  0  0  0  0  0  0  0  0  0
  127.7370  123.9390   56.8170 C   0  0  0  0  0  0  0  0  0  0  0  0
  127.1290  125.5110   58.7280 C   0  0  0  0  0  0  0  0  0  0  0  0
  130.1370  126.9720   60.2890 C   0  0  0  0  0  0  0  0  0  0  0  0
  129.2640  127.7470   60.6920 O   0  0  0  0  0  0  0  0  0  0  0  0
  130.5910  125.7430   61.1360 C   0  0  1  0  0  0  0  0  0  0  0  0
  130.3360  126.0400   62.6680 C   0  0  0  0  0  0  0  0  0  0  0  0
  130.4360  124.7720   63.5470 C   0  0  2  0  0  0  0  0  0  0  0  0
  129.3800  123.7540   63.0870 C   0  0  2  0  0  0  0  0  0  0  0  0
  129.2880  122.7340   64.2380 C   0  0  0  0  0  0  0  0  0  0  0  0
  129.9650  123.4000   65.4530 C   0  0  0  0  0  0  0  0  0  0  0  0
  130.2300  124.8730   65.0720 C   0  0  1  0  0  0  0  0  0  0  0  0
  131.4190  125.4990   65.8260 C   0  0  0  0  0  0  0  0  0  0  0  0
  129.1120  125.6860   65.3940 O   0  0  0  0  0  0  0  0  0  0  0  0
  129.6500  123.2580   61.6370 C   0  0  2  0  0  0  0  0  0  0  0  0
  128.6440  122.2230   61.0930 C   0  0  0  0  0  0  0  0  0  0  0  0
  130.9140  122.6140   61.6370 O   0  0  0  0  0  0  0  0  0  0  0  0
  129.6770  124.5210   60.7150 C   0  0  0  0  0  0  0  0  0  0  0  0
  132.0900  125.4210   60.8350 C   0  0  0  0  0  0  0  0  0  0  0  0
  133.0220  125.4010   61.7070 O   0  0  0  0  0  0  0  0  0  0  0  0
  132.3930  125.1860   59.4630 C   0  0  0  0  0  0  0  0  0  0  0  0
  133.3020  124.1420   59.1160 C   0  0  0  0  0  0  0  0  0  0  0  0
  133.4400  123.6490   57.9490 O   0  0  0  0  0  0  0  0  0  0  0  0
  134.1480  123.6010   60.2880 C   0  0  0  0  0  0  0  0  0  0  0  0
  133.4970  122.4770   61.1320 C   0  0  0  0  0  0  0  0  0  0  0  0
  134.3580  122.0690   62.3440 C   0  0  0  0  0  0  0  0  0  0  0  0
  133.1810  121.2580   60.2490 C   0  0  0  0  0  0  0  0  0  0  0  0
  131.7690  126.0110   58.4740 C   0  0  0  0  0  0  0  0  0  0  0  0
  132.0570  125.8460   57.2380 O   0  0  0  0  0  0  0  0  0  0  0  0
  131.0649  132.6989   57.5101 H   0  0  0  0  0  0  0  0  0  0  0  0
  132.2989  132.1961   56.3055 H   0  0  0  0  0  0  0  0  0  0  0  0
  130.6770  131.4241   56.3055 H   0  0  0  0  0  0  0  0  0  0  0  0
  133.0427  131.1265   59.7427 H   0  0  0  0  0  0  0  0  0  0  0  0
  134.0545  130.5058   58.3946 H   0  0  0  0  0  0  0  0  0  0  0  0
  133.5102  132.2176   58.3946 H   0  0  0  0  0  0  0  0  0  0  0  0
  130.4606  129.4514   57.3872 H   0  0  0  0  0  0  0  0  0  0  0  0
  132.7317  128.1265   58.7055 H   0  0  0  0  0  0  0  0  0  0  0  0
  131.5749  128.8308   59.9705 H   0  0  0  0  0  0  0  0  0  0  0  0
  128.7704  127.7628   58.3284 H   0  0  0  0  0  0  0  0  0  0  0  0
  130.0456  127.8618   56.9901 H   0  0  0  0  0  0  0  0  0  0  0  0
  129.7070  125.6082   56.3475 H   0  0  0  0  0  0  0  0  0  0  0  0
  127.5234  123.1334   57.5349 H   0  0  0  0  0  0  0  0  0  0  0  0
  126.8533  124.1105   56.1848 H   0  0  0  0  0  0  0  0  0  0  0  0
  128.5896  123.6502   56.1848 H   0  0  0  0  0  0  0  0  0  0  0  0
  127.6523  125.3467   59.6815 H   0  0  0  0  0  0  0  0  0  0  0  0
  126.7947  126.5573   58.6687 H   0  0  0  0  0  0  0  0  0  0  0  0
  126.2567  124.8435   58.6687 H   0  0  0  0  0  0  0  0  0  0  0  0
  131.0842  126.7681   63.0145 H   0  0  0  0  0  0  0  0  0  0  0  0
  129.3123  126.4309   62.7645 H   0  0  0  0  0  0  0  0  0  0  0  0
  131.4933  124.5052   63.4023 H   0  0  0  0  0  0  0  0  0  0  0  0
  128.3668  124.1571   62.9421 H   0  0  0  0  0  0  0  0  0  0  0  0
  128.2357  122.5070   64.4640 H   0  0  0  0  0  0  0  0  0  0  0  0
  129.7777  121.7849   63.9747 H   0  0  0  0  0  0  0  0  0  0  0  0
  129.3019  123.3500   66.3292 H   0  0  0  0  0  0  0  0  0  0  0  0
  130.9032  122.8863   65.7096 H   0  0  0  0  0  0  0  0  0  0  0  0
  131.2529  125.4115   66.9099 H   0  0  0  0  0  0  0  0  0  0  0  0
  132.3449  124.9715   65.5532 H   0  0  0  0  0  0  0  0  0  0  0  0
  131.5081  126.5609   65.5532 H   0  0  0  0  0  0  0  0  0  0  0  0
  129.3970  126.6020   65.3970 H   0  0  0  0  0  0  0  0  0  0  0  0
  128.1499  121.7147   61.9341 H   0  0  0  0  0  0  0  0  0  0  0  0
  127.8883  122.7341   60.4785 H   0  0  0  0  0  0  0  0  0  0  0  0
  129.1764  121.4821   60.4785 H   0  0  0  0  0  0  0  0  0  0  0  0
  131.5930  123.2670   61.8280 H   0  0  0  0  0  0  0  0  0  0  0  0
  130.0137  124.1907   59.7213 H   0  0  0  0  0  0  0  0  0  0  0  0
  128.6528  124.9182   60.7717 H   0  0  0  0  0  0  0  0  0  0  0  0
  135.0876  123.2085   59.8720 H   0  0  0  0  0  0  0  0  0  0  0  0
  134.2804  124.4496   60.9752 H   0  0  0  0  0  0  0  0  0  0  0  0
  132.5569  122.8801   61.5366 H   0  0  0  0  0  0  0  0  0  0  0  0
  133.8260  122.3211   63.2732 H   0  0  0  0  0  0  0  0  0  0  0  0
  134.5466  120.9858   62.3118 H   0  0  0  0  0  0  0  0  0  0  0  0
  135.3158  122.6090   62.3118 H   0  0  0  0  0  0  0  0  0  0  0  0
  132.9563  120.3910   60.8876 H   0  0  0  0  0  0  0  0  0  0  0  0
  132.3110  121.4809   59.6139 H   0  0  0  0  0  0  0  0  0  0  0  0
  134.0498  121.0302   59.6139 H   0  0  0  0  0  0  0  0  0  0  0  0
  1  2  1  0
  2  3  1  0
  2  4  2  3
  4  5  1  0
  5  6  1  0
  6  7  1  0
  7  8  1  0
  8  9  2  3
  9 10  1  0
  9 11  1  0
  6 12  1  0
 12 13  2  0
 12 14  1  0
 14 15  1  1
 15 16  1  0
 16 17  1  0
 17 18  1  0
 18 19  1  0
 19 20  1  0
 20 21  1  0
 20 22  1  6
 17 23  1  0
 23 24  1  0
 23 25  1  1
 23 26  1  0
 14 27  1  0
 27 28  2  0
 27 29  1  0
 29 30  1  0
 30 31  2  0
 30 32  1  0
 32 33  1  0
 33 34  1  0
 33 35  1  0
 29 36  2  0
 36 37  1  0
 36  6  1  0
 26 14  1  0
 20 16  1  0
  1 38  1  0
  1 39  1  0
  1 40  1  0
  3 41  1  0
  3 42  1  0
  3 43  1  0
  4 44  1  0
  5 45  1  0
  5 46  1  0
  7 47  1  0
  7 48  1  0
  8 49  1  0
 10 50  1  0
 10 51  1  0
 10 52  1  0
 11 53  1  0
 11 54  1  0
 11 55  1  0
 15 56  1  0
 15 57  1  0
 16 58  1  1
 17 59  1  6
 18 60  1  0
 18 61  1  0
 19 62  1  0
 19 63  1  0
 21 64  1  0
 21 65  1  0
 21 66  1  0
 22 67  1  0
 24 68  1  0
 24 69  1  0
 24 70  1  0
 25 71  1  0
 26 72  1  0
 26 73  1  0
 32 74  1  0
 32 75  1  0
 33 76  1  0
 34 77  1  0
 34 78  1  0
 34 79  1  0
 35 80  1  0
 35 81  1  0
 35 82  1  0
M  CHG  1  37  -1
M  END
>  <Binding energies>  (1) 
[-7.49]

>  <Ligand effiencies>  (1) 
[-0.19205128205128205]

>  <Interactions>  (1) 
["V-A:ILE:369:CG2:3237, V-A:ASP:366:CA:3210, V-B:PRO:540:CA:9855, V-A:GLY:454:CA:4049, H-A:GLU:543:OE2:4910, V-A:ILE:369:CB:3236, V-B:ALA:541:CB:9864, H-A:TYR:531:OH:4795, V-A:TYR:484:CE2:4346, V-B:TYR:539:CE2:9848, V-B:GLU:543:CG:9879, V-A:ASP:366:CG:3213, V-A:LEU:363:CD1:3189, V-A:LEU:363:CB:3187, V-B:TYR:539:CZ:9849, H-B:TYR:539:OH:9850, V-A:TYR:484:CZ:4347, V-A:GLU:543:CD:4908, V-A:SER:385:C:3405, V-A:ILE:369:CD1:3239, V-B:TYR:539:CD2:9846, V-A:ASP:366:CB:3212, V-A:LEU:475:CD2:4259, H-A:ARG:545:NH2:4928, H-A:GLU:543:OE1:4909, H-B:GLU:543:OE2:9882, V-A:LEU:363:CA:3185, V-A:PRO:540:CB:4885, V-B:PRO:540:C:9853, V-B:TYR:539:CE1:9847"]

$$$$
ZINC2356506923
     RDKit          3D

 89 90  0  0  0  0  0  0  0  0999 V2000
  131.3080  126.0570   58.5590 C   0  0  0  0  0  0  0  0  0  0  0  0
  131.3880  126.4160   60.0380 C   0  0  0  0  0  0  0  0  0  0  0  0
  130.7700  127.6710   60.4520 C   0  0  0  0  0  0  0  0  0  0  0  0
  130.9790  128.8670   59.8680 C   0  0  0  0  0  0  0  0  0  0  0  0
  130.3290  130.0880   60.3210 C   0  0  0  0  0  0  0  0  0  0  0  0
  130.8680  131.0380   61.1260 C   0  0  0  0  0  0  0  0  0  0  0  0
  132.2720  130.9290   61.7190 C   0  0  0  0  0  0  0  0  0  0  0  0
  130.1230  132.3200   61.5570 C   0  0  2  0  0  0  0  0  0  0  0  0
  130.2350  132.5550   62.9540 O   0  0  0  0  0  0  0  0  0  0  0  0
  128.6230  132.4260   61.1160 C   0  0  2  0  0  0  0  0  0  0  0  0
  127.9920  133.6920   61.7500 C   0  0  0  0  0  0  0  0  0  0  0  0
  127.7530  131.1490   61.3810 C   0  0  2  0  0  0  0  0  0  0  0  0
  127.1570  130.6880   60.1820 O   0  0  0  0  0  0  0  0  0  0  0  0
  126.6120  131.3470   62.4210 C   0  0  0  0  0  0  0  0  0  0  0  0
  127.0260  131.2460   63.9140 C   0  0  2  0  0  0  0  0  0  0  0  0
  128.0550  132.1810   64.2010 O   0  0  0  0  0  0  0  0  0  0  0  0
  127.4300  129.8210   64.3470 C   0  0  0  0  0  0  0  0  0  0  0  0
  127.1580  128.7640   63.2780 C   0  0  0  0  0  0  0  0  0  0  0  0
  127.9520  129.5190   65.5630 C   0  0  0  0  0  0  0  0  0  0  0  0
  128.3720  128.2040   66.0200 C   0  0  0  0  0  0  0  0  0  0  0  0
  128.9880  127.3190   65.2130 C   0  0  0  0  0  0  0  0  0  0  0  0
  129.4630  125.9090   65.5740 C   0  0  2  0  0  0  0  0  0  0  0  0
  130.2620  125.8430   66.8990 C   0  0  0  0  0  0  0  0  0  0  0  0
  130.2250  125.2080   64.4110 C   0  0  2  0  0  0  0  0  0  0  0  0
  129.6050  123.8610   63.9670 C   0  0  0  0  0  0  0  0  0  0  0  0
  130.5360  123.1120   63.0020 C   0  0  2  0  0  0  0  0  0  0  0  0
  129.9370  121.7800   62.4890 C   0  0  0  0  0  0  0  0  0  0  0  0
  128.9530  121.8420   61.3250 C   0  0  0  0  0  0  0  0  0  0  0  0
  128.8160  122.8420   60.4240 C   0  0  0  0  0  0  0  0  0  0  0  0
  127.7940  122.8560   59.2610 C   0  0  0  0  0  0  0  0  0  0  0  0
  128.2720  122.4750   58.1700 O   0  0  0  0  0  0  0  0  0  0  0  0
  126.6250  123.2140   59.5410 O   0  0  0  0  0  0  0  0  0  0  0  0
  131.8620  122.8780   63.7390 C   0  0  0  0  0  0  0  0  0  0  0  0
  132.4850  124.1720   64.2920 C   0  0  0  0  0  0  0  0  0  0  0  0
  133.6870  124.4050   64.3900 O   0  0  0  0  0  0  0  0  0  0  0  0
  131.6440  125.1880   64.6760 O   0  0  0  0  0  0  0  0  0  0  0  0
  132.0210  125.6460   60.9580 C   0  0  0  0  0  0  0  0  0  0  0  0
  132.6930  124.3560   60.8490 C   0  0  0  0  0  0  0  0  0  0  0  0
  134.0210  124.0960   61.1740 C   0  0  0  0  0  0  0  0  0  0  0  0
  134.2740  122.7850   60.9580 O   0  0  0  0  0  0  0  0  0  0  0  0
  133.0820  122.3130   60.5220 C   0  0  0  0  0  0  0  0  0  0  0  0
  132.9800  120.8470   60.1770 C   0  0  0  0  0  0  0  0  0  0  0  0
  132.1350  123.2180   60.4590 N   0  0  0  0  0  0  0  0  0  0  0  0
  131.0698  124.9883   58.4535 H   0  0  0  0  0  0  0  0  0  0  0  0
  130.5216  126.6572   58.0780 H   0  0  0  0  0  0  0  0  0  0  0  0
  132.2748  126.2664   58.0780 H   0  0  0  0  0  0  0  0  0  0  0  0
  130.0796  127.6382   61.3077 H   0  0  0  0  0  0  0  0  0  0  0  0
  131.6694  128.9230   59.0135 H   0  0  0  0  0  0  0  0  0  0  0  0
  129.2982  130.2575   59.9764 H   0  0  0  0  0  0  0  0  0  0  0  0
  132.2076  130.9340   62.8171 H   0  0  0  0  0  0  0  0  0  0  0  0
  132.7400  129.9918   61.3834 H   0  0  0  0  0  0  0  0  0  0  0  0
  132.8791  131.7827   61.3834 H   0  0  0  0  0  0  0  0  0  0  0  0
  130.6465  133.1098   60.9983 H   0  0  0  0  0  0  0  0  0  0  0  0
  130.0440  131.7350   63.4150 H   0  0  0  0  0  0  0  0  0  0  0  0
  128.6291  132.5096   60.0192 H   0  0  0  0  0  0  0  0  0  0  0  0
  128.0320  133.6118   62.8463 H   0  0  0  0  0  0  0  0  0  0  0  0
  128.5520  134.5819   61.4268 H   0  0  0  0  0  0  0  0  0  0  0  0
  126.9443  133.7806   61.4268 H   0  0  0  0  0  0  0  0  0  0  0  0
  128.4638  130.4178   61.7934 H   0  0  0  0  0  0  0  0  0  0  0  0
  127.1620  129.7280   60.1930 H   0  0  0  0  0  0  0  0  0  0  0  0
  126.1784  132.3449   62.2589 H   0  0  0  0  0  0  0  0  0  0  0  0
  125.9095  130.5177   62.2516 H   0  0  0  0  0  0  0  0  0  0  0  0
  126.1336  131.4936   64.5075 H   0  0  0  0  0  0  0  0  0  0  0  0
  128.8640  131.6960   64.3760 H   0  0  0  0  0  0  0  0  0  0  0  0
  126.9119  127.8075   63.7623 H   0  0  0  0  0  0  0  0  0  0  0  0
  126.3133  129.0855   62.6510 H   0  0  0  0  0  0  0  0  0  0  0  0
  128.0529  128.6379   62.6510 H   0  0  0  0  0  0  0  0  0  0  0  0
  128.0689  130.3512   66.2728 H   0  0  0  0  0  0  0  0  0  0  0  0
  128.1791  127.9211   67.0654 H   0  0  0  0  0  0  0  0  0  0  0  0
  129.1703  127.6459   64.1786 H   0  0  0  0  0  0  0  0  0  0  0  0
  128.5376  125.3389   65.7432 H   0  0  0  0  0  0  0  0  0  0  0  0
  129.5669  125.9004   67.7496 H   0  0  0  0  0  0  0  0  0  0  0  0
  130.8194  124.8958   66.9443 H   0  0  0  0  0  0  0  0  0  0  0  0
  130.9673  126.6859   66.9443 H   0  0  0  0  0  0  0  0  0  0  0  0
  130.0941  125.8185   63.5054 H   0  0  0  0  0  0  0  0  0  0  0  0
  129.4311  123.2360   64.8553 H   0  0  0  0  0  0  0  0  0  0  0  0
  128.6581  124.0681   63.4469 H   0  0  0  0  0  0  0  0  0  0  0  0
  130.6862  123.7223   62.0992 H   0  0  0  0  0  0  0  0  0  0  0  0
  130.7766  121.1426   62.1747 H   0  0  0  0  0  0  0  0  0  0  0  0
  129.3423  121.4013   63.3334 H   0  0  0  0  0  0  0  0  0  0  0  0
  128.2813  120.9792   61.2050 H   0  0  0  0  0  0  0  0  0  0  0  0
  129.4817  123.7118   60.5255 H   0  0  0  0  0  0  0  0  0  0  0  0
  131.6788  122.1916   64.5788 H   0  0  0  0  0  0  0  0  0  0  0  0
  132.5715  122.4592   63.0102 H   0  0  0  0  0  0  0  0  0  0  0  0
  132.0290  126.0725   61.9719 H   0  0  0  0  0  0  0  0  0  0  0  0
  134.7459  124.8353   61.5455 H   0  0  0  0  0  0  0  0  0  0  0  0
  132.9388  120.2544   61.1028 H   0  0  0  0  0  0  0  0  0  0  0  0
  132.0675  120.6715   59.5884 H   0  0  0  0  0  0  0  0  0  0  0  0
  133.8594  120.5468   59.5884 H   0  0  0  0  0  0  0  0  0  0  0  0
  1  2  1  0
  2  3  1  0
  3  4  2  0
  4  5  1  0
  5  6  2  0
  6  7  1  0
  6  8  1  0
  8  9  1  0
  8 10  1  0
 10 11  1  0
 10 12  1  0
 12 13  1  0
 12 14  1  0
 14 15  1  0
 15 16  1  0
 15 17  1  0
 17 18  1  0
 17 19  2  0
 19 20  1  0
 20 21  2  0
 21 22  1  0
 22 23  1  0
 22 24  1  0
 24 25  1  0
 25 26  1  0
 26 27  1  0
 27 28  1  0
 28 29  2  0
 29 30  1  0
 30 31  2  0
 30 32  1  0
 26 33  1  0
 33 34  1  0
 34 35  2  0
 34 36  1  0
  2 37  2  0
 37 38  1  0
 38 39  2  0
 39 40  1  0
 40 41  1  0
 41 42  1  0
 41 43  2  0
 36 24  1  0
 43 38  1  0
  1 44  1  0
  1 45  1  0
  1 46  1  0
  3 47  1  0
  4 48  1  0
  5 49  1  0
  7 50  1  0
  7 51  1  0
  7 52  1  0
  8 53  1  6
  9 54  1  0
 10 55  1  6
 11 56  1  0
 11 57  1  0
 11 58  1  0
 12 59  1  1
 13 60  1  0
 14 61  1  0
 14 62  1  0
 15 63  1  1
 16 64  1  0
 18 65  1  0
 18 66  1  0
 18 67  1  0
 19 68  1  0
 20 69  1  0
 21 70  1  0
 22 71  1  1
 23 72  1  0
 23 73  1  0
 23 74  1  0
 24 75  1  6
 25 76  1  0
 25 77  1  0
 26 78  1  6
 27 79  1  0
 27 80  1  0
 28 81  1  0
 29 82  1  0
 33 83  1  0
 33 84  1  0
 37 85  1  0
 39 86  1  0
 42 87  1  0
 42 88  1  0
 42 89  1  0
M  CHG  1  32  -1
M  END
>  <Binding energies>  (1) 
[-7.08]

>  <Ligand effiencies>  (1) 
[-0.15391304347826087]

>  <Interactions>  (1) 
["V-A:ILE:369:CG2:3237, V-B:PRO:540:CA:9855, H-A:ALA:541:N:4891, V-A:PRO:540:C:4881, V-B:GLU:543:CB:9878, V-B:ALA:541:CB:9864, V-B:TYR:539:CE2:9848, V-B:GLU:543:CG:9879, V-B:LEU:475:CD2:9230, V-B:TYR:539:C:9839, V-A:ASP:366:CG:3213, V-A:ALA:541:CB:4892, V-A:GLU:543:CD:4908, H-B:TYR:484:OH:9319, H-A:GLY:454:N:4050, V-B:PRO:540:N:9856, V-A:ILE:369:CD1:3239, V-A:HIS:456:CE1:4070, V-B:TYR:539:CD2:9846, V-A:GLU:543:CG:4907, V-B:GLU:543:CD:9880, V-A:LEU:475:CD2:4259, H-A:GLU:543:OE1:4909, V-A:PRO:540:CA:4883, V-B:PRO:540:C:9853, H-A:TYR:484:OH:4348"]

$$$$
ZINC2356510910
     RDKit          3D

 59 64  0  0  0  0  0  0  0  0999 V2000
  130.9040  124.3720   59.4070 C   0  0  0  0  0  0  0  0  0  0  0  0
  131.9120  125.3030   60.1510 C   0  0  2  0  0  0  0  0  0  0  0  0
  133.3520  125.1080   59.5780 C   0  0  0  0  0  0  0  0  0  0  0  0
  133.9320  123.6930   59.7850 C   0  0  0  0  0  0  0  0  0  0  0  0
  133.9010  123.2600   61.2680 C   0  0  2  0  0  0  0  0  0  0  0  0
  134.2680  121.9030   61.3990 O   0  0  0  0  0  0  0  0  0  0  0  0
  132.5300  123.5200   61.9300 C   0  0  0  0  0  0  0  0  0  0  0  0
  132.0080  124.9580   61.6820 C   0  0  2  0  0  0  0  0  0  0  0  0
  130.6710  125.2210   62.4140 C   0  0  0  0  0  0  0  0  0  0  0  0
  130.2620  126.6930   62.2830 C   0  0  0  0  0  0  0  0  0  0  0  0
  130.1450  127.1260   60.7980 C   0  0  2  0  0  0  0  0  0  0  0  0
  131.4860  126.8260   60.0460 C   0  0  2  0  0  0  0  0  0  0  0  0
  131.4070  127.3610   58.5850 C   0  0  0  0  0  0  0  0  0  0  0  0
  131.1050  128.8710   58.5290 C   0  0  0  0  0  0  0  0  0  0  0  0
  129.7470  129.2460   59.1930 C   0  0  2  0  0  0  0  0  0  0  0  0
  128.5420  128.7180   58.3740 C   0  0  0  0  0  0  0  0  0  0  0  0
  129.6160  130.7750   59.4830 C   0  0  2  0  0  0  0  0  0  0  0  0
  130.1640  131.7290   58.4210 C   0  0  0  0  0  0  0  0  0  0  0  0
  131.4200  132.0040   58.0420 C   0  0  0  0  0  0  0  0  0  0  0  0
  131.4030  133.0020   56.9970 C   0  0  0  0  0  0  0  0  0  0  0  0
  132.3750  133.4840   56.4180 O   0  0  0  0  0  0  0  0  0  0  0  0
  130.1320  133.3290   56.7540 O   0  0  0  0  0  0  0  0  0  0  0  0
  129.2580  132.5940   57.5810 C   0  0  0  0  0  0  0  0  0  0  0  0
  130.1970  130.9850   60.8980 C   0  0  0  0  0  0  0  0  0  0  0  0
  130.0060  129.6620   61.6430 C   0  0  1  0  0  0  0  0  0  0  0  0
  128.7270  129.0830   61.4710 O   0  0  0  0  0  0  0  0  0  0  0  0
  129.7470  128.6220   60.6130 C   0  0  2  0  0  0  0  0  0  0  0  0
  130.3041  123.8179   60.1439 H   0  0  0  0  0  0  0  0  0  0  0  0
  130.2394  124.9808   58.7764 H   0  0  0  0  0  0  0  0  0  0  0  0
  131.4582  123.6612   58.7764 H   0  0  0  0  0  0  0  0  0  0  0  0
  133.3237  125.3140   58.4978 H   0  0  0  0  0  0  0  0  0  0  0  0
  134.0063  125.8001   60.1284 H   0  0  0  0  0  0  0  0  0  0  0  0
  133.3402  122.9779   59.1948 H   0  0  0  0  0  0  0  0  0  0  0  0
  134.9827  123.7081   59.4598 H   0  0  0  0  0  0  0  0  0  0  0  0
  134.6373  123.8811   61.7991 H   0  0  0  0  0  0  0  0  0  0  0  0
  135.1230  121.8580   61.8350 H   0  0  0  0  0  0  0  0  0  0  0  0
  131.8006  122.8056   61.5206 H   0  0  0  0  0  0  0  0  0  0  0  0
  132.6568  123.3957   63.0156 H   0  0  0  0  0  0  0  0  0  0  0  0
  132.7545  125.6409   62.1138 H   0  0  0  0  0  0  0  0  0  0  0  0
  129.8871  124.5878   61.9729 H   0  0  0  0  0  0  0  0  0  0  0  0
  130.7987  124.9829   63.4803 H   0  0  0  0  0  0  0  0  0  0  0  0
  129.2885  126.8376   62.7742 H   0  0  0  0  0  0  0  0  0  0  0  0
  131.0392  127.3086   62.7595 H   0  0  0  0  0  0  0  0  0  0  0  0
  129.3260  126.5338   60.3637 H   0  0  0  0  0  0  0  0  0  0  0  0
  132.3008  127.3701   60.5460 H   0  0  0  0  0  0  0  0  0  0  0  0
  132.3703  127.1745   58.0877 H   0  0  0  0  0  0  0  0  0  0  0  0
  130.5842  126.8350   58.0788 H   0  0  0  0  0  0  0  0  0  0  0  0
  131.9104  129.4089   59.0505 H   0  0  0  0  0  0  0  0  0  0  0  0
  131.0413  129.1543   57.4680 H   0  0  0  0  0  0  0  0  0  0  0  0
  127.7549  128.3731   59.0607 H   0  0  0  0  0  0  0  0  0  0  0  0
  128.1474  129.5257   57.7400 H   0  0  0  0  0  0  0  0  0  0  0  0
  128.8684  127.8804   57.7400 H   0  0  0  0  0  0  0  0  0  0  0  0
  128.5544  131.0592   59.4360 H   0  0  0  0  0  0  0  0  0  0  0  0
  132.3250  131.5409   58.4621 H   0  0  0  0  0  0  0  0  0  0  0  0
  128.6664  133.2688   58.2172 H   0  0  0  0  0  0  0  0  0  0  0  0
  128.5360  132.0006   57.0008 H   0  0  0  0  0  0  0  0  0  0  0  0
  131.2661  131.2366   60.8370 H   0  0  0  0  0  0  0  0  0  0  0  0
  129.6922  131.8125   61.4181 H   0  0  0  0  0  0  0  0  0  0  0  0
  130.6489  129.8268   62.5202 H   0  0  0  0  0  0  0  0  0  0  0  0
  2  1  1  6
  2  3  1  0
  3  4  1  0
  4  5  1  0
  5  6  1  0
  5  7  1  0
  7  8  1  0
  8  9  1  0
  9 10  1  0
 10 11  1  0
 11 12  1  0
 12 13  1  0
 13 14  1  0
 14 15  1  0
 15 16  1  6
 15 17  1  0
 17 18  1  0
 18 19  2  0
 19 20  1  0
 20 21  2  0
 20 22  1  0
 22 23  1  0
 17 24  1  0
 24 25  1  0
 25 26  1  0
 27 26  1  1
  8  2  1  0
 27 11  1  0
 12  2  1  0
 27 15  1  0
 23 18  1  0
 27 25  1  0
  1 28  1  0
  1 29  1  0
  1 30  1  0
  3 31  1  0
  3 32  1  0
  4 33  1  0
  4 34  1  0
  5 35  1  1
  6 36  1  0
  7 37  1  0
  7 38  1  0
  8 39  1  1
  9 40  1  0
  9 41  1  0
 10 42  1  0
 10 43  1  0
 11 44  1  6
 12 45  1  1
 13 46  1  0
 13 47  1  0
 14 48  1  0
 14 49  1  0
 16 50  1  0
 16 51  1  0
 16 52  1  0
 17 53  1  1
 19 54  1  0
 23 55  1  0
 23 56  1  0
 24 57  1  0
 24 58  1  0
 25 59  1  1
M  END
>  <Binding energies>  (1) 
[-7.49]

>  <Ligand effiencies>  (1) 
[-0.2675]

>  <Interactions>  (1) 
["V-A:ILE:369:CG2:3237, V-A:ASP:366:CA:3210, V-A:ILE:369:CD1:3239, H-A:TYR:539:N:4870, V-B:TYR:539:CZ:9849, V-A:PRO:540:CA:4883, V-A:ILE:369:CB:3236, V-A:PRO:540:CB:4885, V-A:PRO:540:N:4884, V-A:LEU:363:CD1:3189, V-A:ILE:538:CB:4862, H-A:SER:385:O:3406, V-B:TYR:539:CE2:9848, V-A:GLU:543:CD:4908, V-A:ASP:366:CB:3212, V-A:PRO:540:CD:4887, V-A:ASP:366:CG:3213"]

$$$$
ZINC2356513031
     RDKit          3D

 78 83  0  0  0  0  0  0  0  0999 V2000
  125.3680  123.5890   58.0520 C   0  0  0  0  0  0  0  0  0  0  0  0
  126.7320  124.2520   57.9560 C   0  0  0  0  0  0  0  0  0  0  0  0
  127.6740  123.5840   56.9640 C   0  0  0  0  0  0  0  0  0  0  0  0
  127.0300  125.3410   58.6990 C   0  0  0  0  0  0  0  0  0  0  0  0
  128.3340  126.1210   58.7410 C   0  0  0  0  0  0  0  0  0  0  0  0
  128.4070  127.0730   59.9350 C   0  0  0  0  0  0  0  0  0  0  0  0
  128.2920  128.4490   59.7350 C   0  0  0  0  0  0  0  0  0  0  0  0
  128.3700  129.3440   60.8080 C   0  0  0  0  0  0  0  0  0  0  0  0
  128.6090  128.8610   62.1020 C   0  0  0  0  0  0  0  0  0  0  0  0
  128.7190  129.7820   63.1190 O   0  0  0  0  0  0  0  0  0  0  0  0
  128.7300  127.4700   62.3400 C   0  0  0  0  0  0  0  0  0  0  0  0
  128.6190  126.5930   61.2370 C   0  0  0  0  0  0  0  0  0  0  0  0
  128.6880  125.2150   61.3600 O   0  0  0  0  0  0  0  0  0  0  0  0
  129.4910  124.6880   62.4260 C   0  0  2  0  0  0  0  0  0  0  0  0
  129.2630  123.1530   62.5000 C   0  0  2  0  0  0  0  0  0  0  0  0
  129.7890  122.6620   63.9020 C   0  0  0  0  0  0  0  0  0  0  0  0
  130.8820  123.6120   64.5080 C   0  0  2  0  0  0  0  0  0  0  0  0
  130.0220  124.8430   64.9270 C   0  0  0  0  0  0  0  0  0  0  0  0
  129.1160  125.3710   63.7730 C   0  0  1  0  0  0  0  0  0  0  0  0
  128.9870  126.9020   63.7100 C   0  0  0  0  0  0  0  0  0  0  0  0
  129.1140  127.6110   64.7090 O   0  0  0  0  0  0  0  0  0  0  0  0
  131.8110  124.0880   63.3580 C   0  0  0  0  0  0  0  0  0  0  0  0
  133.0370  124.0140   63.4350 O   0  0  0  0  0  0  0  0  0  0  0  0
  131.0290  124.6420   62.1120 C   0  0  2  0  0  0  0  0  0  0  0  0
  131.6880  125.9400   61.5530 C   0  0  0  0  0  0  0  0  0  0  0  0
  131.4880  126.2140   60.0610 C   0  0  0  0  0  0  0  0  0  0  0  0
  132.1260  125.6750   58.9950 C   0  0  0  0  0  0  0  0  0  0  0  0
  131.7960  126.0870   57.5640 C   0  0  0  0  0  0  0  0  0  0  0  0
  133.1670  124.6520   59.1390 C   0  0  0  0  0  0  0  0  0  0  0  0
  133.5820  123.9650   58.2050 O   0  0  0  0  0  0  0  0  0  0  0  0
  131.0510  123.6610   61.0610 O   0  0  0  0  0  0  0  0  0  0  0  0
  130.0770  122.6240   61.2730 C   0  0  0  0  0  0  0  0  0  0  0  0
  130.8820  121.3170   61.4680 C   0  0  0  0  0  0  0  0  0  0  0  0
  129.2190  122.5030   59.9940 C   0  0  0  0  0  0  0  0  0  0  0  0
  128.2720  130.7780   60.4840 C   0  0  0  0  0  0  0  0  0  0  0  0
  128.3580  131.2020   59.2130 C   0  0  0  0  0  0  0  0  0  0  0  0
  128.6340  130.1930   58.0950 C   0  0  0  0  0  0  0  0  0  0  0  0
  130.1590  130.0130   57.9200 C   0  0  0  0  0  0  0  0  0  0  0  0
  127.9070  130.6470   56.8170 C   0  0  0  0  0  0  0  0  0  0  0  0
  128.0480  128.9170   58.4480 O   0  0  0  0  0  0  0  0  0  0  0  0
  125.0978  123.4577   59.1102 H   0  0  0  0  0  0  0  0  0  0  0  0
  124.6168  124.2225   57.5577 H   0  0  0  0  0  0  0  0  0  0  0  0
  125.4021  122.6069   57.5577 H   0  0  0  0  0  0  0  0  0  0  0  0
  128.4521  123.0322   57.5118 H   0  0  0  0  0  0  0  0  0  0  0  0
  127.1057  122.8859   56.3317 H   0  0  0  0  0  0  0  0  0  0  0  0
  128.1448  124.3512   56.3317 H   0  0  0  0  0  0  0  0  0  0  0  0
  126.2281  125.7091   59.3559 H   0  0  0  0  0  0  0  0  0  0  0  0
  129.1696  125.4085   58.8060 H   0  0  0  0  0  0  0  0  0  0  0  0
  128.3909  126.7276   57.8252 H   0  0  0  0  0  0  0  0  0  0  0  0
  129.3850  129.5430   63.7670 H   0  0  0  0  0  0  0  0  0  0  0  0
  128.2225  122.8012   62.4399 H   0  0  0  0  0  0  0  0  0  0  0  0
  128.9394  122.6140   64.5990 H   0  0  0  0  0  0  0  0  0  0  0  0
  130.2523  121.6752   63.7550 H   0  0  0  0  0  0  0  0  0  0  0  0
  131.4863  123.1554   65.3057 H   0  0  0  0  0  0  0  0  0  0  0  0
  129.3804  124.5518   65.7718 H   0  0  0  0  0  0  0  0  0  0  0  0
  130.7150  125.6526   65.1995 H   0  0  0  0  0  0  0  0  0  0  0  0
  128.0849  125.0663   64.0056 H   0  0  0  0  0  0  0  0  0  0  0  0
  131.2721  126.7931   62.1090 H   0  0  0  0  0  0  0  0  0  0  0  0
  132.7711  125.7978   61.6823 H   0  0  0  0  0  0  0  0  0  0  0  0
  130.7135  126.9567   59.8191 H   0  0  0  0  0  0  0  0  0  0  0  0
  131.1084  126.9455   57.5789 H   0  0  0  0  0  0  0  0  0  0  0  0
  132.7218  126.3678   57.0405 H   0  0  0  0  0  0  0  0  0  0  0  0
  131.3198  125.2448   57.0405 H   0  0  0  0  0  0  0  0  0  0  0  0
  133.6011  124.4894   60.1365 H   0  0  0  0  0  0  0  0  0  0  0  0
  131.0042  121.1186   62.5430 H   0  0  0  0  0  0  0  0  0  0  0  0
  130.3423  120.4806   60.9998 H   0  0  0  0  0  0  0  0  0  0  0  0
  131.8718  121.4227   60.9998 H   0  0  0  0  0  0  0  0  0  0  0  0
  128.1652  122.3544   60.2721 H   0  0  0  0  0  0  0  0  0  0  0  0
  129.3150  123.4236   59.3996 H   0  0  0  0  0  0  0  0  0  0  0  0
  129.5659  121.6449   59.3996 H   0  0  0  0  0  0  0  0  0  0  0  0
  128.1267  131.5095   61.2926 H   0  0  0  0  0  0  0  0  0  0  0  0
  128.2308  132.2686   58.9762 H   0  0  0  0  0  0  0  0  0  0  0  0
  130.6374  129.9565   58.9089 H   0  0  0  0  0  0  0  0  0  0  0  0
  130.3572  129.0852   57.3633 H   0  0  0  0  0  0  0  0  0  0  0  0
  130.5678  130.8691   57.3633 H   0  0  0  0  0  0  0  0  0  0  0  0
  127.0032  131.2114   57.0901 H   0  0  0  0  0  0  0  0  0  0  0  0
  128.5748  131.2889   56.2236 H   0  0  0  0  0  0  0  0  0  0  0  0
  127.6233  129.7653   56.2236 H   0  0  0  0  0  0  0  0  0  0  0  0
  1  2  1  0
  2  3  1  0
  2  4  2  3
  4  5  1  0
  5  6  1  0
  6  7  1  0
  7  8  2  0
  8  9  1  0
  9 10  1  0
  9 11  2  0
 11 12  1  0
 12 13  1  0
 14 13  1  6
 14 15  1  0
 15 16  1  0
 16 17  1  0
 17 18  1  0
 18 19  1  0
 19 20  1  0
 20 21  2  0
 17 22  1  0
 22 23  2  0
 22 24  1  0
 24 25  1  6
 25 26  1  0
 26 27  2  0
 27 28  1  0
 27 29  1  0
 29 30  2  0
 24 31  1  0
 31 32  1  0
 32 33  1  0
 32 34  1  0
  8 35  1  0
 35 36  2  0
 36 37  1  0
 37 38  1  0
 37 39  1  0
 37 40  1  0
 12  6  2  0
 19 14  1  0
 40  7  1  0
 20 11  1  0
 24 14  1  0
 32 15  1  0
  1 41  1  0
  1 42  1  0
  1 43  1  0
  3 44  1  0
  3 45  1  0
  3 46  1  0
  4 47  1  0
  5 48  1  0
  5 49  1  0
 10 50  1  0
 15 51  1  6
 16 52  1  0
 16 53  1  0
 17 54  1  1
 18 55  1  0
 18 56  1  0
 19 57  1  1
 25 58  1  0
 25 59  1  0
 26 60  1  0
 28 61  1  0
 28 62  1  0
 28 63  1  0
 29 64  1  0
 33 65  1  0
 33 66  1  0
 33 67  1  0
 34 68  1  0
 34 69  1  0
 34 70  1  0
 35 71  1  0
 36 72  1  0
 38 73  1  0
 38 74  1  0
 38 75  1  0
 39 76  1  0
 39 77  1  0
 39 78  1  0
M  END
>  <Binding energies>  (1) 
[-7.75]

>  <Ligand effiencies>  (1) 
[-0.18902439024390244]

>  <Interactions>  (1) 
["V-A:ASP:366:CA:3210, V-B:PRO:540:CA:9855, H-A:GLU:543:OE2:4910, V-B:ALA:541:CB:9864, V-B:TYR:539:CE2:9848, V-A:TYR:484:CE2:4346, V-B:GLU:543:CG:9879, V-A:ASP:366:CG:3213, V-B:TYR:539:CZ:9849, H-B:TYR:539:OH:9850, V-A:GLU:543:CD:4908, V-B:PRO:540:CB:9857, H-A:GLY:454:N:4050, V-B:TYR:539:CD2:9846, V-A:TYR:531:CZ:4794, V-A:MET:535:CE:4835, V-B:GLU:543:CD:9880, V-A:ASP:366:CB:3212, V-A:LEU:475:CD2:4259, H-A:GLU:543:OE1:4909, V-B:TYR:539:CE1:9847"]

$$$$
ZINC2356517092
     RDKit          3D

 98104  0  0  0  0  0  0  0  0999 V2000
  128.2920  123.3140   58.7960 C   0  0  0  0  0  0  0  0  0  0  0  0
  128.7100  124.5770   58.9990 C   0  0  0  0  0  0  0  0  0  0  0  0
  127.8650  125.8620   58.9650 C   0  0  0  0  0  0  0  0  0  0  0  0
  128.2720  126.5460   57.6290 C   0  0  0  0  0  0  0  0  0  0  0  0
  126.3390  125.5910   58.8300 C   0  0  0  0  0  0  0  0  0  0  0  0
  128.1150  126.6810   60.2920 C   0  0  0  0  0  0  0  0  0  0  0  0
  128.5560  126.1100   61.5090 C   0  0  0  0  0  0  0  0  0  0  0  0
  128.7190  126.8730   62.6910 C   0  0  0  0  0  0  0  0  0  0  0  0
  128.4850  128.2620   62.6200 C   0  0  0  0  0  0  0  0  0  0  0  0
  128.7310  129.0690   63.7070 O   0  0  0  0  0  0  0  0  0  0  0  0
  128.0580  128.8810   61.4350 C   0  0  0  0  0  0  0  0  0  0  0  0
  127.9340  128.0820   60.2810 C   0  0  0  0  0  0  0  0  0  0  0  0
  127.6050  128.6480   59.0580 O   0  0  0  0  0  0  0  0  0  0  0  0
  127.9910  130.0040   58.7930 C   0  0  0  0  0  0  0  0  0  0  0  0
  129.5340  130.1500   58.7570 C   0  0  0  0  0  0  0  0  0  0  0  0
  127.3340  130.3020   57.4290 C   0  0  0  0  0  0  0  0  0  0  0  0
  127.3100  130.8200   59.9240 C   0  0  2  0  0  0  0  0  0  0  0  0
  127.3720  132.3610   59.8240 C   0  0  0  0  0  0  0  0  0  0  0  0
  126.3980  133.0150   60.8340 C   0  0  0  0  0  0  0  0  0  0  0  0
  126.3620  132.2850   62.1830 C   0  0  0  0  0  0  0  0  0  0  0  0
  125.5270  132.9290   63.2750 C   0  0  0  0  0  0  0  0  0  0  0  0
  126.9830  131.0970   62.3720 C   0  0  0  0  0  0  0  0  0  0  0  0
  127.8600  130.4090   61.3160 C   0  0  1  0  0  0  0  0  0  0  0  0
  129.1860  126.1960   63.9680 C   0  0  0  0  0  0  0  0  0  0  0  0
  129.3870  126.8220   65.0090 O   0  0  0  0  0  0  0  0  0  0  0  0
  129.4030  124.6730   63.8490 C   0  0  2  0  0  0  0  0  0  0  0  0
  130.3860  123.9380   64.8800 C   0  0  2  0  0  0  0  0  0  0  0  0
  130.7090  124.7190   66.0370 O   0  0  0  0  0  0  0  0  0  0  0  0
  129.8580  124.6390   67.1800 C   0  0  0  0  0  0  0  0  0  0  0  0
  129.5880  125.9960   67.8500 C   0  0  0  0  0  0  0  0  0  0  0  0
  131.6320  123.3580   64.0990 C   0  0  2  0  0  0  0  0  0  0  0  0
  132.1510  124.6340   63.3880 C   0  0  0  0  0  0  0  0  0  0  0  0
  132.8960  125.4770   63.8860 O   0  0  0  0  0  0  0  0  0  0  0  0
  131.4100  124.7190   62.0230 C   0  0  1  0  0  0  0  0  0  0  0  0
  131.6230  126.1010   61.3380 C   0  0  0  0  0  0  0  0  0  0  0  0
  131.2250  126.1900   59.8650 C   0  0  0  0  0  0  0  0  0  0  0  0
  131.8970  125.7020   58.7940 C   0  0  0  0  0  0  0  0  0  0  0  0
  131.3510  125.8570   57.3810 C   0  0  0  0  0  0  0  0  0  0  0  0
  133.2580  124.9670   58.9170 C   0  0  0  0  0  0  0  0  0  0  0  0
  133.8190  125.0830   60.0310 O   0  0  0  0  0  0  0  0  0  0  0  0
  133.6130  124.3340   57.8960 O   0  0  0  0  0  0  0  0  0  0  0  0
  131.9710  123.7040   61.1460 O   0  0  0  0  0  0  0  0  0  0  0  0
  132.1450  122.3720   61.6990 C   0  0  0  0  0  0  0  0  0  0  0  0
  133.6330  122.1490   62.0820 C   0  0  0  0  0  0  0  0  0  0  0  0
  131.7540  121.3790   60.5750 C   0  0  0  0  0  0  0  0  0  0  0  0
  131.1930  122.2970   62.9620 C   0  0  2  0  0  0  0  0  0  0  0  0
  129.7890  122.7500   62.4600 C   0  0  0  0  0  0  0  0  0  0  0  0
  129.8650  124.3050   62.3880 C   0  0  1  0  0  0  0  0  0  0  0  0
  128.8460  124.7600   61.4990 O   0  0  0  0  0  0  0  0  0  0  0  0
  129.0093  122.4818   58.8502 H   0  0  0  0  0  0  0  0  0  0  0  0
  127.2330  123.1138   58.5758 H   0  0  0  0  0  0  0  0  0  0  0  0
  129.7810  124.7055   59.2144 H   0  0  0  0  0  0  0  0  0  0  0  0
  128.8236  127.4729   57.8448 H   0  0  0  0  0  0  0  0  0  0  0  0
  128.9120  125.8652   57.0486 H   0  0  0  0  0  0  0  0  0  0  0  0
  127.3683  126.7837   57.0486 H   0  0  0  0  0  0  0  0  0  0  0  0
  125.8907  125.5114   59.8314 H   0  0  0  0  0  0  0  0  0  0  0  0
  125.8666  126.4193   58.2816 H   0  0  0  0  0  0  0  0  0  0  0  0
  126.1807  124.6507   58.2816 H   0  0  0  0  0  0  0  0  0  0  0  0
  129.5110  128.7990   64.1970 H   0  0  0  0  0  0  0  0  0  0  0  0
  129.9229  130.1868   59.7853 H   0  0  0  0  0  0  0  0  0  0  0  0
  129.9716  129.2892   58.2301 H   0  0  0  0  0  0  0  0  0  0  0  0
  129.8023  131.0775   58.2301 H   0  0  0  0  0  0  0  0  0  0  0  0
  126.3430  130.7515   57.5898 H   0  0  0  0  0  0  0  0  0  0  0  0
  127.9663  131.0014   56.8624 H   0  0  0  0  0  0  0  0  0  0  0  0
  127.2243  129.3655   56.8624 H   0  0  0  0  0  0  0  0  0  0  0  0
  126.2500  130.5573   59.7925 H   0  0  0  0  0  0  0  0  0  0  0  0
  128.3968  132.6960   60.0421 H   0  0  0  0  0  0  0  0  0  0  0  0
  127.0804  132.6612   58.8067 H   0  0  0  0  0  0  0  0  0  0  0  0
  126.7148  134.0544   61.0052 H   0  0  0  0  0  0  0  0  0  0  0  0
  125.3879  132.9623   60.4017 H   0  0  0  0  0  0  0  0  0  0  0  0
  125.9161  132.6289   64.2592 H   0  0  0  0  0  0  0  0  0  0  0  0
  125.5785  134.0236   63.1786 H   0  0  0  0  0  0  0  0  0  0  0  0
  124.4814  132.6012   63.1786 H   0  0  0  0  0  0  0  0  0  0  0  0
  126.8513  130.5939   63.3413 H   0  0  0  0  0  0  0  0  0  0  0  0
  128.8870  130.7643   61.4861 H   0  0  0  0  0  0  0  0  0  0  0  0
  128.4076  124.2896   64.1178 H   0  0  0  0  0  0  0  0  0  0  0  0
  129.8497  123.0852   65.3217 H   0  0  0  0  0  0  0  0  0  0  0  0
  128.8951  124.2099   66.8659 H   0  0  0  0  0  0  0  0  0  0  0  0
  130.3764  124.0135   67.9217 H   0  0  0  0  0  0  0  0  0  0  0  0
  129.6118  125.8764   68.9432 H   0  0  0  0  0  0  0  0  0  0  0  0
  130.3604  126.7166   67.5431 H   0  0  0  0  0  0  0  0  0  0  0  0
  128.5986  126.3661   67.5431 H   0  0  0  0  0  0  0  0  0  0  0  0
  132.3434  122.8346   64.7547 H   0  0  0  0  0  0  0  0  0  0  0  0
  131.0315  126.8451   61.8915 H   0  0  0  0  0  0  0  0  0  0  0  0
  132.7083  126.2784   61.3620 H   0  0  0  0  0  0  0  0  0  0  0  0
  130.2813  126.7120   59.6485 H   0  0  0  0  0  0  0  0  0  0  0  0
  130.2938  126.1571   57.4273 H   0  0  0  0  0  0  0  0  0  0  0  0
  131.9277  126.6269   56.8475 H   0  0  0  0  0  0  0  0  0  0  0  0
  131.4371  124.8989   56.8475 H   0  0  0  0  0  0  0  0  0  0  0  0
  133.7314  122.1343   63.1775 H   0  0  0  0  0  0  0  0  0  0  0  0
  133.9778  121.1892   61.6699 H   0  0  0  0  0  0  0  0  0  0  0  0
  134.2440  122.9656   61.6699 H   0  0  0  0  0  0  0  0  0  0  0  0
  131.3860  120.4443   61.0232 H   0  0  0  0  0  0  0  0  0  0  0  0
  130.9636  121.8230   59.9521 H   0  0  0  0  0  0  0  0  0  0  0  0
  132.6350  121.1649   59.9521 H   0  0  0  0  0  0  0  0  0  0  0  0
  131.2216  121.2826   63.3864 H   0  0  0  0  0  0  0  0  0  0  0  0
  129.5794  122.3273   61.4663 H   0  0  0  0  0  0  0  0  0  0  0  0
  128.9832  122.4074   63.1259 H   0  0  0  0  0  0  0  0  0  0  0  0
  1  2  2  0
  2  3  1  0
  3  4  1  0
  3  5  1  0
  3  6  1  0
  6  7  2  0
  7  8  1  0
  8  9  2  0
  9 10  1  0
  9 11  1  0
 11 12  2  0
 12 13  1  0
 13 14  1  0
 14 15  1  0
 14 16  1  0
 14 17  1  0
 17 18  1  0
 18 19  1  0
 19 20  1  0
 20 21  1  0
 20 22  2  0
 22 23  1  0
  8 24  1  0
 24 25  2  0
 24 26  1  0
 26 27  1  0
 27 28  1  0
 28 29  1  0
 29 30  1  0
 27 31  1  0
 31 32  1  0
 32 33  2  0
 32 34  1  0
 34 35  1  6
 35 36  1  0
 36 37  2  0
 37 38  1  0
 37 39  1  0
 39 40  2  0
 39 41  1  0
 34 42  1  0
 42 43  1  0
 43 44  1  0
 43 45  1  0
 43 46  1  0
 46 47  1  0
 47 48  1  0
 48 49  1  6
 12  6  1  0
 23 17  1  0
 48 26  1  0
 49  7  1  0
 23 11  1  0
 46 31  1  0
 48 34  1  0
  1 50  1  0
  1 51  1  0
  2 52  1  0
  4 53  1  0
  4 54  1  0
  4 55  1  0
  5 56  1  0
  5 57  1  0
  5 58  1  0
 10 59  1  0
 15 60  1  0
 15 61  1  0
 15 62  1  0
 16 63  1  0
 16 64  1  0
 16 65  1  0
 17 66  1  1
 18 67  1  0
 18 68  1  0
 19 69  1  0
 19 70  1  0
 21 71  1  0
 21 72  1  0
 21 73  1  0
 22 74  1  0
 23 75  1  6
 26 76  1  1
 27 77  1  1
 29 78  1  0
 29 79  1  0
 30 80  1  0
 30 81  1  0
 30 82  1  0
 31 83  1  1
 35 84  1  0
 35 85  1  0
 36 86  1  0
 38 87  1  0
 38 88  1  0
 38 89  1  0
 44 90  1  0
 44 91  1  0
 44 92  1  0
 45 93  1  0
 45 94  1  0
 45 95  1  0
 46 96  1  1
 47 97  1  0
 47 98  1  0
M  CHG  1  41  -1
M  END
>  <Binding energies>  (1) 
[-7.67]

>  <Ligand effiencies>  (1) 
[-0.1534]

>  <Interactions>  (1) 
["V-A:ASP:366:CA:3210, V-A:GLY:454:CA:4049, H-A:GLU:543:OE2:4910, V-B:GLU:543:CB:9878, V-B:TYR:539:CE2:9848, V-A:TYR:484:CE2:4346, V-B:LEU:475:CD2:9230, V-B:GLU:543:CG:9879, V-A:ASP:366:CG:3213, V-A:TYR:539:CD1:4873, V-B:TYR:539:CZ:9849, H-B:TYR:539:OH:9850, V-A:TYR:484:CZ:4347, V-B:GLU:543:CA:9876, V-A:HIS:456:CE1:4070, V-A:ASP:366:C:3208, V-B:TYR:539:CD2:9846, V-B:GLU:543:CD:9880, V-A:MET:535:CE:4835, V-A:ASP:366:CB:3212, V-A:LEU:475:CD2:4259, H-A:ARG:545:NH2:4928, H-A:GLU:543:OE1:4909, H-A:ARG:545:NE:4924, V-A:TYR:539:CE1:4875, H-A:TYR:484:OH:4348"]

$$$$
ZINC2356519753-again1
     RDKit          3D

 32 35  0  0  0  0  0  0  0  0999 V2000
  129.4390  132.2150   64.0410 C   0  0  0  0  0  0  0  0  0  0  0  0
  128.1720  131.7790   63.2250 C   0  0  2  0  0  0  0  0  0  0  0  0
  127.1810  131.4440   64.1520 O   0  0  0  0  0  0  0  0  0  0  0  0
  127.3440  130.1010   64.4760 C   0  0  0  0  0  0  0  0  0  0  0  0
  126.7140  129.5580   65.3790 O   0  0  0  0  0  0  0  0  0  0  0  0
  128.3780  129.4760   63.5100 C   0  0  0  0  0  0  0  0  0  0  0  0
  128.1810  130.5000   62.4160 C   0  0  2  0  0  0  0  0  0  0  0  0
  128.9860  130.8700   61.1720 C   0  0  2  0  0  0  0  0  0  0  0  0
  130.3440  130.5310   60.9100 O   0  0  0  0  0  0  0  0  0  0  0  0
  130.7450  131.0620   59.6760 C   0  0  0  0  0  0  0  0  0  0  0  0
  131.7550  130.3480   59.0390 C   0  0  0  0  0  0  0  0  0  0  0  0
  132.2040  130.7460   57.7880 C   0  0  0  0  0  0  0  0  0  0  0  0
  133.1950  130.0380   57.1620 O   0  0  0  0  0  0  0  0  0  0  0  0
  131.6420  131.8560   57.1650 C   0  0  0  0  0  0  0  0  0  0  0  0
  130.6300  132.6010   57.7870 C   0  0  0  0  0  0  0  0  0  0  0  0
  130.1900  133.6040   57.1290 O   0  0  0  0  0  0  0  0  0  0  0  0
  130.1680  132.2340   59.0830 C   0  0  0  0  0  0  0  0  0  0  0  0
  129.0610  132.9560   59.8640 C   0  0  0  0  0  0  0  0  0  0  0  0
  128.3590  133.8720   59.4390 O   0  0  0  0  0  0  0  0  0  0  0  0
  128.9920  132.3930   61.2740 C   0  0  1  0  0  0  0  0  0  0  0  0
  127.9250  132.7090   62.1860 O   0  0  0  0  0  0  0  0  0  0  0  0
  129.2251  132.1414   65.1175 H   0  0  0  0  0  0  0  0  0  0  0  0
  130.2824  131.5554   63.7888 H   0  0  0  0  0  0  0  0  0  0  0  0
  129.6979  133.2539   63.7888 H   0  0  0  0  0  0  0  0  0  0  0  0
  129.3996  129.4763   63.9178 H   0  0  0  0  0  0  0  0  0  0  0  0
  128.2507  128.4162   63.2442 H   0  0  0  0  0  0  0  0  0  0  0  0
  127.3744  129.9926   61.8665 H   0  0  0  0  0  0  0  0  0  0  0  0
  128.4974  130.2828   60.3805 H   0  0  0  0  0  0  0  0  0  0  0  0
  132.1978  129.4675   59.5274 H   0  0  0  0  0  0  0  0  0  0  0  0
  132.8880  129.1930   56.8240 H   0  0  0  0  0  0  0  0  0  0  0  0
  131.9976  132.1541   56.1677 H   0  0  0  0  0  0  0  0  0  0  0  0
  129.8604  132.8987   61.7214 H   0  0  0  0  0  0  0  0  0  0  0  0
  2  1  1  1
  2  3  1  0
  3  4  1  0
  4  5  2  0
  4  6  1  0
  6  7  1  0
  7  8  1  0
  8  9  1  0
  9 10  1  0
 10 11  2  0
 11 12  1  0
 12 13  1  0
 12 14  2  0
 14 15  1  0
 15 16  1  0
 15 17  2  0
 17 18  1  0
 18 19  2  0
 18 20  1  0
 20 21  1  0
  7  2  1  0
 20  8  1  0
 21  2  1  0
 17 10  1  0
  1 22  1  0
  1 23  1  0
  1 24  1  0
  6 25  1  0
  6 26  1  0
  7 27  1  6
  8 28  1  6
 11 29  1  0
 13 30  1  0
 14 31  1  0
 20 32  1  1
M  CHG  1  16  -1
M  END
>  <Binding energies>  (1) 
[-5.43]

>  <Ligand effiencies>  (1) 
[-0.2468181818181818]

>  <Interactions>  (1) 
["V-A:LEU:363:CD1:3189, V-A:PRO:540:N:4884, H-A:TYR:539:N:4870, V-A:PRO:540:CB:4885, V-A:PRO:540:CA:4883, V-A:TYR:531:CE2:4793, V-A:ALA:541:CA:4890, V-A:ALA:541:CB:4892, V-A:GLU:543:CG:4907, H-A:TYR:531:OH:4795, V-A:GLU:543:CD:4908, V-A:TYR:539:C:4867, H-B:TYR:484:OH:9319, V-A:ASP:366:CG:3213"]

$$$$
ZINC2356520151
     RDKit          3D

 56 57  0  0  0  0  0  0  0  0999 V2000
  129.5850  125.2780   65.8150 C   0  0  0  0  0  0  0  0  0  0  0  0
  130.4210  125.1700   64.7680 C   0  0  0  0  0  0  0  0  0  0  0  0
  130.2870  126.0510   63.5290 C   0  0  0  0  0  0  0  0  0  0  0  0
  129.8390  125.2880   62.2590 C   0  0  0  0  0  0  0  0  0  0  0  0
  129.2810  126.1650   61.0940 C   0  0  1  0  0  0  0  0  0  0  0  0
  130.4810  126.8880   60.4010 C   0  0  0  0  0  0  0  0  0  0  0  0
  130.9630  126.2990   59.0600 C   0  0  0  0  0  0  0  0  0  0  0  0
  130.7260  124.7780   58.8900 C   0  0  1  0  0  0  0  0  0  0  0  0
  131.6670  123.9380   59.5670 O   0  0  0  0  0  0  0  0  0  0  0  0
  133.0070  124.0740   59.3990 C   0  0  0  0  0  0  0  0  0  0  0  0
  133.6140  123.9680   58.3310 O   0  0  0  0  0  0  0  0  0  0  0  0
  133.7520  124.3480   60.7130 C   0  0  0  0  0  0  0  0  0  0  0  0
  133.5870  123.2130   61.7270 C   0  0  0  0  0  0  0  0  0  0  0  0
  134.0580  121.8610   61.2070 C   0  0  0  0  0  0  0  0  0  0  0  0
  133.2220  123.3430   63.0280 C   0  0  0  0  0  0  0  0  0  0  0  0
  132.8060  124.5660   63.8480 C   0  0  2  0  0  0  0  0  0  0  0  0
  133.8930  125.1250   64.5850 O   0  0  0  0  0  0  0  0  0  0  0  0
  133.9990  125.0190   65.9280 C   0  0  0  0  0  0  0  0  0  0  0  0
  132.9100  125.8070   66.6470 C   0  0  0  0  0  0  0  0  0  0  0  0
  134.8500  124.3840   66.5500 O   0  0  0  0  0  0  0  0  0  0  0  0
  131.6180  124.2200   64.7820 C   0  0  0  0  0  0  0  0  0  0  0  0
  129.2970  124.3230   59.2600 C   0  0  0  0  0  0  0  0  0  0  0  0
  128.9060  123.1980   58.9390 O   0  0  0  0  0  0  0  0  0  0  0  0
  128.4090  125.3250   60.0710 C   0  0  0  0  0  0  0  0  0  0  0  0
  127.3160  124.4990   60.8200 C   0  0  0  0  0  0  0  0  0  0  0  0
  127.7070  126.2760   59.0610 C   0  0  0  0  0  0  0  0  0  0  0  0
  129.7133  124.6250   66.6909 H   0  0  0  0  0  0  0  0  0  0  0  0
  128.7726  126.0193   65.7959 H   0  0  0  0  0  0  0  0  0  0  0  0
  129.5454  126.8353   63.7409 H   0  0  0  0  0  0  0  0  0  0  0  0
  131.2868  126.4588   63.3190 H   0  0  0  0  0  0  0  0  0  0  0  0
  130.7080  124.7330   61.8759 H   0  0  0  0  0  0  0  0  0  0  0  0
  129.0013  124.6498   62.5768 H   0  0  0  0  0  0  0  0  0  0  0  0
  128.5924  126.9183   61.5043 H   0  0  0  0  0  0  0  0  0  0  0  0
  130.1818  127.9307   60.2188 H   0  0  0  0  0  0  0  0  0  0  0  0
  131.3289  126.7675   61.0913 H   0  0  0  0  0  0  0  0  0  0  0  0
  130.4333  126.8196   58.2486 H   0  0  0  0  0  0  0  0  0  0  0  0
  132.0530  126.4449   59.0343 H   0  0  0  0  0  0  0  0  0  0  0  0
  130.8770  124.6454   57.8085 H   0  0  0  0  0  0  0  0  0  0  0  0
  134.8226  124.4715   60.4926 H   0  0  0  0  0  0  0  0  0  0  0  0
  133.3234  125.2585   61.1571 H   0  0  0  0  0  0  0  0  0  0  0  0
  134.2879  121.2012   62.0566 H   0  0  0  0  0  0  0  0  0  0  0  0
  133.2650  121.4072   60.5944 H   0  0  0  0  0  0  0  0  0  0  0  0
  134.9613  121.9982   60.5944 H   0  0  0  0  0  0  0  0  0  0  0  0
  133.2260  122.4000   63.5943 H   0  0  0  0  0  0  0  0  0  0  0  0
  132.4793  125.3375   63.1352 H   0  0  0  0  0  0  0  0  0  0  0  0
  133.0444  125.7098   67.7344 H   0  0  0  0  0  0  0  0  0  0  0  0
  132.9764  126.8675   66.3627 H   0  0  0  0  0  0  0  0  0  0  0  0
  131.9234  125.4123   66.3627 H   0  0  0  0  0  0  0  0  0  0  0  0
  131.2524  123.2224   64.4973 H   0  0  0  0  0  0  0  0  0  0  0  0
  132.0267  124.2927   65.8007 H   0  0  0  0  0  0  0  0  0  0  0  0
  127.4562  124.6050   61.9059 H   0  0  0  0  0  0  0  0  0  0  0  0
  126.3194  124.8716   60.5409 H   0  0  0  0  0  0  0  0  0  0  0  0
  127.4024  123.4385   60.5409 H   0  0  0  0  0  0  0  0  0  0  0  0
  127.1413  127.0423   59.6113 H   0  0  0  0  0  0  0  0  0  0  0  0
  128.4641  126.7627   58.4286 H   0  0  0  0  0  0  0  0  0  0  0  0
  127.0189  125.6959   58.4286 H   0  0  0  0  0  0  0  0  0  0  0  0
  1  2  2  0
  2  3  1  0
  3  4  1  0
  4  5  1  0
  5  6  1  0
  6  7  1  0
  7  8  1  0
  8  9  1  0
  9 10  1  0
 10 11  2  0
 10 12  1  0
 12 13  1  0
 13 14  1  0
 13 15  2  0
 15 16  1  0
 16 17  1  0
 17 18  1  0
 18 19  1  0
 18 20  2  0
 16 21  1  0
  8 22  1  0
 22 23  2  0
 22 24  1  0
 24 25  1  0
 24 26  1  0
 21  2  1  0
 24  5  1  0
  1 27  1  0
  1 28  1  0
  3 29  1  0
  3 30  1  0
  4 31  1  0
  4 32  1  0
  5 33  1  1
  6 34  1  0
  6 35  1  0
  7 36  1  0
  7 37  1  0
  8 38  1  6
 12 39  1  0
 12 40  1  0
 14 41  1  0
 14 42  1  0
 14 43  1  0
 15 44  1  0
 16 45  1  6
 19 46  1  0
 19 47  1  0
 19 48  1  0
 21 49  1  0
 21 50  1  0
 25 51  1  0
 25 52  1  0
 25 53  1  0
 26 54  1  0
 26 55  1  0
 26 56  1  0
M  END
>  <Binding energies>  (1) 
[-3.23]

>  <Ligand effiencies>  (1) 
[-0.11535714285714285]

>  <Interactions>  (1) 
["V-A:ILE:369:CG2:3237, V-A:GLY:454:CA:4049, V-B:GLU:543:CB:9878, H-A:ARG:545:NH1:4927, V-B:TYR:539:CE2:9848, V-B:GLU:543:CG:9879, V-A:ASP:366:CG:3213, V-B:TYR:539:CZ:9849, H-B:TYR:539:OH:9850, V-A:GLU:543:CD:4908, V-A:TYR:484:CZ:4347, V-A:ARG:545:CG:4922, H-A:GLY:454:N:4050, V-A:GLY:453:C:4042, V-A:ILE:369:CD1:3239, V-A:HIS:456:CE1:4070, V-B:GLU:543:CD:9880, V-A:ARG:545:CD:4923, H-A:ILE:455:N:4055, V-A:ARG:545:CZ:4926, H-A:ARG:545:NH2:4928, H-A:ARG:545:NE:4924, H-A:TYR:484:OH:4348"]

$$$$
ZINC2356531986
     RDKit          3D

108112  0  0  0  0  0  0  0  0999 V2000
  131.1920  124.0490   59.7030 C   0  0  0  0  0  0  0  0  0  0  0  0
  129.8720  124.5260   60.3850 C   0  0  2  0  0  0  0  0  0  0  0  0
  129.9430  124.2400   61.9220 C   0  0  0  0  0  0  0  0  0  0  0  0
  129.9540  122.7370   62.2880 C   0  0  0  0  0  0  0  0  0  0  0  0
  128.7250  122.0250   61.6890 C   0  0  2  0  0  0  0  0  0  0  0  0
  128.7650  120.6390   62.0250 O   0  0  0  0  0  0  0  0  0  0  0  0
  129.7230  119.8160   61.5380 C   0  0  0  0  0  0  0  0  0  0  0  0
  129.8320  118.6110   61.7650 O   0  0  0  0  0  0  0  0  0  0  0  0
  130.7080  120.5440   60.6230 C   0  0  0  0  0  0  0  0  0  0  0  0
  132.0850  119.8510   60.5720 C   0  0  0  0  0  0  0  0  0  0  0  0
  133.2320  120.7850   60.1390 C   0  0  0  0  0  0  0  0  0  0  0  0
  133.9810  121.4980   61.2840 C   0  0  0  0  0  0  0  0  0  0  0  0
  133.5320  122.9580   61.5270 C   0  0  0  0  0  0  0  0  0  0  0  0
  134.1760  123.6360   62.7590 C   0  0  0  0  0  0  0  0  0  0  0  0
  133.2830  124.7170   63.3810 C   0  0  0  0  0  0  0  0  0  0  0  0
  132.6880  125.5160   62.6580 O   0  0  0  0  0  0  0  0  0  0  0  0
  133.1580  124.6920   64.7200 N   0  0  0  0  0  0  0  0  0  0  0  0
  132.2320  125.5220   65.5110 C   0  0  1  0  0  0  0  0  0  0  0  0
  130.8150  124.8630   65.4990 C   0  0  0  0  0  0  0  0  0  0  0  0
  129.7650  125.6560   64.7000 C   0  0  0  0  0  0  0  0  0  0  0  0
  129.1000  126.7660   65.5250 C   0  0  0  0  0  0  0  0  0  0  0  0
  129.6710  126.8480   66.8810 N   0  0  0  0  0  0  0  0  0  0  0  0
  128.9950  126.9580   68.0420 C   0  0  0  0  0  0  0  0  0  0  0  0
  127.6530  127.0020   68.0910 N   0  0  0  0  0  0  0  0  0  0  0  0
  129.6870  127.0260   69.1880 N   0  0  0  0  0  0  0  0  0  0  0  0
  132.8360  125.7180   66.9610 C   0  0  0  0  0  0  0  0  0  0  0  0
  133.8870  125.0950   67.2400 O   0  0  0  0  0  0  0  0  0  0  0  0
  132.1540  126.4520   67.7160 O   0  0  0  0  0  0  0  0  0  0  0  0
  128.6610  122.2520   60.1610 C   0  0  0  0  0  0  0  0  0  0  0  0
  128.6040  123.7660   59.8400 C   0  0  2  0  0  0  0  0  0  0  0  0
  128.3800  124.0410   58.3310 C   0  0  0  0  0  0  0  0  0  0  0  0
  128.1870  125.5430   58.0590 C   0  0  0  0  0  0  0  0  0  0  0  0
  129.3810  126.3840   58.5910 C   0  0  2  0  0  0  0  0  0  0  0  0
  129.6140  126.0600   60.1210 C   0  0  2  0  0  0  0  0  0  0  0  0
  130.6030  127.0350   60.8560 C   0  0  0  0  0  0  0  0  0  0  0  0
  130.4860  128.5240   60.4310 C   0  0  0  0  0  0  0  0  0  0  0  0
  130.4780  128.6910   58.8830 C   0  0  2  0  0  0  0  0  0  0  0  0
  131.8430  128.1650   58.3140 C   0  0  0  0  0  0  0  0  0  0  0  0
  130.2860  130.1350   58.2910 C   0  0  2  0  0  0  0  0  0  0  0  0
  129.8240  131.2170   59.2770 C   0  0  0  0  0  0  0  0  0  0  0  0
  128.5340  131.8990   59.2030 C   0  0  0  0  0  0  0  0  0  0  0  0
  128.1530  132.8450   60.0900 C   0  0  0  0  0  0  0  0  0  0  0  0
  129.0490  133.2350   61.1870 C   0  0  0  0  0  0  0  0  0  0  0  0
  128.8500  134.0670   62.0690 O   0  0  0  0  0  0  0  0  0  0  0  0
  130.2640  132.5730   61.2090 O   0  0  0  0  0  0  0  0  0  0  0  0
  130.6170  131.6200   60.2950 C   0  0  0  0  0  0  0  0  0  0  0  0
  129.3790  129.9600   57.0380 C   0  0  0  0  0  0  0  0  0  0  0  0
  129.1220  128.4440   56.9090 C   0  0  0  0  0  0  0  0  0  0  0  0
  129.2280  127.9220   58.3500 C   0  0  1  0  0  0  0  0  0  0  0  0
  128.0140  128.2820   59.0110 O   0  0  0  0  0  0  0  0  0  0  0  0
  131.9284  123.7829   60.4755 H   0  0  0  0  0  0  0  0  0  0  0  0
  130.9838  123.1693   59.0763 H   0  0  0  0  0  0  0  0  0  0  0  0
  131.5943  124.8586   59.0763 H   0  0  0  0  0  0  0  0  0  0  0  0
  130.8625  124.6976   62.3158 H   0  0  0  0  0  0  0  0  0  0  0  0
  129.0309  124.6663   62.3651 H   0  0  0  0  0  0  0  0  0  0  0  0
  130.8694  122.2746   61.8903 H   0  0  0  0  0  0  0  0  0  0  0  0
  129.9231  122.6379   63.3831 H   0  0  0  0  0  0  0  0  0  0  0  0
  127.8051  122.4507   62.1164 H   0  0  0  0  0  0  0  0  0  0  0  0
  130.2896  120.5739   59.6061 H   0  0  0  0  0  0  0  0  0  0  0  0
  130.8565  121.5561   61.0275 H   0  0  0  0  0  0  0  0  0  0  0  0
  132.3147  119.4603   61.5743 H   0  0  0  0  0  0  0  0  0  0  0  0
  132.0165  119.0540   59.8169 H   0  0  0  0  0  0  0  0  0  0  0  0
  133.9637  120.1846   59.5785 H   0  0  0  0  0  0  0  0  0  0  0  0
  132.7619  121.5826   59.5451 H   0  0  0  0  0  0  0  0  0  0  0  0
  133.8164  120.9283   62.2105 H   0  0  0  0  0  0  0  0  0  0  0  0
  135.0401  121.5393   60.9896 H   0  0  0  0  0  0  0  0  0  0  0  0
  133.7913  123.5489   60.6362 H   0  0  0  0  0  0  0  0  0  0  0  0
  132.4501  122.9217   61.7226 H   0  0  0  0  0  0  0  0  0  0  0  0
  134.3758  122.8660   63.5188 H   0  0  0  0  0  0  0  0  0  0  0  0
  135.1003  124.1266   62.4199 H   0  0  0  0  0  0  0  0  0  0  0  0
  133.6930  124.0200   65.2500 H   0  0  0  0  0  0  0  0  0  0  0  0
  132.1117  126.5259   65.0777 H   0  0  0  0  0  0  0  0  0  0  0  0
  130.9031  123.8603   65.0553 H   0  0  0  0  0  0  0  0  0  0  0  0
  130.4674  124.8342   66.5423 H   0  0  0  0  0  0  0  0  0  0  0  0
  130.2581  126.1132   63.8295 H   0  0  0  0  0  0  0  0  0  0  0  0
  128.9764  124.9503   64.3999 H   0  0  0  0  0  0  0  0  0  0  0  0
  129.2505  127.7290   65.0151 H   0  0  0  0  0  0  0  0  0  0  0  0
  128.0287  126.5335   65.6155 H   0  0  0  0  0  0  0  0  0  0  0  0
  130.6790  126.8150   66.9290 H   0  0  0  0  0  0  0  0  0  0  0  0
  127.1760  127.0890   68.9770 H   0  0  0  0  0  0  0  0  0  0  0  0
  127.1160  126.9530   67.2360 H   0  0  0  0  0  0  0  0  0  0  0  0
  130.6960  126.9930   69.1760 H   0  0  0  0  0  0  0  0  0  0  0  0
  129.2010  127.1080   70.0700 H   0  0  0  0  0  0  0  0  0  0  0  0
  129.5556  121.8159   59.6924 H   0  0  0  0  0  0  0  0  0  0  0  0
  127.7539  121.7702   59.7672 H   0  0  0  0  0  0  0  0  0  0  0  0
  127.7265  124.1661   60.3691 H   0  0  0  0  0  0  0  0  0  0  0  0
  129.2552  123.6845   57.7680 H   0  0  0  0  0  0  0  0  0  0  0  0
  127.4702  123.5109   58.0128 H   0  0  0  0  0  0  0  0  0  0  0  0
  128.0966  125.6996   56.9740 H   0  0  0  0  0  0  0  0  0  0  0  0
  127.2772  125.8712   58.5830 H   0  0  0  0  0  0  0  0  0  0  0  0
  130.2677  126.0913   58.0095 H   0  0  0  0  0  0  0  0  0  0  0  0
  128.6555  126.2780   60.6147 H   0  0  0  0  0  0  0  0  0  0  0  0
  130.4066  126.9711   61.9364 H   0  0  0  0  0  0  0  0  0  0  0  0
  131.6178  126.7130   60.5794 H   0  0  0  0  0  0  0  0  0  0  0  0
  129.5508  128.9367   60.8373 H   0  0  0  0  0  0  0  0  0  0  0  0
  131.3623  129.0593   60.8255 H   0  0  0  0  0  0  0  0  0  0  0  0
  132.5127  127.9069   59.1476 H   0  0  0  0  0  0  0  0  0  0  0  0
  131.6635  127.2716   57.6978 H   0  0  0  0  0  0  0  0  0  0  0  0
  132.3094  128.9478   57.6978 H   0  0  0  0  0  0  0  0  0  0  0  0
  131.2652  130.5540   58.0160 H   0  0  0  0  0  0  0  0  0  0  0  0
  127.8429  131.6310   58.3902 H   0  0  0  0  0  0  0  0  0  0  0  0
  127.1682  133.3248   59.9901 H   0  0  0  0  0  0  0  0  0  0  0  0
  131.6076  131.1520   60.3939 H   0  0  0  0  0  0  0  0  0  0  0  0
  128.4297  130.4985   57.1749 H   0  0  0  0  0  0  0  0  0  0  0  0
  129.8566  130.3666   56.1343 H   0  0  0  0  0  0  0  0  0  0  0  0
  128.1206  128.2514   56.4966 H   0  0  0  0  0  0  0  0  0  0  0  0
  129.8323  127.9518   56.2284 H   0  0  0  0  0  0  0  0  0  0  0  0
  127.7290  129.1340   58.6730 H   0  0  0  0  0  0  0  0  0  0  0  0
  2  1  1  6
  2  3  1  0
  3  4  1  0
  4  5  1  0
  5  6  1  0
  6  7  1  0
  7  8  2  0
  7  9  1  0
  9 10  1  0
 10 11  1  0
 11 12  1  0
 12 13  1  0
 13 14  1  0
 14 15  1  0
 15 16  2  0
 15 17  1  0
 17 18  1  0
 18 19  1  0
 19 20  1  0
 20 21  1  0
 21 22  1  0
 22 23  1  0
 23 24  1  0
 23 25  2  0
 18 26  1  0
 26 27  2  0
 26 28  1  0
  5 29  1  0
 29 30  1  0
 30 31  1  0
 31 32  1  0
 32 33  1  0
 33 34  1  0
 34 35  1  0
 35 36  1  0
 36 37  1  0
 37 38  1  6
 37 39  1  0
 39 40  1  0
 40 41  1  0
 41 42  2  0
 42 43  1  0
 43 44  2  0
 43 45  1  0
 45 46  1  0
 39 47  1  0
 47 48  1  0
 48 49  1  0
 49 50  1  1
 30  2  1  0
 49 33  1  0
 34  2  1  0
 49 37  1  0
 46 40  2  0
  1 51  1  0
  1 52  1  0
  1 53  1  0
  3 54  1  0
  3 55  1  0
  4 56  1  0
  4 57  1  0
  5 58  1  1
  9 59  1  0
  9 60  1  0
 10 61  1  0
 10 62  1  0
 11 63  1  0
 11 64  1  0
 12 65  1  0
 12 66  1  0
 13 67  1  0
 13 68  1  0
 14 69  1  0
 14 70  1  0
 17 71  1  0
 18 72  1  6
 19 73  1  0
 19 74  1  0
 20 75  1  0
 20 76  1  0
 21 77  1  0
 21 78  1  0
 22 79  1  0
 24 80  1  0
 24 81  1  0
 25 82  1  0
 25 83  1  0
 29 84  1  0
 29 85  1  0
 30 86  1  1
 31 87  1  0
 31 88  1  0
 32 89  1  0
 32 90  1  0
 33 91  1  6
 34 92  1  1
 35 93  1  0
 35 94  1  0
 36 95  1  0
 36 96  1  0
 38 97  1  0
 38 98  1  0
 38 99  1  0
 39100  1  6
 41101  1  0
 42102  1  0
 46103  1  0
 47104  1  0
 47105  1  0
 48106  1  0
 48107  1  0
 50108  1  0
M  CHG  2  25   1  28  -1
M  END
>  <Binding energies>  (1) 
[-7.4]

>  <Ligand effiencies>  (1) 
[-0.1298245614035088]

>  <Interactions>  (1) 
["V-A:ILE:369:CG2:3237, V-B:PRO:540:CA:9855, V-A:GLY:454:CA:4049, V-B:GLU:543:C:9874, H-A:GLU:543:OE2:4910, H-B:GLU:543:O:9875, H-A:ALA:541:N:4891, V-A:PRO:540:C:4881, V-B:GLU:543:CB:9878, V-B:ALA:541:CB:9864, V-B:TYR:539:CE2:9848, V-B:GLU:543:CG:9879, V-B:TYR:539:C:9839, V-A:ASP:366:CG:3213, V-A:TYR:539:CD1:4873, V-B:TYR:539:CZ:9849, H-B:ALA:541:N:9863, V-A:GLU:543:CD:4908, V-A:TYR:484:CZ:4347, V-B:GLU:543:CA:9876, V-B:HIS:456:CE1:9041, V-A:SER:385:C:3405, V-A:GLY:453:C:4042, V-A:ARG:545:CG:4922, V-B:PRO:540:N:9856, V-A:ILE:369:CD1:3239, V-A:HIS:456:CE1:4070, H-B:HIS:456:NE2:9042, V-B:TYR:539:CD2:9846, V-A:TYR:531:CZ:4794, V-A:SER:385:CB:3409, V-A:MET:535:CE:4835, V-B:GLU:543:CD:9880, V-A:TYR:539:C:4867, V-A:ASP:366:CB:3212, V-A:ARG:545:CD:4923, V-A:LEU:475:CD2:4259, H-A:ARG:545:NH2:4928, V-A:ARG:545:CZ:4926, H-B:GLU:543:OE2:9882, V-A:PRO:540:CB:4885, V-A:PRO:540:CA:4883, H-A:ARG:545:NE:4924, V-A:SER:385:CA:3407, V-B:PRO:540:C:9853, H-A:HIS:456:NE2:4071, H-A:HIS:456:ND1:4067, H-A:TYR:484:OH:4348"]

$$$$
ZINC2356532306
     RDKit          3D

 42 42  0  0  0  0  0  0  0  0999 V2000
  133.6960  124.3530   58.2760 C   0  0  0  0  0  0  0  0  0  0  0  0
  133.5660  124.1600   59.7930 C   0  0  0  0  0  0  0  0  0  0  0  0
  132.9630  122.7980   60.1730 C   0  0  0  0  0  0  0  0  0  0  0  0
  133.2690  122.3870   61.6250 C   0  0  0  0  0  0  0  0  0  0  0  0
  133.9390  123.5100   62.4350 C   0  0  0  0  0  0  0  0  0  0  0  0
  133.2400  123.7690   63.7800 C   0  0  1  0  0  0  0  0  0  0  0  0
  133.8140  124.7310   64.6240 O   0  0  0  0  0  0  0  0  0  0  0  0
  132.5940  125.0960   64.0260 C   0  0  2  0  0  0  0  0  0  0  0  0
  131.3890  125.1520   64.9390 C   0  0  0  0  0  0  0  0  0  0  0  0
  131.4570  125.4590   66.2500 C   0  0  0  0  0  0  0  0  0  0  0  0
  130.2900  125.5150   67.1010 C   0  0  0  0  0  0  0  0  0  0  0  0
  129.5310  124.5600   67.2830 O   0  0  0  0  0  0  0  0  0  0  0  0
  130.1150  126.7200   67.6720 N   0  0  0  0  0  0  0  0  0  0  0  0
  129.0210  127.0710   68.5790 C   0  0  0  0  0  0  0  0  0  0  0  0
  129.4290  127.9640   69.7790 C   0  0  0  0  0  0  0  0  0  0  0  0
  130.9600  128.0780   69.8860 C   0  0  0  0  0  0  0  0  0  0  0  0
  128.8180  127.4890   71.1120 C   0  0  0  0  0  0  0  0  0  0  0  0
  134.2997  125.2493   58.0708 H   0  0  0  0  0  0  0  0  0  0  0  0
  134.1856  123.4722   57.8349 H   0  0  0  0  0  0  0  0  0  0  0  0
  132.6958  124.4758   57.8349 H   0  0  0  0  0  0  0  0  0  0  0  0
  134.5662  124.2392   60.2439 H   0  0  0  0  0  0  0  0  0  0  0  0
  132.8853  124.9386   60.1678 H   0  0  0  0  0  0  0  0  0  0  0  0
  131.8716  122.8506   60.0465 H   0  0  0  0  0  0  0  0  0  0  0  0
  133.4175  122.0426   59.5151 H   0  0  0  0  0  0  0  0  0  0  0  0
  132.3251  122.1129   62.1188 H   0  0  0  0  0  0  0  0  0  0  0  0
  133.9716  121.5414   61.5883 H   0  0  0  0  0  0  0  0  0  0  0  0
  134.9842  123.2279   62.6300 H   0  0  0  0  0  0  0  0  0  0  0  0
  133.8712  124.4338   61.8417 H   0  0  0  0  0  0  0  0  0  0  0  0
  132.9174  122.7205   63.8610 H   0  0  0  0  0  0  0  0  0  0  0  0
  132.2239  125.9132   63.3894 H   0  0  0  0  0  0  0  0  0  0  0  0
  130.4013  124.9296   64.5088 H   0  0  0  0  0  0  0  0  0  0  0  0
  132.4414  125.6759   66.6903 H   0  0  0  0  0  0  0  0  0  0  0  0
  130.7810  127.4510   67.4700 H   0  0  0  0  0  0  0  0  0  0  0  0
  128.2550  127.6068   67.9992 H   0  0  0  0  0  0  0  0  0  0  0  0
  128.6598  126.1245   69.0075 H   0  0  0  0  0  0  0  0  0  0  0  0
  129.0152  128.9638   69.5811 H   0  0  0  0  0  0  0  0  0  0  0  0
  131.2529  128.0998   70.9461 H   0  0  0  0  0  0  0  0  0  0  0  0
  131.4274  127.2122   69.3942 H   0  0  0  0  0  0  0  0  0  0  0  0
  131.2940  129.0035   69.3942 H   0  0  0  0  0  0  0  0  0  0  0  0
  129.3807  127.9265   71.9498 H   0  0  0  0  0  0  0  0  0  0  0  0
  127.7674  127.8098   71.1687 H   0  0  0  0  0  0  0  0  0  0  0  0
  128.8699  126.3917   71.1687 H   0  0  0  0  0  0  0  0  0  0  0  0
  1  2  1  0
  2  3  1  0
  3  4  1  0
  4  5  1  0
  5  6  1  0
  6  7  1  0
  7  8  1  0
  8  9  1  0
  9 10  2  0
 10 11  1  0
 11 12  2  0
 11 13  1  0
 13 14  1  0
 14 15  1  0
 15 16  1  0
 15 17  1  0
  8  6  1  0
  1 18  1  0
  1 19  1  0
  1 20  1  0
  2 21  1  0
  2 22  1  0
  3 23  1  0
  3 24  1  0
  4 25  1  0
  4 26  1  0
  5 27  1  0
  5 28  1  0
  6 29  1  1
  8 30  1  6
  9 31  1  0
 10 32  1  0
 13 33  1  0
 14 34  1  0
 14 35  1  0
 15 36  1  0
 16 37  1  0
 16 38  1  0
 16 39  1  0
 17 40  1  0
 17 41  1  0
 17 42  1  0
M  END
>  <Binding energies>  (1) 
[-5.83]

>  <Ligand effiencies>  (1) 
[-0.3238888888888889]

>  <Interactions>  (1) 
["V-A:ILE:369:CG2:3237, V-A:ASP:366:CA:3210, V-A:GLY:454:CA:4049, H-A:GLU:543:OE2:4910, V-A:ILE:369:CB:3236, V-A:GLU:543:C:4902, V-B:GLU:543:CB:9878, V-B:TYR:539:CE2:9848, V-A:GLY:544:C:4912, V-A:ASP:366:CG:3213, V-B:TYR:539:CZ:9849, V-A:TYR:484:CZ:4347, V-A:GLU:543:CD:4908, V-B:HIS:456:CE1:9041, H-A:GLY:454:N:4050, V-A:ILE:369:CD1:3239, V-A:HIS:456:CE1:4070, V-A:ASP:366:C:3208, V-A:ASP:366:CB:3212, V-A:LEU:475:CD2:4259, H-A:ARG:545:NH2:4928, V-A:ARG:545:CZ:4926, V-A:GLU:543:CB:4906, H-A:ARG:545:NE:4924, H-A:TYR:484:OH:4348"]

$$$$
ZINC2356532641
     RDKit          3D

 63 66  0  0  0  0  0  0  0  0999 V2000
  133.1940  131.4730   61.3980 C   0  0  0  0  0  0  0  0  0  0  0  0
  132.7620  131.5010   59.9390 C   0  0  0  0  0  0  0  0  0  0  0  0
  133.5770  131.3670   59.0270 O   0  0  0  0  0  0  0  0  0  0  0  0
  131.4120  131.6940   59.8070 O   0  0  0  0  0  0  0  0  0  0  0  0
  130.5930  131.3510   58.6530 C   0  0  1  0  0  0  0  0  0  0  0  0
  129.9070  132.6720   58.1580 C   0  0  0  0  0  0  0  0  0  0  0  0
  128.7370  133.2470   58.9570 C   0  0  0  0  0  0  0  0  0  0  0  0
  130.2900  133.2620   57.1470 O   0  0  0  0  0  0  0  0  0  0  0  0
  131.4540  130.6510   57.5600 C   0  0  0  0  0  0  0  0  0  0  0  0
  131.4840  129.1640   57.9380 C   0  0  0  0  0  0  0  0  0  0  0  0
  130.5060  128.9760   59.1220 C   0  0  2  0  0  0  0  0  0  0  0  0
  129.7500  127.6070   59.1980 C   0  0  2  0  0  0  0  0  0  0  0  0
  130.7540  126.4260   59.1320 C   0  0  0  0  0  0  0  0  0  0  0  0
  130.0490  125.0640   59.1910 C   0  0  0  0  0  0  0  0  0  0  0  0
  129.0070  124.9390   58.0570 C   0  0  1  0  0  0  0  0  0  0  0  0
  128.3990  123.5140   57.9850 C   0  0  0  0  0  0  0  0  0  0  0  0
  127.3980  123.3490   56.8210 C   0  0  1  0  0  0  0  0  0  0  0  0
  126.7700  122.0850   56.8750 O   0  0  0  0  0  0  0  0  0  0  0  0
  126.3470  124.4800   56.7830 C   0  0  0  0  0  0  0  0  0  0  0  0
  126.9930  125.8780   56.9050 C   0  0  0  0  0  0  0  0  0  0  0  0
  127.9050  126.0550   58.1600 C   0  0  1  0  0  0  0  0  0  0  0  0
  127.0590  125.9170   59.4660 C   0  0  0  0  0  0  0  0  0  0  0  0
  128.6540  127.4500   58.0910 C   0  0  1  0  0  0  0  0  0  0  0  0
  127.6980  128.6720   58.1640 C   0  0  0  0  0  0  0  0  0  0  0  0
  128.4490  130.0010   58.0010 C   0  0  0  0  0  0  0  0  0  0  0  0
  129.5680  130.2260   59.0780 C   0  0  2  0  0  0  0  0  0  0  0  0
  128.9070  130.4690   60.4680 C   0  0  0  0  0  0  0  0  0  0  0  0
  132.3059  131.5306   62.0445 H   0  0  0  0  0  0  0  0  0  0  0  0
  133.7361  130.5378   61.6020 H   0  0  0  0  0  0  0  0  0  0  0  0
  133.8523  132.3304   61.6020 H   0  0  0  0  0  0  0  0  0  0  0  0
  128.9428  133.1459   60.0328 H   0  0  0  0  0  0  0  0  0  0  0  0
  128.6094  134.3105   58.7065 H   0  0  0  0  0  0  0  0  0  0  0  0
  127.8171  132.6983   58.7065 H   0  0  0  0  0  0  0  0  0  0  0  0
  130.9966  130.7848   56.5686 H   0  0  0  0  0  0  0  0  0  0  0  0
  132.4674  131.0759   57.5101 H   0  0  0  0  0  0  0  0  0  0  0  0
  131.1636  128.5507   57.0829 H   0  0  0  0  0  0  0  0  0  0  0  0
  132.5011  128.8512   58.2168 H   0  0  0  0  0  0  0  0  0  0  0  0
  131.0746  128.9171   60.0618 H   0  0  0  0  0  0  0  0  0  0  0  0
  129.2284  127.5914   60.1663 H   0  0  0  0  0  0  0  0  0  0  0  0
  131.3184  126.4926   58.1902 H   0  0  0  0  0  0  0  0  0  0  0  0
  131.4211  126.4998   60.0035 H   0  0  0  0  0  0  0  0  0  0  0  0
  130.7974  124.2650   59.0834 H   0  0  0  0  0  0  0  0  0  0  0  0
  129.5320  124.9749   60.1578 H   0  0  0  0  0  0  0  0  0  0  0  0
  129.5358  125.1005   57.1061 H   0  0  0  0  0  0  0  0  0  0  0  0
  129.2160  122.7896   57.8514 H   0  0  0  0  0  0  0  0  0  0  0  0
  127.8492  123.3406   58.9219 H   0  0  0  0  0  0  0  0  0  0  0  0
  127.9774  123.4167   55.8884 H   0  0  0  0  0  0  0  0  0  0  0  0
  127.0990  121.6150   57.6440 H   0  0  0  0  0  0  0  0  0  0  0  0
  125.8000  124.4240   55.8303 H   0  0  0  0  0  0  0  0  0  0  0  0
  125.6711  124.3432   57.6400 H   0  0  0  0  0  0  0  0  0  0  0  0
  127.6035  126.0553   56.0073 H   0  0  0  0  0  0  0  0  0  0  0  0
  126.1687  126.5988   57.0094 H   0  0  0  0  0  0  0  0  0  0  0  0
  127.7161  126.0242   60.3416 H   0  0  0  0  0  0  0  0  0  0  0  0
  126.2880  126.7012   59.4880 H   0  0  0  0  0  0  0  0  0  0  0  0
  126.5772  124.9284   59.4880 H   0  0  0  0  0  0  0  0  0  0  0  0
  129.1352  127.4415   57.1019 H   0  0  0  0  0  0  0  0  0  0  0  0
  126.9502  128.5861   57.3619 H   0  0  0  0  0  0  0  0  0  0  0  0
  127.2208  128.6710   59.1551 H   0  0  0  0  0  0  0  0  0  0  0  0
  128.9164  130.0166   57.0053 H   0  0  0  0  0  0  0  0  0  0  0  0
  127.7110  130.8066   58.1292 H   0  0  0  0  0  0  0  0  0  0  0  0
  129.6198  130.2070   61.2638 H   0  0  0  0  0  0  0  0  0  0  0  0
  128.6272  131.5288   60.5607 H   0  0  0  0  0  0  0  0  0  0  0  0
  128.0074  129.8428   60.5607 H   0  0  0  0  0  0  0  0  0  0  0  0
  1  2  1  0
  2  3  2  0
  2  4  1  0
  5  4  1  1
  5  6  1  0
  6  7  1  0
  6  8  2  0
  5  9  1  0
  9 10  1  0
 10 11  1  0
 11 12  1  0
 12 13  1  0
 13 14  1  0
 14 15  1  0
 15 16  1  0
 16 17  1  0
 17 18  1  0
 17 19  1  0
 19 20  1  0
 20 21  1  0
 21 22  1  1
 21 23  1  0
 23 24  1  0
 24 25  1  0
 25 26  1  0
 26 27  1  1
 26  5  1  0
 26 11  1  0
 23 12  1  0
 21 15  1  0
  1 28  1  0
  1 29  1  0
  1 30  1  0
  7 31  1  0
  7 32  1  0
  7 33  1  0
  9 34  1  0
  9 35  1  0
 10 36  1  0
 10 37  1  0
 11 38  1  1
 12 39  1  1
 13 40  1  0
 13 41  1  0
 14 42  1  0
 14 43  1  0
 15 44  1  6
 16 45  1  0
 16 46  1  0
 17 47  1  6
 18 48  1  0
 19 49  1  0
 19 50  1  0
 20 51  1  0
 20 52  1  0
 22 53  1  0
 22 54  1  0
 22 55  1  0
 23 56  1  6
 24 57  1  0
 24 58  1  0
 25 59  1  0
 25 60  1  0
 27 61  1  0
 27 62  1  0
 27 63  1  0
M  END
>  <Binding energies>  (1) 
[-7.48]

>  <Ligand effiencies>  (1) 
[-0.2671428571428572]

>  <Interactions>  (1) 
["V-B:TYR:539:CE1:9847, V-B:TYR:539:CE2:9848, H-B:TYR:539:N:9842, V-A:ASP:366:CG:3213, V-A:ASN:362:CB:3176, V-A:TYR:539:CD1:4873, V-B:TYR:539:CZ:9849, V-B:TYR:531:CZ:9766, V-B:TYR:539:CD2:9846, V-A:TYR:531:CZ:4794, V-A:TYR:539:C:4867, V-A:ASP:366:CB:3212, V-A:PRO:540:N:4884, V-A:TYR:539:CG:4872, H-A:TYR:539:N:4870, V-A:PRO:540:CB:4885, V-A:PRO:540:CA:4883, H-B:TYR:539:O:9840, V-B:MET:535:CE:9807, V-A:TYR:539:CE1:4875"]

$$$$
ZINC2356536680
     RDKit          3D

105109  0  0  0  0  0  0  0  0999 V2000
  126.8190  124.0260   61.2110 C   0  0  0  0  0  0  0  0  0  0  0  0
  127.3750  123.3700   60.1720 C   0  0  0  0  0  0  0  0  0  0  0  0
  128.4650  122.3260   60.4240 C   0  0  0  0  0  0  0  0  0  0  0  0
  129.8800  122.7390   59.9500 C   0  0  0  0  0  0  0  0  0  0  0  0
  130.3040  124.1890   60.3370 C   0  0  1  0  0  0  0  0  0  0  0  0
  131.8370  124.3070   60.4730 C   0  0  0  0  0  0  0  0  0  0  0  0
  132.5240  124.7490   59.5490 O   0  0  0  0  0  0  0  0  0  0  0  0
  132.2880  123.9310   61.7070 O   0  0  0  0  0  0  0  0  0  0  0  0
  131.8780  124.6980   62.8050 C   0  0  1  0  0  0  0  0  0  0  0  0
  130.6580  124.2000   63.3050 O   0  0  0  0  0  0  0  0  0  0  0  0
  130.1190  124.9580   64.3930 C   0  0  2  0  0  0  0  0  0  0  0  0
  129.6660  126.3780   63.9610 C   0  0  0  0  0  0  0  0  0  0  0  0
  129.3960  127.2060   65.0740 O   0  0  0  0  0  0  0  0  0  0  0  0
  131.0980  124.8740   65.5940 C   0  0  2  0  0  0  0  0  0  0  0  0
  130.6340  125.5820   66.7300 O   0  0  0  0  0  0  0  0  0  0  0  0
  132.5230  125.2980   65.1790 C   0  0  1  0  0  0  0  0  0  0  0  0
  133.4490  125.0810   66.2300 O   0  0  0  0  0  0  0  0  0  0  0  0
  132.9710  124.5770   63.8830 C   0  0  2  0  0  0  0  0  0  0  0  0
  134.2060  125.0910   63.4130 O   0  0  0  0  0  0  0  0  0  0  0  0
  129.5840  125.2690   59.4460 C   0  0  2  0  0  0  0  0  0  0  0  0
  129.7770  125.2070   57.9030 C   0  0  0  0  0  0  0  0  0  0  0  0
  129.9820  126.6610   57.4130 C   0  0  0  0  0  0  0  0  0  0  0  0
  130.5930  127.3890   58.6280 C   0  0  1  0  0  0  0  0  0  0  0  0
  132.1230  127.0580   58.6270 C   0  0  0  0  0  0  0  0  0  0  0  0
  130.5600  128.9330   58.6990 C   0  0  0  0  0  0  0  0  0  0  0  0
  130.5030  129.5790   59.9100 C   0  0  0  0  0  0  0  0  0  0  0  0
  130.4050  128.7840   61.2460 C   0  0  0  0  0  0  0  0  0  0  0  0
  130.3950  127.2360   61.1060 C   0  0  0  0  0  0  0  0  0  0  0  0
  129.7130  126.8000   59.7910 C   0  0  2  0  0  0  0  0  0  0  0  0
  128.2290  127.3300   59.8250 C   0  0  0  0  0  0  0  0  0  0  0  0
  130.6290  131.1260   60.0280 C   0  0  2  0  0  0  0  0  0  0  0  0
  132.1340  131.3940   60.3260 C   0  0  0  0  0  0  0  0  0  0  0  0
  129.8460  131.7630   61.2160 C   0  0  0  0  0  0  0  0  0  0  0  0
  128.3300  131.8200   60.9990 C   0  0  0  0  0  0  0  0  0  0  0  0
  127.9990  132.6990   59.7760 C   0  0  1  0  0  0  0  0  0  0  0  0
  128.3610  134.0460   60.0550 O   0  0  0  0  0  0  0  0  0  0  0  0
  128.6440  132.1460   58.4540 C   0  0  0  0  0  0  0  0  0  0  0  0
  127.8200  130.8920   58.0630 C   0  0  0  0  0  0  0  0  0  0  0  0
  128.4990  133.2270   57.3430 C   0  0  0  0  0  0  0  0  0  0  0  0
  130.1950  131.8460   58.6810 C   0  0  2  0  0  0  0  0  0  0  0  0
  130.9270  131.1850   57.4900 C   0  0  0  0  0  0  0  0  0  0  0  0
  130.6860  129.6710   57.3580 C   0  0  0  0  0  0  0  0  0  0  0  0
  126.9700  123.6050   58.7020 C   0  0  0  0  0  0  0  0  0  0  0  0
  125.4810  123.9490   58.4690 C   0  0  0  0  0  0  0  0  0  0  0  0
  127.4000  122.4620   57.7570 C   0  0  0  0  0  0  0  0  0  0  0  0
  126.0353  124.7768   61.0316 H   0  0  0  0  0  0  0  0  0  0  0  0
  127.1492  123.8103   62.2379 H   0  0  0  0  0  0  0  0  0  0  0  0
  128.5094  122.1316   61.5058 H   0  0  0  0  0  0  0  0  0  0  0  0
  128.1872  121.4392   59.8354 H   0  0  0  0  0  0  0  0  0  0  0  0
  130.6060  122.0410   60.3924 H   0  0  0  0  0  0  0  0  0  0  0  0
  129.8593  122.7063   58.8507 H   0  0  0  0  0  0  0  0  0  0  0  0
  129.9366  124.4219   61.3473 H   0  0  0  0  0  0  0  0  0  0  0  0
  131.7312  125.7487   62.5144 H   0  0  0  0  0  0  0  0  0  0  0  0
  129.1726  124.5198   64.7428 H   0  0  0  0  0  0  0  0  0  0  0  0
  130.4641  126.8386   63.3603 H   0  0  0  0  0  0  0  0  0  0  0  0
  128.7388  126.2775   63.3778 H   0  0  0  0  0  0  0  0  0  0  0  0
  130.2110  127.3400   65.5630 H   0  0  0  0  0  0  0  0  0  0  0  0
  131.1429  123.8186   65.9009 H   0  0  0  0  0  0  0  0  0  0  0  0
  130.7950  126.5190   66.5950 H   0  0  0  0  0  0  0  0  0  0  0  0
  132.4997  126.3775   64.9689 H   0  0  0  0  0  0  0  0  0  0  0  0
  132.9660  124.7680   66.9990 H   0  0  0  0  0  0  0  0  0  0  0  0
  133.1213  123.5117   64.1121 H   0  0  0  0  0  0  0  0  0  0  0  0
  134.0910  125.3760   62.5040 H   0  0  0  0  0  0  0  0  0  0  0  0
  128.5941  124.9012   59.7541 H   0  0  0  0  0  0  0  0  0  0  0  0
  130.6591  124.5977   57.6569 H   0  0  0  0  0  0  0  0  0  0  0  0
  128.9034  124.7486   57.4165 H   0  0  0  0  0  0  0  0  0  0  0  0
  130.6697  126.6899   56.5549 H   0  0  0  0  0  0  0  0  0  0  0  0
  129.0454  127.1258   57.0714 H   0  0  0  0  0  0  0  0  0  0  0  0
  132.4820  126.9803   59.6639 H   0  0  0  0  0  0  0  0  0  0  0  0
  132.2911  126.1027   58.1082 H   0  0  0  0  0  0  0  0  0  0  0  0
  132.6710  127.8584   58.1082 H   0  0  0  0  0  0  0  0  0  0  0  0
  131.2675  129.0620   61.8695 H   0  0  0  0  0  0  0  0  0  0  0  0
  129.4335  129.0531   61.6862 H   0  0  0  0  0  0  0  0  0  0  0  0
  131.4317  126.8682   61.1119 H   0  0  0  0  0  0  0  0  0  0  0  0
  129.8293  126.8131   61.9493 H   0  0  0  0  0  0  0  0  0  0  0  0
  127.9048  127.4458   60.8698 H   0  0  0  0  0  0  0  0  0  0  0  0
  128.1753  128.3029   59.3145 H   0  0  0  0  0  0  0  0  0  0  0  0
  127.5712  126.6112   59.3145 H   0  0  0  0  0  0  0  0  0  0  0  0
  132.2930  131.4223   61.4141 H   0  0  0  0  0  0  0  0  0  0  0  0
  132.7435  130.5903   59.8872 H   0  0  0  0  0  0  0  0  0  0  0  0
  132.4285  132.3587   59.8872 H   0  0  0  0  0  0  0  0  0  0  0  0
  130.0446  131.1690   62.1203 H   0  0  0  0  0  0  0  0  0  0  0  0
  130.1952  132.8019   61.3090 H   0  0  0  0  0  0  0  0  0  0  0  0
  127.9490  130.8023   60.8286 H   0  0  0  0  0  0  0  0  0  0  0  0
  127.8561  132.2543   61.8916 H   0  0  0  0  0  0  0  0  0  0  0  0
  126.9147  132.6681   59.5936 H   0  0  0  0  0  0  0  0  0  0  0  0
  129.2140  134.0460   60.4940 H   0  0  0  0  0  0  0  0  0  0  0  0
  127.4815  130.3769   58.9741 H   0  0  0  0  0  0  0  0  0  0  0  0
  126.9464  131.1980   57.4688 H   0  0  0  0  0  0  0  0  0  0  0  0
  128.4476  130.2115   57.4688 H   0  0  0  0  0  0  0  0  0  0  0  0
  128.3665  134.2151   57.8079 H   0  0  0  0  0  0  0  0  0  0  0  0
  129.4042  133.2342   56.7181 H   0  0  0  0  0  0  0  0  0  0  0  0
  127.6239  132.9954   56.7181 H   0  0  0  0  0  0  0  0  0  0  0  0
  130.5336  132.8881   58.7774 H   0  0  0  0  0  0  0  0  0  0  0  0
  130.5851  131.6700   56.5638 H   0  0  0  0  0  0  0  0  0  0  0  0
  132.0040  131.3173   57.6704 H   0  0  0  0  0  0  0  0  0  0  0  0
  129.7555  129.5181   56.7916 H   0  0  0  0  0  0  0  0  0  0  0  0
  131.5682  129.2542   56.8501 H   0  0  0  0  0  0  0  0  0  0  0  0
  127.5403  124.5099   58.4452 H   0  0  0  0  0  0  0  0  0  0  0  0
  124.9755  124.0658   59.4390 H   0  0  0  0  0  0  0  0  0  0  0  0
  125.4061  124.8881   57.9011 H   0  0  0  0  0  0  0  0  0  0  0  0
  125.0018  123.1379   57.9011 H   0  0  0  0  0  0  0  0  0  0  0  0
  127.7256  121.5965   58.3528 H   0  0  0  0  0  0  0  0  0  0  0  0
  126.5497  122.1714   57.1225 H   0  0  0  0  0  0  0  0  0  0  0  0
  128.2310  122.8039   57.1225 H   0  0  0  0  0  0  0  0  0  0  0  0
  1  2  2  0
  2  3  1  0
  3  4  1  0
  4  5  1  0
  5  6  1  0
  6  7  2  0
  6  8  1  0
  8  9  1  0
  9 10  1  0
 10 11  1  0
 11 12  1  0
 12 13  1  0
 11 14  1  0
 14 15  1  0
 14 16  1  0
 16 17  1  0
 16 18  1  0
 18 19  1  0
  5 20  1  0
 20 21  1  0
 21 22  1  0
 22 23  1  0
 23 24  1  1
 23 25  1  0
 25 26  2  0
 26 27  1  0
 27 28  1  0
 28 29  1  0
 29 30  1  1
 26 31  1  0
 31 32  1  1
 31 33  1  0
 33 34  1  0
 34 35  1  0
 35 36  1  0
 35 37  1  0
 37 38  1  0
 37 39  1  0
 37 40  1  0
 40 41  1  0
 41 42  1  0
  2 43  1  0
 43 44  1  0
 43 45  1  0
 18  9  1  0
 29 20  1  0
 40 31  1  0
 29 23  1  0
 42 25  1  0
  1 46  1  0
  1 47  1  0
  3 48  1  0
  3 49  1  0
  4 50  1  0
  4 51  1  0
  5 52  1  1
  9 53  1  6
 11 54  1  1
 12 55  1  0
 12 56  1  0
 13 57  1  0
 14 58  1  1
 15 59  1  0
 16 60  1  6
 17 61  1  0
 18 62  1  1
 19 63  1  0
 20 64  1  6
 21 65  1  0
 21 66  1  0
 22 67  1  0
 22 68  1  0
 24 69  1  0
 24 70  1  0
 24 71  1  0
 27 72  1  0
 27 73  1  0
 28 74  1  0
 28 75  1  0
 30 76  1  0
 30 77  1  0
 30 78  1  0
 32 79  1  0
 32 80  1  0
 32 81  1  0
 33 82  1  0
 33 83  1  0
 34 84  1  0
 34 85  1  0
 35 86  1  6
 36 87  1  0
 38 88  1  0
 38 89  1  0
 38 90  1  0
 39 91  1  0
 39 92  1  0
 39 93  1  0
 40 94  1  1
 41 95  1  0
 41 96  1  0
 42 97  1  0
 42 98  1  0
 43 99  1  0
 44100  1  0
 44101  1  0
 44102  1  0
 45103  1  0
 45104  1  0
 45105  1  0
M  END
>  <Binding energies>  (1) 
[-9.1]

>  <Ligand effiencies>  (1) 
[-0.182]

>  <Interactions>  (1) 
["V-B:PRO:540:CA:9855, H-A:GLU:543:OE2:4910, H-A:ARG:545:NH1:4927, V-B:TYR:539:CE2:9848, V-B:GLU:543:CG:9879, V-B:TYR:539:C:9839, V-A:ASP:366:CG:3213, V-A:TYR:539:CD1:4873, V-B:TYR:539:CZ:9849, V-A:TYR:539:CZ:4877, V-A:TYR:539:CA:4869, V-A:TYR:484:CZ:4347, V-B:PRO:540:CB:9857, V-A:GLU:543:CD:4908, H-A:GLY:454:N:4050, V-B:PRO:540:N:9856, V-B:TYR:539:CD2:9846, V-B:PRO:540:CD:9859, V-A:TYR:531:CZ:4794, V-B:GLU:543:CD:9880, V-A:TYR:539:C:4867, V-A:ASP:366:CB:3212, H-A:ARG:545:NH2:4928, V-A:ARG:545:CZ:4926, H-A:GLU:543:OE1:4909, V-B:TYR:539:CG:9844, H-A:ASP:366:OD1:3214, H-A:TYR:539:O:4868, V-A:TYR:539:CG:4872, V-A:PRO:540:CB:4885, V-A:PRO:540:CA:4883, H-A:ARG:545:NE:4924, V-A:TYR:539:CD2:4874, V-B:PRO:540:C:9853, V-A:TYR:539:CE1:4875, H-A:TYR:484:OH:4348"]

$$$$
ZINC2356539176
     RDKit          3D

 90 94  0  0  0  0  0  0  0  0999 V2000
  129.5540  120.4470   61.6570 C   0  0  0  0  0  0  0  0  0  0  0  0
  128.5620  121.4630   61.5910 O   0  0  0  0  0  0  0  0  0  0  0  0
  129.0700  122.7580   61.4950 C   0  0  2  0  0  0  0  0  0  0  0  0
  129.5240  123.2150   62.7390 O   0  0  0  0  0  0  0  0  0  0  0  0
  129.1240  124.5580   63.0020 C   0  0  1  0  0  0  0  0  0  0  0  0
  130.3580  125.3680   63.5040 C   0  0  1  0  0  0  0  0  0  0  0  0
  129.9700  126.7010   63.8130 O   0  0  0  0  0  0  0  0  0  0  0  0
  131.1700  124.7230   64.6820 C   0  0  0  0  0  0  0  0  0  0  0  0
  130.2430  124.1090   65.7560 C   0  0  0  0  0  0  0  0  0  0  0  0
  132.1700  123.6500   64.1850 C   0  0  0  0  0  0  0  0  0  0  0  0
  131.9380  125.7110   65.3440 O   0  0  0  0  0  0  0  0  0  0  0  0
  128.4740  124.9980   61.6870 C   0  0  0  0  0  0  0  0  0  0  0  0
  127.9240  123.6990   61.1090 C   0  0  1  0  0  0  0  0  0  0  0  0
  127.5630  123.6580   59.5830 C   0  0  2  0  0  0  0  0  0  0  0  0
  128.7200  123.2250   58.6690 C   0  0  0  0  0  0  0  0  0  0  0  0
  129.1850  124.5260   58.0680 C   0  0  0  0  0  0  0  0  0  0  0  0
  128.3000  125.5270   58.2550 C   0  0  0  0  0  0  0  0  0  0  0  0
  128.3850  127.0100   57.7900 C   0  0  1  0  0  0  0  0  0  0  0  0
  127.5980  127.0900   56.4440 C   0  0  0  0  0  0  0  0  0  0  0  0
  127.8000  127.9260   58.9440 C   0  0  2  0  0  0  0  0  0  0  0  0
  126.3800  127.4490   59.3590 C   0  0  0  0  0  0  0  0  0  0  0  0
  126.4430  126.0300   59.9360 C   0  0  0  0  0  0  0  0  0  0  0  0
  127.0270  124.9810   58.9410 C   0  0  2  0  0  0  0  0  0  0  0  0
  125.9450  124.6210   57.8840 C   0  0  0  0  0  0  0  0  0  0  0  0
  127.9580  129.4880   58.7190 C   0  0  1  0  0  0  0  0  0  0  0  0
  126.9830  130.0220   57.6280 C   0  0  0  0  0  0  0  0  0  0  0  0
  127.6280  130.2860   59.9890 C   0  0  0  0  0  0  0  0  0  0  0  0
  128.1760  131.4720   60.3140 C   0  0  0  0  0  0  0  0  0  0  0  0
  129.1540  132.1620   59.4820 C   0  0  0  0  0  0  0  0  0  0  0  0
  129.4020  133.3490   59.6990 O   0  0  0  0  0  0  0  0  0  0  0  0
  129.9060  131.3290   58.3960 C   0  0  0  0  0  0  0  0  0  0  0  0
  129.6360  132.0040   57.0220 C   0  0  0  0  0  0  0  0  0  0  0  0
  131.4150  131.4370   58.7660 C   0  0  0  0  0  0  0  0  0  0  0  0
  129.4800  129.8020   58.4300 C   0  0  2  0  0  0  0  0  0  0  0  0
  130.0040  128.9600   57.2400 C   0  0  0  0  0  0  0  0  0  0  0  0
  129.8700  127.4390   57.5100 C   0  0  1  0  0  0  0  0  0  0  0  0
  130.7250  127.0560   58.5990 O   0  0  0  0  0  0  0  0  0  0  0  0
  131.7940  126.2470   58.4210 C   0  0  0  0  0  0  0  0  0  0  0  0
  132.1080  125.4240   59.6630 C   0  0  0  0  0  0  0  0  0  0  0  0
  132.4670  126.1410   57.3940 O   0  0  0  0  0  0  0  0  0  0  0  0
  129.7762  120.2194   62.7100 H   0  0  0  0  0  0  0  0  0  0  0  0
  129.1841  119.5403   61.1560 H   0  0  0  0  0  0  0  0  0  0  0  0
  130.4693  120.7952   61.1560 H   0  0  0  0  0  0  0  0  0  0  0  0
  129.8898  122.7459   60.7617 H   0  0  0  0  0  0  0  0  0  0  0  0
  128.3961  124.7099   63.8126 H   0  0  0  0  0  0  0  0  0  0  0  0
  131.0688  125.3593   62.6645 H   0  0  0  0  0  0  0  0  0  0  0  0
  130.6910  127.1280   64.2810 H   0  0  0  0  0  0  0  0  0  0  0  0
  130.6238  124.3612   66.7567 H   0  0  0  0  0  0  0  0  0  0  0  0
  129.2268  124.5132   65.6378 H   0  0  0  0  0  0  0  0  0  0  0  0
  130.2187  123.0156   65.6378 H   0  0  0  0  0  0  0  0  0  0  0  0
  132.6337  123.1525   65.0496 H   0  0  0  0  0  0  0  0  0  0  0  0
  131.6363  122.9054   63.5762 H   0  0  0  0  0  0  0  0  0  0  0  0
  132.9503  124.1300   63.5762 H   0  0  0  0  0  0  0  0  0  0  0  0
  131.4110  126.5100   65.4160 H   0  0  0  0  0  0  0  0  0  0  0  0
  127.6648  125.7201   61.8708 H   0  0  0  0  0  0  0  0  0  0  0  0
  129.1778  125.5039   61.0097 H   0  0  0  0  0  0  0  0  0  0  0  0
  126.9238  123.4578   61.4981 H   0  0  0  0  0  0  0  0  0  0  0  0
  126.7542  122.9135   59.6236 H   0  0  0  0  0  0  0  0  0  0  0  0
  129.5240  122.7480   59.2486 H   0  0  0  0  0  0  0  0  0  0  0  0
  128.4208  122.4824   57.9147 H   0  0  0  0  0  0  0  0  0  0  0  0
  130.1401  124.6464   57.5358 H   0  0  0  0  0  0  0  0  0  0  0  0
  126.5236  127.1992   56.6534 H   0  0  0  0  0  0  0  0  0  0  0  0
  127.9488  127.9571   55.8651 H   0  0  0  0  0  0  0  0  0  0  0  0
  127.7671  126.1700   55.8651 H   0  0  0  0  0  0  0  0  0  0  0  0
  128.4474  127.7802   59.8213 H   0  0  0  0  0  0  0  0  0  0  0  0
  125.9755  128.1326   60.1200 H   0  0  0  0  0  0  0  0  0  0  0  0
  125.7299  127.4460   58.4716 H   0  0  0  0  0  0  0  0  0  0  0  0
  127.0761  126.0473   60.8354 H   0  0  0  0  0  0  0  0  0  0  0  0
  125.4101  125.7248   60.1597 H   0  0  0  0  0  0  0  0  0  0  0  0
  125.0209  124.3135   58.3953 H   0  0  0  0  0  0  0  0  0  0  0  0
  125.7408  125.4996   57.2544 H   0  0  0  0  0  0  0  0  0  0  0  0
  126.3079  123.7952   57.2544 H   0  0  0  0  0  0  0  0  0  0  0  0
  126.1164  130.4967   58.1114 H   0  0  0  0  0  0  0  0  0  0  0  0
  127.5035  130.7610   57.0011 H   0  0  0  0  0  0  0  0  0  0  0  0
  126.6406  129.1855   57.0011 H   0  0  0  0  0  0  0  0  0  0  0  0
  126.8904  129.8575   60.6835 H   0  0  0  0  0  0  0  0  0  0  0  0
  127.8692  131.9458   61.2581 H   0  0  0  0  0  0  0  0  0  0  0  0
  129.2319  133.0143   57.1829 H   0  0  0  0  0  0  0  0  0  0  0  0
  130.5764  132.0712   56.4554 H   0  0  0  0  0  0  0  0  0  0  0  0
  128.9086  131.4041   56.4554 H   0  0  0  0  0  0  0  0  0  0  0  0
  131.5245  131.4448   59.8605 H   0  0  0  0  0  0  0  0  0  0  0  0
  131.9573  130.5754   58.3494 H   0  0  0  0  0  0  0  0  0  0  0  0
  131.8290  132.3671   58.3494 H   0  0  0  0  0  0  0  0  0  0  0  0
  130.0110  129.4726   59.3353 H   0  0  0  0  0  0  0  0  0  0  0  0
  129.4243  129.2147   56.3406 H   0  0  0  0  0  0  0  0  0  0  0  0
  131.0704  129.1906   57.1003 H   0  0  0  0  0  0  0  0  0  0  0  0
  130.1856  126.9111   56.5980 H   0  0  0  0  0  0  0  0  0  0  0  0
  131.8821  126.0162   60.5620 H   0  0  0  0  0  0  0  0  0  0  0  0
  131.4952  124.5105   59.6621 H   0  0  0  0  0  0  0  0  0  0  0  0
  133.1735  125.1508   59.6621 H   0  0  0  0  0  0  0  0  0  0  0  0
  1  2  1  0
  2  3  1  0
  3  4  1  0
  4  5  1  0
  5  6  1  0
  6  7  1  0
  6  8  1  0
  8  9  1  0
  8 10  1  0
  8 11  1  0
  5 12  1  0
 12 13  1  0
 13 14  1  0
 14 15  1  0
 15 16  1  0
 16 17  2  0
 17 18  1  0
 18 19  1  6
 18 20  1  0
 20 21  1  0
 21 22  1  0
 22 23  1  0
 23 24  1  6
 20 25  1  0
 25 26  1  6
 25 27  1  0
 27 28  2  0
 28 29  1  0
 29 30  2  0
 29 31  1  0
 31 32  1  0
 31 33  1  0
 31 34  1  0
 34 35  1  0
 35 36  1  0
 36 37  1  0
 37 38  1  0
 38 39  1  0
 38 40  2  0
 13  3  1  0
 23 14  1  0
 34 25  1  0
 23 17  1  0
 36 18  1  0
  1 41  1  0
  1 42  1  0
  1 43  1  0
  3 44  1  6
  5 45  1  1
  6 46  1  6
  7 47  1  0
  9 48  1  0
  9 49  1  0
  9 50  1  0
 10 51  1  0
 10 52  1  0
 10 53  1  0
 11 54  1  0
 12 55  1  0
 12 56  1  0
 13 57  1  1
 14 58  1  1
 15 59  1  0
 15 60  1  0
 16 61  1  0
 19 62  1  0
 19 63  1  0
 19 64  1  0
 20 65  1  1
 21 66  1  0
 21 67  1  0
 22 68  1  0
 22 69  1  0
 24 70  1  0
 24 71  1  0
 24 72  1  0
 26 73  1  0
 26 74  1  0
 26 75  1  0
 27 76  1  0
 28 77  1  0
 32 78  1  0
 32 79  1  0
 32 80  1  0
 33 81  1  0
 33 82  1  0
 33 83  1  0
 34 84  1  1
 35 85  1  0
 35 86  1  0
 36 87  1  6
 39 88  1  0
 39 89  1  0
 39 90  1  0
M  END
>  <Binding energies>  (1) 
[-8.26]

>  <Ligand effiencies>  (1) 
[-0.19666666666666666]

>  <Interactions>  (1) 
["V-B:PRO:540:CA:9855, H-A:GLU:543:OE2:4910, V-B:ALA:541:CB:9864, V-B:ASP:366:CG:8184, H-A:TYR:531:OH:4795, V-B:TYR:539:CE2:9848, V-A:TYR:484:CE2:4346, V-B:GLU:543:CG:9879, V-A:ASP:366:CG:3213, V-B:TYR:539:CZ:9849, V-B:TYR:531:CZ:9766, H-B:TYR:539:OH:9850, H-B:ALA:541:N:9863, V-A:TYR:484:CZ:4347, V-B:TYR:539:CD2:9846, V-B:GLU:543:CD:9880, V-A:MET:535:CE:4835, V-A:ASP:366:CB:3212, V-A:LEU:475:CD2:4259, H-A:ARG:545:NH2:4928, H-A:GLU:543:OE1:4909, V-A:PRO:540:CB:4885, V-A:PRO:540:CA:4883, H-A:ARG:545:NE:4924, V-B:PRO:540:C:9853, H-A:TYR:484:OH:4348"]

$$$$
ZINC2356543096
     RDKit          3D

 43 45  0  0  0  0  0  0  0  0999 V2000
  130.3470  125.7830   64.5990 C   0  0  0  0  0  0  0  0  0  0  0  0
  131.4560  124.7640   64.9470 C   0  0  0  0  0  0  0  0  0  0  0  0
  132.5500  125.4670   65.7940 C   0  0  0  0  0  0  0  0  0  0  0  0
  131.9770  123.9330   63.7080 C   0  0  2  0  0  0  0  0  0  0  0  0
  132.5710  122.7740   64.2610 O   0  0  0  0  0  0  0  0  0  0  0  0
  133.1020  124.7480   62.9360 C   0  0  0  0  0  0  0  0  0  0  0  0
  134.0890  124.0490   61.9320 C   0  0  0  0  0  0  0  0  0  0  0  0
  133.5090  122.8500   61.1580 C   0  0  2  0  0  0  0  0  0  0  0  0
  133.9680  121.4560   61.6510 C   0  0  0  0  0  0  0  0  0  0  0  0
  133.0800  122.7860   59.8190 O   0  0  0  0  0  0  0  0  0  0  0  0
  132.1200  123.2630   60.7050 C   0  0  1  0  0  0  0  0  0  0  0  0
  131.0940  122.5430   61.5880 C   0  0  2  0  0  0  0  0  0  0  0  0
  129.7190  122.1790   61.0000 C   0  0  2  0  0  0  0  0  0  0  0  0
  129.1760  123.1620   59.9410 C   0  0  0  0  0  0  0  0  0  0  0  0
  128.8180  122.0840   62.2540 C   0  0  0  0  0  0  0  0  0  0  0  0
  129.5660  122.7760   63.4150 C   0  0  0  0  0  0  0  0  0  0  0  0
  130.7730  123.4840   62.7750 C   0  0  1  0  0  0  0  0  0  0  0  0
  129.9120  126.1827   65.5269 H   0  0  0  0  0  0  0  0  0  0  0  0
  130.7776  126.6071   64.0112 H   0  0  0  0  0  0  0  0  0  0  0  0
  129.5622  125.2844   64.0112 H   0  0  0  0  0  0  0  0  0  0  0  0
  131.0263  123.9696   65.5749 H   0  0  0  0  0  0  0  0  0  0  0  0
  132.3323  125.3271   66.8631 H   0  0  0  0  0  0  0  0  0  0  0  0
  133.5321  125.0305   65.5596 H   0  0  0  0  0  0  0  0  0  0  0  0
  132.5610  126.5417   65.5596 H   0  0  0  0  0  0  0  0  0  0  0  0
  132.3910  122.7640   65.2040 H   0  0  0  0  0  0  0  0  0  0  0  0
  132.5799  125.5285   62.3630 H   0  0  0  0  0  0  0  0  0  0  0  0
  133.7744  125.0487   63.7530 H   0  0  0  0  0  0  0  0  0  0  0  0
  134.4144  124.8008   61.1979 H   0  0  0  0  0  0  0  0  0  0  0  0
  134.9077  123.6448   62.5455 H   0  0  0  0  0  0  0  0  0  0  0  0
  133.9734  121.4395   62.7509 H   0  0  0  0  0  0  0  0  0  0  0  0
  133.2753  120.6881   61.2762 H   0  0  0  0  0  0  0  0  0  0  0  0
  134.9814  121.2499   61.2762 H   0  0  0  0  0  0  0  0  0  0  0  0
  131.4110  124.0846   60.5253 H   0  0  0  0  0  0  0  0  0  0  0  0
  131.5862  121.5838   61.8063 H   0  0  0  0  0  0  0  0  0  0  0  0
  129.7659  121.2466   60.4183 H   0  0  0  0  0  0  0  0  0  0  0  0
  128.7030  124.0183   60.4440 H   0  0  0  0  0  0  0  0  0  0  0  0
  130.0052  123.5184   59.3122 H   0  0  0  0  0  0  0  0  0  0  0  0
  128.4329  122.6498   59.3122 H   0  0  0  0  0  0  0  0  0  0  0  0
  127.8603  122.5922   62.0680 H   0  0  0  0  0  0  0  0  0  0  0  0
  128.6060  121.0332   62.5007 H   0  0  0  0  0  0  0  0  0  0  0  0
  128.9110  123.5081   63.9100 H   0  0  0  0  0  0  0  0  0  0  0  0
  129.8813  122.0524   64.1811 H   0  0  0  0  0  0  0  0  0  0  0  0
  130.5358  124.5123   62.4648 H   0  0  0  0  0  0  0  0  0  0  0  0
  1  2  1  0
  2  3  1  0
  2  4  1  0
  4  5  1  1
  4  6  1  0
  6  7  1  0
  7  8  1  0
  8  9  1  1
  8 10  1  0
 10 11  1  0
 11 12  1  0
 12 13  1  0
 13 14  1  0
 13 15  1  0
 15 16  1  0
 16 17  1  0
 17  4  1  0
 11  8  1  0
 17 12  1  0
  1 18  1  0
  1 19  1  0
  1 20  1  0
  2 21  1  0
  3 22  1  0
  3 23  1  0
  3 24  1  0
  5 25  1  0
  6 26  1  0
  6 27  1  0
  7 28  1  0
  7 29  1  0
  9 30  1  0
  9 31  1  0
  9 32  1  0
 11 33  1  6
 12 34  1  1
 13 35  1  6
 14 36  1  0
 14 37  1  0
 14 38  1  0
 15 39  1  0
 15 40  1  0
 16 41  1  0
 16 42  1  0
 17 43  1  6
M  END
>  <Binding energies>  (1) 
[-4.54]

>  <Ligand effiencies>  (1) 
[-0.227]

>  <Interactions>  (1) 
["V-A:ILE:369:CG2:3237, V-A:ILE:369:CD1:3239, V-B:TYR:539:CD2:9846, V-A:SER:385:CB:3409, V-A:SER:385:CA:3407, V-A:ARG:545:CZ:4926, V-B:ALA:541:CB:9864, V-B:TYR:539:CE2:9848, V-A:GLU:543:CD:4908, V-B:ALA:541:CA:9862, V-A:ARG:545:CD:4923, V-A:LEU:475:CD2:4259, V-B:GLU:543:CG:9879, H-A:GLY:454:N:4050, V-A:SER:385:C:3405, H-A:TYR:484:OH:4348"]

$$$$
ZINC2356544189
     RDKit          3D

 90 95  0  0  0  0  0  0  0  0999 V2000
  131.0810  124.1470   63.3370 C   0  0  0  0  0  0  0  0  0  0  0  0
  132.5840  124.0900   63.1030 C   0  0  0  0  0  0  0  0  0  0  0  0
  133.2980  124.3920   61.9910 C   0  0  0  0  0  0  0  0  0  0  0  0
  134.8250  124.3120   61.9960 C   0  0  0  0  0  0  0  0  0  0  0  0
  132.6680  124.7930   60.7140 C   0  0  0  0  0  0  0  0  0  0  0  0
  133.1820  124.5940   59.6100 O   0  0  0  0  0  0  0  0  0  0  0  0
  131.4700  125.4170   60.8800 O   0  0  0  0  0  0  0  0  0  0  0  0
  130.7860  126.0590   59.8000 C   0  0  2  0  0  0  0  0  0  0  0  0
  130.6420  127.6140   59.9100 C   0  0  2  0  0  0  0  0  0  0  0  0
  129.8160  128.0120   61.0120 O   0  0  0  0  0  0  0  0  0  0  0  0
  129.9960  127.6050   62.2900 C   0  0  0  0  0  0  0  0  0  0  0  0
  128.7570  127.8380   63.1430 C   0  0  0  0  0  0  0  0  0  0  0  0
  131.0240  127.1340   62.7730 O   0  0  0  0  0  0  0  0  0  0  0  0
  130.0950  128.2190   58.5450 C   0  0  2  0  0  0  0  0  0  0  0  0
  130.2000  129.8220   58.3710 C   0  0  2  0  0  0  0  0  0  0  0  0
  130.6140  130.0690   56.8760 C   0  0  0  0  0  0  0  0  0  0  0  0
  131.3430  130.4580   59.2690 C   0  0  2  0  0  0  0  0  0  0  0  0
  131.2830  130.1540   60.6670 O   0  0  0  0  0  0  0  0  0  0  0  0
  131.6480  131.0620   61.6200 C   0  0  0  0  0  0  0  0  0  0  0  0
  133.1520  131.0920   61.8630 C   0  0  0  0  0  0  0  0  0  0  0  0
  130.8900  131.7970   62.2500 O   0  0  0  0  0  0  0  0  0  0  0  0
  131.5650  131.9940   59.1100 C   0  0  0  0  0  0  0  0  0  0  0  0
  130.7910  132.6610   57.9670 C   0  0  0  0  0  0  0  0  0  0  0  0
  131.3390  132.9200   56.8980 O   0  0  0  0  0  0  0  0  0  0  0  0
  129.4690  132.8930   58.1290 O   0  0  0  0  0  0  0  0  0  0  0  0
  128.6570  132.0380   58.9560 C   0  0  0  0  0  0  0  0  0  0  0  0
  128.7850  132.3770   60.4780 C   0  0  0  0  0  0  0  0  0  0  0  0
  127.2440  132.5490   58.5510 C   0  0  0  0  0  0  0  0  0  0  0  0
  128.7720  130.4970   58.5890 C   0  0  2  0  0  0  0  0  0  0  0  0
  127.7620  129.6380   59.4160 C   0  0  0  0  0  0  0  0  0  0  0  0
  127.5630  128.1780   58.9510 C   0  0  0  0  0  0  0  0  0  0  0  0
  126.5360  127.5620   59.2350 O   0  0  0  0  0  0  0  0  0  0  0  0
  128.7020  127.5480   58.1100 C   0  0  1  0  0  0  0  0  0  0  0  0
  128.2590  127.8570   56.6350 C   0  0  0  0  0  0  0  0  0  0  0  0
  128.8140  125.9760   58.3200 C   0  0  2  0  0  0  0  0  0  0  0  0
  129.4010  125.4740   57.1280 O   0  0  0  0  0  0  0  0  0  0  0  0
  128.1730  124.9060   57.4970 C   0  0  1  0  0  0  0  0  0  0  0  0
  128.4490  123.5540   58.1670 C   0  0  0  0  0  0  0  0  0  0  0  0
  129.5960  123.8190   59.1690 C   0  0  2  0  0  0  0  0  0  0  0  0
  129.7510  122.7730   60.2700 C   0  0  0  0  0  0  0  0  0  0  0  0
  128.7550  122.2790   61.1230 C   0  0  0  0  0  0  0  0  0  0  0  0
  129.3290  121.3450   61.9660 C   0  0  0  0  0  0  0  0  0  0  0  0
  130.6500  121.2370   61.6940 O   0  0  0  0  0  0  0  0  0  0  0  0
  130.9020  122.1030   60.6800 C   0  0  0  0  0  0  0  0  0  0  0  0
  129.4320  125.3240   59.5860 C   0  0  1  0  0  0  0  0  0  0  0  0
  128.4430  125.4050   60.7890 C   0  0  0  0  0  0  0  0  0  0  0  0
  130.8783  124.1547   64.4181 H   0  0  0  0  0  0  0  0  0  0  0  0
  130.6733  125.0613   62.8810 H   0  0  0  0  0  0  0  0  0  0  0  0
  130.6053  123.2663   62.8810 H   0  0  0  0  0  0  0  0  0  0  0  0
  133.1794  123.7536   63.9646 H   0  0  0  0  0  0  0  0  0  0  0  0
  135.1878  124.2930   63.0343 H   0  0  0  0  0  0  0  0  0  0  0  0
  135.1459  123.3958   61.4787 H   0  0  0  0  0  0  0  0  0  0  0  0
  135.2398  125.1896   61.4787 H   0  0  0  0  0  0  0  0  0  0  0  0
  131.4171  125.9652   58.9040 H   0  0  0  0  0  0  0  0  0  0  0  0
  131.6457  128.0202   60.1039 H   0  0  0  0  0  0  0  0  0  0  0  0
  129.0297  127.7867   64.2074 H   0  0  0  0  0  0  0  0  0  0  0  0
  128.3390  128.8305   62.9190 H   0  0  0  0  0  0  0  0  0  0  0  0
  128.0070  127.0652   62.9190 H   0  0  0  0  0  0  0  0  0  0  0  0
  130.8242  127.9106   57.7814 H   0  0  0  0  0  0  0  0  0  0  0  0
  131.5583  130.6324   56.8453 H   0  0  0  0  0  0  0  0  0  0  0  0
  130.7470  129.1025   56.3679 H   0  0  0  0  0  0  0  0  0  0  0  0
  129.8266  130.6451   56.3679 H   0  0  0  0  0  0  0  0  0  0  0  0
  132.2109  129.9381   58.8373 H   0  0  0  0  0  0  0  0  0  0  0  0
  133.3485  131.0959   62.9453 H   0  0  0  0  0  0  0  0  0  0  0  0
  133.6145  130.2029   61.4096 H   0  0  0  0  0  0  0  0  0  0  0  0
  133.5787  131.9988   61.4096 H   0  0  0  0  0  0  0  0  0  0  0  0
  131.2638  132.4785   60.0505 H   0  0  0  0  0  0  0  0  0  0  0  0
  132.6301  132.1201   58.8656 H   0  0  0  0  0  0  0  0  0  0  0  0
  128.4586  131.5126   61.0749 H   0  0  0  0  0  0  0  0  0  0  0  0
  129.8334  132.6111   60.7146 H   0  0  0  0  0  0  0  0  0  0  0  0
  128.1529  133.2456   60.7146 H   0  0  0  0  0  0  0  0  0  0  0  0
  126.6573  132.7612   59.4569 H   0  0  0  0  0  0  0  0  0  0  0  0
  127.3434  133.4681   57.9549 H   0  0  0  0  0  0  0  0  0  0  0  0
  126.7325  131.7789   57.9549 H   0  0  0  0  0  0  0  0  0  0  0  0
  128.4719  130.5018   57.5307 H   0  0  0  0  0  0  0  0  0  0  0  0
  128.1173  129.6127   60.4567 H   0  0  0  0  0  0  0  0  0  0  0  0
  126.7846  130.1243   59.2812 H   0  0  0  0  0  0  0  0  0  0  0  0
  127.3569  128.4863   56.6473 H   0  0  0  0  0  0  0  0  0  0  0  0
  129.0688  128.3872   56.1124 H   0  0  0  0  0  0  0  0  0  0  0  0
  128.0411  126.9139   56.1124 H   0  0  0  0  0  0  0  0  0  0  0  0
  127.1947  124.7481   57.0196 H   0  0  0  0  0  0  0  0  0  0  0  0
  127.5526  123.1956   58.6942 H   0  0  0  0  0  0  0  0  0  0  0  0
  128.7180  122.7807   57.4324 H   0  0  0  0  0  0  0  0  0  0  0  0
  130.5897  123.6832   58.7172 H   0  0  0  0  0  0  0  0  0  0  0  0
  127.6976  122.5822   61.1222 H   0  0  0  0  0  0  0  0  0  0  0  0
  128.7930  120.7763   62.7401 H   0  0  0  0  0  0  0  0  0  0  0  0
  131.8960  122.2576   60.2349 H   0  0  0  0  0  0  0  0  0  0  0  0
  129.0078  125.3587   61.7318 H   0  0  0  0  0  0  0  0  0  0  0  0
  127.8851  126.3518   60.7419 H   0  0  0  0  0  0  0  0  0  0  0  0
  127.7385  124.5616   60.7419 H   0  0  0  0  0  0  0  0  0  0  0  0
  1  2  1  0
  2  3  2  0
  3  4  1  0
  3  5  1  0
  5  6  2  0
  5  7  1  0
  7  8  1  0
  8  9  1  0
  9 10  1  0
 10 11  1  0
 11 12  1  0
 11 13  2  0
  9 14  1  0
 14 15  1  0
 15 16  1  6
 15 17  1  0
 17 18  1  0
 18 19  1  0
 19 20  1  0
 19 21  2  0
 17 22  1  0
 22 23  1  0
 23 24  2  0
 23 25  1  0
 25 26  1  0
 26 27  1  0
 26 28  1  0
 26 29  1  0
 29 30  1  0
 30 31  1  0
 31 32  2  0
 31 33  1  0
 33 34  1  6
 33 35  1  0
 35 36  1  6
 36 37  1  0
 37 38  1  0
 38 39  1  0
 39 40  1  0
 40 41  1  0
 41 42  2  0
 42 43  1  0
 43 44  1  0
 39 45  1  0
 45 46  1  1
 45  8  1  0
 33 14  1  0
 37 35  1  0
 44 40  2  0
 29 15  1  0
 45 35  1  0
  1 47  1  0
  1 48  1  0
  1 49  1  0
  2 50  1  0
  4 51  1  0
  4 52  1  0
  4 53  1  0
  8 54  1  6
  9 55  1  1
 12 56  1  0
 12 57  1  0
 12 58  1  0
 14 59  1  6
 16 60  1  0
 16 61  1  0
 16 62  1  0
 17 63  1  6
 20 64  1  0
 20 65  1  0
 20 66  1  0
 22 67  1  0
 22 68  1  0
 27 69  1  0
 27 70  1  0
 27 71  1  0
 28 72  1  0
 28 73  1  0
 28 74  1  0
 29 75  1  6
 30 76  1  0
 30 77  1  0
 34 78  1  0
 34 79  1  0
 34 80  1  0
 37 81  1  6
 38 82  1  0
 38 83  1  0
 39 84  1  6
 41 85  1  0
 42 86  1  0
 44 87  1  0
 46 88  1  0
 46 89  1  0
 46 90  1  0
M  END
>  <Binding energies>  (1) 
[-5.52]

>  <Ligand effiencies>  (1) 
[-0.11499999999999999]

>  <Interactions>  (1) 
["V-B:PRO:540:CA:9855, H-A:ALA:541:N:4891, V-B:ALA:541:CB:9864, V-B:TYR:539:CE2:9848, V-A:ASP:366:CG:3213, V-A:ASN:362:CB:3176, V-A:TYR:539:CD1:4873, V-B:TYR:539:CZ:9849, V-A:TYR:539:CZ:4877, H-B:TYR:539:OH:9850, V-A:GLU:543:CD:4908, V-A:GLY:453:C:4042, V-A:ILE:369:CD1:3239, V-B:TYR:539:CD2:9846, V-A:TYR:531:CZ:4794, V-A:MET:535:CE:4835, V-B:GLU:543:CD:9880, V-A:TYR:539:C:4867, V-A:LEU:475:CD2:4259, H-A:ARG:545:NH2:4928, V-A:PRO:540:N:4884, H-A:TYR:539:N:4870, V-A:GLY:453:CA:4044, V-A:PRO:540:CB:4885, V-A:PRO:540:CA:4883, V-A:PRO:540:CD:4887, V-A:TYR:539:CE1:4875"]

$$$$
ZINC2356547115
     RDKit          3D

 36 36  0  0  0  0  0  0  0  0999 V2000
  133.9760  124.2510   58.3480 C   0  0  0  0  0  0  0  0  0  0  0  0
  133.3410  124.5240   59.6960 C   0  0  0  0  0  0  0  0  0  0  0  0
  133.8720  124.1590   60.8750 C   0  0  0  0  0  0  0  0  0  0  0  0
  133.2610  124.4250   62.1370 C   0  0  0  0  0  0  0  0  0  0  0  0
  132.8010  124.6600   63.2440 C   0  0  0  0  0  0  0  0  0  0  0  0
  132.2760  124.9200   64.4760 C   0  0  0  0  0  0  0  0  0  0  0  0
  131.7980  125.1470   65.5770 C   0  0  0  0  0  0  0  0  0  0  0  0
  131.2740  125.4860   66.8590 C   0  0  0  0  0  0  0  0  0  0  0  0
  129.9900  125.8240   67.0780 C   0  0  0  0  0  0  0  0  0  0  0  0
  129.4780  126.1680   68.3900 C   0  0  0  0  0  0  0  0  0  0  0  0
  129.3620  127.4360   68.8220 C   0  0  0  0  0  0  0  0  0  0  0  0
  128.8320  127.8390   70.1860 C   0  0  1  0  0  0  0  0  0  0  0  0
  128.3020  126.6010   70.9370 C   0  0  0  0  0  0  0  0  0  0  0  0
  127.9080  126.9770   72.3710 C   0  0  0  0  0  0  0  0  0  0  0  0
  129.0500  127.7380   73.0660 C   0  0  0  0  0  0  0  0  0  0  0  0
  129.5230  128.9110   72.1920 C   0  0  1  0  0  0  0  0  0  0  0  0
  130.5960  129.4780   72.8270 O   0  0  0  0  0  0  0  0  0  0  0  0
  129.9070  128.4330   70.9260 O   0  0  0  0  0  0  0  0  0  0  0  0
  134.9775  123.8204   58.4949 H   0  0  0  0  0  0  0  0  0  0  0  0
  133.3511  123.5420   57.7851 H   0  0  0  0  0  0  0  0  0  0  0  0
  134.0605  125.1923   57.7851 H   0  0  0  0  0  0  0  0  0  0  0  0
  132.3792  125.0577   59.7106 H   0  0  0  0  0  0  0  0  0  0  0  0
  134.8332  123.6242   60.8671 H   0  0  0  0  0  0  0  0  0  0  0  0
  131.9594  125.4703   67.7193 H   0  0  0  0  0  0  0  0  0  0  0  0
  129.2979  125.8400   66.2232 H   0  0  0  0  0  0  0  0  0  0  0  0
  129.1703  125.3542   69.0630 H   0  0  0  0  0  0  0  0  0  0  0  0
  129.6736  128.2390   68.1378 H   0  0  0  0  0  0  0  0  0  0  0  0
  128.0051  128.5553   70.0716 H   0  0  0  0  0  0  0  0  0  0  0  0
  127.4207  126.2066   70.4100 H   0  0  0  0  0  0  0  0  0  0  0  0
  129.0931  125.8375   70.9716 H   0  0  0  0  0  0  0  0  0  0  0  0
  127.0125  127.6153   72.3440 H   0  0  0  0  0  0  0  0  0  0  0  0
  127.7023  126.0552   72.9349 H   0  0  0  0  0  0  0  0  0  0  0  0
  128.6920  128.1264   74.0309 H   0  0  0  0  0  0  0  0  0  0  0  0
  129.8928  127.0491   73.2247 H   0  0  0  0  0  0  0  0  0  0  0  0
  128.7202  129.6496   72.0504 H   0  0  0  0  0  0  0  0  0  0  0  0
  130.7510  130.3390   72.4310 H   0  0  0  0  0  0  0  0  0  0  0  0
  1  2  1  0
  2  3  2  0
  3  4  1  0
  4  5  3  0
  5  6  1  0
  6  7  3  0
  7  8  1  0
  8  9  2  0
  9 10  1  0
 10 11  2  0
 11 12  1  0
 12 13  1  0
 13 14  1  0
 14 15  1  0
 15 16  1  0
 16 17  1  0
 16 18  1  0
 18 12  1  0
  1 19  1  0
  1 20  1  0
  1 21  1  0
  2 22  1  0
  3 23  1  0
  8 24  1  0
  9 25  1  0
 10 26  1  0
 11 27  1  0
 12 28  1  6
 13 29  1  0
 13 30  1  0
 14 31  1  0
 14 32  1  0
 15 33  1  0
 15 34  1  0
 16 35  1  6
 17 36  1  0
M  END
>  <Binding energies>  (1) 
[-7.05]

>  <Ligand effiencies>  (1) 
[-0.37105263157894736]

>  <Interactions>  (1) 
["V-A:ILE:369:CG2:3237, V-A:ASP:366:CA:3210, V-B:GLU:543:C:9874, V-A:ILE:369:CB:3236, V-B:HIS:456:CD2:9039, V-B:GLU:543:CB:9878, V-B:TYR:539:CE2:9848, V-B:GLU:543:CG:9879, V-A:ASP:366:CG:3213, V-B:LYS:547:CE:9922, V-A:TYR:484:CZ:4347, V-B:HIS:456:CE1:9041, V-A:HIS:456:CE1:4070, V-A:ILE:369:CD1:3239, V-A:ASP:366:C:3208, V-B:GLY:544:C:9884, V-A:ASP:366:CB:3212, H-A:LYS:547:NZ:4951, V-A:ARG:545:CZ:4926, V-A:GLU:543:CB:4906, H-A:GLY:544:O:4913, H-A:GLU:543:O:4903"]

$$$$
ZINC2356561098
     RDKit          3D

 80 83  0  0  0  0  0  0  0  0999 V2000
  133.0210  124.8650   64.9020 C   0  0  0  0  0  0  0  0  0  0  0  0
  133.9790  124.4550   63.9360 O   0  0  0  0  0  0  0  0  0  0  0  0
  133.7450  124.6390   62.6190 C   0  0  0  0  0  0  0  0  0  0  0  0
  133.2190  125.6320   62.1110 O   0  0  0  0  0  0  0  0  0  0  0  0
  134.1970  123.4330   61.7750 C   0  0  2  0  0  0  0  0  0  0  0  0
  134.0360  123.7470   60.2720 C   0  0  0  0  0  0  0  0  0  0  0  0
  133.4580  122.1320   62.1960 C   0  0  0  0  0  0  0  0  0  0  0  0
  132.9920  121.2320   61.0400 C   0  0  0  0  0  0  0  0  0  0  0  0
  133.7080  120.3590   60.5500 O   0  0  0  0  0  0  0  0  0  0  0  0
  131.5690  121.4590   60.5140 C   0  0  0  0  0  0  0  0  0  0  0  0
  130.4310  120.9450   61.4440 C   0  0  2  0  0  0  0  0  0  0  0  0
  130.2280  119.4200   61.2780 C   0  0  0  0  0  0  0  0  0  0  0  0
  129.1220  121.7840   61.2150 C   0  0  2  0  0  0  0  0  0  0  0  0
  128.8790  122.1090   59.7220 C   0  0  0  0  0  0  0  0  0  0  0  0
  128.2460  123.5010   59.6510 C   0  0  0  0  0  0  0  0  0  0  0  0
  127.7690  123.8700   61.0760 C   0  0  2  0  0  0  0  0  0  0  0  0
  126.3590  123.2240   61.3330 C   0  0  0  0  0  0  0  0  0  0  0  0
  127.6900  125.4380   61.2780 C   0  0  0  0  0  0  0  0  0  0  0  0
  128.6290  126.1870   61.9520 C   0  0  0  0  0  0  0  0  0  0  0  0
  129.7730  125.4890   62.5950 C   0  0  0  0  0  0  0  0  0  0  0  0
  130.5100  125.9080   63.4890 O   0  0  0  0  0  0  0  0  0  0  0  0
  130.1010  124.0570   62.1190 C   0  0  0  0  0  0  0  0  0  0  0  0
  131.2780  123.8030   61.8610 O   0  0  0  0  0  0  0  0  0  0  0  0
  128.8580  123.1430   61.9810 C   0  0  2  0  0  0  0  0  0  0  0  0
  128.3560  122.8700   63.4390 C   0  0  0  0  0  0  0  0  0  0  0  0
  128.5940  127.7640   62.0940 C   0  0  2  0  0  0  0  0  0  0  0  0
  129.9840  128.3350   61.6510 C   0  0  0  0  0  0  0  0  0  0  0  0
  128.2780  128.1350   63.5740 C   0  0  0  0  0  0  0  0  0  0  0  0
  128.0710  129.6310   63.8440 C   0  0  0  0  0  0  0  0  0  0  0  0
  126.9310  130.1840   62.9830 C   0  0  0  0  0  0  0  0  0  0  0  0
  125.9610  130.7400   63.5010 O   0  0  0  0  0  0  0  0  0  0  0  0
  127.0900  129.9640   61.4490 C   0  0  0  0  0  0  0  0  0  0  0  0
  125.7440  130.3380   60.7500 C   0  0  0  0  0  0  0  0  0  0  0  0
  128.1970  130.9390   60.9430 C   0  0  0  0  0  0  0  0  0  0  0  0
  127.4730  128.4290   61.1750 C   0  0  2  0  0  0  0  0  0  0  0  0
  126.2270  127.5190   61.1010 C   0  0  0  0  0  0  0  0  0  0  0  0
  126.5680  126.1230   60.6070 C   0  0  0  0  0  0  0  0  0  0  0  0
  126.0270  125.6850   59.5920 O   0  0  0  0  0  0  0  0  0  0  0  0
  133.4220  124.6934   65.9118 H   0  0  0  0  0  0  0  0  0  0  0  0
  132.8031  125.9352   64.7710 H   0  0  0  0  0  0  0  0  0  0  0  0
  132.0963  124.2838   64.7710 H   0  0  0  0  0  0  0  0  0  0  0  0
  135.2651  123.2501   61.9640 H   0  0  0  0  0  0  0  0  0  0  0  0
  133.5371  124.7200   60.1521 H   0  0  0  0  0  0  0  0  0  0  0  0
  135.0273  123.7821   59.7965 H   0  0  0  0  0  0  0  0  0  0  0  0
  133.4289  122.9626   59.7965 H   0  0  0  0  0  0  0  0  0  0  0  0
  134.1395  121.5449   62.8291 H   0  0  0  0  0  0  0  0  0  0  0  0
  132.5432  122.4580   62.7127 H   0  0  0  0  0  0  0  0  0  0  0  0
  131.4279  122.5402   60.3685 H   0  0  0  0  0  0  0  0  0  0  0  0
  131.4901  120.8777   59.5835 H   0  0  0  0  0  0  0  0  0  0  0  0
  130.7192  121.0952   62.4949 H   0  0  0  0  0  0  0  0  0  0  0  0
  130.1652  118.9484   62.2698 H   0  0  0  0  0  0  0  0  0  0  0  0
  129.2969  119.2323   60.7231 H   0  0  0  0  0  0  0  0  0  0  0  0
  131.0775  118.9953   60.7231 H   0  0  0  0  0  0  0  0  0  0  0  0
  128.4316  121.0582   61.6695 H   0  0  0  0  0  0  0  0  0  0  0  0
  129.8339  122.1024   59.1760 H   0  0  0  0  0  0  0  0  0  0  0  0
  128.2170  121.3587   59.2650 H   0  0  0  0  0  0  0  0  0  0  0  0
  128.9887  124.2337   59.3024 H   0  0  0  0  0  0  0  0  0  0  0  0
  127.4010  123.5062   58.9468 H   0  0  0  0  0  0  0  0  0  0  0  0
  126.1843  123.1439   62.4161 H   0  0  0  0  0  0  0  0  0  0  0  0
  125.5790  123.8545   60.8814 H   0  0  0  0  0  0  0  0  0  0  0  0
  126.3272  122.2215   60.8814 H   0  0  0  0  0  0  0  0  0  0  0  0
  129.0867  123.2674   64.1588 H   0  0  0  0  0  0  0  0  0  0  0  0
  127.3852  123.3644   63.5912 H   0  0  0  0  0  0  0  0  0  0  0  0
  128.2434  121.7864   63.5912 H   0  0  0  0  0  0  0  0  0  0  0  0
  130.5806  128.5801   62.5421 H   0  0  0  0  0  0  0  0  0  0  0  0
  130.5150  127.5821   61.0499 H   0  0  0  0  0  0  0  0  0  0  0  0
  129.8324  129.2437   61.0499 H   0  0  0  0  0  0  0  0  0  0  0  0
  127.3596  127.6061   63.8685 H   0  0  0  0  0  0  0  0  0  0  0  0
  129.1624  127.8397   64.1576 H   0  0  0  0  0  0  0  0  0  0  0  0
  127.8241  129.7754   64.9062 H   0  0  0  0  0  0  0  0  0  0  0  0
  128.9974  130.1675   63.5911 H   0  0  0  0  0  0  0  0  0  0  0  0
  124.9809  130.5500   61.5134 H   0  0  0  0  0  0  0  0  0  0  0  0
  125.8921  131.2290   60.1222 H   0  0  0  0  0  0  0  0  0  0  0  0
  125.4112  129.4983   60.1222 H   0  0  0  0  0  0  0  0  0  0  0  0
  128.7098  131.3906   61.8050 H   0  0  0  0  0  0  0  0  0  0  0  0
  128.9246  130.3830   60.3335 H   0  0  0  0  0  0  0  0  0  0  0  0
  127.7374  131.7310   60.3335 H   0  0  0  0  0  0  0  0  0  0  0  0
  127.9557  128.4996   60.1891 H   0  0  0  0  0  0  0  0  0  0  0  0
  125.7839  127.4418   62.1049 H   0  0  0  0  0  0  0  0  0  0  0  0
  125.5210  127.9682   60.3870 H   0  0  0  0  0  0  0  0  0  0  0  0
  1  2  1  0
  2  3  1  0
  3  4  2  0
  3  5  1  0
  5  6  1  0
  5  7  1  0
  7  8  1  0
  8  9  2  0
  8 10  1  0
 10 11  1  0
 11 12  1  0
 11 13  1  0
 13 14  1  0
 14 15  1  0
 15 16  1  0
 16 17  1  1
 16 18  1  0
 18 19  2  0
 19 20  1  0
 20 21  2  0
 20 22  1  0
 22 23  2  0
 22 24  1  0
 24 25  1  1
 19 26  1  0
 26 27  1  6
 26 28  1  0
 28 29  1  0
 29 30  1  0
 30 31  2  0
 30 32  1  0
 32 33  1  0
 32 34  1  0
 32 35  1  0
 35 36  1  0
 36 37  1  0
 37 38  2  0
 24 13  1  0
 35 26  1  0
 24 16  1  0
 37 18  1  0
  1 39  1  0
  1 40  1  0
  1 41  1  0
  5 42  1  6
  6 43  1  0
  6 44  1  0
  6 45  1  0
  7 46  1  0
  7 47  1  0
 10 48  1  0
 10 49  1  0
 11 50  1  1
 12 51  1  0
 12 52  1  0
 12 53  1  0
 13 54  1  1
 14 55  1  0
 14 56  1  0
 15 57  1  0
 15 58  1  0
 17 59  1  0
 17 60  1  0
 17 61  1  0
 25 62  1  0
 25 63  1  0
 25 64  1  0
 27 65  1  0
 27 66  1  0
 27 67  1  0
 28 68  1  0
 28 69  1  0
 29 70  1  0
 29 71  1  0
 33 72  1  0
 33 73  1  0
 33 74  1  0
 34 75  1  0
 34 76  1  0
 34 77  1  0
 35 78  1  6
 36 79  1  0
 36 80  1  0
M  END
>  <Binding energies>  (1) 
[-8.26]

>  <Ligand effiencies>  (1) 
[-0.21736842105263157]

>  <Interactions>  (1) 
["V-A:ILE:369:CG2:3237, V-B:PRO:540:CA:9855, V-A:GLY:454:CA:4049, V-A:ILE:369:CB:3236, V-B:ALA:541:CB:9864, V-B:ASP:366:CG:8184, V-B:TYR:539:CE2:9848, V-B:GLU:543:CG:9879, V-B:TYR:539:C:9839, V-A:GLU:543:CD:4908, V-B:PRO:540:CB:9857, H-B:TYR:484:OH:9319, H-A:GLY:454:N:4050, V-B:PRO:540:N:9856, V-A:ILE:369:CD1:3239, V-B:TYR:539:CD2:9846, H-A:SER:385:OG:3410, V-B:GLU:543:CD:9880, V-A:LEU:475:CD2:4259, H-A:ARG:545:NH2:4928, V-A:ARG:545:CZ:4926, V-B:TYR:539:CG:9844, V-B:PRO:540:C:9853, H-A:TYR:484:OH:4348"]

$$$$
ZINC2356572350
     RDKit          3D

112121  0  0  0  0  0  0  0  0999 V2000
  131.9650  126.4650   75.2490 C   0  0  0  0  0  0  0  0  0  0  0  0
  130.4430  126.2800   75.1270 C   0  0  2  0  0  0  0  0  0  0  0  0
  130.1110  125.4270   73.9120 C   0  0  0  0  0  0  0  0  0  0  0  0
  129.4910  125.8760   72.8040 C   0  0  0  0  0  0  0  0  0  0  0  0
  129.0690  127.3280   72.5470 C   0  0  2  0  0  0  0  0  0  0  0  0
  129.4630  127.7390   71.0910 C   0  0  2  0  0  0  0  0  0  0  0  0
  129.8070  129.1130   71.0270 O   0  0  0  0  0  0  0  0  0  0  0  0
  128.3360  127.4780   70.0520 C   0  0  0  0  0  0  0  0  0  0  0  0
  128.7300  127.6040   68.5710 C   0  0  0  0  0  0  0  0  0  0  0  0
  129.8690  127.9180   68.2200 O   0  0  0  0  0  0  0  0  0  0  0  0
  127.6180  127.3080   67.5560 C   0  0  0  0  0  0  0  0  0  0  0  0
  128.0370  127.4800   66.0770 C   0  0  0  0  0  0  0  0  0  0  0  0
  129.1400  126.5040   65.6620 C   0  0  0  0  0  0  0  0  0  0  0  0
  129.6070  125.6170   66.6300 C   0  0  0  0  0  0  0  0  0  0  0  0
  130.6110  124.7090   66.3340 C   0  0  0  0  0  0  0  0  0  0  0  0
  131.1620  124.6420   65.0560 C   0  0  0  0  0  0  0  0  0  0  0  0
  130.6900  125.5220   64.0410 C   0  0  0  0  0  0  0  0  0  0  0  0
  129.6930  126.4770   64.3620 C   0  0  0  0  0  0  0  0  0  0  0  0
  129.2170  127.4820   63.2980 C   0  0  0  0  0  0  0  0  0  0  0  0
  130.4790  127.7980   62.0170 S   0  0  0  0  0  0  0  0  0  0  0  0
  130.1070  129.6810   61.3090 S   0  0  0  0  0  0  0  0  0  0  0  0
  130.7100  129.7990   59.5850 C   0  0  0  0  0  0  0  0  0  0  0  0
  129.6880  129.8890   58.4280 C   0  0  2  0  0  0  0  0  0  0  0  0
  128.9120  131.2240   58.3380 C   0  0  0  0  0  0  0  0  0  0  0  0
  128.0330  131.3950   59.4820 N   0  0  0  0  0  0  0  0  0  0  0  0
  127.0560  130.3270   59.6520 C   0  0  2  0  0  0  0  0  0  0  0  0
  126.5020  130.3770   60.9890 N   0  0  0  0  0  0  0  0  0  0  0  0
  127.5170  128.9130   59.2390 C   0  0  0  0  0  0  0  0  0  0  0  0
  126.6800  127.8290   59.4910 C   0  0  0  0  0  0  0  0  0  0  0  0
  127.0190  126.5530   59.0930 C   0  0  0  0  0  0  0  0  0  0  0  0
  128.1750  126.3010   58.3510 C   0  0  0  0  0  0  0  0  0  0  0  0
  128.9930  127.4080   57.9680 C   0  0  0  0  0  0  0  0  0  0  0  0
  128.7220  128.6930   58.5280 C   0  0  0  0  0  0  0  0  0  0  0  0
  130.1110  127.2630   56.8950 C   0  0  0  0  0  0  0  0  0  0  0  0
  131.3480  126.4680   57.2750 C   0  0  0  0  0  0  0  0  0  0  0  0
  132.3320  125.9170   56.4670 C   0  0  0  0  0  0  0  0  0  0  0  0
  133.1650  125.0890   57.1980 N   0  0  0  0  0  0  0  0  0  0  0  0
  132.7390  125.0910   58.4910 C   0  0  0  0  0  0  0  0  0  0  0  0
  132.8820  124.4760   59.7780 C   0  0  0  0  0  0  0  0  0  0  0  0
  131.9210  125.0400   60.6040 N   0  0  0  0  0  0  0  0  0  0  0  0
  131.3640  126.1070   59.9390 C   0  0  0  0  0  0  0  0  0  0  0  0
  131.7070  126.0280   58.5780 C   0  0  0  0  0  0  0  0  0  0  0  0
  131.4040  124.5200   61.8570 C   0  0  1  0  0  0  0  0  0  0  0  0
  131.2750  125.5980   62.7810 O   0  0  0  0  0  0  0  0  0  0  0  0
  130.1280  123.5400   61.7010 C   0  0  1  0  0  0  0  0  0  0  0  0
  129.3260  123.7600   60.4590 C   0  0  0  0  0  0  0  0  0  0  0  0
  128.8730  124.1260   59.3430 C   0  0  0  0  0  0  0  0  0  0  0  0
  128.4390  124.7930   58.0920 C   0  0  2  0  0  0  0  0  0  0  0  0
  129.2520  124.4710   56.9860 O   0  0  0  0  0  0  0  0  0  0  0  0
  130.4760  122.0170   62.0180 C   0  0  0  0  0  0  0  0  0  0  0  0
  131.2590  122.0400   63.2780 C   0  0  0  0  0  0  0  0  0  0  0  0
  131.8140  122.6630   64.1720 C   0  0  0  0  0  0  0  0  0  0  0  0
  132.1550  123.6950   64.8830 O   0  0  0  0  0  0  0  0  0  0  0  0
  131.2600  121.3050   60.8850 C   0  0  0  0  0  0  0  0  0  0  0  0
  131.0410  119.7930   61.0690 C   0  0  0  0  0  0  0  0  0  0  0  0
  129.7910  119.6410   61.9500 C   0  0  0  0  0  0  0  0  0  0  0  0
  129.2570  121.0660   62.1710 C   0  0  0  0  0  0  0  0  0  0  0  0
  129.6390  128.2670   73.6640 C   0  0  1  0  0  0  0  0  0  0  0  0
  128.9150  129.4810   73.7520 O   0  0  0  0  0  0  0  0  0  0  0  0
  129.6730  127.6210   75.0690 C   0  0  0  0  0  0  0  0  0  0  0  0
  132.2462  126.4992   76.3119 H   0  0  0  0  0  0  0  0  0  0  0  0
  132.4770  125.6225   74.7612 H   0  0  0  0  0  0  0  0  0  0  0  0
  132.2603  127.4056   74.7612 H   0  0  0  0  0  0  0  0  0  0  0  0
  130.1124  125.7653   76.0412 H   0  0  0  0  0  0  0  0  0  0  0  0
  130.3984  124.3656   73.9405 H   0  0  0  0  0  0  0  0  0  0  0  0
  129.2686  125.1398   72.0175 H   0  0  0  0  0  0  0  0  0  0  0  0
  127.9757  127.4316   72.6093 H   0  0  0  0  0  0  0  0  0  0  0  0
  130.3257  127.1065   70.8349 H   0  0  0  0  0  0  0  0  0  0  0  0
  129.1950  129.6080   71.5770 H   0  0  0  0  0  0  0  0  0  0  0  0
  127.9621  126.4561   70.2132 H   0  0  0  0  0  0  0  0  0  0  0  0
  127.5903  128.2680   70.2246 H   0  0  0  0  0  0  0  0  0  0  0  0
  127.2882  126.2687   67.7010 H   0  0  0  0  0  0  0  0  0  0  0  0
  126.8206  128.0423   67.7426 H   0  0  0  0  0  0  0  0  0  0  0  0
  127.1571  127.3096   65.4392 H   0  0  0  0  0  0  0  0  0  0  0  0
  128.4318  128.4998   65.9584 H   0  0  0  0  0  0  0  0  0  0  0  0
  129.1736  125.6379   67.6408 H   0  0  0  0  0  0  0  0  0  0  0  0
  130.9782  124.0316   67.1190 H   0  0  0  0  0  0  0  0  0  0  0  0
  128.3151  127.0807   62.8127 H   0  0  0  0  0  0  0  0  0  0  0  0
  129.0132  128.4354   63.8075 H   0  0  0  0  0  0  0  0  0  0  0  0
  131.3400  130.6988   59.5268 H   0  0  0  0  0  0  0  0  0  0  0  0
  131.2073  128.8323   59.4173 H   0  0  0  0  0  0  0  0  0  0  0  0
  130.2671  129.8536   57.4934 H   0  0  0  0  0  0  0  0  0  0  0  0
  129.6307  132.0563   58.3093 H   0  0  0  0  0  0  0  0  0  0  0  0
  128.2991  131.2115   57.4247 H   0  0  0  0  0  0  0  0  0  0  0  0
  127.5590  132.2860   59.4400 H   0  0  0  0  0  0  0  0  0  0  0  0
  126.2599  130.5289   58.9202 H   0  0  0  0  0  0  0  0  0  0  0  0
  125.7940  129.6610   61.0780 H   0  0  0  0  0  0  0  0  0  0  0  0
  127.2180  130.1610   61.6670 H   0  0  0  0  0  0  0  0  0  0  0  0
  125.7289  127.9940   60.0184 H   0  0  0  0  0  0  0  0  0  0  0  0
  126.3631  125.7134   59.3665 H   0  0  0  0  0  0  0  0  0  0  0  0
  129.6632  126.7759   56.0162 H   0  0  0  0  0  0  0  0  0  0  0  0
  130.4758  128.2875   56.7298 H   0  0  0  0  0  0  0  0  0  0  0  0
  132.4359  126.1123   55.3895 H   0  0  0  0  0  0  0  0  0  0  0  0
  133.8980  124.5440   56.7680 H   0  0  0  0  0  0  0  0  0  0  0  0
  133.6142  123.7040   60.0572 H   0  0  0  0  0  0  0  0  0  0  0  0
  130.7492  126.8952   60.3980 H   0  0  0  0  0  0  0  0  0  0  0  0
  132.1302  123.8156   62.2888 H   0  0  0  0  0  0  0  0  0  0  0  0
  129.4289  123.8397   62.4957 H   0  0  0  0  0  0  0  0  0  0  0  0
  127.4668  124.3857   57.7776 H   0  0  0  0  0  0  0  0  0  0  0  0
  130.1390  124.2990   57.3040 H   0  0  0  0  0  0  0  0  0  0  0  0
  130.8801  121.6252   59.9036 H   0  0  0  0  0  0  0  0  0  0  0  0
  132.3302  121.5554   60.9303 H   0  0  0  0  0  0  0  0  0  0  0  0
  130.8804  119.3102   60.0938 H   0  0  0  0  0  0  0  0  0  0  0  0
  131.9170  119.3162   61.5331 H   0  0  0  0  0  0  0  0  0  0  0  0
  129.0362  119.0240   61.4405 H   0  0  0  0  0  0  0  0  0  0  0  0
  130.0260  119.1448   62.9032 H   0  0  0  0  0  0  0  0  0  0  0  0
  128.4900  121.3061   61.4200 H   0  0  0  0  0  0  0  0  0  0  0  0
  128.7913  121.1692   63.1622 H   0  0  0  0  0  0  0  0  0  0  0  0
  130.6755  128.4612   73.3511 H   0  0  0  0  0  0  0  0  0  0  0  0
  128.9830  129.9360   72.9090 H   0  0  0  0  0  0  0  0  0  0  0  0
  130.1542  128.3264   75.7624 H   0  0  0  0  0  0  0  0  0  0  0  0
  128.6307  127.4015   75.3435 H   0  0  0  0  0  0  0  0  0  0  0  0
  1  2  1  0
  2  3  1  0
  3  4  2  0
  4  5  1  0
  5  6  1  0
  6  7  1  0
  6  8  1  0
  8  9  1  0
  9 10  2  0
  9 11  1  0
 11 12  1  0
 12 13  1  0
 13 14  1  0
 14 15  2  0
 15 16  1  0
 16 17  2  0
 17 18  1  0
 18 19  1  0
 19 20  1  0
 20 21  1  0
 21 22  1  0
 22 23  1  0
 23 24  1  0
 24 25  1  0
 25 26  1  0
 26 27  1  0
 26 28  1  0
 28 29  2  0
 29 30  1  0
 30 31  2  0
 31 32  1  0
 32 33  2  0
 32 34  1  0
 34 35  1  0
 35 36  2  0
 36 37  1  0
 37 38  1  0
 38 39  2  0
 39 40  1  0
 40 41  1  0
 41 42  2  0
 40 43  1  0
 43 44  1  0
 43 45  1  0
 45 46  1  0
 46 47  3  0
 47 48  1  0
 48 49  1  0
 45 50  1  0
 50 51  1  0
 51 52  3  0
 52 53  1  0
 50 54  1  0
 54 55  1  0
 55 56  1  0
 56 57  1  0
  5 58  1  0
 58 59  1  0
 58 60  1  0
 60  2  1  0
 18 13  2  0
 33 23  1  0
 42 35  1  0
 57 50  1  0
 53 16  1  0
 44 17  1  0
 33 28  1  0
 42 38  1  0
 48 31  1  0
  1 61  1  0
  1 62  1  0
  1 63  1  0
  2 64  1  1
  3 65  1  0
  4 66  1  0
  5 67  1  6
  6 68  1  6
  7 69  1  0
  8 70  1  0
  8 71  1  0
 11 72  1  0
 11 73  1  0
 12 74  1  0
 12 75  1  0
 14 76  1  0
 15 77  1  0
 19 78  1  0
 19 79  1  0
 22 80  1  0
 22 81  1  0
 23 82  1  6
 24 83  1  0
 24 84  1  0
 25 85  1  0
 26 86  1  6
 27 87  1  0
 27 88  1  0
 29 89  1  0
 30 90  1  0
 34 91  1  0
 34 92  1  0
 36 93  1  0
 37 94  1  0
 39 95  1  0
 41 96  1  0
 43 97  1  1
 45 98  1  1
 48 99  1  6
 49100  1  0
 54101  1  0
 54102  1  0
 55103  1  0
 55104  1  0
 56105  1  0
 56106  1  0
 57107  1  0
 57108  1  0
 58109  1  6
 59110  1  0
 60111  1  0
 60112  1  0
M  END
>  <Binding energies>  (1) 
[17.29]

>  <Ligand effiencies>  (1) 
[0.23684931506849313]

>  <Interactions>  (1) 
["V-A:ASP:366:CA:3210, V-B:GLU:543:CB:9878, V-B:ASP:366:CG:8184, V-B:ALA:541:CB:9864, V-B:TYR:539:CE2:9848, V-A:TYR:484:CE2:4346, V-A:ASN:370:CB:3245, V-A:TYR:531:CE1:4792, V-A:LEU:475:CG:4257, V-B:GLU:543:CG:9879, V-A:ASP:366:CG:3213, V-A:HIS:456:CD2:4068, V-B:TYR:539:CZ:9849, V-A:TYR:531:CE2:4793, H-B:TYR:539:OH:9850, V-A:LEU:475:CD1:4258, V-A:GLU:543:CD:4908, V-A:TYR:484:CZ:4347, V-B:HIS:456:CE1:9041, V-A:HIS:456:CE1:4070, V-A:ASP:366:C:3208, H-B:HIS:456:NE2:9042, V-B:TYR:539:CD2:9846, V-A:TYR:531:CZ:4794, V-B:GLU:543:CD:9880, V-A:ASP:366:CB:3212, H-A:LYS:547:NZ:4951, H-A:ARG:545:NH2:4928, V-A:LEU:475:CD2:4259, H-A:ASP:366:O:3209, V-A:HIS:456:CG:4066, V-B:PRO:540:C:9853, V-B:ALA:541:CA:9862, H-A:TYR:484:OH:4348, H-A:GLU:543:O:4903"]

$$$$
ZINC2356572350-again1
     RDKit          3D

113122  0  0  0  0  0  0  0  0999 V2000
  127.8270  122.2980   58.4790 C   0  0  0  0  0  0  0  0  0  0  0  0
  128.3820  122.8500   59.8030 C   0  0  2  0  0  0  0  0  0  0  0  0
  129.7920  123.3830   59.6020 C   0  0  0  0  0  0  0  0  0  0  0  0
  130.9030  122.8390   60.1320 C   0  0  0  0  0  0  0  0  0  0  0  0
  130.9520  121.5620   60.9820 C   0  0  2  0  0  0  0  0  0  0  0  0
  132.1450  120.6550   60.5360 C   0  0  2  0  0  0  0  0  0  0  0  0
  132.0540  119.3820   61.1560 O   0  0  0  0  0  0  0  0  0  0  0  0
  133.5470  121.2460   60.8640 C   0  0  0  0  0  0  0  0  0  0  0  0
  133.5590  122.5980   61.6000 C   0  0  0  0  0  0  0  0  0  0  0  0
  133.6730  122.6850   62.8230 O   0  0  0  0  0  0  0  0  0  0  0  0
  133.4090  123.8520   60.7410 C   0  0  0  0  0  0  0  0  0  0  0  0
  133.7540  125.1390   61.5210 C   0  0  0  0  0  0  0  0  0  0  0  0
  133.2110  125.1200   62.9500 C   0  0  0  0  0  0  0  0  0  0  0  0
  134.1390  125.1070   63.9910 C   0  0  0  0  0  0  0  0  0  0  0  0
  133.7240  125.0810   65.3120 C   0  0  0  0  0  0  0  0  0  0  0  0
  132.3680  125.0760   65.6370 C   0  0  0  0  0  0  0  0  0  0  0  0
  131.3980  125.0920   64.5960 C   0  0  0  0  0  0  0  0  0  0  0  0
  131.8290  125.1010   63.2470 C   0  0  0  0  0  0  0  0  0  0  0  0
  130.7870  125.0840   62.1160 C   0  0  0  0  0  0  0  0  0  0  0  0
  131.4480  125.7580   60.5550 S   0  0  0  0  0  0  0  0  0  0  0  0
  130.7890  127.6920   60.4520 S   0  0  0  0  0  0  0  0  0  0  0  0
  130.3260  128.0510   58.7200 C   0  0  0  0  0  0  0  0  0  0  0  0
  129.4170  129.2710   58.3920 C   0  0  2  0  0  0  0  0  0  0  0  0
  129.8690  130.0800   57.1560 C   0  0  0  0  0  0  0  0  0  0  0  0
  131.0930  130.8220   57.4080 N   0  0  0  0  0  0  0  0  0  0  0  0
  131.0860  131.6760   58.5930 C   0  0  2  0  0  0  0  0  0  0  0  0
  132.5070  131.8330   59.1520 N   0  0  0  0  0  0  0  0  0  0  0  0
  130.1190  131.2800   59.7360 C   0  0  0  0  0  0  0  0  0  0  0  0
  130.0630  132.0540   60.8960 C   0  0  0  0  0  0  0  0  0  0  0  0
  129.2010  131.7440   61.9290 C   0  0  0  0  0  0  0  0  0  0  0  0
  128.2690  130.7110   61.8140 C   0  0  0  0  0  0  0  0  0  0  0  0
  128.1900  130.0050   60.5760 C   0  0  0  0  0  0  0  0  0  0  0  0
  129.2160  130.1970   59.6050 C   0  0  0  0  0  0  0  0  0  0  0  0
  126.9590  129.1250   60.2170 C   0  0  0  0  0  0  0  0  0  0  0  0
  127.1060  127.6200   60.3550 C   0  0  0  0  0  0  0  0  0  0  0  0
  126.4980  126.6050   59.6300 C   0  0  0  0  0  0  0  0  0  0  0  0
  126.7310  125.3750   60.2130 N   0  0  0  0  0  0  0  0  0  0  0  0
  127.4950  125.5680   61.3240 C   0  0  0  0  0  0  0  0  0  0  0  0
  128.0290  124.9540   62.5010 C   0  0  0  0  0  0  0  0  0  0  0  0
  128.6710  125.9510   63.2200 N   0  0  0  0  0  0  0  0  0  0  0  0
  128.7380  127.0750   62.4270 C   0  0  0  0  0  0  0  0  0  0  0  0
  127.8430  126.9210   61.3500 C   0  0  0  0  0  0  0  0  0  0  0  0
  129.0420  125.9380   64.6220 C   0  0  1  0  0  0  0  0  0  0  0  0
  130.0340  124.9380   64.8200 O   0  0  0  0  0  0  0  0  0  0  0  0
  129.3540  127.3970   65.2460 C   0  0  1  0  0  0  0  0  0  0  0  0
  128.7410  128.5350   64.4960 C   0  0  0  0  0  0  0  0  0  0  0  0
  128.1560  129.4230   63.9460 C   0  0  0  0  0  0  0  0  0  0  0  0
  127.4620  130.4350   63.1110 C   0  0  2  0  0  0  0  0  0  0  0  0
  126.0880  130.1630   62.9540 O   0  0  0  0  0  0  0  0  0  0  0  0
  129.1600  127.4470   66.8270 C   0  0  0  0  0  0  0  0  0  0  0  0
  130.2890  126.6690   67.3960 C   0  0  0  0  0  0  0  0  0  0  0  0
  131.2390  125.9600   67.3890 C   0  0  0  0  0  0  0  0  0  0  0  0
  132.0820  125.0560   66.9900 O   0  0  0  0  0  0  0  0  0  0  0  0
  127.7970  126.8870   67.3070 C   0  0  0  0  0  0  0  0  0  0  0  0
  127.5350  127.4780   68.7030 C   0  0  0  0  0  0  0  0  0  0  0  0
  128.4260  128.7260   68.8160 C   0  0  0  0  0  0  0  0  0  0  0  0
  129.1270  128.8670   67.4550 C   0  0  0  0  0  0  0  0  0  0  0  0
  129.5600  120.8430   60.9530 C   0  0  1  0  0  0  0  0  0  0  0  0
  129.4060  119.9430   62.0340 O   0  0  0  0  0  0  0  0  0  0  0  0
  128.3570  121.8130   60.9530 C   0  0  0  0  0  0  0  0  0  0  0  0
  127.0617  121.5369   58.6912 H   0  0  0  0  0  0  0  0  0  0  0  0
  127.3778  123.1180   57.8995 H   0  0  0  0  0  0  0  0  0  0  0  0
  128.6445  121.8444   57.8995 H   0  0  0  0  0  0  0  0  0  0  0  0
  127.7157  123.6710   60.1063 H   0  0  0  0  0  0  0  0  0  0  0  0
  129.9128  124.2800   58.9768 H   0  0  0  0  0  0  0  0  0  0  0  0
  131.8564  123.3529   59.9398 H   0  0  0  0  0  0  0  0  0  0  0  0
  131.1451  121.8160   62.0347 H   0  0  0  0  0  0  0  0  0  0  0  0
  132.0586  120.5816   59.4419 H   0  0  0  0  0  0  0  0  0  0  0  0
  131.1360  119.1000   61.1340 H   0  0  0  0  0  0  0  0  0  0  0  0
  134.0799  120.5171   61.4922 H   0  0  0  0  0  0  0  0  0  0  0  0
  134.0215  121.4366   59.8901 H   0  0  0  0  0  0  0  0  0  0  0  0
  134.0831  123.7711   59.8755 H   0  0  0  0  0  0  0  0  0  0  0  0
  132.3576  123.9207   60.4251 H   0  0  0  0  0  0  0  0  0  0  0  0
  134.8482  125.2450   61.5606 H   0  0  0  0  0  0  0  0  0  0  0  0
  133.2849  125.9842   60.9961 H   0  0  0  0  0  0  0  0  0  0  0  0
  135.2144  125.1175   63.7599 H   0  0  0  0  0  0  0  0  0  0  0  0
  134.4745  125.0641   66.1160 H   0  0  0  0  0  0  0  0  0  0  0  0
  130.4670  124.0455   61.9454 H   0  0  0  0  0  0  0  0  0  0  0  0
  129.9437  125.7186   62.4260 H   0  0  0  0  0  0  0  0  0  0  0  0
  131.2643  128.1963   58.1646 H   0  0  0  0  0  0  0  0  0  0  0  0
  129.7008  127.1894   58.4427 H   0  0  0  0  0  0  0  0  0  0  0  0
  128.4449  128.8261   58.1331 H   0  0  0  0  0  0  0  0  0  0  0  0
  130.0405  129.3855   56.3204 H   0  0  0  0  0  0  0  0  0  0  0  0
  129.0765  130.8040   56.9158 H   0  0  0  0  0  0  0  0  0  0  0  0
  131.3790  131.3410   56.5900 H   0  0  0  0  0  0  0  0  0  0  0  0
  130.6901  132.6308   58.2166 H   0  0  0  0  0  0  0  0  0  0  0  0
  132.4670  132.0230   60.1420 H   0  0  0  0  0  0  0  0  0  0  0  0
  132.9790  132.6050   58.7020 H   0  0  0  0  0  0  0  0  0  0  0  0
  133.0320  130.9830   59.0040 H   0  0  0  0  0  0  0  0  0  0  0  0
  130.7205  132.9309   60.9894 H   0  0  0  0  0  0  0  0  0  0  0  0
  129.2496  132.3234   62.8627 H   0  0  0  0  0  0  0  0  0  0  0  0
  126.1305  129.4359   60.8704 H   0  0  0  0  0  0  0  0  0  0  0  0
  126.8002  129.2925   59.1415 H   0  0  0  0  0  0  0  0  0  0  0  0
  125.9093  126.7594   58.7137 H   0  0  0  0  0  0  0  0  0  0  0  0
  126.3090  124.5230   59.8700 H   0  0  0  0  0  0  0  0  0  0  0  0
  127.9461  123.8937   62.7819 H   0  0  0  0  0  0  0  0  0  0  0  0
  129.3832  127.9480   62.6050 H   0  0  0  0  0  0  0  0  0  0  0  0
  128.1702  125.6521   65.2288 H   0  0  0  0  0  0  0  0  0  0  0  0
  130.4308  127.5594   65.0910 H   0  0  0  0  0  0  0  0  0  0  0  0
  127.4446  131.3981   63.6421 H   0  0  0  0  0  0  0  0  0  0  0  0
  125.9800  129.2240   62.7930 H   0  0  0  0  0  0  0  0  0  0  0  0
  126.9988  127.1890   66.6129 H   0  0  0  0  0  0  0  0  0  0  0  0
  127.8147  125.7877   67.3429 H   0  0  0  0  0  0  0  0  0  0  0  0
  126.4756  127.7554   68.8067 H   0  0  0  0  0  0  0  0  0  0  0  0
  127.7635  126.7499   69.4953 H   0  0  0  0  0  0  0  0  0  0  0  0
  127.8138  129.6157   69.0252 H   0  0  0  0  0  0  0  0  0  0  0  0
  129.1522  128.6311   69.6367 H   0  0  0  0  0  0  0  0  0  0  0  0
  128.5648  129.5559   66.8075 H   0  0  0  0  0  0  0  0  0  0  0  0
  130.1421  129.2746   67.5707 H   0  0  0  0  0  0  0  0  0  0  0  0
  129.5587  120.2941   59.9997 H   0  0  0  0  0  0  0  0  0  0  0  0
  128.9980  119.1400   61.7020 H   0  0  0  0  0  0  0  0  0  0  0  0
  127.4349  121.2200   60.8636 H   0  0  0  0  0  0  0  0  0  0  0  0
  128.4069  122.3808   61.8938 H   0  0  0  0  0  0  0  0  0  0  0  0
  1  2  1  0
  2  3  1  0
  3  4  2  0
  4  5  1  0
  5  6  1  0
  6  7  1  0
  6  8  1  0
  8  9  1  0
  9 10  2  0
  9 11  1  0
 11 12  1  0
 12 13  1  0
 13 14  1  0
 14 15  2  0
 15 16  1  0
 16 17  2  0
 17 18  1  0
 18 19  1  0
 19 20  1  0
 20 21  1  0
 21 22  1  0
 22 23  1  0
 23 24  1  0
 24 25  1  0
 25 26  1  0
 26 27  1  0
 26 28  1  0
 28 29  2  0
 29 30  1  0
 30 31  2  0
 31 32  1  0
 32 33  2  0
 32 34  1  0
 34 35  1  0
 35 36  2  0
 36 37  1  0
 37 38  1  0
 38 39  2  0
 39 40  1  0
 40 41  1  0
 41 42  2  0
 40 43  1  0
 43 44  1  0
 43 45  1  0
 45 46  1  0
 46 47  3  0
 47 48  1  0
 48 49  1  0
 45 50  1  0
 50 51  1  0
 51 52  3  0
 52 53  1  0
 50 54  1  0
 54 55  1  0
 55 56  1  0
 56 57  1  0
  5 58  1  0
 58 59  1  0
 58 60  1  0
 60  2  1  0
 18 13  2  0
 33 23  1  0
 42 35  1  0
 57 50  1  0
 53 16  1  0
 44 17  1  0
 33 28  1  0
 42 38  1  0
 48 31  1  0
  1 61  1  0
  1 62  1  0
  1 63  1  0
  2 64  1  1
  3 65  1  0
  4 66  1  0
  5 67  1  1
  6 68  1  6
  7 69  1  0
  8 70  1  0
  8 71  1  0
 11 72  1  0
 11 73  1  0
 12 74  1  0
 12 75  1  0
 14 76  1  0
 15 77  1  0
 19 78  1  0
 19 79  1  0
 22 80  1  0
 22 81  1  0
 23 82  1  6
 24 83  1  0
 24 84  1  0
 25 85  1  0
 26 86  1  6
 27 87  1  0
 27 88  1  0
 27 89  1  0
 29 90  1  0
 30 91  1  0
 34 92  1  0
 34 93  1  0
 36 94  1  0
 37 95  1  0
 39 96  1  0
 41 97  1  0
 43 98  1  1
 45 99  1  1
 48100  1  1
 49101  1  0
 54102  1  0
 54103  1  0
 55104  1  0
 55105  1  0
 56106  1  0
 56107  1  0
 57108  1  0
 57109  1  0
 58110  1  6
 59111  1  0
 60112  1  0
 60113  1  0
M  CHG  1  27   1
M  END
>  <Binding energies>  (1) 
[28.67]

>  <Ligand effiencies>  (1) 
[0.38743243243243247]

>  <Interactions>  (1) 
["V-A:ILE:369:CG2:3237, V-B:PRO:540:CA:9855, V-A:GLU:543:CA:4904, V-A:GLY:454:CA:4049, V-B:GLU:543:CB:9878, V-B:ALA:541:CB:9864, V-B:ASP:366:CG:8184, H-A:TYR:531:OH:4795, V-B:TYR:539:CE2:9848, V-B:GLU:543:CG:9879, V-B:TYR:539:C:9839, V-A:ASP:366:CG:3213, V-A:LEU:363:CD1:3189, V-B:TYR:539:CZ:9849, H-B:ALA:541:N:9863, V-A:TYR:484:CZ:4347, V-B:PRO:540:CB:9857, V-A:GLU:543:CD:4908, H-B:ASP:366:OD1:8185, V-B:GLU:543:CA:9876, H-A:GLY:454:N:4050, V-B:HIS:456:CE1:9041, V-A:GLY:453:C:4042, V-B:PRO:540:N:9856, V-A:ILE:369:CD1:3239, V-A:HIS:456:CE1:4070, V-B:TYR:539:CD2:9846, V-A:GLU:543:CG:4907, V-A:SER:385:CB:3409, H-A:SER:385:OG:3410, V-B:GLU:543:CD:9880, V-A:MET:535:CE:4835, V-A:ASP:366:CB:3212, V-A:ARG:545:CD:4923, V-A:LEU:475:CD2:4259, V-A:ARG:545:CZ:4926, V-B:TYR:539:CG:9844, V-A:GLU:543:CB:4906, H-A:HIS:383:HE2:3395, V-A:GLY:453:CA:4044, V-A:PRO:540:CA:4883, V-A:PRO:540:CB:4885, H-B:TYR:539:O:9840, V-A:SER:385:CA:3407, V-B:PRO:540:C:9853, H-A:ASP:366:OD2:3215, H-A:TYR:484:OH:4348, H-B:PRO:540:O:9854"]

$$$$
ZINC2356575900
     RDKit          3D

 79 82  0  0  0  0  0  0  0  0999 V2000
  128.8580  127.7510   65.1010 C   0  0  0  0  0  0  0  0  0  0  0  0
  128.7060  127.0660   66.4900 C   0  0  2  0  0  0  0  0  0  0  0  0
  129.0620  128.0710   67.6420 C   0  0  1  0  0  0  0  0  0  0  0  0
  128.1100  129.1230   67.6580 O   0  0  0  0  0  0  0  0  0  0  0  0
  129.1140  127.4580   69.0720 C   0  0  0  0  0  0  0  0  0  0  0  0
  130.0380  128.1560   70.1240 C   0  0  2  0  0  0  0  0  0  0  0  0
  131.5290  128.0480   69.7040 C   0  0  0  0  0  0  0  0  0  0  0  0
  129.7780  127.6840   71.6020 C   0  0  0  0  0  0  0  0  0  0  0  0
  129.3990  128.8530   72.5410 C   0  0  0  0  0  0  0  0  0  0  0  0
  128.6850  126.5920   71.6950 C   0  0  0  0  0  0  0  0  0  0  0  0
  130.9640  127.1130   72.1290 O   0  0  0  0  0  0  0  0  0  0  0  0
  129.4690  125.6930   66.6090 C   0  0  2  0  0  0  0  0  0  0  0  0
  130.7690  125.7440   67.4610 C   0  0  0  0  0  0  0  0  0  0  0  0
  131.9480  125.4070   66.5250 C   0  0  0  0  0  0  0  0  0  0  0  0
  131.3390  125.3870   65.1180 C   0  0  1  0  0  0  0  0  0  0  0  0
  132.0710  124.6310   63.9720 C   0  0  2  0  0  0  0  0  0  0  0  0
  133.5250  125.1400   63.8320 C   0  0  0  0  0  0  0  0  0  0  0  0
  134.1410  124.7560   62.4980 C   0  0  0  0  0  0  0  0  0  0  0  0
  133.4850  124.2350   61.4390 C   0  0  0  0  0  0  0  0  0  0  0  0
  134.2490  123.8110   60.1780 C   0  0  0  0  0  0  0  0  0  0  0  0
  133.6160  124.4180   58.9120 C   0  0  1  0  0  0  0  0  0  0  0  0
  134.2970  123.9840   57.7530 O   0  0  0  0  0  0  0  0  0  0  0  0
  132.1180  124.0990   58.8130 C   0  0  0  0  0  0  0  0  0  0  0  0
  131.3720  124.5400   60.0850 C   0  0  0  0  0  0  0  0  0  0  0  0
  131.9500  123.9910   61.4300 C   0  0  1  0  0  0  0  0  0  0  0  0
  131.7090  122.4590   61.5330 C   0  0  0  0  0  0  0  0  0  0  0  0
  131.2790  124.7710   62.6280 C   0  0  1  0  0  0  0  0  0  0  0  0
  129.7450  124.4930   62.7930 C   0  0  0  0  0  0  0  0  0  0  0  0
  129.1140  125.2170   64.0070 C   0  0  0  0  0  0  0  0  0  0  0  0
  129.8860  124.9070   65.3190 C   0  0  2  0  0  0  0  0  0  0  0  0
  129.7800  123.3780   65.6390 C   0  0  0  0  0  0  0  0  0  0  0  0
  129.0943  128.8161   65.2413 H   0  0  0  0  0  0  0  0  0  0  0  0
  129.6704  127.2660   64.5399 H   0  0  0  0  0  0  0  0  0  0  0  0
  127.9167  127.6551   64.5399 H   0  0  0  0  0  0  0  0  0  0  0  0
  127.6462  126.7923   66.5989 H   0  0  0  0  0  0  0  0  0  0  0  0
  130.0807  128.4159   67.4110 H   0  0  0  0  0  0  0  0  0  0  0  0
  127.5310  129.0190   66.8990 H   0  0  0  0  0  0  0  0  0  0  0  0
  128.0899  127.4705   69.4733 H   0  0  0  0  0  0  0  0  0  0  0  0
  129.5527  126.4589   68.9328 H   0  0  0  0  0  0  0  0  0  0  0  0
  129.7707  129.2230   70.1284 H   0  0  0  0  0  0  0  0  0  0  0  0
  132.1609  128.0022   70.6033 H   0  0  0  0  0  0  0  0  0  0  0  0
  131.6763  127.1368   69.1056 H   0  0  0  0  0  0  0  0  0  0  0  0
  131.8061  128.9284   69.1056 H   0  0  0  0  0  0  0  0  0  0  0  0
  129.5033  128.5312   73.5877 H   0  0  0  0  0  0  0  0  0  0  0  0
  130.0664  129.7066   72.3516 H   0  0  0  0  0  0  0  0  0  0  0  0
  128.3577  129.1526   72.3516 H   0  0  0  0  0  0  0  0  0  0  0  0
  128.4702  126.3774   72.7522 H   0  0  0  0  0  0  0  0  0  0  0  0
  127.7692  126.9467   71.1994 H   0  0  0  0  0  0  0  0  0  0  0  0
  129.0388  125.6759   71.1994 H   0  0  0  0  0  0  0  0  0  0  0  0
  131.6540  127.7800   72.1140 H   0  0  0  0  0  0  0  0  0  0  0  0
  128.6370  125.1504   67.0816 H   0  0  0  0  0  0  0  0  0  0  0  0
  130.9014  126.7504   67.8849 H   0  0  0  0  0  0  0  0  0  0  0  0
  130.7163  125.0263   68.2929 H   0  0  0  0  0  0  0  0  0  0  0  0
  132.7316  126.1756   66.5970 H   0  0  0  0  0  0  0  0  0  0  0  0
  132.4235  124.4497   66.7849 H   0  0  0  0  0  0  0  0  0  0  0  0
  131.4348  126.4054   64.7135 H   0  0  0  0  0  0  0  0  0  0  0  0
  132.1138  123.5609   64.2229 H   0  0  0  0  0  0  0  0  0  0  0  0
  133.5266  126.2364   63.9205 H   0  0  0  0  0  0  0  0  0  0  0  0
  134.1243  124.6734   64.6277 H   0  0  0  0  0  0  0  0  0  0  0  0
  135.2231  124.9174   62.3838 H   0  0  0  0  0  0  0  0  0  0  0  0
  135.2911  124.1539   60.2577 H   0  0  0  0  0  0  0  0  0  0  0  0
  134.2062  122.7148   60.0972 H   0  0  0  0  0  0  0  0  0  0  0  0
  133.7157  125.5109   58.9877 H   0  0  0  0  0  0  0  0  0  0  0  0
  134.2700  124.6870   57.1000 H   0  0  0  0  0  0  0  0  0  0  0  0
  131.6946  124.6281   57.9466 H   0  0  0  0  0  0  0  0  0  0  0  0
  131.9994  123.0115   58.6979 H   0  0  0  0  0  0  0  0  0  0  0  0
  131.3975  125.6388   60.1288 H   0  0  0  0  0  0  0  0  0  0  0  0
  130.3579  124.1225   59.9999 H   0  0  0  0  0  0  0  0  0  0  0  0
  131.6628  122.1655   62.5921 H   0  0  0  0  0  0  0  0  0  0  0  0
  130.7596  122.2032   61.0399 H   0  0  0  0  0  0  0  0  0  0  0  0
  132.5340  121.9241   61.0399 H   0  0  0  0  0  0  0  0  0  0  0  0
  131.3458  125.8312   62.3426 H   0  0  0  0  0  0  0  0  0  0  0  0
  129.2301  124.8290   61.8809 H   0  0  0  0  0  0  0  0  0  0  0  0
  129.6282  123.4126   62.9637 H   0  0  0  0  0  0  0  0  0  0  0  0
  129.1360  126.3020   63.8272 H   0  0  0  0  0  0  0  0  0  0  0  0
  128.0799  124.8601   64.1224 H   0  0  0  0  0  0  0  0  0  0  0  0
  129.7698  123.2314   66.7291 H   0  0  0  0  0  0  0  0  0  0  0  0
  128.8519  122.9763   65.2063 H   0  0  0  0  0  0  0  0  0  0  0  0
  130.6438  122.8521   65.2063 H   0  0  0  0  0  0  0  0  0  0  0  0
  1  2  1  0
  2  3  1  0
  3  4  1  0
  3  5  1  0
  5  6  1  0
  6  7  1  0
  6  8  1  0
  8  9  1  0
  8 10  1  0
  8 11  1  0
  2 12  1  0
 12 13  1  0
 13 14  1  0
 14 15  1  0
 15 16  1  0
 16 17  1  0
 17 18  1  0
 18 19  2  0
 19 20  1  0
 20 21  1  0
 21 22  1  0
 21 23  1  0
 23 24  1  0
 24 25  1  0
 25 26  1  1
 25 27  1  0
 27 28  1  0
 28 29  1  0
 29 30  1  0
 30 31  1  1
 30 12  1  0
 30 15  1  0
 27 16  1  0
 25 19  1  0
  1 32  1  0
  1 33  1  0
  1 34  1  0
  2 35  1  1
  3 36  1  6
  4 37  1  0
  5 38  1  0
  5 39  1  0
  6 40  1  1
  7 41  1  0
  7 42  1  0
  7 43  1  0
  9 44  1  0
  9 45  1  0
  9 46  1  0
 10 47  1  0
 10 48  1  0
 10 49  1  0
 11 50  1  0
 12 51  1  1
 13 52  1  0
 13 53  1  0
 14 54  1  0
 14 55  1  0
 15 56  1  6
 16 57  1  1
 17 58  1  0
 17 59  1  0
 18 60  1  0
 20 61  1  0
 20 62  1  0
 21 63  1  1
 22 64  1  0
 23 65  1  0
 23 66  1  0
 24 67  1  0
 24 68  1  0
 26 69  1  0
 26 70  1  0
 26 71  1  0
 27 72  1  6
 28 73  1  0
 28 74  1  0
 29 75  1  0
 29 76  1  0
 31 77  1  0
 31 78  1  0
 31 79  1  0
M  END
>  <Binding energies>  (1) 
[-8.68]

>  <Ligand effiencies>  (1) 
[-0.25529411764705884]

>  <Interactions>  (1) 
["V-A:ILE:369:CG2:3237, V-A:ASP:366:CA:3210, V-A:ARG:545:CA:4919, V-A:GLU:543:CA:4904, V-B:HIS:456:CD2:9039, V-A:ILE:369:CB:3236, V-A:GLU:543:C:4902, V-B:GLU:543:CB:9878, V-B:TYR:539:CE2:9848, V-A:TYR:484:CE2:4346, V-B:GLU:543:CG:9879, V-A:GLY:544:C:4912, V-A:ASP:366:CG:3213, V-B:TYR:539:CZ:9849, H-A:ASN:370:N:3244, H-B:TYR:539:OH:9850, V-A:GLU:543:CD:4908, V-A:TYR:484:CZ:4347, H-B:TYR:484:OH:9319, V-B:GLU:543:CA:9876, V-B:HIS:456:CE1:9041, V-A:ARG:545:CG:4922, V-A:HIS:456:CE1:4070, V-A:ILE:369:CD1:3239, V-A:ASP:366:C:3208, V-A:GLU:543:CG:4907, V-B:GLU:543:CD:9880, V-A:ILE:369:CG1:3238, V-A:ASP:366:CB:3212, V-A:LEU:475:CD2:4259, V-A:ARG:545:CZ:4926, H-A:ASP:366:O:3209, V-A:GLU:543:CB:4906, H-B:GLU:543:OE2:9882, V-A:GLY:453:CA:4044, H-A:GLY:544:O:4913, H-A:HIS:456:NE2:4071"]

$$$$
ZINC2356576057
     RDKit          3D

 58 61  0  0  0  0  0  0  0  0999 V2000
  131.1620  122.8650   60.5740 C   0  0  0  0  0  0  0  0  0  0  0  0
  131.7480  124.2500   60.9940 C   0  0  2  0  0  0  0  0  0  0  0  0
  131.2440  125.3680   60.0260 C   0  0  0  0  0  0  0  0  0  0  0  0
  131.7030  125.1910   58.5620 C   0  0  0  0  0  0  0  0  0  0  0  0
  133.2380  125.0600   58.4450 C   0  0  2  0  0  0  0  0  0  0  0  0
  133.6100  124.7240   57.1240 O   0  0  0  0  0  0  0  0  0  0  0  0
  133.8230  124.0470   59.4520 C   0  0  0  0  0  0  0  0  0  0  0  0
  133.3160  124.2730   60.8990 C   0  0  2  0  0  0  0  0  0  0  0  0
  133.9620  123.2860   61.8980 C   0  0  0  0  0  0  0  0  0  0  0  0
  133.5700  123.6400   63.3380 C   0  0  0  0  0  0  0  0  0  0  0  0
  132.0320  123.6610   63.5360 C   0  0  1  0  0  0  0  0  0  0  0  0
  131.6760  124.0260   65.0180 C   0  0  1  0  0  0  0  0  0  0  0  0
  132.3080  125.3050   65.5710 C   0  0  0  0  0  0  0  0  0  0  0  0
  131.4500  125.7280   66.7600 C   0  0  0  0  0  0  0  0  0  0  0  0
  130.1370  124.9350   66.6540 C   0  0  0  0  0  0  0  0  0  0  0  0
  129.1860  124.8520   67.5030 N   0  0  0  0  0  0  0  0  0  0  0  0
  129.3550  125.5780   68.6320 N   0  0  0  0  0  0  0  0  0  0  0  0
  129.1940  126.9310   68.7250 C   0  0  0  0  0  0  0  0  0  0  0  0
  129.4150  127.4210   69.9640 N   0  0  0  0  0  0  0  0  0  0  0  0
  128.7670  127.9840   67.5010 S   0  0  0  0  0  0  0  0  0  0  0  0
  130.1540  124.2200   65.2860 C   0  0  2  0  0  0  0  0  0  0  0  0
  129.4430  122.8390   65.3350 C   0  0  0  0  0  0  0  0  0  0  0  0
  129.5010  125.1000   64.1770 C   0  0  0  0  0  0  0  0  0  0  0  0
  129.8390  124.6440   62.7490 C   0  0  0  0  0  0  0  0  0  0  0  0
  131.3680  124.6180   62.4900 C   0  0  2  0  0  0  0  0  0  0  0  0
  130.9157  122.2829   61.4742 H   0  0  0  0  0  0  0  0  0  0  0  0
  130.2516  123.0182   59.9759 H   0  0  0  0  0  0  0  0  0  0  0  0
  131.9059  122.3182   59.9759 H   0  0  0  0  0  0  0  0  0  0  0  0
  130.1442  125.3708   60.0449 H   0  0  0  0  0  0  0  0  0  0  0  0
  131.6784  126.3139   60.3816 H   0  0  0  0  0  0  0  0  0  0  0  0
  131.2374  124.2827   58.1518 H   0  0  0  0  0  0  0  0  0  0  0  0
  131.3960  126.0858   58.0006 H   0  0  0  0  0  0  0  0  0  0  0  0
  133.6644  126.0424   58.6961 H   0  0  0  0  0  0  0  0  0  0  0  0
  134.4780  124.3160   57.1460 H   0  0  0  0  0  0  0  0  0  0  0  0
  133.5385  123.0328   59.1349 H   0  0  0  0  0  0  0  0  0  0  0  0
  134.9146  124.1826   59.4599 H   0  0  0  0  0  0  0  0  0  0  0  0
  133.6366  125.2852   61.1865 H   0  0  0  0  0  0  0  0  0  0  0  0
  133.6194  122.2657   61.6707 H   0  0  0  0  0  0  0  0  0  0  0  0
  135.0559  123.3506   61.8026 H   0  0  0  0  0  0  0  0  0  0  0  0
  134.0049  122.8926   64.0178 H   0  0  0  0  0  0  0  0  0  0  0  0
  133.9531  124.6480   63.5551 H   0  0  0  0  0  0  0  0  0  0  0  0
  131.6205  122.6570   63.3550 H   0  0  0  0  0  0  0  0  0  0  0  0
  132.0872  123.1382   65.5208 H   0  0  0  0  0  0  0  0  0  0  0  0
  133.3403  125.1096   65.8968 H   0  0  0  0  0  0  0  0  0  0  0  0
  132.3475  126.0943   64.8059 H   0  0  0  0  0  0  0  0  0  0  0  0
  131.9632  125.4892   67.7032 H   0  0  0  0  0  0  0  0  0  0  0  0
  131.2624  126.8118   66.7500 H   0  0  0  0  0  0  0  0  0  0  0  0
  129.6340  125.0500   69.4450 H   0  0  0  0  0  0  0  0  0  0  0  0
  129.6590  126.7960   70.7190 H   0  0  0  0  0  0  0  0  0  0  0  0
  129.3290  128.4140   70.1310 H   0  0  0  0  0  0  0  0  0  0  0  0
  129.2902  122.5422   66.3831 H   0  0  0  0  0  0  0  0  0  0  0  0
  128.4692  122.9097   64.8283 H   0  0  0  0  0  0  0  0  0  0  0  0
  130.0663  122.0875   64.8283 H   0  0  0  0  0  0  0  0  0  0  0  0
  128.4089  125.0648   64.3036 H   0  0  0  0  0  0  0  0  0  0  0  0
  129.9040  126.1168   64.2941 H   0  0  0  0  0  0  0  0  0  0  0  0
  129.4362  123.6320   62.5954 H   0  0  0  0  0  0  0  0  0  0  0  0
  129.3896  125.3636   62.0489 H   0  0  0  0  0  0  0  0  0  0  0  0
  131.7646  125.6354   62.6225 H   0  0  0  0  0  0  0  0  0  0  0  0
  2  1  1  6
  2  3  1  0
  3  4  1  0
  4  5  1  0
  5  6  1  0
  5  7  1  0
  7  8  1  0
  8  9  1  0
  9 10  1  0
 10 11  1  0
 11 12  1  0
 12 13  1  0
 13 14  1  0
 14 15  1  0
 15 16  2  0
 16 17  1  0
 17 18  1  0
 18 19  1  0
 18 20  2  0
 15 21  1  0
 21 22  1  1
 21 23  1  0
 23 24  1  0
 24 25  1  0
  8  2  1  0
 25 11  1  0
 25  2  1  0
 21 12  1  0
  1 26  1  0
  1 27  1  0
  1 28  1  0
  3 29  1  0
  3 30  1  0
  4 31  1  0
  4 32  1  0
  5 33  1  1
  6 34  1  0
  7 35  1  0
  7 36  1  0
  8 37  1  1
  9 38  1  0
  9 39  1  0
 10 40  1  0
 10 41  1  0
 11 42  1  6
 12 43  1  1
 13 44  1  0
 13 45  1  0
 14 46  1  0
 14 47  1  0
 17 48  1  0
 19 49  1  0
 19 50  1  0
 22 51  1  0
 22 52  1  0
 22 53  1  0
 23 54  1  0
 23 55  1  0
 24 56  1  0
 24 57  1  0
 25 58  1  1
M  END
>  <Binding energies>  (1) 
[-8.52]

>  <Ligand effiencies>  (1) 
[-0.29379310344827586]

>  <Interactions>  (1) 
["V-A:ILE:369:CG2:3237, V-A:ASP:366:CA:3210, V-A:GLY:454:CA:4049, V-B:GLU:543:C:9874, V-A:ILE:369:CB:3236, H-B:GLU:543:O:9875, V-B:GLU:543:CB:9878, V-B:ALA:541:CB:9864, V-B:TYR:539:CE2:9848, V-A:TYR:484:CE2:4346, V-B:GLU:543:CG:9879, V-A:ASP:366:CG:3213, V-B:TYR:539:CZ:9849, H-A:ASN:370:N:3244, H-B:TYR:539:OH:9850, V-A:TYR:484:CZ:4347, V-A:GLU:543:CD:4908, V-B:GLU:543:CA:9876, V-B:HIS:456:CE1:9041, V-A:ILE:369:CD1:3239, V-A:HIS:456:CE1:4070, V-A:ASP:366:C:3208, H-B:HIS:456:NE2:9042, V-B:TYR:539:CD2:9846, V-A:GLU:543:CG:4907, V-B:GLU:543:CD:9880, V-A:ASP:366:CB:3212, V-A:ARG:545:CZ:4926, H-A:ASP:366:O:3209, V-A:GLU:543:CB:4906, H-A:HIS:456:NE2:4071, H-A:GLU:543:O:4903"]

$$$$
ZINC2356577806
     RDKit          3D

 39 38  0  0  0  0  0  0  0  0999 V2000
  134.1880  126.3820   75.0280 C   0  0  0  0  0  0  0  0  0  0  0  0
  133.1650  126.5790   74.3910 C   0  0  0  0  0  0  0  0  0  0  0  0
  132.0190  126.8050   73.6830 C   0  0  0  0  0  0  0  0  0  0  0  0
  130.9960  127.0180   73.0530 C   0  0  0  0  0  0  0  0  0  0  0  0
  129.7680  127.2990   72.2840 C   0  0  0  0  0  0  0  0  0  0  0  0
  129.9290  128.3320   71.1490 C   0  0  0  0  0  0  0  0  0  0  0  0
  130.2490  127.7370   69.7850 C   0  0  0  0  0  0  0  0  0  0  0  0
  129.3540  127.1330   68.9840 C   0  0  0  0  0  0  0  0  0  0  0  0
  129.7000  126.5770   67.6910 C   0  0  0  0  0  0  0  0  0  0  0  0
  129.9310  125.2630   67.5030 C   0  0  0  0  0  0  0  0  0  0  0  0
  130.2760  124.7060   66.2140 C   0  0  0  0  0  0  0  0  0  0  0  0
  129.8480  123.6250   65.8010 O   0  0  0  0  0  0  0  0  0  0  0  0
  131.1140  125.4880   65.5100 N   0  0  0  0  0  0  0  0  0  0  0  0
  131.6340  125.1800   64.1790 C   0  0  0  0  0  0  0  0  0  0  0  0
  132.8990  124.2940   64.1980 C   0  0  0  0  0  0  0  0  0  0  0  0
  133.4160  123.8710   62.8020 C   0  0  0  0  0  0  0  0  0  0  0  0
  133.6020  122.3440   62.7230 C   0  0  0  0  0  0  0  0  0  0  0  0
  134.7130  124.5990   62.3940 C   0  0  0  0  0  0  0  0  0  0  0  0
  135.1095  126.2045   75.6018 H   0  0  0  0  0  0  0  0  0  0  0  0
  129.4210  126.3548   71.8389 H   0  0  0  0  0  0  0  0  0  0  0  0
  129.0531  127.7357   72.9969 H   0  0  0  0  0  0  0  0  0  0  0  0
  128.9887  128.8964   71.0641 H   0  0  0  0  0  0  0  0  0  0  0  0
  130.7894  128.9606   71.4222 H   0  0  0  0  0  0  0  0  0  0  0  0
  131.2875  127.8062   69.4290 H   0  0  0  0  0  0  0  0  0  0  0  0
  128.3111  127.0573   69.3257 H   0  0  0  0  0  0  0  0  0  0  0  0
  129.7771  127.2552   66.8284 H   0  0  0  0  0  0  0  0  0  0  0  0
  129.8539  124.5856   68.3662 H   0  0  0  0  0  0  0  0  0  0  0  0
  131.4130  126.3620   65.9160 H   0  0  0  0  0  0  0  0  0  0  0  0
  130.8505  124.6552   63.6127 H   0  0  0  0  0  0  0  0  0  0  0  0
  131.9173  126.1361   63.7147 H   0  0  0  0  0  0  0  0  0  0  0  0
  133.7000  124.8520   64.7050 H   0  0  0  0  0  0  0  0  0  0  0  0
  132.6196  123.3663   64.7189 H   0  0  0  0  0  0  0  0  0  0  0  0
  132.6432  124.1739   62.0802 H   0  0  0  0  0  0  0  0  0  0  0  0
  133.6527  121.9277   63.7399 H   0  0  0  0  0  0  0  0  0  0  0  0
  132.7515  121.8983   62.1863 H   0  0  0  0  0  0  0  0  0  0  0  0
  134.5346  122.1155   62.1863 H   0  0  0  0  0  0  0  0  0  0  0  0
  135.2606  124.9064   63.2971 H   0  0  0  0  0  0  0  0  0  0  0  0
  135.3413  123.9217   61.7969 H   0  0  0  0  0  0  0  0  0  0  0  0
  134.4621  125.4881   61.7969 H   0  0  0  0  0  0  0  0  0  0  0  0
  1  2  3  0
  2  3  1  0
  3  4  3  0
  4  5  1  0
  5  6  1  0
  6  7  1  0
  7  8  2  0
  8  9  1  0
  9 10  2  0
 10 11  1  0
 11 12  2  0
 11 13  1  0
 13 14  1  0
 14 15  1  0
 15 16  1  0
 16 17  1  0
 16 18  1  0
  1 19  1  0
  5 20  1  0
  5 21  1  0
  6 22  1  0
  6 23  1  0
  7 24  1  0
  8 25  1  0
  9 26  1  0
 10 27  1  0
 13 28  1  0
 14 29  1  0
 14 30  1  0
 15 31  1  0
 15 32  1  0
 16 33  1  0
 17 34  1  0
 17 35  1  0
 17 36  1  0
 18 37  1  0
 18 38  1  0
 18 39  1  0
M  END
>  <Binding energies>  (1) 
[-5.92]

>  <Ligand effiencies>  (1) 
[-0.31157894736842107]

>  <Interactions>  (1) 
["V-A:GLY:454:CA:4049, H-A:GLU:543:OE2:4910, V-A:GLU:543:C:4902, V-B:GLU:543:CB:9878, V-A:TYR:484:CE2:4346, V-A:GLY:544:C:4912, V-B:GLU:543:CG:9879, V-A:HIS:456:CD2:4068, V-A:ASP:366:CG:3213, V-A:LYS:547:CG:4948, V-A:HIS:456:CB:4065, V-A:TYR:484:CZ:4347, V-A:GLU:543:CD:4908, V-B:GLU:543:CA:9876, V-A:GLY:453:C:4042, V-A:HIS:456:CE1:4070, V-A:ILE:369:CD1:3239, V-A:LEU:475:CD2:4259, V-A:ARG:545:CZ:4926, H-A:GLU:543:OE1:4909, V-A:GLU:543:CB:4906, V-A:HIS:456:CG:4066, V-A:GLY:453:CA:4044, H-A:TYR:484:OH:4348"]

$$$$
ZINC2356580498
     RDKit          3D

 89 93  0  0  0  0  0  0  0  0999 V2000
  131.6480  131.9720   57.5770 C   0  0  0  0  0  0  0  0  0  0  0  0
  130.1560  132.2560   57.7010 C   0  0  0  0  0  0  0  0  0  0  0  0
  129.6920  133.3550   57.4100 O   0  0  0  0  0  0  0  0  0  0  0  0
  129.4720  131.1770   58.1510 O   0  0  0  0  0  0  0  0  0  0  0  0
  128.6830  131.1700   59.3530 C   0  0  2  0  0  0  0  0  0  0  0  0
  129.4840  132.0010   60.4310 C   0  0  2  0  0  0  0  0  0  0  0  0
  130.7530  131.2640   60.9320 C   0  0  0  0  0  0  0  0  0  0  0  0
  128.5590  132.5120   61.6180 C   0  0  2  0  0  0  0  0  0  0  0  0
  128.3700  134.0560   61.5760 C   0  0  0  0  0  0  0  0  0  0  0  0
  128.9350  132.0260   63.0780 C   0  0  0  0  0  0  0  0  0  0  0  0
  128.1630  132.7810   64.1830 C   0  0  0  0  0  0  0  0  0  0  0  0
  128.7670  130.5000   63.2870 C   0  0  0  0  0  0  0  0  0  0  0  0
  130.3190  132.2210   63.3070 O   0  0  0  0  0  0  0  0  0  0  0  0
  128.2870  129.6950   59.7200 C   0  0  1  0  0  0  0  0  0  0  0  0
  127.1420  129.6060   60.7550 C   0  0  0  0  0  0  0  0  0  0  0  0
  128.2210  128.7600   58.6740 O   0  0  0  0  0  0  0  0  0  0  0  0
  129.3200  128.5710   59.5290 C   0  0  1  0  0  0  0  0  0  0  0  0
  130.7450  128.8360   58.9350 C   0  0  2  0  0  0  0  0  0  0  0  0
  130.6380  128.8170   57.5210 O   0  0  0  0  0  0  0  0  0  0  0  0
  131.6110  127.6620   59.4190 C   0  0  0  0  0  0  0  0  0  0  0  0
  130.5950  126.5510   59.6740 C   0  0  1  0  0  0  0  0  0  0  0  0
  131.0390  125.2490   60.3930 C   0  0  2  0  0  0  0  0  0  0  0  0
  132.2680  124.5980   59.7100 C   0  0  0  0  0  0  0  0  0  0  0  0
  132.6590  123.2740   60.3870 C   0  0  0  0  0  0  0  0  0  0  0  0
  131.4670  122.2840   60.4250 C   0  0  1  0  0  0  0  0  0  0  0  0
  131.8780  120.9030   60.9960 C   0  0  0  0  0  0  0  0  0  0  0  0
  130.7240  119.8780   60.9710 C   0  0  1  0  0  0  0  0  0  0  0  0
  131.1050  118.6850   61.6250 O   0  0  0  0  0  0  0  0  0  0  0  0
  129.4190  120.4400   61.5780 C   0  0  0  0  0  0  0  0  0  0  0  0
  129.0750  121.8420   61.0290 C   0  0  0  0  0  0  0  0  0  0  0  0
  130.2260  122.8870   61.1770 C   0  0  1  0  0  0  0  0  0  0  0  0
  130.5200  123.1470   62.6880 C   0  0  0  0  0  0  0  0  0  0  0  0
  129.8490  124.2250   60.4240 C   0  0  1  0  0  0  0  0  0  0  0  0
  128.5050  124.8810   60.8810 C   0  0  0  0  0  0  0  0  0  0  0  0
  128.2140  126.2320   60.1820 C   0  0  0  0  0  0  0  0  0  0  0  0
  129.3840  127.2430   60.3530 C   0  0  2  0  0  0  0  0  0  0  0  0
  129.6240  127.6050   61.8490 C   0  0  0  0  0  0  0  0  0  0  0  0
  132.0899  131.8879   58.5808 H   0  0  0  0  0  0  0  0  0  0  0  0
  131.7976  131.0293   57.0303 H   0  0  0  0  0  0  0  0  0  0  0  0
  132.1335  132.7939   57.0303 H   0  0  0  0  0  0  0  0  0  0  0  0
  127.7060  131.6659   59.2555 H   0  0  0  0  0  0  0  0  0  0  0  0
  129.8438  132.9042   59.9164 H   0  0  0  0  0  0  0  0  0  0  0  0
  130.7633  131.2580   62.0319 H   0  0  0  0  0  0  0  0  0  0  0  0
  130.7469  130.2289   60.5597 H   0  0  0  0  0  0  0  0  0  0  0  0
  131.6490  131.7823   60.5597 H   0  0  0  0  0  0  0  0  0  0  0  0
  127.6004  132.0122   61.4150 H   0  0  0  0  0  0  0  0  0  0  0  0
  128.3221  134.4476   62.6028 H   0  0  0  0  0  0  0  0  0  0  0  0
  129.2187  134.5151   61.0477 H   0  0  0  0  0  0  0  0  0  0  0  0
  127.4357  134.2968   61.0477 H   0  0  0  0  0  0  0  0  0  0  0  0
  128.5101  132.4416   65.1701 H   0  0  0  0  0  0  0  0  0  0  0  0
  128.3426  133.8616   64.0828 H   0  0  0  0  0  0  0  0  0  0  0  0
  127.0867  132.5774   64.0828 H   0  0  0  0  0  0  0  0  0  0  0  0
  128.7426  130.2779   64.3641 H   0  0  0  0  0  0  0  0  0  0  0  0
  127.8268  130.1676   62.8227 H   0  0  0  0  0  0  0  0  0  0  0  0
  129.6123  129.9711   62.8227 H   0  0  0  0  0  0  0  0  0  0  0  0
  130.7150  131.3740   63.5210 H   0  0  0  0  0  0  0  0  0  0  0  0
  127.5627  129.6387   61.7709 H   0  0  0  0  0  0  0  0  0  0  0  0
  126.4547  130.4534   60.6153 H   0  0  0  0  0  0  0  0  0  0  0  0
  126.5939  128.6625   60.6153 H   0  0  0  0  0  0  0  0  0  0  0  0
  131.1748  129.8004   59.2437 H   0  0  0  0  0  0  0  0  0  0  0  0
  129.8070  129.2290   57.2720 H   0  0  0  0  0  0  0  0  0  0  0  0
  132.3351  127.3630   58.6468 H   0  0  0  0  0  0  0  0  0  0  0  0
  132.2085  127.9087   60.3090 H   0  0  0  0  0  0  0  0  0  0  0  0
  130.3672  126.1043   58.6949 H   0  0  0  0  0  0  0  0  0  0  0  0
  131.3298  125.5198   61.4187 H   0  0  0  0  0  0  0  0  0  0  0  0
  132.0271  124.4015   58.6549 H   0  0  0  0  0  0  0  0  0  0  0  0
  133.1169  125.2920   59.7975 H   0  0  0  0  0  0  0  0  0  0  0  0
  133.4868  122.8160   59.8257 H   0  0  0  0  0  0  0  0  0  0  0  0
  132.9617  123.4909   61.4220 H   0  0  0  0  0  0  0  0  0  0  0  0
  131.1572  122.1175   59.3827 H   0  0  0  0  0  0  0  0  0  0  0  0
  132.7115  120.5086   60.3962 H   0  0  0  0  0  0  0  0  0  0  0  0
  132.1663  121.0516   62.0471 H   0  0  0  0  0  0  0  0  0  0  0  0
  130.5148  119.6558   59.9142 H   0  0  0  0  0  0  0  0  0  0  0  0
  132.0640  118.6350   61.6350 H   0  0  0  0  0  0  0  0  0  0  0  0
  128.5932  119.7538   61.3389 H   0  0  0  0  0  0  0  0  0  0  0  0
  129.5640  120.5298   62.6647 H   0  0  0  0  0  0  0  0  0  0  0  0
  128.8329  121.7443   59.9604 H   0  0  0  0  0  0  0  0  0  0  0  0
  128.2294  122.2163   61.6248 H   0  0  0  0  0  0  0  0  0  0  0  0
  129.8371  122.5431   63.3036 H   0  0  0  0  0  0  0  0  0  0  0  0
  131.5600  122.8678   62.9125 H   0  0  0  0  0  0  0  0  0  0  0  0
  130.3700  124.2133   62.9125 H   0  0  0  0  0  0  0  0  0  0  0  0
  129.6593  123.9128   59.3864 H   0  0  0  0  0  0  0  0  0  0  0  0
  127.6827  124.1864   60.6544 H   0  0  0  0  0  0  0  0  0  0  0  0
  128.5913  125.0837   61.9587 H   0  0  0  0  0  0  0  0  0  0  0  0
  128.0569  126.0495   59.1087 H   0  0  0  0  0  0  0  0  0  0  0  0
  127.3182  126.6685   60.6478 H   0  0  0  0  0  0  0  0  0  0  0  0
  129.1301  126.8601   62.4903 H   0  0  0  0  0  0  0  0  0  0  0  0
  130.7042  127.6090   62.0565 H   0  0  0  0  0  0  0  0  0  0  0  0
  129.2071  128.6015   62.0565 H   0  0  0  0  0  0  0  0  0  0  0  0
  1  2  1  0
  2  3  2  0
  2  4  1  0
  4  5  1  0
  5  6  1  0
  6  7  1  0
  6  8  1  0
  8  9  1  0
  8 10  1  0
 10 11  1  0
 10 12  1  0
 10 13  1  0
  5 14  1  0
 14 15  1  1
 14 16  1  0
 17 16  1  6
 17 18  1  0
 18 19  1  0
 18 20  1  0
 20 21  1  0
 21 22  1  0
 22 23  1  0
 23 24  1  0
 24 25  1  0
 25 26  1  0
 26 27  1  0
 27 28  1  0
 27 29  1  0
 29 30  1  0
 30 31  1  0
 31 32  1  1
 31 33  1  0
 33 34  1  0
 34 35  1  0
 35 36  1  0
 36 37  1  1
 17 14  1  0
 36 21  1  0
 36 17  1  0
 33 22  1  0
 31 25  1  0
  1 38  1  0
  1 39  1  0
  1 40  1  0
  5 41  1  6
  6 42  1  6
  7 43  1  0
  7 44  1  0
  7 45  1  0
  8 46  1  6
  9 47  1  0
  9 48  1  0
  9 49  1  0
 11 50  1  0
 11 51  1  0
 11 52  1  0
 12 53  1  0
 12 54  1  0
 12 55  1  0
 13 56  1  0
 15 57  1  0
 15 58  1  0
 15 59  1  0
 18 60  1  1
 19 61  1  0
 20 62  1  0
 20 63  1  0
 21 64  1  6
 22 65  1  1
 23 66  1  0
 23 67  1  0
 24 68  1  0
 24 69  1  0
 25 70  1  6
 26 71  1  0
 26 72  1  0
 27 73  1  6
 28 74  1  0
 29 75  1  0
 29 76  1  0
 30 77  1  0
 30 78  1  0
 32 79  1  0
 32 80  1  0
 32 81  1  0
 33 82  1  6
 34 83  1  0
 34 84  1  0
 35 85  1  0
 35 86  1  0
 37 87  1  0
 37 88  1  0
 37 89  1  0
M  END
>  <Binding energies>  (1) 
[-7.71]

>  <Ligand effiencies>  (1) 
[-0.19275]

>  <Interactions>  (1) 
["V-B:PRO:540:CA:9855, H-A:ALA:541:N:4891, V-A:PRO:540:C:4881, H-A:ALA:541:O:4889, V-B:ALA:541:CB:9864, H-A:TYR:531:OH:4795, V-B:TYR:539:CE2:9848, V-B:LEU:475:CD2:9230, V-B:TYR:539:C:9839, V-A:ASP:366:CG:3213, V-A:LEU:363:CD1:3189, V-B:TYR:484:CE2:9317, V-A:ALA:541:CB:4892, V-A:GLU:543:CD:4908, V-B:TYR:484:CZ:9318, V-B:TYR:539:CD2:9846, V-A:GLU:543:CG:4907, H-A:SER:385:OG:3410, V-A:TYR:539:C:4867, V-A:ASP:366:CB:3212, V-A:LEU:475:CD2:4259, H-A:GLU:543:OE1:4909, H-A:HIS:383:HE2:3395, H-A:TYR:539:N:4870, V-A:PRO:540:CB:4885, V-A:PRO:540:CA:4883, V-B:PRO:540:C:9853, V-B:ALA:541:CA:9862"]

$$$$
ZINC2356582184
     RDKit          3D

 43 46  0  0  0  0  0  0  0  0999 V2000
  131.3060  130.4670   56.9340 C   0  0  0  0  0  0  0  0  0  0  0  0
  131.7260  131.7900   57.6290 C   0  0  2  0  0  0  0  0  0  0  0  0
  132.6050  131.5750   58.9000 C   0  0  2  0  0  0  0  0  0  0  0  0
  133.7380  130.7630   58.6450 O   0  0  0  0  0  0  0  0  0  0  0  0
  131.7940  131.0550   60.1210 C   0  0  2  0  0  0  0  0  0  0  0  0
  131.3840  129.7100   59.9550 O   0  0  0  0  0  0  0  0  0  0  0  0
  130.6380  132.0450   60.4410 C   0  0  2  0  0  0  0  0  0  0  0  0
  129.8210  131.7840   61.7310 C   0  0  2  0  0  0  0  0  0  0  0  0
  129.0970  130.4230   61.8780 C   0  0  0  0  0  0  0  0  0  0  0  0
  128.7890  132.9050   61.9620 C   0  0  0  0  0  0  0  0  0  0  0  0
  128.3400  133.2390   63.0570 O   0  0  0  0  0  0  0  0  0  0  0  0
  128.3330  133.6370   60.8940 O   0  0  0  0  0  0  0  0  0  0  0  0
  128.6240  133.3550   59.5360 C   0  0  2  0  0  0  0  0  0  0  0  0
  127.4900  132.7900   58.9570 O   0  0  0  0  0  0  0  0  0  0  0  0
  127.8780  131.6720   58.2210 C   0  0  1  0  0  0  0  0  0  0  0  0
  126.7650  130.6360   58.2610 C   0  0  0  0  0  0  0  0  0  0  0  0
  128.2930  132.0690   56.7860 C   0  0  0  0  0  0  0  0  0  0  0  0
  129.5670  132.9520   56.7470 C   0  0  0  0  0  0  0  0  0  0  0  0
  130.5420  132.7680   57.9450 C   0  0  1  0  0  0  0  0  0  0  0  0
  129.7400  132.3400   59.2230 C   0  0  1  0  0  0  0  0  0  0  0  0
  128.9850  131.1890   58.9020 O   0  0  0  0  0  0  0  0  0  0  0  0
  131.0663  129.7120   57.6972 H   0  0  0  0  0  0  0  0  0  0  0  0
  130.4210  130.6475   56.3062 H   0  0  0  0  0  0  0  0  0  0  0  0
  132.1331  130.1040   56.3062 H   0  0  0  0  0  0  0  0  0  0  0  0
  132.3468  132.2818   56.8657 H   0  0  0  0  0  0  0  0  0  0  0  0
  132.9755  132.5744   59.1721 H   0  0  0  0  0  0  0  0  0  0  0  0
  133.6730  129.9690   59.1830 H   0  0  0  0  0  0  0  0  0  0  0  0
  132.4448  131.0283   61.0074 H   0  0  0  0  0  0  0  0  0  0  0  0
  132.1080  129.2180   59.5600 H   0  0  0  0  0  0  0  0  0  0  0  0
  131.1880  132.9657   60.6856 H   0  0  0  0  0  0  0  0  0  0  0  0
  130.6127  131.7619   62.4944 H   0  0  0  0  0  0  0  0  0  0  0  0
  128.9718  130.1877   62.9452 H   0  0  0  0  0  0  0  0  0  0  0  0
  128.1095  130.4791   61.3966 H   0  0  0  0  0  0  0  0  0  0  0  0
  129.6954  129.6355   61.3966 H   0  0  0  0  0  0  0  0  0  0  0  0
  128.9568  134.3311   59.1532 H   0  0  0  0  0  0  0  0  0  0  0  0
  126.5167  130.4048   59.3074 H   0  0  0  0  0  0  0  0  0  0  0  0
  125.8748  131.0344   57.7523 H   0  0  0  0  0  0  0  0  0  0  0  0
  127.0987  129.7196   57.7523 H   0  0  0  0  0  0  0  0  0  0  0  0
  128.4843  131.1517   56.2098 H   0  0  0  0  0  0  0  0  0  0  0  0
  127.4700  132.6591   56.3565 H   0  0  0  0  0  0  0  0  0  0  0  0
  130.1157  132.7159   55.8233 H   0  0  0  0  0  0  0  0  0  0  0  0
  129.2163  133.9933   56.7983 H   0  0  0  0  0  0  0  0  0  0  0  0
  131.0199  133.7393   58.1407 H   0  0  0  0  0  0  0  0  0  0  0  0
  1  2  1  0
  2  3  1  0
  3  4  1  0
  3  5  1  0
  5  6  1  0
  5  7  1  0
  7  8  1  0
  8  9  1  0
  8 10  1  0
 10 11  2  0
 10 12  1  0
 12 13  1  0
 13 14  1  0
 14 15  1  0
 15 16  1  6
 15 17  1  0
 17 18  1  0
 18 19  1  0
 19 20  1  0
 20 21  1  6
 19  2  1  0
 20  7  1  0
 20 13  1  0
 21 15  1  0
  1 22  1  0
  1 23  1  0
  1 24  1  0
  2 25  1  6
  3 26  1  1
  4 27  1  0
  5 28  1  1
  6 29  1  0
  7 30  1  1
  8 31  1  1
  9 32  1  0
  9 33  1  0
  9 34  1  0
 13 35  1  6
 16 36  1  0
 16 37  1  0
 16 38  1  0
 17 39  1  0
 17 40  1  0
 18 41  1  0
 18 42  1  0
 19 43  1  1
M  END
>  <Binding energies>  (1) 
[-6.44]

>  <Ligand effiencies>  (1) 
[-0.28]

>  <Interactions>  (1) 
["V-A:TYR:539:CD1:4873, V-A:PRO:540:N:4884, V-A:LEU:363:CD1:3189, V-A:PRO:540:CB:4885, V-A:PRO:540:CA:4883, V-A:ILE:538:CA:4860, V-A:TYR:531:CE2:4793, V-A:ALA:541:CB:4892, V-A:TYR:531:CZ:4794, V-A:MET:535:CE:4835, H-A:ASP:366:OD2:3215, V-A:TYR:539:C:4867, V-A:PRO:540:CD:4887, V-A:TYR:539:CE1:4875"]

$$$$
ZINC2356583149
     RDKit          3D

119119  0  0  0  0  0  0  0  0999 V2000
  130.1170  128.7980   60.1330 C   0  0  0  0  0  0  0  0  0  0  0  0
  128.5940  128.6670   60.1340 C   0  0  0  0  0  0  0  0  0  0  0  0
  127.7810  129.5500   59.2980 C   0  0  0  0  0  0  0  0  0  0  0  0
  126.8580  130.4270   59.7380 C   0  0  0  0  0  0  0  0  0  0  0  0
  126.0930  131.2650   58.8270 C   0  0  0  0  0  0  0  0  0  0  0  0
  126.2380  131.3550   57.4810 C   0  0  0  0  0  0  0  0  0  0  0  0
  127.2430  130.5220   56.6940 C   0  0  0  0  0  0  0  0  0  0  0  0
  125.3680  132.2450   56.7190 C   0  0  0  0  0  0  0  0  0  0  0  0
  125.6350  133.5360   56.4330 C   0  0  0  0  0  0  0  0  0  0  0  0
  124.7370  134.3750   55.6550 C   0  0  0  0  0  0  0  0  0  0  0  0
  124.3700  134.1860   54.3630 C   0  0  0  0  0  0  0  0  0  0  0  0
  124.9110  133.0520   53.5000 C   0  0  0  0  0  0  0  0  0  0  0  0
  123.4570  135.1270   53.7260 C   0  0  0  0  0  0  0  0  0  0  0  0
  123.8110  136.3130   53.1920 C   0  0  0  0  0  0  0  0  0  0  0  0
  122.8460  137.2890   52.5320 C   0  0  0  0  0  0  0  0  0  0  0  0
  123.3600  137.9610   51.2320 C   0  0  0  0  0  0  0  0  0  0  0  0
  123.9420  136.9050   50.2720 C   0  0  0  0  0  0  0  0  0  0  0  0
  122.2620  138.7860   50.5280 C   0  0  0  0  0  0  0  0  0  0  0  0
  124.4190  138.8450   51.5570 O   0  0  0  0  0  0  0  0  0  0  0  0
  127.9330  127.7520   60.8840 C   0  0  0  0  0  0  0  0  0  0  0  0
  128.5050  126.7710   61.7950 C   0  0  0  0  0  0  0  0  0  0  0  0
  127.8980  126.4200   62.9420 C   0  0  0  0  0  0  0  0  0  0  0  0
  128.4530  125.4490   63.8740 C   0  0  0  0  0  0  0  0  0  0  0  0
  127.9680  124.2130   64.1470 C   0  0  0  0  0  0  0  0  0  0  0  0
  126.7290  123.6390   63.4570 C   0  0  0  0  0  0  0  0  0  0  0  0
  128.6860  123.4120   65.1390 C   0  0  0  0  0  0  0  0  0  0  0  0
  130.0190  123.4340   65.3400 C   0  0  0  0  0  0  0  0  0  0  0  0
  130.6800  122.6060   66.3380 C   0  0  0  0  0  0  0  0  0  0  0  0
  131.6180  123.0000   67.2350 C   0  0  0  0  0  0  0  0  0  0  0  0
  132.1100  124.4450   67.3400 C   0  0  0  0  0  0  0  0  0  0  0  0
  132.1570  121.9780   68.1320 C   0  0  0  0  0  0  0  0  0  0  0  0
  131.7160  120.7080   68.2240 C   0  0  0  0  0  0  0  0  0  0  0  0
  132.2940  119.7470   69.1520 C   0  0  0  0  0  0  0  0  0  0  0  0
  132.0290  119.6340   70.4760 C   0  0  0  0  0  0  0  0  0  0  0  0
  131.0070  120.5020   71.2010 C   0  0  0  0  0  0  0  0  0  0  0  0
  132.7080  118.6100   71.2570 C   0  0  0  0  0  0  0  0  0  0  0  0
  133.9580  118.7150   71.7460 C   0  0  0  0  0  0  0  0  0  0  0  0
  134.6540  117.6630   72.6050 C   0  0  2  0  0  0  0  0  0  0  0  0
  134.1410  117.6810   73.9420 O   0  0  0  0  0  0  0  0  0  0  0  0
  133.0030  118.4610   74.1870 C   0  0  2  0  0  0  0  0  0  0  0  0
  131.8820  117.6380   74.4200 O   0  0  0  0  0  0  0  0  0  0  0  0
  130.6990  118.3830   74.7270 C   0  0  2  0  0  0  0  0  0  0  0  0
  129.6180  117.4220   75.2470 C   0  0  0  0  0  0  0  0  0  0  0  0
  130.2720  119.1700   73.4630 C   0  0  2  0  0  0  0  0  0  0  0  0
  129.9250  118.3070   72.3910 O   0  0  0  0  0  0  0  0  0  0  0  0
  131.4280  120.1010   73.0370 C   0  0  1  0  0  0  0  0  0  0  0  0
  131.5230  121.2180   73.9090 O   0  0  0  0  0  0  0  0  0  0  0  0
  132.7640  119.3120   72.9210 C   0  0  1  0  0  0  0  0  0  0  0  0
  133.8640  120.1580   72.6390 O   0  0  0  0  0  0  0  0  0  0  0  0
  136.2050  117.8170   72.6820 C   0  0  0  0  0  0  0  0  0  0  0  0
  136.9300  117.2220   71.4550 C   0  0  0  0  0  0  0  0  0  0  0  0
  136.6060  119.2940   72.8870 C   0  0  0  0  0  0  0  0  0  0  0  0
  136.6740  117.1200   73.8240 O   0  0  0  0  0  0  0  0  0  0  0  0
  130.4830  128.8295   61.1699 H   0  0  0  0  0  0  0  0  0  0  0  0
  130.5590  127.9346   59.6142 H   0  0  0  0  0  0  0  0  0  0  0  0
  130.4050  129.7242   59.6142 H   0  0  0  0  0  0  0  0  0  0  0  0
  127.9376  129.4927   58.2107 H   0  0  0  0  0  0  0  0  0  0  0  0
  126.6770  130.5123   60.8196 H   0  0  0  0  0  0  0  0  0  0  0  0
  125.3120  131.8941   59.2789 H   0  0  0  0  0  0  0  0  0  0  0  0
  127.8970  129.9799   57.3928 H   0  0  0  0  0  0  0  0  0  0  0  0
  126.7055  129.8010   56.0606 H   0  0  0  0  0  0  0  0  0  0  0  0
  127.8518  131.1840   56.0606 H   0  0  0  0  0  0  0  0  0  0  0  0
  124.4190  131.8302   56.3484 H   0  0  0  0  0  0  0  0  0  0  0  0
  126.5733  133.9736   56.8046 H   0  0  0  0  0  0  0  0  0  0  0  0
  124.3125  135.2516   56.1662 H   0  0  0  0  0  0  0  0  0  0  0  0
  125.2940  132.2493   54.1473 H   0  0  0  0  0  0  0  0  0  0  0  0
  124.1041  132.6575   52.8650 H   0  0  0  0  0  0  0  0  0  0  0  0
  125.7253  133.4309   52.8650 H   0  0  0  0  0  0  0  0  0  0  0  0
  122.3944  134.8469   53.6772 H   0  0  0  0  0  0  0  0  0  0  0  0
  124.8730  136.5962   53.2361 H   0  0  0  0  0  0  0  0  0  0  0  0
  121.9238  136.7411   52.2884 H   0  0  0  0  0  0  0  0  0  0  0  0
  122.6996  138.1044   53.2556 H   0  0  0  0  0  0  0  0  0  0  0  0
  124.3923  136.0880   50.8550 H   0  0  0  0  0  0  0  0  0  0  0  0
  123.1380  136.5031   49.6379 H   0  0  0  0  0  0  0  0  0  0  0  0
  124.7112  137.3702   49.6379 H   0  0  0  0  0  0  0  0  0  0  0  0
  121.6229  139.2662   51.2836 H   0  0  0  0  0  0  0  0  0  0  0  0
  122.7298  139.5580   49.8993 H   0  0  0  0  0  0  0  0  0  0  0  0
  121.6507  138.1219   49.8993 H   0  0  0  0  0  0  0  0  0  0  0  0
  124.0880  139.7450   51.5050 H   0  0  0  0  0  0  0  0  0  0  0  0
  126.8367  127.7504   60.7939 H   0  0  0  0  0  0  0  0  0  0  0  0
  129.4655  126.3015   61.5363 H   0  0  0  0  0  0  0  0  0  0  0  0
  126.9343  126.8897   63.1885 H   0  0  0  0  0  0  0  0  0  0  0  0
  129.3627  125.7504   64.4141 H   0  0  0  0  0  0  0  0  0  0  0  0
  126.0077  123.3048   64.2173 H   0  0  0  0  0  0  0  0  0  0  0  0
  126.2667  124.4147   62.8288 H   0  0  0  0  0  0  0  0  0  0  0  0
  127.0218  122.7848   62.8288 H   0  0  0  0  0  0  0  0  0  0  0  0
  128.0902  122.7376   65.7717 H   0  0  0  0  0  0  0  0  0  0  0  0
  130.6333  124.1065   64.7233 H   0  0  0  0  0  0  0  0  0  0  0  0
  130.3872  121.5461   66.3680 H   0  0  0  0  0  0  0  0  0  0  0  0
  132.2050  124.7239   68.3998 H   0  0  0  0  0  0  0  0  0  0  0  0
  133.0896  124.5355   66.8478 H   0  0  0  0  0  0  0  0  0  0  0  0
  131.3892  125.1145   66.8478 H   0  0  0  0  0  0  0  0  0  0  0  0
  132.9918  122.2705   68.7859 H   0  0  0  0  0  0  0  0  0  0  0  0
  130.8891  120.3858   67.5741 H   0  0  0  0  0  0  0  0  0  0  0  0
  133.0232  119.0373   68.7342 H   0  0  0  0  0  0  0  0  0  0  0  0
  131.1371  120.3915   72.2877 H   0  0  0  0  0  0  0  0  0  0  0  0
  131.1546  121.5550   70.9193 H   0  0  0  0  0  0  0  0  0  0  0  0
  129.9918  120.1859   70.9193 H   0  0  0  0  0  0  0  0  0  0  0  0
  132.1580  117.6800   71.4632 H   0  0  0  0  0  0  0  0  0  0  0  0
  134.5210  119.6295   71.5080 H   0  0  0  0  0  0  0  0  0  0  0  0
  134.4396  116.7076   72.1037 H   0  0  0  0  0  0  0  0  0  0  0  0
  133.1505  119.0922   75.0757 H   0  0  0  0  0  0  0  0  0  0  0  0
  130.8749  119.1187   75.5256 H   0  0  0  0  0  0  0  0  0  0  0  0
  129.6223  117.4259   76.3470 H   0  0  0  0  0  0  0  0  0  0  0  0
  128.6323  117.7474   74.8831 H   0  0  0  0  0  0  0  0  0  0  0  0
  129.8257  116.4049   74.8831 H   0  0  0  0  0  0  0  0  0  0  0  0
  129.3766  119.7593   73.7101 H   0  0  0  0  0  0  0  0  0  0  0  0
  129.1970  118.7020   71.9060 H   0  0  0  0  0  0  0  0  0  0  0  0
  131.2105  120.4987   72.0347 H   0  0  0  0  0  0  0  0  0  0  0  0
  130.8110  121.8280   73.7040 H   0  0  0  0  0  0  0  0  0  0  0  0
  132.6740  118.6293   72.0632 H   0  0  0  0  0  0  0  0  0  0  0  0
  133.5610  120.8670   72.0660 H   0  0  0  0  0  0  0  0  0  0  0  0
  137.7390  116.5580   71.7935 H   0  0  0  0  0  0  0  0  0  0  0  0
  136.2139  116.6478   70.8488 H   0  0  0  0  0  0  0  0  0  0  0  0
  137.3535  118.0364   70.8488 H   0  0  0  0  0  0  0  0  0  0  0  0
  136.6651  119.5118   73.9636 H   0  0  0  0  0  0  0  0  0  0  0  0
  137.5860  119.4758   72.4217 H   0  0  0  0  0  0  0  0  0  0  0  0
  135.8525  119.9465   72.4217 H   0  0  0  0  0  0  0  0  0  0  0  0
  136.5570  117.6830   74.5930 H   0  0  0  0  0  0  0  0  0  0  0  0
  1  2  1  0
  2  3  1  0
  3  4  2  0
  4  5  1  0
  5  6  2  0
  6  7  1  0
  6  8  1  0
  8  9  2  0
  9 10  1  0
 10 11  2  0
 11 12  1  0
 11 13  1  0
 13 14  2  0
 14 15  1  0
 15 16  1  0
 16 17  1  0
 16 18  1  0
 16 19  1  0
  2 20  2  0
 20 21  1  0
 21 22  2  0
 22 23  1  0
 23 24  2  0
 24 25  1  0
 24 26  1  0
 26 27  2  0
 27 28  1  0
 28 29  2  0
 29 30  1  0
 29 31  1  0
 31 32  2  0
 32 33  1  0
 33 34  2  0
 34 35  1  0
 34 36  1  0
 36 37  2  0
 37 38  1  0
 38 39  1  0
 39 40  1  0
 40 41  1  0
 41 42  1  0
 42 43  1  0
 42 44  1  0
 44 45  1  0
 44 46  1  0
 46 47  1  0
 46 48  1  0
 48 49  1  0
 38 50  1  0
 50 51  1  0
 50 52  1  0
 50 53  1  0
 48 40  1  0
  1 54  1  0
  1 55  1  0
  1 56  1  0
  3 57  1  0
  4 58  1  0
  5 59  1  0
  7 60  1  0
  7 61  1  0
  7 62  1  0
  8 63  1  0
  9 64  1  0
 10 65  1  0
 12 66  1  0
 12 67  1  0
 12 68  1  0
 13 69  1  0
 14 70  1  0
 15 71  1  0
 15 72  1  0
 17 73  1  0
 17 74  1  0
 17 75  1  0
 18 76  1  0
 18 77  1  0
 18 78  1  0
 19 79  1  0
 20 80  1  0
 21 81  1  0
 22 82  1  0
 23 83  1  0
 25 84  1  0
 25 85  1  0
 25 86  1  0
 26 87  1  0
 27 88  1  0
 28 89  1  0
 30 90  1  0
 30 91  1  0
 30 92  1  0
 31 93  1  0
 32 94  1  0
 33 95  1  0
 35 96  1  0
 35 97  1  0
 35 98  1  0
 36 99  1  0
 37100  1  0
 38101  1  6
 40102  1  1
 42103  1  1
 43104  1  0
 43105  1  0
 43106  1  0
 44107  1  1
 45108  1  0
 46109  1  6
 47110  1  0
 48111  1  6
 49112  1  0
 51113  1  0
 51114  1  0
 51115  1  0
 52116  1  0
 52117  1  0
 52118  1  0
 53119  1  0
M  END
>  <Binding energies>  (1) 
[185000000.0]

>  <Ligand effiencies>  (1) 
[3189655.172413793]

>  <Interactions>  (1) 
["H-A:TYR:484:O:4338, V-B:GLU:543:CB:9878, V-A:LEU:475:CA:4254, V-B:ALA:541:CB:9864, V-A:ASP:473:CB:4239, V-A:TYR:484:CE2:4346, V-A:VAL:474:CA:4246, V-B:GLU:543:CG:9879, V-A:TYR:539:CE2:4876, H-A:ASP:473:O:4236, H-A:ASP:485:O:4352, V-A:HIS:456:CD2:4068, V-A:PRO:486:N:4363, V-A:TYR:539:CD1:4873, V-A:VAL:474:CG1:4249, V-A:LEU:472:CA:4228, V-A:TYR:539:CZ:4877, V-A:LEU:472:C:4226, V-A:PRO:486:CD:4366, V-A:LEU:475:CD1:4258, V-A:ASP:473:CG:4240, V-A:TYR:484:CA:4339, V-A:TYR:484:CZ:4347, H-A:VAL:474:N:4247, H-A:ASP:473:OD1:4241, V-A:LEU:475:CB:4256, V-A:VAL:474:CG2:4250, V-A:TYR:484:CD1:4343, V-B:GLU:543:CA:9876, H-A:ASP:485:N:4354, H-A:ASP:473:N:4238, V-A:TYR:484:CD2:4344, V-A:HIS:456:CE1:4070, V-A:PRO:486:C:4360, V-A:TYR:484:CG:4342, H-A:TYR:484:N:4340, V-B:GLU:543:CD:9880, V-A:MET:535:CE:4835, V-A:ASP:473:C:4235, V-A:PRO:486:CA:4362, V-A:TYR:484:CB:4341, V-A:VAL:474:C:4244, V-A:TYR:484:CE1:4345, V-A:ASP:485:CA:4353, V-A:ASP:485:C:4351, V-A:TYR:539:CG:4872, H-A:LEU:487:N:4370, H-A:ASP:473:OD2:4242, V-A:TYR:539:CD2:4874, V-A:VAL:474:CB:4248, V-A:ASP:473:CA:4237, H-A:LEU:472:O:4227, V-A:TYR:484:C:4337, V-A:LEU:472:CD2:4233, V-A:TYR:539:CE1:4875"]

$$$$
ZINC2356585397
     RDKit          3D

 87 92  0  0  0  0  0  0  0  0999 V2000
  129.7730  133.0190   57.5810 C   0  0  0  0  0  0  0  0  0  0  0  0
  130.1640  131.7320   57.1210 O   0  0  0  0  0  0  0  0  0  0  0  0
  129.3820  130.6790   57.6020 C   0  0  2  0  0  0  0  0  0  0  0  0
  129.0860  130.8560   58.9610 O   0  0  0  0  0  0  0  0  0  0  0  0
  129.9000  130.0620   59.8210 C   0  0  2  0  0  0  0  0  0  0  0  0
  130.5690  130.9380   60.9030 C   0  0  1  0  0  0  0  0  0  0  0  0
  130.6140  132.3320   60.6930 O   0  0  0  0  0  0  0  0  0  0  0  0
  129.7640  131.9050   61.7260 C   0  0  0  0  0  0  0  0  0  0  0  0
  128.2480  132.0660   61.5050 C   0  0  0  0  0  0  0  0  0  0  0  0
  130.2260  132.1730   63.1670 C   0  0  0  0  0  0  0  0  0  0  0  0
  130.8780  129.4040   58.8550 C   0  0  0  0  0  0  0  0  0  0  0  0
  130.1850  129.3760   57.4940 C   0  0  1  0  0  0  0  0  0  0  0  0
  129.3060  128.1280   57.1180 C   0  0  2  0  0  0  0  0  0  0  0  0
  127.8520  128.1850   57.6080 C   0  0  0  0  0  0  0  0  0  0  0  0
  127.8960  127.3420   58.8600 C   0  0  0  0  0  0  0  0  0  0  0  0
  128.9980  126.5640   58.9090 C   0  0  0  0  0  0  0  0  0  0  0  0
  129.4220  125.5330   59.9930 C   0  0  1  0  0  0  0  0  0  0  0  0
  128.8890  124.1540   59.4940 C   0  0  0  0  0  0  0  0  0  0  0  0
  130.9960  125.6030   60.1700 C   0  0  2  0  0  0  0  0  0  0  0  0
  131.7130  125.4550   58.8000 C   0  0  0  0  0  0  0  0  0  0  0  0
  131.3440  126.6250   57.8810 C   0  0  0  0  0  0  0  0  0  0  0  0
  129.8130  126.7310   57.6070 C   0  0  2  0  0  0  0  0  0  0  0  0
  129.4080  125.6480   56.5660 C   0  0  0  0  0  0  0  0  0  0  0  0
  131.5860  124.7230   61.3500 C   0  0  1  0  0  0  0  0  0  0  0  0
  131.5590  123.2010   61.0170 C   0  0  0  0  0  0  0  0  0  0  0  0
  133.0590  125.0540   61.6310 C   0  0  0  0  0  0  0  0  0  0  0  0
  133.6530  124.9450   62.8350 C   0  0  0  0  0  0  0  0  0  0  0  0
  132.9660  124.4810   64.0330 C   0  0  0  0  0  0  0  0  0  0  0  0
  133.6270  124.1470   65.0180 O   0  0  0  0  0  0  0  0  0  0  0  0
  131.4040  124.5040   64.0350 C   0  0  0  0  0  0  0  0  0  0  0  0
  130.9190  123.0530   64.3130 C   0  0  0  0  0  0  0  0  0  0  0  0
  131.0090  125.4460   65.2100 C   0  0  0  0  0  0  0  0  0  0  0  0
  130.8260  125.1010   62.6850 C   0  0  2  0  0  0  0  0  0  0  0  0
  129.2940  124.9470   62.5140 C   0  0  0  0  0  0  0  0  0  0  0  0
  128.7500  125.8500   61.3760 C   0  0  1  0  0  0  0  0  0  0  0  0
  128.9280  127.2350   61.7160 O   0  0  0  0  0  0  0  0  0  0  0  0
  127.9870  127.9380   62.3880 C   0  0  0  0  0  0  0  0  0  0  0  0
  128.3420  128.1330   63.8560 C   0  0  0  0  0  0  0  0  0  0  0  0
  126.9440  128.3950   61.9160 O   0  0  0  0  0  0  0  0  0  0  0  0
  129.7697  133.0299   58.6809 H   0  0  0  0  0  0  0  0  0  0  0  0
  130.4827  133.7726   57.2090 H   0  0  0  0  0  0  0  0  0  0  0  0
  128.7640  133.2504   57.2090 H   0  0  0  0  0  0  0  0  0  0  0  0
  128.4542  130.6463   57.0119 H   0  0  0  0  0  0  0  0  0  0  0  0
  129.3515  129.3084   60.4051 H   0  0  0  0  0  0  0  0  0  0  0  0
  131.2798  130.1303   61.1322 H   0  0  0  0  0  0  0  0  0  0  0  0
  127.7392  132.1200   62.4788 H   0  0  0  0  0  0  0  0  0  0  0  0
  128.0560  132.9896   60.9392 H   0  0  0  0  0  0  0  0  0  0  0  0
  127.8663  131.2033   60.9392 H   0  0  0  0  0  0  0  0  0  0  0  0
  129.4951  131.7490   63.8712 H   0  0  0  0  0  0  0  0  0  0  0  0
  131.2075  131.7040   63.3306 H   0  0  0  0  0  0  0  0  0  0  0  0
  130.3061  133.2578   63.3306 H   0  0  0  0  0  0  0  0  0  0  0  0
  131.8075  129.9893   58.7969 H   0  0  0  0  0  0  0  0  0  0  0  0
  131.1464  128.3903   59.1873 H   0  0  0  0  0  0  0  0  0  0  0  0
  130.9052  129.2916   56.6668 H   0  0  0  0  0  0  0  0  0  0  0  0
  129.3862  128.2058   56.0237 H   0  0  0  0  0  0  0  0  0  0  0  0
  127.5491  129.2179   57.8346 H   0  0  0  0  0  0  0  0  0  0  0  0
  127.1242  127.8282   56.8643 H   0  0  0  0  0  0  0  0  0  0  0  0
  127.1210  127.3598   59.6405 H   0  0  0  0  0  0  0  0  0  0  0  0
  128.6442  123.5206   60.3594 H   0  0  0  0  0  0  0  0  0  0  0  0
  127.9858  124.3084   58.8854 H   0  0  0  0  0  0  0  0  0  0  0  0
  129.6613  123.6608   58.8854 H   0  0  0  0  0  0  0  0  0  0  0  0
  131.2279  126.6149   60.5336 H   0  0  0  0  0  0  0  0  0  0  0  0
  132.8015  125.4466   58.9585 H   0  0  0  0  0  0  0  0  0  0  0  0
  131.3952  124.5135   58.3281 H   0  0  0  0  0  0  0  0  0  0  0  0
  131.6803  127.5599   58.3530 H   0  0  0  0  0  0  0  0  0  0  0  0
  131.8380  126.4496   56.9139 H   0  0  0  0  0  0  0  0  0  0  0  0
  129.0695  124.7428   57.0914 H   0  0  0  0  0  0  0  0  0  0  0  0
  128.5928  126.0323   55.9353 H   0  0  0  0  0  0  0  0  0  0  0  0
  130.2753  125.4031   55.9353 H   0  0  0  0  0  0  0  0  0  0  0  0
  131.5487  122.6213   61.9518 H   0  0  0  0  0  0  0  0  0  0  0  0
  130.6566  122.9696   60.4321 H   0  0  0  0  0  0  0  0  0  0  0  0
  132.4526  122.9377   60.4321 H   0  0  0  0  0  0  0  0  0  0  0  0
  133.6730  125.4053   60.7887 H   0  0  0  0  0  0  0  0  0  0  0  0
  134.7145  125.2213   62.9182 H   0  0  0  0  0  0  0  0  0  0  0  0
  130.8634  122.8867   65.3989 H   0  0  0  0  0  0  0  0  0  0  0  0
  129.9234  122.9076   63.8684 H   0  0  0  0  0  0  0  0  0  0  0  0
  131.6271  122.3382   63.8684 H   0  0  0  0  0  0  0  0  0  0  0  0
  131.2186  124.9460   66.1671 H   0  0  0  0  0  0  0  0  0  0  0  0
  131.5929  126.3761   65.1465 H   0  0  0  0  0  0  0  0  0  0  0  0
  129.9364  125.6814   65.1465 H   0  0  0  0  0  0  0  0  0  0  0  0
  131.0409  126.1689   62.8383 H   0  0  0  0  0  0  0  0  0  0  0  0
  129.0655  123.8975   62.2764 H   0  0  0  0  0  0  0  0  0  0  0  0
  128.8116  125.2523   63.4543 H   0  0  0  0  0  0  0  0  0  0  0  0
  127.6762  125.6363   61.2698 H   0  0  0  0  0  0  0  0  0  0  0  0
  127.5512  127.6986   64.4853 H   0  0  0  0  0  0  0  0  0  0  0  0
  129.2980  127.6334   64.0715 H   0  0  0  0  0  0  0  0  0  0  0  0
  128.4332  129.2078   64.0715 H   0  0  0  0  0  0  0  0  0  0  0  0
  1  2  1  0
  2  3  1  0
  3  4  1  0
  4  5  1  0
  5  6  1  0
  6  7  1  0
  7  8  1  0
  8  9  1  0
  8 10  1  0
  5 11  1  0
 11 12  1  0
 12 13  1  0
 13 14  1  0
 14 15  1  0
 15 16  2  0
 16 17  1  0
 17 18  1  6
 17 19  1  0
 19 20  1  0
 20 21  1  0
 21 22  1  0
 22 23  1  6
 19 24  1  0
 24 25  1  6
 24 26  1  0
 26 27  2  0
 27 28  1  0
 28 29  2  0
 28 30  1  0
 30 31  1  0
 30 32  1  0
 30 33  1  0
 33 34  1  0
 34 35  1  0
 35 36  1  0
 36 37  1  0
 37 38  1  0
 37 39  2  0
 12  3  1  0
 22 13  1  0
 33 24  1  0
  8  6  1  0
 22 16  1  0
 35 17  1  0
  1 40  1  0
  1 41  1  0
  1 42  1  0
  3 43  1  6
  5 44  1  1
  6 45  1  1
  9 46  1  0
  9 47  1  0
  9 48  1  0
 10 49  1  0
 10 50  1  0
 10 51  1  0
 11 52  1  0
 11 53  1  0
 12 54  1  6
 13 55  1  6
 14 56  1  0
 14 57  1  0
 15 58  1  0
 18 59  1  0
 18 60  1  0
 18 61  1  0
 19 62  1  1
 20 63  1  0
 20 64  1  0
 21 65  1  0
 21 66  1  0
 23 67  1  0
 23 68  1  0
 23 69  1  0
 25 70  1  0
 25 71  1  0
 25 72  1  0
 26 73  1  0
 27 74  1  0
 31 75  1  0
 31 76  1  0
 31 77  1  0
 32 78  1  0
 32 79  1  0
 32 80  1  0
 33 81  1  1
 34 82  1  0
 34 83  1  0
 35 84  1  6
 38 85  1  0
 38 86  1  0
 38 87  1  0
M  END
>  <Binding energies>  (1) 
[-8.37]

>  <Ligand effiencies>  (1) 
[-0.2146153846153846]

>  <Interactions>  (1) 
["V-A:PRO:540:N:4884, V-B:TYR:539:CZ:9849, V-A:PRO:540:CA:4883, H-A:ALA:541:N:4891, V-A:ALA:541:CA:4890, V-A:ALA:541:CB:4892, V-A:GLU:543:CG:4907, V-B:GLU:543:CD:9880, V-A:MET:535:CE:4835, V-B:TYR:539:CE2:9848, V-A:TYR:484:CE2:4346, V-A:GLU:543:CD:4908, V-A:TYR:539:C:4867, V-A:LEU:475:CD2:4259, V-A:ARG:545:CZ:4926, H-A:GLY:454:N:4050, V-A:ASP:366:CG:3213, H-A:TYR:484:OH:4348"]

$$$$
ZINC2356594954
     RDKit          3D

 57 59  0  0  0  0  0  0  0  0999 V2000
  125.5540  124.0760   59.3830 C   0  0  0  0  0  0  0  0  0  0  0  0
  126.9090  123.4010   59.2220 C   0  0  0  0  0  0  0  0  0  0  0  0
  127.7370  122.8980   60.1700 C   0  0  0  0  0  0  0  0  0  0  0  0
  129.0520  122.2200   59.7940 C   0  0  0  0  0  0  0  0  0  0  0  0
  127.4630  123.0020   61.6160 C   0  0  0  0  0  0  0  0  0  0  0  0
  126.3340  123.1700   62.0820 O   0  0  0  0  0  0  0  0  0  0  0  0
  128.5890  122.9210   62.3760 O   0  0  0  0  0  0  0  0  0  0  0  0
  128.9910  123.9710   63.2650 C   0  0  2  0  0  0  0  0  0  0  0  0
  129.3130  125.2310   62.4460 C   0  0  0  0  0  0  0  0  0  0  0  0
  130.2460  124.9580   61.2590 C   0  0  1  0  0  0  0  0  0  0  0  0
  130.4110  126.1670   60.5070 O   0  0  0  0  0  0  0  0  0  0  0  0
  129.9410  126.2950   59.2450 C   0  0  0  0  0  0  0  0  0  0  0  0
  130.1570  127.6980   58.6930 C   0  0  0  0  0  0  0  0  0  0  0  0
  129.3910  125.4200   58.5760 O   0  0  0  0  0  0  0  0  0  0  0  0
  131.6650  124.3470   61.5240 C   0  0  1  0  0  0  0  0  0  0  0  0
  132.5240  124.7180   60.2650 C   0  0  0  0  0  0  0  0  0  0  0  0
  132.2740  124.6440   62.9530 C   0  0  2  0  0  0  0  0  0  0  0  0
  133.8100  124.3380   62.9950 C   0  0  0  0  0  0  0  0  0  0  0  0
  134.6480  125.0980   63.4740 O   0  0  0  0  0  0  0  0  0  0  0  0
  134.1290  123.0230   62.3880 C   0  0  0  0  0  0  0  0  0  0  0  0
  133.1120  122.2760   61.8710 C   0  0  0  0  0  0  0  0  0  0  0  0
  133.3290  120.9280   61.2140 C   0  0  0  0  0  0  0  0  0  0  0  0
  131.6650  122.8420   61.9830 C   0  0  1  0  0  0  0  0  0  0  0  0
  131.5580  123.3510   63.4650 C   0  0  2  0  0  0  0  0  0  0  0  0
  130.1610  123.4860   64.1720 C   0  0  0  0  0  0  0  0  0  0  0  0
  130.3200  124.5320   65.3080 C   0  0  0  0  0  0  0  0  0  0  0  0
  129.8350  122.1180   64.8370 C   0  0  0  0  0  0  0  0  0  0  0  0
  125.3258  124.1897   60.4531 H   0  0  0  0  0  0  0  0  0  0  0  0
  125.5790  125.0669   58.9061 H   0  0  0  0  0  0  0  0  0  0  0  0
  124.7781  123.4591   58.9061 H   0  0  0  0  0  0  0  0  0  0  0  0
  127.2681  123.3080   58.1864 H   0  0  0  0  0  0  0  0  0  0  0  0
  129.5949  121.9401   60.7088 H   0  0  0  0  0  0  0  0  0  0  0  0
  128.8428  121.3174   59.2011 H   0  0  0  0  0  0  0  0  0  0  0  0
  129.6659  122.9140   59.2011 H   0  0  0  0  0  0  0  0  0  0  0  0
  128.1741  124.2401   63.9507 H   0  0  0  0  0  0  0  0  0  0  0  0
  128.3707  125.6482   62.0613 H   0  0  0  0  0  0  0  0  0  0  0  0
  129.8324  125.9323   63.1156 H   0  0  0  0  0  0  0  0  0  0  0  0
  129.7201  124.1523   60.7258 H   0  0  0  0  0  0  0  0  0  0  0  0
  130.2662  128.4072   59.5267 H   0  0  0  0  0  0  0  0  0  0  0  0
  131.0681  127.7134   58.0768 H   0  0  0  0  0  0  0  0  0  0  0  0
  129.2927  127.9867   58.0768 H   0  0  0  0  0  0  0  0  0  0  0  0
  133.4889  125.1348   60.5893 H   0  0  0  0  0  0  0  0  0  0  0  0
  132.6988  123.8152   59.6614 H   0  0  0  0  0  0  0  0  0  0  0  0
  131.9866  125.4642   59.6614 H   0  0  0  0  0  0  0  0  0  0  0  0
  132.1607  125.6402   63.4055 H   0  0  0  0  0  0  0  0  0  0  0  0
  135.1659  122.6573   62.3554 H   0  0  0  0  0  0  0  0  0  0  0  0
  133.4530  120.1578   61.9895 H   0  0  0  0  0  0  0  0  0  0  0  0
  132.4590  120.6810   60.5877 H   0  0  0  0  0  0  0  0  0  0  0  0
  134.2325  120.9665   60.5877 H   0  0  0  0  0  0  0  0  0  0  0  0
  130.9814  122.1136   61.5224 H   0  0  0  0  0  0  0  0  0  0  0  0
  131.9301  122.7480   64.3064 H   0  0  0  0  0  0  0  0  0  0  0  0
  130.2435  124.0288   66.2831 H   0  0  0  0  0  0  0  0  0  0  0  0
  131.3025  125.0192   65.2229 H   0  0  0  0  0  0  0  0  0  0  0  0
  129.5266  125.2892   65.2229 H   0  0  0  0  0  0  0  0  0  0  0  0
  129.8609  122.2268   65.9313 H   0  0  0  0  0  0  0  0  0  0  0  0
  128.8331  121.7881   64.5250 H   0  0  0  0  0  0  0  0  0  0  0  0
  130.5805  121.3717   64.5250 H   0  0  0  0  0  0  0  0  0  0  0  0
  1  2  1  0
  2  3  2  0
  3  4  1  0
  3  5  1  0
  5  6  2  0
  5  7  1  0
  7  8  1  0
  8  9  1  0
  9 10  1  0
 10 11  1  0
 11 12  1  0
 12 13  1  0
 12 14  2  0
 10 15  1  0
 15 16  1  6
 15 17  1  0
 17 18  1  0
 18 19  2  0
 18 20  1  0
 20 21  2  0
 21 22  1  0
 21 23  1  0
 23 24  1  0
 24 25  1  0
 25 26  1  0
 25 27  1  0
 25  8  1  0
 23 15  1  0
 24 17  1  0
  1 28  1  0
  1 29  1  0
  1 30  1  0
  2 31  1  0
  4 32  1  0
  4 33  1  0
  4 34  1  0
  8 35  1  1
  9 36  1  0
  9 37  1  0
 10 38  1  6
 13 39  1  0
 13 40  1  0
 13 41  1  0
 16 42  1  0
 16 43  1  0
 16 44  1  0
 17 45  1  1
 20 46  1  0
 22 47  1  0
 22 48  1  0
 22 49  1  0
 23 50  1  6
 24 51  1  1
 26 52  1  0
 26 53  1  0
 26 54  1  0
 27 55  1  0
 27 56  1  0
 27 57  1  0
M  END
>  <Binding energies>  (1) 
[-5.36]

>  <Ligand effiencies>  (1) 
[-0.18482758620689657]

>  <Interactions>  (1) 
["V-A:ILE:369:CG2:3237, V-B:PRO:540:CA:9855, V-A:GLY:454:CA:4049, V-B:ALA:541:CB:9864, H-A:ARG:545:NH1:4927, V-A:TYR:484:CE2:4346, V-B:TYR:539:CE2:9848, V-B:GLU:543:CG:9879, V-B:TYR:539:C:9839, V-A:ASP:366:CG:3213, H-B:ALA:541:N:9863, V-A:TYR:484:CZ:4347, V-B:PRO:540:CB:9857, H-A:GLY:454:N:4050, V-B:PRO:540:N:9856, V-A:ILE:369:CD1:3239, V-B:TYR:539:CD2:9846, V-A:SER:385:CB:3409, V-B:GLU:543:CD:9880, V-A:LEU:475:CD2:4259, H-A:ARG:545:NH2:4928, V-A:ARG:545:CZ:4926, H-A:ARG:545:NE:4924, V-A:SER:385:CA:3407, V-B:PRO:540:C:9853"]

$$$$
ZINC2356604667
     RDKit          3D

 93 96  0  0  0  0  0  0  0  0999 V2000
  131.5850  127.4960   58.6350 C   0  0  0  0  0  0  0  0  0  0  0  0
  130.9270  127.6400   59.8010 C   0  0  0  0  0  0  0  0  0  0  0  0
  131.1440  126.7310   61.0120 C   0  0  0  0  0  0  0  0  0  0  0  0
  131.4790  125.2280   60.8070 C   0  0  2  0  0  0  0  0  0  0  0  0
  132.1060  125.1060   59.5270 O   0  0  0  0  0  0  0  0  0  0  0  0
  133.2420  124.3950   59.3520 C   0  0  0  0  0  0  0  0  0  0  0  0
  134.0420  124.2600   60.6410 C   0  0  0  0  0  0  0  0  0  0  0  0
  133.6320  123.8890   58.2990 O   0  0  0  0  0  0  0  0  0  0  0  0
  130.2190  124.2870   60.9090 C   0  0  2  0  0  0  0  0  0  0  0  0
  130.6270  122.9380   61.1840 O   0  0  0  0  0  0  0  0  0  0  0  0
  131.5520  122.6230   62.1310 C   0  0  0  0  0  0  0  0  0  0  0  0
  132.4010  121.7390   61.9880 O   0  0  0  0  0  0  0  0  0  0  0  0
  131.4410  123.4770   63.3580 C   0  0  0  0  0  0  0  0  0  0  0  0
  130.2670  123.5110   64.1310 C   0  0  0  0  0  0  0  0  0  0  0  0
  130.2000  124.2940   65.2780 C   0  0  0  0  0  0  0  0  0  0  0  0
  131.3040  125.0480   65.6650 C   0  0  0  0  0  0  0  0  0  0  0  0
  132.4750  125.0240   64.9140 C   0  0  0  0  0  0  0  0  0  0  0  0
  132.5450  124.2400   63.7660 C   0  0  0  0  0  0  0  0  0  0  0  0
  129.2540  124.3150   59.6680 C   0  0  0  0  0  0  0  0  0  0  0  0
  130.0030  124.8760   58.4290 C   0  0  0  0  0  0  0  0  0  0  0  0
  128.8610  122.8580   59.3140 C   0  0  0  0  0  0  0  0  0  0  0  0
  127.9770  125.1240   59.9330 C   0  0  0  0  0  0  0  0  0  0  0  0
  127.7520  126.4070   59.5910 C   0  0  0  0  0  0  0  0  0  0  0  0
  126.4890  127.1800   59.9420 C   0  0  2  0  0  0  0  0  0  0  0  0
  125.8100  127.8100   58.7110 C   0  0  0  0  0  0  0  0  0  0  0  0
  126.7920  128.2110   61.0580 C   0  0  0  0  0  0  0  0  0  0  0  0
  125.9870  129.1170   61.2800 O   0  0  0  0  0  0  0  0  0  0  0  0
  128.0920  128.0500   61.9160 C   0  0  2  0  0  0  0  0  0  0  0  0
  128.3830  126.6650   62.0080 O   0  0  0  0  0  0  0  0  0  0  0  0
  127.8380  128.6400   63.3230 C   0  0  0  0  0  0  0  0  0  0  0  0
  128.1710  130.1490   63.2540 C   0  0  2  0  0  0  0  0  0  0  0  0
  128.7630  130.6900   64.5710 C   0  0  0  0  0  0  0  0  0  0  0  0
  126.9640  130.8870   63.1050 O   0  0  0  0  0  0  0  0  0  0  0  0
  129.1650  130.3030   62.0550 C   0  0  2  0  0  0  0  0  0  0  0  0
  128.6770  131.2370   61.0860 O   0  0  0  0  0  0  0  0  0  0  0  0
  129.4840  131.8270   60.1660 C   0  0  0  0  0  0  0  0  0  0  0  0
  129.0650  132.4300   59.1740 O   0  0  0  0  0  0  0  0  0  0  0  0
  130.9370  131.7260   60.5210 C   0  0  0  0  0  0  0  0  0  0  0  0
  131.3850  131.9010   61.8400 C   0  0  0  0  0  0  0  0  0  0  0  0
  132.7400  131.7990   62.1440 C   0  0  0  0  0  0  0  0  0  0  0  0
  133.6550  131.5170   61.1340 C   0  0  0  0  0  0  0  0  0  0  0  0
  133.2260  131.3330   59.8230 C   0  0  0  0  0  0  0  0  0  0  0  0
  131.8710  131.4320   59.5170 C   0  0  0  0  0  0  0  0  0  0  0  0
  129.3280  128.8810   61.4500 C   0  0  2  0  0  0  0  0  0  0  0  0
  129.8920  128.7650   59.9910 C   0  0  2  0  0  0  0  0  0  0  0  0
  128.8540  128.7130   59.0020 O   0  0  0  0  0  0  0  0  0  0  0  0
  129.0370  129.1700   57.7390 C   0  0  0  0  0  0  0  0  0  0  0  0
  128.6220  128.1530   56.6820 C   0  0  0  0  0  0  0  0  0  0  0  0
  129.4960  130.2670   57.4210 O   0  0  0  0  0  0  0  0  0  0  0  0
  131.3829  128.1840   57.8008 H   0  0  0  0  0  0  0  0  0  0  0  0
  132.3246  126.6904   58.5167 H   0  0  0  0  0  0  0  0  0  0  0  0
  131.9734  127.1649   61.5898 H   0  0  0  0  0  0  0  0  0  0  0  0
  130.1531  126.7056   61.4889 H   0  0  0  0  0  0  0  0  0  0  0  0
  132.1474  124.8977   61.6158 H   0  0  0  0  0  0  0  0  0  0  0  0
  133.3691  124.3735   61.5038 H   0  0  0  0  0  0  0  0  0  0  0  0
  134.5179  123.2689   60.6751 H   0  0  0  0  0  0  0  0  0  0  0  0
  134.8168  125.0401   60.6751 H   0  0  0  0  0  0  0  0  0  0  0  0
  129.6280  124.6951   61.7422 H   0  0  0  0  0  0  0  0  0  0  0  0
  129.3951  122.9137   63.8260 H   0  0  0  0  0  0  0  0  0  0  0  0
  129.2779  124.3175   65.8773 H   0  0  0  0  0  0  0  0  0  0  0  0
  131.2503  125.6680   66.5721 H   0  0  0  0  0  0  0  0  0  0  0  0
  133.3431  125.6229   65.2266 H   0  0  0  0  0  0  0  0  0  0  0  0
  133.4723  124.2186   63.1748 H   0  0  0  0  0  0  0  0  0  0  0  0
  130.8422  125.5046   58.7615 H   0  0  0  0  0  0  0  0  0  0  0  0
  130.3871  124.0416   57.8239 H   0  0  0  0  0  0  0  0  0  0  0  0
  129.3103  125.4793   57.8239 H   0  0  0  0  0  0  0  0  0  0  0  0
  128.7064  122.2847   60.2399 H   0  0  0  0  0  0  0  0  0  0  0  0
  127.9317  122.8616   58.7254 H   0  0  0  0  0  0  0  0  0  0  0  0
  129.6660  122.3938   58.7254 H   0  0  0  0  0  0  0  0  0  0  0  0
  127.1619  124.6024   60.4559 H   0  0  0  0  0  0  0  0  0  0  0  0
  128.5328  126.9309   59.0202 H   0  0  0  0  0  0  0  0  0  0  0  0
  125.7505  126.4645   60.3327 H   0  0  0  0  0  0  0  0  0  0  0  0
  125.0409  128.5236   59.0416 H   0  0  0  0  0  0  0  0  0  0  0  0
  126.5630  128.3365   58.1062 H   0  0  0  0  0  0  0  0  0  0  0  0
  125.3413  127.0197   58.1062 H   0  0  0  0  0  0  0  0  0  0  0  0
  127.6320  126.2210   62.4080 H   0  0  0  0  0  0  0  0  0  0  0  0
  126.7844  128.4993   63.6060 H   0  0  0  0  0  0  0  0  0  0  0  0
  128.4625  128.1366   64.0757 H   0  0  0  0  0  0  0  0  0  0  0  0
  128.2499  130.2211   65.4236 H   0  0  0  0  0  0  0  0  0  0  0  0
  129.8366  130.4544   64.6145 H   0  0  0  0  0  0  0  0  0  0  0  0
  128.6248  131.7804   64.6145 H   0  0  0  0  0  0  0  0  0  0  0  0
  126.7640  130.9560   62.1680 H   0  0  0  0  0  0  0  0  0  0  0  0
  130.1333  130.7044   62.3886 H   0  0  0  0  0  0  0  0  0  0  0  0
  130.6608  132.1201   62.6385 H   0  0  0  0  0  0  0  0  0  0  0  0
  133.0859  131.9408   63.1785 H   0  0  0  0  0  0  0  0  0  0  0  0
  134.7257  131.4389   61.3738 H   0  0  0  0  0  0  0  0  0  0  0  0
  133.9554  131.1099   59.0304 H   0  0  0  0  0  0  0  0  0  0  0  0
  131.5314  131.2787   58.4820 H   0  0  0  0  0  0  0  0  0  0  0  0
  130.2164  128.3707   61.8505 H   0  0  0  0  0  0  0  0  0  0  0  0
  130.4477  129.7010   59.8322 H   0  0  0  0  0  0  0  0  0  0  0  0
  128.2505  127.2426   57.1750 H   0  0  0  0  0  0  0  0  0  0  0  0
  127.8264  128.5806   56.0541 H   0  0  0  0  0  0  0  0  0  0  0  0
  129.4896  127.9019   56.0541 H   0  0  0  0  0  0  0  0  0  0  0  0
  1  2  2  0
  2  3  1  0
  3  4  1  0
  4  5  1  0
  5  6  1  0
  6  7  1  0
  6  8  2  0
  4  9  1  0
  9 10  1  0
 10 11  1  0
 11 12  2  0
 11 13  1  0
 13 14  2  0
 14 15  1  0
 15 16  2  0
 16 17  1  0
 17 18  2  0
  9 19  1  0
 19 20  1  0
 19 21  1  0
 19 22  1  0
 22 23  2  0
 23 24  1  0
 24 25  1  0
 24 26  1  0
 26 27  2  0
 26 28  1  0
 28 29  1  1
 28 30  1  0
 30 31  1  0
 31 32  1  0
 31 33  1  6
 31 34  1  0
 34 35  1  0
 35 36  1  0
 36 37  2  0
 36 38  1  0
 38 39  2  0
 39 40  1  0
 40 41  2  0
 41 42  1  0
 42 43  2  0
 34 44  1  0
 44 45  1  0
 45 46  1  0
 46 47  1  0
 47 48  1  0
 47 49  2  0
 45  2  1  0
 18 13  1  0
 44 28  1  0
 43 38  1  0
  1 50  1  0
  1 51  1  0
  3 52  1  0
  3 53  1  0
  4 54  1  1
  7 55  1  0
  7 56  1  0
  7 57  1  0
  9 58  1  1
 14 59  1  0
 15 60  1  0
 16 61  1  0
 17 62  1  0
 18 63  1  0
 20 64  1  0
 20 65  1  0
 20 66  1  0
 21 67  1  0
 21 68  1  0
 21 69  1  0
 22 70  1  0
 23 71  1  0
 24 72  1  1
 25 73  1  0
 25 74  1  0
 25 75  1  0
 29 76  1  0
 30 77  1  0
 30 78  1  0
 32 79  1  0
 32 80  1  0
 32 81  1  0
 33 82  1  0
 34 83  1  1
 39 84  1  0
 40 85  1  0
 41 86  1  0
 42 87  1  0
 43 88  1  0
 44 89  1  1
 45 90  1  6
 48 91  1  0
 48 92  1  0
 48 93  1  0
M  END
>  <Binding energies>  (1) 
[-4.39]

>  <Ligand effiencies>  (1) 
[-0.08283018867924527]

>  <Interactions>  (1) 
["V-A:ILE:369:CG2:3237, V-A:ASP:366:CA:3210, V-A:PRO:540:C:4881, V-B:ASP:366:CG:8184, V-B:TYR:539:CE2:9848, V-A:TYR:484:CE2:4346, V-B:GLU:543:CG:9879, V-A:ASP:366:CG:3213, V-A:ASN:362:CB:3176, V-B:TYR:539:CZ:9849, H-B:GLU:543:OE1:9881, H-B:TYR:539:OH:9850, V-A:TYR:484:CZ:4347, V-A:GLU:543:CD:4908, V-B:ASP:366:CB:8183, V-A:ILE:369:CD1:3239, V-B:TYR:539:CD2:9846, V-A:GLU:543:CG:4907, V-B:GLU:543:CD:9880, V-A:MET:535:CE:4835, V-A:ASP:366:CB:3212, V-A:LEU:475:CD2:4259, V-A:ASN:362:C:3172, V-A:ARG:545:CZ:4926, V-A:GLU:543:CB:4906, H-B:GLU:543:OE2:9882, V-A:PRO:540:CA:4883, V-A:PRO:540:CB:4885, V-A:LEU:363:CA:3185"]

$$$$
ZINC2356609476
     RDKit          3D

136139  0  0  0  0  0  0  0  0999 V2000
  123.8380  115.2710   74.0290 C   0  0  0  0  0  0  0  0  0  0  0  0
  123.9680  115.1410   75.5550 C   0  0  0  0  0  0  0  0  0  0  0  0
  124.8440  115.8630   76.3240 C   0  0  0  0  0  0  0  0  0  0  0  0
  125.7210  116.8840   75.7400 C   0  0  0  0  0  0  0  0  0  0  0  0
  126.1330  116.9120   74.4550 C   0  0  0  0  0  0  0  0  0  0  0  0
  126.9810  117.9400   73.8530 C   0  0  0  0  0  0  0  0  0  0  0  0
  127.7160  118.9440   74.7400 C   0  0  0  0  0  0  0  0  0  0  0  0
  127.0830  117.9440   72.5010 C   0  0  0  0  0  0  0  0  0  0  0  0
  127.8260  118.8880   71.6810 C   0  0  0  0  0  0  0  0  0  0  0  0
  127.7280  118.9140   70.3370 C   0  0  0  0  0  0  0  0  0  0  0  0
  128.4210  119.8590   69.4690 C   0  0  0  0  0  0  0  0  0  0  0  0
  129.3140  120.8970   70.1370 C   0  0  0  0  0  0  0  0  0  0  0  0
  128.2170  119.8020   68.1300 C   0  0  0  0  0  0  0  0  0  0  0  0
  128.8200  120.6560   67.1180 C   0  0  0  0  0  0  0  0  0  0  0  0
  128.0890  121.3860   66.2570 C   0  0  0  0  0  0  0  0  0  0  0  0
  128.6860  122.2350   65.2360 C   0  0  0  0  0  0  0  0  0  0  0  0
  128.1000  122.6810   64.0990 C   0  0  0  0  0  0  0  0  0  0  0  0
  126.6660  122.3150   63.7070 C   0  0  0  0  0  0  0  0  0  0  0  0
  128.9020  123.5330   63.2210 C   0  0  0  0  0  0  0  0  0  0  0  0
  129.2920  123.2230   61.9690 C   0  0  0  0  0  0  0  0  0  0  0  0
  130.0980  124.1190   61.1540 C   0  0  0  0  0  0  0  0  0  0  0  0
  131.1560  124.8600   61.5670 C   0  0  0  0  0  0  0  0  0  0  0  0
  131.6980  124.8230   62.9910 C   0  0  0  0  0  0  0  0  0  0  0  0
  131.8600  125.7060   60.6110 C   0  0  0  0  0  0  0  0  0  0  0  0
  131.4100  126.8900   60.1450 C   0  0  0  0  0  0  0  0  0  0  0  0
  132.1220  127.7520   59.1950 C   0  0  0  0  0  0  0  0  0  0  0  0
  133.4690  127.6160   58.9780 C   0  0  0  0  0  0  0  0  0  0  0  0
  134.3600  126.5620   59.6540 C   0  0  0  0  0  0  0  0  0  0  0  0
  134.2270  128.4610   58.0270 C   0  0  0  0  0  0  0  0  0  0  0  0
  135.4540  128.5750   58.0750 O   0  0  0  0  0  0  0  0  0  0  0  0
  133.3870  129.3340   57.0780 C   0  0  2  0  0  0  0  0  0  0  0  0
  134.1670  130.3990   56.5300 O   0  0  0  0  0  0  0  0  0  0  0  0
  134.0120  131.6460   57.1420 C   0  0  2  0  0  0  0  0  0  0  0  0
  134.2190  131.5630   58.5360 O   0  0  0  0  0  0  0  0  0  0  0  0
  134.1730  132.8460   59.1710 C   0  0  2  0  0  0  0  0  0  0  0  0
  134.6860  132.7070   60.6140 C   0  0  0  0  0  0  0  0  0  0  0  0
  132.7340  133.4100   59.0750 C   0  0  2  0  0  0  0  0  0  0  0  0
  131.8050  132.6300   59.8130 O   0  0  0  0  0  0  0  0  0  0  0  0
  132.3420  133.4900   57.5810 C   0  0  2  0  0  0  0  0  0  0  0  0
  131.0370  134.0040   57.3780 O   0  0  0  0  0  0  0  0  0  0  0  0
  132.5790  132.1380   56.8530 C   0  0  2  0  0  0  0  0  0  0  0  0
  131.6030  131.1620   57.1840 O   0  0  0  0  0  0  0  0  0  0  0  0
  132.1790  129.9060   57.8280 C   0  0  0  0  0  0  0  0  0  0  0  0
  131.2620  128.8150   58.4530 C   0  0  0  0  0  0  0  0  0  0  0  0
  130.4740  128.0940   57.3330 C   0  0  0  0  0  0  0  0  0  0  0  0
  130.3310  129.5430   59.4600 C   0  0  0  0  0  0  0  0  0  0  0  0
  124.9650  115.6570   77.8620 C   0  0  0  0  0  0  0  0  0  0  0  0
  126.2280  114.8030   78.1290 C   0  0  0  0  0  0  0  0  0  0  0  0
  125.0130  117.0300   78.5840 C   0  0  0  0  0  0  0  0  0  0  0  0
  123.7080  114.9150   78.4020 C   0  0  0  0  0  0  0  0  0  0  0  0
  123.3060  113.6940   77.5700 C   0  0  1  0  0  0  0  0  0  0  0  0
  122.1430  113.0900   78.1380 O   0  0  0  0  0  0  0  0  0  0  0  0
  121.4870  112.1490   77.3400 C   0  0  2  0  0  0  0  0  0  0  0  0
  120.2690  111.7400   77.9250 O   0  0  0  0  0  0  0  0  0  0  0  0
  119.5260  110.8560   77.0760 C   0  0  2  0  0  0  0  0  0  0  0  0
  118.1110  110.6850   77.6530 C   0  0  0  0  0  0  0  0  0  0  0  0
  120.2990  109.5210   76.9250 C   0  0  2  0  0  0  0  0  0  0  0  0
  120.3840  108.8090   78.1500 O   0  0  0  0  0  0  0  0  0  0  0  0
  121.7030  109.8330   76.3540 C   0  0  2  0  0  0  0  0  0  0  0  0
  122.5010  108.6750   76.1720 O   0  0  0  0  0  0  0  0  0  0  0  0
  122.4230  110.9340   77.1810 C   0  0  2  0  0  0  0  0  0  0  0  0
  122.8950  110.4590   78.4340 O   0  0  0  0  0  0  0  0  0  0  0  0
  123.0570  114.1110   76.1090 C   0  0  0  0  0  0  0  0  0  0  0  0
  122.0670  113.7060   75.4950 O   0  0  0  0  0  0  0  0  0  0  0  0
  123.0789  116.0301   73.7890 H   0  0  0  0  0  0  0  0  0  0  0  0
  124.8061  115.5731   73.6029 H   0  0  0  0  0  0  0  0  0  0  0  0
  123.5359  114.3029   73.6029 H   0  0  0  0  0  0  0  0  0  0  0  0
  126.0703  117.6903   76.4017 H   0  0  0  0  0  0  0  0  0  0  0  0
  125.8019  116.0897   73.8037 H   0  0  0  0  0  0  0  0  0  0  0  0
  127.5368  118.6992   75.7973 H   0  0  0  0  0  0  0  0  0  0  0  0
  128.7949  118.8973   74.5306 H   0  0  0  0  0  0  0  0  0  0  0  0
  127.3455  119.9583   74.5306 H   0  0  0  0  0  0  0  0  0  0  0  0
  126.5456  117.1469   71.9663 H   0  0  0  0  0  0  0  0  0  0  0  0
  128.4934  119.6083   72.1767 H   0  0  0  0  0  0  0  0  0  0  0  0
  127.0770  118.1670   69.8594 H   0  0  0  0  0  0  0  0  0  0  0  0
  129.2324  120.8021   71.2299 H   0  0  0  0  0  0  0  0  0  0  0  0
  130.3581  120.7334   69.8317 H   0  0  0  0  0  0  0  0  0  0  0  0
  128.9963  121.9049   69.8317 H   0  0  0  0  0  0  0  0  0  0  0  0
  127.5223  119.0285   67.7707 H   0  0  0  0  0  0  0  0  0  0  0  0
  129.9170  120.7065   67.0547 H   0  0  0  0  0  0  0  0  0  0  0  0
  126.9922  121.3396   66.3272 H   0  0  0  0  0  0  0  0  0  0  0  0
  129.7265  122.5485   65.4065 H   0  0  0  0  0  0  0  0  0  0  0  0
  126.0653  122.1617   64.6156 H   0  0  0  0  0  0  0  0  0  0  0  0
  126.2291  123.1304   63.1119 H   0  0  0  0  0  0  0  0  0  0  0  0
  126.6733  121.3899   63.1119 H   0  0  0  0  0  0  0  0  0  0  0  0
  129.2135  124.5109   63.6169 H   0  0  0  0  0  0  0  0  0  0  0  0
  128.9889  122.2538   61.5463 H   0  0  0  0  0  0  0  0  0  0  0  0
  129.8205  124.2042   60.0930 H   0  0  0  0  0  0  0  0  0  0  0  0
  130.8617  124.8801   63.7032 H   0  0  0  0  0  0  0  0  0  0  0  0
  132.2506  123.8850   63.1488 H   0  0  0  0  0  0  0  0  0  0  0  0
  132.3729  125.6772   63.1488 H   0  0  0  0  0  0  0  0  0  0  0  0
  132.8334  125.3519   60.2408 H   0  0  0  0  0  0  0  0  0  0  0  0
  130.4306  127.2366   60.5065 H   0  0  0  0  0  0  0  0  0  0  0  0
  134.2781  126.6589   60.7467 H   0  0  0  0  0  0  0  0  0  0  0  0
  134.0339  125.5565   59.3496 H   0  0  0  0  0  0  0  0  0  0  0  0
  135.4057  126.7162   59.3496 H   0  0  0  0  0  0  0  0  0  0  0  0
  133.0387  128.7013   56.2483 H   0  0  0  0  0  0  0  0  0  0  0  0
  134.7576  132.3477   56.7398 H   0  0  0  0  0  0  0  0  0  0  0  0
  134.8294  133.5704   58.6666 H   0  0  0  0  0  0  0  0  0  0  0  0
  133.8690  132.9284   61.3165 H   0  0  0  0  0  0  0  0  0  0  0  0
  135.0431  131.6797   60.7788 H   0  0  0  0  0  0  0  0  0  0  0  0
  135.5129  133.4135   60.7788 H   0  0  0  0  0  0  0  0  0  0  0  0
  132.7089  134.4144   59.5228 H   0  0  0  0  0  0  0  0  0  0  0  0
  131.6750  131.7980   59.3490 H   0  0  0  0  0  0  0  0  0  0  0  0
  133.0173  134.2235   57.1164 H   0  0  0  0  0  0  0  0  0  0  0  0
  130.4790  133.2900   57.0600 H   0  0  0  0  0  0  0  0  0  0  0  0
  132.4708  132.3040   55.7710 H   0  0  0  0  0  0  0  0  0  0  0  0
  131.7040  130.4200   56.5830 H   0  0  0  0  0  0  0  0  0  0  0  0
  132.5467  130.5561   58.6356 H   0  0  0  0  0  0  0  0  0  0  0  0
  131.5727  130.4556   57.0929 H   0  0  0  0  0  0  0  0  0  0  0  0
  129.7336  127.4165   57.7834 H   0  0  0  0  0  0  0  0  0  0  0  0
  129.9579  128.8391   56.7098 H   0  0  0  0  0  0  0  0  0  0  0  0
  131.1705  127.5139   56.7098 H   0  0  0  0  0  0  0  0  0  0  0  0
  130.6410  129.3006   60.4872 H   0  0  0  0  0  0  0  0  0  0  0  0
  130.3995  130.6296   59.3031 H   0  0  0  0  0  0  0  0  0  0  0  0
  129.2930  129.2146   59.3031 H   0  0  0  0  0  0  0  0  0  0  0  0
  126.3790  114.7009   79.2138 H   0  0  0  0  0  0  0  0  0  0  0  0
  126.0982  113.8066   77.6815 H   0  0  0  0  0  0  0  0  0  0  0  0
  127.1044  115.2946   77.6815 H   0  0  0  0  0  0  0  0  0  0  0  0
  125.0075  116.8722   79.6726 H   0  0  0  0  0  0  0  0  0  0  0  0
  125.9304  117.5641   78.2956 H   0  0  0  0  0  0  0  0  0  0  0  0
  124.1352  117.6268   78.2956 H   0  0  0  0  0  0  0  0  0  0  0  0
  123.9169  114.5812   79.4291 H   0  0  0  0  0  0  0  0  0  0  0  0
  122.8703  115.6262   78.3525 H   0  0  0  0  0  0  0  0  0  0  0  0
  124.1217  112.9561   77.5790 H   0  0  0  0  0  0  0  0  0  0  0  0
  121.2504  112.5965   76.3634 H   0  0  0  0  0  0  0  0  0  0  0  0
  119.4133  111.2700   76.0632 H   0  0  0  0  0  0  0  0  0  0  0  0
  118.1599  110.6909   78.7519 H   0  0  0  0  0  0  0  0  0  0  0  0
  117.4726  111.5125   77.3099 H   0  0  0  0  0  0  0  0  0  0  0  0
  117.6882  109.7292   77.3099 H   0  0  0  0  0  0  0  0  0  0  0  0
  119.7510  108.8644   76.2332 H   0  0  0  0  0  0  0  0  0  0  0  0
  120.3740  107.8680   77.9510 H   0  0  0  0  0  0  0  0  0  0  0  0
  121.5476  110.2380   75.3432 H   0  0  0  0  0  0  0  0  0  0  0  0
  122.5490  108.2030   77.0060 H   0  0  0  0  0  0  0  0  0  0  0  0
  123.3225  111.2446   76.6292 H   0  0  0  0  0  0  0  0  0  0  0  0
  122.9750  109.5040   78.3840 H   0  0  0  0  0  0  0  0  0  0  0  0
  1  2  1  0
  2  3  2  0
  3  4  1  0
  4  5  2  0
  5  6  1  0
  6  7  1  0
  6  8  2  0
  8  9  1  0
  9 10  2  0
 10 11  1  0
 11 12  1  0
 11 13  2  0
 13 14  1  0
 14 15  2  0
 15 16  1  0
 16 17  2  0
 17 18  1  0
 17 19  1  0
 19 20  2  0
 20 21  1  0
 21 22  2  0
 22 23  1  0
 22 24  1  0
 24 25  2  0
 25 26  1  0
 26 27  2  0
 27 28  1  0
 27 29  1  0
 29 30  2  0
 29 31  1  0
 31 32  1  0
 32 33  1  0
 33 34  1  0
 34 35  1  0
 35 36  1  0
 35 37  1  0
 37 38  1  0
 37 39  1  0
 39 40  1  0
 39 41  1  0
 41 42  1  0
 31 43  1  0
 43 44  1  0
 44 45  1  0
 44 46  1  0
  3 47  1  0
 47 48  1  0
 47 49  1  0
 47 50  1  0
 50 51  1  0
 51 52  1  0
 52 53  1  0
 53 54  1  0
 54 55  1  0
 55 56  1  0
 55 57  1  0
 57 58  1  0
 57 59  1  0
 59 60  1  0
 59 61  1  0
 61 62  1  0
 51 63  1  0
 63 64  2  0
 63  2  1  0
 44 26  1  0
 61 53  1  0
 41 33  1  0
  1 65  1  0
  1 66  1  0
  1 67  1  0
  4 68  1  0
  5 69  1  0
  7 70  1  0
  7 71  1  0
  7 72  1  0
  8 73  1  0
  9 74  1  0
 10 75  1  0
 12 76  1  0
 12 77  1  0
 12 78  1  0
 13 79  1  0
 14 80  1  0
 15 81  1  0
 16 82  1  0
 18 83  1  0
 18 84  1  0
 18 85  1  0
 19 86  1  0
 20 87  1  0
 21 88  1  0
 23 89  1  0
 23 90  1  0
 23 91  1  0
 24 92  1  0
 25 93  1  0
 28 94  1  0
 28 95  1  0
 28 96  1  0
 31 97  1  6
 33 98  1  6
 35 99  1  6
 36100  1  0
 36101  1  0
 36102  1  0
 37103  1  1
 38104  1  0
 39105  1  6
 40106  1  0
 41107  1  6
 42108  1  0
 43109  1  0
 43110  1  0
 45111  1  0
 45112  1  0
 45113  1  0
 46114  1  0
 46115  1  0
 46116  1  0
 48117  1  0
 48118  1  0
 48119  1  0
 49120  1  0
 49121  1  0
 49122  1  0
 50123  1  0
 50124  1  0
 51125  1  6
 53126  1  6
 55127  1  6
 56128  1  0
 56129  1  0
 56130  1  0
 57131  1  6
 58132  1  0
 59133  1  6
 60134  1  0
 61135  1  6
 62136  1  0
M  END
>  <Binding energies>  (1) 
[403000000.0]

>  <Ligand effiencies>  (1) 
[5757142.857142857]

>  <Interactions>  (1) 
["V-A:ASP:366:CA:3210, V-A:PRO:540:CG:4886, V-B:GLU:543:C:9874, V-B:GLU:543:CB:9878, V-A:ILE:538:CB:4862, V-A:PRO:540:C:4881, V-B:ALA:541:CB:9864, H-A:TYR:531:OH:4795, V-A:TYR:484:CE2:4346, V-B:GLU:543:CG:9879, V-A:ASP:366:CG:3213, V-A:ASN:362:CB:3176, V-B:VAL:542:CA:9868, V-A:LEU:363:CD1:3189, V-A:LEU:363:CB:3187, V-A:LEU:363:CG:3188, V-A:TYR:531:CE2:4793, V-A:TYR:531:CD2:4791, V-A:LEU:475:CD1:4258, V-A:TYR:484:CA:4339, V-A:TYR:484:CZ:4347, V-A:SER:483:CA:4331, V-A:TYR:484:CD1:4343, V-B:GLU:543:CA:9876, V-A:SER:483:C:4329, V-A:TYR:484:CD2:4344, H-A:ASP:366:N:3211, V-B:ALA:541:C:9860, V-A:ASP:366:C:3208, V-A:TYR:484:CG:4342, V-A:TYR:531:CZ:4794, V-B:GLU:543:CD:9880, V-A:TYR:539:C:4867, V-A:ASP:366:CB:3212, H-A:ALA:367:N:3220, V-B:VAL:542:CG1:9871, H-A:LEU:363:N:3186, V-A:ASN:362:C:3172, V-A:TYR:484:CB:4341, V-B:VAL:542:C:9866, V-A:PRO:540:N:4884, V-A:SER:483:CB:4333, H-A:TYR:539:N:4870, V-A:LEU:363:CA:3185, V-A:PRO:540:CB:4885, V-A:PRO:540:CA:4883, V-A:ASN:362:CA:3174, V-B:PRO:540:C:9853, V-B:VAL:542:CB:9870, V-A:TYR:484:C:4337, V-B:ALA:541:CA:9862, V-A:PRO:540:CD:4887, V-A:ASN:359:C:3147"]

$$$$
ZINC2356615724
     RDKit          3D

 80 85  0  0  0  0  0  0  0  0999 V2000
  126.3050  127.7390   61.4160 C   0  0  0  0  0  0  0  0  0  0  0  0
  126.9990  127.1370   62.5030 O   0  0  0  0  0  0  0  0  0  0  0  0
  128.3140  126.7300   62.3470 C   0  0  0  0  0  0  0  0  0  0  0  0
  128.7990  126.2070   61.1480 C   0  0  0  0  0  0  0  0  0  0  0  0
  130.1440  125.8130   61.0070 C   0  0  0  0  0  0  0  0  0  0  0  0
  130.6010  125.3030   59.7810 C   0  0  0  0  0  0  0  0  0  0  0  0
  131.9220  124.8830   59.5670 C   0  0  0  0  0  0  0  0  0  0  0  0
  132.3080  124.3520   58.3130 C   0  0  0  0  0  0  0  0  0  0  0  0
  133.6130  123.9270   58.0920 C   0  0  0  0  0  0  0  0  0  0  0  0
  134.0030  123.3630   56.7370 C   0  0  0  0  0  0  0  0  0  0  0  0
  134.5500  124.0230   59.1110 C   0  0  0  0  0  0  0  0  0  0  0  0
  134.2130  124.5420   60.3600 C   0  0  0  0  0  0  0  0  0  0  0  0
  135.2110  124.5660   61.3000 O   0  0  0  0  0  0  0  0  0  0  0  0
  132.8740  125.0020   60.6240 C   0  0  0  0  0  0  0  0  0  0  0  0
  132.4270  125.5740   61.8700 C   0  0  0  0  0  0  0  0  0  0  0  0
  133.3590  125.7920   62.8650 O   0  0  0  0  0  0  0  0  0  0  0  0
  134.0930  124.7410   63.3330 C   0  0  0  0  0  0  0  0  0  0  0  0
  133.4010  123.4060   63.0840 C   0  0  0  0  0  0  0  0  0  0  0  0
  135.1870  124.7970   63.8990 O   0  0  0  0  0  0  0  0  0  0  0  0
  131.0460  125.9300   62.1030 C   0  0  0  0  0  0  0  0  0  0  0  0
  130.5110  126.4000   63.3600 C   0  0  0  0  0  0  0  0  0  0  0  0
  131.2960  126.4450   64.4960 O   0  0  0  0  0  0  0  0  0  0  0  0
  131.8740  125.2980   64.9560 C   0  0  0  0  0  0  0  0  0  0  0  0
  131.0820  124.0550   64.5700 C   0  0  0  0  0  0  0  0  0  0  0  0
  132.9090  125.2080   65.6190 O   0  0  0  0  0  0  0  0  0  0  0  0
  129.1730  126.8380   63.4530 C   0  0  0  0  0  0  0  0  0  0  0  0
  128.6420  127.4210   64.7900 C   0  0  1  0  0  0  0  0  0  0  0  0
  128.9380  126.4710   65.9810 C   0  0  0  0  0  0  0  0  0  0  0  0
  129.1590  125.2700   65.8100 O   0  0  0  0  0  0  0  0  0  0  0  0
  128.8700  127.0980   67.3680 C   0  0  0  0  0  0  0  0  0  0  0  0
  128.6050  128.4860   67.5120 C   0  0  0  0  0  0  0  0  0  0  0  0
  128.3520  129.0050   68.7840 C   0  0  0  0  0  0  0  0  0  0  0  0
  128.4330  128.2100   69.9130 C   0  0  0  0  0  0  0  0  0  0  0  0
  128.1690  128.8520   71.1090 O   0  0  0  0  0  0  0  0  0  0  0  0
  128.2500  128.1410   72.2600 C   0  0  0  0  0  0  0  0  0  0  0  0
  127.9400  129.0320   73.4450 C   0  0  0  0  0  0  0  0  0  0  0  0
  128.5630  126.8330   72.3190 C   0  0  0  0  0  0  0  0  0  0  0  0
  128.8470  126.0540   71.1190 C   0  0  0  0  0  0  0  0  0  0  0  0
  129.1080  124.8530   71.1680 O   0  0  0  0  0  0  0  0  0  0  0  0
  128.7810  126.8550   69.8320 C   0  0  0  0  0  0  0  0  0  0  0  0
  129.0390  126.3100   68.5470 C   0  0  0  0  0  0  0  0  0  0  0  0
  129.4360  124.9860   68.4560 O   0  0  0  0  0  0  0  0  0  0  0  0
  130.4590  124.6550   67.6120 C   0  0  0  0  0  0  0  0  0  0  0  0
  131.5740  125.6920   67.6310 C   0  0  0  0  0  0  0  0  0  0  0  0
  130.5330  123.6510   66.8990 O   0  0  0  0  0  0  0  0  0  0  0  0
  128.5410  129.4440   66.3530 C   0  0  0  0  0  0  0  0  0  0  0  0
  128.1350  130.6020   66.4770 O   0  0  0  0  0  0  0  0  0  0  0  0
  129.0880  128.8820   65.0340 C   0  0  2  0  0  0  0  0  0  0  0  0
  128.6940  129.7220   63.9510 O   0  0  0  0  0  0  0  0  0  0  0  0
  127.2910  129.8790   63.7970 C   0  0  0  0  0  0  0  0  0  0  0  0
  125.5279  128.4131   61.8054 H   0  0  0  0  0  0  0  0  0  0  0  0
  127.0139  128.3130   60.8012 H   0  0  0  0  0  0  0  0  0  0  0  0
  125.8369  126.9561   60.8012 H   0  0  0  0  0  0  0  0  0  0  0  0
  128.1153  126.0998   60.2930 H   0  0  0  0  0  0  0  0  0  0  0  0
  129.8875  125.2292   58.9470 H   0  0  0  0  0  0  0  0  0  0  0  0
  131.5667  124.2747   57.5039 H   0  0  0  0  0  0  0  0  0  0  0  0
  134.6235  122.4657   56.8781 H   0  0  0  0  0  0  0  0  0  0  0  0
  133.0953  123.0966   56.1757 H   0  0  0  0  0  0  0  0  0  0  0  0
  134.5727  124.1182   56.1757 H   0  0  0  0  0  0  0  0  0  0  0  0
  135.5801  123.6825   58.9294 H   0  0  0  0  0  0  0  0  0  0  0  0
  135.2290  125.3840   61.8030 H   0  0  0  0  0  0  0  0  0  0  0  0
  133.1566  122.9344   64.0473 H   0  0  0  0  0  0  0  0  0  0  0  0
  132.4761  123.5734   62.5125 H   0  0  0  0  0  0  0  0  0  0  0  0
  134.0709  122.7467   62.5125 H   0  0  0  0  0  0  0  0  0  0  0  0
  130.7502  123.5343   65.4804 H   0  0  0  0  0  0  0  0  0  0  0  0
  130.2045  124.3493   63.9755 H   0  0  0  0  0  0  0  0  0  0  0  0
  131.7194  123.3840   63.9755 H   0  0  0  0  0  0  0  0  0  0  0  0
  127.5468  127.4787   64.7049 H   0  0  0  0  0  0  0  0  0  0  0  0
  128.0832  130.0664   68.8898 H   0  0  0  0  0  0  0  0  0  0  0  0
  128.1316  128.4814   74.3778 H   0  0  0  0  0  0  0  0  0  0  0  0
  128.5799  129.9260   73.4089 H   0  0  0  0  0  0  0  0  0  0  0  0
  126.8834  129.3357   73.4089 H   0  0  0  0  0  0  0  0  0  0  0  0
  128.6058  126.3376   73.3002 H   0  0  0  0  0  0  0  0  0  0  0  0
  131.8330  125.9329   68.6726 H   0  0  0  0  0  0  0  0  0  0  0  0
  132.4589  125.2884   67.1171 H   0  0  0  0  0  0  0  0  0  0  0  0
  131.2355  126.6038   67.1171 H   0  0  0  0  0  0  0  0  0  0  0  0
  130.1858  128.8691   65.1027 H   0  0  0  0  0  0  0  0  0  0  0  0
  126.8170  129.9320   64.7882 H   0  0  0  0  0  0  0  0  0  0  0  0
  127.0845  130.8059   63.2418 H   0  0  0  0  0  0  0  0  0  0  0  0
  126.8848  129.0207   63.2418 H   0  0  0  0  0  0  0  0  0  0  0  0
  1  2  1  0
  2  3  1  0
  3  4  2  0
  4  5  1  0
  5  6  2  0
  6  7  1  0
  7  8  2  0
  8  9  1  0
  9 10  1  0
  9 11  2  0
 11 12  1  0
 12 13  1  0
 12 14  2  0
 14 15  1  0
 15 16  1  0
 16 17  1  0
 17 18  1  0
 17 19  2  0
 15 20  2  0
 20 21  1  0
 21 22  1  0
 22 23  1  0
 23 24  1  0
 23 25  2  0
 21 26  2  0
 26 27  1  0
 27 28  1  0
 28 29  2  0
 28 30  1  0
 30 31  2  0
 31 32  1  0
 32 33  2  0
 33 34  1  0
 34 35  1  0
 35 36  1  0
 35 37  2  0
 37 38  1  0
 38 39  2  0
 38 40  1  0
 40 41  2  0
 41 42  1  0
 42 43  1  0
 43 44  1  0
 43 45  2  0
 31 46  1  0
 46 47  2  0
 46 48  1  0
 48 49  1  0
 49 50  1  0
 26  3  1  0
 48 27  1  0
 20  5  1  0
 41 30  1  0
 14  7  1  0
 40 33  1  0
  1 51  1  0
  1 52  1  0
  1 53  1  0
  4 54  1  0
  6 55  1  0
  8 56  1  0
 10 57  1  0
 10 58  1  0
 10 59  1  0
 11 60  1  0
 13 61  1  0
 18 62  1  0
 18 63  1  0
 18 64  1  0
 24 65  1  0
 24 66  1  0
 24 67  1  0
 27 68  1  6
 32 69  1  0
 36 70  1  0
 36 71  1  0
 36 72  1  0
 37 73  1  0
 44 74  1  0
 44 75  1  0
 44 76  1  0
 48 77  1  1
 50 78  1  0
 50 79  1  0
 50 80  1  0
M  END
>  <Binding energies>  (1) 
[19.37]

>  <Ligand effiencies>  (1) 
[0.37980392156862747]

>  <Interactions>  (1) 
["V-A:ILE:369:CG2:3237, V-A:ASP:366:CA:3210, V-A:ILE:369:C:3232, V-B:HIS:456:CD2:9039, V-B:GLU:543:C:9874, V-A:ILE:369:CB:3236, V-A:GLY:454:CA:4049, V-B:GLU:543:CB:9878, V-B:ASP:366:CG:8184, H-A:ARG:545:NH1:4927, V-B:TYR:539:CE2:9848, V-A:ASN:370:CB:3245, V-A:TYR:484:CE2:4346, V-B:GLU:543:CG:9879, V-A:HIS:456:CD2:4068, V-A:ASP:366:CG:3213, H-B:HIS:456:ND1:9038, V-B:TYR:539:CZ:9849, V-A:GLU:543:CD:4908, V-A:TYR:484:CZ:4347, H-B:TYR:484:OH:9319, V-B:HIS:456:CE1:9041, H-A:GLY:454:N:4050, V-B:GLU:543:CA:9876, V-A:GLY:453:C:4042, V-A:HIS:456:CE1:4070, V-A:ILE:369:CD1:3239, V-A:ASP:366:C:3208, V-A:ASN:370:CA:3243, V-A:ILE:369:CA:3234, V-A:GLU:543:CG:4907, V-B:GLU:543:CD:9880, V-B:HIS:456:CG:9037, V-A:ILE:369:CG1:3238, V-A:ASP:366:CB:3212, H-A:ARG:545:NH2:4928, V-A:ARG:545:CZ:4926, H-B:ARG:545:NH2:9900, V-A:GLU:543:CB:4906, H-A:ASP:366:OD1:3214, V-A:GLY:453:CA:4044, H-A:ARG:545:NE:4924, H-A:TYR:484:OH:4348"]

$$$$
ZINC2356616183
     RDKit          3D

 57 60  0  0  0  0  0  0  0  0999 V2000
  127.3870  129.4010   63.1010 C   0  0  0  0  0  0  0  0  0  0  0  0
  126.8790  128.0750   62.9680 O   0  0  0  0  0  0  0  0  0  0  0  0
  127.5340  127.2820   62.0800 C   0  0  0  0  0  0  0  0  0  0  0  0
  126.9940  127.0370   60.8710 C   0  0  0  0  0  0  0  0  0  0  0  0
  127.6580  126.2270   59.7640 C   0  0  2  0  0  0  0  0  0  0  0  0
  126.7840  125.0030   59.4150 C   0  0  0  0  0  0  0  0  0  0  0  0
  129.1570  125.9480   60.1280 C   0  0  2  0  0  0  0  0  0  0  0  0
  129.8560  124.9860   59.1340 C   0  0  0  0  0  0  0  0  0  0  0  0
  131.3770  125.0370   59.3430 C   0  0  2  0  0  0  0  0  0  0  0  0
  132.0480  124.3440   58.2820 O   0  0  0  0  0  0  0  0  0  0  0  0
  133.4110  124.1890   58.3220 C   0  0  0  0  0  0  0  0  0  0  0  0
  133.9790  124.0850   57.2380 O   0  0  0  0  0  0  0  0  0  0  0  0
  134.0920  124.1630   59.7100 C   0  0  0  0  0  0  0  0  0  0  0  0
  133.3140  124.9070   60.8260 C   0  0  2  0  0  0  0  0  0  0  0  0
  133.8750  124.7490   62.2470 C   0  0  0  0  0  0  0  0  0  0  0  0
  135.3820  124.5690   62.3860 C   0  0  0  0  0  0  0  0  0  0  0  0
  133.0640  124.8340   63.3280 C   0  0  0  0  0  0  0  0  0  0  0  0
  133.5770  124.7690   64.5880 O   0  0  0  0  0  0  0  0  0  0  0  0
  132.8560  125.4180   65.6320 C   0  0  0  0  0  0  0  0  0  0  0  0
  131.5510  125.1090   63.2840 C   0  0  0  0  0  0  0  0  0  0  0  0
  131.0370  125.4530   61.8440 C   0  0  2  0  0  0  0  0  0  0  0  0
  129.4560  125.6010   61.6460 C   0  0  2  0  0  0  0  0  0  0  0  0
  128.6650  124.3260   62.0950 C   0  0  0  0  0  0  0  0  0  0  0  0
  128.8630  126.7860   62.4870 C   0  0  0  0  0  0  0  0  0  0  0  0
  129.4540  127.3140   63.4300 O   0  0  0  0  0  0  0  0  0  0  0  0
  131.7880  124.5830   60.7690 C   0  0  1  0  0  0  0  0  0  0  0  0
  131.5390  123.0500   60.9740 C   0  0  0  0  0  0  0  0  0  0  0  0
  127.4830  129.6516   64.1678 H   0  0  0  0  0  0  0  0  0  0  0  0
  128.3736  129.4658   62.6189 H   0  0  0  0  0  0  0  0  0  0  0  0
  126.6962  130.1084   62.6189 H   0  0  0  0  0  0  0  0  0  0  0  0
  125.9967  127.4537   60.6667 H   0  0  0  0  0  0  0  0  0  0  0  0
  127.7166  126.7919   58.8219 H   0  0  0  0  0  0  0  0  0  0  0  0
  126.4402  124.5215   60.3424 H   0  0  0  0  0  0  0  0  0  0  0  0
  125.9136  125.3296   58.8270 H   0  0  0  0  0  0  0  0  0  0  0  0
  127.3755  124.2858   58.8270 H   0  0  0  0  0  0  0  0  0  0  0  0
  129.6289  126.9338   60.0031 H   0  0  0  0  0  0  0  0  0  0  0  0
  129.4980  123.9602   59.3056 H   0  0  0  0  0  0  0  0  0  0  0  0
  129.6203  125.2934   58.1044 H   0  0  0  0  0  0  0  0  0  0  0  0
  131.7101  126.0839   59.2875 H   0  0  0  0  0  0  0  0  0  0  0  0
  134.2086  123.1126   60.0151 H   0  0  0  0  0  0  0  0  0  0  0  0
  135.0514  124.6888   59.5959 H   0  0  0  0  0  0  0  0  0  0  0  0
  133.4631  125.9728   60.5981 H   0  0  0  0  0  0  0  0  0  0  0  0
  135.6506  124.5369   63.4522 H   0  0  0  0  0  0  0  0  0  0  0  0
  135.6850  123.6283   61.9031 H   0  0  0  0  0  0  0  0  0  0  0  0
  135.8980  125.4119   61.9031 H   0  0  0  0  0  0  0  0  0  0  0  0
  133.2352  125.0767   66.6065 H   0  0  0  0  0  0  0  0  0  0  0  0
  132.9890  126.5067   65.5476 H   0  0  0  0  0  0  0  0  0  0  0  0
  131.7873  125.1716   65.5476 H   0  0  0  0  0  0  0  0  0  0  0  0
  131.0207  124.2141   63.6418 H   0  0  0  0  0  0  0  0  0  0  0  0
  131.3549  125.9828   63.9228 H   0  0  0  0  0  0  0  0  0  0  0  0
  131.3191  126.5021   61.6712 H   0  0  0  0  0  0  0  0  0  0  0  0
  128.6366  124.2802   63.1937 H   0  0  0  0  0  0  0  0  0  0  0  0
  127.6382  124.3747   61.7033 H   0  0  0  0  0  0  0  0  0  0  0  0
  129.1646  123.4277   61.7033 H   0  0  0  0  0  0  0  0  0  0  0  0
  131.5025  122.8252   62.0502 H   0  0  0  0  0  0  0  0  0  0  0  0
  130.5833  122.7682   60.5079 H   0  0  0  0  0  0  0  0  0  0  0  0
  132.3564  122.4802   60.5079 H   0  0  0  0  0  0  0  0  0  0  0  0
  1  2  1  0
  2  3  1  0
  3  4  2  0
  4  5  1  0
  5  6  1  0
  5  7  1  0
  7  8  1  0
  8  9  1  0
  9 10  1  0
 10 11  1  0
 11 12  2  0
 11 13  1  0
 13 14  1  0
 14 15  1  0
 15 16  1  0
 15 17  2  0
 17 18  1  0
 18 19  1  0
 17 20  1  0
 20 21  1  0
 21 22  1  0
 22 23  1  1
 22 24  1  0
 24 25  2  0
 21 26  1  0
 26 27  1  1
 24  3  1  0
 22  7  1  0
 26  9  1  0
 26 14  1  0
  1 28  1  0
  1 29  1  0
  1 30  1  0
  4 31  1  0
  5 32  1  6
  6 33  1  0
  6 34  1  0
  6 35  1  0
  7 36  1  6
  8 37  1  0
  8 38  1  0
  9 39  1  1
 13 40  1  0
 13 41  1  0
 14 42  1  6
 16 43  1  0
 16 44  1  0
 16 45  1  0
 19 46  1  0
 19 47  1  0
 19 48  1  0
 20 49  1  0
 20 50  1  0
 21 51  1  6
 23 52  1  0
 23 53  1  0
 23 54  1  0
 27 55  1  0
 27 56  1  0
 27 57  1  0
M  END
>  <Binding energies>  (1) 
[-6.48]

>  <Ligand effiencies>  (1) 
[-0.24000000000000002]

>  <Interactions>  (1) 
["V-A:ILE:369:CG2:3237, V-A:ASP:366:CA:3210, V-A:ILE:369:CB:3236, V-B:TYR:539:CE2:9848, V-A:ASP:366:CG:3213, V-B:TYR:539:CZ:9849, H-A:ASN:370:N:3244, H-B:TYR:539:OH:9850, H-A:GLY:454:N:4050, V-A:GLY:453:C:4042, V-A:ILE:369:CD1:3239, V-B:GLU:543:CD:9880, V-A:ASP:366:CB:3212, V-A:ARG:545:CD:4923, H-A:ARG:545:NH2:4928, V-A:ARG:545:CZ:4926, H-B:ARG:545:NH2:9900, V-A:GLY:453:CA:4044, H-A:ARG:545:NE:4924, H-A:TYR:484:OH:4348"]

$$$$
ZINC2356624461
     RDKit          3D

 84 87  0  0  0  0  0  0  0  0999 V2000
  129.4480  132.9680   58.7900 C   0  0  0  0  0  0  0  0  0  0  0  0
  130.6130  132.8410   57.8170 C   0  0  0  0  0  0  0  0  0  0  0  0
  130.5640  133.3390   56.6910 O   0  0  0  0  0  0  0  0  0  0  0  0
  131.6450  132.1420   58.3410 O   0  0  0  0  0  0  0  0  0  0  0  0
  131.5030  130.7770   58.7330 C   0  0  1  0  0  0  0  0  0  0  0  0
  131.1490  130.6310   60.2330 C   0  0  0  0  0  0  0  0  0  0  0  0
  130.9740  129.1400   60.6030 C   0  0  0  0  0  0  0  0  0  0  0  0
  129.9110  128.3820   59.7400 C   0  0  1  0  0  0  0  0  0  0  0  0
  128.4880  128.9410   60.0570 C   0  0  0  0  0  0  0  0  0  0  0  0
  130.3130  128.5920   58.2310 C   0  0  1  0  0  0  0  0  0  0  0  0
  129.3630  127.8260   57.2790 C   0  0  0  0  0  0  0  0  0  0  0  0
  129.3860  126.3160   57.5700 C   0  0  0  0  0  0  0  0  0  0  0  0
  129.0480  126.0050   59.0510 C   0  0  1  0  0  0  0  0  0  0  0  0
  129.1770  124.4880   59.3570 C   0  0  2  0  0  0  0  0  0  0  0  0
  128.3950  123.4690   58.5220 C   0  0  0  0  0  0  0  0  0  0  0  0
  128.3720  122.1940   59.3880 C   0  0  0  0  0  0  0  0  0  0  0  0
  128.8740  122.5800   60.8080 C   0  0  1  0  0  0  0  0  0  0  0  0
  130.1650  121.8260   61.2890 C   0  0  1  0  0  0  0  0  0  0  0  0
  129.9230  120.2980   61.3020 C   0  0  0  0  0  0  0  0  0  0  0  0
  131.4800  122.1920   60.5380 C   0  0  0  0  0  0  0  0  0  0  0  0
  132.7840  121.8910   61.3140 C   0  0  0  0  0  0  0  0  0  0  0  0
  133.5210  123.1340   61.9000 C   0  0  1  0  0  0  0  0  0  0  0  0
  133.9190  124.1250   60.7770 C   0  0  0  0  0  0  0  0  0  0  0  0
  132.7030  123.8320   63.0410 C   0  0  0  0  0  0  0  0  0  0  0  0
  133.5700  124.7260   63.9590 C   0  0  0  0  0  0  0  0  0  0  0  0
  131.9150  122.8380   63.9260 C   0  0  0  0  0  0  0  0  0  0  0  0
  128.8350  124.1470   60.8260 C   0  0  2  0  0  0  0  0  0  0  0  0
  127.3890  124.5790   61.2410 C   0  0  0  0  0  0  0  0  0  0  0  0
  129.8730  124.8810   61.7200 C   0  0  0  0  0  0  0  0  0  0  0  0
  129.8360  126.4140   61.5050 C   0  0  0  0  0  0  0  0  0  0  0  0
  129.9920  126.8270   60.0040 C   0  0  2  0  0  0  0  0  0  0  0  0
  130.4290  130.0940   57.8660 C   0  0  0  0  0  0  0  0  0  0  0  0
  129.8261  132.9268   59.8221 H   0  0  0  0  0  0  0  0  0  0  0  0
  128.9356  133.9273   58.6253 H   0  0  0  0  0  0  0  0  0  0  0  0
  128.7409  132.1416   58.6253 H   0  0  0  0  0  0  0  0  0  0  0  0
  132.4746  130.2850   58.5787 H   0  0  0  0  0  0  0  0  0  0  0  0
  131.9585  131.0625   60.8401 H   0  0  0  0  0  0  0  0  0  0  0  0
  130.2052  131.1606   60.4300 H   0  0  0  0  0  0  0  0  0  0  0  0
  131.9439  128.6372   60.4745 H   0  0  0  0  0  0  0  0  0  0  0  0
  130.6127  129.1138   61.6417 H   0  0  0  0  0  0  0  0  0  0  0  0
  128.3498  128.9953   61.1469 H   0  0  0  0  0  0  0  0  0  0  0  0
  128.3842  129.9467   59.6237 H   0  0  0  0  0  0  0  0  0  0  0  0
  127.7274  128.2748   59.6237 H   0  0  0  0  0  0  0  0  0  0  0  0
  131.3162  128.1615   58.0957 H   0  0  0  0  0  0  0  0  0  0  0  0
  128.3383  128.2024   57.4148 H   0  0  0  0  0  0  0  0  0  0  0  0
  129.7006  127.9874   56.2446 H   0  0  0  0  0  0  0  0  0  0  0  0
  128.6467  125.8187   56.9249 H   0  0  0  0  0  0  0  0  0  0  0  0
  130.4023  125.9464   57.3684 H   0  0  0  0  0  0  0  0  0  0  0  0
  128.0029  126.2994   59.2276 H   0  0  0  0  0  0  0  0  0  0  0  0
  130.2366  124.3694   59.0866 H   0  0  0  0  0  0  0  0  0  0  0  0
  127.3727  123.8268   58.3300 H   0  0  0  0  0  0  0  0  0  0  0  0
  128.8534  123.2966   57.5370 H   0  0  0  0  0  0  0  0  0  0  0  0
  127.3469  121.7994   59.4471 H   0  0  0  0  0  0  0  0  0  0  0  0
  129.0157  121.4175   58.9489 H   0  0  0  0  0  0  0  0  0  0  0  0
  128.2285  122.2108   61.6186 H   0  0  0  0  0  0  0  0  0  0  0  0
  130.3416  122.1843   62.3139 H   0  0  0  0  0  0  0  0  0  0  0  0
  129.8670  119.9445   62.3421 H   0  0  0  0  0  0  0  0  0  0  0  0
  128.9779  120.0720   60.7866 H   0  0  0  0  0  0  0  0  0  0  0  0
  130.7521  119.7911   60.7866 H   0  0  0  0  0  0  0  0  0  0  0  0
  131.5045  121.6233   59.5967 H   0  0  0  0  0  0  0  0  0  0  0  0
  131.4556  123.2818   60.3907 H   0  0  0  0  0  0  0  0  0  0  0  0
  132.5336  121.2208   62.1496 H   0  0  0  0  0  0  0  0  0  0  0  0
  133.4752  121.4489   60.5813 H   0  0  0  0  0  0  0  0  0  0  0  0
  134.4482  122.7725   62.3686 H   0  0  0  0  0  0  0  0  0  0  0  0
  134.2932  125.0569   61.2260 H   0  0  0  0  0  0  0  0  0  0  0  0
  134.7066  123.6761   60.1540 H   0  0  0  0  0  0  0  0  0  0  0  0
  133.0397  124.3455   60.1540 H   0  0  0  0  0  0  0  0  0  0  0  0
  131.9896  124.4674   62.4956 H   0  0  0  0  0  0  0  0  0  0  0  0
  133.3471  124.4961   65.0114 H   0  0  0  0  0  0  0  0  0  0  0  0
  134.6344  124.5335   63.7592 H   0  0  0  0  0  0  0  0  0  0  0  0
  133.3449  125.7840   63.7592 H   0  0  0  0  0  0  0  0  0  0  0  0
  132.0968  123.0674   64.9863 H   0  0  0  0  0  0  0  0  0  0  0  0
  130.8401  122.9278   63.7105 H   0  0  0  0  0  0  0  0  0  0  0  0
  132.2477  121.8119   63.7105 H   0  0  0  0  0  0  0  0  0  0  0  0
  127.3137  124.6015   62.3382 H   0  0  0  0  0  0  0  0  0  0  0  0
  127.1756  125.5801   60.8382 H   0  0  0  0  0  0  0  0  0  0  0  0
  126.6614  123.8590   60.8382 H   0  0  0  0  0  0  0  0  0  0  0  0
  129.6505  124.6641   62.7752 H   0  0  0  0  0  0  0  0  0  0  0  0
  130.8756  124.5215   61.4450 H   0  0  0  0  0  0  0  0  0  0  0  0
  128.8733  126.7963   61.8751 H   0  0  0  0  0  0  0  0  0  0  0  0
  130.6876  126.8429   62.0535 H   0  0  0  0  0  0  0  0  0  0  0  0
  131.0262  126.5542   59.7473 H   0  0  0  0  0  0  0  0  0  0  0  0
  130.7054  130.1888   56.8055 H   0  0  0  0  0  0  0  0  0  0  0  0
  129.4600  130.5812   58.0496 H   0  0  0  0  0  0  0  0  0  0  0  0
  1  2  1  0
  2  3  2  0
  2  4  1  0
  4  5  1  0
  5  6  1  0
  6  7  1  0
  7  8  1  0
  8  9  1  6
  8 10  1  0
 10 11  1  0
 11 12  1  0
 12 13  1  0
 13 14  1  0
 14 15  1  0
 15 16  1  0
 16 17  1  0
 17 18  1  0
 18 19  1  0
 18 20  1  0
 20 21  1  0
 21 22  1  0
 22 23  1  0
 22 24  1  0
 24 25  1  0
 24 26  1  0
 17 27  1  0
 27 28  1  1
 27 29  1  0
 29 30  1  0
 30 31  1  0
 10 32  1  0
 32  5  1  0
 31  8  1  0
 31 13  1  0
 27 14  1  0
  1 33  1  0
  1 34  1  0
  1 35  1  0
  5 36  1  1
  6 37  1  0
  6 38  1  0
  7 39  1  0
  7 40  1  0
  9 41  1  0
  9 42  1  0
  9 43  1  0
 10 44  1  1
 11 45  1  0
 11 46  1  0
 12 47  1  0
 12 48  1  0
 13 49  1  1
 14 50  1  1
 15 51  1  0
 15 52  1  0
 16 53  1  0
 16 54  1  0
 17 55  1  1
 18 56  1  1
 19 57  1  0
 19 58  1  0
 19 59  1  0
 20 60  1  0
 20 61  1  0
 21 62  1  0
 21 63  1  0
 22 64  1  1
 23 65  1  0
 23 66  1  0
 23 67  1  0
 24 68  1  0
 25 69  1  0
 25 70  1  0
 25 71  1  0
 26 72  1  0
 26 73  1  0
 26 74  1  0
 28 75  1  0
 28 76  1  0
 28 77  1  0
 29 78  1  0
 29 79  1  0
 30 80  1  0
 30 81  1  0
 31 82  1  6
 32 83  1  0
 32 84  1  0
M  END
>  <Binding energies>  (1) 
[-8.07]

>  <Ligand effiencies>  (1) 
[-0.2521875]

>  <Interactions>  (1) 
["V-A:ILE:369:CG2:3237, V-B:PRO:540:CA:9855, V-A:GLY:454:CA:4049, V-B:ALA:541:CB:9864, V-B:TYR:539:CE2:9848, V-B:TYR:539:C:9839, V-A:ASP:366:CG:3213, V-A:TYR:539:CD1:4873, V-B:TYR:539:CZ:9849, V-B:PRO:540:N:9856, V-A:ILE:369:CD1:3239, V-B:TYR:539:CD2:9846, V-A:TYR:539:C:4867, V-A:LEU:475:CD2:4259, V-A:ARG:545:CZ:4926, V-B:TYR:539:CG:9844, V-A:PRO:540:N:4884, H-A:TYR:539:N:4870, V-A:PRO:540:CB:4885, V-A:PRO:540:CA:4883, V-A:PRO:540:CD:4887"]

$$$$
ZINC2356649821
     RDKit          3D

 34 33  0  0  0  0  0  0  0  0999 V2000
  134.3010  124.3380   59.9260 C   0  0  0  0  0  0  0  0  0  0  0  0
  133.4190  124.4840   61.1480 C   0  0  0  0  0  0  0  0  0  0  0  0
  133.8740  124.5790   62.4090 C   0  0  0  0  0  0  0  0  0  0  0  0
  133.0280  124.7180   63.5490 C   0  0  0  0  0  0  0  0  0  0  0  0
  132.2960  124.9010   64.5090 C   0  0  0  0  0  0  0  0  0  0  0  0
  131.4830  125.1180   65.5840 C   0  0  0  0  0  0  0  0  0  0  0  0
  130.7610  125.3200   66.5490 C   0  0  0  0  0  0  0  0  0  0  0  0
  129.8680  125.5030   67.6460 C   0  0  0  0  0  0  0  0  0  0  0  0
  129.4960  126.7060   68.1150 C   0  0  0  0  0  0  0  0  0  0  0  0
  128.5800  126.8670   69.2300 C   0  0  0  0  0  0  0  0  0  0  0  0
  128.9300  126.6160   70.5070 C   0  0  0  0  0  0  0  0  0  0  0  0
  128.0630  126.7520   71.7570 C   0  0  1  0  0  0  0  0  0  0  0  0
  128.0820  125.5540   72.5160 O   0  0  0  0  0  0  0  0  0  0  0  0
  128.4790  127.9440   72.6460 C   0  0  0  0  0  0  0  0  0  0  0  0
  129.9520  128.3720   72.4900 C   0  0  0  0  0  0  0  0  0  0  0  0
  130.9370  127.3350   73.0440 C   0  0  0  0  0  0  0  0  0  0  0  0
  135.3404  124.1660   60.2424 H   0  0  0  0  0  0  0  0  0  0  0  0
  133.9550  123.4849   59.3239 H   0  0  0  0  0  0  0  0  0  0  0  0
  134.2484  125.2571   59.3239 H   0  0  0  0  0  0  0  0  0  0  0  0
  132.3304  124.5144   60.9929 H   0  0  0  0  0  0  0  0  0  0  0  0
  134.9615  124.5478   62.5713 H   0  0  0  0  0  0  0  0  0  0  0  0
  129.4600  124.6070   68.1367 H   0  0  0  0  0  0  0  0  0  0  0  0
  129.9029  127.6075   67.6336 H   0  0  0  0  0  0  0  0  0  0  0  0
  127.5551  127.2089   69.0233 H   0  0  0  0  0  0  0  0  0  0  0  0
  129.9625  126.2725   70.6681 H   0  0  0  0  0  0  0  0  0  0  0  0
  127.0392  126.9467   71.4050 H   0  0  0  0  0  0  0  0  0  0  0  0
  128.0170  124.8110   71.9120 H   0  0  0  0  0  0  0  0  0  0  0  0
  127.8421  128.8033   72.3892 H   0  0  0  0  0  0  0  0  0  0  0  0
  128.3565  127.6155   73.6886 H   0  0  0  0  0  0  0  0  0  0  0  0
  130.1630  128.5202   71.4207 H   0  0  0  0  0  0  0  0  0  0  0  0
  130.0893  129.2986   73.0667 H   0  0  0  0  0  0  0  0  0  0  0  0
  130.9145  127.3587   74.1435 H   0  0  0  0  0  0  0  0  0  0  0  0
  130.6503  126.3327   72.6929 H   0  0  0  0  0  0  0  0  0  0  0  0
  131.9527  127.5698   72.6929 H   0  0  0  0  0  0  0  0  0  0  0  0
  1  2  1  0
  2  3  2  0
  3  4  1  0
  4  5  3  0
  5  6  1  0
  6  7  3  0
  7  8  1  0
  8  9  2  0
  9 10  1  0
 10 11  2  0
 11 12  1  0
 12 13  1  0
 12 14  1  0
 14 15  1  0
 15 16  1  0
  1 17  1  0
  1 18  1  0
  1 19  1  0
  2 20  1  0
  3 21  1  0
  8 22  1  0
  9 23  1  0
 10 24  1  0
 11 25  1  0
 12 26  1  6
 13 27  1  0
 14 28  1  0
 14 29  1  0
 15 30  1  0
 15 31  1  0
 16 32  1  0
 16 33  1  0
 16 34  1  0
M  END
>  <Binding energies>  (1) 
[-6.05]

>  <Ligand effiencies>  (1) 
[-0.3558823529411765]

>  <Interactions>  (1) 
["V-A:ILE:369:CG2:3237, V-A:ASP:366:CA:3210, V-B:GLU:543:C:9874, V-A:ILE:369:CB:3236, H-B:GLU:543:O:9875, V-B:HIS:456:CD2:9039, V-B:GLU:543:CB:9878, H-B:LYS:547:NZ:9923, V-B:GLU:543:CG:9879, V-A:GLY:544:C:4912, V-A:ASP:366:CG:3213, V-A:HIS:456:CD2:4068, V-A:TYR:484:CZ:4347, V-B:HIS:456:CE1:9041, V-B:GLU:543:CA:9876, V-A:HIS:456:CE1:4070, V-A:ILE:369:CD1:3239, V-B:GLY:544:C:9884, V-A:ASP:366:CB:3212, V-A:ARG:545:CZ:4926, H-B:GLY:544:O:9885, H-A:HIS:456:NE2:4071"]

$$$$
ZINC2356655736
     RDKit          3D

 60 61  0  0  0  0  0  0  0  0999 V2000
  131.3680  123.5800   64.1900 C   0  0  0  0  0  0  0  0  0  0  0  0
  132.1930  123.2590   63.1730 C   0  0  0  0  0  0  0  0  0  0  0  0
  133.4820  123.9190   62.9970 C   0  0  0  0  0  0  0  0  0  0  0  0
  134.0310  124.7260   63.7480 O   0  0  0  0  0  0  0  0  0  0  0  0
  134.0000  123.5000   61.8240 O   0  0  0  0  0  0  0  0  0  0  0  0
  133.0300  122.8470   61.0200 C   0  0  2  0  0  0  0  0  0  0  0  0
  132.3720  123.8510   60.0680 C   0  0  0  0  0  0  0  0  0  0  0  0
  131.7290  124.9930   60.3890 C   0  0  0  0  0  0  0  0  0  0  0  0
  131.1350  125.8810   59.3060 C   0  0  0  0  0  0  0  0  0  0  0  0
  131.5100  125.4900   61.8190 C   0  0  0  0  0  0  0  0  0  0  0  0
  130.1110  126.0510   62.1430 C   0  0  0  0  0  0  0  0  0  0  0  0
  129.0760  125.0170   62.5740 C   0  0  0  0  0  0  0  0  0  0  0  0
  128.9490  123.7500   62.1150 C   0  0  0  0  0  0  0  0  0  0  0  0
  127.8480  122.9490   62.6620 C   0  0  0  0  0  0  0  0  0  0  0  0
  126.6690  123.0800   62.3380 O   0  0  0  0  0  0  0  0  0  0  0  0
  129.8620  123.1070   61.0470 C   0  0  2  0  0  0  0  0  0  0  0  0
  129.1960  122.8880   59.7930 O   0  0  0  0  0  0  0  0  0  0  0  0
  128.2530  123.7310   59.3090 C   0  0  0  0  0  0  0  0  0  0  0  0
  128.2350  124.9560   59.4640 O   0  0  0  0  0  0  0  0  0  0  0  0
  127.1540  122.9790   58.5370 C   0  0  0  0  0  0  0  0  0  0  0  0
  127.6100  122.6790   57.0960 C   0  0  0  0  0  0  0  0  0  0  0  0
  125.7990  123.7160   58.5520 C   0  0  0  0  0  0  0  0  0  0  0  0
  130.6540  121.8410   61.5300 C   0  0  1  0  0  0  0  0  0  0  0  0
  130.7590  120.8880   60.4650 O   0  0  0  0  0  0  0  0  0  0  0  0
  131.6450  119.8640   60.4950 C   0  0  0  0  0  0  0  0  0  0  0  0
  132.8420  119.9390   60.2100 O   0  0  0  0  0  0  0  0  0  0  0  0
  130.9750  118.5410   60.9090 C   0  0  0  0  0  0  0  0  0  0  0  0
  130.7950  117.6180   59.6870 C   0  0  0  0  0  0  0  0  0  0  0  0
  129.6370  118.7480   61.6500 C   0  0  0  0  0  0  0  0  0  0  0  0
  132.0750  122.2250   62.0600 C   0  0  2  0  0  0  0  0  0  0  0  0
  130.4018  123.0654   64.2978 H   0  0  0  0  0  0  0  0  0  0  0  0
  131.6612  124.3565   64.9119 H   0  0  0  0  0  0  0  0  0  0  0  0
  133.4266  122.0727   60.3469 H   0  0  0  0  0  0  0  0  0  0  0  0
  132.4307  123.6126   58.9957 H   0  0  0  0  0  0  0  0  0  0  0  0
  130.5813  126.7087   59.7733 H   0  0  0  0  0  0  0  0  0  0  0  0
  131.9436  126.2876   58.6808 H   0  0  0  0  0  0  0  0  0  0  0  0
  130.4506  125.2888   58.6808 H   0  0  0  0  0  0  0  0  0  0  0  0
  131.6979  124.6461   62.4991 H   0  0  0  0  0  0  0  0  0  0  0  0
  132.2005  126.3373   61.9428 H   0  0  0  0  0  0  0  0  0  0  0  0
  130.2189  126.7830   62.9569 H   0  0  0  0  0  0  0  0  0  0  0  0
  129.7337  126.4854   61.2055 H   0  0  0  0  0  0  0  0  0  0  0  0
  128.3546  125.3354   63.3409 H   0  0  0  0  0  0  0  0  0  0  0  0
  128.0932  122.1813   63.4107 H   0  0  0  0  0  0  0  0  0  0  0  0
  130.6345  123.8698   60.8699 H   0  0  0  0  0  0  0  0  0  0  0  0
  126.9915  122.0255   59.0608 H   0  0  0  0  0  0  0  0  0  0  0  0
  128.5287  122.0746   57.1205 H   0  0  0  0  0  0  0  0  0  0  0  0
  126.8198  122.1238   56.5694 H   0  0  0  0  0  0  0  0  0  0  0  0
  127.8070  123.6245   56.5694 H   0  0  0  0  0  0  0  0  0  0  0  0
  125.4858  123.8864   59.5926 H   0  0  0  0  0  0  0  0  0  0  0  0
  125.9016  124.6826   58.0370 H   0  0  0  0  0  0  0  0  0  0  0  0
  125.0433  123.1046   58.0370 H   0  0  0  0  0  0  0  0  0  0  0  0
  130.0961  121.3883   62.3630 H   0  0  0  0  0  0  0  0  0  0  0  0
  131.6518  118.0538   61.6263 H   0  0  0  0  0  0  0  0  0  0  0  0
  130.5949  116.5918   60.0289 H   0  0  0  0  0  0  0  0  0  0  0  0
  129.9493  117.9738   59.0802 H   0  0  0  0  0  0  0  0  0  0  0  0
  131.7124  117.6300   59.0802 H   0  0  0  0  0  0  0  0  0  0  0  0
  129.8112  118.7211   62.7358 H   0  0  0  0  0  0  0  0  0  0  0  0
  129.2104  119.7228   61.3712 H   0  0  0  0  0  0  0  0  0  0  0  0
  128.9358  117.9477   61.3712 H   0  0  0  0  0  0  0  0  0  0  0  0
  132.3318  121.2116   62.4022 H   0  0  0  0  0  0  0  0  0  0  0  0
  1  2  2  0
  2  3  1  0
  3  4  2  0
  3  5  1  0
  5  6  1  0
  6  7  1  0
  7  8  2  0
  8  9  1  0
  8 10  1  0
 10 11  1  0
 11 12  1  0
 12 13  2  0
 13 14  1  0
 14 15  2  0
 13 16  1  0
 16 17  1  0
 17 18  1  0
 18 19  2  0
 18 20  1  0
 20 21  1  0
 20 22  1  0
 16 23  1  0
 23 24  1  0
 24 25  1  0
 25 26  2  0
 25 27  1  0
 27 28  1  0
 27 29  1  0
 23 30  1  0
 30  2  1  0
 30  6  1  0
  1 31  1  0
  1 32  1  0
  6 33  1  6
  7 34  1  0
  9 35  1  0
  9 36  1  0
  9 37  1  0
 10 38  1  0
 10 39  1  0
 11 40  1  0
 11 41  1  0
 12 42  1  0
 14 43  1  0
 16 44  1  6
 20 45  1  0
 21 46  1  0
 21 47  1  0
 21 48  1  0
 22 49  1  0
 22 50  1  0
 22 51  1  0
 23 52  1  1
 27 53  1  0
 28 54  1  0
 28 55  1  0
 28 56  1  0
 29 57  1  0
 29 58  1  0
 29 59  1  0
 30 60  1  1
M  END
>  <Binding energies>  (1) 
[-5.4]

>  <Ligand effiencies>  (1) 
[-0.16875]

>  <Interactions>  (1) 
["V-A:ILE:369:CG2:3237, V-B:PRO:540:CA:9855, V-A:GLY:454:CA:4049, V-B:ALA:541:CB:9864, H-A:ARG:545:NH1:4927, V-B:TYR:539:CE2:9848, V-B:GLU:543:CG:9879, V-B:TYR:539:C:9839, V-B:TYR:539:CZ:9849, H-B:ALA:541:N:9863, V-A:LEU:475:CD1:4258, V-B:TYR:539:CB:9843, V-A:HIS:383:CE1:3393, V-B:PRO:540:CB:9857, H-A:GLY:454:N:4050, V-A:HIS:383:NE2:3394, V-B:PRO:540:N:9856, V-A:PRO:482:CB:4326, V-B:TYR:539:CD2:9846, H-A:SER:385:OG:3410, V-B:GLU:543:CD:9880, V-A:LEU:475:CD2:4259, H-A:ARG:545:NH2:4928, V-B:TYR:539:CG:9844, V-A:HIS:383:CD2:3392, V-B:TYR:539:CD1:9845, V-B:PRO:540:C:9853, V-B:ALA:541:CA:9862, V-B:TYR:539:CE1:9847"]

$$$$
ZINC2356657644
     RDKit          3D

 86 92  0  0  0  0  0  0  0  0999 V2000
  130.2940  129.1410   60.1920 C   0  0  0  0  0  0  0  0  0  0  0  0
  130.7730  128.8140   58.9750 C   0  0  0  0  0  0  0  0  0  0  0  0
  131.3750  129.8950   58.0880 C   0  0  0  0  0  0  0  0  0  0  0  0
  130.8160  127.4080   58.3320 C   0  0  1  0  0  0  0  0  0  0  0  0
  129.1700  127.0070   57.9930 C   0  0  0  0  0  0  0  0  0  0  0  0
  128.5560  125.4580   58.4490 C   0  0  2  0  0  0  0  0  0  0  0  0
  127.0180  125.5610   58.5640 C   0  0  0  0  0  0  0  0  0  0  0  0
  129.4530  124.6780   59.6970 C   0  0  1  0  0  0  0  0  0  0  0  0
  130.9290  124.1590   59.7840 O   0  0  0  0  0  0  0  0  0  0  0  0
  132.0600  125.1790   59.4110 C   0  0  1  0  0  0  0  0  0  0  0  0
  133.4600  124.6560   59.6970 C   0  0  0  0  0  0  0  0  0  0  0  0
  133.5210  123.7570   60.9210 C   0  0  0  0  0  0  0  0  0  0  0  0
  133.6150  122.3710   60.7680 C   0  0  0  0  0  0  0  0  0  0  0  0
  133.6610  121.5500   61.8910 C   0  0  0  0  0  0  0  0  0  0  0  0
  133.6120  122.1180   63.1620 C   0  0  0  0  0  0  0  0  0  0  0  0
  133.5300  123.5010   63.3220 C   0  0  0  0  0  0  0  0  0  0  0  0
  133.4860  124.3220   62.1990 C   0  0  0  0  0  0  0  0  0  0  0  0
  131.8400  125.2810   58.2030 O   0  0  0  0  0  0  0  0  0  0  0  0
  130.8660  126.1850   58.8070 C   0  0  1  0  0  0  0  0  0  0  0  0
  129.8540  125.9680   60.2580 C   0  0  2  0  0  0  0  0  0  0  0  0
  130.5210  125.9850   61.6540 C   0  0  0  0  0  0  0  0  0  0  0  0
  129.9900  125.5050   62.7880 C   0  0  0  0  0  0  0  0  0  0  0  0
  130.7500  125.7120   64.0910 C   0  0  0  0  0  0  0  0  0  0  0  0
  130.0740  125.1000   65.1800 O   0  0  0  0  0  0  0  0  0  0  0  0
  130.2630  125.5330   66.4420 C   0  0  0  0  0  0  0  0  0  0  0  0
  131.1700  125.1850   67.2020 O   0  0  0  0  0  0  0  0  0  0  0  0
  129.2000  126.5490   66.8710 C   0  0  0  0  0  0  0  0  0  0  0  0
  129.5200  127.1050   68.2560 C   0  0  0  0  0  0  0  0  0  0  0  0
  130.8070  127.5920   68.5070 C   0  0  0  0  0  0  0  0  0  0  0  0
  131.1370  128.0990   69.7620 C   0  0  0  0  0  0  0  0  0  0  0  0
  130.1830  128.1210   70.7750 C   0  0  0  0  0  0  0  0  0  0  0  0
  130.5070  128.6200   72.0100 O   0  0  0  0  0  0  0  0  0  0  0  0
  128.8980  127.6320   70.5350 C   0  0  0  0  0  0  0  0  0  0  0  0
  128.5500  127.1160   69.2740 C   0  0  0  0  0  0  0  0  0  0  0  0
  127.2980  126.6120   68.9710 O   0  0  0  0  0  0  0  0  0  0  0  0
  126.4460  127.3340   68.0900 C   0  0  0  0  0  0  0  0  0  0  0  0
  128.6320  124.8380   62.8330 C   0  0  0  0  0  0  0  0  0  0  0  0
  128.4840  123.5350   62.0010 C   0  0  2  0  0  0  0  0  0  0  0  0
  127.1990  123.0890   62.4240 O   0  0  0  0  0  0  0  0  0  0  0  0
  129.4180  122.3640   62.3360 C   0  0  0  0  0  0  0  0  0  0  0  0
  129.9450  122.0820   63.4120 O   0  0  0  0  0  0  0  0  0  0  0  0
  129.5280  121.5700   61.1160 C   0  0  0  0  0  0  0  0  0  0  0  0
  130.2290  120.2240   61.1720 C   0  0  0  0  0  0  0  0  0  0  0  0
  128.9780  122.2340   60.0830 C   0  0  0  0  0  0  0  0  0  0  0  0
  128.5350  123.6350   60.4550 C   0  0  2  0  0  0  0  0  0  0  0  0
  131.9100  126.7170   59.2770 O   0  0  0  0  0  0  0  0  0  0  0  0
  129.8577  128.3650   60.8381 H   0  0  0  0  0  0  0  0  0  0  0  0
  130.3395  130.1839   60.5389 H   0  0  0  0  0  0  0  0  0  0  0  0
  131.8140  130.6833   58.7173 H   0  0  0  0  0  0  0  0  0  0  0  0
  132.1577  129.4544   57.4529 H   0  0  0  0  0  0  0  0  0  0  0  0
  130.5883  130.3284   57.4529 H   0  0  0  0  0  0  0  0  0  0  0  0
  128.5474  127.7589   58.4999 H   0  0  0  0  0  0  0  0  0  0  0  0
  129.1327  126.9843   56.8939 H   0  0  0  0  0  0  0  0  0  0  0  0
  128.7310  124.7078   57.6638 H   0  0  0  0  0  0  0  0  0  0  0  0
  126.7302  125.5803   59.6255 H   0  0  0  0  0  0  0  0  0  0  0  0
  126.6747  126.4841   58.0742 H   0  0  0  0  0  0  0  0  0  0  0  0
  126.5547  124.6919   58.0742 H   0  0  0  0  0  0  0  0  0  0  0  0
  133.8049  124.0828   58.8238 H   0  0  0  0  0  0  0  0  0  0  0  0
  134.1015  125.5269   59.8968 H   0  0  0  0  0  0  0  0  0  0  0  0
  133.6526  121.9295   59.7612 H   0  0  0  0  0  0  0  0  0  0  0  0
  133.7356  120.4586   61.7755 H   0  0  0  0  0  0  0  0  0  0  0  0
  133.6383  121.4685   64.0494 H   0  0  0  0  0  0  0  0  0  0  0  0
  133.5003  123.9404   64.3300 H   0  0  0  0  0  0  0  0  0  0  0  0
  133.4238  125.4139   62.3170 H   0  0  0  0  0  0  0  0  0  0  0  0
  130.5346  125.1569   58.5989 H   0  0  0  0  0  0  0  0  0  0  0  0
  129.1182  126.7286   60.5579 H   0  0  0  0  0  0  0  0  0  0  0  0
  131.5236  126.4322   61.7226 H   0  0  0  0  0  0  0  0  0  0  0  0
  131.7527  125.2697   63.9962 H   0  0  0  0  0  0  0  0  0  0  0  0
  130.8209  126.7922   64.2863 H   0  0  0  0  0  0  0  0  0  0  0  0
  129.1759  127.3757   66.1458 H   0  0  0  0  0  0  0  0  0  0  0  0
  128.2219  126.0470   66.9065 H   0  0  0  0  0  0  0  0  0  0  0  0
  131.5633  127.5746   67.7085 H   0  0  0  0  0  0  0  0  0  0  0  0
  132.1507  128.4816   69.9520 H   0  0  0  0  0  0  0  0  0  0  0  0
  130.5230  129.5800   72.0300 H   0  0  0  0  0  0  0  0  0  0  0  0
  128.1495  127.6504   71.3408 H   0  0  0  0  0  0  0  0  0  0  0  0
  125.7363  127.9354   68.6771 H   0  0  0  0  0  0  0  0  0  0  0  0
  127.0521  127.9977   67.4558 H   0  0  0  0  0  0  0  0  0  0  0  0
  125.8907  126.6273   67.4558 H   0  0  0  0  0  0  0  0  0  0  0  0
  128.4121  124.5935   63.8827 H   0  0  0  0  0  0  0  0  0  0  0  0
  127.9335  125.5581   62.3818 H   0  0  0  0  0  0  0  0  0  0  0  0
  126.7360  123.8280   62.8260 H   0  0  0  0  0  0  0  0  0  0  0  0
  130.3806  119.9329   62.2219 H   0  0  0  0  0  0  0  0  0  0  0  0
  129.6105  119.4672   60.6673 H   0  0  0  0  0  0  0  0  0  0  0  0
  131.2037  120.2969   60.6673 H   0  0  0  0  0  0  0  0  0  0  0  0
  128.8623  121.8059   59.0763 H   0  0  0  0  0  0  0  0  0  0  0  0
  127.5551  124.0201   60.1363 H   0  0  0  0  0  0  0  0  0  0  0  0
  1  2  2  0
  2  3  1  0
  4  2  1  1
  4  5  1  0
  5  6  1  0
  6  7  1  0
  6  8  1  0
  8  9  1  6
  9 10  1  0
 10 11  1  6
 11 12  1  0
 12 13  2  0
 13 14  1  0
 14 15  2  0
 15 16  1  0
 16 17  2  0
 10 18  1  0
 18 19  1  0
 19 20  1  0
 20 21  1  0
 21 22  2  0
 22 23  1  0
 23 24  1  0
 24 25  1  0
 25 26  2  0
 25 27  1  0
 27 28  1  0
 28 29  2  0
 29 30  1  0
 30 31  2  0
 31 32  1  0
 31 33  1  0
 33 34  2  0
 34 35  1  0
 35 36  1  0
 22 37  1  0
 37 38  1  0
 38 39  1  6
 38 40  1  0
 40 41  2  0
 40 42  1  0
 42 43  1  0
 42 44  2  0
 44 45  1  0
 10 46  1  0
 19  4  1  0
 34 28  1  0
 45 38  1  0
 46  4  1  0
 20  8  1  0
 45  8  1  0
 17 12  1  0
  1 47  1  0
  1 48  1  0
  3 49  1  0
  3 50  1  0
  3 51  1  0
  5 52  1  0
  5 53  1  0
  6 54  1  6
  7 55  1  0
  7 56  1  0
  7 57  1  0
 11 58  1  0
 11 59  1  0
 13 60  1  0
 14 61  1  0
 15 62  1  0
 16 63  1  0
 17 64  1  0
 19 65  1  6
 20 66  1  1
 21 67  1  0
 23 68  1  0
 23 69  1  0
 27 70  1  0
 27 71  1  0
 29 72  1  0
 30 73  1  0
 32 74  1  0
 33 75  1  0
 36 76  1  0
 36 77  1  0
 36 78  1  0
 37 79  1  0
 37 80  1  0
 39 81  1  0
 43 82  1  0
 43 83  1  0
 43 84  1  0
 44 85  1  0
 45 86  1  6
M  END
>  <Binding energies>  (1) 
[-9.37]

>  <Ligand effiencies>  (1) 
[-0.18739999999999998]

>  <Interactions>  (1) 
["V-A:ILE:369:CG2:3237, V-A:ASP:366:CA:3210, V-B:PRO:540:CA:9855, V-A:GLU:543:CA:4904, V-A:GLY:454:CA:4049, V-A:GLU:543:C:4902, V-B:GLU:543:CB:9878, V-B:ALA:541:CB:9864, V-B:TYR:539:CE2:9848, V-B:GLU:543:CG:9879, V-A:GLY:544:C:4912, V-B:TYR:539:C:9839, V-A:ASP:366:CG:3213, H-B:GLU:543:OE1:9881, H-B:TYR:539:OH:9850, V-B:ARG:545:CG:9894, H-B:ALA:541:N:9863, V-A:GLU:543:CD:4908, V-B:HIS:456:CE1:9041, V-A:ILE:369:CD1:3239, V-A:HIS:456:CE1:4070, V-B:TYR:539:CD2:9846, V-A:GLU:543:CG:4907, V-A:SER:385:CB:3409, V-B:GLU:543:CD:9880, V-A:ASP:366:CB:3212, H-A:LYS:547:NZ:4951, V-A:LEU:475:CD2:4259, V-A:GLU:543:CB:4906, H-A:GLY:544:O:4913, H-A:TYR:484:OH:4348, H-A:GLU:543:O:4903"]

$$$$
ZINC2356661192
     RDKit          3D

 68 70  0  0  0  0  0  0  0  0999 V2000
  130.7420  121.3690   60.9180 C   0  0  0  0  0  0  0  0  0  0  0  0
  129.4580  121.1700   61.4940 O   0  0  0  0  0  0  0  0  0  0  0  0
  128.4210  121.8840   60.8860 C   0  0  2  0  0  0  0  0  0  0  0  0
  128.7080  122.1860   59.5430 O   0  0  0  0  0  0  0  0  0  0  0  0
  127.5650  122.6410   58.8000 C   0  0  2  0  0  0  0  0  0  0  0  0
  128.0740  123.2180   57.4680 C   0  0  0  0  0  0  0  0  0  0  0  0
  126.7370  123.6610   59.5930 C   0  0  0  0  0  0  0  0  0  0  0  0
  125.5560  124.3250   58.9010 C   0  0  0  0  0  0  0  0  0  0  0  0
  127.0190  123.8950   60.8910 C   0  0  0  0  0  0  0  0  0  0  0  0
  128.1670  123.2210   61.6590 C   0  0  1  0  0  0  0  0  0  0  0  0
  127.6760  122.8500   63.0840 C   0  0  0  0  0  0  0  0  0  0  0  0
  129.3940  124.1900   61.7650 C   0  0  0  0  0  0  0  0  0  0  0  0
  130.1370  124.2680   63.1020 C   0  0  0  0  0  0  0  0  0  0  0  0
  129.8640  124.9830   60.7640 C   0  0  0  0  0  0  0  0  0  0  0  0
  129.3480  125.1450   59.4090 C   0  0  0  0  0  0  0  0  0  0  0  0
  129.9820  125.7420   58.3790 C   0  0  0  0  0  0  0  0  0  0  0  0
  131.3120  126.3420   58.4100 C   0  0  0  0  0  0  0  0  0  0  0  0
  131.7110  127.3420   59.2220 C   0  0  0  0  0  0  0  0  0  0  0  0
  130.8840  128.0280   60.2060 C   0  0  0  0  0  0  0  0  0  0  0  0
  130.4980  129.3200   60.1590 C   0  0  0  0  0  0  0  0  0  0  0  0
  130.8340  130.3980   59.1030 C   0  0  2  0  0  0  0  0  0  0  0  0
  130.5750  129.7090   57.7180 C   0  0  0  0  0  0  0  0  0  0  0  0
  132.2130  131.0940   59.2590 C   0  0  1  0  0  0  0  0  0  0  0  0
  132.1150  132.1010   58.2240 O   0  0  0  0  0  0  0  0  0  0  0  0
  130.8440  132.5930   58.2490 C   0  0  0  0  0  0  0  0  0  0  0  0
  130.4160  133.4490   57.4770 O   0  0  0  0  0  0  0  0  0  0  0  0
  130.1380  131.7710   59.3450 C   0  0  1  0  0  0  0  0  0  0  0  0
  128.5950  131.8450   59.2590 C   0  0  0  0  0  0  0  0  0  0  0  0
  130.7100  132.2120   60.7230 C   0  0  0  0  0  0  0  0  0  0  0  0
  130.0990  132.6510   61.6970 O   0  0  0  0  0  0  0  0  0  0  0  0
  132.2100  131.8490   60.6300 C   0  0  1  0  0  0  0  0  0  0  0  0
  132.7020  131.0860   61.8770 C   0  0  0  0  0  0  0  0  0  0  0  0
  131.4886  121.4847   61.7175 H   0  0  0  0  0  0  0  0  0  0  0  0
  131.0031  120.5006   60.2953 H   0  0  0  0  0  0  0  0  0  0  0  0
  130.7280  122.2757   60.2953 H   0  0  0  0  0  0  0  0  0  0  0  0
  127.5255  121.2459   60.9161 H   0  0  0  0  0  0  0  0  0  0  0  0
  126.8830  121.8003   58.6049 H   0  0  0  0  0  0  0  0  0  0  0  0
  128.7894  124.0290   57.6692 H   0  0  0  0  0  0  0  0  0  0  0  0
  128.5718  122.4247   56.8911 H   0  0  0  0  0  0  0  0  0  0  0  0
  127.2248  123.6130   56.8911 H   0  0  0  0  0  0  0  0  0  0  0  0
  124.8602  124.7162   59.6578 H   0  0  0  0  0  0  0  0  0  0  0  0
  125.9171  125.1523   58.2724 H   0  0  0  0  0  0  0  0  0  0  0  0
  125.0368  123.5866   58.2724 H   0  0  0  0  0  0  0  0  0  0  0  0
  126.3876  124.6135   61.4342 H   0  0  0  0  0  0  0  0  0  0  0  0
  128.3196  123.3363   63.8318 H   0  0  0  0  0  0  0  0  0  0  0  0
  126.6387  123.1920   63.2150 H   0  0  0  0  0  0  0  0  0  0  0  0
  127.7217  121.7588   63.2150 H   0  0  0  0  0  0  0  0  0  0  0  0
  129.4145  124.1922   63.9280 H   0  0  0  0  0  0  0  0  0  0  0  0
  130.8588  123.4407   63.1691 H   0  0  0  0  0  0  0  0  0  0  0  0
  130.6713  125.2272   63.1691 H   0  0  0  0  0  0  0  0  0  0  0  0
  130.7528  125.5827   61.0096 H   0  0  0  0  0  0  0  0  0  0  0  0
  128.3448  124.7412   59.2079 H   0  0  0  0  0  0  0  0  0  0  0  0
  129.4432  125.7804   57.4207 H   0  0  0  0  0  0  0  0  0  0  0  0
  132.0572  125.9419   57.7067 H   0  0  0  0  0  0  0  0  0  0  0  0
  132.7572  127.6700   59.1333 H   0  0  0  0  0  0  0  0  0  0  0  0
  130.5421  127.4369   61.0684 H   0  0  0  0  0  0  0  0  0  0  0  0
  129.8549  129.6525   60.9871 H   0  0  0  0  0  0  0  0  0  0  0  0
  130.1922  128.6907   57.8809 H   0  0  0  0  0  0  0  0  0  0  0  0
  129.8349  130.2926   57.1509 H   0  0  0  0  0  0  0  0  0  0  0  0
  131.5163  129.6605   57.1509 H   0  0  0  0  0  0  0  0  0  0  0  0
  133.0869  130.4282   59.2039 H   0  0  0  0  0  0  0  0  0  0  0  0
  128.1717  131.8653   60.2741 H   0  0  0  0  0  0  0  0  0  0  0  0
  128.3011  132.7583   58.7209 H   0  0  0  0  0  0  0  0  0  0  0  0
  128.2151  130.9640   58.7209 H   0  0  0  0  0  0  0  0  0  0  0  0
  132.9342  132.6769   60.6382 H   0  0  0  0  0  0  0  0  0  0  0  0
  132.3646  131.6093   62.7838 H   0  0  0  0  0  0  0  0  0  0  0  0
  132.2913  130.0656   61.8682 H   0  0  0  0  0  0  0  0  0  0  0  0
  133.8010  131.0390   61.8682 H   0  0  0  0  0  0  0  0  0  0  0  0
  1  2  1  0
  2  3  1  0
  3  4  1  0
  4  5  1  0
  5  6  1  0
  5  7  1  0
  7  8  1  0
  7  9  2  0
  9 10  1  0
 10 11  1  1
 10 12  1  0
 12 13  1  0
 12 14  2  0
 14 15  1  0
 15 16  2  0
 16 17  1  0
 17 18  2  0
 18 19  1  0
 19 20  2  0
 20 21  1  0
 21 22  1  6
 21 23  1  0
 23 24  1  0
 24 25  1  0
 25 26  2  0
 25 27  1  0
 27 28  1  1
 27 29  1  0
 29 30  2  0
 29 31  1  0
 31 32  1  0
 10  3  1  0
 27 21  1  0
 31 23  1  0
  1 33  1  0
  1 34  1  0
  1 35  1  0
  3 36  1  6
  5 37  1  6
  6 38  1  0
  6 39  1  0
  6 40  1  0
  8 41  1  0
  8 42  1  0
  8 43  1  0
  9 44  1  0
 11 45  1  0
 11 46  1  0
 11 47  1  0
 13 48  1  0
 13 49  1  0
 13 50  1  0
 14 51  1  0
 15 52  1  0
 16 53  1  0
 17 54  1  0
 18 55  1  0
 19 56  1  0
 20 57  1  0
 22 58  1  0
 22 59  1  0
 22 60  1  0
 23 61  1  6
 28 62  1  0
 28 63  1  0
 28 64  1  0
 31 65  1  6
 32 66  1  0
 32 67  1  0
 32 68  1  0
M  END
>  <Binding energies>  (1) 
[-8.58]

>  <Ligand effiencies>  (1) 
[-0.268125]

>  <Interactions>  (1) 
["V-B:PRO:540:CA:9855, H-A:ALA:541:N:4891, V-A:PRO:540:C:4881, V-B:ALA:541:CB:9864, V-B:TYR:539:CE2:9848, V-B:GLU:543:CG:9879, V-B:TYR:539:C:9839, V-A:ASP:366:CG:3213, V-A:ASN:362:CB:3176, V-B:TYR:539:CZ:9849, H-B:ALA:541:N:9863, V-B:PRO:540:CB:9857, V-B:PRO:540:N:9856, V-B:TYR:539:CD2:9846, V-B:GLU:543:CD:9880, V-A:TYR:539:C:4867, V-A:ASP:366:CB:3212, V-A:LEU:475:CD2:4259, V-B:TYR:539:CG:9844, V-B:TYR:539:CD1:9845, V-A:PRO:540:N:4884, H-A:TYR:539:N:4870, V-A:PRO:540:CB:4885, V-A:PRO:540:CA:4883, V-B:PRO:540:C:9853, V-B:ALA:541:CA:9862, V-A:PRO:540:CD:4887, V-B:TYR:539:CE1:9847"]

$$$$
ZINC2356665243
     RDKit          3D

 60 61  0  0  0  0  0  0  0  0999 V2000
  129.8270  120.4630   61.6120 C   0  0  0  0  0  0  0  0  0  0  0  0
  129.9570  121.7700   61.9350 C   0  0  0  0  0  0  0  0  0  0  0  0
  131.1320  122.5990   61.4060 C   0  0  1  0  0  0  0  0  0  0  0  0
  130.8520  124.0260   60.9240 C   0  0  0  0  0  0  0  0  0  0  0  0
  132.2130  124.6750   61.0220 C   0  0  0  0  0  0  0  0  0  0  0  0
  133.0570  123.9670   61.7960 C   0  0  0  0  0  0  0  0  0  0  0  0
  134.5040  124.2650   62.1350 C   0  0  0  0  0  0  0  0  0  0  0  0
  132.3540  122.7250   62.3450 C   0  0  1  0  0  0  0  0  0  0  0  0
  132.0930  122.7820   63.8840 C   0  0  1  0  0  0  0  0  0  0  0  0
  133.2430  123.2320   64.5820 O   0  0  0  0  0  0  0  0  0  0  0  0
  130.8060  123.5600   64.3070 C   0  0  1  0  0  0  0  0  0  0  0  0
  130.6780  124.9700   63.6310 C   0  0  2  0  0  0  0  0  0  0  0  0
  131.9350  125.8390   63.8770 C   0  0  0  0  0  0  0  0  0  0  0  0
  129.3780  125.7370   63.9960 C   0  0  0  0  0  0  0  0  0  0  0  0
  129.2910  126.1790   65.4470 C   0  0  0  0  0  0  0  0  0  0  0  0
  128.6160  127.2650   65.8770 C   0  0  0  0  0  0  0  0  0  0  0  0
  128.4770  127.7760   67.3120 C   0  0  0  0  0  0  0  0  0  0  0  0
  129.6570  127.3080   68.1850 C   0  0  0  0  0  0  0  0  0  0  0  0
  128.3470  129.3110   67.3470 C   0  0  0  0  0  0  0  0  0  0  0  0
  127.2990  127.2540   67.9040 O   0  0  0  0  0  0  0  0  0  0  0  0
  129.4860  122.7430   64.2580 C   0  0  0  0  0  0  0  0  0  0  0  0
  128.9290  122.4460   62.8510 C   0  0  1  0  0  0  0  0  0  0  0  0
  128.4390  123.6860   62.3250 O   0  0  0  0  0  0  0  0  0  0  0  0
  127.2620  123.7630   61.6630 C   0  0  0  0  0  0  0  0  0  0  0  0
  127.2290  124.9240   60.6770 C   0  0  0  0  0  0  0  0  0  0  0  0
  126.2970  123.0090   61.7990 O   0  0  0  0  0  0  0  0  0  0  0  0
  128.9773  119.8823   62.0004 H   0  0  0  0  0  0  0  0  0  0  0  0
  130.5709  119.9807   60.9609 H   0  0  0  0  0  0  0  0  0  0  0  0
  131.3485  121.9576   60.5390 H   0  0  0  0  0  0  0  0  0  0  0  0
  130.4826  124.0307   59.8879 H   0  0  0  0  0  0  0  0  0  0  0  0
  130.0759  124.5426   61.5078 H   0  0  0  0  0  0  0  0  0  0  0  0
  132.4827  125.6158   60.5198 H   0  0  0  0  0  0  0  0  0  0  0  0
  134.6269  124.2903   63.2278 H   0  0  0  0  0  0  0  0  0  0  0  0
  135.1488  123.4808   61.7116 H   0  0  0  0  0  0  0  0  0  0  0  0
  134.7865  125.2402   61.7116 H   0  0  0  0  0  0  0  0  0  0  0  0
  132.9525  121.8023   62.3222 H   0  0  0  0  0  0  0  0  0  0  0  0
  131.8875  121.7429   64.1808 H   0  0  0  0  0  0  0  0  0  0  0  0
  132.9560  123.6860   65.3770 H   0  0  0  0  0  0  0  0  0  0  0  0
  130.9636  123.7434   65.3801 H   0  0  0  0  0  0  0  0  0  0  0  0
  130.6041  124.7652   62.5528 H   0  0  0  0  0  0  0  0  0  0  0  0
  132.0972  125.9511   64.9592 H   0  0  0  0  0  0  0  0  0  0  0  0
  132.8113  125.3529   63.4233 H   0  0  0  0  0  0  0  0  0  0  0  0
  131.7898  126.8305   63.4233 H   0  0  0  0  0  0  0  0  0  0  0  0
  129.3180  126.6327   63.3603 H   0  0  0  0  0  0  0  0  0  0  0  0
  128.5461  125.0360   63.8331 H   0  0  0  0  0  0  0  0  0  0  0  0
  129.8149  125.5711   66.1993 H   0  0  0  0  0  0  0  0  0  0  0  0
  128.1037  127.8542   65.1021 H   0  0  0  0  0  0  0  0  0  0  0  0
  129.3916  127.4133   69.2473 H   0  0  0  0  0  0  0  0  0  0  0  0
  129.8799  126.2534   67.9655 H   0  0  0  0  0  0  0  0  0  0  0  0
  130.5421  127.9232   67.9655 H   0  0  0  0  0  0  0  0  0  0  0  0
  128.3181  129.6528   68.3922 H   0  0  0  0  0  0  0  0  0  0  0  0
  129.2100  129.7638   66.8369 H   0  0  0  0  0  0  0  0  0  0  0  0
  127.4201  129.6122   66.8369 H   0  0  0  0  0  0  0  0  0  0  0  0
  126.8020  126.7860   67.2300 H   0  0  0  0  0  0  0  0  0  0  0  0
  129.6667  121.7805   64.7589 H   0  0  0  0  0  0  0  0  0  0  0  0
  128.7292  123.3707   64.7511 H   0  0  0  0  0  0  0  0  0  0  0  0
  128.1106  121.7136   62.9125 H   0  0  0  0  0  0  0  0  0  0  0  0
  127.2020  125.8743   61.2303 H   0  0  0  0  0  0  0  0  0  0  0  0
  128.1284  124.8935   60.0444 H   0  0  0  0  0  0  0  0  0  0  0  0
  126.3328  124.8424   60.0444 H   0  0  0  0  0  0  0  0  0  0  0  0
  1  2  2  0
  2  3  1  0
  3  4  1  0
  4  5  1  0
  5  6  2  0
  6  7  1  0
  6  8  1  0
  8  9  1  0
  9 10  1  0
  9 11  1  0
 11 12  1  0
 12 13  1  0
 12 14  1  0
 14 15  1  0
 15 16  2  0
 16 17  1  0
 17 18  1  0
 17 19  1  0
 17 20  1  0
 11 21  1  0
 21 22  1  0
 22 23  1  0
 23 24  1  0
 24 25  1  0
 24 26  2  0
 22  2  1  0
  8  3  1  0
  1 27  1  0
  1 28  1  0
  3 29  1  6
  4 30  1  0
  4 31  1  0
  5 32  1  0
  7 33  1  0
  7 34  1  0
  7 35  1  0
  8 36  1  1
  9 37  1  1
 10 38  1  0
 11 39  1  1
 12 40  1  6
 13 41  1  0
 13 42  1  0
 13 43  1  0
 14 44  1  0
 14 45  1  0
 15 46  1  0
 16 47  1  0
 18 48  1  0
 18 49  1  0
 18 50  1  0
 19 51  1  0
 19 52  1  0
 19 53  1  0
 20 54  1  0
 21 55  1  0
 21 56  1  0
 22 57  1  1
 25 58  1  0
 25 59  1  0
 25 60  1  0
M  END
>  <Binding energies>  (1) 
[-5.19]

>  <Ligand effiencies>  (1) 
[-0.17300000000000001]

>  <Interactions>  (1) 
["V-A:ILE:369:CD1:3239, V-A:HIS:456:CE1:4070, H-B:GLU:543:OE2:9882, V-A:GLY:453:CA:4044, V-B:TYR:484:CZ:9318, V-B:GLU:543:CB:9878, V-A:GLU:543:CG:4907, H-B:ALA:541:N:9863, V-B:GLU:543:CD:9880, V-B:ALA:541:CB:9864, V-A:ARG:545:CZ:4926, V-A:GLU:543:CD:4908, V-A:GLU:543:CB:4906, V-A:LEU:475:CD2:4259, V-B:GLU:543:CG:9879, V-B:HIS:456:CE1:9041, H-A:GLY:454:N:4050, H-A:TYR:484:OH:4348"]

$$$$
ZINC2356668757
     RDKit          3D

 43 42  0  0  0  0  0  0  0  0999 V2000
  132.7320  125.0990   65.1740 C   0  0  0  0  0  0  0  0  0  0  0  0
  131.3180  124.6730   64.7540 C   0  0  0  0  0  0  0  0  0  0  0  0
  130.2170  125.3400   65.5980 C   0  0  0  0  0  0  0  0  0  0  0  0
  130.5290  125.3320   67.1050 C   0  0  0  0  0  0  0  0  0  0  0  0
  129.4770  126.0850   67.9390 C   0  0  0  0  0  0  0  0  0  0  0  0
  130.0180  127.3830   68.5620 C   0  0  0  0  0  0  0  0  0  0  0  0
  129.0500  128.0070   69.5830 C   0  0  0  0  0  0  0  0  0  0  0  0
  128.3100  126.9540   70.4320 C   0  0  0  0  0  0  0  0  0  0  0  0
  128.6770  126.9820   71.9350 C   0  0  1  0  0  0  0  0  0  0  0  0
  128.6370  125.6750   72.4840 O   0  0  0  0  0  0  0  0  0  0  0  0
  130.0380  127.6710   72.2410 C   0  0  2  0  0  0  0  0  0  0  0  0
  130.8800  126.9510   73.3220 C   0  0  0  0  0  0  0  0  0  0  0  0
  129.8480  129.0920   72.5550 N   0  0  0  0  0  0  0  0  0  0  0  0
  129.1240  129.5870   73.5750 C   0  0  0  0  0  0  0  0  0  0  0  0
  129.0680  131.1060   73.6940 C   0  0  0  0  0  0  0  0  0  0  0  0
  128.5250  128.8890   74.3930 O   0  0  0  0  0  0  0  0  0  0  0  0
  132.7980  125.1189   66.2718 H   0  0  0  0  0  0  0  0  0  0  0  0
  133.4646  124.3817   64.7755 H   0  0  0  0  0  0  0  0  0  0  0  0
  132.9464  126.1016   64.7755 H   0  0  0  0  0  0  0  0  0  0  0  0
  131.1671  124.9477   63.6996 H   0  0  0  0  0  0  0  0  0  0  0  0
  131.2405  123.5867   64.9086 H   0  0  0  0  0  0  0  0  0  0  0  0
  130.1059  126.3835   65.2683 H   0  0  0  0  0  0  0  0  0  0  0  0
  129.2925  124.7627   65.4496 H   0  0  0  0  0  0  0  0  0  0  0  0
  130.5684  124.2881   67.4496 H   0  0  0  0  0  0  0  0  0  0  0  0
  131.4911  125.8464   67.2454 H   0  0  0  0  0  0  0  0  0  0  0  0
  128.6279  126.3370   67.2867 H   0  0  0  0  0  0  0  0  0  0  0  0
  129.1787  125.4236   68.7658 H   0  0  0  0  0  0  0  0  0  0  0  0
  130.9675  127.1591   69.0702 H   0  0  0  0  0  0  0  0  0  0  0  0
  130.1509  128.1096   67.7469 H   0  0  0  0  0  0  0  0  0  0  0  0
  129.6241  128.6602   70.2567 H   0  0  0  0  0  0  0  0  0  0  0  0
  128.2906  128.5668   69.0174 H   0  0  0  0  0  0  0  0  0  0  0  0
  127.2286  127.1319   70.3372 H   0  0  0  0  0  0  0  0  0  0  0  0
  128.6139  125.9683   70.0499 H   0  0  0  0  0  0  0  0  0  0  0  0
  127.9123  127.6055   72.4213 H   0  0  0  0  0  0  0  0  0  0  0  0
  128.4260  125.0560   71.7800 H   0  0  0  0  0  0  0  0  0  0  0  0
  130.6315  127.5933   71.3181 H   0  0  0  0  0  0  0  0  0  0  0  0
  130.5290  127.2512   74.3203 H   0  0  0  0  0  0  0  0  0  0  0  0
  130.7710  125.8625   73.2069 H   0  0  0  0  0  0  0  0  0  0  0  0
  131.9384  127.2277   73.2069 H   0  0  0  0  0  0  0  0  0  0  0  0
  130.3260  129.7420   71.9480 H   0  0  0  0  0  0  0  0  0  0  0  0
  129.0575  131.3904   74.7565 H   0  0  0  0  0  0  0  0  0  0  0  0
  129.9506  131.5448   73.2057 H   0  0  0  0  0  0  0  0  0  0  0  0
  128.1555  131.4787   73.2057 H   0  0  0  0  0  0  0  0  0  0  0  0
  1  2  1  0
  2  3  1  0
  3  4  1  0
  4  5  1  0
  5  6  1  0
  6  7  1  0
  7  8  1  0
  8  9  1  0
  9 10  1  0
  9 11  1  0
 11 12  1  0
 11 13  1  0
 13 14  1  0
 14 15  1  0
 14 16  2  0
  1 17  1  0
  1 18  1  0
  1 19  1  0
  2 20  1  0
  2 21  1  0
  3 22  1  0
  3 23  1  0
  4 24  1  0
  4 25  1  0
  5 26  1  0
  5 27  1  0
  6 28  1  0
  6 29  1  0
  7 30  1  0
  7 31  1  0
  8 32  1  0
  8 33  1  0
  9 34  1  1
 10 35  1  0
 11 36  1  6
 12 37  1  0
 12 38  1  0
 12 39  1  0
 13 40  1  0
 15 41  1  0
 15 42  1  0
 15 43  1  0
M  END
>  <Binding energies>  (1) 
[-4.89]

>  <Ligand effiencies>  (1) 
[-0.27166666666666667]

>  <Interactions>  (1) 
["V-B:GLU:543:C:9874, V-B:HIS:456:CD2:9039, H-B:GLU:543:O:9875, V-B:GLU:543:CB:9878, H-B:LYS:547:NZ:9923, V-A:TYR:484:CE2:4346, V-B:GLU:543:CG:9879, V-A:GLY:544:C:4912, V-A:HIS:456:CD2:4068, V-A:TYR:484:CZ:4347, V-B:HIS:456:CE1:9041, V-A:HIS:456:CE1:4070, H-A:LYS:547:NZ:4951, V-A:ARG:545:CZ:4926, V-A:HIS:456:CG:4066, V-A:GLU:543:CB:4906, V-A:LYS:547:CE:4950, H-A:GLY:544:O:4913, H-A:HIS:456:NE2:4071, H-A:GLU:543:O:4903"]

$$$$
ZINC2356671737
     RDKit          3D

 65 66  0  0  0  0  0  0  0  0999 V2000
  129.2390  127.7670   74.9950 C   0  0  0  0  0  0  0  0  0  0  0  0
  129.2740  127.9870   73.4940 C   0  0  0  0  0  0  0  0  0  0  0  0
  129.6770  128.9920   72.7150 C   0  0  0  0  0  0  0  0  0  0  0  0
  130.2150  130.2140   72.9670 O   0  0  0  0  0  0  0  0  0  0  0  0
  129.5360  128.7900   71.3990 O   0  0  0  0  0  0  0  0  0  0  0  0
  129.0190  127.5500   71.2520 C   0  0  0  0  0  0  0  0  0  0  0  0
  128.7810  126.9680   70.0610 C   0  0  0  0  0  0  0  0  0  0  0  0
  129.0480  127.5980   68.6990 C   0  0  2  0  0  0  0  0  0  0  0  0
  127.7990  127.5450   67.8020 C   0  0  0  0  0  0  0  0  0  0  0  0
  130.2710  126.9530   68.0060 C   0  0  0  0  0  0  0  0  0  0  0  0
  129.8940  125.8600   66.9850 C   0  0  0  0  0  0  0  0  0  0  0  0
  131.0890  125.1290   66.3980 C   0  0  0  0  0  0  0  0  0  0  0  0
  131.4650  125.1380   65.1010 C   0  0  0  0  0  0  0  0  0  0  0  0
  132.6600  124.3330   64.6150 C   0  0  0  0  0  0  0  0  0  0  0  0
  130.7610  125.9600   64.0250 C   0  0  0  0  0  0  0  0  0  0  0  0
  130.8290  125.3370   62.6220 C   0  0  0  0  0  0  0  0  0  0  0  0
  129.5140  124.7170   62.1780 C   0  0  0  0  0  0  0  0  0  0  0  0
  129.1390  123.4260   62.2950 C   0  0  0  0  0  0  0  0  0  0  0  0
  127.7710  122.9600   61.8220 C   0  0  0  0  0  0  0  0  0  0  0  0
  130.0300  122.3280   62.8690 C   0  0  0  0  0  0  0  0  0  0  0  0
  131.0810  121.8050   61.8700 C   0  0  0  0  0  0  0  0  0  0  0  0
  132.5180  122.2780   62.1670 C   0  0  0  0  0  0  0  0  0  0  0  0
  133.1740  123.0660   61.0450 C   0  0  0  0  0  0  0  0  0  0  0  0
  132.8870  123.1230   59.7380 C   0  0  0  0  0  0  0  0  0  0  0  0
  133.8130  124.0260   59.0870 C   0  0  0  0  0  0  0  0  0  0  0  0
  133.8410  124.3250   57.8960 O   0  0  0  0  0  0  0  0  0  0  0  0
  134.6700  124.4900   60.0130 O   0  0  0  0  0  0  0  0  0  0  0  0
  134.3530  123.9710   61.2530 C   0  0  1  0  0  0  0  0  0  0  0  0
  134.1140  124.9400   62.1940 O   0  0  0  0  0  0  0  0  0  0  0  0
  128.8100  126.9740   72.5740 C   0  0  0  0  0  0  0  0  0  0  0  0
  128.3580  125.8630   72.8470 O   0  0  0  0  0  0  0  0  0  0  0  0
  129.3917  128.7270   75.5099 H   0  0  0  0  0  0  0  0  0  0  0  0
  128.2630  127.3484   75.2816 H   0  0  0  0  0  0  0  0  0  0  0  0
  130.0369  127.0662   75.2816 H   0  0  0  0  0  0  0  0  0  0  0  0
  130.1530  130.7560   72.1780 H   0  0  0  0  0  0  0  0  0  0  0  0
  128.3583  125.9525   70.0721 H   0  0  0  0  0  0  0  0  0  0  0  0
  129.2885  128.6581   68.8675 H   0  0  0  0  0  0  0  0  0  0  0  0
  126.8973  127.5067   68.4309 H   0  0  0  0  0  0  0  0  0  0  0  0
  127.7653  128.4425   67.1669 H   0  0  0  0  0  0  0  0  0  0  0  0
  127.8415  126.6478   67.1669 H   0  0  0  0  0  0  0  0  0  0  0  0
  130.8300  127.7418   67.4812 H   0  0  0  0  0  0  0  0  0  0  0  0
  130.8702  126.4692   68.7915 H   0  0  0  0  0  0  0  0  0  0  0  0
  129.2500  125.1235   67.4878 H   0  0  0  0  0  0  0  0  0  0  0  0
  129.3858  126.3642   66.1498 H   0  0  0  0  0  0  0  0  0  0  0  0
  131.7043  124.5384   67.0927 H   0  0  0  0  0  0  0  0  0  0  0  0
  133.2231  123.9537   65.4805 H   0  0  0  0  0  0  0  0  0  0  0  0
  132.3089  123.4866   64.0065 H   0  0  0  0  0  0  0  0  0  0  0  0
  133.3125  124.9764   64.0065 H   0  0  0  0  0  0  0  0  0  0  0  0
  129.7028  126.0652   64.3064 H   0  0  0  0  0  0  0  0  0  0  0  0
  131.2815  126.9275   63.9705 H   0  0  0  0  0  0  0  0  0  0  0  0
  131.1053  126.1228   61.9035 H   0  0  0  0  0  0  0  0  0  0  0  0
  131.5753  124.5297   62.6585 H   0  0  0  0  0  0  0  0  0  0  0  0
  128.7871  125.3965   61.7091 H   0  0  0  0  0  0  0  0  0  0  0  0
  127.1358  122.7436   62.6936 H   0  0  0  0  0  0  0  0  0  0  0  0
  127.3042  123.7498   61.2151 H   0  0  0  0  0  0  0  0  0  0  0  0
  127.8834  122.0495   61.2151 H   0  0  0  0  0  0  0  0  0  0  0  0
  130.5548  122.7295   63.7484 H   0  0  0  0  0  0  0  0  0  0  0  0
  129.3763  121.4810   63.1245 H   0  0  0  0  0  0  0  0  0  0  0  0
  131.0663  120.7054   61.8964 H   0  0  0  0  0  0  0  0  0  0  0  0
  130.8106  122.2085   60.8830 H   0  0  0  0  0  0  0  0  0  0  0  0
  132.4901  122.9162   63.0625 H   0  0  0  0  0  0  0  0  0  0  0  0
  133.1220  121.3685   62.3011 H   0  0  0  0  0  0  0  0  0  0  0  0
  132.0768  122.5716   59.2386 H   0  0  0  0  0  0  0  0  0  0  0  0
  135.2066  123.4109   61.6626 H   0  0  0  0  0  0  0  0  0  0  0  0
  134.7360  125.6560   62.0400 H   0  0  0  0  0  0  0  0  0  0  0  0
  1  2  1  0
  2  3  2  0
  3  4  1  0
  3  5  1  0
  5  6  1  0
  6  7  2  0
  7  8  1  0
  8  9  1  0
  8 10  1  0
 10 11  1  0
 11 12  1  0
 12 13  2  0
 13 14  1  0
 13 15  1  0
 15 16  1  0
 16 17  1  0
 17 18  2  0
 18 19  1  0
 18 20  1  0
 20 21  1  0
 21 22  1  0
 22 23  1  0
 23 24  2  0
 24 25  1  0
 25 26  2  0
 25 27  1  0
 27 28  1  0
 28 29  1  0
  6 30  1  0
 30 31  2  0
 30  2  1  0
 28 23  1  0
  1 32  1  0
  1 33  1  0
  1 34  1  0
  4 35  1  0
  7 36  1  0
  8 37  1  1
  9 38  1  0
  9 39  1  0
  9 40  1  0
 10 41  1  0
 10 42  1  0
 11 43  1  0
 11 44  1  0
 12 45  1  0
 14 46  1  0
 14 47  1  0
 14 48  1  0
 15 49  1  0
 15 50  1  0
 16 51  1  0
 16 52  1  0
 17 53  1  0
 19 54  1  0
 19 55  1  0
 19 56  1  0
 20 57  1  0
 20 58  1  0
 21 59  1  0
 21 60  1  0
 22 61  1  0
 22 62  1  0
 24 63  1  0
 28 64  1  1
 29 65  1  0
M  END
>  <Binding energies>  (1) 
[-8.74]

>  <Ligand effiencies>  (1) 
[-0.26484848484848483]

>  <Interactions>  (1) 
["V-A:ILE:369:CG2:3237, V-A:ASP:366:CA:3210, V-B:PRO:540:CA:9855, V-B:HIS:456:CD2:9039, V-A:ILE:369:CB:3236, V-B:GLU:543:CB:9878, H-B:LYS:547:NZ:9923, V-B:ALA:541:CB:9864, V-B:TYR:539:CE2:9848, V-A:TYR:484:CE2:4346, V-B:GLU:543:CG:9879, H-B:TYR:539:OH:9850, V-A:GLU:543:CD:4908, V-A:TYR:484:CZ:4347, V-B:HIS:456:CE1:9041, V-A:HIS:456:CE1:4070, V-A:ILE:369:CD1:3239, H-B:HIS:456:NE2:9042, V-B:GLU:543:CD:9880, V-A:ASP:366:CB:3212, H-A:LYS:547:NZ:4951, H-A:ARG:545:NH2:4928, V-A:LEU:475:CD2:4259, V-A:GLU:543:CB:4906, H-A:ASP:366:OD1:3214, H-A:ASP:366:OD2:3215, H-A:GLY:544:O:4913, H-A:GLU:543:O:4903"]

$$$$
ZINC2356672224
     RDKit          3D

 76 82  0  0  0  0  0  0  0  0999 V2000
  128.0010  129.2720   67.2410 C   0  0  0  0  0  0  0  0  0  0  0  0
  127.7620  130.1590   66.1530 O   0  0  0  0  0  0  0  0  0  0  0  0
  128.1130  129.7730   64.8710 C   0  0  0  0  0  0  0  0  0  0  0  0
  128.2530  128.4390   64.4620 C   0  0  0  0  0  0  0  0  0  0  0  0
  128.6190  128.0890   63.1520 C   0  0  0  0  0  0  0  0  0  0  0  0
  128.8400  129.1260   62.2150 C   0  0  0  0  0  0  0  0  0  0  0  0
  128.7100  130.4570   62.6300 C   0  0  0  0  0  0  0  0  0  0  0  0
  128.3500  130.7800   63.9350 C   0  0  0  0  0  0  0  0  0  0  0  0
  128.2290  132.1000   64.2860 O   0  0  0  0  0  0  0  0  0  0  0  0
  129.2040  128.9170   60.7490 C   0  0  0  0  0  0  0  0  0  0  0  0
  130.7720  129.7540   60.3590 S   0  0  0  0  0  0  0  0  0  0  0  0
  131.2180  129.2270   58.4410 S   0  0  0  0  0  0  0  0  0  0  0  0
  132.1050  127.6500   58.6030 C   0  0  0  0  0  0  0  0  0  0  0  0
  131.3100  126.4910   59.2380 C   0  0  1  0  0  0  0  0  0  0  0  0
  130.8640  125.4430   58.2140 C   0  0  0  0  0  0  0  0  0  0  0  0
  130.6080  124.1810   59.0370 C   0  0  0  0  0  0  0  0  0  0  0  0
  131.5620  124.2270   60.2580 C   0  0  2  0  0  0  0  0  0  0  0  0
  132.7850  123.2720   60.1170 C   0  0  0  0  0  0  0  0  0  0  0  0
  132.3620  121.8160   60.1900 C   0  0  0  0  0  0  0  0  0  0  0  0
  132.9230  120.8630   59.3390 C   0  0  0  0  0  0  0  0  0  0  0  0
  132.5180  119.5370   59.3880 C   0  0  0  0  0  0  0  0  0  0  0  0
  133.0820  118.6130   58.5490 O   0  0  0  0  0  0  0  0  0  0  0  0
  131.5230  119.1550   60.2770 C   0  0  0  0  0  0  0  0  0  0  0  0
  130.9250  120.0910   61.1390 C   0  0  0  0  0  0  0  0  0  0  0  0
  129.8740  119.7500   61.9720 O   0  0  0  0  0  0  0  0  0  0  0  0
  129.3760  118.4160   61.9940 C   0  0  0  0  0  0  0  0  0  0  0  0
  131.3770  121.4350   61.1250 C   0  0  0  0  0  0  0  0  0  0  0  0
  130.8050  122.5170   62.0100 C   0  0  0  0  0  0  0  0  0  0  0  0
  130.2920  122.2140   63.2850 C   0  0  0  0  0  0  0  0  0  0  0  0
  129.6690  123.1780   64.0680 C   0  0  0  0  0  0  0  0  0  0  0  0
  129.5230  124.4630   63.5660 C   0  0  0  0  0  0  0  0  0  0  0  0
  130.0670  124.7920   62.3350 C   0  0  0  0  0  0  0  0  0  0  0  0
  130.8020  123.8680   61.5620 C   0  0  0  0  0  0  0  0  0  0  0  0
  129.7930  126.1020   61.9960 O   0  0  0  0  0  0  0  0  0  0  0  0
  128.7970  126.5750   62.9100 C   0  0  1  0  0  0  0  0  0  0  0  0
  128.9080  125.6890   64.1660 C   0  0  2  0  0  0  0  0  0  0  0  0
  129.7690  126.3040   65.2920 C   0  0  0  0  0  0  0  0  0  0  0  0
  130.2400  125.2880   66.1690 O   0  0  0  0  0  0  0  0  0  0  0  0
  129.8540  125.2630   67.4590 C   0  0  0  0  0  0  0  0  0  0  0  0
  129.8560  126.6510   68.0860 C   0  0  0  0  0  0  0  0  0  0  0  0
  129.5260  124.2670   68.1060 O   0  0  0  0  0  0  0  0  0  0  0  0
  132.1350  125.6760   60.2490 C   0  0  0  0  0  0  0  0  0  0  0  0
  127.8564  129.8087   68.1902 H   0  0  0  0  0  0  0  0  0  0  0  0
  127.2984  128.4274   67.1866 H   0  0  0  0  0  0  0  0  0  0  0  0
  129.0328  128.8947   67.1866 H   0  0  0  0  0  0  0  0  0  0  0  0
  128.0696  127.6380   65.1933 H   0  0  0  0  0  0  0  0  0  0  0  0
  128.8967  131.2657   61.9081 H   0  0  0  0  0  0  0  0  0  0  0  0
  128.1260  132.2190   65.2330 H   0  0  0  0  0  0  0  0  0  0  0  0
  129.3092  127.8400   60.5517 H   0  0  0  0  0  0  0  0  0  0  0  0
  128.4074  129.3405   60.1197 H   0  0  0  0  0  0  0  0  0  0  0  0
  132.4159  127.3335   57.5964 H   0  0  0  0  0  0  0  0  0  0  0  0
  132.9410  127.8484   59.2899 H   0  0  0  0  0  0  0  0  0  0  0  0
  130.4612  127.0072   59.7103 H   0  0  0  0  0  0  0  0  0  0  0  0
  129.9449  125.7662   57.7033 H   0  0  0  0  0  0  0  0  0  0  0  0
  131.6169  125.2820   57.4283 H   0  0  0  0  0  0  0  0  0  0  0  0
  129.5621  124.1587   59.3769 H   0  0  0  0  0  0  0  0  0  0  0  0
  130.7894  123.2789   58.4342 H   0  0  0  0  0  0  0  0  0  0  0  0
  133.2721  123.4550   59.1479 H   0  0  0  0  0  0  0  0  0  0  0  0
  133.4787  123.4730   60.9467 H   0  0  0  0  0  0  0  0  0  0  0  0
  133.6972  121.1674   58.6193 H   0  0  0  0  0  0  0  0  0  0  0  0
  133.2160  117.7600   58.9670 H   0  0  0  0  0  0  0  0  0  0  0  0
  131.1975  118.1047   60.3076 H   0  0  0  0  0  0  0  0  0  0  0  0
  129.2534  118.0875   63.0366 H   0  0  0  0  0  0  0  0  0  0  0  0
  128.4036  118.3791   61.4812 H   0  0  0  0  0  0  0  0  0  0  0  0
  130.0864  117.7509   61.4812 H   0  0  0  0  0  0  0  0  0  0  0  0
  130.3866  121.1884   63.6713 H   0  0  0  0  0  0  0  0  0  0  0  0
  129.2967  122.9258   65.0719 H   0  0  0  0  0  0  0  0  0  0  0  0
  127.8229  126.4620   62.4117 H   0  0  0  0  0  0  0  0  0  0  0  0
  127.9524  125.5247   64.6855 H   0  0  0  0  0  0  0  0  0  0  0  0
  130.6291  126.8253   64.8466 H   0  0  0  0  0  0  0  0  0  0  0  0
  129.1526  127.0120   65.8655 H   0  0  0  0  0  0  0  0  0  0  0  0
  129.8559  126.5582   69.1821 H   0  0  0  0  0  0  0  0  0  0  0  0
  130.7549  127.1973   67.7644 H   0  0  0  0  0  0  0  0  0  0  0  0
  128.9586  127.1999   67.7644 H   0  0  0  0  0  0  0  0  0  0  0  0
  132.0476  126.1210   61.2511 H   0  0  0  0  0  0  0  0  0  0  0  0
  133.1985  125.6712   59.9682 H   0  0  0  0  0  0  0  0  0  0  0  0
  1  2  1  0
  2  3  1  0
  3  4  2  0
  4  5  1  0
  5  6  2  0
  6  7  1  0
  7  8  2  0
  8  9  1  0
  6 10  1  0
 10 11  1  0
 11 12  1  0
 12 13  1  0
 13 14  1  0
 14 15  1  0
 15 16  1  0
 17 16  1  6
 17 18  1  0
 18 19  1  0
 19 20  2  0
 20 21  1  0
 21 22  1  0
 21 23  2  0
 23 24  1  0
 24 25  1  0
 25 26  1  0
 24 27  2  0
 27 28  1  0
 28 29  1  0
 29 30  2  0
 30 31  1  0
 31 32  2  0
 32 33  1  0
 32 34  1  0
 34 35  1  0
 35 36  1  0
 36 37  1  0
 37 38  1  0
 38 39  1  0
 39 40  1  0
 39 41  2  0
 17 42  1  0
  8  3  1  0
 42 14  1  0
 35  5  1  0
 33 17  1  0
 27 19  1  0
 33 28  2  0
 36 31  1  0
  1 43  1  0
  1 44  1  0
  1 45  1  0
  4 46  1  0
  7 47  1  0
  9 48  1  0
 10 49  1  0
 10 50  1  0
 13 51  1  0
 13 52  1  0
 14 53  1  1
 15 54  1  0
 15 55  1  0
 16 56  1  0
 16 57  1  0
 18 58  1  0
 18 59  1  0
 20 60  1  0
 22 61  1  0
 23 62  1  0
 26 63  1  0
 26 64  1  0
 26 65  1  0
 29 66  1  0
 30 67  1  0
 35 68  1  6
 36 69  1  1
 37 70  1  0
 37 71  1  0
 40 72  1  0
 40 73  1  0
 40 74  1  0
 42 75  1  0
 42 76  1  0
M  END
>  <Binding energies>  (1) 
[-2.99]

>  <Ligand effiencies>  (1) 
[-0.065]

>  <Interactions>  (1) 
["V-A:ILE:369:CG2:3237, V-B:GLU:543:CB:9878, H-A:VAL:384:O:3398, V-B:ALA:541:CB:9864, H-A:TYR:531:OH:4795, V-B:TYR:539:CE2:9848, V-A:TYR:484:CE2:4346, V-A:LEU:475:CG:4257, V-B:GLU:543:CG:9879, V-A:ASP:366:CG:3213, V-B:TYR:539:CZ:9849, V-A:LEU:475:CD1:4258, V-A:GLU:543:CD:4908, H-B:TYR:484:OH:9319, V-B:HIS:456:CE1:9041, V-B:GLU:543:CA:9876, V-B:TYR:484:CZ:9318, V-A:HIS:456:CE1:4070, V-A:PRO:482:CB:4326, V-B:TYR:539:CD2:9846, V-A:GLU:543:CG:4907, V-A:SER:385:CB:3409, H-A:SER:385:OG:3410, V-B:GLU:543:CD:9880, V-A:ASP:366:CB:3212, V-A:LEU:475:CD2:4259, V-B:TYR:539:CG:9844, V-A:GLU:543:CB:4906, H-A:HIS:383:HE2:3395, V-B:PRO:540:C:9853, V-B:ALA:541:CA:9862, H-A:TYR:484:OH:4348"]

$$$$
ZINC2356673017
     RDKit          3D

 56 58  0  0  0  0  0  0  0  0999 V2000
  128.6220  122.8350   63.1180 C   0  0  0  0  0  0  0  0  0  0  0  0
  129.2690  122.2050   61.8920 C   0  0  0  0  0  0  0  0  0  0  0  0
  128.7100  121.3020   61.2700 O   0  0  0  0  0  0  0  0  0  0  0  0
  130.4700  122.7610   61.6010 O   0  0  0  0  0  0  0  0  0  0  0  0
  130.6510  124.1670   61.4270 C   0  0  2  0  0  0  0  0  0  0  0  0
  130.1700  124.5130   60.0130 C   0  0  0  0  0  0  0  0  0  0  0  0
  128.8760  124.6970   59.4860 C   0  0  0  0  0  0  0  0  0  0  0  0
  127.5610  124.6610   60.2280 C   0  0  0  0  0  0  0  0  0  0  0  0
  129.0680  125.0310   58.1530 C   0  0  0  0  0  0  0  0  0  0  0  0
  130.3800  125.0430   57.8290 O   0  0  0  0  0  0  0  0  0  0  0  0
  131.0600  124.7390   58.9610 C   0  0  0  0  0  0  0  0  0  0  0  0
  132.5140  124.7230   59.0300 C   0  0  0  0  0  0  0  0  0  0  0  0
  133.2370  125.0370   58.0850 O   0  0  0  0  0  0  0  0  0  0  0  0
  133.0730  124.2880   60.4040 C   0  0  2  0  0  0  0  0  0  0  0  0
  133.5780  122.8110   60.3500 C   0  0  2  0  0  0  0  0  0  0  0  0
  132.5480  121.8670   60.0350 O   0  0  0  0  0  0  0  0  0  0  0  0
  132.7160  120.5260   60.1370 C   0  0  0  0  0  0  0  0  0  0  0  0
  133.5970  119.8890   59.5580 O   0  0  0  0  0  0  0  0  0  0  0  0
  131.6680  119.9280   60.9620 C   0  0  0  0  0  0  0  0  0  0  0  0
  130.9270  118.8280   60.6820 C   0  0  0  0  0  0  0  0  0  0  0  0
  129.8440  118.3700   61.6450 C   0  0  0  0  0  0  0  0  0  0  0  0
  131.0660  117.9280   59.4570 C   0  0  0  0  0  0  0  0  0  0  0  0
  134.2290  122.4140   61.6850 C   0  0  0  0  0  0  0  0  0  0  0  0
  133.2800  122.6430   62.8700 C   0  0  0  0  0  0  0  0  0  0  0  0
  132.8060  124.1170   62.9590 C   0  0  2  0  0  0  0  0  0  0  0  0
  131.9730  124.3300   64.2440 C   0  0  0  0  0  0  0  0  0  0  0  0
  132.1380  124.6640   61.6340 C   0  0  2  0  0  0  0  0  0  0  0  0
  132.1050  126.2210   61.7510 C   0  0  0  0  0  0  0  0  0  0  0  0
  129.0645  122.4042   64.0283 H   0  0  0  0  0  0  0  0  0  0  0  0
  128.7936  123.9215   63.1057 H   0  0  0  0  0  0  0  0  0  0  0  0
  127.5405  122.6345   63.1057 H   0  0  0  0  0  0  0  0  0  0  0  0
  130.0701  124.6836   62.2052 H   0  0  0  0  0  0  0  0  0  0  0  0
  127.7511  124.6662   61.3114 H   0  0  0  0  0  0  0  0  0  0  0  0
  126.9625  125.5431   59.9565 H   0  0  0  0  0  0  0  0  0  0  0  0
  127.0117  123.7475   59.9565 H   0  0  0  0  0  0  0  0  0  0  0  0
  128.2543  125.2576   57.4483 H   0  0  0  0  0  0  0  0  0  0  0  0
  133.9641  124.8967   60.6173 H   0  0  0  0  0  0  0  0  0  0  0  0
  134.3164  122.7772   59.5354 H   0  0  0  0  0  0  0  0  0  0  0  0
  131.4566  120.4275   61.9190 H   0  0  0  0  0  0  0  0  0  0  0  0
  130.1879  118.5155   62.6797 H   0  0  0  0  0  0  0  0  0  0  0  0
  128.9303  118.9588   61.4761 H   0  0  0  0  0  0  0  0  0  0  0  0
  129.6300  117.3043   61.4761 H   0  0  0  0  0  0  0  0  0  0  0  0
  131.2264  116.8893   59.7815 H   0  0  0  0  0  0  0  0  0  0  0  0
  130.1482  117.9860   58.8534 H   0  0  0  0  0  0  0  0  0  0  0  0
  131.9235  118.2602   58.8534 H   0  0  0  0  0  0  0  0  0  0  0  0
  134.5004  121.3487   61.6464 H   0  0  0  0  0  0  0  0  0  0  0  0
  135.1195  123.0426   61.8325 H   0  0  0  0  0  0  0  0  0  0  0  0
  132.4001  121.9937   62.7508 H   0  0  0  0  0  0  0  0  0  0  0  0
  133.8275  122.4060   63.7942 H   0  0  0  0  0  0  0  0  0  0  0  0
  133.6992  124.7530   63.0463 H   0  0  0  0  0  0  0  0  0  0  0  0
  132.6105  124.1670   65.1255 H   0  0  0  0  0  0  0  0  0  0  0  0
  131.5804  125.3574   64.2604 H   0  0  0  0  0  0  0  0  0  0  0  0
  131.1354  123.6171   64.2604 H   0  0  0  0  0  0  0  0  0  0  0  0
  132.0989  126.5089   62.8126 H   0  0  0  0  0  0  0  0  0  0  0  0
  132.9944  126.6444   61.2614 H   0  0  0  0  0  0  0  0  0  0  0  0
  131.1985  126.6064   61.2614 H   0  0  0  0  0  0  0  0  0  0  0  0
  1  2  1  0
  2  3  2  0
  2  4  1  0
  4  5  1  0
  5  6  1  0
  6  7  1  0
  7  8  1  0
  7  9  2  0
  9 10  1  0
 10 11  1  0
 11 12  1  0
 12 13  2  0
 12 14  1  0
 14 15  1  0
 15 16  1  0
 16 17  1  0
 17 18  2  0
 17 19  1  0
 19 20  2  3
 20 21  1  0
 20 22  1  0
 15 23  1  0
 23 24  1  0
 24 25  1  0
 25 26  1  0
 25 27  1  0
 27 28  1  1
 27  5  1  0
 11  6  2  0
 27 14  1  0
  1 29  1  0
  1 30  1  0
  1 31  1  0
  5 32  1  1
  8 33  1  0
  8 34  1  0
  8 35  1  0
  9 36  1  0
 14 37  1  1
 15 38  1  6
 19 39  1  0
 21 40  1  0
 21 41  1  0
 21 42  1  0
 22 43  1  0
 22 44  1  0
 22 45  1  0
 23 46  1  0
 23 47  1  0
 24 48  1  0
 24 49  1  0
 25 50  1  1
 26 51  1  0
 26 52  1  0
 26 53  1  0
 28 54  1  0
 28 55  1  0
 28 56  1  0
M  END
>  <Binding energies>  (1) 
[-7.21]

>  <Ligand effiencies>  (1) 
[-0.2575]

>  <Interactions>  (1) 
["V-A:ILE:369:CG2:3237, V-A:GLY:454:CA:4049, V-A:ILE:369:CB:3236, V-B:ALA:541:CB:9864, V-B:TYR:539:CE2:9848, V-A:LEU:475:CG:4257, V-B:GLU:543:CG:9879, V-B:TYR:539:C:9839, V-A:ASP:366:CG:3213, V-B:TYR:539:CZ:9849, H-B:TYR:539:OH:9850, H-B:ALA:541:N:9863, V-A:LEU:475:CD1:4258, V-A:HIS:383:CE1:3393, V-B:TYR:539:CB:9843, V-A:ILE:369:CD1:3239, V-A:PRO:482:CB:4326, V-B:TYR:539:CD2:9846, V-A:SER:385:CB:3409, H-A:SER:385:OG:3410, V-A:ASP:366:CB:3212, V-A:LEU:475:CD2:4259, V-B:TYR:539:CG:9844, V-A:HIS:383:CD2:3392, V-A:HIS:383:NE2:3394"]

$$$$
ZINC2356673684
     RDKit          3D

 74 79  0  0  0  0  0  0  0  0999 V2000
  126.5840  129.5180   66.1420 O   0  0  0  0  0  0  0  0  0  0  0  0
  127.7490  129.1440   65.9910 C   0  0  0  0  0  0  0  0  0  0  0  0
  128.6430  128.8480   67.0840 C   0  0  0  0  0  0  0  0  0  0  0  0
  128.1980  128.4570   68.2980 C   0  0  0  0  0  0  0  0  0  0  0  0
  129.0390  128.0750   69.4530 C   0  0  0  0  0  0  0  0  0  0  0  0
  128.5090  127.4580   70.5950 C   0  0  0  0  0  0  0  0  0  0  0  0
  129.3330  127.1570   71.6770 C   0  0  0  0  0  0  0  0  0  0  0  0
  130.6890  127.4710   71.6220 C   0  0  0  0  0  0  0  0  0  0  0  0
  131.4970  127.1800   72.6890 O   0  0  0  0  0  0  0  0  0  0  0  0
  131.2270  128.0810   70.4920 C   0  0  0  0  0  0  0  0  0  0  0  0
  130.4030  128.3810   69.4110 C   0  0  0  0  0  0  0  0  0  0  0  0
  128.3070  128.9140   64.7880 N   0  0  0  0  0  0  0  0  0  0  0  0
  127.6100  129.0040   63.5050 C   0  0  0  0  0  0  0  0  0  0  0  0
  127.8020  127.7680   62.5990 C   0  0  0  0  0  0  0  0  0  0  0  0
  129.0690  126.9760   62.8870 C   0  0  0  0  0  0  0  0  0  0  0  0
  130.0540  126.5740   61.9860 C   0  0  0  0  0  0  0  0  0  0  0  0
  130.1620  126.7590   60.4750 C   0  0  2  0  0  0  0  0  0  0  0  0
  131.2640  125.9330   59.7670 C   0  0  0  0  0  0  0  0  0  0  0  0
  131.6250  124.6140   60.1220 C   0  0  0  0  0  0  0  0  0  0  0  0
  131.0440  123.9640   61.1800 O   0  0  0  0  0  0  0  0  0  0  0  0
  132.5750  123.9010   59.3890 C   0  0  0  0  0  0  0  0  0  0  0  0
  133.1870  124.4760   58.2820 C   0  0  0  0  0  0  0  0  0  0  0  0
  134.1100  123.7670   57.5590 O   0  0  0  0  0  0  0  0  0  0  0  0
  132.8600  125.7740   57.9110 C   0  0  0  0  0  0  0  0  0  0  0  0
  131.9100  126.4890   58.6400 C   0  0  0  0  0  0  0  0  0  0  0  0
  131.7190  127.7880   58.2130 O   0  0  0  0  0  0  0  0  0  0  0  0
  130.4590  128.3710   58.5400 C   0  0  2  0  0  0  0  0  0  0  0  0
  130.4140  129.8080   58.0180 C   0  0  0  0  0  0  0  0  0  0  0  0
  131.5920  130.5540   57.9050 C   0  0  0  0  0  0  0  0  0  0  0  0
  131.5460  131.8620   57.4310 C   0  0  0  0  0  0  0  0  0  0  0  0
  130.3230  132.4250   57.0720 C   0  0  0  0  0  0  0  0  0  0  0  0
  130.2790  133.7130   56.6080 O   0  0  0  0  0  0  0  0  0  0  0  0
  129.1450  131.6890   57.1820 C   0  0  0  0  0  0  0  0  0  0  0  0
  129.1910  130.3810   57.6540 C   0  0  0  0  0  0  0  0  0  0  0  0
  130.2360  128.2540   60.0700 C   0  0  1  0  0  0  0  0  0  0  0  0
  129.0890  128.9690   60.5010 O   0  0  0  0  0  0  0  0  0  0  0  0
  131.0500  125.9300   62.6840 N   0  0  0  0  0  0  0  0  0  0  0  0
  130.7360  125.8420   64.0180 C   0  0  0  0  0  0  0  0  0  0  0  0
  131.4240  125.2580   65.0880 C   0  0  0  0  0  0  0  0  0  0  0  0
  130.8260  125.3370   66.3460 C   0  0  0  0  0  0  0  0  0  0  0  0
  131.4610  124.7770   67.4220 O   0  0  0  0  0  0  0  0  0  0  0  0
  129.5990  125.9700   66.5330 C   0  0  0  0  0  0  0  0  0  0  0  0
  128.9170  126.5520   65.4650 C   0  0  0  0  0  0  0  0  0  0  0  0
  129.4800  126.4930   64.1790 C   0  0  0  0  0  0  0  0  0  0  0  0
  129.7269  128.9443   66.9228 H   0  0  0  0  0  0  0  0  0  0  0  0
  127.1080  128.4192   68.4409 H   0  0  0  0  0  0  0  0  0  0  0  0
  127.4380  127.2106   70.6367 H   0  0  0  0  0  0  0  0  0  0  0  0
  128.9144  126.6730   72.5717 H   0  0  0  0  0  0  0  0  0  0  0  0
  132.4120  127.0370   72.4340 H   0  0  0  0  0  0  0  0  0  0  0  0
  132.2989  128.3249   70.4536 H   0  0  0  0  0  0  0  0  0  0  0  0
  130.8276  128.8621   68.5175 H   0  0  0  0  0  0  0  0  0  0  0  0
  129.2710  128.6160   64.7530 H   0  0  0  0  0  0  0  0  0  0  0  0
  126.5347  129.1243   63.7030 H   0  0  0  0  0  0  0  0  0  0  0  0
  128.0399  129.8625   62.9682 H   0  0  0  0  0  0  0  0  0  0  0  0
  126.9387  127.1007   62.7379 H   0  0  0  0  0  0  0  0  0  0  0  0
  127.8895  128.1415   61.5681 H   0  0  0  0  0  0  0  0  0  0  0  0
  129.2180  126.3347   60.1025 H   0  0  0  0  0  0  0  0  0  0  0  0
  130.0930  124.0820   61.2110 H   0  0  0  0  0  0  0  0  0  0  0  0
  132.8410  122.8769   59.6898 H   0  0  0  0  0  0  0  0  0  0  0  0
  134.6820  124.3300   57.0340 H   0  0  0  0  0  0  0  0  0  0  0  0
  133.3502  126.2379   57.0424 H   0  0  0  0  0  0  0  0  0  0  0  0
  129.6285  127.8386   58.0533 H   0  0  0  0  0  0  0  0  0  0  0  0
  132.5554  130.1066   58.1909 H   0  0  0  0  0  0  0  0  0  0  0  0
  132.4718  132.4491   57.3402 H   0  0  0  0  0  0  0  0  0  0  0  0
  129.3840  134.0300   56.4680 H   0  0  0  0  0  0  0  0  0  0  0  0
  128.1831  132.1400   56.8970 H   0  0  0  0  0  0  0  0  0  0  0  0
  128.2635  129.7961   57.7411 H   0  0  0  0  0  0  0  0  0  0  0  0
  131.0944  128.7175   60.5782 H   0  0  0  0  0  0  0  0  0  0  0  0
  128.4540  128.9910   59.7830 H   0  0  0  0  0  0  0  0  0  0  0  0
  131.8720  125.5640   62.2250 H   0  0  0  0  0  0  0  0  0  0  0  0
  132.3935  124.7588   64.9434 H   0  0  0  0  0  0  0  0  0  0  0  0
  131.0520  123.9580   67.7090 H   0  0  0  0  0  0  0  0  0  0  0  0
  129.1605  126.0114   67.5410 H   0  0  0  0  0  0  0  0  0  0  0  0
  127.9503  127.0511   65.6273 H   0  0  0  0  0  0  0  0  0  0  0  0
  1  2  2  0
  2  3  1  0
  3  4  2  0
  4  5  1  0
  5  6  2  0
  6  7  1  0
  7  8  2  0
  8  9  1  0
  8 10  1  0
 10 11  2  0
  2 12  1  0
 12 13  1  0
 13 14  1  0
 14 15  1  0
 15 16  2  0
 16 17  1  0
 17 18  1  0
 18 19  2  0
 19 20  1  0
 19 21  1  0
 21 22  2  0
 22 23  1  0
 22 24  1  0
 24 25  2  0
 25 26  1  0
 26 27  1  0
 27 28  1  0
 28 29  2  0
 29 30  1  0
 30 31  2  0
 31 32  1  0
 31 33  1  0
 33 34  2  0
 27 35  1  0
 35 36  1  0
 16 37  1  0
 37 38  1  0
 38 39  2  0
 39 40  1  0
 40 41  1  0
 40 42  2  0
 42 43  1  0
 43 44  2  0
 11  5  1  0
 44 15  1  0
 35 17  1  0
 44 38  1  0
 25 18  1  0
 34 28  1  0
  3 45  1  0
  4 46  1  0
  6 47  1  0
  7 48  1  0
  9 49  1  0
 10 50  1  0
 11 51  1  0
 12 52  1  0
 13 53  1  0
 13 54  1  0
 14 55  1  0
 14 56  1  0
 17 57  1  6
 20 58  1  0
 21 59  1  0
 23 60  1  0
 24 61  1  0
 27 62  1  6
 29 63  1  0
 30 64  1  0
 32 65  1  0
 33 66  1  0
 34 67  1  0
 35 68  1  1
 36 69  1  0
 37 70  1  0
 39 71  1  0
 41 72  1  0
 42 73  1  0
 43 74  1  0
M  END
>  <Binding energies>  (1) 
[-6.98]

>  <Ligand effiencies>  (1) 
[-0.13423076923076924]

>  <Interactions>  (1) 
["V-A:ILE:369:CG2:3237, V-A:ASP:366:CA:3210, V-A:ARG:545:CA:4919, V-A:GLU:543:CA:4904, H-A:GLU:543:OE2:4910, V-A:GLU:543:C:4902, V-B:GLU:543:CB:9878, H-A:TYR:531:OH:4795, V-B:TYR:539:CE2:9848, V-A:GLY:544:CA:4914, V-A:GLY:544:C:4912, V-B:GLU:543:CG:9879, V-A:HIS:456:CD2:4068, V-A:ASP:366:CG:3213, V-A:LEU:363:CD1:3189, V-B:TYR:539:CZ:9849, H-A:ASN:370:N:3244, H-B:TYR:539:OH:9850, V-A:GLU:543:CD:4908, H-B:TYR:484:OH:9319, V-B:HIS:456:CE1:9041, V-A:HIS:456:CE1:4070, V-A:ASP:366:C:3208, V-A:GLU:543:CG:4907, V-B:GLU:543:CD:9880, V-A:MET:535:CE:4835, V-A:ASP:366:CB:3212, H-A:LYS:547:NZ:4951, H-A:GLU:543:OE1:4909, H-A:ASP:366:O:3209, V-A:GLU:543:CB:4906, H-A:TYR:539:N:4870, V-A:PRO:540:CB:4885, H-A:GLY:544:O:4913, H-A:HIS:456:NE2:4071, H-A:HIS:456:ND1:4067, H-A:TYR:484:OH:4348"]

$$$$
ZINC2356677145
     RDKit          3D

111115  0  0  0  0  0  0  0  0999 V2000
  128.9980  132.9240   57.8010 C   0  0  0  0  0  0  0  0  0  0  0  0
  128.9960  131.8380   58.8890 C   0  0  0  0  0  0  0  0  0  0  0  0
  130.3130  131.7580   59.7090 C   0  0  2  0  0  0  0  0  0  0  0  0
  131.3110  130.7530   59.0940 C   0  0  0  0  0  0  0  0  0  0  0  0
  130.1730  131.5420   61.2550 C   0  0  2  0  0  0  0  0  0  0  0  0
  130.1960  130.1700   61.6930 O   0  0  0  0  0  0  0  0  0  0  0  0
  129.0150  129.3860   61.6390 C   0  0  2  0  0  0  0  0  0  0  0  0
  127.7510  130.2250   61.8070 C   0  0  0  0  0  0  0  0  0  0  0  0
  127.7840  131.5520   62.0020 C   0  0  0  0  0  0  0  0  0  0  0  0
  129.0720  132.3450   62.0070 C   0  0  2  0  0  0  0  0  0  0  0  0
  128.8600  133.7960   61.5330 C   0  0  0  0  0  0  0  0  0  0  0  0
  129.1080  128.3320   62.7770 C   0  0  0  0  0  0  0  0  0  0  0  0
  128.6130  126.9600   62.2980 C   0  0  1  0  0  0  0  0  0  0  0  0
  129.4710  126.4870   61.1080 C   0  0  0  0  0  0  0  0  0  0  0  0
  129.7990  127.6610   60.1490 C   0  0  1  0  0  0  0  0  0  0  0  0
  129.7840  127.2680   58.6550 C   0  0  0  0  0  0  0  0  0  0  0  0
  131.1410  127.0630   57.9950 C   0  0  0  0  0  0  0  0  0  0  0  0
  131.9990  126.0160   58.0320 C   0  0  0  0  0  0  0  0  0  0  0  0
  133.2160  126.0460   57.1080 C   0  0  0  0  0  0  0  0  0  0  0  0
  131.8540  124.7110   58.8480 C   0  0  2  0  0  0  0  0  0  0  0  0
  130.7000  124.7010   59.6920 O   0  0  0  0  0  0  0  0  0  0  0  0
  129.8260  123.6210   59.5840 C   0  0  2  0  0  0  0  0  0  0  0  0
  128.4100  124.2200   59.5380 C   0  0  0  0  0  0  0  0  0  0  0  0
  127.3470  123.0950   59.5620 C   0  0  2  0  0  0  0  0  0  0  0  0
  125.9850  123.5090   59.4060 O   0  0  0  0  0  0  0  0  0  0  0  0
  125.7320  124.8710   59.0770 C   0  0  0  0  0  0  0  0  0  0  0  0
  127.5970  122.1280   60.7430 C   0  0  2  0  0  0  0  0  0  0  0  0
  127.3600  122.7530   61.9940 O   0  0  0  0  0  0  0  0  0  0  0  0
  129.0650  121.6400   60.6370 C   0  0  2  0  0  0  0  0  0  0  0  0
  129.4600  120.6370   61.7330 C   0  0  0  0  0  0  0  0  0  0  0  0
  129.9390  122.7740   60.7070 O   0  0  0  0  0  0  0  0  0  0  0  0
  133.0340  124.3450   59.8020 C   0  0  2  0  0  0  0  0  0  0  0  0
  134.4440  124.5640   59.2220 C   0  0  0  0  0  0  0  0  0  0  0  0
  132.8970  122.9030   60.2940 C   0  0  0  0  0  0  0  0  0  0  0  0
  132.3600  122.4590   61.4480 C   0  0  0  0  0  0  0  0  0  0  0  0
  131.8480  123.2950   62.5250 C   0  0  0  0  0  0  0  0  0  0  0  0
  132.4240  124.4260   63.0060 C   0  0  0  0  0  0  0  0  0  0  0  0
  133.7960  124.9080   62.5240 C   0  0  0  0  0  0  0  0  0  0  0  0
  131.7820  125.2660   64.1460 C   0  0  2  0  0  0  0  0  0  0  0  0
  131.7340  126.6580   63.8270 O   0  0  0  0  0  0  0  0  0  0  0  0
  132.6710  125.1660   65.4220 C   0  0  0  0  0  0  0  0  0  0  0  0
  132.0640  125.8230   66.6820 C   0  0  0  0  0  0  0  0  0  0  0  0
  132.7850  126.1720   67.6160 O   0  0  0  0  0  0  0  0  0  0  0  0
  130.5890  125.8820   66.7470 C   0  0  0  0  0  0  0  0  0  0  0  0
  130.0110  126.5160   68.0090 C   0  0  0  0  0  0  0  0  0  0  0  0
  129.8090  125.3800   65.7630 C   0  0  0  0  0  0  0  0  0  0  0  0
  130.3360  124.7360   64.4790 C   0  0  1  0  0  0  0  0  0  0  0  0
  129.3330  124.8740   63.3130 C   0  0  0  0  0  0  0  0  0  0  0  0
  129.2590  124.0030   62.4430 O   0  0  0  0  0  0  0  0  0  0  0  0
  128.5920  126.0110   63.3600 O   0  0  0  0  0  0  0  0  0  0  0  0
  128.9050  128.7600   60.3790 O   0  0  0  0  0  0  0  0  0  0  0  0
  128.9998  133.9170   58.2742 H   0  0  0  0  0  0  0  0  0  0  0  0
  129.8959  132.8144   57.1752 H   0  0  0  0  0  0  0  0  0  0  0  0
  128.0997  132.8177   57.1752 H   0  0  0  0  0  0  0  0  0  0  0  0
  128.1689  132.0466   59.5836 H   0  0  0  0  0  0  0  0  0  0  0  0
  128.8849  130.8729   58.3731 H   0  0  0  0  0  0  0  0  0  0  0  0
  130.7155  132.7783   59.6256 H   0  0  0  0  0  0  0  0  0  0  0  0
  131.8390  130.2213   59.8992 H   0  0  0  0  0  0  0  0  0  0  0  0
  130.7652  130.0280   58.4723 H   0  0  0  0  0  0  0  0  0  0  0  0
  132.0398  131.2938   58.4723 H   0  0  0  0  0  0  0  0  0  0  0  0
  131.1177  132.0108   61.5675 H   0  0  0  0  0  0  0  0  0  0  0  0
  126.7739  129.7215   61.7666 H   0  0  0  0  0  0  0  0  0  0  0  0
  126.8357  132.0850   62.1649 H   0  0  0  0  0  0  0  0  0  0  0  0
  129.4373  132.4729   63.0366 H   0  0  0  0  0  0  0  0  0  0  0  0
  128.7634  134.4569   62.4070 H   0  0  0  0  0  0  0  0  0  0  0  0
  129.7213  134.1133   60.9268 H   0  0  0  0  0  0  0  0  0  0  0  0
  127.9439  133.8536   60.9268 H   0  0  0  0  0  0  0  0  0  0  0  0
  130.1556  128.2436   63.1006 H   0  0  0  0  0  0  0  0  0  0  0  0
  128.4730  128.6615   63.6126 H   0  0  0  0  0  0  0  0  0  0  0  0
  127.5725  127.0556   61.9542 H   0  0  0  0  0  0  0  0  0  0  0  0
  130.4113  126.0629   61.4902 H   0  0  0  0  0  0  0  0  0  0  0  0
  128.9021  125.7298   60.5486 H   0  0  0  0  0  0  0  0  0  0  0  0
  130.8317  127.9615   60.3796 H   0  0  0  0  0  0  0  0  0  0  0  0
  129.2212  126.3275   58.5620 H   0  0  0  0  0  0  0  0  0  0  0  0
  129.3312  128.1235   58.1324 H   0  0  0  0  0  0  0  0  0  0  0  0
  131.4829  127.9109   57.3833 H   0  0  0  0  0  0  0  0  0  0  0  0
  134.1348  126.0686   57.7124 H   0  0  0  0  0  0  0  0  0  0  0  0
  133.2167  125.1476   56.4733 H   0  0  0  0  0  0  0  0  0  0  0  0
  133.1724  126.9433   56.4733 H   0  0  0  0  0  0  0  0  0  0  0  0
  131.8022  123.9784   58.0291 H   0  0  0  0  0  0  0  0  0  0  0  0
  130.0523  123.0225   58.6893 H   0  0  0  0  0  0  0  0  0  0  0  0
  128.2648  124.8745   60.4101 H   0  0  0  0  0  0  0  0  0  0  0  0
  128.2971  124.7978   58.6088 H   0  0  0  0  0  0  0  0  0  0  0  0
  127.4965  122.5266   58.6322 H   0  0  0  0  0  0  0  0  0  0  0  0
  125.6231  125.4573   60.0013 H   0  0  0  0  0  0  0  0  0  0  0  0
  126.5718  125.2680   58.4878 H   0  0  0  0  0  0  0  0  0  0  0  0
  124.8057  124.9399   58.4878 H   0  0  0  0  0  0  0  0  0  0  0  0
  126.8990  121.2797   60.6864 H   0  0  0  0  0  0  0  0  0  0  0  0
  127.2700  123.6980   61.8520 H   0  0  0  0  0  0  0  0  0  0  0  0
  129.1578  121.1146   59.6750 H   0  0  0  0  0  0  0  0  0  0  0  0
  129.2833  121.0857   62.7216 H   0  0  0  0  0  0  0  0  0  0  0  0
  128.8540  119.7247   61.6308 H   0  0  0  0  0  0  0  0  0  0  0  0
  130.5254  120.3829   61.6308 H   0  0  0  0  0  0  0  0  0  0  0  0
  132.9463  125.0550   60.6376 H   0  0  0  0  0  0  0  0  0  0  0  0
  135.1655  124.6761   60.0447 H   0  0  0  0  0  0  0  0  0  0  0  0
  134.7246  123.6987   58.6036 H   0  0  0  0  0  0  0  0  0  0  0  0
  134.4489  125.4737   58.6036 H   0  0  0  0  0  0  0  0  0  0  0  0
  133.2874  122.1277   59.6183 H   0  0  0  0  0  0  0  0  0  0  0  0
  132.3036  121.3695   61.5885 H   0  0  0  0  0  0  0  0  0  0  0  0
  130.9041  122.9796   62.9935 H   0  0  0  0  0  0  0  0  0  0  0  0
  134.4322  125.1315   63.3931 H   0  0  0  0  0  0  0  0  0  0  0  0
  134.2681  124.1219   61.9164 H   0  0  0  0  0  0  0  0  0  0  0  0
  133.6728  125.8167   61.9164 H   0  0  0  0  0  0  0  0  0  0  0  0
  131.0220  127.0600   64.3290 H   0  0  0  0  0  0  0  0  0  0  0  0
  132.8416  124.1011   65.6387 H   0  0  0  0  0  0  0  0  0  0  0  0
  133.5979  125.7151   65.1999 H   0  0  0  0  0  0  0  0  0  0  0  0
  130.4499  126.0345   68.8953 H   0  0  0  0  0  0  0  0  0  0  0  0
  130.2469  127.5903   68.0207 H   0  0  0  0  0  0  0  0  0  0  0  0
  128.9195  126.3801   68.0207 H   0  0  0  0  0  0  0  0  0  0  0  0
  128.7185  125.4388   65.8950 H   0  0  0  0  0  0  0  0  0  0  0  0
  130.4336  123.6525   64.6418 H   0  0  0  0  0  0  0  0  0  0  0  0
  1  2  1  0
  2  3  1  0
  3  4  1  0
  3  5  1  0
  5  6  1  0
  7  6  1  6
  7  8  1  0
  8  9  2  0
  9 10  1  0
 10 11  1  0
  7 12  1  0
 12 13  1  0
 13 14  1  0
 14 15  1  0
 15 16  1  0
 16 17  1  0
 17 18  2  0
 18 19  1  0
 18 20  1  0
 20 21  1  0
 21 22  1  0
 22 23  1  0
 23 24  1  0
 24 25  1  0
 25 26  1  0
 24 27  1  0
 27 28  1  0
 27 29  1  0
 29 30  1  0
 29 31  1  0
 20 32  1  0
 32 33  1  0
 32 34  1  0
 34 35  2  0
 35 36  1  0
 36 37  2  0
 37 38  1  0
 37 39  1  0
 39 40  1  6
 39 41  1  0
 41 42  1  0
 42 43  2  0
 42 44  1  0
 44 45  1  0
 44 46  2  0
 46 47  1  0
 47 48  1  0
 48 49  2  0
 48 50  1  0
 15 51  1  0
 10  5  1  0
 50 13  1  0
 51  7  1  0
 31 22  1  0
 47 39  1  0
  1 52  1  0
  1 53  1  0
  1 54  1  0
  2 55  1  0
  2 56  1  0
  3 57  1  1
  4 58  1  0
  4 59  1  0
  4 60  1  0
  5 61  1  1
  8 62  1  0
  9 63  1  0
 10 64  1  1
 11 65  1  0
 11 66  1  0
 11 67  1  0
 12 68  1  0
 12 69  1  0
 13 70  1  6
 14 71  1  0
 14 72  1  0
 15 73  1  1
 16 74  1  0
 16 75  1  0
 17 76  1  0
 19 77  1  0
 19 78  1  0
 19 79  1  0
 20 80  1  6
 22 81  1  6
 23 82  1  0
 23 83  1  0
 24 84  1  6
 26 85  1  0
 26 86  1  0
 26 87  1  0
 27 88  1  6
 28 89  1  0
 29 90  1  6
 30 91  1  0
 30 92  1  0
 30 93  1  0
 32 94  1  1
 33 95  1  0
 33 96  1  0
 33 97  1  0
 34 98  1  0
 35 99  1  0
 36100  1  0
 38101  1  0
 38102  1  0
 38103  1  0
 40104  1  0
 41105  1  0
 41106  1  0
 45107  1  0
 45108  1  0
 45109  1  0
 46110  1  0
 47111  1  1
M  END
>  <Binding energies>  (1) 
[-6.09]

>  <Ligand effiencies>  (1) 
[-0.11072727272727273]

>  <Interactions>  (1) 
["V-A:ILE:369:CG2:3237, V-A:ASP:366:CA:3210, V-B:PRO:540:CA:9855, H-A:GLU:543:OE2:4910, V-A:ILE:369:CB:3236, V-A:PRO:540:C:4881, V-B:GLU:543:CB:9878, V-B:ALA:541:CB:9864, V-B:TYR:539:CE2:9848, V-A:ASN:370:CB:3245, V-B:GLU:543:CG:9879, V-B:TYR:539:C:9839, V-A:ASP:366:CG:3213, V-A:TYR:539:CD1:4873, V-B:TYR:539:CZ:9849, H-B:GLU:543:OE1:9881, V-A:TYR:531:CE2:4793, V-A:ALA:541:CB:4892, H-B:ALA:541:N:9863, V-A:GLU:543:CD:4908, V-B:PRO:540:CB:9857, V-A:ARG:545:CG:4922, V-B:PRO:540:N:9856, V-A:HIS:456:CE1:4070, V-A:ILE:369:CD1:3239, V-A:ASP:366:C:3208, V-B:TYR:539:CD2:9846, V-A:TYR:531:CZ:4794, V-B:GLU:543:CD:9880, V-A:TYR:539:C:4867, V-A:ASP:366:CB:3212, V-A:ARG:545:CD:4923, V-A:LEU:475:CD2:4259, H-A:ARG:545:NH2:4928, V-A:ARG:545:CZ:4926, H-A:GLU:543:OE1:4909, V-A:PRO:540:N:4884, V-A:PRO:540:CA:4883, H-A:ARG:545:NE:4924, V-B:PRO:540:C:9853, V-B:ALA:541:CA:9862, V-A:TYR:539:CE1:4875, H-A:HIS:456:ND1:4067, H-A:TYR:484:OH:4348"]

$$$$
ZINC2356679126
     RDKit          3D

126132  0  0  0  0  0  0  0  0999 V2000
  128.2720  128.0900   72.9680 C   0  0  0  0  0  0  0  0  0  0  0  0
  128.2280  126.6670   72.9640 O   0  0  0  0  0  0  0  0  0  0  0  0
  128.6860  126.0560   71.7590 C   0  0  0  0  0  0  0  0  0  0  0  0
  128.2520  126.8200   70.4980 C   0  0  0  0  0  0  0  0  0  0  0  0
  127.0610  126.9480   70.2050 O   0  0  0  0  0  0  0  0  0  0  0  0
  129.3820  127.5030   69.6900 C   0  0  2  0  0  0  0  0  0  0  0  0
  128.9860  128.9190   69.1660 C   0  0  0  0  0  0  0  0  0  0  0  0
  129.0480  128.8540   67.6240 C   0  0  0  0  0  0  0  0  0  0  0  0
  128.9830  127.3560   67.2830 C   0  0  1  0  0  0  0  0  0  0  0  0
  127.6080  126.9700   67.3540 O   0  0  0  0  0  0  0  0  0  0  0  0
  129.4790  126.9020   65.8680 C   0  0  2  0  0  0  0  0  0  0  0  0
  128.6840  127.5770   64.7160 C   0  0  0  0  0  0  0  0  0  0  0  0
  128.9160  126.8930   63.3820 C   0  0  0  0  0  0  0  0  0  0  0  0
  129.5380  125.7110   63.1860 C   0  0  0  0  0  0  0  0  0  0  0  0
  129.7630  125.1730   61.7680 C   0  0  0  0  0  0  0  0  0  0  0  0
  129.2460  123.7250   61.6470 C   0  0  1  0  0  0  0  0  0  0  0  0
  129.3030  123.2460   60.2980 O   0  0  0  0  0  0  0  0  0  0  0  0
  129.1810  124.1720   59.2580 C   0  0  2  0  0  0  0  0  0  0  0  0
  130.5930  124.6670   58.9350 C   0  0  0  0  0  0  0  0  0  0  0  0
  130.5210  125.6870   57.7800 C   0  0  2  0  0  0  0  0  0  0  0  0
  131.8030  126.1410   57.3410 O   0  0  0  0  0  0  0  0  0  0  0  0
  132.9510  125.5730   57.9600 C   0  0  0  0  0  0  0  0  0  0  0  0
  129.5130  126.8160   58.1240 C   0  0  1  0  0  0  0  0  0  0  0  0
  129.3700  127.8460   57.1360 O   0  0  0  0  0  0  0  0  0  0  0  0
  129.3600  129.1850   57.5370 C   0  0  2  0  0  0  0  0  0  0  0  0
  127.9720  129.7290   57.2110 C   0  0  0  0  0  0  0  0  0  0  0  0
  127.8640  131.2130   57.6340 C   0  0  2  0  0  0  0  0  0  0  0  0
  126.6330  131.7690   57.1720 O   0  0  0  0  0  0  0  0  0  0  0  0
  125.4650  131.0100   57.4580 C   0  0  0  0  0  0  0  0  0  0  0  0
  129.0540  132.0350   57.0720 C   0  0  1  0  0  0  0  0  0  0  0  0
  129.2120  133.3240   57.6750 O   0  0  0  0  0  0  0  0  0  0  0  0
  128.9840  133.4450   59.0460 C   0  0  2  0  0  0  0  0  0  0  0  0
  130.0550  132.5900   59.7400 C   0  0  0  0  0  0  0  0  0  0  0  0
  129.8210  132.5810   61.2700 C   0  0  2  0  0  0  0  0  0  0  0  0
  130.7360  131.7550   61.9910 O   0  0  0  0  0  0  0  0  0  0  0  0
  131.7250  131.0990   61.2070 C   0  0  0  0  0  0  0  0  0  0  0  0
  128.3710  132.1530   61.5790 C   0  0  2  0  0  0  0  0  0  0  0  0
  128.1780  130.7830   61.2600 O   0  0  0  0  0  0  0  0  0  0  0  0
  127.4140  133.0690   60.7750 C   0  0  2  0  0  0  0  0  0  0  0  0
  125.9280  132.7480   61.0130 C   0  0  0  0  0  0  0  0  0  0  0  0
  127.7070  132.9470   59.3750 O   0  0  0  0  0  0  0  0  0  0  0  0
  130.3960  131.2840   57.2750 C   0  0  2  0  0  0  0  0  0  0  0  0
  131.5670  131.9440   56.5280 C   0  0  0  0  0  0  0  0  0  0  0  0
  130.2950  129.9340   56.8110 O   0  0  0  0  0  0  0  0  0  0  0  0
  128.1650  126.2070   58.6020 C   0  0  2  0  0  0  0  0  0  0  0  0
  127.1840  127.2700   59.1160 C   0  0  0  0  0  0  0  0  0  0  0  0
  128.4110  125.2770   59.6660 O   0  0  0  0  0  0  0  0  0  0  0  0
  129.9080  122.8110   62.6960 C   0  0  0  0  0  0  0  0  0  0  0  0
  129.6450  123.3560   64.1120 C   0  0  0  0  0  0  0  0  0  0  0  0
  130.0880  124.8380   64.3500 C   0  0  1  0  0  0  0  0  0  0  0  0
  131.6400  124.9430   64.3320 C   0  0  0  0  0  0  0  0  0  0  0  0
  129.4880  125.3370   65.7240 C   0  0  1  0  0  0  0  0  0  0  0  0
  130.0600  124.5860   66.9800 C   0  0  0  0  0  0  0  0  0  0  0  0
  129.6120  125.1720   68.3420 C   0  0  0  0  0  0  0  0  0  0  0  0
  129.8470  126.7130   68.4150 C   0  0  2  0  0  0  0  0  0  0  0  0
  131.3810  127.0020   68.2950 C   0  0  0  0  0  0  0  0  0  0  0  0
  128.2832  128.4536   74.0061 H   0  0  0  0  0  0  0  0  0  0  0  0
  129.1811  128.4302   72.4505 H   0  0  0  0  0  0  0  0  0  0  0  0
  127.3857  128.4857   72.4505 H   0  0  0  0  0  0  0  0  0  0  0  0
  129.7849  126.0136   71.7828 H   0  0  0  0  0  0  0  0  0  0  0  0
  128.2384  125.0525   71.7071 H   0  0  0  0  0  0  0  0  0  0  0  0
  130.1949  127.5469   70.4297 H   0  0  0  0  0  0  0  0  0  0  0  0
  127.9675  129.1737   69.4942 H   0  0  0  0  0  0  0  0  0  0  0  0
  129.6654  129.6904   69.5575 H   0  0  0  0  0  0  0  0  0  0  0  0
  128.1950  129.3884   67.1804 H   0  0  0  0  0  0  0  0  0  0  0  0
  129.9584  129.3276   67.2279 H   0  0  0  0  0  0  0  0  0  0  0  0
  127.1360  127.3940   66.6330 H   0  0  0  0  0  0  0  0  0  0  0  0
  130.5201  127.2458   65.7791 H   0  0  0  0  0  0  0  0  0  0  0  0
  127.6109  127.5346   64.9539 H   0  0  0  0  0  0  0  0  0  0  0  0
  129.0339  128.6162   64.6280 H   0  0  0  0  0  0  0  0  0  0  0  0
  128.5407  127.4107   62.4869 H   0  0  0  0  0  0  0  0  0  0  0  0
  129.2250  125.8099   61.0504 H   0  0  0  0  0  0  0  0  0  0  0  0
  130.8416  125.1830   61.5525 H   0  0  0  0  0  0  0  0  0  0  0  0
  128.1733  123.7099   61.8901 H   0  0  0  0  0  0  0  0  0  0  0  0
  128.6937  123.7020   58.3910 H   0  0  0  0  0  0  0  0  0  0  0  0
  131.0266  125.1480   59.8242 H   0  0  0  0  0  0  0  0  0  0  0  0
  131.2240  123.8163   58.6380 H   0  0  0  0  0  0  0  0  0  0  0  0
  130.1266  125.1726   56.8913 H   0  0  0  0  0  0  0  0  0  0  0  0
  132.8424  125.6267   59.0533 H   0  0  0  0  0  0  0  0  0  0  0  0
  133.0508  124.5215   57.6527 H   0  0  0  0  0  0  0  0  0  0  0  0
  133.8474  126.1315   57.6527 H   0  0  0  0  0  0  0  0  0  0  0  0
  129.9546  127.3740   58.9628 H   0  0  0  0  0  0  0  0  0  0  0  0
  129.6067  129.2551   58.6067 H   0  0  0  0  0  0  0  0  0  0  0  0
  127.7949  129.6464   56.1285 H   0  0  0  0  0  0  0  0  0  0  0  0
  127.2202  129.1444   57.7615 H   0  0  0  0  0  0  0  0  0  0  0  0
  127.8933  131.2589   58.7326 H   0  0  0  0  0  0  0  0  0  0  0  0
  125.3387  130.9279   58.5476 H   0  0  0  0  0  0  0  0  0  0  0  0
  124.5870  131.5106   57.0238 H   0  0  0  0  0  0  0  0  0  0  0  0
  125.5658  130.0044   57.0238 H   0  0  0  0  0  0  0  0  0  0  0  0
  128.8111  132.1674   56.0073 H   0  0  0  0  0  0  0  0  0  0  0  0
  129.0319  134.4980   59.3604 H   0  0  0  0  0  0  0  0  0  0  0  0
  130.0017  131.5599   59.3579 H   0  0  0  0  0  0  0  0  0  0  0  0
  131.0470  133.0166   59.5305 H   0  0  0  0  0  0  0  0  0  0  0  0
  130.0000  133.6106   61.6133 H   0  0  0  0  0  0  0  0  0  0  0  0
  132.4563  130.6139   61.8702 H   0  0  0  0  0  0  0  0  0  0  0  0
  131.2453  130.3394   60.5722 H   0  0  0  0  0  0  0  0  0  0  0  0
  132.2382  131.8363   60.5722 H   0  0  0  0  0  0  0  0  0  0  0  0
  128.1592  132.2627   62.6528 H   0  0  0  0  0  0  0  0  0  0  0  0
  129.0160  130.3260   61.3670 H   0  0  0  0  0  0  0  0  0  0  0  0
  127.5815  134.0980   61.1260 H   0  0  0  0  0  0  0  0  0  0  0  0
  125.7307  132.7054   62.0943 H   0  0  0  0  0  0  0  0  0  0  0  0
  125.3059  133.5325   60.5574 H   0  0  0  0  0  0  0  0  0  0  0  0
  125.6852  131.7767   60.5574 H   0  0  0  0  0  0  0  0  0  0  0  0
  130.5962  131.3185   58.3561 H   0  0  0  0  0  0  0  0  0  0  0  0
  132.2851  132.3487   57.2564 H   0  0  0  0  0  0  0  0  0  0  0  0
  132.0678  131.1953   55.8966 H   0  0  0  0  0  0  0  0  0  0  0  0
  131.1858  132.7601   55.8966 H   0  0  0  0  0  0  0  0  0  0  0  0
  127.7119  125.7128   57.7300 H   0  0  0  0  0  0  0  0  0  0  0  0
  127.1852  127.2687   60.2160 H   0  0  0  0  0  0  0  0  0  0  0  0
  127.4920  128.2606   58.7502 H   0  0  0  0  0  0  0  0  0  0  0  0
  126.1719  127.0424   58.7502 H   0  0  0  0  0  0  0  0  0  0  0  0
  129.4887  121.7975   62.6123 H   0  0  0  0  0  0  0  0  0  0  0  0
  130.9928  122.7825   62.5163 H   0  0  0  0  0  0  0  0  0  0  0  0
  128.5645  123.2886   64.3071 H   0  0  0  0  0  0  0  0  0  0  0  0
  130.2542  122.7429   64.7924 H   0  0  0  0  0  0  0  0  0  0  0  0
  132.0178  124.9686   65.3648 H   0  0  0  0  0  0  0  0  0  0  0  0
  132.0604  124.0712   63.8092 H   0  0  0  0  0  0  0  0  0  0  0  0
  131.9392  125.8634   63.8092 H   0  0  0  0  0  0  0  0  0  0  0  0
  128.4274  125.0467   65.6932 H   0  0  0  0  0  0  0  0  0  0  0  0
  129.7301  123.5377   66.9325 H   0  0  0  0  0  0  0  0  0  0  0  0
  131.1536  124.6969   66.9378 H   0  0  0  0  0  0  0  0  0  0  0  0
  128.5402  124.9682   68.4821 H   0  0  0  0  0  0  0  0  0  0  0  0
  130.2113  124.6968   69.1326 H   0  0  0  0  0  0  0  0  0  0  0  0
  131.8184  127.0844   69.3009 H   0  0  0  0  0  0  0  0  0  0  0  0
  131.8675  126.1797   67.7499 H   0  0  0  0  0  0  0  0  0  0  0  0
  131.5349  127.9449   67.7499 H   0  0  0  0  0  0  0  0  0  0  0  0
  1  2  1  0
  2  3  1  0
  3  4  1  0
  4  5  2  0
  4  6  1  0
  6  7  1  0
  7  8  1  0
  8  9  1  0
  9 10  1  1
  9 11  1  0
 11 12  1  0
 12 13  1  0
 13 14  2  0
 14 15  1  0
 15 16  1  0
 16 17  1  0
 17 18  1  0
 18 19  1  0
 19 20  1  0
 20 21  1  0
 21 22  1  0
 20 23  1  0
 23 24  1  0
 24 25  1  0
 25 26  1  0
 26 27  1  0
 27 28  1  0
 28 29  1  0
 27 30  1  0
 30 31  1  0
 31 32  1  0
 32 33  1  0
 33 34  1  0
 34 35  1  0
 35 36  1  0
 34 37  1  0
 37 38  1  0
 37 39  1  0
 39 40  1  0
 39 41  1  0
 30 42  1  0
 42 43  1  0
 42 44  1  0
 23 45  1  0
 45 46  1  0
 45 47  1  0
 16 48  1  0
 48 49  1  0
 49 50  1  0
 50 51  1  1
 50 52  1  0
 52 53  1  0
 53 54  1  0
 54 55  1  0
 55 56  1  6
 55  6  1  0
 55  9  1  0
 52 11  1  0
 50 14  1  0
 47 18  1  0
 44 25  1  0
 41 32  1  0
  1 57  1  0
  1 58  1  0
  1 59  1  0
  3 60  1  0
  3 61  1  0
  6 62  1  1
  7 63  1  0
  7 64  1  0
  8 65  1  0
  8 66  1  0
 10 67  1  0
 11 68  1  6
 12 69  1  0
 12 70  1  0
 13 71  1  0
 15 72  1  0
 15 73  1  0
 16 74  1  1
 18 75  1  6
 19 76  1  0
 19 77  1  0
 20 78  1  6
 22 79  1  0
 22 80  1  0
 22 81  1  0
 23 82  1  1
 25 83  1  1
 26 84  1  0
 26 85  1  0
 27 86  1  1
 29 87  1  0
 29 88  1  0
 29 89  1  0
 30 90  1  6
 32 91  1  1
 33 92  1  0
 33 93  1  0
 34 94  1  1
 36 95  1  0
 36 96  1  0
 36 97  1  0
 37 98  1  1
 38 99  1  0
 39100  1  1
 40101  1  0
 40102  1  0
 40103  1  0
 42104  1  1
 43105  1  0
 43106  1  0
 43107  1  0
 45108  1  6
 46109  1  0
 46110  1  0
 46111  1  0
 48112  1  0
 48113  1  0
 49114  1  0
 49115  1  0
 51116  1  0
 51117  1  0
 51118  1  0
 52119  1  6
 53120  1  0
 53121  1  0
 54122  1  0
 54123  1  0
 56124  1  0
 56125  1  0
 56126  1  0
M  END
>  <Binding energies>  (1) 
[-9.83]

>  <Ligand effiencies>  (1) 
[-0.16948275862068965]

>  <Interactions>  (1) 
["V-A:ASP:366:CA:3210, V-A:GLU:543:CA:4904, V-B:GLU:543:C:9874, V-B:HIS:456:CD2:9039, V-A:GLU:543:C:4902, H-A:ALA:541:N:4891, V-B:GLU:543:CB:9878, H-B:LYS:547:NZ:9923, V-A:PRO:540:C:4881, H-A:TYR:531:OH:4795, V-B:TYR:539:CE2:9848, V-A:TYR:484:CE2:4346, V-B:GLU:543:CG:9879, V-A:HIS:456:CD2:4068, V-A:ASP:366:CG:3213, H-B:HIS:456:ND1:9038, V-A:LEU:363:CD1:3189, V-A:TYR:539:CD1:4873, V-B:TYR:539:CZ:9849, V-A:TYR:539:CZ:4877, H-B:TYR:539:OH:9850, V-A:TYR:539:CA:4869, V-A:GLU:543:CD:4908, V-A:TYR:484:CZ:4347, V-B:HIS:456:CE1:9041, V-B:GLU:543:CA:9876, V-A:ARG:545:CG:4922, V-A:HIS:456:CE1:4070, V-A:ASP:366:C:3208, V-A:GLU:543:CG:4907, V-B:GLU:543:CD:9880, V-A:MET:535:CE:4835, V-A:TYR:539:C:4867, V-A:ASP:366:CB:3212, H-A:GLU:543:OE1:4909, V-A:GLU:543:CB:4906, V-A:PRO:540:N:4884, V-A:TYR:539:CG:4872, H-A:TYR:539:N:4870, H-B:GLU:543:OE2:9882, V-A:PRO:540:CA:4883, V-A:PRO:540:CB:4885, H-A:TYR:539:OH:4878, V-A:TYR:539:CE1:4875"]

$$$$
ZINC2356682599
     RDKit          3D

112116  0  0  0  0  0  0  0  0999 V2000
  126.2700  125.1100   58.6610 C   0  0  0  0  0  0  0  0  0  0  0  0
  127.5070  124.7460   59.2580 O   0  0  0  0  0  0  0  0  0  0  0  0
  127.5480  124.2180   60.5010 C   0  0  0  0  0  0  0  0  0  0  0  0
  126.6880  123.4370   60.9230 O   0  0  0  0  0  0  0  0  0  0  0  0
  128.9740  124.2750   61.1660 C   0  0  2  0  0  0  0  0  0  0  0  0
  129.9840  124.8100   60.0610 C   0  0  0  0  0  0  0  0  0  0  0  0
  131.1690  125.7480   60.3900 C   0  0  0  0  0  0  0  0  0  0  0  0
  131.1850  126.3470   61.4640 O   0  0  0  0  0  0  0  0  0  0  0  0
  132.2890  126.0130   59.3500 C   0  0  2  0  0  0  0  0  0  0  0  0
  131.8210  125.9400   57.8570 C   0  0  0  0  0  0  0  0  0  0  0  0
  132.9830  126.1320   56.8580 C   0  0  0  0  0  0  0  0  0  0  0  0
  130.6990  126.9500   57.5170 C   0  0  0  0  0  0  0  0  0  0  0  0
  133.5680  125.1810   59.6700 C   0  0  0  0  0  0  0  0  0  0  0  0
  133.4930  123.6900   59.2890 C   0  0  0  0  0  0  0  0  0  0  0  0
  133.5110  123.3920   58.0950 O   0  0  0  0  0  0  0  0  0  0  0  0
  133.3280  122.6710   60.3400 C   0  0  0  0  0  0  0  0  0  0  0  0
  133.7540  123.1090   61.7400 C   0  0  0  0  0  0  0  0  0  0  0  0
  132.9030  121.4290   60.0070 C   0  0  0  0  0  0  0  0  0  0  0  0
  132.7180  120.2240   60.9180 C   0  0  0  0  0  0  0  0  0  0  0  0
  131.5670  119.2920   60.4880 C   0  0  0  0  0  0  0  0  0  0  0  0
  130.3460  119.3120   61.4180 C   0  0  0  0  0  0  0  0  0  0  0  0
  130.2060  118.0490   62.2560 C   0  0  0  0  0  0  0  0  0  0  0  0
  129.4140  120.2940   61.5220 C   0  0  0  0  0  0  0  0  0  0  0  0
  129.3700  121.5880   60.8280 C   0  0  0  0  0  0  0  0  0  0  0  0
  129.2470  121.6930   59.6090 O   0  0  0  0  0  0  0  0  0  0  0  0
  129.4730  122.8600   61.7240 C   0  0  2  0  0  0  0  0  0  0  0  0
  128.8870  122.4980   63.1100 C   0  0  0  0  0  0  0  0  0  0  0  0
  129.2840  123.5550   64.1250 C   0  0  0  0  0  0  0  0  0  0  0  0
  129.5090  123.0110   65.5320 C   0  0  0  0  0  0  0  0  0  0  0  0
  129.3340  124.8700   63.7870 C   0  0  0  0  0  0  0  0  0  0  0  0
  129.8180  125.9860   64.7490 C   0  0  2  0  0  0  0  0  0  0  0  0
  131.0760  125.6960   65.3670 O   0  0  0  0  0  0  0  0  0  0  0  0
  132.1130  125.1830   64.6640 C   0  0  0  0  0  0  0  0  0  0  0  0
  133.3760  125.0630   65.5070 C   0  0  0  0  0  0  0  0  0  0  0  0
  132.0940  124.8380   63.4830 O   0  0  0  0  0  0  0  0  0  0  0  0
  128.7980  126.3800   65.8400 C   0  0  0  0  0  0  0  0  0  0  0  0
  129.3630  127.0100   67.1350 C   0  0  2  0  0  0  0  0  0  0  0  0
  130.8000  126.6050   67.5180 C   0  0  0  0  0  0  0  0  0  0  0  0
  128.4540  127.2330   68.1770 O   0  0  0  0  0  0  0  0  0  0  0  0
  128.9340  128.3970   67.5420 C   0  0  2  0  0  0  0  0  0  0  0  0
  127.9160  129.2080   66.7110 C   0  0  0  0  0  0  0  0  0  0  0  0
  128.5160  130.3880   65.9190 C   0  0  0  0  0  0  0  0  0  0  0  0
  127.8900  130.7270   64.5400 C   0  0  2  0  0  0  0  0  0  0  0  0
  128.6050  131.8300   63.7410 C   0  0  0  0  0  0  0  0  0  0  0  0
  126.4900  130.7810   64.5600 O   0  0  0  0  0  0  0  0  0  0  0  0
  127.0310  129.7020   63.8350 C   0  0  1  0  0  0  0  0  0  0  0  0
  126.6690  129.7220   62.3270 C   0  0  0  0  0  0  0  0  0  0  0  0
  126.5320  128.3790   61.5700 C   0  0  0  0  0  0  0  0  0  0  0  0
  127.7440  127.4590   61.4100 C   0  0  0  0  0  0  0  0  0  0  0  0
  128.6440  127.6970   60.2010 C   0  0  0  0  0  0  0  0  0  0  0  0
  127.9460  126.4820   62.3250 C   0  0  0  0  0  0  0  0  0  0  0  0
  129.0090  125.3660   62.3560 C   0  0  2  0  0  0  0  0  0  0  0  0
  125.5328  125.3269   59.4481 H   0  0  0  0  0  0  0  0  0  0  0  0
  126.4133  126.0040   58.0364 H   0  0  0  0  0  0  0  0  0  0  0  0
  125.9063  124.2808   58.0364 H   0  0  0  0  0  0  0  0  0  0  0  0
  130.4245  123.9166   59.5943 H   0  0  0  0  0  0  0  0  0  0  0  0
  129.3347  125.4727   59.4701 H   0  0  0  0  0  0  0  0  0  0  0  0
  132.5712  127.0706   59.4591 H   0  0  0  0  0  0  0  0  0  0  0  0
  131.4179  124.9221   57.7500 H   0  0  0  0  0  0  0  0  0  0  0  0
  133.9208  126.2869   57.4117 H   0  0  0  0  0  0  0  0  0  0  0  0
  133.0744  125.2368   56.2254 H   0  0  0  0  0  0  0  0  0  0  0  0
  132.7815  127.0090   56.2254 H   0  0  0  0  0  0  0  0  0  0  0  0
  130.2638  127.3418   58.4482 H   0  0  0  0  0  0  0  0  0  0  0  0
  131.1187  127.7806   56.9306 H   0  0  0  0  0  0  0  0  0  0  0  0
  129.9169  126.4456   56.9306 H   0  0  0  0  0  0  0  0  0  0  0  0
  134.4112  125.6297   59.1244 H   0  0  0  0  0  0  0  0  0  0  0  0
  133.6862  125.2111   60.7632 H   0  0  0  0  0  0  0  0  0  0  0  0
  133.1935  122.5328   62.4909 H   0  0  0  0  0  0  0  0  0  0  0  0
  134.8315  122.9286   61.8686 H   0  0  0  0  0  0  0  0  0  0  0  0
  133.5438  124.1810   61.8686 H   0  0  0  0  0  0  0  0  0  0  0  0
  132.6613  121.2715   58.9455 H   0  0  0  0  0  0  0  0  0  0  0  0
  133.6524  119.6436   60.9200 H   0  0  0  0  0  0  0  0  0  0  0  0
  132.4621  120.6115   61.9152 H   0  0  0  0  0  0  0  0  0  0  0  0
  131.2377  119.5949   59.4831 H   0  0  0  0  0  0  0  0  0  0  0  0
  131.9668  118.2678   60.5211 H   0  0  0  0  0  0  0  0  0  0  0  0
  130.2352  118.3122   63.3236 H   0  0  0  0  0  0  0  0  0  0  0  0
  129.2481  117.5600   62.0250 H   0  0  0  0  0  0  0  0  0  0  0  0
  131.0335  117.3621   62.0250 H   0  0  0  0  0  0  0  0  0  0  0  0
  128.5842  120.0947   62.2160 H   0  0  0  0  0  0  0  0  0  0  0  0
  130.5468  123.0953   61.7633 H   0  0  0  0  0  0  0  0  0  0  0  0
  127.7902  122.4499   63.0421 H   0  0  0  0  0  0  0  0  0  0  0  0
  129.2804  121.5213   63.4282 H   0  0  0  0  0  0  0  0  0  0  0  0
  129.1974  123.7643   66.2705 H   0  0  0  0  0  0  0  0  0  0  0  0
  128.9160  122.0949   65.6701 H   0  0  0  0  0  0  0  0  0  0  0  0
  130.5759  122.7814   65.6701 H   0  0  0  0  0  0  0  0  0  0  0  0
  129.9391  126.8497   64.0787 H   0  0  0  0  0  0  0  0  0  0  0  0
  133.1086  125.0884   66.5737 H   0  0  0  0  0  0  0  0  0  0  0  0
  133.8808  124.1129   65.2780 H   0  0  0  0  0  0  0  0  0  0  0  0
  134.0507  125.9011   65.2780 H   0  0  0  0  0  0  0  0  0  0  0  0
  128.1000  127.1048   65.3955 H   0  0  0  0  0  0  0  0  0  0  0  0
  128.3408  125.4319   66.1595 H   0  0  0  0  0  0  0  0  0  0  0  0
  130.8938  126.5786   68.6137 H   0  0  0  0  0  0  0  0  0  0  0  0
  131.0222  125.6092   67.1068 H   0  0  0  0  0  0  0  0  0  0  0  0
  131.5095  127.3382   67.1068 H   0  0  0  0  0  0  0  0  0  0  0  0
  129.4732  129.3170   67.8118 H   0  0  0  0  0  0  0  0  0  0  0  0
  127.4377  128.5239   65.9946 H   0  0  0  0  0  0  0  0  0  0  0  0
  127.2106  129.6475   67.4316 H   0  0  0  0  0  0  0  0  0  0  0  0
  128.4268  131.2852   66.5492 H   0  0  0  0  0  0  0  0  0  0  0  0
  129.5435  130.0714   65.6864 H   0  0  0  0  0  0  0  0  0  0  0  0
  129.0684  132.5449   64.4368 H   0  0  0  0  0  0  0  0  0  0  0  0
  129.3826  131.3784   63.1074 H   0  0  0  0  0  0  0  0  0  0  0  0
  127.8753  132.3554   63.1074 H   0  0  0  0  0  0  0  0  0  0  0  0
  127.0683  128.6027   63.8283 H   0  0  0  0  0  0  0  0  0  0  0  0
  125.7054  130.2442   62.2338 H   0  0  0  0  0  0  0  0  0  0  0  0
  127.5372  130.2040   61.8538 H   0  0  0  0  0  0  0  0  0  0  0  0
  125.7598  127.7971   62.0946 H   0  0  0  0  0  0  0  0  0  0  0  0
  126.3179  128.6936   60.5379 H   0  0  0  0  0  0  0  0  0  0  0  0
  129.6547  127.9643   60.5432 H   0  0  0  0  0  0  0  0  0  0  0  0
  128.6927  126.7809   59.5941 H   0  0  0  0  0  0  0  0  0  0  0  0
  128.2334  128.5175   59.5941 H   0  0  0  0  0  0  0  0  0  0  0  0
  127.2465  126.4849   63.1739 H   0  0  0  0  0  0  0  0  0  0  0  0
  129.9371  125.8693   62.0473 H   0  0  0  0  0  0  0  0  0  0  0  0
  1  2  1  0
  2  3  1  0
  3  4  2  0
  5  3  1  6
  5  6  1  0
  6  7  1  0
  7  8  2  0
  7  9  1  0
  9 10  1  0
 10 11  1  0
 10 12  1  0
  9 13  1  0
 13 14  1  0
 14 15  2  0
 14 16  1  0
 16 17  1  0
 16 18  2  0
 18 19  1  0
 19 20  1  0
 20 21  1  0
 21 22  1  0
 21 23  2  0
 23 24  1  0
 24 25  2  0
 24 26  1  0
 26 27  1  0
 27 28  1  0
 28 29  1  0
 28 30  2  0
 30 31  1  0
 31 32  1  0
 32 33  1  0
 33 34  1  0
 33 35  2  0
 31 36  1  0
 36 37  1  0
 37 38  1  1
 37 39  1  0
 39 40  1  0
 40 41  1  0
 41 42  1  0
 42 43  1  0
 43 44  1  6
 43 45  1  0
 45 46  1  0
 46 47  1  0
 47 48  1  0
 48 49  1  0
 49 50  1  0
 49 51  2  0
 51 52  1  0
 26  5  1  0
 52 30  1  0
 52  5  1  0
 40 37  1  0
 46 43  1  0
  1 53  1  0
  1 54  1  0
  1 55  1  0
  6 56  1  0
  6 57  1  0
  9 58  1  1
 10 59  1  0
 11 60  1  0
 11 61  1  0
 11 62  1  0
 12 63  1  0
 12 64  1  0
 12 65  1  0
 13 66  1  0
 13 67  1  0
 17 68  1  0
 17 69  1  0
 17 70  1  0
 18 71  1  0
 19 72  1  0
 19 73  1  0
 20 74  1  0
 20 75  1  0
 22 76  1  0
 22 77  1  0
 22 78  1  0
 23 79  1  0
 26 80  1  1
 27 81  1  0
 27 82  1  0
 29 83  1  0
 29 84  1  0
 29 85  1  0
 31 86  1  6
 34 87  1  0
 34 88  1  0
 34 89  1  0
 36 90  1  0
 36 91  1  0
 38 92  1  0
 38 93  1  0
 38 94  1  0
 40 95  1  1
 41 96  1  0
 41 97  1  0
 42 98  1  0
 42 99  1  0
 44100  1  0
 44101  1  0
 44102  1  0
 46103  1  1
 47104  1  0
 47105  1  0
 48106  1  0
 48107  1  0
 50108  1  0
 50109  1  0
 50110  1  0
 51111  1  0
 52112  1  6
M  END
>  <Binding energies>  (1) 
[-1.36]

>  <Ligand effiencies>  (1) 
[-0.02428571428571429]

>  <Interactions>  (1) 
["V-A:ILE:369:CG2:3237, V-A:ASP:366:CA:3210, V-B:PRO:540:CA:9855, V-A:GLU:543:CA:4904, V-A:ILE:369:CB:3236, V-B:GLU:543:CB:9878, V-B:ALA:541:CB:9864, V-A:TYR:531:CE1:4792, V-A:TYR:484:CE2:4346, V-A:ASN:370:CB:3245, V-B:TYR:539:CE2:9848, V-A:LEU:475:CG:4257, V-B:GLU:543:CG:9879, V-B:TYR:539:C:9839, V-A:ASP:366:CG:3213, V-B:TYR:484:CE2:9317, V-A:TYR:531:CE2:4793, H-B:TYR:539:OH:9850, V-A:ALA:541:CB:4892, H-B:ALA:541:N:9863, V-A:LEU:475:CD1:4258, V-A:TYR:484:CZ:4347, V-A:GLU:543:CD:4908, H-B:TYR:484:OH:9319, V-B:GLU:543:CA:9876, V-B:HIS:456:CE1:9041, V-A:ILE:369:CD1:3239, V-B:TYR:484:CZ:9318, V-A:HIS:456:CE1:4070, V-A:ASP:366:C:3208, V-A:PRO:482:CB:4326, V-B:TYR:539:CD2:9846, V-A:TYR:531:CZ:4794, V-A:SER:385:CB:3409, V-A:GLU:543:CG:4907, V-B:GLU:543:CD:9880, V-A:ASP:366:CB:3212, V-A:ARG:545:CD:4923, V-A:LEU:475:CD2:4259, H-A:ARG:545:NH2:4928, V-A:ARG:545:CZ:4926, V-A:GLU:543:CB:4906, V-A:SER:385:CA:3407, V-B:PRO:540:C:9853, V-B:ALA:541:CA:9862"]

$$$$
ZINC2356688124
     RDKit          3D

104113  0  0  0  0  0  0  0  0999 V2000
  125.6980  129.0740   59.6130 C   0  0  0  0  0  0  0  0  0  0  0  0
  126.2960  129.4540   60.8480 O   0  0  0  0  0  0  0  0  0  0  0  0
  127.0360  128.5370   61.5760 C   0  0  0  0  0  0  0  0  0  0  0  0
  127.1840  127.2020   61.1560 C   0  0  0  0  0  0  0  0  0  0  0  0
  127.9830  126.3510   61.9270 C   0  0  0  0  0  0  0  0  0  0  0  0
  128.6210  126.7960   63.1150 C   0  0  0  0  0  0  0  0  0  0  0  0
  128.4490  128.1250   63.5160 C   0  0  0  0  0  0  0  0  0  0  0  0
  127.6690  128.9970   62.7480 C   0  0  0  0  0  0  0  0  0  0  0  0
  127.5430  130.4570   63.2410 C   0  0  2  0  0  0  0  0  0  0  0  0
  126.1440  131.0740   63.0020 C   0  0  0  0  0  0  0  0  0  0  0  0
  128.7190  131.4460   62.8670 C   0  0  1  0  0  0  0  0  0  0  0  0
  129.3920  131.0840   61.5200 C   0  0  1  0  0  0  0  0  0  0  0  0
  130.1800  129.7300   61.3360 C   0  0  0  0  0  0  0  0  0  0  0  0
  130.7670  129.4690   59.8810 C   0  0  1  0  0  0  0  0  0  0  0  0
  130.1090  128.2890   59.1040 C   0  0  0  0  0  0  0  0  0  0  0  0
  129.0490  128.4350   58.1870 C   0  0  0  0  0  0  0  0  0  0  0  0
  128.7850  127.1360   57.6530 C   0  0  0  0  0  0  0  0  0  0  0  0
  127.8790  126.6390   56.7030 C   0  0  0  0  0  0  0  0  0  0  0  0
  127.8890  125.2790   56.4060 C   0  0  0  0  0  0  0  0  0  0  0  0
  128.7740  124.4120   57.0370 C   0  0  0  0  0  0  0  0  0  0  0  0
  129.6870  124.8570   57.9930 C   0  0  0  0  0  0  0  0  0  0  0  0
  129.6820  126.2260   58.2990 C   0  0  0  0  0  0  0  0  0  0  0  0
  130.4470  126.9550   59.2010 N   0  0  0  0  0  0  0  0  0  0  0  0
  131.5090  126.4080   60.0330 C   0  0  0  0  0  0  0  0  0  0  0  0
  128.3880  129.8350   57.9520 C   0  0  0  0  0  0  0  0  0  0  0  0
  128.9950  130.8610   58.9800 C   0  0  1  0  0  0  0  0  0  0  0  0
  128.4390  131.4520   60.3250 C   0  0  2  0  0  0  0  0  0  0  0  0
  128.1940  132.9690   60.3790 C   0  0  0  0  0  0  0  0  0  0  0  0
  127.6540  133.3380   61.6650 O   0  0  0  0  0  0  0  0  0  0  0  0
  128.4680  132.9940   62.7670 C   0  0  1  0  0  0  0  0  0  0  0  0
  127.9480  133.4570   63.9450 O   0  0  0  0  0  0  0  0  0  0  0  0
  130.4490  130.6240   59.0200 N   0  0  0  0  0  0  0  0  0  0  0  0
  131.3530  131.7650   58.9370 C   0  0  0  0  0  0  0  0  0  0  0  0
  129.3490  125.6880   63.6480 C   0  0  0  0  0  0  0  0  0  0  0  0
  129.1350  124.6190   62.7940 C   0  0  0  0  0  0  0  0  0  0  0  0
  128.3260  125.0190   61.7490 N   0  0  0  0  0  0  0  0  0  0  0  0
  127.8790  124.1850   60.6390 C   0  0  0  0  0  0  0  0  0  0  0  0
  129.7520  123.2260   62.9850 C   0  0  1  0  0  0  0  0  0  0  0  0
  131.0200  123.0100   62.0890 C   0  0  0  0  0  0  0  0  0  0  0  0
  132.4020  123.1830   62.8090 C   0  0  1  0  0  0  0  0  0  0  0  0
  133.6380  123.4880   61.9420 C   0  0  0  0  0  0  0  0  0  0  0  0
  133.7830  122.8050   60.6430 C   0  0  0  0  0  0  0  0  0  0  0  0
  133.8050  123.6260   59.3500 C   0  0  0  0  0  0  0  0  0  0  0  0
  133.8750  121.5810   60.5450 O   0  0  0  0  0  0  0  0  0  0  0  0
  134.6030  124.3390   62.3660 C   0  0  0  0  0  0  0  0  0  0  0  0
  134.6480  125.0140   63.5480 O   0  0  0  0  0  0  0  0  0  0  0  0
  133.5970  124.7170   64.4830 C   0  0  0  0  0  0  0  0  0  0  0  0
  132.2490  124.3750   63.8080 C   0  0  2  0  0  0  0  0  0  0  0  0
  131.0510  124.2240   64.8160 C   0  0  1  0  0  0  0  0  0  0  0  0
  130.2270  125.5550   64.8870 C   0  0  0  0  0  0  0  0  0  0  0  0
  130.2000  123.0930   64.3870 N   0  0  0  0  0  0  0  0  0  0  0  0
  129.1460  122.7340   65.3330 C   0  0  0  0  0  0  0  0  0  0  0  0
  124.7848  128.4937   59.8110 H   0  0  0  0  0  0  0  0  0  0  0  0
  125.4419  129.9754   59.0369 H   0  0  0  0  0  0  0  0  0  0  0  0
  126.4053  128.4593   59.0369 H   0  0  0  0  0  0  0  0  0  0  0  0
  126.6849  126.8375   60.2460 H   0  0  0  0  0  0  0  0  0  0  0  0
  128.9284  128.4859   64.4379 H   0  0  0  0  0  0  0  0  0  0  0  0
  127.6637  130.3349   64.3275 H   0  0  0  0  0  0  0  0  0  0  0  0
  125.6660  131.2848   63.9700 H   0  0  0  0  0  0  0  0  0  0  0  0
  126.2482  132.0096   62.4330 H   0  0  0  0  0  0  0  0  0  0  0  0
  125.5234  130.3661   62.4330 H   0  0  0  0  0  0  0  0  0  0  0  0
  129.3262  131.2828   63.7696 H   0  0  0  0  0  0  0  0  0  0  0  0
  130.2839  131.7277   61.5315 H   0  0  0  0  0  0  0  0  0  0  0  0
  131.0207  129.7285   62.0454 H   0  0  0  0  0  0  0  0  0  0  0  0
  129.4473  128.9289   61.5132 H   0  0  0  0  0  0  0  0  0  0  0  0
  131.8338  129.2678   60.0583 H   0  0  0  0  0  0  0  0  0  0  0  0
  127.1712  127.3146   56.2004 H   0  0  0  0  0  0  0  0  0  0  0  0
  127.1847  124.8835   55.6593 H   0  0  0  0  0  0  0  0  0  0  0  0
  128.7536  123.3439   56.7746 H   0  0  0  0  0  0  0  0  0  0  0  0
  130.3827  124.1627   58.4869 H   0  0  0  0  0  0  0  0  0  0  0  0
  131.2496  126.5416   61.0936 H   0  0  0  0  0  0  0  0  0  0  0  0
  131.6287  125.3361   59.8170 H   0  0  0  0  0  0  0  0  0  0  0  0
  132.4512  126.9330   59.8170 H   0  0  0  0  0  0  0  0  0  0  0  0
  128.5942  130.1737   56.9260 H   0  0  0  0  0  0  0  0  0  0  0  0
  127.2995  129.7632   58.0938 H   0  0  0  0  0  0  0  0  0  0  0  0
  128.5025  131.7309   58.5208 H   0  0  0  0  0  0  0  0  0  0  0  0
  127.4458  130.9853   60.4007 H   0  0  0  0  0  0  0  0  0  0  0  0
  129.1455  133.4972   60.2187 H   0  0  0  0  0  0  0  0  0  0  0  0
  127.4754  133.2461   59.5936 H   0  0  0  0  0  0  0  0  0  0  0  0
  129.4368  133.4844   62.5914 H   0  0  0  0  0  0  0  0  0  0  0  0
  126.9910  133.4110   63.8840 H   0  0  0  0  0  0  0  0  0  0  0  0
  131.6170  132.0982   59.9515 H   0  0  0  0  0  0  0  0  0  0  0  0
  132.2660  131.4710   58.3984 H   0  0  0  0  0  0  0  0  0  0  0  0
  130.8580  132.5865   58.3984 H   0  0  0  0  0  0  0  0  0  0  0  0
  127.3938  123.2797   61.0328 H   0  0  0  0  0  0  0  0  0  0  0  0
  127.1614  124.7474   60.0236 H   0  0  0  0  0  0  0  0  0  0  0  0
  128.7447  123.8989   60.0236 H   0  0  0  0  0  0  0  0  0  0  0  0
  128.9822  122.4895   62.7111 H   0  0  0  0  0  0  0  0  0  0  0  0
  130.9764  121.9885   61.6832 H   0  0  0  0  0  0  0  0  0  0  0  0
  130.9818  123.7980   61.3225 H   0  0  0  0  0  0  0  0  0  0  0  0
  132.6070  122.1975   63.2527 H   0  0  0  0  0  0  0  0  0  0  0  0
  133.8337  124.6976   59.5966 H   0  0  0  0  0  0  0  0  0  0  0  0
  134.6964  123.3609   58.7625 H   0  0  0  0  0  0  0  0  0  0  0  0
  132.9007  123.4090   58.7625 H   0  0  0  0  0  0  0  0  0  0  0  0
  135.4453  124.5034   61.6779 H   0  0  0  0  0  0  0  0  0  0  0  0
  133.9080  123.8573   65.0947 H   0  0  0  0  0  0  0  0  0  0  0  0
  133.4358  125.6223   65.0866 H   0  0  0  0  0  0  0  0  0  0  0  0
  131.9630  125.2503   63.2063 H   0  0  0  0  0  0  0  0  0  0  0  0
  131.4379  124.0182   65.8249 H   0  0  0  0  0  0  0  0  0  0  0  0
  129.5916  125.5432   65.7848 H   0  0  0  0  0  0  0  0  0  0  0  0
  130.9199  126.4080   64.9332 H   0  0  0  0  0  0  0  0  0  0  0  0
  129.5171  122.8604   66.3608 H   0  0  0  0  0  0  0  0  0  0  0  0
  128.2741  123.3858   65.1752 H   0  0  0  0  0  0  0  0  0  0  0  0
  128.8533  121.6855   65.1752 H   0  0  0  0  0  0  0  0  0  0  0  0
  1  2  1  0
  2  3  1  0
  3  4  1  0
  4  5  2  0
  5  6  1  0
  6  7  2  0
  7  8  1  0
  8  9  1  0
  9 10  1  0
  9 11  1  0
 11 12  1  0
 12 13  1  0
 13 14  1  0
 14 15  1  0
 15 16  2  0
 16 17  1  0
 17 18  2  0
 18 19  1  0
 19 20  2  0
 20 21  1  0
 21 22  2  0
 22 23  1  0
 23 24  1  0
 16 25  1  0
 25 26  1  0
 26 27  1  0
 27 28  1  0
 28 29  1  0
 29 30  1  0
 30 31  1  0
 26 32  1  0
 32 33  1  0
  6 34  1  0
 34 35  2  0
 35 36  1  0
 36 37  1  0
 35 38  1  0
 38 39  1  0
 39 40  1  0
 40 41  1  0
 41 42  1  0
 42 43  1  0
 42 44  2  0
 41 45  2  0
 45 46  1  0
 46 47  1  0
 47 48  1  0
 48 49  1  0
 49 50  1  0
 49 51  1  0
 51 52  1  0
  8  3  2  0
 30 11  1  0
 50 34  1  0
 36  5  1  0
 51 38  1  0
 27 12  1  0
 48 40  1  0
 32 14  1  0
 23 15  1  0
 22 17  1  0
  1 53  1  0
  1 54  1  0
  1 55  1  0
  4 56  1  0
  7 57  1  0
  9 58  1  1
 10 59  1  0
 10 60  1  0
 10 61  1  0
 11 62  1  1
 12 63  1  6
 13 64  1  0
 13 65  1  0
 14 66  1  1
 18 67  1  0
 19 68  1  0
 20 69  1  0
 21 70  1  0
 24 71  1  0
 24 72  1  0
 24 73  1  0
 25 74  1  0
 25 75  1  0
 26 76  1  6
 27 77  1  1
 28 78  1  0
 28 79  1  0
 30 80  1  6
 31 81  1  0
 33 82  1  0
 33 83  1  0
 33 84  1  0
 37 85  1  0
 37 86  1  0
 37 87  1  0
 38 88  1  6
 39 89  1  0
 39 90  1  0
 40 91  1  1
 43 92  1  0
 43 93  1  0
 43 94  1  0
 45 95  1  0
 47 96  1  0
 47 97  1  0
 48 98  1  6
 49 99  1  1
 50100  1  0
 50101  1  0
 52102  1  0
 52103  1  0
 52104  1  0
M  END
>  <Binding energies>  (1) 
[-9.74]

>  <Ligand effiencies>  (1) 
[-0.18377358490566037]

>  <Interactions>  (1) 
["V-A:ILE:369:CG2:3237, V-A:GLY:454:CA:4049, V-A:ILE:369:CB:3236, V-B:GLU:543:CB:9878, V-B:ALA:541:CB:9864, V-B:ASP:366:CG:8184, H-A:ARG:545:NH1:4927, V-A:TYR:484:CE2:4346, V-B:TYR:539:CE2:9848, V-B:GLU:543:CG:9879, V-B:LEU:475:CD2:9230, V-A:ASP:366:CG:3213, V-A:TYR:539:CD1:4873, V-B:TYR:539:CZ:9849, V-A:ALA:541:CB:4892, V-A:GLU:543:CD:4908, V-B:ASP:366:CB:8183, H-B:TYR:484:OH:9319, V-B:GLU:543:CA:9876, H-A:GLY:454:N:4050, V-A:GLY:453:C:4042, V-A:ILE:369:CD1:3239, V-B:GLU:543:CD:9880, V-A:LEU:475:CD2:4259, H-A:ARG:545:NH2:4928, V-A:ARG:545:CZ:4926, V-A:GLY:453:CA:4044, V-A:PRO:540:CB:4885, V-A:PRO:540:CA:4883, H-A:ARG:545:NE:4924, V-B:TYR:539:CE1:9847, H-A:TYR:484:OH:4348"]

$$$$
ZINC2356688892
     RDKit          3D

 78 80  0  0  0  0  0  0  0  0999 V2000
  128.5400  128.1670   67.3150 C   0  0  0  0  0  0  0  0  0  0  0  0
  128.7460  126.9020   67.7130 C   0  0  0  0  0  0  0  0  0  0  0  0
  130.0990  126.2120   67.7520 C   0  0  2  0  0  0  0  0  0  0  0  0
  131.0170  127.0950   68.3570 O   0  0  0  0  0  0  0  0  0  0  0  0
  130.5180  125.8020   66.4010 C   0  0  0  0  0  0  0  0  0  0  0  0
  130.9170  125.4730   65.2950 C   0  0  0  0  0  0  0  0  0  0  0  0
  131.3710  125.1970   64.0380 C   0  0  0  0  0  0  0  0  0  0  0  0
  131.7780  125.0630   62.8940 C   0  0  0  0  0  0  0  0  0  0  0  0
  132.1520  124.9890   61.4730 C   0  0  1  0  0  0  0  0  0  0  0  0
  132.6370  123.5930   61.1270 C   0  0  0  0  0  0  0  0  0  0  0  0
  133.2460  122.7590   61.9900 C   0  0  0  0  0  0  0  0  0  0  0  0
  133.7610  121.3740   61.6420 C   0  0  0  0  0  0  0  0  0  0  0  0
  132.9930  120.6840   60.4980 C   0  0  0  0  0  0  0  0  0  0  0  0
  131.5900  120.1780   60.8990 C   0  0  0  0  0  0  0  0  0  0  0  0
  130.4930  121.2600   60.8820 C   0  0  0  0  0  0  0  0  0  0  0  0
  129.4880  121.1670   62.0480 C   0  0  0  0  0  0  0  0  0  0  0  0
  129.2910  122.5100   62.7730 C   0  0  0  0  0  0  0  0  0  0  0  0
  129.5310  122.4140   64.2860 C   0  0  0  0  0  0  0  0  0  0  0  0
  131.0110  125.3290   60.6850 O   0  0  0  0  0  0  0  0  0  0  0  0
  131.1110  126.0540   59.4490 C   0  0  0  0  0  0  0  0  0  0  0  0
  132.4880  125.8270   58.7680 C   0  0  0  0  0  0  0  0  0  0  0  0
  129.9730  125.5950   58.5030 C   0  0  0  0  0  0  0  0  0  0  0  0
  130.9120  127.5480   59.8810 C   0  0  2  0  0  0  0  0  0  0  0  0
  131.2560  127.7390   61.2440 O   0  0  0  0  0  0  0  0  0  0  0  0
  129.4900  128.1280   59.6660 C   0  0  0  0  0  0  0  0  0  0  0  0
  129.5760  129.5000   59.2960 O   0  0  0  0  0  0  0  0  0  0  0  0
  130.3580  130.2830   60.1110 C   0  0  0  0  0  0  0  0  0  0  0  0
  131.6280  130.6580   59.6370 C   0  0  0  0  0  0  0  0  0  0  0  0
  132.4160  130.4100   58.4690 C   0  0  0  0  0  0  0  0  0  0  0  0
  133.6010  131.1060   58.6510 C   0  0  0  0  0  0  0  0  0  0  0  0
  133.6220  131.7760   59.8380 O   0  0  0  0  0  0  0  0  0  0  0  0
  132.4240  131.5100   60.4410 C   0  0  0  0  0  0  0  0  0  0  0  0
  132.0070  132.0040   61.6820 C   0  0  0  0  0  0  0  0  0  0  0  0
  130.7400  131.6170   62.1190 C   0  0  0  0  0  0  0  0  0  0  0  0
  130.3190  132.1260   63.3440 O   0  0  0  0  0  0  0  0  0  0  0  0
  129.0670  131.8360   63.8800 C   0  0  0  0  0  0  0  0  0  0  0  0
  128.7990  132.3690   64.9540 O   0  0  0  0  0  0  0  0  0  0  0  0
  128.2080  130.9310   63.1030 C   0  0  0  0  0  0  0  0  0  0  0  0
  128.6190  130.4310   61.9240 C   0  0  0  0  0  0  0  0  0  0  0  0
  129.9270  130.7640   61.3540 C   0  0  0  0  0  0  0  0  0  0  0  0
  127.5230  128.5862   67.3193 H   0  0  0  0  0  0  0  0  0  0  0  0
  129.3881  128.7846   66.9845 H   0  0  0  0  0  0  0  0  0  0  0  0
  127.8693  126.3210   68.0352 H   0  0  0  0  0  0  0  0  0  0  0  0
  130.0471  125.2869   68.3449 H   0  0  0  0  0  0  0  0  0  0  0  0
  131.4210  127.6300   67.6710 H   0  0  0  0  0  0  0  0  0  0  0  0
  132.9709  125.6935   61.2655 H   0  0  0  0  0  0  0  0  0  0  0  0
  132.4796  123.2378   60.0979 H   0  0  0  0  0  0  0  0  0  0  0  0
  133.3807  123.1069   63.0248 H   0  0  0  0  0  0  0  0  0  0  0  0
  134.8163  121.4629   61.3447 H   0  0  0  0  0  0  0  0  0  0  0  0
  133.6218  120.7506   62.5375 H   0  0  0  0  0  0  0  0  0  0  0  0
  132.8786  121.4042   59.6744 H   0  0  0  0  0  0  0  0  0  0  0  0
  133.5797  119.7996   60.2088 H   0  0  0  0  0  0  0  0  0  0  0  0
  131.2984  119.3817   60.1983 H   0  0  0  0  0  0  0  0  0  0  0  0
  131.6685  119.8276   61.9387 H   0  0  0  0  0  0  0  0  0  0  0  0
  130.9807  122.2450   60.9259 H   0  0  0  0  0  0  0  0  0  0  0  0
  129.9163  121.1077   59.9577 H   0  0  0  0  0  0  0  0  0  0  0  0
  128.5172  120.8366   61.6499 H   0  0  0  0  0  0  0  0  0  0  0  0
  129.8935  120.4520   62.7790 H   0  0  0  0  0  0  0  0  0  0  0  0
  129.9953  123.2426   62.3519 H   0  0  0  0  0  0  0  0  0  0  0  0
  128.2446  122.8147   62.6239 H   0  0  0  0  0  0  0  0  0  0  0  0
  128.6392  122.7707   64.8221 H   0  0  0  0  0  0  0  0  0  0  0  0
  129.7294  121.3673   64.5601 H   0  0  0  0  0  0  0  0  0  0  0  0
  130.3965  123.0351   64.5601 H   0  0  0  0  0  0  0  0  0  0  0  0
  133.2619  125.6994   59.5392 H   0  0  0  0  0  0  0  0  0  0  0  0
  132.4427  124.9242   58.1412 H   0  0  0  0  0  0  0  0  0  0  0  0
  132.7349  126.6966   58.1412 H   0  0  0  0  0  0  0  0  0  0  0  0
  129.1165  125.2495   59.1005 H   0  0  0  0  0  0  0  0  0  0  0  0
  129.6613  126.4377   57.8685 H   0  0  0  0  0  0  0  0  0  0  0  0
  130.3333  124.7719   57.8685 H   0  0  0  0  0  0  0  0  0  0  0  0
  131.5872  128.0957   59.2071 H   0  0  0  0  0  0  0  0  0  0  0  0
  130.7080  127.1610   61.7810 H   0  0  0  0  0  0  0  0  0  0  0  0
  128.9841  127.5660   58.8671 H   0  0  0  0  0  0  0  0  0  0  0  0
  128.9186  128.0409   60.6019 H   0  0  0  0  0  0  0  0  0  0  0  0
  132.1380  129.7923   57.6023 H   0  0  0  0  0  0  0  0  0  0  0  0
  134.4264  131.1164   57.9239 H   0  0  0  0  0  0  0  0  0  0  0  0
  132.6473  132.6656   62.2839 H   0  0  0  0  0  0  0  0  0  0  0  0
  127.2154  130.6589   63.4911 H   0  0  0  0  0  0  0  0  0  0  0  0
  127.9533  129.7518   61.3712 H   0  0  0  0  0  0  0  0  0  0  0  0
  1  2  2  0
  2  3  1  0
  3  4  1  0
  3  5  1  0
  5  6  3  0
  6  7  1  0
  7  8  3  0
  8  9  1  0
  9 10  1  0
 10 11  2  0
 11 12  1  0
 12 13  1  0
 13 14  1  0
 14 15  1  0
 15 16  1  0
 16 17  1  0
 17 18  1  0
  9 19  1  0
 19 20  1  0
 20 21  1  0
 20 22  1  0
 20 23  1  0
 23 24  1  0
 23 25  1  0
 25 26  1  0
 26 27  1  0
 27 28  2  0
 28 29  1  0
 29 30  2  0
 30 31  1  0
 31 32  1  0
 32 33  2  0
 33 34  1  0
 34 35  1  0
 35 36  1  0
 36 37  2  0
 36 38  1  0
 38 39  2  0
 39 40  1  0
 40 27  1  0
 32 28  1  0
 40 34  2  0
  1 41  1  0
  1 42  1  0
  2 43  1  0
  3 44  1  1
  4 45  1  0
  9 46  1  1
 10 47  1  0
 11 48  1  0
 12 49  1  0
 12 50  1  0
 13 51  1  0
 13 52  1  0
 14 53  1  0
 14 54  1  0
 15 55  1  0
 15 56  1  0
 16 57  1  0
 16 58  1  0
 17 59  1  0
 17 60  1  0
 18 61  1  0
 18 62  1  0
 18 63  1  0
 21 64  1  0
 21 65  1  0
 21 66  1  0
 22 67  1  0
 22 68  1  0
 22 69  1  0
 23 70  1  6
 24 71  1  0
 25 72  1  0
 25 73  1  0
 29 74  1  0
 30 75  1  0
 33 76  1  0
 38 77  1  0
 39 78  1  0
M  END
>  <Binding energies>  (1) 
[-7.12]

>  <Ligand effiencies>  (1) 
[-0.16952380952380952]

>  <Interactions>  (1) 
["V-A:ILE:369:CG2:3237, V-A:ASP:366:CA:3210, H-A:GLU:543:OE2:4910, H-A:ALA:541:N:4891, V-B:GLU:543:CB:9878, V-A:PRO:540:C:4881, V-B:ALA:541:CB:9864, V-B:TYR:539:CE2:9848, V-A:TYR:484:CE2:4346, V-B:GLU:543:CG:9879, V-A:ASP:366:CG:3213, V-A:LEU:363:CB:3187, V-A:LEU:363:CD1:3189, V-A:LEU:363:CG:3188, V-A:ALA:541:CB:4892, V-A:GLU:543:CD:4908, H-B:TYR:484:OH:9319, V-B:HIS:456:CE1:9041, V-A:SER:385:C:3405, V-A:HIS:456:CE1:4070, V-A:ILE:369:CD1:3239, V-B:TYR:539:CD2:9846, V-A:GLU:543:CG:4907, V-A:SER:385:CB:3409, V-A:ASP:366:CB:3212, V-A:LEU:475:CD2:4259, H-A:ARG:545:NH2:4928, H-A:LEU:363:N:3186, H-A:GLU:543:OE1:4909, V-A:GLU:543:CB:4906, V-A:PRO:540:CB:4885, V-A:PRO:540:CA:4883, V-A:LEU:363:CA:3185, V-A:SER:385:CA:3407"]

$$$$
ZINC2356695498
     RDKit          3D

 86 90  0  0  0  0  0  0  0  0999 V2000
  126.6020  128.7980   58.4710 C   0  0  0  0  0  0  0  0  0  0  0  0
  127.3350  127.8020   59.4020 C   0  0  2  0  0  0  0  0  0  0  0  0
  127.2940  128.2970   60.8640 C   0  0  0  0  0  0  0  0  0  0  0  0
  128.3300  129.3980   61.1280 C   0  0  0  0  0  0  0  0  0  0  0  0
  129.7570  128.8870   60.8180 C   0  0  2  0  0  0  0  0  0  0  0  0
  130.8550  129.6930   61.2600 O   0  0  0  0  0  0  0  0  0  0  0  0
  130.9630  131.1070   61.0520 C   0  0  0  0  0  0  0  0  0  0  0  0
  130.1510  131.8610   62.1380 C   0  0  0  0  0  0  0  0  0  0  0  0
  132.4600  131.3330   61.3760 C   0  0  0  0  0  0  0  0  0  0  0  0
  130.6920  131.6100   59.5910 C   0  0  2  0  0  0  0  0  0  0  0  0
  129.3910  132.1400   59.4060 O   0  0  0  0  0  0  0  0  0  0  0  0
  130.9830  130.5940   58.4630 C   0  0  0  0  0  0  0  0  0  0  0  0
  129.9860  129.4220   58.2990 C   0  0  0  0  0  0  0  0  0  0  0  0
  129.9800  128.2900   59.3790 C   0  0  1  0  0  0  0  0  0  0  0  0
  131.3730  127.5870   59.4080 C   0  0  0  0  0  0  0  0  0  0  0  0
  128.7830  127.2860   59.0470 C   0  0  2  0  0  0  0  0  0  0  0  0
  128.8680  126.6190   57.6460 C   0  0  0  0  0  0  0  0  0  0  0  0
  128.5620  125.1490   57.8620 C   0  0  2  0  0  0  0  0  0  0  0  0
  127.1680  124.9150   57.8060 O   0  0  0  0  0  0  0  0  0  0  0  0
  129.2010  124.9220   59.2510 C   0  0  2  0  0  0  0  0  0  0  0  0
  128.7810  123.6770   60.1340 C   0  0  2  0  0  0  0  0  0  0  0  0
  128.1470  122.6300   59.1630 C   0  0  0  0  0  0  0  0  0  0  0  0
  127.6780  124.0680   61.1580 C   0  0  0  0  0  0  0  0  0  0  0  0
  127.8360  123.1330   62.3440 C   0  0  0  0  0  0  0  0  0  0  0  0
  129.3470  123.0210   62.5050 C   0  0  2  0  0  0  0  0  0  0  0  0
  129.7840  124.1860   63.2170 O   0  0  0  0  0  0  0  0  0  0  0  0
  130.8580  124.0700   64.1640 C   0  0  0  0  0  0  0  0  0  0  0  0
  130.7570  125.3320   65.0480 C   0  0  0  0  0  0  0  0  0  0  0  0
  130.5740  122.8120   65.0230 C   0  0  0  0  0  0  0  0  0  0  0  0
  132.2650  124.0220   63.4840 C   0  0  0  0  0  0  0  0  0  0  0  0
  133.2720  124.4070   64.0810 O   0  0  0  0  0  0  0  0  0  0  0  0
  132.4160  123.4570   62.0600 C   0  0  0  0  0  0  0  0  0  0  0  0
  131.3110  123.8250   61.0370 C   0  0  0  0  0  0  0  0  0  0  0  0
  129.9470  123.0420   61.0590 C   0  0  2  0  0  0  0  0  0  0  0  0
  130.3000  121.5680   60.6820 C   0  0  0  0  0  0  0  0  0  0  0  0
  128.9450  126.1570   59.9250 O   0  0  0  0  0  0  0  0  0  0  0  0
  126.0587  129.5363   59.0790 H   0  0  0  0  0  0  0  0  0  0  0  0
  127.3366  129.3151   57.8362 H   0  0  0  0  0  0  0  0  0  0  0  0
  125.8899  128.2504   57.8362 H   0  0  0  0  0  0  0  0  0  0  0  0
  126.7391  126.8934   59.2303 H   0  0  0  0  0  0  0  0  0  0  0  0
  126.2908  128.6953   61.0760 H   0  0  0  0  0  0  0  0  0  0  0  0
  127.5303  127.4446   61.5178 H   0  0  0  0  0  0  0  0  0  0  0  0
  128.1087  130.2641   60.4870 H   0  0  0  0  0  0  0  0  0  0  0  0
  128.2788  129.6870   62.1881 H   0  0  0  0  0  0  0  0  0  0  0  0
  129.7804  128.0236   61.4991 H   0  0  0  0  0  0  0  0  0  0  0  0
  130.4911  131.5452   63.1353 H   0  0  0  0  0  0  0  0  0  0  0  0
  130.3043  132.9443   62.0243 H   0  0  0  0  0  0  0  0  0  0  0  0
  129.0820  131.6280   62.0243 H   0  0  0  0  0  0  0  0  0  0  0  0
  132.5999  131.3541   62.4669 H   0  0  0  0  0  0  0  0  0  0  0  0
  133.0559  130.5146   60.9457 H   0  0  0  0  0  0  0  0  0  0  0  0
  132.7878  132.2908   60.9457 H   0  0  0  0  0  0  0  0  0  0  0  0
  131.4351  132.4155   59.4963 H   0  0  0  0  0  0  0  0  0  0  0  0
  128.7570  131.5320   59.7930 H   0  0  0  0  0  0  0  0  0  0  0  0
  131.0020  131.1489   57.5134 H   0  0  0  0  0  0  0  0  0  0  0  0
  131.9360  130.1214   58.7430 H   0  0  0  0  0  0  0  0  0  0  0  0
  128.9754  129.8560   58.2779 H   0  0  0  0  0  0  0  0  0  0  0  0
  130.3151  128.9153   57.3798 H   0  0  0  0  0  0  0  0  0  0  0  0
  131.6831  127.4305   60.4517 H   0  0  0  0  0  0  0  0  0  0  0  0
  131.3042  126.6157   58.8964 H   0  0  0  0  0  0  0  0  0  0  0  0
  132.1135  128.2193   58.8964 H   0  0  0  0  0  0  0  0  0  0  0  0
  128.1298  127.0667   56.9644 H   0  0  0  0  0  0  0  0  0  0  0  0
  129.8599  126.7611   57.1923 H   0  0  0  0  0  0  0  0  0  0  0  0
  128.9536  124.4545   57.1042 H   0  0  0  0  0  0  0  0  0  0  0  0
  127.0090  124.1460   57.2530 H   0  0  0  0  0  0  0  0  0  0  0  0
  130.2540  124.6470   59.0908 H   0  0  0  0  0  0  0  0  0  0  0  0
  127.6644  121.8329   59.7476 H   0  0  0  0  0  0  0  0  0  0  0  0
  127.3969  123.1252   58.5289 H   0  0  0  0  0  0  0  0  0  0  0  0
  128.9334  122.1947   58.5289 H   0  0  0  0  0  0  0  0  0  0  0  0
  127.8099  125.1122   61.4777 H   0  0  0  0  0  0  0  0  0  0  0  0
  126.6754  123.9798   60.7141 H   0  0  0  0  0  0  0  0  0  0  0  0
  127.3744  123.5602   63.2465 H   0  0  0  0  0  0  0  0  0  0  0  0
  127.3465  122.1597   62.1923 H   0  0  0  0  0  0  0  0  0  0  0  0
  129.6538  122.1120   63.0431 H   0  0  0  0  0  0  0  0  0  0  0  0
  130.7804  125.0398   66.1082 H   0  0  0  0  0  0  0  0  0  0  0  0
  131.6046  125.9992   64.8328 H   0  0  0  0  0  0  0  0  0  0  0  0
  129.8141  125.8559   64.8328 H   0  0  0  0  0  0  0  0  0  0  0  0
  130.6334  123.0751   66.0894 H   0  0  0  0  0  0  0  0  0  0  0  0
  129.5674  122.4317   64.7947 H   0  0  0  0  0  0  0  0  0  0  0  0
  131.3196  122.0361   64.7947 H   0  0  0  0  0  0  0  0  0  0  0  0
  133.3739  123.8195   61.6588 H   0  0  0  0  0  0  0  0  0  0  0  0
  132.3460  122.3654   62.1764 H   0  0  0  0  0  0  0  0  0  0  0  0
  131.0729  124.8878   61.1909 H   0  0  0  0  0  0  0  0  0  0  0  0
  131.7526  123.5499   60.0678 H   0  0  0  0  0  0  0  0  0  0  0  0
  130.4412  120.9785   61.5999 H   0  0  0  0  0  0  0  0  0  0  0  0
  129.4803  121.1345   60.0903 H   0  0  0  0  0  0  0  0  0  0  0  0
  131.2272  121.5529   60.0903 H   0  0  0  0  0  0  0  0  0  0  0  0
  1  2  1  0
  2  3  1  0
  3  4  1  0
  4  5  1  0
  5  6  1  0
  6  7  1  0
  7  8  1  0
  7  9  1  0
  7 10  1  0
 10 11  1  0
 10 12  1  0
 12 13  1  0
 13 14  1  0
 14 15  1  1
 14 16  1  0
 16 17  1  0
 17 18  1  0
 18 19  1  0
 18 20  1  0
 20 21  1  0
 21 22  1  6
 21 23  1  0
 23 24  1  0
 24 25  1  0
 25 26  1  0
 26 27  1  0
 27 28  1  0
 27 29  1  0
 27 30  1  0
 30 31  2  0
 30 32  1  0
 32 33  1  0
 33 34  1  0
 34 35  1  6
 20 36  1  0
 16  2  1  0
 34 21  1  0
 14  5  1  0
 16 36  1  1
 34 25  1  0
  1 37  1  0
  1 38  1  0
  1 39  1  0
  2 40  1  1
  3 41  1  0
  3 42  1  0
  4 43  1  0
  4 44  1  0
  5 45  1  1
  8 46  1  0
  8 47  1  0
  8 48  1  0
  9 49  1  0
  9 50  1  0
  9 51  1  0
 10 52  1  6
 11 53  1  0
 12 54  1  0
 12 55  1  0
 13 56  1  0
 13 57  1  0
 15 58  1  0
 15 59  1  0
 15 60  1  0
 17 61  1  0
 17 62  1  0
 18 63  1  6
 19 64  1  0
 20 65  1  6
 22 66  1  0
 22 67  1  0
 22 68  1  0
 23 69  1  0
 23 70  1  0
 24 71  1  0
 24 72  1  0
 25 73  1  1
 28 74  1  0
 28 75  1  0
 28 76  1  0
 29 77  1  0
 29 78  1  0
 29 79  1  0
 32 80  1  0
 32 81  1  0
 33 82  1  0
 33 83  1  0
 35 84  1  0
 35 85  1  0
 35 86  1  0
M  END
>  <Binding energies>  (1) 
[-2.94]

>  <Ligand effiencies>  (1) 
[-0.06999999999999999]

>  <Interactions>  (1) 
["V-B:PRO:540:CA:9855, V-A:PRO:540:CB:4885, V-A:PRO:540:CA:4883, V-B:TYR:539:CD2:9846, V-B:GLU:543:CD:9880, V-B:ALA:541:CB:9864, V-B:TYR:539:CE2:9848, V-A:TYR:484:CZ:4347, V-A:ASP:366:CB:3212, V-A:TYR:484:CE2:4346, V-A:LEU:475:CD2:4259, H-A:ARG:545:NH2:4928, V-B:GLU:543:CG:9879, V-B:TYR:539:C:9839, H-A:GLY:454:N:4050, V-A:ASP:366:CG:3213, H-A:TYR:484:OH:4348, V-B:PRO:540:N:9856"]

$$$$
ZINC2356695523
     RDKit          3D

107111  0  0  0  0  0  0  0  0999 V2000
  133.3390  124.4380   59.1570 C   0  0  0  0  0  0  0  0  0  0  0  0
  132.3020  125.0530   59.9200 O   0  0  0  0  0  0  0  0  0  0  0  0
  131.4490  126.0310   59.3060 C   0  0  0  0  0  0  0  0  0  0  0  0
  132.1100  126.5670   58.0160 C   0  0  0  0  0  0  0  0  0  0  0  0
  130.0740  125.3950   58.9680 C   0  0  0  0  0  0  0  0  0  0  0  0
  131.3480  127.1700   60.3200 C   0  0  0  0  0  0  0  0  0  0  0  0
  130.7410  128.3640   60.1650 C   0  0  0  0  0  0  0  0  0  0  0  0
  130.6760  129.4380   61.2390 C   0  0  0  0  0  0  0  0  0  0  0  0
  130.7830  130.8920   60.6830 C   0  0  2  0  0  0  0  0  0  0  0  0
  132.2760  131.3090   60.7620 C   0  0  0  0  0  0  0  0  0  0  0  0
  129.8180  131.9130   61.3950 C   0  0  2  0  0  0  0  0  0  0  0  0
  130.2200  132.2050   62.8670 C   0  0  0  0  0  0  0  0  0  0  0  0
  128.9520  132.1970   63.7130 C   0  0  0  0  0  0  0  0  0  0  0  0
  127.9450  131.2810   62.9770 C   0  0  2  0  0  0  0  0  0  0  0  0
  126.4990  131.6430   63.4400 C   0  0  0  0  0  0  0  0  0  0  0  0
  128.3050  129.7460   63.2330 C   0  0  1  0  0  0  0  0  0  0  0  0
  128.2030  129.2800   64.7130 C   0  0  0  0  0  0  0  0  0  0  0  0
  128.7240  127.8630   64.8750 C   0  0  0  0  0  0  0  0  0  0  0  0
  128.9620  126.9790   63.8760 C   0  0  0  0  0  0  0  0  0  0  0  0
  128.5950  127.3420   62.4070 C   0  0  1  0  0  0  0  0  0  0  0  0
  128.0230  126.1120   61.6460 C   0  0  0  0  0  0  0  0  0  0  0  0
  128.8870  124.8600   61.7710 C   0  0  0  0  0  0  0  0  0  0  0  0
  129.0570  124.5050   63.2540 C   0  0  1  0  0  0  0  0  0  0  0  0
  129.8140  123.2940   63.3430 O   0  0  0  0  0  0  0  0  0  0  0  0
  130.9980  123.2320   62.6030 C   0  0  1  0  0  0  0  0  0  0  0  0
  132.1000  123.1130   63.4690 O   0  0  0  0  0  0  0  0  0  0  0  0
  133.3810  123.0490   62.8290 C   0  0  2  0  0  0  0  0  0  0  0  0
  133.9040  124.4170   62.3070 C   0  0  0  0  0  0  0  0  0  0  0  0
  134.7840  125.0840   63.1900 O   0  0  0  0  0  0  0  0  0  0  0  0
  133.4480  121.8370   61.8630 C   0  0  2  0  0  0  0  0  0  0  0  0
  134.6770  121.7740   61.1600 O   0  0  0  0  0  0  0  0  0  0  0  0
  132.2260  121.7860   60.9200 C   0  0  1  0  0  0  0  0  0  0  0  0
  132.2040  120.5750   60.1820 O   0  0  0  0  0  0  0  0  0  0  0  0
  130.9050  121.9900   61.7010 C   0  0  2  0  0  0  0  0  0  0  0  0
  129.7980  122.0800   60.8200 O   0  0  0  0  0  0  0  0  0  0  0  0
  129.7320  125.6360   64.0950 C   0  0  0  0  0  0  0  0  0  0  0  0
  131.1970  125.8680   63.6430 C   0  0  0  0  0  0  0  0  0  0  0  0
  129.6750  125.1830   65.5830 C   0  0  0  0  0  0  0  0  0  0  0  0
  127.7060  128.6560   62.2630 C   0  0  1  0  0  0  0  0  0  0  0  0
  126.2060  128.3550   62.6380 C   0  0  0  0  0  0  0  0  0  0  0  0
  125.7750  128.8610   63.8900 O   0  0  0  0  0  0  0  0  0  0  0  0
  127.8410  129.1570   60.7850 C   0  0  0  0  0  0  0  0  0  0  0  0
  127.5200  130.6420   60.5530 C   0  0  0  0  0  0  0  0  0  0  0  0
  128.2410  131.6760   61.4760 C   0  0  2  0  0  0  0  0  0  0  0  0
  127.5850  133.0470   61.0950 C   0  0  0  0  0  0  0  0  0  0  0  0
  134.0825  123.9971   59.8373 H   0  0  0  0  0  0  0  0  0  0  0  0
  132.9088  123.6489   58.5227 H   0  0  0  0  0  0  0  0  0  0  0  0
  133.8251  125.1939   58.5227 H   0  0  0  0  0  0  0  0  0  0  0  0
  132.9392  127.2394   58.2810 H   0  0  0  0  0  0  0  0  0  0  0  0
  132.4963  125.7239   57.4244 H   0  0  0  0  0  0  0  0  0  0  0  0
  131.3649  127.1192   57.4244 H   0  0  0  0  0  0  0  0  0  0  0  0
  129.5442  125.1500   59.9004 H   0  0  0  0  0  0  0  0  0  0  0  0
  129.4746  126.1073   58.3821 H   0  0  0  0  0  0  0  0  0  0  0  0
  130.2287  124.4770   58.3821 H   0  0  0  0  0  0  0  0  0  0  0  0
  131.8285  126.9946   61.2938 H   0  0  0  0  0  0  0  0  0  0  0  0
  130.2613  128.5748   59.1978 H   0  0  0  0  0  0  0  0  0  0  0  0
  129.7179  129.3395   61.7704 H   0  0  0  0  0  0  0  0  0  0  0  0
  131.5417  129.2832   61.8997 H   0  0  0  0  0  0  0  0  0  0  0  0
  130.4416  130.9102   59.6375 H   0  0  0  0  0  0  0  0  0  0  0  0
  132.5778  131.3933   61.8164 H   0  0  0  0  0  0  0  0  0  0  0  0
  132.8957  130.5496   60.2628 H   0  0  0  0  0  0  0  0  0  0  0  0
  132.4125  132.2796   60.2628 H   0  0  0  0  0  0  0  0  0  0  0  0
  129.9727  132.7236   60.6677 H   0  0  0  0  0  0  0  0  0  0  0  0
  130.9127  131.4293   63.2255 H   0  0  0  0  0  0  0  0  0  0  0  0
  130.7210  133.1816   62.9394 H   0  0  0  0  0  0  0  0  0  0  0  0
  129.1658  131.7995   64.7161 H   0  0  0  0  0  0  0  0  0  0  0  0
  128.5496  133.2128   63.8402 H   0  0  0  0  0  0  0  0  0  0  0  0
  126.4577  131.6533   64.5392 H   0  0  0  0  0  0  0  0  0  0  0  0
  126.2282  132.6367   63.0536 H   0  0  0  0  0  0  0  0  0  0  0  0
  125.7920  130.8941   63.0536 H   0  0  0  0  0  0  0  0  0  0  0  0
  129.3678  129.7931   62.9533 H   0  0  0  0  0  0  0  0  0  0  0  0
  128.7977  129.9562   65.3447 H   0  0  0  0  0  0  0  0  0  0  0  0
  127.1454  129.3009   65.0147 H   0  0  0  0  0  0  0  0  0  0  0  0
  128.9276  127.5217   65.9007 H   0  0  0  0  0  0  0  0  0  0  0  0
  129.5379  127.6140   61.9100 H   0  0  0  0  0  0  0  0  0  0  0  0
  127.0246  125.8871   62.0492 H   0  0  0  0  0  0  0  0  0  0  0  0
  127.9932  126.3781   60.5791 H   0  0  0  0  0  0  0  0  0  0  0  0
  128.4003  124.0243   61.2469 H   0  0  0  0  0  0  0  0  0  0  0  0
  129.8736  125.0478   61.3224 H   0  0  0  0  0  0  0  0  0  0  0  0
  128.0536  124.3766   63.6862 H   0  0  0  0  0  0  0  0  0  0  0  0
  131.1315  124.1438   62.0023 H   0  0  0  0  0  0  0  0  0  0  0  0
  134.1457  122.8360   63.5905 H   0  0  0  0  0  0  0  0  0  0  0  0
  134.4348  124.2429   61.3594 H   0  0  0  0  0  0  0  0  0  0  0  0
  133.0231  125.0660   62.1938 H   0  0  0  0  0  0  0  0  0  0  0  0
  135.1490  125.8480   62.7370 H   0  0  0  0  0  0  0  0  0  0  0  0
  133.4059  120.9313   62.4858 H   0  0  0  0  0  0  0  0  0  0  0  0
  135.3410  121.4050   61.7470 H   0  0  0  0  0  0  0  0  0  0  0  0
  132.3194  122.6157   60.2038 H   0  0  0  0  0  0  0  0  0  0  0  0
  133.1080  120.2690   60.0770 H   0  0  0  0  0  0  0  0  0  0  0  0
  130.7469  121.1106   62.3426 H   0  0  0  0  0  0  0  0  0  0  0  0
  129.0970  122.5670   61.2600 H   0  0  0  0  0  0  0  0  0  0  0  0
  131.8420  125.9701   64.5282 H   0  0  0  0  0  0  0  0  0  0  0  0
  131.5346  125.0121   63.0401 H   0  0  0  0  0  0  0  0  0  0  0  0
  131.2537  126.7863   63.0401 H   0  0  0  0  0  0  0  0  0  0  0  0
  129.7854  126.0600   66.2378 H   0  0  0  0  0  0  0  0  0  0  0  0
  128.7086  124.6966   65.7814 H   0  0  0  0  0  0  0  0  0  0  0  0
  130.4908  124.4723   65.7814 H   0  0  0  0  0  0  0  0  0  0  0  0
  125.5672  128.7939   61.8574 H   0  0  0  0  0  0  0  0  0  0  0  0
  126.1280  127.2603   62.7125 H   0  0  0  0  0  0  0  0  0  0  0  0
  125.8030  128.1490   64.5320 H   0  0  0  0  0  0  0  0  0  0  0  0
  128.8775  128.9807   60.4617 H   0  0  0  0  0  0  0  0  0  0  0  0
  127.0921  128.5946   60.2081 H   0  0  0  0  0  0  0  0  0  0  0  0
  127.7887  130.8811   59.5135 H   0  0  0  0  0  0  0  0  0  0  0  0
  126.4508  130.7437   60.7906 H   0  0  0  0  0  0  0  0  0  0  0  0
  127.3226  133.5953   62.0118 H   0  0  0  0  0  0  0  0  0  0  0  0
  128.2961  133.6417   60.5029 H   0  0  0  0  0  0  0  0  0  0  0  0
  126.6757  132.8664   60.5029 H   0  0  0  0  0  0  0  0  0  0  0  0
  1  2  1  0
  2  3  1  0
  3  4  1  0
  3  5  1  0
  3  6  1  0
  6  7  2  0
  7  8  1  0
  8  9  1  0
  9 10  1  0
  9 11  1  0
 11 12  1  0
 12 13  1  0
 13 14  1  0
 14 15  1  1
 14 16  1  0
 16 17  1  0
 17 18  1  0
 18 19  2  0
 19 20  1  0
 20 21  1  0
 21 22  1  0
 22 23  1  0
 23 24  1  0
 24 25  1  0
 25 26  1  0
 26 27  1  0
 27 28  1  0
 28 29  1  0
 27 30  1  0
 30 31  1  0
 30 32  1  0
 32 33  1  0
 32 34  1  0
 34 35  1  0
 23 36  1  0
 36 37  1  0
 36 38  1  0
 20 39  1  0
 39 40  1  1
 40 41  1  0
 39 42  1  0
 42 43  1  0
 43 44  1  0
 44 45  1  6
 44 11  1  0
 44 14  1  0
 39 16  1  0
 36 19  1  0
 34 25  1  0
  1 46  1  0
  1 47  1  0
  1 48  1  0
  4 49  1  0
  4 50  1  0
  4 51  1  0
  5 52  1  0
  5 53  1  0
  5 54  1  0
  6 55  1  0
  7 56  1  0
  8 57  1  0
  8 58  1  0
  9 59  1  6
 10 60  1  0
 10 61  1  0
 10 62  1  0
 11 63  1  6
 12 64  1  0
 12 65  1  0
 13 66  1  0
 13 67  1  0
 15 68  1  0
 15 69  1  0
 15 70  1  0
 16 71  1  6
 17 72  1  0
 17 73  1  0
 18 74  1  0
 20 75  1  6
 21 76  1  0
 21 77  1  0
 22 78  1  0
 22 79  1  0
 23 80  1  1
 25 81  1  6
 27 82  1  1
 28 83  1  0
 28 84  1  0
 29 85  1  0
 30 86  1  1
 31 87  1  0
 32 88  1  6
 33 89  1  0
 34 90  1  1
 35 91  1  0
 37 92  1  0
 37 93  1  0
 37 94  1  0
 38 95  1  0
 38 96  1  0
 38 97  1  0
 40 98  1  0
 40 99  1  0
 41100  1  0
 42101  1  0
 42102  1  0
 43103  1  0
 43104  1  0
 45105  1  0
 45106  1  0
 45107  1  0
M  END
>  <Binding energies>  (1) 
[-8.25]

>  <Ligand effiencies>  (1) 
[-0.165]

>  <Interactions>  (1) 
["V-A:ILE:369:CG2:3237, V-A:ASP:366:CA:3210, V-A:GLY:454:CA:4049, V-B:GLU:543:CB:9878, H-A:ARG:545:NH1:4927, V-B:TYR:539:CE2:9848, V-B:GLU:543:CG:9879, V-A:ASP:366:CG:3213, H-B:GLU:543:OE1:9881, V-A:ALA:541:CB:4892, H-B:ARG:545:NE:9896, V-A:GLU:543:CD:4908, H-A:GLY:454:N:4050, V-A:ALA:541:CA:4890, V-B:TYR:539:CD2:9846, V-A:GLU:543:CG:4907, V-A:TYR:531:CZ:4794, H-A:SER:385:OG:3410, V-B:GLU:543:CD:9880, V-B:ARG:545:CZ:9898, V-A:ASP:366:CB:3212, V-A:LEU:475:CD2:4259, H-A:ARG:545:NH2:4928, H-B:ARG:545:NH2:9900, H-A:ASP:366:OD1:3214, H-B:GLU:543:OE2:9882, V-A:PRO:540:CA:4883, V-A:PRO:540:CB:4885, H-A:SER:385:O:3406, H-A:TYR:484:OH:4348"]

$$$$
ZINC2356698935
     RDKit          3D

 93 97  0  0  0  0  0  0  0  0999 V2000
  127.2090  131.9750   57.7550 C   0  0  0  0  0  0  0  0  0  0  0  0
  127.8910  130.9600   58.6630 C   0  0  0  0  0  0  0  0  0  0  0  0
  127.6170  129.6450   58.5480 C   0  0  0  0  0  0  0  0  0  0  0  0
  128.1730  128.5200   59.4180 C   0  0  1  0  0  0  0  0  0  0  0  0
  129.0080  127.5810   58.5220 C   0  0  0  0  0  0  0  0  0  0  0  0
  129.9720  127.9750   57.8600 O   0  0  0  0  0  0  0  0  0  0  0  0
  128.5340  126.3190   58.5540 O   0  0  0  0  0  0  0  0  0  0  0  0
  129.1900  125.2350   57.8980 C   0  0  1  0  0  0  0  0  0  0  0  0
  130.7230  125.3560   57.9040 C   0  0  0  0  0  0  0  0  0  0  0  0
  131.3200  125.0650   59.2940 C   0  0  2  0  0  0  0  0  0  0  0  0
  132.8550  124.9750   59.2530 C   0  0  0  0  0  0  0  0  0  0  0  0
  133.4010  123.6980   59.8780 C   0  0  0  0  0  0  0  0  0  0  0  0
  133.9130  123.5310   61.1170 C   0  0  0  0  0  0  0  0  0  0  0  0
  134.4460  122.1740   61.5540 C   0  0  0  0  0  0  0  0  0  0  0  0
  134.1120  124.6620   62.1260 C   0  0  0  0  0  0  0  0  0  0  0  0
  132.9920  124.8610   63.1780 C   0  0  2  0  0  0  0  0  0  0  0  0
  132.7880  123.6170   64.0710 C   0  0  0  0  0  0  0  0  0  0  0  0
  131.7110  125.4800   62.6120 C   0  0  0  0  0  0  0  0  0  0  0  0
  131.2350  126.7150   62.8690 C   0  0  0  0  0  0  0  0  0  0  0  0
  130.0740  127.3410   62.2520 C   0  0  0  0  0  0  0  0  0  0  0  0
  130.0820  128.2640   61.2640 C   0  0  0  0  0  0  0  0  0  0  0  0
  131.2710  128.8610   60.5200 C   0  0  0  0  0  0  0  0  0  0  0  0
  130.8010  130.0380   59.8760 O   0  0  0  0  0  0  0  0  0  0  0  0
  129.6040  130.4250   60.5250 C   0  0  1  0  0  0  0  0  0  0  0  0
  128.8040  131.5130   59.7590 C   0  0  1  0  0  0  0  0  0  0  0  0
  129.6900  132.5040   59.2660 O   0  0  0  0  0  0  0  0  0  0  0  0
  128.9040  129.0660   60.7120 C   0  0  1  0  0  0  0  0  0  0  0  0
  127.8520  129.1870   61.6590 O   0  0  0  0  0  0  0  0  0  0  0  0
  130.7920  123.8540   59.8550 O   0  0  0  0  0  0  0  0  0  0  0  0
  129.3880  123.7400   59.9850 C   0  0  1  0  0  0  0  0  0  0  0  0
  128.7620  123.9220   58.5810 C   0  0  0  0  0  0  0  0  0  0  0  0
  129.0920  122.4030   60.3400 O   0  0  0  0  0  0  0  0  0  0  0  0
  129.6890  121.9440   61.5640 C   0  0  2  0  0  0  0  0  0  0  0  0
  129.4310  120.4510   61.6920 C   0  0  0  0  0  0  0  0  0  0  0  0
  130.2690  119.4900   61.2640 C   0  0  0  0  0  0  0  0  0  0  0  0
  130.0130  117.9970   61.3810 C   0  0  0  0  0  0  0  0  0  0  0  0
  130.9560  117.3340   62.3990 C   0  0  0  0  0  0  0  0  0  0  0  0
  130.0840  117.2970   60.0130 C   0  0  0  0  0  0  0  0  0  0  0  0
  129.1450  122.7450   62.7750 C   0  0  2  0  0  0  0  0  0  0  0  0
  127.6700  122.4340   63.1260 C   0  0  0  0  0  0  0  0  0  0  0  0
  129.3870  124.2420   62.4940 C   0  0  0  0  0  0  0  0  0  0  0  0
  128.8600  124.6870   61.1120 C   0  0  2  0  0  0  0  0  0  0  0  0
  127.4490  124.8240   61.1130 O   0  0  0  0  0  0  0  0  0  0  0  0
  126.7000  132.7325   58.3691 H   0  0  0  0  0  0  0  0  0  0  0  0
  127.9627  132.4637   57.1201 H   0  0  0  0  0  0  0  0  0  0  0  0
  126.4717  131.4618   57.1201 H   0  0  0  0  0  0  0  0  0  0  0  0
  126.9227  129.3529   57.7464 H   0  0  0  0  0  0  0  0  0  0  0  0
  127.3578  127.9160   59.8431 H   0  0  0  0  0  0  0  0  0  0  0  0
  128.8876  125.2511   56.8405 H   0  0  0  0  0  0  0  0  0  0  0  0
  131.1386  124.6380   57.1817 H   0  0  0  0  0  0  0  0  0  0  0  0
  130.9830  126.3897   57.6324 H   0  0  0  0  0  0  0  0  0  0  0  0
  131.0319  125.9125   59.9333 H   0  0  0  0  0  0  0  0  0  0  0  0
  133.1791  125.0158   58.2026 H   0  0  0  0  0  0  0  0  0  0  0  0
  133.2464  125.8183   59.8409 H   0  0  0  0  0  0  0  0  0  0  0  0
  133.3753  122.8008   59.2421 H   0  0  0  0  0  0  0  0  0  0  0  0
  134.4655  122.1242   62.6527 H   0  0  0  0  0  0  0  0  0  0  0  0
  133.7929  121.3802   61.1626 H   0  0  0  0  0  0  0  0  0  0  0  0
  135.4648  122.0369   61.1626 H   0  0  0  0  0  0  0  0  0  0  0  0
  135.0478  124.4635   62.6690 H   0  0  0  0  0  0  0  0  0  0  0  0
  134.1146  125.5855   61.5283 H   0  0  0  0  0  0  0  0  0  0  0  0
  133.3526  125.6377   63.8684 H   0  0  0  0  0  0  0  0  0  0  0  0
  132.8366  123.9133   65.1292 H   0  0  0  0  0  0  0  0  0  0  0  0
  131.8048  123.1713   63.8598 H   0  0  0  0  0  0  0  0  0  0  0  0
  133.5774  122.8806   63.8598 H   0  0  0  0  0  0  0  0  0  0  0  0
  131.1198  124.8544   61.9271 H   0  0  0  0  0  0  0  0  0  0  0  0
  131.7776  127.3087   63.6194 H   0  0  0  0  0  0  0  0  0  0  0  0
  129.0882  127.0308   62.6288 H   0  0  0  0  0  0  0  0  0  0  0  0
  132.0744  129.1115   61.2283 H   0  0  0  0  0  0  0  0  0  0  0  0
  131.6798  128.1470   59.7899 H   0  0  0  0  0  0  0  0  0  0  0  0
  129.7470  130.9491   61.4815 H   0  0  0  0  0  0  0  0  0  0  0  0
  128.1151  131.9735   60.4825 H   0  0  0  0  0  0  0  0  0  0  0  0
  130.5710  132.1260   59.2180 H   0  0  0  0  0  0  0  0  0  0  0  0
  128.2360  129.2100   62.5380 H   0  0  0  0  0  0  0  0  0  0  0  0
  129.0728  123.0790   57.9464 H   0  0  0  0  0  0  0  0  0  0  0  0
  127.6701  123.9579   58.7091 H   0  0  0  0  0  0  0  0  0  0  0  0
  130.7758  122.1134   61.5483 H   0  0  0  0  0  0  0  0  0  0  0  0
  128.4917  120.1342   62.1688 H   0  0  0  0  0  0  0  0  0  0  0  0
  131.2108  119.8091   60.7937 H   0  0  0  0  0  0  0  0  0  0  0  0
  128.9867  117.8773   61.7583 H   0  0  0  0  0  0  0  0  0  0  0  0
  130.6192  117.5708   63.4191 H   0  0  0  0  0  0  0  0  0  0  0  0
  130.9451  116.2438   62.2530 H   0  0  0  0  0  0  0  0  0  0  0  0
  131.9782  117.7132   62.2530 H   0  0  0  0  0  0  0  0  0  0  0  0
  130.1940  116.2126   60.1613 H   0  0  0  0  0  0  0  0  0  0  0  0
  129.1608  117.4983   59.4498 H   0  0  0  0  0  0  0  0  0  0  0  0
  130.9480  117.6796   59.4498 H   0  0  0  0  0  0  0  0  0  0  0  0
  129.6910  122.4346   63.6781 H   0  0  0  0  0  0  0  0  0  0  0  0
  127.5507  122.4088   64.2192 H   0  0  0  0  0  0  0  0  0  0  0  0
  127.0202  123.2149   62.7041 H   0  0  0  0  0  0  0  0  0  0  0  0
  127.3908  121.4572   62.7041 H   0  0  0  0  0  0  0  0  0  0  0  0
  128.8776  124.8317   63.2704 H   0  0  0  0  0  0  0  0  0  0  0  0
  130.4744  124.4077   62.5016 H   0  0  0  0  0  0  0  0  0  0  0  0
  129.2578  125.6887   60.8923 H   0  0  0  0  0  0  0  0  0  0  0  0
  127.1480  124.8620   62.0240 H   0  0  0  0  0  0  0  0  0  0  0  0
  1  2  1  0
  2  3  2  0
  3  4  1  0
  4  5  1  0
  5  6  2  0
  5  7  1  0
  7  8  1  0
  8  9  1  0
  9 10  1  0
 10 11  1  0
 11 12  1  0
 12 13  2  0
 13 14  1  0
 13 15  1  0
 15 16  1  0
 16 17  1  0
 16 18  1  0
 18 19  2  0
 19 20  1  0
 20 21  2  0
 21 22  1  0
 22 23  1  0
 23 24  1  0
 24 25  1  0
 25 26  1  0
 24 27  1  0
 27 28  1  1
 10 29  1  0
 30 29  1  6
 30 31  1  0
 30 32  1  0
 32 33  1  0
 33 34  1  0
 34 35  2  0
 35 36  1  0
 36 37  1  0
 36 38  1  0
 33 39  1  0
 39 40  1  0
 39 41  1  0
 41 42  1  0
 42 43  1  0
 25  2  1  0
 42 30  1  0
 27  4  1  0
 31  8  1  0
 27 21  1  0
  1 44  1  0
  1 45  1  0
  1 46  1  0
  3 47  1  0
  4 48  1  1
  8 49  1  6
  9 50  1  0
  9 51  1  0
 10 52  1  1
 11 53  1  0
 11 54  1  0
 12 55  1  0
 14 56  1  0
 14 57  1  0
 14 58  1  0
 15 59  1  0
 15 60  1  0
 16 61  1  1
 17 62  1  0
 17 63  1  0
 17 64  1  0
 18 65  1  0
 19 66  1  0
 20 67  1  0
 22 68  1  0
 22 69  1  0
 24 70  1  1
 25 71  1  1
 26 72  1  0
 28 73  1  0
 31 74  1  0
 31 75  1  0
 33 76  1  6
 34 77  1  0
 35 78  1  0
 36 79  1  0
 37 80  1  0
 37 81  1  0
 37 82  1  0
 38 83  1  0
 38 84  1  0
 38 85  1  0
 39 86  1  1
 40 87  1  0
 40 88  1  0
 40 89  1  0
 41 90  1  0
 41 91  1  0
 42 92  1  6
 43 93  1  0
M  END
>  <Binding energies>  (1) 
[-5.31]

>  <Ligand effiencies>  (1) 
[-0.11062499999999999]

>  <Interactions>  (1) 
["V-A:ILE:369:CG2:3237, V-A:ASP:366:CA:3210, V-B:TYR:539:CA:9841, V-A:GLY:454:CA:4049, V-B:ALA:541:CB:9864, H-A:TYR:531:OH:4795, V-B:TYR:539:CE2:9848, V-A:LEU:475:CG:4257, V-B:GLU:543:CG:9879, V-B:TYR:539:C:9839, V-A:TYR:539:CE1:4875, V-A:ASP:366:CG:3213, V-A:TYR:539:CD1:4873, V-B:TYR:539:CZ:9849, H-B:GLU:543:OE1:9881, V-A:TYR:539:CZ:4877, V-B:VAL:344:CG1:7972, V-A:LEU:475:CD1:4258, V-A:HIS:383:CE1:3393, V-B:TYR:539:CB:9843, V-A:GLU:543:CD:4908, V-A:SER:385:C:3405, V-A:ILE:369:CD1:3239, V-B:ALA:541:C:9860, V-A:PRO:482:CB:4326, V-B:TYR:539:CD2:9846, V-A:SER:385:CB:3409, V-B:GLU:543:CD:9880, V-A:ILE:369:CG1:3238, V-A:ASP:366:CB:3212, V-A:LEU:475:CD2:4259, V-A:ARG:545:CZ:4926, H-A:GLU:543:OE1:4909, V-B:PRO:540:C:9853, V-B:ALA:541:CA:9862, V-A:HIS:383:NE2:3394"]

$$$$
ZINC2356698979
     RDKit          3D

 82 86  0  0  0  0  0  0  0  0999 V2000
  133.6780  123.9660   62.9930 C   0  0  0  0  0  0  0  0  0  0  0  0
  133.0570  125.2120   62.3380 C   0  0  0  0  0  0  0  0  0  0  0  0
  132.4400  124.9210   60.9440 C   0  0  2  0  0  0  0  0  0  0  0  0
  131.0440  124.5610   61.0020 O   0  0  0  0  0  0  0  0  0  0  0  0
  130.6770  123.2290   61.3610 C   0  0  2  0  0  0  0  0  0  0  0  0
  131.4850  122.2010   60.5390 C   0  0  0  0  0  0  0  0  0  0  0  0
  132.9870  122.5110   60.5640 C   0  0  0  0  0  0  0  0  0  0  0  0
  133.2040  123.9280   60.0340 C   0  0  2  0  0  0  0  0  0  0  0  0
  134.6850  124.2810   59.8000 C   0  0  0  0  0  0  0  0  0  0  0  0
  129.1580  123.0880   61.0860 C   0  0  0  0  0  0  0  0  0  0  0  0
  128.2980  123.8870   62.0840 C   0  0  1  0  0  0  0  0  0  0  0  0
  128.6940  123.4680   63.5040 C   0  0  0  0  0  0  0  0  0  0  0  0
  130.2050  123.6950   63.6960 C   0  0  1  0  0  0  0  0  0  0  0  0
  130.6910  123.3420   65.1170 C   0  0  0  0  0  0  0  0  0  0  0  0
  129.9710  124.0330   66.2730 C   0  0  0  0  0  0  0  0  0  0  0  0
  130.0470  125.3370   66.6040 C   0  0  0  0  0  0  0  0  0  0  0  0
  129.3210  125.9800   67.7730 C   0  0  0  0  0  0  0  0  0  0  0  0
  129.3640  127.5300   67.8380 C   0  0  2  0  0  0  0  0  0  0  0  0
  129.2650  128.0770   69.2750 C   0  0  0  0  0  0  0  0  0  0  0  0
  128.4590  128.2910   66.8700 C   0  0  0  0  0  0  0  0  0  0  0  0
  128.4950  128.2980   65.5240 C   0  0  0  0  0  0  0  0  0  0  0  0
  127.6340  129.1690   64.7420 C   0  0  0  0  0  0  0  0  0  0  0  0
  127.5230  129.2780   63.3990 C   0  0  0  0  0  0  0  0  0  0  0  0
  126.7520  130.3820   62.6850 C   0  0  0  0  0  0  0  0  0  0  0  0
  127.5390  130.7290   61.5460 O   0  0  0  0  0  0  0  0  0  0  0  0
  128.6310  129.8210   61.4810 C   0  0  2  0  0  0  0  0  0  0  0  0
  129.1920  129.5980   60.0530 C   0  0  2  0  0  0  0  0  0  0  0  0
  128.1650  129.4420   59.0910 O   0  0  0  0  0  0  0  0  0  0  0  0
  130.1250  128.3810   60.0390 C   0  0  0  0  0  0  0  0  0  0  0  0
  131.0180  128.2260   58.8180 C   0  0  0  0  0  0  0  0  0  0  0  0
  130.1810  127.4960   61.0640 C   0  0  0  0  0  0  0  0  0  0  0  0
  129.3330  127.5420   62.3530 C   0  0  2  0  0  0  0  0  0  0  0  0
  128.9140  126.1270   62.8600 C   0  0  0  0  0  0  0  0  0  0  0  0
  128.9460  125.8330   64.0570 O   0  0  0  0  0  0  0  0  0  0  0  0
  128.4990  125.2880   61.8770 O   0  0  0  0  0  0  0  0  0  0  0  0
  128.1340  128.5530   62.1940 C   0  0  1  0  0  0  0  0  0  0  0  0
  127.1400  127.8900   61.4060 O   0  0  0  0  0  0  0  0  0  0  0  0
  130.9410  122.9430   62.7230 O   0  0  0  0  0  0  0  0  0  0  0  0
  133.6291  124.0642   64.0875 H   0  0  0  0  0  0  0  0  0  0  0  0
  133.1206  123.0708   62.6799 H   0  0  0  0  0  0  0  0  0  0  0  0
  134.7283  123.8721   62.6799 H   0  0  0  0  0  0  0  0  0  0  0  0
  132.2658  125.5973   62.9979 H   0  0  0  0  0  0  0  0  0  0  0  0
  133.8646  125.9447   62.1937 H   0  0  0  0  0  0  0  0  0  0  0  0
  132.5467  125.9007   60.4554 H   0  0  0  0  0  0  0  0  0  0  0  0
  131.3206  121.1985   60.9609 H   0  0  0  0  0  0  0  0  0  0  0  0
  131.1416  122.2499   59.4951 H   0  0  0  0  0  0  0  0  0  0  0  0
  133.3624  122.4401   61.5955 H   0  0  0  0  0  0  0  0  0  0  0  0
  133.5291  121.7889   59.9358 H   0  0  0  0  0  0  0  0  0  0  0  0
  132.7818  124.0014   59.0209 H   0  0  0  0  0  0  0  0  0  0  0  0
  135.1908  124.4016   60.7694 H   0  0  0  0  0  0  0  0  0  0  0  0
  135.1692  123.4731   59.2318 H   0  0  0  0  0  0  0  0  0  0  0  0
  134.7527  125.2204   59.2318 H   0  0  0  0  0  0  0  0  0  0  0  0
  128.9487  123.4530   60.0697 H   0  0  0  0  0  0  0  0  0  0  0  0
  128.8967  122.0253   61.1976 H   0  0  0  0  0  0  0  0  0  0  0  0
  127.2286  123.6775   61.9341 H   0  0  0  0  0  0  0  0  0  0  0  0
  128.1355  124.0713   64.2349 H   0  0  0  0  0  0  0  0  0  0  0  0
  128.4579  122.4043   63.6549 H   0  0  0  0  0  0  0  0  0  0  0  0
  130.3872  124.7707   63.5557 H   0  0  0  0  0  0  0  0  0  0  0  0
  130.5734  122.2565   65.2507 H   0  0  0  0  0  0  0  0  0  0  0  0
  131.7308  123.6976   65.1665 H   0  0  0  0  0  0  0  0  0  0  0  0
  129.3241  123.4015   66.8997 H   0  0  0  0  0  0  0  0  0  0  0  0
  130.6822  125.9841   65.9812 H   0  0  0  0  0  0  0  0  0  0  0  0
  128.2653  125.6755   67.7208 H   0  0  0  0  0  0  0  0  0  0  0  0
  129.8486  125.6330   68.6737 H   0  0  0  0  0  0  0  0  0  0  0  0
  130.3737  127.7451   67.4583 H   0  0  0  0  0  0  0  0  0  0  0  0
  129.4137  127.2554   69.9911 H   0  0  0  0  0  0  0  0  0  0  0  0
  130.0391  128.8430   69.4299 H   0  0  0  0  0  0  0  0  0  0  0  0
  128.2715  128.5231   69.4299 H   0  0  0  0  0  0  0  0  0  0  0  0
  127.6780  128.9128   67.3320 H   0  0  0  0  0  0  0  0  0  0  0  0
  129.1941  127.6272   65.0031 H   0  0  0  0  0  0  0  0  0  0  0  0
  126.9799  129.8338   65.3253 H   0  0  0  0  0  0  0  0  0  0  0  0
  125.7628  130.0174   62.3709 H   0  0  0  0  0  0  0  0  0  0  0  0
  126.5835  131.2487   63.3410 H   0  0  0  0  0  0  0  0  0  0  0  0
  129.5224  130.2242   61.9838 H   0  0  0  0  0  0  0  0  0  0  0  0
  129.7597  130.4990   59.7774 H   0  0  0  0  0  0  0  0  0  0  0  0
  127.3620  129.1740   59.5440 H   0  0  0  0  0  0  0  0  0  0  0  0
  132.0538  128.0462   59.1417 H   0  0  0  0  0  0  0  0  0  0  0  0
  130.6695  127.3749   58.2145 H   0  0  0  0  0  0  0  0  0  0  0  0
  130.9767  129.1447   58.2145 H   0  0  0  0  0  0  0  0  0  0  0  0
  130.8980  126.6673   60.9684 H   0  0  0  0  0  0  0  0  0  0  0  0
  129.9680  127.9328   63.1617 H   0  0  0  0  0  0  0  0  0  0  0  0
  127.2280  126.9440   61.5470 H   0  0  0  0  0  0  0  0  0  0  0  0
  1  2  1  0
  2  3  1  0
  3  4  1  0
  5  4  1  6
  5  6  1  0
  6  7  1  0
  7  8  1  0
  8  9  1  0
  5 10  1  0
 10 11  1  0
 11 12  1  0
 12 13  1  0
 13 14  1  0
 14 15  1  0
 15 16  2  0
 16 17  1  0
 17 18  1  0
 18 19  1  0
 18 20  1  0
 20 21  2  0
 21 22  1  0
 22 23  2  0
 23 24  1  0
 24 25  1  0
 25 26  1  0
 26 27  1  0
 27 28  1  0
 27 29  1  0
 29 30  1  0
 29 31  2  0
 31 32  1  0
 32 33  1  0
 33 34  2  0
 33 35  1  0
 32 36  1  0
 36 37  1  6
 13 38  1  0
  8  3  1  0
 35 11  1  0
 38  5  1  0
 36 23  1  0
 36 26  1  0
  1 39  1  0
  1 40  1  0
  1 41  1  0
  2 42  1  0
  2 43  1  0
  3 44  1  6
  6 45  1  0
  6 46  1  0
  7 47  1  0
  7 48  1  0
  8 49  1  6
  9 50  1  0
  9 51  1  0
  9 52  1  0
 10 53  1  0
 10 54  1  0
 11 55  1  6
 12 56  1  0
 12 57  1  0
 13 58  1  6
 14 59  1  0
 14 60  1  0
 15 61  1  0
 16 62  1  0
 17 63  1  0
 17 64  1  0
 18 65  1  6
 19 66  1  0
 19 67  1  0
 19 68  1  0
 20 69  1  0
 21 70  1  0
 22 71  1  0
 24 72  1  0
 24 73  1  0
 26 74  1  1
 27 75  1  6
 28 76  1  0
 30 77  1  0
 30 78  1  0
 30 79  1  0
 31 80  1  0
 32 81  1  1
 37 82  1  0
M  END
>  <Binding energies>  (1) 
[-5.18]

>  <Ligand effiencies>  (1) 
[-0.12333333333333332]

>  <Interactions>  (1) 
["V-A:ILE:369:CG2:3237, V-A:ASP:366:CA:3210, V-A:GLY:454:CA:4049, V-A:ILE:369:CB:3236, V-B:GLU:543:CB:9878, V-B:ALA:541:CB:9864, V-B:TYR:539:CE2:9848, V-A:TYR:484:CE2:4346, V-B:GLU:543:CG:9879, V-A:ASP:366:CG:3213, H-B:GLU:543:OE1:9881, V-A:TYR:484:CZ:4347, V-A:GLU:543:CD:4908, V-B:GLU:543:CA:9876, V-B:HIS:456:CE1:9041, V-A:ILE:369:CD1:3239, V-A:HIS:456:CE1:4070, V-A:ASP:366:C:3208, V-B:TYR:539:CD2:9846, V-A:GLU:543:CG:4907, V-B:GLU:543:CD:9880, V-A:ILE:369:CG1:3238, V-A:ASP:366:CB:3212, V-A:ARG:545:CZ:4926, V-A:GLU:543:CB:4906"]

$$$$
ZINC2356702840
     RDKit          3D

 87 88  0  0  0  0  0  0  0  0999 V2000
  133.2430  130.4110   57.5500 C   0  0  0  0  0  0  0  0  0  0  0  0
  132.7210  131.4640   58.5410 C   0  0  0  0  0  0  0  0  0  0  0  0
  131.1770  131.6780   58.5870 C   0  0  2  0  0  0  0  0  0  0  0  0
  130.9240  132.9460   57.9720 O   0  0  0  0  0  0  0  0  0  0  0  0
  130.4590  132.9500   56.6510 C   0  0  0  0  0  0  0  0  0  0  0  0
  129.2080  133.5400   56.5020 O   0  0  0  0  0  0  0  0  0  0  0  0
  128.1290  132.6180   56.4270 C   0  0  0  0  0  0  0  0  0  0  0  0
  130.5270  131.7050   60.0210 C   0  0  2  0  0  0  0  0  0  0  0  0
  129.2030  132.5020   60.0660 C   0  0  0  0  0  0  0  0  0  0  0  0
  131.4110  132.3950   60.8890 O   0  0  0  0  0  0  0  0  0  0  0  0
  132.1650  131.5190   61.6680 C   0  0  0  0  0  0  0  0  0  0  0  0
  133.6200  131.5260   61.2200 C   0  0  0  0  0  0  0  0  0  0  0  0
  131.9850  131.9120   63.1290 C   0  0  0  0  0  0  0  0  0  0  0  0
  131.6320  130.2510   61.4820 O   0  0  0  0  0  0  0  0  0  0  0  0
  130.3980  130.3610   60.8020 C   0  0  2  0  0  0  0  0  0  0  0  0
  130.0040  129.0430   60.0430 C   0  0  2  0  0  0  0  0  0  0  0  0
  128.9120  128.2940   60.8440 C   0  0  0  0  0  0  0  0  0  0  0  0
  131.2180  128.1220   59.6690 C   0  0  2  0  0  0  0  0  0  0  0  0
  131.1330  127.8230   58.2710 O   0  0  0  0  0  0  0  0  0  0  0  0
  130.0930  128.2120   57.5000 C   0  0  0  0  0  0  0  0  0  0  0  0
  129.1870  127.0450   57.1320 C   0  0  0  0  0  0  0  0  0  0  0  0
  129.8550  129.3570   57.1150 O   0  0  0  0  0  0  0  0  0  0  0  0
  131.3510  126.7900   60.4870 C   0  0  2  0  0  0  0  0  0  0  0  0
  130.3300  125.7290   60.0220 C   0  0  0  0  0  0  0  0  0  0  0  0
  131.3140  127.0270   62.0280 C   0  0  0  0  0  0  0  0  0  0  0  0
  130.7970  125.8770   62.9450 C   0  0  2  0  0  0  0  0  0  0  0  0
  129.2560  125.7310   62.8540 C   0  0  0  0  0  0  0  0  0  0  0  0
  131.1150  126.2120   64.2860 O   0  0  0  0  0  0  0  0  0  0  0  0
  131.5190  125.1020   65.0220 C   0  0  0  0  0  0  0  0  0  0  0  0
  132.7630  125.4820   65.8120 C   0  0  0  0  0  0  0  0  0  0  0  0
  130.3770  124.6230   65.9150 C   0  0  0  0  0  0  0  0  0  0  0  0
  131.8360  124.1030   64.1100 O   0  0  0  0  0  0  0  0  0  0  0  0
  131.5170  124.5040   62.7850 C   0  0  2  0  0  0  0  0  0  0  0  0
  132.7830  124.3580   61.8790 C   0  0  2  0  0  0  0  0  0  0  0  0
  132.6420  123.1920   60.8810 C   0  0  0  0  0  0  0  0  0  0  0  0
  134.1050  124.2070   62.6460 C   0  0  0  0  0  0  0  0  0  0  0  0
  134.4460  125.0240   63.4990 O   0  0  0  0  0  0  0  0  0  0  0  0
  133.6644  129.5609   58.1065 H   0  0  0  0  0  0  0  0  0  0  0  0
  132.4143  130.0604   56.9172 H   0  0  0  0  0  0  0  0  0  0  0  0
  134.0237  130.8582   56.9172 H   0  0  0  0  0  0  0  0  0  0  0  0
  133.0460  131.1639   59.5481 H   0  0  0  0  0  0  0  0  0  0  0  0
  133.1351  132.4210   58.1906 H   0  0  0  0  0  0  0  0  0  0  0  0
  130.7250  130.8143   58.0774 H   0  0  0  0  0  0  0  0  0  0  0  0
  131.1800  133.5023   56.0304 H   0  0  0  0  0  0  0  0  0  0  0  0
  130.3586  131.8992   56.3415 H   0  0  0  0  0  0  0  0  0  0  0  0
  127.8090  132.3446   57.4433 H   0  0  0  0  0  0  0  0  0  0  0  0
  127.2880  133.0807   55.8898 H   0  0  0  0  0  0  0  0  0  0  0  0
  128.4549  131.7151   55.8898 H   0  0  0  0  0  0  0  0  0  0  0  0
  128.9149  132.6755   61.1133 H   0  0  0  0  0  0  0  0  0  0  0  0
  129.3393  133.4683   59.5583 H   0  0  0  0  0  0  0  0  0  0  0  0
  128.4129  131.9293   59.5583 H   0  0  0  0  0  0  0  0  0  0  0  0
  134.2756  131.5292   62.1033 H   0  0  0  0  0  0  0  0  0  0  0  0
  133.8222  130.6288   60.6165 H   0  0  0  0  0  0  0  0  0  0  0  0
  133.8135  132.4251   60.6165 H   0  0  0  0  0  0  0  0  0  0  0  0
  132.3558  131.1024   63.7748 H   0  0  0  0  0  0  0  0  0  0  0  0
  132.5512  132.8327   63.3335 H   0  0  0  0  0  0  0  0  0  0  0  0
  130.9181  132.0847   63.3335 H   0  0  0  0  0  0  0  0  0  0  0  0
  129.5041  130.4308   61.4392 H   0  0  0  0  0  0  0  0  0  0  0  0
  129.5953  129.3404   59.0660 H   0  0  0  0  0  0  0  0  0  0  0  0
  129.0959  128.4202   61.9211 H   0  0  0  0  0  0  0  0  0  0  0  0
  127.9239  128.7054   60.5901 H   0  0  0  0  0  0  0  0  0  0  0  0
  128.9400  127.2241   60.5901 H   0  0  0  0  0  0  0  0  0  0  0  0
  132.1223  128.6911   59.9305 H   0  0  0  0  0  0  0  0  0  0  0  0
  128.8151  126.5660   58.0497 H   0  0  0  0  0  0  0  0  0  0  0  0
  128.3362  127.4137   56.5402 H   0  0  0  0  0  0  0  0  0  0  0  0
  129.7551  126.3122   56.5402 H   0  0  0  0  0  0  0  0  0  0  0  0
  132.3499  126.3826   60.2722 H   0  0  0  0  0  0  0  0  0  0  0  0
  129.8710  125.2520   60.9005 H   0  0  0  0  0  0  0  0  0  0  0  0
  129.5487  126.2123   59.4171 H   0  0  0  0  0  0  0  0  0  0  0  0
  130.8430  124.9668   59.4171 H   0  0  0  0  0  0  0  0  0  0  0  0
  132.3413  127.2588   62.3457 H   0  0  0  0  0  0  0  0  0  0  0  0
  130.5736  127.8299   62.1594 H   0  0  0  0  0  0  0  0  0  0  0  0
  128.8310  125.6907   63.8678 H   0  0  0  0  0  0  0  0  0  0  0  0
  128.8372  126.5935   62.3148 H   0  0  0  0  0  0  0  0  0  0  0  0
  129.0066  124.8052   62.3148 H   0  0  0  0  0  0  0  0  0  0  0  0
  132.5478  125.4163   66.8887 H   0  0  0  0  0  0  0  0  0  0  0  0
  133.5825  124.7932   65.5591 H   0  0  0  0  0  0  0  0  0  0  0  0
  133.0578  126.5112   65.5591 H   0  0  0  0  0  0  0  0  0  0  0  0
  130.6621  124.7426   66.9707 H   0  0  0  0  0  0  0  0  0  0  0  0
  129.4757  125.2189   65.7089 H   0  0  0  0  0  0  0  0  0  0  0  0
  130.1704  123.5624   65.7089 H   0  0  0  0  0  0  0  0  0  0  0  0
  130.8091  123.8789   62.2210 H   0  0  0  0  0  0  0  0  0  0  0  0
  132.8337  125.3141   61.3375 H   0  0  0  0  0  0  0  0  0  0  0  0
  132.5278  122.2479   61.4339 H   0  0  0  0  0  0  0  0  0  0  0  0
  131.7571  123.3558   60.2484 H   0  0  0  0  0  0  0  0  0  0  0  0
  133.5404  123.1401   60.2484 H   0  0  0  0  0  0  0  0  0  0  0  0
  134.7599  123.3506   62.4277 H   0  0  0  0  0  0  0  0  0  0  0  0
  1  2  1  0
  2  3  1  0
  3  4  1  0
  4  5  1  0
  5  6  1  0
  6  7  1  0
  3  8  1  0
  8  9  1  6
  8 10  1  0
 10 11  1  0
 11 12  1  0
 11 13  1  0
 11 14  1  0
 14 15  1  0
 15 16  1  0
 16 17  1  0
 16 18  1  0
 18 19  1  0
 19 20  1  0
 20 21  1  0
 20 22  2  0
 18 23  1  0
 23 24  1  0
 23 25  1  0
 26 25  1  6
 26 27  1  0
 26 28  1  0
 28 29  1  0
 29 30  1  0
 29 31  1  0
 29 32  1  0
 32 33  1  0
 33 34  1  0
 34 35  1  0
 34 36  1  0
 36 37  2  0
 15  8  1  0
 33 26  1  0
  1 38  1  0
  1 39  1  0
  1 40  1  0
  2 41  1  0
  2 42  1  0
  3 43  1  6
  5 44  1  0
  5 45  1  0
  7 46  1  0
  7 47  1  0
  7 48  1  0
  9 49  1  0
  9 50  1  0
  9 51  1  0
 12 52  1  0
 12 53  1  0
 12 54  1  0
 13 55  1  0
 13 56  1  0
 13 57  1  0
 15 58  1  1
 16 59  1  6
 17 60  1  0
 17 61  1  0
 17 62  1  0
 18 63  1  6
 21 64  1  0
 21 65  1  0
 21 66  1  0
 23 67  1  1
 24 68  1  0
 24 69  1  0
 24 70  1  0
 25 71  1  0
 25 72  1  0
 27 73  1  0
 27 74  1  0
 27 75  1  0
 30 76  1  0
 30 77  1  0
 30 78  1  0
 31 79  1  0
 31 80  1  0
 31 81  1  0
 33 82  1  6
 34 83  1  6
 35 84  1  0
 35 85  1  0
 35 86  1  0
 36 87  1  0
M  END
>  <Binding energies>  (1) 
[-6.65]

>  <Ligand effiencies>  (1) 
[-0.17972972972972973]

>  <Interactions>  (1) 
["V-A:ALA:541:C:4888, H-A:ALA:541:N:4891, V-A:ILE:538:CB:4862, H-A:TYR:531:OH:4795, H-A:ARG:545:NH1:4927, V-A:TYR:484:CE2:4346, V-B:TYR:539:CE2:9848, V-B:GLU:543:CG:9879, V-A:TYR:539:CE2:4876, V-A:ASP:366:CG:3213, V-A:ASN:362:CB:3176, V-A:LEU:363:CD1:3189, V-A:TYR:539:CD1:4873, V-A:ILE:538:CA:4860, V-A:TYR:539:CZ:4877, V-A:TYR:531:CE2:4793, V-A:GLU:543:CD:4908, V-A:TYR:484:CZ:4347, V-A:ARG:545:CG:4922, H-A:GLY:454:N:4050, V-A:GLY:453:C:4042, V-A:ILE:369:CD1:3239, V-A:ALA:541:CA:4890, V-A:GLU:543:CG:4907, V-A:TYR:531:CZ:4794, V-A:MET:535:CE:4835, V-B:GLU:543:CD:9880, V-A:ASP:366:CB:3212, V-A:ARG:545:CD:4923, H-A:ARG:545:NH2:4928, V-A:ASN:362:C:3172, V-A:ARG:545:CZ:4926, V-A:PRO:540:N:4884, V-A:TYR:539:CG:4872, H-A:TYR:539:N:4870, V-A:PRO:540:CB:4885, V-A:PRO:540:CA:4883, V-A:LEU:363:CA:3185, H-A:ARG:545:NE:4924, V-A:TYR:539:CE1:4875, H-A:TYR:484:OH:4348"]

$$$$
ZINC2356711495
     RDKit          3D

 36 37  0  0  0  0  0  0  0  0999 V2000
  129.6770  125.2340   68.0200 C   0  0  0  0  0  0  0  0  0  0  0  0
  129.4850  125.8740   66.6450 C   0  0  0  0  0  0  0  0  0  0  0  0
  128.8900  127.0890   66.5260 C   0  0  0  0  0  0  0  0  0  0  0  0
  128.3010  127.9590   67.6300 C   0  0  1  0  0  0  0  0  0  0  0  0
  128.0330  129.4010   67.1770 C   0  0  0  0  0  0  0  0  0  0  0  0
  127.0800  127.3740   68.0330 O   0  0  0  0  0  0  0  0  0  0  0  0
  129.9870  125.1800   65.4420 C   0  0  0  0  0  0  0  0  0  0  0  0
  129.8380  123.8470   65.2480 C   0  0  0  0  0  0  0  0  0  0  0  0
  130.2860  123.0960   64.0900 C   0  0  0  0  0  0  0  0  0  0  0  0
  129.9030  121.9450   63.8810 O   0  0  0  0  0  0  0  0  0  0  0  0
  131.1270  123.7780   63.2530 N   0  0  0  0  0  0  0  0  0  0  0  0
  131.8640  123.1210   62.1630 C   0  0  0  0  0  0  0  0  0  0  0  0
  133.3390  122.9490   62.6100 C   0  0  0  0  0  0  0  0  0  0  0  0
  133.9630  124.2590   63.1220 C   0  0  0  0  0  0  0  0  0  0  0  0
  135.0830  124.6390   62.7830 O   0  0  0  0  0  0  0  0  0  0  0  0
  133.0520  125.0810   64.0490 C   0  0  0  0  0  0  0  0  0  0  0  0
  131.5930  125.1730   63.5280 C   0  0  2  0  0  0  0  0  0  0  0  0
  130.6980  125.8510   64.4670 N   0  0  0  0  0  0  0  0  0  0  0  0
  129.4550  125.9739   68.8031 H   0  0  0  0  0  0  0  0  0  0  0  0
  128.9968  124.3757   68.1231 H   0  0  0  0  0  0  0  0  0  0  0  0
  130.7173  124.8919   68.1231 H   0  0  0  0  0  0  0  0  0  0  0  0
  128.8251  127.4957   65.5060 H   0  0  0  0  0  0  0  0  0  0  0  0
  129.0309  128.0100   68.4514 H   0  0  0  0  0  0  0  0  0  0  0  0
  127.9131  130.0463   68.0597 H   0  0  0  0  0  0  0  0  0  0  0  0
  128.8800  129.7591   66.5733 H   0  0  0  0  0  0  0  0  0  0  0  0
  127.1139  129.4309   66.5733 H   0  0  0  0  0  0  0  0  0  0  0  0
  126.5610  127.1840   67.2490 H   0  0  0  0  0  0  0  0  0  0  0  0
  129.3298  123.2813   66.0429 H   0  0  0  0  0  0  0  0  0  0  0  0
  131.4208  122.1360   61.9546 H   0  0  0  0  0  0  0  0  0  0  0  0
  131.8127  123.7302   61.2485 H   0  0  0  0  0  0  0  0  0  0  0  0
  133.3770  122.2026   63.4171 H   0  0  0  0  0  0  0  0  0  0  0  0
  133.9166  122.6284   61.7305 H   0  0  0  0  0  0  0  0  0  0  0  0
  133.0418  124.6080   65.0421 H   0  0  0  0  0  0  0  0  0  0  0  0
  133.4553  126.1036   64.0894 H   0  0  0  0  0  0  0  0  0  0  0  0
  131.5732  125.7826   62.6126 H   0  0  0  0  0  0  0  0  0  0  0  0
  130.8120  126.8540   64.5050 H   0  0  0  0  0  0  0  0  0  0  0  0
  1  2  1  0
  2  3  2  0
  3  4  1  0
  4  5  1  0
  4  6  1  0
  2  7  1  0
  7  8  2  0
  8  9  1  0
  9 10  2  0
  9 11  1  0
 11 12  1  0
 12 13  1  0
 13 14  1  0
 14 15  2  0
 14 16  1  0
 16 17  1  0
 17 18  1  0
 18  7  1  0
 17 11  1  0
  1 19  1  0
  1 20  1  0
  1 21  1  0
  3 22  1  0
  4 23  1  1
  5 24  1  0
  5 25  1  0
  5 26  1  0
  6 27  1  0
  8 28  1  0
 12 29  1  0
 12 30  1  0
 13 31  1  0
 13 32  1  0
 16 33  1  0
 16 34  1  0
 17 35  1  6
 18 36  1  0
M  END
>  <Binding energies>  (1) 
[-5.87]

>  <Ligand effiencies>  (1) 
[-0.2935]

>  <Interactions>  (1) 
["V-A:GLY:454:CA:4049, V-B:GLU:543:C:9874, H-A:GLU:543:OE2:4910, V-B:GLU:543:CB:9878, H-A:ARG:545:NH1:4927, V-A:TYR:484:CE2:4346, V-B:GLU:543:CG:9879, V-B:TYR:484:CE2:9317, V-A:GLU:543:CD:4908, V-B:GLU:543:CA:9876, H-A:GLY:454:N:4050, V-B:HIS:456:CE1:9041, V-A:GLY:453:C:4042, V-A:HIS:456:CE1:4070, V-B:TYR:484:CZ:9318, V-A:GLU:543:CG:4907, V-B:GLU:543:CD:9880, V-A:LEU:475:CD2:4259, H-A:ARG:545:NH2:4928, V-A:ARG:545:CZ:4926, H-A:GLU:543:OE1:4909, V-A:GLU:543:CB:4906, H-B:GLU:543:OE2:9882, V-A:GLY:453:CA:4044"]

$$$$
ZINC2356711652
     RDKit          3D

 83 86  0  0  0  0  0  0  0  0999 V2000
  132.8310  131.2830   58.6980 C   0  0  0  0  0  0  0  0  0  0  0  0
  132.3160  130.6860   57.3780 C   0  0  0  0  0  0  0  0  0  0  0  0
  131.6110  131.6490   56.6010 O   0  0  0  0  0  0  0  0  0  0  0  0
  130.4430  132.1920   57.0300 C   0  0  0  0  0  0  0  0  0  0  0  0
  130.2180  133.3960   57.1690 O   0  0  0  0  0  0  0  0  0  0  0  0
  129.3560  131.1440   57.3460 C   0  0  2  0  0  0  0  0  0  0  0  0
  128.0220  131.5480   56.6900 C   0  0  0  0  0  0  0  0  0  0  0  0
  129.1650  130.8470   58.8610 C   0  0  0  0  0  0  0  0  0  0  0  0
  129.4660  129.3970   59.2670 C   0  0  0  0  0  0  0  0  0  0  0  0
  130.4170  129.1820   60.0170 O   0  0  0  0  0  0  0  0  0  0  0  0
  128.5870  128.3590   58.7230 C   0  0  0  0  0  0  0  0  0  0  0  0
  128.0780  127.2860   59.3840 C   0  0  0  0  0  0  0  0  0  0  0  0
  128.3440  127.0000   60.8630 C   0  0  0  0  0  0  0  0  0  0  0  0
  127.2070  126.2150   58.6890 C   0  0  2  0  0  0  0  0  0  0  0  0
  126.1170  125.5860   59.5810 C   0  0  0  0  0  0  0  0  0  0  0  0
  126.6050  124.1740   59.9180 C   0  0  0  0  0  0  0  0  0  0  0  0
  125.9690  123.3540   60.5800 O   0  0  0  0  0  0  0  0  0  0  0  0
  127.9840  123.9440   59.2360 C   0  0  2  0  0  0  0  0  0  0  0  0
  128.0270  122.4680   58.7220 C   0  0  0  0  0  0  0  0  0  0  0  0
  129.2210  124.1650   60.1830 C   0  0  0  0  0  0  0  0  0  0  0  0
  130.4050  124.7310   59.7530 C   0  0  0  0  0  0  0  0  0  0  0  0
  130.4860  125.3580   58.3990 C   0  0  0  0  0  0  0  0  0  0  0  0
  131.4150  126.0810   58.0410 O   0  0  0  0  0  0  0  0  0  0  0  0
  129.3240  125.1770   57.4300 C   0  0  0  0  0  0  0  0  0  0  0  0
  127.9270  124.9780   58.0550 C   0  0  2  0  0  0  0  0  0  0  0  0
  127.0400  124.5120   56.8480 C   0  0  0  0  0  0  0  0  0  0  0  0
  131.6980  124.8490   60.6600 C   0  0  2  0  0  0  0  0  0  0  0  0
  131.8610  126.3500   61.0830 C   0  0  0  0  0  0  0  0  0  0  0  0
  132.9930  124.3510   59.9310 C   0  0  0  0  0  0  0  0  0  0  0  0
  134.2670  124.3440   60.8000 C   0  0  0  0  0  0  0  0  0  0  0  0
  134.0980  123.5010   62.0670 C   0  0  0  0  0  0  0  0  0  0  0  0
  134.9470  122.6600   62.3700 O   0  0  0  0  0  0  0  0  0  0  0  0
  132.7910  123.7470   62.8840 C   0  0  0  0  0  0  0  0  0  0  0  0
  132.5740  122.5090   63.8110 C   0  0  0  0  0  0  0  0  0  0  0  0
  133.0340  125.0220   63.7380 C   0  0  0  0  0  0  0  0  0  0  0  0
  131.5570  123.8690   61.8910 C   0  0  1  0  0  0  0  0  0  0  0  0
  130.2040  124.1300   62.5730 C   0  0  0  0  0  0  0  0  0  0  0  0
  129.0550  123.6960   61.6550 C   0  0  2  0  0  0  0  0  0  0  0  0
  128.8660  122.2960   61.7410 O   0  0  0  0  0  0  0  0  0  0  0  0
  132.3722  130.7512   59.5446 H   0  0  0  0  0  0  0  0  0  0  0  0
  133.9247  131.1758   58.7469 H   0  0  0  0  0  0  0  0  0  0  0  0
  132.5645  132.3491   58.7469 H   0  0  0  0  0  0  0  0  0  0  0  0
  133.1733  130.3173   56.7956 H   0  0  0  0  0  0  0  0  0  0  0  0
  131.6216  129.8682   57.6208 H   0  0  0  0  0  0  0  0  0  0  0  0
  129.7140  130.1981   56.9135 H   0  0  0  0  0  0  0  0  0  0  0  0
  127.2818  131.7722   57.4722 H   0  0  0  0  0  0  0  0  0  0  0  0
  128.1761  132.4397   56.0647 H   0  0  0  0  0  0  0  0  0  0  0  0
  127.6555  130.7206   56.0647 H   0  0  0  0  0  0  0  0  0  0  0  0
  129.8355  131.5092   59.4284 H   0  0  0  0  0  0  0  0  0  0  0  0
  128.1016  131.0204   59.0828 H   0  0  0  0  0  0  0  0  0  0  0  0
  128.3084  128.4589   57.6636 H   0  0  0  0  0  0  0  0  0  0  0  0
  127.7249  127.6657   61.4823 H   0  0  0  0  0  0  0  0  0  0  0  0
  128.0915  125.9527   61.0851 H   0  0  0  0  0  0  0  0  0  0  0  0
  129.4069  127.1760   61.0851 H   0  0  0  0  0  0  0  0  0  0  0  0
  126.8028  126.8593   57.8943 H   0  0  0  0  0  0  0  0  0  0  0  0
  125.9897  126.1754   60.5010 H   0  0  0  0  0  0  0  0  0  0  0  0
  125.1435  125.5628   59.0693 H   0  0  0  0  0  0  0  0  0  0  0  0
  128.0470  121.7811   59.5809 H   0  0  0  0  0  0  0  0  0  0  0  0
  127.1344  122.2661   58.1117 H   0  0  0  0  0  0  0  0  0  0  0  0
  128.9299  122.3184   58.1117 H   0  0  0  0  0  0  0  0  0  0  0  0
  129.2795  126.0717   56.7916 H   0  0  0  0  0  0  0  0  0  0  0  0
  129.5374  124.2408   56.8933 H   0  0  0  0  0  0  0  0  0  0  0  0
  126.1263  124.0319   57.2283 H   0  0  0  0  0  0  0  0  0  0  0  0
  126.7682  125.3837   56.2347 H   0  0  0  0  0  0  0  0  0  0  0  0
  127.6036  123.7935   56.2347 H   0  0  0  0  0  0  0  0  0  0  0  0
  131.8689  126.4229   62.1806 H   0  0  0  0  0  0  0  0  0  0  0  0
  132.8071  126.7431   60.6826 H   0  0  0  0  0  0  0  0  0  0  0  0
  131.0213  126.9370   60.6826 H   0  0  0  0  0  0  0  0  0  0  0  0
  132.8136  123.3241   59.5798 H   0  0  0  0  0  0  0  0  0  0  0  0
  133.1807  125.0645   59.1151 H   0  0  0  0  0  0  0  0  0  0  0  0
  135.0973  123.9314   60.2081 H   0  0  0  0  0  0  0  0  0  0  0  0
  134.4713  125.3800   61.1083 H   0  0  0  0  0  0  0  0  0  0  0  0
  132.6293  122.8247   64.8633 H   0  0  0  0  0  0  0  0  0  0  0  0
  131.5853  122.0702   63.6113 H   0  0  0  0  0  0  0  0  0  0  0  0
  133.3546  121.7601   63.6113 H   0  0  0  0  0  0  0  0  0  0  0  0
  132.9846  124.7629   64.8059 H   0  0  0  0  0  0  0  0  0  0  0  0
  134.0270  125.4347   63.5064 H   0  0  0  0  0  0  0  0  0  0  0  0
  132.2624  125.7710   63.5064 H   0  0  0  0  0  0  0  0  0  0  0  0
  131.5770  122.8499   61.4775 H   0  0  0  0  0  0  0  0  0  0  0  0
  130.1543  123.5590   63.5118 H   0  0  0  0  0  0  0  0  0  0  0  0
  130.1093  125.2058   62.7819 H   0  0  0  0  0  0  0  0  0  0  0  0
  128.1483  124.2033   62.0163 H   0  0  0  0  0  0  0  0  0  0  0  0
  127.9700  122.0920   61.4620 H   0  0  0  0  0  0  0  0  0  0  0  0
  1  2  1  0
  2  3  1  0
  3  4  1  0
  4  5  2  0
  4  6  1  0
  6  7  1  0
  6  8  1  0
  8  9  1  0
  9 10  2  0
  9 11  1  0
 11 12  2  0
 12 13  1  0
 12 14  1  0
 14 15  1  0
 15 16  1  0
 16 17  2  0
 16 18  1  0
 18 19  1  6
 18 20  1  0
 20 21  2  0
 21 22  1  0
 22 23  2  0
 22 24  1  0
 24 25  1  0
 25 26  1  6
 21 27  1  0
 27 28  1  1
 27 29  1  0
 29 30  1  0
 30 31  1  0
 31 32  2  0
 31 33  1  0
 33 34  1  0
 33 35  1  0
 33 36  1  0
 36 37  1  0
 37 38  1  0
 38 39  1  0
 25 14  1  0
 36 27  1  0
 25 18  1  0
 38 20  1  0
  1 40  1  0
  1 41  1  0
  1 42  1  0
  2 43  1  0
  2 44  1  0
  6 45  1  6
  7 46  1  0
  7 47  1  0
  7 48  1  0
  8 49  1  0
  8 50  1  0
 11 51  1  0
 13 52  1  0
 13 53  1  0
 13 54  1  0
 14 55  1  6
 15 56  1  0
 15 57  1  0
 19 58  1  0
 19 59  1  0
 19 60  1  0
 24 61  1  0
 24 62  1  0
 26 63  1  0
 26 64  1  0
 26 65  1  0
 28 66  1  0
 28 67  1  0
 28 68  1  0
 29 69  1  0
 29 70  1  0
 30 71  1  0
 30 72  1  0
 34 73  1  0
 34 74  1  0
 34 75  1  0
 35 76  1  0
 35 77  1  0
 35 78  1  0
 36 79  1  6
 37 80  1  0
 37 81  1  0
 38 82  1  1
 39 83  1  0
M  END
>  <Binding energies>  (1) 
[-8.54]

>  <Ligand effiencies>  (1) 
[-0.21349999999999997]

>  <Interactions>  (1) 
["V-A:ASP:366:CA:3210, V-B:PRO:540:CA:9855, V-A:GLY:454:CA:4049, V-B:ASP:366:CG:8184, H-A:TYR:531:OH:4795, V-B:TYR:539:CE2:9848, V-B:TYR:539:C:9839, V-A:ASP:366:CG:3213, V-A:LEU:363:CD1:3189, V-B:TYR:539:CZ:9849, V-A:TYR:531:CE2:4793, H-B:TYR:539:OH:9850, H-B:ALA:541:N:9863, H-A:GLY:454:N:4050, V-B:PRO:540:N:9856, V-A:ILE:369:CD1:3239, V-B:TYR:539:CD2:9846, V-A:TYR:531:CZ:4794, V-A:MET:535:CE:4835, V-A:LEU:475:CD2:4259, V-A:ARG:545:CZ:4926, V-B:TYR:539:CG:9844, H-A:TYR:539:N:4870, V-A:PRO:540:CB:4885, H-B:TYR:539:O:9840"]

$$$$
ZINC2356712223
     RDKit          3D

 76 80  0  0  0  0  0  0  0  0999 V2000
  129.3660  130.9500   61.7210 C   0  0  0  0  0  0  0  0  0  0  0  0
  130.8120  131.2950   61.3870 C   0  0  0  0  0  0  0  0  0  0  0  0
  131.3920  132.2250   61.9490 O   0  0  0  0  0  0  0  0  0  0  0  0
  131.3350  130.4780   60.4380 O   0  0  0  0  0  0  0  0  0  0  0  0
  130.7600  129.2040   60.1480 C   0  0  2  0  0  0  0  0  0  0  0  0
  131.3300  128.1160   61.0820 C   0  0  0  0  0  0  0  0  0  0  0  0
  130.5460  126.7940   60.8860 C   0  0  2  0  0  0  0  0  0  0  0  0
  130.7460  125.6990   62.0180 C   0  0  1  0  0  0  0  0  0  0  0  0
  132.2370  125.2740   62.1620 C   0  0  0  0  0  0  0  0  0  0  0  0
  130.3320  126.2170   63.4030 C   0  0  0  0  0  0  0  0  0  0  0  0
  129.8500  125.4480   64.3980 C   0  0  0  0  0  0  0  0  0  0  0  0
  129.6700  124.0060   64.2840 C   0  0  0  0  0  0  0  0  0  0  0  0
  129.4920  123.3370   65.3040 O   0  0  0  0  0  0  0  0  0  0  0  0
  129.6320  123.3840   62.8530 C   0  0  0  0  0  0  0  0  0  0  0  0
  130.7590  122.3140   62.7800 C   0  0  0  0  0  0  0  0  0  0  0  0
  128.2330  122.7110   62.7330 C   0  0  0  0  0  0  0  0  0  0  0  0
  129.7630  124.4940   61.7290 C   0  0  2  0  0  0  0  0  0  0  0  0
  129.9640  123.9430   60.2960 C   0  0  0  0  0  0  0  0  0  0  0  0
  129.7280  125.0400   59.2210 C   0  0  1  0  0  0  0  0  0  0  0  0
  128.3570  125.4640   59.2610 O   0  0  0  0  0  0  0  0  0  0  0  0
  127.3390  124.5950   59.4590 C   0  0  0  0  0  0  0  0  0  0  0  0
  126.3740  125.0770   60.5350 C   0  0  0  0  0  0  0  0  0  0  0  0
  127.1620  123.5300   58.8680 O   0  0  0  0  0  0  0  0  0  0  0  0
  130.6980  126.2660   59.3970 C   0  0  2  0  0  0  0  0  0  0  0  0
  132.1380  125.7990   59.0160 C   0  0  0  0  0  0  0  0  0  0  0  0
  130.3400  127.4370   58.4300 C   0  0  0  0  0  0  0  0  0  0  0  0
  129.5590  127.4030   57.3340 C   0  0  0  0  0  0  0  0  0  0  0  0
  129.4200  128.7450   56.6790 C   0  0  0  0  0  0  0  0  0  0  0  0
  130.0290  129.7240   57.6880 C   0  0  2  0  0  0  0  0  0  0  0  0
  130.6160  130.9690   56.9210 C   0  0  1  0  0  0  0  0  0  0  0  0
  129.5620  132.0010   56.5080 C   0  0  0  0  0  0  0  0  0  0  0  0
  129.5930  132.9800   57.6690 C   0  0  0  0  0  0  0  0  0  0  0  0
  128.7230  133.7730   58.0250 O   0  0  0  0  0  0  0  0  0  0  0  0
  130.7650  132.8670   58.3010 O   0  0  0  0  0  0  0  0  0  0  0  0
  131.5000  131.8710   57.7860 C   0  0  0  0  0  0  0  0  0  0  0  0
  132.7150  131.8070   57.9640 O   0  0  0  0  0  0  0  0  0  0  0  0
  130.9410  128.8570   58.6320 C   0  0  1  0  0  0  0  0  0  0  0  0
  132.4270  128.8870   58.1710 C   0  0  0  0  0  0  0  0  0  0  0  0
  129.2392  130.9197   62.8132 H   0  0  0  0  0  0  0  0  0  0  0  0
  128.6990  131.7142   61.2954 H   0  0  0  0  0  0  0  0  0  0  0  0
  129.1159  129.9670   61.2954 H   0  0  0  0  0  0  0  0  0  0  0  0
  129.6782  129.2458   60.3427 H   0  0  0  0  0  0  0  0  0  0  0  0
  132.3912  127.9501   60.8447 H   0  0  0  0  0  0  0  0  0  0  0  0
  131.2315  128.4457   62.1268 H   0  0  0  0  0  0  0  0  0  0  0  0
  129.4838  127.0409   61.0300 H   0  0  0  0  0  0  0  0  0  0  0  0
  132.4959  125.2002   63.2286 H   0  0  0  0  0  0  0  0  0  0  0  0
  132.3880  124.2970   61.6796 H   0  0  0  0  0  0  0  0  0  0  0  0
  132.8804  126.0245   61.6796 H   0  0  0  0  0  0  0  0  0  0  0  0
  130.4368  127.2948   63.5966 H   0  0  0  0  0  0  0  0  0  0  0  0
  129.5778  125.9337   65.3467 H   0  0  0  0  0  0  0  0  0  0  0  0
  131.0599  122.0283   63.7987 H   0  0  0  0  0  0  0  0  0  0  0  0
  130.3886  121.4272   62.2448 H   0  0  0  0  0  0  0  0  0  0  0  0
  131.6254  122.7299   62.2448 H   0  0  0  0  0  0  0  0  0  0  0  0
  127.8315  122.5179   63.7387 H   0  0  0  0  0  0  0  0  0  0  0  0
  127.5502  123.3792   62.1877 H   0  0  0  0  0  0  0  0  0  0  0  0
  128.3289  121.7605   62.1877 H   0  0  0  0  0  0  0  0  0  0  0  0
  128.7573  124.9366   61.7797 H   0  0  0  0  0  0  0  0  0  0  0  0
  130.9926  123.5652   60.2002 H   0  0  0  0  0  0  0  0  0  0  0  0
  129.2321  123.1384   60.1318 H   0  0  0  0  0  0  0  0  0  0  0  0
  129.9490  124.6032   58.2359 H   0  0  0  0  0  0  0  0  0  0  0  0
  126.7970  124.8657   61.5282 H   0  0  0  0  0  0  0  0  0  0  0  0
  126.2155  126.1601   60.4268 H   0  0  0  0  0  0  0  0  0  0  0  0
  125.4128  124.5531   60.4268 H   0  0  0  0  0  0  0  0  0  0  0  0
  132.7170  125.6112   59.9322 H   0  0  0  0  0  0  0  0  0  0  0  0
  132.0788  124.8740   58.4236 H   0  0  0  0  0  0  0  0  0  0  0  0
  132.6329  126.5827   58.4236 H   0  0  0  0  0  0  0  0  0  0  0  0
  129.0748  126.4892   56.9592 H   0  0  0  0  0  0  0  0  0  0  0  0
  129.9712  128.7731   55.7275 H   0  0  0  0  0  0  0  0  0  0  0  0
  128.3750  128.9878   56.4362 H   0  0  0  0  0  0  0  0  0  0  0  0
  129.3313  130.2271   58.3737 H   0  0  0  0  0  0  0  0  0  0  0  0
  131.1300  130.4659   56.0887 H   0  0  0  0  0  0  0  0  0  0  0  0
  129.8363  132.4943   55.5639 H   0  0  0  0  0  0  0  0  0  0  0  0
  128.5682  131.5660   56.3258 H   0  0  0  0  0  0  0  0  0  0  0  0
  133.0843  128.9003   59.0529 H   0  0  0  0  0  0  0  0  0  0  0  0
  132.6417  127.9930   57.5671 H   0  0  0  0  0  0  0  0  0  0  0  0
  132.6054  129.7889   57.5671 H   0  0  0  0  0  0  0  0  0  0  0  0
  1  2  1  0
  2  3  2  0
  2  4  1  0
  4  5  1  0
  5  6  1  0
  6  7  1  0
  7  8  1  0
  8  9  1  1
  8 10  1  0
 10 11  2  0
 11 12  1  0
 12 13  2  0
 12 14  1  0
 14 15  1  0
 14 16  1  0
 14 17  1  0
 17 18  1  0
 18 19  1  0
 19 20  1  0
 20 21  1  0
 21 22  1  0
 21 23  2  0
 19 24  1  0
 24 25  1  6
 24 26  1  0
 26 27  2  0
 27 28  1  0
 28 29  1  0
 29 30  1  0
 30 31  1  0
 31 32  1  0
 32 33  2  0
 32 34  1  0
 34 35  1  0
 35 36  2  0
 29 37  1  0
 37 38  1  6
 37  5  1  0
 24  7  1  0
 37 26  1  0
 17  8  1  0
 35 30  1  0
  1 39  1  0
  1 40  1  0
  1 41  1  0
  5 42  1  1
  6 43  1  0
  6 44  1  0
  7 45  1  6
  9 46  1  0
  9 47  1  0
  9 48  1  0
 10 49  1  0
 11 50  1  0
 15 51  1  0
 15 52  1  0
 15 53  1  0
 16 54  1  0
 16 55  1  0
 16 56  1  0
 17 57  1  6
 18 58  1  0
 18 59  1  0
 19 60  1  6
 22 61  1  0
 22 62  1  0
 22 63  1  0
 25 64  1  0
 25 65  1  0
 25 66  1  0
 27 67  1  0
 28 68  1  0
 28 69  1  0
 29 70  1  1
 30 71  1  6
 31 72  1  0
 31 73  1  0
 38 74  1  0
 38 75  1  0
 38 76  1  0
M  END
>  <Binding energies>  (1) 
[-8.1]

>  <Ligand effiencies>  (1) 
[-0.2131578947368421]

>  <Interactions>  (1) 
["H-A:ALA:541:N:4891, V-B:ALA:541:CB:9864, V-B:TYR:539:CE2:9848, V-B:GLU:543:CG:9879, V-A:ASP:366:CG:3213, V-A:LEU:363:CD1:3189, V-A:TYR:531:CE2:4793, V-A:GLU:543:CD:4908, V-A:TYR:531:CZ:4794, V-B:GLU:543:CD:9880, V-A:MET:535:CE:4835, V-A:TYR:539:C:4867, V-A:ASP:366:CB:3212, V-A:LEU:475:CD2:4259, V-A:PRO:540:N:4884, H-A:TYR:539:N:4870, V-A:PRO:540:CB:4885, V-A:PRO:540:CA:4883, V-B:ALA:541:CA:9862"]

$$$$
ZINC2356717340
     RDKit          3D

 79 82  0  0  0  0  0  0  0  0999 V2000
  129.7910  125.6600   65.9100 C   0  0  0  0  0  0  0  0  0  0  0  0
  130.6240  124.9250   64.8750 C   0  0  0  0  0  0  0  0  0  0  0  0
  130.5270  123.6340   64.4860 C   0  0  0  0  0  0  0  0  0  0  0  0
  129.4860  122.6520   65.0180 C   0  0  0  0  0  0  0  0  0  0  0  0
  131.4860  123.0730   63.4260 C   0  0  2  0  0  0  0  0  0  0  0  0
  132.1100  124.1320   62.6900 O   0  0  0  0  0  0  0  0  0  0  0  0
  133.4220  124.4320   62.8420 C   0  0  0  0  0  0  0  0  0  0  0  0
  134.1970  124.3030   61.5370 C   0  0  0  0  0  0  0  0  0  0  0  0
  133.9770  124.7710   63.8880 O   0  0  0  0  0  0  0  0  0  0  0  0
  130.8330  122.0750   62.4150 C   0  0  2  0  0  0  0  0  0  0  0  0
  131.8920  121.4040   61.5110 C   0  0  0  0  0  0  0  0  0  0  0  0
  129.6760  122.6570   61.5690 C   0  0  0  0  0  0  0  0  0  0  0  0
  128.3860  122.6910   61.9970 C   0  0  0  0  0  0  0  0  0  0  0  0
  127.2520  123.2310   61.2450 C   0  0  0  0  0  0  0  0  0  0  0  0
  126.0990  123.1970   61.6770 O   0  0  0  0  0  0  0  0  0  0  0  0
  127.6510  123.8120   59.9440 C   0  0  0  0  0  0  0  0  0  0  0  0
  128.9340  123.7630   59.4760 C   0  0  0  0  0  0  0  0  0  0  0  0
  129.3680  124.3810   58.3320 O   0  0  0  0  0  0  0  0  0  0  0  0
  128.3740  124.8040   57.3840 C   0  0  2  0  0  0  0  0  0  0  0  0
  127.9650  123.5640   56.5450 C   0  0  0  0  0  0  0  0  0  0  0  0
  129.1000  125.7910   56.4290 C   0  0  0  0  0  0  0  0  0  0  0  0
  129.3480  127.1890   57.0160 C   0  0  0  0  0  0  0  0  0  0  0  0
  128.0290  127.7890   57.5340 C   0  0  2  0  0  0  0  0  0  0  0  0
  128.3060  129.1120   57.9920 O   0  0  0  0  0  0  0  0  0  0  0  0
  127.1720  129.8930   58.4000 C   0  0  2  0  0  0  0  0  0  0  0  0
  127.6290  131.3050   58.8790 C   0  0  0  0  0  0  0  0  0  0  0  0
  128.0450  132.2260   57.7100 C   0  0  0  0  0  0  0  0  0  0  0  0
  126.5290  131.9820   59.7260 C   0  0  0  0  0  0  0  0  0  0  0  0
  128.7540  131.1660   59.7290 O   0  0  0  0  0  0  0  0  0  0  0  0
  126.2380  129.1230   59.3810 C   0  0  0  0  0  0  0  0  0  0  0  0
  126.0600  127.6430   58.9920 C   0  0  0  0  0  0  0  0  0  0  0  0
  127.4080  126.9320   58.6810 C   0  0  2  0  0  0  0  0  0  0  0  0
  128.3280  126.9400   59.9390 C   0  0  0  0  0  0  0  0  0  0  0  0
  127.1470  125.4810   58.1010 C   0  0  2  0  0  0  0  0  0  0  0  0
  126.5460  124.4750   59.1170 C   0  0  0  0  0  0  0  0  0  0  0  0
  130.0690  123.1890   60.2330 C   0  0  0  0  0  0  0  0  0  0  0  0
  131.2210  123.1640   59.7900 O   0  0  0  0  0  0  0  0  0  0  0  0
  130.1199  125.3698   66.9187 H   0  0  0  0  0  0  0  0  0  0  0  0
  129.9190  126.7448   65.7805 H   0  0  0  0  0  0  0  0  0  0  0  0
  128.7306  125.3979   65.7805 H   0  0  0  0  0  0  0  0  0  0  0  0
  131.4059  125.5185   64.3786 H   0  0  0  0  0  0  0  0  0  0  0  0
  129.4989  122.6641   66.1179 H   0  0  0  0  0  0  0  0  0  0  0  0
  128.4883  122.9455   64.6597 H   0  0  0  0  0  0  0  0  0  0  0  0
  129.7209  121.6388   64.6597 H   0  0  0  0  0  0  0  0  0  0  0  0
  132.2291  122.5019   64.0018 H   0  0  0  0  0  0  0  0  0  0  0  0
  135.2600  124.1261   61.7578 H   0  0  0  0  0  0  0  0  0  0  0  0
  133.7979  123.4589   60.9554 H   0  0  0  0  0  0  0  0  0  0  0  0
  134.0928  125.2308   60.9554 H   0  0  0  0  0  0  0  0  0  0  0  0
  130.3658  121.3109   63.0537 H   0  0  0  0  0  0  0  0  0  0  0  0
  132.6556  120.9202   62.1378 H   0  0  0  0  0  0  0  0  0  0  0  0
  131.4063  120.6485   60.8759 H   0  0  0  0  0  0  0  0  0  0  0  0
  132.3677  122.1658   60.8759 H   0  0  0  0  0  0  0  0  0  0  0  0
  128.1763  122.2771   62.9943 H   0  0  0  0  0  0  0  0  0  0  0  0
  127.6928  122.7386   57.2193 H   0  0  0  0  0  0  0  0  0  0  0  0
  127.1032  123.8186   55.9105 H   0  0  0  0  0  0  0  0  0  0  0  0
  128.8091  123.2559   55.9105 H   0  0  0  0  0  0  0  0  0  0  0  0
  130.0735  125.3545   56.1610 H   0  0  0  0  0  0  0  0  0  0  0  0
  128.4350  125.9313   55.5641 H   0  0  0  0  0  0  0  0  0  0  0  0
  130.0637  127.1122   57.8478 H   0  0  0  0  0  0  0  0  0  0  0  0
  129.7550  127.8416   56.2296 H   0  0  0  0  0  0  0  0  0  0  0  0
  127.2895  127.8026   56.7198 H   0  0  0  0  0  0  0  0  0  0  0  0
  126.5260  130.0703   57.5275 H   0  0  0  0  0  0  0  0  0  0  0  0
  128.4667  133.1595   58.1109 H   0  0  0  0  0  0  0  0  0  0  0  0
  128.8008  131.7173   57.0935 H   0  0  0  0  0  0  0  0  0  0  0  0
  127.1637  132.4567   57.0935 H   0  0  0  0  0  0  0  0  0  0  0  0
  126.7522  131.8446   60.7943 H   0  0  0  0  0  0  0  0  0  0  0  0
  126.4965  133.0566   59.4934 H   0  0  0  0  0  0  0  0  0  0  0  0
  125.5550  131.5269   59.4934 H   0  0  0  0  0  0  0  0  0  0  0  0
  129.1670  130.3180   59.5510 H   0  0  0  0  0  0  0  0  0  0  0  0
  126.6710  129.1720   60.3910 H   0  0  0  0  0  0  0  0  0  0  0  0
  125.2473  129.5993   59.3403 H   0  0  0  0  0  0  0  0  0  0  0  0
  125.5703  127.1177   59.8252 H   0  0  0  0  0  0  0  0  0  0  0  0
  125.4524  127.6136   58.0755 H   0  0  0  0  0  0  0  0  0  0  0  0
  127.7074  126.9346   60.8472 H   0  0  0  0  0  0  0  0  0  0  0  0
  128.9708  126.0474   59.9289 H   0  0  0  0  0  0  0  0  0  0  0  0
  128.9552  127.8436   59.9289 H   0  0  0  0  0  0  0  0  0  0  0  0
  126.3912  125.7021   57.3330 H   0  0  0  0  0  0  0  0  0  0  0  0
  125.8617  125.0097   59.7922 H   0  0  0  0  0  0  0  0  0  0  0  0
  126.0043  123.6947   58.5623 H   0  0  0  0  0  0  0  0  0  0  0  0
  1  2  1  0
  2  3  2  0
  3  4  1  0
  3  5  1  0
  5  6  1  0
  6  7  1  0
  7  8  1  0
  7  9  2  0
  5 10  1  0
 10 11  1  0
 10 12  1  0
 12 13  2  0
 13 14  1  0
 14 15  2  0
 14 16  1  0
 16 17  2  0
 17 18  1  0
 18 19  1  0
 19 20  1  6
 19 21  1  0
 21 22  1  0
 22 23  1  0
 23 24  1  0
 24 25  1  0
 25 26  1  0
 26 27  1  0
 26 28  1  0
 26 29  1  0
 25 30  1  0
 30 31  1  0
 31 32  1  0
 32 33  1  1
 32 34  1  0
 34 35  1  0
 17 36  1  0
 36 37  2  0
 36 12  1  0
 35 16  1  0
 34 19  1  0
 32 23  1  0
  1 38  1  0
  1 39  1  0
  1 40  1  0
  2 41  1  0
  4 42  1  0
  4 43  1  0
  4 44  1  0
  5 45  1  1
  8 46  1  0
  8 47  1  0
  8 48  1  0
 10 49  1  1
 11 50  1  0
 11 51  1  0
 11 52  1  0
 13 53  1  0
 20 54  1  0
 20 55  1  0
 20 56  1  0
 21 57  1  0
 21 58  1  0
 22 59  1  0
 22 60  1  0
 23 61  1  6
 25 62  1  6
 27 63  1  0
 27 64  1  0
 27 65  1  0
 28 66  1  0
 28 67  1  0
 28 68  1  0
 29 69  1  0
 30 70  1  0
 30 71  1  0
 31 72  1  0
 31 73  1  0
 33 74  1  0
 33 75  1  0
 33 76  1  0
 34 77  1  6
 35 78  1  0
 35 79  1  0
M  END
>  <Binding energies>  (1) 
[-8.19]

>  <Ligand effiencies>  (1) 
[-0.21552631578947368]

>  <Interactions>  (1) 
["V-B:PRO:540:CA:9855, V-B:GLU:543:CB:9878, V-B:ALA:541:CB:9864, V-B:ASP:366:CG:8184, H-A:ARG:545:NH1:4927, V-A:TYR:484:CE2:4346, V-B:TYR:539:CE2:9848, V-B:GLU:543:CG:9879, V-A:TYR:539:CE1:4875, V-A:ASP:366:CG:3213, V-A:TYR:539:CD1:4873, V-B:TYR:539:CZ:9849, H-B:TYR:539:OH:9850, H-B:ALA:541:N:9863, V-B:ASP:366:CB:8183, H-A:GLY:454:N:4050, V-A:ILE:369:CD1:3239, V-B:TYR:539:CD2:9846, V-B:GLU:543:CD:9880, V-A:LEU:475:CD2:4259, H-A:ARG:545:NH2:4928, V-A:ARG:545:CZ:4926, V-B:TYR:539:CD1:9845, H-A:ARG:545:NE:4924, V-B:TYR:539:CE1:9847"]

$$$$
ZINC2356719600
     RDKit          3D

 38 38  0  0  0  0  0  0  0  0999 V2000
  129.9230  128.1460   71.0980 C   0  0  0  0  0  0  0  0  0  0  0  0
  129.5220  127.3190   69.8940 C   0  0  0  0  0  0  0  0  0  0  0  0
  130.1740  127.3140   68.7180 C   0  0  0  0  0  0  0  0  0  0  0  0
  129.7580  126.5080   67.5870 C   0  0  0  0  0  0  0  0  0  0  0  0
  130.5970  125.6970   66.9170 C   0  0  0  0  0  0  0  0  0  0  0  0
  130.1820  124.8900   65.7860 C   0  0  0  0  0  0  0  0  0  0  0  0
  130.7310  125.0080   64.5640 C   0  0  0  0  0  0  0  0  0  0  0  0
  130.3270  124.1870   63.3470 C   0  0  2  0  0  0  0  0  0  0  0  0
  128.8060  123.9150   63.4360 C   0  0  0  0  0  0  0  0  0  0  0  0
  128.3090  123.0940   62.2310 C   0  0  2  0  0  0  0  0  0  0  0  0
  126.9190  122.8520   62.3520 O   0  0  0  0  0  0  0  0  0  0  0  0
  129.1070  121.7740   62.0610 C   0  0  1  0  0  0  0  0  0  0  0  0
  128.7050  121.0400   60.9140 O   0  0  0  0  0  0  0  0  0  0  0  0
  130.6320  122.0280   62.0310 C   0  0  0  0  0  0  0  0  0  0  0  0
  131.3650  121.6020   61.1340 O   0  0  0  0  0  0  0  0  0  0  0  0
  131.1490  122.8610   63.2360 C   0  0  1  0  0  0  0  0  0  0  0  0
  132.6910  123.0630   63.1410 C   0  0  0  0  0  0  0  0  0  0  0  0
  133.2380  123.5360   64.3540 O   0  0  0  0  0  0  0  0  0  0  0  0
  129.6604  127.6044   72.0187 H   0  0  0  0  0  0  0  0  0  0  0  0
  131.0081  128.3252   71.0748 H   0  0  0  0  0  0  0  0  0  0  0  0
  129.3918  129.1089   71.0748 H   0  0  0  0  0  0  0  0  0  0  0  0
  128.6340  126.6767   69.9884 H   0  0  0  0  0  0  0  0  0  0  0  0
  131.0642  127.9509   68.6091 H   0  0  0  0  0  0  0  0  0  0  0  0
  128.7086  126.5619   67.2617 H   0  0  0  0  0  0  0  0  0  0  0  0
  131.6464  125.6437   67.2424 H   0  0  0  0  0  0  0  0  0  0  0  0
  129.3830  124.1487   65.9341 H   0  0  0  0  0  0  0  0  0  0  0  0
  131.5306  125.7522   64.4342 H   0  0  0  0  0  0  0  0  0  0  0  0
  130.5509  124.7521   62.4302 H   0  0  0  0  0  0  0  0  0  0  0  0
  128.5960  123.3567   64.3602 H   0  0  0  0  0  0  0  0  0  0  0  0
  128.2814  124.8818   63.4355 H   0  0  0  0  0  0  0  0  0  0  0  0
  128.4833  123.6823   61.3180 H   0  0  0  0  0  0  0  0  0  0  0  0
  126.5100  123.6180   62.7590 H   0  0  0  0  0  0  0  0  0  0  0  0
  128.8745  121.1611   62.9444 H   0  0  0  0  0  0  0  0  0  0  0  0
  129.4800  120.6170   60.5370 H   0  0  0  0  0  0  0  0  0  0  0  0
  130.9873  122.3178   64.1787 H   0  0  0  0  0  0  0  0  0  0  0  0
  133.1606  122.1002   62.8911 H   0  0  0  0  0  0  0  0  0  0  0  0
  132.8880  123.8154   62.3631 H   0  0  0  0  0  0  0  0  0  0  0  0
  132.5900  123.4140   65.0510 H   0  0  0  0  0  0  0  0  0  0  0  0
  1  2  1  0
  2  3  2  0
  3  4  1  0
  4  5  2  0
  5  6  1  0
  6  7  2  0
  7  8  1  0
  8  9  1  0
  9 10  1  0
 10 11  1  0
 10 12  1  0
 12 13  1  0
 12 14  1  0
 14 15  2  0
 14 16  1  0
 16 17  1  0
 17 18  1  0
 16  8  1  0
  1 19  1  0
  1 20  1  0
  1 21  1  0
  2 22  1  0
  3 23  1  0
  4 24  1  0
  5 25  1  0
  6 26  1  0
  7 27  1  0
  8 28  1  6
  9 29  1  0
  9 30  1  0
 10 31  1  6
 11 32  1  0
 12 33  1  1
 13 34  1  0
 16 35  1  1
 17 36  1  0
 17 37  1  0
 18 38  1  0
M  END
>  <Binding energies>  (1) 
[-6.16]

>  <Ligand effiencies>  (1) 
[-0.29333333333333333]

>  <Interactions>  (1) 
["V-A:HIS:456:CE1:4070, V-A:GLY:454:CA:4049, H-B:GLU:543:OE1:9881, V-A:GLU:543:C:4902, V-B:GLU:543:CB:9878, H-B:TYR:539:O:9840, H-B:ALA:541:N:9863, V-B:GLU:543:CD:9880, V-B:ALA:541:CB:9864, V-A:GLU:543:CB:4906, V-A:LEU:475:CD2:4259, H-B:ALA:541:O:9861, V-B:GLU:543:CG:9879, H-A:GLY:454:N:4050, H-A:TYR:484:OH:4348"]

$$$$
ZINC2356731072
     RDKit          3D

 83 86  0  0  0  0  0  0  0  0999 V2000
  129.8380  119.6070   61.6430 C   0  0  0  0  0  0  0  0  0  0  0  0
  129.8780  120.7340   60.7750 O   0  0  0  0  0  0  0  0  0  0  0  0
  129.3210  121.9310   61.1910 C   0  0  0  0  0  0  0  0  0  0  0  0
  129.5240  122.4880   62.4670 C   0  0  0  0  0  0  0  0  0  0  0  0
  128.9280  123.7010   62.8240 C   0  0  0  0  0  0  0  0  0  0  0  0
  129.1530  124.2810   64.2110 C   0  0  0  0  0  0  0  0  0  0  0  0
  130.2520  123.5320   64.9920 C   0  0  0  0  0  0  0  0  0  0  0  0
  130.8950  124.3940   66.1010 C   0  0  2  0  0  0  0  0  0  0  0  0
  129.8630  124.9830   67.0940 C   0  0  0  0  0  0  0  0  0  0  0  0
  129.8540  126.5300   67.2830 C   0  0  2  0  0  0  0  0  0  0  0  0
  129.7100  126.7750   68.6880 O   0  0  0  0  0  0  0  0  0  0  0  0
  130.4970  127.6540   69.3530 C   0  0  0  0  0  0  0  0  0  0  0  0
  129.7380  128.3980   70.4430 C   0  0  0  0  0  0  0  0  0  0  0  0
  131.6920  127.8670   69.1420 O   0  0  0  0  0  0  0  0  0  0  0  0
  128.7280  127.2750   66.4830 C   0  0  1  0  0  0  0  0  0  0  0  0
  128.4800  128.7370   66.9320 C   0  0  0  0  0  0  0  0  0  0  0  0
  127.2200  129.3100   66.2640 C   0  0  0  0  0  0  0  0  0  0  0  0
  127.2390  129.1260   64.7480 C   0  0  0  0  0  0  0  0  0  0  0  0
  126.3950  129.8940   63.9410 C   0  0  0  0  0  0  0  0  0  0  0  0
  126.3410  129.7060   62.5620 C   0  0  0  0  0  0  0  0  0  0  0  0
  125.4870  130.4790   61.8170 O   0  0  0  0  0  0  0  0  0  0  0  0
  127.1400  128.7380   61.9490 C   0  0  0  0  0  0  0  0  0  0  0  0
  127.0390  128.5990   60.5760 O   0  0  0  0  0  0  0  0  0  0  0  0
  126.5540  127.3760   60.0310 C   0  0  0  0  0  0  0  0  0  0  0  0
  127.9950  127.9730   62.7560 C   0  0  0  0  0  0  0  0  0  0  0  0
  128.0660  128.1540   64.1430 C   0  0  0  0  0  0  0  0  0  0  0  0
  129.0670  127.3400   64.9680 C   0  0  0  0  0  0  0  0  0  0  0  0
  131.6190  125.4470   65.4600 O   0  0  0  0  0  0  0  0  0  0  0  0
  132.5490  125.2000   64.5100 C   0  0  0  0  0  0  0  0  0  0  0  0
  133.6880  124.7700   64.7000 O   0  0  0  0  0  0  0  0  0  0  0  0
  132.0280  125.4840   63.0990 C   0  0  0  0  0  0  0  0  0  0  0  0
  132.5920  124.4560   62.1290 C   0  0  0  0  0  0  0  0  0  0  0  0
  132.5060  123.0910   62.4190 C   0  0  0  0  0  0  0  0  0  0  0  0
  133.0150  122.1510   61.5230 C   0  0  0  0  0  0  0  0  0  0  0  0
  133.6070  122.5710   60.3330 C   0  0  0  0  0  0  0  0  0  0  0  0
  133.6960  123.9330   60.0240 C   0  0  0  0  0  0  0  0  0  0  0  0
  134.3500  124.3420   58.7050 C   0  0  0  0  0  0  0  0  0  0  0  0
  133.6430  123.9710   57.5360 O   0  0  0  0  0  0  0  0  0  0  0  0
  133.1810  124.8720   60.9300 C   0  0  0  0  0  0  0  0  0  0  0  0
  128.1200  124.3710   61.9030 C   0  0  0  0  0  0  0  0  0  0  0  0
  127.9100  123.8310   60.6360 C   0  0  0  0  0  0  0  0  0  0  0  0
  128.5070  122.6200   60.2800 C   0  0  0  0  0  0  0  0  0  0  0  0
  128.2840  122.1140   59.0260 O   0  0  0  0  0  0  0  0  0  0  0  0
  129.8501  119.9488   62.6885 H   0  0  0  0  0  0  0  0  0  0  0  0
  128.9189  119.0324   61.4557 H   0  0  0  0  0  0  0  0  0  0  0  0
  130.7141  118.9687   61.4557 H   0  0  0  0  0  0  0  0  0  0  0  0
  130.1604  121.9617   63.1936 H   0  0  0  0  0  0  0  0  0  0  0  0
  129.4489  125.3355   64.1089 H   0  0  0  0  0  0  0  0  0  0  0  0
  128.2133  124.1779   64.7734 H   0  0  0  0  0  0  0  0  0  0  0  0
  129.8068  122.6391   65.4552 H   0  0  0  0  0  0  0  0  0  0  0  0
  131.0451  123.2696   64.2763 H   0  0  0  0  0  0  0  0  0  0  0  0
  131.5558  123.7531   66.7031 H   0  0  0  0  0  0  0  0  0  0  0  0
  128.8627  124.6871   66.7449 H   0  0  0  0  0  0  0  0  0  0  0  0
  130.1545  124.5807   68.0754 H   0  0  0  0  0  0  0  0  0  0  0  0
  130.7947  126.9319   66.8786 H   0  0  0  0  0  0  0  0  0  0  0  0
  130.0855  128.0574   71.4295 H   0  0  0  0  0  0  0  0  0  0  0  0
  129.9188  129.4785   70.3435 H   0  0  0  0  0  0  0  0  0  0  0  0
  128.6614  128.1957   70.3435 H   0  0  0  0  0  0  0  0  0  0  0  0
  127.8253  126.6806   66.6872 H   0  0  0  0  0  0  0  0  0  0  0  0
  128.3513  128.7613   68.0242 H   0  0  0  0  0  0  0  0  0  0  0  0
  129.3447  129.3477   66.6332 H   0  0  0  0  0  0  0  0  0  0  0  0
  126.3372  128.7964   66.6726 H   0  0  0  0  0  0  0  0  0  0  0  0
  127.1866  130.3893   66.4737 H   0  0  0  0  0  0  0  0  0  0  0  0
  125.7600  130.6632   64.4048 H   0  0  0  0  0  0  0  0  0  0  0  0
  125.5100  130.2540   60.8840 H   0  0  0  0  0  0  0  0  0  0  0  0
  126.2828  126.6922   60.8488 H   0  0  0  0  0  0  0  0  0  0  0  0
  125.6674  127.5767   59.4116 H   0  0  0  0  0  0  0  0  0  0  0  0
  127.3372  126.9145   59.4116 H   0  0  0  0  0  0  0  0  0  0  0  0
  128.6292  127.2075   62.2851 H   0  0  0  0  0  0  0  0  0  0  0  0
  129.0876  126.3135   64.5733 H   0  0  0  0  0  0  0  0  0  0  0  0
  130.0398  127.8457   64.8797 H   0  0  0  0  0  0  0  0  0  0  0  0
  130.9295  125.4259   63.0960 H   0  0  0  0  0  0  0  0  0  0  0  0
  132.3448  126.4907   62.7888 H   0  0  0  0  0  0  0  0  0  0  0  0
  132.0359  122.7576   63.3559 H   0  0  0  0  0  0  0  0  0  0  0  0
  132.9492  121.0779   61.7555 H   0  0  0  0  0  0  0  0  0  0  0  0
  134.0077  121.8253   59.6306 H   0  0  0  0  0  0  0  0  0  0  0  0
  134.4564  125.4368   58.7041 H   0  0  0  0  0  0  0  0  0  0  0  0
  135.3089  123.8046   58.6627 H   0  0  0  0  0  0  0  0  0  0  0  0
  134.0720  124.3750   56.7780 H   0  0  0  0  0  0  0  0  0  0  0  0
  133.2408  125.9451   60.6957 H   0  0  0  0  0  0  0  0  0  0  0  0
  127.6488  125.3261   62.1782 H   0  0  0  0  0  0  0  0  0  0  0  0
  127.2716  124.3606   59.9135 H   0  0  0  0  0  0  0  0  0  0  0  0
  128.6260  121.2230   58.9220 H   0  0  0  0  0  0  0  0  0  0  0  0
  1  2  1  0
  2  3  1  0
  3  4  2  0
  4  5  1  0
  5  6  1  0
  6  7  1  0
  7  8  1  0
  8  9  1  0
  9 10  1  0
 10 11  1  0
 11 12  1  0
 12 13  1  0
 12 14  2  0
 10 15  1  0
 15 16  1  0
 16 17  1  0
 17 18  1  0
 18 19  2  0
 19 20  1  0
 20 21  1  0
 20 22  2  0
 22 23  1  0
 23 24  1  0
 22 25  1  0
 25 26  2  0
 26 27  1  0
  8 28  1  0
 28 29  1  0
 29 30  2  0
 29 31  1  0
 31 32  1  0
 32 33  2  0
 33 34  1  0
 34 35  2  0
 35 36  1  0
 36 37  1  0
 37 38  1  0
 36 39  2  0
  5 40  2  0
 40 41  1  0
 41 42  2  0
 42 43  1  0
 42  3  1  0
 27 15  1  0
 39 32  1  0
 26 18  1  0
  1 44  1  0
  1 45  1  0
  1 46  1  0
  4 47  1  0
  6 48  1  0
  6 49  1  0
  7 50  1  0
  7 51  1  0
  8 52  1  1
  9 53  1  0
  9 54  1  0
 10 55  1  6
 13 56  1  0
 13 57  1  0
 13 58  1  0
 15 59  1  6
 16 60  1  0
 16 61  1  0
 17 62  1  0
 17 63  1  0
 19 64  1  0
 21 65  1  0
 24 66  1  0
 24 67  1  0
 24 68  1  0
 25 69  1  0
 27 70  1  0
 27 71  1  0
 31 72  1  0
 31 73  1  0
 33 74  1  0
 34 75  1  0
 35 76  1  0
 37 77  1  0
 37 78  1  0
 38 79  1  0
 39 80  1  0
 40 81  1  0
 41 82  1  0
 43 83  1  0
M  END
>  <Binding energies>  (1) 
[-6.94]

>  <Ligand effiencies>  (1) 
[-0.1508695652173913]

>  <Interactions>  (1) 
["V-A:ILE:369:CG2:3237, V-A:ASP:366:CA:3210, V-B:PRO:540:CA:9855, V-A:ILE:369:CB:3236, V-A:GLU:543:C:4902, V-B:GLU:543:CB:9878, V-B:ALA:541:CB:9864, V-B:ASP:366:CG:8184, V-B:TYR:539:CE2:9848, V-A:TYR:484:CE2:4346, V-B:GLU:543:CG:9879, V-A:ASP:366:CG:3213, H-A:ARG:545:N:4920, H-A:ASN:370:N:3244, H-B:TYR:539:OH:9850, V-A:TYR:484:CZ:4347, V-A:GLU:543:CD:4908, V-B:GLU:543:CA:9876, H-A:GLY:454:N:4050, V-B:HIS:456:CE1:9041, V-A:HIS:456:CE1:4070, V-B:TYR:484:CZ:9318, V-A:ILE:369:CD1:3239, V-A:ASP:366:C:3208, V-B:TYR:539:CD2:9846, V-A:GLU:543:CG:4907, V-B:GLU:543:CD:9880, V-A:ASP:366:CB:3212, V-A:LEU:475:CD2:4259, H-A:ARG:545:NH2:4928, V-A:ARG:545:CZ:4926, H-A:ASP:366:O:3209, V-A:GLU:543:CB:4906, H-B:TYR:539:O:9840, H-A:ARG:545:NE:4924, H-A:TYR:484:OH:4348"]

$$$$
ZINC2356734073
     RDKit          3D

 61 67  0  0  0  0  0  0  0  0999 V2000
  126.0790  122.2430   56.3990 C   0  0  0  0  0  0  0  0  0  0  0  0
  127.5350  122.5490   56.7840 C   0  0  2  0  0  0  0  0  0  0  0  0
  128.0740  121.8310   57.8660 O   0  0  0  0  0  0  0  0  0  0  0  0
  127.8870  123.2080   58.0850 C   0  0  1  0  0  0  0  0  0  0  0  0
  129.1770  124.0400   58.3260 C   0  0  1  0  0  0  0  0  0  0  0  0
  128.9120  125.4080   58.3470 O   0  0  0  0  0  0  0  0  0  0  0  0
  128.0720  125.6250   59.4790 C   0  0  1  0  0  0  0  0  0  0  0  0
  126.6780  125.1640   58.9870 C   0  0  0  0  0  0  0  0  0  0  0  0
  126.8240  123.6310   59.1500 C   0  0  2  0  0  0  0  0  0  0  0  0
  127.3620  123.5150   60.6190 C   0  0  1  0  0  0  0  0  0  0  0  0
  126.2130  123.9360   61.5980 C   0  0  0  0  0  0  0  0  0  0  0  0
  127.9570  122.1670   61.1170 C   0  0  0  0  0  0  0  0  0  0  0  0
  128.7510  122.3440   62.4480 C   0  0  0  0  0  0  0  0  0  0  0  0
  129.8560  123.4610   62.4210 C   0  0  1  0  0  0  0  0  0  0  0  0
  129.3550  124.8060   61.7630 C   0  0  2  0  0  0  0  0  0  0  0  0
  128.6560  125.7170   62.7970 C   0  0  0  0  0  0  0  0  0  0  0  0
  129.5620  125.9830   64.0000 C   0  0  0  0  0  0  0  0  0  0  0  0
  129.9790  124.6620   64.7020 C   0  0  2  0  0  0  0  0  0  0  0  0
  130.8260  124.9510   65.9720 C   0  0  0  0  0  0  0  0  0  0  0  0
  132.2530  125.4690   65.6630 C   0  0  1  0  0  0  0  0  0  0  0  0
  133.0170  125.5530   66.8480 O   0  0  0  0  0  0  0  0  0  0  0  0
  132.9920  124.6210   64.6010 C   0  0  0  0  0  0  0  0  0  0  0  0
  132.1020  124.3100   63.3760 C   0  0  0  0  0  0  0  0  0  0  0  0
  130.7220  123.6690   63.7340 C   0  0  2  0  0  0  0  0  0  0  0  0
  130.9440  122.2960   64.4380 C   0  0  0  0  0  0  0  0  0  0  0  0
  128.5540  124.5090   60.4620 C   0  0  2  0  0  0  0  0  0  0  0  0
  129.5510  123.8740   59.6370 O   0  0  0  0  0  0  0  0  0  0  0  0
  125.4774  122.1166   57.3112 H   0  0  0  0  0  0  0  0  0  0  0  0
  125.6740  123.0757   55.8051 H   0  0  0  0  0  0  0  0  0  0  0  0
  126.0435  121.3178   55.8051 H   0  0  0  0  0  0  0  0  0  0  0  0
  127.7849  122.7542   55.7326 H   0  0  0  0  0  0  0  0  0  0  0  0
  129.8908  123.7296   57.5487 H   0  0  0  0  0  0  0  0  0  0  0  0
  128.0746  126.6411   59.9004 H   0  0  0  0  0  0  0  0  0  0  0  0
  125.8703  125.5657   59.6165 H   0  0  0  0  0  0  0  0  0  0  0  0
  126.4128  125.4973   57.9728 H   0  0  0  0  0  0  0  0  0  0  0  0
  125.9285  123.0087   59.0056 H   0  0  0  0  0  0  0  0  0  0  0  0
  126.5525  123.8116   62.6369 H   0  0  0  0  0  0  0  0  0  0  0  0
  125.9490  124.9893   61.4222 H   0  0  0  0  0  0  0  0  0  0  0  0
  125.3310  123.3026   61.4222 H   0  0  0  0  0  0  0  0  0  0  0  0
  127.1356  121.4547   61.2839 H   0  0  0  0  0  0  0  0  0  0  0  0
  128.6519  121.7945   60.3499 H   0  0  0  0  0  0  0  0  0  0  0  0
  128.0327  122.5942   63.2427 H   0  0  0  0  0  0  0  0  0  0  0  0
  129.2792  121.3943   62.6184 H   0  0  0  0  0  0  0  0  0  0  0  0
  130.6076  123.0301   61.7432 H   0  0  0  0  0  0  0  0  0  0  0  0
  130.2154  125.4061   61.4319 H   0  0  0  0  0  0  0  0  0  0  0  0
  128.4036  126.6750   62.3189 H   0  0  0  0  0  0  0  0  0  0  0  0
  127.7466  125.2092   63.1508 H   0  0  0  0  0  0  0  0  0  0  0  0
  130.4667  126.5066   63.6572 H   0  0  0  0  0  0  0  0  0  0  0  0
  129.0044  126.5967   64.7228 H   0  0  0  0  0  0  0  0  0  0  0  0
  129.0508  124.1595   65.0117 H   0  0  0  0  0  0  0  0  0  0  0  0
  130.3034  125.7098   66.5729 H   0  0  0  0  0  0  0  0  0  0  0  0
  130.9388  123.9969   66.5077 H   0  0  0  0  0  0  0  0  0  0  0  0
  132.1339  126.4745   65.2331 H   0  0  0  0  0  0  0  0  0  0  0  0
  132.7370  124.8530   67.4410 H   0  0  0  0  0  0  0  0  0  0  0  0
  133.8801  125.1744   64.2617 H   0  0  0  0  0  0  0  0  0  0  0  0
  133.2691  123.6641   65.0675 H   0  0  0  0  0  0  0  0  0  0  0  0
  131.9162  125.2505   62.8367 H   0  0  0  0  0  0  0  0  0  0  0  0
  132.6460  123.5715   62.7688 H   0  0  0  0  0  0  0  0  0  0  0  0
  130.9215  122.4354   65.5289 H   0  0  0  0  0  0  0  0  0  0  0  0
  130.1470  121.5985   64.1409 H   0  0  0  0  0  0  0  0  0  0  0  0
  131.9202  121.8852   64.1409 H   0  0  0  0  0  0  0  0  0  0  0  0
  1  2  1  0
  2  3  1  0
  4  3  1  1
  4  5  1  0
  5  6  1  0
  6  7  1  0
  7  8  1  0
  8  9  1  0
  9 10  1  0
 10 11  1  1
 10 12  1  0
 12 13  1  0
 13 14  1  0
 14 15  1  0
 15 16  1  0
 16 17  1  0
 17 18  1  0
 18 19  1  0
 19 20  1  0
 20 21  1  0
 20 22  1  0
 22 23  1  0
 23 24  1  0
 24 25  1  1
 15 26  1  0
 26 27  1  6
  4  2  1  0
 27  5  1  0
  9  4  1  0
 26 10  1  0
 26  7  1  0
 24 14  1  0
 24 18  1  0
  1 28  1  0
  1 29  1  0
  1 30  1  0
  2 31  1  6
  5 32  1  6
  7 33  1  1
  8 34  1  0
  8 35  1  0
  9 36  1  1
 11 37  1  0
 11 38  1  0
 11 39  1  0
 12 40  1  0
 12 41  1  0
 13 42  1  0
 13 43  1  0
 14 44  1  6
 15 45  1  6
 16 46  1  0
 16 47  1  0
 17 48  1  0
 17 49  1  0
 18 50  1  1
 19 51  1  0
 19 52  1  0
 20 53  1  6
 21 54  1  0
 22 55  1  0
 22 56  1  0
 23 57  1  0
 23 58  1  0
 25 59  1  0
 25 60  1  0
 25 61  1  0
M  END
>  <Binding energies>  (1) 
[-7.88]

>  <Ligand effiencies>  (1) 
[-0.2814285714285714]

>  <Interactions>  (1) 
["V-B:PRO:540:CA:9855, V-B:ALA:541:CB:9864, V-B:TYR:539:CE2:9848, V-A:TYR:484:CE2:4346, H-B:TYR:539:N:9842, V-B:GLU:543:CG:9879, V-B:TYR:539:C:9839, V-B:TYR:539:CZ:9849, V-B:ILE:538:CG2:9835, V-A:TYR:484:CZ:4347, V-B:PRO:540:CB:9857, V-A:GLU:543:CD:4908, V-B:PRO:540:N:9856, V-B:PRO:540:CD:9859, V-B:TYR:539:CD2:9846, V-B:GLU:543:CD:9880, V-A:LEU:475:CD2:4259, V-A:ARG:545:CZ:4926, V-B:TYR:539:CG:9844, V-B:TYR:539:CD1:9845, H-A:ARG:545:NE:4924, V-B:PRO:540:C:9853, V-B:MET:535:CE:9807, V-B:TYR:539:CE1:9847, H-A:TYR:484:OH:4348"]

$$$$
ZINC2356736076
     RDKit          3D

118123  0  0  0  0  0  0  0  0999 V2000
  125.4950  133.9800   60.8150 C   0  0  0  0  0  0  0  0  0  0  0  0
  126.6190  133.3030   61.1230 C   0  0  0  0  0  0  0  0  0  0  0  0
  126.5820  131.8460   61.0460 C   0  0  0  0  0  0  0  0  0  0  0  0
  125.5230  131.0830   60.7090 C   0  0  0  0  0  0  0  0  0  0  0  0
  125.6470  129.6430   60.5500 C   0  0  0  0  0  0  0  0  0  0  0  0
  126.2740  128.9740   59.5490 C   0  0  0  0  0  0  0  0  0  0  0  0
  126.3490  127.4280   59.5030 C   0  0  2  0  0  0  0  0  0  0  0  0
  126.1880  126.6990   60.8460 C   0  0  0  0  0  0  0  0  0  0  0  0
  126.8210  125.3410   60.6030 C   0  0  0  0  0  0  0  0  0  0  0  0
  128.1050  125.5870   59.7510 C   0  0  1  0  0  0  0  0  0  0  0  0
  129.3140  126.0200   60.6990 C   0  0  2  0  0  0  0  0  0  0  0  0
  130.6450  126.5830   60.1000 C   0  0  0  0  0  0  0  0  0  0  0  0
  130.6980  126.5850   58.5540 C   0  0  0  0  0  0  0  0  0  0  0  0
  132.0620  126.1890   57.9630 C   0  0  0  0  0  0  0  0  0  0  0  0
  132.3900  124.8530   58.2870 O   0  0  0  0  0  0  0  0  0  0  0  0
  129.6470  124.8860   61.6970 C   0  0  0  0  0  0  0  0  0  0  0  0
  129.5820  125.0030   63.0610 C   0  0  0  0  0  0  0  0  0  0  0  0
  129.8500  123.8400   63.9110 C   0  0  0  0  0  0  0  0  0  0  0  0
  129.0140  122.9490   64.0730 O   0  0  0  0  0  0  0  0  0  0  0  0
  131.2290  123.7820   64.5980 C   0  0  0  0  0  0  0  0  0  0  0  0
  132.3870  123.7340   63.5990 C   0  0  0  0  0  0  0  0  0  0  0  0
  133.3850  124.7080   63.6740 C   0  0  0  0  0  0  0  0  0  0  0  0
  134.4520  124.6950   62.7770 C   0  0  0  0  0  0  0  0  0  0  0  0
  134.5280  123.7070   61.7970 C   0  0  0  0  0  0  0  0  0  0  0  0
  133.5460  122.7160   61.6960 C   0  0  0  0  0  0  0  0  0  0  0  0
  132.4630  122.7500   62.5980 C   0  0  0  0  0  0  0  0  0  0  0  0
  131.4600  121.7890   62.5680 O   0  0  0  0  0  0  0  0  0  0  0  0
  131.2810  120.9650   61.4880 C   0  0  0  0  0  0  0  0  0  0  0  0
  130.2570  120.2900   61.4280 O   0  0  0  0  0  0  0  0  0  0  0  0
  132.3020  120.9420   60.5450 N   0  0  0  0  0  0  0  0  0  0  0  0
  133.5880  121.6320   60.6180 C   0  0  2  0  0  0  0  0  0  0  0  0
  134.5900  120.6210   60.8860 N   0  0  0  0  0  0  0  0  0  0  0  0
  129.2370  126.2810   63.8630 C   0  0  0  0  0  0  0  0  0  0  0  0
  128.0280  127.0620   63.3040 C   0  0  0  0  0  0  0  0  0  0  0  0
  127.9960  128.4720   63.9310 C   0  0  0  0  0  0  0  0  0  0  0  0
  127.9700  128.4040   65.4780 C   0  0  0  0  0  0  0  0  0  0  0  0
  129.0750  127.4950   66.0730 C   0  0  0  0  0  0  0  0  0  0  0  0
  129.0960  126.1060   65.3960 C   0  0  0  0  0  0  0  0  0  0  0  0
  130.0650  123.6150   60.9330 C   0  0  0  0  0  0  0  0  0  0  0  0
  128.9360  123.1670   59.9890 C   0  0  0  0  0  0  0  0  0  0  0  0
  128.4440  124.2380   58.9750 C   0  0  1  0  0  0  0  0  0  0  0  0
  127.3860  123.5560   58.0620 C   0  0  0  0  0  0  0  0  0  0  0  0
  129.5190  124.5330   58.0990 O   0  0  0  0  0  0  0  0  0  0  0  0
  127.6540  126.8390   58.8850 C   0  0  1  0  0  0  0  0  0  0  0  0
  127.5080  126.6260   57.4940 O   0  0  0  0  0  0  0  0  0  0  0  0
  126.8330  129.6820   58.3040 C   0  0  0  0  0  0  0  0  0  0  0  0
  127.5430  128.8530   57.3790 O   0  0  0  0  0  0  0  0  0  0  0  0
  128.9520  129.0400   57.2570 C   0  0  0  0  0  0  0  0  0  0  0  0
  129.6060  129.2510   58.5580 C   0  0  0  0  0  0  0  0  0  0  0  0
  129.9770  129.4750   59.6990 C   0  0  0  0  0  0  0  0  0  0  0  0
  130.3090  129.9590   61.0540 C   0  0  0  0  0  0  0  0  0  0  0  0
  130.0280  131.4520   61.3030 C   0  0  0  0  0  0  0  0  0  0  0  0
  130.9620  132.3670   60.5210 C   0  0  0  0  0  0  0  0  0  0  0  0
  129.0870  131.9040   62.1740 C   0  0  0  0  0  0  0  0  0  0  0  0
  128.7500  133.3360   62.5610 C   0  0  0  0  0  0  0  0  0  0  0  0
  127.8690  134.0750   61.5300 C   0  0  0  0  0  0  0  0  0  0  0  0
  125.4847  135.0790   60.8616 H   0  0  0  0  0  0  0  0  0  0  0  0
  124.5880  133.4336   60.5171 H   0  0  0  0  0  0  0  0  0  0  0  0
  127.5148  131.3156   61.2880 H   0  0  0  0  0  0  0  0  0  0  0  0
  124.5444  131.5598   60.5510 H   0  0  0  0  0  0  0  0  0  0  0  0
  125.1791  129.0249   61.3303 H   0  0  0  0  0  0  0  0  0  0  0  0
  125.4785  127.2418   58.8568 H   0  0  0  0  0  0  0  0  0  0  0  0
  126.7130  127.2374   61.6488 H   0  0  0  0  0  0  0  0  0  0  0  0
  125.1380  126.6263   61.1658 H   0  0  0  0  0  0  0  0  0  0  0  0
  127.0868  124.8704   61.5611 H   0  0  0  0  0  0  0  0  0  0  0  0
  126.1241  124.6688   60.0809 H   0  0  0  0  0  0  0  0  0  0  0  0
  128.8830  126.9199   61.1621 H   0  0  0  0  0  0  0  0  0  0  0  0
  130.7692  127.6184   60.4501 H   0  0  0  0  0  0  0  0  0  0  0  0
  131.4504  125.9161   60.4414 H   0  0  0  0  0  0  0  0  0  0  0  0
  129.9436  125.8754   58.1832 H   0  0  0  0  0  0  0  0  0  0  0  0
  130.5071  127.6204   58.2353 H   0  0  0  0  0  0  0  0  0  0  0  0
  132.0231  126.2938   56.8687 H   0  0  0  0  0  0  0  0  0  0  0  0
  132.8315  126.8500   58.3884 H   0  0  0  0  0  0  0  0  0  0  0  0
  131.5790  124.3800   58.4900 H   0  0  0  0  0  0  0  0  0  0  0  0
  131.3455  124.6758   65.2286 H   0  0  0  0  0  0  0  0  0  0  0  0
  131.2649  122.8566   65.1916 H   0  0  0  0  0  0  0  0  0  0  0  0
  133.3288  125.4901   64.4455 H   0  0  0  0  0  0  0  0  0  0  0  0
  135.2346  125.4652   62.8427 H   0  0  0  0  0  0  0  0  0  0  0  0
  135.3728  123.7065   61.0925 H   0  0  0  0  0  0  0  0  0  0  0  0
  132.1240  120.3880   59.7200 H   0  0  0  0  0  0  0  0  0  0  0  0
  133.8296  122.1487   59.6774 H   0  0  0  0  0  0  0  0  0  0  0  0
  135.5020  121.0520   60.9480 H   0  0  0  0  0  0  0  0  0  0  0  0
  134.4090  120.1800   61.7770 H   0  0  0  0  0  0  0  0  0  0  0  0
  130.1442  126.8841   63.7108 H   0  0  0  0  0  0  0  0  0  0  0  0
  128.1198  127.1480   62.2112 H   0  0  0  0  0  0  0  0  0  0  0  0
  127.0987  126.5280   63.5514 H   0  0  0  0  0  0  0  0  0  0  0  0
  128.8917  129.0254   63.6124 H   0  0  0  0  0  0  0  0  0  0  0  0
  127.0811  128.9800   63.5921 H   0  0  0  0  0  0  0  0  0  0  0  0
  128.1048  129.4214   65.8740 H   0  0  0  0  0  0  0  0  0  0  0  0
  127.0017  127.9698   65.7676 H   0  0  0  0  0  0  0  0  0  0  0  0
  130.0521  127.9784   65.9260 H   0  0  0  0  0  0  0  0  0  0  0  0
  128.8636  127.3526   67.1431 H   0  0  0  0  0  0  0  0  0  0  0  0
  129.9477  125.5244   65.7786 H   0  0  0  0  0  0  0  0  0  0  0  0
  128.1592  125.5747   65.6199 H   0  0  0  0  0  0  0  0  0  0  0  0
  130.9692  123.8264   60.3433 H   0  0  0  0  0  0  0  0  0  0  0  0
  130.2677  122.8117   61.6566 H   0  0  0  0  0  0  0  0  0  0  0  0
  129.2973  122.2998   59.4168 H   0  0  0  0  0  0  0  0  0  0  0  0
  128.0736  122.9453   60.6349 H   0  0  0  0  0  0  0  0  0  0  0  0
  126.6247  123.0653   58.6862 H   0  0  0  0  0  0  0  0  0  0  0  0
  126.9058  124.3150   57.4270 H   0  0  0  0  0  0  0  0  0  0  0  0
  127.8790  122.8052   57.4270 H   0  0  0  0  0  0  0  0  0  0  0  0
  129.2330  125.2140   57.4870 H   0  0  0  0  0  0  0  0  0  0  0  0
  128.4888  127.5534   58.9378 H   0  0  0  0  0  0  0  0  0  0  0  0
  126.9380  127.3130   57.1410 H   0  0  0  0  0  0  0  0  0  0  0  0
  125.9877  130.1379   57.7677 H   0  0  0  0  0  0  0  0  0  0  0  0
  127.5699  130.4070   58.6799 H   0  0  0  0  0  0  0  0  0  0  0  0
  129.3869  128.1472   56.7840 H   0  0  0  0  0  0  0  0  0  0  0  0
  129.1186  129.9411   56.6485 H   0  0  0  0  0  0  0  0  0  0  0  0
  129.7198  129.3764   61.7775 H   0  0  0  0  0  0  0  0  0  0  0  0
  131.3955  129.8295   61.1671 H   0  0  0  0  0  0  0  0  0  0  0  0
  131.5670  132.9597   61.2228 H   0  0  0  0  0  0  0  0  0  0  0  0
  131.6252  131.7594   59.8878 H   0  0  0  0  0  0  0  0  0  0  0  0
  130.3681  133.0425   59.8878 H   0  0  0  0  0  0  0  0  0  0  0  0
  128.4858  131.1261   62.6674 H   0  0  0  0  0  0  0  0  0  0  0  0
  128.2159  133.3178   63.5224 H   0  0  0  0  0  0  0  0  0  0  0  0
  129.7026  133.8833   62.6157 H   0  0  0  0  0  0  0  0  0  0  0  0
  127.5568  135.0356   61.9658 H   0  0  0  0  0  0  0  0  0  0  0  0
  128.4767  134.2022   60.6220 H   0  0  0  0  0  0  0  0  0  0  0  0
  1  2  2  0
  2  3  1  0
  3  4  2  0
  4  5  1  0
  5  6  2  0
  6  7  1  0
  7  8  1  0
  8  9  1  0
 10  9  1  1
 10 11  1  0
 11 12  1  0
 12 13  1  0
 13 14  1  0
 14 15  1  0
 11 16  1  0
 16 17  2  0
 17 18  1  0
 18 19  2  0
 18 20  1  0
 20 21  1  0
 21 22  2  0
 22 23  1  0
 23 24  2  0
 24 25  1  0
 25 26  2  0
 26 27  1  0
 27 28  1  0
 28 29  2  0
 28 30  1  0
 30 31  1  0
 31 32  1  0
 17 33  1  0
 33 34  1  0
 34 35  1  0
 35 36  1  0
 36 37  1  0
 37 38  1  0
 16 39  1  0
 39 40  1  0
 40 41  1  0
 41 42  1  0
 41 43  1  6
 10 44  1  0
 44 45  1  0
  6 46  1  0
 46 47  1  0
 47 48  1  0
 48 49  1  0
 49 50  3  0
 50 51  1  0
 51 52  1  0
 52 53  1  0
 52 54  2  0
 54 55  1  0
 55 56  1  0
 56  2  1  0
 44  7  1  0
 41 10  1  0
 26 21  1  0
 38 33  1  0
 31 25  1  0
  1 57  1  0
  1 58  1  0
  3 59  1  0
  4 60  1  0
  5 61  1  0
  7 62  1  6
  8 63  1  0
  8 64  1  0
  9 65  1  0
  9 66  1  0
 11 67  1  1
 12 68  1  0
 12 69  1  0
 13 70  1  0
 13 71  1  0
 14 72  1  0
 14 73  1  0
 15 74  1  0
 20 75  1  0
 20 76  1  0
 22 77  1  0
 23 78  1  0
 24 79  1  0
 30 80  1  0
 31 81  1  6
 32 82  1  0
 32 83  1  0
 33 84  1  0
 34 85  1  0
 34 86  1  0
 35 87  1  0
 35 88  1  0
 36 89  1  0
 36 90  1  0
 37 91  1  0
 37 92  1  0
 38 93  1  0
 38 94  1  0
 39 95  1  0
 39 96  1  0
 40 97  1  0
 40 98  1  0
 42 99  1  0
 42100  1  0
 42101  1  0
 43102  1  0
 44103  1  6
 45104  1  0
 46105  1  0
 46106  1  0
 48107  1  0
 48108  1  0
 51109  1  0
 51110  1  0
 53111  1  0
 53112  1  0
 53113  1  0
 54114  1  0
 55115  1  0
 55116  1  0
 56117  1  0
 56118  1  0
M  END
>  <Binding energies>  (1) 
[-4.31]

>  <Ligand effiencies>  (1) 
[-0.06734375]

>  <Interactions>  (1) 
["V-A:ILE:369:CG2:3237, V-B:GLU:543:CB:9878, V-A:PRO:540:C:4881, V-B:ASP:366:CG:8184, V-B:TYR:539:CE2:9848, V-B:GLU:543:CG:9879, V-B:LEU:475:CD2:9230, V-A:ASP:366:CG:3213, V-A:TYR:539:CD1:4873, H-B:TYR:539:OH:9850, V-A:ALA:541:CB:4892, V-A:TYR:484:CZ:4347, V-A:GLU:543:CD:4908, V-A:GLY:453:C:4042, V-A:ILE:369:CD1:3239, V-A:ALA:541:CA:4890, V-B:TYR:539:CD2:9846, V-A:GLU:543:CG:4907, H-A:SER:385:OG:3410, V-B:GLU:543:CD:9880, V-A:MET:535:CE:4835, H-B:TYR:531:OH:9767, V-A:ASP:366:CB:3212, V-A:LEU:475:CD2:4259, V-A:ARG:545:CZ:4926, V-A:PRO:540:N:4884, V-A:GLY:453:CA:4044, V-A:PRO:540:CB:4885, V-A:PRO:540:CA:4883, H-A:SER:385:O:3406, V-A:TYR:539:CE1:4875"]

$$$$
ZINC2356736705-again1
     RDKit          3D

 61 64  0  0  0  0  0  0  0  0999 V2000
  134.8640  124.5120   62.5110 C   0  0  0  0  0  0  0  0  0  0  0  0
  133.5540  124.7200   62.2570 C   0  0  0  0  0  0  0  0  0  0  0  0
  133.0510  124.6130   60.9770 N   0  0  0  0  0  0  0  0  0  0  0  0
  132.8080  123.3740   60.2470 C   0  0  0  0  0  0  0  0  0  0  0  0
  131.7410  122.4830   60.9110 C   0  0  2  0  0  0  0  0  0  0  0  0
  132.0810  120.9950   60.7280 C   0  0  0  0  0  0  0  0  0  0  0  0
  130.4090  122.7930   60.3980 N   0  0  0  0  0  0  0  0  0  0  0  0
  129.2040  122.1880   60.6900 C   0  0  0  0  0  0  0  0  0  0  0  0
  129.1040  121.0790   61.4510 C   0  0  0  0  0  0  0  0  0  0  0  0
  127.9830  122.7820   60.1600 C   0  0  0  0  0  0  0  0  0  0  0  0
  126.8610  123.1900   60.7880 C   0  0  0  0  0  0  0  0  0  0  0  0
  126.5230  123.2230   62.1040 O   0  0  0  0  0  0  0  0  0  0  0  0
  125.8310  123.7610   59.8390 C   0  0  0  0  0  0  0  0  0  0  0  0
  126.4730  123.6240   58.4560 C   0  0  2  0  0  0  0  0  0  0  0  0
  127.8150  122.9190   58.6480 C   0  0  1  0  0  0  0  0  0  0  0  0
  127.7690  124.3490   58.1400 C   0  0  0  0  0  0  0  0  0  0  0  0
  128.2520  125.5520   58.9920 C   0  0  0  0  0  0  0  0  0  0  0  0
  128.1090  124.5460   56.6510 C   0  0  0  0  0  0  0  0  0  0  0  0
  132.6460  125.0950   63.3480 C   0  0  0  0  0  0  0  0  0  0  0  0
  132.8620  125.0750   64.6820 C   0  0  0  0  0  0  0  0  0  0  0  0
  133.9480  124.7130   65.4160 O   0  0  0  0  0  0  0  0  0  0  0  0
  131.6470  125.4700   65.4910 C   0  0  0  0  0  0  0  0  0  0  0  0
  130.5750  125.7710   64.4450 C   0  0  1  0  0  0  0  0  0  0  0  0
  131.2340  125.6250   63.0740 C   0  0  2  0  0  0  0  0  0  0  0  0
  130.1120  124.6880   63.4860 C   0  0  0  0  0  0  0  0  0  0  0  0
  128.7590  124.9110   62.7890 C   0  0  0  0  0  0  0  0  0  0  0  0
  130.3510  123.1860   63.7920 C   0  0  0  0  0  0  0  0  0  0  0  0
  135.2461  124.6020   63.5386 H   0  0  0  0  0  0  0  0  0  0  0  0
  135.5489  124.2526   61.6903 H   0  0  0  0  0  0  0  0  0  0  0  0
  133.3490  125.3420   60.3450 H   0  0  0  0  0  0  0  0  0  0  0  0
  132.4709  123.6263   59.2308 H   0  0  0  0  0  0  0  0  0  0  0  0
  133.7507  122.8072   60.2383 H   0  0  0  0  0  0  0  0  0  0  0  0
  131.7388  122.6954   61.9903 H   0  0  0  0  0  0  0  0  0  0  0  0
  132.1896  120.5197   61.7141 H   0  0  0  0  0  0  0  0  0  0  0  0
  131.2728  120.5002   60.1695 H   0  0  0  0  0  0  0  0  0  0  0  0
  133.0239  120.9003   60.1695 H   0  0  0  0  0  0  0  0  0  0  0  0
  130.4570  123.2840   59.5170 H   0  0  0  0  0  0  0  0  0  0  0  0
  128.1169  120.6375   61.6526 H   0  0  0  0  0  0  0  0  0  0  0  0
  130.0096  120.6160   61.8701 H   0  0  0  0  0  0  0  0  0  0  0  0
  126.3880  124.1330   62.3770 H   0  0  0  0  0  0  0  0  0  0  0  0
  124.8932  123.1886   59.8916 H   0  0  0  0  0  0  0  0  0  0  0  0
  125.5697  124.8021   60.0795 H   0  0  0  0  0  0  0  0  0  0  0  0
  125.5426  123.5491   57.8740 H   0  0  0  0  0  0  0  0  0  0  0  0
  128.3553  122.0303   58.2897 H   0  0  0  0  0  0  0  0  0  0  0  0
  128.1539  125.3078   60.0600 H   0  0  0  0  0  0  0  0  0  0  0  0
  129.3058  125.7660   58.7601 H   0  0  0  0  0  0  0  0  0  0  0  0
  127.6388  126.4353   58.7601 H   0  0  0  0  0  0  0  0  0  0  0  0
  129.0576  125.0956   56.5611 H   0  0  0  0  0  0  0  0  0  0  0  0
  128.2064  123.5644   56.1642 H   0  0  0  0  0  0  0  0  0  0  0  0
  127.3059  125.1187   56.1642 H   0  0  0  0  0  0  0  0  0  0  0  0
  133.6710  124.4800   66.3050 H   0  0  0  0  0  0  0  0  0  0  0  0
  131.3307  124.6450   66.1462 H   0  0  0  0  0  0  0  0  0  0  0  0
  131.8431  126.3291   66.1494 H   0  0  0  0  0  0  0  0  0  0  0  0
  129.9881  126.4837   65.0431 H   0  0  0  0  0  0  0  0  0  0  0  0
  131.4028  126.2133   62.1600 H   0  0  0  0  0  0  0  0  0  0  0  0
  127.9728  125.0406   63.5474 H   0  0  0  0  0  0  0  0  0  0  0  0
  128.8144  125.8121   62.1606 H   0  0  0  0  0  0  0  0  0  0  0  0
  128.5223  124.0398   62.1606 H   0  0  0  0  0  0  0  0  0  0  0  0
  130.3753  123.0330   64.8810 H   0  0  0  0  0  0  0  0  0  0  0  0
  129.5366  122.5889   63.3560 H   0  0  0  0  0  0  0  0  0  0  0  0
  131.3105  122.8711   63.3560 H   0  0  0  0  0  0  0  0  0  0  0  0
  1  2  2  0
  2  3  1  0
  3  4  1  0
  4  5  1  0
  5  6  1  0
  5  7  1  0
  7  8  1  0
  8  9  2  0
  8 10  1  0
 10 11  2  0
 11 12  1  0
 11 13  1  0
 13 14  1  0
 14 15  1  0
 15 16  1  0
 16 17  1  0
 16 18  1  0
  2 19  1  0
 19 20  2  0
 20 21  1  0
 20 22  1  0
 22 23  1  0
 23 24  1  0
 24 25  1  0
 25 26  1  0
 25 27  1  0
 15 10  1  0
 24 19  1  0
 16 14  1  0
 25 23  1  0
  1 28  1  0
  1 29  1  0
  3 30  1  0
  4 31  1  0
  4 32  1  0
  5 33  1  1
  6 34  1  0
  6 35  1  0
  6 36  1  0
  7 37  1  0
  9 38  1  0
  9 39  1  0
 12 40  1  0
 13 41  1  0
 13 42  1  0
 14 43  1  6
 15 44  1  6
 17 45  1  0
 17 46  1  0
 17 47  1  0
 18 48  1  0
 18 49  1  0
 18 50  1  0
 21 51  1  0
 22 52  1  0
 22 53  1  0
 23 54  1  1
 24 55  1  6
 26 56  1  0
 26 57  1  0
 26 58  1  0
 27 59  1  0
 27 60  1  0
 27 61  1  0
M  END
>  <Binding energies>  (1) 
[-7.83]

>  <Ligand effiencies>  (1) 
[-0.2525806451612903]

>  <Interactions>  (1) 
["V-A:ILE:369:CG2:3237, V-B:PRO:540:CA:9855, V-B:ALA:541:CB:9864, V-B:TYR:539:CE2:9848, V-B:GLU:543:CG:9879, V-B:TYR:539:C:9839, V-A:ASP:366:CG:3213, V-B:TYR:539:CZ:9849, H-B:GLU:543:OE1:9881, H-B:ALA:541:N:9863, V-A:GLU:543:CD:4908, V-B:PRO:540:CB:9857, H-A:GLY:454:N:4050, V-A:GLY:453:C:4042, V-B:PRO:540:N:9856, V-A:ILE:369:CD1:3239, V-B:TYR:539:CD2:9846, V-B:GLU:543:CD:9880, V-A:LEU:475:CD2:4259, V-A:ARG:545:CZ:4926, H-A:ASP:366:OD1:3214, V-A:GLY:453:CA:4044, H-A:ARG:545:NE:4924, V-B:PRO:540:C:9853, H-A:ASP:366:OD2:3215, V-B:ALA:541:CA:9862, H-A:TYR:484:OH:4348"]

$$$$
ZINC2356736705-again2
     RDKit          3D

 60 63  0  0  0  0  0  0  0  0999 V2000
  129.1560  126.2440   60.9880 C   0  0  0  0  0  0  0  0  0  0  0  0
  128.4110  125.2130   61.4370 C   0  0  0  0  0  0  0  0  0  0  0  0
  128.6440  124.6000   62.6490 N   0  0  0  0  0  0  0  0  0  0  0  0
  129.7450  124.8440   63.5770 C   0  0  1  0  0  0  0  0  0  0  0  0
  129.4700  126.0770   64.4590 C   0  0  0  0  0  0  0  0  0  0  0  0
  130.0390  123.5920   64.4330 C   0  0  0  0  0  0  0  0  0  0  0  0
  131.4640  123.3040   64.5590 N   0  0  0  0  0  0  0  0  0  0  0  0
  132.5320  124.0440   64.1030 C   0  0  0  0  0  0  0  0  0  0  0  0
  133.0320  125.1000   64.7760 C   0  0  0  0  0  0  0  0  0  0  0  0
  133.1470  123.6530   62.8390 C   0  0  0  0  0  0  0  0  0  0  0  0
  133.7860  122.5280   62.4440 C   0  0  0  0  0  0  0  0  0  0  0  0
  133.9700  121.4340   63.1000 O   0  0  0  0  0  0  0  0  0  0  0  0
  134.2490  122.5680   61.0020 C   0  0  0  0  0  0  0  0  0  0  0  0
  133.8210  123.9580   60.5170 C   0  0  2  0  0  0  0  0  0  0  0  0
  133.2010  124.6840   61.7130 C   0  0  1  0  0  0  0  0  0  0  0  0
  132.3530  124.3450   60.4990 C   0  0  0  0  0  0  0  0  0  0  0  0
  131.9580  125.5340   59.6040 C   0  0  0  0  0  0  0  0  0  0  0  0
  131.2330  123.2740   60.5390 C   0  0  0  0  0  0  0  0  0  0  0  0
  127.3100  124.7410   60.6050 C   0  0  0  0  0  0  0  0  0  0  0  0
  126.3020  123.8910   60.8890 C   0  0  0  0  0  0  0  0  0  0  0  0
  125.9790  123.2170   62.0240 O   0  0  0  0  0  0  0  0  0  0  0  0
  125.4100  123.6180   59.6970 C   0  0  0  0  0  0  0  0  0  0  0  0
  126.0290  124.4430   58.5650 C   0  0  1  0  0  0  0  0  0  0  0  0
  127.2000  125.2240   59.1590 C   0  0  2  0  0  0  0  0  0  0  0  0
  127.4480  124.1630   58.1030 C   0  0  0  0  0  0  0  0  0  0  0  0
  127.8330  124.6810   56.7050 C   0  0  0  0  0  0  0  0  0  0  0  0
  128.1530  122.8210   58.4230 C   0  0  0  0  0  0  0  0  0  0  0  0
  128.9315  126.7012   60.0131 H   0  0  0  0  0  0  0  0  0  0  0  0
  129.9880  126.6275   61.5968 H   0  0  0  0  0  0  0  0  0  0  0  0
  127.8170  124.3070   63.1510 H   0  0  0  0  0  0  0  0  0  0  0  0
  130.6446  125.0588   62.9816 H   0  0  0  0  0  0  0  0  0  0  0  0
  129.5338  125.7910   65.5192 H   0  0  0  0  0  0  0  0  0  0  0  0
  130.2165  126.8557   64.2437 H   0  0  0  0  0  0  0  0  0  0  0  0
  128.4633  126.4646   64.2437 H   0  0  0  0  0  0  0  0  0  0  0  0
  129.6241  123.7510   65.4392 H   0  0  0  0  0  0  0  0  0  0  0  0
  129.5752  122.7329   63.9261 H   0  0  0  0  0  0  0  0  0  0  0  0
  131.6530  122.6880   65.3360 H   0  0  0  0  0  0  0  0  0  0  0  0
  133.8874  125.6578   64.3672 H   0  0  0  0  0  0  0  0  0  0  0  0
  132.5845  125.4037   65.7339 H   0  0  0  0  0  0  0  0  0  0  0  0
  135.3408  122.4499   60.9379 H   0  0  0  0  0  0  0  0  0  0  0  0
  133.8207  121.7562   60.3958 H   0  0  0  0  0  0  0  0  0  0  0  0
  134.5961  124.0838   59.7467 H   0  0  0  0  0  0  0  0  0  0  0  0
  133.3288  125.6148   62.2851 H   0  0  0  0  0  0  0  0  0  0  0  0
  131.6739  126.3892   60.2348 H   0  0  0  0  0  0  0  0  0  0  0  0
  132.8113  125.8143   58.9689 H   0  0  0  0  0  0  0  0  0  0  0  0
  131.1066  125.2479   58.9689 H   0  0  0  0  0  0  0  0  0  0  0  0
  130.9874  123.0392   61.5852 H   0  0  0  0  0  0  0  0  0  0  0  0
  130.3377  123.6606   60.0301 H   0  0  0  0  0  0  0  0  0  0  0  0
  131.5791  122.3623   60.0301 H   0  0  0  0  0  0  0  0  0  0  0  0
  125.9250  123.8330   62.7590 H   0  0  0  0  0  0  0  0  0  0  0  0
  125.4127  122.5472   59.4453 H   0  0  0  0  0  0  0  0  0  0  0  0
  124.3603  123.8861   59.8872 H   0  0  0  0  0  0  0  0  0  0  0  0
  125.1092  124.5933   57.9808 H   0  0  0  0  0  0  0  0  0  0  0  0
  127.5601  126.2591   59.2531 H   0  0  0  0  0  0  0  0  0  0  0  0
  128.4864  125.5601   56.8068 H   0  0  0  0  0  0  0  0  0  0  0  0
  128.3647  123.8907   56.1547 H   0  0  0  0  0  0  0  0  0  0  0  0
  126.9230  124.9623   56.1547 H   0  0  0  0  0  0  0  0  0  0  0  0
  128.2202  122.6930   59.5135 H   0  0  0  0  0  0  0  0  0  0  0  0
  127.5746  121.9909   57.9914 H   0  0  0  0  0  0  0  0  0  0  0  0
  129.1648  122.8263   57.9914 H   0  0  0  0  0  0  0  0  0  0  0  0
  1  2  2  0
  2  3  1  0
  3  4  1  0
  4  5  1  0
  4  6  1  0
  6  7  1  0
  7  8  1  0
  8  9  2  0
  8 10  1  0
 10 11  2  0
 11 12  1  0
 11 13  1  0
 13 14  1  0
 14 15  1  0
 15 16  1  0
 16 17  1  0
 16 18  1  0
  2 19  1  0
 19 20  2  0
 20 21  1  0
 20 22  1  0
 22 23  1  0
 23 24  1  0
 24 25  1  0
 25 26  1  0
 25 27  1  0
 15 10  1  0
 24 19  1  0
 16 14  1  0
 25 23  1  0
  1 28  1  0
  1 29  1  0
  3 30  1  0
  4 31  1  6
  5 32  1  0
  5 33  1  0
  5 34  1  0
  6 35  1  0
  6 36  1  0
  7 37  1  0
  9 38  1  0
  9 39  1  0
 13 40  1  0
 13 41  1  0
 14 42  1  6
 15 43  1  1
 17 44  1  0
 17 45  1  0
 17 46  1  0
 18 47  1  0
 18 48  1  0
 18 49  1  0
 21 50  1  0
 22 51  1  0
 22 52  1  0
 23 53  1  6
 24 54  1  1
 26 55  1  0
 26 56  1  0
 26 57  1  0
 27 58  1  0
 27 59  1  0
 27 60  1  0
M  CHG  1  12  -1
M  END
>  <Binding energies>  (1) 
[-7.13]

>  <Ligand effiencies>  (1) 
[-0.23766666666666666]

>  <Interactions>  (1) 
["V-A:ILE:369:CG2:3237, V-B:PRO:540:CA:9855, V-A:GLY:454:CA:4049, V-A:ILE:369:CB:3236, V-B:TYR:539:CE2:9848, V-A:TYR:484:CE2:4346, H-B:ALA:541:O:9861, V-B:GLU:543:CG:9879, V-B:TYR:539:C:9839, V-A:ASP:366:CG:3213, V-B:TYR:539:CZ:9849, H-B:GLU:543:OE1:9881, H-B:ALA:541:N:9863, V-A:GLU:543:CD:4908, V-A:TYR:484:CZ:4347, V-B:PRO:540:CB:9857, H-A:GLY:454:N:4050, V-B:PRO:540:N:9856, V-A:ILE:369:CD1:3239, V-B:TYR:539:CD2:9846, V-B:GLU:543:CD:9880, V-A:ILE:369:CG1:3238, V-A:ASP:366:CB:3212, V-A:LEU:475:CD2:4259, V-A:ARG:545:CZ:4926, V-B:TYR:539:CG:9844, H-A:TYR:484:OH:4348"]

$$$$
ZINC2356739705-again1
     RDKit          3D

 56 58  0  0  0  0  0  0  0  0999 V2000
  129.9300  117.9940   61.5440 C   0  0  0  0  0  0  0  0  0  0  0  0
  130.6640  119.2740   61.1660 C   0  0  0  0  0  0  0  0  0  0  0  0
  131.5300  119.2770   60.2890 O   0  0  0  0  0  0  0  0  0  0  0  0
  130.2430  120.3450   61.9100 O   0  0  0  0  0  0  0  0  0  0  0  0
  130.3990  121.6170   61.4450 C   0  0  0  0  0  0  0  0  0  0  0  0
  131.6080  122.2320   61.4670 C   0  0  0  0  0  0  0  0  0  0  0  0
  132.9090  121.5850   62.0070 C   0  0  0  0  0  0  0  0  0  0  0  0
  133.5480  122.4320   63.1220 C   0  0  0  0  0  0  0  0  0  0  0  0
  133.9510  121.1900   60.9380 C   0  0  0  0  0  0  0  0  0  0  0  0
  131.7600  123.6140   60.9500 C   0  0  0  0  0  0  0  0  0  0  0  0
  132.6980  124.3430   61.3020 O   0  0  0  0  0  0  0  0  0  0  0  0
  130.6610  124.0110   59.9760 C   0  0  0  0  0  0  0  0  0  0  0  0
  129.3900  123.4570   60.0790 C   0  0  0  0  0  0  0  0  0  0  0  0
  129.1560  122.2540   60.9600 C   0  0  0  0  0  0  0  0  0  0  0  0
  128.0550  121.7640   61.2250 O   0  0  0  0  0  0  0  0  0  0  0  0
  128.1190  123.9550   59.2620 C   0  0  2  0  0  0  0  0  0  0  0  0
  126.9860  124.3220   60.2890 C   0  0  0  0  0  0  0  0  0  0  0  0
  127.6710  122.8120   58.2800 C   0  0  0  0  0  0  0  0  0  0  0  0
  126.6390  123.1970   57.2050 C   0  0  0  0  0  0  0  0  0  0  0  0
  127.1180  124.4270   56.4190 C   0  0  0  0  0  0  0  0  0  0  0  0
  127.3600  125.6620   57.3310 C   0  0  0  0  0  0  0  0  0  0  0  0
  127.8680  126.7990   56.4000 C   0  0  0  0  0  0  0  0  0  0  0  0
  126.0120  126.1170   57.9590 C   0  0  0  0  0  0  0  0  0  0  0  0
  128.4690  125.2680   58.4130 C   0  0  2  0  0  0  0  0  0  0  0  0
  129.8970  125.1140   57.8100 C   0  0  0  0  0  0  0  0  0  0  0  0
  131.0260  125.0590   58.8660 C   0  0  2  0  0  0  0  0  0  0  0  0
  132.2420  124.7930   58.2060 O   0  0  0  0  0  0  0  0  0  0  0  0
  129.8813  117.9091   62.6396 H   0  0  0  0  0  0  0  0  0  0  0  0
  128.9102  118.0210   61.1327 H   0  0  0  0  0  0  0  0  0  0  0  0
  130.4684  117.1275   61.1327 H   0  0  0  0  0  0  0  0  0  0  0  0
  132.5721  120.6280   62.4321 H   0  0  0  0  0  0  0  0  0  0  0  0
  133.2477  122.0340   64.1025 H   0  0  0  0  0  0  0  0  0  0  0  0
  134.6435  122.3927   63.0302 H   0  0  0  0  0  0  0  0  0  0  0  0
  133.2095  123.4746   63.0302 H   0  0  0  0  0  0  0  0  0  0  0  0
  134.8697  120.8417   61.4326 H   0  0  0  0  0  0  0  0  0  0  0  0
  133.5444  120.3836   60.3100 H   0  0  0  0  0  0  0  0  0  0  0  0
  134.1811  122.0633   60.3100 H   0  0  0  0  0  0  0  0  0  0  0  0
  127.3662  124.1989   61.3139 H   0  0  0  0  0  0  0  0  0  0  0  0
  126.6764  125.3664   60.1358 H   0  0  0  0  0  0  0  0  0  0  0  0
  126.1229  123.6575   60.1358 H   0  0  0  0  0  0  0  0  0  0  0  0
  128.5697  122.4432   57.7639 H   0  0  0  0  0  0  0  0  0  0  0  0
  127.1688  122.0648   58.9120 H   0  0  0  0  0  0  0  0  0  0  0  0
  126.5057  122.3533   56.5119 H   0  0  0  0  0  0  0  0  0  0  0  0
  125.6845  123.4370   57.6963 H   0  0  0  0  0  0  0  0  0  0  0  0
  128.0600  124.1749   55.9100 H   0  0  0  0  0  0  0  0  0  0  0  0
  126.3276  124.6924   55.7015 H   0  0  0  0  0  0  0  0  0  0  0  0
  128.2411  127.6341   57.0111 H   0  0  0  0  0  0  0  0  0  0  0  0
  128.6812  126.4173   55.7651 H   0  0  0  0  0  0  0  0  0  0  0  0
  127.0411  127.1500   55.7651 H   0  0  0  0  0  0  0  0  0  0  0  0
  126.0910  126.0903   59.0558 H   0  0  0  0  0  0  0  0  0  0  0  0
  125.7830  127.1422   57.6327 H   0  0  0  0  0  0  0  0  0  0  0  0
  125.2085  125.4403   57.6327 H   0  0  0  0  0  0  0  0  0  0  0  0
  128.4631  126.1291   59.0974 H   0  0  0  0  0  0  0  0  0  0  0  0
  129.9261  124.1833   57.2244 H   0  0  0  0  0  0  0  0  0  0  0  0
  130.0802  126.0082   57.1961 H   0  0  0  0  0  0  0  0  0  0  0  0
  131.1424  126.0212   59.3863 H   0  0  0  0  0  0  0  0  0  0  0  0
  1  2  1  0
  2  3  2  0
  2  4  1  0
  4  5  1  0
  5  6  2  0
  6  7  1  0
  7  8  1  0
  7  9  1  0
  6 10  1  0
 10 11  2  0
 10 12  1  0
 12 13  2  0
 13 14  1  0
 14 15  2  0
 13 16  1  0
 16 17  1  1
 16 18  1  0
 18 19  1  0
 19 20  1  0
 20 21  1  0
 21 22  1  0
 21 23  1  0
 21 24  1  0
 24 25  1  0
 25 26  1  0
 26 27  1  0
 14  5  1  0
 24 16  1  0
 26 12  1  0
  1 28  1  0
  1 29  1  0
  1 30  1  0
  7 31  1  0
  8 32  1  0
  8 33  1  0
  8 34  1  0
  9 35  1  0
  9 36  1  0
  9 37  1  0
 17 38  1  0
 17 39  1  0
 17 40  1  0
 18 41  1  0
 18 42  1  0
 19 43  1  0
 19 44  1  0
 20 45  1  0
 20 46  1  0
 22 47  1  0
 22 48  1  0
 22 49  1  0
 23 50  1  0
 23 51  1  0
 23 52  1  0
 24 53  1  1
 25 54  1  0
 25 55  1  0
 26 56  1  1
M  CHG  1  27  -1
M  END
>  <Binding energies>  (1) 
[-6.61]

>  <Ligand effiencies>  (1) 
[-0.24481481481481482]

>  <Interactions>  (1) 
["V-A:ILE:369:CG2:3237, V-B:PRO:540:CA:9855, V-A:GLY:454:CA:4049, V-B:ALA:541:CB:9864, V-B:TYR:539:CE2:9848, V-A:LEU:475:CG:4257, V-B:TYR:539:C:9839, V-B:TYR:539:CZ:9849, V-B:TYR:531:CZ:9766, H-B:TYR:539:OH:9850, H-B:ALA:541:N:9863, V-A:LEU:475:CD1:4258, V-A:SER:385:C:3405, V-B:PRO:540:N:9856, V-A:ILE:369:CD1:3239, V-A:PRO:482:CB:4326, V-B:TYR:539:CD2:9846, V-A:SER:385:CB:3409, H-A:SER:385:OG:3410, V-A:LEU:475:CD2:4259, H-A:HIS:383:HE2:3395, V-A:SER:385:CA:3407"]

$$$$
ZINC2356745828
     RDKit          3D

 85 89  0  0  0  0  0  0  0  0999 V2000
  131.7830  123.9120   63.9440 C   0  0  0  0  0  0  0  0  0  0  0  0
  130.3030  124.2660   64.9360 S   0  0  0  0  0  0  0  0  0  0  0  0
  129.4730  122.6330   64.7890 C   0  0  0  0  0  0  0  0  0  0  0  0
  128.9630  122.0290   65.7360 O   0  0  0  0  0  0  0  0  0  0  0  0
  129.4790  122.0850   63.3510 C   0  0  0  0  0  0  0  0  0  0  0  0
  128.6770  122.9080   62.3340 C   0  0  0  0  0  0  0  0  0  0  0  0
  127.4480  122.8390   62.2900 O   0  0  0  0  0  0  0  0  0  0  0  0
  129.4620  123.6990   61.5610 O   0  0  0  0  0  0  0  0  0  0  0  0
  129.0970  124.0740   60.2320 C   0  0  2  0  0  0  0  0  0  0  0  0
  128.3140  122.9010   59.5760 C   0  0  0  0  0  0  0  0  0  0  0  0
  126.9260  123.2510   58.9750 C   0  0  2  0  0  0  0  0  0  0  0  0
  125.8910  123.7080   60.0240 C   0  0  0  0  0  0  0  0  0  0  0  0
  126.4400  122.4560   57.9150 O   0  0  0  0  0  0  0  0  0  0  0  0
  126.8350  123.7440   57.5370 C   0  0  0  0  0  0  0  0  0  0  0  0
  125.7220  124.7200   57.1110 C   0  0  0  0  0  0  0  0  0  0  0  0
  128.0990  123.8500   56.6610 C   0  0  0  0  0  0  0  0  0  0  0  0
  130.3700  124.5450   59.4510 C   0  0  2  0  0  0  0  0  0  0  0  0
  131.5650  124.8290   60.3940 C   0  0  0  0  0  0  0  0  0  0  0  0
  130.1870  125.7260   58.4250 C   0  0  2  0  0  0  0  0  0  0  0  0
  131.4960  126.3760   57.8920 C   0  0  0  0  0  0  0  0  0  0  0  0
  131.5400  127.8230   58.4220 C   0  0  0  0  0  0  0  0  0  0  0  0
  130.3350  127.9310   59.3650 C   0  0  1  0  0  0  0  0  0  0  0  0
  129.7390  129.3290   59.7030 C   0  0  2  0  0  0  0  0  0  0  0  0
  130.8170  130.3330   60.1980 C   0  0  2  0  0  0  0  0  0  0  0  0
  131.5930  129.8340   61.2750 O   0  0  0  0  0  0  0  0  0  0  0  0
  130.1840  131.6890   60.5720 C   0  0  0  0  0  0  0  0  0  0  0  0
  129.0950  131.4800   61.6250 C   0  0  0  0  0  0  0  0  0  0  0  0
  129.1660  132.0620   62.8460 C   0  0  0  0  0  0  0  0  0  0  0  0
  128.1970  131.8810   63.9260 C   0  0  0  0  0  0  0  0  0  0  0  0
  128.2860  132.4460   65.0140 O   0  0  0  0  0  0  0  0  0  0  0  0
  127.1180  130.9570   63.5900 C   0  0  0  0  0  0  0  0  0  0  0  0
  126.9940  130.3500   62.3930 C   0  0  0  0  0  0  0  0  0  0  0  0
  127.9440  130.5260   61.1960 C   0  0  1  0  0  0  0  0  0  0  0  0
  127.1180  131.1980   60.0670 C   0  0  0  0  0  0  0  0  0  0  0  0
  128.5870  129.1580   60.7600 C   0  0  1  0  0  0  0  0  0  0  0  0
  127.5400  128.0910   60.2960 C   0  0  0  0  0  0  0  0  0  0  0  0
  128.1930  126.7500   59.8840 C   0  0  0  0  0  0  0  0  0  0  0  0
  129.2840  126.9520   58.7940 C   0  0  2  0  0  0  0  0  0  0  0  0
  128.6060  127.4610   57.4780 C   0  0  0  0  0  0  0  0  0  0  0  0
  132.6325  123.7088   64.6126 H   0  0  0  0  0  0  0  0  0  0  0  0
  131.5974  123.0329   63.3094 H   0  0  0  0  0  0  0  0  0  0  0  0
  132.0153  124.7799   63.3094 H   0  0  0  0  0  0  0  0  0  0  0  0
  130.5231  122.0434   63.0072 H   0  0  0  0  0  0  0  0  0  0  0  0
  128.9918  121.0999   63.3981 H   0  0  0  0  0  0  0  0  0  0  0  0
  128.4155  124.9374   60.2200 H   0  0  0  0  0  0  0  0  0  0  0  0
  128.9369  122.4940   58.7659 H   0  0  0  0  0  0  0  0  0  0  0  0
  128.1098  122.1923   60.3921 H   0  0  0  0  0  0  0  0  0  0  0  0
  126.2901  123.5318   61.0338 H   0  0  0  0  0  0  0  0  0  0  0  0
  125.6853  124.7806   59.8930 H   0  0  0  0  0  0  0  0  0  0  0  0
  124.9597  123.1374   59.8930 H   0  0  0  0  0  0  0  0  0  0  0  0
  125.2414  125.1414   58.0062 H   0  0  0  0  0  0  0  0  0  0  0  0
  126.1571  125.5331   56.5113 H   0  0  0  0  0  0  0  0  0  0  0  0
  124.9727  124.1825   56.5113 H   0  0  0  0  0  0  0  0  0  0  0  0
  128.9869  123.9245   57.3060 H   0  0  0  0  0  0  0  0  0  0  0  0
  128.1811  122.9556   56.0260 H   0  0  0  0  0  0  0  0  0  0  0  0
  128.0310  124.7456   56.0260 H   0  0  0  0  0  0  0  0  0  0  0  0
  130.5876  123.6706   58.8201 H   0  0  0  0  0  0  0  0  0  0  0  0
  131.2335  124.7502   61.4399 H   0  0  0  0  0  0  0  0  0  0  0  0
  132.3628  124.0955   60.2060 H   0  0  0  0  0  0  0  0  0  0  0  0
  131.9475  125.8431   60.2060 H   0  0  0  0  0  0  0  0  0  0  0  0
  129.6646  125.1087   57.6793 H   0  0  0  0  0  0  0  0  0  0  0  0
  132.3696  125.8154   58.2560 H   0  0  0  0  0  0  0  0  0  0  0  0
  131.5162  126.3640   56.7923 H   0  0  0  0  0  0  0  0  0  0  0  0
  132.4771  128.0076   58.9678 H   0  0  0  0  0  0  0  0  0  0  0  0
  131.5000  128.5642   57.6102 H   0  0  0  0  0  0  0  0  0  0  0  0
  130.6987  127.6763   60.3714 H   0  0  0  0  0  0  0  0  0  0  0  0
  129.3277  129.7601   58.7783 H   0  0  0  0  0  0  0  0  0  0  0  0
  131.5056  130.4799   59.3529 H   0  0  0  0  0  0  0  0  0  0  0  0
  132.4710  129.6270   60.9500 H   0  0  0  0  0  0  0  0  0  0  0  0
  130.9602  132.3550   60.9768 H   0  0  0  0  0  0  0  0  0  0  0  0
  129.7384  132.1416   59.6739 H   0  0  0  0  0  0  0  0  0  0  0  0
  130.0221  132.7246   63.0410 H   0  0  0  0  0  0  0  0  0  0  0  0
  126.3613  130.7435   64.3593 H   0  0  0  0  0  0  0  0  0  0  0  0
  126.1396  129.6700   62.2606 H   0  0  0  0  0  0  0  0  0  0  0  0
  126.3376  131.8329   60.5118 H   0  0  0  0  0  0  0  0  0  0  0  0
  127.7823  131.8154   59.4445 H   0  0  0  0  0  0  0  0  0  0  0  0
  126.6487  130.4220   59.4445 H   0  0  0  0  0  0  0  0  0  0  0  0
  129.0457  128.7638   61.6788 H   0  0  0  0  0  0  0  0  0  0  0  0
  126.8406  127.9017   61.1237 H   0  0  0  0  0  0  0  0  0  0  0  0
  127.0256  128.4945   59.4114 H   0  0  0  0  0  0  0  0  0  0  0  0
  128.6555  126.2915   60.7705 H   0  0  0  0  0  0  0  0  0  0  0  0
  127.4088  126.1005   59.4679 H   0  0  0  0  0  0  0  0  0  0  0  0
  127.7500  128.1036   57.7314 H   0  0  0  0  0  0  0  0  0  0  0  0
  129.3350  128.0368   56.8889 H   0  0  0  0  0  0  0  0  0  0  0  0
  128.2566  126.6002   56.8889 H   0  0  0  0  0  0  0  0  0  0  0  0
  1  2  1  0
  2  3  1  0
  3  4  2  0
  3  5  1  0
  5  6  1  0
  6  7  2  0
  6  8  1  0
  8  9  1  0
  9 10  1  0
 11 10  1  1
 11 12  1  0
 11 13  1  0
 13 14  1  0
 14 15  1  0
 14 16  1  0
  9 17  1  0
 17 18  1  0
 17 19  1  0
 19 20  1  0
 20 21  1  0
 21 22  1  0
 22 23  1  0
 23 24  1  0
 24 25  1  0
 24 26  1  0
 26 27  1  0
 27 28  2  0
 28 29  1  0
 29 30  2  0
 29 31  1  0
 31 32  2  0
 32 33  1  0
 33 34  1  6
 33 35  1  0
 35 36  1  0
 36 37  1  0
 37 38  1  0
 38 39  1  6
 14 11  1  0
 38 19  1  0
 38 22  1  0
 35 23  1  0
 33 27  1  0
  1 40  1  0
  1 41  1  0
  1 42  1  0
  5 43  1  0
  5 44  1  0
  9 45  1  1
 10 46  1  0
 10 47  1  0
 12 48  1  0
 12 49  1  0
 12 50  1  0
 15 51  1  0
 15 52  1  0
 15 53  1  0
 16 54  1  0
 16 55  1  0
 16 56  1  0
 17 57  1  6
 18 58  1  0
 18 59  1  0
 18 60  1  0
 19 61  1  6
 20 62  1  0
 20 63  1  0
 21 64  1  0
 21 65  1  0
 22 66  1  1
 23 67  1  6
 24 68  1  6
 25 69  1  0
 26 70  1  0
 26 71  1  0
 28 72  1  0
 31 73  1  0
 32 74  1  0
 34 75  1  0
 34 76  1  0
 34 77  1  0
 35 78  1  1
 36 79  1  0
 36 80  1  0
 37 81  1  0
 37 82  1  0
 39 83  1  0
 39 84  1  0
 39 85  1  0
M  END
>  <Binding energies>  (1) 
[-8.46]

>  <Ligand effiencies>  (1) 
[-0.21150000000000002]

>  <Interactions>  (1) 
["V-B:PRO:540:CA:9855, V-B:ALA:541:CB:9864, V-B:TYR:539:CE2:9848, V-A:TYR:484:CE2:4346, V-B:GLU:543:CG:9879, V-A:ASP:366:CG:3213, V-B:TYR:539:CZ:9849, V-A:ALA:541:CB:4892, H-B:ALA:541:N:9863, V-B:TYR:531:CE2:9765, V-B:PRO:540:CB:9857, H-B:TYR:484:OH:9319, V-B:PRO:540:N:9856, V-B:TYR:539:CD2:9846, V-A:GLU:543:CG:4907, V-A:ASP:366:CB:3212, V-A:LEU:475:CD2:4259, H-A:ARG:545:NH2:4928, H-A:GLU:543:OE1:4909, H-A:ASP:366:OD1:3214, V-A:PRO:540:CA:4883, V-B:MET:535:CE:9807, H-A:ASP:366:OD2:3215, V-B:TYR:539:CE1:9847, H-A:TYR:484:OH:4348"]

$$$$
ZINC2356752050
     RDKit          3D

 76 77  0  0  0  0  0  0  0  0999 V2000
  136.1100  130.3750   60.8920 C   0  0  0  0  0  0  0  0  0  0  0  0
  135.2410  129.9930   59.6900 C   0  0  0  0  0  0  0  0  0  0  0  0
  134.2900  129.0250   59.6760 C   0  0  0  0  0  0  0  0  0  0  0  0
  133.9130  128.1840   60.8010 C   0  0  0  0  0  0  0  0  0  0  0  0
  134.6200  127.1010   61.1690 C   0  0  0  0  0  0  0  0  0  0  0  0
  134.2460  126.2540   62.2860 C   0  0  0  0  0  0  0  0  0  0  0  0
  135.1380  125.7690   63.1700 C   0  0  0  0  0  0  0  0  0  0  0  0
  134.8070  124.9040   64.2900 C   0  0  0  0  0  0  0  0  0  0  0  0
  133.5640  124.4840   64.5890 C   0  0  0  0  0  0  0  0  0  0  0  0
  133.2680  123.6260   65.7210 C   0  0  0  0  0  0  0  0  0  0  0  0
  134.2230  123.1010   66.5090 C   0  0  0  0  0  0  0  0  0  0  0  0
  133.9320  122.2460   67.6430 C   0  0  0  0  0  0  0  0  0  0  0  0
  133.2520  121.0910   67.5340 C   0  0  0  0  0  0  0  0  0  0  0  0
  132.9620  120.2320   68.6660 C   0  0  0  0  0  0  0  0  0  0  0  0
  133.8140  119.2880   69.1040 C   0  0  0  0  0  0  0  0  0  0  0  0
  133.5280  118.4270   70.2360 C   0  0  0  0  0  0  0  0  0  0  0  0
  134.0860  118.6000   71.4490 C   0  0  0  0  0  0  0  0  0  0  0  0
  133.8170  117.7190   72.6660 C   0  0  2  0  0  0  0  0  0  0  0  0
  132.4150  117.4150   72.7380 N   0  0  0  0  0  0  0  0  0  0  0  0
  131.9780  117.8240   73.8600 C   0  0  0  0  0  0  0  0  0  0  0  0
  130.6730  117.7830   74.4420 C   0  0  0  0  0  0  0  0  0  0  0  0
  129.6770  116.9720   74.0350 C   0  0  0  0  0  0  0  0  0  0  0  0
  128.3470  116.9140   74.6060 C   0  0  0  0  0  0  0  0  0  0  0  0
  127.5440  115.8640   75.0470 C   0  0  0  0  0  0  0  0  0  0  0  0
  126.3350  116.3940   75.5100 C   0  0  0  0  0  0  0  0  0  0  0  0
  126.4000  117.7680   75.3520 C   0  0  0  0  0  0  0  0  0  0  0  0
  127.6220  118.0650   74.8040 N   0  0  0  0  0  0  0  0  0  0  0  0
  132.9330  118.4060   74.6460 O   0  0  0  0  0  0  0  0  0  0  0  0
  134.1880  118.3570   74.0110 C   0  0  1  0  0  0  0  0  0  0  0  0
  135.1390  117.5180   74.8820 C   0  0  0  0  0  0  0  0  0  0  0  0
  135.5280  130.7770   58.4990 C   0  0  0  0  0  0  0  0  0  0  0  0
  136.5910  130.6640   57.8840 O   0  0  0  0  0  0  0  0  0  0  0  0
  134.5350  131.6010   58.1040 N   0  0  0  0  0  0  0  0  0  0  0  0
  134.5490  132.5030   56.9310 C   0  0  1  0  0  0  0  0  0  0  0  0
  133.1130  133.0660   56.6520 C   0  0  0  0  0  0  0  0  0  0  0  0
  132.0560  132.7100   57.7080 C   0  0  0  0  0  0  0  0  0  0  0  0
  131.0990  131.8510   57.3460 N   0  0  0  0  0  0  0  0  0  0  0  0
  132.1110  133.1880   58.8380 O   0  0  0  0  0  0  0  0  0  0  0  0
  135.6470  133.6280   57.1230 C   0  0  0  0  0  0  0  0  0  0  0  0
  135.3350  134.5550   57.9090 O   0  0  0  0  0  0  0  0  0  0  0  0
  136.7470  133.4560   56.5460 O   0  0  0  0  0  0  0  0  0  0  0  0
  135.5730  130.1389   61.8225 H   0  0  0  0  0  0  0  0  0  0  0  0
  137.0520  129.8080   60.8584 H   0  0  0  0  0  0  0  0  0  0  0  0
  136.3291  131.4524   60.8584 H   0  0  0  0  0  0  0  0  0  0  0  0
  133.7561  128.8617   58.7282 H   0  0  0  0  0  0  0  0  0  0  0  0
  133.0116  128.4448   61.3750 H   0  0  0  0  0  0  0  0  0  0  0  0
  135.5239  126.8454   60.5966 H   0  0  0  0  0  0  0  0  0  0  0  0
  133.1846  125.9962   62.4166 H   0  0  0  0  0  0  0  0  0  0  0  0
  136.1935  126.0475   63.0349 H   0  0  0  0  0  0  0  0  0  0  0  0
  135.6300  124.5693   64.9386 H   0  0  0  0  0  0  0  0  0  0  0  0
  132.7329  124.8065   63.9446 H   0  0  0  0  0  0  0  0  0  0  0  0
  132.2161  123.3947   65.9445 H   0  0  0  0  0  0  0  0  0  0  0  0
  135.2745  123.3312   66.2824 H   0  0  0  0  0  0  0  0  0  0  0  0
  134.2835  122.5562   68.6381 H   0  0  0  0  0  0  0  0  0  0  0  0
  132.8989  120.7830   66.5388 H   0  0  0  0  0  0  0  0  0  0  0  0
  132.0028  120.3581   69.1895 H   0  0  0  0  0  0  0  0  0  0  0  0
  134.7727  119.1629   68.5793 H   0  0  0  0  0  0  0  0  0  0  0  0
  132.8227  117.5944   70.0969 H   0  0  0  0  0  0  0  0  0  0  0  0
  134.7876  119.4382   71.5721 H   0  0  0  0  0  0  0  0  0  0  0  0
  134.4505  116.8318   72.5190 H   0  0  0  0  0  0  0  0  0  0  0  0
  130.4672  118.4623   75.2824 H   0  0  0  0  0  0  0  0  0  0  0  0
  129.8927  116.2946   73.1956 H   0  0  0  0  0  0  0  0  0  0  0  0
  127.8151  114.7980   75.0334 H   0  0  0  0  0  0  0  0  0  0  0  0
  125.4893  115.8246   75.9231 H   0  0  0  0  0  0  0  0  0  0  0  0
  125.6142  118.4905   75.6177 H   0  0  0  0  0  0  0  0  0  0  0  0
  127.9440  118.9950   74.5800 H   0  0  0  0  0  0  0  0  0  0  0  0
  134.7182  119.3099   73.8663 H   0  0  0  0  0  0  0  0  0  0  0  0
  134.9254  117.7065   75.9445 H   0  0  0  0  0  0  0  0  0  0  0  0
  134.9916  116.4503   74.6621 H   0  0  0  0  0  0  0  0  0  0  0  0
  136.1800  117.7973   74.6621 H   0  0  0  0  0  0  0  0  0  0  0  0
  133.7050  131.6600   58.6750 H   0  0  0  0  0  0  0  0  0  0  0  0
  134.8334  131.9398   56.0299 H   0  0  0  0  0  0  0  0  0  0  0  0
  133.1821  134.1624   56.5954 H   0  0  0  0  0  0  0  0  0  0  0  0
  132.7781  132.5986   55.7143 H   0  0  0  0  0  0  0  0  0  0  0  0
  131.0840  131.4680   56.4120 H   0  0  0  0  0  0  0  0  0  0  0  0
  130.3840  131.5810   58.0050 H   0  0  0  0  0  0  0  0  0  0  0  0
  1  2  1  0
  2  3  2  0
  3  4  1  0
  4  5  2  0
  5  6  1  0
  6  7  2  0
  7  8  1  0
  8  9  2  0
  9 10  1  0
 10 11  2  0
 11 12  1  0
 12 13  2  0
 13 14  1  0
 14 15  2  0
 15 16  1  0
 16 17  2  0
 17 18  1  0
 18 19  1  0
 19 20  2  0
 20 21  1  0
 21 22  2  0
 22 23  1  0
 23 24  2  0
 24 25  1  0
 25 26  2  0
 26 27  1  0
 20 28  1  0
 28 29  1  0
 29 30  1  0
  2 31  1  0
 31 32  2  0
 31 33  1  0
 33 34  1  0
 34 35  1  0
 35 36  1  0
 36 37  1  0
 36 38  2  0
 34 39  1  0
 39 40  2  0
 39 41  1  0
 29 18  1  0
 27 23  1  0
  1 42  1  0
  1 43  1  0
  1 44  1  0
  3 45  1  0
  4 46  1  0
  5 47  1  0
  6 48  1  0
  7 49  1  0
  8 50  1  0
  9 51  1  0
 10 52  1  0
 11 53  1  0
 12 54  1  0
 13 55  1  0
 14 56  1  0
 15 57  1  0
 16 58  1  0
 17 59  1  0
 18 60  1  6
 21 61  1  0
 22 62  1  0
 24 63  1  0
 25 64  1  0
 26 65  1  0
 27 66  1  0
 29 67  1  6
 30 68  1  0
 30 69  1  0
 30 70  1  0
 33 71  1  0
 34 72  1  6
 35 73  1  0
 35 74  1  0
 37 75  1  0
 37 76  1  0
M  CHG  1  41  -1
M  END
>  <Binding energies>  (1) 
[50900000.0]

>  <Ligand effiencies>  (1) 
[1131111.111111111]

>  <Interactions>  (1) 
["V-A:ASP:366:CA:3210, V-A:PRO:540:CG:4886, V-A:GLY:454:CA:4049, H-A:TYR:484:O:4338, V-A:LEU:475:CA:4254, V-A:ILE:538:CB:4862, V-A:ASP:473:CB:4239, H-A:TYR:531:OH:4795, V-A:TYR:484:CE2:4346, V-A:LEU:475:CG:4257, V-A:VAL:474:CA:4246, V-A:ASP:485:CB:4355, V-A:ASP:366:CG:3213, V-A:ASN:362:CB:3176, V-A:ILE:538:CG2:4863, V-A:PRO:486:N:4363, V-A:LEU:363:CB:3187, V-A:LEU:363:CD1:3189, V-A:LEU:363:CG:3188, V-A:LEU:472:C:4226, V-A:PRO:486:CD:4366, V-A:ILE:455:CA:4054, V-A:ASP:473:CG:4240, V-A:LEU:363:CD2:3190, V-A:TYR:484:CZ:4347, H-A:VAL:474:N:4247, V-A:ILE:455:C:4052, V-A:LEU:475:CB:4256, V-A:TYR:484:CA:4339, V-A:TYR:484:CD1:4343, V-A:GLY:453:C:4042, H-A:ASP:485:N:4354, V-A:TYR:484:CD2:4344, V-A:PRO:486:C:4360, V-A:TYR:484:CG:4342, V-A:ASP:473:C:4235, V-A:ASP:366:CB:3212, V-A:ARG:545:CD:4923, V-A:PRO:486:CA:4362, V-A:ASN:362:C:3172, V-A:ARG:545:CZ:4926, H-A:LEU:363:N:3186, V-A:TYR:484:CB:4341, V-A:VAL:474:C:4244, V-A:TYR:484:CE1:4345, V-A:ASP:485:CA:4353, V-A:ASP:485:C:4351, V-A:PRO:540:N:4884, H-A:ILE:364:N:3195, V-A:GLY:453:CA:4044, V-A:LEU:363:CA:3185, V-A:ASN:362:CA:3174, V-A:PRO:540:CB:4885, V-A:PRO:540:CA:4883, V-A:VAL:474:CB:4248, V-A:PRO:486:CB:4364, V-A:ASP:473:CA:4237, H-A:ASP:366:OD2:3215, V-A:TYR:484:C:4337, V-A:GLY:454:C:4047, V-A:PRO:540:CD:4887, V-A:PRO:486:CG:4365, V-A:LEU:363:C:3183"]

$$$$
ZINC2356752248
     RDKit          3D

102103  0  0  0  0  0  0  0  0999 V2000
  127.5260  125.1670   60.6910 C   0  0  0  0  0  0  0  0  0  0  0  0
  128.9130  125.5020   60.6320 O   0  0  0  0  0  0  0  0  0  0  0  0
  129.2290  126.7320   60.1390 C   0  0  0  0  0  0  0  0  0  0  0  0
  130.4850  127.2360   60.1820 C   0  0  0  0  0  0  0  0  0  0  0  0
  131.6600  126.4690   60.5560 C   0  0  0  0  0  0  0  0  0  0  0  0
  131.8370  125.1470   60.3310 C   0  0  0  0  0  0  0  0  0  0  0  0
  130.9040  124.3040   59.4570 C   0  0  0  0  0  0  0  0  0  0  0  0
  133.0480  124.4140   60.9260 C   0  0  2  0  0  0  0  0  0  0  0  0
  133.1680  122.9680   60.3970 C   0  0  0  0  0  0  0  0  0  0  0  0
  133.2110  124.4880   62.4810 C   0  0  2  0  0  0  0  0  0  0  0  0
  134.5650  124.5650   62.8880 O   0  0  0  0  0  0  0  0  0  0  0  0
  132.3960  123.4580   63.3430 C   0  0  2  0  0  0  0  0  0  0  0  0
  131.1690  122.9620   62.5410 C   0  0  0  0  0  0  0  0  0  0  0  0
  131.9160  123.9250   64.7610 C   0  0  0  0  0  0  0  0  0  0  0  0
  130.8040  124.9750   64.8530 C   0  0  0  0  0  0  0  0  0  0  0  0
  129.9320  124.8830   66.1010 C   0  0  0  0  0  0  0  0  0  0  0  0
  130.5840  125.8370   63.8320 C   0  0  0  0  0  0  0  0  0  0  0  0
  129.5640  126.8740   63.7650 C   0  0  0  0  0  0  0  0  0  0  0  0
  129.3800  127.6320   62.6670 C   0  0  0  0  0  0  0  0  0  0  0  0
  128.4380  128.8330   62.5110 C   0  0  2  0  0  0  0  0  0  0  0  0
  127.1600  128.5270   63.0750 O   0  0  0  0  0  0  0  0  0  0  0  0
  126.8810  129.1110   64.3430 C   0  0  0  0  0  0  0  0  0  0  0  0
  128.1890  129.3600   61.0630 C   0  0  2  0  0  0  0  0  0  0  0  0
  127.5630  130.8040   61.0370 C   0  0  2  0  0  0  0  0  0  0  0  0
  126.0980  130.8680   60.5460 C   0  0  0  0  0  0  0  0  0  0  0  0
  128.4820  131.8720   60.3580 C   0  0  2  0  0  0  0  0  0  0  0  0
  128.3520  133.0750   61.0820 O   0  0  0  0  0  0  0  0  0  0  0  0
  128.2690  132.0280   58.8010 C   0  0  2  0  0  0  0  0  0  0  0  0
  127.5850  130.7480   58.2440 C   0  0  0  0  0  0  0  0  0  0  0  0
  129.5450  132.4000   57.9440 C   0  0  2  0  0  0  0  0  0  0  0  0
  129.3860  133.6990   57.5270 O   0  0  0  0  0  0  0  0  0  0  0  0
  129.8280  131.5730   56.6560 C   0  0  0  0  0  0  0  0  0  0  0  0
  130.2990  130.1350   56.9430 C   0  0  2  0  0  0  0  0  0  0  0  0
  129.2330  129.2990   57.3600 O   0  0  0  0  0  0  0  0  0  0  0  0
  131.5000  130.1660   57.9130 C   0  0  2  0  0  0  0  0  0  0  0  0
  131.9810  128.7380   58.2600 C   0  0  0  0  0  0  0  0  0  0  0  0
  131.1410  131.0160   59.1680 C   0  0  1  0  0  0  0  0  0  0  0  0
  132.3230  131.2190   60.1640 C   0  0  0  0  0  0  0  0  0  0  0  0
  131.9230  132.0960   61.3660 C   0  0  0  0  0  0  0  0  0  0  0  0
  133.6130  131.7590   59.5070 C   0  0  0  0  0  0  0  0  0  0  0  0
  130.7030  132.3270   58.7550 O   0  0  0  0  0  0  0  0  0  0  0  0
  127.4820  128.3360   60.3520 O   0  0  0  0  0  0  0  0  0  0  0  0
  128.1010  127.4600   59.5100 C   0  0  0  0  0  0  0  0  0  0  0  0
  127.8050  127.3350   58.3220 O   0  0  0  0  0  0  0  0  0  0  0  0
  127.2115  125.0910   61.7424 H   0  0  0  0  0  0  0  0  0  0  0  0
  126.9382  125.9490   60.1880 H   0  0  0  0  0  0  0  0  0  0  0  0
  127.3599  124.2029   60.1880 H   0  0  0  0  0  0  0  0  0  0  0  0
  130.6243  128.2944   59.9166 H   0  0  0  0  0  0  0  0  0  0  0  0
  132.4733  127.0076   61.0643 H   0  0  0  0  0  0  0  0  0  0  0  0
  130.2414  123.7053   60.0993 H   0  0  0  0  0  0  0  0  0  0  0  0
  130.2981  124.9670   58.8219 H   0  0  0  0  0  0  0  0  0  0  0  0
  131.5023  123.6341   58.8219 H   0  0  0  0  0  0  0  0  0  0  0  0
  133.9047  124.9952   60.5541 H   0  0  0  0  0  0  0  0  0  0  0  0
  133.2259  122.2707   61.2458 H   0  0  0  0  0  0  0  0  0  0  0  0
  132.2867  122.7274   59.7842 H   0  0  0  0  0  0  0  0  0  0  0  0
  134.0769  122.8760   59.7842 H   0  0  0  0  0  0  0  0  0  0  0  0
  132.7194  125.4443   62.7130 H   0  0  0  0  0  0  0  0  0  0  0  0
  134.9570  125.3480   62.4930 H   0  0  0  0  0  0  0  0  0  0  0  0
  133.1263  122.6613   63.5478 H   0  0  0  0  0  0  0  0  0  0  0  0
  130.3800  122.6430   63.2379 H   0  0  0  0  0  0  0  0  0  0  0  0
  130.7908  123.7779   61.9075 H   0  0  0  0  0  0  0  0  0  0  0  0
  131.4640  122.1125   61.9075 H   0  0  0  0  0  0  0  0  0  0  0  0
  131.5612  123.0303   65.2935 H   0  0  0  0  0  0  0  0  0  0  0  0
  132.7954  124.4296   65.1876 H   0  0  0  0  0  0  0  0  0  0  0  0
  130.5663  124.9499   66.9972 H   0  0  0  0  0  0  0  0  0  0  0  0
  129.2062  125.7096   66.1029 H   0  0  0  0  0  0  0  0  0  0  0  0
  129.3947  123.9232   66.1029 H   0  0  0  0  0  0  0  0  0  0  0  0
  131.2472  125.7438   62.9594 H   0  0  0  0  0  0  0  0  0  0  0  0
  128.9215  127.0442   64.6415 H   0  0  0  0  0  0  0  0  0  0  0  0
  129.9725  127.3590   61.7813 H   0  0  0  0  0  0  0  0  0  0  0  0
  128.9737  129.6368   63.0373 H   0  0  0  0  0  0  0  0  0  0  0  0
  127.2073  128.4279   65.1411 H   0  0  0  0  0  0  0  0  0  0  0  0
  127.4205  130.0653   64.4338 H   0  0  0  0  0  0  0  0  0  0  0  0
  125.7996  129.2910   64.4338 H   0  0  0  0  0  0  0  0  0  0  0  0
  129.1337  129.5340   60.5270 H   0  0  0  0  0  0  0  0  0  0  0  0
  127.5082  131.0832   62.0996 H   0  0  0  0  0  0  0  0  0  0  0  0
  125.4217  130.8975   61.4130 H   0  0  0  0  0  0  0  0  0  0  0  0
  125.9543  131.7733   59.9379 H   0  0  0  0  0  0  0  0  0  0  0  0
  125.8759  129.9787   59.9379 H   0  0  0  0  0  0  0  0  0  0  0  0
  129.5255  131.5273   60.4071 H   0  0  0  0  0  0  0  0  0  0  0  0
  128.7500  133.7850   60.5720 H   0  0  0  0  0  0  0  0  0  0  0  0
  127.6235  132.9118   58.6907 H   0  0  0  0  0  0  0  0  0  0  0  0
  127.2485  130.1183   59.0809 H   0  0  0  0  0  0  0  0  0  0  0  0
  126.7191  131.0333   57.6285 H   0  0  0  0  0  0  0  0  0  0  0  0
  128.3034  130.1867   57.6285 H   0  0  0  0  0  0  0  0  0  0  0  0
  128.4620  133.9310   57.6410 H   0  0  0  0  0  0  0  0  0  0  0  0
  128.9032  131.5250   56.0624 H   0  0  0  0  0  0  0  0  0  0  0  0
  130.6423  132.0798   56.1173 H   0  0  0  0  0  0  0  0  0  0  0  0
  130.6541  129.6735   56.0098 H   0  0  0  0  0  0  0  0  0  0  0  0
  129.5870  128.4260   57.5460 H   0  0  0  0  0  0  0  0  0  0  0  0
  132.3543  130.6536   57.4206 H   0  0  0  0  0  0  0  0  0  0  0  0
  132.0208  128.6199   59.3529 H   0  0  0  0  0  0  0  0  0  0  0  0
  131.2810  128.0024   57.8370 H   0  0  0  0  0  0  0  0  0  0  0  0
  132.9834  128.5758   57.8370 H   0  0  0  0  0  0  0  0  0  0  0  0
  130.3545  130.4496   59.6882 H   0  0  0  0  0  0  0  0  0  0  0  0
  132.5576  130.2079   60.5282 H   0  0  0  0  0  0  0  0  0  0  0  0
  132.1636  131.5686   62.3009 H   0  0  0  0  0  0  0  0  0  0  0  0
  132.4771  133.0455   61.3276 H   0  0  0  0  0  0  0  0  0  0  0  0
  130.8428  132.3001   61.3276 H   0  0  0  0  0  0  0  0  0  0  0  0
  134.3259  132.0574   60.2898 H   0  0  0  0  0  0  0  0  0  0  0  0
  134.0625  130.9735   58.8818 H   0  0  0  0  0  0  0  0  0  0  0  0
  133.3689  132.6305   58.8818 H   0  0  0  0  0  0  0  0  0  0  0  0
  1  2  1  0
  2  3  1  0
  3  4  2  0
  4  5  1  0
  5  6  2  0
  6  7  1  0
  6  8  1  0
  8  9  1  0
  8 10  1  0
 10 11  1  0
 10 12  1  0
 12 13  1  0
 12 14  1  0
 14 15  1  0
 15 16  1  0
 15 17  2  0
 17 18  1  0
 18 19  2  0
 19 20  1  0
 20 21  1  0
 21 22  1  0
 20 23  1  0
 23 24  1  0
 24 25  1  0
 24 26  1  0
 26 27  1  0
 26 28  1  0
 28 29  1  0
 28 30  1  0
 30 31  1  6
 30 32  1  0
 32 33  1  0
 33 34  1  0
 33 35  1  0
 35 36  1  0
 35 37  1  0
 37 38  1  0
 38 39  1  0
 38 40  1  0
 37 41  1  0
 23 42  1  0
 42 43  1  0
 43 44  2  0
 43  3  1  0
 41 30  1  0
  1 45  1  0
  1 46  1  0
  1 47  1  0
  4 48  1  0
  5 49  1  0
  7 50  1  0
  7 51  1  0
  7 52  1  0
  8 53  1  6
  9 54  1  0
  9 55  1  0
  9 56  1  0
 10 57  1  1
 11 58  1  0
 12 59  1  1
 13 60  1  0
 13 61  1  0
 13 62  1  0
 14 63  1  0
 14 64  1  0
 16 65  1  0
 16 66  1  0
 16 67  1  0
 17 68  1  0
 18 69  1  0
 19 70  1  0
 20 71  1  1
 22 72  1  0
 22 73  1  0
 22 74  1  0
 23 75  1  6
 24 76  1  1
 25 77  1  0
 25 78  1  0
 25 79  1  0
 26 80  1  6
 27 81  1  0
 28 82  1  1
 29 83  1  0
 29 84  1  0
 29 85  1  0
 31 86  1  0
 32 87  1  0
 32 88  1  0
 33 89  1  6
 34 90  1  0
 35 91  1  6
 36 92  1  0
 36 93  1  0
 36 94  1  0
 37 95  1  1
 38 96  1  0
 39 97  1  0
 39 98  1  0
 39 99  1  0
 40100  1  0
 40101  1  0
 40102  1  0
M  END
>  <Binding energies>  (1) 
[-3.74]

>  <Ligand effiencies>  (1) 
[-0.0748]

>  <Interactions>  (1) 
["V-A:ILE:369:CG2:3237, V-B:GLU:543:CB:9878, V-A:PRO:540:C:4881, H-A:ARG:545:NH1:4927, H-A:TYR:531:OH:4795, V-B:TYR:539:CE2:9848, V-A:TYR:484:CE2:4346, V-B:GLU:543:CG:9879, V-A:ASP:366:CG:3213, V-A:TYR:539:CD1:4873, V-A:LEU:363:CB:3187, V-A:LEU:363:CD1:3189, V-B:TYR:539:CZ:9849, V-A:TYR:484:CZ:4347, V-A:GLU:543:CD:4908, H-A:GLY:454:N:4050, V-A:TYR:531:CZ:4794, V-B:GLU:543:CD:9880, V-A:MET:535:CE:4835, V-A:ASP:366:CB:3212, V-A:LEU:475:CD2:4259, H-A:ARG:545:NH2:4928, H-A:ASP:366:OD1:3214, H-A:TYR:539:O:4868, H-A:TYR:539:N:4870, V-A:PRO:540:CB:4885, V-A:PRO:540:CA:4883, V-A:LEU:363:CA:3185, V-A:TYR:539:CE1:4875"]

$$$$
ZINC2356761690
     RDKit          3D

 80 82  0  0  0  0  0  0  0  0999 V2000
  128.7080  127.8680   69.3770 C   0  0  0  0  0  0  0  0  0  0  0  0
  128.5560  127.0960   68.0600 C   0  0  0  0  0  0  0  0  0  0  0  0
  129.2200  125.7100   68.1010 C   0  0  0  0  0  0  0  0  0  0  0  0
  130.4770  125.6190   67.2140 C   0  0  0  0  0  0  0  0  0  0  0  0
  130.2490  124.9320   65.8520 C   0  0  0  0  0  0  0  0  0  0  0  0
  131.2570  125.3370   64.7610 C   0  0  0  0  0  0  0  0  0  0  0  0
  130.6340  126.2200   63.6630 C   0  0  0  0  0  0  0  0  0  0  0  0
  129.1000  126.2680   63.7260 C   0  0  0  0  0  0  0  0  0  0  0  0
  128.5810  125.7440   62.5060 O   0  0  0  0  0  0  0  0  0  0  0  0
  128.4220  126.6020   61.4010 C   0  0  2  0  0  0  0  0  0  0  0  0
  127.8270  127.9660   61.8410 C   0  0  1  0  0  0  0  0  0  0  0  0
  126.5060  127.9210   62.6200 C   0  0  0  0  0  0  0  0  0  0  0  0
  126.3680  129.5060   63.4650 S   0  0  0  0  0  0  0  0  0  0  0  0
  128.1750  129.7950   63.4070 C   0  0  0  0  0  0  0  0  0  0  0  0
  128.7540  130.7380   63.9400 O   0  0  0  0  0  0  0  0  0  0  0  0
  128.7300  128.7800   62.6470 N   0  0  0  0  0  0  0  0  0  0  0  0
  127.5030  125.8410   60.4100 C   0  0  0  0  0  0  0  0  0  0  0  0
  128.1900  124.5760   59.8370 C   0  0  1  0  0  0  0  0  0  0  0  0
  129.5590  124.9600   59.2550 C   0  0  0  0  0  0  0  0  0  0  0  0
  130.3900  125.7570   60.2840 C   0  0  1  0  0  0  0  0  0  0  0  0
  131.7420  126.2850   59.7580 C   0  0  0  0  0  0  0  0  0  0  0  0
  132.8020  125.2400   59.3320 C   0  0  0  0  0  0  0  0  0  0  0  0
  133.3130  124.2010   60.3780 C   0  0  1  0  0  0  0  0  0  0  0  0
  133.4710  124.6990   61.8340 C   0  0  0  0  0  0  0  0  0  0  0  0
  132.7340  122.8010   60.1720 C   0  0  0  0  0  0  0  0  0  0  0  0
  131.9900  122.0120   60.9750 C   0  0  0  0  0  0  0  0  0  0  0  0
  131.3740  122.3150   62.3290 C   0  0  0  0  0  0  0  0  0  0  0  0
  130.0100  121.6220   62.5130 C   0  0  0  0  0  0  0  0  0  0  0  0
  129.0340  122.3600   63.4320 C   0  0  0  0  0  0  0  0  0  0  0  0
  129.3990  122.2850   64.9070 C   0  0  0  0  0  0  0  0  0  0  0  0
  127.8850  122.9630   63.0370 C   0  0  0  0  0  0  0  0  0  0  0  0
  127.4210  123.1370   61.6640 C   0  0  0  0  0  0  0  0  0  0  0  0
  126.2450  122.9590   61.3430 O   0  0  0  0  0  0  0  0  0  0  0  0
  128.3940  123.5620   60.8240 O   0  0  0  0  0  0  0  0  0  0  0  0
  129.6490  126.8890   60.7680 O   0  0  0  0  0  0  0  0  0  0  0  0
  128.5723  127.1790   70.2237 H   0  0  0  0  0  0  0  0  0  0  0  0
  129.7116  128.3158   69.4258 H   0  0  0  0  0  0  0  0  0  0  0  0
  127.9491  128.6628   69.4258 H   0  0  0  0  0  0  0  0  0  0  0  0
  127.4840  126.9659   67.8507 H   0  0  0  0  0  0  0  0  0  0  0  0
  129.0576  127.6801   67.2743 H   0  0  0  0  0  0  0  0  0  0  0  0
  129.5070  125.4892   69.1397 H   0  0  0  0  0  0  0  0  0  0  0  0
  128.4903  124.9836   67.7138 H   0  0  0  0  0  0  0  0  0  0  0  0
  130.8407  126.6402   67.0273 H   0  0  0  0  0  0  0  0  0  0  0  0
  131.2020  124.9981   67.7607 H   0  0  0  0  0  0  0  0  0  0  0  0
  130.3191  123.8441   65.9990 H   0  0  0  0  0  0  0  0  0  0  0  0
  129.2577  125.2530   65.4995 H   0  0  0  0  0  0  0  0  0  0  0  0
  132.0799  125.8935   65.2334 H   0  0  0  0  0  0  0  0  0  0  0  0
  131.6092  124.4129   64.2794 H   0  0  0  0  0  0  0  0  0  0  0  0
  131.0211  127.2435   63.7753 H   0  0  0  0  0  0  0  0  0  0  0  0
  130.9087  125.7797   62.6931 H   0  0  0  0  0  0  0  0  0  0  0  0
  128.7441  125.6612   64.5717 H   0  0  0  0  0  0  0  0  0  0  0  0
  128.7606  127.3050   63.8656 H   0  0  0  0  0  0  0  0  0  0  0  0
  127.6468  128.4120   60.8518 H   0  0  0  0  0  0  0  0  0  0  0  0
  125.6607  127.7817   61.9300 H   0  0  0  0  0  0  0  0  0  0  0  0
  126.4889  127.0834   63.3329 H   0  0  0  0  0  0  0  0  0  0  0  0
  129.7260  128.7300   62.4820 H   0  0  0  0  0  0  0  0  0  0  0  0
  126.5855  125.5394   60.9365 H   0  0  0  0  0  0  0  0  0  0  0  0
  127.2764  126.5147   59.5705 H   0  0  0  0  0  0  0  0  0  0  0  0
  127.5203  124.1709   59.0641 H   0  0  0  0  0  0  0  0  0  0  0  0
  130.1045  124.0444   58.9828 H   0  0  0  0  0  0  0  0  0  0  0  0
  129.3999  125.5900   58.3674 H   0  0  0  0  0  0  0  0  0  0  0  0
  130.6015  125.0280   61.0802 H   0  0  0  0  0  0  0  0  0  0  0  0
  131.5308  126.9157   58.8819 H   0  0  0  0  0  0  0  0  0  0  0  0
  132.1918  126.8058   60.6161 H   0  0  0  0  0  0  0  0  0  0  0  0
  132.3718  124.6689   58.4961 H   0  0  0  0  0  0  0  0  0  0  0  0
  133.6924  125.8470   59.1112 H   0  0  0  0  0  0  0  0  0  0  0  0
  134.3789  124.0737   60.1378 H   0  0  0  0  0  0  0  0  0  0  0  0
  133.2133  123.8866   62.5294 H   0  0  0  0  0  0  0  0  0  0  0  0
  134.5121  125.0107   62.0040 H   0  0  0  0  0  0  0  0  0  0  0  0
  132.8000  125.5539   62.0040 H   0  0  0  0  0  0  0  0  0  0  0  0
  132.9657  122.3569   59.1927 H   0  0  0  0  0  0  0  0  0  0  0  0
  131.8018  120.9984   60.5914 H   0  0  0  0  0  0  0  0  0  0  0  0
  132.0584  121.9659   63.1162 H   0  0  0  0  0  0  0  0  0  0  0  0
  131.2136  123.4014   62.3929 H   0  0  0  0  0  0  0  0  0  0  0  0
  129.5401  121.5233   61.5233 H   0  0  0  0  0  0  0  0  0  0  0  0
  130.2166  120.6545   62.9938 H   0  0  0  0  0  0  0  0  0  0  0  0
  128.5020  122.4693   65.5165 H   0  0  0  0  0  0  0  0  0  0  0  0
  129.7987  121.2860   65.1355 H   0  0  0  0  0  0  0  0  0  0  0  0
  130.1602  123.0455   65.1355 H   0  0  0  0  0  0  0  0  0  0  0  0
  127.2372  123.3612   63.8319 H   0  0  0  0  0  0  0  0  0  0  0  0
  1  2  1  0
  2  3  1  0
  3  4  1  0
  4  5  1  0
  5  6  1  0
  6  7  1  0
  7  8  1  0
  8  9  1  0
 10  9  1  1
 10 11  1  0
 11 12  1  0
 12 13  1  0
 13 14  1  0
 14 15  2  0
 14 16  1  0
 10 17  1  0
 17 18  1  0
 18 19  1  0
 19 20  1  0
 20 21  1  0
 21 22  1  0
 22 23  1  0
 23 24  1  0
 23 25  1  0
 25 26  2  0
 26 27  1  0
 27 28  1  0
 28 29  1  0
 29 30  1  0
 29 31  2  0
 31 32  1  0
 32 33  2  0
 32 34  1  0
 20 35  1  0
 35 10  1  0
 16 11  1  0
 34 18  1  0
  1 36  1  0
  1 37  1  0
  1 38  1  0
  2 39  1  0
  2 40  1  0
  3 41  1  0
  3 42  1  0
  4 43  1  0
  4 44  1  0
  5 45  1  0
  5 46  1  0
  6 47  1  0
  6 48  1  0
  7 49  1  0
  7 50  1  0
  8 51  1  0
  8 52  1  0
 11 53  1  6
 12 54  1  0
 12 55  1  0
 16 56  1  0
 17 57  1  0
 17 58  1  0
 18 59  1  6
 19 60  1  0
 19 61  1  0
 20 62  1  1
 21 63  1  0
 21 64  1  0
 22 65  1  0
 22 66  1  0
 23 67  1  6
 24 68  1  0
 24 69  1  0
 24 70  1  0
 25 71  1  0
 26 72  1  0
 27 73  1  0
 27 74  1  0
 28 75  1  0
 28 76  1  0
 30 77  1  0
 30 78  1  0
 30 79  1  0
 31 80  1  0
M  END
>  <Binding energies>  (1) 
[-4.13]

>  <Ligand effiencies>  (1) 
[-0.10868421052631579]

>  <Interactions>  (1) 
["V-A:ILE:369:CG2:3237, V-A:ASP:366:CA:3210, V-B:PRO:540:CA:9855, V-B:GLU:543:C:9874, V-B:GLU:543:CB:9878, V-B:ALA:541:CB:9864, V-B:TYR:539:CE2:9848, V-A:TYR:484:CE2:4346, V-B:GLU:543:CG:9879, V-A:ASP:366:CG:3213, H-B:ALA:541:N:9863, V-A:GLU:543:CD:4908, V-B:HIS:456:CE1:9041, V-B:GLU:543:CA:9876, V-A:HIS:456:CE1:4070, V-B:TYR:539:CD2:9846, V-B:GLU:543:CD:9880, V-A:ASP:366:CB:3212, V-A:LEU:475:CD2:4259, H-A:GLU:543:OE1:4909, V-B:ALA:541:CA:9862"]

$$$$
ZINC2356762381
     RDKit          3D

 61 64  0  0  0  0  0  0  0  0999 V2000
  131.1530  126.1620   63.9190 C   0  0  0  0  0  0  0  0  0  0  0  0
  129.6460  125.8470   64.1240 C   0  0  2  0  0  0  0  0  0  0  0  0
  129.3540  124.3810   63.6730 C   0  0  0  0  0  0  0  0  0  0  0  0
  129.3510  124.1180   62.1500 C   0  0  0  0  0  0  0  0  0  0  0  0
  128.4690  125.1340   61.3830 C   0  0  0  0  0  0  0  0  0  0  0  0
  127.9280  124.9220   60.2430 N   0  0  0  0  0  0  0  0  0  0  0  0
  128.1470  123.7170   59.6730 N   0  0  0  0  0  0  0  0  0  0  0  0
  127.5360  123.3380   58.5370 C   0  0  0  0  0  0  0  0  0  0  0  0
  127.8970  122.1110   58.1580 N   0  0  0  0  0  0  0  0  0  0  0  0
  126.7310  124.0150   57.8960 O   0  0  0  0  0  0  0  0  0  0  0  0
  128.3220  126.4150   62.0170 C   0  0  0  0  0  0  0  0  0  0  0  0
  128.8410  126.8020   63.2040 C   0  0  0  0  0  0  0  0  0  0  0  0
  128.7250  128.2500   63.6850 C   0  0  0  0  0  0  0  0  0  0  0  0
  128.1720  128.2720   65.1120 C   0  0  0  0  0  0  0  0  0  0  0  0
  129.0960  127.5110   66.0840 C   0  0  1  0  0  0  0  0  0  0  0  0
  128.6050  127.6730   67.5630 C   0  0  1  0  0  0  0  0  0  0  0  0
  127.1320  127.3520   67.8280 C   0  0  0  0  0  0  0  0  0  0  0  0
  127.0180  127.0180   69.3150 C   0  0  0  0  0  0  0  0  0  0  0  0
  128.4560  126.8580   69.8340 C   0  0  0  0  0  0  0  0  0  0  0  0
  128.8660  126.7870   71.0410 N   0  0  0  0  0  0  0  0  0  0  0  0
  127.8970  126.8260   71.9850 N   0  0  0  0  0  0  0  0  0  0  0  0
  127.8340  127.7300   73.0070 C   0  0  0  0  0  0  0  0  0  0  0  0
  126.7690  127.5570   73.8200 N   0  0  0  0  0  0  0  0  0  0  0  0
  128.9050  128.9700   73.3260 S   0  0  0  0  0  0  0  0  0  0  0  0
  129.3690  126.7910   68.5920 C   0  0  2  0  0  0  0  0  0  0  0  0
  130.7790  127.3910   68.8660 C   0  0  0  0  0  0  0  0  0  0  0  0
  129.5240  125.3300   68.0690 C   0  0  0  0  0  0  0  0  0  0  0  0
  130.0650  125.2470   66.6330 C   0  0  0  0  0  0  0  0  0  0  0  0
  129.1770  126.0240   65.6280 C   0  0  2  0  0  0  0  0  0  0  0  0
  131.6428  126.2644   64.8986 H   0  0  0  0  0  0  0  0  0  0  0  0
  131.6255  125.3432   63.3566 H   0  0  0  0  0  0  0  0  0  0  0  0
  131.2580  127.1015   63.3566 H   0  0  0  0  0  0  0  0  0  0  0  0
  130.1210  123.7334   64.1229 H   0  0  0  0  0  0  0  0  0  0  0  0
  128.3273  124.1715   64.0076 H   0  0  0  0  0  0  0  0  0  0  0  0
  130.3828  124.1911   61.7758 H   0  0  0  0  0  0  0  0  0  0  0  0
  128.9344  123.1140   61.9813 H   0  0  0  0  0  0  0  0  0  0  0  0
  128.7960  123.1160   60.1580 H   0  0  0  0  0  0  0  0  0  0  0  0
  128.5620  121.5800   58.7010 H   0  0  0  0  0  0  0  0  0  0  0  0
  127.5040  121.7080   57.3200 H   0  0  0  0  0  0  0  0  0  0  0  0
  127.7216  127.1625   61.4778 H   0  0  0  0  0  0  0  0  0  0  0  0
  129.7185  128.7220   63.6697 H   0  0  0  0  0  0  0  0  0  0  0  0
  128.0453  128.8033   63.0203 H   0  0  0  0  0  0  0  0  0  0  0  0
  128.0835  129.3164   65.4457 H   0  0  0  0  0  0  0  0  0  0  0  0
  127.1888  127.7787   65.1104 H   0  0  0  0  0  0  0  0  0  0  0  0
  130.1114  127.9332   66.0594 H   0  0  0  0  0  0  0  0  0  0  0  0
  128.7978  128.7477   67.6967 H   0  0  0  0  0  0  0  0  0  0  0  0
  126.5044  128.2222   67.5854 H   0  0  0  0  0  0  0  0  0  0  0  0
  126.7912  126.5115   67.2056 H   0  0  0  0  0  0  0  0  0  0  0  0
  126.5086  127.8329   69.8502 H   0  0  0  0  0  0  0  0  0  0  0  0
  126.4316  126.1011   69.4745 H   0  0  0  0  0  0  0  0  0  0  0  0
  127.1800  126.1220   71.8930 H   0  0  0  0  0  0  0  0  0  0  0  0
  126.1180  126.8050   73.6470 H   0  0  0  0  0  0  0  0  0  0  0  0
  126.6350  128.1790   74.6040 H   0  0  0  0  0  0  0  0  0  0  0  0
  130.9431  127.4608   69.9514 H   0  0  0  0  0  0  0  0  0  0  0  0
  131.5468  126.7416   68.4201 H   0  0  0  0  0  0  0  0  0  0  0  0
  130.8434  128.3945   68.4201 H   0  0  0  0  0  0  0  0  0  0  0  0
  130.2173  124.7940   68.7338 H   0  0  0  0  0  0  0  0  0  0  0  0
  128.5201  124.8803   68.0630 H   0  0  0  0  0  0  0  0  0  0  0  0
  131.0795  125.6715   66.6114 H   0  0  0  0  0  0  0  0  0  0  0  0
  130.0680  124.1886   66.3335 H   0  0  0  0  0  0  0  0  0  0  0  0
  128.1623  125.5994   65.6373 H   0  0  0  0  0  0  0  0  0  0  0  0
  2  1  1  1
  2  3  1  0
  3  4  1  0
  4  5  1  0
  5  6  2  0
  6  7  1  0
  7  8  1  0
  8  9  1  0
  8 10  2  0
  5 11  1  0
 11 12  2  0
 12 13  1  0
 13 14  1  0
 14 15  1  0
 15 16  1  0
 16 17  1  0
 17 18  1  0
 18 19  1  0
 19 20  2  0
 20 21  1  0
 21 22  1  0
 22 23  1  0
 22 24  2  0
 19 25  1  0
 25 26  1  1
 25 27  1  0
 27 28  1  0
 28 29  1  0
 12  2  1  0
 29 15  1  0
 29  2  1  0
 25 16  1  0
  1 30  1  0
  1 31  1  0
  1 32  1  0
  3 33  1  0
  3 34  1  0
  4 35  1  0
  4 36  1  0
  7 37  1  0
  9 38  1  0
  9 39  1  0
 11 40  1  0
 13 41  1  0
 13 42  1  0
 14 43  1  0
 14 44  1  0
 15 45  1  1
 16 46  1  1
 17 47  1  0
 17 48  1  0
 18 49  1  0
 18 50  1  0
 21 51  1  0
 23 52  1  0
 23 53  1  0
 26 54  1  0
 26 55  1  0
 26 56  1  0
 27 57  1  0
 27 58  1  0
 28 59  1  0
 28 60  1  0
 29 61  1  6
M  END
>  <Binding energies>  (1) 
[-7.31]

>  <Ligand effiencies>  (1) 
[-0.20885714285714285]

>  <Interactions>  (1) 
["V-B:TYR:539:CA:9841, V-B:PRO:540:CA:9855, V-B:GLU:543:C:9874, V-B:HIS:456:CD2:9039, H-B:GLU:543:O:9875, V-B:GLU:543:CB:9878, V-B:TYR:539:CE2:9848, V-A:TYR:484:CE2:4346, V-B:GLU:543:CG:9879, V-B:TYR:539:C:9839, V-B:TYR:539:CZ:9849, V-B:LYS:547:CE:9922, V-A:GLU:543:CD:4908, V-B:HIS:456:CE1:9041, V-B:GLU:543:CA:9876, V-B:PRO:540:N:9856, V-A:HIS:456:CE1:4070, V-B:GLY:544:C:9884, V-B:TYR:539:CD2:9846, V-A:GLU:543:CG:4907, V-B:GLU:543:CD:9880, V-B:HIS:456:CG:9037, V-B:TYR:539:CG:9844, V-A:GLU:543:CB:4906, H-B:GLY:544:O:9885, V-B:TYR:539:CD1:9845, H-B:TYR:539:O:9840"]

$$$$
ZINC2356763610
     RDKit          3D

 84 87  0  0  0  0  0  0  0  0999 V2000
  130.0650  127.7550   69.6580 C   0  0  0  0  0  0  0  0  0  0  0  0
  128.7940  127.6020   68.8140 C   0  0  0  0  0  0  0  0  0  0  0  0
  129.0120  127.8860   67.3410 C   0  0  0  0  0  0  0  0  0  0  0  0
  128.0370  128.1820   66.4630 C   0  0  0  0  0  0  0  0  0  0  0  0
  128.2900  128.4440   65.0600 C   0  0  0  0  0  0  0  0  0  0  0  0
  127.6920  129.4400   64.3820 C   0  0  0  0  0  0  0  0  0  0  0  0
  127.9410  129.7010   62.9770 C   0  0  0  0  0  0  0  0  0  0  0  0
  128.4570  128.7750   62.1470 C   0  0  0  0  0  0  0  0  0  0  0  0
  128.7170  129.0320   60.7360 C   0  0  0  0  0  0  0  0  0  0  0  0
  128.7490  130.1600   60.2380 O   0  0  0  0  0  0  0  0  0  0  0  0
  128.9180  127.8790   60.0490 O   0  0  0  0  0  0  0  0  0  0  0  0
  128.7310  126.5840   60.6350 C   0  0  2  0  0  0  0  0  0  0  0  0
  129.7550  126.1680   61.7480 C   0  0  2  0  0  0  0  0  0  0  0  0
  131.0240  127.0440   61.8140 C   0  0  0  0  0  0  0  0  0  0  0  0
  129.9460  124.6130   61.8250 C   0  0  1  0  0  0  0  0  0  0  0  0
  128.6450  124.1190   62.1650 O   0  0  0  0  0  0  0  0  0  0  0  0
  130.2720  123.9650   60.4450 C   0  0  2  0  0  0  0  0  0  0  0  0
  131.6850  124.0330   59.8700 C   0  0  0  0  0  0  0  0  0  0  0  0
  132.8830  124.3260   60.4200 C   0  0  0  0  0  0  0  0  0  0  0  0
  134.0790  124.3620   59.4670 C   0  0  0  0  0  0  0  0  0  0  0  0
  133.6350  124.1610   58.1400 O   0  0  0  0  0  0  0  0  0  0  0  0
  133.1830  124.6560   61.8760 C   0  0  0  0  0  0  0  0  0  0  0  0
  132.3470  124.0130   63.0040 C   0  0  1  0  0  0  0  0  0  0  0  0
  132.7780  124.5340   64.3820 C   0  0  0  0  0  0  0  0  0  0  0  0
  133.9240  124.6590   64.8120 O   0  0  0  0  0  0  0  0  0  0  0  0
  131.5770  124.9160   65.1130 C   0  0  0  0  0  0  0  0  0  0  0  0
  131.7150  125.4960   66.5090 C   0  0  0  0  0  0  0  0  0  0  0  0
  130.4850  124.6470   64.3830 C   0  0  0  0  0  0  0  0  0  0  0  0
  130.8040  124.0570   63.0240 C   0  0  1  0  0  0  0  0  0  0  0  0
  129.2020  124.2810   59.3480 C   0  0  2  0  0  0  0  0  0  0  0  0
  129.3020  125.3630   58.2780 C   0  0  0  0  0  0  0  0  0  0  0  0
  130.5440  126.2570   58.0850 C   0  0  0  0  0  0  0  0  0  0  0  0
  128.6880  124.9970   56.9090 C   0  0  0  0  0  0  0  0  0  0  0  0
  128.3770  125.5930   59.4660 C   0  0  2  0  0  0  0  0  0  0  0  0
  126.9670  125.4260   59.2870 O   0  0  0  0  0  0  0  0  0  0  0  0
  126.3850  124.2010   59.2820 C   0  0  0  0  0  0  0  0  0  0  0  0
  125.6160  123.7620   58.4260 O   0  0  0  0  0  0  0  0  0  0  0  0
  126.7800  123.3630   60.4990 C   0  0  0  0  0  0  0  0  0  0  0  0
  125.7510  123.4250   61.6500 C   0  0  0  0  0  0  0  0  0  0  0  0
  126.2580  122.8630   62.9900 C   0  0  0  0  0  0  0  0  0  0  0  0
  129.8022  127.7234   70.7257 H   0  0  0  0  0  0  0  0  0  0  0  0
  130.7596  126.9340   69.4269 H   0  0  0  0  0  0  0  0  0  0  0  0
  130.5450  128.7174   69.4269 H   0  0  0  0  0  0  0  0  0  0  0  0
  128.4273  126.5703   68.9197 H   0  0  0  0  0  0  0  0  0  0  0  0
  128.0679  128.3411   69.1833 H   0  0  0  0  0  0  0  0  0  0  0  0
  130.0440  127.8471   66.9621 H   0  0  0  0  0  0  0  0  0  0  0  0
  126.9998  128.2273   66.8264 H   0  0  0  0  0  0  0  0  0  0  0  0
  129.0032  127.7992   64.5256 H   0  0  0  0  0  0  0  0  0  0  0  0
  126.9813  130.0865   64.9177 H   0  0  0  0  0  0  0  0  0  0  0  0
  127.6985  130.6952   62.5736 H   0  0  0  0  0  0  0  0  0  0  0  0
  128.6930  127.7798   62.5519 H   0  0  0  0  0  0  0  0  0  0  0  0
  127.8690  126.5716   61.3182 H   0  0  0  0  0  0  0  0  0  0  0  0
  129.2982  126.4168   62.7172 H   0  0  0  0  0  0  0  0  0  0  0  0
  131.2890  127.2269   62.8658 H   0  0  0  0  0  0  0  0  0  0  0  0
  131.8540  126.5256   61.3116 H   0  0  0  0  0  0  0  0  0  0  0  0
  130.8335  128.0038   61.3116 H   0  0  0  0  0  0  0  0  0  0  0  0
  128.1750  124.8040   62.6460 H   0  0  0  0  0  0  0  0  0  0  0  0
  130.2204  122.9099   60.7517 H   0  0  0  0  0  0  0  0  0  0  0  0
  131.7373  123.7969   58.7969 H   0  0  0  0  0  0  0  0  0  0  0  0
  134.5774  125.3397   59.5420 H   0  0  0  0  0  0  0  0  0  0  0  0
  134.7870  123.5655   59.7396 H   0  0  0  0  0  0  0  0  0  0  0  0
  134.3550  124.3710   57.5410 H   0  0  0  0  0  0  0  0  0  0  0  0
  134.2303  124.3719   62.0562 H   0  0  0  0  0  0  0  0  0  0  0  0
  132.9271  125.7233   61.9501 H   0  0  0  0  0  0  0  0  0  0  0  0
  132.5837  122.9661   62.7634 H   0  0  0  0  0  0  0  0  0  0  0  0
  131.5276  124.7082   67.2535 H   0  0  0  0  0  0  0  0  0  0  0  0
  132.7325  125.8921   66.6425 H   0  0  0  0  0  0  0  0  0  0  0  0
  130.9850  126.3079   66.6425 H   0  0  0  0  0  0  0  0  0  0  0  0
  129.4601  124.8357   64.7353 H   0  0  0  0  0  0  0  0  0  0  0  0
  130.4521  123.0299   62.8472 H   0  0  0  0  0  0  0  0  0  0  0  0
  129.0266  123.1968   59.2875 H   0  0  0  0  0  0  0  0  0  0  0  0
  130.9446  126.5453   59.0681 H   0  0  0  0  0  0  0  0  0  0  0  0
  131.3113  125.7027   57.5246 H   0  0  0  0  0  0  0  0  0  0  0  0
  130.2619  127.1606   57.5246 H   0  0  0  0  0  0  0  0  0  0  0  0
  127.7526  124.4394   57.0640 H   0  0  0  0  0  0  0  0  0  0  0  0
  128.4772  125.9169   56.3440 H   0  0  0  0  0  0  0  0  0  0  0  0
  129.3969  124.3740   56.3440 H   0  0  0  0  0  0  0  0  0  0  0  0
  126.8843  122.3151   60.1812 H   0  0  0  0  0  0  0  0  0  0  0  0
  127.7229  123.7775   60.8851 H   0  0  0  0  0  0  0  0  0  0  0  0
  125.4697  124.4774   61.8031 H   0  0  0  0  0  0  0  0  0  0  0  0
  124.9033  122.7931   61.3463 H   0  0  0  0  0  0  0  0  0  0  0  0
  125.7739  123.3996   63.8193 H   0  0  0  0  0  0  0  0  0  0  0  0
  126.0143  121.7922   63.0542 H   0  0  0  0  0  0  0  0  0  0  0  0
  127.3481  122.9955   63.0542 H   0  0  0  0  0  0  0  0  0  0  0  0
  1  2  1  0
  2  3  1  0
  3  4  2  0
  4  5  1  0
  5  6  2  0
  6  7  1  0
  7  8  2  0
  8  9  1  0
  9 10  2  0
  9 11  1  0
 11 12  1  0
 12 13  1  0
 13 14  1  0
 13 15  1  0
 15 16  1  1
 15 17  1  0
 17 18  1  0
 18 19  2  0
 19 20  1  0
 20 21  1  0
 19 22  1  0
 22 23  1  0
 23 24  1  0
 24 25  2  0
 24 26  1  0
 26 27  1  0
 26 28  2  0
 28 29  1  0
 17 30  1  0
 30 31  1  0
 31 32  1  0
 31 33  1  0
 31 34  1  0
 34 35  1  6
 35 36  1  0
 36 37  2  0
 36 38  1  0
 38 39  1  0
 39 40  1  0
 34 12  1  0
 29 15  1  0
 34 30  1  0
 29 23  1  0
  1 41  1  0
  1 42  1  0
  1 43  1  0
  2 44  1  0
  2 45  1  0
  3 46  1  0
  4 47  1  0
  5 48  1  0
  6 49  1  0
  7 50  1  0
  8 51  1  0
 12 52  1  1
 13 53  1  1
 14 54  1  0
 14 55  1  0
 14 56  1  0
 16 57  1  0
 17 58  1  1
 18 59  1  0
 20 60  1  0
 20 61  1  0
 21 62  1  0
 22 63  1  0
 22 64  1  0
 23 65  1  1
 27 66  1  0
 27 67  1  0
 27 68  1  0
 28 69  1  0
 29 70  1  1
 30 71  1  6
 32 72  1  0
 32 73  1  0
 32 74  1  0
 33 75  1  0
 33 76  1  0
 33 77  1  0
 38 78  1  0
 38 79  1  0
 39 80  1  0
 39 81  1  0
 40 82  1  0
 40 83  1  0
 40 84  1  0
M  END
>  <Binding energies>  (1) 
[-6.53]

>  <Ligand effiencies>  (1) 
[-0.1484090909090909]

>  <Interactions>  (1) 
["V-A:ILE:369:CG2:3237, V-A:ASP:366:CA:3210, V-B:PRO:540:CA:9855, V-A:ILE:369:CB:3236, V-B:ALA:541:CB:9864, V-B:TYR:539:CE2:9848, V-B:GLU:543:CG:9879, V-A:ASP:366:CG:3213, V-B:TYR:539:CZ:9849, H-B:GLU:543:OE1:9881, H-B:TYR:539:OH:9850, V-A:GLU:543:CD:4908, V-B:PRO:540:CB:9857, V-A:TYR:484:CZ:4347, V-B:HIS:456:CE1:9041, H-A:GLY:454:N:4050, V-A:HIS:456:CE1:4070, V-B:ALA:541:C:9860, V-A:ILE:369:CD1:3239, V-A:ASP:366:C:3208, V-A:GLU:543:CG:4907, V-B:GLU:543:CD:9880, V-A:ASP:366:CB:3212, H-A:ARG:545:NH2:4928, V-A:ARG:545:CZ:4926, H-A:ASP:366:O:3209, V-A:GLU:543:CB:4906, H-A:ARG:545:NE:4924, V-B:PRO:540:C:9853, V-B:ALA:541:CA:9862, H-A:TYR:484:OH:4348"]

$$$$
ZINC2356767366-again2
     RDKit          3D

 76 79  0  0  0  0  0  0  0  0999 V2000
  128.9290  132.5500   59.0770 C   0  0  0  0  0  0  0  0  0  0  0  0
  127.9350  131.5400   59.2260 O   0  0  0  0  0  0  0  0  0  0  0  0
  127.7880  130.8760   60.4350 C   0  0  0  0  0  0  0  0  0  0  0  0
  128.4960  131.2520   61.5840 C   0  0  0  0  0  0  0  0  0  0  0  0
  128.3690  130.5500   62.7750 C   0  0  0  0  0  0  0  0  0  0  0  0
  129.1060  130.9910   63.8450 O   0  0  0  0  0  0  0  0  0  0  0  0
  127.5220  129.4310   62.8630 C   0  0  0  0  0  0  0  0  0  0  0  0
  127.3820  128.6490   64.1920 C   0  0  1  0  0  0  0  0  0  0  0  0
  128.5660  127.7160   64.4350 C   0  0  0  0  0  0  0  0  0  0  0  0
  129.2730  127.1020   63.4650 C   0  0  0  0  0  0  0  0  0  0  0  0
  130.4190  126.1830   63.6440 C   0  0  0  0  0  0  0  0  0  0  0  0
  131.3610  125.9490   62.6330 C   0  0  0  0  0  0  0  0  0  0  0  0
  132.4250  125.0760   62.8510 C   0  0  0  0  0  0  0  0  0  0  0  0
  132.5540  124.4330   64.0790 C   0  0  0  0  0  0  0  0  0  0  0  0
  133.5990  123.5750   64.2920 O   0  0  0  0  0  0  0  0  0  0  0  0
  131.6240  124.6580   65.0930 C   0  0  0  0  0  0  0  0  0  0  0  0
  130.5610  125.5300   64.8730 C   0  0  0  0  0  0  0  0  0  0  0  0
  127.0720  129.5810   65.3910 C   0  0  0  0  0  0  0  0  0  0  0  0
  128.0100  129.3900   66.6010 C   0  0  0  0  0  0  0  0  0  0  0  0
  127.6030  128.2010   67.4890 C   0  0  0  0  0  0  0  0  0  0  0  0
  128.7800  127.2610   67.8060 C   0  0  0  0  0  0  0  0  0  0  0  0
  129.3690  127.5040   69.1880 C   0  0  0  0  0  0  0  0  0  0  0  0
  128.5700  127.3490   70.3240 C   0  0  0  0  0  0  0  0  0  0  0  0
  129.1100  127.5670   71.5880 C   0  0  0  0  0  0  0  0  0  0  0  0
  130.4480  127.9390   71.7150 C   0  0  0  0  0  0  0  0  0  0  0  0
  130.9780  128.1520   72.9590 O   0  0  0  0  0  0  0  0  0  0  0  0
  131.2490  128.0950   70.5850 C   0  0  0  0  0  0  0  0  0  0  0  0
  130.7090  127.8760   69.3190 C   0  0  0  0  0  0  0  0  0  0  0  0
  126.7970  129.0490   61.7150 C   0  0  0  0  0  0  0  0  0  0  0  0
  125.9420  127.9700   61.7940 O   0  0  0  0  0  0  0  0  0  0  0  0
  126.9150  129.7700   60.5040 C   0  0  0  0  0  0  0  0  0  0  0  0
  126.1690  129.3310   59.2710 C   0  0  0  0  0  0  0  0  0  0  0  0
  125.7550  130.1500   58.4460 O   0  0  0  0  0  0  0  0  0  0  0  0
  126.0910  127.8910   59.0040 C   0  0  0  0  0  0  0  0  0  0  0  0
  126.8420  127.2710   58.0660 C   0  0  0  0  0  0  0  0  0  0  0  0
  126.8180  125.8300   57.7300 C   0  0  0  0  0  0  0  0  0  0  0  0
  125.7050  125.0160   57.9830 C   0  0  0  0  0  0  0  0  0  0  0  0
  125.7300  123.6640   57.6460 C   0  0  0  0  0  0  0  0  0  0  0  0
  126.8680  123.1190   57.0550 C   0  0  0  0  0  0  0  0  0  0  0  0
  126.8910  121.7900   56.7250 O   0  0  0  0  0  0  0  0  0  0  0  0
  127.9800  123.9160   56.7990 C   0  0  0  0  0  0  0  0  0  0  0  0
  127.9530  125.2680   57.1350 C   0  0  0  0  0  0  0  0  0  0  0  0
  129.2609  132.8872   60.0701 H   0  0  0  0  0  0  0  0  0  0  0  0
  129.7869  132.1413   58.5230 H   0  0  0  0  0  0  0  0  0  0  0  0
  128.5066  133.4012   58.5230 H   0  0  0  0  0  0  0  0  0  0  0  0
  129.1672  132.1225   61.5415 H   0  0  0  0  0  0  0  0  0  0  0  0
  130.0230  130.7110   63.8060 H   0  0  0  0  0  0  0  0  0  0  0  0
  126.5029  127.9951   64.0938 H   0  0  0  0  0  0  0  0  0  0  0  0
  128.8639  127.5313   65.4777 H   0  0  0  0  0  0  0  0  0  0  0  0
  128.9648  127.3061   62.4290 H   0  0  0  0  0  0  0  0  0  0  0  0
  131.2599  126.4570   61.6626 H   0  0  0  0  0  0  0  0  0  0  0  0
  133.1616  124.8953   62.0543 H   0  0  0  0  0  0  0  0  0  0  0  0
  133.4390  122.9620   65.0130 H   0  0  0  0  0  0  0  0  0  0  0  0
  131.7295  124.1490   66.0624 H   0  0  0  0  0  0  0  0  0  0  0  0
  129.8265  125.7070   65.6725 H   0  0  0  0  0  0  0  0  0  0  0  0
  127.1582  130.6229   65.0490 H   0  0  0  0  0  0  0  0  0  0  0  0
  126.0583  129.3270   65.7343 H   0  0  0  0  0  0  0  0  0  0  0  0
  129.0314  129.2184   66.2303 H   0  0  0  0  0  0  0  0  0  0  0  0
  127.9466  130.2998   67.2161 H   0  0  0  0  0  0  0  0  0  0  0  0
  127.2004  128.5911   68.4354 H   0  0  0  0  0  0  0  0  0  0  0  0
  126.8531  127.6167   66.9357 H   0  0  0  0  0  0  0  0  0  0  0  0
  128.4245  126.2214   67.7526 H   0  0  0  0  0  0  0  0  0  0  0  0
  129.5713  127.4583   67.0678 H   0  0  0  0  0  0  0  0  0  0  0  0
  127.5152  127.0550   70.2192 H   0  0  0  0  0  0  0  0  0  0  0  0
  128.4834  127.4463   72.4840 H   0  0  0  0  0  0  0  0  0  0  0  0
  131.9170  127.9580   73.0030 H   0  0  0  0  0  0  0  0  0  0  0  0
  132.3033  128.3898   70.6921 H   0  0  0  0  0  0  0  0  0  0  0  0
  131.3372  127.9959   68.4241 H   0  0  0  0  0  0  0  0  0  0  0  0
  126.1950  127.3430   62.4740 H   0  0  0  0  0  0  0  0  0  0  0  0
  125.3877  127.2863   59.5953 H   0  0  0  0  0  0  0  0  0  0  0  0
  127.5407  127.9007   57.4956 H   0  0  0  0  0  0  0  0  0  0  0  0
  124.8071  125.4468   58.4501 H   0  0  0  0  0  0  0  0  0  0  0  0
  124.8542  123.0292   57.8459 H   0  0  0  0  0  0  0  0  0  0  0  0
  127.6510  121.3290   57.0870 H   0  0  0  0  0  0  0  0  0  0  0  0
  128.8764  123.4804   56.3334 H   0  0  0  0  0  0  0  0  0  0  0  0
  128.8309  125.8986   56.9309 H   0  0  0  0  0  0  0  0  0  0  0  0
  1  2  1  0
  2  3  1  0
  3  4  2  0
  4  5  1  0
  5  6  1  0
  5  7  2  0
  7  8  1  0
  8  9  1  0
  9 10  2  0
 10 11  1  0
 11 12  2  0
 12 13  1  0
 13 14  2  0
 14 15  1  0
 14 16  1  0
 16 17  2  0
  8 18  1  0
 18 19  1  0
 19 20  1  0
 20 21  1  0
 21 22  1  0
 22 23  2  0
 23 24  1  0
 24 25  2  0
 25 26  1  0
 25 27  1  0
 27 28  2  0
  7 29  1  0
 29 30  1  0
 29 31  2  0
 31 32  1  0
 32 33  2  0
 32 34  1  0
 34 35  2  0
 35 36  1  0
 36 37  2  0
 37 38  1  0
 38 39  2  0
 39 40  1  0
 39 41  1  0
 41 42  2  0
 31  3  1  0
 42 36  1  0
 17 11  1  0
 28 22  1  0
  1 43  1  0
  1 44  1  0
  1 45  1  0
  4 46  1  0
  6 47  1  0
  8 48  1  6
  9 49  1  0
 10 50  1  0
 12 51  1  0
 13 52  1  0
 15 53  1  0
 16 54  1  0
 17 55  1  0
 18 56  1  0
 18 57  1  0
 19 58  1  0
 19 59  1  0
 20 60  1  0
 20 61  1  0
 21 62  1  0
 21 63  1  0
 23 64  1  0
 24 65  1  0
 26 66  1  0
 27 67  1  0
 28 68  1  0
 30 69  1  0
 34 70  1  0
 35 71  1  0
 37 72  1  0
 38 73  1  0
 40 74  1  0
 41 75  1  0
 42 76  1  0
M  END
>  <Binding energies>  (1) 
[-8.57]

>  <Ligand effiencies>  (1) 
[-0.1823404255319149]

>  <Interactions>  (1) 
["V-A:ARG:545:CA:4919, H-A:GLU:543:OE2:4910, V-B:TYR:539:CE1:9847, V-A:GLU:543:C:4902, V-B:GLU:543:CB:9878, V-B:ASP:366:CG:8184, V-B:TYR:539:CE2:9848, H-B:TYR:539:N:9842, V-A:GLY:544:CA:4914, V-A:GLY:544:C:4912, V-A:TYR:539:CD1:4873, V-B:TYR:539:CZ:9849, H-B:GLU:543:OE1:9881, V-B:ASP:366:CB:8183, V-B:PRO:540:CB:9857, V-A:GLU:543:CD:4908, V-A:TYR:484:CZ:4347, H-B:ASP:366:OD1:8185, V-B:HIS:456:CE1:9041, H-A:GLY:454:N:4050, V-B:PRO:540:N:9856, V-B:TYR:484:CZ:9318, V-A:HIS:456:CE1:4070, V-A:GLU:543:CG:4907, V-B:GLU:543:CD:9880, V-A:TYR:539:C:4867, H-B:TYR:531:OH:9767, H-A:LYS:547:NZ:4951, V-A:ARG:545:CZ:4926, H-A:GLU:543:OE1:4909, H-B:ARG:545:NH2:9900, V-A:GLU:543:CB:4906, H-B:GLU:543:OE2:9882, V-A:PRO:540:CA:4883, H-B:TYR:539:O:9840, H-A:GLY:544:O:4913, H-A:TYR:484:OH:4348"]

$$$$
ZINC2356773357
     RDKit          3D

137146  0  0  0  0  0  0  0  0999 V2000
  128.9940  128.8440   74.5940 C   0  0  0  0  0  0  0  0  0  0  0  0
  129.4880  127.4210   74.2600 C   0  0  0  0  0  0  0  0  0  0  0  0
  130.3900  126.8740   75.3850 C   0  0  0  0  0  0  0  0  0  0  0  0
  130.1500  127.2940   72.8510 C   0  0  2  0  0  0  0  0  0  0  0  0
  131.6690  127.0180   72.9320 C   0  0  0  0  0  0  0  0  0  0  0  0
  129.8770  128.4870   71.8860 C   0  0  2  0  0  0  0  0  0  0  0  0
  128.5480  128.7640   71.5330 O   0  0  0  0  0  0  0  0  0  0  0  0
  129.3620  128.3870   70.4520 C   0  0  2  0  0  0  0  0  0  0  0  0
  128.9230  127.1110   69.6490 C   0  0  2  0  0  0  0  0  0  0  0  0
  127.6120  127.3250   68.8540 C   0  0  0  0  0  0  0  0  0  0  0  0
  128.6010  126.0740   70.5580 O   0  0  0  0  0  0  0  0  0  0  0  0
  130.0600  126.4910   68.7470 C   0  0  2  0  0  0  0  0  0  0  0  0
  131.3960  127.2900   68.7230 C   0  0  0  0  0  0  0  0  0  0  0  0
  132.1350  126.8870   67.4270 C   0  0  0  0  0  0  0  0  0  0  0  0
  131.3560  125.6650   66.8940 C   0  0  2  0  0  0  0  0  0  0  0  0
  131.8500  124.5530   67.6450 O   0  0  0  0  0  0  0  0  0  0  0  0
  131.4900  125.2770   65.4100 C   0  0  0  0  0  0  0  0  0  0  0  0
  132.5560  125.6260   64.6510 C   0  0  0  0  0  0  0  0  0  0  0  0
  132.8320  125.1250   63.3040 C   0  0  0  0  0  0  0  0  0  0  0  0
  133.8580  125.4810   62.7240 O   0  0  0  0  0  0  0  0  0  0  0  0
  131.8120  124.1200   62.6730 C   0  0  1  0  0  0  0  0  0  0  0  0
  132.6050  123.0570   61.8130 C   0  0  0  0  0  0  0  0  0  0  0  0
  131.8130  121.7860   61.3460 C   0  0  2  0  0  0  0  0  0  0  0  0
  131.4590  121.8720   59.9750 O   0  0  0  0  0  0  0  0  0  0  0  0
  130.6570  121.2840   62.2840 C   0  0  2  0  0  0  0  0  0  0  0  0
  129.6380  120.5750   61.6010 O   0  0  0  0  0  0  0  0  0  0  0  0
  130.0160  122.3830   63.1700 C   0  0  0  0  0  0  0  0  0  0  0  0
  131.0650  123.3120   63.8420 C   0  0  1  0  0  0  0  0  0  0  0  0
  132.0400  122.3970   64.6820 C   0  0  0  0  0  0  0  0  0  0  0  0
  130.3990  124.3130   64.8670 C   0  0  1  0  0  0  0  0  0  0  0  0
  129.5250  123.7150   66.0180 C   0  0  0  0  0  0  0  0  0  0  0  0
  128.9650  124.7650   67.0220 C   0  0  0  0  0  0  0  0  0  0  0  0
  129.8590  126.0330   67.2430 C   0  0  1  0  0  0  0  0  0  0  0  0
  129.3560  127.2170   66.3150 C   0  0  0  0  0  0  0  0  0  0  0  0
  128.7750  128.5150   66.9400 C   0  0  0  0  0  0  0  0  0  0  0  0
  128.6880  129.6470   65.9200 C   0  0  0  0  0  0  0  0  0  0  0  0
  128.7260  130.9870   66.3160 C   0  0  0  0  0  0  0  0  0  0  0  0
  128.7370  132.0020   65.3580 C   0  0  0  0  0  0  0  0  0  0  0  0
  128.7940  133.3110   65.7540 O   0  0  0  0  0  0  0  0  0  0  0  0
  128.7070  131.6860   63.9980 C   0  0  0  0  0  0  0  0  0  0  0  0
  128.6380  130.3490   63.5830 C   0  0  0  0  0  0  0  0  0  0  0  0
  128.6230  129.3420   64.5620 C   0  0  0  0  0  0  0  0  0  0  0  0
  128.6580  130.0220   62.2050 N   0  0  0  0  0  0  0  0  0  0  0  0
  129.8670  130.0090   61.3900 C   0  0  0  0  0  0  0  0  0  0  0  0
  129.5740  129.1950   60.1290 C   0  0  0  0  0  0  0  0  0  0  0  0
  130.1060  127.7450   60.3390 C   0  0  0  0  0  0  0  0  0  0  0  0
  130.3980  127.1130   58.9690 C   0  0  0  0  0  0  0  0  0  0  0  0
  130.5320  128.2950   58.0140 C   0  0  0  0  0  0  0  0  0  0  0  0
  130.4850  129.5320   58.9120 C   0  0  0  0  0  0  0  0  0  0  0  0
  128.0030  129.4220   60.0130 C   0  0  1  0  0  0  0  0  0  0  0  0
  127.5520  129.8310   61.4390 C   0  0  0  0  0  0  0  0  0  0  0  0
  126.3770  129.9750   61.7850 O   0  0  0  0  0  0  0  0  0  0  0  0
  127.6680  130.6650   59.0520 C   0  0  2  0  0  0  0  0  0  0  0  0
  128.2770  132.0820   59.3190 C   0  0  0  0  0  0  0  0  0  0  0  0
  127.8540  132.6770   60.5300 O   0  0  0  0  0  0  0  0  0  0  0  0
  126.1560  130.8550   58.7570 C   0  0  0  0  0  0  0  0  0  0  0  0
  125.5090  129.5980   58.1950 C   0  0  0  0  0  0  0  0  0  0  0  0
  125.6700  128.4390   59.1760 C   0  0  0  0  0  0  0  0  0  0  0  0
  127.1470  128.1260   59.5690 C   0  0  2  0  0  0  0  0  0  0  0  0
  127.1100  126.7570   60.3310 C   0  0  0  0  0  0  0  0  0  0  0  0
  128.1310  126.3810   61.8000 S   0  0  0  0  0  0  0  0  0  0  0  0
  129.1650  124.6690   61.3870 S   0  0  0  0  0  0  0  0  0  0  0  0
  130.9300  125.0040   61.6680 C   0  0  2  0  0  0  0  0  0  0  0  0
  131.5430  125.2560   60.4250 O   0  0  0  0  0  0  0  0  0  0  0  0
  128.9502  128.9701   75.6859 H   0  0  0  0  0  0  0  0  0  0  0  0
  129.6883  129.5828   74.1671 H   0  0  0  0  0  0  0  0  0  0  0  0
  127.9913  128.9937   74.1671 H   0  0  0  0  0  0  0  0  0  0  0  0
  128.5907  126.7873   74.2028 H   0  0  0  0  0  0  0  0  0  0  0  0
  129.9576  127.1362   76.3619 H   0  0  0  0  0  0  0  0  0  0  0  0
  130.4622  125.7798   75.2978 H   0  0  0  0  0  0  0  0  0  0  0  0
  131.3936  127.3158   75.2978 H   0  0  0  0  0  0  0  0  0  0  0  0
  129.6479  126.4192   72.4121 H   0  0  0  0  0  0  0  0  0  0  0  0
  131.9758  126.9623   73.9869 H   0  0  0  0  0  0  0  0  0  0  0  0
  131.8954  126.0640   72.4334 H   0  0  0  0  0  0  0  0  0  0  0  0
  132.2166  127.8314   72.4334 H   0  0  0  0  0  0  0  0  0  0  0  0
  130.7490  128.9848   72.3352 H   0  0  0  0  0  0  0  0  0  0  0  0
  129.7746  128.7656   69.5052 H   0  0  0  0  0  0  0  0  0  0  0  0
  126.7759  127.4615   69.5556 H   0  0  0  0  0  0  0  0  0  0  0  0
  127.7090  128.2192   68.2208 H   0  0  0  0  0  0  0  0  0  0  0  0
  127.4196  126.4464   68.2208 H   0  0  0  0  0  0  0  0  0  0  0  0
  128.2930  126.4730   71.3750 H   0  0  0  0  0  0  0  0  0  0  0  0
  130.0436  125.5631   69.3376 H   0  0  0  0  0  0  0  0  0  0  0  0
  131.1908  128.3707   68.7213 H   0  0  0  0  0  0  0  0  0  0  0  0
  132.0057  127.0656   69.6107 H   0  0  0  0  0  0  0  0  0  0  0  0
  132.1133  127.7093   66.6967 H   0  0  0  0  0  0  0  0  0  0  0  0
  133.1956  126.6575   67.6074 H   0  0  0  0  0  0  0  0  0  0  0  0
  131.1690  123.8760   67.6630 H   0  0  0  0  0  0  0  0  0  0  0  0
  133.2710  126.3428   65.0811 H   0  0  0  0  0  0  0  0  0  0  0  0
  132.9740  123.5680   60.9115 H   0  0  0  0  0  0  0  0  0  0  0  0
  133.3894  122.6750   62.4829 H   0  0  0  0  0  0  0  0  0  0  0  0
  132.5323  120.9607   61.4533 H   0  0  0  0  0  0  0  0  0  0  0  0
  130.5360  121.6270   59.8810 H   0  0  0  0  0  0  0  0  0  0  0  0
  131.1810  120.5868   62.9543 H   0  0  0  0  0  0  0  0  0  0  0  0
  129.7310  120.7410   60.6600 H   0  0  0  0  0  0  0  0  0  0  0  0
  129.3550  122.9980   62.5417 H   0  0  0  0  0  0  0  0  0  0  0  0
  129.4637  121.8754   63.9746 H   0  0  0  0  0  0  0  0  0  0  0  0
  131.8641  122.5621   65.7552 H   0  0  0  0  0  0  0  0  0  0  0  0
  131.8529  121.3409   64.4380 H   0  0  0  0  0  0  0  0  0  0  0  0
  133.0822  122.6507   64.4380 H   0  0  0  0  0  0  0  0  0  0  0  0
  129.6377  124.8461   64.2786 H   0  0  0  0  0  0  0  0  0  0  0  0
  128.6735  123.1877   65.5631 H   0  0  0  0  0  0  0  0  0  0  0  0
  130.1849  123.0523   66.5971 H   0  0  0  0  0  0  0  0  0  0  0  0
  127.9863  125.1015   66.6493 H   0  0  0  0  0  0  0  0  0  0  0  0
  128.9183  124.2557   67.9959 H   0  0  0  0  0  0  0  0  0  0  0  0
  130.2147  127.5209   65.6983 H   0  0  0  0  0  0  0  0  0  0  0  0
  128.4871  126.7782   65.8026 H   0  0  0  0  0  0  0  0  0  0  0  0
  127.7662  128.3041   67.3245 H   0  0  0  0  0  0  0  0  0  0  0  0
  129.4481  128.8353   67.7489 H   0  0  0  0  0  0  0  0  0  0  0  0
  128.7473  131.2423   67.3857 H   0  0  0  0  0  0  0  0  0  0  0  0
  128.5250  133.9210   65.0640 H   0  0  0  0  0  0  0  0  0  0  0  0
  128.7377  132.4906   63.2486 H   0  0  0  0  0  0  0  0  0  0  0  0
  128.5585  128.2892   64.2497 H   0  0  0  0  0  0  0  0  0  0  0  0
  130.1437  131.0375   61.1152 H   0  0  0  0  0  0  0  0  0  0  0  0
  130.7020  129.5621   61.9496 H   0  0  0  0  0  0  0  0  0  0  0  0
  131.0298  127.7744   60.9355 H   0  0  0  0  0  0  0  0  0  0  0  0
  129.3509  127.1465   60.8698 H   0  0  0  0  0  0  0  0  0  0  0  0
  131.3322  126.5332   59.0011 H   0  0  0  0  0  0  0  0  0  0  0  0
  129.6069  126.4152   58.6570 H   0  0  0  0  0  0  0  0  0  0  0  0
  131.4871  128.2472   57.4703 H   0  0  0  0  0  0  0  0  0  0  0  0
  129.7381  128.3050   57.2526 H   0  0  0  0  0  0  0  0  0  0  0  0
  131.4982  129.7820   59.2596 H   0  0  0  0  0  0  0  0  0  0  0  0
  130.0878  130.3961   58.3593 H   0  0  0  0  0  0  0  0  0  0  0  0
  128.2310  130.2853   58.1866 H   0  0  0  0  0  0  0  0  0  0  0  0
  129.3726  131.9869   59.3458 H   0  0  0  0  0  0  0  0  0  0  0  0
  127.9250  132.7349   58.5067 H   0  0  0  0  0  0  0  0  0  0  0  0
  127.3390  132.0350   61.0250 H   0  0  0  0  0  0  0  0  0  0  0  0
  125.6455  131.1262   59.6929 H   0  0  0  0  0  0  0  0  0  0  0  0
  126.0604  131.6470   57.9996 H   0  0  0  0  0  0  0  0  0  0  0  0
  124.4383  129.7849   58.0258 H   0  0  0  0  0  0  0  0  0  0  0  0
  125.9988  129.3357   57.2456 H   0  0  0  0  0  0  0  0  0  0  0  0
  125.1150  128.6853   60.0932 H   0  0  0  0  0  0  0  0  0  0  0  0
  125.2842  127.5427   58.6682 H   0  0  0  0  0  0  0  0  0  0  0  0
  127.8537  127.9184   58.7520 H   0  0  0  0  0  0  0  0  0  0  0  0
  126.0661  126.6205   60.6498 H   0  0  0  0  0  0  0  0  0  0  0  0
  127.5615  126.0878   59.5838 H   0  0  0  0  0  0  0  0  0  0  0  0
  130.9065  125.8896   62.3200 H   0  0  0  0  0  0  0  0  0  0  0  0
  132.4580  125.5010   60.5780 H   0  0  0  0  0  0  0  0  0  0  0  0
  1  2  1  0
  2  3  1  0
  2  4  1  0
  4  5  1  0
  4  6  1  0
  6  7  1  0
  7  8  1  0
  8  9  1  0
  9 10  1  0
  9 11  1  1
  9 12  1  0
 12 13  1  0
 13 14  1  0
 14 15  1  0
 15 16  1  1
 15 17  1  0
 17 18  2  0
 18 19  1  0
 19 20  2  0
 19 21  1  0
 21 22  1  6
 22 23  1  0
 23 24  1  0
 23 25  1  0
 25 26  1  0
 25 27  1  0
 27 28  1  0
 28 29  1  1
 28 30  1  0
 30 31  1  0
 31 32  1  0
 33 32  1  1
 33 34  1  0
 34 35  1  0
 35 36  1  0
 36 37  1  0
 37 38  2  0
 38 39  1  0
 38 40  1  0
 40 41  2  0
 41 42  1  0
 41 43  1  0
 43 44  1  0
 44 45  1  0
 45 46  1  0
 46 47  1  0
 47 48  1  0
 48 49  1  0
 50 45  1  1
 50 51  1  0
 51 52  2  0
 50 53  1  0
 53 54  1  0
 54 55  1  0
 53 56  1  0
 56 57  1  0
 57 58  1  0
 58 59  1  0
 59 60  1  0
 60 61  1  0
 61 62  1  0
 62 63  1  0
 63 64  1  0
  8  6  1  0
 33 12  1  0
 42 36  2  0
 51 43  1  0
 33 15  1  0
 49 45  1  0
 59 50  1  0
 30 17  1  0
 28 21  1  0
 63 21  1  0
  1 65  1  0
  1 66  1  0
  1 67  1  0
  2 68  1  0
  3 69  1  0
  3 70  1  0
  3 71  1  0
  4 72  1  6
  5 73  1  0
  5 74  1  0
  5 75  1  0
  6 76  1  6
  8 77  1  6
 10 78  1  0
 10 79  1  0
 10 80  1  0
 11 81  1  0
 12 82  1  1
 13 83  1  0
 13 84  1  0
 14 85  1  0
 14 86  1  0
 16 87  1  0
 18 88  1  0
 22 89  1  0
 22 90  1  0
 23 91  1  6
 24 92  1  0
 25 93  1  1
 26 94  1  0
 27 95  1  0
 27 96  1  0
 29 97  1  0
 29 98  1  0
 29 99  1  0
 30100  1  6
 31101  1  0
 31102  1  0
 32103  1  0
 32104  1  0
 34105  1  0
 34106  1  0
 35107  1  0
 35108  1  0
 37109  1  0
 39110  1  0
 40111  1  0
 42112  1  0
 44113  1  0
 44114  1  0
 46115  1  0
 46116  1  0
 47117  1  0
 47118  1  0
 48119  1  0
 48120  1  0
 49121  1  0
 49122  1  0
 53123  1  6
 54124  1  0
 54125  1  0
 55126  1  0
 56127  1  0
 56128  1  0
 57129  1  0
 57130  1  0
 58131  1  0
 58132  1  0
 59133  1  6
 60134  1  0
 60135  1  0
 63136  1  1
 64137  1  0
M  END
>  <Binding energies>  (1) 
[13.53]

>  <Ligand effiencies>  (1) 
[0.18534246575342464]

>  <Interactions>  (1) 
["V-A:GLU:543:CA:4904, V-A:GLY:454:CA:4049, V-B:GLU:543:C:9874, V-B:HIS:456:CD2:9039, H-B:GLU:543:O:9875, V-A:GLU:543:C:4902, V-B:GLU:543:CB:9878, V-B:ALA:541:CB:9864, V-B:ASP:366:CG:8184, H-A:ARG:545:NH1:4927, V-A:TYR:484:CE2:4346, V-B:TYR:539:CE2:9848, V-B:GLU:543:CG:9879, V-A:GLY:544:C:4912, V-A:HIS:456:CD2:4068, V-B:TYR:484:CE2:9317, V-A:ALA:541:CB:4892, H-B:ALA:541:N:9863, V-A:GLU:543:CD:4908, V-A:TYR:484:CZ:4347, V-B:ASP:366:CB:8183, H-B:TYR:484:OH:9319, V-A:ARG:545:CG:4922, V-B:GLU:543:CA:9876, V-B:HIS:456:CE1:9041, V-A:HIS:456:CE1:4070, V-B:TYR:484:CZ:9318, V-A:GLU:543:CG:4907, V-B:GLU:543:CD:9880, V-A:ARG:545:CD:4923, V-A:LEU:475:CD2:4259, H-A:ARG:545:NH2:4928, V-A:ARG:545:CZ:4926, V-A:GLU:543:CB:4906, H-A:ASP:366:OD1:3214, V-A:HIS:456:CG:4066, H-B:TYR:539:O:9840, H-A:ASP:366:OD2:3215, V-A:TYR:539:CE1:4875, H-A:HIS:456:NE2:4071, H-A:HIS:456:ND1:4067, H-A:TYR:484:OH:4348"]

$$$$
ZINC2356775347
     RDKit          3D

140149  0  0  0  0  0  0  0  0999 V2000
  130.5630  117.5230   60.1520 C   0  0  0  0  0  0  0  0  0  0  0  0
  130.4370  118.0880   61.5730 C   0  0  0  0  0  0  0  0  0  0  0  0
  129.8400  119.5090   61.6010 C   0  0  0  0  0  0  0  0  0  0  0  0
  130.5990  120.5390   60.7420 C   0  0  0  0  0  0  0  0  0  0  0  0
  129.6900  121.5940   60.0760 C   0  0  0  0  0  0  0  0  0  0  0  0
  129.4540  122.8710   60.9220 C   0  0  2  0  0  0  0  0  0  0  0  0
  128.3480  123.7290   60.3460 C   0  0  0  0  0  0  0  0  0  0  0  0
  128.5400  125.0520   60.9190 N   0  0  0  0  0  0  0  0  0  0  0  0
  129.8110  125.2180   61.3860 C   0  0  0  0  0  0  0  0  0  0  0  0
  130.2850  126.2490   61.8700 O   0  0  0  0  0  0  0  0  0  0  0  0
  130.6040  123.8880   61.1730 C   0  0  1  0  0  0  0  0  0  0  0  0
  131.3540  123.5950   62.5170 C   0  0  0  0  0  0  0  0  0  0  0  0
  132.3170  122.3950   62.4450 C   0  0  0  0  0  0  0  0  0  0  0  0
  133.3490  122.5660   61.3160 C   0  0  0  0  0  0  0  0  0  0  0  0
  132.6710  122.8400   59.9620 C   0  0  0  0  0  0  0  0  0  0  0  0
  131.6760  124.0430   59.9990 C   0  0  2  0  0  0  0  0  0  0  0  0
  132.5360  125.3620   59.8540 C   0  0  0  0  0  0  0  0  0  0  0  0
  132.0080  126.8360   60.7810 S   0  0  0  0  0  0  0  0  0  0  0  0
  131.6020  128.2540   59.3480 S   0  0  0  0  0  0  0  0  0  0  0  0
  131.7210  129.9260   60.1070 C   0  0  2  0  0  0  0  0  0  0  0  0
  132.3900  129.9160   61.3600 O   0  0  0  0  0  0  0  0  0  0  0  0
  130.5170  130.9720   59.9470 C   0  0  1  0  0  0  0  0  0  0  0  0
  130.8050  131.7710   58.6100 C   0  0  0  0  0  0  0  0  0  0  0  0
  129.6210  132.3730   57.8150 C   0  0  2  0  0  0  0  0  0  0  0  0
  130.0620  133.4460   57.0040 O   0  0  0  0  0  0  0  0  0  0  0  0
  128.4480  132.7690   58.7260 C   0  0  2  0  0  0  0  0  0  0  0  0
  128.7310  133.9210   59.5080 O   0  0  0  0  0  0  0  0  0  0  0  0
  127.9530  131.5510   59.5460 C   0  0  0  0  0  0  0  0  0  0  0  0
  129.0010  130.4290   59.9650 C   0  0  1  0  0  0  0  0  0  0  0  0
  128.7770  129.3040   58.9200 C   0  0  0  0  0  0  0  0  0  0  0  0
  128.5510  129.8880   61.3780 C   0  0  1  0  0  0  0  0  0  0  0  0
  129.0410  128.4960   61.8520 C   0  0  0  0  0  0  0  0  0  0  0  0
  129.0900  128.2650   63.3860 C   0  0  2  0  0  0  0  0  0  0  0  0
  128.9950  126.7830   63.7370 C   0  0  0  0  0  0  0  0  0  0  0  0
  129.2590  126.2450   64.9400 C   0  0  0  0  0  0  0  0  0  0  0  0
  129.7360  127.0020   66.1710 C   0  0  0  0  0  0  0  0  0  0  0  0
  128.8130  128.1330   66.7190 C   0  0  2  0  0  0  0  0  0  0  0  0
  129.6000  128.6470   67.7790 O   0  0  0  0  0  0  0  0  0  0  0  0
  127.4870  127.5030   67.2830 C   0  0  2  0  0  0  0  0  0  0  0  0
  126.6490  128.3480   68.0210 O   0  0  0  0  0  0  0  0  0  0  0  0
  127.0910  127.2170   68.7280 C   0  0  2  0  0  0  0  0  0  0  0  0
  127.9890  127.4380   69.9830 C   0  0  2  0  0  0  0  0  0  0  0  0
  128.6880  128.8140   69.8990 C   0  0  0  0  0  0  0  0  0  0  0  0
  128.9840  126.2720   70.2800 C   0  0  0  0  0  0  0  0  0  0  0  0
  130.1740  126.7140   71.1540 C   0  0  0  0  0  0  0  0  0  0  0  0
  129.4720  125.5320   69.0170 C   0  0  0  0  0  0  0  0  0  0  0  0
  128.6720  129.3160   65.6800 C   0  0  2  0  0  0  0  0  0  0  0  0
  128.1170  130.6510   66.1860 C   0  0  0  0  0  0  0  0  0  0  0  0
  128.3310  131.5460   64.9750 C   0  0  0  0  0  0  0  0  0  0  0  0
  127.9820  130.6770   63.7310 C   0  0  1  0  0  0  0  0  0  0  0  0
  126.6630  131.0850   63.3880 O   0  0  0  0  0  0  0  0  0  0  0  0
  128.8720  130.8920   62.4830 C   0  0  0  0  0  0  0  0  0  0  0  0
  129.8280  131.8370   62.3200 C   0  0  0  0  0  0  0  0  0  0  0  0
  130.6600  132.0080   61.1250 C   0  0  0  0  0  0  0  0  0  0  0  0
  131.4530  132.9510   61.0920 O   0  0  0  0  0  0  0  0  0  0  0  0
  128.0630  129.1380   64.2260 C   0  0  1  0  0  0  0  0  0  0  0  0
  126.6180  128.4760   64.3330 C   0  0  0  0  0  0  0  0  0  0  0  0
  125.6230  128.4020   63.1280 C   0  0  0  0  0  0  0  0  0  0  0  0
  126.1680  127.7600   61.8510 C   0  0  0  0  0  0  0  0  0  0  0  0
  125.5980  128.0570   60.6070 C   0  0  0  0  0  0  0  0  0  0  0  0
  126.0070  127.3740   59.4630 C   0  0  0  0  0  0  0  0  0  0  0  0
  125.4280  127.6590   58.2550 O   0  0  0  0  0  0  0  0  0  0  0  0
  126.9820  126.3820   59.5530 C   0  0  0  0  0  0  0  0  0  0  0  0
  127.5920  126.0940   60.7850 C   0  0  0  0  0  0  0  0  0  0  0  0
  127.2250  126.8460   61.9110 C   0  0  0  0  0  0  0  0  0  0  0  0
  130.8022  116.4506   60.2037 H   0  0  0  0  0  0  0  0  0  0  0  0
  129.6120  117.6612   59.6168 H   0  0  0  0  0  0  0  0  0  0  0  0
  131.3652  118.0522   59.6168 H   0  0  0  0  0  0  0  0  0  0  0  0
  129.7868  117.4222   62.1594 H   0  0  0  0  0  0  0  0  0  0  0  0
  131.4504  118.1465   61.9968 H   0  0  0  0  0  0  0  0  0  0  0  0
  128.8041  119.4535   61.2352 H   0  0  0  0  0  0  0  0  0  0  0  0
  129.9110  119.8573   62.6420 H   0  0  0  0  0  0  0  0  0  0  0  0
  131.3208  121.0620   61.3866 H   0  0  0  0  0  0  0  0  0  0  0  0
  131.0844  119.9790   59.9291 H   0  0  0  0  0  0  0  0  0  0  0  0
  130.1532  121.8939   59.1244 H   0  0  0  0  0  0  0  0  0  0  0  0
  128.7058  121.1199   59.9472 H   0  0  0  0  0  0  0  0  0  0  0  0
  129.2521  122.3732   61.8819 H   0  0  0  0  0  0  0  0  0  0  0  0
  128.4259  123.7705   59.2495 H   0  0  0  0  0  0  0  0  0  0  0  0
  127.3533  123.3235   60.5829 H   0  0  0  0  0  0  0  0  0  0  0  0
  131.9338  124.4884   62.7921 H   0  0  0  0  0  0  0  0  0  0  0  0
  130.5859  123.3439   63.2633 H   0  0  0  0  0  0  0  0  0  0  0  0
  132.8482  122.3051   63.4040 H   0  0  0  0  0  0  0  0  0  0  0  0
  131.7261  121.4906   62.2380 H   0  0  0  0  0  0  0  0  0  0  0  0
  134.0093  123.4108   61.5615 H   0  0  0  0  0  0  0  0  0  0  0  0
  133.9213  121.6306   61.2299 H   0  0  0  0  0  0  0  0  0  0  0  0
  133.4521  123.0563   59.2183 H   0  0  0  0  0  0  0  0  0  0  0  0
  132.0877  121.9439   59.7036 H   0  0  0  0  0  0  0  0  0  0  0  0
  130.9776  124.0885   59.1504 H   0  0  0  0  0  0  0  0  0  0  0  0
  133.5594  125.1218   60.1779 H   0  0  0  0  0  0  0  0  0  0  0  0
  132.4224  125.6479   58.7979 H   0  0  0  0  0  0  0  0  0  0  0  0
  132.3864  130.4338   59.3933 H   0  0  0  0  0  0  0  0  0  0  0  0
  132.4180  129.0120   61.6830 H   0  0  0  0  0  0  0  0  0  0  0  0
  131.4720  132.6054   58.8726 H   0  0  0  0  0  0  0  0  0  0  0  0
  131.2103  131.0053   57.9321 H   0  0  0  0  0  0  0  0  0  0  0  0
  129.2296  131.5900   57.1488 H   0  0  0  0  0  0  0  0  0  0  0  0
  130.5350  134.0710   57.5570 H   0  0  0  0  0  0  0  0  0  0  0  0
  127.6056  133.0742   58.0879 H   0  0  0  0  0  0  0  0  0  0  0  0
  129.5770  133.7940   59.9460 H   0  0  0  0  0  0  0  0  0  0  0  0
  127.5125  131.9441   60.4741 H   0  0  0  0  0  0  0  0  0  0  0  0
  127.2678  131.0308   58.8605 H   0  0  0  0  0  0  0  0  0  0  0  0
  128.5877  128.3532   59.4397 H   0  0  0  0  0  0  0  0  0  0  0  0
  127.9114  129.5560   58.2897 H   0  0  0  0  0  0  0  0  0  0  0  0
  129.6731  129.2053   58.2897 H   0  0  0  0  0  0  0  0  0  0  0  0
  127.4740  129.7525   61.1998 H   0  0  0  0  0  0  0  0  0  0  0  0
  128.3677  127.7402   61.4215 H   0  0  0  0  0  0  0  0  0  0  0  0
  130.0850  128.4237   61.5130 H   0  0  0  0  0  0  0  0  0  0  0  0
  130.0812  128.6300   63.6931 H   0  0  0  0  0  0  0  0  0  0  0  0
  128.6836  126.0958   62.9365 H   0  0  0  0  0  0  0  0  0  0  0  0
  129.1175  125.1591   65.0442 H   0  0  0  0  0  0  0  0  0  0  0  0
  129.8725  126.2672   66.9781 H   0  0  0  0  0  0  0  0  0  0  0  0
  130.6519  127.5180   65.8471 H   0  0  0  0  0  0  0  0  0  0  0  0
  130.5130  128.3900   67.6290 H   0  0  0  0  0  0  0  0  0  0  0  0
  127.4988  126.8534   66.3954 H   0  0  0  0  0  0  0  0  0  0  0  0
  126.6831  126.3291   69.2333 H   0  0  0  0  0  0  0  0  0  0  0  0
  127.3194  127.4358   70.8557 H   0  0  0  0  0  0  0  0  0  0  0  0
  128.8793  129.1907   70.9146 H   0  0  0  0  0  0  0  0  0  0  0  0
  129.6418  128.7085   69.3613 H   0  0  0  0  0  0  0  0  0  0  0  0
  128.0403  129.5221   69.3613 H   0  0  0  0  0  0  0  0  0  0  0  0
  128.3932  125.5465   70.8584 H   0  0  0  0  0  0  0  0  0  0  0  0
  129.9058  126.6144   72.2161 H   0  0  0  0  0  0  0  0  0  0  0  0
  131.0455  126.0796   70.9348 H   0  0  0  0  0  0  0  0  0  0  0  0
  130.4200  127.7635   70.9348 H   0  0  0  0  0  0  0  0  0  0  0  0
  130.0553  124.6475   69.3127 H   0  0  0  0  0  0  0  0  0  0  0  0
  128.6045  125.2160   68.4190 H   0  0  0  0  0  0  0  0  0  0  0  0
  130.1041  126.2049   68.4190 H   0  0  0  0  0  0  0  0  0  0  0  0
  129.7655  129.2977   65.5617 H   0  0  0  0  0  0  0  0  0  0  0  0
  127.0505  130.5713   66.4434 H   0  0  0  0  0  0  0  0  0  0  0  0
  128.5975  131.0173   67.1052 H   0  0  0  0  0  0  0  0  0  0  0  0
  127.6690  132.4230   65.0263 H   0  0  0  0  0  0  0  0  0  0  0  0
  129.3646  131.9195   64.9280 H   0  0  0  0  0  0  0  0  0  0  0  0
  126.4660  130.7590   62.5060 H   0  0  0  0  0  0  0  0  0  0  0  0
  129.9943  132.5348   63.1539 H   0  0  0  0  0  0  0  0  0  0  0  0
  126.7838  127.4368   64.6533 H   0  0  0  0  0  0  0  0  0  0  0  0
  126.1020  129.1812   65.0012 H   0  0  0  0  0  0  0  0  0  0  0  0
  124.7463  127.8209   63.4499 H   0  0  0  0  0  0  0  0  0  0  0  0
  125.3968  129.4456   62.8638 H   0  0  0  0  0  0  0  0  0  0  0  0
  124.8229  128.8339   60.5322 H   0  0  0  0  0  0  0  0  0  0  0  0
  125.9830  128.2040   57.6930 H   0  0  0  0  0  0  0  0  0  0  0  0
  127.2756  125.8211   58.6535 H   0  0  0  0  0  0  0  0  0  0  0  0
  127.7761  126.7150   62.8540 H   0  0  0  0  0  0  0  0  0  0  0  0
  1  2  1  0
  2  3  1  0
  3  4  1  0
  4  5  1  0
  5  6  1  0
  6  7  1  0
  7  8  1  0
  8  9  1  0
  9 10  2  0
  9 11  1  0
 11 12  1  1
 12 13  1  0
 13 14  1  0
 14 15  1  0
 15 16  1  0
 16 17  1  0
 17 18  1  0
 18 19  1  0
 19 20  1  0
 20 21  1  0
 20 22  1  0
 22 23  1  6
 23 24  1  0
 24 25  1  0
 24 26  1  0
 26 27  1  0
 26 28  1  0
 28 29  1  0
 29 30  1  6
 29 31  1  0
 31 32  1  0
 32 33  1  0
 33 34  1  0
 34 35  2  0
 35 36  1  0
 36 37  1  0
 37 38  1  1
 37 39  1  0
 39 40  1  0
 40 41  1  0
 41 42  1  0
 42 43  1  0
 42 44  1  0
 44 45  1  0
 44 46  1  0
 37 47  1  0
 47 48  1  0
 48 49  1  0
 49 50  1  0
 50 51  1  6
 50 52  1  0
 52 53  2  0
 53 54  1  0
 54 55  2  0
 50 56  1  0
 56 57  1  1
 57 58  1  0
 58 59  1  0
 59 60  1  0
 60 61  2  0
 61 62  1  0
 61 63  1  0
 63 64  2  0
 64 65  1  0
 11  6  1  0
 29 22  1  0
 52 31  1  0
 65 59  2  0
 64  8  1  0
 16 11  1  0
 54 22  1  0
 56 33  1  0
 41 39  1  0
 56 47  1  0
  1 66  1  0
  1 67  1  0
  1 68  1  0
  2 69  1  0
  2 70  1  0
  3 71  1  0
  3 72  1  0
  4 73  1  0
  4 74  1  0
  5 75  1  0
  5 76  1  0
  6 77  1  1
  7 78  1  0
  7 79  1  0
 12 80  1  0
 12 81  1  0
 13 82  1  0
 13 83  1  0
 14 84  1  0
 14 85  1  0
 15 86  1  0
 15 87  1  0
 16 88  1  6
 17 89  1  0
 17 90  1  0
 20 91  1  6
 21 92  1  0
 23 93  1  0
 23 94  1  0
 24 95  1  6
 25 96  1  0
 26 97  1  6
 27 98  1  0
 28 99  1  0
 28100  1  0
 30101  1  0
 30102  1  0
 30103  1  0
 31104  1  6
 32105  1  0
 32106  1  0
 33107  1  1
 34108  1  0
 35109  1  0
 36110  1  0
 36111  1  0
 38112  1  0
 39113  1  6
 41114  1  6
 42115  1  1
 43116  1  0
 43117  1  0
 43118  1  0
 44119  1  0
 45120  1  0
 45121  1  0
 45122  1  0
 46123  1  0
 46124  1  0
 46125  1  0
 47126  1  6
 48127  1  0
 48128  1  0
 49129  1  0
 49130  1  0
 51131  1  0
 53132  1  0
 57133  1  0
 57134  1  0
 58135  1  0
 58136  1  0
 60137  1  0
 62138  1  0
 63139  1  0
 65140  1  0
M  END
>  <Binding energies>  (1) 
[16.77]

>  <Ligand effiencies>  (1) 
[0.2236]

>  <Interactions>  (1) 
["V-A:ILE:369:CG2:3237, V-B:GLU:543:C:9874, H-A:GLU:543:OE2:4910, V-A:GLU:543:C:4902, H-A:ALA:541:N:4891, V-B:HIS:456:CD2:9039, V-A:PRO:540:C:4881, V-B:GLU:543:CB:9878, V-B:ASP:366:CG:8184, V-B:ALA:541:CB:9864, V-B:TYR:539:CE2:9848, V-A:LEU:475:CG:4257, V-B:GLU:543:CG:9879, V-B:TYR:539:C:9839, V-A:TYR:539:CE1:4875, V-A:ASP:366:CG:3213, V-A:HIS:456:CD2:4068, H-B:HIS:456:ND1:9038, V-B:TYR:484:CE2:9317, V-A:TYR:539:CD1:4873, V-A:LEU:475:CD1:4258, V-A:HIS:383:CE1:3393, V-B:TYR:539:CB:9843, V-B:ASP:366:CB:8183, V-A:GLU:543:CD:4908, H-B:TYR:484:OH:9319, V-B:HIS:456:CE1:9041, V-B:GLU:543:CA:9876, V-B:TYR:484:CZ:9318, V-A:HIS:456:CE1:4070, V-A:PRO:482:CB:4326, V-B:TYR:539:CD2:9846, V-A:GLU:543:CG:4907, V-B:GLU:543:CD:9880, V-B:ARG:545:CZ:9898, V-A:TYR:539:C:4867, H-B:TYR:531:OH:9767, V-A:ASP:366:CB:3212, V-A:LEU:475:CD2:4259, H-A:ARG:545:NH2:4928, H-A:GLU:543:OE1:4909, V-B:TYR:539:CG:9844, V-A:GLU:543:CB:4906, H-A:ASP:366:OD1:3214, V-A:HIS:456:CG:4066, H-A:TYR:539:O:4868, H-A:TYR:539:N:4870, V-A:PRO:540:CB:4885, V-A:PRO:540:CA:4883, H-A:ASP:366:OD2:3215, V-A:HIS:383:NE2:3394"]

$$$$
ZINC2356777545
     RDKit          3D

 93 97  0  0  0  0  0  0  0  0999 V2000
  134.3720  124.1750   62.8110 C   0  0  0  0  0  0  0  0  0  0  0  0
  133.3840  123.3370   63.3980 O   0  0  0  0  0  0  0  0  0  0  0  0
  132.4320  122.8820   62.5150 C   0  0  0  0  0  0  0  0  0  0  0  0
  132.8000  121.9930   61.4960 C   0  0  0  0  0  0  0  0  0  0  0  0
  134.0990  121.5750   61.3640 O   0  0  0  0  0  0  0  0  0  0  0  0
  131.8430  121.5210   60.6040 C   0  0  0  0  0  0  0  0  0  0  0  0
  130.5180  121.9230   60.7280 C   0  0  0  0  0  0  0  0  0  0  0  0
  130.1290  122.7970   61.7480 C   0  0  0  0  0  0  0  0  0  0  0  0
  131.0900  123.2850   62.6600 C   0  0  0  0  0  0  0  0  0  0  0  0
  130.7350  124.2370   63.7570 C   0  0  0  0  0  0  0  0  0  0  0  0
  130.9720  123.8310   65.0680 C   0  0  0  0  0  0  0  0  0  0  0  0
  130.5800  124.6000   66.1520 C   0  0  0  0  0  0  0  0  0  0  0  0
  129.8930  125.8150   65.9530 C   0  0  0  0  0  0  0  0  0  0  0  0
  129.4560  126.5890   67.0570 C   0  0  0  0  0  0  0  0  0  0  0  0
  128.7710  127.7810   66.8550 C   0  0  0  0  0  0  0  0  0  0  0  0
  128.5030  128.2300   65.5700 C   0  0  0  0  0  0  0  0  0  0  0  0
  127.8250  129.4050   65.3870 O   0  0  0  0  0  0  0  0  0  0  0  0
  128.9200  127.4930   64.4650 C   0  0  0  0  0  0  0  0  0  0  0  0
  129.6360  126.2680   64.6210 C   0  0  0  0  0  0  0  0  0  0  0  0
  130.1120  125.4800   63.5150 C   0  0  0  0  0  0  0  0  0  0  0  0
  129.9170  126.0040   62.0820 C   0  0  0  0  0  0  0  0  0  0  0  0
  131.3310  126.9610   61.4250 S   0  0  0  0  0  0  0  0  0  0  0  0
  132.7830  125.6400   60.8510 S   0  0  0  0  0  0  0  0  0  0  0  0
  132.0710  124.7680   59.4230 C   0  0  0  0  0  0  0  0  0  0  0  0
  131.8670  125.5860   58.1350 C   0  0  0  0  0  0  0  0  0  0  0  0
  130.7770  126.6680   58.2460 C   0  0  0  0  0  0  0  0  0  0  0  0
  129.3410  126.1120   58.2000 C   0  0  0  0  0  0  0  0  0  0  0  0
  128.5330  126.2290   59.5220 C   0  0  1  0  0  0  0  0  0  0  0  0
  127.8320  127.4770   59.5690 O   0  0  0  0  0  0  0  0  0  0  0  0
  128.5660  128.6560   59.7670 C   0  0  1  0  0  0  0  0  0  0  0  0
  128.6200  129.4680   58.5720 N   0  0  0  0  0  0  0  0  0  0  0  0
  129.5190  130.6140   58.6170 C   0  0  0  0  0  0  0  0  0  0  0  0
  130.7860  130.2910   59.4310 C   0  0  0  0  0  0  0  0  0  0  0  0
  131.4920  131.5270   60.0330 C   0  0  0  0  0  0  0  0  0  0  0  0
  132.0850  131.2970   61.4360 C   0  0  0  0  0  0  0  0  0  0  0  0
  131.2790  131.8890   62.4330 O   0  0  0  0  0  0  0  0  0  0  0  0
  127.9370  129.4350   60.9420 C   0  0  0  0  0  0  0  0  0  0  0  0
  126.5480  129.4760   61.1170 C   0  0  0  0  0  0  0  0  0  0  0  0
  125.9960  130.1620   62.1990 C   0  0  0  0  0  0  0  0  0  0  0  0
  126.8270  130.8090   63.1130 C   0  0  0  0  0  0  0  0  0  0  0  0
  128.2110  130.7700   62.9460 C   0  0  0  0  0  0  0  0  0  0  0  0
  129.0260  131.4020   63.8470 O   0  0  0  0  0  0  0  0  0  0  0  0
  128.7650  130.0840   61.8640 C   0  0  0  0  0  0  0  0  0  0  0  0
  127.4480  125.1340   59.7140 C   0  0  0  0  0  0  0  0  0  0  0  0
  127.9290  123.6950   59.4610 C   0  0  0  0  0  0  0  0  0  0  0  0
  128.3470  123.3380   58.3600 O   0  0  0  0  0  0  0  0  0  0  0  0
  127.8330  122.6960   60.6160 C   0  0  0  0  0  0  0  0  0  0  0  0
  128.6490  123.1540   61.8430 C   0  0  0  0  0  0  0  0  0  0  0  0
  134.9531  124.6679   63.6043 H   0  0  0  0  0  0  0  0  0  0  0  0
  135.0445  123.5677   62.1873 H   0  0  0  0  0  0  0  0  0  0  0  0
  133.8825  124.9376   62.1873 H   0  0  0  0  0  0  0  0  0  0  0  0
  134.6350  121.7670   62.1370 H   0  0  0  0  0  0  0  0  0  0  0  0
  132.1347  120.8293   59.8000 H   0  0  0  0  0  0  0  0  0  0  0  0
  129.7673  121.5495   60.0160 H   0  0  0  0  0  0  0  0  0  0  0  0
  131.4841  122.8742   65.2477 H   0  0  0  0  0  0  0  0  0  0  0  0
  130.8061  124.2606   67.1736 H   0  0  0  0  0  0  0  0  0  0  0  0
  129.6606  126.2436   68.0811 H   0  0  0  0  0  0  0  0  0  0  0  0
  128.4387  128.3731   67.7205 H   0  0  0  0  0  0  0  0  0  0  0  0
  128.3990  130.1390   65.1580 H   0  0  0  0  0  0  0  0  0  0  0  0
  128.6937  127.8613   63.4535 H   0  0  0  0  0  0  0  0  0  0  0  0
  129.7491  125.1412   61.4206 H   0  0  0  0  0  0  0  0  0  0  0  0
  129.0608  126.6938   62.1150 H   0  0  0  0  0  0  0  0  0  0  0  0
  132.7387  123.9282   59.1804 H   0  0  0  0  0  0  0  0  0  0  0  0
  131.0585  124.4787   59.7409 H   0  0  0  0  0  0  0  0  0  0  0  0
  132.8182  126.0778   57.8834 H   0  0  0  0  0  0  0  0  0  0  0  0
  131.5367  124.8801   57.3588 H   0  0  0  0  0  0  0  0  0  0  0  0
  130.9124  127.2000   59.1992 H   0  0  0  0  0  0  0  0  0  0  0  0
  130.8923  127.3291   57.3744 H   0  0  0  0  0  0  0  0  0  0  0  0
  128.7918  126.6574   57.4183 H   0  0  0  0  0  0  0  0  0  0  0  0
  129.4418  125.0344   58.0033 H   0  0  0  0  0  0  0  0  0  0  0  0
  129.2921  126.1253   60.3113 H   0  0  0  0  0  0  0  0  0  0  0  0
  129.6066  128.3929   60.0076 H   0  0  0  0  0  0  0  0  0  0  0  0
  128.8200  128.8990   57.7620 H   0  0  0  0  0  0  0  0  0  0  0  0
  129.8098  130.8834   57.5909 H   0  0  0  0  0  0  0  0  0  0  0  0
  128.9953  131.4510   59.1019 H   0  0  0  0  0  0  0  0  0  0  0  0
  130.5030  129.6209   60.2561 H   0  0  0  0  0  0  0  0  0  0  0  0
  131.4998  129.8324   58.7309 H   0  0  0  0  0  0  0  0  0  0  0  0
  132.3090  131.8202   59.3574 H   0  0  0  0  0  0  0  0  0  0  0  0
  130.7245  132.3078   60.1393 H   0  0  0  0  0  0  0  0  0  0  0  0
  132.1526  130.2154   61.6243 H   0  0  0  0  0  0  0  0  0  0  0  0
  133.0823  131.7596   61.4734 H   0  0  0  0  0  0  0  0  0  0  0  0
  130.9910  131.2050   63.0410 H   0  0  0  0  0  0  0  0  0  0  0  0
  125.8899  128.9654   60.3986 H   0  0  0  0  0  0  0  0  0  0  0  0
  124.9044  130.1926   62.3313 H   0  0  0  0  0  0  0  0  0  0  0  0
  126.3909  131.3501   63.9657 H   0  0  0  0  0  0  0  0  0  0  0  0
  129.9170  131.0460   63.8640 H   0  0  0  0  0  0  0  0  0  0  0  0
  129.8571  130.0536   61.7358 H   0  0  0  0  0  0  0  0  0  0  0  0
  127.0807  125.1946   60.7491 H   0  0  0  0  0  0  0  0  0  0  0  0
  126.6695  125.3358   58.9635 H   0  0  0  0  0  0  0  0  0  0  0  0
  126.7779  122.5920   60.9094 H   0  0  0  0  0  0  0  0  0  0  0  0
  128.2455  121.7363   60.2715 H   0  0  0  0  0  0  0  0  0  0  0  0
  128.5581  124.2463   61.9353 H   0  0  0  0  0  0  0  0  0  0  0  0
  128.2421  122.6298   62.7203 H   0  0  0  0  0  0  0  0  0  0  0  0
  1  2  1  0
  2  3  1  0
  3  4  2  0
  4  5  1  0
  4  6  1  0
  6  7  2  0
  7  8  1  0
  8  9  2  0
  9 10  1  0
 10 11  2  0
 11 12  1  0
 12 13  2  0
 13 14  1  0
 14 15  2  0
 15 16  1  0
 16 17  1  0
 16 18  2  0
 18 19  1  0
 19 20  2  0
 20 21  1  0
 21 22  1  0
 22 23  1  0
 23 24  1  0
 24 25  1  0
 25 26  1  0
 26 27  1  0
 27 28  1  0
 28 29  1  0
 29 30  1  0
 30 31  1  0
 31 32  1  0
 32 33  1  0
 33 34  1  0
 34 35  1  0
 35 36  1  0
 30 37  1  0
 37 38  2  0
 38 39  1  0
 39 40  2  0
 40 41  1  0
 41 42  1  0
 41 43  2  0
 28 44  1  0
 44 45  1  0
 45 46  2  0
 45 47  1  0
 47 48  1  0
  9  3  1  0
 20 10  1  0
 43 37  1  0
 48  8  1  0
 19 13  1  0
  1 49  1  0
  1 50  1  0
  1 51  1  0
  5 52  1  0
  6 53  1  0
  7 54  1  0
 11 55  1  0
 12 56  1  0
 14 57  1  0
 15 58  1  0
 17 59  1  0
 18 60  1  0
 21 61  1  0
 21 62  1  0
 24 63  1  0
 24 64  1  0
 25 65  1  0
 25 66  1  0
 26 67  1  0
 26 68  1  0
 27 69  1  0
 27 70  1  0
 28 71  1  1
 30 72  1  1
 31 73  1  0
 32 74  1  0
 32 75  1  0
 33 76  1  0
 33 77  1  0
 34 78  1  0
 34 79  1  0
 35 80  1  0
 35 81  1  0
 36 82  1  0
 38 83  1  0
 39 84  1  0
 40 85  1  0
 42 86  1  0
 43 87  1  0
 44 88  1  0
 44 89  1  0
 47 90  1  0
 47 91  1  0
 48 92  1  0
 48 93  1  0
M  END
>  <Binding energies>  (1) 
[-3.77]

>  <Ligand effiencies>  (1) 
[-0.06854545454545455]

>  <Interactions>  (1) 
["V-B:PRO:540:CA:9855, V-A:GLY:454:CA:4049, H-A:ALA:541:N:4891, V-B:GLU:543:CB:9878, V-B:TYR:539:CE2:9848, V-A:TYR:484:CE2:4346, V-B:GLU:543:CG:9879, V-B:TYR:539:CZ:9849, V-A:TYR:484:CZ:4347, V-A:GLU:543:CD:4908, H-B:TYR:484:OH:9319, H-A:GLY:454:N:4050, V-A:GLY:453:C:4042, V-B:PRO:540:N:9856, V-A:ILE:369:CD1:3239, V-B:TYR:539:CD2:9846, V-A:GLU:543:CG:4907, V-B:GLU:543:CD:9880, V-A:ASP:366:CB:3212, V-A:LEU:475:CD2:4259, H-A:ARG:545:NH2:4928, H-A:GLU:543:OE1:4909, V-A:GLU:543:CB:4906, V-A:GLY:453:CA:4044, V-A:PRO:540:CA:4883, V-A:PRO:540:CB:4885, H-A:SER:385:O:3406, V-B:PRO:540:C:9853, H-A:TYR:484:OH:4348"]

$$$$
ZINC2356777598
     RDKit          3D

126134  0  0  0  0  0  0  0  0999 V2000
  130.0190  126.9160   73.6260 C   0  0  0  0  0  0  0  0  0  0  0  0
  129.2360  126.0190   72.8550 O   0  0  0  0  0  0  0  0  0  0  0  0
  127.9520  126.5280   72.5190 C   0  0  0  0  0  0  0  0  0  0  0  0
  128.0180  127.3160   71.1990 C   0  0  0  0  0  0  0  0  0  0  0  0
  128.7380  128.6680   71.3180 C   0  0  0  0  0  0  0  0  0  0  0  0
  130.1180  128.5000   71.0060 O   0  0  0  0  0  0  0  0  0  0  0  0
  130.4100  128.1050   69.6700 C   0  0  2  0  0  0  0  0  0  0  0  0
  129.5480  128.9400   68.7010 C   0  0  0  0  0  0  0  0  0  0  0  0
  129.7230  128.4710   67.2330 C   0  0  0  0  0  0  0  0  0  0  0  0
  129.4400  126.9300   66.9740 C   0  0  2  0  0  0  0  0  0  0  0  0
  127.9370  126.6560   67.3210 C   0  0  0  0  0  0  0  0  0  0  0  0
  130.3840  126.1650   67.9700 C   0  0  2  0  0  0  0  0  0  0  0  0
  130.1600  126.5900   69.4540 C   0  0  0  0  0  0  0  0  0  0  0  0
  131.8730  126.2480   67.5570 C   0  0  0  0  0  0  0  0  0  0  0  0
  132.7990  126.3440   68.3610 O   0  0  0  0  0  0  0  0  0  0  0  0
  132.1400  126.1490   66.1380 C   0  0  0  0  0  0  0  0  0  0  0  0
  131.2140  126.1880   65.1480 C   0  0  0  0  0  0  0  0  0  0  0  0
  131.5650  125.8160   63.6590 C   0  0  1  0  0  0  0  0  0  0  0  0
  131.7900  127.0380   62.9750 O   0  0  0  0  0  0  0  0  0  0  0  0
  132.8730  124.9830   63.5060 C   0  0  0  0  0  0  0  0  0  0  0  0
  132.6420  123.8600   62.4950 C   0  0  0  0  0  0  0  0  0  0  0  0
  131.2640  124.0600   61.7800 C   0  0  1  0  0  0  0  0  0  0  0  0
  131.5650  125.0450   60.6950 C   0  0  0  0  0  0  0  0  0  0  0  0
  131.5330  126.0930   60.0680 C   0  0  0  0  0  0  0  0  0  0  0  0
  131.1010  127.4270   59.6130 C   0  0  0  0  0  0  0  0  0  0  0  0
  129.7940  127.6030   58.7170 C   0  0  2  0  0  0  0  0  0  0  0  0
  128.4290  126.8400   58.9750 C   0  0  0  0  0  0  0  0  0  0  0  0
  128.6120  125.3450   58.8360 C   0  0  1  0  0  0  0  0  0  0  0  0
  127.6300  124.2320   59.0540 C   0  0  2  0  0  0  0  0  0  0  0  0
  126.5180  124.4370   60.1180 C   0  0  0  0  0  0  0  0  0  0  0  0
  126.8180  125.7010   60.9410 N   0  0  0  0  0  0  0  0  0  0  0  0
  126.1550  126.9750   60.3900 C   0  0  0  0  0  0  0  0  0  0  0  0
  125.7110  127.9120   61.5360 C   0  0  2  0  0  0  0  0  0  0  0  0
  125.5330  129.3590   61.0510 C   0  0  0  0  0  0  0  0  0  0  0  0
  126.6560  127.9180   62.5910 O   0  0  0  0  0  0  0  0  0  0  0  0
  128.7140  123.0750   59.0850 C   0  0  1  0  0  0  0  0  0  0  0  0
  129.7910  123.6030   58.2380 O   0  0  0  0  0  0  0  0  0  0  0  0
  129.3590  124.8420   57.6220 C   0  0  2  0  0  0  0  0  0  0  0  0
  130.3990  125.8430   57.0120 C   0  0  2  0  0  0  0  0  0  0  0  0
  131.7300  125.4070   57.1870 O   0  0  0  0  0  0  0  0  0  0  0  0
  130.1220  127.2710   57.3080 N   0  0  0  0  0  0  0  0  0  0  0  0
  129.2360  122.4050   60.4670 C   0  0  0  0  0  0  0  0  0  0  0  0
  129.1730  121.0260   60.1050 O   0  0  0  0  0  0  0  0  0  0  0  0
  128.3030  122.6310   61.4960 O   0  0  0  0  0  0  0  0  0  0  0  0
  130.7250  122.6480   61.1170 C   0  0  1  0  0  0  0  0  0  0  0  0
  131.8140  122.0860   60.1340 C   0  0  0  0  0  0  0  0  0  0  0  0
  130.7870  121.7100   62.1970 O   0  0  0  0  0  0  0  0  0  0  0  0
  129.3680  129.1150   58.8420 C   0  0  0  0  0  0  0  0  0  0  0  0
  129.0430  129.7560   57.8400 O   0  0  0  0  0  0  0  0  0  0  0  0
  129.3600  129.6980   60.1470 N   0  0  0  0  0  0  0  0  0  0  0  0
  128.3350  130.6540   60.5390 C   0  0  0  0  0  0  0  0  0  0  0  0
  128.4920  129.3820   61.3090 C   0  0  2  0  0  0  0  0  0  0  0  0
  128.9430  129.5990   62.7910 C   0  0  0  0  0  0  0  0  0  0  0  0
  129.0220  128.4410   63.7210 C   0  0  0  0  0  0  0  0  0  0  0  0
  129.2310  127.5280   64.5190 C   0  0  0  0  0  0  0  0  0  0  0  0
  129.7070  126.4360   65.4520 C   0  0  2  0  0  0  0  0  0  0  0  0
  129.0820  124.9950   65.1550 C   0  0  0  0  0  0  0  0  0  0  0  0
  129.8410  124.0580   64.1310 C   0  0  0  0  0  0  0  0  0  0  0  0
  130.4490  124.8690   62.9460 C   0  0  1  0  0  0  0  0  0  0  0  0
  129.2260  125.5860   62.2820 C   0  0  0  0  0  0  0  0  0  0  0  0
  129.8507  126.7232   74.6958 H   0  0  0  0  0  0  0  0  0  0  0  0
  131.0834  126.7696   73.3900 H   0  0  0  0  0  0  0  0  0  0  0  0
  129.7301  127.9508   73.3900 H   0  0  0  0  0  0  0  0  0  0  0  0
  127.2478  125.6905   72.4067 H   0  0  0  0  0  0  0  0  0  0  0  0
  127.6131  127.2008   73.3205 H   0  0  0  0  0  0  0  0  0  0  0  0
  128.5505  126.7039   70.4562 H   0  0  0  0  0  0  0  0  0  0  0  0
  126.9807  127.5310   70.9026 H   0  0  0  0  0  0  0  0  0  0  0  0
  128.2882  129.3860   70.6165 H   0  0  0  0  0  0  0  0  0  0  0  0
  128.6379  129.0477   72.3455 H   0  0  0  0  0  0  0  0  0  0  0  0
  131.4767  128.2874   69.4728 H   0  0  0  0  0  0  0  0  0  0  0  0
  128.4903  128.8372   68.9850 H   0  0  0  0  0  0  0  0  0  0  0  0
  129.8725  129.9889   68.7683 H   0  0  0  0  0  0  0  0  0  0  0  0
  129.0322  129.0534   66.6056 H   0  0  0  0  0  0  0  0  0  0  0  0
  130.7832  128.6308   66.9872 H   0  0  0  0  0  0  0  0  0  0  0  0
  127.8112  126.6331   68.4135 H   0  0  0  0  0  0  0  0  0  0  0  0
  127.3112  127.4549   66.8965 H   0  0  0  0  0  0  0  0  0  0  0  0
  127.6333  125.6877   66.8965 H   0  0  0  0  0  0  0  0  0  0  0  0
  130.0999  125.1044   67.9041 H   0  0  0  0  0  0  0  0  0  0  0  0
  129.1227  126.3576   69.7370 H   0  0  0  0  0  0  0  0  0  0  0  0
  130.8770  126.0357   70.0774 H   0  0  0  0  0  0  0  0  0  0  0  0
  133.1908  126.0313   65.8346 H   0  0  0  0  0  0  0  0  0  0  0  0
  131.3340  127.7360   63.4500 H   0  0  0  0  0  0  0  0  0  0  0  0
  133.6846  125.6353   63.1514 H   0  0  0  0  0  0  0  0  0  0  0  0
  133.1506  124.5513   64.4789 H   0  0  0  0  0  0  0  0  0  0  0  0
  133.4469  123.8732   61.7454 H   0  0  0  0  0  0  0  0  0  0  0  0
  132.6393  122.8943   63.0217 H   0  0  0  0  0  0  0  0  0  0  0  0
  130.9435  128.0310   60.5187 H   0  0  0  0  0  0  0  0  0  0  0  0
  131.9079  127.7226   58.9263 H   0  0  0  0  0  0  0  0  0  0  0  0
  128.0763  127.0667   59.9920 H   0  0  0  0  0  0  0  0  0  0  0  0
  127.6927  127.1749   58.2295 H   0  0  0  0  0  0  0  0  0  0  0  0
  129.0972  125.4938   59.8119 H   0  0  0  0  0  0  0  0  0  0  0  0
  126.8241  124.0450   58.3290 H   0  0  0  0  0  0  0  0  0  0  0  0
  125.5463  124.5498   59.6149 H   0  0  0  0  0  0  0  0  0  0  0  0
  126.4872  123.5643   60.7870 H   0  0  0  0  0  0  0  0  0  0  0  0
  126.5180  125.5530   61.8940 H   0  0  0  0  0  0  0  0  0  0  0  0
  127.8190  125.8380   60.9460 H   0  0  0  0  0  0  0  0  0  0  0  0
  126.8747  127.5064   59.7500 H   0  0  0  0  0  0  0  0  0  0  0  0
  125.2652  126.6838   59.8125 H   0  0  0  0  0  0  0  0  0  0  0  0
  124.7473  127.5216   61.8949 H   0  0  0  0  0  0  0  0  0  0  0  0
  125.4506  130.0292   61.9193 H   0  0  0  0  0  0  0  0  0  0  0  0
  126.4019  129.6515   60.4432 H   0  0  0  0  0  0  0  0  0  0  0  0
  124.6191  129.4322   60.4432 H   0  0  0  0  0  0  0  0  0  0  0  0
  126.6000  127.0830   63.0630 H   0  0  0  0  0  0  0  0  0  0  0  0
  128.2110  122.1599   58.7391 H   0  0  0  0  0  0  0  0  0  0  0  0
  128.8274  124.7092   56.6682 H   0  0  0  0  0  0  0  0  0  0  0  0
  130.2571  125.8211   55.9214 H   0  0  0  0  0  0  0  0  0  0  0  0
  132.3130  126.0340   56.7510 H   0  0  0  0  0  0  0  0  0  0  0  0
  130.9330  127.8030   57.0250 H   0  0  0  0  0  0  0  0  0  0  0  0
  129.6370  120.5080   60.7650 H   0  0  0  0  0  0  0  0  0  0  0  0
  128.7370  122.4630   62.3370 H   0  0  0  0  0  0  0  0  0  0  0  0
  132.6448  121.6572   60.7136 H   0  0  0  0  0  0  0  0  0  0  0  0
  131.3679  121.3055   59.5001 H   0  0  0  0  0  0  0  0  0  0  0  0
  132.1917  122.9018   59.5001 H   0  0  0  0  0  0  0  0  0  0  0  0
  129.9570  121.2300   62.2400 H   0  0  0  0  0  0  0  0  0  0  0  0
  128.6238  131.6118   60.9964 H   0  0  0  0  0  0  0  0  0  0  0  0
  127.4996  131.1504   60.0235 H   0  0  0  0  0  0  0  0  0  0  0  0
  127.9169  128.4817   61.5713 H   0  0  0  0  0  0  0  0  0  0  0  0
  129.9472  130.0467   62.7551 H   0  0  0  0  0  0  0  0  0  0  0  0
  128.1323  130.2095   63.2154 H   0  0  0  0  0  0  0  0  0  0  0  0
  129.0274  124.4574   66.1131 H   0  0  0  0  0  0  0  0  0  0  0  0
  128.1160  125.2063   64.6732 H   0  0  0  0  0  0  0  0  0  0  0  0
  130.6528  123.5367   64.6594 H   0  0  0  0  0  0  0  0  0  0  0  0
  129.1145  123.3423   63.7187 H   0  0  0  0  0  0  0  0  0  0  0  0
  128.5601  125.9764   63.0657 H   0  0  0  0  0  0  0  0  0  0  0  0
  129.5835  126.4175   61.6569 H   0  0  0  0  0  0  0  0  0  0  0  0
  128.6750  124.8679   61.6569 H   0  0  0  0  0  0  0  0  0  0  0  0
  1  2  1  0
  2  3  1  0
  3  4  1  0
  4  5  1  0
  5  6  1  0
  6  7  1  0
  7  8  1  0
  8  9  1  0
  9 10  1  0
 10 11  1  1
 10 12  1  0
 12 13  1  0
 12 14  1  0
 14 15  2  0
 14 16  1  0
 16 17  2  0
 17 18  1  0
 18 19  1  6
 18 20  1  0
 20 21  1  0
 22 21  1  1
 22 23  1  0
 23 24  3  0
 24 25  1  0
 25 26  1  0
 26 27  1  0
 27 28  1  0
 28 29  1  0
 29 30  1  0
 30 31  1  0
 31 32  1  0
 32 33  1  0
 33 34  1  0
 33 35  1  0
 29 36  1  0
 36 37  1  0
 37 38  1  0
 38 39  1  0
 39 40  1  0
 39 41  1  0
 36 42  1  0
 42 43  1  0
 42 44  1  0
 42 45  1  0
 45 46  1  0
 45 47  1  1
 26 48  1  0
 48 49  2  0
 48 50  1  0
 50 51  1  0
 51 52  1  0
 52 53  1  0
 53 54  1  0
 54 55  3  0
 56 55  1  6
 56 57  1  0
 57 58  1  0
 58 59  1  0
 59 60  1  6
 13  7  1  0
 56 17  1  0
 56 10  1  0
 59 18  1  0
 45 22  1  0
 52 50  1  0
 59 22  1  0
 26 41  1  6
 38 28  1  0
  1 61  1  0
  1 62  1  0
  1 63  1  0
  3 64  1  0
  3 65  1  0
  4 66  1  0
  4 67  1  0
  5 68  1  0
  5 69  1  0
  7 70  1  6
  8 71  1  0
  8 72  1  0
  9 73  1  0
  9 74  1  0
 11 75  1  0
 11 76  1  0
 11 77  1  0
 12 78  1  1
 13 79  1  0
 13 80  1  0
 16 81  1  0
 19 82  1  0
 20 83  1  0
 20 84  1  0
 21 85  1  0
 21 86  1  0
 25 87  1  0
 25 88  1  0
 27 89  1  0
 27 90  1  0
 28 91  1  1
 29 92  1  6
 30 93  1  0
 30 94  1  0
 31 95  1  0
 31 96  1  0
 32 97  1  0
 32 98  1  0
 33 99  1  1
 34100  1  0
 34101  1  0
 34102  1  0
 35103  1  0
 36104  1  6
 38105  1  6
 39106  1  6
 40107  1  0
 41108  1  0
 43109  1  0
 44110  1  0
 46111  1  0
 46112  1  0
 46113  1  0
 47114  1  0
 51115  1  0
 51116  1  0
 52117  1  1
 53118  1  0
 53119  1  0
 57120  1  0
 57121  1  0
 58122  1  0
 58123  1  0
 60124  1  0
 60125  1  0
 60126  1  0
M  CHG  1  31   1
M  END
>  <Binding energies>  (1) 
[14.93]

>  <Ligand effiencies>  (1) 
[0.20452054794520547]

>  <Interactions>  (1) 
["V-A:GLU:543:CA:4904, V-B:HIS:456:CD2:9039, H-A:GLU:543:OE2:4910, V-A:GLU:543:C:4902, V-B:GLU:543:CB:9878, H-B:LYS:547:NZ:9923, V-B:ASP:366:CG:8184, H-A:TYR:531:OH:4795, V-B:TYR:539:CE2:9848, V-B:GLU:543:CG:9879, V-A:ASP:366:CG:3213, V-A:HIS:456:CD2:4068, V-B:TYR:539:CZ:9849, H-B:GLU:543:OE1:9881, H-B:TYR:539:OH:9850, V-B:LYS:547:CE:9922, H-B:ALA:541:N:9863, V-A:GLU:543:CD:4908, H-B:ASP:366:OD1:8185, V-B:HIS:456:CE1:9041, V-A:ARG:545:CG:4922, V-B:GLU:543:CA:9876, V-A:HIS:456:CE1:4070, V-B:GLY:544:C:9884, V-B:GLY:544:CA:9886, V-A:GLU:543:CG:4907, V-B:TYR:539:CD2:9846, V-B:GLU:543:CD:9880, V-A:ARG:545:CD:4923, H-A:ARG:545:NH2:4928, V-A:ARG:545:CZ:4926, H-A:GLU:543:OE1:4909, H-A:ASP:366:O:3209, H-B:ARG:545:NH2:9900, V-A:GLU:543:CB:4906, H-B:GLU:543:OE2:9882, H-B:TYR:539:O:9840, H-A:ARG:545:NE:4924, H-A:HIS:456:ND1:4067"]

$$$$
ZINC2356777598-again1
     RDKit          3D

126134  0  0  0  0  0  0  0  0999 V2000
  127.1310  128.1990   74.0290 C   0  0  0  0  0  0  0  0  0  0  0  0
  128.4190  128.5160   73.5180 O   0  0  0  0  0  0  0  0  0  0  0  0
  128.9210  127.6080   72.5430 C   0  0  0  0  0  0  0  0  0  0  0  0
  130.4470  127.7330   72.3430 C   0  0  0  0  0  0  0  0  0  0  0  0
  130.9000  127.3330   70.9310 C   0  0  0  0  0  0  0  0  0  0  0  0
  129.7530  126.9760   70.1680 O   0  0  0  0  0  0  0  0  0  0  0  0
  129.4780  127.7830   69.0240 C   0  0  2  0  0  0  0  0  0  0  0  0
  128.2170  127.3090   68.2700 C   0  0  0  0  0  0  0  0  0  0  0  0
  128.3650  125.8910   67.6540 C   0  0  0  0  0  0  0  0  0  0  0  0
  129.7080  125.5560   66.8930 C   0  0  2  0  0  0  0  0  0  0  0  0
  129.9430  124.0170   67.1040 C   0  0  0  0  0  0  0  0  0  0  0  0
  130.9170  126.2400   67.6420 C   0  0  2  0  0  0  0  0  0  0  0  0
  130.6840  127.7090   68.0710 C   0  0  0  0  0  0  0  0  0  0  0  0
  132.2480  126.0750   66.8890 C   0  0  0  0  0  0  0  0  0  0  0  0
  133.3270  126.0350   67.4780 O   0  0  0  0  0  0  0  0  0  0  0  0
  132.1860  126.0130   65.4410 C   0  0  0  0  0  0  0  0  0  0  0  0
  131.0610  125.9510   64.6830 C   0  0  0  0  0  0  0  0  0  0  0  0
  131.1630  126.1330   63.1320 C   0  0  1  0  0  0  0  0  0  0  0  0
  131.4410  127.5170   62.9630 O   0  0  0  0  0  0  0  0  0  0  0  0
  132.3440  125.3550   62.4790 C   0  0  0  0  0  0  0  0  0  0  0  0
  131.8260  124.6690   61.1980 C   0  0  0  0  0  0  0  0  0  0  0  0
  130.4520  125.3010   60.7880 C   0  0  1  0  0  0  0  0  0  0  0  0
  130.8360  126.6240   60.1910 C   0  0  0  0  0  0  0  0  0  0  0  0
  130.8480  127.8390   60.0420 C   0  0  0  0  0  0  0  0  0  0  0  0
  130.4590  129.2590   60.1730 C   0  0  0  0  0  0  0  0  0  0  0  0
  129.0200  129.7610   59.6640 C   0  0  2  0  0  0  0  0  0  0  0  0
  127.6990  128.8800   59.6800 C   0  0  0  0  0  0  0  0  0  0  0  0
  127.8730  127.6950   58.7250 C   0  0  1  0  0  0  0  0  0  0  0  0
  126.9450  126.5320   58.4890 C   0  0  2  0  0  0  0  0  0  0  0  0
  126.0240  125.9800   59.6080 C   0  0  0  0  0  0  0  0  0  0  0  0
  125.9970  124.4430   59.5610 N   0  0  0  0  0  0  0  0  0  0  0  0
  125.3890  123.7920   60.8170 C   0  0  0  0  0  0  0  0  0  0  0  0
  126.4920  123.3100   61.7860 C   0  0  2  0  0  0  0  0  0  0  0  0
  127.3160  122.1630   61.1840 C   0  0  0  0  0  0  0  0  0  0  0  0
  125.9410  122.8550   63.0100 O   0  0  0  0  0  0  0  0  0  0  0  0
  127.9330  125.6700   57.6190 C   0  0  1  0  0  0  0  0  0  0  0  0
  128.4460  126.7230   56.7400 O   0  0  0  0  0  0  0  0  0  0  0  0
  128.2110  128.0500   57.2720 C   0  0  2  0  0  0  0  0  0  0  0  0
  129.2680  129.1790   56.9960 C   0  0  2  0  0  0  0  0  0  0  0  0
  130.5880  128.7250   56.8960 O   0  0  0  0  0  0  0  0  0  0  0  0
  129.2460  130.2230   58.1670 N   0  0  0  0  0  0  0  0  0  0  0  0
  129.2040  124.7790   58.1760 C   0  0  0  0  0  0  0  0  0  0  0  0
  130.4080  125.3130   57.6600 O   0  0  0  0  0  0  0  0  0  0  0  0
  128.9210  123.5750   57.4710 O   0  0  0  0  0  0  0  0  0  0  0  0
  129.5130  124.3740   59.7540 C   0  0  1  0  0  0  0  0  0  0  0  0
  129.9970  122.8820   59.8620 C   0  0  0  0  0  0  0  0  0  0  0  0
  128.2310  124.1770   60.2910 O   0  0  0  0  0  0  0  0  0  0  0  0
  128.6480  131.0580   60.4790 C   0  0  0  0  0  0  0  0  0  0  0  0
  128.2250  132.0650   59.9020 O   0  0  0  0  0  0  0  0  0  0  0  0
  128.8060  131.0270   61.8970 N   0  0  0  0  0  0  0  0  0  0  0  0
  127.8040  131.6610   62.7430 C   0  0  0  0  0  0  0  0  0  0  0  0
  128.1030  130.2100   62.9160 C   0  0  2  0  0  0  0  0  0  0  0  0
  128.6990  129.8950   64.3320 C   0  0  0  0  0  0  0  0  0  0  0  0
  128.8630  128.4810   64.7560 C   0  0  0  0  0  0  0  0  0  0  0  0
  129.1250  127.3270   65.0870 C   0  0  0  0  0  0  0  0  0  0  0  0
  129.6370  125.9290   65.3180 C   0  0  2  0  0  0  0  0  0  0  0  0
  128.7600  124.8870   64.4980 C   0  0  0  0  0  0  0  0  0  0  0  0
  129.3390  124.4310   63.1240 C   0  0  0  0  0  0  0  0  0  0  0  0
  129.8790  125.6310   62.2840 C   0  0  1  0  0  0  0  0  0  0  0  0
  128.7060  126.6610   62.1310 C   0  0  0  0  0  0  0  0  0  0  0  0
  127.1608  128.2063   75.1286 H   0  0  0  0  0  0  0  0  0  0  0  0
  126.4031  128.9448   73.6769 H   0  0  0  0  0  0  0  0  0  0  0  0
  126.8324  127.2006   73.6769 H   0  0  0  0  0  0  0  0  0  0  0  0
  128.6912  126.5820   72.8662 H   0  0  0  0  0  0  0  0  0  0  0  0
  128.4391  127.8497   71.5842 H   0  0  0  0  0  0  0  0  0  0  0  0
  130.7400  128.7779   72.5227 H   0  0  0  0  0  0  0  0  0  0  0  0
  130.9301  127.0444   73.0519 H   0  0  0  0  0  0  0  0  0  0  0  0
  131.4135  128.1803   70.4531 H   0  0  0  0  0  0  0  0  0  0  0  0
  131.5931  126.4806   70.9871 H   0  0  0  0  0  0  0  0  0  0  0  0
  129.2994  128.8131   69.3662 H   0  0  0  0  0  0  0  0  0  0  0  0
  127.3728  127.2968   68.9751 H   0  0  0  0  0  0  0  0  0  0  0  0
  128.0528  128.0096   67.4380 H   0  0  0  0  0  0  0  0  0  0  0  0
  128.2622  125.1647   68.4737 H   0  0  0  0  0  0  0  0  0  0  0  0
  127.5870  125.8432   66.8778 H   0  0  0  0  0  0  0  0  0  0  0  0
  129.9768  123.7955   68.1809 H   0  0  0  0  0  0  0  0  0  0  0  0
  129.1205  123.4534   66.6394 H   0  0  0  0  0  0  0  0  0  0  0  0
  130.8962  123.7245   66.6394 H   0  0  0  0  0  0  0  0  0  0  0  0
  130.9874  125.6792   68.5857 H   0  0  0  0  0  0  0  0  0  0  0  0
  131.5803  128.0870   68.5846 H   0  0  0  0  0  0  0  0  0  0  0  0
  130.4840  128.3225   67.1802 H   0  0  0  0  0  0  0  0  0  0  0  0
  133.1458  126.0166   64.9036 H   0  0  0  0  0  0  0  0  0  0  0  0
  130.7300  127.9080   62.4500 H   0  0  0  0  0  0  0  0  0  0  0  0
  133.1539  126.0544   62.2243 H   0  0  0  0  0  0  0  0  0  0  0  0
  132.7339  124.6020   63.1797 H   0  0  0  0  0  0  0  0  0  0  0  0
  132.5531  124.8126   60.3852 H   0  0  0  0  0  0  0  0  0  0  0  0
  131.6942  123.5931   61.3852 H   0  0  0  0  0  0  0  0  0  0  0  0
  130.5176  129.5043   61.2437 H   0  0  0  0  0  0  0  0  0  0  0  0
  131.1545  129.7698   59.4908 H   0  0  0  0  0  0  0  0  0  0  0  0
  127.5172  128.5078   60.6990 H   0  0  0  0  0  0  0  0  0  0  0  0
  126.8429  129.4913   59.3586 H   0  0  0  0  0  0  0  0  0  0  0  0
  128.6319  127.3476   59.4415 H   0  0  0  0  0  0  0  0  0  0  0  0
  125.9771  126.7282   58.0046 H   0  0  0  0  0  0  0  0  0  0  0  0
  126.4046  126.3073   60.5868 H   0  0  0  0  0  0  0  0  0  0  0  0
  125.0040  126.3625   59.4557 H   0  0  0  0  0  0  0  0  0  0  0  0
  125.4800  124.1470   58.7450 H   0  0  0  0  0  0  0  0  0  0  0  0
  126.9480  124.1170   59.4640 H   0  0  0  0  0  0  0  0  0  0  0  0
  124.7556  124.5291   61.3323 H   0  0  0  0  0  0  0  0  0  0  0  0
  124.7945  122.9207   60.5047 H   0  0  0  0  0  0  0  0  0  0  0  0
  127.1422  124.1790   61.9648 H   0  0  0  0  0  0  0  0  0  0  0  0
  127.7501  121.5588   61.9943 H   0  0  0  0  0  0  0  0  0  0  0  0
  126.6647  121.5302   60.5632 H   0  0  0  0  0  0  0  0  0  0  0  0
  128.1236  122.5782   60.5632 H   0  0  0  0  0  0  0  0  0  0  0  0
  125.8800  123.5950   63.6180 H   0  0  0  0  0  0  0  0  0  0  0  0
  127.3465  124.8059   57.2736 H   0  0  0  0  0  0  0  0  0  0  0  0
  127.4172  128.6038   56.7493 H   0  0  0  0  0  0  0  0  0  0  0  0
  128.9759  129.6093   56.0267 H   0  0  0  0  0  0  0  0  0  0  0  0
  130.1020  130.7570   58.1160 H   0  0  0  0  0  0  0  0  0  0  0  0
  128.5000  130.8670   57.9510 H   0  0  0  0  0  0  0  0  0  0  0  0
  130.2690  126.2450   57.4710 H   0  0  0  0  0  0  0  0  0  0  0  0
  129.1590  122.8290   58.0230 H   0  0  0  0  0  0  0  0  0  0  0  0
  130.0879  122.6018   60.9218 H   0  0  0  0  0  0  0  0  0  0  0  0
  129.2665  122.2230   59.3699 H   0  0  0  0  0  0  0  0  0  0  0  0
  130.9752  122.7773   59.3699 H   0  0  0  0  0  0  0  0  0  0  0  0
  127.9230  125.0150   60.6430 H   0  0  0  0  0  0  0  0  0  0  0  0
  128.1134  132.3810   63.5149 H   0  0  0  0  0  0  0  0  0  0  0  0
  126.8924  132.2483   62.5584 H   0  0  0  0  0  0  0  0  0  0  0  0
  127.6169  129.2261   62.8417 H   0  0  0  0  0  0  0  0  0  0  0  0
  129.6957  130.3587   64.3705 H   0  0  0  0  0  0  0  0  0  0  0  0
  127.9409  130.2875   65.0257 H   0  0  0  0  0  0  0  0  0  0  0  0
  128.6326  123.9906   65.1227 H   0  0  0  0  0  0  0  0  0  0  0  0
  127.8224  125.4120   64.2628 H   0  0  0  0  0  0  0  0  0  0  0  0
  130.1632  123.7250   63.3036 H   0  0  0  0  0  0  0  0  0  0  0  0
  128.5248  123.9593   62.5543 H   0  0  0  0  0  0  0  0  0  0  0  0
  128.3558  126.9685   63.1274 H   0  0  0  0  0  0  0  0  0  0  0  0
  129.0624  127.5433   61.5792 H   0  0  0  0  0  0  0  0  0  0  0  0
  127.8772  126.1935   61.5792 H   0  0  0  0  0  0  0  0  0  0  0  0
  1  2  1  0
  2  3  1  0
  3  4  1  0
  4  5  1  0
  5  6  1  0
  6  7  1  0
  7  8  1  0
  8  9  1  0
  9 10  1  0
 10 11  1  6
 10 12  1  0
 12 13  1  0
 12 14  1  0
 14 15  2  0
 14 16  1  0
 16 17  2  0
 17 18  1  0
 18 19  1  1
 18 20  1  0
 20 21  1  0
 22 21  1  1
 22 23  1  0
 23 24  3  0
 24 25  1  0
 25 26  1  0
 26 27  1  0
 27 28  1  0
 28 29  1  0
 29 30  1  0
 30 31  1  0
 31 32  1  0
 32 33  1  0
 33 34  1  0
 33 35  1  0
 29 36  1  0
 36 37  1  0
 37 38  1  0
 38 39  1  0
 39 40  1  0
 39 41  1  0
 36 42  1  0
 42 43  1  0
 42 44  1  0
 42 45  1  0
 45 46  1  0
 45 47  1  1
 26 48  1  0
 48 49  2  0
 48 50  1  0
 50 51  1  0
 51 52  1  0
 52 53  1  0
 53 54  1  0
 54 55  3  0
 56 55  1  1
 56 57  1  0
 57 58  1  0
 58 59  1  0
 59 60  1  6
 13  7  1  0
 56 17  1  0
 56 10  1  0
 59 18  1  0
 45 22  1  0
 52 50  1  0
 59 22  1  0
 26 41  1  6
 38 28  1  0
  1 61  1  0
  1 62  1  0
  1 63  1  0
  3 64  1  0
  3 65  1  0
  4 66  1  0
  4 67  1  0
  5 68  1  0
  5 69  1  0
  7 70  1  1
  8 71  1  0
  8 72  1  0
  9 73  1  0
  9 74  1  0
 11 75  1  0
 11 76  1  0
 11 77  1  0
 12 78  1  1
 13 79  1  0
 13 80  1  0
 16 81  1  0
 19 82  1  0
 20 83  1  0
 20 84  1  0
 21 85  1  0
 21 86  1  0
 25 87  1  0
 25 88  1  0
 27 89  1  0
 27 90  1  0
 28 91  1  1
 29 92  1  6
 30 93  1  0
 30 94  1  0
 31 95  1  0
 31 96  1  0
 32 97  1  0
 32 98  1  0
 33 99  1  1
 34100  1  0
 34101  1  0
 34102  1  0
 35103  1  0
 36104  1  6
 38105  1  6
 39106  1  6
 41107  1  0
 41108  1  0
 43109  1  0
 44110  1  0
 46111  1  0
 46112  1  0
 46113  1  0
 47114  1  0
 51115  1  0
 51116  1  0
 52117  1  6
 53118  1  0
 53119  1  0
 57120  1  0
 57121  1  0
 58122  1  0
 58123  1  0
 60124  1  0
 60125  1  0
 60126  1  0
M  CHG  3  31   1  40  -1  41   1
M  END
>  <Binding energies>  (1) 
[179.4]

>  <Ligand effiencies>  (1) 
[2.4575342465753427]

>  <Interactions>  (1) 
["V-B:PRO:540:CA:9855, V-B:GLU:543:C:9874, H-A:GLU:543:OE2:4910, V-B:HIS:456:CD2:9039, V-B:GLU:543:CB:9878, V-B:HIS:456:CB:9036, V-B:ASP:366:CG:8184, V-B:ALA:541:CB:9864, H-A:TYR:531:OH:4795, V-A:TYR:484:CE2:4346, V-B:TYR:539:CE2:9848, H-B:ALA:541:O:9861, V-B:GLU:543:CG:9879, V-A:GLY:544:C:4912, V-A:ASP:366:CG:3213, V-A:HIS:456:CD2:4068, V-B:TYR:539:CZ:9849, H-B:GLU:543:OE1:9881, H-B:TYR:539:OH:9850, V-B:LYS:547:CE:9922, H-B:ALA:541:N:9863, V-A:GLU:543:CD:4908, V-A:TYR:484:CZ:4347, V-B:PRO:540:CB:9857, H-B:ASP:366:OD1:8185, V-B:HIS:456:CE1:9041, V-B:GLU:543:CA:9876, V-A:ARG:545:CG:4922, V-B:PRO:540:N:9856, V-A:TYR:484:CD2:4344, V-A:HIS:456:CE1:4070, V-B:TYR:539:CD2:9846, V-A:GLU:543:CG:4907, V-B:GLU:543:CD:9880, V-B:HIS:456:CG:9037, V-A:MET:535:CE:4835, H-B:TYR:531:OH:9767, V-A:ARG:545:CD:4923, H-A:ARG:545:NH2:4928, V-A:ARG:545:CZ:4926, H-A:GLU:543:OE1:4909, V-A:GLU:543:CB:4906, V-A:HIS:456:CG:4066, H-B:GLU:543:OE2:9882, H-A:ARG:545:NE:4924, V-B:PRO:540:C:9853, V-B:ALA:541:CA:9862, H-A:HIS:456:ND1:4067, H-A:TYR:484:OH:4348"]

$$$$
ZINC2356779483
     RDKit          3D

 64 64  0  0  0  0  0  0  0  0999 V2000
  126.9150  122.5360   57.3660 C   0  0  0  0  0  0  0  0  0  0  0  0
  127.7180  123.3200   58.1070 C   0  0  0  0  0  0  0  0  0  0  0  0
  128.6080  124.3820   57.4800 C   0  0  0  0  0  0  0  0  0  0  0  0
  127.7980  123.1910   59.6210 C   0  0  0  0  0  0  0  0  0  0  0  0
  129.1580  122.7620   60.1370 C   0  0  0  0  0  0  0  0  0  0  0  0
  129.3610  121.7570   61.0050 C   0  0  0  0  0  0  0  0  0  0  0  0
  130.7160  121.3270   61.5340 C   0  0  2  0  0  0  0  0  0  0  0  0
  131.6020  122.4430   61.5850 O   0  0  0  0  0  0  0  0  0  0  0  0
  132.9680  122.0370   61.4160 C   0  0  2  0  0  0  0  0  0  0  0  0
  133.5910  122.0930   62.8260 C   0  0  0  0  0  0  0  0  0  0  0  0
  133.6680  123.0140   60.4290 C   0  0  0  0  0  0  0  0  0  0  0  0
  132.8760  124.2560   60.0200 C   0  0  0  0  0  0  0  0  0  0  0  0
  132.8380  124.6690   58.7380 C   0  0  0  0  0  0  0  0  0  0  0  0
  132.1750  125.0210   61.1500 C   0  0  2  0  0  0  0  0  0  0  0  0
  131.5390  126.3470   60.6870 C   0  0  0  0  0  0  0  0  0  0  0  0
  133.0910  125.2570   62.3790 C   0  0  0  0  0  0  0  0  0  0  0  0
  132.3900  125.2220   63.7580 C   0  0  2  0  0  0  0  0  0  0  0  0
  133.0690  124.3220   64.6150 O   0  0  0  0  0  0  0  0  0  0  0  0
  130.9030  124.8120   63.6450 C   0  0  0  0  0  0  0  0  0  0  0  0
  130.2270  124.3980   64.9770 C   0  0  1  0  0  0  0  0  0  0  0  0
  130.6920  123.1270   65.3950 O   0  0  0  0  0  0  0  0  0  0  0  0
  130.4210  125.4230   66.1180 C   0  0  0  0  0  0  0  0  0  0  0  0
  131.5190  125.1000   66.9520 O   0  0  0  0  0  0  0  0  0  0  0  0
  132.8880  120.5870   60.8860 C   0  0  0  0  0  0  0  0  0  0  0  0
  131.4190  120.3480   60.5900 C   0  0  1  0  0  0  0  0  0  0  0  0
  130.9730  118.8870   60.7900 C   0  0  0  0  0  0  0  0  0  0  0  0
  126.2844  121.7778   57.8534 H   0  0  0  0  0  0  0  0  0  0  0  0
  126.8888  122.6529   56.2725 H   0  0  0  0  0  0  0  0  0  0  0  0
  129.0972  124.9657   58.2737 H   0  0  0  0  0  0  0  0  0  0  0  0
  129.3736  123.8973   56.8564 H   0  0  0  0  0  0  0  0  0  0  0  0
  127.9969  125.0511   56.8564 H   0  0  0  0  0  0  0  0  0  0  0  0
  127.5533  124.1677   60.0639 H   0  0  0  0  0  0  0  0  0  0  0  0
  127.0873  122.4025   59.9092 H   0  0  0  0  0  0  0  0  0  0  0  0
  130.0394  123.3119   59.7754 H   0  0  0  0  0  0  0  0  0  0  0  0
  128.4782  121.2043   61.3587 H   0  0  0  0  0  0  0  0  0  0  0  0
  130.5179  120.8756   62.5174 H   0  0  0  0  0  0  0  0  0  0  0  0
  132.7949  122.0214   63.5817 H   0  0  0  0  0  0  0  0  0  0  0  0
  134.2916  121.2542   62.9509 H   0  0  0  0  0  0  0  0  0  0  0  0
  134.1308  123.0433   62.9509 H   0  0  0  0  0  0  0  0  0  0  0  0
  134.6016  123.3538   60.9012 H   0  0  0  0  0  0  0  0  0  0  0  0
  133.8072  122.4396   59.5013 H   0  0  0  0  0  0  0  0  0  0  0  0
  132.2617  125.5656   58.4658 H   0  0  0  0  0  0  0  0  0  0  0  0
  133.3832  124.1096   57.9636 H   0  0  0  0  0  0  0  0  0  0  0  0
  131.3556  124.3584   61.4654 H   0  0  0  0  0  0  0  0  0  0  0  0
  131.2531  126.9432   61.5661 H   0  0  0  0  0  0  0  0  0  0  0  0
  132.2649  126.9104   60.0823 H   0  0  0  0  0  0  0  0  0  0  0  0
  130.6453  126.1335   60.0823 H   0  0  0  0  0  0  0  0  0  0  0  0
  133.8678  124.4782   62.3754 H   0  0  0  0  0  0  0  0  0  0  0  0
  133.4818  126.2793   62.2684 H   0  0  0  0  0  0  0  0  0  0  0  0
  132.4236  126.2397   64.1742 H   0  0  0  0  0  0  0  0  0  0  0  0
  132.5120  124.1490   65.3780 H   0  0  0  0  0  0  0  0  0  0  0  0
  130.3456  125.6656   63.2319 H   0  0  0  0  0  0  0  0  0  0  0  0
  130.8816  123.9193   63.0027 H   0  0  0  0  0  0  0  0  0  0  0  0
  129.1481  124.3582   64.7663 H   0  0  0  0  0  0  0  0  0  0  0  0
  131.5710  123.2330   65.7670 H   0  0  0  0  0  0  0  0  0  0  0  0
  130.5929  126.4155   65.6760 H   0  0  0  0  0  0  0  0  0  0  0  0
  129.5129  125.4104   66.7386 H   0  0  0  0  0  0  0  0  0  0  0  0
  132.0180  124.3910   66.5380 H   0  0  0  0  0  0  0  0  0  0  0  0
  133.4880  120.4780   59.9705 H   0  0  0  0  0  0  0  0  0  0  0  0
  133.2823  119.8625   61.6138 H   0  0  0  0  0  0  0  0  0  0  0  0
  131.1724  120.5182   59.5316 H   0  0  0  0  0  0  0  0  0  0  0  0
  130.9062  118.6680   61.8659 H   0  0  0  0  0  0  0  0  0  0  0  0
  129.9882  118.7371   60.3234 H   0  0  0  0  0  0  0  0  0  0  0  0
  131.7062  118.2127   60.3234 H   0  0  0  0  0  0  0  0  0  0  0  0
  1  2  2  0
  2  3  1  0
  2  4  1  0
  4  5  1  0
  5  6  2  0
  6  7  1  0
  7  8  1  0
  8  9  1  0
  9 10  1  1
  9 11  1  0
 11 12  1  0
 12 13  2  0
 12 14  1  0
 14 15  1  0
 14 16  1  0
 16 17  1  0
 17 18  1  0
 17 19  1  0
 19 20  1  0
 20 21  1  0
 20 22  1  0
 22 23  1  0
  9 24  1  0
 24 25  1  0
 25 26  1  0
 25  7  1  0
  1 27  1  0
  1 28  1  0
  3 29  1  0
  3 30  1  0
  3 31  1  0
  4 32  1  0
  4 33  1  0
  5 34  1  0
  6 35  1  0
  7 36  1  1
 10 37  1  0
 10 38  1  0
 10 39  1  0
 11 40  1  0
 11 41  1  0
 13 42  1  0
 13 43  1  0
 14 44  1  1
 15 45  1  0
 15 46  1  0
 15 47  1  0
 16 48  1  0
 16 49  1  0
 17 50  1  1
 18 51  1  0
 19 52  1  0
 19 53  1  0
 20 54  1  6
 21 55  1  0
 22 56  1  0
 22 57  1  0
 23 58  1  0
 24 59  1  0
 24 60  1  0
 25 61  1  6
 26 62  1  0
 26 63  1  0
 26 64  1  0
M  END
>  <Binding energies>  (1) 
[-6.61]

>  <Ligand effiencies>  (1) 
[-0.22793103448275864]

>  <Interactions>  (1) 
["V-A:ILE:369:CG2:3237, V-A:ASP:366:CA:3210, V-B:PRO:540:CA:9855, V-A:GLY:454:CA:4049, V-A:ILE:369:CB:3236, V-B:TYR:539:CE2:9848, V-B:GLU:543:CG:9879, V-B:TYR:539:C:9839, V-A:ASP:366:CG:3213, V-B:TYR:539:CZ:9849, V-B:PRO:540:CB:9857, H-A:GLY:454:N:4050, V-B:PRO:540:N:9856, V-A:ILE:369:CD1:3239, V-B:TYR:539:CD2:9846, V-B:PRO:540:CD:9859, V-A:SER:385:CB:3409, V-A:ASP:366:CB:3212, V-A:LEU:475:CD2:4259, V-A:ARG:545:CZ:4926, H-A:TYR:484:OH:4348"]

$$$$
ZINC2356780622
     RDKit          3D

 68 73  0  0  0  0  0  0  0  0999 V2000
  130.6270  133.4040   56.5250 O   0  0  0  0  0  0  0  0  0  0  0  0
  130.4770  132.6330   57.4710 C   0  0  0  0  0  0  0  0  0  0  0  0
  129.6500  132.8490   58.6570 C   0  0  0  0  0  0  0  0  0  0  0  0
  129.6830  132.0170   59.7130 C   0  0  0  0  0  0  0  0  0  0  0  0
  130.5320  130.7600   59.7350 C   0  0  0  0  0  0  0  0  0  0  0  0
  130.8580  130.3570   58.2730 C   0  0  2  0  0  0  0  0  0  0  0  0
  131.9520  129.2640   58.2100 C   0  0  0  0  0  0  0  0  0  0  0  0
  131.3980  127.8440   58.2740 C   0  0  1  0  0  0  0  0  0  0  0  0
  132.4800  126.9060   58.1990 O   0  0  0  0  0  0  0  0  0  0  0  0
  132.2770  125.6290   58.8560 C   0  0  2  0  0  0  0  0  0  0  0  0
  130.7650  125.3430   58.8020 C   0  0  0  0  0  0  0  0  0  0  0  0
  130.1510  126.3790   59.7570 C   0  0  1  0  0  0  0  0  0  0  0  0
  128.6310  126.3230   59.6680 C   0  0  0  0  0  0  0  0  0  0  0  0
  127.7980  125.3710   60.1430 C   0  0  0  0  0  0  0  0  0  0  0  0
  128.1410  124.0890   60.7870 C   0  0  0  0  0  0  0  0  0  0  0  0
  128.4530  122.9590   60.0230 C   0  0  0  0  0  0  0  0  0  0  0  0
  128.7830  121.7600   60.6490 C   0  0  0  0  0  0  0  0  0  0  0  0
  128.7910  121.6880   62.0400 C   0  0  0  0  0  0  0  0  0  0  0  0
  128.4650  122.8030   62.8090 C   0  0  0  0  0  0  0  0  0  0  0  0
  128.1340  124.0020   62.1810 C   0  0  0  0  0  0  0  0  0  0  0  0
  130.5020  126.0620   61.0950 O   0  0  0  0  0  0  0  0  0  0  0  0
  131.7510  125.4770   61.3440 C   0  0  0  0  0  0  0  0  0  0  0  0
  132.0600  125.1470   62.6820 C   0  0  0  0  0  0  0  0  0  0  0  0
  131.0400  125.4410   63.7560 C   0  0  0  0  0  0  0  0  0  0  0  0
  130.2910  126.4150   63.6620 O   0  0  0  0  0  0  0  0  0  0  0  0
  130.9200  124.4640   64.8460 C   0  0  0  0  0  0  0  0  0  0  0  0
  130.4790  124.6850   66.1070 C   0  0  0  0  0  0  0  0  0  0  0  0
  129.9210  125.9070   66.7200 C   0  0  0  0  0  0  0  0  0  0  0  0
  129.0670  126.7570   66.0080 C   0  0  0  0  0  0  0  0  0  0  0  0
  128.5410  127.8930   66.6160 C   0  0  0  0  0  0  0  0  0  0  0  0
  128.8610  128.1750   67.9420 C   0  0  0  0  0  0  0  0  0  0  0  0
  129.7000  127.3290   68.6640 C   0  0  0  0  0  0  0  0  0  0  0  0
  130.2260  126.1930   68.0530 C   0  0  0  0  0  0  0  0  0  0  0  0
  133.3110  124.5270   62.9540 C   0  0  0  0  0  0  0  0  0  0  0  0
  133.7050  124.1890   64.1260 O   0  0  0  0  0  0  0  0  0  0  0  0
  134.2050  124.2790   61.9090 C   0  0  0  0  0  0  0  0  0  0  0  0
  133.8950  124.6270   60.6000 C   0  0  0  0  0  0  0  0  0  0  0  0
  134.8090  124.3700   59.6100 O   0  0  0  0  0  0  0  0  0  0  0  0
  132.6710  125.2300   60.2900 C   0  0  0  0  0  0  0  0  0  0  0  0
  130.6200  127.6820   59.4440 O   0  0  0  0  0  0  0  0  0  0  0  0
  131.2110  131.4740   57.4340 O   0  0  0  0  0  0  0  0  0  0  0  0
  128.9791  133.7202   58.6866 H   0  0  0  0  0  0  0  0  0  0  0  0
  129.0708  132.2572   60.5948 H   0  0  0  0  0  0  0  0  0  0  0  0
  131.4659  130.9532   60.2831 H   0  0  0  0  0  0  0  0  0  0  0  0
  129.9864  129.9469   60.2361 H   0  0  0  0  0  0  0  0  0  0  0  0
  129.9224  129.9422   57.8699 H   0  0  0  0  0  0  0  0  0  0  0  0
  132.5056  129.3795   57.2665 H   0  0  0  0  0  0  0  0  0  0  0  0
  132.5963  129.3999   59.0912 H   0  0  0  0  0  0  0  0  0  0  0  0
  130.7346  127.6545   57.4173 H   0  0  0  0  0  0  0  0  0  0  0  0
  133.0317  125.0681   58.2852 H   0  0  0  0  0  0  0  0  0  0  0  0
  130.3789  125.4768   57.7807 H   0  0  0  0  0  0  0  0  0  0  0  0
  130.5212  124.3093   59.0885 H   0  0  0  0  0  0  0  0  0  0  0  0
  128.1499  127.1660   59.1505 H   0  0  0  0  0  0  0  0  0  0  0  0
  126.7233  125.5793   60.0353 H   0  0  0  0  0  0  0  0  0  0  0  0
  128.4375  123.0182   58.9247 H   0  0  0  0  0  0  0  0  0  0  0  0
  129.0361  120.8741   60.0481 H   0  0  0  0  0  0  0  0  0  0  0  0
  129.0570  120.7427   62.5356 H   0  0  0  0  0  0  0  0  0  0  0  0
  128.4689  122.7371   63.9070 H   0  0  0  0  0  0  0  0  0  0  0  0
  127.8666  124.8820   62.7844 H   0  0  0  0  0  0  0  0  0  0  0  0
  131.2236  123.4332   64.6107 H   0  0  0  0  0  0  0  0  0  0  0  0
  130.5471  123.8180   66.7806 H   0  0  0  0  0  0  0  0  0  0  0  0
  128.8105  126.5262   64.9635 H   0  0  0  0  0  0  0  0  0  0  0  0
  127.8763  128.5644   66.0526 H   0  0  0  0  0  0  0  0  0  0  0  0
  128.4476  129.0736   68.4233 H   0  0  0  0  0  0  0  0  0  0  0  0
  129.9459  127.5570   69.7116 H   0  0  0  0  0  0  0  0  0  0  0  0
  130.8835  125.5191   68.6218 H   0  0  0  0  0  0  0  0  0  0  0  0
  135.1710  123.7999   62.1265 H   0  0  0  0  0  0  0  0  0  0  0  0
  134.6700  124.9100   58.8290 H   0  0  0  0  0  0  0  0  0  0  0  0
  1  2  2  0
  2  3  1  0
  3  4  2  0
  4  5  1  0
  5  6  1  0
  6  7  1  0
  7  8  1  0
  8  9  1  0
  9 10  1  0
 10 11  1  0
 11 12  1  0
 12 13  1  1
 13 14  2  0
 14 15  1  0
 15 16  2  0
 16 17  1  0
 17 18  2  0
 18 19  1  0
 19 20  2  0
 12 21  1  0
 21 22  1  0
 22 23  2  0
 23 24  1  0
 24 25  2  0
 24 26  1  0
 26 27  2  0
 27 28  1  0
 28 29  2  0
 29 30  1  0
 30 31  2  0
 31 32  1  0
 32 33  2  0
 23 34  1  0
 34 35  1  0
 34 36  2  0
 36 37  1  0
 37 38  1  0
 37 39  2  0
 12 40  1  0
  6 41  1  0
 41  2  1  0
 40  8  1  0
 39 10  1  0
 20 15  1  0
 39 22  1  0
 33 28  1  0
  3 42  1  0
  4 43  1  0
  5 44  1  0
  5 45  1  0
  6 46  1  6
  7 47  1  0
  7 48  1  0
  8 49  1  6
 10 50  1  6
 11 51  1  0
 11 52  1  0
 13 53  1  0
 14 54  1  0
 16 55  1  0
 17 56  1  0
 18 57  1  0
 19 58  1  0
 20 59  1  0
 26 60  1  0
 27 61  1  0
 29 62  1  0
 30 63  1  0
 31 64  1  0
 32 65  1  0
 33 66  1  0
 36 67  1  0
 38 68  1  0
M  CHG  1  35  -1
M  END
>  <Binding energies>  (1) 
[-8.64]

>  <Ligand effiencies>  (1) 
[-0.20571428571428574]

>  <Interactions>  (1) 
["V-A:ASP:366:CA:3210, V-B:PRO:540:CA:9855, V-B:GLU:543:CB:9878, V-B:ALA:541:CB:9864, H-A:TYR:531:OH:4795, V-B:TYR:539:CE2:9848, V-A:TYR:484:CE2:4346, V-B:GLU:543:CG:9879, V-B:TYR:539:C:9839, V-A:ASP:366:CG:3213, V-B:TYR:539:CZ:9849, V-A:TYR:484:CZ:4347, V-A:GLU:543:CD:4908, V-B:HIS:456:CE1:9041, H-A:GLY:454:N:4050, V-B:PRO:540:N:9856, V-A:ILE:369:CD1:3239, V-A:HIS:456:CE1:4070, V-B:TYR:539:CD2:9846, V-A:TYR:531:CZ:4794, V-A:GLU:543:CG:4907, V-B:GLU:543:CD:9880, V-A:TYR:539:C:4867, V-A:ASP:366:CB:3212, V-A:ARG:545:CZ:4926, H-A:ASP:366:O:3209, V-A:GLU:543:CB:4906, H-A:ASP:366:OD1:3214, V-A:PRO:540:N:4884, H-A:TYR:539:N:4870, V-A:PRO:540:CA:4883, V-B:PRO:540:C:9853, V-B:ALA:541:CA:9862, H-A:TYR:484:OH:4348"]

$$$$
ZINC2356780622-again1
     RDKit          3D

 68 73  0  0  0  0  0  0  0  0999 V2000
  128.5540  132.1030   58.9070 O   0  0  0  0  0  0  0  0  0  0  0  0
  129.5860  132.0490   58.2410 C   0  0  0  0  0  0  0  0  0  0  0  0
  129.9900  132.9480   57.1600 C   0  0  0  0  0  0  0  0  0  0  0  0
  131.0740  132.7080   56.3980 C   0  0  0  0  0  0  0  0  0  0  0  0
  131.9940  131.5240   56.6350 C   0  0  0  0  0  0  0  0  0  0  0  0
  131.8020  131.0360   58.0940 C   0  0  2  0  0  0  0  0  0  0  0  0
  132.4930  129.6740   58.3500 C   0  0  0  0  0  0  0  0  0  0  0  0
  131.5050  128.5210   58.5210 C   0  0  1  0  0  0  0  0  0  0  0  0
  132.0180  127.3590   57.8550 O   0  0  0  0  0  0  0  0  0  0  0  0
  131.7020  126.0760   58.4480 C   0  0  2  0  0  0  0  0  0  0  0  0
  130.3280  126.2320   59.1240 C   0  0  0  0  0  0  0  0  0  0  0  0
  130.6050  127.1440   60.3240 C   0  0  1  0  0  0  0  0  0  0  0  0
  129.3020  127.5010   61.0240 C   0  0  0  0  0  0  0  0  0  0  0  0
  128.0750  126.9630   60.8360 C   0  0  0  0  0  0  0  0  0  0  0  0
  127.6400  125.9530   59.8500 C   0  0  0  0  0  0  0  0  0  0  0  0
  127.9410  124.5940   60.0080 C   0  0  0  0  0  0  0  0  0  0  0  0
  127.5140  123.6640   59.0650 C   0  0  0  0  0  0  0  0  0  0  0  0
  126.7930  124.0920   57.9540 C   0  0  0  0  0  0  0  0  0  0  0  0
  126.5000  125.4430   57.7770 C   0  0  0  0  0  0  0  0  0  0  0  0
  126.9260  126.3720   58.7240 C   0  0  0  0  0  0  0  0  0  0  0  0
  131.4090  126.4680   61.2810 O   0  0  0  0  0  0  0  0  0  0  0  0
  132.3200  125.5030   60.8400 C   0  0  0  0  0  0  0  0  0  0  0  0
  133.0630  124.8290   61.8280 C   0  0  0  0  0  0  0  0  0  0  0  0
  132.8080  125.1080   63.2790 C   0  0  0  0  0  0  0  0  0  0  0  0
  133.6350  124.7870   64.1340 O   0  0  0  0  0  0  0  0  0  0  0  0
  131.4930  125.6610   63.6280 C   0  0  0  0  0  0  0  0  0  0  0  0
  130.2830  125.0740   63.4730 C   0  0  0  0  0  0  0  0  0  0  0  0
  129.9120  123.7840   62.8520 C   0  0  0  0  0  0  0  0  0  0  0  0
  130.8720  122.9330   62.2930 C   0  0  0  0  0  0  0  0  0  0  0  0
  130.4870  121.7350   61.6960 C   0  0  0  0  0  0  0  0  0  0  0  0
  129.1380  121.3910   61.6500 C   0  0  0  0  0  0  0  0  0  0  0  0
  128.1730  122.2370   62.1910 C   0  0  0  0  0  0  0  0  0  0  0  0
  128.5600  123.4340   62.7880 C   0  0  0  0  0  0  0  0  0  0  0  0
  134.0210  123.8800   61.4270 C   0  0  0  0  0  0  0  0  0  0  0  0
  134.7580  123.1540   62.3290 O   0  0  0  0  0  0  0  0  0  0  0  0
  134.2410  123.6320   60.0750 C   0  0  0  0  0  0  0  0  0  0  0  0
  133.5170  124.3090   59.0920 C   0  0  0  0  0  0  0  0  0  0  0  0
  133.7620  124.0430   57.8700 O   0  0  0  0  0  0  0  0  0  0  0  0
  132.5400  125.2600   59.4560 C   0  0  0  0  0  0  0  0  0  0  0  0
  131.2660  128.3240   59.9030 O   0  0  0  0  0  0  0  0  0  0  0  0
  130.4200  130.9930   58.5020 O   0  0  0  0  0  0  0  0  0  0  0  0
  129.3894  133.8484   56.9634 H   0  0  0  0  0  0  0  0  0  0  0  0
  131.3018  133.3970   55.5713 H   0  0  0  0  0  0  0  0  0  0  0  0
  131.7421  130.7127   55.9362 H   0  0  0  0  0  0  0  0  0  0  0  0
  133.0404  131.8212   56.4717 H   0  0  0  0  0  0  0  0  0  0  0  0
  132.2965  131.7926   58.7210 H   0  0  0  0  0  0  0  0  0  0  0  0
  133.1489  129.4487   57.4962 H   0  0  0  0  0  0  0  0  0  0  0  0
  133.0560  129.7646   59.2907 H   0  0  0  0  0  0  0  0  0  0  0  0
  130.5338  128.7473   58.0566 H   0  0  0  0  0  0  0  0  0  0  0  0
  131.8760  125.4701   57.5465 H   0  0  0  0  0  0  0  0  0  0  0  0
  129.6055  126.6978   58.4377 H   0  0  0  0  0  0  0  0  0  0  0  0
  129.8897  125.2670   59.4186 H   0  0  0  0  0  0  0  0  0  0  0  0
  129.3658  128.2982   61.7792 H   0  0  0  0  0  0  0  0  0  0  0  0
  127.2899  127.3298   61.5136 H   0  0  0  0  0  0  0  0  0  0  0  0
  128.5183  124.2600   60.8827 H   0  0  0  0  0  0  0  0  0  0  0  0
  127.7450  122.5966   59.1969 H   0  0  0  0  0  0  0  0  0  0  0  0
  126.4516  123.3578   57.2094 H   0  0  0  0  0  0  0  0  0  0  0  0
  125.9348  125.7745   56.8934 H   0  0  0  0  0  0  0  0  0  0  0  0
  126.6995  127.4394   58.5849 H   0  0  0  0  0  0  0  0  0  0  0  0
  131.4910  126.6698   64.0665 H   0  0  0  0  0  0  0  0  0  0  0  0
  129.4371  125.6511   63.8748 H   0  0  0  0  0  0  0  0  0  0  0  0
  131.9357  123.2115   62.3252 H   0  0  0  0  0  0  0  0  0  0  0  0
  131.2439  121.0643   61.2633 H   0  0  0  0  0  0  0  0  0  0  0  0
  128.8324  120.4433   61.1825 H   0  0  0  0  0  0  0  0  0  0  0  0
  127.1092  121.9607   62.1469 H   0  0  0  0  0  0  0  0  0  0  0  0
  127.7992  124.1066   63.2108 H   0  0  0  0  0  0  0  0  0  0  0  0
  135.0230  122.2980   61.9870 H   0  0  0  0  0  0  0  0  0  0  0  0
  134.9972  122.8910   59.7765 H   0  0  0  0  0  0  0  0  0  0  0  0
  1  2  2  0
  2  3  1  0
  3  4  2  0
  4  5  1  0
  5  6  1  0
  6  7  1  0
  7  8  1  0
  8  9  1  0
  9 10  1  0
 10 11  1  0
 11 12  1  0
 12 13  1  1
 13 14  2  0
 14 15  1  0
 15 16  2  0
 16 17  1  0
 17 18  2  0
 18 19  1  0
 19 20  2  0
 12 21  1  0
 21 22  1  0
 22 23  2  0
 23 24  1  0
 24 25  2  0
 24 26  1  0
 26 27  2  0
 27 28  1  0
 28 29  2  0
 29 30  1  0
 30 31  2  0
 31 32  1  0
 32 33  2  0
 23 34  1  0
 34 35  1  0
 34 36  2  0
 36 37  1  0
 37 38  1  0
 37 39  2  0
 12 40  1  0
  6 41  1  0
 41  2  1  0
 40  8  1  0
 39 10  1  0
 20 15  1  0
 39 22  1  0
 33 28  1  0
  3 42  1  0
  4 43  1  0
  5 44  1  0
  5 45  1  0
  6 46  1  1
  7 47  1  0
  7 48  1  0
  8 49  1  6
 10 50  1  6
 11 51  1  0
 11 52  1  0
 13 53  1  0
 14 54  1  0
 16 55  1  0
 17 56  1  0
 18 57  1  0
 19 58  1  0
 20 59  1  0
 26 60  1  0
 27 61  1  0
 29 62  1  0
 30 63  1  0
 31 64  1  0
 32 65  1  0
 33 66  1  0
 35 67  1  0
 36 68  1  0
M  CHG  1  38  -1
M  END
>  <Binding energies>  (1) 
[-8.64]

>  <Ligand effiencies>  (1) 
[-0.20571428571428574]

>  <Interactions>  (1) 
["V-A:ILE:369:CG2:3237, V-A:ASP:366:CA:3210, V-B:PRO:540:CA:9855, V-A:ILE:369:CB:3236, V-A:ILE:538:CB:4862, V-B:ALA:541:CB:9864, H-A:TYR:531:OH:4795, V-B:TYR:539:CE2:9848, V-B:GLU:543:CG:9879, V-A:ASP:366:CG:3213, V-A:ILE:538:CG2:4863, V-A:LEU:363:CD1:3189, V-A:ILE:538:CA:4860, V-A:TYR:531:CE2:4793, H-B:TYR:539:OH:9850, H-A:GLY:454:N:4050, V-A:ILE:369:CD1:3239, V-B:GLU:543:CD:9880, V-A:ILE:369:CG1:3238, V-A:ASP:366:CB:3212, V-A:TYR:539:C:4867, V-A:LEU:475:CD2:4259, H-A:ARG:545:NH2:4928, V-A:ARG:545:CZ:4926, V-A:PRO:540:N:4884, H-A:ARG:545:NE:4924, H-A:SER:385:O:3406, V-B:PRO:540:C:9853, V-B:ALA:541:CA:9862, H-A:TYR:484:OH:4348"]

$$$$
ZINC2356782348
     RDKit          3D

 94 97  0  0  0  0  0  0  0  0999 V2000
  128.9790  117.9900   61.6820 C   0  0  0  0  0  0  0  0  0  0  0  0
  130.2990  117.9490   61.4240 C   0  0  0  0  0  0  0  0  0  0  0  0
  130.9930  118.7760   60.4410 C   0  0  0  0  0  0  0  0  0  0  0  0
  131.5760  118.1450   59.4000 C   0  0  0  0  0  0  0  0  0  0  0  0
  131.0480  120.3010   60.6060 C   0  0  0  0  0  0  0  0  0  0  0  0
  130.4050  120.9180   61.8770 C   0  0  0  0  0  0  0  0  0  0  0  0
  130.7700  122.4180   62.1660 C   0  0  2  0  0  0  0  0  0  0  0  0
  132.3090  122.5220   62.4150 C   0  0  0  0  0  0  0  0  0  0  0  0
  130.0390  122.8800   63.4990 C   0  0  2  0  0  0  0  0  0  0  0  0
  128.5760  122.4050   63.7310 C   0  0  0  0  0  0  0  0  0  0  0  0
  130.2040  124.4130   63.7590 C   0  0  2  0  0  0  0  0  0  0  0  0
  129.5860  124.8730   64.9690 O   0  0  0  0  0  0  0  0  0  0  0  0
  129.3850  126.1890   65.2290 C   0  0  0  0  0  0  0  0  0  0  0  0
  128.8690  126.9880   64.4420 O   0  0  0  0  0  0  0  0  0  0  0  0
  129.8590  126.5520   66.5600 C   0  0  0  0  0  0  0  0  0  0  0  0
  129.0250  126.9250   67.5560 C   0  0  0  0  0  0  0  0  0  0  0  0
  129.4110  127.3190   68.9290 C   0  0  0  0  0  0  0  0  0  0  0  0
  128.5080  127.2990   70.0010 C   0  0  0  0  0  0  0  0  0  0  0  0
  128.9200  127.6770   71.2770 C   0  0  0  0  0  0  0  0  0  0  0  0
  130.2370  128.0770   71.4890 C   0  0  0  0  0  0  0  0  0  0  0  0
  130.6410  128.4480   72.7430 O   0  0  0  0  0  0  0  0  0  0  0  0
  131.1450  128.1020   70.4320 C   0  0  0  0  0  0  0  0  0  0  0  0
  130.7310  127.7250   69.1580 C   0  0  0  0  0  0  0  0  0  0  0  0
  129.7700  125.3130   62.5720 C   0  0  2  0  0  0  0  0  0  0  0  0
  128.3560  125.3650   62.4500 O   0  0  0  0  0  0  0  0  0  0  0  0
  130.4480  124.9260   61.2020 C   0  0  2  0  0  0  0  0  0  0  0  0
  129.8700  125.7240   60.0260 C   0  0  0  0  0  0  0  0  0  0  0  0
  129.1050  125.1950   59.0490 C   0  0  0  0  0  0  0  0  0  0  0  0
  128.6840  123.7420   58.9710 C   0  0  2  0  0  0  0  0  0  0  0  0
  127.3020  123.6840   58.6240 O   0  0  0  0  0  0  0  0  0  0  0  0
  126.8700  122.9890   57.5460 C   0  0  0  0  0  0  0  0  0  0  0  0
  127.4300  122.0200   57.0310 O   0  0  0  0  0  0  0  0  0  0  0  0
  125.5380  123.5170   57.0090 C   0  0  0  0  0  0  0  0  0  0  0  0
  125.4100  125.0540   57.0930 C   0  0  0  0  0  0  0  0  0  0  0  0
  126.7070  125.8240   56.7880 C   0  0  0  0  0  0  0  0  0  0  0  0
  128.9590  123.0360   60.3140 C   0  0  0  0  0  0  0  0  0  0  0  0
  130.3560  123.3580   60.9400 C   0  0  2  0  0  0  0  0  0  0  0  0
  130.4280  127.1040   60.1610 C   0  0  2  0  0  0  0  0  0  0  0  0
  130.4950  127.7260   58.9050 O   0  0  0  0  0  0  0  0  0  0  0  0
  131.7240  127.8290   58.3290 C   0  0  0  0  0  0  0  0  0  0  0  0
  132.1790  129.2780   58.2170 C   0  0  0  0  0  0  0  0  0  0  0  0
  132.4390  126.9070   57.9270 O   0  0  0  0  0  0  0  0  0  0  0  0
  131.6840  126.9150   60.7080 O   0  0  0  0  0  0  0  0  0  0  0  0
  131.8700  125.5570   61.0190 C   0  0  1  0  0  0  0  0  0  0  0  0
  132.6320  125.4620   62.1870 O   0  0  0  0  0  0  0  0  0  0  0  0
  133.8720  124.9090   62.0810 C   0  0  0  0  0  0  0  0  0  0  0  0
  134.1800  124.4820   60.6510 C   0  0  0  0  0  0  0  0  0  0  0  0
  134.6980  124.7510   62.9830 O   0  0  0  0  0  0  0  0  0  0  0  0
  128.5466  117.3249   62.4441 H   0  0  0  0  0  0  0  0  0  0  0  0
  128.3323  118.6886   61.1309 H   0  0  0  0  0  0  0  0  0  0  0  0
  130.9045  117.2342   62.0006 H   0  0  0  0  0  0  0  0  0  0  0  0
  132.1104  118.7261   58.6340 H   0  0  0  0  0  0  0  0  0  0  0  0
  131.5167  117.0497   59.3176 H   0  0  0  0  0  0  0  0  0  0  0  0
  132.1085  120.5930   60.6008 H   0  0  0  0  0  0  0  0  0  0  0  0
  130.4427  120.6903   59.7741 H   0  0  0  0  0  0  0  0  0  0  0  0
  129.3123  120.8509   61.7694 H   0  0  0  0  0  0  0  0  0  0  0  0
  130.8062  120.3434   62.7248 H   0  0  0  0  0  0  0  0  0  0  0  0
  132.5053  122.5353   63.4973 H   0  0  0  0  0  0  0  0  0  0  0  0
  132.8132  121.6559   61.9615 H   0  0  0  0  0  0  0  0  0  0  0  0
  132.6921  123.4481   61.9615 H   0  0  0  0  0  0  0  0  0  0  0  0
  130.5890  122.3163   64.2669 H   0  0  0  0  0  0  0  0  0  0  0  0
  128.3783  122.3408   64.8112 H   0  0  0  0  0  0  0  0  0  0  0  0
  127.8802  123.1234   63.2729 H   0  0  0  0  0  0  0  0  0  0  0  0
  128.4349  121.4149   63.2729 H   0  0  0  0  0  0  0  0  0  0  0  0
  131.2926  124.5193   63.8761 H   0  0  0  0  0  0  0  0  0  0  0  0
  130.9400  126.5209   66.7614 H   0  0  0  0  0  0  0  0  0  0  0  0
  127.9502  126.9369   67.3222 H   0  0  0  0  0  0  0  0  0  0  0  0
  127.4678  126.9829   69.8337 H   0  0  0  0  0  0  0  0  0  0  0  0
  128.2072  127.6596   72.1146 H   0  0  0  0  0  0  0  0  0  0  0  0
  131.5920  128.3860   72.8640 H   0  0  0  0  0  0  0  0  0  0  0  0
  132.1844  128.4184   70.6040 H   0  0  0  0  0  0  0  0  0  0  0  0
  131.4473  127.7462   68.3235 H   0  0  0  0  0  0  0  0  0  0  0  0
  130.1356  126.3217   62.8146 H   0  0  0  0  0  0  0  0  0  0  0  0
  127.9740  125.3490   63.3300 H   0  0  0  0  0  0  0  0  0  0  0  0
  128.7615  125.8685   58.2500 H   0  0  0  0  0  0  0  0  0  0  0  0
  129.2669  123.2183   58.1990 H   0  0  0  0  0  0  0  0  0  0  0  0
  125.4427  123.2160   55.9553 H   0  0  0  0  0  0  0  0  0  0  0  0
  124.7420  123.0896   57.6365 H   0  0  0  0  0  0  0  0  0  0  0  0
  124.6436  125.3741   56.3717 H   0  0  0  0  0  0  0  0  0  0  0  0
  125.1472  125.2878   58.1353 H   0  0  0  0  0  0  0  0  0  0  0  0
  127.1928  126.1124   57.7318 H   0  0  0  0  0  0  0  0  0  0  0  0
  127.3862  125.1827   56.2071 H   0  0  0  0  0  0  0  0  0  0  0  0
  126.4692  126.7273   56.2071 H   0  0  0  0  0  0  0  0  0  0  0  0
  128.1823  123.3437   61.0296 H   0  0  0  0  0  0  0  0  0  0  0  0
  128.9491  121.9555   60.1081 H   0  0  0  0  0  0  0  0  0  0  0  0
  131.1421  123.0974   60.2160 H   0  0  0  0  0  0  0  0  0  0  0  0
  129.8078  127.7605   60.7890 H   0  0  0  0  0  0  0  0  0  0  0  0
  132.3114  129.6996   59.2243 H   0  0  0  0  0  0  0  0  0  0  0  0
  133.1340  129.3214   57.6729 H   0  0  0  0  0  0  0  0  0  0  0  0
  131.4202  129.8596   57.6729 H   0  0  0  0  0  0  0  0  0  0  0  0
  132.4078  125.0187   60.2246 H   0  0  0  0  0  0  0  0  0  0  0  0
  134.8235  123.5899   60.6652 H   0  0  0  0  0  0  0  0  0  0  0  0
  133.2410  124.2485   60.1278 H   0  0  0  0  0  0  0  0  0  0  0  0
  134.6979  125.2993   60.1278 H   0  0  0  0  0  0  0  0  0  0  0  0
  1  2  2  0
  2  3  1  0
  3  4  2  0
  3  5  1  0
  5  6  1  0
  7  6  1  6
  7  8  1  0
  7  9  1  0
  9 10  1  0
  9 11  1  0
 11 12  1  0
 12 13  1  0
 13 14  2  0
 13 15  1  0
 15 16  2  0
 16 17  1  0
 17 18  2  0
 18 19  1  0
 19 20  2  0
 20 21  1  0
 20 22  1  0
 22 23  2  0
 11 24  1  0
 24 25  1  0
 24 26  1  0
 26 27  1  6
 27 28  2  0
 28 29  1  0
 29 30  1  0
 30 31  1  0
 31 32  2  0
 31 33  1  0
 33 34  1  0
 34 35  1  0
 29 36  1  0
 36 37  1  0
 27 38  1  0
 38 39  1  0
 39 40  1  0
 40 41  1  0
 40 42  2  0
 38 43  1  0
 43 44  1  0
 44 45  1  0
 45 46  1  0
 46 47  1  0
 46 48  2  0
 37  7  1  0
 23 17  1  0
 37 26  1  0
 44 26  1  0
  1 49  1  0
  1 50  1  0
  2 51  1  0
  4 52  1  0
  4 53  1  0
  5 54  1  0
  5 55  1  0
  6 56  1  0
  6 57  1  0
  8 58  1  0
  8 59  1  0
  8 60  1  0
  9 61  1  1
 10 62  1  0
 10 63  1  0
 10 64  1  0
 11 65  1  1
 15 66  1  0
 16 67  1  0
 18 68  1  0
 19 69  1  0
 21 70  1  0
 22 71  1  0
 23 72  1  0
 24 73  1  1
 25 74  1  0
 28 75  1  0
 29 76  1  6
 33 77  1  0
 33 78  1  0
 34 79  1  0
 34 80  1  0
 35 81  1  0
 35 82  1  0
 35 83  1  0
 36 84  1  0
 36 85  1  0
 37 86  1  6
 38 87  1  1
 41 88  1  0
 41 89  1  0
 41 90  1  0
 44 91  1  6
 47 92  1  0
 47 93  1  0
 47 94  1  0
M  END
>  <Binding energies>  (1) 
[-8.85]

>  <Ligand effiencies>  (1) 
[-0.177]

>  <Interactions>  (1) 
["V-A:ASP:366:CA:3210, V-B:PRO:540:CA:9855, V-B:HIS:456:CD2:9039, V-A:GLU:543:C:4902, V-B:GLU:543:CB:9878, V-B:ALA:541:CB:9864, V-B:TYR:539:CE2:9848, H-A:ARG:545:NH1:4927, H-A:TYR:531:OH:4795, V-A:LEU:475:CG:4257, H-B:TYR:539:N:9842, V-A:GLY:544:CA:4914, V-B:GLU:543:CG:9879, V-A:GLY:544:C:4912, V-B:TYR:539:C:9839, V-A:ASP:366:CG:3213, V-B:TYR:539:CZ:9849, H-B:GLU:543:OE1:9881, V-A:TYR:531:CE2:4793, V-B:TYR:531:CZ:9766, V-B:TYR:531:CE2:9765, V-B:TYR:539:CB:9843, V-A:HIS:383:CE1:3393, V-A:GLU:543:CD:4908, V-B:PRO:540:CB:9857, V-B:HIS:456:CE1:9041, H-A:GLY:454:N:4050, V-A:HIS:383:NE2:3394, V-B:PRO:540:N:9856, V-A:HIS:456:CE1:4070, V-A:ILE:369:CD1:3239, V-A:PRO:482:CB:4326, V-B:TYR:539:CD2:9846, V-A:TYR:531:CZ:4794, V-B:GLU:543:CD:9880, V-A:ASP:366:CB:3212, H-A:LYS:547:NZ:4951, H-A:ARG:545:NH2:4928, V-A:LEU:475:CD2:4259, V-A:ARG:545:CZ:4926, V-B:TYR:539:CG:9844, V-A:GLU:543:CB:4906, V-A:HIS:383:CD2:3392, V-B:LEU:363:CD1:8160, H-B:GLU:543:OE2:9882, V-A:PRO:482:CG:4327, V-B:PRO:540:C:9853, V-B:MET:535:CE:9807, V-B:ALA:541:CA:9862, H-A:GLY:544:O:4913"]

$$$$
ZINC2356782881
     RDKit          3D

 69 72  0  0  0  0  0  0  0  0999 V2000
  126.0410  124.4320   59.3590 C   0  0  0  0  0  0  0  0  0  0  0  0
  127.0820  123.5840   59.4450 C   0  0  0  0  0  0  0  0  0  0  0  0
  127.6190  122.8780   58.2050 C   0  0  0  0  0  0  0  0  0  0  0  0
  127.7660  123.3020   60.7880 C   0  0  2  0  0  0  0  0  0  0  0  0
  126.7840  123.1900   61.8020 O   0  0  0  0  0  0  0  0  0  0  0  0
  128.9120  124.2860   61.1640 C   0  0  2  0  0  0  0  0  0  0  0  0
  128.4070  125.3770   61.9420 O   0  0  0  0  0  0  0  0  0  0  0  0
  129.2210  125.8510   63.0210 C   0  0  1  0  0  0  0  0  0  0  0  0
  128.6500  127.1470   63.6520 C   0  0  0  0  0  0  0  0  0  0  0  0
  128.0550  128.1520   62.8550 C   0  0  0  0  0  0  0  0  0  0  0  0
  127.9720  127.9360   61.4910 O   0  0  0  0  0  0  0  0  0  0  0  0
  126.7110  127.6770   60.8850 C   0  0  0  0  0  0  0  0  0  0  0  0
  127.5820  129.3270   63.4640 C   0  0  0  0  0  0  0  0  0  0  0  0
  127.6910  129.5200   64.8370 C   0  0  0  0  0  0  0  0  0  0  0  0
  128.2740  128.5330   65.6250 C   0  0  0  0  0  0  0  0  0  0  0  0
  128.4250  128.6790   67.0730 C   0  0  0  0  0  0  0  0  0  0  0  0
  129.0000  127.7190   67.8200 C   0  0  0  0  0  0  0  0  0  0  0  0
  129.4960  126.4810   67.2040 C   0  0  0  0  0  0  0  0  0  0  0  0
  130.0370  125.5360   67.7740 O   0  0  0  0  0  0  0  0  0  0  0  0
  129.3390  126.3610   65.8270 O   0  0  0  0  0  0  0  0  0  0  0  0
  128.7510  127.3520   65.0420 C   0  0  0  0  0  0  0  0  0  0  0  0
  129.4760  124.6970   64.0330 C   0  0  1  0  0  0  0  0  0  0  0  0
  128.5360  123.6590   63.7930 O   0  0  0  0  0  0  0  0  0  0  0  0
  130.9060  124.1330   64.0740 C   0  0  0  0  0  0  0  0  0  0  0  0
  131.2010  122.8260   64.2360 C   0  0  0  0  0  0  0  0  0  0  0  0
  132.0170  125.1640   63.9300 C   0  0  0  0  0  0  0  0  0  0  0  0
  129.7210  124.8790   59.9980 C   0  0  0  0  0  0  0  0  0  0  0  0
  129.1130  125.7950   59.1290 C   0  0  0  0  0  0  0  0  0  0  0  0
  129.8200  126.3810   58.0640 C   0  0  0  0  0  0  0  0  0  0  0  0
  129.2790  127.2810   57.1680 O   0  0  0  0  0  0  0  0  0  0  0  0
  128.0570  126.9580   56.5140 C   0  0  0  0  0  0  0  0  0  0  0  0
  131.1640  126.0500   57.8870 C   0  0  0  0  0  0  0  0  0  0  0  0
  131.7930  125.1570   58.7520 C   0  0  0  0  0  0  0  0  0  0  0  0
  133.2110  124.8160   58.6320 C   0  0  0  0  0  0  0  0  0  0  0  0
  133.8160  124.0010   59.5150 C   0  0  0  0  0  0  0  0  0  0  0  0
  133.0660  123.4040   60.6290 C   0  0  0  0  0  0  0  0  0  0  0  0
  133.5060  122.6660   61.5070 O   0  0  0  0  0  0  0  0  0  0  0  0
  131.7080  123.6990   60.6950 O   0  0  0  0  0  0  0  0  0  0  0  0
  131.0810  124.5730   59.8090 C   0  0  0  0  0  0  0  0  0  0  0  0
  125.6645  124.9341   60.2624 H   0  0  0  0  0  0  0  0  0  0  0  0
  125.5664  124.6232   58.3853 H   0  0  0  0  0  0  0  0  0  0  0  0
  128.2588  122.0369   58.5102 H   0  0  0  0  0  0  0  0  0  0  0  0
  126.7780  122.5001   57.6051 H   0  0  0  0  0  0  0  0  0  0  0  0
  128.2077  123.5876   57.6051 H   0  0  0  0  0  0  0  0  0  0  0  0
  128.2916  122.3416   60.6814 H   0  0  0  0  0  0  0  0  0  0  0  0
  126.8730  123.9440   62.3900 H   0  0  0  0  0  0  0  0  0  0  0  0
  129.6084  123.6486   61.7285 H   0  0  0  0  0  0  0  0  0  0  0  0
  130.2054  126.1526   62.6336 H   0  0  0  0  0  0  0  0  0  0  0  0
  125.9534  127.5214   61.6672 H   0  0  0  0  0  0  0  0  0  0  0  0
  126.4217  128.5345   60.2597 H   0  0  0  0  0  0  0  0  0  0  0  0
  126.7831  126.7749   60.2597 H   0  0  0  0  0  0  0  0  0  0  0  0
  127.1174  130.1077   62.8438 H   0  0  0  0  0  0  0  0  0  0  0  0
  127.3186  130.4472   65.2969 H   0  0  0  0  0  0  0  0  0  0  0  0
  128.0602  129.5943   67.5619 H   0  0  0  0  0  0  0  0  0  0  0  0
  129.1000  127.8630   68.9059 H   0  0  0  0  0  0  0  0  0  0  0  0
  129.3447  125.1441   65.0294 H   0  0  0  0  0  0  0  0  0  0  0  0
  127.7100  124.0580   63.5100 H   0  0  0  0  0  0  0  0  0  0  0  0
  132.2506  122.4973   64.2551 H   0  0  0  0  0  0  0  0  0  0  0  0
  130.3919  122.0894   64.3489 H   0  0  0  0  0  0  0  0  0  0  0  0
  132.3565  125.4790   64.9278 H   0  0  0  0  0  0  0  0  0  0  0  0
  132.8596  124.7206   63.3791 H   0  0  0  0  0  0  0  0  0  0  0  0
  131.6377  126.0373   63.3791 H   0  0  0  0  0  0  0  0  0  0  0  0
  128.0572  126.0621   59.2837 H   0  0  0  0  0  0  0  0  0  0  0  0
  127.2814  126.7530   57.2666 H   0  0  0  0  0  0  0  0  0  0  0  0
  127.7430  127.8040   55.8850 H   0  0  0  0  0  0  0  0  0  0  0  0
  128.2021  126.0674   55.8850 H   0  0  0  0  0  0  0  0  0  0  0  0
  131.7315  126.4977   57.0578 H   0  0  0  0  0  0  0  0  0  0  0  0
  133.7959  125.2359   57.8004 H   0  0  0  0  0  0  0  0  0  0  0  0
  134.8872  123.7783   59.4016 H   0  0  0  0  0  0  0  0  0  0  0  0
  1  2  2  0
  2  3  1  0
  2  4  1  0
  4  5  1  0
  4  6  1  0
  6  7  1  0
  7  8  1  0
  8  9  1  0
  9 10  2  0
 10 11  1  0
 11 12  1  0
 10 13  1  0
 13 14  2  0
 14 15  1  0
 15 16  1  0
 16 17  2  0
 17 18  1  0
 18 19  2  0
 18 20  1  0
 20 21  1  0
  8 22  1  0
 22 23  1  0
 22 24  1  0
 24 25  2  0
 24 26  1  0
  6 27  1  0
 27 28  2  0
 28 29  1  0
 29 30  1  0
 30 31  1  0
 29 32  2  0
 32 33  1  0
 33 34  1  0
 34 35  2  0
 35 36  1  0
 36 37  2  0
 36 38  1  0
 38 39  1  0
 21  9  1  0
 39 27  1  0
 21 15  2  0
 39 33  2  0
  1 40  1  0
  1 41  1  0
  3 42  1  0
  3 43  1  0
  3 44  1  0
  4 45  1  6
  5 46  1  0
  6 47  1  1
  8 48  1  6
 12 49  1  0
 12 50  1  0
 12 51  1  0
 13 52  1  0
 14 53  1  0
 16 54  1  0
 17 55  1  0
 22 56  1  1
 23 57  1  0
 25 58  1  0
 25 59  1  0
 26 60  1  0
 26 61  1  0
 26 62  1  0
 28 63  1  0
 31 64  1  0
 31 65  1  0
 31 66  1  0
 32 67  1  0
 34 68  1  0
 35 69  1  0
M  END
>  <Binding energies>  (1) 
[-6.66]

>  <Ligand effiencies>  (1) 
[-0.1624390243902439]

>  <Interactions>  (1) 
["V-A:ILE:369:CG2:3237, V-A:ASP:366:CA:3210, V-B:PRO:540:CA:9855, V-A:ILE:369:CB:3236, V-B:GLU:543:CB:9878, V-B:ASP:366:CG:8184, H-A:TYR:531:OH:4795, V-A:TYR:484:CE2:4346, V-B:TYR:539:CE2:9848, V-B:GLU:543:CG:9879, V-B:TYR:539:C:9839, V-A:ASP:366:CG:3213, V-B:TYR:539:CZ:9849, H-B:GLU:543:OE1:9881, H-B:ALA:541:N:9863, V-A:TYR:484:CZ:4347, V-A:GLU:543:CD:4908, V-B:PRO:540:CB:9857, V-B:HIS:456:CE1:9041, V-B:PRO:540:N:9856, V-A:ILE:369:CD1:3239, V-A:ASP:366:C:3208, V-B:TYR:539:CD2:9846, V-A:GLU:543:CG:4907, V-B:GLU:543:CD:9880, V-A:ASP:366:CB:3212, V-A:LEU:475:CD2:4259, V-A:ARG:545:CZ:4926, V-A:GLU:543:CB:4906, H-B:GLU:543:OE2:9882"]

$$$$
ZINC2356786967
     RDKit          3D

 46 46  0  0  0  0  0  0  0  0999 V2000
  128.5940  122.1400   60.1010 C   0  0  0  0  0  0  0  0  0  0  0  0
  127.8940  122.9880   59.2000 O   0  0  0  0  0  0  0  0  0  0  0  0
  126.5210  123.2230   59.5230 C   0  0  1  0  0  0  0  0  0  0  0  0
  126.3700  123.9890   60.8580 C   0  0  1  0  0  0  0  0  0  0  0  0
  126.7170  123.2250   61.9990 O   0  0  0  0  0  0  0  0  0  0  0  0
  126.9460  125.4400   60.7990 C   0  0  1  0  0  0  0  0  0  0  0  0
  128.4880  125.5920   60.7770 C   0  0  0  0  0  0  0  0  0  0  0  0
  129.1680  125.5650   62.1450 C   0  0  0  0  0  0  0  0  0  0  0  0
  129.1770  125.7990   59.6270 C   0  0  0  0  0  0  0  0  0  0  0  0
  130.6190  125.9290   59.4850 C   0  0  0  0  0  0  0  0  0  0  0  0
  131.2770  125.5360   58.3800 C   0  0  0  0  0  0  0  0  0  0  0  0
  132.7830  125.6310   58.1850 C   0  0  2  0  0  0  0  0  0  0  0  0
  133.0200  125.8520   56.8070 O   0  0  0  0  0  0  0  0  0  0  0  0
  133.5820  124.3890   58.6630 C   0  0  1  0  0  0  0  0  0  0  0  0
  132.8110  123.5200   59.6730 C   0  0  0  0  0  0  0  0  0  0  0  0
  133.9780  123.5700   57.5760 O   0  0  0  0  0  0  0  0  0  0  0  0
  126.2970  126.1120   59.7050 O   0  0  0  0  0  0  0  0  0  0  0  0
  126.4050  125.5040   58.4070 C   0  0  0  0  0  0  0  0  0  0  0  0
  125.8650  124.0570   58.3970 C   0  0  1  0  0  0  0  0  0  0  0  0
  126.0050  123.4030   57.0080 C   0  0  0  0  0  0  0  0  0  0  0  0
  128.3561  122.4282   61.1356 H   0  0  0  0  0  0  0  0  0  0  0  0
  128.2911  121.0961   59.9323 H   0  0  0  0  0  0  0  0  0  0  0  0
  129.6764  122.2396   59.9323 H   0  0  0  0  0  0  0  0  0  0  0  0
  126.0280  122.2449   59.6247 H   0  0  0  0  0  0  0  0  0  0  0  0
  125.2914  124.1496   61.0026 H   0  0  0  0  0  0  0  0  0  0  0  0
  126.5230  123.7410   62.7840 H   0  0  0  0  0  0  0  0  0  0  0  0
  126.7166  125.9160   61.7638 H   0  0  0  0  0  0  0  0  0  0  0  0
  128.4034  125.5954   62.9352 H   0  0  0  0  0  0  0  0  0  0  0  0
  129.7595  124.6427   62.2423 H   0  0  0  0  0  0  0  0  0  0  0  0
  129.8307  126.4375   62.2423 H   0  0  0  0  0  0  0  0  0  0  0  0
  128.5828  125.8768   58.7046 H   0  0  0  0  0  0  0  0  0  0  0  0
  131.1940  126.3662   60.3146 H   0  0  0  0  0  0  0  0  0  0  0  0
  130.6824  125.1146   57.5560 H   0  0  0  0  0  0  0  0  0  0  0  0
  133.1432  126.4582   58.8142 H   0  0  0  0  0  0  0  0  0  0  0  0
  133.8800  125.4870   56.5860 H   0  0  0  0  0  0  0  0  0  0  0  0
  134.4686  124.8011   59.1672 H   0  0  0  0  0  0  0  0  0  0  0  0
  133.0789  123.8220   60.6962 H   0  0  0  0  0  0  0  0  0  0  0  0
  131.7297  123.6546   59.5222 H   0  0  0  0  0  0  0  0  0  0  0  0
  133.0734  122.4624   59.5222 H   0  0  0  0  0  0  0  0  0  0  0  0
  134.3560  124.1340   56.8970 H   0  0  0  0  0  0  0  0  0  0  0  0
  125.8291  126.1026   57.6858 H   0  0  0  0  0  0  0  0  0  0  0  0
  127.4706  125.4700   58.1363 H   0  0  0  0  0  0  0  0  0  0  0  0
  124.7854  124.0900   58.6052 H   0  0  0  0  0  0  0  0  0  0  0  0
  126.2339  122.3337   57.1276 H   0  0  0  0  0  0  0  0  0  0  0  0
  125.0623  123.5163   56.4527 H   0  0  0  0  0  0  0  0  0  0  0  0
  126.8187  123.8923   56.4527 H   0  0  0  0  0  0  0  0  0  0  0  0
  1  2  1  0
  2  3  1  0
  3  4  1  0
  4  5  1  0
  4  6  1  0
  6  7  1  0
  7  8  1  0
  7  9  2  0
  9 10  1  0
 10 11  2  0
 11 12  1  0
 12 13  1  0
 12 14  1  0
 14 15  1  0
 14 16  1  0
  6 17  1  0
 17 18  1  0
 18 19  1  0
 19 20  1  0
 19  3  1  0
  1 21  1  0
  1 22  1  0
  1 23  1  0
  3 24  1  1
  4 25  1  1
  5 26  1  0
  6 27  1  1
  8 28  1  0
  8 29  1  0
  8 30  1  0
  9 31  1  0
 10 32  1  0
 11 33  1  0
 12 34  1  1
 13 35  1  0
 14 36  1  1
 15 37  1  0
 15 38  1  0
 15 39  1  0
 16 40  1  0
 18 41  1  0
 18 42  1  0
 19 43  1  1
 20 44  1  0
 20 45  1  0
 20 46  1  0
M  END
>  <Binding energies>  (1) 
[-5.73]

>  <Ligand effiencies>  (1) 
[-0.2491304347826087]

>  <Interactions>  (1) 
["V-A:ILE:369:CG2:3237, V-A:ASP:366:CA:3210, V-B:PRO:540:CA:9855, V-A:ILE:369:CB:3236, H-A:TYR:531:OH:4795, V-B:TYR:539:CE2:9848, H-B:ALA:541:O:9861, V-B:TYR:539:C:9839, V-A:ASP:366:CG:3213, V-B:TYR:539:CZ:9849, H-B:GLU:543:OE1:9881, H-A:ASN:370:N:3244, H-B:TYR:539:OH:9850, H-B:ALA:541:N:9863, V-B:PRO:540:CB:9857, V-B:PRO:540:N:9856, V-A:ASP:366:C:3208, V-B:TYR:539:CD2:9846, V-A:ASP:366:CB:3212, H-A:ASP:366:O:3209, V-B:PRO:540:C:9853, V-B:MET:535:CE:9807"]

$$$$
ZINC2356790964
     RDKit          3D

 35 34  0  0  0  0  0  0  0  0999 V2000
  130.1110  117.5250   61.2660 C   0  0  0  0  0  0  0  0  0  0  0  0
  130.6280  118.9250   60.9100 C   0  0  0  0  0  0  0  0  0  0  0  0
  129.8400  120.0510   61.6080 C   0  0  0  0  0  0  0  0  0  0  0  0
  130.4410  121.4580   61.3860 C   0  0  1  0  0  0  0  0  0  0  0  0
  131.8540  121.4300   60.7430 C   0  0  0  0  0  0  0  0  0  0  0  0
  132.6660  122.7370   60.8870 C   0  0  1  0  0  0  0  0  0  0  0  0
  133.5340  122.7620   62.1680 C   0  0  0  0  0  0  0  0  0  0  0  0
  134.3540  124.3320   62.4040 Cl  0  0  0  0  0  0  0  0  0  0  0  0
  133.4650  122.9150   59.7130 O   0  0  0  0  0  0  0  0  0  0  0  0
  133.2630  123.9450   58.8620 C   0  0  0  0  0  0  0  0  0  0  0  0
  132.4270  125.0550   59.4860 C   0  0  0  0  0  0  0  0  0  0  0  0
  133.6870  124.0320   57.7080 O   0  0  0  0  0  0  0  0  0  0  0  0
  129.5450  122.1930   60.5490 O   0  0  0  0  0  0  0  0  0  0  0  0
  128.3270  122.5940   60.9810 C   0  0  0  0  0  0  0  0  0  0  0  0
  127.7630  122.2180   62.0110 O   0  0  0  0  0  0  0  0  0  0  0  0
  127.6770  123.5980   60.0330 C   0  0  0  0  0  0  0  0  0  0  0  0
  127.6560  122.8490   58.1870 Br  0  0  0  0  0  0  0  0  0  0  0  0
  125.8330  124.0030   60.6660 Br  0  0  0  0  0  0  0  0  0  0  0  0
  130.0708  117.4162   62.3599 H   0  0  0  0  0  0  0  0  0  0  0  0
  129.1032  117.3887   60.8467 H   0  0  0  0  0  0  0  0  0  0  0  0
  130.7883  116.7664   60.8467 H   0  0  0  0  0  0  0  0  0  0  0  0
  131.6835  118.9965   61.2113 H   0  0  0  0  0  0  0  0  0  0  0  0
  130.5020  119.0574   59.8253 H   0  0  0  0  0  0  0  0  0  0  0  0
  128.8109  120.0474   61.2195 H   0  0  0  0  0  0  0  0  0  0  0  0
  129.8805  119.8503   62.6888 H   0  0  0  0  0  0  0  0  0  0  0  0
  130.5623  121.9340   62.3702 H   0  0  0  0  0  0  0  0  0  0  0  0
  132.4274  120.6188   61.2155 H   0  0  0  0  0  0  0  0  0  0  0  0
  131.6967  121.2845   59.6641 H   0  0  0  0  0  0  0  0  0  0  0  0
  131.9606  123.5749   60.9888 H   0  0  0  0  0  0  0  0  0  0  0  0
  132.8878  122.5668   63.0365 H   0  0  0  0  0  0  0  0  0  0  0  0
  134.3107  121.9903   62.0622 H   0  0  0  0  0  0  0  0  0  0  0  0
  132.4814  124.9828   60.5823 H   0  0  0  0  0  0  0  0  0  0  0  0
  132.8154  126.0322   59.1632 H   0  0  0  0  0  0  0  0  0  0  0  0
  131.3805  124.9515   59.1632 H   0  0  0  0  0  0  0  0  0  0  0  0
  128.2532  124.5349   60.0189 H   0  0  0  0  0  0  0  0  0  0  0  0
  1  2  1  0
  2  3  1  0
  3  4  1  0
  4  5  1  0
  5  6  1  0
  6  7  1  0
  7  8  1  0
  6  9  1  0
  9 10  1  0
 10 11  1  0
 10 12  2  0
  4 13  1  0
 13 14  1  0
 14 15  2  0
 14 16  1  0
 16 17  1  0
 16 18  1  0
  1 19  1  0
  1 20  1  0
  1 21  1  0
  2 22  1  0
  2 23  1  0
  3 24  1  0
  3 25  1  0
  4 26  1  1
  5 27  1  0
  5 28  1  0
  6 29  1  1
  7 30  1  0
  7 31  1  0
 11 32  1  0
 11 33  1  0
 11 34  1  0
 16 35  1  0
M  END
>  <Binding energies>  (1) 
[-5.28]

>  <Ligand effiencies>  (1) 
[-0.29333333333333333]

>  <Interactions>  (1) 
["V-A:ILE:369:CG2:3237, V-B:PRO:540:CA:9855, V-A:ILE:369:CB:3236, V-B:ALA:541:CB:9864, V-B:TYR:539:CE2:9848, V-B:TYR:539:C:9839, V-A:ASP:366:CG:3213, V-B:TYR:539:CZ:9849, H-A:ASN:370:N:3244, H-B:TYR:539:OH:9850, H-B:ALA:541:N:9863, V-B:PRO:540:CB:9857, V-A:GLY:453:C:4042, V-B:PRO:540:N:9856, V-A:ILE:369:CD1:3239, V-A:PRO:482:CB:4326, V-B:TYR:539:CD2:9846, V-A:ASP:366:CB:3212, V-A:LEU:475:CD2:4259, V-A:PRO:482:CG:4327, V-A:GLY:453:CA:4044, V-B:PRO:540:C:9853, V-A:HIS:383:NE2:3394"]

$$$$
ZINC2356794954
     RDKit          3D

 89 91  0  0  0  0  0  0  0  0999 V2000
  128.7780  128.3610   68.5610 C   0  0  0  0  0  0  0  0  0  0  0  0
  128.8470  127.7500   67.3590 C   0  0  0  0  0  0  0  0  0  0  0  0
  127.9930  128.2110   66.1740 C   0  0  0  0  0  0  0  0  0  0  0  0
  127.7690  129.7380   66.1160 C   0  0  0  0  0  0  0  0  0  0  0  0
  128.3750  130.4200   64.8640 C   0  0  2  0  0  0  0  0  0  0  0  0
  128.2910  131.8280   65.0200 O   0  0  0  0  0  0  0  0  0  0  0  0
  127.7220  129.9760   63.5190 C   0  0  2  0  0  0  0  0  0  0  0  0
  126.3060  129.3660   63.6620 C   0  0  0  0  0  0  0  0  0  0  0  0
  128.6530  129.0820   62.6780 C   0  0  0  0  0  0  0  0  0  0  0  0
  128.4210  129.5440   61.2600 C   0  0  0  0  0  0  0  0  0  0  0  0
  128.1420  131.0450   61.4060 C   0  0  2  0  0  0  0  0  0  0  0  0
  129.3380  132.0290   61.2060 C   0  0  0  0  0  0  0  0  0  0  0  0
  130.5520  131.3180   60.5710 C   0  0  0  0  0  0  0  0  0  0  0  0
  128.9240  133.2360   60.3350 C   0  0  0  0  0  0  0  0  0  0  0  0
  129.7710  132.5460   62.4530 O   0  0  0  0  0  0  0  0  0  0  0  0
  127.5900  131.1640   62.7240 O   0  0  0  0  0  0  0  0  0  0  0  0
  129.7260  126.5810   67.1370 C   0  0  0  0  0  0  0  0  0  0  0  0
  130.6530  126.3130   67.9040 O   0  0  0  0  0  0  0  0  0  0  0  0
  129.4940  125.6840   65.9010 C   0  0  0  0  0  0  0  0  0  0  0  0
  129.7620  126.3270   64.5190 C   0  0  0  0  0  0  0  0  0  0  0  0
  131.1240  125.9490   63.8770 C   0  0  2  0  0  0  0  0  0  0  0  0
  130.8690  125.3760   62.5920 O   0  0  0  0  0  0  0  0  0  0  0  0
  132.0170  125.1360   61.7680 C   0  0  2  0  0  0  0  0  0  0  0  0
  131.5400  124.6090   60.3740 C   0  0  2  0  0  0  0  0  0  0  0  0
  132.6840  124.4940   59.3410 C   0  0  0  0  0  0  0  0  0  0  0  0
  130.4110  125.4860   59.7530 C   0  0  0  0  0  0  0  0  0  0  0  0
  129.0570  125.2960   60.4500 C   0  0  0  0  0  0  0  0  0  0  0  0
  128.6880  123.8060   60.4200 C   0  0  2  0  0  0  0  0  0  0  0  0
  126.9540  123.5920   61.3920 Br  0  0  0  0  0  0  0  0  0  0  0  0
  129.7830  122.8900   61.0480 C   0  0  0  0  0  0  0  0  0  0  0  0
  129.8250  122.9730   62.5940 C   0  0  0  0  0  0  0  0  0  0  0  0
  129.5700  121.4430   60.5590 C   0  0  0  0  0  0  0  0  0  0  0  0
  131.0530  123.2480   60.4580 O   0  0  0  0  0  0  0  0  0  0  0  0
  133.0210  124.2080   62.5070 C   0  0  0  0  0  0  0  0  0  0  0  0
  133.2840  124.6770   63.9510 C   0  0  0  0  0  0  0  0  0  0  0  0
  131.9690  124.9430   64.7200 C   0  0  2  0  0  0  0  0  0  0  0  0
  131.2060  123.6180   64.9840 C   0  0  0  0  0  0  0  0  0  0  0  0
  132.2920  125.4580   65.9990 O   0  0  0  0  0  0  0  0  0  0  0  0
  129.4035  128.0080   69.3941 H   0  0  0  0  0  0  0  0  0  0  0  0
  128.0963  129.2118   68.7072 H   0  0  0  0  0  0  0  0  0  0  0  0
  128.4935  127.8995   65.2453 H   0  0  0  0  0  0  0  0  0  0  0  0
  127.0024  127.7490   66.2975 H   0  0  0  0  0  0  0  0  0  0  0  0
  126.6856  129.9285   66.1226 H   0  0  0  0  0  0  0  0  0  0  0  0
  128.2817  130.1668   66.9897 H   0  0  0  0  0  0  0  0  0  0  0  0
  129.4244  130.0973   64.7967 H   0  0  0  0  0  0  0  0  0  0  0  0
  128.4660  132.2400   64.1710 H   0  0  0  0  0  0  0  0  0  0  0  0
  126.0587  129.2594   64.7285 H   0  0  0  0  0  0  0  0  0  0  0  0
  125.5714  130.0275   63.1795 H   0  0  0  0  0  0  0  0  0  0  0  0
  126.2821  128.3777   63.1795 H   0  0  0  0  0  0  0  0  0  0  0  0
  129.7035  129.2280   62.9697 H   0  0  0  0  0  0  0  0  0  0  0  0
  128.4458  128.0102   62.8130 H   0  0  0  0  0  0  0  0  0  0  0  0
  129.3127  129.3695   60.6400 H   0  0  0  0  0  0  0  0  0  0  0  0
  127.5997  129.0045   60.7655 H   0  0  0  0  0  0  0  0  0  0  0  0
  127.4789  131.3579   60.5860 H   0  0  0  0  0  0  0  0  0  0  0  0
  131.2085  130.9335   61.3654 H   0  0  0  0  0  0  0  0  0  0  0  0
  130.2024  130.4819   59.9475 H   0  0  0  0  0  0  0  0  0  0  0  0
  131.1102  132.0319   59.9475 H   0  0  0  0  0  0  0  0  0  0  0  0
  128.6360  134.0755   60.9849 H   0  0  0  0  0  0  0  0  0  0  0  0
  129.7702  133.5373   59.7000 H   0  0  0  0  0  0  0  0  0  0  0  0
  128.0710  132.9545   59.7000 H   0  0  0  0  0  0  0  0  0  0  0  0
  129.4050  131.9990   63.1510 H   0  0  0  0  0  0  0  0  0  0  0  0
  130.1532  124.8085   65.9954 H   0  0  0  0  0  0  0  0  0  0  0  0
  128.4191  125.4507   65.9092 H   0  0  0  0  0  0  0  0  0  0  0  0
  128.9615  126.0111   63.8338 H   0  0  0  0  0  0  0  0  0  0  0  0
  129.7890  127.4142   64.6839 H   0  0  0  0  0  0  0  0  0  0  0  0
  131.7170  126.8733   63.8137 H   0  0  0  0  0  0  0  0  0  0  0  0
  132.5740  126.0646   61.5747 H   0  0  0  0  0  0  0  0  0  0  0  0
  133.6450  124.3974   59.8674 H   0  0  0  0  0  0  0  0  0  0  0  0
  132.5207  123.6077   58.7102 H   0  0  0  0  0  0  0  0  0  0  0  0
  132.7004  125.3950   58.7102 H   0  0  0  0  0  0  0  0  0  0  0  0
  130.7027  126.5435   59.8347 H   0  0  0  0  0  0  0  0  0  0  0  0
  130.2897  125.1751   58.7048 H   0  0  0  0  0  0  0  0  0  0  0  0
  129.1272  125.6383   61.4930 H   0  0  0  0  0  0  0  0  0  0  0  0
  128.2846  125.8822   59.9306 H   0  0  0  0  0  0  0  0  0  0  0  0
  128.6012  123.4871   59.3708 H   0  0  0  0  0  0  0  0  0  0  0  0
  129.3675  122.0690   63.0223 H   0  0  0  0  0  0  0  0  0  0  0  0
  130.8700  123.0490   62.9289 H   0  0  0  0  0  0  0  0  0  0  0  0
  129.2673  123.8600   62.9289 H   0  0  0  0  0  0  0  0  0  0  0  0
  129.4715  120.7736   61.4263 H   0  0  0  0  0  0  0  0  0  0  0  0
  128.6547  121.3924   59.9509 H   0  0  0  0  0  0  0  0  0  0  0  0
  130.4319  121.1308   59.9509 H   0  0  0  0  0  0  0  0  0  0  0  0
  132.6087  123.1885   62.5341 H   0  0  0  0  0  0  0  0  0  0  0  0
  133.9755  124.2364   61.9610 H   0  0  0  0  0  0  0  0  0  0  0  0
  133.8537  123.8984   64.4795 H   0  0  0  0  0  0  0  0  0  0  0  0
  133.8487  125.6199   63.9054 H   0  0  0  0  0  0  0  0  0  0  0  0
  131.1138  123.4578   66.0684 H   0  0  0  0  0  0  0  0  0  0  0  0
  130.2033  123.6766   64.5354 H   0  0  0  0  0  0  0  0  0  0  0  0
  131.7600  122.7802   64.5354 H   0  0  0  0  0  0  0  0  0  0  0  0
  131.8540  126.3060   66.1050 H   0  0  0  0  0  0  0  0  0  0  0  0
  1  2  2  0
  2  3  1  0
  3  4  1  0
  4  5  1  0
  5  6  1  0
  5  7  1  0
  7  8  1  1
  7  9  1  0
  9 10  1  0
 10 11  1  0
 11 12  1  0
 12 13  1  0
 12 14  1  0
 12 15  1  0
 11 16  1  0
  2 17  1  0
 17 18  2  0
 17 19  1  0
 19 20  1  0
 20 21  1  0
 21 22  1  0
 22 23  1  0
 23 24  1  0
 24 25  1  6
 24 26  1  0
 26 27  1  0
 27 28  1  0
 28 29  1  0
 28 30  1  0
 30 31  1  0
 30 32  1  0
 30 33  1  0
 23 34  1  0
 34 35  1  0
 35 36  1  0
 36 37  1  0
 36 38  1  1
 16  7  1  0
 36 21  1  0
 33 24  1  0
  1 39  1  0
  1 40  1  0
  3 41  1  0
  3 42  1  0
  4 43  1  0
  4 44  1  0
  5 45  1  6
  6 46  1  0
  8 47  1  0
  8 48  1  0
  8 49  1  0
  9 50  1  0
  9 51  1  0
 10 52  1  0
 10 53  1  0
 11 54  1  6
 13 55  1  0
 13 56  1  0
 13 57  1  0
 14 58  1  0
 14 59  1  0
 14 60  1  0
 15 61  1  0
 19 62  1  0
 19 63  1  0
 20 64  1  0
 20 65  1  0
 21 66  1  6
 23 67  1  6
 25 68  1  0
 25 69  1  0
 25 70  1  0
 26 71  1  0
 26 72  1  0
 27 73  1  0
 27 74  1  0
 28 75  1  6
 31 76  1  0
 31 77  1  0
 31 78  1  0
 32 79  1  0
 32 80  1  0
 32 81  1  0
 34 82  1  0
 34 83  1  0
 35 84  1  0
 35 85  1  0
 37 86  1  0
 37 87  1  0
 37 88  1  0
 38 89  1  0
M  END
>  <Binding energies>  (1) 
[-7.68]

>  <Ligand effiencies>  (1) 
[-0.1873170731707317]

>  <Interactions>  (1) 
["V-B:PRO:540:CA:9855, H-A:GLU:543:OE2:4910, H-A:ALA:541:N:4891, V-B:GLU:543:CB:9878, V-B:TYR:539:CE2:9848, V-A:TYR:484:CE2:4346, V-B:GLU:543:CG:9879, V-B:TYR:539:C:9839, V-B:TYR:484:CE2:9317, V-A:GLU:543:CD:4908, V-A:TYR:484:CZ:4347, H-B:TYR:484:OH:9319, V-B:HIS:456:CE1:9041, V-B:TYR:484:CZ:9318, V-B:TYR:539:CD2:9846, V-A:GLU:543:CG:4907, V-B:GLU:543:CD:9880, V-A:TYR:539:C:4867, V-A:ARG:545:CZ:4926, H-A:GLU:543:OE1:4909, V-A:GLU:543:CB:4906, V-A:PRO:540:N:4884, V-A:PRO:540:CA:4883, H-A:ARG:545:NE:4924, H-A:TYR:484:OH:4348"]

$$$$
ZINC2356798762
     RDKit          3D

 98102  0  0  0  0  0  0  0  0999 V2000
  128.4430  132.3460   73.6450 C   0  0  0  0  0  0  0  0  0  0  0  0
  129.8240  131.8030   73.2970 C   0  0  0  0  0  0  0  0  0  0  0  0
  130.7270  132.5520   72.9240 O   0  0  0  0  0  0  0  0  0  0  0  0
  129.9070  130.4660   73.4490 O   0  0  0  0  0  0  0  0  0  0  0  0
  128.7320  129.6610   73.4450 C   0  0  0  0  0  0  0  0  0  0  0  0
  129.0120  128.2780   74.0740 C   0  0  1  0  0  0  0  0  0  0  0  0
  128.3810  128.1530   75.4790 C   0  0  0  0  0  0  0  0  0  0  0  0
  128.5570  127.1490   73.1190 C   0  0  0  0  0  0  0  0  0  0  0  0
  129.5500  126.8300   71.9810 C   0  0  0  0  0  0  0  0  0  0  0  0
  130.2090  128.0960   71.3920 C   0  0  0  0  0  0  0  0  0  0  0  0
  130.1880  128.2120   69.8400 C   0  0  1  0  0  0  0  0  0  0  0  0
  131.6020  127.8980   69.2920 C   0  0  0  0  0  0  0  0  0  0  0  0
  129.0200  127.3950   69.1800 C   0  0  2  0  0  0  0  0  0  0  0  0
  129.3950  125.9450   68.7600 C   0  0  0  0  0  0  0  0  0  0  0  0
  129.2720  125.8620   67.2260 C   0  0  0  0  0  0  0  0  0  0  0  0
  129.0510  127.3100   66.7740 C   0  0  1  0  0  0  0  0  0  0  0  0
  128.4050  127.5890   65.3900 C   0  0  2  0  0  0  0  0  0  0  0  0
  129.1690  126.8440   64.2640 C   0  0  0  0  0  0  0  0  0  0  0  0
  128.7390  127.2680   62.8520 C   0  0  0  0  0  0  0  0  0  0  0  0
  128.4990  126.4430   61.9710 O   0  0  0  0  0  0  0  0  0  0  0  0
  128.6400  128.8010   62.6520 C   0  0  1  0  0  0  0  0  0  0  0  0
  128.2300  129.1780   61.2000 C   0  0  0  0  0  0  0  0  0  0  0  0
  128.3210  130.7030   61.0120 C   0  0  1  0  0  0  0  0  0  0  0  0
  127.9460  131.0360   59.6750 O   0  0  0  0  0  0  0  0  0  0  0  0
  128.9330  130.8930   58.6970 C   0  0  2  0  0  0  0  0  0  0  0  0
  130.0800  130.2600   59.2170 O   0  0  0  0  0  0  0  0  0  0  0  0
  131.0790  130.0370   58.2170 C   0  0  0  0  0  0  0  0  0  0  0  0
  131.5730  131.3660   57.6070 C   0  0  1  0  0  0  0  0  0  0  0  0
  132.5300  131.1150   56.5930 O   0  0  0  0  0  0  0  0  0  0  0  0
  130.3700  132.1760   57.0800 C   0  0  2  0  0  0  0  0  0  0  0  0
  130.7610  133.4410   56.5700 O   0  0  0  0  0  0  0  0  0  0  0  0
  129.2870  132.3000   58.1810 C   0  0  2  0  0  0  0  0  0  0  0  0
  129.6670  133.1750   59.2320 O   0  0  0  0  0  0  0  0  0  0  0  0
  127.4020  131.4260   62.0180 C   0  0  0  0  0  0  0  0  0  0  0  0
  127.7500  131.0140   63.4680 C   0  0  0  0  0  0  0  0  0  0  0  0
  127.7070  129.4710   63.7300 C   0  0  1  0  0  0  0  0  0  0  0  0
  126.2300  128.9670   63.6340 C   0  0  0  0  0  0  0  0  0  0  0  0
  128.3370  129.1370   65.1340 C   0  0  1  0  0  0  0  0  0  0  0  0
  127.7230  129.9210   66.3410 C   0  0  0  0  0  0  0  0  0  0  0  0
  128.3380  129.5140   67.7040 C   0  0  0  0  0  0  0  0  0  0  0  0
  128.2750  127.9780   67.9320 C   0  0  2  0  0  0  0  0  0  0  0  0
  126.7780  127.5300   68.0230 C   0  0  0  0  0  0  0  0  0  0  0  0
  128.3311  132.3900   74.7384 H   0  0  0  0  0  0  0  0  0  0  0  0
  128.3292  133.3558   73.2239 H   0  0  0  0  0  0  0  0  0  0  0  0
  127.6719  131.6841   73.2239 H   0  0  0  0  0  0  0  0  0  0  0  0
  127.9457  130.1678   74.0237 H   0  0  0  0  0  0  0  0  0  0  0  0
  128.4079  129.5156   72.4039 H   0  0  0  0  0  0  0  0  0  0  0  0
  130.0979  128.1741   74.2155 H   0  0  0  0  0  0  0  0  0  0  0  0
  129.1563  128.3066   76.2441 H   0  0  0  0  0  0  0  0  0  0  0  0
  127.5942  128.9127   75.5965 H   0  0  0  0  0  0  0  0  0  0  0  0
  127.9433  127.1507   75.5965 H   0  0  0  0  0  0  0  0  0  0  0  0
  128.4113  126.2349   73.7134 H   0  0  0  0  0  0  0  0  0  0  0  0
  127.6336  127.5022   72.6368 H   0  0  0  0  0  0  0  0  0  0  0  0
  130.3395  126.1740   72.3766 H   0  0  0  0  0  0  0  0  0  0  0  0
  128.9838  126.3439   71.1729 H   0  0  0  0  0  0  0  0  0  0  0  0
  129.6848  128.9714   71.8028 H   0  0  0  0  0  0  0  0  0  0  0  0
  131.2710  128.0376   71.6725 H   0  0  0  0  0  0  0  0  0  0  0  0
  129.9507  129.2464   69.5506 H   0  0  0  0  0  0  0  0  0  0  0  0
  132.2950  127.7441   70.1322 H   0  0  0  0  0  0  0  0  0  0  0  0
  131.5630  126.9866   68.6773 H   0  0  0  0  0  0  0  0  0  0  0  0
  131.9524  128.7402   68.6773 H   0  0  0  0  0  0  0  0  0  0  0  0
  128.3406  127.4481   70.0434 H   0  0  0  0  0  0  0  0  0  0  0  0
  130.4270  125.7198   69.0670 H   0  0  0  0  0  0  0  0  0  0  0  0
  128.7272  125.2163   69.2427 H   0  0  0  0  0  0  0  0  0  0  0  0
  130.1933  125.4542   66.7845 H   0  0  0  0  0  0  0  0  0  0  0  0
  128.4541  125.1980   66.9095 H   0  0  0  0  0  0  0  0  0  0  0  0
  130.0454  127.7375   66.5779 H   0  0  0  0  0  0  0  0  0  0  0  0
  127.3755  127.2014   65.3870 H   0  0  0  0  0  0  0  0  0  0  0  0
  130.2438  127.0486   64.3774 H   0  0  0  0  0  0  0  0  0  0  0  0
  128.9366  125.7738   64.3668 H   0  0  0  0  0  0  0  0  0  0  0  0
  129.6491  129.2111   62.8052 H   0  0  0  0  0  0  0  0  0  0  0  0
  128.9065  128.6813   60.4889 H   0  0  0  0  0  0  0  0  0  0  0  0
  127.1957  128.8506   61.0180 H   0  0  0  0  0  0  0  0  0  0  0  0
  129.3557  131.0287   61.1947 H   0  0  0  0  0  0  0  0  0  0  0  0
  128.5573  130.2610   57.8788 H   0  0  0  0  0  0  0  0  0  0  0  0
  131.9321  129.5142   58.6740 H   0  0  0  0  0  0  0  0  0  0  0  0
  130.6346  129.4316   57.4132 H   0  0  0  0  0  0  0  0  0  0  0  0
  132.0699  131.9673   58.3826 H   0  0  0  0  0  0  0  0  0  0  0  0
  132.5440  130.1710   56.4170 H   0  0  0  0  0  0  0  0  0  0  0  0
  129.9336  131.6288   56.2314 H   0  0  0  0  0  0  0  0  0  0  0  0
  130.7630  134.0730   57.2910 H   0  0  0  0  0  0  0  0  0  0  0  0
  128.3911  132.7587   57.7373 H   0  0  0  0  0  0  0  0  0  0  0  0
  130.2870  133.8200   58.8810 H   0  0  0  0  0  0  0  0  0  0  0  0
  127.5323  132.5129   61.9100 H   0  0  0  0  0  0  0  0  0  0  0  0
  126.3590  131.1450   61.8104 H   0  0  0  0  0  0  0  0  0  0  0  0
  128.7650  131.3731   63.6935 H   0  0  0  0  0  0  0  0  0  0  0  0
  126.9824  131.4638   64.1149 H   0  0  0  0  0  0  0  0  0  0  0  0
  125.8234  128.8282   64.6466 H   0  0  0  0  0  0  0  0  0  0  0  0
  125.6237  129.7091   63.0939 H   0  0  0  0  0  0  0  0  0  0  0  0
  126.2038  128.0091   63.0939 H   0  0  0  0  0  0  0  0  0  0  0  0
  129.3692  129.5125   65.0751 H   0  0  0  0  0  0  0  0  0  0  0  0
  127.8965  130.9960   66.1853 H   0  0  0  0  0  0  0  0  0  0  0  0
  126.6506  129.6791   66.3788 H   0  0  0  0  0  0  0  0  0  0  0  0
  129.3899  129.8346   67.7295 H   0  0  0  0  0  0  0  0  0  0  0  0
  127.7558  130.0012   68.5001 H   0  0  0  0  0  0  0  0  0  0  0  0
  126.4851  127.4423   69.0797 H   0  0  0  0  0  0  0  0  0  0  0  0
  126.1409  128.2769   67.5266 H   0  0  0  0  0  0  0  0  0  0  0  0
  126.6559  126.5560   67.5266 H   0  0  0  0  0  0  0  0  0  0  0  0
  1  2  1  0
  2  3  2  0
  2  4  1  0
  4  5  1  0
  5  6  1  0
  6  7  1  0
  6  8  1  0
  8  9  1  0
  9 10  1  0
 10 11  1  0
 11 12  1  0
 11 13  1  0
 13 14  1  0
 14 15  1  0
 15 16  1  0
 16 17  1  0
 17 18  1  0
 18 19  1  0
 19 20  2  0
 19 21  1  0
 21 22  1  0
 22 23  1  0
 23 24  1  0
 24 25  1  0
 25 26  1  0
 26 27  1  0
 27 28  1  0
 28 29  1  0
 28 30  1  0
 30 31  1  0
 30 32  1  0
 32 33  1  0
 23 34  1  0
 34 35  1  0
 35 36  1  0
 36 37  1  1
 36 38  1  0
 38 39  1  0
 39 40  1  0
 40 41  1  0
 41 42  1  1
 41 13  1  0
 41 16  1  0
 38 17  1  0
 36 21  1  0
 32 25  1  0
  1 43  1  0
  1 44  1  0
  1 45  1  0
  5 46  1  0
  5 47  1  0
  6 48  1  1
  7 49  1  0
  7 50  1  0
  7 51  1  0
  8 52  1  0
  8 53  1  0
  9 54  1  0
  9 55  1  0
 10 56  1  0
 10 57  1  0
 11 58  1  1
 12 59  1  0
 12 60  1  0
 12 61  1  0
 13 62  1  1
 14 63  1  0
 14 64  1  0
 15 65  1  0
 15 66  1  0
 16 67  1  6
 17 68  1  1
 18 69  1  0
 18 70  1  0
 21 71  1  1
 22 72  1  0
 22 73  1  0
 23 74  1  1
 25 75  1  6
 27 76  1  0
 27 77  1  0
 28 78  1  1
 29 79  1  0
 30 80  1  6
 31 81  1  0
 32 82  1  6
 33 83  1  0
 34 84  1  0
 34 85  1  0
 35 86  1  0
 35 87  1  0
 37 88  1  0
 37 89  1  0
 37 90  1  0
 38 91  1  6
 39 92  1  0
 39 93  1  0
 40 94  1  0
 40 95  1  0
 42 96  1  0
 42 97  1  0
 42 98  1  0
M  END
>  <Binding energies>  (1) 
[-7.96]

>  <Ligand effiencies>  (1) 
[-0.1768888888888889]

>  <Interactions>  (1) 
["V-A:ARG:545:CA:4919, V-A:GLU:543:CA:4904, V-B:HIS:456:CD2:9039, V-B:GLU:543:C:9874, V-A:GLU:543:C:4902, V-B:GLU:543:CB:9878, H-A:TYR:531:OH:4795, V-A:GLY:544:CA:4914, V-A:GLY:544:C:4912, V-B:GLU:543:CG:9879, V-A:HIS:456:CD2:4068, V-A:LEU:363:CD1:3189, V-B:TYR:484:CE2:9317, V-B:LYS:547:CE:9922, V-B:ARG:545:CG:9894, V-B:TYR:484:CB:9312, V-A:GLU:543:CD:4908, V-B:HIS:456:CE1:9041, V-A:ARG:545:CG:4922, V-B:GLU:543:CA:9876, V-A:HIS:456:CE1:4070, V-B:TYR:484:CZ:9318, V-A:GLU:543:CG:4907, V-B:GLU:543:CD:9880, H-A:LYS:547:NZ:4951, V-A:GLU:543:CB:4906, H-A:TYR:539:O:4868, H-A:TYR:539:N:4870, V-A:LYS:547:CE:4950, H-A:GLY:544:N:4915"]

$$$$
ZINC2356803669
     RDKit          3D

141145  0  0  0  0  0  0  0  0999 V2000
  129.1470  133.5190   58.5600 C   0  0  0  0  0  0  0  0  0  0  0  0
  129.7250  132.3110   58.7200 C   0  0  0  0  0  0  0  0  0  0  0  0
  128.9730  130.9710   58.8420 C   0  0  2  0  0  0  0  0  0  0  0  0
  127.4310  131.0810   58.6210 C   0  0  0  0  0  0  0  0  0  0  0  0
  126.5870  130.0610   59.3760 C   0  0  0  0  0  0  0  0  0  0  0  0
  126.8460  128.7490   59.5550 C   0  0  0  0  0  0  0  0  0  0  0  0
  125.9250  127.8880   60.4090 C   0  0  0  0  0  0  0  0  0  0  0  0
  128.0790  128.0420   58.9830 C   0  0  2  0  0  0  0  0  0  0  0  0
  127.9940  127.6880   57.4760 C   0  0  0  0  0  0  0  0  0  0  0  0
  129.1600  126.8510   56.9650 C   0  0  0  0  0  0  0  0  0  0  0  0
  130.4220  126.7860   57.4460 C   0  0  0  0  0  0  0  0  0  0  0  0
  131.4560  125.8710   56.8100 C   0  0  0  0  0  0  0  0  0  0  0  0
  130.9550  127.5860   58.6270 C   0  0  0  0  0  0  0  0  0  0  0  0
  128.3000  126.8850   59.7900 O   0  0  0  0  0  0  0  0  0  0  0  0
  127.5550  125.7380   59.5170 C   0  0  2  0  0  0  0  0  0  0  0  0
  127.1210  125.1460   60.7170 O   0  0  0  0  0  0  0  0  0  0  0  0
  126.2810  124.0020   60.5160 C   0  0  2  0  0  0  0  0  0  0  0  0
  125.6880  123.5710   61.8670 C   0  0  0  0  0  0  0  0  0  0  0  0
  127.0810  122.8780   59.8170 C   0  0  2  0  0  0  0  0  0  0  0  0
  128.0860  122.4070   60.7170 O   0  0  0  0  0  0  0  0  0  0  0  0
  128.2640  123.1250   61.9020 C   0  0  2  0  0  0  0  0  0  0  0  0
  129.3230  124.0450   61.7710 O   0  0  0  0  0  0  0  0  0  0  0  0
  129.4990  124.8700   62.9320 C   0  0  2  0  0  0  0  0  0  0  0  0
  130.5310  125.9640   62.6160 C   0  0  0  0  0  0  0  0  0  0  0  0
  129.8960  123.9950   64.1470 C   0  0  2  0  0  0  0  0  0  0  0  0
  131.1910  123.4390   63.9010 O   0  0  0  0  0  0  0  0  0  0  0  0
  131.5850  123.3270   62.5660 C   0  0  2  0  0  0  0  0  0  0  0  0
  131.8420  121.9810   62.2320 O   0  0  0  0  0  0  0  0  0  0  0  0
  132.1540  121.8160   60.8430 C   0  0  2  0  0  0  0  0  0  0  0  0
  132.1310  120.3180   60.4970 C   0  0  0  0  0  0  0  0  0  0  0  0
  133.5130  122.5000   60.5450 C   0  0  2  0  0  0  0  0  0  0  0  0
  134.5870  121.8650   61.2230 O   0  0  0  0  0  0  0  0  0  0  0  0
  133.3990  123.9940   60.9340 C   0  0  2  0  0  0  0  0  0  0  0  0
  134.5940  124.7200   60.6960 O   0  0  0  0  0  0  0  0  0  0  0  0
  132.8660  124.1670   62.3830 C   0  0  2  0  0  0  0  0  0  0  0  0
  133.8510  123.8810   63.3640 O   0  0  0  0  0  0  0  0  0  0  0  0
  128.8370  122.8830   64.3330 C   0  0  2  0  0  0  0  0  0  0  0  0
  129.1160  122.0380   65.4350 O   0  0  0  0  0  0  0  0  0  0  0  0
  128.5890  122.1110   63.0140 C   0  0  2  0  0  0  0  0  0  0  0  0
  129.6670  121.2530   62.6710 O   0  0  0  0  0  0  0  0  0  0  0  0
  127.7000  123.4390   58.5160 C   0  0  2  0  0  0  0  0  0  0  0  0
  128.4410  122.4750   57.7920 O   0  0  0  0  0  0  0  0  0  0  0  0
  128.4810  124.7560   58.7660 C   0  0  2  0  0  0  0  0  0  0  0  0
  129.8670  124.5690   59.4300 C   0  0  0  0  0  0  0  0  0  0  0  0
  129.3710  130.2290   60.1540 C   0  0  2  0  0  0  0  0  0  0  0  0
  128.7010  130.8180   61.3930 C   0  0  0  0  0  0  0  0  0  0  0  0
  128.3700  130.1680   62.5340 C   0  0  0  0  0  0  0  0  0  0  0  0
  128.6740  128.6890   62.7660 C   0  0  0  0  0  0  0  0  0  0  0  0
  127.6870  130.8600   63.7230 C   0  0  2  0  0  0  0  0  0  0  0  0
  128.6930  131.4310   64.5410 O   0  0  0  0  0  0  0  0  0  0  0  0
  126.7440  129.9930   64.5940 C   0  0  0  0  0  0  0  0  0  0  0  0
  127.4400  128.8560   65.3310 C   0  0  0  0  0  0  0  0  0  0  0  0
  128.0930  128.9180   66.5120 C   0  0  0  0  0  0  0  0  0  0  0  0
  128.7150  127.6790   67.1340 C   0  0  0  0  0  0  0  0  0  0  0  0
  128.2950  130.1900   67.3230 C   0  0  0  0  0  0  0  0  0  0  0  0
  130.8950  130.1170   60.3680 C   0  0  0  0  0  0  0  0  0  0  0  0
  131.4080  129.0520   60.7150 O   0  0  0  0  0  0  0  0  0  0  0  0
  131.7310  131.4030   60.0790 C   0  0  1  0  0  0  0  0  0  0  0  0
  131.7040  132.2860   61.3560 C   0  0  0  0  0  0  0  0  0  0  0  0
  133.2020  131.0880   59.6910 C   0  0  0  0  0  0  0  0  0  0  0  0
  133.2220  130.8350   58.1750 C   0  0  0  0  0  0  0  0  0  0  0  0
  131.9400  131.4640   57.6120 C   0  0  0  0  0  0  0  0  0  0  0  0
  131.2500  132.1560   58.8050 C   0  0  1  0  0  0  0  0  0  0  0  0
  129.7712  134.4214   58.4825 H   0  0  0  0  0  0  0  0  0  0  0  0
  128.0514  133.6018   58.5070 H   0  0  0  0  0  0  0  0  0  0  0  0
  129.3037  130.3432   58.0015 H   0  0  0  0  0  0  0  0  0  0  0  0
  127.1137  132.0853   58.9384 H   0  0  0  0  0  0  0  0  0  0  0  0
  127.2634  130.8809   57.5524 H   0  0  0  0  0  0  0  0  0  0  0  0
  125.6579  130.4386   59.8279 H   0  0  0  0  0  0  0  0  0  0  0  0
  126.1281  128.0779   61.4733 H   0  0  0  0  0  0  0  0  0  0  0  0
  124.8774  128.1382   60.1853 H   0  0  0  0  0  0  0  0  0  0  0  0
  126.1042  126.8260   60.1853 H   0  0  0  0  0  0  0  0  0  0  0  0
  128.9295  128.7385   59.0234 H   0  0  0  0  0  0  0  0  0  0  0  0
  127.0644  127.1251   57.3056 H   0  0  0  0  0  0  0  0  0  0  0  0
  128.0225  128.6398   56.9253 H   0  0  0  0  0  0  0  0  0  0  0  0
  128.9476  126.2173   56.0913 H   0  0  0  0  0  0  0  0  0  0  0  0
  132.0303  125.3628   57.5986 H   0  0  0  0  0  0  0  0  0  0  0  0
  130.9477  125.1215   56.1856 H   0  0  0  0  0  0  0  0  0  0  0  0
  132.1381  126.4667   56.1856 H   0  0  0  0  0  0  0  0  0  0  0  0
  130.6374  127.1093   59.5661 H   0  0  0  0  0  0  0  0  0  0  0  0
  132.0538  127.6153   58.5840 H   0  0  0  0  0  0  0  0  0  0  0  0
  130.5589  128.6113   58.5840 H   0  0  0  0  0  0  0  0  0  0  0  0
  126.6701  125.9891   58.9137 H   0  0  0  0  0  0  0  0  0  0  0  0
  125.4398  124.2471   59.8510 H   0  0  0  0  0  0  0  0  0  0  0  0
  126.2839  124.0041   62.6839 H   0  0  0  0  0  0  0  0  0  0  0  0
  124.6498  123.9267   61.9420 H   0  0  0  0  0  0  0  0  0  0  0  0
  125.7059  122.4737   61.9420 H   0  0  0  0  0  0  0  0  0  0  0  0
  126.4291  122.0332   59.5498 H   0  0  0  0  0  0  0  0  0  0  0  0
  127.3523  123.6921   62.1410 H   0  0  0  0  0  0  0  0  0  0  0  0
  128.5572  125.3705   63.2013 H   0  0  0  0  0  0  0  0  0  0  0  0
  130.9236  126.3801   63.5555 H   0  0  0  0  0  0  0  0  0  0  0  0
  131.3574  125.5312   62.0331 H   0  0  0  0  0  0  0  0  0  0  0  0
  130.0507  126.7638   62.0331 H   0  0  0  0  0  0  0  0  0  0  0  0
  129.9354  124.5935   65.0691 H   0  0  0  0  0  0  0  0  0  0  0  0
  130.7827  123.6891   61.9063 H   0  0  0  0  0  0  0  0  0  0  0  0
  131.4048  122.3022   60.2008 H   0  0  0  0  0  0  0  0  0  0  0  0
  132.1219  119.7274   61.4250 H   0  0  0  0  0  0  0  0  0  0  0  0
  131.2293  120.0912   59.9092 H   0  0  0  0  0  0  0  0  0  0  0  0
  133.0253  120.0637   59.9092 H   0  0  0  0  0  0  0  0  0  0  0  0
  133.7389  122.4106   59.4722 H   0  0  0  0  0  0  0  0  0  0  0  0
  134.6580  122.2500   62.0990 H   0  0  0  0  0  0  0  0  0  0  0  0
  132.6504  124.4406   60.2631 H   0  0  0  0  0  0  0  0  0  0  0  0
  134.9070  125.0780   61.5310 H   0  0  0  0  0  0  0  0  0  0  0  0
  132.6106  125.2261   62.5348 H   0  0  0  0  0  0  0  0  0  0  0  0
  133.4280  123.4070   64.0850 H   0  0  0  0  0  0  0  0  0  0  0  0
  127.8883  123.3778   64.5883 H   0  0  0  0  0  0  0  0  0  0  0  0
  130.0640  121.8870   65.4690 H   0  0  0  0  0  0  0  0  0  0  0  0
  127.7286  121.4393   63.1500 H   0  0  0  0  0  0  0  0  0  0  0  0
  130.4340  121.5130   63.1870 H   0  0  0  0  0  0  0  0  0  0  0  0
  126.8590  123.7009   57.8571 H   0  0  0  0  0  0  0  0  0  0  0  0
  128.7030  121.7750   58.3950 H   0  0  0  0  0  0  0  0  0  0  0  0
  128.7496  125.1880   57.7907 H   0  0  0  0  0  0  0  0  0  0  0  0
  129.7544  124.5842   60.5241 H   0  0  0  0  0  0  0  0  0  0  0  0
  130.2956  123.6049   59.1188 H   0  0  0  0  0  0  0  0  0  0  0  0
  130.5358  125.3851   59.1188 H   0  0  0  0  0  0  0  0  0  0  0  0
  128.9907  129.2065   60.0133 H   0  0  0  0  0  0  0  0  0  0  0  0
  128.4601  131.8906   61.3546 H   0  0  0  0  0  0  0  0  0  0  0  0
  128.7153  128.4883   63.8467 H   0  0  0  0  0  0  0  0  0  0  0  0
  127.8831  128.0760   62.3092 H   0  0  0  0  0  0  0  0  0  0  0  0
  129.6426  128.4377   62.3092 H   0  0  0  0  0  0  0  0  0  0  0  0
  127.0157  131.6066   63.2736 H   0  0  0  0  0  0  0  0  0  0  0  0
  129.5350  131.0330   64.3080 H   0  0  0  0  0  0  0  0  0  0  0  0
  126.2668  130.6458   65.3398 H   0  0  0  0  0  0  0  0  0  0  0  0
  126.0210  129.5276   63.9080 H   0  0  0  0  0  0  0  0  0  0  0  0
  127.4071  127.8697   64.8450 H   0  0  0  0  0  0  0  0  0  0  0  0
  128.6746  127.7594   68.2303 H   0  0  0  0  0  0  0  0  0  0  0  0
  128.1577  126.7874   66.8110 H   0  0  0  0  0  0  0  0  0  0  0  0
  129.7630  127.5933   66.8110 H   0  0  0  0  0  0  0  0  0  0  0  0
  128.2570  129.9507   68.3960 H   0  0  0  0  0  0  0  0  0  0  0  0
  129.2740  130.6285   67.0796 H   0  0  0  0  0  0  0  0  0  0  0  0
  127.5000  130.9102   67.0796 H   0  0  0  0  0  0  0  0  0  0  0  0
  131.7237  131.6420   62.2476 H   0  0  0  0  0  0  0  0  0  0  0  0
  132.5823  132.9482   61.3625 H   0  0  0  0  0  0  0  0  0  0  0  0
  130.7869  132.8933   61.3625 H   0  0  0  0  0  0  0  0  0  0  0  0
  133.8496  131.9415   59.9402 H   0  0  0  0  0  0  0  0  0  0  0  0
  133.5739  130.2107   60.2406 H   0  0  0  0  0  0  0  0  0  0  0  0
  134.1070  131.3062   57.7226 H   0  0  0  0  0  0  0  0  0  0  0  0
  133.2688  129.7590   57.9516 H   0  0  0  0  0  0  0  0  0  0  0  0
  132.1854  132.2001   56.8323 H   0  0  0  0  0  0  0  0  0  0  0  0
  131.2876  130.7077   57.1511 H   0  0  0  0  0  0  0  0  0  0  0  0
  131.5512  133.2139   58.8180 H   0  0  0  0  0  0  0  0  0  0  0  0
  1  2  2  0
  2  3  1  0
  3  4  1  0
  4  5  1  0
  5  6  2  0
  6  7  1  0
  6  8  1  0
  8  9  1  0
  9 10  1  0
 10 11  2  3
 11 12  1  0
 11 13  1  0
  8 14  1  0
 14 15  1  0
 15 16  1  0
 16 17  1  0
 17 18  1  0
 17 19  1  0
 19 20  1  0
 20 21  1  0
 21 22  1  0
 22 23  1  0
 23 24  1  0
 23 25  1  0
 25 26  1  0
 26 27  1  0
 27 28  1  0
 28 29  1  0
 29 30  1  0
 29 31  1  0
 31 32  1  0
 31 33  1  0
 33 34  1  0
 33 35  1  0
 35 36  1  0
 25 37  1  0
 37 38  1  0
 37 39  1  0
 39 40  1  0
 19 41  1  0
 41 42  1  0
 41 43  1  0
 43 44  1  0
  3 45  1  0
 45 46  1  0
 46 47  2  0
 47 48  1  0
 47 49  1  0
 49 50  1  0
 49 51  1  0
 51 52  1  0
 52 53  2  3
 53 54  1  0
 53 55  1  0
 45 56  1  0
 56 57  2  0
 56 58  1  0
 58 59  1  1
 58 60  1  0
 60 61  1  0
 61 62  1  0
 62 63  1  0
 63  2  1  0
 43 15  1  0
 63 58  1  0
 39 21  1  0
 35 27  1  0
  1 64  1  0
  1 65  1  0
  3 66  1  6
  4 67  1  0
  4 68  1  0
  5 69  1  0
  7 70  1  0
  7 71  1  0
  7 72  1  0
  8 73  1  6
  9 74  1  0
  9 75  1  0
 10 76  1  0
 12 77  1  0
 12 78  1  0
 12 79  1  0
 13 80  1  0
 13 81  1  0
 13 82  1  0
 15 83  1  6
 17 84  1  6
 18 85  1  0
 18 86  1  0
 18 87  1  0
 19 88  1  6
 21 89  1  1
 23 90  1  1
 24 91  1  0
 24 92  1  0
 24 93  1  0
 25 94  1  1
 27 95  1  6
 29 96  1  6
 30 97  1  0
 30 98  1  0
 30 99  1  0
 31100  1  6
 32101  1  0
 33102  1  6
 34103  1  0
 35104  1  6
 36105  1  0
 37106  1  1
 38107  1  0
 39108  1  1
 40109  1  0
 41110  1  6
 42111  1  0
 43112  1  6
 44113  1  0
 44114  1  0
 44115  1  0
 45116  1  6
 46117  1  0
 48118  1  0
 48119  1  0
 48120  1  0
 49121  1  6
 50122  1  0
 51123  1  0
 51124  1  0
 52125  1  0
 54126  1  0
 54127  1  0
 54128  1  0
 55129  1  0
 55130  1  0
 55131  1  0
 59132  1  0
 59133  1  0
 59134  1  0
 60135  1  0
 60136  1  0
 61137  1  0
 61138  1  0
 62139  1  0
 62140  1  0
 63141  1  1
M  END
>  <Binding energies>  (1) 
[-5.66]

>  <Ligand effiencies>  (1) 
[-0.08085714285714286]

>  <Interactions>  (1) 
["V-A:ILE:369:CG2:3237, V-B:PRO:540:CA:9855, V-A:GLU:543:CA:4904, V-A:PRO:540:C:4881, V-B:GLU:543:CB:9878, V-B:ASP:366:CG:8184, V-B:ALA:541:CB:9864, V-B:TYR:539:CE2:9848, V-B:GLU:543:CG:9879, V-B:TYR:539:C:9839, V-A:ASP:366:CG:3213, V-A:TYR:539:CD1:4873, V-A:LEU:363:CD1:3189, V-B:TYR:484:CE2:9317, V-B:TYR:539:CZ:9849, V-A:TYR:531:CE2:4793, H-B:ALA:541:N:9863, V-A:TYR:539:CA:4869, V-B:ASP:366:CB:8183, V-A:GLU:543:CD:4908, V-B:PRO:540:CB:9857, H-B:TYR:484:OH:9319, V-B:HIS:456:CE1:9041, H-A:GLY:454:N:4050, V-B:PRO:540:N:9856, V-B:TYR:484:CZ:9318, V-A:ILE:369:CD1:3239, V-B:TYR:539:CD2:9846, V-A:GLU:543:CG:4907, V-A:TYR:531:CZ:4794, V-B:GLU:543:CD:9880, V-A:TYR:539:C:4867, V-A:ASP:366:CB:3212, V-A:LEU:475:CD2:4259, H-A:GLU:543:OE1:4909, V-A:GLU:543:CB:4906, H-A:ASP:366:OD1:3214, V-A:PRO:540:N:4884, V-A:TYR:539:CG:4872, V-A:PRO:540:CB:4885, V-A:PRO:540:CA:4883, V-A:LEU:363:CA:3185, H-B:TYR:539:O:9840, H-A:SER:385:O:3406, V-B:PRO:540:C:9853, V-B:ALA:541:CA:9862, V-A:TYR:539:CE1:4875, H-A:TYR:484:OH:4348"]

$$$$
ZINC2356807482
     RDKit          3D

 38 38  0  0  0  0  0  0  0  0999 V2000
  134.3070  123.5390   62.0430 C   0  0  0  0  0  0  0  0  0  0  0  0
  133.8650  122.1030   62.3660 C   0  0  0  0  0  0  0  0  0  0  0  0
  133.6190  121.2200   61.1280 C   0  0  0  0  0  0  0  0  0  0  0  0
  132.1380  120.8700   60.8810 C   0  0  0  0  0  0  0  0  0  0  0  0
  131.1780  121.9810   61.3420 C   0  0  0  0  0  0  0  0  0  0  0  0
  129.8490  121.4370   61.8990 C   0  0  0  0  0  0  0  0  0  0  0  0
  128.8140  122.5480   62.1700 C   0  0  0  0  0  0  0  0  0  0  0  0
  127.6220  122.5710   61.1800 C   0  0  1  0  0  0  0  0  0  0  0  0
  126.5180  123.1780   61.8280 O   0  0  0  0  0  0  0  0  0  0  0  0
  127.9330  123.3380   59.8630 C   0  0  1  0  0  0  0  0  0  0  0  0
  127.9740  122.4150   58.7870 O   0  0  0  0  0  0  0  0  0  0  0  0
  127.0800  122.7250   57.8420 C   0  0  0  0  0  0  0  0  0  0  0  0
  126.8960  122.0800   56.8120 O   0  0  0  0  0  0  0  0  0  0  0  0
  126.3990  123.9320   58.2470 C   0  0  0  0  0  0  0  0  0  0  0  0
  126.8700  124.3320   59.4350 C   0  0  0  0  0  0  0  0  0  0  0  0
  126.5090  125.5590   60.2480 C   0  0  0  0  0  0  0  0  0  0  0  0
  134.4766  124.0899   62.9799 H   0  0  0  0  0  0  0  0  0  0  0  0
  135.2388  123.5132   61.4590 H   0  0  0  0  0  0  0  0  0  0  0  0
  133.5220  124.0417   61.4590 H   0  0  0  0  0  0  0  0  0  0  0  0
  134.6493  121.6304   62.9755 H   0  0  0  0  0  0  0  0  0  0  0  0
  132.9023  122.1814   62.8924 H   0  0  0  0  0  0  0  0  0  0  0  0
  133.9988  121.7531   60.2439 H   0  0  0  0  0  0  0  0  0  0  0  0
  134.1405  120.2690   61.3114 H   0  0  0  0  0  0  0  0  0  0  0  0
  131.9912  120.7033   59.8037 H   0  0  0  0  0  0  0  0  0  0  0  0
  131.9082  119.9688   61.4683 H   0  0  0  0  0  0  0  0  0  0  0  0
  131.6737  122.5679   62.1293 H   0  0  0  0  0  0  0  0  0  0  0  0
  130.9383  122.5945   60.4610 H   0  0  0  0  0  0  0  0  0  0  0  0
  129.4246  120.7320   61.1691 H   0  0  0  0  0  0  0  0  0  0  0  0
  130.0684  120.9479   62.8595 H   0  0  0  0  0  0  0  0  0  0  0  0
  128.4149  122.4056   63.1851 H   0  0  0  0  0  0  0  0  0  0  0  0
  129.3423  123.5048   62.0459 H   0  0  0  0  0  0  0  0  0  0  0  0
  127.4043  121.5314   60.8939 H   0  0  0  0  0  0  0  0  0  0  0  0
  126.8410  123.9150   62.3530 H   0  0  0  0  0  0  0  0  0  0  0  0
  128.8749  123.8660   60.0728 H   0  0  0  0  0  0  0  0  0  0  0  0
  125.6150  124.4436   57.6694 H   0  0  0  0  0  0  0  0  0  0  0  0
  126.5787  125.3221   61.3199 H   0  0  0  0  0  0  0  0  0  0  0  0
  127.2048  126.3762   60.0071 H   0  0  0  0  0  0  0  0  0  0  0  0
  125.4815  125.8692   60.0071 H   0  0  0  0  0  0  0  0  0  0  0  0
  1  2  1  0
  2  3  1  0
  3  4  1  0
  4  5  1  0
  5  6  1  0
  6  7  1  0
  7  8  1  0
  8  9  1  0
  8 10  1  0
 10 11  1  0
 11 12  1  0
 12 13  2  0
 12 14  1  0
 14 15  2  0
 15 16  1  0
 15 10  1  0
  1 17  1  0
  1 18  1  0
  1 19  1  0
  2 20  1  0
  2 21  1  0
  3 22  1  0
  3 23  1  0
  4 24  1  0
  4 25  1  0
  5 26  1  0
  5 27  1  0
  6 28  1  0
  6 29  1  0
  7 30  1  0
  7 31  1  0
  8 32  1  6
  9 33  1  0
 10 34  1  1
 14 35  1  0
 16 36  1  0
 16 37  1  0
 16 38  1  0
M  END
>  <Binding energies>  (1) 
[-5.41]

>  <Ligand effiencies>  (1) 
[-0.31823529411764706]

>  <Interactions>  (1) 
["V-A:ILE:369:CG2:3237, V-A:ILE:369:CD1:3239, V-B:PRO:540:CA:9855, V-A:GLY:454:CA:4049, H-B:GLU:543:OE1:9881, V-B:TYR:539:CD2:9846, V-B:PRO:540:CD:9859, V-A:SER:385:CB:3409, H-B:ALA:541:N:9863, V-A:SER:385:CA:3407, V-B:ALA:541:CB:9864, V-B:PRO:540:C:9853, V-B:TYR:539:CE2:9848, V-B:PRO:540:CB:9857, H-B:TYR:539:N:9842, V-A:LEU:475:CD2:4259, V-B:TYR:539:C:9839, V-B:PRO:540:N:9856"]

$$$$
ZINC2356807554
     RDKit          3D

 76 79  0  0  0  0  0  0  0  0999 V2000
  135.3740  124.5920   62.3040 C   0  0  0  0  0  0  0  0  0  0  0  0
  134.5250  125.0490   63.5030 C   0  0  0  0  0  0  0  0  0  0  0  0
  133.0000  124.9330   63.2760 C   0  0  2  0  0  0  0  0  0  0  0  0
  132.5780  125.4250   61.8920 C   0  0  0  0  0  0  0  0  0  0  0  0
  131.6840  126.4040   61.6530 C   0  0  0  0  0  0  0  0  0  0  0  0
  131.2990  126.9010   60.2640 C   0  0  0  0  0  0  0  0  0  0  0  0
  131.5770  125.9370   59.0790 C   0  0  1  0  0  0  0  0  0  0  0  0
  131.7770  124.4520   59.5030 C   0  0  0  0  0  0  0  0  0  0  0  0
  133.2390  123.9460   59.5470 C   0  0  0  0  0  0  0  0  0  0  0  0
  133.9680  124.1270   58.2010 C   0  0  0  0  0  0  0  0  0  0  0  0
  133.2970  122.4780   60.0070 C   0  0  0  0  0  0  0  0  0  0  0  0
  130.5080  126.0350   58.1300 O   0  0  0  0  0  0  0  0  0  0  0  0
  129.3900  125.2480   58.1900 C   0  0  0  0  0  0  0  0  0  0  0  0
  129.4140  124.0170   58.2550 O   0  0  0  0  0  0  0  0  0  0  0  0
  128.1350  126.0170   58.2960 C   0  0  0  0  0  0  0  0  0  0  0  0
  128.2300  127.4370   57.7550 C   0  0  0  0  0  0  0  0  0  0  0  0
  126.9520  125.4790   58.6930 C   0  0  0  0  0  0  0  0  0  0  0  0
  126.7060  124.0830   59.2670 C   0  0  1  0  0  0  0  0  0  0  0  0
  127.1440  123.0070   58.2730 C   0  0  0  0  0  0  0  0  0  0  0  0
  126.7840  122.9100   57.1020 O   0  0  0  0  0  0  0  0  0  0  0  0
  127.9800  122.1890   58.9330 N   0  0  0  0  0  0  0  0  0  0  0  0
  128.3140  122.6150   60.1750 C   0  0  0  0  0  0  0  0  0  0  0  0
  129.2930  122.1390   60.9650 C   0  0  0  0  0  0  0  0  0  0  0  0
  129.5910  122.7000   62.2810 C   0  0  0  0  0  0  0  0  0  0  0  0
  130.3150  122.1020   63.0770 O   0  0  0  0  0  0  0  0  0  0  0  0
  129.0340  124.1080   62.5120 C   0  0  0  0  0  0  0  0  0  0  0  0
  128.1260  124.6560   61.5620 C   0  0  0  0  0  0  0  0  0  0  0  0
  127.8760  126.0320   61.6120 C   0  0  0  0  0  0  0  0  0  0  0  0
  128.4250  126.8610   62.5790 C   0  0  0  0  0  0  0  0  0  0  0  0
  128.1180  128.3530   62.5400 C   0  0  0  0  0  0  0  0  0  0  0  0
  129.1690  126.2980   63.6140 C   0  0  0  0  0  0  0  0  0  0  0  0
  129.6090  127.1270   64.6240 O   0  0  0  0  0  0  0  0  0  0  0  0
  129.3900  124.9050   63.6410 C   0  0  0  0  0  0  0  0  0  0  0  0
  129.9420  124.3180   64.9110 C   0  0  0  0  0  0  0  0  0  0  0  0
  129.4080  123.3810   65.5070 O   0  0  0  0  0  0  0  0  0  0  0  0
  131.3550  124.7620   65.3600 C   0  0  0  0  0  0  0  0  0  0  0  0
  132.2000  125.6530   64.4010 C   0  0  0  0  0  0  0  0  0  0  0  0
  127.3450  123.6870   60.6230 C   0  0  1  0  0  0  0  0  0  0  0  0
  126.3430  123.1180   61.4530 O   0  0  0  0  0  0  0  0  0  0  0  0
  136.2880  124.1000   62.6682 H   0  0  0  0  0  0  0  0  0  0  0  0
  134.7948  123.8838   61.6933 H   0  0  0  0  0  0  0  0  0  0  0  0
  135.6462  125.4655   61.6933 H   0  0  0  0  0  0  0  0  0  0  0  0
  134.7931  124.4304   64.3722 H   0  0  0  0  0  0  0  0  0  0  0  0
  134.7428  126.1160   63.6582 H   0  0  0  0  0  0  0  0  0  0  0  0
  132.7552  123.8615   63.3211 H   0  0  0  0  0  0  0  0  0  0  0  0
  133.0419  124.9404   61.0202 H   0  0  0  0  0  0  0  0  0  0  0  0
  131.1986  126.8772   62.5193 H   0  0  0  0  0  0  0  0  0  0  0  0
  130.2202  127.1157   60.2735 H   0  0  0  0  0  0  0  0  0  0  0  0
  131.9390  127.7769   60.0816 H   0  0  0  0  0  0  0  0  0  0  0  0
  132.5310  126.2535   58.6322 H   0  0  0  0  0  0  0  0  0  0  0  0
  131.3488  124.3294   60.5088 H   0  0  0  0  0  0  0  0  0  0  0  0
  131.2812  123.8537   58.7244 H   0  0  0  0  0  0  0  0  0  0  0  0
  133.7691  124.5680   60.2833 H   0  0  0  0  0  0  0  0  0  0  0  0
  135.0203  124.3883   58.3862 H   0  0  0  0  0  0  0  0  0  0  0  0
  133.9184  123.1893   57.6281 H   0  0  0  0  0  0  0  0  0  0  0  0
  133.4855  124.9326   57.6281 H   0  0  0  0  0  0  0  0  0  0  0  0
  133.2986  122.4380   61.1063 H   0  0  0  0  0  0  0  0  0  0  0  0
  132.4195  121.9381   59.6217 H   0  0  0  0  0  0  0  0  0  0  0  0
  134.2144  122.0090   59.6217 H   0  0  0  0  0  0  0  0  0  0  0  0
  128.2775  128.1467   58.5941 H   0  0  0  0  0  0  0  0  0  0  0  0
  129.1367  127.5352   57.1400 H   0  0  0  0  0  0  0  0  0  0  0  0
  127.3444  127.6551   57.1400 H   0  0  0  0  0  0  0  0  0  0  0  0
  126.0668  126.1237   58.5893 H   0  0  0  0  0  0  0  0  0  0  0  0
  125.6241  124.1413   59.4569 H   0  0  0  0  0  0  0  0  0  0  0  0
  128.4070  121.3780   58.5090 H   0  0  0  0  0  0  0  0  0  0  0  0
  129.8949  121.2915   60.6052 H   0  0  0  0  0  0  0  0  0  0  0  0
  127.2158  126.4751   60.8518 H   0  0  0  0  0  0  0  0  0  0  0  0
  128.0388  128.7380   63.5674 H   0  0  0  0  0  0  0  0  0  0  0  0
  128.9265  128.8800   62.0122 H   0  0  0  0  0  0  0  0  0  0  0  0
  127.1671  128.5180   62.0122 H   0  0  0  0  0  0  0  0  0  0  0  0
  130.5440  127.3360   64.5580 H   0  0  0  0  0  0  0  0  0  0  0  0
  131.2352  125.3211   66.2997 H   0  0  0  0  0  0  0  0  0  0  0  0
  131.9232  123.8221   65.4208 H   0  0  0  0  0  0  0  0  0  0  0  0
  131.5119  126.3609   63.9158 H   0  0  0  0  0  0  0  0  0  0  0  0
  132.9665  126.1110   65.0435 H   0  0  0  0  0  0  0  0  0  0  0  0
  126.1580  123.7300   62.1690 H   0  0  0  0  0  0  0  0  0  0  0  0
  1  2  1  0
  2  3  1  0
  3  4  1  0
  4  5  2  0
  5  6  1  0
  6  7  1  0
  7  8  1  0
  8  9  1  0
  9 10  1  0
  9 11  1  0
  7 12  1  0
 12 13  1  0
 13 14  2  0
 13 15  1  0
 15 16  1  0
 15 17  2  0
 17 18  1  0
 18 19  1  0
 19 20  2  0
 19 21  1  0
 21 22  1  0
 22 23  2  0
 23 24  1  0
 24 25  2  0
 24 26  1  0
 26 27  2  0
 27 28  1  0
 28 29  2  0
 29 30  1  0
 29 31  1  0
 31 32  1  0
 31 33  2  0
 33 34  1  0
 34 35  2  0
 34 36  1  0
 36 37  1  0
 27 38  1  0
 38 39  1  1
 37  3  1  0
 38 18  1  0
 38 22  1  0
 33 26  1  0
  1 40  1  0
  1 41  1  0
  1 42  1  0
  2 43  1  0
  2 44  1  0
  3 45  1  6
  4 46  1  0
  5 47  1  0
  6 48  1  0
  6 49  1  0
  7 50  1  6
  8 51  1  0
  8 52  1  0
  9 53  1  0
 10 54  1  0
 10 55  1  0
 10 56  1  0
 11 57  1  0
 11 58  1  0
 11 59  1  0
 16 60  1  0
 16 61  1  0
 16 62  1  0
 17 63  1  0
 18 64  1  1
 21 65  1  0
 23 66  1  0
 28 67  1  0
 30 68  1  0
 30 69  1  0
 30 70  1  0
 32 71  1  0
 36 72  1  0
 36 73  1  0
 37 74  1  0
 37 75  1  0
 39 76  1  0
M  END
>  <Binding energies>  (1) 
[-6.15]

>  <Ligand effiencies>  (1) 
[-0.13977272727272727]

>  <Interactions>  (1) 
["V-A:ILE:369:CG2:3237, V-A:ASP:366:CA:3210, V-B:PRO:540:CA:9855, H-A:GLU:543:OE2:4910, V-A:ILE:369:CB:3236, H-A:TYR:531:OH:4795, V-B:TYR:539:CE2:9848, V-B:GLU:543:CG:9879, V-B:TYR:539:C:9839, V-A:ASP:366:CG:3213, V-B:TYR:539:CZ:9849, H-B:GLU:543:OE1:9881, H-B:TYR:539:OH:9850, H-B:ALA:541:N:9863, V-A:TYR:484:CZ:4347, V-B:PRO:540:CB:9857, V-A:GLU:543:CD:4908, V-A:GLY:453:C:4042, V-B:PRO:540:N:9856, V-A:ILE:369:CD1:3239, V-A:ASP:366:C:3208, V-B:TYR:539:CD2:9846, V-B:GLU:543:CD:9880, V-A:ASP:366:CB:3212, V-A:ARG:545:CZ:4926, H-A:GLU:543:OE1:4909, V-B:TYR:539:CG:9844, V-A:GLY:453:CA:4044, H-B:TYR:539:O:9840"]

$$$$
ZINC2356807554-again1
     RDKit          3D

 77 80  0  0  0  0  0  0  0  0999 V2000
  130.3260  117.2850   60.2430 C   0  0  0  0  0  0  0  0  0  0  0  0
  131.2330  118.4670   59.8600 C   0  0  0  0  0  0  0  0  0  0  0  0
  131.2680  119.6340   60.8850 C   0  0  2  0  0  0  0  0  0  0  0  0
  129.9430  120.3870   61.0120 C   0  0  0  0  0  0  0  0  0  0  0  0
  129.5950  121.2990   61.9420 C   0  0  0  0  0  0  0  0  0  0  0  0
  128.2250  121.9540   61.9950 C   0  0  0  0  0  0  0  0  0  0  0  0
  128.1970  123.4460   62.4290 C   0  0  1  0  0  0  0  0  0  0  0  0
  128.9580  123.6700   63.7640 C   0  0  0  0  0  0  0  0  0  0  0  0
  129.5340  122.3960   64.4320 C   0  0  0  0  0  0  0  0  0  0  0  0
  128.7850  122.0720   65.7380 C   0  0  0  0  0  0  0  0  0  0  0  0
  131.0530  122.4880   64.6770 C   0  0  0  0  0  0  0  0  0  0  0  0
  128.6010  124.4090   61.4420 O   0  0  0  0  0  0  0  0  0  0  0  0
  128.9950  124.0980   60.1750 C   0  0  0  0  0  0  0  0  0  0  0  0
  129.6320  123.0880   59.8870 O   0  0  0  0  0  0  0  0  0  0  0  0
  128.5490  125.0890   59.1840 C   0  0  0  0  0  0  0  0  0  0  0  0
  128.1280  124.4900   57.8430 C   0  0  0  0  0  0  0  0  0  0  0  0
  128.5810  126.4360   59.3660 C   0  0  0  0  0  0  0  0  0  0  0  0
  128.9810  127.3430   60.5500 C   0  0  1  0  0  0  0  0  0  0  0  0
  128.0260  127.3490   61.7410 C   0  0  0  0  0  0  0  0  0  0  0  0
  126.8380  127.6640   61.7520 O   0  0  0  0  0  0  0  0  0  0  0  0
  128.7650  126.8560   62.8040 N   0  0  0  0  0  0  0  0  0  0  0  0
  130.0220  126.5610   62.5220 C   0  0  0  0  0  0  0  0  0  0  0  0
  130.9360  125.8340   63.2510 C   0  0  0  0  0  0  0  0  0  0  0  0
  131.8970  125.1560   62.5840 C   0  0  0  0  0  0  0  0  0  0  0  0
  132.8430  124.4850   63.2960 O   0  0  0  0  0  0  0  0  0  0  0  0
  132.0850  125.1750   61.0830 C   0  0  0  0  0  0  0  0  0  0  0  0
  131.4000  126.2150   60.4090 C   0  0  0  0  0  0  0  0  0  0  0  0
  131.6730  126.4390   59.0570 C   0  0  0  0  0  0  0  0  0  0  0  0
  132.5350  125.6220   58.3350 C   0  0  0  0  0  0  0  0  0  0  0  0
  132.7850  125.9290   56.8640 C   0  0  0  0  0  0  0  0  0  0  0  0
  133.1210  124.5190   58.9600 C   0  0  0  0  0  0  0  0  0  0  0  0
  133.9200  123.6920   58.2000 O   0  0  0  0  0  0  0  0  0  0  0  0
  132.8620  124.2540   60.3230 C   0  0  0  0  0  0  0  0  0  0  0  0
  133.3910  122.9770   60.9030 C   0  0  0  0  0  0  0  0  0  0  0  0
  134.5730  122.6370   60.8610 O   0  0  0  0  0  0  0  0  0  0  0  0
  132.3290  121.9690   61.3610 C   0  0  0  0  0  0  0  0  0  0  0  0
  132.4460  120.6080   60.6290 C   0  0  0  0  0  0  0  0  0  0  0  0
  130.3950  127.1230   61.1630 C   0  0  1  0  0  0  0  0  0  0  0  0
  131.0630  128.3670   61.3310 O   0  0  0  0  0  0  0  0  0  0  0  0
  130.2670  117.2081   61.3387 H   0  0  0  0  0  0  0  0  0  0  0  0
  129.3187  117.4476   59.8321 H   0  0  0  0  0  0  0  0  0  0  0  0
  130.7438  116.3541   59.8321 H   0  0  0  0  0  0  0  0  0  0  0  0
  132.2581  118.0854   59.7438 H   0  0  0  0  0  0  0  0  0  0  0  0
  130.8124  118.8867   58.9343 H   0  0  0  0  0  0  0  0  0  0  0  0
  131.4370  119.1492   61.8578 H   0  0  0  0  0  0  0  0  0  0  0  0
  129.1815  120.1566   60.2524 H   0  0  0  0  0  0  0  0  0  0  0  0
  130.3398  121.5830   62.7000 H   0  0  0  0  0  0  0  0  0  0  0  0
  127.7817  121.8878   60.9905 H   0  0  0  0  0  0  0  0  0  0  0  0
  127.6671  121.4099   62.7713 H   0  0  0  0  0  0  0  0  0  0  0  0
  127.1247  123.6439   62.5737 H   0  0  0  0  0  0  0  0  0  0  0  0
  129.7953  124.3549   63.5647 H   0  0  0  0  0  0  0  0  0  0  0  0
  128.2139  124.0679   64.4697 H   0  0  0  0  0  0  0  0  0  0  0  0
  129.3772  121.5696   63.7232 H   0  0  0  0  0  0  0  0  0  0  0  0
  129.4139  122.3440   66.5985 H   0  0  0  0  0  0  0  0  0  0  0  0
  127.8465  122.6446   65.7742 H   0  0  0  0  0  0  0  0  0  0  0  0
  128.5596  120.9959   65.7742 H   0  0  0  0  0  0  0  0  0  0  0  0
  131.2498  122.4999   65.7592 H   0  0  0  0  0  0  0  0  0  0  0  0
  131.5509  121.6184   64.2233 H   0  0  0  0  0  0  0  0  0  0  0  0
  131.4423  123.4114   64.2233 H   0  0  0  0  0  0  0  0  0  0  0  0
  127.5035  123.6015   58.0182 H   0  0  0  0  0  0  0  0  0  0  0  0
  127.5539  125.2351   57.2727 H   0  0  0  0  0  0  0  0  0  0  0  0
  129.0235  124.2022   57.2727 H   0  0  0  0  0  0  0  0  0  0  0  0
  128.2517  127.0001   58.4809 H   0  0  0  0  0  0  0  0  0  0  0  0
  128.9497  128.3016   60.0114 H   0  0  0  0  0  0  0  0  0  0  0  0
  128.3160  126.6350   63.6890 H   0  0  0  0  0  0  0  0  0  0  0  0
  130.8857  125.8054   64.3495 H   0  0  0  0  0  0  0  0  0  0  0  0
  132.8370  124.7920   64.2060 H   0  0  0  0  0  0  0  0  0  0  0  0
  131.1913  127.2874   58.5489 H   0  0  0  0  0  0  0  0  0  0  0  0
  133.4775  126.7794   56.7795 H   0  0  0  0  0  0  0  0  0  0  0  0
  133.2254  125.0475   56.3752 H   0  0  0  0  0  0  0  0  0  0  0  0
  131.8326  126.1818   56.3752 H   0  0  0  0  0  0  0  0  0  0  0  0
  134.5780  123.2220   58.7200 H   0  0  0  0  0  0  0  0  0  0  0  0
  132.4466  121.7994   62.4415 H   0  0  0  0  0  0  0  0  0  0  0  0
  131.3422  122.3924   61.1225 H   0  0  0  0  0  0  0  0  0  0  0  0
  132.5007  120.8035   59.5479 H   0  0  0  0  0  0  0  0  0  0  0  0
  133.3475  120.1176   61.0251 H   0  0  0  0  0  0  0  0  0  0  0  0
  131.1590  128.5420   62.2710 H   0  0  0  0  0  0  0  0  0  0  0  0
  1  2  1  0
  2  3  1  0
  3  4  1  0
  4  5  2  0
  5  6  1  0
  6  7  1  0
  7  8  1  0
  8  9  1  0
  9 10  1  0
  9 11  1  0
  7 12  1  0
 12 13  1  0
 13 14  2  0
 13 15  1  0
 15 16  1  0
 15 17  2  0
 17 18  1  0
 18 19  1  0
 19 20  2  0
 19 21  1  0
 21 22  2  0
 22 23  1  0
 23 24  2  0
 24 25  1  0
 24 26  1  0
 26 27  2  0
 27 28  1  0
 28 29  2  0
 29 30  1  0
 29 31  1  0
 31 32  1  0
 31 33  2  0
 33 34  1  0
 34 35  2  0
 34 36  1  0
 36 37  1  0
 27 38  1  0
 38 39  1  1
 37  3  1  0
 38 18  1  0
 38 22  1  0
 33 26  1  0
  1 40  1  0
  1 41  1  0
  1 42  1  0
  2 43  1  0
  2 44  1  0
  3 45  1  1
  4 46  1  0
  5 47  1  0
  6 48  1  0
  6 49  1  0
  7 50  1  1
  8 51  1  0
  8 52  1  0
  9 53  1  0
 10 54  1  0
 10 55  1  0
 10 56  1  0
 11 57  1  0
 11 58  1  0
 11 59  1  0
 16 60  1  0
 16 61  1  0
 16 62  1  0
 17 63  1  0
 18 64  1  6
 21 65  1  0
 23 66  1  0
 25 67  1  0
 28 68  1  0
 30 69  1  0
 30 70  1  0
 30 71  1  0
 32 72  1  0
 36 73  1  0
 36 74  1  0
 37 75  1  0
 37 76  1  0
 39 77  1  0
M  CHG  1  21   1
M  END
>  <Binding energies>  (1) 
[-6.09]

>  <Ligand effiencies>  (1) 
[-0.13533333333333333]

>  <Interactions>  (1) 
["V-A:ILE:369:CG2:3237, V-A:ASP:366:CA:3210, V-B:PRO:540:CA:9855, H-A:GLU:543:OE2:4910, V-B:GLU:543:CB:9878, V-B:ALA:541:CB:9864, V-A:TYR:531:CE1:4792, V-A:ASN:370:CB:3245, V-B:TYR:539:CE2:9848, V-A:TYR:484:CE2:4346, V-B:GLU:543:CG:9879, V-B:TYR:539:C:9839, V-A:ASP:366:CG:3213, V-B:TYR:539:CZ:9849, H-B:GLU:543:OE1:9881, V-A:TYR:531:CE2:4793, H-B:TYR:539:OH:9850, V-B:VAL:344:CG1:7972, V-B:TYR:539:CB:9843, V-A:HIS:383:CE1:3393, V-A:TYR:484:CZ:4347, V-B:GLU:543:CA:9876, V-A:TYR:484:CD2:4344, V-A:ILE:369:CD1:3239, V-A:ASP:366:C:3208, V-B:TYR:539:CD2:9846, V-A:TYR:531:CZ:4794, V-B:GLU:543:CD:9880, V-A:ASP:366:CB:3212, V-A:LEU:475:CD2:4259, H-A:ARG:545:NH2:4928, H-A:GLU:543:OE1:4909, V-B:TYR:539:CG:9844, H-B:ARG:545:NH2:9900, H-A:ASP:366:O:3209, V-B:VAL:542:C:9866, H-B:GLU:543:OE2:9882, V-B:PRO:540:C:9853, H-A:ASP:366:OD2:3215, V-B:ALA:541:CA:9862, V-A:HIS:383:NE2:3394, H-A:TYR:484:OH:4348"]

$$$$
ZINC2356810575-again1
     RDKit          3D

109113  0  0  0  0  0  0  0  0999 V2000
  130.1710  128.4980   71.9010 C   0  0  0  0  0  0  0  0  0  0  0  0
  130.9190  127.7140   70.8130 C   0  0  0  0  0  0  0  0  0  0  0  0
  130.5760  128.1900   69.3860 C   0  0  0  0  0  0  0  0  0  0  0  0
  129.1020  127.9600   68.9320 C   0  0  2  0  0  0  0  0  0  0  0  0
  128.3880  126.8830   69.8020 C   0  0  0  0  0  0  0  0  0  0  0  0
  127.0040  126.8130   69.5170 O   0  0  0  0  0  0  0  0  0  0  0  0
  128.9470  127.6730   67.3870 C   0  0  2  0  0  0  0  0  0  0  0  0
  127.9510  128.5660   66.5920 C   0  0  0  0  0  0  0  0  0  0  0  0
  128.3000  128.9520   65.1290 C   0  0  2  0  0  0  0  0  0  0  0  0
  127.2360  129.9140   64.5360 C   0  0  0  0  0  0  0  0  0  0  0  0
  127.7950  131.0500   63.6870 C   0  0  0  0  0  0  0  0  0  0  0  0
  127.0670  132.1630   63.4280 C   0  0  0  0  0  0  0  0  0  0  0  0
  127.5570  133.3520   62.5800 C   0  0  0  0  0  0  0  0  0  0  0  0
  128.9250  133.0910   62.1040 N   0  0  0  0  0  0  0  0  0  0  0  0
  129.6480  131.9480   62.3680 C   0  0  0  0  0  0  0  0  0  0  0  0
  130.8910  131.9530   61.7980 N   0  0  0  0  0  0  0  0  0  0  0  0
  129.1330  130.9590   63.1180 C   0  0  0  0  0  0  0  0  0  0  0  0
  128.5380  127.7420   64.1950 C   0  0  0  0  0  0  0  0  0  0  0  0
  129.6880  126.7740   64.6050 C   0  0  2  0  0  0  0  0  0  0  0  0
  130.2300  126.1520   63.3720 C   0  0  0  0  0  0  0  0  0  0  0  0
  130.5600  125.5860   62.3420 C   0  0  0  0  0  0  0  0  0  0  0  0
  130.9030  125.0120   61.0170 C   0  0  2  0  0  0  0  0  0  0  0  0
  130.2650  125.7130   59.7790 C   0  0  0  0  0  0  0  0  0  0  0  0
  130.9940  125.8580   58.5790 C   0  0  0  0  0  0  0  0  0  0  0  0
  130.4330  126.4440   57.4490 C   0  0  0  0  0  0  0  0  0  0  0  0
  129.1210  126.8950   57.4860 C   0  0  0  0  0  0  0  0  0  0  0  0
  128.3760  126.7630   58.6530 C   0  0  0  0  0  0  0  0  0  0  0  0
  128.9250  126.1790   59.8070 C   0  0  0  0  0  0  0  0  0  0  0  0
  128.0730  126.0600   61.0820 C   0  0  0  0  0  0  0  0  0  0  0  0
  126.7240  126.8160   61.1250 C   0  0  0  0  0  0  0  0  0  0  0  0
  126.8220  128.2730   61.6390 C   0  0  0  0  0  0  0  0  0  0  0  0
  125.4580  128.9920   61.6940 C   0  0  0  0  0  0  0  0  0  0  0  0
  127.8290  129.0850   60.8040 C   0  0  0  0  0  0  0  0  0  0  0  0
  130.8650  123.4670   61.0350 C   0  0  0  0  0  0  0  0  0  0  0  0
  131.9930  122.7900   60.5490 C   0  0  0  0  0  0  0  0  0  0  0  0
  132.0410  121.4000   60.4910 C   0  0  0  0  0  0  0  0  0  0  0  0
  133.1650  120.7950   59.9860 O   0  0  0  0  0  0  0  0  0  0  0  0
  130.9600  120.6350   60.9360 C   0  0  0  0  0  0  0  0  0  0  0  0
  131.0710  119.2570   60.8520 O   0  0  0  0  0  0  0  0  0  0  0  0
  130.1360  118.4360   61.5440 C   0  0  0  0  0  0  0  0  0  0  0  0
  129.8350  121.3010   61.4440 C   0  0  0  0  0  0  0  0  0  0  0  0
  129.7740  122.6980   61.5040 C   0  0  0  0  0  0  0  0  0  0  0  0
  128.5200  123.3150   62.1200 C   0  0  0  0  0  0  0  0  0  0  0  0
  128.7570  123.7720   63.5740 C   0  0  0  0  0  0  0  0  0  0  0  0
  129.8010  122.9650   64.3640 C   0  0  0  0  0  0  0  0  0  0  0  0
  129.6810  121.7580   64.5730 O   0  0  0  0  0  0  0  0  0  0  0  0
  130.9880  123.7380   64.9500 C   0  0  0  0  0  0  0  0  0  0  0  0
  130.5600  124.7570   66.0110 C   0  0  0  0  0  0  0  0  0  0  0  0
  131.2000  124.8730   67.0560 O   0  0  0  0  0  0  0  0  0  0  0  0
  129.3580  125.6800   65.6890 C   0  0  1  0  0  0  0  0  0  0  0  0
  128.7470  126.1720   67.0340 C   0  0  0  0  0  0  0  0  0  0  0  0
  130.4996  128.1535   72.8926 H   0  0  0  0  0  0  0  0  0  0  0  0
  130.3886  129.5710   71.7949 H   0  0  0  0  0  0  0  0  0  0  0  0
  129.0889  128.3311   71.7949 H   0  0  0  0  0  0  0  0  0  0  0  0
  132.0004  127.8362   70.9732 H   0  0  0  0  0  0  0  0  0  0  0  0
  130.6094  126.6615   70.8930 H   0  0  0  0  0  0  0  0  0  0  0  0
  130.7820  129.2692   69.3311 H   0  0  0  0  0  0  0  0  0  0  0  0
  131.1959  127.5824   68.7103 H   0  0  0  0  0  0  0  0  0  0  0  0
  128.5888  128.9180   69.1020 H   0  0  0  0  0  0  0  0  0  0  0  0
  128.8435  125.9023   69.6000 H   0  0  0  0  0  0  0  0  0  0  0  0
  128.5065  127.1627   70.8592 H   0  0  0  0  0  0  0  0  0  0  0  0
  126.6040  126.1620   70.0990 H   0  0  0  0  0  0  0  0  0  0  0  0
  129.9402  127.9837   67.0307 H   0  0  0  0  0  0  0  0  0  0  0  0
  126.9888  128.0336   66.5657 H   0  0  0  0  0  0  0  0  0  0  0  0
  127.9627  129.5247   67.1313 H   0  0  0  0  0  0  0  0  0  0  0  0
  129.2653  129.4765   65.1847 H   0  0  0  0  0  0  0  0  0  0  0  0
  126.5538  129.3225   63.9077 H   0  0  0  0  0  0  0  0  0  0  0  0
  126.7387  130.3886   65.3947 H   0  0  0  0  0  0  0  0  0  0  0  0
  126.0543  132.2217   63.8534 H   0  0  0  0  0  0  0  0  0  0  0  0
  126.8886  133.4855   61.7166 H   0  0  0  0  0  0  0  0  0  0  0  0
  127.5529  134.2642   63.1947 H   0  0  0  0  0  0  0  0  0  0  0  0
  129.3160  133.8280   61.5360 H   0  0  0  0  0  0  0  0  0  0  0  0
  131.6140  131.3250   62.1200 H   0  0  0  0  0  0  0  0  0  0  0  0
  131.1180  132.5840   61.0440 H   0  0  0  0  0  0  0  0  0  0  0  0
  129.7364  130.0589   63.3069 H   0  0  0  0  0  0  0  0  0  0  0  0
  127.6060  127.1590   64.1565 H   0  0  0  0  0  0  0  0  0  0  0  0
  128.8435  128.1706   63.2291 H   0  0  0  0  0  0  0  0  0  0  0  0
  130.4293  127.4011   65.1219 H   0  0  0  0  0  0  0  0  0  0  0  0
  131.9576  125.2710   60.8419 H   0  0  0  0  0  0  0  0  0  0  0  0
  132.0326  125.4983   58.5363 H   0  0  0  0  0  0  0  0  0  0  0  0
  131.0272  126.5496   56.5293 H   0  0  0  0  0  0  0  0  0  0  0  0
  128.6713  127.3559   56.5942 H   0  0  0  0  0  0  0  0  0  0  0  0
  127.3367  127.1228   58.6729 H   0  0  0  0  0  0  0  0  0  0  0  0
  127.8549  124.9923   61.2316 H   0  0  0  0  0  0  0  0  0  0  0  0
  128.6810  126.5364   61.8652 H   0  0  0  0  0  0  0  0  0  0  0  0
  126.3096  126.8380   60.1063 H   0  0  0  0  0  0  0  0  0  0  0  0
  126.0841  126.2748   61.8374 H   0  0  0  0  0  0  0  0  0  0  0  0
  127.1845  128.2084   62.6755 H   0  0  0  0  0  0  0  0  0  0  0  0
  125.1666  129.1456   62.7435 H   0  0  0  0  0  0  0  0  0  0  0  0
  125.5363  129.9660   61.1889 H   0  0  0  0  0  0  0  0  0  0  0  0
  124.6987  128.3770   61.1889 H   0  0  0  0  0  0  0  0  0  0  0  0
  128.5066  129.6314   61.4765 H   0  0  0  0  0  0  0  0  0  0  0  0
  128.4137  128.4027   60.1695 H   0  0  0  0  0  0  0  0  0  0  0  0
  127.2861  129.8010   60.1695 H   0  0  0  0  0  0  0  0  0  0  0  0
  132.8611  123.3716   60.2052 H   0  0  0  0  0  0  0  0  0  0  0  0
  133.0040  119.9010   59.6770 H   0  0  0  0  0  0  0  0  0  0  0  0
  130.2740  118.5572   62.6286 H   0  0  0  0  0  0  0  0  0  0  0  0
  129.1132  118.7332   61.2690 H   0  0  0  0  0  0  0  0  0  0  0  0
  130.2984  117.3834   61.2690 H   0  0  0  0  0  0  0  0  0  0  0  0
  128.9795  120.7108   61.8042 H   0  0  0  0  0  0  0  0  0  0  0  0
  128.2199  124.1856   61.5183 H   0  0  0  0  0  0  0  0  0  0  0  0
  127.7321  122.5475   62.1286 H   0  0  0  0  0  0  0  0  0  0  0  0
  129.0883  124.8206   63.5491 H   0  0  0  0  0  0  0  0  0  0  0  0
  127.8011  123.6190   64.0964 H   0  0  0  0  0  0  0  0  0  0  0  0
  131.6832  123.0205   65.4104 H   0  0  0  0  0  0  0  0  0  0  0  0
  131.4638  124.2924   64.1277 H   0  0  0  0  0  0  0  0  0  0  0  0
  128.5616  125.1228   65.1740 H   0  0  0  0  0  0  0  0  0  0  0  0
  127.6645  125.9800   66.9978 H   0  0  0  0  0  0  0  0  0  0  0  0
  129.2874  125.6179   67.8156 H   0  0  0  0  0  0  0  0  0  0  0  0
  1  2  1  0
  2  3  1  0
  3  4  1  0
  4  5  1  0
  5  6  1  0
  4  7  1  0
  7  8  1  0
  8  9  1  0
  9 10  1  0
 10 11  1  0
 11 12  2  0
 12 13  1  0
 13 14  1  0
 14 15  1  0
 15 16  1  0
 15 17  2  0
  9 18  1  0
 18 19  1  0
 19 20  1  0
 20 21  3  0
 21 22  1  0
 22 23  1  0
 23 24  2  0
 24 25  1  0
 25 26  2  0
 26 27  1  0
 27 28  2  0
 28 29  1  0
 29 30  1  0
 30 31  1  0
 31 32  1  0
 31 33  1  0
 22 34  1  0
 34 35  2  0
 35 36  1  0
 36 37  1  0
 36 38  2  0
 38 39  1  0
 39 40  1  0
 38 41  1  0
 41 42  2  0
 42 43  1  0
 43 44  1  0
 44 45  1  0
 45 46  2  0
 45 47  1  0
 47 48  1  0
 48 49  2  0
 48 50  1  0
 50 51  1  0
 51  7  1  0
 17 11  1  0
 50 19  1  0
 28 23  1  0
 42 34  1  0
  1 52  1  0
  1 53  1  0
  1 54  1  0
  2 55  1  0
  2 56  1  0
  3 57  1  0
  3 58  1  0
  4 59  1  6
  5 60  1  0
  5 61  1  0
  6 62  1  0
  7 63  1  6
  8 64  1  0
  8 65  1  0
  9 66  1  1
 10 67  1  0
 10 68  1  0
 12 69  1  0
 13 70  1  0
 13 71  1  0
 14 72  1  0
 16 73  1  0
 16 74  1  0
 17 75  1  0
 18 76  1  0
 18 77  1  0
 19 78  1  1
 22 79  1  6
 24 80  1  0
 25 81  1  0
 26 82  1  0
 27 83  1  0
 29 84  1  0
 29 85  1  0
 30 86  1  0
 30 87  1  0
 31 88  1  0
 32 89  1  0
 32 90  1  0
 32 91  1  0
 33 92  1  0
 33 93  1  0
 33 94  1  0
 35 95  1  0
 37 96  1  0
 40 97  1  0
 40 98  1  0
 40 99  1  0
 41100  1  0
 43101  1  0
 43102  1  0
 44103  1  0
 44104  1  0
 47105  1  0
 47106  1  0
 50107  1  6
 51108  1  0
 51109  1  0
M  END
>  <Binding energies>  (1) 
[-3.58]

>  <Ligand effiencies>  (1) 
[-0.059666666666666666]

>  <Interactions>  (1) 
["V-A:GLU:543:CA:4904, V-B:GLU:543:C:9874, H-B:GLU:543:O:9875, V-A:GLU:543:C:4902, V-B:GLU:543:CB:9878, V-A:PRO:540:C:4881, V-B:ALA:541:CB:9864, V-B:ASP:366:CG:8184, V-B:TYR:539:CE2:9848, V-A:TYR:484:CE2:4346, V-A:LEU:475:CG:4257, V-B:GLU:543:CG:9879, V-A:GLY:544:C:4912, V-B:LEU:475:CD2:9230, V-A:ALA:541:CB:4892, V-A:LEU:475:CD1:4258, V-A:GLU:543:CD:4908, V-A:TYR:484:CZ:4347, V-B:HIS:456:CE1:9041, V-B:GLU:543:CA:9876, V-A:HIS:456:CE1:4070, V-A:PRO:482:CB:4326, V-B:TYR:539:CD2:9846, V-A:GLU:543:CG:4907, H-A:SER:385:OG:3410, V-B:GLU:543:CD:9880, V-A:LEU:475:CD2:4259, H-A:GLU:543:OE1:4909, V-A:GLU:543:CB:4906, H-A:HIS:383:HE2:3395, H-B:GLY:544:O:9885, H-A:TYR:539:O:4868, V-A:PRO:540:CB:4885, V-A:PRO:540:CA:4883, H-A:ASP:366:OD2:3215, H-A:TYR:484:OH:4348"]

$$$$
ZINC2356811089
     RDKit          3D

 73 76  0  0  0  0  0  0  0  0999 V2000
  129.7960  128.0000   59.4880 C   0  0  0  0  0  0  0  0  0  0  0  0
  131.0490  127.4520   58.8150 C   0  0  0  0  0  0  0  0  0  0  0  0
  132.0230  128.2230   58.2850 C   0  0  0  0  0  0  0  0  0  0  0  0
  132.1030  129.7450   58.2710 C   0  0  0  0  0  0  0  0  0  0  0  0
  130.8430  130.4370   58.5330 N   0  0  0  0  0  0  0  0  0  0  0  0
  130.3740  131.1310   57.3410 C   0  0  0  0  0  0  0  0  0  0  0  0
  129.3510  132.0290   57.8370 N   0  0  0  0  0  0  0  0  0  0  0  0
  128.8720  132.9810   56.8470 C   0  0  0  0  0  0  0  0  0  0  0  0
  129.6530  132.2400   59.1750 C   0  0  0  0  0  0  0  0  0  0  0  0
  129.0760  133.1820   59.9630 N   0  0  0  0  0  0  0  0  0  0  0  0
  129.4670  133.1320   61.2630 C   0  0  0  0  0  0  0  0  0  0  0  0
  130.3300  132.2320   61.8170 N   0  0  0  0  0  0  0  0  0  0  0  0
  130.8590  131.2910   60.9860 C   0  0  0  0  0  0  0  0  0  0  0  0
  131.7090  130.3500   61.5640 N   0  0  0  0  0  0  0  0  0  0  0  0
  130.5530  131.2720   59.6170 C   0  0  0  0  0  0  0  0  0  0  0  0
  131.1200  125.9310   58.7390 C   0  0  0  0  0  0  0  0  0  0  0  0
  132.2490  125.3180   59.6070 C   0  0  0  0  0  0  0  0  0  0  0  0
  132.0330  125.3230   61.1630 C   0  0  1  0  0  0  0  0  0  0  0  0
  131.6760  126.7580   61.6500 C   0  0  0  0  0  0  0  0  0  0  0  0
  130.8790  124.2840   61.5250 C   0  0  2  0  0  0  0  0  0  0  0  0
  129.5230  124.4920   60.7800 C   0  0  0  0  0  0  0  0  0  0  0  0
  128.5410  123.3140   60.9400 C   0  0  0  0  0  0  0  0  0  0  0  0
  128.3720  122.9020   62.4050 C   0  0  0  0  0  0  0  0  0  0  0  0
  127.2630  122.7390   62.9150 O   0  0  0  0  0  0  0  0  0  0  0  0
  129.7150  122.7020   63.1490 C   0  0  2  0  0  0  0  0  0  0  0  0
  129.4770  122.1040   64.5640 C   0  0  0  0  0  0  0  0  0  0  0  0
  130.6310  123.9900   63.0720 C   0  0  2  0  0  0  0  0  0  0  0  0
  129.9500  125.1720   63.8390 C   0  0  0  0  0  0  0  0  0  0  0  0
  132.0040  123.6750   63.7490 C   0  0  0  0  0  0  0  0  0  0  0  0
  133.1250  124.6820   63.4110 C   0  0  0  0  0  0  0  0  0  0  0  0
  133.3450  124.8130   61.8830 C   0  0  1  0  0  0  0  0  0  0  0  0
  133.9720  123.5060   61.3190 C   0  0  0  0  0  0  0  0  0  0  0  0
  129.9141  127.9483   60.5804 H   0  0  0  0  0  0  0  0  0  0  0  0
  129.6447  129.0465   59.1846 H   0  0  0  0  0  0  0  0  0  0  0  0
  128.9249  127.4007   59.1846 H   0  0  0  0  0  0  0  0  0  0  0  0
  132.8575  127.6892   57.8067 H   0  0  0  0  0  0  0  0  0  0  0  0
  132.8273  130.0547   59.0388 H   0  0  0  0  0  0  0  0  0  0  0  0
  132.3985  130.0256   57.2493 H   0  0  0  0  0  0  0  0  0  0  0  0
  131.1927  131.6939   56.8689 H   0  0  0  0  0  0  0  0  0  0  0  0
  129.9953  130.4419   56.5718 H   0  0  0  0  0  0  0  0  0  0  0  0
  128.4340  133.8515   57.3573 H   0  0  0  0  0  0  0  0  0  0  0  0
  129.7122  133.3094   56.2175 H   0  0  0  0  0  0  0  0  0  0  0  0
  128.1076  132.5020   56.2175 H   0  0  0  0  0  0  0  0  0  0  0  0
  129.0458  133.8931   61.9363 H   0  0  0  0  0  0  0  0  0  0  0  0
  132.6230  130.1950   61.1640 H   0  0  0  0  0  0  0  0  0  0  0  0
  131.3950  129.8300   62.3700 H   0  0  0  0  0  0  0  0  0  0  0  0
  130.1579  125.5205   59.0794 H   0  0  0  0  0  0  0  0  0  0  0  0
  131.3396  125.6703   57.6932 H   0  0  0  0  0  0  0  0  0  0  0  0
  132.3783  124.2717   59.2930 H   0  0  0  0  0  0  0  0  0  0  0  0
  133.1232  125.9637   59.4373 H   0  0  0  0  0  0  0  0  0  0  0  0
  131.6702  126.7811   62.7497 H   0  0  0  0  0  0  0  0  0  0  0  0
  132.4243  127.4702   61.2722 H   0  0  0  0  0  0  0  0  0  0  0  0
  130.6812  127.0365   61.2722 H   0  0  0  0  0  0  0  0  0  0  0  0
  131.3366  123.3695   61.1196 H   0  0  0  0  0  0  0  0  0  0  0  0
  129.0444  125.3995   61.1767 H   0  0  0  0  0  0  0  0  0  0  0  0
  129.7545  124.5742   59.7078 H   0  0  0  0  0  0  0  0  0  0  0  0
  127.5607  123.6121   60.5397 H   0  0  0  0  0  0  0  0  0  0  0  0
  128.9506  122.4536   60.3905 H   0  0  0  0  0  0  0  0  0  0  0  0
  130.3166  121.9413   62.6299 H   0  0  0  0  0  0  0  0  0  0  0  0
  129.7699  122.8401   65.3272 H   0  0  0  0  0  0  0  0  0  0  0  0
  128.4118  121.8565   64.6831 H   0  0  0  0  0  0  0  0  0  0  0  0
  130.0808  121.1923   64.6831 H   0  0  0  0  0  0  0  0  0  0  0  0
  130.0442  125.0085   64.9227 H   0  0  0  0  0  0  0  0  0  0  0  0
  130.4418  126.1175   63.5667 H   0  0  0  0  0  0  0  0  0  0  0  0
  128.8854  125.2208   63.5667 H   0  0  0  0  0  0  0  0  0  0  0  0
  131.8585  123.6746   64.8393 H   0  0  0  0  0  0  0  0  0  0  0  0
  132.3300  122.6987   63.3609 H   0  0  0  0  0  0  0  0  0  0  0  0
  132.8515  125.6673   63.8163 H   0  0  0  0  0  0  0  0  0  0  0  0
  134.0597  124.3135   63.8588 H   0  0  0  0  0  0  0  0  0  0  0  0
  134.0851  125.5968   61.6640 H   0  0  0  0  0  0  0  0  0  0  0  0
  134.2824  122.8589   62.1526 H   0  0  0  0  0  0  0  0  0  0  0  0
  133.2287  122.9790   60.7028 H   0  0  0  0  0  0  0  0  0  0  0  0
  134.8483  123.7559   60.7028 H   0  0  0  0  0  0  0  0  0  0  0  0
  1  2  1  0
  2  3  2  0
  3  4  1  0
  4  5  1  0
  5  6  1  0
  6  7  1  0
  7  8  1  0
  7  9  1  0
  9 10  2  0
 10 11  1  0
 11 12  2  0
 12 13  1  0
 13 14  1  0
 13 15  2  0
  2 16  1  0
 16 17  1  0
 18 17  1  6
 18 19  1  0
 18 20  1  0
 20 21  1  0
 21 22  1  0
 22 23  1  0
 23 24  2  0
 23 25  1  0
 25 26  1  0
 25 27  1  0
 27 28  1  1
 27 29  1  0
 29 30  1  0
 30 31  1  0
 31 32  1  0
 15  5  1  0
 31 18  1  0
 15  9  1  0
 27 20  1  0
  1 33  1  0
  1 34  1  0
  1 35  1  0
  3 36  1  0
  4 37  1  0
  4 38  1  0
  6 39  1  0
  6 40  1  0
  8 41  1  0
  8 42  1  0
  8 43  1  0
 11 44  1  0
 14 45  1  0
 14 46  1  0
 16 47  1  0
 16 48  1  0
 17 49  1  0
 17 50  1  0
 19 51  1  0
 19 52  1  0
 19 53  1  0
 20 54  1  6
 21 55  1  0
 21 56  1  0
 22 57  1  0
 22 58  1  0
 25 59  1  6
 26 60  1  0
 26 61  1  0
 26 62  1  0
 28 63  1  0
 28 64  1  0
 28 65  1  0
 29 66  1  0
 29 67  1  0
 30 68  1  0
 30 69  1  0
 31 70  1  1
 32 71  1  0
 32 72  1  0
 32 73  1  0
M  END
>  <Binding energies>  (1) 
[-8.67]

>  <Ligand effiencies>  (1) 
[-0.255]

>  <Interactions>  (1) 
["V-A:ILE:369:CG2:3237, H-A:ALA:541:N:4891, V-A:PRO:540:C:4881, V-B:ALA:541:CB:9864, V-A:TYR:484:CE2:4346, V-B:GLU:543:CG:9879, V-A:ASP:366:CG:3213, V-A:TYR:539:CD1:4873, H-B:ALA:541:N:9863, V-A:GLU:543:CD:4908, V-A:ILE:369:CD1:3239, V-A:TYR:531:CZ:4794, V-B:GLU:543:CD:9880, V-A:TYR:539:C:4867, V-A:ASP:366:CB:3212, V-A:LEU:475:CD2:4259, V-A:ARG:545:CZ:4926, H-A:GLU:543:OE1:4909, V-A:PRO:540:N:4884, V-A:TYR:539:CG:4872, V-A:PRO:540:CA:4883, H-A:ASP:366:OD2:3215, V-A:TYR:539:CE1:4875"]

$$$$
ZINC2356811124
     RDKit          3D

 57 59  0  0  0  0  0  0  0  0999 V2000
  129.7720  127.5030   72.2160 C   0  0  0  0  0  0  0  0  0  0  0  0
  130.2710  128.1120   70.9120 C   0  0  0  0  0  0  0  0  0  0  0  0
  131.4650  128.0720   70.6060 O   0  0  0  0  0  0  0  0  0  0  0  0
  129.2610  128.6690   70.1900 O   0  0  0  0  0  0  0  0  0  0  0  0
  129.1010  128.3150   68.8710 C   0  0  0  0  0  0  0  0  0  0  0  0
  128.3600  129.1290   68.0060 C   0  0  0  0  0  0  0  0  0  0  0  0
  128.1850  128.7620   66.6720 C   0  0  0  0  0  0  0  0  0  0  0  0
  128.7340  127.5680   66.2080 C   0  0  0  0  0  0  0  0  0  0  0  0
  128.5350  127.2510   64.8800 O   0  0  0  0  0  0  0  0  0  0  0  0
  129.4130  126.3810   64.2630 C   0  0  0  0  0  0  0  0  0  0  0  0
  129.4940  126.4670   62.8750 C   0  0  0  0  0  0  0  0  0  0  0  0
  130.3620  125.6250   62.1660 C   0  0  0  0  0  0  0  0  0  0  0  0
  130.5070  125.6280   60.7910 O   0  0  0  0  0  0  0  0  0  0  0  0
  129.8130  124.6560   60.0140 C   0  0  0  0  0  0  0  0  0  0  0  0
  130.5280  123.3200   60.1100 C   0  0  0  0  0  0  0  0  0  0  0  0
  130.2580  122.2910   60.9430 C   0  0  0  0  0  0  0  0  0  0  0  0
  129.1060  122.2750   61.9420 C   0  0  0  0  0  0  0  0  0  0  0  0
  131.0960  121.0180   60.9150 C   0  0  0  0  0  0  0  0  0  0  0  0
  132.5900  121.2480   60.6270 C   0  0  0  0  0  0  0  0  0  0  0  0
  133.2440  122.2210   61.5970 C   0  0  0  0  0  0  0  0  0  0  0  0
  133.8330  123.4020   61.3110 C   0  0  0  0  0  0  0  0  0  0  0  0
  134.4660  124.2500   62.4030 C   0  0  0  0  0  0  0  0  0  0  0  0
  133.9190  124.0150   59.9200 C   0  0  0  0  0  0  0  0  0  0  0  0
  131.1440  124.7150   62.8780 C   0  0  0  0  0  0  0  0  0  0  0  0
  131.0830  124.6380   64.2720 C   0  0  0  0  0  0  0  0  0  0  0  0
  131.9070  123.7290   64.8880 O   0  0  0  0  0  0  0  0  0  0  0  0
  130.2130  125.4800   64.9910 C   0  0  0  0  0  0  0  0  0  0  0  0
  130.1190  125.5150   66.4910 C   0  0  0  0  0  0  0  0  0  0  0  0
  130.6610  124.6780   67.2180 O   0  0  0  0  0  0  0  0  0  0  0  0
  129.4870  126.7410   67.0570 C   0  0  0  0  0  0  0  0  0  0  0  0
  129.6550  127.1220   68.3950 C   0  0  0  0  0  0  0  0  0  0  0  0
  130.2146  128.0431   73.0659 H   0  0  0  0  0  0  0  0  0  0  0  0
  128.6758  127.5823   72.2619 H   0  0  0  0  0  0  0  0  0  0  0  0
  130.0653  126.4438   72.2619 H   0  0  0  0  0  0  0  0  0  0  0  0
  127.9138  130.0622   68.3802 H   0  0  0  0  0  0  0  0  0  0  0  0
  127.6168  129.4114   65.9898 H   0  0  0  0  0  0  0  0  0  0  0  0
  128.8751  127.1977   62.3338 H   0  0  0  0  0  0  0  0  0  0  0  0
  128.7861  124.5495   60.3937 H   0  0  0  0  0  0  0  0  0  0  0  0
  129.7861  124.9805   58.9633 H   0  0  0  0  0  0  0  0  0  0  0  0
  131.3688  123.1717   59.4164 H   0  0  0  0  0  0  0  0  0  0  0  0
  129.5084  122.2806   62.9658 H   0  0  0  0  0  0  0  0  0  0  0  0
  128.4768  123.1645   61.7904 H   0  0  0  0  0  0  0  0  0  0  0  0
  128.5018  121.3684   61.7904 H   0  0  0  0  0  0  0  0  0  0  0  0
  131.0061  120.5251   61.8942 H   0  0  0  0  0  0  0  0  0  0  0  0
  130.7075  120.4039   60.0892 H   0  0  0  0  0  0  0  0  0  0  0  0
  133.1120  120.2822   60.6952 H   0  0  0  0  0  0  0  0  0  0  0  0
  132.6654  121.6880   59.6216 H   0  0  0  0  0  0  0  0  0  0  0  0
  133.2360  121.9275   62.6571 H   0  0  0  0  0  0  0  0  0  0  0  0
  134.1731  123.8576   63.3880 H   0  0  0  0  0  0  0  0  0  0  0  0
  135.5611  124.2156   62.3055 H   0  0  0  0  0  0  0  0  0  0  0  0
  134.1217  125.2901   62.3055 H   0  0  0  0  0  0  0  0  0  0  0  0
  134.0714  125.1009   60.0067 H   0  0  0  0  0  0  0  0  0  0  0  0
  134.7633  123.5687   59.3742 H   0  0  0  0  0  0  0  0  0  0  0  0
  132.9845  123.8183   59.3742 H   0  0  0  0  0  0  0  0  0  0  0  0
  131.8226  124.0442   62.3307 H   0  0  0  0  0  0  0  0  0  0  0  0
  131.5890  123.4590   65.7520 H   0  0  0  0  0  0  0  0  0  0  0  0
  130.2279  126.4769   69.0774 H   0  0  0  0  0  0  0  0  0  0  0  0
  1  2  1  0
  2  3  2  0
  2  4  1  0
  4  5  1  0
  5  6  2  0
  6  7  1  0
  7  8  2  0
  8  9  1  0
  9 10  1  0
 10 11  2  0
 11 12  1  0
 12 13  1  0
 13 14  1  0
 14 15  1  0
 15 16  2  0
 16 17  1  0
 16 18  1  0
 18 19  1  0
 19 20  1  0
 20 21  2  3
 21 22  1  0
 21 23  1  0
 12 24  2  0
 24 25  1  0
 25 26  1  0
 25 27  2  0
 27 28  1  0
 28 29  2  0
 28 30  1  0
 30 31  2  0
 31  5  1  0
 30  8  1  0
 27 10  1  0
  1 32  1  0
  1 33  1  0
  1 34  1  0
  6 35  1  0
  7 36  1  0
 11 37  1  0
 14 38  1  0
 14 39  1  0
 15 40  1  0
 17 41  1  0
 17 42  1  0
 17 43  1  0
 18 44  1  0
 18 45  1  0
 19 46  1  0
 19 47  1  0
 20 48  1  0
 22 49  1  0
 22 50  1  0
 22 51  1  0
 23 52  1  0
 23 53  1  0
 23 54  1  0
 24 55  1  0
 26 56  1  0
 31 57  1  0
M  END
>  <Binding energies>  (1) 
[-6.07]

>  <Ligand effiencies>  (1) 
[-0.1896875]

>  <Interactions>  (1) 
["V-A:ILE:369:CG2:3237, V-A:ASP:366:CA:3210, V-A:GLU:543:CA:4904, V-A:ILE:369:CB:3236, V-A:GLU:543:C:4902, V-B:GLU:543:CB:9878, V-B:ALA:541:CB:9864, V-B:TYR:539:CE2:9848, V-B:GLU:543:CG:9879, V-A:GLY:544:C:4912, H-A:ARG:545:N:4920, V-A:GLU:543:CD:4908, V-B:HIS:456:CE1:9041, V-A:GLY:453:C:4042, V-A:HIS:456:CE1:4070, V-A:ILE:369:CD1:3239, V-B:TYR:539:CD2:9846, V-A:GLU:543:CG:4907, V-B:GLU:543:CD:9880, V-A:LEU:475:CD2:4259, V-A:GLU:543:CB:4906, V-A:GLY:453:CA:4044, H-A:TYR:484:OH:4348"]

$$$$
ZINC2356812950
     RDKit          3D

 79 82  0  0  0  0  0  0  0  0999 V2000
  130.6270  127.3660   72.3750 C   0  0  0  0  0  0  0  0  0  0  0  0
  130.7720  128.2350   71.1150 C   0  0  0  0  0  0  0  0  0  0  0  0
  130.6350  127.4620   69.7740 C   0  0  2  0  0  0  0  0  0  0  0  0
  131.8270  127.7210   68.8260 C   0  0  0  0  0  0  0  0  0  0  0  0
  129.2820  127.7210   69.0410 C   0  0  2  0  0  0  0  0  0  0  0  0
  128.3030  128.0780   70.0280 O   0  0  0  0  0  0  0  0  0  0  0  0
  127.5070  127.1600   70.6230 C   0  0  0  0  0  0  0  0  0  0  0  0
  126.2290  126.9100   69.8330 C   0  0  0  0  0  0  0  0  0  0  0  0
  127.7300  126.5740   71.6830 O   0  0  0  0  0  0  0  0  0  0  0  0
  128.7440  126.5610   68.1380 C   0  0  2  0  0  0  0  0  0  0  0  0
  129.4800  125.2230   68.3900 C   0  0  0  0  0  0  0  0  0  0  0  0
  128.7370  126.9430   66.6410 C   0  0  0  0  0  0  0  0  0  0  0  0
  129.1710  126.0890   65.6780 C   0  0  0  0  0  0  0  0  0  0  0  0
  129.2240  126.3770   64.2420 C   0  0  0  0  0  0  0  0  0  0  0  0
  129.6100  125.5460   63.4200 O   0  0  0  0  0  0  0  0  0  0  0  0
  128.7750  127.7520   63.9230 C   0  0  0  0  0  0  0  0  0  0  0  0
  128.3220  128.6210   64.8670 C   0  0  0  0  0  0  0  0  0  0  0  0
  127.9220  129.9010   64.6030 O   0  0  0  0  0  0  0  0  0  0  0  0
  127.8630  130.3840   63.2360 C   0  0  2  0  0  0  0  0  0  0  0  0
  128.4240  129.4170   62.1620 C   0  0  0  0  0  0  0  0  0  0  0  0
  128.8280  128.1930   62.5460 C   0  0  0  0  0  0  0  0  0  0  0  0
  128.4830  129.9650   60.7140 C   0  0  2  0  0  0  0  0  0  0  0  0
  127.0250  130.1270   60.1920 C   0  0  0  0  0  0  0  0  0  0  0  0
  129.2800  129.0700   59.7180 C   0  0  0  0  0  0  0  0  0  0  0  0
  129.5110  129.7500   58.3480 C   0  0  0  0  0  0  0  0  0  0  0  0
  130.0350  131.2120   58.4650 C   0  0  2  0  0  0  0  0  0  0  0  0
  131.5910  131.3910   58.6080 C   0  0  0  0  0  0  0  0  0  0  0  0
  132.1180  132.4660   57.6290 C   0  0  0  0  0  0  0  0  0  0  0  0
  131.9890  131.7720   60.0510 C   0  0  0  0  0  0  0  0  0  0  0  0
  132.2940  130.2050   58.2840 O   0  0  0  0  0  0  0  0  0  0  0  0
  129.2770  131.9010   59.4730 O   0  0  0  0  0  0  0  0  0  0  0  0
  129.2640  131.3160   60.7770 C   0  0  1  0  0  0  0  0  0  0  0  0
  128.6100  132.3140   61.7490 C   0  0  0  0  0  0  0  0  0  0  0  0
  128.6240  131.7390   63.1830 C   0  0  1  0  0  0  0  0  0  0  0  0
  128.0580  132.7620   64.1870 C   0  0  0  0  0  0  0  0  0  0  0  0
  128.2450  128.3120   66.3130 C   0  0  0  0  0  0  0  0  0  0  0  0
  127.8300  129.1220   67.1450 O   0  0  0  0  0  0  0  0  0  0  0  0
  130.7323  127.9971   73.2698 H   0  0  0  0  0  0  0  0  0  0  0  0
  129.6366  126.8874   72.3784 H   0  0  0  0  0  0  0  0  0  0  0  0
  131.4084  126.5918   72.3784 H   0  0  0  0  0  0  0  0  0  0  0  0
  129.9942  129.0123   71.1435 H   0  0  0  0  0  0  0  0  0  0  0  0
  131.7931  128.6437   71.1352 H   0  0  0  0  0  0  0  0  0  0  0  0
  130.6444  126.3988   70.0559 H   0  0  0  0  0  0  0  0  0  0  0  0
  132.7318  127.9176   69.4199 H   0  0  0  0  0  0  0  0  0  0  0  0
  131.9897  126.8372   68.1916 H   0  0  0  0  0  0  0  0  0  0  0  0
  131.6083  128.5926   68.1916 H   0  0  0  0  0  0  0  0  0  0  0  0
  129.4777  128.5328   68.3250 H   0  0  0  0  0  0  0  0  0  0  0  0
  125.3934  126.7465   70.5295 H   0  0  0  0  0  0  0  0  0  0  0  0
  126.0129  127.7829   69.1995 H   0  0  0  0  0  0  0  0  0  0  0  0
  126.3577  126.0200   69.1995 H   0  0  0  0  0  0  0  0  0  0  0  0
  127.6963  126.4018   68.4328 H   0  0  0  0  0  0  0  0  0  0  0  0
  129.5730  125.0540   69.4730 H   0  0  0  0  0  0  0  0  0  0  0  0
  128.9081  124.3992   67.9381 H   0  0  0  0  0  0  0  0  0  0  0  0
  130.4820  125.2649   67.9381 H   0  0  0  0  0  0  0  0  0  0  0  0
  129.5122  125.0954   66.0041 H   0  0  0  0  0  0  0  0  0  0  0  0
  126.7983  130.4858   62.9791 H   0  0  0  0  0  0  0  0  0  0  0  0
  129.2137  127.5003   61.7835 H   0  0  0  0  0  0  0  0  0  0  0  0
  126.3361  130.2035   61.0462 H   0  0  0  0  0  0  0  0  0  0  0  0
  126.9536  131.0386   59.5805 H   0  0  0  0  0  0  0  0  0  0  0  0
  126.7553  129.2533   59.5805 H   0  0  0  0  0  0  0  0  0  0  0  0
  130.2584  128.8357   60.1627 H   0  0  0  0  0  0  0  0  0  0  0  0
  128.6831  128.1634   59.5394 H   0  0  0  0  0  0  0  0  0  0  0  0
  130.2485  129.1590   57.7851 H   0  0  0  0  0  0  0  0  0  0  0  0
  128.5373  129.7933   57.8381 H   0  0  0  0  0  0  0  0  0  0  0  0
  129.8638  131.6835   57.4861 H   0  0  0  0  0  0  0  0  0  0  0  0
  132.5319  133.3103   58.1997 H   0  0  0  0  0  0  0  0  0  0  0  0
  132.9049  132.0308   56.9955 H   0  0  0  0  0  0  0  0  0  0  0  0
  131.2920  132.8215   56.9955 H   0  0  0  0  0  0  0  0  0  0  0  0
  131.3836  131.1925   60.7635 H   0  0  0  0  0  0  0  0  0  0  0  0
  133.0545  131.5486   60.2086 H   0  0  0  0  0  0  0  0  0  0  0  0
  131.8123  132.8462   60.2086 H   0  0  0  0  0  0  0  0  0  0  0  0
  132.7930  129.9260   59.0560 H   0  0  0  0  0  0  0  0  0  0  0  0
  130.2822  131.1018   61.1340 H   0  0  0  0  0  0  0  0  0  0  0  0
  129.1695  133.2609   61.7304 H   0  0  0  0  0  0  0  0  0  0  0  0
  127.5691  132.4905   61.4402 H   0  0  0  0  0  0  0  0  0  0  0  0
  129.6659  131.5409   63.4749 H   0  0  0  0  0  0  0  0  0  0  0  0
  128.2504  132.4142   65.2127 H   0  0  0  0  0  0  0  0  0  0  0  0
  128.5457  133.7358   64.0325 H   0  0  0  0  0  0  0  0  0  0  0  0
  126.9739  132.8662   64.0325 H   0  0  0  0  0  0  0  0  0  0  0  0
  1  2  1  0
  2  3  1  0
  3  4  1  0
  3  5  1  0
  5  6  1  0
  6  7  1  0
  7  8  1  0
  7  9  2  0
  5 10  1  0
 10 11  1  0
 10 12  1  0
 12 13  2  0
 13 14  1  0
 14 15  2  0
 14 16  1  0
 16 17  2  0
 17 18  1  0
 18 19  1  0
 19 20  1  0
 20 21  2  0
 20 22  1  0
 22 23  1  6
 22 24  1  0
 24 25  1  0
 25 26  1  0
 26 27  1  0
 27 28  1  0
 27 29  1  0
 27 30  1  0
 26 31  1  0
 31 32  1  0
 32 33  1  0
 33 34  1  0
 34 35  1  0
 17 36  1  0
 36 37  2  0
 36 12  1  0
 21 16  1  0
 32 22  1  0
 34 19  1  0
  1 38  1  0
  1 39  1  0
  1 40  1  0
  2 41  1  0
  2 42  1  0
  3 43  1  1
  4 44  1  0
  4 45  1  0
  4 46  1  0
  5 47  1  6
  8 48  1  0
  8 49  1  0
  8 50  1  0
 10 51  1  1
 11 52  1  0
 11 53  1  0
 11 54  1  0
 13 55  1  0
 19 56  1  6
 21 57  1  0
 23 58  1  0
 23 59  1  0
 23 60  1  0
 24 61  1  0
 24 62  1  0
 25 63  1  0
 25 64  1  0
 26 65  1  6
 28 66  1  0
 28 67  1  0
 28 68  1  0
 29 69  1  0
 29 70  1  0
 29 71  1  0
 30 72  1  0
 32 73  1  1
 33 74  1  0
 33 75  1  0
 34 76  1  1
 35 77  1  0
 35 78  1  0
 35 79  1  0
M  END
>  <Binding energies>  (1) 
[-7.3]

>  <Ligand effiencies>  (1) 
[-0.19210526315789472]

>  <Interactions>  (1) 
["V-A:ARG:545:CA:4919, V-A:PRO:540:CG:4886, V-B:GLU:543:C:9874, V-B:HIS:456:CD2:9039, V-A:GLU:543:C:4902, V-B:GLU:543:CB:9878, H-A:TYR:531:OH:4795, V-A:TYR:484:CE2:4346, V-A:GLY:544:CA:4914, V-B:GLU:543:CG:9879, V-A:GLY:544:C:4912, V-B:LEU:475:CD2:9230, V-A:HIS:456:CD2:4068, V-A:LEU:363:CD1:3189, V-B:TYR:484:CE2:9317, V-A:ALA:541:CB:4892, V-B:ARG:545:CG:9894, V-A:GLU:543:CD:4908, H-B:TYR:484:OH:9319, V-A:ARG:545:CG:4922, V-B:HIS:456:CE1:9041, V-B:GLU:543:CA:9876, V-A:HIS:456:CE1:4070, V-B:TYR:484:CZ:9318, V-B:GLY:544:C:9884, V-B:GLY:544:CA:9886, V-A:GLU:543:CG:4907, V-B:GLU:543:CD:9880, V-A:GLU:543:CB:4906, V-A:PRO:540:N:4884, V-A:PRO:540:CB:4885, V-A:PRO:540:CA:4883, V-B:ARG:545:CA:9891, H-A:ASP:366:OD2:3215, V-A:PRO:540:CD:4887"]

$$$$
ZINC2356813566
     RDKit          3D

101108  0  0  0  0  0  0  0  0999 V2000
  133.5060  130.7820   58.4260 C   0  0  0  0  0  0  0  0  0  0  0  0
  132.1260  130.7940   58.7690 O   0  0  0  0  0  0  0  0  0  0  0  0
  131.4360  132.0320   58.5680 C   0  0  1  0  0  0  0  0  0  0  0  0
  130.5900  132.0500   57.2760 C   0  0  0  0  0  0  0  0  0  0  0  0
  129.4080  131.0720   57.3570 C   0  0  1  0  0  0  0  0  0  0  0  0
  129.9160  129.7690   57.3120 O   0  0  0  0  0  0  0  0  0  0  0  0
  129.7090  128.9210   58.4460 C   0  0  2  0  0  0  0  0  0  0  0  0
  130.6580  127.7060   58.3050 C   0  0  2  0  0  0  0  0  0  0  0  0
  132.1410  128.0950   58.2130 C   0  0  0  0  0  0  0  0  0  0  0  0
  130.3160  126.9260   57.1500 O   0  0  0  0  0  0  0  0  0  0  0  0
  129.0110  126.3890   57.1520 C   0  0  1  0  0  0  0  0  0  0  0  0
  128.8280  125.4590   58.1820 O   0  0  0  0  0  0  0  0  0  0  0  0
  129.1590  125.8920   59.5010 C   0  0  1  0  0  0  0  0  0  0  0  0
  127.9210  125.7120   60.4030 C   0  0  0  0  0  0  0  0  0  0  0  0
  128.2340  126.1520   61.8520 C   0  0  0  0  0  0  0  0  0  0  0  0
  129.4550  125.4100   62.4900 C   0  0  1  0  0  0  0  0  0  0  0  0
  129.1050  123.9090   62.7100 C   0  0  0  0  0  0  0  0  0  0  0  0
  130.6830  125.6150   61.5200 C   0  0  1  0  0  0  0  0  0  0  0  0
  131.9770  124.9690   62.0850 C   0  0  0  0  0  0  0  0  0  0  0  0
  132.3680  125.5320   63.4670 C   0  0  0  0  0  0  0  0  0  0  0  0
  131.1660  125.4810   64.4390 C   0  0  1  0  0  0  0  0  0  0  0  0
  131.1240  124.2950   65.1850 O   0  0  0  0  0  0  0  0  0  0  0  0
  131.3580  125.4670   65.9410 C   0  0  1  0  0  0  0  0  0  0  0  0
  132.7450  125.5390   66.5570 C   0  0  0  0  0  0  0  0  0  0  0  0
  132.4700  126.3660   67.7900 C   0  0  0  0  0  0  0  0  0  0  0  0
  131.1510  126.5970   67.9890 C   0  0  0  0  0  0  0  0  0  0  0  0
  130.6770  127.3580   69.1450 C   0  0  0  0  0  0  0  0  0  0  0  0
  131.3880  127.6950   70.2290 C   0  0  0  0  0  0  0  0  0  0  0  0
  130.5320  128.4450   71.1220 C   0  0  0  0  0  0  0  0  0  0  0  0
  130.8370  128.9180   72.2150 O   0  0  0  0  0  0  0  0  0  0  0  0
  129.3170  128.5490   70.5590 O   0  0  0  0  0  0  0  0  0  0  0  0
  129.2830  127.9040   69.3040 C   0  0  0  0  0  0  0  0  0  0  0  0
  130.2670  125.9320   66.9210 C   0  0  2  0  0  0  0  0  0  0  0  0
  129.5340  124.7150   67.5430 C   0  0  0  0  0  0  0  0  0  0  0  0
  129.2820  126.8940   66.2070 C   0  0  0  0  0  0  0  0  0  0  0  0
  128.7320  126.3290   64.8840 C   0  0  0  0  0  0  0  0  0  0  0  0
  129.8600  126.0880   63.8500 C   0  0  2  0  0  0  0  0  0  0  0  0
  130.3630  125.1230   60.0860 C   0  0  0  0  0  0  0  0  0  0  0  0
  127.9600  127.4980   57.3190 C   0  0  0  0  0  0  0  0  0  0  0  0
  128.2640  128.3730   58.5480 C   0  0  2  0  0  0  0  0  0  0  0  0
  127.2480  129.3620   58.6950 O   0  0  0  0  0  0  0  0  0  0  0  0
  125.9320  128.8600   58.9000 C   0  0  0  0  0  0  0  0  0  0  0  0
  128.6320  131.3140   58.5090 O   0  0  0  0  0  0  0  0  0  0  0  0
  129.3410  131.2730   59.7550 C   0  0  2  0  0  0  0  0  0  0  0  0
  128.3110  131.5220   60.8700 C   0  0  0  0  0  0  0  0  0  0  0  0
  130.5020  132.2960   59.7600 C   0  0  1  0  0  0  0  0  0  0  0  0
  131.2270  132.3150   60.9780 O   0  0  0  0  0  0  0  0  0  0  0  0
  134.1120  130.7767   59.3440 H   0  0  0  0  0  0  0  0  0  0  0  0
  133.7289  129.8819   57.8343 H   0  0  0  0  0  0  0  0  0  0  0  0
  133.7446  131.6781   57.8343 H   0  0  0  0  0  0  0  0  0  0  0  0
  132.2065  132.8118   58.4772 H   0  0  0  0  0  0  0  0  0  0  0  0
  130.2011  133.0669   57.1187 H   0  0  0  0  0  0  0  0  0  0  0  0
  131.2344  131.7406   56.4399 H   0  0  0  0  0  0  0  0  0  0  0  0
  128.7293  131.2154   56.5033 H   0  0  0  0  0  0  0  0  0  0  0  0
  129.9021  129.5224   59.3465 H   0  0  0  0  0  0  0  0  0  0  0  0
  130.5222  127.1181   59.2247 H   0  0  0  0  0  0  0  0  0  0  0  0
  132.5551  128.2036   59.2263 H   0  0  0  0  0  0  0  0  0  0  0  0
  132.6929  127.3112   57.6734 H   0  0  0  0  0  0  0  0  0  0  0  0
  132.2371  129.0487   57.6734 H   0  0  0  0  0  0  0  0  0  0  0  0
  128.8842  125.8856   56.1822 H   0  0  0  0  0  0  0  0  0  0  0  0
  129.4528  126.9511   59.4553 H   0  0  0  0  0  0  0  0  0  0  0  0
  127.0955  126.3236   60.0099 H   0  0  0  0  0  0  0  0  0  0  0  0
  127.6382  124.6490   60.4087 H   0  0  0  0  0  0  0  0  0  0  0  0
  128.4480  127.2310   61.8478 H   0  0  0  0  0  0  0  0  0  0  0  0
  127.3530  125.8986   62.4600 H   0  0  0  0  0  0  0  0  0  0  0  0
  129.0559  123.6982   63.7885 H   0  0  0  0  0  0  0  0  0  0  0  0
  128.1312  123.6881   62.2485 H   0  0  0  0  0  0  0  0  0  0  0  0
  129.8806  123.2802   62.2485 H   0  0  0  0  0  0  0  0  0  0  0  0
  130.8724  126.6965   61.4536 H   0  0  0  0  0  0  0  0  0  0  0  0
  131.8172  123.8847   62.1789 H   0  0  0  0  0  0  0  0  0  0  0  0
  132.7959  125.2001   61.3879 H   0  0  0  0  0  0  0  0  0  0  0  0
  133.1925  124.9328   63.8808 H   0  0  0  0  0  0  0  0  0  0  0  0
  132.6804  126.5797   63.3462 H   0  0  0  0  0  0  0  0  0  0  0  0
  133.1239  124.5396   66.8171 H   0  0  0  0  0  0  0  0  0  0  0  0
  133.5151  125.9578   65.8925 H   0  0  0  0  0  0  0  0  0  0  0  0
  133.2595  126.7418   68.4574 H   0  0  0  0  0  0  0  0  0  0  0  0
  132.4437  127.4440   70.4095 H   0  0  0  0  0  0  0  0  0  0  0  0
  128.5410  127.0920   69.3004 H   0  0  0  0  0  0  0  0  0  0  0  0
  128.9940  128.5796   68.4854 H   0  0  0  0  0  0  0  0  0  0  0  0
  129.5753  124.7836   68.6401 H   0  0  0  0  0  0  0  0  0  0  0  0
  128.4840  124.7125   67.2150 H   0  0  0  0  0  0  0  0  0  0  0  0
  130.0228  123.7857   67.2150 H   0  0  0  0  0  0  0  0  0  0  0  0
  128.4356  127.0912   66.8814 H   0  0  0  0  0  0  0  0  0  0  0  0
  129.8395  127.8105   65.9637 H   0  0  0  0  0  0  0  0  0  0  0  0
  128.2253  125.3741   65.0876 H   0  0  0  0  0  0  0  0  0  0  0  0
  128.0320  127.0651   64.4619 H   0  0  0  0  0  0  0  0  0  0  0  0
  130.0883  127.1262   63.5673 H   0  0  0  0  0  0  0  0  0  0  0  0
  131.2415  125.2853   59.4442 H   0  0  0  0  0  0  0  0  0  0  0  0
  130.1127  124.0526   60.1271 H   0  0  0  0  0  0  0  0  0  0  0  0
  127.9602  128.1308   56.4192 H   0  0  0  0  0  0  0  0  0  0  0  0
  126.9764  127.0268   57.4619 H   0  0  0  0  0  0  0  0  0  0  0  0
  128.2362  127.7873   59.4787 H   0  0  0  0  0  0  0  0  0  0  0  0
  125.7325  128.7839   59.9791 H   0  0  0  0  0  0  0  0  0  0  0  0
  125.2031  129.5432   58.4397 H   0  0  0  0  0  0  0  0  0  0  0  0
  125.8433  127.8649   58.4397 H   0  0  0  0  0  0  0  0  0  0  0  0
  129.8164  130.2943   59.9167 H   0  0  0  0  0  0  0  0  0  0  0  0
  128.7962  131.4047   61.8502 H   0  0  0  0  0  0  0  0  0  0  0  0
  127.9112  132.5427   60.7786 H   0  0  0  0  0  0  0  0  0  0  0  0
  127.4891  130.7967   60.7786 H   0  0  0  0  0  0  0  0  0  0  0  0
  130.0524  133.2951   59.6618 H   0  0  0  0  0  0  0  0  0  0  0  0
  131.9660  131.7080   60.8970 H   0  0  0  0  0  0  0  0  0  0  0  0
  1  2  1  0
  2  3  1  0
  3  4  1  0
  4  5  1  0
  5  6  1  0
  6  7  1  0
  7  8  1  0
  8  9  1  0
  8 10  1  0
 10 11  1  0
 11 12  1  0
 12 13  1  0
 13 14  1  0
 14 15  1  0
 15 16  1  0
 16 17  1  1
 16 18  1  0
 18 19  1  0
 19 20  1  0
 20 21  1  0
 21 22  1  6
 23 22  1  1
 23 24  1  0
 24 25  1  0
 25 26  2  0
 26 27  1  0
 27 28  2  0
 28 29  1  0
 29 30  2  0
 29 31  1  0
 31 32  1  0
 26 33  1  0
 33 34  1  1
 33 35  1  0
 35 36  1  0
 36 37  1  0
 18 38  1  0
 11 39  1  0
 39 40  1  0
 40 41  1  0
 41 42  1  0
  5 43  1  0
 43 44  1  0
 44 45  1  0
 44 46  1  0
 46 47  1  0
 46  3  1  0
 40  7  1  0
 38 13  1  0
 37 16  1  0
 23 21  1  0
 32 27  1  0
 37 21  1  0
 33 23  1  0
  1 48  1  0
  1 49  1  0
  1 50  1  0
  3 51  1  6
  4 52  1  0
  4 53  1  0
  5 54  1  6
  7 55  1  1
  8 56  1  1
  9 57  1  0
  9 58  1  0
  9 59  1  0
 11 60  1  6
 13 61  1  6
 14 62  1  0
 14 63  1  0
 15 64  1  0
 15 65  1  0
 17 66  1  0
 17 67  1  0
 17 68  1  0
 18 69  1  6
 19 70  1  0
 19 71  1  0
 20 72  1  0
 20 73  1  0
 24 74  1  0
 24 75  1  0
 25 76  1  0
 28 77  1  0
 32 78  1  0
 32 79  1  0
 34 80  1  0
 34 81  1  0
 34 82  1  0
 35 83  1  0
 35 84  1  0
 36 85  1  0
 36 86  1  0
 37 87  1  6
 38 88  1  0
 38 89  1  0
 39 90  1  0
 39 91  1  0
 40 92  1  1
 42 93  1  0
 42 94  1  0
 42 95  1  0
 44 96  1  1
 45 97  1  0
 45 98  1  0
 45 99  1  0
 46100  1  6
 47101  1  0
M  END
>  <Binding energies>  (1) 
[-5.63]

>  <Ligand effiencies>  (1) 
[-0.11729166666666667]

>  <Interactions>  (1) 
["V-A:ARG:545:CA:4919, V-B:GLU:543:C:9874, V-A:GLU:543:C:4902, H-A:ALA:541:N:4891, V-B:GLU:543:CB:9878, V-B:ASP:366:CG:8184, H-A:TYR:531:OH:4795, V-A:TYR:484:CE2:4346, V-A:GLY:544:CA:4914, V-B:GLU:543:CG:9879, V-A:GLY:544:C:4912, V-A:ASP:366:CG:3213, V-A:LEU:363:CD1:3189, V-A:LEU:363:CB:3187, V-B:ASP:366:CB:8183, V-A:GLU:543:CD:4908, V-A:TYR:484:CZ:4347, V-A:ARG:545:CG:4922, V-B:GLU:543:CA:9876, V-B:HIS:456:CE1:9041, V-A:HIS:456:CE1:4070, V-A:TYR:531:CZ:4794, V-A:MET:535:CE:4835, V-B:GLU:543:CD:9880, V-A:ASP:366:CB:3212, V-A:ARG:545:CD:4923, H-A:LYS:547:NZ:4951, V-A:ARG:545:CB:4921, V-A:ARG:545:CZ:4926, V-A:GLU:543:CB:4906, V-A:PRO:540:N:4884, V-A:PRO:540:CB:4885, V-A:PRO:540:CA:4883, V-A:LEU:363:CA:3185, H-A:ASP:366:OD2:3215, H-A:TYR:484:OH:4348"]

$$$$
ZINC2356816071
     RDKit          3D

 95 99  0  0  0  0  0  0  0  0999 V2000
  131.9840  121.6340   60.8330 C   0  0  0  0  0  0  0  0  0  0  0  0
  133.3710  122.2420   61.0870 C   0  0  0  0  0  0  0  0  0  0  0  0
  133.7650  123.2880   60.0250 C   0  0  0  0  0  0  0  0  0  0  0  0
  133.2940  124.7440   60.3310 C   0  0  2  0  0  0  0  0  0  0  0  0
  133.2610  125.0120   61.8640 C   0  0  0  0  0  0  0  0  0  0  0  0
  134.5220  124.7850   62.4660 O   0  0  0  0  0  0  0  0  0  0  0  0
  131.9760  125.1000   59.5500 C   0  0  2  0  0  0  0  0  0  0  0  0
  132.0370  126.5550   59.0000 C   0  0  0  0  0  0  0  0  0  0  0  0
  131.1080  126.8480   57.7890 C   0  0  2  0  0  0  0  0  0  0  0  0
  130.2650  128.1370   57.9960 C   0  0  0  0  0  0  0  0  0  0  0  0
  130.9620  129.2650   58.7570 C   0  0  0  0  0  0  0  0  0  0  0  0
  130.5040  129.6980   59.9580 C   0  0  0  0  0  0  0  0  0  0  0  0
  131.1020  130.8770   60.7500 C   0  0  1  0  0  0  0  0  0  0  0  0
  131.8060  130.3120   61.9850 N   0  0  0  0  0  0  0  0  0  0  0  0
  132.1680  131.5180   59.9630 N   0  0  0  0  0  0  0  0  0  0  0  0
  132.6460  131.0360   58.7630 C   0  0  0  0  0  0  0  0  0  0  0  0
  132.1020  129.9580   58.1730 C   0  0  0  0  0  0  0  0  0  0  0  0
  130.2040  125.6620   57.3520 C   0  0  0  0  0  0  0  0  0  0  0  0
  129.0150  125.2680   58.2770 C   0  0  2  0  0  0  0  0  0  0  0  0
  128.2140  126.4530   58.6620 C   0  0  0  0  0  0  0  0  0  0  0  0
  127.6180  127.4640   59.0040 C   0  0  0  0  0  0  0  0  0  0  0  0
  126.9380  128.7320   59.3670 C   0  0  2  0  0  0  0  0  0  0  0  0
  127.1060  129.9090   58.3810 C   0  0  0  0  0  0  0  0  0  0  0  0
  126.2120  130.1690   57.3280 C   0  0  0  0  0  0  0  0  0  0  0  0
  126.4150  131.2500   56.4760 C   0  0  0  0  0  0  0  0  0  0  0  0
  127.5120  132.0850   56.6700 C   0  0  0  0  0  0  0  0  0  0  0  0
  128.4050  131.8470   57.7100 C   0  0  0  0  0  0  0  0  0  0  0  0
  128.2000  130.7660   58.5620 C   0  0  0  0  0  0  0  0  0  0  0  0
  127.1450  129.1370   60.8410 C   0  0  0  0  0  0  0  0  0  0  0  0
  126.9200  130.4790   61.1790 C   0  0  0  0  0  0  0  0  0  0  0  0
  127.0970  130.9400   62.4820 C   0  0  0  0  0  0  0  0  0  0  0  0
  126.8650  132.2650   62.7540 O   0  0  0  0  0  0  0  0  0  0  0  0
  127.5050  130.0670   63.4940 C   0  0  0  0  0  0  0  0  0  0  0  0
  127.6590  130.5860   64.7690 O   0  0  0  0  0  0  0  0  0  0  0  0
  127.9120  129.7060   65.8570 C   0  0  0  0  0  0  0  0  0  0  0  0
  127.7280  128.7210   63.1650 C   0  0  0  0  0  0  0  0  0  0  0  0
  127.5510  128.2460   61.8610 C   0  0  0  0  0  0  0  0  0  0  0  0
  127.7880  126.7560   61.6240 C   0  0  0  0  0  0  0  0  0  0  0  0
  128.6170  126.1220   62.7630 C   0  0  0  0  0  0  0  0  0  0  0  0
  128.9480  124.6280   62.6030 C   0  0  0  0  0  0  0  0  0  0  0  0
  129.8620  124.0830   63.3060 O   0  0  0  0  0  0  0  0  0  0  0  0
  128.0980  123.9530   61.6880 C   0  0  0  0  0  0  0  0  0  0  0  0
  126.9840  123.4190   62.3000 O   0  0  0  0  0  0  0  0  0  0  0  0
  128.2010  123.7940   60.2660 C   0  0  0  0  0  0  0  0  0  0  0  0
  127.3100  123.1980   59.5680 O   0  0  0  0  0  0  0  0  0  0  0  0
  129.4340  124.3320   59.4650 C   0  0  2  0  0  0  0  0  0  0  0  0
  130.6550  124.7910   60.3160 C   0  0  0  0  0  0  0  0  0  0  0  0
  131.4957  121.4199   61.7952 H   0  0  0  0  0  0  0  0  0  0  0  0
  131.3708  122.3458   60.2609 H   0  0  0  0  0  0  0  0  0  0  0  0
  132.0919  120.7007   60.2609 H   0  0  0  0  0  0  0  0  0  0  0  0
  133.3674  122.7269   62.0743 H   0  0  0  0  0  0  0  0  0  0  0  0
  134.1062  121.4252   61.0380 H   0  0  0  0  0  0  0  0  0  0  0  0
  134.8618  123.2940   59.9416 H   0  0  0  0  0  0  0  0  0  0  0  0
  133.2595  122.9891   59.0949 H   0  0  0  0  0  0  0  0  0  0  0  0
  134.0366  125.4561   59.9417 H   0  0  0  0  0  0  0  0  0  0  0  0
  132.9678  126.0581   62.0361 H   0  0  0  0  0  0  0  0  0  0  0  0
  132.5371  124.3182   62.3163 H   0  0  0  0  0  0  0  0  0  0  0  0
  135.1650  125.3670   62.0530 H   0  0  0  0  0  0  0  0  0  0  0  0
  131.9365  124.4116   58.6930 H   0  0  0  0  0  0  0  0  0  0  0  0
  131.7576  127.2383   59.8155 H   0  0  0  0  0  0  0  0  0  0  0  0
  133.0650  126.6992   58.6360 H   0  0  0  0  0  0  0  0  0  0  0  0
  131.8049  127.0099   56.9535 H   0  0  0  0  0  0  0  0  0  0  0  0
  129.9838  128.5208   57.0042 H   0  0  0  0  0  0  0  0  0  0  0  0
  129.4068  127.8398   58.6166 H   0  0  0  0  0  0  0  0  0  0  0  0
  129.6449  129.1703   60.3978 H   0  0  0  0  0  0  0  0  0  0  0  0
  130.2959  131.5845   60.9942 H   0  0  0  0  0  0  0  0  0  0  0  0
  131.8290  131.0050   62.7200 H   0  0  0  0  0  0  0  0  0  0  0  0
  132.7550  130.0520   61.7540 H   0  0  0  0  0  0  0  0  0  0  0  0
  131.3150  129.4940   62.3150 H   0  0  0  0  0  0  0  0  0  0  0  0
  132.3970  132.4570   60.2580 H   0  0  0  0  0  0  0  0  0  0  0  0
  133.4916  131.5452   58.2776 H   0  0  0  0  0  0  0  0  0  0  0  0
  132.5275  129.5907   57.2274 H   0  0  0  0  0  0  0  0  0  0  0  0
  129.7824  125.9175   56.3687 H   0  0  0  0  0  0  0  0  0  0  0  0
  130.8701  124.7869   57.3740 H   0  0  0  0  0  0  0  0  0  0  0  0
  128.3347  124.6338   57.6897 H   0  0  0  0  0  0  0  0  0  0  0  0
  125.8744  128.4740   59.2569 H   0  0  0  0  0  0  0  0  0  0  0  0
  125.3434  129.5114   57.1761 H   0  0  0  0  0  0  0  0  0  0  0  0
  125.7118  131.4441   55.6527 H   0  0  0  0  0  0  0  0  0  0  0  0
  127.6739  132.9392   55.9961 H   0  0  0  0  0  0  0  0  0  0  0  0
  129.2696  132.5107   57.8582 H   0  0  0  0  0  0  0  0  0  0  0  0
  128.9044  130.5821   59.3866 H   0  0  0  0  0  0  0  0  0  0  0  0
  126.5967  131.1834   60.3984 H   0  0  0  0  0  0  0  0  0  0  0  0
  127.0250  132.4940   63.6720 H   0  0  0  0  0  0  0  0  0  0  0  0
  127.7580  130.2417   66.8053 H   0  0  0  0  0  0  0  0  0  0  0  0
  127.2237  128.8496   65.8036 H   0  0  0  0  0  0  0  0  0  0  0  0
  128.9500  129.3460   65.8036 H   0  0  0  0  0  0  0  0  0  0  0  0
  128.0498  128.0225   63.9515 H   0  0  0  0  0  0  0  0  0  0  0  0
  126.8156  126.2453   61.5638 H   0  0  0  0  0  0  0  0  0  0  0  0
  128.3509  126.6429   60.6857 H   0  0  0  0  0  0  0  0  0  0  0  0
  129.5671  126.6718   62.8344 H   0  0  0  0  0  0  0  0  0  0  0  0
  127.9885  126.1925   63.6630 H   0  0  0  0  0  0  0  0  0  0  0  0
  126.2670  124.0550   62.3780 H   0  0  0  0  0  0  0  0  0  0  0  0
  129.8711  123.4475   58.9787 H   0  0  0  0  0  0  0  0  0  0  0  0
  130.3608  125.7054   60.8520 H   0  0  0  0  0  0  0  0  0  0  0  0
  130.8930  123.9316   60.9601 H   0  0  0  0  0  0  0  0  0  0  0  0
  1  2  1  0
  2  3  1  0
  3  4  1  0
  4  5  1  0
  5  6  1  0
  4  7  1  0
  7  8  1  0
  8  9  1  0
  9 10  1  0
 10 11  1  0
 11 12  2  0
 12 13  1  0
 13 14  1  0
 13 15  1  0
 15 16  1  0
 16 17  2  0
  9 18  1  0
 18 19  1  0
 19 20  1  0
 20 21  3  0
 21 22  1  0
 22 23  1  0
 23 24  2  0
 24 25  1  0
 25 26  2  0
 26 27  1  0
 27 28  2  0
 22 29  1  0
 29 30  2  0
 30 31  1  0
 31 32  1  0
 31 33  2  0
 33 34  1  0
 34 35  1  0
 33 36  1  0
 36 37  2  0
 37 38  1  0
 38 39  1  0
 39 40  1  0
 40 41  2  0
 40 42  1  0
 42 43  1  0
 42 44  2  0
 44 45  1  0
 44 46  1  0
 46 47  1  0
 47  7  1  0
 17 11  1  0
 46 19  1  0
 28 23  1  0
 37 29  1  0
  1 48  1  0
  1 49  1  0
  1 50  1  0
  2 51  1  0
  2 52  1  0
  3 53  1  0
  3 54  1  0
  4 55  1  6
  5 56  1  0
  5 57  1  0
  6 58  1  0
  7 59  1  6
  8 60  1  0
  8 61  1  0
  9 62  1  6
 10 63  1  0
 10 64  1  0
 12 65  1  0
 13 66  1  1
 14 67  1  0
 14 68  1  0
 14 69  1  0
 15 70  1  0
 16 71  1  0
 17 72  1  0
 18 73  1  0
 18 74  1  0
 19 75  1  6
 22 76  1  1
 24 77  1  0
 25 78  1  0
 26 79  1  0
 27 80  1  0
 28 81  1  0
 30 82  1  0
 32 83  1  0
 35 84  1  0
 35 85  1  0
 35 86  1  0
 36 87  1  0
 38 88  1  0
 38 89  1  0
 39 90  1  0
 39 91  1  0
 43 92  1  0
 46 93  1  6
 47 94  1  0
 47 95  1  0
M  CHG  2  14   1  45  -1
M  END
>  <Binding energies>  (1) 
[-4.4]

>  <Ligand effiencies>  (1) 
[-0.07586206896551725]

>  <Interactions>  (1) 
["V-A:ILE:369:CG2:3237, V-A:ASP:366:CA:3210, V-A:ILE:369:CB:3236, H-A:ALA:541:O:4889, H-A:ARG:545:NH1:4927, V-B:TYR:539:CE2:9848, V-B:GLU:543:CG:9879, V-A:TYR:539:CE2:4876, V-A:ASP:366:CG:3213, V-A:LEU:363:CD1:3189, V-A:TYR:539:CD1:4873, V-B:TYR:539:CZ:9849, H-B:GLU:543:OE1:9881, V-A:TYR:539:CZ:4877, H-B:ALA:541:N:9863, V-A:GLU:543:CD:4908, H-B:TYR:484:OH:9319, H-A:GLY:454:N:4050, V-A:ILE:369:CD1:3239, V-B:TYR:484:CZ:9318, V-B:TYR:539:CD2:9846, V-A:TYR:531:CZ:4794, V-A:GLU:543:CG:4907, V-B:GLU:543:CD:9880, V-A:MET:535:CE:4835, V-A:ASP:366:CB:3212, V-A:LEU:475:CD2:4259, H-A:ARG:545:NH2:4928, H-A:GLU:543:OE1:4909, V-A:GLU:543:CB:4906, H-A:ASP:366:OD1:3214, V-A:PRO:540:CB:4885, V-A:PRO:540:CA:4883, H-A:ASP:366:OD2:3215, V-A:TYR:539:CE1:4875"]

$$$$
ZINC2356816071-again2
     RDKit          3D

 95 99  0  0  0  0  0  0  0  0999 V2000
  127.5150  133.0530   61.3690 C   0  0  0  0  0  0  0  0  0  0  0  0
  128.3480  133.3890   60.1230 C   0  0  0  0  0  0  0  0  0  0  0  0
  128.7370  132.1380   59.3080 C   0  0  0  0  0  0  0  0  0  0  0  0
  128.7790  130.7910   60.0970 C   0  0  2  0  0  0  0  0  0  0  0  0
  130.1460  130.5930   60.8160 C   0  0  0  0  0  0  0  0  0  0  0  0
  130.1900  131.2870   62.0470 O   0  0  0  0  0  0  0  0  0  0  0  0
  128.3340  129.5650   59.2050 C   0  0  2  0  0  0  0  0  0  0  0  0
  126.8500  129.1860   59.4290 C   0  0  0  0  0  0  0  0  0  0  0  0
  126.5100  127.7820   60.0040 C   0  0  2  0  0  0  0  0  0  0  0  0
  127.3730  127.4470   61.2500 C   0  0  0  0  0  0  0  0  0  0  0  0
  127.1260  128.3370   62.4640 C   0  0  0  0  0  0  0  0  0  0  0  0
  128.1530  128.8320   63.1970 C   0  0  0  0  0  0  0  0  0  0  0  0
  128.0020  129.7440   64.4350 C   0  0  1  0  0  0  0  0  0  0  0  0
  128.7490  130.9650   64.2290 N   0  0  0  0  0  0  0  0  0  0  0  0
  126.5700  129.9750   64.6850 N   0  0  0  0  0  0  0  0  0  0  0  0
  125.5360  129.4500   63.9400 C   0  0  0  0  0  0  0  0  0  0  0  0
  125.7700  128.6660   62.8760 C   0  0  0  0  0  0  0  0  0  0  0  0
  126.6320  126.6500   58.9480 C   0  0  0  0  0  0  0  0  0  0  0  0
  128.0620  126.1350   58.6410 C   0  0  2  0  0  0  0  0  0  0  0  0
  128.5650  125.2380   59.7070 C   0  0  0  0  0  0  0  0  0  0  0  0
  129.0160  124.5220   60.5870 C   0  0  0  0  0  0  0  0  0  0  0  0
  129.5580  123.6440   61.6520 C   0  0  2  0  0  0  0  0  0  0  0  0
  129.8320  124.2970   63.0240 C   0  0  0  0  0  0  0  0  0  0  0  0
  129.1620  125.4480   63.4770 C   0  0  0  0  0  0  0  0  0  0  0  0
  129.4520  125.9890   64.7260 C   0  0  0  0  0  0  0  0  0  0  0  0
  130.4080  125.3850   65.5360 C   0  0  0  0  0  0  0  0  0  0  0  0
  131.0780  124.2430   65.1070 C   0  0  0  0  0  0  0  0  0  0  0  0
  130.7890  123.7020   63.8570 C   0  0  0  0  0  0  0  0  0  0  0  0
  130.6890  122.7320   61.1270 C   0  0  0  0  0  0  0  0  0  0  0  0
  130.4400  121.3540   61.0910 C   0  0  0  0  0  0  0  0  0  0  0  0
  131.4010  120.4540   60.6360 C   0  0  0  0  0  0  0  0  0  0  0  0
  131.1050  119.1150   60.6230 O   0  0  0  0  0  0  0  0  0  0  0  0
  132.6490  120.9080   60.1990 C   0  0  0  0  0  0  0  0  0  0  0  0
  133.5570  119.9610   59.7580 O   0  0  0  0  0  0  0  0  0  0  0  0
  133.2950  119.2490   58.5530 C   0  0  0  0  0  0  0  0  0  0  0  0
  132.9060  122.2870   60.2320 C   0  0  0  0  0  0  0  0  0  0  0  0
  131.9490  123.2020   60.6870 C   0  0  0  0  0  0  0  0  0  0  0  0
  132.3350  124.6800   60.6690 C   0  0  0  0  0  0  0  0  0  0  0  0
  133.3430  125.0170   59.5490 C   0  0  0  0  0  0  0  0  0  0  0  0
  132.7040  125.6250   58.2850 C   0  0  0  0  0  0  0  0  0  0  0  0
  132.9750  125.2020   57.1610 O   0  0  0  0  0  0  0  0  0  0  0  0
  131.7680  126.8350   58.4430 C   0  0  1  0  0  0  0  0  0  0  0  0
  132.4340  128.0170   58.0250 O   0  0  0  0  0  0  0  0  0  0  0  0
  130.4640  126.6230   57.6440 C   0  0  0  0  0  0  0  0  0  0  0  0
  130.5180  126.0790   56.5400 O   0  0  0  0  0  0  0  0  0  0  0  0
  129.1250  127.1920   58.1910 C   0  0  2  0  0  0  0  0  0  0  0  0
  129.3040  128.3410   59.2190 C   0  0  0  0  0  0  0  0  0  0  0  0
  128.0964  133.2875   62.2729 H   0  0  0  0  0  0  0  0  0  0  0  0
  126.5901  133.6484   61.3632 H   0  0  0  0  0  0  0  0  0  0  0  0
  127.2620  131.9825   61.3632 H   0  0  0  0  0  0  0  0  0  0  0  0
  127.7611  134.0598   59.4784 H   0  0  0  0  0  0  0  0  0  0  0  0
  129.2793  133.8636   60.4656 H   0  0  0  0  0  0  0  0  0  0  0  0
  128.0070  132.0275   58.4926 H   0  0  0  0  0  0  0  0  0  0  0  0
  129.7684  132.3146   58.9689 H   0  0  0  0  0  0  0  0  0  0  0  0
  128.0280  130.8444   60.8990 H   0  0  0  0  0  0  0  0  0  0  0  0
  130.2982  129.5201   61.0050 H   0  0  0  0  0  0  0  0  0  0  0  0
  130.9385  130.9928   60.1662 H   0  0  0  0  0  0  0  0  0  0  0  0
  130.3200  130.6480   62.7530 H   0  0  0  0  0  0  0  0  0  0  0  0
  128.4147  129.9291   58.1701 H   0  0  0  0  0  0  0  0  0  0  0  0
  126.4284  129.9290   60.1220 H   0  0  0  0  0  0  0  0  0  0  0  0
  126.4265  129.1654   58.4140 H   0  0  0  0  0  0  0  0  0  0  0  0
  125.4546  127.8337   60.3097 H   0  0  0  0  0  0  0  0  0  0  0  0
  127.1630  126.4072   61.5409 H   0  0  0  0  0  0  0  0  0  0  0  0
  128.4189  127.6151   60.9535 H   0  0  0  0  0  0  0  0  0  0  0  0
  129.1735  128.5635   62.8863 H   0  0  0  0  0  0  0  0  0  0  0  0
  128.4186  129.2665   65.3341 H   0  0  0  0  0  0  0  0  0  0  0  0
  129.7230  130.7350   64.1060 H   0  0  0  0  0  0  0  0  0  0  0  0
  128.4580  131.3820   63.3570 H   0  0  0  0  0  0  0  0  0  0  0  0
  126.3800  130.4970   65.5290 H   0  0  0  0  0  0  0  0  0  0  0  0
  124.4979  129.6782   64.2232 H   0  0  0  0  0  0  0  0  0  0  0  0
  124.9202  128.2645   62.3045 H   0  0  0  0  0  0  0  0  0  0  0  0
  126.0395  125.7951   59.3059 H   0  0  0  0  0  0  0  0  0  0  0  0
  126.2762  127.0936   58.0064 H   0  0  0  0  0  0  0  0  0  0  0  0
  127.9211  125.5484   57.7212 H   0  0  0  0  0  0  0  0  0  0  0  0
  128.7159  122.9867   61.9143 H   0  0  0  0  0  0  0  0  0  0  0  0
  128.4029  125.9242   62.8390 H   0  0  0  0  0  0  0  0  0  0  0  0
  128.9268  126.8916   65.0716 H   0  0  0  0  0  0  0  0  0  0  0  0
  130.6362  125.8132   66.5232 H   0  0  0  0  0  0  0  0  0  0  0  0
  131.8325  123.7699   65.7526 H   0  0  0  0  0  0  0  0  0  0  0  0
  131.3174  122.7981   63.5198 H   0  0  0  0  0  0  0  0  0  0  0  0
  129.4646  120.9744   61.4293 H   0  0  0  0  0  0  0  0  0  0  0  0
  131.8910  118.5660   60.6820 H   0  0  0  0  0  0  0  0  0  0  0  0
  132.9245  118.2420   58.7953 H   0  0  0  0  0  0  0  0  0  0  0  0
  132.5362  119.7876   57.9664 H   0  0  0  0  0  0  0  0  0  0  0  0
  134.2220  119.1673   57.9664 H   0  0  0  0  0  0  0  0  0  0  0  0
  133.8839  122.6585   59.8919 H   0  0  0  0  0  0  0  0  0  0  0  0
  131.4256  125.2798   60.5166 H   0  0  0  0  0  0  0  0  0  0  0  0
  132.8165  124.9102   61.6308 H   0  0  0  0  0  0  0  0  0  0  0  0
  134.0727  125.7374   59.9471 H   0  0  0  0  0  0  0  0  0  0  0  0
  133.8050  124.0666   59.2434 H   0  0  0  0  0  0  0  0  0  0  0  0
  131.4976  126.9411   59.5039 H   0  0  0  0  0  0  0  0  0  0  0  0
  132.8270  127.8580   57.1630 H   0  0  0  0  0  0  0  0  0  0  0  0
  128.6781  127.6441   57.2933 H   0  0  0  0  0  0  0  0  0  0  0  0
  129.2267  127.8871   60.2180 H   0  0  0  0  0  0  0  0  0  0  0  0
  130.2703  128.7833   58.9352 H   0  0  0  0  0  0  0  0  0  0  0  0
  1  2  1  0
  2  3  1  0
  3  4  1  0
  4  5  1  0
  5  6  1  0
  4  7  1  0
  7  8  1  0
  8  9  1  0
  9 10  1  0
 10 11  1  0
 11 12  2  0
 12 13  1  0
 13 14  1  0
 13 15  1  0
 15 16  1  0
 16 17  2  0
  9 18  1  0
 18 19  1  0
 19 20  1  0
 20 21  3  0
 21 22  1  0
 22 23  1  0
 23 24  2  0
 24 25  1  0
 25 26  2  0
 26 27  1  0
 27 28  2  0
 22 29  1  0
 29 30  2  0
 30 31  1  0
 31 32  1  0
 31 33  2  0
 33 34  1  0
 34 35  1  0
 33 36  1  0
 36 37  2  0
 37 38  1  0
 38 39  1  0
 39 40  1  0
 40 41  2  0
 40 42  1  0
 42 43  1  0
 42 44  1  0
 44 45  2  0
 44 46  1  0
 46 47  1  0
 47  7  1  0
 17 11  1  0
 46 19  1  0
 28 23  1  0
 37 29  1  0
  1 48  1  0
  1 49  1  0
  1 50  1  0
  2 51  1  0
  2 52  1  0
  3 53  1  0
  3 54  1  0
  4 55  1  1
  5 56  1  0
  5 57  1  0
  6 58  1  0
  7 59  1  6
  8 60  1  0
  8 61  1  0
  9 62  1  1
 10 63  1  0
 10 64  1  0
 12 65  1  0
 13 66  1  1
 14 67  1  0
 14 68  1  0
 15 69  1  0
 16 70  1  0
 17 71  1  0
 18 72  1  0
 18 73  1  0
 19 74  1  6
 22 75  1  1
 24 76  1  0
 25 77  1  0
 26 78  1  0
 27 79  1  0
 28 80  1  0
 30 81  1  0
 32 82  1  0
 35 83  1  0
 35 84  1  0
 35 85  1  0
 36 86  1  0
 38 87  1  0
 38 88  1  0
 39 89  1  0
 39 90  1  0
 42 91  1  1
 43 92  1  0
 46 93  1  6
 47 94  1  0
 47 95  1  0
M  END
>  <Binding energies>  (1) 
[-2.29]

>  <Ligand effiencies>  (1) 
[-0.040175438596491225]

>  <Interactions>  (1) 
["V-A:ILE:369:CG2:3237, V-A:ASP:366:CA:3210, H-A:GLU:543:OE2:4910, V-B:ASP:366:CG:8184, H-A:TYR:531:OH:4795, V-A:TYR:484:CE2:4346, V-B:TYR:539:CE2:9848, V-B:GLU:543:CG:9879, V-A:ASP:366:CG:3213, V-A:TYR:539:CD1:4873, H-B:TYR:539:OH:9850, V-A:GLU:543:CD:4908, V-A:TYR:484:CZ:4347, H-B:TYR:484:OH:9319, V-B:TYR:539:CD2:9846, V-A:GLU:543:CG:4907, H-A:SER:385:OG:3410, V-B:GLU:543:CD:9880, V-B:ARG:545:CZ:9898, V-A:TYR:539:C:4867, V-A:ASP:366:CB:3212, V-A:LEU:475:CD2:4259, H-A:GLU:543:OE1:4909, V-B:TYR:539:CG:9844, H-A:HIS:383:HE2:3395, V-A:HIS:383:CD2:3392, V-A:PRO:540:N:4884, V-A:PRO:540:CA:4883, V-A:TYR:539:CE1:4875"]

$$$$
ZINC2356817655-again1
     RDKit          3D

 71 74  0  0  0  0  0  0  0  0999 V2000
  126.8900  126.7850   60.6180 C   0  0  0  0  0  0  0  0  0  0  0  0
  127.7410  126.3010   61.8030 N   0  0  0  0  0  0  0  0  0  0  0  0
  128.3120  127.4140   62.7000 C   0  0  0  0  0  0  0  0  0  0  0  0
  127.2820  128.1010   63.4750 N   0  0  0  0  0  0  0  0  0  0  0  0
  127.7580  128.7850   64.6740 C   0  0  2  0  0  0  0  0  0  0  0  0
  128.6940  127.8870   65.5110 C   0  0  0  0  0  0  0  0  0  0  0  0
  128.5310  127.6070   66.8250 C   0  0  0  0  0  0  0  0  0  0  0  0
  129.5000  126.6910   67.5510 C   0  0  0  0  0  0  0  0  0  0  0  0
  129.8470  125.4320   66.7370 C   0  0  0  0  0  0  0  0  0  0  0  0
  131.2370  125.4630   66.1020 C   0  0  0  0  0  0  0  0  0  0  0  0
  132.3530  125.5450   67.1400 C   0  0  0  0  0  0  0  0  0  0  0  0
  131.4520  125.4170   64.7580 C   0  0  0  0  0  0  0  0  0  0  0  0
  132.8580  125.3410   64.1550 C   0  0  0  0  0  0  0  0  0  0  0  0
  133.5390  124.2130   64.6650 O   0  0  0  0  0  0  0  0  0  0  0  0
  130.3200  125.4280   63.7160 C   0  0  0  0  0  0  0  0  0  0  0  0
  129.8650  124.0210   63.2110 C   0  0  1  0  0  0  0  0  0  0  0  0
  128.5260  124.0490   62.8750 O   0  0  0  0  0  0  0  0  0  0  0  0
  129.2990  123.6590   61.7720 C   0  0  2  0  0  0  0  0  0  0  0  0
  128.8610  122.2490   61.2590 C   0  0  0  0  0  0  0  0  0  0  0  0
  129.4080  121.2130   61.6490 O   0  0  0  0  0  0  0  0  0  0  0  0
  127.8360  122.2920   60.3680 O   0  0  0  0  0  0  0  0  0  0  0  0
  127.1510  123.5070   60.0690 C   0  0  0  0  0  0  0  0  0  0  0  0
  125.8850  123.7040   60.9250 C   0  0  0  0  0  0  0  0  0  0  0  0
  126.0760  123.1870   62.2270 O   0  0  0  0  0  0  0  0  0  0  0  0
  130.3860  124.3880   60.9360 C   0  0  0  0  0  0  0  0  0  0  0  0
  130.1850  125.2760   60.1080 O   0  0  0  0  0  0  0  0  0  0  0  0
  131.7320  123.7250   61.1730 C   0  0  0  0  0  0  0  0  0  0  0  0
  132.7830  123.8960   60.2640 C   0  0  0  0  0  0  0  0  0  0  0  0
  133.9860  123.2160   60.4390 C   0  0  0  0  0  0  0  0  0  0  0  0
  134.1620  122.3710   61.5320 C   0  0  0  0  0  0  0  0  0  0  0  0
  133.1520  122.2380   62.4840 C   0  0  0  0  0  0  0  0  0  0  0  0
  131.9550  122.9520   62.3550 C   0  0  0  0  0  0  0  0  0  0  0  0
  130.8950  122.8840   63.4380 C   0  0  0  0  0  0  0  0  0  0  0  0
  130.9170  122.1090   64.3930 O   0  0  0  0  0  0  0  0  0  0  0  0
  127.4160  128.2280   67.5240 C   0  0  0  0  0  0  0  0  0  0  0  0
  126.5580  129.0400   66.8860 C   0  0  0  0  0  0  0  0  0  0  0  0
  126.6920  129.3190   65.5420 N   0  0  0  0  0  0  0  0  0  0  0  0
  125.9920  127.2957   60.9959 H   0  0  0  0  0  0  0  0  0  0  0  0
  127.4785  127.4835   60.0051 H   0  0  0  0  0  0  0  0  0  0  0  0
  126.5905  125.9221   60.0051 H   0  0  0  0  0  0  0  0  0  0  0  0
  127.1790  125.6870   62.3750 H   0  0  0  0  0  0  0  0  0  0  0  0
  128.5120  125.7540   61.4480 H   0  0  0  0  0  0  0  0  0  0  0  0
  129.0363  126.9669   63.3967 H   0  0  0  0  0  0  0  0  0  0  0  0
  128.7841  128.1592   62.0429 H   0  0  0  0  0  0  0  0  0  0  0  0
  126.4760  127.5270   63.6750 H   0  0  0  0  0  0  0  0  0  0  0  0
  128.3145  129.6503   64.2846 H   0  0  0  0  0  0  0  0  0  0  0  0
  129.5599  127.4405   65.0002 H   0  0  0  0  0  0  0  0  0  0  0  0
  130.4274  127.2474   67.7518 H   0  0  0  0  0  0  0  0  0  0  0  0
  129.0142  126.3626   68.4817 H   0  0  0  0  0  0  0  0  0  0  0  0
  129.7927  124.5615   67.4072 H   0  0  0  0  0  0  0  0  0  0  0  0
  129.1222  125.3783   65.9113 H   0  0  0  0  0  0  0  0  0  0  0  0
  131.9177  125.5130   68.1497 H   0  0  0  0  0  0  0  0  0  0  0  0
  133.0386  124.6948   67.0092 H   0  0  0  0  0  0  0  0  0  0  0  0
  132.9070  126.4863   67.0092 H   0  0  0  0  0  0  0  0  0  0  0  0
  132.7817  125.2572   63.0609 H   0  0  0  0  0  0  0  0  0  0  0  0
  133.4157  126.2514   64.4199 H   0  0  0  0  0  0  0  0  0  0  0  0
  132.8910  123.5950   65.0130 H   0  0  0  0  0  0  0  0  0  0  0  0
  129.4485  125.9260   64.1660 H   0  0  0  0  0  0  0  0  0  0  0  0
  130.7210  125.9525   62.8361 H   0  0  0  0  0  0  0  0  0  0  0  0
  127.8338  124.3498   60.2520 H   0  0  0  0  0  0  0  0  0  0  0  0
  126.8353  123.4592   59.0163 H   0  0  0  0  0  0  0  0  0  0  0  0
  125.6587  124.7783   60.9928 H   0  0  0  0  0  0  0  0  0  0  0  0
  125.0504  123.1671   60.4504 H   0  0  0  0  0  0  0  0  0  0  0  0
  126.3830  123.8980   62.7940 H   0  0  0  0  0  0  0  0  0  0  0  0
  132.6578  124.5722   59.4055 H   0  0  0  0  0  0  0  0  0  0  0  0
  134.8002  123.3469   59.7111 H   0  0  0  0  0  0  0  0  0  0  0  0
  135.0999  121.8073   61.6445 H   0  0  0  0  0  0  0  0  0  0  0  0
  133.2970  121.5667   63.3432 H   0  0  0  0  0  0  0  0  0  0  0  0
  127.2733  128.0282   68.5963 H   0  0  0  0  0  0  0  0  0  0  0  0
  125.7286  129.4935   67.4485 H   0  0  0  0  0  0  0  0  0  0  0  0
  126.1080  130.0150   65.1020 H   0  0  0  0  0  0  0  0  0  0  0  0
  1  2  1  0
  2  3  1  0
  3  4  1  0
  4  5  1  0
  5  6  1  0
  6  7  2  0
  7  8  1  0
  8  9  1  0
  9 10  1  0
 10 11  1  0
 10 12  2  0
 12 13  1  0
 13 14  1  0
 12 15  1  0
 16 15  1  6
 16 17  1  0
 17 18  1  0
 18 19  1  6
 19 20  2  0
 19 21  1  0
 21 22  1  0
 22 23  1  0
 23 24  1  0
 18 25  1  0
 25 26  2  0
 25 27  1  0
 27 28  2  0
 28 29  1  0
 29 30  2  0
 30 31  1  0
 31 32  2  0
 32 33  1  0
 33 34  2  0
  7 35  1  0
 35 36  2  0
 36 37  1  0
 37  5  1  0
 18 16  1  0
 32 27  1  0
 33 16  1  0
  1 38  1  0
  1 39  1  0
  1 40  1  0
  2 41  1  0
  2 42  1  0
  3 43  1  0
  3 44  1  0
  4 45  1  0
  5 46  1  6
  6 47  1  0
  8 48  1  0
  8 49  1  0
  9 50  1  0
  9 51  1  0
 11 52  1  0
 11 53  1  0
 11 54  1  0
 13 55  1  0
 13 56  1  0
 14 57  1  0
 15 58  1  0
 15 59  1  0
 22 60  1  0
 22 61  1  0
 23 62  1  0
 23 63  1  0
 24 64  1  0
 28 65  1  0
 29 66  1  0
 30 67  1  0
 31 68  1  0
 35 69  1  0
 36 70  1  0
 37 71  1  0
M  CHG  1   2   1
M  END
>  <Binding energies>  (1) 
[-8.42]

>  <Ligand effiencies>  (1) 
[-0.19581395348837208]

>  <Interactions>  (1) 
["V-A:ILE:369:CG2:3237, V-B:PRO:540:CA:9855, V-A:GLY:454:CA:4049, V-A:ILE:369:CB:3236, V-B:GLU:543:CB:9878, V-B:TYR:539:CE2:9848, V-B:GLU:543:CG:9879, H-B:GLU:543:OE1:9881, H-B:ALA:541:N:9863, V-A:GLU:543:CD:4908, V-A:TYR:484:CZ:4347, V-B:PRO:540:CB:9857, H-B:TYR:484:OH:9319, V-B:HIS:456:CE1:9041, V-A:ARG:545:CG:4922, H-A:GLY:454:N:4050, V-A:HIS:456:CE1:4070, V-B:TYR:484:CZ:9318, V-A:ILE:369:CD1:3239, V-A:GLU:543:CG:4907, V-B:GLU:543:CD:9880, V-A:ARG:545:CD:4923, V-A:LEU:475:CD2:4259, V-A:ARG:545:CZ:4926, H-B:GLU:543:OE2:9882, H-A:TYR:484:OH:4348"]

$$$$
ZINC2356825033
     RDKit          3D

102106  0  0  0  0  0  0  0  0999 V2000
  133.8980  124.0200   59.8500 C   0  0  0  0  0  0  0  0  0  0  0  0
  133.8030  123.5420   61.1080 C   0  0  0  0  0  0  0  0  0  0  0  0
  134.3960  124.3200   62.2750 C   0  0  0  0  0  0  0  0  0  0  0  0
  133.1290  122.2120   61.4900 C   0  0  2  0  0  0  0  0  0  0  0  0
  134.0050  121.1130   61.2990 O   0  0  0  0  0  0  0  0  0  0  0  0
  131.7930  121.9310   60.7590 C   0  0  0  0  0  0  0  0  0  0  0  0
  130.7650  123.0950   60.8130 C   0  0  0  0  0  0  0  0  0  0  0  0
  129.2500  122.7190   60.8800 C   0  0  2  0  0  0  0  0  0  0  0  0
  128.9460  122.1080   62.2750 C   0  0  0  0  0  0  0  0  0  0  0  0
  129.0080  121.6670   59.9650 O   0  0  0  0  0  0  0  0  0  0  0  0
  128.3340  123.9580   60.5210 C   0  0  2  0  0  0  0  0  0  0  0  0
  127.4670  123.8310   59.2320 C   0  0  0  0  0  0  0  0  0  0  0  0
  127.5070  125.1850   58.4970 C   0  0  0  0  0  0  0  0  0  0  0  0
  128.8570  125.8280   58.8900 C   0  0  2  0  0  0  0  0  0  0  0  0
  129.9360  125.1120   57.9960 C   0  0  0  0  0  0  0  0  0  0  0  0
  128.9510  125.3940   60.3860 C   0  0  2  0  0  0  0  0  0  0  0  0
  130.2830  125.8420   61.0310 C   0  0  0  0  0  0  0  0  0  0  0  0
  130.4770  127.3740   60.8900 C   0  0  0  0  0  0  0  0  0  0  0  0
  130.3160  127.8870   59.4240 C   0  0  2  0  0  0  0  0  0  0  0  0
  130.7900  129.3930   59.0970 C   0  0  2  0  0  0  0  0  0  0  0  0
  132.1220  129.2590   58.2930 C   0  0  0  0  0  0  0  0  0  0  0  0
  131.1000  130.2140   60.3940 C   0  0  0  0  0  0  0  0  0  0  0  0
  131.4330  131.7050   60.1570 C   0  0  0  0  0  0  0  0  0  0  0  0
  130.3100  132.4360   59.3750 C   0  0  2  0  0  0  0  0  0  0  0  0
  129.1310  132.5120   60.1880 O   0  0  0  0  0  0  0  0  0  0  0  0
  129.1510  131.8330   61.4100 C   0  0  2  0  0  0  0  0  0  0  0  0
  128.2960  130.7200   61.3490 O   0  0  0  0  0  0  0  0  0  0  0  0
  128.2810  129.9340   62.5470 C   0  0  0  0  0  0  0  0  0  0  0  0
  127.9120  130.7480   63.8070 C   0  0  2  0  0  0  0  0  0  0  0  0
  126.5080  130.9240   63.8980 O   0  0  0  0  0  0  0  0  0  0  0  0
  128.7210  132.0620   63.8690 C   0  0  2  0  0  0  0  0  0  0  0  0
  128.3470  132.8930   64.9540 O   0  0  0  0  0  0  0  0  0  0  0  0
  128.7060  132.8080   62.5150 C   0  0  2  0  0  0  0  0  0  0  0  0
  127.4510  133.4060   62.2310 O   0  0  0  0  0  0  0  0  0  0  0  0
  129.9790  131.7530   57.9980 C   0  0  0  0  0  0  0  0  0  0  0  0
  128.6840  132.4120   57.4410 C   0  0  0  0  0  0  0  0  0  0  0  0
  131.1430  131.9920   56.9960 C   0  0  0  0  0  0  0  0  0  0  0  0
  129.7110  130.2190   58.2740 C   0  0  1  0  0  0  0  0  0  0  0  0
  128.9520  129.4400   57.1560 C   0  0  0  0  0  0  0  0  0  0  0  0
  129.0140  127.9070   57.3170 C   0  0  0  0  0  0  0  0  0  0  0  0
  128.9340  127.4270   58.8010 C   0  0  1  0  0  0  0  0  0  0  0  0
  127.7250  128.1330   59.5290 C   0  0  0  0  0  0  0  0  0  0  0  0
  133.4672  123.4524   59.0120 H   0  0  0  0  0  0  0  0  0  0  0  0
  134.4063  124.9773   59.6623 H   0  0  0  0  0  0  0  0  0  0  0  0
  134.0570  123.8752   63.2222 H   0  0  0  0  0  0  0  0  0  0  0  0
  135.4940  124.2789   62.2229 H   0  0  0  0  0  0  0  0  0  0  0  0
  134.0654  125.3678   62.2229 H   0  0  0  0  0  0  0  0  0  0  0  0
  132.8883  122.3271   62.5572 H   0  0  0  0  0  0  0  0  0  0  0  0
  134.7650  121.2290   61.8740 H   0  0  0  0  0  0  0  0  0  0  0  0
  132.0180  121.7215   59.7028 H   0  0  0  0  0  0  0  0  0  0  0  0
  131.3272  121.0813   61.2796 H   0  0  0  0  0  0  0  0  0  0  0  0
  130.9948  123.6960   61.7052 H   0  0  0  0  0  0  0  0  0  0  0  0
  130.8815  123.6157   59.8510 H   0  0  0  0  0  0  0  0  0  0  0  0
  129.2892  122.7978   63.0601 H   0  0  0  0  0  0  0  0  0  0  0  0
  127.8626  121.9468   62.3765 H   0  0  0  0  0  0  0  0  0  0  0  0
  129.4708  121.1466   62.3765 H   0  0  0  0  0  0  0  0  0  0  0  0
  128.7140  120.8990   60.4590 H   0  0  0  0  0  0  0  0  0  0  0  0
  127.7648  123.8886   61.4597 H   0  0  0  0  0  0  0  0  0  0  0  0
  127.8753  123.0418   58.5835 H   0  0  0  0  0  0  0  0  0  0  0  0
  126.4312  123.5674   59.4921 H   0  0  0  0  0  0  0  0  0  0  0  0
  127.4556  125.0334   57.4087 H   0  0  0  0  0  0  0  0  0  0  0  0
  126.6550  125.8241   58.7719 H   0  0  0  0  0  0  0  0  0  0  0  0
  130.6784  124.6194   58.6411 H   0  0  0  0  0  0  0  0  0  0  0  0
  129.4454  124.3597   57.3610 H   0  0  0  0  0  0  0  0  0  0  0  0
  130.4386  125.8564   57.3610 H   0  0  0  0  0  0  0  0  0  0  0  0
  128.3130  125.9376   61.0984 H   0  0  0  0  0  0  0  0  0  0  0  0
  130.2736  125.5767   62.0985 H   0  0  0  0  0  0  0  0  0  0  0  0
  131.1117  125.3335   60.5165 H   0  0  0  0  0  0  0  0  0  0  0  0
  129.7305  127.8795   61.5203 H   0  0  0  0  0  0  0  0  0  0  0  0
  131.5070  127.6011   61.2023 H   0  0  0  0  0  0  0  0  0  0  0  0
  131.1018  127.3660   58.8573 H   0  0  0  0  0  0  0  0  0  0  0  0
  132.9660  129.1741   58.9933 H   0  0  0  0  0  0  0  0  0  0  0  0
  132.0792  128.3606   57.6597 H   0  0  0  0  0  0  0  0  0  0  0  0
  132.2590  130.1479   57.6597 H   0  0  0  0  0  0  0  0  0  0  0  0
  130.2191  130.1609   61.0506 H   0  0  0  0  0  0  0  0  0  0  0  0
  132.0008  129.7634   60.8362 H   0  0  0  0  0  0  0  0  0  0  0  0
  131.5657  132.1981   61.1313 H   0  0  0  0  0  0  0  0  0  0  0  0
  132.3528  131.7555   59.5559 H   0  0  0  0  0  0  0  0  0  0  0  0
  130.6762  133.4471   59.1436 H   0  0  0  0  0  0  0  0  0  0  0  0
  130.1652  131.4696   61.6320 H   0  0  0  0  0  0  0  0  0  0  0  0
  127.5446  129.1259   62.4253 H   0  0  0  0  0  0  0  0  0  0  0  0
  129.2999  129.5471   62.6958 H   0  0  0  0  0  0  0  0  0  0  0  0
  128.1993  130.1821   64.7054 H   0  0  0  0  0  0  0  0  0  0  0  0
  126.2860  131.7890   63.5460 H   0  0  0  0  0  0  0  0  0  0  0  0
  129.7649  131.7764   64.0656 H   0  0  0  0  0  0  0  0  0  0  0  0
  127.3870  132.9240   64.9900 H   0  0  0  0  0  0  0  0  0  0  0  0
  129.4144  133.6480   62.5660 H   0  0  0  0  0  0  0  0  0  0  0  0
  127.2320  133.2260   61.3120 H   0  0  0  0  0  0  0  0  0  0  0  0
  128.0480  132.7356   58.2781 H   0  0  0  0  0  0  0  0  0  0  0  0
  128.9516  133.2836   56.8256 H   0  0  0  0  0  0  0  0  0  0  0  0
  128.1369  131.6826   56.8256 H   0  0  0  0  0  0  0  0  0  0  0  0
  132.0725  132.1828   57.5525 H   0  0  0  0  0  0  0  0  0  0  0  0
  131.2708  131.1014   56.3632 H   0  0  0  0  0  0  0  0  0  0  0  0
  130.9095  132.8609   56.3632 H   0  0  0  0  0  0  0  0  0  0  0  0
  128.9486  130.3231   59.0600 H   0  0  0  0  0  0  0  0  0  0  0  0
  127.8963  129.7486   57.1732 H   0  0  0  0  0  0  0  0  0  0  0  0
  129.4449  129.6834   56.2032 H   0  0  0  0  0  0  0  0  0  0  0  0
  128.1721  127.4655   56.7635 H   0  0  0  0  0  0  0  0  0  0  0  0
  129.9898  127.5824   56.9267 H   0  0  0  0  0  0  0  0  0  0  0  0
  127.8572  128.0558   60.6183 H   0  0  0  0  0  0  0  0  0  0  0  0
  127.6904  129.1933   59.2381 H   0  0  0  0  0  0  0  0  0  0  0  0
  126.7846  127.6421   59.2381 H   0  0  0  0  0  0  0  0  0  0  0  0
  1  2  2  0
  2  3  1  0
  2  4  1  0
  4  5  1  0
  4  6  1  0
  6  7  1  0
  7  8  1  0
  8  9  1  0
  8 10  1  6
  8 11  1  0
 11 12  1  0
 12 13  1  0
 13 14  1  0
 14 15  1  6
 14 16  1  0
 16 17  1  0
 17 18  1  0
 18 19  1  0
 19 20  1  0
 20 21  1  6
 20 22  1  0
 22 23  1  0
 23 24  1  0
 24 25  1  0
 25 26  1  0
 26 27  1  0
 27 28  1  0
 28 29  1  0
 29 30  1  0
 29 31  1  0
 31 32  1  0
 31 33  1  0
 33 34  1  0
 24 35  1  0
 35 36  1  0
 35 37  1  0
 35 38  1  0
 38 39  1  0
 39 40  1  0
 40 41  1  0
 41 42  1  1
 16 11  1  0
 41 19  1  0
 41 14  1  0
 38 20  1  0
 33 26  1  0
  1 43  1  0
  1 44  1  0
  3 45  1  0
  3 46  1  0
  3 47  1  0
  4 48  1  1
  5 49  1  0
  6 50  1  0
  6 51  1  0
  7 52  1  0
  7 53  1  0
  9 54  1  0
  9 55  1  0
  9 56  1  0
 10 57  1  0
 11 58  1  1
 12 59  1  0
 12 60  1  0
 13 61  1  0
 13 62  1  0
 15 63  1  0
 15 64  1  0
 15 65  1  0
 16 66  1  1
 17 67  1  0
 17 68  1  0
 18 69  1  0
 18 70  1  0
 19 71  1  6
 21 72  1  0
 21 73  1  0
 21 74  1  0
 22 75  1  0
 22 76  1  0
 23 77  1  0
 23 78  1  0
 24 79  1  6
 26 80  1  1
 28 81  1  0
 28 82  1  0
 29 83  1  1
 30 84  1  0
 31 85  1  1
 32 86  1  0
 33 87  1  1
 34 88  1  0
 36 89  1  0
 36 90  1  0
 36 91  1  0
 37 92  1  0
 37 93  1  0
 37 94  1  0
 38 95  1  1
 39 96  1  0
 39 97  1  0
 40 98  1  0
 40 99  1  0
 42100  1  0
 42101  1  0
 42102  1  0
M  END
>  <Binding energies>  (1) 
[-8.31]

>  <Ligand effiencies>  (1) 
[-0.1768085106382979]

>  <Interactions>  (1) 
["V-A:ILE:369:CG2:3237, V-A:ASP:366:CA:3210, V-B:PRO:540:CA:9855, V-A:ILE:369:CB:3236, V-B:ALA:541:CB:9864, V-B:TYR:539:CE2:9848, V-A:ASP:366:CG:3213, V-A:TYR:539:CD1:4873, V-B:TYR:539:CZ:9849, V-A:ALA:541:CB:4892, H-B:TYR:484:OH:9319, V-A:ILE:369:CD1:3239, V-B:TYR:539:CD2:9846, V-A:TYR:531:CZ:4794, V-A:GLU:543:CG:4907, H-A:SER:385:OG:3410, V-A:MET:535:CE:4835, V-A:TYR:539:C:4867, V-A:ASP:366:CB:3212, V-A:LEU:475:CD2:4259, V-A:PRO:540:N:4884, V-A:GLY:453:CA:4044, V-A:PRO:540:CA:4883, V-A:PRO:540:CB:4885, H-B:TYR:539:O:9840, H-A:SER:385:O:3406, V-A:TYR:539:CE1:4875"]

$$$$
ZINC2356825406
     RDKit          3D

118124  0  0  0  0  0  0  0  0999 V2000
  127.6770  128.3930   62.9120 C   0  0  0  0  0  0  0  0  0  0  0  0
  127.5450  126.9360   62.4450 N   0  0  0  0  0  0  0  0  0  0  0  0
  128.5780  126.5340   61.3750 C   0  0  0  0  0  0  0  0  0  0  0  0
  128.1210  125.3130   60.4970 C   0  0  2  0  0  0  0  0  0  0  0  0
  127.4210  124.3290   61.4530 C   0  0  0  0  0  0  0  0  0  0  0  0
  127.9290  123.6390   62.4890 C   0  0  0  0  0  0  0  0  0  0  0  0
  129.3630  123.5820   62.9940 C   0  0  2  0  0  0  0  0  0  0  0  0
  129.5690  124.1550   64.4000 C   0  0  0  0  0  0  0  0  0  0  0  0
  129.4950  123.4010   65.5210 C   0  0  0  0  0  0  0  0  0  0  0  0
  129.6820  123.9130   66.7910 N   0  0  0  0  0  0  0  0  0  0  0  0
  129.9580  125.3230   67.1040 C   0  0  2  0  0  0  0  0  0  0  0  0
  128.9790  125.9230   67.9840 N   0  0  0  0  0  0  0  0  0  0  0  0
  130.0630  126.1190   65.7930 C   0  0  0  0  0  0  0  0  0  0  0  0
  129.8800  125.5690   64.5750 C   0  0  0  0  0  0  0  0  0  0  0  0
  130.4970  124.0080   62.0200 C   0  0  0  0  0  0  0  0  0  0  0  0
  130.3710  123.6850   60.4860 C   0  0  2  0  0  0  0  0  0  0  0  0
  130.0380  122.1660   60.2460 C   0  0  0  0  0  0  0  0  0  0  0  0
  131.1170  121.1330   60.6910 C   0  0  2  0  0  0  0  0  0  0  0  0
  131.1770  120.9650   62.0960 O   0  0  0  0  0  0  0  0  0  0  0  0
  132.5130  121.4690   60.1010 C   0  0  2  0  0  0  0  0  0  0  0  0
  133.5330  120.5980   60.5560 O   0  0  0  0  0  0  0  0  0  0  0  0
  132.9070  122.9450   60.3160 C   0  0  0  0  0  0  0  0  0  0  0  0
  131.7710  123.8700   59.8060 C   0  0  2  0  0  0  0  0  0  0  0  0
  132.1300  125.3600   59.8000 C   0  0  0  0  0  0  0  0  0  0  0  0
  133.0770  125.8460   60.4230 O   0  0  0  0  0  0  0  0  0  0  0  0
  131.2460  126.1050   58.9050 C   0  0  0  0  0  0  0  0  0  0  0  0
  131.8500  127.0340   58.0770 N   0  0  0  0  0  0  0  0  0  0  0  0
  132.0070  128.4730   58.2700 C   0  0  0  0  0  0  0  0  0  0  0  0
  131.0480  129.0530   59.3300 C   0  0  2  0  0  0  0  0  0  0  0  0
  131.4450  130.4750   59.7540 C   0  0  0  0  0  0  0  0  0  0  0  0
  131.0230  128.2320   60.4830 O   0  0  0  0  0  0  0  0  0  0  0  0
  129.9320  125.7240   58.7850 C   0  0  0  0  0  0  0  0  0  0  0  0
  129.3070  124.6230   59.7120 C   0  0  2  0  0  0  0  0  0  0  0  0
  128.9940  126.1600   57.6100 C   0  0  2  0  0  0  0  0  0  0  0  0
  129.2550  125.2230   56.5730 O   0  0  0  0  0  0  0  0  0  0  0  0
  129.2730  127.5460   56.9640 C   0  0  0  0  0  0  0  0  0  0  0  0
  127.9490  128.1070   56.4700 C   0  0  0  0  0  0  0  0  0  0  0  0
  126.9450  127.7080   57.5610 C   0  0  2  0  0  0  0  0  0  0  0  0
  126.6230  128.8920   58.5640 C   0  0  2  0  0  0  0  0  0  0  0  0
  126.0460  128.4000   59.9110 C   0  0  0  0  0  0  0  0  0  0  0  0
  125.6540  129.7300   57.9670 O   0  0  0  0  0  0  0  0  0  0  0  0
  127.8720  129.8210   58.8660 C   0  0  2  0  0  0  0  0  0  0  0  0
  128.2300  129.7680   60.2430 O   0  0  0  0  0  0  0  0  0  0  0  0
  127.8060  131.3180   58.4290 C   0  0  2  0  0  0  0  0  0  0  0  0
  127.5990  131.3690   57.0170 O   0  0  0  0  0  0  0  0  0  0  0  0
  128.0590  132.6250   56.5430 C   0  0  0  0  0  0  0  0  0  0  0  0
  129.3370  132.8700   57.3430 C   0  0  2  0  0  0  0  0  0  0  0  0
  130.5740  132.2680   56.6450 C   0  0  0  0  0  0  0  0  0  0  0  0
  129.0390  132.2190   58.6970 C   0  0  1  0  0  0  0  0  0  0  0  0
  128.7900  133.2470   59.8180 C   0  0  0  0  0  0  0  0  0  0  0  0
  127.4260  126.2290   57.9710 C   0  0  1  0  0  0  0  0  0  0  0  0
  126.5850  125.3160   56.9860 C   0  0  0  0  0  0  0  0  0  0  0  0
  127.0400  125.6920   59.4120 C   0  0  0  0  0  0  0  0  0  0  0  0
  127.6801  128.4268   64.0115 H   0  0  0  0  0  0  0  0  0  0  0  0
  128.6172  128.8169   62.5295 H   0  0  0  0  0  0  0  0  0  0  0  0
  126.8283  128.9790   62.5295 H   0  0  0  0  0  0  0  0  0  0  0  0
  127.6470  126.3260   63.2440 H   0  0  0  0  0  0  0  0  0  0  0  0
  126.6160  126.8050   62.0700 H   0  0  0  0  0  0  0  0  0  0  0  0
  128.7482  127.3958   60.7129 H   0  0  0  0  0  0  0  0  0  0  0  0
  129.4934  126.2303   61.9039 H   0  0  0  0  0  0  0  0  0  0  0  0
  126.3502  124.1674   61.2602 H   0  0  0  0  0  0  0  0  0  0  0  0
  127.2058  123.0297   63.0508 H   0  0  0  0  0  0  0  0  0  0  0  0
  129.4880  122.4911   63.0591 H   0  0  0  0  0  0  0  0  0  0  0  0
  129.2753  122.3282   65.4165 H   0  0  0  0  0  0  0  0  0  0  0  0
  129.7060  123.3040   67.5960 H   0  0  0  0  0  0  0  0  0  0  0  0
  130.9114  125.3546   67.6517 H   0  0  0  0  0  0  0  0  0  0  0  0
  128.7750  125.2930   68.7480 H   0  0  0  0  0  0  0  0  0  0  0  0
  129.3600  126.7660   68.3890 H   0  0  0  0  0  0  0  0  0  0  0  0
  130.2994  127.1917   65.8512 H   0  0  0  0  0  0  0  0  0  0  0  0
  129.9683  126.2083   63.6842 H   0  0  0  0  0  0  0  0  0  0  0  0
  130.5997  125.0996   62.1084 H   0  0  0  0  0  0  0  0  0  0  0  0
  131.3525  123.3954   62.3406 H   0  0  0  0  0  0  0  0  0  0  0  0
  129.1120  121.9374   60.7939 H   0  0  0  0  0  0  0  0  0  0  0  0
  129.9656  122.0554   59.1540 H   0  0  0  0  0  0  0  0  0  0  0  0
  130.7997  120.1652   60.2756 H   0  0  0  0  0  0  0  0  0  0  0  0
  130.8770  121.7750   62.5120 H   0  0  0  0  0  0  0  0  0  0  0  0
  132.4147  121.3074   59.0174 H   0  0  0  0  0  0  0  0  0  0  0  0
  133.2770  120.2610   61.4190 H   0  0  0  0  0  0  0  0  0  0  0  0
  133.0726  123.1266   61.3882 H   0  0  0  0  0  0  0  0  0  0  0  0
  133.8299  123.1603   59.7576 H   0  0  0  0  0  0  0  0  0  0  0  0
  131.6707  123.5175   58.7688 H   0  0  0  0  0  0  0  0  0  0  0  0
  132.5530  126.6810   57.4430 H   0  0  0  0  0  0  0  0  0  0  0  0
  133.0410  128.6722   58.5880 H   0  0  0  0  0  0  0  0  0  0  0  0
  131.7678  128.9589   57.3126 H   0  0  0  0  0  0  0  0  0  0  0  0
  130.0521  129.0879   58.8642 H   0  0  0  0  0  0  0  0  0  0  0  0
  131.4628  130.5387   60.8520 H   0  0  0  0  0  0  0  0  0  0  0  0
  132.4433  130.7108   59.3568 H   0  0  0  0  0  0  0  0  0  0  0  0
  130.7132  131.1938   59.3568 H   0  0  0  0  0  0  0  0  0  0  0  0
  131.8580  127.7620   60.5420 H   0  0  0  0  0  0  0  0  0  0  0  0
  128.8536  123.7981   59.1428 H   0  0  0  0  0  0  0  0  0  0  0  0
  130.1830  124.9780   56.6110 H   0  0  0  0  0  0  0  0  0  0  0  0
  129.7112  128.2248   57.7105 H   0  0  0  0  0  0  0  0  0  0  0  0
  129.9811  127.4435   56.1285 H   0  0  0  0  0  0  0  0  0  0  0  0
  128.0016  129.2010   56.3685 H   0  0  0  0  0  0  0  0  0  0  0  0
  127.6705  127.7223   55.4778 H   0  0  0  0  0  0  0  0  0  0  0  0
  125.8813  127.5840   57.3095 H   0  0  0  0  0  0  0  0  0  0  0  0
  126.5968  128.8697   60.7393 H   0  0  0  0  0  0  0  0  0  0  0  0
  124.9825  128.6735   59.9761 H   0  0  0  0  0  0  0  0  0  0  0  0
  126.1480  127.3067   59.9761 H   0  0  0  0  0  0  0  0  0  0  0  0
  125.9490  129.9420   57.0790 H   0  0  0  0  0  0  0  0  0  0  0  0
  128.6357  129.3775   58.2103 H   0  0  0  0  0  0  0  0  0  0  0  0
  129.1200  129.4160   60.3090 H   0  0  0  0  0  0  0  0  0  0  0  0
  126.9957  131.7184   59.0560 H   0  0  0  0  0  0  0  0  0  0  0  0
  128.2735  132.5824   55.4650 H   0  0  0  0  0  0  0  0  0  0  0  0
  127.3164  133.4263   56.6714 H   0  0  0  0  0  0  0  0  0  0  0  0
  129.5877  133.9363   57.4437 H   0  0  0  0  0  0  0  0  0  0  0  0
  131.2900  131.9196   57.4040 H   0  0  0  0  0  0  0  0  0  0  0  0
  130.2640  131.4200   56.0167 H   0  0  0  0  0  0  0  0  0  0  0  0
  131.0501  133.0352   56.0167 H   0  0  0  0  0  0  0  0  0  0  0  0
  129.8990  131.6426   59.0688 H   0  0  0  0  0  0  0  0  0  0  0  0
  128.9083  132.7584   60.7964 H   0  0  0  0  0  0  0  0  0  0  0  0
  129.5149  134.0696   59.7288 H   0  0  0  0  0  0  0  0  0  0  0  0
  127.7691  133.6467   59.7288 H   0  0  0  0  0  0  0  0  0  0  0  0
  125.9536  124.6306   57.5705 H   0  0  0  0  0  0  0  0  0  0  0  0
  125.9482  125.9503   56.3519 H   0  0  0  0  0  0  0  0  0  0  0  0
  127.2694  124.7333   56.3519 H   0  0  0  0  0  0  0  0  0  0  0  0
  126.4099  126.4697   59.8683 H   0  0  0  0  0  0  0  0  0  0  0  0
  126.6059  124.7093   59.1757 H   0  0  0  0  0  0  0  0  0  0  0  0
  1  2  1  0
  2  3  1  0
  4  3  1  1
  4  5  1  0
  5  6  2  0
  6  7  1  0
  7  8  1  0
  8  9  2  0
  9 10  1  0
 10 11  1  0
 11 12  1  0
 11 13  1  0
 13 14  2  0
  7 15  1  0
 16 15  1  1
 16 17  1  0
 17 18  1  0
 18 19  1  0
 18 20  1  0
 20 21  1  0
 20 22  1  0
 22 23  1  0
 23 24  1  0
 24 25  2  0
 24 26  1  0
 26 27  1  0
 27 28  1  0
 28 29  1  0
 29 30  1  0
 29 31  1  0
 26 32  2  0
 32 33  1  0
 32 34  1  0
 34 35  1  6
 34 36  1  0
 36 37  1  0
 37 38  1  0
 38 39  1  0
 39 40  1  0
 39 41  1  6
 39 42  1  0
 42 43  1  0
 42 44  1  0
 44 45  1  0
 45 46  1  0
 46 47  1  0
 47 48  1  0
 47 49  1  0
 49 50  1  0
 38 51  1  0
 51 52  1  6
 51 53  1  0
 33  4  1  0
 51 34  1  0
 53  4  1  0
 14  8  1  0
 23 16  1  0
 49 44  1  0
 33 16  1  0
  1 54  1  0
  1 55  1  0
  1 56  1  0
  2 57  1  0
  2 58  1  0
  3 59  1  0
  3 60  1  0
  5 61  1  0
  6 62  1  0
  7 63  1  1
  9 64  1  0
 10 65  1  0
 11 66  1  1
 12 67  1  0
 12 68  1  0
 13 69  1  0
 14 70  1  0
 15 71  1  0
 15 72  1  0
 17 73  1  0
 17 74  1  0
 18 75  1  6
 19 76  1  0
 20 77  1  6
 21 78  1  0
 22 79  1  0
 22 80  1  0
 23 81  1  6
 27 82  1  0
 28 83  1  0
 28 84  1  0
 29 85  1  6
 30 86  1  0
 30 87  1  0
 30 88  1  0
 31 89  1  0
 33 90  1  6
 35 91  1  0
 36 92  1  0
 36 93  1  0
 37 94  1  0
 37 95  1  0
 38 96  1  6
 40 97  1  0
 40 98  1  0
 40 99  1  0
 41100  1  0
 42101  1  6
 43102  1  0
 44103  1  1
 46104  1  0
 46105  1  0
 47106  1  1
 48107  1  0
 48108  1  0
 48109  1  0
 49110  1  1
 50111  1  0
 50112  1  0
 50113  1  0
 52114  1  0
 52115  1  0
 52116  1  0
 53117  1  0
 53118  1  0
M  CHG  1   2   1
M  END
>  <Binding energies>  (1) 
[-6.21]

>  <Ligand effiencies>  (1) 
[-0.0926865671641791]

>  <Interactions>  (1) 
["V-A:ILE:369:CG2:3237, H-B:GLU:543:O:9875, V-B:GLU:543:CB:9878, V-B:ASP:366:CG:8184, H-A:TYR:531:OH:4795, V-B:TYR:539:CE2:9848, V-A:TYR:484:CE2:4346, V-B:GLU:543:CG:9879, V-A:TYR:539:CE2:4876, V-A:ASP:366:CG:3213, V-A:TYR:539:CD1:4873, V-B:TYR:539:CZ:9849, H-B:GLU:543:OE1:9881, V-A:TYR:539:CZ:4877, V-B:TYR:531:CZ:9766, H-B:TYR:539:OH:9850, V-A:TYR:484:CZ:4347, V-A:GLU:543:CD:4908, V-B:ASP:366:CB:8183, H-B:ASP:366:OD1:8185, V-B:GLU:543:CA:9876, V-A:TYR:484:CD2:4344, V-A:HIS:456:CE1:4070, V-B:TYR:539:CD2:9846, V-A:TYR:531:CZ:4794, H-A:SER:385:OG:3410, V-A:MET:535:CE:4835, V-B:GLU:543:CD:9880, V-A:TYR:539:C:4867, H-B:TYR:531:OH:9767, V-A:ASP:366:CB:3212, V-A:LEU:475:CD2:4259, H-A:ASP:366:O:3209, H-A:ASP:366:OD1:3214, V-A:PRO:540:N:4884, V-A:TYR:539:CG:4872, H-B:GLU:543:OE2:9882, V-A:PRO:540:CA:4883, H-A:SER:385:O:3406, H-A:ASP:366:OD2:3215, V-A:TYR:539:CE1:4875, H-A:HIS:456:NE2:4071, H-A:TYR:484:OH:4348"]

$$$$
ZINC2356825765
     RDKit          3D

 84 85  0  0  0  0  0  0  0  0999 V2000
  127.5230  125.9520   60.3200 C   0  0  0  0  0  0  0  0  0  0  0  0
  128.9420  125.8550   60.8640 C   0  0  0  0  0  0  0  0  0  0  0  0
  129.6090  126.8630   61.1030 O   0  0  0  0  0  0  0  0  0  0  0  0
  129.3440  124.5680   61.0260 O   0  0  0  0  0  0  0  0  0  0  0  0
  128.4290  123.4950   61.3110 C   0  0  2  0  0  0  0  0  0  0  0  0
  127.9900  123.6220   62.7900 C   0  0  0  0  0  0  0  0  0  0  0  0
  129.0910  124.1440   63.7070 C   0  0  0  0  0  0  0  0  0  0  0  0
  129.8910  123.2460   64.4200 C   0  0  0  0  0  0  0  0  0  0  0  0
  130.8950  123.7220   65.2570 C   0  0  0  0  0  0  0  0  0  0  0  0
  131.1000  125.0960   65.3810 C   0  0  0  0  0  0  0  0  0  0  0  0
  132.0890  125.5630   66.2050 O   0  0  0  0  0  0  0  0  0  0  0  0
  130.3040  125.9970   64.6730 C   0  0  0  0  0  0  0  0  0  0  0  0
  129.3000  125.5190   63.8350 C   0  0  0  0  0  0  0  0  0  0  0  0
  129.0840  122.1110   61.0770 C   0  0  0  0  0  0  0  0  0  0  0  0
  128.4430  121.0750   61.2570 O   0  0  0  0  0  0  0  0  0  0  0  0
  130.3730  122.1330   60.6890 N   0  0  0  0  0  0  0  0  0  0  0  0
  131.2710  120.9950   60.4520 C   0  0  2  0  0  0  0  0  0  0  0  0
  130.8360  119.7570   61.2850 C   0  0  0  0  0  0  0  0  0  0  0  0
  130.6360  118.4580   60.4680 C   0  0  0  0  0  0  0  0  0  0  0  0
  130.5820  117.2260   61.3980 C   0  0  0  0  0  0  0  0  0  0  0  0
  131.6800  118.2910   59.3440 C   0  0  0  0  0  0  0  0  0  0  0  0
  132.7530  121.3740   60.6940 C   0  0  0  0  0  0  0  0  0  0  0  0
  133.6150  120.5100   60.5300 O   0  0  0  0  0  0  0  0  0  0  0  0
  133.0520  122.6370   61.0940 N   0  0  0  0  0  0  0  0  0  0  0  0
  132.5110  123.1780   62.3440 C   0  0  0  0  0  0  0  0  0  0  0  0
  132.8500  124.6630   62.3220 C   0  0  0  0  0  0  0  0  0  0  0  0
  134.1400  124.6940   61.5220 C   0  0  0  0  0  0  0  0  0  0  0  0
  133.9560  123.6120   60.4440 C   0  0  2  0  0  0  0  0  0  0  0  0
  133.4030  124.2180   59.1410 C   0  0  0  0  0  0  0  0  0  0  0  0
  133.9710  124.0010   58.0710 O   0  0  0  0  0  0  0  0  0  0  0  0
  132.2840  124.9570   59.2800 N   0  0  0  0  0  0  0  0  0  0  0  0
  131.4950  125.6320   58.2270 C   0  0  1  0  0  0  0  0  0  0  0  0
  130.0940  125.0450   58.1440 C   0  0  0  0  0  0  0  0  0  0  0  0
  129.7670  123.9860   58.6810 O   0  0  0  0  0  0  0  0  0  0  0  0
  131.4640  127.1750   58.4080 C   0  0  0  0  0  0  0  0  0  0  0  0
  130.0470  127.7870   58.3550 C   0  0  0  0  0  0  0  0  0  0  0  0
  129.9970  129.2960   58.6670 C   0  0  0  0  0  0  0  0  0  0  0  0
  131.0460  129.7330   59.6070 N   0  0  0  0  0  0  0  0  0  0  0  0
  130.9830  129.7370   60.9540 C   0  0  0  0  0  0  0  0  0  0  0  0
  129.8950  129.3260   61.6270 N   0  0  0  0  0  0  0  0  0  0  0  0
  132.0460  130.1670   61.6480 N   0  0  0  0  0  0  0  0  0  0  0  0
  126.8117  126.0006   61.1577 H   0  0  0  0  0  0  0  0  0  0  0  0
  127.4274  126.8588   59.7047 H   0  0  0  0  0  0  0  0  0  0  0  0
  127.3049  125.0667   59.7047 H   0  0  0  0  0  0  0  0  0  0  0  0
  127.5644  123.5682   60.6349 H   0  0  0  0  0  0  0  0  0  0  0  0
  127.1362  124.3136   62.8419 H   0  0  0  0  0  0  0  0  0  0  0  0
  127.7294  122.6118   63.1388 H   0  0  0  0  0  0  0  0  0  0  0  0
  129.7265  122.1631   64.3191 H   0  0  0  0  0  0  0  0  0  0  0  0
  131.5251  123.0171   65.8192 H   0  0  0  0  0  0  0  0  0  0  0  0
  132.0270  126.5070   66.3690 H   0  0  0  0  0  0  0  0  0  0  0  0
  130.4688  127.0797   64.7763 H   0  0  0  0  0  0  0  0  0  0  0  0
  128.6708  126.2250   63.2732 H   0  0  0  0  0  0  0  0  0  0  0  0
  130.8070  123.0370   60.5690 H   0  0  0  0  0  0  0  0  0  0  0  0
  131.1893  120.7178   59.3906 H   0  0  0  0  0  0  0  0  0  0  0  0
  131.6092  119.5673   62.0441 H   0  0  0  0  0  0  0  0  0  0  0  0
  129.8543  120.0046   61.7150 H   0  0  0  0  0  0  0  0  0  0  0  0
  129.6633  118.5419   59.9612 H   0  0  0  0  0  0  0  0  0  0  0  0
  130.5965  117.5574   62.4468 H   0  0  0  0  0  0  0  0  0  0  0  0
  129.6582  116.6609   61.2048 H   0  0  0  0  0  0  0  0  0  0  0  0
  131.4528  116.5823   61.2048 H   0  0  0  0  0  0  0  0  0  0  0  0
  132.6740  118.1320   59.7875 H   0  0  0  0  0  0  0  0  0  0  0  0
  131.4132  117.4241   58.7216 H   0  0  0  0  0  0  0  0  0  0  0  0
  131.6970  119.1978   58.7216 H   0  0  0  0  0  0  0  0  0  0  0  0
  131.4215  123.0325   62.3867 H   0  0  0  0  0  0  0  0  0  0  0  0
  132.9351  122.6745   63.2252 H   0  0  0  0  0  0  0  0  0  0  0  0
  132.0595  125.2438   61.8242 H   0  0  0  0  0  0  0  0  0  0  0  0
  132.9450  125.1059   63.3244 H   0  0  0  0  0  0  0  0  0  0  0  0
  134.2863  125.6814   61.0598 H   0  0  0  0  0  0  0  0  0  0  0  0
  135.0242  124.5102   62.1501 H   0  0  0  0  0  0  0  0  0  0  0  0
  134.8908  123.1304   60.1212 H   0  0  0  0  0  0  0  0  0  0  0  0
  131.8680  124.9960   60.1990 H   0  0  0  0  0  0  0  0  0  0  0  0
  131.9999  125.4452   57.2677 H   0  0  0  0  0  0  0  0  0  0  0  0
  129.3319  125.5962   57.5736 H   0  0  0  0  0  0  0  0  0  0  0  0
  131.9088  127.4174   59.3844 H   0  0  0  0  0  0  0  0  0  0  0  0
  132.0272  127.6048   57.5665 H   0  0  0  0  0  0  0  0  0  0  0  0
  129.6413  127.6302   57.3446 H   0  0  0  0  0  0  0  0  0  0  0  0
  129.4565  127.2838   59.1348 H   0  0  0  0  0  0  0  0  0  0  0  0
  130.1188  129.8513   57.7253 H   0  0  0  0  0  0  0  0  0  0  0  0
  129.0270  129.4976   59.1450 H   0  0  0  0  0  0  0  0  0  0  0  0
  131.9120  130.0330   59.1810 H   0  0  0  0  0  0  0  0  0  0  0  0
  129.8820  129.3460   62.6370 H   0  0  0  0  0  0  0  0  0  0  0  0
  129.0830  129.0000   61.1230 H   0  0  0  0  0  0  0  0  0  0  0  0
  132.8750  130.4810   61.1650 H   0  0  0  0  0  0  0  0  0  0  0  0
  132.0200  130.1840   62.6580 H   0  0  0  0  0  0  0  0  0  0  0  0
  1  2  1  0
  2  3  2  0
  2  4  1  0
  4  5  1  0
  5  6  1  0
  6  7  1  0
  7  8  2  0
  8  9  1  0
  9 10  2  0
 10 11  1  0
 10 12  1  0
 12 13  2  0
  5 14  1  0
 14 15  2  0
 14 16  1  0
 16 17  1  0
 17 18  1  0
 18 19  1  0
 19 20  1  0
 19 21  1  0
 17 22  1  0
 22 23  2  0
 22 24  1  0
 24 25  1  0
 25 26  1  0
 26 27  1  0
 27 28  1  0
 28 29  1  0
 29 30  2  0
 29 31  1  0
 31 32  1  0
 32 33  1  0
 33 34  2  0
 32 35  1  0
 35 36  1  0
 36 37  1  0
 37 38  1  0
 38 39  1  0
 39 40  1  0
 39 41  2  0
 13  7  1  0
 28 24  1  0
  1 42  1  0
  1 43  1  0
  1 44  1  0
  5 45  1  6
  6 46  1  0
  6 47  1  0
  8 48  1  0
  9 49  1  0
 11 50  1  0
 12 51  1  0
 13 52  1  0
 16 53  1  0
 17 54  1  6
 18 55  1  0
 18 56  1  0
 19 57  1  0
 20 58  1  0
 20 59  1  0
 20 60  1  0
 21 61  1  0
 21 62  1  0
 21 63  1  0
 25 64  1  0
 25 65  1  0
 26 66  1  0
 26 67  1  0
 27 68  1  0
 27 69  1  0
 28 70  1  6
 31 71  1  0
 32 72  1  6
 33 73  1  0
 35 74  1  0
 35 75  1  0
 36 76  1  0
 36 77  1  0
 37 78  1  0
 37 79  1  0
 38 80  1  0
 40 81  1  0
 40 82  1  0
 41 83  1  0
 41 84  1  0
M  CHG  1  41   1
M  END
>  <Binding energies>  (1) 
[-7.19]

>  <Ligand effiencies>  (1) 
[-0.14673469387755103]

>  <Interactions>  (1) 
["V-A:ILE:369:CG2:3237, V-A:ASP:366:CA:3210, V-B:PRO:540:CA:9855, H-A:GLU:543:OE2:4910, V-A:ILE:369:CB:3236, V-B:TYR:539:CE2:9848, V-A:TYR:484:CE2:4346, V-A:LEU:475:CG:4257, V-B:GLU:543:CG:9879, V-B:TYR:539:C:9839, V-A:ASP:366:CG:3213, V-B:TYR:539:CZ:9849, H-B:TYR:539:OH:9850, H-B:ALA:541:N:9863, V-B:TYR:539:CB:9843, V-A:TYR:484:CZ:4347, V-A:GLU:543:CD:4908, V-A:ILE:369:CD1:3239, V-A:PRO:482:CB:4326, V-B:TYR:539:CD2:9846, H-A:SER:385:OG:3410, V-B:GLU:543:CD:9880, V-A:ASP:366:CB:3212, V-A:LEU:475:CD2:4259, H-A:GLU:543:OE1:4909, V-B:TYR:539:CG:9844, V-A:HIS:383:CD2:3392, H-A:ARG:545:NE:4924, H-A:ASP:366:OD2:3215, V-A:HIS:383:NE2:3394, H-A:TYR:484:OH:4348"]

$$$$
ZINC2356826959
     RDKit          3D

100105  0  0  0  0  0  0  0  0999 V2000
  133.1900  131.1250   63.2810 C   0  0  0  0  0  0  0  0  0  0  0  0
  132.4290  132.0570   62.5210 O   0  0  0  0  0  0  0  0  0  0  0  0
  132.0510  131.7330   61.2300 C   0  0  0  0  0  0  0  0  0  0  0  0
  130.7270  131.4570   60.8470 C   0  0  0  0  0  0  0  0  0  0  0  0
  130.4070  131.1310   59.5210 C   0  0  0  0  0  0  0  0  0  0  0  0
  128.9640  130.8050   59.1120 C   0  0  2  0  0  0  0  0  0  0  0  0
  128.1700  130.3260   60.2600 C   0  0  0  0  0  0  0  0  0  0  0  0
  127.4980  129.9280   61.1990 C   0  0  0  0  0  0  0  0  0  0  0  0
  126.6990  129.4160   62.3240 C   0  0  0  0  0  0  0  0  0  0  0  0
  127.3780  129.6080   63.6000 N   0  0  0  0  0  0  0  0  0  0  0  0
  127.9940  128.5850   64.3380 C   0  0  0  0  0  0  0  0  0  0  0  0
  128.4640  127.3870   63.7750 C   0  0  0  0  0  0  0  0  0  0  0  0
  129.0690  126.4280   64.6020 C   0  0  0  0  0  0  0  0  0  0  0  0
  129.1790  126.6970   65.9710 C   0  0  0  0  0  0  0  0  0  0  0  0
  128.6900  127.9050   66.4610 C   0  0  0  0  0  0  0  0  0  0  0  0
  128.1080  128.8370   65.6670 N   0  0  0  0  0  0  0  0  0  0  0  0
  129.5780  125.0910   64.0380 C   0  0  2  0  0  0  0  0  0  0  0  0
  131.0950  125.0080   63.7420 C   0  0  0  0  0  0  0  0  0  0  0  0
  131.5850  125.0690   62.4260 C   0  0  0  0  0  0  0  0  0  0  0  0
  132.9540  125.0150   62.1660 C   0  0  0  0  0  0  0  0  0  0  0  0
  133.8610  124.9170   63.2170 C   0  0  0  0  0  0  0  0  0  0  0  0
  133.3980  124.8850   64.5310 C   0  0  0  0  0  0  0  0  0  0  0  0
  134.2880  124.8050   65.5680 O   0  0  0  0  0  0  0  0  0  0  0  0
  132.0270  124.9400   64.7890 C   0  0  0  0  0  0  0  0  0  0  0  0
  128.6310  124.5620   62.9170 C   0  0  0  0  0  0  0  0  0  0  0  0
  128.8520  123.1110   62.5080 C   0  0  0  0  0  0  0  0  0  0  0  0
  129.7990  122.2450   63.0480 C   0  0  0  0  0  0  0  0  0  0  0  0
  129.7030  121.0300   62.4400 N   0  0  0  0  0  0  0  0  0  0  0  0
  128.6960  121.0940   61.5230 C   0  0  0  0  0  0  0  0  0  0  0  0
  128.1240  122.3630   61.5430 C   0  0  0  0  0  0  0  0  0  0  0  0
  126.9710  122.8590   60.6750 C   0  0  0  0  0  0  0  0  0  0  0  0
  127.3510  123.8130   59.4900 C   0  0  1  0  0  0  0  0  0  0  0  0
  126.9260  123.1210   58.1720 C   0  0  0  0  0  0  0  0  0  0  0  0
  126.4200  123.7830   57.1160 C   0  0  0  0  0  0  0  0  0  0  0  0
  126.1870  125.2070   57.1590 C   0  0  0  0  0  0  0  0  0  0  0  0
  126.2210  125.8740   58.3240 C   0  0  0  0  0  0  0  0  0  0  0  0
  126.4930  125.1560   59.6510 C   0  0  2  0  0  0  0  0  0  0  0  0
  126.9430  126.1710   60.7200 C   0  0  0  0  0  0  0  0  0  0  0  0
  128.8840  124.0910   59.3070 C   0  0  0  0  0  0  0  0  0  0  0  0
  129.3530  124.7860   58.0040 C   0  0  0  0  0  0  0  0  0  0  0  0
  130.2230  126.0410   58.2510 C   0  0  2  0  0  0  0  0  0  0  0  0
  131.2290  125.7370   59.2230 O   0  0  0  0  0  0  0  0  0  0  0  0
  132.1890  124.8150   58.9950 C   0  0  0  0  0  0  0  0  0  0  0  0
  133.1840  125.2710   57.9350 C   0  0  0  0  0  0  0  0  0  0  0  0
  132.2960  123.7200   59.5490 O   0  0  0  0  0  0  0  0  0  0  0  0
  129.3990  127.3170   58.6010 C   0  0  0  0  0  0  0  0  0  0  0  0
  129.8380  128.6490   57.9640 C   0  0  0  0  0  0  0  0  0  0  0  0
  130.9640  128.7640   57.4870 O   0  0  0  0  0  0  0  0  0  0  0  0
  128.8600  129.8280   57.9120 C   0  0  0  0  0  0  0  0  0  0  0  0
  131.4290  131.0830   58.5690 C   0  0  0  0  0  0  0  0  0  0  0  0
  132.7450  131.3570   58.9320 C   0  0  0  0  0  0  0  0  0  0  0  0
  133.0570  131.6790   60.2540 C   0  0  0  0  0  0  0  0  0  0  0  0
  134.3630  131.9390   60.5820 O   0  0  0  0  0  0  0  0  0  0  0  0
  133.0358  131.3139   64.3536 H   0  0  0  0  0  0  0  0  0  0  0  0
  132.8655  130.1023   63.0384 H   0  0  0  0  0  0  0  0  0  0  0  0
  134.2569  131.2384   63.0384 H   0  0  0  0  0  0  0  0  0  0  0  0
  129.9272  131.4974   61.6011 H   0  0  0  0  0  0  0  0  0  0  0  0
  128.5345  131.7564   58.7650 H   0  0  0  0  0  0  0  0  0  0  0  0
  125.7366  129.9481   62.3488 H   0  0  0  0  0  0  0  0  0  0  0  0
  126.5493  128.3365   62.1746 H   0  0  0  0  0  0  0  0  0  0  0  0
  127.3280  130.5250   64.0190 H   0  0  0  0  0  0  0  0  0  0  0  0
  128.3588  127.2022   62.6958 H   0  0  0  0  0  0  0  0  0  0  0  0
  129.6442  125.9661   66.6488 H   0  0  0  0  0  0  0  0  0  0  0  0
  128.7797  128.1118   67.5376 H   0  0  0  0  0  0  0  0  0  0  0  0
  129.5142  124.3666   64.8633 H   0  0  0  0  0  0  0  0  0  0  0  0
  130.8778  125.1607   61.5884 H   0  0  0  0  0  0  0  0  0  0  0  0
  133.3176  125.0499   61.1284 H   0  0  0  0  0  0  0  0  0  0  0  0
  134.9403  124.8649   63.0111 H   0  0  0  0  0  0  0  0  0  0  0  0
  133.8670  124.5920   66.4050 H   0  0  0  0  0  0  0  0  0  0  0  0
  131.6715  124.9299   65.8299 H   0  0  0  0  0  0  0  0  0  0  0  0
  127.5949  124.6605   63.2731 H   0  0  0  0  0  0  0  0  0  0  0  0
  128.8499  125.1661   62.0242 H   0  0  0  0  0  0  0  0  0  0  0  0
  130.5144  122.5023   63.8430 H   0  0  0  0  0  0  0  0  0  0  0  0
  130.2760  120.2230   62.6350 H   0  0  0  0  0  0  0  0  0  0  0  0
  128.3831  120.2683   60.8670 H   0  0  0  0  0  0  0  0  0  0  0  0
  126.4704  121.9776   60.2478 H   0  0  0  0  0  0  0  0  0  0  0  0
  126.3394  123.4616   61.3444 H   0  0  0  0  0  0  0  0  0  0  0  0
  127.0441  122.0301   58.0950 H   0  0  0  0  0  0  0  0  0  0  0  0
  126.1782  123.2264   56.1985 H   0  0  0  0  0  0  0  0  0  0  0  0
  125.9792  125.7521   56.2265 H   0  0  0  0  0  0  0  0  0  0  0  0
  126.0497  126.9606   58.3262 H   0  0  0  0  0  0  0  0  0  0  0  0
  125.5540  124.7395   60.0445 H   0  0  0  0  0  0  0  0  0  0  0  0
  126.7585  125.7549   61.7214 H   0  0  0  0  0  0  0  0  0  0  0  0
  128.0169  126.3772   60.6008 H   0  0  0  0  0  0  0  0  0  0  0  0
  126.3748  127.1053   60.6008 H   0  0  0  0  0  0  0  0  0  0  0  0
  129.2028  124.7250   60.1475 H   0  0  0  0  0  0  0  0  0  0  0  0
  129.3382  123.0902   59.2601 H   0  0  0  0  0  0  0  0  0  0  0  0
  129.9412  124.0649   57.4174 H   0  0  0  0  0  0  0  0  0  0  0  0
  128.4494  125.1190   57.4724 H   0  0  0  0  0  0  0  0  0  0  0  0
  130.7175  126.3021   57.3037 H   0  0  0  0  0  0  0  0  0  0  0  0
  134.0793  125.6813   58.4249 H   0  0  0  0  0  0  0  0  0  0  0  0
  133.4697  124.4140   57.3074 H   0  0  0  0  0  0  0  0  0  0  0  0
  132.7213  126.0469   57.3074 H   0  0  0  0  0  0  0  0  0  0  0  0
  128.3595  127.1319   58.2923 H   0  0  0  0  0  0  0  0  0  0  0  0
  129.5533  127.4606   59.6806 H   0  0  0  0  0  0  0  0  0  0  0  0
  129.0546  130.3951   56.9897 H   0  0  0  0  0  0  0  0  0  0  0  0
  127.8487  129.3966   57.9473 H   0  0  0  0  0  0  0  0  0  0  0  0
  131.1921  130.8270   57.5258 H   0  0  0  0  0  0  0  0  0  0  0  0
  133.5416  131.3196   58.1744 H   0  0  0  0  0  0  0  0  0  0  0  0
  134.4700  132.2430   61.4860 H   0  0  0  0  0  0  0  0  0  0  0  0
  1  2  1  0
  2  3  1  0
  3  4  2  0
  4  5  1  0
  5  6  1  0
  6  7  1  0
  7  8  3  0
  8  9  1  0
  9 10  1  0
 10 11  1  0
 11 12  2  0
 12 13  1  0
 13 14  2  0
 14 15  1  0
 15 16  2  0
 13 17  1  0
 17 18  1  0
 18 19  2  0
 19 20  1  0
 20 21  2  0
 21 22  1  0
 22 23  1  0
 22 24  2  0
 17 25  1  0
 25 26  1  0
 26 27  2  0
 27 28  1  0
 28 29  1  0
 29 30  2  0
 30 31  1  0
 32 31  1  1
 32 33  1  0
 33 34  2  0
 34 35  1  0
 35 36  2  0
 36 37  1  0
 37 38  1  0
 32 39  1  0
 39 40  1  0
 40 41  1  0
 41 42  1  0
 42 43  1  0
 43 44  1  0
 43 45  2  0
 41 46  1  0
 46 47  1  0
 47 48  2  0
 47 49  1  0
  5 50  2  0
 50 51  1  0
 51 52  2  0
 52 53  1  0
 52  3  1  0
 49  6  1  0
 16 11  1  0
 24 18  1  0
 30 26  1  0
 37 32  1  0
  1 54  1  0
  1 55  1  0
  1 56  1  0
  4 57  1  0
  6 58  1  6
  9 59  1  0
  9 60  1  0
 10 61  1  0
 12 62  1  0
 14 63  1  0
 15 64  1  0
 17 65  1  1
 19 66  1  0
 20 67  1  0
 21 68  1  0
 23 69  1  0
 24 70  1  0
 25 71  1  0
 25 72  1  0
 27 73  1  0
 28 74  1  0
 29 75  1  0
 31 76  1  0
 31 77  1  0
 33 78  1  0
 34 79  1  0
 35 80  1  0
 36 81  1  0
 37 82  1  1
 38 83  1  0
 38 84  1  0
 38 85  1  0
 39 86  1  0
 39 87  1  0
 40 88  1  0
 40 89  1  0
 41 90  1  6
 44 91  1  0
 44 92  1  0
 44 93  1  0
 46 94  1  0
 46 95  1  0
 49 96  1  0
 49 97  1  0
 50 98  1  0
 51 99  1  0
 53100  1  0
M  END
>  <Binding energies>  (1) 
[-5.15]

>  <Ligand effiencies>  (1) 
[-0.08728813559322035]

>  <Interactions>  (1) 
["V-A:ASP:366:CA:3210, V-B:PRO:540:CA:9855, H-A:ALA:541:N:4891, V-B:GLU:543:CB:9878, V-B:ALA:541:CB:9864, H-A:TYR:531:OH:4795, V-B:TYR:539:CE2:9848, V-B:GLU:543:CG:9879, V-B:TYR:539:C:9839, V-A:ASP:366:CG:3213, V-A:ASN:362:CB:3176, V-A:LEU:363:CD1:3189, H-A:ASN:359:O:3148, V-B:TYR:539:CZ:9849, V-B:TYR:531:CZ:9766, H-B:TYR:539:OH:9850, V-B:TYR:531:CE2:9765, V-A:GLU:543:CD:4908, V-B:PRO:540:CB:9857, H-B:TYR:484:OH:9319, V-A:ASN:362:CG:3177, H-A:GLY:454:N:4050, V-B:PRO:540:N:9856, V-A:ASP:366:C:3208, V-A:GLU:543:CG:4907, V-B:GLU:543:CD:9880, V-A:ASP:366:CB:3212, V-A:LEU:475:CD2:4259, V-A:ARG:545:CZ:4926, H-A:LEU:363:N:3186, V-A:GLU:543:CB:4906, V-A:PRO:540:CB:4885, V-A:PRO:540:CA:4883, V-A:LEU:363:CA:3185, V-A:GLY:453:CA:4044, H-A:ARG:545:NE:4924, V-B:PRO:540:C:9853, H-A:ASP:366:OD2:3215, V-B:ALA:541:CA:9862, H-A:TYR:484:OH:4348"]

$$$$
ZINC2356831287
     RDKit          3D

117123  0  0  0  0  0  0  0  0999 V2000
  128.1260  131.4100   59.0780 C   0  0  0  0  0  0  0  0  0  0  0  0
  129.5760  130.9350   59.2940 C   0  0  1  0  0  0  0  0  0  0  0  0
  129.5810  129.5020   59.3380 O   0  0  0  0  0  0  0  0  0  0  0  0
  130.8500  128.9710   59.6110 C   0  0  1  0  0  0  0  0  0  0  0  0
  130.7190  127.5980   59.8480 O   0  0  0  0  0  0  0  0  0  0  0  0
  129.5450  127.0720   60.4860 C   0  0  1  0  0  0  0  0  0  0  0  0
  129.1890  125.6370   60.0030 C   0  0  0  0  0  0  0  0  0  0  0  0
  127.8990  125.0870   60.6790 C   0  0  0  0  0  0  0  0  0  0  0  0
  126.6440  125.9510   60.3770 C   0  0  0  0  0  0  0  0  0  0  0  0
  127.6900  123.6380   60.1780 C   0  0  0  0  0  0  0  0  0  0  0  0
  128.2440  125.0170   62.1900 C   0  0  0  0  0  0  0  0  0  0  0  0
  128.5700  126.4150   62.7890 C   0  0  1  0  0  0  0  0  0  0  0  0
  128.8120  126.4800   64.3200 C   0  0  0  0  0  0  0  0  0  0  0  0
  127.9840  127.2290   65.0670 C   0  0  0  0  0  0  0  0  0  0  0  0
  128.2250  127.6970   66.4730 C   0  0  0  0  0  0  0  0  0  0  0  0
  129.7090  127.5250   66.9610 C   0  0  1  0  0  0  0  0  0  0  0  0
  129.8090  127.8980   68.5260 C   0  0  2  0  0  0  0  0  0  0  0  0
  129.1140  129.2950   68.6830 C   0  0  0  0  0  0  0  0  0  0  0  0
  131.2670  128.0630   69.0760 C   0  0  0  0  0  0  0  0  0  0  0  0
  131.3680  128.2850   70.6000 C   0  0  0  0  0  0  0  0  0  0  0  0
  130.6910  127.1190   71.3650 C   0  0  1  0  0  0  0  0  0  0  0  0
  130.8360  127.3430   72.7740 O   0  0  0  0  0  0  0  0  0  0  0  0
  130.1840  128.4350   73.3730 C   0  0  1  0  0  0  0  0  0  0  0  0
  129.8970  129.4380   72.4180 O   0  0  0  0  0  0  0  0  0  0  0  0
  129.3320  130.6520   72.9470 C   0  0  2  0  0  0  0  0  0  0  0  0
  130.3610  131.5050   73.7650 C   0  0  0  0  0  0  0  0  0  0  0  0
  130.2000  131.6710   74.9970 O   0  0  0  0  0  0  0  0  0  0  0  0
  131.3040  132.0250   73.1250 O   0  0  0  0  0  0  0  0  0  0  0  0
  127.9800  130.3110   73.6470 C   0  0  2  0  0  0  0  0  0  0  0  0
  127.2370  131.4350   74.0950 O   0  0  0  0  0  0  0  0  0  0  0  0
  128.1680  129.2140   74.7160 C   0  0  1  0  0  0  0  0  0  0  0  0
  126.9310  128.8370   75.3000 O   0  0  0  0  0  0  0  0  0  0  0  0
  128.8980  127.9870   74.1080 C   0  0  2  0  0  0  0  0  0  0  0  0
  129.1940  127.0190   75.0990 O   0  0  0  0  0  0  0  0  0  0  0  0
  129.1790  126.9200   70.9770 C   0  0  2  0  0  0  0  0  0  0  0  0
  128.3380  128.1450   71.4570 C   0  0  0  0  0  0  0  0  0  0  0  0
  128.6670  125.6040   71.6630 C   0  0  0  0  0  0  0  0  0  0  0  0
  129.2170  125.3390   72.9410 O   0  0  0  0  0  0  0  0  0  0  0  0
  129.1010  126.7550   69.3850 C   0  0  2  0  0  0  0  0  0  0  0  0
  129.5350  125.3330   68.8810 C   0  0  0  0  0  0  0  0  0  0  0  0
  129.4560  125.1070   67.3510 C   0  0  0  0  0  0  0  0  0  0  0  0
  130.2900  126.1220   66.4960 C   0  0  2  0  0  0  0  0  0  0  0  0
  131.8100  125.9210   66.8220 C   0  0  0  0  0  0  0  0  0  0  0  0
  130.1400  125.8880   64.8920 C   0  0  1  0  0  0  0  0  0  0  0  0
  130.2020  124.3480   64.6150 C   0  0  0  0  0  0  0  0  0  0  0  0
  131.2740  126.5960   64.0530 C   0  0  0  0  0  0  0  0  0  0  0  0
  131.0760  126.5570   62.5140 C   0  0  0  0  0  0  0  0  0  0  0  0
  129.7290  127.1780   62.0490 C   0  0  1  0  0  0  0  0  0  0  0  0
  129.7000  128.6960   62.4050 C   0  0  0  0  0  0  0  0  0  0  0  0
  131.7540  129.2160   58.3860 C   0  0  0  0  0  0  0  0  0  0  0  0
  131.7900  130.6800   57.9260 C   0  0  0  0  0  0  0  0  0  0  0  0
  132.7320  131.2230   57.3480 O   0  0  0  0  0  0  0  0  0  0  0  0
  130.5210  131.5340   58.2320 C   0  0  0  0  0  0  0  0  0  0  0  0
  130.3680  132.5910   57.6150 O   0  0  0  0  0  0  0  0  0  0  0  0
  127.6429  131.5683   60.0535 H   0  0  0  0  0  0  0  0  0  0  0  0
  128.1297  132.3539   58.5132 H   0  0  0  0  0  0  0  0  0  0  0  0
  127.5705  130.6469   58.5132 H   0  0  0  0  0  0  0  0  0  0  0  0
  129.9673  131.3000   60.2551 H   0  0  0  0  0  0  0  0  0  0  0  0
  131.2949  129.4498   60.4958 H   0  0  0  0  0  0  0  0  0  0  0  0
  128.6734  127.6764   60.1943 H   0  0  0  0  0  0  0  0  0  0  0  0
  129.0356  125.6586   58.9140 H   0  0  0  0  0  0  0  0  0  0  0  0
  130.0218  124.9736   60.2793 H   0  0  0  0  0  0  0  0  0  0  0  0
  126.1817  126.2693   61.3230 H   0  0  0  0  0  0  0  0  0  0  0  0
  126.9401  126.8376   59.7971 H   0  0  0  0  0  0  0  0  0  0  0  0
  125.9215  125.3580   59.7971 H   0  0  0  0  0  0  0  0  0  0  0  0
  127.5925  122.9623   61.0405 H   0  0  0  0  0  0  0  0  0  0  0  0
  126.7755  123.5890   59.5687 H   0  0  0  0  0  0  0  0  0  0  0  0
  128.5534  123.3326   59.5687 H   0  0  0  0  0  0  0  0  0  0  0  0
  127.3841  124.5933   62.7295 H   0  0  0  0  0  0  0  0  0  0  0  0
  129.1392  124.3875   62.3009 H   0  0  0  0  0  0  0  0  0  0  0  0
  127.6171  126.9332   62.6060 H   0  0  0  0  0  0  0  0  0  0  0  0
  127.0337  127.5297   64.6017 H   0  0  0  0  0  0  0  0  0  0  0  0
  127.9635  128.7639   66.5316 H   0  0  0  0  0  0  0  0  0  0  0  0
  127.6013  127.0702   67.1273 H   0  0  0  0  0  0  0  0  0  0  0  0
  130.3898  128.2403   66.4764 H   0  0  0  0  0  0  0  0  0  0  0  0
  128.9977  129.5287   69.7516 H   0  0  0  0  0  0  0  0  0  0  0  0
  129.7325  130.0682   68.2038 H   0  0  0  0  0  0  0  0  0  0  0  0
  128.1242  129.2681   68.2038 H   0  0  0  0  0  0  0  0  0  0  0  0
  131.8312  127.1525   68.8257 H   0  0  0  0  0  0  0  0  0  0  0  0
  131.6721  128.9711   68.6055 H   0  0  0  0  0  0  0  0  0  0  0  0
  132.4281  128.3398   70.8883 H   0  0  0  0  0  0  0  0  0  0  0  0
  130.8558  129.2239   70.8573 H   0  0  0  0  0  0  0  0  0  0  0  0
  131.1960  126.1856   71.0755 H   0  0  0  0  0  0  0  0  0  0  0  0
  130.8663  128.8624   74.1225 H   0  0  0  0  0  0  0  0  0  0  0  0
  129.0858  131.3500   72.1332 H   0  0  0  0  0  0  0  0  0  0  0  0
  127.3297  129.8925   72.8647 H   0  0  0  0  0  0  0  0  0  0  0  0
  127.8410  132.0330   74.5430 H   0  0  0  0  0  0  0  0  0  0  0  0
  128.7937  129.6272   75.5208 H   0  0  0  0  0  0  0  0  0  0  0  0
  126.3110  129.5610   75.1800 H   0  0  0  0  0  0  0  0  0  0  0  0
  128.2231  127.5168   73.3776 H   0  0  0  0  0  0  0  0  0  0  0  0
  129.9320  126.4860   74.7910 H   0  0  0  0  0  0  0  0  0  0  0  0
  128.3210  128.1698   72.5566 H   0  0  0  0  0  0  0  0  0  0  0  0
  128.7907  129.0724   71.0763 H   0  0  0  0  0  0  0  0  0  0  0  0
  127.3099  128.0557   71.0763 H   0  0  0  0  0  0  0  0  0  0  0  0
  127.5749  125.6788   71.7710 H   0  0  0  0  0  0  0  0  0  0  0  0
  128.9876  124.7757   71.0140 H   0  0  0  0  0  0  0  0  0  0  0  0
  129.7630  126.0850   73.2030 H   0  0  0  0  0  0  0  0  0  0  0  0
  128.0239  126.8761   69.1972 H   0  0  0  0  0  0  0  0  0  0  0  0
  130.5767  125.1677   69.1932 H   0  0  0  0  0  0  0  0  0  0  0  0
  128.8175  124.6270   69.3247 H   0  0  0  0  0  0  0  0  0  0  0  0
  129.8239  124.0932   67.1348 H   0  0  0  0  0  0  0  0  0  0  0  0
  128.4030  125.2541   67.0688 H   0  0  0  0  0  0  0  0  0  0  0  0
  131.9517  125.9023   67.9127 H   0  0  0  0  0  0  0  0  0  0  0  0
  132.1547  124.9695   66.3911 H   0  0  0  0  0  0  0  0  0  0  0  0
  132.3902  126.7502   66.3911 H   0  0  0  0  0  0  0  0  0  0  0  0
  130.2239  123.8041   65.5709 H   0  0  0  0  0  0  0  0  0  0  0  0
  129.3154  124.0429   64.0398 H   0  0  0  0  0  0  0  0  0  0  0  0
  131.1102  124.1152   64.0398 H   0  0  0  0  0  0  0  0  0  0  0  0
  131.3203  127.6501   64.3640 H   0  0  0  0  0  0  0  0  0  0  0  0
  132.1998  126.0380   64.2570 H   0  0  0  0  0  0  0  0  0  0  0  0
  131.8984  127.1149   62.0424 H   0  0  0  0  0  0  0  0  0  0  0  0
  131.0662  125.4986   62.2146 H   0  0  0  0  0  0  0  0  0  0  0  0
  129.6977  128.8162   63.4984 H   0  0  0  0  0  0  0  0  0  0  0  0
  130.5889  129.1884   61.9839 H   0  0  0  0  0  0  0  0  0  0  0  0
  128.7929  129.1541   61.9839 H   0  0  0  0  0  0  0  0  0  0  0  0
  132.7781  128.9080   58.6435 H   0  0  0  0  0  0  0  0  0  0  0  0
  131.3344  128.6293   57.5555 H   0  0  0  0  0  0  0  0  0  0  0  0
  1  2  1  0
  2  3  1  0
  3  4  1  0
  4  5  1  0
  5  6  1  0
  6  7  1  0
  7  8  1  0
  8  9  1  0
  8 10  1  0
  8 11  1  0
 11 12  1  0
 12 13  1  0
 13 14  2  0
 14 15  1  0
 15 16  1  0
 16 17  1  0
 17 18  1  6
 17 19  1  0
 19 20  1  0
 20 21  1  0
 21 22  1  0
 22 23  1  0
 23 24  1  0
 24 25  1  0
 25 26  1  0
 26 27  2  0
 26 28  1  0
 25 29  1  0
 29 30  1  0
 29 31  1  0
 31 32  1  0
 31 33  1  0
 33 34  1  0
 21 35  1  0
 35 36  1  1
 35 37  1  0
 37 38  1  0
 35 39  1  0
 39 40  1  0
 40 41  1  0
 41 42  1  0
 42 43  1  1
 42 44  1  0
 44 45  1  1
 44 46  1  0
 46 47  1  0
 47 48  1  0
 48 49  1  1
  4 50  1  0
 50 51  1  0
 51 52  2  0
 51 53  1  0
 53 54  2  0
 53  2  1  0
 48  6  1  0
 48 12  1  0
 44 13  1  0
 42 16  1  0
 39 17  1  0
 33 23  1  0
  1 55  1  0
  1 56  1  0
  1 57  1  0
  2 58  1  1
  4 59  1  1
  6 60  1  6
  7 61  1  0
  7 62  1  0
  9 63  1  0
  9 64  1  0
  9 65  1  0
 10 66  1  0
 10 67  1  0
 10 68  1  0
 11 69  1  0
 11 70  1  0
 12 71  1  1
 14 72  1  0
 15 73  1  0
 15 74  1  0
 16 75  1  6
 18 76  1  0
 18 77  1  0
 18 78  1  0
 19 79  1  0
 19 80  1  0
 20 81  1  0
 20 82  1  0
 21 83  1  6
 23 84  1  1
 25 85  1  6
 29 86  1  6
 30 87  1  0
 31 88  1  1
 32 89  1  0
 33 90  1  6
 34 91  1  0
 36 92  1  0
 36 93  1  0
 36 94  1  0
 37 95  1  0
 37 96  1  0
 38 97  1  0
 39 98  1  6
 40 99  1  0
 40100  1  0
 41101  1  0
 41102  1  0
 43103  1  0
 43104  1  0
 43105  1  0
 45106  1  0
 45107  1  0
 45108  1  0
 46109  1  0
 46110  1  0
 47111  1  0
 47112  1  0
 49113  1  0
 49114  1  0
 49115  1  0
 50116  1  0
 50117  1  0
M  CHG  1  28  -1
M  END
>  <Binding energies>  (1) 
[7.31]

>  <Ligand effiencies>  (1) 
[0.12603448275862067]

>  <Interactions>  (1) 
["V-B:PRO:540:CA:9855, V-A:GLU:543:CA:4904, V-A:ARG:545:CA:4919, V-B:HIS:456:CD2:9039, V-B:GLU:543:C:9874, V-A:GLU:543:C:4902, V-B:GLU:543:CB:9878, H-B:LYS:547:NZ:9923, V-B:HIS:456:CB:9036, H-A:TYR:531:OH:4795, V-A:TYR:484:CE2:4346, V-A:GLY:544:CA:4914, V-B:GLU:543:CG:9879, V-A:GLY:544:C:4912, V-A:HIS:456:CD2:4068, V-A:ASP:366:CG:3213, V-A:GLU:543:CD:4908, V-A:ARG:545:CG:4922, V-B:HIS:456:CE1:9041, V-B:GLU:543:CA:9876, V-A:HIS:456:CE1:4070, V-B:GLY:544:CA:9886, V-A:GLU:543:CG:4907, V-B:GLU:543:CD:9880, V-B:HIS:456:CG:9037, V-A:ASP:366:CB:3212, H-A:LYS:547:NZ:4951, V-A:ARG:545:CZ:4926, V-A:GLU:543:CB:4906, V-A:HIS:456:CG:4066, V-A:LYS:547:CE:4950, H-A:GLY:544:N:4915, H-A:HIS:456:NE2:4071"]

$$$$
ZINC2356835387
     RDKit          3D

116121  0  0  0  0  0  0  0  0999 V2000
  128.0110  129.4950   66.1150 C   0  0  0  0  0  0  0  0  0  0  0  0
  128.1510  128.1220   65.4420 N   0  0  0  0  0  0  0  0  0  0  0  0
  127.8100  128.0980   63.9400 C   0  0  0  0  0  0  0  0  0  0  0  0
  129.0950  128.1340   63.0470 C   0  0  2  0  0  0  0  0  0  0  0  0
  129.0220  129.3090   62.0430 C   0  0  0  0  0  0  0  0  0  0  0  0
  128.3910  129.0260   60.6280 C   0  0  2  0  0  0  0  0  0  0  0  0
  129.5540  129.0230   59.5720 C   0  0  0  0  0  0  0  0  0  0  0  0
  127.3080  130.1120   60.2490 C   0  0  2  0  0  0  0  0  0  0  0  0
  127.6100  131.6770   60.3820 C   0  0  2  0  0  0  0  0  0  0  0  0
  127.0070  132.2060   61.7130 C   0  0  0  0  0  0  0  0  0  0  0  0
  126.8760  132.3720   59.3910 O   0  0  0  0  0  0  0  0  0  0  0  0
  129.1320  132.0940   60.2450 C   0  0  2  0  0  0  0  0  0  0  0  0
  129.3870  133.2890   60.9710 O   0  0  0  0  0  0  0  0  0  0  0  0
  129.6890  132.3080   58.8000 C   0  0  2  0  0  0  0  0  0  0  0  0
  129.1190  131.3630   57.8910 O   0  0  0  0  0  0  0  0  0  0  0  0
  129.9610  131.1560   56.7540 C   0  0  0  0  0  0  0  0  0  0  0  0
  131.2250  131.9700   57.0490 C   0  0  2  0  0  0  0  0  0  0  0  0
  132.5160  131.4140   56.4190 C   0  0  0  0  0  0  0  0  0  0  0  0
  131.2050  132.1200   58.5670 C   0  0  2  0  0  0  0  0  0  0  0  0
  131.8430  130.9400   59.3430 C   0  0  0  0  0  0  0  0  0  0  0  0
  126.0230  129.6000   60.9250 C   0  0  0  0  0  0  0  0  0  0  0  0
  126.1080  128.0730   60.9420 C   0  0  0  0  0  0  0  0  0  0  0  0
  127.5520  127.6690   60.5420 C   0  0  1  0  0  0  0  0  0  0  0  0
  127.4690  127.2540   59.1780 O   0  0  0  0  0  0  0  0  0  0  0  0
  128.1020  126.4770   61.3950 C   0  0  0  0  0  0  0  0  0  0  0  0
  127.5510  125.2270   61.3740 C   0  0  0  0  0  0  0  0  0  0  0  0
  126.4190  124.9630   60.6170 N   0  0  0  0  0  0  0  0  0  0  0  0
  126.1310  123.7430   59.8690 C   0  0  0  0  0  0  0  0  0  0  0  0
  126.0550  123.9610   58.3450 C   0  0  2  0  0  0  0  0  0  0  0  0
  127.2460  123.3280   57.6090 C   0  0  0  0  0  0  0  0  0  0  0  0
  126.0260  125.3430   58.0390 O   0  0  0  0  0  0  0  0  0  0  0  0
  128.1590  124.1010   62.1000 C   0  0  0  0  0  0  0  0  0  0  0  0
  127.5080  123.1080   62.4310 O   0  0  0  0  0  0  0  0  0  0  0  0
  129.6760  124.2320   62.3640 C   0  0  2  0  0  0  0  0  0  0  0  0
  130.3050  123.0200   63.1280 C   0  0  0  0  0  0  0  0  0  0  0  0
  130.0340  122.9750   64.6560 C   0  0  2  0  0  0  0  0  0  0  0  0
  128.7460  122.4570   64.9350 O   0  0  0  0  0  0  0  0  0  0  0  0
  130.2620  124.3560   65.3330 C   0  0  2  0  0  0  0  0  0  0  0  0
  129.8180  124.3910   66.6790 O   0  0  0  0  0  0  0  0  0  0  0  0
  129.6120  125.5030   64.5200 C   0  0  0  0  0  0  0  0  0  0  0  0
  130.0540  125.6050   63.0140 C   0  0  1  0  0  0  0  0  0  0  0  0
  131.6130  125.8490   62.9420 C   0  0  0  0  0  0  0  0  0  0  0  0
  132.4930  124.7310   62.3250 C   0  0  0  0  0  0  0  0  0  0  0  0
  132.6190  124.8300   60.8120 C   0  0  0  0  0  0  0  0  0  0  0  0
  133.7920  124.5970   60.1850 C   0  0  0  0  0  0  0  0  0  0  0  0
  133.9470  124.7050   58.8160 N   0  0  0  0  0  0  0  0  0  0  0  0
  132.8880  125.0940   57.8720 C   0  0  2  0  0  0  0  0  0  0  0  0
  133.2290  126.2410   57.0580 N   0  0  0  0  0  0  0  0  0  0  0  0
  131.5850  125.3500   58.6490 C   0  0  0  0  0  0  0  0  0  0  0  0
  131.4850  125.2260   59.9890 C   0  0  0  0  0  0  0  0  0  0  0  0
  129.3420  126.8150   62.2530 C   0  0  2  0  0  0  0  0  0  0  0  0
  128.0237  129.3707   67.2079 H   0  0  0  0  0  0  0  0  0  0  0  0
  128.8480  130.1401   65.8096 H   0  0  0  0  0  0  0  0  0  0  0  0
  127.0610  129.9579   65.8096 H   0  0  0  0  0  0  0  0  0  0  0  0
  129.0950  127.7820   65.5710 H   0  0  0  0  0  0  0  0  0  0  0  0
  127.5340  127.4770   65.9150 H   0  0  0  0  0  0  0  0  0  0  0  0
  127.2486  127.1785   63.7178 H   0  0  0  0  0  0  0  0  0  0  0  0
  127.2127  128.9933   63.7126 H   0  0  0  0  0  0  0  0  0  0  0  0
  129.9364  128.2638   63.7436 H   0  0  0  0  0  0  0  0  0  0  0  0
  128.4284  130.1066   62.5136 H   0  0  0  0  0  0  0  0  0  0  0  0
  130.0721  129.5606   61.8334 H   0  0  0  0  0  0  0  0  0  0  0  0
  130.5226  129.0205   60.0933 H   0  0  0  0  0  0  0  0  0  0  0  0
  129.4746  128.1251   58.9416 H   0  0  0  0  0  0  0  0  0  0  0  0
  129.4792  129.9213   58.9416 H   0  0  0  0  0  0  0  0  0  0  0  0
  127.2509  130.1717   59.1521 H   0  0  0  0  0  0  0  0  0  0  0  0
  127.5324  131.7450   62.5624 H   0  0  0  0  0  0  0  0  0  0  0  0
  127.1232  133.2989   61.7594 H   0  0  0  0  0  0  0  0  0  0  0  0
  125.9386  131.9485   61.7594 H   0  0  0  0  0  0  0  0  0  0  0  0
  127.3020  132.2320   58.5420 H   0  0  0  0  0  0  0  0  0  0  0  0
  129.6555  131.2143   60.6477 H   0  0  0  0  0  0  0  0  0  0  0  0
  128.7420  133.9490   60.7090 H   0  0  0  0  0  0  0  0  0  0  0  0
  129.4291  133.3651   58.6417 H   0  0  0  0  0  0  0  0  0  0  0  0
  130.2047  130.0892   56.6415 H   0  0  0  0  0  0  0  0  0  0  0  0
  129.4765  131.4669   55.8167 H   0  0  0  0  0  0  0  0  0  0  0  0
  131.2250  132.9556   56.5605 H   0  0  0  0  0  0  0  0  0  0  0  0
  133.2129  131.1139   57.2154 H   0  0  0  0  0  0  0  0  0  0  0  0
  132.2733  130.5406   55.7958 H   0  0  0  0  0  0  0  0  0  0  0  0
  132.9838  132.1904   55.7958 H   0  0  0  0  0  0  0  0  0  0  0  0
  131.8256  132.9434   58.9503 H   0  0  0  0  0  0  0  0  0  0  0  0
  131.7470  131.1176   60.4243 H   0  0  0  0  0  0  0  0  0  0  0  0
  131.3274  130.0052   59.0778 H   0  0  0  0  0  0  0  0  0  0  0  0
  132.9075  130.8596   59.0778 H   0  0  0  0  0  0  0  0  0  0  0  0
  125.9564  129.9866   61.9527 H   0  0  0  0  0  0  0  0  0  0  0  0
  125.1296  129.9385   60.3798 H   0  0  0  0  0  0  0  0  0  0  0  0
  125.8812  127.6976   61.9508 H   0  0  0  0  0  0  0  0  0  0  0  0
  125.3814  127.6418   60.2376 H   0  0  0  0  0  0  0  0  0  0  0  0
  126.5430  127.2230   58.9270 H   0  0  0  0  0  0  0  0  0  0  0  0
  126.0120  125.7620   60.1510 H   0  0  0  0  0  0  0  0  0  0  0  0
  126.9254  123.0111   60.0770 H   0  0  0  0  0  0  0  0  0  0  0  0
  125.1421  123.3886   60.1954 H   0  0  0  0  0  0  0  0  0  0  0  0
  125.1286  123.4739   58.0067 H   0  0  0  0  0  0  0  0  0  0  0  0
  127.9689  122.9438   58.3437 H   0  0  0  0  0  0  0  0  0  0  0  0
  126.8894  122.5004   56.9782 H   0  0  0  0  0  0  0  0  0  0  0  0
  127.7324  124.0866   56.9782 H   0  0  0  0  0  0  0  0  0  0  0  0
  126.8610  125.7320   58.3070 H   0  0  0  0  0  0  0  0  0  0  0  0
  130.1369  124.2078   61.3655 H   0  0  0  0  0  0  0  0  0  0  0  0
  129.9033  122.0963   62.6859 H   0  0  0  0  0  0  0  0  0  0  0  0
  131.3942  123.1289   63.0192 H   0  0  0  0  0  0  0  0  0  0  0  0
  130.7697  122.2856   65.0958 H   0  0  0  0  0  0  0  0  0  0  0  0
  128.1520  122.7120   64.2250 H   0  0  0  0  0  0  0  0  0  0  0  0
  131.3513  124.5083   65.3465 H   0  0  0  0  0  0  0  0  0  0  0  0
  129.2050  123.6650   66.8180 H   0  0  0  0  0  0  0  0  0  0  0  0
  128.5218  125.3586   64.5435 H   0  0  0  0  0  0  0  0  0  0  0  0
  129.9479  126.4363   64.9956 H   0  0  0  0  0  0  0  0  0  0  0  0
  131.7752  126.7599   62.3470 H   0  0  0  0  0  0  0  0  0  0  0  0
  131.9331  125.9047   63.9929 H   0  0  0  0  0  0  0  0  0  0  0  0
  133.4994  124.7966   62.7641 H   0  0  0  0  0  0  0  0  0  0  0  0
  132.0046  123.7712   62.5490 H   0  0  0  0  0  0  0  0  0  0  0  0
  134.6633  124.3083   60.7911 H   0  0  0  0  0  0  0  0  0  0  0  0
  134.8120  124.4340   58.3710 H   0  0  0  0  0  0  0  0  0  0  0  0
  132.7573  124.2582   57.1689 H   0  0  0  0  0  0  0  0  0  0  0  0
  132.8080  127.0730   57.4430 H   0  0  0  0  0  0  0  0  0  0  0  0
  134.2300  126.3800   57.0730 H   0  0  0  0  0  0  0  0  0  0  0  0
  130.6900  125.6491   58.0838 H   0  0  0  0  0  0  0  0  0  0  0  0
  130.5188  125.4300   60.4736 H   0  0  0  0  0  0  0  0  0  0  0  0
  130.1704  127.0249   61.5604 H   0  0  0  0  0  0  0  0  0  0  0  0
  1  2  1  0
  2  3  1  0
  3  4  1  0
  4  5  1  0
  5  6  1  0
  6  7  1  6
  6  8  1  0
  8  9  1  0
  9 10  1  0
  9 11  1  6
  9 12  1  0
 12 13  1  0
 12 14  1  0
 14 15  1  0
 15 16  1  0
 16 17  1  0
 17 18  1  0
 17 19  1  0
 19 20  1  0
  8 21  1  0
 21 22  1  0
 22 23  1  0
 23 24  1  6
 23 25  1  0
 25 26  2  0
 26 27  1  0
 27 28  1  0
 28 29  1  0
 29 30  1  0
 29 31  1  0
 26 32  1  0
 32 33  2  0
 32 34  1  0
 34 35  1  0
 35 36  1  0
 36 37  1  0
 36 38  1  0
 38 39  1  0
 38 40  1  0
 40 41  1  0
 41 42  1  1
 42 43  1  0
 43 44  1  0
 44 45  2  0
 45 46  1  0
 46 47  1  0
 47 48  1  0
 47 49  1  0
 49 50  2  0
 41 51  1  0
 51  4  1  0
 23  6  1  0
 51 25  1  0
 19 14  1  0
 41 34  1  0
 50 44  1  0
  1 52  1  0
  1 53  1  0
  1 54  1  0
  2 55  1  0
  2 56  1  0
  3 57  1  0
  3 58  1  0
  4 59  1  1
  5 60  1  0
  5 61  1  0
  7 62  1  0
  7 63  1  0
  7 64  1  0
  8 65  1  6
 10 66  1  0
 10 67  1  0
 10 68  1  0
 11 69  1  0
 12 70  1  1
 13 71  1  0
 14 72  1  6
 16 73  1  0
 16 74  1  0
 17 75  1  6
 18 76  1  0
 18 77  1  0
 18 78  1  0
 19 79  1  6
 20 80  1  0
 20 81  1  0
 20 82  1  0
 21 83  1  0
 21 84  1  0
 22 85  1  0
 22 86  1  0
 24 87  1  0
 27 88  1  0
 28 89  1  0
 28 90  1  0
 29 91  1  6
 30 92  1  0
 30 93  1  0
 30 94  1  0
 31 95  1  0
 34 96  1  6
 35 97  1  0
 35 98  1  0
 36 99  1  1
 37100  1  0
 38101  1  1
 39102  1  0
 40103  1  0
 40104  1  0
 42105  1  0
 42106  1  0
 43107  1  0
 43108  1  0
 45109  1  0
 46110  1  0
 47111  1  6
 48112  1  0
 48113  1  0
 49114  1  0
 50115  1  0
 51116  1  6
M  CHG  1   2   1
M  END
>  <Binding energies>  (1) 
[-8.45]

>  <Ligand effiencies>  (1) 
[-0.13412698412698412]

>  <Interactions>  (1) 
["V-A:ILE:369:CG2:3237, V-A:ASP:366:CA:3210, V-B:PRO:540:CA:9855, H-A:GLU:543:OE2:4910, V-A:ILE:369:CB:3236, H-A:ALA:541:N:4891, V-B:ASP:366:CG:8184, H-A:TYR:531:OH:4795, V-A:TYR:484:CE2:4346, V-B:TYR:539:CE2:9848, V-B:GLU:543:CG:9879, V-A:ASP:366:CG:3213, V-A:LEU:363:CD1:3189, V-B:TYR:539:CZ:9849, H-B:GLU:543:OE1:9881, V-A:TYR:531:CE2:4793, H-B:TYR:539:OH:9850, H-B:ALA:541:N:9863, V-A:GLU:543:CD:4908, V-B:PRO:540:CB:9857, H-B:ASP:366:OD1:8185, V-B:TYR:484:CZ:9318, V-A:ILE:369:CD1:3239, V-A:ASP:366:C:3208, V-A:GLU:543:CG:4907, V-A:TYR:531:CZ:4794, V-B:GLU:543:CD:9880, V-A:MET:535:CE:4835, H-B:TYR:531:OH:9767, V-A:ASP:366:CB:3212, V-A:LEU:475:CD2:4259, V-A:ARG:545:CZ:4926, H-A:GLU:543:OE1:4909, H-A:ASP:366:O:3209, V-A:GLU:543:CB:4906, H-A:TYR:539:O:4868, V-A:PRO:540:N:4884, H-B:GLU:543:OE2:9882, V-A:PRO:540:CA:4883, V-A:PRO:540:CB:4885, H-A:TYR:484:OH:4348"]

$$$$
ZINC2356841195
     RDKit          3D

 40 39  0  0  0  0  0  0  0  0999 V2000
  131.0070  126.6340   57.9210 C   0  0  0  0  0  0  0  0  0  0  0  0
  132.2810  125.8310   58.0780 C   0  0  0  0  0  0  0  0  0  0  0  0
  132.4430  124.8170   58.9450 C   0  0  0  0  0  0  0  0  0  0  0  0
  133.7150  124.0070   59.1050 C   0  0  0  0  0  0  0  0  0  0  0  0
  134.0660  123.7250   60.5800 C   0  0  0  0  0  0  0  0  0  0  0  0
  132.9980  122.9060   61.3460 C   0  0  1  0  0  0  0  0  0  0  0  0
  132.4240  121.7240   60.5200 C   0  0  0  0  0  0  0  0  0  0  0  0
  131.2710  120.8950   61.1490 C   0  0  1  0  0  0  0  0  0  0  0  0
  129.9240  121.6090   60.9070 C   0  0  0  0  0  0  0  0  0  0  0  0
  131.2540  119.4240   60.6550 C   0  0  0  0  0  0  0  0  0  0  0  0
  130.2650  118.4980   61.3920 C   0  0  0  0  0  0  0  0  0  0  0  0
  130.2170  117.0830   60.7970 C   0  0  0  0  0  0  0  0  0  0  0  0
  133.5980  122.3060   62.9620 S   0  0  0  0  0  0  0  0  0  0  0  0
  132.8470  123.9040   64.1930 S   0  0  0  0  0  6  0  0  0  0  0  0
  133.9760  124.7350   64.6210 O   0  0  0  0  0  0  0  0  0  0  0  0
  131.6860  124.5030   63.5240 O   0  0  0  0  0  0  0  0  0  0  0  0
  130.6075  126.8858   58.9145 H   0  0  0  0  0  0  0  0  0  0  0  0
  131.2229  127.5596   57.3672 H   0  0  0  0  0  0  0  0  0  0  0  0
  130.2651  126.0400   57.3672 H   0  0  0  0  0  0  0  0  0  0  0  0
  133.1346  126.0964   57.4369 H   0  0  0  0  0  0  0  0  0  0  0  0
  131.5889  124.5549   59.5867 H   0  0  0  0  0  0  0  0  0  0  0  0
  133.5869  123.0462   58.5849 H   0  0  0  0  0  0  0  0  0  0  0  0
  134.5383  124.5978   58.6771 H   0  0  0  0  0  0  0  0  0  0  0  0
  135.0132  123.1663   60.6076 H   0  0  0  0  0  0  0  0  0  0  0  0
  134.1303  124.7027   61.0800 H   0  0  0  0  0  0  0  0  0  0  0  0
  132.1774  123.6164   61.5250 H   0  0  0  0  0  0  0  0  0  0  0  0
  132.0516  122.1370   59.5709 H   0  0  0  0  0  0  0  0  0  0  0  0
  133.2602  121.0146   60.4325 H   0  0  0  0  0  0  0  0  0  0  0  0
  131.4450  120.8354   62.2335 H   0  0  0  0  0  0  0  0  0  0  0  0
  129.4604  121.8547   61.8738 H   0  0  0  0  0  0  0  0  0  0  0  0
  130.0965  122.5341   60.3374 H   0  0  0  0  0  0  0  0  0  0  0  0
  129.2552  120.9470   60.3374 H   0  0  0  0  0  0  0  0  0  0  0  0
  130.9882  119.4260   59.5876 H   0  0  0  0  0  0  0  0  0  0  0  0
  132.2580  119.0218   60.8556 H   0  0  0  0  0  0  0  0  0  0  0  0
  130.5706  118.4256   62.4462 H   0  0  0  0  0  0  0  0  0  0  0  0
  129.2612  118.9353   61.2867 H   0  0  0  0  0  0  0  0  0  0  0  0
  130.1919  116.3436   61.6110 H   0  0  0  0  0  0  0  0  0  0  0  0
  129.3147  116.9764   60.1769 H   0  0  0  0  0  0  0  0  0  0  0  0
  131.1100  116.9155   60.1769 H   0  0  0  0  0  0  0  0  0  0  0  0
  132.3900  123.2720   65.2770 H   0  0  0  0  0  0  0  0  0  0  0  0
  1  2  1  0
  2  3  2  0
  3  4  1  0
  4  5  1  0
  5  6  1  0
  6  7  1  0
  7  8  1  0
  8  9  1  0
  8 10  1  0
 10 11  1  0
 11 12  1  0
  6 13  1  0
 13 14  1  0
 14 15  2  0
 14 16  2  0
  1 17  1  0
  1 18  1  0
  1 19  1  0
  2 20  1  0
  3 21  1  0
  4 22  1  0
  4 23  1  0
  5 24  1  0
  5 25  1  0
  6 26  1  1
  7 27  1  0
  7 28  1  0
  8 29  1  1
  9 30  1  0
  9 31  1  0
  9 32  1  0
 10 33  1  0
 10 34  1  0
 11 35  1  0
 11 36  1  0
 12 37  1  0
 12 38  1  0
 12 39  1  0
 14 40  1  0
M  END
>  <Binding energies>  (1) 
[-5.51]

>  <Ligand effiencies>  (1) 
[-0.3241176470588235]

>  <Interactions>  (1) 
["V-A:ILE:369:CG2:3237, V-A:ASP:366:CA:3210, V-A:GLY:454:CA:4049, V-A:ILE:369:CB:3236, V-B:ALA:541:CB:9864, H-A:ARG:545:NH1:4927, V-B:TYR:539:CE2:9848, V-A:LEU:475:CG:4257, V-A:ASP:366:CG:3213, V-B:TYR:539:CZ:9849, V-A:HIS:383:CE1:3393, H-A:GLY:454:N:4050, V-A:ILE:369:CD1:3239, V-A:PRO:482:CB:4326, V-B:TYR:539:CD2:9846, V-A:ASP:366:CB:3212, V-A:LEU:475:CD2:4259, H-A:ARG:545:NH2:4928, V-A:PRO:482:CG:4327, H-A:ARG:545:NE:4924, V-A:HIS:383:NE2:3394, H-A:TYR:484:OH:4348"]

$$$$
ZINC2356843727
     RDKit          3D

141148  0  0  0  0  0  0  0  0999 V2000
  129.5670  120.5430   66.0370 C   0  0  0  0  0  0  0  0  0  0  0  0
  128.3010  121.3800   65.7690 C   0  0  0  0  0  0  0  0  0  0  0  0
  128.4380  122.4770   64.6740 C   0  0  2  0  0  0  0  0  0  0  0  0
  129.1510  121.9290   63.4140 C   0  0  0  0  0  0  0  0  0  0  0  0
  129.0530  122.9470   62.2950 C   0  0  0  0  0  0  0  0  0  0  0  0
  128.7200  122.5870   60.9860 C   0  0  0  0  0  0  0  0  0  0  0  0
  128.6280  123.5480   59.9800 C   0  0  0  0  0  0  0  0  0  0  0  0
  128.3070  123.1540   58.7070 O   0  0  0  0  0  0  0  0  0  0  0  0
  128.8570  124.8970   60.2670 C   0  0  0  0  0  0  0  0  0  0  0  0
  128.7610  125.8000   59.2190 O   0  0  0  0  0  0  0  0  0  0  0  0
  127.5050  126.3920   58.8630 C   0  0  2  0  0  0  0  0  0  0  0  0
  127.8040  127.6590   58.0170 C   0  0  0  0  0  0  0  0  0  0  0  0
  129.1930  127.6650   57.3200 C   0  0  2  0  0  0  0  0  0  0  0  0
  129.7390  126.2180   57.1130 C   0  0  0  0  0  0  0  0  0  0  0  0
  130.9990  125.9040   57.9000 C   0  0  0  0  0  0  0  0  0  0  0  0
  132.2340  126.5410   57.9620 C   0  0  0  0  0  0  0  0  0  0  0  0
  133.0580  125.8350   58.8450 C   0  0  0  0  0  0  0  0  0  0  0  0
  132.3220  124.7670   59.3260 C   0  0  0  0  0  0  0  0  0  0  0  0
  131.0810  124.8240   58.7460 N   0  0  0  0  0  0  0  0  0  0  0  0
  130.1610  128.6760   57.9770 C   0  0  0  0  0  0  0  0  0  0  0  0
  130.7520  129.6470   57.2300 C   0  0  0  0  0  0  0  0  0  0  0  0
  131.6410  130.7680   57.7800 C   0  0  0  0  0  0  0  0  0  0  0  0
  131.5130  130.7860   59.2380 N   0  0  0  0  0  0  0  0  0  0  0  0
  131.0530  129.7290   59.9880 C   0  0  0  0  0  0  0  0  0  0  0  0
  131.3560  129.9070   61.3130 N   0  0  0  0  0  0  0  0  0  0  0  0
  130.4330  128.6550   59.4340 C   0  0  0  0  0  0  0  0  0  0  0  0
  130.0550  127.4760   60.3250 C   0  0  0  0  0  0  0  0  0  0  0  0
  130.5540  127.6610   62.0630 S   0  0  0  0  0  0  0  0  0  0  0  0
  128.9630  128.5090   63.0210 S   0  0  0  0  0  0  0  0  0  0  0  0
  127.5430  127.5440   62.4300 C   0  0  0  0  0  0  0  0  0  0  0  0
  127.0840  127.8670   60.9800 C   0  0  2  0  0  0  0  0  0  0  0  0
  126.0420  129.0150   60.9960 C   0  0  0  0  0  0  0  0  0  0  0  0
  126.6480  130.2940   60.9730 O   0  0  0  0  0  0  0  0  0  0  0  0
  126.6230  126.6310   60.1280 C   0  0  2  0  0  0  0  0  0  0  0  0
  126.5010  125.4430   60.8930 O   0  0  0  0  0  0  0  0  0  0  0  0
  129.1730  125.2480   61.5890 C   0  0  0  0  0  0  0  0  0  0  0  0
  129.2840  124.2930   62.6050 C   0  0  0  0  0  0  0  0  0  0  0  0
  129.6920  124.7150   64.0240 C   0  0  2  0  0  0  0  0  0  0  0  0
  131.2350  124.7890   64.1520 C   0  0  0  0  0  0  0  0  0  0  0  0
  131.7860  125.7370   65.2490 C   0  0  2  0  0  0  0  0  0  0  0  0
  133.1880  125.7870   65.0470 O   0  0  0  0  0  0  0  0  0  0  0  0
  131.4220  125.4030   66.7380 C   0  0  2  0  0  0  0  0  0  0  0  0
  129.8520  125.4330   66.9380 C   0  0  2  0  0  0  0  0  0  0  0  0
  129.3350  125.7770   68.2790 C   0  0  0  0  0  0  0  0  0  0  0  0
  129.0830  126.1270   69.4210 C   0  0  0  0  0  0  0  0  0  0  0  0
  128.8600  126.7390   70.7540 C   0  0  2  0  0  0  0  0  0  0  0  0
  128.9990  125.6560   71.8770 C   0  0  0  0  0  0  0  0  0  0  0  0
  129.6850  126.0760   73.2010 C   0  0  0  0  0  0  0  0  0  0  0  0
  128.9230  127.0610   73.8650 O   0  0  0  0  0  0  0  0  0  0  0  0
  127.3970  127.3000   70.7690 C   0  0  0  0  0  0  0  0  0  0  0  0
  126.4700  126.8540   69.6150 C   0  0  0  0  0  0  0  0  0  0  0  0
  126.6150  127.7450   68.3890 C   0  0  0  0  0  0  0  0  0  0  0  0
  125.4780  128.1470   67.6840 C   0  0  0  0  0  0  0  0  0  0  0  0
  125.6060  128.9730   66.5700 C   0  0  0  0  0  0  0  0  0  0  0  0
  126.8720  129.3940   66.1670 C   0  0  0  0  0  0  0  0  0  0  0  0
  128.0090  128.9970   66.8660 C   0  0  0  0  0  0  0  0  0  0  0  0
  127.8820  128.1700   67.9800 C   0  0  0  0  0  0  0  0  0  0  0  0
  129.9220  127.8760   70.9770 C   0  0  0  0  0  0  0  0  0  0  0  0
  131.4130  127.5630   70.6440 C   0  0  0  0  0  0  0  0  0  0  0  0
  132.0070  128.2960   69.4140 C   0  0  0  0  0  0  0  0  0  0  0  0
  131.7340  127.6650   68.0260 C   0  0  0  0  0  0  0  0  0  0  0  0
  132.2690  126.2230   67.7900 C   0  0  2  0  0  0  0  0  0  0  0  0
  133.6440  126.2210   67.4060 O   0  0  0  0  0  0  0  0  0  0  0  0
  134.3720  125.0270   67.6540 C   0  0  0  0  0  0  0  0  0  0  0  0
  135.5040  124.9400   66.6220 C   0  0  0  0  0  0  0  0  0  0  0  0
  136.7230  125.3910   67.1750 O   0  0  0  0  0  0  0  0  0  0  0  0
  129.1650  124.1720   66.4250 C   0  0  0  0  0  0  0  0  0  0  0  0
  129.0910  123.8110   65.1250 C   0  0  0  0  0  0  0  0  0  0  0  0
  129.7178  120.4433   67.1221 H   0  0  0  0  0  0  0  0  0  0  0  0
  129.4481  119.5449   65.5901 H   0  0  0  0  0  0  0  0  0  0  0  0
  130.4388  121.0433   65.5901 H   0  0  0  0  0  0  0  0  0  0  0  0
  127.5000  120.6922   65.4603 H   0  0  0  0  0  0  0  0  0  0  0  0
  128.0913  121.9159   66.7064 H   0  0  0  0  0  0  0  0  0  0  0  0
  127.3963  122.7391   64.4372 H   0  0  0  0  0  0  0  0  0  0  0  0
  130.2095  121.7390   63.6452 H   0  0  0  0  0  0  0  0  0  0  0  0
  128.6703  120.9909   63.0995 H   0  0  0  0  0  0  0  0  0  0  0  0
  128.5279  121.5308   60.7462 H   0  0  0  0  0  0  0  0  0  0  0  0
  128.2840  123.8920   58.0920 H   0  0  0  0  0  0  0  0  0  0  0  0
  126.8959  125.7193   58.2413 H   0  0  0  0  0  0  0  0  0  0  0  0
  127.0306  127.7414   57.2392 H   0  0  0  0  0  0  0  0  0  0  0  0
  127.8062  128.5062   58.7187 H   0  0  0  0  0  0  0  0  0  0  0  0
  129.0793  128.0486   56.2954 H   0  0  0  0  0  0  0  0  0  0  0  0
  128.9565  125.5081   57.4190 H   0  0  0  0  0  0  0  0  0  0  0  0
  130.0041  126.1319   56.0489 H   0  0  0  0  0  0  0  0  0  0  0  0
  132.5159  127.4490   57.4087 H   0  0  0  0  0  0  0  0  0  0  0  0
  134.0970  126.0828   59.1077 H   0  0  0  0  0  0  0  0  0  0  0  0
  132.6695  124.0093   60.0438 H   0  0  0  0  0  0  0  0  0  0  0  0
  130.3340  124.1660   58.9160 H   0  0  0  0  0  0  0  0  0  0  0  0
  130.5780  129.6261   56.1441 H   0  0  0  0  0  0  0  0  0  0  0  0
  132.6887  130.5818   57.5013 H   0  0  0  0  0  0  0  0  0  0  0  0
  131.3302  131.7366   57.3614 H   0  0  0  0  0  0  0  0  0  0  0  0
  131.9980  131.5520   59.6830 H   0  0  0  0  0  0  0  0  0  0  0  0
  130.6270  130.0250   62.0010 H   0  0  0  0  0  0  0  0  0  0  0  0
  132.3120  129.8990   61.6370 H   0  0  0  0  0  0  0  0  0  0  0  0
  128.9621  127.3554   60.2914 H   0  0  0  0  0  0  0  0  0  0  0  0
  130.5942  126.6005   59.9342 H   0  0  0  0  0  0  0  0  0  0  0  0
  127.8135  126.4786   62.4725 H   0  0  0  0  0  0  0  0  0  0  0  0
  126.6993  127.8080   63.0845 H   0  0  0  0  0  0  0  0  0  0  0  0
  127.9820  128.2077   60.4438 H   0  0  0  0  0  0  0  0  0  0  0  0
  125.3932  128.9155   60.1133 H   0  0  0  0  0  0  0  0  0  0  0  0
  125.4669  128.9330   61.9301 H   0  0  0  0  0  0  0  0  0  0  0  0
  127.5350  130.2180   61.3330 H   0  0  0  0  0  0  0  0  0  0  0  0
  125.6158  126.8966   59.7744 H   0  0  0  0  0  0  0  0  0  0  0  0
  126.1000  125.6630   61.7370 H   0  0  0  0  0  0  0  0  0  0  0  0
  129.3386  126.3076   61.8336 H   0  0  0  0  0  0  0  0  0  0  0  0
  129.2705  125.7184   64.1839 H   0  0  0  0  0  0  0  0  0  0  0  0
  131.6029  123.7752   64.3687 H   0  0  0  0  0  0  0  0  0  0  0  0
  131.5901  125.2050   63.1976 H   0  0  0  0  0  0  0  0  0  0  0  0
  131.2898  126.7110   65.1263 H   0  0  0  0  0  0  0  0  0  0  0  0
  133.5900  126.2170   65.8050 H   0  0  0  0  0  0  0  0  0  0  0  0
  131.7300  124.3693   66.9541 H   0  0  0  0  0  0  0  0  0  0  0  0
  129.5824  126.2963   66.3119 H   0  0  0  0  0  0  0  0  0  0  0  0
  127.9852  125.3103   72.1274 H   0  0  0  0  0  0  0  0  0  0  0  0
  129.6661  124.8940   71.4476 H   0  0  0  0  0  0  0  0  0  0  0  0
  129.7833  125.1951   73.8524 H   0  0  0  0  0  0  0  0  0  0  0  0
  130.6770  126.4913   72.9700 H   0  0  0  0  0  0  0  0  0  0  0  0
  128.6670  127.7320   73.2280 H   0  0  0  0  0  0  0  0  0  0  0  0
  126.9289  126.9848   71.7132 H   0  0  0  0  0  0  0  0  0  0  0  0
  127.5037  128.3883   70.6496 H   0  0  0  0  0  0  0  0  0  0  0  0
  126.7236  125.8209   69.3350 H   0  0  0  0  0  0  0  0  0  0  0  0
  125.4304  126.9275   69.9670 H   0  0  0  0  0  0  0  0  0  0  0  0
  124.4820  127.8113   68.0086 H   0  0  0  0  0  0  0  0  0  0  0  0
  124.7133  129.2912   66.0116 H   0  0  0  0  0  0  0  0  0  0  0  0
  126.9741  130.0467   65.2875 H   0  0  0  0  0  0  0  0  0  0  0  0
  129.0037  129.3350   66.5399 H   0  0  0  0  0  0  0  0  0  0  0  0
  128.7764  127.8525   68.5360 H   0  0  0  0  0  0  0  0  0  0  0  0
  129.6207  128.7313   70.3543 H   0  0  0  0  0  0  0  0  0  0  0  0
  129.9143  128.0488   72.0633 H   0  0  0  0  0  0  0  0  0  0  0  0
  132.0175  127.8357   71.5216 H   0  0  0  0  0  0  0  0  0  0  0  0
  131.4402  126.4929   70.3909 H   0  0  0  0  0  0  0  0  0  0  0  0
  131.5944  129.3156   69.4030 H   0  0  0  0  0  0  0  0  0  0  0  0
  133.0978  128.2415   69.5455 H   0  0  0  0  0  0  0  0  0  0  0  0
  130.6440  127.6430   67.8797 H   0  0  0  0  0  0  0  0  0  0  0  0
  132.2841  128.2951   67.3116 H   0  0  0  0  0  0  0  0  0  0  0  0
  132.1656  125.7186   68.7621 H   0  0  0  0  0  0  0  0  0  0  0  0
  134.7936  125.0508   68.6697 H   0  0  0  0  0  0  0  0  0  0  0  0
  133.7109  124.1517   67.5713 H   0  0  0  0  0  0  0  0  0  0  0  0
  135.6190  123.8944   66.3002 H   0  0  0  0  0  0  0  0  0  0  0  0
  135.2485  125.5790   65.7639 H   0  0  0  0  0  0  0  0  0  0  0  0
  136.5270  126.0140   67.8780 H   0  0  0  0  0  0  0  0  0  0  0  0
  128.6960  123.5086   67.1665 H   0  0  0  0  0  0  0  0  0  0  0  0
  1  2  1  0
  2  3  1  0
  3  4  1  0
  4  5  1  0
  5  6  2  0
  6  7  1  0
  7  8  1  0
  7  9  2  0
  9 10  1  0
 10 11  1  0
 11 12  1  0
 12 13  1  0
 13 14  1  0
 14 15  1  0
 15 16  2  0
 16 17  1  0
 17 18  2  0
 18 19  1  0
 13 20  1  0
 20 21  2  0
 21 22  1  0
 22 23  1  0
 23 24  1  0
 24 25  1  0
 24 26  2  0
 26 27  1  0
 27 28  1  0
 28 29  1  0
 29 30  1  0
 30 31  1  0
 31 32  1  0
 32 33  1  0
 31 34  1  0
 34 35  1  0
  9 36  1  0
 36 37  2  0
 37 38  1  0
 38 39  1  0
 39 40  1  0
 40 41  1  0
 40 42  1  0
 42 43  1  0
 43 44  1  0
 44 45  3  0
 45 46  1  0
 46 47  1  1
 47 48  1  0
 48 49  1  0
 46 50  1  0
 50 51  1  0
 51 52  1  0
 52 53  2  0
 53 54  1  0
 54 55  2  0
 55 56  1  0
 56 57  2  0
 46 58  1  0
 58 59  1  0
 59 60  1  0
 60 61  1  0
 61 62  1  0
 62 63  1  0
 63 64  1  0
 64 65  1  0
 65 66  1  0
 43 67  1  0
 67 68  2  0
 68  3  1  0
 37  5  1  0
 68 38  1  0
 34 11  1  0
 62 42  1  0
 19 15  1  0
 26 20  1  0
 57 52  1  0
  1 69  1  0
  1 70  1  0
  1 71  1  0
  2 72  1  0
  2 73  1  0
  3 74  1  6
  4 75  1  0
  4 76  1  0
  6 77  1  0
  8 78  1  0
 11 79  1  6
 12 80  1  0
 12 81  1  0
 13 82  1  6
 14 83  1  0
 14 84  1  0
 16 85  1  0
 17 86  1  0
 18 87  1  0
 19 88  1  0
 21 89  1  0
 22 90  1  0
 22 91  1  0
 23 92  1  0
 25 93  1  0
 25 94  1  0
 27 95  1  0
 27 96  1  0
 30 97  1  0
 30 98  1  0
 31 99  1  6
 32100  1  0
 32101  1  0
 33102  1  0
 34103  1  6
 35104  1  0
 36105  1  0
 38106  1  1
 39107  1  0
 39108  1  0
 40109  1  6
 41110  1  0
 42111  1  1
 43112  1  6
 47113  1  0
 47114  1  0
 48115  1  0
 48116  1  0
 49117  1  0
 50118  1  0
 50119  1  0
 51120  1  0
 51121  1  0
 53122  1  0
 54123  1  0
 55124  1  0
 56125  1  0
 57126  1  0
 58127  1  0
 58128  1  0
 59129  1  0
 59130  1  0
 60131  1  0
 60132  1  0
 61133  1  0
 61134  1  0
 62135  1  1
 64136  1  0
 64137  1  0
 65138  1  0
 65139  1  0
 66140  1  0
 67141  1  0
M  END
>  <Binding energies>  (1) 
[22.51]

>  <Ligand effiencies>  (1) 
[0.2679761904761905]

>  <Interactions>  (1) 
["V-A:ASP:366:CA:3210, V-B:PRO:540:CA:9855, V-A:ARG:545:CA:4919, V-A:GLY:454:CA:4049, V-B:GLU:543:C:9874, H-A:GLU:543:OE2:4910, V-A:GLU:543:C:4902, V-A:GLU:543:CA:4904, V-B:HIS:456:CD2:9039, V-B:GLU:543:CB:9878, H-B:LYS:547:NZ:9923, V-B:ALA:541:CB:9864, V-B:ASP:366:CG:8184, H-A:ARG:545:NH1:4927, V-B:TYR:539:CE2:9848, V-A:TYR:484:CE2:4346, V-A:LEU:475:CG:4257, V-A:GLY:544:CA:4914, V-B:GLU:543:CG:9879, V-A:GLY:544:C:4912, V-A:HIS:456:CD2:4068, V-B:ARG:545:CD:9895, V-A:ASP:366:CG:3213, V-B:TYR:539:CZ:9849, H-B:GLU:543:OE1:9881, H-B:TYR:539:OH:9850, V-A:ILE:455:CA:4054, V-B:ARG:545:CG:9894, V-A:LEU:475:CD1:4258, H-A:ILE:455:O:4053, V-A:TYR:484:CZ:4347, V-A:LEU:475:CB:4256, V-A:GLU:543:CD:4908, V-A:ILE:455:C:4052, H-B:ASP:366:OD1:8185, V-B:GLU:543:CA:9876, H-A:GLY:454:N:4050, V-A:ARG:545:CG:4922, V-A:GLY:453:C:4042, V-B:HIS:456:CE1:9041, H-A:GLY:453:N:4045, V-A:TYR:484:CD2:4344, V-A:HIS:456:CE1:4070, V-B:ALA:541:C:9860, V-B:TYR:484:CZ:9318, V-B:GLY:544:C:9884, V-A:ASP:366:C:3208, H-A:VAL:452:O:4035, V-A:GLU:543:CG:4907, V-B:GLY:544:CA:9886, V-A:TYR:531:CZ:4794, V-B:GLU:543:CD:9880, V-B:HIS:456:CG:9037, V-A:ASP:366:CB:3212, V-A:ARG:545:CD:4923, V-A:LEU:475:CD2:4259, H-A:ARG:545:NH2:4928, H-A:ILE:455:N:4055, H-A:GLU:543:OE1:4909, V-A:ARG:545:CZ:4926, V-A:ARG:545:CB:4921, V-B:VAL:542:C:9866, V-A:GLU:543:CB:4906, V-A:HIS:456:CG:4066, V-A:GLY:453:CA:4044, V-B:ARG:545:CA:9891, H-A:ARG:545:NE:4924, H-A:ASP:366:OD2:3215, V-B:ALA:541:CA:9862, V-A:GLY:454:C:4047, H-A:HIS:456:ND1:4067, H-A:TYR:484:OH:4348"]

$$$$
ZINC2356844934-again1
     RDKit          3D

 86 91  0  0  0  0  0  0  0  0999 V2000
  126.2020  126.9070   68.8110 C   0  0  0  0  0  0  0  0  0  0  0  0
  127.6710  127.3040   68.6090 C   0  0  0  0  0  0  0  0  0  0  0  0
  127.8580  128.3690   67.5160 C   0  0  0  0  0  0  0  0  0  0  0  0
  128.5220  127.8320   66.2550 C   0  0  0  0  0  0  0  0  0  0  0  0
  129.3530  126.7660   66.1710 C   0  0  0  0  0  0  0  0  0  0  0  0
  129.8540  125.8820   67.3080 C   0  0  0  0  0  0  0  0  0  0  0  0
  129.7140  126.5900   64.8490 C   0  0  0  0  0  0  0  0  0  0  0  0
  129.1430  127.4940   64.0970 N   0  0  0  0  0  0  0  0  0  0  0  0
  128.3250  128.3680   64.9200 C   0  0  0  0  0  0  0  0  0  0  0  0
  127.5820  129.4180   64.4920 C   0  0  0  0  0  0  0  0  0  0  0  0
  127.4190  129.9250   63.1320 C   0  0  0  0  0  0  0  0  0  0  0  0
  128.0650  129.3000   62.1040 N   0  0  0  0  0  0  0  0  0  0  0  0
  127.7940  129.9180   60.9300 C   0  0  0  0  0  0  0  0  0  0  0  0
  126.9590  130.9560   61.1770 C   0  0  0  0  0  0  0  0  0  0  0  0
  126.6940  130.9940   62.5680 C   0  0  0  0  0  0  0  0  0  0  0  0
  125.8140  131.9890   63.2950 C   0  0  0  0  0  0  0  0  0  0  0  0
  126.6380  133.0530   64.0340 C   0  0  0  0  0  0  0  0  0  0  0  0
  126.7200  131.5540   59.8800 C   0  0  0  0  0  0  0  0  0  0  0  0
  126.0330  132.5210   59.5580 O   0  0  0  0  0  0  0  0  0  0  0  0
  127.5040  130.7430   58.9330 C   0  0  0  0  0  0  0  0  0  0  0  0
  128.1600  129.7480   59.5710 C   0  0  0  0  0  0  0  0  0  0  0  0
  129.0260  128.7380   59.0320 C   0  0  0  0  0  0  0  0  0  0  0  0
  129.5360  127.8000   59.7230 N   0  0  0  0  0  0  0  0  0  0  0  0
  130.3010  126.9180   59.0320 C   0  0  0  0  0  0  0  0  0  0  0  0
  131.0370  125.8870   59.5180 C   0  0  0  0  0  0  0  0  0  0  0  0
  131.1800  125.4680   60.8420 C   0  0  0  0  0  0  0  0  0  0  0  0
  130.5800  126.0310   61.8670 N   0  0  0  0  0  0  0  0  0  0  0  0
  130.9540  125.3340   63.0890 C   0  0  0  0  0  0  0  0  0  0  0  0
  130.5630  125.6000   64.3640 C   0  0  0  0  0  0  0  0  0  0  0  0
  131.8440  124.2840   62.6020 C   0  0  0  0  0  0  0  0  0  0  0  0
  132.5080  123.2350   63.5030 C   0  0  2  0  0  0  0  0  0  0  0  0
  131.5340  122.5620   64.4820 C   0  0  0  0  0  0  0  0  0  0  0  0
  133.5910  123.8030   64.2110 O   0  0  0  0  0  0  0  0  0  0  0  0
  131.9640  124.4110   61.2560 C   0  0  0  0  0  0  0  0  0  0  0  0
  132.8260  123.5900   60.2990 C   0  0  0  0  0  0  0  0  0  0  0  0
  130.1730  127.2990   57.5640 C   0  0  1  0  0  0  0  0  0  0  0  0
  129.4340  126.2210   56.7430 C   0  0  0  0  0  0  0  0  0  0  0  0
  129.4480  128.6470   57.5870 C   0  0  2  0  0  0  0  0  0  0  0  0
  130.3170  129.8270   57.0840 C   0  0  0  0  0  0  0  0  0  0  0  0
  131.1250  130.5050   58.2130 C   0  0  0  0  0  0  0  0  0  0  0  0
  130.5970  131.8800   58.6410 C   0  0  0  0  0  0  0  0  0  0  0  0
  130.4750  132.2030   59.8250 O   0  0  0  0  0  0  0  0  0  0  0  0
  130.2940  132.6510   57.5760 O   0  0  0  0  0  0  0  0  0  0  0  0
  129.0600  133.3530   57.5220 C   0  0  0  0  0  0  0  0  0  0  0  0
  125.9829  126.8478   69.8873 H   0  0  0  0  0  0  0  0  0  0  0  0
  125.5509  127.6614   68.3452 H   0  0  0  0  0  0  0  0  0  0  0  0
  126.0196  125.9273   68.3452 H   0  0  0  0  0  0  0  0  0  0  0  0
  128.0606  127.7023   69.5575 H   0  0  0  0  0  0  0  0  0  0  0  0
  128.2154  126.4033   68.2889 H   0  0  0  0  0  0  0  0  0  0  0  0
  126.8694  128.7689   67.2462 H   0  0  0  0  0  0  0  0  0  0  0  0
  128.5218  129.1435   67.9277 H   0  0  0  0  0  0  0  0  0  0  0  0
  129.5932  126.3422   68.2725 H   0  0  0  0  0  0  0  0  0  0  0  0
  129.3837  124.8902   67.2359 H   0  0  0  0  0  0  0  0  0  0  0  0
  130.9465  125.7759   67.2359 H   0  0  0  0  0  0  0  0  0  0  0  0
  129.2720  127.5460   63.0930 H   0  0  0  0  0  0  0  0  0  0  0  0
  127.0283  129.9602   65.2727 H   0  0  0  0  0  0  0  0  0  0  0  0
  128.6630  128.4950   62.1970 H   0  0  0  0  0  0  0  0  0  0  0  0
  125.1633  132.4892   62.5626 H   0  0  0  0  0  0  0  0  0  0  0  0
  125.2229  131.4380   64.0414 H   0  0  0  0  0  0  0  0  0  0  0  0
  126.5291  132.9124   65.1195 H   0  0  0  0  0  0  0  0  0  0  0  0
  127.6977  132.9545   63.7560 H   0  0  0  0  0  0  0  0  0  0  0  0
  126.2775  134.0544   63.7560 H   0  0  0  0  0  0  0  0  0  0  0  0
  127.5497  130.9233   57.8488 H   0  0  0  0  0  0  0  0  0  0  0  0
  131.5947  125.3043   58.7700 H   0  0  0  0  0  0  0  0  0  0  0  0
  129.9580  126.8290   61.7830 H   0  0  0  0  0  0  0  0  0  0  0  0
  130.9821  124.9299   65.1291 H   0  0  0  0  0  0  0  0  0  0  0  0
  132.8745  122.4450   62.8310 H   0  0  0  0  0  0  0  0  0  0  0  0
  131.8453  122.7771   65.5149 H   0  0  0  0  0  0  0  0  0  0  0  0
  130.5191  122.9524   64.3161 H   0  0  0  0  0  0  0  0  0  0  0  0
  131.5402  121.4746   64.3161 H   0  0  0  0  0  0  0  0  0  0  0  0
  133.3110  123.9800   65.1130 H   0  0  0  0  0  0  0  0  0  0  0  0
  133.5035  122.9448   60.8775 H   0  0  0  0  0  0  0  0  0  0  0  0
  132.1782  122.9666   59.6651 H   0  0  0  0  0  0  0  0  0  0  0  0
  133.4171  124.2673   59.6651 H   0  0  0  0  0  0  0  0  0  0  0  0
  131.1484  127.3756   57.0612 H   0  0  0  0  0  0  0  0  0  0  0  0
  128.9465  125.5099   57.4262 H   0  0  0  0  0  0  0  0  0  0  0  0
  128.6736  126.7002   56.1089 H   0  0  0  0  0  0  0  0  0  0  0  0
  130.1552  125.6846   56.1089 H   0  0  0  0  0  0  0  0  0  0  0  0
  128.5987  128.7130   56.8910 H   0  0  0  0  0  0  0  0  0  0  0  0
  131.0207  129.4472   56.3286 H   0  0  0  0  0  0  0  0  0  0  0  0
  129.6358  130.5832   56.6667 H   0  0  0  0  0  0  0  0  0  0  0  0
  131.1088  129.8430   59.0913 H   0  0  0  0  0  0  0  0  0  0  0  0
  132.1370  130.6705   57.8150 H   0  0  0  0  0  0  0  0  0  0  0  0
  128.7073  133.5537   58.5444 H   0  0  0  0  0  0  0  0  0  0  0  0
  129.2028  134.3051   56.9899 H   0  0  0  0  0  0  0  0  0  0  0  0
  128.3145  132.7438   56.9899 H   0  0  0  0  0  0  0  0  0  0  0  0
  1  2  1  0
  2  3  1  0
  3  4  1  0
  4  5  2  0
  5  6  1  0
  5  7  1  0
  7  8  2  0
  8  9  1  0
  9 10  2  0
 10 11  1  0
 11 12  1  0
 12 13  1  0
 13 14  2  0
 14 15  1  0
 15 16  1  0
 16 17  1  0
 14 18  1  0
 18 19  2  0
 18 20  1  0
 20 21  2  0
 21 22  1  0
 22 23  2  0
 23 24  1  0
 24 25  2  0
 25 26  1  0
 26 27  2  0
 27 28  1  0
 28 29  2  0
 28 30  1  0
 30 31  1  0
 31 32  1  0
 31 33  1  0
 30 34  2  0
 34 35  1  0
 24 36  1  0
 36 37  1  0
 36 38  1  0
 38 39  1  0
 39 40  1  0
 40 41  1  0
 41 42  2  0
 41 43  1  0
 43 44  1  0
  9  4  1  0
 15 11  2  0
 38 22  1  0
 29  7  1  0
 21 13  1  0
 34 26  1  0
  1 45  1  0
  1 46  1  0
  1 47  1  0
  2 48  1  0
  2 49  1  0
  3 50  1  0
  3 51  1  0
  6 52  1  0
  6 53  1  0
  6 54  1  0
  8 55  1  0
 10 56  1  0
 12 57  1  0
 16 58  1  0
 16 59  1  0
 17 60  1  0
 17 61  1  0
 17 62  1  0
 20 63  1  0
 25 64  1  0
 27 65  1  0
 29 66  1  0
 31 67  1  6
 32 68  1  0
 32 69  1  0
 32 70  1  0
 33 71  1  0
 35 72  1  0
 35 73  1  0
 35 74  1  0
 36 75  1  6
 37 76  1  0
 37 77  1  0
 37 78  1  0
 38 79  1  6
 39 80  1  0
 39 81  1  0
 40 82  1  0
 40 83  1  0
 44 84  1  0
 44 85  1  0
 44 86  1  0
M  CHG  2   8   1  27   1
M  END
>  <Binding energies>  (1) 
[-7.51]

>  <Ligand effiencies>  (1) 
[-0.1502]

>  <Interactions>  (1) 
["V-B:GLU:543:C:9874, V-B:GLU:543:CB:9878, V-B:TYR:539:CE2:9848, V-A:TYR:484:CE2:4346, V-B:GLU:543:CG:9879, V-B:LEU:475:CD2:9230, V-A:TYR:539:CD1:4873, V-B:TYR:484:CE2:9317, V-B:ARG:545:CG:9894, V-A:TYR:539:CA:4869, V-A:GLU:543:CD:4908, V-A:TYR:484:CZ:4347, V-B:HIS:456:CE1:9041, H-A:GLY:454:N:4050, V-B:GLU:543:CA:9876, V-A:HIS:456:CE1:4070, V-B:TYR:484:CZ:9318, V-B:GLY:544:C:9884, V-A:GLU:543:CG:4907, V-A:TYR:531:CZ:4794, V-B:GLU:543:CD:9880, V-A:MET:535:CE:4835, V-A:TYR:539:C:4867, V-A:LEU:475:CD2:4259, H-A:GLU:543:OE1:4909, V-A:PRO:540:N:4884, V-A:TYR:539:CG:4872, V-A:PRO:540:CB:4885, V-A:PRO:540:CA:4883, V-B:ARG:545:CA:9891, V-A:TYR:539:CE1:4875, H-A:TYR:484:OH:4348"]

$$$$
ZINC2356854200
     RDKit          3D

 59 61  0  0  0  0  0  0  0  0999 V2000
  133.2860  125.0220   62.8030 C   0  0  0  0  0  0  0  0  0  0  0  0
  132.5970  125.1970   61.6610 C   0  0  0  0  0  0  0  0  0  0  0  0
  132.8270  124.5230   60.2960 C   0  0  2  0  0  0  0  0  0  0  0  0
  134.2950  124.0340   60.2770 C   0  0  0  0  0  0  0  0  0  0  0  0
  132.6170  125.4980   59.0870 C   0  0  0  0  0  0  0  0  0  0  0  0
  131.1470  125.9340   58.8570 C   0  0  0  0  0  0  0  0  0  0  0  0
  130.2050  124.7150   58.6640 C   0  0  2  0  0  0  0  0  0  0  0  0
  128.7120  125.1290   58.3570 C   0  0  2  0  0  0  0  0  0  0  0  0
  128.5860  126.4170   57.9630 O   0  0  0  0  0  0  0  0  0  0  0  0
  127.8570  126.1700   59.1590 C   0  0  2  0  0  0  0  0  0  0  0  0
  128.0470  125.4450   60.5240 C   0  0  0  0  0  0  0  0  0  0  0  0
  127.4270  123.9930   60.5020 C   0  0  2  0  0  0  0  0  0  0  0  0
  127.7260  123.1410   61.7730 C   0  0  0  0  0  0  0  0  0  0  0  0
  128.3600  121.7750   61.4320 C   0  0  0  0  0  0  0  0  0  0  0  0
  128.5820  123.9000   62.8100 C   0  0  0  0  0  0  0  0  0  0  0  0
  126.4900  122.8760   62.4160 O   0  0  0  0  0  0  0  0  0  0  0  0
  127.7110  123.2380   59.2950 O   0  0  0  0  0  0  0  0  0  0  0  0
  127.6920  124.0050   58.1160 C   0  0  2  0  0  0  0  0  0  0  0  0
  128.0130  123.2480   56.9930 O   0  0  0  0  0  0  0  0  0  0  0  0
  126.9420  122.4710   56.4760 C   0  0  0  0  0  0  0  0  0  0  0  0
  130.3610  123.8620   59.9550 C   0  0  0  0  0  0  0  0  0  0  0  0
  131.8160  123.3340   60.0930 C   0  0  2  0  0  0  0  0  0  0  0  0
  131.9160  122.1670   61.0930 C   0  0  0  0  0  0  0  0  0  0  0  0
  131.4360  122.2300   62.3500 C   0  0  0  0  0  0  0  0  0  0  0  0
  132.5680  120.8930   60.5720 C   0  0  0  0  0  0  0  0  0  0  0  0
  133.0017  125.5793   63.7078 H   0  0  0  0  0  0  0  0  0  0  0  0
  134.1337  124.3216   62.8321 H   0  0  0  0  0  0  0  0  0  0  0  0
  131.7631  125.9128   61.7084 H   0  0  0  0  0  0  0  0  0  0  0  0
  134.6549  123.9141   61.3095 H   0  0  0  0  0  0  0  0  0  0  0  0
  134.3530  123.0680   59.7540 H   0  0  0  0  0  0  0  0  0  0  0  0
  134.9207  124.7723   59.7540 H   0  0  0  0  0  0  0  0  0  0  0  0
  133.2187  126.4012   59.2662 H   0  0  0  0  0  0  0  0  0  0  0  0
  132.9234  124.9471   58.1855 H   0  0  0  0  0  0  0  0  0  0  0  0
  130.8068  126.5117   59.7291 H   0  0  0  0  0  0  0  0  0  0  0  0
  131.1109  126.5412   57.9405 H   0  0  0  0  0  0  0  0  0  0  0  0
  130.4838  124.1312   57.7744 H   0  0  0  0  0  0  0  0  0  0  0  0
  127.0414  126.8307   59.4880 H   0  0  0  0  0  0  0  0  0  0  0  0
  129.1226  125.3706   60.7421 H   0  0  0  0  0  0  0  0  0  0  0  0
  127.5286  126.0288   61.2988 H   0  0  0  0  0  0  0  0  0  0  0  0
  126.3460  124.1967   60.5051 H   0  0  0  0  0  0  0  0  0  0  0  0
  128.6070  121.2429   62.3625 H   0  0  0  0  0  0  0  0  0  0  0  0
  127.6477  121.1764   60.8453 H   0  0  0  0  0  0  0  0  0  0  0  0
  129.2770  121.9326   60.8453 H   0  0  0  0  0  0  0  0  0  0  0  0
  128.2641  123.6181   63.8246 H   0  0  0  0  0  0  0  0  0  0  0  0
  129.6417  123.6393   62.6721 H   0  0  0  0  0  0  0  0  0  0  0  0
  128.4500  124.9833   62.6721 H   0  0  0  0  0  0  0  0  0  0  0  0
  126.1520  123.7000   62.7760 H   0  0  0  0  0  0  0  0  0  0  0  0
  126.6871  124.4010   57.9078 H   0  0  0  0  0  0  0  0  0  0  0  0
  126.3601  122.0488   57.3085 H   0  0  0  0  0  0  0  0  0  0  0  0
  126.2909  123.1082   55.8596 H   0  0  0  0  0  0  0  0  0  0  0  0
  127.3457  121.6543   55.8596 H   0  0  0  0  0  0  0  0  0  0  0  0
  130.1180  124.4832   60.8296 H   0  0  0  0  0  0  0  0  0  0  0  0
  129.6774  123.0023   59.8952 H   0  0  0  0  0  0  0  0  0  0  0  0
  132.1305  122.8706   59.1462 H   0  0  0  0  0  0  0  0  0  0  0  0
  131.5359  121.3641   63.0209 H   0  0  0  0  0  0  0  0  0  0  0  0
  130.9441  123.1474   62.7056 H   0  0  0  0  0  0  0  0  0  0  0  0
  132.8866  120.2705   61.4211 H   0  0  0  0  0  0  0  0  0  0  0  0
  131.8446  120.3350   59.9593 H   0  0  0  0  0  0  0  0  0  0  0  0
  133.4437  121.1534   59.9593 H   0  0  0  0  0  0  0  0  0  0  0  0
  1  2  2  0
  2  3  1  0
  3  4  1  1
  3  5  1  0
  5  6  1  0
  6  7  1  0
  7  8  1  0
  8  9  1  6
  9 10  1  0
 10 11  1  0
 11 12  1  0
 12 13  1  0
 13 14  1  0
 13 15  1  0
 13 16  1  0
 12 17  1  0
 17 18  1  0
 18 19  1  0
 19 20  1  0
  7 21  1  0
 21 22  1  0
 22 23  1  0
 23 24  2  0
 23 25  1  0
 22  3  1  0
 10  8  1  0
 18  8  1  0
  1 26  1  0
  1 27  1  0
  2 28  1  0
  4 29  1  0
  4 30  1  0
  4 31  1  0
  5 32  1  0
  5 33  1  0
  6 34  1  0
  6 35  1  0
  7 36  1  6
 10 37  1  6
 11 38  1  0
 11 39  1  0
 12 40  1  6
 14 41  1  0
 14 42  1  0
 14 43  1  0
 15 44  1  0
 15 45  1  0
 15 46  1  0
 16 47  1  0
 18 48  1  6
 20 49  1  0
 20 50  1  0
 20 51  1  0
 21 52  1  0
 21 53  1  0
 22 54  1  6
 24 55  1  0
 24 56  1  0
 25 57  1  0
 25 58  1  0
 25 59  1  0
M  END
>  <Binding energies>  (1) 
[-6.72]

>  <Ligand effiencies>  (1) 
[-0.25846153846153846]

>  <Interactions>  (1) 
["V-A:ILE:369:CG2:3237, V-A:ASP:366:CA:3210, V-B:PRO:540:CA:9855, V-A:ILE:369:CB:3236, V-B:ALA:541:CB:9864, V-B:TYR:539:CE2:9848, H-B:ALA:541:O:9861, V-B:GLU:543:CG:9879, V-B:TYR:539:C:9839, V-A:ASP:366:CG:3213, V-B:TYR:539:CZ:9849, H-B:GLU:543:OE1:9881, H-B:ALA:541:N:9863, V-B:PRO:540:N:9856, V-A:ILE:369:CD1:3239, V-B:TYR:539:CD2:9846, V-B:PRO:540:CD:9859, V-B:GLU:543:CD:9880, V-A:ASP:366:CB:3212, V-A:LEU:475:CD2:4259, V-A:ARG:545:CZ:4926, V-B:TYR:539:CG:9844, V-B:TYR:539:CD1:9845, V-B:PRO:540:C:9853, V-B:ALA:541:CA:9862, V-B:TYR:539:CE1:9847"]

$$$$
ZINC2356857475
     RDKit          3D

 68 71  0  0  0  0  0  0  0  0999 V2000
  133.2440  124.8500   64.0020 C   0  0  0  0  0  0  0  0  0  0  0  0
  133.1300  124.2610   62.5870 C   0  0  0  0  0  0  0  0  0  0  0  0
  131.7750  123.5720   62.2780 C   0  0  2  0  0  0  0  0  0  0  0  0
  131.3620  123.7700   60.7890 C   0  0  0  0  0  0  0  0  0  0  0  0
  132.2900  123.0930   59.7510 C   0  0  0  0  0  0  0  0  0  0  0  0
  132.7970  124.0420   58.6460 C   0  0  0  0  0  0  0  0  0  0  0  0
  133.6480  123.5650   57.8280 O   0  0  0  0  0  0  0  0  0  0  0  0
  132.3130  125.3790   58.7060 C   0  0  0  0  0  0  0  0  0  0  0  0
  132.6160  126.5170   57.9130 C   0  0  0  0  0  0  0  0  0  0  0  0
  133.4820  126.4590   56.9790 O   0  0  0  0  0  0  0  0  0  0  0  0
  131.9370  127.7840   58.2280 C   0  0  0  0  0  0  0  0  0  0  0  0
  131.1810  127.9820   59.3280 C   0  0  0  0  0  0  0  0  0  0  0  0
  130.5120  129.2460   59.6900 C   0  0  0  0  0  0  0  0  0  0  0  0
  131.2020  130.1040   60.5520 C   0  0  0  0  0  0  0  0  0  0  0  0
  130.6580  131.3350   60.9560 C   0  0  0  0  0  0  0  0  0  0  0  0
  131.2950  132.2180   61.8120 O   0  0  0  0  0  0  0  0  0  0  0  0
  132.5630  131.8720   62.3580 C   0  0  0  0  0  0  0  0  0  0  0  0
  129.3990  131.6990   60.4660 C   0  0  0  0  0  0  0  0  0  0  0  0
  128.8270  132.8930   60.8300 O   0  0  0  0  0  0  0  0  0  0  0  0
  128.7090  130.8590   59.5960 C   0  0  0  0  0  0  0  0  0  0  0  0
  129.2510  129.6350   59.1920 C   0  0  0  0  0  0  0  0  0  0  0  0
  128.4560  128.7820   58.1950 C   0  0  0  0  0  0  0  0  0  0  0  0
  128.6360  127.2660   58.2810 C   0  0  0  0  0  0  0  0  0  0  0  0
  129.4150  126.5640   57.4320 C   0  0  0  0  0  0  0  0  0  0  0  0
  129.5450  125.1930   57.4890 N   0  0  0  0  0  0  0  0  0  0  0  0
  128.8450  124.3010   58.4270 C   0  0  2  0  0  0  0  0  0  0  0  0
  128.0630  123.3010   57.7010 N   0  0  0  0  0  0  0  0  0  0  0  0
  127.2020  122.4880   58.5620 C   0  0  0  0  0  0  0  0  0  0  0  0
  126.3290  123.3400   59.5100 C   0  0  0  0  0  0  0  0  0  0  0  0
  127.1370  124.3430   60.3600 C   0  0  1  0  0  0  0  0  0  0  0  0
  128.1360  123.4530   61.5990 S   0  0  0  0  0  0  0  0  0  0  0  0
  129.2450  124.8810   62.5430 S   0  0  0  0  0  0  0  0  0  0  0  0
  130.6480  123.9820   63.2650 C   0  0  0  0  0  0  0  0  0  0  0  0
  127.9880  125.1600   59.3970 C   0  0  0  0  0  0  0  0  0  0  0  0
  127.9230  126.5090   59.3020 C   0  0  0  0  0  0  0  0  0  0  0  0
  133.0898  124.0531   64.7444 H   0  0  0  0  0  0  0  0  0  0  0  0
  134.2437  125.2886   64.1372 H   0  0  0  0  0  0  0  0  0  0  0  0
  132.4801  125.6299   64.1372 H   0  0  0  0  0  0  0  0  0  0  0  0
  133.2718  125.0775   61.8637 H   0  0  0  0  0  0  0  0  0  0  0  0
  133.8998  123.4787   62.5136 H   0  0  0  0  0  0  0  0  0  0  0  0
  131.9263  122.4937   62.4344 H   0  0  0  0  0  0  0  0  0  0  0  0
  130.3498  123.3593   60.6593 H   0  0  0  0  0  0  0  0  0  0  0  0
  131.4262  124.8510   60.5960 H   0  0  0  0  0  0  0  0  0  0  0  0
  133.1622  122.6842   60.2822 H   0  0  0  0  0  0  0  0  0  0  0  0
  131.6934  122.3151   59.2519 H   0  0  0  0  0  0  0  0  0  0  0  0
  131.5780  125.5621   59.5037 H   0  0  0  0  0  0  0  0  0  0  0  0
  132.0528  128.6209   57.5236 H   0  0  0  0  0  0  0  0  0  0  0  0
  131.0529  127.1299   60.0118 H   0  0  0  0  0  0  0  0  0  0  0  0
  132.1945  129.8082   60.9227 H   0  0  0  0  0  0  0  0  0  0  0  0
  132.5058  131.8876   63.4564 H   0  0  0  0  0  0  0  0  0  0  0  0
  132.8451  130.8640   62.0198 H   0  0  0  0  0  0  0  0  0  0  0  0
  133.3180  132.5970   62.0198 H   0  0  0  0  0  0  0  0  0  0  0  0
  129.3920  133.4180   61.4000 H   0  0  0  0  0  0  0  0  0  0  0  0
  127.7210  131.1634   59.2202 H   0  0  0  0  0  0  0  0  0  0  0  0
  127.3887  128.9988   58.3497 H   0  0  0  0  0  0  0  0  0  0  0  0
  128.8468  129.0606   57.2052 H   0  0  0  0  0  0  0  0  0  0  0  0
  129.9726  127.1116   56.6579 H   0  0  0  0  0  0  0  0  0  0  0  0
  130.2120  124.7190   56.8990 H   0  0  0  0  0  0  0  0  0  0  0  0
  129.5701  123.7367   59.0318 H   0  0  0  0  0  0  0  0  0  0  0  0
  128.6960  122.6680   57.2320 H   0  0  0  0  0  0  0  0  0  0  0  0
  126.5410  121.8810   57.9258 H   0  0  0  0  0  0  0  0  0  0  0  0
  127.8550  121.8608   59.1867 H   0  0  0  0  0  0  0  0  0  0  0  0
  125.6044  123.9029   58.9034 H   0  0  0  0  0  0  0  0  0  0  0  0
  125.8398  122.6457   60.2090 H   0  0  0  0  0  0  0  0  0  0  0  0
  126.4809  125.0199   60.9268 H   0  0  0  0  0  0  0  0  0  0  0  0
  131.0954  124.6225   64.0393 H   0  0  0  0  0  0  0  0  0  0  0  0
  130.2306  123.0386   63.6468 H   0  0  0  0  0  0  0  0  0  0  0  0
  127.3047  127.0579   60.0275 H   0  0  0  0  0  0  0  0  0  0  0  0
  1  2  1  0
  2  3  1  0
  3  4  1  0
  4  5  1  0
  5  6  1  0
  6  7  1  0
  6  8  2  0
  8  9  1  0
  9 10  2  0
  9 11  1  0
 11 12  2  0
 12 13  1  0
 13 14  2  0
 14 15  1  0
 15 16  1  0
 16 17  1  0
 15 18  2  0
 18 19  1  0
 18 20  1  0
 20 21  2  0
 21 22  1  0
 22 23  1  0
 23 24  2  0
 24 25  1  0
 25 26  1  0
 26 27  1  0
 27 28  1  0
 28 29  1  0
 29 30  1  0
 30 31  1  0
 31 32  1  0
 32 33  1  0
 30 34  1  0
 34 35  2  0
 33  3  1  0
 21 13  1  0
 35 23  1  0
 34 26  1  0
  1 36  1  0
  1 37  1  0
  1 38  1  0
  2 39  1  0
  2 40  1  0
  3 41  1  6
  4 42  1  0
  4 43  1  0
  5 44  1  0
  5 45  1  0
  8 46  1  0
 11 47  1  0
 12 48  1  0
 14 49  1  0
 17 50  1  0
 17 51  1  0
 17 52  1  0
 19 53  1  0
 20 54  1  0
 22 55  1  0
 22 56  1  0
 24 57  1  0
 25 58  1  0
 26 59  1  1
 27 60  1  0
 28 61  1  0
 28 62  1  0
 29 63  1  0
 29 64  1  0
 30 65  1  1
 33 66  1  0
 33 67  1  0
 35 68  1  0
M  CHG  1   7  -1
M  END
>  <Binding energies>  (1) 
[-2.08]

>  <Ligand effiencies>  (1) 
[-0.052000000000000005]

>  <Interactions>  (1) 
["V-A:ILE:369:CG2:3237, V-A:ASP:366:CA:3210, V-B:PRO:540:CA:9855, V-A:ALA:541:C:4888, H-A:ALA:541:N:4891, H-A:TYR:531:OH:4795, V-B:TYR:539:CE2:9848, V-B:TYR:539:C:9839, V-A:ASP:366:CG:3213, V-A:ASN:362:CB:3176, V-B:TYR:539:CZ:9849, H-A:ASN:370:N:3244, H-B:TYR:539:OH:9850, V-B:PRO:540:CB:9857, V-B:PRO:540:N:9856, V-A:ASP:366:C:3208, V-B:PRO:540:CD:9859, V-B:TYR:539:CD2:9846, V-A:TYR:531:CZ:4794, V-A:ASP:366:CB:3212, V-A:ARG:545:CZ:4926, H-A:TYR:539:O:4868, V-A:PRO:540:CB:4885, V-A:PRO:540:CA:4883"]

$$$$
ZINC2356857475-again1
     RDKit          3D

 69 72  0  0  0  0  0  0  0  0999 V2000
  132.3550  120.3190   60.5940 C   0  0  0  0  0  0  0  0  0  0  0  0
  133.4910  120.9990   61.3750 C   0  0  0  0  0  0  0  0  0  0  0  0
  133.3680  122.5410   61.4950 C   0  0  2  0  0  0  0  0  0  0  0  0
  134.1280  123.2650   60.3380 C   0  0  0  0  0  0  0  0  0  0  0  0
  133.6200  124.6830   59.9730 C   0  0  0  0  0  0  0  0  0  0  0  0
  132.9170  124.7930   58.6170 C   0  0  0  0  0  0  0  0  0  0  0  0
  133.5620  124.9130   57.5760 O   0  0  0  0  0  0  0  0  0  0  0  0
  131.3850  124.7640   58.6100 C   0  0  0  0  0  0  0  0  0  0  0  0
  130.7650  126.1630   58.4470 C   0  0  0  0  0  0  0  0  0  0  0  0
  130.2900  126.4730   57.3550 O   0  0  0  0  0  0  0  0  0  0  0  0
  130.8140  127.1280   59.5450 C   0  0  0  0  0  0  0  0  0  0  0  0
  130.3670  128.4000   59.4470 C   0  0  0  0  0  0  0  0  0  0  0  0
  130.3190  129.4340   60.5170 C   0  0  0  0  0  0  0  0  0  0  0  0
  131.3260  130.4110   60.6010 C   0  0  0  0  0  0  0  0  0  0  0  0
  131.3310  131.3920   61.6060 C   0  0  0  0  0  0  0  0  0  0  0  0
  132.3040  132.3690   61.7290 O   0  0  0  0  0  0  0  0  0  0  0  0
  133.6770  131.9980   61.7240 C   0  0  0  0  0  0  0  0  0  0  0  0
  130.2970  131.3880   62.5460 C   0  0  0  0  0  0  0  0  0  0  0  0
  130.2580  132.3270   63.5460 O   0  0  0  0  0  0  0  0  0  0  0  0
  129.2880  130.4310   62.4810 C   0  0  0  0  0  0  0  0  0  0  0  0
  129.2840  129.4520   61.4810 C   0  0  0  0  0  0  0  0  0  0  0  0
  128.1250  128.4470   61.4850 C   0  0  0  0  0  0  0  0  0  0  0  0
  128.5190  127.0510   61.9490 C   0  0  0  0  0  0  0  0  0  0  0  0
  128.1340  125.9450   61.2820 C   0  0  0  0  0  0  0  0  0  0  0  0
  128.5020  124.6710   61.6670 N   0  0  0  0  0  0  0  0  0  0  0  0
  129.4420  124.3420   62.7540 C   0  0  2  0  0  0  0  0  0  0  0  0
  128.9060  123.2770   63.5990 N   0  0  0  0  0  0  0  0  0  0  0  0
  129.7340  123.0120   64.7760 C   0  0  0  0  0  0  0  0  0  0  0  0
  129.9640  124.2850   65.6150 C   0  0  0  0  0  0  0  0  0  0  0  0
  130.5750  125.4520   64.8150 C   0  0  1  0  0  0  0  0  0  0  0  0
  132.3430  125.2120   64.4780 S   0  0  0  0  0  0  0  0  0  0  0  0
  132.4590  123.2040   64.1430 S   0  0  0  0  0  0  0  0  0  0  0  0
  133.7770  123.0670   62.8960 C   0  0  0  0  0  0  0  0  0  0  0  0
  129.7830  125.6440   63.5310 C   0  0  0  0  0  0  0  0  0  0  0  0
  129.3680  126.8590   63.1130 C   0  0  0  0  0  0  0  0  0  0  0  0
  131.6319  119.8862   61.3010 H   0  0  0  0  0  0  0  0  0  0  0  0
  131.8488  121.0627   59.9611 H   0  0  0  0  0  0  0  0  0  0  0  0
  132.7714  119.5215   59.9611 H   0  0  0  0  0  0  0  0  0  0  0  0
  133.5077  120.5773   62.3908 H   0  0  0  0  0  0  0  0  0  0  0  0
  134.4140  120.8058   60.8087 H   0  0  0  0  0  0  0  0  0  0  0  0
  132.3015  122.7870   61.3856 H   0  0  0  0  0  0  0  0  0  0  0  0
  135.1845  123.3515   60.6319 H   0  0  0  0  0  0  0  0  0  0  0  0
  133.9584  122.6499   59.4419 H   0  0  0  0  0  0  0  0  0  0  0  0
  132.9108  125.0015   60.7512 H   0  0  0  0  0  0  0  0  0  0  0  0
  134.5139  125.3206   59.9068 H   0  0  0  0  0  0  0  0  0  0  0  0
  131.0489  124.1308   57.7757 H   0  0  0  0  0  0  0  0  0  0  0  0
  131.0559  124.3660   59.5812 H   0  0  0  0  0  0  0  0  0  0  0  0
  131.2388  126.8000   60.5052 H   0  0  0  0  0  0  0  0  0  0  0  0
  129.9943  128.7077   58.4589 H   0  0  0  0  0  0  0  0  0  0  0  0
  132.1355  130.4071   59.8562 H   0  0  0  0  0  0  0  0  0  0  0  0
  134.0345  131.9014   62.7598 H   0  0  0  0  0  0  0  0  0  0  0  0
  133.7949  131.0358   61.2042 H   0  0  0  0  0  0  0  0  0  0  0  0
  134.2635  132.7699   61.2042 H   0  0  0  0  0  0  0  0  0  0  0  0
  131.0740  132.8260   63.6260 H   0  0  0  0  0  0  0  0  0  0  0  0
  128.4806  130.4446   63.2280 H   0  0  0  0  0  0  0  0  0  0  0  0
  127.3403  128.8262   62.1561 H   0  0  0  0  0  0  0  0  0  0  0  0
  127.7817  128.3520   60.4443 H   0  0  0  0  0  0  0  0  0  0  0  0
  127.4987  126.0623   60.3917 H   0  0  0  0  0  0  0  0  0  0  0  0
  128.2800  123.8840   61.0750 H   0  0  0  0  0  0  0  0  0  0  0  0
  130.3826  123.9440   62.3455 H   0  0  0  0  0  0  0  0  0  0  0  0
  128.8830  122.4220   63.0630 H   0  0  0  0  0  0  0  0  0  0  0  0
  129.2321  122.2594   65.4018 H   0  0  0  0  0  0  0  0  0  0  0  0
  130.7133  122.6502   64.4297 H   0  0  0  0  0  0  0  0  0  0  0  0
  128.9959  124.6123   66.0221 H   0  0  0  0  0  0  0  0  0  0  0  0
  130.6845  124.0241   66.4042 H   0  0  0  0  0  0  0  0  0  0  0  0
  130.5075  126.3644   65.4257 H   0  0  0  0  0  0  0  0  0  0  0  0
  134.2115  124.0685   62.7608 H   0  0  0  0  0  0  0  0  0  0  0  0
  134.4700  122.3112   63.2942 H   0  0  0  0  0  0  0  0  0  0  0  0
  129.6876  127.7456   63.6803 H   0  0  0  0  0  0  0  0  0  0  0  0
  1  2  1  0
  2  3  1  0
  3  4  1  0
  4  5  1  0
  5  6  1  0
  6  7  2  0
  6  8  1  0
  8  9  1  0
  9 10  2  0
  9 11  1  0
 11 12  2  0
 12 13  1  0
 13 14  2  0
 14 15  1  0
 15 16  1  0
 16 17  1  0
 15 18  2  0
 18 19  1  0
 18 20  1  0
 20 21  2  0
 21 22  1  0
 22 23  1  0
 23 24  2  0
 24 25  1  0
 25 26  1  0
 26 27  1  0
 27 28  1  0
 28 29  1  0
 29 30  1  0
 30 31  1  0
 31 32  1  0
 32 33  1  0
 30 34  1  0
 34 35  2  0
 33  3  1  0
 21 13  1  0
 35 23  1  0
 34 26  1  0
  1 36  1  0
  1 37  1  0
  1 38  1  0
  2 39  1  0
  2 40  1  0
  3 41  1  6
  4 42  1  0
  4 43  1  0
  5 44  1  0
  5 45  1  0
  8 46  1  0
  8 47  1  0
 11 48  1  0
 12 49  1  0
 14 50  1  0
 17 51  1  0
 17 52  1  0
 17 53  1  0
 19 54  1  0
 20 55  1  0
 22 56  1  0
 22 57  1  0
 24 58  1  0
 25 59  1  0
 26 60  1  6
 27 61  1  0
 28 62  1  0
 28 63  1  0
 29 64  1  0
 29 65  1  0
 30 66  1  1
 33 67  1  0
 33 68  1  0
 35 69  1  0
M  END
>  <Binding energies>  (1) 
[-4.41]

>  <Ligand effiencies>  (1) 
[-0.11025]

>  <Interactions>  (1) 
["V-A:ILE:369:CG2:3237, V-A:ASP:366:CA:3210, V-A:GLY:454:CA:4049, V-A:ILE:369:CB:3236, H-A:ALA:541:N:4891, V-B:GLU:543:CB:9878, H-A:ALA:541:O:4889, V-B:ALA:541:CB:9864, H-A:TYR:531:OH:4795, V-A:TYR:484:CE2:4346, V-B:TYR:539:CE2:9848, V-B:GLU:543:CG:9879, V-A:ASP:366:CG:3213, V-A:ASN:362:CB:3176, V-B:TYR:539:CZ:9849, H-B:TYR:539:OH:9850, V-A:GLU:543:CD:4908, V-A:SER:385:C:3405, V-A:ILE:369:CD1:3239, V-B:TYR:539:CD2:9846, V-A:GLU:543:CG:4907, V-A:SER:385:CB:3409, V-B:GLU:543:CD:9880, V-A:ILE:369:CG1:3238, V-A:ASP:366:CB:3212, V-A:LEU:475:CD2:4259, H-A:ARG:545:NH2:4928, V-A:ASN:362:C:3172, H-A:GLU:543:OE1:4909, V-A:PRO:540:CB:4885, V-A:PRO:540:CA:4883, H-A:ARG:545:NE:4924, V-A:SER:385:CA:3407, H-A:TYR:484:OH:4348"]

$$$$
ZINC2356867475
     RDKit          3D

 37 39  0  0  0  0  0  0  0  0999 V2000
  129.4480  130.5700   73.2650 C   0  0  0  0  0  0  0  0  0  0  0  0
  130.2160  129.3870   73.0810 O   0  0  0  0  0  0  0  0  0  0  0  0
  129.7590  128.4040   72.2200 C   0  0  0  0  0  0  0  0  0  0  0  0
  129.8330  128.4970   70.8200 C   0  0  0  0  0  0  0  0  0  0  0  0
  129.3610  127.4670   70.0020 C   0  0  0  0  0  0  0  0  0  0  0  0
  129.4490  127.5910   68.4810 C   0  0  2  0  0  0  0  0  0  0  0  0
  128.4770  128.5240   68.0010 O   0  0  0  0  0  0  0  0  0  0  0  0
  128.4310  128.6670   66.6310 C   0  0  0  0  0  0  0  0  0  0  0  0
  127.9810  129.9010   66.1620 C   0  0  0  0  0  0  0  0  0  0  0  0
  127.8700  130.1200   64.7920 C   0  0  0  0  0  0  0  0  0  0  0  0
  127.4320  131.3300   64.3240 O   0  0  0  0  0  0  0  0  0  0  0  0
  128.2030  129.1050   63.8970 C   0  0  0  0  0  0  0  0  0  0  0  0
  128.6430  127.8680   64.3720 C   0  0  0  0  0  0  0  0  0  0  0  0
  128.9570  126.8910   63.4620 O   0  0  0  0  0  0  0  0  0  0  0  0
  128.7650  127.6200   65.7490 C   0  0  0  0  0  0  0  0  0  0  0  0
  129.2450  126.2600   66.2760 C   0  0  0  0  0  0  0  0  0  0  0  0
  129.3660  126.2010   67.8060 C   0  0  0  0  0  0  0  0  0  0  0  0
  129.4240  125.1290   68.4100 O   0  0  0  0  0  0  0  0  0  0  0  0
  128.7960  126.3310   70.5900 C   0  0  0  0  0  0  0  0  0  0  0  0
  128.7100  126.2210   71.9770 C   0  0  0  0  0  0  0  0  0  0  0  0
  128.1500  125.0930   72.5200 O   0  0  0  0  0  0  0  0  0  0  0  0
  129.1910  127.2550   72.7910 C   0  0  0  0  0  0  0  0  0  0  0  0
  129.1050  127.1430   74.1580 O   0  0  0  0  0  0  0  0  0  0  0  0
  129.3231  130.7624   74.3408 H   0  0  0  0  0  0  0  0  0  0  0  0
  129.9668  131.4203   72.7982 H   0  0  0  0  0  0  0  0  0  0  0  0
  128.4602  130.4422   72.7982 H   0  0  0  0  0  0  0  0  0  0  0  0
  130.2698  129.3957   70.3601 H   0  0  0  0  0  0  0  0  0  0  0  0
  130.4326  127.9978   68.2033 H   0  0  0  0  0  0  0  0  0  0  0  0
  127.7149  130.6979   66.8720 H   0  0  0  0  0  0  0  0  0  0  0  0
  127.8260  131.5680   63.4820 H   0  0  0  0  0  0  0  0  0  0  0  0
  128.1190  129.2788   62.8141 H   0  0  0  0  0  0  0  0  0  0  0  0
  129.8000  127.0430   63.0290 H   0  0  0  0  0  0  0  0  0  0  0  0
  128.5287  125.4898   65.9539 H   0  0  0  0  0  0  0  0  0  0  0  0
  130.2520  126.0926   65.8662 H   0  0  0  0  0  0  0  0  0  0  0  0
  128.4166  125.5182   69.9533 H   0  0  0  0  0  0  0  0  0  0  0  0
  127.9810  124.4090   71.8680 H   0  0  0  0  0  0  0  0  0  0  0  0
  129.4510  127.9140   74.6130 H   0  0  0  0  0  0  0  0  0  0  0  0
  1  2  1  0
  2  3  1  0
  3  4  2  0
  4  5  1  0
  5  6  1  0
  6  7  1  0
  7  8  1  0
  8  9  2  0
  9 10  1  0
 10 11  1  0
 10 12  2  0
 12 13  1  0
 13 14  1  0
 13 15  2  0
 15 16  1  0
 16 17  1  0
 17 18  2  0
  5 19  2  0
 19 20  1  0
 20 21  1  0
 20 22  2  0
 22 23  1  0
 22  3  1  0
 17  6  1  0
 15  8  1  0
  1 24  1  0
  1 25  1  0
  1 26  1  0
  4 27  1  0
  6 28  1  1
  9 29  1  0
 11 30  1  0
 12 31  1  0
 14 32  1  0
 16 33  1  0
 16 34  1  0
 19 35  1  0
 21 36  1  0
 23 37  1  0
M  END
>  <Binding energies>  (1) 
[-5.71]

>  <Ligand effiencies>  (1) 
[-0.2114814814814815]

>  <Interactions>  (1) 
["V-B:GLU:543:C:9874, H-A:GLU:543:OE2:4910, H-B:GLU:543:O:9875, V-A:GLU:543:C:4902, V-B:HIS:456:CD2:9039, V-B:GLU:543:CB:9878, H-B:LYS:547:NZ:9923, V-B:GLU:543:CG:9879, V-A:HIS:456:CD2:4068, V-B:TYR:484:CE2:9317, V-A:GLU:543:CD:4908, H-B:TYR:484:OH:9319, V-B:TYR:484:CZ:9318, V-A:HIS:456:CE1:4070, V-A:GLU:543:CG:4907, V-B:GLU:543:CD:9880, H-A:LYS:547:NZ:4951, H-A:GLU:543:OE1:4909, V-A:GLU:543:CB:4906, V-A:LYS:547:CE:4950, H-A:HIS:456:NE2:4071"]

$$$$
ZINC2356870025
     RDKit          3D

104108  0  0  0  0  0  0  0  0999 V2000
  131.5600  130.4430   61.3690 C   0  0  0  0  0  0  0  0  0  0  0  0
  131.6660  131.5540   60.3160 C   0  0  0  0  0  0  0  0  0  0  0  0
  130.8580  131.2440   59.0380 C   0  0  0  0  0  0  0  0  0  0  0  0
  130.5690  129.7350   58.7840 C   0  0  2  0  0  0  0  0  0  0  0  0
  131.7480  129.0950   57.9990 C   0  0  0  0  0  0  0  0  0  0  0  0
  131.9960  127.7510   58.3540 O   0  0  0  0  0  0  0  0  0  0  0  0
  129.1470  129.4810   58.1680 C   0  0  2  0  0  0  0  0  0  0  0  0
  128.0140  130.1910   58.9550 C   0  0  0  0  0  0  0  0  0  0  0  0
  127.3670  129.4380   60.1540 C   0  0  2  0  0  0  0  0  0  0  0  0
  126.6340  130.4160   61.1120 C   0  0  0  0  0  0  0  0  0  0  0  0
  127.2410  130.5570   62.5050 C   0  0  0  0  0  0  0  0  0  0  0  0
  126.6910  129.9390   63.5780 C   0  0  0  0  0  0  0  0  0  0  0  0
  127.2220  130.0560   65.0230 C   0  0  1  0  0  0  0  0  0  0  0  0
  127.8460  128.7140   65.4330 N   0  0  0  0  0  0  0  0  0  0  0  0
  128.0320  128.5430   66.9480 C   0  0  0  0  0  0  0  0  0  0  0  0
  129.1360  127.5080   67.2100 C   0  0  0  0  0  0  0  0  0  0  0  0
  129.1190  126.9890   68.6570 C   0  0  0  0  0  0  0  0  0  0  0  0
  129.0860  125.5780   68.6790 O   0  0  0  0  0  0  0  0  0  0  0  0
  128.3440  131.0090   65.0650 N   0  0  0  0  0  0  0  0  0  0  0  0
  128.9150  131.5900   63.9520 C   0  0  0  0  0  0  0  0  0  0  0  0
  128.4180  131.3860   62.7210 C   0  0  0  0  0  0  0  0  0  0  0  0
  128.3200  128.5100   60.9540 C   0  0  0  0  0  0  0  0  0  0  0  0
  128.4690  127.0710   60.3890 C   0  0  2  0  0  0  0  0  0  0  0  0
  128.9930  126.1280   61.4050 C   0  0  0  0  0  0  0  0  0  0  0  0
  129.4430  125.2710   62.1490 C   0  0  0  0  0  0  0  0  0  0  0  0
  129.8560  124.1860   63.0710 C   0  0  2  0  0  0  0  0  0  0  0  0
  130.7890  124.6580   64.2060 C   0  0  0  0  0  0  0  0  0  0  0  0
  130.3060  124.9940   65.4810 C   0  0  0  0  0  0  0  0  0  0  0  0
  131.1830  125.4150   66.4770 C   0  0  0  0  0  0  0  0  0  0  0  0
  132.5460  125.5000   66.2070 C   0  0  0  0  0  0  0  0  0  0  0  0
  133.0400  125.1680   64.9490 C   0  0  0  0  0  0  0  0  0  0  0  0
  132.1640  124.7480   63.9520 C   0  0  0  0  0  0  0  0  0  0  0  0
  130.3000  122.9100   62.3160 C   0  0  0  0  0  0  0  0  0  0  0  0
  129.5050  121.7550   62.3920 C   0  0  0  0  0  0  0  0  0  0  0  0
  129.8290  120.5980   61.6850 C   0  0  0  0  0  0  0  0  0  0  0  0
  129.0120  119.5020   61.7990 O   0  0  0  0  0  0  0  0  0  0  0  0
  130.9660  120.5560   60.8740 C   0  0  0  0  0  0  0  0  0  0  0  0
  131.2330  119.3770   60.1990 O   0  0  0  0  0  0  0  0  0  0  0  0
  130.9960  118.1310   60.8450 C   0  0  0  0  0  0  0  0  0  0  0  0
  131.7700  121.7020   60.7970 C   0  0  0  0  0  0  0  0  0  0  0  0
  131.4590  122.8700   61.5040 C   0  0  0  0  0  0  0  0  0  0  0  0
  132.4490  124.0310   61.3830 C   0  0  0  0  0  0  0  0  0  0  0  0
  131.8140  125.2420   60.6610 C   0  0  0  0  0  0  0  0  0  0  0  0
  131.7460  125.0930   59.1320 C   0  0  0  0  0  0  0  0  0  0  0  0
  132.8200  125.2180   58.4630 O   0  0  0  0  0  0  0  0  0  0  0  0
  130.4890  124.7670   58.5680 C   0  0  0  0  0  0  0  0  0  0  0  0
  129.2900  125.5230   58.4690 C   0  0  0  0  0  0  0  0  0  0  0  0
  128.2390  125.0730   57.9050 O   0  0  0  0  0  0  0  0  0  0  0  0
  129.2620  126.9740   59.0400 C   0  0  1  0  0  0  0  0  0  0  0  0
  128.8390  127.9770   57.9320 C   0  0  0  0  0  0  0  0  0  0  0  0
  131.6023  130.8860   62.3750 H   0  0  0  0  0  0  0  0  0  0  0  0
  130.6068  129.9086   61.2435 H   0  0  0  0  0  0  0  0  0  0  0  0
  132.3950  129.7380   61.2435 H   0  0  0  0  0  0  0  0  0  0  0  0
  131.2877  132.4899   60.7529 H   0  0  0  0  0  0  0  0  0  0  0  0
  132.7242  131.6377   60.0274 H   0  0  0  0  0  0  0  0  0  0  0  0
  129.8932  131.7674   59.1104 H   0  0  0  0  0  0  0  0  0  0  0  0
  131.4797  131.5810   58.1954 H   0  0  0  0  0  0  0  0  0  0  0  0
  130.5181  129.2139   59.7514 H   0  0  0  0  0  0  0  0  0  0  0  0
  131.5134  129.1341   56.9250 H   0  0  0  0  0  0  0  0  0  0  0  0
  132.6528  129.6684   58.2489 H   0  0  0  0  0  0  0  0  0  0  0  0
  132.3360  127.2890   57.5830 H   0  0  0  0  0  0  0  0  0  0  0  0
  129.1777  129.9461   57.1716 H   0  0  0  0  0  0  0  0  0  0  0  0
  128.4288  131.1317   59.3463 H   0  0  0  0  0  0  0  0  0  0  0  0
  127.1976  130.2927   58.2248 H   0  0  0  0  0  0  0  0  0  0  0  0
  126.6380  128.7638   59.6806 H   0  0  0  0  0  0  0  0  0  0  0  0
  126.6312  131.4107   60.6423 H   0  0  0  0  0  0  0  0  0  0  0  0
  125.6306  129.9915   61.2637 H   0  0  0  0  0  0  0  0  0  0  0  0
  125.8046  129.3102   63.4078 H   0  0  0  0  0  0  0  0  0  0  0  0
  126.3877  130.3622   65.6712 H   0  0  0  0  0  0  0  0  0  0  0  0
  127.2660  127.9660   65.0780 H   0  0  0  0  0  0  0  0  0  0  0  0
  128.7500  128.6370   64.9890 H   0  0  0  0  0  0  0  0  0  0  0  0
  128.3184  129.5068   67.3942 H   0  0  0  0  0  0  0  0  0  0  0  0
  127.0894  128.1986   67.3985 H   0  0  0  0  0  0  0  0  0  0  0  0
  128.9923  126.6573   66.5276 H   0  0  0  0  0  0  0  0  0  0  0  0
  130.1051  128.0001   67.0408 H   0  0  0  0  0  0  0  0  0  0  0  0
  130.0238  127.3375   69.1766 H   0  0  0  0  0  0  0  0  0  0  0  0
  128.2192  127.3724   69.1604 H   0  0  0  0  0  0  0  0  0  0  0  0
  129.0250  125.2870   69.5920 H   0  0  0  0  0  0  0  0  0  0  0  0
  128.5420  131.3770   65.9840 H   0  0  0  0  0  0  0  0  0  0  0  0
  129.7974  132.2351   64.0753 H   0  0  0  0  0  0  0  0  0  0  0  0
  128.9111  131.8556   61.8571 H   0  0  0  0  0  0  0  0  0  0  0  0
  129.3166  128.9754   60.9672 H   0  0  0  0  0  0  0  0  0  0  0  0
  127.8730  128.4012   61.9532 H   0  0  0  0  0  0  0  0  0  0  0  0
  127.4436  126.7643   60.1352 H   0  0  0  0  0  0  0  0  0  0  0  0
  128.9560  123.8728   63.6206 H   0  0  0  0  0  0  0  0  0  0  0  0
  129.2291  124.9242   65.6940 H   0  0  0  0  0  0  0  0  0  0  0  0
  130.8002  125.6795   67.4738 H   0  0  0  0  0  0  0  0  0  0  0  0
  133.2383  125.8323   66.9945 H   0  0  0  0  0  0  0  0  0  0  0  0
  134.1184  125.2372   64.7433 H   0  0  0  0  0  0  0  0  0  0  0  0
  132.5540  124.4849   62.9577 H   0  0  0  0  0  0  0  0  0  0  0  0
  128.6051  121.7634   63.0245 H   0  0  0  0  0  0  0  0  0  0  0  0
  128.9390  119.0030   60.9830 H   0  0  0  0  0  0  0  0  0  0  0  0
  131.0229  118.2724   61.9355 H   0  0  0  0  0  0  0  0  0  0  0  0
  130.0086  117.7467   60.5493 H   0  0  0  0  0  0  0  0  0  0  0  0
  131.7733  117.4110   60.5493 H   0  0  0  0  0  0  0  0  0  0  0  0
  132.6695  121.6831   60.1641 H   0  0  0  0  0  0  0  0  0  0  0  0
  132.7631  124.3398   62.3909 H   0  0  0  0  0  0  0  0  0  0  0  0
  133.3119  123.6896   60.7923 H   0  0  0  0  0  0  0  0  0  0  0  0
  130.7904  125.3739   61.0416 H   0  0  0  0  0  0  0  0  0  0  0  0
  132.4578  126.1095   60.8680 H   0  0  0  0  0  0  0  0  0  0  0  0
  130.4308  123.7583   58.1331 H   0  0  0  0  0  0  0  0  0  0  0  0
  130.2794  127.2722   59.3332 H   0  0  0  0  0  0  0  0  0  0  0  0
  129.3499  127.6780   57.0049 H   0  0  0  0  0  0  0  0  0  0  0  0
  127.7409  127.9175   57.9056 H   0  0  0  0  0  0  0  0  0  0  0  0
  1  2  1  0
  2  3  1  0
  3  4  1  0
  4  5  1  0
  5  6  1  0
  4  7  1  0
  7  8  1  0
  8  9  1  0
  9 10  1  0
 10 11  1  0
 11 12  2  0
 12 13  1  0
 13 14  1  0
 14 15  1  0
 15 16  1  0
 16 17  1  0
 17 18  1  0
 13 19  1  0
 19 20  1  0
 20 21  2  0
  9 22  1  0
 22 23  1  0
 23 24  1  0
 24 25  3  0
 25 26  1  0
 26 27  1  0
 27 28  2  0
 28 29  1  0
 29 30  2  0
 30 31  1  0
 31 32  2  0
 26 33  1  0
 33 34  2  0
 34 35  1  0
 35 36  1  0
 35 37  2  0
 37 38  1  0
 38 39  1  0
 37 40  1  0
 40 41  2  0
 41 42  1  0
 42 43  1  0
 43 44  1  0
 44 45  2  0
 44 46  1  0
 46 47  2  0
 47 48  1  0
 47 49  1  0
 49 50  1  0
 50  7  1  0
 21 11  1  0
 49 23  1  0
 32 27  1  0
 41 33  1  0
  1 51  1  0
  1 52  1  0
  1 53  1  0
  2 54  1  0
  2 55  1  0
  3 56  1  0
  3 57  1  0
  4 58  1  1
  5 59  1  0
  5 60  1  0
  6 61  1  0
  7 62  1  6
  8 63  1  0
  8 64  1  0
  9 65  1  6
 10 66  1  0
 10 67  1  0
 12 68  1  0
 13 69  1  1
 14 70  1  0
 14 71  1  0
 15 72  1  0
 15 73  1  0
 16 74  1  0
 16 75  1  0
 17 76  1  0
 17 77  1  0
 18 78  1  0
 19 79  1  0
 20 80  1  0
 21 81  1  0
 22 82  1  0
 22 83  1  0
 23 84  1  6
 26 85  1  1
 28 86  1  0
 29 87  1  0
 30 88  1  0
 31 89  1  0
 32 90  1  0
 34 91  1  0
 36 92  1  0
 39 93  1  0
 39 94  1  0
 39 95  1  0
 40 96  1  0
 42 97  1  0
 42 98  1  0
 43 99  1  0
 43100  1  0
 46101  1  0
 49102  1  1
 50103  1  0
 50104  1  0
M  CHG  2  14   1  48  -1
M  END
>  <Binding energies>  (1) 
[-2.99]

>  <Ligand effiencies>  (1) 
[-0.049833333333333334]

>  <Interactions>  (1) 
["H-A:GLU:543:OE2:4910, H-B:GLU:543:O:9875, V-B:GLU:543:CB:9878, V-B:ALA:541:CB:9864, H-A:TYR:531:OH:4795, V-B:TYR:539:CE2:9848, V-B:GLU:543:CG:9879, V-A:ASP:366:CG:3213, V-B:TYR:484:CE2:9317, V-B:TYR:539:CZ:9849, H-B:GLU:543:OE1:9881, H-B:TYR:539:OH:9850, V-A:ALA:541:CB:4892, H-B:ALA:541:N:9863, V-A:TYR:484:CZ:4347, V-A:GLU:543:CD:4908, H-B:TYR:484:OH:9319, V-A:ARG:545:CG:4922, V-B:HIS:456:CE1:9041, V-A:HIS:456:CE1:4070, V-B:TYR:484:CZ:9318, V-B:TYR:539:CD2:9846, V-A:TYR:531:CZ:4794, V-A:GLU:543:CG:4907, H-A:SER:385:OG:3410, V-B:GLU:543:CD:9880, V-A:ASP:366:CB:3212, V-A:ARG:545:CD:4923, V-A:LEU:475:CD2:4259, V-A:ARG:545:CZ:4926, H-A:GLU:543:OE1:4909, V-A:GLU:543:CB:4906, H-A:HIS:383:HE2:3395, H-B:GLU:543:OE2:9882, V-A:PRO:540:CA:4883, V-A:PRO:540:CB:4885, H-B:TYR:539:O:9840, V-A:HIS:383:NE2:3394, H-A:HIS:456:NE2:4071, H-B:PRO:540:O:9854"]

$$$$
ZINC2356870025-again1
     RDKit          3D

105109  0  0  0  0  0  0  0  0999 V2000
  128.6900  133.3020   57.1230 C   0  0  0  0  0  0  0  0  0  0  0  0
  129.4180  131.9690   56.9050 C   0  0  0  0  0  0  0  0  0  0  0  0
  129.7300  131.2360   58.2270 C   0  0  0  0  0  0  0  0  0  0  0  0
  128.5360  131.0960   59.2210 C   0  0  2  0  0  0  0  0  0  0  0  0
  128.7000  132.0460   60.4440 C   0  0  0  0  0  0  0  0  0  0  0  0
  128.1180  133.3170   60.2330 O   0  0  0  0  0  0  0  0  0  0  0  0
  128.2120  129.6170   59.6620 C   0  0  2  0  0  0  0  0  0  0  0  0
  128.7570  129.1740   61.0580 C   0  0  0  0  0  0  0  0  0  0  0  0
  127.9140  128.1590   61.8690 C   0  0  2  0  0  0  0  0  0  0  0  0
  128.7820  127.4400   62.9410 C   0  0  0  0  0  0  0  0  0  0  0  0
  128.4970  127.7820   64.4060 C   0  0  0  0  0  0  0  0  0  0  0  0
  128.8050  126.9340   65.4210 C   0  0  0  0  0  0  0  0  0  0  0  0
  128.6700  127.2650   66.9220 C   0  0  1  0  0  0  0  0  0  0  0  0
  130.0790  127.4810   67.5010 N   0  0  0  0  0  0  0  0  0  0  0  0
  130.2530  127.0460   68.9660 C   0  0  0  0  0  0  0  0  0  0  0  0
  130.1540  128.2750   69.8800 C   0  0  0  0  0  0  0  0  0  0  0  0
  130.0580  127.8870   71.3640 C   0  0  0  0  0  0  0  0  0  0  0  0
  130.5380  128.9260   72.1870 O   0  0  0  0  0  0  0  0  0  0  0  0
  128.0080  128.5700   67.0790 N   0  0  0  0  0  0  0  0  0  0  0  0
  127.7250  129.4310   66.0390 C   0  0  0  0  0  0  0  0  0  0  0  0
  127.9520  129.0850   64.7600 C   0  0  0  0  0  0  0  0  0  0  0  0
  127.1250  127.1690   60.9750 C   0  0  0  0  0  0  0  0  0  0  0  0
  127.9960  126.3410   59.9900 C   0  0  2  0  0  0  0  0  0  0  0  0
  128.7040  125.2870   60.7560 C   0  0  0  0  0  0  0  0  0  0  0  0
  129.2990  124.4710   61.4430 C   0  0  0  0  0  0  0  0  0  0  0  0
  129.9890  123.5280   62.3570 C   0  0  2  0  0  0  0  0  0  0  0  0
  130.4890  124.1090   63.6970 C   0  0  0  0  0  0  0  0  0  0  0  0
  131.5750  124.9980   63.7960 C   0  0  0  0  0  0  0  0  0  0  0  0
  131.9770  125.4900   65.0340 C   0  0  0  0  0  0  0  0  0  0  0  0
  131.2970  125.1020   66.1840 C   0  0  0  0  0  0  0  0  0  0  0  0
  130.2170  124.2280   66.1070 C   0  0  0  0  0  0  0  0  0  0  0  0
  129.8170  123.7350   64.8680 C   0  0  0  0  0  0  0  0  0  0  0  0
  131.0150  122.6330   61.6300 C   0  0  0  0  0  0  0  0  0  0  0  0
  130.7450  121.2600   61.5670 C   0  0  0  0  0  0  0  0  0  0  0  0
  131.6250  120.3740   60.9480 C   0  0  0  0  0  0  0  0  0  0  0  0
  131.3080  119.0390   60.9160 O   0  0  0  0  0  0  0  0  0  0  0  0
  132.8090  120.8390   60.3700 C   0  0  0  0  0  0  0  0  0  0  0  0
  133.6400  119.9080   59.7690 O   0  0  0  0  0  0  0  0  0  0  0  0
  133.2460  119.3100   58.5390 C   0  0  0  0  0  0  0  0  0  0  0  0
  133.0850  122.2130   60.4260 C   0  0  0  0  0  0  0  0  0  0  0  0
  132.2090  123.1130   61.0430 C   0  0  0  0  0  0  0  0  0  0  0  0
  132.5940  124.5900   61.0260 C   0  0  0  0  0  0  0  0  0  0  0  0
  131.4890  125.4770   60.4030 C   0  0  0  0  0  0  0  0  0  0  0  0
  131.6290  125.7290   58.8920 C   0  0  0  0  0  0  0  0  0  0  0  0
  132.5890  126.3320   58.4120 O   0  0  0  0  0  0  0  0  0  0  0  0
  130.4840  125.2550   57.9930 C   0  0  0  0  0  0  0  0  0  0  0  0
  129.4070  126.3300   57.8070 C   0  0  0  0  0  0  0  0  0  0  0  0
  128.8630  126.4840   56.7140 O   0  0  0  0  0  0  0  0  0  0  0  0
  128.9700  127.1440   59.0520 C   0  0  1  0  0  0  0  0  0  0  0  0
  128.4930  128.5480   58.5670 C   0  0  0  0  0  0  0  0  0  0  0  0
  128.5867  133.4912   58.2017 H   0  0  0  0  0  0  0  0  0  0  0  0
  129.2690  134.1157   56.6618 H   0  0  0  0  0  0  0  0  0  0  0  0
  127.6925  133.2547   56.6618 H   0  0  0  0  0  0  0  0  0  0  0  0
  128.7837  131.3194   56.2839 H   0  0  0  0  0  0  0  0  0  0  0  0
  130.3772  132.1913   56.4146 H   0  0  0  0  0  0  0  0  0  0  0  0
  130.0824  130.2243   57.9774 H   0  0  0  0  0  0  0  0  0  0  0  0
  130.4789  131.8546   58.7432 H   0  0  0  0  0  0  0  0  0  0  0  0
  127.6500  131.4130   58.6513 H   0  0  0  0  0  0  0  0  0  0  0  0
  128.2200  131.5804   61.3174 H   0  0  0  0  0  0  0  0  0  0  0  0
  129.7778  132.1978   60.6029 H   0  0  0  0  0  0  0  0  0  0  0  0
  128.7900  133.9880   60.3660 H   0  0  0  0  0  0  0  0  0  0  0  0
  127.1212  129.6655   59.7958 H   0  0  0  0  0  0  0  0  0  0  0  0
  129.7477  128.7240   60.8966 H   0  0  0  0  0  0  0  0  0  0  0  0
  128.7481  130.0915   61.6647 H   0  0  0  0  0  0  0  0  0  0  0  0
  127.1448  128.7368   62.4023 H   0  0  0  0  0  0  0  0  0  0  0  0
  128.6332  126.3571   62.8175 H   0  0  0  0  0  0  0  0  0  0  0  0
  129.8093  127.7890   62.7596 H   0  0  0  0  0  0  0  0  0  0  0  0
  129.1792  125.9350   65.1526 H   0  0  0  0  0  0  0  0  0  0  0  0
  128.1157  126.4512   67.4125 H   0  0  0  0  0  0  0  0  0  0  0  0
  130.7340  126.9690   66.9270 H   0  0  0  0  0  0  0  0  0  0  0  0
  130.3080  128.4620   67.4270 H   0  0  0  0  0  0  0  0  0  0  0  0
  129.4637  126.3273   69.2313 H   0  0  0  0  0  0  0  0  0  0  0  0
  131.2378  126.5728   69.0934 H   0  0  0  0  0  0  0  0  0  0  0  0
  131.0484  128.8985   69.7338 H   0  0  0  0  0  0  0  0  0  0  0  0
  129.2376  128.8219   69.6134 H   0  0  0  0  0  0  0  0  0  0  0  0
  129.0067  127.6842   71.6161 H   0  0  0  0  0  0  0  0  0  0  0  0
  130.6732  126.9910   71.5338 H   0  0  0  0  0  0  0  0  0  0  0  0
  130.2950  129.7680   71.7950 H   0  0  0  0  0  0  0  0  0  0  0  0
  127.5930  128.7220   67.9880 H   0  0  0  0  0  0  0  0  0  0  0  0
  127.3042  130.4227   66.2612 H   0  0  0  0  0  0  0  0  0  0  0  0
  127.7202  129.8043   63.9607 H   0  0  0  0  0  0  0  0  0  0  0  0
  126.5905  126.4669   61.6317 H   0  0  0  0  0  0  0  0  0  0  0  0
  126.4540  127.7810   60.3543 H   0  0  0  0  0  0  0  0  0  0  0  0
  127.2936  125.9052   59.2643 H   0  0  0  0  0  0  0  0  0  0  0  0
  129.1817  122.8616   62.6949 H   0  0  0  0  0  0  0  0  0  0  0  0
  132.1111  125.3069   62.8865 H   0  0  0  0  0  0  0  0  0  0  0  0
  132.8287  126.1827   65.1031 H   0  0  0  0  0  0  0  0  0  0  0  0
  131.6159  125.4896   67.1628 H   0  0  0  0  0  0  0  0  0  0  0  0
  129.6821  123.9282   67.0202 H   0  0  0  0  0  0  0  0  0  0  0  0
  128.9634  123.0438   64.8078 H   0  0  0  0  0  0  0  0  0  0  0  0
  129.8184  120.8727   62.0158 H   0  0  0  0  0  0  0  0  0  0  0  0
  132.0610  118.4790   60.7130 H   0  0  0  0  0  0  0  0  0  0  0  0
  132.6514  118.4075   58.7439 H   0  0  0  0  0  0  0  0  0  0  0  0
  132.6411  120.0243   57.9612 H   0  0  0  0  0  0  0  0  0  0  0  0
  134.1410  119.0360   57.9612 H   0  0  0  0  0  0  0  0  0  0  0  0
  134.0131  122.5925   59.9737 H   0  0  0  0  0  0  0  0  0  0  0  0
  132.7727  124.9211   62.0597 H   0  0  0  0  0  0  0  0  0  0  0  0
  133.4985  124.6953   60.4089 H   0  0  0  0  0  0  0  0  0  0  0  0
  130.5197  124.9874   60.5784 H   0  0  0  0  0  0  0  0  0  0  0  0
  131.5768  126.4609   60.8870 H   0  0  0  0  0  0  0  0  0  0  0  0
  130.8943  124.9911   57.0071 H   0  0  0  0  0  0  0  0  0  0  0  0
  130.0129  124.3871   58.4775 H   0  0  0  0  0  0  0  0  0  0  0  0
  129.8157  127.3224   59.7324 H   0  0  0  0  0  0  0  0  0  0  0  0
  129.2710  128.9511   57.9020 H   0  0  0  0  0  0  0  0  0  0  0  0
  127.5195  128.3684   58.0874 H   0  0  0  0  0  0  0  0  0  0  0  0
  1  2  1  0
  2  3  1  0
  3  4  1  0
  4  5  1  0
  5  6  1  0
  4  7  1  0
  7  8  1  0
  8  9  1  0
  9 10  1  0
 10 11  1  0
 11 12  2  0
 12 13  1  0
 13 14  1  0
 14 15  1  0
 15 16  1  0
 16 17  1  0
 17 18  1  0
 13 19  1  0
 19 20  1  0
 20 21  2  0
  9 22  1  0
 22 23  1  0
 23 24  1  0
 24 25  3  0
 25 26  1  0
 26 27  1  0
 27 28  2  0
 28 29  1  0
 29 30  2  0
 30 31  1  0
 31 32  2  0
 26 33  1  0
 33 34  2  0
 34 35  1  0
 35 36  1  0
 35 37  2  0
 37 38  1  0
 38 39  1  0
 37 40  1  0
 40 41  2  0
 41 42  1  0
 42 43  1  0
 43 44  1  0
 44 45  2  0
 44 46  1  0
 46 47  1  0
 47 48  2  0
 47 49  1  0
 49 50  1  0
 50  7  1  0
 21 11  1  0
 49 23  1  0
 32 27  1  0
 41 33  1  0
  1 51  1  0
  1 52  1  0
  1 53  1  0
  2 54  1  0
  2 55  1  0
  3 56  1  0
  3 57  1  0
  4 58  1  6
  5 59  1  0
  5 60  1  0
  6 61  1  0
  7 62  1  1
  8 63  1  0
  8 64  1  0
  9 65  1  1
 10 66  1  0
 10 67  1  0
 12 68  1  0
 13 69  1  1
 14 70  1  0
 14 71  1  0
 15 72  1  0
 15 73  1  0
 16 74  1  0
 16 75  1  0
 17 76  1  0
 17 77  1  0
 18 78  1  0
 19 79  1  0
 20 80  1  0
 21 81  1  0
 22 82  1  0
 22 83  1  0
 23 84  1  6
 26 85  1  1
 28 86  1  0
 29 87  1  0
 30 88  1  0
 31 89  1  0
 32 90  1  0
 34 91  1  0
 36 92  1  0
 39 93  1  0
 39 94  1  0
 39 95  1  0
 40 96  1  0
 42 97  1  0
 42 98  1  0
 43 99  1  0
 43100  1  0
 46101  1  0
 46102  1  0
 49103  1  1
 50104  1  0
 50105  1  0
M  CHG  1  14   1
M  END
>  <Binding energies>  (1) 
[-5.02]

>  <Ligand effiencies>  (1) 
[-0.08366666666666665]

>  <Interactions>  (1) 
["V-A:ILE:369:CG2:3237, H-A:GLU:543:OE2:4910, V-A:GLU:543:C:4902, V-B:GLU:543:CB:9878, H-A:TYR:531:OH:4795, V-B:TYR:539:CE2:9848, V-A:TYR:484:CE2:4346, V-B:GLU:543:CG:9879, V-A:TYR:539:CD1:4873, V-B:TYR:539:CZ:9849, V-A:TYR:539:CZ:4877, V-A:TYR:539:CA:4869, V-A:GLU:543:CD:4908, V-A:TYR:484:CZ:4347, V-B:HIS:456:CE1:9041, H-A:GLY:544:O:4913, V-A:HIS:456:CE1:4070, V-B:TYR:484:CZ:9318, H-B:HIS:456:NE2:9042, V-B:TYR:539:CD2:9846, V-A:GLU:543:CG:4907, H-A:SER:385:OG:3410, V-A:MET:535:CE:4835, V-B:GLU:543:CD:9880, V-A:TYR:539:C:4867, H-A:LYS:547:NZ:4951, V-A:LEU:475:CD2:4259, V-A:ARG:545:CZ:4926, H-A:GLU:543:OE1:4909, V-B:TYR:539:CG:9844, V-A:GLU:543:CB:4906, H-A:HIS:383:HE2:3395, V-A:HIS:383:CD2:3392, H-A:TYR:539:O:4868, V-A:TYR:539:CG:4872, H-B:GLU:543:OE2:9882, V-A:TYR:539:CD2:4874, V-A:TYR:539:CE1:4875, H-A:GLU:543:O:4903"]

$$$$
ZINC2356870025-again2
     RDKit          3D

104108  0  0  0  0  0  0  0  0999 V2000
  127.6010  133.3770   60.6860 C   0  0  0  0  0  0  0  0  0  0  0  0
  128.3060  133.0270   59.3650 C   0  0  0  0  0  0  0  0  0  0  0  0
  129.7600  132.5300   59.5340 C   0  0  0  0  0  0  0  0  0  0  0  0
  130.0490  131.5990   60.7540 C   0  0  2  0  0  0  0  0  0  0  0  0
  131.5800  131.4610   61.0200 C   0  0  0  0  0  0  0  0  0  0  0  0
  132.2820  131.0790   59.8540 O   0  0  0  0  0  0  0  0  0  0  0  0
  129.3310  130.1950   60.6750 C   0  0  2  0  0  0  0  0  0  0  0  0
  129.4070  129.2830   61.9350 C   0  0  0  0  0  0  0  0  0  0  0  0
  128.2050  128.3460   62.2190 C   0  0  2  0  0  0  0  0  0  0  0  0
  128.5520  127.3680   63.3720 C   0  0  0  0  0  0  0  0  0  0  0  0
  128.4270  127.9450   64.7790 C   0  0  0  0  0  0  0  0  0  0  0  0
  128.7240  127.2030   65.8740 C   0  0  0  0  0  0  0  0  0  0  0  0
  128.6330  127.7130   67.3330 C   0  0  1  0  0  0  0  0  0  0  0  0
  129.8720  127.5870   68.0960 N   0  0  0  0  0  0  0  0  0  0  0  0
  129.9540  128.4140   69.2970 C   0  0  0  0  0  0  0  0  0  0  0  0
  129.7520  127.5450   70.5520 C   0  0  0  0  0  0  0  0  0  0  0  0
  130.8230  127.7620   71.6370 C   0  0  0  0  0  0  0  0  0  0  0  0
  130.4320  128.7720   72.5440 O   0  0  0  0  0  0  0  0  0  0  0  0
  128.0650  129.0710   67.3450 N   0  0  0  0  0  0  0  0  0  0  0  0
  127.7990  129.8180   66.2180 C   0  0  0  0  0  0  0  0  0  0  0  0
  127.9700  129.3130   64.9850 C   0  0  0  0  0  0  0  0  0  0  0  0
  127.6810  127.6200   60.9570 C   0  0  0  0  0  0  0  0  0  0  0  0
  128.7720  126.9560   60.0660 C   0  0  2  0  0  0  0  0  0  0  0  0
  129.2860  125.7560   60.7720 C   0  0  0  0  0  0  0  0  0  0  0  0
  129.7240  124.8270   61.4330 C   0  0  0  0  0  0  0  0  0  0  0  0
  130.2350  123.7610   62.3290 C   0  0  2  0  0  0  0  0  0  0  0  0
  130.7110  124.2110   63.7290 C   0  0  0  0  0  0  0  0  0  0  0  0
  130.0500  123.8590   64.9200 C   0  0  0  0  0  0  0  0  0  0  0  0
  130.5320  124.2930   66.1520 C   0  0  0  0  0  0  0  0  0  0  0  0
  131.6790  125.0780   66.2070 C   0  0  0  0  0  0  0  0  0  0  0  0
  132.3500  125.4320   65.0400 C   0  0  0  0  0  0  0  0  0  0  0  0
  131.8680  124.9990   63.8080 C   0  0  0  0  0  0  0  0  0  0  0  0
  131.1930  122.7850   61.6140 C   0  0  0  0  0  0  0  0  0  0  0  0
  130.7490  121.4710   61.4150 C   0  0  0  0  0  0  0  0  0  0  0  0
  131.5540  120.5180   60.7950 C   0  0  0  0  0  0  0  0  0  0  0  0
  131.0690  119.2450   60.6310 O   0  0  0  0  0  0  0  0  0  0  0  0
  132.8360  120.8540   60.3480 C   0  0  0  0  0  0  0  0  0  0  0  0
  133.5850  119.8620   59.7390 O   0  0  0  0  0  0  0  0  0  0  0  0
  133.1700  119.3460   58.4780 C   0  0  0  0  0  0  0  0  0  0  0  0
  133.2870  122.1690   60.5410 C   0  0  0  0  0  0  0  0  0  0  0  0
  132.4870  123.1350   61.1620 C   0  0  0  0  0  0  0  0  0  0  0  0
  133.0660  124.5420   61.2960 C   0  0  0  0  0  0  0  0  0  0  0  0
  132.1830  125.6000   60.5860 C   0  0  0  0  0  0  0  0  0  0  0  0
  132.2290  125.5620   59.0510 C   0  0  0  0  0  0  0  0  0  0  0  0
  132.4460  124.5260   58.4230 O   0  0  0  0  0  0  0  0  0  0  0  0
  132.0650  126.8940   58.3140 C   0  0  0  0  0  0  0  0  0  0  0  0
  130.6030  127.3540   58.2540 C   0  0  0  0  0  0  0  0  0  0  0  0
  129.9630  127.2550   57.2090 O   0  0  0  0  0  0  0  0  0  0  0  0
  129.9510  127.8730   59.5610 C   0  0  1  0  0  0  0  0  0  0  0  0
  129.6560  129.3920   59.3850 C   0  0  0  0  0  0  0  0  0  0  0  0
  128.2309  133.0643   61.5318 H   0  0  0  0  0  0  0  0  0  0  0  0
  127.4333  134.4630   60.7356 H   0  0  0  0  0  0  0  0  0  0  0  0
  126.6345  132.8541   60.7356 H   0  0  0  0  0  0  0  0  0  0  0  0
  127.7275  132.2367   58.8643 H   0  0  0  0  0  0  0  0  0  0  0  0
  128.3561  133.9560   58.7781 H   0  0  0  0  0  0  0  0  0  0  0  0
  130.0308  131.9774   58.6223 H   0  0  0  0  0  0  0  0  0  0  0  0
  130.3546  133.4371   59.7172 H   0  0  0  0  0  0  0  0  0  0  0  0
  129.5995  132.1010   61.6235 H   0  0  0  0  0  0  0  0  0  0  0  0
  131.9695  132.4285   61.3695 H   0  0  0  0  0  0  0  0  0  0  0  0
  131.7264  130.6789   61.7795 H   0  0  0  0  0  0  0  0  0  0  0  0
  132.7820  130.2820   60.0450 H   0  0  0  0  0  0  0  0  0  0  0  0
  128.2779  130.5100   60.6322 H   0  0  0  0  0  0  0  0  0  0  0  0
  130.2998  128.6493   61.8287 H   0  0  0  0  0  0  0  0  0  0  0  0
  129.4217  129.9821   62.7842 H   0  0  0  0  0  0  0  0  0  0  0  0
  127.3643  128.9765   62.5442 H   0  0  0  0  0  0  0  0  0  0  0  0
  127.8762  126.5032   63.2985 H   0  0  0  0  0  0  0  0  0  0  0  0
  129.6138  127.1113   63.2427 H   0  0  0  0  0  0  0  0  0  0  0  0
  129.0528  126.1655   65.7147 H   0  0  0  0  0  0  0  0  0  0  0  0
  127.9468  127.0457   67.8751 H   0  0  0  0  0  0  0  0  0  0  0  0
  130.6680  127.7490   67.4980 H   0  0  0  0  0  0  0  0  0  0  0  0
  130.9429  128.8936   69.3418 H   0  0  0  0  0  0  0  0  0  0  0  0
  129.1672  129.1819   69.2601 H   0  0  0  0  0  0  0  0  0  0  0  0
  128.7683  127.7821   70.9834 H   0  0  0  0  0  0  0  0  0  0  0  0
  129.8291  126.4957   70.2310 H   0  0  0  0  0  0  0  0  0  0  0  0
  130.9711  126.8218   72.1885 H   0  0  0  0  0  0  0  0  0  0  0  0
  131.7571  128.0750   71.1476 H   0  0  0  0  0  0  0  0  0  0  0  0
  130.4480  129.6170   72.0880 H   0  0  0  0  0  0  0  0  0  0  0  0
  127.8440  129.4200   68.2660 H   0  0  0  0  0  0  0  0  0  0  0  0
  127.4385  130.8511   66.3306 H   0  0  0  0  0  0  0  0  0  0  0  0
  127.7602  129.9469   64.1108 H   0  0  0  0  0  0  0  0  0  0  0  0
  126.9843  126.8336   61.2828 H   0  0  0  0  0  0  0  0  0  0  0  0
  127.2124  128.3960   60.3340 H   0  0  0  0  0  0  0  0  0  0  0  0
  128.2633  126.6982   59.1254 H   0  0  0  0  0  0  0  0  0  0  0  0
  129.3349  123.1797   62.5779 H   0  0  0  0  0  0  0  0  0  0  0  0
  129.1447  123.2356   64.8775 H   0  0  0  0  0  0  0  0  0  0  0  0
  130.0077  124.0161   67.0785 H   0  0  0  0  0  0  0  0  0  0  0  0
  132.0588  125.4217   67.1805 H   0  0  0  0  0  0  0  0  0  0  0  0
  133.2576  126.0515   65.0911 H   0  0  0  0  0  0  0  0  0  0  0  0
  132.4004  125.2780   62.8867 H   0  0  0  0  0  0  0  0  0  0  0  0
  129.7428  121.1857   61.7558 H   0  0  0  0  0  0  0  0  0  0  0  0
  131.7540  118.6060   60.4190 H   0  0  0  0  0  0  0  0  0  0  0  0
  132.4877  118.4977   58.6355 H   0  0  0  0  0  0  0  0  0  0  0  0
  132.6510  120.1338   57.9123 H   0  0  0  0  0  0  0  0  0  0  0  0
  134.0508  119.0080   57.9123 H   0  0  0  0  0  0  0  0  0  0  0  0
  134.2937  122.4472   60.1958 H   0  0  0  0  0  0  0  0  0  0  0  0
  133.1376  124.7970   62.3636 H   0  0  0  0  0  0  0  0  0  0  0  0
  134.0573  124.5497   60.8194 H   0  0  0  0  0  0  0  0  0  0  0  0
  131.1409  125.4404   60.8999 H   0  0  0  0  0  0  0  0  0  0  0  0
  132.5835  126.5812   60.8806 H   0  0  0  0  0  0  0  0  0  0  0  0
  132.6555  127.6614   58.8360 H   0  0  0  0  0  0  0  0  0  0  0  0
  132.4136  126.7502   57.2807 H   0  0  0  0  0  0  0  0  0  0  0  0
  130.6428  127.7941   60.4126 H   0  0  0  0  0  0  0  0  0  0  0  0
  130.5410  129.8516   58.9207 H   0  0  0  0  0  0  0  0  0  0  0  0
  128.7405  129.4396   58.7771 H   0  0  0  0  0  0  0  0  0  0  0  0
  1  2  1  0
  2  3  1  0
  3  4  1  0
  4  5  1  0
  5  6  1  0
  4  7  1  0
  7  8  1  0
  8  9  1  0
  9 10  1  0
 10 11  1  0
 11 12  2  0
 12 13  1  0
 13 14  1  0
 14 15  1  0
 15 16  1  0
 16 17  1  0
 17 18  1  0
 13 19  1  0
 19 20  1  0
 20 21  2  0
  9 22  1  0
 22 23  1  0
 23 24  1  0
 24 25  3  0
 25 26  1  0
 26 27  1  0
 27 28  2  0
 28 29  1  0
 29 30  2  0
 30 31  1  0
 31 32  2  0
 26 33  1  0
 33 34  2  0
 34 35  1  0
 35 36  1  0
 35 37  2  0
 37 38  1  0
 38 39  1  0
 37 40  1  0
 40 41  2  0
 41 42  1  0
 42 43  1  0
 43 44  1  0
 44 45  2  0
 44 46  1  0
 46 47  1  0
 47 48  2  0
 47 49  1  0
 49 50  1  0
 50  7  1  0
 21 11  1  0
 49 23  1  0
 32 27  1  0
 41 33  1  0
  1 51  1  0
  1 52  1  0
  1 53  1  0
  2 54  1  0
  2 55  1  0
  3 56  1  0
  3 57  1  0
  4 58  1  1
  5 59  1  0
  5 60  1  0
  6 61  1  0
  7 62  1  6
  8 63  1  0
  8 64  1  0
  9 65  1  1
 10 66  1  0
 10 67  1  0
 12 68  1  0
 13 69  1  1
 14 70  1  0
 15 71  1  0
 15 72  1  0
 16 73  1  0
 16 74  1  0
 17 75  1  0
 17 76  1  0
 18 77  1  0
 19 78  1  0
 20 79  1  0
 21 80  1  0
 22 81  1  0
 22 82  1  0
 23 83  1  6
 26 84  1  1
 28 85  1  0
 29 86  1  0
 30 87  1  0
 31 88  1  0
 32 89  1  0
 34 90  1  0
 36 91  1  0
 39 92  1  0
 39 93  1  0
 39 94  1  0
 40 95  1  0
 42 96  1  0
 42 97  1  0
 43 98  1  0
 43 99  1  0
 46100  1  0
 46101  1  0
 49102  1  1
 50103  1  0
 50104  1  0
M  END
>  <Binding energies>  (1) 
[-3.99]

>  <Ligand effiencies>  (1) 
[-0.0676271186440678]

>  <Interactions>  (1) 
["V-A:ILE:369:CG2:3237, V-A:GLU:543:CA:4904, H-A:GLU:543:OE2:4910, V-A:GLU:543:C:4902, V-B:GLU:543:CB:9878, H-A:TYR:531:OH:4795, V-A:TYR:484:CE2:4346, V-B:TYR:539:CE2:9848, V-B:GLU:543:CG:9879, V-A:GLY:544:C:4912, V-A:ASP:366:CG:3213, V-A:HIS:456:CD2:4068, V-A:TYR:539:CD1:4873, V-B:TYR:484:CE2:9317, H-B:TYR:539:OH:9850, V-A:GLU:543:CD:4908, V-A:TYR:484:CZ:4347, H-B:TYR:484:OH:9319, V-B:HIS:456:CE1:9041, H-A:GLY:544:O:4913, V-A:HIS:456:CE1:4070, V-B:TYR:484:CZ:9318, H-B:HIS:456:NE2:9042, V-B:TYR:539:CD2:9846, V-A:GLU:543:CG:4907, H-A:SER:385:OG:3410, V-B:GLU:543:CD:9880, V-A:TYR:539:C:4867, V-A:ASP:366:CB:3212, H-A:LYS:547:NZ:4951, V-A:LEU:475:CD2:4259, V-A:ARG:545:CZ:4926, V-B:TYR:539:CG:9844, V-A:GLU:543:CB:4906, H-A:HIS:383:HE2:3395, V-A:HIS:383:CD2:3392, V-A:PRO:540:N:4884, V-A:PRO:540:CB:4885, V-A:PRO:540:CA:4883, H-A:ASP:366:OD2:3215, V-A:TYR:539:CE1:4875, H-A:GLU:543:O:4903"]

$$$$
ZINC2360913215
     RDKit          3D

 32 32  0  0  0  0  0  0  0  0999 V2000
  131.5440  125.8280   67.1600 O   0  0  0  0  0  0  0  0  0  0  0  0
  130.1300  125.4710   67.0000 S   0  0  0  0  0  0  0  0  0  0  0  0
  129.7430  124.0610   66.8880 O   0  0  0  0  0  0  0  0  0  0  0  0
  129.1650  126.2310   68.4370 C   0  0  0  0  0  0  0  0  0  0  0  0
  129.4900  127.7240   68.5520 C   0  0  0  0  0  0  0  0  0  0  0  0
  130.2720  128.0930   70.3450 Br  0  0  0  0  0  0  0  0  0  0  0  0
  129.4640  126.3820   65.4860 C   0  0  0  0  0  0  0  0  0  0  0  0
  130.1600  125.8610   64.2230 C   0  0  0  0  0  0  0  0  0  0  0  0
  131.6240  125.9260   64.3660 N   0  0  0  0  0  0  0  0  0  0  0  0
  132.5950  124.5480   63.8570 S   0  0  0  0  0  0  0  0  0  0  0  0
  133.9710  124.7720   64.3150 O   0  0  0  0  0  0  0  0  0  0  0  0
  131.8710  123.3300   64.2430 O   0  0  0  0  0  0  0  0  0  0  0  0
  132.6200  124.6290   62.0600 C   0  0  0  0  0  0  0  0  0  0  0  0
  132.0620  125.7470   61.4250 C   0  0  0  0  0  0  0  0  0  0  0  0
  132.0730  125.8500   60.0350 C   0  0  0  0  0  0  0  0  0  0  0  0
  131.3160  127.3760   59.1880 Br  0  0  0  0  0  0  0  0  0  0  0  0
  132.6410  124.8360   59.2660 C   0  0  0  0  0  0  0  0  0  0  0  0
  133.1990  123.7210   59.8880 C   0  0  0  0  0  0  0  0  0  0  0  0
  133.1940  123.6090   61.2810 C   0  0  0  0  0  0  0  0  0  0  0  0
  133.9870  122.0550   62.0520 Br  0  0  0  0  0  0  0  0  0  0  0  0
  128.0868  126.1051   68.2593 H   0  0  0  0  0  0  0  0  0  0  0  0
  129.4494  125.7255   69.3717 H   0  0  0  0  0  0  0  0  0  0  0  0
  130.2130  128.0036   67.7715 H   0  0  0  0  0  0  0  0  0  0  0  0
  128.5690  128.3118   68.4243 H   0  0  0  0  0  0  0  0  0  0  0  0
  128.3805  126.2111   65.4035 H   0  0  0  0  0  0  0  0  0  0  0  0
  129.6605  127.4590   65.5928 H   0  0  0  0  0  0  0  0  0  0  0  0
  129.8608  124.8165   64.0516 H   0  0  0  0  0  0  0  0  0  0  0  0
  129.8614  126.4904   63.3717 H   0  0  0  0  0  0  0  0  0  0  0  0
  132.0530  126.8500   64.2690 H   0  0  0  0  0  0  0  0  0  0  0  0
  131.6120  126.5493   62.0282 H   0  0  0  0  0  0  0  0  0  0  0  0
  132.6488  124.9158   58.1689 H   0  0  0  0  0  0  0  0  0  0  0  0
  133.6469  122.9228   59.2779 H   0  0  0  0  0  0  0  0  0  0  0  0
  1  2  2  0
  2  3  2  0
  2  4  1  0
  4  5  1  0
  5  6  1  0
  2  7  1  0
  7  8  1  0
  8  9  1  0
  9 10  1  0
 10 11  2  0
 10 12  2  0
 10 13  1  0
 13 14  2  0
 14 15  1  0
 15 16  1  0
 15 17  2  0
 17 18  1  0
 18 19  2  0
 19 20  1  0
 19 13  1  0
  4 21  1  0
  4 22  1  0
  5 23  1  0
  5 24  1  0
  7 25  1  0
  7 26  1  0
  8 27  1  0
  8 28  1  0
  9 29  1  0
 14 30  1  0
 17 31  1  0
 18 32  1  0
M  END
>  <Binding energies>  (1) 
[-7.06]

>  <Ligand effiencies>  (1) 
[-0.33619047619047615]

>  <Interactions>  (1) 
["V-A:ILE:369:CG2:3237, V-A:GLY:454:CA:4049, V-B:GLU:543:C:9874, H-A:GLU:543:OE2:4910, V-A:GLU:543:C:4902, V-B:GLU:543:CB:9878, H-A:ARG:545:NH1:4927, V-B:TYR:539:CE2:9848, V-B:GLU:543:CG:9879, V-A:ASP:366:CG:3213, V-A:GLU:543:CD:4908, V-B:GLU:543:CA:9876, H-A:GLY:454:N:4050, V-A:HIS:456:CE1:4070, V-A:ILE:369:CD1:3239, V-B:GLU:543:CD:9880, V-A:ASP:366:CB:3212, V-A:LEU:475:CD2:4259, H-A:ARG:545:NH2:4928, H-A:GLU:543:OE1:4909, V-A:GLU:543:CB:4906, H-A:ARG:545:NE:4924, H-A:TYR:484:OH:4348"]

$$$$
ZINC2361257707
     RDKit          3D

 36 38  0  0  0  0  0  0  0  0999 V2000
  133.5590  123.5830   60.0660 C   0  0  0  0  0  0  0  0  0  0  0  0
  133.4610  123.3440   61.5900 C   0  0  0  0  0  0  0  0  0  0  0  0
  134.0340  121.9420   61.9220 C   0  0  0  0  0  0  0  0  0  0  0  0
  134.2010  124.4360   62.3800 C   0  0  0  0  0  0  0  0  0  0  0  0
  133.5770  124.4540   63.6630 O   0  0  0  0  0  0  0  0  0  0  0  0
  132.2640  123.8960   63.6040 C   0  0  0  0  0  0  0  0  0  0  0  0
  132.0420  123.5690   62.1220 C   0  0  2  0  0  0  0  0  0  0  0  0
  131.0100  122.4480   61.8300 C   0  0  0  0  0  0  0  0  0  0  0  0
  129.6110  122.8700   62.0090 N   0  0  0  0  0  0  0  0  0  0  0  0
  128.9330  122.9020   63.2060 C   0  0  0  0  0  0  0  0  0  0  0  0
  129.4230  122.5540   64.7590 S   0  0  0  0  0  0  0  0  0  0  0  0
  127.6940  123.3000   62.8150 N   0  0  0  0  0  0  0  0  0  0  0  0
  127.5630  123.5170   61.4700 C   0  0  0  0  0  0  0  0  0  0  0  0
  126.4930  123.9210   60.6770 C   0  0  0  0  0  0  0  0  0  0  0  0
  126.7030  124.0570   59.2990 C   0  0  0  0  0  0  0  0  0  0  0  0
  125.3820  124.5580   58.3020 Cl  0  0  0  0  0  0  0  0  0  0  0  0
  127.9710  123.7910   58.7470 C   0  0  0  0  0  0  0  0  0  0  0  0
  128.2910  123.9720   56.8760 Br  0  0  0  0  0  0  0  0  0  0  0  0
  129.0270  123.3850   59.5720 C   0  0  0  0  0  0  0  0  0  0  0  0
  128.7990  123.2470   60.9420 C   0  0  0  0  0  0  0  0  0  0  0  0
  133.9702  124.5858   59.8778 H   0  0  0  0  0  0  0  0  0  0  0  0
  134.2193  122.8259   59.6178 H   0  0  0  0  0  0  0  0  0  0  0  0
  132.5573  123.5074   59.6178 H   0  0  0  0  0  0  0  0  0  0  0  0
  134.0855  121.8160   63.0135 H   0  0  0  0  0  0  0  0  0  0  0  0
  133.3801  121.1679   61.4940 H   0  0  0  0  0  0  0  0  0  0  0  0
  135.0429  121.8475   61.4940 H   0  0  0  0  0  0  0  0  0  0  0  0
  135.2688  124.1887   62.4733 H   0  0  0  0  0  0  0  0  0  0  0  0
  134.1457  125.4148   61.8810 H   0  0  0  0  0  0  0  0  0  0  0  0
  132.2032  122.9835   64.2153 H   0  0  0  0  0  0  0  0  0  0  0  0
  131.5021  124.5864   63.9950 H   0  0  0  0  0  0  0  0  0  0  0  0
  131.5369  124.3859   61.5858 H   0  0  0  0  0  0  0  0  0  0  0  0
  131.1423  122.1167   60.7895 H   0  0  0  0  0  0  0  0  0  0  0  0
  131.1977  121.6418   62.5544 H   0  0  0  0  0  0  0  0  0  0  0  0
  126.9600  123.4110   63.4990 H   0  0  0  0  0  0  0  0  0  0  0  0
  125.5081  124.1281   61.1209 H   0  0  0  0  0  0  0  0  0  0  0  0
  130.0203  123.1781   59.1472 H   0  0  0  0  0  0  0  0  0  0  0  0
  1  2  1  0
  2  3  1  0
  2  4  1  0
  4  5  1  0
  5  6  1  0
  6  7  1  0
  7  8  1  0
  8  9  1  0
  9 10  1  0
 10 11  2  0
 10 12  1  0
 12 13  1  0
 13 14  2  0
 14 15  1  0
 15 16  1  0
 15 17  2  0
 17 18  1  0
 17 19  1  0
 19 20  2  0
  7  2  1  0
 20  9  1  0
 20 13  1  0
  1 21  1  0
  1 22  1  0
  1 23  1  0
  3 24  1  0
  3 25  1  0
  3 26  1  0
  4 27  1  0
  4 28  1  0
  6 29  1  0
  6 30  1  0
  7 31  1  6
  8 32  1  0
  8 33  1  0
 12 34  1  0
 14 35  1  0
 19 36  1  0
M  END
>  <Binding energies>  (1) 
[-7.14]

>  <Ligand effiencies>  (1) 
[-0.33999999999999997]

>  <Interactions>  (1) 
["V-A:ILE:369:CG2:3237, V-B:PRO:540:CA:9855, V-A:GLY:454:CA:4049, V-A:ILE:369:CB:3236, V-B:ALA:541:CB:9864, V-B:TYR:539:CE2:9848, V-A:TYR:484:CE2:4346, H-B:ALA:541:O:9861, V-B:GLU:543:CG:9879, V-B:TYR:539:CZ:9849, H-B:GLU:543:OE1:9881, V-B:PRO:540:CB:9857, H-A:GLY:454:N:4050, V-A:ILE:369:CD1:3239, V-B:TYR:539:CD2:9846, V-B:GLU:543:CD:9880, V-A:LEU:475:CD2:4259, H-A:ARG:545:NH2:4928, V-B:TYR:539:CE1:9847"]

$$$$
ZINC2362084786
     RDKit          3D

 71 72  0  0  0  0  0  0  0  0999 V2000
  126.1290  123.6580   60.4120 C   0  0  0  0  0  0  0  0  0  0  0  0
  127.6450  123.6640   60.0950 C   0  0  0  0  0  0  0  0  0  0  0  0
  128.1640  125.1080   59.8840 C   0  0  0  0  0  0  0  0  0  0  0  0
  127.8900  122.8490   58.8080 C   0  0  0  0  0  0  0  0  0  0  0  0
  128.4020  122.9860   61.1180 O   0  0  0  0  0  0  0  0  0  0  0  0
  128.2600  123.1890   62.4680 C   0  0  0  0  0  0  0  0  0  0  0  0
  127.2780  122.8460   63.1250 O   0  0  0  0  0  0  0  0  0  0  0  0
  129.3660  123.8260   63.0270 N   0  0  0  0  0  0  0  0  0  0  0  0
  130.5380  124.3690   62.3090 C   0  0  1  0  0  0  0  0  0  0  0  0
  131.0980  125.6200   63.0480 C   0  0  0  0  0  0  0  0  0  0  0  0
  130.3820  125.8930   64.3110 N   0  0  0  0  0  0  0  0  0  0  0  0
  130.8270  124.9840   65.7520 S   0  0  0  0  0  0  0  0  0  0  0  0
  130.6540  123.5620   65.4390 O   0  0  0  0  0  0  0  0  0  0  0  0
  132.1220  125.4900   66.2200 O   0  0  0  0  0  0  0  0  0  0  0  0
  129.5110  125.4740   67.0170 C   0  0  0  0  0  0  0  0  0  0  0  0
  128.9910  126.8860   66.8480 C   0  0  0  0  0  0  0  0  0  0  0  0
  128.7480  127.2690   65.6060 N   0  0  0  0  0  0  0  0  0  0  0  0
  128.3090  128.4990   65.5490 C   0  0  0  0  0  0  0  0  0  0  0  0
  128.1620  129.3030   67.0720 S   0  0  0  0  0  0  0  0  0  0  0  0
  128.7410  127.8470   67.8330 C   0  0  0  0  0  0  0  0  0  0  0  0
  128.8970  127.7410   69.3960 B   0  0  0  0  0  0  0  0  0  0  0  0
  128.5500  126.6330   70.1350 O   0  0  0  0  0  0  0  0  0  0  0  0
  128.6140  127.0030   71.5050 C   0  0  0  0  0  0  0  0  0  0  0  0
  127.1770  127.4400   71.9000 C   0  0  0  0  0  0  0  0  0  0  0  0
  129.0390  125.7530   72.3080 C   0  0  0  0  0  0  0  0  0  0  0  0
  129.6780  128.1560   71.4640 C   0  0  0  0  0  0  0  0  0  0  0  0
  129.4900  129.2500   72.5390 C   0  0  0  0  0  0  0  0  0  0  0  0
  131.1600  127.6950   71.4160 C   0  0  0  0  0  0  0  0  0  0  0  0
  129.4060  128.7370   70.1970 O   0  0  0  0  0  0  0  0  0  0  0  0
  131.6150  123.2540   62.0400 C   0  0  0  0  0  0  0  0  0  0  0  0
  132.6910  123.2450   63.1560 C   0  0  0  0  0  0  0  0  0  0  0  0
  130.9640  121.8500   61.9590 C   0  0  0  0  0  0  0  0  0  0  0  0
  132.3530  123.5250   60.7010 C   0  0  0  0  0  0  0  0  0  0  0  0
  125.9824  123.6574   61.5022 H   0  0  0  0  0  0  0  0  0  0  0  0
  125.6604  124.5543   59.9795 H   0  0  0  0  0  0  0  0  0  0  0  0
  125.6675  122.7580   59.9795 H   0  0  0  0  0  0  0  0  0  0  0  0
  128.3346  125.5828   60.8615 H   0  0  0  0  0  0  0  0  0  0  0  0
  129.1082  125.0796   59.3203 H   0  0  0  0  0  0  0  0  0  0  0  0
  127.4178  125.6871   59.3203 H   0  0  0  0  0  0  0  0  0  0  0  0
  128.1973  121.8269   59.0742 H   0  0  0  0  0  0  0  0  0  0  0  0
  126.9636  122.8110   58.2161 H   0  0  0  0  0  0  0  0  0  0  0  0
  128.6838  123.3281   58.2161 H   0  0  0  0  0  0  0  0  0  0  0  0
  129.3330  124.0040   64.0190 H   0  0  0  0  0  0  0  0  0  0  0  0
  130.2213  124.7129   61.3133 H   0  0  0  0  0  0  0  0  0  0  0  0
  132.1612  125.4509   63.2737 H   0  0  0  0  0  0  0  0  0  0  0  0
  130.9603  126.4897   62.3887 H   0  0  0  0  0  0  0  0  0  0  0  0
  130.1740  126.8820   64.4740 H   0  0  0  0  0  0  0  0  0  0  0  0
  128.6635  124.7793   66.9214 H   0  0  0  0  0  0  0  0  0  0  0  0
  129.9875  125.4263   68.0073 H   0  0  0  0  0  0  0  0  0  0  0  0
  128.0511  128.9882   64.5981 H   0  0  0  0  0  0  0  0  0  0  0  0
  127.0901  127.4664   72.9962 H   0  0  0  0  0  0  0  0  0  0  0  0
  126.9729  128.4408   71.4918 H   0  0  0  0  0  0  0  0  0  0  0  0
  126.4502  126.7223   71.4918 H   0  0  0  0  0  0  0  0  0  0  0  0
  128.9664  125.9666   73.3846 H   0  0  0  0  0  0  0  0  0  0  0  0
  128.3762  124.9122   72.0555 H   0  0  0  0  0  0  0  0  0  0  0  0
  130.0769  125.4904   72.0555 H   0  0  0  0  0  0  0  0  0  0  0  0
  129.5676  128.7985   73.5391 H   0  0  0  0  0  0  0  0  0  0  0  0
  130.2695  130.0172   72.4216 H   0  0  0  0  0  0  0  0  0  0  0  0
  128.4991  129.7130   72.4216 H   0  0  0  0  0  0  0  0  0  0  0  0
  131.5406  127.5766   72.4413 H   0  0  0  0  0  0  0  0  0  0  0  0
  131.2279  126.7333   70.8864 H   0  0  0  0  0  0  0  0  0  0  0  0
  131.7614  128.4485   70.8864 H   0  0  0  0  0  0  0  0  0  0  0  0
  132.1989  123.2491   64.1398 H   0  0  0  0  0  0  0  0  0  0  0  0
  133.3113  122.3416   63.0600 H   0  0  0  0  0  0  0  0  0  0  0  0
  133.3263  124.1379   63.0600 H   0  0  0  0  0  0  0  0  0  0  0  0
  130.7872  121.4686   62.9755 H   0  0  0  0  0  0  0  0  0  0  0  0
  130.0066  121.9202   61.4220 H   0  0  0  0  0  0  0  0  0  0  0  0
  131.6362  121.1646   61.4220 H   0  0  0  0  0  0  0  0  0  0  0  0
  133.3668  123.8973   60.9099 H   0  0  0  0  0  0  0  0  0  0  0  0
  132.4171  122.5918   60.1223 H   0  0  0  0  0  0  0  0  0  0  0  0
  131.7979  124.2780   60.1223 H   0  0  0  0  0  0  0  0  0  0  0  0
  1  2  1  0
  2  3  1  0
  2  4  1  0
  2  5  1  0
  5  6  1  0
  6  7  2  0
  6  8  1  0
  8  9  1  0
  9 10  1  0
 10 11  1  0
 11 12  1  0
 12 13  2  0
 12 14  2  0
 12 15  1  0
 15 16  1  0
 16 17  1  0
 17 18  2  0
 18 19  1  0
 19 20  1  0
 20 21  1  0
 21 22  1  0
 22 23  1  0
 23 24  1  0
 23 25  1  0
 23 26  1  0
 26 27  1  0
 26 28  1  0
 26 29  1  0
  9 30  1  0
 30 31  1  0
 30 32  1  0
 30 33  1  0
 20 16  2  0
 29 21  1  0
  1 34  1  0
  1 35  1  0
  1 36  1  0
  3 37  1  0
  3 38  1  0
  3 39  1  0
  4 40  1  0
  4 41  1  0
  4 42  1  0
  8 43  1  0
  9 44  1  6
 10 45  1  0
 10 46  1  0
 11 47  1  0
 15 48  1  0
 15 49  1  0
 18 50  1  0
 24 51  1  0
 24 52  1  0
 24 53  1  0
 25 54  1  0
 25 55  1  0
 25 56  1  0
 27 57  1  0
 27 58  1  0
 27 59  1  0
 28 60  1  0
 28 61  1  0
 28 62  1  0
 31 63  1  0
 31 64  1  0
 31 65  1  0
 32 66  1  0
 32 67  1  0
 32 68  1  0
 33 69  1  0
 33 70  1  0
 33 71  1  0
M  END
>  <Binding energies>  (1) 
[-6.89]

>  <Ligand effiencies>  (1) 
[-0.19685714285714284]

>  <Interactions>  (1) 
["V-B:PRO:540:CA:9855, V-B:HIS:456:CD2:9039, H-A:GLU:543:OE2:4910, V-B:GLU:543:CB:9878, V-B:ALA:541:CB:9864, V-B:TYR:539:CE2:9848, V-B:GLU:543:CG:9879, V-A:GLY:544:C:4912, V-B:TYR:539:C:9839, V-A:HIS:456:CD2:4068, H-B:GLU:543:OE1:9881, H-B:ALA:541:N:9863, V-A:TYR:484:CZ:4347, V-B:PRO:540:CB:9857, V-A:GLU:543:CD:4908, V-B:GLU:543:CA:9876, V-B:HIS:456:CE1:9041, V-B:PRO:540:N:9856, V-A:HIS:456:CE1:4070, V-B:TYR:484:CZ:9318, V-B:GLY:544:C:9884, V-B:TYR:539:CD2:9846, V-A:GLU:543:CG:4907, V-B:GLU:543:CD:9880, V-B:HIS:456:CG:9037, V-A:LEU:475:CD2:4259, H-A:GLU:543:OE1:4909, V-A:GLU:543:CB:4906, H-A:ARG:545:NE:4924, H-A:TYR:484:OH:4348"]

$$$$
ZINC2362803154
     RDKit          3D

 61 63  0  0  0  0  0  0  0  0999 V2000
  127.9860  129.7170   67.5870 C   0  0  0  0  0  0  0  0  0  0  0  0
  128.5310  128.4580   66.9230 C   0  0  0  0  0  0  0  0  0  0  0  0
  128.5040  128.4340   65.5310 C   0  0  0  0  0  0  0  0  0  0  0  0
  128.9670  127.3380   64.8160 C   0  0  0  0  0  0  0  0  0  0  0  0
  128.9610  127.4150   63.2930 C   0  0  0  0  0  0  0  0  0  0  0  0
  129.4520  126.2160   65.5010 C   0  0  0  0  0  0  0  0  0  0  0  0
  130.0160  124.9840   64.6600 B   0  0  0  0  0  0  0  0  0  0  0  0
  131.3510  124.6870   64.5140 O   0  0  0  0  0  0  0  0  0  0  0  0
  131.4570  123.6970   63.5030 C   0  0  0  0  0  0  0  0  0  0  0  0
  131.7110  124.4650   62.1760 C   0  0  0  0  0  0  0  0  0  0  0  0
  132.6710  122.8060   63.8510 C   0  0  0  0  0  0  0  0  0  0  0  0
  130.0610  122.9890   63.6130 C   0  0  0  0  0  0  0  0  0  0  0  0
  129.5070  122.4260   62.2840 C   0  0  0  0  0  0  0  0  0  0  0  0
  129.9390  121.9310   64.7440 C   0  0  0  0  0  0  0  0  0  0  0  0
  129.2270  124.0720   63.9970 O   0  0  0  0  0  0  0  0  0  0  0  0
  129.4480  126.2070   66.9150 C   0  0  0  0  0  0  0  0  0  0  0  0
  129.8610  124.9260   67.6450 C   0  0  0  0  0  0  0  0  0  0  0  0
  129.0260  127.3490   67.6490 C   0  0  0  0  0  0  0  0  0  0  0  0
  129.1280  127.4100   69.2640 B   0  0  0  0  0  0  0  0  0  0  0  0
  129.5460  128.4970   70.0080 O   0  0  0  0  0  0  0  0  0  0  0  0
  129.7410  128.0760   71.3490 C   0  0  0  0  0  0  0  0  0  0  0  0
  131.2350  127.6700   71.4650 C   0  0  0  0  0  0  0  0  0  0  0  0
  129.4370  129.2820   72.2660 C   0  0  0  0  0  0  0  0  0  0  0  0
  128.7130  126.9010   71.4400 C   0  0  0  0  0  0  0  0  0  0  0  0
  129.1040  125.7660   72.4100 C   0  0  0  0  0  0  0  0  0  0  0  0
  127.2360  127.3220   71.6650 C   0  0  0  0  0  0  0  0  0  0  0  0
  128.7820  126.3830   70.1210 O   0  0  0  0  0  0  0  0  0  0  0  0
  128.0344  129.6052   68.6802 H   0  0  0  0  0  0  0  0  0  0  0  0
  128.5894  130.5840   67.2800 H   0  0  0  0  0  0  0  0  0  0  0  0
  126.9409  129.8704   67.2800 H   0  0  0  0  0  0  0  0  0  0  0  0
  128.1069  129.3030   64.9858 H   0  0  0  0  0  0  0  0  0  0  0  0
  128.8791  128.4661   62.9793 H   0  0  0  0  0  0  0  0  0  0  0  0
  129.8952  126.9870   62.9005 H   0  0  0  0  0  0  0  0  0  0  0  0
  128.1044  126.8474   62.9005 H   0  0  0  0  0  0  0  0  0  0  0  0
  132.0490  125.4869   62.4027 H   0  0  0  0  0  0  0  0  0  0  0  0
  132.4846  123.9438   61.5930 H   0  0  0  0  0  0  0  0  0  0  0  0
  130.7792  124.5078   61.5930 H   0  0  0  0  0  0  0  0  0  0  0  0
  132.7708  122.7328   64.9440 H   0  0  0  0  0  0  0  0  0  0  0  0
  132.5217  121.8015   63.4283 H   0  0  0  0  0  0  0  0  0  0  0  0
  133.5845  123.2496   63.4283 H   0  0  0  0  0  0  0  0  0  0  0  0
  128.7503  121.6570   62.4987 H   0  0  0  0  0  0  0  0  0  0  0  0
  129.0481  123.2401   61.7039 H   0  0  0  0  0  0  0  0  0  0  0  0
  130.3284  121.9803   61.7039 H   0  0  0  0  0  0  0  0  0  0  0  0
  129.9967  122.4313   65.7219 H   0  0  0  0  0  0  0  0  0  0  0  0
  128.9747  121.4091   64.6555 H   0  0  0  0  0  0  0  0  0  0  0  0
  130.7592  121.2034   64.6555 H   0  0  0  0  0  0  0  0  0  0  0  0
  129.8082  125.0898   68.7314 H   0  0  0  0  0  0  0  0  0  0  0  0
  129.1809  124.1083   67.3640 H   0  0  0  0  0  0  0  0  0  0  0  0
  130.8906  124.6595   67.3640 H   0  0  0  0  0  0  0  0  0  0  0  0
  131.5131  127.5944   72.5266 H   0  0  0  0  0  0  0  0  0  0  0  0
  131.3897  126.6972   70.9753 H   0  0  0  0  0  0  0  0  0  0  0  0
  131.8608  128.4307   70.9753 H   0  0  0  0  0  0  0  0  0  0  0  0
  129.5153  128.9714   73.3183 H   0  0  0  0  0  0  0  0  0  0  0  0
  130.1605  130.0861   72.0662 H   0  0  0  0  0  0  0  0  0  0  0  0
  128.4187  129.6470   72.0662 H   0  0  0  0  0  0  0  0  0  0  0  0
  128.9846  126.1126   73.4471 H   0  0  0  0  0  0  0  0  0  0  0  0
  128.4539  124.8957   72.2371 H   0  0  0  0  0  0  0  0  0  0  0  0
  130.1522  125.4808   72.2371 H   0  0  0  0  0  0  0  0  0  0  0  0
  127.0317  127.3802   72.7443 H   0  0  0  0  0  0  0  0  0  0  0  0
  127.0610  128.3058   71.2051 H   0  0  0  0  0  0  0  0  0  0  0  0
  126.5686  126.5783   71.2051 H   0  0  0  0  0  0  0  0  0  0  0  0
  1  2  1  0
  2  3  2  0
  3  4  1  0
  4  5  1  0
  4  6  2  0
  6  7  1  0
  7  8  1  0
  8  9  1  0
  9 10  1  0
  9 11  1  0
  9 12  1  0
 12 13  1  0
 12 14  1  0
 12 15  1  0
  6 16  1  0
 16 17  1  0
 16 18  2  0
 18 19  1  0
 19 20  1  0
 20 21  1  0
 21 22  1  0
 21 23  1  0
 21 24  1  0
 24 25  1  0
 24 26  1  0
 24 27  1  0
 18  2  1  0
 27 19  1  0
 15  7  1  0
  1 28  1  0
  1 29  1  0
  1 30  1  0
  3 31  1  0
  5 32  1  0
  5 33  1  0
  5 34  1  0
 10 35  1  0
 10 36  1  0
 10 37  1  0
 11 38  1  0
 11 39  1  0
 11 40  1  0
 13 41  1  0
 13 42  1  0
 13 43  1  0
 14 44  1  0
 14 45  1  0
 14 46  1  0
 17 47  1  0
 17 48  1  0
 17 49  1  0
 22 50  1  0
 22 51  1  0
 22 52  1  0
 23 53  1  0
 23 54  1  0
 23 55  1  0
 25 56  1  0
 25 57  1  0
 25 58  1  0
 26 59  1  0
 26 60  1  0
 26 61  1  0
M  END
>  <Binding energies>  (1) 
[-6.48]

>  <Ligand effiencies>  (1) 
[-0.24000000000000002]

>  <Interactions>  (1) 
["V-A:GLY:454:CA:4049, V-B:HIS:456:CD2:9039, V-A:GLU:543:C:4902, V-B:GLU:543:CB:9878, V-B:ALA:541:CB:9864, V-A:TYR:484:CE2:4346, V-B:GLU:543:CG:9879, V-A:GLY:544:C:4912, V-A:HIS:456:CD2:4068, V-B:TYR:484:CE2:9317, V-A:LEU:475:CD1:4258, V-A:GLU:543:CD:4908, V-A:TYR:484:CZ:4347, V-B:HIS:456:CE1:9041, V-B:GLU:543:CA:9876, V-B:TYR:484:CZ:9318, V-A:HIS:456:CE1:4070, V-B:GLY:544:C:9884, V-A:GLU:543:CG:4907, V-B:GLU:543:CD:9880, V-B:HIS:456:CG:9037, V-A:LEU:475:CD2:4259, V-A:GLU:543:CB:4906, H-A:TYR:484:OH:4348"]

$$$$
ZINC2364461568
     RDKit          3D

 64 66  0  0  0  0  0  0  0  0999 V2000
  126.7810  127.3360   61.5790 C   0  0  0  0  0  0  0  0  0  0  0  0
  128.1140  126.7120   61.1350 C   0  0  0  0  0  0  0  0  0  0  0  0
  128.7410  125.7310   62.1650 C   0  0  1  0  0  0  0  0  0  0  0  0
  127.9900  124.4590   62.2450 N   0  0  0  0  0  0  0  0  0  0  0  0
  127.8650  123.4980   61.2430 C   0  0  0  0  0  0  0  0  0  0  0  0
  127.2210  122.4580   61.3760 O   0  0  0  0  0  0  0  0  0  0  0  0
  128.5480  123.8500   60.1130 O   0  0  0  0  0  0  0  0  0  0  0  0
  127.9930  123.9340   58.7880 C   0  0  0  0  0  0  0  0  0  0  0  0
  126.5620  124.5250   58.8180 C   0  0  0  0  0  0  0  0  0  0  0  0
  128.9100  124.7440   57.8390 C   0  0  0  0  0  0  0  0  0  0  0  0
  127.9320  122.4690   58.3110 C   0  0  0  0  0  0  0  0  0  0  0  0
  130.2570  125.5140   61.9710 C   0  0  0  0  0  0  0  0  0  0  0  0
  130.4550  125.6120   63.5010 C   0  0  2  0  0  0  0  0  0  0  0  0
  131.5750  126.3770   63.9060 O   0  0  0  0  0  0  0  0  0  0  0  0
  130.6000  124.2960   64.3000 C   0  0  0  0  0  0  0  0  0  0  0  0
  130.1410  124.1970   65.4400 O   0  0  0  0  0  0  0  0  0  0  0  0
  131.2970  123.1090   63.6020 C   0  0  0  0  0  0  0  0  0  0  0  0
  132.1070  123.4400   62.3170 C   0  0  2  0  0  0  0  0  0  0  0  0
  131.5590  122.7380   61.0300 C   0  0  0  0  0  0  0  0  0  0  0  0
  132.6860  122.1070   60.1800 C   0  0  1  0  0  0  0  0  0  0  0  0
  133.5880  123.1870   59.4730 C   0  0  0  0  0  0  0  0  0  0  0  0
  133.8310  124.5560   60.2000 C   0  0  0  0  0  0  0  0  0  0  0  0
  134.2890  124.4920   61.7080 C   0  0  0  0  0  0  0  0  0  0  0  0
  133.6680  123.2850   62.5200 C   0  0  2  0  0  0  0  0  0  0  0  0
  133.9020  121.7250   62.4590 C   0  0  0  0  0  0  0  0  0  0  0  0
  133.4740  121.0950   61.0780 C   0  0  0  0  0  0  0  0  0  0  0  0
  129.1060  126.3720   63.5270 C   0  0  0  0  0  0  0  0  0  0  0  0
  126.7343  127.3578   62.6778 H   0  0  0  0  0  0  0  0  0  0  0  0
  126.7082  128.3618   61.1884 H   0  0  0  0  0  0  0  0  0  0  0  0
  125.9467  126.7349   61.1884 H   0  0  0  0  0  0  0  0  0  0  0  0
  127.9408  126.1622   60.1981 H   0  0  0  0  0  0  0  0  0  0  0  0
  128.8258  127.5428   61.0207 H   0  0  0  0  0  0  0  0  0  0  0  0
  127.5320  124.2640   63.1230 H   0  0  0  0  0  0  0  0  0  0  0  0
  126.2417  124.6573   59.8620 H   0  0  0  0  0  0  0  0  0  0  0  0
  126.5567  125.4989   58.3067 H   0  0  0  0  0  0  0  0  0  0  0  0
  125.8710  123.8386   58.3067 H   0  0  0  0  0  0  0  0  0  0  0  0
  129.6035  125.3566   58.4338 H   0  0  0  0  0  0  0  0  0  0  0  0
  129.4836  124.0523   57.2045 H   0  0  0  0  0  0  0  0  0  0  0  0
  128.2944  125.3986   57.2045 H   0  0  0  0  0  0  0  0  0  0  0  0
  127.9041  121.8001   59.1838 H   0  0  0  0  0  0  0  0  0  0  0  0
  127.0268  122.3183   57.7045 H   0  0  0  0  0  0  0  0  0  0  0  0
  128.8215  122.2435   57.7045 H   0  0  0  0  0  0  0  0  0  0  0  0
  130.5213  124.5353   61.5441 H   0  0  0  0  0  0  0  0  0  0  0  0
  130.8326  126.1571   61.2890 H   0  0  0  0  0  0  0  0  0  0  0  0
  131.4790  126.5860   64.8380 H   0  0  0  0  0  0  0  0  0  0  0  0
  131.9894  122.6549   64.3261 H   0  0  0  0  0  0  0  0  0  0  0  0
  130.4835  122.4465   63.2714 H   0  0  0  0  0  0  0  0  0  0  0  0
  131.9437  124.5116   62.1299 H   0  0  0  0  0  0  0  0  0  0  0  0
  130.8572  121.9461   61.3307 H   0  0  0  0  0  0  0  0  0  0  0  0
  131.0624  123.5031   60.4152 H   0  0  0  0  0  0  0  0  0  0  0  0
  132.2523  121.5480   59.3377 H   0  0  0  0  0  0  0  0  0  0  0  0
  134.5740  122.7281   59.3080 H   0  0  0  0  0  0  0  0  0  0  0  0
  133.0215  123.4598   58.5704 H   0  0  0  0  0  0  0  0  0  0  0  0
  134.6079  125.0966   59.6395 H   0  0  0  0  0  0  0  0  0  0  0  0
  132.8477  125.0486   60.2197 H   0  0  0  0  0  0  0  0  0  0  0  0
  135.3847  124.3978   61.7327 H   0  0  0  0  0  0  0  0  0  0  0  0
  133.9314  125.4150   62.1879 H   0  0  0  0  0  0  0  0  0  0  0  0
  134.2639  123.4548   63.4289 H   0  0  0  0  0  0  0  0  0  0  0  0
  134.9713  121.5237   62.6205 H   0  0  0  0  0  0  0  0  0  0  0  0
  133.2772  121.2662   63.2395 H   0  0  0  0  0  0  0  0  0  0  0  0
  134.3785  120.7751   60.5400 H   0  0  0  0  0  0  0  0  0  0  0  0
  132.8089  120.2445   61.2886 H   0  0  0  0  0  0  0  0  0  0  0  0
  128.4410  126.0841   64.3546 H   0  0  0  0  0  0  0  0  0  0  0  0
  129.0770  127.4634   63.6615 H   0  0  0  0  0  0  0  0  0  0  0  0
  1  2  1  0
  2  3  1  0
  3  4  1  6
  4  5  1  0
  5  6  2  0
  5  7  1  0
  7  8  1  0
  8  9  1  0
  8 10  1  0
  8 11  1  0
  3 12  1  0
 12 13  1  0
 13 14  1  1
 13 15  1  0
 15 16  2  0
 15 17  1  0
 17 18  1  0
 18 19  1  0
 19 20  1  0
 20 21  1  0
 21 22  1  0
 22 23  1  0
 23 24  1  0
 24 25  1  0
 25 26  1  0
 13 27  1  0
 27  3  1  0
 24 18  1  0
 26 20  1  0
  1 28  1  0
  1 29  1  0
  1 30  1  0
  2 31  1  0
  2 32  1  0
  4 33  1  0
  9 34  1  0
  9 35  1  0
  9 36  1  0
 10 37  1  0
 10 38  1  0
 10 39  1  0
 11 40  1  0
 11 41  1  0
 11 42  1  0
 12 43  1  0
 12 44  1  0
 14 45  1  0
 17 46  1  0
 17 47  1  0
 18 48  1  6
 19 49  1  0
 19 50  1  0
 20 51  1  6
 21 52  1  0
 21 53  1  0
 22 54  1  0
 22 55  1  0
 23 56  1  0
 23 57  1  0
 24 58  1  1
 25 59  1  0
 25 60  1  0
 26 61  1  0
 26 62  1  0
 27 63  1  0
 27 64  1  0
M  END
>  <Binding energies>  (1) 
[-5.51]

>  <Ligand effiencies>  (1) 
[-0.17774193548387096]

>  <Interactions>  (1) 
["V-A:ILE:369:CG2:3237, V-A:ASP:366:CA:3210, V-B:PRO:540:CA:9855, V-A:GLY:454:CA:4049, H-A:GLU:543:OE2:4910, V-A:ILE:369:CB:3236, V-B:TYR:539:CE2:9848, V-B:GLU:543:CG:9879, V-B:TYR:539:C:9839, V-A:ASP:366:CG:3213, V-B:TYR:539:CZ:9849, H-B:GLU:543:OE1:9881, H-B:ALA:541:N:9863, V-A:SER:385:C:3405, V-B:PRO:540:N:9856, V-A:ILE:369:CD1:3239, V-B:TYR:539:CD2:9846, V-A:SER:385:CB:3409, V-B:GLU:543:CD:9880, V-A:ASP:366:CB:3212, V-A:LEU:475:CD2:4259, H-A:ARG:545:NH2:4928, H-A:GLU:543:OE1:4909, V-B:TYR:539:CG:9844, H-B:GLU:543:OE2:9882, V-A:SER:385:CA:3407, H-A:TYR:484:OH:4348"]

$$$$
ZINC2365428890
     RDKit          3D

 46 47  0  0  0  0  0  0  0  0999 V2000
  132.4200  125.3990   65.0370 C   0  0  0  0  0  0  0  0  0  0  0  0
  132.4760  124.6100   63.7390 C   0  0  0  0  0  0  0  0  0  0  0  0
  133.6030  123.8730   63.5530 N   0  0  0  0  0  0  0  0  0  0  0  0
  133.6820  123.1830   62.3900 C   0  0  0  0  0  0  0  0  0  0  0  0
  132.7440  123.1570   61.4130 N   0  0  0  0  0  0  0  0  0  0  0  0
  131.6060  123.8770   61.6280 C   0  0  0  0  0  0  0  0  0  0  0  0
  130.6460  123.8880   60.5980 N   0  0  0  0  0  0  0  0  0  0  0  0
  130.8770  124.7770   59.4620 C   0  0  0  0  0  0  0  0  0  0  0  0
  129.3650  123.1880   60.7850 C   0  0  2  0  0  0  0  0  0  0  0  0
  129.5840  121.6620   60.6760 C   0  0  0  0  0  0  0  0  0  0  0  0
  128.2140  123.7200   59.8670 C   0  0  2  0  0  0  0  0  0  0  0  0
  126.8350  123.7660   60.5880 C   0  0  0  0  0  0  0  0  0  0  0  0
  125.6860  124.2700   59.6850 C   0  0  0  0  0  0  0  0  0  0  0  0
  125.6160  123.4690   58.3640 C   0  0  0  0  0  0  0  0  0  0  0  0
  126.9680  123.4620   57.5950 C   0  0  0  0  0  0  0  0  0  0  0  0
  126.8330  122.4760   56.4110 C   0  0  0  0  0  0  0  0  0  0  0  0
  127.3570  124.8790   57.1020 C   0  0  0  0  0  0  0  0  0  0  0  0
  128.0190  122.8650   58.5780 C   0  0  0  0  0  0  0  0  0  0  0  0
  131.4390  124.6550   62.7920 C   0  0  0  0  0  0  0  0  0  0  0  0
  129.7500  125.8720   63.0990 I   0  0  0  0  0  0  0  0  0  0  0  0
  132.4692  124.7059   65.8898 H   0  0  0  0  0  0  0  0  0  0  0  0
  133.2710  126.0946   65.0803 H   0  0  0  0  0  0  0  0  0  0  0  0
  131.4793  125.9674   65.0803 H   0  0  0  0  0  0  0  0  0  0  0  0
  134.5924  122.5886   62.2235 H   0  0  0  0  0  0  0  0  0  0  0  0
  131.1378  125.7807   59.8289 H   0  0  0  0  0  0  0  0  0  0  0  0
  131.7028  124.3840   58.8508 H   0  0  0  0  0  0  0  0  0  0  0  0
  129.9643  124.8357   58.8508 H   0  0  0  0  0  0  0  0  0  0  0  0
  129.0063  123.4107   61.8007 H   0  0  0  0  0  0  0  0  0  0  0  0
  129.6463  121.2276   61.6846 H   0  0  0  0  0  0  0  0  0  0  0  0
  128.7417  121.2086   60.1329 H   0  0  0  0  0  0  0  0  0  0  0  0
  130.5198  121.4637   60.1329 H   0  0  0  0  0  0  0  0  0  0  0  0
  128.5404  124.7368   59.6032 H   0  0  0  0  0  0  0  0  0  0  0  0
  126.5879  122.7511   60.9327 H   0  0  0  0  0  0  0  0  0  0  0  0
  126.9283  124.4774   61.4218 H   0  0  0  0  0  0  0  0  0  0  0  0
  124.7328  124.1585   60.2225 H   0  0  0  0  0  0  0  0  0  0  0  0
  125.8743  125.3259   59.4409 H   0  0  0  0  0  0  0  0  0  0  0  0
  125.3377  122.4305   58.5963 H   0  0  0  0  0  0  0  0  0  0  0  0
  124.8691  123.9553   57.7193 H   0  0  0  0  0  0  0  0  0  0  0  0
  126.6933  121.4557   56.7976 H   0  0  0  0  0  0  0  0  0  0  0  0
  125.9650  122.7574   55.7967 H   0  0  0  0  0  0  0  0  0  0  0  0
  127.7447  122.5137   55.7967 H   0  0  0  0  0  0  0  0  0  0  0  0
  127.5364  125.5323   57.9686 H   0  0  0  0  0  0  0  0  0  0  0  0
  128.2715  124.8174   56.4938 H   0  0  0  0  0  0  0  0  0  0  0  0
  126.5393  125.2929   56.4938 H   0  0  0  0  0  0  0  0  0  0  0  0
  127.6882  121.8584   58.8736 H   0  0  0  0  0  0  0  0  0  0  0  0
  128.9842  122.8462   58.0507 H   0  0  0  0  0  0  0  0  0  0  0  0
  1  2  1  0
  2  3  2  0
  3  4  1  0
  4  5  2  0
  5  6  1  0
  6  7  1  0
  7  8  1  0
  7  9  1  0
  9 10  1  0
  9 11  1  0
 11 12  1  0
 12 13  1  0
 13 14  1  0
 14 15  1  0
 15 16  1  0
 15 17  1  0
 15 18  1  0
  6 19  2  0
 19 20  1  0
 19  2  1  0
 18 11  1  0
  1 21  1  0
  1 22  1  0
  1 23  1  0
  4 24  1  0
  8 25  1  0
  8 26  1  0
  8 27  1  0
  9 28  1  1
 10 29  1  0
 10 30  1  0
 10 31  1  0
 11 32  1  6
 12 33  1  0
 12 34  1  0
 13 35  1  0
 13 36  1  0
 14 37  1  0
 14 38  1  0
 16 39  1  0
 16 40  1  0
 16 41  1  0
 17 42  1  0
 17 43  1  0
 17 44  1  0
 18 45  1  0
 18 46  1  0
M  END
>  <Binding energies>  (1) 
[-6.47]

>  <Ligand effiencies>  (1) 
[-0.3235]

>  <Interactions>  (1) 
["V-B:TYR:539:CD1:9845, V-B:PRO:540:CA:9855, V-A:GLY:454:CA:4049, V-B:TYR:539:CZ:9849, V-B:TYR:539:CE1:9847, V-B:TYR:539:CD2:9846, V-B:PRO:540:CD:9859, V-B:TYR:539:CE2:9848, V-B:PRO:540:CB:9857, V-A:ARG:545:CZ:4926, V-B:TYR:539:C:9839, H-A:GLY:454:N:4050, V-B:PRO:540:N:9856"]

$$$$
ZINC2367061532
     RDKit          3D

 64 65  0  0  0  0  0  0  0  0999 V2000
  130.2280  123.7830   65.1430 C   0  0  0  0  0  0  0  0  0  0  0  0
  129.4340  122.4720   65.1190 C   0  0  0  0  0  0  0  0  0  0  0  0
  129.1800  122.1000   63.7710 O   0  0  0  0  0  0  0  0  0  0  0  0
  128.1280  122.6220   63.0840 C   0  0  0  0  0  0  0  0  0  0  0  0
  126.9530  122.4790   63.4410 O   0  0  0  0  0  0  0  0  0  0  0  0
  128.4810  123.0440   61.6190 C   0  0  0  0  0  0  0  0  0  0  0  0
  127.3740  124.0220   60.9860 C   0  0  2  0  0  0  0  0  0  0  0  0
  126.0880  123.7230   61.5220 O   0  0  0  0  0  0  0  0  0  0  0  0
  127.1970  124.3090   59.4150 C   0  0  2  0  0  0  0  0  0  0  0  0
  126.4750  125.6780   59.1760 C   0  0  0  0  0  0  0  0  0  0  0  0
  126.1890  123.2480   58.8150 C   0  0  0  0  0  0  0  0  0  0  0  0
  126.1720  123.0770   57.2990 C   0  0  0  0  0  0  0  0  0  0  0  0
  127.5820  122.7370   56.8560 C   0  0  0  0  0  0  0  0  0  0  0  0
  128.5360  123.8900   57.1690 C   0  0  0  0  0  0  0  0  0  0  0  0
  128.4770  124.3090   58.6010 N   0  0  0  0  0  0  0  0  0  0  0  0
  129.5270  125.1820   59.0030 C   0  0  0  0  0  0  0  0  0  0  0  0
  129.3900  126.3520   59.3630 O   0  0  0  0  0  0  0  0  0  0  0  0
  130.7500  124.5530   59.0070 O   0  0  0  0  0  0  0  0  0  0  0  0
  132.0340  125.2030   59.0170 C   0  0  0  0  0  0  0  0  0  0  0  0
  133.1920  124.1800   58.9100 C   0  0  0  0  0  0  0  0  0  0  0  0
  132.1290  126.2730   57.9010 C   0  0  0  0  0  0  0  0  0  0  0  0
  132.0940  125.8970   60.3930 C   0  0  0  0  0  0  0  0  0  0  0  0
  129.8380  123.8490   61.7760 C   0  0  0  0  0  0  0  0  0  0  0  0
  131.1770  123.0890   61.8560 C   0  0  0  0  0  0  0  0  0  0  0  0
  131.3060  121.9890   60.8050 C   0  0  0  0  0  0  0  0  0  0  0  0
  130.1270  121.0240   60.9160 C   0  0  0  0  0  0  0  0  0  0  0  0
  128.7630  121.7320   60.7920 C   0  0  0  0  0  0  0  0  0  0  0  0
  130.4095  124.0827   66.1857 H   0  0  0  0  0  0  0  0  0  0  0  0
  131.1904  123.6383   64.6303 H   0  0  0  0  0  0  0  0  0  0  0  0
  129.6539  124.5688   64.6303 H   0  0  0  0  0  0  0  0  0  0  0  0
  130.0159  121.6811   65.6148 H   0  0  0  0  0  0  0  0  0  0  0  0
  128.4799  122.6099   65.6487 H   0  0  0  0  0  0  0  0  0  0  0  0
  127.8511  124.9647   61.2920 H   0  0  0  0  0  0  0  0  0  0  0  0
  126.0220  124.1190   62.3940 H   0  0  0  0  0  0  0  0  0  0  0  0
  126.2321  126.1385   60.1450 H   0  0  0  0  0  0  0  0  0  0  0  0
  127.1373  126.3475   58.6076 H   0  0  0  0  0  0  0  0  0  0  0  0
  125.5484  125.5096   58.6076 H   0  0  0  0  0  0  0  0  0  0  0  0
  126.4375  122.2709   59.2548 H   0  0  0  0  0  0  0  0  0  0  0  0
  125.1902  123.6343   59.0664 H   0  0  0  0  0  0  0  0  0  0  0  0
  125.4860  122.2631   57.0217 H   0  0  0  0  0  0  0  0  0  0  0  0
  125.8280  124.0011   56.8115 H   0  0  0  0  0  0  0  0  0  0  0  0
  127.9198  121.8341   57.3858 H   0  0  0  0  0  0  0  0  0  0  0  0
  127.5806  122.5622   55.7700 H   0  0  0  0  0  0  0  0  0  0  0  0
  129.5628  123.5710   56.9369 H   0  0  0  0  0  0  0  0  0  0  0  0
  128.2315  124.7512   56.5562 H   0  0  0  0  0  0  0  0  0  0  0  0
  133.5198  123.8904   59.9193 H   0  0  0  0  0  0  0  0  0  0  0  0
  132.8447  123.2884   58.3674 H   0  0  0  0  0  0  0  0  0  0  0  0
  134.0339  124.6346   58.3674 H   0  0  0  0  0  0  0  0  0  0  0  0
  132.2176  127.2705   58.3560 H   0  0  0  0  0  0  0  0  0  0  0  0
  133.0131  126.0747   57.2772 H   0  0  0  0  0  0  0  0  0  0  0  0
  131.2238  126.2336   57.2772 H   0  0  0  0  0  0  0  0  0  0  0  0
  132.0286  125.1402   61.1885 H   0  0  0  0  0  0  0  0  0  0  0  0
  133.0429  126.4456   60.4859 H   0  0  0  0  0  0  0  0  0  0  0  0
  131.2533  126.6003   60.4859 H   0  0  0  0  0  0  0  0  0  0  0  0
  129.9078  124.5264   60.9121 H   0  0  0  0  0  0  0  0  0  0  0  0
  129.7470  124.3090   62.7711 H   0  0  0  0  0  0  0  0  0  0  0  0
  131.9967  123.8083   61.7122 H   0  0  0  0  0  0  0  0  0  0  0  0
  131.2210  122.6057   62.8432 H   0  0  0  0  0  0  0  0  0  0  0  0
  131.3140  122.4414   59.8024 H   0  0  0  0  0  0  0  0  0  0  0  0
  132.2430  121.4371   60.9710 H   0  0  0  0  0  0  0  0  0  0  0  0
  130.2087  120.2753   60.1143 H   0  0  0  0  0  0  0  0  0  0  0  0
  130.1706  120.5604   61.9126 H   0  0  0  0  0  0  0  0  0  0  0  0
  128.6344  121.9912   59.7307 H   0  0  0  0  0  0  0  0  0  0  0  0
  128.0590  121.0044   61.2220 H   0  0  0  0  0  0  0  0  0  0  0  0
  1  2  1  0
  2  3  1  0
  3  4  1  0
  4  5  2  0
  4  6  1  0
  6  7  1  0
  7  8  1  0
  7  9  1  0
  9 10  1  1
  9 11  1  0
 11 12  1  0
 12 13  1  0
 13 14  1  0
 14 15  1  0
 15 16  1  0
 16 17  2  0
 16 18  1  0
 18 19  1  0
 19 20  1  0
 19 21  1  0
 19 22  1  0
  6 23  1  0
 23 24  1  0
 24 25  1  0
 25 26  1  0
 26 27  1  0
 27  6  1  0
 15  9  1  0
  1 28  1  0
  1 29  1  0
  1 30  1  0
  2 31  1  0
  2 32  1  0
  7 33  1  1
  8 34  1  0
 10 35  1  0
 10 36  1  0
 10 37  1  0
 11 38  1  0
 11 39  1  0
 12 40  1  0
 12 41  1  0
 13 42  1  0
 13 43  1  0
 14 44  1  0
 14 45  1  0
 20 46  1  0
 20 47  1  0
 20 48  1  0
 21 49  1  0
 21 50  1  0
 21 51  1  0
 22 52  1  0
 22 53  1  0
 22 54  1  0
 23 55  1  0
 23 56  1  0
 24 57  1  0
 24 58  1  0
 25 59  1  0
 25 60  1  0
 26 61  1  0
 26 62  1  0
 27 63  1  0
 27 64  1  0
M  END
>  <Binding energies>  (1) 
[-6.28]

>  <Ligand effiencies>  (1) 
[-0.22428571428571428]

>  <Interactions>  (1) 
["V-A:ILE:369:CG2:3237, V-A:ASP:366:CA:3210, V-B:PRO:540:CA:9855, V-B:ALA:541:CB:9864, V-B:TYR:539:CE2:9848, V-A:TYR:484:CE2:4346, V-B:GLU:543:CG:9879, V-B:TYR:539:C:9839, V-A:ASP:366:CG:3213, V-B:TYR:539:CZ:9849, H-B:GLU:543:OE1:9881, H-B:TYR:539:OH:9850, H-B:ALA:541:N:9863, V-A:TYR:484:CZ:4347, V-B:PRO:540:CB:9857, V-B:PRO:540:N:9856, V-B:TYR:539:CD2:9846, V-B:PRO:540:CD:9859, V-A:TYR:531:CZ:4794, V-B:GLU:543:CD:9880, V-A:ASP:366:CB:3212, V-A:LEU:475:CD2:4259, V-B:TYR:539:CG:9844, V-B:TYR:539:CD1:9845, V-B:PRO:540:C:9853, V-B:ALA:541:CA:9862, V-B:TYR:539:CE1:9847"]

$$$$
ZINC2369652415
     RDKit          3D

 67 69  0  0  0  0  0  0  0  0999 V2000
  132.7740  125.8490   57.4160 C   0  0  0  0  0  0  0  0  0  0  0  0
  132.5510  125.5570   58.8840 C   0  0  0  0  0  0  0  0  0  0  0  0
  132.9520  124.3670   59.5110 C   0  0  0  0  0  0  0  0  0  0  0  0
  132.6700  124.3170   60.8670 C   0  0  0  0  0  0  0  0  0  0  0  0
  133.0480  122.9310   61.9680 S   0  0  0  0  0  0  0  0  0  0  0  0
  133.0580  121.7140   61.1470 O   0  0  0  0  0  0  0  0  0  0  0  0
  134.2260  123.3200   62.7510 O   0  0  0  0  0  0  0  0  0  0  0  0
  131.5970  122.9270   63.0050 N   0  0  0  0  0  0  0  0  0  0  0  0
  130.3010  123.0840   62.2990 C   0  0  0  0  0  0  0  0  0  0  0  0
  131.6980  123.5270   64.3730 C   0  0  2  0  0  0  0  0  0  0  0  0
  130.3920  123.6280   65.1700 C   0  0  0  0  0  0  0  0  0  0  0  0
  130.6320  124.7200   66.1220 N   0  0  0  0  0  0  0  0  0  0  0  0
  129.7930  125.0480   67.1900 C   0  0  0  0  0  0  0  0  0  0  0  0
  129.6060  124.3380   68.1800 O   0  0  0  0  0  0  0  0  0  0  0  0
  129.2040  126.2700   66.9950 O   0  0  0  0  0  0  0  0  0  0  0  0
  129.0590  127.2990   67.9900 C   0  0  0  0  0  0  0  0  0  0  0  0
  127.9300  126.9560   68.9940 C   0  0  0  0  0  0  0  0  0  0  0  0
  130.3950  127.5660   68.7260 C   0  0  0  0  0  0  0  0  0  0  0  0
  128.6610  128.5530   67.1840 C   0  0  0  0  0  0  0  0  0  0  0  0
  131.8620  125.4600   65.8430 C   0  0  0  0  0  0  0  0  0  0  0  0
  132.2830  124.9340   64.4720 C   0  0  1  0  0  0  0  0  0  0  0  0
  133.6160  124.9110   64.4020 F   0  0  0  0  0  0  0  0  0  0  0  0
  131.8680  125.7500   61.4060 S   0  0  0  0  0  0  0  0  0  0  0  0
  131.9470  126.4240   59.8050 C   0  0  0  0  0  0  0  0  0  0  0  0
  131.3660  127.8650   59.5380 B   0  0  0  0  0  0  0  0  0  0  0  0
  130.9790  128.7410   60.5280 O   0  0  0  0  0  0  0  0  0  0  0  0
  130.2790  129.8080   59.9020 C   0  0  0  0  0  0  0  0  0  0  0  0
  128.7750  129.4290   59.9680 C   0  0  0  0  0  0  0  0  0  0  0  0
  130.5490  131.0890   60.7230 C   0  0  0  0  0  0  0  0  0  0  0  0
  130.9140  129.7940   58.4660 C   0  0  0  0  0  0  0  0  0  0  0  0
  129.9650  130.2350   57.3280 C   0  0  0  0  0  0  0  0  0  0  0  0
  132.2840  130.5150   58.3380 C   0  0  0  0  0  0  0  0  0  0  0  0
  131.1790  128.4110   58.2900 O   0  0  0  0  0  0  0  0  0  0  0  0
  133.4387  126.7193   57.3121 H   0  0  0  0  0  0  0  0  0  0  0  0
  133.2365  124.9748   56.9344 H   0  0  0  0  0  0  0  0  0  0  0  0
  131.8089  126.0651   56.9344 H   0  0  0  0  0  0  0  0  0  0  0  0
  133.4472  123.5453   58.9728 H   0  0  0  0  0  0  0  0  0  0  0  0
  129.4911  123.1821   63.0368 H   0  0  0  0  0  0  0  0  0  0  0  0
  130.3337  123.9847   61.6685 H   0  0  0  0  0  0  0  0  0  0  0  0
  130.1177  122.2015   61.6685 H   0  0  0  0  0  0  0  0  0  0  0  0
  132.3836  122.7768   64.7939 H   0  0  0  0  0  0  0  0  0  0  0  0
  129.5480  123.8678   64.5065 H   0  0  0  0  0  0  0  0  0  0  0  0
  130.1307  122.6839   65.6703 H   0  0  0  0  0  0  0  0  0  0  0  0
  128.3059  127.0702   70.0215 H   0  0  0  0  0  0  0  0  0  0  0  0
  127.0802  127.6365   68.8367 H   0  0  0  0  0  0  0  0  0  0  0  0
  127.6024  125.9178   68.8367 H   0  0  0  0  0  0  0  0  0  0  0  0
  130.2280  127.5326   69.8127 H   0  0  0  0  0  0  0  0  0  0  0  0
  131.1290  126.7968   68.4440 H   0  0  0  0  0  0  0  0  0  0  0  0
  130.7770  128.5583   68.4440 H   0  0  0  0  0  0  0  0  0  0  0  0
  128.4025  129.3674   67.8768 H   0  0  0  0  0  0  0  0  0  0  0  0
  129.5044  128.8645   66.5503 H   0  0  0  0  0  0  0  0  0  0  0  0
  127.7923  128.3211   66.5503 H   0  0  0  0  0  0  0  0  0  0  0  0
  131.6716  126.5428   65.8085 H   0  0  0  0  0  0  0  0  0  0  0  0
  132.6338  125.3200   66.6142 H   0  0  0  0  0  0  0  0  0  0  0  0
  131.9229  125.5638   63.6452 H   0  0  0  0  0  0  0  0  0  0  0  0
  128.4625  129.3503   61.0197 H   0  0  0  0  0  0  0  0  0  0  0  0
  128.1789  130.2050   59.4655 H   0  0  0  0  0  0  0  0  0  0  0  0
  128.6179  128.4632   59.4655 H   0  0  0  0  0  0  0  0  0  0  0  0
  130.4994  130.8538   61.7964 H   0  0  0  0  0  0  0  0  0  0  0  0
  131.5487  131.4773   60.4785 H   0  0  0  0  0  0  0  0  0  0  0  0
  129.7910  131.8478   60.4785 H   0  0  0  0  0  0  0  0  0  0  0  0
  129.0476  130.6613   57.7601 H   0  0  0  0  0  0  0  0  0  0  0  0
  130.4646  130.9932   56.7071 H   0  0  0  0  0  0  0  0  0  0  0  0
  129.7076  129.3642   56.7071 H   0  0  0  0  0  0  0  0  0  0  0  0
  132.6830  130.7250   59.3414 H   0  0  0  0  0  0  0  0  0  0  0  0
  132.9878  129.8705   57.7910 H   0  0  0  0  0  0  0  0  0  0  0  0
  132.1513  131.4601   57.7910 H   0  0  0  0  0  0  0  0  0  0  0  0
  1  2  1  0
  2  3  1  0
  3  4  2  0
  4  5  1  0
  5  6  2  0
  5  7  2  0
  5  8  1  0
  8  9  1  0
  8 10  1  0
 10 11  1  0
 11 12  1  0
 12 13  1  0
 13 14  2  0
 13 15  1  0
 15 16  1  0
 16 17  1  0
 16 18  1  0
 16 19  1  0
 12 20  1  0
 20 21  1  0
 21 22  1  0
  4 23  1  0
 23 24  1  0
 24 25  1  0
 25 26  1  0
 26 27  1  0
 27 28  1  0
 27 29  1  0
 27 30  1  0
 30 31  1  0
 30 32  1  0
 30 33  1  0
 24  2  2  0
 33 25  1  0
 21 10  1  0
  1 34  1  0
  1 35  1  0
  1 36  1  0
  3 37  1  0
  9 38  1  0
  9 39  1  0
  9 40  1  0
 10 41  1  1
 11 42  1  0
 11 43  1  0
 17 44  1  0
 17 45  1  0
 17 46  1  0
 18 47  1  0
 18 48  1  0
 18 49  1  0
 19 50  1  0
 19 51  1  0
 19 52  1  0
 20 53  1  0
 20 54  1  0
 21 55  1  6
 28 56  1  0
 28 57  1  0
 28 58  1  0
 29 59  1  0
 29 60  1  0
 29 61  1  0
 31 62  1  0
 31 63  1  0
 31 64  1  0
 32 65  1  0
 32 66  1  0
 32 67  1  0
M  END
>  <Binding energies>  (1) 
[-6.87]

>  <Ligand effiencies>  (1) 
[-0.2081818181818182]

>  <Interactions>  (1) 
["V-A:ASP:366:CA:3210, V-A:GLY:454:CA:4049, V-B:GLU:543:C:9874, V-B:GLU:543:CB:9878, H-A:TYR:531:OH:4795, V-A:TYR:484:CE2:4346, V-B:TYR:539:CE2:9848, V-B:GLU:543:CG:9879, V-A:ASP:366:CG:3213, V-A:TYR:484:CZ:4347, V-A:GLU:543:CD:4908, V-B:GLU:543:CA:9876, H-A:GLY:454:N:4050, V-B:HIS:456:CE1:9041, V-A:HIS:456:CE1:4070, V-A:ASP:366:C:3208, V-A:TYR:531:CZ:4794, V-A:GLU:543:CG:4907, V-A:MET:535:CE:4835, V-A:ASP:366:CB:3212, V-A:LEU:475:CD2:4259, V-A:ARG:545:CZ:4926, V-A:GLU:543:CB:4906, H-A:TYR:484:OH:4348"]

$$$$
ZINC2369894093
     RDKit          3D

 67 69  0  0  0  0  0  0  0  0999 V2000
  129.5000  120.6440   61.6060 C   0  0  0  0  0  0  0  0  0  0  0  0
  129.4730  122.0890   61.0490 C   0  0  0  0  0  0  0  0  0  0  0  0
  128.8370  123.0660   62.0690 C   0  0  0  0  0  0  0  0  0  0  0  0
  128.6560  122.1170   59.7410 C   0  0  0  0  0  0  0  0  0  0  0  0
  130.7880  122.5210   60.6530 O   0  0  0  0  0  0  0  0  0  0  0  0
  131.9740  121.9800   61.0790 C   0  0  0  0  0  0  0  0  0  0  0  0
  132.5340  121.0470   60.4990 O   0  0  0  0  0  0  0  0  0  0  0  0
  132.4510  122.6060   62.2490 N   0  0  0  0  0  0  0  0  0  0  0  0
  133.8180  123.1750   62.2240 C   0  0  0  0  0  0  0  0  0  0  0  0
  133.8300  124.6120   62.7960 C   0  0  2  0  0  0  0  0  0  0  0  0
  135.1580  125.0720   62.9270 O   0  0  0  0  0  0  0  0  0  0  0  0
  133.0680  124.7490   64.1250 C   0  0  0  0  0  0  0  0  0  0  0  0
  131.6380  124.1990   63.9340 C   0  0  2  0  0  0  0  0  0  0  0  0
  130.7330  124.3460   65.1800 C   0  0  0  0  0  0  0  0  0  0  0  0
  129.9180  123.4580   65.4330 O   0  0  0  0  0  0  0  0  0  0  0  0
  130.8590  125.4520   65.9410 N   0  0  0  0  0  0  0  0  0  0  0  0
  130.0720  125.7520   67.1360 C   0  0  0  0  0  0  0  0  0  0  0  0
  129.1850  126.9690   66.9320 C   0  0  0  0  0  0  0  0  0  0  0  0
  128.7470  127.4520   65.3110 S   0  0  0  0  0  0  0  0  0  0  0  0
  127.8360  128.8040   65.8780 C   0  0  0  0  0  0  0  0  0  0  0  0
  127.0370  129.8470   64.7730 Cl  0  0  0  0  0  0  0  0  0  0  0  0
  127.8610  128.8840   67.2570 C   0  0  0  0  0  0  0  0  0  0  0  0
  128.6120  127.8620   67.8540 C   0  0  0  0  0  0  0  0  0  0  0  0
  128.7530  127.7690   69.4240 B   0  0  0  0  0  0  0  0  0  0  0  0
  129.2470  128.7590   70.2390 O   0  0  0  0  0  0  0  0  0  0  0  0
  129.4860  128.1830   71.5150 C   0  0  0  0  0  0  0  0  0  0  0  0
  130.9700  127.7240   71.5120 C   0  0  0  0  0  0  0  0  0  0  0  0
  129.2670  129.2860   72.5740 C   0  0  0  0  0  0  0  0  0  0  0  0
  128.4250  127.0270   71.5290 C   0  0  0  0  0  0  0  0  0  0  0  0
  128.8320  125.7770   72.3380 C   0  0  0  0  0  0  0  0  0  0  0  0
  126.9780  127.4600   71.8930 C   0  0  0  0  0  0  0  0  0  0  0  0
  128.3930  126.6610   70.1580 O   0  0  0  0  0  0  0  0  0  0  0  0
  131.6260  122.7220   63.4770 C   0  0  0  0  0  0  0  0  0  0  0  0
  129.4994  120.6748   62.7056 H   0  0  0  0  0  0  0  0  0  0  0  0
  128.6119  120.0987   61.2540 H   0  0  0  0  0  0  0  0  0  0  0  0
  130.4079  120.1323   61.2540 H   0  0  0  0  0  0  0  0  0  0  0  0
  129.0590  122.7249   63.0909 H   0  0  0  0  0  0  0  0  0  0  0  0
  129.2529  124.0734   61.9202 H   0  0  0  0  0  0  0  0  0  0  0  0
  127.7475  123.0934   61.9202 H   0  0  0  0  0  0  0  0  0  0  0  0
  127.5828  122.1538   59.9797 H   0  0  0  0  0  0  0  0  0  0  0  0
  128.9320  123.0062   59.1552 H   0  0  0  0  0  0  0  0  0  0  0  0
  128.8705  121.2110   59.1552 H   0  0  0  0  0  0  0  0  0  0  0  0
  134.4827  122.5412   62.8293 H   0  0  0  0  0  0  0  0  0  0  0  0
  134.1644  123.2099   61.1805 H   0  0  0  0  0  0  0  0  0  0  0  0
  133.2919  125.2441   62.0742 H   0  0  0  0  0  0  0  0  0  0  0  0
  135.2870  125.8110   62.3270 H   0  0  0  0  0  0  0  0  0  0  0  0
  133.5840  124.1747   64.9085 H   0  0  0  0  0  0  0  0  0  0  0  0
  133.0261  125.8062   64.4260 H   0  0  0  0  0  0  0  0  0  0  0  0
  131.2191  124.8322   63.1380 H   0  0  0  0  0  0  0  0  0  0  0  0
  131.5500  126.1400   65.6780 H   0  0  0  0  0  0  0  0  0  0  0  0
  129.4385  124.8845   67.3731 H   0  0  0  0  0  0  0  0  0  0  0  0
  130.7676  125.9681   67.9602 H   0  0  0  0  0  0  0  0  0  0  0  0
  127.3444  129.6694   67.8281 H   0  0  0  0  0  0  0  0  0  0  0  0
  131.3222  127.6151   72.5484 H   0  0  0  0  0  0  0  0  0  0  0  0
  131.0539  126.7579   70.9927 H   0  0  0  0  0  0  0  0  0  0  0  0
  131.5847  128.4740   70.9927 H   0  0  0  0  0  0  0  0  0  0  0  0
  129.3535  128.8504   73.5804 H   0  0  0  0  0  0  0  0  0  0  0  0
  130.0267  130.0714   72.4479 H   0  0  0  0  0  0  0  0  0  0  0  0
  128.2648  129.7216   72.4479 H   0  0  0  0  0  0  0  0  0  0  0  0
  128.7604  125.9969   73.4134 H   0  0  0  0  0  0  0  0  0  0  0  0
  128.1588  124.9436   72.0886 H   0  0  0  0  0  0  0  0  0  0  0  0
  129.8668  125.4997   72.0886 H   0  0  0  0  0  0  0  0  0  0  0  0
  126.8693  127.4925   72.9871 H   0  0  0  0  0  0  0  0  0  0  0  0
  126.7776  128.4575   71.4748 H   0  0  0  0  0  0  0  0  0  0  0  0
  126.2626  126.7366   71.4748 H   0  0  0  0  0  0  0  0  0  0  0  0
  132.0464  122.0845   64.2688 H   0  0  0  0  0  0  0  0  0  0  0  0
  130.5950  122.3976   63.2723 H   0  0  0  0  0  0  0  0  0  0  0  0
  1  2  1  0
  2  3  1  0
  2  4  1  0
  2  5  1  0
  5  6  1  0
  6  7  2  0
  6  8  1  0
  8  9  1  0
  9 10  1  0
 10 11  1  0
 10 12  1  0
 12 13  1  0
 13 14  1  0
 14 15  2  0
 14 16  1  0
 16 17  1  0
 17 18  1  0
 18 19  1  0
 19 20  1  0
 20 21  1  0
 20 22  2  0
 22 23  1  0
 23 24  1  0
 24 25  1  0
 25 26  1  0
 26 27  1  0
 26 28  1  0
 26 29  1  0
 29 30  1  0
 29 31  1  0
 29 32  1  0
 13 33  1  0
 33  8  1  0
 23 18  2  0
 32 24  1  0
  1 34  1  0
  1 35  1  0
  1 36  1  0
  3 37  1  0
  3 38  1  0
  3 39  1  0
  4 40  1  0
  4 41  1  0
  4 42  1  0
  9 43  1  0
  9 44  1  0
 10 45  1  6
 11 46  1  0
 12 47  1  0
 12 48  1  0
 13 49  1  6
 16 50  1  0
 17 51  1  0
 17 52  1  0
 22 53  1  0
 27 54  1  0
 27 55  1  0
 27 56  1  0
 28 57  1  0
 28 58  1  0
 28 59  1  0
 30 60  1  0
 30 61  1  0
 30 62  1  0
 31 63  1  0
 31 64  1  0
 31 65  1  0
 33 66  1  0
 33 67  1  0
M  END
>  <Binding energies>  (1) 
[-8.58]

>  <Ligand effiencies>  (1) 
[-0.24514285714285713]

>  <Interactions>  (1) 
["V-B:PRO:540:CA:9855, V-A:GLY:454:CA:4049, V-B:HIS:456:CD2:9039, H-A:GLU:543:OE2:4910, V-B:GLU:543:CB:9878, V-B:ALA:541:CB:9864, H-A:ARG:545:NH1:4927, V-B:TYR:539:CE2:9848, V-A:TYR:484:CE2:4346, V-B:GLU:543:CG:9879, V-A:GLY:544:C:4912, V-B:TYR:539:C:9839, V-A:HIS:456:CD2:4068, V-B:LYS:547:CE:9922, V-A:TYR:484:CZ:4347, V-A:GLU:543:CD:4908, V-B:HIS:456:CE1:9041, H-A:GLY:454:N:4050, V-B:PRO:540:N:9856, V-A:ILE:369:CD1:3239, V-A:HIS:456:CE1:4070, V-B:GLY:544:C:9884, V-B:TYR:539:CD2:9846, V-A:GLU:543:CG:4907, H-A:SER:385:OG:3410, V-B:GLU:543:CD:9880, V-B:HIS:456:CG:9037, V-A:LEU:475:CD2:4259, H-A:ARG:545:NH2:4928, V-A:ARG:545:CZ:4926, H-A:GLU:543:OE1:4909, V-A:GLU:543:CB:4906, H-A:ASP:366:OD1:3214, V-B:PRO:540:C:9853, H-A:TYR:484:OH:4348"]

$$$$
ZINC2371193243
     RDKit          3D

 76 78  0  0  0  0  0  0  0  0999 V2000
  131.2490  127.9620   60.0780 C   0  0  0  0  0  0  0  0  0  0  0  0
  130.7300  126.6390   60.0520 O   0  0  0  0  0  0  0  0  0  0  0  0
  131.0950  125.8620   58.9070 C   0  0  1  0  0  0  0  0  0  0  0  0
  130.8890  124.3580   59.1920 C   0  0  1  0  0  0  0  0  0  0  0  0
  131.4980  123.8350   60.5260 C   0  0  0  0  0  0  0  0  0  0  0  0
  131.4150  124.8920   61.6500 N   0  0  0  0  0  0  0  0  0  0  0  0
  131.5570  124.4790   63.1430 C   0  0  2  0  0  0  0  0  0  0  0  0
  133.0730  124.6590   63.5440 C   0  0  0  0  0  0  0  0  0  0  0  0
  133.8530  125.1880   62.7190 O   0  0  0  0  0  0  0  0  0  0  0  0
  133.4750  124.2180   64.6490 O   0  0  0  0  0  0  0  0  0  0  0  0
  131.0760  122.9870   63.2580 C   0  0  0  0  0  0  0  0  0  0  0  0
  130.7260  122.5480   64.7020 C   0  0  0  0  0  0  0  0  0  0  0  0
  129.8380  123.5720   65.4450 C   0  0  0  0  0  0  0  0  0  0  0  0
  130.5340  124.8640   65.3620 N   0  0  0  0  0  0  0  0  0  0  0  0
  131.1740  125.3810   66.5020 C   0  0  0  0  0  0  0  0  0  0  0  0
  132.3720  125.6690   66.5750 O   0  0  0  0  0  0  0  0  0  0  0  0
  130.3080  125.5360   67.5340 O   0  0  0  0  0  0  0  0  0  0  0  0
  129.5630  126.7370   67.7020 C   0  0  0  0  0  0  0  0  0  0  0  0
  129.4600  127.1530   69.1670 C   0  0  0  0  0  0  0  0  0  0  0  0
  130.5840  127.7260   69.7680 C   0  0  0  0  0  0  0  0  0  0  0  0
  130.5430  128.1190   71.1030 C   0  0  0  0  0  0  0  0  0  0  0  0
  129.3760  127.9330   71.8400 C   0  0  0  0  0  0  0  0  0  0  0  0
  128.2500  127.3600   71.2530 C   0  0  0  0  0  0  0  0  0  0  0  0
  128.2900  126.9700   69.9170 C   0  0  0  0  0  0  0  0  0  0  0  0
  130.6850  125.4480   64.0120 C   0  0  0  0  0  0  0  0  0  0  0  0
  129.4350  124.1690   58.9710 N   0  0  0  0  0  0  0  0  0  0  0  0
  128.7060  123.0300   59.3450 C   0  0  0  0  0  0  0  0  0  0  0  0
  128.2390  122.2000   58.5640 O   0  0  0  0  0  0  0  0  0  0  0  0
  128.6160  122.9330   60.7080 O   0  0  0  0  0  0  0  0  0  0  0  0
  127.6750  123.6430   61.5350 C   0  0  0  0  0  0  0  0  0  0  0  0
  128.1310  125.1000   61.7960 C   0  0  0  0  0  0  0  0  0  0  0  0
  126.2540  123.6040   60.9190 C   0  0  0  0  0  0  0  0  0  0  0  0
  127.6740  122.8610   62.8650 C   0  0  0  0  0  0  0  0  0  0  0  0
  128.8590  125.2830   58.2010 C   0  0  0  0  0  0  0  0  0  0  0  0
  130.0650  126.1380   57.8090 C   0  0  1  0  0  0  0  0  0  0  0  0
  129.6710  127.5030   57.7080 O   0  0  0  0  0  0  0  0  0  0  0  0
  128.6670  127.7630   56.7360 C   0  0  0  0  0  0  0  0  0  0  0  0
  131.3760  128.2856   61.1216 H   0  0  0  0  0  0  0  0  0  0  0  0
  132.2225  127.9841   59.5662 H   0  0  0  0  0  0  0  0  0  0  0  0
  130.5502  128.6401   59.5662 H   0  0  0  0  0  0  0  0  0  0  0  0
  132.1348  126.1074   58.6452 H   0  0  0  0  0  0  0  0  0  0  0  0
  131.4713  123.7064   58.5239 H   0  0  0  0  0  0  0  0  0  0  0  0
  130.9465  122.9369   60.8409 H   0  0  0  0  0  0  0  0  0  0  0  0
  132.5596  123.6067   60.3501 H   0  0  0  0  0  0  0  0  0  0  0  0
  132.1100  125.6030   61.4620 H   0  0  0  0  0  0  0  0  0  0  0  0
  130.5090  125.3300   61.5600 H   0  0  0  0  0  0  0  0  0  0  0  0
  130.1801  122.8630   62.6319 H   0  0  0  0  0  0  0  0  0  0  0  0
  131.9140  122.3558   62.9274 H   0  0  0  0  0  0  0  0  0  0  0  0
  130.1913  121.5878   64.6568 H   0  0  0  0  0  0  0  0  0  0  0  0
  131.6707  122.4655   65.2594 H   0  0  0  0  0  0  0  0  0  0  0  0
  128.8514  123.6399   64.9633 H   0  0  0  0  0  0  0  0  0  0  0  0
  129.6758  123.2734   66.4912 H   0  0  0  0  0  0  0  0  0  0  0  0
  130.0579  127.5422   67.1393 H   0  0  0  0  0  0  0  0  0  0  0  0
  128.5436  126.5561   67.3304 H   0  0  0  0  0  0  0  0  0  0  0  0
  131.5052  127.8672   69.1837 H   0  0  0  0  0  0  0  0  0  0  0  0
  131.4274  128.5739   71.5730 H   0  0  0  0  0  0  0  0  0  0  0  0
  129.3431  128.2414   72.8954 H   0  0  0  0  0  0  0  0  0  0  0  0
  127.3327  127.2162   71.8428 H   0  0  0  0  0  0  0  0  0  0  0  0
  127.4027  126.5179   69.4497 H   0  0  0  0  0  0  0  0  0  0  0  0
  129.6950  125.5716   63.5488 H   0  0  0  0  0  0  0  0  0  0  0  0
  131.1716  126.4321   64.0805 H   0  0  0  0  0  0  0  0  0  0  0  0
  128.1868  125.2781   62.8800 H   0  0  0  0  0  0  0  0  0  0  0  0
  129.1222  125.2601   61.3467 H   0  0  0  0  0  0  0  0  0  0  0  0
  127.4079  125.7966   61.3467 H   0  0  0  0  0  0  0  0  0  0  0  0
  125.5055  123.5835   61.7248 H   0  0  0  0  0  0  0  0  0  0  0  0
  126.0991  124.4982   60.2974 H   0  0  0  0  0  0  0  0  0  0  0  0
  126.1484  122.7026   60.2974 H   0  0  0  0  0  0  0  0  0  0  0  0
  127.6749  123.5692   63.7067 H   0  0  0  0  0  0  0  0  0  0  0  0
  126.7750  122.2293   62.9183 H   0  0  0  0  0  0  0  0  0  0  0  0
  128.5713  122.2270   62.9183 H   0  0  0  0  0  0  0  0  0  0  0  0
  128.3390  124.9100   57.3063 H   0  0  0  0  0  0  0  0  0  0  0  0
  128.1129  125.8496   58.7775 H   0  0  0  0  0  0  0  0  0  0  0  0
  130.4929  125.8991   56.8242 H   0  0  0  0  0  0  0  0  0  0  0  0
  127.7215  128.0079   57.2420 H   0  0  0  0  0  0  0  0  0  0  0  0
  128.9764  128.6106   56.1069 H   0  0  0  0  0  0  0  0  0  0  0  0
  128.5261  126.8717   56.1069 H   0  0  0  0  0  0  0  0  0  0  0  0
  1  2  1  0
  2  3  1  0
  3  4  1  0
  4  5  1  0
  5  6  1  0
  7  6  1  6
  7  8  1  0
  8  9  2  0
  8 10  1  0
  7 11  1  0
 11 12  1  0
 12 13  1  0
 13 14  1  0
 14 15  1  0
 15 16  2  0
 15 17  1  0
 17 18  1  0
 18 19  1  0
 19 20  2  0
 20 21  1  0
 21 22  2  0
 22 23  1  0
 23 24  2  0
 14 25  1  0
  4 26  1  0
 26 27  1  0
 27 28  2  0
 27 29  1  0
 29 30  1  0
 30 31  1  0
 30 32  1  0
 30 33  1  0
 26 34  1  0
 34 35  1  0
 35 36  1  0
 36 37  1  0
 35  3  1  0
 25  7  1  0
 24 19  1  0
  1 38  1  0
  1 39  1  0
  1 40  1  0
  3 41  1  6
  4 42  1  6
  5 43  1  0
  5 44  1  0
  6 45  1  0
  6 46  1  0
 11 47  1  0
 11 48  1  0
 12 49  1  0
 12 50  1  0
 13 51  1  0
 13 52  1  0
 18 53  1  0
 18 54  1  0
 20 55  1  0
 21 56  1  0
 22 57  1  0
 23 58  1  0
 24 59  1  0
 25 60  1  0
 25 61  1  0
 31 62  1  0
 31 63  1  0
 31 64  1  0
 32 65  1  0
 32 66  1  0
 32 67  1  0
 33 68  1  0
 33 69  1  0
 33 70  1  0
 34 71  1  0
 34 72  1  0
 35 73  1  6
 37 74  1  0
 37 75  1  0
 37 76  1  0
M  CHG  2   6   1  10  -1
M  END
>  <Binding energies>  (1) 
[-5.84]

>  <Ligand effiencies>  (1) 
[-0.14974358974358973]

>  <Interactions>  (1) 
["V-B:PRO:540:CA:9855, V-B:GLU:543:C:9874, V-B:HIS:456:CD2:9039, V-A:GLU:543:C:4902, V-B:GLU:543:CB:9878, V-B:ALA:541:CB:9864, H-A:TYR:531:OH:4795, H-A:ARG:545:NH1:4927, V-B:TYR:539:CE2:9848, V-A:TYR:484:CE2:4346, V-B:GLU:543:CG:9879, V-A:GLY:544:C:4912, V-A:ASP:366:CG:3213, V-B:TYR:539:CZ:9849, V-A:TYR:484:CZ:4347, V-B:PRO:540:CB:9857, V-B:HIS:456:CE1:9041, H-A:GLY:454:N:4050, V-A:HIS:456:CE1:4070, V-B:TYR:539:CD2:9846, V-A:MET:535:CE:4835, V-B:GLU:543:CD:9880, V-A:LEU:475:CD2:4259, H-A:ARG:545:NH2:4928, V-A:ARG:545:CZ:4926, V-A:GLU:543:CB:4906, H-A:ASP:366:OD1:3214, H-A:ARG:545:NE:4924, V-B:ALA:541:CA:9862, H-A:TYR:484:OH:4348"]

$$$$
ZINC2373732163
     RDKit          3D

 65 66  0  0  0  0  0  0  0  0999 V2000
  128.8800  127.1830   67.7780 C   0  0  0  0  0  0  0  0  0  0  0  0
  129.2260  126.4810   66.4580 C   0  0  0  0  0  0  0  0  0  0  0  0
  129.9170  125.1180   66.6670 C   0  0  0  0  0  0  0  0  0  0  0  0
  130.2770  124.3800   65.3440 C   0  0  2  0  0  0  0  0  0  0  0  0
  129.8070  122.8980   65.3590 C   0  0  0  0  0  0  0  0  0  0  0  0
  128.8230  122.4850   64.2500 C   0  0  0  0  0  0  0  0  0  0  0  0
  131.8090  124.4220   65.0000 N   0  0  2  0  0  0  0  0  0  0  0  0
  132.5850  125.4710   65.8460 C   0  0  0  0  0  0  0  0  0  0  0  0
  132.2370  124.2180   63.4880 C   0  0  2  0  0  0  0  0  0  0  0  0
  133.7850  124.4280   63.2580 C   0  0  0  0  0  0  0  0  0  0  0  0
  134.3120  123.9970   62.2080 O   0  0  0  0  0  0  0  0  0  0  0  0
  134.4390  125.1010   64.0890 O   0  0  0  0  0  0  0  0  0  0  0  0
  131.3500  125.1870   62.5910 C   0  0  0  0  0  0  0  0  0  0  0  0
  130.0800  124.5290   62.0040 C   0  0  0  0  0  0  0  0  0  0  0  0
  130.4010  123.2800   61.1330 C   0  0  1  0  0  0  0  0  0  0  0  0
  131.6720  122.5190   61.5830 C   0  0  2  0  0  0  0  0  0  0  0  0
  131.4120  121.0690   61.1970 C   0  0  0  0  0  0  0  0  0  0  0  0
  129.8990  120.8810   61.2370 C   0  0  0  0  0  0  0  0  0  0  0  0
  129.3660  122.2340   61.0370 N   0  0  0  0  0  0  0  0  0  0  0  0
  128.0250  122.5080   60.7280 C   0  0  0  0  0  0  0  0  0  0  0  0
  127.1670  122.8460   61.5450 O   0  0  0  0  0  0  0  0  0  0  0  0
  127.7850  122.3460   59.3870 O   0  0  0  0  0  0  0  0  0  0  0  0
  127.3110  123.3690   58.4920 C   0  0  0  0  0  0  0  0  0  0  0  0
  125.9800  123.9850   58.9900 C   0  0  0  0  0  0  0  0  0  0  0  0
  128.3830  124.4660   58.2720 C   0  0  0  0  0  0  0  0  0  0  0  0
  127.0620  122.6260   57.1640 C   0  0  0  0  0  0  0  0  0  0  0  0
  131.9110  122.7280   63.1000 C   0  0  0  0  0  0  0  0  0  0  0  0
  129.1917  126.5506   68.6223 H   0  0  0  0  0  0  0  0  0  0  0  0
  129.4057  128.1479   67.8289 H   0  0  0  0  0  0  0  0  0  0  0  0
  127.7945  127.3538   67.8289 H   0  0  0  0  0  0  0  0  0  0  0  0
  128.2968  126.3204   65.8917 H   0  0  0  0  0  0  0  0  0  0  0  0
  129.9298  127.1283   65.9142 H   0  0  0  0  0  0  0  0  0  0  0  0
  130.8450  125.2841   67.2338 H   0  0  0  0  0  0  0  0  0  0  0  0
  129.2013  124.4777   67.2035 H   0  0  0  0  0  0  0  0  0  0  0  0
  129.7369  124.9330   64.5614 H   0  0  0  0  0  0  0  0  0  0  0  0
  130.7000  122.2620   65.2690 H   0  0  0  0  0  0  0  0  0  0  0  0
  129.2554  122.7741   66.3026 H   0  0  0  0  0  0  0  0  0  0  0  0
  127.8995  122.0974   64.7049 H   0  0  0  0  0  0  0  0  0  0  0  0
  128.5855  123.3594   63.6262 H   0  0  0  0  0  0  0  0  0  0  0  0
  129.2807  121.7031   63.6262 H   0  0  0  0  0  0  0  0  0  0  0  0
  132.1290  123.5520   65.4010 H   0  0  0  0  0  0  0  0  0  0  0  0
  132.4324  125.2648   66.9157 H   0  0  0  0  0  0  0  0  0  0  0  0
  133.6578  125.4110   65.6104 H   0  0  0  0  0  0  0  0  0  0  0  0
  132.2137  126.4793   65.6104 H   0  0  0  0  0  0  0  0  0  0  0  0
  131.0399  126.0414   63.2105 H   0  0  0  0  0  0  0  0  0  0  0  0
  131.9748  125.4824   61.7352 H   0  0  0  0  0  0  0  0  0  0  0  0
  129.4270  124.2213   62.8340 H   0  0  0  0  0  0  0  0  0  0  0  0
  129.5901  125.2703   61.3556 H   0  0  0  0  0  0  0  0  0  0  0  0
  130.5094  123.7751   60.1567 H   0  0  0  0  0  0  0  0  0  0  0  0
  132.5949  122.8780   61.1040 H   0  0  0  0  0  0  0  0  0  0  0  0
  131.7941  120.8697   60.1849 H   0  0  0  0  0  0  0  0  0  0  0  0
  131.9197  120.3751   61.8830 H   0  0  0  0  0  0  0  0  0  0  0  0
  129.5676  120.2077   60.4328 H   0  0  0  0  0  0  0  0  0  0  0  0
  129.5543  120.4256   62.1771 H   0  0  0  0  0  0  0  0  0  0  0  0
  125.9675  123.9908   60.0899 H   0  0  0  0  0  0  0  0  0  0  0  0
  125.8908  125.0159   58.6169 H   0  0  0  0  0  0  0  0  0  0  0  0
  125.1364  123.3858   58.6169 H   0  0  0  0  0  0  0  0  0  0  0  0
  128.7396  124.8309   59.2465 H   0  0  0  0  0  0  0  0  0  0  0  0
  129.2276  124.0452   57.7066 H   0  0  0  0  0  0  0  0  0  0  0  0
  127.9429  125.3007   57.7066 H   0  0  0  0  0  0  0  0  0  0  0  0
  126.7190  121.6024   57.3753 H   0  0  0  0  0  0  0  0  0  0  0  0
  126.2931  123.1582   56.5847 H   0  0  0  0  0  0  0  0  0  0  0  0
  127.9963  122.5874   56.5847 H   0  0  0  0  0  0  0  0  0  0  0  0
  131.0044  122.4184   63.6406 H   0  0  0  0  0  0  0  0  0  0  0  0
  132.7887  122.1243   63.3741 H   0  0  0  0  0  0  0  0  0  0  0  0
  1  2  1  0
  2  3  1  0
  3  4  1  0
  4  5  1  0
  5  6  1  0
  4  7  1  0
  7  8  1  0
  7  9  1  0
  9 10  1  1
 10 11  2  0
 10 12  1  0
  9 13  1  0
 13 14  1  0
 14 15  1  0
 15 16  1  0
 16 17  1  0
 17 18  1  0
 18 19  1  0
 19 20  1  0
 20 21  2  0
 20 22  1  0
 22 23  1  0
 23 24  1  0
 23 25  1  0
 23 26  1  0
 16 27  1  0
 27  9  1  0
 19 15  1  0
  1 28  1  0
  1 29  1  0
  1 30  1  0
  2 31  1  0
  2 32  1  0
  3 33  1  0
  3 34  1  0
  4 35  1  6
  5 36  1  0
  5 37  1  0
  6 38  1  0
  6 39  1  0
  6 40  1  0
  7 41  1  1
  8 42  1  0
  8 43  1  0
  8 44  1  0
 13 45  1  0
 13 46  1  0
 14 47  1  0
 14 48  1  0
 15 49  1  6
 16 50  1  6
 17 51  1  0
 17 52  1  0
 18 53  1  0
 18 54  1  0
 24 55  1  0
 24 56  1  0
 24 57  1  0
 25 58  1  0
 25 59  1  0
 25 60  1  0
 26 61  1  0
 26 62  1  0
 26 63  1  0
 27 64  1  0
 27 65  1  0
M  CHG  2   7   1  12  -1
M  END
>  <Binding energies>  (1) 
[-7.23]

>  <Ligand effiencies>  (1) 
[-0.25821428571428573]

>  <Interactions>  (1) 
["V-B:PRO:540:CA:9855, V-A:GLY:454:CA:4049, V-B:GLU:543:CB:9878, V-B:ALA:541:CB:9864, H-A:ARG:545:NH1:4927, V-B:TYR:539:CE2:9848, V-A:TYR:484:CE2:4346, V-B:GLU:543:CG:9879, V-B:TYR:539:C:9839, H-B:ALA:541:N:9863, V-A:TYR:484:CZ:4347, V-A:GLU:543:CD:4908, V-B:PRO:540:CB:9857, H-A:GLY:454:N:4050, V-B:PRO:540:N:9856, V-A:HIS:456:CE1:4070, V-B:TYR:539:CD2:9846, V-B:PRO:540:CD:9859, V-B:GLU:543:CD:9880, V-A:ARG:545:CD:4923, V-A:LEU:475:CD2:4259, H-A:ARG:545:NH2:4928, V-A:ARG:545:CZ:4926, H-A:ARG:545:NE:4924, V-B:PRO:540:C:9853, H-A:TYR:484:OH:4348"]

$$$$
ZINC2377438379
     RDKit          3D

 73 75  0  0  0  0  0  0  0  0999 V2000
  126.8090  125.7330   58.9590 C   0  0  0  0  0  0  0  0  0  0  0  0
  126.8690  124.4100   59.7620 C   0  0  0  0  0  0  0  0  0  0  0  0
  127.4620  123.2650   58.9040 C   0  0  0  0  0  0  0  0  0  0  0  0
  125.4460  124.0240   60.2130 C   0  0  0  0  0  0  0  0  0  0  0  0
  127.5990  124.5730   60.9920 O   0  0  0  0  0  0  0  0  0  0  0  0
  128.1910  123.5680   61.7140 C   0  0  0  0  0  0  0  0  0  0  0  0
  127.7230  122.4290   61.7900 O   0  0  0  0  0  0  0  0  0  0  0  0
  129.3850  123.9920   62.3330 N   0  0  0  0  0  0  0  0  0  0  0  0
  129.8690  125.3950   62.2280 C   0  0  0  0  0  0  0  0  0  0  0  0
  130.2020  125.9210   63.6420 C   0  0  0  0  0  0  0  0  0  0  0  0
  131.1710  124.9990   64.4190 C   0  0  0  0  0  0  0  0  0  0  0  0
  132.5670  124.8860   63.7310 C   0  0  0  0  0  0  0  0  0  0  0  0
  133.6360  124.7870   64.6540 O   0  0  0  0  0  0  0  0  0  0  0  0
  131.3270  125.4880   65.8930 N   0  0  0  0  0  0  0  0  0  0  0  0
  130.1470  125.7510   66.8800 C   0  0  2  0  0  0  0  0  0  0  0  0
  129.6300  124.3760   67.4470 C   0  0  0  0  0  0  0  0  0  0  0  0
  129.7750  124.1380   68.6690 O   0  0  0  0  0  0  0  0  0  0  0  0
  129.1260  123.5480   66.6510 O   0  0  0  0  0  0  0  0  0  0  0  0
  129.0660  126.6780   66.2630 C   0  0  0  0  0  0  0  0  0  0  0  0
  128.2820  127.5840   67.6250 S   0  0  0  0  0  0  0  0  0  0  0  0
  129.5700  127.2240   68.8560 C   0  0  0  0  0  0  0  0  0  0  0  0
  129.9510  128.4030   69.7720 C   0  0  0  0  0  0  0  0  0  0  0  0
  129.3590  127.6180   70.8770 N   0  0  0  0  0  0  0  0  0  0  0  0
  129.1720  127.9130   72.2170 C   0  0  0  0  0  0  0  0  0  0  0  0
  128.9530  129.0380   72.6660 O   0  0  0  0  0  0  0  0  0  0  0  0
  129.2770  126.7730   72.9590 O   0  0  0  0  0  0  0  0  0  0  0  0
  130.2360  126.5460   74.0080 C   0  0  0  0  0  0  0  0  0  0  0  0
  130.2110  125.0740   74.4920 C   0  0  0  0  0  0  0  0  0  0  0  0
  131.6610  126.9590   73.5650 C   0  0  0  0  0  0  0  0  0  0  0  0
  129.7710  127.4660   75.1560 C   0  0  0  0  0  0  0  0  0  0  0  0
  129.0870  126.4060   70.0710 C   0  0  0  0  0  0  0  0  0  0  0  0
  130.7290  126.6040   68.0430 C   0  0  0  0  0  0  0  0  0  0  0  0
  130.4540  123.6320   64.5310 C   0  0  0  0  0  0  0  0  0  0  0  0
  130.1240  123.0050   63.1580 C   0  0  0  0  0  0  0  0  0  0  0  0
  126.7704  126.5834   59.6557 H   0  0  0  0  0  0  0  0  0  0  0  0
  127.7042  125.8183   58.3255 H   0  0  0  0  0  0  0  0  0  0  0  0
  125.9098  125.7369   58.3255 H   0  0  0  0  0  0  0  0  0  0  0  0
  127.8666  122.4838   59.5643 H   0  0  0  0  0  0  0  0  0  0  0  0
  126.6727  122.8360   58.2692 H   0  0  0  0  0  0  0  0  0  0  0  0
  128.2678  123.6621   58.2692 H   0  0  0  0  0  0  0  0  0  0  0  0
  125.4004  124.0116   61.3120 H   0  0  0  0  0  0  0  0  0  0  0  0
  124.7261  124.7593   59.8244 H   0  0  0  0  0  0  0  0  0  0  0  0
  125.1963  123.0257   59.8244 H   0  0  0  0  0  0  0  0  0  0  0  0
  130.7720  125.4274   61.6007 H   0  0  0  0  0  0  0  0  0  0  0  0
  129.0894  126.0233   61.7725 H   0  0  0  0  0  0  0  0  0  0  0  0
  130.6649  126.9143   63.5462 H   0  0  0  0  0  0  0  0  0  0  0  0
  129.2598  125.9590   64.2085 H   0  0  0  0  0  0  0  0  0  0  0  0
  132.5712  123.9897   63.0933 H   0  0  0  0  0  0  0  0  0  0  0  0
  132.7209  125.8069   63.1493 H   0  0  0  0  0  0  0  0  0  0  0  0
  133.3940  124.1580   65.3390 H   0  0  0  0  0  0  0  0  0  0  0  0
  131.9250  124.8220   66.3610 H   0  0  0  0  0  0  0  0  0  0  0  0
  131.8540  126.3480   65.8420 H   0  0  0  0  0  0  0  0  0  0  0  0
  129.5334  127.3849   65.5617 H   0  0  0  0  0  0  0  0  0  0  0  0
  128.3200  126.0883   65.7101 H   0  0  0  0  0  0  0  0  0  0  0  0
  131.0316  128.5877   69.8630 H   0  0  0  0  0  0  0  0  0  0  0  0
  129.6441  129.4371   69.5563 H   0  0  0  0  0  0  0  0  0  0  0  0
  130.2106  125.0496   75.5917 H   0  0  0  0  0  0  0  0  0  0  0  0
  129.3043  124.5790   74.1139 H   0  0  0  0  0  0  0  0  0  0  0  0
  131.1004  124.5485   74.1139 H   0  0  0  0  0  0  0  0  0  0  0  0
  132.2834  127.1394   74.4538 H   0  0  0  0  0  0  0  0  0  0  0  0
  132.1060  126.1529   72.9632 H   0  0  0  0  0  0  0  0  0  0  0  0
  131.6059  127.8781   72.9632 H   0  0  0  0  0  0  0  0  0  0  0  0
  130.0086  126.9960   76.1217 H   0  0  0  0  0  0  0  0  0  0  0  0
  130.2880  128.4341   75.0824 H   0  0  0  0  0  0  0  0  0  0  0  0
  128.6849  127.6238   75.0824 H   0  0  0  0  0  0  0  0  0  0  0  0
  129.7107  125.5348   70.3201 H   0  0  0  0  0  0  0  0  0  0  0  0
  128.1125  125.8959   70.0866 H   0  0  0  0  0  0  0  0  0  0  0  0
  131.3579  127.4065   67.6302 H   0  0  0  0  0  0  0  0  0  0  0  0
  131.3364  125.9637   68.6995 H   0  0  0  0  0  0  0  0  0  0  0  0
  131.1054  122.9396   65.0843 H   0  0  0  0  0  0  0  0  0  0  0  0
  129.4997  123.8044   65.0502 H   0  0  0  0  0  0  0  0  0  0  0  0
  131.0576  122.7253   62.6479 H   0  0  0  0  0  0  0  0  0  0  0  0
  129.5043  122.1077   63.3021 H   0  0  0  0  0  0  0  0  0  0  0  0
  1  2  1  0
  2  3  1  0
  2  4  1  0
  2  5  1  0
  5  6  1  0
  6  7  2  0
  6  8  1  0
  8  9  1  0
  9 10  1  0
 10 11  1  0
 11 12  1  0
 12 13  1  0
 11 14  1  0
 15 14  1  6
 15 16  1  0
 16 17  2  0
 16 18  1  0
 15 19  1  0
 19 20  1  0
 20 21  1  0
 21 22  1  0
 22 23  1  0
 23 24  1  0
 24 25  2  0
 24 26  1  0
 26 27  1  0
 27 28  1  0
 27 29  1  0
 27 30  1  0
 23 31  1  0
 21 32  1  0
 11 33  1  0
 33 34  1  0
 34  8  1  0
 32 15  1  0
 31 21  1  0
  1 35  1  0
  1 36  1  0
  1 37  1  0
  3 38  1  0
  3 39  1  0
  3 40  1  0
  4 41  1  0
  4 42  1  0
  4 43  1  0
  9 44  1  0
  9 45  1  0
 10 46  1  0
 10 47  1  0
 12 48  1  0
 12 49  1  0
 13 50  1  0
 14 51  1  0
 14 52  1  0
 19 53  1  0
 19 54  1  0
 22 55  1  0
 22 56  1  0
 28 57  1  0
 28 58  1  0
 28 59  1  0
 29 60  1  0
 29 61  1  0
 29 62  1  0
 30 63  1  0
 30 64  1  0
 30 65  1  0
 31 66  1  0
 31 67  1  0
 32 68  1  0
 32 69  1  0
 33 70  1  0
 33 71  1  0
 34 72  1  0
 34 73  1  0
M  CHG  2  14   1  18  -1
M  END
>  <Binding energies>  (1) 
[-7.3]

>  <Ligand effiencies>  (1) 
[-0.19729729729729728]

>  <Interactions>  (1) 
["V-B:PRO:540:CA:9855, V-A:GLU:543:CA:4904, V-B:GLU:543:C:9874, H-A:GLU:543:OE2:4910, V-A:GLU:543:C:4902, V-B:HIS:456:CD2:9039, V-B:GLU:543:CB:9878, H-B:LYS:547:NZ:9923, V-A:TYR:484:CE2:4346, V-B:GLU:543:CG:9879, V-A:GLY:544:C:4912, V-A:HIS:456:CD2:4068, H-B:ALA:541:N:9863, V-A:GLU:543:CD:4908, V-B:PRO:540:CB:9857, V-A:TYR:484:CZ:4347, V-B:GLU:543:CA:9876, H-A:GLY:454:N:4050, V-B:PRO:540:N:9856, V-A:HIS:456:CE1:4070, V-B:GLU:543:CD:9880, V-A:LEU:475:CD2:4259, H-A:ARG:545:NH2:4928, V-A:ARG:545:CZ:4926, H-A:GLU:543:OE1:4909, V-A:GLU:543:CB:4906, V-A:HIS:456:CG:4066, H-A:ARG:545:NE:4924, H-A:TYR:484:OH:4348"]

$$$$
ZINC2377917286
     RDKit          3D

 73 75  0  0  0  0  0  0  0  0999 V2000
  130.4300  127.5180   68.7650 C   0  0  0  0  0  0  0  0  0  0  0  0
  128.9720  127.4720   68.2460 C   0  0  0  0  0  0  0  0  0  0  0  0
  128.5080  128.8680   67.7630 C   0  0  0  0  0  0  0  0  0  0  0  0
  128.0410  126.9940   69.3790 C   0  0  0  0  0  0  0  0  0  0  0  0
  128.8160  126.4780   67.2170 O   0  0  0  0  0  0  0  0  0  0  0  0
  129.5280  125.3110   67.1200 C   0  0  0  0  0  0  0  0  0  0  0  0
  129.9000  124.6530   68.0940 O   0  0  0  0  0  0  0  0  0  0  0  0
  129.8030  124.9850   65.7810 N   0  0  0  0  0  0  0  0  0  0  0  0
  129.6970  123.6250   65.2190 C   0  0  0  0  0  0  0  0  0  0  0  0
  130.9970  123.0720   64.6060 C   0  0  0  0  0  0  0  0  0  0  0  0
  131.4890  123.8150   63.0170 S   0  0  0  0  0  0  0  0  0  0  0  0
  129.8990  124.6290   62.6610 C   0  0  0  0  0  0  0  0  0  0  0  0
  129.6560  125.9520   63.4310 C   0  0  2  0  0  0  0  0  0  0  0  0
  130.2250  127.1310   62.6110 N   0  0  0  0  0  0  0  0  0  0  0  0
  129.3600  127.7260   61.4540 C   0  0  2  0  0  0  0  0  0  0  0  0
  129.7140  126.9300   60.1410 C   0  0  0  0  0  0  0  0  0  0  0  0
  129.0170  127.0350   59.1010 O   0  0  0  0  0  0  0  0  0  0  0  0
  130.7480  126.2250   60.1760 O   0  0  0  0  0  0  0  0  0  0  0  0
  129.5060  129.2600   61.3260 C   0  0  0  0  0  0  0  0  0  0  0  0
  128.5560  129.8410   62.2910 N   0  0  0  0  0  0  0  0  0  0  0  0
  128.6200  131.1840   62.7070 C   0  0  0  0  0  0  0  0  0  0  0  0
  128.4670  131.5800   63.8630 O   0  0  0  0  0  0  0  0  0  0  0  0
  128.9070  132.0140   61.6550 O   0  0  0  0  0  0  0  0  0  0  0  0
  127.9470  132.7600   60.8860 C   0  0  0  0  0  0  0  0  0  0  0  0
  126.6850  131.9130   60.5880 C   0  0  0  0  0  0  0  0  0  0  0  0
  127.5760  134.0910   61.5860 C   0  0  0  0  0  0  0  0  0  0  0  0
  128.6800  133.0690   59.5650 C   0  0  0  0  0  0  0  0  0  0  0  0
  127.5730  128.8430   62.7840 C   0  0  2  0  0  0  0  0  0  0  0  0
  126.1000  129.2900   62.7560 C   0  0  0  0  0  0  0  0  0  0  0  0
  125.6920  129.5610   64.2070 C   0  0  0  0  0  0  0  0  0  0  0  0
  126.8740  129.3930   64.9750 O   0  0  0  0  0  0  0  0  0  0  0  0
  127.7240  128.4970   64.2810 C   0  0  0  0  0  0  0  0  0  0  0  0
  127.8710  127.6780   61.8170 C   0  0  0  0  0  0  0  0  0  0  0  0
  130.2370  126.0480   64.8630 C   0  0  0  0  0  0  0  0  0  0  0  0
  130.4278  127.5179   69.8650 H   0  0  0  0  0  0  0  0  0  0  0  0
  130.9773  126.6367   68.3994 H   0  0  0  0  0  0  0  0  0  0  0  0
  130.9207  128.4321   68.3994 H   0  0  0  0  0  0  0  0  0  0  0  0
  128.2961  129.5056   68.6340 H   0  0  0  0  0  0  0  0  0  0  0  0
  129.3014  129.3284   67.1559 H   0  0  0  0  0  0  0  0  0  0  0  0
  127.5968  128.7618   67.1559 H   0  0  0  0  0  0  0  0  0  0  0  0
  128.4974  127.2283   70.3520 H   0  0  0  0  0  0  0  0  0  0  0  0
  127.0706  127.5054   69.2965 H   0  0  0  0  0  0  0  0  0  0  0  0
  127.8910  125.9074   69.2965 H   0  0  0  0  0  0  0  0  0  0  0  0
  129.3839  122.9457   66.0256 H   0  0  0  0  0  0  0  0  0  0  0  0
  128.9707  123.6880   64.3953 H   0  0  0  0  0  0  0  0  0  0  0  0
  131.8108  123.2414   65.3264 H   0  0  0  0  0  0  0  0  0  0  0  0
  130.8057  122.0090   64.3974 H   0  0  0  0  0  0  0  0  0  0  0  0
  129.8613  124.8488   61.5838 H   0  0  0  0  0  0  0  0  0  0  0  0
  129.1149  123.9317   62.9910 H   0  0  0  0  0  0  0  0  0  0  0  0
  128.5636  125.9864   63.5557 H   0  0  0  0  0  0  0  0  0  0  0  0
  130.4310  127.8910   63.2450 H   0  0  0  0  0  0  0  0  0  0  0  0
  131.1070  126.8320   62.2230 H   0  0  0  0  0  0  0  0  0  0  0  0
  130.5337  129.5676   61.5691 H   0  0  0  0  0  0  0  0  0  0  0  0
  129.2973  129.6002   60.3009 H   0  0  0  0  0  0  0  0  0  0  0  0
  126.2206  131.6013   61.5352 H   0  0  0  0  0  0  0  0  0  0  0  0
  125.9686  132.5138   60.0086 H   0  0  0  0  0  0  0  0  0  0  0  0
  126.9696  131.0223   60.0086 H   0  0  0  0  0  0  0  0  0  0  0  0
  127.6140  133.9546   62.6768 H   0  0  0  0  0  0  0  0  0  0  0  0
  128.2904  134.8730   61.2891 H   0  0  0  0  0  0  0  0  0  0  0  0
  126.5601  134.3907   61.2891 H   0  0  0  0  0  0  0  0  0  0  0  0
  129.6730  133.4876   59.7859 H   0  0  0  0  0  0  0  0  0  0  0  0
  128.7938  132.1423   58.9834 H   0  0  0  0  0  0  0  0  0  0  0  0
  128.0961  133.7975   58.9834 H   0  0  0  0  0  0  0  0  0  0  0  0
  125.9934  130.2054   62.1554 H   0  0  0  0  0  0  0  0  0  0  0  0
  125.4614  128.5165   62.3044 H   0  0  0  0  0  0  0  0  0  0  0  0
  125.3083  130.5865   64.3126 H   0  0  0  0  0  0  0  0  0  0  0  0
  124.8923  128.8821   64.5379 H   0  0  0  0  0  0  0  0  0  0  0  0
  128.7673  128.6335   64.6018 H   0  0  0  0  0  0  0  0  0  0  0  0
  127.4562  127.4492   64.4820 H   0  0  0  0  0  0  0  0  0  0  0  0
  127.6373  126.7201   62.3047 H   0  0  0  0  0  0  0  0  0  0  0  0
  127.2555  127.7700   60.9100 H   0  0  0  0  0  0  0  0  0  0  0  0
  131.3339  126.0091   64.7898 H   0  0  0  0  0  0  0  0  0  0  0  0
  129.8612  126.9917   65.2851 H   0  0  0  0  0  0  0  0  0  0  0  0
  1  2  1  0
  2  3  1  0
  2  4  1  0
  2  5  1  0
  5  6  1  0
  6  7  2  0
  6  8  1  0
  8  9  1  0
  9 10  1  0
 10 11  1  0
 11 12  1  0
 12 13  1  0
 13 14  1  0
 15 14  1  1
 15 16  1  0
 16 17  2  0
 16 18  1  0
 15 19  1  0
 19 20  1  0
 20 21  1  0
 21 22  2  0
 21 23  1  0
 23 24  1  0
 24 25  1  0
 24 26  1  0
 24 27  1  0
 28 20  1  6
 28 29  1  0
 29 30  1  0
 30 31  1  0
 31 32  1  0
 28 33  1  0
 13 34  1  0
 34  8  1  0
 33 15  1  0
 32 28  1  0
  1 35  1  0
  1 36  1  0
  1 37  1  0
  3 38  1  0
  3 39  1  0
  3 40  1  0
  4 41  1  0
  4 42  1  0
  4 43  1  0
  9 44  1  0
  9 45  1  0
 10 46  1  0
 10 47  1  0
 12 48  1  0
 12 49  1  0
 13 50  1  1
 14 51  1  0
 14 52  1  0
 19 53  1  0
 19 54  1  0
 25 55  1  0
 25 56  1  0
 25 57  1  0
 26 58  1  0
 26 59  1  0
 26 60  1  0
 27 61  1  0
 27 62  1  0
 27 63  1  0
 29 64  1  0
 29 65  1  0
 30 66  1  0
 30 67  1  0
 32 68  1  0
 32 69  1  0
 33 70  1  0
 33 71  1  0
 34 72  1  0
 34 73  1  0
M  CHG  2  14   1  18  -1
M  END
>  <Binding energies>  (1) 
[-3.55]

>  <Ligand effiencies>  (1) 
[-0.09342105263157895]

>  <Interactions>  (1) 
["V-B:GLU:543:C:9874, H-A:GLU:543:OE2:4910, V-B:GLU:543:CB:9878, V-A:TYR:484:CE2:4346, V-B:GLU:543:CG:9879, V-B:LEU:475:CD2:9230, V-A:TYR:539:CD1:4873, V-A:GLU:543:CD:4908, V-A:TYR:484:CZ:4347, H-B:TYR:484:OH:9319, V-B:HIS:456:CE1:9041, V-B:GLU:543:CA:9876, V-A:HIS:456:CE1:4070, V-A:GLU:543:CG:4907, V-B:GLU:543:CD:9880, V-B:ARG:545:CZ:9898, V-A:TYR:539:C:4867, V-A:LEU:475:CD2:4259, H-A:GLU:543:OE1:4909, V-A:GLU:543:CB:4906, V-A:PRO:540:N:4884, V-A:PRO:540:CA:4883, H-A:TYR:484:OH:4348"]

$$$$
ZINC2378811097
     RDKit          3D

 76 77  0  0  0  0  0  0  0  0999 V2000
  131.4300  131.3850   56.4790 C   0  0  0  0  0  0  0  0  0  0  0  0
  131.4270  132.2920   58.0500 S   0  0  0  0  0  0  0  0  0  0  0  0
  130.1980  131.3440   59.0020 C   0  0  0  0  0  0  0  0  0  0  0  0
  130.7440  130.2220   59.9230 C   0  0  1  0  0  0  0  0  0  0  0  0
  131.6340  130.7610   60.9740 N   0  0  0  0  0  0  0  0  0  0  0  0
  131.3810  131.8510   61.8070 C   0  0  0  0  0  0  0  0  0  0  0  0
  132.1300  132.1960   62.7190 O   0  0  0  0  0  0  0  0  0  0  0  0
  130.2130  132.4780   61.4790 O   0  0  0  0  0  0  0  0  0  0  0  0
  129.0190  132.4990   62.2790 C   0  0  0  0  0  0  0  0  0  0  0  0
  128.0010  131.4350   61.7990 C   0  0  0  0  0  0  0  0  0  0  0  0
  129.5110  132.1370   63.6950 C   0  0  0  0  0  0  0  0  0  0  0  0
  128.3840  133.9110   62.3030 C   0  0  0  0  0  0  0  0  0  0  0  0
  129.6700  129.2050   60.3980 C   0  0  0  0  0  0  0  0  0  0  0  0
  130.6890  128.0540   60.1560 C   0  0  1  0  0  0  0  0  0  0  0  0
  131.5930  127.6830   61.3660 N   0  0  0  0  0  0  0  0  0  0  0  0
  131.9210  126.1890   61.5390 C   0  0  0  0  0  0  0  0  0  0  0  0
  131.1030  125.6080   62.7150 C   0  0  1  0  0  0  0  0  0  0  0  0
  129.8150  124.9010   62.2230 C   0  0  0  0  0  0  0  0  0  0  0  0
  130.1290  123.6950   61.4540 N   0  0  0  0  0  0  0  0  0  0  0  0
  128.9100  123.1290   60.8840 C   0  0  0  0  0  0  0  0  0  0  0  0
  130.7760  122.7140   62.3300 C   0  0  0  0  0  0  0  0  0  0  0  0
  132.0780  123.2570   62.9700 C   0  0  0  0  0  0  0  0  0  0  0  0
  131.8410  124.6060   63.5290 N   0  0  0  0  0  0  0  0  0  0  0  0
  132.6080  124.9810   64.6500 C   0  0  0  0  0  0  0  0  0  0  0  0
  133.8010  124.7170   64.8120 O   0  0  0  0  0  0  0  0  0  0  0  0
  131.8680  125.6980   65.5540 O   0  0  0  0  0  0  0  0  0  0  0  0
  130.5170  125.4060   65.9570 C   0  0  0  0  0  0  0  0  0  0  0  0
  129.4940  126.2970   65.2110 C   0  0  0  0  0  0  0  0  0  0  0  0
  130.1890  123.9040   65.7710 C   0  0  0  0  0  0  0  0  0  0  0  0
  130.4960  125.7470   67.4620 C   0  0  0  0  0  0  0  0  0  0  0  0
  130.0950  126.7580   59.4910 C   0  0  0  0  0  0  0  0  0  0  0  0
  130.8670  126.0630   58.7900 O   0  0  0  0  0  0  0  0  0  0  0  0
  128.8950  126.4430   59.6770 O   0  0  0  0  0  0  0  0  0  0  0  0
  131.3790  129.0320   59.1630 C   0  0  0  0  0  0  0  0  0  0  0  0
  131.4336  130.3035   56.6800 H   0  0  0  0  0  0  0  0  0  0  0  0
  130.5310  131.6478   55.9022 H   0  0  0  0  0  0  0  0  0  0  0  0
  132.3273  131.6537   55.9022 H   0  0  0  0  0  0  0  0  0  0  0  0
  129.6458  132.0549   59.6343 H   0  0  0  0  0  0  0  0  0  0  0  0
  129.5856  130.8268   58.2487 H   0  0  0  0  0  0  0  0  0  0  0  0
  132.5110  130.2810   61.1070 H   0  0  0  0  0  0  0  0  0  0  0  0
  127.5378  130.9509   62.6714 H   0  0  0  0  0  0  0  0  0  0  0  0
  127.2221  131.9201   61.1923 H   0  0  0  0  0  0  0  0  0  0  0  0
  128.5201  130.6783   61.1923 H   0  0  0  0  0  0  0  0  0  0  0  0
  128.8610  132.6153   64.4425 H   0  0  0  0  0  0  0  0  0  0  0  0
  129.4792  131.0453   63.8263 H   0  0  0  0  0  0  0  0  0  0  0  0
  130.5438  132.4922   63.8263 H   0  0  0  0  0  0  0  0  0  0  0  0
  128.2402  134.2307   63.3456 H   0  0  0  0  0  0  0  0  0  0  0  0
  129.0495  134.6211   61.7902 H   0  0  0  0  0  0  0  0  0  0  0  0
  127.4112  133.8843   61.7902 H   0  0  0  0  0  0  0  0  0  0  0  0
  129.3649  129.3261   61.4479 H   0  0  0  0  0  0  0  0  0  0  0  0
  128.6714  129.1815   59.9372 H   0  0  0  0  0  0  0  0  0  0  0  0
  132.4550  128.2010   61.2680 H   0  0  0  0  0  0  0  0  0  0  0  0
  131.1430  128.0040   62.2100 H   0  0  0  0  0  0  0  0  0  0  0  0
  131.6663  125.6495   60.6148 H   0  0  0  0  0  0  0  0  0  0  0  0
  132.9944  126.0741   61.7504 H   0  0  0  0  0  0  0  0  0  0  0  0
  130.8764  126.4882   63.3345 H   0  0  0  0  0  0  0  0  0  0  0  0
  129.2049  124.6212   63.0945 H   0  0  0  0  0  0  0  0  0  0  0  0
  129.2664  125.5955   61.5698 H   0  0  0  0  0  0  0  0  0  0  0  0
  128.2366  122.8163   61.6956 H   0  0  0  0  0  0  0  0  0  0  0  0
  128.4092  123.8867   60.2634 H   0  0  0  0  0  0  0  0  0  0  0  0
  129.1657  122.2575   60.2634 H   0  0  0  0  0  0  0  0  0  0  0  0
  130.0752  122.4419   63.1330 H   0  0  0  0  0  0  0  0  0  0  0  0
  131.0445  121.8426   61.7147 H   0  0  0  0  0  0  0  0  0  0  0  0
  132.3982  122.5797   63.7755 H   0  0  0  0  0  0  0  0  0  0  0  0
  132.8616  123.3170   62.2003 H   0  0  0  0  0  0  0  0  0  0  0  0
  128.8749  126.8362   65.9431 H   0  0  0  0  0  0  0  0  0  0  0  0
  130.0300  127.0212   64.5799 H   0  0  0  0  0  0  0  0  0  0  0  0
  128.8502  125.6666   64.5799 H   0  0  0  0  0  0  0  0  0  0  0  0
  130.0848  123.4267   66.7565 H   0  0  0  0  0  0  0  0  0  0  0  0
  129.2472  123.8008   65.2122 H   0  0  0  0  0  0  0  0  0  0  0  0
  131.0021  123.4176   65.2122 H   0  0  0  0  0  0  0  0  0  0  0  0
  130.5532  124.8186   68.0492 H   0  0  0  0  0  0  0  0  0  0  0  0
  131.3564  126.3879   67.7048 H   0  0  0  0  0  0  0  0  0  0  0  0
  129.5635  126.2775   67.7048 H   0  0  0  0  0  0  0  0  0  0  0  0
  132.4782  129.0092   59.1968 H   0  0  0  0  0  0  0  0  0  0  0  0
  131.2428  128.9206   58.0772 H   0  0  0  0  0  0  0  0  0  0  0  0
  1  2  1  0
  2  3  1  0
  3  4  1  0
  4  5  1  6
  5  6  1  0
  6  7  2  0
  6  8  1  0
  8  9  1  0
  9 10  1  0
  9 11  1  0
  9 12  1  0
  4 13  1  0
 13 14  1  0
 14 15  1  6
 15 16  1  0
 16 17  1  0
 17 18  1  0
 18 19  1  0
 19 20  1  0
 19 21  1  0
 21 22  1  0
 22 23  1  0
 23 24  1  0
 24 25  2  0
 24 26  1  0
 26 27  1  0
 27 28  1  0
 27 29  1  0
 27 30  1  0
 14 31  1  0
 31 32  2  0
 31 33  1  0
 14 34  1  0
 34  4  1  0
 23 17  1  0
  1 35  1  0
  1 36  1  0
  1 37  1  0
  3 38  1  0
  3 39  1  0
  5 40  1  0
 10 41  1  0
 10 42  1  0
 10 43  1  0
 11 44  1  0
 11 45  1  0
 11 46  1  0
 12 47  1  0
 12 48  1  0
 12 49  1  0
 13 50  1  0
 13 51  1  0
 15 52  1  0
 15 53  1  0
 16 54  1  0
 16 55  1  0
 17 56  1  1
 18 57  1  0
 18 58  1  0
 20 59  1  0
 20 60  1  0
 20 61  1  0
 21 62  1  0
 21 63  1  0
 22 64  1  0
 22 65  1  0
 28 66  1  0
 28 67  1  0
 28 68  1  0
 29 69  1  0
 29 70  1  0
 29 71  1  0
 30 72  1  0
 30 73  1  0
 30 74  1  0
 34 75  1  0
 34 76  1  0
M  CHG  2  15   1  33  -1
M  END
>  <Binding energies>  (1) 
[-7.48]

>  <Ligand effiencies>  (1) 
[-0.20216216216216218]

>  <Interactions>  (1) 
["H-A:ALA:541:N:4891, V-A:PRO:540:C:4881, V-A:TYR:484:CE2:4346, V-B:LEU:475:CD2:9230, V-B:GLU:543:CG:9879, V-A:ASP:366:CG:3213, V-A:LEU:363:CD1:3189, V-A:TYR:531:CE2:4793, V-A:ALA:541:CB:4892, V-A:GLU:543:CD:4908, V-A:TYR:484:CZ:4347, H-A:GLY:454:N:4050, V-A:HIS:456:CE1:4070, V-A:ALA:541:CA:4890, V-A:GLU:543:CG:4907, V-A:MET:535:CE:4835, V-B:GLU:543:CD:9880, V-A:ASP:366:CB:3212, V-A:LEU:475:CD2:4259, H-A:ARG:545:NH2:4928, V-A:ARG:545:CZ:4926, H-A:GLU:543:OE1:4909, H-A:ASP:366:OD1:3214, V-A:PRO:540:CB:4885, V-A:PRO:540:CA:4883, H-A:ARG:545:NE:4924, H-A:ASP:366:OD2:3215, H-A:TYR:484:OH:4348"]

$$$$
ZINC2380214675
     RDKit          3D

 34 35  0  0  0  0  0  0  0  0999 V2000
  130.5910  117.4910   60.5270 C   0  0  0  0  0  0  0  0  0  0  0  0
  130.0630  118.4290   61.6200 C   0  0  0  0  0  0  0  0  0  0  0  0
  130.2640  119.9130   61.2730 C   0  0  0  0  0  0  0  0  0  0  0  0
  129.0110  120.6330   61.4840 N   0  0  0  0  0  0  0  0  0  0  0  0
  129.0480  122.0940   61.3330 C   0  0  1  0  0  0  0  0  0  0  0  0
  127.8620  122.6680   62.0100 C   0  0  0  0  0  0  0  0  0  0  0  0
  126.9370  123.1180   62.5410 N   0  0  0  0  0  0  0  0  0  0  0  0
  130.3150  122.6260   62.0700 C   0  0  0  0  0  0  0  0  0  0  0  0
  130.0830  123.0140   63.4630 N   0  0  0  0  0  0  0  0  0  0  0  0
  129.6380  122.2100   64.4820 C   0  0  0  0  0  0  0  0  0  0  0  0
  129.5140  122.8340   65.6270 N   0  0  0  0  0  0  0  0  0  0  0  0
  129.8880  124.0770   65.3820 C   0  0  0  0  0  0  0  0  0  0  0  0
  129.8920  125.5700   66.9150 I   0  0  0  0  0  0  0  0  0  0  0  0
  130.2570  124.2450   64.0520 C   0  0  0  0  0  0  0  0  0  0  0  0
  130.9670  125.9730   62.9990 I   0  0  0  0  0  0  0  0  0  0  0  0
  129.1030  122.4260   59.8090 C   0  0  1  0  0  0  0  0  0  0  0  0
  127.8550  122.8470   59.0430 C   0  0  0  0  0  0  0  0  0  0  0  0
  128.9590  123.8410   59.3030 C   0  0  0  0  0  0  0  0  0  0  0  0
  128.7770  124.8080   60.2020 F   0  0  0  0  0  0  0  0  0  0  0  0
  129.7790  124.2060   58.3180 F   0  0  0  0  0  0  0  0  0  0  0  0
  131.0797  116.6229   60.9935 H   0  0  0  0  0  0  0  0  0  0  0  0
  129.7533  117.1482   59.9019 H   0  0  0  0  0  0  0  0  0  0  0  0
  131.3186  118.0293   59.9019 H   0  0  0  0  0  0  0  0  0  0  0  0
  128.9877  118.2415   61.7560 H   0  0  0  0  0  0  0  0  0  0  0  0
  130.6303  118.2220   62.5394 H   0  0  0  0  0  0  0  0  0  0  0  0
  131.0456  120.3387   61.9194 H   0  0  0  0  0  0  0  0  0  0  0  0
  130.5697  120.0068   60.2205 H   0  0  0  0  0  0  0  0  0  0  0  0
  128.2740  120.2380   60.9180 H   0  0  0  0  0  0  0  0  0  0  0  0
  131.0796  121.8353   62.0553 H   0  0  0  0  0  0  0  0  0  0  0  0
  130.6306  123.5355   61.5378 H   0  0  0  0  0  0  0  0  0  0  0  0
  129.4073  121.1426   64.3499 H   0  0  0  0  0  0  0  0  0  0  0  0
  129.8564  121.6320   59.6991 H   0  0  0  0  0  0  0  0  0  0  0  0
  127.6812  122.4710   58.0240 H   0  0  0  0  0  0  0  0  0  0  0  0
  126.7729  122.8152   59.2381 H   0  0  0  0  0  0  0  0  0  0  0  0
  1  2  1  0
  2  3  1  0
  3  4  1  0
  4  5  1  0
  5  6  1  1
  6  7  3  0
  5  8  1  0
  8  9  1  0
  9 10  1  0
 10 11  2  0
 11 12  1  0
 12 13  1  0
 12 14  2  0
 14 15  1  0
  5 16  1  0
 16 17  1  0
 17 18  1  0
 18 19  1  0
 18 20  1  0
 14  9  1  0
 18 16  1  0
  1 21  1  0
  1 22  1  0
  1 23  1  0
  2 24  1  0
  2 25  1  0
  3 26  1  0
  3 27  1  0
  4 28  1  0
  8 29  1  0
  8 30  1  0
 10 31  1  0
 16 32  1  6
 17 33  1  0
 17 34  1  0
M  END
>  <Binding energies>  (1) 
[-5.78]

>  <Ligand effiencies>  (1) 
[-0.2752380952380952]

>  <Interactions>  (1) 
["V-B:PRO:540:CA:9855, V-B:GLU:543:CB:9878, V-B:ALA:541:CB:9864, V-B:TYR:539:CE2:9848, V-A:TYR:484:CE2:4346, V-A:LEU:475:CG:4257, V-B:GLU:543:CG:9879, V-B:TYR:539:C:9839, V-B:TYR:539:CZ:9849, H-B:ALA:541:N:9863, V-A:LEU:475:CD1:4258, V-A:HIS:383:CE1:3393, V-B:PRO:540:N:9856, V-A:HIS:456:CE1:4070, V-A:PRO:482:CB:4326, V-B:TYR:539:CD2:9846, V-B:GLU:543:CD:9880, V-A:LEU:475:CD2:4259, H-B:TYR:539:O:9840, V-B:PRO:540:C:9853, V-B:ALA:541:CA:9862, V-A:HIS:383:NE2:3394, H-A:TYR:484:OH:4348, H-B:PRO:540:O:9854"]

$$$$
ZINC2380754363
     RDKit          3D

 37 38  0  0  0  0  0  0  0  0999 V2000
  133.3250  123.9770   59.5190 C   0  0  0  0  0  0  0  0  0  0  0  0
  132.9580  124.2360   60.9730 C   0  0  0  0  0  0  0  0  0  0  0  0
  132.4100  125.4710   61.3290 C   0  0  0  0  0  0  0  0  0  0  0  0
  132.0680  125.7340   62.6540 C   0  0  0  0  0  0  0  0  0  0  0  0
  132.2760  124.7720   63.6440 C   0  0  0  0  0  0  0  0  0  0  0  0
  131.8870  125.0970   65.0860 C   0  0  0  0  0  0  0  0  0  0  0  0
  130.4440  124.9780   65.3220 N   0  0  0  0  0  0  0  0  0  0  0  0
  129.8710  123.6590   65.0650 C   0  0  0  0  0  0  0  0  0  0  0  0
  129.7900  125.8410   66.1710 C   0  0  0  0  0  0  0  0  0  0  0  0
  129.8590  125.5220   67.8700 S   0  0  0  0  0  0  0  0  0  0  0  0
  128.8740  126.9040   68.1760 C   0  0  0  0  0  0  0  0  0  0  0  0
  128.4090  127.3220   69.9760 Br  0  0  0  0  0  0  0  0  0  0  0  0
  128.5280  127.6060   67.0210 C   0  0  0  0  0  0  0  0  0  0  0  0
  127.6460  128.8390   67.0220 C   0  0  0  0  0  0  0  0  0  0  0  0
  129.0070  126.9620   65.8540 C   0  0  0  0  0  0  0  0  0  0  0  0
  128.8100  127.5000   64.4480 C   0  0  0  0  0  0  0  0  0  0  0  0
  132.8150  123.5240   63.2900 C   0  0  0  0  0  0  0  0  0  0  0  0
  133.0060  122.5570   64.2460 O   0  0  0  0  0  0  0  0  0  0  0  0
  133.1600  123.2560   61.9580 C   0  0  0  0  0  0  0  0  0  0  0  0
  133.9020  121.5560   61.4920 Br  0  0  0  0  0  0  0  0  0  0  0  0
  134.2230  123.3433   59.4748 H   0  0  0  0  0  0  0  0  0  0  0  0
  132.4908  123.4665   59.0156 H   0  0  0  0  0  0  0  0  0  0  0  0
  133.5265  124.9341   59.0156 H   0  0  0  0  0  0  0  0  0  0  0  0
  132.2477  126.2398   60.5592 H   0  0  0  0  0  0  0  0  0  0  0  0
  131.6308  126.7072   62.9219 H   0  0  0  0  0  0  0  0  0  0  0  0
  132.4122  124.4020   65.7577 H   0  0  0  0  0  0  0  0  0  0  0  0
  132.1711  126.1418   65.2801 H   0  0  0  0  0  0  0  0  0  0  0  0
  129.6545  123.1606   66.0214 H   0  0  0  0  0  0  0  0  0  0  0  0
  128.9398  123.7695   64.4900 H   0  0  0  0  0  0  0  0  0  0  0  0
  130.5873  123.0537   64.4900 H   0  0  0  0  0  0  0  0  0  0  0  0
  127.4331  129.1367   68.0593 H   0  0  0  0  0  0  0  0  0  0  0  0
  128.1630  129.6600   66.5037 H   0  0  0  0  0  0  0  0  0  0  0  0
  126.7020  128.6150   66.5037 H   0  0  0  0  0  0  0  0  0  0  0  0
  128.4322  128.5318   64.4998 H   0  0  0  0  0  0  0  0  0  0  0  0
  129.7709  127.4878   63.9128 H   0  0  0  0  0  0  0  0  0  0  0  0
  128.0842  126.8702   63.9128 H   0  0  0  0  0  0  0  0  0  0  0  0
  132.4880  122.7150   65.0390 H   0  0  0  0  0  0  0  0  0  0  0  0
  1  2  1  0
  2  3  2  0
  3  4  1  0
  4  5  2  0
  5  6  1  0
  6  7  1  0
  7  8  1  0
  7  9  1  0
  9 10  1  0
 10 11  1  0
 11 12  1  0
 11 13  2  0
 13 14  1  0
 13 15  1  0
 15 16  1  0
  5 17  1  0
 17 18  1  0
 17 19  2  0
 19 20  1  0
 19  2  1  0
 15  9  2  0
  1 21  1  0
  1 22  1  0
  1 23  1  0
  3 24  1  0
  4 25  1  0
  6 26  1  0
  6 27  1  0
  8 28  1  0
  8 29  1  0
  8 30  1  0
 14 31  1  0
 14 32  1  0
 14 33  1  0
 16 34  1  0
 16 35  1  0
 16 36  1  0
 18 37  1  0
M  END
>  <Binding energies>  (1) 
[-6.36]

>  <Ligand effiencies>  (1) 
[-0.3028571428571429]

>  <Interactions>  (1) 
["V-A:ILE:369:CG2:3237, V-A:ILE:369:CD1:3239, V-A:HIS:456:CE1:4070, V-B:HIS:456:CE1:9041, V-B:GLU:543:CB:9878, V-A:SER:385:CB:3409, V-B:GLU:543:CD:9880, V-B:TYR:539:CE2:9848, V-A:TYR:484:CE2:4346, V-A:GLU:543:CD:4908, V-B:GLU:543:CG:9879, V-A:SER:385:C:3405, V-A:LEU:475:CD2:4259, V-A:ARG:545:CZ:4926, V-B:GLU:543:CA:9876, H-A:GLY:454:N:4050, V-A:ASP:366:CG:3213, H-A:TYR:484:OH:4348"]

$$$$
ZINC2382230276
     RDKit          3D

130136  0  0  0  0  0  0  0  0999 V2000
  133.7290  130.0210   57.7280 C   0  0  0  0  0  0  0  0  0  0  0  0
  132.4800  129.5360   57.8750 C   0  0  0  0  0  0  0  0  0  0  0  0
  132.2530  128.0910   58.2880 C   0  0  0  0  0  0  0  0  0  0  0  0
  131.1860  130.3380   57.6520 C   0  0  2  0  0  0  0  0  0  0  0  0
  131.3490  131.3720   56.5110 C   0  0  0  0  0  0  0  0  0  0  0  0
  130.7690  132.7060   57.0330 C   0  0  0  0  0  0  0  0  0  0  0  0
  129.8020  132.3620   58.1920 C   0  0  2  0  0  0  0  0  0  0  0  0
  128.4180  131.9220   57.5570 C   0  0  0  0  0  0  0  0  0  0  0  0
  127.8210  132.7110   56.8200 O   0  0  0  0  0  0  0  0  0  0  0  0
  127.8580  130.7080   57.8370 N   0  0  0  0  0  0  0  0  0  0  0  0
  126.6860  130.2180   57.0800 C   0  0  0  0  0  0  0  0  0  0  0  0
  127.0490  128.8530   56.4440 C   0  0  0  0  0  0  0  0  0  0  0  0
  127.4910  127.9400   57.5180 N   0  0  0  0  0  0  0  0  0  0  0  0
  126.9280  126.7050   57.6580 C   0  0  0  0  0  0  0  0  0  0  0  0
  126.1190  126.2560   56.8420 O   0  0  0  0  0  0  0  0  0  0  0  0
  127.2780  125.9420   58.8410 C   0  0  0  0  0  0  0  0  0  0  0  0
  128.0990  124.8680   58.7910 C   0  0  0  0  0  0  0  0  0  0  0  0
  128.5620  123.9930   59.9010 C   0  0  0  0  0  0  0  0  0  0  0  0
  128.8860  124.6460   61.0990 C   0  0  0  0  0  0  0  0  0  0  0  0
  129.3450  123.9410   62.2060 C   0  0  0  0  0  0  0  0  0  0  0  0
  129.4930  122.5620   62.1360 C   0  0  0  0  0  0  0  0  0  0  0  0
  129.1730  121.8910   60.9580 C   0  0  0  0  0  0  0  0  0  0  0  0
  128.7030  122.5860   59.8280 C   0  0  0  0  0  0  0  0  0  0  0  0
  128.3520  121.9390   58.6570 O   0  0  0  0  0  0  0  0  0  0  0  0
  127.1970  122.3480   57.9310 C   0  0  0  0  0  0  0  0  0  0  0  0
  128.6560  128.4360   58.2810 C   0  0  0  0  0  0  0  0  0  0  0  0
  128.2730  129.7940   58.9160 C   0  0  0  0  0  0  0  0  0  0  0  0
  129.6370  133.3950   59.3550 C   0  0  0  0  0  0  0  0  0  0  0  0
  128.8580  132.7930   60.5570 C   0  0  0  0  0  0  0  0  0  0  0  0
  129.5150  131.5100   61.2000 C   0  0  2  0  0  0  0  0  0  0  0  0
  130.8310  132.0190   61.8970 C   0  0  0  0  0  0  0  0  0  0  0  0
  129.8740  130.4930   60.0390 C   0  0  2  0  0  0  0  0  0  0  0  0
  130.5620  129.2300   60.5960 C   0  0  0  0  0  0  0  0  0  0  0  0
  129.6750  128.5080   61.6200 C   0  0  0  0  0  0  0  0  0  0  0  0
  129.2190  129.4310   62.7910 C   0  0  2  0  0  0  0  0  0  0  0  0
  128.5090  128.6750   64.0050 C   0  0  1  0  0  0  0  0  0  0  0  0
  127.1760  127.9850   63.5710 C   0  0  0  0  0  0  0  0  0  0  0  0
  129.4850  127.5850   64.5680 C   0  0  0  0  0  0  0  0  0  0  0  0
  129.0820  126.9840   65.9290 C   0  0  0  0  0  0  0  0  0  0  0  0
  128.9070  128.0940   66.9910 C   0  0  2  0  0  0  0  0  0  0  0  0
  128.5690  127.5100   68.2530 O   0  0  0  0  0  0  0  0  0  0  0  0
  129.3440  126.5740   68.8480 C   0  0  0  0  0  0  0  0  0  0  0  0
  129.5550  125.4330   68.4330 O   0  0  0  0  0  0  0  0  0  0  0  0
  129.9800  127.0830   70.1520 C   0  0  0  0  0  0  0  0  0  0  0  0
  129.0070  127.3320   71.3580 C   0  0  0  0  0  0  0  0  0  0  0  0
  129.0960  128.8360   71.7350 C   0  0  0  0  0  0  0  0  0  0  0  0
  127.5290  127.0430   70.9400 C   0  0  0  0  0  0  0  0  0  0  0  0
  129.4470  126.4980   72.6220 C   0  0  0  0  0  0  0  0  0  0  0  0
  130.2980  126.9680   73.4130 O   0  0  0  0  0  0  0  0  0  0  0  0
  128.9360  125.3640   72.7850 O   0  0  0  0  0  0  0  0  0  0  0  0
  127.8650  129.1860   66.5740 C   0  0  0  0  0  0  0  0  0  0  0  0
  126.4300  128.5900   66.5680 C   0  0  0  0  0  0  0  0  0  0  0  0
  127.9740  130.3240   67.6290 C   0  0  0  0  0  0  0  0  0  0  0  0
  128.3220  129.7450   65.1620 C   0  0  2  0  0  0  0  0  0  0  0  0
  127.5210  130.9760   64.6510 C   0  0  0  0  0  0  0  0  0  0  0  0
  128.2480  131.6790   63.4900 C   0  0  0  0  0  0  0  0  0  0  0  0
  128.5280  130.7650   62.2510 C   0  0  1  0  0  0  0  0  0  0  0  0
  127.1370  130.4510   61.5960 C   0  0  0  0  0  0  0  0  0  0  0  0
  130.6130  131.1780   58.8310 C   0  0  1  0  0  0  0  0  0  0  0  0
  133.8805  131.0686   57.4287 H   0  0  0  0  0  0  0  0  0  0  0  0
  134.5968  129.3692   57.9074 H   0  0  0  0  0  0  0  0  0  0  0  0
  132.2420  128.0208   59.3857 H   0  0  0  0  0  0  0  0  0  0  0  0
  131.2891  127.7426   57.8886 H   0  0  0  0  0  0  0  0  0  0  0  0
  133.0636  127.4638   57.8886 H   0  0  0  0  0  0  0  0  0  0  0  0
  130.4888  129.5108   57.4527 H   0  0  0  0  0  0  0  0  0  0  0  0
  132.4128  131.4940   56.2593 H   0  0  0  0  0  0  0  0  0  0  0  0
  130.8257  131.0425   55.6013 H   0  0  0  0  0  0  0  0  0  0  0  0
  131.5805  133.3525   57.3984 H   0  0  0  0  0  0  0  0  0  0  0  0
  130.2418  133.2432   56.2308 H   0  0  0  0  0  0  0  0  0  0  0  0
  125.8299  130.0950   57.7597 H   0  0  0  0  0  0  0  0  0  0  0  0
  126.4148  130.9397   56.2954 H   0  0  0  0  0  0  0  0  0  0  0  0
  126.1670  128.4325   55.9387 H   0  0  0  0  0  0  0  0  0  0  0  0
  127.8527  128.9829   55.7043 H   0  0  0  0  0  0  0  0  0  0  0  0
  126.8615  126.2472   59.8122 H   0  0  0  0  0  0  0  0  0  0  0  0
  128.4762  124.6056   57.7915 H   0  0  0  0  0  0  0  0  0  0  0  0
  128.7747  125.7384   61.1642 H   0  0  0  0  0  0  0  0  0  0  0  0
  129.5906  124.4748   63.1359 H   0  0  0  0  0  0  0  0  0  0  0  0
  129.8616  122.0015   63.0078 H   0  0  0  0  0  0  0  0  0  0  0  0
  129.2897  120.7983   60.9101 H   0  0  0  0  0  0  0  0  0  0  0  0
  126.4013  122.6298   58.6363 H   0  0  0  0  0  0  0  0  0  0  0  0
  127.4486  123.2117   57.2980 H   0  0  0  0  0  0  0  0  0  0  0  0
  126.8490  121.5184   57.2980 H   0  0  0  0  0  0  0  0  0  0  0  0
  128.9184  127.7162   59.0704 H   0  0  0  0  0  0  0  0  0  0  0  0
  129.5232  128.5580   57.6153 H   0  0  0  0  0  0  0  0  0  0  0  0
  127.4429  129.6528   59.6239 H   0  0  0  0  0  0  0  0  0  0  0  0
  129.1320  130.2142   59.4596 H   0  0  0  0  0  0  0  0  0  0  0  0
  130.6345  133.7071   59.6979 H   0  0  0  0  0  0  0  0  0  0  0  0
  129.0639  134.2521   58.9716 H   0  0  0  0  0  0  0  0  0  0  0  0
  128.7827  133.5654   61.3366 H   0  0  0  0  0  0  0  0  0  0  0  0
  127.8815  132.4748   60.1632 H   0  0  0  0  0  0  0  0  0  0  0  0
  130.7092  131.9719   62.9892 H   0  0  0  0  0  0  0  0  0  0  0  0
  131.6758  131.3828   61.5945 H   0  0  0  0  0  0  0  0  0  0  0  0
  131.0278  133.0581   61.5945 H   0  0  0  0  0  0  0  0  0  0  0  0
  128.9321  130.1400   59.5937 H   0  0  0  0  0  0  0  0  0  0  0  0
  130.7769  128.5440   59.7634 H   0  0  0  0  0  0  0  0  0  0  0  0
  131.4895  129.5379   61.1009 H   0  0  0  0  0  0  0  0  0  0  0  0
  128.7805  128.1296   61.1035 H   0  0  0  0  0  0  0  0  0  0  0  0
  130.2728  127.6944   62.0567 H   0  0  0  0  0  0  0  0  0  0  0  0
  130.1261  129.7874   63.3010 H   0  0  0  0  0  0  0  0  0  0  0  0
  126.6074  127.6907   64.4654 H   0  0  0  0  0  0  0  0  0  0  0  0
  126.5782  128.6869   62.9710 H   0  0  0  0  0  0  0  0  0  0  0  0
  127.4040  127.0917   62.9710 H   0  0  0  0  0  0  0  0  0  0  0  0
  129.5384  126.7653   63.8363 H   0  0  0  0  0  0  0  0  0  0  0  0
  130.4477  128.0917   64.7308 H   0  0  0  0  0  0  0  0  0  0  0  0
  128.1323  126.4405   65.8159 H   0  0  0  0  0  0  0  0  0  0  0  0
  129.8776  126.3011   66.2616 H   0  0  0  0  0  0  0  0  0  0  0  0
  129.8704  128.6178   67.0781 H   0  0  0  0  0  0  0  0  0  0  0  0
  130.7250  126.3397   70.4722 H   0  0  0  0  0  0  0  0  0  0  0  0
  130.3953  128.0713   69.9056 H   0  0  0  0  0  0  0  0  0  0  0  0
  129.1021  128.9398   72.8301 H   0  0  0  0  0  0  0  0  0  0  0  0
  130.0210  129.2637   71.3210 H   0  0  0  0  0  0  0  0  0  0  0  0
  128.2279  129.3698   71.3210 H   0  0  0  0  0  0  0  0  0  0  0  0
  126.9100  126.9220   71.8412 H   0  0  0  0  0  0  0  0  0  0  0  0
  127.1460  127.8833   70.3423 H   0  0  0  0  0  0  0  0  0  0  0  0
  127.4907  126.1204   70.3423 H   0  0  0  0  0  0  0  0  0  0  0  0
  126.0877  128.4478   67.6037 H   0  0  0  0  0  0  0  0  0  0  0  0
  125.7487  129.2796   66.0480 H   0  0  0  0  0  0  0  0  0  0  0  0
  126.4377  127.6207   66.0480 H   0  0  0  0  0  0  0  0  0  0  0  0
  127.9326  129.8921   68.6398 H   0  0  0  0  0  0  0  0  0  0  0  0
  128.9273  130.8567   67.4966 H   0  0  0  0  0  0  0  0  0  0  0  0
  127.1392  131.0279   67.4966 H   0  0  0  0  0  0  0  0  0  0  0  0
  129.3358  130.0927   65.4095 H   0  0  0  0  0  0  0  0  0  0  0  0
  126.5329  130.6404   64.3032 H   0  0  0  0  0  0  0  0  0  0  0  0
  127.4215  131.6918   65.4803 H   0  0  0  0  0  0  0  0  0  0  0  0
  127.6286  132.5257   63.1593 H   0  0  0  0  0  0  0  0  0  0  0  0
  129.2294  131.9895   63.8778 H   0  0  0  0  0  0  0  0  0  0  0  0
  126.3897  130.2823   62.3854 H   0  0  0  0  0  0  0  0  0  0  0  0
  126.8253  131.3014   60.9717 H   0  0  0  0  0  0  0  0  0  0  0  0
  127.2209  129.5492   60.9717 H   0  0  0  0  0  0  0  0  0  0  0  0
  131.4997  131.4955   59.3993 H   0  0  0  0  0  0  0  0  0  0  0  0
  1  2  2  0
  2  3  1  0
  2  4  1  0
  4  5  1  0
  5  6  1  0
  6  7  1  0
  7  8  1  6
  8  9  2  0
  8 10  1  0
 10 11  1  0
 11 12  1  0
 12 13  1  0
 13 14  1  0
 14 15  2  0
 14 16  1  0
 16 17  2  0
 17 18  1  0
 18 19  2  0
 19 20  1  0
 20 21  2  0
 21 22  1  0
 22 23  2  0
 23 24  1  0
 24 25  1  0
 13 26  1  0
 26 27  1  0
  7 28  1  0
 28 29  1  0
 29 30  1  0
 30 31  1  1
 30 32  1  0
 32 33  1  0
 33 34  1  0
 34 35  1  0
 35 36  1  0
 36 37  1  6
 36 38  1  0
 38 39  1  0
 39 40  1  0
 40 41  1  0
 41 42  1  0
 42 43  2  0
 42 44  1  0
 44 45  1  0
 45 46  1  0
 45 47  1  0
 45 48  1  0
 48 49  2  0
 48 50  1  0
 40 51  1  0
 51 52  1  0
 51 53  1  0
 51 54  1  0
 54 55  1  0
 55 56  1  0
 56 57  1  0
 57 58  1  6
 32 59  1  0
 59  4  1  0
 59  7  1  0
 27 10  1  0
 57 30  1  0
 23 18  1  0
 57 35  1  0
 54 36  1  0
  1 60  1  0
  1 61  1  0
  3 62  1  0
  3 63  1  0
  3 64  1  0
  4 65  1  6
  5 66  1  0
  5 67  1  0
  6 68  1  0
  6 69  1  0
 11 70  1  0
 11 71  1  0
 12 72  1  0
 12 73  1  0
 16 74  1  0
 17 75  1  0
 19 76  1  0
 20 77  1  0
 21 78  1  0
 22 79  1  0
 25 80  1  0
 25 81  1  0
 25 82  1  0
 26 83  1  0
 26 84  1  0
 27 85  1  0
 27 86  1  0
 28 87  1  0
 28 88  1  0
 29 89  1  0
 29 90  1  0
 31 91  1  0
 31 92  1  0
 31 93  1  0
 32 94  1  6
 33 95  1  0
 33 96  1  0
 34 97  1  0
 34 98  1  0
 35 99  1  1
 37100  1  0
 37101  1  0
 37102  1  0
 38103  1  0
 38104  1  0
 39105  1  0
 39106  1  0
 40107  1  1
 44108  1  0
 44109  1  0
 46110  1  0
 46111  1  0
 46112  1  0
 47113  1  0
 47114  1  0
 47115  1  0
 52116  1  0
 52117  1  0
 52118  1  0
 53119  1  0
 53120  1  0
 53121  1  0
 54122  1  1
 55123  1  0
 55124  1  0
 56125  1  0
 56126  1  0
 58127  1  0
 58128  1  0
 58129  1  0
 59130  1  1
M  CHG  1  50  -1
M  END
>  <Binding energies>  (1) 
[-3.51]

>  <Ligand effiencies>  (1) 
[-0.05949152542372881]

>  <Interactions>  (1) 
["V-B:TYR:539:CA:9841, V-B:PRO:540:CA:9855, V-A:GLU:543:CA:4904, V-B:HIS:456:CD2:9039, V-B:GLU:543:C:9874, V-A:PRO:540:C:4881, H-B:LYS:547:NZ:9923, V-B:GLU:543:CB:9878, V-B:ALA:541:CB:9864, V-B:TYR:539:CE2:9848, V-B:GLU:543:CG:9879, V-B:TYR:539:C:9839, V-A:ASP:366:CG:3213, V-A:HIS:456:CD2:4068, V-A:LEU:363:CD1:3189, V-B:TYR:484:CE2:9317, V-A:TYR:531:CE2:4793, V-B:TYR:531:CZ:9766, V-A:GLU:543:CD:4908, V-B:PRO:540:CB:9857, V-B:HIS:456:CE1:9041, V-B:PRO:540:N:9856, V-B:TYR:484:CZ:9318, V-A:HIS:456:CE1:4070, V-B:GLY:544:C:9884, V-B:TYR:484:CD2:9315, V-B:TYR:539:CD2:9846, V-A:GLU:543:CG:4907, V-A:TYR:531:CZ:4794, V-B:PRO:540:CD:9859, V-A:MET:535:CE:4835, V-B:GLU:543:CD:9880, V-A:TYR:539:C:4867, H-B:TYR:531:OH:9767, V-A:ASP:366:CB:3212, H-A:LYS:547:NZ:4951, V-B:TYR:539:CG:9844, V-A:GLU:543:CB:4906, V-A:PRO:540:N:4884, V-A:PRO:540:CB:4885, V-A:PRO:540:CA:4883, V-A:LEU:363:CA:3185, V-A:TYR:539:CE1:4875, V-B:TYR:484:CE1:9316"]

$$$$
ZINC2382246200
     RDKit          3D

 61 64  0  0  0  0  0  0  0  0999 V2000
  133.3050  124.8910   58.2030 C   0  0  0  0  0  0  0  0  0  0  0  0
  133.2530  124.7110   59.6540 N   0  0  0  0  0  0  0  0  0  0  0  0
  134.4360  124.1470   60.3060 C   0  0  0  0  0  0  0  0  0  0  0  0
  132.2620  125.3760   60.4220 C   0  0  0  0  0  0  0  0  0  0  0  0
  132.0150  126.6950   60.1690 N   0  0  0  0  0  0  0  0  0  0  0  0
  131.0590  127.2850   60.9340 C   0  0  0  0  0  0  0  0  0  0  0  0
  130.7860  128.7100   60.6610 C   0  0  0  0  0  0  0  0  0  0  0  0
  129.6180  129.2230   60.2180 C   0  0  0  0  0  0  0  0  0  0  0  0
  129.3230  130.6430   59.9280 C   0  0  0  0  0  0  0  0  0  0  0  0
  128.6870  131.4060   60.9120 C   0  0  0  0  0  0  0  0  0  0  0  0
  128.3900  132.7490   60.6890 C   0  0  0  0  0  0  0  0  0  0  0  0
  128.7280  133.3460   59.4770 C   0  0  0  0  0  0  0  0  0  0  0  0
  129.3680  132.6100   58.4700 C   0  0  0  0  0  0  0  0  0  0  0  0
  129.7290  133.2460   57.1790 N   0  0  0  0  0  0  0  0  0  0  0  0
  130.9180  133.3860   56.9040 O   0  0  0  0  0  0  0  0  0  0  0  0
  128.8260  133.6110   56.4310 O   0  0  0  0  0  0  0  0  0  0  0  0
  129.6600  131.2570   58.7130 C   0  0  0  0  0  0  0  0  0  0  0  0
  130.3560  126.6500   61.9100 N   0  0  0  0  0  0  0  0  0  0  0  0
  130.6600  125.3420   62.0970 C   0  0  0  0  0  0  0  0  0  0  0  0
  129.9360  124.7040   63.1150 N   0  0  0  0  0  0  0  0  0  0  0  0
  129.8010  124.8940   64.5030 C   0  0  0  0  0  0  0  0  0  0  0  0
  129.4570  126.1780   64.9290 C   0  0  0  0  0  0  0  0  0  0  0  0
  129.3010  126.4600   66.2830 C   0  0  0  0  0  0  0  0  0  0  0  0
  129.4950  125.4490   67.2350 C   0  0  0  0  0  0  0  0  0  0  0  0
  129.3430  125.6350   68.6220 N   0  0  0  0  0  0  0  0  0  0  0  0
  129.1520  126.7850   69.3000 C   0  0  0  0  0  0  0  0  0  0  0  0
  129.1270  127.9070   68.7920 O   0  0  0  0  0  0  0  0  0  0  0  0
  128.9920  126.5270   70.6140 N   0  0  0  0  0  0  0  0  0  0  0  0
  128.8360  127.4320   71.6800 C   0  0  0  0  0  0  0  0  0  0  0  0
  129.7580  128.4800   71.7390 C   0  0  0  0  0  0  0  0  0  0  0  0
  129.6750  129.4310   72.7520 C   0  0  0  0  0  0  0  0  0  0  0  0
  128.6610  129.3430   73.7040 C   0  0  0  0  0  0  0  0  0  0  0  0
  128.5560  130.5230   74.9580 Cl  0  0  0  0  0  0  0  0  0  0  0  0
  127.7280  128.3090   73.6470 C   0  0  0  0  0  0  0  0  0  0  0  0
  127.8100  127.3550   72.6360 C   0  0  0  0  0  0  0  0  0  0  0  0
  129.8180  124.1590   66.8120 C   0  0  0  0  0  0  0  0  0  0  0  0
  129.9750  123.8820   65.4570 C   0  0  0  0  0  0  0  0  0  0  0  0
  131.6000  124.6680   61.3830 N   0  0  0  0  0  0  0  0  0  0  0  0
  133.6035  125.9243   57.9722 H   0  0  0  0  0  0  0  0  0  0  0  0
  134.0382  124.1928   57.7729 H   0  0  0  0  0  0  0  0  0  0  0  0
  132.3124  124.6913   57.7729 H   0  0  0  0  0  0  0  0  0  0  0  0
  134.3154  124.2045   61.3978 H   0  0  0  0  0  0  0  0  0  0  0  0
  134.5543  123.0956   60.0051 H   0  0  0  0  0  0  0  0  0  0  0  0
  135.3273  124.7170   60.0051 H   0  0  0  0  0  0  0  0  0  0  0  0
  131.6093  129.4186   60.8343 H   0  0  0  0  0  0  0  0  0  0  0  0
  128.7980  128.5080   60.0554 H   0  0  0  0  0  0  0  0  0  0  0  0
  128.4183  130.9413   61.8721 H   0  0  0  0  0  0  0  0  0  0  0  0
  127.8882  133.3381   61.4708 H   0  0  0  0  0  0  0  0  0  0  0  0
  128.4902  134.4066   59.3080 H   0  0  0  0  0  0  0  0  0  0  0  0
  130.1638  130.6668   57.9334 H   0  0  0  0  0  0  0  0  0  0  0  0
  129.3960  123.9240   62.7690 H   0  0  0  0  0  0  0  0  0  0  0  0
  129.3076  126.9757   64.1865 H   0  0  0  0  0  0  0  0  0  0  0  0
  129.0258  127.4749   66.6059 H   0  0  0  0  0  0  0  0  0  0  0  0
  129.4700  124.8010   69.1750 H   0  0  0  0  0  0  0  0  0  0  0  0
  128.9160  125.5540   70.8750 H   0  0  0  0  0  0  0  0  0  0  0  0
  130.5526  128.5539   70.9820 H   0  0  0  0  0  0  0  0  0  0  0  0
  130.4078  130.2499   72.8010 H   0  0  0  0  0  0  0  0  0  0  0  0
  126.9281  128.2467   74.3995 H   0  0  0  0  0  0  0  0  0  0  0  0
  127.0714  126.5413   72.5861 H   0  0  0  0  0  0  0  0  0  0  0  0
  129.9492  123.3569   67.5532 H   0  0  0  0  0  0  0  0  0  0  0  0
  130.2369  122.8639   65.1333 H   0  0  0  0  0  0  0  0  0  0  0  0
  1  2  1  0
  2  3  1  0
  2  4  1  0
  4  5  2  0
  5  6  1  0
  6  7  1  0
  7  8  2  0
  8  9  1  0
  9 10  2  0
 10 11  1  0
 11 12  2  0
 12 13  1  0
 13 14  1  0
 14 15  2  0
 14 16  1  0
 13 17  2  0
  6 18  2  0
 18 19  1  0
 19 20  1  0
 20 21  1  0
 21 22  2  0
 22 23  1  0
 23 24  2  0
 24 25  1  0
 25 26  1  0
 26 27  2  0
 26 28  1  0
 28 29  1  0
 29 30  2  0
 30 31  1  0
 31 32  2  0
 32 33  1  0
 32 34  1  0
 34 35  2  0
 24 36  1  0
 36 37  2  0
 19 38  2  0
 38  4  1  0
 17  9  1  0
 37 21  1  0
 35 29  1  0
  1 39  1  0
  1 40  1  0
  1 41  1  0
  3 42  1  0
  3 43  1  0
  3 44  1  0
  7 45  1  0
  8 46  1  0
 10 47  1  0
 11 48  1  0
 12 49  1  0
 17 50  1  0
 20 51  1  0
 22 52  1  0
 23 53  1  0
 25 54  1  0
 28 55  1  0
 30 56  1  0
 31 57  1  0
 34 58  1  0
 35 59  1  0
 36 60  1  0
 37 61  1  0
M  CHG  2  14   1  16  -1
M  END
>  <Binding energies>  (1) 
[-8.7]

>  <Ligand effiencies>  (1) 
[-0.2121951219512195]

>  <Interactions>  (1) 
["V-A:ILE:369:CG2:3237, V-A:ASP:366:CA:3210, V-B:GLU:543:C:9874, V-A:ILE:369:CB:3236, H-B:GLU:543:O:9875, V-B:HIS:456:CD2:9039, V-A:GLU:543:C:4902, V-B:GLU:543:CB:9878, V-B:TYR:539:CE2:9848, V-A:TYR:484:CE2:4346, V-B:GLU:543:CG:9879, V-A:ASP:366:CG:3213, V-A:TYR:539:CD1:4873, V-B:TYR:539:CZ:9849, V-A:ILE:538:CA:4860, V-B:LYS:547:CE:9922, V-A:TYR:539:CA:4869, V-A:GLU:543:CD:4908, V-A:TYR:484:CZ:4347, V-B:GLU:543:CA:9876, V-A:ILE:369:CD1:3239, V-A:HIS:456:CE1:4070, V-A:ASP:366:C:3208, V-B:GLU:543:CD:9880, V-B:HIS:456:CG:9037, V-A:ILE:369:CG1:3238, V-A:ASP:366:CB:3212, V-A:TYR:539:C:4867, V-A:PRO:540:N:4884, H-A:TYR:539:N:4870, V-A:PRO:540:CA:4883, V-A:TYR:539:CE1:4875, H-A:HIS:456:NE2:4071"]

$$$$
ZINC2382246871
     RDKit          3D

 70 73  0  0  0  0  0  0  0  0999 V2000
  128.0130  133.6120   60.1970 C   0  0  0  0  0  0  0  0  0  0  0  0
  128.7130  132.5750   60.6870 C   0  0  0  0  0  0  0  0  0  0  0  0
  128.6150  131.1430   60.1320 C   0  0  0  0  0  0  0  0  0  0  0  0
  129.5070  130.1830   60.9920 C   0  0  2  0  0  0  0  0  0  0  0  0
  129.4050  128.7350   60.5280 C   0  0  0  0  0  0  0  0  0  0  0  0
  128.8780  127.6990   61.2170 C   0  0  0  0  0  0  0  0  0  0  0  0
  128.9290  126.0600   60.4990 S   0  0  0  0  0  0  0  0  0  0  0  0
  130.3040  125.2110   61.3640 C   0  0  0  0  0  0  0  0  0  0  0  0
  131.1080  126.2870   62.1250 C   0  0  0  0  0  0  0  0  0  0  0  0
  129.7630  124.1870   62.3850 C   0  0  0  0  0  0  0  0  0  0  0  0
  131.2560  124.4910   60.3850 C   0  0  0  0  0  0  0  0  0  0  0  0
  128.1980  127.8750   62.5190 C   0  0  0  0  0  0  0  0  0  0  0  0
  127.8120  126.8970   63.1640 O   0  0  0  0  0  0  0  0  0  0  0  0
  127.9910  129.3300   63.0580 C   0  0  1  0  0  0  0  0  0  0  0  0
  126.6050  129.7580   62.4950 C   0  0  0  0  0  0  0  0  0  0  0  0
  127.9840  129.3300   64.6260 C   0  0  0  0  0  0  0  0  0  0  0  0
  128.6300  128.1120   65.3460 C   0  0  0  0  0  0  0  0  0  0  0  0
  128.5530  128.1810   66.8780 C   0  0  0  0  0  0  0  0  0  0  0  0
  127.6380  128.7990   67.4290 O   0  0  0  0  0  0  0  0  0  0  0  0
  129.5430  127.5540   67.5460 N   0  0  0  0  0  0  0  0  0  0  0  0
  129.6710  127.5160   68.9470 C   0  0  0  0  0  0  0  0  0  0  0  0
  130.9360  127.7480   69.5100 C   0  0  0  0  0  0  0  0  0  0  0  0
  132.0330  128.0280   68.7300 O   0  0  0  0  0  0  0  0  0  0  0  0
  131.1010  127.7080   70.8930 C   0  0  0  0  0  0  0  0  0  0  0  0
  130.0200  127.4240   71.7200 C   0  0  0  0  0  0  0  0  0  0  0  0
  128.7510  127.1670   71.1840 C   0  0  0  0  0  0  0  0  0  0  0  0
  127.6260  126.8450   72.1160 C   0  0  0  0  0  0  0  0  0  0  0  0
  127.7380  125.8130   72.8180 O   0  0  0  0  0  0  0  0  0  0  0  0
  126.6610  127.6420   72.1490 O   0  0  0  0  0  0  0  0  0  0  0  0
  128.5750  127.2130   69.7830 C   0  0  0  0  0  0  0  0  0  0  0  0
  127.3410  126.9560   69.2250 O   0  0  0  0  0  0  0  0  0  0  0  0
  129.1400  130.2580   62.5140 C   0  0  2  0  0  0  0  0  0  0  0  0
  129.1450  131.7470   62.9950 C   0  0  0  0  0  0  0  0  0  0  0  0
  129.6860  132.6720   61.8680 C   0  0  1  0  0  0  0  0  0  0  0  0
  131.0690  132.1810   61.3610 C   0  0  0  0  0  0  0  0  0  0  0  0
  130.9700  130.7140   60.8440 C   0  0  0  0  0  0  0  0  0  0  0  0
  128.1291  134.6122   60.6398 H   0  0  0  0  0  0  0  0  0  0  0  0
  127.3239  133.4607   59.3531 H   0  0  0  0  0  0  0  0  0  0  0  0
  127.5689  130.8054   60.1731 H   0  0  0  0  0  0  0  0  0  0  0  0
  128.9655  131.1308   59.0894 H   0  0  0  0  0  0  0  0  0  0  0  0
  129.8020  128.5096   59.5272 H   0  0  0  0  0  0  0  0  0  0  0  0
  130.9930  126.1330   63.2081 H   0  0  0  0  0  0  0  0  0  0  0  0
  132.1714  126.2097   61.8546 H   0  0  0  0  0  0  0  0  0  0  0  0
  130.7325  127.2849   61.8546 H   0  0  0  0  0  0  0  0  0  0  0  0
  129.9549  124.5502   63.4054 H   0  0  0  0  0  0  0  0  0  0  0  0
  128.6802  124.0602   62.2385 H   0  0  0  0  0  0  0  0  0  0  0  0
  130.2685  123.2211   62.2385 H   0  0  0  0  0  0  0  0  0  0  0  0
  132.0067  123.9233   60.9543 H   0  0  0  0  0  0  0  0  0  0  0  0
  130.6781  123.8020   59.7515 H   0  0  0  0  0  0  0  0  0  0  0  0
  131.7616  125.2347   59.7515 H   0  0  0  0  0  0  0  0  0  0  0  0
  125.9199  129.9696   63.3292 H   0  0  0  0  0  0  0  0  0  0  0  0
  126.7227  130.6617   61.8789 H   0  0  0  0  0  0  0  0  0  0  0  0
  126.1927  128.9453   61.8789 H   0  0  0  0  0  0  0  0  0  0  0  0
  128.5198  130.2315   64.9581 H   0  0  0  0  0  0  0  0  0  0  0  0
  126.9200  129.2872   64.9019 H   0  0  0  0  0  0  0  0  0  0  0  0
  128.1129  127.1996   65.0142 H   0  0  0  0  0  0  0  0  0  0  0  0
  129.6974  128.1137   65.0800 H   0  0  0  0  0  0  0  0  0  0  0  0
  130.3170  127.1820   67.0150 H   0  0  0  0  0  0  0  0  0  0  0  0
  131.8440  127.9690   67.7920 H   0  0  0  0  0  0  0  0  0  0  0  0
  132.0906  127.9019   71.3324 H   0  0  0  0  0  0  0  0  0  0  0  0
  130.1629  127.4007   72.8104 H   0  0  0  0  0  0  0  0  0  0  0  0
  127.0850  127.6180   68.5800 H   0  0  0  0  0  0  0  0  0  0  0  0
  129.9547  129.7386   63.0398 H   0  0  0  0  0  0  0  0  0  0  0  0
  128.1192  132.0494   63.2525 H   0  0  0  0  0  0  0  0  0  0  0  0
  129.7952  131.8376   63.8776 H   0  0  0  0  0  0  0  0  0  0  0  0
  129.7824  133.6957   62.2589 H   0  0  0  0  0  0  0  0  0  0  0  0
  131.4062  132.8321   60.5410 H   0  0  0  0  0  0  0  0  0  0  0  0
  131.7872  132.2177   62.1934 H   0  0  0  0  0  0  0  0  0  0  0  0
  131.2617  130.6826   59.7839 H   0  0  0  0  0  0  0  0  0  0  0  0
  131.6426  130.0791   61.4394 H   0  0  0  0  0  0  0  0  0  0  0  0
  1  2  2  0
  2  3  1  0
  3  4  1  0
  4  5  1  6
  5  6  2  0
  6  7  1  0
  7  8  1  0
  8  9  1  0
  8 10  1  0
  8 11  1  0
  6 12  1  0
 12 13  2  0
 12 14  1  0
 14 15  1  6
 14 16  1  0
 16 17  1  0
 17 18  1  0
 18 19  2  0
 18 20  1  0
 20 21  1  0
 21 22  2  0
 22 23  1  0
 22 24  1  0
 24 25  2  0
 25 26  1  0
 26 27  1  0
 27 28  2  0
 27 29  1  0
 26 30  2  0
 30 31  1  0
 14 32  1  0
 32 33  1  0
 33 34  1  0
 34 35  1  0
 35 36  1  0
 34  2  1  0
 32  4  1  0
 36  4  1  0
 30 21  1  0
  1 37  1  0
  1 38  1  0
  3 39  1  0
  3 40  1  0
  5 41  1  0
  9 42  1  0
  9 43  1  0
  9 44  1  0
 10 45  1  0
 10 46  1  0
 10 47  1  0
 11 48  1  0
 11 49  1  0
 11 50  1  0
 15 51  1  0
 15 52  1  0
 15 53  1  0
 16 54  1  0
 16 55  1  0
 17 56  1  0
 17 57  1  0
 20 58  1  0
 23 59  1  0
 24 60  1  0
 25 61  1  0
 31 62  1  0
 32 63  1  1
 33 64  1  0
 33 65  1  0
 34 66  1  1
 35 67  1  0
 35 68  1  0
 36 69  1  0
 36 70  1  0
M  CHG  1  29  -1
M  END
>  <Binding energies>  (1) 
[-6.96]

>  <Ligand effiencies>  (1) 
[-0.17846153846153845]

>  <Interactions>  (1) 
["H-A:GLU:543:OE2:4910, V-A:GLU:543:C:4902, V-A:PRO:540:C:4881, H-B:LYS:547:NZ:9923, V-B:TYR:539:CE2:9848, V-A:GLY:544:C:4912, V-A:HIS:456:CD2:4068, H-A:ARG:545:N:4920, H-B:HIS:456:ND1:9038, V-A:TYR:539:CD1:4873, V-A:ALA:541:CB:4892, V-B:LYS:547:CE:9922, V-A:GLU:543:CD:4908, H-B:TYR:484:OH:9319, V-B:HIS:456:CE1:9041, V-A:HIS:456:CE1:4070, V-B:GLY:544:C:9884, H-B:HIS:456:NE2:9042, V-B:GLY:544:CA:9886, V-A:GLU:543:CG:4907, V-B:GLU:543:CD:9880, V-A:TYR:539:C:4867, V-A:GLU:543:CB:4906, H-B:GLU:543:OE2:9882, V-A:PRO:540:CA:4883, V-A:PRO:540:CB:4885, V-A:TYR:539:CE1:4875"]

$$$$
ZINC2382247381-again1
     RDKit          3D

 70 74  0  0  0  0  0  0  0  0999 V2000
  133.3290  130.8780   58.2600 C   0  0  0  0  0  0  0  0  0  0  0  0
  131.9600  131.4530   58.5740 C   0  0  0  0  0  0  0  0  0  0  0  0
  131.0810  131.7820   57.5400 C   0  0  0  0  0  0  0  0  0  0  0  0
  129.8190  132.2970   57.8290 C   0  0  0  0  0  0  0  0  0  0  0  0
  129.4340  132.4800   59.1550 C   0  0  0  0  0  0  0  0  0  0  0  0
  128.1730  132.9970   59.3720 O   0  0  0  0  0  0  0  0  0  0  0  0
  127.7700  133.1730   60.6560 C   0  0  0  0  0  0  0  0  0  0  0  0
  128.4940  132.8990   61.7610 C   0  0  0  0  0  0  0  0  0  0  0  0
  127.9430  133.1140   63.1740 C   0  0  0  0  0  0  0  0  0  0  0  0
  127.6640  131.9120   63.9720 N   0  0  0  0  0  0  0  0  0  0  0  0
  128.7320  131.6930   64.9500 C   0  0  0  0  0  0  0  0  0  0  0  0
  127.4780  130.7520   63.0960 C   0  0  0  0  0  0  0  0  0  0  0  0
  126.8940  129.5360   63.8530 C   0  0  0  0  0  0  0  0  0  0  0  0
  127.0730  128.2300   63.0370 N   0  0  1  0  0  0  0  0  0  0  0  0
  126.2600  128.2360   61.7240 C   0  0  0  0  0  0  0  0  0  0  0  0
  128.5540  127.8820   62.7520 C   0  0  0  0  0  0  0  0  0  0  0  0
  128.7340  126.3800   62.6490 C   0  0  0  0  0  0  0  0  0  0  0  0
  128.0970  125.5110   61.7890 C   0  0  0  0  0  0  0  0  0  0  0  0
  128.5190  124.2130   61.9600 N   0  0  0  0  0  0  0  0  0  0  0  0
  127.5610  122.8800   61.4280 S   0  0  0  0  0  0  0  0  0  0  0  0
  128.4560  121.7170   61.3980 O   0  0  0  0  0  0  0  0  0  0  0  0
  126.3440  122.8840   62.2480 O   0  0  0  0  0  0  0  0  0  0  0  0
  127.1180  123.3050   59.7470 C   0  0  0  0  0  0  0  0  0  0  0  0
  125.9440  124.0210   59.4980 C   0  0  0  0  0  0  0  0  0  0  0  0
  125.5910  124.3340   58.1880 C   0  0  0  0  0  0  0  0  0  0  0  0
  126.4090  123.9270   57.1360 C   0  0  0  0  0  0  0  0  0  0  0  0
  127.5780  123.2090   57.3810 C   0  0  0  0  0  0  0  0  0  0  0  0
  127.9330  122.8960   58.6900 C   0  0  0  0  0  0  0  0  0  0  0  0
  129.4450  124.2020   62.9940 C   0  0  0  0  0  0  0  0  0  0  0  0
  130.1630  123.1500   63.5820 C   0  0  0  0  0  0  0  0  0  0  0  0
  131.0340  123.4680   64.6230 C   0  0  0  0  0  0  0  0  0  0  0  0
  131.1970  124.7740   65.0710 C   0  0  0  0  0  0  0  0  0  0  0  0
  130.4890  125.8240   64.4930 C   0  0  0  0  0  0  0  0  0  0  0  0
  129.5970  125.5540   63.4420 C   0  0  0  0  0  0  0  0  0  0  0  0
  129.8670  132.3570   61.6390 C   0  0  0  0  0  0  0  0  0  0  0  0
  130.6160  132.0980   62.5820 O   0  0  0  0  0  0  0  0  0  0  0  0
  130.2990  132.1510   60.2150 C   0  0  0  0  0  0  0  0  0  0  0  0
  131.5660  131.6340   59.9040 C   0  0  0  0  0  0  0  0  0  0  0  0
  133.8576  130.6560   59.1988 H   0  0  0  0  0  0  0  0  0  0  0  0
  133.2130  129.9526   57.6768 H   0  0  0  0  0  0  0  0  0  0  0  0
  133.9086  131.6087   57.6768 H   0  0  0  0  0  0  0  0  0  0  0  0
  131.3860  131.6340   56.4935 H   0  0  0  0  0  0  0  0  0  0  0  0
  129.1292  132.5581   57.0129 H   0  0  0  0  0  0  0  0  0  0  0  0
  126.7585  133.5768   60.8102 H   0  0  0  0  0  0  0  0  0  0  0  0
  128.6773  133.7170   63.7282 H   0  0  0  0  0  0  0  0  0  0  0  0
  126.9638  133.5936   63.0285 H   0  0  0  0  0  0  0  0  0  0  0  0
  128.3210  131.7773   65.9668 H   0  0  0  0  0  0  0  0  0  0  0  0
  129.1582  130.6888   64.8089 H   0  0  0  0  0  0  0  0  0  0  0  0
  129.5190  132.4485   64.8089 H   0  0  0  0  0  0  0  0  0  0  0  0
  126.7891  131.0280   62.2841 H   0  0  0  0  0  0  0  0  0  0  0  0
  128.4643  130.4636   62.7034 H   0  0  0  0  0  0  0  0  0  0  0  0
  127.4126  129.4307   64.8174 H   0  0  0  0  0  0  0  0  0  0  0  0
  125.8183  129.7056   64.0081 H   0  0  0  0  0  0  0  0  0  0  0  0
  126.7090  127.4760   63.6030 H   0  0  0  0  0  0  0  0  0  0  0  0
  125.1853  128.2439   61.9582 H   0  0  0  0  0  0  0  0  0  0  0  0
  126.5145  129.1323   61.1393 H   0  0  0  0  0  0  0  0  0  0  0  0
  126.5012  127.3361   61.1393 H   0  0  0  0  0  0  0  0  0  0  0  0
  128.8603  128.3495   61.8046 H   0  0  0  0  0  0  0  0  0  0  0  0
  129.1745  128.2598   63.5780 H   0  0  0  0  0  0  0  0  0  0  0  0
  127.3402  125.8193   61.0526 H   0  0  0  0  0  0  0  0  0  0  0  0
  125.3015  124.3360   60.3334 H   0  0  0  0  0  0  0  0  0  0  0  0
  124.6702  124.9002   57.9844 H   0  0  0  0  0  0  0  0  0  0  0  0
  126.1292  124.1750   56.1015 H   0  0  0  0  0  0  0  0  0  0  0  0
  128.2171  122.8912   56.5440 H   0  0  0  0  0  0  0  0  0  0  0  0
  128.8532  122.3279   58.8910 H   0  0  0  0  0  0  0  0  0  0  0  0
  130.0432  122.1132   63.2347 H   0  0  0  0  0  0  0  0  0  0  0  0
  131.6087  122.6626   65.1037 H   0  0  0  0  0  0  0  0  0  0  0  0
  131.8961  124.9808   65.8947 H   0  0  0  0  0  0  0  0  0  0  0  0
  130.6265  126.8535   64.8552 H   0  0  0  0  0  0  0  0  0  0  0  0
  132.2582  131.3677   60.7164 H   0  0  0  0  0  0  0  0  0  0  0  0
  1  2  1  0
  2  3  2  0
  3  4  1  0
  4  5  2  0
  5  6  1  0
  6  7  1  0
  7  8  2  0
  8  9  1  0
  9 10  1  0
 10 11  1  0
 10 12  1  0
 12 13  1  0
 13 14  1  0
 14 15  1  0
 14 16  1  0
 16 17  1  0
 17 18  2  0
 18 19  1  0
 19 20  1  0
 20 21  2  0
 20 22  2  0
 20 23  1  0
 23 24  2  0
 24 25  1  0
 25 26  2  0
 26 27  1  0
 27 28  2  0
 19 29  1  0
 29 30  2  0
 30 31  1  0
 31 32  2  0
 32 33  1  0
 33 34  2  0
  8 35  1  0
 35 36  2  0
 35 37  1  0
 37 38  2  0
 38  2  1  0
 37  5  1  0
 34 17  1  0
 28 23  1  0
 34 29  1  0
  1 39  1  0
  1 40  1  0
  1 41  1  0
  3 42  1  0
  4 43  1  0
  7 44  1  0
  9 45  1  0
  9 46  1  0
 11 47  1  0
 11 48  1  0
 11 49  1  0
 12 50  1  0
 12 51  1  0
 13 52  1  0
 13 53  1  0
 14 54  1  1
 15 55  1  0
 15 56  1  0
 15 57  1  0
 16 58  1  0
 16 59  1  0
 18 60  1  0
 24 61  1  0
 25 62  1  0
 26 63  1  0
 27 64  1  0
 28 65  1  0
 30 66  1  0
 31 67  1  0
 32 68  1  0
 33 69  1  0
 38 70  1  0
M  CHG  1  14   1
M  END
>  <Binding energies>  (1) 
[-11.25]

>  <Ligand effiencies>  (1) 
[-0.28846153846153844]

>  <Interactions>  (1) 
["V-B:PRO:540:CA:9855, H-A:ALA:541:N:4891, V-A:PRO:540:C:4881, V-B:ASP:366:CG:8184, V-B:TYR:539:CE2:9848, V-A:TYR:484:CE2:4346, V-B:LEU:475:CD2:9230, V-B:GLU:543:CG:9879, V-B:TYR:539:C:9839, V-A:ASP:366:CG:3213, V-A:LEU:363:CD1:3189, V-B:TYR:484:CE2:9317, V-A:TYR:539:CD1:4873, V-B:TYR:539:CZ:9849, H-B:GLU:543:OE1:9881, V-A:ALA:541:CB:4892, H-B:ALA:541:N:9863, V-A:GLU:543:CD:4908, V-A:TYR:484:CZ:4347, V-B:PRO:540:CB:9857, H-B:TYR:484:OH:9319, V-B:PRO:540:N:9856, V-B:TYR:484:CZ:9318, V-B:TYR:539:CD2:9846, V-A:GLU:543:CG:4907, V-B:GLU:543:CD:9880, V-A:TYR:539:C:4867, V-A:ASP:366:CB:3212, V-A:GLU:543:CB:4906, V-A:PRO:540:N:4884, H-B:GLU:543:OE2:9882, V-A:PRO:540:CA:4883, V-A:PRO:540:CB:4885, V-A:LEU:363:CA:3185, V-B:PRO:540:C:9853, V-B:TYR:539:CE1:9847"]

$$$$
ZINC2382252818
     RDKit          3D

100102  0  0  0  0  0  0  0  0999 V2000
  131.6960  131.2460   61.6710 C   0  0  0  0  0  0  0  0  0  0  0  0
  130.2450  131.0700   61.2140 C   0  0  0  0  0  0  0  0  0  0  0  0
  129.8270  129.7480   61.5360 O   0  0  0  0  0  0  0  0  0  0  0  0
  128.4740  129.6040   61.9680 C   0  0  2  0  0  0  0  0  0  0  0  0
  127.5520  130.5200   61.1170 C   0  0  0  0  0  0  0  0  0  0  0  0
  126.1430  129.9440   60.7880 C   0  0  2  0  0  0  0  0  0  0  0  0
  125.4860  129.0920   61.9240 C   0  0  0  0  0  0  0  0  0  0  0  0
  125.3780  129.7880   63.2960 C   0  0  0  0  0  0  0  0  0  0  0  0
  126.1380  127.7010   62.0660 C   0  0  0  0  0  0  0  0  0  0  0  0
  126.0920  129.3300   59.4340 N   0  0  0  0  0  0  0  0  0  0  0  0
  125.4880  130.1430   58.3710 C   0  0  0  0  0  0  0  0  0  0  0  0
  126.6460  128.1060   59.1950 C   0  0  0  0  0  0  0  0  0  0  0  0
  126.0380  127.1920   58.6250 O   0  0  0  0  0  0  0  0  0  0  0  0
  128.1030  127.7970   59.6420 C   0  0  2  0  0  0  0  0  0  0  0  0
  129.0390  127.7390   58.4230 C   0  0  0  0  0  0  0  0  0  0  0  0
  128.1820  126.5090   60.3350 N   0  0  0  0  0  0  0  0  0  0  0  0
  127.9980  125.3130   59.7490 C   0  0  0  0  0  0  0  0  0  0  0  0
  127.6400  125.1920   58.5750 O   0  0  0  0  0  0  0  0  0  0  0  0
  128.2550  124.0700   60.6370 C   0  0  1  0  0  0  0  0  0  0  0  0
  129.6410  124.2220   61.3240 C   0  0  0  0  0  0  0  0  0  0  0  0
  129.8900  123.1490   62.3970 C   0  0  0  0  0  0  0  0  0  0  0  0
  128.7580  123.1470   63.4350 C   0  0  0  0  0  0  0  0  0  0  0  0
  127.3800  122.9500   62.7810 C   0  0  0  0  0  0  0  0  0  0  0  0
  127.1290  124.0520   61.7200 N   0  0  2  0  0  0  0  0  0  0  0  0
  125.7230  123.8020   61.1160 C   0  0  0  0  0  0  0  0  0  0  0  0
  128.4270  129.9630   63.4450 C   0  0  0  0  0  0  0  0  0  0  0  0
  128.1810  129.0700   64.3740 N   0  0  0  0  0  0  0  0  0  0  0  0
  128.1560  129.5730   65.6030 C   0  0  0  0  0  0  0  0  0  0  0  0
  127.8930  128.7270   66.7530 C   0  0  0  0  0  0  0  0  0  0  0  0
  126.7420  128.5550   67.1620 O   0  0  0  0  0  0  0  0  0  0  0  0
  128.9760  128.1780   67.3430 N   0  0  0  0  0  0  0  0  0  0  0  0
  128.9770  127.3260   68.5360 C   0  0  1  0  0  0  0  0  0  0  0  0
  129.4810  125.9020   68.2000 C   0  0  0  0  0  0  0  0  0  0  0  0
  130.2170  125.8000   66.8680 C   0  0  0  0  0  0  0  0  0  0  0  0
  131.5900  125.5430   66.8480 C   0  0  0  0  0  0  0  0  0  0  0  0
  132.2620  125.4490   65.6320 C   0  0  0  0  0  0  0  0  0  0  0  0
  131.5580  125.6160   64.4410 C   0  0  0  0  0  0  0  0  0  0  0  0
  130.1890  125.8730   64.4540 C   0  0  0  0  0  0  0  0  0  0  0  0
  129.5160  125.9630   65.6700 C   0  0  0  0  0  0  0  0  0  0  0  0
  129.7270  127.9510   69.7520 C   0  0  0  0  0  0  0  0  0  0  0  0
  129.4740  127.3480   71.1690 C   0  0  2  0  0  0  0  0  0  0  0  0
  127.9820  127.4580   71.5670 C   0  0  0  0  0  0  0  0  0  0  0  0
  130.3740  127.9840   72.2640 C   0  0  0  0  0  0  0  0  0  0  0  0
  131.2570  127.2770   72.8050 O   0  0  0  0  0  0  0  0  0  0  0  0
  130.1550  129.1810   72.5620 O   0  0  0  0  0  0  0  0  0  0  0  0
  128.3640  130.9510   65.6650 C   0  0  0  0  0  0  0  0  0  0  0  0
  128.6350  131.5740   64.0690 S   0  0  0  0  0  0  0  0  0  0  0  0
  131.7362  131.2509   62.7703 H   0  0  0  0  0  0  0  0  0  0  0  0
  132.3052  130.4152   61.2855 H   0  0  0  0  0  0  0  0  0  0  0  0
  132.0889  132.1984   61.2855 H   0  0  0  0  0  0  0  0  0  0  0  0
  129.6025  131.7984   61.7303 H   0  0  0  0  0  0  0  0  0  0  0  0
  130.1689  131.2355   60.1292 H   0  0  0  0  0  0  0  0  0  0  0  0
  128.1143  128.5732   61.8336 H   0  0  0  0  0  0  0  0  0  0  0  0
  127.4116  131.4623   61.6669 H   0  0  0  0  0  0  0  0  0  0  0  0
  128.0601  130.6391   60.1487 H   0  0  0  0  0  0  0  0  0  0  0  0
  125.4740  130.8162   60.7477 H   0  0  0  0  0  0  0  0  0  0  0  0
  124.4486  128.9655   61.5807 H   0  0  0  0  0  0  0  0  0  0  0  0
  125.4938  129.0418   64.0958 H   0  0  0  0  0  0  0  0  0  0  0  0
  126.1691  130.5470   63.3854 H   0  0  0  0  0  0  0  0  0  0  0  0
  124.3941  130.2716   63.3854 H   0  0  0  0  0  0  0  0  0  0  0  0
  126.2524  127.4568   63.1324 H   0  0  0  0  0  0  0  0  0  0  0  0
  125.5000  126.9460   61.5834 H   0  0  0  0  0  0  0  0  0  0  0  0
  127.1265  127.7084   61.5834 H   0  0  0  0  0  0  0  0  0  0  0  0
  124.8894  130.9487   58.8209 H   0  0  0  0  0  0  0  0  0  0  0  0
  126.2820  130.5803   57.7478 H   0  0  0  0  0  0  0  0  0  0  0  0
  124.8401  129.5091   57.7478 H   0  0  0  0  0  0  0  0  0  0  0  0
  128.4112  128.6036   60.3235 H   0  0  0  0  0  0  0  0  0  0  0  0
  130.0826  127.6743   58.7648 H   0  0  0  0  0  0  0  0  0  0  0  0
  128.7964  126.8542   57.8162 H   0  0  0  0  0  0  0  0  0  0  0  0
  128.9075  128.6470   57.8162 H   0  0  0  0  0  0  0  0  0  0  0  0
  128.4610  126.5500   61.3050 H   0  0  0  0  0  0  0  0  0  0  0  0
  128.2497  123.1403   60.0491 H   0  0  0  0  0  0  0  0  0  0  0  0
  130.4252  124.1417   60.5568 H   0  0  0  0  0  0  0  0  0  0  0  0
  129.6600  125.2024   61.8225 H   0  0  0  0  0  0  0  0  0  0  0  0
  129.9401  122.1613   61.9153 H   0  0  0  0  0  0  0  0  0  0  0  0
  130.8381  123.3728   62.9079 H   0  0  0  0  0  0  0  0  0  0  0  0
  128.9325  122.3293   64.1498 H   0  0  0  0  0  0  0  0  0  0  0  0
  128.7583  124.1235   63.9414 H   0  0  0  0  0  0  0  0  0  0  0  0
  127.3458  121.9635   62.2955 H   0  0  0  0  0  0  0  0  0  0  0  0
  126.6022  123.0140   63.5562 H   0  0  0  0  0  0  0  0  0  0  0  0
  127.1360  124.9470   62.1890 H   0  0  0  0  0  0  0  0  0  0  0  0
  124.9928  123.6722   61.9283 H   0  0  0  0  0  0  0  0  0  0  0  0
  125.4322  124.6625   60.4956 H   0  0  0  0  0  0  0  0  0  0  0  0
  125.7466  122.8940   60.4956 H   0  0  0  0  0  0  0  0  0  0  0  0
  129.8790  128.3520   66.9250 H   0  0  0  0  0  0  0  0  0  0  0  0
  127.9296  127.2457   68.8624 H   0  0  0  0  0  0  0  0  0  0  0  0
  130.1658  125.5806   68.9986 H   0  0  0  0  0  0  0  0  0  0  0  0
  128.5906  125.2610   68.1203 H   0  0  0  0  0  0  0  0  0  0  0  0
  132.1398  125.4150   67.7921 H   0  0  0  0  0  0  0  0  0  0  0  0
  133.3425  125.2441   65.6117 H   0  0  0  0  0  0  0  0  0  0  0  0
  132.0890  125.5441   63.4804 H   0  0  0  0  0  0  0  0  0  0  0  0
  129.6422  126.0042   63.5086 H   0  0  0  0  0  0  0  0  0  0  0  0
  128.4343  126.1621   65.6875 H   0  0  0  0  0  0  0  0  0  0  0  0
  130.8046  127.8642   69.5492 H   0  0  0  0  0  0  0  0  0  0  0  0
  129.3293  128.9744   69.8184 H   0  0  0  0  0  0  0  0  0  0  0  0
  129.7468  126.2844   71.1028 H   0  0  0  0  0  0  0  0  0  0  0  0
  127.8945  127.4644   72.6635 H   0  0  0  0  0  0  0  0  0  0  0  0
  127.5617  128.3896   71.1602 H   0  0  0  0  0  0  0  0  0  0  0  0
  127.4296  126.5981   71.1602 H   0  0  0  0  0  0  0  0  0  0  0  0
  128.3572  131.5516   66.5865 H   0  0  0  0  0  0  0  0  0  0  0  0
  1  2  1  0
  2  3  1  0
  3  4  1  0
  4  5  1  0
  5  6  1  0
  6  7  1  0
  7  8  1  0
  7  9  1  0
  6 10  1  0
 10 11  1  0
 10 12  1  0
 12 13  2  0
 12 14  1  0
 14 15  1  0
 14 16  1  0
 16 17  1  0
 17 18  2  0
 17 19  1  0
 19 20  1  0
 20 21  1  0
 21 22  1  0
 22 23  1  0
 23 24  1  0
 24 25  1  0
  4 26  1  0
 26 27  2  0
 27 28  1  0
 28 29  1  0
 29 30  2  0
 29 31  1  0
 31 32  1  0
 32 33  1  0
 33 34  1  0
 34 35  2  0
 35 36  1  0
 36 37  2  0
 37 38  1  0
 38 39  2  0
 32 40  1  0
 40 41  1  0
 41 42  1  0
 41 43  1  0
 43 44  2  0
 43 45  1  0
 28 46  2  0
 46 47  1  0
 24 19  1  0
 47 26  1  0
 39 34  1  0
  1 48  1  0
  1 49  1  0
  1 50  1  0
  2 51  1  0
  2 52  1  0
  4 53  1  1
  5 54  1  0
  5 55  1  0
  6 56  1  6
  7 57  1  0
  8 58  1  0
  8 59  1  0
  8 60  1  0
  9 61  1  0
  9 62  1  0
  9 63  1  0
 11 64  1  0
 11 65  1  0
 11 66  1  0
 14 67  1  1
 15 68  1  0
 15 69  1  0
 15 70  1  0
 16 71  1  0
 19 72  1  6
 20 73  1  0
 20 74  1  0
 21 75  1  0
 21 76  1  0
 22 77  1  0
 22 78  1  0
 23 79  1  0
 23 80  1  0
 24 81  1  1
 25 82  1  0
 25 83  1  0
 25 84  1  0
 31 85  1  0
 32 86  1  1
 33 87  1  0
 33 88  1  0
 35 89  1  0
 36 90  1  0
 37 91  1  0
 38 92  1  0
 39 93  1  0
 40 94  1  0
 40 95  1  0
 41 96  1  6
 42 97  1  0
 42 98  1  0
 42 99  1  0
 46100  1  0
M  CHG  2  24   1  45  -1
M  END
>  <Binding energies>  (1) 
[-7.65]

>  <Ligand effiencies>  (1) 
[-0.153]

>  <Interactions>  (1) 
["V-B:PRO:540:CA:9855, V-B:GLU:543:C:9874, H-A:GLU:543:OE2:4910, V-B:HIS:456:CD2:9039, V-B:GLU:543:CB:9878, V-B:ASP:366:CG:8184, V-B:ALA:541:CB:9864, V-B:GLU:543:CG:9879, V-A:GLY:544:C:4912, V-B:TYR:484:CE2:9317, H-B:GLU:543:OE1:9881, V-A:ALA:541:CB:4892, V-B:ASP:366:CB:8183, V-B:PRO:540:CB:9857, V-A:GLU:543:CD:4908, V-A:TYR:484:CZ:4347, H-B:TYR:484:OH:9319, V-B:HIS:456:CE1:9041, V-B:GLU:543:CA:9876, V-B:TYR:484:CZ:9318, V-A:HIS:456:CE1:4070, V-A:GLU:543:CG:4907, V-B:GLU:543:CD:9880, V-B:ARG:545:CZ:9898, H-B:TYR:531:OH:9767, H-A:LYS:547:NZ:4951, V-A:ARG:545:CZ:4926, H-A:GLU:543:OE1:4909, V-A:GLU:543:CB:4906, V-B:ALA:541:CA:9862"]

$$$$
ZINC2382257005
     RDKit          3D

 36 38  0  0  0  0  0  0  0  0999 V2000
  129.8770  125.7310   67.3690 C   0  0  0  0  0  0  0  0  0  0  0  0
  130.1440  125.4930   65.8770 C   0  0  0  0  0  0  0  0  0  0  0  0
  130.6160  124.0570   65.5750 C   0  0  0  0  0  0  0  0  0  0  0  0
  131.3500  123.9450   64.2280 C   0  0  0  0  0  0  0  0  0  0  0  0
  132.7040  124.3410   64.1720 C   0  0  0  0  0  0  0  0  0  0  0  0
  133.3590  124.7720   65.3020 O   0  0  0  0  0  0  0  0  0  0  0  0
  133.4090  124.3070   62.9640 C   0  0  0  0  0  0  0  0  0  0  0  0
  134.7220  124.7030   62.8960 O   0  0  0  0  0  0  0  0  0  0  0  0
  132.7810  123.8690   61.8050 C   0  0  0  0  0  0  0  0  0  0  0  0
  131.4600  123.4430   61.8540 C   0  0  0  0  0  0  0  0  0  0  0  0
  130.9190  123.0250   60.6540 O   0  0  0  0  0  0  0  0  0  0  0  0
  129.5550  123.1130   60.4810 C   0  0  0  0  0  0  0  0  0  0  0  0
  129.0950  123.2500   59.1730 C   0  0  0  0  0  0  0  0  0  0  0  0
  127.7270  123.3430   58.9310 C   0  0  0  0  0  0  0  0  0  0  0  0
  127.2640  123.4640   57.6490 O   0  0  0  0  0  0  0  0  0  0  0  0
  126.8290  123.3130   59.9980 C   0  0  0  0  0  0  0  0  0  0  0  0
  127.2890  123.1980   61.3120 C   0  0  0  0  0  0  0  0  0  0  0  0
  126.3480  123.2030   62.3120 O   0  0  0  0  0  0  0  0  0  0  0  0
  128.6730  123.1010   61.5730 C   0  0  0  0  0  0  0  0  0  0  0  0
  129.2770  123.0160   62.9460 C   0  0  0  0  0  0  0  0  0  0  0  0
  128.5910  122.7420   63.9300 O   0  0  0  0  0  0  0  0  0  0  0  0
  130.7130  123.4720   63.0480 C   0  0  0  0  0  0  0  0  0  0  0  0
  130.5660  125.1168   67.9673 H   0  0  0  0  0  0  0  0  0  0  0  0
  130.0344  126.7939   67.6047 H   0  0  0  0  0  0  0  0  0  0  0  0
  128.8391  125.4530   67.6047 H   0  0  0  0  0  0  0  0  0  0  0  0
  129.2148  125.6819   65.3194 H   0  0  0  0  0  0  0  0  0  0  0  0
  130.9498  126.1769   65.5721 H   0  0  0  0  0  0  0  0  0  0  0  0
  131.2983  123.7350   66.3755 H   0  0  0  0  0  0  0  0  0  0  0  0
  129.7224  123.4178   65.5209 H   0  0  0  0  0  0  0  0  0  0  0  0
  132.9130  124.5050   66.1080 H   0  0  0  0  0  0  0  0  0  0  0  0
  134.8460  125.4930   62.3640 H   0  0  0  0  0  0  0  0  0  0  0  0
  133.3285  123.8596   60.8510 H   0  0  0  0  0  0  0  0  0  0  0  0
  129.8084  123.2845   58.3364 H   0  0  0  0  0  0  0  0  0  0  0  0
  127.0640  124.3720   57.4100 H   0  0  0  0  0  0  0  0  0  0  0  0
  125.7485  123.3805   59.8029 H   0  0  0  0  0  0  0  0  0  0  0  0
  126.6850  123.5600   63.1370 H   0  0  0  0  0  0  0  0  0  0  0  0
  1  2  1  0
  2  3  1  0
  3  4  1  0
  4  5  2  0
  5  6  1  0
  5  7  1  0
  7  8  1  0
  7  9  2  0
  9 10  1  0
 10 11  1  0
 11 12  1  0
 12 13  2  0
 13 14  1  0
 14 15  1  0
 14 16  2  0
 16 17  1  0
 17 18  1  0
 17 19  2  0
 19 20  1  0
 20 21  2  0
 20 22  1  0
 22  4  1  0
 22 10  2  0
 19 12  1  0
  1 23  1  0
  1 24  1  0
  1 25  1  0
  2 26  1  0
  2 27  1  0
  3 28  1  0
  3 29  1  0
  6 30  1  0
  8 31  1  0
  9 32  1  0
 13 33  1  0
 15 34  1  0
 16 35  1  0
 18 36  1  0
M  END
>  <Binding energies>  (1) 
[-5.93]

>  <Ligand effiencies>  (1) 
[-0.22807692307692307]

>  <Interactions>  (1) 
["V-B:PRO:540:CA:9855, V-B:GLU:543:CB:9878, V-B:ALA:541:CB:9864, H-A:ARG:545:NH1:4927, V-B:TYR:539:CE2:9848, V-A:TYR:484:CE2:4346, H-B:ALA:541:O:9861, V-B:GLU:543:CG:9879, V-B:TYR:539:CZ:9849, H-B:GLU:543:OE1:9881, H-B:ALA:541:N:9863, V-A:TYR:484:CZ:4347, V-B:PRO:540:CB:9857, H-A:GLY:454:N:4050, V-B:PRO:540:N:9856, V-A:HIS:456:CE1:4070, V-B:TYR:539:CD2:9846, H-A:ARG:545:NH2:4928, H-A:ASP:366:OD1:3214, H-A:ARG:545:NE:4924, V-B:PRO:540:C:9853, H-A:TYR:484:OH:4348"]

$$$$
ZINC2382257005-again1
     RDKit          3D

 34 36  0  0  0  0  0  0  0  0999 V2000
  129.8690  125.7580   67.6040 C   0  0  0  0  0  0  0  0  0  0  0  0
  130.3010  125.7760   66.1320 C   0  0  0  0  0  0  0  0  0  0  0  0
  130.9990  124.4730   65.6960 C   0  0  0  0  0  0  0  0  0  0  0  0
  131.7150  124.6100   64.3400 C   0  0  0  0  0  0  0  0  0  0  0  0
  133.1260  124.7080   64.3340 C   0  0  0  0  0  0  0  0  0  0  0  0
  133.8050  124.7290   65.5390 O   0  0  0  0  0  0  0  0  0  0  0  0
  133.8330  124.7820   63.1150 C   0  0  0  0  0  0  0  0  0  0  0  0
  135.1090  124.8580   63.0630 O   0  0  0  0  0  0  0  0  0  0  0  0
  133.1320  124.7720   61.9120 C   0  0  0  0  0  0  0  0  0  0  0  0
  131.7450  124.7140   61.9150 C   0  0  0  0  0  0  0  0  0  0  0  0
  131.1450  124.7110   60.6720 O   0  0  0  0  0  0  0  0  0  0  0  0
  129.9080  124.1180   60.5410 C   0  0  0  0  0  0  0  0  0  0  0  0
  129.5870  123.6040   59.2860 C   0  0  0  0  0  0  0  0  0  0  0  0
  128.3490  122.9930   59.0870 C   0  0  0  0  0  0  0  0  0  0  0  0
  128.0430  122.5300   57.9440 O   0  0  0  0  0  0  0  0  0  0  0  0
  127.4480  122.8910   60.1510 C   0  0  0  0  0  0  0  0  0  0  0  0
  127.7800  123.3870   61.4150 C   0  0  0  0  0  0  0  0  0  0  0  0
  126.8550  123.2240   62.4160 O   0  0  0  0  0  0  0  0  0  0  0  0
  129.0280  124.0090   61.6300 C   0  0  0  0  0  0  0  0  0  0  0  0
  129.5050  124.5360   62.9530 C   0  0  0  0  0  0  0  0  0  0  0  0
  128.7220  124.7240   63.8840 O   0  0  0  0  0  0  0  0  0  0  0  0
  131.0040  124.6280   63.1080 C   0  0  0  0  0  0  0  0  0  0  0  0
  130.7599  125.7951   68.2481 H   0  0  0  0  0  0  0  0  0  0  0  0
  129.2313  126.6304   67.8097 H   0  0  0  0  0  0  0  0  0  0  0  0
  129.3060  124.8356   67.8097 H   0  0  0  0  0  0  0  0  0  0  0  0
  129.4084  125.9225   65.5060 H   0  0  0  0  0  0  0  0  0  0  0  0
  131.0251  126.5951   66.0104 H   0  0  0  0  0  0  0  0  0  0  0  0
  131.7411  124.1982   66.4601 H   0  0  0  0  0  0  0  0  0  0  0  0
  130.2238  123.7002   65.5868 H   0  0  0  0  0  0  0  0  0  0  0  0
  133.2160  124.5890   66.2850 H   0  0  0  0  0  0  0  0  0  0  0  0
  133.6780  124.8101   60.9578 H   0  0  0  0  0  0  0  0  0  0  0  0
  130.3060  123.6797   58.4569 H   0  0  0  0  0  0  0  0  0  0  0  0
  126.4687  122.4160   59.9921 H   0  0  0  0  0  0  0  0  0  0  0  0
  126.8760  123.9390   63.0540 H   0  0  0  0  0  0  0  0  0  0  0  0
  1  2  1  0
  2  3  1  0
  3  4  1  0
  4  5  2  0
  5  6  1  0
  5  7  1  0
  7  8  1  0
  7  9  2  0
  9 10  1  0
 10 11  1  0
 11 12  1  0
 12 13  2  0
 13 14  1  0
 14 15  1  0
 14 16  2  0
 16 17  1  0
 17 18  1  0
 17 19  2  0
 19 20  1  0
 20 21  2  0
 20 22  1  0
 22  4  1  0
 22 10  2  0
 19 12  1  0
  1 23  1  0
  1 24  1  0
  1 25  1  0
  2 26  1  0
  2 27  1  0
  3 28  1  0
  3 29  1  0
  6 30  1  0
  9 31  1  0
 13 32  1  0
 16 33  1  0
 18 34  1  0
M  CHG  2   8  -1  15  -1
M  END
>  <Binding energies>  (1) 
[-4.53]

>  <Ligand effiencies>  (1) 
[-0.18875]

>  <Interactions>  (1) 
["V-B:PRO:540:CA:9855, V-B:GLU:543:CB:9878, H-A:ARG:545:NH1:4927, V-B:TYR:539:CE2:9848, V-A:TYR:484:CE2:4346, V-B:GLU:543:CG:9879, V-A:ASP:366:CG:3213, V-B:TYR:539:CZ:9849, H-B:GLU:543:OE1:9881, H-B:ALA:541:N:9863, V-A:TYR:484:CZ:4347, V-B:PRO:540:CB:9857, V-A:GLU:543:CD:4908, H-A:GLY:454:N:4050, V-B:PRO:540:N:9856, V-A:HIS:456:CE1:4070, V-B:TYR:539:CD2:9846, V-B:GLU:543:CD:9880, H-A:ARG:545:NH2:4928, V-A:ARG:545:CZ:4926, H-A:ARG:545:NE:4924, V-B:PRO:540:C:9853, H-A:TYR:484:OH:4348"]

$$$$
ZINC2382311686
     RDKit          3D

 66 70  0  0  0  0  0  0  0  0999 V2000
  128.7170  121.4680   61.6720 C   0  0  0  0  0  0  0  0  0  0  0  0
  127.8920  122.6380   61.1520 C   0  0  0  0  0  0  0  0  0  0  0  0
  126.7560  122.8550   61.5730 O   0  0  0  0  0  0  0  0  0  0  0  0
  128.5610  123.3600   60.2000 O   0  0  0  0  0  0  0  0  0  0  0  0
  127.9860  124.3740   59.3330 C   0  0  1  0  0  0  0  0  0  0  0  0
  128.7030  124.2070   57.9410 C   0  0  0  0  0  0  0  0  0  0  0  0
  127.9380  123.5560   56.7840 C   0  0  0  0  0  0  0  0  0  0  0  0
  129.8560  124.5940   57.7470 O   0  0  0  0  0  0  0  0  0  0  0  0
  126.4480  124.2270   59.1830 C   0  0  0  0  0  0  0  0  0  0  0  0
  125.9480  125.6110   58.7730 C   0  0  0  0  0  0  0  0  0  0  0  0
  126.8530  126.6040   59.5230 C   0  0  2  0  0  0  0  0  0  0  0  0
  127.0950  127.9720   58.8130 C   0  0  2  0  0  0  0  0  0  0  0  0
  127.5140  127.9370   57.3170 C   0  0  0  0  0  0  0  0  0  0  0  0
  128.0870  129.2720   56.8460 C   0  0  0  0  0  0  0  0  0  0  0  0
  128.3540  130.3490   57.6210 C   0  0  0  0  0  0  0  0  0  0  0  0
  128.8130  131.6760   57.0040 C   0  0  0  0  0  0  0  0  0  0  0  0
  130.0160  132.2600   57.7470 C   0  0  0  0  0  0  0  0  0  0  0  0
  129.6920  132.4750   59.2230 C   0  0  0  0  0  0  0  0  0  0  0  0
  129.3170  131.1250   59.8690 C   0  0  0  0  0  0  0  0  0  0  0  0
  128.1530  130.3450   59.1600 C   0  0  1  0  0  0  0  0  0  0  0  0
  126.8140  131.0760   59.4640 C   0  0  0  0  0  0  0  0  0  0  0  0
  128.0750  128.8450   59.6400 C   0  0  2  0  0  0  0  0  0  0  0  0
  129.4270  128.1190   59.9250 C   0  0  0  0  0  0  0  0  0  0  0  0
  129.4560  126.6000   59.6300 C   0  0  0  0  0  0  0  0  0  0  0  0
  128.1450  125.8220   59.9850 C   0  0  2  0  0  0  0  0  0  0  0  0
  128.1020  125.7290   61.5430 C   0  0  0  0  0  0  0  0  0  0  0  0
  131.1070  131.4040   57.6090 O   0  0  0  0  0  0  0  0  0  0  0  0
  131.9590  131.8620   56.5860 C   0  0  0  0  0  0  0  0  0  0  0  0
  131.5990  133.3370   56.4510 C   0  0  0  0  0  0  0  0  0  0  0  0
  130.3860  133.4640   57.1590 O   0  0  0  0  0  0  0  0  0  0  0  0
  128.7116  121.4757   62.7720 H   0  0  0  0  0  0  0  0  0  0  0  0
  128.2836  120.5241   61.3098 H   0  0  0  0  0  0  0  0  0  0  0  0
  129.7516  121.5592   61.3098 H   0  0  0  0  0  0  0  0  0  0  0  0
  127.1585  122.8927   57.1870 H   0  0  0  0  0  0  0  0  0  0  0  0
  127.4711  124.3380   56.1672 H   0  0  0  0  0  0  0  0  0  0  0  0
  128.6352  122.9700   56.1672 H   0  0  0  0  0  0  0  0  0  0  0  0
  126.2058  123.4848   58.4081 H   0  0  0  0  0  0  0  0  0  0  0  0
  125.9767  123.8804   60.1145 H   0  0  0  0  0  0  0  0  0  0  0  0
  126.0417  125.7488   57.6857 H   0  0  0  0  0  0  0  0  0  0  0  0
  124.8858  125.7547   59.0200 H   0  0  0  0  0  0  0  0  0  0  0  0
  126.3237  126.9665   60.4166 H   0  0  0  0  0  0  0  0  0  0  0  0
  126.0928  128.4241   58.7788 H   0  0  0  0  0  0  0  0  0  0  0  0
  128.2771  127.1565   57.1812 H   0  0  0  0  0  0  0  0  0  0  0  0
  126.6146  127.7265   56.7197 H   0  0  0  0  0  0  0  0  0  0  0  0
  128.3039  129.3676   55.7718 H   0  0  0  0  0  0  0  0  0  0  0  0
  129.0921  131.5032   55.9541 H   0  0  0  0  0  0  0  0  0  0  0  0
  127.9828  132.3938   57.0785 H   0  0  0  0  0  0  0  0  0  0  0  0
  130.5711  132.8944   59.7341 H   0  0  0  0  0  0  0  0  0  0  0  0
  128.8468  133.1730   59.3150 H   0  0  0  0  0  0  0  0  0  0  0  0
  130.2108  130.4838   59.8607 H   0  0  0  0  0  0  0  0  0  0  0  0
  128.9547  131.3608   60.8805 H   0  0  0  0  0  0  0  0  0  0  0  0
  126.6763  131.1512   60.5528 H   0  0  0  0  0  0  0  0  0  0  0  0
  126.8398  132.0852   59.0271 H   0  0  0  0  0  0  0  0  0  0  0  0
  125.9791  130.5085   59.0271 H   0  0  0  0  0  0  0  0  0  0  0  0
  127.6400  128.9624   60.6435 H   0  0  0  0  0  0  0  0  0  0  0  0
  130.2023  128.5967   59.3079 H   0  0  0  0  0  0  0  0  0  0  0  0
  129.5925  128.2142   61.0083 H   0  0  0  0  0  0  0  0  0  0  0  0
  129.6493  126.4666   58.5554 H   0  0  0  0  0  0  0  0  0  0  0  0
  130.2416  126.1808   60.2759 H   0  0  0  0  0  0  0  0  0  0  0  0
  128.5262  126.6465   61.9769 H   0  0  0  0  0  0  0  0  0  0  0  0
  127.0595  125.6144   61.8749 H   0  0  0  0  0  0  0  0  0  0  0  0
  128.6900  124.8606   61.8749 H   0  0  0  0  0  0  0  0  0  0  0  0
  133.0146  131.7401   56.8704 H   0  0  0  0  0  0  0  0  0  0  0  0
  131.8350  131.3046   55.6458 H   0  0  0  0  0  0  0  0  0  0  0  0
  132.3792  133.9713   56.8971 H   0  0  0  0  0  0  0  0  0  0  0  0
  131.5091  133.6541   55.4015 H   0  0  0  0  0  0  0  0  0  0  0  0
  1  2  1  0
  2  3  2  0
  2  4  1  0
  5  4  1  1
  5  6  1  0
  6  7  1  0
  6  8  2  0
  5  9  1  0
  9 10  1  0
 10 11  1  0
 11 12  1  0
 12 13  1  0
 13 14  1  0
 14 15  2  0
 15 16  1  0
 16 17  1  0
 17 18  1  0
 18 19  1  0
 19 20  1  0
 20 21  1  6
 20 22  1  0
 22 23  1  0
 23 24  1  0
 24 25  1  0
 25 26  1  1
 17 27  1  0
 27 28  1  0
 28 29  1  0
 29 30  1  0
 25  5  1  0
 25 11  1  0
 22 12  1  0
 20 15  1  0
 30 17  1  0
  1 31  1  0
  1 32  1  0
  1 33  1  0
  7 34  1  0
  7 35  1  0
  7 36  1  0
  9 37  1  0
  9 38  1  0
 10 39  1  0
 10 40  1  0
 11 41  1  1
 12 42  1  6
 13 43  1  0
 13 44  1  0
 14 45  1  0
 16 46  1  0
 16 47  1  0
 18 48  1  0
 18 49  1  0
 19 50  1  0
 19 51  1  0
 21 52  1  0
 21 53  1  0
 21 54  1  0
 22 55  1  1
 23 56  1  0
 23 57  1  0
 24 58  1  0
 24 59  1  0
 26 60  1  0
 26 61  1  0
 26 62  1  0
 28 63  1  0
 28 64  1  0
 29 65  1  0
 29 66  1  0
M  END
>  <Binding energies>  (1) 
[-7.15]

>  <Ligand effiencies>  (1) 
[-0.23833333333333334]

>  <Interactions>  (1) 
["V-A:ILE:538:C:4858, V-B:PRO:540:CA:9855, V-A:ILE:538:CB:4862, V-B:ASP:366:CG:8184, V-B:ALA:541:CB:9864, V-B:TYR:539:CE2:9848, V-A:ILE:538:CG2:4863, V-A:LEU:363:CD1:3189, V-B:TYR:539:CZ:9849, V-A:ILE:538:CA:4860, H-B:TYR:539:OH:9850, H-B:ALA:541:N:9863, V-A:MET:535:CE:4835, V-B:GLU:543:CD:9880, V-A:TYR:539:C:4867, V-B:TYR:539:CD1:9845, V-A:PRO:540:N:4884, H-A:TYR:539:N:4870, V-A:PRO:540:CB:4885, V-A:PRO:540:CA:4883, V-B:PRO:540:C:9853, V-B:ALA:541:CA:9862, V-A:PRO:540:CD:4887, V-B:TYR:539:CE1:9847"]

$$$$
ZINC2382311823
     RDKit          3D

 79 81  0  0  0  0  0  0  0  0999 V2000
  129.5380  122.1570   65.0100 C   0  0  0  0  0  0  0  0  0  0  0  0
  129.2080  122.7440   63.6490 C   0  0  0  0  0  0  0  0  0  0  0  0
  127.9610  122.8480   63.1580 C   0  0  0  0  0  0  0  0  0  0  0  0
  127.9800  123.4440   61.9350 C   0  0  0  0  0  0  0  0  0  0  0  0
  126.7750  123.7210   61.0900 C   0  0  0  0  0  0  0  0  0  0  0  0
  129.2070  123.7610   61.5760 N   0  0  0  0  0  0  0  0  0  0  0  0
  130.0960  123.3410   62.6470 C   0  0  0  0  0  0  0  0  0  0  0  0
  131.4390  123.5540   62.5460 C   0  0  0  0  0  0  0  0  0  0  0  0
  132.3580  123.0890   63.6750 C   0  0  0  0  0  0  0  0  0  0  0  0
  133.1930  124.2300   64.2900 C   0  0  0  0  0  0  0  0  0  0  0  0
  132.3240  125.2900   64.9940 C   0  0  0  0  0  0  0  0  0  0  0  0
  131.0010  124.7420   65.5640 C   0  0  0  0  0  0  0  0  0  0  0  0
  129.7890  125.6770   65.3780 C   0  0  0  0  0  0  0  0  0  0  0  0
  129.5240  126.5520   66.6140 C   0  0  0  0  0  0  0  0  0  0  0  0
  128.5660  127.7290   66.3320 C   0  0  0  0  0  0  0  0  0  0  0  0
  128.1410  128.4990   67.6030 C   0  0  0  0  0  0  0  0  0  0  0  0
  129.1140  128.4920   68.7780 C   0  0  0  0  0  0  0  0  0  0  0  0
  129.1290  127.6150   69.8000 C   0  0  0  0  0  0  0  0  0  0  0  0
  130.1340  127.6130   70.9400 C   0  0  1  0  0  0  0  0  0  0  0  0
  131.1160  128.5900   70.6440 O   0  0  0  0  0  0  0  0  0  0  0  0
  129.4980  127.8250   72.3480 C   0  0  2  0  0  0  0  0  0  0  0  0
  128.0810  127.2060   72.5330 C   0  0  0  0  0  0  0  0  0  0  0  0
  128.0960  125.7970   72.6450 O   0  0  0  0  0  0  0  0  0  0  0  0
  129.5330  129.2450   72.7340 N   0  0  0  0  0  0  0  0  0  0  0  0
  129.0310  129.7670   73.8670 C   0  0  0  0  0  0  0  0  0  0  0  0
  128.4820  129.1000   74.7440 O   0  0  0  0  0  0  0  0  0  0  0  0
  129.1580  131.2800   74.0300 C   0  0  0  0  0  0  0  0  0  0  0  0
  127.5370  132.1180   74.8240 Br  0  0  0  0  0  0  0  0  0  0  0  0
  132.0550  124.1940   61.3460 C   0  0  0  0  0  0  0  0  0  0  0  0
  133.3860  124.4890   60.9770 C   0  0  0  0  0  0  0  0  0  0  0  0
  134.6800  124.2740   61.7350 C   0  0  0  0  0  0  0  0  0  0  0  0
  133.3160  125.1080   59.7320 C   0  0  0  0  0  0  0  0  0  0  0  0
  132.0110  125.1740   59.3070 C   0  0  0  0  0  0  0  0  0  0  0  0
  131.4280  125.7350   58.0270 C   0  0  0  0  0  0  0  0  0  0  0  0
  131.2340  124.6140   60.2980 N   0  0  0  0  0  0  0  0  0  0  0  0
  129.6810  124.4730   60.2540 B   0  0  0  0  0  0  0  0  0  0  0  0
  129.3160  123.7140   59.1560 F   0  0  0  0  0  0  0  0  0  0  0  0
  129.1060  125.7270   60.1650 F   0  0  0  0  0  0  0  0  0  0  0  0
  129.1622  122.8255   65.7986 H   0  0  0  0  0  0  0  0  0  0  0  0
  129.0625  121.1700   65.1087 H   0  0  0  0  0  0  0  0  0  0  0  0
  130.6284  122.0503   65.1087 H   0  0  0  0  0  0  0  0  0  0  0  0
  127.0531  122.5002   63.6725 H   0  0  0  0  0  0  0  0  0  0  0  0
  125.9097  123.9199   61.7393 H   0  0  0  0  0  0  0  0  0  0  0  0
  126.9663  124.5986   60.4550 H   0  0  0  0  0  0  0  0  0  0  0  0
  126.5639  122.8480   60.4550 H   0  0  0  0  0  0  0  0  0  0  0  0
  131.7393  122.6426   64.4675 H   0  0  0  0  0  0  0  0  0  0  0  0
  133.0641  122.3644   63.2432 H   0  0  0  0  0  0  0  0  0  0  0  0
  133.8885  123.8000   65.0257 H   0  0  0  0  0  0  0  0  0  0  0  0
  133.7275  124.7304   63.4690 H   0  0  0  0  0  0  0  0  0  0  0  0
  132.9061  125.7186   65.8232 H   0  0  0  0  0  0  0  0  0  0  0  0
  132.0558  126.0369   64.2323 H   0  0  0  0  0  0  0  0  0  0  0  0
  130.7795  123.7884   65.0624 H   0  0  0  0  0  0  0  0  0  0  0  0
  131.1488  124.6331   66.6486 H   0  0  0  0  0  0  0  0  0  0  0  0
  129.9789  126.3331   64.5157 H   0  0  0  0  0  0  0  0  0  0  0  0
  128.9020  125.0461   65.2193 H   0  0  0  0  0  0  0  0  0  0  0  0
  129.0819  125.9221   67.4000 H   0  0  0  0  0  0  0  0  0  0  0  0
  130.4882  126.9822   66.9226 H   0  0  0  0  0  0  0  0  0  0  0  0
  129.0693  128.4317   65.6517 H   0  0  0  0  0  0  0  0  0  0  0  0
  127.6522  127.3029   65.8923 H   0  0  0  0  0  0  0  0  0  0  0  0
  127.9764  129.5479   67.3154 H   0  0  0  0  0  0  0  0  0  0  0  0
  127.2481  127.9716   67.9699 H   0  0  0  0  0  0  0  0  0  0  0  0
  129.8795  129.2818   68.7919 H   0  0  0  0  0  0  0  0  0  0  0  0
  128.3510  126.8374   69.8104 H   0  0  0  0  0  0  0  0  0  0  0  0
  130.5883  126.6135   71.0079 H   0  0  0  0  0  0  0  0  0  0  0  0
  130.7280  129.4580   70.7690 H   0  0  0  0  0  0  0  0  0  0  0  0
  130.1327  127.2527   73.0405 H   0  0  0  0  0  0  0  0  0  0  0  0
  127.6341  127.6240   73.4471 H   0  0  0  0  0  0  0  0  0  0  0  0
  127.4972  127.4549   71.6346 H   0  0  0  0  0  0  0  0  0  0  0  0
  127.9790  125.4190   71.7700 H   0  0  0  0  0  0  0  0  0  0  0  0
  129.9770  129.8660   72.0740 H   0  0  0  0  0  0  0  0  0  0  0  0
  130.0171  131.4908   74.6838 H   0  0  0  0  0  0  0  0  0  0  0  0
  129.2902  131.7083   73.0255 H   0  0  0  0  0  0  0  0  0  0  0  0
  134.4813  124.3070   62.8164 H   0  0  0  0  0  0  0  0  0  0  0  0
  135.1019  123.2934   61.4695 H   0  0  0  0  0  0  0  0  0  0  0  0
  135.3963  125.0654   61.4695 H   0  0  0  0  0  0  0  0  0  0  0  0
  134.1809  125.4894   59.1695 H   0  0  0  0  0  0  0  0  0  0  0  0
  130.6551  126.4787   58.2712 H   0  0  0  0  0  0  0  0  0  0  0  0
  132.2254  126.2141   57.4400 H   0  0  0  0  0  0  0  0  0  0  0  0
  130.9799  124.9197   57.4400 H   0  0  0  0  0  0  0  0  0  0  0  0
  1  2  1  0
  2  3  2  0
  3  4  1  0
  4  5  1  0
  4  6  2  0
  6  7  1  0
  7  8  2  0
  8  9  1  0
  9 10  1  0
 10 11  1  0
 11 12  1  0
 12 13  1  0
 13 14  1  0
 14 15  1  0
 15 16  1  0
 16 17  1  0
 17 18  2  0
 18 19  1  0
 19 20  1  0
 19 21  1  0
 21 22  1  0
 22 23  1  0
 21 24  1  0
 24 25  1  0
 25 26  2  0
 25 27  1  0
 27 28  1  0
  8 29  1  0
 29 30  2  0
 30 31  1  0
 30 32  1  0
 32 33  2  0
 33 34  1  0
 33 35  1  0
 35 36  1  0
 36 37  1  0
 36 38  1  0
  7  2  1  0
 35 29  1  0
 36  6  1  0
  1 39  1  0
  1 40  1  0
  1 41  1  0
  3 42  1  0
  5 43  1  0
  5 44  1  0
  5 45  1  0
  9 46  1  0
  9 47  1  0
 10 48  1  0
 10 49  1  0
 11 50  1  0
 11 51  1  0
 12 52  1  0
 12 53  1  0
 13 54  1  0
 13 55  1  0
 14 56  1  0
 14 57  1  0
 15 58  1  0
 15 59  1  0
 16 60  1  0
 16 61  1  0
 17 62  1  0
 18 63  1  0
 19 64  1  1
 20 65  1  0
 21 66  1  1
 22 67  1  0
 22 68  1  0
 23 69  1  0
 24 70  1  0
 27 71  1  0
 27 72  1  0
 31 73  1  0
 31 74  1  0
 31 75  1  0
 32 76  1  0
 34 77  1  0
 34 78  1  0
 34 79  1  0
M  CHG  2   6   1  36  -1
M  END
>  <Binding energies>  (1) 
[-8.08]

>  <Ligand effiencies>  (1) 
[-0.19707317073170733]

>  <Interactions>  (1) 
["V-A:ASP:366:CA:3210, V-B:PRO:540:CA:9855, V-A:GLU:543:CA:4904, V-A:GLY:454:CA:4049, V-B:HIS:456:CD2:9039, H-B:GLU:543:O:9875, V-B:GLU:543:CB:9878, H-B:LYS:547:NZ:9923, V-B:ALA:541:CB:9864, V-B:TYR:539:CE2:9848, V-A:TYR:484:CE2:4346, V-B:GLU:543:CG:9879, V-A:ASP:366:CG:3213, H-A:ARG:545:N:4920, V-B:TYR:539:CZ:9849, V-A:GLU:543:CD:4908, V-A:TYR:484:CZ:4347, V-B:HIS:456:CE1:9041, V-A:ILE:369:CD1:3239, V-A:HIS:456:CE1:4070, H-B:HIS:456:NE2:9042, V-B:TYR:539:CD2:9846, V-A:GLU:543:CG:4907, V-B:GLU:543:CD:9880, V-A:ASP:366:CB:3212, H-A:LYS:547:NZ:4951, V-A:LEU:475:CD2:4259, V-A:ARG:545:CZ:4926, V-A:GLU:543:CB:4906, H-B:GLY:544:O:9885, V-A:LYS:547:CE:4950, V-B:ALA:541:CA:9862, H-A:GLY:544:N:4915, H-A:GLY:544:O:4913, H-A:HIS:456:NE2:4071, H-A:GLU:543:O:4903"]

$$$$
ZINC2382311823-again1
     RDKit          3D

 78 80  0  0  0  0  0  0  0  0999 V2000
  130.3930  127.2440   57.8720 C   0  0  0  0  0  0  0  0  0  0  0  0
  131.0790  126.2180   58.4040 C   0  0  0  0  0  0  0  0  0  0  0  0
  132.4790  125.9620   58.2540 C   0  0  0  0  0  0  0  0  0  0  0  0
  132.8340  124.8590   58.9210 C   0  0  0  0  0  0  0  0  0  0  0  0
  134.2580  124.3300   58.9530 C   0  0  0  0  0  0  0  0  0  0  0  0
  131.5980  124.3560   59.5430 C   0  0  0  0  0  0  0  0  0  0  0  0
  130.5710  125.2290   59.2140 N   0  0  0  0  0  0  0  0  0  0  0  0
  129.1480  125.1830   59.8910 B   0  0  0  0  0  0  0  0  0  0  0  0
  129.0510  126.1960   60.8260 F   0  0  0  0  0  0  0  0  0  0  0  0
  128.1760  125.3420   58.9210 F   0  0  0  0  0  0  0  0  0  0  0  0
  128.9780  123.8000   60.5840 N   0  0  0  0  0  0  0  0  0  0  0  0
  127.8070  123.2930   61.1050 C   0  0  0  0  0  0  0  0  0  0  0  0
  126.5060  124.0660   61.0990 C   0  0  0  0  0  0  0  0  0  0  0  0
  128.0860  122.0270   61.5610 C   0  0  0  0  0  0  0  0  0  0  0  0
  129.4300  121.7250   61.3470 C   0  0  0  0  0  0  0  0  0  0  0  0
  130.0440  120.3730   61.6430 C   0  0  0  0  0  0  0  0  0  0  0  0
  130.0040  122.8790   60.7690 C   0  0  0  0  0  0  0  0  0  0  0  0
  131.3780  123.2620   60.3380 C   0  0  0  0  0  0  0  0  0  0  0  0
  132.5420  122.3920   60.8240 C   0  0  0  0  0  0  0  0  0  0  0  0
  132.7180  122.3700   62.3590 C   0  0  0  0  0  0  0  0  0  0  0  0
  132.1370  123.5930   63.0950 C   0  0  0  0  0  0  0  0  0  0  0  0
  131.1030  123.2100   64.1670 C   0  0  0  0  0  0  0  0  0  0  0  0
  130.8670  124.3260   65.1990 C   0  0  0  0  0  0  0  0  0  0  0  0
  129.8180  125.3540   64.7370 C   0  0  0  0  0  0  0  0  0  0  0  0
  129.4480  126.3720   65.8340 C   0  0  0  0  0  0  0  0  0  0  0  0
  130.2580  126.2060   67.1380 C   0  0  0  0  0  0  0  0  0  0  0  0
  129.7590  126.9310   68.3820 C   0  0  0  0  0  0  0  0  0  0  0  0
  128.7130  126.5840   69.1580 C   0  0  0  0  0  0  0  0  0  0  0  0
  128.2000  127.3220   70.3920 C   0  0  1  0  0  0  0  0  0  0  0  0
  127.6650  126.3640   71.2880 O   0  0  0  0  0  0  0  0  0  0  0  0
  129.1880  128.2780   71.1360 C   0  0  2  0  0  0  0  0  0  0  0  0
  130.6210  127.6900   71.2650 C   0  0  0  0  0  0  0  0  0  0  0  0
  131.0560  127.6380   72.6100 O   0  0  0  0  0  0  0  0  0  0  0  0
  128.6800  128.6950   72.4530 N   0  0  0  0  0  0  0  0  0  0  0  0
  129.2090  129.6520   73.2350 C   0  0  0  0  0  0  0  0  0  0  0  0
  130.2100  130.3050   72.9380 O   0  0  0  0  0  0  0  0  0  0  0  0
  128.5100  129.9040   74.5690 C   0  0  0  0  0  0  0  0  0  0  0  0
  127.9110  131.7870   74.7990 Br  0  0  0  0  0  0  0  0  0  0  0  0
  129.3128  127.3382   58.0572 H   0  0  0  0  0  0  0  0  0  0  0  0
  130.9117  127.9895   57.2514 H   0  0  0  0  0  0  0  0  0  0  0  0
  133.1693  126.5878   57.6693 H   0  0  0  0  0  0  0  0  0  0  0  0
  134.5812  124.2099   59.9976 H   0  0  0  0  0  0  0  0  0  0  0  0
  134.2991  123.3566   58.4423 H   0  0  0  0  0  0  0  0  0  0  0  0
  134.9246  125.0405   58.4423 H   0  0  0  0  0  0  0  0  0  0  0  0
  126.1872  124.2554   62.1346 H   0  0  0  0  0  0  0  0  0  0  0  0
  126.6513  125.0244   60.5790 H   0  0  0  0  0  0  0  0  0  0  0  0
  125.7338  123.4801   60.5790 H   0  0  0  0  0  0  0  0  0  0  0  0
  127.3549  121.3502   62.0272 H   0  0  0  0  0  0  0  0  0  0  0  0
  130.1089  120.2302   62.7318 H   0  0  0  0  0  0  0  0  0  0  0  0
  129.4168  119.5819   61.2061 H   0  0  0  0  0  0  0  0  0  0  0  0
  131.0524  120.3247   61.2061 H   0  0  0  0  0  0  0  0  0  0  0  0
  132.3686  121.3611   60.4818 H   0  0  0  0  0  0  0  0  0  0  0  0
  133.4604  122.8306   60.4066 H   0  0  0  0  0  0  0  0  0  0  0  0
  132.2205  121.4691   62.7474 H   0  0  0  0  0  0  0  0  0  0  0  0
  133.8019  122.3829   62.5460 H   0  0  0  0  0  0  0  0  0  0  0  0
  132.9619  124.1350   63.5806 H   0  0  0  0  0  0  0  0  0  0  0  0
  131.6229  124.2150   62.3474 H   0  0  0  0  0  0  0  0  0  0  0  0
  130.1483  122.9853   63.6690 H   0  0  0  0  0  0  0  0  0  0  0  0
  131.4980  122.3382   64.7091 H   0  0  0  0  0  0  0  0  0  0  0  0
  130.5214  123.8690   66.1380 H   0  0  0  0  0  0  0  0  0  0  0  0
  131.8189  124.8610   65.3316 H   0  0  0  0  0  0  0  0  0  0  0  0
  130.2210  125.9016   63.8723 H   0  0  0  0  0  0  0  0  0  0  0  0
  128.9035  124.7987   64.4816 H   0  0  0  0  0  0  0  0  0  0  0  0
  129.6259  127.3842   65.4419 H   0  0  0  0  0  0  0  0  0  0  0  0
  128.3921  126.1983   66.0888 H   0  0  0  0  0  0  0  0  0  0  0  0
  130.2848  125.1317   67.3730 H   0  0  0  0  0  0  0  0  0  0  0  0
  131.2318  126.6687   66.9198 H   0  0  0  0  0  0  0  0  0  0  0  0
  130.3118  127.8346   68.6785 H   0  0  0  0  0  0  0  0  0  0  0  0
  128.1707  125.6709   68.8713 H   0  0  0  0  0  0  0  0  0  0  0  0
  127.4446  128.0233   70.0080 H   0  0  0  0  0  0  0  0  0  0  0  0
  128.1330  125.5360   71.1620 H   0  0  0  0  0  0  0  0  0  0  0  0
  129.2579  129.1730   70.5003 H   0  0  0  0  0  0  0  0  0  0  0  0
  130.6247  126.6707   70.8514 H   0  0  0  0  0  0  0  0  0  0  0  0
  131.3079  128.3476   70.7121 H   0  0  0  0  0  0  0  0  0  0  0  0
  131.4000  128.5010   72.8550 H   0  0  0  0  0  0  0  0  0  0  0  0
  127.8800  128.1830   72.7980 H   0  0  0  0  0  0  0  0  0  0  0  0
  127.6297  129.2473   74.6316 H   0  0  0  0  0  0  0  0  0  0  0  0
  129.2403  129.6946   75.3645 H   0  0  0  0  0  0  0  0  0  0  0  0
  1  2  2  0
  2  3  1  0
  3  4  2  0
  4  5  1  0
  4  6  1  0
  6  7  1  0
  7  8  1  0
  8  9  1  0
  8 10  1  0
  8 11  1  0
 11 12  1  0
 12 13  1  0
 12 14  2  0
 14 15  1  0
 15 16  1  0
 15 17  2  0
 17 18  1  0
 18 19  1  0
 19 20  1  0
 20 21  1  0
 21 22  1  0
 22 23  1  0
 23 24  1  0
 24 25  1  0
 25 26  1  0
 26 27  1  0
 27 28  2  0
 28 29  1  0
 29 30  1  0
 29 31  1  0
 31 32  1  0
 32 33  1  0
 31 34  1  0
 34 35  1  0
 35 36  2  0
 35 37  1  0
 37 38  1  0
  7  2  1  0
 17 11  1  0
 18  6  2  0
  1 39  1  0
  1 40  1  0
  3 41  1  0
  5 42  1  0
  5 43  1  0
  5 44  1  0
 13 45  1  0
 13 46  1  0
 13 47  1  0
 14 48  1  0
 16 49  1  0
 16 50  1  0
 16 51  1  0
 19 52  1  0
 19 53  1  0
 20 54  1  0
 20 55  1  0
 21 56  1  0
 21 57  1  0
 22 58  1  0
 22 59  1  0
 23 60  1  0
 23 61  1  0
 24 62  1  0
 24 63  1  0
 25 64  1  0
 25 65  1  0
 26 66  1  0
 26 67  1  0
 27 68  1  0
 28 69  1  0
 29 70  1  6
 30 71  1  0
 31 72  1  6
 32 73  1  0
 32 74  1  0
 33 75  1  0
 34 76  1  0
 37 77  1  0
 37 78  1  0
M  CHG  1   8  -1
M  END
>  <Binding energies>  (1) 
[-6.21]

>  <Ligand effiencies>  (1) 
[-0.15146341463414634]

>  <Interactions>  (1) 
["V-A:ILE:369:CG2:3237, V-A:ASP:366:CA:3210, V-B:PRO:540:CA:9855, V-B:GLU:543:C:9874, V-A:ILE:369:CB:3236, H-B:GLU:543:O:9875, V-B:HIS:456:CD2:9039, V-B:GLU:543:CB:9878, V-B:ALA:541:CB:9864, V-B:TYR:539:CE2:9848, V-A:TYR:484:CE2:4346, V-B:GLU:543:CG:9879, V-A:GLY:544:C:4912, V-A:ASP:366:CG:3213, V-A:HIS:456:CD2:4068, V-B:TYR:539:CZ:9849, V-A:TYR:484:CZ:4347, V-A:GLU:543:CD:4908, V-B:HIS:456:CE1:9041, V-A:ILE:369:CD1:3239, V-A:HIS:456:CE1:4070, V-A:ASP:366:C:3208, H-B:HIS:456:NE2:9042, V-B:TYR:539:CD2:9846, V-B:GLU:543:CD:9880, V-A:ASP:366:CB:3212, H-A:LYS:547:NZ:4951, V-A:LEU:475:CD2:4259, V-A:GLU:543:CB:4906, V-B:PRO:540:C:9853, V-B:ALA:541:CA:9862, H-A:GLY:544:O:4913, H-A:HIS:456:NE2:4071, H-A:GLU:543:O:4903"]

$$$$
ZINC2382314534
     RDKit          3D

 95 98  0  0  0  0  0  0  0  0999 V2000
  127.4240  121.4760   72.9330 C   0  0  0  0  0  0  0  0  0  0  0  0
  128.5630  121.9750   73.8640 C   0  0  0  0  0  0  0  0  0  0  0  0
  129.7610  121.0110   73.6820 C   0  0  0  0  0  0  0  0  0  0  0  0
  128.0430  121.8770   75.3190 C   0  0  0  0  0  0  0  0  0  0  0  0
  129.0130  123.4310   73.5660 C   0  0  0  0  0  0  0  0  0  0  0  0
  128.4350  124.2040   72.5550 C   0  0  0  0  0  0  0  0  0  0  0  0
  128.8470  125.5190   72.2920 C   0  0  0  0  0  0  0  0  0  0  0  0
  128.2050  126.2840   71.1980 C   0  0  0  0  0  0  0  0  0  0  0  0
  128.7500  127.2680   70.5970 N   0  0  0  0  0  0  0  0  0  0  0  0
  127.9960  127.9410   69.5440 C   0  0  2  0  0  0  0  0  0  0  0  0
  127.5200  126.9230   68.4740 C   0  0  0  0  0  0  0  0  0  0  0  0
  128.2000  127.4340   67.1810 C   0  0  2  0  0  0  0  0  0  0  0  0
  129.5590  127.8870   67.7150 C   0  0  0  0  0  0  0  0  0  0  0  0
  128.9360  128.8600   68.7180 C   0  0  1  0  0  0  0  0  0  0  0  0
  128.1030  129.7670   67.7850 C   0  0  0  0  0  0  0  0  0  0  0  0
  127.5490  128.7710   66.7320 C   0  0  1  0  0  0  0  0  0  0  0  0
  128.0060  129.1310   65.3940 N   0  0  0  0  0  0  0  0  0  0  0  0
  128.1720  128.1990   64.5390 C   0  0  0  0  0  0  0  0  0  0  0  0
  128.6270  128.4190   63.1460 C   0  0  0  0  0  0  0  0  0  0  0  0
  128.5890  127.3600   62.2260 C   0  0  0  0  0  0  0  0  0  0  0  0
  129.0080  127.5090   60.9010 C   0  0  0  0  0  0  0  0  0  0  0  0
  128.9720  126.3420   59.8780 C   0  0  0  0  0  0  0  0  0  0  0  0
  127.6360  126.3780   59.0950 C   0  0  0  0  0  0  0  0  0  0  0  0
  130.1210  126.3990   58.8350 C   0  0  0  0  0  0  0  0  0  0  0  0
  129.0940  124.9890   60.6220 C   0  0  0  0  0  0  0  0  0  0  0  0
  129.4760  128.7640   60.5020 C   0  0  0  0  0  0  0  0  0  0  0  0
  129.5400  129.8660   61.3700 C   0  0  0  0  0  0  0  0  0  0  0  0
  130.0760  131.2440   60.8560 C   0  0  0  0  0  0  0  0  0  0  0  0
  131.3670  131.6480   61.6170 C   0  0  0  0  0  0  0  0  0  0  0  0
  130.3470  131.1900   59.3290 C   0  0  0  0  0  0  0  0  0  0  0  0
  129.0730  132.4150   61.0680 C   0  0  0  0  0  0  0  0  0  0  0  0
  129.1060  129.6730   62.7040 C   0  0  0  0  0  0  0  0  0  0  0  0
  129.1470  130.7250   63.5920 O   0  0  0  0  0  0  0  0  0  0  0  0
  129.8800  126.0690   73.0840 C   0  0  0  0  0  0  0  0  0  0  0  0
  130.2920  127.3610   72.8430 O   0  0  0  0  0  0  0  0  0  0  0  0
  130.4930  125.3190   74.1160 C   0  0  0  0  0  0  0  0  0  0  0  0
  131.6400  125.9050   75.0050 C   0  0  0  0  0  0  0  0  0  0  0  0
  132.8180  126.5000   74.1790 C   0  0  0  0  0  0  0  0  0  0  0  0
  131.1120  127.0680   75.8870 C   0  0  0  0  0  0  0  0  0  0  0  0
  132.2620  124.7970   75.8940 C   0  0  0  0  0  0  0  0  0  0  0  0
  130.0330  124.0090   74.3270 C   0  0  0  0  0  0  0  0  0  0  0  0
  126.5858  121.1088   73.5434 H   0  0  0  0  0  0  0  0  0  0  0  0
  127.0794  122.3056   72.2981 H   0  0  0  0  0  0  0  0  0  0  0  0
  127.8002  120.6603   72.2981 H   0  0  0  0  0  0  0  0  0  0  0  0
  130.1397  120.7063   74.6688 H   0  0  0  0  0  0  0  0  0  0  0  0
  129.4341  120.1212   73.1240 H   0  0  0  0  0  0  0  0  0  0  0  0
  130.5603  121.5207   73.1240 H   0  0  0  0  0  0  0  0  0  0  0  0
  128.8776  122.0343   76.0180 H   0  0  0  0  0  0  0  0  0  0  0  0
  127.2746  122.6461   75.4864 H   0  0  0  0  0  0  0  0  0  0  0  0
  127.6073  120.8809   75.4864 H   0  0  0  0  0  0  0  0  0  0  0  0
  127.6305  123.7668   71.9454 H   0  0  0  0  0  0  0  0  0  0  0  0
  127.1942  125.9844   70.8841 H   0  0  0  0  0  0  0  0  0  0  0  0
  127.1741  128.4705   70.0482 H   0  0  0  0  0  0  0  0  0  0  0  0
  127.8545  125.9045   68.7207 H   0  0  0  0  0  0  0  0  0  0  0  0
  126.4249  126.8601   68.3922 H   0  0  0  0  0  0  0  0  0  0  0  0
  128.1725  126.6881   66.3730 H   0  0  0  0  0  0  0  0  0  0  0  0
  130.1328  127.0779   68.1905 H   0  0  0  0  0  0  0  0  0  0  0  0
  130.3056  128.2686   67.0030 H   0  0  0  0  0  0  0  0  0  0  0  0
  129.6020  129.4387   69.3749 H   0  0  0  0  0  0  0  0  0  0  0  0
  127.2855  130.2556   68.3354 H   0  0  0  0  0  0  0  0  0  0  0  0
  128.6883  130.5857   67.3410 H   0  0  0  0  0  0  0  0  0  0  0  0
  126.4505  128.7428   66.6810 H   0  0  0  0  0  0  0  0  0  0  0  0
  127.9642  127.1663   64.8559 H   0  0  0  0  0  0  0  0  0  0  0  0
  128.2170  126.3798   62.5588 H   0  0  0  0  0  0  0  0  0  0  0  0
  126.7957  126.4006   59.8045 H   0  0  0  0  0  0  0  0  0  0  0  0
  127.6060  127.2773   58.4622 H   0  0  0  0  0  0  0  0  0  0  0  0
  127.5576  125.4816   58.4622 H   0  0  0  0  0  0  0  0  0  0  0  0
  131.0880  126.4470   59.3570 H   0  0  0  0  0  0  0  0  0  0  0  0
  130.0889  125.4982   58.2046 H   0  0  0  0  0  0  0  0  0  0  0  0
  129.9999  127.2922   58.2046 H   0  0  0  0  0  0  0  0  0  0  0  0
  129.0781  125.1649   61.7077 H   0  0  0  0  0  0  0  0  0  0  0  0
  128.2507  124.3400   60.3433 H   0  0  0  0  0  0  0  0  0  0  0  0
  130.0398  124.5013   60.3433 H   0  0  0  0  0  0  0  0  0  0  0  0
  129.8090  128.8943   59.4618 H   0  0  0  0  0  0  0  0  0  0  0  0
  131.1867  131.5916   62.7007 H   0  0  0  0  0  0  0  0  0  0  0  0
  132.1829  130.9622   61.3448 H   0  0  0  0  0  0  0  0  0  0  0  0
  131.6464  132.6765   61.3448 H   0  0  0  0  0  0  0  0  0  0  0  0
  131.4119  130.9778   59.1529 H   0  0  0  0  0  0  0  0  0  0  0  0
  129.7351  130.3961   58.8759 H   0  0  0  0  0  0  0  0  0  0  0  0
  130.0861  132.1578   58.8759 H   0  0  0  0  0  0  0  0  0  0  0  0
  128.9286  132.5836   62.1454 H   0  0  0  0  0  0  0  0  0  0  0  0
  129.4729  133.3288   60.6042 H   0  0  0  0  0  0  0  0  0  0  0  0
  128.1086  132.1603   60.6042 H   0  0  0  0  0  0  0  0  0  0  0  0
  129.3860  130.4550   64.4810 H   0  0  0  0  0  0  0  0  0  0  0  0
  130.0810  127.6620   71.9560 H   0  0  0  0  0  0  0  0  0  0  0  0
  133.5865  126.8882   74.8636 H   0  0  0  0  0  0  0  0  0  0  0  0
  133.2548  125.7144   73.5449 H   0  0  0  0  0  0  0  0  0  0  0  0
  132.4449  127.3178   73.5449 H   0  0  0  0  0  0  0  0  0  0  0  0
  131.2309  126.8061   76.9487 H   0  0  0  0  0  0  0  0  0  0  0  0
  131.6833  127.9823   75.6687 H   0  0  0  0  0  0  0  0  0  0  0  0
  130.0477  127.2397   75.6687 H   0  0  0  0  0  0  0  0  0  0  0  0
  132.1180  125.0535   76.9540 H   0  0  0  0  0  0  0  0  0  0  0  0
  131.7714  123.8362   75.6793 H   0  0  0  0  0  0  0  0  0  0  0  0
  133.3378  124.7155   75.6793 H   0  0  0  0  0  0  0  0  0  0  0  0
  130.4958  123.4115   75.1263 H   0  0  0  0  0  0  0  0  0  0  0  0
  1  2  1  0
  2  3  1  0
  2  4  1  0
  2  5  1  0
  5  6  2  0
  6  7  1  0
  7  8  1  0
  8  9  2  0
  9 10  1  0
 10 11  1  0
 11 12  1  0
 12 13  1  0
 13 14  1  0
 14 15  1  0
 15 16  1  0
 16 17  1  0
 17 18  2  0
 18 19  1  0
 19 20  2  0
 20 21  1  0
 21 22  1  0
 22 23  1  0
 22 24  1  0
 22 25  1  0
 21 26  2  0
 26 27  1  0
 27 28  1  0
 28 29  1  0
 28 30  1  0
 28 31  1  0
 27 32  2  0
 32 33  1  0
  7 34  2  0
 34 35  1  0
 34 36  1  0
 36 37  1  0
 37 38  1  0
 37 39  1  0
 37 40  1  0
 36 41  2  0
 41  5  1  0
 14 10  1  0
 32 19  1  0
 16 12  1  0
  1 42  1  0
  1 43  1  0
  1 44  1  0
  3 45  1  0
  3 46  1  0
  3 47  1  0
  4 48  1  0
  4 49  1  0
  4 50  1  0
  6 51  1  0
  8 52  1  0
 10 53  1  1
 11 54  1  0
 11 55  1  0
 12 56  1  6
 13 57  1  0
 13 58  1  0
 14 59  1  1
 15 60  1  0
 15 61  1  0
 16 62  1  6
 18 63  1  0
 20 64  1  0
 23 65  1  0
 23 66  1  0
 23 67  1  0
 24 68  1  0
 24 69  1  0
 24 70  1  0
 25 71  1  0
 25 72  1  0
 25 73  1  0
 26 74  1  0
 29 75  1  0
 29 76  1  0
 29 77  1  0
 30 78  1  0
 30 79  1  0
 30 80  1  0
 31 81  1  0
 31 82  1  0
 31 83  1  0
 33 84  1  0
 35 85  1  0
 38 86  1  0
 38 87  1  0
 38 88  1  0
 39 89  1  0
 39 90  1  0
 39 91  1  0
 40 92  1  0
 40 93  1  0
 40 94  1  0
 41 95  1  0
M  END
>  <Binding energies>  (1) 
[-2.95]

>  <Ligand effiencies>  (1) 
[-0.0686046511627907]

>  <Interactions>  (1) 
["V-A:GLU:543:CA:4904, V-B:HIS:456:CD2:9039, H-A:GLU:543:OE2:4910, V-B:GLU:543:C:9874, V-A:GLU:543:C:4902, V-B:GLU:543:CB:9878, V-B:GLU:543:CG:9879, V-A:HIS:456:CD2:4068, V-B:TYR:484:CE2:9317, V-A:HIS:456:CB:4065, V-B:LYS:547:CE:9922, V-A:GLU:543:CD:4908, H-B:TYR:484:OH:9319, V-B:HIS:456:CE1:9041, V-B:GLU:543:CA:9876, V-B:TYR:484:CZ:9318, V-A:HIS:456:CE1:4070, V-B:GLY:544:C:9884, V-B:GLY:544:CA:9886, V-A:GLU:543:CG:4907, V-B:GLU:543:CD:9880, V-B:LYS:547:CD:9921, H-A:LYS:547:NZ:4951, H-A:GLU:543:OE1:4909, V-A:TYR:484:CB:4341, V-A:GLU:543:CB:4906, V-A:HIS:456:CG:4066, V-A:PRO:540:CB:4885, V-A:PRO:540:CA:4883, H-A:GLY:544:O:4913, H-A:HIS:456:NE2:4071"]

$$$$
ZINC2382314534-again1
     RDKit          3D

 96 99  0  0  0  0  0  0  0  0999 V2000
  133.1740  127.1680   75.8880 C   0  0  0  0  0  0  0  0  0  0  0  0
  133.3690  126.0030   74.8850 C   0  0  0  0  0  0  0  0  0  0  0  0
  134.2140  124.9140   75.5990 C   0  0  0  0  0  0  0  0  0  0  0  0
  134.1940  126.5050   73.6730 C   0  0  0  0  0  0  0  0  0  0  0  0
  131.9840  125.4950   74.4000 C   0  0  0  0  0  0  0  0  0  0  0  0
  131.2440  126.2690   73.5040 C   0  0  0  0  0  0  0  0  0  0  0  0
  129.9870  125.8720   73.0280 C   0  0  0  0  0  0  0  0  0  0  0  0
  129.2520  126.7450   72.0830 C   0  0  0  0  0  0  0  0  0  0  0  0
  129.2470  126.5880   70.8170 N   0  0  0  0  0  0  0  0  0  0  0  0
  128.4830  127.5280   70.0050 C   0  0  2  0  0  0  0  0  0  0  0  0
  127.5140  126.7710   69.0560 C   0  0  0  0  0  0  0  0  0  0  0  0
  127.9880  127.2070   67.6520 C   0  0  2  0  0  0  0  0  0  0  0  0
  129.5030  127.2520   67.8410 C   0  0  0  0  0  0  0  0  0  0  0  0
  129.4190  128.2500   68.9980 C   0  0  1  0  0  0  0  0  0  0  0  0
  128.6710  129.4240   68.3260 C   0  0  0  0  0  0  0  0  0  0  0  0
  127.6420  128.6980   67.4210 C   0  0  1  0  0  0  0  0  0  0  0  0
  127.7470  129.0810   65.9840 N   0  0  0  0  0  0  0  0  0  0  0  0
  128.0190  128.2090   65.0240 C   0  0  0  0  0  0  0  0  0  0  0  0
  128.1030  128.5700   63.6040 C   0  0  0  0  0  0  0  0  0  0  0  0
  127.9950  127.5080   62.7030 C   0  0  0  0  0  0  0  0  0  0  0  0
  128.0120  127.6930   61.3190 C   0  0  0  0  0  0  0  0  0  0  0  0
  127.8740  126.4630   60.3800 C   0  0  0  0  0  0  0  0  0  0  0  0
  129.2350  125.7290   60.2770 C   0  0  0  0  0  0  0  0  0  0  0  0
  126.8270  125.4260   60.8650 C   0  0  0  0  0  0  0  0  0  0  0  0
  127.4390  126.9320   58.9690 C   0  0  0  0  0  0  0  0  0  0  0  0
  128.1480  128.9990   60.8380 C   0  0  0  0  0  0  0  0  0  0  0  0
  128.2840  130.1120   61.6870 C   0  0  0  0  0  0  0  0  0  0  0  0
  128.4470  131.5490   61.0840 C   0  0  0  0  0  0  0  0  0  0  0  0
  127.3790  132.5110   61.6650 C   0  0  0  0  0  0  0  0  0  0  0  0
  129.8730  132.0970   61.3560 C   0  0  0  0  0  0  0  0  0  0  0  0
  128.2630  131.5970   59.5390 C   0  0  0  0  0  0  0  0  0  0  0  0
  128.2740  129.8770   63.0840 C   0  0  0  0  0  0  0  0  0  0  0  0
  128.4710  130.9340   63.9410 O   0  0  0  0  0  0  0  0  0  0  0  0
  129.4600  124.6410   73.4780 C   0  0  0  0  0  0  0  0  0  0  0  0
  128.2290  124.2320   73.0180 O   0  0  0  0  0  0  0  0  0  0  0  0
  130.1770  123.8240   74.3870 C   0  0  0  0  0  0  0  0  0  0  0  0
  129.6130  122.4550   74.8970 C   0  0  0  0  0  0  0  0  0  0  0  0
  129.0990  121.5310   73.7540 C   0  0  0  0  0  0  0  0  0  0  0  0
  130.7150  121.6450   75.6300 C   0  0  0  0  0  0  0  0  0  0  0  0
  128.3980  122.6800   75.8360 C   0  0  0  0  0  0  0  0  0  0  0  0
  131.4320  124.2810   74.8260 C   0  0  0  0  0  0  0  0  0  0  0  0
  133.2387  126.7816   76.9159 H   0  0  0  0  0  0  0  0  0  0  0  0
  133.9583  127.9230   75.7301 H   0  0  0  0  0  0  0  0  0  0  0  0
  132.1866  127.6264   75.7301 H   0  0  0  0  0  0  0  0  0  0  0  0
  134.1212  125.0336   76.6885 H   0  0  0  0  0  0  0  0  0  0  0  0
  133.8502  123.9177   75.3072 H   0  0  0  0  0  0  0  0  0  0  0  0
  135.2694  125.0189   75.3072 H   0  0  0  0  0  0  0  0  0  0  0  0
  135.0821  127.0454   74.0325 H   0  0  0  0  0  0  0  0  0  0  0  0
  134.5096  125.6457   73.0631 H   0  0  0  0  0  0  0  0  0  0  0  0
  133.5759  127.1802   73.0631 H   0  0  0  0  0  0  0  0  0  0  0  0
  131.6631  127.2257   73.1590 H   0  0  0  0  0  0  0  0  0  0  0  0
  128.6734  127.5825   72.4999 H   0  0  0  0  0  0  0  0  0  0  0  0
  127.9763  128.2002   70.7131 H   0  0  0  0  0  0  0  0  0  0  0  0
  127.6063  125.6823   69.1837 H   0  0  0  0  0  0  0  0  0  0  0  0
  126.4551  127.0007   69.2458 H   0  0  0  0  0  0  0  0  0  0  0  0
  127.5733  126.5686   66.8580 H   0  0  0  0  0  0  0  0  0  0  0  0
  129.9349  126.2830   68.1318 H   0  0  0  0  0  0  0  0  0  0  0  0
  130.1344  127.5012   66.9755 H   0  0  0  0  0  0  0  0  0  0  0  0
  130.3499  128.5726   69.4873 H   0  0  0  0  0  0  0  0  0  0  0  0
  128.1669  130.0535   69.0741 H   0  0  0  0  0  0  0  0  0  0  0  0
  129.3344  130.1056   67.7735 H   0  0  0  0  0  0  0  0  0  0  0  0
  126.6026  128.9565   67.6718 H   0  0  0  0  0  0  0  0  0  0  0  0
  127.5690  130.0520   65.7470 H   0  0  0  0  0  0  0  0  0  0  0  0
  128.1908  127.1598   65.3062 H   0  0  0  0  0  0  0  0  0  0  0  0
  127.8926  126.4868   63.0989 H   0  0  0  0  0  0  0  0  0  0  0  0
  129.6177  125.5226   61.2874 H   0  0  0  0  0  0  0  0  0  0  0  0
  129.1003  124.7812   59.7352 H   0  0  0  0  0  0  0  0  0  0  0  0
  129.9530  126.3622   59.7352 H   0  0  0  0  0  0  0  0  0  0  0  0
  126.8099  125.4091   61.9647 H   0  0  0  0  0  0  0  0  0  0  0  0
  125.8323  125.7050   60.4871 H   0  0  0  0  0  0  0  0  0  0  0  0
  127.0964  124.4287   60.4871 H   0  0  0  0  0  0  0  0  0  0  0  0
  126.6937  127.7355   59.0633 H   0  0  0  0  0  0  0  0  0  0  0  0
  128.3157  127.3075   58.4209 H   0  0  0  0  0  0  0  0  0  0  0  0
  126.9987  126.0860   58.4209 H   0  0  0  0  0  0  0  0  0  0  0  0
  128.1486  129.1627   59.7502 H   0  0  0  0  0  0  0  0  0  0  0  0
  127.4152  132.4784   62.7639 H   0  0  0  0  0  0  0  0  0  0  0  0
  127.5831  133.5359   61.3217 H   0  0  0  0  0  0  0  0  0  0  0  0
  126.3809  132.2012   61.3217 H   0  0  0  0  0  0  0  0  0  0  0  0
  130.0403  132.1613   62.4413 H   0  0  0  0  0  0  0  0  0  0  0  0
  130.6170  131.4207   60.9098 H   0  0  0  0  0  0  0  0  0  0  0  0
  129.9726  133.0975   60.9098 H   0  0  0  0  0  0  0  0  0  0  0  0
  127.2237  131.8681   59.3018 H   0  0  0  0  0  0  0  0  0  0  0  0
  128.9444  132.3475   59.1117 H   0  0  0  0  0  0  0  0  0  0  0  0
  128.4909  130.6093   59.1117 H   0  0  0  0  0  0  0  0  0  0  0  0
  129.3950  131.1070   64.1280 H   0  0  0  0  0  0  0  0  0  0  0  0
  128.0260  124.5620   72.1400 H   0  0  0  0  0  0  0  0  0  0  0  0
  128.6079  120.6481   74.1891 H   0  0  0  0  0  0  0  0  0  0  0  0
  128.3781  122.0827   73.1327 H   0  0  0  0  0  0  0  0  0  0  0  0
  129.9479  121.2094   73.1327 H   0  0  0  0  0  0  0  0  0  0  0  0
  130.5807  121.7437   76.7173 H   0  0  0  0  0  0  0  0  0  0  0  0
  130.6408  120.5848   75.3462 H   0  0  0  0  0  0  0  0  0  0  0  0
  131.7047  122.0322   75.3462 H   0  0  0  0  0  0  0  0  0  0  0  0
  128.7279  122.6189   76.8836 H   0  0  0  0  0  0  0  0  0  0  0  0
  127.9660  123.6734   75.6450 H   0  0  0  0  0  0  0  0  0  0  0  0
  127.6389  121.9072   75.6450 H   0  0  0  0  0  0  0  0  0  0  0  0
  132.0028  123.6601   75.5322 H   0  0  0  0  0  0  0  0  0  0  0  0
  1  2  1  0
  2  3  1  0
  2  4  1  0
  2  5  1  0
  5  6  2  0
  6  7  1  0
  7  8  1  0
  8  9  2  0
  9 10  1  0
 10 11  1  0
 11 12  1  0
 12 13  1  0
 13 14  1  0
 14 15  1  0
 15 16  1  0
 16 17  1  0
 17 18  2  0
 18 19  1  0
 19 20  2  0
 20 21  1  0
 21 22  1  0
 22 23  1  0
 22 24  1  0
 22 25  1  0
 21 26  2  0
 26 27  1  0
 27 28  1  0
 28 29  1  0
 28 30  1  0
 28 31  1  0
 27 32  2  0
 32 33  1  0
  7 34  2  0
 34 35  1  0
 34 36  1  0
 36 37  1  0
 37 38  1  0
 37 39  1  0
 37 40  1  0
 36 41  2  0
 41  5  1  0
 14 10  1  0
 32 19  1  0
 16 12  1  0
  1 42  1  0
  1 43  1  0
  1 44  1  0
  3 45  1  0
  3 46  1  0
  3 47  1  0
  4 48  1  0
  4 49  1  0
  4 50  1  0
  6 51  1  0
  8 52  1  0
 10 53  1  1
 11 54  1  0
 11 55  1  0
 12 56  1  6
 13 57  1  0
 13 58  1  0
 14 59  1  1
 15 60  1  0
 15 61  1  0
 16 62  1  1
 17 63  1  0
 18 64  1  0
 20 65  1  0
 23 66  1  0
 23 67  1  0
 23 68  1  0
 24 69  1  0
 24 70  1  0
 24 71  1  0
 25 72  1  0
 25 73  1  0
 25 74  1  0
 26 75  1  0
 29 76  1  0
 29 77  1  0
 29 78  1  0
 30 79  1  0
 30 80  1  0
 30 81  1  0
 31 82  1  0
 31 83  1  0
 31 84  1  0
 33 85  1  0
 35 86  1  0
 38 87  1  0
 38 88  1  0
 38 89  1  0
 39 90  1  0
 39 91  1  0
 39 92  1  0
 40 93  1  0
 40 94  1  0
 40 95  1  0
 41 96  1  0
M  CHG  1  17   1
M  END
>  <Binding energies>  (1) 
[-3.03]

>  <Ligand effiencies>  (1) 
[-0.06886363636363636]

>  <Interactions>  (1) 
["V-A:ARG:545:CA:4919, V-A:GLU:543:CA:4904, V-B:GLU:543:C:9874, H-B:GLU:543:O:9875, V-A:GLU:543:C:4902, V-B:GLU:543:CB:9878, H-B:LYS:547:NZ:9923, V-B:GLU:543:CG:9879, V-A:GLY:544:C:4912, V-A:HIS:456:CD2:4068, V-A:LYS:547:CG:4948, V-A:LYS:547:CB:4947, V-A:HIS:456:CB:4065, V-B:LYS:547:CE:9922, V-A:LYS:547:CD:4949, V-A:ASP:473:CG:4240, V-A:GLU:543:CD:4908, H-B:TYR:484:OH:9319, V-B:HIS:456:CE1:9041, V-B:GLU:543:CA:9876, V-A:HIS:456:CE1:4070, V-A:HIS:456:CA:4063, V-A:GLU:543:CG:4907, V-B:GLU:543:CD:9880, V-B:LYS:547:CD:9921, V-A:HIS:456:C:4061, H-A:GLU:543:OE1:4909, V-A:ARG:545:C:4917, V-A:GLU:543:CB:4906, V-A:HIS:456:CG:4066, H-B:GLY:544:O:9885, V-A:PRO:540:CA:4883, V-A:LYS:547:CE:4950, V-A:VAL:458:CG2:4087, H-A:HIS:456:NE2:4071"]

$$$$
ZINC2382314534-again2
     RDKit          3D

 97100  0  0  0  0  0  0  0  0999 V2000
  130.4700  131.9130   73.6320 C   0  0  0  0  0  0  0  0  0  0  0  0
  129.3200  131.0100   74.1420 C   0  0  0  0  0  0  0  0  0  0  0  0
  127.9890  131.7520   73.8460 C   0  0  0  0  0  0  0  0  0  0  0  0
  129.4320  130.8590   75.6800 C   0  0  0  0  0  0  0  0  0  0  0  0
  129.4130  129.6120   73.4750 C   0  0  0  0  0  0  0  0  0  0  0  0
  129.0610  129.4680   72.1320 C   0  0  0  0  0  0  0  0  0  0  0  0
  129.1420  128.2440   71.4630 C   0  0  0  0  0  0  0  0  0  0  0  0
  128.7840  128.2720   70.0400 C   0  0  0  0  0  0  0  0  0  0  0  0
  127.7840  127.5700   69.5270 N   0  0  0  0  0  0  0  0  0  0  0  0
  127.4370  127.5870   68.0780 C   0  0  2  0  0  0  0  0  0  0  0  0
  128.5630  126.9840   67.2020 C   0  0  0  0  0  0  0  0  0  0  0  0
  128.8690  128.1230   66.2040 C   0  0  2  0  0  0  0  0  0  0  0  0
  128.7220  129.3550   67.0940 C   0  0  0  0  0  0  0  0  0  0  0  0
  127.2870  129.0150   67.4880 C   0  0  1  0  0  0  0  0  0  0  0  0
  126.5960  128.9360   66.1090 C   0  0  0  0  0  0  0  0  0  0  0  0
  127.6820  128.2850   65.2170 C   0  0  1  0  0  0  0  0  0  0  0  0
  128.0010  129.1240   64.0280 N   0  0  0  0  0  0  0  0  0  0  0  0
  128.7500  128.7010   63.0180 C   0  0  0  0  0  0  0  0  0  0  0  0
  129.0420  129.5460   61.8520 C   0  0  0  0  0  0  0  0  0  0  0  0
  129.9020  129.0860   60.8440 C   0  0  0  0  0  0  0  0  0  0  0  0
  130.2130  129.8600   59.7210 C   0  0  0  0  0  0  0  0  0  0  0  0
  131.1710  129.3670   58.6040 C   0  0  0  0  0  0  0  0  0  0  0  0
  132.5000  130.1670   58.5310 C   0  0  0  0  0  0  0  0  0  0  0  0
  131.5430  127.8820   58.8500 C   0  0  0  0  0  0  0  0  0  0  0  0
  130.4770  129.4980   57.2260 C   0  0  0  0  0  0  0  0  0  0  0  0
  129.6330  131.1280   59.6210 C   0  0  0  0  0  0  0  0  0  0  0  0
  128.7620  131.6470   60.5930 C   0  0  0  0  0  0  0  0  0  0  0  0
  128.1450  133.0750   60.4170 C   0  0  0  0  0  0  0  0  0  0  0  0
  128.6300  133.7220   59.0940 C   0  0  0  0  0  0  0  0  0  0  0  0
  126.5960  133.0100   60.4460 C   0  0  0  0  0  0  0  0  0  0  0  0
  128.5500  134.0650   61.5480 C   0  0  0  0  0  0  0  0  0  0  0  0
  128.4760  130.8340   61.7160 C   0  0  0  0  0  0  0  0  0  0  0  0
  127.6280  131.3020   62.6950 O   0  0  0  0  0  0  0  0  0  0  0  0
  129.5580  127.1040   72.1930 C   0  0  0  0  0  0  0  0  0  0  0  0
  129.5640  125.8700   71.5860 O   0  0  0  0  0  0  0  0  0  0  0  0
  129.9320  127.2070   73.5550 C   0  0  0  0  0  0  0  0  0  0  0  0
  130.4120  125.9670   74.3840 C   0  0  0  0  0  0  0  0  0  0  0  0
  129.9760  126.0130   75.8770 C   0  0  0  0  0  0  0  0  0  0  0  0
  129.8100  124.6580   73.8080 C   0  0  0  0  0  0  0  0  0  0  0  0
  131.9610  125.8850   74.4010 C   0  0  0  0  0  0  0  0  0  0  0  0
  129.8510  128.4740   74.1610 C   0  0  0  0  0  0  0  0  0  0  0  0
  131.0109  132.3377   74.4905 H   0  0  0  0  0  0  0  0  0  0  0  0
  131.1627  131.3149   73.0216 H   0  0  0  0  0  0  0  0  0  0  0  0
  130.0533  132.7277   73.0216 H   0  0  0  0  0  0  0  0  0  0  0  0
  127.5019  132.0236   74.7941 H   0  0  0  0  0  0  0  0  0  0  0  0
  128.1983  132.6636   73.2671 H   0  0  0  0  0  0  0  0  0  0  0  0
  127.3236  131.0946   73.2671 H   0  0  0  0  0  0  0  0  0  0  0  0
  128.8452  131.6501   76.1698 H   0  0  0  0  0  0  0  0  0  0  0  0
  129.0438  129.8748   75.9810 H   0  0  0  0  0  0  0  0  0  0  0  0
  130.4865  130.9449   75.9810 H   0  0  0  0  0  0  0  0  0  0  0  0
  128.7067  130.3509   71.5798 H   0  0  0  0  0  0  0  0  0  0  0  0
  129.3757  128.9079   69.3651 H   0  0  0  0  0  0  0  0  0  0  0  0
  127.2320  126.9700   70.1320 H   0  0  0  0  0  0  0  0  0  0  0  0
  126.4947  127.0203   68.0488 H   0  0  0  0  0  0  0  0  0  0  0  0
  129.4481  126.7397   67.8077 H   0  0  0  0  0  0  0  0  0  0  0  0
  128.2758  126.0419   66.7122 H   0  0  0  0  0  0  0  0  0  0  0  0
  129.8191  127.9669   65.6720 H   0  0  0  0  0  0  0  0  0  0  0  0
  129.4173  129.3615   67.9463 H   0  0  0  0  0  0  0  0  0  0  0  0
  128.9266  130.3444   66.6590 H   0  0  0  0  0  0  0  0  0  0  0  0
  126.7580  129.6867   68.1800 H   0  0  0  0  0  0  0  0  0  0  0  0
  125.6927  128.3099   66.1539 H   0  0  0  0  0  0  0  0  0  0  0  0
  126.2551  129.9132   65.7364 H   0  0  0  0  0  0  0  0  0  0  0  0
  127.3797  127.3280   64.7667 H   0  0  0  0  0  0  0  0  0  0  0  0
  127.6170  130.0640   63.9980 H   0  0  0  0  0  0  0  0  0  0  0  0
  129.1664  127.6835   63.0547 H   0  0  0  0  0  0  0  0  0  0  0  0
  130.3463  128.0843   60.9396 H   0  0  0  0  0  0  0  0  0  0  0  0
  132.8556  130.3810   59.5497 H   0  0  0  0  0  0  0  0  0  0  0  0
  133.2561  129.5738   57.9958 H   0  0  0  0  0  0  0  0  0  0  0  0
  132.3297  131.1128   57.9958 H   0  0  0  0  0  0  0  0  0  0  0  0
  131.5910  127.6904   59.9321 H   0  0  0  0  0  0  0  0  0  0  0  0
  130.7797  127.2328   58.3962 H   0  0  0  0  0  0  0  0  0  0  0  0
  132.5222  127.6693   58.3962 H   0  0  0  0  0  0  0  0  0  0  0  0
  129.4057  129.7002   57.3727 H   0  0  0  0  0  0  0  0  0  0  0  0
  130.9327  130.3260   56.6632 H   0  0  0  0  0  0  0  0  0  0  0  0
  130.5995  128.5609   56.6632 H   0  0  0  0  0  0  0  0  0  0  0  0
  129.8691  131.7465   58.7425 H   0  0  0  0  0  0  0  0  0  0  0  0
  129.2755  134.5831   59.3220 H   0  0  0  0  0  0  0  0  0  0  0  0
  129.1980  132.9823   58.5107 H   0  0  0  0  0  0  0  0  0  0  0  0
  127.7607  134.0597   58.5107 H   0  0  0  0  0  0  0  0  0  0  0  0
  126.2491  132.9954   61.4898 H   0  0  0  0  0  0  0  0  0  0  0  0
  126.1824  133.8916   59.9344 H   0  0  0  0  0  0  0  0  0  0  0  0
  126.2577  132.0969   59.9344 H   0  0  0  0  0  0  0  0  0  0  0  0
  128.3601  133.6008   62.5270 H   0  0  0  0  0  0  0  0  0  0  0  0
  129.6193  134.3068   61.4581 H   0  0  0  0  0  0  0  0  0  0  0  0
  127.9568  134.9870   61.4581 H   0  0  0  0  0  0  0  0  0  0  0  0
  127.0540  132.0110   62.4010 H   0  0  0  0  0  0  0  0  0  0  0  0
  128.6870  125.5170   71.4340 H   0  0  0  0  0  0  0  0  0  0  0  0
  130.8628  125.9194   76.5210 H   0  0  0  0  0  0  0  0  0  0  0  0
  129.4727  126.9692   76.0827 H   0  0  0  0  0  0  0  0  0  0  0  0
  129.2842  125.1829   76.0827 H   0  0  0  0  0  0  0  0  0  0  0  0
  129.5069  123.9989   74.6349 H   0  0  0  0  0  0  0  0  0  0  0  0
  128.9322  124.8988   73.1904 H   0  0  0  0  0  0  0  0  0  0  0  0
  130.5642  124.1483   73.1904 H   0  0  0  0  0  0  0  0  0  0  0  0
  132.3158  125.8662   75.4420 H   0  0  0  0  0  0  0  0  0  0  0  0
  132.2853  124.9684   73.8865 H   0  0  0  0  0  0  0  0  0  0  0  0
  132.3803  126.7622   73.8865 H   0  0  0  0  0  0  0  0  0  0  0  0
  130.1438  128.5740   75.2166 H   0  0  0  0  0  0  0  0  0  0  0  0
  1  2  1  0
  2  3  1  0
  2  4  1  0
  2  5  1  0
  5  6  2  0
  6  7  1  0
  7  8  1  0
  8  9  2  0
  9 10  1  0
 10 11  1  0
 11 12  1  0
 12 13  1  0
 13 14  1  0
 14 15  1  0
 15 16  1  0
 16 17  1  0
 17 18  2  0
 18 19  1  0
 19 20  2  0
 20 21  1  0
 21 22  1  0
 22 23  1  0
 22 24  1  0
 22 25  1  0
 21 26  2  0
 26 27  1  0
 27 28  1  0
 28 29  1  0
 28 30  1  0
 28 31  1  0
 27 32  2  0
 32 33  1  0
  7 34  2  0
 34 35  1  0
 34 36  1  0
 36 37  1  0
 37 38  1  0
 37 39  1  0
 37 40  1  0
 36 41  2  0
 41  5  1  0
 14 10  1  0
 32 19  1  0
 16 12  1  0
  1 42  1  0
  1 43  1  0
  1 44  1  0
  3 45  1  0
  3 46  1  0
  3 47  1  0
  4 48  1  0
  4 49  1  0
  4 50  1  0
  6 51  1  0
  8 52  1  0
  9 53  1  0
 10 54  1  1
 11 55  1  0
 11 56  1  0
 12 57  1  6
 13 58  1  0
 13 59  1  0
 14 60  1  1
 15 61  1  0
 15 62  1  0
 16 63  1  6
 17 64  1  0
 18 65  1  0
 20 66  1  0
 23 67  1  0
 23 68  1  0
 23 69  1  0
 24 70  1  0
 24 71  1  0
 24 72  1  0
 25 73  1  0
 25 74  1  0
 25 75  1  0
 26 76  1  0
 29 77  1  0
 29 78  1  0
 29 79  1  0
 30 80  1  0
 30 81  1  0
 30 82  1  0
 31 83  1  0
 31 84  1  0
 31 85  1  0
 33 86  1  0
 35 87  1  0
 38 88  1  0
 38 89  1  0
 38 90  1  0
 39 91  1  0
 39 92  1  0
 39 93  1  0
 40 94  1  0
 40 95  1  0
 40 96  1  0
 41 97  1  0
M  CHG  2   9   1  17   1
M  END
>  <Binding energies>  (1) 
[0.36]

>  <Ligand effiencies>  (1) 
[0.008]

>  <Interactions>  (1) 
["V-A:GLU:543:CA:4904, V-B:HIS:456:CD2:9039, H-B:GLU:543:O:9875, V-A:GLU:543:C:4902, V-B:GLU:543:CB:9878, V-A:PRO:540:C:4881, V-A:GLY:544:CA:4914, V-B:GLU:543:CG:9879, V-A:HIS:456:CD2:4068, V-A:ASP:366:CG:3213, V-A:TYR:539:CD1:4873, V-A:HIS:456:CB:4065, V-A:ALA:541:CB:4892, V-B:LYS:547:CE:9922, V-A:TYR:539:CA:4869, V-A:GLU:543:CD:4908, H-B:TYR:484:OH:9319, V-B:HIS:456:CE1:9041, V-B:TYR:484:CZ:9318, V-A:HIS:456:CE1:4070, H-B:HIS:456:NE2:9042, V-A:GLU:543:CG:4907, V-A:TYR:531:CZ:4794, V-B:GLU:543:CD:9880, V-B:HIS:456:CG:9037, V-A:MET:535:CE:4835, V-A:TYR:539:C:4867, V-A:ASP:366:CB:3212, V-A:GLU:543:CB:4906, V-A:HIS:456:CG:4066, H-B:GLY:544:O:9885, V-A:PRO:540:N:4884, V-A:TYR:539:CG:4872, V-A:PRO:540:CA:4883, V-A:LYS:547:CE:4950, V-A:TYR:539:CE1:4875, H-A:HIS:456:NE2:4071"]

$$$$
ZINC2382315311
     RDKit          3D

 48 49  0  0  0  0  0  0  0  0999 V2000
  128.0520  122.8870   58.8230 C   0  0  0  0  0  0  0  0  0  0  0  0
  128.6010  122.7280   60.2280 C   0  0  0  0  0  0  0  0  0  0  0  0
  127.7590  122.8720   61.3270 C   0  0  0  0  0  0  0  0  0  0  0  0
  128.2550  122.7060   62.6160 C   0  0  0  0  0  0  0  0  0  0  0  0
  129.6060  122.3830   62.8340 C   0  0  0  0  0  0  0  0  0  0  0  0
  130.1310  122.1880   64.1010 O   0  0  0  0  0  0  0  0  0  0  0  0
  129.5130  122.7900   65.2330 C   0  0  0  0  0  0  0  0  0  0  0  0
  129.8570  124.2880   65.2330 C   0  0  0  0  0  0  0  0  0  0  0  0
  130.5910  124.7540   66.4980 C   0  0  0  0  0  0  0  0  0  0  0  0
  129.5660  126.2000   67.4110 Br  0  0  0  0  0  0  0  0  0  0  0  0
  130.4640  122.2260   61.7230 C   0  0  0  0  0  0  0  0  0  0  0  0
  131.9060  121.8550   61.8760 C   0  0  0  0  0  0  0  0  0  0  0  0
  132.7670  122.4000   62.6640 N   0  0  0  0  0  0  0  0  0  0  0  0
  132.3640  123.3630   63.4680 N   0  0  0  0  0  0  0  0  0  0  0  0
  132.9240  124.8090   63.2500 S   0  0  0  0  0  0  0  0  0  0  0  0
  132.0350  125.8650   63.7450 O   0  0  0  0  0  0  0  0  0  0  0  0
  134.3450  124.9650   63.5870 O   0  0  0  0  0  0  0  0  0  0  0  0
  132.8360  124.9020   61.4360 C   0  0  0  0  0  0  0  0  0  0  0  0
  133.9090  124.3370   60.7300 C   0  0  0  0  0  0  0  0  0  0  0  0
  133.9540  124.3670   59.3410 C   0  0  0  0  0  0  0  0  0  0  0  0
  132.9170  124.9510   58.6280 C   0  0  0  0  0  0  0  0  0  0  0  0
  131.8300  125.4940   59.3070 C   0  0  0  0  0  0  0  0  0  0  0  0
  131.7570  125.4730   60.7100 C   0  0  0  0  0  0  0  0  0  0  0  0
  130.5090  126.0890   61.3670 C   0  0  0  0  0  0  0  0  0  0  0  0
  130.7820  127.2550   61.9610 F   0  0  0  0  0  0  0  0  0  0  0  0
  129.5380  126.3380   60.4910 F   0  0  0  0  0  0  0  0  0  0  0  0
  130.0510  125.2630   62.3070 F   0  0  0  0  0  0  0  0  0  0  0  0
  132.4060  120.7310   60.9530 C   0  0  0  0  0  0  0  0  0  0  0  0
  131.5260  119.7280   60.8880 F   0  0  0  0  0  0  0  0  0  0  0  0
  132.6050  121.2100   59.7260 F   0  0  0  0  0  0  0  0  0  0  0  0
  133.5620  120.2350   61.4000 F   0  0  0  0  0  0  0  0  0  0  0  0
  129.9440  122.4100   60.4320 C   0  0  0  0  0  0  0  0  0  0  0  0
  126.9966  123.1927   58.8742 H   0  0  0  0  0  0  0  0  0  0  0  0
  128.6305  123.6545   58.2880 H   0  0  0  0  0  0  0  0  0  0  0  0
  128.1308  121.9291   58.2880 H   0  0  0  0  0  0  0  0  0  0  0  0
  126.6976  123.1179   61.1757 H   0  0  0  0  0  0  0  0  0  0  0  0
  127.5810  122.8291   63.4766 H   0  0  0  0  0  0  0  0  0  0  0  0
  128.4224  122.6591   65.1745 H   0  0  0  0  0  0  0  0  0  0  0  0
  129.8765  122.3184   66.1579 H   0  0  0  0  0  0  0  0  0  0  0  0
  130.4974  124.4970   64.3634 H   0  0  0  0  0  0  0  0  0  0  0  0
  128.9040  124.8360   65.1948 H   0  0  0  0  0  0  0  0  0  0  0  0
  130.7044  123.9022   67.1847 H   0  0  0  0  0  0  0  0  0  0  0  0
  131.5782  125.1455   66.2114 H   0  0  0  0  0  0  0  0  0  0  0  0
  134.7301  123.8613   61.2863 H   0  0  0  0  0  0  0  0  0  0  0  0
  134.8105  123.9284   58.8080 H   0  0  0  0  0  0  0  0  0  0  0  0
  132.9537  124.9848   57.5291 H   0  0  0  0  0  0  0  0  0  0  0  0
  131.0100  125.9496   58.7325 H   0  0  0  0  0  0  0  0  0  0  0  0
  130.6095  122.3011   59.5630 H   0  0  0  0  0  0  0  0  0  0  0  0
  1  2  1  0
  2  3  2  0
  3  4  1  0
  4  5  2  0
  5  6  1  0
  6  7  1  0
  7  8  1  0
  8  9  1  0
  9 10  1  0
  5 11  1  0
 11 12  1  0
 12 13  2  0
 13 14  1  0
 14 15  1  0
 15 16  2  0
 15 17  2  0
 15 18  1  0
 18 19  2  0
 19 20  1  0
 20 21  2  0
 21 22  1  0
 22 23  2  0
 23 24  1  0
 24 25  1  0
 24 26  1  0
 24 27  1  0
 12 28  1  0
 28 29  1  0
 28 30  1  0
 28 31  1  0
 11 32  2  0
 32  2  1  0
 23 18  1  0
  1 33  1  0
  1 34  1  0
  1 35  1  0
  3 36  1  0
  4 37  1  0
  7 38  1  0
  7 39  1  0
  8 40  1  0
  8 41  1  0
  9 42  1  0
  9 43  1  0
 19 44  1  0
 20 45  1  0
 21 46  1  0
 22 47  1  0
 32 48  1  0
M  CHG  1  14  -1
M  END
>  <Binding energies>  (1) 
[-5.24]

>  <Ligand effiencies>  (1) 
[-0.16375]

>  <Interactions>  (1) 
["V-A:ILE:369:CG2:3237, V-A:ASP:366:CA:3210, V-B:PRO:540:CA:9855, V-A:ILE:369:CB:3236, V-B:GLU:543:CB:9878, V-B:ALA:541:CB:9864, H-A:ARG:545:NH1:4927, V-B:TYR:539:CE2:9848, V-A:TYR:484:CE2:4346, V-B:GLU:543:CG:9879, V-B:TYR:539:C:9839, V-A:ASP:366:CG:3213, V-A:GLU:543:CD:4908, V-A:TYR:484:CZ:4347, H-A:GLY:454:N:4050, V-A:SER:385:C:3405, V-B:PRO:540:N:9856, V-A:ILE:369:CD1:3239, V-A:HIS:456:CE1:4070, V-A:ASP:366:C:3208, V-B:TYR:539:CD2:9846, V-A:SER:385:CB:3409, V-B:GLU:543:CD:9880, V-A:ASP:366:CB:3212, V-A:LEU:475:CD2:4259, H-A:ARG:545:NH2:4928, V-A:ARG:545:CZ:4926, H-A:ARG:545:NE:4924, V-A:SER:385:CA:3407, V-B:PRO:540:C:9853, V-B:ALA:541:CA:9862, H-A:TYR:484:OH:4348"]

$$$$
ZINC2382323733
     RDKit          3D

124129  0  0  0  0  0  0  0  0999 V2000
  127.3340  134.0510   60.5090 C   0  0  0  0  0  0  0  0  0  0  0  0
  128.3320  133.2450   60.0960 C   0  0  0  0  0  0  0  0  0  0  0  0
  128.9960  133.4860   58.7420 C   0  0  0  0  0  0  0  0  0  0  0  0
  129.9210  132.3580   58.2440 C   0  0  0  0  0  0  0  0  0  0  0  0
  131.2870  132.3270   58.9120 C   0  0  0  0  0  0  0  0  0  0  0  0
  132.2310  131.3680   58.8030 C   0  0  0  0  0  0  0  0  0  0  0  0
  133.5490  131.4690   59.5520 C   0  0  0  0  0  0  0  0  0  0  0  0
  132.1030  130.1290   57.9280 C   0  0  0  0  0  0  0  0  0  0  0  0
  128.8280  132.0870   60.9800 C   0  0  1  0  0  0  0  0  0  0  0  0
  128.6900  132.2650   62.5030 C   0  0  0  0  0  0  0  0  0  0  0  0
  128.6440  130.8240   63.0530 C   0  0  0  0  0  0  0  0  0  0  0  0
  127.8120  130.0090   62.0230 C   0  0  1  0  0  0  0  0  0  0  0  0
  126.3100  130.3970   62.2970 C   0  0  0  0  0  0  0  0  0  0  0  0
  128.3140  130.6440   60.6940 C   0  0  1  0  0  0  0  0  0  0  0  0
  127.3730  130.2650   59.5160 C   0  0  1  0  0  0  0  0  0  0  0  0
  127.9500  130.6790   58.2910 O   0  0  0  0  0  0  0  0  0  0  0  0
  127.0140  128.7360   59.5460 C   0  0  0  0  0  0  0  0  0  0  0  0
  127.9620  127.8950   60.4660 C   0  0  2  0  0  0  0  0  0  0  0  0
  128.1030  126.3380   60.2240 C   0  0  1  0  0  0  0  0  0  0  0  0
  126.9470  125.5080   60.8720 C   0  0  0  0  0  0  0  0  0  0  0  0
  128.0090  125.9550   58.7100 C   0  0  0  0  0  0  0  0  0  0  0  0
  129.2260  126.3520   57.8750 C   0  0  0  0  0  0  0  0  0  0  0  0
  130.4640  125.6090   58.3970 C   0  0  1  0  0  0  0  0  0  0  0  0
  131.5340  125.7600   57.4780 O   0  0  0  0  0  0  0  0  0  0  0  0
  130.8200  125.9540   59.8860 C   0  0  0  0  0  0  0  0  0  0  0  0
  131.8160  124.8570   60.3650 C   0  0  0  0  0  0  0  0  0  0  0  0
  131.5120  127.3520   59.9020 C   0  0  0  0  0  0  0  0  0  0  0  0
  129.5150  125.8830   60.8140 C   0  0  1  0  0  0  0  0  0  0  0  0
  129.7660  126.4210   62.2860 C   0  0  2  0  0  0  0  0  0  0  0  0
  129.1790  125.6280   63.3260 O   0  0  0  0  0  0  0  0  0  0  0  0
  129.9890  125.2380   64.3980 C   0  0  2  0  0  0  0  0  0  0  0  0
  129.9280  126.2240   65.3930 O   0  0  0  0  0  0  0  0  0  0  0  0
  130.5980  125.8620   66.6010 C   0  0  2  0  0  0  0  0  0  0  0  0
  130.2290  126.9140   67.6690 C   0  0  0  0  0  0  0  0  0  0  0  0
  131.3790  127.3300   68.3790 O   0  0  0  0  0  0  0  0  0  0  0  0
  132.1130  125.8140   66.2980 C   0  0  1  0  0  0  0  0  0  0  0  0
  132.8530  125.4100   67.4380 O   0  0  0  0  0  0  0  0  0  0  0  0
  132.3920  124.8770   65.1010 C   0  0  2  0  0  0  0  0  0  0  0  0
  133.7490  124.9690   64.7020 O   0  0  0  0  0  0  0  0  0  0  0  0
  131.4490  125.1480   63.9000 C   0  0  1  0  0  0  0  0  0  0  0  0
  131.7000  124.1160   62.9410 O   0  0  0  0  0  0  0  0  0  0  0  0
  131.5430  122.7790   63.3260 C   0  0  2  0  0  0  0  0  0  0  0  0
  132.0830  121.8930   62.3740 O   0  0  0  0  0  0  0  0  0  0  0  0
  131.5110  121.9760   61.0630 C   0  0  1  0  0  0  0  0  0  0  0  0
  132.2840  120.9890   60.1690 C   0  0  0  0  0  0  0  0  0  0  0  0
  129.9900  121.6820   61.0990 C   0  0  2  0  0  0  0  0  0  0  0  0
  129.4020  121.8590   59.8210 O   0  0  0  0  0  0  0  0  0  0  0  0
  129.3050  122.5840   62.1470 C   0  0  1  0  0  0  0  0  0  0  0  0
  127.9190  122.3090   62.2790 O   0  0  0  0  0  0  0  0  0  0  0  0
  130.0390  122.5110   63.5060 C   0  0  1  0  0  0  0  0  0  0  0  0
  129.8380  121.2770   64.1770 O   0  0  0  0  0  0  0  0  0  0  0  0
  129.3800  127.9270   62.4990 C   0  0  0  0  0  0  0  0  0  0  0  0
  127.9750  128.3950   61.9930 C   0  0  1  0  0  0  0  0  0  0  0  0
  126.9190  127.7230   62.9280 C   0  0  0  0  0  0  0  0  0  0  0  0
  126.8552  133.8781   61.4841 H   0  0  0  0  0  0  0  0  0  0  0  0
  126.9982  134.8818   59.8710 H   0  0  0  0  0  0  0  0  0  0  0  0
  128.2007  133.6261   57.9951 H   0  0  0  0  0  0  0  0  0  0  0  0
  129.6408  134.3672   58.8755 H   0  0  0  0  0  0  0  0  0  0  0  0
  129.4231  131.3956   58.4334 H   0  0  0  0  0  0  0  0  0  0  0  0
  130.0979  132.5452   57.1746 H   0  0  0  0  0  0  0  0  0  0  0  0
  131.5338  133.1831   59.5571 H   0  0  0  0  0  0  0  0  0  0  0  0
  133.3573  131.4543   60.6351 H   0  0  0  0  0  0  0  0  0  0  0  0
  134.1906  130.6174   59.2816 H   0  0  0  0  0  0  0  0  0  0  0  0
  134.0533  132.4084   59.2816 H   0  0  0  0  0  0  0  0  0  0  0  0
  132.0109  129.2376   58.5659 H   0  0  0  0  0  0  0  0  0  0  0  0
  131.2094  130.2193   57.2929 H   0  0  0  0  0  0  0  0  0  0  0  0
  132.9962  130.0347   57.2929 H   0  0  0  0  0  0  0  0  0  0  0  0
  129.8752  132.1688   60.6535 H   0  0  0  0  0  0  0  0  0  0  0  0
  129.5535  132.8105   62.9113 H   0  0  0  0  0  0  0  0  0  0  0  0
  127.7993  132.8486   62.7788 H   0  0  0  0  0  0  0  0  0  0  0  0
  129.6607  130.4125   63.1368 H   0  0  0  0  0  0  0  0  0  0  0  0
  128.1975  130.7861   64.0576 H   0  0  0  0  0  0  0  0  0  0  0  0
  126.1351  130.4422   63.3821 H   0  0  0  0  0  0  0  0  0  0  0  0
  126.0977  131.3795   61.8501 H   0  0  0  0  0  0  0  0  0  0  0  0
  125.6484  129.6403   61.8501 H   0  0  0  0  0  0  0  0  0  0  0  0
  129.2342  130.2222   60.2634 H   0  0  0  0  0  0  0  0  0  0  0  0
  126.4168  130.7980   59.6236 H   0  0  0  0  0  0  0  0  0  0  0  0
  128.2400  129.8980   57.8140 H   0  0  0  0  0  0  0  0  0  0  0  0
  125.9831  128.6266   59.9139 H   0  0  0  0  0  0  0  0  0  0  0  0
  127.1312  128.3537   58.5213 H   0  0  0  0  0  0  0  0  0  0  0  0
  128.9490  128.1591   60.0584 H   0  0  0  0  0  0  0  0  0  0  0  0
  127.0250  125.5640   61.9678 H   0  0  0  0  0  0  0  0  0  0  0  0
  125.9776  125.9176   60.5520 H   0  0  0  0  0  0  0  0  0  0  0  0
  127.0252  124.4585   60.5520 H   0  0  0  0  0  0  0  0  0  0  0  0
  127.8858  124.8642   58.6393 H   0  0  0  0  0  0  0  0  0  0  0  0
  127.1548  126.5139   58.3002 H   0  0  0  0  0  0  0  0  0  0  0  0
  129.0529  126.0833   56.8225 H   0  0  0  0  0  0  0  0  0  0  0  0
  129.3878  127.4373   57.9525 H   0  0  0  0  0  0  0  0  0  0  0  0
  130.2323  124.5349   58.4488 H   0  0  0  0  0  0  0  0  0  0  0  0
  131.5330  126.6640   57.1560 H   0  0  0  0  0  0  0  0  0  0  0  0
  131.8361  124.8349   61.4646 H   0  0  0  0  0  0  0  0  0  0  0  0
  131.4928  123.8769   59.9844 H   0  0  0  0  0  0  0  0  0  0  0  0
  132.8227  125.0843   59.9844 H   0  0  0  0  0  0  0  0  0  0  0  0
  131.6699  127.6711   60.9428 H   0  0  0  0  0  0  0  0  0  0  0  0
  132.4819  127.2869   59.3872 H   0  0  0  0  0  0  0  0  0  0  0  0
  130.8721  128.0838   59.3872 H   0  0  0  0  0  0  0  0  0  0  0  0
  129.3717  124.7929   60.8484 H   0  0  0  0  0  0  0  0  0  0  0  0
  130.8586  126.3302   62.3749 H   0  0  0  0  0  0  0  0  0  0  0  0
  129.6510  124.2695   64.7952 H   0  0  0  0  0  0  0  0  0  0  0  0
  130.3009  124.8744   66.9836 H   0  0  0  0  0  0  0  0  0  0  0  0
  129.7744  127.7856   67.1754 H   0  0  0  0  0  0  0  0  0  0  0  0
  129.5190  126.4638   68.3784 H   0  0  0  0  0  0  0  0  0  0  0  0
  132.1000  127.4330   67.7530 H   0  0  0  0  0  0  0  0  0  0  0  0
  132.4409  126.8297   66.0317 H   0  0  0  0  0  0  0  0  0  0  0  0
  133.3730  124.6380   67.2020 H   0  0  0  0  0  0  0  0  0  0  0  0
  132.1874  123.8515   65.4422 H   0  0  0  0  0  0  0  0  0  0  0  0
  134.2720  125.2260   65.4650 H   0  0  0  0  0  0  0  0  0  0  0  0
  131.6351  126.1141   63.4081 H   0  0  0  0  0  0  0  0  0  0  0  0
  132.0868  122.6081   64.2668 H   0  0  0  0  0  0  0  0  0  0  0  0
  131.6029  122.9929   60.6537 H   0  0  0  0  0  0  0  0  0  0  0  0
  132.8393  120.2799   60.8005 H   0  0  0  0  0  0  0  0  0  0  0  0
  131.5753  120.4372   59.5339 H   0  0  0  0  0  0  0  0  0  0  0  0
  132.9895  121.5448   59.5339 H   0  0  0  0  0  0  0  0  0  0  0  0
  129.8461  120.6299   61.3862 H   0  0  0  0  0  0  0  0  0  0  0  0
  128.4570  121.9850   59.9350 H   0  0  0  0  0  0  0  0  0  0  0  0
  129.3777  123.6185   61.7802 H   0  0  0  0  0  0  0  0  0  0  0  0
  127.7760  121.8610   63.1160 H   0  0  0  0  0  0  0  0  0  0  0  0
  129.6012  123.2964   64.1397 H   0  0  0  0  0  0  0  0  0  0  0  0
  129.8390  120.5730   63.5250 H   0  0  0  0  0  0  0  0  0  0  0  0
  129.4240  128.1280   63.5796 H   0  0  0  0  0  0  0  0  0  0  0  0
  130.0988  128.4885   61.8842 H   0  0  0  0  0  0  0  0  0  0  0  0
  127.1948  127.8985   63.9783 H   0  0  0  0  0  0  0  0  0  0  0  0
  125.9272  128.1564   62.7320 H   0  0  0  0  0  0  0  0  0  0  0  0
  126.8915  126.6410   62.7320 H   0  0  0  0  0  0  0  0  0  0  0  0
  1  2  2  0
  2  3  1  0
  3  4  1  0
  4  5  1  0
  5  6  2  3
  6  7  1  0
  6  8  1  0
  2  9  1  0
  9 10  1  0
 10 11  1  0
 11 12  1  0
 12 13  1  1
 12 14  1  0
 14 15  1  0
 15 16  1  0
 15 17  1  0
 17 18  1  0
 18 19  1  0
 19 20  1  1
 19 21  1  0
 21 22  1  0
 22 23  1  0
 23 24  1  0
 23 25  1  0
 25 26  1  0
 25 27  1  0
 25 28  1  0
 28 29  1  0
 29 30  1  0
 30 31  1  0
 31 32  1  0
 32 33  1  0
 33 34  1  0
 34 35  1  0
 33 36  1  0
 36 37  1  0
 36 38  1  0
 38 39  1  0
 38 40  1  0
 40 41  1  0
 41 42  1  0
 42 43  1  0
 43 44  1  0
 44 45  1  0
 44 46  1  0
 46 47  1  0
 46 48  1  0
 48 49  1  0
 48 50  1  0
 50 51  1  0
 29 52  1  0
 52 53  1  0
 53 54  1  1
 14  9  1  0
 53 18  1  0
 53 12  1  0
 28 19  1  0
 40 31  1  0
 50 42  1  0
  1 55  1  0
  1 56  1  0
  3 57  1  0
  3 58  1  0
  4 59  1  0
  4 60  1  0
  5 61  1  0
  7 62  1  0
  7 63  1  0
  7 64  1  0
  8 65  1  0
  8 66  1  0
  8 67  1  0
  9 68  1  1
 10 69  1  0
 10 70  1  0
 11 71  1  0
 11 72  1  0
 13 73  1  0
 13 74  1  0
 13 75  1  0
 14 76  1  6
 15 77  1  1
 16 78  1  0
 17 79  1  0
 17 80  1  0
 18 81  1  6
 20 82  1  0
 20 83  1  0
 20 84  1  0
 21 85  1  0
 21 86  1  0
 22 87  1  0
 22 88  1  0
 23 89  1  1
 24 90  1  0
 26 91  1  0
 26 92  1  0
 26 93  1  0
 27 94  1  0
 27 95  1  0
 27 96  1  0
 28 97  1  1
 29 98  1  1
 31 99  1  1
 33100  1  1
 34101  1  0
 34102  1  0
 35103  1  0
 36104  1  6
 37105  1  0
 38106  1  1
 39107  1  0
 40108  1  6
 42109  1  1
 44110  1  6
 45111  1  0
 45112  1  0
 45113  1  0
 46114  1  1
 47115  1  0
 48116  1  6
 49117  1  0
 50118  1  1
 51119  1  0
 52120  1  0
 52121  1  0
 54122  1  0
 54123  1  0
 54124  1  0
M  END
>  <Binding energies>  (1) 
[-6.55]

>  <Ligand effiencies>  (1) 
[-0.10564516129032257]

>  <Interactions>  (1) 
["V-A:ILE:369:CG2:3237, H-A:GLU:543:OE2:4910, V-B:ALA:541:CB:9864, H-A:ARG:545:NH1:4927, H-A:TYR:531:OH:4795, V-B:TYR:539:CE2:9848, H-B:ALA:541:O:9861, V-B:GLU:543:CG:9879, V-A:ASP:366:CG:3213, V-A:TYR:539:CD1:4873, V-A:LEU:363:CD1:3189, V-A:LEU:363:CB:3187, V-B:TYR:539:CZ:9849, V-A:TYR:531:CE2:4793, H-B:TYR:539:OH:9850, V-A:ALA:541:CB:4892, H-B:ALA:541:N:9863, V-A:TYR:539:CA:4869, V-A:GLU:543:CD:4908, V-A:ARG:545:CG:4922, H-A:GLY:454:N:4050, V-A:HIS:456:CE1:4070, V-B:TYR:539:CD2:9846, V-A:GLU:543:CG:4907, V-A:TYR:531:CZ:4794, V-B:GLU:543:CD:9880, V-A:TYR:539:C:4867, V-A:ASP:366:CB:3212, V-A:ARG:545:CD:4923, V-A:LEU:475:CD2:4259, H-A:ARG:545:NH2:4928, V-A:ARG:545:CZ:4926, V-A:GLU:543:CB:4906, V-A:PRO:540:N:4884, V-A:TYR:539:CG:4872, V-A:PRO:540:CB:4885, V-A:PRO:540:CA:4883, V-A:LEU:363:CA:3185, H-B:TYR:539:O:9840, H-A:ARG:545:NE:4924, V-A:TYR:539:CE1:4875, H-A:HIS:456:ND1:4067, H-A:TYR:484:OH:4348"]

$$$$
ZINC2382330333
     RDKit          3D

 81 82  0  0  0  0  0  0  0  0999 V2000
  130.3360  130.9600   72.9010 C   0  0  0  0  0  0  0  0  0  0  0  0
  129.0120  130.1780   72.9540 C   0  0  0  0  0  0  0  0  0  0  0  0
  128.3380  130.3880   74.3250 C   0  0  0  0  0  0  0  0  0  0  0  0
  129.2070  128.3360   72.4770 Si  0  0  0  0  0  4  0  0  0  0  0  0
  129.0890  128.1790   70.6530 C   0  0  0  0  0  0  0  0  0  0  0  0
  129.0090  128.0650   69.4400 C   0  0  0  0  0  0  0  0  0  0  0  0
  128.9160  127.9140   67.9810 C   0  0  0  0  0  0  0  0  0  0  0  0
  128.3890  128.9330   67.1540 C   0  0  0  0  0  0  0  0  0  0  0  0
  127.9360  130.1350   67.7340 N   0  0  0  0  0  0  0  0  0  0  0  0
  128.3080  128.7700   65.7510 C   0  0  0  0  0  0  0  0  0  0  0  0
  127.7750  129.8130   64.9660 N   0  0  0  0  0  0  0  0  0  0  0  0
  128.7490  127.5800   65.1230 C   0  0  0  0  0  0  0  0  0  0  0  0
  128.6660  127.3880   63.6680 C   0  0  0  0  0  0  0  0  0  0  0  0
  128.5840  127.2040   62.4640 C   0  0  0  0  0  0  0  0  0  0  0  0
  128.4980  126.9050   60.6520 Si  0  0  0  0  0  4  0  0  0  0  0  0
  127.2080  128.1120   59.9160 C   0  0  0  0  0  0  0  0  0  0  0  0
  126.1110  128.5320   60.9100 C   0  0  0  0  0  0  0  0  0  0  0  0
  126.5570  127.5800   58.6250 C   0  0  0  0  0  0  0  0  0  0  0  0
  127.9720  125.0830   60.3860 C   0  0  0  0  0  0  0  0  0  0  0  0
  128.1490  124.5900   58.9390 C   0  0  0  0  0  0  0  0  0  0  0  0
  126.5330  124.7980   60.8580 C   0  0  0  0  0  0  0  0  0  0  0  0
  130.2380  127.2300   59.9230 C   0  0  0  0  0  0  0  0  0  0  0  0
  130.3110  127.0630   58.3940 C   0  0  0  0  0  0  0  0  0  0  0  0
  131.3380  126.3830   60.5890 C   0  0  0  0  0  0  0  0  0  0  0  0
  129.2720  126.5640   65.9520 C   0  0  0  0  0  0  0  0  0  0  0  0
  129.7330  125.3670   65.4970 N   0  0  0  0  0  0  0  0  0  0  0  0
  130.2370  124.5300   66.8450 S   0  0  0  0  0  0  0  0  0  0  0  0
  129.8820  125.6600   68.0130 N   0  0  0  0  0  0  0  0  0  0  0  0
  129.3550  126.7280   67.3520 C   0  0  0  0  0  0  0  0  0  0  0  0
  127.8180  127.2990   73.2820 C   0  0  0  0  0  0  0  0  0  0  0  0
  127.4800  126.0420   72.4630 C   0  0  0  0  0  0  0  0  0  0  0  0
  126.5470  128.0990   73.6260 C   0  0  0  0  0  0  0  0  0  0  0  0
  130.9240  127.7180   73.0470 C   0  0  0  0  0  0  0  0  0  0  0  0
  131.7110  127.0210   71.9250 C   0  0  0  0  0  0  0  0  0  0  0  0
  130.8620  126.8210   74.2950 C   0  0  0  0  0  0  0  0  0  0  0  0
  130.6823  131.1645   73.9248 H   0  0  0  0  0  0  0  0  0  0  0  0
  131.0929  130.3639   72.3701 H   0  0  0  0  0  0  0  0  0  0  0  0
  130.1794  131.9106   72.3701 H   0  0  0  0  0  0  0  0  0  0  0  0
  128.3419  130.5843   72.1821 H   0  0  0  0  0  0  0  0  0  0  0  0
  129.0580  130.1637   75.1258 H   0  0  0  0  0  0  0  0  0  0  0  0
  128.0048  131.4326   74.4136 H   0  0  0  0  0  0  0  0  0  0  0  0
  127.4704  129.7176   74.4136 H   0  0  0  0  0  0  0  0  0  0  0  0
  128.5920  130.7150   68.2380 H   0  0  0  0  0  0  0  0  0  0  0  0
  126.9650  130.3970   67.6520 H   0  0  0  0  0  0  0  0  0  0  0  0
  128.1910  130.0290   64.0710 H   0  0  0  0  0  0  0  0  0  0  0  0
  126.9780  130.3310   65.3070 H   0  0  0  0  0  0  0  0  0  0  0  0
  127.7963  129.0084   59.6705 H   0  0  0  0  0  0  0  0  0  0  0  0
  126.4752  128.3925   61.9385 H   0  0  0  0  0  0  0  0  0  0  0  0
  125.8579  129.5906   60.7510 H   0  0  0  0  0  0  0  0  0  0  0  0
  125.2156  127.9131   60.7510 H   0  0  0  0  0  0  0  0  0  0  0  0
  125.7291  126.9035   58.8837 H   0  0  0  0  0  0  0  0  0  0  0  0
  126.1702  128.4238   58.0348 H   0  0  0  0  0  0  0  0  0  0  0  0
  127.3069  127.0329   58.0348 H   0  0  0  0  0  0  0  0  0  0  0  0
  128.6677  124.5126   61.0190 H   0  0  0  0  0  0  0  0  0  0  0  0
  128.5207  123.5547   58.9472 H   0  0  0  0  0  0  0  0  0  0  0  0
  127.1811  124.6279   58.4177 H   0  0  0  0  0  0  0  0  0  0  0  0
  128.8717  125.2349   58.4177 H   0  0  0  0  0  0  0  0  0  0  0  0
  126.5022  124.7919   61.9576 H   0  0  0  0  0  0  0  0  0  0  0  0
  125.8603  125.5804   60.4767 H   0  0  0  0  0  0  0  0  0  0  0  0
  126.2093  123.8183   60.4767 H   0  0  0  0  0  0  0  0  0  0  0  0
  130.4262  128.2892   60.1527 H   0  0  0  0  0  0  0  0  0  0  0  0
  130.7408  126.0796   58.1527 H   0  0  0  0  0  0  0  0  0  0  0  0
  129.2992  127.1353   57.9685 H   0  0  0  0  0  0  0  0  0  0  0  0
  130.9451  127.8548   57.9685 H   0  0  0  0  0  0  0  0  0  0  0  0
  131.2445  126.4550   61.6827 H   0  0  0  0  0  0  0  0  0  0  0  0
  131.2297  125.3328   60.2801 H   0  0  0  0  0  0  0  0  0  0  0  0
  132.3256  126.7561   60.2801 H   0  0  0  0  0  0  0  0  0  0  0  0
  128.2377  126.9763   74.2462 H   0  0  0  0  0  0  0  0  0  0  0  0
  127.2560  125.2089   73.1455 H   0  0  0  0  0  0  0  0  0  0  0  0
  126.6038  126.2422   71.8288 H   0  0  0  0  0  0  0  0  0  0  0  0
  128.3385  125.7758   71.8288 H   0  0  0  0  0  0  0  0  0  0  0  0
  126.4405  128.1660   74.7188 H   0  0  0  0  0  0  0  0  0  0  0  0
  126.6250  129.1112   73.2024 H   0  0  0  0  0  0  0  0  0  0  0  0
  125.6681  127.5910   73.2024 H   0  0  0  0  0  0  0  0  0  0  0  0
  131.4704  128.6315   73.3243 H   0  0  0  0  0  0  0  0  0  0  0  0
  132.4652  126.3530   72.3665 H   0  0  0  0  0  0  0  0  0  0  0  0
  131.0199  126.4333   71.3029 H   0  0  0  0  0  0  0  0  0  0  0  0
  132.2109  127.7780   71.3029 H   0  0  0  0  0  0  0  0  0  0  0  0
  130.9052  127.4466   75.1987 H   0  0  0  0  0  0  0  0  0  0  0  0
  129.9222  126.2494   74.2894 H   0  0  0  0  0  0  0  0  0  0  0  0
  131.7142  126.1255   74.2894 H   0  0  0  0  0  0  0  0  0  0  0  0
  1  2  1  0
  2  3  1  0
  2  4  1  0
  4  5  1  0
  5  6  3  0
  6  7  1  0
  7  8  2  0
  8  9  1  0
  8 10  1  0
 10 11  1  0
 10 12  2  0
 12 13  1  0
 13 14  3  0
 14 15  1  0
 15 16  1  0
 16 17  1  0
 16 18  1  0
 15 19  1  0
 19 20  1  0
 19 21  1  0
 15 22  1  0
 22 23  1  0
 22 24  1  0
 12 25  1  0
 25 26  2  0
 26 27  1  0
 27 28  1  0
 28 29  2  0
  4 30  1  0
 30 31  1  0
 30 32  1  0
  4 33  1  0
 33 34  1  0
 33 35  1  0
 29  7  1  0
 29 25  1  0
  1 36  1  0
  1 37  1  0
  1 38  1  0
  2 39  1  0
  3 40  1  0
  3 41  1  0
  3 42  1  0
  9 43  1  0
  9 44  1  0
 11 45  1  0
 11 46  1  0
 16 47  1  0
 17 48  1  0
 17 49  1  0
 17 50  1  0
 18 51  1  0
 18 52  1  0
 18 53  1  0
 19 54  1  0
 20 55  1  0
 20 56  1  0
 20 57  1  0
 21 58  1  0
 21 59  1  0
 21 60  1  0
 22 61  1  0
 23 62  1  0
 23 63  1  0
 23 64  1  0
 24 65  1  0
 24 66  1  0
 24 67  1  0
 30 68  1  0
 31 69  1  0
 31 70  1  0
 31 71  1  0
 32 72  1  0
 32 73  1  0
 32 74  1  0
 33 75  1  0
 34 76  1  0
 34 77  1  0
 34 78  1  0
 35 79  1  0
 35 80  1  0
 35 81  1  0
M  END
>  <Binding energies>  (1) 
[-3.65]

>  <Ligand effiencies>  (1) 
[-0.09358974358974359]

>  <Interactions>  (1) 
["V-A:ARG:545:CA:4919, V-A:GLU:543:CA:4904, V-B:HIS:456:CD2:9039, V-B:GLU:543:C:9874, V-A:GLU:543:C:4902, V-B:GLU:543:CB:9878, V-B:HIS:456:CB:9036, V-B:ASP:366:CG:8184, V-A:TYR:484:CE2:4346, V-A:GLY:544:CA:4914, V-B:GLU:543:CG:9879, V-A:GLY:544:C:4912, V-A:ASP:366:CG:3213, V-A:HIS:456:CD2:4068, V-B:TYR:484:CE2:9317, V-B:LYS:547:CE:9922, V-A:GLU:543:CD:4908, V-A:TYR:484:CZ:4347, H-B:TYR:484:OH:9319, V-B:HIS:456:CE1:9041, V-B:GLU:543:CA:9876, V-A:HIS:456:CE1:4070, V-B:TYR:484:CZ:9318, V-B:GLY:544:C:9884, H-B:HIS:456:NE2:9042, V-B:GLY:544:CA:9886, V-A:GLU:543:CG:4907, V-B:GLU:543:CD:9880, V-B:HIS:456:CG:9037, H-A:GLU:543:OE1:4909, V-A:GLU:543:CB:4906, V-A:HIS:456:CG:4066, V-A:LYS:547:CE:4950, V-B:TYR:484:CE1:9316, H-A:GLU:543:O:4903"]

$$$$
ZINC2382342195
     RDKit          3D

 81 87  0  0  0  0  0  0  0  0999 V2000
  131.2580  133.0260   56.7090 C   0  0  0  0  0  0  0  0  0  0  0  0
  131.8690  132.2200   57.8620 C   0  0  0  0  0  0  0  0  0  0  0  0
  130.8610  131.6060   58.7200 N   0  0  0  0  0  0  0  0  0  0  0  0
  130.0890  130.5040   58.3150 C   0  0  0  0  0  0  0  0  0  0  0  0
  129.3150  129.8440   59.2230 N   0  0  0  0  0  0  0  0  0  0  0  0
  128.5940  128.7900   58.7620 C   0  0  0  0  0  0  0  0  0  0  0  0
  128.6350  128.3750   57.4270 C   0  0  0  0  0  0  0  0  0  0  0  0
  127.7910  127.2050   56.9270 C   0  0  0  0  0  0  0  0  0  0  0  0
  127.8490  125.9730   57.7320 N   0  0  0  0  0  0  0  0  0  0  0  0
  129.2330  125.5660   58.0320 C   0  0  0  0  0  0  0  0  0  0  0  0
  130.2780  125.9450   56.9440 C   0  0  0  0  0  0  0  0  0  0  0  0
  131.7870  125.8640   57.2870 C   0  0  0  0  0  0  0  0  0  0  0  0
  131.9750  126.4680   58.5610 O   0  0  0  0  0  0  0  0  0  0  0  0
  132.1630  125.6910   59.6850 C   0  0  0  0  0  0  0  0  0  0  0  0
  133.3170  124.9520   59.9860 C   0  0  0  0  0  0  0  0  0  0  0  0
  133.3960  124.2420   61.1880 C   0  0  0  0  0  0  0  0  0  0  0  0
  132.3450  124.2850   62.1080 C   0  0  0  0  0  0  0  0  0  0  0  0
  131.1910  125.0210   61.8240 C   0  0  0  0  0  0  0  0  0  0  0  0
  131.1070  125.6830   60.5900 C   0  0  0  0  0  0  0  0  0  0  0  0
  130.0730  125.1950   62.8730 C   0  0  1  0  0  0  0  0  0  0  0  0
  128.7360  124.8350   62.2030 C   0  0  0  0  0  0  0  0  0  0  0  0
  128.2430  125.6360   61.1670 C   0  0  0  0  0  0  0  0  0  0  0  0
  127.4000  125.1030   60.1980 C   0  0  0  0  0  0  0  0  0  0  0  0
  127.0910  123.7440   60.2260 C   0  0  0  0  0  0  0  0  0  0  0  0
  127.3740  123.0160   61.3880 C   0  0  0  0  0  0  0  0  0  0  0  0
  128.1780  123.5580   62.3980 C   0  0  0  0  0  0  0  0  0  0  0  0
  128.5520  122.7700   63.6440 C   0  0  0  0  0  0  0  0  0  0  0  0
  130.0300  122.9580   64.0330 C   0  0  0  0  0  0  0  0  0  0  0  0
  130.2970  124.4110   64.1190 N   0  0  0  0  0  0  0  0  0  0  0  0
  130.9810  124.8890   65.1990 C   0  0  0  0  0  0  0  0  0  0  0  0
  132.2080  124.8620   65.3080 O   0  0  0  0  0  0  0  0  0  0  0  0
  130.2160  125.4470   66.2840 C   0  0  0  0  0  0  0  0  0  0  0  0
  130.1210  125.0010   67.6060 C   0  0  0  0  0  0  0  0  0  0  0  0
  129.3300  125.7310   68.3640 N   0  0  0  0  0  0  0  0  0  0  0  0
  128.8790  126.7020   67.5340 C   0  0  0  0  0  0  0  0  0  0  0  0
  128.0010  127.7780   67.7530 C   0  0  0  0  0  0  0  0  0  0  0  0
  127.7100  128.6230   66.6800 C   0  0  0  0  0  0  0  0  0  0  0  0
  128.2940  128.3830   65.4370 C   0  0  0  0  0  0  0  0  0  0  0  0
  129.1490  127.3600   65.1780 N   0  0  0  0  0  0  0  0  0  0  0  0
  129.4090  126.5640   66.2370 N   0  0  0  0  0  0  0  0  0  0  0  0
  126.6130  123.1760   59.0630 O   0  0  0  0  0  0  0  0  0  0  0  0
  127.3100  123.4790   57.8420 C   0  0  0  0  0  0  0  0  0  0  0  0
  126.9940  124.8740   57.2360 C   0  0  0  0  0  0  0  0  0  0  0  0
  129.4490  129.1230   56.5690 C   0  0  0  0  0  0  0  0  0  0  0  0
  130.1820  130.1840   56.9980 N   0  0  0  0  0  0  0  0  0  0  0  0
  130.6409  133.8400   57.1173 H   0  0  0  0  0  0  0  0  0  0  0  0
  132.0632  133.4506   56.0914 H   0  0  0  0  0  0  0  0  0  0  0  0
  130.6317  132.3655   56.0914 H   0  0  0  0  0  0  0  0  0  0  0  0
  132.5013  131.4256   57.4389 H   0  0  0  0  0  0  0  0  0  0  0  0
  132.4505  132.9182   58.4820 H   0  0  0  0  0  0  0  0  0  0  0  0
  130.8840  131.8250   59.7060 H   0  0  0  0  0  0  0  0  0  0  0  0
  127.9521  128.2406   59.4664 H   0  0  0  0  0  0  0  0  0  0  0  0
  126.7426  127.5365   56.8951 H   0  0  0  0  0  0  0  0  0  0  0  0
  128.2100  126.9367   55.9460 H   0  0  0  0  0  0  0  0  0  0  0  0
  129.5331  126.0452   58.9756 H   0  0  0  0  0  0  0  0  0  0  0  0
  129.2268  124.4673   58.0841 H   0  0  0  0  0  0  0  0  0  0  0  0
  130.1066  125.2773   56.0868 H   0  0  0  0  0  0  0  0  0  0  0  0
  130.1043  127.0181   56.7758 H   0  0  0  0  0  0  0  0  0  0  0  0
  132.1075  124.8123   57.3203 H   0  0  0  0  0  0  0  0  0  0  0  0
  132.3837  126.3837   56.5229 H   0  0  0  0  0  0  0  0  0  0  0  0
  134.1582  124.9312   59.2776 H   0  0  0  0  0  0  0  0  0  0  0  0
  134.2925  123.6449   61.4112 H   0  0  0  0  0  0  0  0  0  0  0  0
  132.4261  123.7379   63.0588 H   0  0  0  0  0  0  0  0  0  0  0  0
  130.1780  126.2117   60.3304 H   0  0  0  0  0  0  0  0  0  0  0  0
  130.0660  126.2429   63.2074 H   0  0  0  0  0  0  0  0  0  0  0  0
  128.5252  126.6981   61.1186 H   0  0  0  0  0  0  0  0  0  0  0  0
  126.9795  125.7500   59.4140 H   0  0  0  0  0  0  0  0  0  0  0  0
  126.9590  122.0045   61.5091 H   0  0  0  0  0  0  0  0  0  0  0  0
  127.9207  123.1081   64.4790 H   0  0  0  0  0  0  0  0  0  0  0  0
  128.3943  121.7032   63.4273 H   0  0  0  0  0  0  0  0  0  0  0  0
  130.2232  122.4843   65.0068 H   0  0  0  0  0  0  0  0  0  0  0  0
  130.6857  122.4919   63.2828 H   0  0  0  0  0  0  0  0  0  0  0  0
  130.6599  124.1178   67.9797 H   0  0  0  0  0  0  0  0  0  0  0  0
  127.5549  127.9498   68.7437 H   0  0  0  0  0  0  0  0  0  0  0  0
  127.0244  129.4726   66.8146 H   0  0  0  0  0  0  0  0  0  0  0  0
  128.0461  129.0670   64.6120 H   0  0  0  0  0  0  0  0  0  0  0  0
  128.3901  123.4314   58.0446 H   0  0  0  0  0  0  0  0  0  0  0  0
  126.9720  122.7382   57.1024 H   0  0  0  0  0  0  0  0  0  0  0  0
  127.1183  124.8093   56.1450 H   0  0  0  0  0  0  0  0  0  0  0  0
  125.9661  125.1190   57.5417 H   0  0  0  0  0  0  0  0  0  0  0  0
  129.4974  128.8415   55.5067 H   0  0  0  0  0  0  0  0  0  0  0  0
  1  2  1  0
  2  3  1  0
  3  4  1  0
  4  5  2  0
  5  6  1  0
  6  7  2  0
  7  8  1  0
  8  9  1  0
  9 10  1  0
 10 11  1  0
 11 12  1  0
 12 13  1  0
 13 14  1  0
 14 15  2  0
 15 16  1  0
 16 17  2  0
 17 18  1  0
 18 19  2  0
 18 20  1  0
 20 21  1  0
 21 22  2  0
 22 23  1  0
 23 24  2  0
 24 25  1  0
 25 26  2  0
 26 27  1  0
 27 28  1  0
 28 29  1  0
 29 30  1  0
 30 31  2  0
 30 32  1  0
 32 33  2  0
 33 34  1  0
 34 35  2  0
 35 36  1  0
 36 37  2  0
 37 38  1  0
 38 39  2  0
 39 40  1  0
 24 41  1  0
 41 42  1  0
 42 43  1  0
  7 44  1  0
 44 45  2  0
 45  4  1  0
 43  9  1  0
 19 14  1  0
 29 20  1  0
 40 32  1  0
 26 21  1  0
 40 35  1  0
  1 46  1  0
  1 47  1  0
  1 48  1  0
  2 49  1  0
  2 50  1  0
  3 51  1  0
  6 52  1  0
  8 53  1  0
  8 54  1  0
 10 55  1  0
 10 56  1  0
 11 57  1  0
 11 58  1  0
 12 59  1  0
 12 60  1  0
 15 61  1  0
 16 62  1  0
 17 63  1  0
 19 64  1  0
 20 65  1  1
 22 66  1  0
 23 67  1  0
 25 68  1  0
 27 69  1  0
 27 70  1  0
 28 71  1  0
 28 72  1  0
 33 73  1  0
 36 74  1  0
 37 75  1  0
 38 76  1  0
 42 77  1  0
 42 78  1  0
 43 79  1  0
 43 80  1  0
 44 81  1  0
M  END
>  <Binding energies>  (1) 
[-4.52]

>  <Ligand effiencies>  (1) 
[-0.09416666666666666]

>  <Interactions>  (1) 
["V-A:ASP:366:CA:3210, V-B:PRO:540:CA:9855, V-B:GLU:543:CB:9878, V-A:ILE:538:CB:4862, V-B:ALA:541:CB:9864, H-A:TYR:531:OH:4795, V-A:TYR:484:CE2:4346, V-B:GLU:543:CG:9879, V-A:ASP:366:CG:3213, V-A:ILE:538:CG2:4863, V-A:LEU:363:CD1:3189, V-B:TYR:539:CZ:9849, V-A:ILE:538:CA:4860, V-A:TYR:484:CZ:4347, V-A:GLU:543:CD:4908, V-B:GLU:543:CA:9876, V-B:HIS:456:CE1:9041, V-A:HIS:456:CE1:4070, V-A:TYR:531:CZ:4794, V-A:GLU:543:CG:4907, V-A:MET:535:CE:4835, V-B:GLU:543:CD:9880, V-A:ASP:366:CB:3212, V-A:LEU:475:CD2:4259, V-A:PRO:540:N:4884, V-A:PRO:540:CB:4885, V-A:PRO:540:CA:4883, V-B:PRO:540:C:9853, V-A:PRO:540:CD:4887, H-A:TYR:484:OH:4348"]

$$$$
ZINC2382345090
     RDKit          3D

 75 79  0  0  0  0  0  0  0  0999 V2000
  130.0430  127.5520   68.9380 C   0  0  0  0  0  0  0  0  0  0  0  0
  129.8110  126.9210   67.5540 C   0  0  0  0  0  0  0  0  0  0  0  0
  128.3980  127.2400   67.0290 C   0  0  0  0  0  0  0  0  0  0  0  0
  130.0950  125.4050   67.5770 C   0  0  0  0  0  0  0  0  0  0  0  0
  131.2040  125.1090   66.7300 O   0  0  0  0  0  0  0  0  0  0  0  0
  130.9900  124.8980   65.3820 C   0  0  0  0  0  0  0  0  0  0  0  0
  129.7240  124.8350   64.7780 C   0  0  0  0  0  0  0  0  0  0  0  0
  129.6010  124.6040   63.4080 C   0  0  0  0  0  0  0  0  0  0  0  0
  130.7460  124.4380   62.6270 C   0  0  0  0  0  0  0  0  0  0  0  0
  132.0240  124.5230   63.2020 C   0  0  0  0  0  0  0  0  0  0  0  0
  132.1240  124.7370   64.5840 C   0  0  0  0  0  0  0  0  0  0  0  0
  133.2790  124.3250   62.3770 C   0  0  0  0  0  0  0  0  0  0  0  0
  134.3660  124.3490   62.9630 O   0  0  0  0  0  0  0  0  0  0  0  0
  133.1710  124.0960   61.0370 N   0  0  0  0  0  0  0  0  0  0  0  0
  133.1760  122.7080   60.5500 C   0  0  0  0  0  0  0  0  0  0  0  0
  133.5430  125.1240   60.0380 C   0  0  0  0  0  0  0  0  0  0  0  0
  133.0930  124.7510   58.6050 C   0  0  0  0  0  0  0  0  0  0  0  0
  133.7950  124.0410   57.8870 O   0  0  0  0  0  0  0  0  0  0  0  0
  131.8950  125.1740   58.1660 N   0  0  0  0  0  0  0  0  0  0  0  0
  130.9140  126.0070   58.8700 C   0  0  1  0  0  0  0  0  0  0  0  0
  131.5650  127.1280   59.7200 C   0  0  0  0  0  0  0  0  0  0  0  0
  130.5320  128.1220   60.3040 C   0  0  0  0  0  0  0  0  0  0  0  0
  129.7470  128.6560   59.1740 N   0  0  0  0  0  0  0  0  0  0  0  0
  130.1080  129.7480   58.4300 C   0  0  0  0  0  0  0  0  0  0  0  0
  129.3300  130.2920   57.6410 O   0  0  0  0  0  0  0  0  0  0  0  0
  131.4390  130.3170   58.5730 C   0  0  0  0  0  0  0  0  0  0  0  0
  131.8320  131.1490   59.6280 C   0  0  0  0  0  0  0  0  0  0  0  0
  133.5280  131.5070   59.5070 S   0  0  0  0  0  0  0  0  0  0  0  0
  133.5740  130.4800   58.1180 C   0  0  0  0  0  0  0  0  0  0  0  0
  132.4340  129.9310   57.7850 N   0  0  0  0  0  0  0  0  0  0  0  0
  128.9020  127.6130   58.5640 C   0  0  0  0  0  0  0  0  0  0  0  0
  129.8500  126.5840   57.8960 C   0  0  2  0  0  0  0  0  0  0  0  0
  129.1170  125.4820   57.3740 O   0  0  0  0  0  0  0  0  0  0  0  0
  127.8430  125.2210   57.9520 C   0  0  0  0  0  0  0  0  0  0  0  0
  128.0160  124.3080   59.1600 C   0  0  0  0  0  0  0  0  0  0  0  0
  128.1170  122.9240   58.9830 C   0  0  0  0  0  0  0  0  0  0  0  0
  128.2960  122.0870   60.0850 C   0  0  0  0  0  0  0  0  0  0  0  0
  128.3730  122.6260   61.3710 C   0  0  0  0  0  0  0  0  0  0  0  0
  128.2650  124.0050   61.5630 C   0  0  0  0  0  0  0  0  0  0  0  0
  128.1010  124.8400   60.4520 C   0  0  0  0  0  0  0  0  0  0  0  0
  128.3540  124.5170   62.8350 O   0  0  0  0  0  0  0  0  0  0  0  0
  129.7764  126.8268   69.7210 H   0  0  0  0  0  0  0  0  0  0  0  0
  131.1022  127.8302   69.0412 H   0  0  0  0  0  0  0  0  0  0  0  0
  129.4163  128.4501   69.0412 H   0  0  0  0  0  0  0  0  0  0  0  0
  130.5262  127.3702   66.8493 H   0  0  0  0  0  0  0  0  0  0  0  0
  127.7170  127.3937   67.8791 H   0  0  0  0  0  0  0  0  0  0  0  0
  128.4319  128.1531   66.4165 H   0  0  0  0  0  0  0  0  0  0  0  0
  128.0363  126.4009   66.4165 H   0  0  0  0  0  0  0  0  0  0  0  0
  130.3274  125.0924   68.6057 H   0  0  0  0  0  0  0  0  0  0  0  0
  129.2078  124.8634   67.2169 H   0  0  0  0  0  0  0  0  0  0  0  0
  128.8206  124.9691   65.3911 H   0  0  0  0  0  0  0  0  0  0  0  0
  130.6459  124.2385   61.5499 H   0  0  0  0  0  0  0  0  0  0  0  0
  133.1194  124.7790   65.0504 H   0  0  0  0  0  0  0  0  0  0  0  0
  133.1785  122.0187   61.4072 H   0  0  0  0  0  0  0  0  0  0  0  0
  132.2785  122.5305   59.9393 H   0  0  0  0  0  0  0  0  0  0  0  0
  134.0748  122.5369   59.9393 H   0  0  0  0  0  0  0  0  0  0  0  0
  133.0697  126.0763   60.3193 H   0  0  0  0  0  0  0  0  0  0  0  0
  134.6402  125.2024   60.0331 H   0  0  0  0  0  0  0  0  0  0  0  0
  131.6120  124.8720   57.2450 H   0  0  0  0  0  0  0  0  0  0  0  0
  130.4019  125.3391   59.5782 H   0  0  0  0  0  0  0  0  0  0  0  0
  132.1133  126.6629   60.5525 H   0  0  0  0  0  0  0  0  0  0  0  0
  132.2318  127.6985   59.0567 H   0  0  0  0  0  0  0  0  0  0  0  0
  129.8683  127.6027   61.0109 H   0  0  0  0  0  0  0  0  0  0  0  0
  131.0379  128.9354   60.8448 H   0  0  0  0  0  0  0  0  0  0  0  0
  131.1643  131.5219   60.4186 H   0  0  0  0  0  0  0  0  0  0  0  0
  134.4997  130.2999   57.5517 H   0  0  0  0  0  0  0  0  0  0  0  0
  128.2958  127.1194   59.3379 H   0  0  0  0  0  0  0  0  0  0  0  0
  128.2176  128.0507   57.8224 H   0  0  0  0  0  0  0  0  0  0  0  0
  130.3608  127.1416   57.0972 H   0  0  0  0  0  0  0  0  0  0  0  0
  127.3827  126.1681   58.2700 H   0  0  0  0  0  0  0  0  0  0  0  0
  127.1947  124.7319   57.2100 H   0  0  0  0  0  0  0  0  0  0  0  0
  128.0551  122.4944   57.9723 H   0  0  0  0  0  0  0  0  0  0  0  0
  128.3767  120.9995   59.9404 H   0  0  0  0  0  0  0  0  0  0  0  0
  128.5192  121.9620   62.2357 H   0  0  0  0  0  0  0  0  0  0  0  0
  128.0381  125.9287   60.5959 H   0  0  0  0  0  0  0  0  0  0  0  0
  1  2  1  0
  2  3  1  0
  2  4  1  0
  4  5  1  0
  5  6  1  0
  6  7  2  0
  7  8  1  0
  8  9  2  0
  9 10  1  0
 10 11  2  0
 10 12  1  0
 12 13  2  0
 12 14  1  0
 14 15  1  0
 14 16  1  0
 16 17  1  0
 17 18  2  0
 17 19  1  0
 19 20  1  0
 20 21  1  0
 21 22  1  0
 22 23  1  0
 23 24  1  0
 24 25  2  0
 24 26  1  0
 26 27  2  0
 27 28  1  0
 28 29  1  0
 29 30  2  0
 23 31  1  0
 31 32  1  0
 32 33  1  0
 33 34  1  0
 34 35  1  0
 35 36  2  0
 36 37  1  0
 37 38  2  0
 38 39  1  0
 39 40  2  0
 39 41  1  0
 11  6  1  0
 32 20  1  0
 40 35  1  0
 41  8  1  0
 30 26  1  0
  1 42  1  0
  1 43  1  0
  1 44  1  0
  2 45  1  0
  3 46  1  0
  3 47  1  0
  3 48  1  0
  4 49  1  0
  4 50  1  0
  7 51  1  0
  9 52  1  0
 11 53  1  0
 15 54  1  0
 15 55  1  0
 15 56  1  0
 16 57  1  0
 16 58  1  0
 19 59  1  0
 20 60  1  1
 21 61  1  0
 21 62  1  0
 22 63  1  0
 22 64  1  0
 27 65  1  0
 29 66  1  0
 31 67  1  0
 31 68  1  0
 32 69  1  6
 34 70  1  0
 34 71  1  0
 36 72  1  0
 37 73  1  0
 38 74  1  0
 40 75  1  0
M  END
>  <Binding energies>  (1) 
[-5.97]

>  <Ligand effiencies>  (1) 
[-0.13568181818181818]

>  <Interactions>  (1) 
["V-A:ILE:369:CG2:3237, V-A:ASP:366:CA:3210, V-B:PRO:540:CA:9855, V-B:GLU:543:CB:9878, H-A:TYR:531:OH:4795, V-B:TYR:539:CE2:9848, V-A:TYR:484:CE2:4346, V-B:GLU:543:CG:9879, V-B:TYR:539:C:9839, V-A:ASP:366:CG:3213, V-A:LEU:363:CD1:3189, V-A:LEU:363:CB:3187, V-B:TYR:539:CZ:9849, H-A:ASN:370:N:3244, V-A:TYR:531:CE2:4793, H-B:TYR:539:OH:9850, V-A:GLU:543:CD:4908, H-A:GLY:454:N:4050, V-B:PRO:540:N:9856, V-A:HIS:456:CE1:4070, V-B:TYR:539:CD2:9846, V-B:GLU:543:CD:9880, V-A:ASP:366:CB:3212, V-A:GLU:543:CB:4906, V-A:PRO:540:CB:4885, V-A:PRO:540:CA:4883, V-A:LEU:363:CA:3185, V-B:PRO:540:C:9853, H-A:TYR:484:OH:4348"]

$$$$
ZINC2382346632
     RDKit          3D

 76 79  0  0  0  0  0  0  0  0999 V2000
  128.6690  127.3740   68.3490 C   0  0  0  0  0  0  0  0  0  0  0  0
  129.0750  126.7730   66.9970 C   0  0  0  0  0  0  0  0  0  0  0  0
  130.2350  125.7700   67.1100 C   0  0  0  0  0  0  0  0  0  0  0  0
  130.3910  124.8920   65.8510 C   0  0  0  0  0  0  0  0  0  0  0  0
  130.8660  125.6410   64.5770 C   0  0  1  0  0  0  0  0  0  0  0  0
  132.3660  125.3910   64.2760 C   0  0  0  0  0  0  0  0  0  0  0  0
  132.7800  123.9090   64.2670 C   0  0  0  0  0  0  0  0  0  0  0  0
  129.9860  125.2860   63.3460 C   0  0  0  0  0  0  0  0  0  0  0  0
  130.1830  126.1550   62.1730 N   0  0  0  0  0  0  0  0  0  0  0  0
  129.5600  127.3610   62.0450 C   0  0  0  0  0  0  0  0  0  0  0  0
  128.7480  127.8780   62.8120 O   0  0  0  0  0  0  0  0  0  0  0  0
  130.0880  127.8900   60.8150 C   0  0  0  0  0  0  0  0  0  0  0  0
  130.0370  128.9350   59.9900 C   0  0  0  0  0  0  0  0  0  0  0  0
  129.2440  130.1580   60.1180 C   0  0  0  0  0  0  0  0  0  0  0  0
  129.3810  131.1860   61.0510 C   0  0  0  0  0  0  0  0  0  0  0  0
  128.4180  132.1920   60.9260 C   0  0  0  0  0  0  0  0  0  0  0  0
  128.3140  133.7060   62.0710 Br  0  0  0  0  0  0  0  0  0  0  0  0
  127.5490  131.9570   59.8720 C   0  0  0  0  0  0  0  0  0  0  0  0
  127.9250  130.4920   59.0300 S   0  0  0  0  0  0  0  0  0  0  0  0
  130.8960  128.6840   58.9490 N   0  0  0  0  0  0  0  0  0  0  0  0
  131.2070  129.6160   57.8490 C   0  0  0  0  0  0  0  0  0  0  0  0
  131.7250  131.0100   58.2960 C   0  0  2  0  0  0  0  0  0  0  0  0
  131.3850  132.0980   57.2440 C   0  0  0  0  0  0  0  0  0  0  0  0
  130.1600  132.9630   57.5890 C   0  0  0  0  0  0  0  0  0  0  0  0
  133.2400  130.9740   58.6410 C   0  0  0  0  0  0  0  0  0  0  0  0
  133.6470  131.4880   60.0380 C   0  0  0  0  0  0  0  0  0  0  0  0
  132.5090  131.4770   61.0780 C   0  0  0  0  0  0  0  0  0  0  0  0
  133.0200  131.4620   62.5240 C   0  0  0  0  0  0  0  0  0  0  0  0
  131.5080  127.4720   59.0700 C   0  0  0  0  0  0  0  0  0  0  0  0
  132.3280  126.9580   58.3100 O   0  0  0  0  0  0  0  0  0  0  0  0
  130.9810  126.9450   60.3020 C   0  0  0  0  0  0  0  0  0  0  0  0
  131.0280  125.8970   61.1220 C   0  0  0  0  0  0  0  0  0  0  0  0
  131.8210  124.6740   60.9930 C   0  0  0  0  0  0  0  0  0  0  0  0
  131.3720  123.3610   60.8560 C   0  0  0  0  0  0  0  0  0  0  0  0
  132.4030  122.4170   60.7970 C   0  0  0  0  0  0  0  0  0  0  0  0
  132.1130  120.5430   60.6440 Br  0  0  0  0  0  0  0  0  0  0  0  0
  133.6570  123.0040   60.8630 C   0  0  0  0  0  0  0  0  0  0  0  0
  133.5630  124.7290   60.9910 S   0  0  0  0  0  0  0  0  0  0  0  0
  129.0836  126.7603   69.1624 H   0  0  0  0  0  0  0  0  0  0  0  0
  129.0604  128.3990   68.4270 H   0  0  0  0  0  0  0  0  0  0  0  0
  127.5719  127.3935   68.4270 H   0  0  0  0  0  0  0  0  0  0  0  0
  128.2045  126.2554   66.5678 H   0  0  0  0  0  0  0  0  0  0  0  0
  129.4164  127.6007   66.3580 H   0  0  0  0  0  0  0  0  0  0  0  0
  131.1692  126.3293   67.2664 H   0  0  0  0  0  0  0  0  0  0  0  0
  130.0134  125.1012   67.9548 H   0  0  0  0  0  0  0  0  0  0  0  0
  131.1241  124.1031   66.0751 H   0  0  0  0  0  0  0  0  0  0  0  0
  129.3866  124.5065   65.6216 H   0  0  0  0  0  0  0  0  0  0  0  0
  130.7484  126.7155   64.7809 H   0  0  0  0  0  0  0  0  0  0  0  0
  132.5929  125.8165   63.2873 H   0  0  0  0  0  0  0  0  0  0  0  0
  132.9307  125.8671   65.0911 H   0  0  0  0  0  0  0  0  0  0  0  0
  132.8803  123.5500   65.3019 H   0  0  0  0  0  0  0  0  0  0  0  0
  132.0128  123.3171   63.7463 H   0  0  0  0  0  0  0  0  0  0  0  0
  133.7429  123.8004   63.7463 H   0  0  0  0  0  0  0  0  0  0  0  0
  130.2157  124.2523   63.0482 H   0  0  0  0  0  0  0  0  0  0  0  0
  128.9417  125.4255   63.6621 H   0  0  0  0  0  0  0  0  0  0  0  0
  130.1730  131.2035   61.8141 H   0  0  0  0  0  0  0  0  0  0  0  0
  126.7170  132.6240   59.6020 H   0  0  0  0  0  0  0  0  0  0  0  0
  131.9783  129.1521   57.2166 H   0  0  0  0  0  0  0  0  0  0  0  0
  130.2588  129.7954   57.3210 H   0  0  0  0  0  0  0  0  0  0  0  0
  131.1994  131.2833   59.2228 H   0  0  0  0  0  0  0  0  0  0  0  0
  132.2563  132.7619   57.1433 H   0  0  0  0  0  0  0  0  0  0  0  0
  131.1382  131.5654   56.3137 H   0  0  0  0  0  0  0  0  0  0  0  0
  130.0580  133.0350   58.6819 H   0  0  0  0  0  0  0  0  0  0  0  0
  130.2912  133.9698   57.1659 H   0  0  0  0  0  0  0  0  0  0  0  0
  129.2551  132.5025   57.1659 H   0  0  0  0  0  0  0  0  0  0  0  0
  133.5752  129.9295   58.5599 H   0  0  0  0  0  0  0  0  0  0  0  0
  133.7141  131.6664   57.9298 H   0  0  0  0  0  0  0  0  0  0  0  0
  134.4626  130.8528   60.4140 H   0  0  0  0  0  0  0  0  0  0  0  0
  133.9453  132.5391   59.9107 H   0  0  0  0  0  0  0  0  0  0  0  0
  131.8928  132.3766   60.9331 H   0  0  0  0  0  0  0  0  0  0  0  0
  131.9304  130.5543   60.9235 H   0  0  0  0  0  0  0  0  0  0  0  0
  132.1648  131.4871   63.2154 H   0  0  0  0  0  0  0  0  0  0  0  0
  133.6045  130.5463   62.6969 H   0  0  0  0  0  0  0  0  0  0  0  0
  133.6572  132.3418   62.6969 H   0  0  0  0  0  0  0  0  0  0  0  0
  130.3068  123.0925   60.7996 H   0  0  0  0  0  0  0  0  0  0  0  0
  134.6013  122.4404   60.8371 H   0  0  0  0  0  0  0  0  0  0  0  0
  1  2  1  0
  2  3  1  0
  3  4  1  0
  4  5  1  0
  5  6  1  0
  6  7  1  0
  5  8  1  0
  8  9  1  0
  9 10  1  0
 10 11  2  0
 10 12  1  0
 12 13  2  0
 13 14  1  0
 14 15  2  0
 15 16  1  0
 16 17  1  0
 16 18  2  0
 18 19  1  0
 13 20  1  0
 20 21  1  0
 21 22  1  0
 22 23  1  0
 23 24  1  0
 22 25  1  0
 25 26  1  0
 26 27  1  0
 27 28  1  0
 20 29  1  0
 29 30  2  0
 29 31  1  0
 31 32  2  0
 32 33  1  0
 33 34  2  0
 34 35  1  0
 35 36  1  0
 35 37  2  0
 37 38  1  0
 32  9  1  0
 38 33  1  0
 31 12  1  0
 19 14  1  0
  1 39  1  0
  1 40  1  0
  1 41  1  0
  2 42  1  0
  2 43  1  0
  3 44  1  0
  3 45  1  0
  4 46  1  0
  4 47  1  0
  5 48  1  1
  6 49  1  0
  6 50  1  0
  7 51  1  0
  7 52  1  0
  7 53  1  0
  8 54  1  0
  8 55  1  0
 15 56  1  0
 18 57  1  0
 21 58  1  0
 21 59  1  0
 22 60  1  1
 23 61  1  0
 23 62  1  0
 24 63  1  0
 24 64  1  0
 24 65  1  0
 25 66  1  0
 25 67  1  0
 26 68  1  0
 26 69  1  0
 27 70  1  0
 27 71  1  0
 28 72  1  0
 28 73  1  0
 28 74  1  0
 34 75  1  0
 37 76  1  0
M  END
>  <Binding energies>  (1) 
[-7.93]

>  <Ligand effiencies>  (1) 
[-0.20868421052631578]

>  <Interactions>  (1) 
["V-A:ILE:369:CG2:3237, V-A:GLY:454:CA:4049, V-B:GLU:543:CB:9878, H-A:TYR:531:OH:4795, V-A:TYR:484:CE2:4346, V-B:TYR:539:CE2:9848, V-B:LEU:475:CD2:9230, V-B:GLU:543:CG:9879, V-A:ASP:366:CG:3213, V-A:ASN:362:CB:3176, V-A:LEU:363:CD1:3189, V-A:LEU:363:CB:3187, V-A:ALA:541:CB:4892, V-A:GLU:543:CD:4908, V-B:HIS:456:CE1:9041, V-A:HIS:456:CE1:4070, V-A:ILE:369:CD1:3239, V-B:TYR:539:CD2:9846, V-A:TYR:531:CZ:4794, V-B:GLU:543:CD:9880, V-A:TYR:539:C:4867, V-A:ASP:366:CB:3212, V-A:LEU:475:CD2:4259, V-A:ASN:362:C:3172, V-A:ARG:545:CZ:4926, V-A:PRO:540:N:4884, V-A:PRO:540:CB:4885, V-A:PRO:540:CA:4883, V-A:LEU:363:CA:3185, V-A:PRO:540:CD:4887"]

$$$$
ZINC2382358004
     RDKit          3D

 83 87  0  0  0  0  0  0  0  0999 V2000
  130.5060  120.4950   61.5710 C   0  0  0  0  0  0  0  0  0  0  0  0
  130.3290  121.9210   62.0600 C   0  0  0  0  0  0  0  0  0  0  0  0
  129.1490  122.6110   61.7950 C   0  0  0  0  0  0  0  0  0  0  0  0
  128.9760  123.9290   62.2260 C   0  0  0  0  0  0  0  0  0  0  0  0
  127.6320  124.5960   61.9470 C   0  0  0  0  0  0  0  0  0  0  0  0
  130.0100  124.5810   62.9390 C   0  0  0  0  0  0  0  0  0  0  0  0
  129.8500  125.9250   63.3760 N   0  0  0  0  0  0  0  0  0  0  0  0
  129.7320  126.1760   64.7740 C   0  0  0  0  0  0  0  0  0  0  0  0
  130.3940  125.3680   65.7120 C   0  0  0  0  0  0  0  0  0  0  0  0
  130.2710  125.6100   67.0760 C   0  0  0  0  0  0  0  0  0  0  0  0
  129.4800  126.6640   67.5360 C   0  0  0  0  0  0  0  0  0  0  0  0
  129.3500  126.9430   69.0890 B   0  0  0  0  0  0  0  0  0  0  0  0
  129.6140  128.1540   69.6880 O   0  0  0  0  0  0  0  0  0  0  0  0
  129.6610  127.9300   71.0890 C   0  0  0  0  0  0  0  0  0  0  0  0
  131.1530  127.6760   71.4350 C   0  0  0  0  0  0  0  0  0  0  0  0
  129.1570  129.2140   71.7870 C   0  0  0  0  0  0  0  0  0  0  0  0
  128.7170  126.6840   71.2350 C   0  0  0  0  0  0  0  0  0  0  0  0
  129.0790  125.7220   72.3890 C   0  0  0  0  0  0  0  0  0  0  0  0
  127.1960  127.0000   71.2520 C   0  0  0  0  0  0  0  0  0  0  0  0
  128.9630  126.0010   70.0150 O   0  0  0  0  0  0  0  0  0  0  0  0
  128.8060  127.4660   66.6160 C   0  0  0  0  0  0  0  0  0  0  0  0
  128.9270  127.2230   65.2510 C   0  0  0  0  0  0  0  0  0  0  0  0
  129.8100  126.9690   62.4040 C   0  0  0  0  0  0  0  0  0  0  0  0
  128.6110  127.6350   62.1070 C   0  0  0  0  0  0  0  0  0  0  0  0
  128.5720  128.6440   61.1500 C   0  0  0  0  0  0  0  0  0  0  0  0
  129.7280  129.0050   60.4590 C   0  0  0  0  0  0  0  0  0  0  0  0
  129.6790  130.1510   59.3660 B   0  0  0  0  0  0  0  0  0  0  0  0
  130.4460  131.2930   59.4000 O   0  0  0  0  0  0  0  0  0  0  0  0
  129.9450  132.1710   58.4010 C   0  0  0  0  0  0  0  0  0  0  0  0
  128.9410  133.1110   59.1220 C   0  0  0  0  0  0  0  0  0  0  0  0
  131.1390  132.9800   57.8480 C   0  0  0  0  0  0  0  0  0  0  0  0
  129.3050  131.1590   57.3860 C   0  0  0  0  0  0  0  0  0  0  0  0
  128.0660  131.6880   56.6270 C   0  0  0  0  0  0  0  0  0  0  0  0
  130.3000  130.4900   56.3980 C   0  0  0  0  0  0  0  0  0  0  0  0
  128.8650  130.1270   58.2560 O   0  0  0  0  0  0  0  0  0  0  0  0
  130.9250  128.3440   60.7360 C   0  0  0  0  0  0  0  0  0  0  0  0
  130.9650  127.3360   61.6960 C   0  0  0  0  0  0  0  0  0  0  0  0
  131.2080  123.8750   63.2000 C   0  0  0  0  0  0  0  0  0  0  0  0
  132.3950  124.5230   63.9070 C   0  0  0  0  0  0  0  0  0  0  0  0
  131.3540  122.5580   62.7570 C   0  0  0  0  0  0  0  0  0  0  0  0
  130.5899  119.8190   62.4347 H   0  0  0  0  0  0  0  0  0  0  0  0
  129.6369  120.2057   60.9620 H   0  0  0  0  0  0  0  0  0  0  0  0
  131.4195  120.4269   60.9620 H   0  0  0  0  0  0  0  0  0  0  0  0
  128.3419  122.1118   61.2388 H   0  0  0  0  0  0  0  0  0  0  0  0
  127.1393  124.8405   62.8996 H   0  0  0  0  0  0  0  0  0  0  0  0
  127.7933  125.5186   61.3702 H   0  0  0  0  0  0  0  0  0  0  0  0
  126.9947  123.9096   61.3702 H   0  0  0  0  0  0  0  0  0  0  0  0
  131.0184  124.5322   65.3634 H   0  0  0  0  0  0  0  0  0  0  0  0
  130.7996  124.9677   67.7957 H   0  0  0  0  0  0  0  0  0  0  0  0
  131.2775  127.6548   72.5277 H   0  0  0  0  0  0  0  0  0  0  0  0
  131.4686  126.7112   71.0112 H   0  0  0  0  0  0  0  0  0  0  0  0
  131.7700  128.4820   71.0112 H   0  0  0  0  0  0  0  0  0  0  0  0
  129.2086  129.0827   72.8779 H   0  0  0  0  0  0  0  0  0  0  0  0
  129.7880  130.0647   71.4899 H   0  0  0  0  0  0  0  0  0  0  0  0
  128.1159  129.4083   71.4899 H   0  0  0  0  0  0  0  0  0  0  0  0
  128.8921  126.2186   73.3526 H   0  0  0  0  0  0  0  0  0  0  0  0
  128.4607  124.8150   72.3179 H   0  0  0  0  0  0  0  0  0  0  0  0
  130.1419  125.4477   72.3179 H   0  0  0  0  0  0  0  0  0  0  0  0
  126.8481  127.0723   72.2930 H   0  0  0  0  0  0  0  0  0  0  0  0
  127.0142  127.9551   70.7375 H   0  0  0  0  0  0  0  0  0  0  0  0
  126.6488  126.1964   70.7375 H   0  0  0  0  0  0  0  0  0  0  0  0
  128.1756  128.2947   66.9707 H   0  0  0  0  0  0  0  0  0  0  0  0
  128.3848  127.8596   64.5363 H   0  0  0  0  0  0  0  0  0  0  0  0
  127.6893  127.3554   62.6382 H   0  0  0  0  0  0  0  0  0  0  0  0
  127.6240  129.1598   60.9373 H   0  0  0  0  0  0  0  0  0  0  0  0
  129.0554  133.0039   60.2108 H   0  0  0  0  0  0  0  0  0  0  0  0
  129.1420  134.1531   58.8330 H   0  0  0  0  0  0  0  0  0  0  0  0
  127.9143  132.8419   58.8330 H   0  0  0  0  0  0  0  0  0  0  0  0
  131.7298  133.3803   58.6851 H   0  0  0  0  0  0  0  0  0  0  0  0
  131.7725  132.3244   57.2326 H   0  0  0  0  0  0  0  0  0  0  0  0
  130.7650  133.8115   57.2326 H   0  0  0  0  0  0  0  0  0  0  0  0
  127.3040  132.0133   57.3506 H   0  0  0  0  0  0  0  0  0  0  0  0
  128.3590  132.5395   55.9952 H   0  0  0  0  0  0  0  0  0  0  0  0
  127.6536  130.8875   55.9952 H   0  0  0  0  0  0  0  0  0  0  0  0
  131.0821  129.9641   56.9652 H   0  0  0  0  0  0  0  0  0  0  0  0
  129.7600  129.7708   55.7646 H   0  0  0  0  0  0  0  0  0  0  0  0
  130.7623  131.2614   55.7646 H   0  0  0  0  0  0  0  0  0  0  0  0
  131.8413  128.6203   60.1937 H   0  0  0  0  0  0  0  0  0  0  0  0
  131.9146  126.8205   61.9022 H   0  0  0  0  0  0  0  0  0  0  0  0
  132.2585  124.4485   64.9959 H   0  0  0  0  0  0  0  0  0  0  0  0
  133.3214  124.0055   63.6173 H   0  0  0  0  0  0  0  0  0  0  0  0
  132.4607  125.5821   63.6173 H   0  0  0  0  0  0  0  0  0  0  0  0
  132.2898  122.0171   62.9609 H   0  0  0  0  0  0  0  0  0  0  0  0
  1  2  1  0
  2  3  2  0
  3  4  1  0
  4  5  1  0
  4  6  2  0
  6  7  1  0
  7  8  1  0
  8  9  2  0
  9 10  1  0
 10 11  2  0
 11 12  1  0
 12 13  1  0
 13 14  1  0
 14 15  1  0
 14 16  1  0
 14 17  1  0
 17 18  1  0
 17 19  1  0
 17 20  1  0
 11 21  1  0
 21 22  2  0
  7 23  1  0
 23 24  2  0
 24 25  1  0
 25 26  2  0
 26 27  1  0
 27 28  1  0
 28 29  1  0
 29 30  1  0
 29 31  1  0
 29 32  1  0
 32 33  1  0
 32 34  1  0
 32 35  1  0
 26 36  1  0
 36 37  2  0
  6 38  1  0
 38 39  1  0
 38 40  2  0
 40  2  1  0
 22  8  1  0
 37 23  1  0
 20 12  1  0
 35 27  1  0
  1 41  1  0
  1 42  1  0
  1 43  1  0
  3 44  1  0
  5 45  1  0
  5 46  1  0
  5 47  1  0
  9 48  1  0
 10 49  1  0
 15 50  1  0
 15 51  1  0
 15 52  1  0
 16 53  1  0
 16 54  1  0
 16 55  1  0
 18 56  1  0
 18 57  1  0
 18 58  1  0
 19 59  1  0
 19 60  1  0
 19 61  1  0
 21 62  1  0
 22 63  1  0
 24 64  1  0
 25 65  1  0
 30 66  1  0
 30 67  1  0
 30 68  1  0
 31 69  1  0
 31 70  1  0
 31 71  1  0
 33 72  1  0
 33 73  1  0
 33 74  1  0
 34 75  1  0
 34 76  1  0
 34 77  1  0
 36 78  1  0
 37 79  1  0
 39 80  1  0
 39 81  1  0
 39 82  1  0
 40 83  1  0
M  END
>  <Binding energies>  (1) 
[-7.25]

>  <Ligand effiencies>  (1) 
[-0.18125]

>  <Interactions>  (1) 
["V-A:PRO:540:CG:4886, V-B:HIS:456:CD2:9039, V-B:GLU:543:C:9874, V-A:GLU:543:C:4902, V-B:GLU:543:CB:9878, V-B:ALA:541:CB:9864, V-B:GLU:543:CG:9879, V-A:GLY:544:C:4912, V-A:ASP:366:CG:3213, V-A:HIS:456:CD2:4068, V-A:TYR:539:CD1:4873, V-A:GLU:543:CD:4908, V-B:HIS:456:CE1:9041, V-A:HIS:456:CE1:4070, V-B:GLY:544:C:9884, V-B:TYR:539:CD2:9846, V-B:GLY:544:CA:9886, V-A:TYR:531:CZ:4794, V-B:GLU:543:CD:9880, V-B:HIS:456:CG:9037, V-A:MET:535:CE:4835, V-A:TYR:539:C:4867, V-A:LEU:475:CD2:4259, V-A:PRO:540:N:4884, V-A:PRO:540:CB:4885, V-A:PRO:540:CA:4883, V-A:PRO:540:CD:4887"]

$$$$
ZINC2382360345
     RDKit          3D

126129  0  0  0  0  0  0  0  0999 V2000
  128.5430  127.5210   68.8700 C   0  0  0  0  0  0  0  0  0  0  0  0
  128.7180  128.4330   67.9000 C   0  0  0  0  0  0  0  0  0  0  0  0
  127.7820  128.6410   66.7200 C   0  0  0  0  0  0  0  0  0  0  0  0
  128.3300  128.1270   65.3610 C   0  0  2  0  0  0  0  0  0  0  0  0
  127.3780  128.1460   64.1650 C   0  0  0  0  0  0  0  0  0  0  0  0
  126.7900  129.1730   63.5070 C   0  0  0  0  0  0  0  0  0  0  0  0
  125.8520  128.8840   62.3420 C   0  0  0  0  0  0  0  0  0  0  0  0
  126.9020  130.6580   63.8690 C   0  0  0  0  0  0  0  0  0  0  0  0
  126.8280  131.6510   62.6820 C   0  0  2  0  0  0  0  0  0  0  0  0
  125.6130  131.3790   61.7710 C   0  0  0  0  0  0  0  0  0  0  0  0
  128.1560  131.6970   61.8760 C   0  0  0  0  0  0  0  0  0  0  0  0
  128.0500  131.0680   60.4660 C   0  0  2  0  0  0  0  0  0  0  0  0
  127.6920  129.6920   60.5910 O   0  0  0  0  0  0  0  0  0  0  0  0
  127.1070  129.1090   59.4340 C   0  0  0  0  0  0  0  0  0  0  0  0
  129.3600  131.1880   59.6480 C   0  0  1  0  0  0  0  0  0  0  0  0
  129.8830  129.8740   59.3820 O   0  0  0  0  0  0  0  0  0  0  0  0
  131.1330  129.8240   58.7290 C   0  0  1  0  0  0  0  0  0  0  0  0
  132.1430  130.3690   59.4980 O   0  0  0  0  0  0  0  0  0  0  0  0
  131.3800  128.2570   58.5280 C   0  0  0  0  0  0  0  0  0  0  0  0
  132.3770  127.8210   57.9480 O   0  0  0  0  0  0  0  0  0  0  0  0
  130.3200  127.2280   59.1040 C   0  0  0  0  0  0  0  0  0  0  0  0
  129.3610  126.9580   58.3800 O   0  0  0  0  0  0  0  0  0  0  0  0
  130.5490  126.7250   60.3660 N   0  0  0  0  0  0  0  0  0  0  0  0
  129.7330  127.1070   61.5400 C   0  0  0  0  0  0  0  0  0  0  0  0
  128.5650  126.0960   61.6240 C   0  0  0  0  0  0  0  0  0  0  0  0
  129.0710  124.6410   61.7150 C   0  0  0  0  0  0  0  0  0  0  0  0
  130.1800  124.3300   60.6840 C   0  0  0  0  0  0  0  0  0  0  0  0
  131.2740  125.4390   60.6440 C   0  0  1  0  0  0  0  0  0  0  0  0
  132.4620  125.1040   59.7090 C   0  0  0  0  0  0  0  0  0  0  0  0
  133.0870  125.9720   59.0930 O   0  0  0  0  0  0  0  0  0  0  0  0
  132.6980  123.7710   59.6750 O   0  0  0  0  0  0  0  0  0  0  0  0
  133.2420  123.0290   60.7720 C   0  0  2  0  0  0  0  0  0  0  0  0
  132.4450  121.6930   61.0030 C   0  0  2  0  0  0  0  0  0  0  0  0
  132.6750  120.5930   59.9320 C   0  0  0  0  0  0  0  0  0  0  0  0
  131.9670  119.2730   60.2910 C   0  0  0  0  0  0  0  0  0  0  0  0
  130.4720  119.4690   60.6300 C   0  0  1  0  0  0  0  0  0  0  0  0
  129.9130  118.2320   61.0310 O   0  0  0  0  0  0  0  0  0  0  0  0
  130.2460  120.5620   61.7070 C   0  0  2  0  0  0  0  0  0  0  0  0
  128.8430  120.7410   61.9080 O   0  0  0  0  0  0  0  0  0  0  0  0
  128.2330  121.7760   61.1470 C   0  0  0  0  0  0  0  0  0  0  0  0
  130.9370  121.8910   61.3080 C   0  0  0  0  0  0  0  0  0  0  0  0
  133.4420  124.0210   61.9380 C   0  0  0  0  0  0  0  0  0  0  0  0
  134.8290  124.6620   61.9470 C   0  0  0  0  0  0  0  0  0  0  0  0
  132.5020  124.3050   62.8700 C   0  0  0  0  0  0  0  0  0  0  0  0
  132.5360  125.3500   63.9820 C   0  0  2  0  0  0  0  0  0  0  0  0
  133.7580  125.1540   64.9030 C   0  0  0  0  0  0  0  0  0  0  0  0
  131.1830  125.3810   64.7460 C   0  0  1  0  0  0  0  0  0  0  0  0
  131.3830  125.3390   66.1510 O   0  0  0  0  0  0  0  0  0  0  0  0
  130.2710  126.5760   64.3820 C   0  0  0  0  0  0  0  0  0  0  0  0
  129.1620  126.8270   65.4210 C   0  0  0  0  0  0  0  0  0  0  0  0
  128.9360  125.9850   66.2890 O   0  0  0  0  0  0  0  0  0  0  0  0
  131.0780  130.6060   57.3740 C   0  0  2  0  0  0  0  0  0  0  0  0
  132.4040  130.6320   56.5790 C   0  0  0  0  0  0  0  0  0  0  0  0
  130.5220  132.0280   57.5870 C   0  0  0  0  0  0  0  0  0  0  0  0
  129.1740  131.9640   58.3230 C   0  0  2  0  0  0  0  0  0  0  0  0
  128.6540  133.2670   58.5870 O   0  0  0  0  0  0  0  0  0  0  0  0
  128.7380  133.6980   59.9400 C   0  0  0  0  0  0  0  0  0  0  0  0
  129.2739  127.4411   69.6881 H   0  0  0  0  0  0  0  0  0  0  0  0
  127.6687  126.8539   68.8464 H   0  0  0  0  0  0  0  0  0  0  0  0
  129.6062  129.0788   67.9640 H   0  0  0  0  0  0  0  0  0  0  0  0
  126.8405  128.1132   66.9319 H   0  0  0  0  0  0  0  0  0  0  0  0
  127.6529  129.7281   66.6127 H   0  0  0  0  0  0  0  0  0  0  0  0
  129.0414  128.9381   65.1466 H   0  0  0  0  0  0  0  0  0  0  0  0
  127.1266  127.1508   63.7696 H   0  0  0  0  0  0  0  0  0  0  0  0
  124.8683  128.5809   62.7298 H   0  0  0  0  0  0  0  0  0  0  0  0
  125.7408  129.7895   61.7275 H   0  0  0  0  0  0  0  0  0  0  0  0
  126.2697  128.0729   61.7275 H   0  0  0  0  0  0  0  0  0  0  0  0
  126.0821  130.8989   64.5616 H   0  0  0  0  0  0  0  0  0  0  0  0
  127.9058  130.7844   64.3009 H   0  0  0  0  0  0  0  0  0  0  0  0
  126.6824  132.6506   63.1173 H   0  0  0  0  0  0  0  0  0  0  0  0
  124.7266  131.1806   62.3915 H   0  0  0  0  0  0  0  0  0  0  0  0
  125.4268  132.2577   61.1360 H   0  0  0  0  0  0  0  0  0  0  0  0
  125.8192  130.5048   61.1360 H   0  0  0  0  0  0  0  0  0  0  0  0
  128.4588  132.7487   61.7652 H   0  0  0  0  0  0  0  0  0  0  0  0
  128.8936  131.1048   62.4376 H   0  0  0  0  0  0  0  0  0  0  0  0
  127.2774  131.6272   59.9179 H   0  0  0  0  0  0  0  0  0  0  0  0
  126.3582  128.3628   59.7381 H   0  0  0  0  0  0  0  0  0  0  0  0
  126.6211  129.8927   58.8343 H   0  0  0  0  0  0  0  0  0  0  0  0
  127.8890  128.6204   58.8343 H   0  0  0  0  0  0  0  0  0  0  0  0
  130.0723  131.7660   60.2550 H   0  0  0  0  0  0  0  0  0  0  0  0
  132.4630  129.6850   60.0900 H   0  0  0  0  0  0  0  0  0  0  0  0
  130.3413  127.0590   62.4552 H   0  0  0  0  0  0  0  0  0  0  0  0
  129.3567  128.1358   61.4398 H   0  0  0  0  0  0  0  0  0  0  0  0
  127.9637  126.3203   62.5174 H   0  0  0  0  0  0  0  0  0  0  0  0
  127.9636  126.1919   60.7079 H   0  0  0  0  0  0  0  0  0  0  0  0
  129.4715  124.4701   62.7251 H   0  0  0  0  0  0  0  0  0  0  0  0
  128.2199  123.9788   61.4977 H   0  0  0  0  0  0  0  0  0  0  0  0
  130.6542  123.3741   60.9512 H   0  0  0  0  0  0  0  0  0  0  0  0
  129.7125  124.2807   59.6895 H   0  0  0  0  0  0  0  0  0  0  0  0
  131.8001  125.5297   61.6058 H   0  0  0  0  0  0  0  0  0  0  0  0
  134.2456  122.6164   60.5918 H   0  0  0  0  0  0  0  0  0  0  0  0
  132.9022  121.3060   61.9256 H   0  0  0  0  0  0  0  0  0  0  0  0
  132.2873  120.9517   58.9671 H   0  0  0  0  0  0  0  0  0  0  0  0
  133.7554  120.3931   59.8805 H   0  0  0  0  0  0  0  0  0  0  0  0
  132.0463  118.5873   59.4346 H   0  0  0  0  0  0  0  0  0  0  0  0
  132.4593  118.8657   61.1864 H   0  0  0  0  0  0  0  0  0  0  0  0
  129.9613  119.8233   59.7224 H   0  0  0  0  0  0  0  0  0  0  0  0
  128.9990  118.3780   61.2860 H   0  0  0  0  0  0  0  0  0  0  0  0
  130.7020  120.2375   62.6540 H   0  0  0  0  0  0  0  0  0  0  0  0
  127.7939  122.5210   61.8269 H   0  0  0  0  0  0  0  0  0  0  0  0
  128.9904  122.2598   60.5127 H   0  0  0  0  0  0  0  0  0  0  0  0
  127.4429  121.3478   60.5127 H   0  0  0  0  0  0  0  0  0  0  0  0
  130.4430  122.2928   60.4111 H   0  0  0  0  0  0  0  0  0  0  0  0
  130.8502  122.5869   62.1554 H   0  0  0  0  0  0  0  0  0  0  0  0
  135.1563  124.8133   62.9862 H   0  0  0  0  0  0  0  0  0  0  0  0
  135.5414  124.0018   61.4306 H   0  0  0  0  0  0  0  0  0  0  0  0
  134.7878  125.6324   61.4306 H   0  0  0  0  0  0  0  0  0  0  0  0
  131.5861  123.6980   62.8187 H   0  0  0  0  0  0  0  0  0  0  0  0
  132.6626  126.3447   63.5297 H   0  0  0  0  0  0  0  0  0  0  0  0
  133.4371  125.2055   65.9539 H   0  0  0  0  0  0  0  0  0  0  0  0
  134.2119  124.1716   64.7059 H   0  0  0  0  0  0  0  0  0  0  0  0
  134.4963  125.9452   64.7059 H   0  0  0  0  0  0  0  0  0  0  0  0
  130.6541  124.4744   64.4167 H   0  0  0  0  0  0  0  0  0  0  0  0
  131.1860  126.2060   66.5130 H   0  0  0  0  0  0  0  0  0  0  0  0
  130.8922  127.4807   64.3073 H   0  0  0  0  0  0  0  0  0  0  0  0
  129.7789  126.3349   63.4282 H   0  0  0  0  0  0  0  0  0  0  0  0
  130.3864  130.0345   56.7376 H   0  0  0  0  0  0  0  0  0  0  0  0
  133.2515  130.6486   57.2800 H   0  0  0  0  0  0  0  0  0  0  0  0
  132.4695  129.7350   55.9457 H   0  0  0  0  0  0  0  0  0  0  0  0
  132.4343  131.5309   55.9457 H   0  0  0  0  0  0  0  0  0  0  0  0
  131.2362  132.6118   58.1862 H   0  0  0  0  0  0  0  0  0  0  0  0
  130.3749  132.5072   56.6078 H   0  0  0  0  0  0  0  0  0  0  0  0
  128.4490  131.4455   57.6784 H   0  0  0  0  0  0  0  0  0  0  0  0
  128.5709  132.8409   60.6089 H   0  0  0  0  0  0  0  0  0  0  0  0
  129.7356  134.1214   60.1287 H   0  0  0  0  0  0  0  0  0  0  0  0
  127.9724  134.4650   60.1287 H   0  0  0  0  0  0  0  0  0  0  0  0
  1  2  2  0
  2  3  1  0
  3  4  1  0
  4  5  1  0
  5  6  2  0
  6  7  1  0
  6  8  1  0
  8  9  1  0
  9 10  1  0
  9 11  1  0
 11 12  1  0
 12 13  1  0
 13 14  1  0
 12 15  1  0
 15 16  1  0
 16 17  1  0
 17 18  1  1
 17 19  1  0
 19 20  2  0
 19 21  1  0
 21 22  2  0
 21 23  1  0
 23 24  1  0
 24 25  1  0
 25 26  1  0
 26 27  1  0
 27 28  1  0
 28 29  1  0
 29 30  2  0
 29 31  1  0
 31 32  1  0
 32 33  1  0
 33 34  1  0
 34 35  1  0
 35 36  1  0
 36 37  1  0
 36 38  1  0
 38 39  1  0
 39 40  1  0
 38 41  1  0
 32 42  1  0
 42 43  1  0
 42 44  2  0
 44 45  1  0
 45 46  1  0
 45 47  1  0
 47 48  1  0
 47 49  1  0
 49 50  1  0
 50 51  2  0
 17 52  1  0
 52 53  1  0
 52 54  1  0
 54 55  1  0
 55 56  1  0
 56 57  1  0
 50  4  1  0
 55 15  1  0
 28 23  1  0
 41 33  1  0
  1 58  1  0
  1 59  1  0
  2 60  1  0
  3 61  1  0
  3 62  1  0
  4 63  1  6
  5 64  1  0
  7 65  1  0
  7 66  1  0
  7 67  1  0
  8 68  1  0
  8 69  1  0
  9 70  1  1
 10 71  1  0
 10 72  1  0
 10 73  1  0
 11 74  1  0
 11 75  1  0
 12 76  1  6
 14 77  1  0
 14 78  1  0
 14 79  1  0
 15 80  1  1
 18 81  1  0
 24 82  1  0
 24 83  1  0
 25 84  1  0
 25 85  1  0
 26 86  1  0
 26 87  1  0
 27 88  1  0
 27 89  1  0
 28 90  1  1
 32 91  1  6
 33 92  1  1
 34 93  1  0
 34 94  1  0
 35 95  1  0
 35 96  1  0
 36 97  1  6
 37 98  1  0
 38 99  1  1
 40100  1  0
 40101  1  0
 40102  1  0
 41103  1  0
 41104  1  0
 43105  1  0
 43106  1  0
 43107  1  0
 44108  1  0
 45109  1  6
 46110  1  0
 46111  1  0
 46112  1  0
 47113  1  6
 48114  1  0
 49115  1  0
 49116  1  0
 52117  1  6
 53118  1  0
 53119  1  0
 53120  1  0
 54121  1  0
 54122  1  0
 55123  1  6
 57124  1  0
 57125  1  0
 57126  1  0
M  END
>  <Binding energies>  (1) 
[-2.89]

>  <Ligand effiencies>  (1) 
[-0.046612903225806454]

>  <Interactions>  (1) 
["V-A:ILE:369:CG2:3237, V-B:PRO:540:CA:9855, H-A:GLU:543:OE2:4910, V-B:ASP:366:CG:8184, V-B:ALA:541:CB:9864, H-A:TYR:531:OH:4795, V-B:TYR:539:CE2:9848, V-B:GLU:543:CG:9879, V-B:TYR:539:C:9839, V-A:ASP:366:CG:3213, V-A:LEU:363:CD1:3189, V-A:TYR:539:CD1:4873, V-A:TYR:531:CE2:4793, H-B:ALA:541:N:9863, V-A:GLU:543:CD:4908, V-B:HIS:456:CE1:9041, V-B:PRO:540:N:9856, V-A:ILE:369:CD1:3239, V-B:TYR:539:CD2:9846, V-A:TYR:531:CZ:4794, V-A:GLU:543:CG:4907, V-A:SER:385:CB:3409, V-B:GLU:543:CD:9880, V-A:TYR:539:C:4867, V-A:ASP:366:CB:3212, V-A:ARG:545:CD:4923, V-A:LEU:475:CD2:4259, V-A:ARG:545:CZ:4926, V-A:GLU:543:CB:4906, H-A:HIS:383:HE2:3395, V-A:PRO:540:N:4884, V-A:GLY:453:CA:4044, V-A:PRO:540:CA:4883, H-B:TYR:539:O:9840, V-B:PRO:540:C:9853, H-A:ASP:366:OD2:3215, V-B:ALA:541:CA:9862, H-A:TYR:484:OH:4348, H-B:PRO:540:O:9854"]

$$$$
ZINC2382361061
     RDKit          3D

126129  0  0  0  0  0  0  0  0999 V2000
  134.0250  125.0960   67.4490 C   0  0  0  0  0  0  0  0  0  0  0  0
  133.2660  125.4380   66.3960 C   0  0  0  0  0  0  0  0  0  0  0  0
  131.7840  125.7630   66.4650 C   0  0  0  0  0  0  0  0  0  0  0  0
  130.9960  125.3550   65.1970 C   0  0  2  0  0  0  0  0  0  0  0  0
  131.6670  125.7950   63.8960 C   0  0  0  0  0  0  0  0  0  0  0  0
  132.4950  125.0760   63.1000 C   0  0  0  0  0  0  0  0  0  0  0  0
  133.1800  125.7300   61.9080 C   0  0  0  0  0  0  0  0  0  0  0  0
  132.8340  123.5990   63.3290 C   0  0  0  0  0  0  0  0  0  0  0  0
  132.0580  122.5620   62.4790 C   0  0  2  0  0  0  0  0  0  0  0  0
  131.8730  122.9820   61.0060 C   0  0  0  0  0  0  0  0  0  0  0  0
  130.7290  122.0770   63.1360 C   0  0  0  0  0  0  0  0  0  0  0  0
  129.5190  123.0530   63.2970 C   0  0  2  0  0  0  0  0  0  0  0  0
  128.7340  122.7130   64.4420 O   0  0  0  0  0  0  0  0  0  0  0  0
  129.3950  121.9000   65.4060 C   0  0  0  0  0  0  0  0  0  0  0  0
  128.5590  123.2380   62.0810 C   0  0  1  0  0  0  0  0  0  0  0  0
  128.6460  124.6310   61.7130 O   0  0  0  0  0  0  0  0  0  0  0  0
  127.8440  125.0530   60.6350 C   0  0  1  0  0  0  0  0  0  0  0  0
  126.4990  124.8060   60.8330 O   0  0  0  0  0  0  0  0  0  0  0  0
  128.0280  126.6400   60.6160 C   0  0  0  0  0  0  0  0  0  0  0  0
  128.4720  127.2720   59.6570 O   0  0  0  0  0  0  0  0  0  0  0  0
  127.5780  127.4540   61.8970 C   0  0  0  0  0  0  0  0  0  0  0  0
  126.5050  127.1420   62.4170 O   0  0  0  0  0  0  0  0  0  0  0  0
  128.3800  128.4940   62.2940 N   0  0  0  0  0  0  0  0  0  0  0  0
  129.8150  128.6180   61.9370 C   0  0  0  0  0  0  0  0  0  0  0  0
  129.9890  129.9480   61.1740 C   0  0  0  0  0  0  0  0  0  0  0  0
  129.3920  131.1700   61.9090 C   0  0  0  0  0  0  0  0  0  0  0  0
  128.7560  130.7940   63.2610 C   0  0  0  0  0  0  0  0  0  0  0  0
  127.7890  129.5770   63.1490 C   0  0  2  0  0  0  0  0  0  0  0  0
  127.3670  129.1110   64.5600 C   0  0  0  0  0  0  0  0  0  0  0  0
  126.3680  129.5790   65.1080 O   0  0  0  0  0  0  0  0  0  0  0  0
  128.2120  128.1970   65.0920 O   0  0  0  0  0  0  0  0  0  0  0  0
  128.0020  127.6360   66.3900 C   0  0  2  0  0  0  0  0  0  0  0  0
  128.0850  128.7950   67.4340 C   0  0  2  0  0  0  0  0  0  0  0  0
  128.3860  130.1770   66.8090 C   0  0  0  0  0  0  0  0  0  0  0  0
  129.0290  128.4920   68.6440 C   0  0  2  0  0  0  0  0  0  0  0  0
  130.2830  128.0610   68.1340 O   0  0  0  0  0  0  0  0  0  0  0  0
  128.4900  127.4920   69.6900 C   0  0  0  0  0  0  0  0  0  0  0  0
  127.1380  126.8810   69.3320 C   0  0  0  0  0  0  0  0  0  0  0  0
  129.1430  127.1990   70.8420 C   0  0  0  0  0  0  0  0  0  0  0  0
  128.7170  126.2300   71.9480 C   0  0  2  0  0  0  0  0  0  0  0  0
  127.3100  126.6040   72.4780 C   0  0  0  0  0  0  0  0  0  0  0  0
  127.2880  127.9150   73.2980 C   0  0  0  0  0  0  0  0  0  0  0  0
  128.3170  127.8830   74.4520 C   0  0  2  0  0  0  0  0  0  0  0  0
  128.2820  129.0730   75.2160 O   0  0  0  0  0  0  0  0  0  0  0  0
  129.7490  127.5310   73.9740 C   0  0  2  0  0  0  0  0  0  0  0  0
  130.3070  128.6400   73.2670 O   0  0  0  0  0  0  0  0  0  0  0  0
  129.3840  129.6620   72.9110 C   0  0  0  0  0  0  0  0  0  0  0  0
  129.7240  126.2250   73.1300 C   0  0  0  0  0  0  0  0  0  0  0  0
  129.0860  126.5330   66.5260 C   0  0  0  0  0  0  0  0  0  0  0  0
  129.5360  125.8340   65.2370 C   0  0  0  0  0  0  0  0  0  0  0  0
  128.7870  125.6960   64.2670 O   0  0  0  0  0  0  0  0  0  0  0  0
  128.2940  124.2850   59.3530 C   0  0  1  0  0  0  0  0  0  0  0  0
  129.7320  124.5910   58.8570 C   0  0  0  0  0  0  0  0  0  0  0  0
  128.1290  122.7660   59.6030 C   0  0  0  0  0  0  0  0  0  0  0  0
  128.8940  122.3210   60.8680 C   0  0  2  0  0  0  0  0  0  0  0  0
  128.5720  120.9630   61.1660 O   0  0  0  0  0  0  0  0  0  0  0  0
  129.6800  120.0970   61.3780 C   0  0  0  0  0  0  0  0  0  0  0  0
  135.0936  124.8763   67.3085 H   0  0  0  0  0  0  0  0  0  0  0  0
  133.5783  125.0355   68.4524 H   0  0  0  0  0  0  0  0  0  0  0  0
  133.7531  125.4864   65.4109 H   0  0  0  0  0  0  0  0  0  0  0  0
  131.3524  125.2333   67.3271 H   0  0  0  0  0  0  0  0  0  0  0  0
  131.6994  126.8558   66.5573 H   0  0  0  0  0  0  0  0  0  0  0  0
  130.9982  124.2550   65.2044 H   0  0  0  0  0  0  0  0  0  0  0  0
  131.4512  126.8216   63.5652 H   0  0  0  0  0  0  0  0  0  0  0  0
  133.9323  126.4482   62.2661 H   0  0  0  0  0  0  0  0  0  0  0  0
  133.6715  124.9575   61.2983 H   0  0  0  0  0  0  0  0  0  0  0  0
  132.4311  126.2568   61.2983 H   0  0  0  0  0  0  0  0  0  0  0  0
  133.9054  123.4672   63.1174 H   0  0  0  0  0  0  0  0  0  0  0  0
  132.5398  123.3951   64.3691 H   0  0  0  0  0  0  0  0  0  0  0  0
  132.7161  121.6808   62.4579 H   0  0  0  0  0  0  0  0  0  0  0  0
  131.4299  123.9880   60.9644 H   0  0  0  0  0  0  0  0  0  0  0  0
  132.8505  122.9908   60.5017 H   0  0  0  0  0  0  0  0  0  0  0  0
  131.2067  122.2667   60.5017 H   0  0  0  0  0  0  0  0  0  0  0  0
  130.3713  121.2290   62.5336 H   0  0  0  0  0  0  0  0  0  0  0  0
  131.0263  121.8794   64.1765 H   0  0  0  0  0  0  0  0  0  0  0  0
  130.0277  124.0225   63.4029 H   0  0  0  0  0  0  0  0  0  0  0  0
  129.1223  122.2355   66.4175 H   0  0  0  0  0  0  0  0  0  0  0  0
  129.0898  120.8516   65.2726 H   0  0  0  0  0  0  0  0  0  0  0  0
  130.4836  121.9848   65.2726 H   0  0  0  0  0  0  0  0  0  0  0  0
  127.5400  122.9433   62.3723 H   0  0  0  0  0  0  0  0  0  0  0  0
  126.2680  125.1230   61.7090 H   0  0  0  0  0  0  0  0  0  0  0  0
  130.4298  128.6249   62.8491 H   0  0  0  0  0  0  0  0  0  0  0  0
  130.1345  127.7692   61.3146 H   0  0  0  0  0  0  0  0  0  0  0  0
  131.0644  130.1242   61.0245 H   0  0  0  0  0  0  0  0  0  0  0  0
  129.4437  129.8468   60.2241 H   0  0  0  0  0  0  0  0  0  0  0  0
  130.1947  131.9005   62.0880 H   0  0  0  0  0  0  0  0  0  0  0  0
  128.5987  131.5879   61.2718 H   0  0  0  0  0  0  0  0  0  0  0  0
  129.5583  130.5427   63.9703 H   0  0  0  0  0  0  0  0  0  0  0  0
  128.1674  131.6574   63.6046 H   0  0  0  0  0  0  0  0  0  0  0  0
  126.8664  129.8786   62.6314 H   0  0  0  0  0  0  0  0  0  0  0  0
  127.0187  127.1720   66.5564 H   0  0  0  0  0  0  0  0  0  0  0  0
  127.0655  128.8524   67.8432 H   0  0  0  0  0  0  0  0  0  0  0  0
  128.5466  130.9143   67.6094 H   0  0  0  0  0  0  0  0  0  0  0  0
  129.2903  130.1088   66.1865 H   0  0  0  0  0  0  0  0  0  0  0  0
  127.5352  130.4911   66.1865 H   0  0  0  0  0  0  0  0  0  0  0  0
  129.1157  129.4319   69.2089 H   0  0  0  0  0  0  0  0  0  0  0  0
  130.4050  128.4470   67.2640 H   0  0  0  0  0  0  0  0  0  0  0  0
  126.5915  126.6340   70.2542 H   0  0  0  0  0  0  0  0  0  0  0  0
  126.5542  127.6027   68.7419 H   0  0  0  0  0  0  0  0  0  0  0  0
  127.2939  125.9659   68.7419 H   0  0  0  0  0  0  0  0  0  0  0  0
  130.0972  127.7226   71.0015 H   0  0  0  0  0  0  0  0  0  0  0  0
  128.6954  125.2223   71.5075 H   0  0  0  0  0  0  0  0  0  0  0  0
  126.6335  126.7197   71.6183 H   0  0  0  0  0  0  0  0  0  0  0  0
  126.9929  125.7951   73.1526 H   0  0  0  0  0  0  0  0  0  0  0  0
  127.5257  128.7570   72.6312 H   0  0  0  0  0  0  0  0  0  0  0  0
  126.2851  128.0303   73.7349 H   0  0  0  0  0  0  0  0  0  0  0  0
  128.0146  127.0613   75.1179 H   0  0  0  0  0  0  0  0  0  0  0  0
  127.7400  129.7170   74.7550 H   0  0  0  0  0  0  0  0  0  0  0  0
  130.4005  127.3370   74.8389 H   0  0  0  0  0  0  0  0  0  0  0  0
  128.9721  130.1181   73.8233 H   0  0  0  0  0  0  0  0  0  0  0  0
  129.8996  130.4311   72.3172 H   0  0  0  0  0  0  0  0  0  0  0  0
  128.5665  129.2272   72.3172 H   0  0  0  0  0  0  0  0  0  0  0  0
  130.7318  126.0639   72.7197 H   0  0  0  0  0  0  0  0  0  0  0  0
  129.3978  125.4243   73.8100 H   0  0  0  0  0  0  0  0  0  0  0  0
  129.9748  126.9958   66.9798 H   0  0  0  0  0  0  0  0  0  0  0  0
  128.6145  125.7429   67.1289 H   0  0  0  0  0  0  0  0  0  0  0  0
  127.6431  124.6421   58.5413 H   0  0  0  0  0  0  0  0  0  0  0  0
  130.3961  124.7323   59.7225 H   0  0  0  0  0  0  0  0  0  0  0  0
  130.0966  123.7503   58.2485 H   0  0  0  0  0  0  0  0  0  0  0  0
  129.7228  125.5073   58.2485 H   0  0  0  0  0  0  0  0  0  0  0  0
  127.0606  122.5376   59.7311 H   0  0  0  0  0  0  0  0  0  0  0  0
  128.5410  122.2244   58.7387 H   0  0  0  0  0  0  0  0  0  0  0  0
  129.9733  122.4068   60.6738 H   0  0  0  0  0  0  0  0  0  0  0  0
  129.8439  119.9689   62.4582 H   0  0  0  0  0  0  0  0  0  0  0  0
  129.4735  119.1185   60.9199 H   0  0  0  0  0  0  0  0  0  0  0  0
  130.5797  120.5338   60.9199 H   0  0  0  0  0  0  0  0  0  0  0  0
  1  2  2  0
  2  3  1  0
  3  4  1  0
  4  5  1  0
  5  6  2  0
  6  7  1  0
  6  8  1  0
  8  9  1  0
  9 10  1  0
  9 11  1  0
 11 12  1  0
 12 13  1  0
 13 14  1  0
 12 15  1  0
 15 16  1  0
 16 17  1  0
 17 18  1  1
 17 19  1  0
 19 20  2  0
 19 21  1  0
 21 22  2  0
 21 23  1  0
 23 24  1  0
 24 25  1  0
 25 26  1  0
 26 27  1  0
 27 28  1  0
 28 29  1  0
 29 30  2  0
 29 31  1  0
 31 32  1  0
 32 33  1  0
 33 34  1  0
 33 35  1  0
 35 36  1  0
 35 37  1  0
 37 38  1  0
 37 39  2  0
 39 40  1  0
 40 41  1  0
 41 42  1  0
 42 43  1  0
 43 44  1  0
 43 45  1  0
 45 46  1  0
 46 47  1  0
 45 48  1  0
 32 49  1  0
 49 50  1  0
 50 51  2  0
 17 52  1  0
 52 53  1  0
 52 54  1  0
 54 55  1  0
 55 56  1  0
 56 57  1  0
 50  4  1  0
 55 15  1  0
 28 23  1  0
 48 40  1  0
  1 58  1  0
  1 59  1  0
  2 60  1  0
  3 61  1  0
  3 62  1  0
  4 63  1  6
  5 64  1  0
  7 65  1  0
  7 66  1  0
  7 67  1  0
  8 68  1  0
  8 69  1  0
  9 70  1  6
 10 71  1  0
 10 72  1  0
 10 73  1  0
 11 74  1  0
 11 75  1  0
 12 76  1  1
 14 77  1  0
 14 78  1  0
 14 79  1  0
 15 80  1  1
 18 81  1  0
 24 82  1  0
 24 83  1  0
 25 84  1  0
 25 85  1  0
 26 86  1  0
 26 87  1  0
 27 88  1  0
 27 89  1  0
 28 90  1  6
 32 91  1  6
 33 92  1  1
 34 93  1  0
 34 94  1  0
 34 95  1  0
 35 96  1  1
 36 97  1  0
 38 98  1  0
 38 99  1  0
 38100  1  0
 39101  1  0
 40102  1  6
 41103  1  0
 41104  1  0
 42105  1  0
 42106  1  0
 43107  1  1
 44108  1  0
 45109  1  1
 47110  1  0
 47111  1  0
 47112  1  0
 48113  1  0
 48114  1  0
 49115  1  0
 49116  1  0
 52117  1  6
 53118  1  0
 53119  1  0
 53120  1  0
 54121  1  0
 54122  1  0
 55123  1  6
 57124  1  0
 57125  1  0
 57126  1  0
M  END
>  <Binding energies>  (1) 
[-2.93]

>  <Ligand effiencies>  (1) 
[-0.04725806451612904]

>  <Interactions>  (1) 
["V-B:PRO:540:CA:9855, V-A:GLU:543:CA:4904, V-B:GLU:543:C:9874, H-A:GLU:543:OE2:4910, V-B:HIS:456:CD2:9039, V-B:GLU:543:CB:9878, V-B:ALA:541:CB:9864, V-B:TYR:539:CE2:9848, V-A:TYR:484:CE2:4346, V-B:GLU:543:CG:9879, V-B:TYR:539:C:9839, V-A:ASP:366:CG:3213, V-A:HIS:456:CD2:4068, V-B:TYR:484:CE2:9317, V-B:TYR:539:CZ:9849, H-B:GLU:543:OE1:9881, V-B:LYS:547:CE:9922, H-B:ALA:541:N:9863, V-A:LEU:475:CD1:4258, V-A:GLU:543:CD:4908, V-A:TYR:484:CZ:4347, V-A:ILE:455:C:4052, H-B:TYR:484:OH:9319, H-B:ASP:366:OD1:8185, V-A:ARG:545:CG:4922, V-B:HIS:456:CE1:9041, V-B:GLU:543:CA:9876, V-B:PRO:540:N:9856, V-A:TYR:484:CD2:4344, V-A:HIS:456:CE1:4070, V-B:TYR:484:CZ:9318, V-B:GLY:544:C:9884, V-B:GLY:544:CA:9886, V-A:GLU:543:CG:4907, V-B:TYR:539:CD2:9846, V-B:GLU:543:CD:9880, V-B:HIS:456:CG:9037, V-A:ARG:545:CD:4923, H-A:LYS:547:NZ:4951, V-A:ARG:545:CB:4921, V-A:ARG:545:CZ:4926, H-A:GLU:543:OE1:4909, V-A:LEU:475:CD2:4259, H-B:ARG:545:NH2:9900, V-A:GLU:543:CB:4906, V-B:PRO:540:C:9853"]

$$$$
ZINC2382366830
     RDKit          3D

 78 83  0  0  0  0  0  0  0  0999 V2000
  126.1930  129.2180   64.2500 C   0  0  0  0  0  0  0  0  0  0  0  0
  127.3930  129.6250   63.4130 C   0  0  0  0  0  0  0  0  0  0  0  0
  127.7360  130.9700   63.2860 C   0  0  0  0  0  0  0  0  0  0  0  0
  128.8330  131.3590   62.5120 C   0  0  0  0  0  0  0  0  0  0  0  0
  129.1500  132.8470   62.3980 C   0  0  0  0  0  0  0  0  0  0  0  0
  129.5900  130.3780   61.8390 C   0  0  0  0  0  0  0  0  0  0  0  0
  130.7070  130.7650   61.0670 N   0  0  0  0  0  0  0  0  0  0  0  0
  131.9550  131.1170   61.5220 C   0  0  0  0  0  0  0  0  0  0  0  0
  132.6890  131.4350   60.3960 C   0  0  0  0  0  0  0  0  0  0  0  0
  131.8030  131.2540   59.3310 C   0  0  0  0  0  0  0  0  0  0  0  0
  130.6160  130.8570   59.7280 N   0  0  0  0  0  0  0  0  0  0  0  0
  129.2370  129.0150   61.9540 C   0  0  0  0  0  0  0  0  0  0  0  0
  130.0400  127.9010   61.2810 C   0  0  0  0  0  0  0  0  0  0  0  0
  130.1540  128.0440   59.7470 N   0  0  1  0  0  0  0  0  0  0  0  0
  131.3670  127.3300   59.1170 C   0  0  0  0  0  0  0  0  0  0  0  0
  130.8130  126.1160   58.3350 C   0  0  1  0  0  0  0  0  0  0  0  0
  131.5650  124.7570   58.5320 C   0  0  0  0  0  0  0  0  0  0  0  0
  133.0850  124.7140   58.2590 C   0  0  0  0  0  0  0  0  0  0  0  0
  133.5490  125.1990   57.2320 O   0  0  0  0  0  0  0  0  0  0  0  0
  133.9070  124.1320   59.1530 N   0  0  0  0  0  0  0  0  0  0  0  0
  133.5640  123.5690   60.4640 C   0  0  0  0  0  0  0  0  0  0  0  0
  133.9750  124.4810   61.6450 C   0  0  0  0  0  0  0  0  0  0  0  0
  132.8850  124.7270   62.6030 N   0  0  0  0  0  0  0  0  0  0  0  0
  132.1880  126.0040   62.4150 C   0  0  0  0  0  0  0  0  0  0  0  0
  132.5860  123.8180   63.5710 C   0  0  0  0  0  0  0  0  0  0  0  0
  133.4420  123.5010   64.4030 O   0  0  0  0  0  0  0  0  0  0  0  0
  131.2380  123.2380   63.6420 C   0  0  0  0  0  0  0  0  0  0  0  0
  130.6100  123.2720   64.8530 C   0  0  0  0  0  0  0  0  0  0  0  0
  129.2390  122.8300   65.0050 C   0  0  0  0  0  0  0  0  0  0  0  0
  128.5960  122.4840   63.8800 C   0  0  0  0  0  0  0  0  0  0  0  0
  129.1430  122.4930   62.6190 N   0  0  0  0  0  0  0  0  0  0  0  0
  130.4960  122.7510   62.4440 C   0  0  0  0  0  0  0  0  0  0  0  0
  131.0270  122.6270   61.3360 O   0  0  0  0  0  0  0  0  0  0  0  0
  128.3280  122.1780   61.4220 C   0  0  0  0  0  0  0  0  0  0  0  0
  128.2320  123.3370   60.4400 C   0  0  0  0  0  0  0  0  0  0  0  0
  129.2480  124.0490   59.8200 C   0  0  0  0  0  0  0  0  0  0  0  0
  128.6250  125.0770   59.1600 N   0  0  0  0  0  0  0  0  0  0  0  0
  127.2990  124.9620   59.2950 N   0  0  0  0  0  0  0  0  0  0  0  0
  127.0670  123.8600   60.0970 N   0  0  0  0  0  0  0  0  0  0  0  0
  129.2630  126.1720   58.4070 C   0  0  1  0  0  0  0  0  0  0  0  0
  128.9350  127.5890   58.9200 C   0  0  0  0  0  0  0  0  0  0  0  0
  128.1460  128.6580   62.7490 C   0  0  0  0  0  0  0  0  0  0  0  0
  126.4446  129.3033   65.3174 H   0  0  0  0  0  0  0  0  0  0  0  0
  125.3441  129.8785   64.0194 H   0  0  0  0  0  0  0  0  0  0  0  0
  125.9211  128.1774   64.0194 H   0  0  0  0  0  0  0  0  0  0  0  0
  127.1361  131.7347   63.8012 H   0  0  0  0  0  0  0  0  0  0  0  0
  129.2423  133.2804   63.4048 H   0  0  0  0  0  0  0  0  0  0  0  0
  130.0965  132.9796   61.8535 H   0  0  0  0  0  0  0  0  0  0  0  0
  128.3397  133.3539   61.8535 H   0  0  0  0  0  0  0  0  0  0  0  0
  132.2984  131.1406   62.5668 H   0  0  0  0  0  0  0  0  0  0  0  0
  133.7391  131.7591   60.3483 H   0  0  0  0  0  0  0  0  0  0  0  0
  132.0700  131.4250   58.2777 H   0  0  0  0  0  0  0  0  0  0  0  0
  131.0552  127.9027   61.7045 H   0  0  0  0  0  0  0  0  0  0  0  0
  129.5012  126.9613   61.4728 H   0  0  0  0  0  0  0  0  0  0  0  0
  130.2650  129.0350   59.5780 H   0  0  0  0  0  0  0  0  0  0  0  0
  131.8952  128.0116   58.4340 H   0  0  0  0  0  0  0  0  0  0  0  0
  132.0819  127.0097   59.8892 H   0  0  0  0  0  0  0  0  0  0  0  0
  131.0648  126.1902   57.2668 H   0  0  0  0  0  0  0  0  0  0  0  0
  131.4131  124.4494   59.5772 H   0  0  0  0  0  0  0  0  0  0  0  0
  131.1333  124.0948   57.7670 H   0  0  0  0  0  0  0  0  0  0  0  0
  134.8890  124.1020   58.9190 H   0  0  0  0  0  0  0  0  0  0  0  0
  132.4757  123.4140   60.5041 H   0  0  0  0  0  0  0  0  0  0  0  0
  134.1196  122.6256   60.5704 H   0  0  0  0  0  0  0  0  0  0  0  0
  134.8082  124.0028   62.1807 H   0  0  0  0  0  0  0  0  0  0  0  0
  134.2576  125.4550   61.2189 H   0  0  0  0  0  0  0  0  0  0  0  0
  131.9501  126.4399   63.3965 H   0  0  0  0  0  0  0  0  0  0  0  0
  132.8340  126.6952   61.8537 H   0  0  0  0  0  0  0  0  0  0  0  0
  131.2573  125.8346   61.8537 H   0  0  0  0  0  0  0  0  0  0  0  0
  131.1566  123.6430   65.7326 H   0  0  0  0  0  0  0  0  0  0  0  0
  128.7516  122.7808   65.9899 H   0  0  0  0  0  0  0  0  0  0  0  0
  127.5467  122.1676   63.9740 H   0  0  0  0  0  0  0  0  0  0  0  0
  128.7821  121.3192   60.9060 H   0  0  0  0  0  0  0  0  0  0  0  0
  127.3077  121.9588   61.7697 H   0  0  0  0  0  0  0  0  0  0  0  0
  130.3264  123.8343   59.8511 H   0  0  0  0  0  0  0  0  0  0  0  0
  128.8234  125.9977   57.4138 H   0  0  0  0  0  0  0  0  0  0  0  0
  128.7729  128.2723   58.0734 H   0  0  0  0  0  0  0  0  0  0  0  0
  128.0174  127.5916   59.5266 H   0  0  0  0  0  0  0  0  0  0  0  0
  127.8764  127.5966   62.8530 H   0  0  0  0  0  0  0  0  0  0  0  0
  1  2  1  0
  2  3  2  0
  3  4  1  0
  4  5  1  0
  4  6  2  0
  6  7  1  0
  7  8  1  0
  8  9  2  0
  9 10  1  0
 10 11  2  0
  6 12  1  0
 12 13  1  0
 13 14  1  0
 14 15  1  0
 15 16  1  0
 16 17  1  0
 17 18  1  0
 18 19  2  0
 18 20  1  0
 20 21  1  0
 21 22  1  0
 22 23  1  0
 23 24  1  0
 23 25  1  0
 25 26  2  0
 25 27  1  0
 27 28  2  0
 28 29  1  0
 29 30  2  0
 30 31  1  0
 31 32  1  0
 32 33  2  0
 31 34  1  0
 34 35  1  0
 35 36  2  0
 36 37  1  0
 37 38  1  0
 38 39  2  0
 37 40  1  0
 40 41  1  0
 12 42  2  0
 42  2  1  0
 11  7  1  0
 41 14  1  0
 40 16  1  0
 32 27  1  0
 39 35  1  0
  1 43  1  0
  1 44  1  0
  1 45  1  0
  3 46  1  0
  5 47  1  0
  5 48  1  0
  5 49  1  0
  8 50  1  0
  9 51  1  0
 10 52  1  0
 13 53  1  0
 13 54  1  0
 14 55  1  1
 15 56  1  0
 15 57  1  0
 16 58  1  6
 17 59  1  0
 17 60  1  0
 20 61  1  0
 21 62  1  0
 21 63  1  0
 22 64  1  0
 22 65  1  0
 24 66  1  0
 24 67  1  0
 24 68  1  0
 28 69  1  0
 29 70  1  0
 30 71  1  0
 34 72  1  0
 34 73  1  0
 36 74  1  0
 40 75  1  6
 41 76  1  0
 41 77  1  0
 42 78  1  0
M  CHG  1  14   1
M  END
>  <Binding energies>  (1) 
[-5.6]

>  <Ligand effiencies>  (1) 
[-0.1217391304347826]

>  <Interactions>  (1) 
["V-A:ILE:369:CG2:3237, V-A:ASP:366:CA:3210, V-B:PRO:540:CA:9855, V-A:ILE:369:CB:3236, V-B:GLU:543:CB:9878, V-B:ALA:541:CB:9864, V-B:TYR:539:CE2:9848, V-A:TYR:484:CE2:4346, V-B:GLU:543:CG:9879, V-A:ASP:366:CG:3213, V-B:TYR:539:CZ:9849, H-B:TYR:539:OH:9850, V-A:ALA:541:CB:4892, V-A:GLU:543:CD:4908, V-A:TYR:484:CZ:4347, H-A:GLY:454:N:4050, V-A:ILE:369:CD1:3239, V-A:ASP:366:C:3208, V-A:ALA:541:CA:4890, V-B:GLU:543:CD:9880, V-A:ASP:366:CB:3212, V-A:LEU:475:CD2:4259, V-A:ARG:545:CZ:4926, H-A:ASP:366:O:3209, V-A:PRO:540:CB:4885, V-A:PRO:540:CA:4883, V-B:PRO:540:C:9853, V-B:ALA:541:CA:9862, H-A:TYR:484:OH:4348"]

$$$$
ZINC2382401179
     RDKit          3D

 83 87  0  0  0  0  0  0  0  0999 V2000
  128.7120  125.8040   56.7890 C   0  0  0  0  0  0  0  0  0  0  0  0
  128.8520  124.5930   57.7290 C   0  0  0  0  0  0  0  0  0  0  0  0
  127.7460  123.5770   57.3510 C   0  0  0  0  0  0  0  0  0  0  0  0
  128.9910  125.0630   59.2390 C   0  0  2  0  0  0  0  0  0  0  0  0
  129.5160  126.4350   59.3700 N   0  0  0  0  0  0  0  0  0  0  0  0
  130.7300  126.9120   59.7070 C   0  0  0  0  0  0  0  0  0  0  0  0
  130.8570  128.0730   60.0930 O   0  0  0  0  0  0  0  0  0  0  0  0
  131.9600  126.0500   59.5800 C   0  0  0  0  0  0  0  0  0  0  0  0
  132.5500  125.5110   60.7330 C   0  0  0  0  0  0  0  0  0  0  0  0
  133.6100  124.5950   60.6370 C   0  0  0  0  0  0  0  0  0  0  0  0
  134.0970  124.2430   59.3790 C   0  0  0  0  0  0  0  0  0  0  0  0
  133.5350  124.7900   58.2290 C   0  0  0  0  0  0  0  0  0  0  0  0
  132.4630  125.6790   58.3180 C   0  0  0  0  0  0  0  0  0  0  0  0
  131.9290  126.1650   57.1500 O   0  0  0  0  0  0  0  0  0  0  0  0
  134.1610  123.9920   61.7480 O   0  0  0  0  0  0  0  0  0  0  0  0
  133.3830  123.9170   62.8730 C   0  0  0  0  0  0  0  0  0  0  0  0
  132.4760  122.8670   63.0140 C   0  0  0  0  0  0  0  0  0  0  0  0
  131.5550  122.8900   64.0550 C   0  0  0  0  0  0  0  0  0  0  0  0
  131.5450  123.9650   64.9490 C   0  0  0  0  0  0  0  0  0  0  0  0
  132.5480  124.9370   64.8870 C   0  0  0  0  0  0  0  0  0  0  0  0
  133.4590  124.9210   63.8380 C   0  0  0  0  0  0  0  0  0  0  0  0
  130.3580  124.1560   65.8950 C   0  0  0  0  0  0  0  0  0  0  0  0
  129.5260  125.4320   65.5420 C   0  0  1  0  0  0  0  0  0  0  0  0
  129.2450  126.2550   66.8160 C   0  0  0  0  0  0  0  0  0  0  0  0
  129.2410  125.7000   67.9140 O   0  0  0  0  0  0  0  0  0  0  0  0
  129.0040  127.5640   66.6380 N   0  0  0  0  0  0  0  0  0  0  0  0
  128.7200  128.5010   67.7270 C   0  0  0  0  0  0  0  0  0  0  0  0
  129.3460  128.0760   69.0470 C   0  0  0  0  0  0  0  0  0  0  0  0
  130.6480  128.1040   69.2320 N   0  0  0  0  0  0  0  0  0  0  0  0
  130.7880  127.6720   70.5490 O   0  0  0  0  0  0  0  0  0  0  0  0
  129.5240  127.4160   70.9690 C   0  0  0  0  0  0  0  0  0  0  0  0
  129.3050  126.9770   72.4060 C   0  0  0  0  0  0  0  0  0  0  0  0
  130.5720  126.9560   73.2790 C   0  0  0  0  0  0  0  0  0  0  0  0
  130.0530  127.0990   74.7090 C   0  0  0  0  0  0  0  0  0  0  0  0
  128.8730  128.0640   74.5870 C   0  0  0  0  0  0  0  0  0  0  0  0
  128.2800  127.8220   73.1890 C   0  0  0  0  0  0  0  0  0  0  0  0
  128.6130  127.6910   70.0740 N   0  0  0  0  0  0  0  0  0  0  0  0
  130.1600  126.1640   64.4250 N   0  0  0  0  0  0  0  0  0  0  0  0
  130.1550  126.0560   63.0790 C   0  0  0  0  0  0  0  0  0  0  0  0
  130.8520  126.8140   62.4060 O   0  0  0  0  0  0  0  0  0  0  0  0
  129.3110  124.9920   62.3420 C   0  0  2  0  0  0  0  0  0  0  0  0
  128.6970  124.0010   63.3460 C   0  0  0  0  0  0  0  0  0  0  0  0
  130.0810  124.2090   61.3720 N   0  0  0  0  0  0  0  0  0  0  0  0
  130.0000  124.1670   60.0270 C   0  0  0  0  0  0  0  0  0  0  0  0
  130.7220  123.3920   59.3970 O   0  0  0  0  0  0  0  0  0  0  0  0
  128.6059  126.7215   57.3864 H   0  0  0  0  0  0  0  0  0  0  0  0
  129.6072  125.8810   56.1545 H   0  0  0  0  0  0  0  0  0  0  0  0
  127.8228  125.6748   56.1545 H   0  0  0  0  0  0  0  0  0  0  0  0
  129.7912  124.0345   57.6028 H   0  0  0  0  0  0  0  0  0  0  0  0
  127.2977  123.1652   58.2672 H   0  0  0  0  0  0  0  0  0  0  0  0
  126.9697  124.0835   56.7586 H   0  0  0  0  0  0  0  0  0  0  0  0
  128.1850  122.7606   56.7586 H   0  0  0  0  0  0  0  0  0  0  0  0
  127.9687  124.9950   59.6394 H   0  0  0  0  0  0  0  0  0  0  0  0
  128.7710  127.1170   59.3940 H   0  0  0  0  0  0  0  0  0  0  0  0
  132.1778  125.8095   61.7242 H   0  0  0  0  0  0  0  0  0  0  0  0
  134.9297  123.5292   59.2948 H   0  0  0  0  0  0  0  0  0  0  0  0
  133.9390  124.5194   57.2423 H   0  0  0  0  0  0  0  0  0  0  0  0
  132.4120  126.9190   56.8040 H   0  0  0  0  0  0  0  0  0  0  0  0
  132.4893  122.0256   62.3056 H   0  0  0  0  0  0  0  0  0  0  0  0
  130.8368  122.0655   64.1750 H   0  0  0  0  0  0  0  0  0  0  0  0
  132.6157  125.7112   65.6655 H   0  0  0  0  0  0  0  0  0  0  0  0
  134.2363  125.6963   63.7690 H   0  0  0  0  0  0  0  0  0  0  0  0
  129.7033  123.2748   65.8254 H   0  0  0  0  0  0  0  0  0  0  0  0
  130.7527  124.2794   66.9143 H   0  0  0  0  0  0  0  0  0  0  0  0
  128.5297  125.1600   65.1632 H   0  0  0  0  0  0  0  0  0  0  0  0
  128.9930  127.9410   65.7010 H   0  0  0  0  0  0  0  0  0  0  0  0
  129.1158  129.4899   67.4523 H   0  0  0  0  0  0  0  0  0  0  0  0
  127.6295  128.5238   67.8691 H   0  0  0  0  0  0  0  0  0  0  0  0
  128.9293  125.9556   72.2463 H   0  0  0  0  0  0  0  0  0  0  0  0
  131.1140  126.0069   73.1551 H   0  0  0  0  0  0  0  0  0  0  0  0
  131.2796  127.7537   73.0089 H   0  0  0  0  0  0  0  0  0  0  0  0
  129.7222  126.1266   75.1027 H   0  0  0  0  0  0  0  0  0  0  0  0
  130.8251  127.4642   75.4021 H   0  0  0  0  0  0  0  0  0  0  0  0
  128.1230  127.8528   75.3635 H   0  0  0  0  0  0  0  0  0  0  0  0
  129.1884  129.1095   74.7187 H   0  0  0  0  0  0  0  0  0  0  0  0
  127.3269  127.2791   73.2715 H   0  0  0  0  0  0  0  0  0  0  0  0
  128.0819  128.7746   72.6758 H   0  0  0  0  0  0  0  0  0  0  0  0
  130.7440  126.9120   64.7690 H   0  0  0  0  0  0  0  0  0  0  0  0
  128.5358  125.5566   61.8032 H   0  0  0  0  0  0  0  0  0  0  0  0
  128.9071  124.3401   64.3711 H   0  0  0  0  0  0  0  0  0  0  0  0
  127.6090  123.9502   63.1924 H   0  0  0  0  0  0  0  0  0  0  0  0
  129.1359  123.0041   63.1924 H   0  0  0  0  0  0  0  0  0  0  0  0
  130.7670  123.6030   61.7990 H   0  0  0  0  0  0  0  0  0  0  0  0
  1  2  1  0
  2  3  1  0
  2  4  1  0
  4  5  1  0
  5  6  1  0
  6  7  2  0
  6  8  1  0
  8  9  2  0
  9 10  1  0
 10 11  2  0
 11 12  1  0
 12 13  2  0
 13 14  1  0
 10 15  1  0
 15 16  1  0
 16 17  2  0
 17 18  1  0
 18 19  2  0
 19 20  1  0
 20 21  2  0
 19 22  1  0
 22 23  1  0
 23 24  1  0
 24 25  2  0
 24 26  1  0
 26 27  1  0
 27 28  1  0
 28 29  2  0
 29 30  1  0
 30 31  1  0
 31 32  1  0
 32 33  1  0
 33 34  1  0
 34 35  1  0
 35 36  1  0
 31 37  2  0
 23 38  1  0
 38 39  1  0
 39 40  2  0
 39 41  1  0
 41 42  1  0
 41 43  1  0
 43 44  1  0
 44 45  2  0
 44  4  1  0
 13  8  1  0
 21 16  1  0
 37 28  1  0
 36 32  1  0
  1 46  1  0
  1 47  1  0
  1 48  1  0
  2 49  1  0
  3 50  1  0
  3 51  1  0
  3 52  1  0
  4 53  1  1
  5 54  1  0
  9 55  1  0
 11 56  1  0
 12 57  1  0
 14 58  1  0
 17 59  1  0
 18 60  1  0
 20 61  1  0
 21 62  1  0
 22 63  1  0
 22 64  1  0
 23 65  1  6
 26 66  1  0
 27 67  1  0
 27 68  1  0
 32 69  1  0
 33 70  1  0
 33 71  1  0
 34 72  1  0
 34 73  1  0
 35 74  1  0
 35 75  1  0
 36 76  1  0
 36 77  1  0
 38 78  1  0
 41 79  1  6
 42 80  1  0
 42 81  1  0
 42 82  1  0
 43 83  1  0
M  END
>  <Binding energies>  (1) 
[-6.01]

>  <Ligand effiencies>  (1) 
[-0.11557692307692308]

>  <Interactions>  (1) 
["V-A:ILE:369:CG2:3237, V-A:ASP:366:CA:3210, V-B:HIS:456:CD2:9039, H-A:GLU:543:OE2:4910, V-A:ILE:369:CB:3236, V-B:GLU:543:CB:9878, H-A:TYR:531:OH:4795, V-A:TYR:484:CE2:4346, V-B:TYR:539:CE2:9848, V-B:GLU:543:CG:9879, V-A:ASP:366:CG:3213, V-A:HIS:456:CD2:4068, V-B:TYR:539:CZ:9849, H-B:TYR:539:OH:9850, V-A:TYR:484:CZ:4347, V-A:GLU:543:CD:4908, V-B:HIS:456:CE1:9041, V-A:ILE:369:CD1:3239, V-A:HIS:456:CE1:4070, V-A:ASP:366:C:3208, V-A:GLU:543:CG:4907, V-B:GLU:543:CD:9880, V-A:ASP:366:CB:3212, V-A:LEU:475:CD2:4259, H-A:ARG:545:NH2:4928, V-A:ARG:545:CZ:4926, H-A:GLU:543:OE1:4909, V-A:GLU:543:CB:4906, H-B:GLU:543:OE2:9882"]

$$$$
ZINC2382415077
     RDKit          3D

 79 80  0  0  0  0  0  0  0  0999 V2000
  133.2720  124.6300   61.0680 C   0  0  0  0  0  0  0  0  0  0  0  0
  133.0130  123.5590   62.1190 C   0  0  0  0  0  0  0  0  0  0  0  0
  133.6230  123.5520   63.1890 O   0  0  0  0  0  0  0  0  0  0  0  0
  132.0760  122.6680   61.7220 O   0  0  0  0  0  0  0  0  0  0  0  0
  132.4110  121.4970   60.9760 C   0  0  1  0  0  0  0  0  0  0  0  0
  133.8310  121.0100   61.3290 C   0  0  0  0  0  0  0  0  0  0  0  0
  131.3640  120.4280   61.2680 C   0  0  0  0  0  0  0  0  0  0  0  0
  130.0140  120.5130   61.2670 C   0  0  0  0  0  0  0  0  0  0  0  0
  129.2210  121.6820   60.9460 C   0  0  0  0  0  0  0  0  0  0  0  0
  128.0650  121.8660   61.3280 O   0  0  0  0  0  0  0  0  0  0  0  0
  129.8940  122.5690   60.1910 N   0  0  0  0  0  0  0  0  0  0  0  0
  129.3920  123.8640   59.7070 C   0  0  1  0  0  0  0  0  0  0  0  0
  128.7260  123.7300   58.3160 C   0  0  0  0  0  0  0  0  0  0  0  0
  127.3850  122.9670   58.4180 C   0  0  2  0  0  0  0  0  0  0  0  0
  126.7500  122.6530   57.0520 C   0  0  0  0  0  0  0  0  0  0  0  0
  126.4530  123.7140   59.4150 C   0  0  2  0  0  0  0  0  0  0  0  0
  125.8920  125.1010   58.9950 C   0  0  0  0  0  0  0  0  0  0  0  0
  126.9230  126.2220   58.9890 C   0  0  0  0  0  0  0  0  0  0  0  0
  127.6300  126.7140   57.9430 C   0  0  0  0  0  0  0  0  0  0  0  0
  127.4570  126.2070   56.5170 C   0  0  0  0  0  0  0  0  0  0  0  0
  128.5540  127.8220   58.1510 C   0  0  0  0  0  0  0  0  0  0  0  0
  129.5220  127.8510   59.0910 C   0  0  0  0  0  0  0  0  0  0  0  0
  130.5060  128.9900   59.3490 C   0  0  1  0  0  0  0  0  0  0  0  0
  130.7230  129.7260   58.1350 O   0  0  0  0  0  0  0  0  0  0  0  0
  131.6750  130.7590   58.2060 C   0  0  2  0  0  0  0  0  0  0  0  0
  131.7180  131.3860   56.8150 C   0  0  0  0  0  0  0  0  0  0  0  0
  132.9450  130.2980   58.4690 O   0  0  0  0  0  0  0  0  0  0  0  0
  131.2710  131.7940   59.2810 C   0  0  0  0  0  0  0  0  0  0  0  0
  130.9340  131.1560   60.6580 C   0  0  1  0  0  0  0  0  0  0  0  0
  132.1370  130.7380   61.2880 O   0  0  0  0  0  0  0  0  0  0  0  0
  130.3450  132.2070   61.6420 C   0  0  0  0  0  0  0  0  0  0  0  0
  128.8280  132.9530   61.0550 Cl  0  0  0  0  0  0  0  0  0  0  0  0
  129.9820  129.9380   60.4620 C   0  0  2  0  0  0  0  0  0  0  0  0
  129.7250  129.2450   61.6770 O   0  0  0  0  0  0  0  0  0  0  0  0
  127.1480  123.7660   60.6690 O   0  0  0  0  0  0  0  0  0  0  0  0
  128.3620  124.5350   60.6700 C   0  0  1  0  0  0  0  0  0  0  0  0
  128.8540  124.6440   62.1230 C   0  0  0  0  0  0  0  0  0  0  0  0
  133.5026  125.5836   61.5654 H   0  0  0  0  0  0  0  0  0  0  0  0
  134.1232  124.3289   60.4397 H   0  0  0  0  0  0  0  0  0  0  0  0
  132.3773  124.7511   60.4397 H   0  0  0  0  0  0  0  0  0  0  0  0
  132.4116  121.7221   59.8993 H   0  0  0  0  0  0  0  0  0  0  0  0
  133.9441  120.9712   62.4225 H   0  0  0  0  0  0  0  0  0  0  0  0
  133.9895  120.0061   60.9082 H   0  0  0  0  0  0  0  0  0  0  0  0
  134.5723  121.7053   60.9082 H   0  0  0  0  0  0  0  0  0  0  0  0
  131.7682  119.4359   61.5177 H   0  0  0  0  0  0  0  0  0  0  0  0
  129.4618  119.6010   61.5377 H   0  0  0  0  0  0  0  0  0  0  0  0
  130.8450  122.3480   59.9360 H   0  0  0  0  0  0  0  0  0  0  0  0
  130.2844  124.5046   59.6507 H   0  0  0  0  0  0  0  0  0  0  0  0
  128.5389  124.7342   57.9079 H   0  0  0  0  0  0  0  0  0  0  0  0
  129.4016  123.1668   57.6554 H   0  0  0  0  0  0  0  0  0  0  0  0
  127.5734  121.9631   58.8262 H   0  0  0  0  0  0  0  0  0  0  0  0
  125.7734  122.1701   57.2039 H   0  0  0  0  0  0  0  0  0  0  0  0
  126.6132  123.5873   56.4878 H   0  0  0  0  0  0  0  0  0  0  0  0
  127.4094  121.9771   56.4878 H   0  0  0  0  0  0  0  0  0  0  0  0
  125.5194  123.1342   59.4628 H   0  0  0  0  0  0  0  0  0  0  0  0
  125.4761  125.0109   57.9807 H   0  0  0  0  0  0  0  0  0  0  0  0
  125.1362  125.3741   59.7462 H   0  0  0  0  0  0  0  0  0  0  0  0
  127.1197  126.6947   59.9626 H   0  0  0  0  0  0  0  0  0  0  0  0
  127.1018  125.1661   56.5385 H   0  0  0  0  0  0  0  0  0  0  0  0
  126.7221  126.8344   55.9914 H   0  0  0  0  0  0  0  0  0  0  0  0
  128.4221  126.2543   55.9914 H   0  0  0  0  0  0  0  0  0  0  0  0
  128.4551  128.6985   57.4938 H   0  0  0  0  0  0  0  0  0  0  0  0
  129.6112  126.9648   59.7365 H   0  0  0  0  0  0  0  0  0  0  0  0
  131.4582  128.5578   59.6902 H   0  0  0  0  0  0  0  0  0  0  0  0
  131.7930  132.4795   56.9079 H   0  0  0  0  0  0  0  0  0  0  0  0
  132.5920  131.0037   56.2673 H   0  0  0  0  0  0  0  0  0  0  0  0
  130.8000  131.1266   56.2673 H   0  0  0  0  0  0  0  0  0  0  0  0
  132.9760  130.0390   59.3920 H   0  0  0  0  0  0  0  0  0  0  0  0
  132.1051  132.4980   59.4179 H   0  0  0  0  0  0  0  0  0  0  0  0
  130.3588  132.2939   58.9233 H   0  0  0  0  0  0  0  0  0  0  0  0
  132.6140  130.1650   60.6830 H   0  0  0  0  0  0  0  0  0  0  0  0
  130.1413  131.7107   62.6023 H   0  0  0  0  0  0  0  0  0  0  0  0
  131.0874  133.0126   61.7414 H   0  0  0  0  0  0  0  0  0  0  0  0
  129.0125  130.3372   60.1292 H   0  0  0  0  0  0  0  0  0  0  0  0
  130.4780  129.3600   62.2590 H   0  0  0  0  0  0  0  0  0  0  0  0
  128.2079  125.5577   60.2954 H   0  0  0  0  0  0  0  0  0  0  0  0
  128.0147  124.4580   62.8092 H   0  0  0  0  0  0  0  0  0  0  0  0
  129.6439  123.8991   62.2995 H   0  0  0  0  0  0  0  0  0  0  0  0
  129.2554  125.6528   62.2995 H   0  0  0  0  0  0  0  0  0  0  0  0
  1  2  1  0
  2  3  2  0
  2  4  1  0
  4  5  1  0
  5  6  1  0
  5  7  1  0
  7  8  2  0
  8  9  1  0
  9 10  2  0
  9 11  1  0
 11 12  1  0
 12 13  1  0
 13 14  1  0
 14 15  1  0
 14 16  1  0
 16 17  1  0
 17 18  1  0
 18 19  2  0
 19 20  1  0
 19 21  1  0
 21 22  2  0
 22 23  1  0
 23 24  1  0
 24 25  1  0
 25 26  1  0
 25 27  1  1
 25 28  1  0
 28 29  1  0
 29 30  1  1
 29 31  1  0
 31 32  1  0
 29 33  1  0
 33 34  1  0
 16 35  1  0
 35 36  1  0
 36 37  1  0
 36 12  1  0
 33 23  1  0
  1 38  1  0
  1 39  1  0
  1 40  1  0
  5 41  1  6
  6 42  1  0
  6 43  1  0
  6 44  1  0
  7 45  1  0
  8 46  1  0
 11 47  1  0
 12 48  1  6
 13 49  1  0
 13 50  1  0
 14 51  1  1
 15 52  1  0
 15 53  1  0
 15 54  1  0
 16 55  1  1
 17 56  1  0
 17 57  1  0
 18 58  1  0
 20 59  1  0
 20 60  1  0
 20 61  1  0
 21 62  1  0
 22 63  1  0
 23 64  1  1
 26 65  1  0
 26 66  1  0
 26 67  1  0
 27 68  1  0
 28 69  1  0
 28 70  1  0
 30 71  1  0
 31 72  1  0
 31 73  1  0
 33 74  1  6
 34 75  1  0
 36 76  1  6
 37 77  1  0
 37 78  1  0
 37 79  1  0
M  END
>  <Binding energies>  (1) 
[-7.67]

>  <Ligand effiencies>  (1) 
[-0.18707317073170732]

>  <Interactions>  (1) 
["V-A:ILE:369:CG2:3237, V-B:PRO:540:CA:9855, V-A:PRO:540:C:4881, V-B:ALA:541:CB:9864, H-A:TYR:531:OH:4795, V-B:TYR:539:CE2:9848, V-B:TYR:539:C:9839, V-A:ASP:366:CG:3213, V-A:LEU:363:CD1:3189, V-B:TYR:539:CZ:9849, V-A:TYR:531:CE2:4793, H-B:ALA:541:N:9863, V-B:PRO:540:CB:9857, H-A:GLY:454:N:4050, V-A:SER:385:C:3405, V-B:PRO:540:N:9856, V-B:TYR:539:CD2:9846, V-B:PRO:540:CD:9859, V-A:SER:385:CB:3409, V-B:GLU:543:CD:9880, V-A:LEU:475:CD2:4259, H-A:GLU:543:OE1:4909, V-A:PRO:540:CB:4885, V-A:PRO:540:CA:4883, V-A:SER:385:CA:3407, H-A:ASP:366:OD2:3215"]

$$$$
ZINC2382436099
     RDKit          3D

 90 92  0  0  0  0  0  0  0  0999 V2000
  128.3400  128.0690   66.8990 C   0  0  0  0  0  0  0  0  0  0  0  0
  128.9050  126.6350   66.8030 C   0  0  0  0  0  0  0  0  0  0  0  0
  129.8700  126.3340   67.9620 C   0  0  0  0  0  0  0  0  0  0  0  0
  129.5440  126.2950   65.4510 C   0  0  0  0  0  0  0  0  0  0  0  0
  129.0890  126.9280   64.3010 C   0  0  0  0  0  0  0  0  0  0  0  0
  129.6290  126.6420   63.0410 C   0  0  0  0  0  0  0  0  0  0  0  0
  129.2140  127.5690   61.8780 C   0  0  0  0  0  0  0  0  0  0  0  0
  130.4420  128.2980   61.3000 C   0  0  0  0  0  0  0  0  0  0  0  0
  128.0930  128.5730   62.2350 C   0  0  0  0  0  0  0  0  0  0  0  0
  130.6090  125.6220   62.9060 C   0  0  0  0  0  0  0  0  0  0  0  0
  131.1340  125.0210   61.1620 P   0  0  0  0  0  0  0  0  0  0  0  0
  129.7670  125.3100   59.8650 C   0  0  0  0  0  0  0  0  0  0  0  0
  128.4270  125.0830   60.2130 C   0  0  0  0  0  0  0  0  0  0  0  0
  127.3880  125.2780   59.3080 C   0  0  0  0  0  0  0  0  0  0  0  0
  127.6680  125.7110   58.0190 C   0  0  0  0  0  0  0  0  0  0  0  0
  128.9850  125.9510   57.6440 C   0  0  0  0  0  0  0  0  0  0  0  0
  130.0410  125.7610   58.5500 C   0  0  0  0  0  0  0  0  0  0  0  0
  131.4250  126.0510   58.0810 C   0  0  0  0  0  0  0  0  0  0  0  0
  131.6670  125.8540   56.8670 O   0  0  0  0  0  0  0  0  0  0  0  0
  132.2330  126.5140   58.9180 O   0  0  0  0  0  0  0  0  0  0  0  0
  131.2730  123.1220   61.0990 C   0  0  0  0  0  0  0  0  0  0  0  0
  132.3940  122.4320   60.5650 C   0  0  0  0  0  0  0  0  0  0  0  0
  133.6690  123.1290   60.0620 C   0  0  0  0  0  0  0  0  0  0  0  0
  134.2830  124.1580   61.0390 C   0  0  0  0  0  0  0  0  0  0  0  0
  133.4350  123.7650   58.6770 C   0  0  0  0  0  0  0  0  0  0  0  0
  132.3820  121.0340   60.5150 C   0  0  0  0  0  0  0  0  0  0  0  0
  131.2870  120.2930   60.9420 C   0  0  0  0  0  0  0  0  0  0  0  0
  131.3220  118.7640   60.8240 C   0  0  0  0  0  0  0  0  0  0  0  0
  131.6820  118.3280   59.3930 C   0  0  0  0  0  0  0  0  0  0  0  0
  130.0470  118.0560   61.3280 C   0  0  0  0  0  0  0  0  0  0  0  0
  130.1880  120.9700   61.4640 C   0  0  0  0  0  0  0  0  0  0  0  0
  130.1700  122.3650   61.5790 C   0  0  0  0  0  0  0  0  0  0  0  0
  128.9170  123.0070   62.2190 C   0  0  0  0  0  0  0  0  0  0  0  0
  128.8530  122.8300   63.7540 C   0  0  0  0  0  0  0  0  0  0  0  0
  127.6080  122.5330   61.5620 C   0  0  0  0  0  0  0  0  0  0  0  0
  131.2100  125.1360   64.1010 C   0  0  0  0  0  0  0  0  0  0  0  0
  132.5990  124.4720   64.1510 C   0  0  0  0  0  0  0  0  0  0  0  0
  132.5860  122.9300   64.1970 C   0  0  0  0  0  0  0  0  0  0  0  0
  133.4340  125.0400   65.3190 C   0  0  0  0  0  0  0  0  0  0  0  0
  130.6270  125.4270   65.3400 C   0  0  0  0  0  0  0  0  0  0  0  0
  128.2295  128.3495   67.9569 H   0  0  0  0  0  0  0  0  0  0  0  0
  129.0297  128.7687   66.4043 H   0  0  0  0  0  0  0  0  0  0  0  0
  127.3584  128.1102   66.4043 H   0  0  0  0  0  0  0  0  0  0  0  0
  128.0291  125.9750   66.8880 H   0  0  0  0  0  0  0  0  0  0  0  0
  129.3539  126.4950   68.9200 H   0  0  0  0  0  0  0  0  0  0  0  0
  130.2057  125.2885   67.8975 H   0  0  0  0  0  0  0  0  0  0  0  0
  130.7406  127.0033   67.8975 H   0  0  0  0  0  0  0  0  0  0  0  0
  128.2838  127.6730   64.3823 H   0  0  0  0  0  0  0  0  0  0  0  0
  128.7835  126.9102   61.1095 H   0  0  0  0  0  0  0  0  0  0  0  0
  131.0688  128.6701   62.1238 H   0  0  0  0  0  0  0  0  0  0  0  0
  131.0255  127.5999   60.6818 H   0  0  0  0  0  0  0  0  0  0  0  0
  130.1085  129.1445   60.6818 H   0  0  0  0  0  0  0  0  0  0  0  0
  128.0056  128.6513   63.3287 H   0  0  0  0  0  0  0  0  0  0  0  0
  128.3373  129.5599   61.8151 H   0  0  0  0  0  0  0  0  0  0  0  0
  127.1389  128.2218   61.8151 H   0  0  0  0  0  0  0  0  0  0  0  0
  128.1906  124.7408   61.2313 H   0  0  0  0  0  0  0  0  0  0  0  0
  126.3481  125.0896   59.6130 H   0  0  0  0  0  0  0  0  0  0  0  0
  126.8516  125.8635   57.2977 H   0  0  0  0  0  0  0  0  0  0  0  0
  129.2032  126.2949   56.6222 H   0  0  0  0  0  0  0  0  0  0  0  0
  134.4181  122.3273   59.9840 H   0  0  0  0  0  0  0  0  0  0  0  0
  134.0928  123.8392   62.0745 H   0  0  0  0  0  0  0  0  0  0  0  0
  135.3678  124.2232   60.8688 H   0  0  0  0  0  0  0  0  0  0  0  0
  133.8252  125.1436   60.8688 H   0  0  0  0  0  0  0  0  0  0  0  0
  133.0577  124.7905   58.8035 H   0  0  0  0  0  0  0  0  0  0  0  0
  134.3831  123.7892   58.1197 H   0  0  0  0  0  0  0  0  0  0  0  0
  132.6973  123.1690   58.1197 H   0  0  0  0  0  0  0  0  0  0  0  0
  133.2652  120.5060   60.1263 H   0  0  0  0  0  0  0  0  0  0  0  0
  132.1192  118.4341   61.5063 H   0  0  0  0  0  0  0  0  0  0  0  0
  132.3819  117.4803   59.4331 H   0  0  0  0  0  0  0  0  0  0  0  0
  130.7682  118.0241   58.8614 H   0  0  0  0  0  0  0  0  0  0  0  0
  132.1533  119.1678   58.8614 H   0  0  0  0  0  0  0  0  0  0  0  0
  130.0402  118.0522   62.4280 H   0  0  0  0  0  0  0  0  0  0  0  0
  129.1599  118.5907   60.9577 H   0  0  0  0  0  0  0  0  0  0  0  0
  130.0320  117.0203   60.9577 H   0  0  0  0  0  0  0  0  0  0  0  0
  129.3112  120.3938   61.7946 H   0  0  0  0  0  0  0  0  0  0  0  0
  129.0219  124.0844   62.0235 H   0  0  0  0  0  0  0  0  0  0  0  0
  129.1879  123.7561   64.2442 H   0  0  0  0  0  0  0  0  0  0  0  0
  127.8182  122.6094   64.0548 H   0  0  0  0  0  0  0  0  0  0  0  0
  129.5074  121.9986   64.0548 H   0  0  0  0  0  0  0  0  0  0  0  0
  126.8800  122.2694   62.3434 H   0  0  0  0  0  0  0  0  0  0  0  0
  127.1985  123.3399   60.9366 H   0  0  0  0  0  0  0  0  0  0  0  0
  127.8101  121.6510   60.9366 H   0  0  0  0  0  0  0  0  0  0  0  0
  133.0698  124.7276   63.1903 H   0  0  0  0  0  0  0  0  0  0  0  0
  132.5832  122.5944   65.2446 H   0  0  0  0  0  0  0  0  0  0  0  0
  131.6847  122.5556   63.6896 H   0  0  0  0  0  0  0  0  0  0  0  0
  133.4809  122.5405   63.6896 H   0  0  0  0  0  0  0  0  0  0  0  0
  132.9836  124.7336   66.2747 H   0  0  0  0  0  0  0  0  0  0  0  0
  134.4618  124.6529   65.2572 H   0  0  0  0  0  0  0  0  0  0  0  0
  133.4515  126.1381   65.2572 H   0  0  0  0  0  0  0  0  0  0  0  0
  131.0344  124.9585   66.2480 H   0  0  0  0  0  0  0  0  0  0  0  0
  1  2  1  0
  2  3  1  0
  2  4  1  0
  4  5  2  0
  5  6  1  0
  6  7  1  0
  7  8  1  0
  7  9  1  0
  6 10  2  0
 10 11  1  0
 11 12  1  0
 12 13  2  0
 13 14  1  0
 14 15  2  0
 15 16  1  0
 16 17  2  0
 17 18  1  0
 18 19  2  0
 18 20  1  0
 11 21  1  0
 21 22  2  0
 22 23  1  0
 23 24  1  0
 23 25  1  0
 22 26  1  0
 26 27  2  0
 27 28  1  0
 28 29  1  0
 28 30  1  0
 27 31  1  0
 31 32  2  0
 32 33  1  0
 33 34  1  0
 33 35  1  0
 10 36  1  0
 36 37  1  0
 37 38  1  0
 37 39  1  0
 36 40  2  0
 40  4  1  0
 17 12  1  0
 32 21  1  0
  1 41  1  0
  1 42  1  0
  1 43  1  0
  2 44  1  0
  3 45  1  0
  3 46  1  0
  3 47  1  0
  5 48  1  0
  7 49  1  0
  8 50  1  0
  8 51  1  0
  8 52  1  0
  9 53  1  0
  9 54  1  0
  9 55  1  0
 13 56  1  0
 14 57  1  0
 15 58  1  0
 16 59  1  0
 23 60  1  0
 24 61  1  0
 24 62  1  0
 24 63  1  0
 25 64  1  0
 25 65  1  0
 25 66  1  0
 26 67  1  0
 28 68  1  0
 29 69  1  0
 29 70  1  0
 29 71  1  0
 30 72  1  0
 30 73  1  0
 30 74  1  0
 31 75  1  0
 33 76  1  0
 34 77  1  0
 34 78  1  0
 34 79  1  0
 35 80  1  0
 35 81  1  0
 35 82  1  0
 37 83  1  0
 38 84  1  0
 38 85  1  0
 38 86  1  0
 39 87  1  0
 39 88  1  0
 39 89  1  0
 40 90  1  0
M  CHG  1  20  -1
M  END
>  <Binding energies>  (1) 
[-8.11]

>  <Ligand effiencies>  (1) 
[-0.20274999999999999]

>  <Interactions>  (1) 
["V-A:ILE:369:CG2:3237, V-B:PRO:540:CA:9855, V-A:GLY:454:CA:4049, V-A:ILE:369:CB:3236, V-B:GLU:543:CB:9878, V-B:ALA:541:CB:9864, H-A:TYR:531:OH:4795, V-B:TYR:539:CE2:9848, V-B:GLU:543:CG:9879, V-A:ASP:366:CG:3213, V-B:TYR:539:CZ:9849, H-B:TYR:539:OH:9850, V-B:TYR:539:CB:9843, V-A:GLU:543:CD:4908, V-A:TYR:484:CZ:4347, V-A:HIS:456:CE1:4070, V-A:ILE:369:CD1:3239, V-A:PRO:482:CB:4326, V-B:TYR:539:CD2:9846, V-A:SER:385:CB:3409, V-B:GLU:543:CD:9880, V-A:ARG:545:CD:4923, V-A:LEU:475:CD2:4259, V-A:ARG:545:CZ:4926, V-B:TYR:539:CG:9844, V-A:GLU:543:CB:4906, V-A:HIS:383:CD2:3392, V-B:PRO:540:C:9853, V-B:ALA:541:CA:9862, V-A:HIS:383:NE2:3394"]

$$$$
ZINC2382754054
     RDKit          3D

 59 63  0  0  0  0  0  0  0  0999 V2000
  129.9600  126.1420   74.0190 C   0  0  0  0  0  0  0  0  0  0  0  0
  129.7640  127.4270   73.3520 N   0  0  0  0  0  0  0  0  0  0  0  0
  130.9100  127.9920   72.6210 C   0  0  0  0  0  0  0  0  0  0  0  0
  130.8240  128.0290   71.0850 C   0  0  0  0  0  0  0  0  0  0  0  0
  131.7610  127.6350   70.3940 O   0  0  0  0  0  0  0  0  0  0  0  0
  129.6620  128.4680   70.5790 O   0  0  0  0  0  0  0  0  0  0  0  0
  128.7460  127.6520   69.9260 B   0  0  0  0  0  0  0  0  0  0  0  0
  128.9480  127.3210   68.3870 C   0  0  0  0  0  0  0  0  0  0  0  0
  128.4030  128.1540   67.4080 C   0  0  0  0  0  0  0  0  0  0  0  0
  128.5790  127.8650   66.0570 C   0  0  0  0  0  0  0  0  0  0  0  0
  129.2940  126.7260   65.6640 C   0  0  0  0  0  0  0  0  0  0  0  0
  129.5100  126.3940   64.2010 C   0  0  0  0  0  0  0  0  0  0  0  0
  129.0510  127.1800   63.3640 O   0  0  0  0  0  0  0  0  0  0  0  0
  130.2020  125.2600   63.8520 N   0  0  0  0  0  0  0  0  0  0  0  0
  129.5580  124.2570   63.0910 C   0  0  0  0  0  0  0  0  0  0  0  0
  129.9500  122.9150   63.2030 C   0  0  0  0  0  0  0  0  0  0  0  0
  129.3120  121.9340   62.4450 C   0  0  0  0  0  0  0  0  0  0  0  0
  128.2800  122.2810   61.5720 C   0  0  0  0  0  0  0  0  0  0  0  0
  127.6710  121.3180   60.8430 F   0  0  0  0  0  0  0  0  0  0  0  0
  127.8820  123.6170   61.4590 C   0  0  0  0  0  0  0  0  0  0  0  0
  126.6050  124.0630   60.3840 Cl  0  0  0  0  0  0  0  0  0  0  0  0
  128.5180  124.6010   62.2160 C   0  0  0  0  0  0  0  0  0  0  0  0
  131.6030  125.1390   64.0240 C   0  0  0  0  0  0  0  0  0  0  0  0
  132.0730  125.2700   65.2940 N   0  0  0  0  0  0  0  0  0  0  0  0
  133.4140  125.1830   65.4500 C   0  0  0  0  0  0  0  0  0  0  0  0
  134.3350  124.9840   64.4780 N   0  0  0  0  0  0  0  0  0  0  0  0
  133.8660  124.8510   63.2040 C   0  0  0  0  0  0  0  0  0  0  0  0
  134.7910  124.6310   62.1580 C   0  0  0  0  0  0  0  0  0  0  0  0
  134.3480  124.4790   60.8460 C   0  0  0  0  0  0  0  0  0  0  0  0
  135.2570  124.2570   59.8680 F   0  0  0  0  0  0  0  0  0  0  0  0
  132.9860  124.5460   60.5410 C   0  0  0  0  0  0  0  0  0  0  0  0
  132.5220  124.3570   59.1590 N   0  0  0  0  0  0  0  0  0  0  0  0
  133.2240  123.6900   58.4060 O   0  0  0  0  0  0  0  0  0  0  0  0
  131.4630  124.8850   58.8370 O   0  0  0  0  0  0  0  0  0  0  0  0
  132.0510  124.7550   61.5570 C   0  0  0  0  0  0  0  0  0  0  0  0
  132.4700  124.9210   62.9040 C   0  0  0  0  0  0  0  0  0  0  0  0
  129.8620  125.9080   66.6470 C   0  0  0  0  0  0  0  0  0  0  0  0
  129.6840  126.1990   67.9970 C   0  0  0  0  0  0  0  0  0  0  0  0
  127.6870  127.0810   70.6190 O   0  0  0  0  0  0  0  0  0  0  0  0
  127.7480  126.7190   71.9080 C   0  0  0  0  0  0  0  0  0  0  0  0
  127.3440  125.6360   72.3290 O   0  0  0  0  0  0  0  0  0  0  0  0
  128.4130  127.7370   72.8590 C   0  0  0  0  0  0  0  0  0  0  0  0
  129.9378  126.2876   75.1091 H   0  0  0  0  0  0  0  0  0  0  0  0
  129.1570  125.4500   73.7250 H   0  0  0  0  0  0  0  0  0  0  0  0
  130.9328  125.7209   73.7250 H   0  0  0  0  0  0  0  0  0  0  0  0
  131.0448  129.0269   72.9686 H   0  0  0  0  0  0  0  0  0  0  0  0
  131.7453  127.3102   72.8388 H   0  0  0  0  0  0  0  0  0  0  0  0
  127.8306  129.0448   67.7058 H   0  0  0  0  0  0  0  0  0  0  0  0
  128.1544  128.5345   65.2945 H   0  0  0  0  0  0  0  0  0  0  0  0
  130.7623  122.6359   63.8902 H   0  0  0  0  0  0  0  0  0  0  0  0
  129.6232  120.8828   62.5354 H   0  0  0  0  0  0  0  0  0  0  0  0
  128.2023  125.6509   62.1261 H   0  0  0  0  0  0  0  0  0  0  0  0
  133.7969  125.2848   66.4762 H   0  0  0  0  0  0  0  0  0  0  0  0
  135.8669  124.5795   62.3813 H   0  0  0  0  0  0  0  0  0  0  0  0
  130.9793  124.7914   61.3117 H   0  0  0  0  0  0  0  0  0  0  0  0
  130.4533  125.0289   66.3512 H   0  0  0  0  0  0  0  0  0  0  0  0
  130.1253  125.5419   68.7609 H   0  0  0  0  0  0  0  0  0  0  0  0
  128.4697  128.6973   72.3255 H   0  0  0  0  0  0  0  0  0  0  0  0
  127.7799  127.7337   73.7585 H   0  0  0  0  0  0  0  0  0  0  0  0
  1  2  1  0
  2  3  1  0
  3  4  1  0
  4  5  2  0
  4  6  1  0
  6  7  1  0
  7  8  1  0
  8  9  2  0
  9 10  1  0
 10 11  2  0
 11 12  1  0
 12 13  2  0
 12 14  1  0
 14 15  1  0
 15 16  2  0
 16 17  1  0
 17 18  2  0
 18 19  1  0
 18 20  1  0
 20 21  1  0
 20 22  2  0
 14 23  1  0
 23 24  2  0
 24 25  1  0
 25 26  2  0
 26 27  1  0
 27 28  2  0
 28 29  1  0
 29 30  1  0
 29 31  2  0
 31 32  1  0
 32 33  2  0
 32 34  1  0
 31 35  1  0
 35 36  2  0
 11 37  1  0
 37 38  2  0
  7 39  1  0
 39 40  1  0
 40 41  2  0
 40 42  1  0
 42  2  1  0
 38  8  1  0
 22 15  1  0
 36 23  1  0
 36 27  1  0
  1 43  1  0
  1 44  1  0
  1 45  1  0
  3 46  1  0
  3 47  1  0
  9 48  1  0
 10 49  1  0
 16 50  1  0
 17 51  1  0
 22 52  1  0
 25 53  1  0
 28 54  1  0
 35 55  1  0
 37 56  1  0
 38 57  1  0
 42 58  1  0
 42 59  1  0
M  CHG  2  32   1  34  -1
M  END
>  <Binding energies>  (1) 
[-4.75]

>  <Ligand effiencies>  (1) 
[-0.10795454545454546]

>  <Interactions>  (1) 
["V-A:ILE:369:CG2:3237, V-A:ASP:366:CA:3210, V-B:PRO:540:CA:9855, V-B:HIS:456:CD2:9039, V-A:ILE:369:CB:3236, V-A:GLU:543:C:4902, V-B:GLU:543:CB:9878, H-B:LYS:547:NZ:9923, V-B:ALA:541:CB:9864, H-A:ARG:545:NH1:4927, V-B:TYR:539:CE2:9848, V-B:GLU:543:CG:9879, V-A:GLY:544:C:4912, V-B:TYR:539:C:9839, V-A:HIS:456:CD2:4068, H-A:ARG:545:N:4920, V-A:ASP:366:CG:3213, V-B:TYR:539:CZ:9849, H-B:TYR:539:OH:9850, V-A:GLU:543:CD:4908, V-B:PRO:540:CB:9857, V-B:HIS:456:CE1:9041, H-A:GLY:454:N:4050, H-B:GLY:544:N:9887, V-A:GLY:453:C:4042, V-B:PRO:540:N:9856, V-A:HIS:456:CE1:4070, V-A:ILE:369:CD1:3239, V-B:GLY:544:C:9884, V-A:ASP:366:C:3208, V-B:GLY:544:CA:9886, V-A:GLU:543:CG:4907, V-B:GLU:543:CD:9880, V-A:ILE:369:CG1:3238, V-A:ASP:366:CB:3212, V-A:ARG:545:CD:4923, H-A:LYS:547:NZ:4951, H-A:ARG:545:NH2:4928, V-A:LEU:475:CD2:4259, V-A:ARG:545:CZ:4926, V-A:GLU:543:CB:4906, V-A:GLY:453:CA:4044, H-A:ARG:545:NE:4924, V-B:PRO:540:C:9853, V-B:ALA:541:CA:9862, H-A:HIS:456:ND1:4067, H-A:TYR:484:OH:4348"]

$$$$
ZINC2382761231
     RDKit          3D

 74 78  0  0  0  0  0  0  0  0999 V2000
  129.6820  120.9010   61.2540 C   0  0  0  0  0  0  0  0  0  0  0  0
  129.8500  122.4270   61.4780 C   0  0  0  0  0  0  0  0  0  0  0  0
  129.3340  123.1970   60.2450 C   0  0  0  0  0  0  0  0  0  0  0  0
  128.8290  122.8950   62.9130 S   0  0  0  0  0  0  0  0  0  0  0  0
  130.0760  122.3150   64.0930 C   0  0  2  0  0  0  0  0  0  0  0  0
  130.6130  123.1670   65.2660 C   0  0  2  0  0  0  0  0  0  0  0  0
  129.7930  124.2970   65.7080 N   0  0  0  0  0  0  0  0  0  0  0  0
  130.1800  125.2240   66.6010 C   0  0  0  0  0  0  0  0  0  0  0  0
  131.2680  125.2020   67.1820 O   0  0  0  0  0  0  0  0  0  0  0  0
  129.1460  126.3330   66.9140 C   0  0  2  0  0  0  0  0  0  0  0  0
  129.1040  127.3640   65.8590 N   0  0  0  0  0  0  0  0  0  0  0  0
  128.2160  128.3790   65.7560 C   0  0  0  0  0  0  0  0  0  0  0  0
  127.3910  128.5920   66.6510 O   0  0  0  0  0  0  0  0  0  0  0  0
  128.3210  129.1410   64.6210 N   0  0  0  0  0  0  0  0  0  0  0  0
  128.3190  128.5420   63.2790 C   0  0  0  0  0  0  0  0  0  0  0  0
  128.3230  129.6990   62.3020 C   0  0  0  0  0  0  0  0  0  0  0  0
  128.5670  130.8280   63.1970 N   0  0  0  0  0  0  0  0  0  0  0  0
  128.6260  132.4820   62.5750 S   0  0  0  0  0  0  0  0  0  0  0  0
  127.5870  132.3820   61.0060 C   0  0  0  0  0  0  0  0  0  0  0  0
  127.9290  133.3570   63.5240 O   0  0  0  0  0  0  0  0  0  0  0  0
  130.0120  132.7690   62.1880 O   0  0  0  0  0  0  0  0  0  0  0  0
  128.4630  130.4950   64.5710 C   0  0  0  0  0  0  0  0  0  0  0  0
  128.4910  131.2960   65.5090 O   0  0  0  0  0  0  0  0  0  0  0  0
  129.4050  126.9610   68.2730 C   0  0  0  0  0  0  0  0  0  0  0  0
  128.3810  126.9470   69.2300 C   0  0  0  0  0  0  0  0  0  0  0  0
  128.5820  127.5030   70.4890 C   0  0  0  0  0  0  0  0  0  0  0  0
  129.8110  128.0770   70.8020 C   0  0  0  0  0  0  0  0  0  0  0  0
  130.8420  128.0950   69.8660 C   0  0  0  0  0  0  0  0  0  0  0  0
  130.6410  127.5370   68.6070 C   0  0  0  0  0  0  0  0  0  0  0  0
  131.7880  123.5280   64.3270 C   0  0  0  0  0  0  0  0  0  0  0  0
  132.6880  124.3670   64.3230 O   0  0  0  0  0  0  0  0  0  0  0  0
  131.3520  122.5900   63.3860 N   0  0  0  0  0  0  0  0  0  0  0  0
  131.2900  122.8350   61.9360 C   0  0  1  0  0  0  0  0  0  0  0  0
  132.4680  122.2990   61.0880 C   0  0  0  0  0  0  0  0  0  0  0  0
  132.9750  121.1990   61.3190 O   0  0  0  0  0  0  0  0  0  0  0  0
  132.8690  123.1550   60.1220 O   0  0  0  0  0  0  0  0  0  0  0  0
  133.4990  124.3850   60.4500 C   0  0  0  0  0  0  0  0  0  0  0  0
  132.4340  125.4520   60.6500 C   0  0  0  0  0  0  0  0  0  0  0  0
  131.9780  125.7280   61.9440 C   0  0  0  0  0  0  0  0  0  0  0  0
  131.0040  126.7040   62.1540 C   0  0  0  0  0  0  0  0  0  0  0  0
  130.5680  126.9640   63.4070 F   0  0  0  0  0  0  0  0  0  0  0  0
  130.4800  127.4100   61.0720 C   0  0  0  0  0  0  0  0  0  0  0  0
  130.9310  127.1410   59.7810 C   0  0  0  0  0  0  0  0  0  0  0  0
  131.9060  126.1660   59.5640 C   0  0  0  0  0  0  0  0  0  0  0  0
  132.4980  125.8430   57.7780 Br  0  0  0  0  0  0  0  0  0  0  0  0
  129.6259  120.3915   62.2273 H   0  0  0  0  0  0  0  0  0  0  0  0
  128.7577  120.7131   60.6879 H   0  0  0  0  0  0  0  0  0  0  0  0
  130.5432  120.5165   60.6879 H   0  0  0  0  0  0  0  0  0  0  0  0
  128.7499  124.0687   60.5751 H   0  0  0  0  0  0  0  0  0  0  0  0
  130.1882  123.5357   59.6403 H   0  0  0  0  0  0  0  0  0  0  0  0
  128.6960  122.5357   59.6403 H   0  0  0  0  0  0  0  0  0  0  0  0
  129.6133  121.3728   64.4219 H   0  0  0  0  0  0  0  0  0  0  0  0
  130.7523  122.7388   66.2696 H   0  0  0  0  0  0  0  0  0  0  0  0
  128.8860  124.3870   65.2740 H   0  0  0  0  0  0  0  0  0  0  0  0
  128.1580  125.8503   66.9416 H   0  0  0  0  0  0  0  0  0  0  0  0
  129.6940  127.1740   65.0630 H   0  0  0  0  0  0  0  0  0  0  0  0
  129.2150  127.9198   63.1374 H   0  0  0  0  0  0  0  0  0  0  0  0
  127.4431  127.8935   63.1300 H   0  0  0  0  0  0  0  0  0  0  0  0
  129.1258  129.5945   61.5573 H   0  0  0  0  0  0  0  0  0  0  0  0
  127.4035  129.7878   61.7049 H   0  0  0  0  0  0  0  0  0  0  0  0
  126.5253  132.2798   61.2752 H   0  0  0  0  0  0  0  0  0  0  0  0
  127.7285  133.2979   60.4135 H   0  0  0  0  0  0  0  0  0  0  0  0
  127.9006  131.5099   60.4135 H   0  0  0  0  0  0  0  0  0  0  0  0
  127.4102  126.4924   68.9833 H   0  0  0  0  0  0  0  0  0  0  0  0
  127.7731  127.4892   71.2343 H   0  0  0  0  0  0  0  0  0  0  0  0
  129.9690  128.5198   71.7965 H   0  0  0  0  0  0  0  0  0  0  0  0
  131.8113  128.5484   70.1207 H   0  0  0  0  0  0  0  0  0  0  0  0
  131.4562  127.5473   67.8685 H   0  0  0  0  0  0  0  0  0  0  0  0
  131.4512  123.9046   61.7362 H   0  0  0  0  0  0  0  0  0  0  0  0
  134.0796  124.2658   61.3767 H   0  0  0  0  0  0  0  0  0  0  0  0
  134.1747  124.6841   59.6351 H   0  0  0  0  0  0  0  0  0  0  0  0
  132.3897  125.1725   62.7996 H   0  0  0  0  0  0  0  0  0  0  0  0
  129.7110  128.1790   61.2372 H   0  0  0  0  0  0  0  0  0  0  0  0
  130.5166  127.6998   58.9289 H   0  0  0  0  0  0  0  0  0  0  0  0
  1  2  1  0
  2  3  1  0
  2  4  1  0
  4  5  1  0
  5  6  1  0
  6  7  1  0
  7  8  1  0
  8  9  2  0
  8 10  1  0
 10 11  1  0
 11 12  1  0
 12 13  2  0
 12 14  1  0
 14 15  1  0
 15 16  1  0
 16 17  1  0
 17 18  1  0
 18 19  1  0
 18 20  2  0
 18 21  2  0
 17 22  1  0
 22 23  2  0
 10 24  1  0
 24 25  2  0
 25 26  1  0
 26 27  2  0
 27 28  1  0
 28 29  2  0
  6 30  1  0
 30 31  2  0
 30 32  1  0
 32 33  1  0
 33 34  1  0
 34 35  2  0
 34 36  1  0
 36 37  1  0
 37 38  1  0
 38 39  2  0
 39 40  1  0
 40 41  1  0
 40 42  2  0
 42 43  1  0
 43 44  2  0
 44 45  1  0
 33  2  1  0
 44 38  1  0
 32  5  1  0
 22 14  1  0
 29 24  1  0
  1 46  1  0
  1 47  1  0
  1 48  1  0
  3 49  1  0
  3 50  1  0
  3 51  1  0
  5 52  1  1
  6 53  1  1
  7 54  1  0
 10 55  1  1
 11 56  1  0
 15 57  1  0
 15 58  1  0
 16 59  1  0
 16 60  1  0
 19 61  1  0
 19 62  1  0
 19 63  1  0
 25 64  1  0
 26 65  1  0
 27 66  1  0
 28 67  1  0
 29 68  1  0
 33 69  1  1
 37 70  1  0
 37 71  1  0
 39 72  1  0
 42 73  1  0
 43 74  1  0
M  END
>  <Binding energies>  (1) 
[-9.45]

>  <Ligand effiencies>  (1) 
[-0.20106382978723403]

>  <Interactions>  (1) 
["V-A:ASP:366:CA:3210, V-B:GLU:543:C:9874, H-A:GLU:543:OE2:4910, V-A:GLU:543:C:4902, H-A:ALA:541:N:4891, V-B:GLU:543:CB:9878, V-B:ALA:541:CB:9864, V-B:TYR:539:CE2:9848, V-A:TYR:484:CE2:4346, V-B:GLU:543:CG:9879, V-A:GLY:544:C:4912, V-A:ASP:366:CG:3213, H-B:GLU:543:OE1:9881, V-A:ALA:541:CB:4892, V-A:TYR:484:CZ:4347, V-A:GLU:543:CD:4908, H-B:TYR:484:OH:9319, V-B:HIS:456:CE1:9041, V-A:HIS:456:CE1:4070, V-B:TYR:539:CD2:9846, V-A:GLU:543:CG:4907, H-A:SER:385:OG:3410, V-B:GLU:543:CD:9880, V-A:ASP:366:CB:3212, V-A:LEU:475:CD2:4259, H-A:GLU:543:OE1:4909, V-A:GLU:543:CB:4906, H-B:GLU:543:OE2:9882, H-A:TYR:484:OH:4348"]

$$$$
ZINC2382911720
     RDKit          3D

 42 45  0  0  0  0  0  0  0  0999 V2000
  129.1130  122.9830   64.7710 O   0  0  0  0  0  0  0  0  0  0  0  0
  129.4600  123.6940   63.8210 C   0  0  0  0  0  0  0  0  0  0  0  0
  129.0690  123.2430   62.4280 C   0  0  0  0  0  0  0  0  0  0  0  0
  129.8000  122.2280   61.7940 C   0  0  0  0  0  0  0  0  0  0  0  0
  129.4560  121.7980   60.5120 C   0  0  0  0  0  0  0  0  0  0  0  0
  128.3830  122.3840   59.8400 C   0  0  0  0  0  0  0  0  0  0  0  0
  128.0530  121.9560   58.6010 F   0  0  0  0  0  0  0  0  0  0  0  0
  127.6620  123.4130   60.4500 C   0  0  0  0  0  0  0  0  0  0  0  0
  126.0500  124.3230   59.4710 I   0  0  0  0  0  0  0  0  0  0  0  0
  128.0130  123.8450   61.7280 C   0  0  0  0  0  0  0  0  0  0  0  0
  130.1640  124.8630   63.9890 N   0  0  0  0  0  0  0  0  0  0  0  0
  129.5020  126.1010   63.8300 C   0  0  0  0  0  0  0  0  0  0  0  0
  129.2410  126.5960   62.5450 C   0  0  0  0  0  0  0  0  0  0  0  0
  128.5940  127.8210   62.3850 C   0  0  0  0  0  0  0  0  0  0  0  0
  128.2040  128.5610   63.5010 C   0  0  0  0  0  0  0  0  0  0  0  0
  127.5790  129.7490   63.3300 F   0  0  0  0  0  0  0  0  0  0  0  0
  128.4580  128.0720   64.7860 C   0  0  0  0  0  0  0  0  0  0  0  0
  127.9810  128.9740   66.1790 Cl  0  0  0  0  0  0  0  0  0  0  0  0
  129.1030  126.8450   64.9490 C   0  0  0  0  0  0  0  0  0  0  0  0
  131.5760  124.8950   64.0940 C   0  0  0  0  0  0  0  0  0  0  0  0
  132.0890  125.0810   65.3400 N   0  0  0  0  0  0  0  0  0  0  0  0
  133.4370  125.0950   65.4400 C   0  0  0  0  0  0  0  0  0  0  0  0
  134.3290  124.9400   64.4320 N   0  0  0  0  0  0  0  0  0  0  0  0
  133.8170  124.7540   63.1820 C   0  0  0  0  0  0  0  0  0  0  0  0
  134.7120  124.6020   62.0970 C   0  0  0  0  0  0  0  0  0  0  0  0
  134.2260  124.4250   60.8040 C   0  0  0  0  0  0  0  0  0  0  0  0
  135.1070  124.2960   59.7850 F   0  0  0  0  0  0  0  0  0  0  0  0
  132.8510  124.3880   60.5570 C   0  0  0  0  0  0  0  0  0  0  0  0
  132.3450  124.2290   59.1860 N   0  0  0  0  0  0  0  0  0  0  0  0
  131.1370  124.3430   59.0060 O   0  0  0  0  0  0  0  0  0  0  0  0
  133.1620  124.0040   58.2990 O   0  0  0  0  0  0  0  0  0  0  0  0
  131.9480  124.5420   61.6090 C   0  0  0  0  0  0  0  0  0  0  0  0
  132.4090  124.7200   62.9410 C   0  0  0  0  0  0  0  0  0  0  0  0
  130.6531  121.7662   62.3126 H   0  0  0  0  0  0  0  0  0  0  0  0
  130.0324  120.9947   60.0298 H   0  0  0  0  0  0  0  0  0  0  0  0
  127.4539  124.6697   62.1942 H   0  0  0  0  0  0  0  0  0  0  0  0
  129.5470  126.0172   61.6611 H   0  0  0  0  0  0  0  0  0  0  0  0
  128.3904  128.2051   61.3746 H   0  0  0  0  0  0  0  0  0  0  0  0
  129.2992  126.4599   65.9606 H   0  0  0  0  0  0  0  0  0  0  0  0
  133.8539  125.2485   66.4463 H   0  0  0  0  0  0  0  0  0  0  0  0
  135.7972  124.6237   62.2756 H   0  0  0  0  0  0  0  0  0  0  0  0
  130.8672  124.5254   61.4050 H   0  0  0  0  0  0  0  0  0  0  0  0
  1  2  2  0
  2  3  1  0
  3  4  2  0
  4  5  1  0
  5  6  2  0
  6  7  1  0
  6  8  1  0
  8  9  1  0
  8 10  2  0
  2 11  1  0
 11 12  1  0
 12 13  2  0
 13 14  1  0
 14 15  2  0
 15 16  1  0
 15 17  1  0
 17 18  1  0
 17 19  2  0
 11 20  1  0
 20 21  2  0
 21 22  1  0
 22 23  2  0
 23 24  1  0
 24 25  2  0
 25 26  1  0
 26 27  1  0
 26 28  2  0
 28 29  1  0
 29 30  2  0
 29 31  1  0
 28 32  1  0
 32 33  2  0
 10  3  1  0
 19 12  1  0
 33 20  1  0
 33 24  1  0
  4 34  1  0
  5 35  1  0
 10 36  1  0
 13 37  1  0
 14 38  1  0
 19 39  1  0
 22 40  1  0
 25 41  1  0
 32 42  1  0
M  CHG  2  29   1  31  -1
M  END
>  <Binding energies>  (1) 
[-8.18]

>  <Ligand effiencies>  (1) 
[-0.24787878787878787]

>  <Interactions>  (1) 
["V-B:TYR:539:CA:9841, V-A:ASP:366:CA:3210, V-B:PRO:540:CA:9855, V-A:ILE:369:CG2:3237, V-A:ILE:369:CB:3236, H-A:ARG:545:NH1:4927, V-B:TYR:539:CE2:9848, V-B:GLU:543:CG:9879, V-B:TYR:539:C:9839, V-A:ASP:366:CG:3213, V-B:TYR:539:CZ:9849, H-B:TYR:539:OH:9850, V-A:GLU:543:CD:4908, V-B:PRO:540:CB:9857, H-A:GLY:454:N:4050, V-A:GLY:453:C:4042, V-B:PRO:540:N:9856, V-A:ILE:369:CD1:3239, V-A:ASP:366:C:3208, V-B:TYR:539:CD2:9846, V-A:GLU:543:CG:4907, V-B:GLU:543:CD:9880, V-A:ILE:369:CG1:3238, V-A:ASP:366:CB:3212, V-A:ARG:545:CD:4923, H-A:ARG:545:NH2:4928, V-A:ARG:545:CZ:4926, V-B:TYR:539:CG:9844, V-A:GLU:543:CB:4906, V-A:GLY:453:CA:4044, H-A:ARG:545:NE:4924, H-A:TYR:484:OH:4348"]

$$$$
ZINC2382985634
     RDKit          3D

 80 84  0  0  0  0  0  0  0  0999 V2000
  129.8520  121.0330   61.9890 C   0  0  0  0  0  0  0  0  0  0  0  0
  129.6960  122.5760   61.9530 C   0  0  0  0  0  0  0  0  0  0  0  0
  128.6110  122.9650   60.9270 C   0  0  0  0  0  0  0  0  0  0  0  0
  129.1500  123.1210   63.6010 S   0  0  0  0  0  0  0  0  0  0  0  0
  130.8280  123.0670   64.2840 C   0  0  2  0  0  0  0  0  0  0  0  0
  131.5190  124.2420   65.0200 C   0  0  2  0  0  0  0  0  0  0  0  0
  130.6730  125.2600   65.6720 N   0  0  0  0  0  0  0  0  0  0  0  0
  129.8360  125.1370   66.7240 C   0  0  0  0  0  0  0  0  0  0  0  0
  129.6450  124.0860   67.3390 O   0  0  0  0  0  0  0  0  0  0  0  0
  129.1140  126.4470   67.1550 C   0  0  2  0  0  0  0  0  0  0  0  0
  128.9930  127.4240   66.0490 N   0  0  0  0  0  0  0  0  0  0  0  0
  128.2050  128.5250   65.9810 C   0  0  0  0  0  0  0  0  0  0  0  0
  127.4380  128.8140   66.9050 O   0  0  0  0  0  0  0  0  0  0  0  0
  128.3110  129.2540   64.8240 N   0  0  0  0  0  0  0  0  0  0  0  0
  128.2920  128.6180   63.4990 C   0  0  0  0  0  0  0  0  0  0  0  0
  128.5440  129.7260   62.4970 C   0  0  0  0  0  0  0  0  0  0  0  0
  128.4350  130.9080   63.3480 N   0  0  0  0  0  0  0  0  0  0  0  0
  128.6600  132.5310   62.6820 S   0  0  0  0  0  0  0  0  0  0  0  0
  127.7050  132.4590   61.0560 C   0  0  0  0  0  0  0  0  0  0  0  0
  127.9790  133.4800   63.5700 O   0  0  0  0  0  0  0  0  0  0  0  0
  130.0810  132.7050   62.3630 O   0  0  0  0  0  0  0  0  0  0  0  0
  128.4060  130.6100   64.7330 C   0  0  0  0  0  0  0  0  0  0  0  0
  128.4640  131.4360   65.6470 O   0  0  0  0  0  0  0  0  0  0  0  0
  129.6150  127.1230   68.4330 C   0  0  0  0  0  0  0  0  0  0  0  0
  130.9580  127.4790   68.6410 C   0  0  0  0  0  0  0  0  0  0  0  0
  131.3520  128.0970   69.8250 C   0  0  0  0  0  0  0  0  0  0  0  0
  130.4080  128.3650   70.8120 C   0  0  0  0  0  0  0  0  0  0  0  0
  129.0740  128.0210   70.6240 C   0  0  0  0  0  0  0  0  0  0  0  0
  128.6810  127.4040   69.4410 C   0  0  0  0  0  0  0  0  0  0  0  0
  132.1990  124.5600   63.6610 C   0  0  0  0  0  0  0  0  0  0  0  0
  132.8410  125.4990   63.1950 O   0  0  0  0  0  0  0  0  0  0  0  0
  131.6730  123.3900   63.1030 N   0  0  0  0  0  0  0  0  0  0  0  0
  131.0490  123.3370   61.7750 C   0  0  1  0  0  0  0  0  0  0  0  0
  131.9610  122.8530   60.6320 C   0  0  0  0  0  0  0  0  0  0  0  0
  132.4590  121.7250   60.6250 O   0  0  0  0  0  0  0  0  0  0  0  0
  132.1580  123.8090   59.7020 O   0  0  0  0  0  0  0  0  0  0  0  0
  131.2900  124.9320   59.6110 C   0  0  0  0  0  0  0  0  0  0  0  0
  131.9660  126.1670   60.2380 C   0  0  0  0  0  0  0  0  0  0  0  0
  130.9870  127.2320   60.7840 C   0  0  0  0  0  0  0  0  0  0  0  0
  130.9920  128.5370   60.0000 C   0  0  0  0  0  0  0  0  0  0  0  0
  130.8850  128.5150   58.6050 C   0  0  0  0  0  0  0  0  0  0  0  0
  130.8740  129.7080   57.8890 C   0  0  0  0  0  0  0  0  0  0  0  0
  130.9750  130.9220   58.5670 C   0  0  0  0  0  0  0  0  0  0  0  0
  130.9580  132.5540   57.5880 Br  0  0  0  0  0  0  0  0  0  0  0  0
  131.0880  130.9510   59.9570 C   0  0  0  0  0  0  0  0  0  0  0  0
  131.0950  129.7570   60.6740 C   0  0  0  0  0  0  0  0  0  0  0  0
  129.8865  120.6922   63.0343 H   0  0  0  0  0  0  0  0  0  0  0  0
  128.9965  120.5660   61.4791 H   0  0  0  0  0  0  0  0  0  0  0  0
  130.7837  120.7467   61.4791 H   0  0  0  0  0  0  0  0  0  0  0  0
  127.7041  123.2901   61.4579 H   0  0  0  0  0  0  0  0  0  0  0  0
  128.9808  123.7865   60.2959 H   0  0  0  0  0  0  0  0  0  0  0  0
  128.3746  122.0956   60.2959 H   0  0  0  0  0  0  0  0  0  0  0  0
  130.7488  122.1647   64.9082 H   0  0  0  0  0  0  0  0  0  0  0  0
  132.1072  124.1041   65.9392 H   0  0  0  0  0  0  0  0  0  0  0  0
  130.8060  126.1960   65.3190 H   0  0  0  0  0  0  0  0  0  0  0  0
  128.1119  126.0797   67.4214 H   0  0  0  0  0  0  0  0  0  0  0  0
  129.7220  127.3450   65.3560 H   0  0  0  0  0  0  0  0  0  0  0  0
  129.0812  127.8548   63.4306 H   0  0  0  0  0  0  0  0  0  0  0  0
  127.3325  128.1149   63.3087 H   0  0  0  0  0  0  0  0  0  0  0  0
  129.5447  129.6435   62.0479 H   0  0  0  0  0  0  0  0  0  0  0  0
  127.8567  129.7230   61.6381 H   0  0  0  0  0  0  0  0  0  0  0  0
  126.6284  132.3778   61.2664 H   0  0  0  0  0  0  0  0  0  0  0  0
  127.8975  133.3742   60.4769 H   0  0  0  0  0  0  0  0  0  0  0  0
  128.0325  131.5830   60.4769 H   0  0  0  0  0  0  0  0  0  0  0  0
  131.7049  127.2677   67.8616 H   0  0  0  0  0  0  0  0  0  0  0  0
  132.4057  128.3724   69.9797 H   0  0  0  0  0  0  0  0  0  0  0  0
  130.7195  128.8525   71.7476 H   0  0  0  0  0  0  0  0  0  0  0  0
  128.3325  128.2359   71.4076 H   0  0  0  0  0  0  0  0  0  0  0  0
  127.6250  127.1332   69.2942 H   0  0  0  0  0  0  0  0  0  0  0  0
  130.8480  124.3542   61.4077 H   0  0  0  0  0  0  0  0  0  0  0  0
  131.0662  125.1358   58.5534 H   0  0  0  0  0  0  0  0  0  0  0  0
  130.3573  124.7147   60.1522 H   0  0  0  0  0  0  0  0  0  0  0  0
  132.5996  125.8255   61.0698 H   0  0  0  0  0  0  0  0  0  0  0  0
  132.5351  126.6526   59.4316 H   0  0  0  0  0  0  0  0  0  0  0  0
  129.9698  126.8144   60.7543 H   0  0  0  0  0  0  0  0  0  0  0  0
  131.3160  127.4730   61.8056 H   0  0  0  0  0  0  0  0  0  0  0  0
  130.8096  127.5544   58.0743 H   0  0  0  0  0  0  0  0  0  0  0  0
  130.7860  129.6934   56.7926 H   0  0  0  0  0  0  0  0  0  0  0  0
  131.1712  131.9127   60.4845 H   0  0  0  0  0  0  0  0  0  0  0  0
  131.1816  129.7742   61.7705 H   0  0  0  0  0  0  0  0  0  0  0  0
  1  2  1  0
  2  3  1  0
  2  4  1  0
  4  5  1  0
  5  6  1  0
  6  7  1  0
  7  8  1  0
  8  9  2  0
  8 10  1  0
 10 11  1  0
 11 12  1  0
 12 13  2  0
 12 14  1  0
 14 15  1  0
 15 16  1  0
 16 17  1  0
 17 18  1  0
 18 19  1  0
 18 20  2  0
 18 21  2  0
 17 22  1  0
 22 23  2  0
 10 24  1  0
 24 25  2  0
 25 26  1  0
 26 27  2  0
 27 28  1  0
 28 29  2  0
  6 30  1  0
 30 31  2  0
 30 32  1  0
 32 33  1  0
 33 34  1  0
 34 35  2  0
 34 36  1  0
 36 37  1  0
 37 38  1  0
 38 39  1  0
 39 40  1  0
 40 41  2  0
 41 42  1  0
 42 43  2  0
 43 44  1  0
 43 45  1  0
 45 46  2  0
 33  2  1  0
 46 40  1  0
 32  5  1  0
 22 14  1  0
 29 24  1  0
  1 47  1  0
  1 48  1  0
  1 49  1  0
  3 50  1  0
  3 51  1  0
  3 52  1  0
  5 53  1  1
  6 54  1  1
  7 55  1  0
 10 56  1  1
 11 57  1  0
 15 58  1  0
 15 59  1  0
 16 60  1  0
 16 61  1  0
 19 62  1  0
 19 63  1  0
 19 64  1  0
 25 65  1  0
 26 66  1  0
 27 67  1  0
 28 68  1  0
 29 69  1  0
 33 70  1  6
 37 71  1  0
 37 72  1  0
 38 73  1  0
 38 74  1  0
 39 75  1  0
 39 76  1  0
 41 77  1  0
 42 78  1  0
 45 79  1  0
 46 80  1  0
M  END
>  <Binding energies>  (1) 
[-10.17]

>  <Ligand effiencies>  (1) 
[-0.211875]

>  <Interactions>  (1) 
["V-B:PRO:540:CA:9855, V-A:GLU:543:CA:4904, V-A:ARG:545:CA:4919, V-B:HIS:456:CD2:9039, H-A:GLU:543:OE2:4910, V-A:GLU:543:C:4902, H-A:ALA:541:N:4891, V-B:GLU:543:CB:9878, V-B:ALA:541:CB:9864, V-B:TYR:539:CE2:9848, V-A:TYR:484:CE2:4346, V-B:GLU:543:CG:9879, V-A:GLY:544:C:4912, V-A:ASP:366:CG:3213, V-A:ALA:541:CB:4892, V-A:TYR:484:CZ:4347, V-A:GLU:543:CD:4908, H-B:TYR:484:OH:9319, V-B:GLU:543:CA:9876, V-A:ARG:545:CG:4922, V-B:HIS:456:CE1:9041, V-A:HIS:456:CE1:4070, V-A:GLU:543:CG:4907, V-B:GLU:543:CD:9880, V-A:ASP:366:CB:3212, V-A:LEU:475:CD2:4259, H-A:ARG:545:NH2:4928, H-A:GLU:543:OE1:4909, V-A:GLU:543:CB:4906, V-A:PRO:540:N:4884, V-A:PRO:540:CB:4885, V-A:PRO:540:CA:4883, V-A:PRO:540:CD:4887, H-A:TYR:484:OH:4348"]

$$$$
ZINC2383097604
     RDKit          3D

121126  0  0  0  0  0  0  0  0999 V2000
  127.3940  132.2740   58.7130 C   0  0  0  0  0  0  0  0  0  0  0  0
  128.7380  132.1680   58.7580 C   0  0  0  0  0  0  0  0  0  0  0  0
  129.6670  133.1360   58.0140 C   0  0  0  0  0  0  0  0  0  0  0  0
  130.4580  132.5820   56.8120 C   0  0  0  0  0  0  0  0  0  0  0  0
  130.9700  131.1680   57.0350 C   0  0  0  0  0  0  0  0  0  0  0  0
  132.0050  130.7850   57.8110 C   0  0  0  0  0  0  0  0  0  0  0  0
  132.4200  129.3260   57.9140 C   0  0  0  0  0  0  0  0  0  0  0  0
  132.8410  131.7310   58.6640 C   0  0  0  0  0  0  0  0  0  0  0  0
  129.3920  131.0450   59.5850 C   0  0  1  0  0  0  0  0  0  0  0  0
  129.5320  131.3390   61.0980 C   0  0  0  0  0  0  0  0  0  0  0  0
  129.2600  129.9950   61.8040 C   0  0  0  0  0  0  0  0  0  0  0  0
  128.2220  129.2560   60.9210 C   0  0  1  0  0  0  0  0  0  0  0  0
  126.8120  129.8470   61.2430 C   0  0  0  0  0  0  0  0  0  0  0  0
  128.7580  129.6250   59.5180 C   0  0  1  0  0  0  0  0  0  0  0  0
  127.8310  129.1370   58.3790 C   0  0  1  0  0  0  0  0  0  0  0  0
  128.3410  129.5250   57.1180 O   0  0  0  0  0  0  0  0  0  0  0  0
  127.6480  127.6000   58.4670 C   0  0  0  0  0  0  0  0  0  0  0  0
  127.2910  127.0470   59.8930 C   0  0  2  0  0  0  0  0  0  0  0  0
  128.1560  127.6870   61.0450 C   0  0  1  0  0  0  0  0  0  0  0  0
  129.4930  126.9090   61.0630 C   0  0  0  0  0  0  0  0  0  0  0  0
  129.2920  125.4480   61.5100 C   0  0  1  0  0  0  0  0  0  0  0  0
  128.7440  125.4880   62.8350 O   0  0  0  0  0  0  0  0  0  0  0  0
  129.5240  125.0520   63.9080 C   0  0  2  0  0  0  0  0  0  0  0  0
  129.1050  125.6880   65.0890 O   0  0  0  0  0  0  0  0  0  0  0  0
  129.7660  125.2190   66.2670 C   0  0  2  0  0  0  0  0  0  0  0  0
  129.0740  125.8700   67.4840 C   0  0  0  0  0  0  0  0  0  0  0  0
  128.3360  127.0120   67.1020 O   0  0  0  0  0  0  0  0  0  0  0  0
  131.2630  125.6000   66.1710 C   0  0  1  0  0  0  0  0  0  0  0  0
  131.9930  125.1060   67.2800 O   0  0  0  0  0  0  0  0  0  0  0  0
  131.8710  125.1060   64.8400 C   0  0  2  0  0  0  0  0  0  0  0  0
  133.1890  125.6040   64.6710 O   0  0  0  0  0  0  0  0  0  0  0  0
  130.9840  125.4740   63.6260 C   0  0  1  0  0  0  0  0  0  0  0  0
  131.5750  124.8730   62.4680 O   0  0  0  0  0  0  0  0  0  0  0  0
  132.9400  125.0810   62.2250 C   0  0  2  0  0  0  0  0  0  0  0  0
  133.1920  125.3160   60.8600 O   0  0  0  0  0  0  0  0  0  0  0  0
  132.8180  124.2490   59.9770 C   0  0  1  0  0  0  0  0  0  0  0  0
  133.0820  124.7350   58.5410 C   0  0  0  0  0  0  0  0  0  0  0  0
  133.5890  122.9520   60.3260 C   0  0  2  0  0  0  0  0  0  0  0  0
  133.1820  121.8710   59.5030 O   0  0  0  0  0  0  0  0  0  0  0  0
  133.3860  122.6130   61.8170 C   0  0  1  0  0  0  0  0  0  0  0  0
  134.1180  121.4640   62.2120 O   0  0  0  0  0  0  0  0  0  0  0  0
  133.7070  123.8380   62.7060 C   0  0  1  0  0  0  0  0  0  0  0  0
  135.0970  124.1140   62.7770 O   0  0  0  0  0  0  0  0  0  0  0  0
  128.4090  124.6780   60.4700 C   0  0  2  0  0  0  0  0  0  0  0  0
  129.2450  123.8510   59.3950 C   0  0  0  0  0  0  0  0  0  0  0  0
  130.2650  124.7190   58.6130 C   0  0  0  0  0  0  0  0  0  0  0  0
  130.0280  122.7060   60.1100 C   0  0  0  0  0  0  0  0  0  0  0  0
  128.2780  123.1990   58.3500 C   0  0  1  0  0  0  0  0  0  0  0  0
  127.5380  122.1070   58.8800 O   0  0  0  0  0  0  0  0  0  0  0  0
  127.3040  124.2190   57.7350 C   0  0  0  0  0  0  0  0  0  0  0  0
  126.3900  124.8840   58.7770 C   0  0  0  0  0  0  0  0  0  0  0  0
  127.0780  125.4760   60.0530 C   0  0  2  0  0  0  0  0  0  0  0  0
  126.0380  125.2920   61.2110 C   0  0  0  0  0  0  0  0  0  0  0  0
  126.7670  131.5567   59.2628 H   0  0  0  0  0  0  0  0  0  0  0  0
  126.9250  133.0778   58.1265 H   0  0  0  0  0  0  0  0  0  0  0  0
  129.0491  133.9684   57.6462 H   0  0  0  0  0  0  0  0  0  0  0  0
  130.4350  133.4101   58.7523 H   0  0  0  0  0  0  0  0  0  0  0  0
  129.8000  132.5810   55.9305 H   0  0  0  0  0  0  0  0  0  0  0  0
  131.3356  133.2299   56.6705 H   0  0  0  0  0  0  0  0  0  0  0  0
  130.4361  130.3665   56.5035 H   0  0  0  0  0  0  0  0  0  0  0  0
  132.5009  129.0417   58.9735 H   0  0  0  0  0  0  0  0  0  0  0  0
  131.6658  128.6946   57.4215 H   0  0  0  0  0  0  0  0  0  0  0  0
  133.3936  129.1861   57.4215 H   0  0  0  0  0  0  0  0  0  0  0  0
  132.6577  131.5236   59.7286 H   0  0  0  0  0  0  0  0  0  0  0  0
  133.9074  131.5814   58.4396 H   0  0  0  0  0  0  0  0  0  0  0  0
  132.5614  132.7709   58.4396 H   0  0  0  0  0  0  0  0  0  0  0  0
  130.3613  131.0362   59.0651 H   0  0  0  0  0  0  0  0  0  0  0  0
  130.5466  131.6961   61.3283 H   0  0  0  0  0  0  0  0  0  0  0  0
  128.8345  132.1228   61.4284 H   0  0  0  0  0  0  0  0  0  0  0  0
  130.1868  129.4072   61.8788 H   0  0  0  0  0  0  0  0  0  0  0  0
  128.8871  130.1440   62.8281 H   0  0  0  0  0  0  0  0  0  0  0  0
  126.6782  129.9031   62.3334 H   0  0  0  0  0  0  0  0  0  0  0  0
  126.7297  130.8553   60.8112 H   0  0  0  0  0  0  0  0  0  0  0  0
  126.0353  129.1987   60.8112 H   0  0  0  0  0  0  0  0  0  0  0  0
  129.6272  129.0464   59.1721 H   0  0  0  0  0  0  0  0  0  0  0  0
  126.8438  129.6083   58.4948 H   0  0  0  0  0  0  0  0  0  0  0  0
  127.6930  129.3010   56.4460 H   0  0  0  0  0  0  0  0  0  0  0  0
  126.8385  127.3143   57.7793 H   0  0  0  0  0  0  0  0  0  0  0  0
  128.6229  127.1622   58.2064 H   0  0  0  0  0  0  0  0  0  0  0  0
  126.2608  127.4124   60.0161 H   0  0  0  0  0  0  0  0  0  0  0  0
  127.7085  127.5779   62.0439 H   0  0  0  0  0  0  0  0  0  0  0  0
  129.9244  126.9168   60.0512 H   0  0  0  0  0  0  0  0  0  0  0  0
  130.1672  127.3992   61.7807 H   0  0  0  0  0  0  0  0  0  0  0  0
  130.2372  124.8864   61.5450 H   0  0  0  0  0  0  0  0  0  0  0  0
  129.4318  123.9620   64.0240 H   0  0  0  0  0  0  0  0  0  0  0  0
  129.7037  124.1260   66.3742 H   0  0  0  0  0  0  0  0  0  0  0  0
  128.3918  125.1388   67.9423 H   0  0  0  0  0  0  0  0  0  0  0  0
  129.8490  126.1800   68.2005 H   0  0  0  0  0  0  0  0  0  0  0  0
  127.7510  126.7700   66.3790 H   0  0  0  0  0  0  0  0  0  0  0  0
  131.3329  126.6976   66.1913 H   0  0  0  0  0  0  0  0  0  0  0  0
  132.8040  124.7050   66.9600 H   0  0  0  0  0  0  0  0  0  0  0  0
  131.9168  124.0081   64.8902 H   0  0  0  0  0  0  0  0  0  0  0  0
  133.2160  126.5100   64.9880 H   0  0  0  0  0  0  0  0  0  0  0  0
  130.9361  126.5574   63.4417 H   0  0  0  0  0  0  0  0  0  0  0  0
  133.2748  125.9747   62.7721 H   0  0  0  0  0  0  0  0  0  0  0  0
  131.7530  123.9947   60.0827 H   0  0  0  0  0  0  0  0  0  0  0  0
  133.6069  125.7012   58.5716 H   0  0  0  0  0  0  0  0  0  0  0  0
  133.7031  123.9969   58.0125 H   0  0  0  0  0  0  0  0  0  0  0  0
  132.1247  124.8543   58.0125 H   0  0  0  0  0  0  0  0  0  0  0  0
  134.6596  123.1208   60.1379 H   0  0  0  0  0  0  0  0  0  0  0  0
  133.2410  121.0610   60.0150 H   0  0  0  0  0  0  0  0  0  0  0  0
  132.3242  122.3628   61.9581 H   0  0  0  0  0  0  0  0  0  0  0  0
  134.9570  121.7490   62.5830 H   0  0  0  0  0  0  0  0  0  0  0  0
  133.3750  123.5816   63.7229 H   0  0  0  0  0  0  0  0  0  0  0  0
  135.2790  124.8920   62.2450 H   0  0  0  0  0  0  0  0  0  0  0  0
  127.9327  123.8190   60.9651 H   0  0  0  0  0  0  0  0  0  0  0  0
  130.9044  125.2631   59.3237 H   0  0  0  0  0  0  0  0  0  0  0  0
  130.8891  124.0708   57.9803 H   0  0  0  0  0  0  0  0  0  0  0  0
  129.7250  125.4388   57.9803 H   0  0  0  0  0  0  0  0  0  0  0  0
  129.9438  122.8292   61.1998 H   0  0  0  0  0  0  0  0  0  0  0  0
  129.6047  121.7339   59.8171 H   0  0  0  0  0  0  0  0  0  0  0  0
  131.0875  122.7478   59.8171 H   0  0  0  0  0  0  0  0  0  0  0  0
  128.9396  122.8150   57.5596 H   0  0  0  0  0  0  0  0  0  0  0  0
  128.1560  121.4660   59.2390 H   0  0  0  0  0  0  0  0  0  0  0  0
  127.8894  125.0027   57.2318 H   0  0  0  0  0  0  0  0  0  0  0  0
  126.6574  123.6728   57.0324 H   0  0  0  0  0  0  0  0  0  0  0  0
  125.8583  125.7060   58.2753 H   0  0  0  0  0  0  0  0  0  0  0  0
  125.7461  124.0739   59.1500 H   0  0  0  0  0  0  0  0  0  0  0  0
  126.5492  125.3824   62.1808 H   0  0  0  0  0  0  0  0  0  0  0  0
  125.2610  126.0666   61.1325 H   0  0  0  0  0  0  0  0  0  0  0  0
  125.5739  124.2978   61.1325 H   0  0  0  0  0  0  0  0  0  0  0  0
  1  2  2  0
  2  3  1  0
  3  4  1  0
  4  5  1  0
  5  6  2  3
  6  7  1  0
  6  8  1  0
  2  9  1  0
  9 10  1  0
 10 11  1  0
 11 12  1  0
 12 13  1  6
 12 14  1  0
 14 15  1  0
 15 16  1  0
 15 17  1  0
 17 18  1  0
 18 19  1  0
 19 20  1  0
 20 21  1  0
 21 22  1  0
 22 23  1  0
 23 24  1  0
 24 25  1  0
 25 26  1  0
 26 27  1  0
 25 28  1  0
 28 29  1  0
 28 30  1  0
 30 31  1  0
 30 32  1  0
 32 33  1  0
 33 34  1  0
 34 35  1  0
 35 36  1  0
 36 37  1  0
 36 38  1  0
 38 39  1  0
 38 40  1  0
 40 41  1  0
 40 42  1  0
 42 43  1  0
 21 44  1  0
 44 45  1  0
 45 46  1  0
 45 47  1  0
 45 48  1  0
 48 49  1  0
 48 50  1  0
 50 51  1  0
 51 52  1  0
 52 53  1  1
 14  9  1  0
 52 18  1  0
 19 12  1  0
 32 23  1  0
 42 34  1  0
 52 44  1  0
  1 54  1  0
  1 55  1  0
  3 56  1  0
  3 57  1  0
  4 58  1  0
  4 59  1  0
  5 60  1  0
  7 61  1  0
  7 62  1  0
  7 63  1  0
  8 64  1  0
  8 65  1  0
  8 66  1  0
  9 67  1  6
 10 68  1  0
 10 69  1  0
 11 70  1  0
 11 71  1  0
 13 72  1  0
 13 73  1  0
 13 74  1  0
 14 75  1  6
 15 76  1  1
 16 77  1  0
 17 78  1  0
 17 79  1  0
 18 80  1  1
 19 81  1  1
 20 82  1  0
 20 83  1  0
 21 84  1  1
 23 85  1  1
 25 86  1  1
 26 87  1  0
 26 88  1  0
 27 89  1  0
 28 90  1  6
 29 91  1  0
 30 92  1  1
 31 93  1  0
 32 94  1  6
 34 95  1  1
 36 96  1  6
 37 97  1  0
 37 98  1  0
 37 99  1  0
 38100  1  1
 39101  1  0
 40102  1  6
 41103  1  0
 42104  1  1
 43105  1  0
 44106  1  1
 46107  1  0
 46108  1  0
 46109  1  0
 47110  1  0
 47111  1  0
 47112  1  0
 48113  1  6
 49114  1  0
 50115  1  0
 50116  1  0
 51117  1  0
 51118  1  0
 53119  1  0
 53120  1  0
 53121  1  0
M  END
>  <Binding energies>  (1) 
[-7.16]

>  <Ligand effiencies>  (1) 
[-0.11737704918032787]

>  <Interactions>  (1) 
["V-A:ILE:369:CG2:3237, V-A:ASP:366:CA:3210, V-A:GLY:454:CA:4049, V-B:GLU:543:C:9874, H-A:GLU:543:OE2:4910, V-A:ILE:369:CB:3236, V-B:GLU:543:CB:9878, H-A:ARG:545:NH1:4927, V-B:TYR:539:CE2:9848, V-B:GLU:543:CG:9879, V-A:ASP:366:CG:3213, V-A:TYR:539:CD1:4873, V-A:LEU:363:CD1:3189, V-B:TYR:539:CZ:9849, H-B:GLU:543:OE1:9881, V-A:TYR:531:CE2:4793, V-A:TYR:539:CA:4869, V-A:GLU:543:CD:4908, V-B:GLU:543:CA:9876, H-A:GLY:454:N:4050, V-A:HIS:456:CE1:4070, V-A:ILE:369:CD1:3239, V-B:TYR:539:CD2:9846, V-A:TYR:531:CZ:4794, H-A:SER:385:OG:3410, V-B:GLU:543:CD:9880, V-A:TYR:539:C:4867, H-B:TYR:531:OH:9767, V-A:ASP:366:CB:3212, V-A:LEU:475:CD2:4259, H-A:ARG:545:NH2:4928, V-A:ARG:545:CZ:4926, H-A:GLU:543:OE1:4909, H-A:ASP:366:OD1:3214, V-A:PRO:540:N:4884, H-B:GLU:543:OE2:9882, V-A:PRO:540:CA:4883, V-A:PRO:540:CB:4885, V-A:LEU:363:CA:3185, H-B:TYR:539:O:9840, H-A:ARG:545:NE:4924, H-A:SER:385:O:3406, V-A:TYR:539:CE1:4875, H-A:HIS:456:ND1:4067, H-A:TYR:484:OH:4348"]

$$$$
ZINC2383116040
     RDKit          3D

 73 76  0  0  0  0  0  0  0  0999 V2000
  127.8860  129.1190   64.6980 C   0  0  0  0  0  0  0  0  0  0  0  0
  127.7180  130.1480   63.5690 C   0  0  0  0  0  0  0  0  0  0  0  0
  128.3790  131.4880   63.8940 C   0  0  0  0  0  0  0  0  0  0  0  0
  128.0250  132.1550   64.8680 O   0  0  0  0  0  0  0  0  0  0  0  0
  129.3450  131.8160   63.0110 O   0  0  0  0  0  0  0  0  0  0  0  0
  129.7590  130.8880   62.0110 C   0  0  0  0  0  0  0  0  0  0  0  0
  130.7430  131.5380   61.0160 C   0  0  0  0  0  0  0  0  0  0  0  0
  131.6820  132.2190   61.4340 O   0  0  0  0  0  0  0  0  0  0  0  0
  130.5090  131.3360   59.4740 C   0  0  2  0  0  0  0  0  0  0  0  0
  131.6400  131.9130   58.8270 O   0  0  0  0  0  0  0  0  0  0  0  0
  129.1830  132.0190   58.9580 C   0  0  2  0  0  0  0  0  0  0  0  0
  128.7310  133.3510   59.6060 C   0  0  0  0  0  0  0  0  0  0  0  0
  128.0890  130.9220   58.9280 C   0  0  0  0  0  0  0  0  0  0  0  0
  128.7740  129.6490   59.4460 C   0  0  1  0  0  0  0  0  0  0  0  0
  128.1990  128.2470   59.0860 C   0  0  2  0  0  0  0  0  0  0  0  0
  126.6770  128.1390   59.3500 C   0  0  0  0  0  0  0  0  0  0  0  0
  126.1060  126.7620   58.9700 C   0  0  0  0  0  0  0  0  0  0  0  0
  126.8880  125.6630   59.6900 C   0  0  0  0  0  0  0  0  0  0  0  0
  126.2850  124.7810   60.5220 C   0  0  0  0  0  0  0  0  0  0  0  0
  126.9640  123.7150   61.2600 C   0  0  0  0  0  0  0  0  0  0  0  0
  126.3780  122.9300   62.0010 O   0  0  0  0  0  0  0  0  0  0  0  0
  128.4070  123.6750   61.0340 C   0  0  0  0  0  0  0  0  0  0  0  0
  129.0640  124.5260   60.2200 C   0  0  0  0  0  0  0  0  0  0  0  0
  128.4200  125.6600   59.4030 C   0  0  1  0  0  0  0  0  0  0  0  0
  128.6010  125.2610   57.9090 C   0  0  0  0  0  0  0  0  0  0  0  0
  128.9980  127.0910   59.8090 C   0  0  2  0  0  0  0  0  0  0  0  0
  128.7350  127.2690   61.5910 Cl  0  0  0  0  0  0  0  0  0  0  0  0
  130.5600  127.2610   59.6330 C   0  0  1  0  0  0  0  0  0  0  0  0
  131.0290  126.8150   58.3610 O   0  0  0  0  0  0  0  0  0  0  0  0
  132.1180  126.0220   58.2330 C   0  0  0  0  0  0  0  0  0  0  0  0
  132.7770  125.8640   57.2030 O   0  0  0  0  0  0  0  0  0  0  0  0
  132.4530  125.3080   59.5470 C   0  0  0  0  0  0  0  0  0  0  0  0
  133.6000  124.2880   59.4440 C   0  0  0  0  0  0  0  0  0  0  0  0
  131.0400  128.7230   59.9170 C   0  0  0  0  0  0  0  0  0  0  0  0
  130.2760  129.8130   59.0920 C   0  0  2  0  0  0  0  0  0  0  0  0
  130.5650  129.6280   57.5600 C   0  0  0  0  0  0  0  0  0  0  0  0
  127.8033  129.6254   65.6710 H   0  0  0  0  0  0  0  0  0  0  0  0
  127.1011  128.3528   64.6156 H   0  0  0  0  0  0  0  0  0  0  0  0
  128.8739  128.6422   64.6156 H   0  0  0  0  0  0  0  0  0  0  0  0
  128.1727  129.7435   62.6527 H   0  0  0  0  0  0  0  0  0  0  0  0
  126.6408  130.3296   63.4402 H   0  0  0  0  0  0  0  0  0  0  0  0
  130.2530  130.0339   62.4973 H   0  0  0  0  0  0  0  0  0  0  0  0
  128.8696  130.5578   61.4542 H   0  0  0  0  0  0  0  0  0  0  0  0
  132.3620  131.9560   59.4580 H   0  0  0  0  0  0  0  0  0  0  0  0
  129.4015  132.4077   57.9524 H   0  0  0  0  0  0  0  0  0  0  0  0
  128.7634  133.2554   60.7014 H   0  0  0  0  0  0  0  0  0  0  0  0
  129.4048  134.1604   59.2884 H   0  0  0  0  0  0  0  0  0  0  0  0
  127.7038  133.5832   59.2884 H   0  0  0  0  0  0  0  0  0  0  0  0
  127.2479  131.1992   59.5805 H   0  0  0  0  0  0  0  0  0  0  0  0
  127.6769  130.7827   57.9177 H   0  0  0  0  0  0  0  0  0  0  0  0
  128.5672  129.6022   60.5254 H   0  0  0  0  0  0  0  0  0  0  0  0
  128.3355  128.1221   58.0017 H   0  0  0  0  0  0  0  0  0  0  0  0
  126.4920  128.3138   60.4201 H   0  0  0  0  0  0  0  0  0  0  0  0
  126.1763  128.8914   58.7230 H   0  0  0  0  0  0  0  0  0  0  0  0
  125.0476  126.7110   59.2653 H   0  0  0  0  0  0  0  0  0  0  0  0
  126.1937  126.6188   57.8829 H   0  0  0  0  0  0  0  0  0  0  0  0
  125.1968  124.8732   60.6538 H   0  0  0  0  0  0  0  0  0  0  0  0
  128.9919  122.9053   61.5588 H   0  0  0  0  0  0  0  0  0  0  0  0
  130.1531  124.3987   60.1325 H   0  0  0  0  0  0  0  0  0  0  0  0
  129.0548  124.2607   57.8490 H   0  0  0  0  0  0  0  0  0  0  0  0
  127.6201  125.2491   57.4112 H   0  0  0  0  0  0  0  0  0  0  0  0
  129.2560  125.9912   57.4112 H   0  0  0  0  0  0  0  0  0  0  0  0
  131.0087  126.6064   60.3947 H   0  0  0  0  0  0  0  0  0  0  0  0
  132.7356  126.0690   60.2893 H   0  0  0  0  0  0  0  0  0  0  0  0
  131.5548  124.7411   59.8330 H   0  0  0  0  0  0  0  0  0  0  0  0
  133.9253  123.9987   60.4542 H   0  0  0  0  0  0  0  0  0  0  0  0
  133.2506  123.3968   58.9021 H   0  0  0  0  0  0  0  0  0  0  0  0
  134.4443  124.7391   58.9021 H   0  0  0  0  0  0  0  0  0  0  0  0
  130.8950  128.9335   60.9869 H   0  0  0  0  0  0  0  0  0  0  0  0
  132.0965  128.7765   59.6156 H   0  0  0  0  0  0  0  0  0  0  0  0
  131.4848  129.0392   57.4289 H   0  0  0  0  0  0  0  0  0  0  0  0
  129.7221  129.1012   57.0889 H   0  0  0  0  0  0  0  0  0  0  0  0
  130.6906  130.6140   57.0889 H   0  0  0  0  0  0  0  0  0  0  0  0
  1  2  1  0
  2  3  1  0
  3  4  2  0
  3  5  1  0
  5  6  1  0
  6  7  1  0
  7  8  2  0
  7  9  1  0
  9 10  1  6
  9 11  1  0
 11 12  1  0
 11 13  1  0
 13 14  1  0
 14 15  1  0
 15 16  1  0
 16 17  1  0
 17 18  1  0
 18 19  2  0
 19 20  1  0
 20 21  2  0
 20 22  1  0
 22 23  2  0
 23 24  1  0
 24 25  1  6
 24 26  1  0
 26 27  1  1
 26 28  1  0
 28 29  1  0
 29 30  1  0
 30 31  2  0
 30 32  1  0
 32 33  1  0
 28 34  1  0
 34 35  1  0
 35 36  1  6
 35  9  1  0
 35 14  1  0
 26 15  1  0
 24 18  1  0
  1 37  1  0
  1 38  1  0
  1 39  1  0
  2 40  1  0
  2 41  1  0
  6 42  1  0
  6 43  1  0
 10 44  1  0
 11 45  1  6
 12 46  1  0
 12 47  1  0
 12 48  1  0
 13 49  1  0
 13 50  1  0
 14 51  1  1
 15 52  1  6
 16 53  1  0
 16 54  1  0
 17 55  1  0
 17 56  1  0
 19 57  1  0
 22 58  1  0
 23 59  1  0
 25 60  1  0
 25 61  1  0
 25 62  1  0
 28 63  1  1
 32 64  1  0
 32 65  1  0
 33 66  1  0
 33 67  1  0
 33 68  1  0
 34 69  1  0
 34 70  1  0
 36 71  1  0
 36 72  1  0
 36 73  1  0
M  END
>  <Binding energies>  (1) 
[-7.6]

>  <Ligand effiencies>  (1) 
[-0.2054054054054054]

>  <Interactions>  (1) 
["V-A:ILE:369:CG2:3237, V-A:ASP:366:CA:3210, V-B:PRO:540:CA:9855, V-A:ILE:369:CB:3236, H-A:ALA:541:N:4891, V-B:ASP:366:CG:8184, H-A:TYR:531:OH:4795, V-A:ASP:366:CG:3213, V-A:TYR:539:CD1:4873, H-B:TYR:539:OH:9850, H-B:ALA:541:N:9863, V-A:GLU:543:CD:4908, V-B:ASP:366:CB:8183, H-B:TYR:484:OH:9319, V-A:GLU:543:CG:4907, V-A:TYR:539:C:4867, V-A:ASP:366:CB:3212, V-A:PRO:540:N:4884, V-A:PRO:540:CA:4883, H-A:ASP:366:OD2:3215"]

$$$$
ZINC2383134648
     RDKit          3D

 71 73  0  0  0  0  0  0  0  0999 V2000
  127.0420  126.6040   58.7230 C   0  0  0  0  0  0  0  0  0  0  0  0
  126.4850  125.8000   59.9080 C   0  0  0  0  0  0  0  0  0  0  0  0
  127.5000  125.1770   60.6820 O   0  0  0  0  0  0  0  0  0  0  0  0
  127.4380  123.5840   61.0420 P   0  0  0  0  0  0  0  0  0  0  0  0
  126.5480  123.2420   62.1870 O   0  0  0  0  0  0  0  0  0  0  0  0
  127.0060  122.9060   59.6240 O   0  0  0  0  0  0  0  0  0  0  0  0
  127.7980  123.0870   58.4640 C   0  0  0  0  0  0  0  0  0  0  0  0
  127.0270  122.6030   57.2280 C   0  0  0  0  0  0  0  0  0  0  0  0
  129.1870  123.0640   61.1260 C   0  0  0  0  0  0  0  0  0  0  0  0
  129.4980  121.7280   60.8620 C   0  0  0  0  0  0  0  0  0  0  0  0
  130.8130  121.2800   60.9420 C   0  0  0  0  0  0  0  0  0  0  0  0
  131.8220  122.1570   61.3280 C   0  0  0  0  0  0  0  0  0  0  0  0
  131.5210  123.4840   61.6420 C   0  0  0  0  0  0  0  0  0  0  0  0
  130.2090  123.9630   61.4920 C   0  0  0  0  0  0  0  0  0  0  0  0
  129.9240  125.4060   61.7210 C   0  0  0  0  0  0  0  0  0  0  0  0
  129.4450  125.8460   62.9720 C   0  0  0  0  0  0  0  0  0  0  0  0
  129.0860  127.1800   63.1540 C   0  0  0  0  0  0  0  0  0  0  0  0
  129.2410  128.1010   62.1240 C   0  0  0  0  0  0  0  0  0  0  0  0
  129.7570  127.6900   60.9010 C   0  0  0  0  0  0  0  0  0  0  0  0
  130.0950  126.3500   60.6870 C   0  0  0  0  0  0  0  0  0  0  0  0
  130.7700  125.9290   59.0410 P   0  0  0  0  0  0  0  0  0  0  0  0
  130.1560  124.8050   58.2790 O   0  0  0  0  0  0  0  0  0  0  0  0
  130.7520  127.3640   58.2630 O   0  0  0  0  0  0  0  0  0  0  0  0
  131.7630  128.3310   58.4980 C   0  0  0  0  0  0  0  0  0  0  0  0
  131.1890  129.7460   58.3540 C   0  0  0  0  0  0  0  0  0  0  0  0
  132.3470  125.7150   59.3950 O   0  0  0  0  0  0  0  0  0  0  0  0
  133.0760  124.6240   58.8560 C   0  0  0  0  0  0  0  0  0  0  0  0
  134.3450  124.3400   59.6700 C   0  0  0  0  0  0  0  0  0  0  0  0
  129.3060  125.0150   64.0650 O   0  0  0  0  0  0  0  0  0  0  0  0
  130.4700  124.4290   64.6710 C   0  0  2  0  0  0  0  0  0  0  0  0
  130.1700  124.4100   66.1790 C   0  0  0  0  0  0  0  0  0  0  0  0
  131.8360  125.1300   64.3620 C   0  0  0  0  0  0  0  0  0  0  0  0
  132.8460  124.3540   63.4730 C   0  0  1  0  0  0  0  0  0  0  0  0
  133.2200  122.9750   64.0610 C   0  0  0  0  0  0  0  0  0  0  0  0
  132.5260  124.3250   62.0700 O   0  0  0  0  0  0  0  0  0  0  0  0
  127.6304  127.4533   59.1004 H   0  0  0  0  0  0  0  0  0  0  0  0
  127.6855  125.9557   58.1101 H   0  0  0  0  0  0  0  0  0  0  0  0
  126.2089  126.9786   58.1101 H   0  0  0  0  0  0  0  0  0  0  0  0
  125.9172  126.4818   60.5582 H   0  0  0  0  0  0  0  0  0  0  0  0
  125.8499  125.0024   59.4950 H   0  0  0  0  0  0  0  0  0  0  0  0
  128.0393  124.1541   58.3493 H   0  0  0  0  0  0  0  0  0  0  0  0
  128.7267  122.5059   58.5637 H   0  0  0  0  0  0  0  0  0  0  0  0
  126.1356  122.0434   57.5478 H   0  0  0  0  0  0  0  0  0  0  0  0
  126.7189  123.4701   56.6253 H   0  0  0  0  0  0  0  0  0  0  0  0
  127.6740  121.9487   56.6253 H   0  0  0  0  0  0  0  0  0  0  0  0
  128.6974  121.0248   60.5888 H   0  0  0  0  0  0  0  0  0  0  0  0
  131.0545  120.2344   60.7005 H   0  0  0  0  0  0  0  0  0  0  0  0
  132.8619  121.8032   61.3861 H   0  0  0  0  0  0  0  0  0  0  0  0
  128.6764  127.5073   64.1210 H   0  0  0  0  0  0  0  0  0  0  0  0
  128.9559  129.1523   62.2769 H   0  0  0  0  0  0  0  0  0  0  0  0
  129.9007  128.4245   60.0948 H   0  0  0  0  0  0  0  0  0  0  0  0
  132.1592  128.2019   59.5160 H   0  0  0  0  0  0  0  0  0  0  0  0
  132.5677  128.1942   57.7606 H   0  0  0  0  0  0  0  0  0  0  0  0
  131.0152  130.1745   59.3521 H   0  0  0  0  0  0  0  0  0  0  0  0
  131.9024  130.3768   57.8033 H   0  0  0  0  0  0  0  0  0  0  0  0
  130.2378  129.7015   57.8033 H   0  0  0  0  0  0  0  0  0  0  0  0
  132.4376  123.7282   58.8646 H   0  0  0  0  0  0  0  0  0  0  0  0
  133.3746  124.8816   57.8291 H   0  0  0  0  0  0  0  0  0  0  0  0
  134.1113  124.3923   60.7436 H   0  0  0  0  0  0  0  0  0  0  0  0
  134.7206  123.3356   59.4250 H   0  0  0  0  0  0  0  0  0  0  0  0
  135.1129  125.0885   59.4250 H   0  0  0  0  0  0  0  0  0  0  0  0
  130.6276  123.4286   64.2417 H   0  0  0  0  0  0  0  0  0  0  0  0
  131.1135  124.4698   66.7413 H   0  0  0  0  0  0  0  0  0  0  0  0
  129.5342  125.2697   66.4372 H   0  0  0  0  0  0  0  0  0  0  0  0
  129.6477  123.4770   66.4372 H   0  0  0  0  0  0  0  0  0  0  0  0
  131.6131  126.0814   63.8568 H   0  0  0  0  0  0  0  0  0  0  0  0
  132.3330  125.2264   65.3386 H   0  0  0  0  0  0  0  0  0  0  0  0
  133.7657  124.9565   63.5049 H   0  0  0  0  0  0  0  0  0  0  0  0
  133.2054  123.0287   65.1596 H   0  0  0  0  0  0  0  0  0  0  0  0
  132.4936  122.2222   63.7210 H   0  0  0  0  0  0  0  0  0  0  0  0
  134.2272  122.6924   63.7210 H   0  0  0  0  0  0  0  0  0  0  0  0
  1  2  1  0
  2  3  1  0
  3  4  1  0
  4  5  2  0
  4  6  1  0
  6  7  1  0
  7  8  1  0
  4  9  1  0
  9 10  2  0
 10 11  1  0
 11 12  2  0
 12 13  1  0
 13 14  2  0
 14 15  1  0
 15 16  2  0
 16 17  1  0
 17 18  2  0
 18 19  1  0
 19 20  2  0
 20 21  1  0
 21 22  2  0
 21 23  1  0
 23 24  1  0
 24 25  1  0
 21 26  1  0
 26 27  1  0
 27 28  1  0
 16 29  1  0
 29 30  1  0
 30 31  1  0
 30 32  1  0
 32 33  1  0
 33 34  1  0
 33 35  1  0
 14  9  1  0
 20 15  1  0
 35 13  1  0
  1 36  1  0
  1 37  1  0
  1 38  1  0
  2 39  1  0
  2 40  1  0
  7 41  1  0
  7 42  1  0
  8 43  1  0
  8 44  1  0
  8 45  1  0
 10 46  1  0
 11 47  1  0
 12 48  1  0
 17 49  1  0
 18 50  1  0
 19 51  1  0
 24 52  1  0
 24 53  1  0
 25 54  1  0
 25 55  1  0
 25 56  1  0
 27 57  1  0
 27 58  1  0
 28 59  1  0
 28 60  1  0
 28 61  1  0
 30 62  1  6
 31 63  1  0
 31 64  1  0
 31 65  1  0
 32 66  1  0
 32 67  1  0
 33 68  1  6
 34 69  1  0
 34 70  1  0
 34 71  1  0
M  END
>  <Binding energies>  (1) 
[-3.72]

>  <Ligand effiencies>  (1) 
[-0.10054054054054054]

>  <Interactions>  (1) 
["V-A:ILE:369:CG2:3237, V-A:ASP:366:CA:3210, V-B:PRO:540:CA:9855, V-A:GLY:454:CA:4049, V-A:ILE:369:CB:3236, V-B:GLU:543:CB:9878, V-B:TYR:539:CE2:9848, H-A:TYR:531:OH:4795, V-A:TYR:484:CE2:4346, V-B:GLU:543:CG:9879, V-B:TYR:539:C:9839, V-A:ASP:366:CG:3213, H-B:TYR:539:OH:9850, H-B:ALA:541:N:9863, V-A:GLU:543:CD:4908, V-A:TYR:484:CZ:4347, V-B:PRO:540:N:9856, V-A:ILE:369:CD1:3239, V-A:ASP:366:C:3208, V-B:TYR:539:CD2:9846, V-B:PRO:540:CD:9859, V-B:GLU:543:CD:9880, V-A:ASP:366:CB:3212, V-A:LEU:475:CD2:4259"]

$$$$
ZINC2383293233
     RDKit          3D

 71 76  0  0  0  0  0  0  0  0999 V2000
  132.6040  131.5150   62.3810 C   0  0  0  0  0  0  0  0  0  0  0  0
  131.1460  131.4960   61.9010 C   0  0  0  0  0  0  0  0  0  0  0  0
  130.1430  131.8310   63.0180 C   0  0  0  0  0  0  0  0  0  0  0  0
  128.7240  131.3100   62.7260 C   0  0  0  0  0  0  0  0  0  0  0  0
  127.8780  131.1300   63.9990 C   0  0  0  0  0  0  0  0  0  0  0  0
  128.3560  129.9600   64.8730 C   0  0  0  0  0  0  0  0  0  0  0  0
  127.5300  128.8210   64.6270 O   0  0  0  0  0  0  0  0  0  0  0  0
  127.9750  127.9570   63.6780 C   0  0  0  0  0  0  0  0  0  0  0  0
  128.8280  126.9280   63.9780 C   0  0  0  0  0  0  0  0  0  0  0  0
  129.2270  126.0480   62.9420 N   0  0  0  0  0  0  0  0  0  0  0  0
  128.5640  126.0900   61.6940 C   0  0  0  0  0  0  0  0  0  0  0  0
  127.7040  127.0890   61.4020 C   0  0  0  0  0  0  0  0  0  0  0  0
  127.3780  128.1740   62.3340 C   0  0  0  0  0  0  0  0  0  0  0  0
  126.6650  129.1270   62.0220 O   0  0  0  0  0  0  0  0  0  0  0  0
  130.6960  125.7390   62.9850 N   0  0  0  0  0  0  0  0  0  0  0  0
  131.3110  125.0430   61.8080 C   0  0  2  0  0  0  0  0  0  0  0  0
  131.4760  125.9440   60.5340 C   0  0  0  0  0  0  0  0  0  0  0  0
  131.1330  127.3150   60.5980 C   0  0  0  0  0  0  0  0  0  0  0  0
  131.1970  128.1700   59.5030 C   0  0  0  0  0  0  0  0  0  0  0  0
  131.6500  127.6910   58.2860 C   0  0  0  0  0  0  0  0  0  0  0  0
  132.0740  126.3750   58.1920 C   0  0  0  0  0  0  0  0  0  0  0  0
  132.0320  125.5090   59.2920 C   0  0  0  0  0  0  0  0  0  0  0  0
  132.8040  123.9390   58.9670 S   0  0  0  0  0  0  0  0  0  0  0  0
  133.0770  123.0900   60.5220 C   0  0  0  0  0  0  0  0  0  0  0  0
  131.7580  122.6120   61.0870 C   0  0  0  0  0  0  0  0  0  0  0  0
  130.8580  123.5530   61.6380 C   0  0  0  0  0  0  0  0  0  0  0  0
  129.6230  123.0520   62.1020 C   0  0  0  0  0  0  0  0  0  0  0  0
  129.2800  121.7070   62.0100 C   0  0  0  0  0  0  0  0  0  0  0  0
  130.1730  120.8050   61.4570 C   0  0  0  0  0  0  0  0  0  0  0  0
  129.8430  119.4960   61.3690 F   0  0  0  0  0  0  0  0  0  0  0  0
  131.4060  121.2530   60.9980 C   0  0  0  0  0  0  0  0  0  0  0  0
  132.2610  120.3560   60.4510 F   0  0  0  0  0  0  0  0  0  0  0  0
  131.1240  125.2050   64.3010 C   0  0  1  0  0  0  0  0  0  0  0  0
  132.6300  125.5020   64.5940 C   0  0  0  0  0  0  0  0  0  0  0  0
  133.0260  125.1010   65.9010 O   0  0  0  0  0  0  0  0  0  0  0  0
  132.2780  125.7300   66.9290 C   0  0  0  0  0  0  0  0  0  0  0  0
  130.8050  125.3170   66.7910 C   0  0  0  0  0  0  0  0  0  0  0  0
  130.3490  125.7610   65.4580 N   0  0  0  0  0  0  0  0  0  0  0  0
  129.2940  126.6230   65.3330 C   0  0  0  0  0  0  0  0  0  0  0  0
  128.7440  127.0980   66.3290 O   0  0  0  0  0  0  0  0  0  0  0  0
  132.6280  131.5153   63.4807 H   0  0  0  0  0  0  0  0  0  0  0  0
  133.1261  130.6236   62.0031 H   0  0  0  0  0  0  0  0  0  0  0  0
  133.1027  132.4197   62.0031 H   0  0  0  0  0  0  0  0  0  0  0  0
  131.0325  132.2351   61.0943 H   0  0  0  0  0  0  0  0  0  0  0  0
  130.9259  130.4752   61.5553 H   0  0  0  0  0  0  0  0  0  0  0  0
  130.4973  131.3774   63.9554 H   0  0  0  0  0  0  0  0  0  0  0  0
  130.0836  132.9270   63.0901 H   0  0  0  0  0  0  0  0  0  0  0  0
  128.2157  132.0278   62.0654 H   0  0  0  0  0  0  0  0  0  0  0  0
  128.8260  130.3212   62.2550 H   0  0  0  0  0  0  0  0  0  0  0  0
  127.9327  132.0556   64.5908 H   0  0  0  0  0  0  0  0  0  0  0  0
  126.8483  130.9072   63.6828 H   0  0  0  0  0  0  0  0  0  0  0  0
  129.3999  129.7178   64.6245 H   0  0  0  0  0  0  0  0  0  0  0  0
  128.2906  130.2412   65.9344 H   0  0  0  0  0  0  0  0  0  0  0  0
  128.7510  125.2995   60.9522 H   0  0  0  0  0  0  0  0  0  0  0  0
  127.2223  127.0894   60.4131 H   0  0  0  0  0  0  0  0  0  0  0  0
  132.3727  124.8870   62.0500 H   0  0  0  0  0  0  0  0  0  0  0  0
  130.7989  127.7254   61.5623 H   0  0  0  0  0  0  0  0  0  0  0  0
  130.8893  129.2213   59.6036 H   0  0  0  0  0  0  0  0  0  0  0  0
  131.6732  128.3473   57.4036 H   0  0  0  0  0  0  0  0  0  0  0  0
  132.4530  126.0012   57.2294 H   0  0  0  0  0  0  0  0  0  0  0  0
  133.7365  122.2257   60.3546 H   0  0  0  0  0  0  0  0  0  0  0  0
  133.5461  123.7836   61.2354 H   0  0  0  0  0  0  0  0  0  0  0  0
  128.9043  123.7516   62.5536 H   0  0  0  0  0  0  0  0  0  0  0  0
  128.3019  121.3610   62.3756 H   0  0  0  0  0  0  0  0  0  0  0  0
  130.9382  124.1241   64.2166 H   0  0  0  0  0  0  0  0  0  0  0  0
  133.2445  124.9615   63.8590 H   0  0  0  0  0  0  0  0  0  0  0  0
  132.7733  126.5903   64.5233 H   0  0  0  0  0  0  0  0  0  0  0  0
  132.6603  125.4142   67.9109 H   0  0  0  0  0  0  0  0  0  0  0  0
  132.3699  126.8228   66.8437 H   0  0  0  0  0  0  0  0  0  0  0  0
  130.7105  124.2244   66.8769 H   0  0  0  0  0  0  0  0  0  0  0  0
  130.1956  125.7746   67.5842 H   0  0  0  0  0  0  0  0  0  0  0  0
  1  2  1  0
  2  3  1  0
  3  4  1  0
  4  5  1  0
  5  6  1  0
  6  7  1  0
  7  8  1  0
  8  9  2  0
  9 10  1  0
 10 11  1  0
 11 12  2  0
 12 13  1  0
 13 14  2  0
 10 15  1  0
 15 16  1  0
 16 17  1  0
 17 18  2  0
 18 19  1  0
 19 20  2  0
 20 21  1  0
 21 22  2  0
 22 23  1  0
 23 24  1  0
 24 25  1  0
 25 26  2  0
 26 27  1  0
 27 28  2  0
 28 29  1  0
 29 30  1  0
 29 31  2  0
 31 32  1  0
 15 33  1  0
 33 34  1  0
 34 35  1  0
 35 36  1  0
 36 37  1  0
 37 38  1  0
 38 39  1  0
 39 40  2  0
 13  8  1  0
 26 16  1  0
 38 33  1  0
 39  9  1  0
 22 17  1  0
 31 25  1  0
  1 41  1  0
  1 42  1  0
  1 43  1  0
  2 44  1  0
  2 45  1  0
  3 46  1  0
  3 47  1  0
  4 48  1  0
  4 49  1  0
  5 50  1  0
  5 51  1  0
  6 52  1  0
  6 53  1  0
 11 54  1  0
 12 55  1  0
 16 56  1  1
 18 57  1  0
 19 58  1  0
 20 59  1  0
 21 60  1  0
 24 61  1  0
 24 62  1  0
 27 63  1  0
 28 64  1  0
 33 65  1  6
 34 66  1  0
 34 67  1  0
 36 68  1  0
 36 69  1  0
 37 70  1  0
 37 71  1  0
M  END
>  <Binding energies>  (1) 
[-7.02]

>  <Ligand effiencies>  (1) 
[-0.1755]

>  <Interactions>  (1) 
["V-A:ILE:369:CG2:3237, V-B:ALA:541:CB:9864, V-B:TYR:539:CE2:9848, V-A:TYR:484:CE2:4346, V-B:GLU:543:CG:9879, V-B:TYR:539:C:9839, V-A:ASP:366:CG:3213, V-A:ASN:362:CB:3176, H-B:TYR:539:OH:9850, V-A:ALA:541:CB:4892, V-A:GLU:543:CD:4908, V-A:TYR:484:CZ:4347, V-A:ARG:545:CG:4922, V-A:HIS:456:CE1:4070, V-B:TYR:539:CD2:9846, V-A:GLU:543:CG:4907, V-B:GLU:543:CD:9880, V-A:ASP:366:CB:3212, V-A:ARG:545:CD:4923, V-A:LEU:475:CD2:4259, V-A:ARG:545:CZ:4926, V-A:PRO:540:CA:4883, H-A:ARG:545:NE:4924, V-B:PRO:540:C:9853, H-A:TYR:484:OH:4348"]

$$$$
ZINC2383293325
     RDKit          3D

101105  0  0  0  0  0  0  0  0999 V2000
  130.6130  127.7400   71.4410 C   0  0  0  0  0  0  0  0  0  0  0  0
  129.8550  126.8330   70.4420 C   0  0  2  0  0  0  0  0  0  0  0  0
  130.2160  127.1000   68.9610 C   0  0  0  0  0  0  0  0  0  0  0  0
  130.8720  128.0930   68.6450 O   0  0  0  0  0  0  0  0  0  0  0  0
  129.7400  126.2010   68.0790 N   0  0  0  0  0  0  0  0  0  0  0  0
  129.7950  126.2960   66.6120 C   0  0  1  0  0  0  0  0  0  0  0  0
  129.9110  124.8860   65.9520 C   0  0  0  0  0  0  0  0  0  0  0  0
  129.3650  123.9290   66.5080 O   0  0  0  0  0  0  0  0  0  0  0  0
  130.6150  124.7420   64.7950 N   0  0  0  0  0  0  0  0  0  0  0  0
  132.0260  125.1150   64.6160 C   0  0  0  0  0  0  0  0  0  0  0  0
  132.4070  124.6890   63.1990 C   0  0  2  0  0  0  0  0  0  0  0  0
  132.2570  125.8550   62.3870 O   0  0  0  0  0  0  0  0  0  0  0  0
  131.9980  125.7370   61.0350 C   0  0  0  0  0  0  0  0  0  0  0  0
  130.8660  126.2650   60.3930 C   0  0  0  0  0  0  0  0  0  0  0  0
  130.6870  126.0920   59.0210 C   0  0  0  0  0  0  0  0  0  0  0  0
  131.6310  125.3890   58.2760 C   0  0  0  0  0  0  0  0  0  0  0  0
  132.7560  124.8570   58.9040 C   0  0  0  0  0  0  0  0  0  0  0  0
  133.6890  124.1700   58.1740 O   0  0  0  0  0  0  0  0  0  0  0  0
  132.9330  125.0290   60.2780 C   0  0  0  0  0  0  0  0  0  0  0  0
  131.3890  123.5960   62.8710 C   0  0  0  0  0  0  0  0  0  0  0  0
  130.1100  123.9790   63.6350 C   0  0  2  0  0  0  0  0  0  0  0  0
  129.1310  124.8060   62.7680 C   0  0  0  0  0  0  0  0  0  0  0  0
  129.1130  126.0370   62.8340 O   0  0  0  0  0  0  0  0  0  0  0  0
  128.4060  124.1100   61.8720 N   0  0  0  0  0  0  0  0  0  0  0  0
  127.5140  124.6910   60.8610 C   0  0  1  0  0  0  0  0  0  0  0  0
  127.4970  126.2360   60.8560 C   0  0  0  0  0  0  0  0  0  0  0  0
  126.5030  126.7760   59.8210 C   0  0  0  0  0  0  0  0  0  0  0  0
  126.9500  126.3660   58.4100 C   0  0  0  0  0  0  0  0  0  0  0  0
  127.2550  124.8720   58.2960 C   0  0  0  0  0  0  0  0  0  0  0  0
  127.2520  124.2660   57.0330 C   0  0  0  0  0  0  0  0  0  0  0  0
  127.5780  122.9240   56.8700 C   0  0  0  0  0  0  0  0  0  0  0  0
  127.9090  122.1590   57.9810 C   0  0  0  0  0  0  0  0  0  0  0  0
  127.9080  122.7410   59.2440 C   0  0  0  0  0  0  0  0  0  0  0  0
  127.5890  124.0960   59.4350 C   0  0  0  0  0  0  0  0  0  0  0  0
  128.6940  127.2280   65.9880 C   0  0  0  0  0  0  0  0  0  0  0  0
  128.3460  128.4730   66.8450 C   0  0  0  0  0  0  0  0  0  0  0  0
  127.0740  129.1450   66.2870 C   0  0  0  0  0  0  0  0  0  0  0  0
  127.2630  129.5510   64.8020 C   0  0  0  0  0  0  0  0  0  0  0  0
  127.8520  128.4170   63.9250 C   0  0  0  0  0  0  0  0  0  0  0  0
  129.0900  127.7900   64.5990 C   0  0  0  0  0  0  0  0  0  0  0  0
  128.3880  126.9070   70.6670 N   0  0  0  0  0  0  0  0  0  0  0  0
  127.4740  127.0280   69.5190 C   0  0  0  0  0  0  0  0  0  0  0  0
  127.9160  126.7960   71.9910 C   0  0  0  0  0  0  0  0  0  0  0  0
  127.6950  125.7360   72.5810 O   0  0  0  0  0  0  0  0  0  0  0  0
  127.7030  128.0320   72.5500 O   0  0  0  0  0  0  0  0  0  0  0  0
  128.3130  128.5250   73.7560 C   0  0  0  0  0  0  0  0  0  0  0  0
  127.2530  128.8860   74.8260 C   0  0  0  0  0  0  0  0  0  0  0  0
  129.3440  127.5140   74.3170 C   0  0  0  0  0  0  0  0  0  0  0  0
  129.0460  129.8100   73.3170 C   0  0  0  0  0  0  0  0  0  0  0  0
  130.3633  127.4412   72.4698 H   0  0  0  0  0  0  0  0  0  0  0  0
  131.6964  127.6358   71.2816 H   0  0  0  0  0  0  0  0  0  0  0  0
  130.3181  128.7877   71.2816 H   0  0  0  0  0  0  0  0  0  0  0  0
  130.1908  125.8055   70.6455 H   0  0  0  0  0  0  0  0  0  0  0  0
  129.2290  125.4060   68.4350 H   0  0  0  0  0  0  0  0  0  0  0  0
  130.7279  126.8228   66.3626 H   0  0  0  0  0  0  0  0  0  0  0  0
  132.1503  126.2017   64.7332 H   0  0  0  0  0  0  0  0  0  0  0  0
  132.6663  124.6268   65.3655 H   0  0  0  0  0  0  0  0  0  0  0  0
  133.4288  124.3082   63.0542 H   0  0  0  0  0  0  0  0  0  0  0  0
  130.1156  126.8187   60.9764 H   0  0  0  0  0  0  0  0  0  0  0  0
  129.7987  126.5114   58.5261 H   0  0  0  0  0  0  0  0  0  0  0  0
  131.4889  125.2539   57.1936 H   0  0  0  0  0  0  0  0  0  0  0  0
  134.3920  124.7330   57.8450 H   0  0  0  0  0  0  0  0  0  0  0  0
  133.8194  124.6017   60.7697 H   0  0  0  0  0  0  0  0  0  0  0  0
  131.1948  123.5644   61.7887 H   0  0  0  0  0  0  0  0  0  0  0  0
  131.7537  122.5997   63.1616 H   0  0  0  0  0  0  0  0  0  0  0  0
  129.5181  123.1009   63.9327 H   0  0  0  0  0  0  0  0  0  0  0  0
  128.4520  123.1030   61.8980 H   0  0  0  0  0  0  0  0  0  0  0  0
  126.5302  124.3561   61.2215 H   0  0  0  0  0  0  0  0  0  0  0  0
  127.2060  126.5949   61.8543 H   0  0  0  0  0  0  0  0  0  0  0  0
  128.5031  126.5947   60.5930 H   0  0  0  0  0  0  0  0  0  0  0  0
  125.5041  126.3619   60.0228 H   0  0  0  0  0  0  0  0  0  0  0  0
  126.4686  127.8735   59.8874 H   0  0  0  0  0  0  0  0  0  0  0  0
  126.1474  126.6160   57.7005 H   0  0  0  0  0  0  0  0  0  0  0  0
  127.8782  126.9117   58.1849 H   0  0  0  0  0  0  0  0  0  0  0  0
  126.9857  124.8654   56.1500 H   0  0  0  0  0  0  0  0  0  0  0  0
  127.5738  122.4712   55.8675 H   0  0  0  0  0  0  0  0  0  0  0  0
  128.1708  121.0972   57.8624 H   0  0  0  0  0  0  0  0  0  0  0  0
  128.1640  122.1235   60.1176 H   0  0  0  0  0  0  0  0  0  0  0  0
  127.8290  126.5514   65.9249 H   0  0  0  0  0  0  0  0  0  0  0  0
  128.1703  128.1637   67.8859 H   0  0  0  0  0  0  0  0  0  0  0  0
  129.1823  129.1867   66.8097 H   0  0  0  0  0  0  0  0  0  0  0  0
  126.2327  128.4404   66.3626 H   0  0  0  0  0  0  0  0  0  0  0  0
  126.8718  130.0527   66.8745 H   0  0  0  0  0  0  0  0  0  0  0  0
  126.2835  129.8368   64.3911 H   0  0  0  0  0  0  0  0  0  0  0  0
  127.9810  130.3841   64.7816 H   0  0  0  0  0  0  0  0  0  0  0  0
  127.0877  127.6393   63.7800 H   0  0  0  0  0  0  0  0  0  0  0  0
  128.1549  128.8415   62.9565 H   0  0  0  0  0  0  0  0  0  0  0  0
  129.4760  126.9743   63.9700 H   0  0  0  0  0  0  0  0  0  0  0  0
  129.8680  128.5578   64.7227 H   0  0  0  0  0  0  0  0  0  0  0  0
  126.4448  127.1643   69.8825 H   0  0  0  0  0  0  0  0  0  0  0  0
  127.7651  127.8954   68.9084 H   0  0  0  0  0  0  0  0  0  0  0  0
  127.5293  126.1147   68.9084 H   0  0  0  0  0  0  0  0  0  0  0  0
  127.6803  128.7405   75.8291 H   0  0  0  0  0  0  0  0  0  0  0  0
  126.9525  129.9371   74.7044 H   0  0  0  0  0  0  0  0  0  0  0  0
  126.3734  128.2368   74.7044 H   0  0  0  0  0  0  0  0  0  0  0  0
  129.3199  127.5377   75.4165 H   0  0  0  0  0  0  0  0  0  0  0  0
  129.0933  126.5020   73.9664 H   0  0  0  0  0  0  0  0  0  0  0  0
  130.3509  127.7845   73.9664 H   0  0  0  0  0  0  0  0  0  0  0  0
  129.3664  130.3716   74.2069 H   0  0  0  0  0  0  0  0  0  0  0  0
  129.9272  129.5422   72.7156 H   0  0  0  0  0  0  0  0  0  0  0  0
  128.3669  130.4322   72.7156 H   0  0  0  0  0  0  0  0  0  0  0  0
  1  2  1  0
  2  3  1  0
  3  4  2  0
  3  5  1  0
  5  6  1  0
  6  7  1  0
  7  8  2  0
  7  9  1  0
  9 10  1  0
 10 11  1  0
 11 12  1  0
 12 13  1  0
 13 14  2  0
 14 15  1  0
 15 16  2  0
 16 17  1  0
 17 18  1  0
 17 19  2  0
 11 20  1  0
 20 21  1  0
 21 22  1  0
 22 23  2  0
 22 24  1  0
 24 25  1  0
 25 26  1  0
 26 27  1  0
 27 28  1  0
 28 29  1  0
 29 30  2  0
 30 31  1  0
 31 32  2  0
 32 33  1  0
 33 34  2  0
  6 35  1  0
 35 36  1  0
 36 37  1  0
 37 38  1  0
 38 39  1  0
 39 40  1  0
  2 41  1  0
 41 42  1  0
 41 43  1  0
 43 44  2  0
 43 45  1  0
 45 46  1  0
 46 47  1  0
 46 48  1  0
 46 49  1  0
 21  9  1  0
 34 25  1  0
 40 35  1  0
 19 13  1  0
 34 29  1  0
  1 50  1  0
  1 51  1  0
  1 52  1  0
  2 53  1  1
  5 54  1  0
  6 55  1  1
 10 56  1  0
 10 57  1  0
 11 58  1  1
 14 59  1  0
 15 60  1  0
 16 61  1  0
 18 62  1  0
 19 63  1  0
 20 64  1  0
 20 65  1  0
 21 66  1  1
 24 67  1  0
 25 68  1  1
 26 69  1  0
 26 70  1  0
 27 71  1  0
 27 72  1  0
 28 73  1  0
 28 74  1  0
 30 75  1  0
 31 76  1  0
 32 77  1  0
 33 78  1  0
 35 79  1  0
 36 80  1  0
 36 81  1  0
 37 82  1  0
 37 83  1  0
 38 84  1  0
 38 85  1  0
 39 86  1  0
 39 87  1  0
 40 88  1  0
 40 89  1  0
 42 90  1  0
 42 91  1  0
 42 92  1  0
 47 93  1  0
 47 94  1  0
 47 95  1  0
 48 96  1  0
 48 97  1  0
 48 98  1  0
 49 99  1  0
 49100  1  0
 49101  1  0
M  END
>  <Binding energies>  (1) 
[-8.24]

>  <Ligand effiencies>  (1) 
[-0.15846153846153846]

>  <Interactions>  (1) 
["V-B:TYR:539:CA:9841, V-A:ASP:366:CA:3210, V-B:PRO:540:CA:9855, V-B:GLU:543:C:9874, V-B:HIS:456:CD2:9039, H-B:GLU:543:O:9875, V-B:GLU:543:CB:9878, H-B:LYS:547:NZ:9923, V-B:ASP:366:CG:8184, V-B:TYR:539:CE2:9848, V-A:TYR:484:CE2:4346, V-B:GLU:543:CG:9879, V-A:GLY:544:C:4912, V-B:TYR:539:C:9839, V-A:HIS:456:CD2:4068, V-A:ASP:366:CG:3213, V-B:TYR:539:CZ:9849, H-B:TYR:539:OH:9850, V-A:GLU:543:CD:4908, V-B:HIS:456:CE1:9041, V-B:PRO:540:N:9856, V-A:HIS:456:CE1:4070, V-B:TYR:484:CZ:9318, V-B:GLY:544:C:9884, V-B:TYR:539:CD2:9846, V-A:GLU:543:CG:4907, V-B:GLU:543:CD:9880, V-A:ASP:366:CB:3212, H-A:ARG:545:NH2:4928, V-A:ARG:545:CZ:4926, V-B:TYR:539:CG:9844, H-A:ASP:366:O:3209, V-A:GLU:543:CB:4906, V-B:TYR:539:CD1:9845, V-B:TYR:539:CE1:9847, H-A:HIS:456:NE2:4071, H-A:TYR:484:OH:4348"]

$$$$
ZINC2383293639
     RDKit          3D

 70 72  0  0  0  0  0  0  0  0999 V2000
  133.7450  124.1490   62.0180 C   0  0  0  0  0  0  0  0  0  0  0  0
  132.6290  123.1310   61.7250 C   0  0  0  0  0  0  0  0  0  0  0  0
  133.2090  121.8840   61.0350 C   0  0  0  0  0  0  0  0  0  0  0  0
  131.1760  123.9050   60.7650 Si  0  0  0  0  0  4  0  0  0  0  0  0
  130.3760  125.1550   61.8420 C   0  0  0  0  0  0  0  0  0  0  0  0
  129.8240  125.9430   62.5930 C   0  0  0  0  0  0  0  0  0  0  0  0
  129.1590  126.9130   63.4570 C   0  0  0  0  0  0  0  0  0  0  0  0
  128.4550  127.9140   62.7810 C   0  0  0  0  0  0  0  0  0  0  0  0
  127.7870  128.9170   63.4590 C   0  0  0  0  0  0  0  0  0  0  0  0
  127.8060  128.9540   64.8430 C   0  0  0  0  0  0  0  0  0  0  0  0
  128.5020  127.9680   65.5820 C   0  0  0  0  0  0  0  0  0  0  0  0
  128.5050  128.0490   66.9950 C   0  0  0  0  0  0  0  0  0  0  0  0
  129.1750  127.1130   67.7700 C   0  0  0  0  0  0  0  0  0  0  0  0
  129.1840  127.2330   69.3480 B   0  0  0  0  0  0  0  0  0  0  0  0
  129.6420  128.3310   70.0400 O   0  0  0  0  0  0  0  0  0  0  0  0
  129.7610  127.9530   71.4030 C   0  0  0  0  0  0  0  0  0  0  0  0
  131.2310  127.4920   71.5940 C   0  0  0  0  0  0  0  0  0  0  0  0
  129.4730  129.2050   72.2630 C   0  0  0  0  0  0  0  0  0  0  0  0
  128.6800  126.8170   71.5050 C   0  0  0  0  0  0  0  0  0  0  0  0
  129.0080  125.6970   72.5190 C   0  0  0  0  0  0  0  0  0  0  0  0
  127.2190  127.3040   71.6900 C   0  0  0  0  0  0  0  0  0  0  0  0
  128.7430  126.2500   70.2050 O   0  0  0  0  0  0  0  0  0  0  0  0
  129.8380  126.0700   67.1390 C   0  0  0  0  0  0  0  0  0  0  0  0
  129.8670  125.9330   65.7540 C   0  0  0  0  0  0  0  0  0  0  0  0
  130.8280  124.3960   65.1440 Br  0  0  0  0  0  0  0  0  0  0  0  0
  129.1970  126.9030   64.9080 C   0  0  0  0  0  0  0  0  0  0  0  0
  131.7740  124.7230   59.1450 C   0  0  0  0  0  0  0  0  0  0  0  0
  133.2210  124.3450   58.7820 C   0  0  0  0  0  0  0  0  0  0  0  0
  131.5920  126.2520   59.1250 C   0  0  0  0  0  0  0  0  0  0  0  0
  129.8660  122.5720   60.3910 C   0  0  0  0  0  0  0  0  0  0  0  0
  128.5610  123.1470   59.8170 C   0  0  0  0  0  0  0  0  0  0  0  0
  129.5800  121.6610   61.5980 C   0  0  0  0  0  0  0  0  0  0  0  0
  133.8650  124.2585   63.1059 H   0  0  0  0  0  0  0  0  0  0  0  0
  134.6892  123.7946   61.5788 H   0  0  0  0  0  0  0  0  0  0  0  0
  133.4786  125.1217   61.5788 H   0  0  0  0  0  0  0  0  0  0  0  0
  132.2008  122.8068   62.6850 H   0  0  0  0  0  0  0  0  0  0  0  0
  133.5433  121.1652   61.7975 H   0  0  0  0  0  0  0  0  0  0  0  0
  132.4348  121.4189   60.4071 H   0  0  0  0  0  0  0  0  0  0  0  0
  134.0635  122.1765   60.4071 H   0  0  0  0  0  0  0  0  0  0  0  0
  128.4319  127.9034   61.6813 H   0  0  0  0  0  0  0  0  0  0  0  0
  127.2389  129.6877   62.8973 H   0  0  0  0  0  0  0  0  0  0  0  0
  127.2747  129.7580   65.3735 H   0  0  0  0  0  0  0  0  0  0  0  0
  127.9653  128.8705   67.4888 H   0  0  0  0  0  0  0  0  0  0  0  0
  131.4565  127.4213   72.6683 H   0  0  0  0  0  0  0  0  0  0  0  0
  131.3703  126.5070   71.1245 H   0  0  0  0  0  0  0  0  0  0  0  0
  131.9078  128.2210   71.1245 H   0  0  0  0  0  0  0  0  0  0  0  0
  129.5340  128.9397   73.3288 H   0  0  0  0  0  0  0  0  0  0  0  0
  130.2153  129.9844   72.0361 H   0  0  0  0  0  0  0  0  0  0  0  0
  128.4647  129.5817   72.0361 H   0  0  0  0  0  0  0  0  0  0  0  0
  128.8946  126.0842   73.5424 H   0  0  0  0  0  0  0  0  0  0  0  0
  128.3194  124.8526   72.3681 H   0  0  0  0  0  0  0  0  0  0  0  0
  130.0433  125.3574   72.3681 H   0  0  0  0  0  0  0  0  0  0  0  0
  126.9910  127.3800   72.7634 H   0  0  0  0  0  0  0  0  0  0  0  0
  127.0990  128.2907   71.2189 H   0  0  0  0  0  0  0  0  0  0  0  0
  126.5309  126.5866   71.2189 H   0  0  0  0  0  0  0  0  0  0  0  0
  130.3600  125.3238   67.7561 H   0  0  0  0  0  0  0  0  0  0  0  0
  131.1140  124.3092   58.3684 H   0  0  0  0  0  0  0  0  0  0  0  0
  133.8024  124.1931   59.7033 H   0  0  0  0  0  0  0  0  0  0  0  0
  133.2204  123.4169   58.1916 H   0  0  0  0  0  0  0  0  0  0  0  0
  133.6744  125.1548   58.1916 H   0  0  0  0  0  0  0  0  0  0  0  0
  131.5471  126.6294   60.1572 H   0  0  0  0  0  0  0  0  0  0  0  0
  132.4413  126.7155   58.6017 H   0  0  0  0  0  0  0  0  0  0  0  0
  130.6576  126.5032   58.6017 H   0  0  0  0  0  0  0  0  0  0  0  0
  130.3161  121.9483   59.6046 H   0  0  0  0  0  0  0  0  0  0  0  0
  127.8954  123.4403   60.6422 H   0  0  0  0  0  0  0  0  0  0  0  0
  128.7891  124.0280   59.1990 H   0  0  0  0  0  0  0  0  0  0  0  0
  128.0648  122.3842   59.1990 H   0  0  0  0  0  0  0  0  0  0  0  0
  129.7555  122.2200   62.5290 H   0  0  0  0  0  0  0  0  0  0  0  0
  128.5331  121.3250   61.5638 H   0  0  0  0  0  0  0  0  0  0  0  0
  130.2470  120.7869   61.5638 H   0  0  0  0  0  0  0  0  0  0  0  0
  1  2  1  0
  2  3  1  0
  2  4  1  0
  4  5  1  0
  5  6  3  0
  6  7  1  0
  7  8  2  0
  8  9  1  0
  9 10  2  0
 10 11  1  0
 11 12  2  0
 12 13  1  0
 13 14  1  0
 14 15  1  0
 15 16  1  0
 16 17  1  0
 16 18  1  0
 16 19  1  0
 19 20  1  0
 19 21  1  0
 19 22  1  0
 13 23  2  0
 23 24  1  0
 24 25  1  0
 24 26  2  0
  4 27  1  0
 27 28  1  0
 27 29  1  0
  4 30  1  0
 30 31  1  0
 30 32  1  0
 26  7  1  0
 26 11  1  0
 22 14  1  0
  1 33  1  0
  1 34  1  0
  1 35  1  0
  2 36  1  0
  3 37  1  0
  3 38  1  0
  3 39  1  0
  8 40  1  0
  9 41  1  0
 10 42  1  0
 12 43  1  0
 17 44  1  0
 17 45  1  0
 17 46  1  0
 18 47  1  0
 18 48  1  0
 18 49  1  0
 20 50  1  0
 20 51  1  0
 20 52  1  0
 21 53  1  0
 21 54  1  0
 21 55  1  0
 23 56  1  0
 27 57  1  0
 28 58  1  0
 28 59  1  0
 28 60  1  0
 29 61  1  0
 29 62  1  0
 29 63  1  0
 30 64  1  0
 31 65  1  0
 31 66  1  0
 31 67  1  0
 32 68  1  0
 32 69  1  0
 32 70  1  0
M  END
>  <Binding energies>  (1) 
[-8.46]

>  <Ligand effiencies>  (1) 
[-0.264375]

>  <Interactions>  (1) 
["V-A:ILE:369:CG2:3237, V-A:ASP:366:CA:3210, V-B:PRO:540:CA:9855, V-B:HIS:456:CD2:9039, V-A:GLU:543:C:4902, V-B:GLU:543:CB:9878, V-B:ALA:541:CB:9864, V-B:TYR:539:CE2:9848, V-A:TYR:484:CE2:4346, V-B:GLU:543:CG:9879, V-A:GLY:544:C:4912, V-A:ASP:366:CG:3213, V-A:HIS:456:CD2:4068, V-B:TYR:539:CZ:9849, V-B:LYS:547:CE:9922, V-A:GLU:543:CD:4908, V-A:TYR:484:CZ:4347, V-B:HIS:456:CE1:9041, V-A:HIS:456:CE1:4070, V-A:ILE:369:CD1:3239, V-B:GLY:544:C:9884, V-B:TYR:539:CD2:9846, V-A:GLU:543:CG:4907, V-B:GLU:543:CD:9880, V-B:HIS:456:CG:9037, V-A:ASP:366:CB:3212, V-A:LEU:475:CD2:4259, V-A:GLU:543:CB:4906, V-A:HIS:456:CG:4066"]

$$$$
ZINC2383293912
     RDKit          3D

110117  0  0  0  0  0  0  0  0999 V2000
  133.5150  131.1990   58.9060 C   0  0  0  0  0  0  0  0  0  0  0  0
  132.2100  130.9790   59.6600 C   0  0  0  0  0  0  0  0  0  0  0  0
  131.9460  131.7640   60.7880 C   0  0  0  0  0  0  0  0  0  0  0  0
  130.7610  131.6050   61.5050 C   0  0  0  0  0  0  0  0  0  0  0  0
  129.8190  130.6580   61.1000 C   0  0  0  0  0  0  0  0  0  0  0  0
  128.5150  130.4680   61.8780 C   0  0  1  0  0  0  0  0  0  0  0  0
  127.8530  129.2900   61.4130 O   0  0  0  0  0  0  0  0  0  0  0  0
  126.5650  129.0310   61.9650 C   0  0  1  0  0  0  0  0  0  0  0  0
  126.0510  127.8020   61.1880 C   0  0  0  0  0  0  0  0  0  0  0  0
  126.6510  126.5960   61.6660 O   0  0  0  0  0  0  0  0  0  0  0  0
  127.8420  126.1800   61.0430 C   0  0  2  0  0  0  0  0  0  0  0  0
  129.0370  126.0760   62.0530 C   0  0  0  0  0  0  0  0  0  0  0  0
  130.3310  126.4380   61.6620 C   0  0  0  0  0  0  0  0  0  0  0  0
  131.3970  126.3400   62.5530 C   0  0  0  0  0  0  0  0  0  0  0  0
  131.2000  125.8600   63.8500 C   0  0  0  0  0  0  0  0  0  0  0  0
  132.3950  125.7810   64.7920 C   0  0  0  0  0  0  0  0  0  0  0  0
  129.9150  125.4610   64.2600 C   0  0  0  0  0  0  0  0  0  0  0  0
  129.6880  124.8990   65.6740 C   0  0  0  0  0  0  0  0  0  0  0  0
  129.3640  125.9100   66.7600 C   0  0  0  0  0  0  0  0  0  0  0  0
  128.9650  127.2370   66.6330 C   0  0  0  0  0  0  0  0  0  0  0  0
  128.8010  127.9090   67.8460 C   0  0  0  0  0  0  0  0  0  0  0  0
  129.0550  127.1200   68.9630 C   0  0  0  0  0  0  0  0  0  0  0  0
  129.0230  127.4960   70.4160 C   0  0  0  0  0  0  0  0  0  0  0  0
  130.1390  128.1300   70.9760 C   0  0  0  0  0  0  0  0  0  0  0  0
  130.1460  128.4890   72.3220 C   0  0  0  0  0  0  0  0  0  0  0  0
  129.0350  128.2170   73.1150 C   0  0  0  0  0  0  0  0  0  0  0  0
  129.0420  128.5640   74.4230 F   0  0  0  0  0  0  0  0  0  0  0  0
  127.9180  127.5890   72.5730 C   0  0  0  0  0  0  0  0  0  0  0  0
  127.9120  127.2290   71.2280 C   0  0  0  0  0  0  0  0  0  0  0  0
  129.4820  125.5070   68.4530 S   0  0  0  0  0  0  0  0  0  0  0  0
  128.8530  125.5800   63.3510 C   0  0  0  0  0  0  0  0  0  0  0  0
  128.2170  127.0920   60.0280 O   0  0  0  0  0  0  0  0  0  0  0  0
  127.2490  127.3510   59.0020 C   0  0  1  0  0  0  0  0  0  0  0  0
  127.8290  128.4610   58.0990 C   0  0  0  0  0  0  0  0  0  0  0  0
  126.8730  128.8920   57.1510 O   0  0  0  0  0  0  0  0  0  0  0  0
  126.9660  126.0420   58.2330 C   0  0  2  0  0  0  0  0  0  0  0  0
  125.9880  126.2360   57.2240 O   0  0  0  0  0  0  0  0  0  0  0  0
  126.5440  124.9310   59.2150 C   0  0  1  0  0  0  0  0  0  0  0  0
  126.3540  123.6950   58.5450 O   0  0  0  0  0  0  0  0  0  0  0  0
  127.5580  124.8000   60.3810 C   0  0  2  0  0  0  0  0  0  0  0  0
  127.1420  123.8030   61.3010 O   0  0  0  0  0  0  0  0  0  0  0  0
  126.7240  128.7790   63.4890 C   0  0  2  0  0  0  0  0  0  0  0  0
  125.4690  128.5560   64.1090 O   0  0  0  0  0  0  0  0  0  0  0  0
  127.4550  129.9680   64.1630 C   0  0  1  0  0  0  0  0  0  0  0  0
  127.7130  129.7120   65.5350 O   0  0  0  0  0  0  0  0  0  0  0  0
  128.7560  130.3410   63.4080 C   0  0  2  0  0  0  0  0  0  0  0  0
  129.3470  131.5130   63.9440 O   0  0  0  0  0  0  0  0  0  0  0  0
  130.0840  129.8750   59.9740 C   0  0  0  0  0  0  0  0  0  0  0  0
  131.2740  130.0140   59.2440 C   0  0  0  0  0  0  0  0  0  0  0  0
  131.5400  129.1440   58.0030 C   0  0  0  0  0  0  0  0  0  0  0  0
  131.2580  127.6580   58.1540 C   0  0  0  0  0  0  0  0  0  0  0  0
  130.3080  126.8720   57.5090 C   0  0  0  0  0  0  0  0  0  0  0  0
  130.2710  125.5430   57.9370 C   0  0  0  0  0  0  0  0  0  0  0  0
  131.2130  125.2480   58.9150 C   0  0  0  0  0  0  0  0  0  0  0  0
  131.4530  123.9600   59.6400 C   0  0  0  0  0  0  0  0  0  0  0  0
  132.7630  123.4790   59.7490 C   0  0  0  0  0  0  0  0  0  0  0  0
  133.0220  122.2840   60.4130 C   0  0  0  0  0  0  0  0  0  0  0  0
  131.9710  121.5640   60.9750 C   0  0  0  0  0  0  0  0  0  0  0  0
  132.2220  120.4020   61.6210 F   0  0  0  0  0  0  0  0  0  0  0  0
  130.6630  122.0330   60.8790 C   0  0  0  0  0  0  0  0  0  0  0  0
  130.4050  123.2270   60.2120 C   0  0  0  0  0  0  0  0  0  0  0  0
  132.1490  126.6720   59.2820 S   0  0  0  0  0  0  0  0  0  0  0  0
  134.3354  131.3373   59.6256 H   0  0  0  0  0  0  0  0  0  0  0  0
  133.7253  130.3236   58.2739 H   0  0  0  0  0  0  0  0  0  0  0  0
  133.4267  132.0949   58.2739 H   0  0  0  0  0  0  0  0  0  0  0  0
  132.6816  132.5148   61.1125 H   0  0  0  0  0  0  0  0  0  0  0  0
  130.5680  132.2270   62.3915 H   0  0  0  0  0  0  0  0  0  0  0  0
  127.8945  131.3599   61.7061 H   0  0  0  0  0  0  0  0  0  0  0  0
  125.8479  129.8595   61.8688 H   0  0  0  0  0  0  0  0  0  0  0  0
  124.9600  127.7319   61.3097 H   0  0  0  0  0  0  0  0  0  0  0  0
  126.3177  127.9255   60.1280 H   0  0  0  0  0  0  0  0  0  0  0  0
  130.5081  126.8039   60.6399 H   0  0  0  0  0  0  0  0  0  0  0  0
  132.4044  126.6437   62.2321 H   0  0  0  0  0  0  0  0  0  0  0  0
  132.0428  125.8043   65.8338 H   0  0  0  0  0  0  0  0  0  0  0  0
  132.9432  124.8447   64.6111 H   0  0  0  0  0  0  0  0  0  0  0  0
  133.0617  126.6370   64.6111 H   0  0  0  0  0  0  0  0  0  0  0  0
  128.8518  124.1864   65.6203 H   0  0  0  0  0  0  0  0  0  0  0  0
  130.6495  124.4530   65.9683 H   0  0  0  0  0  0  0  0  0  0  0  0
  128.7931  127.7167   65.6582 H   0  0  0  0  0  0  0  0  0  0  0  0
  128.4989  128.9646   67.9121 H   0  0  0  0  0  0  0  0  0  0  0  0
  131.0163  128.3461   70.3486 H   0  0  0  0  0  0  0  0  0  0  0  0
  131.0262  128.9855   72.7564 H   0  0  0  0  0  0  0  0  0  0  0  0
  127.0427  127.3777   73.2048 H   0  0  0  0  0  0  0  0  0  0  0  0
  127.0293  126.7316   70.7996 H   0  0  0  0  0  0  0  0  0  0  0  0
  127.8445  125.2745   63.6668 H   0  0  0  0  0  0  0  0  0  0  0  0
  126.2867  127.6942   59.4096 H   0  0  0  0  0  0  0  0  0  0  0  0
  128.1261  129.3155   58.7247 H   0  0  0  0  0  0  0  0  0  0  0  0
  128.6994  128.0571   57.5612 H   0  0  0  0  0  0  0  0  0  0  0  0
  126.1040  128.3200   57.2110 H   0  0  0  0  0  0  0  0  0  0  0  0
  127.8926  125.7287   57.7297 H   0  0  0  0  0  0  0  0  0  0  0  0
  126.3380  126.8470   56.5710 H   0  0  0  0  0  0  0  0  0  0  0  0
  125.5757  125.2178   59.6510 H   0  0  0  0  0  0  0  0  0  0  0  0
  126.4800  122.9830   59.1760 H   0  0  0  0  0  0  0  0  0  0  0  0
  128.5227  124.4614   59.9751 H   0  0  0  0  0  0  0  0  0  0  0  0
  126.6670  124.2290   62.0190 H   0  0  0  0  0  0  0  0  0  0  0  0
  127.3312  127.8708   63.6174 H   0  0  0  0  0  0  0  0  0  0  0  0
  125.6130  128.4550   65.0540 H   0  0  0  0  0  0  0  0  0  0  0  0
  126.7806  130.8353   64.1082 H   0  0  0  0  0  0  0  0  0  0  0  0
  127.1190  129.0200   65.8340 H   0  0  0  0  0  0  0  0  0  0  0  0
  129.4693  129.5167   63.5553 H   0  0  0  0  0  0  0  0  0  0  0  0
  130.3010  131.4060   63.9390 H   0  0  0  0  0  0  0  0  0  0  0  0
  129.3410  129.1307   59.6515 H   0  0  0  0  0  0  0  0  0  0  0  0
  130.9102  129.5240   57.1851 H   0  0  0  0  0  0  0  0  0  0  0  0
  132.6210  129.2215   57.8145 H   0  0  0  0  0  0  0  0  0  0  0  0
  129.6415  127.2647   56.7270 H   0  0  0  0  0  0  0  0  0  0  0  0
  129.5638  124.8009   57.5381 H   0  0  0  0  0  0  0  0  0  0  0  0
  133.5931  124.0495   59.3068 H   0  0  0  0  0  0  0  0  0  0  0  0
  134.0531  121.9095   60.4937 H   0  0  0  0  0  0  0  0  0  0  0  0
  129.8372  121.4620   61.3285 H   0  0  0  0  0  0  0  0  0  0  0  0
  129.3722  123.5973   60.1335 H   0  0  0  0  0  0  0  0  0  0  0  0
  1  2  1  0
  2  3  2  0
  3  4  1  0
  4  5  2  0
  5  6  1  0
  6  7  1  0
  7  8  1  0
  8  9  1  0
  9 10  1  0
 11 10  1  1
 11 12  1  0
 12 13  2  0
 13 14  1  0
 14 15  2  0
 15 16  1  0
 15 17  1  0
 17 18  1  0
 18 19  1  0
 19 20  2  0
 20 21  1  0
 21 22  2  0
 22 23  1  0
 23 24  2  0
 24 25  1  0
 25 26  2  0
 26 27  1  0
 26 28  1  0
 28 29  2  0
 22 30  1  0
 17 31  2  0
 11 32  1  0
 32 33  1  0
 33 34  1  0
 34 35  1  0
 33 36  1  0
 36 37  1  0
 36 38  1  0
 38 39  1  0
 38 40  1  0
 40 41  1  0
  8 42  1  0
 42 43  1  0
 42 44  1  0
 44 45  1  0
 44 46  1  0
 46 47  1  0
  5 48  1  0
 48 49  2  0
 49 50  1  0
 50 51  1  0
 51 52  2  0
 52 53  1  0
 53 54  2  0
 54 55  1  0
 55 56  2  0
 56 57  1  0
 57 58  2  0
 58 59  1  0
 58 60  1  0
 60 61  2  0
 54 62  1  0
 49  2  1  0
 62 51  1  0
 46  6  1  0
 61 55  1  0
 40 11  1  0
 31 12  1  0
 30 19  1  0
 29 23  1  0
  1 63  1  0
  1 64  1  0
  1 65  1  0
  3 66  1  0
  4 67  1  0
  6 68  1  1
  8 69  1  1
  9 70  1  0
  9 71  1  0
 13 72  1  0
 14 73  1  0
 16 74  1  0
 16 75  1  0
 16 76  1  0
 18 77  1  0
 18 78  1  0
 20 79  1  0
 21 80  1  0
 24 81  1  0
 25 82  1  0
 28 83  1  0
 29 84  1  0
 31 85  1  0
 33 86  1  1
 34 87  1  0
 34 88  1  0
 35 89  1  0
 36 90  1  6
 37 91  1  0
 38 92  1  1
 39 93  1  0
 40 94  1  6
 41 95  1  0
 42 96  1  6
 43 97  1  0
 44 98  1  1
 45 99  1  0
 46100  1  6
 47101  1  0
 48102  1  0
 50103  1  0
 50104  1  0
 52105  1  0
 53106  1  0
 56107  1  0
 57108  1  0
 60109  1  0
 61110  1  0
M  END
>  <Binding energies>  (1) 
[-8.22]

>  <Ligand effiencies>  (1) 
[-0.11913043478260871]

>  <Interactions>  (1) 
["V-A:ILE:369:CG2:3237, H-B:MET:535:SD:9806, V-B:GLU:543:C:9874, V-B:HIS:456:CD2:9039, V-A:GLU:543:C:4902, V-B:GLU:543:CB:9878, V-B:ASP:366:CG:8184, V-B:TYR:539:CE2:9848, V-A:LEU:475:CG:4257, V-B:GLU:543:CG:9879, V-A:GLY:544:C:4912, V-A:ASP:366:CG:3213, V-A:LEU:363:CB:3187, V-A:LEU:363:CD1:3189, V-B:TYR:539:CZ:9849, H-B:GLU:543:OE1:9881, H-B:ARG:545:NE:9896, V-A:GLU:543:CD:4908, H-B:TYR:484:OH:9319, V-B:GLU:543:CA:9876, V-B:HIS:456:CE1:9041, V-A:HIS:456:CE1:4070, V-B:TYR:539:CD2:9846, V-A:GLU:543:CG:4907, V-A:TYR:531:CZ:4794, V-A:SER:385:CB:3409, V-B:GLU:543:CD:9880, H-B:TYR:531:OH:9767, V-A:ASP:366:CB:3212, V-A:LEU:475:CD2:4259, V-A:ARG:545:CZ:4926, H-A:GLU:543:OE1:4909, H-B:ARG:545:NH2:9900, V-A:GLU:543:CB:4906, H-B:GLU:543:OE2:9882, V-A:PRO:540:CB:4885, V-A:PRO:540:CA:4883, V-A:LEU:363:CA:3185"]

$$$$
ZINC2383293950
     RDKit          3D

 95 97  0  0  0  0  0  0  0  0999 V2000
  132.0050  120.1320   60.5230 C   0  0  0  0  0  0  0  0  0  0  0  0
  132.8940  121.3840   60.5430 C   0  0  0  0  0  0  0  0  0  0  0  0
  133.7890  121.5090   61.7930 C   0  0  0  0  0  0  0  0  0  0  0  0
  133.4330  122.6590   62.7620 C   0  0  0  0  0  0  0  0  0  0  0  0
  134.0650  124.0290   62.4400 C   0  0  0  0  0  0  0  0  0  0  0  0
  133.4990  124.7130   61.1780 C   0  0  0  0  0  0  0  0  0  0  0  0
  134.3110  124.4380   59.8910 C   0  0  0  0  0  0  0  0  0  0  0  0
  133.4970  124.3740   58.5890 C   0  0  0  0  0  0  0  0  0  0  0  0
  133.9900  124.0200   57.5150 O   0  0  0  0  0  0  0  0  0  0  0  0
  132.2170  124.7760   58.7780 O   0  0  0  0  0  0  0  0  0  0  0  0
  131.6240  125.8250   58.0070 C   0  0  2  0  0  0  0  0  0  0  0  0
  131.9930  127.1720   58.6760 C   0  0  0  0  0  0  0  0  0  0  0  0
  131.0040  128.2820   58.2970 C   0  0  0  0  0  0  0  0  0  0  0  0
  129.6060  127.8450   58.7210 C   0  0  0  0  0  0  0  0  0  0  0  0
  128.8020  128.8860   59.4950 C   0  0  0  0  0  0  0  0  0  0  0  0
  129.1720  126.5890   58.4380 C   0  0  0  0  0  0  0  0  0  0  0  0
  127.7890  126.1920   58.7080 C   0  0  0  0  0  0  0  0  0  0  0  0
  127.3410  125.1310   59.4100 C   0  0  0  0  0  0  0  0  0  0  0  0
  128.1290  124.1710   60.1670 C   0  0  0  0  0  0  0  0  0  0  0  0
  127.9620  122.8510   59.9120 C   0  0  0  0  0  0  0  0  0  0  0  0
  128.6980  121.7080   60.6180 C   0  0  0  0  0  0  0  0  0  0  0  0
  129.7780  122.2440   61.5900 C   0  0  0  0  0  0  0  0  0  0  0  0
  129.2870  123.4970   62.3670 C   0  0  2  0  0  0  0  0  0  0  0  0
  127.9780  123.2000   63.1690 C   0  0  0  0  0  0  0  0  0  0  0  0
  129.1140  124.5860   61.2730 C   0  0  2  0  0  0  0  0  0  0  0  0
  128.9350  125.8860   62.0530 C   0  0  0  0  0  0  0  0  0  0  0  0
  129.8900  125.7090   63.2460 C   0  0  0  0  0  0  0  0  0  0  0  0
  130.3430  124.2160   63.2730 C   0  0  1  0  0  0  0  0  0  0  0  0
  130.6020  123.6740   64.7200 C   0  0  2  0  0  0  0  0  0  0  0  0
  130.2730  122.1620   64.8020 C   0  0  0  0  0  0  0  0  0  0  0  0
  129.8460  124.4710   65.8180 C   0  0  0  0  0  0  0  0  0  0  0  0
  130.7000  125.4400   66.6610 C   0  0  0  0  0  0  0  0  0  0  0  0
  129.9500  125.9750   67.8990 C   0  0  0  0  0  0  0  0  0  0  0  0
  128.7690  126.9230   67.5810 C   0  0  0  0  0  0  0  0  0  0  0  0
  128.7500  127.3900   66.1120 C   0  0  0  0  0  0  0  0  0  0  0  0
  128.7610  128.1320   68.5360 C   0  0  0  0  0  0  0  0  0  0  0  0
  130.1060  125.6380   57.6680 C   0  0  0  0  0  0  0  0  0  0  0  0
  131.7849  119.8221   61.5552 H   0  0  0  0  0  0  0  0  0  0  0  0
  131.0643  120.3586   59.9997 H   0  0  0  0  0  0  0  0  0  0  0  0
  132.5290  119.3186   59.9997 H   0  0  0  0  0  0  0  0  0  0  0  0
  133.5436  121.3591   59.6556 H   0  0  0  0  0  0  0  0  0  0  0  0
  132.2164  122.2505   60.5537 H   0  0  0  0  0  0  0  0  0  0  0  0
  133.7224  120.5638   62.3518 H   0  0  0  0  0  0  0  0  0  0  0  0
  134.7976  121.7361   61.4172 H   0  0  0  0  0  0  0  0  0  0  0  0
  132.3399  122.7813   62.7533 H   0  0  0  0  0  0  0  0  0  0  0  0
  133.8427  122.3636   63.7392 H   0  0  0  0  0  0  0  0  0  0  0  0
  133.8952  124.6961   63.2980 H   0  0  0  0  0  0  0  0  0  0  0  0
  135.1315  123.8438   62.2443 H   0  0  0  0  0  0  0  0  0  0  0  0
  132.4716  124.3527   61.0215 H   0  0  0  0  0  0  0  0  0  0  0  0
  133.5472  125.7973   61.3570 H   0  0  0  0  0  0  0  0  0  0  0  0
  135.0565  125.2398   59.7842 H   0  0  0  0  0  0  0  0  0  0  0  0
  134.7474  123.4366   60.0207 H   0  0  0  0  0  0  0  0  0  0  0  0
  132.0490  125.8019   56.9927 H   0  0  0  0  0  0  0  0  0  0  0  0
  131.9825  127.0425   59.7683 H   0  0  0  0  0  0  0  0  0  0  0  0
  132.9925  127.4677   58.3244 H   0  0  0  0  0  0  0  0  0  0  0  0
  131.2751  129.2140   58.8146 H   0  0  0  0  0  0  0  0  0  0  0  0
  131.0321  128.4595   57.2118 H   0  0  0  0  0  0  0  0  0  0  0  0
  128.9303  128.7198   60.5748 H   0  0  0  0  0  0  0  0  0  0  0  0
  129.1589  129.8932   59.2340 H   0  0  0  0  0  0  0  0  0  0  0  0
  127.7373  128.7952   59.2340 H   0  0  0  0  0  0  0  0  0  0  0  0
  127.0129  126.8450   58.2823 H   0  0  0  0  0  0  0  0  0  0  0  0
  126.2524  124.9733   59.4100 H   0  0  0  0  0  0  0  0  0  0  0  0
  127.2365  122.5768   59.1320 H   0  0  0  0  0  0  0  0  0  0  0  0
  127.9697  121.1111   61.1866 H   0  0  0  0  0  0  0  0  0  0  0  0
  129.1958  121.0934   59.8535 H   0  0  0  0  0  0  0  0  0  0  0  0
  130.0302  121.4537   62.3124 H   0  0  0  0  0  0  0  0  0  0  0  0
  130.6576  122.5337   60.9964 H   0  0  0  0  0  0  0  0  0  0  0  0
  128.1898  123.2481   64.2473 H   0  0  0  0  0  0  0  0  0  0  0  0
  127.2129  123.9474   62.9119 H   0  0  0  0  0  0  0  0  0  0  0  0
  127.6104  122.1956   62.9119 H   0  0  0  0  0  0  0  0  0  0  0  0
  129.9773  124.7454   60.6102 H   0  0  0  0  0  0  0  0  0  0  0  0
  129.2214  126.7555   61.4431 H   0  0  0  0  0  0  0  0  0  0  0  0
  127.8935  126.0698   62.3554 H   0  0  0  0  0  0  0  0  0  0  0  0
  130.7654  126.3641   63.1256 H   0  0  0  0  0  0  0  0  0  0  0  0
  129.3856  125.9758   64.1864 H   0  0  0  0  0  0  0  0  0  0  0  0
  131.3454  124.0257   62.8619 H   0  0  0  0  0  0  0  0  0  0  0  0
  131.6734  123.8186   64.9229 H   0  0  0  0  0  0  0  0  0  0  0  0
  130.2068  121.8578   65.8570 H   0  0  0  0  0  0  0  0  0  0  0  0
  129.3117  121.9684   64.3036 H   0  0  0  0  0  0  0  0  0  0  0  0
  131.0669  121.5864   64.3036 H   0  0  0  0  0  0  0  0  0  0  0  0
  129.0584  125.0593   65.3244 H   0  0  0  0  0  0  0  0  0  0  0  0
  129.4695  123.7169   66.5248 H   0  0  0  0  0  0  0  0  0  0  0  0
  131.6028  124.9101   66.9988 H   0  0  0  0  0  0  0  0  0  0  0  0
  130.9475  126.3027   66.0250 H   0  0  0  0  0  0  0  0  0  0  0  0
  129.5568  125.1142   68.4597 H   0  0  0  0  0  0  0  0  0  0  0  0
  130.6787  126.5682   68.4709 H   0  0  0  0  0  0  0  0  0  0  0  0
  127.8508  126.3381   67.7381 H   0  0  0  0  0  0  0  0  0  0  0  0
  128.7053  128.4885   66.0770 H   0  0  0  0  0  0  0  0  0  0  0  0
  129.6630  127.0439   65.6054 H   0  0  0  0  0  0  0  0  0  0  0  0
  127.8682  126.9708   65.6054 H   0  0  0  0  0  0  0  0  0  0  0  0
  128.7633  127.7769   69.5771 H   0  0  0  0  0  0  0  0  0  0  0  0
  129.6551  128.7471   68.3564 H   0  0  0  0  0  0  0  0  0  0  0  0
  127.8588  128.7352   68.3564 H   0  0  0  0  0  0  0  0  0  0  0  0
  129.8222  124.6031   57.9100 H   0  0  0  0  0  0  0  0  0  0  0  0
  129.9870  125.8703   56.5994 H   0  0  0  0  0  0  0  0  0  0  0  0
  1  2  1  0
  2  3  1  0
  3  4  1  0
  4  5  1  0
  5  6  1  0
  6  7  1  0
  7  8  1  0
  8  9  2  0
  8 10  1  0
 10 11  1  0
 11 12  1  0
 12 13  1  0
 13 14  1  0
 14 15  1  0
 14 16  2  0
 16 17  1  0
 17 18  2  0
 18 19  1  0
 19 20  2  0
 20 21  1  0
 21 22  1  0
 22 23  1  0
 23 24  1  1
 23 25  1  0
 25 26  1  0
 26 27  1  0
 27 28  1  0
 28 29  1  0
 29 30  1  0
 29 31  1  0
 31 32  1  0
 32 33  1  0
 33 34  1  0
 34 35  1  0
 34 36  1  0
 16 37  1  0
 37 11  1  0
 25 19  1  0
 28 23  1  0
  1 38  1  0
  1 39  1  0
  1 40  1  0
  2 41  1  0
  2 42  1  0
  3 43  1  0
  3 44  1  0
  4 45  1  0
  4 46  1  0
  5 47  1  0
  5 48  1  0
  6 49  1  0
  6 50  1  0
  7 51  1  0
  7 52  1  0
 11 53  1  6
 12 54  1  0
 12 55  1  0
 13 56  1  0
 13 57  1  0
 15 58  1  0
 15 59  1  0
 15 60  1  0
 17 61  1  0
 18 62  1  0
 20 63  1  0
 21 64  1  0
 21 65  1  0
 22 66  1  0
 22 67  1  0
 24 68  1  0
 24 69  1  0
 24 70  1  0
 25 71  1  6
 26 72  1  0
 26 73  1  0
 27 74  1  0
 27 75  1  0
 28 76  1  6
 29 77  1  1
 30 78  1  0
 30 79  1  0
 30 80  1  0
 31 81  1  0
 31 82  1  0
 32 83  1  0
 32 84  1  0
 33 85  1  0
 33 86  1  0
 34 87  1  0
 35 88  1  0
 35 89  1  0
 35 90  1  0
 36 91  1  0
 36 92  1  0
 36 93  1  0
 37 94  1  0
 37 95  1  0
M  END
>  <Binding energies>  (1) 
[-8.42]

>  <Ligand effiencies>  (1) 
[-0.22756756756756757]

>  <Interactions>  (1) 
["V-A:ILE:369:CG2:3237, V-A:ASP:366:CA:3210, V-B:PRO:540:CA:9855, V-A:GLY:454:CA:4049, V-A:ILE:369:CB:3236, V-B:GLU:543:CB:9878, V-B:ALA:541:CB:9864, V-B:TYR:539:CE2:9848, V-A:TYR:484:CE2:4346, V-B:GLU:543:CG:9879, V-B:TYR:539:C:9839, V-A:ASP:366:CG:3213, V-B:TYR:539:CZ:9849, H-A:ASN:370:N:3244, H-B:TYR:539:OH:9850, V-A:TYR:484:CZ:4347, V-A:GLU:543:CD:4908, V-B:HIS:456:CE1:9041, V-A:SER:385:C:3405, V-B:PRO:540:N:9856, V-A:ILE:369:CD1:3239, V-A:HIS:456:CE1:4070, V-A:ASP:366:C:3208, V-B:TYR:539:CD2:9846, V-A:SER:385:CB:3409, V-B:GLU:543:CD:9880, V-A:ASP:366:CB:3212, V-A:LEU:475:CD2:4259, V-A:GLU:543:CB:4906, V-B:PRO:540:C:9853"]

$$$$
ZINC2383327944
     RDKit          3D

 77 84  0  0  0  0  0  0  0  0999 V2000
  128.2830  129.7640   58.0970 C   0  0  0  0  0  0  0  0  0  0  0  0
  128.8100  128.5170   58.6460 N   0  0  0  0  0  0  0  0  0  0  0  0
  129.8890  128.3880   59.5170 C   0  0  0  0  0  0  0  0  0  0  0  0
  130.6970  129.5860   60.0470 C   0  0  0  0  0  0  0  0  0  0  0  0
  130.1230  130.3000   61.2880 C   0  0  0  0  0  0  0  0  0  0  0  0
  130.8550  131.2560   62.0080 C   0  0  0  0  0  0  0  0  0  0  0  0
  130.2870  131.9030   63.1010 C   0  0  0  0  0  0  0  0  0  0  0  0
  128.9810  131.6050   63.4790 C   0  0  0  0  0  0  0  0  0  0  0  0
  128.2380  130.6660   62.7720 C   0  0  0  0  0  0  0  0  0  0  0  0
  128.8070  130.0170   61.6800 C   0  0  0  0  0  0  0  0  0  0  0  0
  131.2080  130.4790   58.9030 C   0  0  0  0  0  0  0  0  0  0  0  0
  132.1270  130.0190   57.9510 C   0  0  0  0  0  0  0  0  0  0  0  0
  132.5570  130.8580   56.9260 C   0  0  0  0  0  0  0  0  0  0  0  0
  132.0670  132.1590   56.8470 C   0  0  0  0  0  0  0  0  0  0  0  0
  131.1490  132.6280   57.7830 C   0  0  0  0  0  0  0  0  0  0  0  0
  130.7200  131.7890   58.8060 C   0  0  0  0  0  0  0  0  0  0  0  0
  130.0830  127.0310   59.7560 C   0  0  0  0  0  0  0  0  0  0  0  0
  131.0960  126.4330   60.6240 C   0  0  0  0  0  0  0  0  0  0  0  0
  131.0450  126.6610   61.9570 C   0  0  0  0  0  0  0  0  0  0  0  0
  130.0990  127.4290   62.5610 O   0  0  0  0  0  0  0  0  0  0  0  0
  128.7030  126.7670   63.2150 S   0  0  0  0  0  0  0  0  0  0  0  0
  127.7750  127.8630   63.5160 O   0  0  0  0  0  0  0  0  0  0  0  0
  128.2740  125.6200   62.4040 O   0  0  0  0  0  0  0  0  0  0  0  0
  129.3110  126.1500   64.8020 C   0  0  0  0  0  0  0  0  0  0  0  0
  129.9950  124.9330   64.8590 C   0  0  0  0  0  0  0  0  0  0  0  0
  130.4660  124.4230   66.0610 C   0  0  0  0  0  0  0  0  0  0  0  0
  130.2690  125.1170   67.2470 C   0  0  0  0  0  0  0  0  0  0  0  0
  129.5910  126.3590   67.2450 C   0  0  0  0  0  0  0  0  0  0  0  0
  129.3890  127.0790   68.4490 C   0  0  0  0  0  0  0  0  0  0  0  0
  128.7300  128.3030   68.4370 C   0  0  0  0  0  0  0  0  0  0  0  0
  128.2620  128.8370   67.2440 C   0  0  0  0  0  0  0  0  0  0  0  0
  128.4410  128.1560   66.0440 C   0  0  0  0  0  0  0  0  0  0  0  0
  129.1040  126.8950   66.0090 C   0  0  0  0  0  0  0  0  0  0  0  0
  131.9470  126.1800   62.8590 O   0  0  0  0  0  0  0  0  0  0  0  0
  132.9970  125.3830   62.4980 C   0  0  0  0  0  0  0  0  0  0  0  0
  133.7400  124.9900   63.3980 O   0  0  0  0  0  0  0  0  0  0  0  0
  133.1530  125.0700   61.0380 C   0  0  0  0  0  0  0  0  0  0  0  0
  134.2160  124.2820   60.5780 C   0  0  0  0  0  0  0  0  0  0  0  0
  134.3620  124.0210   59.2170 C   0  0  0  0  0  0  0  0  0  0  0  0
  133.4530  124.5520   58.3040 C   0  0  0  0  0  0  0  0  0  0  0  0
  132.3910  125.3370   58.7520 C   0  0  0  0  0  0  0  0  0  0  0  0
  132.2190  125.5960   60.1190 C   0  0  0  0  0  0  0  0  0  0  0  0
  129.1330  126.3020   58.9700 C   0  0  0  0  0  0  0  0  0  0  0  0
  128.8570  124.9370   58.7840 C   0  0  0  0  0  0  0  0  0  0  0  0
  127.8450  124.5610   57.9050 C   0  0  0  0  0  0  0  0  0  0  0  0
  127.4720  122.7130   57.6410 Br  0  0  0  0  0  0  0  0  0  0  0  0
  127.1070  125.5170   57.2150 C   0  0  0  0  0  0  0  0  0  0  0  0
  127.3410  126.8830   57.3760 C   0  0  0  0  0  0  0  0  0  0  0  0
  128.3570  127.2630   58.2650 C   0  0  0  0  0  0  0  0  0  0  0  0
  127.9990  130.4360   58.9203 H   0  0  0  0  0  0  0  0  0  0  0  0
  129.0539  130.2471   57.4787 H   0  0  0  0  0  0  0  0  0  0  0  0
  127.3993  129.5479   57.4787 H   0  0  0  0  0  0  0  0  0  0  0  0
  131.6038  129.1608   60.5018 H   0  0  0  0  0  0  0  0  0  0  0  0
  131.8853  131.4958   61.7063 H   0  0  0  0  0  0  0  0  0  0  0  0
  130.8682  132.6477   63.6646 H   0  0  0  0  0  0  0  0  0  0  0  0
  128.5331  132.1163   64.3438 H   0  0  0  0  0  0  0  0  0  0  0  0
  127.2054  130.4372   63.0743 H   0  0  0  0  0  0  0  0  0  0  0  0
  128.2189  129.2754   61.1195 H   0  0  0  0  0  0  0  0  0  0  0  0
  132.5109  128.9900   58.0134 H   0  0  0  0  0  0  0  0  0  0  0  0
  133.2808  130.4944   56.1818 H   0  0  0  0  0  0  0  0  0  0  0  0
  132.4081  132.8219   56.0382 H   0  0  0  0  0  0  0  0  0  0  0  0
  130.7651  133.6565   57.7137 H   0  0  0  0  0  0  0  0  0  0  0  0
  129.9922  132.1565   59.5444 H   0  0  0  0  0  0  0  0  0  0  0  0
  130.1639  124.3667   63.9312 H   0  0  0  0  0  0  0  0  0  0  0  0
  130.9996  123.4612   66.0739 H   0  0  0  0  0  0  0  0  0  0  0  0
  130.6421  124.6991   68.1937 H   0  0  0  0  0  0  0  0  0  0  0  0
  129.7564  126.6662   69.4001 H   0  0  0  0  0  0  0  0  0  0  0  0
  128.5785  128.8516   69.3783 H   0  0  0  0  0  0  0  0  0  0  0  0
  127.7447  129.8078   67.2475 H   0  0  0  0  0  0  0  0  0  0  0  0
  128.0654  128.5972   65.1090 H   0  0  0  0  0  0  0  0  0  0  0  0
  134.9395  123.8670   61.2952 H   0  0  0  0  0  0  0  0  0  0  0  0
  135.1950  123.3957   58.8633 H   0  0  0  0  0  0  0  0  0  0  0  0
  133.5732  124.3518   57.2291 H   0  0  0  0  0  0  0  0  0  0  0  0
  131.6806  125.7575   58.0250 H   0  0  0  0  0  0  0  0  0  0  0  0
  129.4341  124.1739   59.3268 H   0  0  0  0  0  0  0  0  0  0  0  0
  126.3175  125.1872   56.5237 H   0  0  0  0  0  0  0  0  0  0  0  0
  126.7518  127.6325   56.8272 H   0  0  0  0  0  0  0  0  0  0  0  0
  1  2  1  0
  2  3  1  0
  3  4  1  0
  4  5  1  0
  5  6  2  0
  6  7  1  0
  7  8  2  0
  8  9  1  0
  9 10  2  0
  4 11  1  0
 11 12  2  0
 12 13  1  0
 13 14  2  0
 14 15  1  0
 15 16  2  0
  3 17  2  0
 17 18  1  0
 18 19  2  0
 19 20  1  0
 20 21  1  0
 21 22  2  0
 21 23  2  0
 21 24  1  0
 24 25  2  0
 25 26  1  0
 26 27  2  0
 27 28  1  0
 28 29  2  0
 29 30  1  0
 30 31  2  0
 31 32  1  0
 32 33  2  0
 19 34  1  0
 34 35  1  0
 35 36  2  0
 35 37  1  0
 37 38  2  0
 38 39  1  0
 39 40  2  0
 40 41  1  0
 41 42  2  0
 17 43  1  0
 43 44  2  0
 44 45  1  0
 45 46  1  0
 45 47  2  0
 47 48  1  0
 48 49  2  0
 49  2  1  0
 10  5  1  0
 16 11  1  0
 42 18  1  0
 49 43  1  0
 33 24  1  0
 42 37  1  0
 33 28  1  0
  1 50  1  0
  1 51  1  0
  1 52  1  0
  4 53  1  0
  6 54  1  0
  7 55  1  0
  8 56  1  0
  9 57  1  0
 10 58  1  0
 12 59  1  0
 13 60  1  0
 14 61  1  0
 15 62  1  0
 16 63  1  0
 25 64  1  0
 26 65  1  0
 27 66  1  0
 29 67  1  0
 30 68  1  0
 31 69  1  0
 32 70  1  0
 38 71  1  0
 39 72  1  0
 40 73  1  0
 41 74  1  0
 44 75  1  0
 47 76  1  0
 48 77  1  0
M  END
>  <Binding energies>  (1) 
[-11.13]

>  <Ligand effiencies>  (1) 
[-0.22714285714285715]

>  <Interactions>  (1) 
["V-A:ILE:369:CG2:3237, V-A:ASP:366:CA:3210, V-B:PRO:540:CA:9855, V-A:ILE:369:CB:3236, V-B:GLU:543:CB:9878, H-A:ARG:545:NH1:4927, V-B:TYR:539:CE2:9848, V-A:TYR:484:CE2:4346, V-B:GLU:543:CG:9879, V-B:TYR:539:C:9839, V-A:ASP:366:CG:3213, V-A:LEU:363:CD1:3189, V-B:TYR:539:CZ:9849, V-A:TYR:531:CE2:4793, V-A:ALA:541:CB:4892, V-A:GLU:543:CD:4908, V-A:TYR:484:CZ:4347, V-B:HIS:456:CE1:9041, H-A:GLY:454:N:4050, V-B:PRO:540:N:9856, V-A:ILE:369:CD1:3239, V-A:HIS:456:CE1:4070, V-A:ASP:366:C:3208, V-A:ALA:541:CA:4890, V-B:TYR:539:CD2:9846, V-A:GLU:543:CG:4907, V-A:TYR:531:CZ:4794, V-B:GLU:543:CD:9880, V-A:ILE:369:CG1:3238, V-A:ASP:366:CB:3212, H-A:ARG:545:NH2:4928, V-A:ARG:545:CZ:4926, V-B:TYR:539:CG:9844, V-A:GLU:543:CB:4906, V-A:PRO:540:N:4884, V-A:PRO:540:CB:4885, V-A:PRO:540:CA:4883, V-A:PRO:540:CD:4887"]

$$$$
ZINC2383328754
     RDKit          3D

 77 83  0  0  0  0  0  0  0  0999 V2000
  129.3540  127.9610   70.7450 C   0  0  0  0  0  0  0  0  0  0  0  0
  128.2440  127.3210   69.9000 C   0  0  0  0  0  0  0  0  0  0  0  0
  128.7220  126.9080   68.5150 C   0  0  0  0  0  0  0  0  0  0  0  0
  128.4020  127.6920   67.4050 C   0  0  0  0  0  0  0  0  0  0  0  0
  128.8330  127.3120   66.1370 C   0  0  0  0  0  0  0  0  0  0  0  0
  129.5830  126.1450   65.9770 C   0  0  0  0  0  0  0  0  0  0  0  0
  129.9950  125.7440   64.6950 N   0  0  0  0  0  0  0  0  0  0  0  0
  131.2700  125.3950   64.3940 C   0  0  0  0  0  0  0  0  0  0  0  0
  132.2530  125.3900   65.1350 O   0  0  0  0  0  0  0  0  0  0  0  0
  131.2740  124.9550   62.9170 C   0  0  1  0  0  0  0  0  0  0  0  0
  131.9480  123.5880   62.6460 C   0  0  0  0  0  0  0  0  0  0  0  0
  130.8380  122.5890   62.3540 C   0  0  0  0  0  0  0  0  0  0  0  0
  129.5760  123.2270   62.9320 C   0  0  0  0  0  0  0  0  0  0  0  0
  129.8090  124.7050   62.6050 N   0  0  2  0  0  0  0  0  0  0  0  0
  129.5370  124.9320   61.2900 O   0  0  0  0  0  0  0  0  0  0  0  0
  129.1310  125.7130   63.5110 C   0  0  2  0  0  0  0  0  0  0  0  0
  128.8230  127.0860   62.9160 C   0  0  0  0  0  0  0  0  0  0  0  0
  128.2710  128.2630   63.4020 C   0  0  0  0  0  0  0  0  0  0  0  0
  128.2450  129.1690   62.3430 C   0  0  0  0  0  0  0  0  0  0  0  0
  128.7790  128.5150   61.2410 C   0  0  0  0  0  0  0  0  0  0  0  0
  129.0440  128.9080   59.7890 C   0  0  2  0  0  0  0  0  0  0  0  0
  129.6640  127.8340   59.0000 N   0  0  0  0  0  0  0  0  0  0  0  0
  128.9710  126.6760   58.5720 C   0  0  0  0  0  0  0  0  0  0  0  0
  127.5970  126.7090   58.2920 C   0  0  0  0  0  0  0  0  0  0  0  0
  126.9430  125.5620   57.8510 C   0  0  0  0  0  0  0  0  0  0  0  0
  127.6550  124.3740   57.6800 C   0  0  0  0  0  0  0  0  0  0  0  0
  126.9390  123.1220   57.1960 C   0  0  0  0  0  0  0  0  0  0  0  0
  125.4110  123.2810   57.1760 C   0  0  0  0  0  0  0  0  0  0  0  0
  129.0240  124.3350   57.9530 C   0  0  0  0  0  0  0  0  0  0  0  0
  129.6780  125.4810   58.3940 C   0  0  0  0  0  0  0  0  0  0  0  0
  130.9920  128.0600   58.8150 C   0  0  0  0  0  0  0  0  0  0  0  0
  131.8180  127.3480   58.2430 O   0  0  0  0  0  0  0  0  0  0  0  0
  131.3120  129.4240   59.4520 C   0  0  1  0  0  0  0  0  0  0  0  0
  132.1230  130.3920   58.5560 C   0  0  0  0  0  0  0  0  0  0  0  0
  131.1640  131.4770   58.0830 C   0  0  0  0  0  0  0  0  0  0  0  0
  129.7740  130.8740   58.2720 C   0  0  0  0  0  0  0  0  0  0  0  0
  129.9600  130.0950   59.5760 N   0  0  1  0  0  0  0  0  0  0  0  0
  129.9350  130.9550   60.6320 O   0  0  0  0  0  0  0  0  0  0  0  0
  129.1360  127.2560   61.6020 O   0  0  0  0  0  0  0  0  0  0  0  0
  129.9120  125.3630   67.0900 C   0  0  0  0  0  0  0  0  0  0  0  0
  129.4810  125.7460   68.3570 C   0  0  0  0  0  0  0  0  0  0  0  0
  129.1245  127.8287   71.8126 H   0  0  0  0  0  0  0  0  0  0  0  0
  130.3151  127.4784   70.5140 H   0  0  0  0  0  0  0  0  0  0  0  0
  129.4179  129.0346   70.5140 H   0  0  0  0  0  0  0  0  0  0  0  0
  127.8732  126.4282   70.4247 H   0  0  0  0  0  0  0  0  0  0  0  0
  127.4529  128.0736   69.7670 H   0  0  0  0  0  0  0  0  0  0  0  0
  127.8094  128.6099   67.5324 H   0  0  0  0  0  0  0  0  0  0  0  0
  128.5831  127.9303   65.2622 H   0  0  0  0  0  0  0  0  0  0  0  0
  131.8086  125.7211   62.3362 H   0  0  0  0  0  0  0  0  0  0  0  0
  132.6226  123.6654   61.7806 H   0  0  0  0  0  0  0  0  0  0  0  0
  132.5435  123.2675   63.5135 H   0  0  0  0  0  0  0  0  0  0  0  0
  130.7320  122.4335   61.2702 H   0  0  0  0  0  0  0  0  0  0  0  0
  131.0423  121.6015   62.7933 H   0  0  0  0  0  0  0  0  0  0  0  0
  128.6698  122.8439   62.4401 H   0  0  0  0  0  0  0  0  0  0  0  0
  129.4172  123.0221   64.0010 H   0  0  0  0  0  0  0  0  0  0  0  0
  128.1004  125.3987   63.7327 H   0  0  0  0  0  0  0  0  0  0  0  0
  127.9204  128.4462   64.4284 H   0  0  0  0  0  0  0  0  0  0  0  0
  127.8728  130.2036   62.3744 H   0  0  0  0  0  0  0  0  0  0  0  0
  128.0226  129.1524   59.4620 H   0  0  0  0  0  0  0  0  0  0  0  0
  127.0339  127.6451   58.4214 H   0  0  0  0  0  0  0  0  0  0  0  0
  125.8644  125.5921   57.6372 H   0  0  0  0  0  0  0  0  0  0  0  0
  127.2820  122.8928   56.1763 H   0  0  0  0  0  0  0  0  0  0  0  0
  127.1787  122.3104   57.8988 H   0  0  0  0  0  0  0  0  0  0  0  0
  125.0329  123.3203   58.2082 H   0  0  0  0  0  0  0  0  0  0  0  0
  125.1460  124.2116   56.6527 H   0  0  0  0  0  0  0  0  0  0  0  0
  124.9601  122.4249   56.6527 H   0  0  0  0  0  0  0  0  0  0  0  0
  129.5851  123.3984   57.8194 H   0  0  0  0  0  0  0  0  0  0  0  0
  130.7572  125.4479   58.6041 H   0  0  0  0  0  0  0  0  0  0  0  0
  131.8924  129.2409   60.3683 H   0  0  0  0  0  0  0  0  0  0  0  0
  132.9449  130.8407   59.1332 H   0  0  0  0  0  0  0  0  0  0  0  0
  132.5614  129.8577   57.7002 H   0  0  0  0  0  0  0  0  0  0  0  0
  131.2779  132.3872   58.6901 H   0  0  0  0  0  0  0  0  0  0  0  0
  131.3514  131.7728   57.0402 H   0  0  0  0  0  0  0  0  0  0  0  0
  129.0067  131.6554   58.3756 H   0  0  0  0  0  0  0  0  0  0  0  0
  129.4301  130.2608   57.4260 H   0  0  0  0  0  0  0  0  0  0  0  0
  130.5096  124.4481   66.9640 H   0  0  0  0  0  0  0  0  0  0  0  0
  129.7381  125.1336   69.2338 H   0  0  0  0  0  0  0  0  0  0  0  0
  1  2  1  0
  2  3  1  0
  3  4  2  0
  4  5  1  0
  5  6  2  0
  6  7  1  0
  7  8  1  0
  8  9  2  0
  8 10  1  0
 10 11  1  0
 11 12  1  0
 12 13  1  0
 13 14  1  0
 14 15  1  6
 14 16  1  0
 16 17  1  0
 17 18  2  0
 18 19  1  0
 19 20  2  0
 20 21  1  0
 21 22  1  0
 22 23  1  0
 23 24  2  0
 24 25  1  0
 25 26  2  0
 26 27  1  0
 27 28  1  0
 26 29  1  0
 29 30  2  0
 22 31  1  0
 31 32  2  0
 31 33  1  0
 33 34  1  0
 34 35  1  0
 35 36  1  0
 36 37  1  0
 37 38  1  1
 20 39  1  0
  6 40  1  0
 40 41  2  0
 41  3  1  0
 16  7  1  0
 39 17  1  0
 14 10  1  0
 37 21  1  0
 30 23  1  0
 37 33  1  0
  1 42  1  0
  1 43  1  0
  1 44  1  0
  2 45  1  0
  2 46  1  0
  4 47  1  0
  5 48  1  0
 10 49  1  6
 11 50  1  0
 11 51  1  0
 12 52  1  0
 12 53  1  0
 13 54  1  0
 13 55  1  0
 16 56  1  1
 18 57  1  0
 19 58  1  0
 21 59  1  6
 24 60  1  0
 25 61  1  0
 27 62  1  0
 27 63  1  0
 28 64  1  0
 28 65  1  0
 28 66  1  0
 29 67  1  0
 30 68  1  0
 33 69  1  1
 34 70  1  0
 34 71  1  0
 35 72  1  0
 35 73  1  0
 36 74  1  0
 36 75  1  0
 40 76  1  0
 41 77  1  0
M  CHG  4  14   1  15  -1  37   1  38  -1
M  END
>  <Binding energies>  (1) 
[-7.16]

>  <Ligand effiencies>  (1) 
[-0.17463414634146343]

>  <Interactions>  (1) 
["V-B:GLU:543:C:9874, V-B:GLU:543:CB:9878, H-A:TYR:531:OH:4795, V-B:TYR:539:CE2:9848, V-B:GLU:543:CG:9879, V-A:ASP:366:CG:3213, V-B:TYR:539:CZ:9849, V-A:GLU:543:CD:4908, V-B:PRO:540:CB:9857, V-B:HIS:456:CE1:9041, V-B:GLU:543:CA:9876, V-B:PRO:540:N:9856, V-A:HIS:456:CE1:4070, V-B:PRO:540:CD:9859, V-B:GLU:543:CD:9880, V-A:ASP:366:CB:3212, V-A:LEU:475:CD2:4259, H-A:ARG:545:NH2:4928, V-B:LEU:363:CD1:8160, H-A:ARG:545:NE:4924, V-B:MET:535:CE:9807, H-A:TYR:484:OH:4348"]

$$$$
ZINC2383331049
     RDKit          3D

 66 72  0  0  0  0  0  0  0  0999 V2000
  130.9020  131.8770   60.7280 O   0  0  0  0  0  0  0  0  0  0  0  0
  130.7540  130.6890   60.4470 C   0  0  0  0  0  0  0  0  0  0  0  0
  130.8830  129.7410   61.3950 N   0  0  0  0  0  0  0  0  0  0  0  0
  131.1920  128.3220   61.2140 C   0  0  0  0  0  0  0  0  0  0  0  0
  129.9560  127.4400   61.4940 C   0  0  0  0  0  0  0  0  0  0  0  0
  129.2840  127.7140   62.8500 C   0  0  0  0  0  0  0  0  0  0  0  0
  128.6910  126.5090   63.3350 O   0  0  0  0  0  0  0  0  0  0  0  0
  129.4940  125.3950   63.3100 C   0  0  0  0  0  0  0  0  0  0  0  0
  129.9890  124.7970   64.4740 C   0  0  0  0  0  0  0  0  0  0  0  0
  130.8370  123.6950   64.3820 C   0  0  0  0  0  0  0  0  0  0  0  0
  131.2120  123.2010   63.1330 C   0  0  0  0  0  0  0  0  0  0  0  0
  130.7260  123.7870   61.9540 C   0  0  0  0  0  0  0  0  0  0  0  0
  129.8340  124.8620   62.0690 C   0  0  0  0  0  0  0  0  0  0  0  0
  131.1960  123.3170   60.5580 C   0  0  1  0  0  0  0  0  0  0  0  0
  130.7540  124.3080   59.4740 C   0  0  0  0  0  0  0  0  0  0  0  0
  129.5190  124.2130   58.8240 C   0  0  0  0  0  0  0  0  0  0  0  0
  129.0860  125.2140   57.9600 C   0  0  0  0  0  0  0  0  0  0  0  0
  129.8830  126.3380   57.7470 C   0  0  0  0  0  0  0  0  0  0  0  0
  131.1380  126.4190   58.3510 C   0  0  0  0  0  0  0  0  0  0  0  0
  131.5780  125.4130   59.2170 C   0  0  0  0  0  0  0  0  0  0  0  0
  132.9070  125.4740   59.9500 C   0  0  0  0  0  0  0  0  0  0  0  0
  133.5890  124.0850   59.9540 C   0  0  0  0  0  0  0  0  0  0  0  0
  132.6520  123.0110   60.3810 N   0  0  0  0  0  0  0  0  0  0  0  0
  133.2020  121.7880   60.6570 C   0  0  0  0  0  0  0  0  0  0  0  0
  134.3980  121.6090   60.8970 O   0  0  0  0  0  0  0  0  0  0  0  0
  132.3250  120.6470   60.6660 C   0  0  0  0  0  0  0  0  0  0  0  0
  132.4600  119.6530   59.7920 N   0  0  0  0  0  0  0  0  0  0  0  0
  131.4340  118.8270   60.1060 C   0  0  0  0  0  0  0  0  0  0  0  0
  131.0640  117.6590   59.5600 N   0  0  0  0  0  0  0  0  0  0  0  0
  129.9640  117.0540   60.0970 C   0  0  0  0  0  0  0  0  0  0  0  0
  129.2210  117.5780   61.1610 C   0  0  0  0  0  0  0  0  0  0  0  0
  129.6260  118.7930   61.7120 C   0  0  0  0  0  0  0  0  0  0  0  0
  130.7300  119.3900   61.1680 N   0  0  0  0  0  0  0  0  0  0  0  0
  131.3110  120.5510   61.5160 N   0  0  0  0  0  0  0  0  0  0  0  0
  129.4240  127.3710   56.9710 O   0  0  0  0  0  0  0  0  0  0  0  0
  129.7150  128.6550   57.3730 C   0  0  0  0  0  0  0  0  0  0  0  0
  129.5490  129.7080   56.4720 C   0  0  0  0  0  0  0  0  0  0  0  0
  129.7820  131.0050   56.7940 N   0  0  0  0  0  0  0  0  0  0  0  0
  130.1830  131.2820   58.0600 C   0  0  0  0  0  0  0  0  0  0  0  0
  130.3800  130.2980   59.0380 C   0  0  0  0  0  0  0  0  0  0  0  0
  130.1380  128.9630   58.6760 C   0  0  0  0  0  0  0  0  0  0  0  0
  130.9260  130.0610   62.3510 H   0  0  0  0  0  0  0  0  0  0  0  0
  131.5234  128.1565   60.1783 H   0  0  0  0  0  0  0  0  0  0  0  0
  131.9849  128.0453   61.9245 H   0  0  0  0  0  0  0  0  0  0  0  0
  129.2166  127.6190   60.6995 H   0  0  0  0  0  0  0  0  0  0  0  0
  130.3085  126.3983   61.5191 H   0  0  0  0  0  0  0  0  0  0  0  0
  130.0378  128.0678   63.5688 H   0  0  0  0  0  0  0  0  0  0  0  0
  128.5075  128.4834   62.7276 H   0  0  0  0  0  0  0  0  0  0  0  0
  129.7093  125.1961   65.4602 H   0  0  0  0  0  0  0  0  0  0  0  0
  131.2117  123.2134   65.2973 H   0  0  0  0  0  0  0  0  0  0  0  0
  131.8966  122.3422   63.0712 H   0  0  0  0  0  0  0  0  0  0  0  0
  129.3927  125.2943   61.1589 H   0  0  0  0  0  0  0  0  0  0  0  0
  130.6992  122.3409   60.4559 H   0  0  0  0  0  0  0  0  0  0  0  0
  128.8809  123.3342   58.9985 H   0  0  0  0  0  0  0  0  0  0  0  0
  128.1178  125.1189   57.4466 H   0  0  0  0  0  0  0  0  0  0  0  0
  131.7875  127.2823   58.1441 H   0  0  0  0  0  0  0  0  0  0  0  0
  133.5646  126.1985   59.4473 H   0  0  0  0  0  0  0  0  0  0  0  0
  132.7255  125.7838   60.9898 H   0  0  0  0  0  0  0  0  0  0  0  0
  133.9478  123.8615   58.9385 H   0  0  0  0  0  0  0  0  0  0  0  0
  134.4234  124.1157   60.6701 H   0  0  0  0  0  0  0  0  0  0  0  0
  129.6416  116.0945   59.6663 H   0  0  0  0  0  0  0  0  0  0  0  0
  128.3413  117.0457   61.5519 H   0  0  0  0  0  0  0  0  0  0  0  0
  129.0804  119.2524   62.5494 H   0  0  0  0  0  0  0  0  0  0  0  0
  129.2128  129.4747   55.4509 H   0  0  0  0  0  0  0  0  0  0  0  0
  130.3626  132.3324   58.3327 H   0  0  0  0  0  0  0  0  0  0  0  0
  130.2798  128.1588   59.4130 H   0  0  0  0  0  0  0  0  0  0  0  0
  1  2  2  0
  2  3  1  0
  3  4  1  0
  4  5  1  0
  5  6  1  0
  6  7  1  0
  7  8  1  0
  8  9  2  0
  9 10  1  0
 10 11  2  0
 11 12  1  0
 12 13  2  0
 12 14  1  0
 14 15  1  0
 15 16  2  0
 16 17  1  0
 17 18  2  0
 18 19  1  0
 19 20  2  0
 20 21  1  0
 21 22  1  0
 22 23  1  0
 23 24  1  0
 24 25  2  0
 24 26  1  0
 26 27  1  0
 27 28  2  0
 28 29  1  0
 29 30  2  0
 30 31  1  0
 31 32  2  0
 32 33  1  0
 33 34  1  0
 18 35  1  0
 35 36  1  0
 36 37  1  0
 37 38  2  0
 38 39  1  0
 39 40  2  0
 40 41  1  0
 40  2  1  0
 13  8  1  0
 23 14  1  0
 34 26  2  0
 41 36  2  0
 20 15  1  0
 33 28  1  0
  3 42  1  0
  4 43  1  0
  4 44  1  0
  5 45  1  0
  5 46  1  0
  6 47  1  0
  6 48  1  0
  9 49  1  0
 10 50  1  0
 11 51  1  0
 13 52  1  0
 14 53  1  6
 16 54  1  0
 17 55  1  0
 19 56  1  0
 21 57  1  0
 21 58  1  0
 22 59  1  0
 22 60  1  0
 30 61  1  0
 31 62  1  0
 32 63  1  0
 37 64  1  0
 39 65  1  0
 41 66  1  0
M  END
>  <Binding energies>  (1) 
[-5.16]

>  <Ligand effiencies>  (1) 
[-0.11727272727272728]

>  <Interactions>  (1) 
["V-A:ILE:369:CG2:3237, V-A:ASP:366:CA:3210, V-B:ALA:541:CB:9864, H-A:TYR:531:OH:4795, V-B:TYR:539:CE2:9848, V-B:GLU:543:CG:9879, V-B:TYR:539:C:9839, V-A:ASP:366:CG:3213, V-B:TYR:539:CZ:9849, V-B:VAL:344:CG1:7972, V-A:LEU:475:CD1:4258, V-B:TYR:539:CB:9843, V-A:HIS:383:CE1:3393, V-A:GLU:543:CD:4908, V-A:ILE:369:CD1:3239, V-A:PRO:482:CB:4326, V-B:TYR:539:CD2:9846, H-A:SER:385:OG:3410, V-A:MET:535:CE:4835, V-B:GLU:543:CD:9880, V-A:ASP:366:CB:3212, V-A:LEU:475:CD2:4259, H-A:GLU:543:OE1:4909, V-B:TYR:539:CG:9844, H-A:HIS:383:HE2:3395, V-A:PRO:482:CG:4327, V-B:PRO:540:C:9853, H-A:ASP:366:OD2:3215, V-A:HIS:383:NE2:3394"]

$$$$
ZINC2383346678
     RDKit          3D

 83 86  0  0  0  0  0  0  0  0999 V2000
  130.2440  127.6940   71.0850 C   0  0  0  0  0  0  0  0  0  0  0  0
  128.7450  127.9170   71.3280 C   0  0  0  0  0  0  0  0  0  0  0  0
  127.8690  126.8100   70.7230 C   0  0  0  0  0  0  0  0  0  0  0  0
  127.6420  127.1140   69.3490 O   0  0  0  0  0  0  0  0  0  0  0  0
  128.4900  126.5940   68.3900 C   0  0  0  0  0  0  0  0  0  0  0  0
  129.3850  125.5360   68.6120 C   0  0  0  0  0  0  0  0  0  0  0  0
  130.2130  125.0890   67.5850 C   0  0  0  0  0  0  0  0  0  0  0  0
  130.1610  125.7010   66.3310 C   0  0  0  0  0  0  0  0  0  0  0  0
  131.0850  125.2430   65.2350 C   0  0  0  0  0  0  0  0  0  0  0  0
  132.2800  125.1160   65.5080 O   0  0  0  0  0  0  0  0  0  0  0  0
  130.5620  125.0200   63.9890 N   0  0  0  0  0  0  0  0  0  0  0  0
  130.8850  123.8100   63.1990 C   0  0  0  0  0  0  0  0  0  0  0  0
  132.3850  123.4330   63.1790 C   0  0  0  0  0  0  0  0  0  0  0  0
  132.8060  122.4880   63.8430 O   0  0  0  0  0  0  0  0  0  0  0  0
  133.2190  124.1290   62.3880 N   0  0  0  0  0  0  0  0  0  0  0  0
  132.8590  125.1720   61.4250 C   0  0  0  0  0  0  0  0  0  0  0  0
  133.3890  124.8660   60.0090 C   0  0  0  0  0  0  0  0  0  0  0  0
  133.4040  123.3730   59.6080 C   0  0  0  0  0  0  0  0  0  0  0  0
  132.2780  122.5440   60.2150 C   0  0  0  0  0  0  0  0  0  0  0  0
  132.5030  121.2180   60.5890 C   0  0  0  0  0  0  0  0  0  0  0  0
  131.4830  120.4760   61.1790 C   0  0  0  0  0  0  0  0  0  0  0  0
  130.2290  121.0480   61.3970 C   0  0  0  0  0  0  0  0  0  0  0  0
  129.2690  120.2960   61.9860 F   0  0  0  0  0  0  0  0  0  0  0  0
  129.9770  122.3760   61.0110 C   0  0  0  0  0  0  0  0  0  0  0  0
  131.0170  123.1110   60.4250 C   0  0  0  0  0  0  0  0  0  0  0  0
  128.6100  122.9880   61.2440 C   0  0  0  0  0  0  0  0  0  0  0  0
  128.1370  122.9120   62.3790 O   0  0  0  0  0  0  0  0  0  0  0  0
  127.9840  123.6400   60.2210 N   0  0  0  0  0  0  0  0  0  0  0  0
  126.5610  123.5230   59.8700 C   0  0  0  0  0  0  0  0  0  0  0  0
  126.4260  124.0870   58.4590 C   0  0  0  0  0  0  0  0  0  0  0  0
  127.5280  125.1250   58.4090 C   0  0  0  0  0  0  0  0  0  0  0  0
  128.6680  124.4600   59.1900 C   0  0  1  0  0  0  0  0  0  0  0  0
  129.8200  125.4250   59.5630 C   0  0  0  0  0  0  0  0  0  0  0  0
  130.6150  125.7080   58.6710 O   0  0  0  0  0  0  0  0  0  0  0  0
  129.9820  125.9340   60.8000 N   0  0  0  0  0  0  0  0  0  0  0  0
  129.1510  125.8370   62.0030 C   0  0  2  0  0  0  0  0  0  0  0  0
  127.8790  126.7610   61.9280 C   0  0  0  0  0  0  0  0  0  0  0  0
  127.8000  127.5530   60.6080 C   0  0  0  0  0  0  0  0  0  0  0  0
  127.6850  127.7370   63.1160 C   0  0  0  0  0  0  0  0  0  0  0  0
  130.0710  126.1700   63.2050 C   0  0  0  0  0  0  0  0  0  0  0  0
  129.2550  126.7400   66.0990 C   0  0  0  0  0  0  0  0  0  0  0  0
  128.4290  127.1830   67.1260 C   0  0  0  0  0  0  0  0  0  0  0  0
  130.7645  127.6166   72.0510 H   0  0  0  0  0  0  0  0  0  0  0  0
  130.3887  126.7644   70.5149 H   0  0  0  0  0  0  0  0  0  0  0  0
  130.6531  128.5412   70.5149 H   0  0  0  0  0  0  0  0  0  0  0  0
  128.5669  127.9516   72.4129 H   0  0  0  0  0  0  0  0  0  0  0  0
  128.4684  128.8616   70.8367 H   0  0  0  0  0  0  0  0  0  0  0  0
  128.3831  125.8413   70.8088 H   0  0  0  0  0  0  0  0  0  0  0  0
  126.9106  126.7517   71.2598 H   0  0  0  0  0  0  0  0  0  0  0  0
  129.4328  125.0577   69.6014 H   0  0  0  0  0  0  0  0  0  0  0  0
  130.9074  124.2544   67.7617 H   0  0  0  0  0  0  0  0  0  0  0  0
  130.3246  122.9639   63.6234 H   0  0  0  0  0  0  0  0  0  0  0  0
  130.6070  124.0346   62.1587 H   0  0  0  0  0  0  0  0  0  0  0  0
  134.2000  123.8930   62.4240 H   0  0  0  0  0  0  0  0  0  0  0  0
  131.7627  125.2524   61.3832 H   0  0  0  0  0  0  0  0  0  0  0  0
  133.3171  126.1141   61.7607 H   0  0  0  0  0  0  0  0  0  0  0  0
  132.7561  125.4036   59.2876 H   0  0  0  0  0  0  0  0  0  0  0  0
  134.4407  125.1883   60.0059 H   0  0  0  0  0  0  0  0  0  0  0  0
  133.3245  123.3107   58.5126 H   0  0  0  0  0  0  0  0  0  0  0  0
  134.3445  122.9545   59.9956 H   0  0  0  0  0  0  0  0  0  0  0  0
  133.4876  120.7586   60.4174 H   0  0  0  0  0  0  0  0  0  0  0  0
  131.6669  119.4327   61.4750 H   0  0  0  0  0  0  0  0  0  0  0  0
  130.8377  124.1539   60.1246 H   0  0  0  0  0  0  0  0  0  0  0  0
  126.2479  122.4687   59.8914 H   0  0  0  0  0  0  0  0  0  0  0  0
  125.9249  124.0676   60.5832 H   0  0  0  0  0  0  0  0  0  0  0  0
  126.5835  123.3044   57.7022 H   0  0  0  0  0  0  0  0  0  0  0  0
  125.4283  124.4988   58.2469 H   0  0  0  0  0  0  0  0  0  0  0  0
  127.8285  125.3321   57.3713 H   0  0  0  0  0  0  0  0  0  0  0  0
  127.2262  126.0964   58.8277 H   0  0  0  0  0  0  0  0  0  0  0  0
  129.2969  123.7706   58.6075 H   0  0  0  0  0  0  0  0  0  0  0  0
  130.7950  126.5210   60.9210 H   0  0  0  0  0  0  0  0  0  0  0  0
  128.7391  124.8228   62.1117 H   0  0  0  0  0  0  0  0  0  0  0  0
  127.0547  126.0347   61.9830 H   0  0  0  0  0  0  0  0  0  0  0  0
  127.6931  128.6251   60.8295 H   0  0  0  0  0  0  0  0  0  0  0  0
  128.7190  127.3887   60.0262 H   0  0  0  0  0  0  0  0  0  0  0  0
  126.9316  127.2104   60.0262 H   0  0  0  0  0  0  0  0  0  0  0  0
  127.7941  127.1881   64.0630 H   0  0  0  0  0  0  0  0  0  0  0  0
  128.4425  128.5329   63.0641 H   0  0  0  0  0  0  0  0  0  0  0  0
  126.6807  128.1827   63.0641 H   0  0  0  0  0  0  0  0  0  0  0  0
  130.9472  126.7102   62.8172 H   0  0  0  0  0  0  0  0  0  0  0  0
  129.4486  126.7544   63.8986 H   0  0  0  0  0  0  0  0  0  0  0  0
  129.1956  127.2067   65.1047 H   0  0  0  0  0  0  0  0  0  0  0  0
  127.7214  128.0046   66.9408 H   0  0  0  0  0  0  0  0  0  0  0  0
  1  2  1  0
  2  3  1  0
  3  4  1  0
  4  5  1  0
  5  6  2  0
  6  7  1  0
  7  8  2  0
  8  9  1  0
  9 10  2  0
  9 11  1  0
 11 12  1  0
 12 13  1  0
 13 14  2  0
 13 15  1  0
 15 16  1  0
 16 17  1  0
 17 18  1  0
 18 19  1  0
 19 20  1  0
 20 21  2  0
 21 22  1  0
 22 23  1  0
 22 24  2  0
 24 25  1  0
 24 26  1  0
 26 27  2  0
 26 28  1  0
 28 29  1  0
 29 30  1  0
 30 31  1  0
 31 32  1  0
 32 33  1  0
 33 34  2  0
 33 35  1  0
 35 36  1  0
 36 37  1  0
 37 38  1  0
 37 39  1  0
 36 40  1  0
  8 41  1  0
 41 42  2  0
 42  5  1  0
 40 11  1  0
 25 19  2  0
 32 28  1  0
  1 43  1  0
  1 44  1  0
  1 45  1  0
  2 46  1  0
  2 47  1  0
  3 48  1  0
  3 49  1  0
  6 50  1  0
  7 51  1  0
 12 52  1  0
 12 53  1  0
 15 54  1  0
 16 55  1  0
 16 56  1  0
 17 57  1  0
 17 58  1  0
 18 59  1  0
 18 60  1  0
 20 61  1  0
 21 62  1  0
 25 63  1  0
 29 64  1  0
 29 65  1  0
 30 66  1  0
 30 67  1  0
 31 68  1  0
 31 69  1  0
 32 70  1  6
 35 71  1  0
 36 72  1  1
 37 73  1  0
 38 74  1  0
 38 75  1  0
 38 76  1  0
 39 77  1  0
 39 78  1  0
 39 79  1  0
 40 80  1  0
 40 81  1  0
 41 82  1  0
 42 83  1  0
M  END
>  <Binding energies>  (1) 
[-4.29]

>  <Ligand effiencies>  (1) 
[-0.0932608695652174]

>  <Interactions>  (1) 
["V-A:ILE:369:CG2:3237, V-A:ASP:366:CA:3210, V-B:PRO:540:CA:9855, V-B:GLU:543:C:9874, V-B:HIS:456:CD2:9039, V-A:ILE:369:CB:3236, V-B:GLU:543:CB:9878, V-B:ALA:541:CB:9864, V-B:TYR:539:CE2:9848, V-A:TYR:484:CE2:4346, V-B:GLU:543:CG:9879, V-A:ASP:366:CG:3213, H-B:TYR:539:OH:9850, H-B:ALA:541:N:9863, V-A:GLU:543:CD:4908, V-A:TYR:484:CZ:4347, V-B:PRO:540:CB:9857, V-B:HIS:456:CE1:9041, V-B:GLU:543:CA:9876, H-A:GLY:454:N:4050, V-A:HIS:456:CE1:4070, V-B:GLY:544:C:9884, V-B:TYR:539:CD2:9846, V-B:GLU:543:CD:9880, V-A:ASP:366:CB:3212, V-A:LEU:475:CD2:4259, H-A:ASP:366:OD1:3214, H-A:ARG:545:NE:4924, V-B:PRO:540:C:9853, V-B:ALA:541:CA:9862, H-A:TYR:484:OH:4348"]

$$$$
ZINC2383348906
     RDKit          3D

 73 78  0  0  0  0  0  0  0  0999 V2000
  127.6670  122.3960   57.5170 C   0  0  0  0  0  0  0  0  0  0  0  0
  127.1180  122.8590   58.7460 O   0  0  0  0  0  0  0  0  0  0  0  0
  127.9280  122.9370   59.8650 C   0  0  0  0  0  0  0  0  0  0  0  0
  128.9970  122.0600   60.1200 C   0  0  0  0  0  0  0  0  0  0  0  0
  129.7840  122.2090   61.2580 C   0  0  0  0  0  0  0  0  0  0  0  0
  129.5170  123.2320   62.1680 C   0  0  0  0  0  0  0  0  0  0  0  0
  128.4490  124.0990   61.9270 C   0  0  0  0  0  0  0  0  0  0  0  0
  127.6560  123.9670   60.7760 C   0  0  0  0  0  0  0  0  0  0  0  0
  126.6060  124.8160   60.4730 O   0  0  0  0  0  0  0  0  0  0  0  0
  126.3580  125.1580   59.1130 C   0  0  0  0  0  0  0  0  0  0  0  0
  127.6360  125.7740   58.5360 C   0  0  0  0  0  0  0  0  0  0  0  0
  128.0640  125.3530   57.4620 O   0  0  0  0  0  0  0  0  0  0  0  0
  128.2750  126.7710   59.1710 N   0  0  0  0  0  0  0  0  0  0  0  0
  127.9260  127.4870   60.4080 C   0  0  2  0  0  0  0  0  0  0  0  0
  127.9650  129.0230   60.1790 C   0  0  0  0  0  0  0  0  0  0  0  0
  129.3060  129.4750   59.7530 N   0  0  0  0  0  0  0  0  0  0  0  0
  129.3570  130.7510   59.2120 C   0  0  0  0  0  0  0  0  0  0  0  0
  128.3930  131.6590   59.5430 N   0  0  0  0  0  0  0  0  0  0  0  0
  128.4270  132.8980   58.9880 C   0  0  0  0  0  0  0  0  0  0  0  0
  129.3910  133.3190   58.0700 C   0  0  0  0  0  0  0  0  0  0  0  0
  130.3600  132.3650   57.7340 C   0  0  0  0  0  0  0  0  0  0  0  0
  131.3930  132.5340   56.8580 O   0  0  0  0  0  0  0  0  0  0  0  0
  132.0680  131.3490   56.8410 C   0  0  0  0  0  0  0  0  0  0  0  0
  131.4960  130.4120   57.6890 C   0  0  0  0  0  0  0  0  0  0  0  0
  130.3710  131.0640   58.2880 C   0  0  0  0  0  0  0  0  0  0  0  0
  130.1720  129.2420   60.9300 C   0  0  0  0  0  0  0  0  0  0  0  0
  130.2280  127.7540   61.3580 C   0  0  0  0  0  0  0  0  0  0  0  0
  128.8230  127.1810   61.6400 C   0  0  1  0  0  0  0  0  0  0  0  0
  128.3330  127.8520   62.8070 O   0  0  0  0  0  0  0  0  0  0  0  0
  128.6790  127.4500   64.0820 C   0  0  0  0  0  0  0  0  0  0  0  0
  128.3840  128.3550   65.1040 C   0  0  0  0  0  0  0  0  0  0  0  0
  128.7060  128.0700   66.4280 C   0  0  0  0  0  0  0  0  0  0  0  0
  128.4110  128.9580   67.4040 F   0  0  0  0  0  0  0  0  0  0  0  0
  129.3440  126.8730   66.7440 C   0  0  0  0  0  0  0  0  0  0  0  0
  129.6500  125.9520   65.7390 C   0  0  0  0  0  0  0  0  0  0  0  0
  129.3170  126.2420   64.4100 C   0  0  0  0  0  0  0  0  0  0  0  0
  130.4270  124.6910   66.0840 C   0  0  0  0  0  0  0  0  0  0  0  0
  131.8390  124.7860   65.7280 N   0  0  0  0  0  0  0  0  0  0  0  0
  132.3680  124.6880   64.4940 C   0  0  0  0  0  0  0  0  0  0  0  0
  133.5850  124.7310   64.3330 O   0  0  0  0  0  0  0  0  0  0  0  0
  131.4590  124.5290   63.2570 C   0  0  0  0  0  0  0  0  0  0  0  0
  130.3930  123.4200   63.4020 C   0  0  0  0  0  0  0  0  0  0  0  0
  128.4929  121.6995   57.7237 H   0  0  0  0  0  0  0  0  0  0  0  0
  126.8871  121.8788   56.9388 H   0  0  0  0  0  0  0  0  0  0  0  0
  128.0452  123.2519   56.9388 H   0  0  0  0  0  0  0  0  0  0  0  0
  129.2138  121.2467   59.4118 H   0  0  0  0  0  0  0  0  0  0  0  0
  130.6197  121.5175   61.4406 H   0  0  0  0  0  0  0  0  0  0  0  0
  128.2257  124.8974   62.6500 H   0  0  0  0  0  0  0  0  0  0  0  0
  126.0898  124.2552   58.5446 H   0  0  0  0  0  0  0  0  0  0  0  0
  125.5260  125.8745   59.0461 H   0  0  0  0  0  0  0  0  0  0  0  0
  129.0420  127.1870   58.6620 H   0  0  0  0  0  0  0  0  0  0  0  0
  126.9162  127.1198   60.6433 H   0  0  0  0  0  0  0  0  0  0  0  0
  127.2350  129.2865   59.3994 H   0  0  0  0  0  0  0  0  0  0  0  0
  127.7203  129.5192   61.1297 H   0  0  0  0  0  0  0  0  0  0  0  0
  127.6457  133.6151   59.2802 H   0  0  0  0  0  0  0  0  0  0  0  0
  129.3896  134.3314   57.6397 H   0  0  0  0  0  0  0  0  0  0  0  0
  132.9608  131.1587   56.2272 H   0  0  0  0  0  0  0  0  0  0  0  0
  131.8365  129.3809   57.8649 H   0  0  0  0  0  0  0  0  0  0  0  0
  131.1916  129.5747   60.6858 H   0  0  0  0  0  0  0  0  0  0  0  0
  129.7439  129.8091   61.7697 H   0  0  0  0  0  0  0  0  0  0  0  0
  130.6947  127.1696   60.5513 H   0  0  0  0  0  0  0  0  0  0  0  0
  130.8144  127.6890   62.2864 H   0  0  0  0  0  0  0  0  0  0  0  0
  128.8322  126.0940   61.8085 H   0  0  0  0  0  0  0  0  0  0  0  0
  127.8900  129.3069   64.8592 H   0  0  0  0  0  0  0  0  0  0  0  0
  129.6080  126.6519   67.7887 H   0  0  0  0  0  0  0  0  0  0  0  0
  129.5568  125.5185   63.6169 H   0  0  0  0  0  0  0  0  0  0  0  0
  130.3480  124.5138   67.1668 H   0  0  0  0  0  0  0  0  0  0  0  0
  129.9925  123.8633   65.5043 H   0  0  0  0  0  0  0  0  0  0  0  0
  132.4750  124.9390   66.4980 H   0  0  0  0  0  0  0  0  0  0  0  0
  130.9431  125.4845   63.0812 H   0  0  0  0  0  0  0  0  0  0  0  0
  132.1090  124.2395   62.4181 H   0  0  0  0  0  0  0  0  0  0  0  0
  130.9086  122.4703   63.6074 H   0  0  0  0  0  0  0  0  0  0  0  0
  129.7255  123.7273   64.2205 H   0  0  0  0  0  0  0  0  0  0  0  0
  1  2  1  0
  2  3  1  0
  3  4  2  0
  4  5  1  0
  5  6  2  0
  6  7  1  0
  7  8  2  0
  8  9  1  0
  9 10  1  0
 10 11  1  0
 11 12  2  0
 11 13  1  0
 13 14  1  0
 14 15  1  0
 15 16  1  0
 16 17  1  0
 17 18  2  0
 18 19  1  0
 19 20  2  0
 20 21  1  0
 21 22  1  0
 22 23  1  0
 23 24  2  0
 24 25  1  0
 16 26  1  0
 26 27  1  0
 27 28  1  0
 28 29  1  0
 29 30  1  0
 30 31  2  0
 31 32  1  0
 32 33  1  0
 32 34  2  0
 34 35  1  0
 35 36  2  0
 35 37  1  0
 37 38  1  0
 38 39  1  0
 39 40  2  0
 39 41  1  0
 41 42  1  0
  8  3  1  0
 28 14  1  0
 36 30  1  0
 42  6  1  0
 25 17  1  0
 25 21  2  0
  1 43  1  0
  1 44  1  0
  1 45  1  0
  4 46  1  0
  5 47  1  0
  7 48  1  0
 10 49  1  0
 10 50  1  0
 13 51  1  0
 14 52  1  1
 15 53  1  0
 15 54  1  0
 19 55  1  0
 20 56  1  0
 23 57  1  0
 24 58  1  0
 26 59  1  0
 26 60  1  0
 27 61  1  0
 27 62  1  0
 28 63  1  1
 31 64  1  0
 34 65  1  0
 36 66  1  0
 37 67  1  0
 37 68  1  0
 38 69  1  0
 41 70  1  0
 41 71  1  0
 42 72  1  0
 42 73  1  0
M  END
>  <Binding energies>  (1) 
[-5.48]

>  <Ligand effiencies>  (1) 
[-0.11913043478260871]

>  <Interactions>  (1) 
["V-B:TYR:539:CA:9841, V-B:PRO:540:CA:9855, H-A:GLU:543:OE2:4910, V-B:GLU:543:CB:9878, V-B:TYR:539:CE2:9848, V-A:TYR:484:CE2:4346, V-B:GLU:543:CG:9879, V-B:TYR:539:C:9839, V-A:TYR:539:CE1:4875, V-A:TYR:539:CD1:4873, V-A:LEU:363:CD1:3189, V-B:TYR:539:CZ:9849, V-A:TYR:531:CE2:4793, V-A:TYR:539:CA:4869, V-A:GLU:543:CD:4908, V-A:TYR:484:CZ:4347, V-B:HIS:456:CE1:9041, H-A:GLY:454:N:4050, V-B:PRO:540:N:9856, V-B:TYR:539:CD2:9846, V-A:GLU:543:CG:4907, V-A:TYR:531:CZ:4794, V-B:GLU:543:CD:9880, V-A:TYR:539:C:4867, H-A:ARG:545:NH2:4928, V-A:ARG:545:CZ:4926, V-B:TYR:539:CG:9844, V-A:GLU:543:CB:4906, V-B:TYR:539:CD1:9845, V-A:PRO:540:N:4884, V-A:TYR:539:CG:4872, V-A:PRO:540:CA:4883, H-A:ARG:545:NE:4924, V-B:TYR:539:CE1:9847, H-A:TYR:484:OH:4348"]

$$$$
ZINC2383397995
     RDKit          3D

 25 25  0  0  0  0  0  0  0  0999 V2000
  128.6580  127.3130   66.9390 C   0  0  0  0  0  0  0  0  0  0  0  0
  129.9870  126.5980   66.6570 N   0  0  0  0  0  0  0  0  0  0  0  0
  129.9160  125.0840   66.9010 C   0  0  0  0  0  0  0  0  0  0  0  0
  130.4190  124.4150   65.6920 C   0  0  0  0  0  0  0  0  0  0  0  0
  130.8460  123.8730   64.6830 C   0  0  0  0  0  0  0  0  0  0  0  0
  131.3920  123.2500   63.4810 C   0  0  0  0  0  0  0  0  0  0  0  0
  130.5670  122.4010   62.7350 C   0  0  0  0  0  0  0  0  0  0  0  0
  131.0470  121.7880   61.5770 C   0  0  0  0  0  0  0  0  0  0  0  0
  130.2420  120.9710   60.8630 F   0  0  0  0  0  0  0  0  0  0  0  0
  132.3540  122.0200   61.1570 C   0  0  0  0  0  0  0  0  0  0  0  0
  133.1860  122.8640   61.8920 C   0  0  0  0  0  0  0  0  0  0  0  0
  134.4520  123.0790   61.4670 F   0  0  0  0  0  0  0  0  0  0  0  0
  132.7150  123.4840   63.0570 C   0  0  0  0  0  0  0  0  0  0  0  0
  133.6190  124.3680   63.8080 N   0  0  0  0  0  0  0  0  0  0  0  0
  134.4020  125.0570   63.1640 O   0  0  0  0  0  0  0  0  0  0  0  0
  133.5390  124.3550   65.0310 O   0  0  0  0  0  0  0  0  0  0  0  0
  128.5084  127.3935   68.0258 H   0  0  0  0  0  0  0  0  0  0  0  0
  128.6822  128.3198   66.4966 H   0  0  0  0  0  0  0  0  0  0  0  0
  127.8312  126.7379   66.4966 H   0  0  0  0  0  0  0  0  0  0  0  0
  130.2400  126.7660   65.6930 H   0  0  0  0  0  0  0  0  0  0  0  0
  130.6960  126.9960   67.2570 H   0  0  0  0  0  0  0  0  0  0  0  0
  130.5394  124.8138   67.7661 H   0  0  0  0  0  0  0  0  0  0  0  0
  128.8817  124.7747   67.1118 H   0  0  0  0  0  0  0  0  0  0  0  0
  129.5337  122.2157   63.0634 H   0  0  0  0  0  0  0  0  0  0  0  0
  132.7311  121.5366   60.2437 H   0  0  0  0  0  0  0  0  0  0  0  0
  1  2  1  0
  2  3  1  0
  3  4  1  0
  4  5  3  0
  5  6  1  0
  6  7  2  0
  7  8  1  0
  8  9  1  0
  8 10  2  0
 10 11  1  0
 11 12  1  0
 11 13  2  0
 13 14  1  0
 14 15  2  0
 14 16  1  0
 13  6  1  0
  1 17  1  0
  1 18  1  0
  1 19  1  0
  2 20  1  0
  2 21  1  0
  3 22  1  0
  3 23  1  0
  7 24  1  0
 10 25  1  0
M  CHG  3   2   1  14   1  16  -1
M  END
>  <Binding energies>  (1) 
[-5.53]

>  <Ligand effiencies>  (1) 
[-0.30722222222222223]

>  <Interactions>  (1) 
["V-A:ILE:369:CG2:3237, V-A:GLY:454:CA:4049, H-A:GLU:543:OE2:4910, V-B:GLU:543:CB:9878, H-A:ARG:545:NH1:4927, V-A:TYR:484:CE2:4346, V-B:TYR:539:CE2:9848, V-B:GLU:543:CG:9879, V-A:TYR:484:CZ:4347, V-A:GLU:543:CD:4908, V-B:GLU:543:CA:9876, H-A:GLY:454:N:4050, V-A:ILE:369:CD1:3239, V-A:HIS:456:CE1:4070, V-B:TYR:539:CD2:9846, V-B:GLU:543:CD:9880, V-A:LEU:475:CD2:4259, H-A:ARG:545:NH2:4928, V-A:ARG:545:CZ:4926, H-A:GLU:543:OE1:4909, H-A:TYR:484:OH:4348"]

$$$$
ZINC2383749971
     RDKit          3D

 83 89  0  0  0  0  0  0  0  0999 V2000
  127.7170  126.9660   69.3360 C   0  0  0  0  0  0  0  0  0  0  0  0
  129.1980  126.6290   69.0710 C   0  0  0  0  0  0  0  0  0  0  0  0
  130.1320  127.7590   69.5410 C   0  0  0  0  0  0  0  0  0  0  0  0
  129.4650  126.2520   67.6110 C   0  0  0  0  0  0  0  0  0  0  0  0
  130.2510  125.1410   67.2940 C   0  0  0  0  0  0  0  0  0  0  0  0
  130.4780  124.7980   65.9640 C   0  0  0  0  0  0  0  0  0  0  0  0
  129.9280  125.5630   64.9260 C   0  0  0  0  0  0  0  0  0  0  0  0
  130.1510  125.1750   63.5750 N   0  0  0  0  0  0  0  0  0  0  0  0
  130.1920  123.8950   63.1090 C   0  0  0  0  0  0  0  0  0  0  0  0
  129.9700  122.8480   63.7160 O   0  0  0  0  0  0  0  0  0  0  0  0
  130.6380  123.9630   61.6340 C   0  0  2  0  0  0  0  0  0  0  0  0
  131.8440  123.0620   61.2770 C   0  0  0  0  0  0  0  0  0  0  0  0
  133.0520  123.9730   61.1030 C   0  0  0  0  0  0  0  0  0  0  0  0
  132.6730  125.2640   61.8250 C   0  0  0  0  0  0  0  0  0  0  0  0
  131.1830  125.3690   61.4840 N   0  0  1  0  0  0  0  0  0  0  0  0
  131.0350  125.8210   60.2070 O   0  0  0  0  0  0  0  0  0  0  0  0
  130.3080  126.1200   62.4590 C   0  0  1  0  0  0  0  0  0  0  0  0
  128.9900  126.6440   61.8840 C   0  0  0  0  0  0  0  0  0  0  0  0
  127.9330  127.3930   62.3810 C   0  0  0  0  0  0  0  0  0  0  0  0
  127.0030  127.5140   61.3480 C   0  0  0  0  0  0  0  0  0  0  0  0
  127.5290  126.8450   60.2500 C   0  0  0  0  0  0  0  0  0  0  0  0
  127.0610  126.5300   58.8300 C   0  0  1  0  0  0  0  0  0  0  0  0
  128.0700  126.8910   57.8250 N   0  0  0  0  0  0  0  0  0  0  0  0
  128.4410  128.2280   57.5350 C   0  0  0  0  0  0  0  0  0  0  0  0
  129.7840  128.6340   57.5290 C   0  0  0  0  0  0  0  0  0  0  0  0
  130.1160  129.9660   57.3000 C   0  0  0  0  0  0  0  0  0  0  0  0
  129.1150  130.9140   57.0750 C   0  0  0  0  0  0  0  0  0  0  0  0
  129.5020  132.3780   56.8520 C   0  0  0  0  0  0  0  0  0  0  0  0
  130.9960  132.5120   56.5040 C   0  0  0  0  0  0  0  0  0  0  0  0
  129.1040  133.3050   58.0180 C   0  0  0  0  0  0  0  0  0  0  0  0
  127.7750  130.5150   57.0880 C   0  0  0  0  0  0  0  0  0  0  0  0
  127.4400  129.1830   57.3150 C   0  0  0  0  0  0  0  0  0  0  0  0
  128.6750  125.7820   57.3230 C   0  0  0  0  0  0  0  0  0  0  0  0
  129.5880  125.7150   56.4980 O   0  0  0  0  0  0  0  0  0  0  0  0
  128.0050  124.5590   57.9770 C   0  0  2  0  0  0  0  0  0  0  0  0
  127.5820  123.4420   56.9940 C   0  0  0  0  0  0  0  0  0  0  0  0
  126.0660  123.5090   56.8610 C   0  0  0  0  0  0  0  0  0  0  0  0
  125.6970  124.9080   57.3460 C   0  0  0  0  0  0  0  0  0  0  0  0
  126.6900  125.1010   58.4970 N   0  0  2  0  0  0  0  0  0  0  0  0
  126.2620  124.4090   59.5890 O   0  0  0  0  0  0  0  0  0  0  0  0
  128.7420  126.3340   60.5870 O   0  0  0  0  0  0  0  0  0  0  0  0
  129.1260  126.6690   65.2540 C   0  0  0  0  0  0  0  0  0  0  0  0
  128.9000  127.0100   66.5840 C   0  0  0  0  0  0  0  0  0  0  0  0
  127.5386  127.0066   70.4207 H   0  0  0  0  0  0  0  0  0  0  0  0
  127.4772  127.9417   68.8882 H   0  0  0  0  0  0  0  0  0  0  0  0
  127.0786  126.1902   68.8882 H   0  0  0  0  0  0  0  0  0  0  0  0
  129.4248  125.7365   69.6727 H   0  0  0  0  0  0  0  0  0  0  0  0
  130.1527  127.7841   70.6405 H   0  0  0  0  0  0  0  0  0  0  0  0
  131.1476  127.5779   69.1591 H   0  0  0  0  0  0  0  0  0  0  0  0
  129.7630  128.7224   69.1591 H   0  0  0  0  0  0  0  0  0  0  0  0
  130.6923  124.5348   68.0989 H   0  0  0  0  0  0  0  0  0  0  0  0
  131.0945  123.9188   65.7255 H   0  0  0  0  0  0  0  0  0  0  0  0
  129.7866  123.6611   61.0064 H   0  0  0  0  0  0  0  0  0  0  0  0
  132.0290  122.3417   62.0875 H   0  0  0  0  0  0  0  0  0  0  0  0
  131.6476  122.4943   60.3555 H   0  0  0  0  0  0  0  0  0  0  0  0
  133.9462  123.5223   61.5584 H   0  0  0  0  0  0  0  0  0  0  0  0
  133.2938  124.1448   60.0437 H   0  0  0  0  0  0  0  0  0  0  0  0
  132.8334  125.1811   62.9101 H   0  0  0  0  0  0  0  0  0  0  0  0
  133.2675  126.1399   61.5259 H   0  0  0  0  0  0  0  0  0  0  0  0
  130.7699  127.0682   62.7712 H   0  0  0  0  0  0  0  0  0  0  0  0
  127.8451  127.8111   63.3947 H   0  0  0  0  0  0  0  0  0  0  0  0
  126.0375  128.0390   61.3942 H   0  0  0  0  0  0  0  0  0  0  0  0
  126.1425  127.1345   58.7990 H   0  0  0  0  0  0  0  0  0  0  0  0
  130.5793  127.8951   57.7064 H   0  0  0  0  0  0  0  0  0  0  0  0
  131.1720  130.2739   57.2962 H   0  0  0  0  0  0  0  0  0  0  0  0
  128.9146  132.7210   55.9875 H   0  0  0  0  0  0  0  0  0  0  0  0
  131.5852  132.5648   57.4314 H   0  0  0  0  0  0  0  0  0  0  0  0
  131.3153  131.6389   55.9160 H   0  0  0  0  0  0  0  0  0  0  0  0
  131.1548  133.4280   55.9160 H   0  0  0  0  0  0  0  0  0  0  0  0
  129.3188  132.8048   58.9739 H   0  0  0  0  0  0  0  0  0  0  0  0
  129.6799  134.2401   57.9560 H   0  0  0  0  0  0  0  0  0  0  0  0
  128.0293  133.5315   57.9560 H   0  0  0  0  0  0  0  0  0  0  0  0
  126.9814  131.2575   56.9180 H   0  0  0  0  0  0  0  0  0  0  0  0
  126.3830  128.8786   57.3217 H   0  0  0  0  0  0  0  0  0  0  0  0
  128.7153  124.1270   58.6973 H   0  0  0  0  0  0  0  0  0  0  0  0
  128.0538  123.6042   56.0137 H   0  0  0  0  0  0  0  0  0  0  0  0
  127.8982  122.4557   57.3644 H   0  0  0  0  0  0  0  0  0  0  0  0
  125.7618  123.3687   55.8133 H   0  0  0  0  0  0  0  0  0  0  0  0
  125.5618  122.7210   57.4397 H   0  0  0  0  0  0  0  0  0  0  0  0
  125.8452  125.6596   56.5566 H   0  0  0  0  0  0  0  0  0  0  0  0
  124.6425  125.0188   57.6387 H   0  0  0  0  0  0  0  0  0  0  0  0
  128.6728  127.2706   64.4524 H   0  0  0  0  0  0  0  0  0  0  0  0
  128.2733  127.8807   66.8272 H   0  0  0  0  0  0  0  0  0  0  0  0
  1  2  1  0
  2  3  1  0
  2  4  1  0
  4  5  2  0
  5  6  1  0
  6  7  2  0
  7  8  1  0
  8  9  1  0
  9 10  2  0
  9 11  1  0
 11 12  1  0
 12 13  1  0
 13 14  1  0
 14 15  1  0
 15 16  1  6
 15 17  1  0
 17 18  1  0
 18 19  2  0
 19 20  1  0
 20 21  2  0
 21 22  1  0
 22 23  1  0
 23 24  1  0
 24 25  2  0
 25 26  1  0
 26 27  2  0
 27 28  1  0
 28 29  1  0
 28 30  1  0
 27 31  1  0
 31 32  2  0
 23 33  1  0
 33 34  2  0
 33 35  1  0
 35 36  1  0
 36 37  1  0
 37 38  1  0
 38 39  1  0
 39 40  1  1
 21 41  1  0
  7 42  1  0
 42 43  2  0
 43  4  1  0
 17  8  1  0
 41 18  1  0
 15 11  1  0
 39 22  1  0
 32 24  1  0
 39 35  1  0
  1 44  1  0
  1 45  1  0
  1 46  1  0
  2 47  1  0
  3 48  1  0
  3 49  1  0
  3 50  1  0
  5 51  1  0
  6 52  1  0
 11 53  1  6
 12 54  1  0
 12 55  1  0
 13 56  1  0
 13 57  1  0
 14 58  1  0
 14 59  1  0
 17 60  1  1
 19 61  1  0
 20 62  1  0
 22 63  1  6
 25 64  1  0
 26 65  1  0
 28 66  1  0
 29 67  1  0
 29 68  1  0
 29 69  1  0
 30 70  1  0
 30 71  1  0
 30 72  1  0
 31 73  1  0
 32 74  1  0
 35 75  1  1
 36 76  1  0
 36 77  1  0
 37 78  1  0
 37 79  1  0
 38 80  1  0
 38 81  1  0
 42 82  1  0
 43 83  1  0
M  CHG  4  15   1  16  -1  39   1  40  -1
M  END
>  <Binding energies>  (1) 
[-8.35]

>  <Ligand effiencies>  (1) 
[-0.1941860465116279]

>  <Interactions>  (1) 
["V-B:GLU:543:C:9874, V-B:GLU:543:CB:9878, V-A:ILE:538:CB:4862, H-A:TYR:531:OH:4795, V-A:TYR:484:CE2:4346, V-B:TYR:539:CE2:9848, V-B:GLU:543:CG:9879, V-A:TYR:539:CE1:4875, V-A:ASP:366:CG:3213, V-A:ILE:538:CG2:4863, V-A:TYR:539:CD1:4873, V-B:TYR:539:CZ:9849, H-B:TYR:539:OH:9850, V-B:TYR:531:CE2:9765, V-A:TYR:539:CA:4869, V-A:TYR:484:CZ:4347, V-A:GLU:543:CD:4908, V-B:HIS:456:CE1:9041, V-A:HIS:456:CE1:4070, V-B:GLU:543:CD:9880, V-A:MET:535:CE:4835, V-A:TYR:539:C:4867, V-A:GLU:543:CB:4906, V-A:PRO:540:N:4884, V-A:TYR:539:CG:4872, V-A:PRO:540:CA:4883, V-B:MET:535:CE:9807, V-B:TYR:539:CE1:9847"]

$$$$
ZINC2383749996
     RDKit          3D

 91 97  0  0  0  0  0  0  0  0999 V2000
  131.9780  124.4180   61.8540 C   0  0  0  0  0  0  0  0  0  0  0  0
  131.8570  123.5700   63.1470 C   0  0  0  0  0  0  0  0  0  0  0  0
  133.2570  122.9620   63.4190 C   0  0  0  0  0  0  0  0  0  0  0  0
  130.8480  122.4290   62.8750 C   0  0  0  0  0  0  0  0  0  0  0  0
  131.3830  124.3900   64.3750 C   0  0  0  0  0  0  0  0  0  0  0  0
  130.0260  124.5200   64.7100 C   0  0  0  0  0  0  0  0  0  0  0  0
  129.6340  125.2640   65.8190 C   0  0  0  0  0  0  0  0  0  0  0  0
  130.5920  125.9000   66.6210 C   0  0  0  0  0  0  0  0  0  0  0  0
  130.2240  126.6470   67.7660 N   0  0  0  0  0  0  0  0  0  0  0  0
  131.0780  127.3640   68.5400 C   0  0  0  0  0  0  0  0  0  0  0  0
  132.3010  127.4660   68.4340 O   0  0  0  0  0  0  0  0  0  0  0  0
  130.2410  128.0530   69.6360 C   0  0  2  0  0  0  0  0  0  0  0  0
  130.7820  127.8630   71.0760 C   0  0  0  0  0  0  0  0  0  0  0  0
  129.8370  126.9200   71.8190 C   0  0  1  0  0  0  0  0  0  0  0  0
  128.9130  127.6370   72.6180 O   0  0  0  0  0  0  0  0  0  0  0  0
  129.1110  126.1900   70.6800 C   0  0  0  0  0  0  0  0  0  0  0  0
  128.9300  127.2940   69.6320 N   0  0  1  0  0  0  0  0  0  0  0  0
  127.8860  128.0980   69.9740 O   0  0  0  0  0  0  0  0  0  0  0  0
  128.8320  126.8420   68.1910 C   0  0  1  0  0  0  0  0  0  0  0  0
  128.0400  127.7470   67.2520 C   0  0  0  0  0  0  0  0  0  0  0  0
  126.7910  128.3440   67.3150 C   0  0  0  0  0  0  0  0  0  0  0  0
  126.6200  129.0470   66.1240 C   0  0  0  0  0  0  0  0  0  0  0  0
  127.7750  128.8620   65.3780 C   0  0  0  0  0  0  0  0  0  0  0  0
  128.2430  129.3130   63.9930 C   0  0  1  0  0  0  0  0  0  0  0  0
  127.4370  128.7770   62.8880 N   0  0  0  0  0  0  0  0  0  0  0  0
  127.5800  127.4670   62.3530 C   0  0  0  0  0  0  0  0  0  0  0  0
  128.6420  126.6550   62.7720 C   0  0  0  0  0  0  0  0  0  0  0  0
  128.8100  125.3750   62.2500 C   0  0  0  0  0  0  0  0  0  0  0  0
  127.9260  124.8720   61.2830 C   0  0  0  0  0  0  0  0  0  0  0  0
  128.0740  123.4520   60.6770 C   0  0  0  0  0  0  0  0  0  0  0  0
  129.4300  123.2310   59.9580 C   0  0  0  0  0  0  0  0  0  0  0  0
  127.9650  122.3940   61.8030 C   0  0  0  0  0  0  0  0  0  0  0  0
  126.9560  123.2060   59.6330 C   0  0  0  0  0  0  0  0  0  0  0  0
  126.8740  125.6930   60.8560 C   0  0  0  0  0  0  0  0  0  0  0  0
  126.7050  126.9710   61.3750 C   0  0  0  0  0  0  0  0  0  0  0  0
  126.4970  129.6900   62.5170 C   0  0  0  0  0  0  0  0  0  0  0  0
  125.5620  129.5520   61.7280 O   0  0  0  0  0  0  0  0  0  0  0  0
  126.8320  131.0150   63.2330 C   0  0  2  0  0  0  0  0  0  0  0  0
  126.9680  132.2390   62.2910 C   0  0  0  0  0  0  0  0  0  0  0  0
  128.4460  132.6220   62.2190 C   0  0  1  0  0  0  0  0  0  0  0  0
  128.7560  133.6770   63.1110 O   0  0  0  0  0  0  0  0  0  0  0  0
  129.1590  131.3380   62.6560 C   0  0  0  0  0  0  0  0  0  0  0  0
  128.2360  130.8040   63.7590 N   0  0  2  0  0  0  0  0  0  0  0  0
  128.4410  131.4950   64.9160 O   0  0  0  0  0  0  0  0  0  0  0  0
  128.6340  128.0770   66.0750 O   0  0  0  0  0  0  0  0  0  0  0  0
  131.9460  125.7580   66.3050 C   0  0  0  0  0  0  0  0  0  0  0  0
  132.3330  125.0110   65.1970 C   0  0  0  0  0  0  0  0  0  0  0  0
  132.1287  125.4744   62.1211 H   0  0  0  0  0  0  0  0  0  0  0  0
  132.8347  124.0636   61.2619 H   0  0  0  0  0  0  0  0  0  0  0  0
  131.0564  124.3174   61.2619 H   0  0  0  0  0  0  0  0  0  0  0  0
  133.4212  122.8907   64.5043 H   0  0  0  0  0  0  0  0  0  0  0  0
  133.3138  121.9582   62.9728 H   0  0  0  0  0  0  0  0  0  0  0  0
  134.0293  123.6058   62.9728 H   0  0  0  0  0  0  0  0  0  0  0  0
  130.4881  122.0220   63.8315 H   0  0  0  0  0  0  0  0  0  0  0  0
  129.9965  122.8219   62.3001 H   0  0  0  0  0  0  0  0  0  0  0  0
  131.3421  121.6319   62.3001 H   0  0  0  0  0  0  0  0  0  0  0  0
  129.2633  124.0279   64.0886 H   0  0  0  0  0  0  0  0  0  0  0  0
  128.5662  125.3535   66.0677 H   0  0  0  0  0  0  0  0  0  0  0  0
  130.2143  129.1311   69.4190 H   0  0  0  0  0  0  0  0  0  0  0  0
  131.7913  127.4271   71.0403 H   0  0  0  0  0  0  0  0  0  0  0  0
  130.8364  128.8324   71.5930 H   0  0  0  0  0  0  0  0  0  0  0  0
  130.3642  126.2458   72.5100 H   0  0  0  0  0  0  0  0  0  0  0  0
  128.2640  128.0470   72.0420 H   0  0  0  0  0  0  0  0  0  0  0  0
  129.7218  125.3648   70.2851 H   0  0  0  0  0  0  0  0  0  0  0  0
  128.1639  125.7264   70.9930 H   0  0  0  0  0  0  0  0  0  0  0  0
  128.2331  125.9211   68.1336 H   0  0  0  0  0  0  0  0  0  0  0  0
  126.0728  128.2760   68.1454 H   0  0  0  0  0  0  0  0  0  0  0  0
  125.7381  129.6358   65.8314 H   0  0  0  0  0  0  0  0  0  0  0  0
  129.2706  128.9204   63.9954 H   0  0  0  0  0  0  0  0  0  0  0  0
  129.3518  127.0332   63.5225 H   0  0  0  0  0  0  0  0  0  0  0  0
  129.6455  124.7508   62.5997 H   0  0  0  0  0  0  0  0  0  0  0  0
  130.2252  123.1014   60.7069 H   0  0  0  0  0  0  0  0  0  0  0  0
  129.3689  122.3310   59.3286 H   0  0  0  0  0  0  0  0  0  0  0  0
  129.6578  124.1039   59.3286 H   0  0  0  0  0  0  0  0  0  0  0  0
  128.0165  122.8935   62.7817 H   0  0  0  0  0  0  0  0  0  0  0  0
  127.0071  121.8606   61.7135 H   0  0  0  0  0  0  0  0  0  0  0  0
  128.7940  121.6765   61.7135 H   0  0  0  0  0  0  0  0  0  0  0  0
  126.0089  122.9976   60.1522 H   0  0  0  0  0  0  0  0  0  0  0  0
  126.8397  124.1000   59.0028 H   0  0  0  0  0  0  0  0  0  0  0  0
  127.2257  122.3457   59.0028 H   0  0  0  0  0  0  0  0  0  0  0  0
  126.1702  125.3198   60.0974 H   0  0  0  0  0  0  0  0  0  0  0  0
  125.8771  127.5998   61.0155 H   0  0  0  0  0  0  0  0  0  0  0  0
  126.0323  131.2242   63.9588 H   0  0  0  0  0  0  0  0  0  0  0  0
  126.6010  131.9793   61.2871 H   0  0  0  0  0  0  0  0  0  0  0  0
  126.3744  133.0821   62.6742 H   0  0  0  0  0  0  0  0  0  0  0  0
  128.7393  132.9783   61.2205 H   0  0  0  0  0  0  0  0  0  0  0  0
  128.7420  133.3270   64.0060 H   0  0  0  0  0  0  0  0  0  0  0  0
  129.2375  130.6238   61.8231 H   0  0  0  0  0  0  0  0  0  0  0  0
  130.1933  131.5036   62.9920 H   0  0  0  0  0  0  0  0  0  0  0  0
  132.7088  126.2389   66.9350 H   0  0  0  0  0  0  0  0  0  0  0  0
  133.4025  124.9061   64.9622 H   0  0  0  0  0  0  0  0  0  0  0  0
  1  2  1  0
  2  3  1  0
  2  4  1  0
  2  5  1  0
  5  6  2  0
  6  7  1  0
  7  8  2  0
  8  9  1  0
  9 10  1  0
 10 11  2  0
 10 12  1  0
 12 13  1  0
 13 14  1  0
 14 15  1  0
 14 16  1  0
 16 17  1  0
 17 18  1  1
 17 19  1  0
 19 20  1  0
 20 21  2  0
 21 22  1  0
 22 23  2  0
 23 24  1  0
 24 25  1  0
 25 26  1  0
 26 27  2  0
 27 28  1  0
 28 29  2  0
 29 30  1  0
 30 31  1  0
 30 32  1  0
 30 33  1  0
 29 34  1  0
 34 35  2  0
 25 36  1  0
 36 37  2  0
 36 38  1  0
 38 39  1  0
 39 40  1  0
 40 41  1  0
 40 42  1  0
 42 43  1  0
 43 44  1  1
 23 45  1  0
  8 46  1  0
 46 47  2  0
 47  5  1  0
 19  9  1  0
 45 20  1  0
 17 12  1  0
 43 24  1  0
 35 26  1  0
 43 38  1  0
  1 48  1  0
  1 49  1  0
  1 50  1  0
  3 51  1  0
  3 52  1  0
  3 53  1  0
  4 54  1  0
  4 55  1  0
  4 56  1  0
  6 57  1  0
  7 58  1  0
 12 59  1  6
 13 60  1  0
 13 61  1  0
 14 62  1  1
 15 63  1  0
 16 64  1  0
 16 65  1  0
 19 66  1  1
 21 67  1  0
 22 68  1  0
 24 69  1  6
 27 70  1  0
 28 71  1  0
 31 72  1  0
 31 73  1  0
 31 74  1  0
 32 75  1  0
 32 76  1  0
 32 77  1  0
 33 78  1  0
 33 79  1  0
 33 80  1  0
 34 81  1  0
 35 82  1  0
 38 83  1  1
 39 84  1  0
 39 85  1  0
 40 86  1  6
 41 87  1  0
 42 88  1  0
 42 89  1  0
 46 90  1  0
 47 91  1  0
M  CHG  4  17   1  18  -1  43   1  44  -1
M  END
>  <Binding energies>  (1) 
[-5.84]

>  <Ligand effiencies>  (1) 
[-0.11918367346938775]

>  <Interactions>  (1) 
["V-B:PRO:540:CA:9855, V-A:GLY:454:CA:4049, V-B:GLU:543:C:9874, V-A:GLU:543:C:4902, H-A:ALA:541:N:4891, V-B:GLU:543:CB:9878, V-B:ALA:541:CB:9864, V-B:TYR:539:CE2:9848, V-A:GLY:544:C:4912, V-B:GLU:543:CG:9879, V-A:HIS:456:CD2:4068, H-A:ARG:545:N:4920, H-B:HIS:456:ND1:9038, V-A:ALA:541:CB:4892, V-A:GLU:543:CD:4908, V-B:PRO:540:CB:9857, H-B:TYR:484:OH:9319, V-A:ARG:545:CG:4922, V-B:HIS:456:CE1:9041, V-B:PRO:540:N:9856, V-B:TYR:484:CZ:9318, V-A:HIS:456:CE1:4070, H-B:HIS:456:NE2:9042, V-B:TYR:539:CD2:9846, V-A:GLU:543:CG:4907, V-B:GLU:543:CD:9880, V-A:LEU:475:CD2:4259, V-A:ARG:545:CZ:4926, H-B:ARG:545:NH2:9900, V-A:GLU:543:CB:4906, H-A:ARG:545:NE:4924, V-B:PRO:540:C:9853, V-B:ALA:541:CA:9862, H-A:HIS:456:ND1:4067"]

$$$$
ZINC2383750009
     RDKit          3D

 65 71  0  0  0  0  0  0  0  0999 V2000
  126.0080  123.2000   61.3610 O   0  0  0  0  0  0  0  0  0  0  0  0
  126.6560  123.9960   60.6800 C   0  0  0  0  0  0  0  0  0  0  0  0
  126.2880  124.3940   59.2360 C   0  0  2  0  0  0  0  0  0  0  0  0
  126.0420  123.2040   58.2780 C   0  0  0  0  0  0  0  0  0  0  0  0
  127.2430  123.1220   57.3450 C   0  0  0  0  0  0  0  0  0  0  0  0
  128.3480  123.8880   58.0660 C   0  0  0  0  0  0  0  0  0  0  0  0
  127.5530  125.0330   58.7010 N   0  0  1  0  0  0  0  0  0  0  0  0
  127.2700  125.9760   57.7590 O   0  0  0  0  0  0  0  0  0  0  0  0
  128.1200  125.6460   59.9590 C   0  0  1  0  0  0  0  0  0  0  0  0
  127.6470  127.0660   60.2720 C   0  0  0  0  0  0  0  0  0  0  0  0
  126.4770  127.7690   60.0310 C   0  0  0  0  0  0  0  0  0  0  0  0
  126.6750  129.0620   60.5180 C   0  0  0  0  0  0  0  0  0  0  0  0
  127.9590  129.1030   61.0440 C   0  0  0  0  0  0  0  0  0  0  0  0
  128.8310  130.1790   61.6910 C   0  0  1  0  0  0  0  0  0  0  0  0
  129.3720  131.1760   60.7580 N   0  0  0  0  0  0  0  0  0  0  0  0
  130.4870  130.9750   59.9110 C   0  0  0  0  0  0  0  0  0  0  0  0
  130.3610  130.2140   58.7430 C   0  0  0  0  0  0  0  0  0  0  0  0
  131.4650  129.9980   57.9230 C   0  0  0  0  0  0  0  0  0  0  0  0
  132.6990  130.5430   58.2670 C   0  0  0  0  0  0  0  0  0  0  0  0
  133.7700  130.3340   57.4700 F   0  0  0  0  0  0  0  0  0  0  0  0
  132.8380  131.3030   59.4260 C   0  0  0  0  0  0  0  0  0  0  0  0
  131.7350  131.5180   60.2490 C   0  0  0  0  0  0  0  0  0  0  0  0
  128.6420  132.3200   60.7950 C   0  0  0  0  0  0  0  0  0  0  0  0
  128.7560  133.3190   60.0820 O   0  0  0  0  0  0  0  0  0  0  0  0
  127.6420  132.1830   61.9580 C   0  0  2  0  0  0  0  0  0  0  0  0
  127.6440  133.3630   62.9600 C   0  0  0  0  0  0  0  0  0  0  0  0
  128.3010  132.8630   64.2400 C   0  0  0  0  0  0  0  0  0  0  0  0
  129.1100  131.6440   63.8090 C   0  0  0  0  0  0  0  0  0  0  0  0
  128.1770  131.0180   62.7680 N   0  0  2  0  0  0  0  0  0  0  0  0
  127.1700  130.3500   63.3970 O   0  0  0  0  0  0  0  0  0  0  0  0
  128.5270  127.8770   60.9150 O   0  0  0  0  0  0  0  0  0  0  0  0
  127.8030  124.6560   61.0040 N   0  0  0  0  0  0  0  0  0  0  0  0
  128.5340  124.4990   62.2140 C   0  0  0  0  0  0  0  0  0  0  0  0
  129.1200  125.6200   62.8230 C   0  0  0  0  0  0  0  0  0  0  0  0
  129.8380  125.4900   64.0090 C   0  0  0  0  0  0  0  0  0  0  0  0
  129.9900  124.2350   64.5920 C   0  0  0  0  0  0  0  0  0  0  0  0
  130.6880  124.1090   65.7430 F   0  0  0  0  0  0  0  0  0  0  0  0
  129.4350  123.1080   63.9940 C   0  0  0  0  0  0  0  0  0  0  0  0
  128.7170  123.2360   62.8080 C   0  0  0  0  0  0  0  0  0  0  0  0
  125.3712  125.0007   59.2722 H   0  0  0  0  0  0  0  0  0  0  0  0
  125.9467  122.2709   58.8527 H   0  0  0  0  0  0  0  0  0  0  0  0
  125.1128  123.3476   57.7071 H   0  0  0  0  0  0  0  0  0  0  0  0
  127.5385  122.0747   57.1845 H   0  0  0  0  0  0  0  0  0  0  0  0
  127.0268  123.5412   56.3513 H   0  0  0  0  0  0  0  0  0  0  0  0
  128.8375  123.2655   58.8295 H   0  0  0  0  0  0  0  0  0  0  0  0
  129.1688  124.2175   57.4120 H   0  0  0  0  0  0  0  0  0  0  0  0
  129.2010  125.8250   59.8623 H   0  0  0  0  0  0  0  0  0  0  0  0
  125.5672  127.3822   59.5486 H   0  0  0  0  0  0  0  0  0  0  0  0
  125.9517  129.8903   60.4903 H   0  0  0  0  0  0  0  0  0  0  0  0
  129.6096  129.5293   62.1171 H   0  0  0  0  0  0  0  0  0  0  0  0
  129.3852  129.7847   58.4718 H   0  0  0  0  0  0  0  0  0  0  0  0
  131.3627  129.3987   57.0063 H   0  0  0  0  0  0  0  0  0  0  0  0
  133.8157  131.7320   59.6905 H   0  0  0  0  0  0  0  0  0  0  0  0
  131.8431  132.1152   61.1664 H   0  0  0  0  0  0  0  0  0  0  0  0
  126.6324  132.0995   61.5292 H   0  0  0  0  0  0  0  0  0  0  0  0
  128.2158  134.2073   62.5474 H   0  0  0  0  0  0  0  0  0  0  0  0
  126.6193  133.7114   63.1564 H   0  0  0  0  0  0  0  0  0  0  0  0
  128.9593  133.6349   64.6653 H   0  0  0  0  0  0  0  0  0  0  0  0
  127.5634  132.6190   65.0187 H   0  0  0  0  0  0  0  0  0  0  0  0
  130.0723  131.9363   63.3634 H   0  0  0  0  0  0  0  0  0  0  0  0
  129.3823  130.9692   64.6339 H   0  0  0  0  0  0  0  0  0  0  0  0
  129.0109  126.6111   62.3586 H   0  0  0  0  0  0  0  0  0  0  0  0
  130.2838  126.3764   64.4839 H   0  0  0  0  0  0  0  0  0  0  0  0
  129.5631  122.1184   64.4570 H   0  0  0  0  0  0  0  0  0  0  0  0
  128.2889  122.3421   62.3309 H   0  0  0  0  0  0  0  0  0  0  0  0
  1  2  2  0
  2  3  1  0
  3  4  1  0
  4  5  1  0
  5  6  1  0
  6  7  1  0
  7  8  1  6
  7  9  1  0
  9 10  1  0
 10 11  2  0
 11 12  1  0
 12 13  2  0
 13 14  1  0
 14 15  1  0
 15 16  1  0
 16 17  2  0
 17 18  1  0
 18 19  2  0
 19 20  1  0
 19 21  1  0
 21 22  2  0
 15 23  1  0
 23 24  2  0
 23 25  1  0
 25 26  1  0
 26 27  1  0
 27 28  1  0
 28 29  1  0
 29 30  1  1
 13 31  1  0
  9 32  1  0
 32 33  1  0
 33 34  2  0
 34 35  1  0
 35 36  2  0
 36 37  1  0
 36 38  1  0
 38 39  2  0
 32  2  1  0
 39 33  1  0
  7  3  1  0
 31 10  1  0
 29 14  1  0
 22 16  1  0
 29 25  1  0
  3 40  1  1
  4 41  1  0
  4 42  1  0
  5 43  1  0
  5 44  1  0
  6 45  1  0
  6 46  1  0
  9 47  1  6
 11 48  1  0
 12 49  1  0
 14 50  1  1
 17 51  1  0
 18 52  1  0
 21 53  1  0
 22 54  1  0
 25 55  1  6
 26 56  1  0
 26 57  1  0
 27 58  1  0
 27 59  1  0
 28 60  1  0
 28 61  1  0
 34 62  1  0
 35 63  1  0
 38 64  1  0
 39 65  1  0
M  CHG  4   7   1   8  -1  29   1  30  -1
M  END
>  <Binding energies>  (1) 
[-6.44]

>  <Ligand effiencies>  (1) 
[-0.16512820512820514]

>  <Interactions>  (1) 
["V-B:PRO:540:CA:9855, V-B:ASP:366:CG:8184, V-B:ALA:541:CB:9864, V-B:TYR:539:CE2:9848, V-A:TYR:484:CE2:4346, V-B:GLU:543:CG:9879, V-B:LEU:475:CD2:9230, V-A:ASP:366:CG:3213, V-A:LEU:363:CD1:3189, V-B:TYR:484:CE2:9317, V-B:TYR:539:CZ:9849, V-A:TYR:531:CE2:4793, V-A:ALA:541:CB:4892, H-B:ALA:541:N:9863, V-A:TYR:484:CZ:4347, V-B:PRO:540:CB:9857, V-A:GLU:543:CD:4908, V-B:PRO:540:N:9856, V-B:PRO:540:CD:9859, V-A:GLU:543:CG:4907, V-A:TYR:531:CZ:4794, V-B:GLU:543:CD:9880, H-B:TYR:531:OH:9767, V-A:ASP:366:CB:3212, V-A:PRO:540:CB:4885, V-A:PRO:540:CA:4883, V-A:LEU:363:CA:3185"]

$$$$
ZINC2383750011
     RDKit          3D

 65 71  0  0  0  0  0  0  0  0999 V2000
  129.7310  122.9810   64.9360 O   0  0  0  0  0  0  0  0  0  0  0  0
  130.1570  123.9620   64.3260 C   0  0  0  0  0  0  0  0  0  0  0  0
  130.8360  123.8890   62.9430 C   0  0  2  0  0  0  0  0  0  0  0  0
  131.9900  122.8640   62.8390 C   0  0  0  0  0  0  0  0  0  0  0  0
  133.2930  123.6530   62.8090 C   0  0  0  0  0  0  0  0  0  0  0  0
  132.9330  125.0190   63.3860 C   0  0  0  0  0  0  0  0  0  0  0  0
  131.5310  125.2290   62.8070 N   0  0  1  0  0  0  0  0  0  0  0  0
  131.6220  125.6090   61.5030 O   0  0  0  0  0  0  0  0  0  0  0  0
  130.5940  126.1180   63.5880 C   0  0  1  0  0  0  0  0  0  0  0  0
  129.4470  126.7350   62.7840 C   0  0  0  0  0  0  0  0  0  0  0  0
  128.3600  127.5320   63.1080 C   0  0  0  0  0  0  0  0  0  0  0  0
  127.6380  127.7270   61.9310 C   0  0  0  0  0  0  0  0  0  0  0  0
  128.3110  127.0460   60.9260 C   0  0  0  0  0  0  0  0  0  0  0  0
  128.0750  126.8060   59.4350 C   0  0  1  0  0  0  0  0  0  0  0  0
  129.2720  126.9420   58.5950 N   0  0  0  0  0  0  0  0  0  0  0  0
  129.8520  128.1670   58.2030 C   0  0  0  0  0  0  0  0  0  0  0  0
  129.1870  129.0100   57.3060 C   0  0  0  0  0  0  0  0  0  0  0  0
  129.7720  130.2090   56.9060 C   0  0  0  0  0  0  0  0  0  0  0  0
  131.0200  130.5700   57.4050 C   0  0  0  0  0  0  0  0  0  0  0  0
  131.7390  132.0600   56.9100 Cl  0  0  0  0  0  0  0  0  0  0  0  0
  131.6910  129.7410   58.3010 C   0  0  0  0  0  0  0  0  0  0  0  0
  131.1100  128.5390   58.7000 C   0  0  0  0  0  0  0  0  0  0  0  0
  129.7810  125.7270   58.2690 C   0  0  0  0  0  0  0  0  0  0  0  0
  130.8190  125.4780   57.6530 O   0  0  0  0  0  0  0  0  0  0  0  0
  128.7850  124.6670   58.7740 C   0  0  2  0  0  0  0  0  0  0  0  0
  128.3540  123.6210   57.7170 C   0  0  0  0  0  0  0  0  0  0  0  0
  126.9150  123.9360   57.3350 C   0  0  0  0  0  0  0  0  0  0  0  0
  126.7180  125.3950   57.7400 C   0  0  0  0  0  0  0  0  0  0  0  0
  127.5160  125.4540   59.0460 N   0  0  2  0  0  0  0  0  0  0  0  0
  126.7910  124.8900   60.0520 O   0  0  0  0  0  0  0  0  0  0  0  0
  129.4210  126.4700   61.4530 O   0  0  0  0  0  0  0  0  0  0  0  0
  130.1610  125.2700   64.7130 N   0  0  0  0  0  0  0  0  0  0  0  0
  129.7140  125.7640   65.9710 C   0  0  0  0  0  0  0  0  0  0  0  0
  129.9070  124.9920   67.1270 C   0  0  0  0  0  0  0  0  0  0  0  0
  129.4850  125.4560   68.3690 C   0  0  0  0  0  0  0  0  0  0  0  0
  128.8500  126.6910   68.4680 C   0  0  0  0  0  0  0  0  0  0  0  0
  128.3330  127.2700   70.0090 Cl  0  0  0  0  0  0  0  0  0  0  0  0
  128.6250  127.4600   67.3300 C   0  0  0  0  0  0  0  0  0  0  0  0
  129.0490  126.9980   66.0870 C   0  0  0  0  0  0  0  0  0  0  0  0
  130.0697  123.6194   62.2013 H   0  0  0  0  0  0  0  0  0  0  0  0
  131.9765  122.1919   63.7097 H   0  0  0  0  0  0  0  0  0  0  0  0
  131.8852  122.2491   61.9329 H   0  0  0  0  0  0  0  0  0  0  0  0
  134.0587  123.1608   63.4266 H   0  0  0  0  0  0  0  0  0  0  0  0
  133.7109  123.7272   61.7942 H   0  0  0  0  0  0  0  0  0  0  0  0
  132.9158  124.9998   64.4857 H   0  0  0  0  0  0  0  0  0  0  0  0
  133.6480  125.8165   63.1356 H   0  0  0  0  0  0  0  0  0  0  0  0
  131.1022  127.0338   63.9242 H   0  0  0  0  0  0  0  0  0  0  0  0
  128.1143  127.9334   64.1022 H   0  0  0  0  0  0  0  0  0  0  0  0
  126.7115  128.3096   61.8201 H   0  0  0  0  0  0  0  0  0  0  0  0
  127.3349  127.5995   59.2543 H   0  0  0  0  0  0  0  0  0  0  0  0
  128.1990  128.7249   56.9154 H   0  0  0  0  0  0  0  0  0  0  0  0
  129.2492  130.8686   56.1978 H   0  0  0  0  0  0  0  0  0  0  0  0
  132.6763  130.0343   58.6923 H   0  0  0  0  0  0  0  0  0  0  0  0
  131.6384  127.8810   59.4056 H   0  0  0  0  0  0  0  0  0  0  0  0
  129.2560  124.1317   59.6116 H   0  0  0  0  0  0  0  0  0  0  0  0
  129.0030  123.6901   56.8316 H   0  0  0  0  0  0  0  0  0  0  0  0
  128.4373  122.6008   58.1198 H   0  0  0  0  0  0  0  0  0  0  0  0
  126.7643  123.8099   56.2527 H   0  0  0  0  0  0  0  0  0  0  0  0
  126.1965  123.2658   57.8295 H   0  0  0  0  0  0  0  0  0  0  0  0
  127.1293  126.0815   56.9853 H   0  0  0  0  0  0  0  0  0  0  0  0
  125.6649  125.6962   57.8414 H   0  0  0  0  0  0  0  0  0  0  0  0
  130.3969  124.0101   67.0504 H   0  0  0  0  0  0  0  0  0  0  0  0
  129.6527  124.8485   69.2706 H   0  0  0  0  0  0  0  0  0  0  0  0
  128.1135  128.4303   67.4125 H   0  0  0  0  0  0  0  0  0  0  0  0
  128.8623  127.6033   65.1877 H   0  0  0  0  0  0  0  0  0  0  0  0
  1  2  2  0
  2  3  1  0
  3  4  1  0
  4  5  1  0
  5  6  1  0
  6  7  1  0
  7  8  1  6
  7  9  1  0
  9 10  1  0
 10 11  2  0
 11 12  1  0
 12 13  2  0
 13 14  1  0
 14 15  1  0
 15 16  1  0
 16 17  2  0
 17 18  1  0
 18 19  2  0
 19 20  1  0
 19 21  1  0
 21 22  2  0
 15 23  1  0
 23 24  2  0
 23 25  1  0
 25 26  1  0
 26 27  1  0
 27 28  1  0
 28 29  1  0
 29 30  1  1
 13 31  1  0
  9 32  1  0
 32 33  1  0
 33 34  2  0
 34 35  1  0
 35 36  2  0
 36 37  1  0
 36 38  1  0
 38 39  2  0
 32  2  1  0
 39 33  1  0
  7  3  1  0
 31 10  1  0
 29 14  1  0
 22 16  1  0
 29 25  1  0
  3 40  1  6
  4 41  1  0
  4 42  1  0
  5 43  1  0
  5 44  1  0
  6 45  1  0
  6 46  1  0
  9 47  1  1
 11 48  1  0
 12 49  1  0
 14 50  1  6
 17 51  1  0
 18 52  1  0
 21 53  1  0
 22 54  1  0
 25 55  1  1
 26 56  1  0
 26 57  1  0
 27 58  1  0
 27 59  1  0
 28 60  1  0
 28 61  1  0
 34 62  1  0
 35 63  1  0
 38 64  1  0
 39 65  1  0
M  CHG  4   7   1   8  -1  29   1  30  -1
M  END
>  <Binding energies>  (1) 
[-7.16]

>  <Ligand effiencies>  (1) 
[-0.1835897435897436]

>  <Interactions>  (1) 
["V-B:GLU:543:C:9874, V-B:GLU:543:CB:9878, H-A:TYR:531:OH:4795, V-A:TYR:484:CE2:4346, V-B:TYR:539:CE2:9848, V-B:GLU:543:CG:9879, V-A:ASP:366:CG:3213, V-A:LEU:363:CD1:3189, V-B:TYR:539:CZ:9849, H-B:TYR:539:OH:9850, V-A:GLU:543:CD:4908, V-A:TYR:484:CZ:4347, V-B:HIS:456:CE1:9041, V-B:GLU:543:CA:9876, V-A:HIS:456:CE1:4070, V-B:TYR:539:CD2:9846, V-B:GLU:543:CD:9880, V-A:MET:535:CE:4835, V-A:ASP:366:CB:3212, V-A:LEU:475:CD2:4259, V-A:ARG:545:CZ:4926, V-B:TYR:539:CE1:9847, H-A:TYR:484:OH:4348"]

$$$$
ZINC2383750033
     RDKit          3D

 67 73  0  0  0  0  0  0  0  0999 V2000
  126.9880  127.8840   57.7680 O   0  0  0  0  0  0  0  0  0  0  0  0
  127.0260  126.7310   58.1980 C   0  0  0  0  0  0  0  0  0  0  0  0
  127.0020  125.4820   57.3000 C   0  0  2  0  0  0  0  0  0  0  0  0
  125.6010  125.0620   56.7970 C   0  0  0  0  0  0  0  0  0  0  0  0
  125.3760  123.6250   57.2460 C   0  0  0  0  0  0  0  0  0  0  0  0
  126.7540  123.1070   57.6600 C   0  0  0  0  0  0  0  0  0  0  0  0
  127.4370  124.3530   58.2100 N   0  0  1  0  0  0  0  0  0  0  0  0
  128.7910  124.2030   58.1500 O   0  0  0  0  0  0  0  0  0  0  0  0
  126.9810  124.8520   59.5720 C   0  0  1  0  0  0  0  0  0  0  0  0
  127.7440  124.1770   60.7240 C   0  0  0  0  0  0  0  0  0  0  0  0
  127.2720  123.0250   61.3670 C   0  0  0  0  0  0  0  0  0  0  0  0
  128.0660  122.4320   62.3490 C   0  0  0  0  0  0  0  0  0  0  0  0
  129.3140  122.9810   62.6480 C   0  0  0  0  0  0  0  0  0  0  0  0
  129.7290  124.1250   61.9590 C   0  0  0  0  0  0  0  0  0  0  0  0
  131.1480  124.6900   62.1620 C   0  0  1  0  0  0  0  0  0  0  0  0
  131.6480  124.5280   63.5390 N   0  0  0  0  0  0  0  0  0  0  0  0
  131.0400  125.1570   64.6550 C   0  0  0  0  0  0  0  0  0  0  0  0
  131.6180  125.1020   65.9360 C   0  0  0  0  0  0  0  0  0  0  0  0
  130.9660  125.6700   67.0260 C   0  0  0  0  0  0  0  0  0  0  0  0
  129.7300  126.2860   66.8490 C   0  0  0  0  0  0  0  0  0  0  0  0
  128.8220  127.0260   68.3480 Br  0  0  0  0  0  0  0  0  0  0  0  0
  129.1470  126.3510   65.5860 C   0  0  0  0  0  0  0  0  0  0  0  0
  129.7980  125.7860   64.4940 C   0  0  0  0  0  0  0  0  0  0  0  0
  132.6320  123.5920   63.6090 C   0  0  0  0  0  0  0  0  0  0  0  0
  133.2610  123.2180   64.6000 O   0  0  0  0  0  0  0  0  0  0  0  0
  132.8070  123.0020   62.1990 C   0  0  2  0  0  0  0  0  0  0  0  0
  134.2720  122.8720   61.7180 C   0  0  0  0  0  0  0  0  0  0  0  0
  134.4800  123.9250   60.6390 C   0  0  0  0  0  0  0  0  0  0  0  0
  133.3780  124.9490   60.8890 C   0  0  0  0  0  0  0  0  0  0  0  0
  132.2060  124.0450   61.2820 N   0  0  2  0  0  0  0  0  0  0  0  0
  131.6770  123.4720   60.1630 O   0  0  0  0  0  0  0  0  0  0  0  0
  128.9540  124.7220   61.0120 N   0  0  0  0  0  0  0  0  0  0  0  0
  127.0760  126.3160   59.4910 N   0  0  0  0  0  0  0  0  0  0  0  0
  127.0070  127.1820   60.6090 C   0  0  0  0  0  0  0  0  0  0  0  0
  128.0300  127.1460   61.5670 C   0  0  0  0  0  0  0  0  0  0  0  0
  127.9980  128.0100   62.6570 C   0  0  0  0  0  0  0  0  0  0  0  0
  126.9500  128.9160   62.7930 C   0  0  0  0  0  0  0  0  0  0  0  0
  126.9180  130.1000   64.2830 Br  0  0  0  0  0  0  0  0  0  0  0  0
  125.9290  128.9640   61.8470 C   0  0  0  0  0  0  0  0  0  0  0  0
  125.9560  128.1000   60.7540 C   0  0  0  0  0  0  0  0  0  0  0  0
  127.6219  125.6933   56.4162 H   0  0  0  0  0  0  0  0  0  0  0  0
  124.8320  125.7177   57.2313 H   0  0  0  0  0  0  0  0  0  0  0  0
  125.5374  125.1443   55.7019 H   0  0  0  0  0  0  0  0  0  0  0  0
  124.6810  123.5926   58.0980 H   0  0  0  0  0  0  0  0  0  0  0  0
  124.9322  123.0122   56.4475 H   0  0  0  0  0  0  0  0  0  0  0  0
  126.6682  122.3292   58.4331 H   0  0  0  0  0  0  0  0  0  0  0  0
  127.3075  122.6383   56.8330 H   0  0  0  0  0  0  0  0  0  0  0  0
  125.9443  124.5759   59.8150 H   0  0  0  0  0  0  0  0  0  0  0  0
  126.2941  122.5964   61.1026 H   0  0  0  0  0  0  0  0  0  0  0  0
  127.7112  121.5385   62.8836 H   0  0  0  0  0  0  0  0  0  0  0  0
  129.9593  122.5222   63.4116 H   0  0  0  0  0  0  0  0  0  0  0  0
  131.0134  125.7496   61.8992 H   0  0  0  0  0  0  0  0  0  0  0  0
  132.5904  124.6074   66.0768 H   0  0  0  0  0  0  0  0  0  0  0  0
  131.4257  125.6325   68.0246 H   0  0  0  0  0  0  0  0  0  0  0  0
  128.1746  126.8476   65.4522 H   0  0  0  0  0  0  0  0  0  0  0  0
  129.3347  125.8333   63.4974 H   0  0  0  0  0  0  0  0  0  0  0  0
  132.3633  121.9955   62.1993 H   0  0  0  0  0  0  0  0  0  0  0  0
  134.9621  123.0484   62.5563 H   0  0  0  0  0  0  0  0  0  0  0  0
  134.4689  121.8633   61.3259 H   0  0  0  0  0  0  0  0  0  0  0  0
  135.4722  124.3900   60.7353 H   0  0  0  0  0  0  0  0  0  0  0  0
  134.4349  123.5004   59.6253 H   0  0  0  0  0  0  0  0  0  0  0  0
  133.6460  125.6370   61.7044 H   0  0  0  0  0  0  0  0  0  0  0  0
  133.1710  125.6044   60.0301 H   0  0  0  0  0  0  0  0  0  0  0  0
  128.8601  126.4328   61.4565 H   0  0  0  0  0  0  0  0  0  0  0  0
  128.7993  127.9772   63.4099 H   0  0  0  0  0  0  0  0  0  0  0  0
  125.1036  129.6819   61.9623 H   0  0  0  0  0  0  0  0  0  0  0  0
  125.1523  128.1378   60.0039 H   0  0  0  0  0  0  0  0  0  0  0  0
  1  2  2  0
  2  3  1  0
  3  4  1  0
  4  5  1  0
  5  6  1  0
  6  7  1  0
  7  8  1  1
  7  9  1  0
  9 10  1  0
 10 11  2  0
 11 12  1  0
 12 13  2  0
 13 14  1  0
 14 15  1  0
 15 16  1  0
 16 17  1  0
 17 18  2  0
 18 19  1  0
 19 20  2  0
 20 21  1  0
 20 22  1  0
 22 23  2  0
 16 24  1  0
 24 25  2  0
 24 26  1  0
 26 27  1  0
 27 28  1  0
 28 29  1  0
 29 30  1  0
 30 31  1  6
 14 32  2  0
  9 33  1  0
 33 34  1  0
 34 35  2  0
 35 36  1  0
 36 37  2  0
 37 38  1  0
 37 39  1  0
 39 40  2  0
 33  2  1  0
 40 34  1  0
  7  3  1  0
 32 10  1  0
 30 15  1  0
 23 17  1  0
 30 26  1  0
  3 41  1  6
  4 42  1  0
  4 43  1  0
  5 44  1  0
  5 45  1  0
  6 46  1  0
  6 47  1  0
  9 48  1  1
 11 49  1  0
 12 50  1  0
 13 51  1  0
 15 52  1  6
 18 53  1  0
 19 54  1  0
 22 55  1  0
 23 56  1  0
 26 57  1  1
 27 58  1  0
 27 59  1  0
 28 60  1  0
 28 61  1  0
 29 62  1  0
 29 63  1  0
 35 64  1  0
 36 65  1  0
 39 66  1  0
 40 67  1  0
M  CHG  4   7   1   8  -1  30   1  31  -1
M  END
>  <Binding energies>  (1) 
[-8.12]

>  <Ligand effiencies>  (1) 
[-0.20299999999999999]

>  <Interactions>  (1) 
["V-A:ILE:369:CG2:3237, V-A:ASP:366:CA:3210, V-B:PRO:540:CA:9855, V-A:ILE:369:CB:3236, V-B:GLU:543:CB:9878, V-B:ALA:541:CB:9864, V-B:ASP:366:CG:8184, V-B:GLU:543:CG:9879, V-A:ASP:366:CG:3213, V-B:TYR:531:CZ:9766, H-B:TYR:539:OH:9850, V-B:TYR:531:CE2:9765, V-A:TYR:484:CZ:4347, V-B:PRO:540:CB:9857, V-A:GLU:543:CD:4908, H-A:GLY:454:N:4050, V-B:PRO:540:N:9856, V-A:ILE:369:CD1:3239, V-A:HIS:456:CE1:4070, V-B:GLU:543:CD:9880, V-A:ILE:369:CG1:3238, H-B:TYR:531:OH:9767, V-A:ASP:366:CB:3212, V-A:LEU:475:CD2:4259, V-B:LEU:363:CD1:8160, V-B:PRO:540:C:9853, V-B:MET:535:CE:9807, V-B:ALA:541:CA:9862, H-A:TYR:484:OH:4348"]

$$$$
ZINC2383750034
     RDKit          3D

 92 98  0  0  0  0  0  0  0  0999 V2000
  126.7280  125.4700   58.9760 C   0  0  0  0  0  0  0  0  0  0  0  0
  127.8460  126.3280   59.5360 C   0  0  0  0  0  0  0  0  0  0  0  0
  129.0310  125.7420   59.9750 C   0  0  0  0  0  0  0  0  0  0  0  0
  130.0750  126.5190   60.4940 C   0  0  0  0  0  0  0  0  0  0  0  0
  131.3830  125.8500   61.0000 C   0  0  1  0  0  0  0  0  0  0  0  0
  131.2220  124.8090   62.0300 N   0  0  0  0  0  0  0  0  0  0  0  0
  131.0060  125.0780   63.4100 C   0  0  0  0  0  0  0  0  0  0  0  0
  129.7520  125.4860   63.8940 C   0  0  0  0  0  0  0  0  0  0  0  0
  129.5570  125.7210   65.2520 C   0  0  0  0  0  0  0  0  0  0  0  0
  130.6090  125.5440   66.1540 C   0  0  0  0  0  0  0  0  0  0  0  0
  130.3870  125.8000   67.6460 C   0  0  0  0  0  0  0  0  0  0  0  0
  128.8940  125.9560   67.9870 C   0  0  0  0  0  0  0  0  0  0  0  0
  131.2180  126.9940   68.1560 C   0  0  0  0  0  0  0  0  0  0  0  0
  131.8560  125.1290   65.6830 C   0  0  0  0  0  0  0  0  0  0  0  0
  132.0520  124.8910   64.3250 C   0  0  0  0  0  0  0  0  0  0  0  0
  131.2690  123.5700   61.4650 C   0  0  0  0  0  0  0  0  0  0  0  0
  131.0710  122.4770   61.9970 O   0  0  0  0  0  0  0  0  0  0  0  0
  131.6520  123.7480   59.9830 C   0  0  2  0  0  0  0  0  0  0  0  0
  132.8490  122.8780   59.5200 C   0  0  0  0  0  0  0  0  0  0  0  0
  134.0470  123.8010   59.2970 C   0  0  1  0  0  0  0  0  0  0  0  0
  134.1930  124.1480   57.9320 O   0  0  0  0  0  0  0  0  0  0  0  0
  133.6860  125.0430   60.1210 C   0  0  0  0  0  0  0  0  0  0  0  0
  132.1730  125.1660   59.8980 N   0  0  2  0  0  0  0  0  0  0  0  0
  131.9290  125.7080   58.6710 O   0  0  0  0  0  0  0  0  0  0  0  0
  129.8960  127.9120   60.6000 C   0  0  0  0  0  0  0  0  0  0  0  0
  130.9070  128.6880   61.1150 O   0  0  0  0  0  0  0  0  0  0  0  0
  128.6990  128.5160   60.1710 C   0  0  0  0  0  0  0  0  0  0  0  0
  128.5040  130.0510   60.2310 C   0  0  1  0  0  0  0  0  0  0  0  0
  129.1520  130.6840   61.3890 N   0  0  0  0  0  0  0  0  0  0  0  0
  128.7470  130.4470   62.7280 C   0  0  0  0  0  0  0  0  0  0  0  0
  128.7780  131.4610   63.6980 C   0  0  0  0  0  0  0  0  0  0  0  0
  128.4070  131.1890   65.0130 C   0  0  0  0  0  0  0  0  0  0  0  0
  128.0050  129.9030   65.3780 C   0  0  0  0  0  0  0  0  0  0  0  0
  127.6040  129.6100   66.8260 C   0  0  0  0  0  0  0  0  0  0  0  0
  128.7300  128.8920   67.5940 C   0  0  0  0  0  0  0  0  0  0  0  0
  126.2710  128.8420   66.9170 C   0  0  0  0  0  0  0  0  0  0  0  0
  127.9800  128.8890   64.4180 C   0  0  0  0  0  0  0  0  0  0  0  0
  128.3500  129.1570   63.1040 C   0  0  0  0  0  0  0  0  0  0  0  0
  130.2140  131.4460   61.0160 C   0  0  0  0  0  0  0  0  0  0  0  0
  130.9670  132.1050   61.7330 O   0  0  0  0  0  0  0  0  0  0  0  0
  130.3590  131.3320   59.4880 C   0  0  2  0  0  0  0  0  0  0  0  0
  130.5220  132.6860   58.7510 C   0  0  0  0  0  0  0  0  0  0  0  0
  129.2680  132.9220   57.9140 C   0  0  1  0  0  0  0  0  0  0  0  0
  129.4490  132.4990   56.5750 O   0  0  0  0  0  0  0  0  0  0  0  0
  128.2240  132.0500   58.6200 C   0  0  0  0  0  0  0  0  0  0  0  0
  129.0220  130.8010   59.0130 N   0  0  2  0  0  0  0  0  0  0  0  0
  129.1700  129.9850   57.9300 O   0  0  0  0  0  0  0  0  0  0  0  0
  127.6870  127.7090   59.6350 C   0  0  0  0  0  0  0  0  0  0  0  0
  126.1539  125.0294   59.8044 H   0  0  0  0  0  0  0  0  0  0  0  0
  126.0628  126.0916   58.3587 H   0  0  0  0  0  0  0  0  0  0  0  0
  127.1564  124.6666   58.3587 H   0  0  0  0  0  0  0  0  0  0  0  0
  129.1492  124.6501   59.9131 H   0  0  0  0  0  0  0  0  0  0  0  0
  131.9009  126.7232   61.4233 H   0  0  0  0  0  0  0  0  0  0  0  0
  128.9155  125.6212   63.1926 H   0  0  0  0  0  0  0  0  0  0  0  0
  128.5715  126.0471   65.6161 H   0  0  0  0  0  0  0  0  0  0  0  0
  130.7469  124.9074   68.1786 H   0  0  0  0  0  0  0  0  0  0  0  0
  128.7669  125.9693   69.0795 H   0  0  0  0  0  0  0  0  0  0  0  0
  128.5175  126.8984   67.5626 H   0  0  0  0  0  0  0  0  0  0  0  0
  128.3308  125.1118   67.5626 H   0  0  0  0  0  0  0  0  0  0  0  0
  131.2197  126.9964   69.2560 H   0  0  0  0  0  0  0  0  0  0  0  0
  132.2508  126.9058   67.7880 H   0  0  0  0  0  0  0  0  0  0  0  0
  130.7765  127.9319   67.7880 H   0  0  0  0  0  0  0  0  0  0  0  0
  132.6883  124.9892   66.3885 H   0  0  0  0  0  0  0  0  0  0  0  0
  133.0358  124.5534   63.9670 H   0  0  0  0  0  0  0  0  0  0  0  0
  130.7767  123.4852   59.3708 H   0  0  0  0  0  0  0  0  0  0  0  0
  133.0903  122.1337   60.2931 H   0  0  0  0  0  0  0  0  0  0  0  0
  132.5978  122.3472   58.5899 H   0  0  0  0  0  0  0  0  0  0  0  0
  134.9985  123.3324   59.5887 H   0  0  0  0  0  0  0  0  0  0  0  0
  133.8400  125.0330   57.8070 H   0  0  0  0  0  0  0  0  0  0  0  0
  133.9195  124.8946   61.1856 H   0  0  0  0  0  0  0  0  0  0  0  0
  134.2460  125.9421   59.8244 H   0  0  0  0  0  0  0  0  0  0  0  0
  130.8870  128.7340   62.0740 H   0  0  0  0  0  0  0  0  0  0  0  0
  127.4088  130.1328   60.2935 H   0  0  0  0  0  0  0  0  0  0  0  0
  129.0970  132.4759   63.4184 H   0  0  0  0  0  0  0  0  0  0  0  0
  128.4309  131.9903   65.7662 H   0  0  0  0  0  0  0  0  0  0  0  0
  127.4431  130.5824   67.3145 H   0  0  0  0  0  0  0  0  0  0  0  0
  128.5621  128.9991   68.6758 H   0  0  0  0  0  0  0  0  0  0  0  0
  128.7331  127.8248   67.3273 H   0  0  0  0  0  0  0  0  0  0  0  0
  129.6989  129.3394   67.3273 H   0  0  0  0  0  0  0  0  0  0  0  0
  126.0069  128.6898   67.9739 H   0  0  0  0  0  0  0  0  0  0  0  0
  125.4789  129.4222   66.4210 H   0  0  0  0  0  0  0  0  0  0  0  0
  126.3757  127.8658   66.4210 H   0  0  0  0  0  0  0  0  0  0  0  0
  127.6663  127.8737   64.7022 H   0  0  0  0  0  0  0  0  0  0  0  0
  128.3308  128.3511   62.3555 H   0  0  0  0  0  0  0  0  0  0  0  0
  131.2501  130.7216   59.2796 H   0  0  0  0  0  0  0  0  0  0  0  0
  130.6399  133.4979   59.4837 H   0  0  0  0  0  0  0  0  0  0  0  0
  131.4130  132.6650   58.1063 H   0  0  0  0  0  0  0  0  0  0  0  0
  128.9892  133.9840   57.8481 H   0  0  0  0  0  0  0  0  0  0  0  0
  129.3600  131.5430   56.5410 H   0  0  0  0  0  0  0  0  0  0  0  0
  127.8218  132.5575   59.5092 H   0  0  0  0  0  0  0  0  0  0  0  0
  127.3513  131.8247   57.9895 H   0  0  0  0  0  0  0  0  0  0  0  0
  126.7522  128.1727   59.2868 H   0  0  0  0  0  0  0  0  0  0  0  0
  1  2  1  0
  2  3  2  0
  3  4  1  0
  4  5  1  0
  5  6  1  0
  6  7  1  0
  7  8  2  0
  8  9  1  0
  9 10  2  0
 10 11  1  0
 11 12  1  0
 11 13  1  0
 10 14  1  0
 14 15  2  0
  6 16  1  0
 16 17  2  0
 16 18  1  0
 18 19  1  0
 19 20  1  0
 20 21  1  0
 20 22  1  0
 22 23  1  0
 23 24  1  6
  4 25  2  0
 25 26  1  0
 25 27  1  0
 27 28  1  0
 28 29  1  0
 29 30  1  0
 30 31  2  0
 31 32  1  0
 32 33  2  0
 33 34  1  0
 34 35  1  0
 34 36  1  0
 33 37  1  0
 37 38  2  0
 29 39  1  0
 39 40  2  0
 39 41  1  0
 41 42  1  0
 42 43  1  0
 43 44  1  0
 43 45  1  0
 45 46  1  0
 46 47  1  6
 27 48  2  0
 48  2  1  0
 23  5  1  0
 46 28  1  0
 15  7  1  0
 23 18  1  0
 38 30  1  0
 46 41  1  0
  1 49  1  0
  1 50  1  0
  1 51  1  0
  3 52  1  0
  5 53  1  1
  8 54  1  0
  9 55  1  0
 11 56  1  0
 12 57  1  0
 12 58  1  0
 12 59  1  0
 13 60  1  0
 13 61  1  0
 13 62  1  0
 14 63  1  0
 15 64  1  0
 18 65  1  6
 19 66  1  0
 19 67  1  0
 20 68  1  1
 21 69  1  0
 22 70  1  0
 22 71  1  0
 26 72  1  0
 28 73  1  1
 31 74  1  0
 32 75  1  0
 34 76  1  0
 35 77  1  0
 35 78  1  0
 35 79  1  0
 36 80  1  0
 36 81  1  0
 36 82  1  0
 37 83  1  0
 38 84  1  0
 41 85  1  1
 42 86  1  0
 42 87  1  0
 43 88  1  6
 44 89  1  0
 45 90  1  0
 45 91  1  0
 48 92  1  0
M  CHG  4  23   1  24  -1  46   1  47  -1
M  END
>  <Binding energies>  (1) 
[-7.29]

>  <Ligand effiencies>  (1) 
[-0.14294117647058824]

>  <Interactions>  (1) 
["V-A:ILE:369:CG2:3237, V-A:ASP:366:CA:3210, V-A:GLU:543:CA:4904, V-B:GLU:543:C:9874, V-A:ILE:369:CB:3236, H-A:ALA:541:N:4891, V-B:GLU:543:CB:9878, V-B:TYR:539:CE2:9848, V-B:GLU:543:CG:9879, V-A:ASP:366:CG:3213, V-A:TYR:539:CD1:4873, V-B:TYR:484:CE2:9317, V-B:TYR:539:CZ:9849, H-A:ASN:370:N:3244, H-B:TYR:539:OH:9850, V-A:TYR:484:CZ:4347, V-A:GLU:543:CD:4908, V-B:GLU:543:CA:9876, V-A:ARG:545:CG:4922, V-B:HIS:456:CE1:9041, V-A:ILE:369:CD1:3239, V-A:HIS:456:CE1:4070, V-B:TYR:484:CZ:9318, V-B:TYR:539:CD2:9846, V-A:GLU:543:CG:4907, V-B:GLU:543:CD:9880, V-A:TYR:539:C:4867, V-A:ASP:366:CB:3212, H-A:GLU:543:OE1:4909, H-A:ASP:366:O:3209, V-A:GLU:543:CB:4906, V-A:PRO:540:N:4884, V-A:PRO:540:CB:4885, V-A:PRO:540:CA:4883, H-A:ASP:366:OD2:3215, V-A:TYR:539:CE1:4875"]

$$$$
ZINC2383750034-again1
     RDKit          3D

 91 97  0  0  0  0  0  0  0  0999 V2000
  127.7320  128.2110   63.6850 C   0  0  0  0  0  0  0  0  0  0  0  0
  128.8930  127.7640   62.8150 C   0  0  0  0  0  0  0  0  0  0  0  0
  129.6380  126.6420   63.1590 C   0  0  0  0  0  0  0  0  0  0  0  0
  130.7180  126.2120   62.3790 C   0  0  0  0  0  0  0  0  0  0  0  0
  131.4020  124.8940   62.8510 C   0  0  1  0  0  0  0  0  0  0  0  0
  130.9790  124.3160   64.1340 N   0  0  0  0  0  0  0  0  0  0  0  0
  130.7800  125.0680   65.3150 C   0  0  0  0  0  0  0  0  0  0  0  0
  131.8630  125.4590   66.1130 C   0  0  0  0  0  0  0  0  0  0  0  0
  131.6450  126.1830   67.2810 C   0  0  0  0  0  0  0  0  0  0  0  0
  130.3490  126.5410   67.6680 C   0  0  0  0  0  0  0  0  0  0  0  0
  130.1600  127.3610   68.9560 C   0  0  0  0  0  0  0  0  0  0  0  0
  129.0460  128.4300   68.9000 C   0  0  0  0  0  0  0  0  0  0  0  0
  131.4810  127.9980   69.4310 C   0  0  0  0  0  0  0  0  0  0  0  0
  129.2670  126.1340   66.8740 C   0  0  0  0  0  0  0  0  0  0  0  0
  129.4810  125.3970   65.7130 C   0  0  0  0  0  0  0  0  0  0  0  0
  131.0130  122.9600   64.1010 C   0  0  0  0  0  0  0  0  0  0  0  0
  130.7860  122.1720   65.0200 O   0  0  0  0  0  0  0  0  0  0  0  0
  131.4440  122.5210   62.6930 C   0  0  2  0  0  0  0  0  0  0  0  0
  132.9260  122.0950   62.5830 C   0  0  0  0  0  0  0  0  0  0  0  0
  133.6010  123.0610   61.6250 C   0  0  1  0  0  0  0  0  0  0  0  0
  134.6590  122.5080   60.8700 O   0  0  0  0  0  0  0  0  0  0  0  0
  132.4600  123.6700   60.8130 C   0  0  0  0  0  0  0  0  0  0  0  0
  131.3240  123.7640   61.8280 N   0  0  2  0  0  0  0  0  0  0  0  0
  130.1350  123.7540   61.1670 O   0  0  0  0  0  0  0  0  0  0  0  0
  131.0600  126.9540   61.2130 C   0  0  0  0  0  0  0  0  0  0  0  0
  132.0480  126.6000   60.4810 O   0  0  0  0  0  0  0  0  0  0  0  0
  130.3080  128.1070   60.8630 C   0  0  0  0  0  0  0  0  0  0  0  0
  130.5680  128.9440   59.5730 C   0  0  1  0  0  0  0  0  0  0  0  0
  129.5950  128.8120   58.4770 N   0  0  0  0  0  0  0  0  0  0  0  0
  129.0080  127.5870   58.0730 C   0  0  0  0  0  0  0  0  0  0  0  0
  129.8340  126.5090   57.7330 C   0  0  0  0  0  0  0  0  0  0  0  0
  129.2770  125.2890   57.3610 C   0  0  0  0  0  0  0  0  0  0  0  0
  127.8890  125.1230   57.3220 C   0  0  0  0  0  0  0  0  0  0  0  0
  127.3200  123.7600   56.9030 C   0  0  0  0  0  0  0  0  0  0  0  0
  125.7820  123.7900   56.8200 C   0  0  0  0  0  0  0  0  0  0  0  0
  127.8050  122.5620   57.7490 C   0  0  0  0  0  0  0  0  0  0  0  0
  127.0630  126.2020   57.6620 C   0  0  0  0  0  0  0  0  0  0  0  0
  127.6170  127.4210   58.0400 C   0  0  0  0  0  0  0  0  0  0  0  0
  129.5000  129.9730   57.7770 C   0  0  0  0  0  0  0  0  0  0  0  0
  128.8640  130.1920   56.7450 O   0  0  0  0  0  0  0  0  0  0  0  0
  130.3580  131.0310   58.4880 C   0  0  2  0  0  0  0  0  0  0  0  0
  131.7540  131.2750   57.8640 C   0  0  0  0  0  0  0  0  0  0  0  0
  132.7830  131.0070   58.9550 C   0  0  1  0  0  0  0  0  0  0  0  0
  133.9150  131.8490   58.9260 O   0  0  0  0  0  0  0  0  0  0  0  0
  131.9910  131.0230   60.2620 C   0  0  0  0  0  0  0  0  0  0  0  0
  130.6430  130.4400   59.8530 N   0  0  2  0  0  0  0  0  0  0  0  0
  129.6850  130.8380   60.7380 O   0  0  0  0  0  0  0  0  0  0  0  0
  129.2290  128.4830   61.6740 C   0  0  0  0  0  0  0  0  0  0  0  0
  128.0062  128.1054   64.7450 H   0  0  0  0  0  0  0  0  0  0  0  0
  127.4970  129.2639   63.4702 H   0  0  0  0  0  0  0  0  0  0  0  0
  126.8516  127.5876   63.4702 H   0  0  0  0  0  0  0  0  0  0  0  0
  129.3726  126.0786   64.0657 H   0  0  0  0  0  0  0  0  0  0  0  0
  132.4262  125.2730   62.9827 H   0  0  0  0  0  0  0  0  0  0  0  0
  132.8881  125.1930   65.8155 H   0  0  0  0  0  0  0  0  0  0  0  0
  132.5006  126.4770   67.9067 H   0  0  0  0  0  0  0  0  0  0  0  0
  129.8232  126.6161   69.6920 H   0  0  0  0  0  0  0  0  0  0  0  0
  128.7545  128.7097   69.9231 H   0  0  0  0  0  0  0  0  0  0  0  0
  129.4170  129.3187   68.3685 H   0  0  0  0  0  0  0  0  0  0  0  0
  128.1733  128.0227   68.3685 H   0  0  0  0  0  0  0  0  0  0  0  0
  131.5074  128.0107   70.5306 H   0  0  0  0  0  0  0  0  0  0  0  0
  132.3292  127.4099   69.0507 H   0  0  0  0  0  0  0  0  0  0  0  0
  131.5490  129.0279   69.0507 H   0  0  0  0  0  0  0  0  0  0  0  0
  128.2416  126.3992   67.1711 H   0  0  0  0  0  0  0  0  0  0  0  0
  128.6236  125.0717   65.1055 H   0  0  0  0  0  0  0  0  0  0  0  0
  130.8216  121.6605   62.4065 H   0  0  0  0  0  0  0  0  0  0  0  0
  133.4071  122.1460   63.5709 H   0  0  0  0  0  0  0  0  0  0  0  0
  133.0089  121.0608   62.2176 H   0  0  0  0  0  0  0  0  0  0  0  0
  134.1519  123.8437   62.1670 H   0  0  0  0  0  0  0  0  0  0  0  0
  135.0890  121.8320   61.3990 H   0  0  0  0  0  0  0  0  0  0  0  0
  132.7333  124.6654   60.4330 H   0  0  0  0  0  0  0  0  0  0  0  0
  132.1976  123.0773   59.9243 H   0  0  0  0  0  0  0  0  0  0  0  0
  131.5236  128.5079   59.2465 H   0  0  0  0  0  0  0  0  0  0  0  0
  130.9274  126.6267   57.7600 H   0  0  0  0  0  0  0  0  0  0  0  0
  129.9343  124.4480   57.0953 H   0  0  0  0  0  0  0  0  0  0  0  0
  127.7315  123.5873   55.8976 H   0  0  0  0  0  0  0  0  0  0  0  0
  125.3601  123.7982   57.8358 H   0  0  0  0  0  0  0  0  0  0  0  0
  125.4614  124.6946   56.2825 H   0  0  0  0  0  0  0  0  0  0  0  0
  125.4264  122.8986   56.2825 H   0  0  0  0  0  0  0  0  0  0  0  0
  127.7070  122.8041   58.8175 H   0  0  0  0  0  0  0  0  0  0  0  0
  127.1942  121.6774   57.5160 H   0  0  0  0  0  0  0  0  0  0  0  0
  128.8592  122.3514   57.5160 H   0  0  0  0  0  0  0  0  0  0  0  0
  125.9697  126.0849   57.6300 H   0  0  0  0  0  0  0  0  0  0  0  0
  126.9595  128.2590   58.3145 H   0  0  0  0  0  0  0  0  0  0  0  0
  129.8087  131.9833   58.4512 H   0  0  0  0  0  0  0  0  0  0  0  0
  131.9141  130.5910   57.0175 H   0  0  0  0  0  0  0  0  0  0  0  0
  131.8408  132.3048   57.4871 H   0  0  0  0  0  0  0  0  0  0  0  0
  133.2704  130.0320   58.8074 H   0  0  0  0  0  0  0  0  0  0  0  0
  134.4260  131.6960   59.7240 H   0  0  0  0  0  0  0  0  0  0  0  0
  132.4765  130.3983   61.0262 H   0  0  0  0  0  0  0  0  0  0  0  0
  131.9124  132.0250   60.7091 H   0  0  0  0  0  0  0  0  0  0  0  0
  128.6343  129.3673   61.4014 H   0  0  0  0  0  0  0  0  0  0  0  0
  1  2  1  0
  2  3  2  0
  3  4  1  0
  4  5  1  0
  5  6  1  0
  6  7  1  0
  7  8  2  0
  8  9  1  0
  9 10  2  0
 10 11  1  0
 11 12  1  0
 11 13  1  0
 10 14  1  0
 14 15  2  0
  6 16  1  0
 16 17  2  0
 16 18  1  0
 18 19  1  0
 19 20  1  0
 20 21  1  0
 20 22  1  0
 22 23  1  0
 23 24  1  6
  4 25  2  0
 25 26  1  0
 25 27  1  0
 27 28  1  0
 28 29  1  0
 29 30  1  0
 30 31  2  0
 31 32  1  0
 32 33  2  0
 33 34  1  0
 34 35  1  0
 34 36  1  0
 33 37  1  0
 37 38  2  0
 29 39  1  0
 39 40  2  0
 39 41  1  0
 41 42  1  0
 42 43  1  0
 43 44  1  0
 43 45  1  0
 45 46  1  0
 46 47  1  1
 27 48  2  0
 48  2  1  0
 23  5  1  0
 46 28  1  0
 15  7  1  0
 23 18  1  0
 38 30  1  0
 46 41  1  0
  1 49  1  0
  1 50  1  0
  1 51  1  0
  3 52  1  0
  5 53  1  1
  8 54  1  0
  9 55  1  0
 11 56  1  0
 12 57  1  0
 12 58  1  0
 12 59  1  0
 13 60  1  0
 13 61  1  0
 13 62  1  0
 14 63  1  0
 15 64  1  0
 18 65  1  6
 19 66  1  0
 19 67  1  0
 20 68  1  1
 21 69  1  0
 22 70  1  0
 22 71  1  0
 28 72  1  6
 31 73  1  0
 32 74  1  0
 34 75  1  0
 35 76  1  0
 35 77  1  0
 35 78  1  0
 36 79  1  0
 36 80  1  0
 36 81  1  0
 37 82  1  0
 38 83  1  0
 41 84  1  1
 42 85  1  0
 42 86  1  0
 43 87  1  6
 44 88  1  0
 45 89  1  0
 45 90  1  0
 48 91  1  0
M  CHG  5  23   1  24  -1  26  -1  46   1  47  -1
M  END
>  <Binding energies>  (1) 
[-6.08]

>  <Ligand effiencies>  (1) 
[-0.1216]

>  <Interactions>  (1) 
["V-A:ARG:545:CA:4919, V-A:GLU:543:CA:4904, V-A:GLY:454:CA:4049, V-B:PRO:540:CA:9855, V-A:GLU:543:C:4902, V-B:GLU:543:CB:9878, V-B:TYR:539:CE2:9848, V-B:GLU:543:CG:9879, V-A:GLY:544:C:4912, V-B:TYR:539:C:9839, V-A:ASP:366:CG:3213, V-A:LEU:363:CD1:3189, V-B:TYR:539:CZ:9849, V-A:GLU:543:CD:4908, V-A:TYR:484:CZ:4347, V-B:HIS:456:CE1:9041, V-A:ARG:545:CG:4922, V-B:PRO:540:N:9856, V-A:ILE:369:CD1:3239, V-A:HIS:456:CE1:4070, V-B:TYR:539:CD2:9846, V-B:GLU:543:CD:9880, V-A:ASP:366:CB:3212, V-A:LEU:475:CD2:4259, H-A:LEU:363:N:3186, V-B:TYR:539:CG:9844, V-A:GLU:543:CB:4906, V-B:TYR:539:CD1:9845, V-A:PRO:540:CB:4885, H-A:SER:385:O:3406, V-B:MET:535:CE:9807, H-A:ASP:366:OD2:3215, V-B:TYR:539:CE1:9847, H-A:TYR:484:OH:4348"]

$$$$
ZINC2383754144
     RDKit          3D

151154  0  0  0  0  0  0  0  0999 V2000
  130.3770  131.6000   62.7800 C   0  0  0  0  0  0  0  0  0  0  0  0
  129.9700  132.9170   63.1250 O   0  0  0  0  0  0  0  0  0  0  0  0
  128.5670  133.1270   63.3130 C   0  0  1  0  0  0  0  0  0  0  0  0
  127.8070  133.1330   61.9560 C   0  0  0  0  0  0  0  0  0  0  0  0
  128.6650  133.1610   60.6760 C   0  0  2  0  0  0  0  0  0  0  0  0
  127.9210  133.7740   59.4700 C   0  0  0  0  0  0  0  0  0  0  0  0
  128.6720  133.5320   58.1570 C   0  0  0  0  0  0  0  0  0  0  0  0
  129.0870  132.0530   58.0030 C   0  0  1  0  0  0  0  0  0  0  0  0
  129.8050  131.8160   56.6530 C   0  0  0  0  0  0  0  0  0  0  0  0
  129.8590  131.5760   59.2680 C   0  0  1  0  0  0  0  0  0  0  0  0
  131.0670  132.2370   59.3330 O   0  0  0  0  0  0  0  0  0  0  0  0
  129.0720  131.8100   60.4160 O   0  0  0  0  0  0  0  0  0  0  0  0
  130.1710  130.0030   59.2780 C   0  0  0  0  0  0  0  0  0  0  0  0
  130.8180  129.4420   58.3910 O   0  0  0  0  0  0  0  0  0  0  0  0
  129.6380  129.1300   60.4850 C   0  0  0  0  0  0  0  0  0  0  0  0
  130.4800  128.6740   61.2610 O   0  0  0  0  0  0  0  0  0  0  0  0
  128.2810  128.9830   60.5990 N   0  0  0  0  0  0  0  0  0  0  0  0
  127.4420  129.6880   61.6060 C   0  0  0  0  0  0  0  0  0  0  0  0
  126.3950  130.5260   60.8510 C   0  0  0  0  0  0  0  0  0  0  0  0
  125.5380  129.6640   59.9170 C   0  0  0  0  0  0  0  0  0  0  0  0
  126.4240  128.8730   58.9400 C   0  0  0  0  0  0  0  0  0  0  0  0
  127.6020  128.1000   59.6000 C   0  0  2  0  0  0  0  0  0  0  0  0
  127.1170  126.7680   60.2150 C   0  0  0  0  0  0  0  0  0  0  0  0
  126.6600  126.6830   61.3560 O   0  0  0  0  0  0  0  0  0  0  0  0
  127.2420  125.7470   59.3370 O   0  0  0  0  0  0  0  0  0  0  0  0
  128.4650  125.0240   59.1540 C   0  0  2  0  0  0  0  0  0  0  0  0
  128.2810  123.6920   58.3510 C   0  0  2  0  0  0  0  0  0  0  0  0
  127.1070  123.7870   57.3560 C   0  0  0  0  0  0  0  0  0  0  0  0
  128.1570  122.4030   59.2110 C   0  0  0  0  0  0  0  0  0  0  0  0
  129.4440  121.8600   59.8770 C   0  0  2  0  0  0  0  0  0  0  0  0
  129.2680  121.5950   61.3880 C   0  0  0  0  0  0  0  0  0  0  0  0
  130.5410  120.9730   61.9910 C   0  0  0  0  0  0  0  0  0  0  0  0
  131.8160  121.8110   61.7090 C   0  0  1  0  0  0  0  0  0  0  0  0
  132.9380  121.0600   62.1310 O   0  0  0  0  0  0  0  0  0  0  0  0
  131.9340  122.2730   60.2210 C   0  0  2  0  0  0  0  0  0  0  0  0
  132.9210  123.2830   60.0060 O   0  0  0  0  0  0  0  0  0  0  0  0
  132.7170  124.1490   58.8990 C   0  0  0  0  0  0  0  0  0  0  0  0
  130.6010  122.8700   59.7210 C   0  0  0  0  0  0  0  0  0  0  0  0
  129.0840  124.7690   60.5500 C   0  0  0  0  0  0  0  0  0  0  0  0
  129.7360  125.9920   61.2110 C   0  0  0  0  0  0  0  0  0  0  0  0
  130.6080  126.6540   60.6430 O   0  0  0  0  0  0  0  0  0  0  0  0
  129.2290  126.3450   62.6190 C   0  0  2  0  0  0  0  0  0  0  0  0
  130.3060  127.0770   63.4380 C   0  0  0  0  0  0  0  0  0  0  0  0
  128.7090  125.0990   63.3290 C   0  0  0  0  0  0  0  0  0  0  0  0
  129.4350  124.0740   63.8280 C   0  0  0  0  0  0  0  0  0  0  0  0
  128.7540  122.9130   64.5360 C   0  0  0  0  0  0  0  0  0  0  0  0
  130.9700  123.9770   63.7740 C   0  0  1  0  0  0  0  0  0  0  0  0
  131.5430  125.0640   63.0440 O   0  0  0  0  0  0  0  0  0  0  0  0
  132.3010  124.7190   61.8900 C   0  0  0  0  0  0  0  0  0  0  0  0
  133.7870  124.8640   62.2370 C   0  0  0  0  0  0  0  0  0  0  0  0
  134.4610  123.6340   62.0840 O   0  0  0  0  0  0  0  0  0  0  0  0
  131.6480  123.9490   65.1740 C   0  0  1  0  0  0  0  0  0  0  0  0
  133.0640  124.0790   65.0120 O   0  0  0  0  0  0  0  0  0  0  0  0
  133.5600  125.4130   64.9650 C   0  0  0  0  0  0  0  0  0  0  0  0
  131.0980  125.0500   66.1050 C   0  0  0  0  0  0  0  0  0  0  0  0
  131.8410  125.9350   66.5340 O   0  0  0  0  0  0  0  0  0  0  0  0
  129.6000  125.0010   66.5010 C   0  0  2  0  0  0  0  0  0  0  0  0
  128.8430  126.1500   65.8030 C   0  0  0  0  0  0  0  0  0  0  0  0
  129.3950  124.9940   68.0450 C   0  0  0  0  0  0  0  0  0  0  0  0
  129.1870  126.3660   68.7340 C   0  0  2  0  0  0  0  0  0  0  0  0
  127.7450  126.5000   69.2540 C   0  0  0  0  0  0  0  0  0  0  0  0
  129.5630  127.5500   67.8560 C   0  0  0  0  0  0  0  0  0  0  0  0
  128.6900  128.4640   67.3930 C   0  0  0  0  0  0  0  0  0  0  0  0
  129.0320  129.5830   66.5310 C   0  0  0  0  0  0  0  0  0  0  0  0
  128.2520  130.6610   66.3200 C   0  0  0  0  0  0  0  0  0  0  0  0
  128.6280  131.7230   65.4030 C   0  0  0  0  0  0  0  0  0  0  0  0
  128.0010  132.0560   64.2510 C   0  0  0  0  0  0  0  0  0  0  0  0
  126.7640  131.3460   63.7030 C   0  0  0  0  0  0  0  0  0  0  0  0
  130.5564  131.0196   63.6970 H   0  0  0  0  0  0  0  0  0  0  0  0
  129.5867  131.1153   62.1879 H   0  0  0  0  0  0  0  0  0  0  0  0
  131.3030  131.6456   62.1879 H   0  0  0  0  0  0  0  0  0  0  0  0
  128.4233  134.1158   63.7729 H   0  0  0  0  0  0  0  0  0  0  0  0
  127.1852  132.2263   61.9194 H   0  0  0  0  0  0  0  0  0  0  0  0
  127.2461  134.0792   61.9458 H   0  0  0  0  0  0  0  0  0  0  0  0
  129.5384  133.8121   60.8285 H   0  0  0  0  0  0  0  0  0  0  0  0
  126.9223  133.3184   59.3984 H   0  0  0  0  0  0  0  0  0  0  0  0
  127.8490  134.8602   59.6281 H   0  0  0  0  0  0  0  0  0  0  0  0
  128.0190  133.8088   57.3162 H   0  0  0  0  0  0  0  0  0  0  0  0
  129.5846  134.1460   58.1648 H   0  0  0  0  0  0  0  0  0  0  0  0
  128.1958  131.4102   57.9517 H   0  0  0  0  0  0  0  0  0  0  0  0
  130.8344  131.4762   56.8399 H   0  0  0  0  0  0  0  0  0  0  0  0
  129.2640  131.0488   56.0797 H   0  0  0  0  0  0  0  0  0  0  0  0
  129.8270  132.7545   56.0797 H   0  0  0  0  0  0  0  0  0  0  0  0
  131.7550  131.6120   59.0910 H   0  0  0  0  0  0  0  0  0  0  0  0
  126.9375  128.9537   62.2512 H   0  0  0  0  0  0  0  0  0  0  0  0
  128.0673  130.3366   62.2371 H   0  0  0  0  0  0  0  0  0  0  0  0
  125.7380  131.0180   61.5833 H   0  0  0  0  0  0  0  0  0  0  0  0
  126.9292  131.2662   60.2371 H   0  0  0  0  0  0  0  0  0  0  0  0
  124.9458  128.9590   60.5188 H   0  0  0  0  0  0  0  0  0  0  0  0
  124.8747  130.3231   59.3377 H   0  0  0  0  0  0  0  0  0  0  0  0
  125.7882  128.1440   58.4163 H   0  0  0  0  0  0  0  0  0  0  0  0
  126.8807  129.6153   58.2689 H   0  0  0  0  0  0  0  0  0  0  0  0
  128.3414  127.8305   58.8315 H   0  0  0  0  0  0  0  0  0  0  0  0
  129.1452  125.6316   58.5390 H   0  0  0  0  0  0  0  0  0  0  0  0
  129.2274  123.5836   57.8009 H   0  0  0  0  0  0  0  0  0  0  0  0
  126.1607  123.8636   57.9116 H   0  0  0  0  0  0  0  0  0  0  0  0
  127.2338  124.6778   56.7233 H   0  0  0  0  0  0  0  0  0  0  0  0
  127.0889  122.8874   56.7233 H   0  0  0  0  0  0  0  0  0  0  0  0
  127.4337  122.6109   60.0133 H   0  0  0  0  0  0  0  0  0  0  0  0
  127.8589  121.6195   58.4988 H   0  0  0  0  0  0  0  0  0  0  0  0
  129.6674  120.9109   59.3679 H   0  0  0  0  0  0  0  0  0  0  0  0
  129.0563  122.5464   61.8978 H   0  0  0  0  0  0  0  0  0  0  0  0
  128.4346  120.8903   61.5255 H   0  0  0  0  0  0  0  0  0  0  0  0
  130.4092  120.8906   63.0800 H   0  0  0  0  0  0  0  0  0  0  0  0
  130.6823  119.9893   61.5195 H   0  0  0  0  0  0  0  0  0  0  0  0
  131.7592  122.7492   62.2804 H   0  0  0  0  0  0  0  0  0  0  0  0
  133.7340  121.5120   61.8400 H   0  0  0  0  0  0  0  0  0  0  0  0
  132.2174  121.3611   59.6750 H   0  0  0  0  0  0  0  0  0  0  0  0
  132.4790  125.1594   59.2629 H   0  0  0  0  0  0  0  0  0  0  0  0
  133.6312  124.1851   58.2884 H   0  0  0  0  0  0  0  0  0  0  0  0
  131.8828  123.7732   58.2884 H   0  0  0  0  0  0  0  0  0  0  0  0
  130.3705  123.7729   60.3056 H   0  0  0  0  0  0  0  0  0  0  0  0
  130.7076  123.1156   58.6541 H   0  0  0  0  0  0  0  0  0  0  0  0
  128.2857  124.4082   61.2152 H   0  0  0  0  0  0  0  0  0  0  0  0
  129.8922  124.0389   60.3961 H   0  0  0  0  0  0  0  0  0  0  0  0
  128.3853  127.0437   62.5185 H   0  0  0  0  0  0  0  0  0  0  0  0
  130.1061  126.9411   64.5111 H   0  0  0  0  0  0  0  0  0  0  0  0
  131.2959  126.6638   63.1943 H   0  0  0  0  0  0  0  0  0  0  0  0
  130.2862  128.1495   63.1943 H   0  0  0  0  0  0  0  0  0  0  0  0
  127.6179  125.0264   63.4486 H   0  0  0  0  0  0  0  0  0  0  0  0
  128.8341  123.0495   65.6246 H   0  0  0  0  0  0  0  0  0  0  0  0
  127.6930  122.8793   64.2478 H   0  0  0  0  0  0  0  0  0  0  0  0
  129.2424  121.9704   64.2478 H   0  0  0  0  0  0  0  0  0  0  0  0
  131.1612  123.0185   63.2693 H   0  0  0  0  0  0  0  0  0  0  0  0
  132.0855  123.6803   61.5989 H   0  0  0  0  0  0  0  0  0  0  0  0
  132.0391  125.3792   61.0500 H   0  0  0  0  0  0  0  0  0  0  0  0
  134.2420  125.6098   61.5686 H   0  0  0  0  0  0  0  0  0  0  0  0
  133.8739  125.1849   63.2856 H   0  0  0  0  0  0  0  0  0  0  0  0
  133.8140  122.9530   61.8830 H   0  0  0  0  0  0  0  0  0  0  0  0
  131.4171  122.9864   65.6537 H   0  0  0  0  0  0  0  0  0  0  0  0
  133.6996  125.7886   65.9894 H   0  0  0  0  0  0  0  0  0  0  0  0
  134.5236  125.4274   64.4346 H   0  0  0  0  0  0  0  0  0  0  0  0
  132.8399  126.0535   64.4346 H   0  0  0  0  0  0  0  0  0  0  0  0
  129.1754  124.0485   66.1512 H   0  0  0  0  0  0  0  0  0  0  0  0
  128.4050  126.8149   66.5620 H   0  0  0  0  0  0  0  0  0  0  0  0
  129.5422  126.7213   65.1747 H   0  0  0  0  0  0  0  0  0  0  0  0
  128.0422  125.7330   65.1747 H   0  0  0  0  0  0  0  0  0  0  0  0
  128.5094  124.3776   68.2592 H   0  0  0  0  0  0  0  0  0  0  0  0
  130.3395  124.6084   68.4564 H   0  0  0  0  0  0  0  0  0  0  0  0
  129.8805  126.3911   69.5875 H   0  0  0  0  0  0  0  0  0  0  0  0
  127.7504  126.4995   70.3540 H   0  0  0  0  0  0  0  0  0  0  0  0
  127.3100  127.4424   68.8899 H   0  0  0  0  0  0  0  0  0  0  0  0
  127.1438  125.6539   68.8899 H   0  0  0  0  0  0  0  0  0  0  0  0
  130.6214  127.6673   67.5804 H   0  0  0  0  0  0  0  0  0  0  0  0
  127.6364  128.3556   67.6900 H   0  0  0  0  0  0  0  0  0  0  0  0
  130.0010  129.5471   66.0116 H   0  0  0  0  0  0  0  0  0  0  0  0
  127.2974  130.7397   66.8608 H   0  0  0  0  0  0  0  0  0  0  0  0
  129.5133  132.3175   65.6727 H   0  0  0  0  0  0  0  0  0  0  0  0
  126.1446  130.9905   64.5396 H   0  0  0  0  0  0  0  0  0  0  0  0
  126.1814  132.0472   63.0874 H   0  0  0  0  0  0  0  0  0  0  0  0
  127.0755  130.4892   63.0874 H   0  0  0  0  0  0  0  0  0  0  0  0
  1  2  1  0
  2  3  1  0
  3  4  1  0
  4  5  1  0
  5  6  1  0
  6  7  1  0
  7  8  1  0
  8  9  1  0
  8 10  1  0
 10 11  1  1
 10 12  1  0
 10 13  1  0
 13 14  2  0
 13 15  1  0
 15 16  2  0
 15 17  1  0
 17 18  1  0
 18 19  1  0
 19 20  1  0
 20 21  1  0
 21 22  1  0
 22 23  1  0
 23 24  2  0
 23 25  1  0
 25 26  1  0
 26 27  1  0
 27 28  1  0
 27 29  1  0
 29 30  1  0
 30 31  1  0
 31 32  1  0
 32 33  1  0
 33 34  1  0
 33 35  1  0
 35 36  1  0
 36 37  1  0
 35 38  1  0
 26 39  1  0
 39 40  1  0
 40 41  2  0
 40 42  1  0
 42 43  1  0
 42 44  1  0
 44 45  2  0
 45 46  1  0
 45 47  1  0
 47 48  1  0
 48 49  1  0
 49 50  1  0
 50 51  1  0
 47 52  1  0
 52 53  1  0
 53 54  1  0
 52 55  1  0
 55 56  2  0
 55 57  1  0
 57 58  1  0
 57 59  1  0
 59 60  1  0
 60 61  1  0
 60 62  1  0
 62 63  2  0
 63 64  1  0
 64 65  2  0
 65 66  1  0
 66 67  2  0
 67 68  1  0
 67  3  1  0
 12  5  1  0
 22 17  1  0
 38 30  1  0
  1 69  1  0
  1 70  1  0
  1 71  1  0
  3 72  1  1
  4 73  1  0
  4 74  1  0
  5 75  1  1
  6 76  1  0
  6 77  1  0
  7 78  1  0
  7 79  1  0
  8 80  1  6
  9 81  1  0
  9 82  1  0
  9 83  1  0
 11 84  1  0
 18 85  1  0
 18 86  1  0
 19 87  1  0
 19 88  1  0
 20 89  1  0
 20 90  1  0
 21 91  1  0
 21 92  1  0
 22 93  1  6
 26 94  1  6
 27 95  1  6
 28 96  1  0
 28 97  1  0
 28 98  1  0
 29 99  1  0
 29100  1  0
 30101  1  6
 31102  1  0
 31103  1  0
 32104  1  0
 32105  1  0
 33106  1  1
 34107  1  0
 35108  1  6
 37109  1  0
 37110  1  0
 37111  1  0
 38112  1  0
 38113  1  0
 39114  1  0
 39115  1  0
 42116  1  6
 43117  1  0
 43118  1  0
 43119  1  0
 44120  1  0
 46121  1  0
 46122  1  0
 46123  1  0
 47124  1  6
 49125  1  0
 49126  1  0
 50127  1  0
 50128  1  0
 51129  1  0
 52130  1  1
 54131  1  0
 54132  1  0
 54133  1  0
 57134  1  6
 58135  1  0
 58136  1  0
 58137  1  0
 59138  1  0
 59139  1  0
 60140  1  1
 61141  1  0
 61142  1  0
 61143  1  0
 62144  1  0
 63145  1  0
 64146  1  0
 65147  1  0
 66148  1  0
 68149  1  0
 68150  1  0
 68151  1  0
M  END
>  <Binding energies>  (1) 
[9.84]

>  <Ligand effiencies>  (1) 
[0.1347945205479452]

>  <Interactions>  (1) 
["V-B:PRO:540:CA:9855, V-A:GLU:543:CA:4904, V-B:GLU:543:C:9874, H-A:ALA:541:N:4891, V-B:GLU:543:CB:9878, V-B:ASP:366:CG:8184, V-B:ALA:541:CB:9864, H-A:TYR:531:OH:4795, V-A:TYR:484:CE2:4346, V-B:TYR:539:CE2:9848, V-B:LEU:475:CD2:9230, V-B:GLU:543:CG:9879, V-B:TYR:539:C:9839, V-A:ASP:366:CG:3213, V-A:TYR:539:CD1:4873, V-B:TYR:484:CE2:9317, V-B:TYR:539:CZ:9849, V-A:ALA:541:CB:4892, V-A:TYR:539:CA:4869, V-B:ASP:366:CB:8183, V-A:GLU:543:CD:4908, V-A:TYR:484:CZ:4347, V-B:HIS:456:CE1:9041, H-A:GLY:454:N:4050, V-B:GLU:543:CA:9876, V-B:PRO:540:N:9856, V-B:TYR:484:CZ:9318, V-A:HIS:456:CE1:4070, V-A:TYR:539:CB:4871, V-A:ALA:541:CA:4890, V-B:TYR:539:CD2:9846, V-A:GLU:543:CG:4907, H-A:SER:385:OG:3410, V-A:MET:535:CE:4835, V-B:GLU:543:CD:9880, V-A:TYR:539:C:4867, V-A:ARG:545:CD:4923, V-A:LEU:475:CD2:4259, V-A:ARG:545:CZ:4926, V-B:TYR:539:CG:9844, H-B:ARG:545:NH2:9900, V-A:GLU:543:CB:4906, V-A:PRO:540:N:4884, V-A:TYR:539:CG:4872, V-A:PRO:540:CA:4883, H-A:ARG:545:NE:4924, H-A:SER:385:O:3406, V-A:TYR:539:CE1:4875, H-A:TYR:484:OH:4348"]

$$$$
ZINC2383755465
     RDKit          3D

 78 86  0  0  0  0  0  0  0  0999 V2000
  126.8110  128.5680   58.8910 O   0  0  0  0  0  0  0  0  0  0  0  0
  127.9950  128.4690   58.5640 C   0  0  0  0  0  0  0  0  0  0  0  0
  129.0670  129.5360   58.8460 C   0  0  2  0  0  0  0  0  0  0  0  0
  128.6700  130.9820   58.4700 C   0  0  0  0  0  0  0  0  0  0  0  0
  129.4720  131.3550   57.2310 C   0  0  0  0  0  0  0  0  0  0  0  0
  129.8890  130.0160   56.6270 C   0  0  0  0  0  0  0  0  0  0  0  0
  130.1890  129.1950   57.8840 N   0  0  1  0  0  0  0  0  0  0  0  0
  131.4020  129.5610   58.3880 O   0  0  0  0  0  0  0  0  0  0  0  0
  130.0510  127.6870   57.7400 C   0  0  1  0  0  0  0  0  0  0  0  0
  130.9390  126.8870   58.7150 C   0  0  0  0  0  0  0  0  0  0  0  0
  132.0740  126.2060   58.2730 C   0  0  0  0  0  0  0  0  0  0  0  0
  132.8320  125.4850   59.1960 C   0  0  0  0  0  0  0  0  0  0  0  0
  132.4370  125.4550   60.5590 C   0  0  0  0  0  0  0  0  0  0  0  0
  133.1600  124.7520   61.5510 C   0  0  0  0  0  0  0  0  0  0  0  0
  132.7340  124.7510   62.8780 C   0  0  0  0  0  0  0  0  0  0  0  0
  131.5700  125.4540   63.2650 C   0  0  0  0  0  0  0  0  0  0  0  0
  131.1020  125.4860   64.6050 C   0  0  0  0  0  0  0  0  0  0  0  0
  129.9500  126.2080   64.9170 C   0  0  0  0  0  0  0  0  0  0  0  0
  129.2750  126.8790   63.8960 C   0  0  0  0  0  0  0  0  0  0  0  0
  128.0260  127.7330   64.1870 C   0  0  1  0  0  0  0  0  0  0  0  0
  128.2490  128.7520   65.2320 N   0  0  0  0  0  0  0  0  0  0  0  0
  128.4550  128.4290   66.5940 C   0  0  0  0  0  0  0  0  0  0  0  0
  128.3560  127.1060   67.0570 C   0  0  0  0  0  0  0  0  0  0  0  0
  128.5320  126.8220   68.4080 C   0  0  0  0  0  0  0  0  0  0  0  0
  128.7990  127.8540   69.3030 C   0  0  0  0  0  0  0  0  0  0  0  0
  129.0120  127.5010   70.9800 Cl  0  0  0  0  0  0  0  0  0  0  0  0
  128.8920  129.1710   68.8580 C   0  0  0  0  0  0  0  0  0  0  0  0
  128.7170  129.4590   67.5070 C   0  0  0  0  0  0  0  0  0  0  0  0
  128.3550  130.0000   64.7050 C   0  0  0  0  0  0  0  0  0  0  0  0
  128.5570  131.0640   65.2950 O   0  0  0  0  0  0  0  0  0  0  0  0
  128.2090  129.8670   63.1790 C   0  0  2  0  0  0  0  0  0  0  0  0
  127.2410  130.8790   62.5220 C   0  0  0  0  0  0  0  0  0  0  0  0
  125.9920  130.1060   62.1220 C   0  0  0  0  0  0  0  0  0  0  0  0
  126.0300  128.8440   62.9790 C   0  0  0  0  0  0  0  0  0  0  0  0
  127.5280  128.5260   62.9890 N   0  0  2  0  0  0  0  0  0  0  0  0
  127.8820  127.9540   61.8030 O   0  0  0  0  0  0  0  0  0  0  0  0
  129.7010  126.8650   62.6110 N   0  0  0  0  0  0  0  0  0  0  0  0
  130.8280  126.1680   62.2820 C   0  0  0  0  0  0  0  0  0  0  0  0
  131.2610  126.1690   60.9300 C   0  0  0  0  0  0  0  0  0  0  0  0
  130.5340  126.8640   60.0080 N   0  0  0  0  0  0  0  0  0  0  0  0
  128.6100  127.4350   57.9290 N   0  0  0  0  0  0  0  0  0  0  0  0
  127.9850  126.2130   57.5880 C   0  0  0  0  0  0  0  0  0  0  0  0
  126.6170  126.0540   57.8370 C   0  0  0  0  0  0  0  0  0  0  0  0
  125.9750  124.8670   57.4940 C   0  0  0  0  0  0  0  0  0  0  0  0
  126.6980  123.8380   56.8930 C   0  0  0  0  0  0  0  0  0  0  0  0
  125.8990  122.3680   56.4670 Cl  0  0  0  0  0  0  0  0  0  0  0  0
  128.0570  123.9890   56.6300 C   0  0  0  0  0  0  0  0  0  0  0  0
  128.7010  125.1730   56.9740 C   0  0  0  0  0  0  0  0  0  0  0  0
  129.2843  129.5187   59.9242 H   0  0  0  0  0  0  0  0  0  0  0  0
  127.5929  131.0338   58.2527 H   0  0  0  0  0  0  0  0  0  0  0  0
  128.8807  131.6751   59.2978 H   0  0  0  0  0  0  0  0  0  0  0  0
  128.8515  131.9243   56.5232 H   0  0  0  0  0  0  0  0  0  0  0  0
  130.3357  131.9933   57.4687 H   0  0  0  0  0  0  0  0  0  0  0  0
  129.0735  129.5686   56.0398 H   0  0  0  0  0  0  0  0  0  0  0  0
  130.7321  130.0841   55.9237 H   0  0  0  0  0  0  0  0  0  0  0  0
  130.4074  127.3405   56.7587 H   0  0  0  0  0  0  0  0  0  0  0  0
  132.3665  126.2372   57.2131 H   0  0  0  0  0  0  0  0  0  0  0  0
  133.7313  124.9425   58.8691 H   0  0  0  0  0  0  0  0  0  0  0  0
  134.0693  124.1995   61.2717 H   0  0  0  0  0  0  0  0  0  0  0  0
  133.3103  124.1966   63.6333 H   0  0  0  0  0  0  0  0  0  0  0  0
  131.6452  124.9441   65.3933 H   0  0  0  0  0  0  0  0  0  0  0  0
  129.5792  126.2480   65.9518 H   0  0  0  0  0  0  0  0  0  0  0  0
  127.2934  126.9736   64.4978 H   0  0  0  0  0  0  0  0  0  0  0  0
  128.1387  126.2923   66.3494 H   0  0  0  0  0  0  0  0  0  0  0  0
  128.4603  125.7849   68.7675 H   0  0  0  0  0  0  0  0  0  0  0  0
  129.1030  129.9809   69.5718 H   0  0  0  0  0  0  0  0  0  0  0  0
  128.7847  130.4990   67.1552 H   0  0  0  0  0  0  0  0  0  0  0  0
  129.2030  130.0130   62.7311 H   0  0  0  0  0  0  0  0  0  0  0  0
  126.9809  131.6724   63.2382 H   0  0  0  0  0  0  0  0  0  0  0  0
  127.7058  131.3541   61.6455 H   0  0  0  0  0  0  0  0  0  0  0  0
  125.0867  130.6933   62.3354 H   0  0  0  0  0  0  0  0  0  0  0  0
  125.9683  129.8792   61.0459 H   0  0  0  0  0  0  0  0  0  0  0  0
  125.6534  129.0365   63.9944 H   0  0  0  0  0  0  0  0  0  0  0  0
  125.4005  128.0255   62.5998 H   0  0  0  0  0  0  0  0  0  0  0  0
  126.0469  126.8698   58.3054 H   0  0  0  0  0  0  0  0  0  0  0  0
  124.9011  124.7418   57.6966 H   0  0  0  0  0  0  0  0  0  0  0  0
  128.6199  123.1741   56.1514 H   0  0  0  0  0  0  0  0  0  0  0  0
  129.7740  125.2948   56.7644 H   0  0  0  0  0  0  0  0  0  0  0  0
  1  2  2  0
  2  3  1  0
  3  4  1  0
  4  5  1  0
  5  6  1  0
  6  7  1  0
  7  8  1  1
  7  9  1  0
  9 10  1  0
 10 11  2  0
 11 12  1  0
 12 13  2  0
 13 14  1  0
 14 15  2  0
 15 16  1  0
 16 17  2  0
 17 18  1  0
 18 19  2  0
 19 20  1  0
 20 21  1  0
 21 22  1  0
 22 23  2  0
 23 24  1  0
 24 25  2  0
 25 26  1  0
 25 27  1  0
 27 28  2  0
 21 29  1  0
 29 30  2  0
 29 31  1  0
 31 32  1  0
 32 33  1  0
 33 34  1  0
 34 35  1  0
 35 36  1  6
 19 37  1  0
 37 38  2  0
 38 39  1  0
 39 40  2  0
  9 41  1  0
 41 42  1  0
 42 43  2  0
 43 44  1  0
 44 45  2  0
 45 46  1  0
 45 47  1  0
 47 48  2  0
 41  2  1  0
 48 42  1  0
  7  3  1  0
 40 10  1  0
 39 13  1  0
 38 16  1  0
 35 20  1  0
 28 22  1  0
 35 31  1  0
  3 49  1  1
  4 50  1  0
  4 51  1  0
  5 52  1  0
  5 53  1  0
  6 54  1  0
  6 55  1  0
  9 56  1  6
 11 57  1  0
 12 58  1  0
 14 59  1  0
 15 60  1  0
 17 61  1  0
 18 62  1  0
 20 63  1  1
 23 64  1  0
 24 65  1  0
 27 66  1  0
 28 67  1  0
 31 68  1  6
 32 69  1  0
 32 70  1  0
 33 71  1  0
 33 72  1  0
 34 73  1  0
 34 74  1  0
 43 75  1  0
 44 76  1  0
 47 77  1  0
 48 78  1  0
M  CHG  4   7   1   8  -1  35   1  36  -1
M  END
>  <Binding energies>  (1) 
[-8.8]

>  <Ligand effiencies>  (1) 
[-0.18333333333333335]

>  <Interactions>  (1) 
["V-A:ASP:366:CA:3210, V-A:GLU:543:CA:4904, V-B:GLU:543:C:9874, V-A:GLU:543:C:4902, V-B:GLU:543:CB:9878, H-A:TYR:531:OH:4795, V-B:TYR:539:CE2:9848, V-B:GLU:543:CG:9879, V-A:ASP:366:CG:3213, V-B:TYR:539:CZ:9849, V-B:ILE:538:CG2:9835, V-A:GLU:543:CD:4908, V-B:PRO:540:CB:9857, H-B:TYR:484:OH:9319, V-B:HIS:456:CE1:9041, V-B:PRO:540:N:9856, V-B:PRO:540:CD:9859, V-A:GLU:543:CG:4907, V-B:GLU:543:CD:9880, V-A:MET:535:CE:4835, V-B:ARG:545:CZ:9898, H-B:TYR:531:OH:9767, V-A:ASP:366:CB:3212, V-A:GLU:543:CB:4906, V-B:MET:535:CE:9807, V-B:TYR:539:CE1:9847"]

$$$$
ZINC2383755615
     RDKit          3D

 78 86  0  0  0  0  0  0  0  0999 V2000
  130.8880  127.3800   59.1190 O   0  0  0  0  0  0  0  0  0  0  0  0
  129.8410  127.8070   59.6090 C   0  0  0  0  0  0  0  0  0  0  0  0
  128.5210  127.0230   59.7040 C   0  0  2  0  0  0  0  0  0  0  0  0
  128.0640  126.3490   58.3900 C   0  0  0  0  0  0  0  0  0  0  0  0
  126.8590  127.1320   57.8870 C   0  0  0  0  0  0  0  0  0  0  0  0
  126.9710  128.4910   58.5710 C   0  0  0  0  0  0  0  0  0  0  0  0
  127.4710  128.0910   59.9620 N   0  0  1  0  0  0  0  0  0  0  0  0
  126.4330  127.5980   60.6950 O   0  0  0  0  0  0  0  0  0  0  0  0
  128.2580  129.1580   60.7110 C   0  0  1  0  0  0  0  0  0  0  0  0
  128.1650  129.0370   62.2440 C   0  0  0  0  0  0  0  0  0  0  0  0
  127.5480  130.0230   63.0130 C   0  0  0  0  0  0  0  0  0  0  0  0
  127.5170  129.8810   64.4000 C   0  0  0  0  0  0  0  0  0  0  0  0
  128.1210  128.7460   65.0040 C   0  0  0  0  0  0  0  0  0  0  0  0
  128.1320  128.5370   66.4010 C   0  0  0  0  0  0  0  0  0  0  0  0
  128.7400  127.4080   66.9490 C   0  0  0  0  0  0  0  0  0  0  0  0
  129.3620  126.4470   66.1200 C   0  0  0  0  0  0  0  0  0  0  0  0
  129.9930  125.2820   66.6310 C   0  0  0  0  0  0  0  0  0  0  0  0
  130.5900  124.3780   65.7530 C   0  0  0  0  0  0  0  0  0  0  0  0
  130.5600  124.6440   64.3840 C   0  0  0  0  0  0  0  0  0  0  0  0
  131.1860  123.6720   63.3640 C   0  0  1  0  0  0  0  0  0  0  0  0
  130.8150  123.9540   61.9720 N   0  0  0  0  0  0  0  0  0  0  0  0
  129.5310  123.7370   61.4570 C   0  0  0  0  0  0  0  0  0  0  0  0
  128.4810  124.5970   61.8050 C   0  0  0  0  0  0  0  0  0  0  0  0
  127.2040  124.3830   61.2880 C   0  0  0  0  0  0  0  0  0  0  0  0
  126.9710  123.3130   60.4230 C   0  0  0  0  0  0  0  0  0  0  0  0
  128.0140  122.4560   60.0730 C   0  0  0  0  0  0  0  0  0  0  0  0
  129.2950  122.6640   60.5860 C   0  0  0  0  0  0  0  0  0  0  0  0
  130.2990  121.8240   60.2330 F   0  0  0  0  0  0  0  0  0  0  0  0
  131.8040  124.5590   61.2730 C   0  0  0  0  0  0  0  0  0  0  0  0
  131.7780  124.9520   60.1060 O   0  0  0  0  0  0  0  0  0  0  0  0
  132.9990  124.7040   62.2310 C   0  0  2  0  0  0  0  0  0  0  0  0
  134.3590  124.2420   61.6570 C   0  0  0  0  0  0  0  0  0  0  0  0
  134.7230  122.9430   62.3620 C   0  0  0  0  0  0  0  0  0  0  0  0
  133.3950  122.4120   62.8970 C   0  0  0  0  0  0  0  0  0  0  0  0
  132.7080  123.7070   63.3420 N   0  0  2  0  0  0  0  0  0  0  0  0
  133.2380  124.1200   64.5280 O   0  0  0  0  0  0  0  0  0  0  0  0
  129.9560  125.7430   63.8690 N   0  0  0  0  0  0  0  0  0  0  0  0
  129.3640  126.6410   64.7080 C   0  0  0  0  0  0  0  0  0  0  0  0
  128.7410  127.7880   64.1500 C   0  0  0  0  0  0  0  0  0  0  0  0
  128.7530  127.9470   62.7950 N   0  0  0  0  0  0  0  0  0  0  0  0
  129.6230  129.0120   60.1890 N   0  0  0  0  0  0  0  0  0  0  0  0
  130.6330  129.9610   60.3920 C   0  0  0  0  0  0  0  0  0  0  0  0
  130.8140  130.5270   61.6600 C   0  0  0  0  0  0  0  0  0  0  0  0
  131.8210  131.4700   61.8650 C   0  0  0  0  0  0  0  0  0  0  0  0
  132.6500  131.8480   60.8080 C   0  0  0  0  0  0  0  0  0  0  0  0
  132.4730  131.2830   59.5450 C   0  0  0  0  0  0  0  0  0  0  0  0
  131.4680  130.3390   59.3310 C   0  0  0  0  0  0  0  0  0  0  0  0
  131.3100  129.7990   58.0990 F   0  0  0  0  0  0  0  0  0  0  0  0
  128.6516  126.2334   60.4586 H   0  0  0  0  0  0  0  0  0  0  0  0
  128.8739  126.3821   57.6463 H   0  0  0  0  0  0  0  0  0  0  0  0
  127.8051  125.2933   58.5584 H   0  0  0  0  0  0  0  0  0  0  0  0
  126.8971  127.2433   56.7933 H   0  0  0  0  0  0  0  0  0  0  0  0
  125.9086  126.6272   58.1147 H   0  0  0  0  0  0  0  0  0  0  0  0
  127.6929  129.1419   58.0561 H   0  0  0  0  0  0  0  0  0  0  0  0
  126.0345  129.0680   58.5793 H   0  0  0  0  0  0  0  0  0  0  0  0
  127.8536  130.1668   60.5413 H   0  0  0  0  0  0  0  0  0  0  0  0
  127.0919  130.9009   62.5322 H   0  0  0  0  0  0  0  0  0  0  0  0
  127.0274  130.6439   65.0231 H   0  0  0  0  0  0  0  0  0  0  0  0
  127.6553  129.2736   67.0645 H   0  0  0  0  0  0  0  0  0  0  0  0
  128.7355  127.2636   68.0395 H   0  0  0  0  0  0  0  0  0  0  0  0
  130.0108  125.0935   67.7146 H   0  0  0  0  0  0  0  0  0  0  0  0
  131.0774  123.4686   66.1343 H   0  0  0  0  0  0  0  0  0  0  0  0
  130.7955  122.7033   63.7090 H   0  0  0  0  0  0  0  0  0  0  0  0
  128.6642  125.4411   62.4862 H   0  0  0  0  0  0  0  0  0  0  0  0
  126.3797  125.0579   61.5621 H   0  0  0  0  0  0  0  0  0  0  0  0
  125.9627  123.1452   60.0165 H   0  0  0  0  0  0  0  0  0  0  0  0
  127.8264  121.6138   59.3907 H   0  0  0  0  0  0  0  0  0  0  0  0
  133.0891  125.7673   62.4980 H   0  0  0  0  0  0  0  0  0  0  0  0
  134.2735  124.0724   60.5735 H   0  0  0  0  0  0  0  0  0  0  0  0
  135.1331  125.0064   61.8195 H   0  0  0  0  0  0  0  0  0  0  0  0
  135.1704  122.2291   61.6547 H   0  0  0  0  0  0  0  0  0  0  0  0
  135.4645  123.0944   63.1602 H   0  0  0  0  0  0  0  0  0  0  0  0
  132.8199  121.9013   62.1106 H   0  0  0  0  0  0  0  0  0  0  0  0
  133.4996  121.6618   63.6946 H   0  0  0  0  0  0  0  0  0  0  0  0
  130.1622  130.2280   62.4941 H   0  0  0  0  0  0  0  0  0  0  0  0
  131.9618  131.9161   62.8606 H   0  0  0  0  0  0  0  0  0  0  0  0
  133.4436  132.5921   60.9709 H   0  0  0  0  0  0  0  0  0  0  0  0
  133.1285  131.5829   58.7141 H   0  0  0  0  0  0  0  0  0  0  0  0
  1  2  2  0
  2  3  1  0
  3  4  1  0
  4  5  1  0
  5  6  1  0
  6  7  1  0
  7  8  1  1
  7  9  1  0
  9 10  1  0
 10 11  2  0
 11 12  1  0
 12 13  2  0
 13 14  1  0
 14 15  2  0
 15 16  1  0
 16 17  2  0
 17 18  1  0
 18 19  2  0
 19 20  1  0
 20 21  1  0
 21 22  1  0
 22 23  2  0
 23 24  1  0
 24 25  2  0
 25 26  1  0
 26 27  2  0
 27 28  1  0
 21 29  1  0
 29 30  2  0
 29 31  1  0
 31 32  1  0
 32 33  1  0
 33 34  1  0
 34 35  1  0
 35 36  1  1
 19 37  1  0
 37 38  2  0
 38 39  1  0
 39 40  2  0
  9 41  1  0
 41 42  1  0
 42 43  2  0
 43 44  1  0
 44 45  2  0
 45 46  1  0
 46 47  2  0
 47 48  1  0
 41  2  1  0
 47 42  1  0
  7  3  1  0
 40 10  1  0
 39 13  1  0
 38 16  1  0
 35 20  1  0
 27 22  1  0
 35 31  1  0
  3 49  1  1
  4 50  1  0
  4 51  1  0
  5 52  1  0
  5 53  1  0
  6 54  1  0
  6 55  1  0
  9 56  1  6
 11 57  1  0
 12 58  1  0
 14 59  1  0
 15 60  1  0
 17 61  1  0
 18 62  1  0
 20 63  1  1
 23 64  1  0
 24 65  1  0
 25 66  1  0
 26 67  1  0
 31 68  1  1
 32 69  1  0
 32 70  1  0
 33 71  1  0
 33 72  1  0
 34 73  1  0
 34 74  1  0
 43 75  1  0
 44 76  1  0
 45 77  1  0
 46 78  1  0
M  CHG  4   7   1   8  -1  35   1  36  -1
M  END
>  <Binding energies>  (1) 
[-7.84]

>  <Ligand effiencies>  (1) 
[-0.16333333333333333]

>  <Interactions>  (1) 
["V-B:PRO:540:CA:9855, V-A:GLY:454:CA:4049, V-B:GLU:543:CB:9878, V-B:TYR:539:CE2:9848, V-A:TYR:484:CE2:4346, V-B:GLU:543:CG:9879, V-B:TYR:539:C:9839, V-A:ASP:366:CG:3213, V-A:GLU:543:CD:4908, V-A:TYR:484:CZ:4347, V-B:PRO:540:CB:9857, H-A:GLY:454:N:4050, V-A:GLY:453:C:4042, V-B:PRO:540:N:9856, V-A:HIS:456:CE1:4070, V-A:ILE:369:CD1:3239, V-B:TYR:539:CD2:9846, V-A:GLU:543:CG:4907, V-B:GLU:543:CD:9880, V-A:LEU:475:CD2:4259, V-A:GLU:543:CB:4906, V-A:PRO:540:CB:4885, V-A:PRO:540:CA:4883, V-B:PRO:540:C:9853, H-A:TYR:484:OH:4348"]

$$$$
ZINC2383755659
     RDKit          3D

 96104  0  0  0  0  0  0  0  0999 V2000
  131.5870  130.1780   58.6380 C   0  0  0  0  0  0  0  0  0  0  0  0
  130.9540  128.9790   57.9050 C   0  0  0  0  0  0  0  0  0  0  0  0
  129.4870  129.2550   57.5220 C   0  0  0  0  0  0  0  0  0  0  0  0
  131.1080  127.6810   58.7010 C   0  0  0  0  0  0  0  0  0  0  0  0
  130.3190  127.4430   59.8300 C   0  0  0  0  0  0  0  0  0  0  0  0
  130.4670  126.2640   60.5540 C   0  0  0  0  0  0  0  0  0  0  0  0
  131.4140  125.3060   60.1690 C   0  0  0  0  0  0  0  0  0  0  0  0
  131.5490  124.1050   60.9110 N   0  0  0  0  0  0  0  0  0  0  0  0
  132.7170  123.4220   61.0720 C   0  0  0  0  0  0  0  0  0  0  0  0
  133.8380  123.7190   60.6600 O   0  0  0  0  0  0  0  0  0  0  0  0
  132.4000  122.1500   61.8810 C   0  0  2  0  0  0  0  0  0  0  0  0
  132.9400  120.8360   61.2720 C   0  0  0  0  0  0  0  0  0  0  0  0
  131.7430  120.0810   60.7100 C   0  0  0  0  0  0  0  0  0  0  0  0
  130.6600  121.1430   60.5380 C   0  0  0  0  0  0  0  0  0  0  0  0
  130.8930  122.0130   61.7770 N   0  0  1  0  0  0  0  0  0  0  0  0
  130.3740  121.3930   62.8740 O   0  0  0  0  0  0  0  0  0  0  0  0
  130.4540  123.4650   61.6670 C   0  0  1  0  0  0  0  0  0  0  0  0
  130.1400  124.1090   63.0360 C   0  0  0  0  0  0  0  0  0  0  0  0
  130.2470  123.3760   64.2190 C   0  0  0  0  0  0  0  0  0  0  0  0
  129.9210  123.9910   65.4270 C   0  0  0  0  0  0  0  0  0  0  0  0
  129.4940  125.3420   65.4340 C   0  0  0  0  0  0  0  0  0  0  0  0
  129.1530  126.0310   66.6220 C   0  0  0  0  0  0  0  0  0  0  0  0
  128.7420  127.3620   66.5830 C   0  0  0  0  0  0  0  0  0  0  0  0
  128.6590  128.0570   65.3550 C   0  0  0  0  0  0  0  0  0  0  0  0
  128.2520  129.4140   65.2680 C   0  0  0  0  0  0  0  0  0  0  0  0
  128.2000  130.0400   64.0240 C   0  0  0  0  0  0  0  0  0  0  0  0
  128.5410  129.3130   62.8830 C   0  0  0  0  0  0  0  0  0  0  0  0
  128.5360  129.9650   61.4860 C   0  0  1  0  0  0  0  0  0  0  0  0
  127.3230  129.6650   60.7050 N   0  0  0  0  0  0  0  0  0  0  0  0
  127.0400  128.3870   60.1690 C   0  0  0  0  0  0  0  0  0  0  0  0
  126.7060  128.2200   58.8170 C   0  0  0  0  0  0  0  0  0  0  0  0
  126.4120  126.9540   58.3190 C   0  0  0  0  0  0  0  0  0  0  0  0
  126.4430  125.8420   59.1640 C   0  0  0  0  0  0  0  0  0  0  0  0
  126.1260  124.4510   58.6080 C   0  0  0  0  0  0  0  0  0  0  0  0
  127.1090  123.3790   59.1180 C   0  0  0  0  0  0  0  0  0  0  0  0
  126.0380  124.4590   57.0710 C   0  0  0  0  0  0  0  0  0  0  0  0
  126.7690  126.0080   60.5140 C   0  0  0  0  0  0  0  0  0  0  0  0
  127.0600  127.2730   61.0150 C   0  0  0  0  0  0  0  0  0  0  0  0
  126.4750  130.7260   60.6560 C   0  0  0  0  0  0  0  0  0  0  0  0
  125.3750  130.7990   60.1060 O   0  0  0  0  0  0  0  0  0  0  0  0
  127.1290  131.8690   61.4540 C   0  0  2  0  0  0  0  0  0  0  0  0
  127.1290  133.2450   60.7480 C   0  0  0  0  0  0  0  0  0  0  0  0
  128.5610  133.5230   60.3140 C   0  0  0  0  0  0  0  0  0  0  0  0
  129.2280  132.1490   60.2910 C   0  0  0  0  0  0  0  0  0  0  0  0
  128.5950  131.4840   61.5170 N   0  0  2  0  0  0  0  0  0  0  0  0
  129.1850  131.9610   62.6490 O   0  0  0  0  0  0  0  0  0  0  0  0
  128.9340  128.0170   62.9380 N   0  0  0  0  0  0  0  0  0  0  0  0
  128.9950  127.3820   64.1450 C   0  0  0  0  0  0  0  0  0  0  0  0
  129.4090  126.0250   64.1850 C   0  0  0  0  0  0  0  0  0  0  0  0
  129.7220  125.3970   63.0140 N   0  0  0  0  0  0  0  0  0  0  0  0
  132.1930  125.5460   59.0260 C   0  0  0  0  0  0  0  0  0  0  0  0
  132.0440  126.7250   58.3020 C   0  0  0  0  0  0  0  0  0  0  0  0
  131.5073  130.0271   59.7247 H   0  0  0  0  0  0  0  0  0  0  0  0
  132.6470  130.2620   58.3562 H   0  0  0  0  0  0  0  0  0  0  0  0
  131.0585  131.1006   58.3562 H   0  0  0  0  0  0  0  0  0  0  0  0
  131.5084  128.8420   56.9649 H   0  0  0  0  0  0  0  0  0  0  0  0
  128.8847  129.3683   58.4354 H   0  0  0  0  0  0  0  0  0  0  0  0
  129.4307  130.1795   56.9286 H   0  0  0  0  0  0  0  0  0  0  0  0
  129.0985  128.4142   56.9286 H   0  0  0  0  0  0  0  0  0  0  0  0
  129.5777  128.1911   60.1476 H   0  0  0  0  0  0  0  0  0  0  0  0
  129.8352  126.0826   61.4360 H   0  0  0  0  0  0  0  0  0  0  0  0
  132.8438  122.2661   62.8808 H   0  0  0  0  0  0  0  0  0  0  0  0
  133.6573  121.0588   60.4684 H   0  0  0  0  0  0  0  0  0  0  0  0
  133.4609  120.2358   62.0325 H   0  0  0  0  0  0  0  0  0  0  0  0
  131.9935  119.6223   59.7421 H   0  0  0  0  0  0  0  0  0  0  0  0
  131.4210  119.2617   61.3696 H   0  0  0  0  0  0  0  0  0  0  0  0
  130.8025  121.7169   59.6104 H   0  0  0  0  0  0  0  0  0  0  0  0
  129.6405  120.7378   60.4574 H   0  0  0  0  0  0  0  0  0  0  0  0
  129.4919  123.5865   61.1478 H   0  0  0  0  0  0  0  0  0  0  0  0
  130.5835  122.3289   64.1985 H   0  0  0  0  0  0  0  0  0  0  0  0
  129.9949  123.4300   66.3703 H   0  0  0  0  0  0  0  0  0  0  0  0
  129.2131  125.5094   67.5886 H   0  0  0  0  0  0  0  0  0  0  0  0
  128.4792  127.8776   67.5185 H   0  0  0  0  0  0  0  0  0  0  0  0
  127.9790  129.9687   66.1778 H   0  0  0  0  0  0  0  0  0  0  0  0
  127.8941  131.0935   63.9427 H   0  0  0  0  0  0  0  0  0  0  0  0
  129.4386  129.5345   61.0278 H   0  0  0  0  0  0  0  0  0  0  0  0
  126.6763  129.0926   58.1479 H   0  0  0  0  0  0  0  0  0  0  0  0
  126.1545  126.8287   57.2569 H   0  0  0  0  0  0  0  0  0  0  0  0
  125.1325  124.1759   58.9919 H   0  0  0  0  0  0  0  0  0  0  0  0
  127.1109  123.3769   60.2180 H   0  0  0  0  0  0  0  0  0  0  0  0
  126.7968  122.3905   58.7500 H   0  0  0  0  0  0  0  0  0  0  0  0
  128.1208  123.6045   58.7500 H   0  0  0  0  0  0  0  0  0  0  0  0
  124.9859  124.5546   56.7645 H   0  0  0  0  0  0  0  0  0  0  0  0
  126.6139  125.3085   56.6752 H   0  0  0  0  0  0  0  0  0  0  0  0
  126.4513  123.5196   56.6752 H   0  0  0  0  0  0  0  0  0  0  0  0
  126.7954  125.1348   61.1824 H   0  0  0  0  0  0  0  0  0  0  0  0
  127.3066  127.3976   62.0797 H   0  0  0  0  0  0  0  0  0  0  0  0
  126.5795  131.9769   62.4008 H   0  0  0  0  0  0  0  0  0  0  0  0
  126.4666  133.2191   59.8702 H   0  0  0  0  0  0  0  0  0  0  0  0
  126.7639  134.0326   61.4236 H   0  0  0  0  0  0  0  0  0  0  0  0
  128.5821  133.9821   59.3146 H   0  0  0  0  0  0  0  0  0  0  0  0
  129.0733  134.2251   60.9882 H   0  0  0  0  0  0  0  0  0  0  0  0
  128.9885  131.6011   59.3677 H   0  0  0  0  0  0  0  0  0  0  0  0
  130.3272  132.1827   60.3156 H   0  0  0  0  0  0  0  0  0  0  0  0
  132.9278  124.7953   58.6998 H   0  0  0  0  0  0  0  0  0  0  0  0
  132.6657  126.9043   57.4124 H   0  0  0  0  0  0  0  0  0  0  0  0
  1  2  1  0
  2  3  1  0
  2  4  1  0
  4  5  2  0
  5  6  1  0
  6  7  2  0
  7  8  1  0
  8  9  1  0
  9 10  2  0
  9 11  1  0
 11 12  1  0
 12 13  1  0
 13 14  1  0
 14 15  1  0
 15 16  1  1
 15 17  1  0
 17 18  1  0
 18 19  2  0
 19 20  1  0
 20 21  2  0
 21 22  1  0
 22 23  2  0
 23 24  1  0
 24 25  2  0
 25 26  1  0
 26 27  2  0
 27 28  1  0
 28 29  1  0
 29 30  1  0
 30 31  2  0
 31 32  1  0
 32 33  2  0
 33 34  1  0
 34 35  1  0
 34 36  1  0
 33 37  1  0
 37 38  2  0
 29 39  1  0
 39 40  2  0
 39 41  1  0
 41 42  1  0
 42 43  1  0
 43 44  1  0
 44 45  1  0
 45 46  1  1
 27 47  1  0
 47 48  2  0
 48 49  1  0
 49 50  2  0
  7 51  1  0
 51 52  2  0
 52  4  1  0
 17  8  1  0
 50 18  1  0
 15 11  1  0
 49 21  1  0
 48 24  1  0
 45 28  1  0
 38 30  1  0
 45 41  1  0
  1 53  1  0
  1 54  1  0
  1 55  1  0
  2 56  1  0
  3 57  1  0
  3 58  1  0
  3 59  1  0
  5 60  1  0
  6 61  1  0
 11 62  1  1
 12 63  1  0
 12 64  1  0
 13 65  1  0
 13 66  1  0
 14 67  1  0
 14 68  1  0
 17 69  1  6
 19 70  1  0
 20 71  1  0
 22 72  1  0
 23 73  1  0
 25 74  1  0
 26 75  1  0
 28 76  1  6
 31 77  1  0
 32 78  1  0
 34 79  1  0
 35 80  1  0
 35 81  1  0
 35 82  1  0
 36 83  1  0
 36 84  1  0
 36 85  1  0
 37 86  1  0
 38 87  1  0
 41 88  1  1
 42 89  1  0
 42 90  1  0
 43 91  1  0
 43 92  1  0
 44 93  1  0
 44 94  1  0
 51 95  1  0
 52 96  1  0
M  CHG  4  15   1  16  -1  45   1  46  -1
M  END
>  <Binding energies>  (1) 
[-7.49]

>  <Ligand effiencies>  (1) 
[-0.14403846153846153]

>  <Interactions>  (1) 
["V-A:ILE:369:CG2:3237, V-B:PRO:540:CA:9855, V-B:GLU:543:CB:9878, V-B:TYR:539:CE2:9848, V-A:TYR:484:CE2:4346, V-B:GLU:543:CG:9879, V-A:ASP:366:CG:3213, V-A:TYR:539:CD1:4873, V-A:TYR:484:CZ:4347, V-A:GLU:543:CD:4908, V-B:PRO:540:CB:9857, V-B:PRO:540:N:9856, V-B:TYR:539:CD2:9846, V-A:GLU:543:CG:4907, V-A:SER:385:CB:3409, V-A:TYR:531:CZ:4794, V-B:GLU:543:CD:9880, V-A:MET:535:CE:4835, V-A:TYR:539:C:4867, V-A:ASP:366:CB:3212, V-A:LEU:475:CD2:4259, V-A:PRO:540:N:4884, V-A:PRO:540:CA:4883, V-B:MET:535:CE:9807, V-A:TYR:539:CE1:4875"]

$$$$
ZINC2383758279
     RDKit          3D

 76 78  0  0  0  0  0  0  0  0999 V2000
  129.6480  125.5000   67.3790 C   0  0  0  0  0  0  0  0  0  0  0  0
  129.9890  124.4920   66.5570 C   0  0  0  0  0  0  0  0  0  0  0  0
  130.6000  124.6150   65.1610 C   0  0  1  0  0  0  0  0  0  0  0  0
  132.0600  125.0860   65.3660 C   0  0  0  0  0  0  0  0  0  0  0  0
  130.5430  123.1980   64.5160 C   0  0  0  0  0  0  0  0  0  0  0  0
  130.5300  123.2320   62.9810 C   0  0  0  0  0  0  0  0  0  0  0  0
  131.2820  122.5270   62.3100 O   0  0  0  0  0  0  0  0  0  0  0  0
  129.4960  124.2410   62.4000 C   0  0  2  0  0  0  0  0  0  0  0  0
  128.2540  123.8810   63.0190 O   0  0  0  0  0  0  0  0  0  0  0  0
  129.2990  124.2330   60.7970 C   0  0  1  0  0  0  0  0  0  0  0  0
  130.6480  124.5770   60.0700 C   0  0  0  0  0  0  0  0  0  0  0  0
  128.8630  122.8050   60.2280 C   0  0  1  0  0  0  0  0  0  0  0  0
  127.8910  122.1120   60.9930 O   0  0  0  0  0  0  0  0  0  0  0  0
  128.3320  122.8360   58.7720 C   0  0  0  0  0  0  0  0  0  0  0  0
  127.1970  123.8630   58.6110 C   0  0  0  0  0  0  0  0  0  0  0  0
  127.6430  125.3160   58.9420 C   0  0  0  0  0  0  0  0  0  0  0  0
  126.3560  126.1790   58.8500 C   0  0  0  0  0  0  0  0  0  0  0  0
  128.6740  125.7870   57.8780 C   0  0  0  0  0  0  0  0  0  0  0  0
  128.1650  125.3050   60.4430 C   0  0  2  0  0  0  0  0  0  0  0  0
  128.3670  126.7230   61.0950 C   0  0  2  0  0  0  0  0  0  0  0  0
  129.3410  127.4830   60.3830 O   0  0  0  0  0  0  0  0  0  0  0  0
  129.2280  128.8710   60.4380 C   0  0  0  0  0  0  0  0  0  0  0  0
  130.2010  129.4620   61.3200 N   0  0  0  0  0  0  0  0  0  0  0  0
  131.2710  130.2100   60.6730 C   0  0  0  0  0  0  0  0  0  0  0  0
  132.0130  131.1200   61.6760 C   0  0  0  0  0  0  0  0  0  0  0  0
  131.1250  131.9950   62.4020 N   0  0  0  0  0  0  0  0  0  0  0  0
  130.1060  132.0200   63.0890 C   0  0  0  0  0  0  0  0  0  0  0  0
  128.7520  132.1850   63.9030 S   0  0  0  0  0  0  0  0  0  0  0  0
  128.7180  126.6660   62.6150 C   0  0  2  0  0  0  0  0  0  0  0  0
  128.9700  127.9600   63.1790 O   0  0  0  0  0  0  0  0  0  0  0  0
  127.9810  128.7290   63.6890 C   0  0  0  0  0  0  0  0  0  0  0  0
  128.0060  128.7580   65.2120 C   0  0  0  0  0  0  0  0  0  0  0  0
  127.1410  129.3600   63.0480 O   0  0  0  0  0  0  0  0  0  0  0  0
  129.8620  125.6690   62.9820 C   0  0  2  0  0  0  0  0  0  0  0  0
  131.2510  126.2580   62.5800 C   0  0  0  0  0  0  0  0  0  0  0  0
  129.8170  125.5870   64.4250 O   0  0  0  0  0  0  0  0  0  0  0  0
  129.2138  125.2820   68.3659 H   0  0  0  0  0  0  0  0  0  0  0  0
  129.8033  126.5426   67.0646 H   0  0  0  0  0  0  0  0  0  0  0  0
  129.8095  123.4721   66.9278 H   0  0  0  0  0  0  0  0  0  0  0  0
  132.2751  125.1554   66.4425 H   0  0  0  0  0  0  0  0  0  0  0  0
  132.7470  124.3639   64.9006 H   0  0  0  0  0  0  0  0  0  0  0  0
  132.1955  126.0734   64.9006 H   0  0  0  0  0  0  0  0  0  0  0  0
  131.4243  122.6282   64.8456 H   0  0  0  0  0  0  0  0  0  0  0  0
  129.6025  122.7288   64.8405 H   0  0  0  0  0  0  0  0  0  0  0  0
  127.9740  124.5990   63.5890 H   0  0  0  0  0  0  0  0  0  0  0  0
  131.4281  124.7759   60.8196 H   0  0  0  0  0  0  0  0  0  0  0  0
  130.9523  123.7277   59.4406 H   0  0  0  0  0  0  0  0  0  0  0  0
  130.5084  125.4683   59.4406 H   0  0  0  0  0  0  0  0  0  0  0  0
  129.8205  122.2663   60.2833 H   0  0  0  0  0  0  0  0  0  0  0  0
  127.7000  122.6290   61.7810 H   0  0  0  0  0  0  0  0  0  0  0  0
  129.1568  123.1049   58.0957 H   0  0  0  0  0  0  0  0  0  0  0  0
  127.9355  121.8398   58.5264 H   0  0  0  0  0  0  0  0  0  0  0  0
  126.8421  123.8334   57.5703 H   0  0  0  0  0  0  0  0  0  0  0  0
  126.4032  123.5915   59.3225 H   0  0  0  0  0  0  0  0  0  0  0  0
  126.0009  126.4171   59.8635 H   0  0  0  0  0  0  0  0  0  0  0  0
  126.5777  127.1117   58.3106 H   0  0  0  0  0  0  0  0  0  0  0  0
  125.5773  125.6198   58.3106 H   0  0  0  0  0  0  0  0  0  0  0  0
  129.5628  126.1930   58.3832 H   0  0  0  0  0  0  0  0  0  0  0  0
  128.9676  124.9337   57.2490 H   0  0  0  0  0  0  0  0  0  0  0  0
  128.2212  126.5676   57.2490 H   0  0  0  0  0  0  0  0  0  0  0  0
  127.2921  124.8965   60.9733 H   0  0  0  0  0  0  0  0  0  0  0  0
  127.3929  127.2285   61.0199 H   0  0  0  0  0  0  0  0  0  0  0  0
  129.3731  129.2785   59.4266 H   0  0  0  0  0  0  0  0  0  0  0  0
  128.2282  129.1130   60.8278 H   0  0  0  0  0  0  0  0  0  0  0  0
  130.5470  128.8130   62.0130 H   0  0  0  0  0  0  0  0  0  0  0  0
  131.9889  129.5006   60.2354 H   0  0  0  0  0  0  0  0  0  0  0  0
  130.8249  130.8465   59.8946 H   0  0  0  0  0  0  0  0  0  0  0  0
  132.5475  130.4847   62.3976 H   0  0  0  0  0  0  0  0  0  0  0  0
  132.7030  131.7537   61.0995 H   0  0  0  0  0  0  0  0  0  0  0  0
  127.8039  126.2644   63.0767 H   0  0  0  0  0  0  0  0  0  0  0  0
  127.3351  127.9797   65.6046 H   0  0  0  0  0  0  0  0  0  0  0  0
  129.0308  128.5712   65.5655 H   0  0  0  0  0  0  0  0  0  0  0  0
  127.6702  129.7440   65.5655 H   0  0  0  0  0  0  0  0  0  0  0  0
  131.8230  126.5006   63.4877 H   0  0  0  0  0  0  0  0  0  0  0  0
  131.8049  125.5173   61.9845 H   0  0  0  0  0  0  0  0  0  0  0  0
  131.1036  127.1711   61.9845 H   0  0  0  0  0  0  0  0  0  0  0  0
  1  2  2  0
  2  3  1  0
  3  4  1  1
  3  5  1  0
  5  6  1  0
  6  7  2  0
  6  8  1  0
  8  9  1  1
  8 10  1  0
 10 11  1  6
 10 12  1  0
 12 13  1  0
 12 14  1  0
 14 15  1  0
 15 16  1  0
 16 17  1  0
 16 18  1  0
 16 19  1  0
 19 20  1  0
 20 21  1  0
 21 22  1  0
 22 23  1  0
 23 24  1  0
 24 25  1  0
 25 26  1  0
 26 27  2  0
 27 28  2  0
 20 29  1  0
 29 30  1  0
 30 31  1  0
 31 32  1  0
 31 33  2  0
 29 34  1  0
 34 35  1  1
 34 36  1  0
 36  3  1  0
 34  8  1  0
 19 10  1  0
  1 37  1  0
  1 38  1  0
  2 39  1  0
  4 40  1  0
  4 41  1  0
  4 42  1  0
  5 43  1  0
  5 44  1  0
  9 45  1  0
 11 46  1  0
 11 47  1  0
 11 48  1  0
 12 49  1  6
 13 50  1  0
 14 51  1  0
 14 52  1  0
 15 53  1  0
 15 54  1  0
 17 55  1  0
 17 56  1  0
 17 57  1  0
 18 58  1  0
 18 59  1  0
 18 60  1  0
 19 61  1  1
 20 62  1  1
 22 63  1  0
 22 64  1  0
 23 65  1  0
 24 66  1  0
 24 67  1  0
 25 68  1  0
 25 69  1  0
 29 70  1  1
 32 71  1  0
 32 72  1  0
 32 73  1  0
 35 74  1  0
 35 75  1  0
 35 76  1  0
M  END
>  <Binding energies>  (1) 
[-6.64]

>  <Ligand effiencies>  (1) 
[-0.17025641025641025]

>  <Interactions>  (1) 
["V-B:PRO:540:CA:9855, H-A:ALA:541:N:4891, V-B:GLU:543:CB:9878, V-B:TYR:539:CE2:9848, V-A:TYR:484:CE2:4346, V-B:GLU:543:CG:9879, V-B:TYR:539:C:9839, V-B:TYR:539:CZ:9849, H-B:GLU:543:OE1:9881, V-A:ALA:541:CB:4892, H-B:ALA:541:N:9863, V-A:TYR:484:CZ:4347, V-A:GLU:543:CD:4908, V-B:GLU:543:CA:9876, V-B:PRO:540:N:9856, V-A:HIS:456:CE1:4070, V-A:ALA:541:CA:4890, V-B:TYR:539:CD2:9846, V-A:GLU:543:CG:4907, V-B:GLU:543:CD:9880, V-A:LEU:475:CD2:4259, H-A:GLU:543:OE1:4909, H-B:GLU:543:OE2:9882, H-A:ASP:366:OD2:3215"]

$$$$
ZINC2383772834
     RDKit          3D

 82 87  0  0  0  0  0  0  0  0999 V2000
  132.3990  129.8340   57.9710 C   0  0  0  0  0  0  0  0  0  0  0  0
  132.2200  131.0550   58.9070 C   0  0  0  0  0  0  0  0  0  0  0  0
  131.5930  132.2510   58.1470 C   0  0  0  0  0  0  0  0  0  0  0  0
  133.5940  131.4720   59.4690 C   0  0  0  0  0  0  0  0  0  0  0  0
  131.4500  130.7100   60.0730 O   0  0  0  0  0  0  0  0  0  0  0  0
  131.0260  131.5830   61.0400 C   0  0  0  0  0  0  0  0  0  0  0  0
  131.7810  132.1100   61.8570 O   0  0  0  0  0  0  0  0  0  0  0  0
  129.6380  131.8060   60.9470 N   0  0  0  0  0  0  0  0  0  0  0  0
  129.0570  133.1480   60.6330 C   0  0  2  0  0  0  0  0  0  0  0  0
  128.3700  133.4990   61.9900 C   0  0  0  0  0  0  0  0  0  0  0  0
  127.4110  132.3320   62.3950 C   0  0  0  0  0  0  0  0  0  0  0  0
  127.2470  131.3600   61.1790 C   0  0  1  0  0  0  0  0  0  0  0  0
  126.7820  132.2530   60.0960 N   0  0  0  0  0  0  0  0  0  0  0  0
  127.9740  132.8730   59.4850 C   0  0  2  0  0  0  0  0  0  0  0  0
  128.4320  131.7600   58.4860 C   0  0  0  0  0  0  0  0  0  0  0  0
  128.7060  130.4180   59.2460 C   0  0  0  0  0  0  0  0  0  0  0  0
  128.6590  130.7170   60.7860 C   0  0  1  0  0  0  0  0  0  0  0  0
  128.7820  129.6100   61.6780 O   0  0  0  0  0  0  0  0  0  0  0  0
  129.4530  128.4450   61.3910 C   0  0  0  0  0  0  0  0  0  0  0  0
  130.6410  128.2720   61.1210 O   0  0  0  0  0  0  0  0  0  0  0  0
  128.4550  127.2620   61.4570 C   0  0  0  0  0  0  0  0  0  0  0  0
  127.3390  127.3740   61.9670 O   0  0  0  0  0  0  0  0  0  0  0  0
  129.0070  126.1620   60.8470 O   0  0  0  0  0  0  0  0  0  0  0  0
  128.6140  124.8420   61.1980 C   0  0  1  0  0  0  0  0  0  0  0  0
  128.9650  124.4660   62.6780 C   0  0  0  0  0  0  0  0  0  0  0  0
  128.5230  122.9790   62.9070 C   0  0  0  0  0  0  0  0  0  0  0  0
  127.6590  122.4720   61.7010 C   0  0  1  0  0  0  0  0  0  0  0  0
  126.5650  123.4650   61.6530 N   0  0  0  0  0  0  0  0  0  0  0  0
  127.0470  124.6450   60.9020 C   0  0  2  0  0  0  0  0  0  0  0  0
  126.8200  124.2540   59.4060 C   0  0  0  0  0  0  0  0  0  0  0  0
  127.5320  122.8930   59.1200 C   0  0  0  0  0  0  0  0  0  0  0  0
  128.4640  122.5390   60.3190 C   0  0  1  0  0  0  0  0  0  0  0  0
  129.2900  123.7740   60.4240 N   0  0  0  0  0  0  0  0  0  0  0  0
  130.6840  123.6770   60.2110 C   0  0  0  0  0  0  0  0  0  0  0  0
  131.4520  123.0070   60.9040 O   0  0  0  0  0  0  0  0  0  0  0  0
  131.0910  124.4200   59.1370 O   0  0  0  0  0  0  0  0  0  0  0  0
  132.2700  125.2450   59.0850 C   0  0  0  0  0  0  0  0  0  0  0  0
  133.5260  124.4040   58.7460 C   0  0  0  0  0  0  0  0  0  0  0  0
  132.1000  126.4200   58.0920 C   0  0  0  0  0  0  0  0  0  0  0  0
  132.4060  125.8050   60.5150 C   0  0  0  0  0  0  0  0  0  0  0  0
  132.5323  128.9249   58.5757 H   0  0  0  0  0  0  0  0  0  0  0  0
  131.5073  129.7247   57.3363 H   0  0  0  0  0  0  0  0  0  0  0  0
  133.2846  129.9853   57.3363 H   0  0  0  0  0  0  0  0  0  0  0  0
  131.2085  132.9845   58.8710 H   0  0  0  0  0  0  0  0  0  0  0  0
  132.3582  132.7258   57.5153 H   0  0  0  0  0  0  0  0  0  0  0  0
  130.7673  131.8917   57.5153 H   0  0  0  0  0  0  0  0  0  0  0  0
  133.5590  131.4614   60.5684 H   0  0  0  0  0  0  0  0  0  0  0  0
  134.3624  130.7666   59.1198 H   0  0  0  0  0  0  0  0  0  0  0  0
  133.8407  132.4855   59.1198 H   0  0  0  0  0  0  0  0  0  0  0  0
  129.7400  133.9402   60.2926 H   0  0  0  0  0  0  0  0  0  0  0  0
  129.1367  133.6323   62.7674 H   0  0  0  0  0  0  0  0  0  0  0  0
  127.7955  134.4311   61.8843 H   0  0  0  0  0  0  0  0  0  0  0  0
  127.8364  131.7850   63.2493 H   0  0  0  0  0  0  0  0  0  0  0  0
  126.4297  132.7398   62.6791 H   0  0  0  0  0  0  0  0  0  0  0  0
  126.5631  130.5230   61.3835 H   0  0  0  0  0  0  0  0  0  0  0  0
  126.2590  131.7580   59.3870 H   0  0  0  0  0  0  0  0  0  0  0  0
  127.8114  133.8412   58.9889 H   0  0  0  0  0  0  0  0  0  0  0  0
  127.6417  131.5975   57.7383 H   0  0  0  0  0  0  0  0  0  0  0  0
  129.3601  132.0850   57.9931 H   0  0  0  0  0  0  0  0  0  0  0  0
  127.9358  129.6771   58.9855 H   0  0  0  0  0  0  0  0  0  0  0  0
  129.6889  130.0122   58.9645 H   0  0  0  0  0  0  0  0  0  0  0  0
  130.0480  124.5651   62.8434 H   0  0  0  0  0  0  0  0  0  0  0  0
  128.4466  125.1356   63.3800 H   0  0  0  0  0  0  0  0  0  0  0  0
  129.4175  122.3460   63.0031 H   0  0  0  0  0  0  0  0  0  0  0  0
  127.9198  122.9242   63.8252 H   0  0  0  0  0  0  0  0  0  0  0  0
  127.3425  121.4263   61.8286 H   0  0  0  0  0  0  0  0  0  0  0  0
  126.2840  123.7000   62.5940 H   0  0  0  0  0  0  0  0  0  0  0  0
  126.5366  125.5816   61.1707 H   0  0  0  0  0  0  0  0  0  0  0  0
  125.7421  124.1540   59.2108 H   0  0  0  0  0  0  0  0  0  0  0  0
  127.2355  125.0345   58.7517 H   0  0  0  0  0  0  0  0  0  0  0  0
  126.7775  122.1024   58.9948 H   0  0  0  0  0  0  0  0  0  0  0  0
  128.1292  122.9749   58.1998 H   0  0  0  0  0  0  0  0  0  0  0  0
  128.9801  121.5802   60.1631 H   0  0  0  0  0  0  0  0  0  0  0  0
  134.0119  124.0787   59.6777 H   0  0  0  0  0  0  0  0  0  0  0  0
  133.2293  123.5218   58.1598 H   0  0  0  0  0  0  0  0  0  0  0  0
  134.2287  125.0144   58.1598 H   0  0  0  0  0  0  0  0  0  0  0  0
  131.9645  127.3569   58.6523 H   0  0  0  0  0  0  0  0  0  0  0  0
  132.9963  126.4977   57.4590 H   0  0  0  0  0  0  0  0  0  0  0  0
  131.2185  126.2405   57.4590 H   0  0  0  0  0  0  0  0  0  0  0  0
  132.2113  125.0034   61.2427 H   0  0  0  0  0  0  0  0  0  0  0  0
  133.4246  126.1936   60.6613 H   0  0  0  0  0  0  0  0  0  0  0  0
  131.6791  126.6175   60.6613 H   0  0  0  0  0  0  0  0  0  0  0  0
  1  2  1  0
  2  3  1  0
  2  4  1  0
  2  5  1  0
  5  6  1  0
  6  7  2  0
  6  8  1  0
  8  9  1  0
  9 10  1  0
 10 11  1  0
 11 12  1  0
 12 13  1  0
 13 14  1  0
 14 15  1  0
 15 16  1  0
 16 17  1  0
 17 18  1  1
 18 19  1  0
 19 20  2  0
 19 21  1  0
 21 22  2  0
 21 23  1  0
 24 23  1  6
 24 25  1  0
 25 26  1  0
 26 27  1  0
 27 28  1  0
 28 29  1  0
 29 30  1  0
 30 31  1  0
 31 32  1  0
 32 33  1  0
 33 34  1  0
 34 35  2  0
 34 36  1  0
 36 37  1  0
 37 38  1  0
 37 39  1  0
 37 40  1  0
 17  8  1  0
 29 24  1  0
 14  9  1  0
 33 24  1  0
 17 12  1  0
 32 27  1  0
  1 41  1  0
  1 42  1  0
  1 43  1  0
  3 44  1  0
  3 45  1  0
  3 46  1  0
  4 47  1  0
  4 48  1  0
  4 49  1  0
  9 50  1  6
 10 51  1  0
 10 52  1  0
 11 53  1  0
 11 54  1  0
 12 55  1  1
 13 56  1  0
 14 57  1  6
 15 58  1  0
 15 59  1  0
 16 60  1  0
 16 61  1  0
 25 62  1  0
 25 63  1  0
 26 64  1  0
 26 65  1  0
 27 66  1  1
 28 67  1  0
 29 68  1  1
 30 69  1  0
 30 70  1  0
 31 71  1  0
 31 72  1  0
 32 73  1  6
 38 74  1  0
 38 75  1  0
 38 76  1  0
 39 77  1  0
 39 78  1  0
 39 79  1  0
 40 80  1  0
 40 81  1  0
 40 82  1  0
M  END
>  <Binding energies>  (1) 
[-6.93]

>  <Ligand effiencies>  (1) 
[-0.16499999999999998]

>  <Interactions>  (1) 
["V-A:ILE:369:CG2:3237, V-A:ASP:366:CA:3210, V-B:PRO:540:CA:9855, V-A:ILE:369:CB:3236, H-A:ALA:541:N:4891, V-A:PRO:540:C:4881, V-B:ALA:541:CB:9864, V-B:TYR:539:CE2:9848, H-B:ALA:541:O:9861, V-B:GLU:543:CG:9879, V-B:TYR:539:C:9839, V-A:ASP:366:CG:3213, V-A:TYR:539:CD1:4873, V-A:LEU:363:CD1:3189, V-A:LEU:363:CB:3187, H-B:GLU:543:OE1:9881, V-A:TYR:531:CE2:4793, H-B:TYR:539:OH:9850, V-A:ALA:541:CB:4892, H-B:ALA:541:N:9863, V-B:PRO:540:CB:9857, V-B:PRO:540:N:9856, V-A:ASP:366:C:3208, V-B:TYR:539:CD2:9846, V-A:TYR:531:CZ:4794, V-B:GLU:543:CD:9880, V-A:TYR:539:C:4867, V-A:ASP:366:CB:3212, V-A:PRO:540:N:4884, V-A:PRO:540:CB:4885, V-A:PRO:540:CA:4883, V-A:LEU:363:CA:3185, V-B:PRO:540:C:9853, V-B:ALA:541:CA:9862, V-A:TYR:539:CE1:4875"]

$$$$
ZINC2384415701
     RDKit          3D

 77 82  0  0  0  0  0  0  0  0999 V2000
  127.6800  123.6930   58.7040 C   0  0  0  0  0  0  0  0  0  0  0  0
  128.1690  123.5260   60.0300 O   0  0  0  0  0  0  0  0  0  0  0  0
  128.4730  124.6390   60.7940 C   0  0  0  0  0  0  0  0  0  0  0  0
  127.8030  125.8670   60.6700 C   0  0  0  0  0  0  0  0  0  0  0  0
  128.1510  126.9700   61.4480 C   0  0  0  0  0  0  0  0  0  0  0  0
  129.1960  126.8430   62.3730 C   0  0  0  0  0  0  0  0  0  0  0  0
  129.8660  125.6300   62.5150 C   0  0  0  0  0  0  0  0  0  0  0  0
  129.5090  124.5250   61.7380 C   0  0  0  0  0  0  0  0  0  0  0  0
  130.2610  123.2050   61.9190 C   0  0  0  0  0  0  0  0  0  0  0  0
  131.6970  123.2920   61.6480 N   0  0  0  0  0  0  0  0  0  0  0  0
  132.3180  123.9410   60.6460 C   0  0  0  0  0  0  0  0  0  0  0  0
  133.5380  124.0950   60.6770 O   0  0  0  0  0  0  0  0  0  0  0  0
  131.5310  124.4480   59.4190 C   0  0  0  0  0  0  0  0  0  0  0  0
  132.1200  125.7100   58.7680 C   0  0  0  0  0  0  0  0  0  0  0  0
  131.1590  126.8930   58.7420 C   0  0  0  0  0  0  0  0  0  0  0  0
  129.7800  126.6970   58.8260 C   0  0  0  0  0  0  0  0  0  0  0  0
  128.9150  127.7910   58.8080 C   0  0  0  0  0  0  0  0  0  0  0  0
  129.4190  129.0980   58.7000 C   0  0  0  0  0  0  0  0  0  0  0  0
  130.8040  129.3000   58.6110 C   0  0  0  0  0  0  0  0  0  0  0  0
  131.2420  130.6050   58.4830 O   0  0  0  0  0  0  0  0  0  0  0  0
  132.6330  130.8670   58.3330 C   0  0  0  0  0  0  0  0  0  0  0  0
  131.6630  128.1890   58.6350 C   0  0  0  0  0  0  0  0  0  0  0  0
  128.6290  130.2300   58.6500 O   0  0  0  0  0  0  0  0  0  0  0  0
  128.1590  130.8360   59.8490 C   0  0  0  0  0  0  0  0  0  0  0  0
  129.3730  131.0510   60.7610 C   0  0  0  0  0  0  0  0  0  0  0  0
  130.3110  131.7180   60.3290 O   0  0  0  0  0  0  0  0  0  0  0  0
  129.4390  130.5660   62.0190 N   0  0  0  0  0  0  0  0  0  0  0  0
  128.7240  129.4860   62.7230 C   0  0  1  0  0  0  0  0  0  0  0  0
  128.4750  129.9330   64.1700 C   0  0  0  0  0  0  0  0  0  0  0  0
  127.3660  129.0960   64.6400 N   0  0  0  0  0  0  0  0  0  0  0  0
  127.1430  128.8960   65.9750 C   0  0  0  0  0  0  0  0  0  0  0  0
  126.1480  129.3730   66.5280 O   0  0  0  0  0  0  0  0  0  0  0  0
  128.0670  128.1050   66.7960 C   0  0  0  0  0  0  0  0  0  0  0  0
  128.8730  127.0720   66.2970 C   0  0  0  0  0  0  0  0  0  0  0  0
  129.8070  126.3620   67.5800 S   0  0  0  0  0  0  0  0  0  0  0  0
  129.0530  127.4760   68.6770 C   0  0  0  0  0  0  0  0  0  0  0  0
  129.3530  127.5160   70.1120 C   0  0  0  0  0  0  0  0  0  0  0  0
  128.5410  127.1440   71.1870 C   0  0  0  0  0  0  0  0  0  0  0  0
  129.1480  127.3120   72.4360 C   0  0  0  0  0  0  0  0  0  0  0  0
  130.4340  127.8150   72.3440 C   0  0  0  0  0  0  0  0  0  0  0  0
  130.8990  128.0830   70.6960 S   0  0  0  0  0  0  0  0  0  0  0  0
  128.1910  128.2790   68.1020 N   0  0  0  0  0  0  0  0  0  0  0  0
  126.6280  128.5450   63.5000 C   0  0  0  0  0  0  0  0  0  0  0  0
  127.3070  129.1280   62.2530 C   0  0  2  0  0  0  0  0  0  0  0  0
  127.4050  128.1160   61.2480 O   0  0  0  0  0  0  0  0  0  0  0  0
  126.6396  124.0483   58.7389 H   0  0  0  0  0  0  0  0  0  0  0  0
  128.3015  124.4298   58.1741 H   0  0  0  0  0  0  0  0  0  0  0  0
  127.7210  122.7299   58.1741 H   0  0  0  0  0  0  0  0  0  0  0  0
  126.9841  125.9607   59.9416 H   0  0  0  0  0  0  0  0  0  0  0  0
  129.4886  127.7054   62.9900 H   0  0  0  0  0  0  0  0  0  0  0  0
  130.6836  125.5413   63.2455 H   0  0  0  0  0  0  0  0  0  0  0  0
  130.1254  122.8701   62.9580 H   0  0  0  0  0  0  0  0  0  0  0  0
  129.8426  122.4991   61.1864 H   0  0  0  0  0  0  0  0  0  0  0  0
  132.2870  122.9650   62.3990 H   0  0  0  0  0  0  0  0  0  0  0  0
  131.5144  123.6471   58.6652 H   0  0  0  0  0  0  0  0  0  0  0  0
  130.5267  124.7176   59.7779 H   0  0  0  0  0  0  0  0  0  0  0  0
  133.0177  126.0044   59.3314 H   0  0  0  0  0  0  0  0  0  0  0  0
  132.3449  125.4562   57.7216 H   0  0  0  0  0  0  0  0  0  0  0  0
  129.3743  125.6777   58.9066 H   0  0  0  0  0  0  0  0  0  0  0  0
  127.8293  127.6292   58.8789 H   0  0  0  0  0  0  0  0  0  0  0  0
  133.0987  130.9547   59.3257 H   0  0  0  0  0  0  0  0  0  0  0  0
  133.1039  130.0418   57.7787 H   0  0  0  0  0  0  0  0  0  0  0  0
  132.7714  131.8070   57.7787 H   0  0  0  0  0  0  0  0  0  0  0  0
  132.7501  128.3435   58.5684 H   0  0  0  0  0  0  0  0  0  0  0  0
  127.6843  131.8018   59.6210 H   0  0  0  0  0  0  0  0  0  0  0  0
  127.4124  130.1953   60.3410 H   0  0  0  0  0  0  0  0  0  0  0  0
  130.2940  130.8180   62.4910 H   0  0  0  0  0  0  0  0  0  0  0  0
  129.3807  128.6209   62.5489 H   0  0  0  0  0  0  0  0  0  0  0  0
  129.3717  129.7681   64.7854 H   0  0  0  0  0  0  0  0  0  0  0  0
  128.2404  131.0056   64.2367 H   0  0  0  0  0  0  0  0  0  0  0  0
  128.9092  126.7559   65.2440 H   0  0  0  0  0  0  0  0  0  0  0  0
  127.5195  126.7552   71.0625 H   0  0  0  0  0  0  0  0  0  0  0  0
  128.6557  127.0701   73.3895 H   0  0  0  0  0  0  0  0  0  0  0  0
  131.0810  128.0194   73.2098 H   0  0  0  0  0  0  0  0  0  0  0  0
  126.6920  127.4469   63.4949 H   0  0  0  0  0  0  0  0  0  0  0  0
  125.5595  128.8031   63.5417 H   0  0  0  0  0  0  0  0  0  0  0  0
  126.7566  129.9845   61.8365 H   0  0  0  0  0  0  0  0  0  0  0  0
  1  2  1  0
  2  3  1  0
  3  4  1  0
  4  5  2  0
  5  6  1  0
  6  7  2  0
  7  8  1  0
  8  9  1  0
  9 10  1  0
 10 11  1  0
 11 12  2  0
 11 13  1  0
 13 14  1  0
 14 15  1  0
 15 16  2  0
 16 17  1  0
 17 18  2  0
 18 19  1  0
 19 20  1  0
 20 21  1  0
 19 22  2  0
 18 23  1  0
 23 24  1  0
 24 25  1  0
 25 26  2  0
 25 27  1  0
 27 28  1  0
 28 29  1  0
 29 30  1  0
 30 31  1  0
 31 32  2  0
 31 33  1  0
 33 34  2  0
 34 35  1  0
 35 36  1  0
 36 37  1  0
 37 38  2  0
 38 39  1  0
 39 40  2  0
 40 41  1  0
 36 42  2  0
 30 43  1  0
 43 44  1  0
 44 45  1  0
  8  3  2  0
 22 15  1  0
 44 28  1  0
 45  5  1  0
 42 33  1  0
 41 37  1  0
  1 46  1  0
  1 47  1  0
  1 48  1  0
  4 49  1  0
  6 50  1  0
  7 51  1  0
  9 52  1  0
  9 53  1  0
 10 54  1  0
 13 55  1  0
 13 56  1  0
 14 57  1  0
 14 58  1  0
 16 59  1  0
 17 60  1  0
 21 61  1  0
 21 62  1  0
 21 63  1  0
 22 64  1  0
 24 65  1  0
 24 66  1  0
 27 67  1  0
 28 68  1  1
 29 69  1  0
 29 70  1  0
 34 71  1  0
 38 72  1  0
 39 73  1  0
 40 74  1  0
 43 75  1  0
 43 76  1  0
 44 77  1  6
M  END
>  <Binding energies>  (1) 
[-3.39]

>  <Ligand effiencies>  (1) 
[-0.06918367346938775]

>  <Interactions>  (1) 
["V-A:LEU:363:CD1:3189, V-A:HIS:456:CE1:4070, V-B:TYR:539:CZ:9849, V-A:GLU:543:C:4902, V-B:GLU:543:CB:9878, V-A:GLU:543:CG:4907, V-B:GLU:543:CD:9880, V-A:GLY:544:C:4912, V-A:GLU:543:CD:4908, V-B:TYR:539:CE2:9848, V-A:ASP:366:CB:3212, H-B:TYR:484:OH:9319, V-B:GLU:543:CG:9879, H-A:GLU:543:OE1:4909, V-B:HIS:456:CE1:9041, V-A:ASP:366:CG:3213, V-A:GLU:543:CB:4906"]

$$$$
ZINC2384415738
     RDKit          3D

 82 88  0  0  0  0  0  0  0  0999 V2000
  133.1200  124.1300   59.2510 C   0  0  0  0  0  0  0  0  0  0  0  0
  131.7320  124.3780   59.0600 O   0  0  0  0  0  0  0  0  0  0  0  0
  131.2520  125.6770   59.0990 C   0  0  0  0  0  0  0  0  0  0  0  0
  131.2100  126.5060   57.9650 C   0  0  0  0  0  0  0  0  0  0  0  0
  130.7890  127.8280   58.0590 C   0  0  0  0  0  0  0  0  0  0  0  0
  130.3890  128.3540   59.2900 C   0  0  0  0  0  0  0  0  0  0  0  0
  130.3860  127.5230   60.4110 C   0  0  0  0  0  0  0  0  0  0  0  0
  130.8270  126.1930   60.3420 C   0  0  0  0  0  0  0  0  0  0  0  0
  130.9070  125.3930   61.6020 C   0  0  0  0  0  0  0  0  0  0  0  0
  131.6810  125.7910   62.7020 C   0  0  0  0  0  0  0  0  0  0  0  0
  131.6730  125.0530   63.8860 C   0  0  0  0  0  0  0  0  0  0  0  0
  130.8800  123.9120   63.9950 C   0  0  0  0  0  0  0  0  0  0  0  0
  130.1020  123.4920   62.9070 C   0  0  0  0  0  0  0  0  0  0  0  0
  130.1530  124.2200   61.7210 C   0  0  0  0  0  0  0  0  0  0  0  0
  129.2670  122.3960   62.9210 O   0  0  0  0  0  0  0  0  0  0  0  0
  128.3140  122.2460   61.8720 C   0  0  0  0  0  0  0  0  0  0  0  0
  129.0640  121.9720   60.5570 C   0  0  0  0  0  0  0  0  0  0  0  0
  130.1400  121.3780   60.6020 O   0  0  0  0  0  0  0  0  0  0  0  0
  128.5510  122.3540   59.3690 N   0  0  0  0  0  0  0  0  0  0  0  0
  127.2560  122.9940   59.1010 C   0  0  0  0  0  0  0  0  0  0  0  0
  127.1890  124.5140   59.2840 C   0  0  0  0  0  0  0  0  0  0  0  0
  127.3400  125.1240   60.5340 C   0  0  0  0  0  0  0  0  0  0  0  0
  127.2720  126.5090   60.6500 C   0  0  0  0  0  0  0  0  0  0  0  0
  127.0760  127.3120   59.5260 C   0  0  0  0  0  0  0  0  0  0  0  0
  126.9060  126.7000   58.2750 C   0  0  0  0  0  0  0  0  0  0  0  0
  126.9700  125.3130   58.1580 C   0  0  0  0  0  0  0  0  0  0  0  0
  127.0480  128.6760   59.7540 O   0  0  0  0  0  0  0  0  0  0  0  0
  127.1880  129.2480   61.0620 C   0  0  1  0  0  0  0  0  0  0  0  0
  126.2080  128.7020   62.1420 C   0  0  0  0  0  0  0  0  0  0  0  0
  126.4170  129.3970   63.5040 C   0  0  0  0  0  0  0  0  0  0  0  0
  127.8440  129.2470   63.8400 N   0  0  0  0  0  0  0  0  0  0  0  0
  128.3400  128.1430   64.4680 C   0  0  0  0  0  0  0  0  0  0  0  0
  128.6420  127.1050   63.8750 O   0  0  0  0  0  0  0  0  0  0  0  0
  128.5240  128.1950   65.9630 C   0  0  0  0  0  0  0  0  0  0  0  0
  128.1570  129.3600   66.6480 C   0  0  0  0  0  0  0  0  0  0  0  0
  128.2910  129.5440   67.9880 N   0  0  0  0  0  0  0  0  0  0  0  0
  128.8070  128.5310   68.6930 C   0  0  0  0  0  0  0  0  0  0  0  0
  129.1000  128.3520   70.0640 C   0  0  0  0  0  0  0  0  0  0  0  0
  129.6190  127.0610   70.1400 C   0  0  0  0  0  0  0  0  0  0  0  0
  129.6750  126.4380   68.9800 N   0  0  0  0  0  0  0  0  0  0  0  0
  129.1820  127.3240   68.0770 N   0  0  0  0  0  0  0  0  0  0  0  0
  129.0400  127.1250   66.7210 C   0  0  0  0  0  0  0  0  0  0  0  0
  129.4460  125.7680   66.1430 C   0  0  0  0  0  0  0  0  0  0  0  0
  128.7170  130.0470   62.9670 C   0  0  0  0  0  0  0  0  0  0  0  0
  128.6640  129.4370   61.5400 C   0  0  2  0  0  0  0  0  0  0  0  0
  129.4850  130.2190   60.6050 N   0  0  0  0  0  0  0  0  0  0  0  0
  129.9670  129.7950   59.4190 C   0  0  0  0  0  0  0  0  0  0  0  0
  130.0980  130.5650   58.4690 O   0  0  0  0  0  0  0  0  0  0  0  0
  133.3406  124.0906   60.3279 H   0  0  0  0  0  0  0  0  0  0  0  0
  133.3882  123.1697   58.7864 H   0  0  0  0  0  0  0  0  0  0  0  0
  133.7042  124.9380   58.7864 H   0  0  0  0  0  0  0  0  0  0  0  0
  131.5148  126.1029   56.9880 H   0  0  0  0  0  0  0  0  0  0  0  0
  130.7708  128.4622   57.1604 H   0  0  0  0  0  0  0  0  0  0  0  0
  130.0290  127.9206   61.3725 H   0  0  0  0  0  0  0  0  0  0  0  0
  132.3020  126.6961   62.6303 H   0  0  0  0  0  0  0  0  0  0  0  0
  132.2942  125.3725   64.7357 H   0  0  0  0  0  0  0  0  0  0  0  0
  130.8646  123.3409   64.9350 H   0  0  0  0  0  0  0  0  0  0  0  0
  129.5831  123.8621   60.8509 H   0  0  0  0  0  0  0  0  0  0  0  0
  127.6445  121.4031   62.0984 H   0  0  0  0  0  0  0  0  0  0  0  0
  127.7152  123.1638   61.7767 H   0  0  0  0  0  0  0  0  0  0  0  0
  129.1090  122.1620   58.5500 H   0  0  0  0  0  0  0  0  0  0  0  0
  126.9834  122.7713   58.0588 H   0  0  0  0  0  0  0  0  0  0  0  0
  126.5682  122.5814   59.8538 H   0  0  0  0  0  0  0  0  0  0  0  0
  127.5130  124.5068   61.4279 H   0  0  0  0  0  0  0  0  0  0  0  0
  127.3741  126.9767   61.6404 H   0  0  0  0  0  0  0  0  0  0  0  0
  126.7215  127.3173   57.3834 H   0  0  0  0  0  0  0  0  0  0  0  0
  126.8472  124.8427   57.1712 H   0  0  0  0  0  0  0  0  0  0  0  0
  126.8314  130.2786   60.9185 H   0  0  0  0  0  0  0  0  0  0  0  0
  125.1749  128.8767   61.8072 H   0  0  0  0  0  0  0  0  0  0  0  0
  126.4034  127.6272   62.2712 H   0  0  0  0  0  0  0  0  0  0  0  0
  126.1547  130.4627   63.4303 H   0  0  0  0  0  0  0  0  0  0  0  0
  125.7782  128.9492   64.2795 H   0  0  0  0  0  0  0  0  0  0  0  0
  127.7297  130.1853   66.0595 H   0  0  0  0  0  0  0  0  0  0  0  0
  128.9519  129.0691   70.8849 H   0  0  0  0  0  0  0  0  0  0  0  0
  129.9519  126.6032   71.0832 H   0  0  0  0  0  0  0  0  0  0  0  0
  129.6556  125.0674   66.9647 H   0  0  0  0  0  0  0  0  0  0  0  0
  128.6267  125.3730   65.5244 H   0  0  0  0  0  0  0  0  0  0  0  0
  130.3476  125.8879   65.5244 H   0  0  0  0  0  0  0  0  0  0  0  0
  128.3640  131.0885   62.9404 H   0  0  0  0  0  0  0  0  0  0  0  0
  129.7490  130.0359   63.3475 H   0  0  0  0  0  0  0  0  0  0  0  0
  129.1046  128.4295   61.5689 H   0  0  0  0  0  0  0  0  0  0  0  0
  129.3850  131.2180   60.7010 H   0  0  0  0  0  0  0  0  0  0  0  0
  1  2  1  0
  2  3  1  0
  3  4  2  0
  4  5  1  0
  5  6  2  0
  6  7  1  0
  7  8  2  0
  8  9  1  0
  9 10  2  0
 10 11  1  0
 11 12  2  0
 12 13  1  0
 13 14  2  0
 13 15  1  0
 15 16  1  0
 16 17  1  0
 17 18  2  0
 17 19  1  0
 19 20  1  0
 20 21  1  0
 21 22  2  0
 22 23  1  0
 23 24  2  0
 24 25  1  0
 25 26  2  0
 24 27  1  0
 27 28  1  0
 28 29  1  0
 29 30  1  0
 30 31  1  0
 31 32  1  0
 32 33  2  0
 32 34  1  0
 34 35  1  0
 35 36  2  0
 36 37  1  0
 37 38  2  0
 38 39  1  0
 39 40  2  0
 40 41  1  0
 41 42  1  0
 42 43  1  0
 31 44  1  0
 44 45  1  0
 45 46  1  0
 46 47  1  0
 47 48  2  0
  8  3  1  0
 14  9  1  0
 26 21  1  0
 45 28  1  0
 47  6  1  0
 42 34  2  0
 41 37  1  0
  1 49  1  0
  1 50  1  0
  1 51  1  0
  4 52  1  0
  5 53  1  0
  7 54  1  0
 10 55  1  0
 11 56  1  0
 12 57  1  0
 14 58  1  0
 16 59  1  0
 16 60  1  0
 19 61  1  0
 20 62  1  0
 20 63  1  0
 22 64  1  0
 23 65  1  0
 25 66  1  0
 26 67  1  0
 28 68  1  6
 29 69  1  0
 29 70  1  0
 30 71  1  0
 30 72  1  0
 35 73  1  0
 38 74  1  0
 39 75  1  0
 43 76  1  0
 43 77  1  0
 43 78  1  0
 44 79  1  0
 44 80  1  0
 45 81  1  1
 46 82  1  0
M  END
>  <Binding energies>  (1) 
[-5.25]

>  <Ligand effiencies>  (1) 
[-0.10096153846153846]

>  <Interactions>  (1) 
["V-A:ILE:369:CG2:3237, V-B:PRO:540:CA:9855, V-B:HIS:456:CD2:9039, V-B:GLU:543:CB:9878, V-B:ALA:541:CB:9864, V-B:TYR:539:CE2:9848, V-B:GLU:543:CG:9879, V-B:TYR:539:C:9839, H-B:TYR:539:OH:9850, V-A:GLU:543:CD:4908, V-B:PRO:540:CB:9857, H-B:TYR:484:OH:9319, V-B:HIS:456:CE1:9041, V-B:PRO:540:N:9856, V-B:TYR:484:CZ:9318, V-A:HIS:456:CE1:4070, V-B:TYR:539:CD2:9846, V-A:GLU:543:CG:4907, V-B:GLU:543:CD:9880, V-B:TYR:539:CG:9844, V-A:GLU:543:CB:4906, H-B:TYR:539:O:9840, V-B:PRO:540:C:9853, V-B:ALA:541:CA:9862"]

$$$$
ZINC2384421345
     RDKit          3D

105109  0  0  0  0  0  0  0  0999 V2000
  130.6510  118.6050   60.9550 C   0  0  0  0  0  0  0  0  0  0  0  0
  129.8730  119.7340   61.6440 C   0  0  0  0  0  0  0  0  0  0  0  0
  129.9800  121.0770   60.9000 C   0  0  0  0  0  0  0  0  0  0  0  0
  130.3750  122.2460   61.8260 C   0  0  0  0  0  0  0  0  0  0  0  0
  129.7790  122.1560   63.2540 C   0  0  2  0  0  0  0  0  0  0  0  0
  128.3790  122.8150   63.3540 C   0  0  0  0  0  0  0  0  0  0  0  0
  127.6460  123.0350   62.0180 C   0  0  0  0  0  0  0  0  0  0  0  0
  130.7540  122.6560   64.3550 C   0  0  0  0  0  0  0  0  0  0  0  0
  131.0950  124.5170   64.3180 Si  0  0  0  0  0  4  0  0  0  0  0  0
  132.9780  124.6700   64.1630 C   0  0  0  0  0  0  0  0  0  0  0  0
  133.5810  123.9890   62.9010 C   0  0  1  0  0  0  0  0  0  0  0  0
  133.5650  122.4410   62.9940 C   0  0  0  0  0  0  0  0  0  0  0  0
  133.8130  121.6960   61.6700 C   0  0  0  0  0  0  0  0  0  0  0  0
  132.9690  124.5040   61.5740 C   0  0  0  0  0  0  0  0  0  0  0  0
  133.9670  124.5570   60.4020 C   0  0  0  0  0  0  0  0  0  0  0  0
  133.3190  124.3010   59.0320 C   0  0  0  0  0  0  0  0  0  0  0  0
  132.3920  125.4450   58.6000 C   0  0  0  0  0  0  0  0  0  0  0  0
  130.1280  125.4420   63.0570 C   0  0  0  0  0  0  0  0  0  0  0  0
  129.9660  125.4180   61.6700 C   0  0  0  0  0  0  0  0  0  0  0  0
  129.0920  126.4020   61.2240 C   0  0  0  0  0  0  0  0  0  0  0  0
  128.6680  126.6980   59.7400 B   0  0  0  0  0  0  0  0  0  0  0  0
  128.1430  125.7540   58.8880 O   0  0  0  0  0  0  0  0  0  0  0  0
  128.0950  126.3320   57.5920 C   0  0  0  0  0  0  0  0  0  0  0  0
  129.3920  125.8800   56.8710 C   0  0  0  0  0  0  0  0  0  0  0  0
  126.8530  125.7580   56.8720 C   0  0  0  0  0  0  0  0  0  0  0  0
  128.0150  127.8640   57.9300 C   0  0  0  0  0  0  0  0  0  0  0  0
  128.7010  128.7970   56.9060 C   0  0  0  0  0  0  0  0  0  0  0  0
  126.5990  128.3960   58.2810 C   0  0  0  0  0  0  0  0  0  0  0  0
  128.7660  127.9270   59.1320 O   0  0  0  0  0  0  0  0  0  0  0  0
  128.4570  127.3440   62.5450 S   0  0  0  0  0  0  0  0  0  0  0  0
  129.3630  126.4190   63.7020 C   0  0  0  0  0  0  0  0  0  0  0  0
  129.4960  126.4330   65.1950 C   0  0  0  0  0  0  0  0  0  0  0  0
  128.7980  127.3700   66.4810 S   0  0  0  0  0  0  0  0  0  0  0  0
  129.6940  126.4800   67.6800 C   0  0  0  0  0  0  0  0  0  0  0  0
  129.5530  126.8080   69.2110 B   0  0  0  0  0  0  0  0  0  0  0  0
  129.0620  125.9250   70.1430 O   0  0  0  0  0  0  0  0  0  0  0  0
  128.8330  126.6580   71.3380 C   0  0  0  0  0  0  0  0  0  0  0  0
  127.3420  127.0910   71.2950 C   0  0  0  0  0  0  0  0  0  0  0  0
  129.0820  125.7040   72.5280 C   0  0  0  0  0  0  0  0  0  0  0  0
  129.8750  127.8240   71.1940 C   0  0  0  0  0  0  0  0  0  0  0  0
  129.4470  129.1660   71.8320 C   0  0  0  0  0  0  0  0  0  0  0  0
  131.3300  127.4700   71.6050 C   0  0  0  0  0  0  0  0  0  0  0  0
  129.8990  128.0080   69.7870 O   0  0  0  0  0  0  0  0  0  0  0  0
  130.4980  125.5050   67.1020 C   0  0  0  0  0  0  0  0  0  0  0  0
  130.3780  125.4770   65.7110 C   0  0  0  0  0  0  0  0  0  0  0  0
  131.1011  117.9518   61.7170 H   0  0  0  0  0  0  0  0  0  0  0  0
  129.9652  118.0173   60.3270 H   0  0  0  0  0  0  0  0  0  0  0  0
  131.4443  119.0366   60.3270 H   0  0  0  0  0  0  0  0  0  0  0  0
  128.8126  119.4467   61.6986 H   0  0  0  0  0  0  0  0  0  0  0  0
  130.3115  119.8746   62.6430 H   0  0  0  0  0  0  0  0  0  0  0  0
  130.7406  120.9816   60.1111 H   0  0  0  0  0  0  0  0  0  0  0  0
  128.9869  121.3050   60.4855 H   0  0  0  0  0  0  0  0  0  0  0  0
  131.4716  122.2635   61.9106 H   0  0  0  0  0  0  0  0  0  0  0  0
  129.9675  123.1608   61.3709 H   0  0  0  0  0  0  0  0  0  0  0  0
  129.6334  121.0837   63.4512 H   0  0  0  0  0  0  0  0  0  0  0  0
  127.7471  122.1716   63.9839 H   0  0  0  0  0  0  0  0  0  0  0  0
  128.5499  123.8187   63.7703 H   0  0  0  0  0  0  0  0  0  0  0  0
  126.6095  123.3461   62.2153 H   0  0  0  0  0  0  0  0  0  0  0  0
  128.1606  123.8183   61.4421 H   0  0  0  0  0  0  0  0  0  0  0  0
  127.6442  122.0978   61.4421 H   0  0  0  0  0  0  0  0  0  0  0  0
  130.3223  122.4056   65.3353 H   0  0  0  0  0  0  0  0  0  0  0  0
  131.7171  122.1585   64.1683 H   0  0  0  0  0  0  0  0  0  0  0  0
  133.2340  125.7393   64.1313 H   0  0  0  0  0  0  0  0  0  0  0  0
  133.4058  124.1497   65.0326 H   0  0  0  0  0  0  0  0  0  0  0  0
  134.6380  124.2929   62.8813 H   0  0  0  0  0  0  0  0  0  0  0  0
  134.3459  122.1360   63.7061 H   0  0  0  0  0  0  0  0  0  0  0  0
  132.5472  122.1674   63.3089 H   0  0  0  0  0  0  0  0  0  0  0  0
  134.1538  120.6722   61.8836 H   0  0  0  0  0  0  0  0  0  0  0  0
  132.8790  121.6580   61.0901 H   0  0  0  0  0  0  0  0  0  0  0  0
  134.5834  122.2254   61.0901 H   0  0  0  0  0  0  0  0  0  0  0  0
  132.1410  123.8365   61.2931 H   0  0  0  0  0  0  0  0  0  0  0  0
  132.6377  125.5369   61.7564 H   0  0  0  0  0  0  0  0  0  0  0  0
  134.4325  125.5535   60.3861 H   0  0  0  0  0  0  0  0  0  0  0  0
  134.7020  123.7554   60.5668 H   0  0  0  0  0  0  0  0  0  0  0  0
  134.1144  124.1881   58.2806 H   0  0  0  0  0  0  0  0  0  0  0  0
  132.7098  123.3888   59.1145 H   0  0  0  0  0  0  0  0  0  0  0  0
  131.9867  125.9452   59.4919 H   0  0  0  0  0  0  0  0  0  0  0  0
  132.9602  126.1704   57.9992 H   0  0  0  0  0  0  0  0  0  0  0  0
  131.5646  125.0395   57.9992 H   0  0  0  0  0  0  0  0  0  0  0  0
  130.4725  124.7018   61.0063 H   0  0  0  0  0  0  0  0  0  0  0  0
  130.1537  125.6145   57.6188 H   0  0  0  0  0  0  0  0  0  0  0  0
  129.1754  125.0044   56.2414 H   0  0  0  0  0  0  0  0  0  0  0  0
  129.7665  126.7006   56.2414 H   0  0  0  0  0  0  0  0  0  0  0  0
  126.1201  125.4193   57.6190 H   0  0  0  0  0  0  0  0  0  0  0  0
  126.4009  126.5385   56.2424 H   0  0  0  0  0  0  0  0  0  0  0  0
  127.1544  124.9079   56.2424 H   0  0  0  0  0  0  0  0  0  0  0  0
  129.2707  129.5718   57.4400 H   0  0  0  0  0  0  0  0  0  0  0  0
  129.3838  128.2095   56.2747 H   0  0  0  0  0  0  0  0  0  0  0  0
  127.9366  129.2736   56.2747 H   0  0  0  0  0  0  0  0  0  0  0  0
  126.4841  128.4392   59.3741 H   0  0  0  0  0  0  0  0  0  0  0  0
  126.4708  129.4036   57.8588 H   0  0  0  0  0  0  0  0  0  0  0  0
  125.8390  127.7221   57.8588 H   0  0  0  0  0  0  0  0  0  0  0  0
  126.9624  127.2012   72.3215 H   0  0  0  0  0  0  0  0  0  0  0  0
  127.2543  128.0517   70.7665 H   0  0  0  0  0  0  0  0  0  0  0  0
  126.7533  126.3267   70.7665 H   0  0  0  0  0  0  0  0  0  0  0  0
  128.9394  126.2504   73.4720 H   0  0  0  0  0  0  0  0  0  0  0  0
  128.3729  124.8645   72.4795 H   0  0  0  0  0  0  0  0  0  0  0  0
  130.1110  125.3181   72.4795 H   0  0  0  0  0  0  0  0  0  0  0  0
  129.4755  129.0766   72.9280 H   0  0  0  0  0  0  0  0  0  0  0  0
  130.1362  129.9609   71.5109 H   0  0  0  0  0  0  0  0  0  0  0  0
  128.4248  129.4151   71.5109 H   0  0  0  0  0  0  0  0  0  0  0  0
  131.4068  127.4513   72.7022 H   0  0  0  0  0  0  0  0  0  0  0  0
  131.5946  126.4813   71.2020 H   0  0  0  0  0  0  0  0  0  0  0  0
  132.0193  128.2267   71.2020 H   0  0  0  0  0  0  0  0  0  0  0  0
  131.1537  124.8325   67.6745 H   0  0  0  0  0  0  0  0  0  0  0  0
  1  2  1  0
  2  3  1  0
  3  4  1  0
  4  5  1  0
  5  6  1  0
  6  7  1  0
  5  8  1  0
  8  9  1  0
  9 10  1  0
 10 11  1  0
 11 12  1  0
 12 13  1  0
 11 14  1  0
 14 15  1  0
 15 16  1  0
 16 17  1  0
  9 18  1  0
 18 19  1  0
 19 20  2  0
 20 21  1  0
 21 22  1  0
 22 23  1  0
 23 24  1  0
 23 25  1  0
 23 26  1  0
 26 27  1  0
 26 28  1  0
 26 29  1  0
 20 30  1  0
 30 31  1  0
 31 32  1  0
 32 33  1  0
 33 34  1  0
 34 35  1  0
 35 36  1  0
 36 37  1  0
 37 38  1  0
 37 39  1  0
 37 40  1  0
 40 41  1  0
 40 42  1  0
 40 43  1  0
 34 44  2  0
 44 45  1  0
 45  9  1  0
 31 18  2  0
 45 32  2  0
 29 21  1  0
 43 35  1  0
  1 46  1  0
  1 47  1  0
  1 48  1  0
  2 49  1  0
  2 50  1  0
  3 51  1  0
  3 52  1  0
  4 53  1  0
  4 54  1  0
  5 55  1  1
  6 56  1  0
  6 57  1  0
  7 58  1  0
  7 59  1  0
  7 60  1  0
  8 61  1  0
  8 62  1  0
 10 63  1  0
 10 64  1  0
 11 65  1  6
 12 66  1  0
 12 67  1  0
 13 68  1  0
 13 69  1  0
 13 70  1  0
 14 71  1  0
 14 72  1  0
 15 73  1  0
 15 74  1  0
 16 75  1  0
 16 76  1  0
 17 77  1  0
 17 78  1  0
 17 79  1  0
 19 80  1  0
 24 81  1  0
 24 82  1  0
 24 83  1  0
 25 84  1  0
 25 85  1  0
 25 86  1  0
 27 87  1  0
 27 88  1  0
 27 89  1  0
 28 90  1  0
 28 91  1  0
 28 92  1  0
 38 93  1  0
 38 94  1  0
 38 95  1  0
 39 96  1  0
 39 97  1  0
 39 98  1  0
 41 99  1  0
 41100  1  0
 41101  1  0
 42102  1  0
 42103  1  0
 42104  1  0
 44105  1  0
M  END
>  <Binding energies>  (1) 
[-9.1]

>  <Ligand effiencies>  (1) 
[-0.20222222222222222]

>  <Interactions>  (1) 
["V-A:ILE:369:CG2:3237, V-A:ASP:366:CA:3210, V-B:PRO:540:CA:9855, V-A:GLY:454:CA:4049, V-B:HIS:456:CD2:9039, V-A:GLU:543:C:4902, V-B:GLU:543:CB:9878, V-B:ALA:541:CB:9864, V-B:TYR:539:CE2:9848, V-A:TYR:484:CE2:4346, V-B:GLU:543:CG:9879, V-A:GLY:544:C:4912, V-A:ASP:366:CG:3213, V-A:HIS:456:CD2:4068, V-B:TYR:539:CZ:9849, V-B:TYR:531:CZ:9766, V-B:LYS:547:CE:9922, V-A:GLU:543:CD:4908, V-A:TYR:484:CZ:4347, V-B:HIS:456:CE1:9041, V-A:HIS:456:CE1:4070, V-A:ILE:369:CD1:3239, V-B:GLY:544:C:9884, V-B:TYR:539:CD2:9846, V-B:GLY:544:CA:9886, V-B:GLU:543:CD:9880, V-A:MET:535:CE:4835, V-B:HIS:456:CG:9037, V-A:ASP:366:CB:3212, V-A:LEU:475:CD2:4259, V-A:ARG:545:CZ:4926, V-A:HIS:456:CG:4066, V-B:ALA:541:CA:9862"]

$$$$
ZINC2384422928
     RDKit          3D

 79 83  0  0  0  0  0  0  0  0999 V2000
  129.1500  122.4310   64.9080 C   0  0  0  0  0  0  0  0  0  0  0  0
  129.8620  123.1850   63.9320 O   0  0  0  0  0  0  0  0  0  0  0  0
  129.3260  123.3480   62.6660 C   0  0  0  0  0  0  0  0  0  0  0  0
  128.6230  124.4960   62.2690 C   0  0  0  0  0  0  0  0  0  0  0  0
  128.0820  124.6170   60.9900 C   0  0  0  0  0  0  0  0  0  0  0  0
  128.2500  123.5620   60.0830 C   0  0  0  0  0  0  0  0  0  0  0  0
  128.9530  122.4180   60.4570 C   0  0  0  0  0  0  0  0  0  0  0  0
  129.4930  122.3030   61.7410 C   0  0  0  0  0  0  0  0  0  0  0  0
  130.2450  121.0270   62.1260 C   0  0  0  0  0  0  0  0  0  0  0  0
  130.1650  119.9570   61.1310 N   0  0  0  0  0  0  0  0  0  0  0  0
  131.1210  119.5230   60.2900 C   0  0  0  0  0  0  0  0  0  0  0  0
  130.9560  118.4780   59.6630 O   0  0  0  0  0  0  0  0  0  0  0  0
  132.4040  120.3450   60.0520 C   0  0  0  0  0  0  0  0  0  0  0  0
  133.0140  120.9550   61.3350 C   0  0  0  0  0  0  0  0  0  0  0  0
  132.9200  122.4750   61.3870 C   0  0  0  0  0  0  0  0  0  0  0  0
  133.5350  123.1930   62.4120 C   0  0  0  0  0  0  0  0  0  0  0  0
  133.4320  124.5830   62.4510 C   0  0  0  0  0  0  0  0  0  0  0  0
  132.7100  125.2720   61.4630 C   0  0  0  0  0  0  0  0  0  0  0  0
  132.0870  124.5550   60.4320 C   0  0  0  0  0  0  0  0  0  0  0  0
  131.3700  125.2860   59.5000 O   0  0  0  0  0  0  0  0  0  0  0  0
  131.9870  125.6510   58.2710 C   0  0  0  0  0  0  0  0  0  0  0  0
  132.2010  123.1560   60.4030 C   0  0  0  0  0  0  0  0  0  0  0  0
  132.5430  126.6450   61.4460 O   0  0  0  0  0  0  0  0  0  0  0  0
  131.2450  127.2140   61.5760 C   0  0  0  0  0  0  0  0  0  0  0  0
  130.5950  126.5970   62.8200 C   0  0  0  0  0  0  0  0  0  0  0  0
  131.2830  125.8690   63.5320 O   0  0  0  0  0  0  0  0  0  0  0  0
  129.3180  126.8470   63.1780 N   0  0  0  0  0  0  0  0  0  0  0  0
  128.1350  127.3260   62.4420 C   0  0  1  0  0  0  0  0  0  0  0  0
  128.1160  128.8580   62.5120 C   0  0  0  0  0  0  0  0  0  0  0  0
  127.2780  129.2580   61.3810 N   0  0  0  0  0  0  0  0  0  0  0  0
  126.6220  130.4410   61.3310 C   0  0  0  0  0  0  0  0  0  0  0  0
  125.6510  130.6180   60.5940 O   0  0  0  0  0  0  0  0  0  0  0  0
  127.1120  131.5930   62.2410 C   0  0  0  0  0  0  0  0  0  0  0  0
  128.0900  132.6000   61.5840 C   0  0  0  0  0  0  0  0  0  0  0  0
  129.4300  131.9950   61.1940 C   0  0  0  0  0  0  0  0  0  0  0  0
  129.7220  131.2030   60.0870 C   0  0  0  0  0  0  0  0  0  0  0  0
  131.3990  130.7570   60.1240 S   0  0  0  0  0  0  0  0  0  0  0  0
  131.5650  131.6600   61.5970 C   0  0  0  0  0  0  0  0  0  0  0  0
  132.8660  131.7810   62.3560 C   0  0  0  0  0  0  0  0  0  0  0  0
  130.4540  132.2320   61.9950 N   0  0  0  0  0  0  0  0  0  0  0  0
  127.1560  128.1920   60.3890 C   0  0  0  0  0  0  0  0  0  0  0  0
  128.0590  127.0680   60.9260 C   0  0  2  0  0  0  0  0  0  0  0  0
  127.4280  125.8040   60.7180 O   0  0  0  0  0  0  0  0  0  0  0  0
  129.4547  122.7536   65.9145 H   0  0  0  0  0  0  0  0  0  0  0  0
  128.0697  122.5951   64.7817 H   0  0  0  0  0  0  0  0  0  0  0  0
  129.3757  121.3618   64.7817 H   0  0  0  0  0  0  0  0  0  0  0  0
  128.4957  125.3211   62.9852 H   0  0  0  0  0  0  0  0  0  0  0  0
  127.8251  123.6371   59.0712 H   0  0  0  0  0  0  0  0  0  0  0  0
  129.0840  121.5984   59.7352 H   0  0  0  0  0  0  0  0  0  0  0  0
  131.3048  121.2827   62.2724 H   0  0  0  0  0  0  0  0  0  0  0  0
  129.7674  120.6436   63.0397 H   0  0  0  0  0  0  0  0  0  0  0  0
  129.3420  119.3760   61.2070 H   0  0  0  0  0  0  0  0  0  0  0  0
  133.1554  119.6860   59.5925 H   0  0  0  0  0  0  0  0  0  0  0  0
  132.1230  121.1884   59.4042 H   0  0  0  0  0  0  0  0  0  0  0  0
  132.4809  120.5429   62.2044 H   0  0  0  0  0  0  0  0  0  0  0  0
  134.0830  120.6956   61.3410 H   0  0  0  0  0  0  0  0  0  0  0  0
  134.1021  122.6622   63.1908 H   0  0  0  0  0  0  0  0  0  0  0  0
  133.9199  125.1440   63.2617 H   0  0  0  0  0  0  0  0  0  0  0  0
  132.9170  126.2012   58.4768 H   0  0  0  0  0  0  0  0  0  0  0  0
  132.2178  124.7440   57.6930 H   0  0  0  0  0  0  0  0  0  0  0  0
  131.3032  126.2900   57.6930 H   0  0  0  0  0  0  0  0  0  0  0  0
  131.7173  122.5888   59.5941 H   0  0  0  0  0  0  0  0  0  0  0  0
  131.3231  128.3048   61.6947 H   0  0  0  0  0  0  0  0  0  0  0  0
  130.6402  127.0091   60.6803 H   0  0  0  0  0  0  0  0  0  0  0  0
  129.0600  126.3890   64.0400 H   0  0  0  0  0  0  0  0  0  0  0  0
  127.3191  126.7688   62.9257 H   0  0  0  0  0  0  0  0  0  0  0  0
  127.6788  129.1999   63.4617 H   0  0  0  0  0  0  0  0  0  0  0  0
  129.1245  129.2947   62.4647 H   0  0  0  0  0  0  0  0  0  0  0  0
  126.2288  132.1532   62.5819 H   0  0  0  0  0  0  0  0  0  0  0  0
  127.6773  131.1131   63.0535 H   0  0  0  0  0  0  0  0  0  0  0  0
  127.6149  133.0024   60.6772 H   0  0  0  0  0  0  0  0  0  0  0  0
  128.2976  133.3778   62.3336 H   0  0  0  0  0  0  0  0  0  0  0  0
  129.0022  130.9061   59.3100 H   0  0  0  0  0  0  0  0  0  0  0  0
  132.6630  131.7621   63.4369 H   0  0  0  0  0  0  0  0  0  0  0  0
  133.5242  130.9402   62.0918 H   0  0  0  0  0  0  0  0  0  0  0  0
  133.3579  132.7288   62.0918 H   0  0  0  0  0  0  0  0  0  0  0  0
  126.1134  127.8503   60.3104 H   0  0  0  0  0  0  0  0  0  0  0  0
  127.4484  128.5206   59.3808 H   0  0  0  0  0  0  0  0  0  0  0  0
  129.0427  127.0550   60.4339 H   0  0  0  0  0  0  0  0  0  0  0  0
  1  2  1  0
  2  3  1  0
  3  4  1  0
  4  5  2  0
  5  6  1  0
  6  7  2  0
  7  8  1  0
  8  9  1  0
  9 10  1  0
 10 11  1  0
 11 12  2  0
 11 13  1  0
 13 14  1  0
 14 15  1  0
 15 16  2  0
 16 17  1  0
 17 18  2  0
 18 19  1  0
 19 20  1  0
 20 21  1  0
 19 22  2  0
 18 23  1  0
 23 24  1  0
 24 25  1  0
 25 26  2  0
 25 27  1  0
 27 28  1  0
 28 29  1  0
 29 30  1  0
 30 31  1  0
 31 32  2  0
 31 33  1  0
 33 34  1  0
 34 35  1  0
 35 36  2  0
 36 37  1  0
 37 38  1  0
 38 39  1  0
 38 40  2  0
 30 41  1  0
 41 42  1  0
 42 43  1  0
  8  3  2  0
 22 15  1  0
 42 28  1  0
 43  5  1  0
 40 35  1  0
  1 44  1  0
  1 45  1  0
  1 46  1  0
  4 47  1  0
  6 48  1  0
  7 49  1  0
  9 50  1  0
  9 51  1  0
 10 52  1  0
 13 53  1  0
 13 54  1  0
 14 55  1  0
 14 56  1  0
 16 57  1  0
 17 58  1  0
 21 59  1  0
 21 60  1  0
 21 61  1  0
 22 62  1  0
 24 63  1  0
 24 64  1  0
 27 65  1  0
 28 66  1  1
 29 67  1  0
 29 68  1  0
 33 69  1  0
 33 70  1  0
 34 71  1  0
 34 72  1  0
 36 73  1  0
 39 74  1  0
 39 75  1  0
 39 76  1  0
 41 77  1  0
 41 78  1  0
 42 79  1  6
M  END
>  <Binding energies>  (1) 
[-3.86]

>  <Ligand effiencies>  (1) 
[-0.08212765957446808]

>  <Interactions>  (1) 
["V-A:ILE:369:CG2:3237, V-B:PRO:540:CA:9855, V-A:GLY:454:CA:4049, H-A:GLU:543:OE2:4910, H-A:ALA:541:N:4891, V-B:ALA:541:CB:9864, V-B:TYR:539:CE2:9848, V-A:TYR:484:CE2:4346, V-B:GLU:543:CG:9879, V-B:TYR:539:C:9839, V-A:ASP:366:CG:3213, V-A:ASN:362:CB:3176, V-B:TYR:539:CZ:9849, H-B:GLU:543:OE1:9881, V-A:GLU:543:CD:4908, V-B:TYR:539:CD2:9846, V-A:SER:385:CB:3409, H-A:SER:385:OG:3410, V-B:GLU:543:CD:9880, V-A:ASP:366:CB:3212, V-A:LEU:475:CD2:4259, H-A:ARG:545:NH2:4928, H-A:GLU:543:OE1:4909, V-B:TYR:539:CG:9844, H-A:HIS:383:HE2:3395, H-B:GLU:543:OE2:9882, V-A:PRO:540:CA:4883, V-A:PRO:540:CB:4885, H-B:TYR:539:O:9840"]

$$$$
ZINC2384425823
     RDKit          3D

 83 86  0  0  0  0  0  0  0  0999 V2000
  132.5020  123.1560   64.1430 C   0  0  0  0  0  0  0  0  0  0  0  0
  132.5930  124.1470   63.1190 O   0  0  0  0  0  0  0  0  0  0  0  0
  131.4240  124.7780   62.5530 C   0  0  0  0  0  0  0  0  0  0  0  0
  131.7370  125.9670   61.5760 C   0  0  0  0  0  0  0  0  0  0  0  0
  132.8580  126.4770   61.6780 O   0  0  0  0  0  0  0  0  0  0  0  0
  130.8300  126.4570   60.6690 N   0  0  0  0  0  0  0  0  0  0  0  0
  130.1110  125.6400   59.6680 C   0  0  0  0  0  0  0  0  0  0  0  0
  130.9080  125.3380   58.3780 C   0  0  0  0  0  0  0  0  0  0  0  0
  131.6180  124.3390   58.2930 O   0  0  0  0  0  0  0  0  0  0  0  0
  130.7730  126.1650   57.3280 N   0  0  0  0  0  0  0  0  0  0  0  0
  129.8400  127.2870   57.2060 C   0  0  0  0  0  0  0  0  0  0  0  0
  128.5460  127.0600   58.0140 C   0  0  0  0  0  0  0  0  0  0  0  0
  127.3300  127.9050   57.5700 C   0  0  0  0  0  0  0  0  0  0  0  0
  127.2050  129.2540   58.2710 C   0  0  0  0  0  0  0  0  0  0  0  0
  126.0970  129.5330   59.0720 C   0  0  0  0  0  0  0  0  0  0  0  0
  126.0090  130.7500   59.7450 C   0  0  0  0  0  0  0  0  0  0  0  0
  127.0240  131.6990   59.6210 C   0  0  0  0  0  0  0  0  0  0  0  0
  126.9090  132.8640   60.3030 F   0  0  0  0  0  0  0  0  0  0  0  0
  128.1400  131.4420   58.8050 C   0  0  0  0  0  0  0  0  0  0  0  0
  128.2140  130.2130   58.1390 C   0  0  0  0  0  0  0  0  0  0  0  0
  129.2390  132.4760   58.6720 C   0  0  0  0  0  0  0  0  0  0  0  0
  128.9130  133.6640   58.6890 O   0  0  0  0  0  0  0  0  0  0  0  0
  130.5370  132.0620   58.5940 N   0  0  0  0  0  0  0  0  0  0  0  0
  131.4990  132.4380   57.5450 C   0  0  0  0  0  0  0  0  0  0  0  0
  132.6420  131.4350   57.6410 C   0  0  0  0  0  0  0  0  0  0  0  0
  132.6490  131.0820   59.1140 C   0  0  0  0  0  0  0  0  0  0  0  0
  131.1570  131.0350   59.4650 C   0  0  1  0  0  0  0  0  0  0  0  0
  130.8650  130.9940   60.9860 C   0  0  0  0  0  0  0  0  0  0  0  0
  131.2250  131.9660   61.6450 O   0  0  0  0  0  0  0  0  0  0  0  0
  130.2670  129.9500   61.5920 N   0  0  0  0  0  0  0  0  0  0  0  0
  129.6510  128.7350   61.0490 C   0  0  2  0  0  0  0  0  0  0  0  0
  128.8580  127.9340   62.1480 C   0  0  0  0  0  0  0  0  0  0  0  0
  127.6540  127.1690   61.5670 C   0  0  0  0  0  0  0  0  0  0  0  0
  128.3920  128.7470   63.3820 C   0  0  0  0  0  0  0  0  0  0  0  0
  130.8010  127.9130   60.4010 C   0  0  0  0  0  0  0  0  0  0  0  0
  130.5260  123.7730   61.7330 C   0  0  0  0  0  0  0  0  0  0  0  0
  128.9980  123.8600   61.8810 C   0  0  0  0  0  0  0  0  0  0  0  0
  128.6280  124.0190   63.3580 N   0  0  0  0  0  0  0  0  0  0  0  0
  129.1530  125.3540   63.8910 C   0  0  0  0  0  0  0  0  0  0  0  0
  130.6920  125.4000   63.8100 C   0  0  0  0  0  0  0  0  0  0  0  0
  132.5466  123.6421   65.1287 H   0  0  0  0  0  0  0  0  0  0  0  0
  131.5502  122.6133   64.0446 H   0  0  0  0  0  0  0  0  0  0  0  0
  133.3390  122.4491   64.0446 H   0  0  0  0  0  0  0  0  0  0  0  0
  129.8450  124.6813   60.1372 H   0  0  0  0  0  0  0  0  0  0  0  0
  129.2369  126.2316   59.3583 H   0  0  0  0  0  0  0  0  0  0  0  0
  131.3310  125.9740   56.5080 H   0  0  0  0  0  0  0  0  0  0  0  0
  130.3325  128.1988   57.5749 H   0  0  0  0  0  0  0  0  0  0  0  0
  129.5634  127.3820   56.1456 H   0  0  0  0  0  0  0  0  0  0  0  0
  128.2722  125.9984   57.9249 H   0  0  0  0  0  0  0  0  0  0  0  0
  128.7729  127.3732   59.0438 H   0  0  0  0  0  0  0  0  0  0  0  0
  127.4149  128.0868   56.4885 H   0  0  0  0  0  0  0  0  0  0  0  0
  126.4335  127.3282   57.8412 H   0  0  0  0  0  0  0  0  0  0  0  0
  125.2914  128.7908   59.1724 H   0  0  0  0  0  0  0  0  0  0  0  0
  125.1346  130.9635   60.3774 H   0  0  0  0  0  0  0  0  0  0  0  0
  129.0827  129.9975   57.4995 H   0  0  0  0  0  0  0  0  0  0  0  0
  131.0245  132.3825   56.5542 H   0  0  0  0  0  0  0  0  0  0  0  0
  131.8570  133.4694   57.6789 H   0  0  0  0  0  0  0  0  0  0  0  0
  132.4450  130.5480   57.0210 H   0  0  0  0  0  0  0  0  0  0  0  0
  133.6031  131.8312   57.2815 H   0  0  0  0  0  0  0  0  0  0  0  0
  133.1261  130.1056   59.2842 H   0  0  0  0  0  0  0  0  0  0  0  0
  133.2163  131.7968   59.7282 H   0  0  0  0  0  0  0  0  0  0  0  0
  130.6562  130.0821   59.2390 H   0  0  0  0  0  0  0  0  0  0  0  0
  130.1790  130.0300   62.5950 H   0  0  0  0  0  0  0  0  0  0  0  0
  128.8899  128.9774   60.2927 H   0  0  0  0  0  0  0  0  0  0  0  0
  129.6184  127.2286   62.5145 H   0  0  0  0  0  0  0  0  0  0  0  0
  127.0372  126.7771   62.3892 H   0  0  0  0  0  0  0  0  0  0  0  0
  127.0508  127.8499   60.9484 H   0  0  0  0  0  0  0  0  0  0  0  0
  128.0141  126.3337   60.9484 H   0  0  0  0  0  0  0  0  0  0  0  0
  128.6925  128.2228   64.3012 H   0  0  0  0  0  0  0  0  0  0  0  0
  128.8556  129.7443   63.3604 H   0  0  0  0  0  0  0  0  0  0  0  0
  127.2971  128.8510   63.3604 H   0  0  0  0  0  0  0  0  0  0  0  0
  130.7296  128.0470   59.3115 H   0  0  0  0  0  0  0  0  0  0  0  0
  131.7208  128.3031   60.8612 H   0  0  0  0  0  0  0  0  0  0  0  0
  130.7576  123.9260   60.6686 H   0  0  0  0  0  0  0  0  0  0  0  0
  130.7794  122.7869   62.1494 H   0  0  0  0  0  0  0  0  0  0  0  0
  128.6252  124.7269   61.3158 H   0  0  0  0  0  0  0  0  0  0  0  0
  128.5423  122.9385   61.4897 H   0  0  0  0  0  0  0  0  0  0  0  0
  127.6220  123.9930   63.4550 H   0  0  0  0  0  0  0  0  0  0  0  0
  129.0050  123.2520   63.8980 H   0  0  0  0  0  0  0  0  0  0  0  0
  128.7341  126.1740   63.2892 H   0  0  0  0  0  0  0  0  0  0  0  0
  128.8487  125.4617   64.9426 H   0  0  0  0  0  0  0  0  0  0  0  0
  130.9836  126.4595   63.8584 H   0  0  0  0  0  0  0  0  0  0  0  0
  131.0142  124.7563   64.6418 H   0  0  0  0  0  0  0  0  0  0  0  0
  1  2  1  0
  2  3  1  0
  3  4  1  0
  4  5  2  0
  4  6  1  0
  6  7  1  0
  7  8  1  0
  8  9  2  0
  8 10  1  0
 10 11  1  0
 11 12  1  0
 12 13  1  0
 13 14  1  0
 14 15  1  0
 15 16  2  0
 16 17  1  0
 17 18  1  0
 17 19  2  0
 19 20  1  0
 19 21  1  0
 21 22  2  0
 21 23  1  0
 23 24  1  0
 24 25  1  0
 25 26  1  0
 26 27  1  0
 27 28  1  0
 28 29  2  0
 28 30  1  0
 30 31  1  0
 31 32  1  0
 32 33  1  0
 32 34  1  0
 31 35  1  0
  3 36  1  0
 36 37  1  0
 37 38  1  0
 38 39  1  0
 39 40  1  0
 40  3  1  0
 35  6  1  0
 20 14  2  0
 27 23  1  0
  1 41  1  0
  1 42  1  0
  1 43  1  0
  7 44  1  0
  7 45  1  0
 10 46  1  0
 11 47  1  0
 11 48  1  0
 12 49  1  0
 12 50  1  0
 13 51  1  0
 13 52  1  0
 15 53  1  0
 16 54  1  0
 20 55  1  0
 24 56  1  0
 24 57  1  0
 25 58  1  0
 25 59  1  0
 26 60  1  0
 26 61  1  0
 27 62  1  6
 30 63  1  0
 31 64  1  6
 32 65  1  0
 33 66  1  0
 33 67  1  0
 33 68  1  0
 34 69  1  0
 34 70  1  0
 34 71  1  0
 35 72  1  0
 35 73  1  0
 36 74  1  0
 36 75  1  0
 37 76  1  0
 37 77  1  0
 38 78  1  0
 38 79  1  0
 39 80  1  0
 39 81  1  0
 40 82  1  0
 40 83  1  0
M  CHG  1  38   1
M  END
>  <Binding energies>  (1) 
[-3.71]

>  <Ligand effiencies>  (1) 
[-0.08065217391304348]

>  <Interactions>  (1) 
["V-A:GLY:454:CA:4049, H-A:ALA:541:N:4891, H-A:TYR:531:OH:4795, V-B:TYR:539:CE2:9848, V-B:GLU:543:CG:9879, V-A:ASP:366:CG:3213, V-A:LEU:363:CD1:3189, V-A:TYR:539:CD1:4873, V-B:TYR:539:CZ:9849, H-B:GLU:543:OE1:9881, H-B:TYR:539:OH:9850, V-A:TYR:484:CZ:4347, V-A:GLU:543:CD:4908, V-B:GLU:543:CD:9880, V-A:TYR:539:C:4867, V-A:LEU:475:CD2:4259, H-A:ARG:545:NH2:4928, H-A:GLU:543:OE1:4909, V-A:PRO:540:N:4884, H-A:TYR:539:N:4870, H-B:GLU:543:OE2:9882, V-A:PRO:540:CB:4885, V-A:PRO:540:CA:4883, V-A:PRO:540:CD:4887, V-A:TYR:539:CE1:4875"]

$$$$
ZINC2384428498
     RDKit          3D

 85 90  0  0  0  0  0  0  0  0999 V2000
  133.9160  121.6380   62.7390 C   0  0  0  0  0  0  0  0  0  0  0  0
  133.3480  122.7970   61.9030 C   0  0  0  0  0  0  0  0  0  0  0  0
  134.1280  124.1200   62.0340 C   0  0  0  0  0  0  0  0  0  0  0  0
  133.4020  125.1460   62.8070 N   0  0  0  0  0  0  0  0  0  0  0  0
  132.4620  126.0020   62.0400 C   0  0  0  0  0  0  0  0  0  0  0  0
  131.8910  125.3090   60.7870 C   0  0  0  0  0  0  0  0  0  0  0  0
  132.6450  124.7170   60.0170 O   0  0  0  0  0  0  0  0  0  0  0  0
  130.5590  125.2750   60.5940 N   0  0  0  0  0  0  0  0  0  0  0  0
  129.5120  125.8020   61.4720 C   0  0  1  0  0  0  0  0  0  0  0  0
  129.8910  127.1840   62.0100 C   0  0  0  0  0  0  0  0  0  0  0  0
  128.6000  127.8280   62.2840 N   0  0  0  0  0  0  0  0  0  0  0  0
  128.5270  129.0240   62.9300 C   0  0  0  0  0  0  0  0  0  0  0  0
  127.8030  129.1960   63.9110 O   0  0  0  0  0  0  0  0  0  0  0  0
  129.3000  130.1440   62.4220 C   0  0  0  0  0  0  0  0  0  0  0  0
  129.8670  130.0980   61.1890 O   0  0  0  0  0  0  0  0  0  0  0  0
  130.4010  131.3300   61.0230 C   0  0  0  0  0  0  0  0  0  0  0  0
  130.1870  132.1490   62.0210 N   0  0  0  0  0  0  0  0  0  0  0  0
  129.4810  131.4480   62.8950 C   0  0  0  0  0  0  0  0  0  0  0  0
  129.0210  132.1090   64.1780 C   0  0  0  0  0  0  0  0  0  0  0  0
  127.4990  127.1180   61.6180 C   0  0  0  0  0  0  0  0  0  0  0  0
  128.2180  126.1090   60.7130 C   0  0  2  0  0  0  0  0  0  0  0  0
  127.4560  124.9210   60.4840 O   0  0  0  0  0  0  0  0  0  0  0  0
  128.1460  123.8840   59.7830 C   0  0  0  0  0  0  0  0  0  0  0  0
  128.6920  122.8150   60.7260 C   0  0  0  0  0  0  0  0  0  0  0  0
  129.2090  121.6330   60.1870 C   0  0  0  0  0  0  0  0  0  0  0  0
  129.7280  120.6430   61.0220 C   0  0  0  0  0  0  0  0  0  0  0  0
  130.2220  119.5020   60.4900 F   0  0  0  0  0  0  0  0  0  0  0  0
  129.7420  120.8300   62.4040 C   0  0  0  0  0  0  0  0  0  0  0  0
  129.2400  122.0080   62.9600 C   0  0  0  0  0  0  0  0  0  0  0  0
  128.6950  122.9850   62.1150 C   0  0  0  0  0  0  0  0  0  0  0  0
  129.2830  122.1680   64.3270 O   0  0  0  0  0  0  0  0  0  0  0  0
  129.9930  123.2350   64.8240 C   0  0  0  0  0  0  0  0  0  0  0  0
  129.5340  123.9210   65.9490 C   0  0  0  0  0  0  0  0  0  0  0  0
  130.2650  124.9900   66.4880 C   0  0  0  0  0  0  0  0  0  0  0  0
  129.7400  125.7240   67.7010 C   0  0  0  0  0  0  0  0  0  0  0  0
  129.4410  125.1120   68.7280 O   0  0  0  0  0  0  0  0  0  0  0  0
  129.5990  127.0590   67.5770 N   0  0  0  0  0  0  0  0  0  0  0  0
  129.1100  127.9620   68.6180 C   0  0  0  0  0  0  0  0  0  0  0  0
  130.2160  128.3140   69.6370 C   0  0  0  0  0  0  0  0  0  0  0  0
  129.9120  127.7330   70.9390 N   0  0  0  0  0  0  0  0  0  0  0  0
  130.7980  127.3470   71.9140 C   0  0  0  0  0  0  0  0  0  0  0  0
  130.0270  126.8910   72.9670 C   0  0  0  0  0  0  0  0  0  0  0  0
  130.5630  126.2680   74.4750 Cl  0  0  0  0  0  0  0  0  0  0  0  0
  128.7090  127.0570   72.5230 C   0  0  0  0  0  0  0  0  0  0  0  0
  128.6350  127.5670   71.3140 N   0  0  0  0  0  0  0  0  0  0  0  0
  131.4890  125.3350   65.8900 C   0  0  0  0  0  0  0  0  0  0  0  0
  131.9750  124.6410   64.7740 C   0  0  0  0  0  0  0  0  0  0  0  0
  131.1870  123.6250   64.2190 C   0  0  0  0  0  0  0  0  0  0  0  0
  133.3100  125.0160   64.1650 C   0  0  0  0  0  0  0  0  0  0  0  0
  134.2560  125.2370   64.9260 O   0  0  0  0  0  0  0  0  0  0  0  0
  133.8033  121.8679   63.8088 H   0  0  0  0  0  0  0  0  0  0  0  0
  133.3690  120.7133   62.5031 H   0  0  0  0  0  0  0  0  0  0  0  0
  134.9820  121.5038   62.5031 H   0  0  0  0  0  0  0  0  0  0  0  0
  133.3581  122.4952   60.8453 H   0  0  0  0  0  0  0  0  0  0  0  0
  132.3347  122.9914   62.2844 H   0  0  0  0  0  0  0  0  0  0  0  0
  135.0843  123.9142   62.5371 H   0  0  0  0  0  0  0  0  0  0  0  0
  134.2738  124.5167   61.0184 H   0  0  0  0  0  0  0  0  0  0  0  0
  131.6251  126.2785   62.6981 H   0  0  0  0  0  0  0  0  0  0  0  0
  133.0273  126.8812   61.6972 H   0  0  0  0  0  0  0  0  0  0  0  0
  130.2270  124.7430   59.8020 H   0  0  0  0  0  0  0  0  0  0  0  0
  129.3899  125.0291   62.2451 H   0  0  0  0  0  0  0  0  0  0  0  0
  130.4861  127.0948   62.9308 H   0  0  0  0  0  0  0  0  0  0  0  0
  130.5074  127.7580   61.3025 H   0  0  0  0  0  0  0  0  0  0  0  0
  130.9671  131.6188   60.1252 H   0  0  0  0  0  0  0  0  0  0  0  0
  129.4114  131.5480   65.0399 H   0  0  0  0  0  0  0  0  0  0  0  0
  129.3960  133.1425   64.2129 H   0  0  0  0  0  0  0  0  0  0  0  0
  127.9216  132.1165   64.2129 H   0  0  0  0  0  0  0  0  0  0  0  0
  126.8621  126.6032   62.3524 H   0  0  0  0  0  0  0  0  0  0  0  0
  126.8299  127.7911   61.0619 H   0  0  0  0  0  0  0  0  0  0  0  0
  128.3884  126.5160   59.7054 H   0  0  0  0  0  0  0  0  0  0  0  0
  127.4493  123.4102   59.0759 H   0  0  0  0  0  0  0  0  0  0  0  0
  128.9992  124.3402   59.2595 H   0  0  0  0  0  0  0  0  0  0  0  0
  129.2065  121.4826   59.0973 H   0  0  0  0  0  0  0  0  0  0  0  0
  130.1503  120.0460   63.0587 H   0  0  0  0  0  0  0  0  0  0  0  0
  128.2635  123.8985   62.5502 H   0  0  0  0  0  0  0  0  0  0  0  0
  128.5865  123.6196   66.4194 H   0  0  0  0  0  0  0  0  0  0  0  0
  129.8360  127.4850   66.6920 H   0  0  0  0  0  0  0  0  0  0  0  0
  128.7523  128.8890   68.1461 H   0  0  0  0  0  0  0  0  0  0  0  0
  128.2969  127.4540   69.1573 H   0  0  0  0  0  0  0  0  0  0  0  0
  131.1778  127.9179   69.2791 H   0  0  0  0  0  0  0  0  0  0  0  0
  130.2718  129.4078   69.7390 H   0  0  0  0  0  0  0  0  0  0  0  0
  131.8961  127.3914   71.8670 H   0  0  0  0  0  0  0  0  0  0  0  0
  127.8275  126.7884   73.1237 H   0  0  0  0  0  0  0  0  0  0  0  0
  132.0771  126.1662   66.3062 H   0  0  0  0  0  0  0  0  0  0  0  0
  131.5143  123.1282   63.2938 H   0  0  0  0  0  0  0  0  0  0  0  0
  1  2  1  0
  2  3  1  0
  3  4  1  0
  4  5  1  0
  5  6  1  0
  6  7  2  0
  6  8  1  0
  8  9  1  0
  9 10  1  0
 10 11  1  0
 11 12  1  0
 12 13  2  0
 12 14  1  0
 14 15  1  0
 15 16  1  0
 16 17  2  0
 17 18  1  0
 18 19  1  0
 11 20  1  0
 20 21  1  0
 21 22  1  0
 22 23  1  0
 23 24  1  0
 24 25  1  0
 25 26  2  0
 26 27  1  0
 26 28  1  0
 28 29  2  0
 29 30  1  0
 29 31  1  0
 31 32  1  0
 32 33  1  0
 33 34  2  0
 34 35  1  0
 35 36  2  0
 35 37  1  0
 37 38  1  0
 38 39  1  0
 39 40  1  0
 40 41  1  0
 41 42  2  0
 42 43  1  0
 42 44  1  0
 44 45  2  0
 34 46  1  0
 46 47  2  0
 47 48  1  0
 47 49  1  0
 49 50  2  0
 49  4  1  0
 21  9  1  0
 30 24  2  0
 48 32  2  0
 18 14  2  0
 45 40  1  0
  1 51  1  0
  1 52  1  0
  1 53  1  0
  2 54  1  0
  2 55  1  0
  3 56  1  0
  3 57  1  0
  5 58  1  0
  5 59  1  0
  8 60  1  0
  9 61  1  1
 10 62  1  0
 10 63  1  0
 16 64  1  0
 19 65  1  0
 19 66  1  0
 19 67  1  0
 20 68  1  0
 20 69  1  0
 21 70  1  6
 23 71  1  0
 23 72  1  0
 25 73  1  0
 28 74  1  0
 30 75  1  0
 33 76  1  0
 37 77  1  0
 38 78  1  0
 38 79  1  0
 39 80  1  0
 39 81  1  0
 41 82  1  0
 44 83  1  0
 46 84  1  0
 48 85  1  0
M  END
>  <Binding energies>  (1) 
[-5.06]

>  <Ligand effiencies>  (1) 
[-0.09370370370370369]

>  <Interactions>  (1) 
["V-B:PRO:540:CA:9855, V-A:GLU:543:CA:4904, V-A:GLY:454:CA:4049, H-A:GLU:543:OE2:4910, V-A:GLU:543:C:4902, H-A:ALA:541:N:4891, V-B:GLU:543:CB:9878, V-B:ALA:541:CB:9864, H-A:ARG:545:NH1:4927, V-B:TYR:539:CE2:9848, V-A:TYR:484:CE2:4346, V-B:GLU:543:CG:9879, V-A:GLY:544:C:4912, V-B:TYR:539:C:9839, V-A:ASP:366:CG:3213, V-A:HIS:456:CD2:4068, V-A:ALA:541:CB:4892, V-B:TYR:539:CB:9843, V-A:TYR:484:CZ:4347, V-A:GLU:543:CD:4908, V-B:GLU:543:CA:9876, H-A:GLY:454:N:4050, V-A:SER:385:C:3405, V-B:HIS:456:CE1:9041, V-B:PRO:540:N:9856, V-A:HIS:456:CE1:4070, V-A:ILE:369:CD1:3239, V-B:TYR:539:CD2:9846, V-A:GLU:543:CG:4907, V-B:GLU:543:CD:9880, V-A:LEU:475:CD2:4259, H-A:ARG:545:NH2:4928, V-A:ARG:545:CZ:4926, H-A:GLU:543:OE1:4909, V-B:TYR:539:CG:9844, V-A:GLU:543:CB:4906, V-A:HIS:456:CG:4066, H-A:ARG:545:NE:4924, V-B:ALA:541:CA:9862, H-A:TYR:484:OH:4348"]

$$$$
ZINC2384430579
     RDKit          3D

 76 81  0  0  0  0  0  0  0  0999 V2000
  125.9070  129.7150   62.4840 C   0  0  0  0  0  0  0  0  0  0  0  0
  127.3060  129.4780   62.3760 O   0  0  0  0  0  0  0  0  0  0  0  0
  127.7910  128.1850   62.4750 C   0  0  0  0  0  0  0  0  0  0  0  0
  127.7410  127.2580   61.4220 C   0  0  0  0  0  0  0  0  0  0  0  0
  128.2310  125.9600   61.5640 C   0  0  0  0  0  0  0  0  0  0  0  0
  128.7860  125.5810   62.7940 C   0  0  0  0  0  0  0  0  0  0  0  0
  128.8460  126.4870   63.8500 C   0  0  0  0  0  0  0  0  0  0  0  0
  128.3550  127.7880   63.7000 C   0  0  0  0  0  0  0  0  0  0  0  0
  128.4230  128.7560   64.8840 C   0  0  0  0  0  0  0  0  0  0  0  0
  127.8990  128.2070   66.1350 N   0  0  0  0  0  0  0  0  0  0  0  0
  128.5270  127.4240   67.0320 C   0  0  0  0  0  0  0  0  0  0  0  0
  128.0120  127.2160   68.1300 O   0  0  0  0  0  0  0  0  0  0  0  0
  129.8610  126.7340   66.6880 C   0  0  0  0  0  0  0  0  0  0  0  0
  129.8410  125.1960   66.8500 C   0  0  0  0  0  0  0  0  0  0  0  0
  130.6910  124.4750   65.8100 C   0  0  0  0  0  0  0  0  0  0  0  0
  130.2080  123.3430   65.1540 C   0  0  0  0  0  0  0  0  0  0  0  0
  130.9980  122.6910   64.2100 C   0  0  0  0  0  0  0  0  0  0  0  0
  132.2860  123.1650   63.9070 C   0  0  0  0  0  0  0  0  0  0  0  0
  132.7770  124.3010   64.5640 C   0  0  0  0  0  0  0  0  0  0  0  0
  134.0610  124.7070   64.2450 O   0  0  0  0  0  0  0  0  0  0  0  0
  134.3680  125.0730   62.9040 C   0  0  0  0  0  0  0  0  0  0  0  0
  131.9690  124.9490   65.5130 C   0  0  0  0  0  0  0  0  0  0  0  0
  133.1370  122.5620   63.0010 O   0  0  0  0  0  0  0  0  0  0  0  0
  133.0290  122.8500   61.6120 C   0  0  0  0  0  0  0  0  0  0  0  0
  131.6890  122.2860   61.1210 C   0  0  0  0  0  0  0  0  0  0  0  0
  131.5860  121.0670   61.0000 O   0  0  0  0  0  0  0  0  0  0  0  0
  130.6180  123.0630   60.8530 N   0  0  0  0  0  0  0  0  0  0  0  0
  130.4550  124.4870   60.5110 C   0  0  1  0  0  0  0  0  0  0  0  0
  131.6600  124.9190   59.6660 C   0  0  0  0  0  0  0  0  0  0  0  0
  131.2020  126.0930   58.9180 N   0  0  0  0  0  0  0  0  0  0  0  0
  132.0630  126.8510   58.1870 C   0  0  0  0  0  0  0  0  0  0  0  0
  132.9900  126.3540   57.5420 O   0  0  0  0  0  0  0  0  0  0  0  0
  131.8770  128.2920   58.1560 C   0  0  0  0  0  0  0  0  0  0  0  0
  132.7610  129.2540   57.9410 N   0  0  0  0  0  0  0  0  0  0  0  0
  132.0250  130.4050   57.9520 C   0  0  0  0  0  0  0  0  0  0  0  0
  132.4020  131.7490   57.8050 C   0  0  0  0  0  0  0  0  0  0  0  0
  131.3970  132.7210   57.8590 C   0  0  0  0  0  0  0  0  0  0  0  0
  130.0530  132.3750   58.0500 C   0  0  0  0  0  0  0  0  0  0  0  0
  129.6560  131.0430   58.1950 C   0  0  0  0  0  0  0  0  0  0  0  0
  130.6740  130.0860   58.1430 C   0  0  0  0  0  0  0  0  0  0  0  0
  130.5810  128.7340   58.2520 O   0  0  0  0  0  0  0  0  0  0  0  0
  129.7420  126.2090   58.9570 C   0  0  0  0  0  0  0  0  0  0  0  0
  129.2770  124.9000   59.6150 C   0  0  2  0  0  0  0  0  0  0  0  0
  128.1420  125.1510   60.4480 O   0  0  0  0  0  0  0  0  0  0  0  0
  125.6241  129.7629   63.5459 H   0  0  0  0  0  0  0  0  0  0  0  0
  125.6577  130.6682   61.9948 H   0  0  0  0  0  0  0  0  0  0  0  0
  125.3577  128.8971   61.9948 H   0  0  0  0  0  0  0  0  0  0  0  0
  127.3040  127.5633   60.4598 H   0  0  0  0  0  0  0  0  0  0  0  0
  129.1767  124.5613   62.9261 H   0  0  0  0  0  0  0  0  0  0  0  0
  129.2834  126.1767   64.8104 H   0  0  0  0  0  0  0  0  0  0  0  0
  129.4753  129.0342   65.0428 H   0  0  0  0  0  0  0  0  0  0  0  0
  127.7901  129.6179   64.6260 H   0  0  0  0  0  0  0  0  0  0  0  0
  127.0150  128.5980   66.4250 H   0  0  0  0  0  0  0  0  0  0  0  0
  130.1102  126.9673   65.6423 H   0  0  0  0  0  0  0  0  0  0  0  0
  130.6070  127.1166   67.4001 H   0  0  0  0  0  0  0  0  0  0  0  0
  130.2231  124.9442   67.8503 H   0  0  0  0  0  0  0  0  0  0  0  0
  128.8013  124.8647   66.7114 H   0  0  0  0  0  0  0  0  0  0  0  0
  129.2009  122.9642   65.3826 H   0  0  0  0  0  0  0  0  0  0  0  0
  130.6107  121.7980   63.6976 H   0  0  0  0  0  0  0  0  0  0  0  0
  135.0749  125.9158   62.9066 H   0  0  0  0  0  0  0  0  0  0  0  0
  134.8213  124.2158   62.3846 H   0  0  0  0  0  0  0  0  0  0  0  0
  133.4450  125.3702   62.3846 H   0  0  0  0  0  0  0  0  0  0  0  0
  132.3494  125.8428   66.0292 H   0  0  0  0  0  0  0  0  0  0  0  0
  133.0589  123.9378   61.4516 H   0  0  0  0  0  0  0  0  0  0  0  0
  133.8640  122.3958   61.0585 H   0  0  0  0  0  0  0  0  0  0  0  0
  129.8100  122.5220   60.5820 H   0  0  0  0  0  0  0  0  0  0  0  0
  130.3127  124.9438   61.5015 H   0  0  0  0  0  0  0  0  0  0  0  0
  132.5107  125.1809   60.3124 H   0  0  0  0  0  0  0  0  0  0  0  0
  132.0048  124.1149   58.9993 H   0  0  0  0  0  0  0  0  0  0  0  0
  133.4546  132.0294   57.6521 H   0  0  0  0  0  0  0  0  0  0  0  0
  131.6685  133.7813   57.7489 H   0  0  0  0  0  0  0  0  0  0  0  0
  129.2932  133.1696   58.0867 H   0  0  0  0  0  0  0  0  0  0  0  0
  128.6023  130.7633   58.3417 H   0  0  0  0  0  0  0  0  0  0  0  0
  129.4356  127.0779   59.5579 H   0  0  0  0  0  0  0  0  0  0  0  0
  129.3044  126.3573   57.9588 H   0  0  0  0  0  0  0  0  0  0  0  0
  128.9998  124.1369   58.8728 H   0  0  0  0  0  0  0  0  0  0  0  0
  1  2  1  0
  2  3  1  0
  3  4  1  0
  4  5  2  0
  5  6  1  0
  6  7  2  0
  7  8  1  0
  8  9  1  0
  9 10  1  0
 10 11  1  0
 11 12  2  0
 11 13  1  0
 13 14  1  0
 14 15  1  0
 15 16  2  0
 16 17  1  0
 17 18  2  0
 18 19  1  0
 19 20  1  0
 20 21  1  0
 19 22  2  0
 18 23  1  0
 23 24  1  0
 24 25  1  0
 25 26  2  0
 25 27  1  0
 27 28  1  0
 28 29  1  0
 29 30  1  0
 30 31  1  0
 31 32  2  0
 31 33  1  0
 33 34  2  0
 34 35  1  0
 35 36  2  0
 36 37  1  0
 37 38  2  0
 38 39  1  0
 39 40  2  0
 40 41  1  0
 30 42  1  0
 42 43  1  0
 43 44  1  0
  8  3  2  0
 22 15  1  0
 43 28  1  0
 44  5  1  0
 41 33  1  0
 40 35  1  0
  1 45  1  0
  1 46  1  0
  1 47  1  0
  4 48  1  0
  6 49  1  0
  7 50  1  0
  9 51  1  0
  9 52  1  0
 10 53  1  0
 13 54  1  0
 13 55  1  0
 14 56  1  0
 14 57  1  0
 16 58  1  0
 17 59  1  0
 21 60  1  0
 21 61  1  0
 21 62  1  0
 22 63  1  0
 24 64  1  0
 24 65  1  0
 27 66  1  0
 28 67  1  1
 29 68  1  0
 29 69  1  0
 36 70  1  0
 37 71  1  0
 38 72  1  0
 39 73  1  0
 42 74  1  0
 42 75  1  0
 43 76  1  6
M  END
>  <Binding energies>  (1) 
[-3.55]

>  <Ligand effiencies>  (1) 
[-0.07395833333333333]

>  <Interactions>  (1) 
["V-A:PRO:540:CG:4886, V-A:GLY:454:CA:4049, V-B:GLU:543:CB:9878, H-A:ARG:545:NH1:4927, H-A:TYR:531:OH:4795, V-B:TYR:539:CE2:9848, V-A:TYR:484:CE2:4346, V-B:GLU:543:CG:9879, V-A:ASP:366:CG:3213, V-A:LEU:363:CD1:3189, H-B:TYR:539:OH:9850, V-A:GLU:543:CD:4908, V-A:TYR:484:CZ:4347, H-B:TYR:484:OH:9319, V-B:GLU:543:CA:9876, H-A:GLY:454:N:4050, V-A:GLY:453:C:4042, V-A:HIS:456:CE1:4070, V-A:GLU:543:CG:4907, V-A:TYR:531:CZ:4794, V-B:GLU:543:CD:9880, V-A:ASP:366:CB:3212, V-A:LEU:475:CD2:4259, H-A:ARG:545:NH2:4928, V-A:ARG:545:CZ:4926, V-A:PRO:540:N:4884, H-B:GLU:543:OE2:9882, V-A:GLY:453:CA:4044, V-A:PRO:540:CB:4885, V-A:PRO:540:CA:4883, H-A:ARG:545:NE:4924, V-A:PRO:540:CD:4887, H-A:TYR:484:OH:4348"]

$$$$
ZINC2384430935
     RDKit          3D

 79 84  0  0  0  0  0  0  0  0999 V2000
  127.3510  126.4520   58.5110 C   0  0  0  0  0  0  0  0  0  0  0  0
  128.1740  126.2480   59.6550 O   0  0  0  0  0  0  0  0  0  0  0  0
  128.4380  127.3100   60.5020 C   0  0  0  0  0  0  0  0  0  0  0  0
  128.6560  128.6270   60.0610 C   0  0  0  0  0  0  0  0  0  0  0  0
  128.9350  129.6540   60.9670 C   0  0  0  0  0  0  0  0  0  0  0  0
  128.9570  129.3690   62.3330 C   0  0  0  0  0  0  0  0  0  0  0  0
  128.7580  128.0670   62.7830 C   0  0  0  0  0  0  0  0  0  0  0  0
  128.5210  127.0290   61.8720 C   0  0  0  0  0  0  0  0  0  0  0  0
  128.3660  125.7140   62.2750 O   0  0  0  0  0  0  0  0  0  0  0  0
  127.6320  124.8030   61.4400 C   0  0  0  0  0  0  0  0  0  0  0  0
  127.4730  123.4100   62.0980 C   0  0  0  0  0  0  0  0  0  0  0  0
  126.3710  122.8680   62.1570 O   0  0  0  0  0  0  0  0  0  0  0  0
  128.5420  122.7930   62.6320 N   0  0  0  0  0  0  0  0  0  0  0  0
  129.9540  123.1700   62.5390 C   0  0  1  0  0  0  0  0  0  0  0  0
  130.7110  122.7050   63.8150 C   0  0  0  0  0  0  0  0  0  0  0  0
  132.1210  123.1380   63.7250 N   0  0  0  0  0  0  0  0  0  0  0  0
  132.4670  124.3650   64.2190 C   0  0  0  0  0  0  0  0  0  0  0  0
  133.5460  124.9060   63.9590 O   0  0  0  0  0  0  0  0  0  0  0  0
  131.5130  125.0920   65.0340 C   0  0  0  0  0  0  0  0  0  0  0  0
  131.4740  125.4270   66.3850 C   0  0  0  0  0  0  0  0  0  0  0  0
  130.2450  126.0710   66.6210 C   0  0  0  0  0  0  0  0  0  0  0  0
  129.7390  126.6490   67.9080 C   0  0  0  0  0  0  0  0  0  0  0  0
  130.5640  127.3460   68.8040 C   0  0  0  0  0  0  0  0  0  0  0  0
  130.0090  127.8490   69.9830 C   0  0  0  0  0  0  0  0  0  0  0  0
  128.6540  127.6500   70.2450 C   0  0  0  0  0  0  0  0  0  0  0  0
  127.8930  126.9480   69.3100 C   0  0  0  0  0  0  0  0  0  0  0  0
  128.4140  126.4520   68.1590 N   0  0  0  0  0  0  0  0  0  0  0  0
  129.5260  126.0980   65.5180 N   0  0  0  0  0  0  0  0  0  0  0  0
  130.2750  125.4880   64.5940 N   0  0  0  0  0  0  0  0  0  0  0  0
  132.8320  122.4740   62.6150 C   0  0  0  0  0  0  0  0  0  0  0  0
  132.1860  122.9730   61.3040 C   0  0  0  0  0  0  0  0  0  0  0  0
  130.6770  122.6470   61.2640 C   0  0  2  0  0  0  0  0  0  0  0  0
  130.1600  123.2290   60.0630 O   0  0  0  0  0  0  0  0  0  0  0  0
  130.5600  124.4900   59.6680 C   0  0  0  0  0  0  0  0  0  0  0  0
  130.5580  124.9370   58.3390 C   0  0  0  0  0  0  0  0  0  0  0  0
  130.9450  126.2400   58.0370 C   0  0  0  0  0  0  0  0  0  0  0  0
  131.3510  127.1070   59.0550 C   0  0  0  0  0  0  0  0  0  0  0  0
  131.3490  126.6630   60.3810 C   0  0  0  0  0  0  0  0  0  0  0  0
  130.9450  125.3660   60.6830 C   0  0  0  0  0  0  0  0  0  0  0  0
  131.7720  128.5370   58.7130 C   0  0  0  0  0  0  0  0  0  0  0  0
  130.8130  129.2850   57.8960 N   0  0  0  0  0  0  0  0  0  0  0  0
  130.2710  130.4920   58.1430 C   0  0  0  0  0  0  0  0  0  0  0  0
  129.5930  131.0450   57.2800 O   0  0  0  0  0  0  0  0  0  0  0  0
  130.4460  131.1670   59.5210 C   0  0  0  0  0  0  0  0  0  0  0  0
  129.2170  131.0670   60.4610 C   0  0  0  0  0  0  0  0  0  0  0  0
  126.3304  126.7050   58.8340 H   0  0  0  0  0  0  0  0  0  0  0  0
  127.7595  127.2761   57.9077 H   0  0  0  0  0  0  0  0  0  0  0  0
  127.3273  125.5325   57.9077 H   0  0  0  0  0  0  0  0  0  0  0  0
  128.6062  128.8528   58.9856 H   0  0  0  0  0  0  0  0  0  0  0  0
  129.1325  130.1776   63.0578 H   0  0  0  0  0  0  0  0  0  0  0  0
  128.7870  127.8514   63.8613 H   0  0  0  0  0  0  0  0  0  0  0  0
  126.6328  125.2220   61.2504 H   0  0  0  0  0  0  0  0  0  0  0  0
  128.1943  124.6734   60.5035 H   0  0  0  0  0  0  0  0  0  0  0  0
  128.3760  121.8690   63.0020 H   0  0  0  0  0  0  0  0  0  0  0  0
  129.9697  124.2670   62.4592 H   0  0  0  0  0  0  0  0  0  0  0  0
  130.2440  123.1533   64.7043 H   0  0  0  0  0  0  0  0  0  0  0  0
  130.6641  121.6089   63.8951 H   0  0  0  0  0  0  0  0  0  0  0  0
  132.2582  125.2257   67.1296 H   0  0  0  0  0  0  0  0  0  0  0  0
  131.6310  127.4939   68.5814 H   0  0  0  0  0  0  0  0  0  0  0  0
  130.6367  128.3984   70.7000 H   0  0  0  0  0  0  0  0  0  0  0  0
  128.1960  128.0373   71.1671 H   0  0  0  0  0  0  0  0  0  0  0  0
  126.8239  126.7895   69.5145 H   0  0  0  0  0  0  0  0  0  0  0  0
  129.9450  125.3560   63.6480 H   0  0  0  0  0  0  0  0  0  0  0  0
  133.8989  122.7409   62.6361 H   0  0  0  0  0  0  0  0  0  0  0  0
  132.7567  121.3798   62.6987 H   0  0  0  0  0  0  0  0  0  0  0  0
  132.3196  124.0624   61.2305 H   0  0  0  0  0  0  0  0  0  0  0  0
  132.6743  122.4638   60.4600 H   0  0  0  0  0  0  0  0  0  0  0  0
  130.5047  121.5606   61.2571 H   0  0  0  0  0  0  0  0  0  0  0  0
  130.2496  124.2559   57.5321 H   0  0  0  0  0  0  0  0  0  0  0  0
  130.9311  126.5881   56.9936 H   0  0  0  0  0  0  0  0  0  0  0  0
  131.6674  127.3404   61.1871 H   0  0  0  0  0  0  0  0  0  0  0  0
  130.9291  125.0290   61.7300 H   0  0  0  0  0  0  0  0  0  0  0  0
  131.9178  129.0847   59.6557 H   0  0  0  0  0  0  0  0  0  0  0  0
  132.6890  128.4525   58.1114 H   0  0  0  0  0  0  0  0  0  0  0  0
  130.6390  128.8930   56.9830 H   0  0  0  0  0  0  0  0  0  0  0  0
  131.3012  130.6944   60.0262 H   0  0  0  0  0  0  0  0  0  0  0  0
  130.5938  132.2386   59.3216 H   0  0  0  0  0  0  0  0  0  0  0  0
  129.3930  131.7171   61.3307 H   0  0  0  0  0  0  0  0  0  0  0  0
  128.3403  131.3750   59.8723 H   0  0  0  0  0  0  0  0  0  0  0  0
  1  2  1  0
  2  3  1  0
  3  4  2  0
  4  5  1  0
  5  6  2  0
  6  7  1  0
  7  8  2  0
  8  9  1  0
  9 10  1  0
 10 11  1  0
 11 12  2  0
 11 13  1  0
 13 14  1  0
 14 15  1  0
 15 16  1  0
 16 17  1  0
 17 18  2  0
 17 19  1  0
 19 20  2  0
 20 21  1  0
 21 22  1  0
 22 23  2  0
 23 24  1  0
 24 25  2  0
 25 26  1  0
 26 27  2  0
 21 28  2  0
 28 29  1  0
 16 30  1  0
 30 31  1  0
 31 32  1  0
 32 33  1  0
 33 34  1  0
 34 35  2  0
 35 36  1  0
 36 37  2  0
 37 38  1  0
 38 39  2  0
 37 40  1  0
 40 41  1  0
 41 42  1  0
 42 43  2  0
 42 44  1  0
 44 45  1  0
  8  3  1  0
 32 14  1  0
 39 34  1  0
 45  5  1  0
 29 19  1  0
 27 22  1  0
  1 46  1  0
  1 47  1  0
  1 48  1  0
  4 49  1  0
  6 50  1  0
  7 51  1  0
 10 52  1  0
 10 53  1  0
 13 54  1  0
 14 55  1  6
 15 56  1  0
 15 57  1  0
 20 58  1  0
 23 59  1  0
 24 60  1  0
 25 61  1  0
 26 62  1  0
 29 63  1  0
 30 64  1  0
 30 65  1  0
 31 66  1  0
 31 67  1  0
 32 68  1  6
 35 69  1  0
 36 70  1  0
 38 71  1  0
 39 72  1  0
 40 73  1  0
 40 74  1  0
 41 75  1  0
 44 76  1  0
 44 77  1  0
 45 78  1  0
 45 79  1  0
M  END
>  <Binding energies>  (1) 
[-5.07]

>  <Ligand effiencies>  (1) 
[-0.1014]

>  <Interactions>  (1) 
["V-B:GLU:543:C:9874, V-A:GLU:543:C:4902, V-B:GLU:543:CB:9878, V-B:ALA:541:CB:9864, H-A:TYR:531:OH:4795, V-B:TYR:539:CE2:9848, V-B:GLU:543:CG:9879, V-A:ASP:366:CG:3213, V-B:TYR:539:CZ:9849, H-B:ALA:541:N:9863, V-A:GLU:543:CD:4908, V-A:TYR:484:CZ:4347, V-B:HIS:456:CE1:9041, H-A:GLY:454:N:4050, V-A:HIS:456:CE1:4070, V-B:GLU:543:CD:9880, V-A:ASP:366:CB:3212, V-A:LEU:475:CD2:4259, H-A:ARG:545:NH2:4928, V-A:GLU:543:CB:4906, H-A:ARG:545:NE:4924"]

$$$$
ZINC2384435865
     RDKit          3D

 39 42  0  0  0  0  0  0  0  0999 V2000
  130.2750  125.4520   61.4000 C   0  0  0  0  0  0  0  0  0  0  0  0
  131.4420  124.4340   61.3990 C   0  0  2  0  0  0  0  0  0  0  0  0
  130.9720  122.9720   61.4700 C   0  0  0  0  0  0  0  0  0  0  0  0
  129.8480  122.6570   62.2370 C   0  0  0  0  0  0  0  0  0  0  0  0
  129.3730  121.3510   62.3240 C   0  0  0  0  0  0  0  0  0  0  0  0
  130.0260  120.3060   61.6290 C   0  0  0  0  0  0  0  0  0  0  0  0
  129.5670  118.9670   61.6880 C   0  0  0  0  0  0  0  0  0  0  0  0
  130.2330  117.9630   60.9900 C   0  0  0  0  0  0  0  0  0  0  0  0
  131.3560  118.2610   60.2240 C   0  0  0  0  0  0  0  0  0  0  0  0
  131.8330  119.5660   60.1460 C   0  0  0  0  0  0  0  0  0  0  0  0
  131.1790  120.6120   60.8440 C   0  0  0  0  0  0  0  0  0  0  0  0
  131.6370  121.9500   60.7820 C   0  0  0  0  0  0  0  0  0  0  0  0
  132.6620  124.7070   62.3570 C   0  0  2  0  0  0  0  0  0  0  0  0
  134.0540  124.1210   62.0740 C   0  0  2  0  0  0  0  0  0  0  0  0
  134.7360  124.3690   60.7210 C   0  0  0  0  0  0  0  0  0  0  0  0
  133.8380  122.7410   62.3460 O   0  0  0  0  0  0  0  0  0  0  0  0
  132.8930  122.7310   63.4910 O   0  0  0  0  0  0  0  0  0  0  0  0
  132.6510  124.1060   63.7680 C   0  0  2  0  0  0  0  0  0  0  0  0
  131.4270  124.3370   64.6650 C   0  0  0  0  0  0  0  0  0  0  0  0
  133.8210  124.7370   64.2830 O   0  0  0  0  0  0  0  0  0  0  0  0
  134.7690  124.7470   63.1380 O   0  0  0  0  0  0  0  0  0  0  0  0
  129.9992  125.6926   62.4373 H   0  0  0  0  0  0  0  0  0  0  0  0
  130.5888  126.3701   60.8817 H   0  0  0  0  0  0  0  0  0  0  0  0
  129.4080  125.0164   60.8817 H   0  0  0  0  0  0  0  0  0  0  0  0
  131.8744  124.6167   60.4042 H   0  0  0  0  0  0  0  0  0  0  0  0
  129.3273  123.4571   62.7836 H   0  0  0  0  0  0  0  0  0  0  0  0
  128.4859  121.1308   62.9360 H   0  0  0  0  0  0  0  0  0  0  0  0
  128.6794  118.7191   62.2886 H   0  0  0  0  0  0  0  0  0  0  0  0
  129.8687  116.9265   61.0445 H   0  0  0  0  0  0  0  0  0  0  0  0
  131.8709  117.4584   59.6756 H   0  0  0  0  0  0  0  0  0  0  0  0
  132.7232  119.7871   59.5388 H   0  0  0  0  0  0  0  0  0  0  0  0
  132.5287  122.1903   60.1844 H   0  0  0  0  0  0  0  0  0  0  0  0
  132.5202  125.7881   62.2113 H   0  0  0  0  0  0  0  0  0  0  0  0
  135.7578  124.7406   60.8881 H   0  0  0  0  0  0  0  0  0  0  0  0
  134.7764  123.4280   60.1528 H   0  0  0  0  0  0  0  0  0  0  0  0
  134.1625  125.1161   60.1528 H   0  0  0  0  0  0  0  0  0  0  0  0
  131.7302  124.2798   65.7209 H   0  0  0  0  0  0  0  0  0  0  0  0
  131.0034  125.3309   64.4585 H   0  0  0  0  0  0  0  0  0  0  0  0
  130.6703  123.5658   64.4585 H   0  0  0  0  0  0  0  0  0  0  0  0
  1  2  1  0
  2  3  1  0
  3  4  2  0
  4  5  1  0
  5  6  2  0
  6  7  1  0
  7  8  2  0
  8  9  1  0
  9 10  2  0
 10 11  1  0
 11 12  2  0
  2 13  1  0
 13 14  1  0
 14 15  1  1
 14 16  1  0
 16 17  1  0
 17 18  1  0
 18 19  1  6
 18 20  1  0
 20 21  1  0
 12  3  1  0
 18 13  1  0
 11  6  1  0
 21 14  1  0
  1 22  1  0
  1 23  1  0
  1 24  1  0
  2 25  1  6
  4 26  1  0
  5 27  1  0
  7 28  1  0
  8 29  1  0
  9 30  1  0
 10 31  1  0
 12 32  1  0
 13 33  1  6
 15 34  1  0
 15 35  1  0
 15 36  1  0
 19 37  1  0
 19 38  1  0
 19 39  1  0
M  END
>  <Binding energies>  (1) 
[-7.1]

>  <Ligand effiencies>  (1) 
[-0.33809523809523806]

>  <Interactions>  (1) 
["V-A:ILE:369:CG2:3237, V-A:ASP:366:CA:3210, V-A:ILE:369:CB:3236, V-B:ALA:541:CB:9864, H-A:ARG:545:NH1:4927, V-B:TYR:539:CE2:9848, V-B:TYR:539:C:9839, V-A:ASP:366:CG:3213, V-A:LEU:475:CD1:4258, V-B:TYR:539:CB:9843, H-A:GLY:454:N:4050, V-A:ILE:369:CD1:3239, V-A:PRO:482:CB:4326, V-B:TYR:539:CD2:9846, V-A:ILE:369:CG1:3238, V-A:ASP:366:CB:3212, V-A:LEU:475:CD2:4259, H-A:ARG:545:NH2:4928, H-A:ARG:545:NE:4924, V-B:PRO:540:C:9853, V-B:ALA:541:CA:9862, V-A:HIS:383:NE2:3394, H-A:TYR:484:OH:4348"]

$$$$
ZINC2384437726
     RDKit          3D

 79 81  0  0  0  0  0  0  0  0999 V2000
  129.2290  128.7960   69.2610 C   0  0  0  0  0  0  0  0  0  0  0  0
  128.9890  128.4710   67.7780 C   0  0  1  0  0  0  0  0  0  0  0  0
  128.3830  127.0570   67.5880 C   0  0  0  0  0  0  0  0  0  0  0  0
  129.1680  125.8930   68.2440 C   0  0  0  0  0  0  0  0  0  0  0  0
  129.8590  124.9280   67.2570 C   0  0  0  0  0  0  0  0  0  0  0  0
  129.9950  125.4370   65.8290 C   0  0  0  0  0  0  0  0  0  0  0  0
  129.9640  124.6650   64.7260 C   0  0  0  0  0  0  0  0  0  0  0  0
  130.0440  125.1780   63.2910 C   0  0  2  0  0  0  0  0  0  0  0  0
  131.3420  124.7360   62.6050 C   0  0  0  0  0  0  0  0  0  0  0  0
  131.5340  125.7240   61.4580 C   0  0  2  0  0  0  0  0  0  0  0  0
  132.8290  125.8020   60.9020 O   0  0  0  0  0  0  0  0  0  0  0  0
  130.8850  127.0390   61.9060 C   0  0  0  0  0  0  0  0  0  0  0  0
  130.0020  126.7250   63.1390 C   0  0  1  0  0  0  0  0  0  0  0  0
  128.5740  127.3240   63.0240 C   0  0  2  0  0  0  0  0  0  0  0  0
  128.3060  127.6010   61.6480 O   0  0  0  0  0  0  0  0  0  0  0  0
  127.9490  126.6290   60.7730 C   0  0  0  0  0  0  0  0  0  0  0  0
  128.6510  125.6820   60.4160 O   0  0  0  0  0  0  0  0  0  0  0  0
  126.5240  126.8090   60.2330 C   0  0  0  0  0  0  0  0  0  0  0  0
  126.2050  125.9830   58.9660 C   0  0  0  0  0  0  0  0  0  0  0  0
  125.7260  124.5430   59.2490 C   0  0  0  0  0  0  0  0  0  0  0  0
  126.8190  123.6580   59.8340 C   0  0  0  0  0  0  0  0  0  0  0  0
  127.7510  123.0510   58.9960 C   0  0  0  0  0  0  0  0  0  0  0  0
  128.7530  122.2470   59.5310 C   0  0  0  0  0  0  0  0  0  0  0  0
  128.8530  122.0280   60.9180 C   0  0  0  0  0  0  0  0  0  0  0  0
  129.8860  121.2140   61.4740 N   0  0  0  0  0  0  0  0  0  0  0  0
  131.2030  121.7610   61.8390 C   0  0  0  0  0  0  0  0  0  0  0  0
  132.2050  121.8800   60.6740 C   0  0  0  0  0  0  0  0  0  0  0  0
  133.8850  122.0980   61.2350 Cl  0  0  0  0  0  0  0  0  0  0  0  0
  129.7200  119.7610   61.6090 C   0  0  0  0  0  0  0  0  0  0  0  0
  130.7430  118.9370   60.8080 C   0  0  0  0  0  0  0  0  0  0  0  0
  130.2670  117.2210   60.7870 Cl  0  0  0  0  0  0  0  0  0  0  0  0
  127.8960  122.6480   61.7430 C   0  0  0  0  0  0  0  0  0  0  0  0
  126.8900  123.4490   61.2090 C   0  0  0  0  0  0  0  0  0  0  0  0
  128.3990  128.5780   63.8640 C   0  0  0  0  0  0  0  0  0  0  0  0
  127.9860  128.5670   65.1430 C   0  0  0  0  0  0  0  0  0  0  0  0
  128.0220  129.7630   65.9600 C   0  0  0  0  0  0  0  0  0  0  0  0
  128.0590  130.9080   65.5020 O   0  0  0  0  0  0  0  0  0  0  0  0
  128.0820  129.4480   67.2720 O   0  0  0  0  0  0  0  0  0  0  0  0
  128.6918  128.0686   69.8874 H   0  0  0  0  0  0  0  0  0  0  0  0
  130.3060  128.7425   69.4785 H   0  0  0  0  0  0  0  0  0  0  0  0
  128.8610  129.8095   69.4785 H   0  0  0  0  0  0  0  0  0  0  0  0
  129.9488  128.4882   67.2409 H   0  0  0  0  0  0  0  0  0  0  0  0
  127.3696  127.0639   68.0157 H   0  0  0  0  0  0  0  0  0  0  0  0
  128.4105  126.8632   66.5056 H   0  0  0  0  0  0  0  0  0  0  0  0
  129.9423  126.3279   68.8931 H   0  0  0  0  0  0  0  0  0  0  0  0
  128.4248  125.2922   68.7886 H   0  0  0  0  0  0  0  0  0  0  0  0
  130.8688  124.7180   67.6394 H   0  0  0  0  0  0  0  0  0  0  0  0
  129.2123  124.0400   67.2005 H   0  0  0  0  0  0  0  0  0  0  0  0
  130.1290  126.5195   65.6869 H   0  0  0  0  0  0  0  0  0  0  0  0
  129.8739  123.5783   64.8709 H   0  0  0  0  0  0  0  0  0  0  0  0
  129.1454  124.7441   62.8281 H   0  0  0  0  0  0  0  0  0  0  0  0
  132.1878  124.7877   63.3064 H   0  0  0  0  0  0  0  0  0  0  0  0
  131.2910  123.6954   62.2520 H   0  0  0  0  0  0  0  0  0  0  0  0
  131.0228  125.3557   60.5563 H   0  0  0  0  0  0  0  0  0  0  0  0
  133.3800  126.3290   61.4860 H   0  0  0  0  0  0  0  0  0  0  0  0
  131.6625  127.7686   62.1767 H   0  0  0  0  0  0  0  0  0  0  0  0
  130.2792  127.4686   61.0945 H   0  0  0  0  0  0  0  0  0  0  0  0
  130.3832  127.2054   64.0522 H   0  0  0  0  0  0  0  0  0  0  0  0
  127.8566  126.5874   63.4148 H   0  0  0  0  0  0  0  0  0  0  0  0
  125.8181  126.5119   61.0226 H   0  0  0  0  0  0  0  0  0  0  0  0
  126.4315  127.8669   59.9460 H   0  0  0  0  0  0  0  0  0  0  0  0
  125.4156  126.5044   58.4048 H   0  0  0  0  0  0  0  0  0  0  0  0
  127.1454  125.8965   58.4019 H   0  0  0  0  0  0  0  0  0  0  0  0
  124.8896  124.5853   59.9622 H   0  0  0  0  0  0  0  0  0  0  0  0
  125.4233  124.1014   58.2881 H   0  0  0  0  0  0  0  0  0  0  0  0
  127.6950  123.2074   57.9086 H   0  0  0  0  0  0  0  0  0  0  0  0
  129.4814  121.7731   58.8566 H   0  0  0  0  0  0  0  0  0  0  0  0
  131.0502  122.7651   62.2614 H   0  0  0  0  0  0  0  0  0  0  0  0
  131.6443  121.0493   62.5523 H   0  0  0  0  0  0  0  0  0  0  0  0
  132.1518  120.9634   60.0683 H   0  0  0  0  0  0  0  0  0  0  0  0
  131.9309  122.7695   60.0878 H   0  0  0  0  0  0  0  0  0  0  0  0
  129.8212  119.4987   62.6725 H   0  0  0  0  0  0  0  0  0  0  0  0
  128.7270  119.5153   61.2046 H   0  0  0  0  0  0  0  0  0  0  0  0
  130.7862  119.3150   59.7759 H   0  0  0  0  0  0  0  0  0  0  0  0
  131.7307  119.0303   61.2830 H   0  0  0  0  0  0  0  0  0  0  0  0
  127.9437  122.4967   62.8315 H   0  0  0  0  0  0  0  0  0  0  0  0
  126.1500  123.9176   61.8745 H   0  0  0  0  0  0  0  0  0  0  0  0
  128.6229  129.5495   63.3992 H   0  0  0  0  0  0  0  0  0  0  0  0
  127.6123  127.6289   65.5793 H   0  0  0  0  0  0  0  0  0  0  0  0
  1  2  1  0
  2  3  1  0
  3  4  1  0
  4  5  1  0
  5  6  1  0
  6  7  2  0
  7  8  1  0
  8  9  1  0
  9 10  1  0
 10 11  1  0
 10 12  1  0
 12 13  1  0
 13 14  1  0
 14 15  1  0
 15 16  1  0
 16 17  2  0
 16 18  1  0
 18 19  1  0
 19 20  1  0
 20 21  1  0
 21 22  2  0
 22 23  1  0
 23 24  2  0
 24 25  1  0
 25 26  1  0
 26 27  1  0
 27 28  1  0
 25 29  1  0
 29 30  1  0
 30 31  1  0
 24 32  1  0
 32 33  2  0
 14 34  1  0
 34 35  2  0
 35 36  1  0
 36 37  2  0
 36 38  1  0
 38  2  1  0
 13  8  1  0
 33 21  1  0
  1 39  1  0
  1 40  1  0
  1 41  1  0
  2 42  1  6
  3 43  1  0
  3 44  1  0
  4 45  1  0
  4 46  1  0
  5 47  1  0
  5 48  1  0
  6 49  1  0
  7 50  1  0
  8 51  1  6
  9 52  1  0
  9 53  1  0
 10 54  1  6
 11 55  1  0
 12 56  1  0
 12 57  1  0
 13 58  1  1
 14 59  1  1
 18 60  1  0
 18 61  1  0
 19 62  1  0
 19 63  1  0
 20 64  1  0
 20 65  1  0
 22 66  1  0
 23 67  1  0
 26 68  1  0
 26 69  1  0
 27 70  1  0
 27 71  1  0
 29 72  1  0
 29 73  1  0
 30 74  1  0
 30 75  1  0
 32 76  1  0
 33 77  1  0
 34 78  1  0
 35 79  1  0
M  END
>  <Binding energies>  (1) 
[-4.85]

>  <Ligand effiencies>  (1) 
[-0.11829268292682926]

>  <Interactions>  (1) 
["V-A:ILE:369:CG2:3237, V-B:PRO:540:CA:9855, V-A:GLU:543:CA:4904, V-B:GLU:543:C:9874, V-A:GLU:543:C:4902, V-B:GLU:543:CB:9878, V-B:ASP:366:CG:8184, V-B:ALA:541:CB:9864, V-B:TYR:539:CE2:9848, V-A:TYR:484:CE2:4346, V-B:GLU:543:CG:9879, V-B:TYR:539:C:9839, V-A:HIS:383:CE1:3393, V-A:GLU:543:CD:4908, V-A:TYR:484:CZ:4347, V-B:PRO:540:CB:9857, H-B:TYR:484:OH:9319, V-B:HIS:456:CE1:9041, V-B:GLU:543:CA:9876, V-B:PRO:540:N:9856, V-B:TYR:484:CZ:9318, V-A:HIS:456:CE1:4070, V-A:ILE:369:CD1:3239, V-A:PRO:482:CB:4326, V-B:TYR:539:CD2:9846, V-A:GLU:543:CG:4907, V-B:GLU:543:CD:9880, V-A:LEU:475:CD2:4259, H-A:ARG:545:NH2:4928, V-B:TYR:539:CG:9844, V-A:GLU:543:CB:4906, H-A:ASP:366:OD1:3214, V-A:PRO:482:CG:4327, V-B:PRO:540:C:9853, H-A:ASP:366:OD2:3215, V-A:HIS:383:NE2:3394"]

$$$$
ZINC2384438384
     RDKit          3D

 99103  0  0  0  0  0  0  0  0999 V2000
  129.0070  127.0320   68.9070 C   0  0  0  0  0  0  0  0  0  0  0  0
  129.6640  126.7780   67.5400 C   0  0  0  0  0  0  0  0  0  0  0  0
  128.7610  127.0990   66.3320 C   0  0  0  0  0  0  0  0  0  0  0  0
  127.9970  128.4330   66.4490 C   0  0  0  0  0  0  0  0  0  0  0  0
  128.0340  129.2580   65.1490 C   0  0  0  0  0  0  0  0  0  0  0  0
  126.6970  129.2280   64.3860 C   0  0  0  0  0  0  0  0  0  0  0  0
  126.7540  128.3540   63.1170 C   0  0  0  0  0  0  0  0  0  0  0  0
  128.1160  128.3960   62.3780 C   0  0  2  0  0  0  0  0  0  0  0  0
  128.0350  128.6270   60.8500 C   0  0  0  0  0  0  0  0  0  0  0  0
  127.8180  127.3320   60.0700 C   0  0  0  0  0  0  0  0  0  0  0  0
  127.4020  127.3540   58.7370 C   0  0  0  0  0  0  0  0  0  0  0  0
  127.3170  126.1850   57.9820 C   0  0  0  0  0  0  0  0  0  0  0  0
  126.8880  126.2970   56.6810 O   0  0  0  0  0  0  0  0  0  0  0  0
  127.6850  124.9490   58.5480 C   0  0  0  0  0  0  0  0  0  0  0  0
  127.6490  123.6900   57.7380 C   0  0  0  0  0  0  0  0  0  0  0  0
  126.7520  123.5940   56.8700 O   0  0  0  0  0  0  0  0  0  0  0  0
  128.5120  122.8190   57.9920 O   0  0  0  0  0  0  0  0  0  0  0  0
  128.0910  124.9230   59.8950 C   0  0  0  0  0  0  0  0  0  0  0  0
  128.1030  126.0930   60.6670 C   0  0  0  0  0  0  0  0  0  0  0  0
  128.3930  126.0160   62.1600 C   0  0  2  0  0  0  0  0  0  0  0  0
  128.9400  127.2500   62.6250 O   0  0  0  0  0  0  0  0  0  0  0  0
  129.2840  124.7860   62.4750 C   0  0  1  0  0  0  0  0  0  0  0  0
  129.6550  124.6920   63.9910 C   0  0  1  0  0  0  0  0  0  0  0  0
  128.9820  123.6410   64.6860 O   0  0  0  0  0  0  0  0  0  0  0  0
  129.7550  122.4870   64.9950 C   0  0  0  0  0  0  0  0  0  0  0  0
  131.1470  124.5270   64.2400 C   0  0  0  0  0  0  0  0  0  0  0  0
  132.1060  124.3160   63.3090 C   0  0  0  0  0  0  0  0  0  0  0  0
  133.5730  124.0760   63.6700 C   0  0  0  0  0  0  0  0  0  0  0  0
  134.1030  125.0560   64.5600 O   0  0  0  0  0  0  0  0  0  0  0  0
  133.6770  125.1280   65.8350 C   0  0  0  0  0  0  0  0  0  0  0  0
  134.7660  124.7420   66.8270 C   0  0  0  0  0  0  0  0  0  0  0  0
  132.5530  125.4620   66.2130 O   0  0  0  0  0  0  0  0  0  0  0  0
  131.7770  124.2730   61.8110 C   0  0  1  0  0  0  0  0  0  0  0  0
  132.5770  125.0860   60.7750 C   0  0  0  0  0  0  0  0  0  0  0  0
  132.1930  124.0180   59.7340 C   0  0  0  0  0  0  0  0  0  0  0  0
  130.9010  124.3980   58.9540 C   0  0  0  0  0  0  0  0  0  0  0  0
  133.3220  123.7230   58.7180 C   0  0  0  0  0  0  0  0  0  0  0  0
  132.0550  123.0050   60.9400 C   0  0  1  0  0  0  0  0  0  0  0  0
  133.2420  122.2800   61.2340 O   0  0  0  0  0  0  0  0  0  0  0  0
  130.8430  122.0010   60.8850 C   0  0  1  0  0  0  0  0  0  0  0  0
  131.3590  120.7150   61.2650 O   0  0  0  0  0  0  0  0  0  0  0  0
  131.8570  119.8340   60.3610 C   0  0  0  0  0  0  0  0  0  0  0  0
  131.0050  118.5770   60.2510 C   0  0  0  0  0  0  0  0  0  0  0  0
  132.8810  119.9770   59.6910 O   0  0  0  0  0  0  0  0  0  0  0  0
  129.5790  122.2260   61.8010 C   0  0  0  0  0  0  0  0  0  0  0  0
  128.6460  123.4890   61.8170 C   0  0  1  0  0  0  0  0  0  0  0  0
  127.1580  123.2100   62.1880 C   0  0  0  0  0  0  0  0  0  0  0  0
  128.5850  123.7240   60.3930 O   0  0  0  0  0  0  0  0  0  0  0  0
  129.7102  126.7601   69.7080 H   0  0  0  0  0  0  0  0  0  0  0  0
  128.7443  128.0965   68.9954 H   0  0  0  0  0  0  0  0  0  0  0  0
  128.0965  126.4211   68.9954 H   0  0  0  0  0  0  0  0  0  0  0  0
  130.5670  127.4023   67.4705 H   0  0  0  0  0  0  0  0  0  0  0  0
  129.8837  125.7012   67.4915 H   0  0  0  0  0  0  0  0  0  0  0  0
  129.3916  127.1408   65.4317 H   0  0  0  0  0  0  0  0  0  0  0  0
  128.0022  126.3040   66.2853 H   0  0  0  0  0  0  0  0  0  0  0  0
  126.9477  128.2164   66.6980 H   0  0  0  0  0  0  0  0  0  0  0  0
  128.4880  129.0282   67.2330 H   0  0  0  0  0  0  0  0  0  0  0  0
  128.2713  130.3020   65.4017 H   0  0  0  0  0  0  0  0  0  0  0  0
  128.7987  128.8129   64.4955 H   0  0  0  0  0  0  0  0  0  0  0  0
  125.9199  128.8280   65.0539 H   0  0  0  0  0  0  0  0  0  0  0  0
  126.4723  130.2574   64.0699 H   0  0  0  0  0  0  0  0  0  0  0  0
  126.5501  127.3124   63.4059 H   0  0  0  0  0  0  0  0  0  0  0  0
  126.0038  128.7575   62.4210 H   0  0  0  0  0  0  0  0  0  0  0  0
  128.5839  129.2867   62.8227 H   0  0  0  0  0  0  0  0  0  0  0  0
  127.1974  129.3086   60.6408 H   0  0  0  0  0  0  0  0  0  0  0  0
  128.9961  129.0533   60.5265 H   0  0  0  0  0  0  0  0  0  0  0  0
  127.1355  128.3149   58.2725 H   0  0  0  0  0  0  0  0  0  0  0  0
  126.2310  125.6370   56.4470 H   0  0  0  0  0  0  0  0  0  0  0  0
  127.4538  125.8667   62.7129 H   0  0  0  0  0  0  0  0  0  0  0  0
  130.2718  124.8981   62.0042 H   0  0  0  0  0  0  0  0  0  0  0  0
  129.3184  125.6618   64.3861 H   0  0  0  0  0  0  0  0  0  0  0  0
  129.8289  122.3767   66.0870 H   0  0  0  0  0  0  0  0  0  0  0  0
  129.2707  121.5962   64.5685 H   0  0  0  0  0  0  0  0  0  0  0  0
  130.7631  122.5959   64.5685 H   0  0  0  0  0  0  0  0  0  0  0  0
  131.4810  124.5854   65.2864 H   0  0  0  0  0  0  0  0  0  0  0  0
  133.6579  123.0886   64.1474 H   0  0  0  0  0  0  0  0  0  0  0  0
  134.1521  124.1367   62.7367 H   0  0  0  0  0  0  0  0  0  0  0  0
  134.3914  124.8748   67.8527 H   0  0  0  0  0  0  0  0  0  0  0  0
  135.0465  123.6897   66.6724 H   0  0  0  0  0  0  0  0  0  0  0  0
  135.6467  125.3827   66.6724 H   0  0  0  0  0  0  0  0  0  0  0  0
  130.7538  124.5598   62.0952 H   0  0  0  0  0  0  0  0  0  0  0  0
  132.1756  126.0897   60.5712 H   0  0  0  0  0  0  0  0  0  0  0  0
  133.6249  125.3714   60.9496 H   0  0  0  0  0  0  0  0  0  0  0  0
  130.0979  124.6342   59.6677 H   0  0  0  0  0  0  0  0  0  0  0  0
  131.0994  125.2758   58.3215 H   0  0  0  0  0  0  0  0  0  0  0  0
  130.5925  123.5525   58.3215 H   0  0  0  0  0  0  0  0  0  0  0  0
  134.2484  123.4809   59.2594 H   0  0  0  0  0  0  0  0  0  0  0  0
  133.0331  122.8702   58.0861 H   0  0  0  0  0  0  0  0  0  0  0  0
  133.4872  124.6081   58.0861 H   0  0  0  0  0  0  0  0  0  0  0  0
  133.2700  121.5050   60.6700 H   0  0  0  0  0  0  0  0  0  0  0  0
  130.4624  122.1345   59.8616 H   0  0  0  0  0  0  0  0  0  0  0  0
  130.7578  118.2123   61.2589 H   0  0  0  0  0  0  0  0  0  0  0  0
  130.0774  118.8092   59.7073 H   0  0  0  0  0  0  0  0  0  0  0  0
  131.5643  117.8014   59.7073 H   0  0  0  0  0  0  0  0  0  0  0  0
  128.9111  121.3809   61.5779 H   0  0  0  0  0  0  0  0  0  0  0  0
  130.0804  122.3597   62.7709 H   0  0  0  0  0  0  0  0  0  0  0  0
  127.0506  123.1899   63.2826 H   0  0  0  0  0  0  0  0  0  0  0  0
  126.5211  124.0044   61.7716 H   0  0  0  0  0  0  0  0  0  0  0  0
  126.8522  122.2389   61.7716 H   0  0  0  0  0  0  0  0  0  0  0  0
  1  2  1  0
  2  3  1  0
  3  4  1  0
  4  5  1  0
  5  6  1  0
  6  7  1  0
  7  8  1  0
  8  9  1  0
  9 10  1  0
 10 11  2  0
 11 12  1  0
 12 13  1  0
 12 14  2  0
 14 15  1  0
 15 16  2  0
 15 17  1  0
 14 18  1  0
 18 19  2  0
 19 20  1  0
 20 21  1  0
 20 22  1  0
 22 23  1  0
 23 24  1  0
 24 25  1  0
 23 26  1  0
 26 27  2  0
 27 28  1  0
 28 29  1  0
 29 30  1  0
 30 31  1  0
 30 32  2  0
 27 33  1  0
 33 34  1  0
 34 35  1  0
 35 36  1  0
 35 37  1  0
 35 38  1  0
 38 39  1  1
 38 40  1  0
 40 41  1  0
 41 42  1  0
 42 43  1  0
 42 44  2  0
 40 45  1  0
 45 46  1  0
 46 47  1  1
 46 48  1  0
 21  8  1  0
 46 22  1  0
 19 10  1  0
 38 33  1  0
 48 18  1  0
  1 49  1  0
  1 50  1  0
  1 51  1  0
  2 52  1  0
  2 53  1  0
  3 54  1  0
  3 55  1  0
  4 56  1  0
  4 57  1  0
  5 58  1  0
  5 59  1  0
  6 60  1  0
  6 61  1  0
  7 62  1  0
  7 63  1  0
  8 64  1  1
  9 65  1  0
  9 66  1  0
 11 67  1  0
 13 68  1  0
 20 69  1  1
 22 70  1  6
 23 71  1  1
 25 72  1  0
 25 73  1  0
 25 74  1  0
 26 75  1  0
 28 76  1  0
 28 77  1  0
 31 78  1  0
 31 79  1  0
 31 80  1  0
 33 81  1  1
 34 82  1  0
 34 83  1  0
 36 84  1  0
 36 85  1  0
 36 86  1  0
 37 87  1  0
 37 88  1  0
 37 89  1  0
 39 90  1  0
 40 91  1  6
 43 92  1  0
 43 93  1  0
 43 94  1  0
 45 95  1  0
 45 96  1  0
 47 97  1  0
 47 98  1  0
 47 99  1  0
M  CHG  1  17  -1
M  END
>  <Binding energies>  (1) 
[-4.45]

>  <Ligand effiencies>  (1) 
[-0.08557692307692308]

>  <Interactions>  (1) 
["V-A:ILE:369:CG2:3237, H-B:MET:535:SD:9806, V-B:PRO:540:CA:9855, V-A:GLY:454:CA:4049, V-A:ILE:369:CB:3236, V-B:GLU:543:CB:9878, V-B:ALA:541:CB:9864, H-A:ARG:545:NH1:4927, V-A:TYR:484:CE2:4346, V-B:TYR:539:CE2:9848, V-B:GLU:543:CG:9879, V-A:ASP:366:CG:3213, V-B:TYR:539:CZ:9849, V-B:TYR:539:CB:9843, V-A:GLU:543:CD:4908, V-A:TYR:484:CZ:4347, V-A:ILE:455:C:4052, V-A:ARG:545:CG:4922, H-A:GLY:454:N:4050, V-A:GLY:453:C:4042, V-A:HIS:456:CE1:4070, V-B:TYR:539:CD2:9846, V-A:GLU:543:CG:4907, H-A:SER:385:OG:3410, V-B:GLU:543:CD:9880, H-B:TYR:531:OH:9767, V-A:ARG:545:CD:4923, V-A:LEU:475:CD2:4259, H-A:ARG:545:NH2:4928, V-A:ARG:545:CZ:4926, V-A:GLY:453:CA:4044, H-A:ARG:545:NE:4924, V-A:GLY:454:C:4047, V-A:HIS:383:NE2:3394, H-A:TYR:484:OH:4348"]

$$$$
ZINC2384440618
     RDKit          3D

 92 97  0  0  0  0  0  0  0  0999 V2000
  127.2250  124.7220   58.5960 C   0  0  0  0  0  0  0  0  0  0  0  0
  128.3040  123.7940   57.9960 C   0  0  0  0  0  0  0  0  0  0  0  0
  128.2740  123.9470   56.4540 C   0  0  0  0  0  0  0  0  0  0  0  0
  127.9640  122.3360   58.3890 C   0  0  0  0  0  0  0  0  0  0  0  0
  129.6000  124.2120   58.5500 N   0  0  0  0  0  0  0  0  0  0  0  0
  130.1800  123.8090   59.6970 C   0  0  0  0  0  0  0  0  0  0  0  0
  129.6860  123.0000   60.4850 O   0  0  0  0  0  0  0  0  0  0  0  0
  131.5670  124.4440   59.9930 C   0  0  1  0  0  0  0  0  0  0  0  0
  131.3610  125.7580   60.6940 C   0  0  0  0  0  0  0  0  0  0  0  0
  131.1010  125.9560   62.0580 C   0  0  0  0  0  0  0  0  0  0  0  0
  131.0700  124.9840   63.1340 C   0  0  0  0  0  0  0  0  0  0  0  0
  131.8190  125.0740   64.1080 O   0  0  0  0  0  0  0  0  0  0  0  0
  130.1710  123.9910   62.9800 N   0  0  0  0  0  0  0  0  0  0  0  0
  129.9490  122.8980   63.9270 C   0  0  0  0  0  0  0  0  0  0  0  0
  130.2050  123.3060   65.3930 C   0  0  0  0  0  0  0  0  0  0  0  0
  129.7500  124.6680   65.7230 C   0  0  0  0  0  0  0  0  0  0  0  0
  129.3660  125.7900   66.0130 C   0  0  0  0  0  0  0  0  0  0  0  0
  128.9140  127.1360   66.3430 C   0  0  0  0  0  0  0  0  0  0  0  0
  128.9430  127.5670   67.6750 C   0  0  0  0  0  0  0  0  0  0  0  0
  128.5160  128.8560   68.0090 C   0  0  0  0  0  0  0  0  0  0  0  0
  128.0570  129.7240   67.0170 C   0  0  0  0  0  0  0  0  0  0  0  0
  128.0320  129.2850   65.6920 C   0  0  0  0  0  0  0  0  0  0  0  0
  128.4530  128.0100   65.3520 C   0  0  0  0  0  0  0  0  0  0  0  0
  128.3050  127.8450   63.8680 C   0  0  0  0  0  0  0  0  0  0  0  0
  127.7640  129.1370   63.4530 N   0  0  0  0  0  0  0  0  0  0  0  0
  127.4330  129.4510   62.0490 C   0  0  1  0  0  0  0  0  0  0  0  0
  128.1440  130.6850   61.4530 C   0  0  0  0  0  0  0  0  0  0  0  0
  127.6690  130.9590   60.0140 C   0  0  0  0  0  0  0  0  0  0  0  0
  127.7380  129.6850   59.1380 C   0  0  0  0  0  0  0  0  0  0  0  0
  127.7680  129.7210   57.9090 O   0  0  0  0  0  0  0  0  0  0  0  0
  127.7510  128.5090   59.8120 N   0  0  0  0  0  0  0  0  0  0  0  0
  127.6890  128.2170   61.1340 C   0  0  0  0  0  0  0  0  0  0  0  0
  127.8010  127.0580   61.5360 O   0  0  0  0  0  0  0  0  0  0  0  0
  127.5870  130.0180   64.4670 C   0  0  0  0  0  0  0  0  0  0  0  0
  127.1520  131.1680   64.3960 O   0  0  0  0  0  0  0  0  0  0  0  0
  130.9750  127.3120   62.2750 N   0  0  0  0  0  0  0  0  0  0  0  0
  131.1020  128.0230   61.1060 C   0  0  0  0  0  0  0  0  0  0  0  0
  131.0280  129.3980   60.8580 C   0  0  0  0  0  0  0  0  0  0  0  0
  131.2130  129.8170   59.5400 C   0  0  0  0  0  0  0  0  0  0  0  0
  131.1370  131.5010   59.1720 Cl  0  0  0  0  0  0  0  0  0  0  0  0
  131.4600  128.9060   58.5150 C   0  0  0  0  0  0  0  0  0  0  0  0
  131.5310  127.5370   58.7680 C   0  0  0  0  0  0  0  0  0  0  0  0
  131.3500  127.0680   60.0810 C   0  0  0  0  0  0  0  0  0  0  0  0
  132.6170  123.5970   60.6380 N   0  0  0  0  0  0  0  0  0  0  0  0
  133.2210  123.8580   61.8280 C   0  0  0  0  0  0  0  0  0  0  0  0
  133.6530  123.0110   62.6100 O   0  0  0  0  0  0  0  0  0  0  0  0
  133.0200  122.3950   59.8720 C   0  0  0  0  0  0  0  0  0  0  0  0
  132.2110  121.1300   60.1460 C   0  0  0  0  0  0  0  0  0  0  0  0
  131.2210  121.1470   61.1330 C   0  0  0  0  0  0  0  0  0  0  0  0
  130.4910  119.9930   61.4210 C   0  0  0  0  0  0  0  0  0  0  0  0
  129.5300  120.0250   62.3710 F   0  0  0  0  0  0  0  0  0  0  0  0
  130.7560  118.8090   60.7290 C   0  0  0  0  0  0  0  0  0  0  0  0
  130.0570  117.6870   61.0170 F   0  0  0  0  0  0  0  0  0  0  0  0
  131.7440  118.7850   59.7430 C   0  0  0  0  0  0  0  0  0  0  0  0
  132.0070  117.6400   59.0720 F   0  0  0  0  0  0  0  0  0  0  0  0
  132.4660  119.9420   59.4500 C   0  0  0  0  0  0  0  0  0  0  0  0
  127.2743  124.6796   59.6941 H   0  0  0  0  0  0  0  0  0  0  0  0
  127.4018  125.7546   58.2606 H   0  0  0  0  0  0  0  0  0  0  0  0
  126.2305  124.3927   58.2606 H   0  0  0  0  0  0  0  0  0  0  0  0
  128.0684  124.9957   56.1935 H   0  0  0  0  0  0  0  0  0  0  0  0
  129.2475  123.6497   56.0370 H   0  0  0  0  0  0  0  0  0  0  0  0
  127.4848  123.3041   56.0370 H   0  0  0  0  0  0  0  0  0  0  0  0
  127.9433  122.2471   59.4852 H   0  0  0  0  0  0  0  0  0  0  0  0
  126.9789  122.0664   57.9805 H   0  0  0  0  0  0  0  0  0  0  0  0
  128.7282  121.6584   57.9805 H   0  0  0  0  0  0  0  0  0  0  0  0
  130.1030  124.8870   57.9930 H   0  0  0  0  0  0  0  0  0  0  0  0
  132.0253  124.5855   59.0031 H   0  0  0  0  0  0  0  0  0  0  0  0
  129.6020  123.9780   62.1460 H   0  0  0  0  0  0  0  0  0  0  0  0
  128.9060  122.5610   63.8344 H   0  0  0  0  0  0  0  0  0  0  0  0
  130.6635  122.0991   63.6793 H   0  0  0  0  0  0  0  0  0  0  0  0
  129.6767  122.5966   66.0470 H   0  0  0  0  0  0  0  0  0  0  0  0
  131.2946  123.2888   65.5431 H   0  0  0  0  0  0  0  0  0  0  0  0
  129.3033  126.8885   68.4622 H   0  0  0  0  0  0  0  0  0  0  0  0
  128.5419  129.1872   69.0576 H   0  0  0  0  0  0  0  0  0  0  0  0
  127.7200  130.7387   67.2753 H   0  0  0  0  0  0  0  0  0  0  0  0
  129.2773  127.6508   63.3917 H   0  0  0  0  0  0  0  0  0  0  0  0
  127.6679  126.9941   63.5850 H   0  0  0  0  0  0  0  0  0  0  0  0
  126.3643  129.7099   62.0773 H   0  0  0  0  0  0  0  0  0  0  0  0
  127.9228  131.5632   62.0774 H   0  0  0  0  0  0  0  0  0  0  0  0
  129.2259  130.4876   61.4315 H   0  0  0  0  0  0  0  0  0  0  0  0
  126.6289  131.3159   60.0434 H   0  0  0  0  0  0  0  0  0  0  0  0
  128.3324  131.7167   59.5715 H   0  0  0  0  0  0  0  0  0  0  0  0
  127.8460  127.6980   59.2190 H   0  0  0  0  0  0  0  0  0  0  0  0
  130.8130  127.6910   63.1960 H   0  0  0  0  0  0  0  0  0  0  0  0
  130.8325  130.1174   61.6669 H   0  0  0  0  0  0  0  0  0  0  0  0
  131.6015  129.2736   57.4879 H   0  0  0  0  0  0  0  0  0  0  0  0
  131.7268  126.8303   57.9481 H   0  0  0  0  0  0  0  0  0  0  0  0
  133.3329  124.9138   62.1159 H   0  0  0  0  0  0  0  0  0  0  0  0
  132.9265  122.6301   58.8015 H   0  0  0  0  0  0  0  0  0  0  0  0
  134.0475  122.1675   60.1923 H   0  0  0  0  0  0  0  0  0  0  0  0
  131.0162  122.0756   61.6859 H   0  0  0  0  0  0  0  0  0  0  0  0
  133.2396  119.9210   58.6682 H   0  0  0  0  0  0  0  0  0  0  0  0
  1  2  1  0
  2  3  1  0
  2  4  1  0
  2  5  1  0
  5  6  1  0
  6  7  2  0
  6  8  1  0
  8  9  1  0
  9 10  2  0
 10 11  1  0
 11 12  2  0
 11 13  1  0
 13 14  1  0
 14 15  1  0
 15 16  1  0
 16 17  3  0
 17 18  1  0
 18 19  2  0
 19 20  1  0
 20 21  2  0
 21 22  1  0
 22 23  2  0
 23 24  1  0
 24 25  1  0
 25 26  1  0
 26 27  1  0
 27 28  1  0
 28 29  1  0
 29 30  2  0
 29 31  1  0
 31 32  1  0
 32 33  2  0
 25 34  1  0
 34 35  2  0
 10 36  1  0
 36 37  1  0
 37 38  2  0
 38 39  1  0
 39 40  1  0
 39 41  2  0
 41 42  1  0
 42 43  2  0
  8 44  1  0
 44 45  1  0
 45 46  2  0
 44 47  1  0
 47 48  1  0
 48 49  2  0
 49 50  1  0
 50 51  1  0
 50 52  2  0
 52 53  1  0
 52 54  1  0
 54 55  1  0
 54 56  2  0
 43  9  1  0
 56 48  1  0
 23 18  1  0
 32 26  1  0
 43 37  1  0
 34 22  1  0
  1 57  1  0
  1 58  1  0
  1 59  1  0
  3 60  1  0
  3 61  1  0
  3 62  1  0
  4 63  1  0
  4 64  1  0
  4 65  1  0
  5 66  1  0
  8 67  1  6
 13 68  1  0
 14 69  1  0
 14 70  1  0
 15 71  1  0
 15 72  1  0
 19 73  1  0
 20 74  1  0
 21 75  1  0
 24 76  1  0
 24 77  1  0
 26 78  1  1
 27 79  1  0
 27 80  1  0
 28 81  1  0
 28 82  1  0
 31 83  1  0
 36 84  1  0
 38 85  1  0
 41 86  1  0
 42 87  1  0
 45 88  1  0
 47 89  1  0
 47 90  1  0
 49 91  1  0
 56 92  1  0
M  END
>  <Binding energies>  (1) 
[-6.68]

>  <Ligand effiencies>  (1) 
[-0.11133333333333333]

>  <Interactions>  (1) 
["V-A:ILE:369:CG2:3237, V-B:PRO:540:CA:9855, H-A:GLU:543:OE2:4910, V-B:GLU:543:CB:9878, V-B:ALA:541:CB:9864, V-B:TYR:539:CE2:9848, V-A:TYR:484:CE2:4346, V-A:LEU:475:CG:4257, V-B:GLU:543:CG:9879, V-B:TYR:539:C:9839, V-A:ASP:366:CG:3213, V-B:TYR:484:CE2:9317, V-B:TYR:539:CZ:9849, H-B:TYR:539:OH:9850, V-A:LEU:475:CD1:4258, V-B:TYR:539:CB:9843, V-A:HIS:383:CE1:3393, V-A:GLU:543:CD:4908, V-A:TYR:484:CZ:4347, H-B:TYR:484:OH:9319, V-B:HIS:456:CE1:9041, H-A:GLY:454:N:4050, V-A:HIS:383:NE2:3394, V-B:PRO:540:N:9856, V-A:HIS:383:CG:3390, V-B:TYR:484:CZ:9318, V-A:PRO:482:CB:4326, V-B:TYR:539:CD2:9846, V-A:GLU:543:CG:4907, V-B:GLU:543:CD:9880, V-A:ASP:366:CB:3212, V-A:LEU:475:CD2:4259, H-A:ARG:545:NH2:4928, H-A:GLU:543:OE1:4909, V-B:TYR:539:CG:9844, V-A:GLU:543:CB:4906, V-A:HIS:383:CD2:3392, V-A:PRO:540:CB:4885, V-A:PRO:540:CA:4883, V-B:PRO:540:C:9853, V-B:ALA:541:CA:9862, V-B:TYR:539:CE1:9847"]

$$$$
ZINC2384457242
     RDKit          3D

 55 58  0  0  0  0  0  0  0  0999 V2000
  132.4500  124.7410   58.7950 O   0  0  0  0  0  0  0  0  0  0  0  0
  131.5190  125.3550   59.3240 C   0  0  0  0  0  0  0  0  0  0  0  0
  130.7450  126.2110   58.6210 N   0  0  0  0  0  0  0  0  0  0  0  0
  130.6540  126.2620   57.1600 C   0  0  0  0  0  0  0  0  0  0  0  0
  129.4000  127.0020   56.6440 C   0  0  0  0  0  0  0  0  0  0  0  0
  129.2610  128.4480   57.1650 C   0  0  0  0  0  0  0  0  0  0  0  0
  130.5290  129.0370   57.5750 N   0  0  0  0  0  0  0  0  0  0  0  0
  130.8270  129.4620   58.8460 C   0  0  0  0  0  0  0  0  0  0  0  0
  130.5680  128.8090   59.9540 N   0  0  0  0  0  0  0  0  0  0  0  0
  130.9680  129.4690   61.0220 C   0  0  0  0  0  0  0  0  0  0  0  0
  131.5810  130.7040   60.7970 C   0  0  0  0  0  0  0  0  0  0  0  0
  132.1090  131.6200   61.7600 N   0  0  0  0  0  0  0  0  0  0  0  0
  131.3060  132.2040   62.4810 O   0  0  0  0  0  0  0  0  0  0  0  0
  133.3260  131.7700   61.8140 O   0  0  0  0  0  0  0  0  0  0  0  0
  131.6140  130.9900   59.0710 S   0  0  0  0  0  0  0  0  0  0  0  0
  131.2180  125.2490   60.6550 N   0  0  0  0  0  0  0  0  0  0  0  0
  130.1810  125.9020   61.2530 C   0  0  0  0  0  0  0  0  0  0  0  0
  129.2590  126.4730   60.6570 O   0  0  0  0  0  0  0  0  0  0  0  0
  130.3230  125.8310   62.7000 C   0  0  0  0  0  0  0  0  0  0  0  0
  129.3720  126.3530   63.5100 C   0  0  0  0  0  0  0  0  0  0  0  0
  129.3850  126.4110   64.9850 C   0  0  0  0  0  0  0  0  0  0  0  0
  130.0340  125.4400   65.7570 C   0  0  0  0  0  0  0  0  0  0  0  0
  130.0280  125.5280   67.1470 C   0  0  0  0  0  0  0  0  0  0  0  0
  129.3740  126.5890   67.7680 C   0  0  0  0  0  0  0  0  0  0  0  0
  129.3640  126.7000   69.4910 Cl  0  0  0  0  0  0  0  0  0  0  0  0
  128.7300  127.5640   67.0090 C   0  0  0  0  0  0  0  0  0  0  0  0
  128.7400  127.4750   65.6200 C   0  0  0  0  0  0  0  0  0  0  0  0
  131.8280  125.0040   63.1700 S   0  0  0  0  0  0  0  0  0  0  0  0
  132.0130  124.3580   61.5160 C   0  0  1  0  0  0  0  0  0  0  0  0
  131.6390  122.8660   61.4600 C   0  0  0  0  0  0  0  0  0  0  0  0
  130.3440  122.4230   61.7630 C   0  0  0  0  0  0  0  0  0  0  0  0
  130.0210  121.0730   61.6480 C   0  0  0  0  0  0  0  0  0  0  0  0
  130.9860  120.1650   61.2180 C   0  0  0  0  0  0  0  0  0  0  0  0
  130.5830  118.4930   61.0720 Cl  0  0  0  0  0  0  0  0  0  0  0  0
  132.2710  120.5970   60.9000 C   0  0  0  0  0  0  0  0  0  0  0  0
  132.5940  121.9460   61.0160 C   0  0  0  0  0  0  0  0  0  0  0  0
  130.0820  126.7810   59.1260 H   0  0  0  0  0  0  0  0  0  0  0  0
  131.5456  126.7776   56.7738 H   0  0  0  0  0  0  0  0  0  0  0  0
  130.5847  125.2233   56.8046 H   0  0  0  0  0  0  0  0  0  0  0  0
  129.4456  127.0338   55.5454 H   0  0  0  0  0  0  0  0  0  0  0  0
  128.5278  126.4456   57.0178 H   0  0  0  0  0  0  0  0  0  0  0  0
  128.8307  129.0677   56.3645 H   0  0  0  0  0  0  0  0  0  0  0  0
  128.6150  128.4132   58.0547 H   0  0  0  0  0  0  0  0  0  0  0  0
  131.1040  129.3270   56.7970 H   0  0  0  0  0  0  0  0  0  0  0  0
  130.8268  129.0688   62.0368 H   0  0  0  0  0  0  0  0  0  0  0  0
  128.4898  126.7825   63.0127 H   0  0  0  0  0  0  0  0  0  0  0  0
  130.5510  124.6038   65.2635 H   0  0  0  0  0  0  0  0  0  0  0  0
  130.5375  124.7630   67.7514 H   0  0  0  0  0  0  0  0  0  0  0  0
  128.2160  128.4003   67.5053 H   0  0  0  0  0  0  0  0  0  0  0  0
  128.2371  128.2469   65.0189 H   0  0  0  0  0  0  0  0  0  0  0  0
  133.0531  124.3607   61.1580 H   0  0  0  0  0  0  0  0  0  0  0  0
  129.5809  123.1435   62.0925 H   0  0  0  0  0  0  0  0  0  0  0  0
  129.0074  120.7250   61.8959 H   0  0  0  0  0  0  0  0  0  0  0  0
  133.0277  119.8753   60.5586 H   0  0  0  0  0  0  0  0  0  0  0  0
  133.6061  122.2903   60.7570 H   0  0  0  0  0  0  0  0  0  0  0  0
  1  2  2  0
  2  3  1  0
  3  4  1  0
  4  5  1  0
  5  6  1  0
  6  7  1  0
  7  8  1  0
  8  9  2  0
  9 10  1  0
 10 11  2  0
 11 12  1  0
 12 13  2  0
 12 14  1  0
 11 15  1  0
  2 16  1  0
 16 17  1  0
 17 18  2  0
 17 19  1  0
 19 20  2  0
 20 21  1  0
 21 22  2  0
 22 23  1  0
 23 24  2  0
 24 25  1  0
 24 26  1  0
 26 27  2  0
 19 28  1  0
 28 29  1  0
 29 30  1  0
 30 31  2  0
 31 32  1  0
 32 33  2  0
 33 34  1  0
 33 35  1  0
 35 36  2  0
 15  8  1  0
 29 16  1  0
 36 30  1  0
 27 21  1  0
  3 37  1  0
  4 38  1  0
  4 39  1  0
  5 40  1  0
  5 41  1  0
  6 42  1  0
  6 43  1  0
  7 44  1  0
 10 45  1  0
 20 46  1  0
 22 47  1  0
 23 48  1  0
 26 49  1  0
 27 50  1  0
 29 51  1  6
 31 52  1  0
 32 53  1  0
 35 54  1  0
 36 55  1  0
M  CHG  2  12   1  14  -1
M  END
>  <Binding energies>  (1) 
[-8.4]

>  <Ligand effiencies>  (1) 
[-0.2210526315789474]

>  <Interactions>  (1) 
["V-A:HIS:456:CE1:4070, V-A:PRO:540:CB:4885, V-A:PRO:540:CA:4883, H-A:ALA:541:N:4891, H-B:TYR:539:OH:9850, V-B:TYR:539:CD2:9846, V-A:TYR:531:CZ:4794, V-B:GLU:543:CB:9878, V-B:GLU:543:CD:9880, V-B:ALA:541:CB:9864, V-A:MET:535:CE:4835, H-A:TYR:531:OH:4795, V-B:TYR:539:CE2:9848, V-A:GLU:543:CD:4908, V-A:LEU:475:CD2:4259, H-A:ARG:545:NH2:4928, V-B:GLU:543:CG:9879, V-A:GLU:543:CB:4906"]

$$$$
ZINC2384477429
     RDKit          3D

 55 58  0  0  0  0  0  0  0  0999 V2000
  125.4490  124.5100   56.8780 C   0  0  0  0  0  0  0  0  0  0  0  0
  126.3900  123.8680   57.5940 C   0  0  0  0  0  0  0  0  0  0  0  0
  126.7990  122.4990   57.3300 C   0  0  0  0  0  0  0  0  0  0  0  0
  126.4560  121.7690   56.4010 O   0  0  0  0  0  0  0  0  0  0  0  0
  127.6480  122.1400   58.3060 O   0  0  0  0  0  0  0  0  0  0  0  0
  127.6130  123.0550   59.3940 C   0  0  1  0  0  0  0  0  0  0  0  0
  128.9520  123.0730   60.1670 C   0  0  0  0  0  0  0  0  0  0  0  0
  129.7950  124.1520   60.1840 C   0  0  0  0  0  0  0  0  0  0  0  0
  129.3460  125.4680   59.5220 C   0  0  0  0  0  0  0  0  0  0  0  0
  128.4230  125.2230   58.3250 C   0  0  0  0  0  0  0  0  0  0  0  0
  127.2050  124.3900   58.7510 C   0  0  1  0  0  0  0  0  0  0  0  0
  131.1280  124.1740   60.9950 C   0  0  1  0  0  0  0  0  0  0  0  0
  130.7650  124.8780   62.3340 C   0  0  0  0  0  0  0  0  0  0  0  0
  131.6320  122.6830   61.1690 C   0  0  2  0  0  0  0  0  0  0  0  0
  130.5320  121.7510   61.7220 C   0  0  0  0  0  0  0  0  0  0  0  0
  129.2190  121.8430   60.9440 C   0  0  0  0  0  0  0  0  0  0  0  0
  128.3700  120.9600   61.0820 O   0  0  0  0  0  0  0  0  0  0  0  0
  133.0460  122.4700   61.8410 C   0  0  0  0  0  0  0  0  0  0  0  0
  133.4900  120.9990   61.6070 C   0  0  0  0  0  0  0  0  0  0  0  0
  133.0810  122.8200   63.3530 C   0  0  0  0  0  0  0  0  0  0  0  0
  134.0750  123.3510   61.0730 C   0  0  0  0  0  0  0  0  0  0  0  0
  133.6540  124.8280   60.9460 C   0  0  0  0  0  0  0  0  0  0  0  0
  132.2690  124.9770   60.2670 C   0  0  1  0  0  0  0  0  0  0  0  0
  132.3510  124.5720   58.8930 O   0  0  0  0  0  0  0  0  0  0  0  0
  132.6170  125.4500   57.8990 C   0  0  0  0  0  0  0  0  0  0  0  0
  131.6490  126.6250   57.8970 C   0  0  0  0  0  0  0  0  0  0  0  0
  133.5240  125.3620   57.0710 O   0  0  0  0  0  0  0  0  0  0  0  0
  125.1818  125.5478   57.1262 H   0  0  0  0  0  0  0  0  0  0  0  0
  124.9469  123.9971   56.0445 H   0  0  0  0  0  0  0  0  0  0  0  0
  126.8938  122.7825   60.1804 H   0  0  0  0  0  0  0  0  0  0  0  0
  128.8090  126.0745   60.2661 H   0  0  0  0  0  0  0  0  0  0  0  0
  130.2440  125.9882   59.1574 H   0  0  0  0  0  0  0  0  0  0  0  0
  128.0801  126.1897   57.9276 H   0  0  0  0  0  0  0  0  0  0  0  0
  128.9792  124.6729   57.5517 H   0  0  0  0  0  0  0  0  0  0  0  0
  126.6645  125.0912   59.4039 H   0  0  0  0  0  0  0  0  0  0  0  0
  131.0885  124.2506   63.1776 H   0  0  0  0  0  0  0  0  0  0  0  0
  131.2732  125.8522   62.3856 H   0  0  0  0  0  0  0  0  0  0  0  0
  129.6766  125.0290   62.3856 H   0  0  0  0  0  0  0  0  0  0  0  0
  131.8403  122.3710   60.1350 H   0  0  0  0  0  0  0  0  0  0  0  0
  130.8953  120.7139   61.6736 H   0  0  0  0  0  0  0  0  0  0  0  0
  130.3235  122.0674   62.7547 H   0  0  0  0  0  0  0  0  0  0  0  0
  133.6399  120.5025   62.5771 H   0  0  0  0  0  0  0  0  0  0  0  0
  132.7124  120.4672   61.0392 H   0  0  0  0  0  0  0  0  0  0  0  0
  134.4320  120.9862   61.0392 H   0  0  0  0  0  0  0  0  0  0  0  0
  132.9888  121.8976   63.9451 H   0  0  0  0  0  0  0  0  0  0  0  0
  134.0332  123.3159   63.5926 H   0  0  0  0  0  0  0  0  0  0  0  0
  132.2458  123.4946   63.5926 H   0  0  0  0  0  0  0  0  0  0  0  0
  135.0356  123.3085   61.6073 H   0  0  0  0  0  0  0  0  0  0  0  0
  134.1442  122.9478   60.0519 H   0  0  0  0  0  0  0  0  0  0  0  0
  133.6070  125.2722   61.9512 H   0  0  0  0  0  0  0  0  0  0  0  0
  134.3980  125.3423   60.3199 H   0  0  0  0  0  0  0  0  0  0  0  0
  131.9986  126.0411   60.3351 H   0  0  0  0  0  0  0  0  0  0  0  0
  131.4150  126.9090   58.9336 H   0  0  0  0  0  0  0  0  0  0  0  0
  132.1095  127.4786   57.3780 H   0  0  0  0  0  0  0  0  0  0  0  0
  130.7231  126.3364   57.3780 H   0  0  0  0  0  0  0  0  0  0  0  0
  1  2  2  0
  2  3  1  0
  3  4  2  0
  3  5  1  0
  5  6  1  0
  6  7  1  0
  7  8  2  0
  8  9  1  0
  9 10  1  0
 10 11  1  0
  8 12  1  0
 12 13  1  1
 12 14  1  0
 14 15  1  0
 15 16  1  0
 16 17  2  0
 14 18  1  0
 18 19  1  0
 18 20  1  0
 18 21  1  0
 21 22  1  0
 22 23  1  0
 23 24  1  0
 24 25  1  0
 25 26  1  0
 25 27  2  0
 11  2  1  0
 23 12  1  0
 11  6  1  0
 16  7  1  0
  1 28  1  0
  1 29  1  0
  6 30  1  1
  9 31  1  0
  9 32  1  0
 10 33  1  0
 10 34  1  0
 11 35  1  1
 13 36  1  0
 13 37  1  0
 13 38  1  0
 14 39  1  6
 15 40  1  0
 15 41  1  0
 19 42  1  0
 19 43  1  0
 19 44  1  0
 20 45  1  0
 20 46  1  0
 20 47  1  0
 21 48  1  0
 21 49  1  0
 22 50  1  0
 22 51  1  0
 23 52  1  6
 26 53  1  0
 26 54  1  0
 26 55  1  0
M  END
>  <Binding energies>  (1) 
[-8.82]

>  <Ligand effiencies>  (1) 
[-0.32666666666666666]

>  <Interactions>  (1) 
["V-A:ILE:369:CG2:3237, V-A:ASP:366:CA:3210, V-B:PRO:540:CA:9855, V-A:GLY:454:CA:4049, H-A:TYR:531:OH:4795, V-B:TYR:539:CE2:9848, H-B:TYR:539:N:9842, V-B:TYR:539:C:9839, V-A:ASP:366:CG:3213, V-B:TYR:539:CZ:9849, V-B:TYR:531:CZ:9766, H-B:TYR:539:OH:9850, H-B:ALA:541:N:9863, V-B:TYR:531:CE2:9765, V-B:PRO:540:CB:9857, V-A:SER:385:C:3405, V-B:PRO:540:N:9856, V-A:ILE:369:CD1:3239, V-B:PRO:540:CD:9859, V-B:TYR:539:CD2:9846, V-A:SER:385:CB:3409, V-A:TYR:531:CZ:4794, V-A:ASP:366:CB:3212, V-A:LEU:475:CD2:4259, V-B:LEU:363:CD1:8160, V-A:SER:385:CA:3407, V-B:MET:535:CE:9807"]

$$$$
ZINC2384484071
     RDKit          3D

127132  0  0  0  0  0  0  0  0999 V2000
  131.5600  121.2790   60.9160 C   0  0  0  0  0  0  0  0  0  0  0  0
  130.2880  121.0120   61.2550 C   0  0  0  0  0  0  0  0  0  0  0  0
  129.1210  121.9910   61.2930 C   0  0  0  0  0  0  0  0  0  0  0  0
  128.7420  122.5580   62.5930 N   0  0  0  0  0  0  0  0  0  0  0  0
  129.3460  121.7960   63.7010 C   0  0  0  0  0  0  0  0  0  0  0  0
  129.5300  122.6250   64.9080 C   0  0  0  0  0  0  0  0  0  0  0  0
  129.6000  123.3270   65.9090 C   0  0  0  0  0  0  0  0  0  0  0  0
  129.8380  124.1400   67.1210 C   0  0  0  0  0  0  0  0  0  0  0  0
  130.6680  125.3470   66.8960 N   0  0  0  0  0  0  0  0  0  0  0  0
  131.8920  125.1510   66.2090 N   0  0  0  0  0  0  0  0  0  0  0  0
  131.9020  125.2190   64.8590 C   0  0  0  0  0  0  0  0  0  0  0  0
  131.1860  125.9760   64.1920 O   0  0  0  0  0  0  0  0  0  0  0  0
  132.9530  124.2960   64.1910 C   0  0  2  0  0  0  0  0  0  0  0  0
  134.2480  125.0500   63.8300 C   0  0  0  0  0  0  0  0  0  0  0  0
  132.3150  123.6890   62.9710 N   0  0  0  0  0  0  0  0  0  0  0  0
  130.3820  126.5970   67.3910 C   0  0  0  0  0  0  0  0  0  0  0  0
  131.2420  127.2870   67.9410 O   0  0  0  0  0  0  0  0  0  0  0  0
  129.1330  127.0640   67.1880 N   0  0  0  0  0  0  0  0  0  0  0  0
  128.6710  128.4480   67.2890 C   0  0  2  0  0  0  0  0  0  0  0  0
  128.9400  128.9420   68.7370 C   0  0  0  0  0  0  0  0  0  0  0  0
  128.8870  127.9260   69.8500 C   0  0  0  0  0  0  0  0  0  0  0  0
  128.7540  126.5890   69.6860 C   0  0  0  0  0  0  0  0  0  0  0  0
  128.8300  125.9610   70.9110 N   0  0  0  0  0  0  0  0  0  0  0  0
  129.0290  126.8630   71.9360 C   0  0  0  0  0  0  0  0  0  0  0  0
  129.1900  126.7230   73.3260 C   0  0  0  0  0  0  0  0  0  0  0  0
  129.3970  127.8700   74.1120 C   0  0  0  0  0  0  0  0  0  0  0  0
  129.4330  129.1400   73.5040 C   0  0  0  0  0  0  0  0  0  0  0  0
  129.2640  129.2680   72.1110 C   0  0  0  0  0  0  0  0  0  0  0  0
  129.0630  128.1350   71.2860 C   0  0  0  0  0  0  0  0  0  0  0  0
  127.1640  128.4990   66.9110 C   0  0  0  0  0  0  0  0  0  0  0  0
  126.3310  128.2080   67.7710 O   0  0  0  0  0  0  0  0  0  0  0  0
  126.7640  128.8710   65.6740 N   0  0  0  0  0  0  0  0  0  0  0  0
  127.5330  129.2060   64.4630 C   0  0  1  0  0  0  0  0  0  0  0  0
  128.2030  130.5880   64.6320 C   0  0  0  0  0  0  0  0  0  0  0  0
  128.4610  128.0430   64.0100 C   0  0  0  0  0  0  0  0  0  0  0  0
  128.8620  127.2500   64.8610 O   0  0  0  0  0  0  0  0  0  0  0  0
  128.7890  127.8240   62.7200 N   0  0  0  0  0  0  0  0  0  0  0  0
  128.5060  128.5080   61.4530 C   0  0  1  0  0  0  0  0  0  0  0  0
  129.7730  128.6410   60.5710 C   0  0  0  0  0  0  0  0  0  0  0  0
  130.8210  127.5770   60.7440 C   0  0  0  0  0  0  0  0  0  0  0  0
  131.3470  127.1870   61.9280 C   0  0  0  0  0  0  0  0  0  0  0  0
  132.2980  126.2120   61.7150 N   0  0  0  0  0  0  0  0  0  0  0  0
  132.4430  125.9250   60.3740 C   0  0  0  0  0  0  0  0  0  0  0  0
  133.2680  125.0350   59.6630 C   0  0  0  0  0  0  0  0  0  0  0  0
  133.1760  124.9870   58.2600 C   0  0  0  0  0  0  0  0  0  0  0  0
  132.2660  125.8250   57.5870 C   0  0  0  0  0  0  0  0  0  0  0  0
  131.4440  126.7140   58.3110 C   0  0  0  0  0  0  0  0  0  0  0  0
  131.5090  126.7880   59.7240 C   0  0  0  0  0  0  0  0  0  0  0  0
  127.2320  128.0060   60.7260 C   0  0  0  0  0  0  0  0  0  0  0  0
  126.1300  128.2570   61.2080 O   0  0  0  0  0  0  0  0  0  0  0  0
  127.3220  127.3220   59.5660 N   0  0  0  0  0  0  0  0  0  0  0  0
  128.4970  126.7930   58.8610 C   0  0  2  0  0  0  0  0  0  0  0  0
  128.6510  127.5740   57.5360 C   0  0  0  0  0  0  0  0  0  0  0  0
  128.6810  129.0870   57.6910 C   0  0  0  0  0  0  0  0  0  0  0  0
  129.9140  129.7730   57.6920 C   0  0  0  0  0  0  0  0  0  0  0  0
  129.9460  131.1450   57.9090 C   0  0  0  0  0  0  0  0  0  0  0  0
  128.7730  131.8400   58.1700 C   0  0  0  0  0  0  0  0  0  0  0  0
  127.5550  131.1730   58.2100 C   0  0  0  0  0  0  0  0  0  0  0  0
  127.5010  129.8040   57.9800 C   0  0  0  0  0  0  0  0  0  0  0  0
  128.4120  125.2740   58.5900 C   0  0  0  0  0  0  0  0  0  0  0  0
  128.7840  124.8440   57.4990 O   0  0  0  0  0  0  0  0  0  0  0  0
  127.9520  124.4420   59.5420 N   0  0  0  0  0  0  0  0  0  0  0  0
  127.5460  124.7360   60.9200 C   0  0  2  0  0  0  0  0  0  0  0  0
  128.8130  124.9990   61.7590 C   0  0  0  0  0  0  0  0  0  0  0  0
  128.6350  125.3110   63.0460 N   0  0  0  0  0  0  0  0  0  0  0  0
  129.9290  124.8880   61.2500 O   0  0  0  0  0  0  0  0  0  0  0  0
  126.6760  123.5840   61.4880 C   0  0  0  0  0  0  0  0  0  0  0  0
  127.2940  122.8220   62.6910 C   0  0  0  0  0  0  0  0  0  0  0  0
  132.3127  120.4770   60.9295 H   0  0  0  0  0  0  0  0  0  0  0  0
  131.8490  122.2997   60.6249 H   0  0  0  0  0  0  0  0  0  0  0  0
  130.0642  119.9723   61.5361 H   0  0  0  0  0  0  0  0  0  0  0  0
  129.3769  122.8315   60.6311 H   0  0  0  0  0  0  0  0  0  0  0  0
  128.2494  121.3931   60.9882 H   0  0  0  0  0  0  0  0  0  0  0  0
  128.6892  120.9492   63.9488 H   0  0  0  0  0  0  0  0  0  0  0  0
  130.3371  121.4491   63.3734 H   0  0  0  0  0  0  0  0  0  0  0  0
  128.8632  124.4617   67.5162 H   0  0  0  0  0  0  0  0  0  0  0  0
  130.3959  123.5019   67.8221 H   0  0  0  0  0  0  0  0  0  0  0  0
  132.4800  124.4930   66.7000 H   0  0  0  0  0  0  0  0  0  0  0  0
  133.2550  123.5104   64.8992 H   0  0  0  0  0  0  0  0  0  0  0  0
  134.7660  125.3516   64.7524 H   0  0  0  0  0  0  0  0  0  0  0  0
  134.9030  124.3921   63.2400 H   0  0  0  0  0  0  0  0  0  0  0  0
  133.9992  125.9444   63.2400 H   0  0  0  0  0  0  0  0  0  0  0  0
  131.9950  122.7570   63.1930 H   0  0  0  0  0  0  0  0  0  0  0  0
  132.9950  123.6520   62.2250 H   0  0  0  0  0  0  0  0  0  0  0  0
  131.5330  124.2650   62.6920 H   0  0  0  0  0  0  0  0  0  0  0  0
  128.4300  126.4160   66.8640 H   0  0  0  0  0  0  0  0  0  0  0  0
  129.2076  129.1132   66.5965 H   0  0  0  0  0  0  0  0  0  0  0  0
  129.9449  129.3893   68.7492 H   0  0  0  0  0  0  0  0  0  0  0  0
  128.1099  129.6308   68.9523 H   0  0  0  0  0  0  0  0  0  0  0  0
  128.6075  126.0806   68.7216 H   0  0  0  0  0  0  0  0  0  0  0  0
  128.7550  124.9590   71.0130 H   0  0  0  0  0  0  0  0  0  0  0  0
  129.1544  125.7276   73.7928 H   0  0  0  0  0  0  0  0  0  0  0  0
  129.5306  127.7758   75.1998 H   0  0  0  0  0  0  0  0  0  0  0  0
  129.5940  130.0369   74.1201 H   0  0  0  0  0  0  0  0  0  0  0  0
  129.2887  130.2688   71.6551 H   0  0  0  0  0  0  0  0  0  0  0  0
  125.7670  128.8900   65.5210 H   0  0  0  0  0  0  0  0  0  0  0  0
  126.8523  129.3141   63.6057 H   0  0  0  0  0  0  0  0  0  0  0  0
  128.3125  130.8139   65.7030 H   0  0  0  0  0  0  0  0  0  0  0  0
  129.1949  130.5752   64.1567 H   0  0  0  0  0  0  0  0  0  0  0  0
  127.5786  131.3588   64.1567 H   0  0  0  0  0  0  0  0  0  0  0  0
  129.3730  127.0130   62.5760 H   0  0  0  0  0  0  0  0  0  0  0  0
  128.2289  129.5412   61.7094 H   0  0  0  0  0  0  0  0  0  0  0  0
  129.4518  128.6268   59.5190 H   0  0  0  0  0  0  0  0  0  0  0  0
  130.2529  129.5789   60.8874 H   0  0  0  0  0  0  0  0  0  0  0  0
  131.0594  127.5872   62.9114 H   0  0  0  0  0  0  0  0  0  0  0  0
  132.8150  125.7820   62.4680 H   0  0  0  0  0  0  0  0  0  0  0  0
  133.9763  124.3846   60.1972 H   0  0  0  0  0  0  0  0  0  0  0  0
  133.8139  124.2959   57.6895 H   0  0  0  0  0  0  0  0  0  0  0  0
  132.1957  125.7861   56.4899 H   0  0  0  0  0  0  0  0  0  0  0  0
  130.7397  127.3616   57.7682 H   0  0  0  0  0  0  0  0  0  0  0  0
  126.4480  127.0580   59.1370 H   0  0  0  0  0  0  0  0  0  0  0  0
  129.3779  126.9301   59.5054 H   0  0  0  0  0  0  0  0  0  0  0  0
  129.5914  127.2594   57.0599 H   0  0  0  0  0  0  0  0  0  0  0  0
  127.7617  127.3407   56.9321 H   0  0  0  0  0  0  0  0  0  0  0  0
  130.8502  129.2214   57.5209 H   0  0  0  0  0  0  0  0  0  0  0  0
  130.9049  131.6828   57.8738 H   0  0  0  0  0  0  0  0  0  0  0  0
  128.8081  132.9252   58.3462 H   0  0  0  0  0  0  0  0  0  0  0  0
  126.6311  131.7302   58.4243 H   0  0  0  0  0  0  0  0  0  0  0  0
  126.5359  129.2779   58.0233 H   0  0  0  0  0  0  0  0  0  0  0  0
  127.9170  123.4590   59.3110 H   0  0  0  0  0  0  0  0  0  0  0  0
  126.9180  125.6384   60.9546 H   0  0  0  0  0  0  0  0  0  0  0  0
  127.7050  125.3760   63.4330 H   0  0  0  0  0  0  0  0  0  0  0  0
  129.4330  125.4800   63.6410 H   0  0  0  0  0  0  0  0  0  0  0  0
  125.7154  124.0108   61.8124 H   0  0  0  0  0  0  0  0  0  0  0  0
  126.5773  122.8471   60.6773 H   0  0  0  0  0  0  0  0  0  0  0  0
  127.1179  123.4188   63.5981 H   0  0  0  0  0  0  0  0  0  0  0  0
  126.8056  121.8365   62.7103 H   0  0  0  0  0  0  0  0  0  0  0  0
  1  2  2  0
  2  3  1  0
  3  4  1  0
  4  5  1  0
  5  6  1  0
  6  7  3  0
  7  8  1  0
  8  9  1  0
  9 10  1  0
 10 11  1  0
 11 12  2  0
 11 13  1  0
 13 14  1  0
 13 15  1  0
  9 16  1  0
 16 17  2  0
 16 18  1  0
 18 19  1  0
 19 20  1  0
 20 21  1  0
 21 22  2  0
 22 23  1  0
 23 24  1  0
 24 25  2  0
 25 26  1  0
 26 27  2  0
 27 28  1  0
 28 29  2  0
 19 30  1  0
 30 31  2  0
 30 32  1  0
 32 33  1  0
 33 34  1  0
 33 35  1  0
 35 36  2  0
 35 37  1  0
 37 38  1  0
 38 39  1  0
 39 40  1  0
 40 41  2  0
 41 42  1  0
 42 43  1  0
 43 44  2  0
 44 45  1  0
 45 46  2  0
 46 47  1  0
 47 48  2  0
 38 49  1  0
 49 50  2  0
 49 51  1  0
 51 52  1  0
 52 53  1  0
 53 54  1  0
 54 55  2  0
 55 56  1  0
 56 57  2  0
 57 58  1  0
 58 59  2  0
 52 60  1  0
 60 61  2  0
 60 62  1  0
 62 63  1  0
 63 64  1  0
 64 65  1  0
 64 66  2  0
 63 67  1  0
 67 68  1  0
 68  4  1  0
 29 21  1  0
 48 40  1  0
 59 54  1  0
 29 24  1  0
 48 43  1  0
  1 69  1  0
  1 70  1  0
  2 71  1  0
  3 72  1  0
  3 73  1  0
  5 74  1  0
  5 75  1  0
  8 76  1  0
  8 77  1  0
 10 78  1  0
 13 79  1  1
 14 80  1  0
 14 81  1  0
 14 82  1  0
 15 83  1  0
 15 84  1  0
 15 85  1  0
 18 86  1  0
 19 87  1  6
 20 88  1  0
 20 89  1  0
 22 90  1  0
 23 91  1  0
 25 92  1  0
 26 93  1  0
 27 94  1  0
 28 95  1  0
 32 96  1  0
 33 97  1  6
 34 98  1  0
 34 99  1  0
 34100  1  0
 37101  1  0
 38102  1  1
 39103  1  0
 39104  1  0
 41105  1  0
 42106  1  0
 44107  1  0
 45108  1  0
 46109  1  0
 47110  1  0
 51111  1  0
 52112  1  1
 53113  1  0
 53114  1  0
 55115  1  0
 56116  1  0
 57117  1  0
 58118  1  0
 59119  1  0
 62120  1  0
 63121  1  6
 65122  1  0
 65123  1  0
 67124  1  0
 67125  1  0
 68126  1  0
 68127  1  0
M  CHG  1  15   1
M  END
>  <Binding energies>  (1) 
[-1.97]

>  <Ligand effiencies>  (1) 
[-0.023734939759036143]

>  <Interactions>  (1) 
["V-A:ASP:366:CA:3210, V-B:PRO:540:CA:9855, V-A:GLU:543:CA:4904, V-A:GLY:454:CA:4049, V-B:GLU:543:C:9874, V-B:HIS:456:CD2:9039, H-B:GLU:543:O:9875, V-A:GLU:543:C:4902, V-B:GLU:543:CB:9878, V-B:ALA:541:CB:9864, V-B:TYR:539:CE2:9848, V-A:TYR:484:CE2:4346, V-B:GLU:543:CG:9879, V-A:ASP:366:CG:3213, V-A:HIS:456:CD2:4068, H-B:HIS:456:ND1:9038, V-B:TYR:539:CZ:9849, H-B:GLU:543:OE1:9881, H-B:TYR:539:OH:9850, H-B:ALA:541:N:9863, V-A:GLU:543:CD:4908, V-A:TYR:484:CZ:4347, H-B:TYR:484:OH:9319, H-B:ASP:366:OD1:8185, V-B:GLU:543:CA:9876, V-B:HIS:456:CE1:9041, V-A:GLY:453:C:4042, V-A:TYR:484:CD2:4344, V-A:HIS:456:CE1:4070, V-B:ALA:541:C:9860, V-A:ASP:366:C:3208, V-B:TYR:539:CD2:9846, V-A:TYR:531:CZ:4794, V-A:GLU:543:CG:4907, V-B:GLU:543:CD:9880, H-B:TYR:531:OH:9767, V-A:ASP:366:CB:3212, V-A:LEU:475:CD2:4259, H-A:ARG:545:NH2:4928, V-A:ARG:545:CZ:4926, H-A:GLU:543:OE1:4909, H-B:ARG:545:NH2:9900, V-A:GLU:543:CB:4906, H-A:ASP:366:OD1:3214, H-B:GLU:543:OE2:9882, V-A:GLY:453:CA:4044, V-B:PRO:540:C:9853, V-B:ALA:541:CA:9862, H-A:HIS:456:NE2:4071, H-A:TYR:484:OH:4348"]

$$$$
ZINC2384492512
     RDKit          3D

108115  0  0  0  0  0  0  0  0999 V2000
  132.8220  120.0380   59.6140 C   0  0  0  0  0  0  0  0  0  0  0  0
  132.4450  120.9570   60.7960 C   0  0  1  0  0  0  0  0  0  0  0  0
  133.6310  121.0230   61.7780 C   0  0  0  0  0  0  0  0  0  0  0  0
  134.0070  120.0970   62.4990 O   0  0  0  0  0  0  0  0  0  0  0  0
  134.4210  122.3710   61.8470 C   0  0  0  0  0  0  0  0  0  0  0  0
  135.4300  122.4040   62.5510 O   0  0  0  0  0  0  0  0  0  0  0  0
  133.9140  123.4940   61.0670 C   0  0  0  0  0  0  0  0  0  0  0  0
  132.7630  123.5210   60.3420 C   0  0  0  0  0  0  0  0  0  0  0  0
  131.9230  122.3090   60.2870 C   0  0  0  0  0  0  0  0  0  0  0  0
  130.6670  122.4100   59.8220 C   0  0  0  0  0  0  0  0  0  0  0  0
  130.0880  123.6550   59.3880 C   0  0  0  0  0  0  0  0  0  0  0  0
  130.7950  124.7990   59.2490 C   0  0  0  0  0  0  0  0  0  0  0  0
  132.3570  124.7930   59.5200 C   0  0  2  0  0  0  0  0  0  0  0  0
  133.1140  124.6560   58.1710 C   0  0  0  0  0  0  0  0  0  0  0  0
  132.8120  126.1160   60.2390 C   0  0  0  0  0  0  0  0  0  0  0  0
  132.0710  127.3960   59.8090 C   0  0  0  0  0  0  0  0  0  0  0  0
  130.5250  127.2460   59.8830 C   0  0  1  0  0  0  0  0  0  0  0  0
  130.1750  126.7280   61.3390 C   0  0  0  0  0  0  0  0  0  0  0  0
  129.8250  128.6900   59.6840 C   0  0  2  0  0  0  0  0  0  0  0  0
  129.5950  129.5050   61.0150 C   0  0  0  0  0  0  0  0  0  0  0  0
  128.7160  130.7740   60.9470 C   0  0  2  0  0  0  0  0  0  0  0  0
  129.4420  131.9200   60.1730 C   0  0  0  0  0  0  0  0  0  0  0  0
  128.5300  131.3110   62.4190 C   0  0  0  0  0  0  0  0  0  0  0  0
  129.0110  132.4130   62.7070 O   0  0  0  0  0  0  0  0  0  0  0  0
  127.8770  130.5900   63.3660 N   0  0  0  0  0  0  0  0  0  0  0  0
  127.1310  131.3070   64.4200 C   0  0  0  0  0  0  0  0  0  0  0  0
  125.9660  130.4020   64.9040 C   0  0  0  0  0  0  0  0  0  0  0  0
  126.5180  129.0950   65.3020 N   0  0  0  0  0  0  0  0  0  0  0  0
  126.5070  128.6820   66.5970 C   0  0  0  0  0  0  0  0  0  0  0  0
  125.9480  129.3320   67.4860 O   0  0  0  0  0  0  0  0  0  0  0  0
  127.2120  127.3450   66.9550 C   0  0  0  0  0  0  0  0  0  0  0  0
  127.8610  127.3430   68.2960 N   0  0  0  0  0  0  0  0  0  0  0  0
  127.0840  127.2710   69.3960 C   0  0  0  0  0  0  0  0  0  0  0  0
  125.8550  127.2280   69.4670 O   0  0  0  0  0  0  0  0  0  0  0  0
  128.1440  127.2560   70.8330 S   0  0  0  0  0  0  0  0  0  0  0  0
  129.5910  127.3000   69.8230 C   0  0  0  0  0  0  0  0  0  0  0  0
  130.8930  127.3210   70.1970 C   0  0  0  0  0  0  0  0  0  0  0  0
  131.4400  127.2560   71.5670 C   0  0  0  0  0  0  0  0  0  0  0  0
  130.6780  127.6050   72.6890 C   0  0  0  0  0  0  0  0  0  0  0  0
  131.2330  127.5320   73.9640 C   0  0  0  0  0  0  0  0  0  0  0  0
  132.5500  127.1060   74.1210 C   0  0  0  0  0  0  0  0  0  0  0  0
  133.3090  127.0060   75.8640 Br  0  0  0  0  0  0  0  0  0  0  0  0
  133.3140  126.7480   73.0130 C   0  0  0  0  0  0  0  0  0  0  0  0
  132.7570  126.8220   71.7380 C   0  0  0  0  0  0  0  0  0  0  0  0
  129.2160  127.3350   68.4250 C   0  0  0  0  0  0  0  0  0  0  0  0
  130.0040  127.3450   67.4740 O   0  0  0  0  0  0  0  0  0  0  0  0
  127.2220  128.3870   64.2180 C   0  0  0  0  0  0  0  0  0  0  0  0
  128.4070  129.2770   63.7810 C   0  0  0  0  0  0  0  0  0  0  0  0
  127.3760  130.3900   60.2620 C   0  0  0  0  0  0  0  0  0  0  0  0
  127.5660  129.9130   58.8200 C   0  0  0  0  0  0  0  0  0  0  0  0
  128.6950  128.8400   58.5560 C   0  0  1  0  0  0  0  0  0  0  0  0
  129.3610  129.3070   57.2160 C   0  0  0  0  0  0  0  0  0  0  0  0
  127.9440  127.4790   58.3040 C   0  0  0  0  0  0  0  0  0  0  0  0
  128.5670  126.1470   58.7970 C   0  0  0  0  0  0  0  0  0  0  0  0
  130.1220  126.1460   58.8040 C   0  0  2  0  0  0  0  0  0  0  0  0
  130.5690  126.3390   57.3110 C   0  0  0  0  0  0  0  0  0  0  0  0
  133.2129  119.0852   60.0005 H   0  0  0  0  0  0  0  0  0  0  0  0
  131.9299  119.8462   58.9997 H   0  0  0  0  0  0  0  0  0  0  0  0
  133.5918  120.5279   58.9997 H   0  0  0  0  0  0  0  0  0  0  0  0
  131.6019  120.5469   61.3712 H   0  0  0  0  0  0  0  0  0  0  0  0
  134.5226  124.4103   61.0645 H   0  0  0  0  0  0  0  0  0  0  0  0
  130.0521  121.4994   59.7703 H   0  0  0  0  0  0  0  0  0  0  0  0
  129.0127  123.6764   59.1572 H   0  0  0  0  0  0  0  0  0  0  0  0
  134.1792  124.4632   58.3662 H   0  0  0  0  0  0  0  0  0  0  0  0
  132.6895  123.8201   57.5956 H   0  0  0  0  0  0  0  0  0  0  0  0
  133.0094  125.5877   57.5956 H   0  0  0  0  0  0  0  0  0  0  0  0
  132.6589  125.9834   61.3202 H   0  0  0  0  0  0  0  0  0  0  0  0
  133.8636  126.2670   59.9538 H   0  0  0  0  0  0  0  0  0  0  0  0
  132.3771  128.2194   60.4710 H   0  0  0  0  0  0  0  0  0  0  0  0
  132.3361  127.5980   58.7607 H   0  0  0  0  0  0  0  0  0  0  0  0
  130.6275  127.3977   62.0851 H   0  0  0  0  0  0  0  0  0  0  0  0
  129.0831  126.7162   61.4713 H   0  0  0  0  0  0  0  0  0  0  0  0
  130.5714  125.7105   61.4713 H   0  0  0  0  0  0  0  0  0  0  0  0
  130.6322  129.2368   59.1748 H   0  0  0  0  0  0  0  0  0  0  0  0
  129.1278  128.8221   61.7398 H   0  0  0  0  0  0  0  0  0  0  0  0
  130.5942  129.8776   61.2846 H   0  0  0  0  0  0  0  0  0  0  0  0
  129.8875  132.6232   60.8921 H   0  0  0  0  0  0  0  0  0  0  0  0
  130.2336  131.4913   59.5409 H   0  0  0  0  0  0  0  0  0  0  0  0
  128.7162  132.4526   59.5409 H   0  0  0  0  0  0  0  0  0  0  0  0
  127.8019  131.5300   65.2627 H   0  0  0  0  0  0  0  0  0  0  0  0
  126.7328  132.2522   64.0223 H   0  0  0  0  0  0  0  0  0  0  0  0
  125.4662  130.8705   65.7647 H   0  0  0  0  0  0  0  0  0  0  0  0
  125.2332  130.2689   64.0945 H   0  0  0  0  0  0  0  0  0  0  0  0
  126.4614  126.5412   66.9327 H   0  0  0  0  0  0  0  0  0  0  0  0
  128.0116  127.1981   66.2140 H   0  0  0  0  0  0  0  0  0  0  0  0
  131.6299  127.3953   69.3837 H   0  0  0  0  0  0  0  0  0  0  0  0
  129.6373  127.9380   72.5626 H   0  0  0  0  0  0  0  0  0  0  0  0
  130.6339  127.8096   74.8437 H   0  0  0  0  0  0  0  0  0  0  0  0
  134.3521  126.4085   73.1438 H   0  0  0  0  0  0  0  0  0  0  0  0
  133.3573  126.5372   70.8614 H   0  0  0  0  0  0  0  0  0  0  0  0
  127.5934  127.4173   64.5809 H   0  0  0  0  0  0  0  0  0  0  0  0
  126.5445  128.1980   63.3722 H   0  0  0  0  0  0  0  0  0  0  0  0
  129.1037  129.4069   64.6223 H   0  0  0  0  0  0  0  0  0  0  0  0
  128.9446  128.8058   62.9450 H   0  0  0  0  0  0  0  0  0  0  0  0
  126.9036  129.5825   60.8406 H   0  0  0  0  0  0  0  0  0  0  0  0
  126.7465  131.2917   60.2338 H   0  0  0  0  0  0  0  0  0  0  0  0
  126.6121  129.4780   58.4872 H   0  0  0  0  0  0  0  0  0  0  0  0
  127.8901  130.8068   58.2667 H   0  0  0  0  0  0  0  0  0  0  0  0
  130.2427  129.9252   57.4407 H   0  0  0  0  0  0  0  0  0  0  0  0
  129.6695  128.4264   56.6335 H   0  0  0  0  0  0  0  0  0  0  0  0
  128.6382  129.8971   56.6335 H   0  0  0  0  0  0  0  0  0  0  0  0
  126.9587  127.5661   58.7853 H   0  0  0  0  0  0  0  0  0  0  0  0
  127.9645  127.3778   57.2089 H   0  0  0  0  0  0  0  0  0  0  0  0
  128.2155  125.9582   59.8221 H   0  0  0  0  0  0  0  0  0  0  0  0
  128.2493  125.3646   58.0921 H   0  0  0  0  0  0  0  0  0  0  0  0
  131.5786  126.7749   57.2839 H   0  0  0  0  0  0  0  0  0  0  0  0
  130.5768  125.3641   56.8016 H   0  0  0  0  0  0  0  0  0  0  0  0
  129.8647  127.0132   56.8016 H   0  0  0  0  0  0  0  0  0  0  0  0
  1  2  1  0
  2  3  1  0
  3  4  2  0
  3  5  1  0
  5  6  2  0
  5  7  1  0
  7  8  2  0
  8  9  1  0
  9 10  2  0
 10 11  1  0
 11 12  2  0
 12 13  1  0
 13 14  1  6
 13 15  1  0
 15 16  1  0
 16 17  1  0
 17 18  1  1
 17 19  1  0
 19 20  1  0
 20 21  1  0
 21 22  1  6
 21 23  1  0
 23 24  2  0
 23 25  1  0
 25 26  1  0
 26 27  1  0
 27 28  1  0
 28 29  1  0
 29 30  2  0
 29 31  1  0
 31 32  1  0
 32 33  1  0
 33 34  2  0
 33 35  1  0
 35 36  1  0
 36 37  2  0
 37 38  1  0
 38 39  2  0
 39 40  1  0
 40 41  2  0
 41 42  1  0
 41 43  1  0
 43 44  2  0
 36 45  1  0
 45 46  2  0
 28 47  1  0
 47 48  1  0
 21 49  1  0
 49 50  1  0
 50 51  1  0
 51 52  1  6
 51 53  1  0
 53 54  1  0
 54 55  1  0
 55 56  1  6
  9  2  1  0
 55 12  1  0
 13  8  1  0
 55 17  1  0
 51 19  1  0
 48 25  1  0
 45 32  1  0
 44 38  1  0
  1 57  1  0
  1 58  1  0
  1 59  1  0
  2 60  1  1
  7 61  1  0
 10 62  1  0
 11 63  1  0
 14 64  1  0
 14 65  1  0
 14 66  1  0
 15 67  1  0
 15 68  1  0
 16 69  1  0
 16 70  1  0
 18 71  1  0
 18 72  1  0
 18 73  1  0
 19 74  1  6
 20 75  1  0
 20 76  1  0
 22 77  1  0
 22 78  1  0
 22 79  1  0
 26 80  1  0
 26 81  1  0
 27 82  1  0
 27 83  1  0
 31 84  1  0
 31 85  1  0
 37 86  1  0
 39 87  1  0
 40 88  1  0
 43 89  1  0
 44 90  1  0
 47 91  1  0
 47 92  1  0
 48 93  1  0
 48 94  1  0
 49 95  1  0
 49 96  1  0
 50 97  1  0
 50 98  1  0
 52 99  1  0
 52100  1  0
 52101  1  0
 53102  1  0
 53103  1  0
 54104  1  0
 54105  1  0
 56106  1  0
 56107  1  0
 56108  1  0
M  END
>  <Binding energies>  (1) 
[19.18]

>  <Ligand effiencies>  (1) 
[0.34249999999999997]

>  <Interactions>  (1) 
["V-A:ILE:369:CG2:3237, V-A:ASP:366:CA:3210, V-A:ARG:545:CA:4919, V-A:GLY:454:CA:4049, V-B:GLU:543:C:9874, H-A:ALA:541:N:4891, V-B:GLU:543:CB:9878, V-B:TYR:539:CE2:9848, V-B:GLU:543:CG:9879, V-A:GLY:544:C:4912, V-A:ASP:366:CG:3213, V-A:HIS:456:CD2:4068, H-B:HIS:456:ND1:9038, V-B:TYR:484:CE2:9317, V-B:TYR:539:CZ:9849, V-A:LYS:547:CG:4948, V-A:LYS:547:CB:4947, V-A:HIS:456:CB:4065, H-B:ARG:545:N:9892, V-A:LYS:547:CD:4949, V-A:GLU:543:CD:4908, H-B:TYR:484:OH:9319, V-B:HIS:456:CE1:9041, H-A:GLY:454:N:4050, V-A:SER:385:C:3405, V-B:TYR:484:CZ:9318, V-A:ILE:369:CD1:3239, V-A:HIS:456:CE1:4070, V-A:ASP:366:C:3208, V-B:GLY:544:C:9884, V-A:HIS:456:CA:4063, V-B:TYR:539:CD2:9846, V-A:GLU:543:CG:4907, V-A:SER:385:CB:3409, H-A:SER:385:OG:3410, V-B:GLU:543:CD:9880, V-A:MET:535:CE:4835, V-A:ASP:366:CB:3212, V-A:LEU:475:CD2:4259, V-A:ARG:545:C:4917, V-A:GLU:543:CB:4906, V-A:HIS:456:CG:4066, V-A:PRO:540:CA:4883, V-A:LYS:547:CE:4950, V-A:SER:385:CA:3407"]

$$$$
ZINC2384492892
     RDKit          3D

 69 72  0  0  0  0  0  0  0  0999 V2000
  129.1450  125.9590   73.2600 N   0  0  0  0  0  0  0  0  0  0  0  0
  129.0070  126.4150   72.2050 C   0  0  0  0  0  0  0  0  0  0  0  0
  128.8340  126.9870   70.8790 C   0  0  0  0  0  0  0  0  0  0  0  0
  129.7960  127.8600   70.3670 C   0  0  0  0  0  0  0  0  0  0  0  0
  129.6290  128.4060   69.0960 C   0  0  0  0  0  0  0  0  0  0  0  0
  128.5030  128.0810   68.3290 C   0  0  0  0  0  0  0  0  0  0  0  0
  128.2950  128.6450   66.9800 C   0  0  0  0  0  0  0  0  0  0  0  0
  128.4030  127.9680   65.8210 C   0  0  0  0  0  0  0  0  0  0  0  0
  128.1420  128.5530   64.4430 C   0  0  0  0  0  0  0  0  0  0  0  0
  128.3420  127.5270   63.3020 N   0  0  1  0  0  0  0  0  0  0  0  0
  127.8470  128.0420   61.9300 C   0  0  0  0  0  0  0  0  0  0  0  0
  128.4310  129.4360   61.6330 C   0  0  0  0  0  0  0  0  0  0  0  0
  129.3460  129.4870   60.3880 C   0  0  0  0  0  0  0  0  0  0  0  0
  130.6370  130.3430   60.5130 C   0  0  2  0  0  0  0  0  0  0  0  0
  131.5170  129.7330   61.6170 N   0  0  0  0  0  0  0  0  0  0  0  0
  130.3440  131.8240   60.8790 C   0  0  0  0  0  0  0  0  0  0  0  0
  130.8410  132.2300   61.9520 O   0  0  0  0  0  0  0  0  0  0  0  0
  129.6650  132.5430   60.1080 O   0  0  0  0  0  0  0  0  0  0  0  0
  129.7910  126.9790   63.2260 C   0  0  0  0  0  0  0  0  0  0  0  0
  129.9120  125.5950   63.9110 C   0  0  1  0  0  0  0  0  0  0  0  0
  130.3260  124.7090   62.8760 O   0  0  0  0  0  0  0  0  0  0  0  0
  131.5590  124.1150   63.1510 C   0  0  1  0  0  0  0  0  0  0  0  0
  132.3110  123.8620   61.8580 N   0  0  0  0  0  0  0  0  0  0  0  0
  133.0820  122.7970   61.5600 C   0  0  0  0  0  0  0  0  0  0  0  0
  133.5790  122.8260   60.3500 N   0  0  0  0  0  0  0  0  0  0  0  0
  133.0800  123.9500   59.8120 C   0  0  0  0  0  0  0  0  0  0  0  0
  133.2310  124.5190   58.5250 C   0  0  0  0  0  0  0  0  0  0  0  0
  134.0110  123.9440   57.5250 N   0  0  0  0  0  0  0  0  0  0  0  0
  132.5750  125.6800   58.2540 N   0  0  0  0  0  0  0  0  0  0  0  0
  131.8180  126.2160   59.2220 C   0  0  0  0  0  0  0  0  0  0  0  0
  131.6000  125.7720   60.4690 N   0  0  0  0  0  0  0  0  0  0  0  0
  132.2750  124.6200   60.7160 C   0  0  0  0  0  0  0  0  0  0  0  0
  132.2360  125.0150   64.1840 C   0  0  2  0  0  0  0  0  0  0  0  0
  133.2380  124.3020   64.8890 O   0  0  0  0  0  0  0  0  0  0  0  0
  131.0110  125.4520   64.9830 C   0  0  2  0  0  0  0  0  0  0  0  0
  130.6340  124.5440   66.0050 O   0  0  0  0  0  0  0  0  0  0  0  0
  127.5450  127.2090   68.8510 C   0  0  0  0  0  0  0  0  0  0  0  0
  127.7070  126.6610   70.1210 C   0  0  0  0  0  0  0  0  0  0  0  0
  130.6829  128.1159   70.9652 H   0  0  0  0  0  0  0  0  0  0  0  0
  130.3852  129.0957   68.6930 H   0  0  0  0  0  0  0  0  0  0  0  0
  128.0288  129.7104   66.9165 H   0  0  0  0  0  0  0  0  0  0  0  0
  128.7030  126.9111   65.8759 H   0  0  0  0  0  0  0  0  0  0  0  0
  127.1050  128.9182   64.4080 H   0  0  0  0  0  0  0  0  0  0  0  0
  128.8688  129.3639   64.2871 H   0  0  0  0  0  0  0  0  0  0  0  0
  127.7620  126.7320   63.5350 H   0  0  0  0  0  0  0  0  0  0  0  0
  128.1657  127.3413   61.1442 H   0  0  0  0  0  0  0  0  0  0  0  0
  126.7496  128.1140   61.9525 H   0  0  0  0  0  0  0  0  0  0  0  0
  127.5954  130.1339   61.4759 H   0  0  0  0  0  0  0  0  0  0  0  0
  129.0562  129.7076   62.4964 H   0  0  0  0  0  0  0  0  0  0  0  0
  129.6496  128.4561   60.1535 H   0  0  0  0  0  0  0  0  0  0  0  0
  128.7468  129.9751   59.6052 H   0  0  0  0  0  0  0  0  0  0  0  0
  131.1385  130.3364   59.5340 H   0  0  0  0  0  0  0  0  0  0  0  0
  131.5970  130.3740   62.3930 H   0  0  0  0  0  0  0  0  0  0  0  0
  132.4420  129.5450   61.2570 H   0  0  0  0  0  0  0  0  0  0  0  0
  131.1150  128.8640   61.9410 H   0  0  0  0  0  0  0  0  0  0  0  0
  130.0811  126.8813   62.1694 H   0  0  0  0  0  0  0  0  0  0  0  0
  130.4537  127.6827   63.7510 H   0  0  0  0  0  0  0  0  0  0  0  0
  128.9470  125.4088   64.4051 H   0  0  0  0  0  0  0  0  0  0  0  0
  131.4933  123.1101   63.5936 H   0  0  0  0  0  0  0  0  0  0  0  0
  133.2755  121.9786   62.2691 H   0  0  0  0  0  0  0  0  0  0  0  0
  134.3040  122.9820   57.6160 H   0  0  0  0  0  0  0  0  0  0  0  0
  134.2650  124.4940   56.7170 H   0  0  0  0  0  0  0  0  0  0  0  0
  131.3034  127.1512   58.9564 H   0  0  0  0  0  0  0  0  0  0  0  0
  132.8120  125.8765   63.8152 H   0  0  0  0  0  0  0  0  0  0  0  0
  132.8620  123.9770   65.7100 H   0  0  0  0  0  0  0  0  0  0  0  0
  131.2072  126.3812   65.5380 H   0  0  0  0  0  0  0  0  0  0  0  0
  131.3460  123.9140   66.1380 H   0  0  0  0  0  0  0  0  0  0  0  0
  126.6565  126.9533   68.2550 H   0  0  0  0  0  0  0  0  0  0  0  0
  126.9497  125.9735   70.5259 H   0  0  0  0  0  0  0  0  0  0  0  0
  1  2  3  0
  2  3  1  0
  3  4  2  0
  4  5  1  0
  5  6  2  0
  6  7  1  0
  7  8  2  0
  8  9  1  0
  9 10  1  0
 10 11  1  0
 11 12  1  0
 12 13  1  0
 13 14  1  0
 14 15  1  0
 14 16  1  0
 16 17  2  0
 16 18  1  0
 10 19  1  0
 19 20  1  0
 20 21  1  0
 21 22  1  0
 22 23  1  0
 23 24  1  0
 24 25  2  0
 25 26  1  0
 26 27  2  0
 27 28  1  0
 27 29  1  0
 29 30  2  0
 30 31  1  0
 31 32  2  0
 22 33  1  0
 33 34  1  0
 33 35  1  0
 35 36  1  0
  6 37  1  0
 37 38  2  0
 38  3  1  0
 35 20  1  0
 32 23  1  0
 32 26  1  0
  4 39  1  0
  5 40  1  0
  7 41  1  0
  8 42  1  0
  9 43  1  0
  9 44  1  0
 10 45  1  1
 11 46  1  0
 11 47  1  0
 12 48  1  0
 12 49  1  0
 13 50  1  0
 13 51  1  0
 14 52  1  6
 15 53  1  0
 15 54  1  0
 15 55  1  0
 19 56  1  0
 19 57  1  0
 20 58  1  1
 22 59  1  1
 24 60  1  0
 28 61  1  0
 28 62  1  0
 30 63  1  0
 33 64  1  6
 34 65  1  0
 35 66  1  1
 36 67  1  0
 37 68  1  0
 38 69  1  0
M  CHG  3  10   1  15   1  18  -1
M  END
>  <Binding energies>  (1) 
[-10.73]

>  <Ligand effiencies>  (1) 
[-0.2332608695652174]

>  <Interactions>  (1) 
["V-A:ILE:369:CG2:3237, V-A:ASP:366:CA:3210, V-A:GLU:543:CA:4904, V-A:ILE:369:C:3232, V-B:GLU:543:C:9874, V-A:ILE:369:CB:3236, V-A:GLU:543:C:4902, H-A:ALA:541:N:4891, V-B:GLU:543:CB:9878, H-B:LYS:547:NZ:9923, V-B:TYR:539:CE2:9848, V-A:ASN:370:CB:3245, V-B:GLU:543:CG:9879, V-A:HIS:456:CD2:4068, V-A:ASP:366:CG:3213, V-B:TYR:539:CZ:9849, H-B:GLU:543:OE1:9881, H-B:TYR:539:OH:9850, V-A:GLU:543:CD:4908, V-B:HIS:456:CE1:9041, H-A:GLY:454:N:4050, V-A:HIS:456:CE1:4070, V-B:GLY:544:C:9884, V-A:ASP:366:C:3208, V-A:ASN:370:CA:3243, V-A:GLU:543:CG:4907, V-B:GLU:543:CD:9880, V-A:ASP:366:CB:3212, V-A:ARG:545:CZ:4926, H-A:GLU:543:OE1:4909, H-A:ASP:366:O:3209, V-A:GLU:543:CB:4906, H-A:ASP:366:OD1:3214, H-B:GLU:543:OE2:9882, V-A:PRO:540:CA:4883, H-A:ASP:366:OD2:3215, H-A:TYR:484:OH:4348"]

$$$$
ZINC2384495335
     RDKit          3D

 40 43  0  0  0  0  0  0  0  0999 V2000
  132.9150  122.3550   60.4250 C   0  0  0  0  0  0  0  0  0  0  0  0
  133.1400  123.8820   60.5840 C   0  0  0  0  0  0  0  0  0  0  0  0
  134.6420  124.2690   60.7010 C   0  0  0  0  0  0  0  0  0  0  0  0
  132.5960  124.5110   59.2700 C   0  0  0  0  0  0  0  0  0  0  0  0
  133.2820  124.7170   58.2680 O   0  0  0  0  0  0  0  0  0  0  0  0
  131.1210  124.8770   59.3080 C   0  0  0  0  0  0  0  0  0  0  0  0
  130.8690  125.8710   60.4440 C   0  0  0  0  0  0  0  0  0  0  0  0
  131.3330  125.3600   61.8190 C   0  0  0  0  0  0  0  0  0  0  0  0
  132.3840  124.3980   61.8500 C   0  0  0  0  0  0  0  0  0  0  0  0
  132.7600  123.8710   63.0900 C   0  0  0  0  0  0  0  0  0  0  0  0
  132.1530  124.2550   64.2700 C   0  0  0  0  0  0  0  0  0  0  0  0
  131.1560  125.2180   64.2560 C   0  0  0  0  0  0  0  0  0  0  0  0
  130.7420  125.8140   63.0380 C   0  0  0  0  0  0  0  0  0  0  0  0
  129.7280  126.9590   63.0850 C   0  0  0  0  0  0  0  0  0  0  0  0
  129.4420  127.6900   62.1360 O   0  0  0  0  0  0  0  0  0  0  0  0
  128.9830  127.2720   64.4440 C   0  0  0  0  0  0  0  0  0  0  0  0
  128.0490  128.0750   64.4170 O   0  0  0  0  0  0  0  0  0  0  0  0
  129.4780  126.5810   65.6280 C   0  0  0  0  0  0  0  0  0  0  0  0
  129.1180  126.6750   66.9860 C   0  0  0  0  0  0  0  0  0  0  0  0
  128.0530  127.5380   67.6300 C   0  0  0  0  0  0  0  0  0  0  0  0
  127.6090  128.5060   66.7040 O   0  0  0  0  0  0  0  0  0  0  0  0
  129.9530  125.7570   67.6190 C   0  0  0  0  0  0  0  0  0  0  0  0
  130.7820  125.1380   66.7410 O   0  0  0  0  0  0  0  0  0  0  0  0
  130.4890  125.6440   65.5200 C   0  0  0  0  0  0  0  0  0  0  0  0
  132.8463  121.8890   61.4191 H   0  0  0  0  0  0  0  0  0  0  0  0
  131.9810  122.1777   59.8716 H   0  0  0  0  0  0  0  0  0  0  0  0
  133.7581  121.9158   59.8716 H   0  0  0  0  0  0  0  0  0  0  0  0
  134.9205  124.3408   61.7627 H   0  0  0  0  0  0  0  0  0  0  0  0
  135.2579  123.5002   60.2115 H   0  0  0  0  0  0  0  0  0  0  0  0
  134.8097  125.2397   60.2115 H   0  0  0  0  0  0  0  0  0  0  0  0
  130.8323  125.3345   58.3502 H   0  0  0  0  0  0  0  0  0  0  0  0
  130.5231  123.9693   59.4769 H   0  0  0  0  0  0  0  0  0  0  0  0
  131.4088  126.8024   60.2181 H   0  0  0  0  0  0  0  0  0  0  0  0
  129.7815  126.0243   60.5053 H   0  0  0  0  0  0  0  0  0  0  0  0
  133.5673  123.1247   63.1268 H   0  0  0  0  0  0  0  0  0  0  0  0
  132.4610  123.7964   65.2212 H   0  0  0  0  0  0  0  0  0  0  0  0
  127.2054  126.9072   67.9360 H   0  0  0  0  0  0  0  0  0  0  0  0
  128.4732  128.0410   68.5134 H   0  0  0  0  0  0  0  0  0  0  0  0
  126.9770  128.0950   66.1100 H   0  0  0  0  0  0  0  0  0  0  0  0
  129.9417  125.5578   68.7008 H   0  0  0  0  0  0  0  0  0  0  0  0
  1  2  1  0
  2  3  1  0
  2  4  1  0
  4  5  2  0
  4  6  1  0
  6  7  1  0
  7  8  1  0
  8  9  2  0
  9 10  1  0
 10 11  2  0
 11 12  1  0
 12 13  2  0
 13 14  1  0
 14 15  2  0
 14 16  1  0
 16 17  2  0
 16 18  1  0
 18 19  1  0
 19 20  1  0
 20 21  1  0
 19 22  2  0
 22 23  1  0
 23 24  1  0
  9  2  1  0
 24 12  1  0
 13  8  1  0
 24 18  2  0
  1 25  1  0
  1 26  1  0
  1 27  1  0
  3 28  1  0
  3 29  1  0
  3 30  1  0
  6 31  1  0
  6 32  1  0
  7 33  1  0
  7 34  1  0
 10 35  1  0
 11 36  1  0
 20 37  1  0
 20 38  1  0
 21 39  1  0
 22 40  1  0
M  END
>  <Binding energies>  (1) 
[-6.38]

>  <Ligand effiencies>  (1) 
[-0.2552]

>  <Interactions>  (1) 
["V-A:ILE:369:CG2:3237, V-A:ASP:366:CA:3210, V-A:HIS:456:CE1:4070, V-A:ILE:369:CD1:3239, H-B:GLU:543:OE2:9882, V-A:ILE:369:CB:3236, V-B:GLU:543:CB:9878, H-B:TYR:539:OH:9850, V-B:GLU:543:CD:9880, V-A:GLU:543:CD:4908, V-B:TYR:539:CE2:9848, V-A:ASP:366:CB:3212, V-A:ILE:369:CG1:3238, V-B:GLU:543:CG:9879, V-B:HIS:456:CE1:9041, V-A:ASP:366:CG:3213, H-A:TYR:484:OH:4348"]

$$$$
ZINC2384495445
     RDKit          3D

130133  0  0  0  0  0  0  0  0999 V2000
  130.8700  125.9920   57.4680 C   0  0  0  0  0  0  0  0  0  0  0  0
  130.8420  127.2170   58.1860 O   0  0  0  0  0  0  0  0  0  0  0  0
  131.4780  127.3370   59.3800 C   0  0  0  0  0  0  0  0  0  0  0  0
  132.1690  126.4500   59.8840 O   0  0  0  0  0  0  0  0  0  0  0  0
  131.2690  128.5820   59.9790 N   0  0  0  0  0  0  0  0  0  0  0  0
  130.4460  129.6650   59.3990 C   0  0  2  0  0  0  0  0  0  0  0  0
  128.9700  129.2060   59.2710 C   0  0  0  0  0  0  0  0  0  0  0  0
  128.1050  130.0100   58.9210 O   0  0  0  0  0  0  0  0  0  0  0  0
  128.7180  127.9220   59.5840 N   0  0  0  0  0  0  0  0  0  0  0  0
  127.3970  127.2850   59.5450 C   0  0  1  0  0  0  0  0  0  0  0  0
  127.0120  126.9140   58.0910 C   0  0  0  0  0  0  0  0  0  0  0  0
  126.8640  125.4140   57.8680 C   0  0  0  0  0  0  0  0  0  0  0  0
  125.6500  124.7870   58.1600 C   0  0  0  0  0  0  0  0  0  0  0  0
  125.5070  123.4190   57.9500 C   0  0  0  0  0  0  0  0  0  0  0  0
  126.5790  122.6810   57.4510 C   0  0  0  0  0  0  0  0  0  0  0  0
  127.7930  123.3000   57.1610 C   0  0  0  0  0  0  0  0  0  0  0  0
  127.9360  124.6700   57.3650 C   0  0  0  0  0  0  0  0  0  0  0  0
  127.2960  126.0840   60.5350 C   0  0  2  0  0  0  0  0  0  0  0  0
  127.7100  126.4390   61.9840 C   0  0  0  0  0  0  0  0  0  0  0  0
  129.1290  126.7970   62.1070 N   0  0  0  0  0  0  0  0  0  0  0  0
  129.9660  125.9120   62.9330 C   0  0  0  0  0  0  0  0  0  0  0  0
  129.7860  126.2130   64.4120 C   0  0  0  0  0  0  0  0  0  0  0  0
  128.9200  127.2250   64.8240 C   0  0  0  0  0  0  0  0  0  0  0  0
  128.7500  127.4880   66.1800 C   0  0  0  0  0  0  0  0  0  0  0  0
  129.4520  126.7600   67.1530 C   0  0  0  0  0  0  0  0  0  0  0  0
  129.2570  127.0420   68.6130 C   0  0  0  0  0  0  0  0  0  0  0  0
  130.2730  127.5820   69.4220 C   0  0  0  0  0  0  0  0  0  0  0  0
  130.0180  127.8220   70.7730 C   0  0  0  0  0  0  0  0  0  0  0  0
  128.7630  127.5180   71.3020 C   0  0  0  0  0  0  0  0  0  0  0  0
  127.8010  126.9760   70.4520 C   0  0  0  0  0  0  0  0  0  0  0  0
  128.0340  126.7350   69.1370 N   0  0  0  0  0  0  0  0  0  0  0  0
  130.3280  125.7510   66.7180 C   0  0  0  0  0  0  0  0  0  0  0  0
  130.4950  125.4800   65.3630 C   0  0  0  0  0  0  0  0  0  0  0  0
  129.3390  128.1780   62.3530 N   0  0  0  0  0  0  0  0  0  0  0  0
  128.3580  129.1110   62.3090 C   0  0  0  0  0  0  0  0  0  0  0  0
  127.1740  128.8700   62.0510 O   0  0  0  0  0  0  0  0  0  0  0  0
  128.8010  130.5580   62.6600 C   0  0  1  0  0  0  0  0  0  0  0  0
  128.6960  131.3500   61.4140 N   0  0  0  0  0  0  0  0  0  0  0  0
  129.5480  132.3980   61.0610 C   0  0  0  0  0  0  0  0  0  0  0  0
  129.4120  133.0650   60.0350 O   0  0  0  0  0  0  0  0  0  0  0  0
  130.5410  132.5910   61.9640 O   0  0  0  0  0  0  0  0  0  0  0  0
  131.7320  131.8190   61.9140 C   0  0  0  0  0  0  0  0  0  0  0  0
  127.9620  131.1610   63.8640 C   0  0  0  0  0  0  0  0  0  0  0  0
  127.5380  130.0690   64.8840 C   0  0  0  0  0  0  0  0  0  0  0  0
  128.8040  132.1990   64.6480 C   0  0  0  0  0  0  0  0  0  0  0  0
  126.6810  131.8940   63.3770 C   0  0  0  0  0  0  0  0  0  0  0  0
  128.0900  124.9780   60.0960 O   0  0  0  0  0  0  0  0  0  0  0  0
  128.3450  123.9200   60.8950 C   0  0  0  0  0  0  0  0  0  0  0  0
  128.1480  123.8710   62.1140 O   0  0  0  0  0  0  0  0  0  0  0  0
  128.8390  122.9320   60.1030 O   0  0  0  0  0  0  0  0  0  0  0  0
  130.2030  122.6020   60.2360 C   0  0  1  0  0  0  0  0  0  0  0  0
  130.8800  123.5160   61.0620 O   0  0  0  0  0  0  0  0  0  0  0  0
  132.1900  123.8020   60.7730 C   0  0  0  0  0  0  0  0  0  0  0  0
  132.7360  123.6390   59.6770 O   0  0  0  0  0  0  0  0  0  0  0  0
  132.9900  124.3590   61.9790 C   0  0  0  0  0  0  0  0  0  0  0  0
  132.8560  125.7890   62.2150 N   0  0  0  0  0  0  0  0  0  0  0  0
  133.1340  123.4720   63.2030 C   0  0  0  0  0  0  0  0  0  0  0  0
  134.3280  123.7250   62.3180 C   0  0  0  0  0  0  0  0  0  0  0  0
  130.2980  121.2210   60.9170 C   0  0  0  0  0  0  0  0  0  0  0  0
  129.7910  121.2850   62.3700 C   0  0  0  0  0  0  0  0  0  0  0  0
  131.7120  120.6000   60.8380 C   0  0  0  0  0  0  0  0  0  0  0  0
  131.0820  130.2760   58.0920 C   0  0  0  0  0  0  0  0  0  0  0  0
  130.2460  129.9220   56.8340 C   0  0  0  0  0  0  0  0  0  0  0  0
  131.1350  131.8220   58.1970 C   0  0  0  0  0  0  0  0  0  0  0  0
  132.5330  129.7700   57.8700 C   0  0  0  0  0  0  0  0  0  0  0  0
  130.8892  125.1515   58.1774 H   0  0  0  0  0  0  0  0  0  0  0  0
  129.9733  125.9173   56.8352 H   0  0  0  0  0  0  0  0  0  0  0  0
  131.7691  125.9583   56.8352 H   0  0  0  0  0  0  0  0  0  0  0  0
  131.7390  128.7790   60.8510 H   0  0  0  0  0  0  0  0  0  0  0  0
  130.4349  130.5196   60.0915 H   0  0  0  0  0  0  0  0  0  0  0  0
  129.4920  127.3290   59.8470 H   0  0  0  0  0  0  0  0  0  0  0  0
  126.6525  128.0145   59.8965 H   0  0  0  0  0  0  0  0  0  0  0  0
  126.0545  127.3985   57.8494 H   0  0  0  0  0  0  0  0  0  0  0  0
  127.8289  127.2599   57.4405 H   0  0  0  0  0  0  0  0  0  0  0  0
  124.8082  125.3743   58.5555 H   0  0  0  0  0  0  0  0  0  0  0  0
  124.5522  122.9221   58.1768 H   0  0  0  0  0  0  0  0  0  0  0  0
  126.4654  121.5996   57.2846 H   0  0  0  0  0  0  0  0  0  0  0  0
  128.6353  122.7088   56.7724 H   0  0  0  0  0  0  0  0  0  0  0  0
  128.8897  125.1658   57.1311 H   0  0  0  0  0  0  0  0  0  0  0  0
  126.2301  125.8123   60.5419 H   0  0  0  0  0  0  0  0  0  0  0  0
  127.1033  127.2919   62.3223 H   0  0  0  0  0  0  0  0  0  0  0  0
  127.5431  125.5439   62.6012 H   0  0  0  0  0  0  0  0  0  0  0  0
  129.6814  124.8668   62.7418 H   0  0  0  0  0  0  0  0  0  0  0  0
  131.0202  126.0801   62.6678 H   0  0  0  0  0  0  0  0  0  0  0  0
  128.3706  127.8161   64.0765 H   0  0  0  0  0  0  0  0  0  0  0  0
  128.0539  128.2796   66.4943 H   0  0  0  0  0  0  0  0  0  0  0  0
  131.2595  127.8130   68.9938 H   0  0  0  0  0  0  0  0  0  0  0  0
  130.8015  128.2482   71.4168 H   0  0  0  0  0  0  0  0  0  0  0  0
  128.5388  127.7016   72.3631 H   0  0  0  0  0  0  0  0  0  0  0  0
  126.8106  126.7332   70.8645 H   0  0  0  0  0  0  0  0  0  0  0  0
  130.8908  125.1659   67.4603 H   0  0  0  0  0  0  0  0  0  0  0  0
  131.1867  124.6871   65.0422 H   0  0  0  0  0  0  0  0  0  0  0  0
  130.2960  128.3990   62.5840 H   0  0  0  0  0  0  0  0  0  0  0  0
  129.8394  130.5771   63.0224 H   0  0  0  0  0  0  0  0  0  0  0  0
  127.9350  131.1220   60.7910 H   0  0  0  0  0  0  0  0  0  0  0  0
  132.0701  131.5998   62.9375 H   0  0  0  0  0  0  0  0  0  0  0  0
  131.5357  130.8759   61.3829 H   0  0  0  0  0  0  0  0  0  0  0  0
  132.5127  132.3833   61.3829 H   0  0  0  0  0  0  0  0  0  0  0  0
  127.6844  130.4461   65.9069 H   0  0  0  0  0  0  0  0  0  0  0  0
  126.4774  129.8189   64.7337 H   0  0  0  0  0  0  0  0  0  0  0  0
  128.1519  129.1687   64.7337 H   0  0  0  0  0  0  0  0  0  0  0  0
  128.6727  132.0371   65.7281 H   0  0  0  0  0  0  0  0  0  0  0  0
  129.8660  132.0826   64.3862 H   0  0  0  0  0  0  0  0  0  0  0  0
  128.4710  133.2142   64.3862 H   0  0  0  0  0  0  0  0  0  0  0  0
  126.0967  132.2283   64.2470 H   0  0  0  0  0  0  0  0  0  0  0  0
  126.9659  132.7658   62.7697 H   0  0  0  0  0  0  0  0  0  0  0  0
  126.0737  131.2067   62.7697 H   0  0  0  0  0  0  0  0  0  0  0  0
  130.6578  122.6136   59.2345 H   0  0  0  0  0  0  0  0  0  0  0  0
  133.4860  126.2900   61.6050 H   0  0  0  0  0  0  0  0  0  0  0  0
  131.9230  126.0830   61.9600 H   0  0  0  0  0  0  0  0  0  0  0  0
  133.0928  123.9139   64.2095 H   0  0  0  0  0  0  0  0  0  0  0  0
  132.6202  122.5735   63.5754 H   0  0  0  0  0  0  0  0  0  0  0  0
  135.1569  124.3514   62.6795 H   0  0  0  0  0  0  0  0  0  0  0  0
  135.0439  123.0872   61.7788 H   0  0  0  0  0  0  0  0  0  0  0  0
  129.6389  120.5475   60.3496 H   0  0  0  0  0  0  0  0  0  0  0  0
  130.6410  121.1777   63.0600 H   0  0  0  0  0  0  0  0  0  0  0  0
  129.2975  122.2526   62.5439 H   0  0  0  0  0  0  0  0  0  0  0  0
  129.0725  120.4704   62.5439 H   0  0  0  0  0  0  0  0  0  0  0  0
  132.0958  120.4314   61.8550 H   0  0  0  0  0  0  0  0  0  0  0  0
  131.6619  119.6411   60.3014 H   0  0  0  0  0  0  0  0  0  0  0  0
  132.3842  121.2857   60.3014 H   0  0  0  0  0  0  0  0  0  0  0  0
  129.2740  129.5104   57.1436 H   0  0  0  0  0  0  0  0  0  0  0  0
  130.0854  130.8293   56.2332 H   0  0  0  0  0  0  0  0  0  0  0  0
  130.7858  129.1752   56.2332 H   0  0  0  0  0  0  0  0  0  0  0  0
  131.1451  132.1174   59.2565 H   0  0  0  0  0  0  0  0  0  0  0  0
  132.0464  132.1919   57.7045 H   0  0  0  0  0  0  0  0  0  0  0  0
  130.2511  132.2535   57.7045 H   0  0  0  0  0  0  0  0  0  0  0  0
  133.0157  129.6017   58.8440 H   0  0  0  0  0  0  0  0  0  0  0  0
  132.5099  128.8269   57.3044 H   0  0  0  0  0  0  0  0  0  0  0  0
  133.1014  130.5230   57.3044 H   0  0  0  0  0  0  0  0  0  0  0  0
  1  2  1  0
  2  3  1  0
  3  4  2  0
  3  5  1  0
  5  6  1  0
  6  7  1  0
  7  8  2  0
  7  9  1  0
  9 10  1  0
 10 11  1  0
 11 12  1  0
 12 13  2  0
 13 14  1  0
 14 15  2  0
 15 16  1  0
 16 17  2  0
 10 18  1  0
 18 19  1  0
 19 20  1  0
 20 21  1  0
 21 22  1  0
 22 23  2  0
 23 24  1  0
 24 25  2  0
 25 26  1  0
 26 27  2  0
 27 28  1  0
 28 29  2  0
 29 30  1  0
 30 31  2  0
 25 32  1  0
 32 33  2  0
 20 34  1  0
 34 35  1  0
 35 36  2  0
 35 37  1  0
 37 38  1  0
 38 39  1  0
 39 40  2  0
 39 41  1  0
 41 42  1  0
 37 43  1  0
 43 44  1  0
 43 45  1  0
 43 46  1  0
 18 47  1  0
 47 48  1  0
 48 49  2  0
 48 50  1  0
 50 51  1  0
 51 52  1  0
 52 53  1  0
 53 54  2  0
 53 55  1  0
 55 56  1  0
 55 57  1  0
 57 58  1  0
 51 59  1  0
 59 60  1  0
 59 61  1  0
  6 62  1  0
 62 63  1  0
 62 64  1  0
 62 65  1  0
 17 12  1  0
 33 22  1  0
 58 55  1  0
 31 26  1  0
  1 66  1  0
  1 67  1  0
  1 68  1  0
  5 69  1  0
  6 70  1  1
  9 71  1  0
 10 72  1  1
 11 73  1  0
 11 74  1  0
 13 75  1  0
 14 76  1  0
 15 77  1  0
 16 78  1  0
 17 79  1  0
 18 80  1  1
 19 81  1  0
 19 82  1  0
 21 83  1  0
 21 84  1  0
 23 85  1  0
 24 86  1  0
 27 87  1  0
 28 88  1  0
 29 89  1  0
 30 90  1  0
 32 91  1  0
 33 92  1  0
 34 93  1  0
 37 94  1  1
 38 95  1  0
 42 96  1  0
 42 97  1  0
 42 98  1  0
 44 99  1  0
 44100  1  0
 44101  1  0
 45102  1  0
 45103  1  0
 45104  1  0
 46105  1  0
 46106  1  0
 46107  1  0
 51108  1  6
 56109  1  0
 56110  1  0
 57111  1  0
 57112  1  0
 58113  1  0
 58114  1  0
 59115  1  0
 60116  1  0
 60117  1  0
 60118  1  0
 61119  1  0
 61120  1  0
 61121  1  0
 63122  1  0
 63123  1  0
 63124  1  0
 64125  1  0
 64126  1  0
 64127  1  0
 65128  1  0
 65129  1  0
 65130  1  0
M  END
>  <Binding energies>  (1) 
[-8.7]

>  <Ligand effiencies>  (1) 
[-0.12253521126760562]

>  <Interactions>  (1) 
["V-B:PRO:540:CA:9855, V-A:GLY:454:CA:4049, V-B:GLU:543:C:9874, H-A:GLU:543:OE2:4910, V-B:HIS:456:CD2:9039, H-A:ALA:541:N:4891, V-B:GLU:543:CB:9878, V-A:PRO:540:C:4881, V-B:ALA:541:CB:9864, H-A:TYR:531:OH:4795, V-B:TYR:539:CE2:9848, V-B:GLU:543:CG:9879, V-B:TYR:539:C:9839, V-A:ASP:366:CG:3213, V-B:TYR:484:CE2:9317, V-B:TYR:539:CZ:9849, V-A:TYR:531:CE2:4793, V-A:ALA:541:CB:4892, V-A:GLU:543:CD:4908, V-B:PRO:540:CB:9857, V-B:HIS:456:CE1:9041, V-A:GLY:453:C:4042, V-B:PRO:540:N:9856, V-A:HIS:456:CE1:4070, V-B:TYR:484:CZ:9318, V-A:ILE:369:CD1:3239, V-B:GLY:544:C:9884, V-B:TYR:539:CD2:9846, V-A:TYR:531:CZ:4794, V-B:PRO:540:CD:9859, V-A:GLU:543:CG:4907, V-A:MET:535:CE:4835, V-B:GLU:543:CD:9880, V-A:ASP:366:CB:3212, V-A:LEU:475:CD2:4259, H-A:ARG:545:NH2:4928, H-A:GLU:543:OE1:4909, V-A:GLU:543:CB:4906, H-A:ASP:366:OD1:3214, V-A:PRO:540:CB:4885, V-A:PRO:540:CA:4883, H-A:ASP:366:OD2:3215, V-B:TYR:539:CE1:9847"]

$$$$
ZINC2384502067-again1
     RDKit          3D

 49 51  0  0  0  0  0  0  0  0999 V2000
  129.8690  122.8840   64.9940 C   0  0  0  0  0  0  0  0  0  0  0  0
  129.5900  124.0410   65.7870 O   0  0  0  0  0  0  0  0  0  0  0  0
  130.2850  125.2700   65.5020 C   0  0  1  0  0  0  0  0  0  0  0  0
  131.6160  125.1370   66.2790 C   0  0  0  0  0  0  0  0  0  0  0  0
  130.6010  125.3960   64.0520 C   0  0  0  0  0  0  0  0  0  0  0  0
  130.8290  125.5490   62.8610 C   0  0  0  0  0  0  0  0  0  0  0  0
  131.1220  125.7890   61.4480 C   0  0  0  0  0  0  0  0  0  0  0  0
  131.1460  124.6930   60.5700 C   0  0  0  0  0  0  0  0  0  0  0  0
  131.4120  124.8170   59.2410 N   0  0  0  0  0  0  0  0  0  0  0  0
  131.6600  126.0680   58.7850 C   0  0  0  0  0  0  0  0  0  0  0  0
  131.9390  126.1810   57.4100 N   0  0  0  0  0  0  0  0  0  0  0  0
  131.6480  127.1560   59.5790 N   0  0  0  0  0  0  0  0  0  0  0  0
  131.3890  127.0700   60.9010 C   0  0  0  0  0  0  0  0  0  0  0  0
  131.4060  128.2810   61.6400 N   0  0  0  0  0  0  0  0  0  0  0  0
  129.4830  126.4680   66.0840 C   0  0  0  0  0  0  0  0  0  0  0  0
  128.8410  127.3460   65.2010 C   0  0  0  0  0  0  0  0  0  0  0  0
  128.1070  128.4290   65.6770 C   0  0  0  0  0  0  0  0  0  0  0  0
  127.9970  128.6470   67.0460 C   0  0  0  0  0  0  0  0  0  0  0  0
  128.6030  127.7930   67.9740 C   0  0  0  0  0  0  0  0  0  0  0  0
  128.4330  128.0960   69.3370 N   0  0  0  0  0  0  0  0  0  0  0  0
  128.6850  127.1530   70.1550 N   0  0  0  0  0  0  0  0  0  0  0  0
  128.5220  127.4530   71.5200 C   0  0  0  0  0  0  0  0  0  0  0  0
  129.6750  127.7910   72.2390 C   0  0  0  0  0  0  0  0  0  0  0  0
  129.6170  128.1090   73.5930 C   0  0  0  0  0  0  0  0  0  0  0  0
  128.3930  128.0930   74.2530 C   0  0  0  0  0  0  0  0  0  0  0  0
  127.2300  127.7620   73.5680 C   0  0  0  0  0  0  0  0  0  0  0  0
  127.2940  127.4450   72.2140 C   0  0  0  0  0  0  0  0  0  0  0  0
  129.3360  126.7010   67.4640 C   0  0  0  0  0  0  0  0  0  0  0  0
  130.0753  122.0283   65.6538 H   0  0  0  0  0  0  0  0  0  0  0  0
  129.0000  122.6563   64.3592 H   0  0  0  0  0  0  0  0  0  0  0  0
  130.7462  123.0774   64.3592 H   0  0  0  0  0  0  0  0  0  0  0  0
  131.4131  125.1573   67.3599 H   0  0  0  0  0  0  0  0  0  0  0  0
  132.1014  124.1859   66.0148 H   0  0  0  0  0  0  0  0  0  0  0  0
  132.2800  125.9733   66.0148 H   0  0  0  0  0  0  0  0  0  0  0  0
  130.9409  123.6907   60.9741 H   0  0  0  0  0  0  0  0  0  0  0  0
  131.5990  125.4760   56.7700 H   0  0  0  0  0  0  0  0  0  0  0  0
  132.4760  126.9610   57.0590 H   0  0  0  0  0  0  0  0  0  0  0  0
  131.8380  128.0610   59.1740 H   0  0  0  0  0  0  0  0  0  0  0  0
  132.0730  129.0030   61.4070 H   0  0  0  0  0  0  0  0  0  0  0  0
  130.7590  128.4250   62.4010 H   0  0  0  0  0  0  0  0  0  0  0  0
  128.9179  127.1774   64.1167 H   0  0  0  0  0  0  0  0  0  0  0  0
  127.6139  129.1124   64.9700 H   0  0  0  0  0  0  0  0  0  0  0  0
  127.4201  129.5109   67.4078 H   0  0  0  0  0  0  0  0  0  0  0  0
  130.6465  127.8055   71.7233 H   0  0  0  0  0  0  0  0  0  0  0  0
  130.5353  128.3718   74.1385 H   0  0  0  0  0  0  0  0  0  0  0  0
  128.3451  128.3437   75.3230 H   0  0  0  0  0  0  0  0  0  0  0  0
  126.2635  127.7505   74.0932 H   0  0  0  0  0  0  0  0  0  0  0  0
  126.3709  127.1837   71.6759 H   0  0  0  0  0  0  0  0  0  0  0  0
  129.8106  126.0054   68.1717 H   0  0  0  0  0  0  0  0  0  0  0  0
  1  2  1  0
  2  3  1  0
  3  4  1  0
  3  5  1  6
  5  6  3  0
  6  7  1  0
  7  8  2  0
  8  9  1  0
  9 10  2  0
 10 11  1  0
 10 12  1  0
 12 13  2  0
 13 14  1  0
  3 15  1  0
 15 16  2  0
 16 17  1  0
 17 18  2  0
 18 19  1  0
 19 20  1  0
 20 21  2  0
 21 22  1  0
 22 23  2  0
 23 24  1  0
 24 25  2  0
 25 26  1  0
 26 27  2  0
 19 28  2  0
 13  7  1  0
 28 15  1  0
 27 22  1  0
  1 29  1  0
  1 30  1  0
  1 31  1  0
  4 32  1  0
  4 33  1  0
  4 34  1  0
  8 35  1  0
 11 36  1  0
 11 37  1  0
 12 38  1  0
 14 39  1  0
 14 40  1  0
 16 41  1  0
 17 42  1  0
 18 43  1  0
 23 44  1  0
 24 45  1  0
 25 46  1  0
 26 47  1  0
 27 48  1  0
 28 49  1  0
M  CHG  1  12   1
M  END
>  <Binding energies>  (1) 
[-7.69]

>  <Ligand effiencies>  (1) 
[-0.23303030303030303]

>  <Interactions>  (1) 
["V-B:HIS:456:CD2:9039, H-A:GLU:543:OE2:4910, V-B:GLU:543:CB:9878, V-B:ALA:541:CB:9864, H-A:TYR:531:OH:4795, V-A:TYR:484:CE2:4346, V-B:GLU:543:CG:9879, V-A:ASP:366:CG:3213, H-B:TYR:539:OH:9850, V-B:LYS:547:CE:9922, V-A:TYR:484:CZ:4347, V-A:GLU:543:CD:4908, V-B:HIS:456:CE1:9041, V-A:HIS:456:CE1:4070, V-B:GLY:544:C:9884, V-A:GLU:543:CG:4907, V-A:TYR:531:CZ:4794, V-B:GLU:543:CD:9880, V-B:HIS:456:CG:9037, V-A:ASP:366:CB:3212, H-A:GLU:543:OE1:4909, V-A:GLU:543:CB:4906, H-A:ASP:366:OD1:3214, H-A:ASP:366:OD2:3215, H-A:TYR:484:OH:4348"]

$$$$
ZINC2384526604
     RDKit          3D

 66 72  0  0  0  0  0  0  0  0999 V2000
  127.1470  128.4270   58.4270 C   0  0  0  0  0  0  0  0  0  0  0  0
  127.7500  129.8140   58.0850 C   0  0  0  0  0  0  0  0  0  0  0  0
  127.2380  130.3350   56.7300 C   0  0  0  0  0  0  0  0  0  0  0  0
  127.2220  130.6810   59.0920 O   0  0  0  0  0  0  0  0  0  0  0  0
  128.2200  131.0740   59.9100 C   0  0  0  0  0  0  0  0  0  0  0  0
  129.4450  130.6840   59.5250 C   0  0  0  0  0  0  0  0  0  0  0  0
  130.6520  131.0290   60.2870 C   0  0  0  0  0  0  0  0  0  0  0  0
  131.8100  130.7450   59.9740 O   0  0  0  0  0  0  0  0  0  0  0  0
  130.4310  131.8290   61.6300 C   0  0  0  0  0  0  0  0  0  0  0  0
  131.4180  132.0990   62.3190 O   0  0  0  0  0  0  0  0  0  0  0  0
  129.0190  132.2150   61.9810 C   0  0  0  0  0  0  0  0  0  0  0  0
  128.7480  132.9410   63.1500 C   0  0  0  0  0  0  0  0  0  0  0  0
  127.4410  133.3010   63.4760 C   0  0  0  0  0  0  0  0  0  0  0  0
  126.3870  132.9390   62.6400 C   0  0  0  0  0  0  0  0  0  0  0  0
  126.6370  132.2160   61.4740 C   0  0  0  0  0  0  0  0  0  0  0  0
  127.9450  131.8500   61.1390 C   0  0  0  0  0  0  0  0  0  0  0  0
  129.3020  129.9410   58.2190 C   0  0  1  0  0  0  0  0  0  0  0  0
  130.0250  128.6630   58.1420 N   0  0  0  0  0  0  0  0  0  0  0  0
  130.7300  127.9990   59.1140 C   0  0  0  0  0  0  0  0  0  0  0  0
  131.0240  126.7590   58.5680 C   0  0  0  0  0  0  0  0  0  0  0  0
  131.6820  125.5570   59.2150 C   0  0  0  0  0  0  0  0  0  0  0  0
  130.8460  124.9820   60.2890 N   0  0  0  0  0  0  0  0  0  0  0  0
  131.1650  125.0850   61.6570 C   0  0  0  0  0  0  0  0  0  0  0  0
  132.4540  124.9860   62.0840 C   0  0  0  0  0  0  0  0  0  0  0  0
  132.9350  125.0270   63.4630 C   0  0  0  0  0  0  0  0  0  0  0  0
  134.1220  124.9320   63.7750 O   0  0  0  0  0  0  0  0  0  0  0  0
  131.8350  125.1970   64.4680 C   0  0  0  0  0  0  0  0  0  0  0  0
  132.1650  125.2620   65.8310 C   0  0  0  0  0  0  0  0  0  0  0  0
  131.1800  125.4110   66.8040 C   0  0  0  0  0  0  0  0  0  0  0  0
  129.8450  125.4980   66.4280 C   0  0  0  0  0  0  0  0  0  0  0  0
  129.4990  125.4370   65.0810 C   0  0  0  0  0  0  0  0  0  0  0  0
  130.4770  125.2900   64.0810 C   0  0  0  0  0  0  0  0  0  0  0  0
  130.0420  125.2220   62.6380 C   0  0  0  0  0  0  0  0  0  0  0  0
  128.8450  125.2640   62.3390 O   0  0  0  0  0  0  0  0  0  0  0  0
  129.5670  124.6280   59.7880 C   0  0  0  0  0  0  0  0  0  0  0  0
  128.5950  125.6130   59.5590 C   0  0  0  0  0  0  0  0  0  0  0  0
  127.3460  125.2630   59.0520 C   0  0  0  0  0  0  0  0  0  0  0  0
  127.0650  123.9280   58.7680 C   0  0  0  0  0  0  0  0  0  0  0  0
  125.3580  123.4510   58.0750 Br  0  0  0  0  0  0  0  0  0  0  0  0
  128.0240  122.9420   58.9840 C   0  0  0  0  0  0  0  0  0  0  0  0
  129.2720  123.2910   59.4920 C   0  0  0  0  0  0  0  0  0  0  0  0
  130.5540  126.7070   57.3320 N   0  0  0  0  0  0  0  0  0  0  0  0
  129.9040  127.8960   57.0540 N   0  0  0  0  0  0  0  0  0  0  0  0
  127.0956  128.3088   59.5194 H   0  0  0  0  0  0  0  0  0  0  0  0
  126.1351  128.3522   58.0021 H   0  0  0  0  0  0  0  0  0  0  0  0
  127.7825  127.6360   58.0021 H   0  0  0  0  0  0  0  0  0  0  0  0
  126.4762  131.1102   56.8994 H   0  0  0  0  0  0  0  0  0  0  0  0
  128.0766  130.7631   56.1612 H   0  0  0  0  0  0  0  0  0  0  0  0
  126.7954  129.5040   56.1612 H   0  0  0  0  0  0  0  0  0  0  0  0
  129.5746  133.2292   63.8161 H   0  0  0  0  0  0  0  0  0  0  0  0
  127.2417  133.8719   64.3949 H   0  0  0  0  0  0  0  0  0  0  0  0
  125.3567  133.2237   62.8998 H   0  0  0  0  0  0  0  0  0  0  0  0
  125.8028  131.9325   60.8154 H   0  0  0  0  0  0  0  0  0  0  0  0
  129.7723  130.4711   57.3777 H   0  0  0  0  0  0  0  0  0  0  0  0
  131.0034  128.3708   60.1125 H   0  0  0  0  0  0  0  0  0  0  0  0
  131.8520  124.7883   58.4467 H   0  0  0  0  0  0  0  0  0  0  0  0
  132.6310  125.8878   59.6622 H   0  0  0  0  0  0  0  0  0  0  0  0
  133.2189  124.8612   61.3034 H   0  0  0  0  0  0  0  0  0  0  0  0
  133.2198  125.1941   66.1356 H   0  0  0  0  0  0  0  0  0  0  0  0
  131.4579  125.4597   67.8672 H   0  0  0  0  0  0  0  0  0  0  0  0
  129.0634  125.6148   67.1931 H   0  0  0  0  0  0  0  0  0  0  0  0
  128.4396  125.5051   64.7930 H   0  0  0  0  0  0  0  0  0  0  0  0
  128.8203  126.6666   59.7808 H   0  0  0  0  0  0  0  0  0  0  0  0
  126.5845  126.0371   58.8765 H   0  0  0  0  0  0  0  0  0  0  0  0
  127.7961  121.8907   58.7540 H   0  0  0  0  0  0  0  0  0  0  0  0
  130.0306  122.5128   59.6619 H   0  0  0  0  0  0  0  0  0  0  0  0
  1  2  1  0
  2  3  1  0
  2  4  1  0
  4  5  1  0
  5  6  2  0
  6  7  1  0
  7  8  2  0
  7  9  1  0
  9 10  2  0
  9 11  1  0
 11 12  2  0
 12 13  1  0
 13 14  2  0
 14 15  1  0
 15 16  2  0
  6 17  1  0
 17 18  1  0
 18 19  1  0
 19 20  2  0
 20 21  1  0
 21 22  1  0
 22 23  1  0
 23 24  2  0
 24 25  1  0
 25 26  2  0
 25 27  1  0
 27 28  2  0
 28 29  1  0
 29 30  2  0
 30 31  1  0
 31 32  2  0
 32 33  1  0
 33 34  2  0
 22 35  1  0
 35 36  2  0
 36 37  1  0
 37 38  2  0
 38 39  1  0
 38 40  1  0
 40 41  2  0
 20 42  1  0
 42 43  2  0
 17  2  1  0
 43 18  1  0
 16  5  1  0
 33 23  1  0
 41 35  1  0
 16 11  1  0
 32 27  1  0
  1 44  1  0
  1 45  1  0
  1 46  1  0
  3 47  1  0
  3 48  1  0
  3 49  1  0
 12 50  1  0
 13 51  1  0
 14 52  1  0
 15 53  1  0
 17 54  1  6
 19 55  1  0
 21 56  1  0
 21 57  1  0
 24 58  1  0
 28 59  1  0
 29 60  1  0
 30 61  1  0
 31 62  1  0
 36 63  1  0
 37 64  1  0
 40 65  1  0
 41 66  1  0
M  END
>  <Binding energies>  (1) 
[-9.2]

>  <Ligand effiencies>  (1) 
[-0.21395348837209302]

>  <Interactions>  (1) 
["V-B:PRO:540:CA:9855, H-A:ALA:541:N:4891, V-B:GLU:543:CB:9878, H-A:TYR:531:OH:4795, H-A:ARG:545:NH1:4927, V-B:TYR:539:CE2:9848, V-B:LEU:475:CD2:9230, V-B:GLU:543:CG:9879, V-B:TYR:539:C:9839, V-A:ASP:366:CG:3213, V-B:TYR:539:CZ:9849, H-B:TYR:539:OH:9850, V-A:ALA:541:CB:4892, V-A:TYR:484:CZ:4347, V-B:PRO:540:CB:9857, H-A:GLY:454:N:4050, V-B:PRO:540:N:9856, V-A:HIS:456:CE1:4070, V-A:ALA:541:CA:4890, V-B:TYR:539:CD2:9846, V-A:MET:535:CE:4835, V-B:GLU:543:CD:9880, H-A:ARG:545:NH2:4928, V-A:ARG:545:CZ:4926, V-A:PRO:540:CA:4883, H-A:ARG:545:NE:4924"]

$$$$
ZINC2384923445
     RDKit          3D

 52 55  0  0  0  0  0  0  0  0999 V2000
  128.9610  124.3460   58.0980 C   0  0  0  0  0  0  0  0  0  0  0  0
  127.8780  123.5390   58.8660 C   0  0  0  0  0  0  0  0  0  0  0  0
  126.9290  122.8340   57.8710 C   0  0  0  0  0  0  0  0  0  0  0  0
  128.5720  122.5290   59.5840 O   0  0  0  0  0  0  0  0  0  0  0  0
  128.8020  123.0110   60.8490 B   0  0  0  0  0  0  0  0  0  0  0  0
  129.7390  122.3140   61.9040 C   0  0  0  0  0  0  0  0  0  0  0  0
  131.2340  122.2920   61.4960 C   0  0  1  0  0  0  0  0  0  0  0  0
  131.5920  122.9730   60.1470 C   0  0  1  0  0  0  0  0  0  0  0  0
  131.5040  124.5050   60.1150 C   0  0  0  0  0  0  0  0  0  0  0  0
  132.9320  124.9610   60.3790 C   0  0  0  0  0  0  0  0  0  0  0  0
  133.6810  123.6660   60.7080 C   0  0  1  0  0  0  0  0  0  0  0  0
  133.6150  123.2040   62.1860 C   0  0  0  0  0  0  0  0  0  0  0  0
  132.2280  122.6650   62.6570 C   0  0  1  0  0  0  0  0  0  0  0  0
  131.6230  123.4550   63.8310 C   0  0  0  0  0  0  0  0  0  0  0  0
  132.0460  124.7620   64.1070 C   0  0  0  0  0  0  0  0  0  0  0  0
  131.5020  125.4600   65.1870 C   0  0  0  0  0  0  0  0  0  0  0  0
  130.5350  124.8300   65.9740 C   0  0  0  0  0  0  0  0  0  0  0  0
  129.8570  125.6800   67.3130 Cl  0  0  0  0  0  0  0  0  0  0  0  0
  130.1060  123.5670   65.7240 N   0  0  0  0  0  0  0  0  0  0  0  0
  130.6480  122.9030   64.6710 C   0  0  0  0  0  0  0  0  0  0  0  0
  132.9750  122.7550   59.8760 O   0  0  0  0  0  0  0  0  0  0  0  0
  128.1080  124.1730   61.0800 O   0  0  0  0  0  0  0  0  0  0  0  0
  127.1630  124.3130   60.0300 C   0  0  0  0  0  0  0  0  0  0  0  0
  126.9600  125.8250   59.7800 C   0  0  0  0  0  0  0  0  0  0  0  0
  125.8470  123.6700   60.5460 C   0  0  0  0  0  0  0  0  0  0  0  0
  129.6276  124.8428   58.8183 H   0  0  0  0  0  0  0  0  0  0  0  0
  129.5477  123.6631   57.4660 H   0  0  0  0  0  0  0  0  0  0  0  0
  128.4744  125.1035   57.4660 H   0  0  0  0  0  0  0  0  0  0  0  0
  126.1677  122.2685   58.4284 H   0  0  0  0  0  0  0  0  0  0  0  0
  126.4362  123.5868   57.2382 H   0  0  0  0  0  0  0  0  0  0  0  0
  127.5074  122.1449   57.2382 H   0  0  0  0  0  0  0  0  0  0  0  0
  129.6480  122.8534   62.8583 H   0  0  0  0  0  0  0  0  0  0  0  0
  129.4124  121.2663   61.9793 H   0  0  0  0  0  0  0  0  0  0  0  0
  131.3925  121.2230   61.2906 H   0  0  0  0  0  0  0  0  0  0  0  0
  130.8645  122.5391   59.4453 H   0  0  0  0  0  0  0  0  0  0  0  0
  131.1567  124.8563   59.1322 H   0  0  0  0  0  0  0  0  0  0  0  0
  130.7893  124.9036   60.8501 H   0  0  0  0  0  0  0  0  0  0  0  0
  133.3591  125.4438   59.4877 H   0  0  0  0  0  0  0  0  0  0  0  0
  132.9960  125.7037   61.1879 H   0  0  0  0  0  0  0  0  0  0  0  0
  134.7646  123.7646   60.5462 H   0  0  0  0  0  0  0  0  0  0  0  0
  134.3555  122.4025   62.3245 H   0  0  0  0  0  0  0  0  0  0  0  0
  133.8145  124.0995   62.7929 H   0  0  0  0  0  0  0  0  0  0  0  0
  132.4440  121.6798   63.0959 H   0  0  0  0  0  0  0  0  0  0  0  0
  132.8074  125.2386   63.4722 H   0  0  0  0  0  0  0  0  0  0  0  0
  131.8284  126.4857   65.4136 H   0  0  0  0  0  0  0  0  0  0  0  0
  130.3034  121.8784   64.4672 H   0  0  0  0  0  0  0  0  0  0  0  0
  126.8895  126.3498   60.7441 H   0  0  0  0  0  0  0  0  0  0  0  0
  127.8132  126.2200   59.2090 H   0  0  0  0  0  0  0  0  0  0  0  0
  126.0329  125.9810   59.2090 H   0  0  0  0  0  0  0  0  0  0  0  0
  125.8459  123.6695   61.6460 H   0  0  0  0  0  0  0  0  0  0  0  0
  124.9872  124.2495   60.1788 H   0  0  0  0  0  0  0  0  0  0  0  0
  125.7757  122.6356   60.1788 H   0  0  0  0  0  0  0  0  0  0  0  0
  1  2  1  0
  2  3  1  0
  2  4  1  0
  4  5  1  0
  5  6  1  0
  6  7  1  0
  7  8  1  0
  8  9  1  0
  9 10  1  0
 10 11  1  0
 11 12  1  0
 12 13  1  0
 13 14  1  0
 14 15  2  0
 15 16  1  0
 16 17  2  0
 17 18  1  0
 17 19  1  0
 19 20  2  0
 11 21  1  0
  5 22  1  0
 22 23  1  0
 23 24  1  0
 23 25  1  0
 23  2  1  0
 13  7  1  0
 20 14  1  0
 21  8  1  0
  1 26  1  0
  1 27  1  0
  1 28  1  0
  3 29  1  0
  3 30  1  0
  3 31  1  0
  6 32  1  0
  6 33  1  0
  7 34  1  6
  8 35  1  6
  9 36  1  0
  9 37  1  0
 10 38  1  0
 10 39  1  0
 11 40  1  6
 12 41  1  0
 12 42  1  0
 13 43  1  1
 15 44  1  0
 16 45  1  0
 20 46  1  0
 24 47  1  0
 24 48  1  0
 24 49  1  0
 25 50  1  0
 25 51  1  0
 25 52  1  0
M  END
>  <Binding energies>  (1) 
[-6.73]

>  <Ligand effiencies>  (1) 
[-0.2692]

>  <Interactions>  (1) 
["V-A:ILE:369:CG2:3237, V-B:PRO:540:CA:9855, V-B:GLU:543:CB:9878, V-B:TYR:539:CE2:9848, V-A:TYR:484:CE2:4346, V-B:GLU:543:CG:9879, V-B:TYR:539:C:9839, V-A:ASP:366:CG:3213, V-B:TYR:539:CZ:9849, V-A:TYR:484:CZ:4347, V-B:PRO:540:CB:9857, V-A:GLU:543:CD:4908, V-B:PRO:540:N:9856, V-A:ILE:369:CD1:3239, V-A:HIS:456:CE1:4070, V-B:TYR:539:CD2:9846, V-B:PRO:540:CD:9859, V-A:ASP:366:CB:3212, V-A:LEU:475:CD2:4259, H-A:TYR:484:OH:4348"]

$$$$
ZINC2385519158
     RDKit          3D

 43 45  0  0  0  0  0  0  0  0999 V2000
  134.0020  125.0480   65.3400 N   0  0  0  0  0  0  0  0  0  0  0  0
  133.1270  124.8390   64.6420 N   0  0  0  0  0  0  0  0  0  0  0  0
  132.2780  124.5240   63.8100 N   0  0  0  0  0  0  0  0  0  0  0  0
  131.7380  125.6220   63.0410 C   0  0  0  0  0  0  0  0  0  0  0  0
  130.1840  125.5500   62.9710 C   0  0  1  0  0  0  0  0  0  0  0  0
  129.6410  125.2310   61.5450 C   0  0  0  0  0  0  0  0  0  0  0  0
  129.7230  123.8000   60.9550 C   0  0  1  0  0  0  0  0  0  0  0  0
  131.0990  123.1050   61.0370 C   0  0  0  0  0  0  0  0  0  0  0  0
  131.2000  122.2010   62.2950 C   0  0  0  0  0  0  0  0  0  0  0  0
  129.9040  122.2410   63.1380 C   0  0  1  0  0  0  0  0  0  0  0  0
  129.9230  123.2510   64.3210 C   0  0  0  0  0  0  0  0  0  0  0  0
  129.5050  124.7430   64.1240 C   0  0  1  0  0  0  0  0  0  0  0  0
  129.4970  125.5270   65.4520 C   0  0  0  0  0  0  0  0  0  0  0  0
  130.1530  125.0530   66.5950 C   0  0  0  0  0  0  0  0  0  0  0  0
  130.1400  125.7890   67.7760 C   0  0  0  0  0  0  0  0  0  0  0  0
  129.4730  127.0120   67.8400 C   0  0  0  0  0  0  0  0  0  0  0  0
  129.5010  127.8760   69.3400 Cl  0  0  0  0  0  0  0  0  0  0  0  0
  128.8080  127.5120   66.7060 C   0  0  0  0  0  0  0  0  0  0  0  0
  128.0670  128.8540   66.7430 C   0  0  0  0  0  0  0  0  0  0  0  0
  126.8440  128.6820   67.2450 F   0  0  0  0  0  0  0  0  0  0  0  0
  128.7290  129.7150   67.5180 F   0  0  0  0  0  0  0  0  0  0  0  0
  127.9390  129.4080   65.5360 F   0  0  0  0  0  0  0  0  0  0  0  0
  128.8320  126.7570   65.5230 C   0  0  0  0  0  0  0  0  0  0  0  0
  128.5980  122.5750   61.8280 S   0  0  0  0  0  0  0  0  0  0  0  0
  127.4010  123.2200   62.3790 O   0  0  0  0  0  0  0  0  0  0  0  0
  128.4490  121.3810   60.9890 O   0  0  0  0  0  0  0  0  0  0  0  0
  132.0323  126.5704   63.5142 H   0  0  0  0  0  0  0  0  0  0  0  0
  132.1360  125.5593   62.0175 H   0  0  0  0  0  0  0  0  0  0  0  0
  129.8557  126.5803   63.1724 H   0  0  0  0  0  0  0  0  0  0  0  0
  128.5759  125.5060   61.5485 H   0  0  0  0  0  0  0  0  0  0  0  0
  130.3257  125.7968   60.8962 H   0  0  0  0  0  0  0  0  0  0  0  0
  129.4448  124.0081   59.9113 H   0  0  0  0  0  0  0  0  0  0  0  0
  131.2421  122.4864   60.1388 H   0  0  0  0  0  0  0  0  0  0  0  0
  131.8763  123.8805   61.1033 H   0  0  0  0  0  0  0  0  0  0  0  0
  131.3844  121.1649   61.9748 H   0  0  0  0  0  0  0  0  0  0  0  0
  132.0249  122.5753   62.9191 H   0  0  0  0  0  0  0  0  0  0  0  0
  129.7236  121.3110   63.6970 H   0  0  0  0  0  0  0  0  0  0  0  0
  129.2540  122.8399   65.0914 H   0  0  0  0  0  0  0  0  0  0  0  0
  130.9966  123.3329   64.5462 H   0  0  0  0  0  0  0  0  0  0  0  0
  128.4738  124.6400   63.7551 H   0  0  0  0  0  0  0  0  0  0  0  0
  130.6834  124.0900   66.5589 H   0  0  0  0  0  0  0  0  0  0  0  0
  130.6596  125.4033   68.6655 H   0  0  0  0  0  0  0  0  0  0  0  0
  128.3161  127.1408   64.6305 H   0  0  0  0  0  0  0  0  0  0  0  0
  1  2  2  0
  2  3  2  0
  3  4  1  0
  4  5  1  0
  5  6  1  0
  6  7  1  0
  7  8  1  0
  8  9  1  0
  9 10  1  0
 10 11  1  0
 11 12  1  0
 12 13  1  0
 13 14  2  0
 14 15  1  0
 15 16  2  0
 16 17  1  0
 16 18  1  0
 18 19  1  0
 19 20  1  0
 19 21  1  0
 19 22  1  0
 18 23  2  0
 10 24  1  0
 24 25  2  0
 24 26  2  0
 12  5  1  0
 23 13  1  0
 24  7  1  0
  4 27  1  0
  4 28  1  0
  5 29  1  1
  6 30  1  0
  6 31  1  0
  7 32  1  6
  8 33  1  0
  8 34  1  0
  9 35  1  0
  9 36  1  0
 10 37  1  1
 11 38  1  0
 11 39  1  0
 12 40  1  6
 14 41  1  0
 15 42  1  0
 23 43  1  0
M  CHG  2   1  -1   2   1
M  END
>  <Binding energies>  (1) 
[-5.93]

>  <Ligand effiencies>  (1) 
[-0.21178571428571427]

>  <Interactions>  (1) 
["V-A:GLU:543:CA:4904, V-B:GLU:543:CB:9878, V-B:ALA:541:CB:9864, H-A:ARG:545:NH1:4927, V-B:TYR:539:CE2:9848, V-A:TYR:484:CE2:4346, V-B:GLU:543:CG:9879, V-B:TYR:484:CE2:9317, H-B:ALA:541:N:9863, V-A:TYR:484:CZ:4347, V-A:GLU:543:CD:4908, V-B:HIS:456:CE1:9041, H-A:GLY:454:N:4050, V-A:HIS:456:CE1:4070, V-B:TYR:484:CZ:9318, V-A:GLU:543:CG:4907, V-B:GLU:543:CD:9880, V-A:LEU:475:CD2:4259, H-A:ARG:545:NH2:4928, V-A:ARG:545:CZ:4926, V-A:GLU:543:CB:4906, H-A:ARG:545:NE:4924, H-A:TYR:484:OH:4348"]

$$$$
ZINC2385857947
     RDKit          3D

 75 79  0  0  0  0  0  0  0  0999 V2000
  132.5570  125.2450   61.3830 C   0  0  0  0  0  0  0  0  0  0  0  0
  133.2990  123.9320   61.7320 C   0  0  0  0  0  0  0  0  0  0  0  0
  134.7870  124.2400   61.9990 C   0  0  0  0  0  0  0  0  0  0  0  0
  133.1890  122.9040   60.5790 C   0  0  0  0  0  0  0  0  0  0  0  0
  132.8280  123.3760   62.9730 O   0  0  0  0  0  0  0  0  0  0  0  0
  132.7720  124.0350   64.1720 C   0  0  0  0  0  0  0  0  0  0  0  0
  133.7430  124.5490   64.7290 O   0  0  0  0  0  0  0  0  0  0  0  0
  131.4610  124.0630   64.6620 N   0  0  0  0  0  0  0  0  0  0  0  0
  130.8960  125.1810   65.3960 C   0  0  2  0  0  0  0  0  0  0  0  0
  130.0310  124.4600   66.4310 C   0  0  0  0  0  0  0  0  0  0  0  0
  129.5040  123.2280   65.7110 C   0  0  0  0  0  0  0  0  0  0  0  0
  130.4480  123.0200   64.5060 C   0  0  1  0  0  0  0  0  0  0  0  0
  129.7460  123.1400   63.1410 C   0  0  0  0  0  0  0  0  0  0  0  0
  129.6810  124.5360   62.4320 C   0  0  1  0  0  0  0  0  0  0  0  0
  129.1200  124.2820   60.9950 C   0  0  0  0  0  0  0  0  0  0  0  0
  127.8090  122.9000   60.8890 S   0  0  0  0  0  0  0  0  0  0  0  0
  128.4170  121.6640   60.3840 O   0  0  0  0  0  0  0  0  0  0  0  0
  126.9290  122.9030   62.0620 O   0  0  0  0  0  0  0  0  0  0  0  0
  126.6030  123.6280   59.2770 Cl  0  0  0  0  0  0  0  0  0  0  0  0
  129.1140  125.7300   63.3370 C   0  0  2  0  0  0  0  0  0  0  0  0
  128.5420  127.0470   62.6100 C   0  0  1  0  0  0  0  0  0  0  0  0
  127.3570  126.7290   61.6180 C   0  0  0  0  0  0  0  0  0  0  0  0
  126.7870  127.9700   60.8840 C   0  0  2  0  0  0  0  0  0  0  0  0
  127.9300  128.6300   60.0810 C   0  0  0  0  0  0  0  0  0  0  0  0
  129.1100  129.0300   61.0010 C   0  0  1  0  0  0  0  0  0  0  0  0
  130.2400  129.6860   60.1780 C   0  0  0  0  0  0  0  0  0  0  0  0
  128.5790  130.0080   62.0900 C   0  0  0  0  0  0  0  0  0  0  0  0
  127.4320  129.3810   62.9330 C   0  0  1  0  0  0  0  0  0  0  0  0
  126.9120  130.3860   63.9830 C   0  0  0  0  0  0  0  0  0  0  0  0
  126.2940  128.9720   61.9580 C   0  0  0  0  0  0  0  0  0  0  0  0
  127.9700  128.0930   63.6260 C   0  0  0  0  0  0  0  0  0  0  0  0
  129.6200  127.7500   61.7160 C   0  0  0  0  0  0  0  0  0  0  0  0
  130.1240  126.1690   64.4800 C   0  0  0  0  0  0  0  0  0  0  0  0
  132.2662  125.7596   62.3107 H   0  0  0  0  0  0  0  0  0  0  0  0
  133.2207  125.8961   60.7951 H   0  0  0  0  0  0  0  0  0  0  0  0
  131.6568  125.0123   60.7951 H   0  0  0  0  0  0  0  0  0  0  0  0
  134.9649  124.2768   63.0839 H   0  0  0  0  0  0  0  0  0  0  0  0
  135.4106  123.4519   61.5517 H   0  0  0  0  0  0  0  0  0  0  0  0
  135.0465  125.2109   61.5517 H   0  0  0  0  0  0  0  0  0  0  0  0
  133.0808  121.8929   60.9984 H   0  0  0  0  0  0  0  0  0  0  0  0
  132.3110  123.1400   59.9598 H   0  0  0  0  0  0  0  0  0  0  0  0
  134.0971  122.9489   59.9598 H   0  0  0  0  0  0  0  0  0  0  0  0
  131.6387  125.8483   65.8577 H   0  0  0  0  0  0  0  0  0  0  0  0
  130.6336  124.1697   67.3043 H   0  0  0  0  0  0  0  0  0  0  0  0
  129.2184  125.0983   66.8083 H   0  0  0  0  0  0  0  0  0  0  0  0
  129.5312  122.3526   66.3765 H   0  0  0  0  0  0  0  0  0  0  0  0
  128.4586  123.3563   65.3936 H   0  0  0  0  0  0  0  0  0  0  0  0
  130.8603  122.0002   64.5059 H   0  0  0  0  0  0  0  0  0  0  0  0
  130.2626  122.4545   62.4531 H   0  0  0  0  0  0  0  0  0  0  0  0
  128.6937  122.9142   63.3686 H   0  0  0  0  0  0  0  0  0  0  0  0
  130.6721  124.9906   62.2870 H   0  0  0  0  0  0  0  0  0  0  0  0
  128.6644  125.2159   60.6342 H   0  0  0  0  0  0  0  0  0  0  0  0
  129.9713  123.9528   60.3810 H   0  0  0  0  0  0  0  0  0  0  0  0
  128.2222  125.2390   63.7536 H   0  0  0  0  0  0  0  0  0  0  0  0
  127.7226  126.0193   60.8613 H   0  0  0  0  0  0  0  0  0  0  0  0
  126.5376  126.3205   62.2277 H   0  0  0  0  0  0  0  0  0  0  0  0
  125.9652  127.6853   60.2105 H   0  0  0  0  0  0  0  0  0  0  0  0
  128.2919  127.9192   59.3235 H   0  0  0  0  0  0  0  0  0  0  0  0
  127.5376  129.5411   59.6058 H   0  0  0  0  0  0  0  0  0  0  0  0
  130.9863  130.1193   60.8601 H   0  0  0  0  0  0  0  0  0  0  0  0
  130.7202  128.9263   59.5438 H   0  0  0  0  0  0  0  0  0  0  0  0
  129.8184  130.4798   59.5438 H   0  0  0  0  0  0  0  0  0  0  0  0
  129.4082  130.2739   62.7621 H   0  0  0  0  0  0  0  0  0  0  0  0
  128.1771  130.8958   61.5799 H   0  0  0  0  0  0  0  0  0  0  0  0
  127.1127  129.9982   64.9926 H   0  0  0  0  0  0  0  0  0  0  0  0
  127.4241  131.3507   63.8523 H   0  0  0  0  0  0  0  0  0  0  0  0
  125.8287  130.5252   63.8523 H   0  0  0  0  0  0  0  0  0  0  0  0
  125.4822  128.5046   62.5347 H   0  0  0  0  0  0  0  0  0  0  0  0
  125.9431  129.8787   61.4434 H   0  0  0  0  0  0  0  0  0  0  0  0
  128.7709  128.3785   64.3239 H   0  0  0  0  0  0  0  0  0  0  0  0
  127.1236  127.6197   64.1452 H   0  0  0  0  0  0  0  0  0  0  0  0
  129.9533  127.0350   60.9493 H   0  0  0  0  0  0  0  0  0  0  0  0
  130.4344  128.0628   62.3860 H   0  0  0  0  0  0  0  0  0  0  0  0
  130.8952  126.7718   63.9782 H   0  0  0  0  0  0  0  0  0  0  0  0
  129.4297  126.6197   65.2045 H   0  0  0  0  0  0  0  0  0  0  0  0
  1  2  1  0
  2  3  1  0
  2  4  1  0
  2  5  1  0
  5  6  1  0
  6  7  2  0
  6  8  1  0
  8  9  1  0
  9 10  1  0
 10 11  1  0
 11 12  1  0
 12 13  1  0
 13 14  1  0
 14 15  1  0
 15 16  1  0
 16 17  2  0
 16 18  2  0
 16 19  1  0
 14 20  1  0
 20 21  1  0
 21 22  1  6
 22 23  1  0
 23 24  1  0
 24 25  1  0
 25 26  1  6
 25 27  1  0
 27 28  1  0
 28 29  1  1
 28 30  1  0
 28 31  1  0
 25 32  1  0
 20 33  1  0
 12  8  1  0
 31 21  1  0
 33  9  1  0
 32 21  1  0
 30 23  1  0
  1 34  1  0
  1 35  1  0
  1 36  1  0
  3 37  1  0
  3 38  1  0
  3 39  1  0
  4 40  1  0
  4 41  1  0
  4 42  1  0
  9 43  1  1
 10 44  1  0
 10 45  1  0
 11 46  1  0
 11 47  1  0
 12 48  1  1
 13 49  1  0
 13 50  1  0
 14 51  1  6
 15 52  1  0
 15 53  1  0
 20 54  1  1
 22 55  1  0
 22 56  1  0
 23 57  1  6
 24 58  1  0
 24 59  1  0
 26 60  1  0
 26 61  1  0
 26 62  1  0
 27 63  1  0
 27 64  1  0
 29 65  1  0
 29 66  1  0
 29 67  1  0
 30 68  1  0
 30 69  1  0
 31 70  1  0
 31 71  1  0
 32 72  1  0
 32 73  1  0
 33 74  1  0
 33 75  1  0
M  END
>  <Binding energies>  (1) 
[-6.92]

>  <Ligand effiencies>  (1) 
[-0.1977142857142857]

>  <Interactions>  (1) 
["V-A:ILE:369:CG2:3237, V-B:PRO:540:CA:9855, V-A:GLY:454:CA:4049, V-B:GLU:543:CB:9878, V-B:TYR:539:CE2:9848, V-A:TYR:484:CE2:4346, V-B:GLU:543:CG:9879, V-A:ASP:366:CG:3213, H-B:ALA:541:N:9863, V-A:GLU:543:CD:4908, V-A:TYR:484:CZ:4347, V-B:PRO:540:CB:9857, V-B:GLU:543:CA:9876, H-A:GLY:454:N:4050, V-A:GLY:453:C:4042, V-A:ILE:369:CD1:3239, V-B:GLU:543:CD:9880, V-A:LEU:475:CD2:4259, H-A:ARG:545:NH2:4928, V-A:GLY:453:CA:4044, H-A:ARG:545:NE:4924, V-B:PRO:540:C:9853, H-A:TYR:484:OH:4348"]

$$$$
ZINC2385859348
     RDKit          3D

 79 80  0  0  0  0  0  0  0  0999 V2000
  131.7420  125.4320   66.1110 C   0  0  0  0  0  0  0  0  0  0  0  0
  130.9000  125.2230   64.8280 C   0  0  0  0  0  0  0  0  0  0  0  0
  129.6120  126.0830   64.8610 C   0  0  0  0  0  0  0  0  0  0  0  0
  130.5160  123.7340   64.7040 C   0  0  0  0  0  0  0  0  0  0  0  0
  131.6770  125.4870   63.6450 O   0  0  0  0  0  0  0  0  0  0  0  0
  132.7670  124.7700   63.2300 C   0  0  0  0  0  0  0  0  0  0  0  0
  133.8070  124.6540   63.8810 O   0  0  0  0  0  0  0  0  0  0  0  0
  132.5400  124.1950   61.9710 N   0  0  0  0  0  0  0  0  0  0  0  0
  133.5310  124.2030   60.9150 C   0  0  1  0  0  0  0  0  0  0  0  0
  133.9690  122.6840   60.8600 C   0  0  0  0  0  0  0  0  0  0  0  0
  132.8680  121.5650   61.0390 C   0  0  0  0  0  0  0  0  0  0  0  0
  131.5970  121.9760   61.8670 C   0  0  0  0  0  0  0  0  0  0  0  0
  131.3400  123.4590   61.5900 C   0  0  1  0  0  0  0  0  0  0  0  0
  130.0680  124.2510   61.2960 C   0  0  0  0  0  0  0  0  0  0  0  0
  130.2520  125.1250   59.9960 C   0  0  2  0  0  0  0  0  0  0  0  0
  129.7740  124.3470   58.7390 C   0  0  0  0  0  0  0  0  0  0  0  0
  128.3320  123.1890   59.1520 S   0  0  0  0  0  0  0  0  0  0  0  0
  127.5840  122.8330   57.9420 O   0  0  0  0  0  0  0  0  0  0  0  0
  128.7470  122.1850   60.1380 O   0  0  0  0  0  0  0  0  0  0  0  0
  127.0580  124.5320   60.2230 Cl  0  0  0  0  0  0  0  0  0  0  0  0
  131.6810  125.8030   59.7680 C   0  0  2  0  0  0  0  0  0  0  0  0
  131.6970  126.8650   58.6290 C   0  0  0  0  0  0  0  0  0  0  0  0
  130.5730  127.9200   58.6750 C   0  0  0  0  0  0  0  0  0  0  0  0
  130.6040  128.7820   59.9450 C   0  0  0  0  0  0  0  0  0  0  0  0
  129.9240  129.9940   59.6850 O   0  0  0  0  0  0  0  0  0  0  0  0
  130.6540  131.4900   59.4580 Si  0  0  0  0  0  4  0  0  0  0  0  0
  129.3050  132.8060   59.5680 C   0  0  0  0  0  0  0  0  0  0  0  0
  131.9300  131.7300   60.8280 C   0  0  0  0  0  0  0  0  0  0  0  0
  131.4780  131.4690   57.7430 C   0  0  0  0  0  0  0  0  0  0  0  0
  132.8440  130.7540   57.8220 C   0  0  0  0  0  0  0  0  0  0  0  0
  130.5760  130.7180   56.7400 C   0  0  0  0  0  0  0  0  0  0  0  0
  131.6950  132.9120   57.2430 C   0  0  0  0  0  0  0  0  0  0  0  0
  132.9440  124.8480   59.6080 C   0  0  0  0  0  0  0  0  0  0  0  0
  131.1075  125.2745   66.9957 H   0  0  0  0  0  0  0  0  0  0  0  0
  132.5746  124.7133   66.1243 H   0  0  0  0  0  0  0  0  0  0  0  0
  132.1419  126.4567   66.1243 H   0  0  0  0  0  0  0  0  0  0  0  0
  129.3255  126.2743   65.9057 H   0  0  0  0  0  0  0  0  0  0  0  0
  129.7967  127.0396   64.3504 H   0  0  0  0  0  0  0  0  0  0  0  0
  128.7992  125.5458   64.3504 H   0  0  0  0  0  0  0  0  0  0  0  0
  130.4039  123.2994   65.7083 H   0  0  0  0  0  0  0  0  0  0  0  0
  129.5654  123.6447   64.1577 H   0  0  0  0  0  0  0  0  0  0  0  0
  131.3048  123.1962   64.1577 H   0  0  0  0  0  0  0  0  0  0  0  0
  134.4184  124.8340   61.0711 H   0  0  0  0  0  0  0  0  0  0  0  0
  134.4404  122.5192   59.8799 H   0  0  0  0  0  0  0  0  0  0  0  0
  134.6158  122.5627   61.7414 H   0  0  0  0  0  0  0  0  0  0  0  0
  132.5326  121.2593   60.0370 H   0  0  0  0  0  0  0  0  0  0  0  0
  133.3513  120.7627   61.6158 H   0  0  0  0  0  0  0  0  0  0  0  0
  130.7304  121.3772   61.5502 H   0  0  0  0  0  0  0  0  0  0  0  0
  131.7556  121.8000   62.9412 H   0  0  0  0  0  0  0  0  0  0  0  0
  130.7622  123.2601   60.6754 H   0  0  0  0  0  0  0  0  0  0  0  0
  129.2320  123.5517   61.1472 H   0  0  0  0  0  0  0  0  0  0  0  0
  129.8577  124.9164   62.1463 H   0  0  0  0  0  0  0  0  0  0  0  0
  129.6032  125.9957   60.1721 H   0  0  0  0  0  0  0  0  0  0  0  0
  129.4473  125.0674   57.9746 H   0  0  0  0  0  0  0  0  0  0  0  0
  130.6121  123.7387   58.3680 H   0  0  0  0  0  0  0  0  0  0  0  0
  131.8093  126.2891   60.7464 H   0  0  0  0  0  0  0  0  0  0  0  0
  132.6593  127.3957   58.6767 H   0  0  0  0  0  0  0  0  0  0  0  0
  131.5396  126.3033   57.6964 H   0  0  0  0  0  0  0  0  0  0  0  0
  130.6775  128.5805   57.8016 H   0  0  0  0  0  0  0  0  0  0  0  0
  129.6158  127.3781   58.6711 H   0  0  0  0  0  0  0  0  0  0  0  0
  130.1068  128.2474   60.7678 H   0  0  0  0  0  0  0  0  0  0  0  0
  131.6452  128.9898   60.2325 H   0  0  0  0  0  0  0  0  0  0  0  0
  129.0862  133.0194   60.6247 H   0  0  0  0  0  0  0  0  0  0  0  0
  129.6485  133.7256   59.0717 H   0  0  0  0  0  0  0  0  0  0  0  0
  128.3942  132.4398   59.0717 H   0  0  0  0  0  0  0  0  0  0  0  0
  131.4381  131.6375   61.8075 H   0  0  0  0  0  0  0  0  0  0  0  0
  132.7138  130.9635   60.7374 H   0  0  0  0  0  0  0  0  0  0  0  0
  132.3817  132.7289   60.7374 H   0  0  0  0  0  0  0  0  0  0  0  0
  133.1214  130.6088   58.8765 H   0  0  0  0  0  0  0  0  0  0  0  0
  132.7754  129.7761   57.3229 H   0  0  0  0  0  0  0  0  0  0  0  0
  133.6084  131.3676   57.3229 H   0  0  0  0  0  0  0  0  0  0  0  0
  129.8440  130.1085   57.2902 H   0  0  0  0  0  0  0  0  0  0  0  0
  130.0460  131.4454   56.1076 H   0  0  0  0  0  0  0  0  0  0  0  0
  131.1953  130.0650   56.1076 H   0  0  0  0  0  0  0  0  0  0  0  0
  131.7966  133.5874   58.1052 H   0  0  0  0  0  0  0  0  0  0  0  0
  132.6097  132.9552   56.6336 H   0  0  0  0  0  0  0  0  0  0  0  0
  130.8334  133.2224   56.6336 H   0  0  0  0  0  0  0  0  0  0  0  0
  132.6541  124.0268   58.9359 H   0  0  0  0  0  0  0  0  0  0  0  0
  133.7452  125.5008   59.2313 H   0  0  0  0  0  0  0  0  0  0  0  0
  1  2  1  0
  2  3  1  0
  2  4  1  0
  2  5  1  0
  5  6  1  0
  6  7  2  0
  6  8  1  0
  8  9  1  0
  9 10  1  0
 10 11  1  0
 11 12  1  0
 12 13  1  0
 13 14  1  0
 14 15  1  0
 15 16  1  0
 16 17  1  0
 17 18  2  0
 17 19  2  0
 17 20  1  0
 15 21  1  0
 21 22  1  0
 22 23  1  0
 23 24  1  0
 24 25  1  0
 25 26  1  0
 26 27  1  0
 26 28  1  0
 26 29  1  0
 29 30  1  0
 29 31  1  0
 29 32  1  0
 21 33  1  0
 13  8  1  0
 33  9  1  0
  1 34  1  0
  1 35  1  0
  1 36  1  0
  3 37  1  0
  3 38  1  0
  3 39  1  0
  4 40  1  0
  4 41  1  0
  4 42  1  0
  9 43  1  1
 10 44  1  0
 10 45  1  0
 11 46  1  0
 11 47  1  0
 12 48  1  0
 12 49  1  0
 13 50  1  6
 14 51  1  0
 14 52  1  0
 15 53  1  1
 16 54  1  0
 16 55  1  0
 21 56  1  1
 22 57  1  0
 22 58  1  0
 23 59  1  0
 23 60  1  0
 24 61  1  0
 24 62  1  0
 27 63  1  0
 27 64  1  0
 27 65  1  0
 28 66  1  0
 28 67  1  0
 28 68  1  0
 30 69  1  0
 30 70  1  0
 30 71  1  0
 31 72  1  0
 31 73  1  0
 31 74  1  0
 32 75  1  0
 32 76  1  0
 32 77  1  0
 33 78  1  0
 33 79  1  0
M  END
>  <Binding energies>  (1) 
[-6.39]

>  <Ligand effiencies>  (1) 
[-0.18257142857142855]

>  <Interactions>  (1) 
["V-A:ILE:369:CG2:3237, V-A:ASP:366:CA:3210, V-B:PRO:540:CA:9855, V-A:PRO:540:CG:4886, V-A:ILE:369:CB:3236, V-A:ILE:538:CB:4862, V-B:TYR:539:CE2:9848, V-A:TYR:484:CE2:4346, V-B:GLU:543:CG:9879, V-A:ASP:366:CG:3213, V-A:LEU:363:CD1:3189, V-B:TYR:539:CZ:9849, V-A:TYR:531:CE2:4793, V-A:GLU:543:CD:4908, V-A:TYR:484:CZ:4347, H-A:GLY:454:N:4050, V-A:ILE:369:CD1:3239, V-A:HIS:456:CE1:4070, V-B:TYR:539:CD2:9846, V-B:GLU:543:CD:9880, V-A:MET:535:CE:4835, V-A:TYR:539:C:4867, V-A:ASP:366:CB:3212, V-A:LEU:475:CD2:4259, H-A:ARG:545:NH2:4928, V-A:ARG:545:CZ:4926, V-A:PRO:540:N:4884, V-A:PRO:540:CB:4885, V-A:PRO:540:CA:4883, V-A:PRO:540:CD:4887"]

$$$$
ZINC2386284535
     RDKit          3D

 92 93  0  0  0  0  0  0  0  0999 V2000
  129.9790  125.1410   67.2220 C   0  0  0  0  0  0  0  0  0  0  0  0
  130.0170  124.8930   65.6970 C   0  0  0  0  0  0  0  0  0  0  0  0
  130.2330  123.3940   65.4130 C   0  0  0  0  0  0  0  0  0  0  0  0
  131.0360  125.7790   64.9090 C   0  0  2  0  0  0  0  0  0  0  0  0
  130.3570  126.5860   63.8870 N   0  0  0  0  0  0  0  0  0  0  0  0
  129.3420  126.1570   63.1210 C   0  0  0  0  0  0  0  0  0  0  0  0
  128.8740  125.0200   63.1660 O   0  0  0  0  0  0  0  0  0  0  0  0
  128.7740  127.1870   62.1200 C   0  0  2  0  0  0  0  0  0  0  0  0
  127.2990  126.9450   61.7550 C   0  0  0  0  0  0  0  0  0  0  0  0
  127.3530  126.0290   60.5410 C   0  0  0  0  0  0  0  0  0  0  0  0
  128.6010  126.5000   59.8000 C   0  0  0  0  0  0  0  0  0  0  0  0
  129.4550  127.1280   60.8140 N   0  0  0  0  0  0  0  0  0  0  0  0
  130.6850  127.6690   60.6060 C   0  0  0  0  0  0  0  0  0  0  0  0
  131.7250  127.0080   60.6510 O   0  0  0  0  0  0  0  0  0  0  0  0
  130.7870  129.1880   60.3010 C   0  0  1  0  0  0  0  0  0  0  0  0
  131.7370  129.7050   61.3460 N   0  0  0  0  0  0  0  0  0  0  0  0
  131.2180  129.4880   58.8400 C   0  0  0  0  0  0  0  0  0  0  0  0
  131.4770  130.9840   58.5530 C   0  0  0  0  0  0  0  0  0  0  0  0
  130.2440  131.7580   58.0440 C   0  0  0  0  0  0  0  0  0  0  0  0
  129.5720  132.6530   59.1070 C   0  0  0  0  0  0  0  0  0  0  0  0
  129.8520  132.2470   60.4830 N   0  0  0  0  0  0  0  0  0  0  0  0
  129.4410  132.9050   61.5870 C   0  0  0  0  0  0  0  0  0  0  0  0
  128.6990  133.8890   61.5410 O   0  0  0  0  0  0  0  0  0  0  0  0
  129.8140  132.3210   62.7500 N   0  0  0  0  0  0  0  0  0  0  0  0
  128.8120  132.0950   63.8140 C   0  0  0  0  0  0  0  0  0  0  0  0
  128.3440  130.6310   63.8760 C   0  0  0  0  0  0  0  0  0  0  0  0
  127.1620  130.3020   62.5840 Cl  0  0  0  0  0  0  0  0  0  0  0  0
  131.1670  132.0830   62.9250 N   0  0  0  0  0  0  0  0  0  0  0  0
  131.8620  132.2160   61.9390 O   0  0  0  0  0  0  0  0  0  0  0  0
  132.1430  124.8720   64.3080 C   0  0  0  0  0  0  0  0  0  0  0  0
  133.1890  124.6790   64.9380 O   0  0  0  0  0  0  0  0  0  0  0  0
  131.8430  124.3530   63.0960 N   0  0  0  0  0  0  0  0  0  0  0  0
  132.5830  123.4870   62.3670 C   0  0  0  0  0  0  0  0  0  0  0  0
  133.7190  123.0850   62.6340 O   0  0  0  0  0  0  0  0  0  0  0  0
  131.8690  122.9340   61.1180 C   0  0  1  0  0  0  0  0  0  0  0  0
  132.8330  122.2100   60.1620 C   0  0  0  0  0  0  0  0  0  0  0  0
  132.6990  120.7380   60.5130 C   0  0  0  0  0  0  0  0  0  0  0  0
  131.2240  120.6120   60.8700 C   0  0  0  0  0  0  0  0  0  0  0  0
  130.8420  121.9100   61.4370 N   0  0  0  0  0  0  0  0  0  0  0  0
  129.6930  122.0710   62.1560 C   0  0  0  0  0  0  0  0  0  0  0  0
  129.5930  121.6930   63.3250 O   0  0  0  0  0  0  0  0  0  0  0  0
  128.6600  122.7050   61.5560 N   0  0  0  0  0  0  0  0  0  0  0  0
  128.8360  123.2420   60.1880 C   0  0  0  0  0  0  0  0  0  0  0  0
  128.0970  122.4580   59.0850 C   0  0  0  0  0  0  0  0  0  0  0  0
  127.5810  123.5120   57.7420 Cl  0  0  0  0  0  0  0  0  0  0  0  0
  127.5030  122.8430   62.3000 N   0  0  0  0  0  0  0  0  0  0  0  0
  126.4780  122.9900   61.6660 O   0  0  0  0  0  0  0  0  0  0  0  0
  130.1250  124.1883   67.7522 H   0  0  0  0  0  0  0  0  0  0  0  0
  130.7803  125.8416   67.4996 H   0  0  0  0  0  0  0  0  0  0  0  0
  129.0047  125.5696   67.4996 H   0  0  0  0  0  0  0  0  0  0  0  0
  129.0346  125.2075   65.3150 H   0  0  0  0  0  0  0  0  0  0  0  0
  130.3117  122.8481   66.3647 H   0  0  0  0  0  0  0  0  0  0  0  0
  129.3818  123.0038   64.8358 H   0  0  0  0  0  0  0  0  0  0  0  0
  131.1597  123.2600   64.8358 H   0  0  0  0  0  0  0  0  0  0  0  0
  131.5121  126.4934   65.5967 H   0  0  0  0  0  0  0  0  0  0  0  0
  130.6890  127.5340   63.7840 H   0  0  0  0  0  0  0  0  0  0  0  0
  128.9166  128.1428   62.6455 H   0  0  0  0  0  0  0  0  0  0  0  0
  126.7675  126.4584   62.5861 H   0  0  0  0  0  0  0  0  0  0  0  0
  126.7597  127.8814   61.5492 H   0  0  0  0  0  0  0  0  0  0  0  0
  127.4495  124.9765   60.8457 H   0  0  0  0  0  0  0  0  0  0  0  0
  126.4430  126.0774   59.9249 H   0  0  0  0  0  0  0  0  0  0  0  0
  129.1183  125.6455   59.3394 H   0  0  0  0  0  0  0  0  0  0  0  0
  128.3506  127.2017   58.9908 H   0  0  0  0  0  0  0  0  0  0  0  0
  129.8136  129.6972   60.3584 H   0  0  0  0  0  0  0  0  0  0  0  0
  132.3700  130.3690   60.9240 H   0  0  0  0  0  0  0  0  0  0  0  0
  132.2590  128.9280   61.7260 H   0  0  0  0  0  0  0  0  0  0  0  0
  131.2040  130.1490   62.0810 H   0  0  0  0  0  0  0  0  0  0  0  0
  132.1434  128.9311   58.6316 H   0  0  0  0  0  0  0  0  0  0  0  0
  130.3826  129.1811   58.1936 H   0  0  0  0  0  0  0  0  0  0  0  0
  131.8207  131.4584   59.4840 H   0  0  0  0  0  0  0  0  0  0  0  0
  132.2267  131.0241   57.7490 H   0  0  0  0  0  0  0  0  0  0  0  0
  130.5600  132.3966   57.2060 H   0  0  0  0  0  0  0  0  0  0  0  0
  129.4985  131.0044   57.7501 H   0  0  0  0  0  0  0  0  0  0  0  0
  129.9310  133.6836   58.9697 H   0  0  0  0  0  0  0  0  0  0  0  0
  128.4855  132.5625   58.9613 H   0  0  0  0  0  0  0  0  0  0  0  0
  130.3860  131.3970   60.5980 H   0  0  0  0  0  0  0  0  0  0  0  0
  129.2581  132.3648   64.7826 H   0  0  0  0  0  0  0  0  0  0  0  0
  127.9348  132.7187   63.5871 H   0  0  0  0  0  0  0  0  0  0  0  0
  129.2122  129.9673   63.7507 H   0  0  0  0  0  0  0  0  0  0  0  0
  127.8673  130.4496   64.8506 H   0  0  0  0  0  0  0  0  0  0  0  0
  130.9410  124.5990   62.7170 H   0  0  0  0  0  0  0  0  0  0  0  0
  131.4229  123.8319   60.6655 H   0  0  0  0  0  0  0  0  0  0  0  0
  132.5448  122.3861   59.1151 H   0  0  0  0  0  0  0  0  0  0  0  0
  133.8676  122.5684   60.2672 H   0  0  0  0  0  0  0  0  0  0  0  0
  132.9551  120.1005   59.6539 H   0  0  0  0  0  0  0  0  0  0  0  0
  133.3727  120.4190   61.3219 H   0  0  0  0  0  0  0  0  0  0  0  0
  130.6286  120.3958   59.9707 H   0  0  0  0  0  0  0  0  0  0  0  0
  131.0461  119.7903   61.5793 H   0  0  0  0  0  0  0  0  0  0  0  0
  128.4668  124.2781   60.1771 H   0  0  0  0  0  0  0  0  0  0  0  0
  129.9089  123.1608   59.9594 H   0  0  0  0  0  0  0  0  0  0  0  0
  128.7701  121.6833   58.6891 H   0  0  0  0  0  0  0  0  0  0  0  0
  127.1954  122.0137   59.5320 H   0  0  0  0  0  0  0  0  0  0  0  0
  1  2  1  0
  2  3  1  0
  2  4  1  0
  4  5  1  0
  5  6  1  0
  6  7  2  0
  6  8  1  0
  8  9  1  0
  9 10  1  0
 10 11  1  0
 11 12  1  0
 12 13  1  0
 13 14  2  0
 13 15  1  0
 15 16  1  0
 15 17  1  0
 17 18  1  0
 18 19  1  0
 19 20  1  0
 20 21  1  0
 21 22  1  0
 22 23  2  0
 22 24  1  0
 24 25  1  0
 25 26  1  0
 26 27  1  0
 24 28  1  0
 28 29  2  0
  4 30  1  0
 30 31  2  0
 30 32  1  0
 32 33  1  0
 33 34  2  0
 33 35  1  0
 35 36  1  0
 36 37  1  0
 37 38  1  0
 38 39  1  0
 39 40  1  0
 40 41  2  0
 40 42  1  0
 42 43  1  0
 43 44  1  0
 44 45  1  0
 42 46  1  0
 46 47  2  0
 12  8  1  0
 39 35  1  0
  1 48  1  0
  1 49  1  0
  1 50  1  0
  2 51  1  0
  3 52  1  0
  3 53  1  0
  3 54  1  0
  4 55  1  1
  5 56  1  0
  8 57  1  1
  9 58  1  0
  9 59  1  0
 10 60  1  0
 10 61  1  0
 11 62  1  0
 11 63  1  0
 15 64  1  1
 16 65  1  0
 16 66  1  0
 16 67  1  0
 17 68  1  0
 17 69  1  0
 18 70  1  0
 18 71  1  0
 19 72  1  0
 19 73  1  0
 20 74  1  0
 20 75  1  0
 21 76  1  0
 25 77  1  0
 25 78  1  0
 26 79  1  0
 26 80  1  0
 32 81  1  0
 35 82  1  6
 36 83  1  0
 36 84  1  0
 37 85  1  0
 37 86  1  0
 38 87  1  0
 38 88  1  0
 43 89  1  0
 43 90  1  0
 44 91  1  0
 44 92  1  0
M  CHG  1  16   1
M  END
>  <Binding energies>  (1) 
[-10.86]

>  <Ligand effiencies>  (1) 
[-0.20490566037735847]

>  <Interactions>  (1) 
["V-A:ILE:369:CG2:3237, V-B:PRO:540:CA:9855, H-A:GLU:543:OE2:4910, H-A:ALA:541:N:4891, V-B:GLU:543:CB:9878, V-A:PRO:540:C:4881, V-B:ALA:541:CB:9864, V-B:TYR:539:CE2:9848, V-A:TYR:484:CE2:4346, V-B:GLU:543:CG:9879, V-B:TYR:539:C:9839, V-A:ASP:366:CG:3213, V-A:ALA:541:CB:4892, H-B:ALA:541:N:9863, V-A:GLU:543:CD:4908, V-A:TYR:484:CZ:4347, V-B:GLU:543:CA:9876, H-A:GLY:454:N:4050, V-B:PRO:540:N:9856, V-A:HIS:456:CE1:4070, V-A:ALA:541:CA:4890, V-B:TYR:539:CD2:9846, V-A:GLU:543:CG:4907, V-A:SER:385:CB:3409, V-B:GLU:543:CD:9880, V-A:TYR:539:C:4867, V-A:LEU:475:CD2:4259, H-A:ARG:545:NH2:4928, V-A:ARG:545:CZ:4926, H-A:GLU:543:OE1:4909, H-A:ASP:366:OD1:3214, V-A:PRO:540:N:4884, V-A:PRO:540:CA:4883, H-A:ARG:545:NE:4924, H-A:ASP:366:OD2:3215, H-A:TYR:484:OH:4348"]

$$$$
ZINC2386329181
     RDKit          3D

 67 68  0  0  0  0  0  0  0  0999 V2000
  126.8060  128.0870   73.9290 C   0  0  0  0  0  0  0  0  0  0  0  0
  128.2940  128.3920   73.7120 C   0  0  0  0  0  0  0  0  0  0  0  0
  128.7190  128.2870   72.2320 C   0  0  0  0  0  0  0  0  0  0  0  0
  129.5920  127.0440   71.9180 C   0  0  2  0  0  0  0  0  0  0  0  0
  129.4740  126.6530   70.5010 N   0  0  0  0  0  0  0  0  0  0  0  0
  129.9620  127.3370   69.4530 C   0  0  0  0  0  0  0  0  0  0  0  0
  130.5690  128.4060   69.5380 O   0  0  0  0  0  0  0  0  0  0  0  0
  129.7490  126.6820   68.0760 C   0  0  2  0  0  0  0  0  0  0  0  0
  131.0620  126.0080   67.5860 C   0  0  0  0  0  0  0  0  0  0  0  0
  130.9140  125.1910   66.2970 C   0  0  0  0  0  0  0  0  0  0  0  0
  129.9040  124.2320   66.2060 C   0  0  0  0  0  0  0  0  0  0  0  0
  129.7630  123.4710   65.0500 C   0  0  0  0  0  0  0  0  0  0  0  0
  130.6320  123.6610   63.9780 C   0  0  0  0  0  0  0  0  0  0  0  0
  131.6610  124.6190   64.0270 C   0  0  0  0  0  0  0  0  0  0  0  0
  132.5600  124.8080   62.9340 N   0  0  0  0  0  0  0  0  0  0  0  0
  132.1660  125.5910   61.7550 C   0  0  0  0  0  0  0  0  0  0  0  0
  131.8080  124.7370   60.5260 C   0  0  0  0  0  0  0  0  0  0  0  0
  133.1880  124.6720   59.4010 Cl  0  0  0  0  0  0  0  0  0  0  0  0
  133.7940  124.0170   62.8240 C   0  0  0  0  0  0  0  0  0  0  0  0
  133.5750  122.5030   62.9880 C   0  0  0  0  0  0  0  0  0  0  0  0
  133.6380  121.6860   61.4060 Cl  0  0  0  0  0  0  0  0  0  0  0  0
  131.7690  125.3850   65.2040 C   0  0  0  0  0  0  0  0  0  0  0  0
  129.2390  127.6560   67.1060 N   0  0  0  0  0  0  0  0  0  0  0  0
  127.9660  128.0790   67.0360 C   0  0  0  0  0  0  0  0  0  0  0  0
  127.0820  127.7140   67.8140 O   0  0  0  0  0  0  0  0  0  0  0  0
  127.6400  129.0350   65.8660 C   0  0  1  0  0  0  0  0  0  0  0  0
  128.0710  128.5980   64.4600 C   0  0  0  0  0  0  0  0  0  0  0  0
  127.0690  129.3100   63.5690 C   0  0  0  0  0  0  0  0  0  0  0  0
  125.7540  129.2340   64.3470 C   0  0  0  0  0  0  0  0  0  0  0  0
  126.1450  129.2170   65.7790 N   0  0  0  0  0  0  0  0  0  0  0  0
  129.2490  125.8550   72.8950 C   0  0  0  0  0  0  0  0  0  0  0  0
  129.8460  125.9040   73.9960 O   0  0  0  0  0  0  0  0  0  0  0  0
  128.3740  125.0430   72.5070 O   0  0  0  0  0  0  0  0  0  0  0  0
  126.5941  128.0436   75.0075 H   0  0  0  0  0  0  0  0  0  0  0  0
  126.1982  128.8792   73.4675 H   0  0  0  0  0  0  0  0  0  0  0  0
  126.5589  127.1195   73.4675 H   0  0  0  0  0  0  0  0  0  0  0  0
  128.4978  129.4140   74.0640 H   0  0  0  0  0  0  0  0  0  0  0  0
  128.8700  127.6427   74.2748 H   0  0  0  0  0  0  0  0  0  0  0  0
  127.8110  128.2384   71.6130 H   0  0  0  0  0  0  0  0  0  0  0  0
  129.3321  129.1732   72.0111 H   0  0  0  0  0  0  0  0  0  0  0  0
  130.6455  127.3108   72.0879 H   0  0  0  0  0  0  0  0  0  0  0  0
  128.9860  125.7860   70.3340 H   0  0  0  0  0  0  0  0  0  0  0  0
  128.9873  125.8945   68.1748 H   0  0  0  0  0  0  0  0  0  0  0  0
  131.8080  126.7968   67.4092 H   0  0  0  0  0  0  0  0  0  0  0  0
  131.3630  125.3002   68.3724 H   0  0  0  0  0  0  0  0  0  0  0  0
  129.2172  124.0774   67.0512 H   0  0  0  0  0  0  0  0  0  0  0  0
  128.9640  122.7180   64.9824 H   0  0  0  0  0  0  0  0  0  0  0  0
  130.5109  123.0481   63.0727 H   0  0  0  0  0  0  0  0  0  0  0  0
  131.2886  126.1987   62.0211 H   0  0  0  0  0  0  0  0  0  0  0  0
  133.0363  126.2025   61.4744 H   0  0  0  0  0  0  0  0  0  0  0  0
  131.5568  123.7171   60.8526 H   0  0  0  0  0  0  0  0  0  0  0  0
  130.9466  125.1891   60.0126 H   0  0  0  0  0  0  0  0  0  0  0  0
  134.2357  124.1986   61.8331 H   0  0  0  0  0  0  0  0  0  0  0  0
  134.4548  124.3368   63.6432 H   0  0  0  0  0  0  0  0  0  0  0  0
  134.3611  122.0923   63.6387 H   0  0  0  0  0  0  0  0  0  0  0  0
  132.5844  122.3341   63.4354 H   0  0  0  0  0  0  0  0  0  0  0  0
  132.5481  126.1589   65.2671 H   0  0  0  0  0  0  0  0  0  0  0  0
  129.9150  128.0000   66.4400 H   0  0  0  0  0  0  0  0  0  0  0  0
  128.2159  129.9381   66.1166 H   0  0  0  0  0  0  0  0  0  0  0  0
  129.0986  128.9235   64.2408 H   0  0  0  0  0  0  0  0  0  0  0  0
  128.0780  127.5064   64.3245 H   0  0  0  0  0  0  0  0  0  0  0  0
  127.3662  130.3566   63.4065 H   0  0  0  0  0  0  0  0  0  0  0  0
  126.9947  128.8541   62.5707 H   0  0  0  0  0  0  0  0  0  0  0  0
  125.1267  130.1110   64.1295 H   0  0  0  0  0  0  0  0  0  0  0  0
  125.1664  128.3456   64.0723 H   0  0  0  0  0  0  0  0  0  0  0  0
  125.8500  130.0640   66.2430 H   0  0  0  0  0  0  0  0  0  0  0  0
  125.6610  128.4580   66.2390 H   0  0  0  0  0  0  0  0  0  0  0  0
  1  2  1  0
  2  3  1  0
  3  4  1  0
  4  5  1  0
  5  6  1  0
  6  7  2  0
  6  8  1  0
  8  9  1  0
  9 10  1  0
 10 11  2  0
 11 12  1  0
 12 13  2  0
 13 14  1  0
 14 15  1  0
 15 16  1  0
 16 17  1  0
 17 18  1  0
 15 19  1  0
 19 20  1  0
 20 21  1  0
 14 22  2  0
  8 23  1  0
 23 24  1  0
 24 25  2  0
 24 26  1  0
 26 27  1  0
 27 28  1  0
 28 29  1  0
 29 30  1  0
  4 31  1  0
 31 32  2  0
 31 33  1  0
 22 10  1  0
 30 26  1  0
  1 34  1  0
  1 35  1  0
  1 36  1  0
  2 37  1  0
  2 38  1  0
  3 39  1  0
  3 40  1  0
  4 41  1  6
  5 42  1  0
  8 43  1  1
  9 44  1  0
  9 45  1  0
 11 46  1  0
 12 47  1  0
 13 48  1  0
 16 49  1  0
 16 50  1  0
 17 51  1  0
 17 52  1  0
 19 53  1  0
 19 54  1  0
 20 55  1  0
 20 56  1  0
 22 57  1  0
 23 58  1  0
 26 59  1  1
 27 60  1  0
 27 61  1  0
 28 62  1  0
 28 63  1  0
 29 64  1  0
 29 65  1  0
 30 66  1  0
 30 67  1  0
M  CHG  2  30   1  33  -1
M  END
>  <Binding energies>  (1) 
[-9.08]

>  <Ligand effiencies>  (1) 
[-0.2454054054054054]

>  <Interactions>  (1) 
["V-A:ILE:369:CG2:3237, V-A:ASP:366:CA:3210, V-A:GLY:454:CA:4049, V-B:HIS:456:CD2:9039, H-A:GLU:543:OE2:4910, H-B:GLU:543:O:9875, V-B:GLU:543:CB:9878, H-B:LYS:547:NZ:9923, V-B:HIS:456:CB:9036, V-A:TYR:484:CE2:4346, V-B:GLU:543:CG:9879, V-A:HIS:456:CD2:4068, V-A:ASP:366:CG:3213, V-B:LYS:547:CE:9922, V-A:TYR:484:CZ:4347, V-A:GLU:543:CD:4908, H-B:TYR:484:OH:9319, V-B:GLU:543:CA:9876, V-B:HIS:456:CE1:9041, V-A:HIS:456:CE1:4070, V-A:ILE:369:CD1:3239, V-B:TYR:484:CZ:9318, V-A:GLU:543:CG:4907, V-B:GLU:543:CD:9880, V-B:HIS:456:CG:9037, V-B:ARG:545:CZ:9898, V-A:ASP:366:CB:3212, V-A:LEU:475:CD2:4259, V-A:ARG:545:CZ:4926, H-A:GLU:543:OE1:4909, V-A:GLU:543:CB:4906, H-B:GLU:543:OE2:9882, H-A:HIS:456:NE2:4071"]

$$$$
ZINC2386330670
     RDKit          3D

124130  0  0  0  0  0  0  0  0999 V2000
  127.8280  126.0540   60.8950 C   0  0  0  0  0  0  0  0  0  0  0  0
  128.1970  124.7850   60.6330 C   0  0  0  0  0  0  0  0  0  0  0  0
  127.9160  124.1620   59.2750 C   0  0  0  0  0  0  0  0  0  0  0  0
  128.9150  123.8610   61.6270 C   0  0  1  0  0  0  0  0  0  0  0  0
  129.3270  122.5330   60.9890 C   0  0  0  0  0  0  0  0  0  0  0  0
  130.4010  122.0100   61.9320 C   0  0  0  0  0  0  0  0  0  0  0  0
  131.2480  123.2400   62.3380 C   0  0  2  0  0  0  0  0  0  0  0  0
  132.3060  123.5220   61.2230 C   0  0  0  0  0  0  0  0  0  0  0  0
  132.8480  124.8370   61.3490 O   0  0  0  0  0  0  0  0  0  0  0  0
  132.6870  125.6640   60.2360 C   0  0  2  0  0  0  0  0  0  0  0  0
  131.8080  126.7280   60.5280 O   0  0  0  0  0  0  0  0  0  0  0  0
  131.7140  127.6700   59.4530 C   0  0  2  0  0  0  0  0  0  0  0  0
  130.9740  128.9290   59.9470 C   0  0  0  0  0  0  0  0  0  0  0  0
  129.9090  128.5800   60.8090 O   0  0  0  0  0  0  0  0  0  0  0  0
  131.0140  126.9830   58.2510 C   0  0  2  0  0  0  0  0  0  0  0  0
  129.6630  126.6570   58.5300 O   0  0  0  0  0  0  0  0  0  0  0  0
  131.8010  125.7080   57.8570 C   0  0  1  0  0  0  0  0  0  0  0  0
  132.9900  126.0400   57.1600 O   0  0  0  0  0  0  0  0  0  0  0  0
  132.1080  124.8110   59.0880 C   0  0  2  0  0  0  0  0  0  0  0  0
  130.9660  124.0710   59.4870 O   0  0  0  0  0  0  0  0  0  0  0  0
  131.9980  122.9370   63.6720 C   0  0  0  0  0  0  0  0  0  0  0  0
  131.2870  123.4690   64.9220 C   0  0  0  0  0  0  0  0  0  0  0  0
  130.9210  124.9860   64.8560 C   0  0  1  0  0  0  0  0  0  0  0  0
  132.1590  125.8390   64.3920 C   0  0  0  0  0  0  0  0  0  0  0  0
  129.8050  125.0540   63.7700 C   0  0  1  0  0  0  0  0  0  0  0  0
  129.3730  126.5190   63.5960 C   0  0  0  0  0  0  0  0  0  0  0  0
  128.7510  127.0640   64.8740 C   0  0  0  0  0  0  0  0  0  0  0  0
  129.5990  126.9170   66.1840 C   0  0  1  0  0  0  0  0  0  0  0  0
  128.7900  127.3950   67.5070 C   0  0  2  0  0  0  0  0  0  0  0  0
  127.2520  127.4990   67.2340 C   0  0  0  0  0  0  0  0  0  0  0  0
  129.2910  128.8180   67.9110 C   0  0  0  0  0  0  0  0  0  0  0  0
  128.7370  129.3410   69.2570 C   0  0  0  0  0  0  0  0  0  0  0  0
  129.0580  128.3640   70.4230 C   0  0  1  0  0  0  0  0  0  0  0  0
  128.5580  128.8350   71.6810 O   0  0  0  0  0  0  0  0  0  0  0  0
  129.2800  128.5110   72.8350 C   0  0  1  0  0  0  0  0  0  0  0  0
  128.5600  127.5780   73.6040 O   0  0  0  0  0  0  0  0  0  0  0  0
  129.1900  127.1800   74.8320 C   0  0  2  0  0  0  0  0  0  0  0  0
  129.3000  128.3140   75.8850 C   0  0  0  0  0  0  0  0  0  0  0  0
  128.8310  129.5360   75.3540 O   0  0  0  0  0  0  0  0  0  0  0  0
  130.5200  126.4660   74.4900 C   0  0  2  0  0  0  0  0  0  0  0  0
  131.1980  126.0010   75.6470 O   0  0  0  0  0  0  0  0  0  0  0  0
  131.4070  127.3460   73.5840 C   0  0  1  0  0  0  0  0  0  0  0  0
  132.5750  126.6550   73.1710 O   0  0  0  0  0  0  0  0  0  0  0  0
  130.6030  127.8770   72.3680 C   0  0  2  0  0  0  0  0  0  0  0  0
  131.3630  128.8050   71.6130 O   0  0  0  0  0  0  0  0  0  0  0  0
  128.5360  126.9020   70.1770 C   0  0  0  0  0  0  0  0  0  0  0  0
  129.2080  126.0000   71.2520 C   0  0  0  0  0  0  0  0  0  0  0  0
  126.9890  126.8420   70.3230 C   0  0  0  0  0  0  0  0  0  0  0  0
  129.0490  126.4520   68.7480 C   0  0  1  0  0  0  0  0  0  0  0  0
  129.0030  124.9280   68.4260 C   0  0  0  0  0  0  0  0  0  0  0  0
  129.3090  124.5930   66.9440 C   0  0  0  0  0  0  0  0  0  0  0  0
  130.3870  125.5270   66.2890 C   0  0  1  0  0  0  0  0  0  0  0  0
  131.6580  125.6330   67.2230 C   0  0  0  0  0  0  0  0  0  0  0  0
  130.1790  124.4090   62.3780 C   0  0  2  0  0  0  0  0  0  0  0  0
  128.0362  126.4949   61.8810 H   0  0  0  0  0  0  0  0  0  0  0  0
  127.3185  126.6492   60.1229 H   0  0  0  0  0  0  0  0  0  0  0  0
  127.4673  123.1673   59.4137 H   0  0  0  0  0  0  0  0  0  0  0  0
  127.2200  124.8033   58.7144 H   0  0  0  0  0  0  0  0  0  0  0  0
  128.8574  124.0647   58.7144 H   0  0  0  0  0  0  0  0  0  0  0  0
  128.1271  123.7533   62.3871 H   0  0  0  0  0  0  0  0  0  0  0  0
  128.4750  121.8390   60.9384 H   0  0  0  0  0  0  0  0  0  0  0  0
  129.6805  122.6443   59.9533 H   0  0  0  0  0  0  0  0  0  0  0  0
  129.9402  121.5532   62.8203 H   0  0  0  0  0  0  0  0  0  0  0  0
  131.0181  121.2370   61.4507 H   0  0  0  0  0  0  0  0  0  0  0  0
  133.1210  122.7880   61.3072 H   0  0  0  0  0  0  0  0  0  0  0  0
  131.8116  123.4404   60.2438 H   0  0  0  0  0  0  0  0  0  0  0  0
  133.6581  126.0940   59.9497 H   0  0  0  0  0  0  0  0  0  0  0  0
  132.7080  127.9959   59.1129 H   0  0  0  0  0  0  0  0  0  0  0  0
  131.6812  129.5731   60.4901 H   0  0  0  0  0  0  0  0  0  0  0  0
  130.5628  129.4606   59.0762 H   0  0  0  0  0  0  0  0  0  0  0  0
  130.2230  127.9210   61.4320 H   0  0  0  0  0  0  0  0  0  0  0  0
  131.0069  127.6957   57.4131 H   0  0  0  0  0  0  0  0  0  0  0  0
  129.4560  126.9440   59.4230 H   0  0  0  0  0  0  0  0  0  0  0  0
  131.1582  125.1241   57.1818 H   0  0  0  0  0  0  0  0  0  0  0  0
  132.8910  126.9190   56.7860 H   0  0  0  0  0  0  0  0  0  0  0  0
  132.8712  124.0713   58.8045 H   0  0  0  0  0  0  0  0  0  0  0  0
  130.2100  124.6630   59.4910 H   0  0  0  0  0  0  0  0  0  0  0  0
  132.1013  121.8463   63.7707 H   0  0  0  0  0  0  0  0  0  0  0  0
  132.9688  123.4510   63.6151 H   0  0  0  0  0  0  0  0  0  0  0  0
  130.3582  122.8961   65.0602 H   0  0  0  0  0  0  0  0  0  0  0  0
  131.9906  123.3506   65.7592 H   0  0  0  0  0  0  0  0  0  0  0  0
  132.6994  126.2113   65.2748 H   0  0  0  0  0  0  0  0  0  0  0  0
  132.8312  125.2114   63.7884 H   0  0  0  0  0  0  0  0  0  0  0  0
  131.8120  126.6906   63.7884 H   0  0  0  0  0  0  0  0  0  0  0  0
  128.9741  124.4345   64.1385 H   0  0  0  0  0  0  0  0  0  0  0  0
  130.2543  127.1250   63.3389 H   0  0  0  0  0  0  0  0  0  0  0  0
  128.6217  126.5681   62.7940 H   0  0  0  0  0  0  0  0  0  0  0  0
  128.5570  128.1358   64.7203 H   0  0  0  0  0  0  0  0  0  0  0  0
  127.8502  126.4553   65.0412 H   0  0  0  0  0  0  0  0  0  0  0  0
  130.4247  127.6406   66.1160 H   0  0  0  0  0  0  0  0  0  0  0  0
  126.7113  127.5356   68.1913 H   0  0  0  0  0  0  0  0  0  0  0  0
  127.0426  128.4134   66.6595 H   0  0  0  0  0  0  0  0  0  0  0  0
  126.9214  126.6212   66.6595 H   0  0  0  0  0  0  0  0  0  0  0  0
  130.3884  128.7877   67.9809 H   0  0  0  0  0  0  0  0  0  0  0  0
  128.9252  129.5075   67.1359 H   0  0  0  0  0  0  0  0  0  0  0  0
  129.1911  130.3189   69.4747 H   0  0  0  0  0  0  0  0  0  0  0  0
  127.6439  129.4277   69.1702 H   0  0  0  0  0  0  0  0  0  0  0  0
  130.1569  128.3307   70.4587 H   0  0  0  0  0  0  0  0  0  0  0  0
  129.4584  129.4045   73.4512 H   0  0  0  0  0  0  0  0  0  0  0  0
  128.5429  126.4603   75.3548 H   0  0  0  0  0  0  0  0  0  0  0  0
  128.6974  128.0483   76.7661 H   0  0  0  0  0  0  0  0  0  0  0  0
  130.3565  128.4334   76.1669 H   0  0  0  0  0  0  0  0  0  0  0  0
  128.1590  129.3480   74.6950 H   0  0  0  0  0  0  0  0  0  0  0  0
  130.2721  125.5625   73.9135 H   0  0  0  0  0  0  0  0  0  0  0  0
  132.1300  125.9130   75.4400 H   0  0  0  0  0  0  0  0  0  0  0  0
  131.7340  128.2135   74.1760 H   0  0  0  0  0  0  0  0  0  0  0  0
  132.9610  127.1230   72.4280 H   0  0  0  0  0  0  0  0  0  0  0  0
  130.3729  127.0228   71.7142 H   0  0  0  0  0  0  0  0  0  0  0  0
  130.7960  129.5470   71.3890 H   0  0  0  0  0  0  0  0  0  0  0  0
  128.9383  126.3620   72.2551 H   0  0  0  0  0  0  0  0  0  0  0  0
  128.8602  124.9635   71.1305 H   0  0  0  0  0  0  0  0  0  0  0  0
  130.3006  126.0367   71.1305 H   0  0  0  0  0  0  0  0  0  0  0  0
  126.7215  126.8316   71.3899 H   0  0  0  0  0  0  0  0  0  0  0  0
  126.5408  127.7234   69.8412 H   0  0  0  0  0  0  0  0  0  0  0  0
  126.6104  125.9285   69.8412 H   0  0  0  0  0  0  0  0  0  0  0  0
  130.1148  126.6518   68.9327 H   0  0  0  0  0  0  0  0  0  0  0  0
  129.7450  124.4174   69.0575 H   0  0  0  0  0  0  0  0  0  0  0  0
  127.9759  124.5888   68.6260 H   0  0  0  0  0  0  0  0  0  0  0  0
  129.6717  123.5559   66.8914 H   0  0  0  0  0  0  0  0  0  0  0  0
  128.3744  124.7432   66.3837 H   0  0  0  0  0  0  0  0  0  0  0  0
  131.3422  125.6067   68.2764 H   0  0  0  0  0  0  0  0  0  0  0  0
  132.3328  124.7880   67.0213 H   0  0  0  0  0  0  0  0  0  0  0  0
  132.1835  126.5781   67.0213 H   0  0  0  0  0  0  0  0  0  0  0  0
  130.6499  125.2777   61.8945 H   0  0  0  0  0  0  0  0  0  0  0  0
  1  2  2  0
  2  3  1  0
  2  4  1  0
  4  5  1  0
  5  6  1  0
  6  7  1  0
  7  8  1  6
  8  9  1  0
  9 10  1  0
 10 11  1  0
 11 12  1  0
 12 13  1  0
 13 14  1  0
 12 15  1  0
 15 16  1  0
 15 17  1  0
 17 18  1  0
 17 19  1  0
 19 20  1  0
  7 21  1  0
 21 22  1  0
 22 23  1  0
 23 24  1  6
 23 25  1  0
 25 26  1  0
 26 27  1  0
 27 28  1  0
 28 29  1  0
 29 30  1  6
 29 31  1  0
 31 32  1  0
 32 33  1  0
 33 34  1  0
 34 35  1  0
 35 36  1  0
 36 37  1  0
 37 38  1  0
 38 39  1  0
 37 40  1  0
 40 41  1  0
 40 42  1  0
 42 43  1  0
 42 44  1  0
 44 45  1  0
 33 46  1  0
 46 47  1  0
 46 48  1  0
 46 49  1  0
 49 50  1  0
 50 51  1  0
 51 52  1  0
 52 53  1  1
 25 54  1  0
 54  4  1  0
 54  7  1  0
 19 10  1  0
 52 23  1  0
 52 28  1  0
 49 29  1  0
 44 35  1  0
  1 55  1  0
  1 56  1  0
  3 57  1  0
  3 58  1  0
  3 59  1  0
  4 60  1  1
  5 61  1  0
  5 62  1  0
  6 63  1  0
  6 64  1  0
  8 65  1  0
  8 66  1  0
 10 67  1  6
 12 68  1  6
 13 69  1  0
 13 70  1  0
 14 71  1  0
 15 72  1  6
 16 73  1  0
 17 74  1  6
 18 75  1  0
 19 76  1  6
 20 77  1  0
 21 78  1  0
 21 79  1  0
 22 80  1  0
 22 81  1  0
 24 82  1  0
 24 83  1  0
 24 84  1  0
 25 85  1  1
 26 86  1  0
 26 87  1  0
 27 88  1  0
 27 89  1  0
 28 90  1  6
 30 91  1  0
 30 92  1  0
 30 93  1  0
 31 94  1  0
 31 95  1  0
 32 96  1  0
 32 97  1  0
 33 98  1  1
 35 99  1  1
 37100  1  1
 38101  1  0
 38102  1  0
 39103  1  0
 40104  1  6
 41105  1  0
 42106  1  1
 43107  1  0
 44108  1  6
 45109  1  0
 47110  1  0
 47111  1  0
 47112  1  0
 48113  1  0
 48114  1  0
 48115  1  0
 49116  1  1
 50117  1  0
 50118  1  0
 51119  1  0
 51120  1  0
 53121  1  0
 53122  1  0
 53123  1  0
 54124  1  6
M  END
>  <Binding energies>  (1) 
[1.86]

>  <Ligand effiencies>  (1) 
[0.030000000000000002]

>  <Interactions>  (1) 
["V-A:GLU:543:CA:4904, V-B:HIS:456:CD2:9039, V-B:GLU:543:C:9874, V-A:GLU:543:C:4902, V-B:GLU:543:CB:9878, H-B:LYS:547:NZ:9923, H-A:TYR:531:OH:4795, V-A:TYR:484:CE2:4346, V-B:TYR:539:CE2:9848, V-B:GLU:543:CG:9879, V-A:GLY:544:C:4912, V-A:HIS:456:CD2:4068, H-A:ARG:545:N:4920, V-A:ASP:366:CG:3213, V-B:TYR:539:CZ:9849, H-B:TYR:539:OH:9850, V-A:TYR:484:CZ:4347, V-A:GLU:543:CD:4908, V-B:HIS:456:CE1:9041, V-B:GLU:543:CA:9876, V-A:HIS:456:CE1:4070, V-B:GLY:544:C:9884, V-B:GLY:544:CA:9886, V-A:GLU:543:CG:4907, V-B:GLU:543:CD:9880, V-A:ASP:366:CB:3212, H-A:LYS:547:NZ:4951, V-A:LEU:475:CD2:4259, V-A:ARG:545:CZ:4926, H-A:GLU:543:OE1:4909, H-A:ASP:366:O:3209, V-A:GLU:543:CB:4906, H-A:ARG:545:O:4918, H-A:GLY:544:N:4915, H-A:GLY:544:O:4913, H-A:HIS:456:NE2:4071, H-A:HIS:456:ND1:4067, H-A:GLU:543:O:4903"]

$$$$
ZINC2386334679
     RDKit          3D

116123  0  0  0  0  0  0  0  0999 V2000
  128.5290  133.9700   57.1920 C   0  0  0  0  0  0  0  0  0  0  0  0
  129.9120  133.3310   57.4150 C   0  0  0  0  0  0  0  0  0  0  0  0
  129.8800  131.8000   57.5290 C   0  0  0  0  0  0  0  0  0  0  0  0
  130.1570  131.0920   56.5580 O   0  0  0  0  0  0  0  0  0  0  0  0
  129.5210  131.3040   58.7270 N   0  0  0  0  0  0  0  0  0  0  0  0
  129.4460  129.8840   59.0800 C   0  0  1  0  0  0  0  0  0  0  0  0
  129.2530  128.9320   57.8800 C   0  0  0  0  0  0  0  0  0  0  0  0
  129.1340  127.4450   58.2660 C   0  0  0  0  0  0  0  0  0  0  0  0
  130.0950  126.9020   59.3640 C   0  0  1  0  0  0  0  0  0  0  0  0
  131.2000  126.0170   58.8570 N   0  0  0  0  0  0  0  0  0  0  0  0
  131.8690  126.4200   57.7190 C   0  0  0  0  0  0  0  0  0  0  0  0
  131.6470  127.4450   57.0780 O   0  0  0  0  0  0  0  0  0  0  0  0
  132.9240  125.5230   57.2750 C   0  0  0  0  0  0  0  0  0  0  0  0
  133.2710  124.3690   57.8840 C   0  0  0  0  0  0  0  0  0  0  0  0
  134.3890  123.4770   57.3630 C   0  0  0  0  0  0  0  0  0  0  0  0
  132.5400  123.9630   59.1000 C   0  0  0  0  0  0  0  0  0  0  0  0
  132.8010  122.7970   59.8290 C   0  0  0  0  0  0  0  0  0  0  0  0
  132.1050  122.4650   60.9430 N   0  0  0  0  0  0  0  0  0  0  0  0
  131.1150  123.3140   61.3250 C   0  0  0  0  0  0  0  0  0  0  0  0
  130.3780  123.0530   62.4900 N   0  0  0  0  0  0  0  0  0  0  0  0
  130.2450  123.7520   63.7030 C   0  0  0  0  0  0  0  0  0  0  0  0
  129.1340  123.4320   64.4840 C   0  0  0  0  0  0  0  0  0  0  0  0
  128.9030  124.0760   65.6950 C   0  0  0  0  0  0  0  0  0  0  0  0
  129.7810  125.0570   66.1780 C   0  0  0  0  0  0  0  0  0  0  0  0
  129.5480  125.6850   67.4070 N   0  0  0  0  0  0  0  0  0  0  0  0
  128.1960  126.1110   67.8190 C   0  0  0  0  0  0  0  0  0  0  0  0
  128.1290  127.1470   68.9640 C   0  0  0  0  0  0  0  0  0  0  0  0
  128.9780  126.6980   70.0740 N   0  0  0  0  0  0  0  0  0  0  0  0
  128.4410  126.3760   71.2830 C   0  0  0  0  0  0  0  0  0  0  0  0
  127.2290  126.4460   71.5030 O   0  0  0  0  0  0  0  0  0  0  0  0
  129.3860  126.0100   72.4520 C   0  0  0  0  0  0  0  0  0  0  0  0
  130.3950  127.1080   72.8830 C   0  0  0  0  0  0  0  0  0  0  0  0
  129.9350  128.5760   72.7100 C   0  0  0  0  0  0  0  0  0  0  0  0
  129.5920  128.9710   71.3310 C   0  0  0  0  0  0  0  0  0  0  0  0
  129.2980  129.2840   70.1880 C   0  0  0  0  0  0  0  0  0  0  0  0
  128.9480  129.6470   68.8220 C   0  0  0  0  0  0  0  0  0  0  0  0
  129.0220  130.9840   68.4100 C   0  0  0  0  0  0  0  0  0  0  0  0
  128.6900  131.3370   67.0990 C   0  0  0  0  0  0  0  0  0  0  0  0
  128.2810  130.3400   66.2120 C   0  0  0  0  0  0  0  0  0  0  0  0
  128.2070  129.0180   66.6090 C   0  0  0  0  0  0  0  0  0  0  0  0
  128.5380  128.6600   67.9170 C   0  0  0  0  0  0  0  0  0  0  0  0
  127.7520  128.1920   65.4490 C   0  0  0  0  0  0  0  0  0  0  0  0
  127.5710  129.1900   64.3960 N   0  0  0  0  0  0  0  0  0  0  0  0
  127.1800  128.7770   63.0320 C   0  0  1  0  0  0  0  0  0  0  0  0
  127.4400  129.7500   61.8580 C   0  0  0  0  0  0  0  0  0  0  0  0
  126.8110  129.2190   60.5550 C   0  0  0  0  0  0  0  0  0  0  0  0
  127.2270  127.7540   60.2820 C   0  0  0  0  0  0  0  0  0  0  0  0
  127.1720  127.2420   59.1670 O   0  0  0  0  0  0  0  0  0  0  0  0
  127.6470  127.0500   61.3630 N   0  0  0  0  0  0  0  0  0  0  0  0
  127.7450  127.3700   62.6760 C   0  0  0  0  0  0  0  0  0  0  0  0
  128.2130  126.5780   63.4940 O   0  0  0  0  0  0  0  0  0  0  0  0
  127.8860  130.4570   64.7740 C   0  0  0  0  0  0  0  0  0  0  0  0
  127.8640  131.4770   64.0860 O   0  0  0  0  0  0  0  0  0  0  0  0
  130.3780  126.4460   69.7160 C   0  0  0  0  0  0  0  0  0  0  0  0
  130.4240  125.4150   68.5650 C   0  0  0  0  0  0  0  0  0  0  0  0
  130.9210  125.3380   65.4040 C   0  0  0  0  0  0  0  0  0  0  0  0
  131.1760  124.6970   64.1780 C   0  0  0  0  0  0  0  0  0  0  0  0
  132.3300  124.9130   63.4440 O   0  0  0  0  0  0  0  0  0  0  0  0
  133.5240  124.2070   63.7630 C   0  0  0  0  0  0  0  0  0  0  0  0
  130.8040  124.4730   60.6910 N   0  0  0  0  0  0  0  0  0  0  0  0
  131.5090  124.8010   59.5690 C   0  0  0  0  0  0  0  0  0  0  0  0
  130.5330  127.9570   60.4220 C   0  0  0  0  0  0  0  0  0  0  0  0
  130.6150  129.4290   59.9730 C   0  0  0  0  0  0  0  0  0  0  0  0
  128.0633  134.1852   58.1651 H   0  0  0  0  0  0  0  0  0  0  0  0
  128.6445  134.9060   56.6258 H   0  0  0  0  0  0  0  0  0  0  0  0
  127.8911  133.2753   56.6258 H   0  0  0  0  0  0  0  0  0  0  0  0
  130.5590  133.6016   56.5676 H   0  0  0  0  0  0  0  0  0  0  0  0
  130.2894  133.7144   58.3745 H   0  0  0  0  0  0  0  0  0  0  0  0
  129.3560  131.9540   59.4810 H   0  0  0  0  0  0  0  0  0  0  0  0
  128.5215  129.8070   59.6711 H   0  0  0  0  0  0  0  0  0  0  0  0
  128.3343  129.2256   57.3510 H   0  0  0  0  0  0  0  0  0  0  0  0
  130.1532  129.0251   57.2547 H   0  0  0  0  0  0  0  0  0  0  0  0
  128.1054  127.2786   58.6185 H   0  0  0  0  0  0  0  0  0  0  0  0
  129.4170  126.8982   57.3545 H   0  0  0  0  0  0  0  0  0  0  0  0
  129.4633  126.2086   59.9387 H   0  0  0  0  0  0  0  0  0  0  0  0
  133.4836  125.8071   56.3716 H   0  0  0  0  0  0  0  0  0  0  0  0
  134.9358  123.0408   58.2120 H   0  0  0  0  0  0  0  0  0  0  0  0
  133.9594  122.6708   56.7503 H   0  0  0  0  0  0  0  0  0  0  0  0
  135.0797  124.0749   56.7503 H   0  0  0  0  0  0  0  0  0  0  0  0
  133.6010  122.1252   59.4846 H   0  0  0  0  0  0  0  0  0  0  0  0
  129.8320  122.2050   62.4380 H   0  0  0  0  0  0  0  0  0  0  0  0
  128.4313  122.6600   64.1373 H   0  0  0  0  0  0  0  0  0  0  0  0
  128.0138  123.8105   66.2857 H   0  0  0  0  0  0  0  0  0  0  0  0
  127.6992  126.5484   66.9405 H   0  0  0  0  0  0  0  0  0  0  0  0
  127.7075  125.2063   68.2101 H   0  0  0  0  0  0  0  0  0  0  0  0
  128.4858  128.1215   68.5993 H   0  0  0  0  0  0  0  0  0  0  0  0
  127.0900  127.2461   69.3112 H   0  0  0  0  0  0  0  0  0  0  0  0
  128.7624  125.7653   73.3245 H   0  0  0  0  0  0  0  0  0  0  0  0
  129.9984  125.1727   72.0862 H   0  0  0  0  0  0  0  0  0  0  0  0
  130.6231  126.9527   73.9478 H   0  0  0  0  0  0  0  0  0  0  0  0
  131.2566  126.9919   72.2091 H   0  0  0  0  0  0  0  0  0  0  0  0
  129.0455  128.7297   73.3387 H   0  0  0  0  0  0  0  0  0  0  0  0
  130.7933  129.1998   73.0004 H   0  0  0  0  0  0  0  0  0  0  0  0
  129.3428  131.7593   69.1214 H   0  0  0  0  0  0  0  0  0  0  0  0
  128.7502  132.3853   66.7711 H   0  0  0  0  0  0  0  0  0  0  0  0
  128.4771  127.6087   68.2350 H   0  0  0  0  0  0  0  0  0  0  0  0
  128.5142  127.4509   65.1665 H   0  0  0  0  0  0  0  0  0  0  0  0
  126.8435  127.6081   65.6582 H   0  0  0  0  0  0  0  0  0  0  0  0
  126.0836  128.7700   63.1210 H   0  0  0  0  0  0  0  0  0  0  0  0
  127.0000  130.7293   62.0975 H   0  0  0  0  0  0  0  0  0  0  0  0
  128.5263  129.8427   61.7119 H   0  0  0  0  0  0  0  0  0  0  0  0
  125.7155  129.2698   60.6401 H   0  0  0  0  0  0  0  0  0  0  0  0
  127.1676  129.8408   59.7206 H   0  0  0  0  0  0  0  0  0  0  0  0
  127.9530  126.1130   61.1470 H   0  0  0  0  0  0  0  0  0  0  0  0
  130.8502  127.3845   69.3899 H   0  0  0  0  0  0  0  0  0  0  0  0
  130.9206  126.0539   70.5888 H   0  0  0  0  0  0  0  0  0  0  0  0
  131.4599  125.3692   68.1977 H   0  0  0  0  0  0  0  0  0  0  0  0
  130.0531  124.4749   68.9994 H   0  0  0  0  0  0  0  0  0  0  0  0
  131.6393  126.0861   65.7705 H   0  0  0  0  0  0  0  0  0  0  0  0
  133.6315  124.1434   64.8559 H   0  0  0  0  0  0  0  0  0  0  0  0
  133.4745  123.1929   63.3398 H   0  0  0  0  0  0  0  0  0  0  0  0
  134.3888  124.7391   63.3398 H   0  0  0  0  0  0  0  0  0  0  0  0
  129.8146  127.9065   61.2535 H   0  0  0  0  0  0  0  0  0  0  0  0
  131.5684  127.6848   60.6746 H   0  0  0  0  0  0  0  0  0  0  0  0
  130.6294  130.0632   60.8717 H   0  0  0  0  0  0  0  0  0  0  0  0
  131.5292  129.5240   59.3687 H   0  0  0  0  0  0  0  0  0  0  0  0
  1  2  1  0
  2  3  1  0
  3  4  2  0
  3  5  1  0
  5  6  1  0
  6  7  1  0
  7  8  1  0
  8  9  1  0
  9 10  1  0
 10 11  1  0
 11 12  2  0
 11 13  1  0
 13 14  2  0
 14 15  1  0
 14 16  1  0
 16 17  2  0
 17 18  1  0
 18 19  2  0
 19 20  1  0
 20 21  1  0
 21 22  2  0
 22 23  1  0
 23 24  2  0
 24 25  1  0
 25 26  1  0
 26 27  1  0
 27 28  1  0
 28 29  1  0
 29 30  2  0
 29 31  1  0
 31 32  1  0
 32 33  1  0
 33 34  1  0
 34 35  3  0
 35 36  1  0
 36 37  2  0
 37 38  1  0
 38 39  2  0
 39 40  1  0
 40 41  2  0
 40 42  1  0
 42 43  1  0
 43 44  1  0
 44 45  1  0
 45 46  1  0
 46 47  1  0
 47 48  2  0
 47 49  1  0
 49 50  1  0
 50 51  2  0
 43 52  1  0
 52 53  2  0
 28 54  1  0
 54 55  1  0
 24 56  1  0
 56 57  2  0
 57 58  1  0
 58 59  1  0
 19 60  1  0
 60 61  2  0
  9 62  1  0
 62 63  1  0
 63  6  1  0
 61 10  1  0
 61 16  1  0
 57 21  1  0
 55 25  1  0
 41 36  1  0
 50 44  1  0
 52 39  1  0
  1 64  1  0
  1 65  1  0
  1 66  1  0
  2 67  1  0
  2 68  1  0
  5 69  1  0
  6 70  1  1
  7 71  1  0
  7 72  1  0
  8 73  1  0
  8 74  1  0
  9 75  1  1
 13 76  1  0
 15 77  1  0
 15 78  1  0
 15 79  1  0
 17 80  1  0
 20 81  1  0
 22 82  1  0
 23 83  1  0
 26 84  1  0
 26 85  1  0
 27 86  1  0
 27 87  1  0
 31 88  1  0
 31 89  1  0
 32 90  1  0
 32 91  1  0
 33 92  1  0
 33 93  1  0
 37 94  1  0
 38 95  1  0
 41 96  1  0
 42 97  1  0
 42 98  1  0
 44 99  1  1
 45100  1  0
 45101  1  0
 46102  1  0
 46103  1  0
 49104  1  0
 54105  1  0
 54106  1  0
 55107  1  0
 55108  1  0
 56109  1  0
 59110  1  0
 59111  1  0
 59112  1  0
 62113  1  0
 62114  1  0
 63115  1  0
 63116  1  0
M  END
>  <Binding energies>  (1) 
[64.9]

>  <Ligand effiencies>  (1) 
[0.9833333333333334]

>  <Interactions>  (1) 
["V-A:ILE:369:CG2:3237, V-A:ASP:366:CA:3210, V-A:ILE:538:C:4858, V-A:GLU:543:CA:4904, V-A:ILE:369:C:3232, V-B:GLU:543:C:9874, V-A:ILE:369:CB:3236, V-A:GLY:454:CA:4049, V-B:HIS:456:CD2:9039, V-A:GLU:543:C:4902, V-B:GLU:543:CB:9878, H-A:TYR:531:OH:4795, V-A:TYR:484:CE2:4346, V-B:TYR:539:CE2:9848, V-A:ASN:370:CB:3245, V-B:GLU:543:CG:9879, V-A:TYR:539:CE2:4876, V-A:HIS:456:CD2:4068, V-A:TYR:539:CD1:4873, V-B:TYR:484:CE2:9317, V-B:TYR:539:CZ:9849, V-A:ILE:538:CA:4860, H-B:GLU:543:OE1:9881, V-A:TYR:539:CZ:4877, V-A:TYR:539:CA:4869, V-A:TYR:484:CZ:4347, V-A:GLU:543:CD:4908, H-B:TYR:484:OH:9319, V-B:HIS:456:CE1:9041, V-B:GLU:543:CA:9876, V-A:HIS:456:CE1:4070, V-B:TYR:484:CZ:9318, V-A:ASP:366:C:3208, V-A:TYR:539:CB:4871, V-A:ASN:370:CA:3243, V-B:TYR:539:CD2:9846, V-A:TYR:531:CZ:4794, V-A:ILE:369:CA:3234, V-A:GLU:543:CG:4907, V-B:GLU:543:CD:9880, V-B:TYR:484:CD2:9315, V-A:TYR:539:C:4867, V-A:ASP:366:CB:3212, H-A:ARG:545:NH2:4928, V-A:ARG:545:CZ:4926, V-A:GLU:543:CB:4906, V-A:PRO:540:N:4884, V-A:TYR:539:CG:4872, V-A:PRO:540:CA:4883, V-A:TYR:539:CD2:4874, V-A:PRO:540:CD:4887, V-A:TYR:539:CE1:4875"]

$$$$
ZINC2386341141
     RDKit          3D

126129  0  0  0  0  0  0  0  0999 V2000
  130.4040  119.3760   61.0700 C   0  0  0  0  0  0  0  0  0  0  0  0
  130.2900  120.7100   61.1670 C   0  0  0  0  0  0  0  0  0  0  0  0
  131.3940  121.6420   61.6430 C   0  0  0  0  0  0  0  0  0  0  0  0
  130.8940  122.9300   62.3460 C   0  0  2  0  0  0  0  0  0  0  0  0
  132.0000  123.5930   63.1570 C   0  0  0  0  0  0  0  0  0  0  0  0
  132.8550  124.5490   62.7390 C   0  0  0  0  0  0  0  0  0  0  0  0
  133.8990  125.1210   63.6900 C   0  0  0  0  0  0  0  0  0  0  0  0
  132.9660  125.0270   61.2860 C   0  0  0  0  0  0  0  0  0  0  0  0
  132.9640  123.9680   60.1480 C   0  0  2  0  0  0  0  0  0  0  0  0
  133.9680  124.4170   59.0630 C   0  0  0  0  0  0  0  0  0  0  0  0
  131.5540  123.6640   59.5770 C   0  0  0  0  0  0  0  0  0  0  0  0
  130.4060  124.6600   59.9170 C   0  0  2  0  0  0  0  0  0  0  0  0
  129.2030  123.9620   60.2360 O   0  0  0  0  0  0  0  0  0  0  0  0
  128.7910  122.9640   59.3130 C   0  0  0  0  0  0  0  0  0  0  0  0
  130.0660  125.7040   58.8170 C   0  0  1  0  0  0  0  0  0  0  0  0
  128.7310  125.5400   58.3060 O   0  0  0  0  0  0  0  0  0  0  0  0
  127.7750  126.5280   58.2630 C   0  0  0  0  0  0  0  0  0  0  0  0
  126.7500  126.2200   57.6570 O   0  0  0  0  0  0  0  0  0  0  0  0
  128.0410  127.9180   58.9260 C   0  0  2  0  0  0  0  0  0  0  0  0
  128.2840  128.8800   57.7180 C   0  0  0  0  0  0  0  0  0  0  0  0
  129.3350  127.9140   59.7960 C   0  0  0  0  0  0  0  0  0  0  0  0
  130.5130  127.1410   59.1930 C   0  0  2  0  0  0  0  0  0  0  0  0
  131.0500  127.8340   58.0680 O   0  0  0  0  0  0  0  0  0  0  0  0
  131.6950  129.0690   58.3540 C   0  0  0  0  0  0  0  0  0  0  0  0
  126.7950  128.3800   59.8020 C   0  0  1  0  0  0  0  0  0  0  0  0
  126.5680  127.4780   60.8820 O   0  0  0  0  0  0  0  0  0  0  0  0
  126.7110  129.8450   60.3670 C   0  0  0  0  0  0  0  0  0  0  0  0
  125.5950  130.3140   60.5870 O   0  0  0  0  0  0  0  0  0  0  0  0
  127.8540  130.6010   60.5090 N   0  0  0  0  0  0  0  0  0  0  0  0
  128.2320  131.3890   59.3050 C   0  0  0  0  0  0  0  0  0  0  0  0
  128.8650  132.7130   59.7510 C   0  0  0  0  0  0  0  0  0  0  0  0
  130.1420  132.4500   60.5400 C   0  0  0  0  0  0  0  0  0  0  0  0
  129.8330  131.5550   61.7410 C   0  0  0  0  0  0  0  0  0  0  0  0
  129.0130  130.2610   61.4240 C   0  0  1  0  0  0  0  0  0  0  0  0
  128.7240  129.6120   62.8080 C   0  0  0  0  0  0  0  0  0  0  0  0
  129.0720  130.1840   63.8440 O   0  0  0  0  0  0  0  0  0  0  0  0
  128.0170  128.4550   62.7500 O   0  0  0  0  0  0  0  0  0  0  0  0
  128.0770  127.3970   63.7250 C   0  0  2  0  0  0  0  0  0  0  0  0
  128.2250  127.9480   65.1570 C   0  0  0  0  0  0  0  0  0  0  0  0
  127.4260  129.2030   65.4820 C   0  0  0  0  0  0  0  0  0  0  0  0
  129.0330  127.3330   66.0490 C   0  0  0  0  0  0  0  0  0  0  0  0
  129.2970  127.7420   67.4920 C   0  0  2  0  0  0  0  0  0  0  0  0
  130.6190  127.1100   67.9720 C   0  0  0  0  0  0  0  0  0  0  0  0
  130.9220  127.5200   69.4270 C   0  0  0  0  0  0  0  0  0  0  0  0
  129.7520  127.2130   70.3980 C   0  0  1  0  0  0  0  0  0  0  0  0
  130.0650  127.7840   71.6520 O   0  0  0  0  0  0  0  0  0  0  0  0
  128.3710  127.6900   69.8530 C   0  0  2  0  0  0  0  0  0  0  0  0
  127.2640  127.1840   70.6020 O   0  0  0  0  0  0  0  0  0  0  0  0
  126.1800  126.6510   69.8510 C   0  0  0  0  0  0  0  0  0  0  0  0
  128.1610  127.2190   68.3960 C   0  0  0  0  0  0  0  0  0  0  0  0
  129.2360  126.4530   63.2390 C   0  0  2  0  0  0  0  0  0  0  0  0
  130.2630  127.2300   62.3740 C   0  0  0  0  0  0  0  0  0  0  0  0
  128.8940  125.1030   62.5170 C   0  0  2  0  0  0  0  0  0  0  0  0
  127.7190  125.1470   61.7310 O   0  0  0  0  0  0  0  0  0  0  0  0
  128.7830  123.9410   63.5490 C   0  0  0  0  0  0  0  0  0  0  0  0
  129.6760  122.7220   63.2770 C   0  0  0  0  0  0  0  0  0  0  0  0
  129.4420  121.6430   63.8230 O   0  0  0  0  0  0  0  0  0  0  0  0
  129.5533  118.7756   60.7152 H   0  0  0  0  0  0  0  0  0  0  0  0
  131.3481  118.8832   61.3453 H   0  0  0  0  0  0  0  0  0  0  0  0
  129.3286  121.1619   60.8816 H   0  0  0  0  0  0  0  0  0  0  0  0
  132.0281  121.0888   62.3514 H   0  0  0  0  0  0  0  0  0  0  0  0
  131.9353  121.9687   60.7429 H   0  0  0  0  0  0  0  0  0  0  0  0
  130.5751  123.5768   61.5154 H   0  0  0  0  0  0  0  0  0  0  0  0
  132.1139  123.2551   64.1976 H   0  0  0  0  0  0  0  0  0  0  0  0
  133.5825  124.9476   64.7291 H   0  0  0  0  0  0  0  0  0  0  0  0
  134.8656  124.6265   63.5137 H   0  0  0  0  0  0  0  0  0  0  0  0
  134.0025  126.2018   63.5137 H   0  0  0  0  0  0  0  0  0  0  0  0
  132.1169  125.7016   61.1016 H   0  0  0  0  0  0  0  0  0  0  0  0
  133.9682  125.4770   61.2294 H   0  0  0  0  0  0  0  0  0  0  0  0
  133.2844  123.0034   60.5686 H   0  0  0  0  0  0  0  0  0  0  0  0
  134.8712  124.8209   59.5438 H   0  0  0  0  0  0  0  0  0  0  0  0
  134.2405  123.5550   58.4363 H   0  0  0  0  0  0  0  0  0  0  0  0
  133.5072  125.1948   58.4363 H   0  0  0  0  0  0  0  0  0  0  0  0
  131.6439  123.6277   58.4813 H   0  0  0  0  0  0  0  0  0  0  0  0
  131.2561  122.7209   60.0585 H   0  0  0  0  0  0  0  0  0  0  0  0
  130.8034  125.2193   60.7768 H   0  0  0  0  0  0  0  0  0  0  0  0
  128.4275  122.0835   59.8630 H   0  0  0  0  0  0  0  0  0  0  0  0
  127.9830  123.3606   58.6806 H   0  0  0  0  0  0  0  0  0  0  0  0
  129.6434  122.6751   58.6806 H   0  0  0  0  0  0  0  0  0  0  0  0
  130.6897  125.4955   57.9353 H   0  0  0  0  0  0  0  0  0  0  0  0
  128.5373  129.8826   58.0929 H   0  0  0  0  0  0  0  0  0  0  0  0
  129.1137  128.4972   57.1055 H   0  0  0  0  0  0  0  0  0  0  0  0
  127.3721  128.9371   57.1055 H   0  0  0  0  0  0  0  0  0  0  0  0
  129.6506  128.9572   59.9446 H   0  0  0  0  0  0  0  0  0  0  0  0
  129.0758  127.4009   60.7338 H   0  0  0  0  0  0  0  0  0  0  0  0
  131.3137  127.0658   59.9435 H   0  0  0  0  0  0  0  0  0  0  0  0
  131.7647  129.2025   59.4436 H   0  0  0  0  0  0  0  0  0  0  0  0
  132.7057  129.0640   57.9198 H   0  0  0  0  0  0  0  0  0  0  0  0
  131.1134  129.8956   57.9198 H   0  0  0  0  0  0  0  0  0  0  0  0
  126.0148  128.3683   59.0266 H   0  0  0  0  0  0  0  0  0  0  0  0
  126.2400  127.9810   61.6310 H   0  0  0  0  0  0  0  0  0  0  0  0
  128.9554  130.8189   58.7036 H   0  0  0  0  0  0  0  0  0  0  0  0
  127.3371  131.5916   58.6983 H   0  0  0  0  0  0  0  0  0  0  0  0
  129.1047  133.3175   58.8638 H   0  0  0  0  0  0  0  0  0  0  0  0
  128.1525  133.2516   60.3930 H   0  0  0  0  0  0  0  0  0  0  0  0
  130.8760  131.9499   59.8910 H   0  0  0  0  0  0  0  0  0  0  0  0
  130.5531  133.4063   60.8956 H   0  0  0  0  0  0  0  0  0  0  0  0
  130.7893  131.2486   62.1901 H   0  0  0  0  0  0  0  0  0  0  0  0
  129.2007  132.1564   62.4108 H   0  0  0  0  0  0  0  0  0  0  0  0
  129.5302  129.4918   60.8317 H   0  0  0  0  0  0  0  0  0  0  0  0
  127.1443  126.8178   63.7925 H   0  0  0  0  0  0  0  0  0  0  0  0
  127.3525  129.3185   66.5735 H   0  0  0  0  0  0  0  0  0  0  0  0
  127.9318  130.0809   65.0537 H   0  0  0  0  0  0  0  0  0  0  0  0
  126.4166  129.1162   65.0537 H   0  0  0  0  0  0  0  0  0  0  0  0
  129.5595  126.4355   65.6923 H   0  0  0  0  0  0  0  0  0  0  0  0
  129.3532  128.8392   67.5464 H   0  0  0  0  0  0  0  0  0  0  0  0
  130.5372  126.0145   67.9151 H   0  0  0  0  0  0  0  0  0  0  0  0
  131.4359  127.4656   67.3268 H   0  0  0  0  0  0  0  0  0  0  0  0
  131.8132  126.9724   69.7674 H   0  0  0  0  0  0  0  0  0  0  0  0
  131.0812  128.6084   69.4364 H   0  0  0  0  0  0  0  0  0  0  0  0
  129.6437  126.1234   70.5036 H   0  0  0  0  0  0  0  0  0  0  0  0
  129.2450  128.0300   72.0860 H   0  0  0  0  0  0  0  0  0  0  0  0
  128.3993  128.7868   69.9316 H   0  0  0  0  0  0  0  0  0  0  0  0
  125.4092  126.2720   70.5382 H   0  0  0  0  0  0  0  0  0  0  0  0
  125.7500  127.4404   69.2170 H   0  0  0  0  0  0  0  0  0  0  0  0
  126.5426  125.8284   69.2170 H   0  0  0  0  0  0  0  0  0  0  0  0
  128.1530  126.1194   68.3683 H   0  0  0  0  0  0  0  0  0  0  0  0
  127.2023  127.6137   68.0283 H   0  0  0  0  0  0  0  0  0  0  0  0
  129.6374  126.1235   64.2087 H   0  0  0  0  0  0  0  0  0  0  0  0
  130.9669  127.7625   63.0305 H   0  0  0  0  0  0  0  0  0  0  0  0
  130.8171  126.5230   61.7391 H   0  0  0  0  0  0  0  0  0  0  0  0
  129.7333  127.9555   61.7391 H   0  0  0  0  0  0  0  0  0  0  0  0
  129.7297  124.9247   61.8244 H   0  0  0  0  0  0  0  0  0  0  0  0
  127.1280  125.8040   62.1050 H   0  0  0  0  0  0  0  0  0  0  0  0
  129.0493  124.3411   64.5385 H   0  0  0  0  0  0  0  0  0  0  0  0
  127.7477  123.5759   63.4796 H   0  0  0  0  0  0  0  0  0  0  0  0
  1  2  2  0
  2  3  1  0
  3  4  1  0
  4  5  1  0
  5  6  2  0
  6  7  1  0
  6  8  1  0
  8  9  1  0
  9 10  1  0
  9 11  1  0
 11 12  1  0
 12 13  1  0
 13 14  1  0
 12 15  1  0
 15 16  1  0
 16 17  1  0
 17 18  2  0
 17 19  1  0
 19 20  1  6
 19 21  1  0
 21 22  1  0
 22 23  1  0
 23 24  1  0
 19 25  1  0
 25 26  1  0
 25 27  1  0
 27 28  2  0
 27 29  1  0
 29 30  1  0
 30 31  1  0
 31 32  1  0
 32 33  1  0
 33 34  1  0
 34 35  1  0
 35 36  2  0
 35 37  1  0
 37 38  1  0
 38 39  1  0
 39 40  1  0
 39 41  2  0
 41 42  1  0
 42 43  1  0
 43 44  1  0
 44 45  1  0
 45 46  1  0
 45 47  1  0
 47 48  1  0
 48 49  1  0
 47 50  1  0
 38 51  1  0
 51 52  1  0
 51 53  1  0
 53 54  1  0
 53 55  1  0
 55 56  1  0
 56 57  2  0
 56  4  1  0
 22 15  1  0
 34 29  1  0
 50 42  1  0
  1 58  1  0
  1 59  1  0
  2 60  1  0
  3 61  1  0
  3 62  1  0
  4 63  1  6
  5 64  1  0
  7 65  1  0
  7 66  1  0
  7 67  1  0
  8 68  1  0
  8 69  1  0
  9 70  1  1
 10 71  1  0
 10 72  1  0
 10 73  1  0
 11 74  1  0
 11 75  1  0
 12 76  1  1
 14 77  1  0
 14 78  1  0
 14 79  1  0
 15 80  1  6
 20 81  1  0
 20 82  1  0
 20 83  1  0
 21 84  1  0
 21 85  1  0
 22 86  1  1
 24 87  1  0
 24 88  1  0
 24 89  1  0
 25 90  1  6
 26 91  1  0
 30 92  1  0
 30 93  1  0
 31 94  1  0
 31 95  1  0
 32 96  1  0
 32 97  1  0
 33 98  1  0
 33 99  1  0
 34100  1  6
 38101  1  1
 40102  1  0
 40103  1  0
 40104  1  0
 41105  1  0
 42106  1  6
 43107  1  0
 43108  1  0
 44109  1  0
 44110  1  0
 45111  1  1
 46112  1  0
 47113  1  6
 49114  1  0
 49115  1  0
 49116  1  0
 50117  1  0
 50118  1  0
 51119  1  1
 52120  1  0
 52121  1  0
 52122  1  0
 53123  1  6
 54124  1  0
 55125  1  0
 55126  1  0
M  END
>  <Binding energies>  (1) 
[-1.41]

>  <Ligand effiencies>  (1) 
[-0.022741935483870965]

>  <Interactions>  (1) 
["V-A:ILE:369:CG2:3237, V-A:ASP:366:CA:3210, V-B:GLU:543:C:9874, V-A:ILE:369:CB:3236, V-B:GLU:543:CB:9878, V-A:PRO:540:C:4881, V-B:ALA:541:CB:9864, H-A:TYR:531:OH:4795, V-B:TYR:539:CE2:9848, V-B:GLU:543:CG:9879, V-B:TYR:539:C:9839, V-A:ASP:366:CG:3213, H-B:HIS:456:ND1:9038, V-B:TYR:539:CZ:9849, H-B:GLU:543:OE1:9881, V-B:ARG:545:CG:9894, V-A:GLU:543:CD:4908, H-B:ASP:366:OD1:8185, V-B:HIS:456:CE1:9041, V-B:GLU:543:CA:9876, V-A:HIS:456:CE1:4070, V-B:GLY:544:C:9884, V-A:ASP:366:C:3208, H-B:HIS:456:NE2:9042, V-B:TYR:539:CD2:9846, V-A:GLU:543:CG:4907, V-B:GLY:544:CA:9886, V-B:GLU:543:CD:9880, V-A:TYR:539:C:4867, H-B:TYR:531:OH:9767, V-A:ASP:366:CB:3212, V-A:LEU:475:CD2:4259, V-A:ARG:545:CZ:4926, V-A:GLU:543:CB:4906, V-A:PRO:540:N:4884, H-B:GLU:543:OE2:9882, V-A:GLY:453:CA:4044, V-B:ARG:545:CA:9891, V-A:PRO:540:CA:4883, V-A:PRO:540:CB:4885"]

$$$$
ZINC2386341489
     RDKit          3D

 78 83  0  0  0  0  0  0  0  0999 V2000
  125.9980  123.3090   58.2870 C   0  0  0  0  0  0  0  0  0  0  0  0
  125.9600  123.9700   59.5430 O   0  0  0  0  0  0  0  0  0  0  0  0
  126.7950  123.6030   60.5370 C   0  0  0  0  0  0  0  0  0  0  0  0
  126.4490  123.2160   61.6570 O   0  0  0  0  0  0  0  0  0  0  0  0
  128.2830  123.6950   60.1150 C   0  0  2  0  0  0  0  0  0  0  0  0
  129.1580  122.7010   60.9120 C   0  0  0  0  0  0  0  0  0  0  0  0
  129.4110  123.1680   62.3490 C   0  0  0  0  0  0  0  0  0  0  0  0
  129.1780  122.3290   63.3860 C   0  0  0  0  0  0  0  0  0  0  0  0
  129.4400  122.6360   64.7810 C   0  0  0  0  0  0  0  0  0  0  0  0
  129.0880  121.8880   65.6910 O   0  0  0  0  0  0  0  0  0  0  0  0
  130.3050  123.8720   65.0280 C   0  0  0  0  0  0  0  0  0  0  0  0
  129.9540  124.9940   64.0350 C   0  0  0  0  0  0  0  0  0  0  0  0
  129.9850  124.6080   62.5140 C   0  0  1  0  0  0  0  0  0  0  0  0
  131.4680  124.5820   62.0470 C   0  0  0  0  0  0  0  0  0  0  0  0
  129.1020  125.6210   61.6680 C   0  0  2  0  0  0  0  0  0  0  0  0
  128.8770  125.1310   60.1880 C   0  0  2  0  0  0  0  0  0  0  0  0
  128.0870  126.1760   59.3420 C   0  0  2  0  0  0  0  0  0  0  0  0
  127.7840  125.8670   57.8680 C   0  0  0  0  0  0  0  0  0  0  0  0
  127.6110  127.2460   57.2050 C   0  0  0  0  0  0  0  0  0  0  0  0
  127.8340  128.3160   58.3140 C   0  0  2  0  0  0  0  0  0  0  0  0
  126.5160  128.9180   58.8470 C   0  0  0  0  0  0  0  0  0  0  0  0
  126.1590  130.0220   57.8740 C   0  0  0  0  0  0  0  0  0  0  0  0
  127.5520  130.4570   57.4550 C   0  0  0  0  0  0  0  0  0  0  0  0
  127.8890  131.5120   56.9240 O   0  0  0  0  0  0  0  0  0  0  0  0
  128.4450  129.4920   57.7670 O   0  0  0  0  0  0  0  0  0  0  0  0
  128.7730  127.5610   59.3230 C   0  0  2  0  0  0  0  0  0  0  0  0
  130.2380  127.5420   58.7620 C   0  0  0  0  0  0  0  0  0  0  0  0
  128.7620  128.0500   60.7950 C   0  0  0  0  0  0  0  0  0  0  0  0
  129.5890  127.1200   61.7220 C   0  0  1  0  0  0  0  0  0  0  0  0
  129.4930  127.6270   63.0460 O   0  0  0  0  0  0  0  0  0  0  0  0
  128.1330  128.4940   63.4840 S   0  0  0  0  0  0  0  0  0  0  0  0
  128.3040  129.8970   63.0860 O   0  0  0  0  0  0  0  0  0  0  0  0
  126.9450  127.7210   63.1020 O   0  0  0  0  0  0  0  0  0  0  0  0
  128.3460  128.3670   65.2540 C   0  0  0  0  0  0  0  0  0  0  0  0
  128.0660  129.4610   66.0750 C   0  0  0  0  0  0  0  0  0  0  0  0
  128.2600  129.3610   67.4510 C   0  0  0  0  0  0  0  0  0  0  0  0
  128.7300  128.1670   68.0030 C   0  0  0  0  0  0  0  0  0  0  0  0
  128.9580  128.0630   69.5000 C   0  0  0  0  0  0  0  0  0  0  0  0
  129.0130  127.0760   67.1790 C   0  0  0  0  0  0  0  0  0  0  0  0
  128.8200  127.1750   65.8030 C   0  0  0  0  0  0  0  0  0  0  0  0
  126.0605  122.2224   58.4463 H   0  0  0  0  0  0  0  0  0  0  0  0
  125.0848  123.5447   57.7208 H   0  0  0  0  0  0  0  0  0  0  0  0
  126.8782  123.6478   57.7208 H   0  0  0  0  0  0  0  0  0  0  0  0
  128.2988  123.4141   59.0516 H   0  0  0  0  0  0  0  0  0  0  0  0
  128.6482  121.7267   60.9417 H   0  0  0  0  0  0  0  0  0  0  0  0
  130.1320  122.6309   60.4057 H   0  0  0  0  0  0  0  0  0  0  0  0
  128.7581  121.3391   63.1540 H   0  0  0  0  0  0  0  0  0  0  0  0
  130.1346  124.2320   66.0534 H   0  0  0  0  0  0  0  0  0  0  0  0
  131.3607  123.5962   64.8886 H   0  0  0  0  0  0  0  0  0  0  0  0
  128.9390  125.3459   64.2713 H   0  0  0  0  0  0  0  0  0  0  0  0
  130.7381  125.7551   64.1616 H   0  0  0  0  0  0  0  0  0  0  0  0
  132.1291  124.5704   62.9261 H   0  0  0  0  0  0  0  0  0  0  0  0
  131.6462  123.6806   61.4423 H   0  0  0  0  0  0  0  0  0  0  0  0
  131.6777  125.4766   61.4423 H   0  0  0  0  0  0  0  0  0  0  0  0
  128.1245  125.6190   62.1724 H   0  0  0  0  0  0  0  0  0  0  0  0
  129.8702  125.0535   59.7215 H   0  0  0  0  0  0  0  0  0  0  0  0
  127.1317  126.1446   59.8865 H   0  0  0  0  0  0  0  0  0  0  0  0
  128.6184  125.3176   57.4077 H   0  0  0  0  0  0  0  0  0  0  0  0
  126.8913  125.2349   57.7511 H   0  0  0  0  0  0  0  0  0  0  0  0
  128.3515  127.3745   56.4018 H   0  0  0  0  0  0  0  0  0  0  0  0
  126.6098  127.3447   56.7602 H   0  0  0  0  0  0  0  0  0  0  0  0
  125.7250  128.1540   58.8700 H   0  0  0  0  0  0  0  0  0  0  0  0
  126.6235  129.2957   59.8745 H   0  0  0  0  0  0  0  0  0  0  0  0
  125.5750  129.6435   57.0221 H   0  0  0  0  0  0  0  0  0  0  0  0
  125.5268  130.8211   58.2883 H   0  0  0  0  0  0  0  0  0  0  0  0
  130.9512  127.5328   59.5994 H   0  0  0  0  0  0  0  0  0  0  0  0
  130.3833  126.6419   58.1466 H   0  0  0  0  0  0  0  0  0  0  0  0
  130.4066  128.4380   58.1466 H   0  0  0  0  0  0  0  0  0  0  0  0
  129.1886  129.0631   60.8360 H   0  0  0  0  0  0  0  0  0  0  0  0
  127.7202  128.0428   61.1479 H   0  0  0  0  0  0  0  0  0  0  0  0
  130.6335  127.1136   61.3772 H   0  0  0  0  0  0  0  0  0  0  0  0
  127.6935  130.3987   65.6369 H   0  0  0  0  0  0  0  0  0  0  0  0
  128.0434  130.2210   68.1018 H   0  0  0  0  0  0  0  0  0  0  0  0
  128.0825  128.4624   70.0329 H   0  0  0  0  0  0  0  0  0  0  0  0
  129.1057  127.0085   69.7760 H   0  0  0  0  0  0  0  0  0  0  0  0
  129.8511  128.6428   69.7760 H   0  0  0  0  0  0  0  0  0  0  0  0
  129.3881  126.1389   67.6161 H   0  0  0  0  0  0  0  0  0  0  0  0
  129.0405  126.3165   65.1515 H   0  0  0  0  0  0  0  0  0  0  0  0
  1  2  1  0
  2  3  1  0
  3  4  2  0
  3  5  1  0
  5  6  1  0
  6  7  1  0
  7  8  2  0
  8  9  1  0
  9 10  2  0
  9 11  1  0
 11 12  1  0
 12 13  1  0
 13 14  1  6
 13 15  1  0
 15 16  1  0
 16 17  1  0
 17 18  1  0
 18 19  1  0
 19 20  1  0
 20 21  1  0
 21 22  1  0
 22 23  1  0
 23 24  2  0
 23 25  1  0
 20 26  1  0
 26 27  1  6
 26 28  1  0
 28 29  1  0
 29 30  1  0
 30 31  1  0
 31 32  2  0
 31 33  2  0
 31 34  1  0
 34 35  2  0
 35 36  1  0
 36 37  2  0
 37 38  1  0
 37 39  1  0
 39 40  2  0
 16  5  1  0
 26 17  1  0
 40 34  1  0
 13  7  1  0
 29 15  1  0
 20 25  1  6
  1 41  1  0
  1 42  1  0
  1 43  1  0
  5 44  1  6
  6 45  1  0
  6 46  1  0
  8 47  1  0
 11 48  1  0
 11 49  1  0
 12 50  1  0
 12 51  1  0
 14 52  1  0
 14 53  1  0
 14 54  1  0
 15 55  1  1
 16 56  1  6
 17 57  1  1
 18 58  1  0
 18 59  1  0
 19 60  1  0
 19 61  1  0
 21 62  1  0
 21 63  1  0
 22 64  1  0
 22 65  1  0
 27 66  1  0
 27 67  1  0
 27 68  1  0
 28 69  1  0
 28 70  1  0
 29 71  1  6
 35 72  1  0
 36 73  1  0
 38 74  1  0
 38 75  1  0
 38 76  1  0
 39 77  1  0
 40 78  1  0
M  END
>  <Binding energies>  (1) 
[-8.26]

>  <Ligand effiencies>  (1) 
[-0.2065]

>  <Interactions>  (1) 
["V-B:PRO:540:CA:9855, V-B:TYR:484:CZ:9318, V-B:GLU:543:CB:9878, V-A:GLU:543:CG:4907, H-B:ALA:541:N:9863, V-B:GLU:543:CD:9880, V-B:ALA:541:CB:9864, V-A:MET:535:CE:4835, V-A:TYR:484:CZ:4347, V-A:TYR:484:CE2:4346, V-B:PRO:540:CB:9857, V-A:GLU:543:CD:4908, V-A:LEU:475:CD2:4259, V-B:GLU:543:CG:9879, V-B:HIS:456:CE1:9041, H-B:ARG:545:NH2:9900, V-A:GLU:543:CB:4906, V-B:PRO:540:N:9856"]

$$$$
ZINC2386341546
     RDKit          3D

126130  0  0  0  0  0  0  0  0999 V2000
  132.9680  131.2810   62.1810 C   0  0  0  0  0  0  0  0  0  0  0  0
  131.7390  131.2380   61.6430 C   0  0  0  0  0  0  0  0  0  0  0  0
  131.4450  131.0940   60.1600 C   0  0  0  0  0  0  0  0  0  0  0  0
  130.2070  130.2190   59.8490 C   0  0  2  0  0  0  0  0  0  0  0  0
  128.8900  130.8780   60.2790 C   0  0  0  0  0  0  0  0  0  0  0  0
  128.4030  131.0270   61.5310 C   0  0  0  0  0  0  0  0  0  0  0  0
  127.0730  131.7350   61.7430 C   0  0  0  0  0  0  0  0  0  0  0  0
  129.1510  130.6150   62.8060 C   0  0  0  0  0  0  0  0  0  0  0  0
  128.3300  130.5490   64.1260 C   0  0  2  0  0  0  0  0  0  0  0  0
  128.7100  131.6820   65.1020 C   0  0  0  0  0  0  0  0  0  0  0  0
  128.3350  129.1600   64.8330 C   0  0  0  0  0  0  0  0  0  0  0  0
  128.8730  127.9370   64.0370 C   0  0  2  0  0  0  0  0  0  0  0  0
  128.0110  127.5720   62.9610 O   0  0  0  0  0  0  0  0  0  0  0  0
  128.3520  126.3580   62.3030 C   0  0  0  0  0  0  0  0  0  0  0  0
  129.1590  126.6750   64.8950 C   0  0  1  0  0  0  0  0  0  0  0  0
  130.0990  125.8200   64.2190 O   0  0  0  0  0  0  0  0  0  0  0  0
  131.1600  125.2510   64.9510 C   0  0  1  0  0  0  0  0  0  0  0  0
  132.1240  126.1940   65.2600 O   0  0  0  0  0  0  0  0  0  0  0  0
  130.6140  124.6810   66.2990 C   0  0  2  0  0  0  0  0  0  0  0  0
  129.5460  123.5690   66.1690 C   0  0  0  0  0  0  0  0  0  0  0  0
  130.0840  125.8460   67.1780 C   0  0  0  0  0  0  0  0  0  0  0  0
  129.4790  127.0270   66.3760 C   0  0  2  0  0  0  0  0  0  0  0  0
  128.3090  127.5440   67.0130 O   0  0  0  0  0  0  0  0  0  0  0  0
  128.3800  127.6650   68.4300 C   0  0  0  0  0  0  0  0  0  0  0  0
  131.8500  124.1920   64.0320 C   0  0  1  0  0  0  0  0  0  0  0  0
  131.2380  122.9200   64.0940 O   0  0  0  0  0  0  0  0  0  0  0  0
  130.4430  122.7890   62.9750 C   0  0  2  0  0  0  0  0  0  0  0  0
  130.1980  121.3180   62.6530 C   0  0  0  0  0  0  0  0  0  0  0  0
  129.5310  121.1960   61.2810 C   0  0  0  0  0  0  0  0  0  0  0  0
  130.4170  121.8400   60.2110 C   0  0  0  0  0  0  0  0  0  0  0  0
  130.8220  123.3110   60.5240 C   0  0  2  0  0  0  0  0  0  0  0  0
  131.9380  123.7320   59.5340 C   0  0  0  0  0  0  0  0  0  0  0  0
  133.1400  123.5830   59.7660 O   0  0  0  0  0  0  0  0  0  0  0  0
  131.4090  124.2530   58.3980 O   0  0  0  0  0  0  0  0  0  0  0  0
  130.7280  125.5160   58.3120 C   0  0  2  0  0  0  0  0  0  0  0  0
  129.2250  125.4180   57.9710 C   0  0  0  0  0  0  0  0  0  0  0  0
  128.5200  126.7680   57.8550 C   0  0  0  0  0  0  0  0  0  0  0  0
  128.5990  124.2390   57.7440 C   0  0  0  0  0  0  0  0  0  0  0  0
  127.1270  123.9950   57.4130 C   0  0  2  0  0  0  0  0  0  0  0  0
  126.3200  125.3110   57.5650 C   0  0  0  0  0  0  0  0  0  0  0  0
  126.1590  125.7750   59.0320 C   0  0  0  0  0  0  0  0  0  0  0  0
  125.5800  124.6570   59.9300 C   0  0  2  0  0  0  0  0  0  0  0  0
  125.4330  125.0850   61.2710 O   0  0  0  0  0  0  0  0  0  0  0  0
  126.3770  123.3320   59.8280 C   0  0  2  0  0  0  0  0  0  0  0  0
  127.6340  123.4850   60.4920 O   0  0  0  0  0  0  0  0  0  0  0  0
  127.6090  123.3380   61.9060 C   0  0  0  0  0  0  0  0  0  0  0  0
  126.5110  122.9110   58.3370 C   0  0  0  0  0  0  0  0  0  0  0  0
  131.6180  126.6020   57.6030 C   0  0  2  0  0  0  0  0  0  0  0  0
  133.1000  126.1700   57.4250 C   0  0  0  0  0  0  0  0  0  0  0  0
  131.5420  127.9860   58.3220 C   0  0  1  0  0  0  0  0  0  0  0  0
  130.4290  128.7280   57.8470 O   0  0  0  0  0  0  0  0  0  0  0  0
  131.4490  127.9130   59.8690 C   0  0  0  0  0  0  0  0  0  0  0  0
  130.3590  128.8120   60.4630 C   0  0  0  0  0  0  0  0  0  0  0  0
  129.6710  128.4210   61.4070 O   0  0  0  0  0  0  0  0  0  0  0  0
  131.2150  123.4610   61.9630 N   0  0  0  0  0  0  0  0  0  0  0  0
  131.8090  124.5380   62.5300 C   0  0  0  0  0  0  0  0  0  0  0  0
  132.2080  125.5800   62.0070 O   0  0  0  0  0  0  0  0  0  0  0  0
  133.0886  131.3874   63.2692 H   0  0  0  0  0  0  0  0  0  0  0  0
  133.8545  131.2098   61.5337 H   0  0  0  0  0  0  0  0  0  0  0  0
  130.8809  131.3126   62.3272 H   0  0  0  0  0  0  0  0  0  0  0  0
  131.2744  132.0969   59.7416 H   0  0  0  0  0  0  0  0  0  0  0  0
  132.3133  130.5910   59.7094 H   0  0  0  0  0  0  0  0  0  0  0  0
  130.1572  130.1159   58.7550 H   0  0  0  0  0  0  0  0  0  0  0  0
  128.2645  131.2789   59.4678 H   0  0  0  0  0  0  0  0  0  0  0  0
  126.8800  131.8377   62.8211 H   0  0  0  0  0  0  0  0  0  0  0  0
  127.1108  132.7324   61.2806 H   0  0  0  0  0  0  0  0  0  0  0  0
  126.2667  131.1468   61.2806 H   0  0  0  0  0  0  0  0  0  0  0  0
  129.5762  129.6157   62.6312 H   0  0  0  0  0  0  0  0  0  0  0  0
  129.8877  131.4148   62.9717 H   0  0  0  0  0  0  0  0  0  0  0  0
  127.2884  130.7024   63.8073 H   0  0  0  0  0  0  0  0  0  0  0  0
  128.5917  131.3293   66.1372 H   0  0  0  0  0  0  0  0  0  0  0  0
  129.7561  131.9766   64.9323 H   0  0  0  0  0  0  0  0  0  0  0  0
  128.0531  132.5478   64.9323 H   0  0  0  0  0  0  0  0  0  0  0  0
  128.9506  129.2567   65.7395 H   0  0  0  0  0  0  0  0  0  0  0  0
  127.2717  128.9329   64.9996 H   0  0  0  0  0  0  0  0  0  0  0  0
  129.8379  128.2927   63.6466 H   0  0  0  0  0  0  0  0  0  0  0  0
  128.5696  125.5831   63.0528 H   0  0  0  0  0  0  0  0  0  0  0  0
  127.5104  126.0331   61.6737 H   0  0  0  0  0  0  0  0  0  0  0  0
  129.2397  126.5189   61.6737 H   0  0  0  0  0  0  0  0  0  0  0  0
  128.2443  126.0715   64.9902 H   0  0  0  0  0  0  0  0  0  0  0  0
  131.9960  126.9460   64.6760 H   0  0  0  0  0  0  0  0  0  0  0  0
  131.4704  124.1831   66.7772 H   0  0  0  0  0  0  0  0  0  0  0  0
  129.2326  123.2426   67.1716 H   0  0  0  0  0  0  0  0  0  0  0  0
  128.6753  123.9590   65.6215 H   0  0  0  0  0  0  0  0  0  0  0  0
  129.9709  122.7148   65.6215 H   0  0  0  0  0  0  0  0  0  0  0  0
  129.3051  125.4476   67.8447 H   0  0  0  0  0  0  0  0  0  0  0  0
  130.9503  126.2475   67.7242 H   0  0  0  0  0  0  0  0  0  0  0  0
  130.2617  127.7997   66.3625 H   0  0  0  0  0  0  0  0  0  0  0  0
  127.8760  126.8060   68.8971 H   0  0  0  0  0  0  0  0  0  0  0  0
  129.4341  127.6867   68.7438 H   0  0  0  0  0  0  0  0  0  0  0  0
  127.8848  128.5958   68.7438 H   0  0  0  0  0  0  0  0  0  0  0  0
  132.8784  124.1899   64.4224 H   0  0  0  0  0  0  0  0  0  0  0  0
  129.4347  123.2150   63.0837 H   0  0  0  0  0  0  0  0  0  0  0  0
  131.1579  120.7810   62.6422 H   0  0  0  0  0  0  0  0  0  0  0  0
  129.5399  120.8815   63.4188 H   0  0  0  0  0  0  0  0  0  0  0  0
  129.3833  120.1328   61.0406 H   0  0  0  0  0  0  0  0  0  0  0  0
  128.5592  121.7108   61.3040 H   0  0  0  0  0  0  0  0  0  0  0  0
  131.3350  121.2414   60.1160 H   0  0  0  0  0  0  0  0  0  0  0  0
  129.8280  121.8632   59.2823 H   0  0  0  0  0  0  0  0  0  0  0  0
  129.9675  123.9889   60.3818 H   0  0  0  0  0  0  0  0  0  0  0  0
  130.6183  125.9324   59.3242 H   0  0  0  0  0  0  0  0  0  0  0  0
  128.3143  127.1619   58.8612 H   0  0  0  0  0  0  0  0  0  0  0  0
  129.1651  127.4729   57.3101 H   0  0  0  0  0  0  0  0  0  0  0  0
  127.5729  126.6414   57.3101 H   0  0  0  0  0  0  0  0  0  0  0  0
  129.2314  123.3411   57.8058 H   0  0  0  0  0  0  0  0  0  0  0  0
  127.0745  123.6412   56.3728 H   0  0  0  0  0  0  0  0  0  0  0  0
  126.8385  126.1032   57.0050 H   0  0  0  0  0  0  0  0  0  0  0  0
  125.3096  125.1155   57.1766 H   0  0  0  0  0  0  0  0  0  0  0  0
  127.1444  126.0698   59.4219 H   0  0  0  0  0  0  0  0  0  0  0  0
  125.4572  126.6219   59.0467 H   0  0  0  0  0  0  0  0  0  0  0  0
  124.5734  124.4386   59.5440 H   0  0  0  0  0  0  0  0  0  0  0  0
  126.2770  124.9800   61.7150 H   0  0  0  0  0  0  0  0  0  0  0  0
  125.8436  122.5143   60.3349 H   0  0  0  0  0  0  0  0  0  0  0  0
  127.7755  124.3169   62.3794 H   0  0  0  0  0  0  0  0  0  0  0  0
  126.6307  122.9423   62.2163 H   0  0  0  0  0  0  0  0  0  0  0  0
  128.4015  122.6411   62.2163 H   0  0  0  0  0  0  0  0  0  0  0  0
  127.1490  122.0162   58.2890 H   0  0  0  0  0  0  0  0  0  0  0  0
  125.4894  122.7323   57.9703 H   0  0  0  0  0  0  0  0  0  0  0  0
  131.1890  126.7058   56.5955 H   0  0  0  0  0  0  0  0  0  0  0  0
  133.5637  126.0348   58.4133 H   0  0  0  0  0  0  0  0  0  0  0  0
  133.1413  125.2224   56.8679 H   0  0  0  0  0  0  0  0  0  0  0  0
  133.6440  126.9469   56.8679 H   0  0  0  0  0  0  0  0  0  0  0  0
  132.4954  128.4783   58.0799 H   0  0  0  0  0  0  0  0  0  0  0  0
  130.6200  129.0290   56.9560 H   0  0  0  0  0  0  0  0  0  0  0  0
  131.2356  126.8726   60.1555 H   0  0  0  0  0  0  0  0  0  0  0  0
  132.4112  128.2684   60.2664 H   0  0  0  0  0  0  0  0  0  0  0  0
  1  2  2  0
  2  3  1  0
  3  4  1  0
  4  5  1  0
  5  6  2  0
  6  7  1  0
  6  8  1  0
  8  9  1  0
  9 10  1  0
  9 11  1  0
 11 12  1  0
 12 13  1  0
 13 14  1  0
 12 15  1  0
 15 16  1  0
 16 17  1  0
 17 18  1  1
 17 19  1  0
 19 20  1  0
 19 21  1  0
 21 22  1  0
 22 23  1  0
 23 24  1  0
 17 25  1  0
 25 26  1  0
 26 27  1  0
 27 28  1  0
 28 29  1  0
 29 30  1  0
 30 31  1  0
 31 32  1  0
 32 33  2  0
 32 34  1  0
 34 35  1  0
 35 36  1  0
 36 37  1  0
 36 38  2  0
 38 39  1  0
 39 40  1  0
 40 41  1  0
 41 42  1  0
 42 43  1  0
 42 44  1  0
 44 45  1  0
 45 46  1  0
 44 47  1  0
 35 48  1  0
 48 49  1  0
 48 50  1  0
 50 51  1  0
 50 52  1  0
 52 53  1  0
 53 54  2  0
 31 55  1  0
 55 56  1  0
 56 57  2  0
 53  4  1  0
 22 15  1  0
 56 25  1  0
 55 27  1  0
 47 39  1  0
  1 58  1  0
  1 59  1  0
  2 60  1  0
  3 61  1  0
  3 62  1  0
  4 63  1  6
  5 64  1  0
  7 65  1  0
  7 66  1  0
  7 67  1  0
  8 68  1  0
  8 69  1  0
  9 70  1  6
 10 71  1  0
 10 72  1  0
 10 73  1  0
 11 74  1  0
 11 75  1  0
 12 76  1  6
 14 77  1  0
 14 78  1  0
 14 79  1  0
 15 80  1  1
 18 81  1  0
 19 82  1  1
 20 83  1  0
 20 84  1  0
 20 85  1  0
 21 86  1  0
 21 87  1  0
 22 88  1  6
 24 89  1  0
 24 90  1  0
 24 91  1  0
 25 92  1  1
 27 93  1  1
 28 94  1  0
 28 95  1  0
 29 96  1  0
 29 97  1  0
 30 98  1  0
 30 99  1  0
 31100  1  6
 35101  1  1
 37102  1  0
 37103  1  0
 37104  1  0
 38105  1  0
 39106  1  6
 40107  1  0
 40108  1  0
 41109  1  0
 41110  1  0
 42111  1  6
 43112  1  0
 44113  1  1
 46114  1  0
 46115  1  0
 46116  1  0
 47117  1  0
 47118  1  0
 48119  1  6
 49120  1  0
 49121  1  0
 49122  1  0
 50123  1  1
 51124  1  0
 52125  1  0
 52126  1  0
M  END
>  <Binding energies>  (1) 
[-1.15]

>  <Ligand effiencies>  (1) 
[-0.018548387096774192]

>  <Interactions>  (1) 
["V-A:ASP:366:CA:3210, V-B:PRO:540:CA:9855, H-A:GLU:543:OE2:4910, V-B:GLU:543:CB:9878, V-B:ASP:366:CG:8184, V-B:ALA:541:CB:9864, H-A:TYR:531:OH:4795, V-B:TYR:539:CE2:9848, V-A:TYR:484:CE2:4346, V-B:GLU:543:CG:9879, V-B:TYR:539:C:9839, V-A:ASP:366:CG:3213, V-A:ASN:362:CB:3176, V-B:TYR:484:CE2:9317, V-B:TYR:539:CZ:9849, H-B:GLU:543:OE1:9881, H-B:TYR:539:OH:9850, V-A:ALA:541:CB:4892, V-A:GLU:543:CD:4908, V-B:PRO:540:CB:9857, V-A:TYR:484:CZ:4347, H-B:ASP:366:OD1:8185, V-B:GLU:543:CA:9876, V-B:HIS:456:CE1:9041, V-B:PRO:540:N:9856, V-A:HIS:456:CE1:4070, V-B:TYR:484:CZ:9318, V-A:ASP:366:C:3208, V-B:TYR:539:CD2:9846, V-A:TYR:531:CZ:4794, V-B:PRO:540:CD:9859, V-A:GLU:543:CG:4907, V-B:GLU:543:CD:9880, V-A:ASP:366:CB:3212, V-A:LEU:475:CD2:4259, H-A:ARG:545:NH2:4928, H-A:GLU:543:OE1:4909, H-B:ARG:545:NH2:9900, V-A:GLU:543:CB:4906, V-A:PRO:540:CB:4885, V-A:PRO:540:CA:4883, H-A:ARG:545:NE:4924, H-A:TYR:484:OH:4348"]

$$$$
ZINC2386363249
     RDKit          3D

 75 77  0  0  0  0  0  0  0  0999 V2000
  131.7690  129.3490   58.2610 C   0  0  0  0  0  0  0  0  0  0  0  0
  130.7490  129.3780   59.4180 C   0  0  0  0  0  0  0  0  0  0  0  0
  131.1170  130.3950   60.5170 C   0  0  0  0  0  0  0  0  0  0  0  0
  130.5730  128.0370   59.9910 N   0  0  0  0  0  0  0  0  0  0  0  0
  130.8090  127.7210   61.3090 C   0  0  0  0  0  0  0  0  0  0  0  0
  130.5750  126.3850   61.5670 C   0  0  0  0  0  0  0  0  0  0  0  0
  130.7810  125.7120   62.9770 B   0  0  0  0  0  0  0  0  0  0  0  0
  129.8610  124.9390   63.6330 O   0  0  0  0  0  0  0  0  0  0  0  0
  130.3280  124.7340   64.9560 C   0  0  0  0  0  0  0  0  0  0  0  0
  129.6630  125.8380   65.8200 C   0  0  0  0  0  0  0  0  0  0  0  0
  129.8410  123.3370   65.4020 C   0  0  0  0  0  0  0  0  0  0  0  0
  131.8770  124.8740   64.7590 C   0  0  0  0  0  0  0  0  0  0  0  0
  132.6380  125.4670   65.9680 C   0  0  0  0  0  0  0  0  0  0  0  0
  132.6000  123.6020   64.2380 C   0  0  0  0  0  0  0  0  0  0  0  0
  131.9430  125.8220   63.7040 O   0  0  0  0  0  0  0  0  0  0  0  0
  130.1400  125.8130   60.3130 C   0  0  0  0  0  0  0  0  0  0  0  0
  129.7200  124.5540   59.8070 C   0  0  0  0  0  0  0  0  0  0  0  0
  129.6070  123.3850   60.6150 N   0  0  0  0  0  0  0  0  0  0  0  0
  128.3550  123.0100   61.0790 C   0  0  0  0  0  0  0  0  0  0  0  0
  128.1330  122.4860   62.1770 O   0  0  0  0  0  0  0  0  0  0  0  0
  127.3610  123.2760   60.1100 O   0  0  0  0  0  0  0  0  0  0  0  0
  126.2240  124.1120   60.3950 C   0  0  0  0  0  0  0  0  0  0  0  0
  125.3610  123.5410   61.5490 C   0  0  0  0  0  0  0  0  0  0  0  0
  126.6350  125.5820   60.6560 C   0  0  0  0  0  0  0  0  0  0  0  0
  125.4040  124.0470   59.0890 C   0  0  0  0  0  0  0  0  0  0  0  0
  130.7570  122.6770   60.9370 C   0  0  0  0  0  0  0  0  0  0  0  0
  130.8640  121.4450   60.9010 O   0  0  0  0  0  0  0  0  0  0  0  0
  131.8050  123.5540   61.2990 O   0  0  0  0  0  0  0  0  0  0  0  0
  133.1450  123.3950   60.7940 C   0  0  0  0  0  0  0  0  0  0  0  0
  133.7660  122.0390   61.2150 C   0  0  0  0  0  0  0  0  0  0  0  0
  133.2180  123.6060   59.2620 C   0  0  0  0  0  0  0  0  0  0  0  0
  133.9200  124.5360   61.4870 C   0  0  0  0  0  0  0  0  0  0  0  0
  129.3870  124.4040   58.4930 N   0  0  0  0  0  0  0  0  0  0  0  0
  129.4630  125.4990   57.7020 C   0  0  0  0  0  0  0  0  0  0  0  0
  129.8330  126.7530   58.0570 N   0  0  0  0  0  0  0  0  0  0  0  0
  130.1610  126.8750   59.3510 C   0  0  0  0  0  0  0  0  0  0  0  0
  132.7889  129.3200   58.6720 H   0  0  0  0  0  0  0  0  0  0  0  0
  131.5972  128.4554   57.6430 H   0  0  0  0  0  0  0  0  0  0  0  0
  131.6482  130.2509   57.6430 H   0  0  0  0  0  0  0  0  0  0  0  0
  129.7939  129.7113   58.9859 H   0  0  0  0  0  0  0  0  0  0  0  0
  130.9530  129.9418   61.5058 H   0  0  0  0  0  0  0  0  0  0  0  0
  132.1748  130.6788   60.4146 H   0  0  0  0  0  0  0  0  0  0  0  0
  130.4857  131.2900   60.4146 H   0  0  0  0  0  0  0  0  0  0  0  0
  131.1438  128.4454   62.0660 H   0  0  0  0  0  0  0  0  0  0  0  0
  129.8038  125.6042   66.8856 H   0  0  0  0  0  0  0  0  0  0  0  0
  130.1262  126.8097   65.5935 H   0  0  0  0  0  0  0  0  0  0  0  0
  128.5875  125.8828   65.5935 H   0  0  0  0  0  0  0  0  0  0  0  0
  129.8240  123.2882   66.5008 H   0  0  0  0  0  0  0  0  0  0  0  0
  128.8281  123.1598   65.0114 H   0  0  0  0  0  0  0  0  0  0  0  0
  130.5243  122.5685   65.0114 H   0  0  0  0  0  0  0  0  0  0  0  0
  132.1790  125.1093   66.9015 H   0  0  0  0  0  0  0  0  0  0  0  0
  133.6902  125.1483   65.9312 H   0  0  0  0  0  0  0  0  0  0  0  0
  132.5861  126.5652   65.9312 H   0  0  0  0  0  0  0  0  0  0  0  0
  132.9426  122.9992   65.0920 H   0  0  0  0  0  0  0  0  0  0  0  0
  131.9039  123.0091   63.6265 H   0  0  0  0  0  0  0  0  0  0  0  0
  133.4656  123.8967   63.6265 H   0  0  0  0  0  0  0  0  0  0  0  0
  125.8008  123.8320   62.5144 H   0  0  0  0  0  0  0  0  0  0  0  0
  124.3393  123.9419   61.4758 H   0  0  0  0  0  0  0  0  0  0  0  0
  125.3305  122.4439   61.4758 H   0  0  0  0  0  0  0  0  0  0  0  0
  126.6852  125.7617   61.7401 H   0  0  0  0  0  0  0  0  0  0  0  0
  127.6208  125.7724   60.2067 H   0  0  0  0  0  0  0  0  0  0  0  0
  125.8909  126.2561   60.2067 H   0  0  0  0  0  0  0  0  0  0  0  0
  124.3344  123.9622   59.3315 H   0  0  0  0  0  0  0  0  0  0  0  0
  125.5756  124.9616   58.5024 H   0  0  0  0  0  0  0  0  0  0  0  0
  125.7176  123.1709   58.5024 H   0  0  0  0  0  0  0  0  0  0  0  0
  133.7956  121.9743   62.3127 H   0  0  0  0  0  0  0  0  0  0  0  0
  133.1550  121.2161   60.8156 H   0  0  0  0  0  0  0  0  0  0  0  0
  134.7882  121.9641   60.8156 H   0  0  0  0  0  0  0  0  0  0  0  0
  133.5708  124.6258   59.0487 H   0  0  0  0  0  0  0  0  0  0  0  0
  133.9163  122.8774   58.8244 H   0  0  0  0  0  0  0  0  0  0  0  0
  132.2187  123.4647   58.8244 H   0  0  0  0  0  0  0  0  0  0  0  0
  133.8425  124.4219   62.5783 H   0  0  0  0  0  0  0  0  0  0  0  0
  134.9779  124.4950   61.1883 H   0  0  0  0  0  0  0  0  0  0  0  0
  133.4919  125.5043   61.1883 H   0  0  0  0  0  0  0  0  0  0  0  0
  129.1924  125.3540   56.6457 H   0  0  0  0  0  0  0  0  0  0  0  0
  1  2  1  0
  2  3  1  0
  2  4  1  0
  4  5  1  0
  5  6  2  0
  6  7  1  0
  7  8  1  0
  8  9  1  0
  9 10  1  0
  9 11  1  0
  9 12  1  0
 12 13  1  0
 12 14  1  0
 12 15  1  0
  6 16  1  0
 16 17  2  0
 17 18  1  0
 18 19  1  0
 19 20  2  0
 19 21  1  0
 21 22  1  0
 22 23  1  0
 22 24  1  0
 22 25  1  0
 18 26  1  0
 26 27  2  0
 26 28  1  0
 28 29  1  0
 29 30  1  0
 29 31  1  0
 29 32  1  0
 17 33  1  0
 33 34  2  0
 34 35  1  0
 35 36  2  0
 36  4  1  0
 15  7  1  0
 36 16  1  0
  1 37  1  0
  1 38  1  0
  1 39  1  0
  2 40  1  0
  3 41  1  0
  3 42  1  0
  3 43  1  0
  5 44  1  0
 10 45  1  0
 10 46  1  0
 10 47  1  0
 11 48  1  0
 11 49  1  0
 11 50  1  0
 13 51  1  0
 13 52  1  0
 13 53  1  0
 14 54  1  0
 14 55  1  0
 14 56  1  0
 23 57  1  0
 23 58  1  0
 23 59  1  0
 24 60  1  0
 24 61  1  0
 24 62  1  0
 25 63  1  0
 25 64  1  0
 25 65  1  0
 30 66  1  0
 30 67  1  0
 30 68  1  0
 31 69  1  0
 31 70  1  0
 31 71  1  0
 32 72  1  0
 32 73  1  0
 32 74  1  0
 34 75  1  0
M  END
>  <Binding energies>  (1) 
[-6.1]

>  <Ligand effiencies>  (1) 
[-0.16944444444444443]

>  <Interactions>  (1) 
["V-A:ILE:369:CG2:3237, V-B:PRO:540:CA:9855, V-A:GLY:454:CA:4049, V-A:ILE:369:CB:3236, V-B:GLU:543:CB:9878, H-A:TYR:531:OH:4795, V-B:TYR:539:CE2:9848, V-A:TYR:484:CE2:4346, V-B:GLU:543:CG:9879, V-A:ASP:366:CG:3213, V-B:TYR:539:CZ:9849, H-B:TYR:539:OH:9850, H-B:ALA:541:N:9863, V-A:GLU:543:CD:4908, V-A:TYR:484:CZ:4347, V-B:PRO:540:CB:9857, V-A:ARG:545:CG:4922, V-A:ILE:369:CD1:3239, V-B:TYR:539:CD2:9846, V-B:GLU:543:CD:9880, V-A:ASP:366:CB:3212, V-A:ARG:545:CD:4923, H-A:ARG:545:NH2:4928, V-A:ARG:545:CZ:4926"]

$$$$
ZINC2386387846
     RDKit          3D

 61 67  0  0  0  0  0  0  0  0999 V2000
  125.9710  130.7810   63.5400 C   0  0  0  0  0  0  0  0  0  0  0  0
  127.3410  130.6670   63.3090 C   0  0  0  0  0  0  0  0  0  0  0  0
  128.1060  129.8200   64.1130 C   0  0  0  0  0  0  0  0  0  0  0  0
  127.4850  129.0940   65.1450 C   0  0  0  0  0  0  0  0  0  0  0  0
  128.2360  128.1620   66.0560 C   0  0  0  0  0  0  0  0  0  0  0  0
  128.0590  128.1450   67.4480 C   0  0  0  0  0  0  0  0  0  0  0  0
  128.7900  127.2510   68.2430 C   0  0  0  0  0  0  0  0  0  0  0  0
  128.6150  127.2170   69.7380 C   0  0  0  0  0  0  0  0  0  0  0  0
  127.3990  126.9780   70.4130 C   0  0  0  0  0  0  0  0  0  0  0  0
  127.5040  126.9990   71.7970 C   0  0  0  0  0  0  0  0  0  0  0  0
  129.1180  127.3180   72.3210 S   0  0  0  0  0  0  0  0  0  0  0  0
  129.6380  127.4200   70.6720 C   0  0  0  0  0  0  0  0  0  0  0  0
  129.6890  126.3900   67.6000 C   0  0  0  0  0  0  0  0  0  0  0  0
  129.8390  126.4350   66.2050 C   0  0  0  0  0  0  0  0  0  0  0  0
  130.7870  125.5390   65.4560 C   0  0  0  0  0  0  0  0  0  0  0  0
  132.1640  125.4830   65.7230 C   0  0  0  0  0  0  0  0  0  0  0  0
  132.9700  124.6230   64.9800 C   0  0  0  0  0  0  0  0  0  0  0  0
  132.3980  123.8320   63.9840 C   0  0  0  0  0  0  0  0  0  0  0  0
  131.0170  123.9160   63.7470 C   0  0  0  0  0  0  0  0  0  0  0  0
  130.3130  123.1020   62.6960 C   0  0  0  0  0  0  0  0  0  0  0  0
  130.5670  121.7370   62.4910 C   0  0  0  0  0  0  0  0  0  0  0  0
  129.8790  121.0310   61.4950 C   0  0  0  0  0  0  0  0  0  0  0  0
  130.1410  119.5670   61.2650 C   0  0  0  0  0  0  0  0  0  0  0  0
  130.9730  119.0350   60.2560 C   0  0  0  0  0  0  0  0  0  0  0  0
  131.0480  117.6490   60.2540 C   0  0  0  0  0  0  0  0  0  0  0  0
  130.0880  116.9450   61.5060 S   0  0  0  0  0  0  0  0  0  0  0  0
  129.5940  118.5240   62.0200 C   0  0  0  0  0  0  0  0  0  0  0  0
  128.9430  121.7330   60.7240 C   0  0  0  0  0  0  0  0  0  0  0  0
  128.7150  123.0990   60.9570 C   0  0  0  0  0  0  0  0  0  0  0  0
  127.7260  123.9100   60.1670 C   0  0  0  0  0  0  0  0  0  0  0  0
  127.4230  125.2500   60.4690 C   0  0  0  0  0  0  0  0  0  0  0  0
  126.4920  125.9390   59.6880 C   0  0  0  0  0  0  0  0  0  0  0  0
  125.8760  125.2880   58.6200 C   0  0  0  0  0  0  0  0  0  0  0  0
  126.2170  123.9600   58.3690 C   0  0  0  0  0  0  0  0  0  0  0  0
  127.1190  123.2790   59.1190 N   0  0  0  0  0  0  0  0  0  0  0  0
  129.3980  123.7590   61.9320 N   0  0  0  0  0  0  0  0  0  0  0  0
  130.2390  124.7610   64.4810 N   0  0  0  0  0  0  0  0  0  0  0  0
  129.1170  127.3130   65.4580 N   0  0  0  0  0  0  0  0  0  0  0  0
  126.1420  129.2110   65.3670 N   0  0  0  0  0  0  0  0  0  0  0  0
  125.4110  130.0370   64.5770 C   0  0  0  0  0  0  0  0  0  0  0  0
  125.3476  131.4415   62.9195 H   0  0  0  0  0  0  0  0  0  0  0  0
  127.8158  131.2402   62.4991 H   0  0  0  0  0  0  0  0  0  0  0  0
  129.1879  129.7211   63.9403 H   0  0  0  0  0  0  0  0  0  0  0  0
  127.3435  128.8362   67.9175 H   0  0  0  0  0  0  0  0  0  0  0  0
  126.4505  126.7913   69.8881 H   0  0  0  0  0  0  0  0  0  0  0  0
  126.6580  126.8320   72.4799 H   0  0  0  0  0  0  0  0  0  0  0  0
  130.6795  127.6260   70.3842 H   0  0  0  0  0  0  0  0  0  0  0  0
  130.2802  125.6752   68.1912 H   0  0  0  0  0  0  0  0  0  0  0  0
  132.6026  126.1122   66.5115 H   0  0  0  0  0  0  0  0  0  0  0  0
  134.0507  124.5683   65.1778 H   0  0  0  0  0  0  0  0  0  0  0  0
  133.0229  123.1489   63.3899 H   0  0  0  0  0  0  0  0  0  0  0  0
  131.3098  121.2188   63.1152 H   0  0  0  0  0  0  0  0  0  0  0  0
  131.5146  119.6641   59.5343 H   0  0  0  0  0  0  0  0  0  0  0  0
  131.6483  117.0671   59.5391 H   0  0  0  0  0  0  0  0  0  0  0  0
  128.9105  118.6917   62.8654 H   0  0  0  0  0  0  0  0  0  0  0  0
  128.3843  121.2118   59.9327 H   0  0  0  0  0  0  0  0  0  0  0  0
  127.9159  125.7520   61.3146 H   0  0  0  0  0  0  0  0  0  0  0  0
  126.2468  126.9872   59.9139 H   0  0  0  0  0  0  0  0  0  0  0  0
  125.1393  125.8094   57.9912 H   0  0  0  0  0  0  0  0  0  0  0  0
  125.7342  123.4423   57.5270 H   0  0  0  0  0  0  0  0  0  0  0  0
  124.3302  130.1232   64.7629 H   0  0  0  0  0  0  0  0  0  0  0  0
  1  2  2  0
  2  3  1  0
  3  4  2  0
  4  5  1  0
  5  6  2  0
  6  7  1  0
  7  8  1  0
  8  9  1  0
  9 10  2  0
 10 11  1  0
 11 12  1  0
  7 13  2  0
 13 14  1  0
 14 15  1  0
 15 16  2  0
 16 17  1  0
 17 18  2  0
 18 19  1  0
 19 20  1  0
 20 21  2  0
 21 22  1  0
 22 23  1  0
 23 24  1  0
 24 25  2  0
 25 26  1  0
 26 27  1  0
 22 28  2  0
 28 29  1  0
 29 30  1  0
 30 31  2  0
 31 32  1  0
 32 33  2  0
 33 34  1  0
 34 35  2  0
 29 36  2  0
 19 37  2  0
 14 38  2  0
  4 39  1  0
 39 40  2  0
 40  1  1  0
 38  5  1  0
 12  8  2  0
 37 15  1  0
 36 20  1  0
 27 23  2  0
 35 30  1  0
  1 41  1  0
  2 42  1  0
  3 43  1  0
  6 44  1  0
  9 45  1  0
 10 46  1  0
 12 47  1  0
 13 48  1  0
 16 49  1  0
 17 50  1  0
 18 51  1  0
 21 52  1  0
 24 53  1  0
 25 54  1  0
 27 55  1  0
 28 56  1  0
 31 57  1  0
 32 58  1  0
 33 59  1  0
 34 60  1  0
 40 61  1  0
M  END
>  <Binding energies>  (1) 
[-9.53]

>  <Ligand effiencies>  (1) 
[-0.23825]

>  <Interactions>  (1) 
["V-B:PRO:540:CA:9855, V-B:GLU:543:C:9874, V-B:HIS:456:CD2:9039, V-B:GLU:543:CB:9878, V-B:ALA:541:CB:9864, V-B:TYR:539:CE2:9848, V-A:LEU:475:CG:4257, V-B:GLU:543:CG:9879, V-B:TYR:539:C:9839, V-A:LEU:475:CD1:4258, V-B:TYR:539:CB:9843, V-A:HIS:383:CE1:3393, V-A:GLU:543:CD:4908, V-B:PRO:540:CB:9857, H-B:TYR:484:OH:9319, V-B:HIS:456:CE1:9041, V-A:HIS:456:CE1:4070, V-B:GLY:544:C:9884, V-A:PRO:482:CB:4326, V-B:GLY:544:CA:9886, V-A:GLU:543:CG:4907, V-B:TYR:539:CD2:9846, V-B:GLU:543:CD:9880, V-A:LEU:475:CD2:4259, V-A:ARG:545:CZ:4926, V-B:TYR:539:CG:9844, V-A:HIS:383:CD2:3392, V-A:PRO:482:CG:4327, V-B:PRO:540:C:9853, V-B:ALA:541:CA:9862, V-A:HIS:383:NE2:3394"]

$$$$
ZINC2386390419
     RDKit          3D

 78 80  0  0  0  0  0  0  0  0999 V2000
  128.8340  132.4560   63.5890 C   0  0  0  0  0  0  0  0  0  0  0  0
  127.6060  132.5210   64.3000 O   0  0  0  0  0  0  0  0  0  0  0  0
  126.4840  132.3180   63.5040 C   0  0  0  0  0  0  0  0  0  0  0  0
  125.9460  131.0550   63.7500 O   0  0  0  0  0  0  0  0  0  0  0  0
  126.7870  129.9910   64.0200 C   0  0  0  0  0  0  0  0  0  0  0  0
  127.3220  129.3250   62.9300 C   0  0  0  0  0  0  0  0  0  0  0  0
  128.2000  128.2450   63.0460 C   0  0  0  0  0  0  0  0  0  0  0  0
  128.7930  127.7730   61.6460 B   0  0  0  0  0  0  0  0  0  0  0  0
  128.0330  127.1390   60.6850 O   0  0  0  0  0  0  0  0  0  0  0  0
  128.8490  126.9260   59.5450 C   0  0  0  0  0  0  0  0  0  0  0  0
  129.3140  125.4530   59.6430 C   0  0  0  0  0  0  0  0  0  0  0  0
  127.9640  127.1300   58.2930 C   0  0  0  0  0  0  0  0  0  0  0  0
  129.9730  128.0020   59.7460 C   0  0  0  0  0  0  0  0  0  0  0  0
  131.3600  127.5970   59.2020 C   0  0  0  0  0  0  0  0  0  0  0  0
  129.6170  129.4380   59.2750 C   0  0  0  0  0  0  0  0  0  0  0  0
  130.0500  128.0610   61.1650 O   0  0  0  0  0  0  0  0  0  0  0  0
  128.5290  127.7310   64.3650 C   0  0  0  0  0  0  0  0  0  0  0  0
  129.3160  126.5490   64.6700 C   0  0  0  0  0  0  0  0  0  0  0  0
  129.7950  125.5870   63.6770 C   0  0  0  0  0  0  0  0  0  0  0  0
  130.2740  124.6700   63.0280 C   0  0  0  0  0  0  0  0  0  0  0  0
  131.2210  123.3440   62.1820 Si  0  0  0  0  0  4  0  0  0  0  0  0
  130.0280  121.9220   61.7150 C   0  0  0  0  0  0  0  0  0  0  0  0
  130.7070  120.7770   60.9360 C   0  0  0  0  0  0  0  0  0  0  0  0
  128.7680  122.3800   60.9590 C   0  0  0  0  0  0  0  0  0  0  0  0
  131.9810  124.1790   60.6420 C   0  0  0  0  0  0  0  0  0  0  0  0
  132.8150  123.2410   59.7560 C   0  0  0  0  0  0  0  0  0  0  0  0
  132.7490  125.4680   60.9830 C   0  0  0  0  0  0  0  0  0  0  0  0
  132.5900  122.7870   63.3970 C   0  0  0  0  0  0  0  0  0  0  0  0
  133.1470  123.9080   64.2920 C   0  0  0  0  0  0  0  0  0  0  0  0
  133.7330  122.0230   62.7060 C   0  0  0  0  0  0  0  0  0  0  0  0
  129.6140  126.2250   66.0070 C   0  0  0  0  0  0  0  0  0  0  0  0
  130.3730  125.1380   66.3080 F   0  0  0  0  0  0  0  0  0  0  0  0
  129.1310  126.9890   67.0580 C   0  0  0  0  0  0  0  0  0  0  0  0
  129.5040  126.5720   68.6930 Cl  0  0  0  0  0  0  0  0  0  0  0  0
  128.3220  128.0820   66.8090 C   0  0  0  0  0  0  0  0  0  0  0  0
  128.0010  128.4610   65.4880 C   0  0  0  0  0  0  0  0  0  0  0  0
  127.1450  129.5680   65.2970 C   0  0  0  0  0  0  0  0  0  0  0  0
  129.6694  132.4118   64.3033 H   0  0  0  0  0  0  0  0  0  0  0  0
  128.8443  131.5561   62.9566 H   0  0  0  0  0  0  0  0  0  0  0  0
  128.9393  133.3498   62.9566 H   0  0  0  0  0  0  0  0  0  0  0  0
  125.7306  133.0858   63.7340 H   0  0  0  0  0  0  0  0  0  0  0  0
  126.7755  132.3861   62.4455 H   0  0  0  0  0  0  0  0  0  0  0  0
  127.0412  129.6637   61.9218 H   0  0  0  0  0  0  0  0  0  0  0  0
  129.4044  125.1667   60.7012 H   0  0  0  0  0  0  0  0  0  0  0  0
  128.5776  124.8024   59.1487 H   0  0  0  0  0  0  0  0  0  0  0  0
  130.2905  125.3431   59.1487 H   0  0  0  0  0  0  0  0  0  0  0  0
  126.9362  127.3669   58.6052 H   0  0  0  0  0  0  0  0  0  0  0  0
  128.3650  127.9593   57.6917 H   0  0  0  0  0  0  0  0  0  0  0  0
  127.9615  126.2089   57.6917 H   0  0  0  0  0  0  0  0  0  0  0  0
  132.0402  127.3984   60.0434 H   0  0  0  0  0  0  0  0  0  0  0  0
  131.2623  126.6899   58.5875 H   0  0  0  0  0  0  0  0  0  0  0  0
  131.7658  128.4142   58.5875 H   0  0  0  0  0  0  0  0  0  0  0  0
  129.4572  130.0825   60.1520 H   0  0  0  0  0  0  0  0  0  0  0  0
  130.4425  129.8406   58.6697 H   0  0  0  0  0  0  0  0  0  0  0  0
  128.6990  129.4083   58.6697 H   0  0  0  0  0  0  0  0  0  0  0  0
  129.7094  121.5341   62.6938 H   0  0  0  0  0  0  0  0  0  0  0  0
  131.1356  120.0543   61.6459 H   0  0  0  0  0  0  0  0  0  0  0  0
  129.9623  120.2720   60.3033 H   0  0  0  0  0  0  0  0  0  0  0  0
  131.5074  121.1882   60.3033 H   0  0  0  0  0  0  0  0  0  0  0  0
  127.9891  122.6631   61.6823 H   0  0  0  0  0  0  0  0  0  0  0  0
  129.0140  123.2462   60.3272 H   0  0  0  0  0  0  0  0  0  0  0  0
  128.4004  121.5580   60.3272 H   0  0  0  0  0  0  0  0  0  0  0  0
  131.1108  124.4629   60.0320 H   0  0  0  0  0  0  0  0  0  0  0  0
  133.4114  122.5702   60.3918 H   0  0  0  0  0  0  0  0  0  0  0  0
  132.1441  122.6438   59.1209 H   0  0  0  0  0  0  0  0  0  0  0  0
  133.4865  123.8374   59.1209 H   0  0  0  0  0  0  0  0  0  0  0  0
  132.8144  125.5777   62.0756 H   0  0  0  0  0  0  0  0  0  0  0  0
  133.7624  125.4142   60.5586 H   0  0  0  0  0  0  0  0  0  0  0  0
  132.2193  126.3336   60.5586 H   0  0  0  0  0  0  0  0  0  0  0  0
  132.0698  122.0880   64.0685 H   0  0  0  0  0  0  0  0  0  0  0  0
  133.0113  123.6349   65.3489 H   0  0  0  0  0  0  0  0  0  0  0  0
  134.2183  124.0456   64.0834 H   0  0  0  0  0  0  0  0  0  0  0  0
  132.6096  124.8449   64.0834 H   0  0  0  0  0  0  0  0  0  0  0  0
  134.3926  121.5821   63.4680 H   0  0  0  0  0  0  0  0  0  0  0  0
  133.3127  121.2236   62.0780 H   0  0  0  0  0  0  0  0  0  0  0  0
  134.3109  122.7170   62.0780 H   0  0  0  0  0  0  0  0  0  0  0  0
  127.9228  128.6645   67.6524 H   0  0  0  0  0  0  0  0  0  0  0  0
  126.7540  130.1058   66.1733 H   0  0  0  0  0  0  0  0  0  0  0  0
  1  2  1  0
  2  3  1  0
  3  4  1  0
  4  5  1  0
  5  6  2  0
  6  7  1  0
  7  8  1  0
  8  9  1  0
  9 10  1  0
 10 11  1  0
 10 12  1  0
 10 13  1  0
 13 14  1  0
 13 15  1  0
 13 16  1  0
  7 17  2  0
 17 18  1  0
 18 19  1  0
 19 20  3  0
 20 21  1  0
 21 22  1  0
 22 23  1  0
 22 24  1  0
 21 25  1  0
 25 26  1  0
 25 27  1  0
 21 28  1  0
 28 29  1  0
 28 30  1  0
 18 31  2  0
 31 32  1  0
 31 33  1  0
 33 34  1  0
 33 35  2  0
 35 36  1  0
 36 37  2  0
 37  5  1  0
 16  8  1  0
 36 17  1  0
  1 38  1  0
  1 39  1  0
  1 40  1  0
  3 41  1  0
  3 42  1  0
  6 43  1  0
 11 44  1  0
 11 45  1  0
 11 46  1  0
 12 47  1  0
 12 48  1  0
 12 49  1  0
 14 50  1  0
 14 51  1  0
 14 52  1  0
 15 53  1  0
 15 54  1  0
 15 55  1  0
 22 56  1  0
 23 57  1  0
 23 58  1  0
 23 59  1  0
 24 60  1  0
 24 61  1  0
 24 62  1  0
 25 63  1  0
 26 64  1  0
 26 65  1  0
 26 66  1  0
 27 67  1  0
 27 68  1  0
 27 69  1  0
 28 70  1  0
 29 71  1  0
 29 72  1  0
 29 73  1  0
 30 74  1  0
 30 75  1  0
 30 76  1  0
 35 77  1  0
 37 78  1  0
M  END
>  <Binding energies>  (1) 
[-6.75]

>  <Ligand effiencies>  (1) 
[-0.18243243243243243]

>  <Interactions>  (1) 
["V-A:ILE:369:CG2:3237, V-B:PRO:540:CA:9855, V-A:GLY:454:CA:4049, V-B:GLU:543:CB:9878, V-B:TYR:539:CE2:9848, V-A:TYR:484:CE2:4346, V-B:LEU:475:CD2:9230, V-B:GLU:543:CG:9879, V-A:ASP:366:CG:3213, V-A:ALA:541:CB:4892, V-A:GLU:543:CD:4908, H-B:TYR:484:OH:9319, V-A:HIS:456:CE1:4070, V-B:TYR:539:CD2:9846, V-A:GLU:543:CG:4907, V-B:GLU:543:CD:9880, V-A:ASP:366:CB:3212, V-A:LEU:475:CD2:4259, V-A:GLU:543:CB:4906"]

$$$$
ZINC238731745
     RDKit          3D

 73 72  0  0  0  0  0  0  0  0999 V2000
  129.8710  122.4640   63.9640 C   0  0  0  0  0  0  0  0  0  0  0  0
  129.6520  122.7000   62.4760 C   0  0  0  0  0  0  0  0  0  0  0  0
  129.3440  124.1470   62.1270 C   0  0  0  0  0  0  0  0  0  0  0  0
  129.7170  121.7500   61.5170 C   0  0  0  0  0  0  0  0  0  0  0  0
  130.0010  120.2610   61.6760 C   0  0  0  0  0  0  0  0  0  0  0  0
  131.1230  119.7270   60.7560 C   0  0  0  0  0  0  0  0  0  0  0  0
  132.4490  120.4940   60.6810 C   0  0  0  0  0  0  0  0  0  0  0  0
  133.2230  120.1920   59.4010 C   0  0  0  0  0  0  0  0  0  0  0  0
  132.8700  121.3490   61.6440 C   0  0  0  0  0  0  0  0  0  0  0  0
  134.1050  122.1270   61.6440 C   0  0  0  0  0  0  0  0  0  0  0  0
  134.2470  123.3730   61.1420 C   0  0  0  0  0  0  0  0  0  0  0  0
  133.2250  124.1870   60.4870 C   0  0  0  0  0  0  0  0  0  0  0  0
  132.9450  123.9130   59.0200 C   0  0  0  0  0  0  0  0  0  0  0  0
  132.5370  125.1670   61.1210 C   0  0  0  0  0  0  0  0  0  0  0  0
  132.6620  125.5430   62.5210 C   0  0  0  0  0  0  0  0  0  0  0  0
  133.1200  124.7030   63.4660 C   0  0  0  0  0  0  0  0  0  0  0  0
  133.2260  125.0790   64.8680 C   0  0  0  0  0  0  0  0  0  0  0  0
  132.2160  125.4380   65.6940 C   0  0  0  0  0  0  0  0  0  0  0  0
  132.5660  125.7750   67.1400 C   0  0  0  0  0  0  0  0  0  0  0  0
  130.8210  125.4210   65.2360 C   0  0  0  0  0  0  0  0  0  0  0  0
  129.6970  125.7310   65.9190 C   0  0  0  0  0  0  0  0  0  0  0  0
  129.6110  126.2540   67.2770 C   0  0  0  0  0  0  0  0  0  0  0  0
  129.0510  127.4310   67.6510 C   0  0  0  0  0  0  0  0  0  0  0  0
  128.3540  128.3630   66.6680 C   0  0  0  0  0  0  0  0  0  0  0  0
  129.0470  127.8180   69.0570 C   0  0  0  0  0  0  0  0  0  0  0  0
  130.1030  127.7290   69.8910 C   0  0  0  0  0  0  0  0  0  0  0  0
  130.0400  128.1360   71.2860 C   0  0  0  0  0  0  0  0  0  0  0  0
  129.1530  127.7050   72.2130 C   0  0  0  0  0  0  0  0  0  0  0  0
  129.2160  128.2270   73.6430 C   0  0  0  0  0  0  0  0  0  0  0  0
  128.0320  126.6990   71.9460 C   0  0  0  0  0  0  0  0  0  0  0  0
  128.3650  125.4530   72.5240 O   0  0  0  0  0  0  0  0  0  0  0  0
  129.2343  123.1502   64.5417 H   0  0  0  0  0  0  0  0  0  0  0  0
  129.6101  121.4247   64.2127 H   0  0  0  0  0  0  0  0  0  0  0  0
  130.9268  122.6466   64.2127 H   0  0  0  0  0  0  0  0  0  0  0  0
  129.2201  124.7289   63.0522 H   0  0  0  0  0  0  0  0  0  0  0  0
  130.1730  124.5666   61.5381 H   0  0  0  0  0  0  0  0  0  0  0  0
  128.4160  124.1926   61.5381 H   0  0  0  0  0  0  0  0  0  0  0  0
  129.5422  122.0965   60.4877 H   0  0  0  0  0  0  0  0  0  0  0  0
  130.2936  120.0754   62.7200 H   0  0  0  0  0  0  0  0  0  0  0  0
  129.0800  119.7317   61.3904 H   0  0  0  0  0  0  0  0  0  0  0  0
  131.3589  118.7070   61.0935 H   0  0  0  0  0  0  0  0  0  0  0  0
  130.7037  119.8241   59.7437 H   0  0  0  0  0  0  0  0  0  0  0  0
  134.2194  119.8032   59.6581 H   0  0  0  0  0  0  0  0  0  0  0  0
  132.6773  119.4408   58.8111 H   0  0  0  0  0  0  0  0  0  0  0  0
  133.3302  121.1142   58.8111 H   0  0  0  0  0  0  0  0  0  0  0  0
  132.2122  121.4695   62.5174 H   0  0  0  0  0  0  0  0  0  0  0  0
  134.9950  121.6593   62.0903 H   0  0  0  0  0  0  0  0  0  0  0  0
  135.2447  123.8263   61.2369 H   0  0  0  0  0  0  0  0  0  0  0  0
  132.1612  123.1460   58.9333 H   0  0  0  0  0  0  0  0  0  0  0  0
  132.6073  124.8392   58.5320 H   0  0  0  0  0  0  0  0  0  0  0  0
  133.8636  123.5553   58.5320 H   0  0  0  0  0  0  0  0  0  0  0  0
  131.8127  125.7342   60.5180 H   0  0  0  0  0  0  0  0  0  0  0  0
  132.3687  126.5602   62.8199 H   0  0  0  0  0  0  0  0  0  0  0  0
  133.4272  123.6900   63.1670 H   0  0  0  0  0  0  0  0  0  0  0  0
  134.2362  125.0704   65.3032 H   0  0  0  0  0  0  0  0  0  0  0  0
  131.9420  125.1741   67.8179 H   0  0  0  0  0  0  0  0  0  0  0  0
  133.6272  125.5500   67.3224 H   0  0  0  0  0  0  0  0  0  0  0  0
  132.3813  126.8439   67.3224 H   0  0  0  0  0  0  0  0  0  0  0  0
  130.6698  125.1129   64.1909 H   0  0  0  0  0  0  0  0  0  0  0  0
  128.7439  125.5715   65.3935 H   0  0  0  0  0  0  0  0  0  0  0  0
  130.0424  125.6334   68.0762 H   0  0  0  0  0  0  0  0  0  0  0  0
  127.7855  129.1232   67.2237 H   0  0  0  0  0  0  0  0  0  0  0  0
  129.1059  128.8573   66.0353 H   0  0  0  0  0  0  0  0  0  0  0  0
  127.6674  127.7815   66.0353 H   0  0  0  0  0  0  0  0  0  0  0  0
  128.1077  128.2141   69.4702 H   0  0  0  0  0  0  0  0  0  0  0  0
  131.0515  127.3321   69.5000 H   0  0  0  0  0  0  0  0  0  0  0  0
  130.7891  128.8683   71.6216 H   0  0  0  0  0  0  0  0  0  0  0  0
  129.1145  127.3863   74.3450 H   0  0  0  0  0  0  0  0  0  0  0  0
  130.1812  128.7282   73.8082 H   0  0  0  0  0  0  0  0  0  0  0  0
  128.3978  128.9434   73.8082 H   0  0  0  0  0  0  0  0  0  0  0  0
  127.0952  127.0690   72.3883 H   0  0  0  0  0  0  0  0  0  0  0  0
  127.9033  126.5753   70.8606 H   0  0  0  0  0  0  0  0  0  0  0  0
  128.3190  124.7780   71.8420 H   0  0  0  0  0  0  0  0  0  0  0  0
  1  2  1  0
  2  3  1  0
  2  4  2  3
  4  5  1  0
  5  6  1  0
  6  7  1  0
  7  8  1  0
  7  9  2  0
  9 10  1  0
 10 11  2  0
 11 12  1  0
 12 13  1  0
 12 14  2  0
 14 15  1  0
 15 16  2  0
 16 17  1  0
 17 18  2  0
 18 19  1  0
 18 20  1  0
 20 21  2  0
 21 22  1  0
 22 23  2  0
 23 24  1  0
 23 25  1  0
 25 26  2  0
 26 27  1  0
 27 28  2  0
 28 29  1  0
 28 30  1  0
 30 31  1  0
  1 32  1  0
  1 33  1  0
  1 34  1  0
  3 35  1  0
  3 36  1  0
  3 37  1  0
  4 38  1  0
  5 39  1  0
  5 40  1  0
  6 41  1  0
  6 42  1  0
  8 43  1  0
  8 44  1  0
  8 45  1  0
  9 46  1  0
 10 47  1  0
 11 48  1  0
 13 49  1  0
 13 50  1  0
 13 51  1  0
 14 52  1  0
 15 53  1  0
 16 54  1  0
 17 55  1  0
 19 56  1  0
 19 57  1  0
 19 58  1  0
 20 59  1  0
 21 60  1  0
 22 61  1  0
 24 62  1  0
 24 63  1  0
 24 64  1  0
 25 65  1  0
 26 66  1  0
 27 67  1  0
 29 68  1  0
 29 69  1  0
 29 70  1  0
 30 71  1  0
 30 72  1  0
 31 73  1  0
M  END
>  <Binding energies>  (1) 
[-9.54]

>  <Ligand effiencies>  (1) 
[-0.298125]

>  <Interactions>  (1) 
["V-A:ILE:369:CG2:3237, H-B:GLU:543:O:9875, V-A:GLU:543:C:4902, V-B:GLU:543:CB:9878, H-B:LYS:547:NZ:9923, V-B:ALA:541:CB:9864, V-B:TYR:539:CE2:9848, V-B:GLU:543:CG:9879, V-A:ASP:366:CG:3213, V-B:TYR:539:CZ:9849, V-A:GLU:543:CD:4908, V-A:TYR:484:CZ:4347, V-A:ARG:545:CG:4922, V-B:HIS:456:CE1:9041, V-A:ILE:369:CD1:3239, V-A:HIS:456:CE1:4070, V-B:GLY:544:C:9884, V-B:TYR:539:CD2:9846, V-A:GLU:543:CG:4907, V-A:SER:385:CB:3409, V-B:GLU:543:CD:9880, V-A:ARG:545:CD:4923, V-A:LEU:475:CD2:4259, V-A:ARG:545:CZ:4926, V-A:GLU:543:CB:4906, V-A:SER:385:CA:3407, H-A:HIS:456:NE2:4071"]

$$$$
ZINC238736426
     RDKit          3D

 61 61  0  0  0  0  0  0  0  0999 V2000
  129.5580  122.3140   60.4820 C   0  0  0  0  0  0  0  0  0  0  0  0
  128.5660  123.2240   60.5490 C   0  0  0  0  0  0  0  0  0  0  0  0
  127.9150  123.7650   59.2760 C   0  0  0  0  0  0  0  0  0  0  0  0
  128.9150  124.0800   58.1420 C   0  0  0  0  0  0  0  0  0  0  0  0
  129.8070  125.3480   58.3270 C   0  0  1  0  0  0  0  0  0  0  0  0
  129.2050  126.4300   59.2820 C   0  0  0  0  0  0  0  0  0  0  0  0
  129.4690  126.1200   60.7730 C   0  0  0  0  0  0  0  0  0  0  0  0
  127.6890  126.6540   59.0760 C   0  0  0  0  0  0  0  0  0  0  0  0
  131.2890  125.0540   58.5790 C   0  0  0  0  0  0  0  0  0  0  0  0
  131.9370  125.0670   59.7590 C   0  0  0  0  0  0  0  0  0  0  0  0
  133.3800  124.6270   59.9650 C   0  0  0  0  0  0  0  0  0  0  0  0
  133.6380  124.0060   61.3650 C   0  0  1  0  0  0  0  0  0  0  0  0
  134.1670  122.5530   61.2180 C   0  0  0  0  0  0  0  0  0  0  0  0
  134.6910  124.7270   61.9770 O   0  0  0  0  0  0  0  0  0  0  0  0
  132.3790  124.1910   62.2740 C   0  0  0  0  0  0  0  0  0  0  0  0
  132.6210  124.2750   63.7850 C   0  0  0  0  0  0  0  0  0  0  0  0
  133.7530  124.2900   64.2640 O   0  0  0  0  0  0  0  0  0  0  0  0
  131.3590  124.3120   64.6620 C   0  0  0  0  0  0  0  0  0  0  0  0
  130.4440  125.5660   64.5150 C   0  0  1  0  0  0  0  0  0  0  0  0
  130.1130  126.2050   65.8830 C   0  0  0  0  0  0  0  0  0  0  0  0
  131.1270  126.5530   63.7610 O   0  0  0  0  0  0  0  0  0  0  0  0
  129.1340  125.2100   63.7490 C   0  0  0  0  0  0  0  0  0  0  0  0
  129.0210  123.8420   63.0200 C   0  0  0  0  0  0  0  0  0  0  0  0
  127.9770  123.7190   61.8790 C   0  0  2  0  0  0  0  0  0  0  0  0
  126.9470  122.8340   62.2890 O   0  0  0  0  0  0  0  0  0  0  0  0
  130.0180  121.9328   61.4056 H   0  0  0  0  0  0  0  0  0  0  0  0
  129.9076  121.9525   59.5037 H   0  0  0  0  0  0  0  0  0  0  0  0
  127.2001  123.0145   58.9077 H   0  0  0  0  0  0  0  0  0  0  0  0
  127.4314  124.7154   59.5460 H   0  0  0  0  0  0  0  0  0  0  0  0
  129.5846  123.2136   58.0376 H   0  0  0  0  0  0  0  0  0  0  0  0
  128.2941  124.2893   57.2584 H   0  0  0  0  0  0  0  0  0  0  0  0
  129.7900  125.8201   57.3336 H   0  0  0  0  0  0  0  0  0  0  0  0
  129.7312  127.3564   59.0085 H   0  0  0  0  0  0  0  0  0  0  0  0
  128.8830  126.8081   61.3999 H   0  0  0  0  0  0  0  0  0  0  0  0
  129.1722  125.0833   60.9901 H   0  0  0  0  0  0  0  0  0  0  0  0
  130.5397  126.2479   60.9901 H   0  0  0  0  0  0  0  0  0  0  0  0
  127.1928  126.7273   60.0550 H   0  0  0  0  0  0  0  0  0  0  0  0
  127.5291  127.5855   58.5132 H   0  0  0  0  0  0  0  0  0  0  0  0
  127.2666  125.8085   58.5132 H   0  0  0  0  0  0  0  0  0  0  0  0
  131.8930  124.8035   57.6945 H   0  0  0  0  0  0  0  0  0  0  0  0
  131.3825  125.4220   60.6402 H   0  0  0  0  0  0  0  0  0  0  0  0
  133.6295  123.8778   59.1992 H   0  0  0  0  0  0  0  0  0  0  0  0
  134.0095  125.5256   59.8857 H   0  0  0  0  0  0  0  0  0  0  0  0
  134.3255  122.1178   62.2157 H   0  0  0  0  0  0  0  0  0  0  0  0
  133.4311  121.9489   60.6671 H   0  0  0  0  0  0  0  0  0  0  0  0
  135.1190  122.5634   60.6671 H   0  0  0  0  0  0  0  0  0  0  0  0
  134.3120  125.4570   62.4730 H   0  0  0  0  0  0  0  0  0  0  0  0
  131.8800  125.1214   61.9652 H   0  0  0  0  0  0  0  0  0  0  0  0
  131.7841  123.2772   62.1293 H   0  0  0  0  0  0  0  0  0  0  0  0
  130.7546  123.4268   64.4147 H   0  0  0  0  0  0  0  0  0  0  0  0
  131.7264  124.3406   65.6984 H   0  0  0  0  0  0  0  0  0  0  0  0
  130.4566  125.5416   66.6903 H   0  0  0  0  0  0  0  0  0  0  0  0
  130.6209  127.1772   65.9661 H   0  0  0  0  0  0  0  0  0  0  0  0
  129.0259  126.3510   65.9661 H   0  0  0  0  0  0  0  0  0  0  0  0
  131.3100  127.3010   64.3350 H   0  0  0  0  0  0  0  0  0  0  0  0
  128.3141  125.2510   64.4812 H   0  0  0  0  0  0  0  0  0  0  0  0
  129.1073  125.9426   62.9289 H   0  0  0  0  0  0  0  0  0  0  0  0
  130.0075  123.6166   62.5888 H   0  0  0  0  0  0  0  0  0  0  0  0
  128.6725  123.1418   63.7935 H   0  0  0  0  0  0  0  0  0  0  0  0
  127.5911  124.7322   61.6933 H   0  0  0  0  0  0  0  0  0  0  0  0
  126.3470  123.3140   62.8650 H   0  0  0  0  0  0  0  0  0  0  0  0
  1  2  2  0
  2  3  1  0
  3  4  1  0
  4  5  1  0
  5  6  1  0
  6  7  1  0
  6  8  1  0
  5  9  1  0
  9 10  2  0
 10 11  1  0
 11 12  1  0
 12 13  1  0
 12 14  1  1
 12 15  1  0
 15 16  1  0
 16 17  2  0
 16 18  1  0
 18 19  1  0
 19 20  1  0
 19 21  1  6
 19 22  1  0
 22 23  1  0
 23 24  1  0
 24 25  1  0
 24  2  1  0
  1 26  1  0
  1 27  1  0
  3 28  1  0
  3 29  1  0
  4 30  1  0
  4 31  1  0
  5 32  1  6
  6 33  1  0
  7 34  1  0
  7 35  1  0
  7 36  1  0
  8 37  1  0
  8 38  1  0
  8 39  1  0
  9 40  1  0
 10 41  1  0
 11 42  1  0
 11 43  1  0
 13 44  1  0
 13 45  1  0
 13 46  1  0
 14 47  1  0
 15 48  1  0
 15 49  1  0
 18 50  1  0
 18 51  1  0
 20 52  1  0
 20 53  1  0
 20 54  1  0
 21 55  1  0
 22 56  1  0
 22 57  1  0
 23 58  1  0
 23 59  1  0
 24 60  1  6
 25 61  1  0
M  END
>  <Binding energies>  (1) 
[-3.17]

>  <Ligand effiencies>  (1) 
[-0.10566666666666666]

>  <Interactions>  (1) 
["V-A:ILE:369:CG2:3237, V-A:ASP:366:CA:3210, H-A:GLU:543:OE2:4910, V-B:TYR:539:CE2:9848, H-B:ALA:541:O:9861, V-B:GLU:543:CG:9879, V-A:ASP:366:CG:3213, V-B:TYR:539:CZ:9849, H-B:GLU:543:OE1:9881, H-B:ALA:541:N:9863, V-A:GLU:543:CD:4908, H-A:GLY:454:N:4050, V-A:ILE:369:CD1:3239, V-B:TYR:539:CD2:9846, V-B:GLU:543:CD:9880, V-A:ASP:366:CB:3212, H-A:ARG:545:NH2:4928, H-A:GLU:543:OE1:4909, H-A:ASP:366:OD1:3214, H-A:TYR:484:OH:4348"]

$$$$
ZINC238737401
     RDKit          3D

 44 46  0  0  0  0  0  0  0  0999 V2000
  130.9830  118.9670   60.6400 C   0  0  0  0  0  0  0  0  0  0  0  0
  131.2180  120.4880   60.5490 C   0  0  2  0  0  0  0  0  0  0  0  0
  132.7130  120.8240   60.4240 C   0  0  0  0  0  0  0  0  0  0  0  0
  133.5960  120.1910   59.8480 O   0  0  0  0  0  0  0  0  0  0  0  0
  132.9930  121.9460   61.1390 O   0  0  0  0  0  0  0  0  0  0  0  0
  131.8040  122.5030   61.6860 C   0  0  1  0  0  0  0  0  0  0  0  0
  130.8940  121.2740   61.8070 C   0  0  1  0  0  0  0  0  0  0  0  0
  129.4430  121.6770   62.1200 C   0  0  0  0  0  0  0  0  0  0  0  0
  129.4470  122.5130   63.4290 C   0  0  0  0  0  0  0  0  0  0  0  0
  130.3450  123.8050   63.3270 C   0  0  1  0  0  0  0  0  0  0  0  0
  129.6810  124.7100   62.2310 C   0  0  0  0  0  0  0  0  0  0  0  0
  130.3000  124.6360   64.6620 C   0  0  1  0  0  0  0  0  0  0  0  0
  130.5120  123.8470   65.8220 O   0  0  0  0  0  0  0  0  0  0  0  0
  131.2940  125.8240   64.6540 C   0  0  0  0  0  0  0  0  0  0  0  0
  132.7320  125.3970   64.3000 C   0  0  0  0  0  0  0  0  0  0  0  0
  132.8700  124.5870   62.9760 C   0  0  2  0  0  0  0  0  0  0  0  0
  134.3590  124.2040   62.7660 C   0  0  0  0  0  0  0  0  0  0  0  0
  132.5580  125.4340   61.8840 O   0  0  0  0  0  0  0  0  0  0  0  0
  131.8560  123.3660   62.9990 C   0  0  2  0  0  0  0  0  0  0  0  0
  132.3280  122.4740   64.0100 O   0  0  0  0  0  0  0  0  0  0  0  0
  130.9365  118.6658   61.6969 H   0  0  0  0  0  0  0  0  0  0  0  0
  130.0348  118.7122   60.1440 H   0  0  0  0  0  0  0  0  0  0  0  0
  131.8101  118.4379   60.1440 H   0  0  0  0  0  0  0  0  0  0  0  0
  130.5761  120.7529   59.6959 H   0  0  0  0  0  0  0  0  0  0  0  0
  131.4585  123.3096   61.0226 H   0  0  0  0  0  0  0  0  0  0  0  0
  131.0610  120.6080   62.6664 H   0  0  0  0  0  0  0  0  0  0  0  0
  129.0367  122.2792   61.2940 H   0  0  0  0  0  0  0  0  0  0  0  0
  128.8161  120.7813   62.2413 H   0  0  0  0  0  0  0  0  0  0  0  0
  128.4146  122.8195   63.6533 H   0  0  0  0  0  0  0  0  0  0  0  0
  129.8671  121.8800   64.2245 H   0  0  0  0  0  0  0  0  0  0  0  0
  129.0972  125.5057   62.7169 H   0  0  0  0  0  0  0  0  0  0  0  0
  130.4642  125.1607   61.6038 H   0  0  0  0  0  0  0  0  0  0  0  0
  129.0160  124.0981   61.6038 H   0  0  0  0  0  0  0  0  0  0  0  0
  129.2751  125.0328   64.7073 H   0  0  0  0  0  0  0  0  0  0  0  0
  131.3620  123.4070   65.7400 H   0  0  0  0  0  0  0  0  0  0  0  0
  130.9539  126.5619   63.9125 H   0  0  0  0  0  0  0  0  0  0  0  0
  131.3143  126.2458   65.6697 H   0  0  0  0  0  0  0  0  0  0  0  0
  133.3456  126.3055   64.2100 H   0  0  0  0  0  0  0  0  0  0  0  0
  133.0616  124.7263   65.1072 H   0  0  0  0  0  0  0  0  0  0  0  0
  134.8468  124.0785   63.7439 H   0  0  0  0  0  0  0  0  0  0  0  0
  134.4191  123.2611   62.2026 H   0  0  0  0  0  0  0  0  0  0  0  0
  134.8666  125.0008   62.2026 H   0  0  0  0  0  0  0  0  0  0  0  0
  133.2550  126.0890   61.8000 H   0  0  0  0  0  0  0  0  0  0  0  0
  132.2070  122.8980   64.8630 H   0  0  0  0  0  0  0  0  0  0  0  0
  1  2  1  0
  2  3  1  0
  3  4  2  0
  3  5  1  0
  5  6  1  0
  6  7  1  0
  7  8  1  0
  8  9  1  0
  9 10  1  0
 10 11  1  6
 10 12  1  0
 12 13  1  0
 12 14  1  0
 14 15  1  0
 15 16  1  0
 16 17  1  0
 16 18  1  6
 16 19  1  0
 19 20  1  1
  7  2  1  0
 19 10  1  0
 19  6  1  0
  1 21  1  0
  1 22  1  0
  1 23  1  0
  2 24  1  6
  6 25  1  6
  7 26  1  1
  8 27  1  0
  8 28  1  0
  9 29  1  0
  9 30  1  0
 11 31  1  0
 11 32  1  0
 11 33  1  0
 12 34  1  1
 13 35  1  0
 14 36  1  0
 14 37  1  0
 15 38  1  0
 15 39  1  0
 17 40  1  0
 17 41  1  0
 17 42  1  0
 18 43  1  0
 20 44  1  0
M  END
>  <Binding energies>  (1) 
[-5.94]

>  <Ligand effiencies>  (1) 
[-0.25826086956521743]

>  <Interactions>  (1) 
["V-A:ILE:369:CG2:3237, V-A:ILE:369:CD1:3239, V-A:GLY:453:CA:4044, V-A:GLY:454:CA:4049, V-B:TYR:539:CD2:9846, H-A:SER:385:OG:3410, V-A:ARG:545:CZ:4926, V-B:ALA:541:CB:9864, V-B:TYR:539:CE2:9848, H-A:ASP:366:OD2:3215, V-A:GLU:543:CD:4908, V-A:LEU:475:CD2:4259, H-A:ARG:545:NH2:4928, V-B:GLU:543:CG:9879, V-A:GLY:453:C:4042, H-A:TYR:484:OH:4348, H-A:ASP:366:OD1:3214"]

$$$$
ZINC238738763
     RDKit          3D

105107  0  0  0  0  0  0  0  0999 V2000
  129.5110  122.4820   64.4360 C   0  0  0  0  0  0  0  0  0  0  0  0
  130.7400  123.3850   64.6310 C   0  0  0  0  0  0  0  0  0  0  0  0
  130.4060  124.8280   65.0580 C   0  0  0  0  0  0  0  0  0  0  0  0
  130.9160  125.2070   66.4610 C   0  0  0  0  0  0  0  0  0  0  0  0
  129.8510  125.0300   67.5580 C   0  0  0  0  0  0  0  0  0  0  0  0
  129.3440  126.3710   68.1170 C   0  0  0  0  0  0  0  0  0  0  0  0
  129.0930  127.4270   67.0240 C   0  0  0  0  0  0  0  0  0  0  0  0
  128.1710  128.5630   67.4990 C   0  0  0  0  0  0  0  0  0  0  0  0
  127.2300  129.0830   66.3980 C   0  0  0  0  0  0  0  0  0  0  0  0
  127.9930  129.5640   65.1480 C   0  0  0  0  0  0  0  0  0  0  0  0
  128.1870  128.4840   64.0660 C   0  0  0  0  0  0  0  0  0  0  0  0
  127.1510  128.5290   62.9250 C   0  0  0  0  0  0  0  0  0  0  0  0
  127.5860  127.7730   61.6540 C   0  0  0  0  0  0  0  0  0  0  0  0
  126.4860  126.9330   60.9620 C   0  0  0  0  0  0  0  0  0  0  0  0
  126.4030  127.0640   59.4260 C   0  0  0  0  0  0  0  0  0  0  0  0
  125.9520  125.7780   58.7140 C   0  0  0  0  0  0  0  0  0  0  0  0
  127.0980  124.7700   58.4920 C   0  0  0  0  0  0  0  0  0  0  0  0
  126.9990  123.5860   59.4530 C   0  0  0  0  0  0  0  0  0  0  0  0
  125.9290  123.2560   59.9660 O   0  0  0  0  0  0  0  0  0  0  0  0
  128.2050  123.0180   59.6730 O   0  0  0  0  0  0  0  0  0  0  0  0
  128.9740  123.2700   60.8510 C   0  0  1  0  0  0  0  0  0  0  0  0
  130.1870  122.3160   60.8370 C   0  0  0  0  0  0  0  0  0  0  0  0
  131.4590  122.7430   60.5320 C   0  0  0  0  0  0  0  0  0  0  0  0
  132.5540  121.7410   60.5140 C   0  0  0  0  0  0  0  0  0  0  0  0
  133.7660  121.9630   60.5910 O   0  0  0  0  0  0  0  0  0  0  0  0
  132.1220  120.2500   60.3580 C   0  0  0  0  0  0  0  0  0  0  0  0
  132.8900  119.4740   59.6970 O   0  0  0  0  0  0  0  0  0  0  0  0
  130.8810  119.8750   60.9510 C   0  0  0  0  0  0  0  0  0  0  0  0
  130.6090  118.3870   61.3010 C   0  0  0  0  0  0  0  0  0  0  0  0
  130.4010  117.4900   60.0620 C   0  0  0  0  0  0  0  0  0  0  0  0
  129.4840  118.2290   62.3390 C   0  0  0  0  0  0  0  0  0  0  0  0
  129.8830  120.8840   61.1790 C   0  0  0  0  0  0  0  0  0  0  0  0
  128.7400  120.5660   61.6500 O   0  0  0  0  0  0  0  0  0  0  0  0
  131.8380  124.2300   60.1880 C   0  0  1  0  0  0  0  0  0  0  0  0
  132.6750  124.7980   61.3870 C   0  0  0  0  0  0  0  0  0  0  0  0
  132.6820  124.3260   58.8650 C   0  0  0  0  0  0  0  0  0  0  0  0
  132.8940  125.7550   58.3190 C   0  0  0  0  0  0  0  0  0  0  0  0
  131.5550  126.4890   58.1220 C   0  0  0  0  0  0  0  0  0  0  0  0
  130.6790  126.5440   59.4100 C   0  0  0  0  0  0  0  0  0  0  0  0
  131.3320  127.4860   60.4530 C   0  0  0  0  0  0  0  0  0  0  0  0
  129.3030  127.1090   58.9620 C   0  0  0  0  0  0  0  0  0  0  0  0
  130.5120  125.0470   59.9020 C   0  0  2  0  0  0  0  0  0  0  0  0
  129.3850  124.7550   60.9280 C   0  0  2  0  0  0  0  0  0  0  0  0
  129.6460  125.1550   62.2570 O   0  0  0  0  0  0  0  0  0  0  0  0
  129.1119  122.1888   65.4182 H   0  0  0  0  0  0  0  0  0  0  0  0
  128.7391  123.0294   63.8751 H   0  0  0  0  0  0  0  0  0  0  0  0
  129.8027  121.5818   63.8751 H   0  0  0  0  0  0  0  0  0  0  0  0
  131.3782  122.9355   65.4060 H   0  0  0  0  0  0  0  0  0  0  0  0
  131.2387  123.4535   63.6530 H   0  0  0  0  0  0  0  0  0  0  0  0
  130.8584  125.5166   64.3292 H   0  0  0  0  0  0  0  0  0  0  0  0
  129.3089  124.9013   65.0908 H   0  0  0  0  0  0  0  0  0  0  0  0
  131.7786  124.5692   66.7042 H   0  0  0  0  0  0  0  0  0  0  0  0
  131.1866  126.2729   66.4351 H   0  0  0  0  0  0  0  0  0  0  0  0
  128.9975  124.4804   67.1342 H   0  0  0  0  0  0  0  0  0  0  0  0
  130.3181  124.4799   68.3882 H   0  0  0  0  0  0  0  0  0  0  0  0
  128.4006  126.1920   68.6536 H   0  0  0  0  0  0  0  0  0  0  0  0
  130.1275  126.7663   68.7802 H   0  0  0  0  0  0  0  0  0  0  0  0
  130.0588  127.8595   66.7237 H   0  0  0  0  0  0  0  0  0  0  0  0
  128.5945  126.9234   66.1826 H   0  0  0  0  0  0  0  0  0  0  0  0
  127.5594  128.1904   68.3339 H   0  0  0  0  0  0  0  0  0  0  0  0
  128.8157  129.4019   67.8000 H   0  0  0  0  0  0  0  0  0  0  0  0
  126.5481  128.2713   66.1044 H   0  0  0  0  0  0  0  0  0  0  0  0
  126.6813  129.9443   66.8066 H   0  0  0  0  0  0  0  0  0  0  0  0
  127.4328  130.3998   64.7034 H   0  0  0  0  0  0  0  0  0  0  0  0
  128.9988  129.8538   65.4863 H   0  0  0  0  0  0  0  0  0  0  0  0
  129.1874  128.6131   63.6271 H   0  0  0  0  0  0  0  0  0  0  0  0
  128.0591  127.5129   64.5667 H   0  0  0  0  0  0  0  0  0  0  0  0
  126.2146  128.0820   63.2901 H   0  0  0  0  0  0  0  0  0  0  0  0
  127.0337  129.5857   62.6427 H   0  0  0  0  0  0  0  0  0  0  0  0
  127.9513  128.5146   60.9283 H   0  0  0  0  0  0  0  0  0  0  0  0
  128.3510  127.0533   61.9809 H   0  0  0  0  0  0  0  0  0  0  0  0
  126.6699  125.8750   61.2005 H   0  0  0  0  0  0  0  0  0  0  0  0
  125.5305  127.3202   61.3456 H   0  0  0  0  0  0  0  0  0  0  0  0
  125.6863  127.8628   59.1849 H   0  0  0  0  0  0  0  0  0  0  0  0
  127.4195  127.2865   59.0694 H   0  0  0  0  0  0  0  0  0  0  0  0
  125.1753  125.2947   59.3248 H   0  0  0  0  0  0  0  0  0  0  0  0
  125.5772  126.0692   57.7216 H   0  0  0  0  0  0  0  0  0  0  0  0
  127.0496  124.3962   57.4586 H   0  0  0  0  0  0  0  0  0  0  0  0
  128.0514  125.2860   58.6785 H   0  0  0  0  0  0  0  0  0  0  0  0
  128.3798  123.0758   61.7561 H   0  0  0  0  0  0  0  0  0  0  0  0
  131.5321  118.0199   61.7735 H   0  0  0  0  0  0  0  0  0  0  0  0
  130.1636  116.4661   60.3863 H   0  0  0  0  0  0  0  0  0  0  0  0
  129.5707  117.8853   59.4584 H   0  0  0  0  0  0  0  0  0  0  0  0
  131.3205  117.4795   59.4584 H   0  0  0  0  0  0  0  0  0  0  0  0
  129.9087  118.2886   63.3520 H   0  0  0  0  0  0  0  0  0  0  0  0
  128.7446  119.0321   62.2035 H   0  0  0  0  0  0  0  0  0  0  0  0
  128.9945  117.2533   62.2035 H   0  0  0  0  0  0  0  0  0  0  0  0
  132.2147  124.4857   62.3360 H   0  0  0  0  0  0  0  0  0  0  0  0
  133.7029  124.4101   61.3329 H   0  0  0  0  0  0  0  0  0  0  0  0
  132.6943  125.8965   61.3329 H   0  0  0  0  0  0  0  0  0  0  0  0
  133.6714  123.8868   59.0606 H   0  0  0  0  0  0  0  0  0  0  0  0
  132.1053  123.7896   58.0970 H   0  0  0  0  0  0  0  0  0  0  0  0
  133.5108  126.3220   59.0318 H   0  0  0  0  0  0  0  0  0  0  0  0
  133.3932  125.6802   57.3417 H   0  0  0  0  0  0  0  0  0  0  0  0
  131.7671  127.5196   57.8013 H   0  0  0  0  0  0  0  0  0  0  0  0
  130.9857  125.9254   57.3681 H   0  0  0  0  0  0  0  0  0  0  0  0
  131.0888  127.1352   61.4668 H   0  0  0  0  0  0  0  0  0  0  0  0
  132.4235  127.4840   60.3163 H   0  0  0  0  0  0  0  0  0  0  0  0
  130.9472  128.5074   60.3163 H   0  0  0  0  0  0  0  0  0  0  0  0
  128.7016  127.3560   59.8493 H   0  0  0  0  0  0  0  0  0  0  0  0
  129.4577  128.0164   58.3597 H   0  0  0  0  0  0  0  0  0  0  0  0
  128.7754  126.3547   58.3597 H   0  0  0  0  0  0  0  0  0  0  0  0
  130.1292  124.6216   58.9626 H   0  0  0  0  0  0  0  0  0  0  0  0
  128.5433  125.3963   60.6277 H   0  0  0  0  0  0  0  0  0  0  0  0
  128.8160  125.1640   62.7400 H   0  0  0  0  0  0  0  0  0  0  0  0
  1  2  1  0
  2  3  1  0
  3  4  1  0
  4  5  1  0
  5  6  1  0
  6  7  1  0
  7  8  1  0
  8  9  1  0
  9 10  1  0
 10 11  1  0
 11 12  1  0
 12 13  1  0
 13 14  1  0
 14 15  1  0
 15 16  1  0
 16 17  1  0
 17 18  1  0
 18 19  2  0
 18 20  1  0
 20 21  1  0
 21 22  1  0
 22 23  2  0
 23 24  1  0
 24 25  2  0
 24 26  1  0
 26 27  2  0
 26 28  1  0
 28 29  1  0
 29 30  1  0
 29 31  1  0
 28 32  2  0
 32 33  1  0
 23 34  1  0
 34 35  1  1
 34 36  1  0
 36 37  1  0
 37 38  1  0
 38 39  1  0
 39 40  1  0
 39 41  1  0
 39 42  1  0
 42 43  1  0
 43 44  1  0
 43 21  1  0
 32 22  1  0
 42 34  1  0
  1 45  1  0
  1 46  1  0
  1 47  1  0
  2 48  1  0
  2 49  1  0
  3 50  1  0
  3 51  1  0
  4 52  1  0
  4 53  1  0
  5 54  1  0
  5 55  1  0
  6 56  1  0
  6 57  1  0
  7 58  1  0
  7 59  1  0
  8 60  1  0
  8 61  1  0
  9 62  1  0
  9 63  1  0
 10 64  1  0
 10 65  1  0
 11 66  1  0
 11 67  1  0
 12 68  1  0
 12 69  1  0
 13 70  1  0
 13 71  1  0
 14 72  1  0
 14 73  1  0
 15 74  1  0
 15 75  1  0
 16 76  1  0
 16 77  1  0
 17 78  1  0
 17 79  1  0
 21 80  1  1
 29 81  1  0
 30 82  1  0
 30 83  1  0
 30 84  1  0
 31 85  1  0
 31 86  1  0
 31 87  1  0
 35 88  1  0
 35 89  1  0
 35 90  1  0
 36 91  1  0
 36 92  1  0
 37 93  1  0
 37 94  1  0
 38 95  1  0
 38 96  1  0
 40 97  1  0
 40 98  1  0
 40 99  1  0
 41100  1  0
 41101  1  0
 41102  1  0
 42103  1  6
 43104  1  6
 44105  1  0
M  CHG  1  33  -1
M  END
>  <Binding energies>  (1) 
[-7.08]

>  <Ligand effiencies>  (1) 
[-0.15733333333333333]

>  <Interactions>  (1) 
["V-A:ILE:369:CG2:3237, V-A:ASP:366:CA:3210, V-B:PRO:540:CA:9855, V-B:GLU:543:CB:9878, V-B:ALA:541:CB:9864, V-B:ASP:366:CG:8184, V-B:TYR:539:CE2:9848, V-A:TYR:484:CE2:4346, V-A:LEU:475:CG:4257, V-B:GLU:543:CG:9879, V-B:TYR:539:C:9839, V-A:ASP:366:CG:3213, V-B:TYR:539:CZ:9849, H-B:GLU:543:OE1:9881, H-B:ALA:541:N:9863, V-A:LEU:475:CD1:4258, V-A:HIS:383:CE1:3393, V-B:TYR:539:CB:9843, V-A:GLU:543:CD:4908, V-A:TYR:484:CZ:4347, V-B:PRO:540:CB:9857, V-B:HIS:456:CE1:9041, V-B:GLU:543:CA:9876, V-B:TYR:484:CZ:9318, V-A:HIS:456:CE1:4070, V-A:ASP:366:C:3208, V-A:PRO:482:CB:4326, V-B:TYR:539:CD2:9846, V-A:GLU:543:CG:4907, H-A:SER:385:OG:3410, V-B:GLU:543:CD:9880, V-A:ASP:366:CB:3212, V-A:LEU:475:CD2:4259, V-A:GLU:543:CB:4906, H-A:HIS:383:HE2:3395, V-A:PRO:482:CG:4327, V-B:ALA:541:CA:9862, V-A:HIS:383:NE2:3394"]

$$$$
ZINC238741473
     RDKit          3D

 39 42  0  0  0  0  0  0  0  0999 V2000
  132.4700  131.0860   56.4090 C   0  0  0  0  0  0  0  0  0  0  0  0
  131.6660  131.9680   57.0270 C   0  0  0  0  0  0  0  0  0  0  0  0
  130.7780  133.0440   56.4200 C   0  0  0  0  0  0  0  0  0  0  0  0
  129.8340  133.4110   57.4350 O   0  0  0  0  0  0  0  0  0  0  0  0
  129.8370  132.4120   58.4490 C   0  0  1  0  0  0  0  0  0  0  0  0
  131.3430  132.1230   58.4890 C   0  0  1  0  0  0  0  0  0  0  0  0
  131.6810  131.0190   59.5050 C   0  0  0  0  0  0  0  0  0  0  0  0
  131.2810  131.5260   60.9080 C   0  0  0  0  0  0  0  0  0  0  0  0
  129.8000  131.9940   60.9980 C   0  0  1  0  0  0  0  0  0  0  0  0
  129.4750  132.5530   62.3970 C   0  0  0  0  0  0  0  0  0  0  0  0
  129.3960  132.9680   59.8300 C   0  0  2  0  0  0  0  0  0  0  0  0
  127.9010  133.3490   59.7610 C   0  0  0  0  0  0  0  0  0  0  0  0
  127.0160  132.1020   59.6050 C   0  0  0  0  0  0  0  0  0  0  0  0
  127.5050  131.1090   58.5200 C   0  0  1  0  0  0  0  0  0  0  0  0
  126.8700  129.7130   58.5840 C   0  0  0  0  0  0  0  0  0  0  0  0
  127.7480  131.6270   57.2450 O   0  0  0  0  0  0  0  0  0  0  0  0
  128.9080  131.2450   57.9560 C   0  0  1  0  0  0  0  0  0  0  0  0
  133.0528  130.3646   57.0006 H   0  0  0  0  0  0  0  0  0  0  0  0
  132.5453  131.0855   55.3116 H   0  0  0  0  0  0  0  0  0  0  0  0
  131.3820  133.9161   56.1292 H   0  0  0  0  0  0  0  0  0  0  0  0
  130.2691  132.6776   55.5163 H   0  0  0  0  0  0  0  0  0  0  0  0
  132.0108  132.8945   58.8998 H   0  0  0  0  0  0  0  0  0  0  0  0
  131.1192  130.1045   59.2639 H   0  0  0  0  0  0  0  0  0  0  0  0
  132.7555  130.7858   59.4739 H   0  0  0  0  0  0  0  0  0  0  0  0
  131.4331  130.7100   61.6299 H   0  0  0  0  0  0  0  0  0  0  0  0
  131.9113  132.4001   61.1288 H   0  0  0  0  0  0  0  0  0  0  0  0
  129.1676  131.1050   60.8575 H   0  0  0  0  0  0  0  0  0  0  0  0
  129.8708  131.8721   63.1649 H   0  0  0  0  0  0  0  0  0  0  0  0
  129.9375  133.5443   62.5123 H   0  0  0  0  0  0  0  0  0  0  0  0
  128.3846  132.6415   62.5123 H   0  0  0  0  0  0  0  0  0  0  0  0
  129.9377  133.8939   60.0732 H   0  0  0  0  0  0  0  0  0  0  0  0
  127.6214  133.8738   60.6864 H   0  0  0  0  0  0  0  0  0  0  0  0
  127.7469  133.9971   58.8857 H   0  0  0  0  0  0  0  0  0  0  0  0
  126.9903  131.5741   60.5697 H   0  0  0  0  0  0  0  0  0  0  0  0
  126.0241  132.4555   59.2868 H   0  0  0  0  0  0  0  0  0  0  0  0
  126.7362  129.4189   59.6355 H   0  0  0  0  0  0  0  0  0  0  0  0
  125.8918  129.7317   58.0812 H   0  0  0  0  0  0  0  0  0  0  0  0
  127.5269  128.9880   58.0812 H   0  0  0  0  0  0  0  0  0  0  0  0
  129.7603  130.5627   57.8214 H   0  0  0  0  0  0  0  0  0  0  0  0
  1  2  2  0
  2  3  1  0
  3  4  1  0
  5  4  1  6
  5  6  1  0
  6  7  1  0
  7  8  1  0
  8  9  1  0
  9 10  1  0
  9 11  1  0
 11 12  1  0
 12 13  1  0
 13 14  1  0
 14 15  1  6
 14 16  1  0
 16 17  1  0
  6  2  1  0
 17 14  1  0
 11  5  1  0
 17  5  1  0
  1 18  1  0
  1 19  1  0
  3 20  1  0
  3 21  1  0
  6 22  1  1
  7 23  1  0
  7 24  1  0
  8 25  1  0
  8 26  1  0
  9 27  1  6
 10 28  1  0
 10 29  1  0
 10 30  1  0
 11 31  1  1
 12 32  1  0
 12 33  1  0
 13 34  1  0
 13 35  1  0
 15 36  1  0
 15 37  1  0
 15 38  1  0
 17 39  1  6
M  END
>  <Binding energies>  (1) 
[-6.48]

>  <Ligand effiencies>  (1) 
[-0.38117647058823534]

>  <Interactions>  (1) 
["V-A:LEU:363:CD1:3189, V-A:PRO:540:N:4884, H-A:TYR:539:N:4870, V-A:ILE:538:C:4858, V-A:ILE:538:CA:4860, V-A:PRO:540:CA:4883, V-A:TYR:531:CE2:4793, V-A:PRO:540:CB:4885, V-A:ALA:541:CA:4890, V-A:ALA:541:CB:4892, V-A:ILE:538:CB:4862, V-A:TYR:531:CZ:4794, V-A:TYR:539:C:4867, V-A:TYR:539:CD1:4873, V-A:PRO:540:CD:4887, V-A:TYR:539:CE1:4875, V-A:ILE:538:CG2:4863"]

$$$$
ZINC238742705-again1
     RDKit          3D

 94 97  0  0  0  0  0  0  0  0999 V2000
  129.0760  127.3270   66.2740 C   0  0  0  0  0  0  0  0  0  0  0  0
  128.3170  128.0700   65.1880 C   0  0  0  0  0  0  0  0  0  0  0  0
  127.4230  129.1840   65.7140 C   0  0  0  0  0  0  0  0  0  0  0  0
  128.4620  127.7370   63.8870 C   0  0  0  0  0  0  0  0  0  0  0  0
  127.8050  128.3690   62.6660 C   0  0  0  0  0  0  0  0  0  0  0  0
  128.5090  127.9810   61.3570 C   0  0  0  0  0  0  0  0  0  0  0  0
  129.0510  126.7580   61.1230 C   0  0  0  0  0  0  0  0  0  0  0  0
  128.8070  125.8270   62.0940 O   0  0  0  0  0  0  0  0  0  0  0  0
  129.8460  124.8950   62.4330 C   0  0  0  0  0  0  0  0  0  0  0  0
  130.8850  125.6860   63.2710 C   0  0  0  0  0  0  0  0  0  0  0  0
  129.1010  123.8470   63.2880 C   0  0  0  0  0  0  0  0  0  0  0  0
  130.4040  124.2300   61.1300 C   0  0  2  0  0  0  0  0  0  0  0  0
  131.4500  123.0900   61.3060 C   0  0  0  0  0  0  0  0  0  0  0  0
  132.7450  123.4420   62.0300 C   0  0  0  0  0  0  0  0  0  0  0  0
  133.8680  123.9850   61.5090 C   0  0  0  0  0  0  0  0  0  0  0  0
  135.0850  124.2550   62.3760 C   0  0  0  0  0  0  0  0  0  0  0  0
  134.0480  124.3830   60.0510 C   0  0  0  0  0  0  0  0  0  0  0  0
  130.8700  125.3190   60.1530 C   0  0  0  0  0  0  0  0  0  0  0  0
  129.7610  126.3530   59.8140 C   0  0  1  0  0  0  0  0  0  0  0  0
  128.7260  125.8030   58.7850 C   0  0  0  0  0  0  0  0  0  0  0  0
  127.6480  126.8320   58.3150 C   0  0  2  0  0  0  0  0  0  0  0  0
  126.6300  126.1610   57.3480 C   0  0  0  0  0  0  0  0  0  0  0  0
  126.9980  124.7370   56.9510 C   0  0  0  0  0  0  0  0  0  0  0  0
  126.8280  123.6060   57.6680 C   0  0  0  0  0  0  0  0  0  0  0  0
  127.2720  122.2570   57.1280 C   0  0  0  0  0  0  0  0  0  0  0  0
  126.1790  123.5380   59.0440 C   0  0  0  0  0  0  0  0  0  0  0  0
  128.3080  128.1960   57.8150 C   0  0  0  0  0  0  0  0  0  0  0  0
  129.0490  127.8790   56.4650 C   0  0  0  0  0  0  0  0  0  0  0  0
  127.1480  129.2100   57.5450 C   0  0  0  0  0  0  0  0  0  0  0  0
  129.3310  128.7530   58.9650 C   0  0  1  0  0  0  0  0  0  0  0  0
  130.0850  130.1010   58.5890 C   0  0  0  0  0  0  0  0  0  0  0  0
  129.7570  130.7170   57.5740 O   0  0  0  0  0  0  0  0  0  0  0  0
  131.1080  130.7120   59.5320 C   0  0  0  0  0  0  0  0  0  0  0  0
  132.4520  130.9230   59.1790 C   0  0  0  0  0  0  0  0  0  0  0  0
  133.3560  131.4740   60.0840 C   0  0  0  0  0  0  0  0  0  0  0  0
  132.9350  131.8440   61.3590 C   0  0  0  0  0  0  0  0  0  0  0  0
  133.8450  132.3780   62.2370 O   0  0  0  0  0  0  0  0  0  0  0  0
  131.5970  131.6680   61.7240 C   0  0  0  0  0  0  0  0  0  0  0  0
  131.1520  132.0310   62.9720 O   0  0  0  0  0  0  0  0  0  0  0  0
  130.6950  131.1140   60.8140 C   0  0  0  0  0  0  0  0  0  0  0  0
  128.5150  129.0240   60.2950 C   0  0  0  0  0  0  0  0  0  0  0  0
  127.8220  130.0380   60.4180 O   0  0  0  0  0  0  0  0  0  0  0  0
  130.3830  127.6130   59.1640 C   0  0  0  0  0  0  0  0  0  0  0  0
  131.5680  127.6850   58.8190 O   0  0  0  0  0  0  0  0  0  0  0  0
  128.7294  127.6663   67.2613 H   0  0  0  0  0  0  0  0  0  0  0  0
  128.8958  126.2465   66.1736 H   0  0  0  0  0  0  0  0  0  0  0  0
  130.1524  127.5301   66.1736 H   0  0  0  0  0  0  0  0  0  0  0  0
  127.4320  129.1728   66.8139 H   0  0  0  0  0  0  0  0  0  0  0  0
  127.7960  130.1542   65.3541 H   0  0  0  0  0  0  0  0  0  0  0  0
  126.3950  129.0300   65.3541 H   0  0  0  0  0  0  0  0  0  0  0  0
  129.1444  126.8990   63.6819 H   0  0  0  0  0  0  0  0  0  0  0  0
  126.7577  128.0363   62.6162 H   0  0  0  0  0  0  0  0  0  0  0  0
  127.8755  129.4614   62.7743 H   0  0  0  0  0  0  0  0  0  0  0  0
  130.6849  125.5336   64.3419 H   0  0  0  0  0  0  0  0  0  0  0  0
  131.8974  125.3280   63.0326 H   0  0  0  0  0  0  0  0  0  0  0  0
  130.8093  126.7572   63.0326 H   0  0  0  0  0  0  0  0  0  0  0  0
  129.2568  124.0662   64.3546 H   0  0  0  0  0  0  0  0  0  0  0  0
  128.0257  123.8845   63.0592 H   0  0  0  0  0  0  0  0  0  0  0  0
  129.4898  122.8437   63.0592 H   0  0  0  0  0  0  0  0  0  0  0  0
  129.5530  123.6774   60.7052 H   0  0  0  0  0  0  0  0  0  0  0  0
  130.9650  122.2793   61.8695 H   0  0  0  0  0  0  0  0  0  0  0  0
  131.7580  122.8257   60.2836 H   0  0  0  0  0  0  0  0  0  0  0  0
  132.7683  123.2278   63.1087 H   0  0  0  0  0  0  0  0  0  0  0  0
  134.8008  124.1919   63.4368 H   0  0  0  0  0  0  0  0  0  0  0  0
  135.8625  123.5075   62.1597 H   0  0  0  0  0  0  0  0  0  0  0  0
  135.4734  125.2612   62.1597 H   0  0  0  0  0  0  0  0  0  0  0  0
  134.5007  125.3841   59.9974 H   0  0  0  0  0  0  0  0  0  0  0  0
  134.7050  123.6562   59.5509 H   0  0  0  0  0  0  0  0  0  0  0  0
  133.0683  124.3964   59.5509 H   0  0  0  0  0  0  0  0  0  0  0  0
  131.7196  125.8528   60.6039 H   0  0  0  0  0  0  0  0  0  0  0  0
  131.1478  124.8182   59.2139 H   0  0  0  0  0  0  0  0  0  0  0  0
  129.2776  125.4581   57.8980 H   0  0  0  0  0  0  0  0  0  0  0  0
  128.1789  124.9997   59.3002 H   0  0  0  0  0  0  0  0  0  0  0  0
  127.0392  127.1503   59.1741 H   0  0  0  0  0  0  0  0  0  0  0  0
  125.6470  126.1394   57.8413 H   0  0  0  0  0  0  0  0  0  0  0  0
  126.6276  126.7582   56.4242 H   0  0  0  0  0  0  0  0  0  0  0  0
  127.4583  124.6157   55.9593 H   0  0  0  0  0  0  0  0  0  0  0  0
  127.4944  121.5813   57.9671 H   0  0  0  0  0  0  0  0  0  0  0  0
  126.4684  121.8257   56.5130 H   0  0  0  0  0  0  0  0  0  0  0  0
  128.1747  122.3873   56.5130 H   0  0  0  0  0  0  0  0  0  0  0  0
  126.9547  123.6193   59.8197 H   0  0  0  0  0  0  0  0  0  0  0  0
  125.4632  124.3661   59.1531 H   0  0  0  0  0  0  0  0  0  0  0  0
  125.6504  122.5795   59.1531 H   0  0  0  0  0  0  0  0  0  0  0  0
  130.0405  127.4548   56.6818 H   0  0  0  0  0  0  0  0  0  0  0  0
  128.4592  127.1544   55.8844 H   0  0  0  0  0  0  0  0  0  0  0  0
  129.1657  128.8059   55.8844 H   0  0  0  0  0  0  0  0  0  0  0  0
  126.7413  129.5655   58.5032 H   0  0  0  0  0  0  0  0  0  0  0  0
  127.5346  130.0650   56.9709 H   0  0  0  0  0  0  0  0  0  0  0  0
  126.3524  128.7126   56.9709 H   0  0  0  0  0  0  0  0  0  0  0  0
  132.7957  130.6483   58.1708 H   0  0  0  0  0  0  0  0  0  0  0  0
  134.4064  131.6175   59.7907 H   0  0  0  0  0  0  0  0  0  0  0  0
  133.5120  132.4050   63.1370 H   0  0  0  0  0  0  0  0  0  0  0  0
  131.2370  131.3270   63.6180 H   0  0  0  0  0  0  0  0  0  0  0  0
  129.6416  130.9898   61.1056 H   0  0  0  0  0  0  0  0  0  0  0  0
  1  2  1  0
  2  3  1  0
  2  4  2  3
  4  5  1  0
  5  6  1  0
  6  7  2  0
  7  8  1  0
  8  9  1  0
  9 10  1  0
  9 11  1  0
  9 12  1  0
 12 13  1  0
 13 14  1  0
 14 15  2  3
 15 16  1  0
 15 17  1  0
 12 18  1  0
 19 18  1  1
 19 20  1  0
 20 21  1  0
 21 22  1  0
 22 23  1  0
 23 24  2  3
 24 25  1  0
 24 26  1  0
 21 27  1  0
 27 28  1  0
 27 29  1  0
 27 30  1  0
 30 31  1  6
 31 32  2  0
 31 33  1  0
 33 34  2  0
 34 35  1  0
 35 36  2  0
 36 37  1  0
 36 38  1  0
 38 39  1  0
 38 40  2  0
 30 41  1  0
 41 42  2  0
 30 43  1  0
 43 44  2  0
 41  6  1  0
 19  7  1  0
 40 33  1  0
 43 19  1  0
  1 45  1  0
  1 46  1  0
  1 47  1  0
  3 48  1  0
  3 49  1  0
  3 50  1  0
  4 51  1  0
  5 52  1  0
  5 53  1  0
 10 54  1  0
 10 55  1  0
 10 56  1  0
 11 57  1  0
 11 58  1  0
 11 59  1  0
 12 60  1  6
 13 61  1  0
 13 62  1  0
 14 63  1  0
 16 64  1  0
 16 65  1  0
 16 66  1  0
 17 67  1  0
 17 68  1  0
 17 69  1  0
 18 70  1  0
 18 71  1  0
 20 72  1  0
 20 73  1  0
 21 74  1  1
 22 75  1  0
 22 76  1  0
 23 77  1  0
 25 78  1  0
 25 79  1  0
 25 80  1  0
 26 81  1  0
 26 82  1  0
 26 83  1  0
 28 84  1  0
 28 85  1  0
 28 86  1  0
 29 87  1  0
 29 88  1  0
 29 89  1  0
 34 90  1  0
 35 91  1  0
 37 92  1  0
 39 93  1  0
 40 94  1  0
M  END
>  <Binding energies>  (1) 
[-8.76]

>  <Ligand effiencies>  (1) 
[-0.19043478260869565]

>  <Interactions>  (1) 
["V-A:ILE:369:CG2:3237, V-A:ASP:366:CA:3210, V-B:TYR:539:CA:9841, V-B:PRO:540:CA:9855, V-A:ILE:369:CB:3236, H-A:ALA:541:N:4891, V-B:GLU:543:CB:9878, H-A:ALA:541:O:4889, H-A:TYR:531:OH:4795, V-B:TYR:539:CE2:9848, V-B:GLU:543:CG:9879, V-B:TYR:539:C:9839, V-A:ASP:366:CG:3213, V-A:ASN:362:CB:3176, V-B:TYR:539:CZ:9849, V-B:TYR:531:CZ:9766, V-A:GLU:543:CD:4908, V-B:PRO:540:CB:9857, V-A:GLY:453:C:4042, V-B:PRO:540:N:9856, V-A:ILE:369:CD1:3239, V-B:PRO:540:CD:9859, V-A:GLU:543:CG:4907, V-B:TYR:539:CD2:9846, V-B:GLU:543:CD:9880, V-A:MET:535:CE:4835, V-A:ASP:366:CB:3212, H-A:GLU:543:OE1:4909, V-B:TYR:539:CG:9844, V-B:TYR:539:CD1:9845, V-A:PRO:540:CB:4885, V-A:PRO:540:CA:4883, V-A:LEU:363:CA:3185, V-A:GLY:453:CA:4044, V-B:TYR:539:CE1:9847"]

$$$$
ZINC238743641
     RDKit          3D

 58 60  0  0  0  0  0  0  0  0999 V2000
  130.3840  119.6930   61.2230 C   0  0  0  0  0  0  0  0  0  0  0  0
  130.3080  121.0350   61.1240 C   0  0  0  0  0  0  0  0  0  0  0  0
  131.5290  121.8230   61.0140 C   0  0  0  0  0  0  0  0  0  0  0  0
  132.7190  121.4260   61.5010 C   0  0  0  0  0  0  0  0  0  0  0  0
  133.9730  122.2770   61.5390 C   0  0  0  0  0  0  0  0  0  0  0  0
  133.7620  123.8090   61.4020 C   0  0  2  0  0  0  0  0  0  0  0  0
  134.6810  124.4670   60.3510 C   0  0  0  0  0  0  0  0  0  0  0  0
  133.6250  124.6120   62.7310 C   0  0  0  0  0  0  0  0  0  0  0  0
  132.2390  124.8770   63.3980 C   0  0  2  0  0  0  0  0  0  0  0  0
  132.2730  124.4780   64.7710 O   0  0  0  0  0  0  0  0  0  0  0  0
  131.8740  125.2870   65.7810 C   0  0  0  0  0  0  0  0  0  0  0  0
  130.3620  125.4730   65.8110 C   0  0  0  0  0  0  0  0  0  0  0  0
  132.5970  125.8370   66.6120 O   0  0  0  0  0  0  0  0  0  0  0  0
  130.9660  124.4660   62.6130 C   0  0  0  0  0  0  0  0  0  0  0  0
  130.1230  123.4280   62.9110 C   0  0  0  0  0  0  0  0  0  0  0  0
  130.3620  122.4530   64.0630 C   0  0  0  0  0  0  0  0  0  0  0  0
  128.8820  123.0680   62.0530 C   0  0  2  0  0  0  0  0  0  0  0  0
  128.9410  121.7340   61.2170 C   0  0  1  0  0  0  0  0  0  0  0  0
  128.3830  122.0800   59.8270 C   0  0  0  0  0  0  0  0  0  0  0  0
  128.5780  123.5830   59.6690 C   0  0  0  0  0  0  0  0  0  0  0  0
  128.3740  124.1920   61.0790 C   0  0  1  0  0  0  0  0  0  0  0  0
  126.8340  124.3980   61.2530 C   0  0  0  0  0  0  0  0  0  0  0  0
  129.1190  125.5570   61.2370 C   0  0  1  0  0  0  0  0  0  0  0  0
  128.5720  126.3350   62.2950 O   0  0  0  0  0  0  0  0  0  0  0  0
  130.6430  125.4300   61.4630 C   0  0  2  0  0  0  0  0  0  0  0  0
  131.3770  125.1160   60.2970 O   0  0  0  0  0  0  0  0  0  0  0  0
  129.4647  119.0947   61.3062 H   0  0  0  0  0  0  0  0  0  0  0  0
  131.3653  119.1960   61.2206 H   0  0  0  0  0  0  0  0  0  0  0  0
  131.4749  122.7964   60.5046 H   0  0  0  0  0  0  0  0  0  0  0  0
  132.7871  120.4043   61.9029 H   0  0  0  0  0  0  0  0  0  0  0  0
  134.4763  122.0914   62.4993 H   0  0  0  0  0  0  0  0  0  0  0  0
  134.5596  121.9791   60.6574 H   0  0  0  0  0  0  0  0  0  0  0  0
  132.7442  123.8807   60.9909 H   0  0  0  0  0  0  0  0  0  0  0  0
  135.4735  125.0344   60.8608 H   0  0  0  0  0  0  0  0  0  0  0  0
  135.1351  123.6875   59.7216 H   0  0  0  0  0  0  0  0  0  0  0  0
  134.0894  125.1480   59.7216 H   0  0  0  0  0  0  0  0  0  0  0  0
  134.2289  124.0762   63.4782 H   0  0  0  0  0  0  0  0  0  0  0  0
  133.9300  125.6229   62.4226 H   0  0  0  0  0  0  0  0  0  0  0  0
  132.0999  125.9674   63.3575 H   0  0  0  0  0  0  0  0  0  0  0  0
  130.0184  125.5153   66.8551 H   0  0  0  0  0  0  0  0  0  0  0  0
  130.0977  126.4104   65.2998 H   0  0  0  0  0  0  0  0  0  0  0  0
  129.8784  124.6276   65.2998 H   0  0  0  0  0  0  0  0  0  0  0  0
  130.2332  122.9784   65.0208 H   0  0  0  0  0  0  0  0  0  0  0  0
  129.6401  121.6255   63.9988 H   0  0  0  0  0  0  0  0  0  0  0  0
  131.3847  122.0532   63.9988 H   0  0  0  0  0  0  0  0  0  0  0  0
  128.1700  122.9289   62.8798 H   0  0  0  0  0  0  0  0  0  0  0  0
  128.3435  120.9785   61.7481 H   0  0  0  0  0  0  0  0  0  0  0  0
  128.9351  121.5371   59.0457 H   0  0  0  0  0  0  0  0  0  0  0  0
  127.3250  121.7947   59.7308 H   0  0  0  0  0  0  0  0  0  0  0  0
  129.5920  123.8001   59.3022 H   0  0  0  0  0  0  0  0  0  0  0  0
  127.8698  124.0064   58.9415 H   0  0  0  0  0  0  0  0  0  0  0  0
  126.5872  124.4310   62.3245 H   0  0  0  0  0  0  0  0  0  0  0  0
  126.5347  125.3442   60.7785 H   0  0  0  0  0  0  0  0  0  0  0  0
  126.2965  123.5637   60.7785 H   0  0  0  0  0  0  0  0  0  0  0  0
  128.9661  126.0580   60.2697 H   0  0  0  0  0  0  0  0  0  0  0  0
  127.6590  126.0700   62.4280 H   0  0  0  0  0  0  0  0  0  0  0  0
  130.9784  126.4364   61.7540 H   0  0  0  0  0  0  0  0  0  0  0  0
  131.9810  125.8390   60.1120 H   0  0  0  0  0  0  0  0  0  0  0  0
  1  2  2  0
  2  3  1  0
  3  4  2  0
  4  5  1  0
  5  6  1  0
  6  7  1  0
  6  8  1  0
  8  9  1  0
  9 10  1  0
 10 11  1  0
 11 12  1  0
 11 13  2  0
  9 14  1  0
 14 15  2  0
 15 16  1  0
 15 17  1  0
 17 18  1  0
 18 19  1  0
 19 20  1  0
 20 21  1  0
 21 22  1  1
 21 23  1  0
 23 24  1  0
 23 25  1  0
 25 26  1  0
 18  2  1  0
 25 14  1  0
 21 17  1  0
  1 27  1  0
  1 28  1  0
  3 29  1  0
  4 30  1  0
  5 31  1  0
  5 32  1  0
  6 33  1  6
  7 34  1  0
  7 35  1  0
  7 36  1  0
  8 37  1  0
  8 38  1  0
  9 39  1  1
 12 40  1  0
 12 41  1  0
 12 42  1  0
 16 43  1  0
 16 44  1  0
 16 45  1  0
 17 46  1  1
 18 47  1  1
 19 48  1  0
 19 49  1  0
 20 50  1  0
 20 51  1  0
 22 52  1  0
 22 53  1  0
 22 54  1  0
 23 55  1  6
 24 56  1  0
 25 57  1  1
 26 58  1  0
M  END
>  <Binding energies>  (1) 
[-5.07]

>  <Ligand effiencies>  (1) 
[-0.169]

>  <Interactions>  (1) 
["V-A:ILE:369:CG2:3237, V-A:ASP:366:CA:3210, V-B:PRO:540:CA:9855, V-A:ILE:369:CB:3236, V-B:ALA:541:CB:9864, V-B:TYR:539:CE2:9848, V-A:TYR:484:CE2:4346, V-B:GLU:543:CG:9879, V-B:TYR:539:C:9839, V-A:ASP:366:CG:3213, H-B:GLU:543:OE1:9881, V-A:TYR:484:CZ:4347, V-B:PRO:540:N:9856, V-A:ILE:369:CD1:3239, V-B:TYR:539:CD2:9846, V-B:GLU:543:CD:9880, V-A:ILE:369:CG1:3238, V-A:ASP:366:CB:3212, V-A:LEU:475:CD2:4259, V-A:ARG:545:CZ:4926, H-A:ASP:366:OD1:3214, H-B:GLU:543:OE2:9882, H-A:ARG:545:NE:4924, V-B:PRO:540:C:9853, H-A:ASP:366:OD2:3215, H-A:TYR:484:OH:4348"]

$$$$
ZINC238745600
     RDKit          3D

 41 41  0  0  0  0  0  0  0  0999 V2000
  131.6120  120.1250   60.7990 C   0  0  0  0  0  0  0  0  0  0  0  0
  132.7020  121.2050   60.8630 C   0  0  0  0  0  0  0  0  0  0  0  0
  132.5730  122.1280   62.0930 C   0  0  2  0  0  0  0  0  0  0  0  0
  131.2060  122.5260   62.2450 O   0  0  0  0  0  0  0  0  0  0  0  0
  130.9690  123.3660   63.2950 C   0  0  0  0  0  0  0  0  0  0  0  0
  129.4810  123.2700   63.6490 C   0  0  2  0  0  0  0  0  0  0  0  0
  129.2860  122.4470   64.9420 C   0  0  0  0  0  0  0  0  0  0  0  0
  128.6020  122.7520   62.4690 C   0  0  1  0  0  0  0  0  0  0  0  0
  127.2310  122.8440   62.8150 O   0  0  0  0  0  0  0  0  0  0  0  0
  128.8280  123.5200   61.1410 C   0  0  0  0  0  0  0  0  0  0  0  0
  128.3810  122.7560   59.8820 C   0  0  0  0  0  0  0  0  0  0  0  0
  131.8860  124.2170   63.8320 C   0  0  0  0  0  0  0  0  0  0  0  0
  131.6380  125.1380   65.0300 C   0  0  0  0  0  0  0  0  0  0  0  0
  133.2710  124.2140   63.3200 C   0  0  0  0  0  0  0  0  0  0  0  0
  134.2130  124.7530   63.9020 O   0  0  0  0  0  0  0  0  0  0  0  0
  133.5060  123.3690   62.0530 C   0  0  2  0  0  0  0  0  0  0  0  0
  133.3240  124.2700   60.8100 C   0  0  0  0  0  0  0  0  0  0  0  0
  131.3211  119.8367   61.8199 H   0  0  0  0  0  0  0  0  0  0  0  0
  130.7350  120.5204   60.2656 H   0  0  0  0  0  0  0  0  0  0  0  0
  131.9993  119.2444   60.2656 H   0  0  0  0  0  0  0  0  0  0  0  0
  133.6833  120.7093   60.8994 H   0  0  0  0  0  0  0  0  0  0  0  0
  132.5899  121.8354   59.9685 H   0  0  0  0  0  0  0  0  0  0  0  0
  132.9023  121.5449   62.9657 H   0  0  0  0  0  0  0  0  0  0  0  0
  129.1226  124.2921   63.8409 H   0  0  0  0  0  0  0  0  0  0  0  0
  129.4398  123.0962   65.8166 H   0  0  0  0  0  0  0  0  0  0  0  0
  128.2657  122.0365   64.9650 H   0  0  0  0  0  0  0  0  0  0  0  0
  130.0136  121.6224   64.9650 H   0  0  0  0  0  0  0  0  0  0  0  0
  128.9043  121.7079   62.3003 H   0  0  0  0  0  0  0  0  0  0  0  0
  127.0560  123.7330   63.1330 H   0  0  0  0  0  0  0  0  0  0  0  0
  128.2649  124.4638   61.1890 H   0  0  0  0  0  0  0  0  0  0  0  0
  129.9132  123.6731   61.0471 H   0  0  0  0  0  0  0  0  0  0  0  0
  127.8461  121.8417   60.1785 H   0  0  0  0  0  0  0  0  0  0  0  0
  127.7135  123.3937   59.2838 H   0  0  0  0  0  0  0  0  0  0  0  0
  129.2639  122.4866   59.2838 H   0  0  0  0  0  0  0  0  0  0  0  0
  131.7896  124.5751   65.9628 H   0  0  0  0  0  0  0  0  0  0  0  0
  132.3404  125.9838   64.9939 H   0  0  0  0  0  0  0  0  0  0  0  0
  130.6059  125.5167   64.9939 H   0  0  0  0  0  0  0  0  0  0  0  0
  134.5327  122.9775   62.0012 H   0  0  0  0  0  0  0  0  0  0  0  0
  133.1157  125.3010   61.1318 H   0  0  0  0  0  0  0  0  0  0  0  0
  134.2437  124.2529   60.2069 H   0  0  0  0  0  0  0  0  0  0  0  0
  132.4830  123.8972   60.2069 H   0  0  0  0  0  0  0  0  0  0  0  0
  1  2  1  0
  2  3  1  0
  3  4  1  0
  4  5  1  0
  5  6  1  0
  6  7  1  0
  6  8  1  0
  8  9  1  0
  8 10  1  0
 10 11  1  0
  5 12  2  0
 12 13  1  0
 12 14  1  0
 14 15  2  0
 14 16  1  0
 16 17  1  0
 16  3  1  0
  1 18  1  0
  1 19  1  0
  1 20  1  0
  2 21  1  0
  2 22  1  0
  3 23  1  1
  6 24  1  1
  7 25  1  0
  7 26  1  0
  7 27  1  0
  8 28  1  6
  9 29  1  0
 10 30  1  0
 10 31  1  0
 11 32  1  0
 11 33  1  0
 11 34  1  0
 13 35  1  0
 13 36  1  0
 13 37  1  0
 16 38  1  1
 17 39  1  0
 17 40  1  0
 17 41  1  0
M  END
>  <Binding energies>  (1) 
[-5.9]

>  <Ligand effiencies>  (1) 
[-0.3277777777777778]

>  <Interactions>  (1) 
["V-A:ILE:369:CG2:3237, V-B:PRO:540:CA:9855, H-B:GLU:543:OE1:9881, V-B:TYR:539:CD2:9846, H-A:ARG:545:NE:4924, H-B:ALA:541:N:9863, V-B:ALA:541:CB:9864, H-A:ARG:545:NH1:4927, V-A:TYR:484:CE2:4346, V-B:TYR:539:CE2:9848, V-A:LEU:475:CD2:4259, H-A:ARG:545:NH2:4928, V-B:GLU:543:CG:9879, H-A:GLY:454:N:4050, V-A:ASP:366:CG:3213"]

$$$$
ZINC238746465
     RDKit          3D

 59 61  0  0  0  0  0  0  0  0999 V2000
  127.1420  125.9850   60.7410 C   0  0  0  0  0  0  0  0  0  0  0  0
  128.0770  125.4220   61.5310 C   0  0  0  0  0  0  0  0  0  0  0  0
  128.0080  124.0380   61.9750 C   0  0  0  0  0  0  0  0  0  0  0  0
  127.2030  123.1730   61.6330 O   0  0  0  0  0  0  0  0  0  0  0  0
  128.9950  123.8450   62.8700 O   0  0  0  0  0  0  0  0  0  0  0  0
  129.5790  125.0710   63.2900 C   0  0  2  0  0  0  0  0  0  0  0  0
  129.3490  126.0080   62.0950 C   0  0  2  0  0  0  0  0  0  0  0  0
  129.2920  127.5160   62.4380 C   0  0  0  0  0  0  0  0  0  0  0  0
  128.2340  127.7860   63.5200 C   0  0  2  0  0  0  0  0  0  0  0  0
  127.0710  128.4640   63.1080 O   0  0  0  0  0  0  0  0  0  0  0  0
  127.8710  129.1500   64.0340 C   0  0  2  0  0  0  0  0  0  0  0  0
  128.6200  130.3970   63.5340 C   0  0  0  0  0  0  0  0  0  0  0  0
  127.3480  129.2470   65.4870 C   0  0  0  0  0  0  0  0  0  0  0  0
  128.2580  128.6370   66.5470 C   0  0  0  0  0  0  0  0  0  0  0  0
  127.8120  128.0570   67.6780 C   0  0  0  0  0  0  0  0  0  0  0  0
  128.6190  127.4190   68.8210 C   0  0  1  0  0  0  0  0  0  0  0  0
  129.8230  128.3440   69.1530 C   0  0  0  0  0  0  0  0  0  0  0  0
  127.8480  127.2090   70.0220 O   0  0  0  0  0  0  0  0  0  0  0  0
  128.7210  126.6370   71.0930 O   0  0  0  0  0  0  0  0  0  0  0  0
  129.1950  126.0260   68.3850 C   0  0  0  0  0  0  0  0  0  0  0  0
  130.5090  125.9560   67.5620 C   0  0  0  0  0  0  0  0  0  0  0  0
  130.3890  125.5450   66.0980 C   0  0  0  0  0  0  0  0  0  0  0  0
  131.3800  125.3680   65.1910 C   0  0  0  0  0  0  0  0  0  0  0  0
  132.8670  125.5240   65.5000 C   0  0  0  0  0  0  0  0  0  0  0  0
  131.0490  124.8710   63.7800 C   0  0  2  0  0  0  0  0  0  0  0  0
  131.9800  125.4300   62.8470 O   0  0  0  0  0  0  0  0  0  0  0  0
  133.0730  124.7490   62.4260 C   0  0  0  0  0  0  0  0  0  0  0  0
  133.1400  124.6500   60.9090 C   0  0  0  0  0  0  0  0  0  0  0  0
  133.9430  124.2510   63.1420 O   0  0  0  0  0  0  0  0  0  0  0  0
  127.2421  127.0365   60.4338 H   0  0  0  0  0  0  0  0  0  0  0  0
  126.2785  125.3932   60.4032 H   0  0  0  0  0  0  0  0  0  0  0  0
  129.1297  125.5205   64.1878 H   0  0  0  0  0  0  0  0  0  0  0  0
  130.1835  126.0352   61.3788 H   0  0  0  0  0  0  0  0  0  0  0  0
  130.2765  127.8403   62.8063 H   0  0  0  0  0  0  0  0  0  0  0  0
  129.0215  128.0758   61.5305 H   0  0  0  0  0  0  0  0  0  0  0  0
  128.5258  126.8524   64.0232 H   0  0  0  0  0  0  0  0  0  0  0  0
  128.9721  130.9832   64.3956 H   0  0  0  0  0  0  0  0  0  0  0  0
  129.4817  130.0873   62.9244 H   0  0  0  0  0  0  0  0  0  0  0  0
  127.9418  131.0122   62.9244 H   0  0  0  0  0  0  0  0  0  0  0  0
  127.2101  130.3112   65.7286 H   0  0  0  0  0  0  0  0  0  0  0  0
  126.4148  128.6653   65.5147 H   0  0  0  0  0  0  0  0  0  0  0  0
  129.3444  128.6726   66.3781 H   0  0  0  0  0  0  0  0  0  0  0  0
  126.7191  128.0370   67.8010 H   0  0  0  0  0  0  0  0  0  0  0  0
  129.9314  128.4273   70.2445 H   0  0  0  0  0  0  0  0  0  0  0  0
  130.7421  127.9175   68.7248 H   0  0  0  0  0  0  0  0  0  0  0  0
  129.6477  129.3419   68.7248 H   0  0  0  0  0  0  0  0  0  0  0  0
  128.6450  125.7010   70.8940 H   0  0  0  0  0  0  0  0  0  0  0  0
  129.3656  125.4498   69.3064 H   0  0  0  0  0  0  0  0  0  0  0  0
  128.4364  125.6449   67.6855 H   0  0  0  0  0  0  0  0  0  0  0  0
  130.9712  126.9538   67.5896 H   0  0  0  0  0  0  0  0  0  0  0  0
  131.0997  125.1576   68.0350 H   0  0  0  0  0  0  0  0  0  0  0  0
  129.3668  125.3698   65.7315 H   0  0  0  0  0  0  0  0  0  0  0  0
  133.0154  125.5396   66.5898 H   0  0  0  0  0  0  0  0  0  0  0  0
  133.4222  124.6792   65.0664 H   0  0  0  0  0  0  0  0  0  0  0  0
  133.2348  126.4657   65.0664 H   0  0  0  0  0  0  0  0  0  0  0  0
  131.1458  123.7768   63.8376 H   0  0  0  0  0  0  0  0  0  0  0  0
  133.7356  123.7699   60.6249 H   0  0  0  0  0  0  0  0  0  0  0  0
  132.1226  124.5509   60.5027 H   0  0  0  0  0  0  0  0  0  0  0  0
  133.6102  125.5577   60.5027 H   0  0  0  0  0  0  0  0  0  0  0  0
  1  2  2  0
  2  3  1  0
  3  4  2  0
  3  5  1  0
  5  6  1  0
  6  7  1  0
  7  8  1  0
  8  9  1  0
  9 10  1  0
 10 11  1  0
 11 12  1  6
 11 13  1  0
 13 14  1  0
 14 15  2  0
 15 16  1  0
 16 17  1  0
 16 18  1  1
 18 19  1  0
 16 20  1  0
 20 21  1  0
 21 22  1  0
 22 23  2  0
 23 24  1  0
 23 25  1  0
 25 26  1  0
 26 27  1  0
 27 28  1  0
 27 29  2  0
  7  2  1  0
 11  9  1  0
 25  6  1  0
  1 30  1  0
  1 31  1  0
  6 32  1  1
  7 33  1  6
  8 34  1  0
  8 35  1  0
  9 36  1  1
 12 37  1  0
 12 38  1  0
 12 39  1  0
 13 40  1  0
 13 41  1  0
 14 42  1  0
 15 43  1  0
 17 44  1  0
 17 45  1  0
 17 46  1  0
 19 47  1  0
 20 48  1  0
 20 49  1  0
 21 50  1  0
 21 51  1  0
 22 52  1  0
 24 53  1  0
 24 54  1  0
 24 55  1  0
 25 56  1  1
 28 57  1  0
 28 58  1  0
 28 59  1  0
M  END
>  <Binding energies>  (1) 
[-4.84]

>  <Ligand effiencies>  (1) 
[-0.15125]

>  <Interactions>  (1) 
["V-A:GLU:543:CA:4904, V-B:GLU:543:C:9874, H-B:GLU:543:O:9875, V-A:GLU:543:C:4902, V-B:GLU:543:CB:9878, V-B:GLU:543:CG:9879, V-A:ASP:366:CG:3213, H-B:ALA:541:N:9863, V-A:GLU:543:CD:4908, V-B:GLU:543:CA:9876, V-B:HIS:456:CE1:9041, H-A:GLY:454:N:4050, V-A:HIS:456:CE1:4070, V-A:GLU:543:CG:4907, V-B:GLU:543:CD:9880, V-A:ARG:545:CD:4923, H-A:ARG:545:NH2:4928, V-A:ARG:545:CZ:4926, V-A:GLU:543:CB:4906, H-A:HIS:456:NE2:4071"]

$$$$
ZINC238746888
     RDKit          3D

 93 97  0  0  0  0  0  0  0  0999 V2000
  131.0040  127.3480   68.4160 C   0  0  0  0  0  0  0  0  0  0  0  0
  130.1930  126.3480   67.6090 C   0  0  0  0  0  0  0  0  0  0  0  0
  128.6980  126.6340   67.5890 C   0  0  0  0  0  0  0  0  0  0  0  0
  130.7890  125.3200   66.9670 C   0  0  0  0  0  0  0  0  0  0  0  0
  130.1310  124.2240   66.1400 C   0  0  0  0  0  0  0  0  0  0  0  0
  130.1620  124.4800   64.6070 C   0  0  2  0  0  0  0  0  0  0  0  0
  129.2580  123.4570   63.8570 C   0  0  0  0  0  0  0  0  0  0  0  0
  129.1890  123.5820   62.3020 C   0  0  1  0  0  0  0  0  0  0  0  0
  128.3480  122.3880   61.7380 C   0  0  0  0  0  0  0  0  0  0  0  0
  127.5540  122.7320   60.4690 C   0  0  2  0  0  0  0  0  0  0  0  0
  128.4630  122.9500   59.2460 C   0  0  0  0  0  0  0  0  0  0  0  0
  127.6360  123.1850   57.9820 C   0  0  0  0  0  0  0  0  0  0  0  0
  126.7710  124.4700   58.0590 C   0  0  0  0  0  0  0  0  0  0  0  0
  127.6850  125.6810   57.7600 C   0  0  0  0  0  0  0  0  0  0  0  0
  125.6500  124.3760   56.9890 C   0  0  0  0  0  0  0  0  0  0  0  0
  126.1320  124.7000   59.4820 C   0  0  0  0  0  0  0  0  0  0  0  0
  126.6120  123.9410   60.7770 C   0  0  1  0  0  0  0  0  0  0  0  0
  125.3960  123.4760   61.6270 C   0  0  0  0  0  0  0  0  0  0  0  0
  127.1960  124.9530   61.6270 O   0  0  0  0  0  0  0  0  0  0  0  0
  128.5430  124.9240   61.8690 C   0  0  0  0  0  0  0  0  0  0  0  0
  129.2150  126.1140   61.7900 C   0  0  0  0  0  0  0  0  0  0  0  0
  128.4650  127.3440   61.4330 C   0  0  0  0  0  0  0  0  0  0  0  0
  127.9850  127.4440   60.3030 O   0  0  0  0  0  0  0  0  0  0  0  0
  128.3620  128.4840   62.4090 C   0  0  0  0  0  0  0  0  0  0  0  0
  128.6580  129.7890   61.9920 C   0  0  0  0  0  0  0  0  0  0  0  0
  128.5500  130.8660   62.8710 C   0  0  0  0  0  0  0  0  0  0  0  0
  128.1310  130.6660   64.1900 C   0  0  0  0  0  0  0  0  0  0  0  0
  128.0460  131.6790   64.9640 O   0  0  0  0  0  0  0  0  0  0  0  0
  127.8150  129.3610   64.6210 C   0  0  0  0  0  0  0  0  0  0  0  0
  127.3880  129.0800   65.9010 O   0  0  0  0  0  0  0  0  0  0  0  0
  127.9280  128.2930   63.7290 C   0  0  0  0  0  0  0  0  0  0  0  0
  130.6830  126.1580   62.0380 C   0  0  0  0  0  0  0  0  0  0  0  0
  131.2910  127.2310   61.9930 O   0  0  0  0  0  0  0  0  0  0  0  0
  131.4530  124.8120   62.3450 C   0  0  2  0  0  0  0  0  0  0  0  0
  132.8500  124.8680   61.5980 C   0  0  0  0  0  0  0  0  0  0  0  0
  132.8660  125.4680   60.1870 C   0  0  0  0  0  0  0  0  0  0  0  0
  133.0330  124.8350   59.0040 C   0  0  0  0  0  0  0  0  0  0  0  0
  133.0130  125.6060   57.6950 C   0  0  0  0  0  0  0  0  0  0  0  0
  133.2630  123.3390   58.8330 C   0  0  0  0  0  0  0  0  0  0  0  0
  130.6560  123.5720   61.8210 C   0  0  0  0  0  0  0  0  0  0  0  0
  131.1440  122.6700   61.1340 O   0  0  0  0  0  0  0  0  0  0  0  0
  131.6020  124.6300   63.9480 C   0  0  0  0  0  0  0  0  0  0  0  0
  132.2930  125.8700   64.6010 C   0  0  0  0  0  0  0  0  0  0  0  0
  132.4320  123.3460   64.2730 C   0  0  0  0  0  0  0  0  0  0  0  0
  130.8528  127.1615   69.4895 H   0  0  0  0  0  0  0  0  0  0  0  0
  132.0707  127.2375   68.1714 H   0  0  0  0  0  0  0  0  0  0  0  0
  130.6756  128.3689   68.1714 H   0  0  0  0  0  0  0  0  0  0  0  0
  128.3245  126.7054   68.6212 H   0  0  0  0  0  0  0  0  0  0  0  0
  128.5133  127.5838   67.0657 H   0  0  0  0  0  0  0  0  0  0  0  0
  128.1758  125.8195   67.0657 H   0  0  0  0  0  0  0  0  0  0  0  0
  131.8845  125.2682   67.0521 H   0  0  0  0  0  0  0  0  0  0  0  0
  130.6535  123.2775   66.3427 H   0  0  0  0  0  0  0  0  0  0  0  0
  129.0718  124.1965   66.4355 H   0  0  0  0  0  0  0  0  0  0  0  0
  129.7394  125.4878   64.4817 H   0  0  0  0  0  0  0  0  0  0  0  0
  129.6301  122.4491   64.0931 H   0  0  0  0  0  0  0  0  0  0  0  0
  128.2365  123.6666   64.2070 H   0  0  0  0  0  0  0  0  0  0  0  0
  129.0343  121.5609   61.5038 H   0  0  0  0  0  0  0  0  0  0  0  0
  127.6136  122.1204   62.5120 H   0  0  0  0  0  0  0  0  0  0  0  0
  126.9271  121.8739   60.1850 H   0  0  0  0  0  0  0  0  0  0  0  0
  129.1026  123.8268   59.4253 H   0  0  0  0  0  0  0  0  0  0  0  0
  129.0759  122.0483   59.1005 H   0  0  0  0  0  0  0  0  0  0  0  0
  128.3207  123.2732   57.1256 H   0  0  0  0  0  0  0  0  0  0  0  0
  126.9512  122.3313   57.8713 H   0  0  0  0  0  0  0  0  0  0  0  0
  128.0225  126.1282   58.7066 H   0  0  0  0  0  0  0  0  0  0  0  0
  128.5582  125.3471   57.1803 H   0  0  0  0  0  0  0  0  0  0  0  0
  127.1244  126.4292   57.1803 H   0  0  0  0  0  0  0  0  0  0  0  0
  124.6730  124.2941   57.4878 H   0  0  0  0  0  0  0  0  0  0  0  0
  125.6663  125.2787   56.3606 H   0  0  0  0  0  0  0  0  0  0  0  0
  125.8164  123.4887   56.3606 H   0  0  0  0  0  0  0  0  0  0  0  0
  126.2533  125.7718   59.6978 H   0  0  0  0  0  0  0  0  0  0  0  0
  125.1273  124.2751   59.3406 H   0  0  0  0  0  0  0  0  0  0  0  0
  125.6388  123.5689   62.6958 H   0  0  0  0  0  0  0  0  0  0  0  0
  124.5236  124.1040   61.3933 H   0  0  0  0  0  0  0  0  0  0  0  0
  125.1652  122.4262   61.3933 H   0  0  0  0  0  0  0  0  0  0  0  0
  128.9805  129.9663   60.9554 H   0  0  0  0  0  0  0  0  0  0  0  0
  128.7962  131.8805   62.5243 H   0  0  0  0  0  0  0  0  0  0  0  0
  127.1410  129.8730   66.3850 H   0  0  0  0  0  0  0  0  0  0  0  0
  127.6709  127.2790   64.0690 H   0  0  0  0  0  0  0  0  0  0  0  0
  133.5339  125.4649   62.2193 H   0  0  0  0  0  0  0  0  0  0  0  0
  133.1416  123.8161   61.4624 H   0  0  0  0  0  0  0  0  0  0  0  0
  132.7227  126.5571   60.1297 H   0  0  0  0  0  0  0  0  0  0  0  0
  132.9850  126.6853   57.9056 H   0  0  0  0  0  0  0  0  0  0  0  0
  133.9176  125.3687   57.1159 H   0  0  0  0  0  0  0  0  0  0  0  0
  132.1219  125.3222   57.1159 H   0  0  0  0  0  0  0  0  0  0  0  0
  133.3361  122.8638   59.8224 H   0  0  0  0  0  0  0  0  0  0  0  0
  132.4218  122.8999   58.2766 H   0  0  0  0  0  0  0  0  0  0  0  0
  134.1972  123.1729   58.2766 H   0  0  0  0  0  0  0  0  0  0  0  0
  132.2442  125.7824   65.6964 H   0  0  0  0  0  0  0  0  0  0  0  0
  133.3452  125.9131   64.2831 H   0  0  0  0  0  0  0  0  0  0  0  0
  131.7761  126.7875   64.2831 H   0  0  0  0  0  0  0  0  0  0  0  0
  132.5096  123.2259   65.3637 H   0  0  0  0  0  0  0  0  0  0  0  0
  131.9310  122.4667   63.8420 H   0  0  0  0  0  0  0  0  0  0  0  0
  133.4395  123.4418   63.8420 H   0  0  0  0  0  0  0  0  0  0  0  0
  1  2  1  0
  2  3  1  0
  2  4  2  3
  4  5  1  0
  5  6  1  0
  6  7  1  0
  8  7  1  1
  8  9  1  0
  9 10  1  0
 10 11  1  0
 11 12  1  0
 12 13  1  0
 13 14  1  0
 13 15  1  0
 13 16  1  0
 16 17  1  0
 17 18  1  1
 17 19  1  0
 19 20  1  0
 20 21  2  0
 21 22  1  0
 22 23  2  0
 22 24  1  0
 24 25  2  0
 25 26  1  0
 26 27  2  0
 27 28  1  0
 27 29  1  0
 29 30  1  0
 29 31  2  0
 21 32  1  0
 32 33  2  0
 32 34  1  0
 34 35  1  6
 35 36  1  0
 36 37  2  3
 37 38  1  0
 37 39  1  0
 34 40  1  0
 40 41  2  0
 34 42  1  0
 42 43  1  0
 42 44  1  0
 42  6  1  0
 20  8  1  0
 31 24  1  0
 40  8  1  0
 17 10  1  0
  1 45  1  0
  1 46  1  0
  1 47  1  0
  3 48  1  0
  3 49  1  0
  3 50  1  0
  4 51  1  0
  5 52  1  0
  5 53  1  0
  6 54  1  1
  7 55  1  0
  7 56  1  0
  9 57  1  0
  9 58  1  0
 10 59  1  6
 11 60  1  0
 11 61  1  0
 12 62  1  0
 12 63  1  0
 14 64  1  0
 14 65  1  0
 14 66  1  0
 15 67  1  0
 15 68  1  0
 15 69  1  0
 16 70  1  0
 16 71  1  0
 18 72  1  0
 18 73  1  0
 18 74  1  0
 25 75  1  0
 26 76  1  0
 30 77  1  0
 31 78  1  0
 35 79  1  0
 35 80  1  0
 36 81  1  0
 38 82  1  0
 38 83  1  0
 38 84  1  0
 39 85  1  0
 39 86  1  0
 39 87  1  0
 43 88  1  0
 43 89  1  0
 43 90  1  0
 44 91  1  0
 44 92  1  0
 44 93  1  0
M  CHG  1  28  -1
M  END
>  <Binding energies>  (1) 
[-9.18]

>  <Ligand effiencies>  (1) 
[-0.204]

>  <Interactions>  (1) 
["V-A:ILE:369:CG2:3237, V-A:ASP:366:CA:3210, V-B:PRO:540:CA:9855, V-A:GLY:454:CA:4049, V-A:ILE:369:CB:3236, V-B:GLU:543:CB:9878, V-B:ALA:541:CB:9864, V-B:TYR:539:CE2:9848, V-A:TYR:484:CE2:4346, V-B:GLU:543:CG:9879, V-A:ASP:366:CG:3213, V-B:TYR:539:CZ:9849, V-B:TYR:531:CE2:9765, V-A:GLU:543:CD:4908, V-B:PRO:540:CB:9857, V-A:TYR:484:CZ:4347, H-B:TYR:484:OH:9319, V-A:ARG:545:CG:4922, V-B:PRO:540:N:9856, V-A:HIS:456:CE1:4070, V-A:ASP:366:C:3208, V-B:TYR:539:CD2:9846, V-A:GLU:543:CG:4907, V-B:GLU:543:CD:9880, V-A:ASP:366:CB:3212, V-A:LEU:475:CD2:4259, H-A:ARG:545:NH2:4928, V-A:ARG:545:CZ:4926, V-A:GLU:543:CB:4906, H-B:GLU:543:OE2:9882, V-B:PRO:540:C:9853, V-B:MET:535:CE:9807"]

$$$$
ZINC238746888-again1
     RDKit          3D

 93 97  0  0  0  0  0  0  0  0999 V2000
  131.0580  132.7620   56.4820 C   0  0  0  0  0  0  0  0  0  0  0  0
  129.7130  132.2170   56.9290 C   0  0  0  0  0  0  0  0  0  0  0  0
  128.7840  133.2670   57.5230 C   0  0  0  0  0  0  0  0  0  0  0  0
  129.4010  130.9110   56.7790 C   0  0  0  0  0  0  0  0  0  0  0  0
  128.1130  130.2040   57.1840 C   0  0  0  0  0  0  0  0  0  0  0  0
  128.2680  129.2620   58.4110 C   0  0  2  0  0  0  0  0  0  0  0  0
  127.4080  127.9750   58.2410 C   0  0  0  0  0  0  0  0  0  0  0  0
  127.4980  126.9230   59.3900 C   0  0  1  0  0  0  0  0  0  0  0  0
  126.4980  125.7570   59.0890 C   0  0  0  0  0  0  0  0  0  0  0  0
  126.9690  124.3880   59.6030 C   0  0  2  0  0  0  0  0  0  0  0  0
  126.9530  124.3010   61.1410 C   0  0  0  0  0  0  0  0  0  0  0  0
  127.3390  122.9000   61.6140 C   0  0  0  0  0  0  0  0  0  0  0  0
  128.7890  122.5130   61.2260 C   0  0  0  0  0  0  0  0  0  0  0  0
  129.7560  123.2020   62.2160 C   0  0  0  0  0  0  0  0  0  0  0  0
  128.9320  120.9720   61.3340 C   0  0  0  0  0  0  0  0  0  0  0  0
  129.1800  122.9860   59.7740 C   0  0  0  0  0  0  0  0  0  0  0  0
  128.3610  124.0630   58.9670 C   0  0  1  0  0  0  0  0  0  0  0  0
  128.1870  123.6250   57.4860 C   0  0  0  0  0  0  0  0  0  0  0  0
  129.2370  125.2070   58.8340 O   0  0  0  0  0  0  0  0  0  0  0  0
  128.9350  126.3520   59.5180 C   0  0  0  0  0  0  0  0  0  0  0  0
  129.9520  126.9640   60.2000 C   0  0  0  0  0  0  0  0  0  0  0  0
  131.3110  126.3600   60.1650 C   0  0  0  0  0  0  0  0  0  0  0  0
  131.9090  126.2820   59.0920 O   0  0  0  0  0  0  0  0  0  0  0  0
  131.9040  125.7560   61.4090 C   0  0  0  0  0  0  0  0  0  0  0  0
  131.3680  126.0150   62.6780 C   0  0  0  0  0  0  0  0  0  0  0  0
  131.9410  125.4650   63.8220 C   0  0  0  0  0  0  0  0  0  0  0  0
  133.0740  124.6560   63.7290 C   0  0  0  0  0  0  0  0  0  0  0  0
  133.5890  124.1420   64.8990 O   0  0  0  0  0  0  0  0  0  0  0  0
  133.6430  124.4010   62.4640 C   0  0  0  0  0  0  0  0  0  0  0  0
  134.6840  123.6730   62.3210 O   0  0  0  0  0  0  0  0  0  0  0  0
  133.0560  124.9590   61.3200 C   0  0  0  0  0  0  0  0  0  0  0  0
  129.6850  128.2100   60.9740 C   0  0  0  0  0  0  0  0  0  0  0  0
  130.5910  128.7590   61.6090 O   0  0  0  0  0  0  0  0  0  0  0  0
  128.2200  128.8040   60.9920 C   0  0  2  0  0  0  0  0  0  0  0  0
  127.9450  129.3710   62.4460 C   0  0  0  0  0  0  0  0  0  0  0  0
  128.3030  128.4740   63.6350 C   0  0  0  0  0  0  0  0  0  0  0  0
  128.3170  128.8350   64.9350 C   0  0  0  0  0  0  0  0  0  0  0  0
  128.6800  127.8460   66.0290 C   0  0  0  0  0  0  0  0  0  0  0  0
  127.9840  130.2330   65.4340 C   0  0  0  0  0  0  0  0  0  0  0  0
  127.1620  127.6950   60.6830 C   0  0  0  0  0  0  0  0  0  0  0  0
  126.1620  127.4790   61.3720 O   0  0  0  0  0  0  0  0  0  0  0  0
  128.0770  129.9320   59.8400 C   0  0  0  0  0  0  0  0  0  0  0  0
  129.1620  131.0430   59.9990 C   0  0  0  0  0  0  0  0  0  0  0  0
  126.6580  130.5890   59.8930 C   0  0  0  0  0  0  0  0  0  0  0  0
  131.6657  133.0082   57.3652 H   0  0  0  0  0  0  0  0  0  0  0  0
  131.5786  132.0039   55.8785 H   0  0  0  0  0  0  0  0  0  0  0  0
  130.9040  133.6687   55.8785 H   0  0  0  0  0  0  0  0  0  0  0  0
  128.8284  133.2168   58.6210 H   0  0  0  0  0  0  0  0  0  0  0  0
  129.0989  134.2665   57.1886 H   0  0  0  0  0  0  0  0  0  0  0  0
  127.7536  133.0762   57.1886 H   0  0  0  0  0  0  0  0  0  0  0  0
  130.1700  130.2816   56.3073 H   0  0  0  0  0  0  0  0  0  0  0  0
  127.3606  130.9685   57.4277 H   0  0  0  0  0  0  0  0  0  0  0  0
  127.8153  129.5729   56.3337 H   0  0  0  0  0  0  0  0  0  0  0  0
  129.3326  128.9850   58.4104 H   0  0  0  0  0  0  0  0  0  0  0  0
  126.3562  128.2847   58.1526 H   0  0  0  0  0  0  0  0  0  0  0  0
  127.8109  127.4701   57.3506 H   0  0  0  0  0  0  0  0  0  0  0  0
  125.5354  125.9940   59.5657 H   0  0  0  0  0  0  0  0  0  0  0  0
  126.4179  125.6781   57.9948 H   0  0  0  0  0  0  0  0  0  0  0  0
  126.2589  123.6108   59.2840 H   0  0  0  0  0  0  0  0  0  0  0  0
  127.6692  125.0289   61.5500 H   0  0  0  0  0  0  0  0  0  0  0  0
  125.9350  124.5222   61.4941 H   0  0  0  0  0  0  0  0  0  0  0  0
  127.2460  122.8609   62.7094 H   0  0  0  0  0  0  0  0  0  0  0  0
  126.6626  122.1861   61.1211 H   0  0  0  0  0  0  0  0  0  0  0  0
  129.4445  122.9800   63.2473 H   0  0  0  0  0  0  0  0  0  0  0  0
  130.7770  122.8267   62.0525 H   0  0  0  0  0  0  0  0  0  0  0  0
  129.7346  124.2896   62.0525 H   0  0  0  0  0  0  0  0  0  0  0  0
  128.9591  120.6797   62.3941 H   0  0  0  0  0  0  0  0  0  0  0  0
  128.0748  120.4889   60.8422 H   0  0  0  0  0  0  0  0  0  0  0  0
  129.8634  120.6548   60.8422 H   0  0  0  0  0  0  0  0  0  0  0  0
  130.2040  123.3804   59.8505 H   0  0  0  0  0  0  0  0  0  0  0  0
  128.9803  122.0768   59.1879 H   0  0  0  0  0  0  0  0  0  0  0  0
  127.7811  122.6032   57.4511 H   0  0  0  0  0  0  0  0  0  0  0  0
  127.4937  124.3125   56.9794 H   0  0  0  0  0  0  0  0  0  0  0  0
  129.1631  123.6493   56.9794 H   0  0  0  0  0  0  0  0  0  0  0  0
  130.4829  126.6614   62.7715 H   0  0  0  0  0  0  0  0  0  0  0  0
  131.4966  125.6701   64.8071 H   0  0  0  0  0  0  0  0  0  0  0  0
  132.9330  123.6500   65.3990 H   0  0  0  0  0  0  0  0  0  0  0  0
  133.5063  124.7689   60.3346 H   0  0  0  0  0  0  0  0  0  0  0  0
  128.5211  130.3022   62.5508 H   0  0  0  0  0  0  0  0  0  0  0  0
  126.8522  129.4846   62.5001 H   0  0  0  0  0  0  0  0  0  0  0  0
  128.5755  127.4331   63.4065 H   0  0  0  0  0  0  0  0  0  0  0  0
  128.5102  128.3085   67.0125 H   0  0  0  0  0  0  0  0  0  0  0  0
  128.0532  126.9471   65.9334 H   0  0  0  0  0  0  0  0  0  0  0  0
  129.7395  127.5661   65.9334 H   0  0  0  0  0  0  0  0  0  0  0  0
  127.9826  130.2390   66.5340 H   0  0  0  0  0  0  0  0  0  0  0  0
  128.7380  130.9435   65.0644 H   0  0  0  0  0  0  0  0  0  0  0  0
  126.9906  130.5273   65.0644 H   0  0  0  0  0  0  0  0  0  0  0  0
  129.3430  131.2284   61.0680 H   0  0  0  0  0  0  0  0  0  0  0  0
  130.0963  130.7142   59.5205 H   0  0  0  0  0  0  0  0  0  0  0  0
  128.8112  131.9693   59.5205 H   0  0  0  0  0  0  0  0  0  0  0  0
  126.3573  130.7282   60.9419 H   0  0  0  0  0  0  0  0  0  0  0  0
  126.6869  131.5654   59.3872 H   0  0  0  0  0  0  0  0  0  0  0  0
  125.9322  129.9353   59.3872 H   0  0  0  0  0  0  0  0  0  0  0  0
  1  2  1  0
  2  3  1  0
  2  4  2  3
  4  5  1  0
  5  6  1  0
  6  7  1  0
  8  7  1  6
  8  9  1  0
  9 10  1  0
 10 11  1  0
 11 12  1  0
 12 13  1  0
 13 14  1  0
 13 15  1  0
 13 16  1  0
 16 17  1  0
 17 18  1  6
 17 19  1  0
 19 20  1  0
 20 21  2  0
 21 22  1  0
 22 23  2  0
 22 24  1  0
 24 25  2  0
 25 26  1  0
 26 27  2  0
 27 28  1  0
 27 29  1  0
 29 30  1  0
 29 31  2  0
 21 32  1  0
 32 33  2  0
 32 34  1  0
 34 35  1  1
 35 36  1  0
 36 37  2  3
 37 38  1  0
 37 39  1  0
 34 40  1  0
 40 41  2  0
 34 42  1  0
 42 43  1  0
 42 44  1  0
 42  6  1  0
 20  8  1  0
 31 24  1  0
 40  8  1  0
 17 10  1  0
  1 45  1  0
  1 46  1  0
  1 47  1  0
  3 48  1  0
  3 49  1  0
  3 50  1  0
  4 51  1  0
  5 52  1  0
  5 53  1  0
  6 54  1  1
  7 55  1  0
  7 56  1  0
  9 57  1  0
  9 58  1  0
 10 59  1  6
 11 60  1  0
 11 61  1  0
 12 62  1  0
 12 63  1  0
 14 64  1  0
 14 65  1  0
 14 66  1  0
 15 67  1  0
 15 68  1  0
 15 69  1  0
 16 70  1  0
 16 71  1  0
 18 72  1  0
 18 73  1  0
 18 74  1  0
 25 75  1  0
 26 76  1  0
 28 77  1  0
 31 78  1  0
 35 79  1  0
 35 80  1  0
 36 81  1  0
 38 82  1  0
 38 83  1  0
 38 84  1  0
 39 85  1  0
 39 86  1  0
 39 87  1  0
 43 88  1  0
 43 89  1  0
 43 90  1  0
 44 91  1  0
 44 92  1  0
 44 93  1  0
M  CHG  1  30  -1
M  END
>  <Binding energies>  (1) 
[-8.18]

>  <Ligand effiencies>  (1) 
[-0.18177777777777776]

>  <Interactions>  (1) 
["V-B:PRO:540:CA:9855, V-A:ILE:538:CB:4862, V-B:ALA:541:CB:9864, V-B:TYR:539:CE2:9848, V-A:TYR:539:CE1:4875, V-B:TYR:539:C:9839, V-A:ASP:366:CG:3213, V-A:ILE:538:CG2:4863, V-A:TYR:539:CD1:4873, V-B:TYR:484:CE2:9317, V-B:TYR:539:CZ:9849, V-A:ILE:538:CA:4860, V-A:TYR:539:CA:4869, V-A:GLU:543:CD:4908, H-A:GLY:454:N:4050, V-B:TYR:484:CZ:9318, V-B:TYR:539:CD2:9846, V-A:GLU:543:CG:4907, V-A:MET:535:CE:4835, V-B:GLU:543:CD:9880, V-A:TYR:539:C:4867, V-A:ARG:545:CZ:4926, H-B:ARG:545:NH2:9900, V-A:PRO:540:N:4884, V-A:TYR:539:CG:4872, V-B:PRO:540:C:9853, V-B:ALA:541:CA:9862, V-B:TYR:539:CE1:9847, H-A:TYR:484:OH:4348"]

$$$$
ZINC238747501
     RDKit          3D

 81 85  0  0  0  0  0  0  0  0999 V2000
  128.9360  127.9850   69.1720 C   0  0  0  0  0  0  0  0  0  0  0  0
  129.3140  127.0280   68.0560 C   0  0  0  0  0  0  0  0  0  0  0  0
  129.0990  127.1890   66.7260 C   0  0  0  0  0  0  0  0  0  0  0  0
  128.3620  128.3760   66.1050 C   0  0  0  0  0  0  0  0  0  0  0  0
  129.5310  126.1600   65.7560 C   0  0  0  0  0  0  0  0  0  0  0  0
  129.7890  125.0010   66.0910 O   0  0  0  0  0  0  0  0  0  0  0  0
  129.6420  126.6150   64.4760 O   0  0  0  0  0  0  0  0  0  0  0  0
  129.4020  125.7870   63.3280 C   0  0  1  0  0  0  0  0  0  0  0  0
  128.2800  126.3990   62.4020 C   0  0  1  0  0  0  0  0  0  0  0  0
  128.8220  127.7720   61.8780 C   0  0  0  0  0  0  0  0  0  0  0  0
  129.1530  127.9440   60.3480 C   0  0  1  0  0  0  0  0  0  0  0  0
  127.8930  128.2500   59.7570 O   0  0  0  0  0  0  0  0  0  0  0  0
  130.1040  129.1340   60.0340 C   0  0  0  0  0  0  0  0  0  0  0  0
  130.5020  130.0430   60.9620 C   0  0  0  0  0  0  0  0  0  0  0  0
  131.5940  130.9930   60.7830 C   0  0  0  0  0  0  0  0  0  0  0  0
  132.0590  131.7570   61.6250 O   0  0  0  0  0  0  0  0  0  0  0  0
  132.2160  130.9800   59.5680 O   0  0  0  0  0  0  0  0  0  0  0  0
  131.4990  130.5270   58.4140 C   0  0  2  0  0  0  0  0  0  0  0  0
  130.6800  131.6930   57.8570 C   0  0  0  0  0  0  0  0  0  0  0  0
  129.5430  132.2850   58.4260 C   0  0  0  0  0  0  0  0  0  0  0  0
  129.1310  133.3120   57.5960 C   0  0  0  0  0  0  0  0  0  0  0  0
  129.9560  133.3970   56.5280 O   0  0  0  0  0  0  0  0  0  0  0  0
  130.8880  132.4250   56.6880 C   0  0  0  0  0  0  0  0  0  0  0  0
  130.7390  129.1570   58.6190 C   0  0  2  0  0  0  0  0  0  0  0  0
  129.7210  128.9740   57.4480 C   0  0  0  0  0  0  0  0  0  0  0  0
  131.7390  127.9790   58.6570 C   0  0  0  0  0  0  0  0  0  0  0  0
  131.1120  126.5970   58.9710 C   0  0  0  0  0  0  0  0  0  0  0  0
  129.7350  126.5830   59.7240 C   0  0  1  0  0  0  0  0  0  0  0  0
  129.3430  125.1880   60.3930 C   0  0  2  0  0  0  0  0  0  0  0  0
  129.0130  124.1980   59.2090 C   0  0  0  0  0  0  0  0  0  0  0  0
  128.0680  125.4120   61.2420 C   0  0  0  0  0  0  0  0  0  0  0  0
  126.9770  124.8840   61.0260 O   0  0  0  0  0  0  0  0  0  0  0  0
  130.3990  124.4860   61.3740 C   0  0  2  0  0  0  0  0  0  0  0  0
  129.9760  123.0080   61.7470 C   0  0  0  0  0  0  0  0  0  0  0  0
  128.7020  122.8930   62.5950 C   0  0  0  0  0  0  0  0  0  0  0  0
  127.6160  122.6190   62.0810 O   0  0  0  0  0  0  0  0  0  0  0  0
  128.9310  123.1120   63.9060 O   0  0  0  0  0  0  0  0  0  0  0  0
  129.5670  122.1260   64.7030 C   0  0  0  0  0  0  0  0  0  0  0  0
  130.7620  125.3240   62.6750 C   0  0  0  0  0  0  0  0  0  0  0  0
  131.7240  126.4990   62.3420 C   0  0  0  0  0  0  0  0  0  0  0  0
  131.4960  124.4610   63.7490 C   0  0  0  0  0  0  0  0  0  0  0  0
  129.1248  127.5070   70.1446 H   0  0  0  0  0  0  0  0  0  0  0  0
  129.5400  128.9007   69.0901 H   0  0  0  0  0  0  0  0  0  0  0  0
  127.8693  128.2408   69.0901 H   0  0  0  0  0  0  0  0  0  0  0  0
  129.8192  126.0993   68.3598 H   0  0  0  0  0  0  0  0  0  0  0  0
  127.9631  129.0185   66.9038 H   0  0  0  0  0  0  0  0  0  0  0  0
  129.0594  128.9555   65.4822 H   0  0  0  0  0  0  0  0  0  0  0  0
  127.5333  128.0080   65.4822 H   0  0  0  0  0  0  0  0  0  0  0  0
  128.9472  124.8275   63.6152 H   0  0  0  0  0  0  0  0  0  0  0  0
  127.3248  126.5581   62.9239 H   0  0  0  0  0  0  0  0  0  0  0  0
  128.0660  128.5307   62.1287 H   0  0  0  0  0  0  0  0  0  0  0  0
  129.8036  127.8645   62.3658 H   0  0  0  0  0  0  0  0  0  0  0  0
  127.2640  127.5710   60.0110 H   0  0  0  0  0  0  0  0  0  0  0  0
  129.9605  130.0640   61.9193 H   0  0  0  0  0  0  0  0  0  0  0  0
  132.2096  130.2357   57.6265 H   0  0  0  0  0  0  0  0  0  0  0  0
  129.0623  131.9847   59.3687 H   0  0  0  0  0  0  0  0  0  0  0  0
  128.2624  133.9621   57.7775 H   0  0  0  0  0  0  0  0  0  0  0  0
  131.7093  132.2365   55.9809 H   0  0  0  0  0  0  0  0  0  0  0  0
  128.7171  128.7935   57.8598 H   0  0  0  0  0  0  0  0  0  0  0  0
  129.7057  129.8838   56.8299 H   0  0  0  0  0  0  0  0  0  0  0  0
  130.0235  128.1158   56.8299 H   0  0  0  0  0  0  0  0  0  0  0  0
  132.2293  127.9159   57.6743 H   0  0  0  0  0  0  0  0  0  0  0  0
  132.4362  128.1943   59.4802 H   0  0  0  0  0  0  0  0  0  0  0  0
  130.9700  126.0739   58.0138 H   0  0  0  0  0  0  0  0  0  0  0  0
  131.8178  126.1193   59.6664 H   0  0  0  0  0  0  0  0  0  0  0  0
  129.0372  126.6293   58.8749 H   0  0  0  0  0  0  0  0  0  0  0  0
  128.6903  123.2299   59.6197 H   0  0  0  0  0  0  0  0  0  0  0  0
  128.2073  124.6211   58.5911 H   0  0  0  0  0  0  0  0  0  0  0  0
  129.9114  124.0530   58.5911 H   0  0  0  0  0  0  0  0  0  0  0  0
  131.3274  124.4451   60.7854 H   0  0  0  0  0  0  0  0  0  0  0  0
  129.8145  122.4527   60.8113 H   0  0  0  0  0  0  0  0  0  0  0  0
  130.7923  122.6001   62.3612 H   0  0  0  0  0  0  0  0  0  0  0  0
  129.4155  122.3608   65.7669 H   0  0  0  0  0  0  0  0  0  0  0  0
  129.1346  121.1394   64.4801 H   0  0  0  0  0  0  0  0  0  0  0  0
  130.6441  122.1131   64.4801 H   0  0  0  0  0  0  0  0  0  0  0  0
  132.0916  126.9480   63.2765 H   0  0  0  0  0  0  0  0  0  0  0  0
  132.5755  126.1212   61.7570 H   0  0  0  0  0  0  0  0  0  0  0  0
  131.1856  127.2592   61.7570 H   0  0  0  0  0  0  0  0  0  0  0  0
  131.2061  124.8018   64.7539 H   0  0  0  0  0  0  0  0  0  0  0  0
  131.2154  123.4047   63.6249 H   0  0  0  0  0  0  0  0  0  0  0  0
  132.5837  124.5684   63.6249 H   0  0  0  0  0  0  0  0  0  0  0  0
  1  2  1  0
  2  3  2  0
  3  4  1  0
  3  5  1  0
  5  6  2  0
  5  7  1  0
  7  8  1  0
  8  9  1  0
  9 10  1  0
 10 11  1  0
 11 12  1  6
 11 13  1  0
 13 14  2  0
 14 15  1  0
 15 16  2  0
 15 17  1  0
 17 18  1  0
 18 19  1  0
 19 20  1  0
 20 21  2  0
 21 22  1  0
 22 23  1  0
 18 24  1  0
 24 25  1  6
 24 26  1  0
 26 27  1  0
 27 28  1  0
 28 29  1  0
 29 30  1  6
 29 31  1  0
 31 32  2  0
 29 33  1  0
 33 34  1  0
 34 35  1  0
 35 36  2  0
 35 37  1  0
 37 38  1  0
 33 39  1  0
 39 40  1  0
 39 41  1  0
 39  8  1  0
 31  9  1  0
 28 11  1  0
 24 13  1  0
 23 19  2  0
  1 42  1  0
  1 43  1  0
  1 44  1  0
  2 45  1  0
  4 46  1  0
  4 47  1  0
  4 48  1  0
  8 49  1  1
  9 50  1  1
 10 51  1  0
 10 52  1  0
 12 53  1  0
 14 54  1  0
 18 55  1  6
 20 56  1  0
 21 57  1  0
 23 58  1  0
 25 59  1  0
 25 60  1  0
 25 61  1  0
 26 62  1  0
 26 63  1  0
 27 64  1  0
 27 65  1  0
 28 66  1  6
 30 67  1  0
 30 68  1  0
 30 69  1  0
 33 70  1  6
 34 71  1  0
 34 72  1  0
 38 73  1  0
 38 74  1  0
 38 75  1  0
 40 76  1  0
 40 77  1  0
 40 78  1  0
 41 79  1  0
 41 80  1  0
 41 81  1  0
M  END
>  <Binding energies>  (1) 
[-8.05]

>  <Ligand effiencies>  (1) 
[-0.19166666666666668]

>  <Interactions>  (1) 
["H-A:ALA:541:N:4891, V-B:GLU:543:CB:9878, V-A:ILE:538:CB:4862, V-B:ALA:541:CB:9864, V-B:TYR:539:CE2:9848, V-A:TYR:484:CE2:4346, V-B:GLU:543:CG:9879, V-A:ASP:366:CG:3213, V-A:TYR:539:CD1:4873, H-B:ALA:541:N:9863, V-A:TYR:539:CA:4869, V-A:GLU:543:CD:4908, V-B:HIS:456:CE1:9041, V-A:HIS:456:CE1:4070, V-A:GLU:543:CG:4907, V-B:GLU:543:CD:9880, V-A:TYR:539:C:4867, V-A:ASP:366:CB:3212, V-A:LEU:475:CD2:4259, V-A:ARG:545:CZ:4926, V-A:GLU:543:CB:4906, V-A:PRO:540:N:4884, V-A:TYR:539:CG:4872, H-A:TYR:539:N:4870, V-A:PRO:540:CA:4883, V-A:TYR:539:CE1:4875"]

$$$$
ZINC238749649
     RDKit          3D

 80 84  0  0  0  0  0  0  0  0999 V2000
  127.6480  122.5570   61.2500 C   0  0  0  0  0  0  0  0  0  0  0  0
  128.6390  122.0820   60.1550 C   0  0  2  0  0  0  0  0  0  0  0  0
  129.8170  121.3460   60.8730 C   0  0  0  0  0  0  0  0  0  0  0  0
  131.1840  122.0720   61.1340 C   0  0  0  0  0  0  0  0  0  0  0  0
  131.1650  122.5750   62.5970 C   0  0  0  0  0  0  0  0  0  0  0  0
  132.3390  121.0640   60.9120 C   0  0  0  0  0  0  0  0  0  0  0  0
  131.4050  123.2880   60.1930 C   0  0  0  0  0  0  0  0  0  0  0  0
  130.1280  124.1210   59.9220 C   0  0  1  0  0  0  0  0  0  0  0  0
  130.3270  125.5500   59.3550 C   0  0  0  0  0  0  0  0  0  0  0  0
  131.4720  126.2590   59.4560 C   0  0  0  0  0  0  0  0  0  0  0  0
  131.5620  127.6520   59.0760 C   0  0  0  0  0  0  0  0  0  0  0  0
  130.4810  128.4570   58.9160 C   0  0  0  0  0  0  0  0  0  0  0  0
  129.0640  127.7990   59.1320 C   0  0  1  0  0  0  0  0  0  0  0  0
  128.7900  127.8670   60.6710 C   0  0  0  0  0  0  0  0  0  0  0  0
  127.9010  128.6200   58.4450 C   0  0  2  0  0  0  0  0  0  0  0  0
  127.6330  128.3180   57.0870 O   0  0  0  0  0  0  0  0  0  0  0  0
  128.0860  130.1380   58.5620 C   0  0  0  0  0  0  0  0  0  0  0  0
  129.4180  130.5780   57.9080 C   0  0  1  0  0  0  0  0  0  0  0  0
  129.4870  132.1190   57.5270 C   0  0  0  0  0  0  0  0  0  0  0  0
  129.3830  133.0590   58.7610 C   0  0  0  0  0  0  0  0  0  0  0  0
  128.3500  132.4340   56.5100 C   0  0  0  0  0  0  0  0  0  0  0  0
  130.8400  132.3730   56.7710 C   0  0  1  0  0  0  0  0  0  0  0  0
  131.0590  133.7340   56.4390 O   0  0  0  0  0  0  0  0  0  0  0  0
  132.0760  131.8330   57.5170 C   0  0  0  0  0  0  0  0  0  0  0  0
  131.9250  130.3520   57.9100 C   0  0  0  0  0  0  0  0  0  0  0  0
  130.6380  130.0070   58.7300 C   0  0  2  0  0  0  0  0  0  0  0  0
  130.7900  130.6020   60.1660 C   0  0  0  0  0  0  0  0  0  0  0  0
  129.1300  126.2490   58.6530 C   0  0  1  0  0  0  0  0  0  0  0  0
  129.4420  126.1080   57.1200 C   0  0  0  0  0  0  0  0  0  0  0  0
  127.8170  125.4670   58.9770 C   0  0  0  0  0  0  0  0  0  0  0  0
  127.8880  123.9860   58.5760 C   0  0  0  0  0  0  0  0  0  0  0  0
  129.0950  123.2210   59.1790 C   0  0  2  0  0  0  0  0  0  0  0  0
  128.0739  122.3529   62.2435 H   0  0  0  0  0  0  0  0  0  0  0  0
  127.4719  123.6374   61.1415 H   0  0  0  0  0  0  0  0  0  0  0  0
  126.6955  122.0176   61.1415 H   0  0  0  0  0  0  0  0  0  0  0  0
  128.1322  121.3796   59.4770 H   0  0  0  0  0  0  0  0  0  0  0  0
  129.4368  121.0321   61.8563 H   0  0  0  0  0  0  0  0  0  0  0  0
  130.0920  120.5652   60.1486 H   0  0  0  0  0  0  0  0  0  0  0  0
  131.1975  121.7142   63.2811 H   0  0  0  0  0  0  0  0  0  0  0  0
  132.0395  123.2181   62.7750 H   0  0  0  0  0  0  0  0  0  0  0  0
  130.2445  123.1503   62.7750 H   0  0  0  0  0  0  0  0  0  0  0  0
  132.7244  120.7277   61.8858 H   0  0  0  0  0  0  0  0  0  0  0  0
  131.9659  120.1976   60.3463 H   0  0  0  0  0  0  0  0  0  0  0  0
  133.1470  121.5509   60.3463 H   0  0  0  0  0  0  0  0  0  0  0  0
  132.1561  123.9475   60.6521 H   0  0  0  0  0  0  0  0  0  0  0  0
  131.7297  122.8825   59.2234 H   0  0  0  0  0  0  0  0  0  0  0  0
  129.7041  124.4037   60.8969 H   0  0  0  0  0  0  0  0  0  0  0  0
  132.3716  125.7576   59.8424 H   0  0  0  0  0  0  0  0  0  0  0  0
  132.5604  128.0820   58.9077 H   0  0  0  0  0  0  0  0  0  0  0  0
  129.7158  127.6372   61.2188 H   0  0  0  0  0  0  0  0  0  0  0  0
  128.4471  128.8775   60.9381 H   0  0  0  0  0  0  0  0  0  0  0  0
  128.0144  127.1341   60.9381 H   0  0  0  0  0  0  0  0  0  0  0  0
  127.0310  128.2846   59.0287 H   0  0  0  0  0  0  0  0  0  0  0  0
  126.8600  128.8160   56.8130 H   0  0  0  0  0  0  0  0  0  0  0  0
  127.2506  130.6438   58.0557 H   0  0  0  0  0  0  0  0  0  0  0  0
  128.1076  130.4109   59.6274 H   0  0  0  0  0  0  0  0  0  0  0  0
  129.4805  130.1190   56.9103 H   0  0  0  0  0  0  0  0  0  0  0  0
  129.4490  132.4625   59.6829 H   0  0  0  0  0  0  0  0  0  0  0  0
  130.2059  133.7885   58.7366 H   0  0  0  0  0  0  0  0  0  0  0  0
  128.4205  133.5910   58.7366 H   0  0  0  0  0  0  0  0  0  0  0  0
  127.4298  132.6889   57.0561 H   0  0  0  0  0  0  0  0  0  0  0  0
  128.6484  133.2833   55.8778 H   0  0  0  0  0  0  0  0  0  0  0  0
  128.1688  131.5522   55.8778 H   0  0  0  0  0  0  0  0  0  0  0  0
  130.7190  131.8020   55.8386 H   0  0  0  0  0  0  0  0  0  0  0  0
  131.9400  133.9800   56.7300 H   0  0  0  0  0  0  0  0  0  0  0  0
  132.9556  131.9373   56.8647 H   0  0  0  0  0  0  0  0  0  0  0  0
  132.1891  132.4155   58.4432 H   0  0  0  0  0  0  0  0  0  0  0  0
  131.9099  129.7549   56.9863 H   0  0  0  0  0  0  0  0  0  0  0  0
  132.7761  130.1231   58.5682 H   0  0  0  0  0  0  0  0  0  0  0  0
  130.5897  129.8178   60.9109 H   0  0  0  0  0  0  0  0  0  0  0  0
  131.8139  130.9813   60.2992 H   0  0  0  0  0  0  0  0  0  0  0  0
  130.0735  131.4259   60.2992 H   0  0  0  0  0  0  0  0  0  0  0  0
  130.4372  125.6583   56.9882 H   0  0  0  0  0  0  0  0  0  0  0  0
  128.6838  125.4651   56.6491 H   0  0  0  0  0  0  0  0  0  0  0  0
  129.4235  127.1019   56.6491 H   0  0  0  0  0  0  0  0  0  0  0  0
  127.6298  125.5289   60.0592 H   0  0  0  0  0  0  0  0  0  0  0  0
  127.0062  125.9280   58.3938 H   0  0  0  0  0  0  0  0  0  0  0  0
  126.9641  123.4929   58.9125 H   0  0  0  0  0  0  0  0  0  0  0  0
  128.0114  123.9601   57.4833 H   0  0  0  0  0  0  0  0  0  0  0  0
  129.5983  122.7946   58.2987 H   0  0  0  0  0  0  0  0  0  0  0  0
  1  2  1  0
  2  3  1  0
  3  4  1  0
  4  5  1  0
  4  6  1  0
  4  7  1  0
  7  8  1  0
  8  9  1  0
  9 10  2  0
 10 11  1  0
 11 12  2  0
 12 13  1  0
 13 14  1  1
 13 15  1  0
 15 16  1  0
 15 17  1  0
 17 18  1  0
 18 19  1  0
 19 20  1  0
 19 21  1  0
 19 22  1  0
 22 23  1  0
 22 24  1  0
 24 25  1  0
 25 26  1  0
 26 27  1  1
 13 28  1  0
 28 29  1  6
 28 30  1  0
 30 31  1  0
 31 32  1  0
 32  2  1  0
 32  8  1  0
 28  9  1  0
 26 12  1  0
 26 18  1  0
  1 33  1  0
  1 34  1  0
  1 35  1  0
  2 36  1  6
  3 37  1  0
  3 38  1  0
  5 39  1  0
  5 40  1  0
  5 41  1  0
  6 42  1  0
  6 43  1  0
  6 44  1  0
  7 45  1  0
  7 46  1  0
  8 47  1  1
 10 48  1  0
 11 49  1  0
 14 50  1  0
 14 51  1  0
 14 52  1  0
 15 53  1  1
 16 54  1  0
 17 55  1  0
 17 56  1  0
 18 57  1  6
 20 58  1  0
 20 59  1  0
 20 60  1  0
 21 61  1  0
 21 62  1  0
 21 63  1  0
 22 64  1  6
 23 65  1  0
 24 66  1  0
 24 67  1  0
 25 68  1  0
 25 69  1  0
 27 70  1  0
 27 71  1  0
 27 72  1  0
 29 73  1  0
 29 74  1  0
 29 75  1  0
 30 76  1  0
 30 77  1  0
 31 78  1  0
 31 79  1  0
 32 80  1  6
M  END
>  <Binding energies>  (1) 
[-9.37]

>  <Ligand effiencies>  (1) 
[-0.27558823529411763]

>  <Interactions>  (1) 
["V-B:PRO:540:CA:9855, V-B:TYR:539:CE2:9848, V-B:TYR:539:C:9839, V-A:ASP:366:CG:3213, V-A:LEU:363:CD1:3189, V-A:TYR:539:CD1:4873, V-B:TYR:539:CZ:9849, V-A:TYR:539:CZ:4877, V-B:PRO:540:N:9856, V-B:TYR:539:CD2:9846, V-A:MET:535:CE:4835, V-A:TYR:539:C:4867, H-B:TYR:531:OH:9767, V-A:ASP:366:CB:3212, V-A:LEU:475:CD2:4259, V-A:PRO:540:N:4884, H-A:TYR:539:N:4870, V-A:PRO:540:CB:4885, V-A:PRO:540:CA:4883, V-B:PRO:540:C:9853, V-A:TYR:539:CE1:4875"]

$$$$
ZINC238754715-again1
     RDKit          3D

 34 36  0  0  0  0  0  0  0  0999 V2000
  129.0690  129.4720   68.7820 O   0  0  0  0  0  0  0  0  0  0  0  0
  129.2120  128.3190   69.1980 C   0  0  0  0  0  0  0  0  0  0  0  0
  129.3510  127.2300   68.2240 C   0  0  0  0  0  0  0  0  0  0  0  0
  129.4300  127.2770   66.8870 C   0  0  0  0  0  0  0  0  0  0  0  0
  129.5180  125.8560   66.4000 C   0  0  1  0  0  0  0  0  0  0  0  0
  130.7760  125.5640   65.5760 C   0  0  0  0  0  0  0  0  0  0  0  0
  130.6800  125.5480   64.1810 C   0  0  0  0  0  0  0  0  0  0  0  0
  131.8070  125.3070   63.3960 C   0  0  0  0  0  0  0  0  0  0  0  0
  133.0470  125.0880   63.9950 C   0  0  0  0  0  0  0  0  0  0  0  0
  134.1410  124.8540   63.2000 O   0  0  0  0  0  0  0  0  0  0  0  0
  133.1590  125.1110   65.3910 C   0  0  0  0  0  0  0  0  0  0  0  0
  134.3660  124.9050   66.0090 O   0  0  0  0  0  0  0  0  0  0  0  0
  132.0280  125.3520   66.1730 C   0  0  0  0  0  0  0  0  0  0  0  0
  129.4540  125.0980   67.7320 C   0  0  0  0  0  0  0  0  0  0  0  0
  129.5090  123.8850   67.9280 O   0  0  0  0  0  0  0  0  0  0  0  0
  129.3440  125.9820   68.7350 O   0  0  0  0  0  0  0  0  0  0  0  0
  129.1520  128.0220   70.6690 C   0  0  0  0  0  0  0  0  0  0  0  0
  128.0550  127.3570   71.2350 C   0  0  0  0  0  0  0  0  0  0  0  0
  128.0340  127.0540   72.5920 C   0  0  0  0  0  0  0  0  0  0  0  0
  129.1220  127.3980   73.3990 C   0  0  0  0  0  0  0  0  0  0  0  0
  129.1030  127.1210   74.6400 O   0  0  0  0  0  0  0  0  0  0  0  0
  130.2310  128.0380   72.8430 C   0  0  0  0  0  0  0  0  0  0  0  0
  130.2480  128.3400   71.4830 C   0  0  0  0  0  0  0  0  0  0  0  0
  129.4304  128.1832   66.2634 H   0  0  0  0  0  0  0  0  0  0  0  0
  128.7308  125.5726   65.6858 H   0  0  0  0  0  0  0  0  0  0  0  0
  129.7076  125.7270   63.6990 H   0  0  0  0  0  0  0  0  0  0  0  0
  131.7175  125.2896   62.2998 H   0  0  0  0  0  0  0  0  0  0  0  0
  134.4240  125.6340   62.7160 H   0  0  0  0  0  0  0  0  0  0  0  0
  134.2980  124.3540   66.7920 H   0  0  0  0  0  0  0  0  0  0  0  0
  132.1193  125.3760   67.2689 H   0  0  0  0  0  0  0  0  0  0  0  0
  127.2032  127.0724   70.5998 H   0  0  0  0  0  0  0  0  0  0  0  0
  127.1627  126.5445   73.0294 H   0  0  0  0  0  0  0  0  0  0  0  0
  131.0897  128.3033   73.4773 H   0  0  0  0  0  0  0  0  0  0  0  0
  131.1287  128.8320   71.0444 H   0  0  0  0  0  0  0  0  0  0  0  0
  1  2  2  0
  2  3  1  0
  3  4  2  0
  4  5  1  0
  5  6  1  0
  6  7  2  0
  7  8  1  0
  8  9  2  0
  9 10  1  0
  9 11  1  0
 11 12  1  0
 11 13  2  0
  5 14  1  0
 14 15  2  0
 14 16  1  0
  2 17  1  0
 17 18  2  0
 18 19  1  0
 19 20  2  0
 20 21  1  0
 20 22  1  0
 22 23  2  0
 16  3  1  0
 23 17  1  0
 13  6  1  0
  4 24  1  0
  5 25  1  6
  7 26  1  0
  8 27  1  0
 10 28  1  0
 12 29  1  0
 13 30  1  0
 18 31  1  0
 19 32  1  0
 22 33  1  0
 23 34  1  0
M  CHG  1  21  -1
M  END
>  <Binding energies>  (1) 
[-7.42]

>  <Ligand effiencies>  (1) 
[-0.2968]

>  <Interactions>  (1) 
["V-B:GLU:543:C:9874, V-B:HIS:456:CD2:9039, V-A:GLU:543:C:4902, V-B:GLU:543:CB:9878, H-B:LYS:547:NZ:9923, H-A:ARG:545:NH1:4927, V-A:TYR:484:CE2:4346, V-B:GLU:543:CG:9879, V-A:GLY:544:C:4912, V-B:LYS:547:CE:9922, H-A:ILE:455:O:4053, V-A:GLU:543:CD:4908, V-A:TYR:484:CZ:4347, V-B:HIS:456:CE1:9041, V-B:GLU:543:CA:9876, H-A:GLY:454:N:4050, V-A:HIS:456:CE1:4070, V-A:GLU:543:CG:4907, V-B:GLU:543:CD:9880, V-A:ARG:545:CD:4923, H-A:ARG:545:NH2:4928, V-A:ARG:545:CZ:4926, V-A:GLU:543:CB:4906, H-A:ASP:366:OD1:3214, H-A:ARG:545:NE:4924, H-A:TYR:484:OH:4348"]

$$$$
ZINC238756532
     RDKit          3D

 43 45  0  0  0  0  0  0  0  0999 V2000
  132.1040  121.4890   61.0360 C   0  0  0  0  0  0  0  0  0  0  0  0
  131.7730  122.9960   61.1690 C   0  0  0  0  0  0  0  0  0  0  0  0
  133.0410  123.7340   61.6550 C   0  0  0  0  0  0  0  0  0  0  0  0
  130.5840  123.2120   62.1240 C   0  0  0  0  0  0  0  0  0  0  0  0
  129.3080  123.0020   61.2900 C   0  0  1  0  0  0  0  0  0  0  0  0
  128.0400  123.7410   61.8270 C   0  0  2  0  0  0  0  0  0  0  0  0
  127.5910  123.1100   63.0130 O   0  0  0  0  0  0  0  0  0  0  0  0
  126.9690  123.7970   60.7280 C   0  0  0  0  0  0  0  0  0  0  0  0
  125.4920  123.5750   61.0330 C   0  0  0  0  0  0  0  0  0  0  0  0
  125.3620  122.9210   62.2790 O   0  0  0  0  0  0  0  0  0  0  0  0
  127.3810  124.1220   59.4890 C   0  0  0  0  0  0  0  0  0  0  0  0
  126.8530  124.2860   58.0830 C   0  0  1  0  0  0  0  0  0  0  0  0
  126.2600  125.5170   57.7160 O   0  0  0  0  0  0  0  0  0  0  0  0
  128.3260  124.0430   57.6640 C   0  0  1  0  0  0  0  0  0  0  0  0
  128.8430  124.7970   56.5810 O   0  0  0  0  0  0  0  0  0  0  0  0
  128.8160  124.3970   59.0970 C   0  0  1  0  0  0  0  0  0  0  0  0
  129.3150  125.8530   59.2910 C   0  0  0  0  0  0  0  0  0  0  0  0
  129.7160  123.3190   59.8120 C   0  0  1  0  0  0  0  0  0  0  0  0
  131.2450  123.5600   59.8350 C   0  0  0  0  0  0  0  0  0  0  0  0
  132.2015  121.0452   62.0378 H   0  0  0  0  0  0  0  0  0  0  0  0
  131.2956  120.9830   60.4879 H   0  0  0  0  0  0  0  0  0  0  0  0
  133.0501  121.3684   60.4879 H   0  0  0  0  0  0  0  0  0  0  0  0
  133.0600  123.7450   62.7548 H   0  0  0  0  0  0  0  0  0  0  0  0
  133.9345  123.2149   61.2781 H   0  0  0  0  0  0  0  0  0  0  0  0
  133.0310  124.7674   61.2781 H   0  0  0  0  0  0  0  0  0  0  0  0
  130.6225  122.4852   62.9488 H   0  0  0  0  0  0  0  0  0  0  0  0
  130.6079  124.2187   62.5667 H   0  0  0  0  0  0  0  0  0  0  0  0
  128.9519  121.9639   61.3647 H   0  0  0  0  0  0  0  0  0  0  0  0
  128.2797  124.7821   62.0891 H   0  0  0  0  0  0  0  0  0  0  0  0
  126.8900  123.6450   63.3950 H   0  0  0  0  0  0  0  0  0  0  0  0
  124.9757  124.5455   61.0725 H   0  0  0  0  0  0  0  0  0  0  0  0
  125.0438  122.9535   60.2438 H   0  0  0  0  0  0  0  0  0  0  0  0
  125.4860  123.5690   62.9760 H   0  0  0  0  0  0  0  0  0  0  0  0
  126.0042  123.7028   57.6963 H   0  0  0  0  0  0  0  0  0  0  0  0
  126.8330  125.9560   57.0840 H   0  0  0  0  0  0  0  0  0  0  0  0
  128.6099  123.0799   57.2147 H   0  0  0  0  0  0  0  0  0  0  0  0
  129.7960  124.6810   56.5530 H   0  0  0  0  0  0  0  0  0  0  0  0
  129.3909  126.0744   60.3658 H   0  0  0  0  0  0  0  0  0  0  0  0
  130.3036  125.9673   58.8224 H   0  0  0  0  0  0  0  0  0  0  0  0
  128.6043  126.5497   58.8224 H   0  0  0  0  0  0  0  0  0  0  0  0
  129.5088  122.4724   59.1410 H   0  0  0  0  0  0  0  0  0  0  0  0
  131.7216  123.0404   58.9907 H   0  0  0  0  0  0  0  0  0  0  0  0
  131.4736  124.6323   59.7455 H   0  0  0  0  0  0  0  0  0  0  0  0
  1  2  1  0
  2  3  1  0
  2  4  1  0
  4  5  1  0
  5  6  1  0
  6  7  1  0
  6  8  1  0
  8  9  1  0
  9 10  1  0
  8 11  2  0
 11 12  1  0
 12 13  1  0
 12 14  1  0
 14 15  1  0
 14 16  1  0
 16 17  1  6
 16 18  1  0
 18 19  1  0
 19  2  1  0
 18  5  1  0
 16 11  1  0
  1 20  1  0
  1 21  1  0
  1 22  1  0
  3 23  1  0
  3 24  1  0
  3 25  1  0
  4 26  1  0
  4 27  1  0
  5 28  1  6
  6 29  1  1
  7 30  1  0
  9 31  1  0
  9 32  1  0
 10 33  1  0
 12 34  1  6
 13 35  1  0
 14 36  1  6
 15 37  1  0
 17 38  1  0
 17 39  1  0
 17 40  1  0
 18 41  1  6
 19 42  1  0
 19 43  1  0
M  END
>  <Binding energies>  (1) 
[-5.7]

>  <Ligand effiencies>  (1) 
[-0.24782608695652175]

>  <Interactions>  (1) 
["V-B:PRO:540:CA:9855, V-B:TYR:539:CZ:9849, H-B:GLU:543:OE1:9881, H-B:TYR:539:OH:9850, V-B:TYR:539:CD2:9846, H-B:ALA:541:N:9863, V-B:TYR:539:CE2:9848, V-B:PRO:540:CB:9857, H-B:TYR:531:OH:9767, V-A:LEU:475:CD2:4259, H-B:ALA:541:O:9861"]

$$$$
ZINC238761305
     RDKit          3D

 68 70  0  0  0  0  0  0  0  0999 V2000
  129.7030  125.7470   57.3280 C   0  0  0  0  0  0  0  0  0  0  0  0
  130.4810  125.0300   58.4170 C   0  0  0  0  0  0  0  0  0  0  0  0
  131.8170  125.0920   58.6510 C   0  0  0  0  0  0  0  0  0  0  0  0
  132.8090  125.8730   57.7880 C   0  0  0  0  0  0  0  0  0  0  0  0
  132.4310  124.3370   59.7640 C   0  0  0  0  0  0  0  0  0  0  0  0
  132.5640  123.1110   59.7380 O   0  0  0  0  0  0  0  0  0  0  0  0
  132.8050  125.1110   60.8240 O   0  0  0  0  0  0  0  0  0  0  0  0
  131.9410  125.3750   61.9370 C   0  0  1  0  0  0  0  0  0  0  0  0
  130.6180  125.9520   61.4530 C   0  0  0  0  0  0  0  0  0  0  0  0
  130.5800  127.0010   60.5980 O   0  0  0  0  0  0  0  0  0  0  0  0
  129.2760  127.3430   60.4790 C   0  0  0  0  0  0  0  0  0  0  0  0
  128.4610  126.5200   61.2450 C   0  0  0  0  0  0  0  0  0  0  0  0
  126.9690  126.6480   61.4370 C   0  0  0  0  0  0  0  0  0  0  0  0
  129.3410  125.6320   61.8900 C   0  0  0  0  0  0  0  0  0  0  0  0
  129.1100  124.5130   62.9000 C   0  0  1  0  0  0  0  0  0  0  0  0
  128.7220  123.3530   62.1480 O   0  0  0  0  0  0  0  0  0  0  0  0
  127.5440  123.2610   61.4840 C   0  0  0  0  0  0  0  0  0  0  0  0
  126.4430  123.1640   62.0290 O   0  0  0  0  0  0  0  0  0  0  0  0
  127.7530  123.2290   60.0360 C   0  0  0  0  0  0  0  0  0  0  0  0
  126.8820  123.6290   59.0760 C   0  0  0  0  0  0  0  0  0  0  0  0
  125.5150  124.2700   59.3170 C   0  0  0  0  0  0  0  0  0  0  0  0
  127.2520  123.4950   57.6020 C   0  0  0  0  0  0  0  0  0  0  0  0
  126.4010  122.4750   56.8310 C   0  0  0  0  0  0  0  0  0  0  0  0
  130.4070  124.2690   63.7710 C   0  0  2  0  0  0  0  0  0  0  0  0
  130.1440  122.9610   64.5940 C   0  0  0  0  0  0  0  0  0  0  0  0
  130.6850  125.4730   64.7640 C   0  0  1  0  0  0  0  0  0  0  0  0
  129.4830  125.8940   65.6390 C   0  0  0  0  0  0  0  0  0  0  0  0
  131.9380  125.2110   65.6400 C   0  0  0  0  0  0  0  0  0  0  0  0
  133.1960  124.9470   64.7880 C   0  0  0  0  0  0  0  0  0  0  0  0
  132.9650  123.8560   63.7160 C   0  0  0  0  0  0  0  0  0  0  0  0
  131.6940  124.1030   62.8420 C   0  0  2  0  0  0  0  0  0  0  0  0
  131.5610  122.9780   61.9810 O   0  0  0  0  0  0  0  0  0  0  0  0
  128.9681  126.4242   57.7877 H   0  0  0  0  0  0  0  0  0  0  0  0
  130.3973  126.3286   56.7037 H   0  0  0  0  0  0  0  0  0  0  0  0
  129.1799  125.0077   56.7037 H   0  0  0  0  0  0  0  0  0  0  0  0
  129.8965  124.3880   59.0924 H   0  0  0  0  0  0  0  0  0  0  0  0
  133.5067  126.4223   58.4373 H   0  0  0  0  0  0  0  0  0  0  0  0
  133.3725  125.1736   57.1530 H   0  0  0  0  0  0  0  0  0  0  0  0
  132.2613  126.5849   57.1530 H   0  0  0  0  0  0  0  0  0  0  0  0
  132.4535  126.1146   62.5697 H   0  0  0  0  0  0  0  0  0  0  0  0
  128.9077  128.1696   59.8536 H   0  0  0  0  0  0  0  0  0  0  0  0
  126.7381  126.6678   62.5123 H   0  0  0  0  0  0  0  0  0  0  0  0
  126.6177  127.5796   60.9693 H   0  0  0  0  0  0  0  0  0  0  0  0
  126.4642  125.7899   60.9693 H   0  0  0  0  0  0  0  0  0  0  0  0
  128.3174  124.7711   63.6177 H   0  0  0  0  0  0  0  0  0  0  0  0
  128.7208  122.8384   59.6885 H   0  0  0  0  0  0  0  0  0  0  0  0
  125.3352  124.3543   60.3989 H   0  0  0  0  0  0  0  0  0  0  0  0
  125.4945  125.2716   58.8627 H   0  0  0  0  0  0  0  0  0  0  0  0
  124.7319  123.6452   58.8627 H   0  0  0  0  0  0  0  0  0  0  0  0
  127.1292  124.4783   57.1244 H   0  0  0  0  0  0  0  0  0  0  0  0
  128.2898  123.1320   57.5677 H   0  0  0  0  0  0  0  0  0  0  0  0
  125.8643  121.8318   57.5439 H   0  0  0  0  0  0  0  0  0  0  0  0
  125.6750  123.0067   56.1985 H   0  0  0  0  0  0  0  0  0  0  0  0
  127.0542  121.8560   56.1985 H   0  0  0  0  0  0  0  0  0  0  0  0
  130.1898  123.1889   65.6692 H   0  0  0  0  0  0  0  0  0  0  0  0
  129.1483  122.5652   64.3452 H   0  0  0  0  0  0  0  0  0  0  0  0
  130.9093  122.2111   64.3452 H   0  0  0  0  0  0  0  0  0  0  0  0
  130.8754  126.3317   64.1034 H   0  0  0  0  0  0  0  0  0  0  0  0
  129.7520  125.7998   66.7014 H   0  0  0  0  0  0  0  0  0  0  0  0
  129.2175  126.9386   65.4192 H   0  0  0  0  0  0  0  0  0  0  0  0
  128.6238  125.2433   65.4192 H   0  0  0  0  0  0  0  0  0  0  0  0
  132.1176  126.0914   66.2746 H   0  0  0  0  0  0  0  0  0  0  0  0
  131.7456  124.3142   66.2472 H   0  0  0  0  0  0  0  0  0  0  0  0
  133.4838  125.8816   64.2843 H   0  0  0  0  0  0  0  0  0  0  0  0
  133.9888  124.5914   65.4625 H   0  0  0  0  0  0  0  0  0  0  0  0
  133.8429  123.8265   63.0539 H   0  0  0  0  0  0  0  0  0  0  0  0
  132.8129  122.9054   64.2482 H   0  0  0  0  0  0  0  0  0  0  0  0
  130.9850  123.2200   61.2520 H   0  0  0  0  0  0  0  0  0  0  0  0
  1  2  1  0
  2  3  2  0
  3  4  1  0
  3  5  1  0
  5  6  2  0
  5  7  1  0
  7  8  1  0
  8  9  1  0
  9 10  1  0
 10 11  1  0
 11 12  2  0
 12 13  1  0
 12 14  1  0
 14 15  1  0
 15 16  1  0
 16 17  1  0
 17 18  2  0
 17 19  1  0
 19 20  2  0
 20 21  1  0
 20 22  1  0
 22 23  1  0
 15 24  1  0
 24 25  1  1
 24 26  1  0
 26 27  1  0
 26 28  1  0
 28 29  1  0
 29 30  1  0
 30 31  1  0
 31 32  1  6
 31  8  1  0
 14  9  2  0
 31 24  1  0
  1 33  1  0
  1 34  1  0
  1 35  1  0
  2 36  1  0
  4 37  1  0
  4 38  1  0
  4 39  1  0
  8 40  1  1
 11 41  1  0
 13 42  1  0
 13 43  1  0
 13 44  1  0
 15 45  1  1
 19 46  1  0
 21 47  1  0
 21 48  1  0
 21 49  1  0
 22 50  1  0
 22 51  1  0
 23 52  1  0
 23 53  1  0
 23 54  1  0
 25 55  1  0
 25 56  1  0
 25 57  1  0
 26 58  1  6
 27 59  1  0
 27 60  1  0
 27 61  1  0
 28 62  1  0
 28 63  1  0
 29 64  1  0
 29 65  1  0
 30 66  1  0
 30 67  1  0
 32 68  1  0
M  END
>  <Binding energies>  (1) 
[-6.67]

>  <Ligand effiencies>  (1) 
[-0.20212121212121212]

>  <Interactions>  (1) 
["V-A:ASP:366:CA:3210, V-B:PRO:540:CA:9855, V-A:GLY:454:CA:4049, V-B:GLU:543:CB:9878, V-B:TYR:539:CE2:9848, V-A:TYR:484:CE2:4346, V-B:GLU:543:CG:9879, V-B:TYR:539:C:9839, V-A:ASP:366:CG:3213, V-B:TYR:539:CZ:9849, H-B:ALA:541:N:9863, V-A:GLU:543:CD:4908, V-A:TYR:484:CZ:4347, V-B:PRO:540:CB:9857, V-B:PRO:540:N:9856, V-A:ASP:366:C:3208, V-B:PRO:540:CD:9859, V-B:GLU:543:CD:9880, V-A:ASP:366:CB:3212, V-A:LEU:475:CD2:4259, V-A:ARG:545:CZ:4926"]

$$$$
ZINC238768801
     RDKit          3D

 82 85  0  0  0  0  0  0  0  0999 V2000
  130.6310  123.6090   65.2810 C   0  0  0  0  0  0  0  0  0  0  0  0
  131.2880  124.0800   63.9970 C   0  0  0  0  0  0  0  0  0  0  0  0
  130.9520  123.8380   62.7050 C   0  0  0  0  0  0  0  0  0  0  0  0
  129.7940  122.9880   62.1670 C   0  0  0  0  0  0  0  0  0  0  0  0
  128.6380  123.7230   61.4080 C   0  0  2  0  0  0  0  0  0  0  0  0
  128.3450  125.1080   62.0620 C   0  0  0  0  0  0  0  0  0  0  0  0
  127.3350  122.8940   61.4560 C   0  0  0  0  0  0  0  0  0  0  0  0
  126.4830  123.3290   60.2530 C   0  0  0  0  0  0  0  0  0  0  0  0
  127.4450  124.0280   59.2640 C   0  0  2  0  0  0  0  0  0  0  0  0
  127.2480  123.6480   57.7600 C   0  0  1  0  0  0  0  0  0  0  0  0
  127.2620  122.1280   57.4820 C   0  0  0  0  0  0  0  0  0  0  0  0
  125.9870  124.2970   57.1300 C   0  0  0  0  0  0  0  0  0  0  0  0
  125.6120  125.6800   57.6960 C   0  0  0  0  0  0  0  0  0  0  0  0
  126.8170  126.5850   57.9030 C   0  0  0  0  0  0  0  0  0  0  0  0
  126.8350  127.8470   58.3900 C   0  0  0  0  0  0  0  0  0  0  0  0
  125.5970  128.5920   58.8750 C   0  0  0  0  0  0  0  0  0  0  0  0
  128.1130  128.6740   58.5280 C   0  0  0  0  0  0  0  0  0  0  0  0
  129.2740  127.8830   58.7650 O   0  0  0  0  0  0  0  0  0  0  0  0
  130.5180  128.3620   58.5250 C   0  0  0  0  0  0  0  0  0  0  0  0
  131.4500  127.6630   58.1160 O   0  0  0  0  0  0  0  0  0  0  0  0
  130.6510  129.8270   58.8200 C   0  0  0  0  0  0  0  0  0  0  0  0
  130.9850  130.3020   60.0990 C   0  0  0  0  0  0  0  0  0  0  0  0
  131.1010  131.6730   60.3630 C   0  0  0  0  0  0  0  0  0  0  0  0
  131.4530  132.1570   61.7220 N   0  0  0  0  0  0  0  0  0  0  0  0
  130.5480  132.3700   62.5230 O   0  0  0  0  0  0  0  0  0  0  0  0
  132.6370  132.3270   61.9960 O   0  0  0  0  0  0  0  0  0  0  0  0
  130.8750  132.5780   59.3170 C   0  0  0  0  0  0  0  0  0  0  0  0
  130.5390  132.1390   58.0290 C   0  0  0  0  0  0  0  0  0  0  0  0
  130.3020  133.1120   56.9340 N   0  0  0  0  0  0  0  0  0  0  0  0
  129.1460  133.3400   56.5900 O   0  0  0  0  0  0  0  0  0  0  0  0
  131.2700  133.6570   56.4100 O   0  0  0  0  0  0  0  0  0  0  0  0
  130.4300  130.7600   57.7980 C   0  0  0  0  0  0  0  0  0  0  0  0
  128.8540  123.7830   59.8630 C   0  0  1  0  0  0  0  0  0  0  0  0
  129.9800  124.7060   59.3350 C   0  0  0  0  0  0  0  0  0  0  0  0
  131.3490  124.0360   59.3780 C   0  0  0  0  0  0  0  0  0  0  0  0
  132.1880  123.9770   60.4320 C   0  0  0  0  0  0  0  0  0  0  0  0
  133.4770  123.1690   60.3310 C   0  0  0  0  0  0  0  0  0  0  0  0
  131.8620  124.6470   61.7760 C   0  0  2  0  0  0  0  0  0  0  0  0
  133.0490  124.9970   62.6720 C   0  0  0  0  0  0  0  0  0  0  0  0
  132.5060  124.9810   64.0870 C   0  0  0  0  0  0  0  0  0  0  0  0
  131.1855  124.0065   66.1438 H   0  0  0  0  0  0  0  0  0  0  0  0
  129.5923  123.9695   65.3150 H   0  0  0  0  0  0  0  0  0  0  0  0
  130.6389  122.5096   65.3150 H   0  0  0  0  0  0  0  0  0  0  0  0
  130.2237  122.2497   61.4740 H   0  0  0  0  0  0  0  0  0  0  0  0
  129.3145  122.5734   63.0660 H   0  0  0  0  0  0  0  0  0  0  0  0
  128.3661  125.0081   63.1573 H   0  0  0  0  0  0  0  0  0  0  0  0
  129.1098  125.8323   61.7450 H   0  0  0  0  0  0  0  0  0  0  0  0
  127.3524  125.4605   61.7450 H   0  0  0  0  0  0  0  0  0  0  0  0
  127.5669  121.8209   61.3868 H   0  0  0  0  0  0  0  0  0  0  0  0
  126.7966  123.0620   62.4004 H   0  0  0  0  0  0  0  0  0  0  0  0
  126.0207  122.4514   59.7775 H   0  0  0  0  0  0  0  0  0  0  0  0
  125.6716  124.0039   60.5632 H   0  0  0  0  0  0  0  0  0  0  0  0
  127.2418  125.1060   59.1832 H   0  0  0  0  0  0  0  0  0  0  0  0
  128.1360  124.0706   57.2673 H   0  0  0  0  0  0  0  0  0  0  0  0
  127.2670  121.5808   58.4362 H   0  0  0  0  0  0  0  0  0  0  0  0
  126.3664  121.8523   56.9059 H   0  0  0  0  0  0  0  0  0  0  0  0
  128.1626  121.8689   56.9059 H   0  0  0  0  0  0  0  0  0  0  0  0
  126.1640  124.4073   56.0500 H   0  0  0  0  0  0  0  0  0  0  0  0
  125.1464  123.6294   57.3701 H   0  0  0  0  0  0  0  0  0  0  0  0
  124.9219  126.1706   56.9938 H   0  0  0  0  0  0  0  0  0  0  0  0
  125.1497  125.5178   58.6809 H   0  0  0  0  0  0  0  0  0  0  0  0
  127.7928  126.1617   57.6225 H   0  0  0  0  0  0  0  0  0  0  0  0
  125.5819  128.6011   59.9749 H   0  0  0  0  0  0  0  0  0  0  0  0
  125.6209  129.6259   58.5001 H   0  0  0  0  0  0  0  0  0  0  0  0
  124.6947  128.0868   58.5001 H   0  0  0  0  0  0  0  0  0  0  0  0
  128.2623  129.2434   57.5987 H   0  0  0  0  0  0  0  0  0  0  0  0
  127.9830  129.3309   59.4007 H   0  0  0  0  0  0  0  0  0  0  0  0
  131.1594  129.5814   60.9116 H   0  0  0  0  0  0  0  0  0  0  0  0
  130.9633  133.6571   59.5112 H   0  0  0  0  0  0  0  0  0  0  0  0
  130.1651  130.4027   56.7919 H   0  0  0  0  0  0  0  0  0  0  0  0
  129.2799  122.8308   59.5138 H   0  0  0  0  0  0  0  0  0  0  0  0
  129.7533  124.9798   58.2940 H   0  0  0  0  0  0  0  0  0  0  0  0
  130.0198  125.5922   59.9854 H   0  0  0  0  0  0  0  0  0  0  0  0
  131.6880  123.5495   58.4515 H   0  0  0  0  0  0  0  0  0  0  0  0
  133.8452  122.9382   61.3415 H   0  0  0  0  0  0  0  0  0  0  0  0
  133.2809  122.2319   59.7893 H   0  0  0  0  0  0  0  0  0  0  0  0
  134.2349  123.7539   59.7893 H   0  0  0  0  0  0  0  0  0  0  0  0
  131.3757  125.5524   61.3838 H   0  0  0  0  0  0  0  0  0  0  0  0
  133.8494  124.2510   62.5588 H   0  0  0  0  0  0  0  0  0  0  0  0
  133.4828  125.9739   62.4121 H   0  0  0  0  0  0  0  0  0  0  0  0
  133.2477  124.5685   64.7868 H   0  0  0  0  0  0  0  0  0  0  0  0
  132.2645  125.9867   64.4614 H   0  0  0  0  0  0  0  0  0  0  0  0
  1  2  1  0
  2  3  2  0
  3  4  1  0
  4  5  1  0
  5  6  1  1
  5  7  1  0
  7  8  1  0
  8  9  1  0
  9 10  1  0
 10 11  1  0
 10 12  1  0
 12 13  1  0
 13 14  1  0
 14 15  2  0
 15 16  1  0
 15 17  1  0
 17 18  1  0
 18 19  1  0
 19 20  2  0
 19 21  1  0
 21 22  2  0
 22 23  1  0
 23 24  1  0
 24 25  2  0
 24 26  1  0
 23 27  2  0
 27 28  1  0
 28 29  1  0
 29 30  2  0
 29 31  1  0
 28 32  2  0
  9 33  1  0
 33 34  1  0
 34 35  1  0
 35 36  2  0
 36 37  1  0
 36 38  1  0
 38 39  1  0
 39 40  1  0
 40  2  1  0
 38  3  1  0
 33  5  1  0
 32 21  1  0
  1 41  1  0
  1 42  1  0
  1 43  1  0
  4 44  1  0
  4 45  1  0
  6 46  1  0
  6 47  1  0
  6 48  1  0
  7 49  1  0
  7 50  1  0
  8 51  1  0
  8 52  1  0
  9 53  1  6
 10 54  1  6
 11 55  1  0
 11 56  1  0
 11 57  1  0
 12 58  1  0
 12 59  1  0
 13 60  1  0
 13 61  1  0
 14 62  1  0
 16 63  1  0
 16 64  1  0
 16 65  1  0
 17 66  1  0
 17 67  1  0
 22 68  1  0
 27 69  1  0
 32 70  1  0
 33 71  1  6
 34 72  1  0
 34 73  1  0
 35 74  1  0
 37 75  1  0
 37 76  1  0
 37 77  1  0
 38 78  1  6
 39 79  1  0
 39 80  1  0
 40 81  1  0
 40 82  1  0
M  CHG  4  24   1  26  -1  29   1  31  -1
M  END
>  <Binding energies>  (1) 
[-8.11]

>  <Ligand effiencies>  (1) 
[-0.19309523809523807]

>  <Interactions>  (1) 
["V-B:TYR:539:CA:9841, V-A:ILE:369:CG2:3237, V-B:PRO:540:CA:9855, H-A:ALA:541:N:4891, V-A:PRO:540:C:4881, V-A:ILE:538:CB:4862, V-B:ASP:366:CG:8184, H-A:TYR:531:OH:4795, V-B:TYR:539:CE2:9848, V-A:TYR:484:CE2:4346, V-B:TYR:539:C:9839, V-B:TYR:539:CZ:9849, V-A:ILE:538:CA:4860, V-B:TYR:531:CZ:9766, V-B:TYR:531:CE2:9765, V-A:TYR:484:CZ:4347, V-B:PRO:540:CB:9857, V-B:ASP:366:CB:8183, V-B:PRO:540:N:9856, V-A:ILE:369:CD1:3239, V-B:PRO:540:CD:9859, V-B:TYR:539:CD2:9846, V-B:GLU:543:CD:9880, V-A:TYR:539:C:4867, V-A:ARG:545:CZ:4926, V-B:TYR:539:CG:9844, V-B:TYR:539:CD1:9845, V-A:PRO:540:N:4884, H-A:TYR:539:N:4870, V-A:PRO:540:CB:4885, V-A:PRO:540:CA:4883, V-B:PRO:540:C:9853, V-B:MET:535:CE:9807, V-A:PRO:540:CD:4887"]

$$$$
ZINC238775300
     RDKit          3D

 57 57  0  0  0  0  0  0  0  0999 V2000
  134.2440  124.2480   59.8480 C   0  0  0  0  0  0  0  0  0  0  0  0
  133.2750  124.2950   61.0110 C   0  0  0  0  0  0  0  0  0  0  0  0
  133.6140  124.0990   62.2970 C   0  0  0  0  0  0  0  0  0  0  0  0
  132.6420  124.1350   63.4640 C   0  0  2  0  0  0  0  0  0  0  0  0
  133.3960  124.3470   64.6410 O   0  0  0  0  0  0  0  0  0  0  0  0
  131.7640  122.8690   63.6130 C   0  0  0  0  0  0  0  0  0  0  0  0
  130.4900  122.8190   62.7620 C   0  0  0  0  0  0  0  0  0  0  0  0
  129.4490  123.6770   62.7040 C   0  0  0  0  0  0  0  0  0  0  0  0
  129.2240  124.9400   63.5250 C   0  0  0  0  0  0  0  0  0  0  0  0
  129.8570  124.8990   64.9270 C   0  0  0  0  0  0  0  0  0  0  0  0
  129.4460  126.0990   65.8010 C   0  0  0  0  0  0  0  0  0  0  0  0
  129.8450  125.9720   67.2850 C   0  0  0  0  0  0  0  0  0  0  0  0
  128.8870  126.6780   68.2640 C   0  0  0  0  0  0  0  0  0  0  0  0
  129.5310  126.9580   69.6370 C   0  0  0  0  0  0  0  0  0  0  0  0
  128.5200  127.1420   70.7910 C   0  0  0  0  0  0  0  0  0  0  0  0
  129.0300  126.7770   72.1930 C   0  0  0  0  0  0  0  0  0  0  0  0
  128.7650  125.7020   72.7370 O   0  0  0  0  0  0  0  0  0  0  0  0
  129.7830  127.7640   72.7210 O   0  0  0  0  0  0  0  0  0  0  0  0
  129.4580  129.1260   72.4830 C   0  0  0  0  0  0  0  0  0  0  0  0
  128.4240  123.2170   61.6810 C   0  0  2  0  0  0  0  0  0  0  0  0
  127.1860  122.8420   62.2840 O   0  0  0  0  0  0  0  0  0  0  0  0
  126.0160  123.3080   61.6230 C   0  0  0  0  0  0  0  0  0  0  0  0
  129.0320  121.9700   61.0560 C   0  0  0  0  0  0  0  0  0  0  0  0
  130.3370  121.7370   61.7890 C   0  0  0  0  0  0  0  0  0  0  0  0
  131.1390  120.8210   61.6090 O   0  0  0  0  0  0  0  0  0  0  0  0
  135.2740  124.1980   60.2308 H   0  0  0  0  0  0  0  0  0  0  0  0
  134.0374  123.3588   59.2343 H   0  0  0  0  0  0  0  0  0  0  0  0
  134.1244  125.1530   59.2343 H   0  0  0  0  0  0  0  0  0  0  0  0
  132.2185  124.5044   60.7875 H   0  0  0  0  0  0  0  0  0  0  0  0
  134.6721  123.8979   62.5206 H   0  0  0  0  0  0  0  0  0  0  0  0
  131.9280  124.9501   63.2747 H   0  0  0  0  0  0  0  0  0  0  0  0
  132.8570  124.0980   65.3960 H   0  0  0  0  0  0  0  0  0  0  0  0
  132.3815  121.9998   63.3425 H   0  0  0  0  0  0  0  0  0  0  0  0
  131.4179  122.8747   64.6571 H   0  0  0  0  0  0  0  0  0  0  0  0
  129.6551  125.7902   62.9761 H   0  0  0  0  0  0  0  0  0  0  0  0
  128.1377  125.0348   63.6700 H   0  0  0  0  0  0  0  0  0  0  0  0
  129.5399  123.9731   65.4292 H   0  0  0  0  0  0  0  0  0  0  0  0
  130.9488  124.9397   64.7995 H   0  0  0  0  0  0  0  0  0  0  0  0
  129.9234  127.0018   65.3924 H   0  0  0  0  0  0  0  0  0  0  0  0
  128.3473  126.1455   65.7740 H   0  0  0  0  0  0  0  0  0  0  0  0
  129.8746  124.9031   67.5431 H   0  0  0  0  0  0  0  0  0  0  0  0
  130.8223  126.4657   67.3909 H   0  0  0  0  0  0  0  0  0  0  0  0
  128.5751  127.6353   67.8209 H   0  0  0  0  0  0  0  0  0  0  0  0
  128.0320  126.0064   68.4313 H   0  0  0  0  0  0  0  0  0  0  0  0
  130.1886  126.1125   69.8873 H   0  0  0  0  0  0  0  0  0  0  0  0
  130.0739  127.9098   69.5407 H   0  0  0  0  0  0  0  0  0  0  0  0
  128.2157  128.1990   70.8074 H   0  0  0  0  0  0  0  0  0  0  0  0
  127.6977  126.4421   70.5813 H   0  0  0  0  0  0  0  0  0  0  0  0
  129.3338  129.6466   73.4440 H   0  0  0  0  0  0  0  0  0  0  0  0
  130.2679  129.6016   71.9103 H   0  0  0  0  0  0  0  0  0  0  0  0
  128.5206  129.1846   71.9103 H   0  0  0  0  0  0  0  0  0  0  0  0
  128.2091  124.0274   60.9689 H   0  0  0  0  0  0  0  0  0  0  0  0
  125.2666  123.6065   62.3709 H   0  0  0  0  0  0  0  0  0  0  0  0
  126.2706  124.1734   60.9935 H   0  0  0  0  0  0  0  0  0  0  0  0
  125.6059  122.5046   60.9935 H   0  0  0  0  0  0  0  0  0  0  0  0
  128.3599  121.1091   61.1868 H   0  0  0  0  0  0  0  0  0  0  0  0
  129.1910  122.0948   59.9747 H   0  0  0  0  0  0  0  0  0  0  0  0
  1  2  1  0
  2  3  2  0
  3  4  1  0
  4  5  1  0
  4  6  1  0
  6  7  1  0
  7  8  2  0
  8  9  1  0
  9 10  1  0
 10 11  1  0
 11 12  1  0
 12 13  1  0
 13 14  1  0
 14 15  1  0
 15 16  1  0
 16 17  2  0
 16 18  1  0
 18 19  1  0
  8 20  1  0
 20 21  1  0
 21 22  1  0
 20 23  1  0
 23 24  1  0
 24 25  2  0
 24  7  1  0
  1 26  1  0
  1 27  1  0
  1 28  1  0
  2 29  1  0
  3 30  1  0
  4 31  1  6
  5 32  1  0
  6 33  1  0
  6 34  1  0
  9 35  1  0
  9 36  1  0
 10 37  1  0
 10 38  1  0
 11 39  1  0
 11 40  1  0
 12 41  1  0
 12 42  1  0
 13 43  1  0
 13 44  1  0
 14 45  1  0
 14 46  1  0
 15 47  1  0
 15 48  1  0
 19 49  1  0
 19 50  1  0
 19 51  1  0
 20 52  1  6
 22 53  1  0
 22 54  1  0
 22 55  1  0
 23 56  1  0
 23 57  1  0
M  END
>  <Binding energies>  (1) 
[-6.26]

>  <Ligand effiencies>  (1) 
[-0.24076923076923076]

>  <Interactions>  (1) 
["V-A:ILE:369:CG2:3237, V-A:ASP:366:CA:3210, V-B:PRO:540:CA:9855, V-B:HIS:456:CD2:9039, V-A:ILE:369:CB:3236, V-B:GLU:543:CB:9878, H-B:LYS:547:NZ:9923, V-B:GLU:543:CG:9879, V-A:ASP:366:CG:3213, V-A:HIS:456:CD2:4068, H-B:ALA:541:N:9863, V-A:GLU:543:CD:4908, V-B:PRO:540:CB:9857, V-B:HIS:456:CE1:9041, H-A:GLY:454:N:4050, V-A:ILE:369:CD1:3239, V-A:HIS:456:CE1:4070, V-B:TYR:539:CD2:9846, V-B:GLU:543:CD:9880, V-A:ASP:366:CB:3212, V-A:LEU:475:CD2:4259, V-B:PRO:540:C:9853, H-A:TYR:484:OH:4348"]

$$$$
ZINC238781791
     RDKit          3D

 43 44  0  0  0  0  0  0  0  0999 V2000
  129.2480  122.1190   65.2970 C   0  0  0  0  0  0  0  0  0  0  0  0
  130.0990  123.1110   64.9820 C   0  0  0  0  0  0  0  0  0  0  0  0
  130.2420  124.3360   65.8770 C   0  0  0  0  0  0  0  0  0  0  0  0
  130.9530  123.0600   63.7100 C   0  0  1  0  0  0  0  0  0  0  0  0
  130.2130  122.6030   62.4420 C   0  0  0  0  0  0  0  0  0  0  0  0
  130.7690  123.4720   61.2980 C   0  0  0  0  0  0  0  0  0  0  0  0
  132.0260  124.2310   61.8240 C   0  0  2  0  0  0  0  0  0  0  0  0
  131.6440  124.3770   63.3200 C   0  0  0  0  0  0  0  0  0  0  0  0
  132.2720  125.5990   61.0730 C   0  0  2  0  0  0  0  0  0  0  0  0
  131.2780  126.7760   61.2730 C   0  0  0  0  0  0  0  0  0  0  0  0
  131.0410  127.0540   62.6390 O   0  0  0  0  0  0  0  0  0  0  0  0
  132.4540  125.3070   59.5580 C   0  0  0  0  0  0  0  0  0  0  0  0
  133.6290  124.3400   59.2660 C   0  0  2  0  0  0  0  0  0  0  0  0
  133.6450  123.9820   57.8990 O   0  0  0  0  0  0  0  0  0  0  0  0
  133.6090  123.0750   60.1600 C   0  0  0  0  0  0  0  0  0  0  0  0
  133.3560  123.3940   61.6600 C   0  0  1  0  0  0  0  0  0  0  0  0
  134.6600  123.9380   62.2970 C   0  0  0  0  0  0  0  0  0  0  0  0
  129.1578  121.2421   64.6391 H   0  0  0  0  0  0  0  0  0  0  0  0
  128.6419  122.1843   66.2126 H   0  0  0  0  0  0  0  0  0  0  0  0
  130.2058  124.0257   66.9317 H   0  0  0  0  0  0  0  0  0  0  0  0
  131.2038  124.8291   65.6727 H   0  0  0  0  0  0  0  0  0  0  0  0
  129.4196  125.0374   65.6727 H   0  0  0  0  0  0  0  0  0  0  0  0
  131.6962  122.3122   64.0236 H   0  0  0  0  0  0  0  0  0  0  0  0
  130.4100  121.5388   62.2456 H   0  0  0  0  0  0  0  0  0  0  0  0
  129.1237  122.7162   62.5449 H   0  0  0  0  0  0  0  0  0  0  0  0
  131.0496  122.8325   60.4481 H   0  0  0  0  0  0  0  0  0  0  0  0
  130.0060  124.1901   60.9631 H   0  0  0  0  0  0  0  0  0  0  0  0
  132.5452  124.5317   63.9315 H   0  0  0  0  0  0  0  0  0  0  0  0
  130.9856  125.2425   63.4857 H   0  0  0  0  0  0  0  0  0  0  0  0
  133.1732  125.9925   61.5659 H   0  0  0  0  0  0  0  0  0  0  0  0
  131.6948  127.6755   60.7964 H   0  0  0  0  0  0  0  0  0  0  0  0
  130.3192  126.4869   60.8179 H   0  0  0  0  0  0  0  0  0  0  0  0
  131.0430  128.0060   62.7620 H   0  0  0  0  0  0  0  0  0  0  0  0
  131.5264  124.8580   59.1734 H   0  0  0  0  0  0  0  0  0  0  0  0
  132.6828  126.2625   59.0633 H   0  0  0  0  0  0  0  0  0  0  0  0
  134.5538  124.8826   59.5116 H   0  0  0  0  0  0  0  0  0  0  0  0
  134.3960  124.4100   57.4810 H   0  0  0  0  0  0  0  0  0  0  0  0
  132.8105  122.4073   59.8043 H   0  0  0  0  0  0  0  0  0  0  0  0
  134.6009  122.6052   60.0868 H   0  0  0  0  0  0  0  0  0  0  0  0
  133.1403  122.4965   62.2583 H   0  0  0  0  0  0  0  0  0  0  0  0
  134.5751  123.9026   63.3931 H   0  0  0  0  0  0  0  0  0  0  0  0
  135.5110  123.3198   61.9750 H   0  0  0  0  0  0  0  0  0  0  0  0
  134.8194  124.9777   61.9750 H   0  0  0  0  0  0  0  0  0  0  0  0
  1  2  2  0
  2  3  1  0
  2  4  1  0
  4  5  1  0
  5  6  1  0
  7  6  1  6
  7  8  1  0
  7  9  1  0
  9 10  1  0
 10 11  1  0
  9 12  1  0
 12 13  1  0
 13 14  1  0
 13 15  1  0
 15 16  1  0
 16 17  1  0
  8  4  1  0
 16  7  1  0
  1 18  1  0
  1 19  1  0
  3 20  1  0
  3 21  1  0
  3 22  1  0
  4 23  1  1
  5 24  1  0
  5 25  1  0
  6 26  1  0
  6 27  1  0
  8 28  1  0
  8 29  1  0
  9 30  1  1
 10 31  1  0
 10 32  1  0
 11 33  1  0
 12 34  1  0
 12 35  1  0
 13 36  1  1
 14 37  1  0
 15 38  1  0
 15 39  1  0
 16 40  1  1
 17 41  1  0
 17 42  1  0
 17 43  1  0
M  END
>  <Binding energies>  (1) 
[-6.41]

>  <Ligand effiencies>  (1) 
[-0.3373684210526316]

>  <Interactions>  (1) 
["V-A:ILE:369:CG2:3237, V-A:ASP:366:CA:3210, V-A:GLY:454:CA:4049, H-A:GLU:543:OE2:4910, V-A:ILE:369:CB:3236, V-B:GLU:543:CB:9878, V-B:ALA:541:CB:9864, V-B:TYR:539:CE2:9848, V-A:TYR:484:CE2:4346, V-B:GLU:543:CG:9879, V-A:ASP:366:CG:3213, H-B:TYR:539:OH:9850, V-A:TYR:484:CZ:4347, V-B:GLU:543:CA:9876, V-A:GLY:453:C:4042, V-A:ILE:369:CD1:3239, V-A:ASP:366:CB:3212, V-A:LEU:475:CD2:4259, H-A:ARG:545:NH2:4928, H-A:GLU:543:OE1:4909, H-A:ASP:366:O:3209, V-A:GLY:453:CA:4044, H-A:ASP:366:OD2:3215"]

$$$$
ZINC238784409
     RDKit          3D

 44 45  0  0  0  0  0  0  0  0999 V2000
  132.3110  125.8650   57.3220 C   0  0  0  0  0  0  0  0  0  0  0  0
  132.8570  125.4170   58.6610 C   0  0  0  0  0  0  0  0  0  0  0  0
  133.7820  124.4520   58.8260 C   0  0  0  0  0  0  0  0  0  0  0  0
  134.3700  123.9670   60.1460 C   0  0  0  0  0  0  0  0  0  0  0  0
  133.4810  124.0920   61.3890 C   0  0  0  0  0  0  0  0  0  0  0  0
  133.9580  124.5070   62.5800 C   0  0  0  0  0  0  0  0  0  0  0  0
  135.2710  124.8280   62.7740 O   0  0  0  0  0  0  0  0  0  0  0  0
  133.1510  124.6570   63.8000 C   0  0  0  0  0  0  0  0  0  0  0  0
  133.6230  125.1000   64.8520 O   0  0  0  0  0  0  0  0  0  0  0  0
  131.7030  124.2070   63.6850 C   0  0  0  0  0  0  0  0  0  0  0  0
  130.8550  124.2330   64.8190 C   0  0  0  0  0  0  0  0  0  0  0  0
  131.2600  124.6530   66.0640 O   0  0  0  0  0  0  0  0  0  0  0  0
  129.5340  123.8160   64.7350 C   0  0  0  0  0  0  0  0  0  0  0  0
  129.0140  123.3590   63.5380 C   0  0  0  0  0  0  0  0  0  0  0  0
  127.7020  122.9600   63.5210 O   0  0  0  0  0  0  0  0  0  0  0  0
  129.8190  123.3130   62.3920 C   0  0  0  0  0  0  0  0  0  0  0  0
  129.2140  122.7860   61.0790 C   0  0  0  0  0  0  0  0  0  0  0  0
  128.7490  121.3130   61.1410 C   0  0  0  0  0  0  0  0  0  0  0  0
  129.8170  120.3200   61.6360 C   0  0  0  0  0  0  0  0  0  0  0  0
  131.1680  120.4910   60.9290 C   0  0  0  0  0  0  0  0  0  0  0  0
  131.1650  123.7530   62.4500 C   0  0  0  0  0  0  0  0  0  0  0  0
  132.0130  123.7490   61.1660 C   0  0  0  0  0  0  0  0  0  0  0  0
  131.4696  126.5554   57.4815 H   0  0  0  0  0  0  0  0  0  0  0  0
  133.1030  126.3769   56.7558 H   0  0  0  0  0  0  0  0  0  0  0  0
  131.9636  124.9882   56.7558 H   0  0  0  0  0  0  0  0  0  0  0  0
  132.4710  125.9147   59.5628 H   0  0  0  0  0  0  0  0  0  0  0  0
  134.1517  123.9628   57.9128 H   0  0  0  0  0  0  0  0  0  0  0  0
  134.6251  122.9038   60.0254 H   0  0  0  0  0  0  0  0  0  0  0  0
  135.2270  124.6291   60.3386 H   0  0  0  0  0  0  0  0  0  0  0  0
  135.4840  125.6160   62.2680 H   0  0  0  0  0  0  0  0  0  0  0  0
  132.1590  124.3940   66.2710 H   0  0  0  0  0  0  0  0  0  0  0  0
  128.8944  123.8493   65.6293 H   0  0  0  0  0  0  0  0  0  0  0  0
  127.0900  123.6980   63.4970 H   0  0  0  0  0  0  0  0  0  0  0  0
  128.3457  123.4113   60.8240 H   0  0  0  0  0  0  0  0  0  0  0  0
  130.0111  122.8339   60.3224 H   0  0  0  0  0  0  0  0  0  0  0  0
  127.8861  121.2547   61.8206 H   0  0  0  0  0  0  0  0  0  0  0  0
  128.5081  121.0201   60.1084 H   0  0  0  0  0  0  0  0  0  0  0  0
  129.9643  120.4728   62.7153 H   0  0  0  0  0  0  0  0  0  0  0  0
  129.4536  119.3065   61.4107 H   0  0  0  0  0  0  0  0  0  0  0  0
  131.9649  120.5919   61.6805 H   0  0  0  0  0  0  0  0  0  0  0  0
  131.3666  119.6108   60.2998 H   0  0  0  0  0  0  0  0  0  0  0  0
  131.1410  121.3929   60.2998 H   0  0  0  0  0  0  0  0  0  0  0  0
  131.9568  122.7459   60.7180 H   0  0  0  0  0  0  0  0  0  0  0  0
  131.6005  124.5305   60.5109 H   0  0  0  0  0  0  0  0  0  0  0  0
  1  2  1  0
  2  3  2  0
  3  4  1  0
  4  5  1  0
  5  6  2  0
  6  7  1  0
  6  8  1  0
  8  9  2  0
  8 10  1  0
 10 11  2  0
 11 12  1  0
 11 13  1  0
 13 14  2  0
 14 15  1  0
 14 16  1  0
 16 17  1  0
 17 18  1  0
 18 19  1  0
 19 20  1  0
 16 21  2  0
 21 22  1  0
 22  5  1  0
 21 10  1  0
  1 23  1  0
  1 24  1  0
  1 25  1  0
  2 26  1  0
  3 27  1  0
  4 28  1  0
  4 29  1  0
  7 30  1  0
 12 31  1  0
 13 32  1  0
 15 33  1  0
 17 34  1  0
 17 35  1  0
 18 36  1  0
 18 37  1  0
 19 38  1  0
 19 39  1  0
 20 40  1  0
 20 41  1  0
 20 42  1  0
 22 43  1  0
 22 44  1  0
M  END
>  <Binding energies>  (1) 
[-6.31]

>  <Ligand effiencies>  (1) 
[-0.25239999999999996]

>  <Interactions>  (1) 
["V-A:ILE:369:CG2:3237, V-A:ASP:366:CA:3210, V-B:PRO:540:CA:9855, V-A:ILE:369:CB:3236, V-B:ALA:541:CB:9864, H-A:ARG:545:NH1:4927, V-B:TYR:539:CE2:9848, V-B:GLU:543:CG:9879, V-B:TYR:539:C:9839, V-A:ASP:366:CG:3213, V-B:TYR:539:CZ:9849, H-B:GLU:543:OE1:9881, H-B:ALA:541:N:9863, H-A:GLY:454:N:4050, V-B:PRO:540:N:9856, V-A:ILE:369:CD1:3239, V-A:ASP:366:C:3208, V-B:TYR:539:CD2:9846, V-A:TYR:531:CZ:4794, V-B:GLU:543:CD:9880, V-A:ILE:369:CG1:3238, V-A:ASP:366:CB:3212, V-A:LEU:475:CD2:4259, H-A:ARG:545:NH2:4928, V-A:ARG:545:CZ:4926, H-A:ASP:366:OD1:3214, H-B:GLU:543:OE2:9882, H-A:ARG:545:NE:4924, V-B:PRO:540:C:9853, H-A:TYR:484:OH:4348"]

$$$$
ZINC238787633
     RDKit          3D

 96 98  0  0  0  0  0  0  0  0999 V2000
  130.4610  120.5260   61.2530 C   0  0  0  0  0  0  0  0  0  0  0  0
  131.7450  119.7720   60.8760 C   0  0  0  0  0  0  0  0  0  0  0  0
  132.8950  120.6800   60.4000 C   0  0  0  0  0  0  0  0  0  0  0  0
  133.7410  121.2850   61.5370 C   0  0  0  0  0  0  0  0  0  0  0  0
  133.9480  122.8010   61.3790 C   0  0  0  0  0  0  0  0  0  0  0  0
  132.8320  123.4800   60.5570 C   0  0  0  0  0  0  0  0  0  0  0  0
  133.2460  124.7910   59.8460 C   0  0  0  0  0  0  0  0  0  0  0  0
  133.2340  124.7500   58.3100 C   0  0  0  0  0  0  0  0  0  0  0  0
  133.9480  123.9580   57.6930 O   0  0  0  0  0  0  0  0  0  0  0  0
  132.3950  125.6520   57.7590 O   0  0  0  0  0  0  0  0  0  0  0  0
  131.7640  126.6490   58.5530 C   0  0  0  0  0  0  0  0  0  0  0  0
  130.3090  126.8480   58.0990 C   0  0  0  0  0  0  0  0  0  0  0  0
  129.8990  128.2980   57.8940 C   0  0  0  0  0  0  0  0  0  0  0  0
  129.2840  129.0980   58.7860 C   0  0  0  0  0  0  0  0  0  0  0  0
  128.8210  128.7140   60.1850 C   0  0  2  0  0  0  0  0  0  0  0  0
  127.4340  128.9760   60.2070 O   0  0  0  0  0  0  0  0  0  0  0  0
  129.5360  129.4550   61.3500 C   0  0  2  0  0  0  0  0  0  0  0  0
  130.9170  129.1330   61.2950 O   0  0  0  0  0  0  0  0  0  0  0  0
  128.9730  129.0950   62.7610 C   0  0  2  0  0  0  0  0  0  0  0  0
  129.3960  127.7690   63.1050 O   0  0  0  0  0  0  0  0  0  0  0  0
  129.4940  126.7660   62.1930 C   0  0  0  0  0  0  0  0  0  0  0  0
  130.4730  126.5530   61.4770 O   0  0  0  0  0  0  0  0  0  0  0  0
  128.3470  125.8660   62.2200 C   0  0  0  0  0  0  0  0  0  0  0  0
  128.3890  124.5220   62.0860 C   0  0  0  0  0  0  0  0  0  0  0  0
  129.5770  123.6830   62.1200 C   0  0  0  0  0  0  0  0  0  0  0  0
  130.3630  123.4850   63.1980 C   0  0  0  0  0  0  0  0  0  0  0  0
  130.1490  123.8970   64.5780 C   0  0  0  0  0  0  0  0  0  0  0  0
  130.5490  125.0600   65.0670 N   0  0  0  0  0  0  0  0  0  0  0  0
  130.1100  125.1210   66.3020 C   0  0  0  0  0  0  0  0  0  0  0  0
  129.4550  123.9960   66.6800 O   0  0  0  0  0  0  0  0  0  0  0  0
  129.4600  123.2150   65.5740 C   0  0  0  0  0  0  0  0  0  0  0  0
  128.7540  121.8830   65.6710 C   0  0  0  0  0  0  0  0  0  0  0  0
  130.2320  126.2070   67.2590 C   0  0  0  0  0  0  0  0  0  0  0  0
  129.3570  127.2050   67.5180 C   0  0  0  0  0  0  0  0  0  0  0  0
  129.6610  128.2700   68.5600 C   0  0  0  0  0  0  0  0  0  0  0  0
  127.9810  127.3220   66.8660 C   0  0  0  0  0  0  0  0  0  0  0  0
  127.4180  128.7580   66.8700 C   0  0  0  0  0  0  0  0  0  0  0  0
  127.2970  129.4620   65.5020 C   0  0  2  0  0  0  0  0  0  0  0  0
  126.0100  129.5810   64.9450 O   0  0  0  0  0  0  0  0  0  0  0  0
  126.8840  128.7250   64.2540 C   0  0  1  0  0  0  0  0  0  0  0  0
  127.4110  129.1830   62.8690 C   0  0  1  0  0  0  0  0  0  0  0  0
  126.9480  130.5060   62.5710 O   0  0  0  0  0  0  0  0  0  0  0  0
  127.7010  131.5880   63.0280 C   0  0  0  0  0  0  0  0  0  0  0  0
  127.9430  131.8710   64.2010 O   0  0  0  0  0  0  0  0  0  0  0  0
  128.1820  132.3550   62.0140 N   0  0  0  0  0  0  0  0  0  0  0  0
  127.9760  132.2880   60.6750 C   0  0  0  0  0  0  0  0  0  0  0  0
  128.7330  133.3220   59.8460 C   0  0  0  0  0  0  0  0  0  0  0  0
  127.2420  131.4910   60.0880 O   0  0  0  0  0  0  0  0  0  0  0  0
  130.3740  120.5771   62.3484 H   0  0  0  0  0  0  0  0  0  0  0  0
  130.4995  121.5449   60.8403 H   0  0  0  0  0  0  0  0  0  0  0  0
  129.5899  119.9960   60.8403 H   0  0  0  0  0  0  0  0  0  0  0  0
  132.0892  119.2141   61.7593 H   0  0  0  0  0  0  0  0  0  0  0  0
  131.4895  119.1166   60.0303 H   0  0  0  0  0  0  0  0  0  0  0  0
  133.5593  120.0848   59.7562 H   0  0  0  0  0  0  0  0  0  0  0  0
  132.4295  121.5249   59.8714 H   0  0  0  0  0  0  0  0  0  0  0  0
  133.2314  121.0970   62.4935 H   0  0  0  0  0  0  0  0  0  0  0  0
  134.7319  120.8086   61.5043 H   0  0  0  0  0  0  0  0  0  0  0  0
  133.9734  123.2574   62.3795 H   0  0  0  0  0  0  0  0  0  0  0  0
  134.8930  122.9490   60.8358 H   0  0  0  0  0  0  0  0  0  0  0  0
  132.4929  122.7685   59.7897 H   0  0  0  0  0  0  0  0  0  0  0  0
  132.0465  123.7560   61.2759 H   0  0  0  0  0  0  0  0  0  0  0  0
  132.5539  125.5830   60.1681 H   0  0  0  0  0  0  0  0  0  0  0  0
  134.2930  124.9690   60.1324 H   0  0  0  0  0  0  0  0  0  0  0  0
  131.7758  126.3351   59.6072 H   0  0  0  0  0  0  0  0  0  0  0  0
  132.3087  127.5976   58.4371 H   0  0  0  0  0  0  0  0  0  0  0  0
  130.1716  126.3153   57.1464 H   0  0  0  0  0  0  0  0  0  0  0  0
  129.6751  126.4579   58.9090 H   0  0  0  0  0  0  0  0  0  0  0  0
  130.1291  128.7402   56.9134 H   0  0  0  0  0  0  0  0  0  0  0  0
  129.0969  130.1354   58.4717 H   0  0  0  0  0  0  0  0  0  0  0  0
  129.0734  127.6582   60.3626 H   0  0  0  0  0  0  0  0  0  0  0  0
  127.3020  129.8670   60.5360 H   0  0  0  0  0  0  0  0  0  0  0  0
  129.3599  130.5326   61.2165 H   0  0  0  0  0  0  0  0  0  0  0  0
  131.1240  128.5450   62.0260 H   0  0  0  0  0  0  0  0  0  0  0  0
  129.3728  129.8446   63.4598 H   0  0  0  0  0  0  0  0  0  0  0  0
  127.3567  126.3231   62.3625 H   0  0  0  0  0  0  0  0  0  0  0  0
  127.4269  124.0102   61.9359 H   0  0  0  0  0  0  0  0  0  0  0  0
  129.8574  123.1675   61.1896 H   0  0  0  0  0  0  0  0  0  0  0  0
  131.2966  122.9352   63.0080 H   0  0  0  0  0  0  0  0  0  0  0  0
  128.6138  121.6185   66.7295 H   0  0  0  0  0  0  0  0  0  0  0  0
  127.7735  121.9509   65.1771 H   0  0  0  0  0  0  0  0  0  0  0  0
  129.3606  121.1097   65.1771 H   0  0  0  0  0  0  0  0  0  0  0  0
  131.1588  126.2192   67.8514 H   0  0  0  0  0  0  0  0  0  0  0  0
  129.5392  127.8434   69.5666 H   0  0  0  0  0  0  0  0  0  0  0  0
  130.6955  128.6219   68.4336 H   0  0  0  0  0  0  0  0  0  0  0  0
  128.9682  129.1150   68.4336 H   0  0  0  0  0  0  0  0  0  0  0  0
  128.0600  126.9820   65.8229 H   0  0  0  0  0  0  0  0  0  0  0  0
  127.2899  126.7020   67.4559 H   0  0  0  0  0  0  0  0  0  0  0  0
  126.4126  128.7200   67.3147 H   0  0  0  0  0  0  0  0  0  0  0  0
  128.1503  129.3526   67.4358 H   0  0  0  0  0  0  0  0  0  0  0  0
  128.1423  130.1173   65.7589 H   0  0  0  0  0  0  0  0  0  0  0  0
  126.8902  127.6733   63.9318 H   0  0  0  0  0  0  0  0  0  0  0  0
  127.0057  128.4874   62.1195 H   0  0  0  0  0  0  0  0  0  0  0  0
  128.7800  133.1110   62.3120 H   0  0  0  0  0  0  0  0  0  0  0  0
  129.2476  134.0249   60.5176 H   0  0  0  0  0  0  0  0  0  0  0  0
  129.4732  132.8126   59.2115 H   0  0  0  0  0  0  0  0  0  0  0  0
  128.0238  133.8737   59.2115 H   0  0  0  0  0  0  0  0  0  0  0  0
  1  2  1  0
  2  3  1  0
  3  4  1  0
  4  5  1  0
  5  6  1  0
  6  7  1  0
  7  8  1  0
  8  9  2  0
  8 10  1  0
 10 11  1  0
 11 12  1  0
 12 13  1  0
 13 14  2  0
 14 15  1  0
 15 16  1  0
 15 17  1  0
 17 18  1  0
 17 19  1  0
 19 20  1  0
 20 21  1  0
 21 22  2  0
 21 23  1  0
 23 24  2  0
 24 25  1  0
 25 26  2  0
 26 27  1  0
 27 28  1  0
 28 29  2  0
 29 30  1  0
 30 31  1  0
 31 32  1  0
 29 33  1  0
 33 34  2  0
 34 35  1  0
 34 36  1  0
 36 37  1  0
 37 38  1  0
 38 39  1  0
 39 40  1  0
 40 41  1  0
 41 42  1  0
 42 43  1  0
 43 44  2  0
 43 45  1  0
 45 46  1  0
 46 47  1  0
 46 48  2  0
 41 19  1  0
 31 27  2  0
 40 38  1  0
  1 49  1  0
  1 50  1  0
  1 51  1  0
  2 52  1  0
  2 53  1  0
  3 54  1  0
  3 55  1  0
  4 56  1  0
  4 57  1  0
  5 58  1  0
  5 59  1  0
  6 60  1  0
  6 61  1  0
  7 62  1  0
  7 63  1  0
 11 64  1  0
 11 65  1  0
 12 66  1  0
 12 67  1  0
 13 68  1  0
 14 69  1  0
 15 70  1  1
 16 71  1  0
 17 72  1  6
 18 73  1  0
 19 74  1  1
 23 75  1  0
 24 76  1  0
 25 77  1  0
 26 78  1  0
 32 79  1  0
 32 80  1  0
 32 81  1  0
 33 82  1  0
 35 83  1  0
 35 84  1  0
 35 85  1  0
 36 86  1  0
 36 87  1  0
 37 88  1  0
 37 89  1  0
 38 90  1  6
 40 91  1  1
 41 92  1  6
 45 93  1  0
 47 94  1  0
 47 95  1  0
 47 96  1  0
M  END
>  <Binding energies>  (1) 
[-3.42]

>  <Ligand effiencies>  (1) 
[-0.06452830188679246]

>  <Interactions>  (1) 
["V-A:ILE:369:CG2:3237, V-A:ASP:366:CA:3210, V-A:GLU:543:CA:4904, V-A:GLU:543:C:4902, V-B:GLU:543:CB:9878, V-B:ALA:541:CB:9864, H-A:TYR:531:OH:4795, V-B:TYR:539:CE2:9848, V-A:TYR:484:CE2:4346, V-B:GLU:543:CG:9879, V-A:ASP:366:CG:3213, V-A:TYR:539:CD1:4873, V-B:TYR:539:CZ:9849, H-A:ASN:370:N:3244, H-B:TYR:539:OH:9850, V-A:GLU:543:CD:4908, V-A:TYR:484:CZ:4347, H-B:TYR:484:OH:9319, V-B:GLU:543:CA:9876, V-B:HIS:456:CE1:9041, V-A:SER:385:C:3405, V-A:TYR:484:CD2:4344, V-A:ILE:369:CD1:3239, V-A:HIS:456:CE1:4070, V-A:ASP:366:C:3208, V-B:TYR:539:CD2:9846, V-A:GLU:543:CG:4907, V-A:SER:385:CB:3409, V-B:GLU:543:CD:9880, V-A:TYR:539:C:4867, V-A:ASP:366:CB:3212, V-A:LEU:475:CD2:4259, H-A:GLU:543:OE1:4909, V-B:VAL:542:C:9866, V-A:GLU:543:CB:4906, V-A:PRO:540:N:4884, V-A:PRO:540:CA:4883, V-A:SER:385:CA:3407, H-A:ASP:366:OD2:3215, H-A:TYR:484:OH:4348"]

$$$$
ZINC238789745
     RDKit          3D

 72 74  0  0  0  0  0  0  0  0999 V2000
  131.2510  125.4650   58.0040 C   0  0  0  0  0  0  0  0  0  0  0  0
  132.5320  125.0820   58.7340 C   0  0  0  0  0  0  0  0  0  0  0  0
  133.2250  124.1370   58.3530 O   0  0  0  0  0  0  0  0  0  0  0  0
  132.7770  125.8980   59.7980 O   0  0  0  0  0  0  0  0  0  0  0  0
  132.2560  125.5750   61.0380 C   0  0  0  0  0  0  0  0  0  0  0  0
  132.8220  124.5110   61.7560 C   0  0  0  0  0  0  0  0  0  0  0  0
  133.8910  123.8080   61.2590 O   0  0  0  0  0  0  0  0  0  0  0  0
  132.3030  124.1450   62.9890 C   0  0  0  0  0  0  0  0  0  0  0  0
  131.2040  124.8190   63.5030 C   0  0  0  0  0  0  0  0  0  0  0  0
  130.7540  124.3820   64.7310 O   0  0  0  0  0  0  0  0  0  0  0  0
  130.0800  125.2700   65.5390 C   0  0  0  0  0  0  0  0  0  0  0  0
  130.1400  125.0370   66.9080 C   0  0  0  0  0  0  0  0  0  0  0  0
  129.4860  125.8940   67.7860 C   0  0  0  0  0  0  0  0  0  0  0  0
  129.5510  125.6190   69.1290 O   0  0  0  0  0  0  0  0  0  0  0  0
  128.7760  127.0030   67.2980 C   0  0  0  0  0  0  0  0  0  0  0  0
  128.0650  127.9510   68.2710 C   0  0  0  0  0  0  0  0  0  0  0  0
  127.6720  127.2580   69.5670 C   0  0  0  0  0  0  0  0  0  0  0  0
  128.2360  127.3750   70.7890 C   0  0  0  0  0  0  0  0  0  0  0  0
  129.4160  128.2900   71.1150 C   0  0  0  0  0  0  0  0  0  0  0  0
  127.6880  126.5820   71.9710 C   0  0  0  0  0  0  0  0  0  0  0  0
  128.4430  125.4000   72.1480 O   0  0  0  0  0  0  0  0  0  0  0  0
  128.7330  127.2410   65.9090 C   0  0  0  0  0  0  0  0  0  0  0  0
  128.0420  128.3380   65.4490 O   0  0  0  0  0  0  0  0  0  0  0  0
  129.3940  126.3740   65.0120 C   0  0  0  0  0  0  0  0  0  0  0  0
  129.4450  126.5610   63.5200 C   0  0  0  0  0  0  0  0  0  0  0  0
  128.6770  127.3310   62.9470 O   0  0  0  0  0  0  0  0  0  0  0  0
  130.6040  125.8940   62.8200 C   0  0  0  0  0  0  0  0  0  0  0  0
  131.1380  126.2710   61.5570 C   0  0  0  0  0  0  0  0  0  0  0  0
  130.5320  127.4080   60.7170 C   0  0  0  0  0  0  0  0  0  0  0  0
  130.9850  128.7720   61.2150 C   0  0  0  0  0  0  0  0  0  0  0  0
  130.4110  129.9760   60.9940 C   0  0  0  0  0  0  0  0  0  0  0  0
  129.0990  130.1610   60.2410 C   0  0  0  0  0  0  0  0  0  0  0  0
  131.0370  131.2870   61.4750 C   0  0  0  0  0  0  0  0  0  0  0  0
  132.3640  131.7280   60.8130 C   0  0  0  0  0  0  0  0  0  0  0  0
  132.5090  131.2550   59.3690 C   0  0  0  0  0  0  0  0  0  0  0  0
  131.8000  131.6300   58.2820 C   0  0  0  0  0  0  0  0  0  0  0  0
  132.1120  131.0560   56.9090 C   0  0  0  0  0  0  0  0  0  0  0  0
  130.6510  132.6300   58.2800 C   0  0  0  0  0  0  0  0  0  0  0  0
  130.4665  125.6996   58.7385 H   0  0  0  0  0  0  0  0  0  0  0  0
  131.4380  126.3465   57.3732 H   0  0  0  0  0  0  0  0  0  0  0  0
  130.9235  124.6255   57.3732 H   0  0  0  0  0  0  0  0  0  0  0  0
  134.0940  124.0340   60.3490 H   0  0  0  0  0  0  0  0  0  0  0  0
  132.7612  123.3227   63.5581 H   0  0  0  0  0  0  0  0  0  0  0  0
  130.7040  124.1760   67.2961 H   0  0  0  0  0  0  0  0  0  0  0  0
  128.8000  125.1130   69.4450 H   0  0  0  0  0  0  0  0  0  0  0  0
  128.7397  128.7871   68.5072 H   0  0  0  0  0  0  0  0  0  0  0  0
  127.1436  128.3041   67.7848 H   0  0  0  0  0  0  0  0  0  0  0  0
  126.8155  126.5710   69.5003 H   0  0  0  0  0  0  0  0  0  0  0  0
  129.5243  128.3740   72.2064 H   0  0  0  0  0  0  0  0  0  0  0  0
  130.3369  127.8675   70.6866 H   0  0  0  0  0  0  0  0  0  0  0  0
  129.2361  129.2871   70.6866 H   0  0  0  0  0  0  0  0  0  0  0  0
  127.7509  127.1950   72.8822 H   0  0  0  0  0  0  0  0  0  0  0  0
  126.6390  126.3160   71.7739 H   0  0  0  0  0  0  0  0  0  0  0  0
  128.8010  125.1370   71.2980 H   0  0  0  0  0  0  0  0  0  0  0  0
  127.5530  128.1570   64.6440 H   0  0  0  0  0  0  0  0  0  0  0  0
  130.8481  127.2866   59.6704 H   0  0  0  0  0  0  0  0  0  0  0  0
  129.4367  127.3553   60.8042 H   0  0  0  0  0  0  0  0  0  0  0  0
  131.8948  128.7798   61.8332 H   0  0  0  0  0  0  0  0  0  0  0  0
  128.2759  130.2771   60.9615 H   0  0  0  0  0  0  0  0  0  0  0  0
  129.1624  131.0591   59.6090 H   0  0  0  0  0  0  0  0  0  0  0  0
  128.9116  129.2804   59.6090 H   0  0  0  0  0  0  0  0  0  0  0  0
  130.3011  132.0864   61.3033 H   0  0  0  0  0  0  0  0  0  0  0  0
  131.2954  131.1051   62.5286 H   0  0  0  0  0  0  0  0  0  0  0  0
  132.4116  132.8269   60.8262 H   0  0  0  0  0  0  0  0  0  0  0  0
  133.1815  131.2688   61.3882 H   0  0  0  0  0  0  0  0  0  0  0  0
  133.2967  130.5085   59.1894 H   0  0  0  0  0  0  0  0  0  0  0  0
  132.6345  130.0948   57.0235 H   0  0  0  0  0  0  0  0  0  0  0  0
  131.1745  130.9001   56.3551 H   0  0  0  0  0  0  0  0  0  0  0  0
  132.7527  131.7579   56.3551 H   0  0  0  0  0  0  0  0  0  0  0  0
  130.3734  132.8716   59.3166 H   0  0  0  0  0  0  0  0  0  0  0  0
  130.9646  133.5478   57.7610 H   0  0  0  0  0  0  0  0  0  0  0  0
  129.7853  132.1928   57.7610 H   0  0  0  0  0  0  0  0  0  0  0  0
  1  2  1  0
  2  3  2  0
  2  4  1  0
  4  5  1  0
  5  6  2  0
  6  7  1  0
  6  8  1  0
  8  9  2  0
  9 10  1  0
 10 11  1  0
 11 12  2  0
 12 13  1  0
 13 14  1  0
 13 15  2  0
 15 16  1  0
 16 17  1  0
 17 18  2  0
 18 19  1  0
 18 20  1  0
 20 21  1  0
 15 22  1  0
 22 23  1  0
 22 24  2  0
 24 25  1  0
 25 26  2  0
 25 27  1  0
 27 28  2  0
 28 29  1  0
 29 30  1  0
 30 31  2  0
 31 32  1  0
 31 33  1  0
 33 34  1  0
 34 35  1  0
 35 36  2  3
 36 37  1  0
 36 38  1  0
 28  5  1  0
 27  9  1  0
 24 11  1  0
  1 39  1  0
  1 40  1  0
  1 41  1  0
  7 42  1  0
  8 43  1  0
 12 44  1  0
 14 45  1  0
 16 46  1  0
 16 47  1  0
 17 48  1  0
 19 49  1  0
 19 50  1  0
 19 51  1  0
 20 52  1  0
 20 53  1  0
 21 54  1  0
 23 55  1  0
 29 56  1  0
 29 57  1  0
 30 58  1  0
 32 59  1  0
 32 60  1  0
 32 61  1  0
 33 62  1  0
 33 63  1  0
 34 64  1  0
 34 65  1  0
 35 66  1  0
 37 67  1  0
 37 68  1  0
 37 69  1  0
 38 70  1  0
 38 71  1  0
 38 72  1  0
M  END
>  <Binding energies>  (1) 
[-7.04]

>  <Ligand effiencies>  (1) 
[-0.1676190476190476]

>  <Interactions>  (1) 
["V-B:GLU:543:C:9874, V-B:HIS:456:CD2:9039, H-B:GLU:543:O:9875, V-B:GLU:543:CB:9878, H-B:LYS:547:NZ:9923, V-B:TYR:539:CE2:9848, V-A:TYR:484:CE2:4346, V-B:GLU:543:CG:9879, V-A:ASP:366:CG:3213, V-A:LEU:363:CD1:3189, V-B:TYR:539:CZ:9849, H-B:GLU:543:OE1:9881, V-A:TYR:531:CE2:4793, H-B:TYR:539:OH:9850, V-B:LYS:547:CE:9922, V-A:TYR:484:CZ:4347, V-A:GLU:543:CD:4908, V-B:GLU:543:CA:9876, V-B:HIS:456:CE1:9041, V-A:HIS:456:CE1:4070, V-B:GLY:544:C:9884, V-B:GLY:544:CA:9886, V-A:TYR:531:CZ:4794, V-B:GLU:543:CD:9880, V-A:TYR:539:C:4867, V-A:ASP:366:CB:3212, H-A:ASP:366:OD1:3214, V-A:PRO:540:N:4884, H-B:GLU:543:OE2:9882, V-A:PRO:540:CB:4885, V-A:PRO:540:CA:4883, V-A:PRO:540:CD:4887, H-A:HIS:456:NE2:4071, H-A:TYR:484:OH:4348"]

$$$$
ZINC238789745-again1
     RDKit          3D

 70 72  0  0  0  0  0  0  0  0999 V2000
  128.3460  132.9300   59.2080 C   0  0  0  0  0  0  0  0  0  0  0  0
  128.9330  132.9530   57.8020 C   0  0  0  0  0  0  0  0  0  0  0  0
  129.9380  133.6190   57.5420 O   0  0  0  0  0  0  0  0  0  0  0  0
  128.2270  132.1680   56.9410 O   0  0  0  0  0  0  0  0  0  0  0  0
  127.7700  130.9270   57.3650 C   0  0  0  0  0  0  0  0  0  0  0  0
  126.4930  130.7990   57.9630 C   0  0  0  0  0  0  0  0  0  0  0  0
  125.7110  131.7970   58.1310 O   0  0  0  0  0  0  0  0  0  0  0  0
  126.0560  129.5540   58.4100 C   0  0  0  0  0  0  0  0  0  0  0  0
  126.8650  128.4370   58.2510 C   0  0  0  0  0  0  0  0  0  0  0  0
  126.3810  127.2470   58.7550 O   0  0  0  0  0  0  0  0  0  0  0  0
  127.2980  126.3280   59.2250 C   0  0  0  0  0  0  0  0  0  0  0  0
  126.8780  125.5250   60.2730 C   0  0  0  0  0  0  0  0  0  0  0  0
  127.7490  124.6010   60.8310 C   0  0  0  0  0  0  0  0  0  0  0  0
  127.2720  123.8230   61.8570 O   0  0  0  0  0  0  0  0  0  0  0  0
  129.0680  124.4760   60.3570 C   0  0  0  0  0  0  0  0  0  0  0  0
  130.0000  123.4600   61.0530 C   0  0  0  0  0  0  0  0  0  0  0  0
  130.6900  124.0400   62.2800 C   0  0  0  0  0  0  0  0  0  0  0  0
  131.9700  124.4550   62.4090 C   0  0  0  0  0  0  0  0  0  0  0  0
  133.0110  124.4230   61.2900 C   0  0  0  0  0  0  0  0  0  0  0  0
  132.4670  125.0190   63.7350 C   0  0  0  0  0  0  0  0  0  0  0  0
  133.2490  124.0510   64.4030 O   0  0  0  0  0  0  0  0  0  0  0  0
  129.5000  125.2960   59.2770 C   0  0  0  0  0  0  0  0  0  0  0  0
  130.7050  125.1810   58.8500 O   0  0  0  0  0  0  0  0  0  0  0  0
  128.6000  126.2450   58.7030 C   0  0  0  0  0  0  0  0  0  0  0  0
  128.8990  127.2270   57.5880 C   0  0  0  0  0  0  0  0  0  0  0  0
  129.8180  127.0580   56.7870 O   0  0  0  0  0  0  0  0  0  0  0  0
  128.1380  128.5230   57.6680 C   0  0  0  0  0  0  0  0  0  0  0  0
  128.6150  129.7940   57.2530 C   0  0  0  0  0  0  0  0  0  0  0  0
  130.0580  129.9780   56.7400 C   0  0  0  0  0  0  0  0  0  0  0  0
  130.9400  130.7160   57.7430 C   0  0  0  0  0  0  0  0  0  0  0  0
  131.3350  130.2960   58.9680 C   0  0  0  0  0  0  0  0  0  0  0  0
  131.0090  128.9220   59.5390 C   0  0  0  0  0  0  0  0  0  0  0  0
  132.1520  131.1640   59.9280 C   0  0  0  0  0  0  0  0  0  0  0  0
  131.9180  130.9660   61.4400 C   0  0  0  0  0  0  0  0  0  0  0  0
  130.8080  131.8460   61.9940 C   0  0  0  0  0  0  0  0  0  0  0  0
  129.4940  131.5520   62.0990 C   0  0  0  0  0  0  0  0  0  0  0  0
  128.5040  132.5580   62.6620 C   0  0  0  0  0  0  0  0  0  0  0  0
  128.8650  130.2230   61.7000 C   0  0  0  0  0  0  0  0  0  0  0  0
  129.1609  132.9619   59.9461 H   0  0  0  0  0  0  0  0  0  0  0  0
  127.6915  133.8032   59.3464 H   0  0  0  0  0  0  0  0  0  0  0  0
  127.7618  132.0083   59.3464 H   0  0  0  0  0  0  0  0  0  0  0  0
  125.0705  129.4560   58.8887 H   0  0  0  0  0  0  0  0  0  0  0  0
  125.8537  125.6203   60.6626 H   0  0  0  0  0  0  0  0  0  0  0  0
  126.8910  124.3450   62.5650 H   0  0  0  0  0  0  0  0  0  0  0  0
  129.4028  122.5900   61.3635 H   0  0  0  0  0  0  0  0  0  0  0  0
  130.7830  123.1800   60.3329 H   0  0  0  0  0  0  0  0  0  0  0  0
  130.0646  124.1337   63.1800 H   0  0  0  0  0  0  0  0  0  0  0  0
  134.0195  124.3920   61.7282 H   0  0  0  0  0  0  0  0  0  0  0  0
  132.8537  123.5293   60.6683 H   0  0  0  0  0  0  0  0  0  0  0  0
  132.9089  125.3247   60.6683 H   0  0  0  0  0  0  0  0  0  0  0  0
  133.0774  125.9142   63.5453 H   0  0  0  0  0  0  0  0  0  0  0  0
  131.6040  125.2854   64.3629 H   0  0  0  0  0  0  0  0  0  0  0  0
  132.6890  123.5940   65.0340 H   0  0  0  0  0  0  0  0  0  0  0  0
  130.4942  128.9866   56.5479 H   0  0  0  0  0  0  0  0  0  0  0  0
  130.0141  130.5826   55.8221 H   0  0  0  0  0  0  0  0  0  0  0  0
  131.2980  131.7090   57.4334 H   0  0  0  0  0  0  0  0  0  0  0  0
  131.0203  128.9695   60.6379 H   0  0  0  0  0  0  0  0  0  0  0  0
  130.0118  128.6095   59.1957 H   0  0  0  0  0  0  0  0  0  0  0  0
  131.7595  128.1948   59.1957 H   0  0  0  0  0  0  0  0  0  0  0  0
  133.2153  130.9636   59.7299 H   0  0  0  0  0  0  0  0  0  0  0  0
  131.8222  132.1936   59.7253 H   0  0  0  0  0  0  0  0  0  0  0  0
  131.6517  129.9136   61.6179 H   0  0  0  0  0  0  0  0  0  0  0  0
  132.8479  131.2492   61.9549 H   0  0  0  0  0  0  0  0  0  0  0  0
  131.1118  132.8408   62.3519 H   0  0  0  0  0  0  0  0  0  0  0  0
  128.5346  132.5269   63.7611 H   0  0  0  0  0  0  0  0  0  0  0  0
  128.7705  133.5677   62.3162 H   0  0  0  0  0  0  0  0  0  0  0  0
  127.4902  132.3077   62.3162 H   0  0  0  0  0  0  0  0  0  0  0  0
  128.5974  129.6576   62.6049 H   0  0  0  0  0  0  0  0  0  0  0  0
  127.9599  130.4101   61.1035 H   0  0  0  0  0  0  0  0  0  0  0  0
  129.5835  129.6417   61.1035 H   0  0  0  0  0  0  0  0  0  0  0  0
  1  2  1  0
  2  3  2  0
  2  4  1  0
  4  5  1  0
  5  6  2  0
  6  7  1  0
  6  8  1  0
  8  9  2  0
  9 10  1  0
 10 11  1  0
 11 12  2  0
 12 13  1  0
 13 14  1  0
 13 15  2  0
 15 16  1  0
 16 17  1  0
 17 18  2  0
 18 19  1  0
 18 20  1  0
 20 21  1  0
 15 22  1  0
 22 23  1  0
 22 24  2  0
 24 25  1  0
 25 26  2  0
 25 27  1  0
 27 28  2  0
 28 29  1  0
 29 30  1  0
 30 31  2  0
 31 32  1  0
 31 33  1  0
 33 34  1  0
 34 35  1  0
 35 36  2  3
 36 37  1  0
 36 38  1  0
 28  5  1  0
 27  9  1  0
 24 11  1  0
  1 39  1  0
  1 40  1  0
  1 41  1  0
  8 42  1  0
 12 43  1  0
 14 44  1  0
 16 45  1  0
 16 46  1  0
 17 47  1  0
 19 48  1  0
 19 49  1  0
 19 50  1  0
 20 51  1  0
 20 52  1  0
 21 53  1  0
 29 54  1  0
 29 55  1  0
 30 56  1  0
 32 57  1  0
 32 58  1  0
 32 59  1  0
 33 60  1  0
 33 61  1  0
 34 62  1  0
 34 63  1  0
 35 64  1  0
 37 65  1  0
 37 66  1  0
 37 67  1  0
 38 68  1  0
 38 69  1  0
 38 70  1  0
M  CHG  2   7  -1  23  -1
M  END
>  <Binding energies>  (1) 
[-5.67]

>  <Ligand effiencies>  (1) 
[-0.14175]

>  <Interactions>  (1) 
["H-A:TYR:531:OH:4795, V-A:ASP:366:CG:3213, V-A:TYR:539:CD1:4873, H-B:GLU:543:OE1:9881, H-B:TYR:539:OH:9850, V-A:ALA:541:CB:4892, H-A:GLY:454:N:4050, V-A:MET:535:CE:4835, V-A:TYR:539:C:4867, H-B:TYR:531:OH:9767, V-A:ARG:545:CZ:4926, V-A:PRO:540:N:4884, V-A:TYR:539:CG:4872, H-A:TYR:539:N:4870, V-A:PRO:540:CB:4885, V-A:PRO:540:CA:4883, H-A:TYR:539:OH:4878, V-A:TYR:539:CE1:4875, H-A:TYR:484:OH:4348"]

$$$$
ZINC2391252
     RDKit          3D

 39 38  0  0  0  0  0  0  0  0999 V2000
  126.0450  131.0910   56.6520 C   0  0  0  0  0  0  0  0  0  0  0  0
  127.4030  131.8020   56.7190 C   0  0  0  0  0  0  0  0  0  0  0  0
  128.0230  131.6320   57.9820 O   0  0  0  0  0  0  0  0  0  0  0  0
  129.4570  132.5390   58.3210 P   0  0  0  0  0  0  0  0  0  0  0  0
  129.9830  133.3640   57.1650 O   0  0  0  0  0  0  0  0  0  0  0  0
  129.1260  133.4550   59.7410 O   0  0  0  0  0  0  0  0  0  0  0  0
  127.7900  133.4480   60.2050 C   0  0  0  0  0  0  0  0  0  0  0  0
  127.7600  134.0400   61.6160 C   0  0  0  0  0  0  0  0  0  0  0  0
  130.5890  131.2150   59.0000 C   0  0  0  0  0  0  0  0  0  0  0  0
  130.2540  129.7170   58.0940 Cl  0  0  0  0  0  0  0  0  0  0  0  0
  132.2490  131.7190   58.5990 Cl  0  0  0  0  0  0  0  0  0  0  0  0
  130.5710  130.7550   60.8140 P   0  0  0  0  0  0  0  0  0  0  0  0
  131.1490  129.3990   61.1710 O   0  0  0  0  0  0  0  0  0  0  0  0
  131.3810  132.1070   61.5270 O   0  0  0  0  0  0  0  0  0  0  0  0
  132.4760  131.8580   62.3930 C   0  0  0  0  0  0  0  0  0  0  0  0
  133.8080  131.8450   61.6310 C   0  0  0  0  0  0  0  0  0  0  0  0
  128.8950  130.9520   61.1940 O   0  0  0  0  0  0  0  0  0  0  0  0
  128.4670  130.6390   62.5080 C   0  0  0  0  0  0  0  0  0  0  0  0
  129.0430  131.6320   63.5270 C   0  0  0  0  0  0  0  0  0  0  0  0
  125.6804  130.9001   57.6721 H   0  0  0  0  0  0  0  0  0  0  0  0
  125.3239  131.7273   56.1179 H   0  0  0  0  0  0  0  0  0  0  0  0
  126.1571  130.1359   56.1179 H   0  0  0  0  0  0  0  0  0  0  0  0
  128.0607  131.3879   55.9406 H   0  0  0  0  0  0  0  0  0  0  0  0
  127.2345  132.8777   56.5622 H   0  0  0  0  0  0  0  0  0  0  0  0
  127.1620  134.0540   59.5354 H   0  0  0  0  0  0  0  0  0  0  0  0
  127.4032  132.4184   60.2212 H   0  0  0  0  0  0  0  0  0  0  0  0
  127.8012  133.2269   62.3557 H   0  0  0  0  0  0  0  0  0  0  0  0
  128.6256  134.7047   61.7532 H   0  0  0  0  0  0  0  0  0  0  0  0
  126.8316  134.6138   61.7532 H   0  0  0  0  0  0  0  0  0  0  0  0
  132.5111  132.6461   63.1596 H   0  0  0  0  0  0  0  0  0  0  0  0
  132.3330  130.8688   62.8524 H   0  0  0  0  0  0  0  0  0  0  0  0
  134.6412  131.8369   62.3491 H   0  0  0  0  0  0  0  0  0  0  0  0
  133.8600  130.9463   60.9988 H   0  0  0  0  0  0  0  0  0  0  0  0
  133.8776  132.7425   60.9988 H   0  0  0  0  0  0  0  0  0  0  0  0
  127.3685  130.6800   62.5476 H   0  0  0  0  0  0  0  0  0  0  0  0
  128.8251  129.6303   62.7616 H   0  0  0  0  0  0  0  0  0  0  0  0
  128.8351  131.2737   64.5460 H   0  0  0  0  0  0  0  0  0  0  0  0
  130.1302  131.7163   63.3826 H   0  0  0  0  0  0  0  0  0  0  0  0
  128.5764  132.6176   63.3826 H   0  0  0  0  0  0  0  0  0  0  0  0
  1  2  1  0
  2  3  1  0
  3  4  1  0
  4  5  2  0
  4  6  1  0
  6  7  1  0
  7  8  1  0
  4  9  1  0
  9 10  1  0
  9 11  1  0
  9 12  1  0
 12 13  2  0
 12 14  1  0
 14 15  1  0
 15 16  1  0
 12 17  1  0
 17 18  1  0
 18 19  1  0
  1 20  1  0
  1 21  1  0
  1 22  1  0
  2 23  1  0
  2 24  1  0
  7 25  1  0
  7 26  1  0
  8 27  1  0
  8 28  1  0
  8 29  1  0
 15 30  1  0
 15 31  1  0
 16 32  1  0
 16 33  1  0
 16 34  1  0
 18 35  1  0
 18 36  1  0
 19 37  1  0
 19 38  1  0
 19 39  1  0
M  END
>  <Binding energies>  (1) 
[-4.02]

>  <Ligand effiencies>  (1) 
[-0.21157894736842103]

>  <Interactions>  (1) 
["V-A:ALA:541:C:4888, H-A:ALA:541:N:4891, V-B:LEU:475:CD2:9230, V-A:ASN:362:CB:3176, V-A:LEU:363:CD1:3189, V-A:TYR:539:CD1:4873, V-A:TYR:539:CZ:4877, V-A:ALA:541:CB:4892, V-A:GLU:543:CD:4908, V-A:GLU:543:CG:4907, V-A:MET:535:CE:4835, V-A:TYR:539:C:4867, V-A:ASN:362:C:3172, V-A:PRO:540:N:4884, H-A:TYR:539:N:4870, V-A:PRO:540:CB:4885, V-A:PRO:540:CA:4883, V-A:ASN:362:CA:3174, V-A:LEU:363:CA:3185, V-A:TYR:539:CE1:4875"]

$$$$
ZINC2399477
     RDKit          3D

 57 60  0  0  0  0  0  0  0  0999 V2000
  128.8410  127.0590   70.9720 C   0  0  0  0  0  0  0  0  0  0  0  0
  129.4700  126.9220   69.5710 C   0  0  0  0  0  0  0  0  0  0  0  0
  130.4550  128.0730   69.3010 C   0  0  0  0  0  0  0  0  0  0  0  0
  128.4190  126.8370   68.4340 C   0  0  0  0  0  0  0  0  0  0  0  0
  128.9680  126.6290   67.0710 N   0  0  0  0  0  0  0  0  0  0  0  0
  129.7060  125.5210   66.7940 C   0  0  0  0  0  0  0  0  0  0  0  0
  129.9840  124.6410   67.6150 O   0  0  0  0  0  0  0  0  0  0  0  0
  130.1050  125.5270   65.4060 C   0  0  0  0  0  0  0  0  0  0  0  0
  130.8380  124.5240   64.8710 C   0  0  0  0  0  0  0  0  0  0  0  0
  131.2380  124.4570   63.4650 C   0  0  0  0  0  0  0  0  0  0  0  0
  130.3420  124.4540   62.4320 C   0  0  0  0  0  0  0  0  0  0  0  0
  128.9780  124.5010   62.6440 N   0  0  0  0  0  0  0  0  0  0  0  0
  127.9120  124.6830   61.6600 C   0  0  0  0  0  0  0  0  0  0  0  0
  127.2040  123.3740   61.2440 C   0  0  1  0  0  0  0  0  0  0  0  0
  126.0350  123.1820   62.0230 O   0  0  0  0  0  0  0  0  0  0  0  0
  126.9160  123.3550   59.7440 C   0  0  0  0  0  0  0  0  0  0  0  0
  125.7190  123.8750   59.2380 C   0  0  0  0  0  0  0  0  0  0  0  0
  125.4760  123.8660   57.8670 C   0  0  0  0  0  0  0  0  0  0  0  0
  126.4330  123.3410   57.0010 C   0  0  0  0  0  0  0  0  0  0  0  0
  127.6310  122.8280   57.4940 C   0  0  0  0  0  0  0  0  0  0  0  0
  127.8730  122.8360   58.8650 C   0  0  0  0  0  0  0  0  0  0  0  0
  130.7240  124.4230   61.1210 N   0  0  0  0  0  0  0  0  0  0  0  0
  131.9710  124.3980   60.8150 C   0  0  0  0  0  0  0  0  0  0  0  0
  132.4110  124.3730   59.4290 C   0  0  0  0  0  0  0  0  0  0  0  0
  133.7200  124.3440   59.0910 C   0  0  0  0  0  0  0  0  0  0  0  0
  134.7320  124.3370   60.1360 C   0  0  0  0  0  0  0  0  0  0  0  0
  134.3030  124.3610   61.4170 C   0  0  0  0  0  0  0  0  0  0  0  0
  132.9650  124.3930   61.8130 N   0  0  0  0  0  0  0  0  0  0  0  0
  132.6730  124.4130   63.1650 C   0  0  0  0  0  0  0  0  0  0  0  0
  133.5180  124.3990   64.0670 O   0  0  0  0  0  0  0  0  0  0  0  0
  129.5030  126.9790   64.6100 S   0  0  0  0  0  0  0  0  0  0  0  0
  128.7170  127.5220   66.0630 C   0  0  0  0  0  0  0  0  0  0  0  0
  127.8330  128.9370   66.0390 S   0  0  0  0  0  0  0  0  0  0  0  0
  129.6122  126.8910   71.7382 H   0  0  0  0  0  0  0  0  0  0  0  0
  128.4222  128.0694   71.0887 H   0  0  0  0  0  0  0  0  0  0  0  0
  128.0399  126.3143   71.0887 H   0  0  0  0  0  0  0  0  0  0  0  0
  130.0146  125.9663   69.5710 H   0  0  0  0  0  0  0  0  0  0  0  0
  130.8080  128.4855   70.2577 H   0  0  0  0  0  0  0  0  0  0  0  0
  131.3129  127.6942   68.7262 H   0  0  0  0  0  0  0  0  0  0  0  0
  129.9482  128.8621   68.7262 H   0  0  0  0  0  0  0  0  0  0  0  0
  127.7434  125.9985   68.6589 H   0  0  0  0  0  0  0  0  0  0  0  0
  127.9182  127.8161   68.4118 H   0  0  0  0  0  0  0  0  0  0  0  0
  131.1537  123.7062   65.5355 H   0  0  0  0  0  0  0  0  0  0  0  0
  128.6650  124.6980   63.5830 H   0  0  0  0  0  0  0  0  0  0  0  0
  127.1593  125.3613   62.0882 H   0  0  0  0  0  0  0  0  0  0  0  0
  128.3845  125.0888   60.7533 H   0  0  0  0  0  0  0  0  0  0  0  0
  127.8766  122.5264   61.4420 H   0  0  0  0  0  0  0  0  0  0  0  0
  126.0050  123.8630   62.6980 H   0  0  0  0  0  0  0  0  0  0  0  0
  124.9682  124.2919   59.9254 H   0  0  0  0  0  0  0  0  0  0  0  0
  124.5336  124.2712   57.4697 H   0  0  0  0  0  0  0  0  0  0  0  0
  126.2409  123.3314   55.9179 H   0  0  0  0  0  0  0  0  0  0  0  0
  128.3824  122.4184   56.8029 H   0  0  0  0  0  0  0  0  0  0  0  0
  128.8183  122.4336   59.2580 H   0  0  0  0  0  0  0  0  0  0  0  0
  131.6548  124.3778   58.6302 H   0  0  0  0  0  0  0  0  0  0  0  0
  134.0178  124.3258   58.0322 H   0  0  0  0  0  0  0  0  0  0  0  0
  135.8045  124.3131   59.8928 H   0  0  0  0  0  0  0  0  0  0  0  0
  135.0668  124.3548   62.2085 H   0  0  0  0  0  0  0  0  0  0  0  0
  1  2  1  0
  2  3  1  0
  2  4  1  0
  4  5  1  0
  5  6  1  0
  6  7  2  0
  6  8  1  0
  8  9  2  0
  9 10  1  0
 10 11  2  0
 11 12  1  0
 12 13  1  0
 13 14  1  0
 14 15  1  0
 14 16  1  0
 16 17  2  0
 17 18  1  0
 18 19  2  0
 19 20  1  0
 20 21  2  0
 11 22  1  0
 22 23  2  0
 23 24  1  0
 24 25  2  0
 25 26  1  0
 26 27  2  0
 27 28  1  0
 28 29  1  0
 29 30  2  0
  8 31  1  0
 31 32  1  0
 32 33  2  0
 32  5  1  0
 29 10  1  0
 21 16  1  0
 28 23  1  0
  1 34  1  0
  1 35  1  0
  1 36  1  0
  2 37  1  0
  3 38  1  0
  3 39  1  0
  3 40  1  0
  4 41  1  0
  4 42  1  0
  9 43  1  0
 12 44  1  0
 13 45  1  0
 13 46  1  0
 14 47  1  6
 15 48  1  0
 17 49  1  0
 18 50  1  0
 19 51  1  0
 20 52  1  0
 21 53  1  0
 24 54  1  0
 25 55  1  0
 26 56  1  0
 27 57  1  0
M  END
>  <Binding energies>  (1) 
[-9.92]

>  <Ligand effiencies>  (1) 
[-0.2834285714285714]

>  <Interactions>  (1) 
["V-A:ILE:369:CG2:3237, V-A:ASP:366:CA:3210, V-B:PRO:540:CA:9855, V-A:GLU:543:CA:4904, V-B:GLU:543:C:9874, V-A:ILE:369:CB:3236, V-A:GLU:543:C:4902, V-B:GLU:543:CB:9878, V-B:TYR:539:CE2:9848, H-B:ALA:541:O:9861, V-B:GLU:543:CG:9879, V-B:TYR:539:C:9839, V-A:ASP:366:CG:3213, V-B:TYR:539:CZ:9849, H-B:GLU:543:OE1:9881, H-B:ALA:541:N:9863, V-A:GLU:543:CD:4908, V-B:PRO:540:CB:9857, H-A:GLY:454:N:4050, V-B:PRO:540:N:9856, V-A:ILE:369:CD1:3239, V-A:HIS:456:CE1:4070, V-B:TYR:539:CD2:9846, V-A:GLU:543:CG:4907, V-B:GLU:543:CD:9880, V-A:ILE:369:CG1:3238, V-A:ASP:366:CB:3212, H-A:ARG:545:NH2:4928, V-B:TYR:539:CG:9844, V-A:GLU:543:CB:4906, V-B:TYR:539:CD1:9845, V-B:TYR:539:CE1:9847, H-A:TYR:484:OH:4348"]

$$$$
ZINC24037999
     RDKit          3D

 33 35  0  0  0  0  0  0  0  0999 V2000
  133.5880  122.6750   63.0320 C   0  0  0  0  0  0  0  0  0  0  0  0
  133.2130  123.5770   61.8750 C   0  0  0  0  0  0  0  0  0  0  0  0
  133.7050  123.1340   60.2640 S   0  0  0  0  0  0  0  0  0  0  0  0
  132.9650  124.5390   59.6060 C   0  0  0  0  0  0  0  0  0  0  0  0
  132.9990  124.7990   58.2730 N   0  0  0  0  0  0  0  0  0  0  0  0
  132.4220  125.8810   57.8930 C   0  0  0  0  0  0  0  0  0  0  0  0
  131.7980  126.7720   58.7820 N   0  0  0  0  0  0  0  0  0  0  0  0
  131.1230  127.9050   58.3390 N   0  0  0  0  0  0  0  0  0  0  0  0
  131.7180  129.0390   58.2710 C   0  0  0  0  0  0  0  0  0  0  0  0
  131.0350  130.2340   57.7840 C   0  0  0  0  0  0  0  0  0  0  0  0
  129.6520  130.2130   57.5380 C   0  0  0  0  0  0  0  0  0  0  0  0
  128.9290  129.0840   57.7460 F   0  0  0  0  0  0  0  0  0  0  0  0
  128.9990  131.3570   57.0750 C   0  0  0  0  0  0  0  0  0  0  0  0
  127.6650  131.3270   56.8440 F   0  0  0  0  0  0  0  0  0  0  0  0
  129.7170  132.5320   56.8530 C   0  0  0  0  0  0  0  0  0  0  0  0
  129.0810  133.6400   56.4060 F   0  0  0  0  0  0  0  0  0  0  0  0
  131.0910  132.5640   57.0910 C   0  0  0  0  0  0  0  0  0  0  0  0
  131.7870  133.7030   56.8740 F   0  0  0  0  0  0  0  0  0  0  0  0
  131.7490  131.4210   57.5530 C   0  0  0  0  0  0  0  0  0  0  0  0
  133.0860  131.4790   57.7760 F   0  0  0  0  0  0  0  0  0  0  0  0
  131.6730  126.5670   60.1620 C   0  0  0  0  0  0  0  0  0  0  0  0
  131.0670  127.3310   60.9220 O   0  0  0  0  0  0  0  0  0  0  0  0
  132.3600  125.3290   60.5810 C   0  0  0  0  0  0  0  0  0  0  0  0
  132.4860  124.7830   61.8830 C   0  0  0  0  0  0  0  0  0  0  0  0
  131.9820  125.4450   63.1540 C   0  0  0  0  0  0  0  0  0  0  0  0
  133.3746  123.1883   63.9812 H   0  0  0  0  0  0  0  0  0  0  0  0
  133.0016  121.7459   62.9776 H   0  0  0  0  0  0  0  0  0  0  0  0
  134.6602  122.4355   62.9776 H   0  0  0  0  0  0  0  0  0  0  0  0
  132.4159  126.1220   56.8198 H   0  0  0  0  0  0  0  0  0  0  0  0
  132.7689  129.1132   58.5874 H   0  0  0  0  0  0  0  0  0  0  0  0
  132.3860  124.9144   64.0288 H   0  0  0  0  0  0  0  0  0  0  0  0
  132.3122  126.4940   63.1768 H   0  0  0  0  0  0  0  0  0  0  0  0
  130.8829  125.4059   63.1768 H   0  0  0  0  0  0  0  0  0  0  0  0
  1  2  1  0
  2  3  1  0
  3  4  1  0
  4  5  1  0
  5  6  2  0
  6  7  1  0
  7  8  1  0
  8  9  2  0
  9 10  1  0
 10 11  2  0
 11 12  1  0
 11 13  1  0
 13 14  1  0
 13 15  2  0
 15 16  1  0
 15 17  1  0
 17 18  1  0
 17 19  2  0
 19 20  1  0
  7 21  1  0
 21 22  2  0
 21 23  1  0
 23 24  1  0
 24 25  1  0
 24  2  2  0
 23  4  2  0
 19 10  1  0
  1 26  1  0
  1 27  1  0
  1 28  1  0
  6 29  1  0
  9 30  1  0
 25 31  1  0
 25 32  1  0
 25 33  1  0
M  END
>  <Binding energies>  (1) 
[-5.57]

>  <Ligand effiencies>  (1) 
[-0.2228]

>  <Interactions>  (1) 
["V-A:ILE:369:CG2:3237, V-A:ASP:366:CA:3210, V-A:ILE:538:C:4858, V-A:PRO:540:CG:4886, V-A:GLY:454:CA:4049, V-A:ILE:369:CB:3236, V-A:ILE:538:CB:4862, H-A:TYR:531:OH:4795, V-B:TYR:539:CE2:9848, V-A:TYR:539:CE2:4876, V-A:ASP:366:CG:3213, V-A:ILE:538:CG2:4863, V-A:LEU:363:CD1:3189, V-A:TYR:539:CD1:4873, V-A:LEU:363:CG:3188, V-A:ILE:538:CA:4860, H-B:TYR:539:OH:9850, V-A:TYR:539:CA:4869, V-A:ILE:369:CD1:3239, V-A:MET:535:CE:4835, V-A:TYR:539:C:4867, V-A:ASP:366:CB:3212, V-A:LEU:475:CD2:4259, V-A:ARG:545:CZ:4926, V-A:PRO:540:N:4884, V-A:TYR:539:CG:4872, V-A:PRO:540:CB:4885, V-A:LEU:363:CA:3185, V-A:PRO:540:CA:4883, V-A:TYR:539:CD2:4874, V-A:PRO:540:CD:4887, V-A:TYR:539:CE1:4875"]

$$$$
ZINC245242033
     RDKit          3D

 91 95  0  0  0  0  0  0  0  0999 V2000
  129.5660  132.6080   60.2880 C   0  0  0  0  0  0  0  0  0  0  0  0
  129.3750  132.1730   61.7730 C   0  0  0  0  0  0  0  0  0  0  0  0
  130.7990  131.8130   62.3040 C   0  0  0  0  0  0  0  0  0  0  0  0
  128.6030  133.1950   62.6310 C   0  0  1  0  0  0  0  0  0  0  0  0
  127.2010  133.2740   61.9790 C   0  0  0  0  0  0  0  0  0  0  0  0
  126.9540  131.8040   61.5850 C   0  0  0  0  0  0  0  0  0  0  0  0
  128.2750  131.1000   62.0090 C   0  0  1  0  0  0  0  0  0  0  0  0
  128.4990  129.7410   61.3100 C   0  0  0  0  0  0  0  0  0  0  0  0
  128.2330  131.0240   63.5540 C   0  0  0  0  0  0  0  0  0  0  0  0
  128.0740  129.9520   64.3490 C   0  0  0  0  0  0  0  0  0  0  0  0
  128.0750  130.0150   65.7000 O   0  0  0  0  0  0  0  0  0  0  0  0
  127.2060  129.0980   66.3590 C   0  0  0  0  0  0  0  0  0  0  0  0
  128.0010  128.3250   67.4320 C   0  0  1  0  0  0  0  0  0  0  0  0
  127.1850  127.2770   67.9200 O   0  0  0  0  0  0  0  0  0  0  0  0
  129.3250  127.6770   66.9570 C   0  0  0  0  0  0  0  0  0  0  0  0
  129.1100  126.3930   66.2750 N   0  0  0  0  0  0  0  0  0  0  0  0
  129.9710  125.3390   66.8340 C   0  0  0  0  0  0  0  0  0  0  0  0
  129.6880  123.9870   66.1380 C   0  0  0  0  0  0  0  0  0  0  0  0
  129.9570  124.0930   64.6960 N   0  0  0  0  0  0  0  0  0  0  0  0
  129.7170  122.8290   63.9890 C   0  0  0  0  0  0  0  0  0  0  0  0
  128.6640  122.9250   62.8540 C   0  0  2  0  0  0  0  0  0  0  0  0
  127.3530  122.8460   63.3840 O   0  0  0  0  0  0  0  0  0  0  0  0
  128.8660  121.8450   61.7600 C   0  0  0  0  0  0  0  0  0  0  0  0
  129.6120  122.2960   60.6310 O   0  0  0  0  0  0  0  0  0  0  0  0
  130.9650  121.9320   60.7640 N   0  0  0  0  0  0  0  0  0  0  0  0
  131.6890  122.9670   60.8980 C   0  0  0  0  0  0  0  0  0  0  0  0
  131.2770  124.4500   60.9460 C   0  0  0  0  0  0  0  0  0  0  0  0
  132.6330  125.1610   61.1680 C   0  0  2  0  0  0  0  0  0  0  0  0
  133.4290  125.0950   59.8380 C   0  0  0  0  0  0  0  0  0  0  0  0
  133.8080  123.5970   59.7800 C   0  0  0  0  0  0  0  0  0  0  0  0
  133.2270  123.0220   61.1110 C   0  0  2  0  0  0  0  0  0  0  0  0
  133.8910  121.6940   61.5400 C   0  0  0  0  0  0  0  0  0  0  0  0
  133.3920  124.2040   62.1150 C   0  0  0  0  0  0  0  0  0  0  0  0
  134.8640  124.6330   62.4020 C   0  0  0  0  0  0  0  0  0  0  0  0
  132.7270  124.0170   63.5200 C   0  0  0  0  0  0  0  0  0  0  0  0
  129.1080  125.1510   64.1330 C   0  0  0  0  0  0  0  0  0  0  0  0
  129.3940  126.5000   64.8370 C   0  0  0  0  0  0  0  0  0  0  0  0
  128.4450  132.4790   63.9910 C   0  0  0  0  0  0  0  0  0  0  0  0
  130.0080  133.6147   60.2548 H   0  0  0  0  0  0  0  0  0  0  0  0
  130.2347  131.8970   59.7808 H   0  0  0  0  0  0  0  0  0  0  0  0
  128.5900  132.6192   59.7808 H   0  0  0  0  0  0  0  0  0  0  0  0
  130.7915  131.8149   63.4040 H   0  0  0  0  0  0  0  0  0  0  0  0
  131.0841  130.8145   61.9410 H   0  0  0  0  0  0  0  0  0  0  0  0
  131.5244  132.5560   61.9410 H   0  0  0  0  0  0  0  0  0  0  0  0
  129.0706  134.1866   62.7209 H   0  0  0  0  0  0  0  0  0  0  0  0
  126.4455  133.6292   62.6953 H   0  0  0  0  0  0  0  0  0  0  0  0
  127.1406  133.9777   61.1357 H   0  0  0  0  0  0  0  0  0  0  0  0
  126.0927  131.3886   62.1287 H   0  0  0  0  0  0  0  0  0  0  0  0
  126.7179  131.6754   60.5184 H   0  0  0  0  0  0  0  0  0  0  0  0
  128.6285  128.9553   62.0689 H   0  0  0  0  0  0  0  0  0  0  0  0
  127.6278  129.5039   60.6817 H   0  0  0  0  0  0  0  0  0  0  0  0
  129.4002  129.7960   60.6817 H   0  0  0  0  0  0  0  0  0  0  0  0
  127.9354  128.9692   63.8747 H   0  0  0  0  0  0  0  0  0  0  0  0
  126.3835  129.6500   66.8374 H   0  0  0  0  0  0  0  0  0  0  0  0
  126.7916  128.3904   65.6257 H   0  0  0  0  0  0  0  0  0  0  0  0
  128.2726  129.0792   68.1853 H   0  0  0  0  0  0  0  0  0  0  0  0
  127.1290  126.5990   67.2420 H   0  0  0  0  0  0  0  0  0  0  0  0
  129.8256  128.3665   66.2613 H   0  0  0  0  0  0  0  0  0  0  0  0
  129.9409  127.4835   67.8476 H   0  0  0  0  0  0  0  0  0  0  0  0
  131.0253  125.6124   66.6800 H   0  0  0  0  0  0  0  0  0  0  0  0
  129.7601  125.2383   67.9089 H   0  0  0  0  0  0  0  0  0  0  0  0
  130.3361  123.2117   66.5727 H   0  0  0  0  0  0  0  0  0  0  0  0
  128.6315  123.7200   66.2878 H   0  0  0  0  0  0  0  0  0  0  0  0
  130.6680  122.4935   63.5497 H   0  0  0  0  0  0  0  0  0  0  0  0
  129.3177  122.1225   64.7316 H   0  0  0  0  0  0  0  0  0  0  0  0
  128.8042  123.9041   62.3726 H   0  0  0  0  0  0  0  0  0  0  0  0
  126.9270  123.6990   63.2590 H   0  0  0  0  0  0  0  0  0  0  0  0
  129.3983  120.9933   62.2087 H   0  0  0  0  0  0  0  0  0  0  0  0
  127.8655  121.5728   61.3926 H   0  0  0  0  0  0  0  0  0  0  0  0
  130.8119  124.7652   60.0003 H   0  0  0  0  0  0  0  0  0  0  0  0
  130.5293  124.6749   61.7208 H   0  0  0  0  0  0  0  0  0  0  0  0
  132.5153  126.1945   61.5257 H   0  0  0  0  0  0  0  0  0  0  0  0
  132.8038  125.3848   58.9806 H   0  0  0  0  0  0  0  0  0  0  0  0
  134.2905  125.7777   59.7964 H   0  0  0  0  0  0  0  0  0  0  0  0
  133.3492  123.1089   58.9075 H   0  0  0  0  0  0  0  0  0  0  0  0
  134.8910  123.4327   59.6790 H   0  0  0  0  0  0  0  0  0  0  0  0
  133.9198  121.6364   62.6381 H   0  0  0  0  0  0  0  0  0  0  0  0
  133.3096  120.8485   61.1436 H   0  0  0  0  0  0  0  0  0  0  0  0
  134.9162  121.6518   61.1436 H   0  0  0  0  0  0  0  0  0  0  0  0
  135.0268  124.6805   63.4888 H   0  0  0  0  0  0  0  0  0  0  0  0
  135.5529  123.8983   61.9598 H   0  0  0  0  0  0  0  0  0  0  0  0
  135.0503  125.6228   61.9598 H   0  0  0  0  0  0  0  0  0  0  0  0
  133.4672  124.2251   64.3066 H   0  0  0  0  0  0  0  0  0  0  0  0
  131.8802  124.7118   63.6203 H   0  0  0  0  0  0  0  0  0  0  0  0
  132.3664  122.9826   63.6203 H   0  0  0  0  0  0  0  0  0  0  0  0
  129.3176  125.2510   63.0578 H   0  0  0  0  0  0  0  0  0  0  0  0
  128.0523  124.8832   64.2874 H   0  0  0  0  0  0  0  0  0  0  0  0
  130.4515  126.7671   64.6945 H   0  0  0  0  0  0  0  0  0  0  0  0
  128.7482  127.2763   64.4007 H   0  0  0  0  0  0  0  0  0  0  0  0
  127.5762  132.8613   64.5468 H   0  0  0  0  0  0  0  0  0  0  0  0
  129.2972  132.6210   64.6719 H   0  0  0  0  0  0  0  0  0  0  0  0
  1  2  1  0
  2  3  1  0
  2  4  1  0
  4  5  1  0
  5  6  1  0
  6  7  1  0
  7  8  1  6
  7  9  1  0
  9 10  2  0
 10 11  1  0
 11 12  1  0
 12 13  1  0
 13 14  1  0
 13 15  1  0
 15 16  1  0
 16 17  1  0
 17 18  1  0
 18 19  1  0
 19 20  1  0
 20 21  1  0
 21 22  1  0
 21 23  1  0
 23 24  1  0
 24 25  1  0
 25 26  2  0
 26 27  1  0
 27 28  1  0
 28 29  1  0
 29 30  1  0
 30 31  1  0
 31 32  1  1
 31 33  1  0
 33 34  1  0
 33 35  1  0
 19 36  1  0
 36 37  1  0
  9 38  1  0
  7  2  1  0
 37 16  1  0
 38  4  1  0
 31 26  1  0
 33 28  1  0
  1 39  1  0
  1 40  1  0
  1 41  1  0
  3 42  1  0
  3 43  1  0
  3 44  1  0
  4 45  1  1
  5 46  1  0
  5 47  1  0
  6 48  1  0
  6 49  1  0
  8 50  1  0
  8 51  1  0
  8 52  1  0
 10 53  1  0
 12 54  1  0
 12 55  1  0
 13 56  1  1
 14 57  1  0
 15 58  1  0
 15 59  1  0
 17 60  1  0
 17 61  1  0
 18 62  1  0
 18 63  1  0
 20 64  1  0
 20 65  1  0
 21 66  1  6
 22 67  1  0
 23 68  1  0
 23 69  1  0
 27 70  1  0
 27 71  1  0
 28 72  1  1
 29 73  1  0
 29 74  1  0
 30 75  1  0
 30 76  1  0
 32 77  1  0
 32 78  1  0
 32 79  1  0
 34 80  1  0
 34 81  1  0
 34 82  1  0
 35 83  1  0
 35 84  1  0
 35 85  1  0
 36 86  1  0
 36 87  1  0
 37 88  1  0
 37 89  1  0
 38 90  1  0
 38 91  1  0
M  END
>  <Binding energies>  (1) 
[-8.45]

>  <Ligand effiencies>  (1) 
[-0.21125]

>  <Interactions>  (1) 
["V-A:ILE:369:CG2:3237, V-A:ASP:366:CA:3210, V-B:PRO:540:CA:9855, V-A:ILE:369:CB:3236, V-B:GLU:543:CB:9878, V-B:ALA:541:CB:9864, V-B:TYR:539:CE2:9848, V-A:TYR:484:CE2:4346, H-B:ALA:541:O:9861, V-B:LEU:475:CD2:9230, V-B:GLU:543:CG:9879, V-A:ASP:366:CG:3213, H-B:GLU:543:OE1:9881, V-A:ALA:541:CB:4892, H-B:ALA:541:N:9863, V-A:TYR:484:CZ:4347, V-A:GLU:543:CD:4908, H-B:TYR:484:OH:9319, V-B:HIS:456:CE1:9041, V-B:GLU:543:CA:9876, V-A:SER:385:C:3405, V-A:GLY:453:C:4042, V-A:HIS:456:CE1:4070, V-B:TYR:484:CZ:9318, V-A:ILE:369:CD1:3239, V-A:GLU:543:CG:4907, V-B:GLU:543:CD:9880, V-A:TYR:539:C:4867, V-A:ASP:366:CB:3212, V-A:LEU:475:CD2:4259, V-A:ARG:545:CZ:4926, V-A:GLU:543:CB:4906, V-A:PRO:540:N:4884, H-B:GLU:543:OE2:9882, V-A:PRO:540:CA:4883, V-A:GLY:453:CA:4044, V-B:PRO:540:C:9853"]

$$$$
ZINC245343496
     RDKit          3D

 66 69  0  0  0  0  0  0  0  0999 V2000
  128.0450  128.6280   66.4710 C   0  0  0  0  0  0  0  0  0  0  0  0
  128.8670  127.7850   67.2670 O   0  0  0  0  0  0  0  0  0  0  0  0
  129.2280  126.5410   66.6730 C   0  0  0  0  0  0  0  0  0  0  0  0
  130.5140  125.9210   67.2660 C   0  0  2  0  0  0  0  0  0  0  0  0
  131.1720  126.9200   68.0230 O   0  0  0  0  0  0  0  0  0  0  0  0
  131.4550  125.3830   66.1560 C   0  0  0  0  0  0  0  0  0  0  0  0
  130.7960  125.0620   64.8720 N   0  0  0  0  0  0  0  0  0  0  0  0
  131.1960  123.7440   64.3600 C   0  0  0  0  0  0  0  0  0  0  0  0
  132.5280  123.7760   63.5550 C   0  0  0  0  0  0  0  0  0  0  0  0
  133.5890  124.0200   64.1400 O   0  0  0  0  0  0  0  0  0  0  0  0
  132.4960  123.5330   62.2140 N   0  0  0  0  0  0  0  0  0  0  0  0
  133.7340  123.1810   61.4830 C   0  0  0  0  0  0  0  0  0  0  0  0
  134.0690  124.3370   60.5090 C   0  0  0  0  0  0  0  0  0  0  0  0
  132.8310  124.6460   59.6840 C   0  0  0  0  0  0  0  0  0  0  0  0
  132.8480  125.5260   58.1880 S   0  0  0  0  0  0  0  0  0  0  0  0
  131.1230  125.4270   58.0870 C   0  0  0  0  0  0  0  0  0  0  0  0
  130.5730  124.7590   59.1720 C   0  0  0  0  0  0  0  0  0  0  0  0
  131.5340  124.3130   60.0910 C   0  0  0  0  0  0  0  0  0  0  0  0
  131.2530  123.5530   61.3930 C   0  0  1  0  0  0  0  0  0  0  0  0
  130.6510  122.1580   61.1160 C   0  0  0  0  0  0  0  0  0  0  0  0
  129.3270  122.0990   61.6410 O   0  0  0  0  0  0  0  0  0  0  0  0
  128.2800  122.6180   60.9070 C   0  0  0  0  0  0  0  0  0  0  0  0
  127.1650  123.2690   61.4600 C   0  0  0  0  0  0  0  0  0  0  0  0
  126.1560  123.7650   60.6350 C   0  0  0  0  0  0  0  0  0  0  0  0
  126.2460  123.6160   59.2520 C   0  0  0  0  0  0  0  0  0  0  0  0
  127.3490  122.9700   58.6880 C   0  0  0  0  0  0  0  0  0  0  0  0
  127.4590  122.8010   57.1840 C   0  0  0  0  0  0  0  0  0  0  0  0
  128.3580  122.4750   59.5190 C   0  0  0  0  0  0  0  0  0  0  0  0
  131.0100  126.0970   63.8460 C   0  0  0  0  0  0  0  0  0  0  0  0
  129.7600  126.5060   63.0990 C   0  0  0  0  0  0  0  0  0  0  0  0
  128.7350  127.4070   63.3550 C   0  0  0  0  0  0  0  0  0  0  0  0
  127.8550  127.3440   62.2730 C   0  0  0  0  0  0  0  0  0  0  0  0
  128.3800  126.4040   61.4030 C   0  0  0  0  0  0  0  0  0  0  0  0
  129.5350  125.8970   61.9050 O   0  0  0  0  0  0  0  0  0  0  0  0
  127.4274  129.2613   67.1248 H   0  0  0  0  0  0  0  0  0  0  0  0
  128.6787  129.2646   65.8361 H   0  0  0  0  0  0  0  0  0  0  0  0
  127.3926  128.0105   65.8361 H   0  0  0  0  0  0  0  0  0  0  0  0
  128.4001  125.8320   66.8209 H   0  0  0  0  0  0  0  0  0  0  0  0
  129.4261  126.7375   65.6090 H   0  0  0  0  0  0  0  0  0  0  0  0
  130.2442  125.0648   67.9017 H   0  0  0  0  0  0  0  0  0  0  0  0
  131.0100  127.7720   67.6110 H   0  0  0  0  0  0  0  0  0  0  0  0
  132.2236  126.1457   65.9625 H   0  0  0  0  0  0  0  0  0  0  0  0
  131.8625  124.4342   66.5351 H   0  0  0  0  0  0  0  0  0  0  0  0
  131.3196  123.0606   65.2130 H   0  0  0  0  0  0  0  0  0  0  0  0
  130.4066  123.4079   63.6716 H   0  0  0  0  0  0  0  0  0  0  0  0
  134.5605  123.0439   62.1958 H   0  0  0  0  0  0  0  0  0  0  0  0
  133.5909  122.2443   60.9244 H   0  0  0  0  0  0  0  0  0  0  0  0
  134.3666  125.2289   61.0800 H   0  0  0  0  0  0  0  0  0  0  0  0
  134.8989  124.0451   59.8487 H   0  0  0  0  0  0  0  0  0  0  0  0
  130.5314  125.8449   57.2591 H   0  0  0  0  0  0  0  0  0  0  0  0
  129.4925  124.5958   59.2984 H   0  0  0  0  0  0  0  0  0  0  0  0
  130.4806  124.0711   61.9803 H   0  0  0  0  0  0  0  0  0  0  0  0
  130.6235  121.9794   60.0309 H   0  0  0  0  0  0  0  0  0  0  0  0
  131.2714  121.3885   61.5987 H   0  0  0  0  0  0  0  0  0  0  0  0
  127.0872  123.3883   62.5507 H   0  0  0  0  0  0  0  0  0  0  0  0
  125.2871  124.2750   61.0766 H   0  0  0  0  0  0  0  0  0  0  0  0
  125.4479  124.0074   58.6041 H   0  0  0  0  0  0  0  0  0  0  0  0
  128.0463  121.8987   56.9584 H   0  0  0  0  0  0  0  0  0  0  0  0
  126.4525  122.7010   56.7517 H   0  0  0  0  0  0  0  0  0  0  0  0
  127.9580  123.6809   56.7517 H   0  0  0  0  0  0  0  0  0  0  0  0
  129.2257  121.9657   59.0742 H   0  0  0  0  0  0  0  0  0  0  0  0
  131.4235  126.9893   64.3388 H   0  0  0  0  0  0  0  0  0  0  0  0
  131.6926  125.6629   63.1006 H   0  0  0  0  0  0  0  0  0  0  0  0
  128.6352  128.0491   64.2426 H   0  0  0  0  0  0  0  0  0  0  0  0
  126.9304  127.9246   62.1388 H   0  0  0  0  0  0  0  0  0  0  0  0
  127.9272  126.1105   60.4444 H   0  0  0  0  0  0  0  0  0  0  0  0
  1  2  1  0
  2  3  1  0
  3  4  1  0
  4  5  1  0
  4  6  1  0
  6  7  1  0
  7  8  1  0
  8  9  1  0
  9 10  2  0
  9 11  1  0
 11 12  1  0
 12 13  1  0
 13 14  1  0
 14 15  1  0
 15 16  1  0
 16 17  2  0
 17 18  1  0
 18 19  1  0
 19 20  1  0
 20 21  1  0
 21 22  1  0
 22 23  2  0
 23 24  1  0
 24 25  2  0
 25 26  1  0
 26 27  1  0
 26 28  2  0
  7 29  1  0
 29 30  1  0
 30 31  2  0
 31 32  1  0
 32 33  2  0
 33 34  1  0
 19 11  1  0
 28 22  1  0
 34 30  1  0
 18 14  2  0
  1 35  1  0
  1 36  1  0
  1 37  1  0
  3 38  1  0
  3 39  1  0
  4 40  1  1
  5 41  1  0
  6 42  1  0
  6 43  1  0
  8 44  1  0
  8 45  1  0
 12 46  1  0
 12 47  1  0
 13 48  1  0
 13 49  1  0
 16 50  1  0
 17 51  1  0
 19 52  1  1
 20 53  1  0
 20 54  1  0
 23 55  1  0
 24 56  1  0
 25 57  1  0
 27 58  1  0
 27 59  1  0
 27 60  1  0
 28 61  1  0
 29 62  1  0
 29 63  1  0
 31 64  1  0
 32 65  1  0
 33 66  1  0
M  END
>  <Binding energies>  (1) 
[-6.4]

>  <Ligand effiencies>  (1) 
[-0.18285714285714286]

>  <Interactions>  (1) 
["V-A:ILE:369:CG2:3237, V-A:ASP:366:CA:3210, V-B:PRO:540:CA:9855, H-A:GLU:543:OE2:4910, V-B:GLU:543:CB:9878, V-B:TYR:539:CE2:9848, V-B:GLU:543:CG:9879, V-B:TYR:539:C:9839, V-A:ASP:366:CG:3213, V-B:TYR:539:CZ:9849, V-A:TYR:484:CZ:4347, V-A:GLU:543:CD:4908, V-B:PRO:540:CB:9857, H-A:GLY:454:N:4050, V-B:PRO:540:N:9856, V-A:HIS:456:CE1:4070, V-A:ILE:369:CD1:3239, V-A:ASP:366:C:3208, V-B:TYR:539:CD2:9846, V-A:GLU:543:CG:4907, V-B:GLU:543:CD:9880, V-A:ASP:366:CB:3212, V-B:TYR:539:CG:9844, V-A:GLU:543:CB:4906, V-B:TYR:539:CD1:9845, V-B:PRO:540:C:9853, V-B:TYR:539:CE1:9847, H-A:TYR:484:OH:4348"]

$$$$
ZINC250584179
     RDKit          3D

 37 38  0  0  0  0  0  0  0  0999 V2000
  129.2000  130.2700   57.1450 C   0  0  0  0  0  0  0  0  0  0  0  0
  128.0820  131.2120   57.6590 C   0  0  0  0  0  0  0  0  0  0  0  0
  127.2290  130.5190   58.7490 C   0  0  0  0  0  0  0  0  0  0  0  0
  127.1720  131.6130   56.4810 C   0  0  0  0  0  0  0  0  0  0  0  0
  128.6250  132.4600   58.1290 O   0  0  0  0  0  0  0  0  0  0  0  0
  129.9570  132.7520   58.2500 C   0  0  0  0  0  0  0  0  0  0  0  0
  130.6130  133.3770   57.4160 O   0  0  0  0  0  0  0  0  0  0  0  0
  130.4700  132.2370   59.4440 N   0  0  0  0  0  0  0  0  0  0  0  0
  131.8230  131.6600   59.6370 C   0  0  0  0  0  0  0  0  0  0  0  0
  131.8610  131.2810   61.1450 C   0  0  2  0  0  0  0  0  0  0  0  0
  131.7180  129.7820   61.4610 N   0  0  0  0  0  0  0  0  0  0  0  0
  130.7870  132.2210   61.6830 C   0  0  2  0  0  0  0  0  0  0  0  0
  130.0190  132.1140   62.9870 C   0  0  0  0  0  0  0  0  0  0  0  0
  128.8460  132.8860   62.6700 O   0  0  0  0  0  0  0  0  0  0  0  0
  128.6390  133.0110   61.2460 C   0  0  0  0  0  0  0  0  0  0  0  0
  129.7000  132.0770   60.6740 C   0  0  1  0  0  0  0  0  0  0  0  0
  129.7276  129.8255   58.0018 H   0  0  0  0  0  0  0  0  0  0  0  0
  128.7543  129.4711   56.5342 H   0  0  0  0  0  0  0  0  0  0  0  0
  129.9117  130.8448   56.5342 H   0  0  0  0  0  0  0  0  0  0  0  0
  127.5938  130.8153   59.7436 H   0  0  0  0  0  0  0  0  0  0  0  0
  126.1772  130.8217   58.6390 H   0  0  0  0  0  0  0  0  0  0  0  0
  127.3099  129.4275   58.6390 H   0  0  0  0  0  0  0  0  0  0  0  0
  126.2304  132.0279   56.8698 H   0  0  0  0  0  0  0  0  0  0  0  0
  127.6803  132.3705   55.8663 H   0  0  0  0  0  0  0  0  0  0  0  0
  126.9560  130.7267   55.8663 H   0  0  0  0  0  0  0  0  0  0  0  0
  131.9614  130.7692   59.0067 H   0  0  0  0  0  0  0  0  0  0  0  0
  132.6246  132.3592   59.3567 H   0  0  0  0  0  0  0  0  0  0  0  0
  132.8370  131.4168   61.6338 H   0  0  0  0  0  0  0  0  0  0  0  0
  131.6420  129.2530   60.6030 H   0  0  0  0  0  0  0  0  0  0  0  0
  130.8920  129.6200   62.0180 H   0  0  0  0  0  0  0  0  0  0  0  0
  132.5260  129.4550   61.9730 H   0  0  0  0  0  0  0  0  0  0  0  0
  131.3949  133.1169   61.8778 H   0  0  0  0  0  0  0  0  0  0  0  0
  129.7655  131.0701   63.2236 H   0  0  0  0  0  0  0  0  0  0  0  0
  130.5707  132.4642   63.8719 H   0  0  0  0  0  0  0  0  0  0  0  0
  127.6277  132.6852   60.9614 H   0  0  0  0  0  0  0  0  0  0  0  0
  128.7224  134.0451   60.8803 H   0  0  0  0  0  0  0  0  0  0  0  0
  129.0916  131.1892   60.4466 H   0  0  0  0  0  0  0  0  0  0  0  0
  1  2  1  0
  2  3  1  0
  2  4  1  0
  2  5  1  0
  5  6  1  0
  6  7  2  0
  6  8  1  0
  8  9  1  0
  9 10  1  0
 10 11  1  0
 10 12  1  0
 12 13  1  0
 13 14  1  0
 14 15  1  0
 15 16  1  0
 16  8  1  0
 16 12  1  0
  1 17  1  0
  1 18  1  0
  1 19  1  0
  3 20  1  0
  3 21  1  0
  3 22  1  0
  4 23  1  0
  4 24  1  0
  4 25  1  0
  9 26  1  0
  9 27  1  0
 10 28  1  1
 11 29  1  0
 11 30  1  0
 11 31  1  0
 12 32  1  1
 13 33  1  0
 13 34  1  0
 15 35  1  0
 15 36  1  0
 16 37  1  6
M  CHG  1  11   1
M  END
>  <Binding energies>  (1) 
[-6.03]

>  <Ligand effiencies>  (1) 
[-0.3173684210526316]

>  <Interactions>  (1) 
["V-A:PRO:540:N:4884, H-A:TYR:539:N:4870, V-A:PRO:540:CB:4885, V-A:PRO:540:CA:4883, V-A:TYR:539:CZ:4877, H-A:ALA:541:N:4891, V-A:ALA:541:CA:4890, V-A:PRO:540:C:4881, V-A:ALA:541:CB:4892, V-A:GLU:543:CG:4907, V-A:MET:535:CE:4835, V-A:GLU:543:CD:4908, H-A:ASP:366:OD2:3215, V-A:TYR:539:C:4867, H-A:GLU:543:OE1:4909, V-A:TYR:539:CE1:4875, V-A:ASP:366:CG:3213, H-A:ASP:366:OD1:3214"]

$$$$
ZINC2516792
     RDKit          3D

 54 57  0  0  0  0  0  0  0  0999 V2000
  133.6010  124.7780   65.2340 O   0  0  0  0  0  0  0  0  0  0  0  0
  133.6090  124.4300   63.8090 S   0  0  0  0  0  0  0  0  0  0  0  0
  134.6880  125.0490   63.0320 O   0  0  0  0  0  0  0  0  0  0  0  0
  133.3960  123.0070   63.5280 O   0  0  0  0  0  0  0  0  0  0  0  0
  132.0410  125.2480   63.1340 C   0  0  0  0  0  0  0  0  0  0  0  0
  131.0600  125.5760   64.2770 C   0  0  0  0  0  0  0  0  0  0  0  0
  129.5850  125.7250   63.8470 C   0  0  0  0  0  0  0  0  0  0  0  0
  129.0560  127.0890   63.9900 N   0  0  0  0  0  0  0  0  0  0  0  0
  128.7310  127.8700   62.8910 C   0  0  0  0  0  0  0  0  0  0  0  0
  128.9070  127.5750   61.5840 C   0  0  0  0  0  0  0  0  0  0  0  0
  128.5450  128.3720   60.4230 C   0  0  0  0  0  0  0  0  0  0  0  0
  127.4980  127.7610   59.1610 S   0  0  0  0  0  0  0  0  0  0  0  0
  127.6920  129.2720   58.2850 C   0  0  0  0  0  0  0  0  0  0  0  0
  127.1170  129.6210   57.0550 C   0  0  0  0  0  0  0  0  0  0  0  0
  127.4000  130.8800   56.5310 C   0  0  0  0  0  0  0  0  0  0  0  0
  128.2300  131.7760   57.2040 C   0  0  0  0  0  0  0  0  0  0  0  0
  128.5430  133.3230   56.5030 Cl  0  0  0  0  0  0  0  0  0  0  0  0
  128.8160  131.4560   58.4300 C   0  0  0  0  0  0  0  0  0  0  0  0
  128.5400  130.1880   58.9670 C   0  0  0  0  0  0  0  0  0  0  0  0
  129.0100  129.6570   60.1700 N   0  0  0  0  0  0  0  0  0  0  0  0
  129.9030  130.3990   61.0750 C   0  0  0  0  0  0  0  0  0  0  0  0
  130.8630  131.3390   60.3140 C   0  0  0  0  0  0  0  0  0  0  0  0
  132.3540  131.1300   60.6350 C   0  0  0  0  0  0  0  0  0  0  0  0
  132.7740  131.8340   62.3420 S   0  0  0  0  0  0  0  0  0  0  0  0
  131.4670  132.1930   62.9060 O   0  0  0  0  0  0  0  0  0  0  0  0
  133.4510  130.7250   63.0230 O   0  0  0  0  0  0  0  0  0  0  0  0
  133.6390  132.9770   62.0330 O   0  0  0  0  0  0  0  0  0  0  0  0
  128.0320  129.4020   63.4930 S   0  0  0  0  0  0  0  0  0  0  0  0
  128.2040  128.8950   65.1590 C   0  0  0  0  0  0  0  0  0  0  0  0
  127.8450  129.6100   66.3020 C   0  0  0  0  0  0  0  0  0  0  0  0
  128.0480  129.0460   67.5600 C   0  0  0  0  0  0  0  0  0  0  0  0
  128.6080  127.7720   67.6720 C   0  0  0  0  0  0  0  0  0  0  0  0
  128.8540  127.0720   69.2300 Cl  0  0  0  0  0  0  0  0  0  0  0  0
  128.9680  127.0630   66.5230 C   0  0  0  0  0  0  0  0  0  0  0  0
  128.7620  127.6270   65.2550 C   0  0  0  0  0  0  0  0  0  0  0  0
  132.3143  126.1786   62.6150 H   0  0  0  0  0  0  0  0  0  0  0  0
  131.5513  124.5513   62.4377 H   0  0  0  0  0  0  0  0  0  0  0  0
  131.1189  124.7671   65.0201 H   0  0  0  0  0  0  0  0  0  0  0  0
  131.3655  126.5556   64.6732 H   0  0  0  0  0  0  0  0  0  0  0  0
  129.5011  125.4303   62.7905 H   0  0  0  0  0  0  0  0  0  0  0  0
  128.9922  125.0819   64.5141 H   0  0  0  0  0  0  0  0  0  0  0  0
  129.3856  126.6077   61.3711 H   0  0  0  0  0  0  0  0  0  0  0  0
  126.4606  128.9200   56.5187 H   0  0  0  0  0  0  0  0  0  0  0  0
  126.9598  131.1736   55.5666 H   0  0  0  0  0  0  0  0  0  0  0  0
  129.4685  132.1692   58.9550 H   0  0  0  0  0  0  0  0  0  0  0  0
  129.2895  131.0009   61.7615 H   0  0  0  0  0  0  0  0  0  0  0  0
  130.5144  129.6645   61.6197 H   0  0  0  0  0  0  0  0  0  0  0  0
  130.7184  131.1771   59.2356 H   0  0  0  0  0  0  0  0  0  0  0  0
  130.6159  132.3620   60.6340 H   0  0  0  0  0  0  0  0  0  0  0  0
  132.5788  130.0533   60.6228 H   0  0  0  0  0  0  0  0  0  0  0  0
  132.9563  131.6534   59.8778 H   0  0  0  0  0  0  0  0  0  0  0  0
  127.4041  130.6136   66.2106 H   0  0  0  0  0  0  0  0  0  0  0  0
  127.7670  129.6047   68.4649 H   0  0  0  0  0  0  0  0  0  0  0  0
  129.4135  126.0613   66.6128 H   0  0  0  0  0  0  0  0  0  0  0  0
  1  2  2  0
  2  3  2  0
  2  4  1  0
  2  5  1  0
  5  6  1  0
  6  7  1  0
  7  8  1  0
  8  9  1  0
  9 10  2  0
 10 11  1  0
 11 12  1  0
 12 13  1  0
 13 14  2  0
 14 15  1  0
 15 16  2  0
 16 17  1  0
 16 18  1  0
 18 19  2  0
 19 20  1  0
 20 21  1  0
 21 22  1  0
 22 23  1  0
 23 24  1  0
 24 25  2  0
 24 26  2  0
 24 27  1  0
  9 28  1  0
 28 29  1  0
 29 30  2  0
 30 31  1  0
 31 32  2  0
 32 33  1  0
 32 34  1  0
 34 35  2  0
 35  8  1  0
 20 11  2  0
 35 29  1  0
 19 13  1  0
  5 36  1  0
  5 37  1  0
  6 38  1  0
  6 39  1  0
  7 40  1  0
  7 41  1  0
 10 42  1  0
 14 43  1  0
 15 44  1  0
 18 45  1  0
 21 46  1  0
 21 47  1  0
 22 48  1  0
 22 49  1  0
 23 50  1  0
 23 51  1  0
 30 52  1  0
 31 53  1  0
 34 54  1  0
M  CHG  3   4  -1  20   1  27  -1
M  END
>  <Binding energies>  (1) 
[-7.89]

>  <Ligand effiencies>  (1) 
[-0.22542857142857142]

>  <Interactions>  (1) 
["V-A:ILE:538:C:4858, V-A:ALA:541:C:4888, V-A:GLY:454:CA:4049, H-A:ALA:541:N:4891, V-B:GLU:543:CB:9878, H-A:ARG:545:NH1:4927, V-B:GLU:543:CG:9879, V-A:TYR:539:CE2:4876, V-A:ASP:366:CG:3213, V-A:ASN:362:CB:3176, V-A:TYR:539:CD1:4873, V-B:TYR:484:CE2:9317, V-A:ILE:538:CA:4860, V-A:TYR:539:CZ:4877, V-A:GLU:543:CD:4908, V-B:HIS:456:CE1:9041, H-A:GLY:454:N:4050, V-A:HIS:456:CE1:4070, V-B:TYR:484:CZ:9318, V-A:GLU:543:CG:4907, V-B:GLU:543:CD:9880, V-A:MET:535:CE:4835, H-A:ARG:545:NH2:4928, V-A:ARG:545:CZ:4926, V-A:GLU:543:CB:4906, H-A:ASN:362:ND2:3179, V-A:TYR:539:CG:4872, V-A:PRO:540:CB:4885, V-A:PRO:540:CA:4883, H-A:ARG:545:NE:4924, V-A:TYR:539:CD2:4874, V-A:TYR:539:CE1:4875, H-A:TYR:484:OH:4348"]

$$$$
ZINC251977417
     RDKit          3D

 82 85  0  0  0  0  0  0  0  0999 V2000
  129.1610  126.9730   66.0890 C   0  0  0  0  0  0  0  0  0  0  0  0
  127.9880  127.6010   66.8720 C   0  0  2  0  0  0  0  0  0  0  0  0
  127.7380  129.0830   66.5230 C   0  0  0  0  0  0  0  0  0  0  0  0
  128.5830  129.9610   66.7150 O   0  0  0  0  0  0  0  0  0  0  0  0
  126.4960  129.2820   66.0090 O   0  0  0  0  0  0  0  0  0  0  0  0
  126.2910  129.6220   64.6330 C   0  0  0  0  0  0  0  0  0  0  0  0
  127.4610  130.4150   64.0150 C   0  0  0  0  0  0  0  0  0  0  0  0
  127.9530  131.3680   64.6200 O   0  0  0  0  0  0  0  0  0  0  0  0
  127.8570  129.9570   62.7990 O   0  0  0  0  0  0  0  0  0  0  0  0
  128.7830  128.8820   62.6600 C   0  0  0  0  0  0  0  0  0  0  0  0
  128.0950  127.5910   62.1680 C   0  0  0  0  0  0  0  0  0  0  0  0
  128.8600  126.8980   61.1830 O   0  0  0  0  0  0  0  0  0  0  0  0
  130.1710  126.6270   61.3680 C   0  0  0  0  0  0  0  0  0  0  0  0
  130.8980  127.1350   62.2260 O   0  0  0  0  0  0  0  0  0  0  0  0
  130.6750  125.5790   60.3710 C   0  0  0  0  0  0  0  0  0  0  0  0
  131.8440  126.0410   59.7010 O   0  0  0  0  0  0  0  0  0  0  0  0
  131.7590  126.6280   58.4870 C   0  0  0  0  0  0  0  0  0  0  0  0
  132.5110  126.4050   57.5340 O   0  0  0  0  0  0  0  0  0  0  0  0
  130.5850  127.6310   58.4180 C   0  0  2  0  0  0  0  0  0  0  0  0
  129.5690  127.2350   57.3250 C   0  0  0  0  0  0  0  0  0  0  0  0
  131.0850  129.0740   58.2610 C   0  0  0  0  0  0  0  0  0  0  0  0
  132.4210  129.3110   57.9240 C   0  0  0  0  0  0  0  0  0  0  0  0
  132.8940  130.6150   57.7920 C   0  0  0  0  0  0  0  0  0  0  0  0
  132.0320  131.6940   57.9810 C   0  0  0  0  0  0  0  0  0  0  0  0
  130.6790  131.4840   58.2880 C   0  0  0  0  0  0  0  0  0  0  0  0
  129.7680  132.6560   58.5120 C   0  0  0  0  0  0  0  0  0  0  0  0
  129.5200  133.4200   57.5760 O   0  0  0  0  0  0  0  0  0  0  0  0
  129.1530  132.9080   59.8600 C   0  0  0  0  0  0  0  0  0  0  0  0
  129.8440  132.5230   61.0200 C   0  0  0  0  0  0  0  0  0  0  0  0
  129.3060  132.7800   62.2780 C   0  0  0  0  0  0  0  0  0  0  0  0
  128.0850  133.4400   62.3880 C   0  0  0  0  0  0  0  0  0  0  0  0
  127.4010  133.8550   61.2480 C   0  0  0  0  0  0  0  0  0  0  0  0
  127.9380  133.5990   59.9900 C   0  0  0  0  0  0  0  0  0  0  0  0
  130.2300  130.1660   58.4590 C   0  0  0  0  0  0  0  0  0  0  0  0
  128.1740  127.4470   68.3870 C   0  0  0  0  0  0  0  0  0  0  0  0
  129.3880  127.7620   69.0130 C   0  0  0  0  0  0  0  0  0  0  0  0
  129.5190  127.6360   70.3920 C   0  0  0  0  0  0  0  0  0  0  0  0
  128.4550  127.1600   71.1660 C   0  0  0  0  0  0  0  0  0  0  0  0
  128.5960  127.0950   72.6590 C   0  0  0  0  0  0  0  0  0  0  0  0
  129.2090  126.1530   73.1690 O   0  0  0  0  0  0  0  0  0  0  0  0
  128.0010  128.1560   73.5410 C   0  0  0  0  0  0  0  0  0  0  0  0
  128.8000  129.2240   73.9760 C   0  0  0  0  0  0  0  0  0  0  0  0
  128.2790  130.1940   74.8290 C   0  0  0  0  0  0  0  0  0  0  0  0
  126.9620  130.0910   75.2680 C   0  0  0  0  0  0  0  0  0  0  0  0
  126.1640  129.0230   74.8680 C   0  0  0  0  0  0  0  0  0  0  0  0
  126.6830  128.0540   74.0130 C   0  0  0  0  0  0  0  0  0  0  0  0
  127.2440  126.8410   70.5360 C   0  0  0  0  0  0  0  0  0  0  0  0
  127.1110  126.9720   69.1550 C   0  0  0  0  0  0  0  0  0  0  0  0
  129.9033  126.5756   66.7968 H   0  0  0  0  0  0  0  0  0  0  0  0
  128.7838  126.1562   65.4561 H   0  0  0  0  0  0  0  0  0  0  0  0
  129.6317  127.7398   65.4561 H   0  0  0  0  0  0  0  0  0  0  0  0
  127.0965  127.0389   66.5569 H   0  0  0  0  0  0  0  0  0  0  0  0
  126.1595  128.6921   64.0603 H   0  0  0  0  0  0  0  0  0  0  0  0
  125.4021  130.2684   64.5881 H   0  0  0  0  0  0  0  0  0  0  0  0
  129.5575  129.1711   61.9344 H   0  0  0  0  0  0  0  0  0  0  0  0
  129.2218  128.6796   63.6482 H   0  0  0  0  0  0  0  0  0  0  0  0
  127.9434  126.9235   63.0290 H   0  0  0  0  0  0  0  0  0  0  0  0
  127.1409  127.8805   61.7033 H   0  0  0  0  0  0  0  0  0  0  0  0
  130.9121  124.6510   60.9119 H   0  0  0  0  0  0  0  0  0  0  0  0
  129.8889  125.3957   59.6237 H   0  0  0  0  0  0  0  0  0  0  0  0
  130.0494  127.5877   59.3778 H   0  0  0  0  0  0  0  0  0  0  0  0
  128.6436  126.8743   57.7979 H   0  0  0  0  0  0  0  0  0  0  0  0
  129.3436  128.1111   56.6992 H   0  0  0  0  0  0  0  0  0  0  0  0
  129.9959  126.4374   56.6992 H   0  0  0  0  0  0  0  0  0  0  0  0
  133.1028  128.4631   57.7621 H   0  0  0  0  0  0  0  0  0  0  0  0
  133.9494  130.7932   57.5382 H   0  0  0  0  0  0  0  0  0  0  0  0
  132.4163  132.7205   57.8885 H   0  0  0  0  0  0  0  0  0  0  0  0
  130.8161  132.0154   60.9343 H   0  0  0  0  0  0  0  0  0  0  0  0
  129.8444  132.4623   63.1831 H   0  0  0  0  0  0  0  0  0  0  0  0
  127.6575  133.6351   63.3826 H   0  0  0  0  0  0  0  0  0  0  0  0
  126.4405  134.3828   61.3416 H   0  0  0  0  0  0  0  0  0  0  0  0
  127.4060  133.9409   59.0900 H   0  0  0  0  0  0  0  0  0  0  0  0
  129.1858  129.9864   58.7544 H   0  0  0  0  0  0  0  0  0  0  0  0
  130.2405  128.1102   68.4113 H   0  0  0  0  0  0  0  0  0  0  0  0
  130.4663  127.9127   70.8778 H   0  0  0  0  0  0  0  0  0  0  0  0
  129.8453  129.2958   73.6410 H   0  0  0  0  0  0  0  0  0  0  0  0
  128.9054  131.0377   75.1543 H   0  0  0  0  0  0  0  0  0  0  0  0
  126.5484  130.8602   75.9367 H   0  0  0  0  0  0  0  0  0  0  0  0
  125.1269  128.9446   75.2261 H   0  0  0  0  0  0  0  0  0  0  0  0
  126.0564  127.2037   73.7057 H   0  0  0  0  0  0  0  0  0  0  0  0
  126.3933  126.4850   71.1356 H   0  0  0  0  0  0  0  0  0  0  0  0
  126.1630  126.6994   68.6682 H   0  0  0  0  0  0  0  0  0  0  0  0
  1  2  1  0
  2  3  1  0
  3  4  2  0
  3  5  1  0
  5  6  1  0
  6  7  1  0
  7  8  2  0
  7  9  1  0
  9 10  1  0
 10 11  1  0
 11 12  1  0
 12 13  1  0
 13 14  2  0
 13 15  1  0
 15 16  1  0
 16 17  1  0
 17 18  2  0
 17 19  1  0
 19 20  1  0
 19 21  1  0
 21 22  2  0
 22 23  1  0
 23 24  2  0
 24 25  1  0
 25 26  1  0
 26 27  2  0
 26 28  1  0
 28 29  2  0
 29 30  1  0
 30 31  2  0
 31 32  1  0
 32 33  2  0
 25 34  2  0
  2 35  1  0
 35 36  2  0
 36 37  1  0
 37 38  2  0
 38 39  1  0
 39 40  2  0
 39 41  1  0
 41 42  2  0
 42 43  1  0
 43 44  2  0
 44 45  1  0
 45 46  2  0
 38 47  1  0
 47 48  2  0
 34 21  1  0
 48 35  1  0
 33 28  1  0
 46 41  1  0
  1 49  1  0
  1 50  1  0
  1 51  1  0
  2 52  1  6
  6 53  1  0
  6 54  1  0
 10 55  1  0
 10 56  1  0
 11 57  1  0
 11 58  1  0
 15 59  1  0
 15 60  1  0
 19 61  1  1
 20 62  1  0
 20 63  1  0
 20 64  1  0
 22 65  1  0
 23 66  1  0
 24 67  1  0
 29 68  1  0
 30 69  1  0
 31 70  1  0
 32 71  1  0
 33 72  1  0
 34 73  1  0
 36 74  1  0
 37 75  1  0
 42 76  1  0
 43 77  1  0
 44 78  1  0
 45 79  1  0
 46 80  1  0
 47 81  1  0
 48 82  1  0
M  END
>  <Binding energies>  (1) 
[-8.38]

>  <Ligand effiencies>  (1) 
[-0.17458333333333334]

>  <Interactions>  (1) 
["V-B:GLU:543:C:9874, V-B:HIS:456:CD2:9039, V-B:GLU:543:CB:9878, H-B:LYS:547:NZ:9923, V-A:PRO:540:C:4881, V-B:HIS:456:CB:9036, H-A:TYR:531:OH:4795, V-B:GLU:543:CG:9879, V-B:LEU:475:CD2:9230, V-A:ASP:366:CG:3213, V-A:LEU:363:CD1:3189, V-A:TYR:539:CD1:4873, V-A:TYR:531:CE2:4793, H-B:TYR:539:OH:9850, V-A:ALA:541:CB:4892, V-B:LYS:547:CE:9922, V-A:GLU:543:CD:4908, H-B:TYR:484:OH:9319, V-B:HIS:456:CE1:9041, V-B:GLU:543:CA:9876, V-A:HIS:456:CE1:4070, V-B:GLY:544:C:9884, V-A:ALA:541:CA:4890, V-B:GLY:544:CA:9886, V-A:GLU:543:CG:4907, V-A:TYR:531:CZ:4794, V-B:GLU:543:CD:9880, V-B:HIS:456:CG:9037, V-A:TYR:539:C:4867, V-A:ASP:366:CB:3212, H-A:ARG:545:NH2:4928, V-A:GLU:543:CB:4906, V-A:PRO:540:N:4884, H-A:TYR:539:N:4870, V-A:PRO:540:CB:4885, V-A:PRO:540:CA:4883, V-A:TYR:539:CE1:4875"]

$$$$
ZINC252427848
     RDKit          3D

 31 33  0  0  0  0  0  0  0  0999 V2000
  130.9940  119.7170   60.8860 C   0  0  0  0  0  0  0  0  0  0  0  0
  130.0560  120.6370   61.6860 C   0  0  0  0  0  0  0  0  0  0  0  0
  130.0860  122.0450   61.2320 N   0  0  0  0  0  0  0  0  0  0  0  0
  129.2090  122.4560   60.2790 C   0  0  0  0  0  0  0  0  0  0  0  0
  128.3570  121.7260   59.7670 O   0  0  0  0  0  0  0  0  0  0  0  0
  129.4260  123.8510   59.9690 C   0  0  0  0  0  0  0  0  0  0  0  0
  128.7420  124.5690   59.0460 C   0  0  0  0  0  0  0  0  0  0  0  0
  127.6880  124.2040   58.1130 C   0  0  0  0  0  0  0  0  0  0  0  0
  126.4160  124.7050   57.8440 C   0  0  0  0  0  0  0  0  0  0  0  0
  125.8510  123.9090   56.8480 C   0  0  0  0  0  0  0  0  0  0  0  0
  126.7900  122.9380   56.5560 C   0  0  0  0  0  0  0  0  0  0  0  0
  127.8930  123.1120   57.3280 O   0  0  0  0  0  0  0  0  0  0  0  0
  130.7020  124.4920   60.9850 S   0  0  0  0  0  0  0  0  0  0  0  0
  131.0050  122.9020   61.7590 C   0  0  0  0  0  0  0  0  0  0  0  0
  131.8920  122.6710   62.6610 N   0  0  0  0  0  0  0  0  0  0  0  0
  132.8580  123.5880   63.0260 N   0  0  0  0  0  0  0  0  0  0  0  0
  132.9250  124.2460   64.2310 C   0  0  0  0  0  0  0  0  0  0  0  0
  133.9850  125.0090   64.3250 N   0  0  0  0  0  0  0  0  0  0  0  0
  134.7060  124.8380   63.1480 N   0  0  0  0  0  0  0  0  0  0  0  0
  134.0330  123.9870   62.4160 C   0  0  0  0  0  0  0  0  0  0  0  0
  131.6026  119.1200   61.5811 H   0  0  0  0  0  0  0  0  0  0  0  0
  130.3962  119.0453   60.2524 H   0  0  0  0  0  0  0  0  0  0  0  0
  131.6540  120.3277   60.2524 H   0  0  0  0  0  0  0  0  0  0  0  0
  129.0277  120.2598   61.5846 H   0  0  0  0  0  0  0  0  0  0  0  0
  130.4022  120.6250   62.7300 H   0  0  0  0  0  0  0  0  0  0  0  0
  129.0398  125.6266   58.9922 H   0  0  0  0  0  0  0  0  0  0  0  0
  125.9431  125.5715   58.3293 H   0  0  0  0  0  0  0  0  0  0  0  0
  124.8591  124.0296   56.3881 H   0  0  0  0  0  0  0  0  0  0  0  0
  126.6624  122.1415   55.8082 H   0  0  0  0  0  0  0  0  0  0  0  0
  132.1727  124.1432   65.0269 H   0  0  0  0  0  0  0  0  0  0  0  0
  134.3639  123.6304   61.4294 H   0  0  0  0  0  0  0  0  0  0  0  0
  1  2  1  0
  2  3  1  0
  3  4  1  0
  4  5  2  0
  4  6  1  0
  6  7  2  0
  7  8  1  0
  8  9  2  0
  9 10  1  0
 10 11  2  0
 11 12  1  0
  6 13  1  0
 13 14  1  0
 14 15  2  0
 15 16  1  0
 16 17  1  0
 17 18  2  0
 18 19  1  0
 19 20  2  0
 14  3  1  0
 20 16  1  0
 12  8  1  0
  1 21  1  0
  1 22  1  0
  1 23  1  0
  2 24  1  0
  2 25  1  0
  7 26  1  0
  9 27  1  0
 10 28  1  0
 11 29  1  0
 17 30  1  0
 20 31  1  0
M  END
>  <Binding energies>  (1) 
[-5.77]

>  <Ligand effiencies>  (1) 
[-0.2885]

>  <Interactions>  (1) 
["V-A:ILE:369:CD1:3239, V-A:GLY:454:CA:4049, V-B:TYR:539:CD2:9846, H-A:ARG:545:NE:4924, V-B:ALA:541:CB:9864, V-B:MET:535:CE:9807, H-A:ARG:545:NH1:4927, V-B:TYR:539:CE2:9848, V-A:LEU:475:CD2:4259, H-A:ARG:545:NH2:4928, H-A:GLY:454:N:4050, H-A:TYR:484:OH:4348"]

$$$$
ZINC252505036
     RDKit          3D

 79 82  0  0  0  0  0  0  0  0999 V2000
  131.6560  130.2300   58.0390 C   0  0  0  0  0  0  0  0  0  0  0  0
  130.5420  130.8610   57.1870 C   0  0  0  0  0  0  0  0  0  0  0  0
  129.3090  131.3570   57.9840 C   0  0  2  0  0  0  0  0  0  0  0  0
  129.7310  132.2240   59.1910 C   0  0  0  0  0  0  0  0  0  0  0  0
  128.3880  130.2020   58.4180 C   0  0  0  0  0  0  0  0  0  0  0  0
  127.2720  130.0380   57.9200 O   0  0  0  0  0  0  0  0  0  0  0  0
  128.9600  129.4150   59.3630 O   0  0  0  0  0  0  0  0  0  0  0  0
  128.2960  128.2600   59.8950 C   0  0  2  0  0  0  0  0  0  0  0  0
  128.8340  127.7870   61.2950 C   0  0  2  0  0  0  0  0  0  0  0  0
  128.8310  128.9780   62.2890 C   0  0  0  0  0  0  0  0  0  0  0  0
  130.1890  126.9330   61.2520 C   0  0  2  0  0  0  0  0  0  0  0  0
  131.2480  127.8810   61.2030 O   0  0  0  0  0  0  0  0  0  0  0  0
  130.2190  125.9560   60.0060 C   0  0  2  0  0  0  0  0  0  0  0  0
  131.5450  125.2780   59.6600 C   0  0  0  0  0  0  0  0  0  0  0  0
  132.6590  125.0890   60.4020 C   0  0  0  0  0  0  0  0  0  0  0  0
  133.8460  124.4130   59.7160 C   0  0  0  0  0  0  0  0  0  0  0  0
  133.6000  124.3230   58.3270 O   0  0  0  0  0  0  0  0  0  0  0  0
  132.8490  125.4940   61.8640 C   0  0  0  0  0  0  0  0  0  0  0  0
  131.6480  125.3080   62.8390 C   0  0  2  0  0  0  0  0  0  0  0  0
  132.2290  125.6230   64.0980 O   0  0  0  0  0  0  0  0  0  0  0  0
  131.1840  123.8500   62.9720 C   0  0  0  0  0  0  0  0  0  0  0  0
  131.8810  122.8350   63.0400 O   0  0  0  0  0  0  0  0  0  0  0  0
  129.7300  123.8580   63.0140 C   0  0  0  0  0  0  0  0  0  0  0  0
  128.9910  122.5500   63.2330 C   0  0  0  0  0  0  0  0  0  0  0  0
  129.2640  125.1070   62.8560 C   0  0  0  0  0  0  0  0  0  0  0  0
  130.3530  126.1370   62.6030 C   0  0  2  0  0  0  0  0  0  0  0  0
  129.8230  126.8250   58.7990 C   0  0  1  0  0  0  0  0  0  0  0  0
  128.9480  126.6380   57.6210 C   0  0  0  0  0  0  0  0  0  0  0  0
  129.0080  127.6670   56.4770 C   0  0  0  0  0  0  0  0  0  0  0  0
  128.8160  125.1960   57.0810 C   0  0  0  0  0  0  0  0  0  0  0  0
  128.2660  127.0360   58.9240 C   0  0  2  0  0  0  0  0  0  0  0  0
  127.3840  126.0160   59.4050 O   0  0  0  0  0  0  0  0  0  0  0  0
  126.1780  125.8110   58.8300 C   0  0  0  0  0  0  0  0  0  0  0  0
  125.4930  126.6740   58.2750 O   0  0  0  0  0  0  0  0  0  0  0  0
  125.7250  124.3460   58.9530 C   0  0  0  0  0  0  0  0  0  0  0  0
  126.5360  123.6160   60.0430 C   0  0  0  0  0  0  0  0  0  0  0  0
  125.7810  123.5830   57.6120 C   0  0  0  0  0  0  0  0  0  0  0  0
  131.4217  130.3627   59.1055 H   0  0  0  0  0  0  0  0  0  0  0  0
  131.7289  129.1565   57.8104 H   0  0  0  0  0  0  0  0  0  0  0  0
  132.6142  130.7195   57.8104 H   0  0  0  0  0  0  0  0  0  0  0  0
  130.9690  131.7204   56.6493 H   0  0  0  0  0  0  0  0  0  0  0  0
  130.1773  130.0658   56.5201 H   0  0  0  0  0  0  0  0  0  0  0  0
  128.7235  131.9902   57.3012 H   0  0  0  0  0  0  0  0  0  0  0  0
  129.4765  131.7012   60.1248 H   0  0  0  0  0  0  0  0  0  0  0  0
  130.8160  132.4010   59.1538 H   0  0  0  0  0  0  0  0  0  0  0  0
  129.2009  133.1871   59.1538 H   0  0  0  0  0  0  0  0  0  0  0  0
  127.2670  128.6252   60.0286 H   0  0  0  0  0  0  0  0  0  0  0  0
  128.1302  127.0357   61.6826 H   0  0  0  0  0  0  0  0  0  0  0  0
  128.8320  128.5950   63.3202 H   0  0  0  0  0  0  0  0  0  0  0  0
  129.7276  129.5940   62.1258 H   0  0  0  0  0  0  0  0  0  0  0  0
  127.9313  129.5895   62.1258 H   0  0  0  0  0  0  0  0  0  0  0  0
  131.2020  128.4270   61.9920 H   0  0  0  0  0  0  0  0  0  0  0  0
  129.5499  125.1204   60.2593 H   0  0  0  0  0  0  0  0  0  0  0  0
  131.6019  124.8774   58.6371 H   0  0  0  0  0  0  0  0  0  0  0  0
  134.7560  125.0062   59.8893 H   0  0  0  0  0  0  0  0  0  0  0  0
  133.9817  123.4030   60.1301 H   0  0  0  0  0  0  0  0  0  0  0  0
  134.1990  124.9170   57.8710 H   0  0  0  0  0  0  0  0  0  0  0  0
  133.6866  124.9016   62.2608 H   0  0  0  0  0  0  0  0  0  0  0  0
  133.0065  126.5821   61.8283 H   0  0  0  0  0  0  0  0  0  0  0  0
  131.8710  126.4610   64.3970 H   0  0  0  0  0  0  0  0  0  0  0  0
  128.8861  122.3644   64.3121 H   0  0  0  0  0  0  0  0  0  0  0  0
  127.9938  122.6108   62.7728 H   0  0  0  0  0  0  0  0  0  0  0  0
  129.5577  121.7272   62.7728 H   0  0  0  0  0  0  0  0  0  0  0  0
  128.1949  125.3612   62.9050 H   0  0  0  0  0  0  0  0  0  0  0  0
  130.3381  127.0112   63.2705 H   0  0  0  0  0  0  0  0  0  0  0  0
  130.8355  127.2517   58.7475 H   0  0  0  0  0  0  0  0  0  0  0  0
  129.0671  128.6812   56.8988 H   0  0  0  0  0  0  0  0  0  0  0  0
  129.8965  127.4752   55.8575 H   0  0  0  0  0  0  0  0  0  0  0  0
  128.1032  127.5797   55.8575 H   0  0  0  0  0  0  0  0  0  0  0  0
  128.7516  124.4930   57.9246 H   0  0  0  0  0  0  0  0  0  0  0  0
  127.9068  125.1162   56.4670 H   0  0  0  0  0  0  0  0  0  0  0  0
  129.6956  124.9524   56.4670 H   0  0  0  0  0  0  0  0  0  0  0  0
  124.6665  124.3648   59.2518 H   0  0  0  0  0  0  0  0  0  0  0  0
  126.1840  123.9328   61.0359 H   0  0  0  0  0  0  0  0  0  0  0  0
  126.4003  122.5297   59.9353 H   0  0  0  0  0  0  0  0  0  0  0  0
  127.6021  123.8648   59.9353 H   0  0  0  0  0  0  0  0  0  0  0  0
  125.8602  122.5034   57.8074 H   0  0  0  0  0  0  0  0  0  0  0  0
  124.8656  123.7852   57.0366 H   0  0  0  0  0  0  0  0  0  0  0  0
  126.6571  123.9167   57.0366 H   0  0  0  0  0  0  0  0  0  0  0  0
  1  2  1  0
  2  3  1  0
  3  4  1  0
  3  5  1  0
  5  6  2  0
  5  7  1  0
  7  8  1  0
  8  9  1  0
  9 10  1  0
  9 11  1  0
 11 12  1  6
 11 13  1  0
 13 14  1  0
 14 15  2  0
 15 16  1  0
 16 17  1  0
 15 18  1  0
 18 19  1  0
 19 20  1  1
 19 21  1  0
 21 22  2  0
 21 23  1  0
 23 24  1  0
 23 25  2  0
 25 26  1  0
 13 27  1  0
 27 28  1  0
 28 29  1  0
 28 30  1  0
 28 31  1  0
 31 32  1  1
 32 33  1  0
 33 34  2  0
 33 35  1  0
 35 36  1  0
 35 37  1  0
 31  8  1  0
 26 11  1  0
 31 27  1  0
 26 19  1  0
  1 38  1  0
  1 39  1  0
  1 40  1  0
  2 41  1  0
  2 42  1  0
  3 43  1  6
  4 44  1  0
  4 45  1  0
  4 46  1  0
  8 47  1  1
  9 48  1  1
 10 49  1  0
 10 50  1  0
 10 51  1  0
 12 52  1  0
 13 53  1  1
 14 54  1  0
 16 55  1  0
 16 56  1  0
 17 57  1  0
 18 58  1  0
 18 59  1  0
 20 60  1  0
 24 61  1  0
 24 62  1  0
 24 63  1  0
 25 64  1  0
 26 65  1  1
 27 66  1  6
 29 67  1  0
 29 68  1  0
 29 69  1  0
 30 70  1  0
 30 71  1  0
 30 72  1  0
 35 73  1  0
 36 74  1  0
 36 75  1  0
 36 76  1  0
 37 77  1  0
 37 78  1  0
 37 79  1  0
M  END
>  <Binding energies>  (1) 
[-5.89]

>  <Ligand effiencies>  (1) 
[-0.14023809523809522]

>  <Interactions>  (1) 
["V-A:ILE:369:CG2:3237, V-A:ASP:366:CA:3210, V-B:PRO:540:CA:9855, H-A:GLU:543:OE2:4910, V-A:ILE:369:CB:3236, V-B:ALA:541:CB:9864, V-B:GLU:543:CG:9879, V-A:ASP:366:CG:3213, V-B:TYR:539:CZ:9849, H-B:TYR:539:OH:9850, V-A:GLU:543:CD:4908, V-B:PRO:540:CB:9857, V-A:ILE:369:CD1:3239, V-A:MET:535:CE:4835, V-B:GLU:543:CD:9880, H-B:TYR:531:OH:9767, V-A:ASP:366:CB:3212, H-A:ARG:545:NH2:4928, V-A:ARG:545:CZ:4926, H-A:GLU:543:OE1:4909, H-A:ASP:366:O:3209, V-A:PRO:540:N:4884, V-A:PRO:540:CA:4883, H-A:ARG:545:NE:4924, H-A:ASP:366:OD2:3215"]

$$$$
ZINC252612435
     RDKit          3D

 45 48  0  0  0  0  0  0  0  0999 V2000
  130.2240  119.2360   61.4680 N   0  0  0  0  0  0  0  0  0  0  0  0
  131.1430  119.1480   60.4600 C   0  0  0  0  0  0  0  0  0  0  0  0
  130.9920  118.2920   59.4830 N   0  0  0  0  0  0  0  0  0  0  0  0
  132.1080  118.4950   58.6680 O   0  0  0  0  0  0  0  0  0  0  0  0
  132.9400  119.4930   59.1730 N   0  0  0  0  0  0  0  0  0  0  0  0
  132.3210  119.8680   60.2630 C   0  0  0  0  0  0  0  0  0  0  0  0
  132.7970  120.8390   61.1100 N   0  0  0  0  0  0  0  0  0  0  0  0
  134.0600  120.7700   61.5260 N   0  0  0  0  0  0  0  0  0  0  0  0
  134.2440  121.8450   62.3680 N   0  0  0  0  0  0  0  0  0  0  0  0
  133.1130  122.5370   62.4620 C   0  0  0  0  0  0  0  0  0  0  0  0
  132.9500  123.7590   63.2310 C   0  0  0  0  0  0  0  0  0  0  0  0
  133.9260  124.4030   63.6250 O   0  0  0  0  0  0  0  0  0  0  0  0
  131.6670  124.1120   63.4640 N   0  0  0  0  0  0  0  0  0  0  0  0
  131.3360  125.2180   64.1580 N   0  0  0  0  0  0  0  0  0  0  0  0
  130.0890  125.3030   64.3970 C   0  0  0  0  0  0  0  0  0  0  0  0
  129.4680  126.4190   65.1420 C   0  0  0  0  0  0  0  0  0  0  0  0
  129.3750  126.3710   66.5450 C   0  0  0  0  0  0  0  0  0  0  0  0
  128.7930  127.4100   67.2680 C   0  0  0  0  0  0  0  0  0  0  0  0
  128.6730  127.2940   69.3530 I   0  0  0  0  0  0  0  0  0  0  0  0
  128.2890  128.5220   66.6020 C   0  0  0  0  0  0  0  0  0  0  0  0
  128.3680  128.6000   65.2150 C   0  0  0  0  0  0  0  0  0  0  0  0
  127.5930  130.3070   64.2720 I   0  0  0  0  0  0  0  0  0  0  0  0
  128.9530  127.5580   64.4810 C   0  0  0  0  0  0  0  0  0  0  0  0
  129.0080  127.6790   63.1120 O   0  0  0  0  0  0  0  0  0  0  0  0
  132.1340  121.9200   61.6550 C   0  0  0  0  0  0  0  0  0  0  0  0
  130.6950  122.2270   61.3920 C   0  0  0  0  0  0  0  0  0  0  0  0
  130.3090  122.8620   60.2090 C   0  0  0  0  0  0  0  0  0  0  0  0
  128.9670  123.1370   59.9710 C   0  0  0  0  0  0  0  0  0  0  0  0
  127.9890  122.7850   60.9110 C   0  0  0  0  0  0  0  0  0  0  0  0
  126.5570  123.0800   60.6580 N   0  0  0  0  0  0  0  0  0  0  0  0
  125.7790  123.0870   61.6080 O   0  0  0  0  0  0  0  0  0  0  0  0
  126.1980  123.3060   59.5050 O   0  0  0  0  0  0  0  0  0  0  0  0
  128.3860  122.1520   62.0970 C   0  0  0  0  0  0  0  0  0  0  0  0
  129.7290  121.8740   62.3340 C   0  0  0  0  0  0  0  0  0  0  0  0
  130.4690  119.0510   62.4310 H   0  0  0  0  0  0  0  0  0  0  0  0
  129.2670  119.5040   61.2860 H   0  0  0  0  0  0  0  0  0  0  0  0
  130.8930  123.5590   63.1240 H   0  0  0  0  0  0  0  0  0  0  0  0
  129.4349  124.4993   64.0278 H   0  0  0  0  0  0  0  0  0  0  0  0
  129.7697  125.4957   67.0818 H   0  0  0  0  0  0  0  0  0  0  0  0
  127.8272  129.3412   67.1726 H   0  0  0  0  0  0  0  0  0  0  0  0
  129.8060  128.1130   62.8040 H   0  0  0  0  0  0  0  0  0  0  0  0
  131.0679  123.1449   59.4647 H   0  0  0  0  0  0  0  0  0  0  0  0
  128.6702  123.6354   59.0364 H   0  0  0  0  0  0  0  0  0  0  0  0
  127.6304  121.8729   62.8461 H   0  0  0  0  0  0  0  0  0  0  0  0
  130.0294  121.3745   63.2669 H   0  0  0  0  0  0  0  0  0  0  0  0
  1  2  1  0
  2  3  2  0
  3  4  1  0
  4  5  1  0
  5  6  2  0
  6  7  1  0
  7  8  1  0
  8  9  2  0
  9 10  1  0
 10 11  1  0
 11 12  2  0
 11 13  1  0
 13 14  1  0
 14 15  2  0
 15 16  1  0
 16 17  2  0
 17 18  1  0
 18 19  1  0
 18 20  2  0
 20 21  1  0
 21 22  1  0
 21 23  2  0
 23 24  1  0
 10 25  2  0
 25 26  1  0
 26 27  2  0
 27 28  1  0
 28 29  2  0
 29 30  1  0
 30 31  2  0
 30 32  1  0
 29 33  1  0
 33 34  2  0
  6  2  1  0
 25  7  1  0
 34 26  1  0
 23 16  1  0
  1 35  1  0
  1 36  1  0
 13 37  1  0
 15 38  1  0
 17 39  1  0
 20 40  1  0
 24 41  1  0
 27 42  1  0
 28 43  1  0
 33 44  1  0
 34 45  1  0
M  CHG  2  30   1  32  -1
M  END
>  <Binding energies>  (1) 
[-9.74]

>  <Ligand effiencies>  (1) 
[-0.2563157894736842]

>  <Interactions>  (1) 
["V-A:ILE:369:CG2:3237, V-B:PRO:540:CA:9855, V-A:GLY:454:CA:4049, H-A:GLU:543:OE2:4910, V-B:GLU:543:CB:9878, V-B:ALA:541:CB:9864, V-B:TYR:539:CE2:9848, V-A:LEU:475:CG:4257, V-B:GLU:543:CG:9879, H-B:ALA:541:N:9863, V-A:GLU:543:CD:4908, V-B:PRO:540:CB:9857, V-B:HIS:456:CE1:9041, H-A:GLY:454:N:4050, V-B:PRO:540:N:9856, V-B:TYR:539:CD2:9846, V-A:GLU:543:CG:4907, V-A:SER:385:CB:3409, H-A:SER:385:OG:3410, V-B:GLU:543:CD:9880, V-A:LEU:475:CD2:4259, H-A:ARG:545:NH2:4928, H-A:GLU:543:OE1:4909, V-A:GLU:543:CB:4906, H-A:HIS:383:HE2:3395, H-B:TYR:539:O:9840, V-B:PRO:540:C:9853, V-B:ALA:541:CA:9862"]

$$$$
ZINC252612435-again1
     RDKit          3D

 44 47  0  0  0  0  0  0  0  0999 V2000
  127.1510  126.7760   69.5010 N   0  0  0  0  0  0  0  0  0  0  0  0
  128.4610  127.1630   69.5550 C   0  0  0  0  0  0  0  0  0  0  0  0
  129.2290  126.8090   70.5530 N   0  0  0  0  0  0  0  0  0  0  0  0
  130.4670  127.3830   70.2590 O   0  0  0  0  0  0  0  0  0  0  0  0
  130.4340  128.0940   69.0610 N   0  0  0  0  0  0  0  0  0  0  0  0
  129.2000  127.9370   68.6600 C   0  0  0  0  0  0  0  0  0  0  0  0
  128.7020  128.4910   67.5060 N   0  0  0  0  0  0  0  0  0  0  0  0
  128.1130  129.6850   67.5670 N   0  0  0  0  0  0  0  0  0  0  0  0
  127.6960  129.9710   66.2860 N   0  0  0  0  0  0  0  0  0  0  0  0
  128.0170  128.9660   65.4770 C   0  0  0  0  0  0  0  0  0  0  0  0
  127.7640  128.9440   64.0470 C   0  0  0  0  0  0  0  0  0  0  0  0
  126.7420  128.4290   63.5850 O   0  0  0  0  0  0  0  0  0  0  0  0
  128.7240  129.5280   63.2970 N   0  0  0  0  0  0  0  0  0  0  0  0
  128.6470  129.6110   61.9540 N   0  0  0  0  0  0  0  0  0  0  0  0
  128.7520  130.8070   61.5250 C   0  0  0  0  0  0  0  0  0  0  0  0
  128.7000  131.1940   60.0830 C   0  0  0  0  0  0  0  0  0  0  0  0
  127.4890  131.0050   59.3900 C   0  0  0  0  0  0  0  0  0  0  0  0
  127.3520  131.3370   58.0480 C   0  0  0  0  0  0  0  0  0  0  0  0
  125.5270  131.0320   57.0730 I   0  0  0  0  0  0  0  0  0  0  0  0
  128.4270  131.8720   57.3540 C   0  0  0  0  0  0  0  0  0  0  0  0
  129.6470  132.0800   57.9930 C   0  0  0  0  0  0  0  0  0  0  0  0
  131.1770  132.9000   56.7960 I   0  0  0  0  0  0  0  0  0  0  0  0
  129.8000  131.7460   59.3580 C   0  0  0  0  0  0  0  0  0  0  0  0
  130.9440  131.9580   59.9000 O   0  0  0  0  0  0  0  0  0  0  0  0
  128.6800  127.9730   66.2270 C   0  0  0  0  0  0  0  0  0  0  0  0
  129.2380  126.6320   65.8670 C   0  0  0  0  0  0  0  0  0  0  0  0
  129.5020  125.6840   66.8570 C   0  0  0  0  0  0  0  0  0  0  0  0
  130.0150  124.4370   66.5110 C   0  0  0  0  0  0  0  0  0  0  0  0
  130.2730  124.1190   65.1710 C   0  0  0  0  0  0  0  0  0  0  0  0
  130.8200  122.7900   64.8020 N   0  0  0  0  0  0  0  0  0  0  0  0
  130.1280  121.7950   64.9940 O   0  0  0  0  0  0  0  0  0  0  0  0
  131.9470  122.7320   64.3170 O   0  0  0  0  0  0  0  0  0  0  0  0
  130.0080  125.0790   64.1840 C   0  0  0  0  0  0  0  0  0  0  0  0
  129.4940  126.3260   64.5300 C   0  0  0  0  0  0  0  0  0  0  0  0
  126.5440  127.0580   68.7450 H   0  0  0  0  0  0  0  0  0  0  0  0
  126.7500  126.1770   70.2080 H   0  0  0  0  0  0  0  0  0  0  0  0
  129.5490  129.9360   63.7130 H   0  0  0  0  0  0  0  0  0  0  0  0
  128.8902  131.6077   62.2664 H   0  0  0  0  0  0  0  0  0  0  0  0
  126.6267  130.5824   59.9265 H   0  0  0  0  0  0  0  0  0  0  0  0
  128.3153  132.1339   56.2915 H   0  0  0  0  0  0  0  0  0  0  0  0
  129.3043  125.9227   67.9124 H   0  0  0  0  0  0  0  0  0  0  0  0
  130.2196  123.6947   67.2966 H   0  0  0  0  0  0  0  0  0  0  0  0
  130.2078  124.8452   63.1279 H   0  0  0  0  0  0  0  0  0  0  0  0
  129.2893  127.0715   63.7475 H   0  0  0  0  0  0  0  0  0  0  0  0
  1  2  1  0
  2  3  2  0
  3  4  1  0
  4  5  1  0
  5  6  2  0
  6  7  1  0
  7  8  1  0
  8  9  2  0
  9 10  1  0
 10 11  1  0
 11 12  2  0
 11 13  1  0
 13 14  1  0
 14 15  2  0
 15 16  1  0
 16 17  2  0
 17 18  1  0
 18 19  1  0
 18 20  2  0
 20 21  1  0
 21 22  1  0
 21 23  2  0
 23 24  1  0
 10 25  2  0
 25 26  1  0
 26 27  2  0
 27 28  1  0
 28 29  2  0
 29 30  1  0
 30 31  2  0
 30 32  1  0
 29 33  1  0
 33 34  2  0
  6  2  1  0
 25  7  1  0
 34 26  1  0
 23 16  1  0
  1 35  1  0
  1 36  1  0
 13 37  1  0
 15 38  1  0
 17 39  1  0
 20 40  1  0
 27 41  1  0
 28 42  1  0
 33 43  1  0
 34 44  1  0
M  CHG  3  24  -1  30   1  32  -1
M  END
>  <Binding energies>  (1) 
[-8.01]

>  <Ligand effiencies>  (1) 
[-0.21648648648648647]

>  <Interactions>  (1) 
["V-B:GLU:543:C:9874, H-A:GLU:543:OE2:4910, H-B:GLU:543:O:9875, V-B:GLU:543:CB:9878, V-A:ILE:538:CB:4862, V-A:TYR:484:CE2:4346, V-B:GLU:543:CG:9879, V-A:ILE:538:CG2:4863, V-A:LEU:363:CD1:3189, V-A:ILE:538:CA:4860, V-A:TYR:539:CZ:4877, V-A:GLU:543:CD:4908, V-A:TYR:484:CZ:4347, H-B:TYR:484:OH:9319, V-B:HIS:456:CE1:9041, V-B:GLU:543:CA:9876, V-B:GLY:544:C:9884, V-A:GLU:543:CG:4907, V-B:GLU:543:CD:9880, V-A:MET:535:CE:4835, V-A:LEU:475:CD2:4259, H-A:GLU:543:OE1:4909, H-B:ARG:545:NH2:9900, V-A:GLU:543:CB:4906, H-B:GLY:544:O:9885, V-A:PRO:540:N:4884, H-B:GLU:543:OE2:9882, V-A:PRO:540:CA:4883, V-A:PRO:540:CD:4887, V-A:TYR:539:CE1:4875, H-A:TYR:484:OH:4348"]

$$$$
ZINC253398406
     RDKit          3D

 88 91  0  0  0  0  0  0  0  0999 V2000
  127.7120  125.8770   58.4000 C   0  0  0  0  0  0  0  0  0  0  0  0
  128.1980  125.6130   59.6260 C   0  0  0  0  0  0  0  0  0  0  0  0
  127.6250  124.5110   60.5140 C   0  0  0  0  0  0  0  0  0  0  0  0
  128.7330  123.5030   60.8780 C   0  0  0  0  0  0  0  0  0  0  0  0
  129.9390  124.1960   61.5460 C   0  0  2  0  0  0  0  0  0  0  0  0
  129.4740  124.7100   62.7920 O   0  0  0  0  0  0  0  0  0  0  0  0
  130.4000  125.0590   63.8180 C   0  0  0  0  0  0  0  0  0  0  0  0
  130.3180  126.6050   63.8070 C   0  0  0  0  0  0  0  0  0  0  0  0
  129.9020  124.5420   65.1900 C   0  0  0  0  0  0  0  0  0  0  0  0
  131.8300  124.5380   63.4800 C   0  0  2  0  0  0  0  0  0  0  0  0
  132.6330  124.3770   64.6380 O   0  0  0  0  0  0  0  0  0  0  0  0
  132.6000  125.4020   62.4540 C   0  0  0  0  0  0  0  0  0  0  0  0
  131.7330  126.0700   61.3560 C   0  0  0  0  0  0  0  0  0  0  0  0
  130.5340  125.3400   60.6460 C   0  0  1  0  0  0  0  0  0  0  0  0
  131.0880  124.7040   59.3320 C   0  0  0  0  0  0  0  0  0  0  0  0
  129.4000  126.3680   60.2280 C   0  0  2  0  0  0  0  0  0  0  0  0
  128.9410  127.3900   61.3070 C   0  0  0  0  0  0  0  0  0  0  0  0
  128.6280  128.8190   60.7870 C   0  0  0  0  0  0  0  0  0  0  0  0
  128.3900  129.9640   61.8580 C   0  0  2  0  0  0  0  0  0  0  0  0
  128.7420  129.4520   63.1400 O   0  0  0  0  0  0  0  0  0  0  0  0
  126.8620  130.3570   61.9070 C   0  0  2  0  0  0  0  0  0  0  0  0
  125.8940  129.1890   62.2040 C   0  0  0  0  0  0  0  0  0  0  0  0
  126.4180  131.1080   60.6260 C   0  0  0  0  0  0  0  0  0  0  0  0
  127.2980  132.3290   60.3120 C   0  0  0  0  0  0  0  0  0  0  0  0
  128.8100  131.9950   60.3040 C   0  0  2  0  0  0  0  0  0  0  0  0
  129.0980  131.2180   59.1380 O   0  0  0  0  0  0  0  0  0  0  0  0
  130.2400  131.5220   58.3250 C   0  0  0  0  0  0  0  0  0  0  0  0
  129.9850  130.6850   57.0470 C   0  0  0  0  0  0  0  0  0  0  0  0
  130.2680  133.0140   57.8930 C   0  0  0  0  0  0  0  0  0  0  0  0
  131.5750  131.1230   59.0370 C   0  0  2  0  0  0  0  0  0  0  0  0
  131.8230  129.7240   58.9650 O   0  0  0  0  0  0  0  0  0  0  0  0
  131.7280  131.5920   60.5140 C   0  0  2  0  0  0  0  0  0  0  0  0
  133.0820  131.4790   60.9220 O   0  0  0  0  0  0  0  0  0  0  0  0
  130.8220  130.8840   61.5600 C   0  0  0  0  0  0  0  0  0  0  0  0
  129.2890  131.2700   61.6150 C   0  0  2  0  0  0  0  0  0  0  0  0
  129.1250  132.3060   62.7810 C   0  0  0  0  0  0  0  0  0  0  0  0
  128.1555  126.6807   57.7939 H   0  0  0  0  0  0  0  0  0  0  0  0
  126.8711  125.2892   58.0034 H   0  0  0  0  0  0  0  0  0  0  0  0
  127.2208  124.9573   61.4346 H   0  0  0  0  0  0  0  0  0  0  0  0
  126.8232  123.9885   59.9717 H   0  0  0  0  0  0  0  0  0  0  0  0
  128.3212  122.7563   61.5729 H   0  0  0  0  0  0  0  0  0  0  0  0
  129.0821  123.0276   59.9495 H   0  0  0  0  0  0  0  0  0  0  0  0
  130.7589  123.4778   61.6937 H   0  0  0  0  0  0  0  0  0  0  0  0
  130.2982  126.9785   64.8415 H   0  0  0  0  0  0  0  0  0  0  0  0
  131.1957  127.0150   63.2859 H   0  0  0  0  0  0  0  0  0  0  0  0
  129.4019  126.9199   63.2859 H   0  0  0  0  0  0  0  0  0  0  0  0
  130.4216  125.0814   65.9957 H   0  0  0  0  0  0  0  0  0  0  0  0
  128.8185  124.7118   65.2745 H   0  0  0  0  0  0  0  0  0  0  0  0
  130.1122  123.4656   65.2745 H   0  0  0  0  0  0  0  0  0  0  0  0
  131.6455  123.5583   63.0150 H   0  0  0  0  0  0  0  0  0  0  0  0
  132.2870  123.6420   65.1490 H   0  0  0  0  0  0  0  0  0  0  0  0
  133.1206  126.1988   63.0055 H   0  0  0  0  0  0  0  0  0  0  0  0
  133.2750  124.7122   61.9262 H   0  0  0  0  0  0  0  0  0  0  0  0
  131.3075  126.9745   61.8151 H   0  0  0  0  0  0  0  0  0  0  0  0
  132.4549  126.1589   60.5308 H   0  0  0  0  0  0  0  0  0  0  0  0
  131.7913  123.8966   59.5837 H   0  0  0  0  0  0  0  0  0  0  0  0
  130.2542  124.2938   58.7433 H   0  0  0  0  0  0  0  0  0  0  0  0
  131.6087  125.4736   58.7433 H   0  0  0  0  0  0  0  0  0  0  0  0
  129.8796  127.0082   59.4730 H   0  0  0  0  0  0  0  0  0  0  0  0
  128.0303  126.9954   61.7813 H   0  0  0  0  0  0  0  0  0  0  0  0
  129.7900  127.5002   61.9977 H   0  0  0  0  0  0  0  0  0  0  0  0
  129.4741  129.1308   60.1570 H   0  0  0  0  0  0  0  0  0  0  0  0
  127.6614  128.7189   60.2716 H   0  0  0  0  0  0  0  0  0  0  0  0
  129.6630  129.6640   63.3080 H   0  0  0  0  0  0  0  0  0  0  0  0
  126.7901  131.0329   62.7719 H   0  0  0  0  0  0  0  0  0  0  0  0
  125.7915  129.0654   63.2922 H   0  0  0  0  0  0  0  0  0  0  0  0
  124.9093  129.4083   61.7656 H   0  0  0  0  0  0  0  0  0  0  0  0
  126.2923  128.2621   61.7656 H   0  0  0  0  0  0  0  0  0  0  0  0
  126.4679  130.4116   59.7760 H   0  0  0  0  0  0  0  0  0  0  0  0
  125.3948  131.4740   60.7963 H   0  0  0  0  0  0  0  0  0  0  0  0
  127.0190  132.7175   59.3214 H   0  0  0  0  0  0  0  0  0  0  0  0
  127.1279  133.0717   61.1054 H   0  0  0  0  0  0  0  0  0  0  0  0
  129.3736  132.9392   60.2758 H   0  0  0  0  0  0  0  0  0  0  0  0
  129.6752  129.6683   57.3303 H   0  0  0  0  0  0  0  0  0  0  0  0
  129.1902  131.1579   56.4515 H   0  0  0  0  0  0  0  0  0  0  0  0
  130.9085  130.6344   56.4515 H   0  0  0  0  0  0  0  0  0  0  0  0
  130.2800  133.6545   58.7872 H   0  0  0  0  0  0  0  0  0  0  0  0
  131.1699  133.2051   57.2929 H   0  0  0  0  0  0  0  0  0  0  0  0
  129.3739  133.2388   57.2929 H   0  0  0  0  0  0  0  0  0  0  0  0
  132.3299  131.6785   58.4612 H   0  0  0  0  0  0  0  0  0  0  0  0
  132.4560  129.4910   59.6470 H   0  0  0  0  0  0  0  0  0  0  0  0
  131.3863  132.6375   60.4990 H   0  0  0  0  0  0  0  0  0  0  0  0
  133.4580  130.6940   60.5180 H   0  0  0  0  0  0  0  0  0  0  0  0
  130.8779  129.8038   61.3598 H   0  0  0  0  0  0  0  0  0  0  0  0
  131.2188  131.2181   62.5300 H   0  0  0  0  0  0  0  0  0  0  0  0
  129.2072  131.7867   63.7472 H   0  0  0  0  0  0  0  0  0  0  0  0
  129.9135  133.0694   62.7068 H   0  0  0  0  0  0  0  0  0  0  0  0
  128.1393  132.7886   62.7068 H   0  0  0  0  0  0  0  0  0  0  0  0
  1  2  2  0
  2  3  1  0
  3  4  1  0
  4  5  1  0
  5  6  1  0
  6  7  1  0
  7  8  1  0
  7  9  1  0
  7 10  1  0
 10 11  1  0
 10 12  1  0
 12 13  1  0
 13 14  1  0
 14 15  1  6
 14 16  1  0
 16 17  1  0
 17 18  1  0
 18 19  1  0
 19 20  1  1
 19 21  1  0
 21 22  1  0
 21 23  1  0
 23 24  1  0
 24 25  1  0
 25 26  1  0
 26 27  1  0
 27 28  1  0
 27 29  1  0
 27 30  1  0
 30 31  1  0
 30 32  1  0
 32 33  1  0
 32 34  1  0
 34 35  1  0
 35 36  1  1
 16  2  1  0
 35 19  1  0
 14  5  1  0
 35 25  1  0
  1 37  1  0
  1 38  1  0
  3 39  1  0
  3 40  1  0
  4 41  1  0
  4 42  1  0
  5 43  1  1
  8 44  1  0
  8 45  1  0
  8 46  1  0
  9 47  1  0
  9 48  1  0
  9 49  1  0
 10 50  1  6
 11 51  1  0
 12 52  1  0
 12 53  1  0
 13 54  1  0
 13 55  1  0
 15 56  1  0
 15 57  1  0
 15 58  1  0
 16 59  1  6
 17 60  1  0
 17 61  1  0
 18 62  1  0
 18 63  1  0
 20 64  1  0
 21 65  1  1
 22 66  1  0
 22 67  1  0
 22 68  1  0
 23 69  1  0
 23 70  1  0
 24 71  1  0
 24 72  1  0
 25 73  1  6
 28 74  1  0
 28 75  1  0
 28 76  1  0
 29 77  1  0
 29 78  1  0
 29 79  1  0
 30 80  1  6
 31 81  1  0
 32 82  1  6
 33 83  1  0
 34 84  1  0
 34 85  1  0
 36 86  1  0
 36 87  1  0
 36 88  1  0
M  END
>  <Binding energies>  (1) 
[-3.1]

>  <Ligand effiencies>  (1) 
[-0.07045454545454545]

>  <Interactions>  (1) 
["H-A:GLU:543:OE2:4910, V-B:GLU:543:CB:9878, V-B:TYR:539:CE2:9848, V-B:GLU:543:CG:9879, V-A:ASP:366:CG:3213, V-A:TYR:539:CD1:4873, V-B:TYR:539:CZ:9849, V-A:ALA:541:CB:4892, V-A:GLU:543:CD:4908, V-B:GLU:543:CD:9880, V-A:MET:535:CE:4835, V-A:TYR:539:C:4867, V-A:ARG:545:CZ:4926, H-A:GLU:543:OE1:4909, V-A:PRO:540:N:4884, V-A:PRO:540:CB:4885, V-A:PRO:540:CA:4883, H-A:ASP:366:OD2:3215, V-A:PRO:540:CD:4887, V-A:TYR:539:CE1:4875, H-A:TYR:484:OH:4348"]

$$$$
ZINC253400853
     RDKit          3D

 72 75  0  0  0  0  0  0  0  0999 V2000
  128.1680  130.7560   64.2400 C   0  0  0  0  0  0  0  0  0  0  0  0
  126.9750  130.1040   64.6520 O   0  0  0  0  0  0  0  0  0  0  0  0
  126.9550  129.3600   65.7750 C   0  0  0  0  0  0  0  0  0  0  0  0
  125.9570  129.1050   66.4540 O   0  0  0  0  0  0  0  0  0  0  0  0
  128.3570  128.8560   66.1500 C   0  0  0  0  0  0  0  0  0  0  0  0
  128.4540  127.3980   66.6890 C   0  0  2  0  0  0  0  0  0  0  0  0
  128.5910  127.2460   68.2170 C   0  0  0  0  0  0  0  0  0  0  0  0
  129.7960  127.3460   68.9440 C   0  0  0  0  0  0  0  0  0  0  0  0
  131.1970  127.6400   68.4510 C   0  0  0  0  0  0  0  0  0  0  0  0
  129.6270  127.1370   70.2250 N   0  0  0  0  0  0  0  0  0  0  0  0
  128.3200  126.9230   70.3930 N   0  0  0  0  0  0  0  0  0  0  0  0
  127.8150  126.5910   71.7400 C   0  0  1  0  0  0  0  0  0  0  0  0
  128.7800  125.6620   72.5180 C   0  0  0  0  0  0  0  0  0  0  0  0
  129.8790  126.5010   73.1870 C   0  0  0  0  0  0  0  0  0  0  0  0
  129.0260  128.0980   73.6960 S   0  0  0  0  0  0  0  0  0  0  0  0
  128.6230  128.0310   75.1050 O   0  0  0  0  0  0  0  0  0  0  0  0
  129.8090  129.2350   73.2040 O   0  0  0  0  0  0  0  0  0  0  0  0
  127.5090  127.8270   72.6140 C   0  0  0  0  0  0  0  0  0  0  0  0
  127.6280  126.9600   69.2000 C   0  0  0  0  0  0  0  0  0  0  0  0
  126.1290  126.7080   69.1540 C   0  0  0  0  0  0  0  0  0  0  0  0
  129.4170  126.5300   65.8400 C   0  0  0  0  0  0  0  0  0  0  0  0
  130.0080  125.4040   66.3340 C   0  0  0  0  0  0  0  0  0  0  0  0
  129.7880  124.9540   67.5990 O   0  0  0  0  0  0  0  0  0  0  0  0
  130.8980  124.6450   65.4810 C   0  0  0  0  0  0  0  0  0  0  0  0
  131.1260  125.0610   64.2210 C   0  0  0  0  0  0  0  0  0  0  0  0
  132.0550  124.2630   63.3080 C   0  0  0  0  0  0  0  0  0  0  0  0
  130.5280  126.2010   63.6930 N   0  0  0  0  0  0  0  0  0  0  0  0
  130.7750  126.6790   62.3090 C   0  0  0  0  0  0  0  0  0  0  0  0
  129.6430  126.2930   61.3350 C   0  0  0  0  0  0  0  0  0  0  0  0
  129.3300  124.8070   61.3940 C   0  0  0  0  0  0  0  0  0  0  0  0
  130.1000  123.8970   60.6660 C   0  0  0  0  0  0  0  0  0  0  0  0
  129.8170  122.5330   60.7230 C   0  0  0  0  0  0  0  0  0  0  0  0
  128.7620  122.0670   61.5100 C   0  0  0  0  0  0  0  0  0  0  0  0
  128.5020  120.7210   61.5510 O   0  0  0  0  0  0  0  0  0  0  0  0
  127.9860  122.9750   62.2440 C   0  0  0  0  0  0  0  0  0  0  0  0
  126.9450  122.5430   63.0260 O   0  0  0  0  0  0  0  0  0  0  0  0
  128.2730  124.3400   62.1840 C   0  0  0  0  0  0  0  0  0  0  0  0
  129.6550  126.9710   64.4470 C   0  0  0  0  0  0  0  0  0  0  0  0
  129.0910  127.9710   63.9890 O   0  0  0  0  0  0  0  0  0  0  0  0
  128.7399  131.0685   65.1262 H   0  0  0  0  0  0  0  0  0  0  0  0
  128.7747  130.0640   63.6374 H   0  0  0  0  0  0  0  0  0  0  0  0
  127.9132  131.6403   63.6374 H   0  0  0  0  0  0  0  0  0  0  0  0
  128.9867  128.9216   65.2504 H   0  0  0  0  0  0  0  0  0  0  0  0
  128.6809  129.4953   66.9845 H   0  0  0  0  0  0  0  0  0  0  0  0
  127.4523  126.9691   66.5387 H   0  0  0  0  0  0  0  0  0  0  0  0
  131.8668  127.7806   69.3122 H   0  0  0  0  0  0  0  0  0  0  0  0
  131.5555  126.7975   67.8413 H   0  0  0  0  0  0  0  0  0  0  0  0
  131.1866  128.5555   67.8413 H   0  0  0  0  0  0  0  0  0  0  0  0
  126.8679  126.0656   71.5476 H   0  0  0  0  0  0  0  0  0  0  0  0
  128.2181  125.1140   73.2887 H   0  0  0  0  0  0  0  0  0  0  0  0
  129.2409  124.9482   71.8194 H   0  0  0  0  0  0  0  0  0  0  0  0
  130.2818  125.9796   74.0678 H   0  0  0  0  0  0  0  0  0  0  0  0
  130.7295  126.6822   72.5134 H   0  0  0  0  0  0  0  0  0  0  0  0
  126.6233  127.6414   73.2394 H   0  0  0  0  0  0  0  0  0  0  0  0
  127.2961  128.7113   71.9953 H   0  0  0  0  0  0  0  0  0  0  0  0
  125.7366  126.6420   70.1795 H   0  0  0  0  0  0  0  0  0  0  0  0
  125.6341  127.5356   68.6246 H   0  0  0  0  0  0  0  0  0  0  0  0
  125.9319  125.7641   68.6246 H   0  0  0  0  0  0  0  0  0  0  0  0
  130.4490  124.2950   67.8230 H   0  0  0  0  0  0  0  0  0  0  0  0
  131.3848  123.7343   65.8599 H   0  0  0  0  0  0  0  0  0  0  0  0
  132.7482  123.6676   63.9203 H   0  0  0  0  0  0  0  0  0  0  0  0
  131.4577  123.5921   62.6731 H   0  0  0  0  0  0  0  0  0  0  0  0
  132.6281  124.9547   62.6731 H   0  0  0  0  0  0  0  0  0  0  0  0
  130.8659  127.7751   62.3262 H   0  0  0  0  0  0  0  0  0  0  0  0
  131.6985  126.1998   61.9518 H   0  0  0  0  0  0  0  0  0  0  0  0
  128.7373  126.8584   61.5997 H   0  0  0  0  0  0  0  0  0  0  0  0
  129.9742  126.5324   60.3137 H   0  0  0  0  0  0  0  0  0  0  0  0
  130.9332  124.2580   60.0451 H   0  0  0  0  0  0  0  0  0  0  0  0
  130.4267  121.8219   60.1463 H   0  0  0  0  0  0  0  0  0  0  0  0
  128.7220  120.2800   60.7270 H   0  0  0  0  0  0  0  0  0  0  0  0
  126.4370  123.2620   63.4070 H   0  0  0  0  0  0  0  0  0  0  0  0
  127.6651  125.0525   62.7608 H   0  0  0  0  0  0  0  0  0  0  0  0
  1  2  1  0
  2  3  1  0
  3  4  2  0
  3  5  1  0
  5  6  1  0
  6  7  1  0
  7  8  1  0
  8  9  1  0
  8 10  2  0
 10 11  1  0
 11 12  1  0
 12 13  1  0
 13 14  1  0
 14 15  1  0
 15 16  2  0
 15 17  2  0
 15 18  1  0
 11 19  1  0
 19 20  1  0
  6 21  1  0
 21 22  2  0
 22 23  1  0
 22 24  1  0
 24 25  2  0
 25 26  1  0
 25 27  1  0
 27 28  1  0
 28 29  1  0
 29 30  1  0
 30 31  2  0
 31 32  1  0
 32 33  2  0
 33 34  1  0
 33 35  1  0
 35 36  1  0
 35 37  2  0
 27 38  1  0
 38 39  2  0
 19  7  2  0
 38 21  1  0
 18 12  1  0
 37 30  1  0
  1 40  1  0
  1 41  1  0
  1 42  1  0
  5 43  1  0
  5 44  1  0
  6 45  1  6
  9 46  1  0
  9 47  1  0
  9 48  1  0
 12 49  1  6
 13 50  1  0
 13 51  1  0
 14 52  1  0
 14 53  1  0
 18 54  1  0
 18 55  1  0
 20 56  1  0
 20 57  1  0
 20 58  1  0
 23 59  1  0
 24 60  1  0
 26 61  1  0
 26 62  1  0
 26 63  1  0
 28 64  1  0
 28 65  1  0
 29 66  1  0
 29 67  1  0
 31 68  1  0
 32 69  1  0
 34 70  1  0
 36 71  1  0
 37 72  1  0
M  END
>  <Binding energies>  (1) 
[-7.25]

>  <Ligand effiencies>  (1) 
[-0.17261904761904762]

>  <Interactions>  (1) 
["V-B:PRO:540:CA:9855, V-B:GLU:543:C:9874, V-B:HIS:456:CD2:9039, H-B:GLU:543:O:9875, V-B:GLU:543:CB:9878, H-B:LYS:547:NZ:9923, V-B:ALA:541:CB:9864, V-B:TYR:539:CE2:9848, V-A:TYR:484:CE2:4346, H-B:ALA:541:O:9861, V-B:GLU:543:CG:9879, V-A:HIS:456:CD2:4068, H-B:GLU:543:OE1:9881, V-B:ARG:545:CG:9894, H-B:ALA:541:N:9863, V-B:LYS:547:CE:9922, V-A:GLU:543:CD:4908, V-A:TYR:484:CZ:4347, H-B:TYR:484:OH:9319, V-B:HIS:456:CE1:9041, V-B:GLU:543:CA:9876, V-A:ARG:545:CG:4922, V-B:TYR:484:CZ:9318, V-A:HIS:456:CE1:4070, V-B:GLY:544:C:9884, V-B:GLY:544:CA:9886, V-A:GLU:543:CG:4907, V-B:TYR:539:CD2:9846, V-B:GLU:543:CD:9880, V-B:HIS:456:CG:9037, H-A:LYS:547:NZ:4951, V-A:GLU:543:CB:4906, V-B:ARG:545:CA:9891, H-B:TYR:539:O:9840, V-B:PRO:540:C:9853, H-A:HIS:456:NE2:4071, H-A:TYR:484:OH:4348, H-B:PRO:540:O:9854"]

$$$$
ZINC253411537-again1
     RDKit          3D

 68 73  0  0  0  0  0  0  0  0999 V2000
  131.8680  127.9330   58.2710 C   0  0  0  0  0  0  0  0  0  0  0  0
  130.4980  127.8440   57.8990 O   0  0  0  0  0  0  0  0  0  0  0  0
  129.9150  126.5980   57.7450 C   0  0  0  0  0  0  0  0  0  0  0  0
  129.5510  126.0540   56.5040 C   0  0  0  0  0  0  0  0  0  0  0  0
  128.9760  124.7880   56.4260 C   0  0  0  0  0  0  0  0  0  0  0  0
  128.7620  124.0480   57.5840 C   0  0  0  0  0  0  0  0  0  0  0  0
  129.1140  124.5660   58.8370 C   0  0  0  0  0  0  0  0  0  0  0  0
  128.8630  123.7190   60.0980 C   0  0  2  0  0  0  0  0  0  0  0  0
  127.5300  124.1600   60.7450 C   0  0  0  0  0  0  0  0  0  0  0  0
  127.2280  123.3500   62.0060 C   0  0  0  0  0  0  0  0  0  0  0  0
  126.1370  122.9080   62.3590 O   0  0  0  0  0  0  0  0  0  0  0  0
  128.3070  123.0390   62.7780 O   0  0  0  0  0  0  0  0  0  0  0  0
  129.5990  123.4810   62.4950 C   0  0  0  0  0  0  0  0  0  0  0  0
  130.5140  123.5510   63.5690 C   0  0  0  0  0  0  0  0  0  0  0  0
  129.9900  123.2510   64.9670 C   0  0  0  0  0  0  0  0  0  0  0  0
  130.2460  124.3180   66.0330 C   0  0  0  0  0  0  0  0  0  0  0  0
  129.5570  122.1550   65.3250 O   0  0  0  0  0  0  0  0  0  0  0  0
  131.8870  123.8270   63.2870 C   0  0  0  0  0  0  0  0  0  0  0  0
  132.7200  123.9550   64.2540 O   0  0  0  0  0  0  0  0  0  0  0  0
  132.3290  123.9830   61.9380 C   0  0  0  0  0  0  0  0  0  0  0  0
  133.7450  124.2380   61.4450 C   0  0  0  0  0  0  0  0  0  0  0  0
  134.9360  124.3600   62.3980 C   0  0  0  0  0  0  0  0  0  0  0  0
  133.9970  124.3680   60.1260 C   0  0  0  0  0  0  0  0  0  0  0  0
  132.9620  124.2500   59.1160 C   0  0  0  0  0  0  0  0  0  0  0  0
  133.0900  124.3560   57.8980 O   0  0  0  0  0  0  0  0  0  0  0  0
  131.7090  123.9590   59.5690 O   0  0  0  0  0  0  0  0  0  0  0  0
  131.3580  123.9110   60.9130 C   0  0  0  0  0  0  0  0  0  0  0  0
  129.9880  123.7310   61.1680 C   0  0  0  0  0  0  0  0  0  0  0  0
  129.6840  125.8500   58.9120 C   0  0  0  0  0  0  0  0  0  0  0  0
  130.0380  126.3840   60.1270 O   0  0  0  0  0  0  0  0  0  0  0  0
  129.1500  127.3830   60.6220 C   0  0  0  0  0  0  0  0  0  0  0  0
  129.9600  128.5870   61.1280 C   0  0  0  0  0  0  0  0  0  0  0  0
  129.8850  129.7840   60.1880 C   0  0  0  0  0  0  0  0  0  0  0  0
  128.6390  130.3320   59.8480 C   0  0  0  0  0  0  0  0  0  0  0  0
  128.5580  131.4240   58.9790 C   0  0  0  0  0  0  0  0  0  0  0  0
  129.7380  131.9360   58.4490 C   0  0  0  0  0  0  0  0  0  0  0  0
  130.9740  131.4060   58.7660 C   0  0  0  0  0  0  0  0  0  0  0  0
  131.0590  130.3340   59.6550 C   0  0  0  0  0  0  0  0  0  0  0  0
  132.0170  132.2350   58.0910 C   0  0  0  0  0  0  0  0  0  0  0  0
  131.1660  133.1310   57.1800 C   0  0  0  0  0  0  0  0  0  0  0  0
  129.8080  133.0170   57.6080 O   0  0  0  0  0  0  0  0  0  0  0  0
  131.9505  127.9384   59.3679 H   0  0  0  0  0  0  0  0  0  0  0  0
  132.4147  127.0685   57.8664 H   0  0  0  0  0  0  0  0  0  0  0  0
  132.2983  128.8610   57.8664 H   0  0  0  0  0  0  0  0  0  0  0  0
  129.7214  126.6328   55.5842 H   0  0  0  0  0  0  0  0  0  0  0  0
  128.6909  124.3731   55.4480 H   0  0  0  0  0  0  0  0  0  0  0  0
  128.3121  123.0466   57.5153 H   0  0  0  0  0  0  0  0  0  0  0  0
  128.8317  122.6787   59.7419 H   0  0  0  0  0  0  0  0  0  0  0  0
  127.5963  125.2253   61.0111 H   0  0  0  0  0  0  0  0  0  0  0  0
  126.7199  123.9887   60.0208 H   0  0  0  0  0  0  0  0  0  0  0  0
  130.1388  123.8710   67.0324 H   0  0  0  0  0  0  0  0  0  0  0  0
  131.2650  124.7156   65.9166 H   0  0  0  0  0  0  0  0  0  0  0  0
  129.5183  125.1346   65.9166 H   0  0  0  0  0  0  0  0  0  0  0  0
  134.5789  124.3234   63.4378 H   0  0  0  0  0  0  0  0  0  0  0  0
  135.6342  123.5287   62.2207 H   0  0  0  0  0  0  0  0  0  0  0  0
  135.4511  125.3156   62.2207 H   0  0  0  0  0  0  0  0  0  0  0  0
  135.0287  124.5717   59.8033 H   0  0  0  0  0  0  0  0  0  0  0  0
  128.4772  127.7076   59.8145 H   0  0  0  0  0  0  0  0  0  0  0  0
  128.5571  126.9673   61.4501 H   0  0  0  0  0  0  0  0  0  0  0  0
  129.5679  128.8866   62.1111 H   0  0  0  0  0  0  0  0  0  0  0  0
  131.0137  128.2769   61.1872 H   0  0  0  0  0  0  0  0  0  0  0  0
  127.7192  129.8992   60.2683 H   0  0  0  0  0  0  0  0  0  0  0  0
  127.5851  131.8676   58.7206 H   0  0  0  0  0  0  0  0  0  0  0  0
  132.0402  129.9234   59.9356 H   0  0  0  0  0  0  0  0  0  0  0  0
  132.5877  132.8308   58.8186 H   0  0  0  0  0  0  0  0  0  0  0  0
  132.7750  131.6460   57.5539 H   0  0  0  0  0  0  0  0  0  0  0  0
  131.4993  134.1759   57.2643 H   0  0  0  0  0  0  0  0  0  0  0  0
  131.2672  132.8207   56.1295 H   0  0  0  0  0  0  0  0  0  0  0  0
  1  2  1  0
  2  3  1  0
  3  4  2  0
  4  5  1  0
  5  6  2  0
  6  7  1  0
  7  8  1  0
  8  9  1  0
  9 10  1  0
 10 11  2  0
 10 12  1  0
 12 13  1  0
 13 14  2  0
 14 15  1  0
 15 16  1  0
 15 17  2  0
 14 18  1  0
 18 19  1  0
 18 20  2  0
 20 21  1  0
 21 22  1  0
 21 23  2  0
 23 24  1  0
 24 25  2  0
 24 26  1  0
 26 27  1  0
 27 28  2  0
  7 29  2  0
 29 30  1  0
 30 31  1  0
 31 32  1  0
 32 33  1  0
 33 34  2  0
 34 35  1  0
 35 36  2  0
 36 37  1  0
 37 38  2  0
 37 39  1  0
 39 40  1  0
 40 41  1  0
 29  3  1  0
 38 33  1  0
 28  8  1  0
 41 36  1  0
 28 13  1  0
 27 20  1  0
  1 42  1  0
  1 43  1  0
  1 44  1  0
  4 45  1  0
  5 46  1  0
  6 47  1  0
  8 48  1  6
  9 49  1  0
  9 50  1  0
 16 51  1  0
 16 52  1  0
 16 53  1  0
 22 54  1  0
 22 55  1  0
 22 56  1  0
 23 57  1  0
 31 58  1  0
 31 59  1  0
 32 60  1  0
 32 61  1  0
 34 62  1  0
 35 63  1  0
 38 64  1  0
 39 65  1  0
 39 66  1  0
 40 67  1  0
 40 68  1  0
M  CHG  1  19  -1
M  END
>  <Binding energies>  (1) 
[-7.86]

>  <Ligand effiencies>  (1) 
[-0.19170731707317074]

>  <Interactions>  (1) 
["V-A:ILE:369:CG2:3237, V-A:ASP:366:CA:3210, V-B:PRO:540:CA:9855, V-A:ILE:369:CB:3236, V-B:GLU:543:CB:9878, V-A:ILE:538:CB:4862, H-A:TYR:531:OH:4795, V-B:TYR:539:CE2:9848, V-A:TYR:484:CE2:4346, V-B:GLU:543:CG:9879, V-A:ASP:366:CG:3213, V-A:LEU:363:CD1:3189, V-B:TYR:539:CZ:9849, H-B:TYR:539:OH:9850, H-B:ALA:541:N:9863, V-A:TYR:484:CZ:4347, H-A:GLY:454:N:4050, V-A:GLY:453:C:4042, V-A:ILE:369:CD1:3239, V-B:TYR:539:CD2:9846, V-A:TYR:531:CZ:4794, V-B:GLU:543:CD:9880, V-A:TYR:539:C:4867, V-A:ASP:366:CB:3212, V-A:PRO:540:N:4884, H-A:TYR:539:N:4870, V-A:PRO:540:CB:4885, V-A:PRO:540:CA:4883, V-A:GLY:453:CA:4044, V-A:PRO:540:CD:4887, V-B:TYR:539:CE1:9847, H-A:TYR:484:OH:4348"]

$$$$
ZINC253470542
     RDKit          3D

 58 60  0  0  0  0  0  0  0  0999 V2000
  130.0990  132.2710   75.8320 C   0  0  0  0  0  0  0  0  0  0  0  0
  128.7850  131.8320   75.3630 N   0  0  0  0  0  0  0  0  0  0  0  0
  127.6750  132.7750   75.5110 C   0  0  0  0  0  0  0  0  0  0  0  0
  128.6670  130.7120   74.4940 C   0  0  0  0  0  0  0  0  0  0  0  0
  129.4850  130.5820   73.3600 C   0  0  0  0  0  0  0  0  0  0  0  0
  129.3730  129.4830   72.5120 C   0  0  0  0  0  0  0  0  0  0  0  0
  128.4380  128.4730   72.7670 C   0  0  0  0  0  0  0  0  0  0  0  0
  128.3370  127.2850   71.8290 C   0  0  0  0  0  0  0  0  0  0  0  0
  128.3640  126.1330   72.2740 O   0  0  0  0  0  0  0  0  0  0  0  0
  128.2280  127.5700   70.5140 N   0  0  0  0  0  0  0  0  0  0  0  0
  128.1240  126.6140   69.5640 N   0  0  0  0  0  0  0  0  0  0  0  0
  129.1510  126.4140   68.8260 C   0  0  0  0  0  0  0  0  0  0  0  0
  130.4480  127.0920   68.8810 C   0  0  0  0  0  0  0  0  0  0  0  0
  131.4860  126.8100   68.0520 C   0  0  0  0  0  0  0  0  0  0  0  0
  131.4470  125.8040   67.0090 C   0  0  0  0  0  0  0  0  0  0  0  0
  132.4750  125.6020   66.2720 N   0  0  0  0  0  0  0  0  0  0  0  0
  132.3660  124.6520   65.3160 N   0  0  0  0  0  0  0  0  0  0  0  0
  133.2270  124.5560   64.2810 C   0  0  0  0  0  0  0  0  0  0  0  0
  134.1920  125.3120   64.1280 O   0  0  0  0  0  0  0  0  0  0  0  0
  132.9630  123.4390   63.2900 C   0  0  0  0  0  0  0  0  0  0  0  0
  131.6490  123.1470   62.9050 C   0  0  0  0  0  0  0  0  0  0  0  0
  131.3810  122.1220   62.0020 C   0  0  0  0  0  0  0  0  0  0  0  0
  132.4170  121.3510   61.4490 C   0  0  0  0  0  0  0  0  0  0  0  0
  132.1420  120.2990   60.5300 N   0  0  0  0  0  0  0  0  0  0  0  0
  133.0440  120.0420   59.4070 C   0  0  0  0  0  0  0  0  0  0  0  0
  131.1880  119.2440   60.8750 C   0  0  0  0  0  0  0  0  0  0  0  0
  133.7330  121.6480   61.8410 C   0  0  0  0  0  0  0  0  0  0  0  0
  134.0030  122.6720   62.7450 C   0  0  0  0  0  0  0  0  0  0  0  0
  130.1490  125.1260   66.9550 C   0  0  0  0  0  0  0  0  0  0  0  0
  129.1130  125.4080   67.7840 C   0  0  0  0  0  0  0  0  0  0  0  0
  127.6180  128.5940   73.8990 C   0  0  0  0  0  0  0  0  0  0  0  0
  127.7330  129.6930   74.7460 C   0  0  0  0  0  0  0  0  0  0  0  0
  130.1130  132.2757   76.9319 H   0  0  0  0  0  0  0  0  0  0  0  0
  130.8707  131.5819   75.4584 H   0  0  0  0  0  0  0  0  0  0  0  0
  130.3015  133.2856   75.4584 H   0  0  0  0  0  0  0  0  0  0  0  0
  127.4769  132.9433   76.5798 H   0  0  0  0  0  0  0  0  0  0  0  0
  127.9385  133.7296   75.0322 H   0  0  0  0  0  0  0  0  0  0  0  0
  126.7755  132.3606   75.0322 H   0  0  0  0  0  0  0  0  0  0  0  0
  130.2277  131.3623   73.1375 H   0  0  0  0  0  0  0  0  0  0  0  0
  130.0273  129.4077   71.6310 H   0  0  0  0  0  0  0  0  0  0  0  0
  128.2190  128.5210   70.1770 H   0  0  0  0  0  0  0  0  0  0  0  0
  130.5898  127.8764   69.6390 H   0  0  0  0  0  0  0  0  0  0  0  0
  132.4168  127.3821   68.1803 H   0  0  0  0  0  0  0  0  0  0  0  0
  131.5910  124.0150   65.4220 H   0  0  0  0  0  0  0  0  0  0  0  0
  130.8178  123.7350   63.3213 H   0  0  0  0  0  0  0  0  0  0  0  0
  130.3397  121.9121   61.7164 H   0  0  0  0  0  0  0  0  0  0  0  0
  134.0356  119.7595   59.7904 H   0  0  0  0  0  0  0  0  0  0  0  0
  132.6412  119.2229   58.7932 H   0  0  0  0  0  0  0  0  0  0  0  0
  133.1334  120.9504   58.7932 H   0  0  0  0  0  0  0  0  0  0  0  0
  131.1130  119.1610   61.9693 H   0  0  0  0  0  0  0  0  0  0  0  0
  130.2008  119.4914   60.4575 H   0  0  0  0  0  0  0  0  0  0  0  0
  131.5332  118.2866   60.4575 H   0  0  0  0  0  0  0  0  0  0  0  0
  134.5654  121.0607   61.4261 H   0  0  0  0  0  0  0  0  0  0  0  0
  135.0432  122.8817   63.0348 H   0  0  0  0  0  0  0  0  0  0  0  0
  130.0063  124.3417   66.1971 H   0  0  0  0  0  0  0  0  0  0  0  0
  128.1826  124.8351   67.6568 H   0  0  0  0  0  0  0  0  0  0  0  0
  126.8763  127.8122   74.1197 H   0  0  0  0  0  0  0  0  0  0  0  0
  127.0806  129.7649   75.6287 H   0  0  0  0  0  0  0  0  0  0  0  0
  1  2  1  0
  2  3  1  0
  2  4  1  0
  4  5  2  0
  5  6  1  0
  6  7  2  0
  7  8  1  0
  8  9  2  0
  8 10  1  0
 10 11  1  0
 11 12  2  3
 12 13  1  0
 13 14  2  0
 14 15  1  0
 15 16  2  3
 16 17  1  0
 17 18  1  0
 18 19  2  0
 18 20  1  0
 20 21  2  0
 21 22  1  0
 22 23  2  0
 23 24  1  0
 24 25  1  0
 24 26  1  0
 23 27  1  0
 27 28  2  0
 15 29  1  0
 29 30  2  0
  7 31  1  0
 31 32  2  0
 32  4  1  0
 30 12  1  0
 28 20  1  0
  1 33  1  0
  1 34  1  0
  1 35  1  0
  3 36  1  0
  3 37  1  0
  3 38  1  0
  5 39  1  0
  6 40  1  0
 10 41  1  0
 13 42  1  0
 14 43  1  0
 17 44  1  0
 21 45  1  0
 22 46  1  0
 25 47  1  0
 25 48  1  0
 25 49  1  0
 26 50  1  0
 26 51  1  0
 26 52  1  0
 27 53  1  0
 28 54  1  0
 29 55  1  0
 30 56  1  0
 31 57  1  0
 32 58  1  0
M  END
>  <Binding energies>  (1) 
[-6.51]

>  <Ligand effiencies>  (1) 
[-0.19147058823529411]

>  <Interactions>  (1) 
["V-A:ILE:369:CG2:3237, V-A:GLY:454:CA:4049, V-B:GLU:543:C:9874, V-B:HIS:456:CD2:9039, V-A:GLU:543:C:4902, V-B:GLU:543:CB:9878, H-B:LYS:547:NZ:9923, H-A:ARG:545:NH1:4927, V-A:TYR:484:CE2:4346, V-B:TYR:539:CE2:9848, V-B:GLU:543:CG:9879, V-A:LYS:547:CD:4949, V-A:GLU:543:CD:4908, V-A:TYR:484:CZ:4347, V-B:HIS:456:CE1:9041, V-A:ARG:545:CG:4922, H-A:GLY:454:N:4050, V-B:GLU:543:CA:9876, V-A:GLY:453:C:4042, V-A:HIS:456:CE1:4070, V-A:ILE:369:CD1:3239, H-B:HIS:456:NE2:9042, V-B:TYR:539:CD2:9846, V-A:SER:385:CB:3409, V-B:HIS:456:CG:9037, V-A:LEU:475:CD2:4259, H-A:ARG:545:NH2:4928, V-A:ARG:545:CZ:4926, V-A:GLU:543:CB:4906, V-A:LYS:547:CE:4950, H-A:ARG:545:NE:4924, V-B:ASP:473:CG:9211, H-A:TYR:484:OH:4348, H-A:GLU:543:O:4903"]

$$$$
ZINC253497499
     RDKit          3D

 71 74  0  0  0  0  0  0  0  0999 V2000
  133.2610  131.6020   61.8570 C   0  0  0  0  0  0  0  0  0  0  0  0
  132.1540  132.1800   62.5310 O   0  0  0  0  0  0  0  0  0  0  0  0
  130.8920  131.9000   62.1430 C   0  0  0  0  0  0  0  0  0  0  0  0
  129.8870  132.5610   62.4060 O   0  0  0  0  0  0  0  0  0  0  0  0
  130.8030  130.6220   61.3050 C   0  0  0  0  0  0  0  0  0  0  0  0
  129.8040  130.7360   60.1330 C   0  0  0  0  0  0  0  0  0  0  0  0
  129.6490  129.4570   59.2690 C   0  0  1  0  0  0  0  0  0  0  0  0
  129.5600  129.8160   57.7640 C   0  0  0  0  0  0  0  0  0  0  0  0
  130.7750  128.3920   59.5180 C   0  0  2  0  0  0  0  0  0  0  0  0
  131.7360  128.2370   58.3020 C   0  0  0  0  0  0  0  0  0  0  0  0
  132.2500  126.7880   58.2870 C   0  0  0  0  0  0  0  0  0  0  0  0
  131.7390  126.2070   59.6040 C   0  0  2  0  0  0  0  0  0  0  0  0
  131.7060  124.6690   59.7950 C   0  0  1  0  0  0  0  0  0  0  0  0
  133.0230  123.9740   59.3500 C   0  0  0  0  0  0  0  0  0  0  0  0
  133.2360  122.5740   59.9630 C   0  0  0  0  0  0  0  0  0  0  0  0
  131.9000  121.9290   60.3750 C   0  0  1  0  0  0  0  0  0  0  0  0
  132.0210  120.4190   60.7040 C   0  0  0  0  0  0  0  0  0  0  0  0
  130.6490  119.7760   61.0120 C   0  0  1  0  0  0  0  0  0  0  0  0
  130.8140  118.4490   61.4690 O   0  0  0  0  0  0  0  0  0  0  0  0
  129.8040  120.5980   62.0170 C   0  0  0  0  0  0  0  0  0  0  0  0
  129.8140  122.1120   61.6960 C   0  0  0  0  0  0  0  0  0  0  0  0
  131.2460  122.7260   61.5610 C   0  0  1  0  0  0  0  0  0  0  0  0
  132.0110  122.5440   62.9110 C   0  0  0  0  0  0  0  0  0  0  0  0
  131.2450  124.2890   61.2430 C   0  0  2  0  0  0  0  0  0  0  0  0
  129.9330  125.0490   61.6120 C   0  0  0  0  0  0  0  0  0  0  0  0
  129.9580  126.5810   61.3430 C   0  0  1  0  0  0  0  0  0  0  0  0
  130.7990  127.2330   62.2790 O   0  0  0  0  0  0  0  0  0  0  0  0
  130.3770  126.9090   59.8640 C   0  0  1  0  0  0  0  0  0  0  0  0
  129.2540  126.4270   58.8870 C   0  0  0  0  0  0  0  0  0  0  0  0
  133.9837  131.2247   62.5955 H   0  0  0  0  0  0  0  0  0  0  0  0
  132.9130  130.7705   61.2265 H   0  0  0  0  0  0  0  0  0  0  0  0
  133.7444  132.3628   61.2265 H   0  0  0  0  0  0  0  0  0  0  0  0
  131.7998  130.4015   60.8955 H   0  0  0  0  0  0  0  0  0  0  0  0
  130.4435  129.8199   61.9663 H   0  0  0  0  0  0  0  0  0  0  0  0
  128.8174  130.9862   60.5502 H   0  0  0  0  0  0  0  0  0  0  0  0
  130.2074  131.5094   59.4629 H   0  0  0  0  0  0  0  0  0  0  0  0
  128.7058  128.9882   59.5862 H   0  0  0  0  0  0  0  0  0  0  0  0
  129.2966  130.8785   57.6554 H   0  0  0  0  0  0  0  0  0  0  0  0
  130.5319  129.6283   57.2842 H   0  0  0  0  0  0  0  0  0  0  0  0
  128.7884  129.1961   57.2842 H   0  0  0  0  0  0  0  0  0  0  0  0
  131.2165  128.8461   60.4174 H   0  0  0  0  0  0  0  0  0  0  0  0
  131.1950  128.4513   57.3685 H   0  0  0  0  0  0  0  0  0  0  0  0
  132.5771  128.9409   58.3864 H   0  0  0  0  0  0  0  0  0  0  0  0
  131.8393  126.2353   57.4292 H   0  0  0  0  0  0  0  0  0  0  0  0
  133.3440  126.7255   58.1903 H   0  0  0  0  0  0  0  0  0  0  0  0
  132.4960  126.4222   60.3725 H   0  0  0  0  0  0  0  0  0  0  0  0
  130.9434  124.2675   59.1114 H   0  0  0  0  0  0  0  0  0  0  0  0
  133.0068  123.8725   58.2548 H   0  0  0  0  0  0  0  0  0  0  0  0
  133.8504  124.6051   59.7066 H   0  0  0  0  0  0  0  0  0  0  0  0
  133.7298  121.9300   59.2204 H   0  0  0  0  0  0  0  0  0  0  0  0
  133.8588  122.6826   60.8632 H   0  0  0  0  0  0  0  0  0  0  0  0
  131.2369  121.9891   59.4994 H   0  0  0  0  0  0  0  0  0  0  0  0
  132.4681  119.9033   59.8414 H   0  0  0  0  0  0  0  0  0  0  0  0
  132.6498  120.3184   61.6009 H   0  0  0  0  0  0  0  0  0  0  0  0
  130.0877  119.7669   60.0660 H   0  0  0  0  0  0  0  0  0  0  0  0
  131.7270  118.1890   61.3280 H   0  0  0  0  0  0  0  0  0  0  0  0
  128.7656  120.2367   61.9840 H   0  0  0  0  0  0  0  0  0  0  0  0
  130.2458  120.4638   63.0154 H   0  0  0  0  0  0  0  0  0  0  0  0
  129.2804  122.2675   60.7467 H   0  0  0  0  0  0  0  0  0  0  0  0
  129.3296  122.6194   62.5433 H   0  0  0  0  0  0  0  0  0  0  0  0
  131.3187  122.7087   63.7498 H   0  0  0  0  0  0  0  0  0  0  0  0
  132.4186  121.5238   62.9668 H   0  0  0  0  0  0  0  0  0  0  0  0
  132.8343  123.2713   62.9668 H   0  0  0  0  0  0  0  0  0  0  0  0
  132.0206  124.6447   61.9372 H   0  0  0  0  0  0  0  0  0  0  0  0
  129.1108  124.6136   61.0251 H   0  0  0  0  0  0  0  0  0  0  0  0
  129.8070  124.9315   62.6984 H   0  0  0  0  0  0  0  0  0  0  0  0
  128.9351  126.9641   61.4734 H   0  0  0  0  0  0  0  0  0  0  0  0
  130.4150  128.0870   62.4900 H   0  0  0  0  0  0  0  0  0  0  0  0
  128.3957  126.0586   59.4681 H   0  0  0  0  0  0  0  0  0  0  0  0
  128.9341  127.2671   58.2530 H   0  0  0  0  0  0  0  0  0  0  0  0
  129.6426  125.6164   58.2530 H   0  0  0  0  0  0  0  0  0  0  0  0
  1  2  1  0
  2  3  1  0
  3  4  2  0
  3  5  1  0
  5  6  1  0
  6  7  1  0
  7  8  1  0
  7  9  1  0
  9 10  1  0
 10 11  1  0
 11 12  1  0
 12 13  1  0
 13 14  1  0
 14 15  1  0
 15 16  1  0
 16 17  1  0
 17 18  1  0
 18 19  1  0
 18 20  1  0
 20 21  1  0
 21 22  1  0
 22 23  1  1
 22 24  1  0
 24 25  1  0
 25 26  1  0
 26 27  1  0
 26 28  1  0
 28 29  1  6
 28  9  1  0
 28 12  1  0
 24 13  1  0
 22 16  1  0
  1 30  1  0
  1 31  1  0
  1 32  1  0
  5 33  1  0
  5 34  1  0
  6 35  1  0
  6 36  1  0
  7 37  1  1
  8 38  1  0
  8 39  1  0
  8 40  1  0
  9 41  1  1
 10 42  1  0
 10 43  1  0
 11 44  1  0
 11 45  1  0
 12 46  1  1
 13 47  1  6
 14 48  1  0
 14 49  1  0
 15 50  1  0
 15 51  1  0
 16 52  1  6
 17 53  1  0
 17 54  1  0
 18 55  1  6
 19 56  1  0
 20 57  1  0
 20 58  1  0
 21 59  1  0
 21 60  1  0
 23 61  1  0
 23 62  1  0
 23 63  1  0
 24 64  1  1
 25 65  1  0
 25 66  1  0
 26 67  1  1
 27 68  1  0
 29 69  1  0
 29 70  1  0
 29 71  1  0
M  END
>  <Binding energies>  (1) 
[-7.14]

>  <Ligand effiencies>  (1) 
[-0.23032258064516128]

>  <Interactions>  (1) 
["V-A:ILE:369:CG2:3237, V-A:ASP:366:CA:3210, H-A:GLU:543:OE2:4910, V-A:ILE:369:CB:3236, H-A:ALA:541:N:4891, V-B:ALA:541:CB:9864, V-B:TYR:539:CE2:9848, V-A:ASP:366:CG:3213, V-A:ASN:362:CB:3176, V-B:TYR:539:CD2:9846, V-A:TYR:531:CZ:4794, H-A:SER:385:OG:3410, V-A:ASP:366:CB:3212, V-A:LEU:475:CD2:4259, H-A:ARG:545:NH2:4928, H-A:GLU:543:OE1:4909, H-A:HIS:383:HE2:3395, V-A:PRO:540:CB:4885, V-A:PRO:540:CA:4883"]

$$$$
ZINC253498122
     RDKit          3D

 82 86  0  0  0  0  0  0  0  0999 V2000
  133.7710  131.9270   61.3000 C   0  0  0  0  0  0  0  0  0  0  0  0
  132.7200  131.8410   62.4010 C   0  0  0  0  0  0  0  0  0  0  0  0
  133.0470  131.4550   63.5240 O   0  0  0  0  0  0  0  0  0  0  0  0
  131.4700  132.2080   62.0670 N   0  0  0  0  0  0  0  0  0  0  0  0
  130.3110  132.2000   62.9620 C   0  0  0  0  0  0  0  0  0  0  0  0
  128.9490  132.4290   62.2550 C   0  0  1  0  0  0  0  0  0  0  0  0
  128.7680  133.9260   61.9280 C   0  0  0  0  0  0  0  0  0  0  0  0
  128.7720  131.5220   61.0040 C   0  0  0  0  0  0  0  0  0  0  0  0
  129.9660  130.6080   60.5930 C   0  0  2  0  0  0  0  0  0  0  0  0
  130.6470  131.1370   59.3230 C   0  0  0  0  0  0  0  0  0  0  0  0
  131.3300  132.1530   59.1970 O   0  0  0  0  0  0  0  0  0  0  0  0
  130.2700  130.2360   58.2330 C   0  0  0  0  0  0  0  0  0  0  0  0
  130.6340  130.6230   56.8080 C   0  0  0  0  0  0  0  0  0  0  0  0
  129.6510  129.1500   58.7370 C   0  0  0  0  0  0  0  0  0  0  0  0
  129.6400  129.1410   60.2450 C   0  0  1  0  0  0  0  0  0  0  0  0
  130.6190  128.2650   60.7840 O   0  0  0  0  0  0  0  0  0  0  0  0
  128.2200  128.6030   60.4770 C   0  0  0  0  0  0  0  0  0  0  0  0
  128.0070  127.5100   59.4100 C   0  0  2  0  0  0  0  0  0  0  0  0
  128.1730  126.0480   59.9400 C   0  0  1  0  0  0  0  0  0  0  0  0
  127.0160  125.6590   60.8960 C   0  0  0  0  0  0  0  0  0  0  0  0
  127.1510  124.2130   61.3340 C   0  0  0  0  0  0  0  0  0  0  0  0
  127.9210  123.2860   60.7280 C   0  0  0  0  0  0  0  0  0  0  0  0
  128.1810  121.9220   61.3690 C   0  0  0  0  0  0  0  0  0  0  0  0
  129.6820  121.8350   61.7240 C   0  0  1  0  0  0  0  0  0  0  0  0
  129.9530  120.5650   62.3180 O   0  0  0  0  0  0  0  0  0  0  0  0
  129.8030  119.4100   61.6330 C   0  0  0  0  0  0  0  0  0  0  0  0
  131.0080  119.1020   60.7540 C   0  0  0  0  0  0  0  0  0  0  0  0
  128.8290  118.6550   61.6750 O   0  0  0  0  0  0  0  0  0  0  0  0
  130.5890  122.1060   60.4990 C   0  0  0  0  0  0  0  0  0  0  0  0
  130.2190  123.4360   59.7990 C   0  0  0  0  0  0  0  0  0  0  0  0
  128.7060  123.5600   59.4160 C   0  0  1  0  0  0  0  0  0  0  0  0
  128.3180  122.4840   58.3570 C   0  0  0  0  0  0  0  0  0  0  0  0
  128.3070  124.9700   58.8150 C   0  0  2  0  0  0  0  0  0  0  0  0
  129.2320  125.4210   57.6390 C   0  0  0  0  0  0  0  0  0  0  0  0
  129.9450  126.7590   57.8770 C   0  0  0  0  0  0  0  0  0  0  0  0
  128.9410  127.8970   58.2080 C   0  0  2  0  0  0  0  0  0  0  0  0
  128.0880  128.2630   56.9630 C   0  0  0  0  0  0  0  0  0  0  0  0
  134.7703  132.0088   61.7526 H   0  0  0  0  0  0  0  0  0  0  0  0
  133.7238  131.0220   60.6765 H   0  0  0  0  0  0  0  0  0  0  0  0
  133.5773  132.8123   60.6765 H   0  0  0  0  0  0  0  0  0  0  0  0
  131.2920  132.4890   61.1130 H   0  0  0  0  0  0  0  0  0  0  0  0
  130.2751  131.2242   63.4686 H   0  0  0  0  0  0  0  0  0  0  0  0
  130.4474  133.0415   63.6572 H   0  0  0  0  0  0  0  0  0  0  0  0
  128.1486  132.1326   62.9489 H   0  0  0  0  0  0  0  0  0  0  0  0
  128.6986  134.4999   62.8638 H   0  0  0  0  0  0  0  0  0  0  0  0
  129.6298  134.2805   61.3435 H   0  0  0  0  0  0  0  0  0  0  0  0
  127.8465  134.0648   61.3435 H   0  0  0  0  0  0  0  0  0  0  0  0
  127.9081  130.8678   61.1929 H   0  0  0  0  0  0  0  0  0  0  0  0
  128.6609  132.2256   60.1657 H   0  0  0  0  0  0  0  0  0  0  0  0
  130.5820  130.6312   61.5040 H   0  0  0  0  0  0  0  0  0  0  0  0
  131.3875  131.4241   56.8267 H   0  0  0  0  0  0  0  0  0  0  0  0
  131.0431  129.7470   56.2833 H   0  0  0  0  0  0  0  0  0  0  0  0
  129.7346  130.9777   56.2833 H   0  0  0  0  0  0  0  0  0  0  0  0
  130.8020  128.5320   61.6880 H   0  0  0  0  0  0  0  0  0  0  0  0
  128.1323  128.1753   61.4867 H   0  0  0  0  0  0  0  0  0  0  0  0
  127.4662  129.4002   60.3970 H   0  0  0  0  0  0  0  0  0  0  0  0
  126.9585  127.4846   59.0782 H   0  0  0  0  0  0  0  0  0  0  0  0
  129.1261  126.0547   60.4891 H   0  0  0  0  0  0  0  0  0  0  0  0
  127.0447  126.3098   61.7824 H   0  0  0  0  0  0  0  0  0  0  0  0
  126.0602  125.7819   60.3656 H   0  0  0  0  0  0  0  0  0  0  0  0
  126.5753  123.8952   62.2158 H   0  0  0  0  0  0  0  0  0  0  0  0
  127.5757  121.8177   62.2815 H   0  0  0  0  0  0  0  0  0  0  0  0
  127.9075  121.1159   60.6723 H   0  0  0  0  0  0  0  0  0  0  0  0
  129.9175  122.6259   62.4513 H   0  0  0  0  0  0  0  0  0  0  0  0
  131.8780  118.8796   61.3893 H   0  0  0  0  0  0  0  0  0  0  0  0
  130.7857  118.2318   60.1189 H   0  0  0  0  0  0  0  0  0  0  0  0
  131.2306  119.9721   60.1189 H   0  0  0  0  0  0  0  0  0  0  0  0
  131.6354  122.1581   60.8342 H   0  0  0  0  0  0  0  0  0  0  0  0
  130.4476  121.2870   59.7784 H   0  0  0  0  0  0  0  0  0  0  0  0
  130.4724  124.2647   60.4766 H   0  0  0  0  0  0  0  0  0  0  0  0
  130.7871  123.4666   58.8575 H   0  0  0  0  0  0  0  0  0  0  0  0
  127.9877  121.5681   58.8689 H   0  0  0  0  0  0  0  0  0  0  0  0
  127.5013  122.8670   57.7274 H   0  0  0  0  0  0  0  0  0  0  0  0
  129.1911  122.2576   57.7274 H   0  0  0  0  0  0  0  0  0  0  0  0
  127.3119  124.8549   58.3605 H   0  0  0  0  0  0  0  0  0  0  0  0
  129.9966  124.6454   57.4845 H   0  0  0  0  0  0  0  0  0  0  0  0
  128.5830  125.5603   56.7619 H   0  0  0  0  0  0  0  0  0  0  0  0
  130.6441  126.6451   58.7186 H   0  0  0  0  0  0  0  0  0  0  0  0
  130.4781  127.0312   56.9541 H   0  0  0  0  0  0  0  0  0  0  0  0
  127.1225  128.6773   57.2889 H   0  0  0  0  0  0  0  0  0  0  0  0
  128.6228  129.0109   56.3591 H   0  0  0  0  0  0  0  0  0  0  0  0
  127.9145  127.3601   56.3591 H   0  0  0  0  0  0  0  0  0  0  0  0
  1  2  1  0
  2  3  2  0
  2  4  1  0
  4  5  1  0
  5  6  1  0
  6  7  1  0
  6  8  1  0
  8  9  1  0
  9 10  1  0
 10 11  2  0
 10 12  1  0
 12 13  1  0
 12 14  2  0
 14 15  1  0
 15 16  1  1
 15 17  1  0
 17 18  1  0
 18 19  1  0
 19 20  1  0
 20 21  1  0
 21 22  2  0
 22 23  1  0
 23 24  1  0
 24 25  1  0
 25 26  1  0
 26 27  1  0
 26 28  2  0
 24 29  1  0
 29 30  1  0
 30 31  1  0
 31 32  1  6
 31 33  1  0
 33 34  1  0
 34 35  1  0
 35 36  1  0
 36 37  1  6
 15  9  1  0
 36 18  1  0
 36 14  1  0
 33 19  1  0
 31 22  1  0
  1 38  1  0
  1 39  1  0
  1 40  1  0
  4 41  1  0
  5 42  1  0
  5 43  1  0
  6 44  1  1
  7 45  1  0
  7 46  1  0
  7 47  1  0
  8 48  1  0
  8 49  1  0
  9 50  1  1
 13 51  1  0
 13 52  1  0
 13 53  1  0
 16 54  1  0
 17 55  1  0
 17 56  1  0
 18 57  1  6
 19 58  1  1
 20 59  1  0
 20 60  1  0
 21 61  1  0
 23 62  1  0
 23 63  1  0
 24 64  1  1
 27 65  1  0
 27 66  1  0
 27 67  1  0
 29 68  1  0
 29 69  1  0
 30 70  1  0
 30 71  1  0
 32 72  1  0
 32 73  1  0
 32 74  1  0
 33 75  1  6
 34 76  1  0
 34 77  1  0
 35 78  1  0
 35 79  1  0
 37 80  1  0
 37 81  1  0
 37 82  1  0
M  END
>  <Binding energies>  (1) 
[-7.22]

>  <Ligand effiencies>  (1) 
[-0.18512820512820513]

>  <Interactions>  (1) 
["V-B:PRO:540:CA:9855, V-A:ALA:541:C:4888, V-A:PRO:540:C:4881, V-B:ALA:541:CB:9864, V-B:TYR:539:CE2:9848, V-B:TYR:539:C:9839, V-A:ASN:362:CB:3176, V-B:TYR:539:CZ:9849, V-A:ALA:541:CB:4892, H-B:ALA:541:N:9863, V-A:GLU:543:CD:4908, V-B:PRO:540:N:9856, V-A:ALA:541:CA:4890, V-B:TYR:539:CD2:9846, V-A:GLU:543:CG:4907, V-B:GLU:543:CD:9880, V-A:MET:535:CE:4835, V-A:TYR:539:C:4867, V-A:LEU:475:CD2:4259, H-A:ARG:545:NH2:4928, V-A:ASN:362:C:3172, H-A:GLU:543:OE1:4909, V-B:TYR:539:CG:9844, V-B:TYR:539:CD1:9845, H-A:ASN:362:ND2:3179, V-A:PRO:540:CB:4885, V-A:PRO:540:CA:4883, V-A:LEU:363:CA:3185, V-B:PRO:540:C:9853, H-A:ASP:366:OD2:3215, V-B:ALA:541:CA:9862, V-B:TYR:539:CE1:9847"]

$$$$
ZINC253498187
     RDKit          3D

 89 94  0  0  0  0  0  0  0  0999 V2000
  126.0220  130.7470   56.8820 C   0  0  0  0  0  0  0  0  0  0  0  0
  126.7090  131.7280   57.6490 O   0  0  0  0  0  0  0  0  0  0  0  0
  128.1250  131.5730   57.7590 C   0  0  1  0  0  0  0  0  0  0  0  0
  128.4390  130.1510   57.2580 C   0  0  0  0  0  0  0  0  0  0  0  0
  129.9460  129.9060   57.2680 C   0  0  1  0  0  0  0  0  0  0  0  0
  130.1520  128.6040   56.8130 O   0  0  0  0  0  0  0  0  0  0  0  0
  129.9900  127.5690   57.7840 C   0  0  1  0  0  0  0  0  0  0  0  0
  130.2550  128.1240   59.2040 C   0  0  0  0  0  0  0  0  0  0  0  0
  129.9480  127.0550   60.2890 C   0  0  0  0  0  0  0  0  0  0  0  0
  128.4920  126.4800   60.2030 C   0  0  1  0  0  0  0  0  0  0  0  0
  127.4470  127.6230   60.4060 C   0  0  0  0  0  0  0  0  0  0  0  0
  128.4360  125.8430   58.7600 C   0  0  1  0  0  0  0  0  0  0  0  0
  127.2020  124.9290   58.6380 C   0  0  0  0  0  0  0  0  0  0  0  0
  127.3890  123.6750   59.5290 C   0  0  0  0  0  0  0  0  0  0  0  0
  128.3310  123.9200   60.7560 C   0  0  1  0  0  0  0  0  0  0  0  0
  128.1510  125.3770   61.3090 C   0  0  1  0  0  0  0  0  0  0  0  0
  128.8790  125.5640   62.6720 C   0  0  0  0  0  0  0  0  0  0  0  0
  129.9780  124.5380   62.9970 C   0  0  0  0  0  0  0  0  0  0  0  0
  129.5340  123.0360   62.8900 C   0  0  2  0  0  0  0  0  0  0  0  0
  129.1090  122.6210   64.3350 C   0  0  0  0  0  0  0  0  0  0  0  0
  130.6540  122.0420   62.4220 C   0  0  2  0  0  0  0  0  0  0  0  0
  131.6380  122.5860   61.3740 C   0  0  0  0  0  0  0  0  0  0  0  0
  131.4590  123.3700   60.3000 C   0  0  0  0  0  0  0  0  0  0  0  0
  132.7250  123.5830   59.6390 C   0  0  0  0  0  0  0  0  0  0  0  0
  132.9310  124.2670   58.6380 O   0  0  0  0  0  0  0  0  0  0  0  0
  133.6620  122.9000   60.3020 O   0  0  0  0  0  0  0  0  0  0  0  0
  133.1000  122.2180   61.4020 C   0  0  0  0  0  0  0  0  0  0  0  0
  129.8470  120.8070   61.9600 C   0  0  2  0  0  0  0  0  0  0  0  0
  130.5260  119.9060   61.0790 O   0  0  0  0  0  0  0  0  0  0  0  0
  130.4700  118.5660   61.2520 C   0  0  0  0  0  0  0  0  0  0  0  0
  130.8680  117.8050   59.9950 C   0  0  0  0  0  0  0  0  0  0  0  0
  130.1460  117.9770   62.2840 O   0  0  0  0  0  0  0  0  0  0  0  0
  128.6020  121.3780   61.2720 C   0  0  0  0  0  0  0  0  0  0  0  0
  128.3520  122.8020   61.8550 C   0  0  2  0  0  0  0  0  0  0  0  0
  127.0540  122.8580   62.4340 O   0  0  0  0  0  0  0  0  0  0  0  0
  128.5860  126.9300   57.6670 C   0  0  0  0  0  0  0  0  0  0  0  0
  130.5570  130.8340   56.4060 O   0  0  0  0  0  0  0  0  0  0  0  0
  130.4350  132.2000   56.8270 C   0  0  2  0  0  0  0  0  0  0  0  0
  131.3010  132.5140   58.0700 C   0  0  0  0  0  0  0  0  0  0  0  0
  128.9360  132.6070   56.9330 C   0  0  2  0  0  0  0  0  0  0  0  0
  128.8100  133.9320   57.4190 O   0  0  0  0  0  0  0  0  0  0  0  0
  125.5240  130.0359   57.5576 H   0  0  0  0  0  0  0  0  0  0  0  0
  125.2696  131.2384   56.2476 H   0  0  0  0  0  0  0  0  0  0  0  0
  126.7410  130.2079   56.2476 H   0  0  0  0  0  0  0  0  0  0  0  0
  128.4214  131.7395   58.8052 H   0  0  0  0  0  0  0  0  0  0  0  0
  127.9479  129.4181   57.9151 H   0  0  0  0  0  0  0  0  0  0  0  0
  128.0661  130.0439   56.2287 H   0  0  0  0  0  0  0  0  0  0  0  0
  130.3762  130.0264   58.2732 H   0  0  0  0  0  0  0  0  0  0  0  0
  130.7274  126.7756   57.5920 H   0  0  0  0  0  0  0  0  0  0  0  0
  131.3110  128.4219   59.2819 H   0  0  0  0  0  0  0  0  0  0  0  0
  129.5959  128.9890   59.3695 H   0  0  0  0  0  0  0  0  0  0  0  0
  130.6586  126.2238   60.1703 H   0  0  0  0  0  0  0  0  0  0  0  0
  130.0447  127.5486   61.2673 H   0  0  0  0  0  0  0  0  0  0  0  0
  127.2926  127.7918   61.4819 H   0  0  0  0  0  0  0  0  0  0  0  0
  127.8191  128.5471   59.9395 H   0  0  0  0  0  0  0  0  0  0  0  0
  126.4933  127.3350   59.9395 H   0  0  0  0  0  0  0  0  0  0  0  0
  129.2992  125.1820   58.5930 H   0  0  0  0  0  0  0  0  0  0  0  0
  126.3066  125.4786   58.9639 H   0  0  0  0  0  0  0  0  0  0  0  0
  127.0832  124.6162   57.5901 H   0  0  0  0  0  0  0  0  0  0  0  0
  126.4029  123.3626   59.9031 H   0  0  0  0  0  0  0  0  0  0  0  0
  127.8610  122.9009   58.9061 H   0  0  0  0  0  0  0  0  0  0  0  0
  129.3547  123.8337   60.3627 H   0  0  0  0  0  0  0  0  0  0  0  0
  127.0862  125.5359   61.5346 H   0  0  0  0  0  0  0  0  0  0  0  0
  129.3403  126.5626   62.6727 H   0  0  0  0  0  0  0  0  0  0  0  0
  128.1061  125.4240   63.4421 H   0  0  0  0  0  0  0  0  0  0  0  0
  130.8122  124.6981   62.2981 H   0  0  0  0  0  0  0  0  0  0  0  0
  130.2528  124.7038   64.0491 H   0  0  0  0  0  0  0  0  0  0  0  0
  129.6955  123.1937   65.0684 H   0  0  0  0  0  0  0  0  0  0  0  0
  128.0386  122.8311   64.4770 H   0  0  0  0  0  0  0  0  0  0  0  0
  129.2936  121.5459   64.4770 H   0  0  0  0  0  0  0  0  0  0  0  0
  131.3622  121.8178   63.2333 H   0  0  0  0  0  0  0  0  0  0  0  0
  130.4950  123.7869   59.9730 H   0  0  0  0  0  0  0  0  0  0  0  0
  133.2287  121.1312   61.2915 H   0  0  0  0  0  0  0  0  0  0  0  0
  133.5805  122.4937   62.3523 H   0  0  0  0  0  0  0  0  0  0  0  0
  129.6351  120.1833   62.8410 H   0  0  0  0  0  0  0  0  0  0  0  0
  131.3607  116.8629   60.2773 H   0  0  0  0  0  0  0  0  0  0  0  0
  129.9696  117.5849   59.3997 H   0  0  0  0  0  0  0  0  0  0  0  0
  131.5613  118.4174   59.3997 H   0  0  0  0  0  0  0  0  0  0  0  0
  128.7691  121.4412   60.1866 H   0  0  0  0  0  0  0  0  0  0  0  0
  127.7312  120.7298   61.4495 H   0  0  0  0  0  0  0  0  0  0  0  0
  126.9280  123.7330   62.8100 H   0  0  0  0  0  0  0  0  0  0  0  0
  128.4702  126.4727   56.6733 H   0  0  0  0  0  0  0  0  0  0  0  0
  127.8134  127.7015   57.8006 H   0  0  0  0  0  0  0  0  0  0  0  0
  130.8614  132.8540   56.0521 H   0  0  0  0  0  0  0  0  0  0  0  0
  130.7229  132.3044   58.9821 H   0  0  0  0  0  0  0  0  0  0  0  0
  132.2041  131.8861   58.0558 H   0  0  0  0  0  0  0  0  0  0  0  0
  131.5918  133.5748   58.0558 H   0  0  0  0  0  0  0  0  0  0  0  0
  128.4969  132.5976   55.9245 H   0  0  0  0  0  0  0  0  0  0  0  0
  128.0710  133.9620   58.0330 H   0  0  0  0  0  0  0  0  0  0  0  0
  1  2  1  0
  2  3  1  0
  3  4  1  0
  4  5  1  0
  5  6  1  0
  6  7  1  0
  7  8  1  0
  8  9  1  0
  9 10  1  0
 10 11  1  6
 10 12  1  0
 12 13  1  0
 13 14  1  0
 14 15  1  0
 15 16  1  0
 16 17  1  0
 17 18  1  0
 18 19  1  0
 19 20  1  1
 19 21  1  0
 21 22  1  0
 22 23  2  0
 23 24  1  0
 24 25  2  0
 24 26  1  0
 26 27  1  0
 21 28  1  0
 28 29  1  0
 29 30  1  0
 30 31  1  0
 30 32  2  0
 28 33  1  0
 33 34  1  0
 34 35  1  1
 12 36  1  0
  5 37  1  0
 37 38  1  0
 38 39  1  0
 38 40  1  0
 40 41  1  0
 40  3  1  0
 36  7  1  0
 16 10  1  0
 34 19  1  0
 34 15  1  0
 27 22  1  0
  1 42  1  0
  1 43  1  0
  1 44  1  0
  3 45  1  1
  4 46  1  0
  4 47  1  0
  5 48  1  1
  7 49  1  6
  8 50  1  0
  8 51  1  0
  9 52  1  0
  9 53  1  0
 11 54  1  0
 11 55  1  0
 11 56  1  0
 12 57  1  1
 13 58  1  0
 13 59  1  0
 14 60  1  0
 14 61  1  0
 15 62  1  6
 16 63  1  1
 17 64  1  0
 17 65  1  0
 18 66  1  0
 18 67  1  0
 20 68  1  0
 20 69  1  0
 20 70  1  0
 21 71  1  1
 23 72  1  0
 27 73  1  0
 27 74  1  0
 28 75  1  1
 31 76  1  0
 31 77  1  0
 31 78  1  0
 33 79  1  0
 33 80  1  0
 35 81  1  0
 36 82  1  0
 36 83  1  0
 38 84  1  6
 39 85  1  0
 39 86  1  0
 39 87  1  0
 40 88  1  6
 41 89  1  0
M  END
>  <Binding energies>  (1) 
[-9.14]

>  <Ligand effiencies>  (1) 
[-0.21255813953488373]

>  <Interactions>  (1) 
["V-A:ILE:369:CG2:3237, V-B:PRO:540:CA:9855, V-B:ALA:541:CB:9864, H-A:TYR:531:OH:4795, V-B:TYR:539:CE2:9848, V-A:LEU:475:CG:4257, V-B:GLU:543:CG:9879, V-B:TYR:539:C:9839, V-A:TYR:539:CD1:4873, H-B:GLU:543:OE1:9881, V-A:TYR:539:CZ:4877, H-B:TYR:539:OH:9850, H-B:ALA:541:N:9863, V-A:HIS:383:CE1:3393, V-B:TYR:539:CB:9843, V-A:HIS:383:NE2:3394, V-B:PRO:540:N:9856, V-B:TYR:539:CD2:9846, V-B:GLU:543:CD:9880, V-A:MET:535:CE:4835, V-A:LEU:475:CD2:4259, H-A:HIS:383:HE2:3395, V-A:HIS:383:CD2:3392, H-A:TYR:539:O:4868, V-A:PRO:540:N:4884, H-A:TYR:539:N:4870, V-A:PRO:540:CB:4885, V-A:PRO:540:CA:4883, V-B:PRO:540:C:9853, V-B:ALA:541:CA:9862, V-A:PRO:540:CD:4887, V-A:TYR:539:CE1:4875"]

$$$$
ZINC253500660
     RDKit          3D

 96100  0  0  0  0  0  0  0  0999 V2000
  131.7100  125.4680   65.5500 C   0  0  0  0  0  0  0  0  0  0  0  0
  132.8250  125.1400   64.5650 C   0  0  0  0  0  0  0  0  0  0  0  0
  133.9280  124.7500   64.9510 O   0  0  0  0  0  0  0  0  0  0  0  0
  132.4450  125.3350   63.2790 O   0  0  0  0  0  0  0  0  0  0  0  0
  133.1720  124.7860   62.1720 C   0  0  1  0  0  0  0  0  0  0  0  0
  133.7320  123.4050   62.6320 C   0  0  0  0  0  0  0  0  0  0  0  0
  132.6240  122.3460   62.8450 C   0  0  1  0  0  0  0  0  0  0  0  0
  131.9150  122.6300   64.0420 O   0  0  0  0  0  0  0  0  0  0  0  0
  131.6920  122.1750   61.5890 C   0  0  0  0  0  0  0  0  0  0  0  0
  132.4840  121.3740   60.5170 C   0  0  0  0  0  0  0  0  0  0  0  0
  130.4510  121.3340   62.0180 C   0  0  0  0  0  0  0  0  0  0  0  0
  131.2050  123.6070   61.0860 C   0  0  2  0  0  0  0  0  0  0  0  0
  130.1970  123.5360   59.9060 C   0  0  0  0  0  0  0  0  0  0  0  0
  129.4360  124.8660   59.7160 C   0  0  1  0  0  0  0  0  0  0  0  0
  128.6340  125.1220   60.8690 O   0  0  0  0  0  0  0  0  0  0  0  0
  128.1770  124.1290   61.6710 C   0  0  0  0  0  0  0  0  0  0  0  0
  128.7580  124.2060   63.0780 C   0  0  0  0  0  0  0  0  0  0  0  0
  127.3880  123.2380   61.3530 O   0  0  0  0  0  0  0  0  0  0  0  0
  130.4100  126.0320   59.3470 C   0  0  1  0  0  0  0  0  0  0  0  0
  130.9420  125.7030   57.9060 C   0  0  0  0  0  0  0  0  0  0  0  0
  129.6870  127.4210   59.2070 C   0  0  0  0  0  0  0  0  0  0  0  0
  129.2570  128.0110   58.0720 C   0  0  0  0  0  0  0  0  0  0  0  0
  128.9170  129.4630   58.2370 C   0  0  0  0  0  0  0  0  0  0  0  0
  128.9110  129.6840   59.7490 C   0  0  2  0  0  0  0  0  0  0  0  0
  129.4000  131.1070   60.2160 C   0  0  2  0  0  0  0  0  0  0  0  0
  128.9370  131.4700   61.6570 C   0  0  0  0  0  0  0  0  0  0  0  0
  130.0330  131.6120   62.5400 O   0  0  0  0  0  0  0  0  0  0  0  0
  129.0320  132.2370   59.1980 C   0  0  0  0  0  0  0  0  0  0  0  0
  130.1990  132.7950   58.3460 C   0  0  2  0  0  0  0  0  0  0  0  0
  129.7070  133.6760   57.3540 O   0  0  0  0  0  0  0  0  0  0  0  0
  130.9920  131.6820   57.6270 C   0  0  1  0  0  0  0  0  0  0  0  0
  132.3030  131.9890   57.2140 O   0  0  0  0  0  0  0  0  0  0  0  0
  132.2080  131.0520   58.2540 C   0  0  0  0  0  0  0  0  0  0  0  0
  132.7100  131.4870   59.6430 C   0  0  0  0  0  0  0  0  0  0  0  0
  132.5070  129.5860   57.9050 C   0  0  0  0  0  0  0  0  0  0  0  0
  129.5640  128.4070   60.3950 C   0  0  1  0  0  0  0  0  0  0  0  0
  128.6100  127.9270   61.5250 C   0  0  0  0  0  0  0  0  0  0  0  0
  131.0170  128.5850   60.8890 C   0  0  0  0  0  0  0  0  0  0  0  0
  131.6470  127.2710   61.3770 C   0  0  0  0  0  0  0  0  0  0  0  0
  131.6640  126.1080   60.3440 C   0  0  1  0  0  0  0  0  0  0  0  0
  132.3290  124.7040   60.8270 C   0  0  1  0  0  0  0  0  0  0  0  0
  133.3210  124.2740   59.6810 C   0  0  0  0  0  0  0  0  0  0  0  0
  132.0849  125.3577   66.5782 H   0  0  0  0  0  0  0  0  0  0  0  0
  131.3735  126.5032   65.3915 H   0  0  0  0  0  0  0  0  0  0  0  0
  130.8665  124.7799   65.3915 H   0  0  0  0  0  0  0  0  0  0  0  0
  133.9981  125.4607   61.9030 H   0  0  0  0  0  0  0  0  0  0  0  0
  134.4279  123.0353   61.8645 H   0  0  0  0  0  0  0  0  0  0  0  0
  134.2327  123.5578   63.5995 H   0  0  0  0  0  0  0  0  0  0  0  0
  133.1007  121.3617   62.9629 H   0  0  0  0  0  0  0  0  0  0  0  0
  132.5140  123.0620   64.6560 H   0  0  0  0  0  0  0  0  0  0  0  0
  133.1734  120.6767   61.0155 H   0  0  0  0  0  0  0  0  0  0  0  0
  131.7807  120.8078   59.8886 H   0  0  0  0  0  0  0  0  0  0  0  0
  133.0581  122.0708   59.8886 H   0  0  0  0  0  0  0  0  0  0  0  0
  130.3954  121.2963   63.1159 H   0  0  0  0  0  0  0  0  0  0  0  0
  129.5372  121.7997   61.6203 H   0  0  0  0  0  0  0  0  0  0  0  0
  130.5449  120.3127   61.6203 H   0  0  0  0  0  0  0  0  0  0  0  0
  130.6739  123.9802   61.9741 H   0  0  0  0  0  0  0  0  0  0  0  0
  130.7475  123.3064   58.9817 H   0  0  0  0  0  0  0  0  0  0  0  0
  129.4601  122.7520   60.1347 H   0  0  0  0  0  0  0  0  0  0  0  0
  128.7518  124.7873   58.8582 H   0  0  0  0  0  0  0  0  0  0  0  0
  127.9487  124.0987   63.8153 H   0  0  0  0  0  0  0  0  0  0  0  0
  129.4903  123.3971   63.2171 H   0  0  0  0  0  0  0  0  0  0  0  0
  129.2543  125.1778   63.2171 H   0  0  0  0  0  0  0  0  0  0  0  0
  131.8753  125.1258   57.9826 H   0  0  0  0  0  0  0  0  0  0  0  0
  130.1892  125.1125   57.3632 H   0  0  0  0  0  0  0  0  0  0  0  0
  131.1340  126.6403   57.3632 H   0  0  0  0  0  0  0  0  0  0  0  0
  129.1644  127.4770   57.1148 H   0  0  0  0  0  0  0  0  0  0  0  0
  129.6750  130.0973   57.7542 H   0  0  0  0  0  0  0  0  0  0  0  0
  127.9547  129.7232   57.7720 H   0  0  0  0  0  0  0  0  0  0  0  0
  127.8876  129.7587   60.1452 H   0  0  0  0  0  0  0  0  0  0  0  0
  130.4976  131.0391   60.2436 H   0  0  0  0  0  0  0  0  0  0  0  0
  128.3808  132.4185   61.6241 H   0  0  0  0  0  0  0  0  0  0  0  0
  128.3018  130.6524   62.0286 H   0  0  0  0  0  0  0  0  0  0  0  0
  130.3250  130.7370   62.8090 H   0  0  0  0  0  0  0  0  0  0  0  0
  128.2754  131.8344   58.5085 H   0  0  0  0  0  0  0  0  0  0  0  0
  128.6827  133.0822   59.8092 H   0  0  0  0  0  0  0  0  0  0  0  0
  130.8672  133.3163   59.0472 H   0  0  0  0  0  0  0  0  0  0  0  0
  130.2550  133.5850   56.5700 H   0  0  0  0  0  0  0  0  0  0  0  0
  130.0662  131.2885   57.1820 H   0  0  0  0  0  0  0  0  0  0  0  0
  132.1225  130.9779   60.4212 H   0  0  0  0  0  0  0  0  0  0  0  0
  133.7713  131.2182   59.7501 H   0  0  0  0  0  0  0  0  0  0  0  0
  132.5949  132.5757   59.7501 H   0  0  0  0  0  0  0  0  0  0  0  0
  132.6254  129.0053   58.8317 H   0  0  0  0  0  0  0  0  0  0  0  0
  131.6748  129.1721   57.3167 H   0  0  0  0  0  0  0  0  0  0  0  0
  133.4348  129.5310   57.3167 H   0  0  0  0  0  0  0  0  0  0  0  0
  129.0583  128.1526   62.5038 H   0  0  0  0  0  0  0  0  0  0  0  0
  127.6447  128.4467   61.4353 H   0  0  0  0  0  0  0  0  0  0  0  0
  128.4520  126.8421   61.4353 H   0  0  0  0  0  0  0  0  0  0  0  0
  131.6238  128.9789   60.0604 H   0  0  0  0  0  0  0  0  0  0  0  0
  130.9931  129.2774   61.7434 H   0  0  0  0  0  0  0  0  0  0  0  0
  132.6872  127.4816   61.6663 H   0  0  0  0  0  0  0  0  0  0  0  0
  131.0148  126.9253   62.2082 H   0  0  0  0  0  0  0  0  0  0  0  0
  132.4497  126.4410   59.6499 H   0  0  0  0  0  0  0  0  0  0  0  0
  134.2440  123.8739   60.1260 H   0  0  0  0  0  0  0  0  0  0  0  0
  132.8486  123.4999   59.0584 H   0  0  0  0  0  0  0  0  0  0  0  0
  133.5630  125.1480   59.0584 H   0  0  0  0  0  0  0  0  0  0  0  0
  1  2  1  0
  2  3  2  0
  2  4  1  0
  4  5  1  0
  5  6  1  0
  6  7  1  0
  7  8  1  0
  7  9  1  0
  9 10  1  0
  9 11  1  0
  9 12  1  0
 12 13  1  0
 13 14  1  0
 14 15  1  0
 15 16  1  0
 16 17  1  0
 16 18  2  0
 14 19  1  0
 19 20  1  6
 19 21  1  0
 21 22  2  0
 22 23  1  0
 23 24  1  0
 24 25  1  0
 25 26  1  0
 26 27  1  0
 25 28  1  0
 28 29  1  0
 29 30  1  0
 29 31  1  0
 31 32  1  0
 32 33  1  0
 33 34  1  0
 33 35  1  0
 24 36  1  0
 36 37  1  1
 36 38  1  0
 38 39  1  0
 39 40  1  0
 40 41  1  0
 41 42  1  6
 41  5  1  0
 41 12  1  0
 40 19  1  0
 36 21  1  0
 33 31  1  0
  1 43  1  0
  1 44  1  0
  1 45  1  0
  5 46  1  6
  6 47  1  0
  6 48  1  0
  7 49  1  1
  8 50  1  0
 10 51  1  0
 10 52  1  0
 10 53  1  0
 11 54  1  0
 11 55  1  0
 11 56  1  0
 12 57  1  1
 13 58  1  0
 13 59  1  0
 14 60  1  6
 17 61  1  0
 17 62  1  0
 17 63  1  0
 20 64  1  0
 20 65  1  0
 20 66  1  0
 22 67  1  0
 23 68  1  0
 23 69  1  0
 24 70  1  1
 25 71  1  1
 26 72  1  0
 26 73  1  0
 27 74  1  0
 28 75  1  0
 28 76  1  0
 29 77  1  1
 30 78  1  0
 31 79  1  6
 34 80  1  0
 34 81  1  0
 34 82  1  0
 35 83  1  0
 35 84  1  0
 35 85  1  0
 37 86  1  0
 37 87  1  0
 37 88  1  0
 38 89  1  0
 38 90  1  0
 39 91  1  0
 39 92  1  0
 40 93  1  6
 42 94  1  0
 42 95  1  0
 42 96  1  0
M  END
>  <Binding energies>  (1) 
[-8.66]

>  <Ligand effiencies>  (1) 
[-0.19244444444444445]

>  <Interactions>  (1) 
["V-A:ILE:369:CG2:3237, V-A:ASP:366:CA:3210, V-A:GLY:454:CA:4049, V-B:ALA:541:CB:9864, V-B:TYR:539:CE2:9848, V-B:GLU:543:CG:9879, V-A:ASP:366:CG:3213, V-A:LEU:363:CD1:3189, V-B:TYR:539:CZ:9849, V-A:TYR:531:CE2:4793, H-B:ALA:541:N:9863, V-A:GLU:543:CD:4908, H-A:GLY:454:N:4050, V-B:TYR:539:CD2:9846, V-A:TYR:531:CZ:4794, V-B:GLU:543:CD:9880, V-A:TYR:539:C:4867, V-A:ASP:366:CB:3212, V-A:LEU:475:CD2:4259, H-A:ARG:545:NH2:4928, V-A:ARG:545:CZ:4926, H-A:GLU:543:OE1:4909, V-A:PRO:540:N:4884, H-A:TYR:539:N:4870, V-A:PRO:540:CB:4885, V-A:PRO:540:CA:4883, H-A:ARG:545:NE:4924, H-A:TYR:484:OH:4348"]

$$$$
ZINC253502178
     RDKit          3D

101107  0  0  0  0  0  0  0  0999 V2000
  128.2710  128.2090   64.8670 C   0  0  0  0  0  0  0  0  0  0  0  0
  129.1260  127.3330   65.7980 C   0  0  2  0  0  0  0  0  0  0  0  0
  128.8990  125.9540   65.4800 O   0  0  0  0  0  0  0  0  0  0  0  0
  129.8270  125.1020   66.1150 C   0  0  2  0  0  0  0  0  0  0  0  0
  129.6250  123.7760   65.7290 O   0  0  0  0  0  0  0  0  0  0  0  0
  129.9390  123.4670   64.3720 C   0  0  2  0  0  0  0  0  0  0  0  0
  130.8820  124.5440   63.8000 C   0  0  0  0  0  0  0  0  0  0  0  0
  131.1940  124.2130   62.3260 C   0  0  0  0  0  0  0  0  0  0  0  0
  129.9220  124.1500   61.4010 C   0  0  2  0  0  0  0  0  0  0  0  0
  130.4050  123.7520   59.9490 C   0  0  0  0  0  0  0  0  0  0  0  0
  130.7310  124.8400   59.0350 N   0  0  0  0  0  0  0  0  0  0  0  0
  131.9930  125.1910   58.6180 C   0  0  0  0  0  0  0  0  0  0  0  0
  133.1960  124.8050   59.0890 C   0  0  0  0  0  0  0  0  0  0  0  0
  133.4900  123.8770   60.1840 C   0  0  0  0  0  0  0  0  0  0  0  0
  133.1550  122.5740   60.0260 C   0  0  0  0  0  0  0  0  0  0  0  0
  133.3260  121.4700   61.0640 C   0  0  0  0  0  0  0  0  0  0  0  0
  133.6470  122.0420   62.4580 C   0  0  0  0  0  0  0  0  0  0  0  0
  134.6530  123.1970   62.3760 C   0  0  0  0  0  0  0  0  0  0  0  0
  134.1200  124.3530   61.5030 C   0  0  0  0  0  0  0  0  0  0  0  0
  129.1720  125.5550   61.3260 C   0  0  1  0  0  0  0  0  0  0  0  0
  130.0640  126.7250   60.8220 C   0  0  0  0  0  0  0  0  0  0  0  0
  129.3160  128.0630   60.8620 C   0  0  0  0  0  0  0  0  0  0  0  0
  128.0490  128.0650   59.9540 C   0  0  2  0  0  0  0  0  0  0  0  0
  128.4680  128.0160   58.4530 C   0  0  0  0  0  0  0  0  0  0  0  0
  127.1360  129.2910   60.2740 C   0  0  2  0  0  0  0  0  0  0  0  0
  127.8060  130.6670   60.3180 C   0  0  0  0  0  0  0  0  0  0  0  0
  128.0620  131.5560   59.3470 C   0  0  0  0  0  0  0  0  0  0  0  0
  128.7600  132.6930   59.8980 C   0  0  0  0  0  0  0  0  0  0  0  0
  129.1440  133.6920   59.2930 O   0  0  0  0  0  0  0  0  0  0  0  0
  128.9350  132.4810   61.2040 O   0  0  0  0  0  0  0  0  0  0  0  0
  128.3700  131.2480   61.5900 C   0  0  0  0  0  0  0  0  0  0  0  0
  126.3780  128.9110   61.5660 C   0  0  0  0  0  0  0  0  0  0  0  0
  126.3920  127.3770   61.6390 C   0  0  0  0  0  0  0  0  0  0  0  0
  127.1120  126.8710   60.3650 C   0  0  1  0  0  0  0  0  0  0  0  0
  126.1330  126.6640   59.3480 O   0  0  0  0  0  0  0  0  0  0  0  0
  127.8560  125.4840   60.4760 C   0  0  2  0  0  0  0  0  0  0  0  0
  126.9280  124.3850   61.0680 C   0  0  0  0  0  0  0  0  0  0  0  0
  127.6080  123.0080   61.1920 C   0  0  0  0  0  0  0  0  0  0  0  0
  128.9260  123.0640   62.0140 C   0  0  1  0  0  0  0  0  0  0  0  0
  129.4790  121.7570   62.0240 O   0  0  0  0  0  0  0  0  0  0  0  0
  128.6500  123.3870   63.5240 C   0  0  0  0  0  0  0  0  0  0  0  0
  129.6170  125.1670   67.6350 C   0  0  0  0  0  0  0  0  0  0  0  0
  129.7320  126.6250   68.1430 C   0  0  1  0  0  0  0  0  0  0  0  0
  131.0810  127.0580   68.1560 O   0  0  0  0  0  0  0  0  0  0  0  0
  128.8390  127.5670   67.3040 C   0  0  2  0  0  0  0  0  0  0  0  0
  127.4760  127.3420   67.6290 O   0  0  0  0  0  0  0  0  0  0  0  0
  127.6286  128.8671   65.4705 H   0  0  0  0  0  0  0  0  0  0  0  0
  128.9292  128.8205   64.2323 H   0  0  0  0  0  0  0  0  0  0  0  0
  127.6437  127.5659   64.2323 H   0  0  0  0  0  0  0  0  0  0  0  0
  130.1759  127.6151   65.6301 H   0  0  0  0  0  0  0  0  0  0  0  0
  130.8383  125.4291   65.8318 H   0  0  0  0  0  0  0  0  0  0  0  0
  130.4406  122.4886   64.3366 H   0  0  0  0  0  0  0  0  0  0  0  0
  130.3959  125.5289   63.8611 H   0  0  0  0  0  0  0  0  0  0  0  0
  131.8162  124.5636   64.3804 H   0  0  0  0  0  0  0  0  0  0  0  0
  131.8694  124.9872   61.9331 H   0  0  0  0  0  0  0  0  0  0  0  0
  131.6464  123.2104   62.3138 H   0  0  0  0  0  0  0  0  0  0  0  0
  131.3058  123.1303   60.0585 H   0  0  0  0  0  0  0  0  0  0  0  0
  129.5424  123.2455   59.4915 H   0  0  0  0  0  0  0  0  0  0  0  0
  129.9730  125.4950   58.9090 H   0  0  0  0  0  0  0  0  0  0  0  0
  132.0265  125.8931   57.7719 H   0  0  0  0  0  0  0  0  0  0  0  0
  134.0702  125.2438   58.5858 H   0  0  0  0  0  0  0  0  0  0  0  0
  132.7188  122.2852   59.0584 H   0  0  0  0  0  0  0  0  0  0  0  0
  132.3938  120.8891   61.1232 H   0  0  0  0  0  0  0  0  0  0  0  0
  134.1680  120.8344   60.7524 H   0  0  0  0  0  0  0  0  0  0  0  0
  132.7170  122.4103   62.9156 H   0  0  0  0  0  0  0  0  0  0  0  0
  134.0924  121.2400   63.0649 H   0  0  0  0  0  0  0  0  0  0  0  0
  134.8458  123.5754   63.3907 H   0  0  0  0  0  0  0  0  0  0  0  0
  135.5773  122.8166   61.9167 H   0  0  0  0  0  0  0  0  0  0  0  0
  133.3579  124.9011   62.0764 H   0  0  0  0  0  0  0  0  0  0  0  0
  134.9793  124.9887   61.2434 H   0  0  0  0  0  0  0  0  0  0  0  0
  128.9107  125.7772   62.3711 H   0  0  0  0  0  0  0  0  0  0  0  0
  130.9558  126.7953   61.4621 H   0  0  0  0  0  0  0  0  0  0  0  0
  130.3446  126.5188   59.7786 H   0  0  0  0  0  0  0  0  0  0  0  0
  129.0076  128.2641   61.8986 H   0  0  0  0  0  0  0  0  0  0  0  0
  129.9985  128.8393   60.4857 H   0  0  0  0  0  0  0  0  0  0  0  0
  129.5582  127.8885   58.3806 H   0  0  0  0  0  0  0  0  0  0  0  0
  127.9664  127.1704   57.9597 H   0  0  0  0  0  0  0  0  0  0  0  0
  128.1750  128.9545   57.9597 H   0  0  0  0  0  0  0  0  0  0  0  0
  126.4541  129.4606   59.4277 H   0  0  0  0  0  0  0  0  0  0  0  0
  127.7822  131.4367   58.2899 H   0  0  0  0  0  0  0  0  0  0  0  0
  129.1394  130.5843   62.0112 H   0  0  0  0  0  0  0  0  0  0  0  0
  127.6013  131.3690   62.3675 H   0  0  0  0  0  0  0  0  0  0  0  0
  126.8839  129.3387   62.4441 H   0  0  0  0  0  0  0  0  0  0  0  0
  125.3496  129.3013   61.5555 H   0  0  0  0  0  0  0  0  0  0  0  0
  126.9350  127.0462   62.5366 H   0  0  0  0  0  0  0  0  0  0  0  0
  125.3690  126.9769   61.6975 H   0  0  0  0  0  0  0  0  0  0  0  0
  125.3950  126.1840   59.7300 H   0  0  0  0  0  0  0  0  0  0  0  0
  128.1331  125.2205   59.4446 H   0  0  0  0  0  0  0  0  0  0  0  0
  126.6043  124.7049   62.0694 H   0  0  0  0  0  0  0  0  0  0  0  0
  126.0826  124.2671   60.3742 H   0  0  0  0  0  0  0  0  0  0  0  0
  126.9125  122.3151   61.6882 H   0  0  0  0  0  0  0  0  0  0  0  0
  127.8627  122.6696   60.1768 H   0  0  0  0  0  0  0  0  0  0  0  0
  129.4350  121.4000   61.1340 H   0  0  0  0  0  0  0  0  0  0  0  0
  128.1297  124.3542   63.5857 H   0  0  0  0  0  0  0  0  0  0  0  0
  128.0412  122.5653   63.9293 H   0  0  0  0  0  0  0  0  0  0  0  0
  128.6172  124.7780   67.8781 H   0  0  0  0  0  0  0  0  0  0  0  0
  130.3929  124.5603   68.1248 H   0  0  0  0  0  0  0  0  0  0  0  0
  129.3705  126.6571   69.1814 H   0  0  0  0  0  0  0  0  0  0  0  0
  131.3120  127.3630   67.2750 H   0  0  0  0  0  0  0  0  0  0  0  0
  129.0652  128.6191   67.5321 H   0  0  0  0  0  0  0  0  0  0  0  0
  127.0720  126.8360   66.9190 H   0  0  0  0  0  0  0  0  0  0  0  0
  1  2  1  0
  2  3  1  0
  3  4  1  0
  4  5  1  0
  5  6  1  0
  6  7  1  0
  7  8  1  0
  8  9  1  0
  9 10  1  6
 10 11  1  0
 11 12  1  0
 12 13  2  0
 13 14  1  0
 14 15  2  0
 15 16  1  0
 16 17  1  0
 17 18  1  0
 18 19  1  0
  9 20  1  0
 20 21  1  0
 21 22  1  0
 22 23  1  0
 23 24  1  6
 23 25  1  0
 25 26  1  0
 26 27  2  0
 27 28  1  0
 28 29  2  0
 28 30  1  0
 30 31  1  0
 25 32  1  0
 32 33  1  0
 33 34  1  0
 34 35  1  6
 34 36  1  0
 36 37  1  0
 37 38  1  0
 38 39  1  0
 39 40  1  1
 39 41  1  0
  4 42  1  0
 42 43  1  0
 43 44  1  0
 43 45  1  0
 45 46  1  0
 45  2  1  0
 41  6  1  0
 39  9  1  0
 19 14  1  0
 36 20  1  0
 34 23  1  0
 31 26  1  0
  1 47  1  0
  1 48  1  0
  1 49  1  0
  2 50  1  1
  4 51  1  1
  6 52  1  1
  7 53  1  0
  7 54  1  0
  8 55  1  0
  8 56  1  0
 10 57  1  0
 10 58  1  0
 11 59  1  0
 12 60  1  0
 13 61  1  0
 15 62  1  0
 16 63  1  0
 16 64  1  0
 17 65  1  0
 17 66  1  0
 18 67  1  0
 18 68  1  0
 19 69  1  0
 19 70  1  0
 20 71  1  1
 21 72  1  0
 21 73  1  0
 22 74  1  0
 22 75  1  0
 24 76  1  0
 24 77  1  0
 24 78  1  0
 25 79  1  6
 27 80  1  0
 31 81  1  0
 31 82  1  0
 32 83  1  0
 32 84  1  0
 33 85  1  0
 33 86  1  0
 35 87  1  0
 36 88  1  6
 37 89  1  0
 37 90  1  0
 38 91  1  0
 38 92  1  0
 40 93  1  0
 41 94  1  0
 41 95  1  0
 42 96  1  0
 42 97  1  0
 43 98  1  1
 44 99  1  0
 45100  1  1
 46101  1  0
M  END
>  <Binding energies>  (1) 
[-9.08]

>  <Ligand effiencies>  (1) 
[-0.1780392156862745]

>  <Interactions>  (1) 
["V-A:ILE:369:CG2:3237, V-A:ASP:366:CA:3210, V-B:PRO:540:CA:9855, V-A:GLY:454:CA:4049, V-B:GLU:543:C:9874, H-A:GLU:543:OE2:4910, V-B:GLU:543:CB:9878, V-B:ASP:366:CG:8184, V-B:ALA:541:CB:9864, V-B:TYR:539:CE2:9848, V-A:TYR:484:CE2:4346, V-B:GLU:543:CG:9879, V-A:ASP:366:CG:3213, V-B:TYR:539:CZ:9849, H-B:GLU:543:OE1:9881, V-A:GLU:543:CD:4908, H-B:ASP:366:OD1:8185, V-B:GLU:543:CA:9876, V-A:GLY:453:C:4042, V-A:HIS:456:CE1:4070, V-A:ILE:369:CD1:3239, V-B:TYR:539:CD2:9846, V-A:GLU:543:CG:4907, V-B:GLU:543:CD:9880, V-A:TYR:539:C:4867, V-A:ASP:366:CB:3212, V-A:LEU:475:CD2:4259, V-A:GLU:543:CB:4906, H-B:GLU:543:OE2:9882, V-A:GLY:453:CA:4044, V-A:PRO:540:CA:4883, H-B:TYR:539:O:9840, V-B:PRO:540:C:9853, H-A:TYR:484:OH:4348"]

$$$$
ZINC253505006
     RDKit          3D

 95102  0  0  0  0  0  0  0  0999 V2000
  128.4410  128.5490   67.2300 C   0  0  0  0  0  0  0  0  0  0  0  0
  128.3150  127.1500   67.0010 O   0  0  0  0  0  0  0  0  0  0  0  0
  129.3410  126.4770   66.3660 C   0  0  0  0  0  0  0  0  0  0  0  0
  130.2750  125.8470   67.1890 C   0  0  0  0  0  0  0  0  0  0  0  0
  131.3450  125.1470   66.6400 C   0  0  0  0  0  0  0  0  0  0  0  0
  131.4950  125.0690   65.2520 C   0  0  0  0  0  0  0  0  0  0  0  0
  132.6820  124.3050   64.6170 C   0  0  1  0  0  0  0  0  0  0  0  0
  132.2710  123.1330   63.9620 O   0  0  0  0  0  0  0  0  0  0  0  0
  131.9080  123.5790   62.6800 C   0  0  2  0  0  0  0  0  0  0  0  0
  131.6840  122.5670   61.5450 C   0  0  2  0  0  0  0  0  0  0  0  0
  132.6800  121.4050   61.3600 C   0  0  0  0  0  0  0  0  0  0  0  0
  131.5210  123.3430   60.3370 O   0  0  0  0  0  0  0  0  0  0  0  0
  132.5930  124.2110   59.9910 C   0  0  1  0  0  0  0  0  0  0  0  0
  132.2680  124.9700   58.8680 O   0  0  0  0  0  0  0  0  0  0  0  0
  130.9150  124.8830   58.4180 C   0  0  2  0  0  0  0  0  0  0  0  0
  130.7240  125.8090   57.2080 C   0  0  0  0  0  0  0  0  0  0  0  0
  129.2450  125.8670   56.7570 C   0  0  0  0  0  0  0  0  0  0  0  0
  128.1510  126.0750   57.8810 C   0  0  2  0  0  0  0  0  0  0  0  0
  126.7770  125.6110   57.2880 C   0  0  0  0  0  0  0  0  0  0  0  0
  125.7280  126.2400   57.4340 O   0  0  0  0  0  0  0  0  0  0  0  0
  127.9380  127.6020   58.2780 C   0  0  2  0  0  0  0  0  0  0  0  0
  129.1770  128.5570   58.3050 C   0  0  0  0  0  0  0  0  0  0  0  0
  129.0470  129.7270   59.3040 C   0  0  0  0  0  0  0  0  0  0  0  0
  127.6630  130.4290   59.2460 C   0  0  2  0  0  0  0  0  0  0  0  0
  127.4860  131.0280   57.8130 C   0  0  0  0  0  0  0  0  0  0  0  0
  127.4880  131.6110   60.2820 C   0  0  2  0  0  0  0  0  0  0  0  0
  128.6920  131.9190   61.1780 C   0  0  0  0  0  0  0  0  0  0  0  0
  128.8000  131.8410   62.5110 C   0  0  0  0  0  0  0  0  0  0  0  0
  130.1380  132.2150   62.9100 C   0  0  0  0  0  0  0  0  0  0  0  0
  130.5810  132.2650   64.0550 O   0  0  0  0  0  0  0  0  0  0  0  0
  130.8380  132.5050   61.8090 O   0  0  0  0  0  0  0  0  0  0  0  0
  130.0440  132.3420   60.6540 C   0  0  0  0  0  0  0  0  0  0  0  0
  126.2150  131.2920   61.0810 C   0  0  0  0  0  0  0  0  0  0  0  0
  126.1360  129.7720   61.0720 C   0  0  0  0  0  0  0  0  0  0  0  0
  126.5580  129.3610   59.6440 C   0  0  1  0  0  0  0  0  0  0  0  0
  125.3940  129.5030   58.8290 O   0  0  0  0  0  0  0  0  0  0  0  0
  126.9590  127.8330   59.4770 C   0  0  2  0  0  0  0  0  0  0  0  0
  127.5140  127.0640   60.7020 C   0  0  0  0  0  0  0  0  0  0  0  0
  127.6010  125.5440   60.4350 C   0  0  0  0  0  0  0  0  0  0  0  0
  128.4420  125.1740   59.1720 C   0  0  1  0  0  0  0  0  0  0  0  0
  128.2930  123.7760   58.9370 O   0  0  0  0  0  0  0  0  0  0  0  0
  129.9550  125.2920   59.5530 C   0  0  0  0  0  0  0  0  0  0  0  0
  132.8860  125.2070   61.1350 C   0  0  0  0  0  0  0  0  0  0  0  0
  133.1540  124.3860   62.3980 C   0  0  1  0  0  0  0  0  0  0  0  0
  133.3300  125.0640   63.6260 O   0  0  0  0  0  0  0  0  0  0  0  0
  130.5610  125.6920   64.4220 C   0  0  0  0  0  0  0  0  0  0  0  0
  129.4900  126.3930   64.9720 C   0  0  0  0  0  0  0  0  0  0  0  0
  128.4585  128.7432   68.3126 H   0  0  0  0  0  0  0  0  0  0  0  0
  129.3755  128.9120   66.7772 H   0  0  0  0  0  0  0  0  0  0  0  0
  127.5864  129.0731   66.7772 H   0  0  0  0  0  0  0  0  0  0  0  0
  130.1645  125.9042   68.2819 H   0  0  0  0  0  0  0  0  0  0  0  0
  132.0744  124.6539   67.2994 H   0  0  0  0  0  0  0  0  0  0  0  0
  133.3484  124.0840   65.4638 H   0  0  0  0  0  0  0  0  0  0  0  0
  130.9131  124.0480   62.6934 H   0  0  0  0  0  0  0  0  0  0  0  0
  130.7935  121.9878   61.8303 H   0  0  0  0  0  0  0  0  0  0  0  0
  132.9979  121.0341   62.3456 H   0  0  0  0  0  0  0  0  0  0  0  0
  132.1945  120.5914   60.8012 H   0  0  0  0  0  0  0  0  0  0  0  0
  133.5583  121.7604   60.8012 H   0  0  0  0  0  0  0  0  0  0  0  0
  133.4689  123.5750   59.7953 H   0  0  0  0  0  0  0  0  0  0  0  0
  130.6918  123.8466   58.1244 H   0  0  0  0  0  0  0  0  0  0  0  0
  131.0534  126.8227   57.4798 H   0  0  0  0  0  0  0  0  0  0  0  0
  131.3204  125.4099   56.3743 H   0  0  0  0  0  0  0  0  0  0  0  0
  129.1492  126.6997   56.0446 H   0  0  0  0  0  0  0  0  0  0  0  0
  129.0372  124.8698   56.3419 H   0  0  0  0  0  0  0  0  0  0  0  0
  126.7476  124.6748   56.7113 H   0  0  0  0  0  0  0  0  0  0  0  0
  127.4259  127.9451   57.3670 H   0  0  0  0  0  0  0  0  0  0  0  0
  130.0634  127.9658   58.5783 H   0  0  0  0  0  0  0  0  0  0  0  0
  129.2572  129.0023   57.3024 H   0  0  0  0  0  0  0  0  0  0  0  0
  129.1989  129.3369   60.3212 H   0  0  0  0  0  0  0  0  0  0  0  0
  129.8054  130.4757   59.0315 H   0  0  0  0  0  0  0  0  0  0  0  0
  127.1751  132.0802   57.8913 H   0  0  0  0  0  0  0  0  0  0  0  0
  128.4405  130.9672   57.2697 H   0  0  0  0  0  0  0  0  0  0  0  0
  126.7179  130.4581   57.2697 H   0  0  0  0  0  0  0  0  0  0  0  0
  127.4031  132.5529   59.7202 H   0  0  0  0  0  0  0  0  0  0  0  0
  127.9944  131.5388   63.1964 H   0  0  0  0  0  0  0  0  0  0  0  0
  129.9667  133.2886   60.0991 H   0  0  0  0  0  0  0  0  0  0  0  0
  130.4696  131.6065   59.9555 H   0  0  0  0  0  0  0  0  0  0  0  0
  126.2955  131.6719   62.1102 H   0  0  0  0  0  0  0  0  0  0  0  0
  125.3191  131.7619   60.6491 H   0  0  0  0  0  0  0  0  0  0  0  0
  126.8231  129.3443   61.8169 H   0  0  0  0  0  0  0  0  0  0  0  0
  125.1300  129.4079   61.3276 H   0  0  0  0  0  0  0  0  0  0  0  0
  125.3970  128.8040   58.1700 H   0  0  0  0  0  0  0  0  0  0  0  0
  125.9633  127.4002   59.3003 H   0  0  0  0  0  0  0  0  0  0  0  0
  128.5203  127.4428   60.9341 H   0  0  0  0  0  0  0  0  0  0  0  0
  126.8267  127.2239   61.5459 H   0  0  0  0  0  0  0  0  0  0  0  0
  128.0610  125.0636   61.3111 H   0  0  0  0  0  0  0  0  0  0  0  0
  126.5753  125.1912   60.2521 H   0  0  0  0  0  0  0  0  0  0  0  0
  128.9710  123.3080   59.4290 H   0  0  0  0  0  0  0  0  0  0  0  0
  130.1640  126.3373   59.8245 H   0  0  0  0  0  0  0  0  0  0  0  0
  130.1308  124.5976   60.3878 H   0  0  0  0  0  0  0  0  0  0  0  0
  133.7685  125.8151   60.8874 H   0  0  0  0  0  0  0  0  0  0  0  0
  132.0343  125.8864   61.2865 H   0  0  0  0  0  0  0  0  0  0  0  0
  134.0930  123.8688   62.1515 H   0  0  0  0  0  0  0  0  0  0  0  0
  130.6712  125.6291   63.3293 H   0  0  0  0  0  0  0  0  0  0  0  0
  128.7585  126.8824   64.3121 H   0  0  0  0  0  0  0  0  0  0  0  0
  1  2  1  0
  2  3  1  0
  3  4  2  0
  4  5  1  0
  5  6  2  0
  6  7  1  0
  7  8  1  0
  8  9  1  0
  9 10  1  0
 10 11  1  0
 10 12  1  0
 12 13  1  0
 13 14  1  0
 14 15  1  0
 15 16  1  0
 16 17  1  0
 17 18  1  0
 18 19  1  6
 19 20  2  0
 18 21  1  0
 21 22  1  0
 22 23  1  0
 23 24  1  0
 24 25  1  6
 24 26  1  0
 26 27  1  0
 27 28  2  0
 28 29  1  0
 29 30  2  0
 29 31  1  0
 31 32  1  0
 26 33  1  0
 33 34  1  0
 34 35  1  0
 35 36  1  6
 35 37  1  0
 37 38  1  0
 38 39  1  0
 39 40  1  0
 40 41  1  6
 40 42  1  0
 13 43  1  0
 43 44  1  0
 44 45  1  0
  6 46  1  0
 46 47  2  0
 47  3  1  0
 45  7  1  0
 44  9  1  0
 42 15  1  0
 40 18  1  0
 37 21  1  0
 35 24  1  0
 32 27  1  0
  1 48  1  0
  1 49  1  0
  1 50  1  0
  4 51  1  0
  5 52  1  0
  7 53  1  1
  9 54  1  1
 10 55  1  1
 11 56  1  0
 11 57  1  0
 11 58  1  0
 13 59  1  6
 15 60  1  6
 16 61  1  0
 16 62  1  0
 17 63  1  0
 17 64  1  0
 19 65  1  0
 21 66  1  6
 22 67  1  0
 22 68  1  0
 23 69  1  0
 23 70  1  0
 25 71  1  0
 25 72  1  0
 25 73  1  0
 26 74  1  6
 28 75  1  0
 32 76  1  0
 32 77  1  0
 33 78  1  0
 33 79  1  0
 34 80  1  0
 34 81  1  0
 36 82  1  0
 37 83  1  6
 38 84  1  0
 38 85  1  0
 39 86  1  0
 39 87  1  0
 41 88  1  0
 42 89  1  0
 42 90  1  0
 43 91  1  0
 43 92  1  0
 44 93  1  6
 46 94  1  0
 47 95  1  0
M  END
>  <Binding energies>  (1) 
[-8.0]

>  <Ligand effiencies>  (1) 
[-0.16326530612244897]

>  <Interactions>  (1) 
["H-A:ALA:541:N:4891, V-B:GLU:543:CB:9878, V-A:PRO:540:C:4881, V-B:TYR:539:CE2:9848, V-A:TYR:484:CE2:4346, V-B:GLU:543:CG:9879, V-A:ASP:366:CG:3213, V-B:TYR:539:CZ:9849, H-B:TYR:539:OH:9850, V-A:ALA:541:CB:4892, V-A:GLU:543:CD:4908, V-A:TYR:484:CZ:4347, H-B:ASP:366:OD1:8185, V-B:HIS:456:CE1:9041, V-A:HIS:456:CE1:4070, V-A:ALA:541:CA:4890, V-A:GLU:543:CG:4907, V-B:GLU:543:CD:9880, H-B:TYR:531:OH:9767, V-A:LEU:475:CD2:4259, H-A:ARG:545:NH2:4928, V-A:GLU:543:CB:4906, V-A:PRO:540:CB:4885, V-A:PRO:540:CA:4883, H-A:ARG:545:NE:4924, H-A:TYR:484:OH:4348"]

$$$$
ZINC253505295
     RDKit          3D

 58 61  0  0  0  0  0  0  0  0999 V2000
  128.4320  133.0390   60.9220 C   0  0  0  0  0  0  0  0  0  0  0  0
  129.3670  132.0840   61.6600 C   0  0  0  0  0  0  0  0  0  0  0  0
  130.4760  132.5810   62.0640 N   0  0  0  0  0  0  0  0  0  0  0  0
  131.4120  131.8010   62.7460 N   0  0  0  0  0  0  0  0  0  0  0  0
  128.8600  130.6020   61.8280 C   0  0  1  0  0  0  0  0  0  0  0  0
  129.1210  130.1620   63.1590 O   0  0  0  0  0  0  0  0  0  0  0  0
  127.3290  130.4110   61.6640 C   0  0  0  0  0  0  0  0  0  0  0  0
  127.1030  128.9110   61.4840 C   0  0  0  0  0  0  0  0  0  0  0  0
  128.3720  128.3880   60.7820 C   0  0  2  0  0  0  0  0  0  0  0  0
  128.8960  127.0130   61.2900 C   0  0  2  0  0  0  0  0  0  0  0  0
  129.1860  126.8760   62.7920 C   0  0  0  0  0  0  0  0  0  0  0  0
  130.1700  126.0990   63.2840 C   0  0  0  0  0  0  0  0  0  0  0  0
  131.0380  125.2700   62.4520 C   0  0  0  0  0  0  0  0  0  0  0  0
  132.0690  124.5960   63.0110 C   0  0  0  0  0  0  0  0  0  0  0  0
  132.9830  123.7070   62.3440 C   0  0  0  0  0  0  0  0  0  0  0  0
  133.8660  123.0740   63.0140 N   0  0  0  0  0  0  0  0  0  0  0  0
  134.7360  122.1890   62.3710 N   0  0  0  0  0  0  0  0  0  0  0  0
  132.7880  123.5470   60.8130 C   0  0  0  0  0  0  0  0  0  0  0  0
  132.0020  124.7200   60.1780 C   0  0  0  0  0  0  0  0  0  0  0  0
  130.7160  125.1570   60.9470 C   0  0  1  0  0  0  0  0  0  0  0  0
  129.6360  124.0540   60.7610 C   0  0  0  0  0  0  0  0  0  0  0  0
  130.1640  126.5630   60.4910 C   0  0  2  0  0  0  0  0  0  0  0  0
  131.2450  127.6950   60.4150 C   0  0  0  0  0  0  0  0  0  0  0  0
  130.8620  129.0440   61.0690 C   0  0  0  0  0  0  0  0  0  0  0  0
  129.4210  129.5610   60.7630 C   0  0  2  0  0  0  0  0  0  0  0  0
  129.4610  130.1500   59.3170 C   0  0  0  0  0  0  0  0  0  0  0  0
  127.8567  133.6266   61.6526 H   0  0  0  0  0  0  0  0  0  0  0  0
  129.0246  133.7176   60.2908 H   0  0  0  0  0  0  0  0  0  0  0  0
  127.7410  132.4609   60.2908 H   0  0  0  0  0  0  0  0  0  0  0  0
  131.0290  130.9520   63.1390 H   0  0  0  0  0  0  0  0  0  0  0  0
  131.9890  132.3240   63.3890 H   0  0  0  0  0  0  0  0  0  0  0  0
  129.8410  129.5270   63.1320 H   0  0  0  0  0  0  0  0  0  0  0  0
  126.8018  130.7712   62.5597 H   0  0  0  0  0  0  0  0  0  0  0  0
  126.9440  130.9801   60.8050 H   0  0  0  0  0  0  0  0  0  0  0  0
  126.9736  128.4213   62.4604 H   0  0  0  0  0  0  0  0  0  0  0  0
  126.1954  128.7010   60.8990 H   0  0  0  0  0  0  0  0  0  0  0  0
  128.1292  128.1165   59.7441 H   0  0  0  0  0  0  0  0  0  0  0  0
  128.0344  126.3542   61.1066 H   0  0  0  0  0  0  0  0  0  0  0  0
  128.5601  127.4394   63.4997 H   0  0  0  0  0  0  0  0  0  0  0  0
  130.3286  126.0882   64.3725 H   0  0  0  0  0  0  0  0  0  0  0  0
  132.2253  124.7431   64.0899 H   0  0  0  0  0  0  0  0  0  0  0  0
  134.4620  121.2200   62.4480 H   0  0  0  0  0  0  0  0  0  0  0  0
  135.7100  122.3510   62.5840 H   0  0  0  0  0  0  0  0  0  0  0  0
  133.7783  123.4903   60.3374 H   0  0  0  0  0  0  0  0  0  0  0  0
  132.2014  122.6309   60.6497 H   0  0  0  0  0  0  0  0  0  0  0  0
  132.6750  125.5882   60.1209 H   0  0  0  0  0  0  0  0  0  0  0  0
  131.6609  124.3604   59.1960 H   0  0  0  0  0  0  0  0  0  0  0  0
  129.2945  123.7053   61.7468 H   0  0  0  0  0  0  0  0  0  0  0  0
  128.7830  124.4666   60.2023 H   0  0  0  0  0  0  0  0  0  0  0  0
  130.0665  123.2099   60.2023 H   0  0  0  0  0  0  0  0  0  0  0  0
  129.8464  126.3984   59.4508 H   0  0  0  0  0  0  0  0  0  0  0  0
  132.1541  127.3260   60.9123 H   0  0  0  0  0  0  0  0  0  0  0  0
  131.3736  127.9107   59.3440 H   0  0  0  0  0  0  0  0  0  0  0  0
  130.9554  128.9295   62.1590 H   0  0  0  0  0  0  0  0  0  0  0  0
  131.5456  129.7903   60.6381 H   0  0  0  0  0  0  0  0  0  0  0  0
  129.5354  131.2462   59.3695 H   0  0  0  0  0  0  0  0  0  0  0  0
  130.3339  129.7484   58.7815 H   0  0  0  0  0  0  0  0  0  0  0  0
  128.5418  129.8702   58.7815 H   0  0  0  0  0  0  0  0  0  0  0  0
  1  2  1  0
  2  3  2  0
  3  4  1  0
  2  5  1  0
  5  6  1  1
  5  7  1  0
  7  8  1  0
  8  9  1  0
  9 10  1  0
 10 11  1  0
 11 12  2  0
 12 13  1  0
 13 14  2  0
 14 15  1  0
 15 16  2  0
 16 17  1  0
 15 18  1  0
 18 19  1  0
 19 20  1  0
 20 21  1  1
 20 22  1  0
 22 23  1  0
 23 24  1  0
 24 25  1  0
 25 26  1  6
 25  5  1  0
 25  9  1  0
 22 10  1  0
 20 13  1  0
  1 27  1  0
  1 28  1  0
  1 29  1  0
  4 30  1  0
  4 31  1  0
  6 32  1  0
  7 33  1  0
  7 34  1  0
  8 35  1  0
  8 36  1  0
  9 37  1  6
 10 38  1  6
 11 39  1  0
 12 40  1  0
 14 41  1  0
 17 42  1  0
 17 43  1  0
 18 44  1  0
 18 45  1  0
 19 46  1  0
 19 47  1  0
 21 48  1  0
 21 49  1  0
 21 50  1  0
 22 51  1  6
 23 52  1  0
 23 53  1  0
 24 54  1  0
 24 55  1  0
 26 56  1  0
 26 57  1  0
 26 58  1  0
M  END
>  <Binding energies>  (1) 
[-6.68]

>  <Ligand effiencies>  (1) 
[-0.21548387096774194]

>  <Interactions>  (1) 
["V-A:ILE:369:CD1:3239, V-A:ALA:541:C:4888, V-A:GLY:454:CA:4049, V-A:PRO:540:CA:4883, H-A:GLU:543:OE2:4910, H-A:ALA:541:N:4891, V-A:ALA:541:CA:4890, V-A:GLY:453:C:4042, H-A:ALA:541:O:4889, V-A:GLU:543:CG:4907, H-A:SER:385:O:3406, V-B:GLU:543:CD:9880, V-A:GLU:543:CD:4908, V-A:SER:385:C:3405, H-A:GLU:543:OE1:4909, H-A:GLY:454:N:4050, V-A:ASP:366:CG:3213, H-A:GLY:453:O:4043"]

$$$$
ZINC253505429
     RDKit          3D

 95 99  0  0  0  0  0  0  0  0999 V2000
  127.9380  128.8480   63.5020 C   0  0  0  0  0  0  0  0  0  0  0  0
  128.3840  128.2000   64.6840 O   0  0  0  0  0  0  0  0  0  0  0  0
  127.8950  128.5570   65.8990 C   0  0  0  0  0  0  0  0  0  0  0  0
  127.0360  129.4250   66.0830 O   0  0  0  0  0  0  0  0  0  0  0  0
  128.4900  127.7160   67.0200 C   0  0  2  0  0  0  0  0  0  0  0  0
  129.1750  128.5610   68.1270 C   0  0  0  0  0  0  0  0  0  0  0  0
  129.2130  127.9010   69.4970 C   0  0  0  0  0  0  0  0  0  0  0  0
  128.0840  127.2040   69.9750 C   0  0  0  0  0  0  0  0  0  0  0  0
  128.1220  126.5730   71.2320 C   0  0  0  0  0  0  0  0  0  0  0  0
  129.2910  126.6340   72.0170 C   0  0  0  0  0  0  0  0  0  0  0  0
  129.3270  126.0170   73.2340 O   0  0  0  0  0  0  0  0  0  0  0  0
  130.4190  127.3300   71.5430 C   0  0  0  0  0  0  0  0  0  0  0  0
  130.3810  127.9640   70.2860 C   0  0  0  0  0  0  0  0  0  0  0  0
  129.4710  126.8340   66.3700 N   0  0  0  0  0  0  0  0  0  0  0  0
  129.8630  125.6320   66.8280 C   0  0  0  0  0  0  0  0  0  0  0  0
  129.4070  125.1210   67.8510 O   0  0  0  0  0  0  0  0  0  0  0  0
  130.9440  124.9200   66.0010 C   0  0  0  0  0  0  0  0  0  0  0  0
  130.4300  124.3480   64.6560 C   0  0  0  0  0  0  0  0  0  0  0  0
  129.5700  123.0850   64.7820 C   0  0  0  0  0  0  0  0  0  0  0  0
  129.1960  122.6430   65.8710 O   0  0  0  0  0  0  0  0  0  0  0  0
  129.3040  122.5430   63.5770 O   0  0  0  0  0  0  0  0  0  0  0  0
  128.4600  123.2140   62.6460 C   0  0  0  0  0  0  0  0  0  0  0  0
  129.2410  123.6150   61.3810 C   0  0  0  0  0  0  0  0  0  0  0  0
  130.2690  123.0150   61.0580 O   0  0  0  0  0  0  0  0  0  0  0  0
  128.7020  124.8080   60.5170 C   0  0  1  0  0  0  0  0  0  0  0  0
  128.6810  124.3710   59.1280 O   0  0  0  0  0  0  0  0  0  0  0  0
  128.1590  123.2030   58.6430 C   0  0  0  0  0  0  0  0  0  0  0  0
  127.3280  123.4260   57.3870 C   0  0  0  0  0  0  0  0  0  0  0  0
  128.3140  122.0760   59.1150 O   0  0  0  0  0  0  0  0  0  0  0  0
  127.2920  125.2840   60.9510 C   0  0  0  0  0  0  0  0  0  0  0  0
  127.1320  126.6310   60.2510 C   0  0  0  0  0  0  0  0  0  0  0  0
  128.5500  127.2450   60.1490 C   0  0  2  0  0  0  0  0  0  0  0  0
  128.8920  127.8210   58.7440 C   0  0  1  0  0  0  0  0  0  0  0  0
  127.8550  128.7790   58.1110 C   0  0  0  0  0  0  0  0  0  0  0  0
  127.9680  130.2180   58.6180 C   0  0  0  0  0  0  0  0  0  0  0  0
  129.3580  130.7560   58.2880 C   0  0  0  0  0  0  0  0  0  0  0  0
  129.5280  131.8670   57.5340 C   0  0  0  0  0  0  0  0  0  0  0  0
  130.8150  132.4740   57.2320 C   0  0  0  0  0  0  0  0  0  0  0  0
  130.9170  133.4240   56.4580 O   0  0  0  0  0  0  0  0  0  0  0  0
  132.0080  131.9470   58.0360 C   0  0  0  0  0  0  0  0  0  0  0  0
  131.8790  130.4300   58.2840 C   0  0  0  0  0  0  0  0  0  0  0  0
  130.5300  129.9760   58.9380 C   0  0  1  0  0  0  0  0  0  0  0  0
  130.5490  130.3660   60.4430 C   0  0  0  0  0  0  0  0  0  0  0  0
  130.3340  128.4230   58.7050 C   0  0  1  0  0  0  0  0  0  0  0  0
  131.4010  127.5170   59.3840 C   0  0  0  0  0  0  0  0  0  0  0  0
  130.8930  126.1210   59.7960 C   0  0  0  0  0  0  0  0  0  0  0  0
  129.5610  126.1330   60.6330 C   0  0  2  0  0  0  0  0  0  0  0  0
  129.9590  126.4580   62.1100 C   0  0  0  0  0  0  0  0  0  0  0  0
  127.3333  129.7265   63.7714 H   0  0  0  0  0  0  0  0  0  0  0  0
  128.8074  129.1690   62.9095 H   0  0  0  0  0  0  0  0  0  0  0  0
  127.3277  128.1505   62.9095 H   0  0  0  0  0  0  0  0  0  0  0  0
  127.6919  127.1632   67.5371 H   0  0  0  0  0  0  0  0  0  0  0  0
  130.2104  128.7613   67.8141 H   0  0  0  0  0  0  0  0  0  0  0  0
  128.5727  129.4747   68.2384 H   0  0  0  0  0  0  0  0  0  0  0  0
  127.1711  127.1535   69.3634 H   0  0  0  0  0  0  0  0  0  0  0  0
  127.2389  126.0318   71.6023 H   0  0  0  0  0  0  0  0  0  0  0  0
  130.1760  125.6100   73.4230 H   0  0  0  0  0  0  0  0  0  0  0  0
  131.3315  127.3788   72.1553 H   0  0  0  0  0  0  0  0  0  0  0  0
  131.2631  128.5090   69.9188 H   0  0  0  0  0  0  0  0  0  0  0  0
  129.9280  127.2180   65.5560 H   0  0  0  0  0  0  0  0  0  0  0  0
  131.7469  125.6407   65.7867 H   0  0  0  0  0  0  0  0  0  0  0  0
  131.2925  124.0652   66.5992 H   0  0  0  0  0  0  0  0  0  0  0  0
  129.8276  125.1244   64.1617 H   0  0  0  0  0  0  0  0  0  0  0  0
  131.3221  124.0595   64.0807 H   0  0  0  0  0  0  0  0  0  0  0  0
  127.6346  122.5447   62.3618 H   0  0  0  0  0  0  0  0  0  0  0  0
  128.0708  124.1266   63.1210 H   0  0  0  0  0  0  0  0  0  0  0  0
  126.3015  123.7015   57.6706 H   0  0  0  0  0  0  0  0  0  0  0  0
  127.7738  124.2363   56.7914 H   0  0  0  0  0  0  0  0  0  0  0  0
  127.3083  122.5014   56.7914 H   0  0  0  0  0  0  0  0  0  0  0  0
  126.5194  124.5752   60.6185 H   0  0  0  0  0  0  0  0  0  0  0  0
  127.1846  125.3564   62.0433 H   0  0  0  0  0  0  0  0  0  0  0  0
  126.7062  126.4891   59.2467 H   0  0  0  0  0  0  0  0  0  0  0  0
  126.4520  127.2911   60.8095 H   0  0  0  0  0  0  0  0  0  0  0  0
  128.6177  128.1336   60.7938 H   0  0  0  0  0  0  0  0  0  0  0  0
  128.8466  126.9370   58.0909 H   0  0  0  0  0  0  0  0  0  0  0  0
  128.0020  128.7809   57.0209 H   0  0  0  0  0  0  0  0  0  0  0  0
  126.8579  128.4119   58.3956 H   0  0  0  0  0  0  0  0  0  0  0  0
  127.2057  130.8420   58.1285 H   0  0  0  0  0  0  0  0  0  0  0  0
  127.8104  130.2410   59.7064 H   0  0  0  0  0  0  0  0  0  0  0  0
  128.6282  132.3454   57.1198 H   0  0  0  0  0  0  0  0  0  0  0  0
  132.9342  132.1427   57.4758 H   0  0  0  0  0  0  0  0  0  0  0  0
  132.0306  132.4609   59.0083 H   0  0  0  0  0  0  0  0  0  0  0  0
  131.9782  129.9168   57.3161 H   0  0  0  0  0  0  0  0  0  0  0  0
  132.6706  130.1685   59.0016 H   0  0  0  0  0  0  0  0  0  0  0  0
  130.5046  129.4553   61.0584 H   0  0  0  0  0  0  0  0  0  0  0  0
  131.4750  130.9156   60.6677 H   0  0  0  0  0  0  0  0  0  0  0  0
  129.6808  131.0030   60.6677 H   0  0  0  0  0  0  0  0  0  0  0  0
  130.5345  128.3984   57.6237 H   0  0  0  0  0  0  0  0  0  0  0  0
  132.2355  127.3838   58.6799 H   0  0  0  0  0  0  0  0  0  0  0  0
  131.6957  128.0270   60.3130 H   0  0  0  0  0  0  0  0  0  0  0  0
  130.7190  125.5349   58.8816 H   0  0  0  0  0  0  0  0  0  0  0  0
  131.6668  125.6852   60.4451 H   0  0  0  0  0  0  0  0  0  0  0  0
  129.2936  125.9147   62.7971 H   0  0  0  0  0  0  0  0  0  0  0  0
  130.9997  126.1483   62.2859 H   0  0  0  0  0  0  0  0  0  0  0  0
  129.8636  127.5396   62.2859 H   0  0  0  0  0  0  0  0  0  0  0  0
  1  2  1  0
  2  3  1  0
  3  4  2  0
  3  5  1  0
  5  6  1  0
  6  7  1  0
  7  8  2  0
  8  9  1  0
  9 10  2  0
 10 11  1  0
 10 12  1  0
 12 13  2  0
  5 14  1  0
 14 15  1  0
 15 16  2  0
 15 17  1  0
 17 18  1  0
 18 19  1  0
 19 20  2  0
 19 21  1  0
 21 22  1  0
 22 23  1  0
 23 24  2  0
 23 25  1  0
 25 26  1  6
 26 27  1  0
 27 28  1  0
 27 29  2  0
 25 30  1  0
 30 31  1  0
 31 32  1  0
 32 33  1  0
 33 34  1  0
 34 35  1  0
 35 36  1  0
 36 37  2  0
 37 38  1  0
 38 39  2  0
 38 40  1  0
 40 41  1  0
 41 42  1  0
 42 43  1  1
 42 44  1  0
 44 45  1  0
 45 46  1  0
 46 47  1  0
 47 48  1  1
 13  7  1  0
 47 25  1  0
 47 32  1  0
 44 33  1  0
 42 36  1  0
  1 49  1  0
  1 50  1  0
  1 51  1  0
  5 52  1  1
  6 53  1  0
  6 54  1  0
  8 55  1  0
  9 56  1  0
 11 57  1  0
 12 58  1  0
 13 59  1  0
 14 60  1  0
 17 61  1  0
 17 62  1  0
 18 63  1  0
 18 64  1  0
 22 65  1  0
 22 66  1  0
 28 67  1  0
 28 68  1  0
 28 69  1  0
 30 70  1  0
 30 71  1  0
 31 72  1  0
 31 73  1  0
 32 74  1  1
 33 75  1  6
 34 76  1  0
 34 77  1  0
 35 78  1  0
 35 79  1  0
 37 80  1  0
 40 81  1  0
 40 82  1  0
 41 83  1  0
 41 84  1  0
 43 85  1  0
 43 86  1  0
 43 87  1  0
 44 88  1  6
 45 89  1  0
 45 90  1  0
 46 91  1  0
 46 92  1  0
 48 93  1  0
 48 94  1  0
 48 95  1  0
M  END
>  <Binding energies>  (1) 
[-9.32]

>  <Ligand effiencies>  (1) 
[-0.1864]

>  <Interactions>  (1) 
["V-B:PRO:540:CA:9855, V-A:GLU:543:CA:4904, V-B:GLU:543:C:9874, H-A:GLU:543:OE2:4910, V-A:GLU:543:C:4902, V-B:GLU:543:CB:9878, H-B:LYS:547:NZ:9923, V-B:ALA:541:CB:9864, V-B:TYR:539:CE2:9848, V-A:TYR:484:CE2:4346, V-B:GLU:543:CG:9879, V-A:HIS:456:CD2:4068, V-A:ASP:366:CG:3213, V-A:LEU:363:CD1:3189, V-B:TYR:539:CZ:9849, V-A:TYR:484:CZ:4347, V-A:GLU:543:CD:4908, H-B:TYR:484:OH:9319, V-B:HIS:456:CE1:9041, V-A:HIS:456:CE1:4070, V-B:GLY:544:C:9884, V-B:TYR:539:CD2:9846, V-A:GLU:543:CG:4907, V-B:GLU:543:CD:9880, V-A:ASP:366:CB:3212, H-A:GLU:543:OE1:4909, V-A:GLU:543:CB:4906, V-A:PRO:540:N:4884, H-A:TYR:539:N:4870, V-A:PRO:540:CB:4885, V-A:PRO:540:CA:4883, H-A:HIS:456:NE2:4071"]

$$$$
ZINC253529928
     RDKit          3D

 83 88  0  0  0  0  0  0  0  0999 V2000
  134.3300  124.4910   60.6370 C   0  0  0  0  0  0  0  0  0  0  0  0
  132.9150  124.2960   60.0550 C   0  0  0  0  0  0  0  0  0  0  0  0
  132.4530  122.8290   60.2030 C   0  0  0  0  0  0  0  0  0  0  0  0
  132.8380  124.8090   58.6040 C   0  0  0  0  0  0  0  0  0  0  0  0
  133.6320  124.4480   57.7300 O   0  0  0  0  0  0  0  0  0  0  0  0
  131.8100  125.6640   58.4250 O   0  0  0  0  0  0  0  0  0  0  0  0
  130.4650  125.2540   58.6500 C   0  0  0  0  0  0  0  0  0  0  0  0
  129.4940  126.4090   58.3650 C   0  0  0  0  0  0  0  0  0  0  0  0
  128.6310  126.3020   57.4880 O   0  0  0  0  0  0  0  0  0  0  0  0
  129.6260  127.6870   59.2420 C   0  0  2  0  0  0  0  0  0  0  0  0
  129.3430  128.8010   58.4150 O   0  0  0  0  0  0  0  0  0  0  0  0
  130.3030  129.7980   58.5590 C   0  0  2  0  0  0  0  0  0  0  0  0
  130.7990  130.2480   57.1760 C   0  0  0  0  0  0  0  0  0  0  0  0
  129.8580  131.2680   56.4860 C   0  0  0  0  0  0  0  0  0  0  0  0
  129.8940  132.6500   57.1710 C   0  0  0  0  0  0  0  0  0  0  0  0
  131.3320  133.2030   57.2620 C   0  0  0  0  0  0  0  0  0  0  0  0
  132.3180  132.1940   57.8870 C   0  0  0  0  0  0  0  0  0  0  0  0
  132.2400  130.8150   57.1960 C   0  0  0  0  0  0  0  0  0  0  0  0
  131.3550  129.2620   59.2920 O   0  0  0  0  0  0  0  0  0  0  0  0
  131.1020  127.9140   59.6290 C   0  0  1  0  0  0  0  0  0  0  0  0
  131.2270  127.6210   61.1340 C   0  0  0  0  0  0  0  0  0  0  0  0
  129.8660  127.0640   61.6180 C   0  0  2  0  0  0  0  0  0  0  0  0
  129.8600  125.5210   61.8630 C   0  0  1  0  0  0  0  0  0  0  0  0
  130.7770  125.1480   63.0730 C   0  0  0  0  0  0  0  0  0  0  0  0
  130.3770  123.8690   63.8370 C   0  0  0  0  0  0  0  0  0  0  0  0
  129.8670  122.8740   62.8130 C   0  0  0  0  0  0  0  0  0  0  0  0
  130.5830  121.7830   62.4490 C   0  0  0  0  0  0  0  0  0  0  0  0
  130.2160  120.8700   61.3690 C   0  0  0  0  0  0  0  0  0  0  0  0
  130.8150  119.8220   61.1330 O   0  0  0  0  0  0  0  0  0  0  0  0
  129.0980  121.3560   60.5630 C   0  0  0  0  0  0  0  0  0  0  0  0
  128.3460  122.4250   60.8940 C   0  0  0  0  0  0  0  0  0  0  0  0
  128.5060  123.2710   62.1760 C   0  0  1  0  0  0  0  0  0  0  0  0
  127.3810  122.8250   63.1440 C   0  0  0  0  0  0  0  0  0  0  0  0
  128.4520  124.8500   61.9550 C   0  0  2  0  0  0  0  0  0  0  0  0
  127.5490  125.3080   60.7720 C   0  0  1  0  0  0  0  0  0  0  0  0
  126.2330  124.7920   60.8470 O   0  0  0  0  0  0  0  0  0  0  0  0
  127.4710  126.8410   60.6100 C   0  0  0  0  0  0  0  0  0  0  0  0
  128.8210  127.6320   60.6090 C   0  0  2  0  0  0  0  0  0  0  0  0
  128.4620  129.0780   61.0770 C   0  0  0  0  0  0  0  0  0  0  0  0
  134.2787  124.4839   61.7358 H   0  0  0  0  0  0  0  0  0  0  0  0
  134.9828  123.6743   60.2951 H   0  0  0  0  0  0  0  0  0  0  0  0
  134.7376  125.4538   60.2951 H   0  0  0  0  0  0  0  0  0  0  0  0
  132.2083  124.9053   60.6375 H   0  0  0  0  0  0  0  0  0  0  0  0
  132.3732  122.5756   61.2704 H   0  0  0  0  0  0  0  0  0  0  0  0
  131.4718  122.7033   59.7220 H   0  0  0  0  0  0  0  0  0  0  0  0
  133.1851  122.1637   59.7220 H   0  0  0  0  0  0  0  0  0  0  0  0
  130.2282  124.4101   57.9854 H   0  0  0  0  0  0  0  0  0  0  0  0
  130.3574  124.9511   59.7020 H   0  0  0  0  0  0  0  0  0  0  0  0
  129.8812  130.6736   59.0741 H   0  0  0  0  0  0  0  0  0  0  0  0
  130.7983  129.3213   56.5834 H   0  0  0  0  0  0  0  0  0  0  0  0
  130.1693  131.3841   55.4374 H   0  0  0  0  0  0  0  0  0  0  0  0
  128.8305  130.8820   56.5581 H   0  0  0  0  0  0  0  0  0  0  0  0
  129.2778  133.3522   56.5903 H   0  0  0  0  0  0  0  0  0  0  0  0
  129.5040  132.5370   58.1933 H   0  0  0  0  0  0  0  0  0  0  0  0
  131.6784  133.4520   56.2481 H   0  0  0  0  0  0  0  0  0  0  0  0
  131.3070  134.0902   57.9119 H   0  0  0  0  0  0  0  0  0  0  0  0
  133.3408  132.5859   57.7858 H   0  0  0  0  0  0  0  0  0  0  0  0
  132.0487  132.0625   58.9454 H   0  0  0  0  0  0  0  0  0  0  0  0
  132.5939  130.9182   56.1596 H   0  0  0  0  0  0  0  0  0  0  0  0
  132.8685  130.1163   57.7676 H   0  0  0  0  0  0  0  0  0  0  0  0
  131.8309  127.2683   59.1173 H   0  0  0  0  0  0  0  0  0  0  0  0
  132.0192  126.8776   61.3067 H   0  0  0  0  0  0  0  0  0  0  0  0
  131.4873  128.5367   61.6852 H   0  0  0  0  0  0  0  0  0  0  0  0
  129.6063  127.3976   62.6335 H   0  0  0  0  0  0  0  0  0  0  0  0
  130.2822  125.0869   60.9447 H   0  0  0  0  0  0  0  0  0  0  0  0
  131.8003  125.0106   62.6936 H   0  0  0  0  0  0  0  0  0  0  0  0
  130.6796  125.9740   63.7929 H   0  0  0  0  0  0  0  0  0  0  0  0
  131.2507  123.4550   64.3617 H   0  0  0  0  0  0  0  0  0  0  0  0
  129.6023  124.0888   64.5863 H   0  0  0  0  0  0  0  0  0  0  0  0
  131.5068  121.5692   63.0065 H   0  0  0  0  0  0  0  0  0  0  0  0
  128.8564  120.8193   59.6337 H   0  0  0  0  0  0  0  0  0  0  0  0
  127.5519  122.7192   60.1920 H   0  0  0  0  0  0  0  0  0  0  0  0
  127.7170  122.9582   64.1829 H   0  0  0  0  0  0  0  0  0  0  0  0
  126.4827  123.4350   62.9681 H   0  0  0  0  0  0  0  0  0  0  0  0
  127.1447  121.7652   62.9681 H   0  0  0  0  0  0  0  0  0  0  0  0
  127.9710  125.2106   62.8762 H   0  0  0  0  0  0  0  0  0  0  0  0
  128.0498  124.8895   59.8865 H   0  0  0  0  0  0  0  0  0  0  0  0
  125.9140  124.8980   61.7460 H   0  0  0  0  0  0  0  0  0  0  0  0
  126.9666  127.0471   59.6544 H   0  0  0  0  0  0  0  0  0  0  0  0
  126.9381  127.1929   61.5057 H   0  0  0  0  0  0  0  0  0  0  0  0
  128.4526  129.1159   62.1763 H   0  0  0  0  0  0  0  0  0  0  0  0
  129.2119  129.7847   60.6922 H   0  0  0  0  0  0  0  0  0  0  0  0
  127.4686  129.3519   60.6922 H   0  0  0  0  0  0  0  0  0  0  0  0
  1  2  1  0
  2  3  1  0
  2  4  1  0
  4  5  2  0
  4  6  1  0
  6  7  1  0
  7  8  1  0
  8  9  2  0
 10  8  1  6
 10 11  1  0
 11 12  1  0
 12 13  1  0
 13 14  1  0
 14 15  1  0
 15 16  1  0
 16 17  1  0
 17 18  1  0
 12 19  1  0
 19 20  1  0
 20 21  1  0
 21 22  1  0
 22 23  1  0
 23 24  1  0
 24 25  1  0
 25 26  1  0
 26 27  2  0
 27 28  1  0
 28 29  2  0
 28 30  1  0
 30 31  2  0
 31 32  1  0
 32 33  1  1
 32 34  1  0
 34 35  1  0
 35 36  1  0
 35 37  1  0
 37 38  1  0
 38 39  1  1
 20 10  1  0
 38 22  1  0
 38 10  1  0
 18 13  1  0
 34 23  1  0
 32 26  1  0
  1 40  1  0
  1 41  1  0
  1 42  1  0
  2 43  1  0
  3 44  1  0
  3 45  1  0
  3 46  1  0
  7 47  1  0
  7 48  1  0
 12 49  1  1
 13 50  1  0
 14 51  1  0
 14 52  1  0
 15 53  1  0
 15 54  1  0
 16 55  1  0
 16 56  1  0
 17 57  1  0
 17 58  1  0
 18 59  1  0
 18 60  1  0
 20 61  1  6
 21 62  1  0
 21 63  1  0
 22 64  1  1
 23 65  1  6
 24 66  1  0
 24 67  1  0
 25 68  1  0
 25 69  1  0
 27 70  1  0
 30 71  1  0
 31 72  1  0
 33 73  1  0
 33 74  1  0
 33 75  1  0
 34 76  1  1
 35 77  1  6
 36 78  1  0
 37 79  1  0
 37 80  1  0
 39 81  1  0
 39 82  1  0
 39 83  1  0
M  END
>  <Binding energies>  (1) 
[-8.72]

>  <Ligand effiencies>  (1) 
[-0.21800000000000003]

>  <Interactions>  (1) 
["V-A:ILE:369:CG2:3237, V-A:ASP:366:CA:3210, V-B:PRO:540:CA:9855, V-A:PRO:540:CG:4886, V-A:ILE:538:CB:4862, V-B:ALA:541:CB:9864, V-B:TYR:539:CE2:9848, V-B:GLU:543:CG:9879, V-B:TYR:539:C:9839, V-A:ASP:366:CG:3213, V-A:LEU:363:CD1:3189, V-B:TYR:539:CZ:9849, H-B:GLU:543:OE1:9881, V-A:TYR:531:CE2:4793, H-B:TYR:539:OH:9850, H-B:ASP:366:OD1:8185, V-B:PRO:540:N:9856, V-A:ILE:369:CD1:3239, V-B:ALA:541:C:9860, V-B:TYR:539:CD2:9846, V-A:TYR:531:CZ:4794, H-A:SER:385:OG:3410, V-B:GLU:543:CD:9880, V-A:MET:535:CE:4835, V-A:TYR:539:C:4867, V-A:ASP:366:CB:3212, V-A:LEU:475:CD2:4259, V-A:PRO:540:N:4884, V-A:PRO:540:CB:4885, V-A:PRO:540:CA:4883, V-B:PRO:540:C:9853, V-B:ALA:541:CA:9862, V-A:PRO:540:CD:4887"]

$$$$
ZINC253531808
     RDKit          3D

 32 34  0  0  0  0  0  0  0  0999 V2000
  133.2680  123.2640   59.2040 C   0  0  0  0  0  0  0  0  0  0  0  0
  133.1250  123.5340   60.6960 C   0  0  0  0  0  0  0  0  0  0  0  0
  134.0290  124.2300   61.4340 C   0  0  0  0  0  0  0  0  0  0  0  0
  133.8400  124.4620   62.8730 C   0  0  0  0  0  0  0  0  0  0  0  0
  134.7140  125.1030   63.4520 O   0  0  0  0  0  0  0  0  0  0  0  0
  132.6590  123.9110   63.4270 N   0  0  0  0  0  0  0  0  0  0  0  0
  131.8220  123.2550   62.6910 C   0  0  0  0  0  0  0  0  0  0  0  0
  131.9860  123.0280   61.3310 N   0  0  0  0  0  0  0  0  0  0  0  0
  131.0140  122.3330   60.7660 N   0  0  0  0  0  0  0  0  0  0  0  0
  130.1550  122.0500   61.6600 C   0  0  0  0  0  0  0  0  0  0  0  0
  128.9900  121.3350   61.4790 N   0  0  0  0  0  0  0  0  0  0  0  0
  130.5310  122.5850   63.0040 C   0  0  0  0  0  0  0  0  0  0  0  0
  129.8700  122.4610   64.0910 N   0  0  0  0  0  0  0  0  0  0  0  0
  130.3640  123.0260   65.2810 N   0  0  0  0  0  0  0  0  0  0  0  0
  129.9730  124.2610   65.8150 C   0  0  0  0  0  0  0  0  0  0  0  0
  129.8710  124.3810   67.2040 C   0  0  0  0  0  0  0  0  0  0  0  0
  129.4860  125.5900   67.7790 C   0  0  0  0  0  0  0  0  0  0  0  0
  129.2030  126.6830   66.9630 C   0  0  0  0  0  0  0  0  0  0  0  0
  128.7260  128.1820   67.6740 Cl  0  0  0  0  0  0  0  0  0  0  0  0
  129.3010  126.5760   65.5780 C   0  0  0  0  0  0  0  0  0  0  0  0
  129.6860  125.3670   65.0050 C   0  0  0  0  0  0  0  0  0  0  0  0
  133.7780  122.3011   59.0528 H   0  0  0  0  0  0  0  0  0  0  0  0
  132.2710  123.2276   58.7408 H   0  0  0  0  0  0  0  0  0  0  0  0
  133.8584  124.0683   58.7408 H   0  0  0  0  0  0  0  0  0  0  0  0
  134.9269  124.6308   60.9410 H   0  0  0  0  0  0  0  0  0  0  0  0
  128.7470  120.9790   60.5660 H   0  0  0  0  0  0  0  0  0  0  0  0
  128.3660  121.1580   62.2520 H   0  0  0  0  0  0  0  0  0  0  0  0
  131.0550  122.4610   65.7560 H   0  0  0  0  0  0  0  0  0  0  0  0
  130.0958  123.5166   67.8460 H   0  0  0  0  0  0  0  0  0  0  0  0
  129.4058  125.6812   68.8723 H   0  0  0  0  0  0  0  0  0  0  0  0
  129.0752  127.4429   64.9396 H   0  0  0  0  0  0  0  0  0  0  0  0
  129.7651  125.2800   63.9113 H   0  0  0  0  0  0  0  0  0  0  0  0
  1  2  1  0
  2  3  2  0
  3  4  1  0
  4  5  2  0
  4  6  1  0
  6  7  2  0
  7  8  1  0
  8  9  1  0
  9 10  2  0
 10 11  1  0
 10 12  1  0
 12 13  2  0
 13 14  1  0
 14 15  1  0
 15 16  2  0
 16 17  1  0
 17 18  2  0
 18 19  1  0
 18 20  1  0
 20 21  2  0
  8  2  1  0
 21 15  1  0
 12  7  1  0
  1 22  1  0
  1 23  1  0
  1 24  1  0
  3 25  1  0
 11 26  1  0
 11 27  1  0
 14 28  1  0
 16 29  1  0
 17 30  1  0
 20 31  1  0
 21 32  1  0
M  END
>  <Binding energies>  (1) 
[-6.48]

>  <Ligand effiencies>  (1) 
[-0.27]

>  <Interactions>  (1) 
["V-A:ILE:369:CG2:3237, V-B:PRO:540:CA:9855, V-B:GLU:543:C:9874, V-A:ILE:369:CB:3236, V-B:GLU:543:CB:9878, V-B:ALA:541:CB:9864, H-A:ARG:545:NH1:4927, V-A:TYR:484:CE2:4346, V-B:TYR:539:CE2:9848, V-B:GLU:543:CG:9879, V-A:ASP:366:CG:3213, V-B:TYR:539:CZ:9849, V-A:TYR:484:CZ:4347, V-A:GLU:543:CD:4908, V-B:GLU:543:CA:9876, H-A:GLY:454:N:4050, V-B:HIS:456:CE1:9041, V-A:ILE:369:CD1:3239, V-A:HIS:456:CE1:4070, V-A:GLU:543:CG:4907, V-B:GLU:543:CD:9880, V-A:LEU:475:CD2:4259, H-A:ARG:545:NH2:4928, V-A:ARG:545:CZ:4926, V-A:GLU:543:CB:4906, H-B:TYR:539:O:9840, H-A:ARG:545:NE:4924, V-B:PRO:540:C:9853, V-B:ALA:541:CA:9862, H-A:TYR:484:OH:4348"]

$$$$
ZINC253574910
     RDKit          3D

 79 84  0  0  0  0  0  0  0  0999 V2000
  130.3710  132.9370   56.4340 C   0  0  0  0  0  0  0  0  0  0  0  0
  131.1070  131.9900   57.3490 C   0  0  0  0  0  0  0  0  0  0  0  0
  132.3990  131.8750   57.5280 N   0  0  0  0  0  0  0  0  0  0  0  0
  132.5640  130.8570   58.4610 N   0  0  0  0  0  0  0  0  0  0  0  0
  131.3560  130.4370   58.7650 C   0  0  0  0  0  0  0  0  0  0  0  0
  130.9130  129.3310   59.7140 C   0  0  0  0  0  0  0  0  0  0  0  0
  129.9050  129.7430   60.7000 N   0  0  0  0  0  0  0  0  0  0  0  0
  130.4370  130.8140   61.5450 C   0  0  0  0  0  0  0  0  0  0  0  0
  129.3640  131.3720   62.5050 C   0  0  0  0  0  0  0  0  0  0  0  0
  128.7020  130.2670   63.2400 N   0  0  0  0  0  0  0  0  0  0  0  0
  128.0670  130.5750   64.4070 C   0  0  0  0  0  0  0  0  0  0  0  0
  128.1210  131.7030   64.9060 O   0  0  0  0  0  0  0  0  0  0  0  0
  127.4030  129.4470   65.2340 C   0  0  0  0  0  0  0  0  0  0  0  0
  127.5660  129.6030   67.0510 S   0  0  0  0  0  0  0  0  0  0  0  0
  128.3320  128.0600   67.4320 C   0  0  0  0  0  0  0  0  0  0  0  0
  129.1070  127.3580   66.6460 N   0  0  0  0  0  0  0  0  0  0  0  0
  129.4110  126.2600   67.3510 C   0  0  0  0  0  0  0  0  0  0  0  0
  130.1440  125.1960   66.9100 N   0  0  0  0  0  0  0  0  0  0  0  0
  129.9290  124.8410   65.7090 N   0  0  0  0  0  0  0  0  0  0  0  0
  130.6730  123.6700   65.3050 C   0  0  0  0  0  0  0  0  0  0  0  0
  131.5650  124.0780   64.1390 C   0  0  0  0  0  0  0  0  0  0  0  0
  132.8370  124.6750   64.1990 C   0  0  0  0  0  0  0  0  0  0  0  0
  133.6670  125.0540   65.4080 C   0  0  0  0  0  0  0  0  0  0  0  0
  133.3170  124.9340   63.0080 N   0  0  0  0  0  0  0  0  0  0  0  0
  132.4110  124.5040   62.1160 N   0  0  0  0  0  0  0  0  0  0  0  0
  132.6670  124.6850   60.7240 C   0  0  0  0  0  0  0  0  0  0  0  0
  131.9140  125.5890   59.9620 C   0  0  0  0  0  0  0  0  0  0  0  0
  132.1940  125.7740   58.6100 C   0  0  0  0  0  0  0  0  0  0  0  0
  133.2230  125.0520   58.0120 C   0  0  0  0  0  0  0  0  0  0  0  0
  133.9690  124.1370   58.7500 C   0  0  0  0  0  0  0  0  0  0  0  0
  133.6890  123.9510   60.1000 C   0  0  0  0  0  0  0  0  0  0  0  0
  131.3130  123.9610   62.7660 C   0  0  0  0  0  0  0  0  0  0  0  0
  130.2410  123.4590   62.0880 N   0  0  0  0  0  0  0  0  0  0  0  0
  130.4380  122.3010   61.2040 C   0  0  0  0  0  0  0  0  0  0  0  0
  129.1360  121.5330   60.8960 C   0  0  0  0  0  0  0  0  0  0  0  0
  128.0330  122.4570   60.3710 C   0  0  0  0  0  0  0  0  0  0  0  0
  127.8400  123.6250   61.3450 C   0  0  0  0  0  0  0  0  0  0  0  0
  129.1660  124.3560   61.6390 C   0  0  0  0  0  0  0  0  0  0  0  0
  128.8780  126.2430   68.5580 N   0  0  0  0  0  0  0  0  0  0  0  0
  128.1970  127.3870   68.6060 N   0  0  0  0  0  0  0  0  0  0  0  0
  128.3510  129.0250   62.5140 C   0  0  0  0  0  0  0  0  0  0  0  0
  129.4980  128.6280   61.5600 C   0  0  0  0  0  0  0  0  0  0  0  0
  130.3890  131.1180   58.1000 O   0  0  0  0  0  0  0  0  0  0  0  0
  129.8061  133.6638   57.0361 H   0  0  0  0  0  0  0  0  0  0  0  0
  131.0943  133.4700   55.7993 H   0  0  0  0  0  0  0  0  0  0  0  0
  129.6760  132.3677   55.7993 H   0  0  0  0  0  0  0  0  0  0  0  0
  130.4916  128.5112   59.1136 H   0  0  0  0  0  0  0  0  0  0  0  0
  131.8048  129.0316   60.2841 H   0  0  0  0  0  0  0  0  0  0  0  0
  131.2741  130.4173   62.1382 H   0  0  0  0  0  0  0  0  0  0  0  0
  130.7701  131.6330   60.8906 H   0  0  0  0  0  0  0  0  0  0  0  0
  129.8413  132.0519   63.2260 H   0  0  0  0  0  0  0  0  0  0  0  0
  128.6074  131.9134   61.9181 H   0  0  0  0  0  0  0  0  0  0  0  0
  126.3306  129.4337   64.9896 H   0  0  0  0  0  0  0  0  0  0  0  0
  127.9308  128.5212   64.9613 H   0  0  0  0  0  0  0  0  0  0  0  0
  131.2892  123.3087   66.1415 H   0  0  0  0  0  0  0  0  0  0  0  0
  129.9912  122.8595   65.0079 H   0  0  0  0  0  0  0  0  0  0  0  0
  133.1149  124.8019   66.3254 H   0  0  0  0  0  0  0  0  0  0  0  0
  134.6175  124.5007   65.3883 H   0  0  0  0  0  0  0  0  0  0  0  0
  133.8714  126.1347   65.3883 H   0  0  0  0  0  0  0  0  0  0  0  0
  131.0977  126.1553   60.4341 H   0  0  0  0  0  0  0  0  0  0  0  0
  131.6039  126.4882   58.0169 H   0  0  0  0  0  0  0  0  0  0  0  0
  133.4488  125.2058   56.9465 H   0  0  0  0  0  0  0  0  0  0  0  0
  134.7753  123.5643   58.2684 H   0  0  0  0  0  0  0  0  0  0  0  0
  134.2726  123.2234   60.6832 H   0  0  0  0  0  0  0  0  0  0  0  0
  130.8654  122.6564   60.2548 H   0  0  0  0  0  0  0  0  0  0  0  0
  131.1082  121.6041   61.7285 H   0  0  0  0  0  0  0  0  0  0  0  0
  129.3477  120.7661   60.1364 H   0  0  0  0  0  0  0  0  0  0  0  0
  128.7805  121.0791   61.8328 H   0  0  0  0  0  0  0  0  0  0  0  0
  128.3201  122.8466   59.3832 H   0  0  0  0  0  0  0  0  0  0  0  0
  127.0926  121.8931   60.2829 H   0  0  0  0  0  0  0  0  0  0  0  0
  127.1297  124.3406   60.9053 H   0  0  0  0  0  0  0  0  0  0  0  0
  127.4585  123.2179   62.2930 H   0  0  0  0  0  0  0  0  0  0  0  0
  129.4959  124.8626   60.7200 H   0  0  0  0  0  0  0  0  0  0  0  0
  128.9713  125.0643   62.4578 H   0  0  0  0  0  0  0  0  0  0  0  0
  127.6560  127.6800   69.4060 H   0  0  0  0  0  0  0  0  0  0  0  0
  128.1832  128.2147   63.2387 H   0  0  0  0  0  0  0  0  0  0  0  0
  127.4366  129.1964   61.9271 H   0  0  0  0  0  0  0  0  0  0  0  0
  130.3631  128.3065   62.1586 H   0  0  0  0  0  0  0  0  0  0  0  0
  129.1376  127.8137   60.9143 H   0  0  0  0  0  0  0  0  0  0  0  0
  1  2  1  0
  2  3  2  0
  3  4  1  0
  4  5  2  0
  5  6  1  0
  6  7  1  0
  7  8  1  0
  8  9  1  0
  9 10  1  0
 10 11  1  0
 11 12  2  0
 11 13  1  0
 13 14  1  0
 14 15  1  0
 15 16  2  0
 16 17  1  0
 17 18  1  0
 18 19  2  0
 19 20  1  0
 20 21  1  0
 21 22  1  0
 22 23  1  0
 22 24  2  0
 24 25  1  0
 25 26  1  0
 26 27  2  0
 27 28  1  0
 28 29  2  0
 29 30  1  0
 30 31  2  0
 25 32  1  0
 32 33  1  0
 33 34  1  0
 34 35  1  0
 35 36  1  0
 36 37  1  0
 37 38  1  0
 17 39  2  0
 39 40  1  0
 10 41  1  0
 41 42  1  0
  5 43  1  0
 43  2  1  0
 42  7  1  0
 40 15  1  0
 32 21  2  0
 38 33  1  0
 31 26  1  0
  1 44  1  0
  1 45  1  0
  1 46  1  0
  6 47  1  0
  6 48  1  0
  8 49  1  0
  8 50  1  0
  9 51  1  0
  9 52  1  0
 13 53  1  0
 13 54  1  0
 20 55  1  0
 20 56  1  0
 23 57  1  0
 23 58  1  0
 23 59  1  0
 27 60  1  0
 28 61  1  0
 29 62  1  0
 30 63  1  0
 31 64  1  0
 34 65  1  0
 34 66  1  0
 35 67  1  0
 35 68  1  0
 36 69  1  0
 36 70  1  0
 37 71  1  0
 37 72  1  0
 38 73  1  0
 38 74  1  0
 40 75  1  0
 41 76  1  0
 41 77  1  0
 42 78  1  0
 42 79  1  0
M  END
>  <Binding energies>  (1) 
[-9.11]

>  <Ligand effiencies>  (1) 
[-0.20704545454545453]

>  <Interactions>  (1) 
["V-A:ILE:369:CG2:3237, V-A:ASP:366:CA:3210, V-B:PRO:540:CA:9855, V-A:GLY:454:CA:4049, V-A:ILE:369:CB:3236, V-B:GLU:543:CB:9878, V-A:ILE:538:CB:4862, V-B:ALA:541:CB:9864, V-B:TYR:539:CE2:9848, V-A:TYR:484:CE2:4346, V-B:GLU:543:CG:9879, V-B:TYR:539:C:9839, V-A:ASP:366:CG:3213, V-A:ILE:538:CG2:4863, V-B:TYR:539:CZ:9849, V-A:ILE:538:CA:4860, V-A:GLU:543:CD:4908, V-A:TYR:484:CZ:4347, H-B:TYR:484:OH:9319, V-B:HIS:456:CE1:9041, V-B:PRO:540:N:9856, V-A:HIS:456:CE1:4070, V-A:ILE:369:CD1:3239, V-A:ASP:366:C:3208, H-B:HIS:456:NE2:9042, V-B:TYR:539:CD2:9846, V-A:GLU:543:CG:4907, V-A:ASP:366:CB:3212, V-A:ARG:545:CD:4923, H-A:ARG:545:NH2:4928, V-A:ARG:545:CZ:4926, V-A:GLU:543:CB:4906, V-B:PRO:540:C:9853, H-A:TYR:484:OH:4348"]

$$$$
ZINC253574910-again1
     RDKit          3D

 80 85  0  0  0  0  0  0  0  0999 V2000
  128.3600  127.9570   67.8200 C   0  0  0  0  0  0  0  0  0  0  0  0
  128.4380  128.0950   66.3190 C   0  0  0  0  0  0  0  0  0  0  0  0
  128.8070  127.1980   65.4400 N   0  0  0  0  0  0  0  0  0  0  0  0
  128.6980  127.8130   64.1960 N   0  0  0  0  0  0  0  0  0  0  0  0
  128.2750  129.0310   64.4340 C   0  0  0  0  0  0  0  0  0  0  0  0
  127.9920  130.1350   63.4370 C   0  0  0  0  0  0  0  0  0  0  0  0
  129.2660  130.4470   62.6140 N   0  0  0  0  0  0  0  0  0  0  0  0
  129.1870  131.8830   62.0440 C   0  0  0  0  0  0  0  0  0  0  0  0
  130.4600  132.2080   61.2280 C   0  0  0  0  0  0  0  0  0  0  0  0
  130.6000  131.1870   60.1710 N   0  0  0  0  0  0  0  0  0  0  0  0
  130.5560  131.5210   58.8520 C   0  0  0  0  0  0  0  0  0  0  0  0
  130.4260  132.6890   58.4790 O   0  0  0  0  0  0  0  0  0  0  0  0
  130.6640  130.4040   57.7910 C   0  0  0  0  0  0  0  0  0  0  0  0
  129.2720  129.2230   57.7260 S   0  0  0  0  0  0  0  0  0  0  0  0
  130.1920  127.7340   57.9150 C   0  0  0  0  0  0  0  0  0  0  0  0
  130.0920  126.7300   57.0690 N   0  0  0  0  0  0  0  0  0  0  0  0
  130.9610  125.8590   57.5800 N   0  0  0  0  0  0  0  0  0  0  0  0
  131.5330  126.3660   58.7100 C   0  0  0  0  0  0  0  0  0  0  0  0
  132.4490  125.6140   59.3780 N   0  0  0  0  0  0  0  0  0  0  0  0
  132.2770  124.3650   59.2580 N   0  0  0  0  0  0  0  0  0  0  0  0
  133.2510  123.5840   59.9860 C   0  0  0  0  0  0  0  0  0  0  0  0
  133.0850  123.9240   61.4550 C   0  0  0  0  0  0  0  0  0  0  0  0
  134.0650  124.4180   62.3340 C   0  0  0  0  0  0  0  0  0  0  0  0
  135.5230  124.7170   62.0650 C   0  0  0  0  0  0  0  0  0  0  0  0
  133.5850  124.6300   63.5360 N   0  0  0  0  0  0  0  0  0  0  0  0
  132.2900  124.2780   63.5020 N   0  0  0  0  0  0  0  0  0  0  0  0
  131.5130  124.3890   64.6890 C   0  0  0  0  0  0  0  0  0  0  0  0
  130.4350  123.5220   64.9170 C   0  0  0  0  0  0  0  0  0  0  0  0
  129.6780  123.6370   66.0790 C   0  0  0  0  0  0  0  0  0  0  0  0
  129.9970  124.6150   67.0180 C   0  0  0  0  0  0  0  0  0  0  0  0
  131.0700  125.4770   66.8080 C   0  0  0  0  0  0  0  0  0  0  0  0
  131.8290  125.3640   65.6470 C   0  0  0  0  0  0  0  0  0  0  0  0
  131.9290  123.8560   62.2330 C   0  0  0  0  0  0  0  0  0  0  0  0
  130.6560  123.4770   61.9260 N   0  0  0  0  0  0  0  0  0  0  0  0
  130.4040  122.2120   61.2200 C   0  0  0  0  0  0  0  0  0  0  0  0
  128.9730  121.6800   61.4410 C   0  0  0  0  0  0  0  0  0  0  0  0
  127.9090  122.7270   61.0850 C   0  0  0  0  0  0  0  0  0  0  0  0
  128.2130  124.0420   61.8120 C   0  0  0  0  0  0  0  0  0  0  0  0
  129.6670  124.5090   61.5880 C   0  0  0  0  0  0  0  0  0  0  0  0
  131.0460  127.5730   58.9170 N   0  0  0  0  0  0  0  0  0  0  0  0
  130.7470  129.8050   60.6680 C   0  0  0  0  0  0  0  0  0  0  0  0
  129.4680  129.4430   61.4540 C   0  0  0  0  0  0  0  0  0  0  0  0
  128.0890  129.2780   65.7550 O   0  0  0  0  0  0  0  0  0  0  0  0
  128.8485  128.8213   68.2936 H   0  0  0  0  0  0  0  0  0  0  0  0
  127.3054  127.9165   68.1302 H   0  0  0  0  0  0  0  0  0  0  0  0
  128.8692  127.0326   68.1302 H   0  0  0  0  0  0  0  0  0  0  0  0
  127.1889  129.8144   62.7571 H   0  0  0  0  0  0  0  0  0  0  0  0
  127.6830  131.0404   63.9799 H   0  0  0  0  0  0  0  0  0  0  0  0
  130.0700  130.3990   63.2240 H   0  0  0  0  0  0  0  0  0  0  0  0
  128.3061  131.9659   61.3904 H   0  0  0  0  0  0  0  0  0  0  0  0
  129.1057  132.5950   62.8785 H   0  0  0  0  0  0  0  0  0  0  0  0
  130.3669  133.2052   60.7732 H   0  0  0  0  0  0  0  0  0  0  0  0
  131.3440  132.2028   61.8826 H   0  0  0  0  0  0  0  0  0  0  0  0
  130.7445  130.8838   56.8044 H   0  0  0  0  0  0  0  0  0  0  0  0
  131.5443  129.8090   58.0758 H   0  0  0  0  0  0  0  0  0  0  0  0
  131.1460  124.9540   57.1720 H   0  0  0  0  0  0  0  0  0  0  0  0
  133.0717  122.5108   59.8242 H   0  0  0  0  0  0  0  0  0  0  0  0
  134.2713  123.8115   59.6436 H   0  0  0  0  0  0  0  0  0  0  0  0
  136.0572  124.8265   63.0203 H   0  0  0  0  0  0  0  0  0  0  0  0
  135.9666  123.8911   61.4895 H   0  0  0  0  0  0  0  0  0  0  0  0
  135.6057  125.6508   61.4895 H   0  0  0  0  0  0  0  0  0  0  0  0
  130.1869  122.7486   64.1752 H   0  0  0  0  0  0  0  0  0  0  0  0
  128.8307  122.9580   66.2553 H   0  0  0  0  0  0  0  0  0  0  0  0
  129.3954  124.7072   67.9343 H   0  0  0  0  0  0  0  0  0  0  0  0
  131.3168  126.2442   67.5567 H   0  0  0  0  0  0  0  0  0  0  0  0
  132.6795  126.0414   65.4799 H   0  0  0  0  0  0  0  0  0  0  0  0
  130.5564  122.3741   60.1427 H   0  0  0  0  0  0  0  0  0  0  0  0
  131.1020  121.4630   61.6222 H   0  0  0  0  0  0  0  0  0  0  0  0
  128.8228  120.7920   60.8094 H   0  0  0  0  0  0  0  0  0  0  0  0
  128.8632  121.4331   62.5073 H   0  0  0  0  0  0  0  0  0  0  0  0
  127.9156  122.9000   59.9987 H   0  0  0  0  0  0  0  0  0  0  0  0
  126.9194  122.3601   61.3951 H   0  0  0  0  0  0  0  0  0  0  0  0
  127.5298  124.8192   61.4390 H   0  0  0  0  0  0  0  0  0  0  0  0
  128.0751  123.8718   62.8900 H   0  0  0  0  0  0  0  0  0  0  0  0
  129.7898  124.7796   60.5289 H   0  0  0  0  0  0  0  0  0  0  0  0
  129.8446  125.3675   62.2524 H   0  0  0  0  0  0  0  0  0  0  0  0
  130.8726  129.1148   59.8207 H   0  0  0  0  0  0  0  0  0  0  0  0
  131.6310  129.7241   61.3176 H   0  0  0  0  0  0  0  0  0  0  0  0
  128.6003  129.4847   60.7793 H   0  0  0  0  0  0  0  0  0  0  0  0
  129.5685  128.4276   61.8649 H   0  0  0  0  0  0  0  0  0  0  0  0
  1  2  1  0
  2  3  2  0
  3  4  1  0
  4  5  2  0
  5  6  1  0
  6  7  1  0
  7  8  1  0
  8  9  1  0
  9 10  1  0
 10 11  1  0
 11 12  2  0
 11 13  1  0
 13 14  1  0
 14 15  1  0
 15 16  2  0
 16 17  1  0
 17 18  1  0
 18 19  1  0
 19 20  2  0
 20 21  1  0
 21 22  1  0
 22 23  1  0
 23 24  1  0
 23 25  2  0
 25 26  1  0
 26 27  1  0
 27 28  2  0
 28 29  1  0
 29 30  2  0
 30 31  1  0
 31 32  2  0
 26 33  1  0
 33 34  1  0
 34 35  1  0
 35 36  1  0
 36 37  1  0
 37 38  1  0
 38 39  1  0
 18 40  2  0
 10 41  1  0
 41 42  1  0
  5 43  1  0
 43  2  1  0
 42  7  1  0
 40 15  1  0
 33 22  2  0
 39 34  1  0
 32 27  1  0
  1 44  1  0
  1 45  1  0
  1 46  1  0
  6 47  1  0
  6 48  1  0
  7 49  1  0
  8 50  1  0
  8 51  1  0
  9 52  1  0
  9 53  1  0
 13 54  1  0
 13 55  1  0
 17 56  1  0
 21 57  1  0
 21 58  1  0
 24 59  1  0
 24 60  1  0
 24 61  1  0
 28 62  1  0
 29 63  1  0
 30 64  1  0
 31 65  1  0
 32 66  1  0
 35 67  1  0
 35 68  1  0
 36 69  1  0
 36 70  1  0
 37 71  1  0
 37 72  1  0
 38 73  1  0
 38 74  1  0
 39 75  1  0
 39 76  1  0
 41 77  1  0
 41 78  1  0
 42 79  1  0
 42 80  1  0
M  CHG  1   7   1
M  END
>  <Binding energies>  (1) 
[-9.08]

>  <Ligand effiencies>  (1) 
[-0.20177777777777778]

>  <Interactions>  (1) 
["V-A:ILE:369:CG2:3237, V-B:PRO:540:CA:9855, V-A:PRO:540:C:4881, V-B:GLU:543:CB:9878, V-B:ALA:541:CB:9864, H-A:TYR:531:OH:4795, V-B:TYR:539:CE2:9848, V-A:TYR:484:CE2:4346, V-B:GLU:543:CG:9879, V-A:ASP:366:CG:3213, V-B:TYR:539:CZ:9849, H-B:TYR:539:OH:9850, V-A:GLU:543:CD:4908, V-A:TYR:484:CZ:4347, H-B:TYR:484:OH:9319, V-B:HIS:456:CE1:9041, H-A:GLY:454:N:4050, V-B:GLU:543:CA:9876, V-A:GLY:453:C:4042, V-A:ILE:369:CD1:3239, V-A:HIS:456:CE1:4070, V-B:TYR:539:CD2:9846, V-A:GLU:543:CG:4907, V-B:GLU:543:CD:9880, V-A:ASP:366:CB:3212, H-A:ARG:545:NH2:4928, V-A:ARG:545:CZ:4926, H-A:GLU:543:OE1:4909, V-A:GLU:543:CB:4906, V-A:PRO:540:CB:4885, V-A:PRO:540:CA:4883, V-A:GLY:453:CA:4044, V-B:PRO:540:C:9853"]

$$$$
ZINC253598603-again1
     RDKit          3D

 55 58  0  0  0  0  0  0  0  0999 V2000
  131.3890  128.0920   69.5320 C   0  0  0  0  0  0  0  0  0  0  0  0
  129.9730  127.6120   69.7700 C   0  0  0  0  0  0  0  0  0  0  0  0
  129.4670  127.2990   71.0410 C   0  0  0  0  0  0  0  0  0  0  0  0
  128.1400  126.9170   71.0380 C   0  0  0  0  0  0  0  0  0  0  0  0
  127.4730  126.9730   69.4500 S   0  0  0  0  0  0  0  0  0  0  0  0
  128.9830  127.5340   68.7780 C   0  0  0  0  0  0  0  0  0  0  0  0
  129.1010  127.8170   67.2930 C   0  0  0  0  0  0  0  0  0  0  0  0
  128.9570  126.4930   66.5190 N   0  0  2  0  0  0  0  0  0  0  0  0
  129.8590  125.3190   66.9190 C   0  0  0  0  0  0  0  0  0  0  0  0
  130.2430  125.1070   65.4470 C   0  0  1  0  0  0  0  0  0  0  0  0
  131.7650  125.0500   65.1680 C   0  0  0  0  0  0  0  0  0  0  0  0
  132.0460  124.8130   63.6670 C   0  0  1  0  0  0  0  0  0  0  0  0
  133.5530  124.7060   63.3280 C   0  0  0  0  0  0  0  0  0  0  0  0
  133.9780  123.3870   62.6560 C   0  0  0  0  0  0  0  0  0  0  0  0
  134.3580  123.6450   61.3110 O   0  0  0  0  0  0  0  0  0  0  0  0
  133.4630  123.1120   60.3420 C   0  0  0  0  0  0  0  0  0  0  0  0
  132.8780  124.2170   59.4710 C   0  0  0  0  0  0  0  0  0  0  0  0
  131.6950  124.8960   59.7990 C   0  0  0  0  0  0  0  0  0  0  0  0
  131.2410  125.9010   58.9420 C   0  0  0  0  0  0  0  0  0  0  0  0
  131.9670  126.2040   57.7890 C   0  0  0  0  0  0  0  0  0  0  0  0
  133.1360  125.4850   57.5310 C   0  0  0  0  0  0  0  0  0  0  0  0
  133.5950  124.5050   58.3510 N   0  0  0  0  0  0  0  0  0  0  0  0
  131.2700  123.5570   63.2240 C   0  0  0  0  0  0  0  0  0  0  0  0
  129.7670  123.7140   63.5220 C   0  0  0  0  0  0  0  0  0  0  0  0
  129.5530  123.9690   64.9140 O   0  0  0  0  0  0  0  0  0  0  0  0
  129.5390  126.4330   65.1040 C   0  0  0  0  0  0  0  0  0  0  0  0
  131.8863  128.2606   70.4986 H   0  0  0  0  0  0  0  0  0  0  0  0
  131.9431  127.3315   68.9623 H   0  0  0  0  0  0  0  0  0  0  0  0
  131.3664  129.0327   68.9623 H   0  0  0  0  0  0  0  0  0  0  0  0
  130.0731  127.3531   71.9574 H   0  0  0  0  0  0  0  0  0  0  0  0
  127.5798  126.6153   71.9353 H   0  0  0  0  0  0  0  0  0  0  0  0
  128.3063  128.5126   66.9855 H   0  0  0  0  0  0  0  0  0  0  0  0
  130.0798  128.2701   67.0769 H   0  0  0  0  0  0  0  0  0  0  0  0
  127.9860  126.2110   66.5170 H   0  0  0  0  0  0  0  0  0  0  0  0
  130.7023  125.6016   67.5662 H   0  0  0  0  0  0  0  0  0  0  0  0
  129.4554  124.4859   67.5132 H   0  0  0  0  0  0  0  0  0  0  0  0
  132.2223  126.0027   65.4732 H   0  0  0  0  0  0  0  0  0  0  0  0
  132.1945  124.2146   65.7404 H   0  0  0  0  0  0  0  0  0  0  0  0
  131.6988  125.6936   63.1066 H   0  0  0  0  0  0  0  0  0  0  0  0
  133.8094  125.5327   62.6491 H   0  0  0  0  0  0  0  0  0  0  0  0
  134.0874  124.7472   64.2886 H   0  0  0  0  0  0  0  0  0  0  0  0
  134.8296  122.9546   63.2017 H   0  0  0  0  0  0  0  0  0  0  0  0
  133.1367  122.6784   62.6713 H   0  0  0  0  0  0  0  0  0  0  0  0
  134.0069  122.4006   59.7031 H   0  0  0  0  0  0  0  0  0  0  0  0
  132.6388  122.6071   60.8672 H   0  0  0  0  0  0  0  0  0  0  0  0
  131.1366  124.6421   60.7121 H   0  0  0  0  0  0  0  0  0  0  0  0
  130.3168  126.4505   59.1743 H   0  0  0  0  0  0  0  0  0  0  0  0
  131.6263  126.9907   57.0998 H   0  0  0  0  0  0  0  0  0  0  0  0
  133.7102  125.7231   56.6235 H   0  0  0  0  0  0  0  0  0  0  0  0
  131.4104  123.4080   62.1432 H   0  0  0  0  0  0  0  0  0  0  0  0
  131.6528  122.6892   63.7812 H   0  0  0  0  0  0  0  0  0  0  0  0
  129.3680  124.5544   62.9351 H   0  0  0  0  0  0  0  0  0  0  0  0
  129.2522  122.7809   63.2493 H   0  0  0  0  0  0  0  0  0  0  0  0
  130.2269  127.2579   64.8664 H   0  0  0  0  0  0  0  0  0  0  0  0
  128.8777  126.5008   64.2276 H   0  0  0  0  0  0  0  0  0  0  0  0
  1  2  1  0
  2  3  1  0
  3  4  2  0
  4  5  1  0
  5  6  1  0
  6  7  1  0
  7  8  1  0
  8  9  1  0
  9 10  1  0
 10 11  1  0
 11 12  1  0
 12 13  1  0
 13 14  1  0
 14 15  1  0
 15 16  1  0
 16 17  1  0
 17 18  2  0
 18 19  1  0
 19 20  2  0
 20 21  1  0
 21 22  2  0
 12 23  1  0
 23 24  1  0
 24 25  1  0
 10 26  1  0
  6  2  2  0
 26  8  1  0
 10 25  1  1
 22 17  1  0
  1 27  1  0
  1 28  1  0
  1 29  1  0
  3 30  1  0
  4 31  1  0
  7 32  1  0
  7 33  1  0
  8 34  1  1
  9 35  1  0
  9 36  1  0
 11 37  1  0
 11 38  1  0
 12 39  1  6
 13 40  1  0
 13 41  1  0
 14 42  1  0
 14 43  1  0
 16 44  1  0
 16 45  1  0
 18 46  1  0
 19 47  1  0
 20 48  1  0
 21 49  1  0
 23 50  1  0
 23 51  1  0
 24 52  1  0
 24 53  1  0
 26 54  1  0
 26 55  1  0
M  CHG  1   8   1
M  END
>  <Binding energies>  (1) 
[-7.8]

>  <Ligand effiencies>  (1) 
[-0.28888888888888886]

>  <Interactions>  (1) 
["V-A:ILE:369:CG2:3237, V-A:ASP:366:CA:3210, V-A:ARG:545:CA:4919, V-A:GLU:543:CA:4904, V-A:GLY:454:CA:4049, V-B:GLU:543:C:9874, V-A:GLU:543:C:4902, V-B:GLU:543:CB:9878, V-B:TYR:539:CE2:9848, V-B:GLU:543:CG:9879, V-A:GLY:544:C:4912, V-B:TYR:539:CZ:9849, H-B:GLU:543:OE1:9881, H-B:TYR:539:OH:9850, V-A:GLU:543:CD:4908, V-B:HIS:456:CE1:9041, V-A:ARG:545:CG:4922, V-B:GLU:543:CA:9876, V-A:HIS:456:CE1:4070, V-A:ILE:369:CD1:3239, V-A:ASP:366:C:3208, V-A:GLU:543:CG:4907, V-A:TYR:531:CZ:4794, V-B:GLU:543:CD:9880, V-A:ASP:366:CB:3212, V-A:ARG:545:CZ:4926, V-A:GLU:543:CB:4906, H-B:GLU:543:OE2:9882"]

$$$$
ZINC253612543
     RDKit          3D

 68 71  0  0  0  0  0  0  0  0999 V2000
  131.8450  131.6890   56.4950 C   0  0  0  0  0  0  0  0  0  0  0  0
  130.9500  132.4210   57.4850 C   0  0  0  0  0  0  0  0  0  0  0  0
  130.2180  133.3450   57.1270 O   0  0  0  0  0  0  0  0  0  0  0  0
  131.0720  131.9350   58.7400 O   0  0  0  0  0  0  0  0  0  0  0  0
  129.9360  131.7340   59.5810 C   0  0  2  0  0  0  0  0  0  0  0  0
  130.4350  131.3270   60.9890 C   0  0  0  0  0  0  0  0  0  0  0  0
  130.9680  129.8790   61.0130 C   0  0  0  0  0  0  0  0  0  0  0  0
  129.9030  128.8280   60.5660 C   0  0  1  0  0  0  0  0  0  0  0  0
  128.6850  128.8550   61.5410 C   0  0  0  0  0  0  0  0  0  0  0  0
  129.4320  129.1950   59.1040 C   0  0  2  0  0  0  0  0  0  0  0  0
  130.4840  128.8540   58.0050 C   0  0  0  0  0  0  0  0  0  0  0  0
  131.0280  127.4130   58.0850 C   0  0  0  0  0  0  0  0  0  0  0  0
  131.6160  127.1450   59.4870 C   0  0  1  0  0  0  0  0  0  0  0  0
  130.4760  127.3580   60.5360 C   0  0  1  0  0  0  0  0  0  0  0  0
  130.6400  126.6140   61.9000 C   0  0  0  0  0  0  0  0  0  0  0  0
  131.5160  125.3210   61.9330 C   0  0  2  0  0  0  0  0  0  0  0  0
  132.7480  125.5050   62.6440 O   0  0  0  0  0  0  0  0  0  0  0  0
  132.9180  125.0590   63.9090 C   0  0  0  0  0  0  0  0  0  0  0  0
  131.6010  124.9570   64.6660 C   0  0  0  0  0  0  0  0  0  0  0  0
  133.9880  124.7570   64.4400 O   0  0  0  0  0  0  0  0  0  0  0  0
  131.8170  124.7160   60.5250 C   0  0  2  0  0  0  0  0  0  0  0  0
  130.5140  124.1000   59.9060 C   0  0  0  0  0  0  0  0  0  0  0  0
  132.9920  123.6800   60.4500 C   0  0  1  0  0  0  0  0  0  0  0  0
  132.6430  122.2620   60.9610 C   0  0  0  0  0  0  0  0  0  0  0  0
  133.5670  121.6580   62.0120 C   0  0  0  0  0  0  0  0  0  0  0  0
  131.6920  121.6150   60.5240 O   0  0  0  0  0  0  0  0  0  0  0  0
  133.4690  123.7260   58.9720 C   0  0  0  0  0  0  0  0  0  0  0  0
  133.0260  125.1010   58.4320 C   0  0  0  0  0  0  0  0  0  0  0  0
  132.4400  125.8290   59.6540 C   0  0  1  0  0  0  0  0  0  0  0  0
  128.9530  130.6750   59.0010 C   0  0  0  0  0  0  0  0  0  0  0  0
  132.5827  131.0856   57.0443 H   0  0  0  0  0  0  0  0  0  0  0  0
  131.2309  131.0310   55.8626 H   0  0  0  0  0  0  0  0  0  0  0  0
  132.3681  132.4214   55.8626 H   0  0  0  0  0  0  0  0  0  0  0  0
  129.3664  132.6730   59.6421 H   0  0  0  0  0  0  0  0  0  0  0  0
  131.2437  132.0089   61.2908 H   0  0  0  0  0  0  0  0  0  0  0  0
  129.5845  131.3893   61.6838 H   0  0  0  0  0  0  0  0  0  0  0  0
  131.8318  129.8124   60.3352 H   0  0  0  0  0  0  0  0  0  0  0  0
  131.2422  129.6471   62.0527 H   0  0  0  0  0  0  0  0  0  0  0  0
  129.0466  128.8470   62.5798 H   0  0  0  0  0  0  0  0  0  0  0  0
  128.0948  129.7664   61.3653 H   0  0  0  0  0  0  0  0  0  0  0  0
  128.0550  127.9706   61.3653 H   0  0  0  0  0  0  0  0  0  0  0  0
  128.5662  128.5471   58.9027 H   0  0  0  0  0  0  0  0  0  0  0  0
  130.0133  128.9922   57.0204 H   0  0  0  0  0  0  0  0  0  0  0  0
  131.3396  129.5271   58.1628 H   0  0  0  0  0  0  0  0  0  0  0  0
  130.2095  126.7039   57.8921 H   0  0  0  0  0  0  0  0  0  0  0  0
  131.8196  127.2847   57.3321 H   0  0  0  0  0  0  0  0  0  0  0  0
  132.4166  127.8777   59.6663 H   0  0  0  0  0  0  0  0  0  0  0  0
  129.6274  126.7828   60.1373 H   0  0  0  0  0  0  0  0  0  0  0  0
  131.0842  127.3275   62.6097 H   0  0  0  0  0  0  0  0  0  0  0  0
  129.6262  126.2636   62.1438 H   0  0  0  0  0  0  0  0  0  0  0  0
  130.8910  124.5971   62.4765 H   0  0  0  0  0  0  0  0  0  0  0  0
  131.7979  124.9723   65.7481 H   0  0  0  0  0  0  0  0  0  0  0  0
  130.9574  125.8080   64.3984 H   0  0  0  0  0  0  0  0  0  0  0  0
  131.0961  124.0171   64.3984 H   0  0  0  0  0  0  0  0  0  0  0  0
  129.8394  123.7811   60.7142 H   0  0  0  0  0  0  0  0  0  0  0  0
  130.0105  124.8554   59.2848 H   0  0  0  0  0  0  0  0  0  0  0  0
  130.7783  123.2315   59.2848 H   0  0  0  0  0  0  0  0  0  0  0  0
  133.8004  123.9540   61.1438 H   0  0  0  0  0  0  0  0  0  0  0  0
  133.1907  121.9040   63.0159 H   0  0  0  0  0  0  0  0  0  0  0  0
  133.5971  120.5653   61.8893 H   0  0  0  0  0  0  0  0  0  0  0  0
  134.5800  122.0688   61.8893 H   0  0  0  0  0  0  0  0  0  0  0  0
  134.5633  123.6278   58.9191 H   0  0  0  0  0  0  0  0  0  0  0  0
  133.0417  122.9017   58.3821 H   0  0  0  0  0  0  0  0  0  0  0  0
  133.8860  125.6541   58.0264 H   0  0  0  0  0  0  0  0  0  0  0  0
  132.2984  125.0117   57.6118 H   0  0  0  0  0  0  0  0  0  0  0  0
  133.2637  126.3548   60.1591 H   0  0  0  0  0  0  0  0  0  0  0  0
  128.7920  130.9070   57.9379 H   0  0  0  0  0  0  0  0  0  0  0  0
  128.0393  130.7422   59.6098 H   0  0  0  0  0  0  0  0  0  0  0  0
  1  2  1  0
  2  3  2  0
  2  4  1  0
  4  5  1  0
  5  6  1  0
  6  7  1  0
  7  8  1  0
  8  9  1  1
  8 10  1  0
 10 11  1  0
 11 12  1  0
 12 13  1  0
 13 14  1  0
 14 15  1  0
 15 16  1  0
 16 17  1  0
 17 18  1  0
 18 19  1  0
 18 20  2  0
 16 21  1  0
 21 22  1  6
 21 23  1  0
 23 24  1  0
 24 25  1  0
 24 26  2  0
 23 27  1  0
 27 28  1  0
 28 29  1  0
 10 30  1  0
 30  5  1  0
 14  8  1  0
 29 21  1  0
 29 13  1  0
  1 31  1  0
  1 32  1  0
  1 33  1  0
  5 34  1  1
  6 35  1  0
  6 36  1  0
  7 37  1  0
  7 38  1  0
  9 39  1  0
  9 40  1  0
  9 41  1  0
 10 42  1  6
 11 43  1  0
 11 44  1  0
 12 45  1  0
 12 46  1  0
 13 47  1  1
 14 48  1  6
 15 49  1  0
 15 50  1  0
 16 51  1  1
 19 52  1  0
 19 53  1  0
 19 54  1  0
 22 55  1  0
 22 56  1  0
 22 57  1  0
 23 58  1  1
 25 59  1  0
 25 60  1  0
 25 61  1  0
 27 62  1  0
 27 63  1  0
 28 64  1  0
 28 65  1  0
 29 66  1  1
 30 67  1  0
 30 68  1  0
M  END
>  <Binding energies>  (1) 
[-7.82]

>  <Ligand effiencies>  (1) 
[-0.26066666666666666]

>  <Interactions>  (1) 
["V-A:ILE:369:CG2:3237, V-A:ASP:366:CA:3210, V-A:GLY:454:CA:4049, V-A:ILE:369:CB:3236, H-A:ARG:545:NH1:4927, V-B:TYR:539:CE2:9848, V-A:ASP:366:CG:3213, V-A:LEU:363:CD1:3189, V-B:TYR:539:CZ:9849, V-A:TYR:531:CE2:4793, H-A:GLY:454:N:4050, V-A:ASP:366:C:3208, V-A:ASP:366:CB:3212, V-A:LEU:475:CD2:4259, H-A:ARG:545:NH2:4928, V-A:ARG:545:CZ:4926, V-A:PRO:540:N:4884, H-A:TYR:539:N:4870, V-A:PRO:540:CB:4885, V-A:PRO:540:CA:4883, H-A:ARG:545:NE:4924, H-A:TYR:484:OH:4348"]

$$$$
ZINC253635649
     RDKit          3D

 70 74  0  0  0  0  0  0  0  0999 V2000
  132.3630  124.2430   63.6860 C   0  0  0  0  0  0  0  0  0  0  0  0
  131.2860  125.2750   63.3820 C   0  0  0  0  0  0  0  0  0  0  0  0
  131.3660  126.4300   63.8010 O   0  0  0  0  0  0  0  0  0  0  0  0
  130.2820  124.7630   62.6280 O   0  0  0  0  0  0  0  0  0  0  0  0
  129.2420  125.5820   62.0810 C   0  0  0  0  0  0  0  0  0  0  0  0
  129.6930  126.3820   60.8340 C   0  0  0  0  0  0  0  0  0  0  0  0
  130.1660  127.5110   60.9730 O   0  0  0  0  0  0  0  0  0  0  0  0
  129.5240  125.7400   59.4010 C   0  0  2  0  0  0  0  0  0  0  0  0
  128.3760  124.8490   59.4380 O   0  0  0  0  0  0  0  0  0  0  0  0
  128.3620  123.4850   59.2790 C   0  0  0  0  0  0  0  0  0  0  0  0
  129.0020  122.6720   59.9450 O   0  0  0  0  0  0  0  0  0  0  0  0
  127.4350  123.0940   58.2220 C   0  0  0  0  0  0  0  0  0  0  0  0
  126.1670  123.6400   57.9760 C   0  0  0  0  0  0  0  0  0  0  0  0
  125.6360  122.9760   56.8820 C   0  0  0  0  0  0  0  0  0  0  0  0
  126.5140  122.0440   56.4350 O   0  0  0  0  0  0  0  0  0  0  0  0
  127.6010  122.1150   57.2450 C   0  0  0  0  0  0  0  0  0  0  0  0
  130.8320  125.0550   58.8600 C   0  0  2  0  0  0  0  0  0  0  0  0
  131.7010  124.1710   59.7900 C   0  0  0  0  0  0  0  0  0  0  0  0
  131.6420  126.1980   58.2160 C   0  0  0  0  0  0  0  0  0  0  0  0
  130.6730  127.3720   57.9170 C   0  0  2  0  0  0  0  0  0  0  0  0
  131.1360  128.7310   58.5340 C   0  0  1  0  0  0  0  0  0  0  0  0
  132.4790  129.2250   57.9070 C   0  0  0  0  0  0  0  0  0  0  0  0
  132.7450  130.7380   58.0320 C   0  0  0  0  0  0  0  0  0  0  0  0
  132.2160  131.1690   59.3850 C   0  0  0  0  0  0  0  0  0  0  0  0
  133.0480  131.4760   60.4090 C   0  0  0  0  0  0  0  0  0  0  0  0
  132.6170  131.7480   61.7790 C   0  0  0  0  0  0  0  0  0  0  0  0
  133.3720  132.1510   62.6620 O   0  0  0  0  0  0  0  0  0  0  0  0
  131.2110  131.4320   62.0050 C   0  0  0  0  0  0  0  0  0  0  0  0
  130.3410  131.1400   61.0150 C   0  0  0  0  0  0  0  0  0  0  0  0
  130.6620  131.1360   59.5020 C   0  0  1  0  0  0  0  0  0  0  0  0
  130.1420  132.5070   58.9820 C   0  0  0  0  0  0  0  0  0  0  0  0
  130.0630  129.8650   58.6970 C   0  0  1  0  0  0  0  0  0  0  0  0
  129.6160  130.3270   57.0080 Cl  0  0  0  0  0  0  0  0  0  0  0  0
  128.7830  129.2440   59.3520 C   0  0  1  0  0  0  0  0  0  0  0  0
  127.4310  130.4170   59.4500 Cl  0  0  0  0  0  0  0  0  0  0  0  0
  128.2320  127.9700   58.6740 C   0  0  0  0  0  0  0  0  0  0  0  0
  129.2460  126.8420   58.2850 C   0  0  2  0  0  0  0  0  0  0  0  0
  128.6500  126.1760   56.9950 C   0  0  0  0  0  0  0  0  0  0  0  0
  132.4729  124.1377   64.7754 H   0  0  0  0  0  0  0  0  0  0  0  0
  132.0758  123.2743   63.2511 H   0  0  0  0  0  0  0  0  0  0  0  0
  133.3186  124.5713   63.2511 H   0  0  0  0  0  0  0  0  0  0  0  0
  128.3996  124.9346   61.7961 H   0  0  0  0  0  0  0  0  0  0  0  0
  128.9572  126.3111   62.8538 H   0  0  0  0  0  0  0  0  0  0  0  0
  125.6832  124.4466   58.5463 H   0  0  0  0  0  0  0  0  0  0  0  0
  124.6481  123.1753   56.4411 H   0  0  0  0  0  0  0  0  0  0  0  0
  128.4953  121.4826   57.1433 H   0  0  0  0  0  0  0  0  0  0  0  0
  130.4999  124.2631   58.1726 H   0  0  0  0  0  0  0  0  0  0  0  0
  131.4703  124.4057   60.8396 H   0  0  0  0  0  0  0  0  0  0  0  0
  131.4843  123.1103   59.5953 H   0  0  0  0  0  0  0  0  0  0  0  0
  132.7653  124.3695   59.5953 H   0  0  0  0  0  0  0  0  0  0  0  0
  132.4290  126.5321   58.9080 H   0  0  0  0  0  0  0  0  0  0  0  0
  132.1152  125.8503   57.2858 H   0  0  0  0  0  0  0  0  0  0  0  0
  130.6605  127.6628   56.8562 H   0  0  0  0  0  0  0  0  0  0  0  0
  131.3190  128.4738   59.5877 H   0  0  0  0  0  0  0  0  0  0  0  0
  133.3029  128.6925   58.4046 H   0  0  0  0  0  0  0  0  0  0  0  0
  132.4076  129.0159   56.8294 H   0  0  0  0  0  0  0  0  0  0  0  0
  133.8246  130.9387   57.9668 H   0  0  0  0  0  0  0  0  0  0  0  0
  132.2497  131.2926   57.2214 H   0  0  0  0  0  0  0  0  0  0  0  0
  134.1257  131.5241   60.1940 H   0  0  0  0  0  0  0  0  0  0  0  0
  130.8388  131.4316   63.0401 H   0  0  0  0  0  0  0  0  0  0  0  0
  129.3132  130.8822   61.3103 H   0  0  0  0  0  0  0  0  0  0  0  0
  129.8965  133.1542   59.8369 H   0  0  0  0  0  0  0  0  0  0  0  0
  130.9207  132.9866   58.3707 H   0  0  0  0  0  0  0  0  0  0  0  0
  129.2411  132.3496   58.3707 H   0  0  0  0  0  0  0  0  0  0  0  0
  129.1484  128.9626   60.3506 H   0  0  0  0  0  0  0  0  0  0  0  0
  127.4979  127.5256   59.3622 H   0  0  0  0  0  0  0  0  0  0  0  0
  127.8346  128.3235   57.7111 H   0  0  0  0  0  0  0  0  0  0  0  0
  127.9423  125.3851   57.2842 H   0  0  0  0  0  0  0  0  0  0  0  0
  128.1257  126.9370   56.3983 H   0  0  0  0  0  0  0  0  0  0  0  0
  129.4643  125.7391   56.3983 H   0  0  0  0  0  0  0  0  0  0  0  0
  1  2  1  0
  2  3  2  0
  2  4  1  0
  4  5  1  0
  5  6  1  0
  6  7  2  0
  6  8  1  0
  8  9  1  1
  9 10  1  0
 10 11  2  0
 10 12  1  0
 12 13  1  0
 13 14  2  0
 14 15  1  0
 15 16  1  0
  8 17  1  0
 17 18  1  0
 17 19  1  0
 19 20  1  0
 20 21  1  0
 21 22  1  0
 22 23  1  0
 23 24  1  0
 24 25  2  0
 25 26  1  0
 26 27  2  0
 26 28  1  0
 28 29  2  0
 29 30  1  0
 30 31  1  6
 30 32  1  0
 32 33  1  6
 32 34  1  0
 34 35  1  0
 34 36  1  0
 36 37  1  0
 37 38  1  6
 37  8  1  0
 16 12  2  0
 37 20  1  0
 32 21  1  0
 30 24  1  0
  1 39  1  0
  1 40  1  0
  1 41  1  0
  5 42  1  0
  5 43  1  0
 13 44  1  0
 14 45  1  0
 16 46  1  0
 17 47  1  6
 18 48  1  0
 18 49  1  0
 18 50  1  0
 19 51  1  0
 19 52  1  0
 20 53  1  6
 21 54  1  1
 22 55  1  0
 22 56  1  0
 23 57  1  0
 23 58  1  0
 25 59  1  0
 28 60  1  0
 29 61  1  0
 31 62  1  0
 31 63  1  0
 31 64  1  0
 34 65  1  1
 36 66  1  0
 36 67  1  0
 38 68  1  0
 38 69  1  0
 38 70  1  0
M  END
>  <Binding energies>  (1) 
[-8.52]

>  <Ligand effiencies>  (1) 
[-0.22421052631578947]

>  <Interactions>  (1) 
["V-B:TYR:539:CA:9841, V-B:PRO:540:CA:9855, H-A:ALA:541:N:4891, V-B:TYR:539:CE2:9848, H-B:TYR:539:N:9842, V-B:TYR:539:C:9839, V-A:ASP:366:CG:3213, V-A:LEU:363:CD1:3189, V-B:TYR:539:CZ:9849, V-A:TYR:531:CE2:4793, V-A:GLU:543:CD:4908, V-B:PRO:540:CB:9857, V-B:PRO:540:N:9856, V-B:PRO:540:CD:9859, V-A:TYR:531:CZ:4794, V-B:TYR:539:CD2:9846, V-A:MET:535:CE:4835, V-A:TYR:539:C:4867, V-A:ASP:366:CB:3212, H-A:ARG:545:NH2:4928, V-B:TYR:539:CG:9844, V-B:TYR:539:CD1:9845, V-A:PRO:540:N:4884, H-A:ASN:362:ND2:3179, V-B:LEU:363:CD1:8160, V-A:PRO:540:CB:4885, V-A:PRO:540:CA:4883, V-A:LEU:363:CA:3185, V-B:MET:535:CE:9807, V-B:TYR:539:CE1:9847"]

$$$$
ZINC253636099
     RDKit          3D

101105  0  0  0  0  0  0  0  0999 V2000
  130.1950  127.5300   69.1830 C   0  0  0  0  0  0  0  0  0  0  0  0
  129.8860  126.5570   68.0350 C   0  0  0  0  0  0  0  0  0  0  0  0
  128.7760  127.0340   67.0780 C   0  0  0  0  0  0  0  0  0  0  0  0
  128.1360  128.3800   67.4700 C   0  0  0  0  0  0  0  0  0  0  0  0
  127.8720  129.2940   66.2600 C   0  0  0  0  0  0  0  0  0  0  0  0
  128.1890  128.6180   64.9150 C   0  0  0  0  0  0  0  0  0  0  0  0
  127.7880  129.4750   63.7020 C   0  0  0  0  0  0  0  0  0  0  0  0
  128.5650  130.7970   63.6300 C   0  0  0  0  0  0  0  0  0  0  0  0
  129.0950  130.9660   62.3230 O   0  0  0  0  0  0  0  0  0  0  0  0
  130.1310  131.7980   62.1060 C   0  0  0  0  0  0  0  0  0  0  0  0
  131.1450  131.9000   62.8030 O   0  0  0  0  0  0  0  0  0  0  0  0
  129.8540  132.5090   60.9920 O   0  0  0  0  0  0  0  0  0  0  0  0
  130.3710  132.1470   59.7040 C   0  0  1  0  0  0  0  0  0  0  0  0
  131.2970  130.9060   59.7680 C   0  0  1  0  0  0  0  0  0  0  0  0
  132.4190  131.1180   60.6060 O   0  0  0  0  0  0  0  0  0  0  0  0
  130.4790  129.6610   60.1570 C   0  0  2  0  0  0  0  0  0  0  0  0
  131.3480  128.5720   60.1240 O   0  0  0  0  0  0  0  0  0  0  0  0
  130.8090  127.3690   59.5810 C   0  0  0  0  0  0  0  0  0  0  0  0
  130.1400  126.4260   60.6630 C   0  0  1  0  0  0  0  0  0  0  0  0
  130.9950  126.5870   61.9880 C   0  0  0  0  0  0  0  0  0  0  0  0
  130.5290  125.7360   63.1850 C   0  0  2  0  0  0  0  0  0  0  0  0
  131.3700  125.4770   64.4420 C   0  0  2  0  0  0  0  0  0  0  0  0
  132.8260  125.0630   64.1590 C   0  0  0  0  0  0  0  0  0  0  0  0
  130.5480  124.3720   65.1620 C   0  0  0  0  0  0  0  0  0  0  0  0
  129.4860  123.8410   64.1640 C   0  0  0  0  0  0  0  0  0  0  0  0
  129.9350  124.3800   62.7970 C   0  0  1  0  0  0  0  0  0  0  0  0
  128.9650  124.5080   61.5700 C   0  0  1  0  0  0  0  0  0  0  0  0
  128.1960  123.1650   61.3890 C   0  0  0  0  0  0  0  0  0  0  0  0
  127.1520  122.8920   61.9820 O   0  0  0  0  0  0  0  0  0  0  0  0
  127.9840  125.7190   61.7520 C   0  0  0  0  0  0  0  0  0  0  0  0
  128.6270  126.7590   60.8070 C   0  0  2  0  0  0  0  0  0  0  0  0
  128.1300  126.3150   59.4450 C   0  0  0  0  0  0  0  0  0  0  0  0
  128.8200  125.2060   59.0940 C   0  0  0  0  0  0  0  0  0  0  0  0
  128.6520  124.3450   57.8380 C   0  0  0  0  0  0  0  0  0  0  0  0
  128.4430  125.1980   56.5710 C   0  0  0  0  0  0  0  0  0  0  0  0
  127.5250  123.3010   57.9640 C   0  0  0  0  0  0  0  0  0  0  0  0
  129.8300  124.9240   60.2620 C   0  0  1  0  0  0  0  0  0  0  0  0
  131.0430  123.9800   59.8860 C   0  0  0  0  0  0  0  0  0  0  0  0
  131.1560  122.8590   60.4260 O   0  0  0  0  0  0  0  0  0  0  0  0
  131.8660  124.3820   59.0320 O   0  0  0  0  0  0  0  0  0  0  0  0
  129.4520  129.4760   59.2100 O   0  0  0  0  0  0  0  0  0  0  0  0
  128.4870  130.5330   59.1810 C   0  0  2  0  0  0  0  0  0  0  0  0
  127.3670  130.1190   58.2130 C   0  0  0  0  0  0  0  0  0  0  0  0
  129.1780  131.8560   58.7640 C   0  0  1  0  0  0  0  0  0  0  0  0
  128.2250  132.9200   58.7300 O   0  0  0  0  0  0  0  0  0  0  0  0
  127.3260  132.9760   59.8310 C   0  0  0  0  0  0  0  0  0  0  0  0
  130.0342  127.0236   70.1462 H   0  0  0  0  0  0  0  0  0  0  0  0
  131.2421  127.8597   69.1124 H   0  0  0  0  0  0  0  0  0  0  0  0
  129.5300  128.4034   69.1124 H   0  0  0  0  0  0  0  0  0  0  0  0
  130.8060  126.4120   67.4498 H   0  0  0  0  0  0  0  0  0  0  0  0
  129.5226  125.6284   68.4995 H   0  0  0  0  0  0  0  0  0  0  0  0
  129.2095  127.1385   66.0724 H   0  0  0  0  0  0  0  0  0  0  0  0
  127.9762  126.2801   67.1225 H   0  0  0  0  0  0  0  0  0  0  0  0
  127.1789  128.1798   67.9738 H   0  0  0  0  0  0  0  0  0  0  0  0
  128.8449  128.9024   68.1292 H   0  0  0  0  0  0  0  0  0  0  0  0
  126.8110  129.5842   66.2649 H   0  0  0  0  0  0  0  0  0  0  0  0
  128.5367  130.1653   66.3548 H   0  0  0  0  0  0  0  0  0  0  0  0
  129.2709  128.4255   64.8659 H   0  0  0  0  0  0  0  0  0  0  0  0
  127.6038  127.6878   64.8684 H   0  0  0  0  0  0  0  0  0  0  0  0
  127.9843  128.9007   62.7846 H   0  0  0  0  0  0  0  0  0  0  0  0
  126.7210  129.7211   63.8063 H   0  0  0  0  0  0  0  0  0  0  0  0
  127.8884  131.6327   63.8618 H   0  0  0  0  0  0  0  0  0  0  0  0
  129.3884  130.7777   64.3591 H   0  0  0  0  0  0  0  0  0  0  0  0
  130.9779  132.9836   59.3275 H   0  0  0  0  0  0  0  0  0  0  0  0
  131.7168  130.7292   58.7667 H   0  0  0  0  0  0  0  0  0  0  0  0
  132.6550  130.2830   61.0160 H   0  0  0  0  0  0  0  0  0  0  0  0
  130.0305  129.7706   61.1554 H   0  0  0  0  0  0  0  0  0  0  0  0
  130.0468  127.6360   58.8342 H   0  0  0  0  0  0  0  0  0  0  0  0
  131.6486  126.8099   59.1423 H   0  0  0  0  0  0  0  0  0  0  0  0
  132.0336  126.3076   61.7573 H   0  0  0  0  0  0  0  0  0  0  0  0
  130.8768  127.6356   62.2984 H   0  0  0  0  0  0  0  0  0  0  0  0
  129.8174  126.5093   63.5100 H   0  0  0  0  0  0  0  0  0  0  0  0
  131.5172  126.3846   65.0459 H   0  0  0  0  0  0  0  0  0  0  0  0
  133.3560  124.9123   65.1110 H   0  0  0  0  0  0  0  0  0  0  0  0
  132.8354  124.1266   63.5819 H   0  0  0  0  0  0  0  0  0  0  0  0
  133.3267  125.8544   63.5819 H   0  0  0  0  0  0  0  0  0  0  0  0
  131.2136  123.5524   65.4706 H   0  0  0  0  0  0  0  0  0  0  0  0
  130.0601  124.7807   66.0591 H   0  0  0  0  0  0  0  0  0  0  0  0
  129.4709  122.7411   64.1618 H   0  0  0  0  0  0  0  0  0  0  0  0
  128.4681  124.1652   64.4264 H   0  0  0  0  0  0  0  0  0  0  0  0
  130.5838  123.6136   62.3480 H   0  0  0  0  0  0  0  0  0  0  0  0
  128.6085  122.4197   60.6931 H   0  0  0  0  0  0  0  0  0  0  0  0
  126.9620  125.4627   61.4362 H   0  0  0  0  0  0  0  0  0  0  0  0
  127.8691  126.0590   62.7918 H   0  0  0  0  0  0  0  0  0  0  0  0
  128.4275  127.7889   61.1381 H   0  0  0  0  0  0  0  0  0  0  0  0
  127.3476  126.8072   58.8487 H   0  0  0  0  0  0  0  0  0  0  0  0
  129.6002  123.7964   57.7382 H   0  0  0  0  0  0  0  0  0  0  0  0
  128.1905  126.2287   56.8605 H   0  0  0  0  0  0  0  0  0  0  0  0
  129.3671  125.2007   55.9742 H   0  0  0  0  0  0  0  0  0  0  0  0
  127.6224  124.7732   55.9742 H   0  0  0  0  0  0  0  0  0  0  0  0
  127.3191  123.1103   59.0276 H   0  0  0  0  0  0  0  0  0  0  0  0
  126.6155  123.6827   57.4772 H   0  0  0  0  0  0  0  0  0  0  0  0
  127.8362  122.3650   57.4772 H   0  0  0  0  0  0  0  0  0  0  0  0
  128.0450  130.7069   60.1732 H   0  0  0  0  0  0  0  0  0  0  0  0
  126.4873  129.7938   58.7877 H   0  0  0  0  0  0  0  0  0  0  0  0
  127.0947  130.9759   57.5793 H   0  0  0  0  0  0  0  0  0  0  0  0
  127.7175  129.2910   57.5793 H   0  0  0  0  0  0  0  0  0  0  0  0
  129.5852  131.7616   57.7465 H   0  0  0  0  0  0  0  0  0  0  0  0
  127.8954  132.9405   60.7715 H   0  0  0  0  0  0  0  0  0  0  0  0
  126.7495  133.9118   59.7864 H   0  0  0  0  0  0  0  0  0  0  0  0
  126.6379  132.1190   59.7864 H   0  0  0  0  0  0  0  0  0  0  0  0
  1  2  1  0
  2  3  1  0
  3  4  1  0
  4  5  1  0
  5  6  1  0
  6  7  1  0
  7  8  1  0
  8  9  1  0
  9 10  1  0
 10 11  2  0
 10 12  1  0
 12 13  1  0
 13 14  1  0
 14 15  1  0
 14 16  1  0
 16 17  1  0
 17 18  1  0
 19 18  1  6
 19 20  1  0
 20 21  1  0
 21 22  1  0
 22 23  1  0
 22 24  1  0
 24 25  1  0
 25 26  1  0
 26 27  1  0
 27 28  1  6
 28 29  2  0
 27 30  1  0
 30 31  1  0
 31 32  1  0
 32 33  2  0
 33 34  1  0
 34 35  1  0
 34 36  1  0
 33 37  1  0
 37 38  1  6
 38 39  2  0
 38 40  1  0
 16 41  1  0
 41 42  1  0
 42 43  1  0
 42 44  1  0
 44 45  1  0
 45 46  1  0
 44 13  1  0
 31 19  1  0
 37 19  1  0
 26 21  1  0
 37 27  1  0
  1 47  1  0
  1 48  1  0
  1 49  1  0
  2 50  1  0
  2 51  1  0
  3 52  1  0
  3 53  1  0
  4 54  1  0
  4 55  1  0
  5 56  1  0
  5 57  1  0
  6 58  1  0
  6 59  1  0
  7 60  1  0
  7 61  1  0
  8 62  1  0
  8 63  1  0
 13 64  1  6
 14 65  1  6
 15 66  1  0
 16 67  1  1
 18 68  1  0
 18 69  1  0
 20 70  1  0
 20 71  1  0
 21 72  1  1
 22 73  1  1
 23 74  1  0
 23 75  1  0
 23 76  1  0
 24 77  1  0
 24 78  1  0
 25 79  1  0
 25 80  1  0
 26 81  1  6
 28 82  1  0
 30 83  1  0
 30 84  1  0
 31 85  1  1
 32 86  1  0
 34 87  1  0
 35 88  1  0
 35 89  1  0
 35 90  1  0
 36 91  1  0
 36 92  1  0
 36 93  1  0
 42 94  1  1
 43 95  1  0
 43 96  1  0
 43 97  1  0
 44 98  1  6
 46 99  1  0
 46100  1  0
 46101  1  0
M  CHG  1  40  -1
M  END
>  <Binding energies>  (1) 
[-6.81]

>  <Ligand effiencies>  (1) 
[-0.1448936170212766]

>  <Interactions>  (1) 
["V-B:PRO:540:CA:9855, H-A:ALA:541:N:4891, V-B:GLU:543:CB:9878, V-B:TYR:539:CE2:9848, V-A:TYR:484:CE2:4346, V-B:GLU:543:CG:9879, V-A:ASP:366:CG:3213, V-A:TYR:539:CD1:4873, V-B:TYR:539:CZ:9849, H-B:TYR:539:OH:9850, H-B:ALA:541:N:9863, V-A:GLU:543:CD:4908, V-B:HIS:456:CE1:9041, V-B:TYR:484:CZ:9318, V-A:HIS:456:CE1:4070, V-A:GLU:543:CG:4907, V-B:GLU:543:CD:9880, V-A:ARG:545:CZ:4926, H-A:GLU:543:OE1:4909, V-A:GLU:543:CB:4906, V-A:PRO:540:N:4884, V-A:PRO:540:CB:4885, V-A:PRO:540:CA:4883, H-A:ASP:366:OD2:3215, V-A:TYR:539:CE1:4875"]

$$$$
ZINC253667126
     RDKit          3D

115122  0  0  0  0  0  0  0  0999 V2000
  129.3190  131.4010   74.4540 C   0  0  0  0  0  0  0  0  0  0  0  0
  129.4350  129.9870   73.8610 C   0  0  2  0  0  0  0  0  0  0  0  0
  130.5940  129.8850   72.8460 C   0  0  0  0  0  0  0  0  0  0  0  0
  130.7310  128.4550   72.2910 C   0  0  0  0  0  0  0  0  0  0  0  0
  129.4180  127.9280   71.6530 C   0  0  1  0  0  0  0  0  0  0  0  0
  128.2470  128.1100   72.6560 N   0  0  0  0  0  0  0  0  0  0  0  0
  128.1080  129.5470   73.2020 C   0  0  0  0  0  0  0  0  0  0  0  0
  129.1280  128.7100   70.4920 O   0  0  0  0  0  0  0  0  0  0  0  0
  128.2570  127.9720   69.6370 C   0  0  1  0  0  0  0  0  0  0  0  0
  128.3430  128.3540   68.1470 C   0  0  0  0  0  0  0  0  0  0  0  0
  128.6430  127.0150   67.4600 C   0  0  1  0  0  0  0  0  0  0  0  0
  129.1590  126.9940   65.9940 C   0  0  2  0  0  0  0  0  0  0  0  0
  128.2000  127.7780   65.0670 C   0  0  0  0  0  0  0  0  0  0  0  0
  128.4060  127.4300   63.6040 C   0  0  0  0  0  0  0  0  0  0  0  0
  129.1610  126.4200   63.1230 C   0  0  0  0  0  0  0  0  0  0  0  0
  129.3390  126.2220   61.6120 C   0  0  0  0  0  0  0  0  0  0  0  0
  128.9960  124.7780   61.2070 C   0  0  1  0  0  0  0  0  0  0  0  0
  129.1370  124.6780   59.7880 O   0  0  0  0  0  0  0  0  0  0  0  0
  129.1010  125.8700   59.0560 C   0  0  2  0  0  0  0  0  0  0  0  0
  130.2750  126.6010   59.2840 O   0  0  0  0  0  0  0  0  0  0  0  0
  130.3690  127.7720   58.4690 C   0  0  2  0  0  0  0  0  0  0  0  0
  131.7850  128.3650   58.6350 C   0  0  0  0  0  0  0  0  0  0  0  0
  132.6540  127.8830   57.6290 O   0  0  0  0  0  0  0  0  0  0  0  0
  129.2600  128.7750   58.8740 C   0  0  1  0  0  0  0  0  0  0  0  0
  129.3260  129.8510   57.9300 O   0  0  0  0  0  0  0  0  0  0  0  0
  129.0970  131.1580   58.3830 C   0  0  2  0  0  0  0  0  0  0  0  0
  129.9360  132.1000   57.7580 O   0  0  0  0  0  0  0  0  0  0  0  0
  131.3410  131.8850   57.9550 C   0  0  1  0  0  0  0  0  0  0  0  0
  132.0820  132.9510   57.1280 C   0  0  0  0  0  0  0  0  0  0  0  0
  131.7050  131.9320   59.4600 C   0  0  2  0  0  0  0  0  0  0  0  0
  133.0770  131.6380   59.6660 O   0  0  0  0  0  0  0  0  0  0  0  0
  130.8100  130.9490   60.2440 C   0  0  1  0  0  0  0  0  0  0  0  0
  131.0570  130.9970   61.6400 O   0  0  0  0  0  0  0  0  0  0  0  0
  129.3170  131.1730   59.9060 C   0  0  1  0  0  0  0  0  0  0  0  0
  128.8020  132.3680   60.4700 O   0  0  0  0  0  0  0  0  0  0  0  0
  127.8730  128.0810   58.8910 C   0  0  2  0  0  0  0  0  0  0  0  0
  126.8960  128.8860   59.5240 O   0  0  0  0  0  0  0  0  0  0  0  0
  127.9150  126.6910   59.5820 C   0  0  1  0  0  0  0  0  0  0  0  0
  126.6930  125.9890   59.4090 O   0  0  0  0  0  0  0  0  0  0  0  0
  129.8720  123.7830   61.9890 C   0  0  0  0  0  0  0  0  0  0  0  0
  129.6670  123.9680   63.5030 C   0  0  0  0  0  0  0  0  0  0  0  0
  129.9140  125.4170   64.0410 C   0  0  1  0  0  0  0  0  0  0  0  0
  131.4300  125.7580   63.9820 C   0  0  0  0  0  0  0  0  0  0  0  0
  129.3490  125.5170   65.5120 C   0  0  1  0  0  0  0  0  0  0  0  0
  130.1190  124.6380   66.5560 C   0  0  0  0  0  0  0  0  0  0  0  0
  129.5750  124.7820   67.9980 C   0  0  0  0  0  0  0  0  0  0  0  0
  129.5650  126.2640   68.4490 C   0  0  1  0  0  0  0  0  0  0  0  0
  131.0190  126.8440   68.4950 C   0  0  0  0  0  0  0  0  0  0  0  0
  128.7660  126.5270   69.7660 C   0  0  1  0  0  0  0  0  0  0  0  0
  129.5100  126.4730   71.1120 C   0  0  2  0  0  0  0  0  0  0  0  0
  129.0240  125.3370   72.0400 C   0  0  0  0  0  0  0  0  0  0  0  0
  129.3240  131.3396   75.5523 H   0  0  0  0  0  0  0  0  0  0  0  0
  130.1701  132.0109   74.1170 H   0  0  0  0  0  0  0  0  0  0  0  0
  128.3799  131.8640   74.1170 H   0  0  0  0  0  0  0  0  0  0  0  0
  129.6545  129.3062   74.6966 H   0  0  0  0  0  0  0  0  0  0  0  0
  130.4010  130.5756   72.0119 H   0  0  0  0  0  0  0  0  0  0  0  0
  131.5296  130.1473   73.3616 H   0  0  0  0  0  0  0  0  0  0  0  0
  131.5205  128.4496   71.5251 H   0  0  0  0  0  0  0  0  0  0  0  0
  130.9766  127.7945   73.1357 H   0  0  0  0  0  0  0  0  0  0  0  0
  128.3860  127.4790   73.4320 H   0  0  0  0  0  0  0  0  0  0  0  0
  127.3850  127.8370   72.2070 H   0  0  0  0  0  0  0  0  0  0  0  0
  127.8670  130.2304   72.3744 H   0  0  0  0  0  0  0  0  0  0  0  0
  127.3034  129.5746   73.9516 H   0  0  0  0  0  0  0  0  0  0  0  0
  127.2136  128.1545   69.9338 H   0  0  0  0  0  0  0  0  0  0  0  0
  127.3909  128.7752   67.7919 H   0  0  0  0  0  0  0  0  0  0  0  0
  129.1010  129.1242   67.9416 H   0  0  0  0  0  0  0  0  0  0  0  0
  127.6777  126.5229   67.2703 H   0  0  0  0  0  0  0  0  0  0  0  0
  130.1383  127.4932   65.9515 H   0  0  0  0  0  0  0  0  0  0  0  0
  127.1632  127.5386   65.3456 H   0  0  0  0  0  0  0  0  0  0  0  0
  128.4103  128.8504   65.1922 H   0  0  0  0  0  0  0  0  0  0  0  0
  127.8907  128.0613   62.8652 H   0  0  0  0  0  0  0  0  0  0  0  0
  128.6732  126.9147   61.0764 H   0  0  0  0  0  0  0  0  0  0  0  0
  130.3887  126.4219   61.3511 H   0  0  0  0  0  0  0  0  0  0  0  0
  127.9584  124.5192   61.4648 H   0  0  0  0  0  0  0  0  0  0  0  0
  129.0060  125.6564   57.9811 H   0  0  0  0  0  0  0  0  0  0  0  0
  130.2158  127.5316   57.4066 H   0  0  0  0  0  0  0  0  0  0  0  0
  131.7269  129.4613   58.5660 H   0  0  0  0  0  0  0  0  0  0  0  0
  132.1803  128.0627   59.6160 H   0  0  0  0  0  0  0  0  0  0  0  0
  132.3020  127.0550   57.2920 H   0  0  0  0  0  0  0  0  0  0  0  0
  129.4083  129.1607   59.8934 H   0  0  0  0  0  0  0  0  0  0  0  0
  128.0666  131.4473   58.1287 H   0  0  0  0  0  0  0  0  0  0  0  0
  131.6425  130.8835   57.6142 H   0  0  0  0  0  0  0  0  0  0  0  0
  132.5765  133.6624   57.8057 H   0  0  0  0  0  0  0  0  0  0  0  0
  132.8370  132.4635   56.4937 H   0  0  0  0  0  0  0  0  0  0  0  0
  131.3620  133.4888   56.4937 H   0  0  0  0  0  0  0  0  0  0  0  0
  131.5271  132.9521   59.8312 H   0  0  0  0  0  0  0  0  0  0  0  0
  133.1660  130.6900   59.7960 H   0  0  0  0  0  0  0  0  0  0  0  0
  131.0735  129.9306   59.9222 H   0  0  0  0  0  0  0  0  0  0  0  0
  130.5270  130.3200   62.0680 H   0  0  0  0  0  0  0  0  0  0  0  0
  128.7607  130.3390   60.3587 H   0  0  0  0  0  0  0  0  0  0  0  0
  128.8870  133.0740   59.8240 H   0  0  0  0  0  0  0  0  0  0  0  0
  127.5965  127.9361   57.8362 H   0  0  0  0  0  0  0  0  0  0  0  0
  126.8380  128.6240   60.4470 H   0  0  0  0  0  0  0  0  0  0  0  0
  128.0518  126.8501   60.6618 H   0  0  0  0  0  0  0  0  0  0  0  0
  126.8190  125.0820   59.6960 H   0  0  0  0  0  0  0  0  0  0  0  0
  129.5948  122.7563   61.7078 H   0  0  0  0  0  0  0  0  0  0  0  0
  130.9287  123.9675   61.7453 H   0  0  0  0  0  0  0  0  0  0  0  0
  128.6300  123.6894   63.7418 H   0  0  0  0  0  0  0  0  0  0  0  0
  130.4191  123.3308   63.9912 H   0  0  0  0  0  0  0  0  0  0  0  0
  131.8259  125.8470   65.0044 H   0  0  0  0  0  0  0  0  0  0  0  0
  131.9654  124.9578   63.4499 H   0  0  0  0  0  0  0  0  0  0  0  0
  131.5712  126.7103   63.4499 H   0  0  0  0  0  0  0  0  0  0  0  0
  128.3431  125.0757   65.4532 H   0  0  0  0  0  0  0  0  0  0  0  0
  130.0342  123.5835   66.2546 H   0  0  0  0  0  0  0  0  0  0  0  0
  131.1632  124.9838   66.5658 H   0  0  0  0  0  0  0  0  0  0  0  0
  128.5482  124.3891   68.0348 H   0  0  0  0  0  0  0  0  0  0  0  0
  130.2318  124.2167   68.6755 H   0  0  0  0  0  0  0  0  0  0  0  0
  131.3311  126.9685   69.5424 H   0  0  0  0  0  0  0  0  0  0  0  0
  131.7063  126.1512   67.9874 H   0  0  0  0  0  0  0  0  0  0  0  0
  131.0408  127.8197   67.9874 H   0  0  0  0  0  0  0  0  0  0  0  0
  128.0306  125.7110   69.8236 H   0  0  0  0  0  0  0  0  0  0  0  0
  130.5670  126.1824   71.0210 H   0  0  0  0  0  0  0  0  0  0  0  0
  129.1537  125.6401   73.0894 H   0  0  0  0  0  0  0  0  0  0  0  0
  127.9604  125.1344   71.8456 H   0  0  0  0  0  0  0  0  0  0  0  0
  129.6119  124.4279   71.8456 H   0  0  0  0  0  0  0  0  0  0  0  0
  1  2  1  0
  2  3  1  0
  3  4  1  0
  4  5  1  0
  5  6  1  0
  6  7  1  0
  5  8  1  6
  8  9  1  0
  9 10  1  0
 10 11  1  0
 11 12  1  0
 12 13  1  0
 13 14  1  0
 14 15  2  0
 15 16  1  0
 16 17  1  0
 17 18  1  0
 18 19  1  0
 19 20  1  0
 20 21  1  0
 21 22  1  0
 22 23  1  0
 21 24  1  0
 24 25  1  0
 25 26  1  0
 26 27  1  0
 27 28  1  0
 28 29  1  0
 28 30  1  0
 30 31  1  0
 30 32  1  0
 32 33  1  0
 32 34  1  0
 34 35  1  0
 24 36  1  0
 36 37  1  0
 36 38  1  0
 38 39  1  0
 17 40  1  0
 40 41  1  0
 41 42  1  0
 42 43  1  1
 42 44  1  0
 44 45  1  0
 45 46  1  0
 46 47  1  0
 47 48  1  1
 47 49  1  0
 49 50  1  0
 50 51  1  0
  7  2  1  0
 49  9  1  0
 50  5  1  0
 47 11  1  0
 44 12  1  0
 42 15  1  0
 38 19  1  0
 34 26  1  0
  1 52  1  0
  1 53  1  0
  1 54  1  0
  2 55  1  1
  3 56  1  0
  3 57  1  0
  4 58  1  0
  4 59  1  0
  6 60  1  0
  6 61  1  0
  7 62  1  0
  7 63  1  0
  9 64  1  1
 10 65  1  0
 10 66  1  0
 11 67  1  6
 12 68  1  1
 13 69  1  0
 13 70  1  0
 14 71  1  0
 16 72  1  0
 16 73  1  0
 17 74  1  6
 19 75  1  6
 21 76  1  6
 22 77  1  0
 22 78  1  0
 23 79  1  0
 24 80  1  1
 26 81  1  1
 28 82  1  6
 29 83  1  0
 29 84  1  0
 29 85  1  0
 30 86  1  1
 31 87  1  0
 32 88  1  6
 33 89  1  0
 34 90  1  1
 35 91  1  0
 36 92  1  6
 37 93  1  0
 38 94  1  1
 39 95  1  0
 40 96  1  0
 40 97  1  0
 41 98  1  0
 41 99  1  0
 43100  1  0
 43101  1  0
 43102  1  0
 44103  1  6
 45104  1  0
 45105  1  0
 46106  1  0
 46107  1  0
 48108  1  0
 48109  1  0
 48110  1  0
 49111  1  1
 50112  1  6
 51113  1  0
 51114  1  0
 51115  1  0
M  CHG  1   6   1
M  END
>  <Binding energies>  (1) 
[2.58]

>  <Ligand effiencies>  (1) 
[0.04372881355932204]

>  <Interactions>  (1) 
["V-A:PRO:540:CG:4886, V-B:GLU:543:C:9874, V-B:HIS:456:CD2:9039, V-A:GLU:543:C:4902, V-B:GLU:543:CB:9878, V-A:ILE:538:CB:4862, H-A:TYR:531:OH:4795, V-A:TYR:484:CE2:4346, V-A:GLY:544:CA:4914, V-B:GLU:543:CG:9879, V-A:GLY:544:C:4912, V-A:ASP:366:CG:3213, V-A:HIS:456:CD2:4068, V-A:LEU:363:CD1:3189, V-A:GLU:543:CD:4908, V-A:TYR:484:CZ:4347, H-B:ASP:366:OD1:8185, V-B:GLU:543:CA:9876, V-B:HIS:456:CE1:9041, V-A:ARG:545:CG:4922, V-A:HIS:456:CE1:4070, H-B:HIS:456:NE2:9042, V-B:GLU:543:CD:9880, V-B:HIS:456:CG:9037, V-A:ASP:366:CB:3212, V-A:ARG:545:CZ:4926, H-A:GLU:543:OE1:4909, V-A:GLU:543:CB:4906, H-B:GLY:544:O:9885, H-A:TYR:539:O:4868, V-A:PRO:540:N:4884, V-A:PRO:540:CB:4885, V-A:PRO:540:CA:4883, V-A:LYS:547:CE:4950, H-A:ASP:366:OD2:3215, V-A:PRO:540:CD:4887"]

$$$$
ZINC253683863
     RDKit          3D

116118  0  0  0  0  0  0  0  0999 V2000
  127.4400  123.0180   56.5710 C   0  0  0  0  0  0  0  0  0  0  0  0
  127.8410  122.3540   57.8140 N   0  0  0  0  0  0  0  0  0  0  0  0
  127.9860  122.9760   59.0200 C   0  0  0  0  0  0  0  0  0  0  0  0
  127.7270  124.6180   59.2850 S   0  0  0  0  0  0  0  0  0  0  0  0
  128.3710  122.0840   59.9820 N   0  0  0  0  0  0  0  0  0  0  0  0
  128.6560  122.4000   61.3880 C   0  0  0  0  0  0  0  0  0  0  0  0
  129.6830  121.4640   62.0590 C   0  0  0  0  0  0  0  0  0  0  0  0
  130.4870  122.1240   63.1950 C   0  0  0  0  0  0  0  0  0  0  0  0
  129.7050  123.2280   63.9260 C   0  0  0  0  0  0  0  0  0  0  0  0
  130.6110  124.3470   64.4810 C   0  0  2  0  0  0  0  0  0  0  0  0
  130.0640  124.9330   65.7060 N   0  0  0  0  0  0  0  0  0  0  0  0
  130.7850  125.5880   66.6320 C   0  0  0  0  0  0  0  0  0  0  0  0
  132.0070  125.7490   66.5700 O   0  0  0  0  0  0  0  0  0  0  0  0
  130.0000  126.1220   67.8470 C   0  0  2  0  0  0  0  0  0  0  0  0
  128.5840  126.5980   67.4400 C   0  0  0  0  0  0  0  0  0  0  0  0
  128.5540  127.6850   66.3780 C   0  0  0  0  0  0  0  0  0  0  0  0
  128.7280  127.3530   65.0180 C   0  0  0  0  0  0  0  0  0  0  0  0
  128.6110  128.3350   64.0430 C   0  0  0  0  0  0  0  0  0  0  0  0
  128.2920  129.6400   64.3980 C   0  0  0  0  0  0  0  0  0  0  0  0
  128.0730  129.9720   65.7290 C   0  0  0  0  0  0  0  0  0  0  0  0
  128.1880  129.0050   66.7190 C   0  0  0  0  0  0  0  0  0  0  0  0
  130.7810  127.2410   68.4350 N   0  0  0  0  0  0  0  0  0  0  0  0
  130.1550  128.1430   69.8220 S   0  0  0  0  0  0  0  0  0  0  0  0
  131.3000  128.4620   70.6830 O   0  0  0  0  0  0  0  0  0  0  0  0
  129.2800  129.2090   69.3230 O   0  0  0  0  0  0  0  0  0  0  0  0
  129.1510  126.9600   70.6780 N   0  0  0  0  0  0  0  0  0  0  0  0
  127.7080  126.9720   70.3690 C   0  0  0  0  0  0  0  0  0  0  0  0
  129.5090  126.6750   72.0820 C   0  0  0  0  0  0  0  0  0  0  0  0
  130.8460  125.4070   63.3920 C   0  0  0  0  0  0  0  0  0  0  0  0
  131.3230  126.5020   63.6900 O   0  0  0  0  0  0  0  0  0  0  0  0
  130.4560  125.0600   62.1560 N   0  0  0  0  0  0  0  0  0  0  0  0
  130.4930  125.9350   60.9790 C   0  0  2  0  0  0  0  0  0  0  0  0
  131.9450  126.0420   60.4300 C   0  0  0  0  0  0  0  0  0  0  0  0
  132.8290  124.7700   60.5540 C   0  0  0  0  0  0  0  0  0  0  0  0
  133.4900  124.6190   61.9470 C   0  0  0  0  0  0  0  0  0  0  0  0
  134.4100  123.3830   62.0010 C   0  0  0  0  0  0  0  0  0  0  0  0
  133.6540  122.0940   61.6140 C   0  0  0  0  0  0  0  0  0  0  0  0
  132.8960  122.2320   60.2770 C   0  0  0  0  0  0  0  0  0  0  0  0
  132.0070  123.4930   60.2580 C   0  0  0  0  0  0  0  0  0  0  0  0
  129.8300  127.3220   61.2470 C   0  0  1  0  0  0  0  0  0  0  0  0
  130.8030  128.2770   61.6420 O   0  0  0  0  0  0  0  0  0  0  0  0
  128.9920  127.8560   60.0520 C   0  0  0  0  0  0  0  0  0  0  0  0
  129.7910  128.3450   58.8200 C   0  0  0  0  0  0  0  0  0  0  0  0
  130.3530  127.5150   58.1020 O   0  0  0  0  0  0  0  0  0  0  0  0
  129.9650  129.6830   58.6510 N   0  0  0  0  0  0  0  0  0  0  0  0
  129.8860  130.3230   57.3300 C   0  0  0  0  0  0  0  0  0  0  0  0
  131.3400  130.4520   56.8300 C   0  0  0  0  0  0  0  0  0  0  0  0
  132.1030  131.2150   57.7650 O   0  0  0  0  0  0  0  0  0  0  0  0
  132.1490  130.6770   59.0930 C   0  0  1  0  0  0  0  0  0  0  0  0
  132.9660  131.6300   59.9910 C   0  0  0  0  0  0  0  0  0  0  0  0
  132.4870  131.7160   61.4550 C   0  0  0  0  0  0  0  0  0  0  0  0
  132.2000  130.3190   62.0210 N   0  0  0  0  0  0  0  0  0  0  0  0
  130.7110  130.4750   59.6450 C   0  0  0  0  0  0  0  0  0  0  0  0
  126.8848  123.9373   56.8090 H   0  0  0  0  0  0  0  0  0  0  0  0
  128.3359  123.2719   55.9854 H   0  0  0  0  0  0  0  0  0  0  0  0
  126.7982  122.3433   55.9854 H   0  0  0  0  0  0  0  0  0  0  0  0
  128.0170  121.3620   57.7630 H   0  0  0  0  0  0  0  0  0  0  0  0
  128.4900  121.1190   59.7080 H   0  0  0  0  0  0  0  0  0  0  0  0
  129.0446  123.4279   61.4371 H   0  0  0  0  0  0  0  0  0  0  0  0
  127.7107  122.2708   61.9354 H   0  0  0  0  0  0  0  0  0  0  0  0
  129.1434  120.6002   62.4744 H   0  0  0  0  0  0  0  0  0  0  0  0
  130.4074  121.1787   61.2819 H   0  0  0  0  0  0  0  0  0  0  0  0
  130.7627  121.3486   63.9249 H   0  0  0  0  0  0  0  0  0  0  0  0
  131.3709  122.5949   62.7401 H   0  0  0  0  0  0  0  0  0  0  0  0
  128.9889  123.6751   63.2208 H   0  0  0  0  0  0  0  0  0  0  0  0
  129.2009  122.7591   64.7839 H   0  0  0  0  0  0  0  0  0  0  0  0
  131.5813  123.9094   64.7585 H   0  0  0  0  0  0  0  0  0  0  0  0
  129.0680  124.8350   65.8340 H   0  0  0  0  0  0  0  0  0  0  0  0
  129.8646  125.3175   68.5849 H   0  0  0  0  0  0  0  0  0  0  0  0
  128.0291  125.7295   67.0556 H   0  0  0  0  0  0  0  0  0  0  0  0
  128.1351  127.0371   68.3431 H   0  0  0  0  0  0  0  0  0  0  0  0
  128.9564  126.3163   64.7298 H   0  0  0  0  0  0  0  0  0  0  0  0
  128.7715  128.0787   62.9854 H   0  0  0  0  0  0  0  0  0  0  0  0
  128.2125  130.4144   63.6208 H   0  0  0  0  0  0  0  0  0  0  0  0
  127.8075  131.0046   65.9997 H   0  0  0  0  0  0  0  0  0  0  0  0
  127.9938  129.2677   67.7694 H   0  0  0  0  0  0  0  0  0  0  0  0
  131.2580  127.8250   67.7420 H   0  0  0  0  0  0  0  0  0  0  0  0
  127.1323  126.9768   71.3063 H   0  0  0  0  0  0  0  0  0  0  0  0
  127.4655  127.8722   69.7852 H   0  0  0  0  0  0  0  0  0  0  0  0
  127.4506  126.0760   69.7852 H   0  0  0  0  0  0  0  0  0  0  0  0
  128.8265  127.2184   72.7520 H   0  0  0  0  0  0  0  0  0  0  0  0
  129.4242  125.5945   72.2699 H   0  0  0  0  0  0  0  0  0  0  0  0
  130.5430  126.9998   72.2699 H   0  0  0  0  0  0  0  0  0  0  0  0
  130.0580  124.1420   62.0150 H   0  0  0  0  0  0  0  0  0  0  0  0
  129.8793  125.4762   60.1898 H   0  0  0  0  0  0  0  0  0  0  0  0
  131.8805  126.3014   59.3630 H   0  0  0  0  0  0  0  0  0  0  0  0
  132.4375  126.8008   61.0559 H   0  0  0  0  0  0  0  0  0  0  0  0
  133.6284  124.8937   59.8085 H   0  0  0  0  0  0  0  0  0  0  0  0
  134.0861  125.5186   62.1599 H   0  0  0  0  0  0  0  0  0  0  0  0
  132.6946  124.4920   62.6962 H   0  0  0  0  0  0  0  0  0  0  0  0
  135.2464  123.5298   61.3018 H   0  0  0  0  0  0  0  0  0  0  0  0
  134.7751  123.2709   63.0326 H   0  0  0  0  0  0  0  0  0  0  0  0
  134.3801  121.2726   61.5246 H   0  0  0  0  0  0  0  0  0  0  0  0
  132.9111  121.8936   62.4001 H   0  0  0  0  0  0  0  0  0  0  0  0
  133.6265  122.2974   59.4572 H   0  0  0  0  0  0  0  0  0  0  0  0
  132.2482  121.3514   60.1553 H   0  0  0  0  0  0  0  0  0  0  0  0
  131.5431  123.5885   59.2652 H   0  0  0  0  0  0  0  0  0  0  0  0
  131.2403  123.3869   61.0396 H   0  0  0  0  0  0  0  0  0  0  0  0
  129.1192  127.1632   62.0713 H   0  0  0  0  0  0  0  0  0  0  0  0
  131.0440  128.1030   62.5550 H   0  0  0  0  0  0  0  0  0  0  0  0
  128.3267  127.0453   59.7201 H   0  0  0  0  0  0  0  0  0  0  0  0
  128.4683  128.7446   60.4342 H   0  0  0  0  0  0  0  0  0  0  0  0
  129.2983  129.7010   56.6389 H   0  0  0  0  0  0  0  0  0  0  0  0
  129.3920  131.3042   57.3875 H   0  0  0  0  0  0  0  0  0  0  0  0
  131.7822  129.4500   56.7281 H   0  0  0  0  0  0  0  0  0  0  0  0
  131.3466  130.9589   55.8538 H   0  0  0  0  0  0  0  0  0  0  0  0
  132.6382  129.6918   59.0807 H   0  0  0  0  0  0  0  0  0  0  0  0
  134.0106  131.2852   59.9933 H   0  0  0  0  0  0  0  0  0  0  0  0
  132.8397  132.6368   59.5663 H   0  0  0  0  0  0  0  0  0  0  0  0
  133.2685  132.1967   62.0618 H   0  0  0  0  0  0  0  0  0  0  0  0
  131.5586  132.3052   61.4866 H   0  0  0  0  0  0  0  0  0  0  0  0
  132.4760  129.6110   61.3560 H   0  0  0  0  0  0  0  0  0  0  0  0
  131.2130  130.2180   62.2120 H   0  0  0  0  0  0  0  0  0  0  0  0
  132.7140  130.1780   62.8790 H   0  0  0  0  0  0  0  0  0  0  0  0
  130.7483  129.9366   60.6035 H   0  0  0  0  0  0  0  0  0  0  0  0
  130.2208  131.4447   59.8163 H   0  0  0  0  0  0  0  0  0  0  0  0
  1  2  1  0
  2  3  1  0
  3  4  2  0
  3  5  1  0
  5  6  1  0
  6  7  1  0
  7  8  1  0
  8  9  1  0
  9 10  1  0
 10 11  1  0
 11 12  1  0
 12 13  2  0
 12 14  1  0
 14 15  1  0
 15 16  1  0
 16 17  2  0
 17 18  1  0
 18 19  2  0
 19 20  1  0
 20 21  2  0
 14 22  1  0
 22 23  1  0
 23 24  2  0
 23 25  2  0
 23 26  1  0
 26 27  1  0
 26 28  1  0
 10 29  1  0
 29 30  2  0
 29 31  1  0
 31 32  1  0
 32 33  1  0
 33 34  1  0
 34 35  1  0
 35 36  1  0
 36 37  1  0
 37 38  1  0
 38 39  1  0
 32 40  1  0
 40 41  1  0
 40 42  1  0
 42 43  1  0
 43 44  2  0
 43 45  1  0
 45 46  1  0
 46 47  1  0
 47 48  1  0
 48 49  1  0
 49 50  1  0
 50 51  1  0
 51 52  1  0
 49 53  1  0
 21 16  1  0
 39 34  1  0
 53 45  1  0
  1 54  1  0
  1 55  1  0
  1 56  1  0
  2 57  1  0
  5 58  1  0
  6 59  1  0
  6 60  1  0
  7 61  1  0
  7 62  1  0
  8 63  1  0
  8 64  1  0
  9 65  1  0
  9 66  1  0
 10 67  1  1
 11 68  1  0
 14 69  1  1
 15 70  1  0
 15 71  1  0
 17 72  1  0
 18 73  1  0
 19 74  1  0
 20 75  1  0
 21 76  1  0
 22 77  1  0
 27 78  1  0
 27 79  1  0
 27 80  1  0
 28 81  1  0
 28 82  1  0
 28 83  1  0
 31 84  1  0
 32 85  1  6
 33 86  1  0
 33 87  1  0
 34 88  1  0
 35 89  1  0
 35 90  1  0
 36 91  1  0
 36 92  1  0
 37 93  1  0
 37 94  1  0
 38 95  1  0
 38 96  1  0
 39 97  1  0
 39 98  1  0
 40 99  1  1
 41100  1  0
 42101  1  0
 42102  1  0
 46103  1  0
 46104  1  0
 47105  1  0
 47106  1  0
 49107  1  6
 50108  1  0
 50109  1  0
 51110  1  0
 51111  1  0
 52112  1  0
 52113  1  0
 52114  1  0
 53115  1  0
 53116  1  0
M  CHG  1  52   1
M  END
>  <Binding energies>  (1) 
[-10.52]

>  <Ligand effiencies>  (1) 
[-0.1696774193548387]

>  <Interactions>  (1) 
["V-B:TYR:539:CA:9841, V-A:ILE:369:CG2:3237, V-B:PRO:540:CA:9855, V-A:GLY:454:CA:4049, V-B:GLU:543:C:9874, H-A:GLU:543:OE2:4910, V-A:GLU:543:C:4902, V-B:GLU:543:CB:9878, V-B:ALA:541:CB:9864, H-A:TYR:531:OH:4795, V-B:TYR:539:CE2:9848, V-B:GLU:543:CG:9879, V-B:TYR:539:C:9839, V-A:HIS:456:CD2:4068, H-A:ARG:545:N:4920, V-A:ASP:366:CG:3213, V-B:TYR:484:CE2:9317, V-B:TYR:539:CZ:9849, V-A:TYR:531:CE2:4793, V-A:GLU:543:CD:4908, V-B:GLU:543:CA:9876, V-B:HIS:456:CE1:9041, V-B:PRO:540:N:9856, V-A:HIS:456:CE1:4070, V-B:TYR:484:CZ:9318, V-A:ILE:369:CD1:3239, V-B:GLY:544:C:9884, V-B:TYR:539:CD2:9846, V-A:GLU:543:CG:4907, V-A:TYR:531:CZ:4794, V-B:GLU:543:CD:9880, V-A:MET:535:CE:4835, V-A:ASP:366:CB:3212, V-A:LEU:475:CD2:4259, H-A:ARG:545:NH2:4928, H-A:GLU:543:OE1:4909, V-B:TYR:539:CG:9844, V-A:GLU:543:CB:4906, H-A:ASP:366:OD1:3214, V-B:TYR:539:CD1:9845, H-B:GLU:543:OE2:9882, V-A:LEU:363:CA:3185, V-A:PRO:540:CB:4885, V-A:PRO:540:CA:4883, H-B:TYR:539:O:9840, H-A:ARG:545:NE:4924, V-B:PRO:540:C:9853, H-A:ASP:366:OD2:3215, H-A:GLY:544:N:4915, V-B:TYR:539:CE1:9847, H-A:TYR:484:OH:4348"]

$$$$
ZINC253859817
     RDKit          3D

 89 94  0  0  0  0  0  0  0  0999 V2000
  131.7650  130.7500   61.4620 C   0  0  0  0  0  0  0  0  0  0  0  0
  130.5400  131.2090   60.9010 O   0  0  0  0  0  0  0  0  0  0  0  0
  129.6630  130.2930   60.3540 C   0  0  0  0  0  0  0  0  0  0  0  0
  128.4530  130.7980   59.8770 C   0  0  0  0  0  0  0  0  0  0  0  0
  127.5060  129.9520   59.3080 C   0  0  0  0  0  0  0  0  0  0  0  0
  127.7610  128.5820   59.2170 C   0  0  0  0  0  0  0  0  0  0  0  0
  126.7390  127.6540   58.5780 C   0  0  0  0  0  0  0  0  0  0  0  0
  126.9690  126.1470   58.8640 N   0  0  2  0  0  0  0  0  0  0  0  0
  126.5020  125.2860   57.6580 C   0  0  0  0  0  0  0  0  0  0  0  0
  127.1750  123.8900   57.5530 C   0  0  1  0  0  0  0  0  0  0  0  0
  128.7070  123.9730   57.6440 C   0  0  0  0  0  0  0  0  0  0  0  0
  126.7910  122.9420   58.5360 O   0  0  0  0  0  0  0  0  0  0  0  0
  126.9850  123.2500   59.8810 C   0  0  1  0  0  0  0  0  0  0  0  0
  128.2360  123.8270   60.0970 O   0  0  0  0  0  0  0  0  0  0  0  0
  128.5090  124.1810   61.4520 C   0  0  0  0  0  0  0  0  0  0  0  0
  130.0450  123.9920   61.7520 C   0  0  1  0  0  0  0  0  0  0  0  0
  130.4880  122.7490   60.8760 C   0  0  0  0  0  0  0  0  0  0  0  0
  131.9660  122.3480   61.0090 C   0  0  2  0  0  0  0  0  0  0  0  0
  132.5440  121.0310   60.4800 C   0  0  2  0  0  0  0  0  0  0  0  0
  131.7240  119.7790   60.8530 C   0  0  0  0  0  0  0  0  0  0  0  0
  133.9690  121.0380   61.0910 C   0  0  0  0  0  0  0  0  0  0  0  0
  134.0030  122.1190   62.2010 C   0  0  0  0  0  0  0  0  0  0  0  0
  132.5320  122.5160   62.4230 C   0  0  1  0  0  0  0  0  0  0  0  0
  132.0920  123.8940   63.0480 C   0  0  1  0  0  0  0  0  0  0  0  0
  132.8650  124.2390   64.3540 C   0  0  0  0  0  0  0  0  0  0  0  0
  133.9780  124.7640   64.3630 O   0  0  0  0  0  0  0  0  0  0  0  0
  132.3020  125.0670   62.0320 C   0  0  0  0  0  0  0  0  0  0  0  0
  130.8500  125.3070   61.5480 C   0  0  2  0  0  0  0  0  0  0  0  0
  130.2590  126.1410   62.6700 C   0  0  0  0  0  0  0  0  0  0  0  0
  130.0490  125.3230   63.7260 C   0  0  0  0  0  0  0  0  0  0  0  0
  129.5610  125.6850   65.1320 C   0  0  0  0  0  0  0  0  0  0  0  0
  129.0900  127.1490   65.2370 C   0  0  0  0  0  0  0  0  0  0  0  0
  130.5980  125.3790   66.2280 C   0  0  0  0  0  0  0  0  0  0  0  0
  130.4850  123.8870   63.2660 C   0  0  1  0  0  0  0  0  0  0  0  0
  129.8790  122.7120   64.1280 C   0  0  0  0  0  0  0  0  0  0  0  0
  128.6580  122.4490   64.0470 O   0  0  0  0  0  0  0  0  0  0  0  0
  130.6430  122.0850   64.8960 O   0  0  0  0  0  0  0  0  0  0  0  0
  125.9190  124.2440   60.3350 C   0  0  1  0  0  0  0  0  0  0  0  0
  125.5290  123.9720   61.6710 O   0  0  0  0  0  0  0  0  0  0  0  0
  126.3100  125.7350   60.2110 C   0  0  0  0  0  0  0  0  0  0  0  0
  128.9730  128.0680   59.6820 C   0  0  0  0  0  0  0  0  0  0  0  0
  129.9180  128.9160   60.2500 C   0  0  0  0  0  0  0  0  0  0  0  0
  131.6978  130.7752   62.5597 H   0  0  0  0  0  0  0  0  0  0  0  0
  131.9568  129.7190   61.1299 H   0  0  0  0  0  0  0  0  0  0  0  0
  132.5871  131.4011   61.1299 H   0  0  0  0  0  0  0  0  0  0  0  0
  128.2456  131.8757   59.9515 H   0  0  0  0  0  0  0  0  0  0  0  0
  126.5576  130.3619   58.9303 H   0  0  0  0  0  0  0  0  0  0  0  0
  125.7431  127.9272   58.9568 H   0  0  0  0  0  0  0  0  0  0  0  0
  126.8367  127.7838   57.4901 H   0  0  0  0  0  0  0  0  0  0  0  0
  127.9670  126.0270   58.9560 H   0  0  0  0  0  0  0  0  0  0  0  0
  125.4157  125.1362   57.7451 H   0  0  0  0  0  0  0  0  0  0  0  0
  126.7935  125.8385   56.7526 H   0  0  0  0  0  0  0  0  0  0  0  0
  126.8233  123.5483   56.5684 H   0  0  0  0  0  0  0  0  0  0  0  0
  129.0112  123.9895   58.7010 H   0  0  0  0  0  0  0  0  0  0  0  0
  129.1517  123.0976   57.1481 H   0  0  0  0  0  0  0  0  0  0  0  0
  129.0546  124.8913   57.1481 H   0  0  0  0  0  0  0  0  0  0  0  0
  126.9187  122.3118   60.4514 H   0  0  0  0  0  0  0  0  0  0  0  0
  128.2307  125.2321   61.6184 H   0  0  0  0  0  0  0  0  0  0  0  0
  127.9248  123.5334   62.1223 H   0  0  0  0  0  0  0  0  0  0  0  0
  129.8733  121.8866   61.1735 H   0  0  0  0  0  0  0  0  0  0  0  0
  130.3462  123.0487   59.8272 H   0  0  0  0  0  0  0  0  0  0  0  0
  132.2919  123.0893   60.2645 H   0  0  0  0  0  0  0  0  0  0  0  0
  132.5325  120.9726   59.3816 H   0  0  0  0  0  0  0  0  0  0  0  0
  131.6665  119.6912   61.9480 H   0  0  0  0  0  0  0  0  0  0  0  0
  130.7090  119.8686   60.4385 H   0  0  0  0  0  0  0  0  0  0  0  0
  132.2117  118.8844   60.4385 H   0  0  0  0  0  0  0  0  0  0  0  0
  134.1962  120.0518   61.5220 H   0  0  0  0  0  0  0  0  0  0  0  0
  134.7182  121.2588   60.3164 H   0  0  0  0  0  0  0  0  0  0  0  0
  134.4357  121.7091   63.1255 H   0  0  0  0  0  0  0  0  0  0  0  0
  134.6231  122.9816   61.9159 H   0  0  0  0  0  0  0  0  0  0  0  0
  132.1548  121.8927   63.2471 H   0  0  0  0  0  0  0  0  0  0  0  0
  132.3923  124.0014   65.3184 H   0  0  0  0  0  0  0  0  0  0  0  0
  132.7154  125.9590   62.5255 H   0  0  0  0  0  0  0  0  0  0  0  0
  133.0164  124.8444   61.2257 H   0  0  0  0  0  0  0  0  0  0  0  0
  130.8237  125.6988   60.5205 H   0  0  0  0  0  0  0  0  0  0  0  0
  130.0405  127.2184   62.6310 H   0  0  0  0  0  0  0  0  0  0  0  0
  128.6920  125.0336   65.3066 H   0  0  0  0  0  0  0  0  0  0  0  0
  128.9996  127.4300   66.2967 H   0  0  0  0  0  0  0  0  0  0  0  0
  129.8221  127.8059   64.7446 H   0  0  0  0  0  0  0  0  0  0  0  0
  128.1122  127.2558   64.7446 H   0  0  0  0  0  0  0  0  0  0  0  0
  130.1369  125.5151   67.2174 H   0  0  0  0  0  0  0  0  0  0  0  0
  130.9448  124.3402   66.1249 H   0  0  0  0  0  0  0  0  0  0  0  0
  131.4532  126.0631   66.1249 H   0  0  0  0  0  0  0  0  0  0  0  0
  125.0825  124.0940   59.6366 H   0  0  0  0  0  0  0  0  0  0  0  0
  126.2260  124.2750   62.2590 H   0  0  0  0  0  0  0  0  0  0  0  0
  125.3976  126.3359   60.3392 H   0  0  0  0  0  0  0  0  0  0  0  0
  127.0714  125.9118   60.9850 H   0  0  0  0  0  0  0  0  0  0  0  0
  129.1808  126.9910   59.5991 H   0  0  0  0  0  0  0  0  0  0  0  0
  130.8695  128.5061   60.6195 H   0  0  0  0  0  0  0  0  0  0  0  0
  1  2  1  0
  2  3  1  0
  3  4  2  0
  4  5  1  0
  5  6  2  0
  6  7  1  0
  7  8  1  0
  8  9  1  0
  9 10  1  0
 10 11  1  0
 10 12  1  0
 12 13  1  0
 13 14  1  0
 14 15  1  0
 16 15  1  1
 16 17  1  0
 17 18  1  0
 18 19  1  0
 19 20  1  0
 19 21  1  0
 21 22  1  0
 22 23  1  0
 23 24  1  0
 24 25  1  1
 25 26  2  0
 24 27  1  0
 27 28  1  0
 28 29  1  0
 29 30  2  0
 30 31  1  0
 31 32  1  0
 31 33  1  0
 30 34  1  0
 34 35  1  1
 35 36  2  0
 35 37  1  0
 13 38  1  0
 38 39  1  0
 38 40  1  0
  6 41  1  0
 41 42  2  0
 42  3  1  0
 40  8  1  0
 28 16  1  0
 34 16  1  0
 23 18  1  0
 34 24  1  0
  1 43  1  0
  1 44  1  0
  1 45  1  0
  4 46  1  0
  5 47  1  0
  7 48  1  0
  7 49  1  0
  8 50  1  1
  9 51  1  0
  9 52  1  0
 10 53  1  6
 11 54  1  0
 11 55  1  0
 11 56  1  0
 13 57  1  1
 15 58  1  0
 15 59  1  0
 17 60  1  0
 17 61  1  0
 18 62  1  6
 19 63  1  6
 20 64  1  0
 20 65  1  0
 20 66  1  0
 21 67  1  0
 21 68  1  0
 22 69  1  0
 22 70  1  0
 23 71  1  1
 25 72  1  0
 27 73  1  0
 27 74  1  0
 28 75  1  6
 29 76  1  0
 31 77  1  0
 32 78  1  0
 32 79  1  0
 32 80  1  0
 33 81  1  0
 33 82  1  0
 33 83  1  0
 38 84  1  6
 39 85  1  0
 40 86  1  0
 40 87  1  0
 41 88  1  0
 42 89  1  0
M  CHG  2   8   1  37  -1
M  END
>  <Binding energies>  (1) 
[-5.92]

>  <Ligand effiencies>  (1) 
[-0.12869565217391304]

>  <Interactions>  (1) 
["V-A:ILE:369:CG2:3237, V-B:PRO:540:CA:9855, V-A:GLY:454:CA:4049, V-B:GLU:543:CB:9878, V-B:ASP:366:CG:8184, V-B:ALA:541:CB:9864, H-A:ARG:545:NH1:4927, V-B:TYR:539:CE2:9848, V-B:GLU:543:CG:9879, V-B:TYR:539:CZ:9849, H-B:GLU:543:OE1:9881, V-A:GLU:543:CD:4908, V-B:PRO:540:CB:9857, H-A:GLY:454:N:4050, V-A:SER:385:C:3405, V-B:PRO:540:N:9856, V-A:ILE:369:CD1:3239, V-B:TYR:539:CD2:9846, V-A:SER:385:CB:3409, V-B:GLU:543:CD:9880, V-A:LEU:475:CD2:4259, H-A:ARG:545:NH2:4928, H-A:ARG:545:NE:4924, V-A:SER:385:CA:3407, V-B:TYR:539:CE1:9847, H-A:TYR:484:OH:4348"]

$$$$
ZINC253947144
     RDKit          3D

 83 88  0  0  0  0  0  0  0  0999 V2000
  126.6820  123.7730   61.2370 C   0  0  0  0  0  0  0  0  0  0  0  0
  128.0990  123.7310   61.2460 O   0  0  0  0  0  0  0  0  0  0  0  0
  128.5910  124.8840   60.6120 N   0  0  0  0  0  0  0  0  0  0  0  0
  129.3780  125.5420   61.3680 C   0  0  0  0  0  0  0  0  0  0  0  0
  129.8180  125.2300   62.8140 C   0  0  1  0  0  0  0  0  0  0  0  0
  131.3920  125.2200   62.9280 C   0  0  1  0  0  0  0  0  0  0  0  0
  132.1440  123.9390   62.5010 C   0  0  0  0  0  0  0  0  0  0  0  0
  131.5330  122.9530   61.7130 C   0  0  0  0  0  0  0  0  0  0  0  0
  132.2320  121.8160   61.3150 C   0  0  0  0  0  0  0  0  0  0  0  0
  133.5550  121.6440   61.7050 C   0  0  0  0  0  0  0  0  0  0  0  0
  134.1770  122.6070   62.4940 C   0  0  0  0  0  0  0  0  0  0  0  0
  133.4850  123.7610   62.9020 C   0  0  0  0  0  0  0  0  0  0  0  0
  134.0610  124.7500   63.6810 O   0  0  0  0  0  0  0  0  0  0  0  0
  133.5750  124.9850   64.9990 C   0  0  0  0  0  0  0  0  0  0  0  0
  132.0060  126.4400   62.3900 N   0  0  0  0  0  0  0  0  0  0  0  0
  131.5700  126.7910   61.0320 C   0  0  1  0  0  0  0  0  0  0  0  0
  132.2960  125.9890   59.9190 C   0  0  0  0  0  0  0  0  0  0  0  0
  133.2700  125.0230   60.2290 C   0  0  0  0  0  0  0  0  0  0  0  0
  133.9340  124.3200   59.2290 C   0  0  0  0  0  0  0  0  0  0  0  0
  133.6290  124.5560   57.8950 C   0  0  0  0  0  0  0  0  0  0  0  0
  132.6510  125.4870   57.5620 C   0  0  0  0  0  0  0  0  0  0  0  0
  131.9680  126.2050   58.5610 C   0  0  0  0  0  0  0  0  0  0  0  0
  130.9740  127.1250   58.2700 O   0  0  0  0  0  0  0  0  0  0  0  0
  129.8260  126.7200   57.5330 C   0  0  0  0  0  0  0  0  0  0  0  0
  129.9970  126.8860   60.9670 C   0  0  2  0  0  0  0  0  0  0  0  0
  129.3570  127.9840   61.8940 C   0  0  2  0  0  0  0  0  0  0  0  0
  129.8160  129.4010   61.5190 C   0  0  0  0  0  0  0  0  0  0  0  0
  130.7440  129.5910   60.4820 C   0  0  0  0  0  0  0  0  0  0  0  0
  131.1540  130.8700   60.1190 C   0  0  0  0  0  0  0  0  0  0  0  0
  130.6400  131.9790   60.7830 C   0  0  0  0  0  0  0  0  0  0  0  0
  129.7100  131.8070   61.8070 C   0  0  0  0  0  0  0  0  0  0  0  0
  129.2830  130.5210   62.1850 C   0  0  0  0  0  0  0  0  0  0  0  0
  128.3520  130.2930   63.1840 O   0  0  0  0  0  0  0  0  0  0  0  0
  126.9900  130.0600   62.8380 C   0  0  0  0  0  0  0  0  0  0  0  0
  129.4330  127.6910   63.3370 N   0  0  0  0  0  0  0  0  0  0  0  0
  129.1230  126.3040   63.7230 C   0  0  2  0  0  0  0  0  0  0  0  0
  129.3050  126.0050   65.2190 C   0  0  0  0  0  0  0  0  0  0  0  0
  129.8340  124.7750   65.6400 C   0  0  0  0  0  0  0  0  0  0  0  0
  129.9830  124.4880   66.9940 C   0  0  0  0  0  0  0  0  0  0  0  0
  129.6010  125.4270   67.9470 C   0  0  0  0  0  0  0  0  0  0  0  0
  129.0650  126.6480   67.5460 C   0  0  0  0  0  0  0  0  0  0  0  0
  128.9060  126.9520   66.1820 C   0  0  0  0  0  0  0  0  0  0  0  0
  128.3650  128.1430   65.7270 O   0  0  0  0  0  0  0  0  0  0  0  0
  127.7630  129.0430   66.6510 C   0  0  0  0  0  0  0  0  0  0  0  0
  126.3089  123.7841   62.2717 H   0  0  0  0  0  0  0  0  0  0  0  0
  126.3454  124.6815   60.7161 H   0  0  0  0  0  0  0  0  0  0  0  0
  126.2922  122.8860   60.7161 H   0  0  0  0  0  0  0  0  0  0  0  0
  129.5105  124.2254   63.1398 H   0  0  0  0  0  0  0  0  0  0  0  0
  131.5332  125.2069   64.0188 H   0  0  0  0  0  0  0  0  0  0  0  0
  130.4848  123.0796   61.4043 H   0  0  0  0  0  0  0  0  0  0  0  0
  131.7378  121.0552   60.6929 H   0  0  0  0  0  0  0  0  0  0  0  0
  134.1097  120.7477   61.3904 H   0  0  0  0  0  0  0  0  0  0  0  0
  135.2231  122.4636   62.8023 H   0  0  0  0  0  0  0  0  0  0  0  0
  134.3139  124.6277   65.7314 H   0  0  0  0  0  0  0  0  0  0  0  0
  133.4089  126.0630   65.1418 H   0  0  0  0  0  0  0  0  0  0  0  0
  132.6269  124.4458   65.1418 H   0  0  0  0  0  0  0  0  0  0  0  0
  133.0120  126.3380   62.4030 H   0  0  0  0  0  0  0  0  0  0  0  0
  131.9105  127.8083   60.7888 H   0  0  0  0  0  0  0  0  0  0  0  0
  133.5114  124.8194   61.2827 H   0  0  0  0  0  0  0  0  0  0  0  0
  134.7006  123.5773   59.4949 H   0  0  0  0  0  0  0  0  0  0  0  0
  134.1600  124.0075   57.1030 H   0  0  0  0  0  0  0  0  0  0  0  0
  132.4082  125.6644   56.5039 H   0  0  0  0  0  0  0  0  0  0  0  0
  129.0237  126.4370   58.2303 H   0  0  0  0  0  0  0  0  0  0  0  0
  129.4847  127.5520   56.8995 H   0  0  0  0  0  0  0  0  0  0  0  0
  130.0823  125.8580   56.8995 H   0  0  0  0  0  0  0  0  0  0  0  0
  129.7790  127.1649   59.9255 H   0  0  0  0  0  0  0  0  0  0  0  0
  128.2773  127.9472   61.6869 H   0  0  0  0  0  0  0  0  0  0  0  0
  131.1514  128.7183   59.9506 H   0  0  0  0  0  0  0  0  0  0  0  0
  131.8842  131.0042   59.3074 H   0  0  0  0  0  0  0  0  0  0  0  0
  130.9670  132.9905   60.5003 H   0  0  0  0  0  0  0  0  0  0  0  0
  129.3048  132.6881   62.3261 H   0  0  0  0  0  0  0  0  0  0  0  0
  126.3911  129.9575   63.7550 H   0  0  0  0  0  0  0  0  0  0  0  0
  126.6121  130.9065   62.2459 H   0  0  0  0  0  0  0  0  0  0  0  0
  126.9150  129.1360   62.2459 H   0  0  0  0  0  0  0  0  0  0  0  0
  128.9480  128.3740   63.9000 H   0  0  0  0  0  0  0  0  0  0  0  0
  128.0423  126.2160   63.5377 H   0  0  0  0  0  0  0  0  0  0  0  0
  130.1347  124.0282   64.8904 H   0  0  0  0  0  0  0  0  0  0  0  0
  130.4018  123.5211   67.3097 H   0  0  0  0  0  0  0  0  0  0  0  0
  129.7224  125.2048   69.0175 H   0  0  0  0  0  0  0  0  0  0  0  0
  128.7622  127.3839   68.3054 H   0  0  0  0  0  0  0  0  0  0  0  0
  127.9822  128.7153   67.6779 H   0  0  0  0  0  0  0  0  0  0  0  0
  128.1673  130.0540   66.4946 H   0  0  0  0  0  0  0  0  0  0  0  0
  126.6742  129.0553   66.4946 H   0  0  0  0  0  0  0  0  0  0  0  0
  1  2  1  0
  2  3  1  0
  3  4  2  3
  4  5  1  0
  5  6  1  0
  6  7  1  0
  7  8  2  0
  8  9  1  0
  9 10  2  0
 10 11  1  0
 11 12  2  0
 12 13  1  0
 13 14  1  0
  6 15  1  0
 15 16  1  0
 16 17  1  0
 17 18  2  0
 18 19  1  0
 19 20  2  0
 20 21  1  0
 21 22  2  0
 22 23  1  0
 23 24  1  0
 16 25  1  0
 25 26  1  0
 26 27  1  0
 27 28  2  0
 28 29  1  0
 29 30  2  0
 30 31  1  0
 31 32  2  0
 32 33  1  0
 33 34  1  0
 26 35  1  0
 35 36  1  0
 36 37  1  0
 37 38  2  0
 38 39  1  0
 39 40  2  0
 40 41  1  0
 41 42  2  0
 42 43  1  0
 43 44  1  0
 25  4  1  0
 32 27  1  0
 42 37  1  0
 36  5  1  0
 12  7  1  0
 22 17  1  0
  1 45  1  0
  1 46  1  0
  1 47  1  0
  5 48  1  1
  6 49  1  1
  8 50  1  0
  9 51  1  0
 10 52  1  0
 11 53  1  0
 14 54  1  0
 14 55  1  0
 14 56  1  0
 15 57  1  0
 16 58  1  6
 18 59  1  0
 19 60  1  0
 20 61  1  0
 21 62  1  0
 24 63  1  0
 24 64  1  0
 24 65  1  0
 25 66  1  6
 26 67  1  6
 28 68  1  0
 29 69  1  0
 30 70  1  0
 31 71  1  0
 34 72  1  0
 34 73  1  0
 34 74  1  0
 35 75  1  0
 36 76  1  6
 38 77  1  0
 39 78  1  0
 40 79  1  0
 41 80  1  0
 44 81  1  0
 44 82  1  0
 44 83  1  0
M  END
>  <Binding energies>  (1) 
[-6.71]

>  <Ligand effiencies>  (1) 
[-0.1458695652173913]

>  <Interactions>  (1) 
["V-A:ILE:369:CG2:3237, V-A:ASP:366:CA:3210, V-B:PRO:540:CA:9855, V-A:GLY:454:CA:4049, V-B:GLU:543:C:9874, H-A:GLU:543:OE2:4910, V-A:ILE:369:CB:3236, V-B:GLU:543:CB:9878, H-A:ARG:545:NH1:4927, H-A:TYR:531:OH:4795, V-A:TYR:484:CE2:4346, V-B:TYR:539:CE2:9848, V-B:GLU:543:CG:9879, V-A:ASP:366:CG:3213, V-B:TYR:539:CZ:9849, V-A:GLU:543:CD:4908, V-A:TYR:484:CZ:4347, V-B:GLU:543:CA:9876, H-A:GLY:454:N:4050, V-B:HIS:456:CE1:9041, V-A:GLY:453:C:4042, V-A:ILE:369:CD1:3239, V-A:HIS:456:CE1:4070, V-A:ASP:366:C:3208, V-A:GLU:543:CG:4907, V-B:GLU:543:CD:9880, V-A:ASP:366:CB:3212, V-A:ARG:545:CD:4923, V-A:LEU:475:CD2:4259, H-A:ARG:545:NH2:4928, V-A:ARG:545:CZ:4926, H-A:GLU:543:OE1:4909, H-A:ASP:366:OD1:3214, V-A:PRO:540:CB:4885, V-A:PRO:540:CA:4883, H-A:ASP:366:OD2:3215"]

$$$$
ZINC253951366
     RDKit          3D

130133  0  0  0  0  0  0  0  0999 V2000
  133.9440  125.1360   67.2850 C   0  0  0  0  0  0  0  0  0  0  0  0
  132.5700  125.7230   66.9260 C   0  0  0  0  0  0  0  0  0  0  0  0
  132.0130  126.7260   67.9550 C   0  0  0  0  0  0  0  0  0  0  0  0
  130.4980  126.5990   68.1920 C   0  0  0  0  0  0  0  0  0  0  0  0
  129.6820  127.7640   67.5940 C   0  0  0  0  0  0  0  0  0  0  0  0
  128.2570  127.4410   67.4120 N   0  0  0  0  0  0  0  0  0  0  0  0
  127.8350  126.5230   68.4790 C   0  0  0  0  0  0  0  0  0  0  0  0
  127.7540  127.1260   69.9030 C   0  0  0  0  0  0  0  0  0  0  0  0
  128.8620  126.5990   70.8300 C   0  0  0  0  0  0  0  0  0  0  0  0
  128.6960  127.0620   72.2890 C   0  0  0  0  0  0  0  0  0  0  0  0
  127.2340  127.3340   72.6660 C   0  0  0  0  0  0  0  0  0  0  0  0
  127.4060  128.5720   67.3100 N   0  0  0  0  0  0  0  0  0  0  0  0
  127.2260  129.1660   66.1920 C   0  0  0  0  0  0  0  0  0  0  0  0
  127.7470  128.7860   64.8580 C   0  0  0  0  0  0  0  0  0  0  0  0
  128.5260  127.6380   64.7440 C   0  0  0  0  0  0  0  0  0  0  0  0
  129.1300  127.2400   63.5270 C   0  0  0  0  0  0  0  0  0  0  0  0
  129.9000  126.0490   63.4640 C   0  0  0  0  0  0  0  0  0  0  0  0
  130.4840  125.6660   62.2790 C   0  0  0  0  0  0  0  0  0  0  0  0
  130.3820  126.4000   61.1050 C   0  0  0  0  0  0  0  0  0  0  0  0
  131.0850  125.8700   59.8410 C   0  0  0  0  0  0  0  0  0  0  0  0
  129.6240  127.5970   61.1200 C   0  0  0  0  0  0  0  0  0  0  0  0
  129.5280  128.2540   60.0240 O   0  0  0  0  0  0  0  0  0  0  0  0
  128.9640  128.0450   62.3480 C   0  0  0  0  0  0  0  0  0  0  0  0
  128.1480  129.2380   62.4890 C   0  0  0  0  0  0  0  0  0  0  0  0
  128.0060  130.1410   61.4580 O   0  0  0  0  0  0  0  0  0  0  0  0
  127.4970  129.5420   63.7020 C   0  0  0  0  0  0  0  0  0  0  0  0
  126.6520  130.6760   63.7770 N   0  0  0  0  0  0  0  0  0  0  0  0
  127.0070  131.9730   63.6040 C   0  0  0  0  0  0  0  0  0  0  0  0
  126.2000  132.8710   63.8370 O   0  0  0  0  0  0  0  0  0  0  0  0
  128.3480  132.2890   63.1300 C   0  0  0  0  0  0  0  0  0  0  0  0
  129.4380  132.1600   64.1880 C   0  0  0  0  0  0  0  0  0  0  0  0
  128.6070  132.7410   61.8780 C   0  0  0  0  0  0  0  0  0  0  0  0
  127.6410  133.0320   60.8250 C   0  0  0  0  0  0  0  0  0  0  0  0
  127.5480  132.4020   59.6350 C   0  0  0  0  0  0  0  0  0  0  0  0
  128.3850  131.2320   59.1180 C   0  0  2  0  0  0  0  0  0  0  0  0
  129.8430  131.6730   58.8790 C   0  0  0  0  0  0  0  0  0  0  0  0
  127.7890  130.5120   57.8650 C   0  0  2  0  0  0  0  0  0  0  0  0
  127.1390  131.4540   57.0260 O   0  0  0  0  0  0  0  0  0  0  0  0
  126.8400  129.2820   58.0880 C   0  0  2  0  0  0  0  0  0  0  0  0
  125.6100  129.5720   58.9770 C   0  0  0  0  0  0  0  0  0  0  0  0
  127.5290  127.9380   58.4940 C   0  0  2  0  0  0  0  0  0  0  0  0
  127.9300  127.2300   57.3340 O   0  0  0  0  0  0  0  0  0  0  0  0
  126.7290  126.9890   59.4490 C   0  0  2  0  0  0  0  0  0  0  0  0
  126.1840  127.7180   60.7070 C   0  0  0  0  0  0  0  0  0  0  0  0
  127.4080  125.5960   59.7530 C   0  0  2  0  0  0  0  0  0  0  0  0
  127.2720  124.6900   58.6500 O   0  0  0  0  0  0  0  0  0  0  0  0
  128.2810  124.4540   57.7780 C   0  0  0  0  0  0  0  0  0  0  0  0
  127.9520  123.3300   56.8050 C   0  0  0  0  0  0  0  0  0  0  0  0
  129.3600  125.0460   57.7320 O   0  0  0  0  0  0  0  0  0  0  0  0
  127.0820  124.7850   61.0560 C   0  0  1  0  0  0  0  0  0  0  0  0
  125.6880  124.1230   61.0270 C   0  0  0  0  0  0  0  0  0  0  0  0
  128.1940  123.8540   61.6310 C   0  0  2  0  0  0  0  0  0  0  0  0
  128.3280  122.6960   60.8090 O   0  0  0  0  0  0  0  0  0  0  0  0
  129.6600  122.2260   60.6120 C   0  0  0  0  0  0  0  0  0  0  0  0
  127.9330  123.4870   63.0970 C   0  0  0  0  0  0  0  0  0  0  0  0
  128.8390  122.9960   63.9650 C   0  0  0  0  0  0  0  0  0  0  0  0
  130.1480  122.8110   63.6640 O   0  0  0  0  0  0  0  0  0  0  0  0
  130.9890  123.9350   63.6380 C   0  0  1  0  0  0  0  0  0  0  0  0
  132.3450  123.5230   64.2070 C   0  0  0  0  0  0  0  0  0  0  0  0
  131.1730  124.4870   62.3710 O   0  0  0  0  0  0  0  0  0  0  0  0
  130.2370  125.0290   64.4770 C   0  0  0  0  0  0  0  0  0  0  0  0
  130.0010  124.9010   65.6780 O   0  0  0  0  0  0  0  0  0  0  0  0
  134.0490  125.0911   68.3791 H   0  0  0  0  0  0  0  0  0  0  0  0
  134.0304  124.1224   66.8665 H   0  0  0  0  0  0  0  0  0  0  0  0
  134.7361  125.7743   66.8665 H   0  0  0  0  0  0  0  0  0  0  0  0
  132.6590  126.2380   65.9581 H   0  0  0  0  0  0  0  0  0  0  0  0
  131.8663  124.8779   66.9015 H   0  0  0  0  0  0  0  0  0  0  0  0
  132.5284  126.5618   68.9128 H   0  0  0  0  0  0  0  0  0  0  0  0
  132.1893  127.7325   67.5478 H   0  0  0  0  0  0  0  0  0  0  0  0
  130.1515  125.6604   67.7348 H   0  0  0  0  0  0  0  0  0  0  0  0
  130.3380  126.6168   69.2802 H   0  0  0  0  0  0  0  0  0  0  0  0
  129.7609  128.6288   68.2692 H   0  0  0  0  0  0  0  0  0  0  0  0
  130.0984  127.9775   66.5985 H   0  0  0  0  0  0  0  0  0  0  0  0
  126.8370  126.1408   68.2185 H   0  0  0  0  0  0  0  0  0  0  0  0
  128.6153  125.7493   68.5293 H   0  0  0  0  0  0  0  0  0  0  0  0
  127.8468  128.2196   69.8287 H   0  0  0  0  0  0  0  0  0  0  0  0
  126.7872  126.8304   70.3364 H   0  0  0  0  0  0  0  0  0  0  0  0
  128.8448  125.4994   70.8070 H   0  0  0  0  0  0  0  0  0  0  0  0
  129.8175  127.0023   70.4633 H   0  0  0  0  0  0  0  0  0  0  0  0
  129.0898  126.2783   72.9529 H   0  0  0  0  0  0  0  0  0  0  0  0
  129.2471  128.0075   72.4002 H   0  0  0  0  0  0  0  0  0  0  0  0
  127.1351  127.3524   73.7614 H   0  0  0  0  0  0  0  0  0  0  0  0
  126.9236  128.3053   72.2535 H   0  0  0  0  0  0  0  0  0  0  0  0
  126.5950  126.5393   72.2535 H   0  0  0  0  0  0  0  0  0  0  0  0
  126.6059  130.0740   66.2248 H   0  0  0  0  0  0  0  0  0  0  0  0
  128.6787  127.0139   65.6369 H   0  0  0  0  0  0  0  0  0  0  0  0
  131.9319  125.2315   60.1329 H   0  0  0  0  0  0  0  0  0  0  0  0
  130.3719  125.2828   59.2438 H   0  0  0  0  0  0  0  0  0  0  0  0
  131.4533  126.7172   59.2438 H   0  0  0  0  0  0  0  0  0  0  0  0
  128.3820  129.8260   60.6350 H   0  0  0  0  0  0  0  0  0  0  0  0
  125.6920  130.4900   64.0260 H   0  0  0  0  0  0  0  0  0  0  0  0
  128.9854  132.2136   65.1891 H   0  0  0  0  0  0  0  0  0  0  0  0
  129.9520  131.1948   64.0691 H   0  0  0  0  0  0  0  0  0  0  0  0
  130.1631  132.9786   64.0691 H   0  0  0  0  0  0  0  0  0  0  0  0
  129.6654  132.9069   61.6285 H   0  0  0  0  0  0  0  0  0  0  0  0
  126.9208  133.8406   61.0187 H   0  0  0  0  0  0  0  0  0  0  0  0
  126.7725  132.7777   58.9513 H   0  0  0  0  0  0  0  0  0  0  0  0
  128.3634  130.4722   59.9132 H   0  0  0  0  0  0  0  0  0  0  0  0
  130.3436  131.8244   59.8467 H   0  0  0  0  0  0  0  0  0  0  0  0
  130.3728  130.8949   58.3099 H   0  0  0  0  0  0  0  0  0  0  0  0
  129.8528  132.6143   58.3099 H   0  0  0  0  0  0  0  0  0  0  0  0
  128.6820  130.0655   57.4032 H   0  0  0  0  0  0  0  0  0  0  0  0
  127.6340  132.2760   57.0540 H   0  0  0  0  0  0  0  0  0  0  0  0
  126.4720  129.1165   57.0647 H   0  0  0  0  0  0  0  0  0  0  0  0
  125.8989  129.5039   60.0362 H   0  0  0  0  0  0  0  0  0  0  0  0
  125.2338  130.5835   58.7639 H   0  0  0  0  0  0  0  0  0  0  0  0
  124.8216  128.8351   58.7639 H   0  0  0  0  0  0  0  0  0  0  0  0
  128.3914  128.2558   59.0984 H   0  0  0  0  0  0  0  0  0  0  0  0
  127.4970  126.3720   57.3370 H   0  0  0  0  0  0  0  0  0  0  0  0
  125.8458  126.6994   58.8607 H   0  0  0  0  0  0  0  0  0  0  0  0
  126.5584  127.2172   61.6120 H   0  0  0  0  0  0  0  0  0  0  0  0
  126.5231  128.7644   60.7001 H   0  0  0  0  0  0  0  0  0  0  0  0
  125.0844  127.6888   60.7001 H   0  0  0  0  0  0  0  0  0  0  0  0
  128.4273  125.9670   59.9357 H   0  0  0  0  0  0  0  0  0  0  0  0
  127.6866  122.4233   57.3684 H   0  0  0  0  0  0  0  0  0  0  0  0
  127.1039  123.6297   56.1718 H   0  0  0  0  0  0  0  0  0  0  0  0
  128.8278  123.1250   56.1718 H   0  0  0  0  0  0  0  0  0  0  0  0
  127.0547  125.5843   61.8112 H   0  0  0  0  0  0  0  0  0  0  0  0
  125.3392  123.9574   62.0570 H   0  0  0  0  0  0  0  0  0  0  0  0
  124.9804  124.7812   60.5017 H   0  0  0  0  0  0  0  0  0  0  0  0
  125.7509  123.1586   60.5017 H   0  0  0  0  0  0  0  0  0  0  0  0
  129.1472  124.4029   61.6176 H   0  0  0  0  0  0  0  0  0  0  0  0
  130.1375  122.0575   61.5885 H   0  0  0  0  0  0  0  0  0  0  0  0
  129.6361  121.2820   60.0478 H   0  0  0  0  0  0  0  0  0  0  0  0
  130.2338  122.9760   60.0478 H   0  0  0  0  0  0  0  0  0  0  0  0
  126.9112  123.6387   63.4750 H   0  0  0  0  0  0  0  0  0  0  0  0
  128.4970  122.7299   64.9761 H   0  0  0  0  0  0  0  0  0  0  0  0
  132.3009  123.5364   65.3060 H   0  0  0  0  0  0  0  0  0  0  0  0
  132.5943  122.5086   63.8624 H   0  0  0  0  0  0  0  0  0  0  0  0
  133.1165  124.2273   63.8624 H   0  0  0  0  0  0  0  0  0  0  0  0
  1  2  1  0
  2  3  1  0
  3  4  1  0
  4  5  1  0
  5  6  1  0
  6  7  1  0
  7  8  1  0
  8  9  1  0
  9 10  1  0
 10 11  1  0
  6 12  1  0
 12 13  2  0
 13 14  1  0
 14 15  2  0
 15 16  1  0
 16 17  2  0
 17 18  1  0
 18 19  2  0
 19 20  1  0
 19 21  1  0
 21 22  1  0
 21 23  2  0
 23 24  1  0
 24 25  1  0
 24 26  2  0
 26 27  1  0
 27 28  1  0
 28 29  2  0
 28 30  1  0
 30 31  1  0
 30 32  2  0
 32 33  1  0
 33 34  2  0
 34 35  1  0
 35 36  1  0
 35 37  1  0
 37 38  1  0
 37 39  1  0
 39 40  1  0
 39 41  1  0
 41 42  1  0
 41 43  1  0
 43 44  1  0
 43 45  1  0
 45 46  1  0
 46 47  1  0
 47 48  1  0
 47 49  2  0
 45 50  1  0
 50 51  1  0
 50 52  1  0
 52 53  1  0
 53 54  1  0
 52 55  1  0
 55 56  2  0
 56 57  1  0
 57 58  1  0
 58 59  1  1
 58 60  1  0
 58 61  1  0
 61 62  2  0
 26 14  1  0
 23 16  1  0
 61 17  1  0
 60 18  1  0
  1 63  1  0
  1 64  1  0
  1 65  1  0
  2 66  1  0
  2 67  1  0
  3 68  1  0
  3 69  1  0
  4 70  1  0
  4 71  1  0
  5 72  1  0
  5 73  1  0
  7 74  1  0
  7 75  1  0
  8 76  1  0
  8 77  1  0
  9 78  1  0
  9 79  1  0
 10 80  1  0
 10 81  1  0
 11 82  1  0
 11 83  1  0
 11 84  1  0
 13 85  1  0
 15 86  1  0
 20 87  1  0
 20 88  1  0
 20 89  1  0
 25 90  1  0
 27 91  1  0
 31 92  1  0
 31 93  1  0
 31 94  1  0
 32 95  1  0
 33 96  1  0
 34 97  1  0
 35 98  1  1
 36 99  1  0
 36100  1  0
 36101  1  0
 37102  1  6
 38103  1  0
 39104  1  6
 40105  1  0
 40106  1  0
 40107  1  0
 41108  1  1
 42109  1  0
 43110  1  6
 44111  1  0
 44112  1  0
 44113  1  0
 45114  1  1
 48115  1  0
 48116  1  0
 48117  1  0
 50118  1  1
 51119  1  0
 51120  1  0
 51121  1  0
 52122  1  1
 54123  1  0
 54124  1  0
 54125  1  0
 55126  1  0
 56127  1  0
 59128  1  0
 59129  1  0
 59130  1  0
M  CHG  1  22  -1
M  END
>  <Binding energies>  (1) 
[-1.39]

>  <Ligand effiencies>  (1) 
[-0.020441176470588233]

>  <Interactions>  (1) 
["V-B:PRO:540:CA:9855, V-A:GLY:454:CA:4049, V-B:GLU:543:C:9874, V-B:HIS:456:CD2:9039, V-B:TYR:539:CE1:9847, V-B:GLU:543:CB:9878, V-B:ASP:366:CG:8184, V-B:ALA:541:CB:9864, V-B:TYR:539:CE2:9848, V-B:GLU:543:CG:9879, V-A:TYR:539:CD1:4873, V-B:TYR:539:CZ:9849, H-B:TYR:539:OH:9850, V-A:ALA:541:CB:4892, V-B:LYS:547:CE:9922, V-A:GLU:543:CD:4908, V-A:TYR:484:CZ:4347, V-B:ASP:366:CB:8183, V-B:PRO:540:CB:9857, H-B:TYR:484:OH:9319, V-A:ARG:545:CG:4922, V-B:HIS:456:CE1:9041, V-B:GLU:543:CA:9876, V-B:TYR:484:CZ:9318, V-A:HIS:456:CE1:4070, V-B:GLY:544:C:9884, V-A:ALA:541:CA:4890, V-B:TYR:539:CD2:9846, V-A:GLU:543:CG:4907, V-B:GLU:543:CD:9880, V-B:HIS:456:CG:9037, H-B:TYR:531:OH:9767, V-A:ARG:545:CD:4923, V-A:LEU:475:CD2:4259, V-A:ARG:545:CB:4921, V-B:TYR:539:CG:9844, V-A:GLU:543:CB:4906, V-B:TYR:539:CD1:9845, V-A:TYR:539:CE1:4875, H-A:TYR:484:OH:4348"]

$$$$
ZINC254081101
     RDKit          3D

132134  0  0  0  0  0  0  0  0999 V2000
  130.6930  123.0350   65.0050 C   0  0  0  0  0  0  0  0  0  0  0  0
  129.9100  124.2030   65.5670 C   0  0  0  0  0  0  0  0  0  0  0  0
  130.4500  125.3820   65.9270 C   0  0  0  0  0  0  0  0  0  0  0  0
  129.7020  126.5850   66.4920 C   0  0  1  0  0  0  0  0  0  0  0  0
  128.9560  127.2150   65.4370 O   0  0  0  0  0  0  0  0  0  0  0  0
  128.2410  128.3840   65.7740 C   0  0  1  0  0  0  0  0  0  0  0  0
  129.0770  129.3890   66.2170 O   0  0  0  0  0  0  0  0  0  0  0  0
  127.5720  128.9110   64.4580 C   0  0  1  0  0  0  0  0  0  0  0  0
  127.5010  130.4640   64.4460 C   0  0  0  0  0  0  0  0  0  0  0  0
  128.1820  128.3320   63.1310 C   0  0  2  0  0  0  0  0  0  0  0  0
  129.3350  129.0780   62.7760 O   0  0  0  0  0  0  0  0  0  0  0  0
  127.2140  128.2500   61.9040 C   0  0  2  0  0  0  0  0  0  0  0  0
  125.8300  128.8750   62.2250 C   0  0  0  0  0  0  0  0  0  0  0  0
  127.0790  126.7920   61.3500 C   0  0  1  0  0  0  0  0  0  0  0  0
  126.3550  126.8210   60.1130 O   0  0  0  0  0  0  0  0  0  0  0  0
  126.9620  126.6160   58.9130 C   0  0  0  0  0  0  0  0  0  0  0  0
  126.9290  125.5480   58.2940 O   0  0  0  0  0  0  0  0  0  0  0  0
  127.6950  127.8070   58.4280 C   0  0  0  0  0  0  0  0  0  0  0  0
  126.9310  128.9120   58.2050 O   0  0  0  0  0  0  0  0  0  0  0  0
  127.2280  130.0750   58.9790 C   0  0  0  0  0  0  0  0  0  0  0  0
  129.0420  127.8570   58.2790 C   0  0  0  0  0  0  0  0  0  0  0  0
  130.0160  126.8100   58.5810 C   0  0  0  0  0  0  0  0  0  0  0  0
  129.8740  125.4570   57.8980 C   0  0  0  0  0  0  0  0  0  0  0  0
  130.9470  127.0990   59.5200 C   0  0  0  0  0  0  0  0  0  0  0  0
  132.1360  126.3080   60.0880 C   0  0  1  0  0  0  0  0  0  0  0  0
  132.3400  126.2910   61.6180 C   0  0  0  0  0  0  0  0  0  0  0  0
  132.2210  124.8990   59.4270 C   0  0  1  0  0  0  0  0  0  0  0  0
  132.4600  124.9850   58.0310 O   0  0  0  0  0  0  0  0  0  0  0  0
  133.1370  123.8400   60.1590 C   0  0  1  0  0  0  0  0  0  0  0  0
  134.5000  124.5130   60.5070 C   0  0  0  0  0  0  0  0  0  0  0  0
  134.9020  124.3950   61.9880 C   0  0  0  0  0  0  0  0  0  0  0  0
  132.5400  123.0760   61.4190 C   0  0  1  0  0  0  0  0  0  0  0  0
  131.3850  123.6880   61.9670 O   0  0  0  0  0  0  0  0  0  0  0  0
  132.1940  121.5560   61.2350 C   0  0  2  0  0  0  0  0  0  0  0  0
  133.3580  120.7120   60.6740 C   0  0  0  0  0  0  0  0  0  0  0  0
  130.8670  121.2910   60.4620 C   0  0  0  0  0  0  0  0  0  0  0  0
  129.6030  121.1420   61.3220 C   0  0  0  0  0  0  0  0  0  0  0  0
  129.4350  119.7850   61.9930 C   0  0  0  0  0  0  0  0  0  0  0  0
  128.6840  122.1160   61.5150 C   0  0  0  0  0  0  0  0  0  0  0  0
  128.7670  123.4790   61.0230 C   0  0  0  0  0  0  0  0  0  0  0  0
  128.2660  124.5400   61.6790 C   0  0  0  0  0  0  0  0  0  0  0  0
  128.4100  125.9790   61.1990 C   0  0  2  0  0  0  0  0  0  0  0  0
  129.5120  126.6250   61.8400 O   0  0  0  0  0  0  0  0  0  0  0  0
  129.9460  126.0420   63.0640 C   0  0  0  0  0  0  0  0  0  0  0  0
  127.2500  128.0700   66.9220 C   0  0  0  0  0  0  0  0  0  0  0  0
  127.9420  127.3960   68.1300 C   0  0  2  0  0  0  0  0  0  0  0  0
  128.7920  128.3080   68.8310 O   0  0  0  0  0  0  0  0  0  0  0  0
  128.9110  128.1160   70.2060 C   0  0  2  0  0  0  0  0  0  0  0  0
  130.3710  127.7470   70.4700 C   0  0  0  0  0  0  0  0  0  0  0  0
  130.5810  127.4660   71.9690 C   0  0  2  0  0  0  0  0  0  0  0  0
  131.9220  127.0850   72.2130 O   0  0  0  0  0  0  0  0  0  0  0  0
  129.5710  126.4060   72.4610 C   0  0  1  0  0  0  0  0  0  0  0  0
  129.6760  126.1690   73.8540 O   0  0  0  0  0  0  0  0  0  0  0  0
  128.1250  126.7710   72.0290 C   0  0  1  0  0  0  0  0  0  0  0  0
  127.4370  127.8660   72.8770 C   0  0  0  0  0  0  0  0  0  0  0  0
  128.0860  127.0510   70.6200 O   0  0  0  0  0  0  0  0  0  0  0  0
  128.7600  126.1740   67.6580 C   0  0  2  0  0  0  0  0  0  0  0  0
  129.4920  125.5020   68.8430 C   0  0  0  0  0  0  0  0  0  0  0  0
  131.0969  122.4325   65.8319 H   0  0  0  0  0  0  0  0  0  0  0  0
  130.0294  122.4119   64.3874 H   0  0  0  0  0  0  0  0  0  0  0  0
  131.5215  123.4122   64.3874 H   0  0  0  0  0  0  0  0  0  0  0  0
  128.8239  124.0791   65.6896 H   0  0  0  0  0  0  0  0  0  0  0  0
  131.5376  125.4884   65.8014 H   0  0  0  0  0  0  0  0  0  0  0  0
  130.4352  127.2956   66.9013 H   0  0  0  0  0  0  0  0  0  0  0  0
  129.5100  129.0800   67.0150 H   0  0  0  0  0  0  0  0  0  0  0  0
  126.5447  128.5182   64.4751 H   0  0  0  0  0  0  0  0  0  0  0  0
  127.4839  130.8383   65.4802 H   0  0  0  0  0  0  0  0  0  0  0  0
  128.3816  130.8673   63.9246 H   0  0  0  0  0  0  0  0  0  0  0  0
  126.5872  130.7853   63.9246 H   0  0  0  0  0  0  0  0  0  0  0  0
  128.4231  127.2850   63.3668 H   0  0  0  0  0  0  0  0  0  0  0  0
  130.0940  128.4900   62.7870 H   0  0  0  0  0  0  0  0  0  0  0  0
  127.6670  128.8503   61.1012 H   0  0  0  0  0  0  0  0  0  0  0  0
  125.6985  128.9344   63.3155 H   0  0  0  0  0  0  0  0  0  0  0  0
  125.7750  129.8853   61.7935 H   0  0  0  0  0  0  0  0  0  0  0  0
  125.0357  128.2482   61.7935 H   0  0  0  0  0  0  0  0  0  0  0  0
  126.5280  126.2384   62.1245 H   0  0  0  0  0  0  0  0  0  0  0  0
  127.1652  129.8290   60.0493 H   0  0  0  0  0  0  0  0  0  0  0  0
  128.2440  130.4236   58.7419 H   0  0  0  0  0  0  0  0  0  0  0  0
  126.5036  130.8681   58.7419 H   0  0  0  0  0  0  0  0  0  0  0  0
  129.4506  128.7986   57.8834 H   0  0  0  0  0  0  0  0  0  0  0  0
  129.7912  124.6683   58.6603 H   0  0  0  0  0  0  0  0  0  0  0  0
  128.9708  125.4562   57.2701 H   0  0  0  0  0  0  0  0  0  0  0  0
  130.7573  125.2687   57.2701 H   0  0  0  0  0  0  0  0  0  0  0  0
  130.8293  128.0981   59.9648 H   0  0  0  0  0  0  0  0  0  0  0  0
  133.0116  126.9052   59.7934 H   0  0  0  0  0  0  0  0  0  0  0  0
  131.3641  126.3723   62.1190 H   0  0  0  0  0  0  0  0  0  0  0  0
  132.8261  125.3492   61.9127 H   0  0  0  0  0  0  0  0  0  0  0  0
  132.9752  127.1393   61.9127 H   0  0  0  0  0  0  0  0  0  0  0  0
  131.2166  124.4728   59.5667 H   0  0  0  0  0  0  0  0  0  0  0  0
  133.2890  125.4480   57.8940 H   0  0  0  0  0  0  0  0  0  0  0  0
  133.2439  123.0218   59.4316 H   0  0  0  0  0  0  0  0  0  0  0  0
  135.2840  124.0394   59.8979 H   0  0  0  0  0  0  0  0  0  0  0  0
  134.3858  125.5863   60.2950 H   0  0  0  0  0  0  0  0  0  0  0  0
  134.0402  124.6480   62.6231 H   0  0  0  0  0  0  0  0  0  0  0  0
  135.2236  123.3646   62.1997 H   0  0  0  0  0  0  0  0  0  0  0  0
  135.7295  125.0881   62.1997 H   0  0  0  0  0  0  0  0  0  0  0  0
  133.4001  123.1490   62.1009 H   0  0  0  0  0  0  0  0  0  0  0  0
  131.6440  124.1650   62.7610 H   0  0  0  0  0  0  0  0  0  0  0  0
  132.0233  121.2074   62.2642 H   0  0  0  0  0  0  0  0  0  0  0  0
  133.9397  120.2902   61.5069 H   0  0  0  0  0  0  0  0  0  0  0  0
  132.9547  119.8950   60.0576 H   0  0  0  0  0  0  0  0  0  0  0  0
  134.0092  121.3492   60.0576 H   0  0  0  0  0  0  0  0  0  0  0  0
  130.7065  122.1320   59.7713 H   0  0  0  0  0  0  0  0  0  0  0  0
  131.0031  120.3190   59.9653 H   0  0  0  0  0  0  0  0  0  0  0  0
  129.4507  119.9117   63.0856 H   0  0  0  0  0  0  0  0  0  0  0  0
  128.4751  119.3420   61.6890 H   0  0  0  0  0  0  0  0  0  0  0  0
  130.2578  119.1213   61.6890 H   0  0  0  0  0  0  0  0  0  0  0  0
  127.7907  121.8502   62.0992 H   0  0  0  0  0  0  0  0  0  0  0  0
  129.2679  123.6535   60.0594 H   0  0  0  0  0  0  0  0  0  0  0  0
  127.7204  124.3589   62.6168 H   0  0  0  0  0  0  0  0  0  0  0  0
  128.6267  125.9458   60.1211 H   0  0  0  0  0  0  0  0  0  0  0  0
  129.5253  126.6071   63.9088 H   0  0  0  0  0  0  0  0  0  0  0  0
  129.6036  124.9979   63.1145 H   0  0  0  0  0  0  0  0  0  0  0  0
  131.0445  126.0705   63.1145 H   0  0  0  0  0  0  0  0  0  0  0  0
  126.7894  129.0106   67.2583 H   0  0  0  0  0  0  0  0  0  0  0  0
  126.4968  127.3691   66.5328 H   0  0  0  0  0  0  0  0  0  0  0  0
  127.1545  127.0676   68.8243 H   0  0  0  0  0  0  0  0  0  0  0  0
  128.6116  129.0214   70.7543 H   0  0  0  0  0  0  0  0  0  0  0  0
  130.6298  126.8481   69.8912 H   0  0  0  0  0  0  0  0  0  0  0  0
  131.0155  128.5850   70.1663 H   0  0  0  0  0  0  0  0  0  0  0  0
  130.3940  128.3854   72.5432 H   0  0  0  0  0  0  0  0  0  0  0  0
  132.5020  127.7160   71.7810 H   0  0  0  0  0  0  0  0  0  0  0  0
  129.8277  125.4540   71.9733 H   0  0  0  0  0  0  0  0  0  0  0  0
  130.5810  126.3380   74.1240 H   0  0  0  0  0  0  0  0  0  0  0  0
  127.5126  125.8805   72.2342 H   0  0  0  0  0  0  0  0  0  0  0  0
  127.5764  127.6441   73.9453 H   0  0  0  0  0  0  0  0  0  0  0  0
  127.8831  128.8442   72.6444 H   0  0  0  0  0  0  0  0  0  0  0  0
  126.3621  127.8886   72.6444 H   0  0  0  0  0  0  0  0  0  0  0  0
  128.0803  125.4060   67.2603 H   0  0  0  0  0  0  0  0  0  0  0  0
  129.0802  125.8801   69.7903 H   0  0  0  0  0  0  0  0  0  0  0  0
  129.3509  124.4123   68.7908 H   0  0  0  0  0  0  0  0  0  0  0  0
  130.5656  125.7356   68.7908 H   0  0  0  0  0  0  0  0  0  0  0  0
  1  2  1  0
  2  3  2  0
  3  4  1  0
  4  5  1  0
  5  6  1  0
  6  7  1  1
  6  8  1  0
  8  9  1  0
  8 10  1  0
 10 11  1  0
 10 12  1  0
 12 13  1  0
 12 14  1  0
 14 15  1  0
 15 16  1  0
 16 17  2  0
 16 18  1  0
 18 19  1  0
 19 20  1  0
 18 21  2  0
 21 22  1  0
 22 23  1  0
 22 24  2  0
 24 25  1  0
 25 26  1  0
 25 27  1  0
 27 28  1  0
 27 29  1  0
 29 30  1  0
 30 31  1  0
 29 32  1  0
 32 33  1  0
 32 34  1  0
 34 35  1  0
 34 36  1  0
 36 37  1  0
 37 38  1  0
 37 39  2  0
 39 40  1  0
 40 41  2  0
 41 42  1  0
 42 43  1  0
 43 44  1  0
  6 45  1  0
 45 46  1  0
 46 47  1  0
 47 48  1  0
 48 49  1  0
 49 50  1  0
 50 51  1  0
 50 52  1  0
 52 53  1  0
 52 54  1  0
 54 55  1  0
 54 56  1  0
 46 57  1  0
 57 58  1  0
 57  4  1  0
 42 14  1  0
 56 48  1  0
  1 59  1  0
  1 60  1  0
  1 61  1  0
  2 62  1  0
  3 63  1  0
  4 64  1  1
  7 65  1  0
  8 66  1  1
  9 67  1  0
  9 68  1  0
  9 69  1  0
 10 70  1  1
 11 71  1  0
 12 72  1  6
 13 73  1  0
 13 74  1  0
 13 75  1  0
 14 76  1  1
 20 77  1  0
 20 78  1  0
 20 79  1  0
 21 80  1  0
 23 81  1  0
 23 82  1  0
 23 83  1  0
 24 84  1  0
 25 85  1  6
 26 86  1  0
 26 87  1  0
 26 88  1  0
 27 89  1  6
 28 90  1  0
 29 91  1  6
 30 92  1  0
 30 93  1  0
 31 94  1  0
 31 95  1  0
 31 96  1  0
 32 97  1  1
 33 98  1  0
 34 99  1  1
 35100  1  0
 35101  1  0
 35102  1  0
 36103  1  0
 36104  1  0
 38105  1  0
 38106  1  0
 38107  1  0
 39108  1  0
 40109  1  0
 41110  1  0
 42111  1  6
 44112  1  0
 44113  1  0
 44114  1  0
 45115  1  0
 45116  1  0
 46117  1  1
 48118  1  1
 49119  1  0
 49120  1  0
 50121  1  1
 51122  1  0
 52123  1  6
 53124  1  0
 54125  1  6
 55126  1  0
 55127  1  0
 55128  1  0
 57129  1  6
 58130  1  0
 58131  1  0
 58132  1  0
M  END
>  <Binding energies>  (1) 
[-1.16]

>  <Ligand effiencies>  (1) 
[-0.017575757575757574]

>  <Interactions>  (1) 
["V-A:ILE:369:CG2:3237, V-A:ASP:366:CA:3210, V-B:PRO:540:CA:9855, V-B:GLU:543:C:9874, H-A:GLU:543:OE2:4910, V-B:HIS:456:CD2:9039, V-A:ILE:369:CB:3236, V-B:GLU:543:CB:9878, H-B:LYS:547:NZ:9923, V-B:ASP:366:CG:8184, V-B:ALA:541:CB:9864, V-B:TYR:539:CE2:9848, V-A:TYR:484:CE2:4346, V-B:GLU:543:CG:9879, V-A:GLY:544:C:4912, V-A:HIS:456:CD2:4068, V-A:ASP:366:CG:3213, V-B:TYR:539:CZ:9849, H-B:TYR:539:OH:9850, V-A:LEU:475:CD1:4258, V-A:GLU:543:CD:4908, V-A:TYR:484:CZ:4347, V-B:HIS:456:CE1:9041, V-B:GLU:543:CA:9876, V-A:GLY:453:C:4042, V-A:HIS:456:CE1:4070, V-A:ILE:369:CD1:3239, V-B:TYR:539:CD2:9846, V-A:GLU:543:CG:4907, V-A:SER:385:CB:3409, V-B:GLU:543:CD:9880, V-B:HIS:456:CG:9037, H-B:TYR:531:OH:9767, V-A:ASP:366:CB:3212, V-A:LEU:475:CD2:4259, V-A:ARG:545:CZ:4926, H-A:GLU:543:OE1:4909, H-A:ASP:366:O:3209, V-A:GLY:453:CA:4044, V-A:SER:385:CA:3407, V-B:PRO:540:C:9853, V-B:ALA:541:CA:9862, H-A:GLY:544:O:4913, H-A:HIS:456:NE2:4071, H-A:HIS:456:ND1:4067"]

$$$$
ZINC2543330
     RDKit          3D

 57 60  0  0  0  0  0  0  0  0999 V2000
  132.9980  129.8360   57.5230 C   0  0  0  0  0  0  0  0  0  0  0  0
  131.6640  130.6010   57.5430 C   0  0  2  0  0  0  0  0  0  0  0  0
  131.8100  131.6570   58.5010 O   0  0  0  0  0  0  0  0  0  0  0  0
  130.7640  132.0530   59.3220 C   0  0  0  0  0  0  0  0  0  0  0  0
  130.6440  131.6550   60.6660 C   0  0  0  0  0  0  0  0  0  0  0  0
  129.5870  132.1060   61.4540 C   0  0  0  0  0  0  0  0  0  0  0  0
  128.6300  132.9580   60.9130 C   0  0  0  0  0  0  0  0  0  0  0  0
  128.7260  133.3510   59.5820 C   0  0  0  0  0  0  0  0  0  0  0  0
  129.7820  132.9020   58.7740 C   0  0  0  0  0  0  0  0  0  0  0  0
  129.8390  133.3420   57.3610 N   0  0  0  0  0  0  0  0  0  0  0  0
  128.7960  133.3910   56.7160 O   0  0  0  0  0  0  0  0  0  0  0  0
  130.9310  133.6630   56.9020 O   0  0  0  0  0  0  0  0  0  0  0  0
  130.5030  129.6640   57.9440 C   0  0  0  0  0  0  0  0  0  0  0  0
  129.3710  130.1220   58.1190 O   0  0  0  0  0  0  0  0  0  0  0  0
  130.8170  128.3580   58.0390 N   0  0  0  0  0  0  0  0  0  0  0  0
  129.8970  127.4040   58.2680 N   0  0  0  0  0  0  0  0  0  0  0  0
  130.4270  126.2960   58.5980 C   0  0  0  0  0  0  0  0  0  0  0  0
  129.6540  125.0650   58.8600 C   0  0  0  0  0  0  0  0  0  0  0  0
  130.2160  124.1030   59.7280 C   0  0  0  0  0  0  0  0  0  0  0  0
  131.4660  124.2860   60.2920 O   0  0  0  0  0  0  0  0  0  0  0  0
  131.9320  123.4160   61.2410 C   0  0  0  0  0  0  0  0  0  0  0  0
  132.4280  122.3150   60.9880 O   0  0  0  0  0  0  0  0  0  0  0  0
  131.7390  123.9440   62.6340 C   0  0  0  0  0  0  0  0  0  0  0  0
  130.4650  123.8610   63.2270 C   0  0  0  0  0  0  0  0  0  0  0  0
  130.2400  124.3230   64.5210 C   0  0  0  0  0  0  0  0  0  0  0  0
  131.2850  124.8860   65.2490 C   0  0  0  0  0  0  0  0  0  0  0  0
  131.0090  125.4590   66.8530 Cl  0  0  0  0  0  0  0  0  0  0  0  0
  132.5510  124.9860   64.6790 C   0  0  0  0  0  0  0  0  0  0  0  0
  132.7900  124.5230   63.3820 C   0  0  0  0  0  0  0  0  0  0  0  0
  134.3950  124.7230   62.7590 Cl  0  0  0  0  0  0  0  0  0  0  0  0
  129.5630  122.9000   59.9810 C   0  0  0  0  0  0  0  0  0  0  0  0
  128.3350  122.6160   59.4080 C   0  0  0  0  0  0  0  0  0  0  0  0
  127.7160  123.5450   58.5470 C   0  0  0  0  0  0  0  0  0  0  0  0
  126.4550  123.2550   57.9660 C   0  0  0  0  0  0  0  0  0  0  0  0
  125.8350  124.1720   57.1270 C   0  0  0  0  0  0  0  0  0  0  0  0
  126.4440  125.3890   56.8490 C   0  0  0  0  0  0  0  0  0  0  0  0
  127.6810  125.7030   57.4010 C   0  0  0  0  0  0  0  0  0  0  0  0
  128.3670  124.7900   58.2620 C   0  0  0  0  0  0  0  0  0  0  0  0
  133.3277  129.6469   58.5552 H   0  0  0  0  0  0  0  0  0  0  0  0
  132.8634  128.8778   56.9997 H   0  0  0  0  0  0  0  0  0  0  0  0
  133.7570  130.4361   56.9997 H   0  0  0  0  0  0  0  0  0  0  0  0
  131.4267  131.0010   56.5462 H   0  0  0  0  0  0  0  0  0  0  0  0
  131.3947  130.9786   61.1007 H   0  0  0  0  0  0  0  0  0  0  0  0
  129.5094  131.7881   62.5042 H   0  0  0  0  0  0  0  0  0  0  0  0
  127.7991  133.3203   61.5362 H   0  0  0  0  0  0  0  0  0  0  0  0
  127.9647  134.0221   59.1576 H   0  0  0  0  0  0  0  0  0  0  0  0
  131.7560  128.0260   57.8680 H   0  0  0  0  0  0  0  0  0  0  0  0
  131.5220  126.2520   58.6936 H   0  0  0  0  0  0  0  0  0  0  0  0
  129.6319  123.4231   62.6576 H   0  0  0  0  0  0  0  0  0  0  0  0
  129.2379  124.2434   64.9677 H   0  0  0  0  0  0  0  0  0  0  0  0
  133.3730  125.4347   65.2561 H   0  0  0  0  0  0  0  0  0  0  0  0
  130.0312  122.1615   60.6484 H   0  0  0  0  0  0  0  0  0  0  0  0
  127.8389  121.6588   59.6261 H   0  0  0  0  0  0  0  0  0  0  0  0
  125.9635  122.2949   58.1819 H   0  0  0  0  0  0  0  0  0  0  0  0
  124.8581  123.9336   56.6811 H   0  0  0  0  0  0  0  0  0  0  0  0
  125.9435  126.1105   56.1865 H   0  0  0  0  0  0  0  0  0  0  0  0
  128.1420  126.6748   57.1704 H   0  0  0  0  0  0  0  0  0  0  0  0
  1  2  1  0
  2  3  1  0
  3  4  1  0
  4  5  2  0
  5  6  1  0
  6  7  2  0
  7  8  1  0
  8  9  2  0
  9 10  1  0
 10 11  2  0
 10 12  1  0
  2 13  1  0
 13 14  2  0
 13 15  1  0
 15 16  1  0
 16 17  2  0
 17 18  1  0
 18 19  1  0
 19 20  1  0
 20 21  1  0
 21 22  2  0
 21 23  1  0
 23 24  2  0
 24 25  1  0
 25 26  2  0
 26 27  1  0
 26 28  1  0
 28 29  2  0
 29 30  1  0
 19 31  2  0
 31 32  1  0
 32 33  2  0
 33 34  1  0
 34 35  2  0
 35 36  1  0
 36 37  2  0
 37 38  1  0
  9  4  1  0
 38 18  2  0
 29 23  1  0
 38 33  1  0
  1 39  1  0
  1 40  1  0
  1 41  1  0
  2 42  1  6
  5 43  1  0
  6 44  1  0
  7 45  1  0
  8 46  1  0
 15 47  1  0
 17 48  1  0
 24 49  1  0
 25 50  1  0
 28 51  1  0
 31 52  1  0
 32 53  1  0
 34 54  1  0
 35 55  1  0
 36 56  1  0
 37 57  1  0
M  CHG  2  10   1  12  -1
M  END
>  <Binding energies>  (1) 
[-9.24]

>  <Ligand effiencies>  (1) 
[-0.23692307692307693]

>  <Interactions>  (1) 
["V-B:PRO:540:CA:9855, H-A:TYR:531:OH:4795, V-B:TYR:539:CE2:9848, V-B:GLU:543:CG:9879, V-B:TYR:539:C:9839, V-A:ASP:366:CG:3213, V-A:LEU:363:CD1:3189, V-A:TYR:539:CD1:4873, V-A:TYR:531:CE2:4793, V-B:TYR:531:CZ:9766, V-A:TYR:539:CA:4869, V-B:TYR:531:CE2:9765, V-A:TYR:484:CZ:4347, V-B:PRO:540:CB:9857, V-A:GLY:453:C:4042, V-B:PRO:540:N:9856, V-A:ILE:369:CD1:3239, V-A:HIS:456:CE1:4070, V-B:TYR:539:CD2:9846, V-A:TYR:531:CZ:4794, V-A:TYR:539:C:4867, V-A:ASP:366:CB:3212, V-A:ARG:545:CZ:4926, V-A:PRO:540:N:4884, H-A:TYR:539:N:4870, V-A:PRO:540:CB:4885, V-A:PRO:540:CA:4883, V-A:GLY:453:CA:4044, V-B:MET:535:CE:9807, H-A:ASP:366:OD2:3215, V-A:PRO:540:CD:4887, V-A:TYR:539:CE1:4875"]

$$$$
ZINC254371967
     RDKit          3D

 37 38  0  0  0  0  0  0  0  0999 V2000
  134.3430  126.4890   75.3860 C   0  0  0  0  0  0  0  0  0  0  0  0
  133.2140  126.6080   74.3510 C   0  0  0  0  0  0  0  0  0  0  0  0
  131.9410  126.7720   74.9700 O   0  0  0  0  0  0  0  0  0  0  0  0
  130.9530  125.8480   74.8340 C   0  0  0  0  0  0  0  0  0  0  0  0
  130.8850  124.7960   75.4750 O   0  0  0  0  0  0  0  0  0  0  0  0
  129.9060  126.2560   73.8740 C   0  0  0  0  0  0  0  0  0  0  0  0
  129.1130  125.4330   73.2700 N   0  0  0  0  0  0  0  0  0  0  0  0
  129.2050  124.0600   73.6040 O   0  0  0  0  0  0  0  0  0  0  0  0
  129.7710  127.7040   73.6020 C   0  0  0  0  0  0  0  0  0  0  0  0
  130.2250  128.4140   72.4610 C   0  0  0  0  0  0  0  0  0  0  0  0
  130.9410  127.9140   71.2210 C   0  0  0  0  0  0  0  0  0  0  0  0
  129.9490  129.6940   72.5260 N   0  0  0  0  0  0  0  0  0  0  0  0
  129.2950  129.8800   73.6770 N   0  0  0  0  0  0  0  0  0  0  0  0
  128.8330  131.1780   73.9970 C   0  0  0  0  0  0  0  0  0  0  0  0
  127.5660  131.3500   74.5690 C   0  0  0  0  0  0  0  0  0  0  0  0
  127.1070  132.6280   74.8750 C   0  0  0  0  0  0  0  0  0  0  0  0
  127.9110  133.7330   74.6060 C   0  0  0  0  0  0  0  0  0  0  0  0
  129.1700  133.5740   74.0310 C   0  0  0  0  0  0  0  0  0  0  0  0
  129.6320  132.2970   73.7230 C   0  0  0  0  0  0  0  0  0  0  0  0
  129.1770  128.7060   74.3930 C   0  0  0  0  0  0  0  0  0  0  0  0
  128.5440  128.6630   75.7770 C   0  0  0  0  0  0  0  0  0  0  0  0
  133.9176  126.5338   76.3994 H   0  0  0  0  0  0  0  0  0  0  0  0
  134.8658  125.5308   75.2498 H   0  0  0  0  0  0  0  0  0  0  0  0
  135.0540  127.3172   75.2498 H   0  0  0  0  0  0  0  0  0  0  0  0
  133.4115  127.4782   73.7078 H   0  0  0  0  0  0  0  0  0  0  0  0
  133.1904  125.6782   73.7638 H   0  0  0  0  0  0  0  0  0  0  0  0
  131.8093  127.3077   71.5184 H   0  0  0  0  0  0  0  0  0  0  0  0
  130.2523  127.2995   70.6226 H   0  0  0  0  0  0  0  0  0  0  0  0
  131.2807  128.7722   70.6226 H   0  0  0  0  0  0  0  0  0  0  0  0
  126.9333  130.4745   74.7765 H   0  0  0  0  0  0  0  0  0  0  0  0
  126.1136  132.7646   75.3273 H   0  0  0  0  0  0  0  0  0  0  0  0
  127.5480  134.7423   74.8502 H   0  0  0  0  0  0  0  0  0  0  0  0
  129.7964  134.4535   73.8212 H   0  0  0  0  0  0  0  0  0  0  0  0
  130.6235  132.1662   73.2649 H   0  0  0  0  0  0  0  0  0  0  0  0
  129.3321  128.7165   76.5425 H   0  0  0  0  0  0  0  0  0  0  0  0
  127.8604  129.5168   75.8942 H   0  0  0  0  0  0  0  0  0  0  0  0
  127.9821  127.7246   75.8942 H   0  0  0  0  0  0  0  0  0  0  0  0
  1  2  1  0
  2  3  1  0
  3  4  1  0
  4  5  2  0
  4  6  1  0
  6  7  2  0
  7  8  1  0
  6  9  1  0
  9 10  1  0
 10 11  1  0
 10 12  2  0
 12 13  1  0
 13 14  1  0
 14 15  2  0
 15 16  1  0
 16 17  2  0
 17 18  1  0
 18 19  2  0
 13 20  1  0
 20 21  1  0
 20  9  2  0
 19 14  1  0
  1 22  1  0
  1 23  1  0
  1 24  1  0
  2 25  1  0
  2 26  1  0
 11 27  1  0
 11 28  1  0
 11 29  1  0
 15 30  1  0
 16 31  1  0
 17 32  1  0
 18 33  1  0
 19 34  1  0
 21 35  1  0
 21 36  1  0
 21 37  1  0
M  CHG  1   8  -1
M  END
>  <Binding energies>  (1) 
[-6.36]

>  <Ligand effiencies>  (1) 
[-0.3028571428571429]

>  <Interactions>  (1) 
["V-A:HIS:456:CE1:4070, V-B:HIS:456:CD2:9039, V-A:LYS:547:CG:4948, V-A:LYS:547:CE:4950, V-A:GLU:543:C:4902, V-B:ASP:473:CB:9210, V-A:HIS:456:CB:4065, H-B:LYS:547:NZ:9923, V-B:ASP:473:CG:9211, V-B:HIS:456:CB:9036, V-B:HIS:456:CG:9037, V-B:TYR:484:CB:9312, H-A:LYS:547:NZ:4951, V-A:VAL:458:CG2:4087, V-A:GLY:544:C:4912, V-A:HIS:456:CD2:4068, V-A:HIS:456:CG:4066"]

$$$$
ZINC254429595
     RDKit          3D

 51 54  0  0  0  0  0  0  0  0999 V2000
  130.3750  121.6400   65.0950 O   0  0  0  0  0  0  0  0  0  0  0  0
  129.9130  122.7670   64.9190 C   0  0  0  0  0  0  0  0  0  0  0  0
  128.9350  123.0620   63.7510 C   0  0  0  0  0  0  0  0  0  0  0  0
  129.6130  123.1450   62.4460 N   0  0  0  0  0  0  0  0  0  0  0  0
  129.7320  122.0290   61.7230 N   0  0  0  0  0  0  0  0  0  0  0  0
  130.4130  122.3600   60.7280 C   0  0  0  0  0  0  0  0  0  0  0  0
  130.7550  123.6610   60.7260 N   0  0  0  0  0  0  0  0  0  0  0  0
  131.5460  124.2830   59.7340 C   0  0  0  0  0  0  0  0  0  0  0  0
  132.8490  123.8240   59.4930 C   0  0  0  0  0  0  0  0  0  0  0  0
  133.6310  124.4290   58.5120 C   0  0  0  0  0  0  0  0  0  0  0  0
  133.1110  125.4870   57.7700 C   0  0  0  0  0  0  0  0  0  0  0  0
  131.8160  125.9460   57.9960 C   0  0  0  0  0  0  0  0  0  0  0  0
  131.0310  125.3430   58.9750 C   0  0  0  0  0  0  0  0  0  0  0  0
  130.2420  124.2170   61.8710 C   0  0  0  0  0  0  0  0  0  0  0  0
  130.3670  125.7840   62.4610 S   0  0  0  0  0  0  0  0  0  0  0  0
  130.2460  123.7800   65.7460 N   0  0  0  0  0  0  0  0  0  0  0  0
  129.7650  125.0280   65.5820 N   0  0  0  0  0  0  0  0  0  0  0  0
  129.5540  125.6570   66.6630 C   0  0  0  0  0  0  0  0  0  0  0  0
  129.0290  127.0360   66.7080 C   0  0  0  0  0  0  0  0  0  0  0  0
  128.6350  127.6090   65.4890 C   0  0  0  0  0  0  0  0  0  0  0  0
  128.1310  128.9060   65.4290 C   0  0  0  0  0  0  0  0  0  0  0  0
  128.0170  129.6640   66.5890 C   0  0  0  0  0  0  0  0  0  0  0  0
  128.4080  129.1220   67.8090 C   0  0  0  0  0  0  0  0  0  0  0  0
  128.9030  127.8120   67.8870 C   0  0  0  0  0  0  0  0  0  0  0  0
  129.3170  127.3440   69.1220 O   0  0  0  0  0  0  0  0  0  0  0  0
  130.4840  127.7900   69.6770 C   0  0  0  0  0  0  0  0  0  0  0  0
  131.5930  127.7170   69.1410 O   0  0  0  0  0  0  0  0  0  0  0  0
  130.2510  128.3310   71.0200 C   0  0  0  0  0  0  0  0  0  0  0  0
  129.2090  128.1350   71.8710 C   0  0  0  0  0  0  0  0  0  0  0  0
  129.1150  128.8720   73.4770 S   0  0  0  0  0  0  0  0  0  0  0  0
  127.6040  128.0020   73.8500 C   0  0  0  0  0  0  0  0  0  0  0  0
  126.9950  128.0680   74.9150 O   0  0  0  0  0  0  0  0  0  0  0  0
  127.2820  127.2870   72.7720 N   0  0  0  0  0  0  0  0  0  0  0  0
  128.0490  127.2740   71.6720 C   0  0  0  0  0  0  0  0  0  0  0  0
  127.7690  126.5900   70.6900 O   0  0  0  0  0  0  0  0  0  0  0  0
  128.1864  122.2572   63.7076 H   0  0  0  0  0  0  0  0  0  0  0  0
  128.4715  124.0403   63.9462 H   0  0  0  0  0  0  0  0  0  0  0  0
  130.7036  121.6572   59.9333 H   0  0  0  0  0  0  0  0  0  0  0  0
  133.2537  122.9857   60.0790 H   0  0  0  0  0  0  0  0  0  0  0  0
  134.6547  124.0729   58.3240 H   0  0  0  0  0  0  0  0  0  0  0  0
  133.7303  125.9652   56.9969 H   0  0  0  0  0  0  0  0  0  0  0  0
  131.4149  126.7815   57.4035 H   0  0  0  0  0  0  0  0  0  0  0  0
  130.0055  125.6988   59.1531 H   0  0  0  0  0  0  0  0  0  0  0  0
  130.8740  123.6480   66.5250 H   0  0  0  0  0  0  0  0  0  0  0  0
  129.7731  125.1498   67.6142 H   0  0  0  0  0  0  0  0  0  0  0  0
  128.7260  127.0224   64.5629 H   0  0  0  0  0  0  0  0  0  0  0  0
  127.8227  129.3313   64.4625 H   0  0  0  0  0  0  0  0  0  0  0  0
  127.6191  130.6884   66.5422 H   0  0  0  0  0  0  0  0  0  0  0  0
  128.3280  129.7281   68.7235 H   0  0  0  0  0  0  0  0  0  0  0  0
  131.0406  128.9978   71.3967 H   0  0  0  0  0  0  0  0  0  0  0  0
  126.4440  126.7240   72.7900 H   0  0  0  0  0  0  0  0  0  0  0  0
  1  2  2  0
  2  3  1  0
  3  4  1  0
  4  5  1  0
  5  6  2  0
  6  7  1  0
  7  8  1  0
  8  9  2  0
  9 10  1  0
 10 11  2  0
 11 12  1  0
 12 13  2  0
  7 14  1  0
 14 15  2  0
  2 16  1  0
 16 17  1  0
 17 18  2  0
 18 19  1  0
 19 20  2  0
 20 21  1  0
 21 22  2  0
 22 23  1  0
 23 24  2  0
 24 25  1  0
 25 26  1  0
 26 27  2  0
 26 28  1  0
 28 29  2  0
 29 30  1  0
 30 31  1  0
 31 32  2  0
 31 33  1  0
 33 34  1  0
 34 35  2  0
 14  4  1  0
 24 19  1  0
 34 29  1  0
 13  8  1  0
  3 36  1  0
  3 37  1  0
  6 38  1  0
  9 39  1  0
 10 40  1  0
 11 41  1  0
 12 42  1  0
 13 43  1  0
 16 44  1  0
 18 45  1  0
 20 46  1  0
 21 47  1  0
 22 48  1  0
 23 49  1  0
 28 50  1  0
 33 51  1  0
M  END
>  <Binding energies>  (1) 
[-8.48]

>  <Ligand effiencies>  (1) 
[-0.2291891891891892]

>  <Interactions>  (1) 
["V-A:ILE:369:CG2:3237, V-A:ASP:366:CA:3210, V-A:GLU:543:CA:4904, V-B:HIS:456:CD2:9039, V-A:ILE:369:CB:3236, V-A:GLU:543:C:4902, V-B:GLU:543:CB:9878, H-B:LYS:547:NZ:9923, V-B:ALA:541:CB:9864, V-B:TYR:539:CE2:9848, V-A:TYR:484:CE2:4346, V-B:GLU:543:CG:9879, V-A:GLY:544:C:4912, V-A:ASP:366:CG:3213, H-A:ARG:545:N:4920, V-B:TYR:484:CE2:9317, V-B:LYS:547:CE:9922, V-A:GLU:543:CD:4908, V-A:TYR:484:CZ:4347, V-B:HIS:456:CE1:9041, V-B:TYR:484:CZ:9318, V-A:HIS:456:CE1:4070, V-A:ASP:366:C:3208, V-B:GLY:544:C:9884, V-B:TYR:539:CD2:9846, V-A:GLU:543:CG:4907, V-B:GLU:543:CD:9880, V-B:HIS:456:CG:9037, V-A:ASP:366:CB:3212, H-A:LYS:547:NZ:4951, V-A:LEU:475:CD2:4259, V-A:GLU:543:CB:4906, H-B:GLY:544:O:9885, H-A:HIS:456:ND1:4067, H-A:TYR:484:OH:4348"]

$$$$
ZINC2544377
     RDKit          3D

 51 53  0  0  0  0  0  0  0  0999 V2000
  131.5470  126.4500   60.8490 C   0  0  0  0  0  0  0  0  0  0  0  0
  131.5420  125.2080   59.9390 C   0  0  2  0  0  0  0  0  0  0  0  0
  132.1500  124.1560   60.7010 O   0  0  0  0  0  0  0  0  0  0  0  0
  131.5360  123.6170   61.8220 C   0  0  0  0  0  0  0  0  0  0  0  0
  130.2230  123.1110   61.8140 C   0  0  0  0  0  0  0  0  0  0  0  0
  129.6580  122.5640   62.9640 C   0  0  0  0  0  0  0  0  0  0  0  0
  130.3950  122.5140   64.1430 C   0  0  0  0  0  0  0  0  0  0  0  0
  131.6940  123.0140   64.1700 C   0  0  0  0  0  0  0  0  0  0  0  0
  132.2740  123.5750   63.0230 C   0  0  0  0  0  0  0  0  0  0  0  0
  133.6560  124.0990   63.1010 N   0  0  0  0  0  0  0  0  0  0  0  0
  133.9780  124.7760   64.0720 O   0  0  0  0  0  0  0  0  0  0  0  0
  134.4330  123.8090   62.1940 O   0  0  0  0  0  0  0  0  0  0  0  0
  132.3540  125.4790   58.6430 C   0  0  0  0  0  0  0  0  0  0  0  0
  133.1920  124.6600   58.2710 O   0  0  0  0  0  0  0  0  0  0  0  0
  132.1380  126.5980   57.9230 N   0  0  0  0  0  0  0  0  0  0  0  0
  131.2580  127.5530   58.2720 N   0  0  0  0  0  0  0  0  0  0  0  0
  130.2320  127.5770   57.5200 C   0  0  0  0  0  0  0  0  0  0  0  0
  129.1250  128.5290   57.6780 C   0  0  0  0  0  0  0  0  0  0  0  0
  127.8680  128.1490   58.1770 C   0  0  0  0  0  0  0  0  0  0  0  0
  126.8420  129.0830   58.3160 C   0  0  0  0  0  0  0  0  0  0  0  0
  127.0570  130.4150   57.9640 C   0  0  0  0  0  0  0  0  0  0  0  0
  128.3010  130.8180   57.4790 C   0  0  0  0  0  0  0  0  0  0  0  0
  128.4900  132.1360   57.1190 O   0  0  0  0  0  0  0  0  0  0  0  0
  129.4180  132.9090   57.7720 C   0  0  0  0  0  0  0  0  0  0  0  0
  130.1790  133.6950   57.1990 O   0  0  0  0  0  0  0  0  0  0  0  0
  129.3950  132.7080   59.2650 C   0  0  0  0  0  0  0  0  0  0  0  0
  128.3060  133.1990   60.0100 C   0  0  0  0  0  0  0  0  0  0  0  0
  128.2460  133.0470   61.3930 C   0  0  0  0  0  0  0  0  0  0  0  0
  129.2770  132.3990   62.0660 C   0  0  0  0  0  0  0  0  0  0  0  0
  129.2090  132.2120   63.7810 Cl  0  0  0  0  0  0  0  0  0  0  0  0
  130.3610  131.8990   61.3520 C   0  0  0  0  0  0  0  0  0  0  0  0
  130.4300  132.0420   59.9640 C   0  0  0  0  0  0  0  0  0  0  0  0
  131.8170  131.3490   59.1840 Cl  0  0  0  0  0  0  0  0  0  0  0  0
  129.3210  129.8710   57.3250 C   0  0  0  0  0  0  0  0  0  0  0  0
  131.5457  126.1328   61.9023 H   0  0  0  0  0  0  0  0  0  0  0  0
  132.4476  127.0486   60.6474 H   0  0  0  0  0  0  0  0  0  0  0  0
  130.6513  127.0559   60.6474 H   0  0  0  0  0  0  0  0  0  0  0  0
  130.5206  124.9417   59.6294 H   0  0  0  0  0  0  0  0  0  0  0  0
  129.6339  123.1479   60.8858 H   0  0  0  0  0  0  0  0  0  0  0  0
  128.6305  122.1721   62.9399 H   0  0  0  0  0  0  0  0  0  0  0  0
  129.9523  122.0804   65.0518 H   0  0  0  0  0  0  0  0  0  0  0  0
  132.2734  122.9684   65.1039 H   0  0  0  0  0  0  0  0  0  0  0  0
  132.6550  126.7770   57.0730 H   0  0  0  0  0  0  0  0  0  0  0  0
  130.1705  126.8419   56.7040 H   0  0  0  0  0  0  0  0  0  0  0  0
  127.6909  127.1013   58.4617 H   0  0  0  0  0  0  0  0  0  0  0  0
  125.8618  128.7686   58.7038 H   0  0  0  0  0  0  0  0  0  0  0  0
  126.2444  131.1489   58.0690 H   0  0  0  0  0  0  0  0  0  0  0  0
  127.4853  133.7135   59.4887 H   0  0  0  0  0  0  0  0  0  0  0  0
  127.3841  133.4390   61.9529 H   0  0  0  0  0  0  0  0  0  0  0  0
  131.1734  131.3850   61.8865 H   0  0  0  0  0  0  0  0  0  0  0  0
  130.2938  130.1862   56.9196 H   0  0  0  0  0  0  0  0  0  0  0  0
  1  2  1  0
  2  3  1  0
  3  4  1  0
  4  5  2  0
  5  6  1  0
  6  7  2  0
  7  8  1  0
  8  9  2  0
  9 10  1  0
 10 11  2  0
 10 12  1  0
  2 13  1  0
 13 14  2  0
 13 15  1  0
 15 16  1  0
 16 17  2  0
 17 18  1  0
 18 19  2  0
 19 20  1  0
 20 21  2  0
 21 22  1  0
 22 23  1  0
 23 24  1  0
 24 25  2  0
 24 26  1  0
 26 27  2  0
 27 28  1  0
 28 29  2  0
 29 30  1  0
 29 31  1  0
 31 32  2  0
 32 33  1  0
 22 34  2  0
  9  4  1  0
 34 18  1  0
 32 26  1  0
  1 35  1  0
  1 36  1  0
  1 37  1  0
  2 38  1  6
  5 39  1  0
  6 40  1  0
  7 41  1  0
  8 42  1  0
 15 43  1  0
 17 44  1  0
 19 45  1  0
 20 46  1  0
 21 47  1  0
 27 48  1  0
 28 49  1  0
 31 50  1  0
 34 51  1  0
M  CHG  2  10   1  12  -1
M  END
>  <Binding energies>  (1) 
[-8.45]

>  <Ligand effiencies>  (1) 
[-0.2414285714285714]

>  <Interactions>  (1) 
["V-A:GLY:454:CA:4049, V-B:ALA:541:CB:9864, H-A:ARG:545:NH1:4927, H-A:TYR:531:OH:4795, V-A:TYR:484:CE2:4346, V-A:ASP:366:CG:3213, V-A:TYR:539:CD1:4873, H-B:TYR:539:OH:9850, V-A:ALA:541:CB:4892, V-A:TYR:484:CZ:4347, V-A:GLU:543:CD:4908, H-A:GLY:454:N:4050, V-A:TYR:531:CZ:4794, V-A:GLU:543:CG:4907, V-A:MET:535:CE:4835, V-A:TYR:539:C:4867, V-A:ASP:366:CB:3212, V-A:LEU:475:CD2:4259, H-A:ARG:545:NH2:4928, H-A:ASP:366:O:3209, V-A:PRO:540:N:4884, H-A:TYR:539:N:4870, V-A:PRO:540:CB:4885, V-A:PRO:540:CA:4883, H-A:ARG:545:NE:4924, V-A:TYR:539:CE1:4875"]

$$$$
ZINC254593840
     RDKit          3D

 58 61  0  0  0  0  0  0  0  0999 V2000
  131.9070  124.5310   59.1840 N   0  0  0  0  0  0  0  0  0  0  0  0
  130.2220  124.8470   58.8230 S   0  0  0  0  0  0  0  0  0  0  0  0
  130.1600  125.4680   57.4940 O   0  0  0  0  0  0  0  0  0  0  0  0
  129.4680  123.6240   59.1210 O   0  0  0  0  0  0  0  0  0  0  0  0
  129.7290  126.0740   60.0290 C   0  0  0  0  0  0  0  0  0  0  0  0
  129.7180  127.4300   59.6970 C   0  0  0  0  0  0  0  0  0  0  0  0
  129.3340  128.3720   60.6460 C   0  0  0  0  0  0  0  0  0  0  0  0
  128.9580  127.9670   61.9300 C   0  0  0  0  0  0  0  0  0  0  0  0
  128.5480  128.9930   62.9360 C   0  0  0  0  0  0  0  0  0  0  0  0
  128.1840  130.3300   62.8460 C   0  0  0  0  0  0  0  0  0  0  0  0
  127.9000  130.7640   64.1400 C   0  0  0  0  0  0  0  0  0  0  0  0
  128.0960  129.6810   64.9870 C   0  0  0  0  0  0  0  0  0  0  0  0
  127.9630  129.4760   66.4210 C   0  0  0  0  0  0  0  0  0  0  0  0
  128.8860  128.9060   67.0810 N   0  0  0  0  0  0  0  0  0  0  0  0
  128.6020  128.8170   68.3930 N   0  0  0  0  0  0  0  0  0  0  0  0
  128.5200  127.6330   69.0280 C   0  0  0  0  0  0  0  0  0  0  0  0
  128.4650  126.5360   68.4600 O   0  0  0  0  0  0  0  0  0  0  0  0
  128.6450  127.7950   70.3590 N   0  0  0  0  0  0  0  0  0  0  0  0
  128.9710  126.7770   71.1770 N   0  0  0  0  0  0  0  0  0  0  0  0
  129.3730  127.1750   72.3150 C   0  0  0  0  0  0  0  0  0  0  0  0
  129.7890  126.2330   73.3450 C   0  0  0  0  0  0  0  0  0  0  0  0
  130.5900  126.3570   74.4700 C   0  0  0  0  0  0  0  0  0  0  0  0
  130.6390  125.1050   75.0820 C   0  0  0  0  0  0  0  0  0  0  0  0
  129.8640  124.2460   74.3140 C   0  0  0  0  0  0  0  0  0  0  0  0
  129.5150  122.7970   74.4200 C   0  0  0  0  0  0  0  0  0  0  0  0
  129.3260  122.0190   73.2730 C   0  0  0  0  0  0  0  0  0  0  0  0
  129.0000  120.6700   73.3870 C   0  0  0  0  0  0  0  0  0  0  0  0
  128.8630  120.0930   74.6500 C   0  0  0  0  0  0  0  0  0  0  0  0
  128.4440  118.3570   74.7830 S   0  0  0  0  0  0  0  0  0  0  0  0
  127.6020  117.9960   73.2880 N   0  0  0  0  0  0  0  0  0  0  0  0
  129.7040  117.6050   74.7740 O   0  0  0  0  0  0  0  0  0  0  0  0
  127.4840  118.2080   75.8820 O   0  0  0  0  0  0  0  0  0  0  0  0
  129.0510  120.8640   75.7990 C   0  0  0  0  0  0  0  0  0  0  0  0
  129.3750  122.2130   75.6820 C   0  0  0  0  0  0  0  0  0  0  0  0
  129.3540  124.9450   73.2640 O   0  0  0  0  0  0  0  0  0  0  0  0
  128.4900  128.6130   64.2430 O   0  0  0  0  0  0  0  0  0  0  0  0
  128.9690  126.6050   62.2560 C   0  0  0  0  0  0  0  0  0  0  0  0
  129.3540  125.6620   61.3080 C   0  0  0  0  0  0  0  0  0  0  0  0
  132.4690  125.3690   59.3550 H   0  0  0  0  0  0  0  0  0  0  0  0
  132.0620  123.7930   59.8760 H   0  0  0  0  0  0  0  0  0  0  0  0
  130.0123  127.7528   58.6874 H   0  0  0  0  0  0  0  0  0  0  0  0
  129.3262  129.4405   60.3848 H   0  0  0  0  0  0  0  0  0  0  0  0
  128.1300  130.9327   61.9274 H   0  0  0  0  0  0  0  0  0  0  0  0
  127.5806  131.7745   64.4348 H   0  0  0  0  0  0  0  0  0  0  0  0
  127.0545  129.8179   66.9384 H   0  0  0  0  0  0  0  0  0  0  0  0
  128.5910  129.6920   68.8960 H   0  0  0  0  0  0  0  0  0  0  0  0
  128.6340  128.7100   70.7860 H   0  0  0  0  0  0  0  0  0  0  0  0
  129.4075  128.2539   72.5266 H   0  0  0  0  0  0  0  0  0  0  0  0
  131.0930  127.2723   74.8153 H   0  0  0  0  0  0  0  0  0  0  0  0
  131.1878  124.8467   75.9996 H   0  0  0  0  0  0  0  0  0  0  0  0
  129.4353  122.4743   72.2776 H   0  0  0  0  0  0  0  0  0  0  0  0
  128.8508  120.0606   72.4834 H   0  0  0  0  0  0  0  0  0  0  0  0
  127.6320  117.0120   73.0110 H   0  0  0  0  0  0  0  0  0  0  0  0
  126.6680  118.4090   73.2170 H   0  0  0  0  0  0  0  0  0  0  0  0
  128.9434  120.4068   76.7937 H   0  0  0  0  0  0  0  0  0  0  0  0
  129.5214  122.8216   76.5865 H   0  0  0  0  0  0  0  0  0  0  0  0
  128.6725  126.2799   63.2642 H   0  0  0  0  0  0  0  0  0  0  0  0
  129.3627  124.5929   61.5668 H   0  0  0  0  0  0  0  0  0  0  0  0
  1  2  1  0
  2  3  2  0
  2  4  2  0
  2  5  1  0
  5  6  2  0
  6  7  1  0
  7  8  2  0
  8  9  1  0
  9 10  2  0
 10 11  1  0
 11 12  2  0
 12 13  1  0
 13 14  2  0
 14 15  1  0
 15 16  1  0
 16 17  2  0
 16 18  1  0
 18 19  1  0
 19 20  2  0
 20 21  1  0
 21 22  2  0
 22 23  1  0
 23 24  2  0
 24 25  1  0
 25 26  2  0
 26 27  1  0
 27 28  2  0
 28 29  1  0
 29 30  1  0
 29 31  2  0
 29 32  2  0
 28 33  1  0
 33 34  2  0
 24 35  1  0
 12 36  1  0
  8 37  1  0
 37 38  2  0
 38  5  1  0
 36  9  1  0
 35 21  1  0
 34 25  1  0
  1 39  1  0
  1 40  1  0
  6 41  1  0
  7 42  1  0
 10 43  1  0
 11 44  1  0
 13 45  1  0
 15 46  1  0
 18 47  1  0
 20 48  1  0
 22 49  1  0
 23 50  1  0
 26 51  1  0
 27 52  1  0
 30 53  1  0
 30 54  1  0
 33 55  1  0
 34 56  1  0
 37 57  1  0
 38 58  1  0
M  END
>  <Binding energies>  (1) 
[-4.17]

>  <Ligand effiencies>  (1) 
[-0.09477272727272727]

>  <Interactions>  (1) 
["H-A:TYR:484:O:4338, V-B:HIS:456:CD2:9039, H-B:LYS:547:NZ:9923, V-B:TYR:539:CE2:9848, V-A:HIS:456:CD2:4068, V-B:TYR:539:CZ:9849, H-B:TYR:539:OH:9850, V-B:LYS:547:CE:9922, V-A:GLU:543:CD:4908, V-B:HIS:456:CE1:9041, H-A:ASP:485:N:4354, V-B:TYR:484:CZ:9318, H-B:HIS:456:NE2:9042, V-A:GLU:543:CG:4907, V-A:TYR:484:CB:4341, V-A:GLU:543:CB:4906, H-A:ASP:366:OD1:3214, V-A:TYR:484:C:4337, H-A:SER:483:OG:4334, H-A:GLU:543:O:4903"]

$$$$
ZINC254702000
     RDKit          3D

 28 31  0  0  0  0  0  0  0  0999 V2000
  129.8330  122.0990   63.8870 Cl  0  0  0  0  0  0  0  0  0  0  0  0
  130.2540  123.3340   62.6950 C   0  0  0  0  0  0  0  0  0  0  0  0
  130.2650  124.6780   62.8400 C   0  0  0  0  0  0  0  0  0  0  0  0
  129.8610  125.6360   64.2680 Cl  0  0  0  0  0  0  0  0  0  0  0  0
  130.5800  125.2400   61.4520 C   0  0  2  0  0  0  0  0  0  0  0  0
  131.2280  126.9040   61.4860 Cl  0  0  0  0  0  0  0  0  0  0  0  0
  129.3780  125.0390   60.4620 C   0  0  2  0  0  0  0  0  0  0  0  0
  127.8950  125.3670   60.8330 C   0  0  2  0  0  0  0  0  0  0  0  0
  127.4270  124.1490   61.6460 C   0  0  0  0  0  0  0  0  0  0  0  0
  127.8770  123.1260   60.5890 C   0  0  1  0  0  0  0  0  0  0  0  0
  126.9360  123.6040   59.4400 C   0  0  2  0  0  0  0  0  0  0  0  0
  127.5950  122.8340   57.4630 I   0  0  0  0  0  0  0  0  0  0  0  0
  126.9480  125.1620   59.6110 C   0  0  2  0  0  0  0  0  0  0  0  0
  127.6210  126.3330   57.8440 I   0  0  0  0  0  0  0  0  0  0  0  0
  129.3660  123.5030   60.2960 C   0  0  2  0  0  0  0  0  0  0  0  0
  130.5630  123.0760   61.2190 C   0  0  2  0  0  0  0  0  0  0  0  0
  131.1840  121.4320   60.8950 Cl  0  0  0  0  0  0  0  0  0  0  0  0
  131.6130  124.1870   60.9930 C   0  0  0  0  0  0  0  0  0  0  0  0
  133.0750  124.0610   62.0510 Cl  0  0  0  0  0  0  0  0  0  0  0  0
  132.1160  124.3680   59.2740 Cl  0  0  0  0  0  0  0  0  0  0  0  0
  129.5832  125.7452   59.6439 H   0  0  0  0  0  0  0  0  0  0  0  0
  127.8622  126.3756   61.2708 H   0  0  0  0  0  0  0  0  0  0  0  0
  127.9554  124.0405   62.6047 H   0  0  0  0  0  0  0  0  0  0  0  0
  126.3796  124.1212   61.9809 H   0  0  0  0  0  0  0  0  0  0  0  0
  127.8267  122.0475   60.7995 H   0  0  0  0  0  0  0  0  0  0  0  0
  125.9074  123.2174   59.4903 H   0  0  0  0  0  0  0  0  0  0  0  0
  125.9251  125.5430   59.7471 H   0  0  0  0  0  0  0  0  0  0  0  0
  129.5624  122.9848   59.3458 H   0  0  0  0  0  0  0  0  0  0  0  0
  1  2  1  0
  2  3  2  0
  3  4  1  0
  3  5  1  0
  5  6  1  1
  5  7  1  0
  7  8  1  0
  8  9  1  0
  9 10  1  0
 10 11  1  0
 11 12  1  0
 11 13  1  0
 13 14  1  0
 10 15  1  0
 15 16  1  0
 16 17  1  1
 16 18  1  0
 18 19  1  0
 18 20  1  0
 16  2  1  0
 18  5  1  0
 15  7  1  0
 13  8  1  0
  7 21  1  6
  8 22  1  1
  9 23  1  0
  9 24  1  0
 10 25  1  1
 11 26  1  1
 13 27  1  1
 15 28  1  6
M  END
>  <Binding energies>  (1) 
[-6.96]

>  <Ligand effiencies>  (1) 
[-0.348]

>  <Interactions>  (1) 
["V-B:TYR:539:CD1:9845, V-B:PRO:540:CA:9855, V-B:TYR:539:CZ:9849, V-B:TYR:539:CD2:9846, V-B:GLU:543:CD:9880, V-B:ALA:541:CB:9864, V-B:TYR:539:CG:9844, V-B:TYR:539:CE2:9848, V-B:PRO:540:CB:9857, V-A:LEU:475:CD2:4259, V-B:GLU:543:CG:9879, V-B:TYR:539:CE1:9847, V-B:TYR:539:C:9839, V-A:ASP:366:CG:3213, V-B:PRO:540:N:9856"]

$$$$
ZINC254838570
     RDKit          3D

 80 84  0  0  0  0  0  0  0  0999 V2000
  129.2150  129.5850   72.1880 C   0  0  0  0  0  0  0  0  0  0  0  0
  129.4520  128.6840   71.3990 C   0  0  0  0  0  0  0  0  0  0  0  0
  129.7330  127.5860   70.4250 C   0  0  2  0  0  0  0  0  0  0  0  0
  129.6190  126.2790   71.0570 O   0  0  0  0  0  0  0  0  0  0  0  0
  128.9930  125.9920   72.2420 C   0  0  0  0  0  0  0  0  0  0  0  0
  129.8380  126.3910   73.4440 C   0  0  0  0  0  0  0  0  0  0  0  0
  127.8800  125.4850   72.3820 O   0  0  0  0  0  0  0  0  0  0  0  0
  131.1440  127.7000   69.7890 C   0  0  0  0  0  0  0  0  0  0  0  0
  131.0580  127.0020   68.4210 C   0  0  0  0  0  0  0  0  0  0  0  0
  129.5730  126.6440   68.1920 C   0  0  2  0  0  0  0  0  0  0  0  0
  129.0870  126.6980   66.7130 C   0  0  2  0  0  0  0  0  0  0  0  0
  129.8550  125.7290   65.7640 C   0  0  0  0  0  0  0  0  0  0  0  0
  130.0870  126.2750   64.3360 C   0  0  0  0  0  0  0  0  0  0  0  0
  128.8810  127.0590   63.8350 C   0  0  0  0  0  0  0  0  0  0  0  0
  128.3690  126.8790   62.5460 C   0  0  0  0  0  0  0  0  0  0  0  0
  127.2830  127.6240   62.0870 C   0  0  0  0  0  0  0  0  0  0  0  0
  126.8050  127.3800   60.8150 O   0  0  0  0  0  0  0  0  0  0  0  0
  126.8410  126.1280   60.2760 C   0  0  0  0  0  0  0  0  0  0  0  0
  126.0310  125.2180   60.4810 O   0  0  0  0  0  0  0  0  0  0  0  0
  128.0330  125.9640   59.3200 C   0  0  0  0  0  0  0  0  0  0  0  0
  128.8860  127.2260   59.2380 C   0  0  0  0  0  0  0  0  0  0  0  0
  128.3170  128.4260   58.8160 C   0  0  0  0  0  0  0  0  0  0  0  0
  129.0910  129.5810   58.7550 C   0  0  0  0  0  0  0  0  0  0  0  0
  130.4510  129.5680   59.1170 C   0  0  0  0  0  0  0  0  0  0  0  0
  131.2420  130.7530   59.0560 N   0  0  0  0  0  0  0  0  0  0  0  0
  131.4760  131.5830   60.2430 C   0  0  0  0  0  0  0  0  0  0  0  0
  132.8990  131.4460   60.8080 C   0  0  0  0  0  0  0  0  0  0  0  0
  132.8550  131.4220   62.5890 Cl  0  0  0  0  0  0  0  0  0  0  0  0
  131.7640  131.2640   57.7810 C   0  0  0  0  0  0  0  0  0  0  0  0
  130.6910  131.4650   56.6920 C   0  0  0  0  0  0  0  0  0  0  0  0
  129.6530  132.8730   57.0400 Cl  0  0  0  0  0  0  0  0  0  0  0  0
  131.0010  128.3460   59.5430 C   0  0  0  0  0  0  0  0  0  0  0  0
  130.2300  127.1900   59.6050 C   0  0  0  0  0  0  0  0  0  0  0  0
  126.6870  128.5510   62.9490 C   0  0  0  0  0  0  0  0  0  0  0  0
  127.1880  128.7360   64.2350 C   0  0  0  0  0  0  0  0  0  0  0  0
  128.2830  127.9960   64.7020 C   0  0  0  0  0  0  0  0  0  0  0  0
  128.8560  128.1220   66.1250 C   0  0  1  0  0  0  0  0  0  0  0  0
  128.0350  129.0040   67.0960 C   0  0  0  0  0  0  0  0  0  0  0  0
  128.6370  129.0020   68.5120 C   0  0  0  0  0  0  0  0  0  0  0  0
  128.7820  127.5790   69.1620 C   0  0  2  0  0  0  0  0  0  0  0  0
  127.3670  127.0160   69.4840 C   0  0  0  0  0  0  0  0  0  0  0  0
  129.0015  130.3968   72.8989 H   0  0  0  0  0  0  0  0  0  0  0  0
  129.3011  126.1375   74.3700 H   0  0  0  0  0  0  0  0  0  0  0  0
  130.7952  125.8497   73.4152 H   0  0  0  0  0  0  0  0  0  0  0  0
  130.0282  127.4740   73.4152 H   0  0  0  0  0  0  0  0  0  0  0  0
  131.4198  128.7571   69.6607 H   0  0  0  0  0  0  0  0  0  0  0  0
  131.9095  127.2352   70.4278 H   0  0  0  0  0  0  0  0  0  0  0  0
  131.4105  127.6785   67.6284 H   0  0  0  0  0  0  0  0  0  0  0  0
  131.6881  126.1006   68.3988 H   0  0  0  0  0  0  0  0  0  0  0  0
  129.3971  125.5810   68.4136 H   0  0  0  0  0  0  0  0  0  0  0  0
  128.0645  126.2966   66.7704 H   0  0  0  0  0  0  0  0  0  0  0  0
  130.8361  125.5152   66.2130 H   0  0  0  0  0  0  0  0  0  0  0  0
  129.2249  124.8338   65.6566 H   0  0  0  0  0  0  0  0  0  0  0  0
  130.9652  126.9373   64.3449 H   0  0  0  0  0  0  0  0  0  0  0  0
  130.2474  125.4207   63.6619 H   0  0  0  0  0  0  0  0  0  0  0  0
  128.8320  126.1351   61.8810 H   0  0  0  0  0  0  0  0  0  0  0  0
  128.6614  125.1347   59.6768 H   0  0  0  0  0  0  0  0  0  0  0  0
  127.6337  125.7613   58.3153 H   0  0  0  0  0  0  0  0  0  0  0  0
  127.2552  128.4604   58.5309 H   0  0  0  0  0  0  0  0  0  0  0  0
  128.6313  130.5216   58.4176 H   0  0  0  0  0  0  0  0  0  0  0  0
  131.3075  132.6357   59.9720 H   0  0  0  0  0  0  0  0  0  0  0  0
  130.7805  131.2402   61.0233 H   0  0  0  0  0  0  0  0  0  0  0  0
  133.3461  130.5096   60.4430 H   0  0  0  0  0  0  0  0  0  0  0  0
  133.5011  132.3045   60.4756 H   0  0  0  0  0  0  0  0  0  0  0  0
  132.2485  132.2332   57.9706 H   0  0  0  0  0  0  0  0  0  0  0  0
  132.4625  130.5048   57.3992 H   0  0  0  0  0  0  0  0  0  0  0  0
  131.1902  131.6207   55.7242 H   0  0  0  0  0  0  0  0  0  0  0  0
  130.0549  130.5679   56.6678 H   0  0  0  0  0  0  0  0  0  0  0  0
  132.0613  128.3035   59.8328 H   0  0  0  0  0  0  0  0  0  0  0  0
  130.6817  126.2461   59.9442 H   0  0  0  0  0  0  0  0  0  0  0  0
  125.8194  129.1359   62.6096 H   0  0  0  0  0  0  0  0  0  0  0  0
  126.7156  129.4768   64.8968 H   0  0  0  0  0  0  0  0  0  0  0  0
  129.8098  128.6605   66.0234 H   0  0  0  0  0  0  0  0  0  0  0  0
  128.0215  130.0360   66.7156 H   0  0  0  0  0  0  0  0  0  0  0  0
  127.0164  128.5930   67.1553 H   0  0  0  0  0  0  0  0  0  0  0  0
  129.6365  129.4583   68.4600 H   0  0  0  0  0  0  0  0  0  0  0  0
  127.9371  129.5640   69.1478 H   0  0  0  0  0  0  0  0  0  0  0  0
  127.2330  126.9627   70.5745 H   0  0  0  0  0  0  0  0  0  0  0  0
  126.6020  127.6782   69.0525 H   0  0  0  0  0  0  0  0  0  0  0  0
  127.2660  126.0092   69.0525 H   0  0  0  0  0  0  0  0  0  0  0  0
  1  2  3  0
  3  2  1  1
  3  4  1  0
  4  5  1  0
  5  6  1  0
  5  7  2  0
  3  8  1  0
  8  9  1  0
  9 10  1  0
 10 11  1  0
 11 12  1  0
 12 13  1  0
 13 14  1  0
 14 15  2  0
 15 16  1  0
 16 17  1  0
 17 18  1  0
 18 19  2  0
 18 20  1  0
 20 21  1  0
 21 22  2  0
 22 23  1  0
 23 24  2  0
 24 25  1  0
 25 26  1  0
 26 27  1  0
 27 28  1  0
 25 29  1  0
 29 30  1  0
 30 31  1  0
 24 32  1  0
 32 33  2  0
 16 34  2  0
 34 35  1  0
 35 36  2  0
 36 37  1  0
 37 38  1  0
 38 39  1  0
 39 40  1  0
 40 41  1  1
 40  3  1  0
 40 10  1  0
 37 11  1  0
 36 14  1  0
 33 21  1  0
  1 42  1  0
  6 43  1  0
  6 44  1  0
  6 45  1  0
  8 46  1  0
  8 47  1  0
  9 48  1  0
  9 49  1  0
 10 50  1  1
 11 51  1  1
 12 52  1  0
 12 53  1  0
 13 54  1  0
 13 55  1  0
 15 56  1  0
 20 57  1  0
 20 58  1  0
 22 59  1  0
 23 60  1  0
 26 61  1  0
 26 62  1  0
 27 63  1  0
 27 64  1  0
 29 65  1  0
 29 66  1  0
 30 67  1  0
 30 68  1  0
 32 69  1  0
 33 70  1  0
 34 71  1  0
 35 72  1  0
 37 73  1  6
 38 74  1  0
 38 75  1  0
 39 76  1  0
 39 77  1  0
 41 78  1  0
 41 79  1  0
 41 80  1  0
M  END
>  <Binding energies>  (1) 
[-6.59]

>  <Ligand effiencies>  (1) 
[-0.16073170731707317]

>  <Interactions>  (1) 
["V-A:GLU:543:CA:4904, V-B:HIS:456:CD2:9039, V-B:GLU:543:C:9874, V-A:GLU:543:C:4902, V-B:GLU:543:CB:9878, H-B:LYS:547:NZ:9923, V-B:GLU:543:CG:9879, V-A:GLY:544:C:4912, V-A:ASP:366:CG:3213, V-A:HIS:456:CD2:4068, V-A:ASN:362:CB:3176, V-A:LEU:363:CD1:3189, V-A:GLU:543:CD:4908, V-A:ARG:545:CG:4922, V-B:HIS:456:CE1:9041, V-A:HIS:456:CE1:4070, V-A:GLU:543:CG:4907, V-B:GLU:543:CD:9880, V-A:MET:535:CE:4835, V-A:GLU:543:CB:4906, V-A:PRO:540:CB:4885, V-A:PRO:540:CA:4883"]

$$$$
ZINC254874027
     RDKit          3D

 31 36  0  0  0  0  0  0  0  0999 V2000
  135.5110  124.7170   62.3930 C   0  0  0  0  0  0  0  0  0  0  0  0
  134.0820  124.4900   62.1500 N   0  0  0  0  0  0  0  0  0  0  0  0
  133.5560  124.7240   60.9370 C   0  0  0  0  0  0  0  0  0  0  0  0
  134.0460  124.4490   59.8410 O   0  0  0  0  0  0  0  0  0  0  0  0
  132.3720  125.3020   61.2060 N   0  0  0  0  0  0  0  0  0  0  0  0
  132.0660  125.0540   62.5000 N   0  0  0  0  0  0  0  0  0  0  0  0
  133.1850  124.6600   63.1330 C   0  0  0  0  0  0  0  0  0  0  0  0
  133.3190  124.4030   64.3310 O   0  0  0  0  0  0  0  0  0  0  0  0
  130.7760  124.3150   62.5480 C   0  0  2  0  0  0  0  0  0  0  0  0
  130.7080  122.8800   63.6480 Cl  0  0  0  0  0  0  0  0  0  0  0  0
  130.1680  124.3400   61.1830 C   0  0  2  0  0  0  0  0  0  0  0  0
  130.1000  122.6800   60.4570 Cl  0  0  0  0  0  0  0  0  0  0  0  0
  131.1650  125.0990   60.3970 C   0  0  2  0  0  0  0  0  0  0  0  0
  131.2900  124.9850   58.5920 Cl  0  0  0  0  0  0  0  0  0  0  0  0
  129.9900  125.9010   60.8490 C   0  0  1  0  0  0  0  0  0  0  0  0
  130.5820  127.6350   60.8430 Cl  0  0  0  0  0  0  0  0  0  0  0  0
  128.7650  125.5410   59.7900 C   0  0  1  0  0  0  0  0  0  0  0  0
  128.1870  127.0470   58.9670 Cl  0  0  0  0  0  0  0  0  0  0  0  0
  127.5720  124.5930   59.7920 C   0  0  0  0  0  0  0  0  0  0  0  0
  126.7900  124.1690   58.2620 Cl  0  0  0  0  0  0  0  0  0  0  0  0
  127.0760  124.2940   61.0180 C   0  0  0  0  0  0  0  0  0  0  0  0
  125.4640  123.5690   61.2210 Cl  0  0  0  0  0  0  0  0  0  0  0  0
  127.9770  124.6200   62.2500 C   0  0  2  0  0  0  0  0  0  0  0  0
  127.9890  122.8860   62.7280 Cl  0  0  0  0  0  0  0  0  0  0  0  0
  128.6830  125.3180   61.2130 C   0  0  1  0  0  0  0  0  0  0  0  0
  127.7910  127.0230   61.8190 Cl  0  0  0  0  0  0  0  0  0  0  0  0
  129.5750  125.2240   62.4190 C   0  0  1  0  0  0  0  0  0  0  0  0
  129.7490  126.2800   63.8990 Cl  0  0  0  0  0  0  0  0  0  0  0  0
  135.6985  124.7468   63.4765 H   0  0  0  0  0  0  0  0  0  0  0  0
  136.0939  123.9002   61.9423 H   0  0  0  0  0  0  0  0  0  0  0  0
  135.8120  125.6742   61.9423 H   0  0  0  0  0  0  0  0  0  0  0  0
  1  2  1  0
  2  3  1  0
  3  4  2  0
  3  5  1  0
  5  6  1  0
  6  7  1  0
  7  8  2  0
  6  9  1  0
  9 10  1  1
  9 11  1  0
 11 12  1  6
 11 13  1  0
 13 14  1  6
 13 15  1  0
 15 16  1  1
 15 17  1  0
 17 18  1  1
 17 19  1  0
 19 20  1  0
 19 21  2  0
 21 22  1  0
 21 23  1  0
 23 24  1  6
 23 25  1  0
 25 26  1  1
 23 27  1  0
 27 28  1  1
  7  2  1  0
 27  9  1  0
 13  5  1  0
 27 15  1  0
 25 11  1  0
 25 17  1  0
  1 29  1  0
  1 30  1  0
  1 31  1  0
M  END
>  <Binding energies>  (1) 
[-6.8]

>  <Ligand effiencies>  (1) 
[-0.24285714285714285]

>  <Interactions>  (1) 
["V-A:ILE:369:CD1:3239, V-B:PRO:540:CA:9855, V-A:GLY:453:CA:4044, V-B:TYR:539:CZ:9849, V-B:TYR:539:CD2:9846, V-B:GLU:543:CD:9880, V-B:ALA:541:CB:9864, V-B:TYR:539:CE2:9848, V-B:PRO:540:CB:9857, V-B:ALA:541:CA:9862, V-B:GLU:543:CG:9879, V-A:GLU:543:CD:4908, V-A:LEU:475:CD2:4259, V-A:ARG:545:CZ:4926, H-A:GLY:454:N:4050, V-A:ASP:366:CG:3213, V-A:GLY:453:C:4042, H-A:TYR:484:OH:4348"]

$$$$
ZINC255204945
     RDKit          3D

 80 84  0  0  0  0  0  0  0  0999 V2000
  133.0470  121.9530   60.4530 C   0  0  0  0  0  0  0  0  0  0  0  0
  132.3780  122.7910   61.5370 C   0  0  0  0  0  0  0  0  0  0  0  0
  131.3260  123.6030   61.2820 C   0  0  0  0  0  0  0  0  0  0  0  0
  130.6590  124.4980   62.3260 C   0  0  1  0  0  0  0  0  0  0  0  0
  129.1980  124.8650   61.9850 C   0  0  0  0  0  0  0  0  0  0  0  0
  128.2420  124.4950   62.6700 O   0  0  0  0  0  0  0  0  0  0  0  0
  129.1310  125.6460   60.8850 O   0  0  0  0  0  0  0  0  0  0  0  0
  128.8630  127.0420   60.9580 C   0  0  1  0  0  0  0  0  0  0  0  0
  127.9010  127.2850   62.1220 C   0  0  0  0  0  0  0  0  0  0  0  0
  127.6410  128.7950   62.3020 C   0  0  1  0  0  0  0  0  0  0  0  0
  126.7910  129.1080   63.5510 C   0  0  0  0  0  0  0  0  0  0  0  0
  127.6110  129.3120   64.8200 C   0  0  0  0  0  0  0  0  0  0  0  0
  127.1870  129.2800   66.1040 C   0  0  0  0  0  0  0  0  0  0  0  0
  125.7530  128.9960   66.5380 C   0  0  0  0  0  0  0  0  0  0  0  0
  128.1640  129.5450   67.2510 C   0  0  0  0  0  0  0  0  0  0  0  0
  129.1200  128.3790   67.6120 C   0  0  1  0  0  0  0  0  0  0  0  0
  128.7570  127.7700   68.9780 C   0  0  0  0  0  0  0  0  0  0  0  0
  129.1950  127.3110   66.5280 C   0  0  0  0  0  0  0  0  0  0  0  0
  129.4500  126.0080   66.7440 C   0  0  0  0  0  0  0  0  0  0  0  0
  129.5430  125.0340   65.6730 C   0  0  0  0  0  0  0  0  0  0  0  0
  130.6350  124.8460   64.9040 C   0  0  0  0  0  0  0  0  0  0  0  0
  131.9950  125.5270   65.0000 C   0  0  0  0  0  0  0  0  0  0  0  0
  132.9080  124.7240   64.2600 O   0  0  0  0  0  0  0  0  0  0  0  0
  132.2910  123.4710   64.0260 C   0  0  2  0  0  0  0  0  0  0  0  0
  132.9960  122.7110   62.8790 C   0  0  0  0  0  0  0  0  0  0  0  0
  134.0590  122.1240   63.0820 O   0  0  0  0  0  0  0  0  0  0  0  0
  130.8290  123.8670   63.7570 C   0  0  2  0  0  0  0  0  0  0  0  0
  129.9710  122.7320   63.8490 O   0  0  0  0  0  0  0  0  0  0  0  0
  128.8750  129.5270   62.3810 O   0  0  0  0  0  0  0  0  0  0  0  0
  129.7590  129.3850   61.2870 C   0  0  2  0  0  0  0  0  0  0  0  0
  131.0020  130.2560   61.5850 C   0  0  0  0  0  0  0  0  0  0  0  0
  130.6830  131.7620   61.4830 C   0  0  0  0  0  0  0  0  0  0  0  0
  130.0080  132.0900   60.1400 C   0  0  1  0  0  0  0  0  0  0  0  0
  130.9770  131.9450   58.9450 C   0  0  0  0  0  0  0  0  0  0  0  0
  128.7600  131.1820   60.0350 C   0  0  1  0  0  0  0  0  0  0  0  0
  127.8920  131.4470   58.7950 C   0  0  0  0  0  0  0  0  0  0  0  0
  129.1540  129.8030   60.0740 O   0  0  0  0  0  0  0  0  0  0  0  0
  130.1280  127.8990   61.1330 C   0  0  0  0  0  0  0  0  0  0  0  0
  133.6679  121.1753   60.9217 H   0  0  0  0  0  0  0  0  0  0  0  0
  132.2760  121.4792   59.8277 H   0  0  0  0  0  0  0  0  0  0  0  0
  133.6798  122.5999   59.8277 H   0  0  0  0  0  0  0  0  0  0  0  0
  130.9252  123.6200   60.2577 H   0  0  0  0  0  0  0  0  0  0  0  0
  131.1786  125.4675   62.3185 H   0  0  0  0  0  0  0  0  0  0  0  0
  128.4188  127.3499   59.9999 H   0  0  0  0  0  0  0  0  0  0  0  0
  126.9480  126.7756   61.9164 H   0  0  0  0  0  0  0  0  0  0  0  0
  128.3513  126.8892   63.0442 H   0  0  0  0  0  0  0  0  0  0  0  0
  127.0750  129.1116   61.4135 H   0  0  0  0  0  0  0  0  0  0  0  0
  126.2168  130.0262   63.3581 H   0  0  0  0  0  0  0  0  0  0  0  0
  126.1448  128.2350   63.7249 H   0  0  0  0  0  0  0  0  0  0  0  0
  128.6829  129.5103   64.6728 H   0  0  0  0  0  0  0  0  0  0  0  0
  125.6977  128.9851   67.6366 H   0  0  0  0  0  0  0  0  0  0  0  0
  125.0889  129.7801   66.1453 H   0  0  0  0  0  0  0  0  0  0  0  0
  125.4379  128.0180   66.1453 H   0  0  0  0  0  0  0  0  0  0  0  0
  128.7809  130.4126   66.9741 H   0  0  0  0  0  0  0  0  0  0  0  0
  127.5392  129.7033   68.1424 H   0  0  0  0  0  0  0  0  0  0  0  0
  130.1288  128.8118   67.6833 H   0  0  0  0  0  0  0  0  0  0  0  0
  129.1418  128.4156   69.7812 H   0  0  0  0  0  0  0  0  0  0  0  0
  127.6634  127.6894   69.0646 H   0  0  0  0  0  0  0  0  0  0  0  0
  129.2064  126.7697   69.0646 H   0  0  0  0  0  0  0  0  0  0  0  0
  129.0277  127.6300   65.4886 H   0  0  0  0  0  0  0  0  0  0  0  0
  129.5945  125.6657   67.7793 H   0  0  0  0  0  0  0  0  0  0  0  0
  128.6623  124.4055   65.4744 H   0  0  0  0  0  0  0  0  0  0  0  0
  131.9440  126.5379   64.5692 H   0  0  0  0  0  0  0  0  0  0  0  0
  132.3147  125.6260   66.0479 H   0  0  0  0  0  0  0  0  0  0  0  0
  132.3558  122.7523   64.8562 H   0  0  0  0  0  0  0  0  0  0  0  0
  129.0750  123.0100   63.6450 H   0  0  0  0  0  0  0  0  0  0  0  0
  131.3561  130.0350   62.6027 H   0  0  0  0  0  0  0  0  0  0  0  0
  131.7737  130.0182   60.8380 H   0  0  0  0  0  0  0  0  0  0  0  0
  130.0072  132.0435   62.3040 H   0  0  0  0  0  0  0  0  0  0  0  0
  131.6248  132.3263   61.5503 H   0  0  0  0  0  0  0  0  0  0  0  0
  129.7020  133.1459   60.1025 H   0  0  0  0  0  0  0  0  0  0  0  0
  132.0001  131.7919   59.3190 H   0  0  0  0  0  0  0  0  0  0  0  0
  130.6774  131.0817   58.3327 H   0  0  0  0  0  0  0  0  0  0  0  0
  130.9433  132.8582   58.3327 H   0  0  0  0  0  0  0  0  0  0  0  0
  128.1304  131.4279   60.9028 H   0  0  0  0  0  0  0  0  0  0  0  0
  126.8845  131.7546   59.1116 H   0  0  0  0  0  0  0  0  0  0  0  0
  128.3473  132.2471   58.1929 H   0  0  0  0  0  0  0  0  0  0  0  0
  127.8228  130.5290   58.1929 H   0  0  0  0  0  0  0  0  0  0  0  0
  130.7727  127.7763   60.2502 H   0  0  0  0  0  0  0  0  0  0  0  0
  130.6569  127.5693   62.0394 H   0  0  0  0  0  0  0  0  0  0  0  0
  1  2  1  0
  2  3  2  0
  3  4  1  0
  4  5  1  0
  5  6  2  0
  5  7  1  0
  7  8  1  0
  8  9  1  0
  9 10  1  0
 10 11  1  0
 11 12  1  0
 12 13  2  0
 13 14  1  0
 13 15  1  0
 15 16  1  0
 16 17  1  0
 16 18  1  0
 18 19  2  0
 19 20  1  0
 20 21  2  0
 21 22  1  0
 22 23  1  0
 23 24  1  0
 24 25  1  0
 25 26  2  0
 24 27  1  0
 27 28  1  1
 10 29  1  0
 30 29  1  1
 30 31  1  0
 31 32  1  0
 32 33  1  0
 33 34  1  0
 33 35  1  0
 35 36  1  0
 35 37  1  0
 30 38  1  0
 25  2  1  0
 37 30  1  0
 27  4  1  0
 38  8  1  0
 27 21  1  0
  1 39  1  0
  1 40  1  0
  1 41  1  0
  3 42  1  0
  4 43  1  1
  8 44  1  6
  9 45  1  0
  9 46  1  0
 10 47  1  6
 11 48  1  0
 11 49  1  0
 12 50  1  0
 14 51  1  0
 14 52  1  0
 14 53  1  0
 15 54  1  0
 15 55  1  0
 16 56  1  1
 17 57  1  0
 17 58  1  0
 17 59  1  0
 18 60  1  0
 19 61  1  0
 20 62  1  0
 22 63  1  0
 22 64  1  0
 24 65  1  1
 28 66  1  0
 31 67  1  0
 31 68  1  0
 32 69  1  0
 32 70  1  0
 33 71  1  1
 34 72  1  0
 34 73  1  0
 34 74  1  0
 35 75  1  1
 36 76  1  0
 36 77  1  0
 36 78  1  0
 38 79  1  0
 38 80  1  0
M  END
>  <Binding energies>  (1) 
[-5.34]

>  <Ligand effiencies>  (1) 
[-0.1302439024390244]

>  <Interactions>  (1) 
["V-A:ILE:369:CG2:3237, V-A:GLY:454:CA:4049, V-B:GLU:543:CB:9878, V-B:TYR:539:CE2:9848, V-B:GLU:543:CG:9879, V-B:TYR:484:CE2:9317, V-B:ARG:545:CG:9894, V-A:GLU:543:CD:4908, V-B:HIS:456:CE1:9041, H-A:GLY:454:N:4050, V-B:TYR:484:CZ:9318, V-B:TYR:539:CD2:9846, V-A:GLU:543:CG:4907, V-B:GLU:543:CD:9880, V-A:LEU:475:CD2:4259, H-A:ARG:545:NH2:4928, V-A:ARG:545:CZ:4926, V-A:GLU:543:CB:4906, V-A:PRO:540:N:4884, V-A:PRO:540:CB:4885, V-A:PRO:540:CA:4883, H-A:TYR:484:OH:4348"]

$$$$
ZINC255205633
     RDKit          3D

 96102  0  0  0  0  0  0  0  0999 V2000
  127.9750  133.4570   64.8520 C   0  0  0  0  0  0  0  0  0  0  0  0
  127.3500  133.3240   63.4530 C   0  0  1  0  0  0  0  0  0  0  0  0
  128.2020  134.0230   62.3730 C   0  0  0  0  0  0  0  0  0  0  0  0
  127.5460  133.9110   60.9830 C   0  0  0  0  0  0  0  0  0  0  0  0
  127.2530  132.4450   60.5560 C   0  0  2  0  0  0  0  0  0  0  0  0
  126.4350  131.7570   61.6890 N   0  0  2  0  0  0  0  0  0  0  0  0
  127.0910  131.8430   63.0910 C   0  0  0  0  0  0  0  0  0  0  0  0
  125.9680  130.3380   61.3000 C   0  0  0  0  0  0  0  0  0  0  0  0
  127.1390  129.4480   60.8020 C   0  0  1  0  0  0  0  0  0  0  0  0
  126.6480  128.0010   60.4660 C   0  0  2  0  0  0  0  0  0  0  0  0
  127.3500  126.8880   61.2800 C   0  0  0  0  0  0  0  0  0  0  0  0
  127.3360  125.6480   60.3750 C   0  0  1  0  0  0  0  0  0  0  0  0
  127.5140  126.2230   58.9640 C   0  0  1  0  0  0  0  0  0  0  0  0
  127.2050  125.1720   57.8730 C   0  0  0  0  0  0  0  0  0  0  0  0
  127.9520  123.8450   58.1380 C   0  0  0  0  0  0  0  0  0  0  0  0
  128.5440  123.2430   57.2430 O   0  0  0  0  0  0  0  0  0  0  0  0
  127.8990  123.3550   59.6160 C   0  0  1  0  0  0  0  0  0  0  0  0
  128.6670  122.0250   59.8530 C   0  0  0  0  0  0  0  0  0  0  0  0
  128.3720  121.5070   61.2830 C   0  0  1  0  0  0  0  0  0  0  0  0
  129.0560  120.2890   61.5800 O   0  0  0  0  0  0  0  0  0  0  0  0
  130.4490  120.3520   61.6840 C   0  0  2  0  0  0  0  0  0  0  0  0
  130.8610  121.6900   61.8020 O   0  0  0  0  0  0  0  0  0  0  0  0
  132.2690  121.8360   62.0150 C   0  0  2  0  0  0  0  0  0  0  0  0
  132.5060  123.3280   62.3420 C   0  0  0  0  0  0  0  0  0  0  0  0
  133.8150  123.5710   62.8150 O   0  0  0  0  0  0  0  0  0  0  0  0
  133.0210  121.3350   60.7520 C   0  0  1  0  0  0  0  0  0  0  0  0
  134.4280  121.3770   60.9300 O   0  0  0  0  0  0  0  0  0  0  0  0
  132.5700  119.9020   60.3860 C   0  0  2  0  0  0  0  0  0  0  0  0
  133.1230  119.4810   59.1490 O   0  0  0  0  0  0  0  0  0  0  0  0
  131.0280  119.7640   60.3870 C   0  0  1  0  0  0  0  0  0  0  0  0
  130.6260  118.4160   60.2100 O   0  0  0  0  0  0  0  0  0  0  0  0
  128.7710  122.5560   62.3430 C   0  0  0  0  0  0  0  0  0  0  0  0
  128.0890  123.9180   62.0700 C   0  0  0  0  0  0  0  0  0  0  0  0
  128.3380  124.4790   60.6340 C   0  0  2  0  0  0  0  0  0  0  0  0
  129.8480  124.8510   60.4820 C   0  0  0  0  0  0  0  0  0  0  0  0
  126.7150  127.5350   58.9740 C   0  0  2  0  0  0  0  0  0  0  0  0
  127.1000  128.5520   57.8650 C   0  0  0  0  0  0  0  0  0  0  0  0
  127.1480  130.0080   58.3500 C   0  0  0  0  0  0  0  0  0  0  0  0
  127.9600  130.1160   59.6620 C   0  0  1  0  0  0  0  0  0  0  0  0
  128.4490  131.5490   60.0690 C   0  0  1  0  0  0  0  0  0  0  0  0
  129.2180  132.2360   58.9120 C   0  0  0  0  0  0  0  0  0  0  0  0
  129.4520  131.3950   61.0620 O   0  0  0  0  0  0  0  0  0  0  0  0
  127.2013  133.2924   65.6164 H   0  0  0  0  0  0  0  0  0  0  0  0
  128.7723  132.7084   64.9701 H   0  0  0  0  0  0  0  0  0  0  0  0
  128.3984  134.4654   64.9701 H   0  0  0  0  0  0  0  0  0  0  0  0
  126.3779  133.8379   63.4830 H   0  0  0  0  0  0  0  0  0  0  0  0
  128.3094  135.0862   62.6339 H   0  0  0  0  0  0  0  0  0  0  0  0
  129.1849  133.5307   62.3337 H   0  0  0  0  0  0  0  0  0  0  0  0
  126.5964  134.4659   60.9996 H   0  0  0  0  0  0  0  0  0  0  0  0
  128.2569  134.3263   60.2535 H   0  0  0  0  0  0  0  0  0  0  0  0
  126.6803  132.5380   59.6215 H   0  0  0  0  0  0  0  0  0  0  0  0
  125.5990  132.3160   61.7910 H   0  0  0  0  0  0  0  0  0  0  0  0
  126.4185  131.3959   63.8378 H   0  0  0  0  0  0  0  0  0  0  0  0
  128.0459  131.2971   63.0815 H   0  0  0  0  0  0  0  0  0  0  0  0
  125.5116  129.8620   62.1804 H   0  0  0  0  0  0  0  0  0  0  0  0
  125.2456  130.4355   60.4763 H   0  0  0  0  0  0  0  0  0  0  0  0
  127.8539  129.3452   61.6317 H   0  0  0  0  0  0  0  0  0  0  0  0
  125.5905  128.1214   60.7437 H   0  0  0  0  0  0  0  0  0  0  0  0
  128.3839  127.1791   61.5174 H   0  0  0  0  0  0  0  0  0  0  0  0
  126.8423  126.7004   62.2376 H   0  0  0  0  0  0  0  0  0  0  0  0
  126.3948  125.1156   60.5768 H   0  0  0  0  0  0  0  0  0  0  0  0
  128.5501  126.4715   58.6905 H   0  0  0  0  0  0  0  0  0  0  0  0
  126.1225  124.9767   57.8610 H   0  0  0  0  0  0  0  0  0  0  0  0
  127.5415  125.5703   56.9044 H   0  0  0  0  0  0  0  0  0  0  0  0
  126.8405  123.1310   59.8146 H   0  0  0  0  0  0  0  0  0  0  0  0
  128.3396  121.2761   59.1168 H   0  0  0  0  0  0  0  0  0  0  0  0
  129.7472  122.2001   59.7417 H   0  0  0  0  0  0  0  0  0  0  0  0
  127.2887  121.3190   61.3162 H   0  0  0  0  0  0  0  0  0  0  0  0
  130.7948  119.7959   62.5678 H   0  0  0  0  0  0  0  0  0  0  0  0
  132.6544  121.2338   62.8510 H   0  0  0  0  0  0  0  0  0  0  0  0
  132.3438  123.9204   61.4295 H   0  0  0  0  0  0  0  0  0  0  0  0
  131.8019  123.6147   63.1370 H   0  0  0  0  0  0  0  0  0  0  0  0
  134.4070  122.9190   62.4300 H   0  0  0  0  0  0  0  0  0  0  0  0
  132.7665  122.0128   59.9238 H   0  0  0  0  0  0  0  0  0  0  0  0
  134.6620  120.7850   61.6480 H   0  0  0  0  0  0  0  0  0  0  0  0
  132.9583  119.2343   61.1692 H   0  0  0  0  0  0  0  0  0  0  0  0
  132.5570  118.8000   58.7760 H   0  0  0  0  0  0  0  0  0  0  0  0
  130.6292  120.3330   59.5342 H   0  0  0  0  0  0  0  0  0  0  0  0
  129.7180  118.3270   60.5100 H   0  0  0  0  0  0  0  0  0  0  0  0
  128.4663  122.1954   63.3365 H   0  0  0  0  0  0  0  0  0  0  0  0
  129.8609  122.6980   62.2981 H   0  0  0  0  0  0  0  0  0  0  0  0
  127.0048  123.7957   62.2100 H   0  0  0  0  0  0  0  0  0  0  0  0
  128.5293  124.6400   62.7735 H   0  0  0  0  0  0  0  0  0  0  0  0
  130.3003  124.9624   61.4785 H   0  0  0  0  0  0  0  0  0  0  0  0
  130.3682  124.0542   59.9302 H   0  0  0  0  0  0  0  0  0  0  0  0
  129.9385  125.7983   59.9302 H   0  0  0  0  0  0  0  0  0  0  0  0
  125.6764  127.3938   58.6401 H   0  0  0  0  0  0  0  0  0  0  0  0
  128.0934  128.2826   57.4770 H   0  0  0  0  0  0  0  0  0  0  0  0
  126.3179  128.4966   57.0935 H   0  0  0  0  0  0  0  0  0  0  0  0
  127.6231  130.6311   57.5780 H   0  0  0  0  0  0  0  0  0  0  0  0
  126.1210  130.3542   58.5380 H   0  0  0  0  0  0  0  0  0  0  0  0
  128.9063  129.5863   59.4778 H   0  0  0  0  0  0  0  0  0  0  0  0
  129.9773  132.9143   59.3283 H   0  0  0  0  0  0  0  0  0  0  0  0
  129.7096  131.4708   58.2933 H   0  0  0  0  0  0  0  0  0  0  0  0
  128.5129  132.8104   58.2933 H   0  0  0  0  0  0  0  0  0  0  0  0
  130.2010  130.9410   60.6700 H   0  0  0  0  0  0  0  0  0  0  0  0
  1  2  1  0
  2  3  1  0
  3  4  1  0
  4  5  1  0
  5  6  1  0
  6  7  1  0
  6  8  1  0
  8  9  1  0
  9 10  1  0
 10 11  1  0
 11 12  1  0
 12 13  1  0
 13 14  1  0
 14 15  1  0
 15 16  2  0
 15 17  1  0
 17 18  1  0
 18 19  1  0
 19 20  1  0
 20 21  1  0
 21 22  1  0
 22 23  1  0
 23 24  1  0
 24 25  1  0
 23 26  1  0
 26 27  1  0
 26 28  1  0
 28 29  1  0
 28 30  1  0
 30 31  1  0
 19 32  1  0
 32 33  1  0
 33 34  1  0
 34 35  1  1
 13 36  1  0
 36 37  1  0
 37 38  1  0
 38 39  1  0
 39 40  1  0
 40 41  1  0
 40 42  1  1
  7  2  1  0
 39  9  1  0
 40  5  1  0
 36 10  1  0
 34 12  1  0
 34 17  1  0
 30 21  1  0
  1 43  1  0
  1 44  1  0
  1 45  1  0
  2 46  1  1
  3 47  1  0
  3 48  1  0
  4 49  1  0
  4 50  1  0
  5 51  1  6
  6 52  1  1
  7 53  1  0
  7 54  1  0
  8 55  1  0
  8 56  1  0
  9 57  1  1
 10 58  1  1
 11 59  1  0
 11 60  1  0
 12 61  1  6
 13 62  1  1
 14 63  1  0
 14 64  1  0
 17 65  1  1
 18 66  1  0
 18 67  1  0
 19 68  1  6
 21 69  1  1
 23 70  1  1
 24 71  1  0
 24 72  1  0
 25 73  1  0
 26 74  1  6
 27 75  1  0
 28 76  1  1
 29 77  1  0
 30 78  1  6
 31 79  1  0
 32 80  1  0
 32 81  1  0
 33 82  1  0
 33 83  1  0
 35 84  1  0
 35 85  1  0
 35 86  1  0
 36 87  1  6
 37 88  1  0
 37 89  1  0
 38 90  1  0
 38 91  1  0
 39 92  1  6
 41 93  1  0
 41 94  1  0
 41 95  1  0
 42 96  1  0
M  CHG  1   6   1
M  END
>  <Binding energies>  (1) 
[-6.16]

>  <Ligand effiencies>  (1) 
[-0.12833333333333333]

>  <Interactions>  (1) 
["V-A:ILE:369:CG2:3237, V-B:PRO:540:CA:9855, V-B:ALA:541:CB:9864, V-B:ASP:366:CG:8184, V-B:TYR:539:CE2:9848, V-B:LEU:475:CD2:9230, V-B:GLU:543:CG:9879, V-B:TYR:539:C:9839, V-A:TYR:539:CD1:4873, V-B:TYR:484:CE2:9317, H-B:TYR:539:OH:9850, V-A:ALA:541:CB:4892, H-B:ALA:541:N:9863, H-A:GLY:454:N:4050, V-B:PRO:540:N:9856, V-B:TYR:484:CZ:9318, V-B:TYR:539:CD2:9846, V-A:SER:385:CB:3409, H-A:SER:385:OG:3410, V-B:GLU:543:CD:9880, V-A:TYR:539:C:4867, V-A:LEU:475:CD2:4259, V-B:TYR:539:CG:9844, H-A:HIS:383:HE2:3395, H-B:TYR:539:O:9840, H-A:SER:385:O:3406, V-B:PRO:540:C:9853, V-B:ALA:541:CA:9862"]

$$$$
ZINC255221055
     RDKit          3D

 82 85  0  0  0  0  0  0  0  0999 V2000
  133.5910  131.4810   59.8960 C   0  0  0  0  0  0  0  0  0  0  0  0
  132.9880  131.3690   58.5060 C   0  0  0  0  0  0  0  0  0  0  0  0
  133.6460  130.3140   57.6260 C   0  0  0  0  0  0  0  0  0  0  0  0
  131.9690  132.1660   58.1180 C   0  0  0  0  0  0  0  0  0  0  0  0
  131.2480  132.1630   56.7800 C   0  0  0  0  0  0  0  0  0  0  0  0
  129.8770  131.4620   56.8420 C   0  0  0  0  0  0  0  0  0  0  0  0
  129.2420  131.3440   58.2550 C   0  0  1  0  0  0  0  0  0  0  0  0
  127.9580  132.2070   58.3510 C   0  0  0  0  0  0  0  0  0  0  0  0
  128.9460  129.8640   58.6870 C   0  0  2  0  0  0  0  0  0  0  0  0
  127.8770  129.7620   59.8150 C   0  0  0  0  0  0  0  0  0  0  0  0
  128.2630  128.5720   60.7140 C   0  0  0  0  0  0  0  0  0  0  0  0
  129.3090  127.7840   59.8970 C   0  0  2  0  0  0  0  0  0  0  0  0
  128.4950  126.8600   58.9280 C   0  0  0  0  0  0  0  0  0  0  0  0
  130.2810  126.8640   60.6640 C   0  0  0  0  0  0  0  0  0  0  0  0
  129.9940  126.3420   61.8720 C   0  0  0  0  0  0  0  0  0  0  0  0
  130.8730  125.3810   62.6520 C   0  0  0  0  0  0  0  0  0  0  0  0
  132.1900  124.9850   61.9070 C   0  0  1  0  0  0  0  0  0  0  0  0
  132.9200  123.7320   62.5400 C   0  0  0  0  0  0  0  0  0  0  0  0
  133.1210  123.9880   64.0610 C   0  0  0  0  0  0  0  0  0  0  0  0
  132.1500  122.3980   62.3140 C   0  0  0  0  0  0  0  0  0  0  0  0
  134.3400  123.6400   61.8900 C   0  0  1  0  0  0  0  0  0  0  0  0
  135.1100  122.5470   62.3630 O   0  0  0  0  0  0  0  0  0  0  0  0
  134.3040  123.6070   60.3490 C   0  0  0  0  0  0  0  0  0  0  0  0
  133.5190  124.7770   59.7150 C   0  0  1  0  0  0  0  0  0  0  0  0
  133.5120  124.5660   58.3130 O   0  0  0  0  0  0  0  0  0  0  0  0
  132.0900  125.0490   60.3260 C   0  0  1  0  0  0  0  0  0  0  0  0
  131.0560  124.0180   59.7680 C   0  0  0  0  0  0  0  0  0  0  0  0
  131.6250  126.5230   59.9720 C   0  0  1  0  0  0  0  0  0  0  0  0
  131.6560  126.9580   58.4700 C   0  0  0  0  0  0  0  0  0  0  0  0
  131.0910  128.3710   58.1570 C   0  0  0  0  0  0  0  0  0  0  0  0
  130.1110  128.9570   59.2200 C   0  0  1  0  0  0  0  0  0  0  0  0
  130.9670  129.7860   60.2430 C   0  0  0  0  0  0  0  0  0  0  0  0
  132.8036  131.3348   60.6501 H   0  0  0  0  0  0  0  0  0  0  0  0
  134.3670  130.7116   60.0221 H   0  0  0  0  0  0  0  0  0  0  0  0
  134.0390  132.4777   60.0221 H   0  0  0  0  0  0  0  0  0  0  0  0
  134.1214  129.5517   58.2607 H   0  0  0  0  0  0  0  0  0  0  0  0
  132.8838  129.8389   56.9909 H   0  0  0  0  0  0  0  0  0  0  0  0
  134.4079  130.7895   56.9909 H   0  0  0  0  0  0  0  0  0  0  0  0
  131.6203  132.9031   58.8563 H   0  0  0  0  0  0  0  0  0  0  0  0
  131.0961  133.2045   56.4603 H   0  0  0  0  0  0  0  0  0  0  0  0
  131.8735  131.6047   56.0680 H   0  0  0  0  0  0  0  0  0  0  0  0
  129.1802  132.0262   56.2047 H   0  0  0  0  0  0  0  0  0  0  0  0
  130.0536  130.4295   56.5063 H   0  0  0  0  0  0  0  0  0  0  0  0
  129.9930  131.7268   58.9618 H   0  0  0  0  0  0  0  0  0  0  0  0
  127.7076  132.3753   59.4088 H   0  0  0  0  0  0  0  0  0  0  0  0
  128.1286  133.1745   57.8562 H   0  0  0  0  0  0  0  0  0  0  0  0
  127.1266  131.6836   57.8562 H   0  0  0  0  0  0  0  0  0  0  0  0
  128.6400  129.4890   57.6992 H   0  0  0  0  0  0  0  0  0  0  0  0
  127.8646  130.6900   60.4055 H   0  0  0  0  0  0  0  0  0  0  0  0
  126.8749  129.6140   59.3862 H   0  0  0  0  0  0  0  0  0  0  0  0
  128.6973  128.9262   61.6605 H   0  0  0  0  0  0  0  0  0  0  0  0
  127.3931  127.9540   60.9811 H   0  0  0  0  0  0  0  0  0  0  0  0
  127.8806  126.1626   59.5163 H   0  0  0  0  0  0  0  0  0  0  0  0
  127.8426  127.4781   58.2937 H   0  0  0  0  0  0  0  0  0  0  0  0
  129.1904  126.2907   58.2937 H   0  0  0  0  0  0  0  0  0  0  0  0
  129.0402  126.6376   62.3333 H   0  0  0  0  0  0  0  0  0  0  0  0
  131.1437  125.8555   63.6068 H   0  0  0  0  0  0  0  0  0  0  0  0
  130.2930  124.4568   62.7912 H   0  0  0  0  0  0  0  0  0  0  0  0
  132.9098  125.7934   62.1030 H   0  0  0  0  0  0  0  0  0  0  0  0
  132.5421  123.2507   64.6366 H   0  0  0  0  0  0  0  0  0  0  0  0
  134.1879  123.8925   64.3110 H   0  0  0  0  0  0  0  0  0  0  0  0
  132.7751  125.0018   64.3110 H   0  0  0  0  0  0  0  0  0  0  0  0
  131.8934  121.9534   63.2869 H   0  0  0  0  0  0  0  0  0  0  0  0
  131.2284  122.5980   61.7477 H   0  0  0  0  0  0  0  0  0  0  0  0
  132.7841  121.7000   61.7477 H   0  0  0  0  0  0  0  0  0  0  0  0
  134.8326  124.5707   62.2079 H   0  0  0  0  0  0  0  0  0  0  0  0
  134.7480  121.7380   61.9940 H   0  0  0  0  0  0  0  0  0  0  0  0
  135.3388  123.6430   59.9777 H   0  0  0  0  0  0  0  0  0  0  0  0
  133.7837  122.6813   60.0619 H   0  0  0  0  0  0  0  0  0  0  0  0
  134.0348  125.7171   59.9601 H   0  0  0  0  0  0  0  0  0  0  0  0
  134.3760  124.7990   57.9670 H   0  0  0  0  0  0  0  0  0  0  0  0
  130.5513  123.5148   60.6059 H   0  0  0  0  0  0  0  0  0  0  0  0
  130.3104  124.5429   59.1527 H   0  0  0  0  0  0  0  0  0  0  0  0
  131.5787  123.2709   59.1527 H   0  0  0  0  0  0  0  0  0  0  0  0
  132.4271  127.1474   60.3925 H   0  0  0  0  0  0  0  0  0  0  0  0
  132.7031  126.9325   58.1341 H   0  0  0  0  0  0  0  0  0  0  0  0
  130.9964  126.2523   57.9438 H   0  0  0  0  0  0  0  0  0  0  0  0
  131.9415  129.0623   58.0637 H   0  0  0  0  0  0  0  0  0  0  0  0
  130.5027  128.2616   57.2340 H   0  0  0  0  0  0  0  0  0  0  0  0
  130.6816  129.5096   61.2687 H   0  0  0  0  0  0  0  0  0  0  0  0
  132.0343  129.5694   60.0884 H   0  0  0  0  0  0  0  0  0  0  0  0
  130.7847  130.8597   60.0884 H   0  0  0  0  0  0  0  0  0  0  0  0
  1  2  1  0
  2  3  1  0
  2  4  2  3
  4  5  1  0
  5  6  1  0
  6  7  1  0
  7  8  1  0
  7  9  1  0
  9 10  1  0
 10 11  1  0
 11 12  1  0
 12 13  1  6
 12 14  1  0
 14 15  2  0
 15 16  1  0
 16 17  1  0
 17 18  1  0
 18 19  1  0
 18 20  1  0
 18 21  1  0
 21 22  1  0
 21 23  1  0
 23 24  1  0
 24 25  1  0
 24 26  1  0
 26 27  1  6
 26 28  1  0
 28 29  1  0
 29 30  1  0
 30 31  1  0
 31 32  1  1
 31  9  1  0
 31 12  1  0
 28 14  1  0
 26 17  1  0
  1 33  1  0
  1 34  1  0
  1 35  1  0
  3 36  1  0
  3 37  1  0
  3 38  1  0
  4 39  1  0
  5 40  1  0
  5 41  1  0
  6 42  1  0
  6 43  1  0
  7 44  1  1
  8 45  1  0
  8 46  1  0
  8 47  1  0
  9 48  1  6
 10 49  1  0
 10 50  1  0
 11 51  1  0
 11 52  1  0
 13 53  1  0
 13 54  1  0
 13 55  1  0
 15 56  1  0
 16 57  1  0
 16 58  1  0
 17 59  1  1
 19 60  1  0
 19 61  1  0
 19 62  1  0
 20 63  1  0
 20 64  1  0
 20 65  1  0
 21 66  1  6
 22 67  1  0
 23 68  1  0
 23 69  1  0
 24 70  1  6
 25 71  1  0
 27 72  1  0
 27 73  1  0
 27 74  1  0
 28 75  1  1
 29 76  1  0
 29 77  1  0
 30 78  1  0
 30 79  1  0
 32 80  1  0
 32 81  1  0
 32 82  1  0
M  END
>  <Binding energies>  (1) 
[-8.26]

>  <Ligand effiencies>  (1) 
[-0.24294117647058822]

>  <Interactions>  (1) 
["V-A:ILE:369:CG2:3237, V-A:ASP:366:CA:3210, V-A:GLY:454:CA:4049, V-A:ILE:369:CB:3236, V-B:TYR:539:CE2:9848, V-A:ASP:366:CG:3213, V-A:LEU:363:CD1:3189, V-A:LEU:363:CB:3187, V-A:TYR:539:CD1:4873, V-B:TYR:539:CZ:9849, V-A:TYR:531:CE2:4793, H-B:TYR:539:OH:9850, H-A:GLY:454:N:4050, V-A:ILE:369:CD1:3239, V-A:TYR:531:CZ:4794, V-A:MET:535:CE:4835, V-A:ILE:369:CG1:3238, V-A:ASP:366:CB:3212, V-A:LEU:475:CD2:4259, V-A:ASN:362:C:3172, H-A:ASP:366:O:3209, V-A:PRO:540:N:4884, V-A:PRO:540:CB:4885, V-A:PRO:540:CA:4883, V-A:LEU:363:CA:3185, H-A:SER:385:O:3406, V-A:TYR:539:CE1:4875"]

$$$$
ZINC255263358
     RDKit          3D

 99102  0  0  0  0  0  0  0  0999 V2000
  129.8670  129.9940   57.3320 C   0  0  0  0  0  0  0  0  0  0  0  0
  130.0550  131.2990   57.6030 C   0  0  0  0  0  0  0  0  0  0  0  0
  131.4240  131.8330   58.0060 C   0  0  0  0  0  0  0  0  0  0  0  0
  128.9050  132.3070   57.5330 C   0  0  2  0  0  0  0  0  0  0  0  0
  129.4230  133.5540   57.1150 O   0  0  0  0  0  0  0  0  0  0  0  0
  128.1330  132.5050   58.8580 C   0  0  0  0  0  0  0  0  0  0  0  0
  129.0330  132.9670   60.0320 C   0  0  0  0  0  0  0  0  0  0  0  0
  128.3750  133.0530   61.4530 C   0  0  2  0  0  0  0  0  0  0  0  0
  126.9320  133.6310   61.3370 C   0  0  0  0  0  0  0  0  0  0  0  0
  129.0770  134.0720   62.1480 O   0  0  0  0  0  0  0  0  0  0  0  0
  128.4070  131.6790   62.2660 C   0  0  1  0  0  0  0  0  0  0  0  0
  129.2880  131.8720   63.3680 O   0  0  0  0  0  0  0  0  0  0  0  0
  126.9880  131.2990   62.7930 C   0  0  0  0  0  0  0  0  0  0  0  0
  126.6120  129.9530   62.1530 C   0  0  0  0  0  0  0  0  0  0  0  0
  127.9460  129.2060   61.9260 C   0  0  2  0  0  0  0  0  0  0  0  0
  128.3640  128.6660   63.3470 C   0  0  0  0  0  0  0  0  0  0  0  0
  128.8440  130.3950   61.4690 C   0  0  2  0  0  0  0  0  0  0  0  0
  130.3190  129.9230   61.3790 C   0  0  2  0  0  0  0  0  0  0  0  0
  131.1560  131.0290   61.0500 O   0  0  0  0  0  0  0  0  0  0  0  0
  131.9560  131.6150   61.9690 C   0  0  0  0  0  0  0  0  0  0  0  0
  133.4320  131.4630   61.6270 C   0  0  0  0  0  0  0  0  0  0  0  0
  131.5900  132.2190   62.9780 O   0  0  0  0  0  0  0  0  0  0  0  0
  130.4340  128.8000   60.3160 C   0  0  0  0  0  0  0  0  0  0  0  0
  129.4710  127.5950   60.5830 C   0  0  2  0  0  0  0  0  0  0  0  0
  129.7070  126.3110   59.6660 C   0  0  1  0  0  0  0  0  0  0  0  0
  129.3900  126.5950   58.1630 C   0  0  0  0  0  0  0  0  0  0  0  0
  131.2060  125.8650   59.7820 C   0  0  0  0  0  0  0  0  0  0  0  0
  131.5130  124.4490   59.2470 C   0  0  0  0  0  0  0  0  0  0  0  0
  130.6140  123.3770   59.9070 C   0  0  1  0  0  0  0  0  0  0  0  0
  130.9610  123.2220   61.2890 O   0  0  0  0  0  0  0  0  0  0  0  0
  132.2500  123.2160   61.7140 C   0  0  0  0  0  0  0  0  0  0  0  0
  133.0760  122.3280   61.4980 O   0  0  0  0  0  0  0  0  0  0  0  0
  132.6380  124.4860   62.4980 C   0  0  0  0  0  0  0  0  0  0  0  0
  133.3900  124.1870   63.8210 C   0  0  0  0  0  0  0  0  0  0  0  0
  133.2570  123.0280   64.2740 O   0  0  0  0  0  0  0  0  0  0  0  0
  134.0290  125.0970   64.4020 O   0  0  0  0  0  0  0  0  0  0  0  0
  129.0860  123.6870   59.7390 C   0  0  0  0  0  0  0  0  0  0  0  0
  128.6900  123.5150   58.2470 C   0  0  0  0  0  0  0  0  0  0  0  0
  128.2980  122.6500   60.5900 C   0  0  0  0  0  0  0  0  0  0  0  0
  128.8290  125.1480   60.2960 C   0  0  2  0  0  0  0  0  0  0  0  0
  127.3320  125.5610   60.3950 C   0  0  0  0  0  0  0  0  0  0  0  0
  127.1410  126.8170   61.2700 C   0  0  0  0  0  0  0  0  0  0  0  0
  127.9550  128.0640   60.7930 C   0  0  1  0  0  0  0  0  0  0  0  0
  127.3130  128.5240   59.4400 C   0  0  0  0  0  0  0  0  0  0  0  0
  128.8699  129.6304   57.0429 H   0  0  0  0  0  0  0  0  0  0  0  0
  130.7105  129.2912   57.3996 H   0  0  0  0  0  0  0  0  0  0  0  0
  131.4979  131.8618   59.1031 H   0  0  0  0  0  0  0  0  0  0  0  0
  132.2076  131.1746   57.6029 H   0  0  0  0  0  0  0  0  0  0  0  0
  131.5548  132.8481   57.6029 H   0  0  0  0  0  0  0  0  0  0  0  0
  128.1776  131.8932   56.8191 H   0  0  0  0  0  0  0  0  0  0  0  0
  128.7120  134.0580   56.7120 H   0  0  0  0  0  0  0  0  0  0  0  0
  127.3531  133.2639   58.6970 H   0  0  0  0  0  0  0  0  0  0  0  0
  127.7115  131.5281   59.1371 H   0  0  0  0  0  0  0  0  0  0  0  0
  129.8749  132.2623   60.1000 H   0  0  0  0  0  0  0  0  0  0  0  0
  129.3084  134.0030   59.7855 H   0  0  0  0  0  0  0  0  0  0  0  0
  126.5209  133.7957   62.3439 H   0  0  0  0  0  0  0  0  0  0  0  0
  126.9623  134.5864   60.7926 H   0  0  0  0  0  0  0  0  0  0  0  0
  126.2944  132.9189   60.7926 H   0  0  0  0  0  0  0  0  0  0  0  0
  129.8600  133.6850   62.5430 H   0  0  0  0  0  0  0  0  0  0  0  0
  130.0960  131.3820   63.1980 H   0  0  0  0  0  0  0  0  0  0  0  0
  127.0058  131.2036   63.8887 H   0  0  0  0  0  0  0  0  0  0  0  0
  126.2533  132.0749   62.5318 H   0  0  0  0  0  0  0  0  0  0  0  0
  125.9607  129.3772   62.8270 H   0  0  0  0  0  0  0  0  0  0  0  0
  126.0615  130.0929   61.2110 H   0  0  0  0  0  0  0  0  0  0  0  0
  127.8890  129.2796   64.1267 H   0  0  0  0  0  0  0  0  0  0  0  0
  128.0371  127.6211   63.4529 H   0  0  0  0  0  0  0  0  0  0  0  0
  129.4575  128.7206   63.4529 H   0  0  0  0  0  0  0  0  0  0  0  0
  128.7090  130.7449   60.4349 H   0  0  0  0  0  0  0  0  0  0  0  0
  130.6462  129.5208   62.3491 H   0  0  0  0  0  0  0  0  0  0  0  0
  134.0191  131.4025   62.5552 H   0  0  0  0  0  0  0  0  0  0  0  0
  133.5796  130.5449   61.0393 H   0  0  0  0  0  0  0  0  0  0  0  0
  133.7636  132.3317   61.0393 H   0  0  0  0  0  0  0  0  0  0  0  0
  130.1953  129.2262   59.3304 H   0  0  0  0  0  0  0  0  0  0  0  0
  131.4623  128.4120   60.3613 H   0  0  0  0  0  0  0  0  0  0  0  0
  129.7639  127.1845   61.5606 H   0  0  0  0  0  0  0  0  0  0  0  0
  128.5724  127.3275   58.0928 H   0  0  0  0  0  0  0  0  0  0  0  0
  130.2865  126.9977   57.6689 H   0  0  0  0  0  0  0  0  0  0  0  0
  129.0879  125.6598   57.6689 H   0  0  0  0  0  0  0  0  0  0  0  0
  131.8194  126.5827   59.2175 H   0  0  0  0  0  0  0  0  0  0  0  0
  131.4357  125.8419   60.8575 H   0  0  0  0  0  0  0  0  0  0  0  0
  131.3442  124.4349   58.1601 H   0  0  0  0  0  0  0  0  0  0  0  0
  132.5598  124.2124   59.4882 H   0  0  0  0  0  0  0  0  0  0  0  0
  130.7976  122.4267   59.3843 H   0  0  0  0  0  0  0  0  0  0  0  0
  133.2865  125.1049   61.8605 H   0  0  0  0  0  0  0  0  0  0  0  0
  131.7035  125.0013   62.7648 H   0  0  0  0  0  0  0  0  0  0  0  0
  127.6828  123.0775   58.1831 H   0  0  0  0  0  0  0  0  0  0  0  0
  128.6956  124.4966   57.7506 H   0  0  0  0  0  0  0  0  0  0  0  0
  129.4112  122.8490   57.7506 H   0  0  0  0  0  0  0  0  0  0  0  0
  128.4555  122.8573   61.6588 H   0  0  0  0  0  0  0  0  0  0  0  0
  127.2256  122.7232   60.3565 H   0  0  0  0  0  0  0  0  0  0  0  0
  128.6558  121.6364   60.3565 H   0  0  0  0  0  0  0  0  0  0  0  0
  129.2000  125.0338   61.3252 H   0  0  0  0  0  0  0  0  0  0  0  0
  126.9528  125.7704   59.3839 H   0  0  0  0  0  0  0  0  0  0  0  0
  126.7787  124.7323   60.8609 H   0  0  0  0  0  0  0  0  0  0  0  0
  126.0731  127.0806   61.2657 H   0  0  0  0  0  0  0  0  0  0  0  0
  127.5146  126.5619   62.2727 H   0  0  0  0  0  0  0  0  0  0  0  0
  126.4347  129.1533   59.6462 H   0  0  0  0  0  0  0  0  0  0  0  0
  128.0499  129.1009   58.8619 H   0  0  0  0  0  0  0  0  0  0  0  0
  127.0037  127.6407   58.8619 H   0  0  0  0  0  0  0  0  0  0  0  0
  1  2  2  0
  2  3  1  0
  2  4  1  0
  4  5  1  0
  4  6  1  0
  6  7  1  0
  7  8  1  0
  8  9  1  0
  8 10  1  1
  8 11  1  0
 11 12  1  1
 11 13  1  0
 13 14  1  0
 14 15  1  0
 15 16  1  1
 15 17  1  0
 17 18  1  0
 18 19  1  0
 19 20  1  0
 20 21  1  0
 20 22  2  0
 18 23  1  0
 23 24  1  0
 24 25  1  0
 25 26  1  6
 25 27  1  0
 27 28  1  0
 28 29  1  0
 29 30  1  0
 30 31  1  0
 31 32  2  0
 31 33  1  0
 33 34  1  0
 34 35  2  0
 34 36  1  0
 29 37  1  0
 37 38  1  0
 37 39  1  0
 37 40  1  0
 40 41  1  0
 41 42  1  0
 42 43  1  0
 43 44  1  6
 17 11  1  0
 43 24  1  0
 43 15  1  0
 40 25  1  0
  1 45  1  0
  1 46  1  0
  3 47  1  0
  3 48  1  0
  3 49  1  0
  4 50  1  6
  5 51  1  0
  6 52  1  0
  6 53  1  0
  7 54  1  0
  7 55  1  0
  9 56  1  0
  9 57  1  0
  9 58  1  0
 10 59  1  0
 12 60  1  0
 13 61  1  0
 13 62  1  0
 14 63  1  0
 14 64  1  0
 16 65  1  0
 16 66  1  0
 16 67  1  0
 17 68  1  6
 18 69  1  1
 21 70  1  0
 21 71  1  0
 21 72  1  0
 23 73  1  0
 23 74  1  0
 24 75  1  1
 26 76  1  0
 26 77  1  0
 26 78  1  0
 27 79  1  0
 27 80  1  0
 28 81  1  0
 28 82  1  0
 29 83  1  6
 33 84  1  0
 33 85  1  0
 38 86  1  0
 38 87  1  0
 38 88  1  0
 39 89  1  0
 39 90  1  0
 39 91  1  0
 40 92  1  1
 41 93  1  0
 41 94  1  0
 42 95  1  0
 42 96  1  0
 44 97  1  0
 44 98  1  0
 44 99  1  0
M  CHG  1  36  -1
M  END
>  <Binding energies>  (1) 
[-7.62]

>  <Ligand effiencies>  (1) 
[-0.1621276595744681]

>  <Interactions>  (1) 
["V-B:PRO:540:CA:9855, V-A:GLY:454:CA:4049, H-A:ALA:541:N:4891, H-A:ARG:545:NH1:4927, V-B:TYR:539:CE2:9848, V-B:LEU:475:CD2:9230, V-A:ASP:366:CG:3213, V-A:ASN:362:CB:3176, V-A:TYR:539:CD1:4873, V-B:TYR:539:CZ:9849, V-A:GLU:543:CD:4908, H-A:GLY:454:N:4050, V-B:TYR:539:CD2:9846, V-A:MET:535:CE:4835, V-A:TYR:539:C:4867, H-A:ARG:545:NH2:4928, V-A:ASN:362:C:3172, H-A:GLU:543:OE1:4909, V-A:ARG:545:CZ:4926, V-A:PRO:540:N:4884, H-A:TYR:539:N:4870, V-A:PRO:540:CB:4885, V-A:PRO:540:CA:4883, H-A:ARG:545:NE:4924, V-A:TYR:539:CE1:4875, H-A:TYR:484:OH:4348"]

$$$$
ZINC255280289
     RDKit          3D

 88 93  0  0  0  0  0  0  0  0999 V2000
  133.6000  125.1740   65.9110 C   0  0  0  0  0  0  0  0  0  0  0  0
  133.6070  124.7020   64.4630 C   0  0  0  0  0  0  0  0  0  0  0  0
  134.4560  125.1010   63.6630 O   0  0  0  0  0  0  0  0  0  0  0  0
  132.6000  123.8390   64.2020 O   0  0  0  0  0  0  0  0  0  0  0  0
  132.0010  123.7490   62.9080 C   0  0  2  0  0  0  0  0  0  0  0  0
  130.4870  124.0260   63.0580 C   0  0  0  0  0  0  0  0  0  0  0  0
  129.5990  123.5010   61.8840 C   0  0  1  0  0  0  0  0  0  0  0  0
  128.4510  122.6600   62.4910 C   0  0  0  0  0  0  0  0  0  0  0  0
  129.1050  124.6680   60.9480 C   0  0  1  0  0  0  0  0  0  0  0  0
  127.5600  124.6500   60.7510 C   0  0  0  0  0  0  0  0  0  0  0  0
  126.7950  123.7060   60.9560 O   0  0  0  0  0  0  0  0  0  0  0  0
  127.1160  126.0690   60.3460 C   0  0  1  0  0  0  0  0  0  0  0  0
  126.1010  126.4770   61.2470 O   0  0  0  0  0  0  0  0  0  0  0  0
  128.4230  126.9040   60.2970 C   0  0  1  0  0  0  0  0  0  0  0  0
  128.9500  126.8220   58.8090 C   0  0  0  0  0  0  0  0  0  0  0  0
  128.3220  128.4330   60.6610 C   0  0  2  0  0  0  0  0  0  0  0  0
  127.1680  129.1730   59.9150 C   0  0  0  0  0  0  0  0  0  0  0  0
  127.4780  130.6160   59.5130 C   0  0  0  0  0  0  0  0  0  0  0  0
  128.8620  130.7500   58.8180 C   0  0  1  0  0  0  0  0  0  0  0  0
  129.1290  132.1680   58.1780 C   0  0  0  0  0  0  0  0  0  0  0  0
  128.0690  132.4400   57.0750 C   0  0  0  0  0  0  0  0  0  0  0  0
  129.1190  133.2760   59.2690 C   0  0  0  0  0  0  0  0  0  0  0  0
  130.5350  132.1300   57.4810 C   0  0  1  0  0  0  0  0  0  0  0  0
  130.8810  133.3400   56.8280 O   0  0  0  0  0  0  0  0  0  0  0  0
  131.6840  131.7360   58.4350 C   0  0  0  0  0  0  0  0  0  0  0  0
  131.4330  130.4050   59.1580 C   0  0  0  0  0  0  0  0  0  0  0  0
  130.0160  130.3050   59.7750 C   0  0  1  0  0  0  0  0  0  0  0  0
  129.9150  130.5310   61.2660 C   0  0  0  0  0  0  0  0  0  0  0  0
  129.7460  129.1110   60.7110 C   0  0  1  0  0  0  0  0  0  0  0  0
  130.8910  128.2380   61.3500 C   0  0  0  0  0  0  0  0  0  0  0  0
  130.7880  126.7140   61.0930 C   0  0  0  0  0  0  0  0  0  0  0  0
  129.3490  126.1700   61.3380 C   0  0  2  0  0  0  0  0  0  0  0  0
  128.9570  126.3920   62.8480 C   0  0  0  0  0  0  0  0  0  0  0  0
  132.2580  122.3470   62.3100 C   0  0  2  0  0  0  0  0  0  0  0  0
  133.5630  121.8280   62.4220 O   0  0  0  0  0  0  0  0  0  0  0  0
  133.1570  122.1540   61.1180 C   0  0  0  0  0  0  0  0  0  0  0  0
  132.8470  120.9840   60.1720 C   0  0  0  0  0  0  0  0  0  0  0  0
  133.8630  123.3460   60.4460 C   0  0  0  0  0  0  0  0  0  0  0  0
  133.6129  124.3017   66.5811 H   0  0  0  0  0  0  0  0  0  0  0  0
  134.4891  125.7939   66.0989 H   0  0  0  0  0  0  0  0  0  0  0  0
  132.6930  125.7673   66.0989 H   0  0  0  0  0  0  0  0  0  0  0  0
  132.4391  124.4893   62.2224 H   0  0  0  0  0  0  0  0  0  0  0  0
  130.1430  123.5469   63.9865 H   0  0  0  0  0  0  0  0  0  0  0  0
  130.3741  125.1202   63.0627 H   0  0  0  0  0  0  0  0  0  0  0  0
  130.1898  122.8548   61.2180 H   0  0  0  0  0  0  0  0  0  0  0  0
  128.5072  122.7011   63.5888 H   0  0  0  0  0  0  0  0  0  0  0  0
  127.4840  123.0650   62.1579 H   0  0  0  0  0  0  0  0  0  0  0  0
  128.5456  121.6159   62.1579 H   0  0  0  0  0  0  0  0  0  0  0  0
  129.7374  124.4215   60.0824 H   0  0  0  0  0  0  0  0  0  0  0  0
  126.6441  126.1770   59.3583 H   0  0  0  0  0  0  0  0  0  0  0  0
  125.8200  125.7130   61.7560 H   0  0  0  0  0  0  0  0  0  0  0  0
  130.0369  126.6529   58.8138 H   0  0  0  0  0  0  0  0  0  0  0  0
  128.4518  125.9906   58.2889 H   0  0  0  0  0  0  0  0  0  0  0  0
  128.7280  127.7655   58.2889 H   0  0  0  0  0  0  0  0  0  0  0  0
  127.9738  128.5357   61.6994 H   0  0  0  0  0  0  0  0  0  0  0  0
  126.9345  128.6070   59.0012 H   0  0  0  0  0  0  0  0  0  0  0  0
  126.3281  129.2252   60.6235 H   0  0  0  0  0  0  0  0  0  0  0  0
  126.6987  130.9654   58.8198 H   0  0  0  0  0  0  0  0  0  0  0  0
  127.5014  131.2233   60.4299 H   0  0  0  0  0  0  0  0  0  0  0  0
  128.8401  130.0592   57.9622 H   0  0  0  0  0  0  0  0  0  0  0  0
  127.1057  132.6872   57.5451 H   0  0  0  0  0  0  0  0  0  0  0  0
  128.3986  133.2827   56.4495 H   0  0  0  0  0  0  0  0  0  0  0  0
  127.9522  131.5427   56.4495 H   0  0  0  0  0  0  0  0  0  0  0  0
  129.1232  132.8097   60.2652 H   0  0  0  0  0  0  0  0  0  0  0  0
  130.0115  133.9092   59.1568 H   0  0  0  0  0  0  0  0  0  0  0  0
  128.2153  133.8930   59.1568 H   0  0  0  0  0  0  0  0  0  0  0  0
  130.4184  131.3432   56.7212 H   0  0  0  0  0  0  0  0  0  0  0  0
  131.7650  133.5940   57.1050 H   0  0  0  0  0  0  0  0  0  0  0  0
  132.6111  131.6476   57.8496 H   0  0  0  0  0  0  0  0  0  0  0  0
  131.7571  132.5195   59.2036 H   0  0  0  0  0  0  0  0  0  0  0  0
  131.5585  129.5852   58.4353 H   0  0  0  0  0  0  0  0  0  0  0  0
  132.1555  130.3403   59.9849 H   0  0  0  0  0  0  0  0  0  0  0  0
  130.8150  130.7901   61.8430 H   0  0  0  0  0  0  0  0  0  0  0  0
  129.3099  131.1867   61.9093 H   0  0  0  0  0  0  0  0  0  0  0  0
  131.8512  128.5866   60.9419 H   0  0  0  0  0  0  0  0  0  0  0  0
  130.7992  128.3682   62.4384 H   0  0  0  0  0  0  0  0  0  0  0  0
  131.0701  126.5112   60.0493 H   0  0  0  0  0  0  0  0  0  0  0  0
  131.4642  126.2071   61.7971 H   0  0  0  0  0  0  0  0  0  0  0  0
  129.7305  125.9539   63.4959 H   0  0  0  0  0  0  0  0  0  0  0  0
  128.8760  127.4700   63.0511 H   0  0  0  0  0  0  0  0  0  0  0  0
  127.9908  125.9070   63.0511 H   0  0  0  0  0  0  0  0  0  0  0  0
  131.2318  122.0366   62.5561 H   0  0  0  0  0  0  0  0  0  0  0  0
  132.6094  120.0874   60.7633 H   0  0  0  0  0  0  0  0  0  0  0  0
  131.9866  121.2434   59.5376 H   0  0  0  0  0  0  0  0  0  0  0  0
  133.7230  120.7834   59.5376 H   0  0  0  0  0  0  0  0  0  0  0  0
  134.2618  124.0193   61.2191 H   0  0  0  0  0  0  0  0  0  0  0  0
  134.6886  122.9774   59.8194 H   0  0  0  0  0  0  0  0  0  0  0  0
  133.1430  123.8928   59.8194 H   0  0  0  0  0  0  0  0  0  0  0  0
  1  2  1  0
  2  3  2  0
  2  4  1  0
  4  5  1  0
  5  6  1  0
  6  7  1  0
  7  8  1  0
  7  9  1  0
  9 10  1  0
 10 11  2  0
 10 12  1  0
 12 13  1  0
 12 14  1  0
 14 15  1  6
 14 16  1  0
 16 17  1  0
 17 18  1  0
 18 19  1  0
 19 20  1  0
 20 21  1  0
 20 22  1  0
 20 23  1  0
 23 24  1  0
 23 25  1  0
 25 26  1  0
 27 26  1  6
 27 28  1  0
 29 28  1  1
 29 30  1  0
 30 31  1  0
 31 32  1  0
 32 33  1  1
  5 34  1  0
 34 35  1  0
 35 36  1  0
 36 37  1  0
 36 38  1  0
 32  9  1  0
 36 34  1  0
 32 14  1  0
 29 16  1  0
 27 19  1  0
 29 27  1  0
  1 39  1  0
  1 40  1  0
  1 41  1  0
  5 42  1  6
  6 43  1  0
  6 44  1  0
  7 45  1  6
  8 46  1  0
  8 47  1  0
  8 48  1  0
  9 49  1  6
 12 50  1  6
 13 51  1  0
 15 52  1  0
 15 53  1  0
 15 54  1  0
 16 55  1  1
 17 56  1  0
 17 57  1  0
 18 58  1  0
 18 59  1  0
 19 60  1  6
 21 61  1  0
 21 62  1  0
 21 63  1  0
 22 64  1  0
 22 65  1  0
 22 66  1  0
 23 67  1  6
 24 68  1  0
 25 69  1  0
 25 70  1  0
 26 71  1  0
 26 72  1  0
 28 73  1  0
 28 74  1  0
 30 75  1  0
 30 76  1  0
 31 77  1  0
 31 78  1  0
 33 79  1  0
 33 80  1  0
 33 81  1  0
 34 82  1  6
 37 83  1  0
 37 84  1  0
 37 85  1  0
 38 86  1  0
 38 87  1  0
 38 88  1  0
M  END
>  <Binding energies>  (1) 
[-8.36]

>  <Ligand effiencies>  (1) 
[-0.209]

>  <Interactions>  (1) 
["V-A:ILE:369:CG2:3237, V-A:GLY:454:CA:4049, V-A:ILE:369:CB:3236, V-B:ALA:541:CB:9864, H-A:ARG:545:NH1:4927, V-B:TYR:539:CE2:9848, V-A:ASP:366:CG:3213, V-A:TYR:539:CD1:4873, H-B:GLU:543:OE1:9881, V-A:TYR:539:CZ:4877, H-B:ASP:366:OD1:8185, V-A:ARG:545:CG:4922, H-A:GLY:454:N:4050, V-A:ILE:369:CD1:3239, V-B:TYR:539:CD2:9846, V-B:GLU:543:CD:9880, V-A:TYR:539:C:4867, V-A:ARG:545:CD:4923, V-A:LEU:475:CD2:4259, H-A:ARG:545:NH2:4928, V-A:ARG:545:CZ:4926, H-B:ARG:545:NH2:9900, V-A:PRO:540:N:4884, H-A:TYR:539:N:4870, V-A:PRO:540:CB:4885, V-A:PRO:540:CA:4883, H-A:ARG:545:NE:4924, V-A:TYR:539:CE1:4875, H-A:TYR:484:OH:4348"]

$$$$
ZINC255280301
     RDKit          3D

 84 87  0  0  0  0  0  0  0  0999 V2000
  127.6800  126.6010   71.6900 C   0  0  0  0  0  0  0  0  0  0  0  0
  129.0070  127.3740   71.6860 C   0  0  0  0  0  0  0  0  0  0  0  0
  129.1520  128.3520   70.5060 C   0  0  0  0  0  0  0  0  0  0  0  0
  128.9560  127.7160   69.1420 C   0  0  0  0  0  0  0  0  0  0  0  0
  129.7270  126.7320   68.6400 C   0  0  0  0  0  0  0  0  0  0  0  0
  129.5320  126.1160   67.3380 C   0  0  0  0  0  0  0  0  0  0  0  0
  130.5210  125.8490   66.4630 C   0  0  0  0  0  0  0  0  0  0  0  0
  130.2900  125.2170   65.1790 C   0  0  0  0  0  0  0  0  0  0  0  0
  130.5000  123.9060   64.9620 C   0  0  0  0  0  0  0  0  0  0  0  0
  130.2620  123.2670   63.6820 C   0  0  0  0  0  0  0  0  0  0  0  0
  129.5560  122.1310   63.5520 C   0  0  0  0  0  0  0  0  0  0  0  0
  129.3110  121.4990   62.2620 C   0  0  0  0  0  0  0  0  0  0  0  0
  128.3950  121.8380   61.3250 C   0  0  0  0  0  0  0  0  0  0  0  0
  127.4070  122.9160   61.3990 C   0  0  0  0  0  0  0  0  0  0  0  0
  126.3790  122.8770   62.0780 O   0  0  0  0  0  0  0  0  0  0  0  0
  127.7480  123.9490   60.5920 O   0  0  0  0  0  0  0  0  0  0  0  0
  128.7550  123.8280   59.5780 C   0  0  1  0  0  0  0  0  0  0  0  0
  128.0760  123.7400   58.2290 C   0  0  0  0  0  0  0  0  0  0  0  0
  127.4230  122.4560   57.7650 C   0  0  0  0  0  0  0  0  0  0  0  0
  128.1400  124.9360   57.6190 C   0  0  0  0  0  0  0  0  0  0  0  0
  128.8380  126.0060   58.4630 C   0  0  2  0  0  0  0  0  0  0  0  0
  129.7820  126.8710   57.6310 C   0  0  0  0  0  0  0  0  0  0  0  0
  129.7440  126.9700   56.4020 O   0  0  0  0  0  0  0  0  0  0  0  0
  130.7680  127.6420   58.4950 C   0  0  1  0  0  0  0  0  0  0  0  0
  132.1190  126.9860   58.3990 C   0  0  0  0  0  0  0  0  0  0  0  0
  132.2930  125.6540   58.6120 C   0  0  0  0  0  0  0  0  0  0  0  0
  133.7150  125.1230   58.4130 C   0  0  0  0  0  0  0  0  0  0  0  0
  133.6910  124.0370   57.5090 O   0  0  0  0  0  0  0  0  0  0  0  0
  131.1520  124.6240   58.9470 C   0  0  1  0  0  0  0  0  0  0  0  0
  131.6890  123.6760   59.8620 O   0  0  0  0  0  0  0  0  0  0  0  0
  129.6810  125.0720   59.4460 C   0  0  2  0  0  0  0  0  0  0  0  0
  129.9260  125.6300   60.7360 O   0  0  0  0  0  0  0  0  0  0  0  0
  130.4880  129.1370   58.4350 C   0  0  1  0  0  0  0  0  0  0  0  0
  129.0970  129.4240   59.0790 C   0  0  1  0  0  0  0  0  0  0  0  0
  128.3100  128.3100   59.8790 C   0  0  0  0  0  0  0  0  0  0  0  0
  127.7850  127.0250   59.1170 C   0  0  1  0  0  0  0  0  0  0  0  0
  126.6840  127.4850   58.1230 C   0  0  0  0  0  0  0  0  0  0  0  0
  130.3550  130.0610   59.6300 C   0  0  0  0  0  0  0  0  0  0  0  0
  130.9630  129.6540   60.9920 C   0  0  0  0  0  0  0  0  0  0  0  0
  130.5320  131.5670   59.3610 C   0  0  0  0  0  0  0  0  0  0  0  0
  127.3655  126.4178   72.7280 H   0  0  0  0  0  0  0  0  0  0  0  0
  126.9099  127.1918   71.1724 H   0  0  0  0  0  0  0  0  0  0  0  0
  127.8141  125.6397   71.1724 H   0  0  0  0  0  0  0  0  0  0  0  0
  129.0775  127.9471   72.6223 H   0  0  0  0  0  0  0  0  0  0  0  0
  129.8112  126.6301   71.5866 H   0  0  0  0  0  0  0  0  0  0  0  0
  128.4039  129.1496   70.6253 H   0  0  0  0  0  0  0  0  0  0  0  0
  130.1852  128.7286   70.5332 H   0  0  0  0  0  0  0  0  0  0  0  0
  128.1267  128.0841   68.5201 H   0  0  0  0  0  0  0  0  0  0  0  0
  130.5617  126.3697   69.2581 H   0  0  0  0  0  0  0  0  0  0  0  0
  128.5053  125.8492   67.0468 H   0  0  0  0  0  0  0  0  0  0  0  0
  131.5509  126.1231   66.7353 H   0  0  0  0  0  0  0  0  0  0  0  0
  129.9271  125.8365   64.3456 H   0  0  0  0  0  0  0  0  0  0  0  0
  130.8697  123.2896   65.7947 H   0  0  0  0  0  0  0  0  0  0  0  0
  130.6782  123.7332   62.7768 H   0  0  0  0  0  0  0  0  0  0  0  0
  129.1460  121.6586   64.4569 H   0  0  0  0  0  0  0  0  0  0  0  0
  129.9511  120.6380   62.0192 H   0  0  0  0  0  0  0  0  0  0  0  0
  128.3926  121.2359   60.4044 H   0  0  0  0  0  0  0  0  0  0  0  0
  129.3482  122.9474   59.8655 H   0  0  0  0  0  0  0  0  0  0  0  0
  127.1207  121.8615   58.6397 H   0  0  0  0  0  0  0  0  0  0  0  0
  126.5363  122.6938   57.1590 H   0  0  0  0  0  0  0  0  0  0  0  0
  128.1374  121.8795   57.1590 H   0  0  0  0  0  0  0  0  0  0  0  0
  127.7323  125.1267   56.6153 H   0  0  0  0  0  0  0  0  0  0  0  0
  130.6614  127.5780   59.5880 H   0  0  0  0  0  0  0  0  0  0  0  0
  132.9940  127.6037   58.1485 H   0  0  0  0  0  0  0  0  0  0  0  0
  134.3517  125.9232   58.0077 H   0  0  0  0  0  0  0  0  0  0  0  0
  134.1189  124.7864   59.3792 H   0  0  0  0  0  0  0  0  0  0  0  0
  134.3840  124.1660   56.8590 H   0  0  0  0  0  0  0  0  0  0  0  0
  130.8897  124.2627   57.9417 H   0  0  0  0  0  0  0  0  0  0  0  0
  131.3350  123.8580   60.7360 H   0  0  0  0  0  0  0  0  0  0  0  0
  129.2190  125.3540   61.3250 H   0  0  0  0  0  0  0  0  0  0  0  0
  131.0771  129.2768   57.5166 H   0  0  0  0  0  0  0  0  0  0  0  0
  128.1266  129.7945   58.7171 H   0  0  0  0  0  0  0  0  0  0  0  0
  128.9791  127.9570   60.6776 H   0  0  0  0  0  0  0  0  0  0  0  0
  127.3866  128.8202   60.1904 H   0  0  0  0  0  0  0  0  0  0  0  0
  127.3961  126.3657   59.9070 H   0  0  0  0  0  0  0  0  0  0  0  0
  125.8116  127.8495   58.6852 H   0  0  0  0  0  0  0  0  0  0  0  0
  127.0765  128.2944   57.4899 H   0  0  0  0  0  0  0  0  0  0  0  0
  126.3840  126.6369   57.4899 H   0  0  0  0  0  0  0  0  0  0  0  0
  130.3480  130.0657   61.8058 H   0  0  0  0  0  0  0  0  0  0  0  0
  130.9872  128.5570   61.0696 H   0  0  0  0  0  0  0  0  0  0  0  0
  131.9864  130.0497   61.0696 H   0  0  0  0  0  0  0  0  0  0  0  0
  130.5953  132.1055   60.3181 H   0  0  0  0  0  0  0  0  0  0  0  0
  131.4556  131.7308   58.7864 H   0  0  0  0  0  0  0  0  0  0  0  0
  129.6716  131.9404   58.7864 H   0  0  0  0  0  0  0  0  0  0  0  0
  1  2  1  0
  2  3  1  0
  3  4  1  0
  4  5  2  0
  5  6  1  0
  6  7  2  0
  7  8  1  0
  8  9  2  0
  9 10  1  0
 10 11  2  0
 11 12  1  0
 12 13  2  0
 13 14  1  0
 14 15  2  0
 14 16  1  0
 16 17  1  0
 17 18  1  0
 18 19  1  0
 18 20  2  0
 21 20  1  6
 21 22  1  0
 22 23  2  0
 22 24  1  0
 24 25  1  0
 25 26  2  0
 26 27  1  0
 27 28  1  0
 26 29  1  0
 29 30  1  0
 29 31  1  0
 31 32  1  1
 24 33  1  0
 33 34  1  0
 34 35  1  0
 35 36  1  0
 36 37  1  0
 34 38  1  0
 38 39  1  0
 38 40  1  0
 31 17  1  0
 38 33  1  0
 31 21  1  0
 36 21  1  0
  1 41  1  0
  1 42  1  0
  1 43  1  0
  2 44  1  0
  2 45  1  0
  3 46  1  0
  3 47  1  0
  4 48  1  0
  5 49  1  0
  6 50  1  0
  7 51  1  0
  8 52  1  0
  9 53  1  0
 10 54  1  0
 11 55  1  0
 12 56  1  0
 13 57  1  0
 17 58  1  1
 19 59  1  0
 19 60  1  0
 19 61  1  0
 20 62  1  0
 24 63  1  1
 25 64  1  0
 27 65  1  0
 27 66  1  0
 28 67  1  0
 29 68  1  6
 30 69  1  0
 32 70  1  0
 33 71  1  6
 34 72  1  6
 35 73  1  0
 35 74  1  0
 36 75  1  1
 37 76  1  0
 37 77  1  0
 37 78  1  0
 39 79  1  0
 39 80  1  0
 39 81  1  0
 40 82  1  0
 40 83  1  0
 40 84  1  0
M  END
>  <Binding energies>  (1) 
[-5.5]

>  <Ligand effiencies>  (1) 
[-0.11702127659574468]

>  <Interactions>  (1) 
["V-A:ASP:366:CA:3210, V-B:PRO:540:CA:9855, V-B:HIS:456:CD2:9039, V-B:GLU:543:C:9874, V-B:GLU:543:CB:9878, V-B:ALA:541:CB:9864, H-A:TYR:531:OH:4795, V-A:TYR:484:CE2:4346, V-B:TYR:539:CE2:9848, V-B:GLU:543:CG:9879, V-B:TYR:539:C:9839, V-A:ASP:366:CG:3213, V-B:TYR:539:CZ:9849, H-A:ASN:370:N:3244, H-B:TYR:539:OH:9850, H-B:ALA:541:N:9863, V-A:TYR:484:CZ:4347, V-A:GLU:543:CD:4908, V-B:PRO:540:CB:9857, V-B:HIS:456:CE1:9041, V-B:PRO:540:N:9856, V-A:HIS:456:CE1:4070, V-B:GLY:544:C:9884, V-A:ASP:366:C:3208, V-B:GLY:544:CA:9886, V-B:PRO:540:CD:9859, V-B:TYR:539:CD2:9846, V-A:ASP:366:CB:3212, V-A:LEU:475:CD2:4259, V-B:TYR:539:CG:9844, H-A:ASP:366:O:3209, V-A:GLU:543:CB:4906, V-A:PRO:540:CA:4883, V-B:PRO:540:C:9853, V-B:ALA:541:CA:9862"]

$$$$
ZINC25584651
     RDKit          3D

 66 67  0  0  0  0  0  0  0  0999 V2000
  132.5200  125.2000   60.1270 C   0  0  0  0  0  0  0  0  0  0  0  0
  133.0380  124.0510   59.2700 C   0  0  0  0  0  0  0  0  0  0  0  0
  133.5880  124.2610   58.1870 O   0  0  0  0  0  0  0  0  0  0  0  0
  132.8110  122.8400   59.8500 O   0  0  0  0  0  0  0  0  0  0  0  0
  132.2980  122.7860   61.1310 C   0  0  0  0  0  0  0  0  0  0  0  0
  133.1670  122.8810   62.2280 C   0  0  0  0  0  0  0  0  0  0  0  0
  134.6680  123.0390   62.0280 C   0  0  0  0  0  0  0  0  0  0  0  0
  132.6550  122.8410   63.5230 C   0  0  0  0  0  0  0  0  0  0  0  0
  131.2790  122.7090   63.7580 C   0  0  0  0  0  0  0  0  0  0  0  0
  130.7280  122.6670   65.0270 O   0  0  0  0  0  0  0  0  0  0  0  0
  129.8160  123.6810   65.4490 C   0  0  0  0  0  0  0  0  0  0  0  0
  130.4520  125.0720   65.2610 C   0  0  2  0  0  0  0  0  0  0  0  0
  131.6470  125.1470   66.0200 O   0  0  0  0  0  0  0  0  0  0  0  0
  129.4780  126.2190   65.6200 C   0  0  0  0  0  0  0  0  0  0  0  0
  129.9000  126.9180   66.9260 N   0  0  0  0  0  0  0  0  0  0  0  0
  128.9380  126.6650   68.0970 C   0  0  0  0  0  0  0  0  0  0  0  0
  127.8280  127.7320   68.0970 C   0  0  0  0  0  0  0  0  0  0  0  0
  127.6090  128.3260   66.7790 N   0  0  0  0  0  0  0  0  0  0  0  0
  127.9120  129.5950   66.4380 C   0  0  0  0  0  0  0  0  0  0  0  0
  128.4170  130.3910   67.2320 O   0  0  0  0  0  0  0  0  0  0  0  0
  127.5790  130.0160   65.0230 C   0  0  0  0  0  0  0  0  0  0  0  0
  126.3540  129.6890   64.4200 C   0  0  0  0  0  0  0  0  0  0  0  0
  126.0730  130.0880   63.1160 C   0  0  0  0  0  0  0  0  0  0  0  0
  127.0050  130.8190   62.3810 C   0  0  0  0  0  0  0  0  0  0  0  0
  126.5860  131.2820   60.7670 Cl  0  0  0  0  0  0  0  0  0  0  0  0
  128.2400  131.1540   62.9620 C   0  0  0  0  0  0  0  0  0  0  0  0
  129.4830  132.0940   62.0620 S   0  0  0  0  0  0  0  0  0  0  0  0
  128.7680  133.6770   61.8080 N   0  0  0  0  0  0  0  0  0  0  0  0
  130.6290  132.2580   62.9620 O   0  0  0  0  0  0  0  0  0  0  0  0
  129.6520  131.4760   60.7430 O   0  0  0  0  0  0  0  0  0  0  0  0
  128.5120  130.7500   64.2750 C   0  0  0  0  0  0  0  0  0  0  0  0
  130.4050  122.6230   62.6600 C   0  0  0  0  0  0  0  0  0  0  0  0
  128.9030  122.4560   62.9050 C   0  0  0  0  0  0  0  0  0  0  0  0
  130.9090  122.6740   61.3450 C   0  0  0  0  0  0  0  0  0  0  0  0
  129.9560  122.6340   60.1480 C   0  0  0  0  0  0  0  0  0  0  0  0
  132.6351  124.9448   61.1908 H   0  0  0  0  0  0  0  0  0  0  0  0
  133.0943  126.1114   59.9044 H   0  0  0  0  0  0  0  0  0  0  0  0
  131.4568  125.3731   59.9044 H   0  0  0  0  0  0  0  0  0  0  0  0
  135.1650  123.0913   63.0079 H   0  0  0  0  0  0  0  0  0  0  0  0
  135.0558  122.1767   61.4658 H   0  0  0  0  0  0  0  0  0  0  0  0
  134.8677  123.9631   61.4658 H   0  0  0  0  0  0  0  0  0  0  0  0
  133.3435  122.9144   64.3777 H   0  0  0  0  0  0  0  0  0  0  0  0
  128.8963  123.6167   64.8489 H   0  0  0  0  0  0  0  0  0  0  0  0
  129.5780  123.5331   66.5127 H   0  0  0  0  0  0  0  0  0  0  0  0
  130.6909  125.2018   64.1951 H   0  0  0  0  0  0  0  0  0  0  0  0
  132.0040  124.2620   66.1210 H   0  0  0  0  0  0  0  0  0  0  0  0
  129.4745  126.9559   64.8033 H   0  0  0  0  0  0  0  0  0  0  0  0
  128.4739  125.7927   65.7612 H   0  0  0  0  0  0  0  0  0  0  0  0
  130.8200  126.5850   67.1830 H   0  0  0  0  0  0  0  0  0  0  0  0
  129.9650  127.9120   66.7600 H   0  0  0  0  0  0  0  0  0  0  0  0
  128.4864  125.6677   67.9902 H   0  0  0  0  0  0  0  0  0  0  0  0
  129.4950  126.7190   69.0440 H   0  0  0  0  0  0  0  0  0  0  0  0
  126.8906  127.2631   68.4307 H   0  0  0  0  0  0  0  0  0  0  0  0
  128.1460  128.5388   68.7737 H   0  0  0  0  0  0  0  0  0  0  0  0
  127.2060  127.7230   66.0760 H   0  0  0  0  0  0  0  0  0  0  0  0
  125.6075  129.1108   64.9844 H   0  0  0  0  0  0  0  0  0  0  0  0
  125.1067  129.8240   62.6616 H   0  0  0  0  0  0  0  0  0  0  0  0
  128.8010  134.0060   60.8390 H   0  0  0  0  0  0  0  0  0  0  0  0
  127.8510  133.8030   62.2460 H   0  0  0  0  0  0  0  0  0  0  0  0
  129.4782  131.0139   64.7299 H   0  0  0  0  0  0  0  0  0  0  0  0
  128.7082  122.4343   63.9874 H   0  0  0  0  0  0  0  0  0  0  0  0
  128.3616  123.2995   62.4518 H   0  0  0  0  0  0  0  0  0  0  0  0
  128.5600  121.5142   62.4518 H   0  0  0  0  0  0  0  0  0  0  0  0
  128.9173  122.5904   60.5076 H   0  0  0  0  0  0  0  0  0  0  0  0
  130.0952  123.5388   59.5381 H   0  0  0  0  0  0  0  0  0  0  0  0
  130.1705  121.7441   59.5381 H   0  0  0  0  0  0  0  0  0  0  0  0
  1  2  1  0
  2  3  2  0
  2  4  1  0
  4  5  1  0
  5  6  2  0
  6  7  1  0
  6  8  1  0
  8  9  2  0
  9 10  1  0
 10 11  1  0
 11 12  1  0
 12 13  1  0
 12 14  1  0
 14 15  1  0
 15 16  1  0
 16 17  1  0
 17 18  1  0
 18 19  1  0
 19 20  2  0
 19 21  1  0
 21 22  2  0
 22 23  1  0
 23 24  2  0
 24 25  1  0
 24 26  1  0
 26 27  1  0
 27 28  1  0
 27 29  2  0
 27 30  2  0
 26 31  2  0
  9 32  1  0
 32 33  1  0
 32 34  2  0
 34 35  1  0
 34  5  1  0
 31 21  1  0
  1 36  1  0
  1 37  1  0
  1 38  1  0
  7 39  1  0
  7 40  1  0
  7 41  1  0
  8 42  1  0
 11 43  1  0
 11 44  1  0
 12 45  1  6
 13 46  1  0
 14 47  1  0
 14 48  1  0
 15 49  1  0
 15 50  1  0
 16 51  1  0
 16 52  1  0
 17 53  1  0
 17 54  1  0
 18 55  1  0
 22 56  1  0
 23 57  1  0
 28 58  1  0
 28 59  1  0
 31 60  1  0
 33 61  1  0
 33 62  1  0
 33 63  1  0
 35 64  1  0
 35 65  1  0
 35 66  1  0
M  CHG  1  15   1
M  END
>  <Binding energies>  (1) 
[-7.96]

>  <Ligand effiencies>  (1) 
[-0.19414634146341464]

>  <Interactions>  (1) 
["V-A:ILE:369:CG2:3237, V-A:GLY:454:CA:4049, H-A:GLU:543:OE2:4910, H-A:ALA:541:N:4891, V-B:GLU:543:CB:9878, V-B:ALA:541:CB:9864, V-B:TYR:539:CE2:9848, V-A:TYR:484:CE2:4346, V-B:GLU:543:CG:9879, V-A:ASP:366:CG:3213, V-B:TYR:484:CE2:9317, H-B:GLU:543:OE1:9881, H-B:TYR:539:OH:9850, V-A:GLU:543:CD:4908, V-A:TYR:484:CZ:4347, H-B:TYR:484:OH:9319, V-B:HIS:456:CE1:9041, V-A:GLY:453:C:4042, V-A:ILE:369:CD1:3239, V-B:TYR:484:CZ:9318, V-B:TYR:539:CD2:9846, V-A:GLU:543:CG:4907, V-B:GLU:543:CD:9880, V-A:ASP:366:CB:3212, V-A:LEU:475:CD2:4259, H-A:GLU:543:OE1:4909, V-A:GLU:543:CB:4906, H-A:TYR:539:O:4868, H-B:GLU:543:OE2:9882, H-A:TYR:484:OH:4348"]

$$$$
ZINC255980763
     RDKit          3D

102107  0  0  0  0  0  0  0  0999 V2000
  126.9990  127.3370   58.6740 C   0  0  0  0  0  0  0  0  0  0  0  0
  127.3020  128.1510   59.9320 C   0  0  0  0  0  0  0  0  0  0  0  0
  127.7260  129.4540   59.8900 C   0  0  0  0  0  0  0  0  0  0  0  0
  128.0570  130.1240   58.5410 C   0  0  0  0  0  0  0  0  0  0  0  0
  129.5440  130.0330   58.1310 C   0  0  0  0  0  0  0  0  0  0  0  0
  130.0950  131.3630   57.6650 C   0  0  0  0  0  0  0  0  0  0  0  0
  131.3780  131.6410   57.1730 C   0  0  0  0  0  0  0  0  0  0  0  0
  131.4340  132.9890   56.8650 C   0  0  0  0  0  0  0  0  0  0  0  0
  130.2440  133.5720   57.1420 O   0  0  0  0  0  0  0  0  0  0  0  0
  129.4400  132.5900   57.6230 C   0  0  0  0  0  0  0  0  0  0  0  0
  127.9430  130.3050   61.1900 C   0  0  1  0  0  0  0  0  0  0  0  0
  129.4790  130.3200   61.4370 C   0  0  0  0  0  0  0  0  0  0  0  0
  127.4240  131.7740   61.0280 C   0  0  0  0  0  0  0  0  0  0  0  0
  127.3760  132.6040   62.3250 C   0  0  0  0  0  0  0  0  0  0  0  0
  126.5360  131.8990   63.4010 C   0  0  0  0  0  0  0  0  0  0  0  0
  127.0320  130.4680   63.7480 C   0  0  0  0  0  0  0  0  0  0  0  0
  128.3680  130.5630   64.5450 C   0  0  0  0  0  0  0  0  0  0  0  0
  125.9140  129.8350   64.6250 C   0  0  0  0  0  0  0  0  0  0  0  0
  127.1210  129.6580   62.3840 C   0  0  2  0  0  0  0  0  0  0  0  0
  127.4510  128.1600   62.5120 C   0  0  0  0  0  0  0  0  0  0  0  0
  127.9400  127.6370   63.5120 O   0  0  0  0  0  0  0  0  0  0  0  0
  127.0640  127.3850   61.2480 C   0  0  2  0  0  0  0  0  0  0  0  0
  127.7370  126.1180   61.2470 O   0  0  0  0  0  0  0  0  0  0  0  0
  129.1510  126.1170   61.0200 C   0  0  1  0  0  0  0  0  0  0  0  0
  129.8850  125.9550   62.3470 C   0  0  0  0  0  0  0  0  0  0  0  0
  130.6800  126.8160   62.7230 O   0  0  0  0  0  0  0  0  0  0  0  0
  129.5890  124.6100   63.0940 C   0  0  2  0  0  0  0  0  0  0  0  0
  130.1930  124.5480   64.5790 C   0  0  0  0  0  0  0  0  0  0  0  0
  129.8810  125.8550   65.3790 C   0  0  0  0  0  0  0  0  0  0  0  0
  129.5900  123.3670   65.3970 C   0  0  0  0  0  0  0  0  0  0  0  0
  131.7450  124.3860   64.4880 C   0  0  0  0  0  0  0  0  0  0  0  0
  132.2330  123.2750   63.5280 C   0  0  0  0  0  0  0  0  0  0  0  0
  131.5780  123.3720   62.1260 C   0  0  0  0  0  0  0  0  0  0  0  0
  130.0050  123.3870   62.1430 C   0  0  1  0  0  0  0  0  0  0  0  0
  129.5310  121.9990   62.6820 C   0  0  0  0  0  0  0  0  0  0  0  0
  129.3720  123.5490   60.6670 C   0  0  1  0  0  0  0  0  0  0  0  0
  129.9990  122.6380   59.7720 O   0  0  0  0  0  0  0  0  0  0  0  0
  127.8220  123.2500   60.6060 C   0  0  0  0  0  0  0  0  0  0  0  0
  126.8820  124.0530   59.6640 C   0  0  0  0  0  0  0  0  0  0  0  0
  126.6150  123.2970   58.3770 C   0  0  0  0  0  0  0  0  0  0  0  0
  125.4440  123.2890   57.6060 C   0  0  0  0  0  0  0  0  0  0  0  0
  125.6620  122.4820   56.5050 C   0  0  0  0  0  0  0  0  0  0  0  0
  126.9150  121.9740   56.5520 O   0  0  0  0  0  0  0  0  0  0  0  0
  127.4860  122.4660   57.6800 C   0  0  0  0  0  0  0  0  0  0  0  0
  129.6540  124.9910   60.0850 C   0  0  1  0  0  0  0  0  0  0  0  0
  129.2190  125.2540   58.6190 C   0  0  0  0  0  0  0  0  0  0  0  0
  126.6286  126.3419   58.9615 H   0  0  0  0  0  0  0  0  0  0  0  0
  126.2335  127.8550   58.0776 H   0  0  0  0  0  0  0  0  0  0  0  0
  127.9169  127.2284   58.0776 H   0  0  0  0  0  0  0  0  0  0  0  0
  127.4542  129.6391   57.7590 H   0  0  0  0  0  0  0  0  0  0  0  0
  127.8283  131.1937   58.6573 H   0  0  0  0  0  0  0  0  0  0  0  0
  130.1294  129.6919   58.9976 H   0  0  0  0  0  0  0  0  0  0  0  0
  129.6184  129.3259   57.2917 H   0  0  0  0  0  0  0  0  0  0  0  0
  132.1960  130.9155   57.0529 H   0  0  0  0  0  0  0  0  0  0  0  0
  132.3133  133.5087   56.4565 H   0  0  0  0  0  0  0  0  0  0  0  0
  128.3983  132.7451   57.9407 H   0  0  0  0  0  0  0  0  0  0  0  0
  129.6764  130.3219   62.5191 H   0  0  0  0  0  0  0  0  0  0  0  0
  129.9321  129.4262   60.9832 H   0  0  0  0  0  0  0  0  0  0  0  0
  129.9146  131.2224   60.9832 H   0  0  0  0  0  0  0  0  0  0  0  0
  128.0859  132.2916   60.3181 H   0  0  0  0  0  0  0  0  0  0  0  0
  126.3831  131.6916   60.6819 H   0  0  0  0  0  0  0  0  0  0  0  0
  128.4003  132.7417   62.7017 H   0  0  0  0  0  0  0  0  0  0  0  0
  126.9129  133.5763   62.1011 H   0  0  0  0  0  0  0  0  0  0  0  0
  126.5649  132.5074   64.3170 H   0  0  0  0  0  0  0  0  0  0  0  0
  125.5188  131.7953   62.9955 H   0  0  0  0  0  0  0  0  0  0  0  0
  128.1533  130.5477   65.6237 H   0  0  0  0  0  0  0  0  0  0  0  0
  129.0105  129.7083   64.2869 H   0  0  0  0  0  0  0  0  0  0  0  0
  128.8831  131.5000   64.2869 H   0  0  0  0  0  0  0  0  0  0  0  0
  126.1593  129.9739   65.6883 H   0  0  0  0  0  0  0  0  0  0  0  0
  124.9536  130.3233   64.4034 H   0  0  0  0  0  0  0  0  0  0  0  0
  125.8386  128.7602   64.4034 H   0  0  0  0  0  0  0  0  0  0  0  0
  126.0651  129.7452   62.0881 H   0  0  0  0  0  0  0  0  0  0  0  0
  125.9747  127.2363   61.2849 H   0  0  0  0  0  0  0  0  0  0  0  0
  129.3601  127.0792   60.5297 H   0  0  0  0  0  0  0  0  0  0  0  0
  128.5079  124.5347   63.2828 H   0  0  0  0  0  0  0  0  0  0  0  0
  129.9310  125.6454   66.4577 H   0  0  0  0  0  0  0  0  0  0  0  0
  130.6199  126.6280   65.1210 H   0  0  0  0  0  0  0  0  0  0  0  0
  128.8727  126.2109   65.1210 H   0  0  0  0  0  0  0  0  0  0  0  0
  129.6957  123.5740   66.4722 H   0  0  0  0  0  0  0  0  0  0  0  0
  128.5244  123.2550   65.1482 H   0  0  0  0  0  0  0  0  0  0  0  0
  130.1242  122.4382   65.1482 H   0  0  0  0  0  0  0  0  0  0  0  0
  132.1681  125.3421   64.1461 H   0  0  0  0  0  0  0  0  0  0  0  0
  132.0822  124.0927   65.4931 H   0  0  0  0  0  0  0  0  0  0  0  0
  133.3238  123.3609   63.4145 H   0  0  0  0  0  0  0  0  0  0  0  0
  131.9468  122.3067   63.9644 H   0  0  0  0  0  0  0  0  0  0  0  0
  131.9257  124.2993   61.6473 H   0  0  0  0  0  0  0  0  0  0  0  0
  131.8773  122.4673   61.5765 H   0  0  0  0  0  0  0  0  0  0  0  0
  129.5354  122.0118   63.7819 H   0  0  0  0  0  0  0  0  0  0  0  0
  128.5120  121.7943   62.3218 H   0  0  0  0  0  0  0  0  0  0  0  0
  130.2119  121.2138   62.3218 H   0  0  0  0  0  0  0  0  0  0  0  0
  130.9450  122.8020   59.7880 H   0  0  0  0  0  0  0  0  0  0  0  0
  127.7198  122.1926   60.3205 H   0  0  0  0  0  0  0  0  0  0  0  0
  127.4796  123.5584   61.6048 H   0  0  0  0  0  0  0  0  0  0  0  0
  125.9267  124.2324   60.1790 H   0  0  0  0  0  0  0  0  0  0  0  0
  127.3731  125.0046   59.4122 H   0  0  0  0  0  0  0  0  0  0  0  0
  124.5145  123.8301   57.8368 H   0  0  0  0  0  0  0  0  0  0  0  0
  124.9276  122.2829   55.7106 H   0  0  0  0  0  0  0  0  0  0  0  0
  128.5118  122.2360   58.0037 H   0  0  0  0  0  0  0  0  0  0  0  0
  130.7531  125.0125   60.0463 H   0  0  0  0  0  0  0  0  0  0  0  0
  128.2777  125.8231   58.6123 H   0  0  0  0  0  0  0  0  0  0  0  0
  130.0001  125.8313   58.1027 H   0  0  0  0  0  0  0  0  0  0  0  0
  129.0708  124.2941   58.1027 H   0  0  0  0  0  0  0  0  0  0  0  0
  1  2  1  0
  2  3  2  0
  3  4  1  0
  4  5  1  0
  5  6  1  0
  6  7  1  0
  7  8  2  0
  8  9  1  0
  9 10  1  0
  3 11  1  0
 11 12  1  1
 11 13  1  0
 13 14  1  0
 14 15  1  0
 15 16  1  0
 16 17  1  0
 16 18  1  0
 16 19  1  0
 19 20  1  0
 20 21  2  0
 20 22  1  0
 22 23  1  0
 23 24  1  0
 24 25  1  0
 25 26  2  0
 25 27  1  0
 27 28  1  0
 28 29  1  0
 28 30  1  0
 28 31  1  0
 31 32  1  0
 32 33  1  0
 33 34  1  0
 34 35  1  1
 34 36  1  0
 36 37  1  6
 36 38  1  0
 38 39  1  0
 39 40  1  0
 40 41  1  0
 41 42  2  0
 42 43  1  0
 43 44  1  0
 36 45  1  0
 45 46  1  0
 22  2  1  0
 45 24  1  0
 10  6  2  0
 19 11  1  0
 34 27  1  0
 44 40  2  0
  1 47  1  0
  1 48  1  0
  1 49  1  0
  4 50  1  0
  4 51  1  0
  5 52  1  0
  5 53  1  0
  7 54  1  0
  8 55  1  0
 10 56  1  0
 12 57  1  0
 12 58  1  0
 12 59  1  0
 13 60  1  0
 13 61  1  0
 14 62  1  0
 14 63  1  0
 15 64  1  0
 15 65  1  0
 17 66  1  0
 17 67  1  0
 17 68  1  0
 18 69  1  0
 18 70  1  0
 18 71  1  0
 19 72  1  6
 22 73  1  1
 24 74  1  6
 27 75  1  1
 29 76  1  0
 29 77  1  0
 29 78  1  0
 30 79  1  0
 30 80  1  0
 30 81  1  0
 31 82  1  0
 31 83  1  0
 32 84  1  0
 32 85  1  0
 33 86  1  0
 33 87  1  0
 35 88  1  0
 35 89  1  0
 35 90  1  0
 37 91  1  0
 38 92  1  0
 38 93  1  0
 39 94  1  0
 39 95  1  0
 41 96  1  0
 42 97  1  0
 44 98  1  0
 45 99  1  6
 46100  1  0
 46101  1  0
 46102  1  0
M  END
>  <Binding energies>  (1) 
[-10.21]

>  <Ligand effiencies>  (1) 
[-0.2172340425531915]

>  <Interactions>  (1) 
["V-B:TYR:539:CA:9841, V-B:PRO:540:CA:9855, V-B:GLU:543:CB:9878, V-A:ILE:538:CB:4862, V-B:ALA:541:CB:9864, V-B:TYR:539:CE2:9848, V-A:TYR:484:CE2:4346, H-B:TYR:539:N:9842, V-B:GLU:543:CG:9879, V-B:TYR:539:C:9839, V-A:ILE:538:CG2:4863, V-A:LEU:363:CD1:3189, V-B:TYR:539:CZ:9849, V-B:ILE:538:CG2:9835, V-A:GLU:543:CD:4908, V-A:TYR:484:CZ:4347, V-B:PRO:540:CB:9857, V-B:GLU:543:CA:9876, V-B:PRO:540:N:9856, V-B:PRO:540:CD:9859, V-A:GLU:543:CG:4907, V-B:TYR:539:CD2:9846, V-B:GLU:543:CD:9880, V-A:LEU:475:CD2:4259, H-A:ARG:545:NH2:4928, V-B:TYR:539:CG:9844, V-B:TYR:539:CD1:9845, V-A:PRO:540:N:4884, H-A:TYR:539:N:4870, V-A:PRO:540:CB:4885, V-A:PRO:540:CA:4883, V-B:LEU:363:CD1:8160, V-B:MET:535:CE:9807, V-A:PRO:540:CD:4887"]

$$$$
ZINC256045835
     RDKit          3D

 29 30  0  0  0  0  0  0  0  0999 V2000
  133.5110  126.7190   74.3500 C   0  0  0  0  0  0  0  0  0  0  0  0
  132.2350  126.4050   74.0780 C   0  0  0  0  0  0  0  0  0  0  0  0
  131.2390  127.3330   73.4120 C   0  0  0  0  0  0  0  0  0  0  0  0
  131.3130  127.3910   71.9600 N   0  0  0  0  0  0  0  0  0  0  0  0
  130.2540  127.3580   71.0810 C   0  0  0  0  0  0  0  0  0  0  0  0
  130.3720  127.7960   69.8480 N   0  0  0  0  0  0  0  0  0  0  0  0
  129.1550  127.6120   69.3190 N   0  0  0  0  0  0  0  0  0  0  0  0
  128.8340  127.9600   67.9750 C   0  0  0  0  0  0  0  0  0  0  0  0
  128.2950  129.2210   67.6770 C   0  0  0  0  0  0  0  0  0  0  0  0
  127.9840  129.5600   66.3630 C   0  0  0  0  0  0  0  0  0  0  0  0
  128.2070  128.6440   65.3390 C   0  0  0  0  0  0  0  0  0  0  0  0
  127.8190  129.0660   63.7120 Cl  0  0  0  0  0  0  0  0  0  0  0  0
  128.7400  127.3880   65.6190 C   0  0  0  0  0  0  0  0  0  0  0  0
  129.0540  127.0470   66.9310 C   0  0  0  0  0  0  0  0  0  0  0  0
  128.2670  127.0740   70.1650 N   0  0  0  0  0  0  0  0  0  0  0  0
  128.9290  126.9000   71.2940 C   0  0  0  0  0  0  0  0  0  0  0  0
  128.3290  126.3100   72.5180 C   0  0  0  0  0  0  0  0  0  0  0  0
  128.7330  125.1820   72.8800 O   0  0  0  0  0  0  0  0  0  0  0  0
  127.4490  126.9720   73.1190 O   0  0  0  0  0  0  0  0  0  0  0  0
  134.1668  125.9824   74.8371 H   0  0  0  0  0  0  0  0  0  0  0  0
  133.9011  127.7130   74.0859 H   0  0  0  0  0  0  0  0  0  0  0  0
  131.8864  125.4003   74.3591 H   0  0  0  0  0  0  0  0  0  0  0  0
  130.2277  126.9989   73.6870 H   0  0  0  0  0  0  0  0  0  0  0  0
  131.4830  128.3447   73.7682 H   0  0  0  0  0  0  0  0  0  0  0  0
  132.1900  127.7780   71.6380 H   0  0  0  0  0  0  0  0  0  0  0  0
  128.1173  129.9452   68.4857 H   0  0  0  0  0  0  0  0  0  0  0  0
  127.5627  130.5501   66.1344 H   0  0  0  0  0  0  0  0  0  0  0  0
  128.9122  126.6679   64.8055 H   0  0  0  0  0  0  0  0  0  0  0  0
  129.4772  126.0560   67.1518 H   0  0  0  0  0  0  0  0  0  0  0  0
  1  2  2  0
  2  3  1  0
  3  4  1  0
  4  5  1  0
  5  6  2  0
  6  7  1  0
  7  8  1  0
  8  9  2  0
  9 10  1  0
 10 11  2  0
 11 12  1  0
 11 13  1  0
 13 14  2  0
  7 15  1  0
 15 16  2  0
 16 17  1  0
 17 18  2  0
 17 19  1  0
 16  5  1  0
 14  8  1  0
  1 20  1  0
  1 21  1  0
  2 22  1  0
  3 23  1  0
  3 24  1  0
  4 25  1  0
  9 26  1  0
 10 27  1  0
 13 28  1  0
 14 29  1  0
M  CHG  1  19  -1
M  END
>  <Binding energies>  (1) 
[-6.16]

>  <Ligand effiencies>  (1) 
[-0.308]

>  <Interactions>  (1) 
["V-A:HIS:456:CE1:4070, V-B:TYR:484:CZ:9318, V-A:LYS:547:CG:4948, V-A:HIS:456:CB:4065, H-B:LYS:547:NZ:9923, V-A:GLU:543:CG:4907, V-B:LYS:547:CE:9922, V-B:GLU:543:CB:9878, V-B:GLU:543:CD:9880, V-A:GLU:543:CB:4906, V-A:GLU:543:CD:4908, V-B:GLU:543:CG:9879, V-B:HIS:456:CE1:9041, V-A:GLY:544:C:4912, H-A:GLY:544:O:4913, H-A:HIS:456:NE2:4071, V-A:HIS:456:CD2:4068, V-A:HIS:456:CG:4066"]

$$$$
ZINC256047687
     RDKit          3D

 32 33  0  0  0  0  0  0  0  0999 V2000
  128.4790  127.4880   67.6650 C   0  0  0  0  0  0  0  0  0  0  0  0
  129.5320  126.3750   67.7390 C   0  0  0  0  0  0  0  0  0  0  0  0
  129.9320  125.8390   66.3540 C   0  0  0  0  0  0  0  0  0  0  0  0
  131.1880  125.1000   66.3600 N   0  0  0  0  0  0  0  0  0  0  0  0
  132.1270  125.0800   65.3570 C   0  0  0  0  0  0  0  0  0  0  0  0
  131.8050  125.0610   64.0830 N   0  0  0  0  0  0  0  0  0  0  0  0
  132.9870  125.0390   63.4470 N   0  0  0  0  0  0  0  0  0  0  0  0
  133.0990  125.0080   62.0270 C   0  0  0  0  0  0  0  0  0  0  0  0
  132.1660  125.6780   61.2230 C   0  0  0  0  0  0  0  0  0  0  0  0
  132.2780  125.6480   59.8360 C   0  0  0  0  0  0  0  0  0  0  0  0
  133.3230  124.9490   59.2190 C   0  0  0  0  0  0  0  0  0  0  0  0
  133.4430  124.9170   57.7400 N   0  0  0  0  0  0  0  0  0  0  0  0
  133.9890  123.9510   57.2140 O   0  0  0  0  0  0  0  0  0  0  0  0
  132.9910  125.8590   57.0930 O   0  0  0  0  0  0  0  0  0  0  0  0
  134.2540  124.2780   60.0230 C   0  0  0  0  0  0  0  0  0  0  0  0
  134.1440  124.3070   61.4100 C   0  0  0  0  0  0  0  0  0  0  0  0
  134.0540  125.0430   64.2650 N   0  0  0  0  0  0  0  0  0  0  0  0
  133.5280  125.0680   65.4650 C   0  0  0  0  0  0  0  0  0  0  0  0
  134.3450  125.0790   66.6690 C   0  0  0  0  0  0  0  0  0  0  0  0
  134.9950  125.0880   67.6250 N   0  0  0  0  0  0  0  0  0  0  0  0
  128.1929  127.7904   68.6832 H   0  0  0  0  0  0  0  0  0  0  0  0
  128.8969  128.3531   67.1294 H   0  0  0  0  0  0  0  0  0  0  0  0
  127.5921  127.1186   67.1294 H   0  0  0  0  0  0  0  0  0  0  0  0
  130.4298  126.7732   68.2344 H   0  0  0  0  0  0  0  0  0  0  0  0
  129.0913  125.5394   68.3025 H   0  0  0  0  0  0  0  0  0  0  0  0
  129.1356  125.1701   65.9957 H   0  0  0  0  0  0  0  0  0  0  0  0
  130.0708  126.7099   65.6965 H   0  0  0  0  0  0  0  0  0  0  0  0
  131.2210  124.4000   67.0870 H   0  0  0  0  0  0  0  0  0  0  0  0
  131.3392  126.2316   61.6920 H   0  0  0  0  0  0  0  0  0  0  0  0
  131.5384  126.1786   59.2183 H   0  0  0  0  0  0  0  0  0  0  0  0
  135.0796  123.7231   59.5534 H   0  0  0  0  0  0  0  0  0  0  0  0
  134.8833  123.7754   62.0271 H   0  0  0  0  0  0  0  0  0  0  0  0
  1  2  1  0
  2  3  1  0
  3  4  1  0
  4  5  1  0
  5  6  2  0
  6  7  1  0
  7  8  1  0
  8  9  2  0
  9 10  1  0
 10 11  2  0
 11 12  1  0
 12 13  2  0
 12 14  1  0
 11 15  1  0
 15 16  2  0
  7 17  1  0
 17 18  2  0
 18 19  1  0
 19 20  3  0
 18  5  1  0
 16  8  1  0
  1 21  1  0
  1 22  1  0
  1 23  1  0
  2 24  1  0
  2 25  1  0
  3 26  1  0
  3 27  1  0
  4 28  1  0
  9 29  1  0
 10 30  1  0
 15 31  1  0
 16 32  1  0
M  CHG  2  12   1  14  -1
M  END
>  <Binding energies>  (1) 
[-7.04]

>  <Ligand effiencies>  (1) 
[-0.3352380952380952]

>  <Interactions>  (1) 
["V-A:ILE:369:CG2:3237, V-A:ASP:366:CA:3210, V-A:GLY:454:CA:4049, V-A:ILE:369:CB:3236, V-B:GLU:543:CB:9878, H-A:ARG:545:NH1:4927, H-A:TYR:531:OH:4795, V-A:TYR:484:CE2:4346, V-B:TYR:539:CE2:9848, V-B:GLU:543:CG:9879, V-A:ASP:366:CG:3213, V-B:TYR:539:CZ:9849, H-A:ASN:370:N:3244, H-B:TYR:539:OH:9850, V-A:TYR:484:CZ:4347, V-A:GLU:543:CD:4908, V-A:ARG:545:CG:4922, H-A:GLY:454:N:4050, V-B:HIS:456:CE1:9041, V-A:HIS:456:CE1:4070, V-A:ILE:369:CD1:3239, V-A:ASP:366:C:3208, V-B:GLU:543:CD:9880, V-A:ASP:366:CB:3212, V-A:ARG:545:CD:4923, H-A:ILE:455:N:4055, H-A:ARG:545:NH2:4928, V-A:ARG:545:CZ:4926, H-A:ARG:545:NE:4924, H-A:HIS:456:ND1:4067, H-A:TYR:484:OH:4348"]

$$$$
ZINC256049181
     RDKit          3D

 35 36  0  0  0  0  0  0  0  0999 V2000
  125.4510  128.8380   75.5020 C   0  0  0  0  0  0  0  0  0  0  0  0
  125.7400  128.1280   74.3980 C   0  0  0  0  0  0  0  0  0  0  0  0
  127.0680  128.1040   73.6560 C   0  0  0  0  0  0  0  0  0  0  0  0
  127.1840  127.2010   72.5170 N   0  0  0  0  0  0  0  0  0  0  0  0
  128.1530  127.2300   71.5410 C   0  0  0  0  0  0  0  0  0  0  0  0
  127.9250  126.7720   70.3300 N   0  0  0  0  0  0  0  0  0  0  0  0
  129.0910  126.9520   69.7020 N   0  0  0  0  0  0  0  0  0  0  0  0
  129.2720  126.6300   68.3350 C   0  0  0  0  0  0  0  0  0  0  0  0
  129.8250  125.3800   68.0210 C   0  0  0  0  0  0  0  0  0  0  0  0
  130.0100  124.9980   66.6950 C   0  0  0  0  0  0  0  0  0  0  0  0
  129.6480  125.8620   65.6660 C   0  0  0  0  0  0  0  0  0  0  0  0
  129.1060  127.1110   65.9640 C   0  0  0  0  0  0  0  0  0  0  0  0
  128.9160  127.5140   67.2900 C   0  0  0  0  0  0  0  0  0  0  0  0
  128.3610  128.9180   67.5320 C   0  0  0  0  0  0  0  0  0  0  0  0
  127.9760  129.6440   66.2340 C   0  0  0  0  0  0  0  0  0  0  0  0
  130.0430  127.5360   70.4370 N   0  0  0  0  0  0  0  0  0  0  0  0
  129.4860  127.7110   71.6220 C   0  0  0  0  0  0  0  0  0  0  0  0
  130.1890  128.3280   72.7730 C   0  0  0  0  0  0  0  0  0  0  0  0
  130.7000  127.5590   73.6210 O   0  0  0  0  0  0  0  0  0  0  0  0
  130.2310  129.5790   72.8340 O   0  0  0  0  0  0  0  0  0  0  0  0
  124.4489  128.7731   75.9510 H   0  0  0  0  0  0  0  0  0  0  0  0
  126.2166  129.4839   75.9566 H   0  0  0  0  0  0  0  0  0  0  0  0
  124.9344  127.5004   73.9893 H   0  0  0  0  0  0  0  0  0  0  0  0
  127.2598  129.1234   73.2898 H   0  0  0  0  0  0  0  0  0  0  0  0
  127.7938  127.7250   74.3905 H   0  0  0  0  0  0  0  0  0  0  0  0
  126.6930  126.3310   72.6740 H   0  0  0  0  0  0  0  0  0  0  0  0
  130.1155  124.6944   68.8306 H   0  0  0  0  0  0  0  0  0  0  0  0
  130.4420  124.0138   66.4609 H   0  0  0  0  0  0  0  0  0  0  0  0
  129.7895  125.5594   64.6180 H   0  0  0  0  0  0  0  0  0  0  0  0
  128.8238  127.7892   65.1452 H   0  0  0  0  0  0  0  0  0  0  0  0
  127.4662  128.8365   68.1665 H   0  0  0  0  0  0  0  0  0  0  0  0
  129.1550  129.5066   68.0148 H   0  0  0  0  0  0  0  0  0  0  0  0
  127.4736  130.5914   66.4790 H   0  0  0  0  0  0  0  0  0  0  0  0
  128.8828  129.8510   65.6468 H   0  0  0  0  0  0  0  0  0  0  0  0
  127.2959  129.0094   65.6468 H   0  0  0  0  0  0  0  0  0  0  0  0
  1  2  2  0
  2  3  1  0
  3  4  1  0
  4  5  1  0
  5  6  2  0
  6  7  1  0
  7  8  1  0
  8  9  2  0
  9 10  1  0
 10 11  2  0
 11 12  1  0
 12 13  2  0
 13 14  1  0
 14 15  1  0
  7 16  1  0
 16 17  2  0
 17 18  1  0
 18 19  2  0
 18 20  1  0
 17  5  1  0
 13  8  1  0
  1 21  1  0
  1 22  1  0
  2 23  1  0
  3 24  1  0
  3 25  1  0
  4 26  1  0
  9 27  1  0
 10 28  1  0
 11 29  1  0
 12 30  1  0
 14 31  1  0
 14 32  1  0
 15 33  1  0
 15 34  1  0
 15 35  1  0
M  CHG  1  20  -1
M  END
>  <Binding energies>  (1) 
[-6.65]

>  <Ligand effiencies>  (1) 
[-0.3166666666666667]

>  <Interactions>  (1) 
["V-B:HIS:456:CD2:9039, H-B:GLU:543:O:9875, V-B:GLU:543:CB:9878, V-B:HIS:456:CB:9036, V-A:TYR:484:CE2:4346, V-B:GLU:543:CG:9879, V-A:GLY:544:C:4912, V-B:TYR:484:CE2:9317, V-B:LYS:547:CE:9922, V-A:GLU:543:CD:4908, V-A:TYR:484:CZ:4347, V-B:HIS:456:CE1:9041, V-B:GLU:543:CA:9876, V-A:HIS:456:CE1:4070, V-B:TYR:484:CZ:9318, V-B:GLY:544:C:9884, V-A:GLU:543:CG:4907, V-B:GLU:543:CD:9880, V-B:HIS:456:CG:9037, H-A:LYS:547:NZ:4951, V-A:GLU:543:CB:4906, H-B:GLY:544:O:9885"]

$$$$
ZINC256095037
     RDKit          3D

 87 92  0  0  0  0  0  0  0  0999 V2000
  127.9910  131.4670   57.6710 C   0  0  0  0  0  0  0  0  0  0  0  0
  128.4910  132.6930   58.1870 O   0  0  0  0  0  0  0  0  0  0  0  0
  129.7110  132.5960   58.9250 C   0  0  1  0  0  0  0  0  0  0  0  0
  129.5150  132.8450   60.4410 C   0  0  1  0  0  0  0  0  0  0  0  0
  128.4400  132.0560   60.8740 O   0  0  0  0  0  0  0  0  0  0  0  0
  128.6110  130.6380   60.8770 C   0  0  1  0  0  0  0  0  0  0  0  0
  128.7300  130.1900   62.3450 C   0  0  0  0  0  0  0  0  0  0  0  0
  128.8980  128.6570   62.4990 C   0  0  0  0  0  0  0  0  0  0  0  0
  127.8570  127.7760   61.7150 C   0  0  2  0  0  0  0  0  0  0  0  0
  126.5570  127.9560   62.5700 C   0  0  0  0  0  0  0  0  0  0  0  0
  125.7420  128.8640   62.4050 O   0  0  0  0  0  0  0  0  0  0  0  0
  128.1810  126.2070   61.7140 C   0  0  2  0  0  0  0  0  0  0  0  0
  129.6440  125.7710   62.0180 C   0  0  0  0  0  0  0  0  0  0  0  0
  129.9950  124.3780   61.4390 C   0  0  0  0  0  0  0  0  0  0  0  0
  128.8420  123.3300   61.5850 C   0  0  2  0  0  0  0  0  0  0  0  0
  128.6350  123.0140   63.0960 C   0  0  0  0  0  0  0  0  0  0  0  0
  129.1650  122.0010   60.8320 C   0  0  2  0  0  0  0  0  0  0  0  0
  130.5870  121.4550   60.9620 C   0  0  0  0  0  0  0  0  0  0  0  0
  131.7340  122.1110   61.1770 C   0  0  0  0  0  0  0  0  0  0  0  0
  132.8260  121.1670   61.2490 C   0  0  0  0  0  0  0  0  0  0  0  0
  134.0140  121.4210   61.4270 O   0  0  0  0  0  0  0  0  0  0  0  0
  132.3250  119.9370   61.0940 O   0  0  0  0  0  0  0  0  0  0  0  0
  130.9270  119.9850   60.9170 C   0  0  0  0  0  0  0  0  0  0  0  0
  128.7010  122.2260   59.3940 C   0  0  0  0  0  0  0  0  0  0  0  0
  127.3970  123.0000   59.5540 C   0  0  0  0  0  0  0  0  0  0  0  0
  127.5310  123.8580   60.8450 C   0  0  1  0  0  0  0  0  0  0  0  0
  126.3320  123.6990   61.5970 O   0  0  0  0  0  0  0  0  0  0  0  0
  127.6150  125.3950   60.4970 C   0  0  1  0  0  0  0  0  0  0  0  0
  126.3210  126.0660   59.9700 C   0  0  0  0  0  0  0  0  0  0  0  0
  126.5910  127.4930   59.4300 C   0  0  0  0  0  0  0  0  0  0  0  0
  127.6530  128.3270   60.2250 C   0  0  2  0  0  0  0  0  0  0  0  0
  128.9110  127.9920   59.6430 O   0  0  0  0  0  0  0  0  0  0  0  0
  127.4730  129.8700   60.1600 C   0  0  0  0  0  0  0  0  0  0  0  0
  130.7000  132.5920   61.1630 O   0  0  0  0  0  0  0  0  0  0  0  0
  131.1980  131.2580   61.0120 C   0  0  2  0  0  0  0  0  0  0  0  0
  132.3490  131.0430   62.0090 C   0  0  0  0  0  0  0  0  0  0  0  0
  131.6060  131.0140   59.5430 C   0  0  2  0  0  0  0  0  0  0  0  0
  132.6410  131.8930   59.1280 O   0  0  0  0  0  0  0  0  0  0  0  0
  130.3480  131.2080   58.6650 C   0  0  2  0  0  0  0  0  0  0  0  0
  130.6130  131.0570   57.2670 O   0  0  0  0  0  0  0  0  0  0  0  0
  130.9600  132.2470   56.5700 C   0  0  0  0  0  0  0  0  0  0  0  0
  127.7198  130.8020   58.5042 H   0  0  0  0  0  0  0  0  0  0  0  0
  127.1014  131.6642   57.0547 H   0  0  0  0  0  0  0  0  0  0  0  0
  128.7647  130.9858   57.0547 H   0  0  0  0  0  0  0  0  0  0  0  0
  130.3876  133.3894   58.5747 H   0  0  0  0  0  0  0  0  0  0  0  0
  129.2806  133.9036   60.6264 H   0  0  0  0  0  0  0  0  0  0  0  0
  129.5197  130.3972   60.3058 H   0  0  0  0  0  0  0  0  0  0  0  0
  129.6043  130.6851   62.7927 H   0  0  0  0  0  0  0  0  0  0  0  0
  127.7948  130.4709   62.8514 H   0  0  0  0  0  0  0  0  0  0  0  0
  129.9038  128.3895   62.1428 H   0  0  0  0  0  0  0  0  0  0  0  0
  128.7313  128.4420   63.5648 H   0  0  0  0  0  0  0  0  0  0  0  0
  126.3598  127.2252   63.3681 H   0  0  0  0  0  0  0  0  0  0  0  0
  127.6013  125.9276   62.6061 H   0  0  0  0  0  0  0  0  0  0  0  0
  130.3285  126.5139   61.5825 H   0  0  0  0  0  0  0  0  0  0  0  0
  129.7471  125.7075   63.1113 H   0  0  0  0  0  0  0  0  0  0  0  0
  130.2261  124.4940   60.3698 H   0  0  0  0  0  0  0  0  0  0  0  0
  130.8521  123.9966   62.0134 H   0  0  0  0  0  0  0  0  0  0  0  0
  129.1376  123.7812   63.7033 H   0  0  0  0  0  0  0  0  0  0  0  0
  127.5593  123.0109   63.3260 H   0  0  0  0  0  0  0  0  0  0  0  0
  129.0619  122.0266   63.3260 H   0  0  0  0  0  0  0  0  0  0  0  0
  128.6238  121.1737   61.3144 H   0  0  0  0  0  0  0  0  0  0  0  0
  131.8306  123.2016   61.2827 H   0  0  0  0  0  0  0  0  0  0  0  0
  130.6434  119.5505   59.9471 H   0  0  0  0  0  0  0  0  0  0  0  0
  130.3896  119.4091   61.6848 H   0  0  0  0  0  0  0  0  0  0  0  0
  129.4401  122.8143   58.8305 H   0  0  0  0  0  0  0  0  0  0  0  0
  128.5747  121.2875   58.8342 H   0  0  0  0  0  0  0  0  0  0  0  0
  127.2355  123.6517   58.6827 H   0  0  0  0  0  0  0  0  0  0  0  0
  126.5403  122.3138   59.6266 H   0  0  0  0  0  0  0  0  0  0  0  0
  126.3330  124.3420   62.3080 H   0  0  0  0  0  0  0  0  0  0  0  0
  128.3037  125.4255   59.6398 H   0  0  0  0  0  0  0  0  0  0  0  0
  125.9063  125.4507   59.1580 H   0  0  0  0  0  0  0  0  0  0  0  0
  125.6122  126.1460   60.8074 H   0  0  0  0  0  0  0  0  0  0  0  0
  126.9410  127.4013   58.3912 H   0  0  0  0  0  0  0  0  0  0  0  0
  125.6413  128.0386   59.5323 H   0  0  0  0  0  0  0  0  0  0  0  0
  129.2810  128.7840   59.2470 H   0  0  0  0  0  0  0  0  0  0  0  0
  127.4527  130.1772   59.1040 H   0  0  0  0  0  0  0  0  0  0  0  0
  126.5324  130.1156   60.6747 H   0  0  0  0  0  0  0  0  0  0  0  0
  130.4196  130.5160   61.2434 H   0  0  0  0  0  0  0  0  0  0  0  0
  131.9625  131.1152   63.0363 H   0  0  0  0  0  0  0  0  0  0  0  0
  132.7890  130.0471   61.8519 H   0  0  0  0  0  0  0  0  0  0  0  0
  133.1188  131.8129   61.8519 H   0  0  0  0  0  0  0  0  0  0  0  0
  132.0008  129.9925   59.4396 H   0  0  0  0  0  0  0  0  0  0  0  0
  132.5160  132.0910   58.1980 H   0  0  0  0  0  0  0  0  0  0  0  0
  129.6452  130.4126   58.9537 H   0  0  0  0  0  0  0  0  0  0  0  0
  131.1918  133.0418   57.2943 H   0  0  0  0  0  0  0  0  0  0  0  0
  131.8406  132.0584   55.9383 H   0  0  0  0  0  0  0  0  0  0  0  0
  130.1161  132.5613   55.9383 H   0  0  0  0  0  0  0  0  0  0  0  0
  1  2  1  0
  2  3  1  0
  3  4  1  0
  4  5  1  0
  5  6  1  0
  6  7  1  0
  7  8  1  0
  8  9  1  0
  9 10  1  1
 10 11  2  0
  9 12  1  0
 12 13  1  0
 13 14  1  0
 14 15  1  0
 15 16  1  1
 15 17  1  0
 17 18  1  0
 18 19  2  0
 19 20  1  0
 20 21  2  0
 20 22  1  0
 22 23  1  0
 17 24  1  0
 24 25  1  0
 25 26  1  0
 26 27  1  1
 26 28  1  0
 28 29  1  0
 29 30  1  0
 30 31  1  0
 31 32  1  6
 31 33  1  0
  4 34  1  0
 34 35  1  0
 35 36  1  0
 35 37  1  0
 37 38  1  0
 37 39  1  0
 39 40  1  0
 40 41  1  0
 39  3  1  0
 33  6  1  0
 31  9  1  0
 28 12  1  0
 26 15  1  0
 23 18  1  0
  1 42  1  0
  1 43  1  0
  1 44  1  0
  3 45  1  6
  4 46  1  6
  6 47  1  6
  7 48  1  0
  7 49  1  0
  8 50  1  0
  8 51  1  0
 10 52  1  0
 12 53  1  1
 13 54  1  0
 13 55  1  0
 14 56  1  0
 14 57  1  0
 16 58  1  0
 16 59  1  0
 16 60  1  0
 17 61  1  1
 19 62  1  0
 23 63  1  0
 23 64  1  0
 24 65  1  0
 24 66  1  0
 25 67  1  0
 25 68  1  0
 27 69  1  0
 28 70  1  6
 29 71  1  0
 29 72  1  0
 30 73  1  0
 30 74  1  0
 32 75  1  0
 33 76  1  0
 33 77  1  0
 35 78  1  1
 36 79  1  0
 36 80  1  0
 36 81  1  0
 37 82  1  1
 38 83  1  0
 39 84  1  1
 41 85  1  0
 41 86  1  0
 41 87  1  0
M  END
>  <Binding energies>  (1) 
[-7.5]

>  <Ligand effiencies>  (1) 
[-0.17045454545454544]

>  <Interactions>  (1) 
["V-A:ILE:369:CG2:3237, V-B:PRO:540:CA:9855, H-A:ALA:541:N:4891, V-A:PRO:540:C:4881, V-B:ASP:366:CG:8184, V-B:ALA:541:CB:9864, V-B:TYR:539:CE2:9848, V-B:GLU:543:CG:9879, V-B:TYR:539:C:9839, H-B:GLU:543:OE1:9881, H-B:ALA:541:N:9863, V-A:GLU:543:CD:4908, V-B:PRO:540:CB:9857, V-B:PRO:540:N:9856, V-B:TYR:539:CD2:9846, H-A:SER:385:OG:3410, V-B:GLU:543:CD:9880, V-A:TYR:539:C:4867, V-A:LEU:475:CD2:4259, V-B:TYR:539:CG:9844, H-B:ARG:545:NH2:9900, V-A:PRO:540:N:4884, V-A:PRO:540:CB:4885, V-A:PRO:540:CA:4883"]

$$$$
ZINC25668871-again1
     RDKit          3D

 33 34  0  0  0  0  0  0  0  0999 V2000
  133.7570  124.2260   58.0890 N   0  0  0  0  0  0  0  0  0  0  0  0
  133.0640  124.9090   59.0880 C   0  0  0  0  0  0  0  0  0  0  0  0
  133.4820  124.8110   60.4120 C   0  0  0  0  0  0  0  0  0  0  0  0
  132.7900  125.4920   61.4080 C   0  0  0  0  0  0  0  0  0  0  0  0
  131.6810  126.2680   61.0640 C   0  0  0  0  0  0  0  0  0  0  0  0
  131.0150  126.9530   62.2050 N   0  0  0  0  0  0  0  0  0  0  0  0
  131.2110  126.4050   59.7330 C   0  0  0  0  0  0  0  0  0  0  0  0
  130.0980  127.1950   59.4590 N   0  0  0  0  0  0  0  0  0  0  0  0
  130.3180  128.1770   58.5990 N   0  0  0  0  0  0  0  0  0  0  0  0
  130.5040  129.4050   58.9630 C   0  0  0  0  0  0  0  0  0  0  0  0
  130.7340  130.3860   57.9220 C   0  0  0  0  0  0  0  0  0  0  0  0
  130.9450  131.7060   58.1280 C   0  0  0  0  0  0  0  0  0  0  0  0
  131.1720  132.6330   56.9900 N   0  0  0  0  0  0  0  0  0  0  0  0
  130.2360  133.3490   56.6450 O   0  0  0  0  0  0  0  0  0  0  0  0
  132.2790  132.6340   56.4570 O   0  0  0  0  0  0  0  0  0  0  0  0
  130.9470  132.2140   59.4930 C   0  0  0  0  0  0  0  0  0  0  0  0
  130.7460  131.4170   60.5770 C   0  0  0  0  0  0  0  0  0  0  0  0
  130.7700  132.0540   61.9330 N   0  0  0  0  0  0  0  0  0  0  0  0
  131.8520  132.2150   62.4910 O   0  0  0  0  0  0  0  0  0  0  0  0
  129.7000  132.3910   62.4350 O   0  0  0  0  0  0  0  0  0  0  0  0
  130.5060  129.9400   60.3970 C   0  0  0  0  0  0  0  0  0  0  0  0
  130.3200  129.1910   61.3590 O   0  0  0  0  0  0  0  0  0  0  0  0
  131.9530  125.6890   58.7610 C   0  0  0  0  0  0  0  0  0  0  0  0
  134.4160  124.7260   57.5090 H   0  0  0  0  0  0  0  0  0  0  0  0
  133.5930  123.2390   57.9560 H   0  0  0  0  0  0  0  0  0  0  0  0
  134.3572  124.1967   60.6700 H   0  0  0  0  0  0  0  0  0  0  0  0
  133.1133  125.4200   62.4570 H   0  0  0  0  0  0  0  0  0  0  0  0
  131.5180  127.7900   62.4650 H   0  0  0  0  0  0  0  0  0  0  0  0
  130.9760  126.3580   63.0200 H   0  0  0  0  0  0  0  0  0  0  0  0
  130.0720  127.2280   61.9700 H   0  0  0  0  0  0  0  0  0  0  0  0
  130.7373  130.0290   56.8816 H   0  0  0  0  0  0  0  0  0  0  0  0
  131.1184  133.2885   59.6544 H   0  0  0  0  0  0  0  0  0  0  0  0
  131.6416  125.7501   57.7078 H   0  0  0  0  0  0  0  0  0  0  0  0
  1  2  1  0
  2  3  2  0
  3  4  1  0
  4  5  2  0
  5  6  1  0
  5  7  1  0
  7  8  1  0
  8  9  1  0
  9 10  2  0
 10 11  1  0
 11 12  2  0
 12 13  1  0
 13 14  2  0
 13 15  1  0
 12 16  1  0
 16 17  2  0
 17 18  1  0
 18 19  2  0
 18 20  1  0
 17 21  1  0
 21 22  2  0
  7 23  2  0
 23  2  1  0
 21 10  1  0
  1 24  1  0
  1 25  1  0
  3 26  1  0
  4 27  1  0
  6 28  1  0
  6 29  1  0
  6 30  1  0
 11 31  1  0
 16 32  1  0
 23 33  1  0
M  CHG  6   6   1   8  -1  13   1  15  -1  18   1  20  -1
M  END
>  <Binding energies>  (1) 
[-6.29]

>  <Ligand effiencies>  (1) 
[-0.22464285714285714]

>  <Interactions>  (1) 
["V-A:ILE:369:CG2:3237, V-A:ASP:366:CA:3210, H-A:GLU:543:OE2:4910, V-A:ILE:369:CB:3236, H-A:ALA:541:N:4891, V-A:PRO:540:C:4881, V-A:ILE:538:CB:4862, H-A:TYR:531:OH:4795, V-B:TYR:539:CE2:9848, V-A:ASP:366:CG:3213, V-A:LEU:363:CD1:3189, V-B:TYR:539:CZ:9849, H-B:TYR:539:OH:9850, V-A:GLU:543:CD:4908, V-A:ASP:366:C:3208, V-A:ASP:366:CB:3212, H-A:GLU:543:OE1:4909, H-A:ASP:366:O:3209, V-A:PRO:540:N:4884, H-A:TYR:539:N:4870, V-A:PRO:540:CB:4885, V-A:PRO:540:CA:4883, H-A:ASP:366:OD2:3215, V-A:PRO:540:CD:4887"]

$$$$
ZINC25721945
     RDKit          3D

 34 36  0  0  0  0  0  0  0  0999 V2000
  128.3990  121.0080   60.9790 O   0  0  0  0  0  0  0  0  0  0  0  0
  129.2270  121.8180   61.4070 C   0  0  0  0  0  0  0  0  0  0  0  0
  128.9570  123.3360   61.4650 C   0  0  0  0  0  0  0  0  0  0  0  0
  127.8800  123.7760   60.5350 N   0  0  0  0  0  0  0  0  0  0  0  0
  126.5880  123.5970   60.9670 C   0  0  0  0  0  0  0  0  0  0  0  0
  126.2630  123.0810   62.0390 O   0  0  0  0  0  0  0  0  0  0  0  0
  125.5280  124.1570   59.9970 C   0  0  0  0  0  0  0  0  0  0  0  0
  125.8330  123.5500   58.3100 S   0  0  0  0  0  0  0  0  0  0  0  0
  127.4300  124.2920   58.1690 C   0  0  0  0  0  0  0  0  0  0  0  0
  127.8390  124.7960   56.9320 C   0  0  0  0  0  0  0  0  0  0  0  0
  129.1010  125.3650   56.7880 C   0  0  0  0  0  0  0  0  0  0  0  0
  129.9610  125.4240   57.8800 C   0  0  0  0  0  0  0  0  0  0  0  0
  129.5610  124.9140   59.1140 C   0  0  0  0  0  0  0  0  0  0  0  0
  128.2860  124.3430   59.2870 C   0  0  0  0  0  0  0  0  0  0  0  0
  130.4650  121.5200   61.8890 O   0  0  0  0  0  0  0  0  0  0  0  0
  131.4030  122.5200   62.0330 C   0  0  0  0  0  0  0  0  0  0  0  0
  132.1590  122.8840   60.9150 C   0  0  0  0  0  0  0  0  0  0  0  0
  133.1110  123.8970   61.0030 C   0  0  0  0  0  0  0  0  0  0  0  0
  133.3050  124.5640   62.2110 C   0  0  0  0  0  0  0  0  0  0  0  0
  132.5440  124.2270   63.3310 C   0  0  0  0  0  0  0  0  0  0  0  0
  132.8110  125.0950   64.8050 Cl  0  0  0  0  0  0  0  0  0  0  0  0
  131.5850  123.2080   63.2480 C   0  0  0  0  0  0  0  0  0  0  0  0
  130.6150  122.8070   64.6300 Cl  0  0  0  0  0  0  0  0  0  0  0  0
  128.6620  123.5997   62.4914 H   0  0  0  0  0  0  0  0  0  0  0  0
  129.8826  123.8448   61.1576 H   0  0  0  0  0  0  0  0  0  0  0  0
  124.5292  123.8327   60.3243 H   0  0  0  0  0  0  0  0  0  0  0  0
  125.5866  125.2554   59.9982 H   0  0  0  0  0  0  0  0  0  0  0  0
  127.1605  124.7429   56.0678 H   0  0  0  0  0  0  0  0  0  0  0  0
  129.4174  125.7667   55.8141 H   0  0  0  0  0  0  0  0  0  0  0  0
  130.9586  125.8740   57.7693 H   0  0  0  0  0  0  0  0  0  0  0  0
  130.2536  124.9585   59.9674 H   0  0  0  0  0  0  0  0  0  0  0  0
  132.0008  122.3661   59.9576 H   0  0  0  0  0  0  0  0  0  0  0  0
  133.7085  124.1699   60.1207 H   0  0  0  0  0  0  0  0  0  0  0  0
  134.0613  125.3596   62.2820 H   0  0  0  0  0  0  0  0  0  0  0  0
  1  2  2  0
  2  3  1  0
  3  4  1  0
  4  5  1  0
  5  6  2  0
  5  7  1  0
  7  8  1  0
  8  9  1  0
  9 10  2  0
 10 11  1  0
 11 12  2  0
 12 13  1  0
 13 14  2  0
  2 15  1  0
 15 16  1  0
 16 17  2  0
 17 18  1  0
 18 19  2  0
 19 20  1  0
 20 21  1  0
 20 22  2  0
 22 23  1  0
 14  4  1  0
 22 16  1  0
 14  9  1  0
  3 24  1  0
  3 25  1  0
  7 26  1  0
  7 27  1  0
 10 28  1  0
 11 29  1  0
 12 30  1  0
 13 31  1  0
 17 32  1  0
 18 33  1  0
 19 34  1  0
M  END
>  <Binding energies>  (1) 
[-6.09]

>  <Ligand effiencies>  (1) 
[-0.2647826086956522]

>  <Interactions>  (1) 
["V-B:PRO:540:CA:9855, V-B:TYR:539:CZ:9849, H-B:ALA:541:N:9863, V-B:ALA:541:CB:9864, V-B:TYR:539:CE2:9848, V-B:PRO:540:CB:9857, V-A:TYR:484:CE2:4346, V-A:TYR:484:CZ:4347, V-A:LEU:475:CD2:4259, V-A:ARG:545:CZ:4926"]

$$$$
ZINC257346860
     RDKit          3D

 88 94  0  0  0  0  0  0  0  0999 V2000
  132.6770  131.6830   60.5080 C   0  0  0  0  0  0  0  0  0  0  0  0
  132.2330  130.7440   59.5360 O   0  0  0  0  0  0  0  0  0  0  0  0
  130.8240  130.7110   59.3020 C   0  0  2  0  0  0  0  0  0  0  0  0
  130.5190  130.0460   57.9430 C   0  0  2  0  0  0  0  0  0  0  0  0
  131.1610  130.7270   56.8740 O   0  0  0  0  0  0  0  0  0  0  0  0
  128.9840  130.0080   57.7610 C   0  0  2  0  0  0  0  0  0  0  0  0
  128.5390  129.3490   56.4450 C   0  0  0  0  0  0  0  0  0  0  0  0
  128.4450  131.3360   57.8200 O   0  0  0  0  0  0  0  0  0  0  0  0
  128.6240  131.9670   59.0710 C   0  0  1  0  0  0  0  0  0  0  0  0
  127.9910  131.2810   60.1150 O   0  0  0  0  0  0  0  0  0  0  0  0
  128.3900  129.9260   60.3170 C   0  0  1  0  0  0  0  0  0  0  0  0
  129.2660  129.8420   61.5850 C   0  0  0  0  0  0  0  0  0  0  0  0
  129.6850  128.3740   61.8400 C   0  0  0  0  0  0  0  0  0  0  0  0
  128.4790  127.3840   61.9910 C   0  0  1  0  0  0  0  0  0  0  0  0
  127.6600  127.8030   63.2570 C   0  0  0  0  0  0  0  0  0  0  0  0
  127.6360  127.5140   60.6790 C   0  0  2  0  0  0  0  0  0  0  0  0
  127.1750  128.9750   60.4240 C   0  0  0  0  0  0  0  0  0  0  0  0
  126.4640  126.5090   60.6490 C   0  0  0  0  0  0  0  0  0  0  0  0
  126.9350  125.0470   60.6590 C   0  0  1  0  0  0  0  0  0  0  0  0
  128.1540  124.7830   60.0080 O   0  0  0  0  0  0  0  0  0  0  0  0
  128.1980  124.7300   61.4160 C   0  0  1  0  0  0  0  0  0  0  0  0
  128.9370  125.8700   62.1940 C   0  0  1  0  0  0  0  0  0  0  0  0
  130.4610  125.5550   62.3350 C   0  0  0  0  0  0  0  0  0  0  0  0
  130.8120  124.0830   62.0040 C   0  0  0  0  0  0  0  0  0  0  0  0
  129.8300  123.0460   62.6440 C   0  0  2  0  0  0  0  0  0  0  0  0
  129.8690  123.2050   64.1970 C   0  0  0  0  0  0  0  0  0  0  0  0
  130.1790  121.5370   62.3120 C   0  0  2  0  0  0  0  0  0  0  0  0
  131.4720  121.2900   61.5300 C   0  0  0  0  0  0  0  0  0  0  0  0
  131.7240  120.3950   60.5660 C   0  0  0  0  0  0  0  0  0  0  0  0
  133.0840  120.5500   60.1030 C   0  0  0  0  0  0  0  0  0  0  0  0
  133.6500  119.8900   59.2340 O   0  0  0  0  0  0  0  0  0  0  0  0
  133.6450  121.5540   60.7850 O   0  0  0  0  0  0  0  0  0  0  0  0
  132.7290  122.1100   61.7020 C   0  0  0  0  0  0  0  0  0  0  0  0
  128.9390  120.9450   61.6240 C   0  0  0  0  0  0  0  0  0  0  0  0
  128.2650  122.1370   60.9630 C   0  0  0  0  0  0  0  0  0  0  0  0
  128.4020  123.2800   61.9930 C   0  0  2  0  0  0  0  0  0  0  0  0
  127.3460  123.1490   62.9380 O   0  0  0  0  0  0  0  0  0  0  0  0
  130.1240  132.0930   59.4210 C   0  0  2  0  0  0  0  0  0  0  0  0
  130.7780  133.0480   58.5810 O   0  0  0  0  0  0  0  0  0  0  0  0
  130.5260  133.1260   57.2570 C   0  0  0  0  0  0  0  0  0  0  0  0
  131.8020  133.2210   56.4310 C   0  0  0  0  0  0  0  0  0  0  0  0
  129.4150  133.1230   56.7240 O   0  0  0  0  0  0  0  0  0  0  0  0
  132.4885  131.2844   61.5158 H   0  0  0  0  0  0  0  0  0  0  0  0
  133.7549  131.8614   60.3799 H   0  0  0  0  0  0  0  0  0  0  0  0
  132.1309  132.6293   60.3799 H   0  0  0  0  0  0  0  0  0  0  0  0
  130.3963  130.1016   60.1118 H   0  0  0  0  0  0  0  0  0  0  0  0
  130.9165  129.0204   57.9309 H   0  0  0  0  0  0  0  0  0  0  0  0
  131.8690  131.2630   57.2400 H   0  0  0  0  0  0  0  0  0  0  0  0
  128.5967  129.3910   58.5852 H   0  0  0  0  0  0  0  0  0  0  0  0
  127.9361  128.4562   56.6675 H   0  0  0  0  0  0  0  0  0  0  0  0
  127.9369  130.0623   55.8630 H   0  0  0  0  0  0  0  0  0  0  0  0
  129.4256  129.0570   55.8630 H   0  0  0  0  0  0  0  0  0  0  0  0
  128.1676  132.9628   58.9705 H   0  0  0  0  0  0  0  0  0  0  0  0
  128.9711  129.5987   59.4422 H   0  0  0  0  0  0  0  0  0  0  0  0
  130.1659  130.4596   61.4481 H   0  0  0  0  0  0  0  0  0  0  0  0
  128.6905  130.2092   62.4475 H   0  0  0  0  0  0  0  0  0  0  0  0
  130.3038  128.0390   60.9945 H   0  0  0  0  0  0  0  0  0  0  0  0
  130.2300  128.3599   62.7954 H   0  0  0  0  0  0  0  0  0  0  0  0
  128.2150  127.5191   64.1633 H   0  0  0  0  0  0  0  0  0  0  0  0
  127.5037  128.8918   63.2488 H   0  0  0  0  0  0  0  0  0  0  0  0
  126.6856  127.2926   63.2488 H   0  0  0  0  0  0  0  0  0  0  0  0
  128.2977  127.2494   59.8411 H   0  0  0  0  0  0  0  0  0  0  0  0
  126.6035  129.0137   59.4849 H   0  0  0  0  0  0  0  0  0  0  0  0
  126.5486  129.2985   61.2684 H   0  0  0  0  0  0  0  0  0  0  0  0
  125.8309  126.6806   61.5320 H   0  0  0  0  0  0  0  0  0  0  0  0
  125.9103  126.6728   59.7127 H   0  0  0  0  0  0  0  0  0  0  0  0
  125.9125  124.6421   60.6346 H   0  0  0  0  0  0  0  0  0  0  0  0
  128.5246  125.8326   63.2131 H   0  0  0  0  0  0  0  0  0  0  0  0
  131.0185  126.2102   61.6495 H   0  0  0  0  0  0  0  0  0  0  0  0
  130.7352  125.7285   63.3860 H   0  0  0  0  0  0  0  0  0  0  0  0
  130.7876  123.9568   60.9115 H   0  0  0  0  0  0  0  0  0  0  0  0
  131.8088  123.8863   62.4255 H   0  0  0  0  0  0  0  0  0  0  0  0
  129.6325  122.2406   64.6704 H   0  0  0  0  0  0  0  0  0  0  0  0
  130.8733  123.5292   64.5073 H   0  0  0  0  0  0  0  0  0  0  0  0
  129.1287  123.9571   64.5073 H   0  0  0  0  0  0  0  0  0  0  0  0
  130.4098  121.0243   63.2575 H   0  0  0  0  0  0  0  0  0  0  0  0
  131.0052  119.6547   60.1848 H   0  0  0  0  0  0  0  0  0  0  0  0
  133.1098  122.0259   62.7306 H   0  0  0  0  0  0  0  0  0  0  0  0
  132.5561  123.1812   61.5213 H   0  0  0  0  0  0  0  0  0  0  0  0
  129.2313  120.1973   60.8720 H   0  0  0  0  0  0  0  0  0  0  0  0
  128.2744  120.4282   62.3320 H   0  0  0  0  0  0  0  0  0  0  0  0
  128.7724  122.3983   60.0227 H   0  0  0  0  0  0  0  0  0  0  0  0
  127.2160  121.9326   60.7025 H   0  0  0  0  0  0  0  0  0  0  0  0
  126.5890  123.6420   62.6170 H   0  0  0  0  0  0  0  0  0  0  0  0
  130.1973  132.4468   60.4600 H   0  0  0  0  0  0  0  0  0  0  0  0
  132.6701  133.2856   57.1034 H   0  0  0  0  0  0  0  0  0  0  0  0
  131.8954  132.3273   55.7965 H   0  0  0  0  0  0  0  0  0  0  0  0
  131.7621  134.1187   55.7965 H   0  0  0  0  0  0  0  0  0  0  0  0
  1  2  1  0
  2  3  1  0
  3  4  1  0
  4  5  1  0
  4  6  1  0
  6  7  1  0
  6  8  1  0
  8  9  1  0
  9 10  1  0
 10 11  1  0
 11 12  1  0
 12 13  1  0
 13 14  1  0
 14 15  1  1
 14 16  1  0
 16 17  1  0
 16 18  1  0
 18 19  1  0
 19 20  1  0
 21 20  1  6
 21 22  1  0
 22 23  1  0
 23 24  1  0
 24 25  1  0
 25 26  1  1
 25 27  1  0
 27 28  1  0
 28 29  2  0
 29 30  1  0
 30 31  2  0
 30 32  1  0
 32 33  1  0
 27 34  1  0
 34 35  1  0
 35 36  1  0
 36 37  1  1
  9 38  1  0
 38 39  1  0
 39 40  1  0
 40 41  1  0
 40 42  2  0
 38  3  1  0
 17 11  1  0
 21 19  1  0
 36 25  1  0
 22 14  1  0
 33 28  1  0
 36 21  1  0
  1 43  1  0
  1 44  1  0
  1 45  1  0
  3 46  1  1
  4 47  1  1
  5 48  1  0
  6 49  1  1
  7 50  1  0
  7 51  1  0
  7 52  1  0
  9 53  1  6
 11 54  1  6
 12 55  1  0
 12 56  1  0
 13 57  1  0
 13 58  1  0
 15 59  1  0
 15 60  1  0
 15 61  1  0
 16 62  1  6
 17 63  1  0
 17 64  1  0
 18 65  1  0
 18 66  1  0
 19 67  1  6
 22 68  1  1
 23 69  1  0
 23 70  1  0
 24 71  1  0
 24 72  1  0
 26 73  1  0
 26 74  1  0
 26 75  1  0
 27 76  1  1
 29 77  1  0
 33 78  1  0
 33 79  1  0
 34 80  1  0
 34 81  1  0
 35 82  1  0
 35 83  1  0
 37 84  1  0
 38 85  1  1
 41 86  1  0
 41 87  1  0
 41 88  1  0
M  END
>  <Binding energies>  (1) 
[-7.55]

>  <Ligand effiencies>  (1) 
[-0.1715909090909091]

>  <Interactions>  (1) 
["V-A:ILE:369:CG2:3237, V-B:PRO:540:CA:9855, V-A:ILE:538:CB:4862, V-B:ASP:366:CG:8184, V-B:ALA:541:CB:9864, H-A:TYR:531:OH:4795, V-B:TYR:539:CE2:9848, V-B:GLU:543:CG:9879, V-B:TYR:539:C:9839, V-A:ILE:538:CG2:4863, V-A:LEU:363:CD1:3189, V-A:ILE:538:CA:4860, H-B:GLU:543:OE1:9881, H-B:ALA:541:N:9863, V-A:GLU:543:CD:4908, V-B:PRO:540:N:9856, V-B:TYR:539:CD2:9846, V-A:SER:385:CB:3409, H-A:SER:385:OG:3410, V-A:MET:535:CE:4835, V-B:GLU:543:CD:9880, V-A:TYR:539:C:4867, V-A:LEU:475:CD2:4259, V-A:PRO:540:N:4884, H-A:TYR:539:N:4870, V-A:PRO:540:CB:4885, V-A:PRO:540:CA:4883, V-A:SER:385:CA:3407, V-B:PRO:540:C:9853, V-B:ALA:541:CA:9862, V-A:PRO:540:CD:4887"]

$$$$
ZINC257348550
     RDKit          3D

 83 86  0  0  0  0  0  0  0  0999 V2000
  133.6740  124.5340   59.9370 C   0  0  0  0  0  0  0  0  0  0  0  0
  132.3310  124.8690   59.3020 C   0  0  0  0  0  0  0  0  0  0  0  0
  132.2530  125.5910   58.3080 O   0  0  0  0  0  0  0  0  0  0  0  0
  131.3010  124.2870   59.9540 O   0  0  0  0  0  0  0  0  0  0  0  0
  130.4720  125.0120   60.8610 C   0  0  2  0  0  0  0  0  0  0  0  0
  131.1040  125.1430   62.2860 C   0  0  0  0  0  0  0  0  0  0  0  0
  131.0530  123.8410   63.1380 C   0  0  2  0  0  0  0  0  0  0  0  0
  132.1140  122.8230   62.6040 C   0  0  0  0  0  0  0  0  0  0  0  0
  129.5880  123.3360   63.1360 C   0  0  2  0  0  0  0  0  0  0  0  0
  129.5310  122.2570   64.2180 C   0  0  0  0  0  0  0  0  0  0  0  0
  130.4920  122.7800   65.3040 C   0  0  0  0  0  0  0  0  0  0  0  0
  131.2970  123.9620   64.6870 C   0  0  2  0  0  0  0  0  0  0  0  0
  131.1180  125.3460   65.4130 C   0  0  2  0  0  0  0  0  0  0  0  0
  132.4060  125.7070   66.1930 C   0  0  0  0  0  0  0  0  0  0  0  0
  129.8460  125.4850   66.3050 C   0  0  0  0  0  0  0  0  0  0  0  0
  130.1060  125.8470   67.7880 C   0  0  0  0  0  0  0  0  0  0  0  0
  129.7980  127.3210   68.1900 C   0  0  2  0  0  0  0  0  0  0  0  0
  129.8340  127.5060   69.7280 C   0  0  0  0  0  0  0  0  0  0  0  0
  128.4580  127.8450   67.5670 C   0  0  0  0  0  0  0  0  0  0  0  0
  128.3250  129.3840   67.5980 C   0  0  0  0  0  0  0  0  0  0  0  0
  127.1990  127.2270   68.2170 C   0  0  0  0  0  0  0  0  0  0  0  0
  128.9240  123.1040   61.7530 C   0  0  2  0  0  0  0  0  0  0  0  0
  129.3540  121.8690   60.9320 C   0  0  0  0  0  0  0  0  0  0  0  0
  128.4940  121.7420   59.6690 C   0  0  0  0  0  0  0  0  0  0  0  0
  128.5890  123.0020   58.7640 C   0  0  1  0  0  0  0  0  0  0  0  0
  127.7700  122.8040   57.4610 C   0  0  0  0  0  0  0  0  0  0  0  0
  126.2470  122.8910   57.6540 C   0  0  0  0  0  0  0  0  0  0  0  0
  125.4810  122.1050   57.0990 O   0  0  0  0  0  0  0  0  0  0  0  0
  125.7330  123.9820   58.6040 C   0  0  2  0  0  0  0  0  0  0  0  0
  125.3650  125.6200   57.5250 Br  0  0  0  0  0  0  0  0  0  0  0  0
  126.6760  124.3210   59.7890 C   0  0  0  0  0  0  0  0  0  0  0  0
  128.2200  124.3310   59.5200 C   0  0  2  0  0  0  0  0  0  0  0  0
  128.5870  125.5530   58.6280 C   0  0  0  0  0  0  0  0  0  0  0  0
  129.0170  124.4150   60.8950 C   0  0  2  0  0  0  0  0  0  0  0  0
  133.5778  124.5580   61.0325 H   0  0  0  0  0  0  0  0  0  0  0  0
  133.9898  123.5296   59.6186 H   0  0  0  0  0  0  0  0  0  0  0  0
  134.4245  125.2725   59.6186 H   0  0  0  0  0  0  0  0  0  0  0  0
  130.3950  126.0414   60.4810 H   0  0  0  0  0  0  0  0  0  0  0  0
  132.1579  125.4356   62.1687 H   0  0  0  0  0  0  0  0  0  0  0  0
  130.5064  125.8928   62.8251 H   0  0  0  0  0  0  0  0  0  0  0  0
  132.6181  122.3393   63.4536 H   0  0  0  0  0  0  0  0  0  0  0  0
  131.6131  122.0589   61.9914 H   0  0  0  0  0  0  0  0  0  0  0  0
  132.8568  123.3550   61.9914 H   0  0  0  0  0  0  0  0  0  0  0  0
  128.8719  124.1254   63.4081 H   0  0  0  0  0  0  0  0  0  0  0  0
  128.5103  122.1522   64.6145 H   0  0  0  0  0  0  0  0  0  0  0  0
  129.8112  121.2614   63.8434 H   0  0  0  0  0  0  0  0  0  0  0  0
  129.9192  123.1301   66.1754 H   0  0  0  0  0  0  0  0  0  0  0  0
  131.1709  121.9814   65.6378 H   0  0  0  0  0  0  0  0  0  0  0  0
  132.3812  123.9013   64.8626 H   0  0  0  0  0  0  0  0  0  0  0  0
  130.9475  126.0765   64.6084 H   0  0  0  0  0  0  0  0  0  0  0  0
  132.2080  125.6515   67.2736 H   0  0  0  0  0  0  0  0  0  0  0  0
  133.2049  124.9982   65.9298 H   0  0  0  0  0  0  0  0  0  0  0  0
  132.7201  126.7278   65.9298 H   0  0  0  0  0  0  0  0  0  0  0  0
  129.2121  126.2720   65.8705 H   0  0  0  0  0  0  0  0  0  0  0  0
  129.3754  124.4908   66.3156 H   0  0  0  0  0  0  0  0  0  0  0  0
  129.4811  125.1897   68.4105 H   0  0  0  0  0  0  0  0  0  0  0  0
  131.1869  125.7145   67.9430 H   0  0  0  0  0  0  0  0  0  0  0  0
  130.5989  127.9429   67.7637 H   0  0  0  0  0  0  0  0  0  0  0  0
  129.6459  126.5393   70.2181 H   0  0  0  0  0  0  0  0  0  0  0  0
  130.8224  127.8834   70.0289 H   0  0  0  0  0  0  0  0  0  0  0  0
  129.0592  128.2266   70.0289 H   0  0  0  0  0  0  0  0  0  0  0  0
  128.5154  127.5171   66.5186 H   0  0  0  0  0  0  0  0  0  0  0  0
  128.2952  129.7285   68.6422 H   0  0  0  0  0  0  0  0  0  0  0  0
  129.1874  129.8369   67.0869 H   0  0  0  0  0  0  0  0  0  0  0  0
  127.3977  129.6823   67.0869 H   0  0  0  0  0  0  0  0  0  0  0  0
  127.2918  127.2726   69.3121 H   0  0  0  0  0  0  0  0  0  0  0  0
  126.3089  127.7906   67.9007 H   0  0  0  0  0  0  0  0  0  0  0  0
  127.1004  126.1781   67.9007 H   0  0  0  0  0  0  0  0  0  0  0  0
  127.8837  122.8527   62.0071 H   0  0  0  0  0  0  0  0  0  0  0  0
  130.4098  121.9757   60.6425 H   0  0  0  0  0  0  0  0  0  0  0  0
  129.2205  120.9670   61.5472 H   0  0  0  0  0  0  0  0  0  0  0  0
  128.8345  120.8674   59.0952 H   0  0  0  0  0  0  0  0  0  0  0  0
  127.4460  121.6312   59.9842 H   0  0  0  0  0  0  0  0  0  0  0  0
  129.6444  123.1216   58.4780 H   0  0  0  0  0  0  0  0  0  0  0  0
  128.0716  123.5806   56.7427 H   0  0  0  0  0  0  0  0  0  0  0  0
  127.9856  121.7861   57.1040 H   0  0  0  0  0  0  0  0  0  0  0  0
  124.8228  123.5875   59.0793 H   0  0  0  0  0  0  0  0  0  0  0  0
  126.4003  125.3227   60.1504 H   0  0  0  0  0  0  0  0  0  0  0  0
  126.5266  123.4982   60.5036 H   0  0  0  0  0  0  0  0  0  0  0  0
  128.8444  126.4099   59.2679 H   0  0  0  0  0  0  0  0  0  0  0  0
  129.4482  125.2979   57.9929 H   0  0  0  0  0  0  0  0  0  0  0  0
  127.7278  125.8146   57.9929 H   0  0  0  0  0  0  0  0  0  0  0  0
  128.4531  125.2009   61.4188 H   0  0  0  0  0  0  0  0  0  0  0  0
  1  2  1  0
  2  3  2  0
  2  4  1  0
  4  5  1  0
  5  6  1  0
  6  7  1  0
  7  8  1  6
  7  9  1  0
  9 10  1  0
 10 11  1  0
 11 12  1  0
 12 13  1  0
 13 14  1  0
 13 15  1  0
 15 16  1  0
 16 17  1  0
 17 18  1  0
 17 19  1  0
 19 20  1  0
 19 21  1  0
  9 22  1  0
 22 23  1  0
 23 24  1  0
 24 25  1  0
 25 26  1  0
 26 27  1  0
 27 28  2  0
 27 29  1  0
 29 30  1  0
 29 31  1  0
 31 32  1  0
 32 33  1  6
 32 34  1  0
 34  5  1  0
 12  7  1  0
 34 22  1  0
 32 25  1  0
  1 35  1  0
  1 36  1  0
  1 37  1  0
  5 38  1  6
  6 39  1  0
  6 40  1  0
  8 41  1  0
  8 42  1  0
  8 43  1  0
  9 44  1  1
 10 45  1  0
 10 46  1  0
 11 47  1  0
 11 48  1  0
 12 49  1  6
 13 50  1  6
 14 51  1  0
 14 52  1  0
 14 53  1  0
 15 54  1  0
 15 55  1  0
 16 56  1  0
 16 57  1  0
 17 58  1  6
 18 59  1  0
 18 60  1  0
 18 61  1  0
 19 62  1  0
 20 63  1  0
 20 64  1  0
 20 65  1  0
 21 66  1  0
 21 67  1  0
 21 68  1  0
 22 69  1  1
 23 70  1  0
 23 71  1  0
 24 72  1  0
 24 73  1  0
 25 74  1  6
 26 75  1  0
 26 76  1  0
 29 77  1  1
 31 78  1  0
 31 79  1  0
 33 80  1  0
 33 81  1  0
 33 82  1  0
 34 83  1  1
M  END
>  <Binding energies>  (1) 
[-8.87]

>  <Ligand effiencies>  (1) 
[-0.26088235294117645]

>  <Interactions>  (1) 
["V-A:ILE:369:CG2:3237, V-A:ASP:366:CA:3210, V-B:PRO:540:CA:9855, V-A:GLU:543:CA:4904, V-B:GLU:543:C:9874, V-B:GLU:543:CB:9878, V-B:ALA:541:CB:9864, V-B:TYR:539:CE2:9848, V-A:TYR:484:CE2:4346, H-B:TYR:539:N:9842, V-B:GLU:543:CG:9879, V-B:TYR:539:C:9839, V-A:ASP:366:CG:3213, V-B:TYR:484:CE2:9317, V-B:TYR:539:CZ:9849, V-B:TYR:531:CZ:9766, H-B:TYR:539:OH:9850, V-B:TYR:531:CE2:9765, V-A:GLU:543:CD:4908, V-A:TYR:484:CZ:4347, V-B:PRO:540:CB:9857, V-B:ASP:366:CB:8183, V-A:ARG:545:CG:4922, V-B:HIS:456:CE1:9041, V-B:PRO:540:N:9856, V-A:HIS:456:CE1:4070, V-B:TYR:484:CZ:9318, V-B:TYR:539:CD2:9846, V-B:PRO:540:CD:9859, V-A:GLU:543:CG:4907, V-B:GLU:543:CD:9880, V-A:ASP:366:CB:3212, V-A:ARG:545:CD:4923, V-A:LEU:475:CD2:4259, V-A:ARG:545:CZ:4926, V-B:TYR:539:CG:9844, V-A:GLU:543:CB:4906, V-B:TYR:539:CD1:9845, V-B:PRO:540:C:9853, V-B:TYR:539:CE1:9847"]

$$$$
ZINC257348769
     RDKit          3D

 78 84  0  0  0  0  0  0  0  0999 V2000
  127.7410  132.4300   56.9940 C   0  0  0  0  0  0  0  0  0  0  0  0
  129.1220  133.0030   57.2820 C   0  0  0  0  0  0  0  0  0  0  0  0
  130.0190  132.9730   56.4380 O   0  0  0  0  0  0  0  0  0  0  0  0
  129.2120  133.5190   58.5290 O   0  0  0  0  0  0  0  0  0  0  0  0
  129.7920  132.7820   59.6060 C   0  0  2  0  0  0  0  0  0  0  0  0
  130.7730  131.6950   59.0890 C   0  0  0  0  0  0  0  0  0  0  0  0
  130.0320  130.5540   58.3520 C   0  0  0  0  0  0  0  0  0  0  0  0
  128.9170  129.8660   59.2060 C   0  0  1  0  0  0  0  0  0  0  0  0
  129.5840  129.1580   60.4240 C   0  0  0  0  0  0  0  0  0  0  0  0
  127.9290  131.0000   59.6530 C   0  0  1  0  0  0  0  0  0  0  0  0
  126.7470  130.4010   60.4410 C   0  0  0  0  0  0  0  0  0  0  0  0
  125.8460  129.5270   59.5520 C   0  0  0  0  0  0  0  0  0  0  0  0
  126.5660  128.4940   58.6340 C   0  0  1  0  0  0  0  0  0  0  0  0
  128.0730  128.8910   58.2830 C   0  0  2  0  0  0  0  0  0  0  0  0
  128.7640  127.7590   57.4790 C   0  0  1  0  0  0  0  0  0  0  0  0
  129.7690  126.7980   57.7480 O   0  0  0  0  0  0  0  0  0  0  0  0
  128.6970  126.7040   58.5950 C   0  0  2  0  0  0  0  0  0  0  0  0
  127.3510  125.9480   58.4740 C   0  0  1  0  0  0  0  0  0  0  0  0
  126.9510  125.4970   57.0400 C   0  0  0  0  0  0  0  0  0  0  0  0
  127.2430  124.7280   59.4470 C   0  0  2  0  0  0  0  0  0  0  0  0
  126.7770  125.2570   60.8030 C   0  0  2  0  0  0  0  0  0  0  0  0
  126.4110  126.7310   60.6060 C   0  0  0  0  0  0  0  0  0  0  0  0
  126.3490  126.9860   59.0850 C   0  0  1  0  0  0  0  0  0  0  0  0
  127.8990  125.0270   61.6380 O   0  0  0  0  0  0  0  0  0  0  0  0
  128.5720  123.8660   61.2370 C   0  0  2  0  0  0  0  0  0  0  0  0
  127.8910  122.7110   61.6930 O   0  0  0  0  0  0  0  0  0  0  0  0
  127.8300  122.5430   63.1150 C   0  0  0  0  0  0  0  0  0  0  0  0
  129.2240  122.5020   63.7690 C   0  0  2  0  0  0  0  0  0  0  0  0
  129.1480  122.3660   65.3000 C   0  0  0  0  0  0  0  0  0  0  0  0
  130.0230  123.7310   63.3240 C   0  0  0  0  0  0  0  0  0  0  0  0
  130.0200  123.8500   61.7930 C   0  0  2  0  0  0  0  0  0  0  0  0
  130.9060  125.5930   61.3750 Br  0  0  0  0  0  0  0  0  0  0  0  0
  128.5310  123.9130   59.6930 C   0  0  1  0  0  0  0  0  0  0  0  0
  128.5400  122.5240   59.0200 C   0  0  0  0  0  0  0  0  0  0  0  0
  128.6580  132.1300   60.4320 C   0  0  0  0  0  0  0  0  0  0  0  0
  127.2273  132.2168   57.9430 H   0  0  0  0  0  0  0  0  0  0  0  0
  127.1548  133.1592   56.4155 H   0  0  0  0  0  0  0  0  0  0  0  0
  127.8432  131.5000   56.4155 H   0  0  0  0  0  0  0  0  0  0  0  0
  130.3708  133.4726   60.2370 H   0  0  0  0  0  0  0  0  0  0  0  0
  131.4876  132.1617   58.3950 H   0  0  0  0  0  0  0  0  0  0  0  0
  131.2901  131.2611   59.9575 H   0  0  0  0  0  0  0  0  0  0  0  0
  129.5667  130.9714   57.4468 H   0  0  0  0  0  0  0  0  0  0  0  0
  130.7815  129.7817   58.1244 H   0  0  0  0  0  0  0  0  0  0  0  0
  129.1852  129.5813   61.3577 H   0  0  0  0  0  0  0  0  0  0  0  0
  129.3650  128.0807   60.3869 H   0  0  0  0  0  0  0  0  0  0  0  0
  130.6725  129.3124   60.3869 H   0  0  0  0  0  0  0  0  0  0  0  0
  127.5173  131.4763   58.7510 H   0  0  0  0  0  0  0  0  0  0  0  0
  127.1431  129.7838   61.2609 H   0  0  0  0  0  0  0  0  0  0  0  0
  126.1395  131.2328   60.8270 H   0  0  0  0  0  0  0  0  0  0  0  0
  125.1649  128.9697   60.2120 H   0  0  0  0  0  0  0  0  0  0  0  0
  125.3468  130.2273   58.8662 H   0  0  0  0  0  0  0  0  0  0  0  0
  126.0532  128.5500   57.6624 H   0  0  0  0  0  0  0  0  0  0  0  0
  127.9912  129.7563   57.6087 H   0  0  0  0  0  0  0  0  0  0  0  0
  128.6109  128.1999   56.4829 H   0  0  0  0  0  0  0  0  0  0  0  0
  128.7295  126.5014   59.6757 H   0  0  0  0  0  0  0  0  0  0  0  0
  126.2223  124.6754   57.1039 H   0  0  0  0  0  0  0  0  0  0  0  0
  126.5020  126.3443   56.5010 H   0  0  0  0  0  0  0  0  0  0  0  0
  127.8458  125.1524   56.5010 H   0  0  0  0  0  0  0  0  0  0  0  0
  126.5477  124.0329   58.9537 H   0  0  0  0  0  0  0  0  0  0  0  0
  125.8871  124.7858   61.2459 H   0  0  0  0  0  0  0  0  0  0  0  0
  125.4330  126.9410   61.0636 H   0  0  0  0  0  0  0  0  0  0  0  0
  127.1561  127.3855   61.0818 H   0  0  0  0  0  0  0  0  0  0  0  0
  125.3311  126.8346   58.6964 H   0  0  0  0  0  0  0  0  0  0  0  0
  127.2643  123.3828   63.5446 H   0  0  0  0  0  0  0  0  0  0  0  0
  127.3407  121.5783   63.3149 H   0  0  0  0  0  0  0  0  0  0  0  0
  129.7517  121.5992   63.4279 H   0  0  0  0  0  0  0  0  0  0  0  0
  129.6332  123.2343   65.7698 H   0  0  0  0  0  0  0  0  0  0  0  0
  128.0942  122.3214   65.6123 H   0  0  0  0  0  0  0  0  0  0  0  0
  129.6623  121.4451   65.6123 H   0  0  0  0  0  0  0  0  0  0  0  0
  129.5693  124.6342   63.7580 H   0  0  0  0  0  0  0  0  0  0  0  0
  131.0616  123.6241   63.6701 H   0  0  0  0  0  0  0  0  0  0  0  0
  130.5393  122.9946   61.3363 H   0  0  0  0  0  0  0  0  0  0  0  0
  129.4275  124.3629   59.2415 H   0  0  0  0  0  0  0  0  0  0  0  0
  128.5451  121.7418   59.7934 H   0  0  0  0  0  0  0  0  0  0  0  0
  127.6425  122.4143   58.3935 H   0  0  0  0  0  0  0  0  0  0  0  0
  129.4388  122.4259   58.3935 H   0  0  0  0  0  0  0  0  0  0  0  0
  127.9244  132.9054   60.6977 H   0  0  0  0  0  0  0  0  0  0  0  0
  129.1124  131.6798   61.3269 H   0  0  0  0  0  0  0  0  0  0  0  0
  1  2  1  0
  2  3  2  0
  2  4  1  0
  4  5  1  0
  5  6  1  0
  6  7  1  0
  7  8  1  0
  8  9  1  1
  8 10  1  0
 10 11  1  0
 11 12  1  0
 12 13  1  0
 13 14  1  0
 14 15  1  0
 15 16  1  0
 16 17  1  0
 17 18  1  0
 18 19  1  6
 18 20  1  0
 20 21  1  0
 21 22  1  0
 22 23  1  0
 21 24  1  0
 25 24  1  1
 25 26  1  0
 26 27  1  0
 27 28  1  0
 28 29  1  0
 28 30  1  0
 30 31  1  0
 31 32  1  0
 25 33  1  0
 33 34  1  0
 10 35  1  0
 35  5  1  0
 14  8  1  0
 17 15  1  0
 23 18  1  0
 31 25  1  0
 23 13  1  0
 33 20  1  0
  1 36  1  0
  1 37  1  0
  1 38  1  0
  5 39  1  1
  6 40  1  0
  6 41  1  0
  7 42  1  0
  7 43  1  0
  9 44  1  0
  9 45  1  0
  9 46  1  0
 10 47  1  6
 11 48  1  0
 11 49  1  0
 12 50  1  0
 12 51  1  0
 13 52  1  6
 14 53  1  6
 15 54  1  6
 17 55  1  1
 19 56  1  0
 19 57  1  0
 19 58  1  0
 20 59  1  6
 21 60  1  1
 22 61  1  0
 22 62  1  0
 23 63  1  6
 27 64  1  0
 27 65  1  0
 28 66  1  6
 29 67  1  0
 29 68  1  0
 29 69  1  0
 30 70  1  0
 30 71  1  0
 31 72  1  6
 33 73  1  6
 34 74  1  0
 34 75  1  0
 34 76  1  0
 35 77  1  0
 35 78  1  0
M  END
>  <Binding energies>  (1) 
[-8.05]

>  <Ligand effiencies>  (1) 
[-0.23]

>  <Interactions>  (1) 
["V-B:PRO:540:CA:9855, V-B:GLU:543:CB:9878, V-B:ASP:366:CG:8184, V-B:ALA:541:CB:9864, H-A:TYR:531:OH:4795, V-B:TYR:539:CE2:9848, V-A:TYR:484:CE2:4346, V-B:GLU:543:CG:9879, V-A:TYR:539:CE2:4876, V-B:TYR:539:C:9839, V-A:TYR:539:CD1:4873, V-B:TYR:539:CZ:9849, V-A:TYR:539:CZ:4877, H-B:ALA:541:N:9863, V-B:GLU:543:CA:9876, V-B:PRO:540:N:9856, V-B:ALA:541:C:9860, V-B:TYR:539:CD2:9846, V-B:GLU:543:CD:9880, V-A:TYR:539:C:4867, V-B:TYR:539:CG:9844, V-A:PRO:540:N:4884, V-A:TYR:539:CG:4872, H-A:TYR:539:N:4870, V-A:PRO:540:CB:4885, V-A:PRO:540:CA:4883, V-B:ALA:541:CA:9862, V-A:TYR:539:CE1:4875"]

$$$$
ZINC257348831
     RDKit          3D

 77 80  0  0  0  0  0  0  0  0999 V2000
  133.4700  131.6060   59.6940 C   0  0  0  0  0  0  0  0  0  0  0  0
  132.6360  131.2020   58.4630 C   0  0  0  0  0  0  0  0  0  0  0  0
  133.4630  130.3150   57.5130 C   0  0  0  0  0  0  0  0  0  0  0  0
  132.0460  132.4190   57.7090 C   0  0  0  0  0  0  0  0  0  0  0  0
  130.8570  132.0900   56.7820 C   0  0  0  0  0  0  0  0  0  0  0  0
  129.4930  132.4370   57.4160 C   0  0  0  0  0  0  0  0  0  0  0  0
  129.3850  132.2030   58.9480 C   0  0  1  0  0  0  0  0  0  0  0  0
  128.5710  133.3340   59.6230 C   0  0  0  0  0  0  0  0  0  0  0  0
  128.7940  130.7970   59.3150 C   0  0  2  0  0  0  0  0  0  0  0  0
  127.5410  130.8720   60.2400 C   0  0  0  0  0  0  0  0  0  0  0  0
  127.5300  129.6130   61.1260 C   0  0  0  0  0  0  0  0  0  0  0  0
  128.6430  128.7470   60.5340 C   0  0  2  0  0  0  0  0  0  0  0  0
  129.1570  127.4760   61.2830 C   0  0  2  0  0  0  0  0  0  0  0  0
  129.1250  127.5070   62.8280 C   0  0  0  0  0  0  0  0  0  0  0  0
  129.5210  126.1270   63.3990 C   0  0  0  0  0  0  0  0  0  0  0  0
  130.8990  125.6420   62.8670 C   0  0  1  0  0  0  0  0  0  0  0  0
  131.3160  124.2780   63.4710 C   0  0  0  0  0  0  0  0  0  0  0  0
  132.7360  123.8310   63.0440 C   0  0  2  0  0  0  0  0  0  0  0  0
  133.7630  124.6000   63.8440 N   0  0  0  0  0  0  0  0  0  0  0  0
  133.6060  124.7470   65.0520 O   0  0  0  0  0  0  0  0  0  0  0  0
  134.7310  125.0390   63.2310 O   0  0  0  0  0  0  0  0  0  0  0  0
  132.9760  123.9590   61.5150 C   0  0  0  0  0  0  0  0  0  0  0  0
  132.4390  125.2780   60.9010 C   0  0  0  0  0  0  0  0  0  0  0  0
  130.9630  125.6180   61.2900 C   0  0  1  0  0  0  0  0  0  0  0  0
  130.0040  124.5550   60.6650 C   0  0  0  0  0  0  0  0  0  0  0  0
  130.6050  127.0860   60.8350 C   0  0  1  0  0  0  0  0  0  0  0  0
  130.7900  127.4430   59.3370 C   0  0  0  0  0  0  0  0  0  0  0  0
  130.7400  128.9840   59.1190 C   0  0  0  0  0  0  0  0  0  0  0  0
  129.7170  129.7510   60.0320 C   0  0  1  0  0  0  0  0  0  0  0  0
  130.4800  130.4380   61.2100 C   0  0  0  0  0  0  0  0  0  0  0  0
  132.9228  131.3409   60.6107 H   0  0  0  0  0  0  0  0  0  0  0  0
  134.4329  131.0744   59.6751 H   0  0  0  0  0  0  0  0  0  0  0  0
  133.6498  132.6910   59.6751 H   0  0  0  0  0  0  0  0  0  0  0  0
  131.7797  130.6218   58.8373 H   0  0  0  0  0  0  0  0  0  0  0  0
  134.0960  129.6361   58.1033 H   0  0  0  0  0  0  0  0  0  0  0  0
  132.7849  129.7253   56.8787 H   0  0  0  0  0  0  0  0  0  0  0  0
  134.0987  130.9502   56.8787 H   0  0  0  0  0  0  0  0  0  0  0  0
  131.7058  133.1521   58.4552 H   0  0  0  0  0  0  0  0  0  0  0  0
  132.8484  132.8010   57.0607 H   0  0  0  0  0  0  0  0  0  0  0  0
  130.9681  132.6639   55.8502 H   0  0  0  0  0  0  0  0  0  0  0  0
  130.8707  131.0059   56.5964 H   0  0  0  0  0  0  0  0  0  0  0  0
  129.2901  133.5004   57.2211 H   0  0  0  0  0  0  0  0  0  0  0  0
  128.7648  131.7532   56.9554 H   0  0  0  0  0  0  0  0  0  0  0  0
  130.4132  132.2218   59.3384 H   0  0  0  0  0  0  0  0  0  0  0  0
  128.6423  133.2349   60.7162 H   0  0  0  0  0  0  0  0  0  0  0  0
  128.9752  134.3100   59.3162 H   0  0  0  0  0  0  0  0  0  0  0  0
  127.5172  133.2607   59.3162 H   0  0  0  0  0  0  0  0  0  0  0  0
  128.5914  130.4491   58.2913 H   0  0  0  0  0  0  0  0  0  0  0  0
  127.5952  131.7719   60.8702 H   0  0  0  0  0  0  0  0  0  0  0  0
  126.6225  130.9239   59.6370 H   0  0  0  0  0  0  0  0  0  0  0  0
  127.7463  129.8683   62.1739 H   0  0  0  0  0  0  0  0  0  0  0  0
  126.5538  129.1062   61.1364 H   0  0  0  0  0  0  0  0  0  0  0  0
  128.2050  128.1499   59.7206 H   0  0  0  0  0  0  0  0  0  0  0  0
  128.4148  126.7222   60.9813 H   0  0  0  0  0  0  0  0  0  0  0  0
  129.8330  128.2668   63.1907 H   0  0  0  0  0  0  0  0  0  0  0  0
  128.1058  127.7533   63.1605 H   0  0  0  0  0  0  0  0  0  0  0  0
  129.5704  126.1988   64.4955 H   0  0  0  0  0  0  0  0  0  0  0  0
  128.7611  125.3993   63.0780 H   0  0  0  0  0  0  0  0  0  0  0  0
  131.6340  126.3863   63.2073 H   0  0  0  0  0  0  0  0  0  0  0  0
  131.2897  124.3585   64.5677 H   0  0  0  0  0  0  0  0  0  0  0  0
  130.6088  123.5239   63.0953 H   0  0  0  0  0  0  0  0  0  0  0  0
  132.8374  122.7579   63.2633 H   0  0  0  0  0  0  0  0  0  0  0  0
  134.0589  123.9066   61.3292 H   0  0  0  0  0  0  0  0  0  0  0  0
  132.4240  123.1369   61.0360 H   0  0  0  0  0  0  0  0  0  0  0  0
  133.0829  126.1027   61.2406 H   0  0  0  0  0  0  0  0  0  0  0  0
  132.4530  125.1445   59.8092 H   0  0  0  0  0  0  0  0  0  0  0  0
  129.5010  123.9974   61.4688 H   0  0  0  0  0  0  0  0  0  0  0  0
  129.2510  125.0612   60.0431 H   0  0  0  0  0  0  0  0  0  0  0  0
  130.5847  123.8579   60.0431 H   0  0  0  0  0  0  0  0  0  0  0  0
  131.3709  127.6824   61.3525 H   0  0  0  0  0  0  0  0  0  0  0  0
  131.7637  127.0629   58.9944 H   0  0  0  0  0  0  0  0  0  0  0  0
  129.9723  126.9818   58.7638 H   0  0  0  0  0  0  0  0  0  0  0  0
  131.7435  129.3892   59.3159 H   0  0  0  0  0  0  0  0  0  0  0  0
  130.4025  129.1371   58.0833 H   0  0  0  0  0  0  0  0  0  0  0  0
  130.0780  130.0761   62.1678 H   0  0  0  0  0  0  0  0  0  0  0  0
  131.5505  130.1933   61.1457 H   0  0  0  0  0  0  0  0  0  0  0  0
  130.3486  131.5282   61.1457 H   0  0  0  0  0  0  0  0  0  0  0  0
  1  2  1  0
  2  3  1  0
  2  4  1  0
  4  5  1  0
  5  6  1  0
  6  7  1  0
  7  8  1  0
  7  9  1  0
  9 10  1  0
 10 11  1  0
 11 12  1  0
 12 13  1  0
 13 14  1  0
 14 15  1  0
 15 16  1  0
 16 17  1  0
 17 18  1  0
 18 19  1  0
 19 20  2  0
 19 21  1  0
 18 22  1  0
 22 23  1  0
 23 24  1  0
 24 25  1  6
 24 26  1  0
 26 27  1  0
 27 28  1  0
 28 29  1  0
 29 30  1  1
 29  9  1  0
 29 12  1  0
 26 13  1  0
 24 16  1  0
  1 31  1  0
  1 32  1  0
  1 33  1  0
  2 34  1  0
  3 35  1  0
  3 36  1  0
  3 37  1  0
  4 38  1  0
  4 39  1  0
  5 40  1  0
  5 41  1  0
  6 42  1  0
  6 43  1  0
  7 44  1  1
  8 45  1  0
  8 46  1  0
  8 47  1  0
  9 48  1  6
 10 49  1  0
 10 50  1  0
 11 51  1  0
 11 52  1  0
 12 53  1  6
 13 54  1  6
 14 55  1  0
 14 56  1  0
 15 57  1  0
 15 58  1  0
 16 59  1  1
 17 60  1  0
 17 61  1  0
 18 62  1  1
 22 63  1  0
 22 64  1  0
 23 65  1  0
 23 66  1  0
 25 67  1  0
 25 68  1  0
 25 69  1  0
 26 70  1  1
 27 71  1  0
 27 72  1  0
 28 73  1  0
 28 74  1  0
 30 75  1  0
 30 76  1  0
 30 77  1  0
M  CHG  2  19   1  21  -1
M  END
>  <Binding energies>  (1) 
[-7.85]

>  <Ligand effiencies>  (1) 
[-0.26166666666666666]

>  <Interactions>  (1) 
["V-A:PRO:540:CG:4886, V-A:GLY:454:CA:4049, H-A:ARG:545:NH1:4927, V-A:ASP:366:CG:3213, V-A:LEU:363:CD1:3189, V-A:LEU:363:CB:3187, V-A:TYR:539:CD1:4873, V-A:TYR:531:CE2:4793, V-A:GLU:543:CD:4908, H-A:GLY:454:N:4050, V-A:GLY:453:C:4042, V-A:TYR:531:CZ:4794, V-B:GLU:543:CD:9880, V-A:TYR:539:C:4867, V-A:ASP:366:CB:3212, H-A:ARG:545:NH2:4928, V-A:ARG:545:CZ:4926, V-A:PRO:540:N:4884, V-A:PRO:540:CB:4885, V-A:PRO:540:CA:4883, V-A:LEU:363:CA:3185, V-A:GLY:453:CA:4044, H-A:ARG:545:NE:4924, V-A:PRO:540:CD:4887, V-A:TYR:539:CE1:4875, H-A:TYR:484:OH:4348"]

$$$$
ZINC257348844
     RDKit          3D

 89 94  0  0  0  0  0  0  0  0999 V2000
  131.7120  131.6700   56.8200 C   0  0  0  0  0  0  0  0  0  0  0  0
  130.8900  132.9520   56.8490 C   0  0  0  0  0  0  0  0  0  0  0  0
  131.3780  134.0360   56.5270 O   0  0  0  0  0  0  0  0  0  0  0  0
  129.6180  132.7330   57.2520 O   0  0  0  0  0  0  0  0  0  0  0  0
  129.2630  132.6550   58.6330 C   0  0  2  0  0  0  0  0  0  0  0  0
  130.5270  132.2470   59.4470 C   0  0  0  0  0  0  0  0  0  0  0  0
  130.5810  130.7740   59.8940 C   0  0  0  0  0  0  0  0  0  0  0  0
  129.2510  130.2840   60.5320 C   0  0  2  0  0  0  0  0  0  0  0  0
  128.9650  131.2280   61.7550 C   0  0  0  0  0  0  0  0  0  0  0  0
  129.2960  128.7880   61.0880 C   0  0  2  0  0  0  0  0  0  0  0  0
  130.6750  128.0930   61.2570 C   0  0  0  0  0  0  0  0  0  0  0  0
  130.6230  126.5500   61.3050 C   0  0  0  0  0  0  0  0  0  0  0  0
  129.3660  125.9430   62.0070 C   0  0  2  0  0  0  0  0  0  0  0  0
  129.4630  126.2890   63.5230 C   0  0  0  0  0  0  0  0  0  0  0  0
  129.1730  124.3670   61.8790 C   0  0  2  0  0  0  0  0  0  0  0  0
  130.0910  123.5680   60.8740 C   0  0  2  0  0  0  0  0  0  0  0  0
  129.4800  123.2250   59.4900 C   0  0  0  0  0  0  0  0  0  0  0  0
  130.8050  122.3310   61.5210 C   0  0  2  0  0  0  0  0  0  0  0  0
  129.3890  120.9220   61.6580 Br  0  0  0  0  0  0  0  0  0  0  0  0
  131.4990  122.4990   62.9200 C   0  0  2  0  0  0  0  0  0  0  0  0
  130.1540  123.0110   64.3140 Br  0  0  0  0  0  0  0  0  0  0  0  0
  132.6430  123.5720   63.0210 C   0  0  2  0  0  0  0  0  0  0  0  0
  132.1800  125.0190   63.3110 C   0  0  0  0  0  0  0  0  0  0  0  0
  133.6370  123.5150   61.8120 C   0  0  0  0  0  0  0  0  0  0  0  0
  133.9850  122.0720   61.3900 C   0  0  0  0  0  0  0  0  0  0  0  0
  134.9210  124.3500   62.0130 C   0  0  0  0  0  0  0  0  0  0  0  0
  127.6540  124.2030   61.6430 C   0  0  0  0  0  0  0  0  0  0  0  0
  127.2710  125.3780   60.7600 C   0  0  0  0  0  0  0  0  0  0  0  0
  128.0410  126.5430   61.3900 C   0  0  2  0  0  0  0  0  0  0  0  0
  128.1250  127.8760   60.5530 C   0  0  1  0  0  0  0  0  0  0  0  0
  126.8340  128.7070   60.7460 C   0  0  0  0  0  0  0  0  0  0  0  0
  126.8110  129.9340   60.1840 C   0  0  0  0  0  0  0  0  0  0  0  0
  128.0960  130.3590   59.4470 C   0  0  1  0  0  0  0  0  0  0  0  0
  127.9650  131.8000   58.8600 C   0  0  0  0  0  0  0  0  0  0  0  0
  128.1610  129.2140   58.3410 C   0  0  1  0  0  0  0  0  0  0  0  0
  129.3160  129.1420   57.3450 C   0  0  0  0  0  0  0  0  0  0  0  0
  129.6810  129.9900   56.5360 O   0  0  0  0  0  0  0  0  0  0  0  0
  129.9430  127.9660   57.4470 O   0  0  0  0  0  0  0  0  0  0  0  0
  129.2740  127.0920   58.2040 C   0  0  0  0  0  0  0  0  0  0  0  0
  129.5420  125.8940   58.1770 O   0  0  0  0  0  0  0  0  0  0  0  0
  128.1530  127.7940   58.9690 C   0  0  1  0  0  0  0  0  0  0  0  0
  131.9205  131.3448   57.8499 H   0  0  0  0  0  0  0  0  0  0  0  0
  131.1485  130.8849   56.2946 H   0  0  0  0  0  0  0  0  0  0  0  0
  132.6606  131.8545   56.2946 H   0  0  0  0  0  0  0  0  0  0  0  0
  128.9579  133.6365   59.0248 H   0  0  0  0  0  0  0  0  0  0  0  0
  131.4106  132.4442   58.8222 H   0  0  0  0  0  0  0  0  0  0  0  0
  130.4959  132.8422   60.3716 H   0  0  0  0  0  0  0  0  0  0  0  0
  130.7997  130.1489   59.0157 H   0  0  0  0  0  0  0  0  0  0  0  0
  131.3643  130.6916   60.6618 H   0  0  0  0  0  0  0  0  0  0  0  0
  129.1323  130.6757   62.6915 H   0  0  0  0  0  0  0  0  0  0  0  0
  129.6408  132.0950   61.7149 H   0  0  0  0  0  0  0  0  0  0  0  0
  127.9217  131.5742   61.7149 H   0  0  0  0  0  0  0  0  0  0  0  0
  129.0798  128.9510   62.1542 H   0  0  0  0  0  0  0  0  0  0  0  0
  131.3123  128.3874   60.4101 H   0  0  0  0  0  0  0  0  0  0  0  0
  131.0681  128.4193   62.2312 H   0  0  0  0  0  0  0  0  0  0  0  0
  130.6469  126.1773   60.2703 H   0  0  0  0  0  0  0  0  0  0  0  0
  131.4878  126.2364   61.9081 H   0  0  0  0  0  0  0  0  0  0  0  0
  129.2134  125.3988   64.1190 H   0  0  0  0  0  0  0  0  0  0  0  0
  130.4868  126.6138   63.7602 H   0  0  0  0  0  0  0  0  0  0  0  0
  128.7572  127.0987   63.7602 H   0  0  0  0  0  0  0  0  0  0  0  0
  129.5349  123.8793   62.7961 H   0  0  0  0  0  0  0  0  0  0  0  0
  130.8631  124.3159   60.6406 H   0  0  0  0  0  0  0  0  0  0  0  0
  128.5288  122.6910   59.6313 H   0  0  0  0  0  0  0  0  0  0  0  0
  129.2993  124.1536   58.9286 H   0  0  0  0  0  0  0  0  0  0  0  0
  130.1786  122.5872   58.9286 H   0  0  0  0  0  0  0  0  0  0  0  0
  131.6624  122.1024   60.8709 H   0  0  0  0  0  0  0  0  0  0  0  0
  131.9569  121.5110   63.0753 H   0  0  0  0  0  0  0  0  0  0  0  0
  133.1906  123.2700   63.9259 H   0  0  0  0  0  0  0  0  0  0  0  0
  132.1295  125.1768   64.3984 H   0  0  0  0  0  0  0  0  0  0  0  0
  132.8960  125.7283   62.8704 H   0  0  0  0  0  0  0  0  0  0  0  0
  131.1852  125.1809   62.8704 H   0  0  0  0  0  0  0  0  0  0  0  0
  133.0827  123.9854   60.9865 H   0  0  0  0  0  0  0  0  0  0  0  0
  134.1342  121.4534   62.2873 H   0  0  0  0  0  0  0  0  0  0  0  0
  133.1613  121.6564   60.7910 H   0  0  0  0  0  0  0  0  0  0  0  0
  134.9076  122.0776   60.7910 H   0  0  0  0  0  0  0  0  0  0  0  0
  135.1126  124.4746   63.0890 H   0  0  0  0  0  0  0  0  0  0  0  0
  135.7720  123.8320   61.5466 H   0  0  0  0  0  0  0  0  0  0  0  0
  134.7927  125.3379   61.5466 H   0  0  0  0  0  0  0  0  0  0  0  0
  127.4411  123.2507   61.1352 H   0  0  0  0  0  0  0  0  0  0  0  0
  127.0861  124.1882   62.5849 H   0  0  0  0  0  0  0  0  0  0  0  0
  127.5869  125.2110   59.7197 H   0  0  0  0  0  0  0  0  0  0  0  0
  126.1856  125.5498   60.7112 H   0  0  0  0  0  0  0  0  0  0  0  0
  127.4597  126.9828   62.2138 H   0  0  0  0  0  0  0  0  0  0  0  0
  125.9765  128.3167   61.3137 H   0  0  0  0  0  0  0  0  0  0  0  0
  125.9301  130.5896   60.2480 H   0  0  0  0  0  0  0  0  0  0  0  0
  127.4674  131.7054   57.8835 H   0  0  0  0  0  0  0  0  0  0  0  0
  127.4206  132.3522   59.6402 H   0  0  0  0  0  0  0  0  0  0  0  0
  127.2663  129.5201   57.7790 H   0  0  0  0  0  0  0  0  0  0  0  0
  127.2580  127.1650   58.8531 H   0  0  0  0  0  0  0  0  0  0  0  0
  1  2  1  0
  2  3  2  0
  2  4  1  0
  4  5  1  0
  5  6  1  0
  6  7  1  0
  7  8  1  0
  8  9  1  1
  8 10  1  0
 10 11  1  0
 11 12  1  0
 12 13  1  0
 13 14  1  1
 13 15  1  0
 15 16  1  0
 16 17  1  0
 16 18  1  0
 18 19  1  0
 18 20  1  0
 20 21  1  0
 20 22  1  0
 22 23  1  0
 22 24  1  0
 24 25  1  0
 24 26  1  0
 15 27  1  0
 27 28  1  0
 28 29  1  0
 29 30  1  0
 30 31  1  6
 31 32  2  0
 32 33  1  0
 33 34  1  6
 33 35  1  0
 35 36  1  0
 36 37  2  0
 36 38  1  0
 38 39  1  0
 39 40  2  0
 39 41  1  0
 34  5  1  0
 41 35  1  0
 33  8  1  0
 30 10  1  0
 29 13  1  0
 41 30  1  0
  1 42  1  0
  1 43  1  0
  1 44  1  0
  5 45  1  1
  6 46  1  0
  6 47  1  0
  7 48  1  0
  7 49  1  0
  9 50  1  0
  9 51  1  0
  9 52  1  0
 10 53  1  1
 11 54  1  0
 11 55  1  0
 12 56  1  0
 12 57  1  0
 14 58  1  0
 14 59  1  0
 14 60  1  0
 15 61  1  1
 16 62  1  6
 17 63  1  0
 17 64  1  0
 17 65  1  0
 18 66  1  6
 20 67  1  1
 22 68  1  1
 23 69  1  0
 23 70  1  0
 23 71  1  0
 24 72  1  0
 25 73  1  0
 25 74  1  0
 25 75  1  0
 26 76  1  0
 26 77  1  0
 26 78  1  0
 27 79  1  0
 27 80  1  0
 28 81  1  0
 28 82  1  0
 29 83  1  1
 31 84  1  0
 32 85  1  0
 34 86  1  0
 34 87  1  0
 35 88  1  6
 41 89  1  6
M  END
>  <Binding energies>  (1) 
[-8.75]

>  <Ligand effiencies>  (1) 
[-0.21341463414634146]

>  <Interactions>  (1) 
["V-A:ILE:369:CG2:3237, V-A:ILE:538:CB:4862, V-B:ALA:541:CB:9864, H-A:TYR:531:OH:4795, V-B:TYR:539:CE2:9848, V-A:TYR:484:CE2:4346, V-B:GLU:543:CG:9879, V-A:ASP:366:CG:3213, V-A:LEU:363:CD1:3189, V-B:TYR:539:CZ:9849, V-A:ILE:538:CA:4860, V-A:GLU:543:CD:4908, V-A:GLY:453:C:4042, V-A:ILE:369:CD1:3239, V-B:TYR:539:CD2:9846, V-A:MET:535:CE:4835, V-B:GLU:543:CD:9880, V-A:TYR:539:C:4867, V-A:LEU:475:CD2:4259, V-A:ARG:545:CZ:4926, V-A:PRO:540:N:4884, H-A:TYR:539:N:4870, V-A:PRO:540:CB:4885, V-A:PRO:540:CA:4883, V-A:GLY:453:CA:4044, V-B:PRO:540:C:9853, V-A:PRO:540:CD:4887, V-A:TYR:539:CE1:4875"]

$$$$
ZINC257348851
     RDKit          3D

 89 94  0  0  0  0  0  0  0  0999 V2000
  130.0840  125.2310   66.6470 C   0  0  0  0  0  0  0  0  0  0  0  0
  131.3850  125.1100   65.8620 C   0  0  0  0  0  0  0  0  0  0  0  0
  132.4580  125.4850   66.3340 O   0  0  0  0  0  0  0  0  0  0  0  0
  131.1930  124.5630   64.6410 O   0  0  0  0  0  0  0  0  0  0  0  0
  131.8760  123.3760   64.2340 C   0  0  2  0  0  0  0  0  0  0  0  0
  133.2280  123.7090   63.5470 C   0  0  0  0  0  0  0  0  0  0  0  0
  133.0300  124.3590   62.1540 C   0  0  0  0  0  0  0  0  0  0  0  0
  132.1550  123.5150   61.1680 C   0  0  1  0  0  0  0  0  0  0  0  0
  132.8840  122.1620   60.8850 C   0  0  0  0  0  0  0  0  0  0  0  0
  130.7820  123.3350   61.9110 C   0  0  2  0  0  0  0  0  0  0  0  0
  130.9620  122.5920   63.2630 C   0  0  0  0  0  0  0  0  0  0  0  0
  129.7610  122.6650   60.9740 C   0  0  0  0  0  0  0  0  0  0  0  0
  129.3240  123.5950   59.8110 C   0  0  2  0  0  0  0  0  0  0  0  0
  130.4530  124.6050   59.4570 C   0  0  0  0  0  0  0  0  0  0  0  0
  130.1390  125.8030   58.9010 C   0  0  0  0  0  0  0  0  0  0  0  0
  128.7880  126.1190   58.2770 C   0  0  2  0  0  0  0  0  0  0  0  0
  128.8010  127.6380   58.1800 C   0  0  0  0  0  0  0  0  0  0  0  0
  130.2820  127.9600   57.8520 C   0  0  1  0  0  0  0  0  0  0  0  0
  130.6090  129.4960   57.8960 C   0  0  2  0  0  0  0  0  0  0  0  0
  132.1210  129.7520   57.6730 C   0  0  0  0  0  0  0  0  0  0  0  0
  130.1110  130.1840   59.1970 C   0  0  0  0  0  0  0  0  0  0  0  0
  130.5530  131.6550   59.3910 C   0  0  0  0  0  0  0  0  0  0  0  0
  129.5590  132.7410   58.8790 C   0  0  2  0  0  0  0  0  0  0  0  0
  128.0960  132.3930   59.2490 C   0  0  0  0  0  0  0  0  0  0  0  0
  129.7220  133.0270   57.3470 C   0  0  0  0  0  0  0  0  0  0  0  0
  128.7900  132.1730   56.4570 C   0  0  0  0  0  0  0  0  0  0  0  0
  131.1750  132.8610   56.8460 C   0  0  0  0  0  0  0  0  0  0  0  0
  131.0780  126.9980   58.8040 C   0  0  1  0  0  0  0  0  0  0  0  0
  131.2310  127.6310   60.2210 C   0  0  0  0  0  0  0  0  0  0  0  0
  132.4090  126.3740   58.2940 C   0  0  0  0  0  0  0  0  0  0  0  0
  132.9520  125.3190   59.2960 C   0  0  0  0  0  0  0  0  0  0  0  0
  131.9230  124.2140   59.7490 C   0  0  1  0  0  0  0  0  0  0  0  0
  127.6500  125.2620   58.8930 C   0  0  2  0  0  0  0  0  0  0  0  0
  126.3280  125.8240   59.3940 C   0  0  0  0  0  0  0  0  0  0  0  0
  125.7980  126.9090   59.1640 O   0  0  0  0  0  0  0  0  0  0  0  0
  125.7930  124.8930   60.2210 O   0  0  0  0  0  0  0  0  0  0  0  0
  126.7070  123.9360   60.5270 C   0  0  0  0  0  0  0  0  0  0  0  0
  126.3990  122.8450   61.0020 O   0  0  0  0  0  0  0  0  0  0  0  0
  128.0740  124.4770   60.1250 C   0  0  1  0  0  0  0  0  0  0  0  0
  130.3028  125.2106   67.7248 H   0  0  0  0  0  0  0  0  0  0  0  0
  129.5883  126.1791   66.3913 H   0  0  0  0  0  0  0  0  0  0  0  0
  129.4220  124.3906   66.3913 H   0  0  0  0  0  0  0  0  0  0  0  0
  132.1001  122.7670   65.1222 H   0  0  0  0  0  0  0  0  0  0  0  0
  133.7888  124.4060   64.1871 H   0  0  0  0  0  0  0  0  0  0  0  0
  133.7773  122.7665   63.4058 H   0  0  0  0  0  0  0  0  0  0  0  0
  132.5446  125.3359   62.2955 H   0  0  0  0  0  0  0  0  0  0  0  0
  134.0283  124.4397   61.6992 H   0  0  0  0  0  0  0  0  0  0  0  0
  133.1441  121.6792   61.8385 H   0  0  0  0  0  0  0  0  0  0  0  0
  132.2198  121.5012   60.3086 H   0  0  0  0  0  0  0  0  0  0  0  0
  133.8012  122.3532   60.3086 H   0  0  0  0  0  0  0  0  0  0  0  0
  130.3781  124.3242   62.1723 H   0  0  0  0  0  0  0  0  0  0  0  0
  129.9752  122.4609   63.7310 H   0  0  0  0  0  0  0  0  0  0  0  0
  131.4355  121.6205   63.0581 H   0  0  0  0  0  0  0  0  0  0  0  0
  130.2145  121.7575   60.5489 H   0  0  0  0  0  0  0  0  0  0  0  0
  128.8659  122.4288   61.5682 H   0  0  0  0  0  0  0  0  0  0  0  0
  129.0896  122.8988   58.9923 H   0  0  0  0  0  0  0  0  0  0  0  0
  128.5626  125.7906   57.2516 H   0  0  0  0  0  0  0  0  0  0  0  0
  128.1344  127.9877   57.3779 H   0  0  0  0  0  0  0  0  0  0  0  0
  128.4452  128.1316   59.0964 H   0  0  0  0  0  0  0  0  0  0  0  0
  130.5775  127.7662   56.8103 H   0  0  0  0  0  0  0  0  0  0  0  0
  130.0520  129.9566   57.0668 H   0  0  0  0  0  0  0  0  0  0  0  0
  132.6259  129.8375   58.6465 H   0  0  0  0  0  0  0  0  0  0  0  0
  132.5551  128.9146   57.1071 H   0  0  0  0  0  0  0  0  0  0  0  0
  132.2553  130.6857   57.1071 H   0  0  0  0  0  0  0  0  0  0  0  0
  129.0113  130.1595   59.1924 H   0  0  0  0  0  0  0  0  0  0  0  0
  130.5667  129.6226   60.0260 H   0  0  0  0  0  0  0  0  0  0  0  0
  130.7072  131.8208   60.4674 H   0  0  0  0  0  0  0  0  0  0  0  0
  131.4614  131.7742   58.7822 H   0  0  0  0  0  0  0  0  0  0  0  0
  129.8158  133.6761   59.3982 H   0  0  0  0  0  0  0  0  0  0  0  0
  127.9907  132.3679   60.3437 H   0  0  0  0  0  0  0  0  0  0  0  0
  127.4212  133.1557   58.8331 H   0  0  0  0  0  0  0  0  0  0  0  0
  127.8369  131.4082   58.8331 H   0  0  0  0  0  0  0  0  0  0  0  0
  129.4298  134.0830   57.2493 H   0  0  0  0  0  0  0  0  0  0  0  0
  128.1288  131.5671   57.0939 H   0  0  0  0  0  0  0  0  0  0  0  0
  128.1823  132.8343   55.8219 H   0  0  0  0  0  0  0  0  0  0  0  0
  129.3958  131.5099   55.8219 H   0  0  0  0  0  0  0  0  0  0  0  0
  131.8536  132.7835   57.7083 H   0  0  0  0  0  0  0  0  0  0  0  0
  131.2507  131.9484   56.2366 H   0  0  0  0  0  0  0  0  0  0  0  0
  131.4546  133.7330   56.2366 H   0  0  0  0  0  0  0  0  0  0  0  0
  131.0456  126.8639   60.9872 H   0  0  0  0  0  0  0  0  0  0  0  0
  132.2507  128.0268   60.3376 H   0  0  0  0  0  0  0  0  0  0  0  0
  130.5047  128.4488   60.3376 H   0  0  0  0  0  0  0  0  0  0  0  0
  132.2295  125.8886   57.3234 H   0  0  0  0  0  0  0  0  0  0  0  0
  133.1548  127.1762   58.1930 H   0  0  0  0  0  0  0  0  0  0  0  0
  133.8062  124.8121   58.8233 H   0  0  0  0  0  0  0  0  0  0  0  0
  133.2133  125.8772   60.2071 H   0  0  0  0  0  0  0  0  0  0  0  0
  132.1686  123.3757   59.0804 H   0  0  0  0  0  0  0  0  0  0  0  0
  127.4667  124.7421   57.9411 H   0  0  0  0  0  0  0  0  0  0  0  0
  128.5186  124.9552   61.0103 H   0  0  0  0  0  0  0  0  0  0  0  0
  1  2  1  0
  2  3  2  0
  2  4  1  0
  4  5  1  0
  5  6  1  0
  6  7  1  0
  7  8  1  0
  8  9  1  6
  8 10  1  0
 10 11  1  0
 10 12  1  0
 12 13  1  0
 13 14  1  0
 14 15  2  0
 15 16  1  0
 16 17  1  0
 17 18  1  0
 18 19  1  0
 19 20  1  0
 19 21  1  0
 21 22  1  0
 22 23  1  0
 23 24  1  0
 23 25  1  0
 25 26  1  0
 25 27  1  0
 18 28  1  0
 28 29  1  1
 28 30  1  0
 30 31  1  0
 31 32  1  0
 16 33  1  0
 33 34  1  0
 34 35  2  0
 34 36  1  0
 36 37  1  0
 37 38  2  0
 37 39  1  0
 11  5  1  0
 39 13  1  0
 32  8  1  0
 39 33  1  0
 32 14  1  0
 28 15  1  0
  1 40  1  0
  1 41  1  0
  1 42  1  0
  5 43  1  1
  6 44  1  0
  6 45  1  0
  7 46  1  0
  7 47  1  0
  9 48  1  0
  9 49  1  0
  9 50  1  0
 10 51  1  1
 11 52  1  0
 11 53  1  0
 12 54  1  0
 12 55  1  0
 13 56  1  6
 16 57  1  6
 17 58  1  0
 17 59  1  0
 18 60  1  6
 19 61  1  6
 20 62  1  0
 20 63  1  0
 20 64  1  0
 21 65  1  0
 21 66  1  0
 22 67  1  0
 22 68  1  0
 23 69  1  1
 24 70  1  0
 24 71  1  0
 24 72  1  0
 25 73  1  0
 26 74  1  0
 26 75  1  0
 26 76  1  0
 27 77  1  0
 27 78  1  0
 27 79  1  0
 29 80  1  0
 29 81  1  0
 29 82  1  0
 30 83  1  0
 30 84  1  0
 31 85  1  0
 31 86  1  0
 32 87  1  6
 33 88  1  6
 39 89  1  1
M  END
>  <Binding energies>  (1) 
[-8.87]

>  <Ligand effiencies>  (1) 
[-0.22743589743589743]

>  <Interactions>  (1) 
["V-A:ILE:369:CG2:3237, V-A:ASP:366:CA:3210, V-B:PRO:540:CA:9855, V-A:GLY:454:CA:4049, V-B:GLU:543:CB:9878, V-A:ILE:538:CB:4862, V-B:ASP:366:CG:8184, V-B:TYR:539:CE2:9848, V-A:TYR:484:CE2:4346, V-B:GLU:543:CG:9879, V-A:ASP:366:CG:3213, V-A:TYR:539:CD1:4873, V-A:LEU:363:CD1:3189, V-A:TYR:531:CE2:4793, H-B:ALA:541:N:9863, V-A:TYR:484:CZ:4347, V-B:PRO:540:CB:9857, V-A:HIS:456:CE1:4070, V-B:TYR:539:CD2:9846, V-A:TYR:531:CZ:4794, V-A:MET:535:CE:4835, V-A:TYR:539:C:4867, H-B:TYR:531:OH:9767, V-A:ASP:366:CB:3212, V-A:LEU:475:CD2:4259, V-A:PRO:540:N:4884, V-A:PRO:540:CB:4885, V-A:PRO:540:CA:4883, H-A:ARG:545:NE:4924, V-A:PRO:540:CD:4887, V-A:TYR:539:CE1:4875, H-A:TYR:484:OH:4348"]

$$$$
ZINC257348881
     RDKit          3D

 78 81  0  0  0  0  0  0  0  0999 V2000
  127.7830  127.1830   71.7650 C   0  0  0  0  0  0  0  0  0  0  0  0
  128.9110  126.9180   70.7490 C   0  0  0  0  0  0  0  0  0  0  0  0
  130.0170  127.9830   70.8730 C   0  0  0  0  0  0  0  0  0  0  0  0
  128.4010  126.8180   69.2910 C   0  0  0  0  0  0  0  0  0  0  0  0
  129.5000  126.9120   68.2120 C   0  0  0  0  0  0  0  0  0  0  0  0
  129.5150  125.6910   67.2660 C   0  0  0  0  0  0  0  0  0  0  0  0
  130.5300  125.7540   66.0900 C   0  0  1  0  0  0  0  0  0  0  0  0
  131.9700  125.4610   66.5850 C   0  0  0  0  0  0  0  0  0  0  0  0
  130.1560  124.8150   64.8890 C   0  0  2  0  0  0  0  0  0  0  0  0
  131.1050  123.5890   64.7620 C   0  0  0  0  0  0  0  0  0  0  0  0
  131.1750  123.2050   63.2770 C   0  0  0  0  0  0  0  0  0  0  0  0
  130.0930  124.0700   62.6270 C   0  0  2  0  0  0  0  0  0  0  0  0
  130.0690  124.2170   61.0770 C   0  0  2  0  0  0  0  0  0  0  0  0
  131.4340  124.4280   60.3690 C   0  0  0  0  0  0  0  0  0  0  0  0
  131.3080  124.6470   58.8400 C   0  0  2  0  0  0  0  0  0  0  0  0
  132.6750  124.8690   58.2300 N   0  0  0  0  0  0  0  0  0  0  0  0
  132.9380  125.9550   57.7200 O   0  0  0  0  0  0  0  0  0  0  0  0
  133.4680  123.9330   58.2750 O   0  0  0  0  0  0  0  0  0  0  0  0
  130.3030  125.7830   58.4560 C   0  0  1  0  0  0  0  0  0  0  0  0
  130.9260  127.3210   59.1630 Cl  0  0  0  0  0  0  0  0  0  0  0  0
  130.2160  126.0080   56.9060 C   0  0  0  0  0  0  0  0  0  0  0  0
  129.1130  126.9990   56.4280 C   0  0  2  0  0  0  0  0  0  0  0  0
  129.5200  128.3430   56.6120 O   0  0  0  0  0  0  0  0  0  0  0  0
  127.7490  126.7620   57.1180 C   0  0  0  0  0  0  0  0  0  0  0  0
  127.9070  126.5970   58.6450 C   0  0  0  0  0  0  0  0  0  0  0  0
  128.8700  125.4280   59.0340 C   0  0  1  0  0  0  0  0  0  0  0  0
  128.3180  124.0970   58.4110 C   0  0  0  0  0  0  0  0  0  0  0  0
  128.9320  125.2010   60.6010 C   0  0  2  0  0  0  0  0  0  0  0  0
  128.6900  126.4340   61.5360 C   0  0  0  0  0  0  0  0  0  0  0  0
  128.7780  126.1090   63.0460 C   0  0  0  0  0  0  0  0  0  0  0  0
  130.1060  125.4000   63.4330 C   0  0  1  0  0  0  0  0  0  0  0  0
  131.3410  126.3160   63.1670 C   0  0  0  0  0  0  0  0  0  0  0  0
  128.1802  127.0897   72.7865 H   0  0  0  0  0  0  0  0  0  0  0  0
  127.3872  128.1986   71.6168 H   0  0  0  0  0  0  0  0  0  0  0  0
  126.9764  126.4499   71.6168 H   0  0  0  0  0  0  0  0  0  0  0  0
  129.3342  125.9337   70.9981 H   0  0  0  0  0  0  0  0  0  0  0  0
  130.2201  128.1786   71.9362 H   0  0  0  0  0  0  0  0  0  0  0  0
  130.9333  127.6185   70.3857 H   0  0  0  0  0  0  0  0  0  0  0  0
  129.6874  128.9124   70.3857 H   0  0  0  0  0  0  0  0  0  0  0  0
  127.8882  125.8520   69.1736 H   0  0  0  0  0  0  0  0  0  0  0  0
  127.7396  127.6830   69.1348 H   0  0  0  0  0  0  0  0  0  0  0  0
  129.3282  127.8186   67.6132 H   0  0  0  0  0  0  0  0  0  0  0  0
  130.4704  126.9427   68.7290 H   0  0  0  0  0  0  0  0  0  0  0  0
  129.7519  124.8014   67.8681 H   0  0  0  0  0  0  0  0  0  0  0  0
  128.5197  125.6652   66.7984 H   0  0  0  0  0  0  0  0  0  0  0  0
  130.4833  126.7830   65.7040 H   0  0  0  0  0  0  0  0  0  0  0  0
  131.9861  125.4577   67.6849 H   0  0  0  0  0  0  0  0  0  0  0  0
  132.2936  124.4786   66.2106 H   0  0  0  0  0  0  0  0  0  0  0  0
  132.6518  126.2388   66.2106 H   0  0  0  0  0  0  0  0  0  0  0  0
  129.1255  124.5844   65.1969 H   0  0  0  0  0  0  0  0  0  0  0  0
  132.1082  123.8521   65.1287 H   0  0  0  0  0  0  0  0  0  0  0  0
  130.7283  122.7465   65.3606 H   0  0  0  0  0  0  0  0  0  0  0  0
  132.1657  123.4359   62.8585 H   0  0  0  0  0  0  0  0  0  0  0  0
  131.0198  122.1293   63.1072 H   0  0  0  0  0  0  0  0  0  0  0  0
  129.1308  123.5418   62.6990 H   0  0  0  0  0  0  0  0  0  0  0  0
  129.8060  123.2110   60.7180 H   0  0  0  0  0  0  0  0  0  0  0  0
  131.9218  125.3106   60.8084 H   0  0  0  0  0  0  0  0  0  0  0  0
  132.0218  123.5102   60.5178 H   0  0  0  0  0  0  0  0  0  0  0  0
  130.8779  123.7280   58.4152 H   0  0  0  0  0  0  0  0  0  0  0  0
  131.1880  126.3943   56.5655 H   0  0  0  0  0  0  0  0  0  0  0  0
  129.9486  125.0315   56.4759 H   0  0  0  0  0  0  0  0  0  0  0  0
  128.9748  126.8048   55.3541 H   0  0  0  0  0  0  0  0  0  0  0  0
  130.4710  128.3600   56.7370 H   0  0  0  0  0  0  0  0  0  0  0  0
  127.0931  127.6220   56.9176 H   0  0  0  0  0  0  0  0  0  0  0  0
  127.3150  125.8353   56.7143 H   0  0  0  0  0  0  0  0  0  0  0  0
  128.3069  127.5340   59.0598 H   0  0  0  0  0  0  0  0  0  0  0  0
  126.9149  126.3582   59.0558 H   0  0  0  0  0  0  0  0  0  0  0  0
  128.0314  123.4059   59.2174 H   0  0  0  0  0  0  0  0  0  0  0  0
  127.4383  124.3203   57.7895 H   0  0  0  0  0  0  0  0  0  0  0  0
  129.0975  123.6321   57.7895 H   0  0  0  0  0  0  0  0  0  0  0  0
  127.9913  124.6540   60.7618 H   0  0  0  0  0  0  0  0  0  0  0  0
  129.4460  127.1981   61.3025 H   0  0  0  0  0  0  0  0  0  0  0  0
  127.6633  126.7797   61.3454 H   0  0  0  0  0  0  0  0  0  0  0  0
  128.7032  127.0488   63.6127 H   0  0  0  0  0  0  0  0  0  0  0  0
  127.9534  125.4214   63.2854 H   0  0  0  0  0  0  0  0  0  0  0  0
  131.7732  126.6365   64.1264 H   0  0  0  0  0  0  0  0  0  0  0  0
  132.0952  125.7572   62.5935 H   0  0  0  0  0  0  0  0  0  0  0  0
  131.0252  127.2000   62.5935 H   0  0  0  0  0  0  0  0  0  0  0  0
  1  2  1  0
  2  3  1  0
  2  4  1  0
  4  5  1  0
  5  6  1  0
  6  7  1  0
  7  8  1  0
  7  9  1  0
  9 10  1  0
 10 11  1  0
 11 12  1  0
 12 13  1  0
 13 14  1  0
 14 15  1  0
 15 16  1  0
 16 17  2  0
 16 18  1  0
 15 19  1  0
 19 20  1  1
 19 21  1  0
 21 22  1  0
 22 23  1  0
 22 24  1  0
 24 25  1  0
 25 26  1  0
 26 27  1  6
 26 28  1  0
 28 29  1  0
 29 30  1  0
 30 31  1  0
 31 32  1  6
 31  9  1  0
 31 12  1  0
 28 13  1  0
 26 19  1  0
  1 33  1  0
  1 34  1  0
  1 35  1  0
  2 36  1  0
  3 37  1  0
  3 38  1  0
  3 39  1  0
  4 40  1  0
  4 41  1  0
  5 42  1  0
  5 43  1  0
  6 44  1  0
  6 45  1  0
  7 46  1  6
  8 47  1  0
  8 48  1  0
  8 49  1  0
  9 50  1  1
 10 51  1  0
 10 52  1  0
 11 53  1  0
 11 54  1  0
 12 55  1  1
 13 56  1  6
 14 57  1  0
 14 58  1  0
 15 59  1  6
 21 60  1  0
 21 61  1  0
 22 62  1  6
 23 63  1  0
 24 64  1  0
 24 65  1  0
 25 66  1  0
 25 67  1  0
 27 68  1  0
 27 69  1  0
 27 70  1  0
 28 71  1  1
 29 72  1  0
 29 73  1  0
 30 74  1  0
 30 75  1  0
 32 76  1  0
 32 77  1  0
 32 78  1  0
M  CHG  2  16   1  18  -1
M  END
>  <Binding energies>  (1) 
[-8.23]

>  <Ligand effiencies>  (1) 
[-0.24939393939393942]

>  <Interactions>  (1) 
["V-B:GLU:543:C:9874, V-B:HIS:456:CD2:9039, V-A:GLU:543:C:4902, V-B:GLU:543:CB:9878, H-A:TYR:531:OH:4795, V-A:TYR:484:CE2:4346, V-B:TYR:539:CE2:9848, V-B:GLU:543:CG:9879, V-A:ASP:366:CG:3213, V-B:TYR:539:CZ:9849, H-B:TYR:539:OH:9850, V-A:GLU:543:CD:4908, V-A:TYR:484:CZ:4347, V-B:HIS:456:CE1:9041, V-B:GLU:543:CA:9876, V-A:HIS:456:CE1:4070, V-B:GLY:544:C:9884, V-B:GLU:543:CD:9880, V-A:ASP:366:CB:3212, V-A:LEU:475:CD2:4259, V-A:ARG:545:CZ:4926"]

$$$$
ZINC257348943
     RDKit          3D

 75 78  0  0  0  0  0  0  0  0999 V2000
  129.9810  125.8300   64.1770 C   0  0  0  0  0  0  0  0  0  0  0  0
  130.7910  124.8940   65.0960 C   0  0  0  0  0  0  0  0  0  0  0  0
  129.9950  124.5650   66.3730 C   0  0  0  0  0  0  0  0  0  0  0  0
  132.1910  125.4540   65.4460 C   0  0  0  0  0  0  0  0  0  0  0  0
  133.3220  124.9980   64.5000 C   0  0  0  0  0  0  0  0  0  0  0  0
  132.8470  123.9900   63.4310 C   0  0  0  0  0  0  0  0  0  0  0  0
  133.7430  123.8680   62.1670 C   0  0  1  0  0  0  0  0  0  0  0  0
  134.6600  122.6220   62.2600 C   0  0  0  0  0  0  0  0  0  0  0  0
  132.9460  123.8680   60.8120 C   0  0  2  0  0  0  0  0  0  0  0  0
  133.8110  124.3550   59.6240 C   0  0  0  0  0  0  0  0  0  0  0  0
  132.8830  125.0430   58.6230 C   0  0  0  0  0  0  0  0  0  0  0  0
  131.4550  124.8240   59.1490 C   0  0  2  0  0  0  0  0  0  0  0  0
  130.3820  125.8760   58.7000 C   0  0  2  0  0  0  0  0  0  0  0  0
  130.3880  126.0450   57.1570 C   0  0  0  0  0  0  0  0  0  0  0  0
  129.3480  127.0700   56.6820 C   0  0  0  0  0  0  0  0  0  0  0  0
  129.5760  128.4360   57.3670 C   0  0  1  0  0  0  0  0  0  0  0  0
  128.6580  129.5440   56.7790 C   0  0  0  0  0  0  0  0  0  0  0  0
  128.9000  130.9300   57.4140 C   0  0  2  0  0  0  0  0  0  0  0  0
  130.6940  131.5560   56.7850 Br  0  0  0  0  0  0  0  0  0  0  0  0
  128.8790  130.8520   58.9610 C   0  0  2  0  0  0  0  0  0  0  0  0
  129.4870  132.5880   59.7360 Br  0  0  0  0  0  0  0  0  0  0  0  0
  129.7930  129.7350   59.5110 C   0  0  0  0  0  0  0  0  0  0  0  0
  129.4600  128.3200   58.9320 C   0  0  1  0  0  0  0  0  0  0  0  0
  128.0260  127.8880   59.3780 C   0  0  0  0  0  0  0  0  0  0  0  0
  130.5570  127.2720   59.3910 C   0  0  1  0  0  0  0  0  0  0  0  0
  130.6260  127.0710   60.9290 C   0  0  0  0  0  0  0  0  0  0  0  0
  131.7660  126.1200   61.3250 C   0  0  0  0  0  0  0  0  0  0  0  0
  131.6190  124.6990   60.6970 C   0  0  2  0  0  0  0  0  0  0  0  0
  130.3930  123.9370   61.2810 C   0  0  0  0  0  0  0  0  0  0  0  0
  129.3838  126.5201   64.7911 H   0  0  0  0  0  0  0  0  0  0  0  0
  130.6698  126.4066   63.5421 H   0  0  0  0  0  0  0  0  0  0  0  0
  129.3115  125.2312   63.5421 H   0  0  0  0  0  0  0  0  0  0  0  0
  130.9604  123.9652   64.5315 H   0  0  0  0  0  0  0  0  0  0  0  0
  130.6001  124.8151   67.2569 H   0  0  0  0  0  0  0  0  0  0  0  0
  129.0651  125.1525   66.3870 H   0  0  0  0  0  0  0  0  0  0  0  0
  129.7513  123.4924   66.3870 H   0  0  0  0  0  0  0  0  0  0  0  0
  132.1388  126.5523   65.4135 H   0  0  0  0  0  0  0  0  0  0  0  0
  132.4424  125.0624   66.4427 H   0  0  0  0  0  0  0  0  0  0  0  0
  133.7302  125.8830   63.9900 H   0  0  0  0  0  0  0  0  0  0  0  0
  134.0803  124.4913   65.1151 H   0  0  0  0  0  0  0  0  0  0  0  0
  132.7937  122.9980   63.9033 H   0  0  0  0  0  0  0  0  0  0  0  0
  131.8784  124.3696   63.0736 H   0  0  0  0  0  0  0  0  0  0  0  0
  134.3602  124.7784   62.1527 H   0  0  0  0  0  0  0  0  0  0  0  0
  134.8401  122.3773   63.3172 H   0  0  0  0  0  0  0  0  0  0  0  0
  134.1720  121.7698   61.7644 H   0  0  0  0  0  0  0  0  0  0  0  0
  135.6188  122.8345   61.7644 H   0  0  0  0  0  0  0  0  0  0  0  0
  132.6680  122.8040   60.7851 H   0  0  0  0  0  0  0  0  0  0  0  0
  134.5704  125.0664   59.9807 H   0  0  0  0  0  0  0  0  0  0  0  0
  134.3267  123.5066   59.1503 H   0  0  0  0  0  0  0  0  0  0  0  0
  133.1095  126.1180   58.5683 H   0  0  0  0  0  0  0  0  0  0  0  0
  133.0068  124.6317   57.6103 H   0  0  0  0  0  0  0  0  0  0  0  0
  131.0227  123.9174   58.7004 H   0  0  0  0  0  0  0  0  0  0  0  0
  129.4099  125.4764   59.0245 H   0  0  0  0  0  0  0  0  0  0  0  0
  131.3866  126.3812   56.8413 H   0  0  0  0  0  0  0  0  0  0  0  0
  130.1330  125.0729   56.7097 H   0  0  0  0  0  0  0  0  0  0  0  0
  129.4341  127.1935   55.5924 H   0  0  0  0  0  0  0  0  0  0  0  0
  128.3447  126.7046   56.9463 H   0  0  0  0  0  0  0  0  0  0  0  0
  130.6079  128.7474   57.1472 H   0  0  0  0  0  0  0  0  0  0  0  0
  128.8455  129.6167   55.6975 H   0  0  0  0  0  0  0  0  0  0  0  0
  127.6183  129.2595   56.9982 H   0  0  0  0  0  0  0  0  0  0  0  0
  128.1036  131.6271   57.1145 H   0  0  0  0  0  0  0  0  0  0  0  0
  127.8419  130.6276   59.2508 H   0  0  0  0  0  0  0  0  0  0  0  0
  130.8348  129.9798   59.2566 H   0  0  0  0  0  0  0  0  0  0  0  0
  129.6312  129.6880   60.5980 H   0  0  0  0  0  0  0  0  0  0  0  0
  127.9729  127.8720   60.4766 H   0  0  0  0  0  0  0  0  0  0  0  0
  127.2887  128.6039   58.9857 H   0  0  0  0  0  0  0  0  0  0  0  0
  127.8069  126.8840   58.9857 H   0  0  0  0  0  0  0  0  0  0  0  0
  131.5070  127.7210   59.0655 H   0  0  0  0  0  0  0  0  0  0  0  0
  130.7920  128.0466   61.4093 H   0  0  0  0  0  0  0  0  0  0  0  0
  129.6762  126.6261   61.2606 H   0  0  0  0  0  0  0  0  0  0  0  0
  132.7186  126.5552   60.9887 H   0  0  0  0  0  0  0  0  0  0  0  0
  131.7322  126.0023   62.4182 H   0  0  0  0  0  0  0  0  0  0  0  0
  130.4347  123.9629   62.3799 H   0  0  0  0  0  0  0  0  0  0  0  0
  129.4650  124.4177   60.9378 H   0  0  0  0  0  0  0  0  0  0  0  0
  130.4133  122.8921   60.9378 H   0  0  0  0  0  0  0  0  0  0  0  0
  1  2  1  0
  2  3  1  0
  2  4  1  0
  4  5  1  0
  5  6  1  0
  6  7  1  0
  7  8  1  0
  7  9  1  0
  9 10  1  0
 10 11  1  0
 11 12  1  0
 12 13  1  0
 13 14  1  0
 14 15  1  0
 15 16  1  0
 16 17  1  0
 17 18  1  0
 18 19  1  0
 18 20  1  0
 20 21  1  0
 20 22  1  0
 22 23  1  0
 23 24  1  6
 23 25  1  0
 25 26  1  0
 26 27  1  0
 27 28  1  0
 28 29  1  1
 28  9  1  0
 28 12  1  0
 25 13  1  0
 23 16  1  0
  1 30  1  0
  1 31  1  0
  1 32  1  0
  2 33  1  0
  3 34  1  0
  3 35  1  0
  3 36  1  0
  4 37  1  0
  4 38  1  0
  5 39  1  0
  5 40  1  0
  6 41  1  0
  6 42  1  0
  7 43  1  6
  8 44  1  0
  8 45  1  0
  8 46  1  0
  9 47  1  6
 10 48  1  0
 10 49  1  0
 11 50  1  0
 11 51  1  0
 12 52  1  6
 13 53  1  1
 14 54  1  0
 14 55  1  0
 15 56  1  0
 15 57  1  0
 16 58  1  1
 17 59  1  0
 17 60  1  0
 18 61  1  6
 20 62  1  1
 22 63  1  0
 22 64  1  0
 24 65  1  0
 24 66  1  0
 24 67  1  0
 25 68  1  6
 26 69  1  0
 26 70  1  0
 27 71  1  0
 27 72  1  0
 29 73  1  0
 29 74  1  0
 29 75  1  0
M  END
>  <Binding energies>  (1) 
[-7.93]

>  <Ligand effiencies>  (1) 
[-0.27344827586206893]

>  <Interactions>  (1) 
["V-A:ILE:369:CG2:3237, V-A:ASP:366:CA:3210, V-A:GLY:454:CA:4049, V-A:ILE:369:CB:3236, V-B:GLU:543:CB:9878, V-B:TYR:539:CE2:9848, V-A:TYR:484:CE2:4346, V-B:GLU:543:CG:9879, V-A:ASP:366:CG:3213, V-B:TYR:539:CZ:9849, V-A:GLU:543:CD:4908, V-A:TYR:484:CZ:4347, V-B:GLU:543:CA:9876, V-A:GLY:453:C:4042, V-A:ILE:369:CD1:3239, V-B:GLU:543:CD:9880, V-A:MET:535:CE:4835, V-A:TYR:539:C:4867, V-A:ASP:366:CB:3212, V-A:ARG:545:CZ:4926, V-A:PRO:540:N:4884, V-A:PRO:540:CA:4883"]

$$$$
ZINC257348951
     RDKit          3D

 79 83  0  0  0  0  0  0  0  0999 V2000
  129.7950  132.0420   60.9080 C   0  0  0  0  0  0  0  0  0  0  0  0
  129.0640  133.3200   60.4520 C   0  0  0  0  0  0  0  0  0  0  0  0
  127.9250  133.6720   61.4270 C   0  0  0  0  0  0  0  0  0  0  0  0
  128.5440  133.2290   58.9970 C   0  0  0  0  0  0  0  0  0  0  0  0
  129.6370  133.3470   57.9160 C   0  0  0  0  0  0  0  0  0  0  0  0
  129.2710  132.6060   56.6110 C   0  0  0  0  0  0  0  0  0  0  0  0
  128.6920  131.1740   56.7960 C   0  0  2  0  0  0  0  0  0  0  0  0
  127.1510  131.2180   56.9010 C   0  0  0  0  0  0  0  0  0  0  0  0
  129.3640  130.4450   58.0100 C   0  0  2  0  0  0  0  0  0  0  0  0
  130.9210  130.4560   57.9640 C   0  0  0  0  0  0  0  0  0  0  0  0
  131.4230  129.1700   58.6480 C   0  0  0  0  0  0  0  0  0  0  0  0
  130.1560  128.5710   59.2650 C   0  0  2  0  0  0  0  0  0  0  0  0
  130.1500  127.1200   59.8510 C   0  0  2  0  0  0  0  0  0  0  0  0
  131.0720  126.0910   59.1660 C   0  0  0  0  0  0  0  0  0  0  0  0
  131.1540  124.8100   60.0260 C   0  0  2  0  0  0  0  0  0  0  0  0
  131.9480  123.8040   59.3870 O   0  0  0  0  0  0  0  0  0  0  0  0
  133.2360  124.0240   59.0390 C   0  0  0  0  0  0  0  0  0  0  0  0
  133.6960  123.9690   57.8960 O   0  0  0  0  0  0  0  0  0  0  0  0
  134.0980  124.3620   60.2570 C   0  0  0  0  0  0  0  0  0  0  0  0
  133.9270  122.9820   61.6870 Br  0  0  0  0  0  0  0  0  0  0  0  0
  129.7390  124.2510   60.3860 C   0  0  2  0  0  0  0  0  0  0  0  0
  129.6670  122.8070   60.8830 C   0  0  0  0  0  0  0  0  0  0  0  0
  129.1000  123.1930   59.5270 C   0  0  1  0  0  0  0  0  0  0  0  0
  127.5880  123.4390   59.5050 C   0  0  0  0  0  0  0  0  0  0  0  0
  127.3030  124.4800   60.5950 C   0  0  0  0  0  0  0  0  0  0  0  0
  128.6260  125.2650   60.8270 C   0  0  1  0  0  0  0  0  0  0  0  0
  128.8040  125.6250   62.3240 C   0  0  0  0  0  0  0  0  0  0  0  0
  128.7030  126.5190   59.8810 C   0  0  1  0  0  0  0  0  0  0  0  0
  127.6900  127.6640   60.1560 C   0  0  0  0  0  0  0  0  0  0  0  0
  127.6320  128.6600   58.9640 C   0  0  0  0  0  0  0  0  0  0  0  0
  129.0160  128.9400   58.2750 C   0  0  1  0  0  0  0  0  0  0  0  0
  129.1050  128.1300   56.9420 C   0  0  0  0  0  0  0  0  0  0  0  0
  129.8166  132.0043   62.0071 H   0  0  0  0  0  0  0  0  0  0  0  0
  129.2655  131.1589   60.5211 H   0  0  0  0  0  0  0  0  0  0  0  0
  130.8247  132.0507   60.5211 H   0  0  0  0  0  0  0  0  0  0  0  0
  129.8051  134.1328   60.4657 H   0  0  0  0  0  0  0  0  0  0  0  0
  128.2811  133.5619   62.4619 H   0  0  0  0  0  0  0  0  0  0  0  0
  127.6054  134.7108   61.2577 H   0  0  0  0  0  0  0  0  0  0  0  0
  127.0750  132.9946   61.2577 H   0  0  0  0  0  0  0  0  0  0  0  0
  128.0416  132.2584   58.8723 H   0  0  0  0  0  0  0  0  0  0  0  0
  127.8694  134.0858   58.8530 H   0  0  0  0  0  0  0  0  0  0  0  0
  129.7891  134.4116   57.6848 H   0  0  0  0  0  0  0  0  0  0  0  0
  130.5499  132.8817   58.3161 H   0  0  0  0  0  0  0  0  0  0  0  0
  128.5213  133.2087   56.0774 H   0  0  0  0  0  0  0  0  0  0  0  0
  130.2140  132.4823   56.0583 H   0  0  0  0  0  0  0  0  0  0  0  0
  128.9341  130.5775   55.9040 H   0  0  0  0  0  0  0  0  0  0  0  0
  126.8558  131.2264   57.9606 H   0  0  0  0  0  0  0  0  0  0  0  0
  126.7757  132.1272   56.4086 H   0  0  0  0  0  0  0  0  0  0  0  0
  126.7245  130.3317   56.4086 H   0  0  0  0  0  0  0  0  0  0  0  0
  128.9248  131.0596   58.8096 H   0  0  0  0  0  0  0  0  0  0  0  0
  131.2640  130.4822   56.9192 H   0  0  0  0  0  0  0  0  0  0  0  0
  131.3138  131.3439   58.4811 H   0  0  0  0  0  0  0  0  0  0  0  0
  131.8651  128.4813   57.9130 H   0  0  0  0  0  0  0  0  0  0  0  0
  132.2107  129.3614   59.3916 H   0  0  0  0  0  0  0  0  0  0  0  0
  130.0211  129.0180   60.2610 H   0  0  0  0  0  0  0  0  0  0  0  0
  130.5564  127.2761   60.8612 H   0  0  0  0  0  0  0  0  0  0  0  0
  130.6668  125.8403   58.1746 H   0  0  0  0  0  0  0  0  0  0  0  0
  132.0787  126.5207   59.0563 H   0  0  0  0  0  0  0  0  0  0  0  0
  131.6464  125.0917   60.9684 H   0  0  0  0  0  0  0  0  0  0  0  0
  135.1506  124.4219   59.9433 H   0  0  0  0  0  0  0  0  0  0  0  0
  133.7532  125.3235   60.6651 H   0  0  0  0  0  0  0  0  0  0  0  0
  130.5812  122.1985   60.9464 H   0  0  0  0  0  0  0  0  0  0  0  0
  129.2758  122.3071   61.7813 H   0  0  0  0  0  0  0  0  0  0  0  0
  129.2315  122.7695   58.5203 H   0  0  0  0  0  0  0  0  0  0  0  0
  127.2793  123.8234   58.5217 H   0  0  0  0  0  0  0  0  0  0  0  0
  127.0298  122.5086   59.6862 H   0  0  0  0  0  0  0  0  0  0  0  0
  126.5091  125.1660   60.2647 H   0  0  0  0  0  0  0  0  0  0  0  0
  126.9644  123.9959   61.5229 H   0  0  0  0  0  0  0  0  0  0  0  0
  128.4021  124.8123   62.9469 H   0  0  0  0  0  0  0  0  0  0  0  0
  129.8732  125.7610   62.5438 H   0  0  0  0  0  0  0  0  0  0  0  0
  128.2630  126.5572   62.5438 H   0  0  0  0  0  0  0  0  0  0  0  0
  128.4170  126.1030   58.9037 H   0  0  0  0  0  0  0  0  0  0  0  0
  126.6910  127.2302   60.3103 H   0  0  0  0  0  0  0  0  0  0  0  0
  128.0172  128.2114   61.0523 H   0  0  0  0  0  0  0  0  0  0  0  0
  126.9490  128.2483   58.2063 H   0  0  0  0  0  0  0  0  0  0  0  0
  127.2908  129.6204   59.3777 H   0  0  0  0  0  0  0  0  0  0  0  0
  129.2225  127.0603   57.1701 H   0  0  0  0  0  0  0  0  0  0  0  0
  128.1848  128.2816   56.3587 H   0  0  0  0  0  0  0  0  0  0  0  0
  129.9703  128.4778   56.3587 H   0  0  0  0  0  0  0  0  0  0  0  0
  1  2  1  0
  2  3  1  0
  2  4  1  0
  4  5  1  0
  5  6  1  0
  6  7  1  0
  7  8  1  0
  7  9  1  0
  9 10  1  0
 10 11  1  0
 11 12  1  0
 12 13  1  0
 13 14  1  0
 14 15  1  0
 15 16  1  0
 16 17  1  0
 17 18  2  0
 17 19  1  0
 19 20  1  0
 15 21  1  0
 21 22  1  1
 22 23  1  0
 23 24  1  0
 24 25  1  0
 25 26  1  0
 26 27  1  1
 26 28  1  0
 28 29  1  0
 29 30  1  0
 30 31  1  0
 31 32  1  6
 31  9  1  0
 31 12  1  0
 28 13  1  0
 23 21  1  0
 26 21  1  0
  1 33  1  0
  1 34  1  0
  1 35  1  0
  2 36  1  0
  3 37  1  0
  3 38  1  0
  3 39  1  0
  4 40  1  0
  4 41  1  0
  5 42  1  0
  5 43  1  0
  6 44  1  0
  6 45  1  0
  7 46  1  6
  8 47  1  0
  8 48  1  0
  8 49  1  0
  9 50  1  1
 10 51  1  0
 10 52  1  0
 11 53  1  0
 11 54  1  0
 12 55  1  1
 13 56  1  1
 14 57  1  0
 14 58  1  0
 15 59  1  1
 19 60  1  0
 19 61  1  0
 22 62  1  0
 22 63  1  0
 23 64  1  6
 24 65  1  0
 24 66  1  0
 25 67  1  0
 25 68  1  0
 27 69  1  0
 27 70  1  0
 27 71  1  0
 28 72  1  6
 29 73  1  0
 29 74  1  0
 30 75  1  0
 30 76  1  0
 32 77  1  0
 32 78  1  0
 32 79  1  0
M  END
>  <Binding energies>  (1) 
[-7.75]

>  <Ligand effiencies>  (1) 
[-0.2421875]

>  <Interactions>  (1) 
["V-A:ILE:369:CG2:3237, V-A:ASP:366:CA:3210, V-B:PRO:540:CA:9855, V-A:ILE:369:CB:3236, V-A:PRO:540:C:4881, V-B:TYR:539:CE2:9848, V-A:ASP:366:CG:3213, V-A:TYR:539:CD1:4873, V-B:TYR:539:CZ:9849, V-A:TYR:539:CZ:4877, H-B:TYR:539:OH:9850, V-A:TYR:539:CA:4869, V-A:ILE:369:CD1:3239, V-B:TYR:539:CD2:9846, V-A:MET:535:CE:4835, V-B:GLU:543:CD:9880, V-A:TYR:539:C:4867, V-A:ASP:366:CB:3212, V-A:PRO:540:N:4884, V-A:TYR:539:CG:4872, V-A:PRO:540:CA:4883, V-A:PRO:540:CD:4887, V-A:TYR:539:CE1:4875"]

$$$$
ZINC257348958
     RDKit          3D

 81 84  0  0  0  0  0  0  0  0999 V2000
  127.6700  129.0220   63.7870 C   0  0  0  0  0  0  0  0  0  0  0  0
  127.5780  127.9020   62.7590 C   0  0  0  0  0  0  0  0  0  0  0  0
  126.4890  127.4910   62.3550 O   0  0  0  0  0  0  0  0  0  0  0  0
  128.7970  127.4560   62.3770 O   0  0  0  0  0  0  0  0  0  0  0  0
  129.0220  126.1020   61.9910 C   0  0  2  0  0  0  0  0  0  0  0  0
  127.9390  125.6640   60.9510 C   0  0  0  0  0  0  0  0  0  0  0  0
  127.8650  124.1190   60.6880 C   0  0  2  0  0  0  0  0  0  0  0  0
  126.6340  123.5650   61.4800 C   0  0  0  0  0  0  0  0  0  0  0  0
  129.1860  123.4370   61.1250 C   0  0  2  0  0  0  0  0  0  0  0  0
  129.1020  122.0140   60.5670 C   0  0  0  0  0  0  0  0  0  0  0  0
  128.3600  122.1840   59.2260 C   0  0  0  0  0  0  0  0  0  0  0  0
  127.7120  123.6030   59.2090 C   0  0  2  0  0  0  0  0  0  0  0  0
  128.1600  124.5060   58.0050 C   0  0  2  0  0  0  0  0  0  0  0  0
  127.5420  123.9930   56.6820 C   0  0  0  0  0  0  0  0  0  0  0  0
  129.6950  124.7360   57.8800 C   0  0  0  0  0  0  0  0  0  0  0  0
  130.2670  125.8630   58.7730 C   0  0  0  0  0  0  0  0  0  0  0  0
  131.8150  125.8690   58.9440 C   0  0  2  0  0  0  0  0  0  0  0  0
  132.5280  125.9550   57.5700 C   0  0  0  0  0  0  0  0  0  0  0  0
  132.3330  124.6590   59.7960 C   0  0  0  0  0  0  0  0  0  0  0  0
  132.6060  125.0190   61.2740 C   0  0  0  0  0  0  0  0  0  0  0  0
  133.5970  123.9950   59.2050 C   0  0  0  0  0  0  0  0  0  0  0  0
  129.6730  123.7210   62.5840 C   0  0  2  0  0  0  0  0  0  0  0  0
  129.4810  122.5760   63.5980 C   0  0  0  0  0  0  0  0  0  0  0  0
  130.2300  122.9100   64.9020 C   0  0  0  0  0  0  0  0  0  0  0  0
  129.7230  124.2420   65.4960 C   0  0  1  0  0  0  0  0  0  0  0  0
  130.2880  124.5250   66.9110 C   0  0  0  0  0  0  0  0  0  0  0  0
  129.6790  125.7950   67.5300 C   0  0  0  0  0  0  0  0  0  0  0  0
  129.6620  125.9840   68.7450 O   0  0  0  0  0  0  0  0  0  0  0  0
  129.1760  126.7980   66.5990 C   0  0  0  0  0  0  0  0  0  0  0  0
  129.2240  126.6620   65.2560 C   0  0  0  0  0  0  0  0  0  0  0  0
  129.8510  125.4700   64.5060 C   0  0  1  0  0  0  0  0  0  0  0  0
  131.3290  125.8650   64.2330 C   0  0  0  0  0  0  0  0  0  0  0  0
  129.1100  125.0720   63.1660 C   0  0  1  0  0  0  0  0  0  0  0  0
  127.6348  128.5940   64.7997 H   0  0  0  0  0  0  0  0  0  0  0  0
  128.6159  129.5669   63.6519 H   0  0  0  0  0  0  0  0  0  0  0  0
  126.8257  129.7140   63.6519 H   0  0  0  0  0  0  0  0  0  0  0  0
  130.0254  126.0875   61.5404 H   0  0  0  0  0  0  0  0  0  0  0  0
  126.9570  125.9957   61.3195 H   0  0  0  0  0  0  0  0  0  0  0  0
  128.2233  126.1273   59.9947 H   0  0  0  0  0  0  0  0  0  0  0  0
  126.8242  123.6506   62.5600 H   0  0  0  0  0  0  0  0  0  0  0  0
  125.7377  124.1465   61.2183 H   0  0  0  0  0  0  0  0  0  0  0  0
  126.4749  122.5085   61.2183 H   0  0  0  0  0  0  0  0  0  0  0  0
  130.0849  123.9013   60.6933 H   0  0  0  0  0  0  0  0  0  0  0  0
  130.1070  121.5962   60.4078 H   0  0  0  0  0  0  0  0  0  0  0  0
  128.5898  121.3203   61.2500 H   0  0  0  0  0  0  0  0  0  0  0  0
  129.0705  122.0882   58.3917 H   0  0  0  0  0  0  0  0  0  0  0  0
  127.5863  121.4097   59.1170 H   0  0  0  0  0  0  0  0  0  0  0  0
  126.6401  123.6120   58.9620 H   0  0  0  0  0  0  0  0  0  0  0  0
  127.7626  125.5074   58.2271 H   0  0  0  0  0  0  0  0  0  0  0  0
  126.7135  123.3052   56.9068 H   0  0  0  0  0  0  0  0  0  0  0  0
  127.1630  124.8457   56.0995 H   0  0  0  0  0  0  0  0  0  0  0  0
  128.3103  123.4635   56.0995 H   0  0  0  0  0  0  0  0  0  0  0  0
  130.2027  123.7979   58.1489 H   0  0  0  0  0  0  0  0  0  0  0  0
  129.8731  125.0497   56.8408 H   0  0  0  0  0  0  0  0  0  0  0  0
  129.9720  126.8265   58.3318 H   0  0  0  0  0  0  0  0  0  0  0  0
  129.8550  125.6878   59.7778 H   0  0  0  0  0  0  0  0  0  0  0  0
  132.0712  126.7747   59.5133 H   0  0  0  0  0  0  0  0  0  0  0  0
  133.6091  126.0854   57.7255 H   0  0  0  0  0  0  0  0  0  0  0  0
  132.3479  125.0286   57.0048 H   0  0  0  0  0  0  0  0  0  0  0  0
  132.1328  126.8120   57.0048 H   0  0  0  0  0  0  0  0  0  0  0  0
  131.5018  123.9395   59.7579 H   0  0  0  0  0  0  0  0  0  0  0  0
  132.0715  124.3141   61.9278 H   0  0  0  0  0  0  0  0  0  0  0  0
  133.6861  124.9568   61.4731 H   0  0  0  0  0  0  0  0  0  0  0  0
  132.2548  126.0422   61.4731 H   0  0  0  0  0  0  0  0  0  0  0  0
  134.2481  123.6530   60.0230 H   0  0  0  0  0  0  0  0  0  0  0  0
  133.3037  123.1346   58.5856 H   0  0  0  0  0  0  0  0  0  0  0  0
  134.1390  124.7248   58.5856 H   0  0  0  0  0  0  0  0  0  0  0  0
  130.7615  123.8124   62.4543 H   0  0  0  0  0  0  0  0  0  0  0  0
  128.4092  122.4529   63.8126 H   0  0  0  0  0  0  0  0  0  0  0  0
  129.8813  121.6426   63.1754 H   0  0  0  0  0  0  0  0  0  0  0  0
  130.0639  122.1030   65.6308 H   0  0  0  0  0  0  0  0  0  0  0  0
  131.3027  123.0075   64.6790 H   0  0  0  0  0  0  0  0  0  0  0  0
  128.6397  124.1077   65.6321 H   0  0  0  0  0  0  0  0  0  0  0  0
  130.0608  123.6681   67.5623 H   0  0  0  0  0  0  0  0  0  0  0  0
  131.3735  124.6778   66.8197 H   0  0  0  0  0  0  0  0  0  0  0  0
  128.7331  127.7158   67.0130 H   0  0  0  0  0  0  0  0  0  0  0  0
  128.7806  127.4654   64.6494 H   0  0  0  0  0  0  0  0  0  0  0  0
  131.8537  126.0052   65.1896 H   0  0  0  0  0  0  0  0  0  0  0  0
  131.8216  125.0670   63.6581 H   0  0  0  0  0  0  0  0  0  0  0  0
  131.3578  126.8024   63.6581 H   0  0  0  0  0  0  0  0  0  0  0  0
  128.0755  125.0021   63.5334 H   0  0  0  0  0  0  0  0  0  0  0  0
  1  2  1  0
  2  3  2  0
  2  4  1  0
  4  5  1  0
  5  6  1  0
  6  7  1  0
  7  8  1  1
  7  9  1  0
  9 10  1  0
 10 11  1  0
 11 12  1  0
 12 13  1  0
 13 14  1  0
 13 15  1  0
 15 16  1  0
 16 17  1  0
 17 18  1  0
 17 19  1  0
 19 20  1  0
 19 21  1  0
  9 22  1  0
 22 23  1  0
 23 24  1  0
 24 25  1  0
 25 26  1  0
 26 27  1  0
 27 28  2  0
 27 29  1  0
 29 30  2  0
 30 31  1  0
 31 32  1  6
 31 33  1  0
 33  5  1  0
 12  7  1  0
 33 22  1  0
 31 25  1  0
  1 34  1  0
  1 35  1  0
  1 36  1  0
  5 37  1  6
  6 38  1  0
  6 39  1  0
  8 40  1  0
  8 41  1  0
  8 42  1  0
  9 43  1  6
 10 44  1  0
 10 45  1  0
 11 46  1  0
 11 47  1  0
 12 48  1  6
 13 49  1  1
 14 50  1  0
 14 51  1  0
 14 52  1  0
 15 53  1  0
 15 54  1  0
 16 55  1  0
 16 56  1  0
 17 57  1  1
 18 58  1  0
 18 59  1  0
 18 60  1  0
 19 61  1  0
 20 62  1  0
 20 63  1  0
 20 64  1  0
 21 65  1  0
 21 66  1  0
 21 67  1  0
 22 68  1  6
 23 69  1  0
 23 70  1  0
 24 71  1  0
 24 72  1  0
 25 73  1  1
 26 74  1  0
 26 75  1  0
 29 76  1  0
 30 77  1  0
 32 78  1  0
 32 79  1  0
 32 80  1  0
 33 81  1  1
M  END
>  <Binding energies>  (1) 
[-7.96]

>  <Ligand effiencies>  (1) 
[-0.2412121212121212]

>  <Interactions>  (1) 
["V-A:ILE:369:CG2:3237, V-A:ASP:366:CA:3210, V-B:PRO:540:CA:9855, V-A:ILE:369:CB:3236, V-B:GLU:543:CB:9878, V-B:ALA:541:CB:9864, V-B:TYR:539:CE2:9848, V-A:TYR:484:CE2:4346, V-B:GLU:543:CG:9879, V-B:TYR:539:C:9839, V-A:ASP:366:CG:3213, V-B:TYR:539:CZ:9849, V-A:GLU:543:CD:4908, V-A:TYR:484:CZ:4347, V-B:PRO:540:CB:9857, V-B:PRO:540:N:9856, V-A:HIS:456:CE1:4070, V-A:ASP:366:C:3208, V-B:TYR:539:CD2:9846, V-A:TYR:531:CZ:4794, V-B:GLU:543:CD:9880, V-A:ASP:366:CB:3212, V-A:LEU:475:CD2:4259, V-A:ARG:545:CZ:4926, V-B:TYR:539:CG:9844, H-B:ARG:545:NH2:9900"]

$$$$
ZINC257349198
     RDKit          3D

 75 78  0  0  0  0  0  0  0  0999 V2000
  130.2030  132.2160   63.0050 C   0  0  0  0  0  0  0  0  0  0  0  0
  128.7360  132.5670   63.3150 C   0  0  0  0  0  0  0  0  0  0  0  0
  127.9570  131.3110   63.7520 C   0  0  0  0  0  0  0  0  0  0  0  0
  128.0820  133.2990   62.1130 C   0  0  0  0  0  0  0  0  0  0  0  0
  127.9210  132.4810   60.8130 C   0  0  0  0  0  0  0  0  0  0  0  0
  128.2870  133.2450   59.5250 C   0  0  0  0  0  0  0  0  0  0  0  0
  129.1250  132.4630   58.4720 C   0  0  1  0  0  0  0  0  0  0  0  0
  128.7680  133.0280   57.0760 C   0  0  0  0  0  0  0  0  0  0  0  0
  130.6720  132.4120   58.8190 C   0  0  2  0  0  0  0  0  0  0  0  0
  131.6320  132.6770   57.6370 C   0  0  0  0  0  0  0  0  0  0  0  0
  131.9110  131.3050   57.0350 C   0  0  0  0  0  0  0  0  0  0  0  0
  131.8830  130.3170   58.2190 C   0  0  2  0  0  0  0  0  0  0  0  0
  131.2640  128.9210   57.9050 C   0  0  2  0  0  0  0  0  0  0  0  0
  129.8330  128.8470   57.3000 C   0  0  0  0  0  0  0  0  0  0  0  0
  129.3930  127.3910   57.0360 C   0  0  0  0  0  0  0  0  0  0  0  0
  129.4860  126.5060   58.3130 C   0  0  1  0  0  0  0  0  0  0  0  0
  128.9610  125.0520   58.1110 C   0  0  2  0  0  0  0  0  0  0  0  0
  127.0500  125.1010   57.5220 Br  0  0  0  0  0  0  0  0  0  0  0  0
  129.0560  124.1710   59.3860 C   0  0  2  0  0  0  0  0  0  0  0  0
  127.7620  124.8370   60.7620 Br  0  0  0  0  0  0  0  0  0  0  0  0
  130.4540  124.2220   60.0420 C   0  0  0  0  0  0  0  0  0  0  0  0
  130.9460  125.6760   60.2220 C   0  0  0  0  0  0  0  0  0  0  0  0
  130.9490  126.5090   58.8970 C   0  0  1  0  0  0  0  0  0  0  0  0
  131.9730  125.8740   57.9010 C   0  0  0  0  0  0  0  0  0  0  0  0
  131.3200  128.0180   59.1700 C   0  0  2  0  0  0  0  0  0  0  0  0
  130.7040  128.6930   60.4360 C   0  0  0  0  0  0  0  0  0  0  0  0
  130.3420  130.1990   60.3290 C   0  0  0  0  0  0  0  0  0  0  0  0
  131.2790  131.0890   59.4460 C   0  0  2  0  0  0  0  0  0  0  0  0
  132.4430  131.4920   60.4020 C   0  0  0  0  0  0  0  0  0  0  0  0
  130.7553  132.0838   63.9470 H   0  0  0  0  0  0  0  0  0  0  0  0
  130.2418  131.2832   62.4233 H   0  0  0  0  0  0  0  0  0  0  0  0
  130.6598  133.0302   62.4233 H   0  0  0  0  0  0  0  0  0  0  0  0
  128.7044  133.2668   64.1631 H   0  0  0  0  0  0  0  0  0  0  0  0
  127.9267  131.2621   64.8505 H   0  0  0  0  0  0  0  0  0  0  0  0
  126.9309  131.3606   63.3587 H   0  0  0  0  0  0  0  0  0  0  0  0
  128.4574  130.4138   63.3587 H   0  0  0  0  0  0  0  0  0  0  0  0
  127.0805  133.6282   62.4269 H   0  0  0  0  0  0  0  0  0  0  0  0
  128.7728  134.1164   61.8590 H   0  0  0  0  0  0  0  0  0  0  0  0
  128.5693  131.5951   60.8825 H   0  0  0  0  0  0  0  0  0  0  0  0
  126.8533  132.2288   60.7334 H   0  0  0  0  0  0  0  0  0  0  0  0
  127.3489  133.5562   59.0422 H   0  0  0  0  0  0  0  0  0  0  0  0
  128.9289  134.0768   59.8506 H   0  0  0  0  0  0  0  0  0  0  0  0
  128.8614  131.3951   58.4805 H   0  0  0  0  0  0  0  0  0  0  0  0
  128.1838  133.9526   57.1931 H   0  0  0  0  0  0  0  0  0  0  0  0
  129.6925  133.2462   56.5214 H   0  0  0  0  0  0  0  0  0  0  0  0
  128.1740  132.2867   56.5214 H   0  0  0  0  0  0  0  0  0  0  0  0
  130.6352  133.2165   59.5683 H   0  0  0  0  0  0  0  0  0  0  0  0
  131.1573  133.3350   56.8943 H   0  0  0  0  0  0  0  0  0  0  0  0
  132.5552  133.1796   57.9613 H   0  0  0  0  0  0  0  0  0  0  0  0
  131.1361  131.0441   56.2992 H   0  0  0  0  0  0  0  0  0  0  0  0
  132.8766  131.2810   56.5086 H   0  0  0  0  0  0  0  0  0  0  0  0
  132.9058  129.9999   58.4706 H   0  0  0  0  0  0  0  0  0  0  0  0
  131.9042  128.5697   57.0823 H   0  0  0  0  0  0  0  0  0  0  0  0
  129.1254  129.3102   58.0034 H   0  0  0  0  0  0  0  0  0  0  0  0
  129.8423  129.3796   56.3376 H   0  0  0  0  0  0  0  0  0  0  0  0
  128.3512  127.3946   56.6830 H   0  0  0  0  0  0  0  0  0  0  0  0
  130.0709  126.9658   56.2813 H   0  0  0  0  0  0  0  0  0  0  0  0
  128.8100  126.9660   59.0488 H   0  0  0  0  0  0  0  0  0  0  0  0
  129.6097  124.5984   57.3472 H   0  0  0  0  0  0  0  0  0  0  0  0
  128.8380  123.1415   59.0655 H   0  0  0  0  0  0  0  0  0  0  0  0
  130.4032  123.7378   61.0284 H   0  0  0  0  0  0  0  0  0  0  0  0
  131.1623  123.6985   59.3830 H   0  0  0  0  0  0  0  0  0  0  0  0
  130.2875  126.1781   60.9461 H   0  0  0  0  0  0  0  0  0  0  0  0
  131.9883  125.6215   60.5692 H   0  0  0  0  0  0  0  0  0  0  0  0
  132.7747  125.3768   58.4667 H   0  0  0  0  0  0  0  0  0  0  0  0
  131.4591  125.1359   57.2677 H   0  0  0  0  0  0  0  0  0  0  0  0
  132.4057  126.6625   57.2677 H   0  0  0  0  0  0  0  0  0  0  0  0
  132.3801  127.9280   59.4496 H   0  0  0  0  0  0  0  0  0  0  0  0
  129.7823  128.1476   60.6870 H   0  0  0  0  0  0  0  0  0  0  0  0
  131.4955  128.6440   61.1983 H   0  0  0  0  0  0  0  0  0  0  0  0
  129.3267  130.2684   59.9114 H   0  0  0  0  0  0  0  0  0  0  0  0
  130.4484  130.5939   61.3501 H   0  0  0  0  0  0  0  0  0  0  0  0
  132.1159  131.3787   61.4461 H   0  0  0  0  0  0  0  0  0  0  0  0
  133.3110  130.8421   60.2172 H   0  0  0  0  0  0  0  0  0  0  0  0
  132.7233  132.5395   60.2172 H   0  0  0  0  0  0  0  0  0  0  0  0
  1  2  1  0
  2  3  1  0
  2  4  1  0
  4  5  1  0
  5  6  1  0
  6  7  1  0
  7  8  1  0
  7  9  1  0
  9 10  1  0
 10 11  1  0
 11 12  1  0
 12 13  1  0
 13 14  1  0
 14 15  1  0
 15 16  1  0
 16 17  1  0
 17 18  1  0
 17 19  1  0
 19 20  1  0
 19 21  1  0
 21 22  1  0
 22 23  1  0
 23 24  1  6
 23 25  1  0
 25 26  1  0
 26 27  1  0
 27 28  1  0
 28 29  1  1
 28  9  1  0
 28 12  1  0
 25 13  1  0
 23 16  1  0
  1 30  1  0
  1 31  1  0
  1 32  1  0
  2 33  1  0
  3 34  1  0
  3 35  1  0
  3 36  1  0
  4 37  1  0
  4 38  1  0
  5 39  1  0
  5 40  1  0
  6 41  1  0
  6 42  1  0
  7 43  1  6
  8 44  1  0
  8 45  1  0
  8 46  1  0
  9 47  1  1
 10 48  1  0
 10 49  1  0
 11 50  1  0
 11 51  1  0
 12 52  1  1
 13 53  1  6
 14 54  1  0
 14 55  1  0
 15 56  1  0
 15 57  1  0
 16 58  1  1
 17 59  1  6
 19 60  1  6
 21 61  1  0
 21 62  1  0
 22 63  1  0
 22 64  1  0
 24 65  1  0
 24 66  1  0
 24 67  1  0
 25 68  1  1
 26 69  1  0
 26 70  1  0
 27 71  1  0
 27 72  1  0
 29 73  1  0
 29 74  1  0
 29 75  1  0
M  END
>  <Binding energies>  (1) 
[-8.28]

>  <Ligand effiencies>  (1) 
[-0.28551724137931034]

>  <Interactions>  (1) 
["V-A:PRO:540:CG:4886, V-B:TYR:539:CE2:9848, V-B:LEU:475:CD2:9230, V-A:ASP:366:CG:3213, V-A:TYR:539:CD1:4873, V-A:LEU:363:CD1:3189, V-B:TYR:539:CZ:9849, V-A:TYR:531:CE2:4793, V-A:ALA:541:CB:4892, V-A:GLU:543:CD:4908, V-A:ALA:541:CA:4890, V-A:GLU:543:CG:4907, V-A:TYR:531:CZ:4794, V-A:MET:535:CE:4835, V-A:TYR:539:C:4867, V-A:ASP:366:CB:3212, V-A:PRO:540:N:4884, V-A:TYR:539:CG:4872, V-A:PRO:540:CB:4885, V-A:PRO:540:CA:4883, V-A:PRO:540:CD:4887, V-A:TYR:539:CE1:4875"]

$$$$
ZINC257349202
     RDKit          3D

 83 87  0  0  0  0  0  0  0  0999 V2000
  127.7130  133.2270   62.5650 C   0  0  0  0  0  0  0  0  0  0  0  0
  128.5660  132.2840   63.4030 C   0  0  0  0  0  0  0  0  0  0  0  0
  128.3600  132.1330   64.6090 O   0  0  0  0  0  0  0  0  0  0  0  0
  129.5240  131.6700   62.6710 O   0  0  0  0  0  0  0  0  0  0  0  0
  129.3610  130.3340   62.1950 C   0  0  2  0  0  0  0  0  0  0  0  0
  129.2970  130.2680   60.6610 C   0  0  0  0  0  0  0  0  0  0  0  0
  129.1650  128.8010   60.2120 C   0  0  0  0  0  0  0  0  0  0  0  0
  127.9310  128.0150   60.7860 C   0  0  2  0  0  0  0  0  0  0  0  0
  126.6520  128.5920   60.1130 C   0  0  0  0  0  0  0  0  0  0  0  0
  127.8550  128.2460   62.3660 C   0  0  1  0  0  0  0  0  0  0  0  0
  126.5830  127.9290   62.9230 O   0  0  0  0  0  0  0  0  0  0  0  0
  128.9140  127.3430   63.0790 C   0  0  0  0  0  0  0  0  0  0  0  0
  128.7370  125.8320   62.8370 C   0  0  0  0  0  0  0  0  0  0  0  0
  129.2920  125.0060   63.5570 O   0  0  0  0  0  0  0  0  0  0  0  0
  127.8080  125.4750   61.6510 C   0  0  2  0  0  0  0  0  0  0  0  0
  127.7350  123.9880   61.1820 C   0  0  2  0  0  0  0  0  0  0  0  0
  127.4630  122.9370   62.2720 C   0  0  0  0  0  0  0  0  0  0  0  0
  128.7380  122.0970   62.3970 C   0  0  0  0  0  0  0  0  0  0  0  0
  129.7840  122.6500   61.3980 C   0  0  1  0  0  0  0  0  0  0  0  0
  130.7910  121.5490   60.9020 C   0  0  2  0  0  0  0  0  0  0  0  0
  130.2710  120.1290   61.2470 C   0  0  0  0  0  0  0  0  0  0  0  0
  132.2390  121.7470   61.4330 C   0  0  0  0  0  0  0  0  0  0  0  0
  133.2270  122.4520   60.4710 C   0  0  0  0  0  0  0  0  0  0  0  0
  132.8820  123.9260   60.0970 C   0  0  2  0  0  0  0  0  0  0  0  0
  133.5250  124.3380   58.7490 C   0  0  0  0  0  0  0  0  0  0  0  0
  133.2350  124.9300   61.2480 C   0  0  0  0  0  0  0  0  0  0  0  0
  134.2140  124.3500   62.2940 C   0  0  0  0  0  0  0  0  0  0  0  0
  131.9910  125.4810   61.9810 C   0  0  0  0  0  0  0  0  0  0  0  0
  128.9330  123.4440   60.3430 C   0  0  1  0  0  0  0  0  0  0  0  0
  128.3590  122.4880   59.2570 C   0  0  0  0  0  0  0  0  0  0  0  0
  129.7190  124.5810   59.6060 C   0  0  0  0  0  0  0  0  0  0  0  0
  129.0840  125.9820   59.4540 C   0  0  1  0  0  0  0  0  0  0  0  0
  127.7120  126.0620   59.1800 O   0  0  0  0  0  0  0  0  0  0  0  0
  128.0820  126.4590   60.4860 C   0  0  2  0  0  0  0  0  0  0  0  0
  128.0690  129.7360   62.7760 C   0  0  0  0  0  0  0  0  0  0  0  0
  127.1248  133.8773   63.2292 H   0  0  0  0  0  0  0  0  0  0  0  0
  128.3651  133.8449   61.9303 H   0  0  0  0  0  0  0  0  0  0  0  0
  127.0330  132.6399   61.9303 H   0  0  0  0  0  0  0  0  0  0  0  0
  130.2387  129.7578   62.5231 H   0  0  0  0  0  0  0  0  0  0  0  0
  128.4265  130.8392   60.3060 H   0  0  0  0  0  0  0  0  0  0  0  0
  130.2170  130.6980   60.2382 H   0  0  0  0  0  0  0  0  0  0  0  0
  129.0906  128.7900   59.1146 H   0  0  0  0  0  0  0  0  0  0  0  0
  130.0542  128.2880   60.6071 H   0  0  0  0  0  0  0  0  0  0  0  0
  125.9418  128.9124   60.8895 H   0  0  0  0  0  0  0  0  0  0  0  0
  126.9244  129.4544   59.4869 H   0  0  0  0  0  0  0  0  0  0  0  0
  126.1857  127.8170   59.4869 H   0  0  0  0  0  0  0  0  0  0  0  0
  126.5670  126.9920   63.1320 H   0  0  0  0  0  0  0  0  0  0  0  0
  129.9115  127.6336   62.7176 H   0  0  0  0  0  0  0  0  0  0  0  0
  128.7825  127.5027   64.1594 H   0  0  0  0  0  0  0  0  0  0  0  0
  126.7902  125.5962   62.0502 H   0  0  0  0  0  0  0  0  0  0  0  0
  126.8548  124.0972   60.5314 H   0  0  0  0  0  0  0  0  0  0  0  0
  127.2388  123.4315   63.2287 H   0  0  0  0  0  0  0  0  0  0  0  0
  126.5981  122.3094   62.0112 H   0  0  0  0  0  0  0  0  0  0  0  0
  129.1300  122.1662   63.4224 H   0  0  0  0  0  0  0  0  0  0  0  0
  128.5206  121.0422   62.1732 H   0  0  0  0  0  0  0  0  0  0  0  0
  130.5146  123.3491   61.8311 H   0  0  0  0  0  0  0  0  0  0  0  0
  130.8463  121.6583   59.8088 H   0  0  0  0  0  0  0  0  0  0  0  0
  130.2274  120.0099   62.3397 H   0  0  0  0  0  0  0  0  0  0  0  0
  129.2650  119.9939   60.8230 H   0  0  0  0  0  0  0  0  0  0  0  0
  130.9518  119.3762   60.8230 H   0  0  0  0  0  0  0  0  0  0  0  0
  132.1804  122.3466   62.3533 H   0  0  0  0  0  0  0  0  0  0  0  0
  132.6412  120.7337   61.5792 H   0  0  0  0  0  0  0  0  0  0  0  0
  134.2193  122.4486   60.9457 H   0  0  0  0  0  0  0  0  0  0  0  0
  133.1772  121.8873   59.5283 H   0  0  0  0  0  0  0  0  0  0  0  0
  131.7910  123.9752   59.9653 H   0  0  0  0  0  0  0  0  0  0  0  0
  134.4369  124.9223   58.9412 H   0  0  0  0  0  0  0  0  0  0  0  0
  133.7818  123.4359   58.1744 H   0  0  0  0  0  0  0  0  0  0  0  0
  132.8127  124.9483   58.1744 H   0  0  0  0  0  0  0  0  0  0  0  0
  133.7337  125.7587   60.7240 H   0  0  0  0  0  0  0  0  0  0  0  0
  133.8424  124.5701   63.3057 H   0  0  0  0  0  0  0  0  0  0  0  0
  134.2904  123.2608   62.1604 H   0  0  0  0  0  0  0  0  0  0  0  0
  135.2060  124.8063   62.1604 H   0  0  0  0  0  0  0  0  0  0  0  0
  132.1456  125.4125   63.0679 H   0  0  0  0  0  0  0  0  0  0  0  0
  131.8347  126.5325   61.6984 H   0  0  0  0  0  0  0  0  0  0  0  0
  131.1073  124.8901   61.6984 H   0  0  0  0  0  0  0  0  0  0  0  0
  127.8513  121.6425   59.7441 H   0  0  0  0  0  0  0  0  0  0  0  0
  127.6400  123.0353   58.6297 H   0  0  0  0  0  0  0  0  0  0  0  0
  129.1800  122.1106   58.6297 H   0  0  0  0  0  0  0  0  0  0  0  0
  130.6652  124.7179   60.1500 H   0  0  0  0  0  0  0  0  0  0  0  0
  129.7816  124.2165   58.5700 H   0  0  0  0  0  0  0  0  0  0  0  0
  130.0089  126.3841   59.0148 H   0  0  0  0  0  0  0  0  0  0  0  0
  127.2145  130.3264   62.4138 H   0  0  0  0  0  0  0  0  0  0  0  0
  128.1524  129.7692   63.8723 H   0  0  0  0  0  0  0  0  0  0  0  0
  1  2  1  0
  2  3  2  0
  2  4  1  0
  4  5  1  0
  5  6  1  0
  6  7  1  0
  7  8  1  0
  8  9  1  6
  8 10  1  0
 10 11  1  1
 10 12  1  0
 12 13  1  0
 13 14  2  0
 13 15  1  0
 15 16  1  0
 16 17  1  0
 17 18  1  0
 18 19  1  0
 19 20  1  0
 20 21  1  0
 20 22  1  0
 22 23  1  0
 23 24  1  0
 24 25  1  0
 24 26  1  0
 26 27  1  0
 26 28  1  0
 19 29  1  0
 29 30  1  6
 29 31  1  0
 31 32  1  0
 32 33  1  0
 34 33  1  6
 10 35  1  0
 35  5  1  0
 34  8  1  0
 34 15  1  0
 29 16  1  0
 34 32  1  0
  1 36  1  0
  1 37  1  0
  1 38  1  0
  5 39  1  1
  6 40  1  0
  6 41  1  0
  7 42  1  0
  7 43  1  0
  9 44  1  0
  9 45  1  0
  9 46  1  0
 11 47  1  0
 12 48  1  0
 12 49  1  0
 15 50  1  1
 16 51  1  6
 17 52  1  0
 17 53  1  0
 18 54  1  0
 18 55  1  0
 19 56  1  1
 20 57  1  6
 21 58  1  0
 21 59  1  0
 21 60  1  0
 22 61  1  0
 22 62  1  0
 23 63  1  0
 23 64  1  0
 24 65  1  6
 25 66  1  0
 25 67  1  0
 25 68  1  0
 26 69  1  0
 27 70  1  0
 27 71  1  0
 27 72  1  0
 28 73  1  0
 28 74  1  0
 28 75  1  0
 30 76  1  0
 30 77  1  0
 30 78  1  0
 31 79  1  0
 31 80  1  0
 32 81  1  6
 35 82  1  0
 35 83  1  0
M  END
>  <Binding energies>  (1) 
[-7.71]

>  <Ligand effiencies>  (1) 
[-0.21416666666666667]

>  <Interactions>  (1) 
["V-A:ILE:369:CG2:3237, V-A:ASP:366:CA:3210, V-B:PRO:540:CA:9855, V-A:ILE:369:CB:3236, V-B:ALA:541:CB:9864, V-B:ASP:366:CG:8184, V-B:TYR:539:CE2:9848, V-B:GLU:543:CG:9879, V-B:LEU:475:CD2:9230, V-B:TYR:539:C:9839, V-A:ASP:366:CG:3213, H-B:GLU:543:OE1:9881, V-A:ALA:541:CB:4892, V-A:GLU:543:CD:4908, H-B:TYR:484:OH:9319, V-B:PRO:540:N:9856, V-A:ILE:369:CD1:3239, V-A:ASP:366:C:3208, V-B:TYR:539:CD2:9846, V-B:GLU:543:CD:9880, V-A:ASP:366:CB:3212, V-A:LEU:475:CD2:4259, H-B:ARG:545:NH2:9900, H-B:GLU:543:OE2:9882, V-B:PRO:540:C:9853, V-B:ALA:541:CA:9862"]

$$$$
ZINC257350038
     RDKit          3D

101105  0  0  0  0  0  0  0  0999 V2000
  133.5520  123.5340   61.0510 C   0  0  0  0  0  0  0  0  0  0  0  0
  133.0060  123.4190   59.7450 O   0  0  0  0  0  0  0  0  0  0  0  0
  132.7680  124.5170   58.9950 C   0  0  0  0  0  0  0  0  0  0  0  0
  133.2570  124.7290   57.8820 O   0  0  0  0  0  0  0  0  0  0  0  0
  131.7600  125.5030   59.6450 C   0  0  2  0  0  0  0  0  0  0  0  0
  130.8000  124.8370   60.4890 O   0  0  0  0  0  0  0  0  0  0  0  0
  129.7850  124.1080   59.8260 C   0  0  1  0  0  0  0  0  0  0  0  0
  128.9320  123.4770   60.7410 O   0  0  0  0  0  0  0  0  0  0  0  0
  128.7330  124.0900   62.0180 C   0  0  2  0  0  0  0  0  0  0  0  0
  128.5140  125.6110   61.8550 C   0  0  0  0  0  0  0  0  0  0  0  0
  128.4000  126.2950   63.2410 C   0  0  0  0  0  0  0  0  0  0  0  0
  129.6300  126.0420   64.1830 C   0  0  2  0  0  0  0  0  0  0  0  0
  130.8930  126.6830   63.5240 C   0  0  0  0  0  0  0  0  0  0  0  0
  129.7340  124.4790   64.3140 C   0  0  2  0  0  0  0  0  0  0  0  0
  130.8090  124.1030   65.3480 C   0  0  0  0  0  0  0  0  0  0  0  0
  130.3830  124.5170   66.7700 C   0  0  0  0  0  0  0  0  0  0  0  0
  129.3730  125.7010   66.8250 C   0  0  1  0  0  0  0  0  0  0  0  0
  129.3240  126.3660   68.2350 C   0  0  1  0  0  0  0  0  0  0  0  0
  130.6500  126.9710   68.7500 C   0  0  0  0  0  0  0  0  0  0  0  0
  130.2930  128.2130   69.5810 C   0  0  0  0  0  0  0  0  0  0  0  0
  128.7490  128.2770   69.6310 C   0  0  2  0  0  0  0  0  0  0  0  0
  128.2280  127.6820   70.9700 C   0  0  0  0  0  0  0  0  0  0  0  0
  127.5660  126.6440   71.0010 O   0  0  0  0  0  0  0  0  0  0  0  0
  128.6420  128.3600   72.2800 C   0  0  0  0  0  0  0  0  0  0  0  0
  129.9330  127.9290   72.6950 O   0  0  0  0  0  0  0  0  0  0  0  0
  130.1210  126.6860   73.1790 C   0  0  0  0  0  0  0  0  0  0  0  0
  131.4280  126.5600   73.9510 C   0  0  0  0  0  0  0  0  0  0  0  0
  129.3600  125.7270   73.0450 O   0  0  0  0  0  0  0  0  0  0  0  0
  128.2740  127.5160   68.3460 C   0  0  2  0  0  0  0  0  0  0  0  0
  126.8200  126.9640   68.4130 C   0  0  0  0  0  0  0  0  0  0  0  0
  128.3980  128.4840   67.1260 C   0  0  0  0  0  0  0  0  0  0  0  0
  128.3680  127.7720   65.7610 C   0  0  0  0  0  0  0  0  0  0  0  0
  129.4900  126.7070   65.6300 C   0  0  2  0  0  0  0  0  0  0  0  0
  129.9410  123.8060   62.9330 C   0  0  0  0  0  0  0  0  0  0  0  0
  128.9690  124.9920   58.8580 C   0  0  2  0  0  0  0  0  0  0  0  0
  128.0470  124.1650   58.1430 O   0  0  0  0  0  0  0  0  0  0  0  0
  126.8070  123.8930   58.6100 C   0  0  0  0  0  0  0  0  0  0  0  0
  125.9330  123.2240   57.5570 C   0  0  0  0  0  0  0  0  0  0  0  0
  126.3800  124.1300   59.7400 O   0  0  0  0  0  0  0  0  0  0  0  0
  129.9170  125.7430   57.8890 C   0  0  1  0  0  0  0  0  0  0  0  0
  129.2290  126.5760   56.9410 O   0  0  0  0  0  0  0  0  0  0  0  0
  127.8970  126.8400   56.9910 C   0  0  0  0  0  0  0  0  0  0  0  0
  127.5900  128.1020   57.7850 C   0  0  0  0  0  0  0  0  0  0  0  0
  126.9980  126.1790   56.4680 O   0  0  0  0  0  0  0  0  0  0  0  0
  131.0190  126.4790   58.6810 C   0  0  2  0  0  0  0  0  0  0  0  0
  131.8620  127.2350   57.8050 O   0  0  0  0  0  0  0  0  0  0  0  0
  132.1070  128.5490   58.0110 C   0  0  0  0  0  0  0  0  0  0  0  0
  131.0790  129.1900   58.9340 C   0  0  0  0  0  0  0  0  0  0  0  0
  133.0340  129.2030   57.5300 O   0  0  0  0  0  0  0  0  0  0  0  0
  132.7597  123.3671   61.7956 H   0  0  0  0  0  0  0  0  0  0  0  0
  134.3447  122.7831   61.1845 H   0  0  0  0  0  0  0  0  0  0  0  0
  133.9745  124.5408   61.1845 H   0  0  0  0  0  0  0  0  0  0  0  0
  132.4224  126.1371   60.2525 H   0  0  0  0  0  0  0  0  0  0  0  0
  130.2926  123.3372   59.2276 H   0  0  0  0  0  0  0  0  0  0  0  0
  127.8334  123.6620   62.4843 H   0  0  0  0  0  0  0  0  0  0  0  0
  129.3648  126.0425   61.3073 H   0  0  0  0  0  0  0  0  0  0  0  0
  127.5802  125.7781   61.2981 H   0  0  0  0  0  0  0  0  0  0  0  0
  128.3021  127.3794   63.0842 H   0  0  0  0  0  0  0  0  0  0  0  0
  127.5228  125.8573   63.7398 H   0  0  0  0  0  0  0  0  0  0  0  0
  131.5796  127.0315   64.3096 H   0  0  0  0  0  0  0  0  0  0  0  0
  131.4009  125.9336   62.8992 H   0  0  0  0  0  0  0  0  0  0  0  0
  130.5879  127.5354   62.8992 H   0  0  0  0  0  0  0  0  0  0  0  0
  128.7784  124.0853   64.6907 H   0  0  0  0  0  0  0  0  0  0  0  0
  130.9659  123.0145   65.3230 H   0  0  0  0  0  0  0  0  0  0  0  0
  131.7379  124.6345   65.0939 H   0  0  0  0  0  0  0  0  0  0  0  0
  129.9181  123.6466   67.2560 H   0  0  0  0  0  0  0  0  0  0  0  0
  131.2945  124.8606   67.2810 H   0  0  0  0  0  0  0  0  0  0  0  0
  128.3779  125.2576   66.6728 H   0  0  0  0  0  0  0  0  0  0  0  0
  129.0557  125.4971   68.8539 H   0  0  0  0  0  0  0  0  0  0  0  0
  131.1798  126.2384   69.3766 H   0  0  0  0  0  0  0  0  0  0  0  0
  131.3075  127.2401   67.9102 H   0  0  0  0  0  0  0  0  0  0  0  0
  130.7029  128.1210   70.5976 H   0  0  0  0  0  0  0  0  0  0  0  0
  130.7153  129.1256   69.1350 H   0  0  0  0  0  0  0  0  0  0  0  0
  128.3437  129.2996   69.6212 H   0  0  0  0  0  0  0  0  0  0  0  0
  128.6579  129.4497   72.1310 H   0  0  0  0  0  0  0  0  0  0  0  0
  127.9155  128.0865   73.0593 H   0  0  0  0  0  0  0  0  0  0  0  0
  131.2194  126.5801   75.0309 H   0  0  0  0  0  0  0  0  0  0  0  0
  131.9180  125.6104   73.6898 H   0  0  0  0  0  0  0  0  0  0  0  0
  132.0904  127.3984   73.6898 H   0  0  0  0  0  0  0  0  0  0  0  0
  126.5193  126.8498   69.4649 H   0  0  0  0  0  0  0  0  0  0  0  0
  126.1379  127.6657   67.9107 H   0  0  0  0  0  0  0  0  0  0  0  0
  126.7754  125.9864   67.9107 H   0  0  0  0  0  0  0  0  0  0  0  0
  127.5616  129.1975   67.1632 H   0  0  0  0  0  0  0  0  0  0  0  0
  129.3774  128.9780   67.2078 H   0  0  0  0  0  0  0  0  0  0  0  0
  127.3934  127.2762   65.6415 H   0  0  0  0  0  0  0  0  0  0  0  0
  128.5298  128.5305   64.9810 H   0  0  0  0  0  0  0  0  0  0  0  0
  130.4617  127.2165   65.7092 H   0  0  0  0  0  0  0  0  0  0  0  0
  130.8529  124.2066   62.4662 H   0  0  0  0  0  0  0  0  0  0  0  0
  130.0383  122.7193   63.0734 H   0  0  0  0  0  0  0  0  0  0  0  0
  128.4061  125.7488   59.4241 H   0  0  0  0  0  0  0  0  0  0  0  0
  125.1533  122.6272   58.0529 H   0  0  0  0  0  0  0  0  0  0  0  0
  125.4614  123.9940   56.9288 H   0  0  0  0  0  0  0  0  0  0  0  0
  126.5532  122.5677   56.9288 H   0  0  0  0  0  0  0  0  0  0  0  0
  130.4129  124.9902   57.2586 H   0  0  0  0  0  0  0  0  0  0  0  0
  127.6439  127.8804   58.8611 H   0  0  0  0  0  0  0  0  0  0  0  0
  128.3248  128.8811   57.5338 H   0  0  0  0  0  0  0  0  0  0  0  0
  126.5794  128.4565   57.5338 H   0  0  0  0  0  0  0  0  0  0  0  0
  130.5616  127.2294   59.3426 H   0  0  0  0  0  0  0  0  0  0  0  0
  131.3648  129.0118   59.9812 H   0  0  0  0  0  0  0  0  0  0  0  0
  131.0401  130.2727   58.7437 H   0  0  0  0  0  0  0  0  0  0  0  0
  130.0896  128.7485   58.7437 H   0  0  0  0  0  0  0  0  0  0  0  0
  1  2  1  0
  2  3  1  0
  3  4  2  0
  3  5  1  0
  5  6  1  0
  6  7  1  0
  7  8  1  0
  8  9  1  0
  9 10  1  0
 10 11  1  0
 11 12  1  0
 12 13  1  6
 12 14  1  0
 14 15  1  0
 15 16  1  0
 16 17  1  0
 17 18  1  0
 18 19  1  0
 19 20  1  0
 20 21  1  0
 21 22  1  0
 22 23  2  0
 22 24  1  0
 24 25  1  0
 25 26  1  0
 26 27  1  0
 26 28  2  0
 21 29  1  0
 29 30  1  1
 29 31  1  0
 31 32  1  0
 32 33  1  0
 14 34  1  0
  7 35  1  0
 35 36  1  0
 36 37  1  0
 37 38  1  0
 37 39  2  0
 35 40  1  0
 40 41  1  0
 41 42  1  0
 42 43  1  0
 42 44  2  0
 40 45  1  0
 45 46  1  0
 46 47  1  0
 47 48  1  0
 47 49  2  0
 45  5  1  0
 34  9  1  0
 33 12  1  0
 33 17  1  0
 29 18  1  0
  1 50  1  0
  1 51  1  0
  1 52  1  0
  5 53  1  1
  7 54  1  6
  9 55  1  1
 10 56  1  0
 10 57  1  0
 11 58  1  0
 11 59  1  0
 13 60  1  0
 13 61  1  0
 13 62  1  0
 14 63  1  1
 15 64  1  0
 15 65  1  0
 16 66  1  0
 16 67  1  0
 17 68  1  6
 18 69  1  1
 19 70  1  0
 19 71  1  0
 20 72  1  0
 20 73  1  0
 21 74  1  6
 24 75  1  0
 24 76  1  0
 27 77  1  0
 27 78  1  0
 27 79  1  0
 30 80  1  0
 30 81  1  0
 30 82  1  0
 31 83  1  0
 31 84  1  0
 32 85  1  0
 32 86  1  0
 33 87  1  1
 34 88  1  0
 34 89  1  0
 35 90  1  1
 38 91  1  0
 38 92  1  0
 38 93  1  0
 40 94  1  6
 43 95  1  0
 43 96  1  0
 43 97  1  0
 45 98  1  1
 48 99  1  0
 48100  1  0
 48101  1  0
M  END
>  <Binding energies>  (1) 
[-6.45]

>  <Ligand effiencies>  (1) 
[-0.13163265306122449]

>  <Interactions>  (1) 
["V-A:ILE:369:CG2:3237, V-B:PRO:540:CA:9855, V-A:GLU:543:CA:4904, V-B:GLU:543:C:9874, V-B:HIS:456:CD2:9039, V-A:GLU:543:C:4902, V-B:GLU:543:CB:9878, H-B:LYS:547:NZ:9923, H-A:TYR:531:OH:4795, V-A:TYR:484:CE2:4346, V-B:TYR:539:CE2:9848, V-B:GLU:543:CG:9879, V-A:ASP:366:CG:3213, V-A:HIS:456:CD2:4068, V-B:TYR:539:CZ:9849, V-A:TYR:531:CE2:4793, H-B:TYR:539:OH:9850, V-B:ARG:545:CG:9894, V-A:GLU:543:CD:4908, V-A:TYR:484:CZ:4347, V-B:PRO:540:CB:9857, V-B:HIS:456:CE1:9041, V-B:GLU:543:CA:9876, V-B:PRO:540:N:9856, V-A:HIS:456:CE1:4070, V-A:ILE:369:CD1:3239, V-B:PRO:540:CD:9859, V-A:GLU:543:CG:4907, V-A:TYR:531:CZ:4794, V-B:GLU:543:CD:9880, H-B:TYR:531:OH:9767, V-A:ASP:366:CB:3212, H-A:LYS:547:NZ:4951, V-A:GLU:543:CB:4906, V-A:HIS:456:CG:4066"]

$$$$
ZINC257350209
     RDKit          3D

 77 80  0  0  0  0  0  0  0  0999 V2000
  130.2180  117.1460   59.7630 C   0  0  0  0  0  0  0  0  0  0  0  0
  130.6110  118.0400   60.9560 C   0  0  0  0  0  0  0  0  0  0  0  0
  129.4850  118.0710   62.0070 C   0  0  0  0  0  0  0  0  0  0  0  0
  131.0100  119.4730   60.5310 C   0  0  0  0  0  0  0  0  0  0  0  0
  130.3910  120.5980   61.3860 C   0  0  0  0  0  0  0  0  0  0  0  0
  129.6450  121.6500   60.5400 C   0  0  0  0  0  0  0  0  0  0  0  0
  129.4530  123.0190   61.2530 C   0  0  1  0  0  0  0  0  0  0  0  0
  128.2790  122.8940   62.2550 C   0  0  0  0  0  0  0  0  0  0  0  0
  130.8000  123.5500   61.8730 C   0  0  2  0  0  0  0  0  0  0  0  0
  130.7400  123.8420   63.3870 C   0  0  0  0  0  0  0  0  0  0  0  0
  130.2470  125.2770   63.4650 C   0  0  0  0  0  0  0  0  0  0  0  0
  131.0630  125.9860   62.3760 C   0  0  2  0  0  0  0  0  0  0  0  0
  130.5040  127.3560   61.8670 C   0  0  2  0  0  0  0  0  0  0  0  0
  128.9720  127.4890   61.6340 C   0  0  0  0  0  0  0  0  0  0  0  0
  128.5790  128.9100   61.1790 C   0  0  0  0  0  0  0  0  0  0  0  0
  129.3720  129.3750   59.9290 C   0  0  1  0  0  0  0  0  0  0  0  0
  128.9270  130.7800   59.4370 C   0  0  0  0  0  0  0  0  0  0  0  0
  129.6630  131.2310   58.1420 C   0  0  1  0  0  0  0  0  0  0  0  0
  129.1070  130.1980   56.7760 Cl  0  0  0  0  0  0  0  0  0  0  0  0
  129.3430  132.6940   57.8990 N   0  0  0  0  0  0  0  0  0  0  0  0
  129.9870  133.2950   57.0420 O   0  0  0  0  0  0  0  0  0  0  0  0
  128.4540  133.2250   58.5580 O   0  0  0  0  0  0  0  0  0  0  0  0
  131.2080  131.0900   58.2760 C   0  0  0  0  0  0  0  0  0  0  0  0
  131.6120  129.6970   58.8130 C   0  0  0  0  0  0  0  0  0  0  0  0
  130.9250  129.3190   60.1670 C   0  0  1  0  0  0  0  0  0  0  0  0
  131.3870  130.3100   61.2830 C   0  0  0  0  0  0  0  0  0  0  0  0
  131.2600  127.8360   60.5900 C   0  0  2  0  0  0  0  0  0  0  0  0
  131.3010  126.7600   59.4590 C   0  0  0  0  0  0  0  0  0  0  0  0
  130.8660  125.3410   59.8900 C   0  0  0  0  0  0  0  0  0  0  0  0
  131.4020  124.8980   61.2870 C   0  0  2  0  0  0  0  0  0  0  0  0
  132.9440  124.7330   61.1670 C   0  0  0  0  0  0  0  0  0  0  0  0
  129.8016  116.1987   60.1362 H   0  0  0  0  0  0  0  0  0  0  0  0
  129.4638  117.6621   59.1508 H   0  0  0  0  0  0  0  0  0  0  0  0
  131.1082  116.9393   59.1508 H   0  0  0  0  0  0  0  0  0  0  0  0
  131.5071  117.5887   61.4070 H   0  0  0  0  0  0  0  0  0  0  0  0
  129.9243  118.0589   63.0154 H   0  0  0  0  0  0  0  0  0  0  0  0
  128.8881  118.9859   61.8780 H   0  0  0  0  0  0  0  0  0  0  0  0
  128.8387  117.1903   61.8780 H   0  0  0  0  0  0  0  0  0  0  0  0
  132.1049  119.5568   60.5962 H   0  0  0  0  0  0  0  0  0  0  0  0
  130.6238  119.6119   59.5104 H   0  0  0  0  0  0  0  0  0  0  0  0
  129.6803  120.1495   62.0957 H   0  0  0  0  0  0  0  0  0  0  0  0
  131.2145  121.1122   61.9032 H   0  0  0  0  0  0  0  0  0  0  0  0
  130.2174  121.8191   59.6160 H   0  0  0  0  0  0  0  0  0  0  0  0
  128.6390  121.2480   60.3493 H   0  0  0  0  0  0  0  0  0  0  0  0
  129.1778  123.7975   60.5262 H   0  0  0  0  0  0  0  0  0  0  0  0
  128.6683  122.9355   63.2830 H   0  0  0  0  0  0  0  0  0  0  0  0
  127.5723  123.7220   62.0969 H   0  0  0  0  0  0  0  0  0  0  0  0
  127.7625  121.9358   62.0969 H   0  0  0  0  0  0  0  0  0  0  0  0
  131.4318  122.6904   61.6049 H   0  0  0  0  0  0  0  0  0  0  0  0
  130.0385  123.1597   63.8894 H   0  0  0  0  0  0  0  0  0  0  0  0
  131.7108  123.7001   63.8845 H   0  0  0  0  0  0  0  0  0  0  0  0
  129.1694  125.3363   63.2523 H   0  0  0  0  0  0  0  0  0  0  0  0
  130.3758  125.7245   64.4616 H   0  0  0  0  0  0  0  0  0  0  0  0
  132.0010  126.3712   62.8025 H   0  0  0  0  0  0  0  0  0  0  0  0
  130.6967  128.0056   62.7335 H   0  0  0  0  0  0  0  0  0  0  0  0
  128.6667  126.7706   60.8590 H   0  0  0  0  0  0  0  0  0  0  0  0
  128.4637  127.2843   62.5878 H   0  0  0  0  0  0  0  0  0  0  0  0
  127.5055  128.9192   60.9391 H   0  0  0  0  0  0  0  0  0  0  0  0
  128.8160  129.6014   62.0011 H   0  0  0  0  0  0  0  0  0  0  0  0
  129.1334  128.6618   59.1263 H   0  0  0  0  0  0  0  0  0  0  0  0
  127.8459  130.7548   59.2353 H   0  0  0  0  0  0  0  0  0  0  0  0
  129.1799  131.5014   60.2279 H   0  0  0  0  0  0  0  0  0  0  0  0
  131.6663  131.2372   57.2869 H   0  0  0  0  0  0  0  0  0  0  0  0
  131.5603  131.8480   58.9911 H   0  0  0  0  0  0  0  0  0  0  0  0
  131.3364  128.9423   58.0617 H   0  0  0  0  0  0  0  0  0  0  0  0
  132.6954  129.7278   59.0009 H   0  0  0  0  0  0  0  0  0  0  0  0
  131.1824  129.8712   62.2707 H   0  0  0  0  0  0  0  0  0  0  0  0
  132.4660  130.4988   61.1820 H   0  0  0  0  0  0  0  0  0  0  0  0
  130.8379  131.2578   61.1820 H   0  0  0  0  0  0  0  0  0  0  0  0
  132.3213  127.9263   60.8646 H   0  0  0  0  0  0  0  0  0  0  0  0
  130.6333  127.0903   58.6497 H   0  0  0  0  0  0  0  0  0  0  0  0
  132.3539  126.6781   59.1513 H   0  0  0  0  0  0  0  0  0  0  0  0
  129.7667  125.3121   59.9185 H   0  0  0  0  0  0  0  0  0  0  0  0
  131.2948  124.6446   59.1544 H   0  0  0  0  0  0  0  0  0  0  0  0
  133.3871  124.6856   62.1727 H   0  0  0  0  0  0  0  0  0  0  0  0
  133.1722  123.8053   60.6217 H   0  0  0  0  0  0  0  0  0  0  0  0
  133.3633  125.5914   60.6217 H   0  0  0  0  0  0  0  0  0  0  0  0
  1  2  1  0
  2  3  1  0
  2  4  1  0
  4  5  1  0
  5  6  1  0
  6  7  1  0
  7  8  1  0
  7  9  1  0
  9 10  1  0
 10 11  1  0
 11 12  1  0
 12 13  1  0
 13 14  1  0
 14 15  1  0
 15 16  1  0
 16 17  1  0
 17 18  1  0
 18 19  1  6
 18 20  1  0
 20 21  2  0
 20 22  1  0
 18 23  1  0
 23 24  1  0
 24 25  1  0
 25 26  1  1
 25 27  1  0
 27 28  1  0
 28 29  1  0
 29 30  1  0
 30 31  1  6
 30  9  1  0
 30 12  1  0
 27 13  1  0
 25 16  1  0
  1 32  1  0
  1 33  1  0
  1 34  1  0
  2 35  1  0
  3 36  1  0
  3 37  1  0
  3 38  1  0
  4 39  1  0
  4 40  1  0
  5 41  1  0
  5 42  1  0
  6 43  1  0
  6 44  1  0
  7 45  1  6
  8 46  1  0
  8 47  1  0
  8 48  1  0
  9 49  1  1
 10 50  1  0
 10 51  1  0
 11 52  1  0
 11 53  1  0
 12 54  1  1
 13 55  1  1
 14 56  1  0
 14 57  1  0
 15 58  1  0
 15 59  1  0
 16 60  1  6
 17 61  1  0
 17 62  1  0
 23 63  1  0
 23 64  1  0
 24 65  1  0
 24 66  1  0
 26 67  1  0
 26 68  1  0
 26 69  1  0
 27 70  1  1
 28 71  1  0
 28 72  1  0
 29 73  1  0
 29 74  1  0
 31 75  1  0
 31 76  1  0
 31 77  1  0
M  CHG  2  20   1  22  -1
M  END
>  <Binding energies>  (1) 
[-8.36]

>  <Ligand effiencies>  (1) 
[-0.2696774193548387]

>  <Interactions>  (1) 
["V-B:TYR:539:CA:9841, V-B:ALA:541:CB:9864, V-B:TYR:539:CE2:9848, V-A:LEU:475:CG:4257, V-B:TYR:539:C:9839, V-A:ASP:366:CG:3213, V-B:VAL:344:CG1:7972, V-A:LEU:475:CD1:4258, V-A:HIS:383:CE1:3393, V-B:TYR:539:CB:9843, V-A:PRO:482:CB:4326, V-B:TYR:539:CD2:9846, V-A:MET:535:CE:4835, V-A:TYR:539:C:4867, V-A:ASP:366:CB:3212, V-A:LEU:475:CD2:4259, V-A:PRO:540:N:4884, H-A:TYR:539:N:4870, V-A:PRO:482:CG:4327, V-B:PRO:540:C:9853, V-B:ALA:541:CA:9862, V-A:HIS:383:NE2:3394"]

$$$$
ZINC257355599
     RDKit          3D

 69 72  0  0  0  0  0  0  0  0999 V2000
  131.3510  132.9360   56.5510 C   0  0  0  0  0  0  0  0  0  0  0  0
  130.1490  133.3480   57.1840 O   0  0  0  0  0  0  0  0  0  0  0  0
  129.6280  132.6280   58.1980 C   0  0  0  0  0  0  0  0  0  0  0  0
  129.4970  133.0020   59.3650 O   0  0  0  0  0  0  0  0  0  0  0  0
  129.1860  131.2310   57.7590 C   0  0  0  0  0  0  0  0  0  0  0  0
  129.7670  130.1130   58.6540 C   0  0  0  0  0  0  0  0  0  0  0  0
  130.6060  129.0450   57.9040 C   0  0  1  0  0  0  0  0  0  0  0  0
  132.1050  129.1950   58.2670 C   0  0  0  0  0  0  0  0  0  0  0  0
  130.1320  127.5590   58.1160 C   0  0  2  0  0  0  0  0  0  0  0  0
  128.6170  127.4780   58.4780 C   0  0  0  0  0  0  0  0  0  0  0  0
  128.4220  126.3310   59.4810 C   0  0  0  0  0  0  0  0  0  0  0  0
  129.7360  125.5590   59.3930 C   0  0  2  0  0  0  0  0  0  0  0  0
  130.0410  124.4040   60.3970 C   0  0  2  0  0  0  0  0  0  0  0  0
  129.2690  124.4260   61.7390 C   0  0  0  0  0  0  0  0  0  0  0  0
  129.5480  123.1480   62.5700 C   0  0  0  0  0  0  0  0  0  0  0  0
  131.0660  122.8770   62.7960 C   0  0  2  0  0  0  0  0  0  0  0  0
  131.6440  123.8490   63.8700 C   0  0  0  0  0  0  0  0  0  0  0  0
  133.1660  123.7270   64.0890 C   0  0  2  0  0  0  0  0  0  0  0  0
  133.6330  124.7340   64.9640 O   0  0  0  0  0  0  0  0  0  0  0  0
  133.9540  123.7490   62.7640 C   0  0  0  0  0  0  0  0  0  0  0  0
  133.3920  122.7130   61.7750 C   0  0  0  0  0  0  0  0  0  0  0  0
  131.8780  122.8990   61.4430 C   0  0  1  0  0  0  0  0  0  0  0  0
  131.4850  121.6630   60.5790 C   0  0  0  0  0  0  0  0  0  0  0  0
  131.5660  124.2550   60.7060 C   0  0  1  0  0  0  0  0  0  0  0  0
  132.4870  124.6090   59.5060 C   0  0  0  0  0  0  0  0  0  0  0  0
  132.1310  125.9170   58.7590 C   0  0  0  0  0  0  0  0  0  0  0  0
  132.8180  126.2870   57.8080 O   0  0  0  0  0  0  0  0  0  0  0  0
  130.8260  126.6490   59.2030 C   0  0  1  0  0  0  0  0  0  0  0  0
  131.1060  127.4960   60.4900 C   0  0  0  0  0  0  0  0  0  0  0  0
  132.0989  132.6796   57.3158 H   0  0  0  0  0  0  0  0  0  0  0  0
  131.1515  132.0549   55.9234 H   0  0  0  0  0  0  0  0  0  0  0  0
  131.7340  133.7542   55.9234 H   0  0  0  0  0  0  0  0  0  0  0  0
  128.0880  131.1800   57.8004 H   0  0  0  0  0  0  0  0  0  0  0  0
  129.5625  131.0688   56.7382 H   0  0  0  0  0  0  0  0  0  0  0  0
  130.4108  130.5824   59.4124 H   0  0  0  0  0  0  0  0  0  0  0  0
  128.9045  129.5820   59.0830 H   0  0  0  0  0  0  0  0  0  0  0  0
  130.4485  129.2445   56.8338 H   0  0  0  0  0  0  0  0  0  0  0  0
  132.2180  129.2063   59.3611 H   0  0  0  0  0  0  0  0  0  0  0  0
  132.6700  128.3489   57.8488 H   0  0  0  0  0  0  0  0  0  0  0  0
  132.4911  130.1363   57.8488 H   0  0  0  0  0  0  0  0  0  0  0  0
  130.4208  127.1636   57.1310 H   0  0  0  0  0  0  0  0  0  0  0  0
  128.2912  128.4266   58.9296 H   0  0  0  0  0  0  0  0  0  0  0  0
  128.0199  127.2954   57.5724 H   0  0  0  0  0  0  0  0  0  0  0  0
  128.2608  126.7197   60.4974 H   0  0  0  0  0  0  0  0  0  0  0  0
  127.5423  125.7095   59.2579 H   0  0  0  0  0  0  0  0  0  0  0  0
  129.6821  124.8687   58.5382 H   0  0  0  0  0  0  0  0  0  0  0  0
  129.6684  123.5318   59.8398 H   0  0  0  0  0  0  0  0  0  0  0  0
  129.5834  125.3062   62.3189 H   0  0  0  0  0  0  0  0  0  0  0  0
  128.1920  124.4691   61.5194 H   0  0  0  0  0  0  0  0  0  0  0  0
  129.0632  123.2572   63.5514 H   0  0  0  0  0  0  0  0  0  0  0  0
  129.1468  122.2963   62.0012 H   0  0  0  0  0  0  0  0  0  0  0  0
  131.1778  121.8564   63.1908 H   0  0  0  0  0  0  0  0  0  0  0  0
  131.4236  124.8796   63.5550 H   0  0  0  0  0  0  0  0  0  0  0  0
  131.1677  123.5802   64.8244 H   0  0  0  0  0  0  0  0  0  0  0  0
  133.3427  122.7461   64.5544 H   0  0  0  0  0  0  0  0  0  0  0  0
  133.1890  124.6320   65.8090 H   0  0  0  0  0  0  0  0  0  0  0  0
  133.8794  124.7513   62.3170 H   0  0  0  0  0  0  0  0  0  0  0  0
  135.0045  123.5002   62.9751 H   0  0  0  0  0  0  0  0  0  0  0  0
  133.9622  122.7870   60.8372 H   0  0  0  0  0  0  0  0  0  0  0  0
  133.4906  121.7297   62.2581 H   0  0  0  0  0  0  0  0  0  0  0  0
  131.2183  120.8243   61.2388 H   0  0  0  0  0  0  0  0  0  0  0  0
  130.6237  121.9183   59.9442 H   0  0  0  0  0  0  0  0  0  0  0  0
  132.3356  121.3740   59.9442 H   0  0  0  0  0  0  0  0  0  0  0  0
  131.8337  125.0351   61.4339 H   0  0  0  0  0  0  0  0  0  0  0  0
  133.5157  124.7033   59.8840 H   0  0  0  0  0  0  0  0  0  0  0  0
  132.3573  123.7975   58.7748 H   0  0  0  0  0  0  0  0  0  0  0  0
  130.9040  126.8850   61.3822 H   0  0  0  0  0  0  0  0  0  0  0  0
  132.1581  127.8171   60.4960 H   0  0  0  0  0  0  0  0  0  0  0  0
  130.4526  128.3809   60.4960 H   0  0  0  0  0  0  0  0  0  0  0  0
  1  2  1  0
  2  3  1  0
  3  4  2  0
  3  5  1  0
  5  6  1  0
  6  7  1  0
  7  8  1  0
  7  9  1  0
  9 10  1  0
 10 11  1  0
 11 12  1  0
 12 13  1  0
 13 14  1  0
 14 15  1  0
 15 16  1  0
 16 17  1  0
 17 18  1  0
 18 19  1  0
 18 20  1  0
 20 21  1  0
 21 22  1  0
 22 23  1  6
 22 24  1  0
 24 25  1  0
 25 26  1  0
 26 27  2  0
 26 28  1  0
 28 29  1  1
 28  9  1  0
 28 12  1  0
 24 13  1  0
 22 16  1  0
  1 30  1  0
  1 31  1  0
  1 32  1  0
  5 33  1  0
  5 34  1  0
  6 35  1  0
  6 36  1  0
  7 37  1  6
  8 38  1  0
  8 39  1  0
  8 40  1  0
  9 41  1  6
 10 42  1  0
 10 43  1  0
 11 44  1  0
 11 45  1  0
 12 46  1  6
 13 47  1  6
 14 48  1  0
 14 49  1  0
 15 50  1  0
 15 51  1  0
 16 52  1  1
 17 53  1  0
 17 54  1  0
 18 55  1  1
 19 56  1  0
 20 57  1  0
 20 58  1  0
 21 59  1  0
 21 60  1  0
 23 61  1  0
 23 62  1  0
 23 63  1  0
 24 64  1  1
 25 65  1  0
 25 66  1  0
 29 67  1  0
 29 68  1  0
 29 69  1  0
M  END
>  <Binding energies>  (1) 
[-7.62]

>  <Ligand effiencies>  (1) 
[-0.254]

>  <Interactions>  (1) 
["V-A:GLY:454:CA:4049, V-A:ILE:538:CB:4862, H-A:TYR:531:OH:4795, V-B:TYR:539:CE2:9848, V-A:ASP:366:CG:3213, V-A:ILE:538:CG2:4863, V-A:LEU:363:CD1:3189, V-A:ILE:538:CA:4860, H-B:TYR:539:OH:9850, H-A:GLY:454:N:4050, V-A:GLY:453:C:4042, V-B:TYR:539:CD2:9846, V-A:TYR:531:CZ:4794, V-A:TYR:539:C:4867, V-A:ASP:366:CB:3212, V-A:LEU:475:CD2:4259, H-A:ARG:545:NH2:4928, V-A:PRO:540:N:4884, H-A:TYR:539:N:4870, V-A:PRO:540:CA:4883, H-A:ARG:545:NE:4924, V-A:PRO:540:CD:4887, H-A:TYR:484:OH:4348"]

$$$$
ZINC257356831
     RDKit          3D

 50 52  0  0  0  0  0  0  0  0999 V2000
  127.5850  122.4700   57.8640 C   0  0  0  0  0  0  0  0  0  0  0  0
  127.7880  123.7960   58.6300 C   0  0  0  0  0  0  0  0  0  0  0  0
  126.4410  124.5460   58.6960 C   0  0  0  0  0  0  0  0  0  0  0  0
  128.8060  124.6620   57.8600 C   0  0  0  0  0  0  0  0  0  0  0  0
  128.4120  123.4270   60.3940 Si  0  0  0  0  0  4  0  0  0  0  0  0
  127.0140  123.5850   61.6510 C   0  0  0  0  0  0  0  0  0  0  0  0
  129.1950  121.7130   60.5230 C   0  0  0  0  0  0  0  0  0  0  0  0
  129.5670  124.5740   60.8120 O   0  0  0  0  0  0  0  0  0  0  0  0
  130.7910  124.7980   60.1360 C   0  0  0  0  0  0  0  0  0  0  0  0
  131.7610  123.6230   60.3970 C   0  0  1  0  0  0  0  0  0  0  0  0
  133.1260  123.8100   59.6570 C   0  0  0  0  0  0  0  0  0  0  0  0
  133.2590  124.2950   58.5340 O   0  0  0  0  0  0  0  0  0  0  0  0
  134.3160  123.3940   60.5610 C   0  0  2  0  0  0  0  0  0  0  0  0
  133.9980  122.0440   61.2220 C   0  0  0  0  0  0  0  0  0  0  0  0
  132.8400  121.9860   61.9130 C   0  0  0  0  0  0  0  0  0  0  0  0
  132.0240  123.2900   61.9200 C   0  0  1  0  0  0  0  0  0  0  0  0
  132.9760  124.3700   62.5380 C   0  0  0  0  0  0  0  0  0  0  0  0
  134.3240  124.4340   61.7360 C   0  0  0  0  0  0  0  0  0  0  0  0
  133.2290  124.0750   63.8740 O   0  0  0  0  0  0  0  0  0  0  0  0
  132.3700  124.8040   64.7220 C   0  0  0  0  0  0  0  0  0  0  0  0
  131.7350  125.8400   63.8030 C   0  0  0  0  0  0  0  0  0  0  0  0
  132.3610  125.6170   62.5590 O   0  0  0  0  0  0  0  0  0  0  0  0
  127.4590  121.6469   58.5828 H   0  0  0  0  0  0  0  0  0  0  0  0
  126.6879  122.5453   57.2319 H   0  0  0  0  0  0  0  0  0  0  0  0
  128.4635  122.2735   57.2319 H   0  0  0  0  0  0  0  0  0  0  0  0
  126.1597  124.7026   59.7478 H   0  0  0  0  0  0  0  0  0  0  0  0
  126.5385  125.5197   58.1936 H   0  0  0  0  0  0  0  0  0  0  0  0
  125.6646  123.9503   58.1936 H   0  0  0  0  0  0  0  0  0  0  0  0
  129.4423  125.2033   58.5756 H   0  0  0  0  0  0  0  0  0  0  0  0
  129.4328  124.0160   57.2276 H   0  0  0  0  0  0  0  0  0  0  0  0
  128.2689  125.3842   57.2276 H   0  0  0  0  0  0  0  0  0  0  0  0
  127.4289  123.5381   62.6687 H   0  0  0  0  0  0  0  0  0  0  0  0
  126.4999  124.5470   61.5086 H   0  0  0  0  0  0  0  0  0  0  0  0
  126.2981  122.7620   61.5086 H   0  0  0  0  0  0  0  0  0  0  0  0
  129.3176  121.4447   61.5827 H   0  0  0  0  0  0  0  0  0  0  0  0
  128.5448  120.9749   60.0307 H   0  0  0  0  0  0  0  0  0  0  0  0
  130.1787  121.7212   60.0307 H   0  0  0  0  0  0  0  0  0  0  0  0
  130.6009  124.8805   59.0557 H   0  0  0  0  0  0  0  0  0  0  0  0
  131.2435  125.7294   60.5070 H   0  0  0  0  0  0  0  0  0  0  0  0
  131.2274  122.7559   59.9806 H   0  0  0  0  0  0  0  0  0  0  0  0
  135.2519  123.3435   59.9851 H   0  0  0  0  0  0  0  0  0  0  0  0
  134.6720  121.1788   61.1374 H   0  0  0  0  0  0  0  0  0  0  0  0
  132.5052  121.0755   62.4317 H   0  0  0  0  0  0  0  0  0  0  0  0
  131.0777  123.2391   62.4784 H   0  0  0  0  0  0  0  0  0  0  0  0
  134.4515  125.4455   61.3229 H   0  0  0  0  0  0  0  0  0  0  0  0
  135.1541  124.1943   62.4168 H   0  0  0  0  0  0  0  0  0  0  0  0
  131.6034  124.1476   65.1596 H   0  0  0  0  0  0  0  0  0  0  0  0
  132.9007  125.2602   65.5707 H   0  0  0  0  0  0  0  0  0  0  0  0
  130.6487  125.6838   63.7283 H   0  0  0  0  0  0  0  0  0  0  0  0
  131.8683  126.8694   64.1671 H   0  0  0  0  0  0  0  0  0  0  0  0
  1  2  1  0
  2  3  1  0
  2  4  1  0
  2  5  1  0
  5  6  1  0
  5  7  1  0
  5  8  1  0
  8  9  1  0
  9 10  1  0
 10 11  1  0
 11 12  2  0
 11 13  1  0
 13 14  1  0
 14 15  2  0
 15 16  1  0
 16 17  1  0
 17 18  1  0
 17 19  1  0
 19 20  1  0
 20 21  1  0
 21 22  1  0
 16 10  1  0
 22 17  1  0
 18 13  1  0
  1 23  1  0
  1 24  1  0
  1 25  1  0
  3 26  1  0
  3 27  1  0
  3 28  1  0
  4 29  1  0
  4 30  1  0
  4 31  1  0
  6 32  1  0
  6 33  1  0
  6 34  1  0
  7 35  1  0
  7 36  1  0
  7 37  1  0
  9 38  1  0
  9 39  1  0
 10 40  1  6
 13 41  1  6
 14 42  1  0
 15 43  1  0
 16 44  1  1
 18 45  1  0
 18 46  1  0
 20 47  1  0
 20 48  1  0
 21 49  1  0
 21 50  1  0
M  END
>  <Binding energies>  (1) 
[-6.26]

>  <Ligand effiencies>  (1) 
[-0.28454545454545455]

>  <Interactions>  (1) 
["V-A:ILE:369:CG2:3237, V-B:PRO:540:CA:9855, V-A:ILE:369:CB:3236, V-B:TYR:539:CE2:9848, V-B:TYR:539:C:9839, V-A:ASP:366:CG:3213, V-B:TYR:539:CZ:9849, H-B:TYR:539:OH:9850, V-A:GLU:543:CD:4908, H-A:GLY:454:N:4050, V-B:PRO:540:N:9856, V-A:ILE:369:CD1:3239, V-B:TYR:539:CD2:9846, V-B:GLU:543:CD:9880, V-A:ILE:369:CG1:3238, V-A:LEU:475:CD2:4259, H-A:ARG:545:NH2:4928, V-A:ARG:545:CZ:4926, V-B:TYR:539:CG:9844, V-B:TYR:539:CD1:9845, H-A:TYR:484:OH:4348"]

$$$$
ZINC257356876
     RDKit          3D

 89 92  0  0  0  0  0  0  0  0999 V2000
  127.1260  123.1780   56.9490 C   0  0  0  0  0  0  0  0  0  0  0  0
  126.9440  124.2650   58.0400 C   0  0  0  0  0  0  0  0  0  0  0  0
  125.7330  125.1470   57.6270 C   0  0  0  0  0  0  0  0  0  0  0  0
  126.7500  123.6200   59.5080 C   0  0  1  0  0  0  0  0  0  0  0  0
  128.0090  122.8410   59.9370 C   0  0  0  0  0  0  0  0  0  0  0  0
  129.0320  123.9720   60.1750 C   0  0  1  0  0  0  0  0  0  0  0  0
  129.4430  124.4780   58.7720 C   0  0  0  0  0  0  0  0  0  0  0  0
  130.6050  124.5020   58.3680 O   0  0  0  0  0  0  0  0  0  0  0  0
  128.2710  125.1420   58.0340 C   0  0  2  0  0  0  0  0  0  0  0  0
  128.4760  126.6930   58.0930 C   0  0  0  0  0  0  0  0  0  0  0  0
  128.0950  127.3580   59.4940 C   0  0  2  0  0  0  0  0  0  0  0  0
  128.3110  128.8760   59.5670 C   0  0  0  0  0  0  0  0  0  0  0  0
  128.3430  129.4700   58.3560 O   0  0  0  0  0  0  0  0  0  0  0  0
  127.7200  130.9810   57.9550 Si  0  0  0  0  0  4  0  0  0  0  0  0
  126.5720  130.7460   56.4750 C   0  0  0  0  0  0  0  0  0  0  0  0
  126.7340  131.6540   59.4210 C   0  0  0  0  0  0  0  0  0  0  0  0
  129.1840  132.1160   57.5120 C   0  0  0  0  0  0  0  0  0  0  0  0
  130.2040  131.3460   56.6470 C   0  0  0  0  0  0  0  0  0  0  0  0
  128.6850  133.3440   56.7230 C   0  0  0  0  0  0  0  0  0  0  0  0
  129.8810  132.5980   58.8020 C   0  0  0  0  0  0  0  0  0  0  0  0
  128.4380  129.5690   60.7160 C   0  0  0  0  0  0  0  0  0  0  0  0
  128.3770  128.9220   62.0940 C   0  0  0  0  0  0  0  0  0  0  0  0
  127.9430  127.4370   61.9800 C   0  0  0  0  0  0  0  0  0  0  0  0
  128.6370  126.6250   60.8280 C   0  0  2  0  0  0  0  0  0  0  0  0
  130.1830  126.8150   60.9750 C   0  0  0  0  0  0  0  0  0  0  0  0
  128.2110  125.0540   61.0130 C   0  0  2  0  0  0  0  0  0  0  0  0
  128.6210  124.7040   62.3470 O   0  0  0  0  0  0  0  0  0  0  0  0
  130.0260  124.0350   63.0240 Si  0  0  0  0  0  4  0  0  0  0  0  0
  129.7610  122.2150   63.4810 C   0  0  0  0  0  0  0  0  0  0  0  0
  131.4670  124.2070   61.8110 C   0  0  0  0  0  0  0  0  0  0  0  0
  130.3830  125.0590   64.5910 C   0  0  0  0  0  0  0  0  0  0  0  0
  130.0560  124.2340   65.8540 C   0  0  0  0  0  0  0  0  0  0  0  0
  131.8740  125.4590   64.6250 C   0  0  0  0  0  0  0  0  0  0  0  0
  129.5220  126.3390   64.5950 C   0  0  0  0  0  0  0  0  0  0  0  0
  126.7080  124.6630   60.6800 C   0  0  0  0  0  0  0  0  0  0  0  0
  127.2895  122.2014   57.4281 H   0  0  0  0  0  0  0  0  0  0  0  0
  126.2230  123.1325   56.3225 H   0  0  0  0  0  0  0  0  0  0  0  0
  127.9946  123.4291   56.3225 H   0  0  0  0  0  0  0  0  0  0  0  0
  125.2245  125.5174   58.5294 H   0  0  0  0  0  0  0  0  0  0  0  0
  126.0874  126.0000   57.0297 H   0  0  0  0  0  0  0  0  0  0  0  0
  125.0299  124.5480   57.0297 H   0  0  0  0  0  0  0  0  0  0  0  0
  125.8180  123.0480   59.3890 H   0  0  0  0  0  0  0  0  0  0  0  0
  127.8278  122.2677   60.8581 H   0  0  0  0  0  0  0  0  0  0  0  0
  128.3396  122.0972   59.1970 H   0  0  0  0  0  0  0  0  0  0  0  0
  129.9503  123.6977   60.7149 H   0  0  0  0  0  0  0  0  0  0  0  0
  128.1460  125.1273   56.9412 H   0  0  0  0  0  0  0  0  0  0  0  0
  129.5351  126.9077   57.8874 H   0  0  0  0  0  0  0  0  0  0  0  0
  127.7962  127.1273   57.3451 H   0  0  0  0  0  0  0  0  0  0  0  0
  127.0099  127.1776   59.5003 H   0  0  0  0  0  0  0  0  0  0  0  0
  125.5524  130.5373   56.8313 H   0  0  0  0  0  0  0  0  0  0  0  0
  126.5672  131.6618   55.8656 H   0  0  0  0  0  0  0  0  0  0  0  0
  126.9274  129.9020   55.8656 H   0  0  0  0  0  0  0  0  0  0  0  0
  127.2070  131.3312   60.3602 H   0  0  0  0  0  0  0  0  0  0  0  0
  126.7170  132.7530   59.3779 H   0  0  0  0  0  0  0  0  0  0  0  0
  125.7043  131.2694   59.3779 H   0  0  0  0  0  0  0  0  0  0  0  0
  130.9103  130.8128   57.3003 H   0  0  0  0  0  0  0  0  0  0  0  0
  129.6732  130.6213   56.0120 H   0  0  0  0  0  0  0  0  0  0  0  0
  130.7555  132.0550   56.0120 H   0  0  0  0  0  0  0  0  0  0  0  0
  128.3667  134.1273   57.4266 H   0  0  0  0  0  0  0  0  0  0  0  0
  129.4983  133.7283   56.0899 H   0  0  0  0  0  0  0  0  0  0  0  0
  127.8342  133.0521   56.0899 H   0  0  0  0  0  0  0  0  0  0  0  0
  129.3337  132.2195   59.6779 H   0  0  0  0  0  0  0  0  0  0  0  0
  130.9139  132.2203   58.8238 H   0  0  0  0  0  0  0  0  0  0  0  0
  129.8922  133.6977   58.8238 H   0  0  0  0  0  0  0  0  0  0  0  0
  128.5935  130.6563   60.6558 H   0  0  0  0  0  0  0  0  0  0  0  0
  129.3711  128.9734   62.5620 H   0  0  0  0  0  0  0  0  0  0  0  0
  127.6400  129.4613   62.7072 H   0  0  0  0  0  0  0  0  0  0  0  0
  128.1745  126.9404   62.9338 H   0  0  0  0  0  0  0  0  0  0  0  0
  126.8693  127.4497   61.7411 H   0  0  0  0  0  0  0  0  0  0  0  0
  130.4486  126.8476   62.0420 H   0  0  0  0  0  0  0  0  0  0  0  0
  130.7032  125.9740   60.4932 H   0  0  0  0  0  0  0  0  0  0  0  0
  130.4841  127.7569   60.4932 H   0  0  0  0  0  0  0  0  0  0  0  0
  129.7458  122.1104   64.5759 H   0  0  0  0  0  0  0  0  0  0  0  0
  128.8029  121.8685   63.0662 H   0  0  0  0  0  0  0  0  0  0  0  0
  130.5805  121.6097   63.0662 H   0  0  0  0  0  0  0  0  0  0  0  0
  132.4068  124.3192   62.3716 H   0  0  0  0  0  0  0  0  0  0  0  0
  131.5226  123.3091   61.1780 H   0  0  0  0  0  0  0  0  0  0  0  0
  131.3097  125.0927   61.1780 H   0  0  0  0  0  0  0  0  0  0  0  0
  130.2910  124.8269   66.7502 H   0  0  0  0  0  0  0  0  0  0  0  0
  128.9870  123.9745   65.8559 H   0  0  0  0  0  0  0  0  0  0  0  0
  130.6569  123.3127   65.8559 H   0  0  0  0  0  0  0  0  0  0  0  0
  132.2060  125.5481   65.6699 H   0  0  0  0  0  0  0  0  0  0  0  0
  132.4718  124.6895   64.1147 H   0  0  0  0  0  0  0  0  0  0  0  0
  132.0064  126.4244   64.1147 H   0  0  0  0  0  0  0  0  0  0  0  0
  129.3189  126.6410   65.6330 H   0  0  0  0  0  0  0  0  0  0  0  0
  130.0618  127.1456   64.0774 H   0  0  0  0  0  0  0  0  0  0  0  0
  128.5714  126.1431   64.0774 H   0  0  0  0  0  0  0  0  0  0  0  0
  126.2295  124.2173   61.5645 H   0  0  0  0  0  0  0  0  0  0  0  0
  126.1274  125.5518   60.3919 H   0  0  0  0  0  0  0  0  0  0  0  0
  1  2  1  0
  2  3  1  0
  2  4  1  0
  4  5  1  0
  5  6  1  0
  6  7  1  0
  7  8  2  0
  7  9  1  0
  9 10  1  0
 10 11  1  0
 11 12  1  0
 12 13  1  0
 13 14  1  0
 14 15  1  0
 14 16  1  0
 14 17  1  0
 17 18  1  0
 17 19  1  0
 17 20  1  0
 12 21  2  0
 21 22  1  0
 22 23  1  0
 23 24  1  0
 24 25  1  1
 24 26  1  0
 26 27  1  1
 27 28  1  0
 28 29  1  0
 28 30  1  0
 28 31  1  0
 31 32  1  0
 31 33  1  0
 31 34  1  0
 26 35  1  0
  9  2  1  0
 24 11  1  0
 35  4  1  0
 26  6  1  0
  1 36  1  0
  1 37  1  0
  1 38  1  0
  3 39  1  0
  3 40  1  0
  3 41  1  0
  4 42  1  6
  5 43  1  0
  5 44  1  0
  6 45  1  1
  9 46  1  6
 10 47  1  0
 10 48  1  0
 11 49  1  1
 15 50  1  0
 15 51  1  0
 15 52  1  0
 16 53  1  0
 16 54  1  0
 16 55  1  0
 18 56  1  0
 18 57  1  0
 18 58  1  0
 19 59  1  0
 19 60  1  0
 19 61  1  0
 20 62  1  0
 20 63  1  0
 20 64  1  0
 21 65  1  0
 22 66  1  0
 22 67  1  0
 23 68  1  0
 23 69  1  0
 25 70  1  0
 25 71  1  0
 25 72  1  0
 29 73  1  0
 29 74  1  0
 29 75  1  0
 30 76  1  0
 30 77  1  0
 30 78  1  0
 32 79  1  0
 32 80  1  0
 32 81  1  0
 33 82  1  0
 33 83  1  0
 33 84  1  0
 34 85  1  0
 34 86  1  0
 34 87  1  0
 35 88  1  0
 35 89  1  0
M  END
>  <Binding energies>  (1) 
[-6.79]

>  <Ligand effiencies>  (1) 
[-0.18351351351351353]

>  <Interactions>  (1) 
["V-B:PRO:540:CA:9855, V-A:ILE:538:C:4858, V-B:GLU:543:CB:9878, V-B:ALA:541:CB:9864, V-B:TYR:539:CE2:9848, V-A:TYR:484:CE2:4346, V-B:GLU:543:CG:9879, V-A:TYR:539:CE2:4876, V-A:TYR:539:CD1:4873, V-B:TYR:539:CZ:9849, V-A:ILE:538:CA:4860, V-A:TYR:539:CZ:4877, H-B:TYR:539:OH:9850, V-B:TYR:531:CE2:9765, V-A:TYR:539:CA:4869, V-A:TYR:484:CZ:4347, V-B:PRO:540:CB:9857, V-A:GLU:543:CD:4908, V-B:PRO:540:N:9856, V-B:GLU:543:CD:9880, V-A:MET:535:CE:4835, V-A:TYR:539:C:4867, V-A:LEU:475:CD2:4259, V-A:ARG:545:CZ:4926, V-A:PRO:540:N:4884, V-A:TYR:539:CG:4872, V-A:PRO:540:CB:4885, V-A:PRO:540:CA:4883, V-A:TYR:539:CD2:4874, V-A:TYR:539:CE1:4875"]

$$$$
ZINC257356958
     RDKit          3D

 84 89  0  0  0  0  0  0  0  0999 V2000
  133.8710  123.2110   60.1620 C   0  0  0  0  0  0  0  0  0  0  0  0
  133.4420  122.3720   61.3840 C   0  0  0  0  0  0  0  0  0  0  0  0
  133.9900  123.0400   62.6630 C   0  0  0  0  0  0  0  0  0  0  0  0
  134.0580  120.9620   61.2710 C   0  0  0  0  0  0  0  0  0  0  0  0
  131.5370  122.2260   61.4520 Si  0  0  0  0  0  4  0  0  0  0  0  0
  130.9900  123.1160   60.1290 O   0  0  0  0  0  0  0  0  0  0  0  0
  130.1060  124.2290   60.1470 C   0  0  1  0  0  0  0  0  0  0  0  0
  129.2620  124.3130   61.4150 C   0  0  0  0  0  0  0  0  0  0  0  0
  128.8010  125.7730   61.4390 C   0  0  0  0  0  0  0  0  0  0  0  0
  129.8230  126.5950   60.6100 C   0  0  2  0  0  0  0  0  0  0  0  0
  129.1770  127.5000   59.5190 C   0  0  1  0  0  0  0  0  0  0  0  0
  128.0690  128.4510   60.0410 C   0  0  0  0  0  0  0  0  0  0  0  0
  127.7810  129.6570   59.1240 C   0  0  0  0  0  0  0  0  0  0  0  0
  129.0290  130.4440   58.7040 C   0  0  0  0  0  0  0  0  0  0  0  0
  128.9050  131.7130   58.2470 C   0  0  0  0  0  0  0  0  0  0  0  0
  129.9960  132.5280   57.7240 C   0  0  0  0  0  0  0  0  0  0  0  0
  129.8090  133.6860   57.3580 O   0  0  0  0  0  0  0  0  0  0  0  0
  131.3910  131.8880   57.7080 C   0  0  0  0  0  0  0  0  0  0  0  0
  131.3240  130.3440   57.6820 C   0  0  0  0  0  0  0  0  0  0  0  0
  130.4040  129.7260   58.7850 C   0  0  1  0  0  0  0  0  0  0  0  0
  131.0420  129.9980   60.1770 C   0  0  0  0  0  0  0  0  0  0  0  0
  130.1830  128.1920   58.5460 C   0  0  1  0  0  0  0  0  0  0  0  0
  131.4640  127.3600   58.2690 C   0  0  0  0  0  0  0  0  0  0  0  0
  131.3370  125.8640   58.6030 C   0  0  0  0  0  0  0  0  0  0  0  0
  130.8720  125.5700   60.0600 C   0  0  2  0  0  0  0  0  0  0  0  0
  132.1200  125.5620   60.9870 C   0  0  0  0  0  0  0  0  0  0  0  0
  130.9340  120.4350   61.2570 C   0  0  0  0  0  0  0  0  0  0  0  0
  129.8500  119.9330   61.9860 C   0  0  0  0  0  0  0  0  0  0  0  0
  129.4220  118.6160   61.8260 C   0  0  0  0  0  0  0  0  0  0  0  0
  130.0770  117.7850   60.9230 C   0  0  0  0  0  0  0  0  0  0  0  0
  131.1470  118.2660   60.1750 C   0  0  0  0  0  0  0  0  0  0  0  0
  131.5650  119.5830   60.3430 C   0  0  0  0  0  0  0  0  0  0  0  0
  130.9120  123.0580   63.0330 C   0  0  0  0  0  0  0  0  0  0  0  0
  129.9270  122.4630   63.8300 C   0  0  0  0  0  0  0  0  0  0  0  0
  129.4840  123.0710   65.0000 C   0  0  0  0  0  0  0  0  0  0  0  0
  130.0360  124.2860   65.3950 C   0  0  0  0  0  0  0  0  0  0  0  0
  131.0310  124.8870   64.6290 C   0  0  0  0  0  0  0  0  0  0  0  0
  131.4660  124.2690   63.4600 C   0  0  0  0  0  0  0  0  0  0  0  0
  134.3468  124.1416   60.5049 H   0  0  0  0  0  0  0  0  0  0  0  0
  134.5857  122.6359   59.5550 H   0  0  0  0  0  0  0  0  0  0  0  0
  132.9863  123.4536   59.5550 H   0  0  0  0  0  0  0  0  0  0  0  0
  133.5751  122.5343   63.5474 H   0  0  0  0  0  0  0  0  0  0  0  0
  135.0871  122.9612   62.6766 H   0  0  0  0  0  0  0  0  0  0  0  0
  133.6983  124.1005   62.6766 H   0  0  0  0  0  0  0  0  0  0  0  0
  134.2348  120.5573   62.2785 H   0  0  0  0  0  0  0  0  0  0  0  0
  133.3662  120.3021   60.7270 H   0  0  0  0  0  0  0  0  0  0  0  0
  135.0122  121.0213   60.7270 H   0  0  0  0  0  0  0  0  0  0  0  0
  129.4588  124.0694   59.2720 H   0  0  0  0  0  0  0  0  0  0  0  0
  128.4018  123.6295   61.3611 H   0  0  0  0  0  0  0  0  0  0  0  0
  129.8165  124.0230   62.3197 H   0  0  0  0  0  0  0  0  0  0  0  0
  127.7992  125.8585   60.9928 H   0  0  0  0  0  0  0  0  0  0  0  0
  128.7480  126.1470   62.4721 H   0  0  0  0  0  0  0  0  0  0  0  0
  130.3212  127.3395   61.2483 H   0  0  0  0  0  0  0  0  0  0  0  0
  128.6495  126.7718   58.8854 H   0  0  0  0  0  0  0  0  0  0  0  0
  127.1405  127.8711   60.1487 H   0  0  0  0  0  0  0  0  0  0  0  0
  128.4312  128.8614   60.9952 H   0  0  0  0  0  0  0  0  0  0  0  0
  127.2848  129.2873   58.2145 H   0  0  0  0  0  0  0  0  0  0  0  0
  127.1524  130.3495   59.7031 H   0  0  0  0  0  0  0  0  0  0  0  0
  127.9024  132.1647   58.2722 H   0  0  0  0  0  0  0  0  0  0  0  0
  131.9296  132.2344   56.8136 H   0  0  0  0  0  0  0  0  0  0  0  0
  131.9112  132.1883   58.6295 H   0  0  0  0  0  0  0  0  0  0  0  0
  130.9423  130.0313   56.6988 H   0  0  0  0  0  0  0  0  0  0  0  0
  132.3430  129.9791   57.8780 H   0  0  0  0  0  0  0  0  0  0  0  0
  130.3385  129.6981   60.9677 H   0  0  0  0  0  0  0  0  0  0  0  0
  131.9716  129.4180   60.2739 H   0  0  0  0  0  0  0  0  0  0  0  0
  131.2671  131.0703   60.2739 H   0  0  0  0  0  0  0  0  0  0  0  0
  129.6612  128.1935   57.5776 H   0  0  0  0  0  0  0  0  0  0  0  0
  131.7106  127.4540   57.2011 H   0  0  0  0  0  0  0  0  0  0  0  0
  132.2473  127.7625   58.9281 H   0  0  0  0  0  0  0  0  0  0  0  0
  130.6072  125.4174   57.9117 H   0  0  0  0  0  0  0  0  0  0  0  0
  132.3432  125.4317   58.5001 H   0  0  0  0  0  0  0  0  0  0  0  0
  131.7960  125.5641   62.0382 H   0  0  0  0  0  0  0  0  0  0  0  0
  132.7178  124.6600   60.7894 H   0  0  0  0  0  0  0  0  0  0  0  0
  132.7293  126.4563   60.7894 H   0  0  0  0  0  0  0  0  0  0  0  0
  129.3268  120.5888   62.6974 H   0  0  0  0  0  0  0  0  0  0  0  0
  128.5711  118.2361   62.4105 H   0  0  0  0  0  0  0  0  0  0  0  0
  129.7475  116.7428   60.7997 H   0  0  0  0  0  0  0  0  0  0  0  0
  131.6591  117.6100   59.4557 H   0  0  0  0  0  0  0  0  0  0  0  0
  132.4076  119.9617   59.7459 H   0  0  0  0  0  0  0  0  0  0  0  0
  129.4958  121.4979   63.5258 H   0  0  0  0  0  0  0  0  0  0  0  0
  128.7021  122.5944   65.6094 H   0  0  0  0  0  0  0  0  0  0  0  0
  129.6846  124.7735   66.3163 H   0  0  0  0  0  0  0  0  0  0  0  0
  131.4707  125.8443   64.9455 H   0  0  0  0  0  0  0  0  0  0  0  0
  132.2592  124.7413   62.8618 H   0  0  0  0  0  0  0  0  0  0  0  0
  1  2  1  0
  2  3  1  0
  2  4  1  0
  2  5  1  0
  5  6  1  0
  6  7  1  0
  7  8  1  0
  8  9  1  0
  9 10  1  0
 10 11  1  0
 11 12  1  0
 12 13  1  0
 13 14  1  0
 14 15  2  0
 15 16  1  0
 16 17  2  0
 16 18  1  0
 18 19  1  0
 19 20  1  0
 20 21  1  1
 20 22  1  0
 22 23  1  0
 23 24  1  0
 24 25  1  0
 25 26  1  1
  5 27  1  0
 27 28  2  0
 28 29  1  0
 29 30  2  0
 30 31  1  0
 31 32  2  0
  5 33  1  0
 33 34  2  0
 34 35  1  0
 35 36  2  0
 36 37  1  0
 37 38  2  0
 25  7  1  0
 32 27  1  0
 38 33  1  0
 25 10  1  0
 22 11  1  0
 20 14  1  0
  1 39  1  0
  1 40  1  0
  1 41  1  0
  3 42  1  0
  3 43  1  0
  3 44  1  0
  4 45  1  0
  4 46  1  0
  4 47  1  0
  7 48  1  6
  8 49  1  0
  8 50  1  0
  9 51  1  0
  9 52  1  0
 10 53  1  1
 11 54  1  6
 12 55  1  0
 12 56  1  0
 13 57  1  0
 13 58  1  0
 15 59  1  0
 18 60  1  0
 18 61  1  0
 19 62  1  0
 19 63  1  0
 21 64  1  0
 21 65  1  0
 21 66  1  0
 22 67  1  6
 23 68  1  0
 23 69  1  0
 24 70  1  0
 24 71  1  0
 26 72  1  0
 26 73  1  0
 26 74  1  0
 28 75  1  0
 29 76  1  0
 30 77  1  0
 31 78  1  0
 32 79  1  0
 34 80  1  0
 35 81  1  0
 36 82  1  0
 37 83  1  0
 38 84  1  0
M  END
>  <Binding energies>  (1) 
[-9.87]

>  <Ligand effiencies>  (1) 
[-0.25973684210526315]

>  <Interactions>  (1) 
["V-A:ILE:369:CG2:3237, V-A:GLY:454:CA:4049, V-A:ILE:369:CB:3236, V-B:GLU:543:CB:9878, V-B:ALA:541:CB:9864, V-B:TYR:539:CE2:9848, V-A:TYR:484:CE2:4346, V-A:LEU:475:CG:4257, V-B:GLU:543:CG:9879, V-B:TYR:539:C:9839, V-A:ASP:366:CG:3213, V-A:LEU:475:CD1:4258, V-B:TYR:539:CB:9843, V-A:SER:385:C:3405, V-A:ILE:369:CD1:3239, V-A:PRO:482:CB:4326, V-B:TYR:539:CD2:9846, V-A:SER:385:CB:3409, V-A:ASP:366:CB:3212, V-A:LEU:475:CD2:4259, V-A:PRO:540:N:4884, H-A:TYR:539:N:4870, V-A:PRO:540:CB:4885, V-A:PRO:540:CA:4883, V-A:SER:385:CA:3407, V-B:PRO:540:C:9853, V-B:ALA:541:CA:9862, V-A:HIS:383:NE2:3394"]

$$$$
ZINC257356992
     RDKit          3D

 61 64  0  0  0  0  0  0  0  0999 V2000
  131.3360  127.3260   61.7580 C   0  0  0  0  0  0  0  0  0  0  0  0
  131.2680  126.9710   60.2780 C   0  0  0  0  0  0  0  0  0  0  0  0
  132.0830  126.2000   59.7690 O   0  0  0  0  0  0  0  0  0  0  0  0
  130.2440  127.5870   59.6450 O   0  0  0  0  0  0  0  0  0  0  0  0
  128.8990  127.4900   60.1090 C   0  0  2  0  0  0  0  0  0  0  0  0
  128.5150  126.0350   60.5290 C   0  0  0  0  0  0  0  0  0  0  0  0
  128.3160  125.0470   59.3320 C   0  0  2  0  0  0  0  0  0  0  0  0
  129.6760  124.8180   58.5980 C   0  0  0  0  0  0  0  0  0  0  0  0
  127.2040  125.6670   58.4360 C   0  0  2  0  0  0  0  0  0  0  0  0
  126.7820  124.5540   57.4640 C   0  0  0  0  0  0  0  0  0  0  0  0
  127.0350  123.2410   58.2360 C   0  0  0  0  0  0  0  0  0  0  0  0
  127.6420  123.6460   59.6150 C   0  0  1  0  0  0  0  0  0  0  0  0
  128.9440  122.2200   60.1660 Br  0  0  0  0  0  0  0  0  0  0  0  0
  126.5630  123.6380   60.7470 C   0  0  0  0  0  0  0  0  0  0  0  0
  125.3740  124.5980   60.6520 C   0  0  0  0  0  0  0  0  0  0  0  0
  126.6490  122.8910   61.7210 O   0  0  0  0  0  0  0  0  0  0  0  0
  127.5220  127.0920   57.9050 C   0  0  2  0  0  0  0  0  0  0  0  0
  128.3640  127.2180   56.6080 C   0  0  0  0  0  0  0  0  0  0  0  0
  129.3440  128.3990   56.6510 C   0  0  0  0  0  0  0  0  0  0  0  0
  128.6880  129.7080   57.1540 C   0  0  2  0  0  0  0  0  0  0  0  0
  129.6010  130.9690   56.9240 C   0  0  2  0  0  0  0  0  0  0  0  0
  131.5110  130.5900   57.3890 Br  0  0  0  0  0  0  0  0  0  0  0  0
  129.2120  132.2020   57.7600 C   0  0  0  0  0  0  0  0  0  0  0  0
  129.1080  133.3230   57.2640 O   0  0  0  0  0  0  0  0  0  0  0  0
  128.9410  131.9440   59.2550 C   0  0  0  0  0  0  0  0  0  0  0  0
  128.9040  130.4350   59.5910 C   0  0  0  0  0  0  0  0  0  0  0  0
  128.0440  129.5900   58.6010 C   0  0  1  0  0  0  0  0  0  0  0  0
  126.6040  130.2020   58.5500 C   0  0  0  0  0  0  0  0  0  0  0  0
  127.8760  128.0790   59.0710 C   0  0  2  0  0  0  0  0  0  0  0  0
  131.1628  126.4219   62.3602 H   0  0  0  0  0  0  0  0  0  0  0  0
  132.3292  127.7372   61.9912 H   0  0  0  0  0  0  0  0  0  0  0  0
  130.5650  128.0752   61.9912 H   0  0  0  0  0  0  0  0  0  0  0  0
  128.8401  128.1086   61.0167 H   0  0  0  0  0  0  0  0  0  0  0  0
  129.3157  125.6399   61.1715 H   0  0  0  0  0  0  0  0  0  0  0  0
  127.5454  126.1029   61.0441 H   0  0  0  0  0  0  0  0  0  0  0  0
  130.4757  124.6834   59.3412 H   0  0  0  0  0  0  0  0  0  0  0  0
  129.6058  123.9190   57.9680 H   0  0  0  0  0  0  0  0  0  0  0  0
  129.9041  125.6904   57.9680 H   0  0  0  0  0  0  0  0  0  0  0  0
  126.3012  125.9546   58.9947 H   0  0  0  0  0  0  0  0  0  0  0  0
  125.7181  124.6509   57.2020 H   0  0  0  0  0  0  0  0  0  0  0  0
  127.3415  124.5943   56.5178 H   0  0  0  0  0  0  0  0  0  0  0  0
  126.0895  122.6981   58.3820 H   0  0  0  0  0  0  0  0  0  0  0  0
  127.7162  122.5790   57.6812 H   0  0  0  0  0  0  0  0  0  0  0  0
  125.0392  124.8683   61.6643 H   0  0  0  0  0  0  0  0  0  0  0  0
  125.6785  125.5065   60.1117 H   0  0  0  0  0  0  0  0  0  0  0  0
  124.5501  124.1089   60.1117 H   0  0  0  0  0  0  0  0  0  0  0  0
  126.5681  127.4415   57.4831 H   0  0  0  0  0  0  0  0  0  0  0  0
  128.9374  126.2896   56.4690 H   0  0  0  0  0  0  0  0  0  0  0  0
  127.6674  127.3941   55.7751 H   0  0  0  0  0  0  0  0  0  0  0  0
  130.1748  128.1414   57.3244 H   0  0  0  0  0  0  0  0  0  0  0  0
  129.6911  128.5776   55.6226 H   0  0  0  0  0  0  0  0  0  0  0  0
  127.8129  129.8813   56.5105 H   0  0  0  0  0  0  0  0  0  0  0  0
  129.4604  131.1891   55.8554 H   0  0  0  0  0  0  0  0  0  0  0  0
  129.7377  132.4190   59.8464 H   0  0  0  0  0  0  0  0  0  0  0  0
  127.9552  132.3677   59.4971 H   0  0  0  0  0  0  0  0  0  0  0  0
  129.9342  130.0500   59.5711 H   0  0  0  0  0  0  0  0  0  0  0  0
  128.4376  130.3391   60.5826 H   0  0  0  0  0  0  0  0  0  0  0  0
  126.2356  130.3586   59.5746 H   0  0  0  0  0  0  0  0  0  0  0  0
  126.6336  131.1653   58.0198 H   0  0  0  0  0  0  0  0  0  0  0  0
  125.9310  129.5121   58.0198 H   0  0  0  0  0  0  0  0  0  0  0  0
  126.9837  128.1708   59.7076 H   0  0  0  0  0  0  0  0  0  0  0  0
  1  2  1  0
  2  3  2  0
  2  4  1  0
  4  5  1  0
  5  6  1  0
  6  7  1  0
  7  8  1  6
  7  9  1  0
  9 10  1  0
 10 11  1  0
 11 12  1  0
 12 13  1  1
 12 14  1  0
 14 15  1  0
 14 16  2  0
  9 17  1  0
 17 18  1  0
 18 19  1  0
 19 20  1  0
 20 21  1  0
 21 22  1  0
 21 23  1  0
 23 24  2  0
 23 25  1  0
 25 26  1  0
 26 27  1  0
 27 28  1  6
 27 29  1  0
 29  5  1  0
 12  7  1  0
 29 17  1  0
 27 20  1  0
  1 30  1  0
  1 31  1  0
  1 32  1  0
  5 33  1  1
  6 34  1  0
  6 35  1  0
  8 36  1  0
  8 37  1  0
  8 38  1  0
  9 39  1  1
 10 40  1  0
 10 41  1  0
 11 42  1  0
 11 43  1  0
 15 44  1  0
 15 45  1  0
 15 46  1  0
 17 47  1  6
 18 48  1  0
 18 49  1  0
 19 50  1  0
 19 51  1  0
 20 52  1  6
 21 53  1  6
 25 54  1  0
 25 55  1  0
 26 56  1  0
 26 57  1  0
 28 58  1  0
 28 59  1  0
 28 60  1  0
 29 61  1  1
M  END
>  <Binding energies>  (1) 
[-7.64]

>  <Ligand effiencies>  (1) 
[-0.263448275862069]

>  <Interactions>  (1) 
["V-B:PRO:540:CA:9855, H-A:TYR:539:N:4870, V-B:TYR:539:CZ:9849, V-B:TYR:539:CD2:9846, V-A:TYR:531:CZ:4794, H-B:ALA:541:N:9863, V-A:MET:535:CE:4835, V-B:ASP:366:CG:8184, V-B:TYR:539:CE2:9848, V-B:PRO:540:CB:9857, V-B:TYR:539:C:9839, V-A:ASP:366:CG:3213, V-B:PRO:540:N:9856"]

$$$$
ZINC2573751
     RDKit          3D

 60 63  0  0  0  0  0  0  0  0999 V2000
  133.4260  122.4250   61.4900 C   0  0  0  0  0  0  0  0  0  0  0  0
  133.8580  123.9160   61.5040 C   0  0  0  0  0  0  0  0  0  0  0  0
  135.0980  124.1560   62.3920 C   0  0  0  0  0  0  0  0  0  0  0  0
  134.2140  124.3820   60.0660 C   0  0  0  0  0  0  0  0  0  0  0  0
  133.0120  124.4670   59.1070 C   0  0  0  0  0  0  0  0  0  0  0  0
  133.1850  124.5310   57.8890 O   0  0  0  0  0  0  0  0  0  0  0  0
  131.6790  124.6520   59.7170 C   0  0  0  0  0  0  0  0  0  0  0  0
  131.5020  124.8180   61.0640 C   0  0  0  0  0  0  0  0  0  0  0  0
  132.7030  124.8210   62.0330 C   0  0  0  0  0  0  0  0  0  0  0  0
  130.1980  124.8230   61.5980 N   0  0  0  0  0  0  0  0  0  0  0  0
  129.9900  125.2960   62.9150 C   0  0  0  0  0  0  0  0  0  0  0  0
  129.3890  126.5430   63.1100 C   0  0  0  0  0  0  0  0  0  0  0  0
  129.1410  127.0020   64.4010 C   0  0  0  0  0  0  0  0  0  0  0  0
  129.4790  126.2060   65.4940 C   0  0  0  0  0  0  0  0  0  0  0  0
  129.1380  126.8320   67.2590 Br  0  0  0  0  0  0  0  0  0  0  0  0
  130.0600  124.9520   65.3070 C   0  0  0  0  0  0  0  0  0  0  0  0
  130.3090  124.4930   64.0170 C   0  0  0  0  0  0  0  0  0  0  0  0
  129.1140  124.3590   60.8300 C   0  0  0  0  0  0  0  0  0  0  0  0
  127.9930  123.9540   61.5240 N   0  0  0  0  0  0  0  0  0  0  0  0
  129.2600  124.1600   59.4980 C   0  0  0  0  0  0  0  0  0  0  0  0
  128.2680  123.4760   58.7300 C   0  0  0  0  0  0  0  0  0  0  0  0
  127.4530  122.9370   58.1100 N   0  0  0  0  0  0  0  0  0  0  0  0
  130.4660  124.7550   58.7670 C   0  0  1  0  0  0  0  0  0  0  0  0
  130.2280  126.2170   58.3830 C   0  0  0  0  0  0  0  0  0  0  0  0
  129.1450  126.8320   57.7590 C   0  0  0  0  0  0  0  0  0  0  0  0
  129.3030  128.2000   57.5310 C   0  0  0  0  0  0  0  0  0  0  0  0
  130.5130  128.7340   57.9680 C   0  0  0  0  0  0  0  0  0  0  0  0
  131.0510  130.1710   57.8880 C   0  0  0  0  0  0  0  0  0  0  0  0
  132.5990  130.1760   57.8520 C   0  0  0  0  0  0  0  0  0  0  0  0
  130.5360  130.8610   56.6040 C   0  0  0  0  0  0  0  0  0  0  0  0
  130.5920  130.9750   59.1270 C   0  0  0  0  0  0  0  0  0  0  0  0
  131.4300  127.4340   58.7120 S   0  0  0  0  0  0  0  0  0  0  0  0
  133.3214  122.0639   62.5237 H   0  0  0  0  0  0  0  0  0  0  0  0
  132.4626  122.3273   60.9682 H   0  0  0  0  0  0  0  0  0  0  0  0
  134.1879  121.8274   60.9682 H   0  0  0  0  0  0  0  0  0  0  0  0
  134.8069  124.0997   63.4513 H   0  0  0  0  0  0  0  0  0  0  0  0
  135.8560  123.3879   62.1787 H   0  0  0  0  0  0  0  0  0  0  0  0
  135.5146  125.1515   62.1787 H   0  0  0  0  0  0  0  0  0  0  0  0
  134.6725  125.3797   60.1317 H   0  0  0  0  0  0  0  0  0  0  0  0
  134.8933  123.6233   59.6501 H   0  0  0  0  0  0  0  0  0  0  0  0
  133.0747  125.8507   62.1403 H   0  0  0  0  0  0  0  0  0  0  0  0
  132.3681  124.4260   63.0034 H   0  0  0  0  0  0  0  0  0  0  0  0
  129.1120  127.1616   62.2436 H   0  0  0  0  0  0  0  0  0  0  0  0
  128.6803  127.9885   64.5575 H   0  0  0  0  0  0  0  0  0  0  0  0
  130.3202  124.3286   66.1751 H   0  0  0  0  0  0  0  0  0  0  0  0
  130.7562  123.4999   63.8631 H   0  0  0  0  0  0  0  0  0  0  0  0
  127.5870  124.5450   62.2360 H   0  0  0  0  0  0  0  0  0  0  0  0
  127.4500  123.1630   61.2100 H   0  0  0  0  0  0  0  0  0  0  0  0
  130.6411  124.2005   57.8333 H   0  0  0  0  0  0  0  0  0  0  0  0
  128.2370  126.2830   57.4689 H   0  0  0  0  0  0  0  0  0  0  0  0
  128.5295  128.8109   57.0426 H   0  0  0  0  0  0  0  0  0  0  0  0
  132.9897  130.1773   58.8803 H   0  0  0  0  0  0  0  0  0  0  0  0
  132.9564  129.2790   57.3251 H   0  0  0  0  0  0  0  0  0  0  0  0
  132.9506  131.0753   57.3251 H   0  0  0  0  0  0  0  0  0  0  0  0
  129.8986  131.7149   56.8771 H   0  0  0  0  0  0  0  0  0  0  0  0
  131.3912  131.2167   56.0107 H   0  0  0  0  0  0  0  0  0  0  0  0
  129.9517  130.1423   56.0107 H   0  0  0  0  0  0  0  0  0  0  0  0
  130.8951  130.4441   60.0415 H   0  0  0  0  0  0  0  0  0  0  0  0
  131.0572  131.9716   59.1103 H   0  0  0  0  0  0  0  0  0  0  0  0
  129.4973  131.0811   59.1103 H   0  0  0  0  0  0  0  0  0  0  0  0
  1  2  1  0
  2  3  1  0
  2  4  1  0
  4  5  1  0
  5  6  2  0
  5  7  1  0
  7  8  2  0
  8  9  1  0
  8 10  1  0
 10 11  1  0
 11 12  2  0
 12 13  1  0
 13 14  2  0
 14 15  1  0
 14 16  1  0
 16 17  2  0
 10 18  1  0
 18 19  1  0
 18 20  2  0
 20 21  1  0
 21 22  3  0
 20 23  1  0
 23 24  1  0
 24 25  2  0
 25 26  1  0
 26 27  2  0
 27 28  1  0
 28 29  1  0
 28 30  1  0
 28 31  1  0
 27 32  1  0
  9  2  1  0
 17 11  1  0
 32 24  1  0
 23  7  1  0
  1 33  1  0
  1 34  1  0
  1 35  1  0
  3 36  1  0
  3 37  1  0
  3 38  1  0
  4 39  1  0
  4 40  1  0
  9 41  1  0
  9 42  1  0
 12 43  1  0
 13 44  1  0
 16 45  1  0
 17 46  1  0
 19 47  1  0
 19 48  1  0
 23 49  1  6
 25 50  1  0
 26 51  1  0
 29 52  1  0
 29 53  1  0
 29 54  1  0
 30 55  1  0
 30 56  1  0
 30 57  1  0
 31 58  1  0
 31 59  1  0
 31 60  1  0
M  END
>  <Binding energies>  (1) 
[-8.79]

>  <Ligand effiencies>  (1) 
[-0.25852941176470584]

>  <Interactions>  (1) 
["V-A:ILE:369:CG2:3237, V-A:ASP:366:CA:3210, V-A:GLY:454:CA:4049, V-A:ILE:369:CB:3236, V-B:GLU:543:CB:9878, V-B:TYR:539:CE2:9848, V-B:GLU:543:CG:9879, V-A:ASP:366:CG:3213, V-A:LEU:363:CD1:3189, V-B:TYR:539:CZ:9849, H-B:GLU:543:OE1:9881, V-A:TYR:531:CE2:4793, H-B:TYR:539:OH:9850, V-A:GLU:543:CD:4908, V-A:GLY:453:C:4042, V-A:ILE:369:CD1:3239, V-B:TYR:539:CD2:9846, V-A:TYR:531:CZ:4794, V-B:GLU:543:CD:9880, V-A:MET:535:CE:4835, V-A:ASP:366:CB:3212, V-A:GLY:453:CA:4044"]

$$$$
ZINC257384798
     RDKit          3D

 38 40  0  0  0  0  0  0  0  0999 V2000
  132.0090  122.9140   63.8280 C   0  0  0  0  0  0  0  0  0  0  0  0
  132.1420  124.4760   63.7040 C   0  0  2  0  0  0  0  0  0  0  0  0
  132.8710  124.8910   64.9970 C   0  0  0  0  0  0  0  0  0  0  0  0
  134.0680  125.1000   65.1860 O   0  0  0  0  0  0  0  0  0  0  0  0
  131.9400  125.0690   65.9810 O   0  0  0  0  0  0  0  0  0  0  0  0
  130.6060  124.9650   65.4650 C   0  0  0  0  0  0  0  0  0  0  0  0
  130.8310  125.2710   63.9840 C   0  0  1  0  0  0  0  0  0  0  0  0
  130.9220  126.6960   63.8780 O   0  0  0  0  0  0  0  0  0  0  0  0
  129.8030  124.8310   62.9580 C   0  0  0  0  0  0  0  0  0  0  0  0
  130.1560  124.5440   61.6870 C   0  0  0  0  0  0  0  0  0  0  0  0
  131.6050  124.5380   61.1670 C   0  0  2  0  0  0  0  0  0  0  0  0
  131.9170  123.2250   60.4100 C   0  0  0  0  0  0  0  0  0  0  0  0
  133.3420  123.2400   59.8250 C   0  0  1  0  0  0  0  0  0  0  0  0
  133.6040  124.3610   58.7880 C   0  0  0  0  0  0  0  0  0  0  0  0
  133.9700  123.8190   57.5350 O   0  0  0  0  0  0  0  0  0  0  0  0
  134.3090  123.2120   61.0240 C   0  0  0  0  0  0  0  0  0  0  0  0
  134.1380  124.4340   61.9560 C   0  0  0  0  0  0  0  0  0  0  0  0
  132.6760  124.9050   62.2870 C   0  0  2  0  0  0  0  0  0  0  0  0
  131.9849  122.6313   64.8908 H   0  0  0  0  0  0  0  0  0  0  0  0
  131.0796  122.5852   63.3400 H   0  0  0  0  0  0  0  0  0  0  0  0
  132.8694  122.4329   63.3400 H   0  0  0  0  0  0  0  0  0  0  0  0
  130.1964  123.9544   65.6094 H   0  0  0  0  0  0  0  0  0  0  0  0
  129.8805  125.6299   65.9565 H   0  0  0  0  0  0  0  0  0  0  0  0
  131.4000  127.0280   64.6420 H   0  0  0  0  0  0  0  0  0  0  0  0
  128.7478  124.7441   63.2563 H   0  0  0  0  0  0  0  0  0  0  0  0
  129.3544  124.2979   60.9750 H   0  0  0  0  0  0  0  0  0  0  0  0
  131.6941  125.3535   60.4342 H   0  0  0  0  0  0  0  0  0  0  0  0
  131.8250  122.3791   61.1072 H   0  0  0  0  0  0  0  0  0  0  0  0
  131.2024  123.1252   59.5797 H   0  0  0  0  0  0  0  0  0  0  0  0
  133.5061  122.3500   59.1997 H   0  0  0  0  0  0  0  0  0  0  0  0
  132.6892  124.9597   58.6672 H   0  0  0  0  0  0  0  0  0  0  0  0
  134.4309  124.9882   59.1526 H   0  0  0  0  0  0  0  0  0  0  0  0
  134.6880  124.3420   57.1740 H   0  0  0  0  0  0  0  0  0  0  0  0
  134.1226  122.2970   61.6054 H   0  0  0  0  0  0  0  0  0  0  0  0
  135.3339  123.2384   60.6255 H   0  0  0  0  0  0  0  0  0  0  0  0
  134.6278  124.1898   62.9102 H   0  0  0  0  0  0  0  0  0  0  0  0
  134.5788  125.2724   61.3967 H   0  0  0  0  0  0  0  0  0  0  0  0
  132.7869  125.9992   62.3056 H   0  0  0  0  0  0  0  0  0  0  0  0
  2  1  1  6
  2  3  1  0
  3  4  2  0
  3  5  1  0
  5  6  1  0
  6  7  1  0
  7  8  1  1
  7  9  1  0
  9 10  2  0
 10 11  1  0
 11 12  1  0
 12 13  1  0
 13 14  1  0
 14 15  1  0
 13 16  1  0
 16 17  1  0
 17 18  1  0
  7  2  1  0
 18 11  1  0
 18  2  1  0
  1 19  1  0
  1 20  1  0
  1 21  1  0
  6 22  1  0
  6 23  1  0
  8 24  1  0
  9 25  1  0
 10 26  1  0
 11 27  1  6
 12 28  1  0
 12 29  1  0
 13 30  1  6
 14 31  1  0
 14 32  1  0
 15 33  1  0
 16 34  1  0
 16 35  1  0
 17 36  1  0
 17 37  1  0
 18 38  1  1
M  END
>  <Binding energies>  (1) 
[-6.82]

>  <Ligand effiencies>  (1) 
[-0.341]

>  <Interactions>  (1) 
["V-A:ILE:369:CG2:3237, V-A:ASP:366:CA:3210, H-A:GLU:543:OE2:4910, V-A:ILE:369:CB:3236, H-A:ARG:545:NH1:4927, V-B:TYR:539:CE2:9848, V-B:GLU:543:CG:9879, V-A:ASP:366:CG:3213, H-A:ASN:370:N:3244, H-B:TYR:539:OH:9850, H-A:GLY:454:N:4050, V-A:ILE:369:CD1:3239, V-A:ASP:366:C:3208, V-A:ILE:369:CG1:3238, V-A:ASP:366:CB:3212, V-A:LEU:475:CD2:4259, H-A:ARG:545:NH2:4928, V-A:ARG:545:CZ:4926, H-A:GLU:543:OE1:4909, H-A:ASP:366:O:3209, H-A:ARG:545:NE:4924, H-A:TYR:484:OH:4348"]

$$$$
ZINC257385712
     RDKit          3D

 79 83  0  0  0  0  0  0  0  0999 V2000
  125.6930  130.4040   58.3130 C   0  0  0  0  0  0  0  0  0  0  0  0
  126.9880  129.5530   58.2670 C   0  0  2  0  0  0  0  0  0  0  0  0
  127.2380  129.0820   56.8200 C   0  0  0  0  0  0  0  0  0  0  0  0
  128.6250  128.4440   56.6740 C   0  0  0  0  0  0  0  0  0  0  0  0
  128.8280  127.2020   57.6030 C   0  0  2  0  0  0  0  0  0  0  0  0
  130.3800  126.8840   57.4950 C   0  0  0  0  0  0  0  0  0  0  0  0
  131.1760  127.3640   58.3360 O   0  0  0  0  0  0  0  0  0  0  0  0
  130.7790  126.1960   56.5240 O   0  0  0  0  0  0  0  0  0  0  0  0
  127.9720  125.9970   57.1180 C   0  0  0  0  0  0  0  0  0  0  0  0
  128.2490  124.7170   57.9200 C   0  0  0  0  0  0  0  0  0  0  0  0
  128.1860  124.8270   59.4960 C   0  0  2  0  0  0  0  0  0  0  0  0
  126.7080  124.5620   59.9220 C   0  0  0  0  0  0  0  0  0  0  0  0
  128.5360  126.2640   59.9990 C   0  0  0  0  0  0  0  0  0  0  0  0
  128.9880  126.4360   61.2530 C   0  0  0  0  0  0  0  0  0  0  0  0
  129.2160  125.3630   62.2880 C   0  0  0  0  0  0  0  0  0  0  0  0
  129.1390  123.8860   61.7860 C   0  0  2  0  0  0  0  0  0  0  0  0
  130.1510  122.9470   62.6010 C   0  0  2  0  0  0  0  0  0  0  0  0
  129.6920  121.4520   62.5010 C   0  0  0  0  0  0  0  0  0  0  0  0
  130.0750  123.2850   64.1430 C   0  0  0  0  0  0  0  0  0  0  0  0
  131.1850  124.1400   64.7840 C   0  0  0  0  0  0  0  0  0  0  0  0
  132.5910  123.7660   64.2890 C   0  0  2  0  0  0  0  0  0  0  0  0
  133.5720  124.4420   65.0610 O   0  0  0  0  0  0  0  0  0  0  0  0
  132.7560  123.8970   62.7360 C   0  0  2  0  0  0  0  0  0  0  0  0
  134.1730  123.3710   62.3490 C   0  0  0  0  0  0  0  0  0  0  0  0
  132.7570  125.3770   62.2440 C   0  0  0  0  0  0  0  0  0  0  0  0
  131.9480  126.2220   62.6290 O   0  0  0  0  0  0  0  0  0  0  0  0
  131.6350  123.0220   62.0240 C   0  0  2  0  0  0  0  0  0  0  0  0
  131.6730  123.0400   60.4690 C   0  0  0  0  0  0  0  0  0  0  0  0
  132.4390  122.3280   59.8210 O   0  0  0  0  0  0  0  0  0  0  0  0
  130.6670  123.9820   59.7840 C   0  0  0  0  0  0  0  0  0  0  0  0
  129.1720  123.7560   60.1970 C   0  0  2  0  0  0  0  0  0  0  0  0
  128.7300  122.3210   59.7260 C   0  0  0  0  0  0  0  0  0  0  0  0
  128.3620  127.5130   59.0820 C   0  0  2  0  0  0  0  0  0  0  0  0
  127.0090  128.3290   59.2450 C   0  0  1  0  0  0  0  0  0  0  0  0
  126.8440  128.8190   60.7110 C   0  0  0  0  0  0  0  0  0  0  0  0
  125.8520  127.5410   59.0380 O   0  0  0  0  0  0  0  0  0  0  0  0
  125.4124  130.5884   59.3605 H   0  0  0  0  0  0  0  0  0  0  0  0
  125.8671  131.3643   57.8056 H   0  0  0  0  0  0  0  0  0  0  0  0
  124.8806  129.8631   57.8056 H   0  0  0  0  0  0  0  0  0  0  0  0
  127.7968  130.2120   58.6157 H   0  0  0  0  0  0  0  0  0  0  0  0
  126.4721  128.3412   56.5468 H   0  0  0  0  0  0  0  0  0  0  0  0
  127.1866  129.9574   56.1559 H   0  0  0  0  0  0  0  0  0  0  0  0
  128.7559  128.1253   55.6293 H   0  0  0  0  0  0  0  0  0  0  0  0
  129.3674  129.2001   56.9691 H   0  0  0  0  0  0  0  0  0  0  0  0
  126.9080  126.2555   57.2229 H   0  0  0  0  0  0  0  0  0  0  0  0
  128.2390  125.7984   56.0695 H   0  0  0  0  0  0  0  0  0  0  0  0
  127.5082  123.9651   57.6104 H   0  0  0  0  0  0  0  0  0  0  0  0
  129.2945  124.4602   57.6941 H   0  0  0  0  0  0  0  0  0  0  0  0
  126.6394  124.5497   61.0198 H   0  0  0  0  0  0  0  0  0  0  0  0
  126.0630  125.3588   59.5232 H   0  0  0  0  0  0  0  0  0  0  0  0
  126.3800  123.5907   59.5232 H   0  0  0  0  0  0  0  0  0  0  0  0
  129.2157  127.4685   61.5565 H   0  0  0  0  0  0  0  0  0  0  0  0
  130.2169  125.5189   62.7168 H   0  0  0  0  0  0  0  0  0  0  0  0
  128.3905  125.4706   63.0070 H   0  0  0  0  0  0  0  0  0  0  0  0
  128.1407  123.4897   62.0233 H   0  0  0  0  0  0  0  0  0  0  0  0
  129.5652  121.0389   63.5126 H   0  0  0  0  0  0  0  0  0  0  0  0
  128.7357  121.3974   61.9601 H   0  0  0  0  0  0  0  0  0  0  0  0
  130.4529  120.8702   61.9601 H   0  0  0  0  0  0  0  0  0  0  0  0
  129.1256  123.8153   64.3087 H   0  0  0  0  0  0  0  0  0  0  0  0
  130.1876  122.3051   64.6299 H   0  0  0  0  0  0  0  0  0  0  0  0
  130.9976  125.1966   64.5422 H   0  0  0  0  0  0  0  0  0  0  0  0
  131.1577  123.9563   65.8682 H   0  0  0  0  0  0  0  0  0  0  0  0
  132.7498  122.6905   64.4564 H   0  0  0  0  0  0  0  0  0  0  0  0
  133.2150  124.5970   65.9390 H   0  0  0  0  0  0  0  0  0  0  0  0
  134.7472  123.1579   63.2627 H   0  0  0  0  0  0  0  0  0  0  0  0
  134.0729  122.4501   61.7557 H   0  0  0  0  0  0  0  0  0  0  0  0
  134.6980  124.1342   61.7557 H   0  0  0  0  0  0  0  0  0  0  0  0
  133.5212  125.6824   61.5141 H   0  0  0  0  0  0  0  0  0  0  0  0
  132.0145  122.0534   62.3815 H   0  0  0  0  0  0  0  0  0  0  0  0
  130.9397  125.0171   60.0373 H   0  0  0  0  0  0  0  0  0  0  0  0
  130.7270  123.7699   58.7063 H   0  0  0  0  0  0  0  0  0  0  0  0
  128.5356  121.6900   60.6058 H   0  0  0  0  0  0  0  0  0  0  0  0
  127.8143  122.3993   59.1215 H   0  0  0  0  0  0  0  0  0  0  0  0
  129.5310  121.8706   59.1215 H   0  0  0  0  0  0  0  0  0  0  0  0
  129.0604  128.2716   59.4651 H   0  0  0  0  0  0  0  0  0  0  0  0
  127.1172  128.0077   61.4017 H   0  0  0  0  0  0  0  0  0  0  0  0
  127.5002  129.6847   60.8843 H   0  0  0  0  0  0  0  0  0  0  0  0
  125.7978  129.1114   60.8843 H   0  0  0  0  0  0  0  0  0  0  0  0
  125.6870  127.0320   59.8360 H   0  0  0  0  0  0  0  0  0  0  0  0
  1  2  1  0
  2  3  1  0
  3  4  1  0
  4  5  1  0
  5  6  1  1
  6  7  2  0
  6  8  1  0
  5  9  1  0
  9 10  1  0
 10 11  1  0
 11 12  1  1
 11 13  1  0
 13 14  2  0
 14 15  1  0
 15 16  1  0
 16 17  1  0
 17 18  1  1
 17 19  1  0
 19 20  1  0
 20 21  1  0
 21 22  1  0
 21 23  1  0
 23 24  1  6
 23 25  1  0
 25 26  2  0
 23 27  1  0
 27 28  1  0
 28 29  2  0
 28 30  1  0
 30 31  1  0
 31 32  1  1
 13 33  1  0
 33 34  1  0
 34 35  1  0
 34 36  1  6
 34  2  1  0
 33  5  1  0
 31 11  1  0
 31 16  1  0
 27 17  1  0
  1 37  1  0
  1 38  1  0
  1 39  1  0
  2 40  1  1
  3 41  1  0
  3 42  1  0
  4 43  1  0
  4 44  1  0
  9 45  1  0
  9 46  1  0
 10 47  1  0
 10 48  1  0
 12 49  1  0
 12 50  1  0
 12 51  1  0
 14 52  1  0
 15 53  1  0
 15 54  1  0
 16 55  1  1
 18 56  1  0
 18 57  1  0
 18 58  1  0
 19 59  1  0
 19 60  1  0
 20 61  1  0
 20 62  1  0
 21 63  1  6
 22 64  1  0
 24 65  1  0
 24 66  1  0
 24 67  1  0
 25 68  1  0
 27 69  1  1
 30 70  1  0
 30 71  1  0
 32 72  1  0
 32 73  1  0
 32 74  1  0
 33 75  1  1
 35 76  1  0
 35 77  1  0
 35 78  1  0
 36 79  1  0
M  CHG  1   8  -1
M  END
>  <Binding energies>  (1) 
[-7.17]

>  <Ligand effiencies>  (1) 
[-0.1886842105263158]

>  <Interactions>  (1) 
["V-B:PRO:540:CA:9855, V-A:GLY:454:CA:4049, V-B:ALA:541:CB:9864, H-A:TYR:531:OH:4795, V-B:TYR:539:CE2:9848, V-B:GLU:543:CG:9879, V-B:TYR:539:C:9839, V-A:ASP:366:CG:3213, V-B:TYR:539:CZ:9849, V-B:TYR:531:CZ:9766, H-B:TYR:539:OH:9850, V-A:TYR:484:CZ:4347, H-B:ASP:366:OD1:8185, H-A:GLY:454:N:4050, V-B:PRO:540:N:9856, V-A:ILE:369:CD1:3239, V-B:TYR:539:CD2:9846, V-A:MET:535:CE:4835, H-B:TYR:531:OH:9767, V-A:LEU:475:CD2:4259, H-A:ARG:545:NH2:4928, V-A:ARG:545:CZ:4926, H-A:ARG:545:NE:4924, H-A:TYR:484:OH:4348"]

$$$$
ZINC257413003
     RDKit          3D

 44 46  0  0  0  0  0  0  0  0999 V2000
  129.4170  122.9790   64.6420 C   0  0  0  0  0  0  0  0  0  0  0  0
  129.3080  123.5950   63.3610 O   0  0  0  0  0  0  0  0  0  0  0  0
  129.4560  122.7850   62.2230 C   0  0  2  0  0  0  0  0  0  0  0  0
  130.6780  121.8640   62.3750 C   0  0  0  0  0  0  0  0  0  0  0  0
  132.0230  122.6280   62.3760 C   0  0  2  0  0  0  0  0  0  0  0  0
  132.4020  123.2720   63.7070 C   0  0  0  0  0  0  0  0  0  0  0  0
  133.1940  124.3590   63.8420 C   0  0  0  0  0  0  0  0  0  0  0  0
  133.4930  124.9590   65.2050 C   0  0  0  0  0  0  0  0  0  0  0  0
  133.7860  125.0900   62.6360 C   0  0  0  0  0  0  0  0  0  0  0  0
  133.5500  124.3380   61.3030 C   0  0  0  0  0  0  0  0  0  0  0  0
  132.1710  123.6290   61.1880 C   0  0  2  0  0  0  0  0  0  0  0  0
  130.9150  124.5410   60.8780 C   0  0  0  0  0  0  0  0  0  0  0  0
  130.7440  125.7400   61.8430 C   0  0  0  0  0  0  0  0  0  0  0  0
  131.0160  125.0380   59.4100 C   0  0  0  0  0  0  0  0  0  0  0  0
  129.6520  123.6640   61.0050 C   0  0  0  0  0  0  0  0  0  0  0  0
  128.5710  123.5130   60.2240 C   0  0  0  0  0  0  0  0  0  0  0  0
  127.6120  122.5450   60.8700 C   0  0  2  0  0  0  0  0  0  0  0  0
  126.4330  123.2100   61.3030 O   0  0  0  0  0  0  0  0  0  0  0  0
  126.3770  123.0800   62.7840 O   0  0  0  0  0  0  0  0  0  0  0  0
  128.3100  122.0310   61.9930 O   0  0  0  0  0  0  0  0  0  0  0  0
  129.2827  123.7382   65.4266 H   0  0  0  0  0  0  0  0  0  0  0  0
  128.6418  122.2052   64.7439 H   0  0  0  0  0  0  0  0  0  0  0  0
  130.4106  122.5182   64.7439 H   0  0  0  0  0  0  0  0  0  0  0  0
  130.5867  121.3165   63.3247 H   0  0  0  0  0  0  0  0  0  0  0  0
  130.6873  121.1887   61.5067 H   0  0  0  0  0  0  0  0  0  0  0  0
  132.7623  121.8283   62.2214 H   0  0  0  0  0  0  0  0  0  0  0  0
  132.0006  122.8176   64.6248 H   0  0  0  0  0  0  0  0  0  0  0  0
  133.1501  124.2709   65.9917 H   0  0  0  0  0  0  0  0  0  0  0  0
  134.5766  125.1197   65.3052 H   0  0  0  0  0  0  0  0  0  0  0  0
  132.9689  125.9209   65.3052 H   0  0  0  0  0  0  0  0  0  0  0  0
  133.3217  126.0847   62.5653 H   0  0  0  0  0  0  0  0  0  0  0  0
  134.8731  125.1570   62.7904 H   0  0  0  0  0  0  0  0  0  0  0  0
  133.6302  125.0650   60.4814 H   0  0  0  0  0  0  0  0  0  0  0  0
  134.3103  123.5444   61.2571 H   0  0  0  0  0  0  0  0  0  0  0  0
  132.1731  123.0554   60.2494 H   0  0  0  0  0  0  0  0  0  0  0  0
  130.7948  125.3841   62.8826 H   0  0  0  0  0  0  0  0  0  0  0  0
  131.5470  126.4706   61.6659 H   0  0  0  0  0  0  0  0  0  0  0  0
  129.7687  126.2170   61.6659 H   0  0  0  0  0  0  0  0  0  0  0  0
  131.2351  126.1159   59.4021 H   0  0  0  0  0  0  0  0  0  0  0  0
  131.8224  124.4962   58.8941 H   0  0  0  0  0  0  0  0  0  0  0  0
  130.0621  124.8539   58.8941 H   0  0  0  0  0  0  0  0  0  0  0  0
  128.4093  124.0180   59.2602 H   0  0  0  0  0  0  0  0  0  0  0  0
  127.2982  121.7588   60.1676 H   0  0  0  0  0  0  0  0  0  0  0  0
  127.1570  123.5850   63.0270 H   0  0  0  0  0  0  0  0  0  0  0  0
  1  2  1  0
  3  2  1  1
  3  4  1  0
  4  5  1  0
  5  6  1  0
  6  7  2  0
  7  8  1  0
  7  9  1  0
  9 10  1  0
 10 11  1  0
 11 12  1  0
 12 13  1  0
 12 14  1  0
 12 15  1  0
 15 16  2  0
 16 17  1  0
 17 18  1  0
 18 19  1  0
 17 20  1  0
 15  3  1  0
 20  3  1  0
 11  5  1  0
  1 21  1  0
  1 22  1  0
  1 23  1  0
  4 24  1  0
  4 25  1  0
  5 26  1  6
  6 27  1  0
  8 28  1  0
  8 29  1  0
  8 30  1  0
  9 31  1  0
  9 32  1  0
 10 33  1  0
 10 34  1  0
 11 35  1  6
 13 36  1  0
 13 37  1  0
 13 38  1  0
 14 39  1  0
 14 40  1  0
 14 41  1  0
 16 42  1  0
 17 43  1  6
 19 44  1  0
M  END
>  <Binding energies>  (1) 
[-6.05]

>  <Ligand effiencies>  (1) 
[-0.28809523809523807]

>  <Interactions>  (1) 
["V-B:PRO:540:CA:9855, V-A:GLY:454:CA:4049, H-B:GLU:543:OE1:9881, H-B:ALA:541:N:9863, V-B:PRO:540:C:9853, V-B:ALA:541:CB:9864, V-B:TYR:539:CE2:9848, V-B:PRO:540:CB:9857, V-A:TYR:484:CE2:4346, V-A:ARG:545:CD:4923, V-A:LEU:475:CD2:4259, V-B:GLU:543:CG:9879, V-A:ARG:545:CZ:4926, V-A:ASP:366:CG:3213, V-B:PRO:540:N:9856"]

$$$$
ZINC257417583
     RDKit          3D

 96101  0  0  0  0  0  0  0  0999 V2000
  130.9390  128.0130   71.0120 C   0  0  0  0  0  0  0  0  0  0  0  0
  129.4810  128.0210   71.4910 C   0  0  0  0  0  0  0  0  0  0  0  0
  128.7110  126.7510   71.0900 C   0  0  0  0  0  0  0  0  0  0  0  0
  127.5840  127.0230   70.0780 C   0  0  0  0  0  0  0  0  0  0  0  0
  128.0660  126.9650   68.6180 C   0  0  0  0  0  0  0  0  0  0  0  0
  129.5640  126.6260   68.4900 C   0  0  0  0  0  0  0  0  0  0  0  0
  129.8630  125.4420   67.5490 C   0  0  0  0  0  0  0  0  0  0  0  0
  131.2500  125.5030   66.8740 C   0  0  0  0  0  0  0  0  0  0  0  0
  131.2100  125.4100   65.3360 C   0  0  0  0  0  0  0  0  0  0  0  0
  129.7890  125.4650   64.7420 C   0  0  0  0  0  0  0  0  0  0  0  0
  129.4720  126.8010   64.0490 C   0  0  0  0  0  0  0  0  0  0  0  0
  128.4690  126.6380   62.8940 C   0  0  0  0  0  0  0  0  0  0  0  0
  128.7320  127.6050   61.7200 C   0  0  0  0  0  0  0  0  0  0  0  0
  129.4520  126.9330   60.5510 C   0  0  2  0  0  0  0  0  0  0  0  0
  128.6800  126.9850   59.4050 O   0  0  0  0  0  0  0  0  0  0  0  0
  129.5880  126.5800   58.4030 C   0  0  2  0  0  0  0  0  0  0  0  0
  129.6730  125.0310   58.5020 C   0  0  2  0  0  0  0  0  0  0  0  0
  128.3600  124.4000   57.9680 C   0  0  1  0  0  0  0  0  0  0  0  0
  128.3410  122.9940   57.9490 O   0  0  0  0  0  0  0  0  0  0  0  0
  127.3380  123.5940   58.7290 C   0  0  2  0  0  0  0  0  0  0  0  0
  125.8850  123.5260   58.1880 C   0  0  0  0  0  0  0  0  0  0  0  0
  125.7140  122.6120   57.1210 O   0  0  0  0  0  0  0  0  0  0  0  0
  127.4280  123.4530   60.2620 C   0  0  2  0  0  0  0  0  0  0  0  0
  127.1410  124.7040   60.8560 O   0  0  0  0  0  0  0  0  0  0  0  0
  128.6970  122.7410   60.8430 C   0  0  2  0  0  0  0  0  0  0  0  0
  128.5300  121.3920   60.4130 O   0  0  0  0  0  0  0  0  0  0  0  0
  128.6940  122.6330   62.3770 C   0  0  0  0  0  0  0  0  0  0  0  0
  127.7320  122.4630   63.1270 O   0  0  0  0  0  0  0  0  0  0  0  0
  130.0730  122.7570   62.8160 C   0  0  0  0  0  0  0  0  0  0  0  0
  130.4010  122.5720   64.2870 C   0  0  0  0  0  0  0  0  0  0  0  0
  130.8650  123.0480   61.7720 C   0  0  0  0  0  0  0  0  0  0  0  0
  130.1180  123.2580   60.4610 C   0  0  2  0  0  0  0  0  0  0  0  0
  130.2930  124.7260   59.9150 C   0  0  2  0  0  0  0  0  0  0  0  0
  129.7240  125.5960   60.9230 O   0  0  0  0  0  0  0  0  0  0  0  0
  131.8380  125.0850   59.7670 C   0  0  1  0  0  0  0  0  0  0  0  0
  132.7890  123.9870   59.2210 C   0  0  0  0  0  0  0  0  0  0  0  0
  132.1170  126.4160   59.0010 C   0  0  0  0  0  0  0  0  0  0  0  0
  130.8810  127.3380   58.8690 C   0  0  1  0  0  0  0  0  0  0  0  0
  131.1230  128.6890   58.1230 C   0  0  0  0  0  0  0  0  0  0  0  0
  131.6480  129.8070   59.0470 C   0  0  0  0  0  0  0  0  0  0  0  0
  129.8950  129.1910   57.3320 C   0  0  0  0  0  0  0  0  0  0  0  0
  130.5750  127.6570   60.2170 O   0  0  0  0  0  0  0  0  0  0  0  0
  131.6110  128.0093   71.8828 H   0  0  0  0  0  0  0  0  0  0  0  0
  131.1206  127.1138   70.4049 H   0  0  0  0  0  0  0  0  0  0  0  0
  131.1304  128.9101   70.4049 H   0  0  0  0  0  0  0  0  0  0  0  0
  129.4726  128.1047   72.5878 H   0  0  0  0  0  0  0  0  0  0  0  0
  128.9810  128.8751   71.0108 H   0  0  0  0  0  0  0  0  0  0  0  0
  129.4195  126.0387   70.6420 H   0  0  0  0  0  0  0  0  0  0  0  0
  128.2439  126.3490   72.0012 H   0  0  0  0  0  0  0  0  0  0  0  0
  126.7962  126.2682   70.2182 H   0  0  0  0  0  0  0  0  0  0  0  0
  127.2115  128.0413   70.2633 H   0  0  0  0  0  0  0  0  0  0  0  0
  127.4861  126.1951   68.0880 H   0  0  0  0  0  0  0  0  0  0  0  0
  127.9170  127.9643   68.1830 H   0  0  0  0  0  0  0  0  0  0  0  0
  130.0875  127.5137   68.1054 H   0  0  0  0  0  0  0  0  0  0  0  0
  129.9091  126.3302   69.4917 H   0  0  0  0  0  0  0  0  0  0  0  0
  129.8054  124.5129   68.1350 H   0  0  0  0  0  0  0  0  0  0  0  0
  129.1171  125.4845   66.7417 H   0  0  0  0  0  0  0  0  0  0  0  0
  131.7259  126.4557   67.1495 H   0  0  0  0  0  0  0  0  0  0  0  0
  131.8124  124.6267   67.2287 H   0  0  0  0  0  0  0  0  0  0  0  0
  131.7902  126.2486   64.9235 H   0  0  0  0  0  0  0  0  0  0  0  0
  131.6307  124.4304   65.0651 H   0  0  0  0  0  0  0  0  0  0  0  0
  129.6873  124.6558   64.0039 H   0  0  0  0  0  0  0  0  0  0  0  0
  129.0817  125.3546   65.5772 H   0  0  0  0  0  0  0  0  0  0  0  0
  129.0467  127.4921   64.7916 H   0  0  0  0  0  0  0  0  0  0  0  0
  130.4098  127.1911   63.6268 H   0  0  0  0  0  0  0  0  0  0  0  0
  128.5330  125.6062   62.5182 H   0  0  0  0  0  0  0  0  0  0  0  0
  127.4706  126.8711   63.2924 H   0  0  0  0  0  0  0  0  0  0  0  0
  127.7674  127.9943   61.3621 H   0  0  0  0  0  0  0  0  0  0  0  0
  129.3830  128.4097   62.0923 H   0  0  0  0  0  0  0  0  0  0  0  0
  129.3568  126.8027   57.3509 H   0  0  0  0  0  0  0  0  0  0  0  0
  130.3622  124.4926   57.8349 H   0  0  0  0  0  0  0  0  0  0  0  0
  128.2393  125.2786   57.3172 H   0  0  0  0  0  0  0  0  0  0  0  0
  125.2220  123.2245   59.0123 H   0  0  0  0  0  0  0  0  0  0  0  0
  125.6426  124.5247   57.7958 H   0  0  0  0  0  0  0  0  0  0  0  0
  126.5780  122.2820   56.8620 H   0  0  0  0  0  0  0  0  0  0  0  0
  126.6580  122.7210   60.5473 H   0  0  0  0  0  0  0  0  0  0  0  0
  127.7200  125.3640   60.4680 H   0  0  0  0  0  0  0  0  0  0  0  0
  128.3600  121.3920   59.4690 H   0  0  0  0  0  0  0  0  0  0  0  0
  129.6051  123.0209   64.8994 H   0  0  0  0  0  0  0  0  0  0  0  0
  130.4765  121.4982   64.5136 H   0  0  0  0  0  0  0  0  0  0  0  0
  131.3590  123.0628   64.5136 H   0  0  0  0  0  0  0  0  0  0  0  0
  131.9589  123.1279   61.8559 H   0  0  0  0  0  0  0  0  0  0  0  0
  130.4800  122.7178   59.5738 H   0  0  0  0  0  0  0  0  0  0  0  0
  132.0911  125.1988   60.8314 H   0  0  0  0  0  0  0  0  0  0  0  0
  133.2526  123.4517   60.0628 H   0  0  0  0  0  0  0  0  0  0  0  0
  132.2154  123.2775   58.6066 H   0  0  0  0  0  0  0  0  0  0  0  0
  133.5732  124.4535   58.6066 H   0  0  0  0  0  0  0  0  0  0  0  0
  132.9030  126.9663   59.5389 H   0  0  0  0  0  0  0  0  0  0  0  0
  132.4171  126.1383   57.9798 H   0  0  0  0  0  0  0  0  0  0  0  0
  131.9108  128.4500   57.3935 H   0  0  0  0  0  0  0  0  0  0  0  0
  131.5087  129.5104   60.0971 H   0  0  0  0  0  0  0  0  0  0  0  0
  132.7178  129.9722   58.8514 H   0  0  0  0  0  0  0  0  0  0  0  0
  131.0919  130.7357   58.8514 H   0  0  0  0  0  0  0  0  0  0  0  0
  129.1119  129.5111   58.0350 H   0  0  0  0  0  0  0  0  0  0  0  0
  130.1891  130.0410   56.6988 H   0  0  0  0  0  0  0  0  0  0  0  0
  129.5094  128.3783   56.6988 H   0  0  0  0  0  0  0  0  0  0  0  0
  1  2  1  0
  2  3  1  0
  3  4  1  0
  4  5  1  0
  5  6  1  0
  6  7  1  0
  7  8  1  0
  8  9  1  0
  9 10  1  0
 10 11  1  0
 11 12  1  0
 12 13  1  0
 14 13  1  1
 14 15  1  0
 15 16  1  0
 16 17  1  0
 17 18  1  0
 18 19  1  0
 19 20  1  0
 20 21  1  6
 21 22  1  0
 20 23  1  0
 23 24  1  0
 23 25  1  0
 25 26  1  6
 25 27  1  0
 27 28  2  0
 27 29  1  0
 29 30  1  0
 29 31  2  0
 31 32  1  0
 32 33  1  0
 33 34  1  1
 33 35  1  0
 35 36  1  0
 35 37  1  0
 37 38  1  0
 38 39  1  6
 39 40  1  0
 39 41  1  0
 38 42  1  0
 34 14  1  0
 42 14  1  0
 38 16  1  0
 33 17  1  0
 20 18  1  0
 32 25  1  0
  1 43  1  0
  1 44  1  0
  1 45  1  0
  2 46  1  0
  2 47  1  0
  3 48  1  0
  3 49  1  0
  4 50  1  0
  4 51  1  0
  5 52  1  0
  5 53  1  0
  6 54  1  0
  6 55  1  0
  7 56  1  0
  7 57  1  0
  8 58  1  0
  8 59  1  0
  9 60  1  0
  9 61  1  0
 10 62  1  0
 10 63  1  0
 11 64  1  0
 11 65  1  0
 12 66  1  0
 12 67  1  0
 13 68  1  0
 13 69  1  0
 16 70  1  6
 17 71  1  6
 18 72  1  6
 21 73  1  0
 21 74  1  0
 22 75  1  0
 23 76  1  1
 24 77  1  0
 26 78  1  0
 30 79  1  0
 30 80  1  0
 30 81  1  0
 31 82  1  0
 32 83  1  6
 35 84  1  1
 36 85  1  0
 36 86  1  0
 36 87  1  0
 37 88  1  0
 37 89  1  0
 39 90  1  0
 40 91  1  0
 40 92  1  0
 40 93  1  0
 41 94  1  0
 41 95  1  0
 41 96  1  0
M  END
>  <Binding energies>  (1) 
[-5.78]

>  <Ligand effiencies>  (1) 
[-0.12297872340425532]

>  <Interactions>  (1) 
["V-A:ILE:369:CG2:3237, V-B:PRO:540:CA:9855, V-B:GLU:543:C:9874, V-A:GLU:543:C:4902, V-B:GLU:543:CB:9878, V-B:ALA:541:CB:9864, V-B:TYR:539:CE2:9848, V-A:TYR:484:CE2:4346, V-B:GLU:543:CG:9879, V-A:GLY:544:C:4912, V-A:ASP:366:CG:3213, V-B:TYR:539:CZ:9849, H-B:GLU:543:OE1:9881, H-B:ALA:541:N:9863, V-A:GLU:543:CD:4908, V-A:TYR:484:CZ:4347, V-B:PRO:540:CB:9857, V-B:HIS:456:CE1:9041, V-B:GLU:543:CA:9876, V-B:PRO:540:N:9856, V-A:HIS:456:CE1:4070, V-B:GLY:544:C:9884, V-B:TYR:539:CD2:9846, V-B:GLU:543:CD:9880, V-A:MET:535:CE:4835, V-A:ASP:366:CB:3212, V-A:LEU:475:CD2:4259, H-B:TYR:539:O:9840"]

$$$$
ZINC257422693
     RDKit          3D

 42 44  0  0  0  0  0  0  0  0999 V2000
  132.2340  125.0400   61.7770 C   0  0  0  0  0  0  0  0  0  0  0  0
  131.4080  123.7650   61.7650 C   0  0  0  0  0  0  0  0  0  0  0  0
  130.4570  123.3060   60.9400 C   0  0  0  0  0  0  0  0  0  0  0  0
  129.7960  123.9240   59.7070 C   0  0  0  0  0  0  0  0  0  0  0  0
  128.2320  123.7300   59.6980 C   0  0  2  0  0  0  0  0  0  0  0  0
  127.9530  122.5310   58.7280 C   0  0  0  0  0  0  0  0  0  0  0  0
  127.4830  125.0070   59.1250 C   0  0  2  0  0  0  0  0  0  0  0  0
  127.7470  126.3820   59.8040 C   0  0  0  0  0  0  0  0  0  0  0  0
  125.9550  124.7470   59.0630 C   0  0  0  0  0  0  0  0  0  0  0  0
  125.3720  124.4100   60.4530 C   0  0  0  0  0  0  0  0  0  0  0  0
  126.1180  123.2470   61.1580 C   0  0  2  0  0  0  0  0  0  0  0  0
  125.5760  123.0520   62.4540 O   0  0  0  0  0  0  0  0  0  0  0  0
  127.6840  123.3960   61.1550 C   0  0  2  0  0  0  0  0  0  0  0  0
  128.0080  124.4300   62.0810 O   0  0  0  0  0  0  0  0  0  0  0  0
  128.3700  122.1020   61.7170 C   0  0  0  0  0  0  0  0  0  0  0  0
  129.9180  122.0190   61.5080 C   0  0  1  0  0  0  0  0  0  0  0  0
  130.2330  120.9630   60.6840 O   0  0  0  0  0  0  0  0  0  0  0  0
  130.5550  121.8880   62.7320 O   0  0  0  0  0  0  0  0  0  0  0  0
  131.5020  122.8360   62.8840 C   0  0  0  0  0  0  0  0  0  0  0  0
  132.2790  122.8900   63.8370 O   0  0  0  0  0  0  0  0  0  0  0  0
  132.4289  125.3408   62.8170 H   0  0  0  0  0  0  0  0  0  0  0  0
  133.1894  124.8628   61.2614 H   0  0  0  0  0  0  0  0  0  0  0  0
  131.6818  125.8395   61.2614 H   0  0  0  0  0  0  0  0  0  0  0  0
  130.0177  125.0013   59.6908 H   0  0  0  0  0  0  0  0  0  0  0  0
  130.2006  123.4138   58.8204 H   0  0  0  0  0  0  0  0  0  0  0  0
  127.7423  121.6253   59.3157 H   0  0  0  0  0  0  0  0  0  0  0  0
  127.0857  122.7666   58.0938 H   0  0  0  0  0  0  0  0  0  0  0  0
  128.8352  122.3595   58.0938 H   0  0  0  0  0  0  0  0  0  0  0  0
  127.9349  125.1233   58.1289 H   0  0  0  0  0  0  0  0  0  0  0  0
  127.7239  126.2616   60.8971 H   0  0  0  0  0  0  0  0  0  0  0  0
  128.7339  126.7589   59.4974 H   0  0  0  0  0  0  0  0  0  0  0  0
  126.9698  127.0976   59.4974 H   0  0  0  0  0  0  0  0  0  0  0  0
  125.4562  125.6482   58.6770 H   0  0  0  0  0  0  0  0  0  0  0  0
  125.7821  123.8847   58.4023 H   0  0  0  0  0  0  0  0  0  0  0  0
  125.4397  125.3057   61.0879 H   0  0  0  0  0  0  0  0  0  0  0  0
  124.3302  124.0899   60.3038 H   0  0  0  0  0  0  0  0  0  0  0  0
  125.9471  122.3347   60.5677 H   0  0  0  0  0  0  0  0  0  0  0  0
  126.0770  123.5840   63.0770 H   0  0  0  0  0  0  0  0  0  0  0  0
  127.2420  124.5880   62.6390 H   0  0  0  0  0  0  0  0  0  0  0  0
  128.1703  122.0540   62.7977 H   0  0  0  0  0  0  0  0  0  0  0  0
  127.9421  121.2616   61.1508 H   0  0  0  0  0  0  0  0  0  0  0  0
  129.4240  120.4730   60.5150 H   0  0  0  0  0  0  0  0  0  0  0  0
  1  2  1  0
  2  3  2  0
  3  4  1  0
  4  5  1  0
  5  6  1  6
  5  7  1  0
  7  8  1  0
  7  9  1  0
  9 10  1  0
 10 11  1  0
 11 12  1  0
 11 13  1  0
 13 14  1  1
 13 15  1  0
 15 16  1  0
 16 17  1  6
 16 18  1  0
 18 19  1  0
 19 20  2  0
 19  2  1  0
 16  3  1  0
 13  5  1  0
  1 21  1  0
  1 22  1  0
  1 23  1  0
  4 24  1  0
  4 25  1  0
  6 26  1  0
  6 27  1  0
  6 28  1  0
  7 29  1  6
  8 30  1  0
  8 31  1  0
  8 32  1  0
  9 33  1  0
  9 34  1  0
 10 35  1  0
 10 36  1  0
 11 37  1  6
 12 38  1  0
 14 39  1  0
 15 40  1  0
 15 41  1  0
 17 42  1  0
M  END
>  <Binding energies>  (1) 
[-6.35]

>  <Ligand effiencies>  (1) 
[-0.2760869565217391]

>  <Interactions>  (1) 
["V-B:PRO:540:CA:9855, H-B:GLU:543:OE1:9881, V-B:TYR:539:CD2:9846, H-B:TYR:539:O:9840, H-B:ALA:541:N:9863, V-B:PRO:540:C:9853, V-B:ALA:541:CB:9864, V-B:TYR:539:CE2:9848, V-B:PRO:540:CB:9857, V-B:ALA:541:CA:9862, V-A:LEU:475:CD2:4259, H-B:ALA:541:O:9861, V-B:TYR:539:CG:9844, V-B:TYR:539:C:9839, H-A:TYR:484:OH:4348, V-B:PRO:540:N:9856"]

$$$$
ZINC257428008
     RDKit          3D

104107  0  0  0  0  0  0  0  0999 V2000
  132.4350  131.1830   57.3680 C   0  0  0  0  0  0  0  0  0  0  0  0
  131.1050  131.2190   57.5740 C   0  0  0  0  0  0  0  0  0  0  0  0
  130.3340  132.5250   57.4300 C   0  0  0  0  0  0  0  0  0  0  0  0
  130.2770  129.9890   57.9960 C   0  0  2  0  0  0  0  0  0  0  0  0
  129.0890  129.7900   57.0260 C   0  0  0  0  0  0  0  0  0  0  0  0
  128.5380  128.3660   57.1750 C   0  0  0  0  0  0  0  0  0  0  0  0
  127.9940  128.0580   58.6140 C   0  0  2  0  0  0  0  0  0  0  0  0
  126.7180  128.9300   58.8610 C   0  0  0  0  0  0  0  0  0  0  0  0
  129.1540  128.4200   59.6460 C   0  0  2  0  0  0  0  0  0  0  0  0
  128.6890  128.0320   61.0720 C   0  0  0  0  0  0  0  0  0  0  0  0
  128.5150  126.5080   61.2060 C   0  0  2  0  0  0  0  0  0  0  0  0
  129.7550  125.8500   60.9220 O   0  0  0  0  0  0  0  0  0  0  0  0
  130.3730  125.0950   61.9270 C   0  0  2  0  0  0  0  0  0  0  0  0
  129.8160  125.3280   63.1980 O   0  0  0  0  0  0  0  0  0  0  0  0
  130.3980  124.5080   64.2220 C   0  0  0  0  0  0  0  0  0  0  0  0
  131.9230  124.7130   64.3510 C   0  0  2  0  0  0  0  0  0  0  0  0
  132.2140  125.8940   65.0770 O   0  0  0  0  0  0  0  0  0  0  0  0
  132.6080  124.6330   62.9700 C   0  0  2  0  0  0  0  0  0  0  0  0
  133.9950  124.9200   63.0160 O   0  0  0  0  0  0  0  0  0  0  0  0
  131.8590  125.4940   61.9270 C   0  0  2  0  0  0  0  0  0  0  0  0
  132.0450  126.8880   62.1240 O   0  0  0  0  0  0  0  0  0  0  0  0
  127.4350  125.9790   60.1990 C   0  0  2  0  0  0  0  0  0  0  0  0
  127.3690  124.4290   60.0190 C   0  0  2  0  0  0  0  0  0  0  0  0
  127.3170  123.4680   61.2600 C   0  0  2  0  0  0  0  0  0  0  0  0
  125.8470  123.2210   61.6760 C   0  0  0  0  0  0  0  0  0  0  0  0
  127.9760  124.0140   62.3820 O   0  0  0  0  0  0  0  0  0  0  0  0
  128.0450  122.1170   60.9800 C   0  0  0  0  0  0  0  0  0  0  0  0
  129.0940  121.6610   62.0180 C   0  0  0  0  0  0  0  0  0  0  0  0
  130.5230  121.8450   61.5310 C   0  0  0  0  0  0  0  0  0  0  0  0
  131.3490  120.9120   61.0110 C   0  0  0  0  0  0  0  0  0  0  0  0
  132.7480  121.2720   60.5430 C   0  0  0  0  0  0  0  0  0  0  0  0
  131.0000  119.4380   60.8490 C   0  0  0  0  0  0  0  0  0  0  0  0
  128.4240  124.1370   58.9270 C   0  0  0  0  0  0  0  0  0  0  0  0
  128.6760  125.4760   58.1940 C   0  0  0  0  0  0  0  0  0  0  0  0
  127.6200  126.4960   58.7210 C   0  0  2  0  0  0  0  0  0  0  0  0
  126.3120  126.2270   57.8890 C   0  0  0  0  0  0  0  0  0  0  0  0
  129.8780  129.8520   59.5240 C   0  0  2  0  0  0  0  0  0  0  0  0
  128.9740  131.0500   59.9470 C   0  0  0  0  0  0  0  0  0  0  0  0
  131.2200  129.8090   60.3590 C   0  0  0  0  0  0  0  0  0  0  0  0
  131.9690  131.1520   60.5990 C   0  0  0  0  0  0  0  0  0  0  0  0
  131.7970  131.7840   61.9890 C   0  0  0  0  0  0  0  0  0  0  0  0
  132.7280  131.7610   62.7960 O   0  0  0  0  0  0  0  0  0  0  0  0
  130.5800  132.3360   62.2080 O   0  0  0  0  0  0  0  0  0  0  0  0
  129.7220  131.8160   63.2120 C   0  0  0  0  0  0  0  0  0  0  0  0
  132.9826  130.2349   57.4745 H   0  0  0  0  0  0  0  0  0  0  0  0
  132.9741  132.1016   57.0932 H   0  0  0  0  0  0  0  0  0  0  0  0
  130.0986  132.9238   58.4278 H   0  0  0  0  0  0  0  0  0  0  0  0
  130.9468  133.2537   56.8791 H   0  0  0  0  0  0  0  0  0  0  0  0
  129.3999  132.3405   56.8791 H   0  0  0  0  0  0  0  0  0  0  0  0
  130.9763  129.1448   57.9047 H   0  0  0  0  0  0  0  0  0  0  0  0
  128.2971  130.5159   57.2628 H   0  0  0  0  0  0  0  0  0  0  0  0
  129.4311  129.9437   55.9919 H   0  0  0  0  0  0  0  0  0  0  0  0
  127.7168  128.2324   56.4554 H   0  0  0  0  0  0  0  0  0  0  0  0
  129.3713  127.6731   56.9867 H   0  0  0  0  0  0  0  0  0  0  0  0
  126.5542  129.0419   59.9430 H   0  0  0  0  0  0  0  0  0  0  0  0
  126.8582  129.9220   58.4068 H   0  0  0  0  0  0  0  0  0  0  0  0
  125.8447  128.4389   58.4068 H   0  0  0  0  0  0  0  0  0  0  0  0
  130.0167  127.8044   59.3514 H   0  0  0  0  0  0  0  0  0  0  0  0
  129.4405  128.3726   61.7995 H   0  0  0  0  0  0  0  0  0  0  0  0
  127.7178  128.5115   61.2640 H   0  0  0  0  0  0  0  0  0  0  0  0
  128.1927  126.2936   62.2356 H   0  0  0  0  0  0  0  0  0  0  0  0
  130.2300  124.0240   61.7206 H   0  0  0  0  0  0  0  0  0  0  0  0
  129.9263  124.7576   65.1839 H   0  0  0  0  0  0  0  0  0  0  0  0
  130.2250  123.4573   63.9461 H   0  0  0  0  0  0  0  0  0  0  0  0
  132.3521  123.8900   64.9414 H   0  0  0  0  0  0  0  0  0  0  0  0
  131.9250  126.6480   64.5540 H   0  0  0  0  0  0  0  0  0  0  0  0
  132.5427  123.5845   62.6437 H   0  0  0  0  0  0  0  0  0  0  0  0
  134.1340  125.8040   62.6660 H   0  0  0  0  0  0  0  0  0  0  0  0
  132.2868  125.2921   60.9339 H   0  0  0  0  0  0  0  0  0  0  0  0
  131.3580  127.2020   62.7170 H   0  0  0  0  0  0  0  0  0  0  0  0
  126.5286  126.3675   60.6864 H   0  0  0  0  0  0  0  0  0  0  0  0
  126.3476  124.1459   59.7247 H   0  0  0  0  0  0  0  0  0  0  0  0
  125.7736  123.2087   62.7735 H   0  0  0  0  0  0  0  0  0  0  0  0
  125.2124  124.0251   61.2751 H   0  0  0  0  0  0  0  0  0  0  0  0
  125.5101  122.2537   61.2751 H   0  0  0  0  0  0  0  0  0  0  0  0
  127.7510  124.9450   62.4420 H   0  0  0  0  0  0  0  0  0  0  0  0
  127.2768  121.3322   60.9169 H   0  0  0  0  0  0  0  0  0  0  0  0
  128.6125  122.2836   60.0525 H   0  0  0  0  0  0  0  0  0  0  0  0
  128.9575  122.2492   62.9375 H   0  0  0  0  0  0  0  0  0  0  0  0
  128.9399  120.5863   62.1947 H   0  0  0  0  0  0  0  0  0  0  0  0
  130.9337  122.8622   61.6123 H   0  0  0  0  0  0  0  0  0  0  0  0
  133.3954  121.4386   61.4166 H   0  0  0  0  0  0  0  0  0  0  0  0
  133.1549  120.4493   59.9367 H   0  0  0  0  0  0  0  0  0  0  0  0
  132.7072  122.1889   59.9367 H   0  0  0  0  0  0  0  0  0  0  0  0
  130.8906  118.9759   61.8412 H   0  0  0  0  0  0  0  0  0  0  0  0
  130.0547  119.3438   60.2944 H   0  0  0  0  0  0  0  0  0  0  0  0
  131.8027  118.9299   60.2944 H   0  0  0  0  0  0  0  0  0  0  0  0
  129.3554  123.7731   59.3854 H   0  0  0  0  0  0  0  0  0  0  0  0
  128.0730  123.3611   58.2307 H   0  0  0  0  0  0  0  0  0  0  0  0
  129.6915  125.8390   58.4107 H   0  0  0  0  0  0  0  0  0  0  0  0
  128.5860  125.3481   57.1052 H   0  0  0  0  0  0  0  0  0  0  0  0
  125.4700  126.0538   58.5753 H   0  0  0  0  0  0  0  0  0  0  0  0
  126.0948  127.0993   57.2550 H   0  0  0  0  0  0  0  0  0  0  0  0
  126.4567  125.3398   57.2550 H   0  0  0  0  0  0  0  0  0  0  0  0
  128.9309  131.1071   61.0447 H   0  0  0  0  0  0  0  0  0  0  0  0
  129.3936  131.9850   59.5474 H   0  0  0  0  0  0  0  0  0  0  0  0
  127.9598  130.9030   59.5474 H   0  0  0  0  0  0  0  0  0  0  0  0
  130.9790  129.3869   61.3458 H   0  0  0  0  0  0  0  0  0  0  0  0
  131.9101  129.2132   59.7435 H   0  0  0  0  0  0  0  0  0  0  0  0
  133.0426  130.9703   60.4431 H   0  0  0  0  0  0  0  0  0  0  0  0
  131.5245  131.8681   59.8922 H   0  0  0  0  0  0  0  0  0  0  0  0
  130.1277  132.0619   64.2044 H   0  0  0  0  0  0  0  0  0  0  0  0
  128.7212  132.2596   63.1048 H   0  0  0  0  0  0  0  0  0  0  0  0
  129.6522  130.7235   63.1048 H   0  0  0  0  0  0  0  0  0  0  0  0
  1  2  2  0
  2  3  1  0
  2  4  1  0
  4  5  1  0
  5  6  1  0
  6  7  1  0
  7  8  1  1
  7  9  1  0
  9 10  1  0
 10 11  1  0
 11 12  1  0
 12 13  1  0
 13 14  1  0
 14 15  1  0
 15 16  1  0
 16 17  1  0
 16 18  1  0
 18 19  1  0
 18 20  1  0
 20 21  1  0
 11 22  1  0
 22 23  1  0
 23 24  1  0
 24 25  1  0
 24 26  1  1
 24 27  1  0
 27 28  1  0
 28 29  1  0
 29 30  2  3
 30 31  1  0
 30 32  1  0
 23 33  1  0
 33 34  1  0
 34 35  1  0
 35 36  1  6
  9 37  1  0
 37 38  1  1
 37 39  1  0
 39 40  1  0
 40 41  1  0
 41 42  2  0
 41 43  1  0
 43 44  1  0
 37  4  1  0
 35  7  1  0
 20 13  1  0
 35 22  1  0
  1 45  1  0
  1 46  1  0
  3 47  1  0
  3 48  1  0
  3 49  1  0
  4 50  1  6
  5 51  1  0
  5 52  1  0
  6 53  1  0
  6 54  1  0
  8 55  1  0
  8 56  1  0
  8 57  1  0
  9 58  1  6
 10 59  1  0
 10 60  1  0
 11 61  1  1
 13 62  1  6
 15 63  1  0
 15 64  1  0
 16 65  1  1
 17 66  1  0
 18 67  1  6
 19 68  1  0
 20 69  1  6
 21 70  1  0
 22 71  1  1
 23 72  1  6
 25 73  1  0
 25 74  1  0
 25 75  1  0
 26 76  1  0
 27 77  1  0
 27 78  1  0
 28 79  1  0
 28 80  1  0
 29 81  1  0
 31 82  1  0
 31 83  1  0
 31 84  1  0
 32 85  1  0
 32 86  1  0
 32 87  1  0
 33 88  1  0
 33 89  1  0
 34 90  1  0
 34 91  1  0
 36 92  1  0
 36 93  1  0
 36 94  1  0
 38 95  1  0
 38 96  1  0
 38 97  1  0
 39 98  1  0
 39 99  1  0
 40100  1  0
 40101  1  0
 44102  1  0
 44103  1  0
 44104  1  0
M  END
>  <Binding energies>  (1) 
[-8.78]

>  <Ligand effiencies>  (1) 
[-0.18291666666666664]

>  <Interactions>  (1) 
["V-A:ILE:369:CG2:3237, V-B:PRO:540:CA:9855, H-A:GLU:543:OE2:4910, H-A:ALA:541:N:4891, V-B:ALA:541:CB:9864, H-A:ARG:545:NH1:4927, V-B:TYR:539:CE2:9848, V-B:TYR:539:C:9839, V-A:ASP:366:CG:3213, V-A:LEU:363:CD1:3189, H-B:GLU:543:OE1:9881, V-A:TYR:531:CE2:4793, V-B:TYR:531:CZ:9766, V-A:ALA:541:CB:4892, V-A:GLU:543:CD:4908, V-B:PRO:540:CB:9857, H-A:GLY:454:N:4050, V-B:PRO:540:N:9856, V-B:TYR:539:CD2:9846, V-A:GLU:543:CG:4907, V-A:MET:535:CE:4835, V-A:LEU:475:CD2:4259, H-A:ARG:545:NH2:4928, H-A:GLU:543:OE1:4909, H-A:ASP:366:OD1:3214, V-A:PRO:540:N:4884, V-A:PRO:540:CB:4885, V-A:PRO:540:CA:4883, H-A:ARG:545:NE:4924, V-B:PRO:540:C:9853, H-A:ASP:366:OD2:3215, V-B:ALA:541:CA:9862, H-A:TYR:484:OH:4348"]

$$$$
ZINC257439900
     RDKit          3D

 85 88  0  0  0  0  0  0  0  0999 V2000
  132.7910  125.5740   58.3470 C   0  0  0  0  0  0  0  0  0  0  0  0
  133.6400  124.3390   58.6810 C   0  0  2  0  0  0  0  0  0  0  0  0
  133.9940  123.7030   57.4670 O   0  0  0  0  0  0  0  0  0  0  0  0
  132.8880  123.3550   59.6090 C   0  0  0  0  0  0  0  0  0  0  0  0
  133.1920  123.4820   61.1080 C   0  0  0  0  0  0  0  0  0  0  0  0
  134.1650  124.1080   61.5340 O   0  0  0  0  0  0  0  0  0  0  0  0
  132.2630  122.8280   61.8600 O   0  0  0  0  0  0  0  0  0  0  0  0
  131.1370  123.4410   62.5190 C   0  0  0  0  0  0  0  0  0  0  0  0
  131.1770  123.1570   64.0430 C   0  0  0  0  0  0  0  0  0  0  0  0
  131.0930  124.9720   62.2650 C   0  0  0  0  0  0  0  0  0  0  0  0
  129.8820  122.7460   61.9200 C   0  0  0  0  0  0  0  0  0  0  0  0
  129.0210  123.6090   60.9680 C   0  0  0  0  0  0  0  0  0  0  0  0
  128.6070  122.8500   59.6890 C   0  0  0  0  0  0  0  0  0  0  0  0
  127.5290  123.5450   58.8090 C   0  0  2  0  0  0  0  0  0  0  0  0
  126.9890  122.5590   57.7500 C   0  0  0  0  0  0  0  0  0  0  0  0
  128.0030  124.9160   58.2130 C   0  0  2  0  0  0  0  0  0  0  0  0
  129.5470  125.0700   58.1980 C   0  0  0  0  0  0  0  0  0  0  0  0
  129.8640  126.5500   58.4370 C   0  0  0  0  0  0  0  0  0  0  0  0
  128.5120  127.2620   58.3530 C   0  0  2  0  0  0  0  0  0  0  0  0
  128.4420  128.6380   59.0380 C   0  0  0  0  0  0  0  0  0  0  0  0
  128.6310  129.7740   58.3330 C   0  0  0  0  0  0  0  0  0  0  0  0
  128.7430  131.1230   58.8780 C   0  0  0  0  0  0  0  0  0  0  0  0
  128.8740  132.1070   58.1470 O   0  0  0  0  0  0  0  0  0  0  0  0
  128.7210  131.1750   60.3560 C   0  0  0  0  0  0  0  0  0  0  0  0
  129.3770  132.1840   60.9830 C   0  0  0  0  0  0  0  0  0  0  0  0
  129.3930  132.4290   62.4850 C   0  0  2  0  0  0  0  0  0  0  0  0
  130.6880  132.1590   62.9860 O   0  0  0  0  0  0  0  0  0  0  0  0
  128.2730  131.6170   63.1850 C   0  0  2  0  0  0  0  0  0  0  0  0
  128.3830  131.6310   64.5970 O   0  0  0  0  0  0  0  0  0  0  0  0
  128.1820  130.1800   62.6350 C   0  0  0  0  0  0  0  0  0  0  0  0
  127.8730  130.1090   61.1020 C   0  0  1  0  0  0  0  0  0  0  0  0
  126.3760  130.4700   60.8650 C   0  0  0  0  0  0  0  0  0  0  0  0
  128.2310  128.6650   60.5690 C   0  0  1  0  0  0  0  0  0  0  0  0
  127.2370  127.5630   61.0400 C   0  0  0  0  0  0  0  0  0  0  0  0
  127.5190  126.1920   60.4150 C   0  0  0  0  0  0  0  0  0  0  0  0
  127.4630  126.2390   58.8640 C   0  0  2  0  0  0  0  0  0  0  0  0
  126.0500  126.6200   58.3400 C   0  0  0  0  0  0  0  0  0  0  0  0
  132.4605  126.0548   59.2795 H   0  0  0  0  0  0  0  0  0  0  0  0
  133.3923  126.2848   57.7611 H   0  0  0  0  0  0  0  0  0  0  0  0
  131.9120  125.2672   57.7611 H   0  0  0  0  0  0  0  0  0  0  0  0
  134.5411  124.6598   59.2242 H   0  0  0  0  0  0  0  0  0  0  0  0
  134.6370  124.2520   57.0120 H   0  0  0  0  0  0  0  0  0  0  0  0
  131.8091  123.5174   59.4690 H   0  0  0  0  0  0  0  0  0  0  0  0
  133.2320  122.3511   59.3196 H   0  0  0  0  0  0  0  0  0  0  0  0
  131.0443  124.0991   64.5951 H   0  0  0  0  0  0  0  0  0  0  0  0
  130.3682  122.4600   64.3074 H   0  0  0  0  0  0  0  0  0  0  0  0
  132.1469  122.7105   64.3074 H   0  0  0  0  0  0  0  0  0  0  0  0
  131.0777  125.5032   63.2281 H   0  0  0  0  0  0  0  0  0  0  0  0
  131.9828  125.2746   61.6935 H   0  0  0  0  0  0  0  0  0  0  0  0
  130.1873  125.2230   61.6935 H   0  0  0  0  0  0  0  0  0  0  0  0
  130.2214  121.8625   61.3595 H   0  0  0  0  0  0  0  0  0  0  0  0
  129.2338  122.5121   62.7774 H   0  0  0  0  0  0  0  0  0  0  0  0
  128.1115  123.9218   61.5019 H   0  0  0  0  0  0  0  0  0  0  0  0
  129.6287  124.4728   60.6605 H   0  0  0  0  0  0  0  0  0  0  0  0
  129.5074  122.7107   59.0727 H   0  0  0  0  0  0  0  0  0  0  0  0
  128.1512  121.9100   60.0335 H   0  0  0  0  0  0  0  0  0  0  0  0
  126.6870  123.8202   59.4611 H   0  0  0  0  0  0  0  0  0  0  0  0
  126.5192  121.7012   58.2535 H   0  0  0  0  0  0  0  0  0  0  0  0
  126.2438  123.0682   57.1211 H   0  0  0  0  0  0  0  0  0  0  0  0
  127.8193  122.2053   57.1211 H   0  0  0  0  0  0  0  0  0  0  0  0
  127.5576  124.8297   57.2109 H   0  0  0  0  0  0  0  0  0  0  0  0
  129.9935  124.4568   58.9946 H   0  0  0  0  0  0  0  0  0  0  0  0
  129.9606  124.7355   57.2352 H   0  0  0  0  0  0  0  0  0  0  0  0
  130.3157  126.6934   59.4297 H   0  0  0  0  0  0  0  0  0  0  0  0
  130.5844  126.9423   57.7041 H   0  0  0  0  0  0  0  0  0  0  0  0
  128.3086  127.5511   57.3114 H   0  0  0  0  0  0  0  0  0  0  0  0
  128.7081  129.6726   57.2404 H   0  0  0  0  0  0  0  0  0  0  0  0
  129.9451  132.8838   60.3525 H   0  0  0  0  0  0  0  0  0  0  0  0
  129.1729  133.4844   62.7034 H   0  0  0  0  0  0  0  0  0  0  0  0
  130.6270  131.4410   63.6200 H   0  0  0  0  0  0  0  0  0  0  0  0
  127.3278  132.1256   62.9444 H   0  0  0  0  0  0  0  0  0  0  0  0
  129.2930  131.8250   64.8300 H   0  0  0  0  0  0  0  0  0  0  0  0
  129.1427  129.6767   62.8189 H   0  0  0  0  0  0  0  0  0  0  0  0
  127.3445  129.6907   63.1538 H   0  0  0  0  0  0  0  0  0  0  0  0
  125.8703  130.5919   61.8342 H   0  0  0  0  0  0  0  0  0  0  0  0
  126.3109  131.4096   60.2967 H   0  0  0  0  0  0  0  0  0  0  0  0
  125.8898  129.6633   60.2967 H   0  0  0  0  0  0  0  0  0  0  0  0
  129.1962  128.4152   61.0337 H   0  0  0  0  0  0  0  0  0  0  0  0
  127.3092  127.4707   62.1337 H   0  0  0  0  0  0  0  0  0  0  0  0
  126.2308  127.8695   60.7181 H   0  0  0  0  0  0  0  0  0  0  0  0
  128.5208  125.8595   60.7246 H   0  0  0  0  0  0  0  0  0  0  0  0
  126.7437  125.4934   60.7627 H   0  0  0  0  0  0  0  0  0  0  0  0
  125.3792  126.8009   59.1928 H   0  0  0  0  0  0  0  0  0  0  0  0
  126.1193  127.5315   57.7282 H   0  0  0  0  0  0  0  0  0  0  0  0
  125.6516  125.7972   57.7282 H   0  0  0  0  0  0  0  0  0  0  0  0
  1  2  1  0
  2  3  1  0
  2  4  1  0
  4  5  1  0
  5  6  2  0
  5  7  1  0
  7  8  1  0
  8  9  1  0
  8 10  1  0
  8 11  1  0
 11 12  1  0
 12 13  1  0
 13 14  1  0
 14 15  1  0
 14 16  1  0
 16 17  1  0
 17 18  1  0
 18 19  1  0
 19 20  1  0
 20 21  2  0
 21 22  1  0
 22 23  2  0
 22 24  1  0
 24 25  2  0
 25 26  1  0
 26 27  1  0
 26 28  1  0
 28 29  1  0
 28 30  1  0
 30 31  1  0
 31 32  1  1
 31 33  1  0
 33 34  1  0
 34 35  1  0
 35 36  1  0
 36 37  1  1
 36 16  1  0
 36 19  1  0
 33 20  1  0
 31 24  1  0
  1 38  1  0
  1 39  1  0
  1 40  1  0
  2 41  1  1
  3 42  1  0
  4 43  1  0
  4 44  1  0
  9 45  1  0
  9 46  1  0
  9 47  1  0
 10 48  1  0
 10 49  1  0
 10 50  1  0
 11 51  1  0
 11 52  1  0
 12 53  1  0
 12 54  1  0
 13 55  1  0
 13 56  1  0
 14 57  1  1
 15 58  1  0
 15 59  1  0
 15 60  1  0
 16 61  1  6
 17 62  1  0
 17 63  1  0
 18 64  1  0
 18 65  1  0
 19 66  1  6
 21 67  1  0
 25 68  1  0
 26 69  1  6
 27 70  1  0
 28 71  1  1
 29 72  1  0
 30 73  1  0
 30 74  1  0
 32 75  1  0
 32 76  1  0
 32 77  1  0
 33 78  1  1
 34 79  1  0
 34 80  1  0
 35 81  1  0
 35 82  1  0
 37 83  1  0
 37 84  1  0
 37 85  1  0
M  END
>  <Binding energies>  (1) 
[-8.03]

>  <Ligand effiencies>  (1) 
[-0.20074999999999998]

>  <Interactions>  (1) 
["V-A:ILE:369:CG2:3237, V-A:ASP:366:CA:3210, V-B:PRO:540:CA:9855, V-A:ILE:369:CB:3236, H-A:ALA:541:N:4891, H-A:ALA:541:O:4889, V-B:ASP:366:CG:8184, V-B:TYR:539:CE2:9848, V-B:TYR:539:C:9839, V-A:ASP:366:CG:3213, V-B:TYR:539:CZ:9849, H-A:ASN:370:N:3244, H-B:TYR:539:OH:9850, V-A:ALA:541:CB:4892, V-B:ASP:366:CB:8183, V-B:PRO:540:CB:9857, H-B:TYR:484:OH:9319, V-B:PRO:540:N:9856, V-A:ASP:366:C:3208, V-B:TYR:539:CD2:9846, V-B:PRO:540:CD:9859, V-A:ASP:366:CB:3212, V-A:LEU:475:CD2:4259, H-A:GLU:543:OE1:4909, H-A:ASP:366:O:3209, V-A:PRO:540:CA:4883"]

$$$$
ZINC257440073-again1
     RDKit          3D

105117  0  0  0  0  0  0  0  0999 V2000
  133.6370  119.8090   59.3270 O   0  0  0  0  0  0  0  0  0  0  0  0
  133.3970  120.8200   59.9820 C   0  0  0  0  0  0  0  0  0  0  0  0
  132.2480  121.7070   59.7180 C   0  0  0  0  0  0  0  0  0  0  0  0
  132.0070  122.8330   60.4250 C   0  0  0  0  0  0  0  0  0  0  0  0
  132.8520  123.2970   61.5260 C   0  0  0  0  0  0  0  0  0  0  0  0
  132.6050  124.4290   62.2470 C   0  0  0  0  0  0  0  0  0  0  0  0
  133.2880  124.6610   63.5480 C   0  0  0  0  0  0  0  0  0  0  0  0
  134.5550  125.2710   63.5890 C   0  0  0  0  0  0  0  0  0  0  0  0
  135.2120  125.6350   62.4430 O   0  0  0  0  0  0  0  0  0  0  0  0
  135.1870  125.5120   64.8050 C   0  0  0  0  0  0  0  0  0  0  0  0
  134.5670  125.1460   65.9910 C   0  0  0  0  0  0  0  0  0  0  0  0
  135.1960  125.3630   67.1880 O   0  0  0  0  0  0  0  0  0  0  0  0
  133.3080  124.5540   65.9620 C   0  0  0  0  0  0  0  0  0  0  0  0
  132.6210  124.3260   64.7600 C   0  0  0  0  0  0  0  0  0  0  0  0
  131.2160  123.6470   64.7740 C   0  0  2  0  0  0  0  0  0  0  0  0
  130.1170  124.0200   63.7960 C   0  0  0  0  0  0  0  0  0  0  0  0
  128.9260  123.6350   64.3670 C   0  0  0  0  0  0  0  0  0  0  0  0
  127.7230  123.7350   63.6870 C   0  0  0  0  0  0  0  0  0  0  0  0
  127.7350  124.2170   62.3740 C   0  0  0  0  0  0  0  0  0  0  0  0
  126.5120  124.4030   61.7800 O   0  0  0  0  0  0  0  0  0  0  0  0
  128.9510  124.5660   61.7300 C   0  0  0  0  0  0  0  0  0  0  0  0
  130.1140  124.6060   62.5270 C   0  0  0  0  0  0  0  0  0  0  0  0
  131.3560  125.3120   62.0580 C   0  0  2  0  0  0  0  0  0  0  0  0
  131.1270  126.3190   60.8740 C   0  0  1  0  0  0  0  0  0  0  0  0
  130.0600  125.8820   59.8710 C   0  0  0  0  0  0  0  0  0  0  0  0
  129.0760  124.9260   60.2530 C   0  0  0  0  0  0  0  0  0  0  0  0
  128.3250  124.2970   59.2130 C   0  0  0  0  0  0  0  0  0  0  0  0
  127.6640  123.2160   59.3740 O   0  0  0  0  0  0  0  0  0  0  0  0
  128.3440  124.8070   57.9130 C   0  0  0  0  0  0  0  0  0  0  0  0
  129.1370  125.9040   57.6470 C   0  0  0  0  0  0  0  0  0  0  0  0
  130.0190  126.4200   58.5730 C   0  0  0  0  0  0  0  0  0  0  0  0
  130.8060  127.4890   57.8380 C   0  0  2  0  0  0  0  0  0  0  0  0
  131.4640  128.6560   58.6150 C   0  0  0  0  0  0  0  0  0  0  0  0
  132.4760  129.4270   58.0180 C   0  0  0  0  0  0  0  0  0  0  0  0
  133.0720  130.4980   58.6700 C   0  0  0  0  0  0  0  0  0  0  0  0
  134.0380  131.2370   58.0400 O   0  0  0  0  0  0  0  0  0  0  0  0
  132.6880  130.8120   59.9620 C   0  0  0  0  0  0  0  0  0  0  0  0
  131.7350  130.0340   60.6110 C   0  0  0  0  0  0  0  0  0  0  0  0
  131.4330  130.3780   61.9050 O   0  0  0  0  0  0  0  0  0  0  0  0
  131.1290  128.9320   59.9680 C   0  0  0  0  0  0  0  0  0  0  0  0
  130.1290  128.0320   60.7220 C   0  0  2  0  0  0  0  0  0  0  0  0
  129.1610  128.8480   61.6070 C   0  0  0  0  0  0  0  0  0  0  0  0
  128.5670  129.9890   61.0510 C   0  0  0  0  0  0  0  0  0  0  0  0
  127.6700  130.7590   61.7850 C   0  0  0  0  0  0  0  0  0  0  0  0
  127.3660  130.4000   63.0950 C   0  0  0  0  0  0  0  0  0  0  0  0
  126.4780  131.1500   63.8180 O   0  0  0  0  0  0  0  0  0  0  0  0
  127.9600  129.2810   63.6720 C   0  0  0  0  0  0  0  0  0  0  0  0
  128.8530  128.5120   62.9320 C   0  0  0  0  0  0  0  0  0  0  0  0
  129.8270  127.7950   56.6610 C   0  0  2  0  0  0  0  0  0  0  0  0
  128.7770  128.9080   56.8310 C   0  0  0  0  0  0  0  0  0  0  0  0
  127.4070  128.6200   56.8780 C   0  0  0  0  0  0  0  0  0  0  0  0
  126.4810  129.6460   57.0410 C   0  0  0  0  0  0  0  0  0  0  0  0
  126.9190  130.9630   57.1520 C   0  0  0  0  0  0  0  0  0  0  0  0
  126.0080  131.9720   57.3180 O   0  0  0  0  0  0  0  0  0  0  0  0
  128.2790  131.2620   57.0940 C   0  0  0  0  0  0  0  0  0  0  0  0
  129.2060  130.2360   56.9300 C   0  0  0  0  0  0  0  0  0  0  0  0
  129.1550  126.5570   56.4420 O   0  0  0  0  0  0  0  0  0  0  0  0
  129.0610  123.2130   65.6660 O   0  0  0  0  0  0  0  0  0  0  0  0
  130.3890  123.5510   66.0890 C   0  0  2  0  0  0  0  0  0  0  0  0
  130.3380  124.7840   67.0030 C   0  0  0  0  0  0  0  0  0  0  0  0
  129.3500  124.8610   67.9910 C   0  0  0  0  0  0  0  0  0  0  0  0
  129.2900  125.9640   68.8370 C   0  0  0  0  0  0  0  0  0  0  0  0
  130.2150  126.9970   68.6940 C   0  0  0  0  0  0  0  0  0  0  0  0
  130.1580  128.0800   69.5310 O   0  0  0  0  0  0  0  0  0  0  0  0
  131.1960  126.9360   67.7060 C   0  0  0  0  0  0  0  0  0  0  0  0
  131.2550  125.8330   66.8590 C   0  0  0  0  0  0  0  0  0  0  0  0
  133.9700  122.3920   61.8210 C   0  0  0  0  0  0  0  0  0  0  0  0
  134.2240  121.2640   61.1190 C   0  0  0  0  0  0  0  0  0  0  0  0
  131.5547  121.4390   58.9072 H   0  0  0  0  0  0  0  0  0  0  0  0
  131.1259  123.4349   60.1579 H   0  0  0  0  0  0  0  0  0  0  0  0
  136.1200  125.9040   62.6030 H   0  0  0  0  0  0  0  0  0  0  0  0
  136.1766  125.9919   64.8260 H   0  0  0  0  0  0  0  0  0  0  0  0
  135.3310  124.5560   67.6890 H   0  0  0  0  0  0  0  0  0  0  0  0
  132.8370  124.2557   66.9103 H   0  0  0  0  0  0  0  0  0  0  0  0
  131.7446  122.7254   64.4889 H   0  0  0  0  0  0  0  0  0  0  0  0
  126.7789  123.4417   64.1693 H   0  0  0  0  0  0  0  0  0  0  0  0
  126.4690  124.0400   60.8920 H   0  0  0  0  0  0  0  0  0  0  0  0
  131.6861  126.1335   62.7108 H   0  0  0  0  0  0  0  0  0  0  0  0
  132.2247  126.3871   60.8523 H   0  0  0  0  0  0  0  0  0  0  0  0
  127.7400  124.3442   57.1187 H   0  0  0  0  0  0  0  0  0  0  0  0
  131.8022  127.1504   57.5171 H   0  0  0  0  0  0  0  0  0  0  0  0
  132.8069  129.1734   57.0001 H   0  0  0  0  0  0  0  0  0  0  0  0
  134.4180  130.7820   57.2860 H   0  0  0  0  0  0  0  0  0  0  0  0
  133.1359  131.6758   60.4750 H   0  0  0  0  0  0  0  0  0  0  0  0
  131.0750  129.6440   62.4090 H   0  0  0  0  0  0  0  0  0  0  0  0
  129.1724  127.5748   60.4289 H   0  0  0  0  0  0  0  0  0  0  0  0
  128.8134  130.2802   60.0193 H   0  0  0  0  0  0  0  0  0  0  0  0
  127.2037  131.6466   61.3324 H   0  0  0  0  0  0  0  0  0  0  0  0
  125.7510  131.4820   63.2860 H   0  0  0  0  0  0  0  0  0  0  0  0
  127.7240  129.0053   64.7104 H   0  0  0  0  0  0  0  0  0  0  0  0
  129.3225  127.6302   63.3925 H   0  0  0  0  0  0  0  0  0  0  0  0
  130.4377  128.1912   55.8364 H   0  0  0  0  0  0  0  0  0  0  0  0
  127.0620  127.5796   56.7858 H   0  0  0  0  0  0  0  0  0  0  0  0
  125.4059  129.4171   57.0820 H   0  0  0  0  0  0  0  0  0  0  0  0
  125.3790  131.7950   58.0210 H   0  0  0  0  0  0  0  0  0  0  0  0
  128.6189  132.3048   57.1775 H   0  0  0  0  0  0  0  0  0  0  0  0
  130.2795  130.4704   56.8781 H   0  0  0  0  0  0  0  0  0  0  0  0
  130.8921  122.8115   66.7294 H   0  0  0  0  0  0  0  0  0  0  0  0
  128.6183  124.0468   68.0992 H   0  0  0  0  0  0  0  0  0  0  0  0
  128.5154  126.0207   69.6159 H   0  0  0  0  0  0  0  0  0  0  0  0
  130.7860  128.0240   70.2540 H   0  0  0  0  0  0  0  0  0  0  0  0
  131.9207  127.7562   67.5960 H   0  0  0  0  0  0  0  0  0  0  0  0
  132.0242  125.7850   66.0741 H   0  0  0  0  0  0  0  0  0  0  0  0
  134.6371  122.6450   62.6582 H   0  0  0  0  0  0  0  0  0  0  0  0
  135.0883  120.6490   61.4101 H   0  0  0  0  0  0  0  0  0  0  0  0
  1  2  2  0
  2  3  1  0
  3  4  2  0
  4  5  1  0
  5  6  2  3
  6  7  1  0
  7  8  2  0
  8  9  1  0
  8 10  1  0
 10 11  2  0
 11 12  1  0
 11 13  1  0
 13 14  2  0
 14 15  1  0
 15 16  1  0
 16 17  2  0
 17 18  1  0
 18 19  2  0
 19 20  1  0
 19 21  1  0
 21 22  2  0
 22 23  1  0
 23 24  1  0
 24 25  1  0
 25 26  2  0
 26 27  1  0
 27 28  1  0
 27 29  2  0
 29 30  1  0
 30 31  2  0
 31 32  1  0
 32 33  1  0
 33 34  2  0
 34 35  1  0
 35 36  1  0
 35 37  2  0
 37 38  1  0
 38 39  1  0
 38 40  2  0
 40 41  1  0
 41 42  1  0
 42 43  2  0
 43 44  1  0
 44 45  2  0
 45 46  1  0
 45 47  1  0
 47 48  2  0
 32 49  1  0
 49 50  1  0
 50 51  2  0
 51 52  1  0
 52 53  2  0
 53 54  1  0
 53 55  1  0
 55 56  2  0
 49 57  1  0
 17 58  1  0
 58 59  1  0
 59 60  1  0
 60 61  2  0
 61 62  1  0
 62 63  2  0
 63 64  1  0
 63 65  1  0
 65 66  2  0
  5 67  1  0
 67 68  2  0
 68  2  1  0
 23  6  1  0
 41 24  1  0
 48 42  1  0
 56 50  1  0
 66 60  1  0
 14  7  1  0
 59 15  1  0
 22 16  1  0
 31 25  1  0
 40 33  1  0
 26 21  1  0
 57 30  1  0
  3 69  1  0
  4 70  1  0
  9 71  1  0
 10 72  1  0
 12 73  1  0
 13 74  1  0
 15 75  1  6
 18 76  1  0
 20 77  1  0
 23 78  1  1
 24 79  1  1
 29 80  1  0
 32 81  1  6
 34 82  1  0
 36 83  1  0
 37 84  1  0
 39 85  1  0
 41 86  1  6
 43 87  1  0
 44 88  1  0
 46 89  1  0
 47 90  1  0
 48 91  1  0
 49 92  1  6
 51 93  1  0
 52 94  1  0
 54 95  1  0
 55 96  1  0
 56 97  1  0
 59 98  1  1
 61 99  1  0
 62100  1  0
 64101  1  0
 65102  1  0
 66103  1  0
 67104  1  0
 68105  1  0
M  CHG  1  28  -1
M  END
>  <Binding energies>  (1) 
[191.53]

>  <Ligand effiencies>  (1) 
[2.394125]

>  <Interactions>  (1) 
["V-A:ILE:369:CG2:3237, V-A:GLY:454:CA:4049, V-B:GLU:543:C:9874, V-B:GLU:543:CB:9878, H-A:TYR:531:OH:4795, H-A:ARG:545:NH1:4927, V-A:TYR:484:CE2:4346, V-B:TYR:539:CE2:9848, V-B:GLU:543:CG:9879, V-A:TYR:539:CE1:4875, V-A:ASP:366:CG:3213, V-A:LEU:363:CD1:3189, V-B:TYR:539:CZ:9849, H-B:GLU:543:OE1:9881, V-A:TYR:531:CE2:4793, V-B:TYR:531:CZ:9766, H-A:LEU:363:O:3184, H-A:ILE:455:O:4053, V-A:TYR:484:CZ:4347, V-A:GLU:543:CD:4908, H-B:TYR:484:OH:9319, V-A:ARG:545:CG:4922, H-A:GLY:454:N:4050, V-A:SER:385:C:3405, V-A:GLY:453:C:4042, V-B:GLU:543:CA:9876, V-A:ILE:369:CD1:3239, V-A:HIS:456:CE1:4070, V-B:TYR:539:CD2:9846, V-A:TYR:531:CZ:4794, V-A:SER:385:CB:3409, H-A:SER:385:OG:3410, V-B:GLU:543:CD:9880, V-A:MET:535:CE:4835, V-A:ASP:366:CB:3212, V-A:ARG:545:CD:4923, V-A:LEU:475:CD2:4259, H-A:ARG:545:NH2:4928, H-A:ILE:455:N:4055, H-A:GLU:543:OE1:4909, V-A:ARG:545:CZ:4926, V-A:GLU:543:CB:4906, H-A:ASP:366:OD1:3214, V-A:LEU:363:CA:3185, V-A:PRO:540:CB:4885, V-A:GLY:453:CA:4044, H-A:ARG:545:NE:4924, V-A:SER:385:CA:3407, H-A:TYR:539:OH:4878, H-A:ASP:366:OD2:3215, H-A:GLY:544:O:4913, H-A:TYR:484:OH:4348, H-A:GLU:543:O:4903"]

$$$$
ZINC257440073-again3
     RDKit          3D

104116  0  0  0  0  0  0  0  0999 V2000
  134.0390  120.0660   59.6240 O   0  0  0  0  0  0  0  0  0  0  0  0
  133.6030  121.0210   60.2620 C   0  0  0  0  0  0  0  0  0  0  0  0
  132.4350  121.8160   59.8390 C   0  0  0  0  0  0  0  0  0  0  0  0
  131.9780  122.8840   60.5300 C   0  0  0  0  0  0  0  0  0  0  0  0
  132.5880  123.3700   61.7690 C   0  0  0  0  0  0  0  0  0  0  0  0
  132.1230  124.4430   62.4740 C   0  0  0  0  0  0  0  0  0  0  0  0
  132.5630  124.6690   63.8760 C   0  0  0  0  0  0  0  0  0  0  0  0
  133.7250  125.4130   64.1500 C   0  0  0  0  0  0  0  0  0  0  0  0
  134.5070  125.9160   63.1440 O   0  0  0  0  0  0  0  0  0  0  0  0
  134.1220  125.6470   65.4620 C   0  0  0  0  0  0  0  0  0  0  0  0
  133.3720  125.1430   66.5150 C   0  0  0  0  0  0  0  0  0  0  0  0
  133.7730  125.3550   67.8060 O   0  0  0  0  0  0  0  0  0  0  0  0
  132.2150  124.4150   66.2540 C   0  0  0  0  0  0  0  0  0  0  0  0
  131.7590  124.1870   64.9460 C   0  0  0  0  0  0  0  0  0  0  0  0
  130.4640  123.3520   64.6970 C   0  0  2  0  0  0  0  0  0  0  0  0
  129.4690  123.6880   63.6010 C   0  0  0  0  0  0  0  0  0  0  0  0
  128.2740  123.1120   63.9610 C   0  0  0  0  0  0  0  0  0  0  0  0
  127.1660  123.1390   63.1320 C   0  0  0  0  0  0  0  0  0  0  0  0
  127.2770  123.7520   61.8750 C   0  0  0  0  0  0  0  0  0  0  0  0
  126.1930  123.8580   61.2090 O   0  0  0  0  0  0  0  0  0  0  0  0
  128.5240  124.2990   61.4380 C   0  0  0  0  0  0  0  0  0  0  0  0
  129.5600  124.3900   62.3940 C   0  0  0  0  0  0  0  0  0  0  0  0
  130.7610  125.2710   62.1710 C   0  0  2  0  0  0  0  0  0  0  0  0
  130.5820  126.3620   61.0540 C   0  0  2  0  0  0  0  0  0  0  0  0
  129.7290  125.9070   59.8730 C   0  0  0  0  0  0  0  0  0  0  0  0
  128.8230  124.8220   60.0360 C   0  0  0  0  0  0  0  0  0  0  0  0
  128.3060  124.2130   58.8640 C   0  0  0  0  0  0  0  0  0  0  0  0
  127.7070  122.9780   58.8790 O   0  0  0  0  0  0  0  0  0  0  0  0
  128.4400  124.8190   57.6190 C   0  0  0  0  0  0  0  0  0  0  0  0
  129.1260  126.0160   57.5430 C   0  0  0  0  0  0  0  0  0  0  0  0
  129.8050  126.5450   58.6220 C   0  0  0  0  0  0  0  0  0  0  0  0
  130.5540  127.7500   58.0860 C   0  0  2  0  0  0  0  0  0  0  0  0
  130.9640  128.9080   59.0290 C   0  0  0  0  0  0  0  0  0  0  0  0
  130.9330  130.2370   58.5720 C   0  0  0  0  0  0  0  0  0  0  0  0
  131.2640  131.3130   59.3920 C   0  0  0  0  0  0  0  0  0  0  0  0
  131.2040  132.5040   58.9500 O   0  0  0  0  0  0  0  0  0  0  0  0
  131.6640  131.0720   60.7000 C   0  0  0  0  0  0  0  0  0  0  0  0
  131.7680  129.7660   61.1660 C   0  0  0  0  0  0  0  0  0  0  0  0
  132.2110  129.6040   62.4540 O   0  0  0  0  0  0  0  0  0  0  0  0
  131.4540  128.6640   60.3390 C   0  0  0  0  0  0  0  0  0  0  0  0
  131.6630  127.2200   60.8390 C   0  0  2  0  0  0  0  0  0  0  0  0
  132.5790  126.4070   59.8990 C   0  0  0  0  0  0  0  0  0  0  0  0
  133.3870  125.4120   60.4690 C   0  0  0  0  0  0  0  0  0  0  0  0
  134.2250  124.6300   59.6790 C   0  0  0  0  0  0  0  0  0  0  0  0
  134.2700  124.8440   58.3050 C   0  0  0  0  0  0  0  0  0  0  0  0
  135.0870  124.0740   57.5220 O   0  0  0  0  0  0  0  0  0  0  0  0
  133.4900  125.8380   57.7210 C   0  0  0  0  0  0  0  0  0  0  0  0
  132.6520  126.6140   58.5170 C   0  0  0  0  0  0  0  0  0  0  0  0
  129.7100  128.0500   56.8090 C   0  0  2  0  0  0  0  0  0  0  0  0
  128.5200  129.0220   56.9100 C   0  0  0  0  0  0  0  0  0  0  0  0
  127.2390  128.5780   57.2630 C   0  0  0  0  0  0  0  0  0  0  0  0
  126.1820  129.4800   57.3490 C   0  0  0  0  0  0  0  0  0  0  0  0
  126.4010  130.8290   57.0770 C   0  0  0  0  0  0  0  0  0  0  0  0
  125.3620  131.7170   57.1650 O   0  0  0  0  0  0  0  0  0  0  0  0
  127.6680  131.2810   56.7140 C   0  0  0  0  0  0  0  0  0  0  0  0
  128.7250  130.3770   56.6290 C   0  0  0  0  0  0  0  0  0  0  0  0
  129.2290  126.7700   56.4040 O   0  0  0  0  0  0  0  0  0  0  0  0
  128.2870  122.5850   65.2280 O   0  0  0  0  0  0  0  0  0  0  0  0
  129.4870  123.0400   65.8680 C   0  0  2  0  0  0  0  0  0  0  0  0
  129.1490  124.1710   66.8500 C   0  0  0  0  0  0  0  0  0  0  0  0
  128.6470  125.3780   66.3530 C   0  0  0  0  0  0  0  0  0  0  0  0
  128.3240  126.4150   67.2230 C   0  0  0  0  0  0  0  0  0  0  0  0
  128.5100  126.2500   68.5950 C   0  0  0  0  0  0  0  0  0  0  0  0
  128.1900  127.2700   69.4500 O   0  0  0  0  0  0  0  0  0  0  0  0
  129.0210  125.0560   69.1000 C   0  0  0  0  0  0  0  0  0  0  0  0
  129.3430  124.0190   68.2280 C   0  0  0  0  0  0  0  0  0  0  0  0
  133.7230  122.5530   62.2170 C   0  0  0  0  0  0  0  0  0  0  0  0
  134.1900  121.4840   61.5320 C   0  0  0  0  0  0  0  0  0  0  0  0
  131.9105  121.5258   58.9167 H   0  0  0  0  0  0  0  0  0  0  0  0
  131.0989  123.4177   60.1397 H   0  0  0  0  0  0  0  0  0  0  0  0
  134.3670  125.4710   62.3050 H   0  0  0  0  0  0  0  0  0  0  0  0
  135.0311  126.2320   65.6652 H   0  0  0  0  0  0  0  0  0  0  0  0
  133.9350  124.5410   68.2870 H   0  0  0  0  0  0  0  0  0  0  0  0
  131.6404  124.0059   67.0981 H   0  0  0  0  0  0  0  0  0  0  0  0
  131.1362  122.5280   64.4157 H   0  0  0  0  0  0  0  0  0  0  0  0
  126.2155  122.6879   63.4530 H   0  0  0  0  0  0  0  0  0  0  0  0
  130.9036  126.0668   62.9169 H   0  0  0  0  0  0  0  0  0  0  0  0
  129.9194  127.1235   61.4911 H   0  0  0  0  0  0  0  0  0  0  0  0
  127.2500  122.7950   59.7030 H   0  0  0  0  0  0  0  0  0  0  0  0
  128.0107  124.3569   56.7178 H   0  0  0  0  0  0  0  0  0  0  0  0
  131.6172  127.5490   57.8877 H   0  0  0  0  0  0  0  0  0  0  0  0
  130.6372  130.4339   57.5310 H   0  0  0  0  0  0  0  0  0  0  0  0
  131.8986  131.9143   61.3674 H   0  0  0  0  0  0  0  0  0  0  0  0
  132.5170  130.4270   62.8410 H   0  0  0  0  0  0  0  0  0  0  0  0
  132.0649  127.4801   61.8294 H   0  0  0  0  0  0  0  0  0  0  0  0
  133.3580  125.2473   61.5562 H   0  0  0  0  0  0  0  0  0  0  0  0
  134.8476  123.8479   60.1381 H   0  0  0  0  0  0  0  0  0  0  0  0
  134.6610  123.7840   56.7130 H   0  0  0  0  0  0  0  0  0  0  0  0
  133.5355  126.0096   56.6354 H   0  0  0  0  0  0  0  0  0  0  0  0
  132.0388  127.4007   58.0532 H   0  0  0  0  0  0  0  0  0  0  0  0
  130.3718  128.5834   56.1108 H   0  0  0  0  0  0  0  0  0  0  0  0
  127.0676  127.5120   57.4732 H   0  0  0  0  0  0  0  0  0  0  0  0
  125.1781  129.1292   57.6305 H   0  0  0  0  0  0  0  0  0  0  0  0
  125.4670  132.4700   56.5800 H   0  0  0  0  0  0  0  0  0  0  0  0
  127.8331  132.3464   56.4956 H   0  0  0  0  0  0  0  0  0  0  0  0
  129.7256  130.7306   56.3395 H   0  0  0  0  0  0  0  0  0  0  0  0
  129.9901  122.3136   66.5232 H   0  0  0  0  0  0  0  0  0  0  0  0
  128.5069  125.5082   65.2698 H   0  0  0  0  0  0  0  0  0  0  0  0
  127.9235  127.3611   66.8299 H   0  0  0  0  0  0  0  0  0  0  0  0
  128.9510  127.7990   69.7000 H   0  0  0  0  0  0  0  0  0  0  0  0
  129.1694  124.9331   70.1830 H   0  0  0  0  0  0  0  0  0  0  0  0
  129.7512  123.0772   68.6234 H   0  0  0  0  0  0  0  0  0  0  0  0
  134.2200  122.8247   63.1599 H   0  0  0  0  0  0  0  0  0  0  0  0
  135.0494  120.9338   61.9428 H   0  0  0  0  0  0  0  0  0  0  0  0
  1  2  2  0
  2  3  1  0
  3  4  2  0
  4  5  1  0
  5  6  2  3
  6  7  1  0
  7  8  2  0
  8  9  1  0
  8 10  1  0
 10 11  2  0
 11 12  1  0
 11 13  1  0
 13 14  2  0
 14 15  1  0
 15 16  1  0
 16 17  2  0
 17 18  1  0
 18 19  2  0
 19 20  1  0
 19 21  1  0
 21 22  2  0
 22 23  1  0
 23 24  1  0
 24 25  1  0
 25 26  2  0
 26 27  1  0
 27 28  1  0
 27 29  2  0
 29 30  1  0
 30 31  2  0
 31 32  1  0
 32 33  1  0
 33 34  2  0
 34 35  1  0
 35 36  1  0
 35 37  2  0
 37 38  1  0
 38 39  1  0
 38 40  2  0
 40 41  1  0
 41 42  1  0
 42 43  2  0
 43 44  1  0
 44 45  2  0
 45 46  1  0
 45 47  1  0
 47 48  2  0
 32 49  1  0
 49 50  1  0
 50 51  2  0
 51 52  1  0
 52 53  2  0
 53 54  1  0
 53 55  1  0
 55 56  2  0
 49 57  1  0
 17 58  1  0
 58 59  1  0
 59 60  1  0
 60 61  2  0
 61 62  1  0
 62 63  2  0
 63 64  1  0
 63 65  1  0
 65 66  2  0
  5 67  1  0
 67 68  2  0
 68  2  1  0
 23  6  1  0
 41 24  1  0
 48 42  1  0
 56 50  1  0
 66 60  1  0
 14  7  1  0
 59 15  1  0
 22 16  1  0
 31 25  1  0
 40 33  1  0
 26 21  1  0
 57 30  1  0
  3 69  1  0
  4 70  1  0
  9 71  1  0
 10 72  1  0
 12 73  1  0
 13 74  1  0
 15 75  1  6
 18 76  1  0
 23 77  1  1
 24 78  1  1
 28 79  1  0
 29 80  1  0
 32 81  1  6
 34 82  1  0
 37 83  1  0
 39 84  1  0
 41 85  1  1
 43 86  1  0
 44 87  1  0
 46 88  1  0
 47 89  1  0
 48 90  1  0
 49 91  1  6
 51 92  1  0
 52 93  1  0
 54 94  1  0
 55 95  1  0
 56 96  1  0
 59 97  1  1
 61 98  1  0
 62 99  1  0
 64100  1  0
 65101  1  0
 66102  1  0
 67103  1  0
 68104  1  0
M  CHG  2  20  -1  36  -1
M  END
>  <Binding energies>  (1) 
[120.96]

>  <Ligand effiencies>  (1) 
[1.531139240506329]

>  <Interactions>  (1) 
["V-A:ILE:369:CG2:3237, V-A:ASP:366:CA:3210, V-A:GLY:454:CA:4049, V-B:GLU:543:C:9874, V-A:ILE:369:CB:3236, V-B:GLU:543:CB:9878, V-B:ALA:541:CB:9864, H-A:TYR:531:OH:4795, H-A:ARG:545:NH1:4927, V-A:TYR:484:CE2:4346, V-B:TYR:539:CE2:9848, V-B:GLU:543:CG:9879, V-A:ASP:366:CG:3213, V-B:TYR:539:CZ:9849, H-A:ASN:370:N:3244, V-B:TYR:531:CZ:9766, H-B:TYR:539:OH:9850, H-A:ILE:455:O:4053, V-A:TYR:484:CZ:4347, V-B:GLU:543:CA:9876, V-A:ARG:545:CG:4922, V-A:SER:385:C:3405, V-A:TYR:484:CD2:4344, V-A:HIS:456:CE1:4070, V-B:ALA:541:C:9860, V-A:ILE:369:CD1:3239, V-A:ASP:366:C:3208, H-B:HIS:456:NE2:9042, V-B:TYR:539:CD2:9846, V-A:TYR:531:CZ:4794, V-A:SER:385:CB:3409, H-A:SER:385:OG:3410, V-B:GLU:543:CD:9880, V-A:MET:535:CE:4835, V-A:ASP:366:CB:3212, V-A:ARG:545:CD:4923, V-A:LEU:475:CD2:4259, H-A:ARG:545:NH2:4928, V-A:ARG:545:CZ:4926, H-A:GLU:543:OE1:4909, H-A:ASP:366:O:3209, H-A:ASP:366:OD1:3214, V-A:PRO:540:CB:4885, V-A:PRO:540:CA:4883, V-A:GLY:453:CA:4044, H-A:ARG:545:NE:4924, V-A:SER:385:CA:3407, H-A:TYR:539:OH:4878, H-A:ILE:369:N:3235, H-A:ASP:366:OD2:3215, V-B:ALA:541:CA:9862, H-B:GLU:543:N:9877, V-A:TYR:539:CE1:4875, H-A:HIS:456:ND1:4067, H-A:TYR:484:OH:4348"]

$$$$
ZINC257440073-again4
     RDKit          3D

104116  0  0  0  0  0  0  0  0999 V2000
  133.7940  119.7350   59.4520 O   0  0  0  0  0  0  0  0  0  0  0  0
  133.5580  120.7620   60.0870 C   0  0  0  0  0  0  0  0  0  0  0  0
  132.4730  121.6980   59.7420 C   0  0  0  0  0  0  0  0  0  0  0  0
  132.2370  122.8400   60.4270 C   0  0  0  0  0  0  0  0  0  0  0  0
  133.0270  123.2710   61.5800 C   0  0  0  0  0  0  0  0  0  0  0  0
  132.7840  124.4180   62.2790 C   0  0  0  0  0  0  0  0  0  0  0  0
  133.3940  124.6290   63.6210 C   0  0  0  0  0  0  0  0  0  0  0  0
  134.6130  125.3200   63.7460 C   0  0  0  0  0  0  0  0  0  0  0  0
  135.2920  125.7820   62.6500 O   0  0  0  0  0  0  0  0  0  0  0  0
  135.1710  125.5440   65.0000 C   0  0  0  0  0  0  0  0  0  0  0  0
  134.5290  125.0810   66.1400 C   0  0  0  0  0  0  0  0  0  0  0  0
  135.0900  125.2840   67.3720 O   0  0  0  0  0  0  0  0  0  0  0  0
  133.3170  124.4080   66.0260 C   0  0  0  0  0  0  0  0  0  0  0  0
  132.7000  124.1920   64.7830 C   0  0  0  0  0  0  0  0  0  0  0  0
  131.3460  123.4210   64.7040 C   0  0  2  0  0  0  0  0  0  0  0  0
  130.2730  123.7520   63.6830 C   0  0  0  0  0  0  0  0  0  0  0  0
  129.0860  123.2640   64.1790 C   0  0  0  0  0  0  0  0  0  0  0  0
  127.9130  123.3050   63.4410 C   0  0  0  0  0  0  0  0  0  0  0  0
  127.9530  123.8380   62.1500 C   0  0  0  0  0  0  0  0  0  0  0  0
  126.7500  123.9600   61.5030 O   0  0  0  0  0  0  0  0  0  0  0  0
  129.1710  124.2970   61.5810 C   0  0  0  0  0  0  0  0  0  0  0  0
  130.2900  124.3850   62.4360 C   0  0  0  0  0  0  0  0  0  0  0  0
  131.4990  125.1930   62.0580 C   0  0  2  0  0  0  0  0  0  0  0  0
  131.2560  126.2360   60.9080 C   0  0  1  0  0  0  0  0  0  0  0  0
  130.2640  125.7760   59.8390 C   0  0  0  0  0  0  0  0  0  0  0  0
  129.3360  124.7330   60.1290 C   0  0  0  0  0  0  0  0  0  0  0  0
  128.6790  124.1060   59.0270 C   0  0  0  0  0  0  0  0  0  0  0  0
  128.0940  122.9740   59.1060 O   0  0  0  0  0  0  0  0  0  0  0  0
  128.7110  124.6860   57.7580 C   0  0  0  0  0  0  0  0  0  0  0  0
  129.4300  125.8520   57.5820 C   0  0  0  0  0  0  0  0  0  0  0  0
  130.2350  126.3770   58.5700 C   0  0  0  0  0  0  0  0  0  0  0  0
  130.9700  127.5350   57.9220 C   0  0  2  0  0  0  0  0  0  0  0  0
  131.5300  128.6970   58.7770 C   0  0  0  0  0  0  0  0  0  0  0  0
  132.2830  129.7200   58.1750 C   0  0  0  0  0  0  0  0  0  0  0  0
  132.7910  130.7960   58.8990 C   0  0  0  0  0  0  0  0  0  0  0  0
  133.4530  131.7110   58.3150 O   0  0  0  0  0  0  0  0  0  0  0  0
  132.5690  130.8560   60.2680 C   0  0  0  0  0  0  0  0  0  0  0  0
  131.8800  129.8320   60.9070 C   0  0  0  0  0  0  0  0  0  0  0  0
  131.7340  129.9430   62.2670 O   0  0  0  0  0  0  0  0  0  0  0  0
  131.3750  128.7260   60.1890 C   0  0  0  0  0  0  0  0  0  0  0  0
  130.6800  127.5600   60.9210 C   0  0  2  0  0  0  0  0  0  0  0  0
  129.9440  128.0270   62.1970 C   0  0  0  0  0  0  0  0  0  0  0  0
  129.8410  127.1210   63.2620 C   0  0  0  0  0  0  0  0  0  0  0  0
  129.2020  127.4770   64.4460 C   0  0  0  0  0  0  0  0  0  0  0  0
  128.6490  128.7490   64.5720 C   0  0  0  0  0  0  0  0  0  0  0  0
  128.0230  129.1060   65.7370 O   0  0  0  0  0  0  0  0  0  0  0  0
  128.7270  129.6570   63.5220 C   0  0  0  0  0  0  0  0  0  0  0  0
  129.3700  129.2950   62.3400 C   0  0  0  0  0  0  0  0  0  0  0  0
  130.0050  127.8440   56.7370 C   0  0  2  0  0  0  0  0  0  0  0  0
  128.8640  128.8570   56.9440 C   0  0  0  0  0  0  0  0  0  0  0  0
  129.0060  130.2050   56.5890 C   0  0  0  0  0  0  0  0  0  0  0  0
  127.9570  131.0980   56.7890 C   0  0  0  0  0  0  0  0  0  0  0  0
  126.7640  130.6470   57.3510 C   0  0  0  0  0  0  0  0  0  0  0  0
  125.7310  131.5250   57.5460 O   0  0  0  0  0  0  0  0  0  0  0  0
  126.6150  129.3110   57.7170 C   0  0  0  0  0  0  0  0  0  0  0  0
  127.6650  128.4190   57.5160 C   0  0  0  0  0  0  0  0  0  0  0  0
  129.4410  126.5730   56.4180 O   0  0  0  0  0  0  0  0  0  0  0  0
  129.1870  122.8120   65.4700 O   0  0  0  0  0  0  0  0  0  0  0  0
  130.4620  123.2350   65.9720 C   0  0  2  0  0  0  0  0  0  0  0  0
  130.2730  124.4430   66.9030 C   0  0  0  0  0  0  0  0  0  0  0  0
  129.3180  124.3730   67.9230 C   0  0  0  0  0  0  0  0  0  0  0  0
  129.1320  125.4510   68.7840 C   0  0  0  0  0  0  0  0  0  0  0  0
  129.8960  126.6050   68.6230 C   0  0  0  0  0  0  0  0  0  0  0  0
  129.7140  127.6640   69.4730 O   0  0  0  0  0  0  0  0  0  0  0  0
  130.8440  126.6880   67.6050 C   0  0  0  0  0  0  0  0  0  0  0  0
  131.0290  125.6110   66.7430 C   0  0  0  0  0  0  0  0  0  0  0  0
  134.0800  122.3180   61.9530 C   0  0  0  0  0  0  0  0  0  0  0  0
  134.3280  121.1750   61.2730 C   0  0  0  0  0  0  0  0  0  0  0  0
  131.8245  121.4563   58.8870 H   0  0  0  0  0  0  0  0  0  0  0  0
  131.4048  123.4801   60.0988 H   0  0  0  0  0  0  0  0  0  0  0  0
  134.9920  125.3830   61.8300 H   0  0  0  0  0  0  0  0  0  0  0  0
  136.1225  126.0889   65.0884 H   0  0  0  0  0  0  0  0  0  0  0  0
  134.6490  124.7920   68.0690 H   0  0  0  0  0  0  0  0  0  0  0  0
  132.8270  124.0337   66.9369 H   0  0  0  0  0  0  0  0  0  0  0  0
  131.9474  122.5449   64.4197 H   0  0  0  0  0  0  0  0  0  0  0  0
  126.9706  122.9259   63.8630 H   0  0  0  0  0  0  0  0  0  0  0  0
  126.7820  123.6610   60.5920 H   0  0  0  0  0  0  0  0  0  0  0  0
  131.7352  126.0040   62.7627 H   0  0  0  0  0  0  0  0  0  0  0  0
  132.3532  126.2945   60.8567 H   0  0  0  0  0  0  0  0  0  0  0  0
  128.1749  124.2242   56.9158 H   0  0  0  0  0  0  0  0  0  0  0  0
  131.9956  127.2782   57.6183 H   0  0  0  0  0  0  0  0  0  0  0  0
  132.4780  129.6689   57.0936 H   0  0  0  0  0  0  0  0  0  0  0  0
  132.9387  131.7147   60.8475 H   0  0  0  0  0  0  0  0  0  0  0  0
  132.1710  130.7230   62.6180 H   0  0  0  0  0  0  0  0  0  0  0  0
  129.8989  127.2643   60.2052 H   0  0  0  0  0  0  0  0  0  0  0  0
  130.2716  126.1139   63.1603 H   0  0  0  0  0  0  0  0  0  0  0  0
  129.1342  126.7588   65.2764 H   0  0  0  0  0  0  0  0  0  0  0  0
  127.2060  128.6240   65.8810 H   0  0  0  0  0  0  0  0  0  0  0  0
  128.2825  130.6580   63.6240 H   0  0  0  0  0  0  0  0  0  0  0  0
  129.4270  130.0144   61.5098 H   0  0  0  0  0  0  0  0  0  0  0  0
  130.6037  128.3429   55.9607 H   0  0  0  0  0  0  0  0  0  0  0  0
  129.9505  130.5592   56.1503 H   0  0  0  0  0  0  0  0  0  0  0  0
  128.0691  132.1547   56.5048 H   0  0  0  0  0  0  0  0  0  0  0  0
  125.7100  131.8820   58.4360 H   0  0  0  0  0  0  0  0  0  0  0  0
  125.6718  128.9624   58.1629 H   0  0  0  0  0  0  0  0  0  0  0  0
  127.5511  127.3647   57.8084 H   0  0  0  0  0  0  0  0  0  0  0  0
  130.9823  122.5200   66.6263 H   0  0  0  0  0  0  0  0  0  0  0  0
  128.7121  123.4631   68.0451 H   0  0  0  0  0  0  0  0  0  0  0  0
  128.3844  125.3919   69.5887 H   0  0  0  0  0  0  0  0  0  0  0  0
  129.6260  127.3960   70.3900 H   0  0  0  0  0  0  0  0  0  0  0  0
  131.4442  127.6017   67.4831 H   0  0  0  0  0  0  0  0  0  0  0  0
  131.7711  125.6774   65.9338 H   0  0  0  0  0  0  0  0  0  0  0  0
  134.7004  122.5456   62.8324 H   0  0  0  0  0  0  0  0  0  0  0  0
  135.1427  120.5236   61.6221 H   0  0  0  0  0  0  0  0  0  0  0  0
  1  2  2  0
  2  3  1  0
  3  4  2  0
  4  5  1  0
  5  6  2  3
  6  7  1  0
  7  8  2  0
  8  9  1  0
  8 10  1  0
 10 11  2  0
 11 12  1  0
 11 13  1  0
 13 14  2  0
 14 15  1  0
 15 16  1  0
 16 17  2  0
 17 18  1  0
 18 19  2  0
 19 20  1  0
 19 21  1  0
 21 22  2  0
 22 23  1  0
 23 24  1  0
 24 25  1  0
 25 26  2  0
 26 27  1  0
 27 28  1  0
 27 29  2  0
 29 30  1  0
 30 31  2  0
 31 32  1  0
 32 33  1  0
 33 34  2  0
 34 35  1  0
 35 36  1  0
 35 37  2  0
 37 38  1  0
 38 39  1  0
 38 40  2  0
 40 41  1  0
 41 42  1  0
 42 43  2  0
 43 44  1  0
 44 45  2  0
 45 46  1  0
 45 47  1  0
 47 48  2  0
 32 49  1  0
 49 50  1  0
 50 51  2  0
 51 52  1  0
 52 53  2  0
 53 54  1  0
 53 55  1  0
 55 56  2  0
 49 57  1  0
 17 58  1  0
 58 59  1  0
 59 60  1  0
 60 61  2  0
 61 62  1  0
 62 63  2  0
 63 64  1  0
 63 65  1  0
 65 66  2  0
  5 67  1  0
 67 68  2  0
 68  2  1  0
 23  6  1  0
 41 24  1  0
 48 42  1  0
 56 50  1  0
 66 60  1  0
 14  7  1  0
 59 15  1  0
 22 16  1  0
 31 25  1  0
 40 33  1  0
 26 21  1  0
 57 30  1  0
  3 69  1  0
  4 70  1  0
  9 71  1  0
 10 72  1  0
 12 73  1  0
 13 74  1  0
 15 75  1  6
 18 76  1  0
 20 77  1  0
 23 78  1  1
 24 79  1  1
 29 80  1  0
 32 81  1  6
 34 82  1  0
 37 83  1  0
 39 84  1  0
 41 85  1  6
 43 86  1  0
 44 87  1  0
 46 88  1  0
 47 89  1  0
 48 90  1  0
 49 91  1  6
 51 92  1  0
 52 93  1  0
 54 94  1  0
 55 95  1  0
 56 96  1  0
 59 97  1  1
 61 98  1  0
 62 99  1  0
 64100  1  0
 65101  1  0
 66102  1  0
 67103  1  0
 68104  1  0
M  CHG  2  28  -1  36  -1
M  END
>  <Binding energies>  (1) 
[158.42]

>  <Ligand effiencies>  (1) 
[2.005316455696202]

>  <Interactions>  (1) 
["V-A:ILE:369:CG2:3237, V-A:GLY:454:CA:4049, V-B:GLU:543:C:9874, V-B:GLU:543:CB:9878, V-B:ALA:541:CB:9864, H-A:TYR:531:OH:4795, H-A:ARG:545:NH1:4927, V-A:TYR:484:CE2:4346, V-B:TYR:539:CE2:9848, V-B:GLU:543:CG:9879, V-A:ASP:366:CG:3213, V-A:LEU:363:CD1:3189, V-B:TYR:539:CZ:9849, H-B:GLU:543:OE1:9881, V-A:TYR:531:CE2:4793, H-A:ILE:455:O:4053, V-A:TYR:484:CZ:4347, V-A:GLU:543:CD:4908, H-B:TYR:484:OH:9319, V-A:ARG:545:CG:4922, H-A:GLY:454:N:4050, V-A:SER:385:C:3405, V-A:GLY:453:C:4042, V-B:GLU:543:CA:9876, V-A:TYR:484:CD2:4344, V-A:ILE:369:CD1:3239, V-A:HIS:456:CE1:4070, V-B:TYR:539:CD2:9846, V-A:TYR:531:CZ:4794, V-A:SER:385:CB:3409, H-A:SER:385:OG:3410, V-B:GLU:543:CD:9880, V-A:MET:535:CE:4835, V-A:GLU:543:CG:4907, V-A:ASP:366:CB:3212, V-A:ARG:545:CD:4923, V-A:LEU:475:CD2:4259, H-A:ILE:455:N:4055, H-A:ARG:545:NH2:4928, H-A:GLU:543:OE1:4909, V-A:ARG:545:CZ:4926, V-A:GLU:543:CB:4906, H-A:ASP:366:OD1:3214, H-B:GLU:543:OE2:9882, V-A:PRO:540:CB:4885, V-A:GLY:453:CA:4044, H-A:ARG:545:NE:4924, V-A:SER:385:CA:3407, H-A:TYR:539:OH:4878, H-A:ASP:366:OD2:3215, H-A:HIS:456:NE2:4071, H-A:HIS:456:ND1:4067, H-A:TYR:484:OH:4348"]

$$$$
ZINC257440073-again6
     RDKit          3D

103115  0  0  0  0  0  0  0  0999 V2000
  133.6610  120.1960   59.0840 O   0  0  0  0  0  0  0  0  0  0  0  0
  133.3410  121.1610   59.7760 C   0  0  0  0  0  0  0  0  0  0  0  0
  132.1710  122.0130   59.4900 C   0  0  0  0  0  0  0  0  0  0  0  0
  131.8390  123.0870   60.2420 C   0  0  0  0  0  0  0  0  0  0  0  0
  132.5980  123.5240   61.4130 C   0  0  0  0  0  0  0  0  0  0  0  0
  132.2580  124.6000   62.1830 C   0  0  0  0  0  0  0  0  0  0  0  0
  132.8660  124.7840   63.5390 C   0  0  0  0  0  0  0  0  0  0  0  0
  134.0880  125.4790   63.7370 C   0  0  0  0  0  0  0  0  0  0  0  0
  134.7670  125.9750   62.7790 O   0  0  0  0  0  0  0  0  0  0  0  0
  134.6070  125.6350   65.0240 C   0  0  0  0  0  0  0  0  0  0  0  0
  133.9360  125.1090   66.1160 C   0  0  0  0  0  0  0  0  0  0  0  0
  134.4590  125.2430   67.3750 O   0  0  0  0  0  0  0  0  0  0  0  0
  132.7320  124.4430   65.9340 C   0  0  0  0  0  0  0  0  0  0  0  0
  132.1460  124.2920   64.6690 C   0  0  0  0  0  0  0  0  0  0  0  0
  130.7930  123.5230   64.5350 C   0  0  2  0  0  0  0  0  0  0  0  0
  129.7160  123.9180   63.5440 C   0  0  0  0  0  0  0  0  0  0  0  0
  128.5310  123.3970   64.0100 C   0  0  0  0  0  0  0  0  0  0  0  0
  127.3550  123.4850   63.2820 C   0  0  0  0  0  0  0  0  0  0  0  0
  127.3910  124.0980   62.0260 C   0  0  0  0  0  0  0  0  0  0  0  0
  126.1850  124.2630   61.3930 O   0  0  0  0  0  0  0  0  0  0  0  0
  128.6090  124.5860   61.4810 C   0  0  0  0  0  0  0  0  0  0  0  0
  129.7290  124.6250   62.3390 C   0  0  0  0  0  0  0  0  0  0  0  0
  130.9420  125.4490   62.0030 C   0  0  2  0  0  0  0  0  0  0  0  0
  130.7010  126.5440   60.9000 C   0  0  2  0  0  0  0  0  0  0  0  0
  129.7080  126.1400   59.8090 C   0  0  0  0  0  0  0  0  0  0  0  0
  128.7740  125.0910   60.0510 C   0  0  0  0  0  0  0  0  0  0  0  0
  128.1150  124.5160   58.9220 C   0  0  0  0  0  0  0  0  0  0  0  0
  127.5200  123.3870   58.9500 O   0  0  0  0  0  0  0  0  0  0  0  0
  128.1570  125.1470   57.6770 C   0  0  0  0  0  0  0  0  0  0  0  0
  128.8840  126.3140   57.5530 C   0  0  0  0  0  0  0  0  0  0  0  0
  129.6870  126.7950   58.5660 C   0  0  0  0  0  0  0  0  0  0  0  0
  130.4320  127.9740   57.9700 C   0  0  2  0  0  0  0  0  0  0  0  0
  130.9810  129.1000   58.8820 C   0  0  0  0  0  0  0  0  0  0  0  0
  131.1580  130.4010   58.3790 C   0  0  0  0  0  0  0  0  0  0  0  0
  131.6150  131.4490   59.1730 C   0  0  0  0  0  0  0  0  0  0  0  0
  131.7400  132.6190   58.6890 O   0  0  0  0  0  0  0  0  0  0  0  0
  131.9370  131.2040   60.5020 C   0  0  0  0  0  0  0  0  0  0  0  0
  131.8370  129.9160   61.0140 C   0  0  0  0  0  0  0  0  0  0  0  0
  132.2090  129.7420   62.3240 O   0  0  0  0  0  0  0  0  0  0  0  0
  131.3900  128.8400   60.2160 C   0  0  0  0  0  0  0  0  0  0  0  0
  131.3590  127.4020   60.7740 C   0  0  2  0  0  0  0  0  0  0  0  0
  132.2350  126.4330   59.9470 C   0  0  0  0  0  0  0  0  0  0  0  0
  131.7500  126.0140   58.7000 C   0  0  0  0  0  0  0  0  0  0  0  0
  132.4910  125.1500   57.8980 C   0  0  0  0  0  0  0  0  0  0  0  0
  133.7280  124.6900   58.3410 C   0  0  0  0  0  0  0  0  0  0  0  0
  134.4640  123.8460   57.5540 O   0  0  0  0  0  0  0  0  0  0  0  0
  134.2200  125.0840   59.5820 C   0  0  0  0  0  0  0  0  0  0  0  0
  133.4760  125.9480   60.3790 C   0  0  0  0  0  0  0  0  0  0  0  0
  129.4850  128.3300   56.7820 C   0  0  2  0  0  0  0  0  0  0  0  0
  128.3550  129.3510   57.0030 C   0  0  0  0  0  0  0  0  0  0  0  0
  127.0600  128.9470   57.3520 C   0  0  0  0  0  0  0  0  0  0  0  0
  126.0590  129.8920   57.5490 C   0  0  0  0  0  0  0  0  0  0  0  0
  126.3460  131.2470   57.3930 C   0  0  0  0  0  0  0  0  0  0  0  0
  125.3620  132.1780   57.5890 O   0  0  0  0  0  0  0  0  0  0  0  0
  127.6280  131.6600   57.0380 C   0  0  0  0  0  0  0  0  0  0  0  0
  128.6290  130.7130   56.8400 C   0  0  0  0  0  0  0  0  0  0  0  0
  128.9100  127.0780   56.4160 O   0  0  0  0  0  0  0  0  0  0  0  0
  128.6380  122.8530   65.2640 O   0  0  0  0  0  0  0  0  0  0  0  0
  129.9120  123.2440   65.7900 C   0  0  2  0  0  0  0  0  0  0  0  0
  129.7170  124.3770   66.8090 C   0  0  0  0  0  0  0  0  0  0  0  0
  129.6890  124.0680   68.1720 C   0  0  0  0  0  0  0  0  0  0  0  0
  129.5170  125.0760   69.1180 C   0  0  0  0  0  0  0  0  0  0  0  0
  129.3680  126.3960   68.7000 C   0  0  0  0  0  0  0  0  0  0  0  0
  129.2050  127.3870   69.6310 O   0  0  0  0  0  0  0  0  0  0  0  0
  129.3860  126.7150   67.3440 C   0  0  0  0  0  0  0  0  0  0  0  0
  129.5550  125.7080   66.3990 C   0  0  0  0  0  0  0  0  0  0  0  0
  133.7400  122.6550   61.7230 C   0  0  0  0  0  0  0  0  0  0  0  0
  134.0840  121.5800   60.9780 C   0  0  0  0  0  0  0  0  0  0  0  0
  131.5393  121.7631   58.6249 H   0  0  0  0  0  0  0  0  0  0  0  0
  130.9474  123.6646   59.9565 H   0  0  0  0  0  0  0  0  0  0  0  0
  135.5524  126.1777   65.1713 H   0  0  0  0  0  0  0  0  0  0  0  0
  134.0440  124.6580   68.0110 H   0  0  0  0  0  0  0  0  0  0  0  0
  132.2205  124.0196   66.8110 H   0  0  0  0  0  0  0  0  0  0  0  0
  131.3986  122.6744   64.1841 H   0  0  0  0  0  0  0  0  0  0  0  0
  126.4138  123.0814   63.6836 H   0  0  0  0  0  0  0  0  0  0  0  0
  126.0770  123.6810   60.6390 H   0  0  0  0  0  0  0  0  0  0  0  0
  131.1925  126.2323   62.7335 H   0  0  0  0  0  0  0  0  0  0  0  0
  130.2043  127.3322   61.4848 H   0  0  0  0  0  0  0  0  0  0  0  0
  127.6225  124.7234   56.8139 H   0  0  0  0  0  0  0  0  0  0  0  0
  131.4602  127.7287   57.6656 H   0  0  0  0  0  0  0  0  0  0  0  0
  130.9274  130.5974   57.3215 H   0  0  0  0  0  0  0  0  0  0  0  0
  132.2709  132.0289   61.1485 H   0  0  0  0  0  0  0  0  0  0  0  0
  132.1470  130.5530   62.8340 H   0  0  0  0  0  0  0  0  0  0  0  0
  131.3803  127.9804   61.7094 H   0  0  0  0  0  0  0  0  0  0  0  0
  130.7707  126.3728   58.3504 H   0  0  0  0  0  0  0  0  0  0  0  0
  132.1011  124.8326   56.9196 H   0  0  0  0  0  0  0  0  0  0  0  0
  134.5530  124.1640   56.6520 H   0  0  0  0  0  0  0  0  0  0  0  0
  135.1948  124.7131   59.9317 H   0  0  0  0  0  0  0  0  0  0  0  0
  133.8671  126.2541   61.3605 H   0  0  0  0  0  0  0  0  0  0  0  0
  130.1011  128.8442   56.0296 H   0  0  0  0  0  0  0  0  0  0  0  0
  126.8337  127.8771   57.4708 H   0  0  0  0  0  0  0  0  0  0  0  0
  125.0442  129.5712   57.8270 H   0  0  0  0  0  0  0  0  0  0  0  0
  125.4140  132.5990   58.4500 H   0  0  0  0  0  0  0  0  0  0  0  0
  127.8487  132.7305   56.9145 H   0  0  0  0  0  0  0  0  0  0  0  0
  129.6404  131.0374   56.5540 H   0  0  0  0  0  0  0  0  0  0  0  0
  130.4417  122.4879   66.3881 H   0  0  0  0  0  0  0  0  0  0  0  0
  129.8033  123.0240   68.4991 H   0  0  0  0  0  0  0  0  0  0  0  0
  129.4990  124.8305   70.1901 H   0  0  0  0  0  0  0  0  0  0  0  0
  129.2730  128.2670   69.2540 H   0  0  0  0  0  0  0  0  0  0  0  0
  129.2670  127.7599   67.0215 H   0  0  0  0  0  0  0  0  0  0  0  0
  129.5615  125.9567   65.3275 H   0  0  0  0  0  0  0  0  0  0  0  0
  134.3484  122.8909   62.6086 H   0  0  0  0  0  0  0  0  0  0  0  0
  134.9605  120.9899   61.2838 H   0  0  0  0  0  0  0  0  0  0  0  0
  1  2  2  0
  2  3  1  0
  3  4  2  0
  4  5  1  0
  5  6  2  3
  6  7  1  0
  7  8  2  0
  8  9  1  0
  8 10  1  0
 10 11  2  0
 11 12  1  0
 11 13  1  0
 13 14  2  0
 14 15  1  0
 15 16  1  0
 16 17  2  0
 17 18  1  0
 18 19  2  0
 19 20  1  0
 19 21  1  0
 21 22  2  0
 22 23  1  0
 23 24  1  0
 24 25  1  0
 25 26  2  0
 26 27  1  0
 27 28  1  0
 27 29  2  0
 29 30  1  0
 30 31  2  0
 31 32  1  0
 32 33  1  0
 33 34  2  0
 34 35  1  0
 35 36  1  0
 35 37  2  0
 37 38  1  0
 38 39  1  0
 38 40  2  0
 40 41  1  0
 41 42  1  0
 42 43  2  0
 43 44  1  0
 44 45  2  0
 45 46  1  0
 45 47  1  0
 47 48  2  0
 32 49  1  0
 49 50  1  0
 50 51  2  0
 51 52  1  0
 52 53  2  0
 53 54  1  0
 53 55  1  0
 55 56  2  0
 49 57  1  0
 17 58  1  0
 58 59  1  0
 59 60  1  0
 60 61  2  0
 61 62  1  0
 62 63  2  0
 63 64  1  0
 63 65  1  0
 65 66  2  0
  5 67  1  0
 67 68  2  0
 68  2  1  0
 23  6  1  0
 41 24  1  0
 48 42  1  0
 56 50  1  0
 66 60  1  0
 14  7  1  0
 59 15  1  0
 22 16  1  0
 31 25  1  0
 40 33  1  0
 26 21  1  0
 57 30  1  0
  3 69  1  0
  4 70  1  0
 10 71  1  0
 12 72  1  0
 13 73  1  0
 15 74  1  6
 18 75  1  0
 20 76  1  0
 23 77  1  1
 24 78  1  1
 29 79  1  0
 32 80  1  6
 34 81  1  0
 37 82  1  0
 39 83  1  0
 41 84  1  1
 43 85  1  0
 44 86  1  0
 46 87  1  0
 47 88  1  0
 48 89  1  0
 49 90  1  6
 51 91  1  0
 52 92  1  0
 54 93  1  0
 55 94  1  0
 56 95  1  0
 59 96  1  1
 61 97  1  0
 62 98  1  0
 64 99  1  0
 65100  1  0
 66101  1  0
 67102  1  0
 68103  1  0
M  CHG  3   9  -1  28  -1  36  -1
M  END
>  <Binding energies>  (1) 
[140.42]

>  <Ligand effiencies>  (1) 
[1.80025641025641]

>  <Interactions>  (1) 
["V-A:ILE:369:CG2:3237, V-A:ASP:366:CA:3210, V-A:GLY:454:CA:4049, V-B:GLU:543:C:9874, V-A:ILE:369:CB:3236, V-B:GLU:543:CB:9878, V-B:ALA:541:CB:9864, H-A:TYR:531:OH:4795, H-A:ARG:545:NH1:4927, V-A:TYR:484:CE2:4346, V-B:TYR:539:CE2:9848, V-B:GLU:543:CG:9879, V-A:ASP:366:CG:3213, V-A:HIS:456:CD2:4068, V-B:TYR:539:CZ:9849, H-B:GLU:543:OE1:9881, H-A:ASN:370:N:3244, V-A:TYR:539:CZ:4877, V-B:TYR:531:CZ:9766, H-B:TYR:539:OH:9850, H-A:ILE:455:O:4053, V-A:TYR:484:CZ:4347, V-A:GLU:543:CD:4908, V-B:GLU:543:CA:9876, V-A:ARG:545:CG:4922, V-A:SER:385:C:3405, V-A:GLY:453:C:4042, V-A:TYR:484:CD2:4344, V-A:ILE:369:CD1:3239, V-A:HIS:456:CE1:4070, V-A:ASP:366:C:3208, H-B:HIS:456:NE2:9042, V-B:TYR:539:CD2:9846, H-A:SER:385:OG:3410, V-B:GLU:543:CD:9880, V-A:MET:535:CE:4835, V-A:ASP:366:CB:3212, V-A:ARG:545:CD:4923, H-A:ARG:545:NH2:4928, H-A:ILE:455:N:4055, H-A:GLU:543:OE1:4909, V-A:ARG:545:CZ:4926, H-A:ASP:366:O:3209, V-A:PRO:540:CB:4885, V-A:PRO:540:CA:4883, V-A:GLY:453:CA:4044, H-A:ARG:545:NE:4924, V-A:SER:385:CA:3407, H-A:TYR:539:OH:4878, H-A:ASP:366:OD2:3215, V-A:TYR:539:CE1:4875, H-A:HIS:456:ND1:4067, H-A:TYR:484:OH:4348, H-A:GLU:543:O:4903"]

$$$$
ZINC257456014
     RDKit          3D

102107  0  0  0  0  0  0  0  0999 V2000
  130.6820  123.8270   63.6550 C   0  0  0  0  0  0  0  0  0  0  0  0
  129.4650  124.3730   63.4740 C   0  0  0  0  0  0  0  0  0  0  0  0
  128.2330  123.5030   63.2660 C   0  0  0  0  0  0  0  0  0  0  0  0
  129.2440  125.8910   63.4750 C   0  0  1  0  0  0  0  0  0  0  0  0
  129.6360  126.5480   64.8390 C   0  0  0  0  0  0  0  0  0  0  0  0
  128.8080  127.7610   65.2530 C   0  0  0  0  0  0  0  0  0  0  0  0
  128.3460  128.5430   64.2410 O   0  0  0  0  0  0  0  0  0  0  0  0
  127.8160  129.6730   64.7710 C   0  0  0  0  0  0  0  0  0  0  0  0
  127.8220  129.5420   66.1520 C   0  0  0  0  0  0  0  0  0  0  0  0
  128.4480  128.3270   66.4780 C   0  0  0  0  0  0  0  0  0  0  0  0
  128.7150  127.7910   67.8140 C   0  0  0  0  0  0  0  0  0  0  0  0
  129.8440  127.6860   68.2950 O   0  0  0  0  0  0  0  0  0  0  0  0
  127.5670  127.4300   68.4380 O   0  0  0  0  0  0  0  0  0  0  0  0
  127.6000  126.8300   69.7250 C   0  0  0  0  0  0  0  0  0  0  0  0
  127.4400  130.8010   63.8030 C   0  0  1  0  0  0  0  0  0  0  0  0
  128.3190  132.0540   63.9190 C   0  0  0  0  0  0  0  0  0  0  0  0
  129.0190  132.3770   65.0240 C   0  0  0  0  0  0  0  0  0  0  0  0
  128.3530  132.9480   62.6860 C   0  0  0  0  0  0  0  0  0  0  0  0
  127.2200  130.3150   62.3210 C   0  0  1  0  0  0  0  0  0  0  0  0
  128.3520  129.5030   61.7420 C   0  0  0  0  0  0  0  0  0  0  0  0
  127.9280  128.2480   61.5380 C   0  0  0  0  0  0  0  0  0  0  0  0
  126.4910  128.2220   61.7970 C   0  0  0  0  0  0  0  0  0  0  0  0
  125.7190  127.2760   61.6540 O   0  0  0  0  0  0  0  0  0  0  0  0
  126.1230  129.4240   62.2590 O   0  0  0  0  0  0  0  0  0  0  0  0
  128.6640  126.9610   61.1440 C   0  0  1  0  0  0  0  0  0  0  0  0
  129.2130  126.9710   59.7840 N   0  0  0  0  0  0  0  0  0  0  0  0
  129.4670  125.6520   59.1920 C   0  0  1  0  0  0  0  0  0  0  0  0
  130.9300  125.2340   59.3600 C   0  0  0  0  0  0  0  0  0  0  0  0
  131.5520  124.0870   59.0460 C   0  0  0  0  0  0  0  0  0  0  0  0
  132.9760  124.1270   59.5530 C   0  0  1  0  0  0  0  0  0  0  0  0
  133.1040  125.4600   60.0060 O   0  0  0  0  0  0  0  0  0  0  0  0
  131.9480  126.1340   59.9090 C   0  0  0  0  0  0  0  0  0  0  0  0
  131.8220  127.3130   60.2310 O   0  0  0  0  0  0  0  0  0  0  0  0
  133.2860  123.0890   60.6920 C   0  0  1  0  0  0  0  0  0  0  0  0
  133.9580  123.7160   61.9180 C   0  0  0  0  0  0  0  0  0  0  0  0
  133.5630  123.4180   63.1700 C   0  0  0  0  0  0  0  0  0  0  0  0
  135.0880  124.7050   61.6620 C   0  0  0  0  0  0  0  0  0  0  0  0
  132.1060  122.1660   60.9780 C   0  0  0  0  0  0  0  0  0  0  0  0
  131.9780  120.8170   61.2540 C   0  0  0  0  0  0  0  0  0  0  0  0
  130.6190  120.4800   61.1240 C   0  0  0  0  0  0  0  0  0  0  0  0
  130.0100  119.1540   61.2440 C   0  0  0  0  0  0  0  0  0  0  0  0
  128.9200  118.9500   61.7840 O   0  0  0  0  0  0  0  0  0  0  0  0
  130.7920  118.2010   60.6850 O   0  0  0  0  0  0  0  0  0  0  0  0
  130.2260  116.9900   60.2030 C   0  0  0  0  0  0  0  0  0  0  0  0
  129.9800  121.6760   60.7860 C   0  0  0  0  0  0  0  0  0  0  0  0
  130.8720  122.6920   60.7960 O   0  0  0  0  0  0  0  0  0  0  0  0
  128.5780  122.0580   60.3580 C   0  0  0  0  0  0  0  0  0  0  0  0
  128.5370  123.1190   59.1980 C   0  0  1  0  0  0  0  0  0  0  0  0
  127.5450  122.7380   58.0860 C   0  0  0  0  0  0  0  0  0  0  0  0
  127.9000  122.0630   56.9770 C   0  0  0  0  0  0  0  0  0  0  0  0
  126.1030  123.1640   58.3190 C   0  0  0  0  0  0  0  0  0  0  0  0
  128.3490  124.6260   59.6200 C   0  0  1  0  0  0  0  0  0  0  0  0
  127.9510  124.7450   60.9740 O   0  0  0  0  0  0  0  0  0  0  0  0
  129.7910  126.5610   62.1550 C   0  0  1  0  0  0  0  0  0  0  0  0
  130.6380  127.6740   62.4060 O   0  0  0  0  0  0  0  0  0  0  0  0
  131.5587  124.4745   63.8035 H   0  0  0  0  0  0  0  0  0  0  0  0
  130.7998  122.7333   63.6544 H   0  0  0  0  0  0  0  0  0  0  0  0
  127.8206  123.2117   64.2433 H   0  0  0  0  0  0  0  0  0  0  0  0
  127.4761  124.0680   62.7022 H   0  0  0  0  0  0  0  0  0  0  0  0
  128.5122  122.6007   62.7022 H   0  0  0  0  0  0  0  0  0  0  0  0
  128.1656  126.1018   63.4240 H   0  0  0  0  0  0  0  0  0  0  0  0
  129.5320  125.7844   65.6239 H   0  0  0  0  0  0  0  0  0  0  0  0
  130.6638  126.9177   64.7086 H   0  0  0  0  0  0  0  0  0  0  0  0
  127.4075  130.2656   66.8693 H   0  0  0  0  0  0  0  0  0  0  0  0
  127.5569  127.6134   70.4960 H   0  0  0  0  0  0  0  0  0  0  0  0
  126.7375  126.1566   69.8379 H   0  0  0  0  0  0  0  0  0  0  0  0
  128.5311  126.2553   69.8379 H   0  0  0  0  0  0  0  0  0  0  0  0
  126.4490  131.1341   64.1449 H   0  0  0  0  0  0  0  0  0  0  0  0
  129.6303  133.2914   65.0401 H   0  0  0  0  0  0  0  0  0  0  0  0
  128.9792  131.7263   65.9100 H   0  0  0  0  0  0  0  0  0  0  0  0
  128.3931  134.0020   62.9983 H   0  0  0  0  0  0  0  0  0  0  0  0
  129.2427  132.7096   62.0847 H   0  0  0  0  0  0  0  0  0  0  0  0
  127.4477  132.7779   62.0847 H   0  0  0  0  0  0  0  0  0  0  0  0
  127.0950  131.2533   61.7607 H   0  0  0  0  0  0  0  0  0  0  0  0
  129.3619  129.8799   61.5227 H   0  0  0  0  0  0  0  0  0  0  0  0
  127.8713  126.1991   61.1760 H   0  0  0  0  0  0  0  0  0  0  0  0
  128.5770  127.4940   59.1980 H   0  0  0  0  0  0  0  0  0  0  0  0
  129.3643  125.6872   58.0974 H   0  0  0  0  0  0  0  0  0  0  0  0
  131.0957  123.2463   58.5029 H   0  0  0  0  0  0  0  0  0  0  0  0
  133.6965  123.8448   58.7711 H   0  0  0  0  0  0  0  0  0  0  0  0
  134.0628  122.4114   60.3081 H   0  0  0  0  0  0  0  0  0  0  0  0
  134.0648  123.8843   64.0307 H   0  0  0  0  0  0  0  0  0  0  0  0
  132.7384  122.7083   63.3323 H   0  0  0  0  0  0  0  0  0  0  0  0
  135.4911  125.0578   62.6227 H   0  0  0  0  0  0  0  0  0  0  0  0
  135.8859  124.2098   61.0892 H   0  0  0  0  0  0  0  0  0  0  0  0
  134.7029  125.5615   61.0892 H   0  0  0  0  0  0  0  0  0  0  0  0
  132.7932  120.1306   61.5264 H   0  0  0  0  0  0  0  0  0  0  0  0
  129.9310  116.3588   61.0542 H   0  0  0  0  0  0  0  0  0  0  0  0
  129.3408  117.2172   59.5908 H   0  0  0  0  0  0  0  0  0  0  0  0
  130.9681  116.4566   59.5908 H   0  0  0  0  0  0  0  0  0  0  0  0
  128.0599  121.1498   60.0162 H   0  0  0  0  0  0  0  0  0  0  0  0
  128.0900  122.5171   61.2304 H   0  0  0  0  0  0  0  0  0  0  0  0
  129.5634  123.0722   58.8053 H   0  0  0  0  0  0  0  0  0  0  0  0
  127.1441  121.8191   56.2160 H   0  0  0  0  0  0  0  0  0  0  0  0
  128.9460  121.7552   56.8317 H   0  0  0  0  0  0  0  0  0  0  0  0
  125.9078  123.2217   59.4000 H   0  0  0  0  0  0  0  0  0  0  0  0
  125.9338  124.1505   57.8627 H   0  0  0  0  0  0  0  0  0  0  0  0
  125.4249  122.4278   57.8627 H   0  0  0  0  0  0  0  0  0  0  0  0
  127.5159  124.9628   58.9856 H   0  0  0  0  0  0  0  0  0  0  0  0
  128.7310  124.6810   61.5290 H   0  0  0  0  0  0  0  0  0  0  0  0
  130.3950  125.7721   61.6830 H   0  0  0  0  0  0  0  0  0  0  0  0
  130.5580  128.2880   61.6720 H   0  0  0  0  0  0  0  0  0  0  0  0
  1  2  2  0
  2  3  1  0
  2  4  1  0
  4  5  1  0
  5  6  1  0
  6  7  1  0
  7  8  1  0
  8  9  2  0
  9 10  1  0
 10 11  1  0
 11 12  2  0
 11 13  1  0
 13 14  1  0
  8 15  1  0
 15 16  1  0
 16 17  2  0
 16 18  1  0
 15 19  1  0
 19 20  1  0
 20 21  2  0
 21 22  1  0
 22 23  2  0
 22 24  1  0
 21 25  1  0
 25 26  1  0
 26 27  1  0
 27 28  1  0
 28 29  2  0
 29 30  1  0
 30 31  1  0
 31 32  1  0
 32 33  2  0
 30 34  1  0
 34 35  1  0
 35 36  2  0
 35 37  1  0
 34 38  1  0
 38 39  2  0
 39 40  1  0
 40 41  1  0
 41 42  2  0
 41 43  1  0
 43 44  1  0
 40 45  2  0
 45 46  1  0
 45 47  1  0
 47 48  1  0
 48 49  1  0
 49 50  2  0
 49 51  1  0
 48 52  1  0
 52 53  1  0
 25 54  1  0
 54 55  1  0
 54  4  1  0
 10  6  2  0
 24 19  1  0
 52 27  1  0
 32 28  1  0
 46 38  1  0
  1 56  1  0
  1 57  1  0
  3 58  1  0
  3 59  1  0
  3 60  1  0
  4 61  1  6
  5 62  1  0
  5 63  1  0
  9 64  1  0
 14 65  1  0
 14 66  1  0
 14 67  1  0
 15 68  1  1
 17 69  1  0
 17 70  1  0
 18 71  1  0
 18 72  1  0
 18 73  1  0
 19 74  1  6
 20 75  1  0
 25 76  1  6
 26 77  1  0
 27 78  1  6
 29 79  1  0
 30 80  1  6
 34 81  1  6
 36 82  1  0
 36 83  1  0
 37 84  1  0
 37 85  1  0
 37 86  1  0
 39 87  1  0
 44 88  1  0
 44 89  1  0
 44 90  1  0
 47 91  1  0
 47 92  1  0
 48 93  1  6
 50 94  1  0
 50 95  1  0
 51 96  1  0
 51 97  1  0
 51 98  1  0
 52 99  1  6
 53100  1  0
 54101  1  6
 55102  1  0
M  END
>  <Binding energies>  (1) 
[-0.99]

>  <Ligand effiencies>  (1) 
[-0.01596774193548387]

>  <Interactions>  (1) 
["V-A:ILE:369:CG2:3237, V-A:ASP:366:CA:3210, V-B:PRO:540:CA:9855, V-B:TYR:539:CA:9841, V-A:GLY:454:CA:4049, V-B:GLU:543:C:9874, V-B:TYR:539:CE1:9847, V-B:GLU:543:CB:9878, V-B:ALA:541:CB:9864, V-B:TYR:539:CE2:9848, V-B:GLU:543:CG:9879, V-B:TYR:539:C:9839, V-A:ASP:366:CG:3213, V-B:TYR:484:CE2:9317, V-B:TYR:539:CZ:9849, H-B:GLU:543:OE1:9881, V-A:ALA:541:CB:4892, V-B:VAL:344:CG1:7972, H-B:ALA:541:N:9863, V-B:TYR:539:CB:9843, V-A:HIS:383:CE1:3393, V-A:GLU:543:CD:4908, V-B:PRO:540:CB:9857, V-B:HIS:456:CE1:9041, V-B:PRO:540:N:9856, V-B:TYR:484:CZ:9318, V-A:ILE:369:CD1:3239, V-B:GLY:544:C:9884, V-B:TYR:539:CD2:9846, V-A:GLU:543:CG:4907, V-B:PRO:540:CD:9859, H-A:SER:385:OG:3410, V-B:GLU:543:CD:9880, V-A:ASP:366:CB:3212, V-A:LEU:475:CD2:4259, H-A:ARG:545:NH2:4928, H-A:GLU:543:OE1:4909, V-B:TYR:539:CG:9844, H-B:ARG:545:NH2:9900, V-A:GLU:543:CB:4906, H-A:HIS:383:HE2:3395, V-B:TYR:539:CD1:9845, V-A:GLY:453:CA:4044, V-B:PRO:540:C:9853, H-A:ASP:366:OD2:3215, V-A:HIS:383:NE2:3394"]

$$$$
ZINC257463563
     RDKit          3D

 60 62  0  0  0  0  0  0  0  0999 V2000
  130.7690  123.1100   63.2350 C   0  0  0  0  0  0  0  0  0  0  0  0
  131.8140  123.3790   62.4220 C   0  0  0  0  0  0  0  0  0  0  0  0
  131.7050  123.5010   60.8740 C   0  0  1  0  0  0  0  0  0  0  0  0
  130.3260  123.0700   60.2370 C   0  0  0  0  0  0  0  0  0  0  0  0
  128.9230  123.8080   60.3600 C   0  0  2  0  0  0  0  0  0  0  0  0
  128.0750  123.3770   59.1150 C   0  0  1  0  0  0  0  0  0  0  0  0
  126.6980  123.2260   59.4110 O   0  0  0  0  0  0  0  0  0  0  0  0
  128.3070  124.2700   57.8520 C   0  0  0  0  0  0  0  0  0  0  0  0
  129.4010  125.3410   58.0330 C   0  0  0  0  0  0  0  0  0  0  0  0
  129.9720  125.8570   56.7140 C   0  0  0  0  0  0  0  0  0  0  0  0
  129.7310  125.8360   59.2690 C   0  0  0  0  0  0  0  0  0  0  0  0
  130.9690  126.7200   59.4840 C   0  0  1  0  0  0  0  0  0  0  0  0
  130.5520  127.9910   59.9440 O   0  0  0  0  0  0  0  0  0  0  0  0
  132.0890  126.1510   60.4060 C   0  0  0  0  0  0  0  0  0  0  0  0
  132.5810  124.6680   60.2060 C   0  0  2  0  0  0  0  0  0  0  0  0
  132.8110  124.3240   58.7070 C   0  0  0  0  0  0  0  0  0  0  0  0
  134.0090  124.5740   60.8280 C   0  0  0  0  0  0  0  0  0  0  0  0
  134.0130  124.6660   62.3580 C   0  0  0  0  0  0  0  0  0  0  0  0
  133.2570  123.4670   62.9590 C   0  0  1  0  0  0  0  0  0  0  0  0
  133.2990  123.5010   64.3900 O   0  0  0  0  0  0  0  0  0  0  0  0
  133.3990  124.6620   65.0760 C   0  0  0  0  0  0  0  0  0  0  0  0
  132.0660  125.3920   65.1710 C   0  0  0  0  0  0  0  0  0  0  0  0
  134.4210  125.1240   65.5850 O   0  0  0  0  0  0  0  0  0  0  0  0
  128.9000  125.3720   60.4920 C   0  0  0  0  0  0  0  0  0  0  0  0
  127.4740  125.9980   60.3640 C   0  0  0  0  0  0  0  0  0  0  0  0
  129.3800  125.8190   61.8980 C   0  0  0  0  0  0  0  0  0  0  0  0
  130.9220  123.0385   64.3220 H   0  0  0  0  0  0  0  0  0  0  0  0
  129.7652  122.9624   62.8100 H   0  0  0  0  0  0  0  0  0  0  0  0
  132.2854  122.6537   60.4800 H   0  0  0  0  0  0  0  0  0  0  0  0
  130.5213  123.0194   59.1557 H   0  0  0  0  0  0  0  0  0  0  0  0
  130.1131  122.1970   60.8714 H   0  0  0  0  0  0  0  0  0  0  0  0
  128.5198  123.4905   61.3329 H   0  0  0  0  0  0  0  0  0  0  0  0
  128.4561  122.3796   58.8505 H   0  0  0  0  0  0  0  0  0  0  0  0
  126.4540  123.8810   60.0700 H   0  0  0  0  0  0  0  0  0  0  0  0
  128.5972  123.6172   57.0155 H   0  0  0  0  0  0  0  0  0  0  0  0
  127.3650  124.8062   57.6642 H   0  0  0  0  0  0  0  0  0  0  0  0
  130.7737  126.5815   56.9200 H   0  0  0  0  0  0  0  0  0  0  0  0
  130.3790  125.0142   56.1360 H   0  0  0  0  0  0  0  0  0  0  0  0
  129.1746  126.3470   56.1360 H   0  0  0  0  0  0  0  0  0  0  0  0
  131.4536  126.7733   58.4980 H   0  0  0  0  0  0  0  0  0  0  0  0
  131.3250  128.4710   60.2500 H   0  0  0  0  0  0  0  0  0  0  0  0
  132.9683  126.7995   60.2785 H   0  0  0  0  0  0  0  0  0  0  0  0
  131.6205  126.1352   61.4011 H   0  0  0  0  0  0  0  0  0  0  0  0
  133.4209  123.4118   58.6295 H   0  0  0  0  0  0  0  0  0  0  0  0
  131.8408  124.1592   58.2156 H   0  0  0  0  0  0  0  0  0  0  0  0
  133.3340  125.1576   58.2156 H   0  0  0  0  0  0  0  0  0  0  0  0
  134.4543  123.6117   60.5352 H   0  0  0  0  0  0  0  0  0  0  0  0
  134.5855  125.4309   60.4493 H   0  0  0  0  0  0  0  0  0  0  0  0
  135.0515  124.6609   62.7206 H   0  0  0  0  0  0  0  0  0  0  0  0
  133.5155  125.5977   62.6653 H   0  0  0  0  0  0  0  0  0  0  0  0
  133.7690  122.5480   62.6376 H   0  0  0  0  0  0  0  0  0  0  0  0
  131.8018  125.5367   66.2289 H   0  0  0  0  0  0  0  0  0  0  0  0
  132.1481  126.3711   64.6763 H   0  0  0  0  0  0  0  0  0  0  0  0
  131.2852  124.7956   64.6763 H   0  0  0  0  0  0  0  0  0  0  0  0
  127.0616  126.1790   61.3676 H   0  0  0  0  0  0  0  0  0  0  0  0
  127.5393  126.9502   59.8172 H   0  0  0  0  0  0  0  0  0  0  0  0
  126.8173  125.3054   59.8172 H   0  0  0  0  0  0  0  0  0  0  0  0
  128.8056  125.2841   62.6687 H   0  0  0  0  0  0  0  0  0  0  0  0
  130.4494  125.5876   62.0111 H   0  0  0  0  0  0  0  0  0  0  0  0
  129.2253  126.9022   62.0111 H   0  0  0  0  0  0  0  0  0  0  0  0
  1  2  2  0
  2  3  1  0
  3  4  1  0
  4  5  1  0
  5  6  1  0
  6  7  1  0
  6  8  1  0
  8  9  1  0
  9 10  1  0
  9 11  2  0
 11 12  1  0
 12 13  1  0
 12 14  1  0
 14 15  1  0
 15 16  1  6
 15 17  1  0
 17 18  1  0
 18 19  1  0
 19 20  1  0
 20 21  1  0
 21 22  1  0
 21 23  2  0
 11 24  1  0
 24 25  1  0
 24 26  1  0
 19  2  1  0
 15  3  1  0
 24  5  1  0
  1 27  1  0
  1 28  1  0
  3 29  1  6
  4 30  1  0
  4 31  1  0
  5 32  1  1
  6 33  1  6
  7 34  1  0
  8 35  1  0
  8 36  1  0
 10 37  1  0
 10 38  1  0
 10 39  1  0
 12 40  1  6
 13 41  1  0
 14 42  1  0
 14 43  1  0
 16 44  1  0
 16 45  1  0
 16 46  1  0
 17 47  1  0
 17 48  1  0
 18 49  1  0
 18 50  1  0
 19 51  1  6
 22 52  1  0
 22 53  1  0
 22 54  1  0
 25 55  1  0
 25 56  1  0
 25 57  1  0
 26 58  1  0
 26 59  1  0
 26 60  1  0
M  END
>  <Binding energies>  (1) 
[-4.96]

>  <Ligand effiencies>  (1) 
[-0.16533333333333333]

>  <Interactions>  (1) 
["V-A:ASP:366:CA:3210, V-A:ILE:369:CD1:3239, V-B:PRO:540:CA:9855, V-A:GLY:454:CA:4049, V-B:TYR:539:CZ:9849, V-B:TYR:539:CD2:9846, H-A:ARG:545:NE:4924, H-A:ARG:545:NH1:4927, H-A:ASP:366:OD2:3215, V-B:TYR:539:CE2:9848, V-A:ASP:366:CB:3212, V-A:LEU:475:CD2:4259, H-A:ARG:545:NH2:4928, V-A:ARG:545:CZ:4926, V-A:GLU:543:CD:4908, H-A:GLY:454:N:4050, V-A:ASP:366:CG:3213, H-A:TYR:484:OH:4348"]

$$$$
ZINC257481309
     RDKit          3D

 90 90  0  0  0  0  0  0  0  0999 V2000
  128.0800  124.7550   56.7360 C   0  0  0  0  0  0  0  0  0  0  0  0
  128.6420  123.9470   57.9130 C   0  0  0  0  0  0  0  0  0  0  0  0
  127.5570  123.3170   58.8250 C   0  0  2  0  0  0  0  0  0  0  0  0
  126.1990  123.2530   58.0960 C   0  0  0  0  0  0  0  0  0  0  0  0
  127.4140  124.0030   60.2300 C   0  0  2  0  0  0  0  0  0  0  0  0
  128.1010  125.3040   60.2400 N   0  0  0  0  0  0  0  0  0  0  0  0
  127.5480  126.4780   60.5940 C   0  0  0  0  0  0  0  0  0  0  0  0
  126.3600  126.5910   60.9040 O   0  0  0  0  0  0  0  0  0  0  0  0
  128.4930  127.7050   60.5710 C   0  0  2  0  0  0  0  0  0  0  0  0
  129.5670  127.4500   59.6760 O   0  0  0  0  0  0  0  0  0  0  0  0
  129.0490  128.1560   61.9640 C   0  0  2  0  0  0  0  0  0  0  0  0
  130.5920  128.0910   62.0200 N   0  0  0  0  0  0  0  0  0  0  0  0
  128.4460  127.3750   63.1630 C   0  0  0  0  0  0  0  0  0  0  0  0
  128.6520  128.0280   64.5480 C   0  0  0  0  0  0  0  0  0  0  0  0
  127.6430  129.1560   64.8300 C   0  0  0  0  0  0  0  0  0  0  0  0
  127.1650  129.1820   66.2920 C   0  0  0  0  0  0  0  0  0  0  0  0
  128.3070  128.9640   67.3000 C   0  0  0  0  0  0  0  0  0  0  0  0
  128.2530  127.5800   67.9770 C   0  0  0  0  0  0  0  0  0  0  0  0
  129.6230  127.0520   68.4350 C   0  0  0  0  0  0  0  0  0  0  0  0
  130.1570  127.8340   69.9470 Cl  0  0  0  0  0  0  0  0  0  0  0  0
  127.9140  123.0420   61.3610 C   0  0  0  0  0  0  0  0  0  0  0  0
  127.1480  122.8200   62.3040 O   0  0  0  0  0  0  0  0  0  0  0  0
  129.1720  122.5070   61.3060 N   0  0  0  0  0  0  0  0  0  0  0  0
  129.4680  121.1050   61.6360 C   0  0  0  0  0  0  0  0  0  0  0  0
  130.4050  123.3030   61.0540 C   0  0  2  0  0  0  0  0  0  0  0  0
  131.6430  122.3600   61.0530 C   0  0  0  0  0  0  0  0  0  0  0  0
  133.0210  123.0650   61.0860 C   0  0  0  0  0  0  0  0  0  0  0  0
  133.3460  123.7780   59.7550 C   0  0  0  0  0  0  0  0  0  0  0  0
  134.1340  122.0810   61.5090 C   0  0  0  0  0  0  0  0  0  0  0  0
  130.5820  124.5790   61.9290 C   0  0  0  0  0  0  0  0  0  0  0  0
  130.7060  125.6720   61.3750 O   0  0  0  0  0  0  0  0  0  0  0  0
  130.6220  124.4270   63.2770 N   0  0  0  0  0  0  0  0  0  0  0  0
  129.5890  123.7940   64.1020 C   0  0  0  0  0  0  0  0  0  0  0  0
  130.0730  123.9260   65.5420 C   0  0  0  0  0  0  0  0  0  0  0  0
  130.9770  125.1450   65.4950 C   0  0  0  0  0  0  0  0  0  0  0  0
  131.6810  125.0320   64.1220 C   0  0  1  0  0  0  0  0  0  0  0  0
  133.0780  124.2980   64.1780 C   0  0  0  0  0  0  0  0  0  0  0  0
  134.0640  125.0710   64.1640 O   0  0  0  0  0  0  0  0  0  0  0  0
  133.0710  123.0450   64.2100 O   0  0  0  0  0  0  0  0  0  0  0  0
  127.4914  125.6012   57.1200 H   0  0  0  0  0  0  0  0  0  0  0  0
  128.9102  125.1344   56.1221 H   0  0  0  0  0  0  0  0  0  0  0  0
  127.4355  124.1087   56.1221 H   0  0  0  0  0  0  0  0  0  0  0  0
  129.2664  123.1366   57.5087 H   0  0  0  0  0  0  0  0  0  0  0  0
  129.2112  124.6511   58.5377 H   0  0  0  0  0  0  0  0  0  0  0  0
  127.9037  122.2947   59.0363 H   0  0  0  0  0  0  0  0  0  0  0  0
  125.3867  123.2147   58.8367 H   0  0  0  0  0  0  0  0  0  0  0  0
  126.0787  124.1465   57.4657 H   0  0  0  0  0  0  0  0  0  0  0  0
  126.1633  122.3522   57.4657 H   0  0  0  0  0  0  0  0  0  0  0  0
  126.3514  124.2044   60.4309 H   0  0  0  0  0  0  0  0  0  0  0  0
  129.0830  125.2740   60.0060 H   0  0  0  0  0  0  0  0  0  0  0  0
  127.8747  128.5493   60.2320 H   0  0  0  0  0  0  0  0  0  0  0  0
  129.9520  126.5960   59.8870 H   0  0  0  0  0  0  0  0  0  0  0  0
  128.7282  129.2033   62.0659 H   0  0  0  0  0  0  0  0  0  0  0  0
  130.9610  127.8230   61.1190 H   0  0  0  0  0  0  0  0  0  0  0  0
  130.8930  127.4160   62.7090 H   0  0  0  0  0  0  0  0  0  0  0  0
  130.9680  128.9970   62.2630 H   0  0  0  0  0  0  0  0  0  0  0  0
  127.3640  127.2737   62.9928 H   0  0  0  0  0  0  0  0  0  0  0  0
  128.9790  126.4134   63.1982 H   0  0  0  0  0  0  0  0  0  0  0  0
  128.5400  127.2543   65.3218 H   0  0  0  0  0  0  0  0  0  0  0  0
  129.6582  128.4724   64.5590 H   0  0  0  0  0  0  0  0  0  0  0  0
  128.1210  130.1197   64.6001 H   0  0  0  0  0  0  0  0  0  0  0  0
  126.7610  128.9746   64.1982 H   0  0  0  0  0  0  0  0  0  0  0  0
  126.7019  130.1594   66.4924 H   0  0  0  0  0  0  0  0  0  0  0  0
  126.4500  128.3560   66.4200 H   0  0  0  0  0  0  0  0  0  0  0  0
  129.2661  129.0582   66.7697 H   0  0  0  0  0  0  0  0  0  0  0  0
  128.1998  129.7223   68.0896 H   0  0  0  0  0  0  0  0  0  0  0  0
  127.5981  127.6515   68.8579 H   0  0  0  0  0  0  0  0  0  0  0  0
  127.8757  126.8726   67.2239 H   0  0  0  0  0  0  0  0  0  0  0  0
  129.5500  125.9670   68.6008 H   0  0  0  0  0  0  0  0  0  0  0  0
  130.3595  127.2812   67.6507 H   0  0  0  0  0  0  0  0  0  0  0  0
  129.4937  120.9831   62.7289 H   0  0  0  0  0  0  0  0  0  0  0  0
  128.6871  120.4560   61.2130 H   0  0  0  0  0  0  0  0  0  0  0  0
  130.4446  120.8271   61.2130 H   0  0  0  0  0  0  0  0  0  0  0  0
  130.2937  123.7434   60.0522 H   0  0  0  0  0  0  0  0  0  0  0  0
  131.5741  121.7101   61.9378 H   0  0  0  0  0  0  0  0  0  0  0  0
  131.6061  121.8160   60.0976 H   0  0  0  0  0  0  0  0  0  0  0  0
  132.9697  123.8554   61.8494 H   0  0  0  0  0  0  0  0  0  0  0  0
  133.7938  124.7605   59.9652 H   0  0  0  0  0  0  0  0  0  0  0  0
  134.0551  123.1681   59.1759 H   0  0  0  0  0  0  0  0  0  0  0  0
  132.4206  123.9132   59.1759 H   0  0  0  0  0  0  0  0  0  0  0  0
  134.1854  122.0355   62.6069 H   0  0  0  0  0  0  0  0  0  0  0  0
  133.9097  121.0805   61.1107 H   0  0  0  0  0  0  0  0  0  0  0  0
  135.0995  122.4262   61.1107 H   0  0  0  0  0  0  0  0  0  0  0  0
  128.6257  124.3090   63.9724 H   0  0  0  0  0  0  0  0  0  0  0  0
  129.4329  122.7420   63.8209 H   0  0  0  0  0  0  0  0  0  0  0  0
  129.2288  124.0875   66.2284 H   0  0  0  0  0  0  0  0  0  0  0  0
  130.5846  123.0240   65.9091 H   0  0  0  0  0  0  0  0  0  0  0  0
  130.3880  126.0719   65.5579 H   0  0  0  0  0  0  0  0  0  0  0  0
  131.6868  125.1799   66.3346 H   0  0  0  0  0  0  0  0  0  0  0  0
  132.0210  125.9888   63.6990 H   0  0  0  0  0  0  0  0  0  0  0  0
  1  2  1  0
  2  3  1  0
  3  4  1  0
  3  5  1  0
  5  6  1  0
  6  7  1  0
  7  8  2  0
  7  9  1  0
  9 10  1  0
  9 11  1  0
 11 12  1  0
 11 13  1  0
 13 14  1  0
 14 15  1  0
 15 16  1  0
 16 17  1  0
 17 18  1  0
 18 19  1  0
 19 20  1  0
  5 21  1  0
 21 22  2  0
 21 23  1  0
 23 24  1  0
 23 25  1  0
 25 26  1  0
 26 27  1  0
 27 28  1  0
 27 29  1  0
 25 30  1  0
 30 31  2  0
 30 32  1  0
 32 33  1  0
 33 34  1  0
 34 35  1  0
 35 36  1  0
 36 37  1  0
 37 38  2  0
 37 39  1  0
 36 32  1  0
  1 40  1  0
  1 41  1  0
  1 42  1  0
  2 43  1  0
  2 44  1  0
  3 45  1  1
  4 46  1  0
  4 47  1  0
  4 48  1  0
  5 49  1  1
  6 50  1  0
  9 51  1  6
 10 52  1  0
 11 53  1  1
 12 54  1  0
 12 55  1  0
 12 56  1  0
 13 57  1  0
 13 58  1  0
 14 59  1  0
 14 60  1  0
 15 61  1  0
 15 62  1  0
 16 63  1  0
 16 64  1  0
 17 65  1  0
 17 66  1  0
 18 67  1  0
 18 68  1  0
 19 69  1  0
 19 70  1  0
 24 71  1  0
 24 72  1  0
 24 73  1  0
 25 74  1  6
 26 75  1  0
 26 76  1  0
 27 77  1  0
 28 78  1  0
 28 79  1  0
 28 80  1  0
 29 81  1  0
 29 82  1  0
 29 83  1  0
 33 84  1  0
 33 85  1  0
 34 86  1  0
 34 87  1  0
 35 88  1  0
 35 89  1  0
 36 90  1  6
M  CHG  2  12   1  39  -1
M  END
>  <Binding energies>  (1) 
[-6.94]

>  <Ligand effiencies>  (1) 
[-0.15772727272727274]

>  <Interactions>  (1) 
["V-A:ILE:369:CG2:3237, V-B:PRO:540:CA:9855, V-A:GLY:454:CA:4049, H-A:GLU:543:OE2:4910, V-A:GLU:543:C:4902, V-B:GLU:543:CB:9878, V-B:ALA:541:CB:9864, H-A:ARG:545:NH1:4927, V-B:TYR:539:CE2:9848, V-A:TYR:484:CE2:4346, V-B:GLU:543:CG:9879, V-B:TYR:539:CZ:9849, H-B:ALA:541:N:9863, V-A:TYR:484:CZ:4347, V-B:PRO:540:CB:9857, V-A:GLU:543:CD:4908, V-B:HIS:456:CE1:9041, H-A:GLY:454:N:4050, V-B:PRO:540:N:9856, V-A:ILE:369:CD1:3239, V-B:TYR:484:CZ:9318, V-A:HIS:456:CE1:4070, V-B:TYR:539:CD2:9846, V-A:GLU:543:CG:4907, V-B:GLU:543:CD:9880, V-A:LEU:475:CD2:4259, H-A:ARG:545:NH2:4928, V-A:ARG:545:CZ:4926, H-A:GLU:543:OE1:4909, H-B:ARG:545:NH2:9900, V-A:GLU:543:CB:4906, H-A:ARG:545:NE:4924, V-B:PRO:540:C:9853, H-A:ASP:366:OD2:3215, H-A:TYR:484:OH:4348"]

$$$$
ZINC257491964
     RDKit          3D

 41 43  0  0  0  0  0  0  0  0999 V2000
  131.2710  125.6110   58.5350 C   0  0  0  0  0  0  0  0  0  0  0  0
  132.1850  124.8500   59.1580 C   0  0  0  0  0  0  0  0  0  0  0  0
  133.6860  124.7300   58.8240 C   0  0  2  0  0  0  0  0  0  0  0  0
  133.9590  123.6990   57.8960 O   0  0  0  0  0  0  0  0  0  0  0  0
  134.3560  124.4780   60.1960 C   0  0  0  0  0  0  0  0  0  0  0  0
  133.1940  124.5610   61.1790 C   0  0  2  0  0  0  0  0  0  0  0  0
  133.1900  123.7720   62.4910 C   0  0  0  0  0  0  0  0  0  0  0  0
  131.6910  123.8300   62.9010 C   0  0  2  0  0  0  0  0  0  0  0  0
  131.4780  124.9830   63.9160 C   0  0  0  0  0  0  0  0  0  0  0  0
  131.1370  122.4860   63.4470 C   0  0  0  0  0  0  0  0  0  0  0  0
  130.2060  121.9100   62.3670 C   0  0  0  0  0  0  0  0  0  0  0  0
  129.6870  123.1110   61.5510 C   0  0  0  0  0  0  0  0  0  0  0  0
  129.1660  122.7060   60.1470 C   0  0  0  0  0  0  0  0  0  0  0  0
  128.4770  123.7540   62.2840 C   0  0  0  0  0  0  0  0  0  0  0  0
  130.9120  124.0860   61.5640 C   0  0  2  0  0  0  0  0  0  0  0  0
  131.9830  124.0140   60.4200 C   0  0  1  0  0  0  0  0  0  0  0  0
  132.1820  122.6410   60.0740 O   0  0  0  0  0  0  0  0  0  0  0  0
  130.2252  125.6045   58.8760 H   0  0  0  0  0  0  0  0  0  0  0  0
  131.5680  126.2410   57.6836 H   0  0  0  0  0  0  0  0  0  0  0  0
  134.0711  125.6334   58.3284 H   0  0  0  0  0  0  0  0  0  0  0  0
  134.6990  123.9720   57.3490 H   0  0  0  0  0  0  0  0  0  0  0  0
  134.8273  123.4845   60.2270 H   0  0  0  0  0  0  0  0  0  0  0  0
  135.1588  125.1960   60.4195 H   0  0  0  0  0  0  0  0  0  0  0  0
  133.2299  125.6122   61.5009 H   0  0  0  0  0  0  0  0  0  0  0  0
  133.5213  122.7349   62.3343 H   0  0  0  0  0  0  0  0  0  0  0  0
  133.8733  124.1759   63.2526 H   0  0  0  0  0  0  0  0  0  0  0  0
  131.5509  124.5881   64.9401 H   0  0  0  0  0  0  0  0  0  0  0  0
  132.2492  125.7525   63.7639 H   0  0  0  0  0  0  0  0  0  0  0  0
  130.4828  125.4262   63.7639 H   0  0  0  0  0  0  0  0  0  0  0  0
  131.9646  121.7884   63.6433 H   0  0  0  0  0  0  0  0  0  0  0  0
  130.5939  122.6404   64.3910 H   0  0  0  0  0  0  0  0  0  0  0  0
  130.7614  121.2193   61.7154 H   0  0  0  0  0  0  0  0  0  0  0  0
  129.3757  121.3460   62.8169 H   0  0  0  0  0  0  0  0  0  0  0  0
  128.3018  122.0342   60.2563 H   0  0  0  0  0  0  0  0  0  0  0  0
  128.8622  123.6074   59.5946 H   0  0  0  0  0  0  0  0  0  0  0  0
  129.9646  122.1892   59.5946 H   0  0  0  0  0  0  0  0  0  0  0  0
  128.6235  123.6762   63.3714 H   0  0  0  0  0  0  0  0  0  0  0  0
  128.3970  124.8136   61.9997 H   0  0  0  0  0  0  0  0  0  0  0  0
  127.5540  123.2274   61.9997 H   0  0  0  0  0  0  0  0  0  0  0  0
  130.4419  125.0711   61.4279 H   0  0  0  0  0  0  0  0  0  0  0  0
  132.8320  122.6030   59.3680 H   0  0  0  0  0  0  0  0  0  0  0  0
  1  2  2  0
  2  3  1  0
  3  4  1  0
  3  5  1  0
  5  6  1  0
  6  7  1  0
  7  8  1  0
  8  9  1  1
  8 10  1  0
 10 11  1  0
 11 12  1  0
 12 13  1  0
 12 14  1  0
 12 15  1  0
 15 16  1  0
 16 17  1  6
 16  2  1  0
 16  6  1  0
 15  8  1  0
  1 18  1  0
  1 19  1  0
  3 20  1  6
  4 21  1  0
  5 22  1  0
  5 23  1  0
  6 24  1  1
  7 25  1  0
  7 26  1  0
  9 27  1  0
  9 28  1  0
  9 29  1  0
 10 30  1  0
 10 31  1  0
 11 32  1  0
 11 33  1  0
 13 34  1  0
 13 35  1  0
 13 36  1  0
 14 37  1  0
 14 38  1  0
 14 39  1  0
 15 40  1  1
 17 41  1  0
M  END
>  <Binding energies>  (1) 
[-5.72]

>  <Ligand effiencies>  (1) 
[-0.30105263157894735]

>  <Interactions>  (1) 
["V-A:ILE:369:CG2:3237, V-A:ASP:366:CA:3210, V-A:ILE:369:CD1:3239, V-A:ASP:366:C:3208, H-A:ASN:370:N:3244, V-A:ILE:369:CB:3236, H-B:TYR:539:OH:9850, V-B:TYR:539:CD2:9846, V-B:GLU:543:CD:9880, V-B:ALA:541:CB:9864, V-B:TYR:539:CE2:9848, V-A:ASP:366:CB:3212, V-A:LEU:475:CD2:4259, V-B:GLU:543:CG:9879, V-A:ASP:366:CG:3213, H-A:ASP:366:O:3209"]

$$$$
ZINC257521455
     RDKit          3D

 39 42  0  0  0  0  0  0  0  0999 V2000
  129.1130  124.3600   63.3800 C   0  0  0  0  0  0  0  0  0  0  0  0
  129.0080  123.9480   62.1030 C   0  0  0  0  0  0  0  0  0  0  0  0
  127.7540  123.4010   61.4170 C   0  0  2  0  0  0  0  0  0  0  0  0
  126.7730  122.8760   62.2910 O   0  0  0  0  0  0  0  0  0  0  0  0
  128.3280  122.3170   60.4970 C   0  0  2  0  0  0  0  0  0  0  0  0
  128.9230  121.3540   61.1920 O   0  0  0  0  0  0  0  0  0  0  0  0
  129.8690  122.2900   60.6300 C   0  0  1  0  0  0  0  0  0  0  0  0
  130.8640  121.5540   61.5980 C   0  0  0  0  0  0  0  0  0  0  0  0
  132.1240  122.4230   61.6500 C   0  0  2  0  0  0  0  0  0  0  0  0
  132.7230  122.6940   63.0430 C   0  0  0  0  0  0  0  0  0  0  0  0
  133.3040  124.1220   62.9840 C   0  0  0  0  0  0  0  0  0  0  0  0
  133.3760  124.7730   64.3830 C   0  0  0  0  0  0  0  0  0  0  0  0
  134.7280  124.0920   62.3740 C   0  0  0  0  0  0  0  0  0  0  0  0
  132.3260  124.8640   62.0460 C   0  0  0  0  0  0  0  0  0  0  0  0
  131.6780  123.7910   61.1450 C   0  0  2  0  0  0  0  0  0  0  0  0
  130.1140  123.7840   61.0330 C   0  0  2  0  0  0  0  0  0  0  0  0
  129.8390  124.7950   59.8640 C   0  0  0  0  0  0  0  0  0  0  0  0
  130.0748  124.7355   63.7595 H   0  0  0  0  0  0  0  0  0  0  0  0
  128.2370  124.3212   64.0442 H   0  0  0  0  0  0  0  0  0  0  0  0
  127.1999  124.1990   60.9011 H   0  0  0  0  0  0  0  0  0  0  0  0
  126.3880  123.6020   62.7870 H   0  0  0  0  0  0  0  0  0  0  0  0
  127.5993  122.3411   59.6733 H   0  0  0  0  0  0  0  0  0  0  0  0
  130.4225  121.4608   62.6012 H   0  0  0  0  0  0  0  0  0  0  0  0
  131.0906  120.5370   61.2453 H   0  0  0  0  0  0  0  0  0  0  0  0
  132.8950  121.8863   61.0776 H   0  0  0  0  0  0  0  0  0  0  0  0
  131.9413  122.6307   63.8143 H   0  0  0  0  0  0  0  0  0  0  0  0
  133.4954  121.9545   63.3009 H   0  0  0  0  0  0  0  0  0  0  0  0
  133.2898  123.9940   65.1548 H   0  0  0  0  0  0  0  0  0  0  0  0
  134.3374  125.2956   64.4952 H   0  0  0  0  0  0  0  0  0  0  0  0
  132.5520  125.4930   64.4952 H   0  0  0  0  0  0  0  0  0  0  0  0
  135.4732  124.0763   63.1830 H   0  0  0  0  0  0  0  0  0  0  0  0
  134.8420  123.1913   61.7530 H   0  0  0  0  0  0  0  0  0  0  0  0
  134.8798  124.9871   61.7530 H   0  0  0  0  0  0  0  0  0  0  0  0
  131.5543  125.3813   62.6349 H   0  0  0  0  0  0  0  0  0  0  0  0
  132.8507  125.6216   61.4454 H   0  0  0  0  0  0  0  0  0  0  0  0
  132.0213  124.0395   60.1299 H   0  0  0  0  0  0  0  0  0  0  0  0
  129.5721  125.7764   60.2831 H   0  0  0  0  0  0  0  0  0  0  0  0
  130.7428  124.8943   59.2449 H   0  0  0  0  0  0  0  0  0  0  0  0
  129.0095  124.4228   59.2449 H   0  0  0  0  0  0  0  0  0  0  0  0
  1  2  2  0
  2  3  1  0
  3  4  1  0
  3  5  1  0
  5  6  1  0
  7  6  1  6
  7  8  1  0
  8  9  1  0
  9 10  1  0
 10 11  1  0
 11 12  1  0
 11 13  1  0
 11 14  1  0
 14 15  1  0
 15 16  1  0
 16 17  1  6
 16  2  1  0
  7  5  1  0
 15  9  1  0
 16  7  1  0
  1 18  1  0
  1 19  1  0
  3 20  1  6
  4 21  1  0
  5 22  1  6
  8 23  1  0
  8 24  1  0
  9 25  1  6
 10 26  1  0
 10 27  1  0
 12 28  1  0
 12 29  1  0
 12 30  1  0
 13 31  1  0
 13 32  1  0
 13 33  1  0
 14 34  1  0
 14 35  1  0
 15 36  1  6
 17 37  1  0
 17 38  1  0
 17 39  1  0
M  END
>  <Binding energies>  (1) 
[-6.24]

>  <Ligand effiencies>  (1) 
[-0.3466666666666667]

>  <Interactions>  (1) 
["V-B:PRO:540:CA:9855, V-A:ILE:369:CD1:3239, V-A:GLY:454:CA:4049, V-A:GLY:453:CA:4044, H-B:GLU:543:OE1:9881, V-B:TYR:539:CD2:9846, H-B:ALA:541:N:9863, V-B:GLU:543:CD:9880, V-B:PRO:540:C:9853, V-A:ARG:545:CZ:4926, V-B:TYR:539:CE2:9848, V-A:LEU:475:CD2:4259, H-B:ALA:541:O:9861, V-B:GLU:543:CG:9879, V-B:TYR:539:C:9839, V-A:GLY:453:C:4042, V-B:PRO:540:N:9856"]

$$$$
ZINC257556655
     RDKit          3D

 77 80  0  0  0  0  0  0  0  0999 V2000
  133.5890  131.4870   59.7830 C   0  0  0  0  0  0  0  0  0  0  0  0
  132.6640  130.9770   58.6570 C   0  0  0  0  0  0  0  0  0  0  0  0
  133.4880  130.3280   57.5260 C   0  0  0  0  0  0  0  0  0  0  0  0
  131.6750  132.0590   58.1330 C   0  0  1  0  0  0  0  0  0  0  0  0
  131.5600  132.0370   56.5920 C   0  0  0  0  0  0  0  0  0  0  0  0
  130.3380  132.0730   58.8780 C   0  0  0  0  0  0  0  0  0  0  0  0
  130.0530  131.4600   60.0460 C   0  0  0  0  0  0  0  0  0  0  0  0
  128.7170  131.4870   60.7860 C   0  0  1  0  0  0  0  0  0  0  0  0
  128.0630  132.8910   60.7810 C   0  0  0  0  0  0  0  0  0  0  0  0
  127.7320  130.3720   60.2920 C   0  0  2  0  0  0  0  0  0  0  0  0
  126.6340  130.0090   61.3040 C   0  0  0  0  0  0  0  0  0  0  0  0
  125.9700  128.7760   60.7090 C   0  0  0  0  0  0  0  0  0  0  0  0
  127.1130  127.9800   60.0500 C   0  0  2  0  0  0  0  0  0  0  0  0
  127.4680  126.6060   60.7370 C   0  0  1  0  0  0  0  0  0  0  0  0
  127.5370  126.8220   62.1400 O   0  0  0  0  0  0  0  0  0  0  0  0
  126.4180  125.5200   60.5000 C   0  0  0  0  0  0  0  0  0  0  0  0
  126.6890  124.2120   60.6850 C   0  0  0  0  0  0  0  0  0  0  0  0
  128.0680  123.7450   61.1420 C   0  0  1  0  0  0  0  0  0  0  0  0
  128.1710  124.0510   62.5290 O   0  0  0  0  0  0  0  0  0  0  0  0
  128.2780  122.2070   61.0600 C   0  0  0  0  0  0  0  0  0  0  0  0
  129.7200  121.7620   61.4470 C   0  0  1  0  0  0  0  0  0  0  0  0
  129.9240  120.4090   61.0940 O   0  0  0  0  0  0  0  0  0  0  0  0
  130.8620  122.6470   60.8710 C   0  0  0  0  0  0  0  0  0  0  0  0
  130.5420  124.1620   60.9010 C   0  0  0  0  0  0  0  0  0  0  0  0
  129.1520  124.5090   60.2790 C   0  0  1  0  0  0  0  0  0  0  0  0
  129.1630  123.9950   58.7930 C   0  0  0  0  0  0  0  0  0  0  0  0
  128.8480  126.0790   60.1980 C   0  0  2  0  0  0  0  0  0  0  0  0
  130.0150  127.0860   60.4300 C   0  0  0  0  0  0  0  0  0  0  0  0
  129.5330  128.5320   60.7210 C   0  0  0  0  0  0  0  0  0  0  0  0
  128.3220  128.9830   59.8400 C   0  0  2  0  0  0  0  0  0  0  0  0
  128.7370  129.0430   58.3410 C   0  0  0  0  0  0  0  0  0  0  0  0
  133.1463  131.2429   60.7600 H   0  0  0  0  0  0  0  0  0  0  0  0
  134.5735  131.0042   59.6956 H   0  0  0  0  0  0  0  0  0  0  0  0
  133.7062  132.5772   59.6956 H   0  0  0  0  0  0  0  0  0  0  0  0
  132.0226  130.1983   59.0955 H   0  0  0  0  0  0  0  0  0  0  0  0
  134.2812  129.7032   57.9624 H   0  0  0  0  0  0  0  0  0  0  0  0
  132.8295  129.7034   56.9045 H   0  0  0  0  0  0  0  0  0  0  0  0
  133.9409  131.1146   56.9045 H   0  0  0  0  0  0  0  0  0  0  0  0
  132.1124  133.0386   58.3762 H   0  0  0  0  0  0  0  0  0  0  0  0
  130.5170  131.8375   56.3050 H   0  0  0  0  0  0  0  0  0  0  0  0
  131.8718  133.0111   56.1871 H   0  0  0  0  0  0  0  0  0  0  0  0
  132.2093  131.2468   56.1871 H   0  0  0  0  0  0  0  0  0  0  0  0
  129.5218  132.6440   58.4113 H   0  0  0  0  0  0  0  0  0  0  0  0
  130.8649  130.8825   60.5123 H   0  0  0  0  0  0  0  0  0  0  0  0
  128.9472  131.2547   61.8363 H   0  0  0  0  0  0  0  0  0  0  0  0
  127.9068  133.2264   61.8169 H   0  0  0  0  0  0  0  0  0  0  0  0
  128.7230  133.6011   60.2613 H   0  0  0  0  0  0  0  0  0  0  0  0
  127.0947  132.8426   60.2613 H   0  0  0  0  0  0  0  0  0  0  0  0
  127.3582  130.8991   59.4018 H   0  0  0  0  0  0  0  0  0  0  0  0
  127.0702  129.7807   62.2877 H   0  0  0  0  0  0  0  0  0  0  0  0
  125.9232  130.8324   61.4677 H   0  0  0  0  0  0  0  0  0  0  0  0
  125.4886  128.1788   61.4974 H   0  0  0  0  0  0  0  0  0  0  0  0
  125.1836  129.0406   59.9868 H   0  0  0  0  0  0  0  0  0  0  0  0
  126.7826  127.6070   59.0693 H   0  0  0  0  0  0  0  0  0  0  0  0
  127.2390  126.0210   62.5780 H   0  0  0  0  0  0  0  0  0  0  0  0
  125.4113  125.8145   60.1686 H   0  0  0  0  0  0  0  0  0  0  0  0
  125.9004  123.4670   60.5029 H   0  0  0  0  0  0  0  0  0  0  0  0
  127.5030  124.7070   62.7440 H   0  0  0  0  0  0  0  0  0  0  0  0
  127.5668  121.7203   61.7436 H   0  0  0  0  0  0  0  0  0  0  0  0
  128.1147  121.9105   60.0134 H   0  0  0  0  0  0  0  0  0  0  0  0
  129.7790  121.8912   62.5378 H   0  0  0  0  0  0  0  0  0  0  0  0
  129.1150  120.0690   60.7040 H   0  0  0  0  0  0  0  0  0  0  0  0
  131.7718  122.4712   61.4637 H   0  0  0  0  0  0  0  0  0  0  0  0
  130.9912  122.3636   59.8160 H   0  0  0  0  0  0  0  0  0  0  0  0
  130.5512  124.5007   61.9475 H   0  0  0  0  0  0  0  0  0  0  0  0
  131.3073  124.6701   60.2958 H   0  0  0  0  0  0  0  0  0  0  0  0
  129.1865  122.8953   58.7856 H   0  0  0  0  0  0  0  0  0  0  0  0
  128.2571  124.3459   58.2769 H   0  0  0  0  0  0  0  0  0  0  0  0
  130.0530  124.3843   58.2769 H   0  0  0  0  0  0  0  0  0  0  0  0
  128.7252  126.0777   59.1049 H   0  0  0  0  0  0  0  0  0  0  0  0
  130.6106  126.7380   61.2868 H   0  0  0  0  0  0  0  0  0  0  0  0
  130.6033  127.1207   59.5012 H   0  0  0  0  0  0  0  0  0  0  0  0
  129.2343  128.5919   61.7780 H   0  0  0  0  0  0  0  0  0  0  0  0
  130.3709  129.2033   60.4816 H   0  0  0  0  0  0  0  0  0  0  0  0
  129.8232  129.2000   58.2673 H   0  0  0  0  0  0  0  0  0  0  0  0
  128.4690  128.0968   57.8482 H   0  0  0  0  0  0  0  0  0  0  0  0
  128.2120  129.8746   57.8482 H   0  0  0  0  0  0  0  0  0  0  0  0
  1  2  1  0
  2  3  1  0
  2  4  1  0
  4  5  1  0
  4  6  1  0
  6  7  2  0
  7  8  1  0
  8  9  1  0
  8 10  1  0
 10 11  1  0
 11 12  1  0
 12 13  1  0
 13 14  1  0
 14 15  1  1
 14 16  1  0
 16 17  2  0
 17 18  1  0
 18 19  1  1
 18 20  1  0
 20 21  1  0
 21 22  1  0
 21 23  1  0
 23 24  1  0
 24 25  1  0
 25 26  1  6
 25 27  1  0
 27 28  1  0
 28 29  1  0
 29 30  1  0
 30 31  1  6
 30 10  1  0
 30 13  1  0
 27 14  1  0
 25 18  1  0
  1 32  1  0
  1 33  1  0
  1 34  1  0
  2 35  1  0
  3 36  1  0
  3 37  1  0
  3 38  1  0
  4 39  1  6
  5 40  1  0
  5 41  1  0
  5 42  1  0
  6 43  1  0
  7 44  1  0
  8 45  1  1
  9 46  1  0
  9 47  1  0
  9 48  1  0
 10 49  1  6
 11 50  1  0
 11 51  1  0
 12 52  1  0
 12 53  1  0
 13 54  1  6
 15 55  1  0
 16 56  1  0
 17 57  1  0
 19 58  1  0
 20 59  1  0
 20 60  1  0
 21 61  1  1
 22 62  1  0
 23 63  1  0
 23 64  1  0
 24 65  1  0
 24 66  1  0
 26 67  1  0
 26 68  1  0
 26 69  1  0
 27 70  1  6
 28 71  1  0
 28 72  1  0
 29 73  1  0
 29 74  1  0
 31 75  1  0
 31 76  1  0
 31 77  1  0
M  END
>  <Binding energies>  (1) 
[-7.15]

>  <Ligand effiencies>  (1) 
[-0.21029411764705883]

>  <Interactions>  (1) 
["V-B:PRO:540:CA:9855, V-B:ASP:366:CG:8184, V-B:ALA:541:CB:9864, V-B:TYR:539:CE2:9848, V-A:ASP:366:CG:3213, V-A:LEU:363:CD1:3189, V-A:LEU:363:CB:3187, V-B:TYR:539:CZ:9849, H-B:GLU:543:OE1:9881, V-A:TYR:531:CE2:4793, V-B:TYR:539:CD2:9846, V-A:TYR:531:CZ:4794, V-A:ASP:366:CB:3212, V-A:PRO:540:N:4884, H-B:GLU:543:OE2:9882, V-A:PRO:540:CA:4883, V-A:PRO:540:CB:4885, V-A:LEU:363:CA:3185, H-B:TYR:539:O:9840, V-B:PRO:540:C:9853"]

$$$$
ZINC257569495
     RDKit          3D

 58 60  0  0  0  0  0  0  0  0999 V2000
  133.9470  122.0570   62.3830 C   0  0  0  0  0  0  0  0  0  0  0  0
  132.8020  122.7590   62.4490 C   0  0  0  0  0  0  0  0  0  0  0  0
  132.5360  124.1810   61.9370 C   0  0  2  0  0  0  0  0  0  0  0  0
  133.6520  125.0900   62.5140 C   0  0  0  0  0  0  0  0  0  0  0  0
  131.1280  124.6010   62.4150 C   0  0  0  0  0  0  0  0  0  0  0  0
  130.7630  126.0420   62.0120 C   0  0  0  0  0  0  0  0  0  0  0  0
  131.1870  126.4290   60.5790 C   0  0  0  0  0  0  0  0  0  0  0  0
  132.0280  125.6210   59.8600 C   0  0  0  0  0  0  0  0  0  0  0  0
  132.4990  124.2490   60.3860 C   0  0  0  0  0  0  0  0  0  0  0  0
  132.4540  125.9440   58.4820 C   0  0  0  0  0  0  0  0  0  0  0  0
  132.9600  125.1020   57.7390 O   0  0  0  0  0  0  0  0  0  0  0  0
  132.0790  127.3150   57.9140 C   0  0  0  0  0  0  0  0  0  0  0  0
  131.7250  128.3510   59.0060 C   0  0  1  0  0  0  0  0  0  0  0  0
  131.5010  129.8180   58.4520 C   0  0  1  0  0  0  0  0  0  0  0  0
  132.7720  130.2560   57.6630 C   0  0  0  0  0  0  0  0  0  0  0  0
  130.2430  129.9030   57.5380 C   0  0  0  0  0  0  0  0  0  0  0  0
  130.2980  131.0310   56.6670 O   0  0  0  0  0  0  0  0  0  0  0  0
  129.8880  132.2430   57.0870 C   0  0  0  0  0  0  0  0  0  0  0  0
  128.6380  132.1610   57.9530 C   0  0  0  0  0  0  0  0  0  0  0  0
  130.4220  133.3240   56.8320 O   0  0  0  0  0  0  0  0  0  0  0  0
  131.3080  130.7870   59.6770 C   0  0  2  0  0  0  0  0  0  0  0  0
  132.5120  131.0150   60.3960 O   0  0  0  0  0  0  0  0  0  0  0  0
  130.2280  130.2860   60.6620 C   0  0  0  0  0  0  0  0  0  0  0  0
  130.5190  128.8580   61.1690 C   0  0  0  0  0  0  0  0  0  0  0  0
  130.6660  127.7920   60.0380 C   0  0  2  0  0  0  0  0  0  0  0  0
  129.2670  127.4760   59.4280 C   0  0  0  0  0  0  0  0  0  0  0  0
  133.9921  121.0383   62.7955 H   0  0  0  0  0  0  0  0  0  0  0  0
  134.8385  122.5015   61.9165 H   0  0  0  0  0  0  0  0  0  0  0  0
  131.9519  122.2519   62.9287 H   0  0  0  0  0  0  0  0  0  0  0  0
  133.6167  125.0612   63.6131 H   0  0  0  0  0  0  0  0  0  0  0  0
  134.6327  124.7304   62.1691 H   0  0  0  0  0  0  0  0  0  0  0  0
  133.4983  126.1232   62.1691 H   0  0  0  0  0  0  0  0  0  0  0  0
  130.3889  123.9156   61.9746 H   0  0  0  0  0  0  0  0  0  0  0  0
  131.1253  124.5550   63.5140 H   0  0  0  0  0  0  0  0  0  0  0  0
  129.6717  126.1555   62.0906 H   0  0  0  0  0  0  0  0  0  0  0  0
  131.3129  126.7079   62.6933 H   0  0  0  0  0  0  0  0  0  0  0  0
  131.8100  123.4752   60.0164 H   0  0  0  0  0  0  0  0  0  0  0  0
  133.5247  124.0886   60.0223 H   0  0  0  0  0  0  0  0  0  0  0  0
  132.9308  127.6973   57.3325 H   0  0  0  0  0  0  0  0  0  0  0  0
  131.1825  127.1768   57.2918 H   0  0  0  0  0  0  0  0  0  0  0  0
  132.6210  128.5010   59.6262 H   0  0  0  0  0  0  0  0  0  0  0  0
  133.5673  130.5301   58.3718 H   0  0  0  0  0  0  0  0  0  0  0  0
  133.1154  129.4244   57.0302 H   0  0  0  0  0  0  0  0  0  0  0  0
  132.5302  131.1227   57.0302 H   0  0  0  0  0  0  0  0  0  0  0  0
  130.1806  128.9873   56.9317 H   0  0  0  0  0  0  0  0  0  0  0  0
  129.3581  130.0107   58.1824 H   0  0  0  0  0  0  0  0  0  0  0  0
  128.9255  132.1799   59.0146 H   0  0  0  0  0  0  0  0  0  0  0  0
  127.9840  133.0182   57.7350 H   0  0  0  0  0  0  0  0  0  0  0  0
  128.1016  131.2257   57.7350 H   0  0  0  0  0  0  0  0  0  0  0  0
  130.9775  131.7371   59.2319 H   0  0  0  0  0  0  0  0  0  0  0  0
  133.1570  130.3570   60.1260 H   0  0  0  0  0  0  0  0  0  0  0  0
  130.1917  130.9676   61.5246 H   0  0  0  0  0  0  0  0  0  0  0  0
  129.2669  130.2653   60.1274 H   0  0  0  0  0  0  0  0  0  0  0  0
  131.4562  128.8811   61.7445 H   0  0  0  0  0  0  0  0  0  0  0  0
  129.6522  128.5564   61.7753 H   0  0  0  0  0  0  0  0  0  0  0  0
  128.5420  127.3122   60.2389 H   0  0  0  0  0  0  0  0  0  0  0  0
  128.9380  128.3224   58.8073 H   0  0  0  0  0  0  0  0  0  0  0  0
  129.3337  126.5703   58.8073 H   0  0  0  0  0  0  0  0  0  0  0  0
  1  2  2  0
  2  3  1  0
  3  4  1  1
  3  5  1  0
  5  6  1  0
  6  7  1  0
  7  8  2  0
  8  9  1  0
  8 10  1  0
 10 11  2  0
 10 12  1  0
 12 13  1  0
 13 14  1  0
 14 15  1  6
 14 16  1  0
 16 17  1  0
 17 18  1  0
 18 19  1  0
 18 20  2  0
 14 21  1  0
 21 22  1  0
 21 23  1  0
 23 24  1  0
 24 25  1  0
 25 26  1  6
  9  3  1  0
 25 13  1  0
 25  7  1  0
  1 27  1  0
  1 28  1  0
  2 29  1  0
  4 30  1  0
  4 31  1  0
  4 32  1  0
  5 33  1  0
  5 34  1  0
  6 35  1  0
  6 36  1  0
  9 37  1  0
  9 38  1  0
 12 39  1  0
 12 40  1  0
 13 41  1  1
 15 42  1  0
 15 43  1  0
 15 44  1  0
 16 45  1  0
 16 46  1  0
 19 47  1  0
 19 48  1  0
 19 49  1  0
 21 50  1  6
 22 51  1  0
 23 52  1  0
 23 53  1  0
 24 54  1  0
 24 55  1  0
 26 56  1  0
 26 57  1  0
 26 58  1  0
M  END
>  <Binding energies>  (1) 
[-6.85]

>  <Ligand effiencies>  (1) 
[-0.2537037037037037]

>  <Interactions>  (1) 
["V-A:ASP:366:CA:3210, V-A:LEU:363:CD1:3189, H-A:TYR:539:N:4870, V-A:ILE:369:CD1:3239, V-A:GLY:454:CA:4049, V-A:TYR:539:CD1:4873, V-A:TYR:531:CE2:4793, H-B:TYR:539:OH:9850, V-A:TYR:531:CZ:4794, H-A:TYR:531:OH:4795, H-A:ASP:366:OD2:3215, V-A:ASP:366:CB:3212, V-A:LEU:475:CD2:4259, V-A:ARG:545:CZ:4926, V-A:ASP:366:CG:3213"]

$$$$
ZINC257700471
     RDKit          3D

 41 43  0  0  0  0  0  0  0  0999 V2000
  133.7690  131.8530   60.9180 C   0  0  0  0  0  0  0  0  0  0  0  0
  132.5030  131.4220   61.0880 C   0  0  0  0  0  0  0  0  0  0  0  0
  131.7200  131.8470   62.3240 C   0  0  0  0  0  0  0  0  0  0  0  0
  131.7590  130.4710   60.1230 C   0  0  2  0  0  0  0  0  0  0  0  0
  132.4350  130.2920   58.7250 C   0  0  0  0  0  0  0  0  0  0  0  0
  132.1400  131.4540   57.7210 C   0  0  0  0  0  0  0  0  0  0  0  0
  130.6390  131.8840   57.6540 C   0  0  1  0  0  0  0  0  0  0  0  0
  130.4120  133.3450   57.1940 C   0  0  0  0  0  0  0  0  0  0  0  0
  129.1710  133.7270   57.8270 O   0  0  0  0  0  0  0  0  0  0  0  0
  128.7800  132.7570   58.8160 C   0  0  1  0  0  0  0  0  0  0  0  0
  128.2030  133.5090   60.0280 C   0  0  0  0  0  0  0  0  0  0  0  0
  127.7590  131.7980   58.1490 C   0  0  0  0  0  0  0  0  0  0  0  0
  128.2440  131.3020   56.7710 C   0  0  0  0  0  0  0  0  0  0  0  0
  129.7470  130.9280   56.7610 C   0  0  2  0  0  0  0  0  0  0  0  0
  129.8930  129.5530   57.0510 O   0  0  0  0  0  0  0  0  0  0  0  0
  130.1390  132.0990   59.0900 C   0  0  1  0  0  0  0  0  0  0  0  0
  130.2540  130.8290   59.9590 C   0  0  0  0  0  0  0  0  0  0  0  0
  134.3386  131.5490   60.0274 H   0  0  0  0  0  0  0  0  0  0  0  0
  134.2324  132.5086   61.6699 H   0  0  0  0  0  0  0  0  0  0  0  0
  132.2710  131.5479   63.2279 H   0  0  0  0  0  0  0  0  0  0  0  0
  131.5903  132.9393   62.3182 H   0  0  0  0  0  0  0  0  0  0  0  0
  130.7334  131.3606   62.3182 H   0  0  0  0  0  0  0  0  0  0  0  0
  131.8306  129.4946   60.6246 H   0  0  0  0  0  0  0  0  0  0  0  0
  133.5233  130.2307   58.8726 H   0  0  0  0  0  0  0  0  0  0  0  0
  132.0145  129.3764   58.2837 H   0  0  0  0  0  0  0  0  0  0  0  0
  132.7353  132.3285   58.0224 H   0  0  0  0  0  0  0  0  0  0  0  0
  132.4041  131.0794   56.7210 H   0  0  0  0  0  0  0  0  0  0  0  0
  131.2361  133.9920   57.5290 H   0  0  0  0  0  0  0  0  0  0  0  0
  130.3733  133.4408   56.0989 H   0  0  0  0  0  0  0  0  0  0  0  0
  128.5628  133.0401   60.9557 H   0  0  0  0  0  0  0  0  0  0  0  0
  128.5294  134.5590   59.9974 H   0  0  0  0  0  0  0  0  0  0  0  0
  127.1043  133.4655   59.9974 H   0  0  0  0  0  0  0  0  0  0  0  0
  127.6074  130.9287   58.8057 H   0  0  0  0  0  0  0  0  0  0  0  0
  126.8211  132.3527   57.9987 H   0  0  0  0  0  0  0  0  0  0  0  0
  127.6591  130.4132   56.4919 H   0  0  0  0  0  0  0  0  0  0  0  0
  128.1035  132.1253   56.0551 H   0  0  0  0  0  0  0  0  0  0  0  0
  130.1434  131.0950   55.7486 H   0  0  0  0  0  0  0  0  0  0  0  0
  130.7520  129.2660   56.7350 H   0  0  0  0  0  0  0  0  0  0  0  0
  130.7273  132.7463   59.7570 H   0  0  0  0  0  0  0  0  0  0  0  0
  129.8080  131.0151   60.9472 H   0  0  0  0  0  0  0  0  0  0  0  0
  129.7211  129.9959   59.4773 H   0  0  0  0  0  0  0  0  0  0  0  0
  1  2  2  0
  2  3  1  0
  2  4  1  0
  4  5  1  0
  5  6  1  0
  7  6  1  1
  7  8  1  0
  8  9  1  0
  9 10  1  0
 10 11  1  1
 10 12  1  0
 12 13  1  0
 13 14  1  0
 14 15  1  0
 10 16  1  0
 16 17  1  0
 17  4  1  0
 14  7  1  0
 16  7  1  0
  1 18  1  0
  1 19  1  0
  3 20  1  0
  3 21  1  0
  3 22  1  0
  4 23  1  1
  5 24  1  0
  5 25  1  0
  6 26  1  0
  6 27  1  0
  8 28  1  0
  8 29  1  0
 11 30  1  0
 11 31  1  0
 11 32  1  0
 12 33  1  0
 12 34  1  0
 13 35  1  0
 13 36  1  0
 14 37  1  6
 15 38  1  0
 16 39  1  1
 17 40  1  0
 17 41  1  0
M  END
>  <Binding energies>  (1) 
[-6.1]

>  <Ligand effiencies>  (1) 
[-0.33888888888888885]

>  <Interactions>  (1) 
["V-A:ILE:538:C:4858, V-A:ILE:538:CB:4862, H-A:TYR:531:OH:4795, V-A:ASP:366:CG:3213, V-A:ASN:362:CB:3176, V-A:LEU:363:CD1:3189, V-A:TYR:539:CD1:4873, V-A:ILE:538:CA:4860, V-A:TYR:539:CA:4869, V-A:GLU:543:CD:4908, V-A:GLU:543:CG:4907, V-A:MET:535:CE:4835, V-A:TYR:539:C:4867, V-A:ASP:366:CB:3212, V-A:ASN:362:C:3172, V-A:PRO:540:N:4884, H-A:TYR:539:N:4870, V-A:PRO:540:CB:4885, V-A:PRO:540:CA:4883, V-A:LEU:363:CA:3185, V-A:PRO:540:CD:4887, V-A:TYR:539:CE1:4875"]

$$$$
ZINC25783654-again1
     RDKit          3D

 44 49  0  0  0  0  0  0  0  0999 V2000
  129.7100  126.2170   57.0430 F   0  0  0  0  0  0  0  0  0  0  0  0
  129.2760  125.0630   57.6020 C   0  0  0  0  0  0  0  0  0  0  0  0
  128.3490  124.2810   56.9110 C   0  0  0  0  0  0  0  0  0  0  0  0
  127.8940  123.0840   57.4620 C   0  0  0  0  0  0  0  0  0  0  0  0
  128.3640  122.6690   58.7070 C   0  0  0  0  0  0  0  0  0  0  0  0
  129.2890  123.4490   59.4010 C   0  0  0  0  0  0  0  0  0  0  0  0
  129.7560  124.6510   58.8550 C   0  0  0  0  0  0  0  0  0  0  0  0
  130.7850  125.4850   59.6250 C   0  0  1  0  0  0  0  0  0  0  0  0
  130.4310  125.6660   61.1270 C   0  0  0  0  0  0  0  0  0  0  0  0
  131.3490  125.3100   62.0810 C   0  0  0  0  0  0  0  0  0  0  0  0
  132.5990  124.7980   61.8060 N   0  0  0  0  0  0  0  0  0  0  0  0
  132.9500  124.6920   60.5830 C   0  0  0  0  0  0  0  0  0  0  0  0
  134.1280  124.2280   59.9620 N   0  0  0  0  0  0  0  0  0  0  0  0
  133.9100  124.3370   58.5520 C   0  0  0  0  0  0  0  0  0  0  0  0
  132.7690  124.8080   58.2440 N   0  0  0  0  0  0  0  0  0  0  0  0
  132.1780  125.0370   59.4670 N   0  0  0  0  0  0  0  0  0  0  0  0
  131.0130  125.4830   63.5140 C   0  0  0  0  0  0  0  0  0  0  0  0
  131.7470  124.9050   64.5630 C   0  0  0  0  0  0  0  0  0  0  0  0
  131.3490  125.0810   65.8890 C   0  0  0  0  0  0  0  0  0  0  0  0
  130.2150  125.8360   66.1870 C   0  0  0  0  0  0  0  0  0  0  0  0
  129.4730  126.4130   65.1580 C   0  0  0  0  0  0  0  0  0  0  0  0
  129.8680  126.2280   63.8330 C   0  0  0  0  0  0  0  0  0  0  0  0
  129.1220  126.8650   62.8610 O   0  0  0  0  0  0  0  0  0  0  0  0
  129.0750  126.2530   61.5540 C   0  0  2  0  0  0  0  0  0  0  0  0
  127.9210  125.2620   61.4650 C   0  0  0  0  0  0  0  0  0  0  0  0
  126.7050  125.4100   60.7960 C   0  0  0  0  0  0  0  0  0  0  0  0
  125.8510  124.3080   60.8850 C   0  0  0  0  0  0  0  0  0  0  0  0
  126.3890  123.2820   61.6370 C   0  0  0  0  0  0  0  0  0  0  0  0
  127.9590  123.6910   62.2370 S   0  0  0  0  0  0  0  0  0  0  0  0
  127.9767  124.6099   55.9296 H   0  0  0  0  0  0  0  0  0  0  0  0
  127.1651  122.4679   56.9151 H   0  0  0  0  0  0  0  0  0  0  0  0
  128.0049  121.7250   59.1428 H   0  0  0  0  0  0  0  0  0  0  0  0
  129.6542  123.1175   60.3842 H   0  0  0  0  0  0  0  0  0  0  0  0
  130.7216  126.4722   59.1440 H   0  0  0  0  0  0  0  0  0  0  0  0
  134.9540  123.8750   60.4240 H   0  0  0  0  0  0  0  0  0  0  0  0
  134.6597  124.0409   57.8035 H   0  0  0  0  0  0  0  0  0  0  0  0
  132.6432  124.3085   64.3373 H   0  0  0  0  0  0  0  0  0  0  0  0
  131.9316  124.6227   66.7017 H   0  0  0  0  0  0  0  0  0  0  0  0
  129.9064  125.9760   67.2335 H   0  0  0  0  0  0  0  0  0  0  0  0
  128.5798  127.0117   65.3897 H   0  0  0  0  0  0  0  0  0  0  0  0
  128.8715  127.0423   60.8154 H   0  0  0  0  0  0  0  0  0  0  0  0
  126.4399  126.3227   60.2422 H   0  0  0  0  0  0  0  0  0  0  0  0
  124.8603  124.2625   60.4091 H   0  0  0  0  0  0  0  0  0  0  0  0
  125.8826  122.3248   61.8301 H   0  0  0  0  0  0  0  0  0  0  0  0
  1  2  1  0
  2  3  2  0
  3  4  1  0
  4  5  2  0
  5  6  1  0
  6  7  2  0
  7  8  1  0
  8  9  1  0
  9 10  2  0
 10 11  1  0
 11 12  2  0
 12 13  1  0
 13 14  1  0
 14 15  2  0
 15 16  1  0
 10 17  1  0
 17 18  2  0
 18 19  1  0
 19 20  2  0
 20 21  1  0
 21 22  2  0
 22 23  1  0
 23 24  1  0
 24 25  1  0
 25 26  2  0
 26 27  1  0
 27 28  2  0
 28 29  1  0
  7  2  1  0
 16  8  1  0
 22 17  1  0
 29 25  1  0
 24  9  1  0
 16 12  1  0
  3 30  1  0
  4 31  1  0
  5 32  1  0
  6 33  1  0
  8 34  1  6
 13 35  1  0
 14 36  1  0
 18 37  1  0
 19 38  1  0
 20 39  1  0
 21 40  1  0
 24 41  1  6
 26 42  1  0
 27 43  1  0
 28 44  1  0
M  END
>  <Binding energies>  (1) 
[-6.4]

>  <Ligand effiencies>  (1) 
[-0.21333333333333335]

>  <Interactions>  (1) 
["V-A:ILE:369:CG2:3237, V-A:ASP:366:CA:3210, V-B:PRO:540:CA:9855, V-A:ILE:369:CB:3236, V-B:TYR:539:CE2:9848, V-B:GLU:543:CG:9879, V-B:TYR:539:C:9839, V-A:ASP:366:CG:3213, V-B:TYR:539:CZ:9849, H-B:TYR:539:OH:9850, V-A:TYR:484:CZ:4347, V-A:GLU:543:CD:4908, V-B:PRO:540:CB:9857, V-B:PRO:540:N:9856, V-A:ILE:369:CD1:3239, V-A:ASP:366:C:3208, V-B:TYR:539:CD2:9846, V-B:GLU:543:CD:9880, V-A:ASP:366:CB:3212, V-B:TYR:539:CG:9844, H-A:ASP:366:OD1:3214, V-B:TYR:539:CD1:9845, V-B:PRO:540:C:9853, V-B:TYR:539:CE1:9847"]

$$$$
ZINC260778123
     RDKit          3D

 50 54  0  0  0  0  0  0  0  0999 V2000
  134.3960  122.9400   62.3900 C   0  0  0  0  0  0  0  0  0  0  0  0
  134.2680  124.3170   62.7240 O   0  0  0  0  0  0  0  0  0  0  0  0
  133.2790  124.7180   63.6080 C   0  0  0  0  0  0  0  0  0  0  0  0
  133.4890  124.8640   64.9910 C   0  0  0  0  0  0  0  0  0  0  0  0
  132.4600  125.2870   65.8310 C   0  0  0  0  0  0  0  0  0  0  0  0
  131.2030  125.5700   65.3040 C   0  0  0  0  0  0  0  0  0  0  0  0
  130.9740  125.4300   63.9380 C   0  0  0  0  0  0  0  0  0  0  0  0
  132.0030  125.0100   63.0890 C   0  0  0  0  0  0  0  0  0  0  0  0
  131.7360  124.8730   61.7080 N   0  0  0  0  0  0  0  0  0  0  0  0
  132.6500  125.1230   60.7040 C   0  0  0  0  0  0  0  0  0  0  0  0
  132.0680  124.8850   59.4770 C   0  0  0  0  0  0  0  0  0  0  0  0
  130.7600  124.4830   59.7300 C   0  0  0  0  0  0  0  0  0  0  0  0
  130.5470  124.4780   61.1080 C   0  0  0  0  0  0  0  0  0  0  0  0
  129.2870  124.1340   61.9050 C   0  0  2  0  0  0  0  0  0  0  0  0
  129.1300  122.6690   62.4040 C   0  0  2  0  0  0  0  0  0  0  0  0
  130.0890  121.6160   61.8210 C   0  0  0  0  0  0  0  0  0  0  0  0
  129.6620  120.3300   61.4520 C   0  0  0  0  0  0  0  0  0  0  0  0
  130.5900  119.4460   60.8980 C   0  0  0  0  0  0  0  0  0  0  0  0
  131.9120  119.8570   60.7240 C   0  0  0  0  0  0  0  0  0  0  0  0
  132.2630  121.1520   61.1120 C   0  0  0  0  0  0  0  0  0  0  0  0
  131.3760  122.0260   61.6520 N   0  0  0  0  0  0  0  0  0  0  0  0
  127.7390  122.2910   62.1850 N   0  0  0  0  0  0  0  0  0  0  0  0
  127.2560  123.2260   61.4820 C   0  0  0  0  0  0  0  0  0  0  0  0
  125.5970  123.5530   60.8810 S   0  0  0  0  0  0  0  0  0  0  0  0
  126.1630  124.9880   59.9150 C   0  0  2  0  0  0  0  0  0  0  0  0
  126.3190  124.6020   58.4340 C   0  0  0  0  0  0  0  0  0  0  0  0
  127.4690  125.4480   60.5730 C   0  0  0  0  0  0  0  0  0  0  0  0
  128.0740  124.2620   61.1380 N   0  0  0  0  0  0  0  0  0  0  0  0
  134.4515  122.3427   63.3120 H   0  0  0  0  0  0  0  0  0  0  0  0
  133.5234  122.6232   61.7999 H   0  0  0  0  0  0  0  0  0  0  0  0
  135.3120  122.7895   61.7999 H   0  0  0  0  0  0  0  0  0  0  0  0
  134.4790  124.6413   65.4157 H   0  0  0  0  0  0  0  0  0  0  0  0
  132.6413  125.3972   66.9103 H   0  0  0  0  0  0  0  0  0  0  0  0
  130.3910  125.9041   65.9666 H   0  0  0  0  0  0  0  0  0  0  0  0
  129.9789  125.6508   63.5244 H   0  0  0  0  0  0  0  0  0  0  0  0
  133.6853  125.4608   60.8594 H   0  0  0  0  0  0  0  0  0  0  0  0
  132.5443  124.9919   58.4912 H   0  0  0  0  0  0  0  0  0  0  0  0
  130.0151  124.2130   58.9669 H   0  0  0  0  0  0  0  0  0  0  0  0
  129.4220  124.8447   62.7337 H   0  0  0  0  0  0  0  0  0  0  0  0
  129.4173  122.6712   63.4658 H   0  0  0  0  0  0  0  0  0  0  0  0
  128.6152  120.0246   61.5968 H   0  0  0  0  0  0  0  0  0  0  0  0
  130.2811  118.4329   60.6009 H   0  0  0  0  0  0  0  0  0  0  0  0
  132.6604  119.1769   60.2913 H   0  0  0  0  0  0  0  0  0  0  0  0
  133.3044  121.4780   60.9738 H   0  0  0  0  0  0  0  0  0  0  0  0
  125.4415  125.8183   59.9181 H   0  0  0  0  0  0  0  0  0  0  0  0
  126.7303  123.5843   58.3617 H   0  0  0  0  0  0  0  0  0  0  0  0
  125.3364  124.6363   57.9407 H   0  0  0  0  0  0  0  0  0  0  0  0
  127.0018  125.3094   57.9407 H   0  0  0  0  0  0  0  0  0  0  0  0
  128.1368  125.8967   59.8229 H   0  0  0  0  0  0  0  0  0  0  0  0
  127.2833  126.2102   61.3441 H   0  0  0  0  0  0  0  0  0  0  0  0
  1  2  1  0
  2  3  1  0
  3  4  2  0
  4  5  1  0
  5  6  2  0
  6  7  1  0
  7  8  2  0
  8  9  1  0
  9 10  1  0
 10 11  2  0
 11 12  1  0
 12 13  2  0
 13 14  1  0
 14 15  1  0
 15 16  1  0
 16 17  2  0
 17 18  1  0
 18 19  2  0
 19 20  1  0
 20 21  2  0
 15 22  1  0
 22 23  2  0
 23 24  1  0
 24 25  1  0
 25 26  1  0
 25 27  1  0
 27 28  1  0
  8  3  1  0
 13  9  1  0
 28 14  1  0
 21 16  1  0
 28 23  1  0
  1 29  1  0
  1 30  1  0
  1 31  1  0
  4 32  1  0
  5 33  1  0
  6 34  1  0
  7 35  1  0
 10 36  1  0
 11 37  1  0
 12 38  1  0
 14 39  1  1
 15 40  1  1
 17 41  1  0
 18 42  1  0
 19 43  1  0
 20 44  1  0
 25 45  1  6
 26 46  1  0
 26 47  1  0
 26 48  1  0
 27 49  1  0
 27 50  1  0
M  END
>  <Binding energies>  (1) 
[-6.44]

>  <Ligand effiencies>  (1) 
[-0.23]

>  <Interactions>  (1) 
["V-A:ILE:369:CD1:3239, V-B:PRO:540:CA:9855, V-A:GLY:454:CA:4049, V-B:TYR:539:CD2:9846, V-A:SER:385:CB:3409, H-B:ALA:541:N:9863, V-B:PRO:540:C:9853, V-B:ALA:541:CB:9864, V-A:TYR:484:CZ:4347, V-A:GLU:543:CD:4908, V-B:TYR:539:CE2:9848, V-A:ARG:545:CD:4923, V-A:LEU:475:CD2:4259, V-A:ARG:545:CZ:4926, V-B:TYR:539:C:9839, H-A:GLY:454:N:4050, V-A:ASP:366:CG:3213, V-A:GLY:453:C:4042"]

$$$$
ZINC261132657
     RDKit          3D

 36 38  0  0  0  0  0  0  0  0999 V2000
  128.0790  127.8080   64.0010 N   0  0  0  0  0  0  0  0  0  0  0  0
  128.7350  127.2340   65.0580 C   0  0  0  0  0  0  0  0  0  0  0  0
  128.3620  127.6500   66.3080 N   0  0  0  0  0  0  0  0  0  0  0  0
  129.1250  126.9360   67.1820 N   0  0  0  0  0  0  0  0  0  0  0  0
  129.0030  127.1260   68.5600 C   0  0  0  0  0  0  0  0  0  0  0  0
  127.8110  126.7810   69.2020 C   0  0  0  0  0  0  0  0  0  0  0  0
  127.6930  126.9690   70.5760 C   0  0  0  0  0  0  0  0  0  0  0  0
  128.7610  127.5000   71.2960 C   0  0  0  0  0  0  0  0  0  0  0  0
  129.9510  127.8460   70.6560 C   0  0  0  0  0  0  0  0  0  0  0  0
  130.0750  127.6590   69.2820 C   0  0  0  0  0  0  0  0  0  0  0  0
  129.9770  126.1100   66.5470 C   0  0  0  0  0  0  0  0  0  0  0  0
  130.8000  125.3660   67.0850 O   0  0  0  0  0  0  0  0  0  0  0  0
  129.7070  126.3010   65.1150 C   0  0  0  0  0  0  0  0  0  0  0  0
  130.3040  125.7020   64.0430 N   0  0  0  0  0  0  0  0  0  0  0  0
  131.2910  126.3130   63.5170 N   0  0  0  0  0  0  0  0  0  0  0  0
  131.9170  125.7100   62.4040 C   0  0  0  0  0  0  0  0  0  0  0  0
  131.5580  126.0320   61.0740 C   0  0  0  0  0  0  0  0  0  0  0  0
  132.1810  125.4510   59.9760 C   0  0  0  0  0  0  0  0  0  0  0  0
  133.1930  124.5260   60.1700 C   0  0  0  0  0  0  0  0  0  0  0  0
  133.5720  124.1840   61.4610 C   0  0  0  0  0  0  0  0  0  0  0  0
  132.9560  124.7530   62.5920 C   0  0  0  0  0  0  0  0  0  0  0  0
  133.4350  124.3100   63.9410 N   0  0  0  0  0  0  0  0  0  0  0  0
  134.0090  125.0930   64.6910 O   0  0  0  0  0  0  0  0  0  0  0  0
  133.2340  123.1450   64.2780 O   0  0  0  0  0  0  0  0  0  0  0  0
  128.5830  128.3380   63.3050 H   0  0  0  0  0  0  0  0  0  0  0  0
  127.0780  127.7310   63.9010 H   0  0  0  0  0  0  0  0  0  0  0  0
  127.4180  127.5750   66.6570 H   0  0  0  0  0  0  0  0  0  0  0  0
  126.9720  126.3639   68.6258 H   0  0  0  0  0  0  0  0  0  0  0  0
  126.7596  126.6992   71.0917 H   0  0  0  0  0  0  0  0  0  0  0  0
  128.6646  127.6481   72.3817 H   0  0  0  0  0  0  0  0  0  0  0  0
  130.7878  128.2648   71.2343 H   0  0  0  0  0  0  0  0  0  0  0  0
  131.0095  127.9286   68.7682 H   0  0  0  0  0  0  0  0  0  0  0  0
  130.7582  126.7676   60.9031 H   0  0  0  0  0  0  0  0  0  0  0  0
  131.8714  125.7249   58.9566 H   0  0  0  0  0  0  0  0  0  0  0  0
  133.6938  124.0648   59.3060 H   0  0  0  0  0  0  0  0  0  0  0  0
  134.3764  123.4476   61.6044 H   0  0  0  0  0  0  0  0  0  0  0  0
  1  2  1  0
  2  3  1  0
  3  4  1  0
  4  5  1  0
  5  6  2  0
  6  7  1  0
  7  8  2  0
  8  9  1  0
  9 10  2  0
  4 11  1  0
 11 12  2  0
 11 13  1  0
 13 14  1  0
 14 15  2  0
 15 16  1  0
 16 17  2  0
 17 18  1  0
 18 19  2  0
 19 20  1  0
 20 21  2  0
 21 22  1  0
 22 23  2  0
 22 24  1  0
 13  2  2  0
 21 16  1  0
 10  5  1  0
  1 25  1  0
  1 26  1  0
  3 27  1  0
  6 28  1  0
  7 29  1  0
  8 30  1  0
  9 31  1  0
 10 32  1  0
 17 33  1  0
 18 34  1  0
 19 35  1  0
 20 36  1  0
M  CHG  2  22   1  24  -1
M  END
>  <Binding energies>  (1) 
[-6.81]

>  <Ligand effiencies>  (1) 
[-0.2522222222222222]

>  <Interactions>  (1) 
["V-A:GLY:454:CA:4049, V-B:GLU:543:C:9874, V-B:HIS:456:CD2:9039, V-B:GLU:543:CB:9878, H-A:ARG:545:NH1:4927, V-B:GLU:543:CG:9879, V-A:ASP:366:CG:3213, H-B:GLU:543:OE1:9881, V-A:GLU:543:CD:4908, V-B:HIS:456:CE1:9041, V-B:GLU:543:CA:9876, H-A:GLY:454:N:4050, V-A:HIS:456:CE1:4070, V-B:GLY:544:C:9884, V-B:GLU:543:CD:9880, V-A:ASP:366:CB:3212, H-A:ARG:545:NH2:4928, V-A:ARG:545:CZ:4926, H-A:GLU:543:OE1:4909, V-A:GLU:543:CB:4906, H-B:GLU:543:OE2:9882, H-A:ARG:545:NE:4924, H-A:TYR:484:OH:4348"]

$$$$
ZINC261181965
     RDKit          3D

 99104  0  0  0  0  0  0  0  0999 V2000
  133.6000  124.7520   64.4870 C   0  0  0  0  0  0  0  0  0  0  0  0
  133.0170  123.9060   63.3770 C   0  0  0  0  0  0  0  0  0  0  0  0
  132.0030  122.9520   63.4620 C   0  0  0  0  0  0  0  0  0  0  0  0
  131.1550  122.4520   64.6130 C   0  0  0  0  0  0  0  0  0  0  0  0
  129.8450  123.1150   64.6720 N   0  0  0  0  0  0  0  0  0  0  0  0
  129.8200  124.3320   65.4990 C   0  0  0  0  0  0  0  0  0  0  0  0
  130.5280  125.5360   64.8130 C   0  0  0  0  0  0  0  0  0  0  0  0
  129.9550  125.8380   63.4880 N   0  0  0  0  0  0  0  0  0  0  0  0
  128.6150  126.4570   63.5790 C   0  0  0  0  0  0  0  0  0  0  0  0
  128.4460  127.6790   62.6450 C   0  0  2  0  0  0  0  0  0  0  0  0
  129.7370  128.1390   62.2930 O   0  0  0  0  0  0  0  0  0  0  0  0
  127.6470  128.8460   63.2860 C   0  0  0  0  0  0  0  0  0  0  0  0
  128.4230  129.7040   64.3230 C   0  0  2  0  0  0  0  0  0  0  0  0
  127.6310  129.8260   65.6550 C   0  0  0  0  0  0  0  0  0  0  0  0
  128.2030  129.0110   66.8140 C   0  0  0  0  0  0  0  0  0  0  0  0
  128.5500  129.6430   68.0120 C   0  0  0  0  0  0  0  0  0  0  0  0
  129.0950  128.9010   69.0580 C   0  0  0  0  0  0  0  0  0  0  0  0
  129.2930  127.5320   68.9010 C   0  0  0  0  0  0  0  0  0  0  0  0
  128.9490  126.8950   67.7110 C   0  0  0  0  0  0  0  0  0  0  0  0
  128.4010  127.6350   66.6660 C   0  0  0  0  0  0  0  0  0  0  0  0
  128.8060  131.0830   63.7400 C   0  0  0  0  0  0  0  0  0  0  0  0
  128.2790  132.1010   64.1870 O   0  0  0  0  0  0  0  0  0  0  0  0
  129.7270  131.0820   62.7570 N   0  0  0  0  0  0  0  0  0  0  0  0
  130.3110  132.2320   62.0410 C   0  0  2  0  0  0  0  0  0  0  0  0
  129.6690  132.4460   60.6800 C   0  0  0  0  0  0  0  0  0  0  0  0
  128.3520  132.7930   60.3690 C   0  0  0  0  0  0  0  0  0  0  0  0
  127.9460  132.8620   59.0350 C   0  0  0  0  0  0  0  0  0  0  0  0
  128.8510  132.5670   58.0140 C   0  0  0  0  0  0  0  0  0  0  0  0
  130.1640  132.2100   58.3210 C   0  0  0  0  0  0  0  0  0  0  0  0
  130.5810  132.1740   59.6540 C   0  0  0  0  0  0  0  0  0  0  0  0
  131.9200  131.7530   60.2240 C   0  0  0  0  0  0  0  0  0  0  0  0
  131.8150  132.1480   61.7000 C   0  0  2  0  0  0  0  0  0  0  0  0
  132.6350  131.4020   62.5810 O   0  0  0  0  0  0  0  0  0  0  0  0
  130.0420  124.6070   62.6620 C   0  0  2  0  0  0  0  0  0  0  0  0
  129.6020  124.8560   61.1920 C   0  0  0  0  0  0  0  0  0  0  0  0
  130.0000  125.8500   60.5800 O   0  0  0  0  0  0  0  0  0  0  0  0
  128.7720  123.9400   60.6470 N   0  0  0  0  0  0  0  0  0  0  0  0
  128.2220  123.8860   59.2840 C   0  0  0  0  0  0  0  0  0  0  0  0
  129.2740  124.5090   58.3400 C   0  0  0  0  0  0  0  0  0  0  0  0
  127.9620  122.4280   58.8350 C   0  0  0  0  0  0  0  0  0  0  0  0
  126.9200  124.7160   59.1760 C   0  0  0  0  0  0  0  0  0  0  0  0
  129.3000  123.4080   63.3370 C   0  0  0  0  0  0  0  0  0  0  0  0
  131.7280  122.3950   62.2470 O   0  0  0  0  0  0  0  0  0  0  0  0
  132.5720  122.9810   61.3560 C   0  0  0  0  0  0  0  0  0  0  0  0
  132.6380  122.7080   59.9840 C   0  0  0  0  0  0  0  0  0  0  0  0
  133.5770  123.4260   59.2420 C   0  0  0  0  0  0  0  0  0  0  0  0
  134.4070  124.3720   59.8470 C   0  0  0  0  0  0  0  0  0  0  0  0
  134.3320  124.6370   61.2170 C   0  0  0  0  0  0  0  0  0  0  0  0
  133.3990  123.9310   61.9950 C   0  0  0  0  0  0  0  0  0  0  0  0
  133.3095  124.3304   65.4606 H   0  0  0  0  0  0  0  0  0  0  0  0
  134.6968  124.7608   64.4039 H   0  0  0  0  0  0  0  0  0  0  0  0
  133.2177  125.7801   64.4039 H   0  0  0  0  0  0  0  0  0  0  0  0
  130.9983  121.3699   64.4925 H   0  0  0  0  0  0  0  0  0  0  0  0
  131.6890  122.6800   65.5473 H   0  0  0  0  0  0  0  0  0  0  0  0
  128.7722  124.6040   65.6941 H   0  0  0  0  0  0  0  0  0  0  0  0
  130.3624  124.1131   66.4306 H   0  0  0  0  0  0  0  0  0  0  0  0
  130.4215  126.4225   65.4554 H   0  0  0  0  0  0  0  0  0  0  0  0
  131.5857  125.2694   64.6707 H   0  0  0  0  0  0  0  0  0  0  0  0
  127.8618  125.7025   63.3081 H   0  0  0  0  0  0  0  0  0  0  0  0
  128.4880  126.8136   64.6118 H   0  0  0  0  0  0  0  0  0  0  0  0
  127.8672  127.3515   61.7688 H   0  0  0  0  0  0  0  0  0  0  0  0
  130.2860  127.3780   62.0900 H   0  0  0  0  0  0  0  0  0  0  0  0
  127.3147  129.5127   62.4767 H   0  0  0  0  0  0  0  0  0  0  0  0
  126.8233  128.3753   63.8426 H   0  0  0  0  0  0  0  0  0  0  0  0
  129.3651  129.1859   64.5555 H   0  0  0  0  0  0  0  0  0  0  0  0
  127.6216  130.8850   65.9524 H   0  0  0  0  0  0  0  0  0  0  0  0
  126.6265  129.4234   65.4576 H   0  0  0  0  0  0  0  0  0  0  0  0
  128.3928  130.7254   68.1287 H   0  0  0  0  0  0  0  0  0  0  0  0
  129.3673  129.3943   70.0027 H   0  0  0  0  0  0  0  0  0  0  0  0
  129.7259  126.9469   69.7258 H   0  0  0  0  0  0  0  0  0  0  0  0
  129.1094  125.8127   67.5971 H   0  0  0  0  0  0  0  0  0  0  0  0
  128.1242  127.1371   65.7250 H   0  0  0  0  0  0  0  0  0  0  0  0
  130.0980  130.1830   62.4820 H   0  0  0  0  0  0  0  0  0  0  0  0
  130.1309  133.0345   62.7714 H   0  0  0  0  0  0  0  0  0  0  0  0
  127.6355  133.0117   61.1745 H   0  0  0  0  0  0  0  0  0  0  0  0
  126.9130  133.1488   58.7885 H   0  0  0  0  0  0  0  0  0  0  0  0
  128.5276  132.6162   56.9638 H   0  0  0  0  0  0  0  0  0  0  0  0
  130.8694  131.9574   57.5156 H   0  0  0  0  0  0  0  0  0  0  0  0
  132.0708  130.6687   60.1161 H   0  0  0  0  0  0  0  0  0  0  0  0
  132.7726  132.2234   59.7123 H   0  0  0  0  0  0  0  0  0  0  0  0
  132.2585  133.1411   61.8642 H   0  0  0  0  0  0  0  0  0  0  0  0
  132.0930  130.7380   63.0130 H   0  0  0  0  0  0  0  0  0  0  0  0
  131.1021  124.3185   62.6070 H   0  0  0  0  0  0  0  0  0  0  0  0
  128.5040  123.1680   61.2400 H   0  0  0  0  0  0  0  0  0  0  0  0
  130.0691  124.9798   58.9368 H   0  0  0  0  0  0  0  0  0  0  0  0
  129.7087  123.7226   57.7055 H   0  0  0  0  0  0  0  0  0  0  0  0
  128.7934  125.2682   57.7055 H   0  0  0  0  0  0  0  0  0  0  0  0
  127.8476  121.7863   59.7211 H   0  0  0  0  0  0  0  0  0  0  0  0
  127.0426  122.3883   58.2324 H   0  0  0  0  0  0  0  0  0  0  0  0
  128.8110  122.0730   58.2324 H   0  0  0  0  0  0  0  0  0  0  0  0
  126.5506  124.9515   60.1850 H   0  0  0  0  0  0  0  0  0  0  0  0
  127.1249  125.6505   58.6331 H   0  0  0  0  0  0  0  0  0  0  0  0
  126.1593  124.1358   58.6331 H   0  0  0  0  0  0  0  0  0  0  0  0
  128.2331  123.6577   63.4341 H   0  0  0  0  0  0  0  0  0  0  0  0
  129.4398  122.5180   62.7058 H   0  0  0  0  0  0  0  0  0  0  0  0
  131.9804  121.9624   59.5131 H   0  0  0  0  0  0  0  0  0  0  0  0
  133.6649  123.2433   58.1608 H   0  0  0  0  0  0  0  0  0  0  0  0
  135.1356  124.9205   59.2319 H   0  0  0  0  0  0  0  0  0  0  0  0
  134.9924  125.3858   61.6787 H   0  0  0  0  0  0  0  0  0  0  0  0
  1  2  1  0
  2  3  2  0
  3  4  1  0
  4  5  1  0
  5  6  1  0
  6  7  1  0
  7  8  1  0
  8  9  1  0
  9 10  1  0
 10 11  1  0
 10 12  1  0
 12 13  1  0
 13 14  1  0
 14 15  1  0
 15 16  2  0
 16 17  1  0
 17 18  2  0
 18 19  1  0
 19 20  2  0
 13 21  1  0
 21 22  2  0
 21 23  1  0
 23 24  1  0
 24 25  1  0
 25 26  2  0
 26 27  1  0
 27 28  2  0
 28 29  1  0
 29 30  2  0
 30 31  1  0
 31 32  1  0
 32 33  1  0
  8 34  1  0
 34 35  1  0
 35 36  2  0
 35 37  1  0
 37 38  1  0
 38 39  1  0
 38 40  1  0
 38 41  1  0
 34 42  1  0
  3 43  1  0
 43 44  1  0
 44 45  2  0
 45 46  1  0
 46 47  2  0
 47 48  1  0
 48 49  2  0
 49  2  1  0
 42  5  1  0
 49 44  1  0
 20 15  1  0
 32 24  1  0
 30 25  1  0
  1 50  1  0
  1 51  1  0
  1 52  1  0
  4 53  1  0
  4 54  1  0
  6 55  1  0
  6 56  1  0
  7 57  1  0
  7 58  1  0
  9 59  1  0
  9 60  1  0
 10 61  1  6
 11 62  1  0
 12 63  1  0
 12 64  1  0
 13 65  1  1
 14 66  1  0
 14 67  1  0
 16 68  1  0
 17 69  1  0
 18 70  1  0
 19 71  1  0
 20 72  1  0
 23 73  1  0
 24 74  1  1
 26 75  1  0
 27 76  1  0
 28 77  1  0
 29 78  1  0
 31 79  1  0
 31 80  1  0
 32 81  1  6
 33 82  1  0
 34 83  1  6
 37 84  1  0
 39 85  1  0
 39 86  1  0
 39 87  1  0
 40 88  1  0
 40 89  1  0
 40 90  1  0
 41 91  1  0
 41 92  1  0
 41 93  1  0
 42 94  1  0
 42 95  1  0
 45 96  1  0
 46 97  1  0
 47 98  1  0
 48 99  1  0
M  END
>  <Binding energies>  (1) 
[-8.9]

>  <Ligand effiencies>  (1) 
[-0.1679245283018868]

>  <Interactions>  (1) 
["V-A:ILE:369:CG2:3237, V-A:ASP:366:CA:3210, V-B:PRO:540:CA:9855, V-A:GLU:543:CA:4904, V-A:GLY:454:CA:4049, V-A:ILE:369:CB:3236, V-A:GLU:543:C:4902, V-B:GLU:543:CB:9878, V-A:PRO:540:C:4881, H-A:ALA:541:O:4889, V-B:TYR:539:CE2:9848, V-A:TYR:484:CE2:4346, V-B:GLU:543:CG:9879, V-B:TYR:539:C:9839, V-A:ASP:366:CG:3213, V-A:TYR:539:CD1:4873, V-B:TYR:484:CE2:9317, V-B:TYR:539:CZ:9849, V-A:ALA:541:CB:4892, V-A:GLU:543:CD:4908, V-A:TYR:484:CZ:4347, H-B:TYR:484:OH:9319, V-B:HIS:456:CE1:9041, V-B:PRO:540:N:9856, V-A:ILE:369:CD1:3239, V-B:TYR:484:CZ:9318, V-A:HIS:456:CE1:4070, V-B:TYR:539:CD2:9846, V-A:GLU:543:CG:4907, V-B:GLU:543:CD:9880, V-A:ASP:366:CB:3212, V-A:LEU:475:CD2:4259, V-A:ARG:545:CZ:4926, H-A:GLU:543:OE1:4909, V-B:TYR:539:CG:9844, V-A:GLU:543:CB:4906, V-A:PRO:540:N:4884, V-A:PRO:540:CB:4885, V-A:PRO:540:CA:4883, H-A:ASP:366:OD2:3215, V-A:TYR:539:CE1:4875"]

$$$$
ZINC261181965-again1
     RDKit          3D

100105  0  0  0  0  0  0  0  0999 V2000
  126.5570  126.7160   69.4260 C   0  0  0  0  0  0  0  0  0  0  0  0
  127.9730  127.1870   69.6710 C   0  0  0  0  0  0  0  0  0  0  0  0
  128.8360  127.8300   68.7840 C   0  0  0  0  0  0  0  0  0  0  0  0
  128.6950  128.2610   67.3400 C   0  0  0  0  0  0  0  0  0  0  0  0
  128.7270  127.0320   66.3990 N   0  0  2  0  0  0  0  0  0  0  0  0
  129.7320  125.9930   66.9410 C   0  0  0  0  0  0  0  0  0  0  0  0
  129.7650  124.7850   65.9760 C   0  0  0  0  0  0  0  0  0  0  0  0
  130.2280  125.1680   64.6330 N   0  0  0  0  0  0  0  0  0  0  0  0
  131.6370  125.6210   64.5650 C   0  0  0  0  0  0  0  0  0  0  0  0
  132.7480  124.5690   64.8240 C   0  0  2  0  0  0  0  0  0  0  0  0
  134.0380  125.0880   64.5740 O   0  0  0  0  0  0  0  0  0  0  0  0
  132.5520  123.2790   63.9780 C   0  0  0  0  0  0  0  0  0  0  0  0
  132.8710  123.3440   62.4490 C   0  0  2  0  0  0  0  0  0  0  0  0
  133.2730  124.7710   61.9830 C   0  0  0  0  0  0  0  0  0  0  0  0
  133.0940  125.0010   60.4860 C   0  0  0  0  0  0  0  0  0  0  0  0
  132.1530  125.9270   60.0260 C   0  0  0  0  0  0  0  0  0  0  0  0
  132.0050  126.1480   58.6590 C   0  0  0  0  0  0  0  0  0  0  0  0
  132.7970  125.4420   57.7570 C   0  0  0  0  0  0  0  0  0  0  0  0
  133.7340  124.5140   58.2070 C   0  0  0  0  0  0  0  0  0  0  0  0
  133.8810  124.2920   59.5740 C   0  0  0  0  0  0  0  0  0  0  0  0
  131.7400  122.7850   61.5570 C   0  0  0  0  0  0  0  0  0  0  0  0
  132.0070  122.1070   60.5660 O   0  0  0  0  0  0  0  0  0  0  0  0
  130.4830  123.0790   61.9370 N   0  0  0  0  0  0  0  0  0  0  0  0
  129.2390  122.6420   61.2860 C   0  0  2  0  0  0  0  0  0  0  0  0
  128.8090  123.4550   60.0740 C   0  0  0  0  0  0  0  0  0  0  0  0
  129.5560  123.9700   59.0110 C   0  0  0  0  0  0  0  0  0  0  0  0
  128.9160  124.6370   57.9660 C   0  0  0  0  0  0  0  0  0  0  0  0
  127.5270  124.7630   57.9630 C   0  0  0  0  0  0  0  0  0  0  0  0
  126.7740  124.2280   59.0100 C   0  0  0  0  0  0  0  0  0  0  0  0
  127.4190  123.6050   60.0810 C   0  0  0  0  0  0  0  0  0  0  0  0
  126.8220  122.9120   61.2850 C   0  0  0  0  0  0  0  0  0  0  0  0
  128.0150  122.7080   62.2300 C   0  0  2  0  0  0  0  0  0  0  0  0
  128.0650  123.7840   63.1580 O   0  0  0  0  0  0  0  0  0  0  0  0
  129.2470  126.1340   64.0660 C   0  0  2  0  0  0  0  0  0  0  0  0
  129.5500  126.4640   62.5760 C   0  0  0  0  0  0  0  0  0  0  0  0
  129.9230  125.5780   61.8050 O   0  0  0  0  0  0  0  0  0  0  0  0
  129.3760  127.7470   62.1900 N   0  0  0  0  0  0  0  0  0  0  0  0
  129.5170  128.3310   60.8470 C   0  0  0  0  0  0  0  0  0  0  0  0
  128.6030  129.5740   60.7870 C   0  0  0  0  0  0  0  0  0  0  0  0
  130.9730  128.7820   60.5700 C   0  0  0  0  0  0  0  0  0  0  0  0
  129.0520  127.3340   59.7560 C   0  0  0  0  0  0  0  0  0  0  0  0
  129.0800  127.4190   64.9380 C   0  0  0  0  0  0  0  0  0  0  0  0
  130.0460  128.1000   69.3540 O   0  0  0  0  0  0  0  0  0  0  0  0
  129.9770  127.6410   70.6330 C   0  0  0  0  0  0  0  0  0  0  0  0
  130.9970  127.7150   71.5880 C   0  0  0  0  0  0  0  0  0  0  0  0
  130.7220  127.1820   72.8470 C   0  0  0  0  0  0  0  0  0  0  0  0
  129.4850  126.6020   73.1340 C   0  0  0  0  0  0  0  0  0  0  0  0
  128.4730  126.5320   72.1720 C   0  0  0  0  0  0  0  0  0  0  0  0
  128.7160  127.0610   70.8920 C   0  0  0  0  0  0  0  0  0  0  0  0
  126.0542  126.5488   70.3900 H   0  0  0  0  0  0  0  0  0  0  0  0
  126.0099  127.4806   68.8549 H   0  0  0  0  0  0  0  0  0  0  0  0
  126.5769  125.7761   68.8549 H   0  0  0  0  0  0  0  0  0  0  0  0
  127.7387  128.7894   67.2122 H   0  0  0  0  0  0  0  0  0  0  0  0
  129.5338  128.9252   67.0846 H   0  0  0  0  0  0  0  0  0  0  0  0
  127.8150  126.5970   66.3920 H   0  0  0  0  0  0  0  0  0  0  0  0
  130.7333  126.4442   67.0037 H   0  0  0  0  0  0  0  0  0  0  0  0
  129.4253  125.6629   67.9445 H   0  0  0  0  0  0  0  0  0  0  0  0
  130.4461  124.0232   66.3831 H   0  0  0  0  0  0  0  0  0  0  0  0
  128.7411  124.3935   65.8848 H   0  0  0  0  0  0  0  0  0  0  0  0
  131.8017  126.0310   63.5576 H   0  0  0  0  0  0  0  0  0  0  0  0
  131.7374  126.3396   65.3918 H   0  0  0  0  0  0  0  0  0  0  0  0
  132.6626  124.3101   65.8897 H   0  0  0  0  0  0  0  0  0  0  0  0
  134.3790  125.4640   65.3890 H   0  0  0  0  0  0  0  0  0  0  0  0
  133.1976  122.5020   64.4133 H   0  0  0  0  0  0  0  0  0  0  0  0
  131.4703  123.0846   64.0232 H   0  0  0  0  0  0  0  0  0  0  0  0
  133.7406  122.6830   62.3195 H   0  0  0  0  0  0  0  0  0  0  0  0
  132.6515  125.5005   62.5230 H   0  0  0  0  0  0  0  0  0  0  0  0
  134.3448  124.8898   62.2003 H   0  0  0  0  0  0  0  0  0  0  0  0
  131.5298  126.4808   60.7435 H   0  0  0  0  0  0  0  0  0  0  0  0
  131.2663  126.8765   58.2936 H   0  0  0  0  0  0  0  0  0  0  0  0
  132.6816  125.6188   56.6775 H   0  0  0  0  0  0  0  0  0  0  0  0
  134.3539  123.9600   57.4867 H   0  0  0  0  0  0  0  0  0  0  0  0
  134.6166  123.5586   59.9361 H   0  0  0  0  0  0  0  0  0  0  0  0
  130.3620  123.6740   62.7440 H   0  0  0  0  0  0  0  0  0  0  0  0
  129.5058  121.6179   60.9858 H   0  0  0  0  0  0  0  0  0  0  0  0
  130.6493  123.8494   58.9982 H   0  0  0  0  0  0  0  0  0  0  0  0
  129.5079  125.0642   57.1431 H   0  0  0  0  0  0  0  0  0  0  0  0
  127.0243  125.2843   57.1350 H   0  0  0  0  0  0  0  0  0  0  0  0
  125.6763  124.2969   58.9915 H   0  0  0  0  0  0  0  0  0  0  0  0
  126.0535  123.5419   61.7568 H   0  0  0  0  0  0  0  0  0  0  0  0
  126.3240  121.9666   61.0239 H   0  0  0  0  0  0  0  0  0  0  0  0
  127.9619  121.7979   62.8456 H   0  0  0  0  0  0  0  0  0  0  0  0
  128.9490  124.1580   63.1430 H   0  0  0  0  0  0  0  0  0  0  0  0
  128.2701  125.6289   64.0903 H   0  0  0  0  0  0  0  0  0  0  0  0
  129.0760  128.3960   62.9030 H   0  0  0  0  0  0  0  0  0  0  0  0
  128.3621  129.9016   61.8091 H   0  0  0  0  0  0  0  0  0  0  0  0
  129.1215  130.3850   60.2546 H   0  0  0  0  0  0  0  0  0  0  0  0
  127.6743  129.3209   60.2546 H   0  0  0  0  0  0  0  0  0  0  0  0
  131.4947  128.9436   61.5248 H   0  0  0  0  0  0  0  0  0  0  0  0
  131.4948  128.0034   59.9943 H   0  0  0  0  0  0  0  0  0  0  0  0
  130.9633  129.7192   59.9943 H   0  0  0  0  0  0  0  0  0  0  0  0
  128.6333  126.4362   60.2342 H   0  0  0  0  0  0  0  0  0  0  0  0
  128.2823  127.8086   59.1296 H   0  0  0  0  0  0  0  0  0  0  0  0
  129.9103  127.0493   59.1296 H   0  0  0  0  0  0  0  0  0  0  0  0
  130.0210  127.9885   64.9301 H   0  0  0  0  0  0  0  0  0  0  0  0
  128.2669  128.0322   64.5223 H   0  0  0  0  0  0  0  0  0  0  0  0
  131.9703  128.1722   71.3565 H   0  0  0  0  0  0  0  0  0  0  0  0
  131.4947  127.2193   73.6290 H   0  0  0  0  0  0  0  0  0  0  0  0
  129.3028  126.1915   74.1381 H   0  0  0  0  0  0  0  0  0  0  0  0
  127.5035  126.0711   72.4122 H   0  0  0  0  0  0  0  0  0  0  0  0
  1  2  1  0
  2  3  2  0
  3  4  1  0
  4  5  1  0
  5  6  1  0
  6  7  1  0
  7  8  1  0
  8  9  1  0
  9 10  1  0
 10 11  1  0
 10 12  1  0
 12 13  1  0
 13 14  1  0
 14 15  1  0
 15 16  2  0
 16 17  1  0
 17 18  2  0
 18 19  1  0
 19 20  2  0
 13 21  1  0
 21 22  2  0
 21 23  1  0
 23 24  1  0
 24 25  1  0
 25 26  2  0
 26 27  1  0
 27 28  2  0
 28 29  1  0
 29 30  2  0
 30 31  1  0
 31 32  1  0
 32 33  1  0
  8 34  1  0
 34 35  1  0
 35 36  2  0
 35 37  1  0
 37 38  1  0
 38 39  1  0
 38 40  1  0
 38 41  1  0
 34 42  1  0
  3 43  1  0
 43 44  1  0
 44 45  2  0
 45 46  1  0
 46 47  2  0
 47 48  1  0
 48 49  2  0
 49  2  1  0
 42  5  1  0
 49 44  1  0
 20 15  1  0
 32 24  1  0
 30 25  1  0
  1 50  1  0
  1 51  1  0
  1 52  1  0
  4 53  1  0
  4 54  1  0
  5 55  1  6
  6 56  1  0
  6 57  1  0
  7 58  1  0
  7 59  1  0
  9 60  1  0
  9 61  1  0
 10 62  1  1
 11 63  1  0
 12 64  1  0
 12 65  1  0
 13 66  1  1
 14 67  1  0
 14 68  1  0
 16 69  1  0
 17 70  1  0
 18 71  1  0
 19 72  1  0
 20 73  1  0
 23 74  1  0
 24 75  1  6
 26 76  1  0
 27 77  1  0
 28 78  1  0
 29 79  1  0
 31 80  1  0
 31 81  1  0
 32 82  1  1
 33 83  1  0
 34 84  1  6
 37 85  1  0
 39 86  1  0
 39 87  1  0
 39 88  1  0
 40 89  1  0
 40 90  1  0
 40 91  1  0
 41 92  1  0
 41 93  1  0
 41 94  1  0
 42 95  1  0
 42 96  1  0
 45 97  1  0
 46 98  1  0
 47 99  1  0
 48100  1  0
M  CHG  1   5   1
M  END
>  <Binding energies>  (1) 
[-9.7]

>  <Ligand effiencies>  (1) 
[-0.1796296296296296]

>  <Interactions>  (1) 
["V-A:ILE:369:CG2:3237, V-A:ASP:366:CA:3210, V-B:PRO:540:CA:9855, V-A:GLY:454:CA:4049, V-B:GLU:543:C:9874, V-A:ILE:369:CB:3236, V-B:GLU:543:CB:9878, V-B:ALA:541:CB:9864, H-A:ARG:545:NH1:4927, V-A:TYR:484:CE2:4346, V-B:TYR:539:CE2:9848, V-B:GLU:543:CG:9879, V-A:GLY:544:C:4912, V-A:HIS:456:CD2:4068, V-A:ASP:366:CG:3213, V-B:TYR:539:CZ:9849, H-B:GLU:543:OE1:9881, V-B:ARG:545:CG:9894, V-A:GLU:543:CD:4908, V-B:PRO:540:CB:9857, V-B:HIS:456:CE1:9041, H-A:GLY:454:N:4050, V-B:GLU:543:CA:9876, V-A:HIS:456:CE1:4070, V-A:ILE:369:CD1:3239, V-B:GLY:544:C:9884, V-A:ASP:366:C:3208, V-B:GLY:544:CA:9886, V-A:GLU:543:CG:4907, V-B:TYR:539:CD2:9846, V-B:GLU:543:CD:9880, V-A:ASP:366:CB:3212, V-A:LEU:475:CD2:4259, H-A:ARG:545:NH2:4928, V-A:ARG:545:CZ:4926, H-A:GLU:543:OE1:4909, V-A:GLU:543:CB:4906, H-B:GLU:543:OE2:9882, H-A:ARG:545:NE:4924, V-B:PRO:540:C:9853, V-B:ALA:541:CA:9862, H-A:TYR:484:OH:4348"]

$$$$
ZINC261507780
     RDKit          3D

 52 53  0  0  0  0  0  0  0  0999 V2000
  133.0030  124.3220   61.2770 C   0  0  0  0  0  0  0  0  0  0  0  0
  132.9810  122.8890   61.8620 C   0  0  0  0  0  0  0  0  0  0  0  0
  134.2610  122.1100   61.4750 C   0  0  0  0  0  0  0  0  0  0  0  0
  131.7440  122.1390   61.3230 C   0  0  0  0  0  0  0  0  0  0  0  0
  132.7910  122.9060   63.2890 O   0  0  0  0  0  0  0  0  0  0  0  0
  132.6700  124.0280   64.0620 C   0  0  0  0  0  0  0  0  0  0  0  0
  133.6190  124.7190   64.4390 O   0  0  0  0  0  0  0  0  0  0  0  0
  131.3270  124.2930   64.3600 N   0  0  0  0  0  0  0  0  0  0  0  0
  130.7410  125.6370   64.3450 C   0  0  2  0  0  0  0  0  0  0  0  0
  130.2500  125.4990   65.8440 C   0  0  0  0  0  0  0  0  0  0  0  0
  129.9940  124.0060   66.1570 C   0  0  0  0  0  0  0  0  0  0  0  0
  130.3220  123.3340   64.8270 C   0  0  1  0  0  0  0  0  0  0  0  0
  129.1030  123.3620   63.8410 C   0  0  0  0  0  0  0  0  0  0  0  0
  129.3630  124.1850   62.5510 C   0  0  1  0  0  0  0  0  0  0  0  0
  128.1630  124.4580   61.8400 O   0  0  0  0  0  0  0  0  0  0  0  0
  127.2760  123.1670   61.2550 S   0  0  0  0  0  0  0  0  0  0  0  0
  128.1760  122.0130   61.1360 O   0  0  0  0  0  0  0  0  0  0  0  0
  126.0350  123.0700   62.0310 O   0  0  0  0  0  0  0  0  0  0  0  0
  126.8960  123.8630   59.5280 C   0  0  0  0  0  0  0  0  0  0  0  0
  125.7480  123.2980   59.1480 F   0  0  0  0  0  0  0  0  0  0  0  0
  126.6690  125.1670   59.6980 F   0  0  0  0  0  0  0  0  0  0  0  0
  128.0690  123.5730   58.5550 C   0  0  0  0  0  0  0  0  0  0  0  0
  129.1590  123.2750   59.2640 F   0  0  0  0  0  0  0  0  0  0  0  0
  127.7830  122.4830   57.8380 F   0  0  0  0  0  0  0  0  0  0  0  0
  128.3740  124.7630   57.5960 C   0  0  0  0  0  0  0  0  0  0  0  0
  128.7740  124.2970   56.4090 F   0  0  0  0  0  0  0  0  0  0  0  0
  127.2570  125.4560   57.3620 F   0  0  0  0  0  0  0  0  0  0  0  0
  129.4560  125.7350   58.1350 C   0  0  0  0  0  0  0  0  0  0  0  0
  130.6520  125.1480   58.1870 F   0  0  0  0  0  0  0  0  0  0  0  0
  129.5800  126.8190   57.3680 F   0  0  0  0  0  0  0  0  0  0  0  0
  129.1730  126.1630   59.3660 F   0  0  0  0  0  0  0  0  0  0  0  0
  130.1230  125.5220   62.8820 C   0  0  0  0  0  0  0  0  0  0  0  0
  133.0142  125.0533   62.0986 H   0  0  0  0  0  0  0  0  0  0  0  0
  133.9032  124.4517   60.6583 H   0  0  0  0  0  0  0  0  0  0  0  0
  132.1072  124.4793   60.6583 H   0  0  0  0  0  0  0  0  0  0  0  0
  134.7858  121.7906   62.3875 H   0  0  0  0  0  0  0  0  0  0  0  0
  133.9866  121.2256   60.8812 H   0  0  0  0  0  0  0  0  0  0  0  0
  134.9204  122.7601   60.8812 H   0  0  0  0  0  0  0  0  0  0  0  0
  131.1406  121.7731   62.1668 H   0  0  0  0  0  0  0  0  0  0  0  0
  131.1394  122.8227   60.7091 H   0  0  0  0  0  0  0  0  0  0  0  0
  132.0707  121.2867   60.7091 H   0  0  0  0  0  0  0  0  0  0  0  0
  131.0349  126.6963   64.3074 H   0  0  0  0  0  0  0  0  0  0  0  0
  131.0225  125.8904   66.5222 H   0  0  0  0  0  0  0  0  0  0  0  0
  129.3213  126.0717   65.9841 H   0  0  0  0  0  0  0  0  0  0  0  0
  130.6567  123.6477   66.9585 H   0  0  0  0  0  0  0  0  0  0  0  0
  128.9746  123.7996   66.5152 H   0  0  0  0  0  0  0  0  0  0  0  0
  130.6136  122.2758   64.8991 H   0  0  0  0  0  0  0  0  0  0  0  0
  128.8668  122.3275   63.5513 H   0  0  0  0  0  0  0  0  0  0  0  0
  128.2716  123.8494   64.3713 H   0  0  0  0  0  0  0  0  0  0  0  0
  129.9997  123.5688   61.8992 H   0  0  0  0  0  0  0  0  0  0  0  0
  130.9468  125.6269   62.1607 H   0  0  0  0  0  0  0  0  0  0  0  0
  129.3630  126.3149   62.8208 H   0  0  0  0  0  0  0  0  0  0  0  0
  1  2  1  0
  2  3  1  0
  2  4  1  0
  2  5  1  0
  5  6  1  0
  6  7  2  0
  6  8  1  0
  8  9  1  0
  9 10  1  0
 10 11  1  0
 11 12  1  0
 12 13  1  0
 13 14  1  0
 14 15  1  0
 15 16  1  0
 16 17  2  0
 16 18  2  0
 16 19  1  0
 19 20  1  0
 19 21  1  0
 19 22  1  0
 22 23  1  0
 22 24  1  0
 22 25  1  0
 25 26  1  0
 25 27  1  0
 25 28  1  0
 28 29  1  0
 28 30  1  0
 28 31  1  0
 14 32  1  0
 12  8  1  0
 32  9  1  0
  1 33  1  0
  1 34  1  0
  1 35  1  0
  3 36  1  0
  3 37  1  0
  3 38  1  0
  4 39  1  0
  4 40  1  0
  4 41  1  0
  9 42  1  1
 10 43  1  0
 10 44  1  0
 11 45  1  0
 11 46  1  0
 12 47  1  1
 13 48  1  0
 13 49  1  0
 14 50  1  6
 32 51  1  0
 32 52  1  0
M  END
>  <Binding energies>  (1) 
[-5.3]

>  <Ligand effiencies>  (1) 
[-0.165625]

>  <Interactions>  (1) 
["V-A:ILE:369:CG2:3237, V-B:PRO:540:CA:9855, V-B:GLU:543:CB:9878, V-B:ALA:541:CB:9864, V-B:TYR:539:CE2:9848, V-A:TYR:484:CE2:4346, V-B:GLU:543:CG:9879, V-B:TYR:539:C:9839, V-B:TYR:539:CZ:9849, H-B:ALA:541:N:9863, V-A:TYR:484:CZ:4347, V-A:GLU:543:CD:4908, V-B:PRO:540:CB:9857, V-B:GLU:543:CA:9876, H-A:GLY:454:N:4050, V-B:PRO:540:N:9856, V-A:ILE:369:CD1:3239, V-B:TYR:539:CD2:9846, V-B:GLU:543:CD:9880, V-A:LEU:475:CD2:4259, H-A:ARG:545:NH2:4928, V-B:TYR:539:CG:9844, V-B:TYR:539:CD1:9845, H-A:ARG:545:NE:4924, V-B:PRO:540:C:9853, V-B:TYR:539:CE1:9847, H-A:TYR:484:OH:4348"]

$$$$
ZINC263585276
     RDKit          3D

 68 72  0  0  0  0  0  0  0  0999 V2000
  127.6060  127.2550   62.2640 C   0  0  0  0  0  0  0  0  0  0  0  0
  126.6180  126.8660   61.3150 O   0  0  0  0  0  0  0  0  0  0  0  0
  126.8820  125.8300   60.4350 C   0  0  0  0  0  0  0  0  0  0  0  0
  127.2880  124.5500   60.8440 C   0  0  0  0  0  0  0  0  0  0  0  0
  127.5350  123.5270   59.9150 C   0  0  0  0  0  0  0  0  0  0  0  0
  127.9430  122.2520   60.2660 O   0  0  0  0  0  0  0  0  0  0  0  0
  129.3220  121.9960   60.5130 C   0  0  0  0  0  0  0  0  0  0  0  0
  127.3730  123.7880   58.5480 C   0  0  0  0  0  0  0  0  0  0  0  0
  127.6400  122.7500   57.6720 O   0  0  0  0  0  0  0  0  0  0  0  0
  126.9730  122.7020   56.4160 C   0  0  0  0  0  0  0  0  0  0  0  0
  126.9570  125.0630   58.1400 C   0  0  0  0  0  0  0  0  0  0  0  0
  126.7160  126.0820   59.0660 C   0  0  0  0  0  0  0  0  0  0  0  0
  126.2900  127.4200   58.6030 C   0  0  0  0  0  0  0  0  0  0  0  0
  126.8690  128.5930   58.9330 C   0  0  0  0  0  0  0  0  0  0  0  0
  127.9800  128.6930   59.7050 O   0  0  0  0  0  0  0  0  0  0  0  0
  128.3140  130.0120   59.8050 C   0  0  0  0  0  0  0  0  0  0  0  0
  127.4160  130.8130   59.1340 C   0  0  0  0  0  0  0  0  0  0  0  0
  127.5650  132.1980   59.1350 C   0  0  0  0  0  0  0  0  0  0  0  0
  128.6330  132.7590   59.8380 C   0  0  0  0  0  0  0  0  0  0  0  0
  129.5520  131.9360   60.5020 C   0  0  0  0  0  0  0  0  0  0  0  0
  129.4250  130.5300   60.4850 C   0  0  0  0  0  0  0  0  0  0  0  0
  130.4920  129.7120   61.2240 C   0  0  1  0  0  0  0  0  0  0  0  0
  130.6810  128.2590   60.7530 C   0  0  0  0  0  0  0  0  0  0  0  0
  130.7150  127.2410   61.7100 C   0  0  0  0  0  0  0  0  0  0  0  0
  130.8850  125.9130   61.3330 C   0  0  0  0  0  0  0  0  0  0  0  0
  131.0100  125.5630   59.9820 C   0  0  0  0  0  0  0  0  0  0  0  0
  131.1690  124.2650   59.5310 O   0  0  0  0  0  0  0  0  0  0  0  0
  132.2740  123.4970   59.9960 C   0  0  0  0  0  0  0  0  0  0  0  0
  130.9700  126.5790   59.0160 C   0  0  0  0  0  0  0  0  0  0  0  0
  131.0830  126.2520   57.6860 O   0  0  0  0  0  0  0  0  0  0  0  0
  129.8410  125.9710   57.0550 C   0  0  0  0  0  0  0  0  0  0  0  0
  130.8410  127.9260   59.3960 C   0  0  0  0  0  0  0  0  0  0  0  0
  130.8160  128.9230   58.4460 O   0  0  0  0  0  0  0  0  0  0  0  0
  132.0770  129.5000   58.1240 C   0  0  0  0  0  0  0  0  0  0  0  0
  131.8340  130.4820   61.2000 C   0  0  0  0  0  0  0  0  0  0  0  0
  131.6730  131.9470   61.6430 C   0  0  0  0  0  0  0  0  0  0  0  0
  132.4370  132.5830   62.3670 O   0  0  0  0  0  0  0  0  0  0  0  0
  130.5350  132.5880   61.2260 O   0  0  0  0  0  0  0  0  0  0  0  0
  126.4350  129.9250   58.5170 C   0  0  0  0  0  0  0  0  0  0  0  0
  125.4610  130.1880   57.8120 O   0  0  0  0  0  0  0  0  0  0  0  0
  127.2173  127.1020   63.2816 H   0  0  0  0  0  0  0  0  0  0  0  0
  128.5109  126.6460   62.1217 H   0  0  0  0  0  0  0  0  0  0  0  0
  127.8529  128.3175   62.1217 H   0  0  0  0  0  0  0  0  0  0  0  0
  127.4155  124.3439   61.9170 H   0  0  0  0  0  0  0  0  0  0  0  0
  129.5002  121.9629   61.5980 H   0  0  0  0  0  0  0  0  0  0  0  0
  129.6015  121.0306   60.0659 H   0  0  0  0  0  0  0  0  0  0  0  0
  129.9294  122.7967   60.0659 H   0  0  0  0  0  0  0  0  0  0  0  0
  125.8881  122.6239   56.5797 H   0  0  0  0  0  0  0  0  0  0  0  0
  127.1932  123.6183   55.8486 H   0  0  0  0  0  0  0  0  0  0  0  0
  127.3221  121.8267   55.8486 H   0  0  0  0  0  0  0  0  0  0  0  0
  126.8172  125.2660   57.0680 H   0  0  0  0  0  0  0  0  0  0  0  0
  125.4223  127.4629   57.9283 H   0  0  0  0  0  0  0  0  0  0  0  0
  126.8542  132.8381   58.5918 H   0  0  0  0  0  0  0  0  0  0  0  0
  128.7534  133.8519   59.8706 H   0  0  0  0  0  0  0  0  0  0  0  0
  130.1152  129.6011   62.2515 H   0  0  0  0  0  0  0  0  0  0  0  0
  130.6059  127.4933   62.7751 H   0  0  0  0  0  0  0  0  0  0  0  0
  130.9217  125.1291   62.1038 H   0  0  0  0  0  0  0  0  0  0  0  0
  132.2804  123.4925   61.0960 H   0  0  0  0  0  0  0  0  0  0  0  0
  132.1851  122.4650   59.6256 H   0  0  0  0  0  0  0  0  0  0  0  0
  133.2102  123.9401   59.6256 H   0  0  0  0  0  0  0  0  0  0  0  0
  129.0714  125.7969   57.8215 H   0  0  0  0  0  0  0  0  0  0  0  0
  129.5469  126.8253   56.4276 H   0  0  0  0  0  0  0  0  0  0  0  0
  129.9433  125.0733   56.4276 H   0  0  0  0  0  0  0  0  0  0  0  0
  132.6151  129.7462   59.0513 H   0  0  0  0  0  0  0  0  0  0  0  0
  132.6688  128.7831   57.5360 H   0  0  0  0  0  0  0  0  0  0  0  0
  131.9214  130.4165   57.5360 H   0  0  0  0  0  0  0  0  0  0  0  0
  132.5409  129.9825   61.8788 H   0  0  0  0  0  0  0  0  0  0  0  0
  132.2044  130.4817   60.1643 H   0  0  0  0  0  0  0  0  0  0  0  0
  1  2  1  0
  2  3  1  0
  3  4  2  0
  4  5  1  0
  5  6  1  0
  6  7  1  0
  5  8  2  0
  8  9  1  0
  9 10  1  0
  8 11  1  0
 11 12  2  0
 12 13  1  0
 13 14  2  0
 14 15  1  0
 15 16  1  0
 16 17  2  0
 17 18  1  0
 18 19  2  0
 19 20  1  0
 20 21  2  0
 21 22  1  0
 22 23  1  0
 23 24  2  0
 24 25  1  0
 25 26  2  0
 26 27  1  0
 27 28  1  0
 26 29  1  0
 29 30  1  0
 30 31  1  0
 29 32  2  0
 32 33  1  0
 33 34  1  0
 22 35  1  0
 35 36  1  0
 36 37  2  0
 36 38  1  0
 17 39  1  0
 39 40  2  0
 12  3  1  0
 39 14  1  0
 21 16  1  0
 32 23  1  0
 38 20  1  0
  1 41  1  0
  1 42  1  0
  1 43  1  0
  4 44  1  0
  7 45  1  0
  7 46  1  0
  7 47  1  0
 10 48  1  0
 10 49  1  0
 10 50  1  0
 11 51  1  0
 13 52  1  0
 18 53  1  0
 19 54  1  0
 22 55  1  1
 24 56  1  0
 25 57  1  0
 28 58  1  0
 28 59  1  0
 28 60  1  0
 31 61  1  0
 31 62  1  0
 31 63  1  0
 34 64  1  0
 34 65  1  0
 34 66  1  0
 35 67  1  0
 35 68  1  0
M  END
>  <Binding energies>  (1) 
[-5.34]

>  <Ligand effiencies>  (1) 
[-0.1335]

>  <Interactions>  (1) 
["V-B:PRO:540:CA:9855, V-B:TYR:539:CE1:9847, H-A:ALA:541:N:4891, V-A:PRO:540:C:4881, V-B:ASP:366:CG:8184, H-A:TYR:531:OH:4795, V-B:TYR:539:CE2:9848, V-A:ASP:366:CG:3213, V-A:TYR:539:CD1:4873, V-B:TYR:539:CZ:9849, V-A:TYR:531:CE2:4793, H-B:TYR:539:OH:9850, H-B:ALA:541:N:9863, V-B:ASP:366:CB:8183, V-B:PRO:540:N:9856, V-B:TYR:539:CD2:9846, V-A:TYR:531:CZ:4794, V-B:GLU:543:CD:9880, V-A:TYR:539:C:4867, H-B:TYR:531:OH:9767, V-A:ASP:366:CB:3212, H-B:ARG:545:NH2:9900, V-B:TYR:539:CD1:9845, V-A:PRO:540:CB:4885, V-A:PRO:540:CA:4883, V-A:TYR:539:CE1:4875"]

$$$$
ZINC263585587-again1
     RDKit          3D

 71 75  0  0  0  0  0  0  0  0999 V2000
  128.6170  123.6260   58.1320 C   0  0  0  0  0  0  0  0  0  0  0  0
  129.1680  124.2770   59.1950 C   0  0  0  0  0  0  0  0  0  0  0  0
  129.3420  123.9710   60.5670 N   0  0  0  0  0  0  0  0  0  0  0  0
  130.6670  123.5880   61.0250 C   0  0  2  0  0  0  0  0  0  0  0  0
  130.8400  122.0400   61.0100 C   0  0  0  0  0  0  0  0  0  0  0  0
  129.6000  121.1740   61.3620 C   0  0  0  0  0  0  0  0  0  0  0  0
  129.8780  119.3940   61.6540 S   0  0  0  0  0  0  0  0  0  0  0  0
  131.2500  119.0970   60.5100 C   0  0  0  0  0  0  0  0  0  0  0  0
  130.8900  124.1450   62.4300 C   0  0  0  0  0  0  0  0  0  0  0  0
  130.0100  124.6980   63.2230 N   0  0  0  0  0  0  0  0  0  0  0  0
  130.7330  125.0250   64.2820 C   0  0  0  0  0  0  0  0  0  0  0  0
  130.1340  125.7010   65.4870 C   0  0  0  0  0  0  0  0  0  0  0  0
  129.2700  126.7940   65.3380 C   0  0  0  0  0  0  0  0  0  0  0  0
  128.7180  127.4210   66.4520 C   0  0  0  0  0  0  0  0  0  0  0  0
  129.0190  126.9640   67.7440 C   0  0  0  0  0  0  0  0  0  0  0  0
  128.5200  127.5210   68.9060 O   0  0  0  0  0  0  0  0  0  0  0  0
  129.4250  127.9210   69.9280 C   0  0  0  0  0  0  0  0  0  0  0  0
  129.8780  125.8760   67.8940 C   0  0  0  0  0  0  0  0  0  0  0  0
  130.4310  125.2500   66.7790 C   0  0  0  0  0  0  0  0  0  0  0  0
  132.0150  124.7240   64.2080 N   0  0  0  0  0  0  0  0  0  0  0  0
  132.1420  124.1290   62.9530 O   0  0  0  0  0  0  0  0  0  0  0  0
  129.7450  125.6220   58.9220 C   0  0  0  0  0  0  0  0  0  0  0  0
  131.1160  125.7710   58.5020 C   0  0  0  0  0  0  0  0  0  0  0  0
  131.8840  124.7770   58.2920 O   0  0  0  0  0  0  0  0  0  0  0  0
  131.6430  127.1170   58.2840 C   0  0  0  0  0  0  0  0  0  0  0  0
  130.9730  128.1830   58.7580 C   0  0  0  0  0  0  0  0  0  0  0  0
  131.2560  129.4720   58.4910 O   0  0  0  0  0  0  0  0  0  0  0  0
  130.1070  130.1960   58.6990 C   0  0  0  0  0  0  0  0  0  0  0  0
  129.9700  131.5440   58.3550 C   0  0  0  0  0  0  0  0  0  0  0  0
  131.0790  132.3380   57.7200 C   0  0  0  0  0  0  0  0  0  0  0  0
  132.4890  131.7520   57.8170 C   0  0  0  0  0  0  0  0  0  0  0  0
  130.9150  133.3320   57.0110 O   0  0  0  0  0  0  0  0  0  0  0  0
  128.7380  132.1550   58.6840 C   0  0  0  0  0  0  0  0  0  0  0  0
  128.5050  133.4760   58.3670 O   0  0  0  0  0  0  0  0  0  0  0  0
  127.7090  131.4410   59.3370 C   0  0  0  0  0  0  0  0  0  0  0  0
  126.3950  132.1810   59.6590 C   0  0  0  0  0  0  0  0  0  0  0  0
  127.9110  130.0800   59.6810 C   0  0  0  0  0  0  0  0  0  0  0  0
  127.0440  129.4340   60.3610 O   0  0  0  0  0  0  0  0  0  0  0  0
  129.1140  129.4480   59.3200 C   0  0  0  0  0  0  0  0  0  0  0  0
  129.6980  128.0600   59.5660 C   0  0  2  0  0  0  0  0  0  0  0  0
  130.0280  127.8560   61.0680 C   0  0  0  0  0  0  0  0  0  0  0  0
  128.9230  126.7930   59.0880 C   0  0  0  0  0  0  0  0  0  0  0  0
  127.6840  126.7690   58.7890 O   0  0  0  0  0  0  0  0  0  0  0  0
  128.6099  124.1008   57.1398 H   0  0  0  0  0  0  0  0  0  0  0  0
  128.1793  122.6258   58.2663 H   0  0  0  0  0  0  0  0  0  0  0  0
  131.4194  124.0082   60.3414 H   0  0  0  0  0  0  0  0  0  0  0  0
  131.1638  121.7549   59.9981 H   0  0  0  0  0  0  0  0  0  0  0  0
  131.5626  121.8321   61.8129 H   0  0  0  0  0  0  0  0  0  0  0  0
  129.1530  121.5929   62.2756 H   0  0  0  0  0  0  0  0  0  0  0  0
  128.9620  121.2171   60.4669 H   0  0  0  0  0  0  0  0  0  0  0  0
  132.1681  118.8983   61.0823 H   0  0  0  0  0  0  0  0  0  0  0  0
  131.0176  118.2284   59.8764 H   0  0  0  0  0  0  0  0  0  0  0  0
  131.3977  119.9840   59.8764 H   0  0  0  0  0  0  0  0  0  0  0  0
  129.0252  127.1606   64.3302 H   0  0  0  0  0  0  0  0  0  0  0  0
  128.0426  128.2789   66.3185 H   0  0  0  0  0  0  0  0  0  0  0  0
  128.9768  127.7229   70.9128 H   0  0  0  0  0  0  0  0  0  0  0  0
  130.3621  127.3532   69.8307 H   0  0  0  0  0  0  0  0  0  0  0  0
  129.6359  128.9962   69.8307 H   0  0  0  0  0  0  0  0  0  0  0  0
  130.1213  125.5086   68.9019 H   0  0  0  0  0  0  0  0  0  0  0  0
  131.1074  124.3933   66.9148 H   0  0  0  0  0  0  0  0  0  0  0  0
  132.5850  127.2579   57.7338 H   0  0  0  0  0  0  0  0  0  0  0  0
  132.7662  131.6368   58.8753 H   0  0  0  0  0  0  0  0  0  0  0  0
  132.5126  130.7696   57.3227 H   0  0  0  0  0  0  0  0  0  0  0  0
  133.2020  132.4283   57.3227 H   0  0  0  0  0  0  0  0  0  0  0  0
  129.0820  133.7950   57.6710 H   0  0  0  0  0  0  0  0  0  0  0  0
  126.2713  132.2507   60.7498 H   0  0  0  0  0  0  0  0  0  0  0  0
  126.4289  133.1927   59.2285 H   0  0  0  0  0  0  0  0  0  0  0  0
  125.5475  131.6275   59.2285 H   0  0  0  0  0  0  0  0  0  0  0  0
  129.2519  128.3358   61.6824 H   0  0  0  0  0  0  0  0  0  0  0  0
  130.0608  126.7798   61.2933 H   0  0  0  0  0  0  0  0  0  0  0  0
  131.0053  128.3077   61.2933 H   0  0  0  0  0  0  0  0  0  0  0  0
  1  2  2  0
  2  3  1  0
  3  4  1  0
  4  5  1  0
  5  6  1  0
  6  7  1  0
  7  8  1  0
  4  9  1  0
  9 10  2  0
 10 11  1  0
 11 12  1  0
 12 13  2  0
 13 14  1  0
 14 15  2  0
 15 16  1  0
 16 17  1  0
 15 18  1  0
 18 19  2  0
 11 20  2  0
 20 21  1  0
  2 22  1  0
 22 23  2  0
 23 24  1  0
 23 25  1  0
 25 26  2  0
 26 27  1  0
 27 28  1  0
 28 29  2  0
 29 30  1  0
 30 31  1  0
 30 32  2  0
 29 33  1  0
 33 34  1  0
 33 35  2  0
 35 36  1  0
 35 37  1  0
 37 38  1  0
 37 39  2  0
 39 40  1  0
 40 41  1  1
 40 42  1  0
 42 43  2  0
 21  9  1  0
 42 22  1  0
 19 12  1  0
 40 26  1  0
 39 28  1  0
  1 44  1  0
  1 45  1  0
  4 46  1  6
  5 47  1  0
  5 48  1  0
  6 49  1  0
  6 50  1  0
  8 51  1  0
  8 52  1  0
  8 53  1  0
 13 54  1  0
 14 55  1  0
 17 56  1  0
 17 57  1  0
 17 58  1  0
 18 59  1  0
 19 60  1  0
 25 61  1  0
 31 62  1  0
 31 63  1  0
 31 64  1  0
 34 65  1  0
 36 66  1  0
 36 67  1  0
 36 68  1  0
 41 69  1  0
 41 70  1  0
 41 71  1  0
M  CHG  3   3  -1  24  -1  38  -1
M  END
>  <Binding energies>  (1) 
[-4.59]

>  <Ligand effiencies>  (1) 
[-0.10431818181818181]

>  <Interactions>  (1) 
["V-B:GLU:543:CB:9878, V-B:ALA:541:CB:9864, H-A:TYR:531:OH:4795, V-A:TYR:484:CE2:4346, V-B:TYR:539:CE2:9848, V-B:GLU:543:CG:9879, V-A:ASP:366:CG:3213, V-A:TYR:539:CD1:4873, V-A:LEU:363:CD1:3189, V-B:TYR:539:CZ:9849, H-B:TYR:539:OH:9850, V-A:GLU:543:CD:4908, V-A:TYR:484:CZ:4347, V-B:HIS:456:CE1:9041, V-A:HIS:456:CE1:4070, V-B:TYR:539:CD2:9846, V-B:GLU:543:CD:9880, V-A:ASP:366:CB:3212, V-A:LEU:475:CD2:4259, V-A:GLU:543:CB:4906, H-A:TYR:539:O:4868, V-A:PRO:540:N:4884, H-A:TYR:539:N:4870, V-A:PRO:540:CB:4885, V-A:PRO:540:CA:4883, V-A:TYR:539:CE1:4875, H-A:TYR:484:OH:4348"]

$$$$
ZINC263585587-again2
     RDKit          3D

 73 77  0  0  0  0  0  0  0  0999 V2000
  128.3290  130.4040   66.9760 C   0  0  0  0  0  0  0  0  0  0  0  0
  127.9900  129.5070   66.0310 C   0  0  0  0  0  0  0  0  0  0  0  0
  127.7190  128.1690   66.2310 N   0  0  0  0  0  0  0  0  0  0  0  0
  128.1830  127.3100   67.3130 C   0  0  2  0  0  0  0  0  0  0  0  0
  128.7180  128.1320   68.5110 C   0  0  0  0  0  0  0  0  0  0  0  0
  129.4150  127.2870   69.5940 C   0  0  0  0  0  0  0  0  0  0  0  0
  130.8310  128.0870   70.4010 S   0  0  0  0  0  0  0  0  0  0  0  0
  130.2800  128.0950   72.1290 C   0  0  0  0  0  0  0  0  0  0  0  0
  129.1980  126.3180   66.7710 C   0  0  0  0  0  0  0  0  0  0  0  0
  129.7920  126.3220   65.6080 N   0  0  0  0  0  0  0  0  0  0  0  0
  130.4950  125.2040   65.6380 C   0  0  0  0  0  0  0  0  0  0  0  0
  131.3580  124.7670   64.4840 C   0  0  0  0  0  0  0  0  0  0  0  0
  130.8000  124.0830   63.3960 C   0  0  0  0  0  0  0  0  0  0  0  0
  131.5980  123.6700   62.3340 C   0  0  0  0  0  0  0  0  0  0  0  0
  132.9680  123.9310   62.3310 C   0  0  0  0  0  0  0  0  0  0  0  0
  133.6790  123.4810   61.2360 O   0  0  0  0  0  0  0  0  0  0  0  0
  133.8980  124.3620   60.1400 C   0  0  0  0  0  0  0  0  0  0  0  0
  133.5330  124.6180   63.4160 C   0  0  0  0  0  0  0  0  0  0  0  0
  132.7340  125.0300   64.4780 C   0  0  0  0  0  0  0  0  0  0  0  0
  130.3780  124.4920   66.7430 N   0  0  0  0  0  0  0  0  0  0  0  0
  129.4870  125.2270   67.5190 O   0  0  0  0  0  0  0  0  0  0  0  0
  127.8690  129.8740   64.5920 C   0  0  0  0  0  0  0  0  0  0  0  0
  127.9150  131.2520   64.1730 C   0  0  0  0  0  0  0  0  0  0  0  0
  128.0740  132.2160   64.9920 O   0  0  0  0  0  0  0  0  0  0  0  0
  127.7740  131.5700   62.7540 C   0  0  0  0  0  0  0  0  0  0  0  0
  127.3250  130.6370   61.8980 C   0  0  0  0  0  0  0  0  0  0  0  0
  127.2990  130.7470   60.5540 O   0  0  0  0  0  0  0  0  0  0  0  0
  127.3130  129.4700   60.0460 C   0  0  0  0  0  0  0  0  0  0  0  0
  127.4760  129.1630   58.6890 C   0  0  0  0  0  0  0  0  0  0  0  0
  127.6510  130.2160   57.6300 C   0  0  0  0  0  0  0  0  0  0  0  0
  126.8630  131.5150   57.8120 C   0  0  0  0  0  0  0  0  0  0  0  0
  128.4800  130.1670   56.7200 O   0  0  0  0  0  0  0  0  0  0  0  0
  127.4200  127.7900   58.3450 C   0  0  0  0  0  0  0  0  0  0  0  0
  127.5770  127.3770   57.0400 O   0  0  0  0  0  0  0  0  0  0  0  0
  127.2130  126.7970   59.3250 C   0  0  0  0  0  0  0  0  0  0  0  0
  127.1620  125.3200   58.9240 C   0  0  0  0  0  0  0  0  0  0  0  0
  127.0520  127.1680   60.6710 C   0  0  0  0  0  0  0  0  0  0  0  0
  126.7790  126.2290   61.6320 O   0  0  0  0  0  0  0  0  0  0  0  0
  127.1210  128.5140   61.0340 C   0  0  0  0  0  0  0  0  0  0  0  0
  126.8990  129.2550   62.3400 C   0  0  2  0  0  0  0  0  0  0  0  0
  125.4000  129.2420   62.7310 C   0  0  0  0  0  0  0  0  0  0  0  0
  127.6990  128.8320   63.6090 C   0  0  0  0  0  0  0  0  0  0  0  0
  128.2030  127.6740   63.7830 O   0  0  0  0  0  0  0  0  0  0  0  0
  128.5230  131.4502   66.6969 H   0  0  0  0  0  0  0  0  0  0  0  0
  128.4120  130.0907   68.0272 H   0  0  0  0  0  0  0  0  0  0  0  0
  127.2350  127.6610   65.5050 H   0  0  0  0  0  0  0  0  0  0  0  0
  127.3320  126.7380   67.7113 H   0  0  0  0  0  0  0  0  0  0  0  0
  129.4407  128.8681   68.1293 H   0  0  0  0  0  0  0  0  0  0  0  0
  127.8449  128.6009   68.9884 H   0  0  0  0  0  0  0  0  0  0  0  0
  128.6724  127.0461   70.3689 H   0  0  0  0  0  0  0  0  0  0  0  0
  129.8153  126.4003   69.0807 H   0  0  0  0  0  0  0  0  0  0  0  0
  131.1566  128.0823   72.7934 H   0  0  0  0  0  0  0  0  0  0  0  0
  129.6877  129.0018   72.3208 H   0  0  0  0  0  0  0  0  0  0  0  0
  129.6616  127.2057   72.3208 H   0  0  0  0  0  0  0  0  0  0  0  0
  129.7208  123.8706   63.3814 H   0  0  0  0  0  0  0  0  0  0  0  0
  131.1441  123.1324   61.4885 H   0  0  0  0  0  0  0  0  0  0  0  0
  134.1471  125.3641   60.5192 H   0  0  0  0  0  0  0  0  0  0  0  0
  134.7297  123.9848   59.5268 H   0  0  0  0  0  0  0  0  0  0  0  0
  132.9865  124.4181   59.5268 H   0  0  0  0  0  0  0  0  0  0  0  0
  134.6120  124.8318   63.4271 H   0  0  0  0  0  0  0  0  0  0  0  0
  133.1881  125.5686   65.3228 H   0  0  0  0  0  0  0  0  0  0  0  0
  128.0355  132.5733   62.3865 H   0  0  0  0  0  0  0  0  0  0  0  0
  126.7382  131.7208   58.8853 H   0  0  0  0  0  0  0  0  0  0  0  0
  127.4101  132.3448   57.3407 H   0  0  0  0  0  0  0  0  0  0  0  0
  125.8743  131.4132   57.3407 H   0  0  0  0  0  0  0  0  0  0  0  0
  127.8640  128.0880   56.4600 H   0  0  0  0  0  0  0  0  0  0  0  0
  127.1404  124.6949   59.8289 H   0  0  0  0  0  0  0  0  0  0  0  0
  126.2569  125.1330   58.3275 H   0  0  0  0  0  0  0  0  0  0  0  0
  128.0521  125.0711   58.3275 H   0  0  0  0  0  0  0  0  0  0  0  0
  126.8030  126.5960   62.5190 H   0  0  0  0  0  0  0  0  0  0  0  0
  125.3070  129.2412   63.8271 H   0  0  0  0  0  0  0  0  0  0  0  0
  124.9066  130.1359   62.3218 H   0  0  0  0  0  0  0  0  0  0  0  0
  124.9221  128.3397   62.3218 H   0  0  0  0  0  0  0  0  0  0  0  0
  1  2  2  0
  2  3  1  0
  3  4  1  0
  4  5  1  0
  5  6  1  0
  6  7  1  0
  7  8  1  0
  4  9  1  0
  9 10  2  0
 10 11  1  0
 11 12  1  0
 12 13  2  0
 13 14  1  0
 14 15  2  0
 15 16  1  0
 16 17  1  0
 15 18  1  0
 18 19  2  0
 11 20  2  0
 20 21  1  0
  2 22  1  0
 22 23  2  0
 23 24  1  0
 23 25  1  0
 25 26  2  0
 26 27  1  0
 27 28  1  0
 28 29  2  0
 29 30  1  0
 30 31  1  0
 30 32  2  0
 29 33  1  0
 33 34  1  0
 33 35  2  0
 35 36  1  0
 35 37  1  0
 37 38  1  0
 37 39  2  0
 39 40  1  0
 40 41  1  1
 40 42  1  0
 42 43  2  0
 21  9  1  0
 42 22  1  0
 19 12  1  0
 40 26  1  0
 39 28  1  0
  1 44  1  0
  1 45  1  0
  3 46  1  0
  4 47  1  1
  5 48  1  0
  5 49  1  0
  6 50  1  0
  6 51  1  0
  8 52  1  0
  8 53  1  0
  8 54  1  0
 13 55  1  0
 14 56  1  0
 17 57  1  0
 17 58  1  0
 17 59  1  0
 18 60  1  0
 19 61  1  0
 25 62  1  0
 31 63  1  0
 31 64  1  0
 31 65  1  0
 34 66  1  0
 36 67  1  0
 36 68  1  0
 36 69  1  0
 38 70  1  0
 41 71  1  0
 41 72  1  0
 41 73  1  0
M  CHG  1  24  -1
M  END
>  <Binding energies>  (1) 
[-6.33]

>  <Ligand effiencies>  (1) 
[-0.1376086956521739]

>  <Interactions>  (1) 
["V-A:ILE:369:CG2:3237, V-A:ASP:366:CA:3210, V-A:GLU:543:CA:4904, V-B:GLU:543:CB:9878, V-B:GLU:543:CG:9879, V-A:GLY:544:C:4912, V-A:ASP:366:CG:3213, V-B:TYR:484:CE2:9317, H-B:GLU:543:OE1:9881, V-A:TYR:539:CZ:4877, V-A:GLU:543:CD:4908, H-B:TYR:484:OH:9319, V-B:HIS:456:CE1:9041, V-A:ILE:369:CD1:3239, V-A:HIS:456:CE1:4070, V-B:TYR:484:CZ:9318, V-A:GLU:543:CG:4907, V-B:GLU:543:CD:9880, V-B:ARG:545:CZ:9898, H-B:TYR:531:OH:9767, V-A:ASP:366:CB:3212, V-A:ARG:545:CZ:4926, H-B:ARG:545:NH2:9900, V-A:GLU:543:CB:4906, H-B:GLU:543:OE2:9882, V-A:TYR:539:CE1:4875, H-A:TYR:484:OH:4348"]

$$$$
ZINC263586819
     RDKit          3D

 59 64  0  0  0  0  0  0  0  0999 V2000
  133.7980  124.2190   59.4920 C   0  0  0  0  0  0  0  0  0  0  0  0
  132.8660  123.1510   59.3940 O   0  0  0  0  0  0  0  0  0  0  0  0
  132.8240  122.1730   60.3340 C   0  0  0  0  0  0  0  0  0  0  0  0
  133.2210  121.0200   60.1360 O   0  0  0  0  0  0  0  0  0  0  0  0
  132.2610  122.6350   61.6470 C   0  0  0  0  0  0  0  0  0  0  0  0
  132.9970  123.4470   62.5240 C   0  0  0  0  0  0  0  0  0  0  0  0
  132.4480  123.8490   63.7390 C   0  0  0  0  0  0  0  0  0  0  0  0
  131.1630  123.4440   64.1030 C   0  0  0  0  0  0  0  0  0  0  0  0
  130.6270  123.8770   65.4080 C   0  0  0  0  0  0  0  0  0  0  0  0
  130.0170  125.0490   65.6760 C   0  0  0  0  0  0  0  0  0  0  0  0
  129.7640  125.9980   64.7400 O   0  0  0  0  0  0  0  0  0  0  0  0
  129.0810  127.0170   65.3350 C   0  0  0  0  0  0  0  0  0  0  0  0
  128.8970  126.7850   66.6800 C   0  0  0  0  0  0  0  0  0  0  0  0
  128.2260  127.7130   67.4730 C   0  0  0  0  0  0  0  0  0  0  0  0
  127.7440  128.8810   66.8780 C   0  0  0  0  0  0  0  0  0  0  0  0
  127.9180  129.0980   65.5050 C   0  0  0  0  0  0  0  0  0  0  0  0
  128.5920  128.1630   64.6930 C   0  0  0  0  0  0  0  0  0  0  0  0
  128.7230  128.4800   63.1950 C   0  0  1  0  0  0  0  0  0  0  0  0
  128.9240  127.3010   62.2250 C   0  0  0  0  0  0  0  0  0  0  0  0
  130.1510  126.8060   61.9490 C   0  0  0  0  0  0  0  0  0  0  0  0
  130.4320  125.7750   61.1130 O   0  0  0  0  0  0  0  0  0  0  0  0
  129.3760  125.1270   60.5070 C   0  0  0  0  0  0  0  0  0  0  0  0
  129.6900  124.0390   59.6980 C   0  0  0  0  0  0  0  0  0  0  0  0
  128.6690  123.3170   59.0830 C   0  0  0  0  0  0  0  0  0  0  0  0
  127.3250  123.6860   59.2640 C   0  0  0  0  0  0  0  0  0  0  0  0
  126.2520  123.0240   58.7010 O   0  0  0  0  0  0  0  0  0  0  0  0
  126.2000  122.8660   57.2880 C   0  0  0  0  0  0  0  0  0  0  0  0
  127.0320  124.7950   60.0650 C   0  0  0  0  0  0  0  0  0  0  0  0
  128.0440  125.5270   60.7010 C   0  0  0  0  0  0  0  0  0  0  0  0
  127.7270  126.7080   61.5740 C   0  0  0  0  0  0  0  0  0  0  0  0
  126.5690  127.1030   61.7260 O   0  0  0  0  0  0  0  0  0  0  0  0
  127.4990  129.3250   62.7530 C   0  0  0  0  0  0  0  0  0  0  0  0
  127.2510  130.5260   63.6840 C   0  0  0  0  0  0  0  0  0  0  0  0
  126.9340  131.6640   63.3440 O   0  0  0  0  0  0  0  0  0  0  0  0
  127.4620  130.3130   65.0220 O   0  0  0  0  0  0  0  0  0  0  0  0
  129.5000  125.4870   66.9710 C   0  0  0  0  0  0  0  0  0  0  0  0
  129.5710  124.8670   68.0320 O   0  0  0  0  0  0  0  0  0  0  0  0
  130.4260  122.6370   63.2330 C   0  0  0  0  0  0  0  0  0  0  0  0
  130.9670  122.2420   62.0130 C   0  0  0  0  0  0  0  0  0  0  0  0
  133.9915  124.4407   60.5519 H   0  0  0  0  0  0  0  0  0  0  0  0
  134.7387  123.9310   59.0000 H   0  0  0  0  0  0  0  0  0  0  0  0
  133.3853  125.1121   59.0000 H   0  0  0  0  0  0  0  0  0  0  0  0
  134.0130  123.7675   62.2501 H   0  0  0  0  0  0  0  0  0  0  0  0
  133.0311  124.4901   64.4165 H   0  0  0  0  0  0  0  0  0  0  0  0
  130.7361  123.1729   66.2461 H   0  0  0  0  0  0  0  0  0  0  0  0
  128.0785  127.5294   68.5475 H   0  0  0  0  0  0  0  0  0  0  0  0
  127.2256  129.6337   67.4901 H   0  0  0  0  0  0  0  0  0  0  0  0
  129.6744  129.0268   63.1182 H   0  0  0  0  0  0  0  0  0  0  0  0
  131.0044  127.2854   62.4508 H   0  0  0  0  0  0  0  0  0  0  0  0
  130.7402  123.7500   59.5446 H   0  0  0  0  0  0  0  0  0  0  0  0
  128.9169  122.4515   58.4509 H   0  0  0  0  0  0  0  0  0  0  0  0
  125.8646  121.8469   57.0451 H   0  0  0  0  0  0  0  0  0  0  0  0
  125.4945  123.5952   56.8632 H   0  0  0  0  0  0  0  0  0  0  0  0
  127.2007  123.0337   56.8632 H   0  0  0  0  0  0  0  0  0  0  0  0
  125.9834  125.0994   60.1987 H   0  0  0  0  0  0  0  0  0  0  0  0
  127.6765  129.6984   61.7336 H   0  0  0  0  0  0  0  0  0  0  0  0
  126.6106  128.6778   62.7948 H   0  0  0  0  0  0  0  0  0  0  0  0
  129.4132  122.3121   63.5135 H   0  0  0  0  0  0  0  0  0  0  0  0
  130.3736  121.6160   61.3304 H   0  0  0  0  0  0  0  0  0  0  0  0
  1  2  1  0
  2  3  1  0
  3  4  2  0
  3  5  1  0
  5  6  2  0
  6  7  1  0
  7  8  2  0
  8  9  1  0
  9 10  2  0
 10 11  1  0
 11 12  1  0
 12 13  2  0
 13 14  1  0
 14 15  2  0
 15 16  1  0
 16 17  2  0
 17 18  1  0
 18 19  1  0
 19 20  2  0
 20 21  1  0
 21 22  1  0
 22 23  2  0
 23 24  1  0
 24 25  2  0
 25 26  1  0
 26 27  1  0
 25 28  1  0
 28 29  2  0
 29 30  1  0
 30 31  2  0
 18 32  1  0
 32 33  1  0
 33 34  2  0
 33 35  1  0
 13 36  1  0
 36 37  2  0
  8 38  1  0
 38 39  2  0
 39  5  1  0
 36 10  1  0
 17 12  1  0
 30 19  1  0
 35 16  1  0
 29 22  1  0
  1 40  1  0
  1 41  1  0
  1 42  1  0
  6 43  1  0
  7 44  1  0
  9 45  1  0
 14 46  1  0
 15 47  1  0
 18 48  1  1
 20 49  1  0
 23 50  1  0
 24 51  1  0
 27 52  1  0
 27 53  1  0
 27 54  1  0
 28 55  1  0
 32 56  1  0
 32 57  1  0
 38 58  1  0
 39 59  1  0
M  END
>  <Binding energies>  (1) 
[-7.37]

>  <Ligand effiencies>  (1) 
[-0.18897435897435896]

>  <Interactions>  (1) 
["V-A:ILE:369:CG2:3237, V-A:ASP:366:CA:3210, V-B:PRO:540:CA:9855, V-A:ILE:369:CB:3236, V-B:GLU:543:CB:9878, V-B:TYR:539:CE2:9848, V-A:TYR:484:CE2:4346, V-B:GLU:543:CG:9879, V-A:ASP:366:CG:3213, V-B:TYR:539:CZ:9849, V-A:TYR:484:CZ:4347, V-A:GLU:543:CD:4908, V-B:PRO:540:CB:9857, H-B:TYR:484:OH:9319, V-B:HIS:456:CE1:9041, V-B:GLU:543:CA:9876, V-B:PRO:540:N:9856, V-A:HIS:456:CE1:4070, V-A:ILE:369:CD1:3239, V-B:TYR:539:CD2:9846, V-A:GLU:543:CG:4907, V-B:PRO:540:CD:9859, H-A:SER:385:OG:3410, V-B:GLU:543:CD:9880, V-A:ASP:366:CB:3212, V-A:LEU:475:CD2:4259, H-B:ARG:545:NH2:9900"]

$$$$
ZINC263592609
     RDKit          3D

 74 76  0  0  0  0  0  0  0  0999 V2000
  128.1050  123.5650   56.8050 C   0  0  0  0  0  0  0  0  0  0  0  0
  127.6430  123.5470   58.2700 C   0  0  0  0  0  0  0  0  0  0  0  0
  126.1090  123.5180   58.3790 C   0  0  0  0  0  0  0  0  0  0  0  0
  128.4360  124.9390   59.2870 Si  0  0  0  0  0  4  0  0  0  0  0  0
  128.3890  126.6500   58.4700 C   0  0  0  0  0  0  0  0  0  0  0  0
  127.4680  126.6650   57.2390 C   0  0  0  0  0  0  0  0  0  0  0  0
  129.7860  127.1790   58.1050 C   0  0  0  0  0  0  0  0  0  0  0  0
  127.6540  125.0380   60.7750 O   0  0  0  0  0  0  0  0  0  0  0  0
  128.2430  125.5840   61.9470 C   0  0  0  0  0  0  0  0  0  0  0  0
  129.4100  124.7600   62.5470 C   0  0  2  0  0  0  0  0  0  0  0  0
  129.0900  124.2880   63.8580 O   0  0  0  0  0  0  0  0  0  0  0  0
  130.1280  124.4850   64.7910 C   0  0  2  0  0  0  0  0  0  0  0  0
  129.7390  125.4530   65.8270 N   0  0  0  0  0  0  0  0  0  0  0  0
  129.9600  125.2110   67.1650 C   0  0  0  0  0  0  0  0  0  0  0  0
  129.5960  126.0580   68.1470 C   0  0  0  0  0  0  0  0  0  0  0  0
  128.9200  127.2940   67.8040 C   0  0  0  0  0  0  0  0  0  0  0  0
  128.5180  128.1120   68.6290 O   0  0  0  0  0  0  0  0  0  0  0  0
  128.7640  127.4560   66.4560 N   0  0  0  0  0  0  0  0  0  0  0  0
  129.1250  126.6280   65.4230 C   0  0  0  0  0  0  0  0  0  0  0  0
  128.8910  126.9590   64.2590 O   0  0  0  0  0  0  0  0  0  0  0  0
  131.4030  124.7540   63.9450 C   0  0  1  0  0  0  0  0  0  0  0  0
  132.3630  125.5610   64.6120 O   0  0  0  0  0  0  0  0  0  0  0  0
  132.1820  123.4390   63.6300 C   0  0  0  0  0  0  0  0  0  0  0  0
  133.4260  123.3120   64.2900 O   0  0  0  0  0  0  0  0  0  0  0  0
  130.7530  125.4670   62.7640 C   0  0  1  0  0  0  0  0  0  0  0  0
  131.5600  125.4260   61.5960 O   0  0  0  0  0  0  0  0  0  0  0  0
  131.4060  124.2370   60.4210 Si  0  0  0  0  0  4  0  0  0  0  0  0
  132.9400  124.2850   59.3050 C   0  0  0  0  0  0  0  0  0  0  0  0
  134.2470  124.3630   60.1130 C   0  0  0  0  0  0  0  0  0  0  0  0
  132.8760  125.4250   58.2770 C   0  0  0  0  0  0  0  0  0  0  0  0
  131.1520  122.5810   61.3070 C   0  0  0  0  0  0  0  0  0  0  0  0
  132.2680  121.5670   61.0120 C   0  0  0  0  0  0  0  0  0  0  0  0
  129.7670  121.9800   61.0220 C   0  0  0  0  0  0  0  0  0  0  0  0
  130.0360  124.5180   59.5100 O   0  0  0  0  0  0  0  0  0  0  0  0
  129.2035  123.6078   56.7675 H   0  0  0  0  0  0  0  0  0  0  0  0
  127.7561  122.6526   56.2993 H   0  0  0  0  0  0  0  0  0  0  0  0
  127.6862  124.4475   56.2993 H   0  0  0  0  0  0  0  0  0  0  0  0
  128.0028  122.6090   58.7179 H   0  0  0  0  0  0  0  0  0  0  0  0
  125.8168  123.5125   59.4395 H   0  0  0  0  0  0  0  0  0  0  0  0
  125.6896  124.4084   57.8877 H   0  0  0  0  0  0  0  0  0  0  0  0
  125.7236  122.6124   57.8877 H   0  0  0  0  0  0  0  0  0  0  0  0
  127.9730  127.3325   59.2258 H   0  0  0  0  0  0  0  0  0  0  0  0
  126.4181  126.6821   57.5668 H   0  0  0  0  0  0  0  0  0  0  0  0
  127.6781  127.5598   56.6348 H   0  0  0  0  0  0  0  0  0  0  0  0
  127.6489  125.7638   56.6348 H   0  0  0  0  0  0  0  0  0  0  0  0
  130.3493  127.3923   59.0254 H   0  0  0  0  0  0  0  0  0  0  0  0
  130.3221  126.4216   57.5142 H   0  0  0  0  0  0  0  0  0  0  0  0
  129.6859  128.1015   57.5142 H   0  0  0  0  0  0  0  0  0  0  0  0
  128.6257  126.5853   61.7002 H   0  0  0  0  0  0  0  0  0  0  0  0
  127.4512  125.5907   62.7106 H   0  0  0  0  0  0  0  0  0  0  0  0
  129.5271  123.9916   61.7687 H   0  0  0  0  0  0  0  0  0  0  0  0
  130.3551  123.6138   65.4230 H   0  0  0  0  0  0  0  0  0  0  0  0
  130.4618  124.2737   67.4472 H   0  0  0  0  0  0  0  0  0  0  0  0
  129.8094  125.8145   69.1983 H   0  0  0  0  0  0  0  0  0  0  0  0
  128.3060  128.3110   66.1790 H   0  0  0  0  0  0  0  0  0  0  0  0
  131.9620  126.4090   64.8150 H   0  0  0  0  0  0  0  0  0  0  0  0
  131.5501  122.5883   63.9251 H   0  0  0  0  0  0  0  0  0  0  0  0
  132.4048  123.4626   62.5531 H   0  0  0  0  0  0  0  0  0  0  0  0
  133.3510  123.7030   65.1630 H   0  0  0  0  0  0  0  0  0  0  0  0
  130.6205  126.5382   62.9760 H   0  0  0  0  0  0  0  0  0  0  0  0
  132.9407  123.3330   58.7540 H   0  0  0  0  0  0  0  0  0  0  0  0
  134.0148  124.3491   61.1881 H   0  0  0  0  0  0  0  0  0  0  0  0
  134.8838  123.5013   59.8643 H   0  0  0  0  0  0  0  0  0  0  0  0
  134.7768  125.2944   59.8643 H   0  0  0  0  0  0  0  0  0  0  0  0
  132.8218  126.3899   58.8024 H   0  0  0  0  0  0  0  0  0  0  0  0
  133.7769  125.4010   57.6463 H   0  0  0  0  0  0  0  0  0  0  0  0
  131.9834  125.3003   57.6463 H   0  0  0  0  0  0  0  0  0  0  0  0
  131.2043  122.8067   62.3823 H   0  0  0  0  0  0  0  0  0  0  0  0
  132.6817  121.1911   61.9594 H   0  0  0  0  0  0  0  0  0  0  0  0
  131.8567  120.7272   60.4327 H   0  0  0  0  0  0  0  0  0  0  0  0
  133.0646  122.0567   60.4327 H   0  0  0  0  0  0  0  0  0  0  0  0
  129.2600  121.7600   61.9731 H   0  0  0  0  0  0  0  0  0  0  0  0
  129.1672  122.6988   60.4444 H   0  0  0  0  0  0  0  0  0  0  0  0
  129.8822  121.0509   60.4444 H   0  0  0  0  0  0  0  0  0  0  0  0
  1  2  1  0
  2  3  1  0
  2  4  1  0
  4  5  1  0
  5  6  1  0
  5  7  1  0
  4  8  1  0
  8  9  1  0
  9 10  1  0
 10 11  1  0
 11 12  1  0
 12 13  1  0
 13 14  1  0
 14 15  2  0
 15 16  1  0
 16 17  2  0
 16 18  1  0
 18 19  1  0
 19 20  2  0
 12 21  1  0
 21 22  1  1
 21 23  1  0
 23 24  1  0
 21 25  1  0
 25 26  1  0
 26 27  1  0
 27 28  1  0
 28 29  1  0
 28 30  1  0
 27 31  1  0
 31 32  1  0
 31 33  1  0
 27 34  1  0
 34  4  1  0
 25 10  1  0
 19 13  1  0
  1 35  1  0
  1 36  1  0
  1 37  1  0
  2 38  1  0
  3 39  1  0
  3 40  1  0
  3 41  1  0
  5 42  1  0
  6 43  1  0
  6 44  1  0
  6 45  1  0
  7 46  1  0
  7 47  1  0
  7 48  1  0
  9 49  1  0
  9 50  1  0
 10 51  1  6
 12 52  1  1
 14 53  1  0
 15 54  1  0
 18 55  1  0
 22 56  1  0
 23 57  1  0
 23 58  1  0
 24 59  1  0
 25 60  1  1
 28 61  1  0
 29 62  1  0
 29 63  1  0
 29 64  1  0
 30 65  1  0
 30 66  1  0
 30 67  1  0
 31 68  1  0
 32 69  1  0
 32 70  1  0
 32 71  1  0
 33 72  1  0
 33 73  1  0
 33 74  1  0
M  END
>  <Binding energies>  (1) 
[-3.86]

>  <Ligand effiencies>  (1) 
[-0.09897435897435897]

>  <Interactions>  (1) 
["V-A:ILE:369:CG2:3237, V-A:ASP:366:CA:3210, V-B:PRO:540:CA:9855, H-A:GLU:543:OE2:4910, V-A:ILE:369:CB:3236, V-B:GLU:543:CB:9878, V-B:TYR:539:CE2:9848, V-A:TYR:484:CE2:4346, V-B:GLU:543:CG:9879, V-A:ASP:366:CG:3213, V-B:TYR:539:CZ:9849, V-A:GLU:543:CD:4908, V-B:PRO:540:CB:9857, V-B:GLU:543:CA:9876, H-A:GLY:454:N:4050, V-B:PRO:540:N:9856, V-A:HIS:456:CE1:4070, V-A:ILE:369:CD1:3239, V-A:ASP:366:C:3208, V-B:TYR:539:CD2:9846, V-B:GLU:543:CD:9880, V-A:ASP:366:CB:3212, V-A:LEU:475:CD2:4259, H-A:ARG:545:NH2:4928, H-A:GLU:543:OE1:4909, V-B:TYR:539:CD1:9845, H-B:GLU:543:OE2:9882, H-A:ARG:545:NE:4924, V-B:TYR:539:CE1:9847, H-A:TYR:484:OH:4348"]

$$$$
ZINC263607626
     RDKit          3D

 75 78  0  0  0  0  0  0  0  0999 V2000
  126.2990  129.7140   60.9200 C   0  0  0  0  0  0  0  0  0  0  0  0
  127.4980  130.4700   61.0470 O   0  0  0  0  0  0  0  0  0  0  0  0
  128.5970  129.7960   61.5810 C   0  0  2  0  0  0  0  0  0  0  0  0
  129.4300  130.6390   62.2790 O   0  0  0  0  0  0  0  0  0  0  0  0
  129.3810  129.0090   60.4460 C   0  0  2  0  0  0  0  0  0  0  0  0
  128.7890  127.7600   60.2320 O   0  0  0  0  0  0  0  0  0  0  0  0
  129.4430  126.7640   61.0600 C   0  0  2  0  0  0  0  0  0  0  0  0
  128.3860  126.1380   62.0090 C   0  0  0  0  0  0  0  0  0  0  0  0
  128.3200  124.7260   61.9260 O   0  0  0  0  0  0  0  0  0  0  0  0
  129.5780  123.6730   62.2790 Si  0  0  0  0  0  4  0  0  0  0  0  0
  129.7590  123.5550   64.1700 C   0  0  0  0  0  0  0  0  0  0  0  0
  130.1050  124.9080   64.8170 C   0  0  0  0  0  0  0  0  0  0  0  0
  130.7710  122.4820   64.6090 C   0  0  0  0  0  0  0  0  0  0  0  0
  129.1990  122.0180   61.4300 C   0  0  0  0  0  0  0  0  0  0  0  0
  130.4560  121.1400   61.3170 C   0  0  0  0  0  0  0  0  0  0  0  0
  128.5240  122.1750   60.0590 C   0  0  0  0  0  0  0  0  0  0  0  0
  131.0180  124.2240   61.6400 O   0  0  0  0  0  0  0  0  0  0  0  0
  132.3150  125.2490   61.4210 Si  0  0  0  0  0  4  0  0  0  0  0  0
  133.7060  124.7220   62.6050 C   0  0  0  0  0  0  0  0  0  0  0  0
  134.2660  123.3300   62.2740 C   0  0  0  0  0  0  0  0  0  0  0  0
  133.2830  124.7970   64.0820 C   0  0  0  0  0  0  0  0  0  0  0  0
  132.8370  125.1190   59.5970 C   0  0  0  0  0  0  0  0  0  0  0  0
  131.7480  125.6490   58.6480 C   0  0  0  0  0  0  0  0  0  0  0  0
  133.2790  123.7050   59.1850 C   0  0  0  0  0  0  0  0  0  0  0  0
  131.9190  126.8470   61.7700 O   0  0  0  0  0  0  0  0  0  0  0  0
  130.6630  127.5200   61.6920 C   0  0  1  0  0  0  0  0  0  0  0  0
  130.8240  128.5880   60.6330 C   0  0  2  0  0  0  0  0  0  0  0  0
  131.4390  129.8580   60.6770 O   0  0  0  0  0  0  0  0  0  0  0  0
  130.8310  130.5560   59.6580 C   0  0  0  0  0  0  0  0  0  0  0  0
  131.2090  131.6820   59.1660 N   0  0  0  0  0  0  0  0  0  0  0  0
  130.4110  132.3320   58.1880 C   0  0  0  0  0  0  0  0  0  0  0  0
  130.6470  133.3900   57.6090 O   0  0  0  0  0  0  0  0  0  0  0  0
  129.1500  131.6550   57.8350 C   0  0  0  0  0  0  0  0  0  0  0  0
  128.8050  130.4710   58.4030 C   0  0  0  0  0  0  0  0  0  0  0  0
  129.6400  129.8870   59.3400 N   0  0  0  0  0  0  0  0  0  0  0  0
  125.9118  129.4699   61.9202 H   0  0  0  0  0  0  0  0  0  0  0  0
  125.5502  130.3036   60.3708 H   0  0  0  0  0  0  0  0  0  0  0  0
  126.5083  128.7842   60.3708 H   0  0  0  0  0  0  0  0  0  0  0  0
  128.2150  129.0602   62.3039 H   0  0  0  0  0  0  0  0  0  0  0  0
  130.2460  130.1670   62.4590 H   0  0  0  0  0  0  0  0  0  0  0  0
  129.8514  125.8804   60.5477 H   0  0  0  0  0  0  0  0  0  0  0  0
  128.6389  126.4148   63.0431 H   0  0  0  0  0  0  0  0  0  0  0  0
  127.4040  126.5270   61.7020 H   0  0  0  0  0  0  0  0  0  0  0  0
  128.7670  123.2478   64.5327 H   0  0  0  0  0  0  0  0  0  0  0  0
  130.0794  124.8080   65.9121 H   0  0  0  0  0  0  0  0  0  0  0  0
  131.1116  125.2190   64.5006 H   0  0  0  0  0  0  0  0  0  0  0  0
  129.3713  125.6640   64.5006 H   0  0  0  0  0  0  0  0  0  0  0  0
  130.8091  122.4416   65.7076 H   0  0  0  0  0  0  0  0  0  0  0  0
  130.4602  121.5025   64.2166 H   0  0  0  0  0  0  0  0  0  0  0  0
  131.7670  122.7350   64.2166 H   0  0  0  0  0  0  0  0  0  0  0  0
  128.4724  121.5113   62.0822 H   0  0  0  0  0  0  0  0  0  0  0  0
  130.8183  120.8870   62.3243 H   0  0  0  0  0  0  0  0  0  0  0  0
  130.2102  120.2161   60.7729 H   0  0  0  0  0  0  0  0  0  0  0  0
  131.2388  121.6887   60.7729 H   0  0  0  0  0  0  0  0  0  0  0  0
  127.4614  122.4222   60.1996 H   0  0  0  0  0  0  0  0  0  0  0  0
  129.0171  122.9824   59.4978 H   0  0  0  0  0  0  0  0  0  0  0  0
  128.6102  121.2328   59.4978 H   0  0  0  0  0  0  0  0  0  0  0  0
  134.5143  125.4521   62.4514 H   0  0  0  0  0  0  0  0  0  0  0  0
  134.4830  122.7905   63.2078 H   0  0  0  0  0  0  0  0  0  0  0  0
  133.5247  122.7662   61.6886 H   0  0  0  0  0  0  0  0  0  0  0  0
  135.1912  123.4367   61.6886 H   0  0  0  0  0  0  0  0  0  0  0  0
  134.1627  124.6410   64.7237 H   0  0  0  0  0  0  0  0  0  0  0  0
  132.8487  125.7862   64.2893 H   0  0  0  0  0  0  0  0  0  0  0  0
  132.5351  124.0175   64.2893 H   0  0  0  0  0  0  0  0  0  0  0  0
  133.7224  125.7648   59.5021 H   0  0  0  0  0  0  0  0  0  0  0  0
  130.9133  126.0552   59.2382 H   0  0  0  0  0  0  0  0  0  0  0  0
  132.1691  126.4429   58.0137 H   0  0  0  0  0  0  0  0  0  0  0  0
  131.3830  124.8278   58.0137 H   0  0  0  0  0  0  0  0  0  0  0  0
  133.4673  123.1026   60.0859 H   0  0  0  0  0  0  0  0  0  0  0  0
  132.4857  123.2325   58.5872 H   0  0  0  0  0  0  0  0  0  0  0  0
  134.2002  123.7684   58.5872 H   0  0  0  0  0  0  0  0  0  0  0  0
  130.4539  127.7682   62.7430 H   0  0  0  0  0  0  0  0  0  0  0  0
  131.5166  128.0642   59.9577 H   0  0  0  0  0  0  0  0  0  0  0  0
  128.4765  132.1173   57.0983 H   0  0  0  0  0  0  0  0  0  0  0  0
  127.8641  129.9769   58.1192 H   0  0  0  0  0  0  0  0  0  0  0  0
  1  2  1  0
  2  3  1  0
  3  4  1  0
  3  5  1  0
  5  6  1  6
  6  7  1  0
  7  8  1  0
  8  9  1  0
  9 10  1  0
 10 11  1  0
 11 12  1  0
 11 13  1  0
 10 14  1  0
 14 15  1  0
 14 16  1  0
 10 17  1  0
 17 18  1  0
 18 19  1  0
 19 20  1  0
 19 21  1  0
 18 22  1  0
 22 23  1  0
 22 24  1  0
 18 25  1  0
 25 26  1  0
 26 27  1  0
 27 28  1  0
 28 29  1  0
 29 30  2  0
 30 31  1  0
 31 32  2  0
 31 33  1  0
 33 34  2  0
 34 35  1  0
 27  5  1  0
 35 29  1  0
 35  5  1  0
 26  7  1  0
  1 36  1  0
  1 37  1  0
  1 38  1  0
  3 39  1  1
  4 40  1  0
  7 41  1  6
  8 42  1  0
  8 43  1  0
 11 44  1  0
 12 45  1  0
 12 46  1  0
 12 47  1  0
 13 48  1  0
 13 49  1  0
 13 50  1  0
 14 51  1  0
 15 52  1  0
 15 53  1  0
 15 54  1  0
 16 55  1  0
 16 56  1  0
 16 57  1  0
 19 58  1  0
 20 59  1  0
 20 60  1  0
 20 61  1  0
 21 62  1  0
 21 63  1  0
 21 64  1  0
 22 65  1  0
 23 66  1  0
 23 67  1  0
 23 68  1  0
 24 69  1  0
 24 70  1  0
 24 71  1  0
 26 72  1  1
 27 73  1  6
 33 74  1  0
 34 75  1  0
M  END
>  <Binding energies>  (1) 
[-4.69]

>  <Ligand effiencies>  (1) 
[-0.12342105263157896]

>  <Interactions>  (1) 
["V-A:ILE:369:CG2:3237, V-A:ASP:366:CA:3210, V-B:PRO:540:CA:9855, V-A:GLY:454:CA:4049, V-A:ILE:369:CB:3236, V-B:ALA:541:CB:9864, V-B:TYR:539:CE2:9848, V-A:TYR:484:CE2:4346, V-B:GLU:543:CG:9879, V-B:TYR:539:C:9839, V-A:ASP:366:CG:3213, V-B:TYR:539:CZ:9849, V-A:TYR:484:CZ:4347, V-A:GLY:453:C:4042, V-B:PRO:540:N:9856, V-A:ILE:369:CD1:3239, V-B:TYR:539:CD2:9846, V-B:GLU:543:CD:9880, V-A:ASP:366:CB:3212, V-A:LEU:475:CD2:4259, H-A:ARG:545:NH2:4928, V-A:ARG:545:CZ:4926, H-A:GLU:543:OE1:4909, V-A:PRO:540:N:4884, H-A:TYR:539:N:4870, V-A:PRO:540:CB:4885, V-A:PRO:540:CA:4883, V-B:PRO:540:C:9853"]

$$$$
ZINC263608880
     RDKit          3D

 75 79  0  0  0  0  0  0  0  0999 V2000
  128.1170  125.4470   58.8040 C   0  0  0  0  0  0  0  0  0  0  0  0
  129.3580  125.4610   59.5020 O   0  0  0  0  0  0  0  0  0  0  0  0
  129.7320  124.3840   60.2930 C   0  0  0  0  0  0  0  0  0  0  0  0
  129.8360  123.0860   59.7690 C   0  0  0  0  0  0  0  0  0  0  0  0
  130.1910  122.0140   60.5760 C   0  0  0  0  0  0  0  0  0  0  0  0
  130.4440  122.2210   61.9240 C   0  0  0  0  0  0  0  0  0  0  0  0
  130.3550  123.5010   62.4880 C   0  0  0  0  0  0  0  0  0  0  0  0
  130.0040  124.6010   61.6680 C   0  0  0  0  0  0  0  0  0  0  0  0
  129.9280  125.9770   62.2870 C   0  0  0  0  0  0  0  0  0  0  0  0
  129.9100  126.9910   61.5870 O   0  0  0  0  0  0  0  0  0  0  0  0
  129.7050  126.0310   63.7910 C   0  0  0  0  0  0  0  0  0  0  0  0
  129.1470  127.1740   64.4120 C   0  0  0  0  0  0  0  0  0  0  0  0
  128.8020  128.2810   63.6670 O   0  0  0  0  0  0  0  0  0  0  0  0
  128.9240  127.2420   65.7990 C   0  0  0  0  0  0  0  0  0  0  0  0
  129.2900  126.1400   66.5990 C   0  0  0  0  0  0  0  0  0  0  0  0
  129.8320  124.9960   65.9920 C   0  0  0  0  0  0  0  0  0  0  0  0
  130.1200  123.9280   66.8130 O   0  0  0  0  0  0  0  0  0  0  0  0
  130.0490  124.9190   64.5970 C   0  0  0  0  0  0  0  0  0  0  0  0
  130.6220  123.6690   63.9550 C   0  0  0  0  0  0  0  0  0  0  0  0
  131.1440  122.7590   64.6040 O   0  0  0  0  0  0  0  0  0  0  0  0
  129.0730  126.1900   68.1240 C   0  0  0  0  0  0  0  0  0  0  0  0
  129.1570  127.6260   68.7180 C   0  0  2  0  0  0  0  0  0  0  0  0
  130.4520  128.1540   68.4570 O   0  0  0  0  0  0  0  0  0  0  0  0
  128.8060  127.6480   70.2360 C   0  0  0  0  0  0  0  0  0  0  0  0
  127.4760  126.9470   70.5930 C   0  0  0  0  0  0  0  0  0  0  0  0
  129.6100  128.1940   71.0740 N   0  0  0  0  0  0  0  0  0  0  0  0
  129.2530  128.1930   72.3750 N   0  0  0  0  0  0  0  0  0  0  0  0
  129.5540  129.2090   73.2030 C   0  0  0  0  0  0  0  0  0  0  0  0
  129.1130  128.9940   74.4430 N   0  0  0  0  0  0  0  0  0  0  0  0
  130.1660  130.2290   72.8900 O   0  0  0  0  0  0  0  0  0  0  0  0
  128.0960  128.4530   67.9620 C   0  0  0  0  0  0  0  0  0  0  0  0
  128.3350  128.5270   66.4320 C   0  0  2  0  0  0  0  0  0  0  0  0
  127.1500  128.9330   65.7350 O   0  0  0  0  0  0  0  0  0  0  0  0
  127.2320  130.0450   64.8950 C   0  0  2  0  0  0  0  0  0  0  0  0
  126.7040  129.5960   63.5310 C   0  0  0  0  0  0  0  0  0  0  0  0
  126.7970  130.7710   62.5360 C   0  0  2  0  0  0  0  0  0  0  0  0
  126.3890  130.2520   61.1450 N   0  0  0  0  0  0  0  0  0  0  0  0
  128.2370  131.3420   62.4860 C   0  0  1  0  0  0  0  0  0  0  0  0
  128.3800  132.4500   61.6100 O   0  0  0  0  0  0  0  0  0  0  0  0
  128.7510  131.6300   63.9220 C   0  0  1  0  0  0  0  0  0  0  0  0
  128.2050  132.9240   64.5670 C   0  0  0  0  0  0  0  0  0  0  0  0
  128.5690  130.4690   64.7520 O   0  0  0  0  0  0  0  0  0  0  0  0
  127.2891  125.4377   59.5282 H   0  0  0  0  0  0  0  0  0  0  0  0
  128.0415  126.3444   58.1723 H   0  0  0  0  0  0  0  0  0  0  0  0
  128.0617  124.5482   58.1723 H   0  0  0  0  0  0  0  0  0  0  0  0
  129.6329  122.9156   58.7014 H   0  0  0  0  0  0  0  0  0  0  0  0
  130.2714  121.0038   60.1481 H   0  0  0  0  0  0  0  0  0  0  0  0
  130.7189  121.3670   62.5605 H   0  0  0  0  0  0  0  0  0  0  0  0
  129.1490  129.0970   64.0370 H   0  0  0  0  0  0  0  0  0  0  0  0
  130.9120  123.4550   66.5460 H   0  0  0  0  0  0  0  0  0  0  0  0
  128.0775  125.7789   68.3474 H   0  0  0  0  0  0  0  0  0  0  0  0
  129.8809  125.6024   68.5844 H   0  0  0  0  0  0  0  0  0  0  0  0
  130.7310  127.8630   67.5850 H   0  0  0  0  0  0  0  0  0  0  0  0
  127.3724  126.8924   71.6867 H   0  0  0  0  0  0  0  0  0  0  0  0
  126.6356  127.5193   70.1732 H   0  0  0  0  0  0  0  0  0  0  0  0
  127.4732  125.9303   70.1732 H   0  0  0  0  0  0  0  0  0  0  0  0
  128.7460  127.3790   72.6900 H   0  0  0  0  0  0  0  0  0  0  0  0
  128.6120  128.1480   74.6720 H   0  0  0  0  0  0  0  0  0  0  0  0
  129.2800  129.6840   75.1620 H   0  0  0  0  0  0  0  0  0  0  0  0
  127.1106  127.9967   68.1376 H   0  0  0  0  0  0  0  0  0  0  0  0
  128.1576  129.4818   68.3464 H   0  0  0  0  0  0  0  0  0  0  0  0
  129.1124  129.2961   66.3130 H   0  0  0  0  0  0  0  0  0  0  0  0
  126.6537  130.8834   65.3106 H   0  0  0  0  0  0  0  0  0  0  0  0
  127.3079  128.7538   63.1624 H   0  0  0  0  0  0  0  0  0  0  0  0
  125.6555  129.2779   63.6284 H   0  0  0  0  0  0  0  0  0  0  0  0
  126.1269  131.5816   62.8585 H   0  0  0  0  0  0  0  0  0  0  0  0
  125.3850  130.2890   61.0400 H   0  0  0  0  0  0  0  0  0  0  0  0
  126.6910  129.2940   61.0320 H   0  0  0  0  0  0  0  0  0  0  0  0
  126.8130  130.8160   60.4220 H   0  0  0  0  0  0  0  0  0  0  0  0
  128.8815  130.5674   62.0448 H   0  0  0  0  0  0  0  0  0  0  0  0
  128.9950  133.0760   62.0020 H   0  0  0  0  0  0  0  0  0  0  0  0
  129.8276  131.8361   63.8303 H   0  0  0  0  0  0  0  0  0  0  0  0
  128.2437  132.8322   65.6625 H   0  0  0  0  0  0  0  0  0  0  0  0
  128.8188  133.7795   64.2488 H   0  0  0  0  0  0  0  0  0  0  0  0
  127.1638  133.0812   64.2488 H   0  0  0  0  0  0  0  0  0  0  0  0
  1  2  1  0
  2  3  1  0
  3  4  2  0
  4  5  1  0
  5  6  2  0
  6  7  1  0
  7  8  2  0
  8  9  1  0
  9 10  2  0
  9 11  1  0
 11 12  2  0
 12 13  1  0
 12 14  1  0
 14 15  2  0
 15 16  1  0
 16 17  1  0
 16 18  2  0
 18 19  1  0
 19 20  2  0
 15 21  1  0
 21 22  1  0
 22 23  1  1
 22 24  1  0
 24 25  1  0
 24 26  2  0
 26 27  1  0
 27 28  1  0
 28 29  1  0
 28 30  2  0
 22 31  1  0
 31 32  1  0
 32 33  1  0
 33 34  1  0
 34 35  1  0
 35 36  1  0
 36 37  1  0
 36 38  1  0
 38 39  1  0
 38 40  1  0
 40 41  1  0
 40 42  1  0
  8  3  1  0
 18 11  1  0
 42 34  1  0
 19  7  1  0
 32 14  1  0
  1 43  1  0
  1 44  1  0
  1 45  1  0
  4 46  1  0
  5 47  1  0
  6 48  1  0
 13 49  1  0
 17 50  1  0
 21 51  1  0
 21 52  1  0
 23 53  1  0
 25 54  1  0
 25 55  1  0
 25 56  1  0
 27 57  1  0
 29 58  1  0
 29 59  1  0
 31 60  1  0
 31 61  1  0
 32 62  1  1
 34 63  1  1
 35 64  1  0
 35 65  1  0
 36 66  1  1
 37 67  1  0
 37 68  1  0
 37 69  1  0
 38 70  1  6
 39 71  1  0
 40 72  1  6
 41 73  1  0
 41 74  1  0
 41 75  1  0
M  CHG  1  37   1
M  END
>  <Binding energies>  (1) 
[-5.81]

>  <Ligand effiencies>  (1) 
[-0.11173076923076922]

>  <Interactions>  (1) 
["V-B:GLU:543:C:9874, H-A:GLU:543:OE2:4910, V-B:HIS:456:CD2:9039, V-B:GLU:543:CB:9878, V-B:TYR:539:CE2:9848, V-B:GLU:543:CG:9879, V-B:LEU:475:CD2:9230, V-B:TYR:484:CE2:9317, V-B:TYR:539:CZ:9849, V-A:ALA:541:CB:4892, V-A:GLU:543:CD:4908, H-B:TYR:484:OH:9319, V-B:HIS:456:CE1:9041, V-B:GLU:543:CA:9876, V-A:HIS:456:CE1:4070, V-B:TYR:484:CZ:9318, V-B:GLY:544:C:9884, V-B:TYR:539:CD2:9846, V-A:GLU:543:CG:4907, V-B:GLU:543:CD:9880, H-A:LYS:547:NZ:4951, V-A:LEU:475:CD2:4259, H-A:GLU:543:OE1:4909, V-A:GLU:543:CB:4906, H-A:TYR:484:OH:4348"]

$$$$
ZINC263636957
     RDKit          3D

 86 87  0  0  0  0  0  0  0  0999 V2000
  129.1200  124.7830   63.9870 C   0  0  0  0  0  0  0  0  0  0  0  0
  130.1340  123.8190   64.6300 C   0  0  0  0  0  0  0  0  0  0  0  0
  129.3820  122.8140   65.5300 C   0  0  0  0  0  0  0  0  0  0  0  0
  131.2640  124.6040   65.3610 C   0  0  2  0  0  0  0  0  0  0  0  0
  130.7540  125.8300   65.9750 N   0  0  0  0  0  0  0  0  0  0  0  0
  130.2160  125.8890   67.2060 C   0  0  0  0  0  0  0  0  0  0  0  0
  129.9830  124.8950   67.8940 O   0  0  0  0  0  0  0  0  0  0  0  0
  129.8560  127.3000   67.7260 C   0  0  1  0  0  0  0  0  0  0  0  0
  128.4040  127.7000   67.3150 C   0  0  0  0  0  0  0  0  0  0  0  0
  128.2850  128.3190   65.9140 C   0  0  0  0  0  0  0  0  0  0  0  0
  127.4880  129.3830   65.7860 N   0  0  0  0  0  0  0  0  0  0  0  0
  128.9100  127.8490   64.9650 O   0  0  0  0  0  0  0  0  0  0  0  0
  130.1070  127.4560   69.1710 N   0  0  0  0  0  0  0  0  0  0  0  0
  129.3350  127.0610   70.2000 C   0  0  0  0  0  0  0  0  0  0  0  0
  128.2720  126.4500   70.0860 O   0  0  0  0  0  0  0  0  0  0  0  0
  129.8320  127.4810   71.3760 N   0  0  0  0  0  0  0  0  0  0  0  0
  129.1220  127.4530   72.6620 C   0  0  1  0  0  0  0  0  0  0  0  0
  129.8740  126.5720   73.6730 C   0  0  0  0  0  0  0  0  0  0  0  0
  128.8250  128.8330   73.2640 C   0  0  0  0  0  0  0  0  0  0  0  0
  129.5230  129.9530   72.8020 C   0  0  0  0  0  0  0  0  0  0  0  0
  129.2810  131.2070   73.3580 C   0  0  0  0  0  0  0  0  0  0  0  0
  128.3440  131.3400   74.3790 C   0  0  0  0  0  0  0  0  0  0  0  0
  128.0180  133.0530   75.1420 Br  0  0  0  0  0  0  0  0  0  0  0  0
  127.6440  130.2310   74.8480 C   0  0  0  0  0  0  0  0  0  0  0  0
  127.8840  128.9780   74.2910 C   0  0  0  0  0  0  0  0  0  0  0  0
  132.3750  124.9840   64.3630 C   0  0  0  0  0  0  0  0  0  0  0  0
  133.5380  125.0940   64.7550 O   0  0  0  0  0  0  0  0  0  0  0  0
  131.9880  125.1350   63.0850 N   0  0  0  0  0  0  0  0  0  0  0  0
  132.8860  125.4070   61.9540 C   0  0  2  0  0  0  0  0  0  0  0  0
  132.0860  125.6710   60.6490 C   0  0  0  0  0  0  0  0  0  0  0  0
  130.6540  125.0810   60.6380 C   0  0  0  0  0  0  0  0  0  0  0  0
  129.5790  126.0120   60.0390 C   0  0  0  0  0  0  0  0  0  0  0  0
  128.5230  126.3940   60.9930 N   0  0  0  0  0  0  0  0  0  0  0  0
  128.6500  127.1740   62.0720 C   0  0  0  0  0  0  0  0  0  0  0  0
  129.8150  127.6450   62.5080 N   0  0  0  0  0  0  0  0  0  0  0  0
  127.5580  127.4930   62.7490 N   0  0  0  0  0  0  0  0  0  0  0  0
  133.9560  124.2810   61.7950 C   0  0  1  0  0  0  0  0  0  0  0  0
  135.1210  124.6400   62.5270 O   0  0  0  0  0  0  0  0  0  0  0  0
  133.4790  122.8500   62.2070 C   0  0  1  0  0  0  0  0  0  0  0  0
  132.0410  122.7230   62.0890 N   0  0  0  0  0  0  0  0  0  0  0  0
  131.6780  121.8150   61.2790 C   0  0  0  0  0  0  0  0  0  0  0  0
  132.7040  120.9890   60.5440 C   0  0  0  0  0  0  0  0  0  0  0  0
  134.2560  121.5070   61.2710 S   0  0  0  0  0  0  0  0  0  0  0  0
  128.5647  125.3110   64.7762 H   0  0  0  0  0  0  0  0  0  0  0  0
  129.6543  125.5143   63.3627 H   0  0  0  0  0  0  0  0  0  0  0  0
  128.4166  124.2124   63.3627 H   0  0  0  0  0  0  0  0  0  0  0  0
  130.6480  123.2328   63.8540 H   0  0  0  0  0  0  0  0  0  0  0  0
  129.5655  123.0593   66.5865 H   0  0  0  0  0  0  0  0  0  0  0  0
  128.3033  122.8716   65.3222 H   0  0  0  0  0  0  0  0  0  0  0  0
  129.7416  121.7954   65.3222 H   0  0  0  0  0  0  0  0  0  0  0  0
  131.6628  123.9478   66.1486 H   0  0  0  0  0  0  0  0  0  0  0  0
  130.8990  126.6800   65.4510 H   0  0  0  0  0  0  0  0  0  0  0  0
  130.5367  128.0110   67.2350 H   0  0  0  0  0  0  0  0  0  0  0  0
  127.7773  126.7965   67.3456 H   0  0  0  0  0  0  0  0  0  0  0  0
  128.0797  128.4734   68.0268 H   0  0  0  0  0  0  0  0  0  0  0  0
  126.9930  129.7500   66.5850 H   0  0  0  0  0  0  0  0  0  0  0  0
  127.3810  129.8310   64.8880 H   0  0  0  0  0  0  0  0  0  0  0  0
  130.9800  127.9110   69.3930 H   0  0  0  0  0  0  0  0  0  0  0  0
  130.8180  127.6960   71.4220 H   0  0  0  0  0  0  0  0  0  0  0  0
  128.1369  127.0162   72.4412 H   0  0  0  0  0  0  0  0  0  0  0  0
  129.6106  126.8806   74.6954 H   0  0  0  0  0  0  0  0  0  0  0  0
  129.5916  125.5194   73.5234 H   0  0  0  0  0  0  0  0  0  0  0  0
  130.9578  126.6856   73.5234 H   0  0  0  0  0  0  0  0  0  0  0  0
  130.2651  129.8435   71.9974 H   0  0  0  0  0  0  0  0  0  0  0  0
  129.8279  132.0884   72.9919 H   0  0  0  0  0  0  0  0  0  0  0  0
  126.9050  130.3447   75.6548 H   0  0  0  0  0  0  0  0  0  0  0  0
  127.3332  128.0996   74.6584 H   0  0  0  0  0  0  0  0  0  0  0  0
  131.0120  124.9970   62.8580 H   0  0  0  0  0  0  0  0  0  0  0  0
  133.4400  126.3323   62.1706 H   0  0  0  0  0  0  0  0  0  0  0  0
  132.0094  126.7592   60.5081 H   0  0  0  0  0  0  0  0  0  0  0  0
  132.6359  125.1679   59.8400 H   0  0  0  0  0  0  0  0  0  0  0  0
  130.6703  124.1523   60.0487 H   0  0  0  0  0  0  0  0  0  0  0  0
  130.3755  124.9203   61.6900 H   0  0  0  0  0  0  0  0  0  0  0  0
  130.0731  126.9283   59.6837 H   0  0  0  0  0  0  0  0  0  0  0  0
  129.0898  125.4546   59.2266 H   0  0  0  0  0  0  0  0  0  0  0  0
  127.6850  125.8320   60.9610 H   0  0  0  0  0  0  0  0  0  0  0  0
  129.8390  128.4550   63.1110 H   0  0  0  0  0  0  0  0  0  0  0  0
  130.6760  127.1920   62.2320 H   0  0  0  0  0  0  0  0  0  0  0  0
  126.7250  126.9290   62.6570 H   0  0  0  0  0  0  0  0  0  0  0  0
  127.5570  128.3030   63.3520 H   0  0  0  0  0  0  0  0  0  0  0  0
  134.1654  124.2094   60.7175 H   0  0  0  0  0  0  0  0  0  0  0  0
  134.9170  125.4140   63.0580 H   0  0  0  0  0  0  0  0  0  0  0  0
  133.7942  122.7449   63.2556 H   0  0  0  0  0  0  0  0  0  0  0  0
  130.6067  121.6293   61.1120 H   0  0  0  0  0  0  0  0  0  0  0  0
  132.5331  119.9145   60.7060 H   0  0  0  0  0  0  0  0  0  0  0  0
  132.6712  121.1355   59.4543 H   0  0  0  0  0  0  0  0  0  0  0  0
  1  2  1  0
  2  3  1  0
  2  4  1  0
  4  5  1  0
  5  6  1  0
  6  7  2  0
  6  8  1  0
  8  9  1  0
  9 10  1  0
 10 11  1  0
 10 12  2  0
  8 13  1  0
 13 14  1  0
 14 15  2  0
 14 16  1  0
 16 17  1  0
 17 18  1  0
 17 19  1  0
 19 20  2  0
 20 21  1  0
 21 22  2  0
 22 23  1  0
 22 24  1  0
 24 25  2  0
  4 26  1  0
 26 27  2  0
 26 28  1  0
 28 29  1  0
 29 30  1  0
 30 31  1  0
 31 32  1  0
 32 33  1  0
 33 34  1  0
 34 35  1  0
 34 36  2  0
 29 37  1  0
 37 38  1  0
 37 39  1  0
 39 40  1  0
 40 41  2  0
 41 42  1  0
 42 43  1  0
 25 19  1  0
 43 39  1  0
  1 44  1  0
  1 45  1  0
  1 46  1  0
  2 47  1  0
  3 48  1  0
  3 49  1  0
  3 50  1  0
  4 51  1  1
  5 52  1  0
  8 53  1  6
  9 54  1  0
  9 55  1  0
 11 56  1  0
 11 57  1  0
 13 58  1  0
 16 59  1  0
 17 60  1  6
 18 61  1  0
 18 62  1  0
 18 63  1  0
 20 64  1  0
 21 65  1  0
 24 66  1  0
 25 67  1  0
 28 68  1  0
 29 69  1  1
 30 70  1  0
 30 71  1  0
 31 72  1  0
 31 73  1  0
 32 74  1  0
 32 75  1  0
 33 76  1  0
 35 77  1  0
 35 78  1  0
 36 79  1  0
 36 80  1  0
 37 81  1  6
 38 82  1  0
 39 83  1  1
 41 84  1  0
 42 85  1  0
 42 86  1  0
M  CHG  1  36   1
M  END
>  <Binding energies>  (1) 
[-8.04]

>  <Ligand effiencies>  (1) 
[-0.14618181818181816]

>  <Interactions>  (1) 
["V-A:ILE:369:CG2:3237, V-B:HIS:456:CD2:9039, H-A:GLU:543:OE2:4910, V-A:GLU:543:C:4902, V-B:GLU:543:CB:9878, V-B:ALA:541:CB:9864, H-A:ARG:545:NH1:4927, V-A:TYR:484:CE2:4346, V-B:TYR:539:CE2:9848, V-B:GLU:543:CG:9879, V-A:HIS:456:CD2:4068, V-A:ASP:366:CG:3213, H-B:GLU:543:OE1:9881, V-A:TYR:484:CZ:4347, V-A:GLU:543:CD:4908, H-B:TYR:484:OH:9319, V-B:GLU:543:CA:9876, H-A:GLY:454:N:4050, V-B:HIS:456:CE1:9041, V-A:HIS:456:CE1:4070, V-B:TYR:484:CZ:9318, V-A:ILE:369:CD1:3239, V-B:TYR:539:CD2:9846, V-A:GLU:543:CG:4907, V-B:GLU:543:CD:9880, V-A:LEU:475:CD2:4259, H-A:ARG:545:NH2:4928, V-A:ARG:545:CZ:4926, H-A:GLU:543:OE1:4909, V-A:GLU:543:CB:4906, H-A:ASP:366:OD1:3214, H-B:GLU:543:OE2:9882, V-A:LYS:547:CE:4950, H-A:ARG:545:NE:4924, V-B:ASP:473:CG:9211, H-A:GLY:544:O:4913, H-A:HIS:456:NE2:4071, H-A:TYR:484:OH:4348, H-A:GLU:543:O:4903"]

$$$$
ZINC26638223
     RDKit          3D

 72 75  0  0  0  0  0  0  0  0999 V2000
  127.7690  124.7960   57.9720 C   0  0  0  0  0  0  0  0  0  0  0  0
  127.1000  123.5470   58.5820 C   0  0  0  0  0  0  0  0  0  0  0  0
  126.1900  122.8890   57.5200 C   0  0  0  0  0  0  0  0  0  0  0  0
  126.3900  123.8690   59.9400 C   0  0  2  0  0  0  0  0  0  0  0  0
  126.4340  125.3040   60.2480 N   0  0  0  0  0  0  0  0  0  0  0  0
  127.4250  125.9400   60.9060 C   0  0  0  0  0  0  0  0  0  0  0  0
  128.4240  125.3670   61.3570 O   0  0  0  0  0  0  0  0  0  0  0  0
  127.2010  127.4060   61.0390 C   0  0  0  0  0  0  0  0  0  0  0  0
  126.2370  127.9820   60.5270 O   0  0  0  0  0  0  0  0  0  0  0  0
  128.1840  128.0120   61.7460 N   0  0  0  0  0  0  0  0  0  0  0  0
  128.2970  129.3590   62.1540 C   0  0  0  0  0  0  0  0  0  0  0  0
  128.1450  129.7580   63.4910 C   0  0  0  0  0  0  0  0  0  0  0  0
  128.3060  131.0840   63.8700 C   0  0  0  0  0  0  0  0  0  0  0  0
  128.6400  132.0530   62.9330 C   0  0  0  0  0  0  0  0  0  0  0  0
  128.8330  131.6990   61.5770 C   0  0  0  0  0  0  0  0  0  0  0  0
  129.1860  132.6690   60.6110 C   0  0  0  0  0  0  0  0  0  0  0  0
  129.3890  132.3530   59.2510 C   0  0  0  0  0  0  0  0  0  0  0  0
  129.7420  133.3340   58.2920 C   0  0  0  0  0  0  0  0  0  0  0  0
  129.9320  132.9760   56.9580 C   0  0  0  0  0  0  0  0  0  0  0  0
  129.7790  131.6550   56.5530 C   0  0  0  0  0  0  0  0  0  0  0  0
  129.4320  130.6670   57.4720 C   0  0  0  0  0  0  0  0  0  0  0  0
  129.2310  131.0000   58.8360 C   0  0  0  0  0  0  0  0  0  0  0  0
  128.8770  130.0310   59.8000 C   0  0  0  0  0  0  0  0  0  0  0  0
  128.6690  130.3380   61.1740 C   0  0  0  0  0  0  0  0  0  0  0  0
  127.0330  123.0400   61.0800 C   0  0  0  0  0  0  0  0  0  0  0  0
  126.4210  122.8710   62.1370 O   0  0  0  0  0  0  0  0  0  0  0  0
  128.2600  122.5460   60.8310 N   0  0  0  0  0  0  0  0  0  0  0  0
  129.0820  121.7440   61.7540 C   0  0  1  0  0  0  0  0  0  0  0  0
  130.4020  121.2700   61.0400 C   0  0  0  0  0  0  0  0  0  0  0  0
  130.7230  119.7680   60.9000 C   0  0  0  0  0  0  0  0  0  0  0  0
  130.0340  118.9740   61.5770 O   0  0  0  0  0  0  0  0  0  0  0  0
  131.7350  119.4560   60.2330 O   0  0  0  0  0  0  0  0  0  0  0  0
  129.2340  122.5400   63.0610 C   0  0  0  0  0  0  0  0  0  0  0  0
  128.4080  122.5180   63.9790 O   0  0  0  0  0  0  0  0  0  0  0  0
  130.5230  123.3640   63.1980 C   0  0  0  0  0  0  0  0  0  0  0  0
  130.6450  124.2990   62.1280 O   0  0  0  0  0  0  0  0  0  0  0  0
  131.8760  124.3070   61.5220 C   0  0  0  0  0  0  0  0  0  0  0  0
  131.9530  124.2500   60.1260 C   0  0  0  0  0  0  0  0  0  0  0  0
  130.8210  124.2010   59.3840 F   0  0  0  0  0  0  0  0  0  0  0  0
  133.1990  124.2500   59.4930 C   0  0  0  0  0  0  0  0  0  0  0  0
  133.2740  124.2030   58.1430 F   0  0  0  0  0  0  0  0  0  0  0  0
  134.3680  124.3010   60.2510 C   0  0  0  0  0  0  0  0  0  0  0  0
  134.2970  124.3470   61.6430 C   0  0  0  0  0  0  0  0  0  0  0  0
  135.4350  124.3900   62.3730 F   0  0  0  0  0  0  0  0  0  0  0  0
  133.0530  124.3490   62.2810 C   0  0  0  0  0  0  0  0  0  0  0  0
  132.9930  124.3850   63.6320 F   0  0  0  0  0  0  0  0  0  0  0  0
  128.1216  125.4544   58.7796 H   0  0  0  0  0  0  0  0  0  0  0  0
  128.6229  124.4881   57.3507 H   0  0  0  0  0  0  0  0  0  0  0  0
  127.0395  125.3362   57.3507 H   0  0  0  0  0  0  0  0  0  0  0  0
  127.8657  122.8051   58.8529 H   0  0  0  0  0  0  0  0  0  0  0  0
  125.3967  122.3154   58.0216 H   0  0  0  0  0  0  0  0  0  0  0  0
  125.7366  123.6695   56.8913 H   0  0  0  0  0  0  0  0  0  0  0  0
  126.7891  122.2139   56.8913 H   0  0  0  0  0  0  0  0  0  0  0  0
  125.3300  123.5899   59.8476 H   0  0  0  0  0  0  0  0  0  0  0  0
  125.6520  125.8470   59.9090 H   0  0  0  0  0  0  0  0  0  0  0  0
  128.9290  127.4140   62.0720 H   0  0  0  0  0  0  0  0  0  0  0  0
  127.8935  129.0058   64.2532 H   0  0  0  0  0  0  0  0  0  0  0  0
  128.1676  131.3699   64.9232 H   0  0  0  0  0  0  0  0  0  0  0  0
  128.7551  133.1010   63.2467 H   0  0  0  0  0  0  0  0  0  0  0  0
  129.3075  133.7137   60.9331 H   0  0  0  0  0  0  0  0  0  0  0  0
  129.8667  134.3823   58.6010 H   0  0  0  0  0  0  0  0  0  0  0  0
  130.2051  133.7448   56.2202 H   0  0  0  0  0  0  0  0  0  0  0  0
  129.9333  131.3873   55.4973 H   0  0  0  0  0  0  0  0  0  0  0  0
  129.3135  129.6254   57.1387 H   0  0  0  0  0  0  0  0  0  0  0  0
  128.7561  128.9877   59.4730 H   0  0  0  0  0  0  0  0  0  0  0  0
  128.6910  122.7500   59.9400 H   0  0  0  0  0  0  0  0  0  0  0  0
  128.6079  120.7940   62.0415 H   0  0  0  0  0  0  0  0  0  0  0  0
  130.3737  121.6821   60.0205 H   0  0  0  0  0  0  0  0  0  0  0  0
  131.1909  121.6283   61.7178 H   0  0  0  0  0  0  0  0  0  0  0  0
  130.5018  123.9099   64.1527 H   0  0  0  0  0  0  0  0  0  0  0  0
  131.3832  122.6791   63.1663 H   0  0  0  0  0  0  0  0  0  0  0  0
  135.3475  124.3050   59.7505 H   0  0  0  0  0  0  0  0  0  0  0  0
  1  2  1  0
  2  3  1  0
  2  4  1  0
  4  5  1  0
  5  6  1  0
  6  7  2  0
  6  8  1  0
  8  9  2  0
  8 10  1  0
 10 11  1  0
 11 12  2  0
 12 13  1  0
 13 14  2  0
 14 15  1  0
 15 16  2  0
 16 17  1  0
 17 18  2  0
 18 19  1  0
 19 20  2  0
 20 21  1  0
 21 22  2  0
 22 23  1  0
 23 24  2  0
  4 25  1  0
 25 26  2  0
 25 27  1  0
 27 28  1  0
 28 29  1  0
 29 30  1  0
 30 31  2  0
 30 32  1  0
 28 33  1  0
 33 34  2  0
 33 35  1  0
 35 36  1  0
 36 37  1  0
 37 38  2  0
 38 39  1  0
 38 40  1  0
 40 41  1  0
 40 42  2  0
 42 43  1  0
 43 44  1  0
 43 45  2  0
 45 46  1  0
 24 11  1  0
 45 37  1  0
 24 15  1  0
 22 17  1  0
  1 47  1  0
  1 48  1  0
  1 49  1  0
  2 50  1  0
  3 51  1  0
  3 52  1  0
  3 53  1  0
  4 54  1  6
  5 55  1  0
 10 56  1  0
 12 57  1  0
 13 58  1  0
 14 59  1  0
 16 60  1  0
 18 61  1  0
 19 62  1  0
 20 63  1  0
 21 64  1  0
 23 65  1  0
 27 66  1  0
 28 67  1  1
 29 68  1  0
 29 69  1  0
 35 70  1  0
 35 71  1  0
 42 72  1  0
M  CHG  1  32  -1
M  END
>  <Binding energies>  (1) 
[-7.67]

>  <Ligand effiencies>  (1) 
[-0.15653061224489795]

>  <Interactions>  (1) 
["V-A:ILE:369:CG2:3237, V-A:ASP:366:CA:3210, V-B:PRO:540:CA:9855, V-A:ILE:369:CB:3236, V-B:ALA:541:CB:9864, V-B:TYR:539:CE2:9848, V-A:ASP:366:CG:3213, V-A:TYR:539:CD1:4873, V-B:TYR:539:CZ:9849, V-A:ILE:538:CA:4860, V-A:ALA:541:CB:4892, H-B:ALA:541:N:9863, V-A:TYR:539:CA:4869, V-A:GLU:543:CD:4908, V-B:PRO:540:CB:9857, H-B:ASP:366:OD1:8185, V-A:GLY:453:C:4042, V-B:PRO:540:N:9856, V-A:ILE:369:CD1:3239, V-B:PRO:540:CD:9859, V-A:GLU:543:CG:4907, V-B:TYR:539:CD2:9846, H-A:SER:385:OG:3410, V-A:MET:535:CE:4835, V-A:TYR:539:C:4867, V-A:ASP:366:CB:3212, V-A:LEU:475:CD2:4259, V-A:ARG:545:CZ:4926, H-A:GLU:543:OE1:4909, H-A:HIS:383:HE2:3395, V-A:PRO:540:N:4884, V-A:PRO:540:CB:4885, V-A:PRO:540:CA:4883, V-A:GLY:453:CA:4044, H-B:TYR:539:O:9840, V-B:PRO:540:C:9853, V-A:PRO:540:CD:4887"]

$$$$
ZINC267054543
     RDKit          3D

 51 52  0  0  0  0  0  0  0  0999 V2000
  133.2070  121.0240   61.1910 C   0  0  0  0  0  0  0  0  0  0  0  0
  133.4560  122.3690   61.8920 C   0  0  0  0  0  0  0  0  0  0  0  0
  133.0630  123.5830   61.0460 C   0  0  0  0  0  0  0  0  0  0  0  0
  133.5680  123.6500   59.7450 C   0  0  0  0  0  0  0  0  0  0  0  0
  133.2160  124.6960   58.9000 C   0  0  0  0  0  0  0  0  0  0  0  0
  132.3370  125.6850   59.3290 C   0  0  0  0  0  0  0  0  0  0  0  0
  131.9510  126.9550   58.2160 Cl  0  0  0  0  0  0  0  0  0  0  0  0
  131.7980  125.6400   60.6280 C   0  0  0  0  0  0  0  0  0  0  0  0
  130.8160  126.7290   61.0880 C   0  0  0  0  0  0  0  0  0  0  0  0
  129.3610  126.2400   61.1210 C   0  0  0  0  0  0  0  0  0  0  0  0
  132.1870  124.5950   61.4980 C   0  0  0  0  0  0  0  0  0  0  0  0
  131.6460  124.5600   62.7960 N   0  0  0  0  0  0  0  0  0  0  0  0
  132.3610  124.5030   63.9430 C   0  0  0  0  0  0  0  0  0  0  0  0
  133.5960  124.5190   63.9470 O   0  0  0  0  0  0  0  0  0  0  0  0
  131.6250  124.4670   65.0900 N   0  0  0  0  0  0  0  0  0  0  0  0
  131.7920  125.4820   66.1350 C   0  0  0  0  0  0  0  0  0  0  0  0
  130.5050  123.5420   65.3520 C   0  0  0  0  0  0  0  0  0  0  0  0
  129.8030  123.0930   64.0840 C   0  0  0  0  0  0  0  0  0  0  0  0
  128.9400  123.7590   63.3660 N   0  0  0  0  0  0  0  0  0  0  0  0
  128.7140  122.9290   62.3680 C   0  0  0  0  0  0  0  0  0  0  0  0
  127.7600  123.2760   61.2290 C   0  0  1  0  0  0  0  0  0  0  0  0
  128.1710  122.5820   59.9210 C   0  0  0  0  0  0  0  0  0  0  0  0
  126.4250  122.8620   61.5250 O   0  0  0  0  0  0  0  0  0  0  0  0
  125.4050  123.8040   61.2150 C   0  0  0  0  0  0  0  0  0  0  0  0
  129.3550  121.7800   62.4060 N   0  0  0  0  0  0  0  0  0  0  0  0
  130.1120  121.8770   63.5730 O   0  0  0  0  0  0  0  0  0  0  0  0
  133.0615  120.2381   61.9467 H   0  0  0  0  0  0  0  0  0  0  0  0
  132.3075  121.0992   60.5623 H   0  0  0  0  0  0  0  0  0  0  0  0
  134.0738  120.7722   60.5623 H   0  0  0  0  0  0  0  0  0  0  0  0
  132.8704  122.3896   62.8230 H   0  0  0  0  0  0  0  0  0  0  0  0
  134.5380  122.4411   62.0767 H   0  0  0  0  0  0  0  0  0  0  0  0
  134.2515  122.8666   59.3856 H   0  0  0  0  0  0  0  0  0  0  0  0
  133.6358  124.7420   57.8843 H   0  0  0  0  0  0  0  0  0  0  0  0
  131.1006  127.0549   62.0993 H   0  0  0  0  0  0  0  0  0  0  0  0
  130.8724  127.5546   60.3632 H   0  0  0  0  0  0  0  0  0  0  0  0
  129.0347  126.1303   62.1657 H   0  0  0  0  0  0  0  0  0  0  0  0
  128.7168  126.9710   60.6105 H   0  0  0  0  0  0  0  0  0  0  0  0
  129.2891  125.2683   60.6105 H   0  0  0  0  0  0  0  0  0  0  0  0
  130.6410  124.6310   62.8640 H   0  0  0  0  0  0  0  0  0  0  0  0
  131.7138  125.0065   67.1238 H   0  0  0  0  0  0  0  0  0  0  0  0
  132.7800  125.9546   66.0325 H   0  0  0  0  0  0  0  0  0  0  0  0
  131.0075  126.2463   66.0325 H   0  0  0  0  0  0  0  0  0  0  0  0
  130.8966  122.6541   65.8700 H   0  0  0  0  0  0  0  0  0  0  0  0
  129.7676  124.0807   65.9652 H   0  0  0  0  0  0  0  0  0  0  0  0
  127.8070  124.3689   61.1133 H   0  0  0  0  0  0  0  0  0  0  0  0
  128.7189  121.6569   60.1532 H   0  0  0  0  0  0  0  0  0  0  0  0
  127.2714  122.3385   59.3367 H   0  0  0  0  0  0  0  0  0  0  0  0
  128.8170  123.2538   59.3367 H   0  0  0  0  0  0  0  0  0  0  0  0
  124.9761  124.2001   62.1473 H   0  0  0  0  0  0  0  0  0  0  0  0
  125.8345  124.6299   60.6290 H   0  0  0  0  0  0  0  0  0  0  0  0
  124.6158  123.3103   60.6290 H   0  0  0  0  0  0  0  0  0  0  0  0
  1  2  1  0
  2  3  1  0
  3  4  2  0
  4  5  1  0
  5  6  2  0
  6  7  1  0
  6  8  1  0
  8  9  1  0
  9 10  1  0
  8 11  2  0
 11 12  1  0
 12 13  1  0
 13 14  2  0
 13 15  1  0
 15 16  1  0
 15 17  1  0
 17 18  1  0
 18 19  2  0
 19 20  1  0
 20 21  1  0
 21 22  1  0
 21 23  1  0
 23 24  1  0
 20 25  2  0
 25 26  1  0
 11  3  1  0
 26 18  1  0
  1 27  1  0
  1 28  1  0
  1 29  1  0
  2 30  1  0
  2 31  1  0
  4 32  1  0
  5 33  1  0
  9 34  1  0
  9 35  1  0
 10 36  1  0
 10 37  1  0
 10 38  1  0
 12 39  1  0
 16 40  1  0
 16 41  1  0
 16 42  1  0
 17 43  1  0
 17 44  1  0
 21 45  1  6
 22 46  1  0
 22 47  1  0
 22 48  1  0
 24 49  1  0
 24 50  1  0
 24 51  1  0
M  END
>  <Binding energies>  (1) 
[-5.93]

>  <Ligand effiencies>  (1) 
[-0.21962962962962962]

>  <Interactions>  (1) 
["V-A:ILE:369:CG2:3237, V-A:ASP:366:CA:3210, V-B:PRO:540:CA:9855, V-A:ILE:369:CB:3236, V-B:ALA:541:CB:9864, V-B:TYR:539:CE2:9848, V-A:TYR:484:CE2:4346, V-B:GLU:543:CG:9879, V-B:TYR:539:C:9839, V-A:ASP:366:CG:3213, H-B:ALA:541:N:9863, V-A:TYR:484:CZ:4347, V-A:GLU:543:CD:4908, V-B:PRO:540:CB:9857, H-A:GLY:454:N:4050, V-B:PRO:540:N:9856, V-A:HIS:456:CE1:4070, V-A:ILE:369:CD1:3239, V-B:TYR:539:CD2:9846, V-A:SER:385:CB:3409, V-A:ASP:366:CB:3212, V-A:LEU:475:CD2:4259, H-A:ARG:545:NH2:4928, H-A:TYR:484:OH:4348"]

$$$$
ZINC26744334
     RDKit          3D

 34 36  0  0  0  0  0  0  0  0999 V2000
  134.3520  122.1100   61.6320 C   0  0  0  0  0  0  0  0  0  0  0  0
  134.4540  123.2700   62.3080 C   0  0  0  0  0  0  0  0  0  0  0  0
  133.3210  123.9880   62.8770 C   0  0  0  0  0  0  0  0  0  0  0  0
  133.2120  124.2770   64.1550 N   0  0  0  0  0  0  0  0  0  0  0  0
  132.0510  124.9340   64.2670 C   0  0  0  0  0  0  0  0  0  0  0  0
  131.4020  125.5050   65.3870 C   0  0  0  0  0  0  0  0  0  0  0  0
  131.9260  125.4570   66.6780 N   0  0  0  0  0  0  0  0  0  0  0  0
  130.2100  126.1310   65.1900 N   0  0  0  0  0  0  0  0  0  0  0  0
  129.7230  126.1720   63.9420 C   0  0  0  0  0  0  0  0  0  0  0  0
  130.2440  125.6710   62.8120 N   0  0  0  0  0  0  0  0  0  0  0  0
  131.4290  125.0480   63.0380 C   0  0  0  0  0  0  0  0  0  0  0  0
  132.2600  124.4190   62.1450 N   0  0  0  0  0  0  0  0  0  0  0  0
  131.9790  124.3050   60.6520 C   0  0  1  0  0  0  0  0  0  0  0  0
  130.5230  124.4240   60.2220 C   0  0  0  0  0  0  0  0  0  0  0  0
  130.7300  124.7520   58.7560 C   0  0  0  0  0  0  0  0  0  0  0  0
  131.9580  125.6650   58.7600 C   0  0  2  0  0  0  0  0  0  0  0  0
  132.9020  125.5590   57.5440 C   0  0  0  0  0  0  0  0  0  0  0  0
  133.6440  124.3550   57.5350 O   0  0  0  0  0  0  0  0  0  0  0  0
  132.6630  125.2960   59.9430 O   0  0  0  0  0  0  0  0  0  0  0  0
  135.2547  121.6259   61.2309 H   0  0  0  0  0  0  0  0  0  0  0  0
  133.3660  121.6464   61.4808 H   0  0  0  0  0  0  0  0  0  0  0  0
  135.4566  123.7032   62.4390 H   0  0  0  0  0  0  0  0  0  0  0  0
  132.1040  126.3200   67.1720 H   0  0  0  0  0  0  0  0  0  0  0  0
  132.1180  124.5610   67.0990 H   0  0  0  0  0  0  0  0  0  0  0  0
  128.7593  126.6900   63.8282 H   0  0  0  0  0  0  0  0  0  0  0  0
  132.3139  123.2818   60.4262 H   0  0  0  0  0  0  0  0  0  0  0  0
  129.9747  123.4804   60.3594 H   0  0  0  0  0  0  0  0  0  0  0  0
  129.9224  125.1516   60.7876 H   0  0  0  0  0  0  0  0  0  0  0  0
  130.9215  123.8392   58.1728 H   0  0  0  0  0  0  0  0  0  0  0  0
  129.8492  125.2233   58.2955 H   0  0  0  0  0  0  0  0  0  0  0  0
  131.6148  126.7092   58.7158 H   0  0  0  0  0  0  0  0  0  0  0  0
  132.2996  125.6085   56.6249 H   0  0  0  0  0  0  0  0  0  0  0  0
  133.6184  126.3915   57.6047 H   0  0  0  0  0  0  0  0  0  0  0  0
  134.5670  124.5610   57.7030 H   0  0  0  0  0  0  0  0  0  0  0  0
  1  2  2  0
  2  3  1  0
  3  4  2  0
  4  5  1  0
  5  6  2  0
  6  7  1  0
  6  8  1  0
  8  9  2  0
  9 10  1  0
 10 11  2  0
 11 12  1  0
 12 13  1  0
 13 14  1  0
 14 15  1  0
 15 16  1  0
 16 17  1  0
 17 18  1  0
 16 19  1  0
 12  3  1  0
 19 13  1  0
 11  5  1  0
  1 20  1  0
  1 21  1  0
  2 22  1  0
  7 23  1  0
  7 24  1  0
  9 25  1  0
 13 26  1  6
 14 27  1  0
 14 28  1  0
 15 29  1  0
 15 30  1  0
 16 31  1  1
 17 32  1  0
 17 33  1  0
 18 34  1  0
M  END
>  <Binding energies>  (1) 
[-5.11]

>  <Ligand effiencies>  (1) 
[-0.2322727272727273]

>  <Interactions>  (1) 
["V-A:ILE:369:CG2:3237, V-A:ASP:366:CA:3210, V-A:GLY:454:CA:4049, H-A:GLU:543:OE2:4910, V-B:TYR:539:CE2:9848, V-A:ASP:366:CG:3213, V-B:TYR:539:CZ:9849, H-A:ASN:370:N:3244, H-B:TYR:539:OH:9850, V-A:GLU:543:CD:4908, V-A:TYR:484:CZ:4347, H-A:GLY:454:N:4050, V-A:SER:385:C:3405, V-A:GLY:453:C:4042, V-A:ILE:369:CD1:3239, V-A:HIS:456:CE1:4070, V-A:ASP:366:C:3208, V-B:GLU:543:CD:9880, V-A:ASP:366:CB:3212, H-A:ASP:366:O:3209, H-A:TYR:484:OH:4348"]

$$$$
ZINC2694308
     RDKit          3D

 30 31  0  0  0  0  0  0  0  0999 V2000
  131.3580  127.7110   71.8730 N   0  0  0  0  0  0  0  0  0  0  0  0
  129.9830  127.5890   71.6680 C   0  0  0  0  0  0  0  0  0  0  0  0
  129.4910  127.3810   70.3760 C   0  0  0  0  0  0  0  0  0  0  0  0
  128.1160  127.2410   70.1600 C   0  0  0  0  0  0  0  0  0  0  0  0
  127.5080  126.9790   68.5260 S   0  0  0  0  0  0  0  0  0  0  0  0
  128.9340  127.2680   67.4320 C   0  0  0  0  0  0  0  0  0  0  0  0
  128.4900  127.3940   66.1810 F   0  0  0  0  0  0  0  0  0  0  0  0
  129.4870  128.4390   67.7580 F   0  0  0  0  0  0  0  0  0  0  0  0
  129.9890  126.1310   67.5170 C   0  0  0  0  0  0  0  0  0  0  0  0
  131.1280  126.6160   68.0180 F   0  0  0  0  0  0  0  0  0  0  0  0
  129.5710  125.2010   68.3800 F   0  0  0  0  0  0  0  0  0  0  0  0
  130.2860  125.4540   66.1540 C   0  0  0  0  0  0  0  0  0  0  0  0
  130.0290  126.2790   65.1390 F   0  0  0  0  0  0  0  0  0  0  0  0
  131.5620  125.0830   66.0500 F   0  0  0  0  0  0  0  0  0  0  0  0
  129.5500  124.3570   65.9710 F   0  0  0  0  0  0  0  0  0  0  0  0
  127.2210  127.3090   71.2310 C   0  0  0  0  0  0  0  0  0  0  0  0
  127.7080  127.5250   72.5200 C   0  0  0  0  0  0  0  0  0  0  0  0
  129.0810  127.6680   72.7350 C   0  0  0  0  0  0  0  0  0  0  0  0
  129.5380  127.8200   74.0310 O   0  0  0  0  0  0  0  0  0  0  0  0
  128.6580  128.5620   74.9070 C   0  0  0  0  0  0  0  0  0  0  0  0
  127.1740  128.0950   74.8350 C   0  0  0  0  0  0  0  0  0  0  0  0
  126.3840  128.1510   75.7750 O   0  0  0  0  0  0  0  0  0  0  0  0
  126.8540  127.6100   73.6180 N   0  0  0  0  0  0  0  0  0  0  0  0
  131.7140  127.7500   72.8180 H   0  0  0  0  0  0  0  0  0  0  0  0
  131.9830  127.7180   71.0800 H   0  0  0  0  0  0  0  0  0  0  0  0
  130.1875  127.3272   69.5263 H   0  0  0  0  0  0  0  0  0  0  0  0
  126.1408  127.1931   71.0588 H   0  0  0  0  0  0  0  0  0  0  0  0
  129.0119  128.4399   75.9413 H   0  0  0  0  0  0  0  0  0  0  0  0
  128.6838  129.6117   74.5792 H   0  0  0  0  0  0  0  0  0  0  0  0
  125.8870  127.3460   73.5030 H   0  0  0  0  0  0  0  0  0  0  0  0
  1  2  1  0
  2  3  2  0
  3  4  1  0
  4  5  1  0
  5  6  1  0
  6  7  1  0
  6  8  1  0
  6  9  1  0
  9 10  1  0
  9 11  1  0
  9 12  1  0
 12 13  1  0
 12 14  1  0
 12 15  1  0
  4 16  2  0
 16 17  1  0
 17 18  2  0
 18 19  1  0
 19 20  1  0
 20 21  1  0
 21 22  2  0
 21 23  1  0
 18  2  1  0
 23 17  1  0
  1 24  1  0
  1 25  1  0
  3 26  1  0
 16 27  1  0
 20 28  1  0
 20 29  1  0
 23 30  1  0
M  END
>  <Binding energies>  (1) 
[-4.2]

>  <Ligand effiencies>  (1) 
[-0.16153846153846155]

>  <Interactions>  (1) 
["V-A:GLU:543:CA:4904, V-B:HIS:456:CD2:9039, V-B:GLU:543:C:9874, V-B:GLU:543:CB:9878, H-B:LYS:547:NZ:9923, V-A:TYR:484:CE2:4346, V-B:GLU:543:CG:9879, V-A:GLY:544:C:4912, V-A:HIS:456:CD2:4068, V-B:LYS:547:CE:9922, V-A:GLU:543:CD:4908, V-A:TYR:484:CZ:4347, V-B:HIS:456:CE1:9041, V-A:ARG:545:CG:4922, V-B:GLU:543:CA:9876, V-A:HIS:456:CE1:4070, V-B:GLY:544:C:9884, V-A:GLU:543:CG:4907, V-B:GLU:543:CD:9880, V-B:HIS:456:CG:9037, H-A:LYS:547:NZ:4951, V-A:GLU:543:CB:4906, H-B:GLY:544:O:9885, H-A:GLY:544:O:4913, H-A:HIS:456:NE2:4071"]

$$$$
ZINC27097129
     RDKit          3D

 47 49  0  0  0  0  0  0  0  0999 V2000
  131.7220  125.4730   66.6380 N   0  0  0  0  0  0  0  0  0  0  0  0
  131.3100  124.9770   65.4010 C   0  0  0  0  0  0  0  0  0  0  0  0
  129.9760  124.8620   65.1860 N   0  0  0  0  0  0  0  0  0  0  0  0
  129.5380  124.3870   63.9920 C   0  0  0  0  0  0  0  0  0  0  0  0
  130.3690  123.9910   62.9390 C   0  0  0  0  0  0  0  0  0  0  0  0
  131.7430  124.1100   63.1790 C   0  0  0  0  0  0  0  0  0  0  0  0
  132.2360  124.6100   64.4090 C   0  0  0  0  0  0  0  0  0  0  0  0
  133.5990  124.6410   64.3720 N   0  0  0  0  0  0  0  0  0  0  0  0
  133.9830  124.1800   63.1340 N   0  0  0  0  0  0  0  0  0  0  0  0
  132.8790  123.8340   62.4340 N   0  0  0  0  0  0  0  0  0  0  0  0
  132.9800  123.3650   61.0480 C   0  0  2  0  0  0  0  0  0  0  0  0
  134.3330  123.6810   60.3830 C   0  0  0  0  0  0  0  0  0  0  0  0
  134.0590  124.7080   59.4350 O   0  0  0  0  0  0  0  0  0  0  0  0
  132.7510  124.4900   58.9200 C   0  0  2  0  0  0  0  0  0  0  0  0
  132.2620  125.7900   58.2570 C   0  0  0  0  0  0  0  0  0  0  0  0
  130.8550  125.9150   58.3960 O   0  0  0  0  0  0  0  0  0  0  0  0
  130.2070  126.7180   59.6570 P   0  0  0  0  0  0  0  0  0  0  0  0
  130.9220  126.5490   60.9520 O   0  0  0  0  0  0  0  0  0  0  0  0
  130.1110  128.2540   59.1190 O   0  0  0  0  0  0  0  0  0  0  0  0
  131.2430  128.9160   58.5800 C   0  0  0  0  0  0  0  0  0  0  0  0
  131.2730  130.3850   59.0420 C   0  0  0  0  0  0  0  0  0  0  0  0
  129.9610  131.2810   58.2380 Cl  0  0  0  0  0  0  0  0  0  0  0  0
  131.0490  130.4730   60.8090 Cl  0  0  0  0  0  0  0  0  0  0  0  0
  132.8370  131.1240   58.6040 Cl  0  0  0  0  0  0  0  0  0  0  0  0
  128.6520  126.2250   59.6580 O   0  0  0  0  0  0  0  0  0  0  0  0
  128.1230  125.4820   58.5680 C   0  0  0  0  0  0  0  0  0  0  0  0
  127.5000  124.1620   59.0570 C   0  0  0  0  0  0  0  0  0  0  0  0
  126.1570  124.5290   60.1710 Cl  0  0  0  0  0  0  0  0  0  0  0  0
  126.8730  123.2400   57.6650 Cl  0  0  0  0  0  0  0  0  0  0  0  0
  128.7240  123.1890   59.9150 Cl  0  0  0  0  0  0  0  0  0  0  0  0
  131.9500  124.0300   60.1390 C   0  0  0  0  0  0  0  0  0  0  0  0
  131.6550  126.4640   66.8230 H   0  0  0  0  0  0  0  0  0  0  0  0
  132.0870  124.8350   67.3300 H   0  0  0  0  0  0  0  0  0  0  0  0
  128.4512  124.3079   63.8419 H   0  0  0  0  0  0  0  0  0  0  0  0
  129.9699  123.6117   61.9867 H   0  0  0  0  0  0  0  0  0  0  0  0
  132.8279  122.2795   61.1410 H   0  0  0  0  0  0  0  0  0  0  0  0
  135.0572  124.0327   61.1326 H   0  0  0  0  0  0  0  0  0  0  0  0
  134.7718  122.7918   59.9068 H   0  0  0  0  0  0  0  0  0  0  0  0
  132.6661  123.7316   58.1278 H   0  0  0  0  0  0  0  0  0  0  0  0
  132.7519  126.6493   58.7382 H   0  0  0  0  0  0  0  0  0  0  0  0
  132.5147  125.7628   57.1868 H   0  0  0  0  0  0  0  0  0  0  0  0
  132.1571  128.4091   58.9226 H   0  0  0  0  0  0  0  0  0  0  0  0
  131.1853  128.8872   57.4819 H   0  0  0  0  0  0  0  0  0  0  0  0
  127.3497  126.0810   58.0648 H   0  0  0  0  0  0  0  0  0  0  0  0
  128.9410  125.2486   57.8705 H   0  0  0  0  0  0  0  0  0  0  0  0
  131.4836  124.8888   60.6438 H   0  0  0  0  0  0  0  0  0  0  0  0
  131.1314  123.3475   59.8669 H   0  0  0  0  0  0  0  0  0  0  0  0
  1  2  1  0
  2  3  2  0
  3  4  1  0
  4  5  2  0
  5  6  1  0
  6  7  2  0
  7  8  1  0
  8  9  2  0
  9 10  1  0
 10 11  1  0
 11 12  1  0
 12 13  1  0
 13 14  1  0
 14 15  1  0
 15 16  1  0
 16 17  1  0
 17 18  2  0
 17 19  1  0
 19 20  1  0
 20 21  1  0
 21 22  1  0
 21 23  1  0
 21 24  1  0
 17 25  1  0
 25 26  1  0
 26 27  1  0
 27 28  1  0
 27 29  1  0
 27 30  1  0
 14 31  1  0
  7  2  1  0
 31 11  1  0
 10  6  1  0
  1 32  1  0
  1 33  1  0
  4 34  1  0
  5 35  1  0
 11 36  1  1
 12 37  1  0
 12 38  1  0
 14 39  1  6
 15 40  1  0
 15 41  1  0
 20 42  1  0
 20 43  1  0
 26 44  1  0
 26 45  1  0
 31 46  1  0
 31 47  1  0
M  END
>  <Binding energies>  (1) 
[-6.89]

>  <Ligand effiencies>  (1) 
[-0.20878787878787877]

>  <Interactions>  (1) 
["V-A:ILE:369:CG2:3237, V-B:PRO:540:CA:9855, H-A:GLU:543:OE2:4910, V-A:ILE:369:CB:3236, V-B:TYR:539:CE2:9848, V-B:GLU:543:CG:9879, V-A:ASP:366:CG:3213, V-A:LEU:363:CD1:3189, V-B:TYR:539:CZ:9849, H-B:TYR:539:OH:9850, V-A:TYR:484:CZ:4347, H-A:GLY:454:N:4050, V-B:PRO:540:N:9856, V-A:ILE:369:CD1:3239, V-A:HIS:456:CE1:4070, V-B:TYR:539:CD2:9846, V-B:GLU:543:CD:9880, V-A:ILE:369:CG1:3238, V-A:ASP:366:CB:3212, H-A:ARG:545:NH2:4928, V-A:PRO:540:CB:4885, H-A:ARG:545:NE:4924, H-A:TYR:484:OH:4348"]

$$$$
ZINC27327510
     RDKit          3D

 74 77  0  0  0  0  0  0  0  0999 V2000
  127.4490  123.2300   62.3710 C   0  0  0  0  0  0  0  0  0  0  0  0
  127.9850  122.2110   61.5300 O   0  0  0  0  0  0  0  0  0  0  0  0
  129.3520  122.1900   61.3630 C   0  0  0  0  0  0  0  0  0  0  0  0
  130.0970  123.2480   61.1360 N   0  0  0  0  0  0  0  0  0  0  0  0
  131.3710  122.7540   61.0270 C   0  0  0  0  0  0  0  0  0  0  0  0
  132.5730  123.4390   60.7820 C   0  0  0  0  0  0  0  0  0  0  0  0
  132.4670  124.8070   60.6310 O   0  0  0  0  0  0  0  0  0  0  0  0
  132.7200  125.6440   61.7550 C   0  0  0  0  0  0  0  0  0  0  0  0
  131.3940  125.9040   62.4720 C   0  0  0  0  0  0  0  0  0  0  0  0
  131.2460  125.5960   63.8370 C   0  0  0  0  0  0  0  0  0  0  0  0
  132.5400  124.9270   64.7740 Cl  0  0  0  0  0  0  0  0  0  0  0  0
  130.0340  125.8370   64.4830 C   0  0  0  0  0  0  0  0  0  0  0  0
  128.9650  126.3930   63.7910 C   0  0  0  0  0  0  0  0  0  0  0  0
  129.1010  126.7240   62.4410 C   0  0  0  0  0  0  0  0  0  0  0  0
  128.0040  127.3000   61.7790 N   0  0  0  0  0  0  0  0  0  0  0  0
  127.1220  126.3800   61.0550 C   0  0  0  0  0  0  0  0  0  0  0  0
  127.7140  128.6300   61.8660 C   0  0  0  0  0  0  0  0  0  0  0  0
  128.3650  129.4810   61.2520 O   0  0  0  0  0  0  0  0  0  0  0  0
  126.5840  129.1230   62.8110 C   0  0  0  0  0  0  0  0  0  0  0  0
  126.9930  129.0070   64.2130 N   0  0  0  0  0  0  0  0  0  0  0  0
  127.6670  129.9490   64.8980 C   0  0  0  0  0  0  0  0  0  0  0  0
  128.0070  131.0300   64.4110 O   0  0  0  0  0  0  0  0  0  0  0  0
  127.9370  129.5690   66.2660 C   0  0  0  0  0  0  0  0  0  0  0  0
  127.9780  128.2790   66.6680 C   0  0  0  0  0  0  0  0  0  0  0  0
  128.2430  127.8020   68.0420 C   0  0  0  0  0  0  0  0  0  0  0  0
  127.2220  127.3440   68.8840 C   0  0  0  0  0  0  0  0  0  0  0  0
  127.5140  126.9220   70.1790 C   0  0  0  0  0  0  0  0  0  0  0  0
  128.8320  126.9390   70.6540 C   0  0  0  0  0  0  0  0  0  0  0  0
  129.1160  126.5170   72.0800 C   0  0  0  0  0  0  0  0  0  0  0  0
  128.7390  125.3990   72.4450 O   0  0  0  0  0  0  0  0  0  0  0  0
  129.7410  127.3770   72.9290 N   0  0  0  0  0  0  0  0  0  0  0  0
  130.5730  128.5120   72.5210 C   0  0  0  0  0  0  0  0  0  0  0  0
  129.6940  127.1970   74.3820 C   0  0  0  0  0  0  0  0  0  0  0  0
  129.8480  127.4150   69.8140 C   0  0  0  0  0  0  0  0  0  0  0  0
  129.5550  127.8340   68.5180 C   0  0  0  0  0  0  0  0  0  0  0  0
  130.3140  126.4770   61.7720 C   0  0  0  0  0  0  0  0  0  0  0  0
  130.4770  126.9030   60.0940 Cl  0  0  0  0  0  0  0  0  0  0  0  0
  133.7560  122.6880   60.7100 C   0  0  0  0  0  0  0  0  0  0  0  0
  133.7450  121.3030   60.8780 C   0  0  0  0  0  0  0  0  0  0  0  0
  132.5660  120.5960   61.1270 C   0  0  0  0  0  0  0  0  0  0  0  0
  131.3860  121.3440   61.2000 C   0  0  0  0  0  0  0  0  0  0  0  0
  130.0660  121.0100   61.4280 N   0  0  0  0  0  0  0  0  0  0  0  0
  129.5320  119.6740   61.6420 C   0  0  0  0  0  0  0  0  0  0  0  0
  127.5959  122.9507   63.4247 H   0  0  0  0  0  0  0  0  0  0  0  0
  127.9637  124.1809   62.1685 H   0  0  0  0  0  0  0  0  0  0  0  0
  126.3739  123.3446   62.1685 H   0  0  0  0  0  0  0  0  0  0  0  0
  133.4209  125.1443   62.4399 H   0  0  0  0  0  0  0  0  0  0  0  0
  133.1642  126.5949   61.4256 H   0  0  0  0  0  0  0  0  0  0  0  0
  129.9234  125.5852   65.5481 H   0  0  0  0  0  0  0  0  0  0  0  0
  128.0104  126.5727   64.3071 H   0  0  0  0  0  0  0  0  0  0  0  0
  126.5469  125.7801   61.7756 H   0  0  0  0  0  0  0  0  0  0  0  0
  126.4303  126.9563   60.4230 H   0  0  0  0  0  0  0  0  0  0  0  0
  127.7269  125.7132   60.4230 H   0  0  0  0  0  0  0  0  0  0  0  0
  126.3595  130.1762   62.5864 H   0  0  0  0  0  0  0  0  0  0  0  0
  125.6920  128.4996   62.6504 H   0  0  0  0  0  0  0  0  0  0  0  0
  126.7760  128.1340   64.6720 H   0  0  0  0  0  0  0  0  0  0  0  0
  128.1161  130.3602   67.0089 H   0  0  0  0  0  0  0  0  0  0  0  0
  127.7972  127.5120   65.9005 H   0  0  0  0  0  0  0  0  0  0  0  0
  126.1840  127.3174   68.5208 H   0  0  0  0  0  0  0  0  0  0  0  0
  126.7027  126.5724   70.8344 H   0  0  0  0  0  0  0  0  0  0  0  0
  130.9519  129.0289   73.4150 H   0  0  0  0  0  0  0  0  0  0  0  0
  131.4202  128.1486   71.9209 H   0  0  0  0  0  0  0  0  0  0  0  0
  129.9715  129.2106   71.9209 H   0  0  0  0  0  0  0  0  0  0  0  0
  129.9421  128.1473   74.8774 H   0  0  0  0  0  0  0  0  0  0  0  0
  128.6833  126.8812   74.6798 H   0  0  0  0  0  0  0  0  0  0  0  0
  130.4213  126.4274   74.6798 H   0  0  0  0  0  0  0  0  0  0  0  0
  130.8842  127.4581   70.1806 H   0  0  0  0  0  0  0  0  0  0  0  0
  130.3639  128.1929   67.8646 H   0  0  0  0  0  0  0  0  0  0  0  0
  134.7099  123.2008   60.5175 H   0  0  0  0  0  0  0  0  0  0  0  0
  134.6940  120.7506   60.8124 H   0  0  0  0  0  0  0  0  0  0  0  0
  132.5655  119.5040   61.2593 H   0  0  0  0  0  0  0  0  0  0  0  0
  129.4540  119.4789   62.7217 H   0  0  0  0  0  0  0  0  0  0  0  0
  128.5351  119.5997   61.1830 H   0  0  0  0  0  0  0  0  0  0  0  0
  130.2031  118.9330   61.1830 H   0  0  0  0  0  0  0  0  0  0  0  0
  1  2  1  0
  2  3  1  0
  3  4  2  0
  4  5  1  0
  5  6  2  0
  6  7  1  0
  7  8  1  0
  8  9  1  0
  9 10  2  0
 10 11  1  0
 10 12  1  0
 12 13  2  0
 13 14  1  0
 14 15  1  0
 15 16  1  0
 15 17  1  0
 17 18  2  0
 17 19  1  0
 19 20  1  0
 20 21  1  0
 21 22  2  0
 21 23  1  0
 23 24  2  0
 24 25  1  0
 25 26  2  0
 26 27  1  0
 27 28  2  0
 28 29  1  0
 29 30  2  0
 29 31  1  0
 31 32  1  0
 31 33  1  0
 28 34  1  0
 34 35  2  0
 14 36  2  0
 36 37  1  0
  6 38  1  0
 38 39  2  0
 39 40  1  0
 40 41  2  0
 41 42  1  0
 42 43  1  0
 42  3  1  0
 41  5  1  0
 36  9  1  0
 35 25  1  0
  1 44  1  0
  1 45  1  0
  1 46  1  0
  8 47  1  0
  8 48  1  0
 12 49  1  0
 13 50  1  0
 16 51  1  0
 16 52  1  0
 16 53  1  0
 19 54  1  0
 19 55  1  0
 20 56  1  0
 23 57  1  0
 24 58  1  0
 26 59  1  0
 27 60  1  0
 32 61  1  0
 32 62  1  0
 32 63  1  0
 33 64  1  0
 33 65  1  0
 33 66  1  0
 34 67  1  0
 35 68  1  0
 38 69  1  0
 39 70  1  0
 40 71  1  0
 43 72  1  0
 43 73  1  0
 43 74  1  0
M  END
>  <Binding energies>  (1) 
[-8.46]

>  <Ligand effiencies>  (1) 
[-0.1922727272727273]

>  <Interactions>  (1) 
["V-A:ILE:369:CG2:3237, V-B:GLU:543:C:9874, V-A:ILE:369:CB:3236, V-B:GLU:543:CB:9878, H-B:LYS:547:NZ:9923, V-B:ALA:541:CB:9864, V-B:TYR:539:CE2:9848, V-A:GLY:544:CA:4914, V-B:GLU:543:CG:9879, V-A:GLY:544:C:4912, V-B:TYR:539:C:9839, V-A:ASP:366:CG:3213, V-A:HIS:456:CD2:4068, H-B:GLU:543:OE1:9881, H-B:ALA:541:N:9863, V-A:GLU:543:CD:4908, H-B:TYR:484:OH:9319, V-B:HIS:456:CE1:9041, V-A:ILE:369:CD1:3239, V-B:TYR:484:CZ:9318, V-A:HIS:456:CE1:4070, V-B:GLY:544:C:9884, V-B:TYR:539:CD2:9846, V-A:GLU:543:CG:4907, V-A:SER:385:CB:3409, V-B:GLU:543:CD:9880, V-A:LEU:475:CD2:4259, V-A:ARG:545:CZ:4926, V-A:GLU:543:CB:4906, H-B:GLU:543:OE2:9882, V-A:SER:385:CA:3407, V-B:PRO:540:C:9853, V-B:ALA:541:CA:9862"]

$$$$
ZINC27328515
     RDKit          3D

 71 78  0  0  0  0  0  0  0  0999 V2000
  128.7110  126.1870   56.4970 C   0  0  0  0  0  0  0  0  0  0  0  0
  129.7240  126.5840   57.4120 O   0  0  0  0  0  0  0  0  0  0  0  0
  129.4040  127.6970   58.2510 C   0  0  1  0  0  0  0  0  0  0  0  0
  128.0270  127.5850   59.0060 C   0  0  1  0  0  0  0  0  0  0  0  0
  127.7760  126.3760   59.8610 N   0  0  0  0  0  0  0  0  0  0  0  0
  127.2190  126.6200   61.2040 C   0  0  0  0  0  0  0  0  0  0  0  0
  128.3170  125.1470   59.6060 C   0  0  0  0  0  0  0  0  0  0  0  0
  129.4910  124.9920   59.2690 O   0  0  0  0  0  0  0  0  0  0  0  0
  127.4160  123.8940   59.7080 C   0  0  0  0  0  0  0  0  0  0  0  0
  126.5570  123.6110   58.4390 C   0  0  0  0  0  0  0  0  0  0  0  0
  127.2900  122.8260   57.3240 C   0  0  0  0  0  0  0  0  0  0  0  0
  128.3910  123.2910   56.9510 O   0  0  0  0  0  0  0  0  0  0  0  0
  126.7870  121.7720   56.8710 O   0  0  0  0  0  0  0  0  0  0  0  0
  127.9130  128.9810   59.6910 C   0  0  0  0  0  0  0  0  0  0  0  0
  129.0960  129.3260   60.5960 C   0  0  2  0  0  0  0  0  0  0  0  0
  130.3260  129.2410   59.9350 O   0  0  0  0  0  0  0  0  0  0  0  0
  130.6160  128.0940   59.1640 C   0  0  2  0  0  0  0  0  0  0  0  0
  131.7620  128.6260   58.2810 C   0  0  0  0  0  0  0  0  0  0  0  0
  131.0590  126.9760   60.0250 N   0  0  0  0  0  0  0  0  0  0  0  0
  131.8900  125.8940   59.6750 C   0  0  0  0  0  0  0  0  0  0  0  0
  132.5030  125.5360   58.4580 C   0  0  0  0  0  0  0  0  0  0  0  0
  133.2990  124.3910   58.4320 C   0  0  0  0  0  0  0  0  0  0  0  0
  133.4920  123.6050   59.5600 C   0  0  0  0  0  0  0  0  0  0  0  0
  132.8780  123.9260   60.7640 C   0  0  0  0  0  0  0  0  0  0  0  0
  132.0630  125.0690   60.8280 C   0  0  0  0  0  0  0  0  0  0  0  0
  131.2990  125.6080   61.8650 C   0  0  0  0  0  0  0  0  0  0  0  0
  131.0590  125.2200   63.1940 C   0  0  0  0  0  0  0  0  0  0  0  0
  130.2110  125.9570   64.0120 C   0  0  0  0  0  0  0  0  0  0  0  0
  129.5590  127.1070   63.5110 C   0  0  0  0  0  0  0  0  0  0  0  0
  128.6310  128.0460   64.0210 C   0  0  0  0  0  0  0  0  0  0  0  0
  127.9800  128.1960   65.2600 C   0  0  0  0  0  0  0  0  0  0  0  0
  127.0830  129.2450   65.4340 C   0  0  0  0  0  0  0  0  0  0  0  0
  126.8230  130.1450   64.4080 C   0  0  0  0  0  0  0  0  0  0  0  0
  127.4460  130.0400   63.1670 C   0  0  0  0  0  0  0  0  0  0  0  0
  128.3510  128.9830   62.9820 C   0  0  0  0  0  0  0  0  0  0  0  0
  129.0980  128.6340   61.8630 N   0  0  0  0  0  0  0  0  0  0  0  0
  129.8160  127.4940   62.1740 C   0  0  0  0  0  0  0  0  0  0  0  0
  130.6790  126.7620   61.3540 C   0  0  0  0  0  0  0  0  0  0  0  0
  130.1700  125.3020   65.3620 C   0  0  0  0  0  0  0  0  0  0  0  0
  129.5640  125.6320   66.3770 O   0  0  0  0  0  0  0  0  0  0  0  0
  130.9730  124.2310   65.2520 N   0  0  0  0  0  0  0  0  0  0  0  0
  131.5930  124.0450   63.9550 C   0  0  0  0  0  0  0  0  0  0  0  0
  127.8282  125.8410   57.0547 H   0  0  0  0  0  0  0  0  0  0  0  0
  128.4327  127.0426   55.8641 H   0  0  0  0  0  0  0  0  0  0  0  0
  129.0882  125.3702   55.8641 H   0  0  0  0  0  0  0  0  0  0  0  0
  129.2304  128.5466   57.5743 H   0  0  0  0  0  0  0  0  0  0  0  0
  127.1979  127.3739   58.3146 H   0  0  0  0  0  0  0  0  0  0  0  0
  127.9458  126.3016   61.9658 H   0  0  0  0  0  0  0  0  0  0  0  0
  127.0082  127.6929   61.3241 H   0  0  0  0  0  0  0  0  0  0  0  0
  126.2874  126.0476   61.3241 H   0  0  0  0  0  0  0  0  0  0  0  0
  128.0606  123.0211   59.8883 H   0  0  0  0  0  0  0  0  0  0  0  0
  126.7087  124.0832   60.5289 H   0  0  0  0  0  0  0  0  0  0  0  0
  125.6751  123.0290   58.7449 H   0  0  0  0  0  0  0  0  0  0  0  0
  126.3010  124.5918   58.0118 H   0  0  0  0  0  0  0  0  0  0  0  0
  127.8431  129.7476   58.9052 H   0  0  0  0  0  0  0  0  0  0  0  0
  127.0195  128.9500   60.3318 H   0  0  0  0  0  0  0  0  0  0  0  0
  128.9482  130.3850   60.8543 H   0  0  0  0  0  0  0  0  0  0  0  0
  132.5735  129.0027   58.9210 H   0  0  0  0  0  0  0  0  0  0  0  0
  132.1434  127.8128   57.6459 H   0  0  0  0  0  0  0  0  0  0  0  0
  131.3870  129.4421   57.6459 H   0  0  0  0  0  0  0  0  0  0  0  0
  132.3577  126.1433   57.5525 H   0  0  0  0  0  0  0  0  0  0  0  0
  133.7883  124.1022   57.4901 H   0  0  0  0  0  0  0  0  0  0  0  0
  134.1389  122.7174   59.4996 H   0  0  0  0  0  0  0  0  0  0  0  0
  133.0273  123.2956   61.6530 H   0  0  0  0  0  0  0  0  0  0  0  0
  128.1783  127.4917   66.0814 H   0  0  0  0  0  0  0  0  0  0  0  0
  126.5709  129.3639   66.4002 H   0  0  0  0  0  0  0  0  0  0  0  0
  126.1065  130.9616   64.5804 H   0  0  0  0  0  0  0  0  0  0  0  0
  127.2366  130.7590   62.3612 H   0  0  0  0  0  0  0  0  0  0  0  0
  131.1330  123.5890   66.0150 H   0  0  0  0  0  0  0  0  0  0  0  0
  132.6902  124.0780   64.0262 H   0  0  0  0  0  0  0  0  0  0  0  0
  131.3730  123.0730   63.4893 H   0  0  0  0  0  0  0  0  0  0  0  0
  1  2  1  0
  2  3  1  0
  3  4  1  0
  4  5  1  0
  5  6  1  0
  5  7  1  0
  7  8  2  0
  7  9  1  0
  9 10  1  0
 10 11  1  0
 11 12  2  0
 11 13  1  0
  4 14  1  0
 14 15  1  0
 15 16  1  0
 16 17  1  0
 17 18  1  6
 17 19  1  0
 19 20  1  0
 20 21  2  0
 21 22  1  0
 22 23  2  0
 23 24  1  0
 24 25  2  0
 25 26  1  0
 26 27  2  0
 27 28  1  0
 28 29  2  0
 29 30  1  0
 30 31  2  0
 31 32  1  0
 32 33  2  0
 33 34  1  0
 34 35  2  0
 35 36  1  0
 36 37  1  0
 37 38  2  0
 28 39  1  0
 39 40  2  0
 39 41  1  0
 41 42  1  0
 17  3  1  0
 38 19  1  0
 36 15  1  0
 25 20  1  0
 38 26  1  0
 42 27  1  0
 37 29  1  0
 35 30  1  0
  1 43  1  0
  1 44  1  0
  1 45  1  0
  3 46  1  6
  4 47  1  6
  6 48  1  0
  6 49  1  0
  6 50  1  0
  9 51  1  0
  9 52  1  0
 10 53  1  0
 10 54  1  0
 14 55  1  0
 14 56  1  0
 15 57  1  1
 18 58  1  0
 18 59  1  0
 18 60  1  0
 21 61  1  0
 22 62  1  0
 23 63  1  0
 24 64  1  0
 31 65  1  0
 32 66  1  0
 33 67  1  0
 34 68  1  0
 41 69  1  0
 42 70  1  0
 42 71  1  0
M  CHG  1  13  -1
M  END
>  <Binding energies>  (1) 
[-7.13]

>  <Ligand effiencies>  (1) 
[-0.16581395348837208]

>  <Interactions>  (1) 
["V-A:ILE:369:CG2:3237, V-A:ASP:366:CA:3210, V-B:PRO:540:CA:9855, V-A:ILE:369:CB:3236, H-A:TYR:531:OH:4795, V-B:TYR:539:CE2:9848, V-A:TYR:484:CE2:4346, H-B:TYR:539:N:9842, V-B:GLU:543:CG:9879, V-B:TYR:539:C:9839, V-A:ASP:366:CG:3213, V-B:TYR:539:CZ:9849, H-B:TYR:539:OH:9850, V-A:GLU:543:CD:4908, V-A:TYR:484:CZ:4347, V-B:PRO:540:CB:9857, V-B:PRO:540:N:9856, V-A:TYR:531:CZ:4794, V-B:GLU:543:CD:9880, V-A:ASP:366:CB:3212, H-A:TYR:484:OH:4348"]

$$$$
ZINC27423291
     RDKit          3D

 77 77  0  0  0  0  0  0  0  0999 V2000
  131.8270  125.2190   65.6170 C   0  0  0  0  0  0  0  0  0  0  0  0
  130.3510  124.7840   65.6780 C   0  0  0  0  0  0  0  0  0  0  0  0
  129.8610  124.7220   67.1380 C   0  0  0  0  0  0  0  0  0  0  0  0
  130.1390  123.4500   64.9090 C   0  0  0  0  0  0  0  0  0  0  0  0
  129.5260  123.5490   63.4790 C   0  0  1  0  0  0  0  0  0  0  0  0
  129.5360  125.0040   62.9490 C   0  0  0  0  0  0  0  0  0  0  0  0
  130.5570  125.6890   63.0270 O   0  0  0  0  0  0  0  0  0  0  0  0
  128.3870  125.4640   62.4230 N   0  0  0  0  0  0  0  0  0  0  0  0
  128.1500  126.8360   61.9610 C   0  0  2  0  0  0  0  0  0  0  0  0
  127.7900  127.7360   63.1680 C   0  0  0  0  0  0  0  0  0  0  0  0
  126.9380  128.6150   63.0210 O   0  0  0  0  0  0  0  0  0  0  0  0
  128.4900  127.4920   64.2980 N   0  0  0  0  0  0  0  0  0  0  0  0
  128.3880  128.1830   65.4950 C   0  0  0  0  0  0  0  0  0  0  0  0
  128.5540  127.7150   66.7130 N   0  0  0  0  0  0  0  0  0  0  0  0
  128.3700  128.6530   67.6220 C   0  0  0  0  0  0  0  0  0  0  0  0
  128.0460  129.9190   67.1430 C   0  0  0  0  0  0  0  0  0  0  0  0
  127.9820  129.8670   65.4070 S   0  0  0  0  0  0  0  0  0  0  0  0
  127.0840  126.9000   60.8160 C   0  0  2  0  0  0  0  0  0  0  0  0
  126.4970  125.5090   60.4800 C   0  0  0  0  0  0  0  0  0  0  0  0
  127.5630  127.6270   59.5280 C   0  0  0  0  0  0  0  0  0  0  0  0
  129.0880  127.5950   59.2950 C   0  0  0  0  0  0  0  0  0  0  0  0
  129.7830  128.7450   59.8950 N   0  0  0  0  0  0  0  0  0  0  0  0
  130.6690  128.7400   60.9070 C   0  0  0  0  0  0  0  0  0  0  0  0
  130.9470  127.6260   61.5800 N   0  0  0  0  0  0  0  0  0  0  0  0
  131.3340  129.8320   61.3050 N   0  0  0  0  0  0  0  0  0  0  0  0
  131.2060  131.4040   60.6330 S   0  0  0  0  0  0  0  0  0  0  0  0
  132.4160  131.4060   59.1870 C   0  0  0  0  0  0  0  0  0  0  0  0
  129.8400  131.4930   60.1050 O   0  0  0  0  0  0  0  0  0  0  0  0
  131.6870  132.3450   61.6490 O   0  0  0  0  0  0  0  0  0  0  0  0
  130.1380  122.5230   62.4530 C   0  0  2  0  0  0  0  0  0  0  0  0
  131.4920  122.9600   61.7850 C   0  0  0  0  0  0  0  0  0  0  0  0
  131.2710  123.7020   60.4470 C   0  0  0  0  0  0  0  0  0  0  0  0
  132.4840  121.7970   61.5630 C   0  0  0  0  0  0  0  0  0  0  0  0
  129.1460  121.9620   61.5020 N   0  0  0  0  0  0  0  0  0  0  0  0
  129.4810  120.7340   60.9200 O   0  0  0  0  0  0  0  0  0  0  0  0
  127.9690  122.4690   61.0820 C   0  0  0  0  0  0  0  0  0  0  0  0
  127.0620  122.8410   61.8260 O   0  0  0  0  0  0  0  0  0  0  0  0
  132.2178  125.3342   66.6388 H   0  0  0  0  0  0  0  0  0  0  0  0
  132.4126  124.4553   65.0843 H   0  0  0  0  0  0  0  0  0  0  0  0
  131.9048  126.1783   65.0843 H   0  0  0  0  0  0  0  0  0  0  0  0
  129.7326  125.5397   65.1715 H   0  0  0  0  0  0  0  0  0  0  0  0
  130.7191  124.8306   67.8177 H   0  0  0  0  0  0  0  0  0  0  0  0
  129.1444  125.5366   67.3192 H   0  0  0  0  0  0  0  0  0  0  0  0
  129.3699  123.7545   67.3192 H   0  0  0  0  0  0  0  0  0  0  0  0
  131.1197  122.9603   64.8168 H   0  0  0  0  0  0  0  0  0  0  0  0
  129.3974  122.8932   65.5006 H   0  0  0  0  0  0  0  0  0  0  0  0
  128.4727  123.2489   63.5813 H   0  0  0  0  0  0  0  0  0  0  0  0
  127.5840  124.8520   62.3880 H   0  0  0  0  0  0  0  0  0  0  0  0
  129.0774  127.2221   61.5128 H   0  0  0  0  0  0  0  0  0  0  0  0
  129.1510  126.7310   64.2840 H   0  0  0  0  0  0  0  0  0  0  0  0
  128.4672  128.4463   68.6980 H   0  0  0  0  0  0  0  0  0  0  0  0
  127.8605  130.8085   67.7629 H   0  0  0  0  0  0  0  0  0  0  0  0
  126.2791  127.5242   61.2313 H   0  0  0  0  0  0  0  0  0  0  0  0
  126.2703  124.9717   61.4127 H   0  0  0  0  0  0  0  0  0  0  0  0
  125.5742  125.6322   59.8942 H   0  0  0  0  0  0  0  0  0  0  0  0
  127.2291  124.9338   59.8942 H   0  0  0  0  0  0  0  0  0  0  0  0
  127.0751  127.1507   58.6648 H   0  0  0  0  0  0  0  0  0  0  0  0
  127.2911  128.6857   59.6512 H   0  0  0  0  0  0  0  0  0  0  0  0
  129.4913  126.6717   59.7365 H   0  0  0  0  0  0  0  0  0  0  0  0
  129.2570  127.6370   58.2089 H   0  0  0  0  0  0  0  0  0  0  0  0
  129.3860  129.6490   59.6840 H   0  0  0  0  0  0  0  0  0  0  0  0
  130.7530  126.7270   61.1640 H   0  0  0  0  0  0  0  0  0  0  0  0
  131.3420  127.6830   62.5070 H   0  0  0  0  0  0  0  0  0  0  0  0
  132.1340  129.7240   61.9100 H   0  0  0  0  0  0  0  0  0  0  0  0
  133.4467  131.4077   59.5714 H   0  0  0  0  0  0  0  0  0  0  0  0
  132.2551  130.5076   58.5730 H   0  0  0  0  0  0  0  0  0  0  0  0
  132.2521  132.3039   58.5730 H   0  0  0  0  0  0  0  0  0  0  0  0
  130.4380  121.6767   63.0884 H   0  0  0  0  0  0  0  0  0  0  0  0
  131.9442  123.6479   62.5145 H   0  0  0  0  0  0  0  0  0  0  0  0
  130.9623  124.7383   60.6490 H   0  0  0  0  0  0  0  0  0  0  0  0
  132.2075  123.7042   59.8699 H   0  0  0  0  0  0  0  0  0  0  0  0
  130.4859  123.1915   59.8699 H   0  0  0  0  0  0  0  0  0  0  0  0
  132.8162  121.4075   62.5366 H   0  0  0  0  0  0  0  0  0  0  0  0
  131.9878  120.9948   60.9971 H   0  0  0  0  0  0  0  0  0  0  0  0
  133.3544  122.1605   60.9971 H   0  0  0  0  0  0  0  0  0  0  0  0
  128.6380  120.2740   60.8870 H   0  0  0  0  0  0  0  0  0  0  0  0
  127.8082  122.5562   59.9973 H   0  0  0  0  0  0  0  0  0  0  0  0
  1  2  1  0
  2  3  1  0
  2  4  1  0
  4  5  1  0
  5  6  1  0
  6  7  2  0
  6  8  1  0
  8  9  1  0
  9 10  1  0
 10 11  2  0
 10 12  1  0
 12 13  1  0
 13 14  2  0
 14 15  1  0
 15 16  2  0
 16 17  1  0
  9 18  1  0
 18 19  1  0
 18 20  1  0
 20 21  1  0
 21 22  1  0
 22 23  1  0
 23 24  2  0
 23 25  1  0
 25 26  1  0
 26 27  1  0
 26 28  2  0
 26 29  2  0
  5 30  1  0
 30 31  1  0
 31 32  1  0
 31 33  1  0
 30 34  1  0
 34 35  1  0
 34 36  1  0
 36 37  2  0
 17 13  1  0
  1 38  1  0
  1 39  1  0
  1 40  1  0
  2 41  1  0
  3 42  1  0
  3 43  1  0
  3 44  1  0
  4 45  1  0
  4 46  1  0
  5 47  1  1
  8 48  1  0
  9 49  1  6
 12 50  1  0
 15 51  1  0
 16 52  1  0
 18 53  1  1
 19 54  1  0
 19 55  1  0
 19 56  1  0
 20 57  1  0
 20 58  1  0
 21 59  1  0
 21 60  1  0
 22 61  1  0
 24 62  1  0
 24 63  1  0
 25 64  1  0
 27 65  1  0
 27 66  1  0
 27 67  1  0
 30 68  1  1
 31 69  1  0
 32 70  1  0
 32 71  1  0
 32 72  1  0
 33 73  1  0
 33 74  1  0
 33 75  1  0
 35 76  1  0
 36 77  1  0
M  CHG  1  24   1
M  END
>  <Binding energies>  (1) 
[-7.44]

>  <Ligand effiencies>  (1) 
[-0.1690909090909091]

>  <Interactions>  (1) 
["V-B:PRO:540:CA:9855, V-A:GLU:543:CA:4904, H-A:GLU:543:OE2:4910, H-A:ALA:541:N:4891, V-B:GLU:543:CB:9878, V-B:ALA:541:CB:9864, V-B:TYR:539:CE2:9848, V-A:TYR:484:CE2:4346, V-B:GLU:543:CG:9879, V-A:ASP:366:CG:3213, V-B:TYR:484:CE2:9317, H-B:GLU:543:OE1:9881, H-B:ALA:541:N:9863, V-A:TYR:484:CZ:4347, V-A:GLU:543:CD:4908, V-B:GLU:543:CA:9876, V-B:HIS:456:CE1:9041, V-A:HIS:456:CE1:4070, V-B:TYR:484:CZ:9318, V-A:GLU:543:CG:4907, V-B:GLU:543:CD:9880, V-A:LEU:475:CD2:4259, H-A:GLU:543:OE1:4909, H-B:ARG:545:NH2:9900, V-A:GLU:543:CB:4906, H-B:GLU:543:OE2:9882, V-A:PRO:540:CB:4885, V-A:PRO:540:CA:4883, H-B:TYR:539:O:9840, V-B:PRO:540:C:9853, H-A:ASP:366:OD2:3215, H-B:PRO:540:O:9854"]

$$$$
ZINC27518312
     RDKit          3D

 65 67  0  0  0  0  0  0  0  0999 V2000
  129.4210  126.9990   74.3760 O   0  0  0  0  0  0  0  0  0  0  0  0
  129.2560  126.6370   73.1890 C   0  0  0  0  0  0  0  0  0  0  0  0
  128.7700  125.5300   72.8570 O   0  0  0  0  0  0  0  0  0  0  0  0
  129.7170  127.6390   72.1020 C   0  0  0  0  0  0  0  0  0  0  0  0
  129.0750  127.4390   70.7050 C   0  0  0  0  0  0  0  0  0  0  0  0
  129.9090  128.0930   69.5780 C   0  0  0  0  0  0  0  0  0  0  0  0
  129.2620  128.0560   68.1750 C   0  0  0  0  0  0  0  0  0  0  0  0
  128.7480  129.0900   67.7350 O   0  0  0  0  0  0  0  0  0  0  0  0
  129.3810  126.9280   67.4210 N   0  0  0  0  0  0  0  0  0  0  0  0
  129.7460  125.6340   68.0410 C   0  0  0  0  0  0  0  0  0  0  0  0
  130.5150  124.7650   67.0190 C   0  0  0  0  0  0  0  0  0  0  0  0
  129.8070  124.6550   65.7400 N   0  0  0  0  0  0  0  0  0  0  0  0
  130.4160  123.6490   64.8450 C   0  0  1  0  0  0  0  0  0  0  0  0
  129.3300  122.7530   64.1910 C   0  0  0  0  0  0  0  0  0  0  0  0
  128.7960  123.4230   63.0580 O   0  0  0  0  0  0  0  0  0  0  0  0
  128.3580  122.5660   62.0130 C   0  0  0  0  0  0  0  0  0  0  0  0
  129.4730  121.5950   61.6550 C   0  0  0  0  0  0  0  0  0  0  0  0
  130.7470  122.0740   61.3320 C   0  0  0  0  0  0  0  0  0  0  0  0
  131.7790  121.1890   60.9970 C   0  0  0  0  0  0  0  0  0  0  0  0
  133.1750  121.7010   60.6480 C   0  0  0  0  0  0  0  0  0  0  0  0
  133.7680  122.2010   61.7330 F   0  0  0  0  0  0  0  0  0  0  0  0
  133.9100  120.6880   60.1880 F   0  0  0  0  0  0  0  0  0  0  0  0
  133.1490  122.6550   59.7160 F   0  0  0  0  0  0  0  0  0  0  0  0
  131.5170  119.8140   60.9840 C   0  0  0  0  0  0  0  0  0  0  0  0
  130.2470  119.3180   61.2990 C   0  0  0  0  0  0  0  0  0  0  0  0
  129.9930  117.8120   61.2750 C   0  0  0  0  0  0  0  0  0  0  0  0
  130.5180  117.1960   62.3360 F   0  0  0  0  0  0  0  0  0  0  0  0
  128.6790  117.5930   61.2730 F   0  0  0  0  0  0  0  0  0  0  0  0
  130.5210  117.2650   60.1790 F   0  0  0  0  0  0  0  0  0  0  0  0
  129.2280  120.2190   61.6320 C   0  0  0  0  0  0  0  0  0  0  0  0
  131.4540  124.2110   63.8570 C   0  0  0  0  0  0  0  0  0  0  0  0
  132.8170  124.0340   64.1170 C   0  0  0  0  0  0  0  0  0  0  0  0
  133.7710  124.5360   63.2360 C   0  0  0  0  0  0  0  0  0  0  0  0
  133.3630  125.2210   62.0940 C   0  0  0  0  0  0  0  0  0  0  0  0
  132.0090  125.4140   61.8280 C   0  0  0  0  0  0  0  0  0  0  0  0
  131.0560  124.9150   62.7120 C   0  0  0  0  0  0  0  0  0  0  0  0
  129.6200  125.9840   65.1470 C   0  0  0  0  0  0  0  0  0  0  0  0
  128.7910  126.9120   66.0630 C   0  0  0  0  0  0  0  0  0  0  0  0
  129.4702  128.6536   72.4478 H   0  0  0  0  0  0  0  0  0  0  0  0
  130.7958  127.4703   71.9692 H   0  0  0  0  0  0  0  0  0  0  0  0
  128.9928  126.3606   70.5043 H   0  0  0  0  0  0  0  0  0  0  0  0
  128.0865  127.9214   70.7161 H   0  0  0  0  0  0  0  0  0  0  0  0
  130.0783  129.1461   69.8471 H   0  0  0  0  0  0  0  0  0  0  0  0
  130.8353  127.5046   69.5028 H   0  0  0  0  0  0  0  0  0  0  0  0
  130.3832  125.8160   68.9189 H   0  0  0  0  0  0  0  0  0  0  0  0
  128.8312  125.1078   68.3513 H   0  0  0  0  0  0  0  0  0  0  0  0
  131.5011  125.2184   66.8399 H   0  0  0  0  0  0  0  0  0  0  0  0
  130.6093  123.7532   67.4402 H   0  0  0  0  0  0  0  0  0  0  0  0
  131.0268  122.9944   65.4840 H   0  0  0  0  0  0  0  0  0  0  0  0
  129.7792  121.7992   63.8772 H   0  0  0  0  0  0  0  0  0  0  0  0
  128.5274  122.5537   64.9164 H   0  0  0  0  0  0  0  0  0  0  0  0
  127.4739  122.0028   62.3465 H   0  0  0  0  0  0  0  0  0  0  0  0
  128.0969  123.1674   61.1298 H   0  0  0  0  0  0  0  0  0  0  0  0
  130.9400  123.1569   61.3413 H   0  0  0  0  0  0  0  0  0  0  0  0
  132.3224  119.1121   60.7220 H   0  0  0  0  0  0  0  0  0  0  0  0
  128.2250  119.8402   61.8779 H   0  0  0  0  0  0  0  0  0  0  0  0
  133.1365  123.4958   65.0216 H   0  0  0  0  0  0  0  0  0  0  0  0
  134.8421  124.3923   63.4409 H   0  0  0  0  0  0  0  0  0  0  0  0
  134.1168  125.6133   61.3955 H   0  0  0  0  0  0  0  0  0  0  0  0
  131.6947  125.9575   60.9248 H   0  0  0  0  0  0  0  0  0  0  0  0
  129.9862  125.0739   62.5110 H   0  0  0  0  0  0  0  0  0  0  0  0
  130.6066  126.4401   64.9780 H   0  0  0  0  0  0  0  0  0  0  0  0
  129.0726  125.8612   64.2008 H   0  0  0  0  0  0  0  0  0  0  0  0
  128.7948  127.9317   65.6505 H   0  0  0  0  0  0  0  0  0  0  0  0
  127.7571  126.5405   66.1189 H   0  0  0  0  0  0  0  0  0  0  0  0
  1  2  2  0
  2  3  1  0
  2  4  1  0
  4  5  1  0
  5  6  1  0
  6  7  1  0
  7  8  2  0
  7  9  1  0
  9 10  1  0
 10 11  1  0
 11 12  1  0
 12 13  1  0
 13 14  1  0
 14 15  1  0
 15 16  1  0
 16 17  1  0
 17 18  2  0
 18 19  1  0
 19 20  1  0
 20 21  1  0
 20 22  1  0
 20 23  1  0
 19 24  2  0
 24 25  1  0
 25 26  1  0
 26 27  1  0
 26 28  1  0
 26 29  1  0
 25 30  2  0
 13 31  1  0
 31 32  2  0
 32 33  1  0
 33 34  2  0
 34 35  1  0
 35 36  2  0
 12 37  1  0
 37 38  1  0
 38  9  1  0
 30 17  1  0
 36 31  1  0
  4 39  1  0
  4 40  1  0
  5 41  1  0
  5 42  1  0
  6 43  1  0
  6 44  1  0
 10 45  1  0
 10 46  1  0
 11 47  1  0
 11 48  1  0
 13 49  1  1
 14 50  1  0
 14 51  1  0
 16 52  1  0
 16 53  1  0
 18 54  1  0
 24 55  1  0
 30 56  1  0
 32 57  1  0
 33 58  1  0
 34 59  1  0
 35 60  1  0
 36 61  1  0
 37 62  1  0
 37 63  1  0
 38 64  1  0
 38 65  1  0
M  CHG  1   3  -1
M  END
>  <Binding energies>  (1) 
[-8.2]

>  <Ligand effiencies>  (1) 
[-0.2157894736842105]

>  <Interactions>  (1) 
["V-A:ILE:369:CG2:3237, V-B:PRO:540:CA:9855, V-A:GLY:454:CA:4049, V-A:ILE:369:CB:3236, V-A:GLU:543:C:4902, V-B:GLU:543:CB:9878, H-B:LYS:547:NZ:9923, V-B:ALA:541:CB:9864, V-B:TYR:539:CE2:9848, V-A:TYR:484:CE2:4346, V-A:LEU:475:CG:4257, V-B:GLU:543:CG:9879, V-B:TYR:539:C:9839, V-A:HIS:456:CD2:4068, V-A:ASP:366:CG:3213, V-A:LEU:475:CD1:4258, V-A:HIS:383:CE1:3393, V-B:TYR:539:CB:9843, V-A:TYR:484:CZ:4347, V-A:GLU:543:CD:4908, V-B:HIS:456:CE1:9041, V-B:GLU:543:CA:9876, V-A:SER:385:C:3405, V-A:HIS:456:CE1:4070, V-A:ILE:369:CD1:3239, V-A:PRO:482:CB:4326, V-B:TYR:539:CD2:9846, V-A:GLU:543:CG:4907, V-A:SER:385:CB:3409, V-B:GLU:543:CD:9880, V-A:LEU:475:CD2:4259, V-A:ARG:545:CZ:4926, V-A:GLU:543:CB:4906, V-A:PRO:482:CG:4327, V-A:SER:385:CA:3407, V-B:PRO:540:C:9853, V-B:ALA:541:CA:9862, V-A:HIS:383:NE2:3394, H-A:TYR:484:OH:4348"]

$$$$
ZINC275288260
     RDKit          3D

 42 44  0  0  0  0  0  0  0  0999 V2000
  127.8600  127.3790   68.0700 C   0  0  0  0  0  0  0  0  0  0  0  0
  129.1970  126.6050   68.0870 C   0  0  0  0  0  0  0  0  0  0  0  0
  130.2640  127.3740   68.8900 C   0  0  0  0  0  0  0  0  0  0  0  0
  129.7090  126.2230   66.6950 C   0  0  0  0  0  0  0  0  0  0  0  0
  130.7430  125.4270   66.4980 N   0  0  0  0  0  0  0  0  0  0  0  0
  130.8380  125.3570   65.1110 O   0  0  0  0  0  0  0  0  0  0  0  0
  129.8230  126.1300   64.6570 C   0  0  0  0  0  0  0  0  0  0  0  0
  129.6510  126.2740   63.1510 C   0  0  1  0  0  0  0  0  0  0  0  0
  130.8690  126.7850   62.5220 N   0  0  0  0  0  0  0  0  0  0  0  0
  131.5820  126.2700   61.4610 C   0  0  0  0  0  0  0  0  0  0  0  0
  131.2120  126.6640   59.8080 S   0  0  0  0  0  0  0  0  0  0  0  0
  132.4470  125.6720   59.1790 N   0  0  0  0  0  0  0  0  0  0  0  0
  133.0670  125.0940   60.1840 C   0  0  0  0  0  0  0  0  0  0  0  0
  134.3560  124.0330   59.7540 Cl  0  0  0  0  0  0  0  0  0  0  0  0
  132.6450  125.3710   61.4960 C   0  0  0  0  0  0  0  0  0  0  0  0
  133.2300  124.8000   62.7050 C   0  0  0  0  0  0  0  0  0  0  0  0
  133.6940  124.3480   63.6630 N   0  0  0  0  0  0  0  0  0  0  0  0
  129.1690  124.9480   62.4910 C   0  0  0  0  0  0  0  0  0  0  0  0
  128.8750  123.8260   63.5180 C   0  0  0  0  0  0  0  0  0  0  0  0
  128.3740  122.5440   62.8230 C   0  0  0  0  0  0  0  0  0  0  0  0
  127.2190  122.8370   62.0360 O   0  0  0  0  0  0  0  0  0  0  0  0
  127.4510  123.7890   60.9990 C   0  0  0  0  0  0  0  0  0  0  0  0
  127.9050  125.1290   61.6120 C   0  0  0  0  0  0  0  0  0  0  0  0
  129.1210  126.6860   65.6080 N   0  0  0  0  0  0  0  0  0  0  0  0
  127.5328  127.5684   69.1030 H   0  0  0  0  0  0  0  0  0  0  0  0
  127.9976  128.3371   67.5475 H   0  0  0  0  0  0  0  0  0  0  0  0
  127.0976  126.7825   67.5475 H   0  0  0  0  0  0  0  0  0  0  0  0
  128.9919  125.6506   68.5940 H   0  0  0  0  0  0  0  0  0  0  0  0
  130.0795  127.2410   69.9662 H   0  0  0  0  0  0  0  0  0  0  0  0
  131.2622  126.9863   68.6385 H   0  0  0  0  0  0  0  0  0  0  0  0
  130.2120  128.4436   68.6385 H   0  0  0  0  0  0  0  0  0  0  0  0
  128.8582  127.0176   62.9822 H   0  0  0  0  0  0  0  0  0  0  0  0
  131.1650  127.6580   62.9350 H   0  0  0  0  0  0  0  0  0  0  0  0
  130.0175  124.6506   61.8573 H   0  0  0  0  0  0  0  0  0  0  0  0
  129.7978  123.5961   64.0708 H   0  0  0  0  0  0  0  0  0  0  0  0
  128.0885  124.1794   64.2010 H   0  0  0  0  0  0  0  0  0  0  0  0
  129.1677  122.1479   62.1724 H   0  0  0  0  0  0  0  0  0  0  0  0
  128.1117  121.7971   63.5868 H   0  0  0  0  0  0  0  0  0  0  0  0
  128.2344  123.4116   60.3254 H   0  0  0  0  0  0  0  0  0  0  0  0
  126.5200  123.9449   60.4342 H   0  0  0  0  0  0  0  0  0  0  0  0
  128.1316  125.8357   60.8001 H   0  0  0  0  0  0  0  0  0  0  0  0
  127.0930  125.5125   62.2472 H   0  0  0  0  0  0  0  0  0  0  0  0
  1  2  1  0
  2  3  1  0
  2  4  1  0
  4  5  2  0
  5  6  1  0
  6  7  1  0
  7  8  1  0
  8  9  1  0
  9 10  1  0
 10 11  1  0
 11 12  1  0
 12 13  2  0
 13 14  1  0
 13 15  1  0
 15 16  1  0
 16 17  3  0
  8 18  1  0
 18 19  1  0
 19 20  1  0
 20 21  1  0
 21 22  1  0
 22 23  1  0
  7 24  2  0
 24  4  1  0
 15 10  2  0
 23 18  1  0
  1 25  1  0
  1 26  1  0
  1 27  1  0
  2 28  1  0
  3 29  1  0
  3 30  1  0
  3 31  1  0
  8 32  1  1
  9 33  1  0
 18 34  1  0
 19 35  1  0
 19 36  1  0
 20 37  1  0
 20 38  1  0
 22 39  1  0
 22 40  1  0
 23 41  1  0
 23 42  1  0
M  END
>  <Binding energies>  (1) 
[-6.87]

>  <Ligand effiencies>  (1) 
[-0.2748]

>  <Interactions>  (1) 
["V-A:ILE:369:CG2:3237, V-A:ASP:366:CA:3210, V-B:PRO:540:CA:9855, H-A:GLU:543:OE2:4910, V-A:ILE:369:CB:3236, V-B:GLU:543:CB:9878, V-B:ALA:541:CB:9864, V-B:GLU:543:CG:9879, V-A:ASP:366:CG:3213, H-B:ALA:541:N:9863, V-A:GLU:543:CD:4908, V-B:HIS:456:CE1:9041, H-A:GLY:454:N:4050, V-A:HIS:456:CE1:4070, V-A:ILE:369:CD1:3239, V-B:GLU:543:CD:9880, V-A:ILE:369:CG1:3238, V-A:ASP:366:CB:3212, H-A:ARG:545:NH2:4928, V-A:ARG:545:CZ:4926, H-A:GLU:543:OE1:4909, V-A:GLU:543:CB:4906, V-B:ALA:541:CA:9862, H-A:TYR:484:OH:4348"]

$$$$
ZINC27559592
     RDKit          3D

 38 40  0  0  0  0  0  0  0  0999 V2000
  130.6970  123.7700   62.6930 C   0  0  0  0  0  0  0  0  0  0  0  0
  131.4670  123.1510   61.4770 C   0  0  2  0  0  0  0  0  0  0  0  0
  132.5830  122.2240   62.0540 C   0  0  0  0  0  0  0  0  0  0  0  0
  133.6090  122.9800   62.9270 C   0  0  0  0  0  0  0  0  0  0  0  0
  134.2190  124.2060   62.2020 C   0  0  2  0  0  0  0  0  0  0  0  0
  134.9700  124.9880   63.1080 O   0  0  0  0  0  0  0  0  0  0  0  0
  133.1810  125.0910   61.4550 C   0  0  0  0  0  0  0  0  0  0  0  0
  132.1530  124.2930   60.5780 C   0  0  1  0  0  0  0  0  0  0  0  0
  132.9480  123.7180   59.3580 C   0  0  0  0  0  0  0  0  0  0  0  0
  133.2680  124.4060   58.3380 N   0  0  0  0  0  0  0  0  0  0  0  0
  133.9770  123.6350   57.4080 O   0  0  0  0  0  0  0  0  0  0  0  0
  131.0540  125.2720   60.0040 C   0  0  0  0  0  0  0  0  0  0  0  0
  129.7780  124.5420   59.5750 C   0  0  0  0  0  0  0  0  0  0  0  0
  129.5830  123.2330   59.8110 C   0  0  0  0  0  0  0  0  0  0  0  0
  128.5000  122.1850   59.7730 C   0  0  0  0  0  0  0  0  0  0  0  0
  129.2150  121.6570   61.0400 C   0  0  0  0  0  0  0  0  0  0  0  0
  130.5290  122.3020   60.5360 C   0  0  2  0  0  0  0  0  0  0  0  0
  131.1441  123.4105   63.6315 H   0  0  0  0  0  0  0  0  0  0  0  0
  130.7659  124.8670   62.6506 H   0  0  0  0  0  0  0  0  0  0  0  0
  129.6404  123.4670   62.6506 H   0  0  0  0  0  0  0  0  0  0  0  0
  132.1078  121.4449   62.6681 H   0  0  0  0  0  0  0  0  0  0  0  0
  133.1301  121.7991   61.1995 H   0  0  0  0  0  0  0  0  0  0  0  0
  133.1060  123.3260   63.8420 H   0  0  0  0  0  0  0  0  0  0  0  0
  134.4303  122.2843   63.1541 H   0  0  0  0  0  0  0  0  0  0  0  0
  134.8763  123.7949   61.4216 H   0  0  0  0  0  0  0  0  0  0  0  0
  135.1040  125.8570   62.7230 H   0  0  0  0  0  0  0  0  0  0  0  0
  132.6183  125.6667   62.2046 H   0  0  0  0  0  0  0  0  0  0  0  0
  133.7535  125.7266   60.7634 H   0  0  0  0  0  0  0  0  0  0  0  0
  133.2464  122.6596   59.3849 H   0  0  0  0  0  0  0  0  0  0  0  0
  134.6830  124.2340   57.1500 H   0  0  0  0  0  0  0  0  0  0  0  0
  130.7952  126.0054   60.7819 H   0  0  0  0  0  0  0  0  0  0  0  0
  131.4752  125.7573   59.1112 H   0  0  0  0  0  0  0  0  0  0  0  0
  128.9923  125.1095   59.0547 H   0  0  0  0  0  0  0  0  0  0  0  0
  127.4757  122.5557   59.9262 H   0  0  0  0  0  0  0  0  0  0  0  0
  128.2766  121.5656   58.8918 H   0  0  0  0  0  0  0  0  0  0  0  0
  128.8361  122.0787   61.9826 H   0  0  0  0  0  0  0  0  0  0  0  0
  129.1754  120.5910   61.3083 H   0  0  0  0  0  0  0  0  0  0  0  0
  131.3153  121.6426   60.1399 H   0  0  0  0  0  0  0  0  0  0  0  0
  2  1  1  1
  2  3  1  0
  3  4  1  0
  4  5  1  0
  5  6  1  0
  5  7  1  0
  7  8  1  0
  8  9  1  6
  9 10  2  0
 10 11  1  0
  8 12  1  0
 12 13  1  0
 13 14  2  0
 14 15  1  0
 15 16  1  0
 16 17  1  0
  8  2  1  0
 17 14  1  0
 17  2  1  0
  1 18  1  0
  1 19  1  0
  1 20  1  0
  3 21  1  0
  3 22  1  0
  4 23  1  0
  4 24  1  0
  5 25  1  6
  6 26  1  0
  7 27  1  0
  7 28  1  0
  9 29  1  0
 11 30  1  0
 12 31  1  0
 12 32  1  0
 13 33  1  0
 15 34  1  0
 15 35  1  0
 16 36  1  0
 16 37  1  0
 17 38  1  6
M  END
>  <Binding energies>  (1) 
[-6.8]

>  <Ligand effiencies>  (1) 
[-0.35789473684210527]

>  <Interactions>  (1) 
["V-A:ILE:369:CG2:3237, V-B:PRO:540:CA:9855, V-A:GLY:454:CA:4049, V-B:ALA:541:CB:9864, H-A:ARG:545:NH1:4927, V-B:TYR:539:CE2:9848, V-B:TYR:539:C:9839, V-A:ASP:366:CG:3213, V-B:TYR:539:CZ:9849, H-A:ASN:370:N:3244, H-B:TYR:539:OH:9850, H-A:GLY:454:N:4050, V-B:PRO:540:N:9856, V-A:ILE:369:CD1:3239, V-B:TYR:539:CD2:9846, V-A:LEU:475:CD2:4259, H-A:ARG:545:NH2:4928, H-A:ASP:366:O:3209, H-A:ASP:366:OD1:3214"]

$$$$
ZINC27622283-again1
     RDKit          3D

 82 85  0  0  0  0  0  0  0  0999 V2000
  131.4960  132.0510   62.9670 N   0  0  0  0  0  0  0  0  0  0  0  0
  132.9670  131.7830   62.0510 S   0  0  0  0  0  0  0  0  0  0  0  0
  133.7240  133.0400   62.0420 O   0  0  0  0  0  0  0  0  0  0  0  0
  133.5730  130.5400   62.5400 O   0  0  0  0  0  0  0  0  0  0  0  0
  132.4040  131.4690   60.3830 C   0  0  0  0  0  0  0  0  0  0  0  0
  133.3100  131.4290   59.3200 C   0  0  0  0  0  0  0  0  0  0  0  0
  132.8540  131.1840   58.0250 C   0  0  0  0  0  0  0  0  0  0  0  0
  131.4960  130.9750   57.7900 C   0  0  0  0  0  0  0  0  0  0  0  0
  130.5780  131.0070   58.8480 C   0  0  0  0  0  0  0  0  0  0  0  0
  129.0790  130.7880   58.6030 C   0  0  2  0  0  0  0  0  0  0  0  0
  128.3570  132.1470   58.4850 N   0  0  0  0  0  0  0  0  0  0  0  0
  128.3740  129.8100   59.6230 C   0  0  2  0  0  0  0  0  0  0  0  0
  127.9210  130.5900   61.2350 S   0  0  0  0  0  0  0  0  0  0  0  0
  129.1260  128.4820   59.8860 C   0  0  0  0  0  0  0  0  0  0  0  0
  129.9490  128.0610   59.0710 O   0  0  0  0  0  0  0  0  0  0  0  0
  128.8110  127.8360   61.0260 N   0  0  0  0  0  0  0  0  0  0  0  0
  129.2660  126.5180   61.4900 C   0  0  2  0  0  0  0  0  0  0  0  0
  128.1720  125.4320   61.3150 C   0  0  0  0  0  0  0  0  0  0  0  0
  128.6670  123.9940   61.3650 C   0  0  0  0  0  0  0  0  0  0  0  0
  129.0590  123.4250   62.5950 C   0  0  0  0  0  0  0  0  0  0  0  0
  129.4840  122.0840   62.6490 C   0  0  0  0  0  0  0  0  0  0  0  0
  129.5250  121.3090   61.4740 C   0  0  0  0  0  0  0  0  0  0  0  0
  129.9340  120.0090   61.5290 O   0  0  0  0  0  0  0  0  0  0  0  0
  129.1410  121.8750   60.2440 C   0  0  0  0  0  0  0  0  0  0  0  0
  128.7130  123.2170   60.1890 C   0  0  0  0  0  0  0  0  0  0  0  0
  129.8690  126.5560   62.9110 C   0  0  0  0  0  0  0  0  0  0  0  0
  131.0140  126.9710   63.0920 O   0  0  0  0  0  0  0  0  0  0  0  0
  129.0580  126.1140   63.8920 N   0  0  0  0  0  0  0  0  0  0  0  0
  129.3810  126.0050   65.3210 C   0  0  2  0  0  0  0  0  0  0  0  0
  129.0630  127.3370   66.0480 C   0  0  0  0  0  0  0  0  0  0  0  0
  129.2100  127.3200   67.5540 C   0  0  0  0  0  0  0  0  0  0  0  0
  128.2510  127.3770   68.5480 C   0  0  0  0  0  0  0  0  0  0  0  0
  128.9090  127.4830   69.7620 N   0  0  0  0  0  0  0  0  0  0  0  0
  130.2100  127.5410   69.4860 C   0  0  0  0  0  0  0  0  0  0  0  0
  130.4400  127.4750   68.1760 N   0  0  0  0  0  0  0  0  0  0  0  0
  130.8190  125.4840   65.5340 C   0  0  0  0  0  0  0  0  0  0  0  0
  131.3940  125.6610   66.6080 O   0  0  0  0  0  0  0  0  0  0  0  0
  131.3770  124.8900   64.4650 N   0  0  0  0  0  0  0  0  0  0  0  0
  132.7740  124.4670   64.3680 C   0  0  0  0  0  0  0  0  0  0  0  0
  133.1200  123.8690   63.0070 C   0  0  0  0  0  0  0  0  0  0  0  0
  133.1770  124.6950   61.8800 C   0  0  0  0  0  0  0  0  0  0  0  0
  133.5020  124.1570   60.6360 C   0  0  0  0  0  0  0  0  0  0  0  0
  133.7640  122.7940   60.5200 C   0  0  0  0  0  0  0  0  0  0  0  0
  133.7000  121.9630   61.6360 C   0  0  0  0  0  0  0  0  0  0  0  0
  133.3760  122.4990   62.8780 C   0  0  0  0  0  0  0  0  0  0  0  0
  131.0430  131.2610   60.1440 C   0  0  0  0  0  0  0  0  0  0  0  0
  130.7740  132.5780   62.4680 H   0  0  0  0  0  0  0  0  0  0  0  0
  131.1340  131.2210   63.4430 H   0  0  0  0  0  0  0  0  0  0  0  0
  134.3823  131.5907   59.5045 H   0  0  0  0  0  0  0  0  0  0  0  0
  133.5670  131.1556   57.1878 H   0  0  0  0  0  0  0  0  0  0  0  0
  131.1424  130.7835   56.7661 H   0  0  0  0  0  0  0  0  0  0  0  0
  128.9966  130.2564   57.6435 H   0  0  0  0  0  0  0  0  0  0  0  0
  127.9010  132.2240   57.5870 H   0  0  0  0  0  0  0  0  0  0  0  0
  129.0160  132.9050   58.5920 H   0  0  0  0  0  0  0  0  0  0  0  0
  127.6580  132.2230   59.2110 H   0  0  0  0  0  0  0  0  0  0  0  0
  127.4461  129.5614   59.0871 H   0  0  0  0  0  0  0  0  0  0  0  0
  128.1430  128.2820   61.6400 H   0  0  0  0  0  0  0  0  0  0  0  0
  130.0984  126.2227   60.8344 H   0  0  0  0  0  0  0  0  0  0  0  0
  127.4311  125.5641   62.1172 H   0  0  0  0  0  0  0  0  0  0  0  0
  127.7601  125.5762   60.3053 H   0  0  0  0  0  0  0  0  0  0  0  0
  129.0325  124.0301   63.5132 H   0  0  0  0  0  0  0  0  0  0  0  0
  129.7844  121.6411   63.6101 H   0  0  0  0  0  0  0  0  0  0  0  0
  129.4820  119.4450   60.8960 H   0  0  0  0  0  0  0  0  0  0  0  0
  129.1748  121.2703   59.3257 H   0  0  0  0  0  0  0  0  0  0  0  0
  128.4143  123.6590   59.2270 H   0  0  0  0  0  0  0  0  0  0  0  0
  128.1310  125.8060   63.6390 H   0  0  0  0  0  0  0  0  0  0  0  0
  128.7359  125.2457   65.7872 H   0  0  0  0  0  0  0  0  0  0  0  0
  129.7411  128.1072   65.6519 H   0  0  0  0  0  0  0  0  0  0  0  0
  127.9981  127.5342   65.8553 H   0  0  0  0  0  0  0  0  0  0  0  0
  127.1613  127.3441   68.4011 H   0  0  0  0  0  0  0  0  0  0  0  0
  128.4820  127.5360   70.6760 H   0  0  0  0  0  0  0  0  0  0  0  0
  130.9988  127.6323   70.2472 H   0  0  0  0  0  0  0  0  0  0  0  0
  131.3410  127.5260   67.7220 H   0  0  0  0  0  0  0  0  0  0  0  0
  130.8260  124.7920   63.6260 H   0  0  0  0  0  0  0  0  0  0  0  0
  133.4184  125.3415   64.5413 H   0  0  0  0  0  0  0  0  0  0  0  0
  132.9351  123.6838   65.1234 H   0  0  0  0  0  0  0  0  0  0  0  0
  132.9652  125.7702   61.9754 H   0  0  0  0  0  0  0  0  0  0  0  0
  133.5514  124.8062   59.7494 H   0  0  0  0  0  0  0  0  0  0  0  0
  134.0237  122.3702   59.5387 H   0  0  0  0  0  0  0  0  0  0  0  0
  133.9049  120.8869   61.5355 H   0  0  0  0  0  0  0  0  0  0  0  0
  133.3209  121.8448   63.7606 H   0  0  0  0  0  0  0  0  0  0  0  0
  130.3307  131.2971   60.9814 H   0  0  0  0  0  0  0  0  0  0  0  0
  1  2  1  0
  2  3  2  0
  2  4  2  0
  2  5  1  0
  5  6  2  0
  6  7  1  0
  7  8  2  0
  8  9  1  0
  9 10  1  0
 10 11  1  0
 10 12  1  0
 12 13  1  0
 12 14  1  0
 14 15  2  0
 14 16  1  0
 16 17  1  0
 17 18  1  0
 18 19  1  0
 19 20  2  0
 20 21  1  0
 21 22  2  0
 22 23  1  0
 22 24  1  0
 24 25  2  0
 17 26  1  0
 26 27  2  0
 26 28  1  0
 28 29  1  0
 29 30  1  0
 30 31  1  0
 31 32  2  0
 32 33  1  0
 33 34  1  0
 34 35  2  0
 29 36  1  0
 36 37  2  0
 36 38  1  0
 38 39  1  0
 39 40  1  0
 40 41  2  0
 41 42  1  0
 42 43  2  0
 43 44  1  0
 44 45  2  0
  9 46  2  0
 46  5  1  0
 25 19  1  0
 35 31  1  0
 45 40  1  0
  1 47  1  0
  1 48  1  0
  6 49  1  0
  7 50  1  0
  8 51  1  0
 10 52  1  6
 11 53  1  0
 11 54  1  0
 11 55  1  0
 12 56  1  6
 16 57  1  0
 17 58  1  6
 18 59  1  0
 18 60  1  0
 20 61  1  0
 21 62  1  0
 23 63  1  0
 24 64  1  0
 25 65  1  0
 28 66  1  0
 29 67  1  1
 30 68  1  0
 30 69  1  0
 32 70  1  0
 33 71  1  0
 34 72  1  0
 35 73  1  0
 38 74  1  0
 39 75  1  0
 39 76  1  0
 41 77  1  0
 42 78  1  0
 43 79  1  0
 44 80  1  0
 45 81  1  0
 46 82  1  0
M  CHG  3  11   1  13  -1  35   1
M  END
>  <Binding energies>  (1) 
[-7.93]

>  <Ligand effiencies>  (1) 
[-0.13912280701754384]

>  <Interactions>  (1) 
["V-A:ILE:369:CG2:3237, V-B:PRO:540:CA:9855, V-A:GLY:454:CA:4049, H-A:GLU:543:OE2:4910, H-B:GLU:543:O:9875, H-A:ALA:541:N:4891, V-A:ILE:369:CB:3236, V-B:GLU:543:CB:9878, H-A:ALA:541:O:4889, V-B:ALA:541:CB:9864, V-B:TYR:539:CE2:9848, V-B:GLU:543:CG:9879, V-B:TYR:539:C:9839, V-A:ASP:366:CG:3213, V-A:ASN:362:CB:3176, V-A:LEU:363:CB:3187, V-A:LEU:363:CD1:3189, V-A:TYR:539:CD1:4873, H-B:GLU:543:OE1:9881, V-A:GLU:543:CD:4908, V-B:HIS:456:CE1:9041, V-A:HIS:456:CE1:4070, V-A:ILE:369:CD1:3239, H-B:HIS:456:NE2:9042, V-B:TYR:539:CD2:9846, V-A:GLU:543:CG:4907, V-B:GLU:543:CD:9880, V-A:LEU:475:CD2:4259, H-A:ARG:545:NH2:4928, V-A:ARG:545:CZ:4926, H-A:GLU:543:OE1:4909, V-A:GLU:543:CB:4906, H-A:TYR:539:O:4868, H-B:GLU:543:OE2:9882, V-A:PRO:540:CA:4883, V-A:PRO:540:CB:4885, V-A:LEU:363:CA:3185, H-B:TYR:539:O:9840, V-A:TYR:539:CE1:4875, H-A:TYR:484:OH:4348"]

$$$$
ZINC27622283-again3
     RDKit          3D

 81 84  0  0  0  0  0  0  0  0999 V2000
  129.9610  129.4190   72.8160 N   0  0  0  0  0  0  0  0  0  0  0  0
  130.0410  127.6840   72.5710 S   0  0  0  0  0  0  0  0  0  0  0  0
  131.4330  127.3390   72.2660 O   0  0  0  0  0  0  0  0  0  0  0  0
  129.3300  127.0460   73.6850 O   0  0  0  0  0  0  0  0  0  0  0  0
  129.0660  127.3960   71.0990 C   0  0  0  0  0  0  0  0  0  0  0  0
  127.6820  127.2200   71.1800 C   0  0  0  0  0  0  0  0  0  0  0  0
  126.9410  126.9870   70.0220 C   0  0  0  0  0  0  0  0  0  0  0  0
  127.5790  126.9290   68.7840 C   0  0  0  0  0  0  0  0  0  0  0  0
  128.9650  127.1110   68.6890 C   0  0  0  0  0  0  0  0  0  0  0  0
  129.6820  127.0350   67.3350 C   0  0  2  0  0  0  0  0  0  0  0  0
  128.6590  127.1290   66.1810 N   0  0  0  0  0  0  0  0  0  0  0  0
  130.6660  125.8120   67.1760 C   0  0  2  0  0  0  0  0  0  0  0  0
  132.4480  126.2230   67.4250 S   0  0  0  0  0  0  0  0  0  0  0  0
  130.4980  125.0110   65.8620 C   0  0  0  0  0  0  0  0  0  0  0  0
  129.9270  123.9190   65.8680 O   0  0  0  0  0  0  0  0  0  0  0  0
  131.0240  125.5700   64.7540 N   0  0  0  0  0  0  0  0  0  0  0  0
  131.1330  124.9990   63.4030 C   0  0  2  0  0  0  0  0  0  0  0  0
  131.6380  126.0440   62.3730 C   0  0  0  0  0  0  0  0  0  0  0  0
  132.2470  125.4650   61.1050 C   0  0  0  0  0  0  0  0  0  0  0  0
  131.6360  125.7020   59.8560 C   0  0  0  0  0  0  0  0  0  0  0  0
  132.2180  125.1970   58.6770 C   0  0  0  0  0  0  0  0  0  0  0  0
  133.4100  124.4510   58.7430 C   0  0  0  0  0  0  0  0  0  0  0  0
  133.9770  123.9680   57.6000 O   0  0  0  0  0  0  0  0  0  0  0  0
  134.0200  124.2070   59.9890 C   0  0  0  0  0  0  0  0  0  0  0  0
  133.4390  124.7120   61.1680 C   0  0  0  0  0  0  0  0  0  0  0  0
  129.8490  124.2720   62.9500 C   0  0  0  0  0  0  0  0  0  0  0  0
  128.7850  124.8850   62.8570 O   0  0  0  0  0  0  0  0  0  0  0  0
  129.9970  122.9620   62.6670 N   0  0  0  0  0  0  0  0  0  0  0  0
  128.9520  122.0320   62.2210 C   0  0  2  0  0  0  0  0  0  0  0  0
  129.5520  120.6230   61.9870 C   0  0  0  0  0  0  0  0  0  0  0  0
  130.8330  120.5950   61.1880 C   0  0  0  0  0  0  0  0  0  0  0  0
  131.5650  119.5480   60.6710 C   0  0  0  0  0  0  0  0  0  0  0  0
  132.6910  120.0390   60.0070 N   0  0  0  0  0  0  0  0  0  0  0  0
  132.6020  121.3570   60.1480 C   0  0  0  0  0  0  0  0  0  0  0  0
  131.5250  121.7420   60.8370 N   0  0  0  0  0  0  0  0  0  0  0  0
  128.1700  122.5950   61.0170 C   0  0  0  0  0  0  0  0  0  0  0  0
  128.4170  122.2070   59.8750 O   0  0  0  0  0  0  0  0  0  0  0  0
  127.2670  123.5440   61.3100 N   0  0  0  0  0  0  0  0  0  0  0  0
  126.5600  124.3410   60.3080 C   0  0  0  0  0  0  0  0  0  0  0  0
  127.2110  124.3330   58.9270 C   0  0  0  0  0  0  0  0  0  0  0  0
  126.6790  123.5320   57.9120 C   0  0  0  0  0  0  0  0  0  0  0  0
  127.2660  123.5270   56.6490 C   0  0  0  0  0  0  0  0  0  0  0  0
  128.3810  124.3240   56.4020 C   0  0  0  0  0  0  0  0  0  0  0  0
  128.9190  125.1230   57.4080 C   0  0  0  0  0  0  0  0  0  0  0  0
  128.3360  125.1260   58.6710 C   0  0  0  0  0  0  0  0  0  0  0  0
  129.7030  127.3410   69.8570 C   0  0  0  0  0  0  0  0  0  0  0  0
  130.3650  129.9730   72.0560 H   0  0  0  0  0  0  0  0  0  0  0  0
  129.0490  129.7630   73.1260 H   0  0  0  0  0  0  0  0  0  0  0  0
  127.1776  127.2652   72.1565 H   0  0  0  0  0  0  0  0  0  0  0  0
  125.8516  126.8488   70.0855 H   0  0  0  0  0  0  0  0  0  0  0  0
  126.9899  126.7389   67.8747 H   0  0  0  0  0  0  0  0  0  0  0  0
  130.3475  127.9096   67.2890 H   0  0  0  0  0  0  0  0  0  0  0  0
  127.7300  127.2780   66.5480 H   0  0  0  0  0  0  0  0  0  0  0  0
  128.6720  126.2830   65.6310 H   0  0  0  0  0  0  0  0  0  0  0  0
  128.8970  127.9070   65.5810 H   0  0  0  0  0  0  0  0  0  0  0  0
  130.3504  125.1621   68.0055 H   0  0  0  0  0  0  0  0  0  0  0  0
  131.4470  126.4810   64.8510 H   0  0  0  0  0  0  0  0  0  0  0  0
  131.9032  124.2154   63.4543 H   0  0  0  0  0  0  0  0  0  0  0  0
  130.7849  126.6750   62.0829 H   0  0  0  0  0  0  0  0  0  0  0  0
  132.4460  126.5981   62.8730 H   0  0  0  0  0  0  0  0  0  0  0  0
  130.7031  126.2824   59.8026 H   0  0  0  0  0  0  0  0  0  0  0  0
  131.7408  125.3856   57.7040 H   0  0  0  0  0  0  0  0  0  0  0  0
  134.3130  124.6610   57.0280 H   0  0  0  0  0  0  0  0  0  0  0  0
  134.9501  123.6220   60.0410 H   0  0  0  0  0  0  0  0  0  0  0  0
  133.9153  124.5191   62.1406 H   0  0  0  0  0  0  0  0  0  0  0  0
  130.9150  122.5550   62.7610 H   0  0  0  0  0  0  0  0  0  0  0  0
  128.2015  121.9192   63.0173 H   0  0  0  0  0  0  0  0  0  0  0  0
  129.7537  120.1714   62.9695 H   0  0  0  0  0  0  0  0  0  0  0  0
  128.8095  120.0694   61.3935 H   0  0  0  0  0  0  0  0  0  0  0  0
  131.3016  118.4843   60.7671 H   0  0  0  0  0  0  0  0  0  0  0  0
  133.3415  122.0607   59.7382 H   0  0  0  0  0  0  0  0  0  0  0  0
  131.2650  122.6920   61.0610 H   0  0  0  0  0  0  0  0  0  0  0  0
  127.1440  123.8200   62.2740 H   0  0  0  0  0  0  0  0  0  0  0  0
  125.5387  123.9444   60.2100 H   0  0  0  0  0  0  0  0  0  0  0  0
  126.5814  125.3826   60.6609 H   0  0  0  0  0  0  0  0  0  0  0  0
  125.7968  122.9058   58.1110 H   0  0  0  0  0  0  0  0  0  0  0  0
  126.8505  122.8959   55.8496 H   0  0  0  0  0  0  0  0  0  0  0  0
  128.8412  124.3225   55.4029 H   0  0  0  0  0  0  0  0  0  0  0  0
  129.8006  125.7486   57.2048 H   0  0  0  0  0  0  0  0  0  0  0  0
  128.7596  125.7524   59.4698 H   0  0  0  0  0  0  0  0  0  0  0  0
  130.7925  127.4794   69.7958 H   0  0  0  0  0  0  0  0  0  0  0  0
  1  2  1  0
  2  3  2  0
  2  4  2  0
  2  5  1  0
  5  6  2  0
  6  7  1  0
  7  8  2  0
  8  9  1  0
  9 10  1  0
 10 11  1  0
 10 12  1  0
 12 13  1  0
 12 14  1  0
 14 15  2  0
 14 16  1  0
 16 17  1  0
 17 18  1  0
 18 19  1  0
 19 20  2  0
 20 21  1  0
 21 22  2  0
 22 23  1  0
 22 24  1  0
 24 25  2  0
 17 26  1  0
 26 27  2  0
 26 28  1  0
 28 29  1  0
 29 30  1  0
 30 31  1  0
 31 32  2  0
 32 33  1  0
 33 34  2  0
 34 35  1  0
 29 36  1  0
 36 37  2  0
 36 38  1  0
 38 39  1  0
 39 40  1  0
 40 41  2  0
 41 42  1  0
 42 43  2  0
 43 44  1  0
 44 45  2  0
  9 46  2  0
 46  5  1  0
 25 19  1  0
 35 31  1  0
 45 40  1  0
  1 47  1  0
  1 48  1  0
  6 49  1  0
  7 50  1  0
  8 51  1  0
 10 52  1  6
 11 53  1  0
 11 54  1  0
 11 55  1  0
 12 56  1  1
 16 57  1  0
 17 58  1  1
 18 59  1  0
 18 60  1  0
 20 61  1  0
 21 62  1  0
 23 63  1  0
 24 64  1  0
 25 65  1  0
 28 66  1  0
 29 67  1  1
 30 68  1  0
 30 69  1  0
 32 70  1  0
 34 71  1  0
 35 72  1  0
 38 73  1  0
 39 74  1  0
 39 75  1  0
 41 76  1  0
 42 77  1  0
 43 78  1  0
 44 79  1  0
 45 80  1  0
 46 81  1  0
M  CHG  2  11   1  13  -1
M  END
>  <Binding energies>  (1) 
[-10.81]

>  <Ligand effiencies>  (1) 
[-0.19303571428571428]

>  <Interactions>  (1) 
["V-A:ILE:369:CG2:3237, V-A:ASP:366:CA:3210, V-B:PRO:540:CA:9855, V-B:HIS:456:CD2:9039, H-A:GLU:543:OE2:4910, V-B:GLU:543:C:9874, V-A:ILE:369:CB:3236, V-B:TYR:539:CE1:9847, V-B:GLU:543:CB:9878, H-B:LYS:547:NZ:9923, V-B:ALA:541:CB:9864, V-B:TYR:539:CE2:9848, V-B:GLU:543:CG:9879, V-A:ASP:366:CG:3213, V-B:TYR:539:CZ:9849, H-B:GLU:543:OE1:9881, H-A:ASN:370:N:3244, H-B:TYR:539:OH:9850, V-A:GLU:543:CD:4908, V-B:PRO:540:CB:9857, V-A:ARG:545:CG:4922, V-B:HIS:456:CE1:9041, V-B:GLU:543:CA:9876, V-A:HIS:456:CE1:4070, V-A:ILE:369:CD1:3239, V-B:GLY:544:C:9884, H-B:HIS:456:NE2:9042, V-B:GLY:544:CA:9886, V-B:TYR:539:CD2:9846, H-A:SER:385:OG:3410, V-B:GLU:543:CD:9880, V-A:ASP:366:CB:3212, V-A:ARG:545:CD:4923, H-A:LYS:547:NZ:4951, V-A:LEU:475:CD2:4259, H-A:GLU:543:OE1:4909, H-A:ASP:366:O:3209, V-A:GLU:543:CB:4906, H-B:GLU:543:OE2:9882, V-B:PRO:540:C:9853, V-B:ALA:541:CA:9862, H-A:GLY:544:O:4913, H-A:HIS:456:ND1:4067, H-A:TYR:484:OH:4348, H-A:GLU:543:O:4903"]

$$$$
ZINC2762920-again1
     RDKit          3D

 26 26  0  0  0  0  0  0  0  0999 V2000
  131.6420  125.4560   65.8540 C   0  0  0  0  0  0  0  0  0  0  0  0
  132.2950  124.5230   64.9990 O   0  0  0  0  0  0  0  0  0  0  0  0
  131.5480  123.7780   64.1030 C   0  0  0  0  0  0  0  0  0  0  0  0
  130.1430  123.7370   64.1000 C   0  0  0  0  0  0  0  0  0  0  0  0
  129.4320  122.9690   63.1640 C   0  0  0  0  0  0  0  0  0  0  0  0
  127.9640  122.9090   63.1440 C   0  0  0  0  0  0  0  0  0  0  0  0
  127.2690  122.9210   62.0800 N   0  0  0  0  0  0  0  0  0  0  0  0
  125.8990  122.8500   62.3650 O   0  0  0  0  0  0  0  0  0  0  0  0
  130.1590  122.2400   62.2180 C   0  0  0  0  0  0  0  0  0  0  0  0
  131.5520  122.2660   62.2030 C   0  0  0  0  0  0  0  0  0  0  0  0
  132.4770  121.2590   60.8740 Br  0  0  0  0  0  0  0  0  0  0  0  0
  132.2510  123.0240   63.1510 C   0  0  0  0  0  0  0  0  0  0  0  0
  133.6300  123.0570   63.1270 O   0  0  0  0  0  0  0  0  0  0  0  0
  134.2630  124.2020   62.7520 C   0  0  0  0  0  0  0  0  0  0  0  0
  134.3590  124.3420   61.2370 C   0  0  0  0  0  0  0  0  0  0  0  0
  134.7310  125.0660   63.4970 O   0  0  0  0  0  0  0  0  0  0  0  0
  131.8309  125.1861   66.9035 H   0  0  0  0  0  0  0  0  0  0  0  0
  132.0312  126.4663   65.6595 H   0  0  0  0  0  0  0  0  0  0  0  0
  130.5595  125.4363   65.6595 H   0  0  0  0  0  0  0  0  0  0  0  0
  129.5872  124.3205   64.8488 H   0  0  0  0  0  0  0  0  0  0  0  0
  127.4353  122.8502   64.1068 H   0  0  0  0  0  0  0  0  0  0  0  0
  125.7310  123.7130   62.7540 H   0  0  0  0  0  0  0  0  0  0  0  0
  129.6218  121.6353   61.4725 H   0  0  0  0  0  0  0  0  0  0  0  0
  134.9649  125.2257   60.9881 H   0  0  0  0  0  0  0  0  0  0  0  0
  134.8314  123.4427   60.8149 H   0  0  0  0  0  0  0  0  0  0  0  0
  133.3499  124.4586   60.8149 H   0  0  0  0  0  0  0  0  0  0  0  0
  1  2  1  0
  2  3  1  0
  3  4  2  0
  4  5  1  0
  5  6  1  0
  6  7  2  0
  7  8  1  0
  5  9  2  0
  9 10  1  0
 10 11  1  0
 10 12  2  0
 12 13  1  0
 13 14  1  0
 14 15  1  0
 14 16  2  0
 12  3  1  0
  1 17  1  0
  1 18  1  0
  1 19  1  0
  4 20  1  0
  6 21  1  0
  8 22  1  0
  9 23  1  0
 15 24  1  0
 15 25  1  0
 15 26  1  0
M  END
>  <Binding energies>  (1) 
[-5.53]

>  <Ligand effiencies>  (1) 
[-0.32529411764705884]

>  <Interactions>  (1) 
["V-A:ILE:369:CG2:3237, V-A:GLY:454:CA:4049, V-B:ALA:541:CB:9864, H-A:ARG:545:NH1:4927, V-B:TYR:539:CE2:9848, H-B:ALA:541:O:9861, V-B:GLU:543:CG:9879, V-A:ASP:366:CG:3213, H-B:GLU:543:OE1:9881, H-B:ALA:541:N:9863, V-A:GLU:543:CD:4908, H-A:GLY:454:N:4050, V-A:GLY:453:C:4042, V-A:ILE:369:CD1:3239, V-B:TYR:539:CD2:9846, V-B:GLU:543:CD:9880, V-A:LEU:475:CD2:4259, H-A:ARG:545:NH2:4928, V-A:GLY:453:CA:4044, H-A:ARG:545:NE:4924, V-B:ALA:541:CA:9862, H-A:TYR:484:OH:4348"]

$$$$
ZINC27734038
     RDKit          3D

 85 91  0  0  0  0  0  0  0  0999 V2000
  130.0850  124.7140   67.0340 C   0  0  0  0  0  0  0  0  0  0  0  0
  131.0610  125.4700   66.1050 C   0  0  1  0  0  0  0  0  0  0  0  0
  132.3340  125.4750   66.7210 O   0  0  0  0  0  0  0  0  0  0  0  0
  131.1970  124.9510   64.6440 C   0  0  1  0  0  0  0  0  0  0  0  0
  132.5840  124.3310   64.3070 C   0  0  0  0  0  0  0  0  0  0  0  0
  133.7520  124.7110   64.3670 O   0  0  0  0  0  0  0  0  0  0  0  0
  131.9730  123.1590   63.8520 N   0  0  0  0  0  0  0  0  0  0  0  0
  131.9620  122.6630   62.5940 C   0  0  0  0  0  0  0  0  0  0  0  0
  133.2920  122.1640   61.9460 C   0  0  0  0  0  0  0  0  0  0  0  0
  133.1540  121.2870   61.0640 O   0  0  0  0  0  0  0  0  0  0  0  0
  134.3380  122.7010   62.3790 O   0  0  0  0  0  0  0  0  0  0  0  0
  130.7150  122.6370   62.0700 C   0  0  0  0  0  0  0  0  0  0  0  0
  130.2060  122.1240   60.7320 C   0  0  0  0  0  0  0  0  0  0  0  0
  129.6510  123.1300   59.8400 N   0  0  0  0  0  0  0  0  0  0  0  0
  130.2480  124.3180   59.4030 C   0  0  0  0  0  0  0  0  0  0  0  0
  131.5120  124.8350   59.6910 C   0  0  0  0  0  0  0  0  0  0  0  0
  131.9250  126.0520   59.1430 C   0  0  0  0  0  0  0  0  0  0  0  0
  131.0910  126.7830   58.2920 C   0  0  0  0  0  0  0  0  0  0  0  0
  129.7920  126.3000   57.9670 C   0  0  0  0  0  0  0  0  0  0  0  0
  128.8440  126.9480   57.1110 C   0  0  0  0  0  0  0  0  0  0  0  0
  129.1780  128.2810   56.4480 C   0  0  0  0  0  0  0  0  0  0  0  0
  128.8570  129.4920   57.3430 C   0  0  0  0  0  0  0  0  0  0  0  0
  129.8100  129.5780   58.5550 C   0  0  0  0  0  0  0  0  0  0  0  0
  129.1500  129.2300   59.9240 N   0  0  1  0  0  0  0  0  0  0  0  0
  127.8890  128.3370   59.7610 C   0  0  0  0  0  0  0  0  0  0  0  0
  127.1600  128.1840   61.1290 C   0  0  0  0  0  0  0  0  0  0  0  0
  128.0140  128.7820   62.2910 N   0  0  1  0  0  0  0  0  0  0  0  0
  127.2570  128.4540   63.6210 C   0  0  0  0  0  0  0  0  0  0  0  0
  127.2630  129.5510   64.7080 C   0  0  0  0  0  0  0  0  0  0  0  0
  126.4520  129.3410   65.7460 N   0  0  0  0  0  0  0  0  0  0  0  0
  127.9640  130.5570   64.6440 O   0  0  0  0  0  0  0  0  0  0  0  0
  129.4240  128.1230   62.2150 C   0  0  0  0  0  0  0  0  0  0  0  0
  130.1420  128.5160   60.8890 C   0  0  0  0  0  0  0  0  0  0  0  0
  128.1420  130.3100   62.0200 C   0  0  0  0  0  0  0  0  0  0  0  0
  128.7040  130.5640   60.5910 C   0  0  0  0  0  0  0  0  0  0  0  0
  127.5950  126.3480   56.8850 C   0  0  0  0  0  0  0  0  0  0  0  0
  127.2490  125.1280   57.4730 C   0  0  0  0  0  0  0  0  0  0  0  0
  128.1830  124.5110   58.2990 C   0  0  0  0  0  0  0  0  0  0  0  0
  129.4120  125.0630   58.5470 C   0  0  0  0  0  0  0  0  0  0  0  0
  128.0150  122.9590   59.1820 S   0  0  0  0  0  0  0  0  0  0  0  0
  127.9580  121.8230   58.2560 O   0  0  0  0  0  0  0  0  0  0  0  0
  127.0170  123.0650   60.2510 O   0  0  0  0  0  0  0  0  0  0  0  0
  129.7540  123.2240   63.1100 C   0  0  2  0  0  0  0  0  0  0  0  0
  128.9330  124.4130   62.5760 C   0  0  0  0  0  0  0  0  0  0  0  0
  130.6370  123.5330   64.3460 C   0  0  2  0  0  0  0  0  0  0  0  0
  130.3464  124.9165   68.0831 H   0  0  0  0  0  0  0  0  0  0  0  0
  129.0569  125.0537   66.8401 H   0  0  0  0  0  0  0  0  0  0  0  0
  130.1569  123.6336   66.8401 H   0  0  0  0  0  0  0  0  0  0  0  0
  130.6254  126.4729   65.9848 H   0  0  0  0  0  0  0  0  0  0  0  0
  132.8440  124.7370   66.3790 H   0  0  0  0  0  0  0  0  0  0  0  0
  130.7897  125.8492   64.1568 H   0  0  0  0  0  0  0  0  0  0  0  0
  131.0469  121.6399   60.2138 H   0  0  0  0  0  0  0  0  0  0  0  0
  129.3756  121.4425   60.9687 H   0  0  0  0  0  0  0  0  0  0  0  0
  132.1895  124.2790   60.3558 H   0  0  0  0  0  0  0  0  0  0  0  0
  132.9245  126.4420   59.3856 H   0  0  0  0  0  0  0  0  0  0  0  0
  131.4406  127.7372   57.8710 H   0  0  0  0  0  0  0  0  0  0  0  0
  130.2518  128.2953   56.2099 H   0  0  0  0  0  0  0  0  0  0  0  0
  128.5572  128.3648   55.5438 H   0  0  0  0  0  0  0  0  0  0  0  0
  128.9552  130.4113   56.7469 H   0  0  0  0  0  0  0  0  0  0  0  0
  127.8312  129.3744   57.7223 H   0  0  0  0  0  0  0  0  0  0  0  0
  130.6424  128.8787   58.3875 H   0  0  0  0  0  0  0  0  0  0  0  0
  130.1353  130.6266   58.6227 H   0  0  0  0  0  0  0  0  0  0  0  0
  127.2058  128.8016   59.0348 H   0  0  0  0  0  0  0  0  0  0  0  0
  128.1959  127.3429   59.4038 H   0  0  0  0  0  0  0  0  0  0  0  0
  126.1959  128.7117   61.0833 H   0  0  0  0  0  0  0  0  0  0  0  0
  127.0055  127.1126   61.3246 H   0  0  0  0  0  0  0  0  0  0  0  0
  126.2081  128.2435   63.3649 H   0  0  0  0  0  0  0  0  0  0  0  0
  127.7999  127.6052   64.0623 H   0  0  0  0  0  0  0  0  0  0  0  0
  125.8800  128.5100   65.7950 H   0  0  0  0  0  0  0  0  0  0  0  0
  126.4040  130.0180   66.4950 H   0  0  0  0  0  0  0  0  0  0  0  0
  130.0288  128.4637   63.0683 H   0  0  0  0  0  0  0  0  0  0  0  0
  129.3066  127.0297   62.2443 H   0  0  0  0  0  0  0  0  0  0  0  0
  130.9774  129.1944   61.1167 H   0  0  0  0  0  0  0  0  0  0  0  0
  130.5172  127.6033   60.4030 H   0  0  0  0  0  0  0  0  0  0  0  0
  127.1502  130.7777   62.1075 H   0  0  0  0  0  0  0  0  0  0  0  0
  128.8326  130.7458   62.7570 H   0  0  0  0  0  0  0  0  0  0  0  0
  127.9220  131.0311   59.9743 H   0  0  0  0  0  0  0  0  0  0  0  0
  129.5783  131.2268   60.6700 H   0  0  0  0  0  0  0  0  0  0  0  0
  126.8700  126.8510   56.2282 H   0  0  0  0  0  0  0  0  0  0  0  0
  126.2666  124.6691   57.2879 H   0  0  0  0  0  0  0  0  0  0  0  0
  128.9567  122.5172   63.3836 H   0  0  0  0  0  0  0  0  0  0  0  0
  128.5333  124.9919   63.4217 H   0  0  0  0  0  0  0  0  0  0  0  0
  129.5788  125.0584   61.9625 H   0  0  0  0  0  0  0  0  0  0  0  0
  128.1006  124.0378   61.9625 H   0  0  0  0  0  0  0  0  0  0  0  0
  130.0269  123.1314   65.1685 H   0  0  0  0  0  0  0  0  0  0  0  0
  1  2  1  0
  2  3  1  0
  2  4  1  0
  4  5  1  0
  5  6  2  0
  5  7  1  0
  7  8  1  0
  8  9  1  0
  9 10  2  0
  9 11  1  0
  8 12  2  0
 12 13  1  0
 13 14  1  0
 14 15  1  0
 15 16  1  0
 16 17  2  0
 17 18  1  0
 18 19  2  0
 19 20  1  0
 20 21  1  0
 21 22  1  0
 22 23  1  0
 24 23  1  1
 24 25  1  0
 25 26  1  0
 26 27  1  0
 27 28  1  6
 28 29  1  0
 29 30  1  0
 29 31  2  0
 27 32  1  0
 32 33  1  0
 27 34  1  0
 34 35  1  0
 20 36  2  0
 36 37  1  0
 37 38  2  0
 38 39  1  0
 38 40  1  0
 40 41  2  0
 40 42  2  0
 12 43  1  0
 43 44  1  0
 43 45  1  0
 45  4  1  0
 45  7  1  0
 40 14  1  0
 39 15  2  0
 39 19  1  0
 33 24  1  0
 35 24  1  0
  1 46  1  0
  1 47  1  0
  1 48  1  0
  2 49  1  6
  3 50  1  0
  4 51  1  6
 13 52  1  0
 13 53  1  0
 16 54  1  0
 17 55  1  0
 18 56  1  0
 21 57  1  0
 21 58  1  0
 22 59  1  0
 22 60  1  0
 23 61  1  0
 23 62  1  0
 25 63  1  0
 25 64  1  0
 26 65  1  0
 26 66  1  0
 28 67  1  0
 28 68  1  0
 30 69  1  0
 30 70  1  0
 32 71  1  0
 32 72  1  0
 33 73  1  0
 33 74  1  0
 34 75  1  0
 34 76  1  0
 35 77  1  0
 35 78  1  0
 36 79  1  0
 37 80  1  0
 43 81  1  1
 44 82  1  0
 44 83  1  0
 44 84  1  0
 45 85  1  1
M  CHG  3  11  -1  24   1  27   1
M  END
>  <Binding energies>  (1) 
[-10.05]

>  <Ligand effiencies>  (1) 
[-0.209375]

>  <Interactions>  (1) 
["V-B:PRO:540:CA:9855, V-B:GLU:543:CB:9878, V-B:TYR:539:CE2:9848, V-A:TYR:484:CE2:4346, H-B:TYR:539:N:9842, V-B:GLU:543:CG:9879, V-B:TYR:539:C:9839, V-A:ASP:366:CG:3213, V-B:TYR:539:CZ:9849, V-A:GLU:543:CD:4908, V-A:TYR:484:CZ:4347, H-B:TYR:484:OH:9319, V-B:GLU:543:CA:9876, H-A:GLY:454:N:4050, V-B:PRO:540:N:9856, V-A:HIS:456:CE1:4070, V-B:TYR:484:CZ:9318, V-B:TYR:539:CD2:9846, H-A:SER:385:OG:3410, V-A:MET:535:CE:4835, V-B:GLU:543:CD:9880, V-A:ASP:366:CB:3212, V-A:LEU:475:CD2:4259, H-A:ARG:545:NH2:4928, H-B:GLU:543:OE2:9882, H-A:ARG:545:NE:4924, H-A:TYR:484:OH:4348"]

$$$$
ZINC27740352
     RDKit          3D

 82 88  0  0  0  0  0  0  0  0999 V2000
  130.0110  124.5940   67.2840 C   0  0  0  0  0  0  0  0  0  0  0  0
  130.9500  125.4860   66.4520 C   0  0  1  0  0  0  0  0  0  0  0  0
  132.2270  125.4580   67.0580 O   0  0  0  0  0  0  0  0  0  0  0  0
  131.1080  125.0360   64.9800 C   0  0  1  0  0  0  0  0  0  0  0  0
  132.5050  124.4210   64.6880 C   0  0  0  0  0  0  0  0  0  0  0  0
  133.6710  124.7850   64.8230 O   0  0  0  0  0  0  0  0  0  0  0  0
  131.9120  123.2740   64.1530 N   0  0  0  0  0  0  0  0  0  0  0  0
  131.9340  122.8470   62.8710 C   0  0  0  0  0  0  0  0  0  0  0  0
  133.2810  122.3840   62.2340 C   0  0  0  0  0  0  0  0  0  0  0  0
  134.2870  123.0370   62.5910 O   0  0  0  0  0  0  0  0  0  0  0  0
  133.1930  121.4230   61.4340 O   0  0  0  0  0  0  0  0  0  0  0  0
  130.7010  122.8310   62.3180 C   0  0  0  0  0  0  0  0  0  0  0  0
  130.2280  122.3760   60.9430 C   0  0  0  0  0  0  0  0  0  0  0  0
  129.9540  123.4260   59.9710 N   0  0  0  0  0  0  0  0  0  0  0  0
  128.9480  123.4650   58.9960 C   0  0  0  0  0  0  0  0  0  0  0  0
  127.9630  122.5230   58.6880 C   0  0  0  0  0  0  0  0  0  0  0  0
  127.0330  122.7670   57.6730 C   0  0  0  0  0  0  0  0  0  0  0  0
  127.0620  123.9530   56.9350 C   0  0  0  0  0  0  0  0  0  0  0  0
  128.0520  124.9300   57.2030 C   0  0  0  0  0  0  0  0  0  0  0  0
  128.1800  126.1620   56.5130 C   0  0  0  0  0  0  0  0  0  0  0  0
  129.2070  127.0510   56.8570 C   0  0  0  0  0  0  0  0  0  0  0  0
  130.1240  126.7540   57.8740 C   0  0  0  0  0  0  0  0  0  0  0  0
  131.2350  127.7350   58.2110 C   0  0  0  0  0  0  0  0  0  0  0  0
  130.7010  129.1810   58.3520 C   0  0  0  0  0  0  0  0  0  0  0  0
  130.0010  129.4660   59.7140 N   0  0  2  0  0  0  0  0  0  0  0  0
  130.0290  128.2250   60.6510 C   0  0  0  0  0  0  0  0  0  0  0  0
  129.3920  128.5820   62.0270 C   0  0  0  0  0  0  0  0  0  0  0  0
  128.6900  129.9750   61.9750 N   0  0  2  0  0  0  0  0  0  0  0  0
  127.9620  130.1660   63.3460 C   0  0  0  0  0  0  0  0  0  0  0  0
  126.9390  129.0790   63.7420 C   0  0  0  0  0  0  0  0  0  0  0  0
  126.3600  129.2350   64.9350 N   0  0  0  0  0  0  0  0  0  0  0  0
  126.6640  128.1200   63.0260 O   0  0  0  0  0  0  0  0  0  0  0  0
  127.7110  129.9420   60.7640 C   0  0  0  0  0  0  0  0  0  0  0  0
  128.5060  129.8020   59.4330 C   0  0  0  0  0  0  0  0  0  0  0  0
  129.7960  131.0440   61.7160 C   0  0  0  0  0  0  0  0  0  0  0  0
  130.6420  130.6690   60.4620 C   0  0  0  0  0  0  0  0  0  0  0  0
  129.9760  125.5370   58.5480 C   0  0  0  0  0  0  0  0  0  0  0  0
  128.9790  124.6500   58.2350 C   0  0  0  0  0  0  0  0  0  0  0  0
  130.9820  124.8610   59.8790 S   0  0  0  0  0  0  0  0  0  0  0  0
  130.8540  125.6600   61.1020 O   0  0  0  0  0  0  0  0  0  0  0  0
  132.3200  124.4990   59.4000 O   0  0  0  0  0  0  0  0  0  0  0  0
  129.7100  123.3530   63.3630 C   0  0  2  0  0  0  0  0  0  0  0  0
  128.8770  124.5510   62.8700 C   0  0  0  0  0  0  0  0  0  0  0  0
  130.5620  123.6240   64.6270 C   0  0  2  0  0  0  0  0  0  0  0  0
  130.1937  124.7676   68.3547 H   0  0  0  0  0  0  0  0  0  0  0  0
  128.9656  124.8397   67.0459 H   0  0  0  0  0  0  0  0  0  0  0  0
  130.2027  123.5373   67.0459 H   0  0  0  0  0  0  0  0  0  0  0  0
  130.5035  126.4911   66.4319 H   0  0  0  0  0  0  0  0  0  0  0  0
  132.6840  124.6640   66.7690 H   0  0  0  0  0  0  0  0  0  0  0  0
  130.7095  125.9422   64.5003 H   0  0  0  0  0  0  0  0  0  0  0  0
  131.0065  121.7239   60.5204 H   0  0  0  0  0  0  0  0  0  0  0  0
  129.2618  121.8796   61.1164 H   0  0  0  0  0  0  0  0  0  0  0  0
  127.9188  121.5787   59.2505 H   0  0  0  0  0  0  0  0  0  0  0  0
  126.2646  122.0117   57.4515 H   0  0  0  0  0  0  0  0  0  0  0  0
  126.3160  124.1281   56.1458 H   0  0  0  0  0  0  0  0  0  0  0  0
  127.4745  126.4194   55.7093 H   0  0  0  0  0  0  0  0  0  0  0  0
  129.2954  128.0046   56.3159 H   0  0  0  0  0  0  0  0  0  0  0  0
  131.7007  127.4331   59.1607 H   0  0  0  0  0  0  0  0  0  0  0  0
  131.9665  127.7189   57.3896 H   0  0  0  0  0  0  0  0  0  0  0  0
  131.5481  129.8747   58.2462 H   0  0  0  0  0  0  0  0  0  0  0  0
  129.9416  129.3185   57.5681 H   0  0  0  0  0  0  0  0  0  0  0  0
  129.4597  127.4057   60.1876 H   0  0  0  0  0  0  0  0  0  0  0  0
  131.0724  127.9131   60.8061 H   0  0  0  0  0  0  0  0  0  0  0  0
  128.6489  127.8145   62.2891 H   0  0  0  0  0  0  0  0  0  0  0  0
  130.1903  128.6203   62.7828 H   0  0  0  0  0  0  0  0  0  0  0  0
  128.7320  130.2017   64.1308 H   0  0  0  0  0  0  0  0  0  0  0  0
  127.3760  131.0905   63.2373 H   0  0  0  0  0  0  0  0  0  0  0  0
  126.5880  130.0250   65.5210 H   0  0  0  0  0  0  0  0  0  0  0  0
  125.6840  128.5580   65.2590 H   0  0  0  0  0  0  0  0  0  0  0  0
  127.0289  129.0857   60.8715 H   0  0  0  0  0  0  0  0  0  0  0  0
  127.1363  130.8797   60.7416 H   0  0  0  0  0  0  0  0  0  0  0  0
  128.0621  128.9954   58.8310 H   0  0  0  0  0  0  0  0  0  0  0  0
  128.4555  130.7574   58.8901 H   0  0  0  0  0  0  0  0  0  0  0  0
  129.3210  132.0225   61.5517 H   0  0  0  0  0  0  0  0  0  0  0  0
  130.4606  131.0845   62.5916 H   0  0  0  0  0  0  0  0  0  0  0  0
  130.6880  131.5341   59.7842 H   0  0  0  0  0  0  0  0  0  0  0  0
  131.6548  130.3880   60.7865 H   0  0  0  0  0  0  0  0  0  0  0  0
  128.9222  122.6184   63.5861 H   0  0  0  0  0  0  0  0  0  0  0  0
  128.4892  125.1088   63.7352 H   0  0  0  0  0  0  0  0  0  0  0  0
  129.5109  125.2127   62.2614 H   0  0  0  0  0  0  0  0  0  0  0  0
  128.0360  124.1872   62.2614 H   0  0  0  0  0  0  0  0  0  0  0  0
  129.9362  123.1917   65.4217 H   0  0  0  0  0  0  0  0  0  0  0  0
  1  2  1  0
  2  3  1  0
  2  4  1  0
  4  5  1  0
  5  6  2  0
  5  7  1  0
  7  8  1  0
  8  9  1  0
  9 10  2  0
  9 11  1  0
  8 12  2  0
 12 13  1  0
 13 14  1  0
 14 15  1  0
 15 16  1  0
 16 17  2  0
 17 18  1  0
 18 19  2  0
 19 20  1  0
 20 21  2  0
 21 22  1  0
 22 23  1  0
 23 24  1  0
 25 24  1  6
 25 26  1  0
 26 27  1  0
 27 28  1  0
 28 29  1  1
 29 30  1  0
 30 31  1  0
 30 32  2  0
 28 33  1  0
 33 34  1  0
 28 35  1  0
 35 36  1  0
 22 37  2  0
 37 38  1  0
 37 39  1  0
 39 40  2  0
 39 41  2  0
 12 42  1  0
 42 43  1  0
 42 44  1  0
 44  4  1  0
 44  7  1  0
 39 14  1  0
 38 15  2  0
 38 19  1  0
 34 25  1  0
 36 25  1  0
  1 45  1  0
  1 46  1  0
  1 47  1  0
  2 48  1  6
  3 49  1  0
  4 50  1  6
 13 51  1  0
 13 52  1  0
 16 53  1  0
 17 54  1  0
 18 55  1  0
 20 56  1  0
 21 57  1  0
 23 58  1  0
 23 59  1  0
 24 60  1  0
 24 61  1  0
 26 62  1  0
 26 63  1  0
 27 64  1  0
 27 65  1  0
 29 66  1  0
 29 67  1  0
 31 68  1  0
 31 69  1  0
 33 70  1  0
 33 71  1  0
 34 72  1  0
 34 73  1  0
 35 74  1  0
 35 75  1  0
 36 76  1  0
 36 77  1  0
 42 78  1  1
 43 79  1  0
 43 80  1  0
 43 81  1  0
 44 82  1  1
M  CHG  3  11  -1  25   1  28   1
M  END
>  <Binding energies>  (1) 
[-9.54]

>  <Ligand effiencies>  (1) 
[-0.2029787234042553]

>  <Interactions>  (1) 
["V-B:PRO:540:CA:9855, V-B:GLU:543:CB:9878, V-B:TYR:539:CE2:9848, V-A:TYR:484:CE2:4346, V-B:GLU:543:CG:9879, V-B:TYR:539:C:9839, V-B:TYR:539:CZ:9849, H-B:GLU:543:OE1:9881, H-B:TYR:539:OH:9850, V-A:TYR:484:CZ:4347, V-B:PRO:540:CB:9857, V-A:GLU:543:CD:4908, H-B:TYR:484:OH:9319, V-B:GLU:543:CA:9876, H-A:GLY:454:N:4050, V-B:PRO:540:N:9856, V-A:HIS:456:CE1:4070, V-B:TYR:539:CD2:9846, V-B:PRO:540:CD:9859, V-B:GLU:543:CD:9880, V-A:ASP:366:CB:3212, V-A:LEU:475:CD2:4259, H-A:ARG:545:NH2:4928, V-B:TYR:539:CG:9844, H-B:ARG:545:NH2:9900, H-B:GLU:543:OE2:9882, H-A:ARG:545:NE:4924, H-A:HIS:456:ND1:4067, H-A:TYR:484:OH:4348"]

$$$$
ZINC2775718
     RDKit          3D

 38 39  0  0  0  0  0  0  0  0999 V2000
  133.6100  121.5530   61.8330 C   0  0  0  0  0  0  0  0  0  0  0  0
  132.4620  122.4290   62.3580 C   0  0  0  0  0  0  0  0  0  0  0  0
  132.9180  123.7170   62.8930 N   0  0  0  0  0  0  0  0  0  0  0  0
  133.9880  124.3940   62.1520 C   0  0  0  0  0  0  0  0  0  0  0  0
  133.6450  124.6270   60.6740 C   0  0  0  0  0  0  0  0  0  0  0  0
  132.3470  124.2820   64.0700 C   0  0  0  0  0  0  0  0  0  0  0  0
  133.1430  124.9370   65.0230 C   0  0  0  0  0  0  0  0  0  0  0  0
  132.5860  125.4900   66.1730 C   0  0  0  0  0  0  0  0  0  0  0  0
  131.2120  125.4080   66.4110 C   0  0  0  0  0  0  0  0  0  0  0  0
  130.6600  126.0010   67.6350 C   0  0  0  0  0  0  0  0  0  0  0  0
  131.0610  127.1080   68.1380 N   0  0  0  0  0  0  0  0  0  0  0  0
  130.4270  127.5230   69.2780 N   0  0  0  0  0  0  0  0  0  0  0  0
  131.1840  128.0900   70.3770 C   0  0  0  0  0  0  0  0  0  0  0  0
  130.0960  128.4260   71.3660 C   0  0  0  0  0  0  0  0  0  0  0  0
  130.2290  128.8550   72.5100 O   0  0  0  0  0  0  0  0  0  0  0  0
  128.9780  128.1350   70.6970 N   0  0  0  0  0  0  0  0  0  0  0  0
  129.0650  127.6500   69.4320 C   0  0  0  0  0  0  0  0  0  0  0  0
  127.7810  127.3360   68.4130 S   0  0  0  0  0  0  0  0  0  0  0  0
  130.4080  124.7580   65.4670 C   0  0  0  0  0  0  0  0  0  0  0  0
  130.9660  124.2060   64.3180 C   0  0  0  0  0  0  0  0  0  0  0  0
  134.1657  121.1290   62.6824 H   0  0  0  0  0  0  0  0  0  0  0  0
  133.1983  120.7374   61.2204 H   0  0  0  0  0  0  0  0  0  0  0  0
  134.2879  122.1654   61.2204 H   0  0  0  0  0  0  0  0  0  0  0  0
  131.7624  122.6214   61.5312 H   0  0  0  0  0  0  0  0  0  0  0  0
  131.9838  121.8820   63.1839 H   0  0  0  0  0  0  0  0  0  0  0  0
  134.1782  125.3688   62.6248 H   0  0  0  0  0  0  0  0  0  0  0  0
  134.8722  123.7404   62.1837 H   0  0  0  0  0  0  0  0  0  0  0  0
  132.7371  125.2437   60.6011 H   0  0  0  0  0  0  0  0  0  0  0  0
  134.4807  125.1450   60.1809 H   0  0  0  0  0  0  0  0  0  0  0  0
  133.4714  123.6592   60.1809 H   0  0  0  0  0  0  0  0  0  0  0  0
  134.2278  125.0148   64.8580 H   0  0  0  0  0  0  0  0  0  0  0  0
  133.2351  125.9970   66.9021 H   0  0  0  0  0  0  0  0  0  0  0  0
  129.8526  125.4614   68.1516 H   0  0  0  0  0  0  0  0  0  0  0  0
  131.8917  127.3586   70.7944 H   0  0  0  0  0  0  0  0  0  0  0  0
  131.8047  128.9517   70.0903 H   0  0  0  0  0  0  0  0  0  0  0  0
  128.0600  128.2720   71.0940 H   0  0  0  0  0  0  0  0  0  0  0  0
  129.3236  124.6829   65.6354 H   0  0  0  0  0  0  0  0  0  0  0  0
  130.3139  123.7008   63.5903 H   0  0  0  0  0  0  0  0  0  0  0  0
  1  2  1  0
  2  3  1  0
  3  4  1  0
  4  5  1  0
  3  6  1  0
  6  7  2  0
  7  8  1  0
  8  9  2  0
  9 10  1  0
 10 11  2  0
 11 12  1  0
 12 13  1  0
 13 14  1  0
 14 15  2  0
 14 16  1  0
 16 17  1  0
 17 18  2  0
  9 19  1  0
 19 20  2  0
 20  6  1  0
 17 12  1  0
  1 21  1  0
  1 22  1  0
  1 23  1  0
  2 24  1  0
  2 25  1  0
  4 26  1  0
  4 27  1  0
  5 28  1  0
  5 29  1  0
  5 30  1  0
  7 31  1  0
  8 32  1  0
 10 33  1  0
 13 34  1  0
 13 35  1  0
 16 36  1  0
 19 37  1  0
 20 38  1  0
M  END
>  <Binding energies>  (1) 
[-5.62]

>  <Ligand effiencies>  (1) 
[-0.26761904761904765]

>  <Interactions>  (1) 
["V-A:ILE:369:CG2:3237, V-A:ASP:366:CA:3210, V-A:ARG:545:CA:4919, V-B:HIS:456:CD2:9039, V-A:GLU:543:C:4902, V-B:GLU:543:CB:9878, V-A:GLY:544:CA:4914, V-A:GLY:544:C:4912, V-B:GLU:543:CG:9879, V-A:ASP:366:CG:3213, V-A:TYR:484:CZ:4347, V-A:ARG:545:CG:4922, V-B:HIS:456:CE1:9041, V-A:HIS:456:CE1:4070, V-A:ILE:369:CD1:3239, H-B:HIS:456:NE2:9042, V-A:ASP:366:CB:3212, V-A:ARG:545:CD:4923, H-A:LYS:547:NZ:4951, V-A:LEU:475:CD2:4259, V-A:ARG:545:CZ:4926, V-A:GLU:543:CB:4906"]

$$$$
ZINC2788679
     RDKit          3D

 63 67  0  0  0  0  0  0  0  0999 V2000
  130.0090  117.6550   61.6460 C   0  0  0  0  0  0  0  0  0  0  0  0
  130.6310  118.8680   61.2530 O   0  0  0  0  0  0  0  0  0  0  0  0
  131.3830  118.7560   60.0530 C   0  0  0  0  0  0  0  0  0  0  0  0
  132.3850  119.9130   59.9750 C   0  0  0  0  0  0  0  0  0  0  0  0
  132.6360  120.4300   61.2760 O   0  0  0  0  0  0  0  0  0  0  0  0
  133.4460  121.4970   61.4770 C   0  0  0  0  0  0  0  0  0  0  0  0
  134.6040  121.5450   61.0530 O   0  0  0  0  0  0  0  0  0  0  0  0
  132.8060  122.5820   62.2760 C   0  0  0  0  0  0  0  0  0  0  0  0
  133.3980  123.7980   62.4710 C   0  0  0  0  0  0  0  0  0  0  0  0
  134.6710  124.3470   61.8310 C   0  0  0  0  0  0  0  0  0  0  0  0
  132.8250  124.7010   63.3410 N   0  0  0  0  0  0  0  0  0  0  0  0
  131.7760  124.4050   64.1830 C   0  0  0  0  0  0  0  0  0  0  0  0
  131.0870  123.2420   64.0320 C   0  0  0  0  0  0  0  0  0  0  0  0
  129.9830  122.8810   64.9510 C   0  0  0  0  0  0  0  0  0  0  0  0
  129.4980  121.7510   64.9780 O   0  0  0  0  0  0  0  0  0  0  0  0
  129.5760  123.9220   66.0110 C   0  0  0  0  0  0  0  0  0  0  0  0
  129.9170  125.3710   65.5760 C   0  0  1  0  0  0  0  0  0  0  0  0
  129.4840  126.4650   66.5710 C   0  0  0  0  0  0  0  0  0  0  0  0
  129.7220  126.3190   67.9480 C   0  0  0  0  0  0  0  0  0  0  0  0
  129.3180  127.3000   68.8530 C   0  0  0  0  0  0  0  0  0  0  0  0
  128.6620  128.4400   68.4000 C   0  0  0  0  0  0  0  0  0  0  0  0
  128.4070  128.5980   67.0400 C   0  0  0  0  0  0  0  0  0  0  0  0
  128.8070  127.6210   66.1270 C   0  0  0  0  0  0  0  0  0  0  0  0
  128.4270  127.8780   64.4570 Cl  0  0  0  0  0  0  0  0  0  0  0  0
  131.4190  125.4760   65.2110 C   0  0  0  0  0  0  0  0  0  0  0  0
  131.3780  122.2960   62.8350 C   0  0  1  0  0  0  0  0  0  0  0  0
  130.3160  122.5070   61.7360 C   0  0  0  0  0  0  0  0  0  0  0  0
  129.4040  121.5700   61.3830 C   0  0  0  0  0  0  0  0  0  0  0  0
  128.4470  121.7000   60.4300 O   0  0  0  0  0  0  0  0  0  0  0  0
  128.3730  122.8960   59.7470 C   0  0  0  0  0  0  0  0  0  0  0  0
  127.3740  123.0070   58.7800 C   0  0  0  0  0  0  0  0  0  0  0  0
  127.2460  124.1900   58.0540 C   0  0  0  0  0  0  0  0  0  0  0  0
  128.1120  125.2540   58.2960 C   0  0  0  0  0  0  0  0  0  0  0  0
  129.1110  125.1420   59.2650 C   0  0  0  0  0  0  0  0  0  0  0  0
  129.2570  123.9590   60.0060 C   0  0  0  0  0  0  0  0  0  0  0  0
  130.3250  123.8210   61.0520 C   0  0  0  0  0  0  0  0  0  0  0  0
  131.1100  124.7400   61.2890 O   0  0  0  0  0  0  0  0  0  0  0  0
  129.9793  117.5971   62.7441 H   0  0  0  0  0  0  0  0  0  0  0  0
  128.9835  117.6235   61.2493 H   0  0  0  0  0  0  0  0  0  0  0  0
  130.5819  116.8039   61.2493 H   0  0  0  0  0  0  0  0  0  0  0  0
  131.9252  117.7989   60.0468 H   0  0  0  0  0  0  0  0  0  0  0  0
  130.7052  118.7958   59.1876 H   0  0  0  0  0  0  0  0  0  0  0  0
  133.3276  119.5494   59.5398 H   0  0  0  0  0  0  0  0  0  0  0  0
  131.9654  120.7111   59.3449 H   0  0  0  0  0  0  0  0  0  0  0  0
  135.3758  124.6510   62.6189 H   0  0  0  0  0  0  0  0  0  0  0  0
  135.1328  123.5680   61.2065 H   0  0  0  0  0  0  0  0  0  0  0  0
  134.4214  125.2175   61.2065 H   0  0  0  0  0  0  0  0  0  0  0  0
  133.2080  125.6340   63.3720 H   0  0  0  0  0  0  0  0  0  0  0  0
  128.4914  123.8495   66.1795 H   0  0  0  0  0  0  0  0  0  0  0  0
  130.1413  123.7051   66.9294 H   0  0  0  0  0  0  0  0  0  0  0  0
  129.3100  125.5738   64.6814 H   0  0  0  0  0  0  0  0  0  0  0  0
  130.2342  125.4183   68.3173 H   0  0  0  0  0  0  0  0  0  0  0  0
  129.5184  127.1722   69.9270 H   0  0  0  0  0  0  0  0  0  0  0  0
  128.3455  129.2146   69.1141 H   0  0  0  0  0  0  0  0  0  0  0  0
  127.8867  129.4990   66.6829 H   0  0  0  0  0  0  0  0  0  0  0  0
  131.6237  126.4708   64.7885 H   0  0  0  0  0  0  0  0  0  0  0  0
  132.0248  125.3270   66.1170 H   0  0  0  0  0  0  0  0  0  0  0  0
  131.3333  121.2501   63.1727 H   0  0  0  0  0  0  0  0  0  0  0  0
  129.4429  120.6112   61.9207 H   0  0  0  0  0  0  0  0  0  0  0  0
  126.6910  122.1657   58.5913 H   0  0  0  0  0  0  0  0  0  0  0  0
  126.4607  124.2835   57.2895 H   0  0  0  0  0  0  0  0  0  0  0  0
  128.0084  126.1862   57.7213 H   0  0  0  0  0  0  0  0  0  0  0  0
  129.7894  125.9881   59.4492 H   0  0  0  0  0  0  0  0  0  0  0  0
  1  2  1  0
  2  3  1  0
  3  4  1  0
  4  5  1  0
  5  6  1  0
  6  7  2  0
  6  8  1  0
  8  9  2  0
  9 10  1  0
  9 11  1  0
 11 12  1  0
 12 13  2  0
 13 14  1  0
 14 15  2  0
 14 16  1  0
 16 17  1  0
 17 18  1  0
 18 19  2  0
 19 20  1  0
 20 21  2  0
 21 22  1  0
 22 23  2  0
 23 24  1  0
 17 25  1  0
 13 26  1  0
 26 27  1  0
 27 28  2  0
 28 29  1  0
 29 30  1  0
 30 31  2  0
 31 32  1  0
 32 33  2  0
 33 34  1  0
 34 35  2  0
 35 36  1  0
 36 37  2  0
 26  8  1  0
 36 27  1  0
 25 12  1  0
 35 30  1  0
 23 18  1  0
  1 38  1  0
  1 39  1  0
  1 40  1  0
  3 41  1  0
  3 42  1  0
  4 43  1  0
  4 44  1  0
 10 45  1  0
 10 46  1  0
 10 47  1  0
 11 48  1  0
 16 49  1  0
 16 50  1  0
 17 51  1  6
 19 52  1  0
 20 53  1  0
 21 54  1  0
 22 55  1  0
 25 56  1  0
 25 57  1  0
 26 58  1  1
 28 59  1  0
 31 60  1  0
 32 61  1  0
 33 62  1  0
 34 63  1  0
M  END
>  <Binding energies>  (1) 
[-7.95]

>  <Ligand effiencies>  (1) 
[-0.20921052631578949]

>  <Interactions>  (1) 
["V-A:ILE:369:CG2:3237, V-B:PRO:540:CA:9855, V-B:GLU:543:CB:9878, V-B:ALA:541:CB:9864, V-B:TYR:539:CE2:9848, V-A:TYR:484:CE2:4346, V-A:LEU:475:CG:4257, V-B:GLU:543:CG:9879, V-B:TYR:539:C:9839, V-A:ASP:366:CG:3213, H-B:ALA:541:N:9863, V-A:LEU:475:CD1:4258, V-B:TYR:539:CB:9843, V-A:TYR:484:CZ:4347, V-A:GLU:543:CD:4908, V-B:PRO:540:CB:9857, V-B:GLU:543:CA:9876, V-B:HIS:456:CE1:9041, V-B:PRO:540:N:9856, V-A:ILE:369:CD1:3239, V-A:HIS:456:CE1:4070, V-A:PRO:482:CB:4326, V-B:TYR:539:CD2:9846, V-A:GLU:543:CG:4907, V-A:SER:385:CB:3409, H-A:SER:385:OG:3410, V-B:GLU:543:CD:9880, V-A:LEU:475:CD2:4259, V-A:ARG:545:CZ:4926, V-B:TYR:539:CG:9844, V-A:GLU:543:CB:4906, H-A:HIS:383:HE2:3395, H-A:ASP:366:OD1:3214, V-A:PRO:482:CG:4327, V-A:GLY:453:CA:4044, V-A:HIS:383:NE2:3394"]

$$$$
ZINC2789843
     RDKit          3D

 39 41  0  0  0  0  0  0  0  0999 V2000
  132.9970  130.7400   58.2370 C   0  0  0  0  0  0  0  0  0  0  0  0
  132.2580  131.1040   56.6210 S   0  0  0  0  0  0  0  0  0  0  0  0
  130.8850  132.0350   57.2280 C   0  0  0  0  0  0  0  0  0  0  0  0
  130.5730  133.2030   56.7230 N   0  0  0  0  0  0  0  0  0  0  0  0
  129.5130  133.7140   57.4570 N   0  0  0  0  0  0  0  0  0  0  0  0
  129.2160  132.8240   58.3680 C   0  0  0  0  0  0  0  0  0  0  0  0
  128.1100  133.0000   59.3910 C   0  0  0  0  0  0  0  0  0  0  0  0
  127.2710  131.9640   59.4030 F   0  0  0  0  0  0  0  0  0  0  0  0
  128.5910  133.1780   60.6220 F   0  0  0  0  0  0  0  0  0  0  0  0
  130.0150  131.7010   58.2670 N   0  0  0  0  0  0  0  0  0  0  0  0
  129.9320  130.5990   59.1060 N   0  0  0  0  0  0  0  0  0  0  0  0
  129.2540  129.5880   58.7360 C   0  0  0  0  0  0  0  0  0  0  0  0
  129.1750  128.4010   59.5690 C   0  0  0  0  0  0  0  0  0  0  0  0
  128.3440  127.2860   59.5980 C   0  0  0  0  0  0  0  0  0  0  0  0
  128.7800  126.4750   60.6470 C   0  0  0  0  0  0  0  0  0  0  0  0
  129.8580  127.1220   61.2280 C   0  0  0  0  0  0  0  0  0  0  0  0
  130.7860  126.8020   62.3750 C   0  0  0  0  0  0  0  0  0  0  0  0
  132.1000  126.5950   61.8660 O   0  0  0  0  0  0  0  0  0  0  0  0
  132.4360  125.2820   61.6420 C   0  0  0  0  0  0  0  0  0  0  0  0
  132.7660  124.4450   62.7170 C   0  0  0  0  0  0  0  0  0  0  0  0
  132.7510  125.0400   64.3400 Cl  0  0  0  0  0  0  0  0  0  0  0  0
  133.1130  123.1130   62.4850 C   0  0  0  0  0  0  0  0  0  0  0  0
  133.1390  122.6120   61.1840 C   0  0  0  0  0  0  0  0  0  0  0  0
  133.5690  120.9630   60.9020 Cl  0  0  0  0  0  0  0  0  0  0  0  0
  132.8190  123.4420   60.1110 C   0  0  0  0  0  0  0  0  0  0  0  0
  132.4710  124.7760   60.3350 C   0  0  0  0  0  0  0  0  0  0  0  0
  132.0910  125.7850   58.9840 Cl  0  0  0  0  0  0  0  0  0  0  0  0
  130.0900  128.2870   60.5670 O   0  0  0  0  0  0  0  0  0  0  0  0
  132.3175  131.0747   59.0347 H   0  0  0  0  0  0  0  0  0  0  0  0
  133.1640  129.6566   58.3282 H   0  0  0  0  0  0  0  0  0  0  0  0
  133.9577  131.2680   58.3282 H   0  0  0  0  0  0  0  0  0  0  0  0
  127.5623  133.9034   59.0846 H   0  0  0  0  0  0  0  0  0  0  0  0
  128.7214  129.6133   57.7739 H   0  0  0  0  0  0  0  0  0  0  0  0
  127.5013  127.0817   58.9212 H   0  0  0  0  0  0  0  0  0  0  0  0
  128.3508  125.5095   60.9529 H   0  0  0  0  0  0  0  0  0  0  0  0
  130.7944  127.6403   63.0872 H   0  0  0  0  0  0  0  0  0  0  0  0
  130.4401  125.8936   62.8899 H   0  0  0  0  0  0  0  0  0  0  0  0
  133.3666  122.4569   63.3307 H   0  0  0  0  0  0  0  0  0  0  0  0
  132.8406  123.0455   59.0852 H   0  0  0  0  0  0  0  0  0  0  0  0
  1  2  1  0
  2  3  1  0
  3  4  2  0
  4  5  1  0
  5  6  2  0
  6  7  1  0
  7  8  1  0
  7  9  1  0
  6 10  1  0
 10 11  1  0
 11 12  2  0
 12 13  1  0
 13 14  2  0
 14 15  1  0
 15 16  2  0
 16 17  1  0
 17 18  1  0
 18 19  1  0
 19 20  2  0
 20 21  1  0
 20 22  1  0
 22 23  2  0
 23 24  1  0
 23 25  1  0
 25 26  2  0
 26 27  1  0
 16 28  1  0
 10  3  1  0
 28 13  1  0
 26 19  1  0
  1 29  1  0
  1 30  1  0
  1 31  1  0
  7 32  1  0
 12 33  1  0
 14 34  1  0
 15 35  1  0
 17 36  1  0
 17 37  1  0
 22 38  1  0
 25 39  1  0
M  END
>  <Binding energies>  (1) 
[-5.79]

>  <Ligand effiencies>  (1) 
[-0.2067857142857143]

>  <Interactions>  (1) 
["V-A:ILE:369:CG2:3237, H-A:TYR:531:OH:4795, V-B:TYR:539:CE2:9848, V-A:ASP:366:CG:3213, V-A:TYR:539:CD1:4873, V-A:LEU:363:CD1:3189, V-A:GLU:543:CD:4908, V-A:SER:385:CB:3409, V-A:TYR:539:C:4867, V-A:ASP:366:CB:3212, V-A:LEU:475:CD2:4259, H-A:ARG:545:NH2:4928, V-A:ARG:545:CZ:4926, V-A:PRO:540:N:4884, H-A:TYR:539:N:4870, V-A:LEU:363:CA:3185, V-A:PRO:540:CA:4883, V-A:SER:385:CA:3407, V-A:TYR:539:CE1:4875"]

$$$$
ZINC27982000
     RDKit          3D

 42 45  0  0  0  0  0  0  0  0999 V2000
  131.3760  124.1290   59.1920 O   0  0  0  0  0  0  0  0  0  0  0  0
  130.7530  124.2850   60.2430 C   0  0  0  0  0  0  0  0  0  0  0  0
  129.4050  124.3490   60.2950 N   0  0  0  0  0  0  0  0  0  0  0  0
  128.4430  124.2600   59.1840 C   0  0  2  0  0  0  0  0  0  0  0  0
  127.0500  124.8680   59.5430 C   0  0  0  0  0  0  0  0  0  0  0  0
  126.0220  124.7240   58.3900 C   0  0  1  0  0  0  0  0  0  0  0  0
  126.6020  125.4260   57.1320 C   0  0  0  0  0  0  0  0  0  0  0  0
  127.9640  124.8200   56.7010 C   0  0  2  0  0  0  0  0  0  0  0  0
  127.7570  123.3090   56.4230 C   0  0  0  0  0  0  0  0  0  0  0  0
  127.2080  122.5600   57.6660 C   0  0  2  0  0  0  0  0  0  0  0  0
  125.8620  123.2150   58.0710 C   0  0  0  0  0  0  0  0  0  0  0  0
  128.2120  122.7590   58.8330 C   0  0  0  0  0  0  0  0  0  0  0  0
  128.9560  124.9630   57.8860 C   0  0  0  0  0  0  0  0  0  0  0  0
  131.4870  124.4070   61.5640 C   0  0  0  0  0  0  0  0  0  0  0  0
  132.8860  124.5080   61.5800 C   0  0  0  0  0  0  0  0  0  0  0  0
  133.5890  124.6220   62.7800 C   0  0  0  0  0  0  0  0  0  0  0  0
  134.9580  124.7180   62.7450 O   0  0  0  0  0  0  0  0  0  0  0  0
  132.8980  124.6390   63.9970 C   0  0  0  0  0  0  0  0  0  0  0  0
  133.5870  124.7530   65.1800 O   0  0  0  0  0  0  0  0  0  0  0  0
  131.5020  124.5390   64.0000 C   0  0  0  0  0  0  0  0  0  0  0  0
  130.6070  124.5550   65.4820 Cl  0  0  0  0  0  0  0  0  0  0  0  0
  130.8070  124.4240   62.7950 C   0  0  0  0  0  0  0  0  0  0  0  0
  128.9870  124.4750   61.2040 H   0  0  0  0  0  0  0  0  0  0  0  0
  126.6581  124.3509   60.4312 H   0  0  0  0  0  0  0  0  0  0  0  0
  127.1932  125.9425   59.7298 H   0  0  0  0  0  0  0  0  0  0  0  0
  125.0558  125.1676   58.6723 H   0  0  0  0  0  0  0  0  0  0  0  0
  125.8869  125.3164   56.3033 H   0  0  0  0  0  0  0  0  0  0  0  0
  126.7659  126.4850   57.3804 H   0  0  0  0  0  0  0  0  0  0  0  0
  128.3501  125.3306   55.8065 H   0  0  0  0  0  0  0  0  0  0  0  0
  127.0420  123.1948   55.5949 H   0  0  0  0  0  0  0  0  0  0  0  0
  128.7341  122.8732   56.1674 H   0  0  0  0  0  0  0  0  0  0  0  0
  127.0707  121.4908   57.4468 H   0  0  0  0  0  0  0  0  0  0  0  0
  125.1482  123.1012   57.2418 H   0  0  0  0  0  0  0  0  0  0  0  0
  125.5000  122.7125   58.9801 H   0  0  0  0  0  0  0  0  0  0  0  0
  127.8208  122.2462   59.7241 H   0  0  0  0  0  0  0  0  0  0  0  0
  129.1781  122.3421   58.5124 H   0  0  0  0  0  0  0  0  0  0  0  0
  129.9174  124.5130   57.5975 H   0  0  0  0  0  0  0  0  0  0  0  0
  129.0614  126.0356   58.1061 H   0  0  0  0  0  0  0  0  0  0  0  0
  133.4390  124.4971   60.6292 H   0  0  0  0  0  0  0  0  0  0  0  0
  135.2690  125.4920   62.2690 H   0  0  0  0  0  0  0  0  0  0  0  0
  133.1260  124.3420   65.9160 H   0  0  0  0  0  0  0  0  0  0  0  0
  129.7099  124.3454   62.8084 H   0  0  0  0  0  0  0  0  0  0  0  0
  1  2  2  0
  2  3  1  0
  4  3  1  1
  4  5  1  0
  5  6  1  0
  6  7  1  0
  7  8  1  0
  8  9  1  0
  9 10  1  0
 10 11  1  0
 10 12  1  0
  8 13  1  0
  2 14  1  0
 14 15  2  0
 15 16  1  0
 16 17  1  0
 16 18  2  0
 18 19  1  0
 18 20  1  0
 20 21  1  0
 20 22  2  0
 12  4  1  0
 22 14  1  0
 13  4  1  0
 11  6  1  0
  3 23  1  0
  5 24  1  0
  5 25  1  0
  6 26  1  1
  7 27  1  0
  7 28  1  0
  8 29  1  6
  9 30  1  0
  9 31  1  0
 10 32  1  6
 11 33  1  0
 11 34  1  0
 12 35  1  0
 12 36  1  0
 13 37  1  0
 13 38  1  0
 15 39  1  0
 17 40  1  0
 19 41  1  0
 22 42  1  0
M  END
>  <Binding energies>  (1) 
[-6.9]

>  <Ligand effiencies>  (1) 
[-0.276]

>  <Interactions>  (1) 
["V-B:PRO:540:CA:9855, H-A:ARG:545:NH1:4927, V-A:TYR:484:CE2:4346, V-B:TYR:539:CE2:9848, V-B:GLU:543:CG:9879, V-B:TYR:539:C:9839, V-B:TYR:539:CZ:9849, H-B:TYR:539:OH:9850, V-A:TYR:484:CZ:4347, V-B:PRO:540:CB:9857, H-A:GLY:454:N:4050, V-B:PRO:540:N:9856, V-B:TYR:539:CD2:9846, V-B:PRO:540:CD:9859, H-A:ARG:545:NH2:4928, V-A:ARG:545:CZ:4926, V-B:TYR:539:CG:9844, H-A:ASP:366:OD1:3214, V-B:TYR:539:CD1:9845, H-A:ARG:545:NE:4924, V-B:TYR:539:CE1:9847, H-A:TYR:484:OH:4348"]

$$$$
ZINC2798451
     RDKit          3D

 48 52  0  0  0  0  0  0  0  0999 V2000
  128.3360  132.3580   56.4610 C   0  0  0  0  0  0  0  0  0  0  0  0
  129.7440  132.2380   56.8290 N   0  0  0  0  0  0  0  0  0  0  0  0
  130.4780  133.3580   56.8440 N   0  0  0  0  0  0  0  0  0  0  0  0
  131.6730  132.9680   57.2000 C   0  0  0  0  0  0  0  0  0  0  0  0
  131.7480  131.5930   57.4220 C   0  0  0  0  0  0  0  0  0  0  0  0
  133.1560  130.7250   57.9000 Cl  0  0  0  0  0  0  0  0  0  0  0  0
  130.4620  131.1020   57.1750 C   0  0  0  0  0  0  0  0  0  0  0  0
  129.9320  129.7200   57.2460 C   0  0  0  0  0  0  0  0  0  0  0  0
  130.4580  128.7930   58.0410 N   0  0  0  0  0  0  0  0  0  0  0  0
  129.6760  127.7220   57.7820 C   0  0  0  0  0  0  0  0  0  0  0  0
  129.7000  126.4010   58.2980 C   0  0  0  0  0  0  0  0  0  0  0  0
  130.5700  125.8170   59.2630 C   0  0  0  0  0  0  0  0  0  0  0  0
  130.2420  124.4720   59.4500 C   0  0  0  0  0  0  0  0  0  0  0  0
  128.8590  123.9370   58.5020 S   0  0  0  0  0  0  0  0  0  0  0  0
  128.7080  125.5250   57.7800 C   0  0  0  0  0  0  0  0  0  0  0  0
  127.7800  125.8590   56.8670 N   0  0  0  0  0  0  0  0  0  0  0  0
  127.8050  127.1450   56.4080 C   0  0  0  0  0  0  0  0  0  0  0  0
  128.7250  128.0600   56.8470 N   0  0  0  0  0  0  0  0  0  0  0  0
  128.8920  129.3490   56.5030 N   0  0  0  0  0  0  0  0  0  0  0  0
  130.9550  123.5440   60.4270 C   0  0  0  0  0  0  0  0  0  0  0  0
  132.3530  124.1340   60.7950 C   0  0  2  0  0  0  0  0  0  0  0  0
  133.1200  123.2830   61.8810 C   0  0  0  0  0  0  0  0  0  0  0  0
  133.5720  121.9020   61.3420 C   0  0  0  0  0  0  0  0  0  0  0  0
  134.3770  124.0410   62.3800 C   0  0  0  0  0  0  0  0  0  0  0  0
  132.2120  123.0450   63.1180 C   0  0  0  0  0  0  0  0  0  0  0  0
  132.1690  125.6290   61.1790 C   0  0  0  0  0  0  0  0  0  0  0  0
  131.7260  126.5010   59.9850 C   0  0  0  0  0  0  0  0  0  0  0  0
  127.7220  132.4103   57.3722 H   0  0  0  0  0  0  0  0  0  0  0  0
  128.1889  133.2719   55.8668 H   0  0  0  0  0  0  0  0  0  0  0  0
  128.0364  131.4821   55.8668 H   0  0  0  0  0  0  0  0  0  0  0  0
  132.5282  133.6507   57.3126 H   0  0  0  0  0  0  0  0  0  0  0  0
  127.0609  127.4567   55.6602 H   0  0  0  0  0  0  0  0  0  0  0  0
  130.3504  123.4414   61.3402 H   0  0  0  0  0  0  0  0  0  0  0  0
  131.0896  122.5581   59.9580 H   0  0  0  0  0  0  0  0  0  0  0  0
  133.0148  124.0778   59.9182 H   0  0  0  0  0  0  0  0  0  0  0  0
  133.7911  121.2325   62.1868 H   0  0  0  0  0  0  0  0  0  0  0  0
  132.7693  121.4673   60.7283 H   0  0  0  0  0  0  0  0  0  0  0  0
  134.4764  122.0260   60.7283 H   0  0  0  0  0  0  0  0  0  0  0  0
  134.3884  124.0479   63.4799 H   0  0  0  0  0  0  0  0  0  0  0  0
  135.2810  123.5373   62.0071 H   0  0  0  0  0  0  0  0  0  0  0  0
  134.3534  125.0756   62.0071 H   0  0  0  0  0  0  0  0  0  0  0  0
  132.7968  123.1983   64.0370 H   0  0  0  0  0  0  0  0  0  0  0  0
  131.3703  123.7529   63.0966 H   0  0  0  0  0  0  0  0  0  0  0  0
  131.8257  122.0153   63.0966 H   0  0  0  0  0  0  0  0  0  0  0  0
  131.4053  125.6982   61.9677 H   0  0  0  0  0  0  0  0  0  0  0  0
  133.1438  126.0061   61.5220 H   0  0  0  0  0  0  0  0  0  0  0  0
  131.3998  127.4859   60.3503 H   0  0  0  0  0  0  0  0  0  0  0  0
  132.5691  126.6307   59.2905 H   0  0  0  0  0  0  0  0  0  0  0  0
  1  2  1  0
  2  3  1  0
  3  4  2  0
  4  5  1  0
  5  6  1  0
  5  7  2  0
  7  8  1  0
  8  9  1  0
  9 10  2  0
 10 11  1  0
 11 12  1  0
 12 13  2  0
 13 14  1  0
 14 15  1  0
 15 16  1  0
 16 17  2  0
 17 18  1  0
 18 19  1  0
 13 20  1  0
 20 21  1  0
 21 22  1  0
 22 23  1  0
 22 24  1  0
 22 25  1  0
 21 26  1  0
 26 27  1  0
  7  2  1  0
 19  8  2  0
 18 10  1  0
 15 11  2  0
 27 12  1  0
  1 28  1  0
  1 29  1  0
  1 30  1  0
  4 31  1  0
 17 32  1  0
 20 33  1  0
 20 34  1  0
 21 35  1  6
 23 36  1  0
 23 37  1  0
 23 38  1  0
 24 39  1  0
 24 40  1  0
 24 41  1  0
 25 42  1  0
 25 43  1  0
 25 44  1  0
 26 45  1  0
 26 46  1  0
 27 47  1  0
 27 48  1  0
M  END
>  <Binding energies>  (1) 
[-7.41]

>  <Ligand effiencies>  (1) 
[-0.27444444444444444]

>  <Interactions>  (1) 
["V-A:ILE:369:CG2:3237, V-A:PRO:540:CG:4886, V-A:ILE:538:CB:4862, H-A:TYR:531:OH:4795, V-B:TYR:539:CE2:9848, V-A:ASP:366:CG:3213, V-A:LEU:363:CD1:3189, V-A:TYR:539:CD1:4873, V-B:TYR:539:CZ:9849, V-A:TYR:539:CZ:4877, V-A:TYR:531:CE2:4793, V-A:GLY:453:C:4042, V-A:ILE:369:CD1:3239, V-B:TYR:539:CD2:9846, V-A:MET:535:CE:4835, H-B:TYR:531:OH:9767, V-A:ASP:366:CB:3212, V-A:LEU:475:CD2:4259, V-A:PRO:540:N:4884, H-A:TYR:539:N:4870, V-A:PRO:540:CB:4885, V-A:PRO:540:CA:4883, V-A:LEU:363:CA:3185, V-A:GLY:453:CA:4044, V-A:PRO:540:CD:4887, V-A:TYR:539:CE1:4875"]

$$$$
ZINC2805340
     RDKit          3D

 57 59  0  0  0  0  0  0  0  0999 V2000
  131.4740  118.9240   60.1340 C   0  0  0  0  0  0  0  0  0  0  0  0
  132.4840  120.0430   59.8340 C   0  0  0  0  0  0  0  0  0  0  0  0
  132.5280  121.0080   60.9360 N   0  0  0  0  0  0  0  0  0  0  0  0
  133.7170  121.2610   61.5010 N   0  0  0  0  0  0  0  0  0  0  0  0
  133.4620  122.1290   62.4490 C   0  0  0  0  0  0  0  0  0  0  0  0
  132.0970  122.4470   62.5460 C   0  0  0  0  0  0  0  0  0  0  0  0
  131.4680  123.3600   63.3780 N   0  0  0  0  0  0  0  0  0  0  0  0
  132.0800  124.1440   64.2930 C   0  0  0  0  0  0  0  0  0  0  0  0
  133.2990  124.1590   64.4860 O   0  0  0  0  0  0  0  0  0  0  0  0
  131.1680  125.0490   65.0950 C   0  0  0  0  0  0  0  0  0  0  0  0
  131.2840  125.1560   66.4910 C   0  0  0  0  0  0  0  0  0  0  0  0
  130.4420  126.0010   67.2080 C   0  0  0  0  0  0  0  0  0  0  0  0
  129.4750  126.7570   66.5420 C   0  0  0  0  0  0  0  0  0  0  0  0
  128.5470  127.6850   67.3220 C   0  0  0  0  0  0  0  0  0  0  0  0
  128.6750  127.5810   68.7770 N   0  0  0  0  0  0  0  0  0  0  0  0
  129.8420  127.9220   69.3290 N   0  0  0  0  0  0  0  0  0  0  0  0
  129.7210  127.6760   70.6110 C   0  0  0  0  0  0  0  0  0  0  0  0
  130.9010  127.9680   71.5160 C   0  0  0  0  0  0  0  0  0  0  0  0
  128.4430  127.1500   70.9210 C   0  0  0  0  0  0  0  0  0  0  0  0
  127.9520  126.7690   72.2170 N   0  0  0  0  0  0  0  0  0  0  0  0
  126.9100  127.2760   72.6150 O   0  0  0  0  0  0  0  0  0  0  0  0
  128.5960  125.9510   72.8660 O   0  0  0  0  0  0  0  0  0  0  0  0
  127.7730  127.0820   69.6910 C   0  0  0  0  0  0  0  0  0  0  0  0
  126.3880  126.6140   69.2770 C   0  0  0  0  0  0  0  0  0  0  0  0
  129.3530  126.6580   65.1550 C   0  0  0  0  0  0  0  0  0  0  0  0
  130.1940  125.8130   64.4380 C   0  0  0  0  0  0  0  0  0  0  0  0
  131.4830  121.6660   61.5610 C   0  0  0  0  0  0  0  0  0  0  0  0
  130.0930  121.6140   61.1510 C   0  0  0  0  0  0  0  0  0  0  0  0
  129.4010  120.6580   61.5060 O   0  0  0  0  0  0  0  0  0  0  0  0
  129.6290  122.6190   60.3570 N   0  0  0  0  0  0  0  0  0  0  0  0
  128.2840  122.5750   59.7770 C   0  0  0  0  0  0  0  0  0  0  0  0
  130.3240  123.8780   60.0660 C   0  0  0  0  0  0  0  0  0  0  0  0
  131.3687  118.8073   61.2227 H   0  0  0  0  0  0  0  0  0  0  0  0
  130.4985  119.1837   59.6970 H   0  0  0  0  0  0  0  0  0  0  0  0
  131.8320  117.9801   59.6970 H   0  0  0  0  0  0  0  0  0  0  0  0
  133.4827  119.6019   59.6998 H   0  0  0  0  0  0  0  0  0  0  0  0
  132.1721  120.5655   58.9176 H   0  0  0  0  0  0  0  0  0  0  0  0
  134.2351  122.5629   63.1002 H   0  0  0  0  0  0  0  0  0  0  0  0
  130.4590  123.3490   63.3690 H   0  0  0  0  0  0  0  0  0  0  0  0
  132.0466  124.5671   67.0217 H   0  0  0  0  0  0  0  0  0  0  0  0
  130.5384  126.0735   68.3014 H   0  0  0  0  0  0  0  0  0  0  0  0
  128.7710  128.7215   67.0296 H   0  0  0  0  0  0  0  0  0  0  0  0
  127.5186  127.3836   67.0738 H   0  0  0  0  0  0  0  0  0  0  0  0
  130.5853  127.8899   72.5668 H   0  0  0  0  0  0  0  0  0  0  0  0
  131.7028  127.2412   71.3190 H   0  0  0  0  0  0  0  0  0  0  0  0
  131.2713  128.9849   71.3190 H   0  0  0  0  0  0  0  0  0  0  0  0
  125.7861  126.4106   70.1749 H   0  0  0  0  0  0  0  0  0  0  0  0
  125.9001  127.3972   68.6782 H   0  0  0  0  0  0  0  0  0  0  0  0
  126.4751  125.6954   68.6782 H   0  0  0  0  0  0  0  0  0  0  0  0
  128.5901  127.2495   64.6277 H   0  0  0  0  0  0  0  0  0  0  0  0
  130.0935  125.7439   63.3448 H   0  0  0  0  0  0  0  0  0  0  0  0
  127.5372  122.5506   60.5843 H   0  0  0  0  0  0  0  0  0  0  0  0
  128.1232  123.4684   59.1557 H   0  0  0  0  0  0  0  0  0  0  0  0
  128.1820  121.6730   59.1557 H   0  0  0  0  0  0  0  0  0  0  0  0
  130.5971  124.3727   61.0098 H   0  0  0  0  0  0  0  0  0  0  0  0
  131.2343  123.6685   59.4850 H   0  0  0  0  0  0  0  0  0  0  0  0
  129.6617  124.5366   59.4850 H   0  0  0  0  0  0  0  0  0  0  0  0
  1  2  1  0
  2  3  1  0
  3  4  1  0
  4  5  2  0
  5  6  1  0
  6  7  1  0
  7  8  1  0
  8  9  2  0
  8 10  1  0
 10 11  2  0
 11 12  1  0
 12 13  2  0
 13 14  1  0
 14 15  1  0
 15 16  1  0
 16 17  2  0
 17 18  1  0
 17 19  1  0
 19 20  1  0
 20 21  2  0
 20 22  1  0
 19 23  2  0
 23 24  1  0
 13 25  1  0
 25 26  2  0
  6 27  2  0
 27 28  1  0
 28 29  2  0
 28 30  1  0
 30 31  1  0
 30 32  1  0
 27  3  1  0
 26 10  1  0
 23 15  1  0
  1 33  1  0
  1 34  1  0
  1 35  1  0
  2 36  1  0
  2 37  1  0
  5 38  1  0
  7 39  1  0
 11 40  1  0
 12 41  1  0
 14 42  1  0
 14 43  1  0
 18 44  1  0
 18 45  1  0
 18 46  1  0
 24 47  1  0
 24 48  1  0
 24 49  1  0
 25 50  1  0
 26 51  1  0
 31 52  1  0
 31 53  1  0
 31 54  1  0
 32 55  1  0
 32 56  1  0
 32 57  1  0
M  CHG  2  20   1  22  -1
M  END
>  <Binding energies>  (1) 
[-8.05]

>  <Ligand effiencies>  (1) 
[-0.24393939393939396]

>  <Interactions>  (1) 
["V-A:ILE:369:CG2:3237, V-B:PRO:540:CA:9855, V-A:GLY:454:CA:4049, V-B:GLU:543:C:9874, V-A:GLU:543:C:4902, V-B:GLU:543:CB:9878, H-B:LYS:547:NZ:9923, V-B:TYR:539:CE2:9848, V-A:TYR:484:CE2:4346, V-B:GLU:543:CG:9879, V-A:GLY:544:C:4912, V-B:TYR:539:C:9839, V-B:ARG:545:CG:9894, H-B:ALA:541:N:9863, V-B:LYS:547:CE:9922, V-B:TYR:539:CB:9843, V-A:TYR:484:CZ:4347, V-A:GLU:543:CD:4908, V-B:HIS:456:CE1:9041, H-A:GLY:454:N:4050, V-B:GLU:543:CA:9876, V-B:PRO:540:N:9856, V-A:HIS:456:CE1:4070, V-B:GLY:544:C:9884, V-B:TYR:539:CD2:9846, V-B:GLY:544:CA:9886, V-A:SER:385:CB:3409, H-A:SER:385:OG:3410, V-B:GLU:543:CD:9880, V-A:LEU:475:CD2:4259, V-B:TYR:539:CG:9844, V-A:GLU:543:CB:4906, V-B:ARG:545:CA:9891, V-A:HIS:383:NE2:3394, H-A:TYR:484:OH:4348"]

$$$$
ZINC280953900
     RDKit          3D

 38 39  0  0  0  0  0  0  0  0999 V2000
  134.1240  124.7240   63.8840 N   0  0  0  0  0  0  0  0  0  0  0  0
  132.9960  124.7420   64.1420 C   0  0  0  0  0  0  0  0  0  0  0  0
  131.5520  124.7630   64.4700 C   0  0  0  0  0  0  0  0  0  0  0  0
  131.3740  125.3160   65.9090 C   0  0  0  0  0  0  0  0  0  0  0  0
  129.9330  125.2800   66.4730 C   0  0  0  0  0  0  0  0  0  0  0  0
  129.1080  126.5390   66.1560 C   0  0  0  0  0  0  0  0  0  0  0  0
  128.3260  127.0190   67.2900 N   0  0  0  0  0  0  0  0  0  0  0  0
  128.9010  127.2600   68.5520 C   0  0  0  0  0  0  0  0  0  0  0  0
  130.2600  127.5690   68.7160 C   0  0  0  0  0  0  0  0  0  0  0  0
  130.7860  127.7990   69.9870 C   0  0  0  0  0  0  0  0  0  0  0  0
  132.0960  128.0970   70.1330 F   0  0  0  0  0  0  0  0  0  0  0  0
  129.9610  127.7220   71.1080 C   0  0  0  0  0  0  0  0  0  0  0  0
  128.6100  127.4150   70.9590 C   0  0  0  0  0  0  0  0  0  0  0  0
  127.4960  127.3140   72.5030 Br  0  0  0  0  0  0  0  0  0  0  0  0
  128.0790  127.1850   69.6870 C   0  0  0  0  0  0  0  0  0  0  0  0
  126.7630  126.8870   69.5590 F   0  0  0  0  0  0  0  0  0  0  0  0
  130.8250  125.6350   63.4130 C   0  0  0  0  0  0  0  0  0  0  0  0
  130.8440  124.9860   62.0120 C   0  0  0  0  0  0  0  0  0  0  0  0
  130.2970  123.6710   62.0820 O   0  0  0  0  0  0  0  0  0  0  0  0
  131.0280  122.7820   62.9240 C   0  0  0  0  0  0  0  0  0  0  0  0
  131.0150  123.3120   64.3730 C   0  0  0  0  0  0  0  0  0  0  0  0
  132.0134  124.7231   66.5795 H   0  0  0  0  0  0  0  0  0  0  0  0
  131.6463  126.3804   65.8549 H   0  0  0  0  0  0  0  0  0  0  0  0
  129.4149  124.4094   66.0444 H   0  0  0  0  0  0  0  0  0  0  0  0
  130.0200  125.2226   67.5680 H   0  0  0  0  0  0  0  0  0  0  0  0
  129.7967  127.3380   65.8440 H   0  0  0  0  0  0  0  0  0  0  0  0
  128.3967  126.2700   65.3612 H   0  0  0  0  0  0  0  0  0  0  0  0
  127.3200  126.9490   67.2330 H   0  0  0  0  0  0  0  0  0  0  0  0
  130.9157  127.6303   67.8349 H   0  0  0  0  0  0  0  0  0  0  0  0
  130.3765  127.9036   72.1102 H   0  0  0  0  0  0  0  0  0  0  0  0
  129.7795  125.7733   63.7257 H   0  0  0  0  0  0  0  0  0  0  0  0
  131.3527  126.5979   63.3474 H   0  0  0  0  0  0  0  0  0  0  0  0
  130.2443  125.5947   61.3193 H   0  0  0  0  0  0  0  0  0  0  0  0
  131.8818  124.9292   61.6518 H   0  0  0  0  0  0  0  0  0  0  0  0
  130.5635  121.7853   62.8947 H   0  0  0  0  0  0  0  0  0  0  0  0
  132.0671  122.7150   62.5692 H   0  0  0  0  0  0  0  0  0  0  0  0
  129.9814  123.2908   64.7488 H   0  0  0  0  0  0  0  0  0  0  0  0
  131.6727  122.6673   64.9746 H   0  0  0  0  0  0  0  0  0  0  0  0
  1  2  3  0
  2  3  1  0
  3  4  1  0
  4  5  1  0
  5  6  1  0
  6  7  1  0
  7  8  1  0
  8  9  2  0
  9 10  1  0
 10 11  1  0
 10 12  2  0
 12 13  1  0
 13 14  1  0
 13 15  2  0
 15 16  1  0
  3 17  1  0
 17 18  1  0
 18 19  1  0
 19 20  1  0
 20 21  1  0
 21  3  1  0
 15  8  1  0
  4 22  1  0
  4 23  1  0
  5 24  1  0
  5 25  1  0
  6 26  1  0
  6 27  1  0
  7 28  1  0
  9 29  1  0
 12 30  1  0
 17 31  1  0
 17 32  1  0
 18 33  1  0
 18 34  1  0
 20 35  1  0
 20 36  1  0
 21 37  1  0
 21 38  1  0
M  END
>  <Binding energies>  (1) 
[-6.29]

>  <Ligand effiencies>  (1) 
[-0.2859090909090909]

>  <Interactions>  (1) 
["V-A:ARG:545:CA:4919, V-B:GLU:543:C:9874, V-B:HIS:456:CD2:9039, V-A:GLU:543:C:4902, V-B:GLU:543:CB:9878, H-A:ARG:545:NH1:4927, V-A:TYR:484:CE2:4346, V-A:GLY:544:CA:4914, V-B:GLU:543:CG:9879, V-A:GLY:544:C:4912, V-B:LYS:547:CE:9922, V-A:GLU:543:CD:4908, V-B:HIS:456:CE1:9041, H-A:GLY:454:N:4050, V-B:GLU:543:CA:9876, V-A:ARG:545:CG:4922, V-A:HIS:456:CE1:4070, V-B:GLY:544:C:9884, V-B:GLU:543:CD:9880, V-B:HIS:456:CG:9037, V-A:ARG:545:CB:4921, V-A:LEU:475:CD2:4259, H-A:ARG:545:NH2:4928, V-A:ARG:545:CZ:4926, V-A:GLU:543:CB:4906, H-B:GLU:543:OE2:9882, H-A:ARG:545:NE:4924"]

$$$$
ZINC28231098
     RDKit          3D

 63 68  0  0  0  0  0  0  0  0999 V2000
  133.4820  126.5920   74.2190 C   0  0  0  0  0  0  0  0  0  0  0  0
  132.0890  126.8150   74.4170 O   0  0  0  0  0  0  0  0  0  0  0  0
  131.2590  126.9640   73.3190 C   0  0  0  0  0  0  0  0  0  0  0  0
  131.7130  127.3380   72.0440 C   0  0  0  0  0  0  0  0  0  0  0  0
  130.8360  127.4770   70.9660 C   0  0  0  0  0  0  0  0  0  0  0  0
  129.4780  127.2040   71.1550 C   0  0  0  0  0  0  0  0  0  0  0  0
  129.0120  126.8610   72.4320 C   0  0  0  0  0  0  0  0  0  0  0  0
  129.8930  126.7280   73.5160 C   0  0  0  0  0  0  0  0  0  0  0  0
  129.4940  126.3710   74.7920 O   0  0  0  0  0  0  0  0  0  0  0  0
  129.5560  127.3300   75.8420 C   0  0  0  0  0  0  0  0  0  0  0  0
  128.4610  127.3290   70.0340 C   0  0  0  0  0  0  0  0  0  0  0  0
  127.2430  127.3450   70.2370 O   0  0  0  0  0  0  0  0  0  0  0  0
  128.9780  127.4650   68.7700 N   0  0  0  0  0  0  0  0  0  0  0  0
  128.0750  127.4230   67.6030 C   0  0  0  0  0  0  0  0  0  0  0  0
  128.7370  126.9550   66.3670 C   0  0  0  0  0  0  0  0  0  0  0  0
  129.3120  126.5230   65.3810 C   0  0  0  0  0  0  0  0  0  0  0  0
  129.9340  125.9940   64.1810 C   0  0  0  0  0  0  0  0  0  0  0  0
  129.4030  125.9360   62.9030 C   0  0  0  0  0  0  0  0  0  0  0  0
  130.2620  125.3590   61.9460 C   0  0  0  0  0  0  0  0  0  0  0  0
  131.4690  124.9220   62.5400 C   0  0  0  0  0  0  0  0  0  0  0  0
  131.5210  125.3170   64.2380 S   0  0  0  0  0  0  0  0  0  0  0  0
  132.4680  124.2580   61.8500 N   0  0  0  0  0  0  0  0  0  0  0  0
  133.2770  123.1990   62.2210 C   0  0  0  0  0  0  0  0  0  0  0  0
  133.2490  122.4990   63.5640 C   0  0  0  0  0  0  0  0  0  0  0  0
  134.0760  122.8560   61.2420 N   0  0  0  0  0  0  0  0  0  0  0  0
  133.7860  123.6820   60.1620 N   0  0  0  0  0  0  0  0  0  0  0  0
  132.8280  124.4920   60.5400 C   0  0  0  0  0  0  0  0  0  0  0  0
  132.1270  125.5380   59.6870 C   0  0  0  0  0  0  0  0  0  0  0  0
  130.7080  125.2720   59.4980 N   0  0  0  0  0  0  0  0  0  0  0  0
  129.9190  125.2040   60.5070 C   0  0  0  0  0  0  0  0  0  0  0  0
  128.4890  124.9600   60.2620 C   0  0  0  0  0  0  0  0  0  0  0  0
  127.7530  125.9410   59.5850 C   0  0  0  0  0  0  0  0  0  0  0  0
  126.3990  125.7470   59.3130 C   0  0  0  0  0  0  0  0  0  0  0  0
  125.7690  124.5730   59.7160 C   0  0  0  0  0  0  0  0  0  0  0  0
  126.4900  123.5910   60.3920 C   0  0  0  0  0  0  0  0  0  0  0  0
  127.8470  123.7720   60.6690 C   0  0  0  0  0  0  0  0  0  0  0  0
  128.6870  122.5030   61.5000 Cl  0  0  0  0  0  0  0  0  0  0  0  0
  130.4270  127.3510   68.4780 C   0  0  0  0  0  0  0  0  0  0  0  0
  131.3170  127.9170   69.6000 C   0  0  0  0  0  0  0  0  0  0  0  0
  133.9829  126.5118   75.1951 H   0  0  0  0  0  0  0  0  0  0  0  0
  133.6274  125.6591   73.6545 H   0  0  0  0  0  0  0  0  0  0  0  0
  133.9114  127.4328   73.6545 H   0  0  0  0  0  0  0  0  0  0  0  0
  132.7859  127.5262   71.8904 H   0  0  0  0  0  0  0  0  0  0  0  0
  127.9360  126.6931   72.5870 H   0  0  0  0  0  0  0  0  0  0  0  0
  129.5226  126.8136   76.8127 H   0  0  0  0  0  0  0  0  0  0  0  0
  130.4929  127.9008   75.7624 H   0  0  0  0  0  0  0  0  0  0  0  0
  128.7004  128.0167   75.7624 H   0  0  0  0  0  0  0  0  0  0  0  0
  127.2411  126.7429   67.8313 H   0  0  0  0  0  0  0  0  0  0  0  0
  127.7327  128.4521   67.4192 H   0  0  0  0  0  0  0  0  0  0  0  0
  128.3977  126.3081   62.6562 H   0  0  0  0  0  0  0  0  0  0  0  0
  133.2790  123.2483   64.3687 H   0  0  0  0  0  0  0  0  0  0  0  0
  132.3264  121.9061   63.6493 H   0  0  0  0  0  0  0  0  0  0  0  0
  134.1213  121.8343   63.6493 H   0  0  0  0  0  0  0  0  0  0  0  0
  132.2363  126.5173   60.1759 H   0  0  0  0  0  0  0  0  0  0  0  0
  132.5974  125.5155   58.6929 H   0  0  0  0  0  0  0  0  0  0  0  0
  128.2465  126.8708   59.2657 H   0  0  0  0  0  0  0  0  0  0  0  0
  125.8287  126.5219   58.7798 H   0  0  0  0  0  0  0  0  0  0  0  0
  124.7011  124.4205   59.5006 H   0  0  0  0  0  0  0  0  0  0  0  0
  125.9867  122.6660   60.7100 H   0  0  0  0  0  0  0  0  0  0  0  0
  130.6732  126.2880   68.3388 H   0  0  0  0  0  0  0  0  0  0  0  0
  130.6260  127.9426   67.5723 H   0  0  0  0  0  0  0  0  0  0  0  0
  132.3474  127.5614   69.4524 H   0  0  0  0  0  0  0  0  0  0  0  0
  131.2711  129.0151   69.5556 H   0  0  0  0  0  0  0  0  0  0  0  0
  1  2  1  0
  2  3  1  0
  3  4  2  0
  4  5  1  0
  5  6  2  0
  6  7  1  0
  7  8  2  0
  8  9  1  0
  9 10  1  0
  6 11  1  0
 11 12  2  0
 11 13  1  0
 13 14  1  0
 14 15  1  0
 15 16  3  0
 16 17  1  0
 17 18  2  0
 18 19  1  0
 19 20  2  0
 20 21  1  0
 20 22  1  0
 22 23  1  0
 23 24  1  0
 23 25  2  0
 25 26  1  0
 26 27  2  0
 27 28  1  0
 28 29  1  0
 29 30  2  0
 30 31  1  0
 31 32  2  0
 32 33  1  0
 33 34  2  0
 34 35  1  0
 35 36  2  0
 36 37  1  0
 13 38  1  0
 38 39  1  0
  8  3  1  0
 21 17  1  0
 27 22  1  0
 36 31  1  0
 39  5  1  0
 30 19  1  0
  1 40  1  0
  1 41  1  0
  1 42  1  0
  4 43  1  0
  7 44  1  0
 10 45  1  0
 10 46  1  0
 10 47  1  0
 14 48  1  0
 14 49  1  0
 18 50  1  0
 24 51  1  0
 24 52  1  0
 24 53  1  0
 28 54  1  0
 28 55  1  0
 32 56  1  0
 33 57  1  0
 34 58  1  0
 35 59  1  0
 38 60  1  0
 38 61  1  0
 39 62  1  0
 39 63  1  0
M  END
>  <Binding energies>  (1) 
[-8.05]

>  <Ligand effiencies>  (1) 
[-0.20641025641025643]

>  <Interactions>  (1) 
["V-A:ARG:545:CA:4919, V-B:PRO:540:CA:9855, V-A:GLY:454:CA:4049, V-A:GLU:543:C:4902, V-B:GLU:543:CB:9878, H-B:LYS:547:NZ:9923, V-B:ALA:541:CB:9864, V-B:GLU:543:CG:9879, V-A:GLY:544:C:4912, V-A:ASP:366:CG:3213, V-A:HIS:456:CD2:4068, H-B:HIS:456:ND1:9038, V-A:LYS:547:CG:4948, V-A:HIS:456:CB:4065, V-A:GLU:543:CD:4908, V-B:PRO:540:CB:9857, V-A:ARG:545:CG:4922, V-B:HIS:456:CE1:9041, V-A:HIS:456:CE1:4070, V-B:GLU:543:CD:9880, V-A:ASP:366:CB:3212, H-A:LYS:547:NZ:4951, V-A:LEU:475:CD2:4259, V-A:GLU:543:CB:4906, V-A:HIS:456:CG:4066"]

$$$$
ZINC284523804
     RDKit          3D

 33 35  0  0  0  0  0  0  0  0999 V2000
  129.5100  128.4660   70.3200 C   0  0  0  0  0  0  0  0  0  0  0  0
  129.3880  127.7590   68.9900 C   0  0  0  0  0  0  0  0  0  0  0  0
  129.8540  126.5510   68.7820 N   0  0  0  0  0  0  0  0  0  0  0  0
  129.6360  126.1120   67.5530 C   0  0  0  0  0  0  0  0  0  0  0  0
  130.1320  124.7210   67.2090 C   0  0  0  0  0  0  0  0  0  0  0  0
  130.8330  124.7100   65.9300 N   0  0  0  0  0  0  0  0  0  0  0  0
  130.2570  123.7570   64.9810 C   0  0  1  0  0  0  0  0  0  0  0  0
  129.3580  124.3720   63.8930 C   0  0  0  0  0  0  0  0  0  0  0  0
  129.5440  123.5520   62.7340 O   0  0  0  0  0  0  0  0  0  0  0  0
  130.4420  122.4760   62.9960 C   0  0  0  0  0  0  0  0  0  0  0  0
  131.2850  122.9590   64.1770 C   0  0  1  0  0  0  0  0  0  0  0  0
  132.4840  123.7000   63.7410 N   0  0  0  0  0  0  0  0  0  0  0  0
  132.8780  123.9850   62.4580 C   0  0  0  0  0  0  0  0  0  0  0  0
  134.0520  124.7060   62.6080 C   0  0  0  0  0  0  0  0  0  0  0  0
  134.3410  124.8520   63.8880 N   0  0  0  0  0  0  0  0  0  0  0  0
  133.3520  124.2230   64.6230 N   0  0  0  0  0  0  0  0  0  0  0  0
  128.9730  127.0070   66.7200 C   0  0  0  0  0  0  0  0  0  0  0  0
  128.6210  128.4610   67.6010 S   0  0  0  0  0  0  0  0  0  0  0  0
  129.3844  127.7381   71.1351 H   0  0  0  0  0  0  0  0  0  0  0  0
  130.5023  128.9346   70.3965 H   0  0  0  0  0  0  0  0  0  0  0  0
  128.7321  129.2400   70.3965 H   0  0  0  0  0  0  0  0  0  0  0  0
  130.8194  124.3804   67.9974 H   0  0  0  0  0  0  0  0  0  0  0  0
  129.2629  124.0508   67.1346 H   0  0  0  0  0  0  0  0  0  0  0  0
  131.8070  124.4850   66.0800 H   0  0  0  0  0  0  0  0  0  0  0  0
  129.6831  123.1267   65.6762 H   0  0  0  0  0  0  0  0  0  0  0  0
  128.3049  124.3559   64.2102 H   0  0  0  0  0  0  0  0  0  0  0  0
  129.6173  125.4226   63.6953 H   0  0  0  0  0  0  0  0  0  0  0  0
  129.8882  121.5633   63.2612 H   0  0  0  0  0  0  0  0  0  0  0  0
  131.0567  122.2217   62.1199 H   0  0  0  0  0  0  0  0  0  0  0  0
  131.7450  122.1657   64.7845 H   0  0  0  0  0  0  0  0  0  0  0  0
  132.3750  123.7043   61.5209 H   0  0  0  0  0  0  0  0  0  0  0  0
  134.6571  125.1006   61.7785 H   0  0  0  0  0  0  0  0  0  0  0  0
  128.7124  126.8224   65.6674 H   0  0  0  0  0  0  0  0  0  0  0  0
  1  2  1  0
  2  3  2  0
  3  4  1  0
  4  5  1  0
  5  6  1  0
  6  7  1  0
  7  8  1  0
  8  9  1  0
  9 10  1  0
 10 11  1  0
 11 12  1  0
 12 13  1  0
 13 14  2  0
 14 15  1  0
 15 16  2  0
  4 17  2  0
 17 18  1  0
 18  2  1  0
 11  7  1  0
 16 12  1  0
  1 19  1  0
  1 20  1  0
  1 21  1  0
  5 22  1  0
  5 23  1  0
  6 24  1  0
  7 25  1  1
  8 26  1  0
  8 27  1  0
 10 28  1  0
 10 29  1  0
 11 30  1  1
 13 31  1  0
 14 32  1  0
 17 33  1  0
M  END
>  <Binding energies>  (1) 
[-5.67]

>  <Ligand effiencies>  (1) 
[-0.2984210526315789]

>  <Interactions>  (1) 
["V-A:GLU:543:C:4902, V-B:GLU:543:CB:9878, H-A:ARG:545:NH1:4927, V-A:TYR:484:CE2:4346, V-B:GLU:543:CG:9879, V-A:TYR:484:CZ:4347, V-A:GLU:543:CD:4908, V-B:HIS:456:CE1:9041, V-B:GLU:543:CA:9876, H-A:GLY:454:N:4050, V-A:HIS:456:CE1:4070, V-A:GLU:543:CG:4907, V-B:GLU:543:CD:9880, V-A:LEU:475:CD2:4259, H-A:ARG:545:NH2:4928, V-A:ARG:545:CZ:4926, V-A:GLU:543:CB:4906, H-A:ARG:545:NE:4924, H-A:TYR:484:OH:4348"]

$$$$
ZINC28457894-again1
     RDKit          3D

 84 85  0  0  0  0  0  0  0  0999 V2000
  130.0000  125.8190   60.4060 C   0  0  0  0  0  0  0  0  0  0  0  0
  130.2790  126.7630   61.5450 C   0  0  0  0  0  0  0  0  0  0  0  0
  131.1490  126.4680   62.5110 N   0  0  0  0  0  0  0  0  0  0  0  0
  131.9510  125.2070   62.6320 C   0  0  1  0  0  0  0  0  0  0  0  0
  132.9930  125.1340   61.4700 C   0  0  0  0  0  0  0  0  0  0  0  0
  133.0600  123.7810   60.7230 C   0  0  0  0  0  0  0  0  0  0  0  0
  133.8890  122.7290   61.4940 C   0  0  0  0  0  0  0  0  0  0  0  0
  133.5580  123.9700   59.2730 C   0  0  0  0  0  0  0  0  0  0  0  0
  132.6010  125.1890   64.0620 C   0  0  0  0  0  0  0  0  0  0  0  0
  131.9790  125.8780   64.9030 O   0  0  0  0  0  0  0  0  0  0  0  0
  133.6740  124.5560   64.2000 O   0  0  0  0  0  0  0  0  0  0  0  0
  129.5480  128.0830   61.6290 C   0  0  1  0  0  0  0  0  0  0  0  0
  129.1540  128.1930   62.9950 O   0  0  0  0  0  0  0  0  0  0  0  0
  128.3510  129.3350   63.3080 C   0  0  1  0  0  0  0  0  0  0  0  0
  127.9440  129.2640   64.7960 C   0  0  0  0  0  0  0  0  0  0  0  0
  128.6730  128.2160   65.5090 N   0  0  0  0  0  0  0  0  0  0  0  0
  128.4540  127.8970   66.7960 C   0  0  0  0  0  0  0  0  0  0  0  0
  127.7480  128.5770   67.5480 O   0  0  0  0  0  0  0  0  0  0  0  0
  129.0690  126.5420   67.2410 C   0  0  1  0  0  0  0  0  0  0  0  0
  130.2220  126.2240   66.3240 N   0  0  0  0  0  0  0  0  0  0  0  0
  129.4420  126.5460   68.7500 C   0  0  0  0  0  0  0  0  0  0  0  0
  128.0700  126.9730   69.8770 S   0  0  0  0  0  0  0  0  0  0  0  0
  128.7280  126.4180   71.7280 S   0  0  0  0  0  0  0  0  0  0  0  0
  129.9820  127.6410   72.2430 C   0  0  0  0  0  0  0  0  0  0  0  0
  129.2490  128.8640   72.8300 C   0  0  0  0  0  0  0  0  0  0  0  0
  130.9250  127.0660   73.3190 C   0  0  0  0  0  0  0  0  0  0  0  0
  130.8110  128.0940   71.0230 C   0  0  0  0  0  0  0  0  0  0  0  0
  129.0920  130.6430   62.9420 C   0  0  0  0  0  0  0  0  0  0  0  0
  129.6120  130.6100   61.4910 C   0  0  0  0  0  0  0  0  0  0  0  0
  130.4040  129.3150   61.2290 C   0  0  2  0  0  0  0  0  0  0  0  0
  130.8040  129.1930   59.8660 O   0  0  0  0  0  0  0  0  0  0  0  0
  129.8340  129.5680   58.8930 C   0  0  0  0  0  0  0  0  0  0  0  0
  130.3350  130.7750   58.1120 C   0  0  0  0  0  0  0  0  0  0  0  0
  131.6490  130.8020   57.6370 C   0  0  0  0  0  0  0  0  0  0  0  0
  132.1060  131.9020   56.9160 C   0  0  0  0  0  0  0  0  0  0  0  0
  131.2460  132.9710   56.6680 C   0  0  0  0  0  0  0  0  0  0  0  0
  129.9330  132.9480   57.1330 C   0  0  0  0  0  0  0  0  0  0  0  0
  129.4760  131.8480   57.8530 C   0  0  0  0  0  0  0  0  0  0  0  0
  129.7096  124.8366   60.8067 H   0  0  0  0  0  0  0  0  0  0  0  0
  129.1819  126.2199   59.7895 H   0  0  0  0  0  0  0  0  0  0  0  0
  130.9046  125.7108   59.7895 H   0  0  0  0  0  0  0  0  0  0  0  0
  131.2810  127.1500   63.2530 H   0  0  0  0  0  0  0  0  0  0  0  0
  131.3245  124.3083   62.5334 H   0  0  0  0  0  0  0  0  0  0  0  0
  132.7393  125.9141   60.7371 H   0  0  0  0  0  0  0  0  0  0  0  0
  133.9790  125.2710   61.9380 H   0  0  0  0  0  0  0  0  0  0  0  0
  132.0357  123.3838   60.6689 H   0  0  0  0  0  0  0  0  0  0  0  0
  133.7654  122.8858   62.5757 H   0  0  0  0  0  0  0  0  0  0  0  0
  133.5404  121.7203   61.2275 H   0  0  0  0  0  0  0  0  0  0  0  0
  134.9512  122.8321   61.2275 H   0  0  0  0  0  0  0  0  0  0  0  0
  134.5863  124.3603   59.2864 H   0  0  0  0  0  0  0  0  0  0  0  0
  133.5398  123.0024   58.7500 H   0  0  0  0  0  0  0  0  0  0  0  0
  132.9025  124.6819   58.7500 H   0  0  0  0  0  0  0  0  0  0  0  0
  128.7098  128.0861   60.9167 H   0  0  0  0  0  0  0  0  0  0  0  0
  127.4306  129.3336   62.7057 H   0  0  0  0  0  0  0  0  0  0  0  0
  128.1587  130.2329   65.2705 H   0  0  0  0  0  0  0  0  0  0  0  0
  126.8707  129.0284   64.8460 H   0  0  0  0  0  0  0  0  0  0  0  0
  129.2730  127.6270   64.9500 H   0  0  0  0  0  0  0  0  0  0  0  0
  128.3281  125.7342   67.1488 H   0  0  0  0  0  0  0  0  0  0  0  0
  129.9380  126.3710   65.3670 H   0  0  0  0  0  0  0  0  0  0  0  0
  130.4970  125.2620   66.4610 H   0  0  0  0  0  0  0  0  0  0  0  0
  130.9940  126.8340   66.5550 H   0  0  0  0  0  0  0  0  0  0  0  0
  129.8032  125.5416   69.0158 H   0  0  0  0  0  0  0  0  0  0  0  0
  130.2035  127.3293   68.8786 H   0  0  0  0  0  0  0  0  0  0  0  0
  129.2777  128.8162   73.9286 H   0  0  0  0  0  0  0  0  0  0  0  0
  129.7436  129.7859   72.4901 H   0  0  0  0  0  0  0  0  0  0  0  0
  128.2028  128.8624   72.4901 H   0  0  0  0  0  0  0  0  0  0  0  0
  130.5313  127.3060   74.3177 H   0  0  0  0  0  0  0  0  0  0  0  0
  130.9906  125.9741   73.2034 H   0  0  0  0  0  0  0  0  0  0  0  0
  131.9258  127.5077   73.2034 H   0  0  0  0  0  0  0  0  0  0  0  0
  131.7276  128.5948   71.3680 H   0  0  0  0  0  0  0  0  0  0  0  0
  131.0789  127.2169   70.4156 H   0  0  0  0  0  0  0  0  0  0  0  0
  130.2175  128.7932   70.4156 H   0  0  0  0  0  0  0  0  0  0  0  0
  128.3991  131.4899   63.0543 H   0  0  0  0  0  0  0  0  0  0  0  0
  129.9548  130.7513   63.6157 H   0  0  0  0  0  0  0  0  0  0  0  0
  128.7578  130.6577   60.7995 H   0  0  0  0  0  0  0  0  0  0  0  0
  130.2777  131.4713   61.3328 H   0  0  0  0  0  0  0  0  0  0  0  0
  131.3158  129.3596   61.8427 H   0  0  0  0  0  0  0  0  0  0  0  0
  129.6652  128.7290   58.2019 H   0  0  0  0  0  0  0  0  0  0  0  0
  128.8907  129.8248   59.3973 H   0  0  0  0  0  0  0  0  0  0  0  0
  132.3222  129.9543   57.8327 H   0  0  0  0  0  0  0  0  0  0  0  0
  133.1408  131.9275   56.5438 H   0  0  0  0  0  0  0  0  0  0  0  0
  131.6076  133.8407   56.0998 H   0  0  0  0  0  0  0  0  0  0  0  0
  129.2607  133.7951   56.9321 H   0  0  0  0  0  0  0  0  0  0  0  0
  128.4388  131.8225   58.2185 H   0  0  0  0  0  0  0  0  0  0  0  0
  1  2  1  0
  2  3  2  0
  3  4  1  0
  4  5  1  0
  5  6  1  0
  6  7  1  0
  6  8  1  0
  4  9  1  0
  9 10  2  0
  9 11  1  0
  2 12  1  0
 12 13  1  0
 13 14  1  0
 14 15  1  0
 15 16  1  0
 16 17  1  0
 17 18  2  0
 17 19  1  0
 19 20  1  0
 19 21  1  0
 21 22  1  0
 22 23  1  0
 23 24  1  0
 24 25  1  0
 24 26  1  0
 24 27  1  0
 14 28  1  0
 28 29  1  0
 29 30  1  0
 30 31  1  0
 31 32  1  0
 32 33  1  0
 33 34  2  0
 34 35  1  0
 35 36  2  0
 36 37  1  0
 37 38  2  0
 30 12  1  0
 38 33  1  0
  1 39  1  0
  1 40  1  0
  1 41  1  0
  3 42  1  0
  4 43  1  1
  5 44  1  0
  5 45  1  0
  6 46  1  0
  7 47  1  0
  7 48  1  0
  7 49  1  0
  8 50  1  0
  8 51  1  0
  8 52  1  0
 12 53  1  6
 14 54  1  6
 15 55  1  0
 15 56  1  0
 16 57  1  0
 19 58  1  1
 20 59  1  0
 20 60  1  0
 20 61  1  0
 21 62  1  0
 21 63  1  0
 25 64  1  0
 25 65  1  0
 25 66  1  0
 26 67  1  0
 26 68  1  0
 26 69  1  0
 27 70  1  0
 27 71  1  0
 27 72  1  0
 28 73  1  0
 28 74  1  0
 29 75  1  0
 29 76  1  0
 30 77  1  1
 32 78  1  0
 32 79  1  0
 34 80  1  0
 35 81  1  0
 36 82  1  0
 37 83  1  0
 38 84  1  0
M  CHG  3   3   1  11  -1  20   1
M  END
>  <Binding energies>  (1) 
[-8.44]

>  <Ligand effiencies>  (1) 
[-0.19627906976744186]

>  <Interactions>  (1) 
["V-A:ILE:369:CG2:3237, V-A:ASP:366:CA:3210, V-B:HIS:456:CD2:9039, H-A:GLU:543:OE2:4910, V-A:ILE:369:CB:3236, V-A:GLU:543:C:4902, V-B:GLU:543:CB:9878, V-A:ILE:538:CB:4862, V-B:TYR:539:CE2:9848, V-B:GLU:543:CG:9879, V-A:GLY:544:C:4912, V-A:ASP:366:CG:3213, V-A:HIS:456:CD2:4068, V-A:ILE:538:CG2:4863, V-A:LEU:363:CD1:3189, V-A:ILE:538:CA:4860, V-A:GLU:543:CD:4908, H-A:GLY:454:N:4050, V-A:ILE:369:CD1:3239, V-A:HIS:456:CE1:4070, V-A:GLU:543:CG:4907, V-B:GLU:543:CD:9880, V-A:TYR:539:C:4867, H-A:ARG:545:NH2:4928, V-A:ARG:545:CZ:4926, H-A:GLU:543:OE1:4909, V-A:GLU:543:CB:4906, V-A:PRO:540:N:4884, H-B:GLU:543:OE2:9882, H-A:ARG:545:NE:4924, V-A:PRO:540:CD:4887, H-A:TYR:484:OH:4348"]

$$$$
ZINC28567108
     RDKit          3D

 55 57  0  0  0  0  0  0  0  0999 V2000
  130.3330  128.0210   72.3060 C   0  0  0  0  0  0  0  0  0  0  0  0
  130.1010  127.7220   70.8340 C   0  0  0  0  0  0  0  0  0  0  0  0
  131.2700  128.0950   69.9330 C   0  0  0  0  0  0  0  0  0  0  0  0
  128.9380  127.1870   70.4040 C   0  0  0  0  0  0  0  0  0  0  0  0
  128.5580  126.8030   68.9820 C   0  0  0  0  0  0  0  0  0  0  0  0
  129.5550  125.8620   68.2770 C   0  0  0  0  0  0  0  0  0  0  0  0
  129.6580  126.0460   66.7650 C   0  0  0  0  0  0  0  0  0  0  0  0
  128.7600  127.1280   66.1750 C   0  0  0  0  0  0  0  0  0  0  0  0
  130.4630  125.2530   66.0260 C   0  0  0  0  0  0  0  0  0  0  0  0
  130.6850  125.3070   64.5110 C   0  0  1  0  0  0  0  0  0  0  0  0
  131.9980  125.8150   64.2590 O   0  0  0  0  0  0  0  0  0  0  0  0
  132.8860  124.8200   64.0360 C   0  0  0  0  0  0  0  0  0  0  0  0
  134.0890  125.0280   63.8970 O   0  0  0  0  0  0  0  0  0  0  0  0
  132.1420  123.4910   63.9610 C   0  0  0  0  0  0  0  0  0  0  0  0
  130.7010  123.9620   63.7130 C   0  0  2  0  0  0  0  0  0  0  0  0
  130.4220  124.2380   62.1950 C   0  0  0  0  0  0  0  0  0  0  0  0
  130.4730  122.9770   61.2850 C   0  0  2  0  0  0  0  0  0  0  0  0
  129.9720  123.1870   59.9570 O   0  0  0  0  0  0  0  0  0  0  0  0
  128.6490  123.1390   59.6200 C   0  0  0  0  0  0  0  0  0  0  0  0
  127.7250  122.8530   60.3810 O   0  0  0  0  0  0  0  0  0  0  0  0
  128.3580  123.4820   58.1490 C   0  0  0  0  0  0  0  0  0  0  0  0
  127.6130  122.4650   57.2950 C   0  0  0  0  0  0  0  0  0  0  0  0
  126.9140  123.7190   57.7250 C   0  0  0  0  0  0  0  0  0  0  0  0
  129.8270  121.7760   61.9760 C   0  0  0  0  0  0  0  0  0  0  0  0
  129.4920  121.7380   63.2800 C   0  0  0  0  0  0  0  0  0  0  0  0
  129.7130  122.8500   64.2010 C   0  0  0  0  0  0  0  0  0  0  0  0
  129.1500  122.8430   65.2940 O   0  0  0  0  0  0  0  0  0  0  0  0
  129.7732  127.2996   72.9194 H   0  0  0  0  0  0  0  0  0  0  0  0
  131.4064  127.9393   72.5320 H   0  0  0  0  0  0  0  0  0  0  0  0
  129.9872  129.0405   72.5320 H   0  0  0  0  0  0  0  0  0  0  0  0
  132.1363  128.3714   70.5519 H   0  0  0  0  0  0  0  0  0  0  0  0
  131.5322  127.2359   69.2980 H   0  0  0  0  0  0  0  0  0  0  0  0
  130.9862  128.9472   69.2980 H   0  0  0  0  0  0  0  0  0  0  0  0
  128.1738  127.0073   71.1745 H   0  0  0  0  0  0  0  0  0  0  0  0
  127.5789  126.3027   69.0129 H   0  0  0  0  0  0  0  0  0  0  0  0
  128.5506  127.7370   68.4010 H   0  0  0  0  0  0  0  0  0  0  0  0
  130.5513  126.0342   68.7102 H   0  0  0  0  0  0  0  0  0  0  0  0
  129.1793  124.8407   68.4372 H   0  0  0  0  0  0  0  0  0  0  0  0
  128.2878  127.6970   66.9894 H   0  0  0  0  0  0  0  0  0  0  0  0
  129.3633  127.8074   65.5550 H   0  0  0  0  0  0  0  0  0  0  0  0
  127.9811  126.6602   65.5550 H   0  0  0  0  0  0  0  0  0  0  0  0
  131.0229  124.4806   66.5737 H   0  0  0  0  0  0  0  0  0  0  0  0
  129.8219  125.9020   64.1778 H   0  0  0  0  0  0  0  0  0  0  0  0
  132.5105  122.8702   63.1311 H   0  0  0  0  0  0  0  0  0  0  0  0
  132.2605  122.8590   64.8535 H   0  0  0  0  0  0  0  0  0  0  0  0
  129.4205  124.6843   62.1063 H   0  0  0  0  0  0  0  0  0  0  0  0
  131.2251  124.9046   61.8476 H   0  0  0  0  0  0  0  0  0  0  0  0
  131.5392  122.7501   61.1375 H   0  0  0  0  0  0  0  0  0  0  0  0
  129.3026  124.0386   58.0603 H   0  0  0  0  0  0  0  0  0  0  0  0
  127.8910  122.3263   56.2398 H   0  0  0  0  0  0  0  0  0  0  0  0
  127.3981  121.3897   57.3820 H   0  0  0  0  0  0  0  0  0  0  0  0
  126.6805  124.4983   56.9847 H   0  0  0  0  0  0  0  0  0  0  0  0
  125.9767  123.9403   58.2565 H   0  0  0  0  0  0  0  0  0  0  0  0
  129.6220  120.8829   61.3674 H   0  0  0  0  0  0  0  0  0  0  0  0
  129.0275  120.8212   63.6721 H   0  0  0  0  0  0  0  0  0  0  0  0
  1  2  1  0
  2  3  1  0
  2  4  2  3
  4  5  1  0
  5  6  1  0
  6  7  1  0
  7  8  1  0
  7  9  2  0
  9 10  1  0
 10 11  1  0
 11 12  1  0
 12 13  2  0
 12 14  1  0
 15 14  1  6
 15 16  1  0
 16 17  1  0
 17 18  1  0
 18 19  1  0
 19 20  2  0
 19 21  1  0
 21 22  1  0
 22 23  1  0
 17 24  1  0
 24 25  2  0
 25 26  1  0
 26 27  2  0
 15 10  1  0
 23 21  1  0
 26 15  1  0
  1 28  1  0
  1 29  1  0
  1 30  1  0
  3 31  1  0
  3 32  1  0
  3 33  1  0
  4 34  1  0
  5 35  1  0
  5 36  1  0
  6 37  1  0
  6 38  1  0
  8 39  1  0
  8 40  1  0
  8 41  1  0
  9 42  1  0
 10 43  1  6
 14 44  1  0
 14 45  1  0
 16 46  1  0
 16 47  1  0
 17 48  1  6
 21 49  1  0
 22 50  1  0
 22 51  1  0
 23 52  1  0
 23 53  1  0
 24 54  1  0
 25 55  1  0
M  END
>  <Binding energies>  (1) 
[-7.58]

>  <Ligand effiencies>  (1) 
[-0.28074074074074074]

>  <Interactions>  (1) 
["V-B:TYR:539:CA:9841, V-A:ARG:545:CA:4919, V-B:PRO:540:CA:9855, V-B:GLU:543:C:9874, V-A:GLU:543:C:4902, V-B:GLU:543:CB:9878, V-B:ALA:541:CB:9864, H-A:ARG:545:NH1:4927, V-B:TYR:539:CE2:9848, V-B:GLU:543:CG:9879, V-A:GLY:544:C:4912, V-B:TYR:539:C:9839, V-B:TYR:539:CZ:9849, V-A:GLU:543:CD:4908, V-A:ARG:545:CG:4922, V-B:HIS:456:CE1:9041, V-B:GLU:543:CA:9876, H-A:GLY:454:N:4050, V-B:PRO:540:N:9856, V-A:HIS:456:CE1:4070, V-B:TYR:539:CD2:9846, V-B:GLU:543:CD:9880, V-A:LEU:475:CD2:4259, H-A:ARG:545:NH2:4928, V-A:ARG:545:CZ:4926, V-B:TYR:539:CG:9844, V-A:GLU:543:CB:4906, V-B:TYR:539:CD1:9845, H-A:ARG:545:NE:4924, V-B:TYR:539:CE1:9847"]

$$$$
ZINC28568584
     RDKit          3D

 53 54  0  0  0  0  0  0  0  0999 V2000
  129.4070  128.6260   67.8820 H   0  0  0  0  0  0  0  0  0  0  0  0
  129.4250  127.6880   67.5110 N   0  0  0  0  0  0  0  0  0  0  0  0
  129.4360  126.8040   68.4210 C   0  0  0  0  0  0  0  0  0  0  0  0
  129.4730  125.4120   68.1100 N   0  0  0  0  0  0  0  0  0  0  0  0
  129.4860  124.8770   66.8130 N   0  0  0  0  0  0  0  0  0  0  0  0
  130.5980  124.9080   66.1970 C   0  0  0  0  0  0  0  0  0  0  0  0
  130.8090  124.3910   64.8240 C   0  0  0  0  0  0  0  0  0  0  0  0
  129.7060  124.0280   64.0400 C   0  0  0  0  0  0  0  0  0  0  0  0
  129.8410  123.5300   62.7420 C   0  0  0  0  0  0  0  0  0  0  0  0
  128.5710  123.1440   61.9370 C   0  0  0  0  0  0  0  0  0  0  0  0
  128.1710  124.3130   61.0040 C   0  0  0  0  0  0  0  0  0  0  0  0
  128.7590  121.8850   61.0470 C   0  0  0  0  0  0  0  0  0  0  0  0
  127.4040  122.8450   62.9110 C   0  0  0  0  0  0  0  0  0  0  0  0
  131.1340  123.4030   62.2230 C   0  0  0  0  0  0  0  0  0  0  0  0
  132.2830  123.7520   62.9540 C   0  0  0  0  0  0  0  0  0  0  0  0
  133.7040  123.5890   62.3160 C   0  0  0  0  0  0  0  0  0  0  0  0
  134.7140  124.6840   62.7660 C   0  0  0  0  0  0  0  0  0  0  0  0
  134.3390  122.2360   62.7310 C   0  0  0  0  0  0  0  0  0  0  0  0
  133.6250  123.6960   60.7710 C   0  0  0  0  0  0  0  0  0  0  0  0
  132.1000  124.2460   64.2680 C   0  0  0  0  0  0  0  0  0  0  0  0
  133.1960  124.5970   65.0240 O   0  0  0  0  0  0  0  0  0  0  0  0
  129.4300  127.1400   69.8660 C   0  0  0  0  0  0  0  0  0  0  0  0
  130.4020  127.9480   70.4850 C   0  0  0  0  0  0  0  0  0  0  0  0
  130.3650  128.2370   71.8120 N   0  0  0  0  0  0  0  0  0  0  0  0
  129.3440  127.7120   72.5350 C   0  0  0  0  0  0  0  0  0  0  0  0
  128.3710  126.9070   71.9400 C   0  0  0  0  0  0  0  0  0  0  0  0
  128.4100  126.6190   70.6130 N   0  0  0  0  0  0  0  0  0  0  0  0
  129.5030  124.7290   68.8520 H   0  0  0  0  0  0  0  0  0  0  0  0
  131.4611  125.3480   66.7180 H   0  0  0  0  0  0  0  0  0  0  0  0
  128.6964  124.1393   64.4623 H   0  0  0  0  0  0  0  0  0  0  0  0
  127.8739  125.1812   61.6107 H   0  0  0  0  0  0  0  0  0  0  0  0
  129.0272  124.5850   60.3692 H   0  0  0  0  0  0  0  0  0  0  0  0
  127.3277  124.0034   60.3692 H   0  0  0  0  0  0  0  0  0  0  0  0
  128.8911  121.0001   61.6869 H   0  0  0  0  0  0  0  0  0  0  0  0
  127.8712  121.7490   60.4119 H   0  0  0  0  0  0  0  0  0  0  0  0
  129.6478  122.0143   60.4119 H   0  0  0  0  0  0  0  0  0  0  0  0
  127.7594  122.9361   63.9480 H   0  0  0  0  0  0  0  0  0  0  0  0
  126.5891  123.5634   62.7383 H   0  0  0  0  0  0  0  0  0  0  0  0
  127.0349  121.8233   62.7383 H   0  0  0  0  0  0  0  0  0  0  0  0
  131.2566  123.0142   61.2013 H   0  0  0  0  0  0  0  0  0  0  0  0
  134.7486  124.7216   63.8648 H   0  0  0  0  0  0  0  0  0  0  0  0
  135.7138  124.4433   62.3756 H   0  0  0  0  0  0  0  0  0  0  0  0
  134.3935  125.6612   62.3756 H   0  0  0  0  0  0  0  0  0  0  0  0
  134.3712  122.1674   63.8284 H   0  0  0  0  0  0  0  0  0  0  0  0
  133.7350  121.4090   62.3295 H   0  0  0  0  0  0  0  0  0  0  0  0
  135.3611  122.1722   62.3295 H   0  0  0  0  0  0  0  0  0  0  0  0
  132.9926  124.5526   60.4946 H   0  0  0  0  0  0  0  0  0  0  0  0
  134.6357  123.8391   60.3612 H   0  0  0  0  0  0  0  0  0  0  0  0
  133.1906  122.7722   60.3612 H   0  0  0  0  0  0  0  0  0  0  0  0
  133.0820  124.4110   65.9580 H   0  0  0  0  0  0  0  0  0  0  0  0
  131.2190  128.3593   69.8739 H   0  0  0  0  0  0  0  0  0  0  0  0
  129.2816  127.9251   73.6124 H   0  0  0  0  0  0  0  0  0  0  0  0
  127.5574  126.4982   72.5573 H   0  0  0  0  0  0  0  0  0  0  0  0
  1  2  1  0
  2  3  2  0
  3  4  1  0
  4  5  1  0
  5  6  2  0
  6  7  1  0
  7  8  2  0
  8  9  1  0
  9 10  1  0
 10 11  1  0
 10 12  1  0
 10 13  1  0
  9 14  2  0
 14 15  1  0
 15 16  1  0
 16 17  1  0
 16 18  1  0
 16 19  1  0
 15 20  2  0
 20 21  1  0
  3 22  1  0
 22 23  2  0
 23 24  1  0
 24 25  2  0
 25 26  1  0
 26 27  2  0
 20  7  1  0
 27 22  1  0
  4 28  1  0
  6 29  1  0
  8 30  1  0
 11 31  1  0
 11 32  1  0
 11 33  1  0
 12 34  1  0
 12 35  1  0
 12 36  1  0
 13 37  1  0
 13 38  1  0
 13 39  1  0
 14 40  1  0
 17 41  1  0
 17 42  1  0
 17 43  1  0
 18 44  1  0
 18 45  1  0
 18 46  1  0
 19 47  1  0
 19 48  1  0
 19 49  1  0
 21 50  1  0
 23 51  1  0
 25 52  1  0
 26 53  1  0
M  END
>  <Binding energies>  (1) 
[-6.96]

>  <Ligand effiencies>  (1) 
[-0.24]

>  <Interactions>  (1) 
["V-A:ILE:369:CG2:3237, V-B:PRO:540:CA:9855, V-A:GLY:454:CA:4049, V-B:GLU:543:C:9874, H-A:GLU:543:OE2:4910, H-B:GLU:543:O:9875, V-A:GLU:543:C:4902, V-B:GLU:543:CB:9878, V-B:ALA:541:CB:9864, V-A:TYR:484:CE2:4346, V-B:GLU:543:CG:9879, V-A:GLY:544:C:4912, V-A:TYR:484:CZ:4347, V-B:GLU:543:CA:9876, H-A:GLY:454:N:4050, V-A:GLY:453:C:4042, V-A:HIS:456:CE1:4070, V-B:ALA:541:C:9860, V-A:ILE:369:CD1:3239, V-B:GLU:543:CD:9880, V-A:LEU:475:CD2:4259, V-A:ARG:545:CZ:4926, V-A:GLU:543:CB:4906, V-A:GLY:453:CA:4044, H-A:ARG:545:NE:4924, V-B:PRO:540:C:9853, V-B:ALA:541:CA:9862, H-A:HIS:456:NE2:4071, H-A:TYR:484:OH:4348"]

$$$$
ZINC286161054
     RDKit          3D

 41 44  0  0  0  0  0  0  0  0999 V2000
  133.9690  124.7570   65.1550 O   0  0  0  0  0  0  0  0  0  0  0  0
  132.8430  124.7280   64.6490 C   0  0  0  0  0  0  0  0  0  0  0  0
  131.7330  125.1130   65.3160 N   0  0  0  0  0  0  0  0  0  0  0  0
  131.7530  125.4200   66.6940 N   0  0  0  0  0  0  0  0  0  0  0  0
  130.7360  126.2030   67.2640 C   0  0  0  0  0  0  0  0  0  0  0  0
  131.0630  126.9780   68.3380 N   0  0  0  0  0  0  0  0  0  0  0  0
  130.0940  127.7490   68.8940 C   0  0  0  0  0  0  0  0  0  0  0  0
  128.7860  127.7850   68.4120 C   0  0  0  0  0  0  0  0  0  0  0  0
  128.4600  126.9910   67.3120 C   0  0  0  0  0  0  0  0  0  0  0  0
  129.4430  126.1890   66.7260 C   0  0  0  0  0  0  0  0  0  0  0  0
  129.1370  125.4180   65.6550 F   0  0  0  0  0  0  0  0  0  0  0  0
  132.6870  124.2220   63.1830 C   0  0  1  0  0  0  0  0  0  0  0  0
  134.0240  123.5600   62.7120 C   0  0  0  0  0  0  0  0  0  0  0  0
  133.9490  123.0890   61.2310 C   0  0  2  0  0  0  0  0  0  0  0  0
  133.6160  124.3280   60.3490 C   0  0  0  0  0  0  0  0  0  0  0  0
  132.2750  125.0050   60.7540 C   0  0  1  0  0  0  0  0  0  0  0  0
  131.1430  123.9500   60.6300 C   0  0  0  0  0  0  0  0  0  0  0  0
  131.4590  122.7360   61.5320 C   0  0  1  0  0  0  0  0  0  0  0  0
  129.9900  121.4040   61.3430 Br  0  0  0  0  0  0  0  0  0  0  0  0
  132.7840  122.0720   61.0960 C   0  0  0  0  0  0  0  0  0  0  0  0
  131.5370  123.1740   63.0110 C   0  0  0  0  0  0  0  0  0  0  0  0
  132.3870  125.4360   62.2460 C   0  0  0  0  0  0  0  0  0  0  0  0
  130.8060  125.1060   64.9150 H   0  0  0  0  0  0  0  0  0  0  0  0
  132.0020  124.5840   67.2040 H   0  0  0  0  0  0  0  0  0  0  0  0
  130.3518  128.3726   69.7627 H   0  0  0  0  0  0  0  0  0  0  0  0
  128.0284  128.4248   68.8882 H   0  0  0  0  0  0  0  0  0  0  0  0
  127.4365  126.9963   66.9089 H   0  0  0  0  0  0  0  0  0  0  0  0
  134.8379  124.2933   62.8110 H   0  0  0  0  0  0  0  0  0  0  0  0
  134.2068  122.6766   63.3414 H   0  0  0  0  0  0  0  0  0  0  0  0
  134.8992  122.6292   60.9215 H   0  0  0  0  0  0  0  0  0  0  0  0
  134.4277  125.0632   60.4527 H   0  0  0  0  0  0  0  0  0  0  0  0
  133.5147  123.9810   59.3101 H   0  0  0  0  0  0  0  0  0  0  0  0
  132.0629  125.8736   60.1133 H   0  0  0  0  0  0  0  0  0  0  0  0
  130.1890  124.3993   60.9431 H   0  0  0  0  0  0  0  0  0  0  0  0
  131.0697  123.6166   59.5843 H   0  0  0  0  0  0  0  0  0  0  0  0
  132.9839  121.2001   61.7362 H   0  0  0  0  0  0  0  0  0  0  0  0
  132.7018  121.7498   60.0475 H   0  0  0  0  0  0  0  0  0  0  0  0
  130.5802  123.6266   63.3107 H   0  0  0  0  0  0  0  0  0  0  0  0
  131.7411  122.2975   63.6435 H   0  0  0  0  0  0  0  0  0  0  0  0
  133.2003  126.1701   62.3439 H   0  0  0  0  0  0  0  0  0  0  0  0
  131.4224  125.8696   62.5486 H   0  0  0  0  0  0  0  0  0  0  0  0
  1  2  2  0
  2  3  1  0
  3  4  1  0
  4  5  1  0
  5  6  2  0
  6  7  1  0
  7  8  2  0
  8  9  1  0
  9 10  2  0
 10 11  1  0
 12  2  1  1
 12 13  1  0
 13 14  1  0
 14 15  1  0
 15 16  1  0
 16 17  1  0
 17 18  1  0
 18 19  1  1
 18 20  1  0
 18 21  1  0
 16 22  1  0
 10  5  1  0
 21 12  1  0
 22 12  1  0
 20 14  1  0
  3 23  1  0
  4 24  1  0
  7 25  1  0
  8 26  1  0
  9 27  1  0
 13 28  1  0
 13 29  1  0
 14 30  1  6
 15 31  1  0
 15 32  1  0
 16 33  1  6
 17 34  1  0
 17 35  1  0
 20 36  1  0
 20 37  1  0
 21 38  1  0
 21 39  1  0
 22 40  1  0
 22 41  1  0
M  END
>  <Binding energies>  (1) 
[-7.22]

>  <Ligand effiencies>  (1) 
[-0.30083333333333334]

>  <Interactions>  (1) 
["V-A:ILE:369:CG2:3237, V-A:ASP:366:CA:3210, V-A:GLY:454:CA:4049, H-A:GLU:543:OE2:4910, V-B:GLU:543:CB:9878, V-B:TYR:539:CE2:9848, V-B:GLU:543:CG:9879, V-A:ASP:366:CG:3213, V-A:TYR:484:CZ:4347, V-A:GLU:543:CD:4908, V-B:HIS:456:CE1:9041, H-A:GLY:454:N:4050, V-A:GLY:453:C:4042, V-A:ILE:369:CD1:3239, V-A:HIS:456:CE1:4070, V-B:TYR:539:CD2:9846, V-B:GLU:543:CD:9880, V-A:LEU:475:CD2:4259, H-A:ARG:545:NH2:4928, V-A:ARG:545:CZ:4926, V-A:GLU:543:CB:4906, H-A:ARG:545:NE:4924, H-A:TYR:484:OH:4348"]

$$$$
ZINC28654334
     RDKit          3D

 59 63  0  0  0  0  0  0  0  0999 V2000
  131.4560  133.3880   57.1170 C   0  0  0  0  0  0  0  0  0  0  0  0
  130.0390  133.3150   57.1780 O   0  0  0  0  0  0  0  0  0  0  0  0
  129.5650  132.4320   58.1170 C   0  0  0  0  0  0  0  0  0  0  0  0
  128.9940  132.9220   59.2910 C   0  0  0  0  0  0  0  0  0  0  0  0
  128.4990  132.0540   60.2800 C   0  0  0  0  0  0  0  0  0  0  0  0
  127.9200  132.5080   61.4540 O   0  0  0  0  0  0  0  0  0  0  0  0
  126.5040  132.6100   61.5560 C   0  0  0  0  0  0  0  0  0  0  0  0
  128.6010  130.6630   60.0680 C   0  0  0  0  0  0  0  0  0  0  0  0
  129.1340  130.1740   58.8600 C   0  0  0  0  0  0  0  0  0  0  0  0
  129.6210  131.0560   57.8910 C   0  0  0  0  0  0  0  0  0  0  0  0
  130.2780  130.4510   56.4050 Cl  0  0  0  0  0  0  0  0  0  0  0  0
  129.1360  128.8280   58.5030 O   0  0  0  0  0  0  0  0  0  0  0  0
  128.8200  127.8630   59.5030 C   0  0  2  0  0  0  0  0  0  0  0  0
  129.9760  127.6390   60.2850 O   0  0  0  0  0  0  0  0  0  0  0  0
  130.4800  126.3070   60.3720 C   0  0  0  0  0  0  0  0  0  0  0  0
  128.3820  126.5610   58.7540 C   0  0  0  0  0  0  0  0  0  0  0  0
  127.3750  125.7470   59.2930 C   0  0  0  0  0  0  0  0  0  0  0  0
  126.9780  124.5860   58.6380 C   0  0  0  0  0  0  0  0  0  0  0  0
  127.5870  124.2290   57.4360 C   0  0  0  0  0  0  0  0  0  0  0  0
  127.0950  122.7880   56.6220 Cl  0  0  0  0  0  0  0  0  0  0  0  0
  128.5880  125.0260   56.8880 C   0  0  0  0  0  0  0  0  0  0  0  0
  128.9830  126.1880   57.5450 C   0  0  0  0  0  0  0  0  0  0  0  0
  127.6570  128.3800   60.4220 C   0  0  1  0  0  0  0  0  0  0  0  0
  126.5360  128.5900   59.5410 O   0  0  0  0  0  0  0  0  0  0  0  0
  125.4980  129.4820   59.9480 C   0  0  0  0  0  0  0  0  0  0  0  0
  127.3060  127.3120   61.8510 S   0  0  0  0  0  0  0  0  0  0  0  0
  127.7110  128.6390   62.9730 N   0  0  0  0  0  0  0  0  0  0  0  0
  128.0090  128.4240   64.3170 C   0  0  0  0  0  0  0  0  0  0  0  0
  127.5800  129.3630   65.2580 C   0  0  0  0  0  0  0  0  0  0  0  0
  127.8610  129.1940   66.6120 C   0  0  0  0  0  0  0  0  0  0  0  0
  128.5820  128.0770   67.0600 C   0  0  0  0  0  0  0  0  0  0  0  0
  128.8850  127.8990   68.5010 N   0  0  0  0  0  0  0  0  0  0  0  0
  127.9680  127.6000   69.2620 O   0  0  0  0  0  0  0  0  0  0  0  0
  130.0410  128.0550   68.8820 O   0  0  0  0  0  0  0  0  0  0  0  0
  129.0100  127.1360   66.1130 C   0  0  0  0  0  0  0  0  0  0  0  0
  128.7310  127.3010   64.7540 C   0  0  0  0  0  0  0  0  0  0  0  0
  129.3000  126.0970   63.6460 Cl  0  0  0  0  0  0  0  0  0  0  0  0
  128.1850  129.7740   62.3120 N   0  0  0  0  0  0  0  0  0  0  0  0
  128.1580  129.6730   61.0510 C   0  0  0  0  0  0  0  0  0  0  0  0
  131.8663  133.4091   58.1374 H   0  0  0  0  0  0  0  0  0  0  0  0
  131.8458  132.5087   56.5832 H   0  0  0  0  0  0  0  0  0  0  0  0
  131.7534  134.3027   56.5832 H   0  0  0  0  0  0  0  0  0  0  0  0
  128.9296  134.0091   59.4464 H   0  0  0  0  0  0  0  0  0  0  0  0
  126.2134  132.6309   62.6167 H   0  0  0  0  0  0  0  0  0  0  0  0
  126.1667  133.5348   61.0651 H   0  0  0  0  0  0  0  0  0  0  0  0
  126.0376  131.7431   61.0651 H   0  0  0  0  0  0  0  0  0  0  0  0
  130.5871  126.0238   61.4295 H   0  0  0  0  0  0  0  0  0  0  0  0
  129.7807  125.6173   59.8768 H   0  0  0  0  0  0  0  0  0  0  0  0
  131.4607  126.2530   59.8768 H   0  0  0  0  0  0  0  0  0  0  0  0
  126.8952  126.0292   60.2418 H   0  0  0  0  0  0  0  0  0  0  0  0
  126.1873  123.9526   59.0664 H   0  0  0  0  0  0  0  0  0  0  0  0
  129.0651  124.7387   55.9394 H   0  0  0  0  0  0  0  0  0  0  0  0
  129.7734  126.8183   57.1113 H   0  0  0  0  0  0  0  0  0  0  0  0
  125.4557  129.5184   61.0466 H   0  0  0  0  0  0  0  0  0  0  0  0
  125.7047  130.4886   59.5555 H   0  0  0  0  0  0  0  0  0  0  0  0
  124.5340  129.1262   59.5555 H   0  0  0  0  0  0  0  0  0  0  0  0
  127.0139  130.2459   64.9262 H   0  0  0  0  0  0  0  0  0  0  0  0
  127.5139  129.9444   67.3376 H   0  0  0  0  0  0  0  0  0  0  0  0
  129.5751  126.2528   66.4456 H   0  0  0  0  0  0  0  0  0  0  0  0
  1  2  1  0
  2  3  1  0
  3  4  2  0
  4  5  1  0
  5  6  1  0
  6  7  1  0
  5  8  2  0
  8  9  1  0
  9 10  2  0
 10 11  1  0
  9 12  1  0
 12 13  1  0
 13 14  1  1
 14 15  1  0
 13 16  1  0
 16 17  2  0
 17 18  1  0
 18 19  2  0
 19 20  1  0
 19 21  1  0
 21 22  2  0
 13 23  1  0
 23 24  1  6
 24 25  1  0
 23 26  1  0
 26 27  1  0
 27 28  1  0
 28 29  2  0
 29 30  1  0
 30 31  2  0
 31 32  1  0
 32 33  2  0
 32 34  1  0
 31 35  1  0
 35 36  2  0
 36 37  1  0
 27 38  1  0
 38 39  2  0
 10  3  1  0
 22 16  1  0
 39 23  1  0
 39  8  1  0
 36 28  1  0
  1 40  1  0
  1 41  1  0
  1 42  1  0
  4 43  1  0
  7 44  1  0
  7 45  1  0
  7 46  1  0
 15 47  1  0
 15 48  1  0
 15 49  1  0
 17 50  1  0
 18 51  1  0
 21 52  1  0
 22 53  1  0
 25 54  1  0
 25 55  1  0
 25 56  1  0
 29 57  1  0
 30 58  1  0
 35 59  1  0
M  CHG  2  32   1  34  -1
M  END
>  <Binding energies>  (1) 
[-6.83]

>  <Ligand effiencies>  (1) 
[-0.17512820512820512]

>  <Interactions>  (1) 
["V-A:PRO:540:CG:4886, V-B:GLU:543:CB:9878, V-A:ILE:538:CB:4862, V-B:ASP:366:CG:8184, V-B:GLU:543:CG:9879, V-A:TYR:539:CD1:4873, V-A:LEU:363:CD1:3189, V-B:TYR:539:CZ:9849, V-A:ILE:538:CA:4860, V-B:ASP:366:CB:8183, V-A:GLU:543:CD:4908, V-B:HIS:456:CE1:9041, V-B:PRO:540:N:9856, V-B:TYR:484:CZ:9318, V-A:TYR:531:CZ:4794, V-A:GLU:543:CG:4907, V-A:MET:535:CE:4835, V-B:GLU:543:CD:9880, V-A:TYR:539:C:4867, V-A:GLU:543:CB:4906, V-B:TYR:539:CD1:9845, V-A:PRO:540:N:4884, H-A:TYR:539:N:4870, V-A:PRO:540:CB:4885, V-A:PRO:540:CA:4883, V-A:PRO:540:CD:4887, V-B:TYR:539:CE1:9847"]

$$$$
ZINC2896204
     RDKit          3D

 68 73  0  0  0  0  0  0  0  0999 V2000
  130.2920  126.5770   74.0070 C   0  0  0  0  0  0  0  0  0  0  0  0
  129.9100  126.9310   72.5800 C   0  0  0  0  0  0  0  0  0  0  0  0
  128.5990  126.7690   72.1360 C   0  0  0  0  0  0  0  0  0  0  0  0
  128.2440  127.0970   70.8240 C   0  0  0  0  0  0  0  0  0  0  0  0
  126.7910  126.9110   70.3970 C   0  0  0  0  0  0  0  0  0  0  0  0
  129.2140  127.6100   69.9400 C   0  0  0  0  0  0  0  0  0  0  0  0
  128.8130  127.9740   68.6380 N   0  0  0  0  0  0  0  0  0  0  0  0
  129.0190  127.3190   67.4070 C   0  0  0  0  0  0  0  0  0  0  0  0
  129.5590  126.0190   67.3990 C   0  0  0  0  0  0  0  0  0  0  0  0
  129.7920  125.2930   66.2160 C   0  0  0  0  0  0  0  0  0  0  0  0
  130.3070  124.0110   66.1560 O   0  0  0  0  0  0  0  0  0  0  0  0
  130.9300  123.5910   65.0060 C   0  0  0  0  0  0  0  0  0  0  0  0
  130.2940  122.6720   64.1750 C   0  0  0  0  0  0  0  0  0  0  0  0
  130.8800  122.3070   62.9660 C   0  0  0  0  0  0  0  0  0  0  0  0
  132.1130  122.8520   62.5720 C   0  0  0  0  0  0  0  0  0  0  0  0
  132.7730  122.5120   61.2110 C   0  0  0  0  0  0  0  0  0  0  0  0
  132.6540  123.6550   60.1680 C   0  0  0  0  0  0  0  0  0  0  0  0
  134.2800  122.2310   61.4270 C   0  0  0  0  0  0  0  0  0  0  0  0
  132.1010  121.2580   60.5970 C   0  0  0  0  0  0  0  0  0  0  0  0
  132.7540  123.7510   63.4390 C   0  0  0  0  0  0  0  0  0  0  0  0
  132.1730  124.1130   64.6490 C   0  0  0  0  0  0  0  0  0  0  0  0
  129.5040  125.9230   64.9960 C   0  0  0  0  0  0  0  0  0  0  0  0
  129.6220  125.5110   63.6900 N   0  0  0  0  0  0  0  0  0  0  0  0
  129.1720  126.5960   62.9050 O   0  0  0  0  0  0  0  0  0  0  0  0
  128.7950  127.6220   63.7180 C   0  0  0  0  0  0  0  0  0  0  0  0
  128.9930  127.2230   65.0340 C   0  0  0  0  0  0  0  0  0  0  0  0
  128.7360  127.9700   66.1860 C   0  0  0  0  0  0  0  0  0  0  0  0
  128.1850  129.3650   65.9580 C   0  0  0  0  0  0  0  0  0  0  0  0
  127.9260  130.1150   66.9020 O   0  0  0  0  0  0  0  0  0  0  0  0
  127.9630  129.8090   64.5140 C   0  0  0  0  0  0  0  0  0  0  0  0
  127.4510  131.0910   64.2510 C   0  0  0  0  0  0  0  0  0  0  0  0
  127.2370  131.5260   62.9440 C   0  0  0  0  0  0  0  0  0  0  0  0
  127.5290  130.6890   61.8690 C   0  0  0  0  0  0  0  0  0  0  0  0
  128.0380  129.4120   62.0990 C   0  0  0  0  0  0  0  0  0  0  0  0
  128.2550  128.9700   63.4060 C   0  0  0  0  0  0  0  0  0  0  0  0
  130.5540  127.7260   70.3780 C   0  0  0  0  0  0  0  0  0  0  0  0
  131.6990  128.1220   69.4500 C   0  0  0  0  0  0  0  0  0  0  0  0
  130.8820  127.3960   71.6960 C   0  0  0  0  0  0  0  0  0  0  0  0
  129.6696  127.1538   74.7070 H   0  0  0  0  0  0  0  0  0  0  0  0
  130.1310  125.5017   74.1737 H   0  0  0  0  0  0  0  0  0  0  0  0
  131.3520  126.8192   74.1737 H   0  0  0  0  0  0  0  0  0  0  0  0
  127.8354  126.3789   72.8250 H   0  0  0  0  0  0  0  0  0  0  0  0
  126.1540  126.8295   71.2900 H   0  0  0  0  0  0  0  0  0  0  0  0
  126.4717  127.7756   69.7966 H   0  0  0  0  0  0  0  0  0  0  0  0
  126.6998  125.9939   69.7966 H   0  0  0  0  0  0  0  0  0  0  0  0
  128.4670  128.9190   68.5490 H   0  0  0  0  0  0  0  0  0  0  0  0
  129.8103  125.5491   68.3613 H   0  0  0  0  0  0  0  0  0  0  0  0
  129.3297  122.2350   64.4736 H   0  0  0  0  0  0  0  0  0  0  0  0
  130.3715  121.5835   62.3119 H   0  0  0  0  0  0  0  0  0  0  0  0
  132.5537  124.6183   60.6895 H   0  0  0  0  0  0  0  0  0  0  0  0
  133.5553  123.6714   59.5376 H   0  0  0  0  0  0  0  0  0  0  0  0
  131.7687  123.4854   59.5376 H   0  0  0  0  0  0  0  0  0  0  0  0
  134.4947  122.1910   62.5051 H   0  0  0  0  0  0  0  0  0  0  0  0
  134.5434  121.2683   60.9647 H   0  0  0  0  0  0  0  0  0  0  0  0
  134.8727  123.0341   60.9647 H   0  0  0  0  0  0  0  0  0  0  0  0
  131.7479  120.5991   61.4039 H   0  0  0  0  0  0  0  0  0  0  0  0
  131.2474  121.5666   59.9756 H   0  0  0  0  0  0  0  0  0  0  0  0
  132.8307  120.7181   59.9756 H   0  0  0  0  0  0  0  0  0  0  0  0
  133.7292  124.1747   63.1571 H   0  0  0  0  0  0  0  0  0  0  0  0
  132.6926  124.8096   65.3234 H   0  0  0  0  0  0  0  0  0  0  0  0
  127.2153  131.7621   65.0901 H   0  0  0  0  0  0  0  0  0  0  0  0
  126.8361  132.5338   62.7606 H   0  0  0  0  0  0  0  0  0  0  0  0
  127.3579  131.0359   60.8392 H   0  0  0  0  0  0  0  0  0  0  0  0
  128.2691  128.7516   61.2502 H   0  0  0  0  0  0  0  0  0  0  0  0
  132.5701  128.4233   70.0504 H   0  0  0  0  0  0  0  0  0  0  0  0
  131.9697  127.2653   68.8154 H   0  0  0  0  0  0  0  0  0  0  0  0
  131.3825  128.9629   68.8154 H   0  0  0  0  0  0  0  0  0  0  0  0
  131.9211  127.5047   72.0401 H   0  0  0  0  0  0  0  0  0  0  0  0
  1  2  1  0
  2  3  2  0
  3  4  1  0
  4  5  1  0
  4  6  2  0
  6  7  1  0
  7  8  1  0
  8  9  1  0
  9 10  2  0
 10 11  1  0
 11 12  1  0
 12 13  2  0
 13 14  1  0
 14 15  2  0
 15 16  1  0
 16 17  1  0
 16 18  1  0
 16 19  1  0
 15 20  1  0
 20 21  2  0
 10 22  1  0
 22 23  2  0
 23 24  1  0
 24 25  1  0
 25 26  2  0
 26 27  1  0
 27 28  1  0
 28 29  2  0
 28 30  1  0
 30 31  2  0
 31 32  1  0
 32 33  2  0
 33 34  1  0
 34 35  2  0
  6 36  1  0
 36 37  1  0
 36 38  2  0
 38  2  1  0
 27  8  2  0
 35 30  1  0
 21 12  1  0
 26 22  1  0
 35 25  1  0
  1 39  1  0
  1 40  1  0
  1 41  1  0
  3 42  1  0
  5 43  1  0
  5 44  1  0
  5 45  1  0
  7 46  1  0
  9 47  1  0
 13 48  1  0
 14 49  1  0
 17 50  1  0
 17 51  1  0
 17 52  1  0
 18 53  1  0
 18 54  1  0
 18 55  1  0
 19 56  1  0
 19 57  1  0
 19 58  1  0
 20 59  1  0
 21 60  1  0
 31 61  1  0
 32 62  1  0
 33 63  1  0
 34 64  1  0
 37 65  1  0
 37 66  1  0
 37 67  1  0
 38 68  1  0
M  END
>  <Binding energies>  (1) 
[-8.84]

>  <Ligand effiencies>  (1) 
[-0.22666666666666666]

>  <Interactions>  (1) 
["V-A:ILE:369:CG2:3237, V-A:ARG:545:CA:4919, V-A:GLU:543:CA:4904, V-B:GLU:543:C:9874, V-A:GLU:543:C:4902, V-B:GLU:543:CB:9878, V-B:ALA:541:CB:9864, V-B:TYR:539:CE2:9848, V-A:TYR:484:CE2:4346, V-B:GLU:543:CG:9879, V-A:GLY:544:C:4912, V-A:HIS:456:CD2:4068, V-A:GLU:543:CD:4908, V-A:TYR:484:CZ:4347, H-B:TYR:484:OH:9319, V-B:HIS:456:CE1:9041, V-A:ARG:545:CG:4922, V-B:TYR:484:CZ:9318, V-A:HIS:456:CE1:4070, V-A:ILE:369:CD1:3239, V-B:GLY:544:C:9884, H-B:HIS:456:NE2:9042, V-B:GLY:544:CA:9886, V-A:GLU:543:CG:4907, V-B:TYR:539:CD2:9846, V-B:GLU:543:CD:9880, V-A:LEU:475:CD2:4259, V-A:HIS:456:CG:4066, V-A:GLU:543:CB:4906, H-A:TYR:484:OH:4348"]

$$$$
ZINC29043232-again1
     RDKit          3D

 66 71  0  0  0  0  0  0  0  0999 V2000
  130.2590  119.9710   60.9950 O   0  0  0  0  0  0  0  0  0  0  0  0
  130.8070  121.0570   61.6230 C   0  0  0  0  0  0  0  0  0  0  0  0
  132.0600  121.5280   61.2360 C   0  0  0  0  0  0  0  0  0  0  0  0
  132.6210  122.6350   61.8720 C   0  0  0  0  0  0  0  0  0  0  0  0
  133.8500  123.0760   61.4520 O   0  0  0  0  0  0  0  0  0  0  0  0
  131.9400  123.2940   62.9080 C   0  0  0  0  0  0  0  0  0  0  0  0
  130.6760  122.7990   63.2900 C   0  0  0  0  0  0  0  0  0  0  0  0
  130.1160  121.6910   62.6520 C   0  0  0  0  0  0  0  0  0  0  0  0
  129.9200  123.3170   64.3280 O   0  0  0  0  0  0  0  0  0  0  0  0
  130.3400  124.5470   64.9460 C   0  0  2  0  0  0  0  0  0  0  0  0
  129.6150  125.7850   64.3570 C   0  0  0  0  0  0  0  0  0  0  0  0
  129.4600  125.8450   62.9690 C   0  0  0  0  0  0  0  0  0  0  0  0
  128.7810  126.8860   62.3550 C   0  0  0  0  0  0  0  0  0  0  0  0
  128.6440  126.8690   60.9880 O   0  0  0  0  0  0  0  0  0  0  0  0
  128.2440  127.9190   63.1220 C   0  0  0  0  0  0  0  0  0  0  0  0
  127.5510  128.9100   62.4570 O   0  0  0  0  0  0  0  0  0  0  0  0
  128.4210  127.9100   64.5260 C   0  0  0  0  0  0  0  0  0  0  0  0
  127.8150  129.0620   65.2870 C   0  0  0  0  0  0  0  0  0  0  0  0
  128.0560  130.3220   64.8730 O   0  0  0  0  0  0  0  0  0  0  0  0
  126.9960  128.8310   66.4620 C   0  0  0  0  0  0  0  0  0  0  0  0
  125.8490  129.5650   66.4790 O   0  0  0  0  0  0  0  0  0  0  0  0
  127.2500  128.0030   67.4870 C   0  0  0  0  0  0  0  0  0  0  0  0
  128.4560  127.2050   67.6570 C   0  0  0  0  0  0  0  0  0  0  0  0
  128.9400  126.9640   69.0950 C   0  0  2  0  0  0  0  0  0  0  0  0
  127.8630  127.1940   70.0160 O   0  0  0  0  0  0  0  0  0  0  0  0
  128.1820  127.3310   71.3570 C   0  0  0  0  0  0  0  0  0  0  0  0
  127.0880  127.3660   72.2200 C   0  0  0  0  0  0  0  0  0  0  0  0
  127.2810  127.5720   73.5840 C   0  0  0  0  0  0  0  0  0  0  0  0
  126.2070  127.6090   74.4330 O   0  0  0  0  0  0  0  0  0  0  0  0
  128.5700  127.7480   74.0820 C   0  0  0  0  0  0  0  0  0  0  0  0
  129.6670  127.7160   73.2210 C   0  0  0  0  0  0  0  0  0  0  0  0
  130.9200  127.8840   73.7540 O   0  0  0  0  0  0  0  0  0  0  0  0
  129.4950  127.5030   71.8430 C   0  0  0  0  0  0  0  0  0  0  0  0
  130.6660  127.4280   70.8660 C   0  0  0  0  0  0  0  0  0  0  0  0
  130.2090  127.7900   69.4440 C   0  0  2  0  0  0  0  0  0  0  0  0
  130.0280  129.1890   69.3070 O   0  0  0  0  0  0  0  0  0  0  0  0
  129.2300  126.7280   66.6550 C   0  0  0  0  0  0  0  0  0  0  0  0
  129.0900  126.8280   65.1660 C   0  0  0  0  0  0  0  0  0  0  0  0
  131.8910  124.6680   65.0090 C   0  0  2  0  0  0  0  0  0  0  0  0
  132.3460  125.8530   65.6310 O   0  0  0  0  0  0  0  0  0  0  0  0
  132.5000  124.5270   63.6070 C   0  0  0  0  0  0  0  0  0  0  0  0
  129.3200  120.0700   60.8220 H   0  0  0  0  0  0  0  0  0  0  0  0
  132.6085  121.0249   60.4260 H   0  0  0  0  0  0  0  0  0  0  0  0
  134.5520  122.4470   61.6320 H   0  0  0  0  0  0  0  0  0  0  0  0
  129.1285  121.3187   62.9623 H   0  0  0  0  0  0  0  0  0  0  0  0
  130.0162  124.5179   65.9969 H   0  0  0  0  0  0  0  0  0  0  0  0
  129.8882  125.0448   62.3474 H   0  0  0  0  0  0  0  0  0  0  0  0
  128.1730  127.6330   60.6450 H   0  0  0  0  0  0  0  0  0  0  0  0
  127.4260  128.7060   61.5270 H   0  0  0  0  0  0  0  0  0  0  0  0
  128.6020  130.3920   64.0860 H   0  0  0  0  0  0  0  0  0  0  0  0
  125.9490  130.3370   65.9180 H   0  0  0  0  0  0  0  0  0  0  0  0
  126.4793  127.9198   68.2675 H   0  0  0  0  0  0  0  0  0  0  0  0
  129.2482  125.9116   69.1817 H   0  0  0  0  0  0  0  0  0  0  0  0
  126.0709  127.2308   71.8234 H   0  0  0  0  0  0  0  0  0  0  0  0
  125.4240  127.1930   74.0640 H   0  0  0  0  0  0  0  0  0  0  0  0
  128.7234  127.9129   75.1587 H   0  0  0  0  0  0  0  0  0  0  0  0
  131.6210  127.7300   73.1170 H   0  0  0  0  0  0  0  0  0  0  0  0
  131.4482  128.1328   71.1846 H   0  0  0  0  0  0  0  0  0  0  0  0
  131.0583  126.4003   70.8613 H   0  0  0  0  0  0  0  0  0  0  0  0
  130.9894  127.5247   68.7155 H   0  0  0  0  0  0  0  0  0  0  0  0
  129.3890  129.4790   69.9620 H   0  0  0  0  0  0  0  0  0  0  0  0
  130.1160  126.1698   66.9916 H   0  0  0  0  0  0  0  0  0  0  0  0
  132.2349  123.8394   65.6456 H   0  0  0  0  0  0  0  0  0  0  0  0
  131.7290  126.5610   65.4290 H   0  0  0  0  0  0  0  0  0  0  0  0
  132.2574  125.4215   63.0145 H   0  0  0  0  0  0  0  0  0  0  0  0
  133.5909  124.4207   63.7001 H   0  0  0  0  0  0  0  0  0  0  0  0
  1  2  1  0
  2  3  2  0
  3  4  1  0
  4  5  1  0
  4  6  2  0
  6  7  1  0
  7  8  2  0
  7  9  1  0
  9 10  1  0
 10 11  1  0
 11 12  2  0
 12 13  1  0
 13 14  1  0
 13 15  2  0
 15 16  1  0
 15 17  1  0
 17 18  1  0
 18 19  2  3
 18 20  1  0
 20 21  1  0
 20 22  2  0
 22 23  1  0
 23 24  1  0
 24 25  1  0
 25 26  1  0
 26 27  2  0
 27 28  1  0
 28 29  1  0
 28 30  2  0
 30 31  1  0
 31 32  1  0
 31 33  2  0
 33 34  1  0
 34 35  1  0
 35 36  1  0
 23 37  2  0
 37 38  1  0
 10 39  1  0
 39 40  1  0
 39 41  1  0
  8  2  1  0
 38 11  1  0
 41  6  1  0
 38 17  2  0
 35 24  1  0
 33 26  1  0
  1 42  1  0
  3 43  1  0
  5 44  1  0
  8 45  1  0
 10 46  1  1
 12 47  1  0
 14 48  1  0
 16 49  1  0
 19 50  1  0
 21 51  1  0
 22 52  1  0
 24 53  1  6
 27 54  1  0
 29 55  1  0
 30 56  1  0
 32 57  1  0
 34 58  1  0
 34 59  1  0
 35 60  1  6
 36 61  1  0
 37 62  1  0
 39 63  1  1
 40 64  1  0
 41 65  1  0
 41 66  1  0
M  CHG  1  19   1
M  END
>  <Binding energies>  (1) 
[-7.36]

>  <Ligand effiencies>  (1) 
[-0.14431372549019608]

>  <Interactions>  (1) 
["V-B:HIS:456:CD2:9039, H-A:GLU:543:OE2:4910, V-A:GLU:543:C:4902, V-B:GLU:543:CB:9878, H-B:LYS:547:NZ:9923, V-B:ALA:541:CB:9864, V-B:TYR:539:CE2:9848, V-B:GLU:543:CG:9879, V-A:GLY:544:C:4912, V-A:HIS:456:CD2:4068, V-B:LYS:547:CE:9922, V-A:GLU:543:CD:4908, H-B:TYR:484:OH:9319, V-B:HIS:456:CE1:9041, V-A:HIS:456:CE1:4070, V-B:GLY:544:C:9884, H-B:HIS:456:NE2:9042, V-B:TYR:539:CD2:9846, V-A:GLU:543:CG:4907, V-B:GLU:543:CD:9880, V-B:HIS:456:CG:9037, H-A:LYS:547:NZ:4951, H-A:ARG:545:NH2:4928, V-A:LEU:475:CD2:4259, H-A:GLU:543:OE1:4909, V-A:GLU:543:CB:4906, H-B:GLY:544:O:9885, H-B:TYR:539:O:9840, H-A:ARG:545:NE:4924, H-A:SER:385:O:3406, H-A:GLY:544:O:4913, H-A:TYR:484:OH:4348, H-A:GLU:543:O:4903"]

$$$$
ZINC29045736
     RDKit          3D

 76 80  0  0  0  0  0  0  0  0999 V2000
  125.4510  129.2210   60.8440 C   0  0  0  0  0  0  0  0  0  0  0  0
  126.4360  129.7260   60.0870 C   0  0  0  0  0  0  0  0  0  0  0  0
  127.0450  129.0280   58.8750 C   0  0  1  0  0  0  0  0  0  0  0  0
  128.5390  129.4070   58.6870 C   0  0  2  0  0  0  0  0  0  0  0  0
  128.5780  130.7990   58.5470 O   0  0  0  0  0  0  0  0  0  0  0  0
  129.7570  131.4010   58.9940 C   0  0  2  0  0  0  0  0  0  0  0  0
  130.8560  130.6170   58.6040 O   0  0  0  0  0  0  0  0  0  0  0  0
  132.1170  131.2090   58.9320 C   0  0  2  0  0  0  0  0  0  0  0  0
  133.2210  130.3710   58.2520 C   0  0  0  0  0  0  0  0  0  0  0  0
  132.6990  129.6540   57.1510 O   0  0  0  0  0  0  0  0  0  0  0  0
  132.2510  131.2420   60.4740 C   0  0  1  0  0  0  0  0  0  0  0  0
  133.4600  131.8680   60.8710 O   0  0  0  0  0  0  0  0  0  0  0  0
  131.0360  131.9600   61.1060 C   0  0  2  0  0  0  0  0  0  0  0  0
  131.0570  131.8660   62.5210 O   0  0  0  0  0  0  0  0  0  0  0  0
  129.6950  131.4400   60.5300 C   0  0  1  0  0  0  0  0  0  0  0  0
  128.6040  132.2250   60.9780 O   0  0  0  0  0  0  0  0  0  0  0  0
  129.1310  128.8070   57.5460 O   0  0  0  0  0  0  0  0  0  0  0  0
  128.6030  127.6250   57.1190 C   0  0  0  0  0  0  0  0  0  0  0  0
  127.5750  126.9400   57.6710 C   0  0  0  0  0  0  0  0  0  0  0  0
  127.0630  125.6950   57.0600 C   0  0  0  0  0  0  0  0  0  0  0  0
  125.8600  125.4920   56.8850 O   0  0  0  0  0  0  0  0  0  0  0  0
  128.0300  124.7980   56.7340 O   0  0  0  0  0  0  0  0  0  0  0  0
  127.9310  123.4400   57.1420 C   0  0  0  0  0  0  0  0  0  0  0  0
  126.8830  127.4780   58.9310 C   0  0  1  0  0  0  0  0  0  0  0  0
  127.4690  126.8270   60.2290 C   0  0  0  0  0  0  0  0  0  0  0  0
  127.6870  125.2930   60.2440 C   0  0  2  0  0  0  0  0  0  0  0  0
  127.2400  124.7530   61.6250 N   0  0  0  0  0  0  0  0  0  0  0  0
  127.5700  123.2550   61.8030 C   0  0  0  0  0  0  0  0  0  0  0  0
  129.1060  123.0400   61.8490 C   0  0  0  0  0  0  0  0  0  0  0  0
  129.7920  123.8480   60.7530 C   0  0  0  0  0  0  0  0  0  0  0  0
  129.1450  124.8670   60.0690 C   0  0  0  0  0  0  0  0  0  0  0  0
  130.0320  125.4440   59.1920 N   0  0  0  0  0  0  0  0  0  0  0  0
  131.2640  124.8280   59.2690 C   0  0  0  0  0  0  0  0  0  0  0  0
  132.4570  125.0740   58.5740 C   0  0  0  0  0  0  0  0  0  0  0  0
  132.6430  126.1470   57.5150 C   0  0  0  0  0  0  0  0  0  0  0  0
  133.5410  124.2530   58.9080 C   0  0  0  0  0  0  0  0  0  0  0  0
  133.4510  123.2510   59.8700 C   0  0  0  0  0  0  0  0  0  0  0  0
  132.2620  123.0160   60.5550 C   0  0  0  0  0  0  0  0  0  0  0  0
  131.1400  123.8060   60.2600 C   0  0  0  0  0  0  0  0  0  0  0  0
  125.0691  129.7926   61.7027 H   0  0  0  0  0  0  0  0  0  0  0  0
  125.0250  128.2351   60.6063 H   0  0  0  0  0  0  0  0  0  0  0  0
  126.8335  130.7148   60.3597 H   0  0  0  0  0  0  0  0  0  0  0  0
  126.4802  129.3876   58.0023 H   0  0  0  0  0  0  0  0  0  0  0  0
  129.1111  129.0445   59.5538 H   0  0  0  0  0  0  0  0  0  0  0  0
  129.8640  132.4116   58.5730 H   0  0  0  0  0  0  0  0  0  0  0  0
  132.2050  132.2442   58.5707 H   0  0  0  0  0  0  0  0  0  0  0  0
  134.0184  131.0421   57.9003 H   0  0  0  0  0  0  0  0  0  0  0  0
  133.6205  129.6532   58.9835 H   0  0  0  0  0  0  0  0  0  0  0  0
  131.7810  129.4410   57.3320 H   0  0  0  0  0  0  0  0  0  0  0  0
  132.2742  130.2032   60.8350 H   0  0  0  0  0  0  0  0  0  0  0  0
  133.9990  131.2230   61.3340 H   0  0  0  0  0  0  0  0  0  0  0  0
  131.1158  133.0242   60.8392 H   0  0  0  0  0  0  0  0  0  0  0  0
  131.4010  131.0030   62.7660 H   0  0  0  0  0  0  0  0  0  0  0  0
  129.5341  130.4160   60.8983 H   0  0  0  0  0  0  0  0  0  0  0  0
  127.9070  132.1800   60.3200 H   0  0  0  0  0  0  0  0  0  0  0  0
  129.0642  127.1782   56.2259 H   0  0  0  0  0  0  0  0  0  0  0  0
  127.9271  123.3866   58.2407 H   0  0  0  0  0  0  0  0  0  0  0  0
  126.9989  123.0065   56.7505 H   0  0  0  0  0  0  0  0  0  0  0  0
  128.7904  122.8759   56.7505 H   0  0  0  0  0  0  0  0  0  0  0  0
  125.8151  127.2162   58.9631 H   0  0  0  0  0  0  0  0  0  0  0  0
  128.4454  127.2971   60.4175 H   0  0  0  0  0  0  0  0  0  0  0  0
  126.6972  127.0003   60.9934 H   0  0  0  0  0  0  0  0  0  0  0  0
  127.1090  124.8931   59.3978 H   0  0  0  0  0  0  0  0  0  0  0  0
  127.6920  125.2820   62.3570 H   0  0  0  0  0  0  0  0  0  0  0  0
  126.2440  124.8930   61.7240 H   0  0  0  0  0  0  0  0  0  0  0  0
  127.1256  122.8954   62.7428 H   0  0  0  0  0  0  0  0  0  0  0  0
  127.1573  122.6955   60.9506 H   0  0  0  0  0  0  0  0  0  0  0  0
  129.4874  123.3627   62.8290 H   0  0  0  0  0  0  0  0  0  0  0  0
  129.3205  121.9727   61.6909 H   0  0  0  0  0  0  0  0  0  0  0  0
  129.7710  126.2120   58.5900 H   0  0  0  0  0  0  0  0  0  0  0  0
  132.8114  127.1184   58.0029 H   0  0  0  0  0  0  0  0  0  0  0  0
  133.5111  125.8964   56.8876 H   0  0  0  0  0  0  0  0  0  0  0  0
  131.7412  126.2032   56.8876 H   0  0  0  0  0  0  0  0  0  0  0  0
  134.4997  124.4056   58.3907 H   0  0  0  0  0  0  0  0  0  0  0  0
  134.3343  122.6344   60.0928 H   0  0  0  0  0  0  0  0  0  0  0  0
  132.2028  122.2235   61.3156 H   0  0  0  0  0  0  0  0  0  0  0  0
  1  2  2  0
  2  3  1  0
  3  4  1  0
  4  5  1  0
  5  6  1  0
  6  7  1  0
  7  8  1  0
  8  9  1  0
  9 10  1  0
  8 11  1  0
 11 12  1  0
 11 13  1  0
 13 14  1  0
 13 15  1  0
 15 16  1  0
  4 17  1  0
 17 18  1  0
 18 19  2  0
 19 20  1  0
 20 21  2  0
 20 22  1  0
 22 23  1  0
 19 24  1  0
 24 25  1  0
 25 26  1  0
 26 27  1  0
 27 28  1  0
 28 29  1  0
 29 30  1  0
 30 31  2  0
 31 32  1  0
 32 33  1  0
 33 34  2  0
 34 35  1  0
 34 36  1  0
 36 37  2  0
 37 38  1  0
 38 39  2  0
 24  3  1  0
 31 26  1  0
 39 33  1  0
 15  6  1  0
 39 30  1  0
  1 40  1  0
  1 41  1  0
  2 42  1  0
  3 43  1  6
  4 44  1  1
  6 45  1  6
  8 46  1  6
  9 47  1  0
  9 48  1  0
 10 49  1  0
 11 50  1  1
 12 51  1  0
 13 52  1  1
 14 53  1  0
 15 54  1  1
 16 55  1  0
 18 56  1  0
 23 57  1  0
 23 58  1  0
 23 59  1  0
 24 60  1  6
 25 61  1  0
 25 62  1  0
 26 63  1  6
 27 64  1  0
 27 65  1  0
 28 66  1  0
 28 67  1  0
 29 68  1  0
 29 69  1  0
 32 70  1  0
 35 71  1  0
 35 72  1  0
 35 73  1  0
 36 74  1  0
 37 75  1  0
 38 76  1  0
M  CHG  1  27   1
M  END
>  <Binding energies>  (1) 
[-7.16]

>  <Ligand effiencies>  (1) 
[-0.15565217391304348]

>  <Interactions>  (1) 
["V-A:ILE:369:CG2:3237, V-A:ASP:366:CA:3210, V-B:PRO:540:CA:9855, V-A:ILE:369:CB:3236, H-A:ALA:541:N:4891, V-A:PRO:540:C:4881, H-A:ASN:362:O:3173, V-B:ASP:366:CG:8184, H-A:TYR:531:OH:4795, V-B:TYR:539:CE2:9848, V-A:ASP:366:CG:3213, V-A:LEU:363:CD1:3189, V-B:TYR:539:CZ:9849, H-B:GLU:543:OE1:9881, V-A:TYR:531:CE2:4793, H-B:ASP:366:OD1:8185, V-A:ILE:369:CD1:3239, V-A:ASP:366:C:3208, V-B:TYR:539:CD2:9846, V-A:TYR:531:CZ:4794, V-B:GLU:543:CD:9880, H-B:TYR:531:OH:9767, V-A:ASP:366:CB:3212, H-A:LEU:363:N:3186, H-A:GLU:543:OE1:4909, V-A:PRO:540:CB:4885, V-A:PRO:540:CA:4883, V-A:LEU:363:CA:3185, H-A:ASP:366:OD2:3215, V-B:TYR:539:CE1:9847"]

$$$$
ZINC29126524
     RDKit          3D

 66 70  0  0  0  0  0  0  0  0999 V2000
  128.0360  123.5720   62.2830 C   0  0  0  0  0  0  0  0  0  0  0  0
  128.2190  124.8540   61.4770 C   0  0  0  0  0  0  0  0  0  0  0  0
  128.0150  124.8100   60.0950 C   0  0  0  0  0  0  0  0  0  0  0  0
  128.1690  125.9540   59.3150 C   0  0  0  0  0  0  0  0  0  0  0  0
  128.5330  127.1700   59.9110 C   0  0  0  0  0  0  0  0  0  0  0  0
  128.6900  128.3840   59.2150 N   0  0  0  0  0  0  0  0  0  0  0  0
  127.9530  128.8950   58.2010 C   0  0  0  0  0  0  0  0  0  0  0  0
  127.0110  128.3130   57.6620 O   0  0  0  0  0  0  0  0  0  0  0  0
  128.3850  130.2580   57.7010 C   0  0  0  0  0  0  0  0  0  0  0  0
  127.4370  131.1360   57.1550 C   0  0  0  0  0  0  0  0  0  0  0  0
  127.8130  132.3980   56.6980 C   0  0  0  0  0  0  0  0  0  0  0  0
  129.1430  132.8030   56.7800 C   0  0  0  0  0  0  0  0  0  0  0  0
  130.1110  131.9510   57.3230 C   0  0  0  0  0  0  0  0  0  0  0  0
  131.5720  132.3870   57.4190 C   0  0  0  0  0  0  0  0  0  0  0  0
  131.6990  133.7140   57.3510 F   0  0  0  0  0  0  0  0  0  0  0  0
  132.0700  131.9760   58.5840 F   0  0  0  0  0  0  0  0  0  0  0  0
  132.2970  131.8540   56.4340 F   0  0  0  0  0  0  0  0  0  0  0  0
  129.7230  130.6850   57.7820 C   0  0  0  0  0  0  0  0  0  0  0  0
  128.7250  127.2190   61.2940 C   0  0  0  0  0  0  0  0  0  0  0  0
  128.5870  126.0670   62.0880 C   0  0  0  0  0  0  0  0  0  0  0  0
  128.7730  126.0700   63.4870 N   0  0  0  0  0  0  0  0  0  0  0  0
  129.6310  125.3490   64.2460 C   0  0  0  0  0  0  0  0  0  0  0  0
  130.4120  124.5060   63.7990 O   0  0  0  0  0  0  0  0  0  0  0  0
  129.5510  125.5940   65.7400 C   0  0  0  0  0  0  0  0  0  0  0  0
  129.8340  124.5430   66.6270 C   0  0  0  0  0  0  0  0  0  0  0  0
  129.7740  124.7010   68.0120 C   0  0  0  0  0  0  0  0  0  0  0  0
  129.4190  125.9550   68.5260 C   0  0  0  0  0  0  0  0  0  0  0  0
  129.3180  126.2530   69.8460 N   0  0  0  0  0  0  0  0  0  0  0  0
  128.9680  127.5010   70.0470 C   0  0  0  0  0  0  0  0  0  0  0  0
  128.7670  128.1780   71.2210 N   0  0  0  0  0  0  0  0  0  0  0  0
  128.8610  127.6980   72.4110 C   0  0  0  0  0  0  0  0  0  0  0  0
  129.1210  126.5640   72.8470 O   0  0  0  0  0  0  0  0  0  0  0  0
  128.6570  128.4090   73.5810 N   0  0  0  0  0  0  0  0  0  0  0  0
  128.3400  129.8380   73.6330 C   0  0  0  0  0  0  0  0  0  0  0  0
  127.6570  130.2860   74.9500 C   0  0  0  0  0  0  0  0  0  0  0  0
  128.6600  131.1880   75.6710 C   0  0  0  0  0  0  0  0  0  0  0  0
  129.4600  131.8270   74.5410 C   0  0  0  0  0  0  0  0  0  0  0  0
  129.6180  130.6970   73.5210 C   0  0  0  0  0  0  0  0  0  0  0  0
  128.7340  128.4470   68.5910 S   0  0  0  0  0  0  0  0  0  0  0  0
  129.1370  127.0240   67.6430 C   0  0  0  0  0  0  0  0  0  0  0  0
  129.2020  126.8570   66.2540 C   0  0  0  0  0  0  0  0  0  0  0  0
  128.0695  123.8063   63.3572 H   0  0  0  0  0  0  0  0  0  0  0  0
  127.0642  123.1195   62.0365 H   0  0  0  0  0  0  0  0  0  0  0  0
  128.8424  122.8657   62.0365 H   0  0  0  0  0  0  0  0  0  0  0  0
  127.7295  123.8610   59.6176 H   0  0  0  0  0  0  0  0  0  0  0  0
  128.0046  125.9033   58.2285 H   0  0  0  0  0  0  0  0  0  0  0  0
  129.4860  128.9300   59.5080 H   0  0  0  0  0  0  0  0  0  0  0  0
  126.3842  130.8248   57.0867 H   0  0  0  0  0  0  0  0  0  0  0  0
  127.0581  133.0751   56.2719 H   0  0  0  0  0  0  0  0  0  0  0  0
  129.4343  133.7991   56.4155 H   0  0  0  0  0  0  0  0  0  0  0  0
  130.4789  130.0125   58.2137 H   0  0  0  0  0  0  0  0  0  0  0  0
  128.9886  128.1751   61.7697 H   0  0  0  0  0  0  0  0  0  0  0  0
  128.1210  126.6520   63.9920 H   0  0  0  0  0  0  0  0  0  0  0  0
  130.1125  123.5615   66.2159 H   0  0  0  0  0  0  0  0  0  0  0  0
  130.0002  123.8605   68.6847 H   0  0  0  0  0  0  0  0  0  0  0  0
  129.1380  128.0630   74.3970 H   0  0  0  0  0  0  0  0  0  0  0  0
  127.6522  129.9864   72.7875 H   0  0  0  0  0  0  0  0  0  0  0  0
  126.7343  130.8428   74.7298 H   0  0  0  0  0  0  0  0  0  0  0  0
  127.3807  129.4207   75.5705 H   0  0  0  0  0  0  0  0  0  0  0  0
  128.1403  131.9547   76.2643 H   0  0  0  0  0  0  0  0  0  0  0  0
  129.2947  130.6345   76.3787 H   0  0  0  0  0  0  0  0  0  0  0  0
  128.9125  132.6753   74.1043 H   0  0  0  0  0  0  0  0  0  0  0  0
  130.4249  132.2325   74.8795 H   0  0  0  0  0  0  0  0  0  0  0  0
  129.7130  131.1096   72.5057 H   0  0  0  0  0  0  0  0  0  0  0  0
  130.5215  130.1012   73.7178 H   0  0  0  0  0  0  0  0  0  0  0  0
  128.9845  127.6968   65.5777 H   0  0  0  0  0  0  0  0  0  0  0  0
  1  2  1  0
  2  3  2  0
  3  4  1  0
  4  5  2  0
  5  6  1  0
  6  7  1  0
  7  8  2  0
  7  9  1  0
  9 10  2  0
 10 11  1  0
 11 12  2  0
 12 13  1  0
 13 14  1  0
 14 15  1  0
 14 16  1  0
 14 17  1  0
 13 18  2  0
  5 19  1  0
 19 20  2  0
 20 21  1  0
 21 22  1  0
 22 23  2  0
 22 24  1  0
 24 25  2  0
 25 26  1  0
 26 27  2  0
 27 28  1  0
 28 29  2  0
 29 30  1  0
 30 31  2  0
 31 32  1  0
 31 33  1  0
 33 34  1  0
 34 35  1  0
 35 36  1  0
 36 37  1  0
 37 38  1  0
 29 39  1  0
 39 40  1  0
 40 41  2  0
 20  2  1  0
 41 24  1  0
 18  9  1  0
 40 27  1  0
 38 34  1  0
  1 42  1  0
  1 43  1  0
  1 44  1  0
  3 45  1  0
  4 46  1  0
  6 47  1  0
 10 48  1  0
 11 49  1  0
 12 50  1  0
 18 51  1  0
 19 52  1  0
 21 53  1  0
 25 54  1  0
 26 55  1  0
 33 56  1  0
 34 57  1  0
 35 58  1  0
 35 59  1  0
 36 60  1  0
 36 61  1  0
 37 62  1  0
 37 63  1  0
 38 64  1  0
 38 65  1  0
 41 66  1  0
M  CHG  1  32  -1
M  END
>  <Binding energies>  (1) 
[-7.01]

>  <Ligand effiencies>  (1) 
[-0.1593181818181818]

>  <Interactions>  (1) 
["V-A:PRO:540:CG:4886, V-B:GLU:543:C:9874, V-B:HIS:456:CD2:9039, V-B:GLU:543:CB:9878, H-B:LYS:547:NZ:9923, V-A:ILE:538:CB:4862, V-A:TYR:484:CE2:4346, V-B:GLU:543:CG:9879, V-A:TYR:539:CE2:4876, V-A:TYR:539:CD1:4873, V-A:LEU:363:CD1:3189, H-B:GLU:543:OE1:9881, V-A:TYR:539:CZ:4877, V-A:TYR:531:CE2:4793, V-A:TYR:539:CA:4869, V-A:TYR:484:CZ:4347, V-A:GLU:543:CD:4908, V-B:HIS:456:CE1:9041, V-B:GLU:543:CA:9876, V-A:HIS:456:CE1:4070, V-B:GLU:543:CD:9880, V-B:HIS:456:CG:9037, V-A:MET:535:CE:4835, V-A:TYR:539:C:4867, H-B:TYR:531:OH:9767, V-A:GLU:543:CB:4906, V-A:PRO:540:N:4884, H-B:GLU:543:OE2:9882, V-A:PRO:540:CB:4885, V-A:PRO:540:CA:4883, V-A:LYS:547:CE:4950, V-A:PRO:540:CD:4887, V-A:TYR:539:CE1:4875"]

$$$$
ZINC29126524-again1
     RDKit          3D

 67 71  0  0  0  0  0  0  0  0999 V2000
  128.2350  128.7300   60.7070 C   0  0  0  0  0  0  0  0  0  0  0  0
  128.7360  127.2950   60.8270 C   0  0  0  0  0  0  0  0  0  0  0  0
  128.9150  126.5460   59.6600 C   0  0  0  0  0  0  0  0  0  0  0  0
  129.3720  125.2310   59.7230 C   0  0  0  0  0  0  0  0  0  0  0  0
  129.6420  124.6340   60.9540 C   0  0  0  0  0  0  0  0  0  0  0  0
  130.0920  123.3010   60.9160 N   0  0  0  0  0  0  0  0  0  0  0  0
  129.3710  122.1560   60.8900 C   0  0  0  0  0  0  0  0  0  0  0  0
  128.1410  122.1080   60.8300 O   0  0  0  0  0  0  0  0  0  0  0  0
  130.1780  120.8750   60.8810 C   0  0  0  0  0  0  0  0  0  0  0  0
  129.8250  119.7750   61.6790 C   0  0  0  0  0  0  0  0  0  0  0  0
  130.5810  118.6050   61.6530 C   0  0  0  0  0  0  0  0  0  0  0  0
  131.7000  118.5130   60.8270 C   0  0  0  0  0  0  0  0  0  0  0  0
  132.0700  119.5910   60.0170 C   0  0  0  0  0  0  0  0  0  0  0  0
  133.2920  119.5070   59.1020 C   0  0  0  0  0  0  0  0  0  0  0  0
  133.1980  120.3370   58.0610 F   0  0  0  0  0  0  0  0  0  0  0  0
  134.4030  119.8130   59.7730 F   0  0  0  0  0  0  0  0  0  0  0  0
  133.4030  118.2630   58.6360 F   0  0  0  0  0  0  0  0  0  0  0  0
  131.3050  120.7630   60.0500 C   0  0  0  0  0  0  0  0  0  0  0  0
  129.4830  125.3870   62.1290 C   0  0  0  0  0  0  0  0  0  0  0  0
  129.0360  126.7190   62.0750 C   0  0  0  0  0  0  0  0  0  0  0  0
  128.8370  127.4940   63.2370 N   0  0  0  0  0  0  0  0  0  0  0  0
  129.1200  127.1720   64.5200 C   0  0  0  0  0  0  0  0  0  0  0  0
  129.6960  126.1370   64.8620 O   0  0  0  0  0  0  0  0  0  0  0  0
  128.7270  128.2030   65.5570 C   0  0  0  0  0  0  0  0  0  0  0  0
  127.6550  129.0700   65.2950 C   0  0  0  0  0  0  0  0  0  0  0  0
  127.2540  130.0520   66.2010 C   0  0  0  0  0  0  0  0  0  0  0  0
  127.9550  130.1730   67.4070 C   0  0  0  0  0  0  0  0  0  0  0  0
  127.6870  131.0890   68.3750 N   0  0  0  0  0  0  0  0  0  0  0  0
  128.5150  130.9720   69.3830 C   0  0  0  0  0  0  0  0  0  0  0  0
  128.5480  131.7430   70.5360 N   0  0  0  0  0  0  0  0  0  0  0  0
  128.7600  131.3030   71.7950 C   0  0  0  0  0  0  0  0  0  0  0  0
  129.0030  130.1380   72.1150 O   0  0  0  0  0  0  0  0  0  0  0  0
  128.6700  132.3150   72.6740 N   0  0  0  0  0  0  0  0  0  0  0  0
  128.8520  132.1950   74.1240 C   0  0  0  0  0  0  0  0  0  0  0  0
  128.3360  130.8680   74.7210 C   0  0  0  0  0  0  0  0  0  0  0  0
  129.2760  130.5030   75.8830 C   0  0  0  0  0  0  0  0  0  0  0  0
  130.3960  131.5510   75.8780 C   0  0  0  0  0  0  0  0  0  0  0  0
  130.3420  132.1820   74.4880 C   0  0  0  0  0  0  0  0  0  0  0  0
  129.7130  129.7060   69.2590 S   0  0  0  0  0  0  0  0  0  0  0  0
  129.0410  129.3030   67.6840 C   0  0  0  0  0  0  0  0  0  0  0  0
  129.4310  128.3160   66.7700 C   0  0  0  0  0  0  0  0  0  0  0  0
  128.0876  129.1522   61.7120 H   0  0  0  0  0  0  0  0  0  0  0  0
  128.9759  129.3326   60.1612 H   0  0  0  0  0  0  0  0  0  0  0  0
  127.2800  128.7405   60.1612 H   0  0  0  0  0  0  0  0  0  0  0  0
  128.6929  126.9992   58.6826 H   0  0  0  0  0  0  0  0  0  0  0  0
  129.5209  124.6597   58.7948 H   0  0  0  0  0  0  0  0  0  0  0  0
  131.0940  123.1980   60.8690 H   0  0  0  0  0  0  0  0  0  0  0  0
  128.9419  119.8377   62.3319 H   0  0  0  0  0  0  0  0  0  0  0  0
  130.2942  117.7521   62.2857 H   0  0  0  0  0  0  0  0  0  0  0  0
  132.2949  117.5878   60.8123 H   0  0  0  0  0  0  0  0  0  0  0  0
  131.5920  121.6126   59.4129 H   0  0  0  0  0  0  0  0  0  0  0  0
  129.7109  124.9292   63.1029 H   0  0  0  0  0  0  0  0  0  0  0  0
  128.4910  128.4260   63.0700 H   0  0  0  0  0  0  0  0  0  0  0  0
  127.1126  128.9719   64.3430 H   0  0  0  0  0  0  0  0  0  0  0  0
  126.4069  130.7158   65.9733 H   0  0  0  0  0  0  0  0  0  0  0  0
  128.3640  132.7280   70.4120 H   0  0  0  0  0  0  0  0  0  0  0  0
  128.2790  133.1870   72.3520 H   0  0  0  0  0  0  0  0  0  0  0  0
  128.2917  133.0536   74.5225 H   0  0  0  0  0  0  0  0  0  0  0  0
  127.3082  130.9948   75.0919 H   0  0  0  0  0  0  0  0  0  0  0  0
  128.3243  130.0733   73.9606 H   0  0  0  0  0  0  0  0  0  0  0  0
  128.7306  130.5334   76.8378 H   0  0  0  0  0  0  0  0  0  0  0  0
  129.6798  129.4865   75.7657 H   0  0  0  0  0  0  0  0  0  0  0  0
  130.2185  132.3100   76.6541 H   0  0  0  0  0  0  0  0  0  0  0  0
  131.3790  131.1057   76.0913 H   0  0  0  0  0  0  0  0  0  0  0  0
  130.7447  133.2054   74.5106 H   0  0  0  0  0  0  0  0  0  0  0  0
  130.9447  131.6260   73.7548 H   0  0  0  0  0  0  0  0  0  0  0  0
  130.2709  127.6426   66.9960 H   0  0  0  0  0  0  0  0  0  0  0  0
  1  2  1  0
  2  3  2  0
  3  4  1  0
  4  5  2  0
  5  6  1  0
  6  7  1  0
  7  8  2  0
  7  9  1  0
  9 10  2  0
 10 11  1  0
 11 12  2  0
 12 13  1  0
 13 14  1  0
 14 15  1  0
 14 16  1  0
 14 17  1  0
 13 18  2  0
  5 19  1  0
 19 20  2  0
 20 21  1  0
 21 22  1  0
 22 23  2  0
 22 24  1  0
 24 25  2  0
 25 26  1  0
 26 27  2  0
 27 28  1  0
 28 29  2  0
 29 30  1  0
 30 31  1  0
 31 32  2  0
 31 33  1  0
 33 34  1  0
 34 35  1  0
 35 36  1  0
 36 37  1  0
 37 38  1  0
 29 39  1  0
 39 40  1  0
 40 41  2  0
 20  2  1  0
 41 24  1  0
 18  9  1  0
 40 27  1  0
 38 34  1  0
  1 42  1  0
  1 43  1  0
  1 44  1  0
  3 45  1  0
  4 46  1  0
  6 47  1  0
 10 48  1  0
 11 49  1  0
 12 50  1  0
 18 51  1  0
 19 52  1  0
 21 53  1  0
 25 54  1  0
 26 55  1  0
 30 56  1  0
 33 57  1  0
 34 58  1  0
 35 59  1  0
 35 60  1  0
 36 61  1  0
 36 62  1  0
 37 63  1  0
 37 64  1  0
 38 65  1  0
 38 66  1  0
 41 67  1  0
M  END
>  <Binding energies>  (1) 
[61.92]

>  <Ligand effiencies>  (1) 
[1.3760000000000001]

>  <Interactions>  (1) 
["V-A:ILE:369:CG2:3237, V-A:GLU:543:CA:4904, V-B:HIS:456:CD2:9039, V-A:ILE:369:CB:3236, V-A:GLU:543:C:4902, V-B:ALA:541:CB:9864, V-B:TYR:539:CE2:9848, V-A:LEU:475:CG:4257, V-B:GLU:543:CG:9879, V-B:TYR:484:CE2:9317, V-B:TYR:539:CZ:9849, H-B:ALA:541:N:9863, V-A:LYS:547:CD:4949, V-A:LEU:475:CD1:4258, V-A:GLU:543:CD:4908, V-B:TYR:484:CB:9312, H-B:TYR:484:OH:9319, V-B:TYR:484:CD1:9314, V-B:HIS:456:CE1:9041, V-A:SER:385:C:3405, V-A:HIS:383:CG:3390, V-B:TYR:484:CZ:9318, H-B:HIS:456:NE2:9042, V-B:TYR:484:CG:9313, V-B:TYR:484:CD2:9315, V-B:TYR:539:CD2:9846, V-A:GLU:543:CG:4907, V-A:SER:385:CB:3409, V-B:GLU:543:CD:9880, V-B:HIS:456:CG:9037, V-A:LEU:475:CD2:4259, H-A:GLU:543:OE1:4909, V-B:TYR:539:CG:9844, V-A:GLU:543:CB:4906, V-A:HIS:383:CD2:3392, V-A:LYS:547:CE:4950, V-A:SER:385:CA:3407, V-A:HIS:383:NE2:3394, V-B:TYR:484:CE1:9316, H-A:GLU:543:O:4903"]

$$$$
ZINC2914228
     RDKit          3D

 47 49  0  0  0  0  0  0  0  0999 V2000
  128.6940  122.4020   60.2820 C   0  0  0  0  0  0  0  0  0  0  0  0
  129.1130  121.4400   61.3970 C   0  0  0  0  0  0  0  0  0  0  0  0
  130.5340  121.4590   61.5050 O   0  0  0  0  0  0  0  0  0  0  0  0
  131.1420  122.3570   62.3630 C   0  0  0  0  0  0  0  0  0  0  0  0
  130.5560  122.8270   63.5510 C   0  0  0  0  0  0  0  0  0  0  0  0
  131.2160  123.7510   64.3650 C   0  0  0  0  0  0  0  0  0  0  0  0
  130.5780  124.1950   65.6220 C   0  0  0  0  0  0  0  0  0  0  0  0
  129.8490  125.3200   65.9170 C   0  0  0  0  0  0  0  0  0  0  0  0
  129.4530  125.5090   67.3310 C   0  0  0  0  0  0  0  0  0  0  0  0
  129.5750  124.6030   68.1690 O   0  0  0  0  0  0  0  0  0  0  0  0
  128.9300  126.7570   67.6570 N   0  0  0  0  0  0  0  0  0  0  0  0
  128.6440  126.9600   69.0360 C   0  0  0  0  0  0  0  0  0  0  0  0
  127.3460  126.7520   69.5240 C   0  0  0  0  0  0  0  0  0  0  0  0
  127.0660  126.9660   70.8740 C   0  0  0  0  0  0  0  0  0  0  0  0
  128.0740  127.3910   71.7390 C   0  0  0  0  0  0  0  0  0  0  0  0
  129.3670  127.6030   71.2580 C   0  0  0  0  0  0  0  0  0  0  0  0
  130.6110  128.1300   72.3310 Cl  0  0  0  0  0  0  0  0  0  0  0  0
  129.6540  127.3890   69.9090 C   0  0  0  0  0  0  0  0  0  0  0  0
  128.6800  127.7550   66.7020 C   0  0  0  0  0  0  0  0  0  0  0  0
  128.0810  129.2870   67.0370 S   0  0  0  0  0  0  0  0  0  0  0  0
  128.9140  127.4690   65.3630 N   0  0  0  0  0  0  0  0  0  0  0  0
  129.4350  126.3730   64.9700 C   0  0  0  0  0  0  0  0  0  0  0  0
  129.4850  126.2240   63.7380 O   0  0  0  0  0  0  0  0  0  0  0  0
  132.4900  124.1920   63.9990 C   0  0  0  0  0  0  0  0  0  0  0  0
  133.0870  123.7370   62.8260 C   0  0  0  0  0  0  0  0  0  0  0  0
  134.8190  124.3760   62.3530 Br  0  0  0  0  0  0  0  0  0  0  0  0
  132.4190  122.8190   62.0100 C   0  0  0  0  0  0  0  0  0  0  0  0
  133.0180  122.3810   60.8520 O   0  0  0  0  0  0  0  0  0  0  0  0
  133.4910  121.0400   60.9050 C   0  0  0  0  0  0  0  0  0  0  0  0
  132.8040  120.2320   59.8010 C   0  0  0  0  0  0  0  0  0  0  0  0
  128.2921  123.3248   60.7257 H   0  0  0  0  0  0  0  0  0  0  0  0
  129.5679  122.6448   59.6596 H   0  0  0  0  0  0  0  0  0  0  0  0
  127.9210  121.9275   59.6596 H   0  0  0  0  0  0  0  0  0  0  0  0
  128.6648  121.7592   62.3495 H   0  0  0  0  0  0  0  0  0  0  0  0
  128.7678  120.4219   61.1638 H   0  0  0  0  0  0  0  0  0  0  0  0
  129.5611  122.4612   63.8448 H   0  0  0  0  0  0  0  0  0  0  0  0
  130.7103  123.5042   66.4677 H   0  0  0  0  0  0  0  0  0  0  0  0
  126.5487  126.4202   68.8427 H   0  0  0  0  0  0  0  0  0  0  0  0
  126.0483  126.7992   71.2568 H   0  0  0  0  0  0  0  0  0  0  0  0
  127.8496  127.5595   72.8026 H   0  0  0  0  0  0  0  0  0  0  0  0
  130.6731  127.5570   69.5304 H   0  0  0  0  0  0  0  0  0  0  0  0
  133.0262  124.9047   64.6428 H   0  0  0  0  0  0  0  0  0  0  0  0
  134.5801  121.0255   60.7509 H   0  0  0  0  0  0  0  0  0  0  0  0
  133.2626  120.6011   61.8874 H   0  0  0  0  0  0  0  0  0  0  0  0
  132.1550  119.4687   60.2551 H   0  0  0  0  0  0  0  0  0  0  0  0
  132.1974  120.9051   59.1773 H   0  0  0  0  0  0  0  0  0  0  0  0
  133.5659  119.7416   59.1773 H   0  0  0  0  0  0  0  0  0  0  0  0
  1  2  1  0
  2  3  1  0
  3  4  1  0
  4  5  2  0
  5  6  1  0
  6  7  1  0
  7  8  2  0
  8  9  1  0
  9 10  2  0
  9 11  1  0
 11 12  1  0
 12 13  2  0
 13 14  1  0
 14 15  2  0
 15 16  1  0
 16 17  1  0
 16 18  2  0
 11 19  1  0
 19 20  2  0
 19 21  1  0
 21 22  2  0
 22 23  1  0
  6 24  2  0
 24 25  1  0
 25 26  1  0
 25 27  2  0
 27 28  1  0
 28 29  1  0
 29 30  1  0
 27  4  1  0
 22  8  1  0
 18 12  1  0
  1 31  1  0
  1 32  1  0
  1 33  1  0
  2 34  1  0
  2 35  1  0
  5 36  1  0
  7 37  1  0
 13 38  1  0
 14 39  1  0
 15 40  1  0
 18 41  1  0
 24 42  1  0
 29 43  1  0
 29 44  1  0
 30 45  1  0
 30 46  1  0
 30 47  1  0
M  CHG  1  23  -1
M  END
>  <Binding energies>  (1) 
[-6.22]

>  <Ligand effiencies>  (1) 
[-0.20733333333333331]

>  <Interactions>  (1) 
["V-A:ILE:369:CG2:3237, V-B:PRO:540:CA:9855, V-B:GLU:543:C:9874, V-B:HIS:456:CD2:9039, V-B:GLU:543:CB:9878, V-B:ALA:541:CB:9864, V-B:TYR:539:CE2:9848, V-A:TYR:484:CE2:4346, V-B:GLU:543:CG:9879, V-A:GLY:544:C:4912, V-B:TYR:539:C:9839, V-A:TYR:484:CZ:4347, V-A:GLU:543:CD:4908, V-B:GLU:543:CA:9876, V-B:HIS:456:CE1:9041, V-A:GLY:453:C:4042, V-A:ILE:369:CD1:3239, V-A:HIS:456:CE1:4070, V-B:TYR:484:CZ:9318, V-B:GLY:544:C:9884, V-B:TYR:539:CD2:9846, V-A:GLU:543:CG:4907, V-A:SER:385:CB:3409, V-B:GLY:544:CA:9886, V-B:GLU:543:CD:9880, V-B:HIS:456:CG:9037, V-A:LEU:475:CD2:4259, V-A:GLU:543:CB:4906, V-A:GLY:453:CA:4044, V-A:SER:385:CA:3407, V-B:PRO:540:C:9853"]

$$$$
ZINC29218468
     RDKit          3D

 29 31  0  0  0  0  0  0  0  0999 V2000
  133.0400  125.0940   64.6000 O   0  0  0  0  0  0  0  0  0  0  0  0
  131.9170  125.3030   65.0540 C   0  0  0  0  0  0  0  0  0  0  0  0
  131.4520  124.9170   66.2470 N   0  0  0  0  0  0  0  0  0  0  0  0
  130.2050  125.2060   66.6340 C   0  0  0  0  0  0  0  0  0  0  0  0
  129.7100  124.8800   67.7120 O   0  0  0  0  0  0  0  0  0  0  0  0
  129.4680  125.9870   65.5460 C   0  0  1  0  0  0  0  0  0  0  0  0
  128.7510  127.5450   66.1630 S   0  0  0  0  0  0  0  0  0  0  0  0
  128.4930  127.4050   67.9090 C   0  0  0  0  0  0  0  0  0  0  0  0
  127.2380  127.0840   68.4250 C   0  0  0  0  0  0  0  0  0  0  0  0
  127.0430  126.9720   69.7980 C   0  0  0  0  0  0  0  0  0  0  0  0
  128.1180  127.1880   70.6950 C   0  0  0  0  0  0  0  0  0  0  0  0
  127.9540  127.0800   72.0980 C   0  0  0  0  0  0  0  0  0  0  0  0
  129.0300  127.3000   72.9570 C   0  0  0  0  0  0  0  0  0  0  0  0
  128.8290  127.1840   74.3090 O   0  0  0  0  0  0  0  0  0  0  0  0
  130.2870  127.6300   72.4430 C   0  0  0  0  0  0  0  0  0  0  0  0
  131.3540  127.8470   73.2790 O   0  0  0  0  0  0  0  0  0  0  0  0
  130.4780  127.7430   71.0670 C   0  0  0  0  0  0  0  0  0  0  0  0
  129.4030  127.5250   70.1710 C   0  0  0  0  0  0  0  0  0  0  0  0
  129.5680  127.6320   68.7670 C   0  0  0  0  0  0  0  0  0  0  0  0
  130.6250  126.2010   64.1810 S   0  0  0  0  0  0  0  0  0  0  0  0
  132.0550  124.3990   66.8680 H   0  0  0  0  0  0  0  0  0  0  0  0
  128.5877  125.4297   65.1933 H   0  0  0  0  0  0  0  0  0  0  0  0
  126.3938  126.9177   67.7397 H   0  0  0  0  0  0  0  0  0  0  0  0
  126.0479  126.7141   70.1895 H   0  0  0  0  0  0  0  0  0  0  0  0
  126.9691  126.8203   72.5133 H   0  0  0  0  0  0  0  0  0  0  0  0
  129.6200  127.3620   74.8240 H   0  0  0  0  0  0  0  0  0  0  0  0
  132.1980  127.6290   72.8770 H   0  0  0  0  0  0  0  0  0  0  0  0
  131.4717  128.0036   70.6737 H   0  0  0  0  0  0  0  0  0  0  0  0
  130.5517  127.8961   68.3515 H   0  0  0  0  0  0  0  0  0  0  0  0
  1  2  2  0
  2  3  1  0
  3  4  1  0
  4  5  2  0
  4  6  1  0
  6  7  1  0
  7  8  1  0
  8  9  2  0
  9 10  1  0
 10 11  2  0
 11 12  1  0
 12 13  2  0
 13 14  1  0
 13 15  1  0
 15 16  1  0
 15 17  2  0
 17 18  1  0
 18 19  2  0
  6 20  1  0
 20  2  1  0
 19  8  1  0
 18 11  1  0
  3 21  1  0
  6 22  1  6
  9 23  1  0
 10 24  1  0
 12 25  1  0
 14 26  1  0
 16 27  1  0
 17 28  1  0
 19 29  1  0
M  END
>  <Binding energies>  (1) 
[-6.35]

>  <Ligand effiencies>  (1) 
[-0.2760869565217391]

>  <Interactions>  (1) 
["V-B:HIS:456:CD2:9039, V-B:GLU:543:C:9874, V-B:GLU:543:CB:9878, H-B:LYS:547:NZ:9923, V-A:TYR:484:CE2:4346, V-B:GLU:543:CG:9879, V-A:GLY:544:C:4912, V-A:HIS:456:CD2:4068, V-A:GLU:543:CD:4908, V-A:TYR:484:CZ:4347, V-B:GLU:543:CA:9876, V-B:HIS:456:CE1:9041, V-A:HIS:456:CE1:4070, V-B:GLY:544:C:9884, V-B:GLU:543:CD:9880, H-A:LYS:547:NZ:4951, H-A:ARG:545:NH2:4928, V-A:ARG:545:CZ:4926, V-A:GLU:543:CB:4906, H-A:ARG:545:NE:4924, H-A:GLY:544:O:4913, H-A:TYR:484:OH:4348"]

$$$$
ZINC29218468-again1
     RDKit          3D

 28 30  0  0  0  0  0  0  0  0999 V2000
  128.3610  125.1290   72.5300 O   0  0  0  0  0  0  0  0  0  0  0  0
  128.8250  126.2640   72.4350 C   0  0  0  0  0  0  0  0  0  0  0  0
  129.0640  127.0920   73.5060 N   0  0  0  0  0  0  0  0  0  0  0  0
  129.5740  128.2020   73.1850 C   0  0  0  0  0  0  0  0  0  0  0  0
  129.8490  129.0810   74.0130 O   0  0  0  0  0  0  0  0  0  0  0  0
  129.9210  128.5020   71.4680 S   0  0  0  0  0  0  0  0  0  0  0  0
  129.1960  126.8980   71.0870 C   0  0  2  0  0  0  0  0  0  0  0  0
  127.7750  126.9850   69.9480 S   0  0  0  0  0  0  0  0  0  0  0  0
  128.3750  126.8840   68.2840 C   0  0  0  0  0  0  0  0  0  0  0  0
  128.0310  127.8510   67.3410 C   0  0  0  0  0  0  0  0  0  0  0  0
  128.5100  127.7700   66.0360 C   0  0  0  0  0  0  0  0  0  0  0  0
  129.3510  126.6980   65.6470 C   0  0  0  0  0  0  0  0  0  0  0  0
  129.8570  126.5880   64.3300 C   0  0  0  0  0  0  0  0  0  0  0  0
  130.6820  125.5220   63.9740 C   0  0  0  0  0  0  0  0  0  0  0  0
  131.1550  125.4530   62.6870 O   0  0  0  0  0  0  0  0  0  0  0  0
  131.0200  124.5450   64.9160 C   0  0  0  0  0  0  0  0  0  0  0  0
  131.8300  123.4910   64.5780 O   0  0  0  0  0  0  0  0  0  0  0  0
  130.5340  124.6280   66.2200 C   0  0  0  0  0  0  0  0  0  0  0  0
  129.6960  125.7020   66.6100 C   0  0  0  0  0  0  0  0  0  0  0  0
  129.1910  125.8120   67.9280 C   0  0  0  0  0  0  0  0  0  0  0  0
  129.9235  126.2801   70.5402 H   0  0  0  0  0  0  0  0  0  0  0  0
  127.3753  128.6855   67.6302 H   0  0  0  0  0  0  0  0  0  0  0  0
  128.2340  128.5424   65.3031 H   0  0  0  0  0  0  0  0  0  0  0  0
  129.5971  127.3502   63.5807 H   0  0  0  0  0  0  0  0  0  0  0  0
  131.7150  124.6900   62.5330 H   0  0  0  0  0  0  0  0  0  0  0  0
  132.1040  122.9690   65.3350 H   0  0  0  0  0  0  0  0  0  0  0  0
  130.8034  123.8529   66.9526 H   0  0  0  0  0  0  0  0  0  0  0  0
  129.4444  125.0462   68.6759 H   0  0  0  0  0  0  0  0  0  0  0  0
  1  2  2  0
  2  3  1  0
  3  4  2  0
  4  5  1  0
  4  6  1  0
  6  7  1  0
  7  8  1  0
  8  9  1  0
  9 10  2  0
 10 11  1  0
 11 12  2  0
 12 13  1  0
 13 14  2  0
 14 15  1  0
 14 16  1  0
 16 17  1  0
 16 18  2  0
 18 19  1  0
 19 20  2  0
  7  2  1  0
 20  9  1  0
 19 12  1  0
  7 21  1  6
 10 22  1  0
 11 23  1  0
 13 24  1  0
 15 25  1  0
 17 26  1  0
 18 27  1  0
 20 28  1  0
M  CHG  1   5  -1
M  END
>  <Binding energies>  (1) 
[-6.86]

>  <Ligand effiencies>  (1) 
[-0.3118181818181818]

>  <Interactions>  (1) 
["V-A:HIS:456:CE1:4070, V-B:GLU:543:C:9874, V-A:HIS:456:CD2:4068, V-B:GLU:543:CB:9878, H-B:LYS:547:NZ:9923, V-A:GLU:543:CG:4907, V-B:GLU:543:CD:9880, V-A:TYR:484:CZ:4347, V-A:TYR:484:CE2:4346, V-A:GLU:543:CD:4908, H-A:LYS:547:NZ:4951, V-B:GLU:543:CG:9879, V-B:HIS:456:CE1:9041, V-B:GLU:543:CA:9876, H-A:TYR:484:OH:4348"]

$$$$
ZINC29553003
     RDKit          3D

 29 31  0  0  0  0  0  0  0  0999 V2000
  133.5680  124.0010   59.2230 C   0  0  0  0  0  0  0  0  0  0  0  0
  132.7050  123.5260   60.4010 C   0  0  2  0  0  0  0  0  0  0  0  0
  131.1990  123.7730   60.1690 C   0  0  0  0  0  0  0  0  0  0  0  0
  130.3320  123.3660   61.3880 C   0  0  1  0  0  0  0  0  0  0  0  0
  128.9590  123.7760   61.2230 N   0  0  0  0  0  0  0  0  0  0  0  0
  128.0790  122.7680   61.1950 C   0  0  0  0  0  0  0  0  0  0  0  0
  126.8530  122.8470   61.2370 O   0  0  0  0  0  0  0  0  0  0  0  0
  128.8230  121.6470   61.2740 N   0  0  0  0  0  0  0  0  0  0  0  0
  130.1390  121.8520   61.4420 C   0  0  0  0  0  0  0  0  0  0  0  0
  131.0160  120.9940   61.5290 O   0  0  0  0  0  0  0  0  0  0  0  0
  130.9870  123.8510   62.6900 C   0  0  0  0  0  0  0  0  0  0  0  0
  130.2810  123.9800   63.8980 C   0  0  0  0  0  0  0  0  0  0  0  0
  130.9150  124.4190   65.0590 C   0  0  0  0  0  0  0  0  0  0  0  0
  130.0340  124.5680   66.5350 Cl  0  0  0  0  0  0  0  0  0  0  0  0
  132.2690  124.7370   65.0140 C   0  0  0  0  0  0  0  0  0  0  0  0
  132.9450  124.6160   63.8540 N   0  0  0  0  0  0  0  0  0  0  0  0
  134.1700  124.9200   63.8590 O   0  0  0  0  0  0  0  0  0  0  0  0
  132.3600  124.1860   62.7050 C   0  0  0  0  0  0  0  0  0  0  0  0
  133.1950  124.1370   61.6000 O   0  0  0  0  0  0  0  0  0  0  0  0
  134.4710  124.4980   59.6070 H   0  0  0  0  0  0  0  0  0  0  0  0
  133.8587  123.1358   58.6091 H   0  0  0  0  0  0  0  0  0  0  0  0
  132.9925  124.7094   58.6091 H   0  0  0  0  0  0  0  0  0  0  0  0
  132.7921  122.4338   60.4988 H   0  0  0  0  0  0  0  0  0  0  0  0
  131.0446  124.8436   59.9689 H   0  0  0  0  0  0  0  0  0  0  0  0
  130.8874  123.1512   59.3168 H   0  0  0  0  0  0  0  0  0  0  0  0
  128.7510  124.6840   60.8340 H   0  0  0  0  0  0  0  0  0  0  0  0
  128.4160  120.7240   61.2570 H   0  0  0  0  0  0  0  0  0  0  0  0
  129.2101  123.7304   63.9279 H   0  0  0  0  0  0  0  0  0  0  0  0
  132.7852  125.0855   65.9207 H   0  0  0  0  0  0  0  0  0  0  0  0
  1  2  1  0
  2  3  1  0
  3  4  1  0
  4  5  1  6
  5  6  1  0
  6  7  2  0
  6  8  1  0
  8  9  1  0
  9 10  2  0
  4 11  1  0
 11 12  2  0
 12 13  1  0
 13 14  1  0
 13 15  2  0
 15 16  1  0
 16 17  1  0
 16 18  2  0
 18 19  1  0
 19  2  1  0
  9  4  1  0
 18 11  1  0
  1 20  1  0
  1 21  1  0
  1 22  1  0
  2 23  1  1
  3 24  1  0
  3 25  1  0
  5 26  1  0
  8 27  1  0
 12 28  1  0
 15 29  1  0
M  CHG  2  16   1  17  -1
M  END
>  <Binding energies>  (1) 
[-5.76]

>  <Ligand effiencies>  (1) 
[-0.2742857142857143]

>  <Interactions>  (1) 
["V-A:ILE:369:CG2:3237, V-A:ASP:366:CA:3210, V-B:PRO:540:CA:9855, V-A:ILE:369:CB:3236, V-B:GLU:543:CB:9878, V-B:ALA:541:CB:9864, H-A:ARG:545:NH1:4927, V-B:TYR:539:CE2:9848, V-A:TYR:484:CE2:4346, V-B:GLU:543:CG:9879, H-B:ALA:541:N:9863, V-A:TYR:484:CZ:4347, V-B:GLU:543:CA:9876, H-A:GLY:454:N:4050, V-A:HIS:456:CE1:4070, V-A:LEU:475:CD2:4259, H-A:ARG:545:NH2:4928, V-A:ARG:545:CZ:4926, H-B:TYR:539:O:9840, H-A:ARG:545:NE:4924, V-B:PRO:540:C:9853"]

$$$$
ZINC2956775
     RDKit          3D

 58 64  0  0  0  0  0  0  0  0999 V2000
  128.3610  132.4540   64.7010 O   0  0  0  0  0  0  0  0  0  0  0  0
  128.8190  132.2710   63.5750 C   0  0  0  0  0  0  0  0  0  0  0  0
  130.0750  131.8640   63.2590 N   0  0  0  0  0  0  0  0  0  0  0  0
  130.2530  131.7600   61.8800 C   0  0  0  0  0  0  0  0  0  0  0  0
  131.3250  131.3880   61.0700 C   0  0  0  0  0  0  0  0  0  0  0  0
  131.1610  131.3940   59.6760 C   0  0  0  0  0  0  0  0  0  0  0  0
  129.9420  131.7640   59.0710 C   0  0  0  0  0  0  0  0  0  0  0  0
  129.8000  131.7530   57.2820 S   0  0  0  0  0  0  0  0  0  0  0  0
  128.3870  131.9450   56.9360 O   0  0  0  0  0  0  0  0  0  0  0  0
  130.8240  132.6470   56.7270 O   0  0  0  0  0  0  0  0  0  0  0  0
  130.2370  130.1050   56.7990 N   0  0  0  0  0  0  0  0  0  0  0  0
  129.5700  128.9820   57.3020 C   0  0  0  0  0  0  0  0  0  0  0  0
  128.4800  128.4170   56.6330 C   0  0  0  0  0  0  0  0  0  0  0  0
  127.8440  127.2970   57.1620 C   0  0  0  0  0  0  0  0  0  0  0  0
  128.2980  126.7320   58.3540 C   0  0  0  0  0  0  0  0  0  0  0  0
  127.6240  125.6100   58.8560 N   0  0  0  0  0  0  0  0  0  0  0  0
  128.3600  123.9950   58.9740 S   0  0  0  0  0  0  0  0  0  0  0  0
  127.2530  123.0410   59.0960 O   0  0  0  0  0  0  0  0  0  0  0  0
  129.3330  123.8780   57.8810 O   0  0  0  0  0  0  0  0  0  0  0  0
  129.2590  123.9200   60.5260 C   0  0  0  0  0  0  0  0  0  0  0  0
  128.5900  123.5620   61.7170 C   0  0  0  0  0  0  0  0  0  0  0  0
  129.2560  123.5040   62.9530 C   0  0  0  0  0  0  0  0  0  0  0  0
  130.6160  123.8010   63.0040 C   0  0  0  0  0  0  0  0  0  0  0  0
  131.2610  124.1350   61.8420 C   0  0  0  0  0  0  0  0  0  0  0  0
  132.5840  124.3800   62.1030 C   0  0  0  0  0  0  0  0  0  0  0  0
  133.4260  124.7310   61.0490 C   0  0  0  0  0  0  0  0  0  0  0  0
  132.8910  124.8210   59.7540 C   0  0  0  0  0  0  0  0  0  0  0  0
  131.5300  124.5650   59.5020 C   0  0  0  0  0  0  0  0  0  0  0  0
  130.6590  124.2100   60.5740 C   0  0  0  0  0  0  0  0  0  0  0  0
  132.7890  124.1840   63.5740 C   0  0  0  0  0  0  0  0  0  0  0  0
  133.8190  124.3020   64.2350 O   0  0  0  0  0  0  0  0  0  0  0  0
  131.5580  123.8390   64.0320 N   0  0  0  0  0  0  0  0  0  0  0  0
  129.3880  127.2970   59.0220 C   0  0  0  0  0  0  0  0  0  0  0  0
  130.0230  128.4180   58.4940 C   0  0  0  0  0  0  0  0  0  0  0  0
  128.8370  132.1420   59.8980 C   0  0  0  0  0  0  0  0  0  0  0  0
  127.5230  132.5330   59.5060 C   0  0  0  0  0  0  0  0  0  0  0  0
  126.5660  132.8680   60.4810 C   0  0  0  0  0  0  0  0  0  0  0  0
  126.8680  132.8250   61.8510 C   0  0  0  0  0  0  0  0  0  0  0  0
  128.1480  132.4380   62.2460 C   0  0  0  0  0  0  0  0  0  0  0  0
  129.0700  132.1160   61.2850 C   0  0  0  0  0  0  0  0  0  0  0  0
  130.7870  131.6620   63.9440 H   0  0  0  0  0  0  0  0  0  0  0  0
  132.2860  131.0939   61.5172 H   0  0  0  0  0  0  0  0  0  0  0  0
  132.0075  131.1018   59.0372 H   0  0  0  0  0  0  0  0  0  0  0  0
  131.1610  129.9670   56.4170 H   0  0  0  0  0  0  0  0  0  0  0  0
  128.1251  128.8570   55.6894 H   0  0  0  0  0  0  0  0  0  0  0  0
  126.9821  126.8569   56.6391 H   0  0  0  0  0  0  0  0  0  0  0  0
  126.6670  125.7220   59.1610 H   0  0  0  0  0  0  0  0  0  0  0  0
  127.5173  123.3218   61.6760 H   0  0  0  0  0  0  0  0  0  0  0  0
  128.7109  123.2279   63.8677 H   0  0  0  0  0  0  0  0  0  0  0  0
  134.4920  124.9341   61.2289 H   0  0  0  0  0  0  0  0  0  0  0  0
  133.5500  125.0977   58.9179 H   0  0  0  0  0  0  0  0  0  0  0  0
  131.1378  124.6389   58.4770 H   0  0  0  0  0  0  0  0  0  0  0  0
  131.3570  123.6350   64.9990 H   0  0  0  0  0  0  0  0  0  0  0  0
  129.7441  126.8561   59.9647 H   0  0  0  0  0  0  0  0  0  0  0  0
  130.8835  128.8594   59.0181 H   0  0  0  0  0  0  0  0  0  0  0  0
  127.2572  132.5727   58.4393 H   0  0  0  0  0  0  0  0  0  0  0  0
  125.5576  133.1707   60.1624 H   0  0  0  0  0  0  0  0  0  0  0  0
  126.1080  133.0920   62.6001 H   0  0  0  0  0  0  0  0  0  0  0  0
  1  2  2  0
  2  3  1  0
  3  4  1  0
  4  5  2  0
  5  6  1  0
  6  7  2  0
  7  8  1  0
  8  9  2  0
  8 10  2  0
  8 11  1  0
 11 12  1  0
 12 13  2  0
 13 14  1  0
 14 15  2  0
 15 16  1  0
 16 17  1  0
 17 18  2  0
 17 19  2  0
 17 20  1  0
 20 21  2  0
 21 22  1  0
 22 23  2  0
 23 24  1  0
 24 25  2  0
 25 26  1  0
 26 27  2  0
 27 28  1  0
 28 29  2  0
 25 30  1  0
 30 31  2  0
 30 32  1  0
 15 33  1  0
 33 34  2  0
  7 35  1  0
 35 36  2  0
 36 37  1  0
 37 38  2  0
 38 39  1  0
 39 40  2  0
 39  2  1  0
 40  4  1  0
 34 12  1  0
 40 35  1  0
 29 20  1  0
 32 23  1  0
 29 24  1  0
  3 41  1  0
  5 42  1  0
  6 43  1  0
 11 44  1  0
 13 45  1  0
 14 46  1  0
 16 47  1  0
 21 48  1  0
 22 49  1  0
 26 50  1  0
 27 51  1  0
 28 52  1  0
 32 53  1  0
 33 54  1  0
 34 55  1  0
 36 56  1  0
 37 57  1  0
 38 58  1  0
M  END
>  <Binding energies>  (1) 
[-9.91]

>  <Ligand effiencies>  (1) 
[-0.22522727272727272]

>  <Interactions>  (1) 
["H-A:ALA:541:O:4889, H-A:TYR:531:OH:4795, V-B:TYR:539:CE2:9848, V-B:GLU:543:CG:9879, V-A:ASP:366:CG:3213, V-A:TYR:539:CD1:4873, H-B:TYR:539:OH:9850, V-A:ALA:541:CB:4892, V-A:GLU:543:CD:4908, H-B:TYR:484:OH:9319, H-B:ASP:366:OD1:8185, H-A:GLY:454:N:4050, V-A:TYR:531:CZ:4794, V-A:GLU:543:CG:4907, V-A:MET:535:CE:4835, V-A:ASP:366:CB:3212, H-A:GLU:543:OE1:4909, V-A:PRO:540:CB:4885, V-A:PRO:540:CA:4883, V-A:TYR:539:CE1:4875, H-A:TYR:484:OH:4348"]

$$$$
ZINC2956775-again1
     RDKit          3D

 57 63  0  0  0  0  0  0  0  0999 V2000
  128.4460  132.3420   64.3850 O   0  0  0  0  0  0  0  0  0  0  0  0
  129.0480  132.2340   63.3190 C   0  0  0  0  0  0  0  0  0  0  0  0
  130.3090  131.7670   63.1360 N   0  0  0  0  0  0  0  0  0  0  0  0
  130.6770  131.7820   61.7910 C   0  0  0  0  0  0  0  0  0  0  0  0
  131.8300  131.4160   61.1020 C   0  0  0  0  0  0  0  0  0  0  0  0
  131.8700  131.5640   59.7070 C   0  0  0  0  0  0  0  0  0  0  0  0
  130.7730  132.0770   58.9710 C   0  0  0  0  0  0  0  0  0  0  0  0
  130.8150  132.2730   57.1680 S   0  0  0  0  0  0  0  0  0  0  0  0
  130.6760  133.7190   56.9670 O   0  0  0  0  0  0  0  0  0  0  0  0
  132.0860  131.6520   56.7760 O   0  0  0  0  0  0  0  0  0  0  0  0
  129.5590  131.4580   56.6910 N   0  0  0  0  0  0  0  0  0  0  0  0
  129.2690  130.1940   57.1460 C   0  0  0  0  0  0  0  0  0  0  0  0
  130.3110  129.4540   57.7150 C   0  0  0  0  0  0  0  0  0  0  0  0
  130.1050  128.1680   58.2060 C   0  0  0  0  0  0  0  0  0  0  0  0
  128.8410  127.5850   58.1370 C   0  0  0  0  0  0  0  0  0  0  0  0
  128.6850  126.2880   58.6470 N   0  0  0  0  0  0  0  0  0  0  0  0
  130.0190  125.1340   58.8530 S   0  0  0  0  0  0  0  0  0  0  0  0
  129.4450  123.7860   58.7490 O   0  0  0  0  0  0  0  0  0  0  0  0
  131.0860  125.5520   57.9360 O   0  0  0  0  0  0  0  0  0  0  0  0
  130.5890  125.3670   60.5380 C   0  0  0  0  0  0  0  0  0  0  0  0
  129.8190  126.1480   61.4280 C   0  0  0  0  0  0  0  0  0  0  0  0
  130.2190  126.3680   62.7560 C   0  0  0  0  0  0  0  0  0  0  0  0
  131.4070  125.8010   63.2090 C   0  0  0  0  0  0  0  0  0  0  0  0
  132.1480  125.0410   62.3400 C   0  0  0  0  0  0  0  0  0  0  0  0
  133.2680  124.5720   62.9770 C   0  0  0  0  0  0  0  0  0  0  0  0
  134.1610  123.7690   62.2680 C   0  0  0  0  0  0  0  0  0  0  0  0
  133.8810  123.4640   60.9270 C   0  0  0  0  0  0  0  0  0  0  0  0
  132.7260  123.9520   60.2870 C   0  0  0  0  0  0  0  0  0  0  0  0
  131.8090  124.7790   61.0010 C   0  0  0  0  0  0  0  0  0  0  0  0
  133.2280  125.0900   64.3820 C   0  0  0  0  0  0  0  0  0  0  0  0
  134.0300  124.9130   65.2960 O   0  0  0  0  0  0  0  0  0  0  0  0
  132.0810  125.8140   64.4300 N   0  0  0  0  0  0  0  0  0  0  0  0
  127.7860  128.3050   57.5690 C   0  0  0  0  0  0  0  0  0  0  0  0
  128.0010  129.5910   57.0820 C   0  0  0  0  0  0  0  0  0  0  0  0
  129.5870  132.4500   59.6850 C   0  0  0  0  0  0  0  0  0  0  0  0
  128.3710  132.9830   59.1630 C   0  0  0  0  0  0  0  0  0  0  0  0
  127.3050  133.2940   60.0270 C   0  0  0  0  0  0  0  0  0  0  0  0
  127.4030  133.0930   61.4130 C   0  0  0  0  0  0  0  0  0  0  0  0
  128.5860  132.5740   61.9350 C   0  0  0  0  0  0  0  0  0  0  0  0
  129.6170  132.2760   61.0790 C   0  0  0  0  0  0  0  0  0  0  0  0
  130.9040  131.4500   63.8880 H   0  0  0  0  0  0  0  0  0  0  0  0
  132.6992  131.0156   61.6444 H   0  0  0  0  0  0  0  0  0  0  0  0
  132.7829  131.2722   59.1671 H   0  0  0  0  0  0  0  0  0  0  0  0
  131.3154  129.8983   57.7757 H   0  0  0  0  0  0  0  0  0  0  0  0
  130.9426  127.6100   58.6499 H   0  0  0  0  0  0  0  0  0  0  0  0
  127.7560  125.9860   58.8980 H   0  0  0  0  0  0  0  0  0  0  0  0
  128.8801  126.5963   61.0710 H   0  0  0  0  0  0  0  0  0  0  0  0
  129.6016  126.9804   63.4296 H   0  0  0  0  0  0  0  0  0  0  0  0
  135.0696  123.3812   62.7517 H   0  0  0  0  0  0  0  0  0  0  0  0
  134.5801  122.8290   60.3631 H   0  0  0  0  0  0  0  0  0  0  0  0
  132.5305  123.6953   59.2354 H   0  0  0  0  0  0  0  0  0  0  0  0
  131.7590  126.3000   65.2540 H   0  0  0  0  0  0  0  0  0  0  0  0
  126.7844  127.8545   57.5068 H   0  0  0  0  0  0  0  0  0  0  0  0
  127.1618  130.1466   56.6381 H   0  0  0  0  0  0  0  0  0  0  0  0
  128.2664  133.1514   58.0810 H   0  0  0  0  0  0  0  0  0  0  0  0
  126.3744  133.7036   59.6073 H   0  0  0  0  0  0  0  0  0  0  0  0
  126.5605  133.3409   62.0753 H   0  0  0  0  0  0  0  0  0  0  0  0
  1  2  2  0
  2  3  1  0
  3  4  1  0
  4  5  2  0
  5  6  1  0
  6  7  2  0
  7  8  1  0
  8  9  2  0
  8 10  2  0
  8 11  1  0
 11 12  1  0
 12 13  2  0
 13 14  1  0
 14 15  2  0
 15 16  1  0
 16 17  1  0
 17 18  2  0
 17 19  2  0
 17 20  1  0
 20 21  2  0
 21 22  1  0
 22 23  2  0
 23 24  1  0
 24 25  2  0
 25 26  1  0
 26 27  2  0
 27 28  1  0
 28 29  2  0
 25 30  1  0
 30 31  2  0
 30 32  1  0
 15 33  1  0
 33 34  2  0
  7 35  1  0
 35 36  2  0
 36 37  1  0
 37 38  2  0
 38 39  1  0
 39 40  2  0
 39  2  1  0
 40  4  1  0
 34 12  1  0
 40 35  1  0
 29 20  1  0
 32 23  1  0
 29 24  1  0
  3 41  1  0
  5 42  1  0
  6 43  1  0
 13 44  1  0
 14 45  1  0
 16 46  1  0
 21 47  1  0
 22 48  1  0
 26 49  1  0
 27 50  1  0
 28 51  1  0
 32 52  1  0
 33 53  1  0
 34 54  1  0
 36 55  1  0
 37 56  1  0
 38 57  1  0
M  CHG  1  11  -1
M  END
>  <Binding energies>  (1) 
[-10.9]

>  <Ligand effiencies>  (1) 
[-0.2534883720930233]

>  <Interactions>  (1) 
["V-A:ILE:369:CG2:3237, H-A:GLU:543:OE2:4910, H-A:ALA:541:O:4889, H-A:TYR:531:OH:4795, V-B:TYR:539:CE2:9848, V-A:TYR:539:CD1:4873, H-B:TYR:539:OH:9850, V-A:ALA:541:CB:4892, V-A:GLU:543:CD:4908, H-B:TYR:484:OH:9319, H-A:GLY:454:N:4050, V-A:ILE:369:CD1:3239, V-A:GLU:543:CG:4907, V-A:MET:535:CE:4835, V-A:TYR:539:C:4867, H-A:ARG:545:NH2:4928, V-A:ARG:545:CZ:4926, H-A:GLU:543:OE1:4909, V-A:PRO:540:N:4884, H-A:TYR:539:N:4870, V-A:PRO:540:CB:4885, V-A:PRO:540:CA:4883, H-A:ARG:545:NE:4924, V-A:TYR:539:CE1:4875, H-A:TYR:484:OH:4348"]

$$$$
ZINC2958806-again1
     RDKit          3D

 36 38  0  0  0  0  0  0  0  0999 V2000
  128.3320  123.8270   62.7360 C   0  0  0  0  0  0  0  0  0  0  0  0
  129.2960  124.9130   62.2730 C   0  0  0  0  0  0  0  0  0  0  0  0
  129.4030  125.1880   60.9050 C   0  0  0  0  0  0  0  0  0  0  0  0
  130.2730  126.1770   60.4450 C   0  0  0  0  0  0  0  0  0  0  0  0
  130.4050  126.5350   58.5810 Br  0  0  0  0  0  0  0  0  0  0  0  0
  131.0450  126.9020   61.3500 C   0  0  0  0  0  0  0  0  0  0  0  0
  130.9500  126.6410   62.7150 C   0  0  0  0  0  0  0  0  0  0  0  0
  130.0750  125.6510   63.1880 C   0  0  0  0  0  0  0  0  0  0  0  0
  130.0170  125.4020   64.5910 N   0  0  0  0  0  0  0  0  0  0  0  0
  129.4830  126.4310   65.3630 C   0  0  0  0  0  0  0  0  0  0  0  0
  128.9610  127.4380   64.8620 O   0  0  0  0  0  0  0  0  0  0  0  0
  129.5720  126.2440   66.8270 C   0  0  0  0  0  0  0  0  0  0  0  0
  129.4450  127.3650   67.6070 C   0  0  0  0  0  0  0  0  0  0  0  0
  129.6470  127.6060   69.0560 C   0  0  0  0  0  0  0  0  0  0  0  0
  130.8500  128.0870   69.5840 C   0  0  0  0  0  0  0  0  0  0  0  0
  130.9830  128.3270   70.9510 C   0  0  0  0  0  0  0  0  0  0  0  0
  129.9080  128.1050   71.8200 C   0  0  0  0  0  0  0  0  0  0  0  0
  130.0730  128.3390   73.0620 O   0  0  0  0  0  0  0  0  0  0  0  0
  128.6840  127.6410   71.2950 C   0  0  0  0  0  0  0  0  0  0  0  0
  127.2830  127.3460   72.2820 Cl  0  0  0  0  0  0  0  0  0  0  0  0
  128.5680  127.4050   69.9240 C   0  0  0  0  0  0  0  0  0  0  0  0
  129.8350  124.8720   67.2900 C   0  0  0  0  0  0  0  0  0  0  0  0
  129.5300  124.4900   68.4320 O   0  0  0  0  0  0  0  0  0  0  0  0
  130.2420  123.9570   66.4970 N   0  0  0  0  0  0  0  0  0  0  0  0
  130.4430  124.1800   65.1400 C   0  0  0  0  0  0  0  0  0  0  0  0
  131.1450  122.9240   64.2760 S   0  0  0  0  0  0  0  0  0  0  0  0
  128.3092  123.8014   63.8355 H   0  0  0  0  0  0  0  0  0  0  0  0
  127.3238  124.0442   62.3533 H   0  0  0  0  0  0  0  0  0  0  0  0
  128.6672  122.8517   62.3533 H   0  0  0  0  0  0  0  0  0  0  0  0
  128.7955  124.6191   60.1857 H   0  0  0  0  0  0  0  0  0  0  0  0
  131.7305  127.6816   60.9862 H   0  0  0  0  0  0  0  0  0  0  0  0
  131.5639  127.2137   63.4257 H   0  0  0  0  0  0  0  0  0  0  0  0
  129.1323  128.2597   67.0487 H   0  0  0  0  0  0  0  0  0  0  0  0
  131.7005  128.2780   68.9131 H   0  0  0  0  0  0  0  0  0  0  0  0
  131.9403  128.6937   71.3499 H   0  0  0  0  0  0  0  0  0  0  0  0
  127.6082  127.0536   69.5175 H   0  0  0  0  0  0  0  0  0  0  0  0
  1  2  1  0
  2  3  2  0
  3  4  1  0
  4  5  1  0
  4  6  2  0
  6  7  1  0
  7  8  2  0
  8  9  1  0
  9 10  1  0
 10 11  2  0
 10 12  1  0
 12 13  2  0
 13 14  1  0
 14 15  2  0
 15 16  1  0
 16 17  2  0
 17 18  1  0
 17 19  1  0
 19 20  1  0
 19 21  2  0
 12 22  1  0
 22 23  1  0
 22 24  2  0
 24 25  1  0
 25 26  2  0
  8  2  1  0
 25  9  1  0
 21 14  1  0
  1 27  1  0
  1 28  1  0
  1 29  1  0
  3 30  1  0
  6 31  1  0
  7 32  1  0
 13 33  1  0
 15 34  1  0
 16 35  1  0
 21 36  1  0
M  CHG  2  18  -1  23  -1
M  END
>  <Binding energies>  (1) 
[-6.74]

>  <Ligand effiencies>  (1) 
[-0.25923076923076926]

>  <Interactions>  (1) 
["V-A:GLU:543:CA:4904, V-B:HIS:456:CD2:9039, V-A:GLU:543:C:4902, V-B:GLU:543:CB:9878, V-A:TYR:484:CE2:4346, V-A:GLY:544:CA:4914, V-B:GLU:543:CG:9879, V-A:GLY:544:C:4912, V-A:ASP:366:CG:3213, V-A:GLU:543:CD:4908, V-A:TYR:484:CZ:4347, V-B:HIS:456:CE1:9041, V-B:GLU:543:CA:9876, V-A:HIS:456:CE1:4070, V-B:GLY:544:C:9884, V-B:GLU:543:CD:9880, V-B:HIS:456:CG:9037, H-A:LYS:547:NZ:4951, V-A:LEU:475:CD2:4259, V-A:GLU:543:CB:4906, H-A:TYR:484:OH:4348"]

$$$$
ZINC2959893
     RDKit          3D

 49 52  0  0  0  0  0  0  0  0999 V2000
  125.5220  123.9740   60.7280 C   0  0  0  0  0  0  0  0  0  0  0  0
  125.7330  124.0360   59.2130 C   0  0  0  0  0  0  0  0  0  0  0  0
  126.4710  122.8960   58.7960 O   0  0  0  0  0  0  0  0  0  0  0  0
  127.2160  122.9180   57.6670 C   0  0  0  0  0  0  0  0  0  0  0  0
  127.1110  122.0810   56.7640 O   0  0  0  0  0  0  0  0  0  0  0  0
  128.2960  123.9610   57.7010 C   0  0  0  0  0  0  0  0  0  0  0  0
  128.4400  124.7650   56.5570 C   0  0  0  0  0  0  0  0  0  0  0  0
  129.4320  125.7390   56.4810 C   0  0  0  0  0  0  0  0  0  0  0  0
  130.2960  125.9340   57.5520 C   0  0  0  0  0  0  0  0  0  0  0  0
  130.1560  125.1660   58.7040 C   0  0  0  0  0  0  0  0  0  0  0  0
  129.1580  124.1890   58.8060 C   0  0  0  0  0  0  0  0  0  0  0  0
  129.0900  123.5000   60.1340 C   0  0  0  0  0  0  0  0  0  0  0  0
  128.9210  122.1770   60.5150 C   0  0  0  0  0  0  0  0  0  0  0  0
  129.0080  122.1420   61.9050 C   0  0  0  0  0  0  0  0  0  0  0  0
  129.2090  123.4460   62.3430 C   0  0  0  0  0  0  0  0  0  0  0  0
  129.4150  124.0650   63.6470 C   0  0  0  0  0  0  0  0  0  0  0  0
  129.3560  125.3610   64.0910 C   0  0  0  0  0  0  0  0  0  0  0  0
  129.5520  125.5820   65.5350 C   0  0  0  0  0  0  0  0  0  0  0  0
  130.0660  124.7320   66.2760 O   0  0  0  0  0  0  0  0  0  0  0  0
  129.1160  126.8140   65.9940 N   0  0  0  0  0  0  0  0  0  0  0  0
  129.1670  127.0270   67.3970 C   0  0  0  0  0  0  0  0  0  0  0  0
  130.3980  127.2610   68.0220 C   0  0  0  0  0  0  0  0  0  0  0  0
  130.4440  127.4670   69.3990 C   0  0  0  0  0  0  0  0  0  0  0  0
  129.2650  127.4400   70.1430 C   0  0  0  0  0  0  0  0  0  0  0  0
  129.3330  127.7220   72.0230 Br  0  0  0  0  0  0  0  0  0  0  0  0
  128.0380  127.2090   69.5230 C   0  0  0  0  0  0  0  0  0  0  0  0
  127.9850  127.0010   68.1470 C   0  0  0  0  0  0  0  0  0  0  0  0
  128.6460  127.8500   65.1920 C   0  0  0  0  0  0  0  0  0  0  0  0
  128.1540  128.8490   65.7280 O   0  0  0  0  0  0  0  0  0  0  0  0
  128.7790  127.6930   63.8020 N   0  0  0  0  0  0  0  0  0  0  0  0
  129.0720  126.5600   63.2850 C   0  0  0  0  0  0  0  0  0  0  0  0
  129.2230  126.5760   62.0520 O   0  0  0  0  0  0  0  0  0  0  0  0
  129.2930  124.2510   61.2500 O   0  0  0  0  0  0  0  0  0  0  0  0
  126.4562  124.2485   61.2398 H   0  0  0  0  0  0  0  0  0  0  0  0
  124.7259  124.6762   61.0164 H   0  0  0  0  0  0  0  0  0  0  0  0
  125.2323  122.9528   61.0164 H   0  0  0  0  0  0  0  0  0  0  0  0
  124.7569  124.0478   58.7060 H   0  0  0  0  0  0  0  0  0  0  0  0
  126.2882  124.9498   58.9548 H   0  0  0  0  0  0  0  0  0  0  0  0
  127.7569  124.6221   55.7068 H   0  0  0  0  0  0  0  0  0  0  0  0
  129.5318  126.3536   55.5742 H   0  0  0  0  0  0  0  0  0  0  0  0
  131.0889  126.6939   57.4892 H   0  0  0  0  0  0  0  0  0  0  0  0
  130.8411  125.3292   59.5490 H   0  0  0  0  0  0  0  0  0  0  0  0
  128.7508  121.3195   59.8474 H   0  0  0  0  0  0  0  0  0  0  0  0
  128.9317  121.2467   62.5396 H   0  0  0  0  0  0  0  0  0  0  0  0
  129.6703  123.3438   64.4374 H   0  0  0  0  0  0  0  0  0  0  0  0
  131.3240  127.2821   67.4287 H   0  0  0  0  0  0  0  0  0  0  0  0
  131.4072  127.6503   69.8977 H   0  0  0  0  0  0  0  0  0  0  0  0
  127.1138  127.1911   70.1192 H   0  0  0  0  0  0  0  0  0  0  0  0
  127.0199  126.8173   67.6522 H   0  0  0  0  0  0  0  0  0  0  0  0
  1  2  1  0
  2  3  1  0
  3  4  1  0
  4  5  2  0
  4  6  1  0
  6  7  2  0
  7  8  1  0
  8  9  2  0
  9 10  1  0
 10 11  2  0
 11 12  1  0
 12 13  2  0
 13 14  1  0
 14 15  2  0
 15 16  1  0
 16 17  2  0
 17 18  1  0
 18 19  2  0
 18 20  1  0
 20 21  1  0
 21 22  2  0
 22 23  1  0
 23 24  2  0
 24 25  1  0
 24 26  1  0
 26 27  2  0
 20 28  1  0
 28 29  2  0
 28 30  1  0
 30 31  2  0
 31 32  1  0
 15 33  1  0
 11  6  1  0
 33 12  1  0
 31 17  1  0
 27 21  1  0
  1 34  1  0
  1 35  1  0
  1 36  1  0
  2 37  1  0
  2 38  1  0
  7 39  1  0
  8 40  1  0
  9 41  1  0
 10 42  1  0
 13 43  1  0
 14 44  1  0
 16 45  1  0
 22 46  1  0
 23 47  1  0
 26 48  1  0
 27 49  1  0
M  CHG  1  32  -1
M  END
>  <Binding energies>  (1) 
[-6.88]

>  <Ligand effiencies>  (1) 
[-0.2084848484848485]

>  <Interactions>  (1) 
["V-B:PRO:540:CA:9855, V-B:GLU:543:C:9874, V-B:GLU:543:CB:9878, V-B:ALA:541:CB:9864, V-B:TYR:539:CE2:9848, H-B:TYR:539:N:9842, V-B:GLU:543:CG:9879, V-B:TYR:539:C:9839, V-B:TYR:539:CZ:9849, V-A:GLU:543:CD:4908, V-B:PRO:540:CB:9857, V-B:HIS:456:CE1:9041, V-B:PRO:540:N:9856, V-A:HIS:456:CE1:4070, V-B:TYR:539:CD2:9846, V-A:GLU:543:CG:4907, V-B:GLU:543:CD:9880, V-A:GLU:543:CB:4906, V-B:TYR:539:CE1:9847, H-A:TYR:484:OH:4348"]

$$$$
ZINC2960908
     RDKit          3D

 50 52  0  0  0  0  0  0  0  0999 V2000
  129.9720  123.3770   64.5440 C   0  0  0  0  0  0  0  0  0  0  0  0
  129.8900  124.5460   65.1960 C   0  0  0  0  0  0  0  0  0  0  0  0
  130.1390  125.9050   64.5630 C   0  0  0  0  0  0  0  0  0  0  0  0
  129.2720  126.9760   65.1070 N   0  0  0  0  0  0  0  0  0  0  0  0
  128.6550  127.8410   64.2600 C   0  0  0  0  0  0  0  0  0  0  0  0
  128.7460  127.7820   63.0310 O   0  0  0  0  0  0  0  0  0  0  0  0
  127.8790  128.8090   65.0130 C   0  0  0  0  0  0  0  0  0  0  0  0
  127.1490  129.8200   64.4830 C   0  0  0  0  0  0  0  0  0  0  0  0
  127.0190  130.2740   63.0840 C   0  0  0  0  0  0  0  0  0  0  0  0
  127.2830  131.6090   62.7710 C   0  0  0  0  0  0  0  0  0  0  0  0
  127.1860  132.0650   61.4550 C   0  0  0  0  0  0  0  0  0  0  0  0
  127.5230  133.7250   61.1110 Cl  0  0  0  0  0  0  0  0  0  0  0  0
  126.8250  131.1790   60.4310 C   0  0  0  0  0  0  0  0  0  0  0  0
  126.7360  131.6210   59.1330 O   0  0  0  0  0  0  0  0  0  0  0  0
  127.8600  131.2910   58.3230 C   0  0  0  0  0  0  0  0  0  0  0  0
  128.0350  132.3770   57.2560 C   0  0  0  0  0  0  0  0  0  0  0  0
  129.2310  133.1030   57.5270 O   0  0  0  0  0  0  0  0  0  0  0  0
  130.2190  132.5200   58.2970 C   0  0  0  0  0  0  0  0  0  0  0  0
  131.2640  131.9000   57.6090 C   0  0  0  0  0  0  0  0  0  0  0  0
  132.3060  131.2860   58.3010 C   0  0  0  0  0  0  0  0  0  0  0  0
  132.3110  131.2850   59.6940 C   0  0  0  0  0  0  0  0  0  0  0  0
  131.2810  131.8950   60.4120 C   0  0  0  0  0  0  0  0  0  0  0  0
  131.3700  131.8430   61.7890 O   0  0  0  0  0  0  0  0  0  0  0  0
  132.6030  131.4700   62.3930 C   0  0  0  0  0  0  0  0  0  0  0  0
  130.2360  132.5130   59.7030 C   0  0  0  0  0  0  0  0  0  0  0  0
  126.5840  129.8340   60.7360 C   0  0  0  0  0  0  0  0  0  0  0  0
  126.1680  128.7050   59.4940 Cl  0  0  0  0  0  0  0  0  0  0  0  0
  126.6820  129.3880   62.0540 C   0  0  0  0  0  0  0  0  0  0  0  0
  127.9880  128.4480   66.7310 S   0  0  0  0  0  0  0  0  0  0  0  0
  129.0750  127.1190   66.4540 C   0  0  0  0  0  0  0  0  0  0  0  0
  129.6820  126.2650   67.7540 S   0  0  0  0  0  0  0  0  0  0  0  0
  129.7761  122.4350   65.0771 H   0  0  0  0  0  0  0  0  0  0  0  0
  130.2352  123.3601   63.4761 H   0  0  0  0  0  0  0  0  0  0  0  0
  129.6241  124.5194   66.2630 H   0  0  0  0  0  0  0  0  0  0  0  0
  131.1886  126.1838   64.7377 H   0  0  0  0  0  0  0  0  0  0  0  0
  129.9059  125.8116   63.4920 H   0  0  0  0  0  0  0  0  0  0  0  0
  126.5586  130.3947   65.2118 H   0  0  0  0  0  0  0  0  0  0  0  0
  127.5704  132.3087   63.5696 H   0  0  0  0  0  0  0  0  0  0  0  0
  128.7635  131.2378   58.9482 H   0  0  0  0  0  0  0  0  0  0  0  0
  127.6999  130.3153   57.8408 H   0  0  0  0  0  0  0  0  0  0  0  0
  128.1036  131.9104   56.2622 H   0  0  0  0  0  0  0  0  0  0  0  0
  127.1727  133.0597   57.2746 H   0  0  0  0  0  0  0  0  0  0  0  0
  131.2647  131.8962   56.5090 H   0  0  0  0  0  0  0  0  0  0  0  0
  133.1243  130.8023   57.7475 H   0  0  0  0  0  0  0  0  0  0  0  0
  133.1361  130.7979   60.2344 H   0  0  0  0  0  0  0  0  0  0  0  0
  132.4993  131.5014   63.4877 H   0  0  0  0  0  0  0  0  0  0  0  0
  132.8714  130.4505   62.0792 H   0  0  0  0  0  0  0  0  0  0  0  0
  133.3915  132.1698   62.0792 H   0  0  0  0  0  0  0  0  0  0  0  0
  129.4190  132.9986   60.2568 H   0  0  0  0  0  0  0  0  0  0  0  0
  126.4926  128.3296   62.2863 H   0  0  0  0  0  0  0  0  0  0  0  0
  1  2  2  0
  2  3  1  0
  3  4  1  0
  4  5  1  0
  5  6  2  0
  5  7  1  0
  7  8  2  0
  8  9  1  0
  9 10  2  0
 10 11  1  0
 11 12  1  0
 11 13  2  0
 13 14  1  0
 14 15  1  0
 15 16  1  0
 16 17  1  0
 17 18  1  0
 18 19  2  0
 19 20  1  0
 20 21  2  0
 21 22  1  0
 22 23  1  0
 23 24  1  0
 22 25  2  0
 13 26  1  0
 26 27  1  0
 26 28  2  0
  7 29  1  0
 29 30  1  0
 30 31  2  0
 30  4  1  0
 28  9  1  0
 25 18  1  0
  1 32  1  0
  1 33  1  0
  2 34  1  0
  3 35  1  0
  3 36  1  0
  8 37  1  0
 10 38  1  0
 15 39  1  0
 15 40  1  0
 16 41  1  0
 16 42  1  0
 19 43  1  0
 20 44  1  0
 21 45  1  0
 24 46  1  0
 24 47  1  0
 24 48  1  0
 25 49  1  0
 28 50  1  0
M  END
>  <Binding energies>  (1) 
[-6.41]

>  <Ligand effiencies>  (1) 
[-0.2067741935483871]

>  <Interactions>  (1) 
["H-A:ALA:541:N:4891, V-B:GLU:543:CB:9878, V-B:ASP:366:CG:8184, V-A:TYR:484:CE2:4346, V-B:GLU:543:CG:9879, V-A:ASN:362:CB:3176, V-A:TYR:539:CD1:4873, V-A:LEU:363:CD1:3189, V-A:TYR:539:CZ:4877, V-A:GLU:543:CD:4908, V-A:HIS:456:CE1:4070, V-A:GLU:543:CG:4907, V-B:GLU:543:CD:9880, V-A:TYR:539:C:4867, V-A:PRO:540:N:4884, H-A:TYR:539:N:4870, V-A:PRO:540:CB:4885, V-A:PRO:540:CA:4883, V-A:TYR:539:CE1:4875"]

$$$$
ZINC29747844
     RDKit          3D

 54 57  0  0  0  0  0  0  0  0999 V2000
  131.8990  130.4540   58.1990 C   0  0  0  0  0  0  0  0  0  0  0  0
  131.6650  130.3720   59.7130 C   0  0  2  0  0  0  0  0  0  0  0  0
  130.5860  129.3190   60.0600 C   0  0  0  0  0  0  0  0  0  0  0  0
  130.2590  129.3960   61.5700 N   0  0  0  0  0  0  0  0  0  0  0  0
  129.1450  128.4000   61.9630 C   0  0  0  0  0  0  0  0  0  0  0  0
  129.6530  127.1670   62.7320 C   0  0  0  0  0  0  0  0  0  0  0  0
  130.3930  126.1390   62.1060 C   0  0  0  0  0  0  0  0  0  0  0  0
  130.6640  126.1520   60.8600 O   0  0  0  0  0  0  0  0  0  0  0  0
  130.8460  125.0520   62.8590 C   0  0  0  0  0  0  0  0  0  0  0  0
  130.5760  124.9680   64.2220 C   0  0  0  0  0  0  0  0  0  0  0  0
  129.8440  125.9700   64.8670 C   0  0  0  0  0  0  0  0  0  0  0  0
  129.5450  125.8800   66.3340 C   0  0  0  0  0  0  0  0  0  0  0  0
  129.9220  124.9270   67.0180 O   0  0  0  0  0  0  0  0  0  0  0  0
  128.7680  127.0330   66.8330 C   0  0  0  0  0  0  0  0  0  0  0  0
  128.4330  127.0380   68.1540 O   0  0  0  0  0  0  0  0  0  0  0  0
  129.3900  127.3660   69.0950 C   0  0  0  0  0  0  0  0  0  0  0  0
  130.7000  127.6860   68.7130 C   0  0  0  0  0  0  0  0  0  0  0  0
  131.6510  128.0210   69.6760 C   0  0  0  0  0  0  0  0  0  0  0  0
  131.3000  128.0430   71.0250 C   0  0  0  0  0  0  0  0  0  0  0  0
  129.9970  127.7330   71.4110 C   0  0  0  0  0  0  0  0  0  0  0  0
  129.0420  127.3970   70.4500 C   0  0  0  0  0  0  0  0  0  0  0  0
  127.2660  126.9820   71.0000 Br  0  0  0  0  0  0  0  0  0  0  0  0
  128.3450  128.0200   66.0110 C   0  0  0  0  0  0  0  0  0  0  0  0
  127.5050  129.2270   66.4230 C   0  0  0  0  0  0  0  0  0  0  0  0
  127.2910  130.0180   65.3710 F   0  0  0  0  0  0  0  0  0  0  0  0
  126.3310  128.8150   66.9040 F   0  0  0  0  0  0  0  0  0  0  0  0
  128.1210  129.9480   67.3640 F   0  0  0  0  0  0  0  0  0  0  0  0
  128.6370  128.0710   64.6830 O   0  0  0  0  0  0  0  0  0  0  0  0
  129.3870  127.0620   64.1070 C   0  0  0  0  0  0  0  0  0  0  0  0
  129.8760  130.8360   61.9790 C   0  0  0  0  0  0  0  0  0  0  0  0
  131.0280  131.7870   61.5860 C   0  0  1  0  0  0  0  0  0  0  0  0
  132.3150  131.6110   62.4220 C   0  0  0  0  0  0  0  0  0  0  0  0
  131.2570  131.6610   60.1790 O   0  0  0  0  0  0  0  0  0  0  0  0
  132.9208  130.8121   58.0048 H   0  0  0  0  0  0  0  0  0  0  0  0
  131.7690  129.4568   57.7533 H   0  0  0  0  0  0  0  0  0  0  0  0
  131.1750  131.1520   57.7533 H   0  0  0  0  0  0  0  0  0  0  0  0
  132.5994  130.0634   60.2045 H   0  0  0  0  0  0  0  0  0  0  0  0
  129.6755  129.5207   59.4767 H   0  0  0  0  0  0  0  0  0  0  0  0
  130.9617  128.3143   59.8164 H   0  0  0  0  0  0  0  0  0  0  0  0
  131.0960  129.1500   62.0800 H   0  0  0  0  0  0  0  0  0  0  0  0
  128.4167  128.9274   62.5966 H   0  0  0  0  0  0  0  0  0  0  0  0
  128.7014  128.0315   61.0263 H   0  0  0  0  0  0  0  0  0  0  0  0
  131.4225  124.2537   62.3688 H   0  0  0  0  0  0  0  0  0  0  0  0
  130.9420  124.1049   64.7975 H   0  0  0  0  0  0  0  0  0  0  0  0
  130.9790  127.6728   67.6491 H   0  0  0  0  0  0  0  0  0  0  0  0
  132.6787  128.2680   69.3712 H   0  0  0  0  0  0  0  0  0  0  0  0
  132.0512  128.3050   71.7847 H   0  0  0  0  0  0  0  0  0  0  0  0
  129.7206  127.7532   72.4755 H   0  0  0  0  0  0  0  0  0  0  0  0
  128.9548  131.1359   61.4580 H   0  0  0  0  0  0  0  0  0  0  0  0
  129.7052  130.8837   63.0646 H   0  0  0  0  0  0  0  0  0  0  0  0
  130.7169  132.8154   61.8219 H   0  0  0  0  0  0  0  0  0  0  0  0
  132.0644  131.6453   63.4925 H   0  0  0  0  0  0  0  0  0  0  0  0
  132.7768  130.6413   62.1844 H   0  0  0  0  0  0  0  0  0  0  0  0
  133.0202  132.4211   62.1844 H   0  0  0  0  0  0  0  0  0  0  0  0
  1  2  1  0
  2  3  1  0
  3  4  1  0
  4  5  1  0
  5  6  1  0
  6  7  2  0
  7  8  1  0
  7  9  1  0
  9 10  2  0
 10 11  1  0
 11 12  1  0
 12 13  2  0
 12 14  1  0
 14 15  1  0
 15 16  1  0
 16 17  2  0
 17 18  1  0
 18 19  2  0
 19 20  1  0
 20 21  2  0
 21 22  1  0
 14 23  2  0
 23 24  1  0
 24 25  1  0
 24 26  1  0
 24 27  1  0
 23 28  1  0
 28 29  1  0
  4 30  1  0
 30 31  1  0
 31 32  1  0
 31 33  1  0
 33  2  1  0
 29  6  1  0
 29 11  2  0
 21 16  1  0
  1 34  1  0
  1 35  1  0
  1 36  1  0
  2 37  1  1
  3 38  1  0
  3 39  1  0
  4 40  1  0
  5 41  1  0
  5 42  1  0
  9 43  1  0
 10 44  1  0
 17 45  1  0
 18 46  1  0
 19 47  1  0
 20 48  1  0
 30 49  1  0
 30 50  1  0
 31 51  1  6
 32 52  1  0
 32 53  1  0
 32 54  1  0
M  CHG  2   4   1   8  -1
M  END
>  <Binding energies>  (1) 
[-6.95]

>  <Ligand effiencies>  (1) 
[-0.20441176470588235]

>  <Interactions>  (1) 
["V-A:ARG:545:CA:4919, V-A:GLU:543:CA:4904, V-B:HIS:456:CD2:9039, V-B:GLU:543:C:9874, V-A:GLU:543:C:4902, V-B:GLU:543:CB:9878, V-A:GLY:544:CA:4914, V-A:GLY:544:C:4912, V-B:GLU:543:CG:9879, V-A:ASP:366:CG:3213, V-B:TYR:484:CE2:9317, V-A:GLU:543:CD:4908, V-B:HIS:456:CE1:9041, V-A:ARG:545:CG:4922, V-B:TYR:484:CZ:9318, V-A:HIS:456:CE1:4070, V-B:GLY:544:C:9884, V-B:GLY:544:CA:9886, V-A:GLU:543:CG:4907, V-B:GLU:543:CD:9880, H-A:GLU:543:OE1:4909, V-A:GLU:543:CB:4906, V-A:PRO:540:CB:4885, V-A:PRO:540:CA:4883, H-A:ASP:366:OD2:3215, H-A:TYR:484:OH:4348"]

$$$$
ZINC2978140-again1
     RDKit          3D

 54 56  0  0  0  0  0  0  0  0999 V2000
  126.0760  129.2720   63.9380 C   0  0  0  0  0  0  0  0  0  0  0  0
  127.5640  129.5790   64.1370 C   0  0  0  0  0  0  0  0  0  0  0  0
  128.3210  128.4220   63.7930 O   0  0  0  0  0  0  0  0  0  0  0  0
  128.7450  127.5650   64.7910 C   0  0  0  0  0  0  0  0  0  0  0  0
  128.3590  127.6760   66.1380 C   0  0  0  0  0  0  0  0  0  0  0  0
  128.8340  126.7810   67.1020 C   0  0  0  0  0  0  0  0  0  0  0  0
  128.4200  126.8800   68.5180 C   0  0  0  0  0  0  0  0  0  0  0  0
  129.0930  127.3360   69.6210 C   0  0  0  0  0  0  0  0  0  0  0  0
  128.3200  127.4220   70.8740 C   0  0  0  0  0  0  0  0  0  0  0  0
  127.1880  126.9720   71.0640 O   0  0  0  0  0  0  0  0  0  0  0  0
  128.9580  128.0790   71.8820 N   0  0  0  0  0  0  0  0  0  0  0  0
  130.2220  128.5960   71.8700 C   0  0  0  0  0  0  0  0  0  0  0  0
  130.5350  129.2160   72.8830 O   0  0  0  0  0  0  0  0  0  0  0  0
  131.0100  128.3460   70.7310 N   0  0  0  0  0  0  0  0  0  0  0  0
  130.5070  127.7790   69.6920 C   0  0  0  0  0  0  0  0  0  0  0  0
  131.3220  127.5350   68.7880 O   0  0  0  0  0  0  0  0  0  0  0  0
  129.6730  125.7380   66.7070 C   0  0  0  0  0  0  0  0  0  0  0  0
  130.0620  125.6070   65.3750 C   0  0  0  0  0  0  0  0  0  0  0  0
  131.1070  124.3050   64.9250 Cl  0  0  0  0  0  0  0  0  0  0  0  0
  129.6080  126.5230   64.4190 C   0  0  0  0  0  0  0  0  0  0  0  0
  129.9990  126.3910   63.1080 O   0  0  0  0  0  0  0  0  0  0  0  0
  128.9930  125.8690   62.2470 C   0  0  0  0  0  0  0  0  0  0  0  0
  128.7810  124.3850   62.5650 C   0  0  0  0  0  0  0  0  0  0  0  0
  128.9610  123.6290   61.3700 O   0  0  0  0  0  0  0  0  0  0  0  0
  130.0390  122.7730   61.2650 C   0  0  0  0  0  0  0  0  0  0  0  0
  131.3080  123.3410   61.3990 C   0  0  0  0  0  0  0  0  0  0  0  0
  132.4610  122.5570   61.3120 C   0  0  0  0  0  0  0  0  0  0  0  0
  133.8260  123.2020   61.4650 C   0  0  0  0  0  0  0  0  0  0  0  0
  132.3450  121.1840   61.0850 C   0  0  0  0  0  0  0  0  0  0  0  0
  131.0860  120.5970   60.9470 C   0  0  0  0  0  0  0  0  0  0  0  0
  130.9750  119.1030   60.6990 C   0  0  0  0  0  0  0  0  0  0  0  0
  129.9380  121.3890   61.0380 C   0  0  0  0  0  0  0  0  0  0  0  0
  125.5880  129.1713   64.9187 H   0  0  0  0  0  0  0  0  0  0  0  0
  125.6044  130.0918   63.3762 H   0  0  0  0  0  0  0  0  0  0  0  0
  125.9674  128.3325   63.3762 H   0  0  0  0  0  0  0  0  0  0  0  0
  127.8580  130.4190   63.4905 H   0  0  0  0  0  0  0  0  0  0  0  0
  127.7527  129.8511   65.1860 H   0  0  0  0  0  0  0  0  0  0  0  0
  127.6717  128.4804   66.4390 H   0  0  0  0  0  0  0  0  0  0  0  0
  127.3978  126.5276   68.7204 H   0  0  0  0  0  0  0  0  0  0  0  0
  128.4340  128.2100   72.7340 H   0  0  0  0  0  0  0  0  0  0  0  0
  130.0303  125.0131   67.4533 H   0  0  0  0  0  0  0  0  0  0  0  0
  128.0526  126.4174   62.4045 H   0  0  0  0  0  0  0  0  0  0  0  0
  129.3072  125.9821   61.1989 H   0  0  0  0  0  0  0  0  0  0  0  0
  129.5113  124.0609   63.3211 H   0  0  0  0  0  0  0  0  0  0  0  0
  127.7653  124.2281   62.9572 H   0  0  0  0  0  0  0  0  0  0  0  0
  131.4010  124.4227   61.5758 H   0  0  0  0  0  0  0  0  0  0  0  0
  134.0613  123.3132   62.5338 H   0  0  0  0  0  0  0  0  0  0  0  0
  134.5868  122.5681   60.9861 H   0  0  0  0  0  0  0  0  0  0  0  0
  133.8194  124.1922   60.9861 H   0  0  0  0  0  0  0  0  0  0  0  0
  133.2497  120.5623   61.0146 H   0  0  0  0  0  0  0  0  0  0  0  0
  130.9356  118.5733   61.6623 H   0  0  0  0  0  0  0  0  0  0  0  0
  130.0588  118.8933   60.1275 H   0  0  0  0  0  0  0  0  0  0  0  0
  131.8501  118.7602   60.1275 H   0  0  0  0  0  0  0  0  0  0  0  0
  128.9463  120.9253   60.9310 H   0  0  0  0  0  0  0  0  0  0  0  0
  1  2  1  0
  2  3  1  0
  3  4  1  0
  4  5  2  0
  5  6  1  0
  6  7  1  0
  7  8  2  0
  8  9  1  0
  9 10  2  0
  9 11  1  0
 11 12  1  0
 12 13  2  0
 12 14  1  0
 14 15  2  0
 15 16  1  0
  6 17  2  0
 17 18  1  0
 18 19  1  0
 18 20  2  0
 20 21  1  0
 21 22  1  0
 22 23  1  0
 23 24  1  0
 24 25  1  0
 25 26  2  0
 26 27  1  0
 27 28  1  0
 27 29  2  0
 29 30  1  0
 30 31  1  0
 30 32  2  0
 20  4  1  0
 32 25  1  0
 15  8  1  0
  1 33  1  0
  1 34  1  0
  1 35  1  0
  2 36  1  0
  2 37  1  0
  5 38  1  0
  7 39  1  0
 11 40  1  0
 17 41  1  0
 22 42  1  0
 22 43  1  0
 23 44  1  0
 23 45  1  0
 26 46  1  0
 28 47  1  0
 28 48  1  0
 28 49  1  0
 29 50  1  0
 31 51  1  0
 31 52  1  0
 31 53  1  0
 32 54  1  0
M  CHG  1  16  -1
M  END
>  <Binding energies>  (1) 
[-6.12]

>  <Ligand effiencies>  (1) 
[-0.18545454545454546]

>  <Interactions>  (1) 
["V-A:ILE:369:CG2:3237, V-B:GLU:543:C:9874, V-B:HIS:456:CD2:9039, V-A:GLU:543:C:4902, V-B:GLU:543:CB:9878, V-B:TYR:539:CE2:9848, V-B:GLU:543:CG:9879, V-A:GLY:544:C:4912, H-A:ARG:545:N:4920, H-B:HIS:456:ND1:9038, V-A:GLU:543:CD:4908, V-A:TYR:484:CZ:4347, V-B:HIS:456:CE1:9041, V-A:HIS:456:CE1:4070, V-A:ILE:369:CD1:3239, H-B:HIS:456:NE2:9042, V-B:TYR:539:CD2:9846, V-B:GLU:543:CD:9880, H-A:LYS:547:NZ:4951, V-A:LEU:475:CD2:4259, V-A:GLU:543:CB:4906"]

$$$$
ZINC299762858
     RDKit          3D

 68 72  0  0  0  0  0  0  0  0999 V2000
  133.3580  123.5440   60.6770 C   0  0  0  0  0  0  0  0  0  0  0  0
  133.3780  123.6260   59.1470 C   0  0  0  0  0  0  0  0  0  0  0  0
  133.4200  124.9960   58.7590 O   0  0  0  0  0  0  0  0  0  0  0  0
  132.2420  125.7150   58.6970 C   0  0  0  0  0  0  0  0  0  0  0  0
  131.4740  125.8870   57.5370 C   0  0  0  0  0  0  0  0  0  0  0  0
  130.2940  126.6240   57.5750 C   0  0  0  0  0  0  0  0  0  0  0  0
  129.8280  127.2010   58.7690 C   0  0  0  0  0  0  0  0  0  0  0  0
  130.6240  127.0580   59.9270 C   0  0  0  0  0  0  0  0  0  0  0  0
  131.8020  126.3080   59.8800 C   0  0  0  0  0  0  0  0  0  0  0  0
  130.1050  127.7400   61.4850 S   0  0  0  0  0  0  0  0  0  0  0  0
  128.4910  126.9370   61.7640 C   0  0  2  0  0  0  0  0  0  0  0  0
  128.6110  125.4310   61.5320 C   0  0  0  0  0  0  0  0  0  0  0  0
  128.5790  124.9030   60.2360 C   0  0  0  0  0  0  0  0  0  0  0  0
  128.6800  123.5210   60.0160 C   0  0  0  0  0  0  0  0  0  0  0  0
  128.6540  122.9360   58.7620 O   0  0  0  0  0  0  0  0  0  0  0  0
  127.4190  122.4640   58.2370 C   0  0  0  0  0  0  0  0  0  0  0  0
  128.8160  122.6680   61.1190 C   0  0  0  0  0  0  0  0  0  0  0  0
  128.8970  121.3110   60.9180 O   0  0  0  0  0  0  0  0  0  0  0  0
  130.1870  120.7660   61.1600 C   0  0  0  0  0  0  0  0  0  0  0  0
  128.8440  123.1750   62.4260 C   0  0  0  0  0  0  0  0  0  0  0  0
  128.9720  122.2610   63.4560 O   0  0  0  0  0  0  0  0  0  0  0  0
  129.5210  122.6800   64.6990 C   0  0  0  0  0  0  0  0  0  0  0  0
  128.7440  124.5620   62.6180 C   0  0  0  0  0  0  0  0  0  0  0  0
  127.3500  127.5470   60.9080 C   0  0  0  0  0  0  0  0  0  0  0  0
  127.5000  127.3260   59.3930 C   0  0  0  0  0  0  0  0  0  0  0  0
  128.6680  127.9940   58.8100 N   0  0  0  0  0  0  0  0  0  0  0  0
  128.8260  129.4050   59.1950 C   0  0  0  0  0  0  0  0  0  0  0  0
  127.9550  130.3480   58.3700 C   0  0  0  0  0  0  0  0  0  0  0  0
  126.5840  130.2600   58.1490 C   0  0  0  0  0  0  0  0  0  0  0  0
  126.1760  131.3330   57.3640 C   0  0  0  0  0  0  0  0  0  0  0  0
  127.3120  132.0550   57.0720 C   0  0  0  0  0  0  0  0  0  0  0  0
  128.4130  131.4550   57.6530 N   0  0  0  0  0  0  0  0  0  0  0  0
  129.7180  131.9010   57.4860 C   0  0  0  0  0  0  0  0  0  0  0  0
  130.0500  132.9900   56.8320 N   0  0  0  0  0  0  0  0  0  0  0  0
  131.3530  133.1910   56.8210 C   0  0  0  0  0  0  0  0  0  0  0  0
  132.1280  132.2490   57.4850 C   0  0  0  0  0  0  0  0  0  0  0  0
  131.0810  131.0370   58.1550 S   0  0  0  0  0  0  0  0  0  0  0  0
  133.5986  124.5304   61.1002 H   0  0  0  0  0  0  0  0  0  0  0  0
  132.3580  123.2342   61.0145 H   0  0  0  0  0  0  0  0  0  0  0  0
  134.1031  122.8085   61.0145 H   0  0  0  0  0  0  0  0  0  0  0  0
  134.2668  123.1054   58.7609 H   0  0  0  0  0  0  0  0  0  0  0  0
  132.4754  123.1498   58.7364 H   0  0  0  0  0  0  0  0  0  0  0  0
  131.8063  125.4364   56.5902 H   0  0  0  0  0  0  0  0  0  0  0  0
  129.7133  126.7579   56.6504 H   0  0  0  0  0  0  0  0  0  0  0  0
  132.3960  126.1824   60.7973 H   0  0  0  0  0  0  0  0  0  0  0  0
  128.2123  127.1228   62.8118 H   0  0  0  0  0  0  0  0  0  0  0  0
  128.4731  125.5819   59.3770 H   0  0  0  0  0  0  0  0  0  0  0  0
  126.7432  122.2057   59.0656 H   0  0  0  0  0  0  0  0  0  0  0  0
  126.9588  123.2496   57.6197 H   0  0  0  0  0  0  0  0  0  0  0  0
  127.6001  121.5717   57.6197 H   0  0  0  0  0  0  0  0  0  0  0  0
  130.3571  120.6941   62.2444 H   0  0  0  0  0  0  0  0  0  0  0  0
  130.2516  119.7637   60.7115 H   0  0  0  0  0  0  0  0  0  0  0  0
  130.9507  121.4184   60.7115 H   0  0  0  0  0  0  0  0  0  0  0  0
  128.9419  122.2380   65.5232 H   0  0  0  0  0  0  0  0  0  0  0  0
  130.5678  122.3491   64.7677 H   0  0  0  0  0  0  0  0  0  0  0  0
  129.4780  123.7770   64.7677 H   0  0  0  0  0  0  0  0  0  0  0  0
  128.7708  124.9709   63.6388 H   0  0  0  0  0  0  0  0  0  0  0  0
  126.4003  127.0941   61.2288 H   0  0  0  0  0  0  0  0  0  0  0  0
  127.3848  128.6344   61.0701 H   0  0  0  0  0  0  0  0  0  0  0  0
  127.5900  126.2455   59.2074 H   0  0  0  0  0  0  0  0  0  0  0  0
  126.6101  127.7626   58.9160 H   0  0  0  0  0  0  0  0  0  0  0  0
  128.5524  129.5121   60.2550 H   0  0  0  0  0  0  0  0  0  0  0  0
  129.8751  129.6809   59.0124 H   0  0  0  0  0  0  0  0  0  0  0  0
  125.9266  129.4668   58.5344 H   0  0  0  0  0  0  0  0  0  0  0  0
  125.1495  131.5601   57.0404 H   0  0  0  0  0  0  0  0  0  0  0  0
  127.3389  132.9728   56.4663 H   0  0  0  0  0  0  0  0  0  0  0  0
  131.8019  134.0576   56.3135 H   0  0  0  0  0  0  0  0  0  0  0  0
  133.2244  132.2677   57.5720 H   0  0  0  0  0  0  0  0  0  0  0  0
  1  2  1  0
  2  3  1  0
  3  4  1  0
  4  5  2  0
  5  6  1  0
  6  7  2  0
  7  8  1  0
  8  9  2  0
  8 10  1  0
 10 11  1  0
 11 12  1  0
 12 13  2  0
 13 14  1  0
 14 15  1  0
 15 16  1  0
 14 17  2  0
 17 18  1  0
 18 19  1  0
 17 20  1  0
 20 21  1  0
 21 22  1  0
 20 23  2  0
 11 24  1  0
 24 25  1  0
 25 26  1  0
 26 27  1  0
 27 28  1  0
 28 29  2  0
 29 30  1  0
 30 31  2  0
 31 32  1  0
 32 33  1  0
 33 34  2  0
 34 35  1  0
 35 36  2  0
 36 37  1  0
  9  4  1  0
 23 12  1  0
 32 28  1  0
 37 33  1  0
 26  7  1  0
  1 38  1  0
  1 39  1  0
  1 40  1  0
  2 41  1  0
  2 42  1  0
  5 43  1  0
  6 44  1  0
  9 45  1  0
 11 46  1  1
 13 47  1  0
 16 48  1  0
 16 49  1  0
 16 50  1  0
 19 51  1  0
 19 52  1  0
 19 53  1  0
 22 54  1  0
 22 55  1  0
 22 56  1  0
 23 57  1  0
 24 58  1  0
 24 59  1  0
 25 60  1  0
 25 61  1  0
 27 62  1  0
 27 63  1  0
 29 64  1  0
 30 65  1  0
 31 66  1  0
 35 67  1  0
 36 68  1  0
M  END
>  <Binding energies>  (1) 
[-4.11]

>  <Ligand effiencies>  (1) 
[-0.1053846153846154]

>  <Interactions>  (1) 
["V-A:ILE:369:CG2:3237, V-B:PRO:540:CA:9855, V-A:ILE:369:CB:3236, V-A:ILE:538:CB:4862, V-B:ALA:541:CB:9864, V-B:TYR:539:CE2:9848, V-A:TYR:484:CE2:4346, V-B:GLU:543:CG:9879, V-B:TYR:539:C:9839, V-A:ASP:366:CG:3213, V-A:ILE:538:CG2:4863, V-A:TYR:539:CD1:4873, V-A:LEU:363:CD1:3189, V-B:TYR:539:CZ:9849, V-A:ILE:538:CA:4860, V-A:TYR:539:CZ:4877, H-B:TYR:539:OH:9850, H-B:ALA:541:N:9863, V-B:PRO:540:CB:9857, V-B:PRO:540:N:9856, V-B:PRO:540:CD:9859, V-B:TYR:539:CD2:9846, V-B:GLU:543:CD:9880, V-A:ASP:366:CB:3212, V-A:LEU:475:CD2:4259, V-B:TYR:539:CG:9844, V-A:PRO:540:N:4884, H-A:TYR:539:N:4870, V-A:PRO:540:CB:4885, V-A:PRO:540:CA:4883, V-A:PRO:540:CD:4887, V-A:TYR:539:CE1:4875"]

$$$$
ZINC299810375
     RDKit          3D

131136  0  0  0  0  0  0  0  0999 V2000
  133.0740  125.9260   67.6630 C   0  0  0  0  0  0  0  0  0  0  0  0
  131.8660  126.6690   67.7220 O   0  0  0  0  0  0  0  0  0  0  0  0
  131.6100  127.4980   68.7630 C   0  0  0  0  0  0  0  0  0  0  0  0
  132.2470  127.5010   69.8170 O   0  0  0  0  0  0  0  0  0  0  0  0
  130.5310  128.3470   68.5140 N   0  0  0  0  0  0  0  0  0  0  0  0
  129.7280  128.4320   67.2760 C   0  0  2  0  0  0  0  0  0  0  0  0
  129.0470  129.8160   67.0760 C   0  0  2  0  0  0  0  0  0  0  0  0
  128.1730  130.3280   68.2440 C   0  0  0  0  0  0  0  0  0  0  0  0
  128.3830  129.8830   65.8050 O   0  0  0  0  0  0  0  0  0  0  0  0
  127.3870  128.9120   65.6080 C   0  0  1  0  0  0  0  0  0  0  0  0
  126.7990  129.0650   64.3510 O   0  0  0  0  0  0  0  0  0  0  0  0
  127.2870  128.2460   63.2780 C   0  0  1  0  0  0  0  0  0  0  0  0
  126.1400  127.4630   62.5850 C   0  0  0  0  0  0  0  0  0  0  0  0
  126.5750  126.6020   61.4050 C   0  0  0  0  0  0  0  0  0  0  0  0
  127.7710  125.9940   61.2390 C   0  0  0  0  0  0  0  0  0  0  0  0
  128.8470  126.0000   62.3270 C   0  0  0  0  0  0  0  0  0  0  0  0
  128.3750  125.1800   60.1100 C   0  0  2  0  0  0  0  0  0  0  0  0
  127.9430  123.7360   60.2990 C   0  0  0  0  0  0  0  0  0  0  0  0
  128.7560  122.7360   60.6610 C   0  0  0  0  0  0  0  0  0  0  0  0
  130.2490  122.8710   60.9040 C   0  0  2  0  0  0  0  0  0  0  0  0
  130.7550  122.1530   62.1860 C   0  0  1  0  0  0  0  0  0  0  0  0
  130.2360  120.8350   62.2950 O   0  0  0  0  0  0  0  0  0  0  0  0
  129.6600  119.8540   61.0510 Si  0  0  0  0  0  4  0  0  0  0  0  0
  128.0960  118.9450   61.6030 C   0  0  0  0  0  0  0  0  0  0  0  0
  129.2630  120.9840   59.5930 C   0  0  0  0  0  0  0  0  0  0  0  0
  131.0430  118.6210   60.6150 C   0  0  0  0  0  0  0  0  0  0  0  0
  130.4600  117.4300   59.8250 C   0  0  0  0  0  0  0  0  0  0  0  0
  132.1170  119.3180   59.7540 C   0  0  0  0  0  0  0  0  0  0  0  0
  131.6990  118.0870   61.9070 C   0  0  0  0  0  0  0  0  0  0  0  0
  132.3070  122.1350   62.2700 C   0  0  1  0  0  0  0  0  0  0  0  0
  132.9530  121.1170   61.3020 C   0  0  0  0  0  0  0  0  0  0  0  0
  132.8600  123.5690   62.0600 C   0  0  0  0  0  0  0  0  0  0  0  0
  132.3300  124.2570   60.7740 C   0  0  2  0  0  0  0  0  0  0  0  0
  133.1360  125.5450   60.4970 C   0  0  0  0  0  0  0  0  0  0  0  0
  130.7540  124.3620   60.8800 C   0  0  1  0  0  0  0  0  0  0  0  0
  129.9490  125.3290   59.8860 C   0  0  1  0  0  0  0  0  0  0  0  0
  130.3470  124.8540   58.4440 C   0  0  0  0  0  0  0  0  0  0  0  0
  130.2850  126.8590   60.0740 C   0  0  0  0  0  0  0  0  0  0  0  0
  131.3640  126.9970   60.8990 O   0  0  0  0  0  0  0  0  0  0  0  0
  129.5940  127.9680   59.6630 C   0  0  0  0  0  0  0  0  0  0  0  0
  128.3130  128.0760   58.9390 C   0  0  0  0  0  0  0  0  0  0  0  0
  127.5750  127.1760   58.5540 O   0  0  0  0  0  0  0  0  0  0  0  0
  127.9890  129.3640   58.7640 O   0  0  0  0  0  0  0  0  0  0  0  0
  128.8920  130.2480   59.3890 C   0  0  1  0  0  0  0  0  0  0  0  0
  129.4950  131.2180   58.3340 C   0  0  0  0  0  0  0  0  0  0  0  0
  128.4460  132.2340   57.8850 C   0  0  0  0  0  0  0  0  0  0  0  0
  128.6090  132.8560   56.5710 C   0  0  0  0  0  0  0  0  0  0  0  0
  129.1380  133.9540   56.3950 O   0  0  0  0  0  0  0  0  0  0  0  0
  127.4060  132.6100   58.6580 C   0  0  0  0  0  0  0  0  0  0  0  0
  127.0710  131.9950   60.0130 C   0  0  2  0  0  0  0  0  0  0  0  0
  126.7680  133.0170   60.9420 O   0  0  0  0  0  0  0  0  0  0  0  0
  128.1870  131.0390   60.5530 C   0  0  1  0  0  0  0  0  0  0  0  0
  127.5380  130.0950   61.5800 C   0  0  0  0  0  0  0  0  0  0  0  0
  128.1050  129.0960   62.2950 C   0  0  0  0  0  0  0  0  0  0  0  0
  129.5710  128.6900   62.1830 C   0  0  0  0  0  0  0  0  0  0  0  0
  130.0030  129.3520   59.9310 C   0  0  0  0  0  0  0  0  0  0  0  0
  131.0360  129.7050   60.5020 O   0  0  0  0  0  0  0  0  0  0  0  0
  128.0530  127.5320   65.6100 C   0  0  0  0  0  0  0  0  0  0  0  0
  128.7450  127.2440   66.9770 C   0  0  1  0  0  0  0  0  0  0  0  0
  129.4450  125.8640   66.9460 C   0  0  0  0  0  0  0  0  0  0  0  0
  127.7020  127.0700   68.0790 N   0  0  0  0  0  0  0  0  0  0  0  0
  126.6560  127.7130   68.0180 O   0  0  0  0  0  0  0  0  0  0  0  0
  127.9120  126.2570   68.9740 O   0  0  0  0  0  0  0  0  0  0  0  0
  133.4228  125.7115   68.6840 H   0  0  0  0  0  0  0  0  0  0  0  0
  132.8972  124.9803   67.1297 H   0  0  0  0  0  0  0  0  0  0  0  0
  133.8382  126.5104   67.1297 H   0  0  0  0  0  0  0  0  0  0  0  0
  130.2580  128.9660   69.2630 H   0  0  0  0  0  0  0  0  0  0  0  0
  130.5030  128.3189   66.5036 H   0  0  0  0  0  0  0  0  0  0  0  0
  129.8778  130.5369   67.0778 H   0  0  0  0  0  0  0  0  0  0  0  0
  128.6418  130.0534   69.2005 H   0  0  0  0  0  0  0  0  0  0  0  0
  128.0817  131.4224   68.1813 H   0  0  0  0  0  0  0  0  0  0  0  0
  127.1737  129.8725   68.1813 H   0  0  0  0  0  0  0  0  0  0  0  0
  126.6319  129.0164   66.4011 H   0  0  0  0  0  0  0  0  0  0  0  0
  127.9599  127.4827   63.6957 H   0  0  0  0  0  0  0  0  0  0  0  0
  125.6730  126.8064   63.3338 H   0  0  0  0  0  0  0  0  0  0  0  0
  125.4508  128.2183   62.1794 H   0  0  0  0  0  0  0  0  0  0  0  0
  125.8365  126.4601   60.6022 H   0  0  0  0  0  0  0  0  0  0  0  0
  128.3675  125.9973   63.3170 H   0  0  0  0  0  0  0  0  0  0  0  0
  129.4785  125.1054   62.2231 H   0  0  0  0  0  0  0  0  0  0  0  0
  129.4685  126.9016   62.2231 H   0  0  0  0  0  0  0  0  0  0  0  0
  127.9833  125.5944   59.1693 H   0  0  0  0  0  0  0  0  0  0  0  0
  126.8840  123.4942   60.1256 H   0  0  0  0  0  0  0  0  0  0  0  0
  128.3082  121.7399   60.7926 H   0  0  0  0  0  0  0  0  0  0  0  0
  130.6942  122.3473   60.0452 H   0  0  0  0  0  0  0  0  0  0  0  0
  130.3778  122.7384   63.0375 H   0  0  0  0  0  0  0  0  0  0  0  0
  128.0545  118.9209   62.7020 H   0  0  0  0  0  0  0  0  0  0  0  0
  127.2106  119.4692   61.2140 H   0  0  0  0  0  0  0  0  0  0  0  0
  128.1133  117.9162   61.2140 H   0  0  0  0  0  0  0  0  0  0  0  0
  128.9202  121.9597   59.9680 H   0  0  0  0  0  0  0  0  0  0  0  0
  130.1660  121.1233   58.9805 H   0  0  0  0  0  0  0  0  0  0  0  0
  128.4713  120.5279   58.9805 H   0  0  0  0  0  0  0  0  0  0  0  0
  130.0881  116.6703   60.5283 H   0  0  0  0  0  0  0  0  0  0  0  0
  129.6315  117.7803   59.1919 H   0  0  0  0  0  0  0  0  0  0  0  0
  131.2449  116.9906   59.1919 H   0  0  0  0  0  0  0  0  0  0  0  0
  132.8577  119.7987   60.4100 H   0  0  0  0  0  0  0  0  0  0  0  0
  132.6184  118.5727   59.1191 H   0  0  0  0  0  0  0  0  0  0  0  0
  131.6406  120.0795   59.1191 H   0  0  0  0  0  0  0  0  0  0  0  0
  131.1818  118.5080   62.7818 H   0  0  0  0  0  0  0  0  0  0  0  0
  131.6242  116.9898   61.9297 H   0  0  0  0  0  0  0  0  0  0  0  0
  132.7582  118.3829   61.9297 H   0  0  0  0  0  0  0  0  0  0  0  0
  132.5840  121.7919   63.2777 H   0  0  0  0  0  0  0  0  0  0  0  0
  133.4541  120.3274   61.8811 H   0  0  0  0  0  0  0  0  0  0  0  0
  132.1739  120.6685   60.6681 H   0  0  0  0  0  0  0  0  0  0  0  0
  133.6906  121.6309   60.6681 H   0  0  0  0  0  0  0  0  0  0  0  0
  132.5728  124.1828   62.9264 H   0  0  0  0  0  0  0  0  0  0  0  0
  133.9512  123.4814   61.9527 H   0  0  0  0  0  0  0  0  0  0  0  0
  132.4990  123.6725   59.8576 H   0  0  0  0  0  0  0  0  0  0  0  0
  133.4260  126.0085   61.4515 H   0  0  0  0  0  0  0  0  0  0  0  0
  134.0394  125.2955   59.9211 H   0  0  0  0  0  0  0  0  0  0  0  0
  132.5167  126.2484   59.9211 H   0  0  0  0  0  0  0  0  0  0  0  0
  130.5182  124.9221   61.7969 H   0  0  0  0  0  0  0  0  0  0  0  0
  131.0519  124.0127   58.5166 H   0  0  0  0  0  0  0  0  0  0  0  0
  129.4456  124.5314   57.9024 H   0  0  0  0  0  0  0  0  0  0  0  0
  130.8224  125.6850   57.9024 H   0  0  0  0  0  0  0  0  0  0  0  0
  131.7880  127.8410   60.7250 H   0  0  0  0  0  0  0  0  0  0  0  0
  130.3492  131.7506   58.7775 H   0  0  0  0  0  0  0  0  0  0  0  0
  129.8251  130.6359   57.4610 H   0  0  0  0  0  0  0  0  0  0  0  0
  128.2379  132.3119   55.6900 H   0  0  0  0  0  0  0  0  0  0  0  0
  126.7553  133.4150   58.2856 H   0  0  0  0  0  0  0  0  0  0  0  0
  126.1846  131.3589   59.8728 H   0  0  0  0  0  0  0  0  0  0  0  0
  127.5140  133.6200   60.9840 H   0  0  0  0  0  0  0  0  0  0  0  0
  128.9829  131.6248   61.0361 H   0  0  0  0  0  0  0  0  0  0  0  0
  126.4642  130.2543   61.7576 H   0  0  0  0  0  0  0  0  0  0  0  0
  129.9968  128.5721   63.1904 H   0  0  0  0  0  0  0  0  0  0  0  0
  129.6470  127.7370   61.6389 H   0  0  0  0  0  0  0  0  0  0  0  0
  130.1264  129.4681   61.6389 H   0  0  0  0  0  0  0  0  0  0  0  0
  127.2877  126.7636   65.4260 H   0  0  0  0  0  0  0  0  0  0  0  0
  128.8185  127.5127   64.8203 H   0  0  0  0  0  0  0  0  0  0  0  0
  129.6202  125.5185   67.9755 H   0  0  0  0  0  0  0  0  0  0  0  0
  128.8052  125.1400   66.4202 H   0  0  0  0  0  0  0  0  0  0  0  0
  130.4071  125.9526   66.4202 H   0  0  0  0  0  0  0  0  0  0  0  0
  1  2  1  0
  2  3  1  0
  3  4  2  0
  3  5  1  0
  5  6  1  0
  6  7  1  0
  7  8  1  0
  7  9  1  0
  9 10  1  0
 10 11  1  0
 11 12  1  0
 12 13  1  0
 13 14  1  0
 14 15  2  0
 15 16  1  0
 15 17  1  0
 17 18  1  0
 18 19  2  0
 19 20  1  0
 20 21  1  0
 21 22  1  0
 22 23  1  0
 23 24  1  0
 23 25  1  0
 23 26  1  0
 26 27  1  0
 26 28  1  0
 26 29  1  0
 21 30  1  0
 30 31  1  0
 30 32  1  0
 32 33  1  0
 33 34  1  0
 33 35  1  0
 35 36  1  0
 36 37  1  6
 36 38  1  0
 38 39  1  0
 38 40  2  0
 40 41  1  0
 41 42  2  0
 41 43  1  0
 44 43  1  6
 44 45  1  0
 45 46  1  0
 46 47  1  0
 47 48  2  0
 46 49  2  0
 49 50  1  0
 50 51  1  0
 50 52  1  0
 52 53  1  0
 53 54  2  0
 54 55  1  0
 44 56  1  0
 56 57  2  0
 10 58  1  0
 58 59  1  0
 59 60  1  6
 59 61  1  0
 61 62  2  0
 61 63  1  0
 59  6  1  0
 54 12  1  0
 36 17  1  0
 56 40  1  0
 35 20  1  0
 52 44  1  0
  1 64  1  0
  1 65  1  0
  1 66  1  0
  5 67  1  0
  6 68  1  6
  7 69  1  6
  8 70  1  0
  8 71  1  0
  8 72  1  0
 10 73  1  1
 12 74  1  1
 13 75  1  0
 13 76  1  0
 14 77  1  0
 16 78  1  0
 16 79  1  0
 16 80  1  0
 17 81  1  6
 18 82  1  0
 19 83  1  0
 20 84  1  6
 21 85  1  1
 24 86  1  0
 24 87  1  0
 24 88  1  0
 25 89  1  0
 25 90  1  0
 25 91  1  0
 27 92  1  0
 27 93  1  0
 27 94  1  0
 28 95  1  0
 28 96  1  0
 28 97  1  0
 29 98  1  0
 29 99  1  0
 29100  1  0
 30101  1  1
 31102  1  0
 31103  1  0
 31104  1  0
 32105  1  0
 32106  1  0
 33107  1  6
 34108  1  0
 34109  1  0
 34110  1  0
 35111  1  1
 37112  1  0
 37113  1  0
 37114  1  0
 39115  1  0
 45116  1  0
 45117  1  0
 47118  1  0
 49119  1  0
 50120  1  6
 51121  1  0
 52122  1  1
 53123  1  0
 55124  1  0
 55125  1  0
 55126  1  0
 58127  1  0
 58128  1  0
 60129  1  0
 60130  1  0
 60131  1  0
M  CHG  2  61   1  63  -1
M  END
>  <Binding energies>  (1) 
[56.59]

>  <Ligand effiencies>  (1) 
[0.8322058823529412]

>  <Interactions>  (1) 
["V-A:ILE:369:CG2:3237, V-A:ASP:366:CA:3210, V-B:PRO:540:CA:9855, V-A:GLU:543:CA:4904, V-B:TYR:539:CA:9841, V-B:HIS:456:CD2:9039, V-B:GLU:543:C:9874, V-A:GLU:543:C:4902, V-B:GLU:543:CB:9878, V-B:ALA:541:CB:9864, V-B:TYR:539:CE2:9848, V-A:LEU:475:CG:4257, V-B:GLU:543:CG:9879, V-B:TYR:539:C:9839, V-A:ASP:366:CG:3213, H-A:ARG:545:N:4920, H-B:HIS:456:ND1:9038, V-B:TYR:484:CE2:9317, V-A:TYR:539:CD1:4873, V-B:TYR:539:CZ:9849, V-A:TYR:539:CZ:4877, V-A:LEU:475:CD1:4258, V-B:TYR:539:CB:9843, V-A:HIS:383:CE1:3393, V-A:GLU:543:CD:4908, H-B:TYR:484:OH:9319, V-B:HIS:456:CE1:9041, V-A:ARG:545:CG:4922, V-A:HIS:383:NE2:3394, V-B:PRO:540:N:9856, V-B:TYR:484:CZ:9318, V-A:HIS:456:CE1:4070, V-B:TYR:484:CD2:9315, V-B:TYR:539:CD2:9846, V-A:GLU:543:CG:4907, V-A:SER:385:CB:3409, V-A:PRO:482:CB:4326, V-B:GLU:543:CD:9880, V-A:MET:535:CE:4835, V-B:ARG:545:CZ:9898, V-A:ASP:366:CB:3212, V-A:ARG:545:CB:4921, V-A:ARG:545:CD:4923, H-A:ARG:545:NH2:4928, V-A:LEU:475:CD2:4259, H-A:GLU:543:OE1:4909, V-B:TYR:539:CG:9844, V-A:GLU:543:CB:4906, H-A:ASP:366:OD1:3214, H-A:TYR:539:O:4868, V-A:TYR:539:CG:4872, H-A:TYR:539:N:4870, H-A:ARG:545:NE:4924, V-B:PRO:540:C:9853, H-A:ASP:366:OD2:3215, V-B:ALA:541:CA:9862, V-A:TYR:539:CE1:4875, V-B:TYR:484:CE1:9316, H-A:HIS:456:ND1:4067, H-A:GLU:543:O:4903"]

$$$$
ZINC299810647
     RDKit          3D

 81 84  0  0  0  0  0  0  0  0999 V2000
  129.6600  126.3700   67.7560 C   0  0  0  0  0  0  0  0  0  0  0  0
  129.4680  126.0480   66.4630 C   0  0  0  0  0  0  0  0  0  0  0  0
  130.4230  125.3070   65.5220 C   0  0  1  0  0  0  0  0  0  0  0  0
  131.8340  125.4730   66.1350 C   0  0  0  0  0  0  0  0  0  0  0  0
  130.0450  123.7980   65.4030 C   0  0  0  0  0  0  0  0  0  0  0  0
  130.5560  123.1820   64.0930 C   0  0  0  0  0  0  0  0  0  0  0  0
  131.2850  122.1920   64.0940 O   0  0  0  0  0  0  0  0  0  0  0  0
  130.1210  123.9940   62.8320 C   0  0  2  0  0  0  0  0  0  0  0  0
  128.7220  124.1920   62.9830 O   0  0  0  0  0  0  0  0  0  0  0  0
  130.3310  123.3330   61.3690 C   0  0  2  0  0  0  0  0  0  0  0  0
  131.8350  122.9460   61.1250 C   0  0  0  0  0  0  0  0  0  0  0  0
  129.9240  124.3780   60.2180 C   0  0  2  0  0  0  0  0  0  0  0  0
  130.5590  125.7960   60.4760 C   0  0  1  0  0  0  0  0  0  0  0  0
  130.2220  126.7270   59.4390 O   0  0  0  0  0  0  0  0  0  0  0  0
  131.0110  126.9500   58.3610 C   0  0  0  0  0  0  0  0  0  0  0  0
  131.1180  126.2100   57.3790 O   0  0  0  0  0  0  0  0  0  0  0  0
  131.7880  128.2690   58.5030 C   0  0  0  0  0  0  0  0  0  0  0  0
  130.9610  129.4870   58.4720 N   0  0  0  0  0  0  0  0  0  0  0  0
  130.2740  129.7920   59.7420 C   0  0  0  0  0  0  0  0  0  0  0  0
  131.2310  130.2000   60.8900 C   0  0  0  0  0  0  0  0  0  0  0  0
  132.0520  131.4290   60.4390 N   0  0  0  0  0  0  0  0  0  0  0  0
  133.0490  131.8500   61.5350 C   0  0  0  0  0  0  0  0  0  0  0  0
  132.7880  131.1040   59.1210 C   0  0  0  0  0  0  0  0  0  0  0  0
  131.7360  130.6710   58.0680 C   0  0  0  0  0  0  0  0  0  0  0  0
  130.3010  126.3850   61.8950 C   0  0  2  0  0  0  0  0  0  0  0  0
  130.8710  127.6790   62.0380 O   0  0  0  0  0  0  0  0  0  0  0  0
  130.7970  125.4210   63.0170 C   0  0  2  0  0  0  0  0  0  0  0  0
  132.3650  125.4480   63.0740 C   0  0  0  0  0  0  0  0  0  0  0  0
  130.2950  125.9930   64.2540 O   0  0  0  0  0  0  0  0  0  0  0  0
  128.4420  124.3580   59.5860 C   0  0  0  0  0  0  0  0  0  0  0  0
  127.4920  125.4010   60.2350 C   0  0  0  0  0  0  0  0  0  0  0  0
  128.5280  124.6000   58.0460 C   0  0  0  0  0  0  0  0  0  0  0  0
  127.6970  122.9910   59.7320 C   0  0  0  0  0  0  0  0  0  0  0  0
  128.0370  122.1030   60.9240 C   0  0  0  0  0  0  0  0  0  0  0  0
  129.5500  121.9770   61.1330 C   0  0  2  0  0  0  0  0  0  0  0  0
  129.7910  120.9420   62.0650 O   0  0  0  0  0  0  0  0  0  0  0  0
  128.8775  126.9084   68.3108 H   0  0  0  0  0  0  0  0  0  0  0  0
  130.5994  126.0947   68.2577 H   0  0  0  0  0  0  0  0  0  0  0  0
  128.5055  126.3553   66.0281 H   0  0  0  0  0  0  0  0  0  0  0  0
  131.7603  125.4643   67.2325 H   0  0  0  0  0  0  0  0  0  0  0  0
  132.4773  124.6443   65.8041 H   0  0  0  0  0  0  0  0  0  0  0  0
  132.2674  126.4283   65.8041 H   0  0  0  0  0  0  0  0  0  0  0  0
  130.4881  123.2525   66.2492 H   0  0  0  0  0  0  0  0  0  0  0  0
  128.9478  123.7194   65.4117 H   0  0  0  0  0  0  0  0  0  0  0  0
  128.5830  125.0170   63.4520 H   0  0  0  0  0  0  0  0  0  0  0  0
  132.3417  122.8156   62.0926 H   0  0  0  0  0  0  0  0  0  0  0  0
  131.8840  122.0060   60.5558 H   0  0  0  0  0  0  0  0  0  0  0  0
  132.3317  123.7456   60.5558 H   0  0  0  0  0  0  0  0  0  0  0  0
  130.4043  123.9446   59.3283 H   0  0  0  0  0  0  0  0  0  0  0  0
  131.6450  125.6243   60.4439 H   0  0  0  0  0  0  0  0  0  0  0  0
  132.3256  128.2463   59.4624 H   0  0  0  0  0  0  0  0  0  0  0  0
  132.4538  128.3282   57.6294 H   0  0  0  0  0  0  0  0  0  0  0  0
  129.5714  130.6199   59.5658 H   0  0  0  0  0  0  0  0  0  0  0  0
  129.7672  128.8693   60.0610 H   0  0  0  0  0  0  0  0  0  0  0  0
  130.6463  130.4544   61.7863 H   0  0  0  0  0  0  0  0  0  0  0  0
  131.9068  129.3654   61.1284 H   0  0  0  0  0  0  0  0  0  0  0  0
  131.4090  132.1890   60.2610 H   0  0  0  0  0  0  0  0  0  0  0  0
  132.6065  131.6632   62.5246 H   0  0  0  0  0  0  0  0  0  0  0  0
  133.9756  131.2664   61.4316 H   0  0  0  0  0  0  0  0  0  0  0  0
  133.2769  132.9212   61.4316 H   0  0  0  0  0  0  0  0  0  0  0  0
  133.3246  131.9959   58.7653 H   0  0  0  0  0  0  0  0  0  0  0  0
  133.5156  130.2952   59.2836 H   0  0  0  0  0  0  0  0  0  0  0  0
  131.0387  131.5064   57.9071 H   0  0  0  0  0  0  0  0  0  0  0  0
  132.2829  130.4051   57.1514 H   0  0  0  0  0  0  0  0  0  0  0  0
  129.2118  126.4902   62.0071 H   0  0  0  0  0  0  0  0  0  0  0  0
  130.9910  127.8600   62.9730 H   0  0  0  0  0  0  0  0  0  0  0  0
  132.6937  125.4537   64.1237 H   0  0  0  0  0  0  0  0  0  0  0  0
  132.7657  124.5566   62.5691 H   0  0  0  0  0  0  0  0  0  0  0  0
  132.7347  126.3526   62.5691 H   0  0  0  0  0  0  0  0  0  0  0  0
  127.5596  125.3268   61.3304 H   0  0  0  0  0  0  0  0  0  0  0  0
  127.7858  126.4123   59.9171 H   0  0  0  0  0  0  0  0  0  0  0  0
  126.4578  125.2027   59.9171 H   0  0  0  0  0  0  0  0  0  0  0  0
  128.8907  125.6207   57.8549 H   0  0  0  0  0  0  0  0  0  0  0  0
  129.2232  123.8741   57.5990 H   0  0  0  0  0  0  0  0  0  0  0  0
  127.5306  124.4756   57.5990 H   0  0  0  0  0  0  0  0  0  0  0  0
  126.6208  123.2116   59.7874 H   0  0  0  0  0  0  0  0  0  0  0  0
  128.0267  122.4090   58.8588 H   0  0  0  0  0  0  0  0  0  0  0  0
  127.5883  122.5371   61.8297 H   0  0  0  0  0  0  0  0  0  0  0  0
  127.6368  121.0981   60.7241 H   0  0  0  0  0  0  0  0  0  0  0  0
  130.0094  121.6830   60.1777 H   0  0  0  0  0  0  0  0  0  0  0  0
  129.6960  121.2980   62.9520 H   0  0  0  0  0  0  0  0  0  0  0  0
  1  2  2  0
  2  3  1  0
  3  4  1  1
  3  5  1  0
  5  6  1  0
  6  7  2  0
  6  8  1  0
  8  9  1  1
  8 10  1  0
 10 11  1  6
 10 12  1  0
 12 13  1  0
 13 14  1  0
 14 15  1  0
 15 16  2  0
 15 17  1  0
 17 18  1  0
 18 19  1  0
 19 20  1  0
 20 21  1  0
 21 22  1  0
 21 23  1  0
 23 24  1  0
 13 25  1  0
 25 26  1  0
 25 27  1  0
 27 28  1  1
 27 29  1  0
 12 30  1  0
 30 31  1  0
 30 32  1  0
 30 33  1  0
 33 34  1  0
 34 35  1  0
 35 36  1  0
 29  3  1  0
 27  8  1  0
 35 10  1  0
 24 18  1  0
  1 37  1  0
  1 38  1  0
  2 39  1  0
  4 40  1  0
  4 41  1  0
  4 42  1  0
  5 43  1  0
  5 44  1  0
  9 45  1  0
 11 46  1  0
 11 47  1  0
 11 48  1  0
 12 49  1  6
 13 50  1  1
 17 51  1  0
 17 52  1  0
 19 53  1  0
 19 54  1  0
 20 55  1  0
 20 56  1  0
 21 57  1  0
 22 58  1  0
 22 59  1  0
 22 60  1  0
 23 61  1  0
 23 62  1  0
 24 63  1  0
 24 64  1  0
 25 65  1  1
 26 66  1  0
 28 67  1  0
 28 68  1  0
 28 69  1  0
 31 70  1  0
 31 71  1  0
 31 72  1  0
 32 73  1  0
 32 74  1  0
 32 75  1  0
 33 76  1  0
 33 77  1  0
 34 78  1  0
 34 79  1  0
 35 80  1  6
 36 81  1  0
M  CHG  1  21   1
M  END
>  <Binding energies>  (1) 
[-6.84]

>  <Ligand effiencies>  (1) 
[-0.17099999999999999]

>  <Interactions>  (1) 
["V-B:PRO:540:CA:9855, H-A:GLU:543:OE2:4910, V-B:GLU:543:CB:9878, H-A:TYR:531:OH:4795, V-A:TYR:484:CE2:4346, V-B:TYR:539:CE2:9848, V-B:GLU:543:CG:9879, V-B:TYR:539:C:9839, V-A:ASP:366:CG:3213, V-A:ASN:362:CB:3176, V-A:LEU:363:CD1:3189, V-B:TYR:539:CZ:9849, H-B:GLU:543:OE1:9881, H-B:TYR:539:OH:9850, V-A:TYR:484:CZ:4347, V-B:PRO:540:CB:9857, V-A:GLU:543:CD:4908, V-B:PRO:540:N:9856, V-A:HIS:456:CE1:4070, V-B:TYR:539:CD2:9846, V-B:GLU:543:CD:9880, V-A:ASP:366:CB:3212, V-A:LEU:475:CD2:4259, H-A:ARG:545:NH2:4928, V-A:ARG:545:CZ:4926, H-A:GLU:543:OE1:4909, H-B:GLU:543:OE2:9882, V-A:PRO:540:CB:4885, V-A:PRO:540:CA:4883, V-B:PRO:540:C:9853, H-A:TYR:484:OH:4348"]

$$$$
ZINC299810647-again1
     RDKit          3D

 81 84  0  0  0  0  0  0  0  0999 V2000
  129.4780  126.6640   67.9020 C   0  0  0  0  0  0  0  0  0  0  0  0
  129.3300  126.1540   66.6660 C   0  0  0  0  0  0  0  0  0  0  0  0
  130.3310  125.3210   65.8610 C   0  0  1  0  0  0  0  0  0  0  0  0
  131.6840  125.4570   66.6010 C   0  0  0  0  0  0  0  0  0  0  0  0
  129.8920  123.8250   65.7820 C   0  0  0  0  0  0  0  0  0  0  0  0
  130.4930  123.1170   64.5610 C   0  0  0  0  0  0  0  0  0  0  0  0
  131.1680  122.0960   64.6840 O   0  0  0  0  0  0  0  0  0  0  0  0
  130.2230  123.8770   63.2240 C   0  0  2  0  0  0  0  0  0  0  0  0
  128.8280  124.1450   63.2260 O   0  0  0  0  0  0  0  0  0  0  0  0
  130.5400  123.1270   61.8250 C   0  0  2  0  0  0  0  0  0  0  0  0
  132.0410  122.6610   61.7500 C   0  0  0  0  0  0  0  0  0  0  0  0
  130.2960  124.1240   60.5890 C   0  0  2  0  0  0  0  0  0  0  0  0
  130.9720  125.5240   60.8350 C   0  0  1  0  0  0  0  0  0  0  0  0
  130.7610  126.4150   59.7380 O   0  0  0  0  0  0  0  0  0  0  0  0
  130.0870  127.5920   59.8450 C   0  0  0  0  0  0  0  0  0  0  0  0
  128.8640  127.7160   59.9010 O   0  0  0  0  0  0  0  0  0  0  0  0
  130.9960  128.8310   59.9100 C   0  0  0  0  0  0  0  0  0  0  0  0
  130.8230  129.7100   61.1730 N   0  0  0  0  0  0  0  0  0  0  0  0
  129.3350  130.0600   61.3970 C   0  0  0  0  0  0  0  0  0  0  0  0
  129.2160  130.9410   62.6660 C   0  0  0  0  0  0  0  0  0  0  0  0
  130.0180  132.1680   62.5860 N   0  0  0  0  0  0  0  0  0  0  0  0
  129.4760  133.1650   61.6640 C   0  0  0  0  0  0  0  0  0  0  0  0
  131.4310  131.8500   62.3460 C   0  0  0  0  0  0  0  0  0  0  0  0
  131.6460  131.0170   61.0590 C   0  0  0  0  0  0  0  0  0  0  0  0
  130.6090  126.2010   62.1920 C   0  0  2  0  0  0  0  0  0  0  0  0
  131.2240  127.4750   62.3230 O   0  0  0  0  0  0  0  0  0  0  0  0
  130.9480  125.2800   63.4040 C   0  0  2  0  0  0  0  0  0  0  0  0
  132.5030  125.2410   63.6110 C   0  0  0  0  0  0  0  0  0  0  0  0
  130.3580  125.9410   64.5530 O   0  0  0  0  0  0  0  0  0  0  0  0
  128.8800  124.1340   59.8180 C   0  0  0  0  0  0  0  0  0  0  0  0
  127.9250  125.2560   60.3140 C   0  0  0  0  0  0  0  0  0  0  0  0
  129.1230  124.2830   58.2840 C   0  0  0  0  0  0  0  0  0  0  0  0
  128.0550  122.8130   59.9630 C   0  0  0  0  0  0  0  0  0  0  0  0
  128.2420  121.9740   61.2240 C   0  0  0  0  0  0  0  0  0  0  0  0
  129.7210  121.7940   61.5820 C   0  0  2  0  0  0  0  0  0  0  0  0
  129.8240  120.8000   62.5810 O   0  0  0  0  0  0  0  0  0  0  0  0
  128.6644  127.2480   68.3571 H   0  0  0  0  0  0  0  0  0  0  0  0
  130.4126  126.4971   68.4576 H   0  0  0  0  0  0  0  0  0  0  0  0
  128.3694  126.3615   66.1718 H   0  0  0  0  0  0  0  0  0  0  0  0
  131.5112  125.4396   67.6872 H   0  0  0  0  0  0  0  0  0  0  0  0
  132.3409  124.6204   66.3208 H   0  0  0  0  0  0  0  0  0  0  0  0
  132.1612  126.4076   66.3208 H   0  0  0  0  0  0  0  0  0  0  0  0
  130.2261  123.3076   66.6934 H   0  0  0  0  0  0  0  0  0  0  0  0
  128.7964  123.7954   65.6886 H   0  0  0  0  0  0  0  0  0  0  0  0
  128.6920  125.0410   63.5440 H   0  0  0  0  0  0  0  0  0  0  0  0
  132.4380  122.5378   62.7684 H   0  0  0  0  0  0  0  0  0  0  0  0
  132.1009  121.7020   61.2146 H   0  0  0  0  0  0  0  0  0  0  0  0
  132.6335  123.4175   61.2146 H   0  0  0  0  0  0  0  0  0  0  0  0
  130.8373  123.6224   59.7733 H   0  0  0  0  0  0  0  0  0  0  0  0
  132.0467  125.3007   60.9063 H   0  0  0  0  0  0  0  0  0  0  0  0
  132.0408  128.4888   59.8740 H   0  0  0  0  0  0  0  0  0  0  0  0
  130.7112  129.4637   59.0564 H   0  0  0  0  0  0  0  0  0  0  0  0
  131.1520  129.1990   61.9800 H   0  0  0  0  0  0  0  0  0  0  0  0
  128.9496  130.6112   60.5266 H   0  0  0  0  0  0  0  0  0  0  0  0
  128.7489  129.1380   61.5252 H   0  0  0  0  0  0  0  0  0  0  0  0
  128.1606  131.2196   62.8023 H   0  0  0  0  0  0  0  0  0  0  0  0
  129.5964  130.3523   63.5138 H   0  0  0  0  0  0  0  0  0  0  0  0
  129.0277  133.9896   62.2377 H   0  0  0  0  0  0  0  0  0  0  0  0
  130.2853  133.5567   61.0303 H   0  0  0  0  0  0  0  0  0  0  0  0
  128.7072  132.6988   61.0303 H   0  0  0  0  0  0  0  0  0  0  0  0
  131.9927  132.7912   62.2538 H   0  0  0  0  0  0  0  0  0  0  0  0
  131.7845  131.2466   63.1951 H   0  0  0  0  0  0  0  0  0  0  0  0
  131.3083  131.5924   60.1844 H   0  0  0  0  0  0  0  0  0  0  0  0
  132.7134  130.7797   60.9390 H   0  0  0  0  0  0  0  0  0  0  0  0
  129.5204  126.3588   62.1931 H   0  0  0  0  0  0  0  0  0  0  0  0
  131.2320  127.7160   63.2530 H   0  0  0  0  0  0  0  0  0  0  0  0
  132.7296  125.2353   64.6874 H   0  0  0  0  0  0  0  0  0  0  0  0
  132.9122  124.3323   63.1454 H   0  0  0  0  0  0  0  0  0  0  0  0
  132.9573  126.1280   63.1454 H   0  0  0  0  0  0  0  0  0  0  0  0
  127.9142  125.2687   61.4139 H   0  0  0  0  0  0  0  0  0  0  0  0
  128.2765  126.2288   59.9395 H   0  0  0  0  0  0  0  0  0  0  0  0
  126.9086  125.0645   59.9395 H   0  0  0  0  0  0  0  0  0  0  0  0
  130.0493  124.8510   58.1130 H   0  0  0  0  0  0  0  0  0  0  0  0
  129.2150  123.2859   57.8288 H   0  0  0  0  0  0  0  0  0  0  0  0
  128.2760  124.8172   57.8288 H   0  0  0  0  0  0  0  0  0  0  0  0
  126.9910  123.0868   59.9097 H   0  0  0  0  0  0  0  0  0  0  0  0
  128.4302  122.1702   59.1530 H   0  0  0  0  0  0  0  0  0  0  0  0
  127.7326  122.4735   62.0612 H   0  0  0  0  0  0  0  0  0  0  0  0
  127.8155  120.9779   61.0347 H   0  0  0  0  0  0  0  0  0  0  0  0
  130.2540  121.4302   60.6911 H   0  0  0  0  0  0  0  0  0  0  0  0
  129.6630  121.2060   63.4370 H   0  0  0  0  0  0  0  0  0  0  0  0
  1  2  2  0
  2  3  1  0
  3  4  1  1
  3  5  1  0
  5  6  1  0
  6  7  2  0
  6  8  1  0
  8  9  1  6
  8 10  1  0
 10 11  1  1
 10 12  1  0
 12 13  1  0
 13 14  1  0
 14 15  1  0
 15 16  2  0
 15 17  1  0
 17 18  1  0
 18 19  1  0
 19 20  1  0
 20 21  1  0
 21 22  1  0
 21 23  1  0
 23 24  1  0
 13 25  1  0
 25 26  1  0
 25 27  1  0
 27 28  1  1
 27 29  1  0
 12 30  1  0
 30 31  1  0
 30 32  1  0
 30 33  1  0
 33 34  1  0
 34 35  1  0
 35 36  1  0
 29  3  1  0
 27  8  1  0
 35 10  1  0
 24 18  1  0
  1 37  1  0
  1 38  1  0
  2 39  1  0
  4 40  1  0
  4 41  1  0
  4 42  1  0
  5 43  1  0
  5 44  1  0
  9 45  1  0
 11 46  1  0
 11 47  1  0
 11 48  1  0
 12 49  1  6
 13 50  1  1
 17 51  1  0
 17 52  1  0
 18 53  1  0
 19 54  1  0
 19 55  1  0
 20 56  1  0
 20 57  1  0
 22 58  1  0
 22 59  1  0
 22 60  1  0
 23 61  1  0
 23 62  1  0
 24 63  1  0
 24 64  1  0
 25 65  1  6
 26 66  1  0
 28 67  1  0
 28 68  1  0
 28 69  1  0
 31 70  1  0
 31 71  1  0
 31 72  1  0
 32 73  1  0
 32 74  1  0
 32 75  1  0
 33 76  1  0
 33 77  1  0
 34 78  1  0
 34 79  1  0
 35 80  1  6
 36 81  1  0
M  CHG  1  18   1
M  END
>  <Binding energies>  (1) 
[-7.81]

>  <Ligand effiencies>  (1) 
[-0.19524999999999998]

>  <Interactions>  (1) 
["V-B:PRO:540:CA:9855, H-A:GLU:543:OE2:4910, H-A:ALA:541:N:4891, V-B:GLU:543:CB:9878, V-A:PRO:540:C:4881, V-B:ALA:541:CB:9864, V-B:TYR:539:CE2:9848, V-A:TYR:484:CE2:4346, V-B:GLU:543:CG:9879, V-A:ASP:366:CG:3213, V-B:TYR:539:CZ:9849, H-B:GLU:543:OE1:9881, V-A:ALA:541:CB:4892, V-A:TYR:484:CZ:4347, V-A:GLU:543:CD:4908, V-B:GLU:543:CA:9876, V-B:PRO:540:N:9856, V-A:HIS:456:CE1:4070, V-A:ALA:541:CA:4890, V-A:GLU:543:CG:4907, V-B:GLU:543:CD:9880, V-A:LEU:475:CD2:4259, H-A:ARG:545:NH2:4928, V-A:ARG:545:CZ:4926, H-A:GLU:543:OE1:4909, H-B:GLU:543:OE2:9882, V-A:PRO:540:CA:4883, V-B:PRO:540:C:9853, H-A:ASP:366:OD2:3215, H-A:TYR:484:OH:4348"]

$$$$
ZINC299818542
     RDKit          3D

105108  0  0  0  0  0  0  0  0999 V2000
  127.5590  132.1920   57.9530 C   0  0  0  0  0  0  0  0  0  0  0  0
  126.3920  131.5470   58.4520 O   0  0  0  0  0  0  0  0  0  0  0  0
  126.5130  130.5860   59.4410 C   0  0  0  0  0  0  0  0  0  0  0  0
  126.2780  130.8380   60.8050 C   0  0  0  0  0  0  0  0  0  0  0  0
  126.3990  129.8250   61.7610 C   0  0  0  0  0  0  0  0  0  0  0  0
  126.8130  128.5560   61.3490 C   0  0  0  0  0  0  0  0  0  0  0  0
  127.0320  128.2770   59.9980 C   0  0  0  0  0  0  0  0  0  0  0  0
  126.8840  129.2930   59.0410 C   0  0  0  0  0  0  0  0  0  0  0  0
  127.1510  128.9610   57.3590 Cl  0  0  0  0  0  0  0  0  0  0  0  0
  127.3920  126.9670   59.6360 N   0  0  0  0  0  0  0  0  0  0  0  0
  128.3070  126.8350   58.4960 C   0  0  0  0  0  0  0  0  0  0  0  0
  127.1280  125.9080   60.4540 C   0  0  0  0  0  0  0  0  0  0  0  0
  126.1950  125.9190   61.2600 O   0  0  0  0  0  0  0  0  0  0  0  0
  128.0620  124.6720   60.4000 C   0  0  0  0  0  0  0  0  0  0  0  0
  128.9890  124.4590   61.6280 C   0  0  2  0  0  0  0  0  0  0  0  0
  130.3390  124.7750   61.2770 O   0  0  0  0  0  0  0  0  0  0  0  0
  131.2120  123.8570   60.7890 C   0  0  0  0  0  0  0  0  0  0  0  0
  130.9910  122.6470   60.7100 O   0  0  0  0  0  0  0  0  0  0  0  0
  132.5570  124.4890   60.4140 C   0  0  1  0  0  0  0  0  0  0  0  0
  133.7590  123.5560   60.7030 C   0  0  0  0  0  0  0  0  0  0  0  0
  132.5740  124.9610   58.9950 N   0  0  0  0  0  0  0  0  0  0  0  0
  133.7380  124.4610   58.2510 C   0  0  0  0  0  0  0  0  0  0  0  0
  131.6730  125.8330   58.4480 C   0  0  0  0  0  0  0  0  0  0  0  0
  130.8080  125.4570   57.6520 O   0  0  0  0  0  0  0  0  0  0  0  0
  131.7130  127.3260   58.8510 C   0  0  0  0  0  0  0  0  0  0  0  0
  130.9820  127.6860   60.1660 C   0  0  0  0  0  0  0  0  0  0  0  0
  130.2370  129.0350   60.1430 C   0  0  0  0  0  0  0  0  0  0  0  0
  131.0150  130.3560   61.1130 S   0  0  0  0  0  0  0  0  0  0  0  0
  130.7490  132.0520   60.0050 S   0  0  0  0  0  0  0  0  0  0  0  0
  130.8170  131.5000   58.2810 C   0  0  0  0  0  0  0  0  0  0  0  0
  128.9470  122.9960   62.1540 C   0  0  2  0  0  0  0  0  0  0  0  0
  128.5190  121.9460   61.1040 C   0  0  0  0  0  0  0  0  0  0  0  0
  128.4220  122.7950   63.4440 O   0  0  0  0  0  0  0  0  0  0  0  0
  129.7830  122.4870   63.3100 C   0  0  2  0  0  0  0  0  0  0  0  0
  130.8160  123.2560   64.1920 C   0  0  1  0  0  0  0  0  0  0  0  0
  132.1660  122.5110   64.1560 C   0  0  0  0  0  0  0  0  0  0  0  0
  131.0090  124.8090   64.0640 C   0  0  1  0  0  0  0  0  0  0  0  0
  130.0310  125.7330   64.8500 C   0  0  0  0  0  0  0  0  0  0  0  0
  130.2300  125.6890   66.3960 C   0  0  1  0  0  0  0  0  0  0  0  0
  129.7730  124.4430   66.8950 O   0  0  0  0  0  0  0  0  0  0  0  0
  131.6820  125.7770   66.5910 N   0  0  0  0  0  0  0  0  0  0  0  0
  132.7120  125.4400   65.7150 C   0  0  0  0  0  0  0  0  0  0  0  0
  133.9040  125.4610   66.0090 O   0  0  0  0  0  0  0  0  0  0  0  0
  132.3680  125.1480   64.4180 O   0  0  0  0  0  0  0  0  0  0  0  0
  129.4450  126.8070   67.1430 C   0  0  2  0  0  0  0  0  0  0  0  0
  128.9590  126.2800   68.3820 O   0  0  0  0  0  0  0  0  0  0  0  0
  128.8410  127.2170   69.4440 C   0  0  0  0  0  0  0  0  0  0  0  0
  128.3200  127.4140   66.3070 C   0  0  0  0  0  0  0  0  0  0  0  0
  127.9600  128.7080   66.3340 C   0  0  0  0  0  0  0  0  0  0  0  0
  126.9950  129.2660   65.4030 C   0  0  0  0  0  0  0  0  0  0  0  0
  127.2590  129.7790   64.1810 C   0  0  0  0  0  0  0  0  0  0  0  0
  128.6530  129.9770   63.5930 C   0  0  0  0  0  0  0  0  0  0  0  0
  126.1130  130.1340   63.2340 C   0  0  0  0  0  0  0  0  0  0  0  0
  128.1777  132.5339   58.7958 H   0  0  0  0  0  0  0  0  0  0  0  0
  128.1349  131.4841   57.3388 H   0  0  0  0  0  0  0  0  0  0  0  0
  127.2660  133.0563   57.3388 H   0  0  0  0  0  0  0  0  0  0  0  0
  125.9937  131.8512   61.1254 H   0  0  0  0  0  0  0  0  0  0  0  0
  126.9686  127.7660   62.0985 H   0  0  0  0  0  0  0  0  0  0  0  0
  129.3328  126.6870   58.8644 H   0  0  0  0  0  0  0  0  0  0  0  0
  128.0087  125.9706   57.8846 H   0  0  0  0  0  0  0  0  0  0  0  0
  128.2652  127.7485   57.8846 H   0  0  0  0  0  0  0  0  0  0  0  0
  127.4297  123.7777   60.2976 H   0  0  0  0  0  0  0  0  0  0  0  0
  128.7364  124.8495   59.5493 H   0  0  0  0  0  0  0  0  0  0  0  0
  128.6236  125.1240   62.4244 H   0  0  0  0  0  0  0  0  0  0  0  0
  132.6703  125.3684   61.0650 H   0  0  0  0  0  0  0  0  0  0  0  0
  133.8907  123.4538   61.7903 H   0  0  0  0  0  0  0  0  0  0  0  0
  133.5693  122.5663   60.2620 H   0  0  0  0  0  0  0  0  0  0  0  0
  134.6707  123.9853   60.2620 H   0  0  0  0  0  0  0  0  0  0  0  0
  134.5111  124.1289   58.9596 H   0  0  0  0  0  0  0  0  0  0  0  0
  133.4327  123.6146   57.6182 H   0  0  0  0  0  0  0  0  0  0  0  0
  134.1417  125.2651   57.6182 H   0  0  0  0  0  0  0  0  0  0  0  0
  132.7678  127.6185   58.9598 H   0  0  0  0  0  0  0  0  0  0  0  0
  131.1801  127.8658   58.0544 H   0  0  0  0  0  0  0  0  0  0  0  0
  130.2488  126.8938   60.3779 H   0  0  0  0  0  0  0  0  0  0  0  0
  131.7601  127.7752   60.9384 H   0  0  0  0  0  0  0  0  0  0  0  0
  130.1725  129.3716   59.0978 H   0  0  0  0  0  0  0  0  0  0  0  0
  129.2551  128.8522   60.6038 H   0  0  0  0  0  0  0  0  0  0  0  0
  130.9514  130.4087   58.2505 H   0  0  0  0  0  0  0  0  0  0  0  0
  129.8790  131.7683   57.7728 H   0  0  0  0  0  0  0  0  0  0  0  0
  131.6618  131.9879   57.7728 H   0  0  0  0  0  0  0  0  0  0  0  0
  128.1515  121.0444   61.6158 H   0  0  0  0  0  0  0  0  0  0  0  0
  127.7187  122.3621   60.4744 H   0  0  0  0  0  0  0  0  0  0  0  0
  129.3821  121.6841   60.4744 H   0  0  0  0  0  0  0  0  0  0  0  0
  130.4791  121.6393   63.3929 H   0  0  0  0  0  0  0  0  0  0  0  0
  130.3224  123.2364   65.1749 H   0  0  0  0  0  0  0  0  0  0  0  0
  132.5081  122.3222   65.1843 H   0  0  0  0  0  0  0  0  0  0  0  0
  132.0424  121.5534   63.6290 H   0  0  0  0  0  0  0  0  0  0  0  0
  132.9103  123.1261   63.6290 H   0  0  0  0  0  0  0  0  0  0  0  0
  130.7679  125.0137   63.0104 H   0  0  0  0  0  0  0  0  0  0  0  0
  130.1829  126.7680   64.5100 H   0  0  0  0  0  0  0  0  0  0  0  0
  129.0131  125.3687   64.6473 H   0  0  0  0  0  0  0  0  0  0  0  0
  129.2540  124.6080   67.6840 H   0  0  0  0  0  0  0  0  0  0  0  0
  131.9810  125.9720   67.5340 H   0  0  0  0  0  0  0  0  0  0  0  0
  130.1365  127.6399   67.3383 H   0  0  0  0  0  0  0  0  0  0  0  0
  128.9074  126.6898   70.4072 H   0  0  0  0  0  0  0  0  0  0  0  0
  129.6532  127.9554   69.3734 H   0  0  0  0  0  0  0  0  0  0  0  0
  127.8710  127.7310   69.3734 H   0  0  0  0  0  0  0  0  0  0  0  0
  127.7647  126.7435   65.6346 H   0  0  0  0  0  0  0  0  0  0  0  0
  128.4123  129.3686   67.0883 H   0  0  0  0  0  0  0  0  0  0  0  0
  125.9432  129.2716   65.7250 H   0  0  0  0  0  0  0  0  0  0  0  0
  129.3837  130.0808   64.4087 H   0  0  0  0  0  0  0  0  0  0  0  0
  128.9164  129.1073   62.9732 H   0  0  0  0  0  0  0  0  0  0  0  0
  128.6638  130.8857   62.9732 H   0  0  0  0  0  0  0  0  0  0  0  0
  125.2232  129.5641   63.5399 H   0  0  0  0  0  0  0  0  0  0  0  0
  125.9672  131.2219   63.3070 H   0  0  0  0  0  0  0  0  0  0  0  0
  1  2  1  0
  2  3  1  0
  3  4  2  0
  4  5  1  0
  5  6  2  0
  6  7  1  0
  7  8  2  0
  8  9  1  0
  7 10  1  0
 10 11  1  0
 10 12  1  0
 12 13  2  0
 12 14  1  0
 14 15  1  0
 15 16  1  0
 16 17  1  0
 17 18  2  0
 17 19  1  0
 19 20  1  0
 19 21  1  0
 21 22  1  0
 21 23  1  0
 23 24  2  0
 23 25  1  0
 25 26  1  0
 26 27  1  0
 27 28  1  0
 28 29  1  0
 29 30  1  0
 15 31  1  0
 31 32  1  6
 31 33  1  0
 33 34  1  0
 34 35  1  0
 35 36  1  0
 35 37  1  0
 37 38  1  0
 38 39  1  0
 39 40  1  1
 39 41  1  0
 41 42  1  0
 42 43  2  0
 42 44  1  0
 39 45  1  0
 45 46  1  0
 46 47  1  0
 45 48  1  0
 48 49  2  0
 49 50  1  0
 50 51  2  0
 51 52  1  0
 51 53  1  0
  8  3  1  0
 34 31  1  0
 44 37  1  0
 53  5  1  0
  1 54  1  0
  1 55  1  0
  1 56  1  0
  4 57  1  0
  6 58  1  0
 11 59  1  0
 11 60  1  0
 11 61  1  0
 14 62  1  0
 14 63  1  0
 15 64  1  1
 19 65  1  1
 20 66  1  0
 20 67  1  0
 20 68  1  0
 22 69  1  0
 22 70  1  0
 22 71  1  0
 25 72  1  0
 25 73  1  0
 26 74  1  0
 26 75  1  0
 27 76  1  0
 27 77  1  0
 30 78  1  0
 30 79  1  0
 30 80  1  0
 32 81  1  0
 32 82  1  0
 32 83  1  0
 34 84  1  6
 35 85  1  1
 36 86  1  0
 36 87  1  0
 36 88  1  0
 37 89  1  6
 38 90  1  0
 38 91  1  0
 40 92  1  0
 41 93  1  0
 45 94  1  1
 47 95  1  0
 47 96  1  0
 47 97  1  0
 48 98  1  0
 49 99  1  0
 50100  1  0
 52101  1  0
 52102  1  0
 52103  1  0
 53104  1  0
 53105  1  0
M  END
>  <Binding energies>  (1) 
[-2.53]

>  <Ligand effiencies>  (1) 
[-0.044385964912280695]

>  <Interactions>  (1) 
["V-A:ILE:369:CG2:3237, V-A:ASP:366:CA:3210, V-B:PRO:540:CA:9855, V-A:GLY:454:CA:4049, H-A:GLU:543:OE2:4910, H-B:GLU:543:O:9875, V-A:ILE:369:CB:3236, V-B:GLU:543:CB:9878, V-B:ALA:541:CB:9864, H-A:TYR:531:OH:4795, V-B:TYR:539:CE2:9848, V-B:GLU:543:CG:9879, V-A:ASP:366:CG:3213, V-A:TYR:539:CD1:4873, V-B:TYR:539:CZ:9849, V-A:TYR:539:CZ:4877, H-B:TYR:539:OH:9850, V-A:GLU:543:CD:4908, V-A:TYR:484:CZ:4347, V-B:HIS:456:CE1:9041, H-A:GLY:454:N:4050, V-A:HIS:456:CE1:4070, V-A:ILE:369:CD1:3239, V-A:ASP:366:C:3208, V-A:GLU:543:CG:4907, V-B:GLU:543:CD:9880, V-A:ASP:366:CB:3212, V-A:ARG:545:CD:4923, V-A:LEU:475:CD2:4259, H-A:ARG:545:NH2:4928, V-A:ARG:545:CZ:4926, H-B:ARG:545:NH2:9900, H-A:ARG:545:NE:4924, V-B:PRO:540:C:9853, V-A:TYR:539:CE1:4875, H-A:TYR:484:OH:4348"]

$$$$
ZINC299824426
     RDKit          3D

117120  0  0  0  0  0  0  0  0999 V2000
  128.8020  128.1400   68.7790 C   0  0  0  0  0  0  0  0  0  0  0  0
  128.3430  129.0840   67.9430 C   0  0  0  0  0  0  0  0  0  0  0  0
  127.2670  128.8580   66.8960 C   0  0  0  0  0  0  0  0  0  0  0  0
  127.8070  128.8160   65.5290 N   0  0  0  0  0  0  0  0  0  0  0  0
  127.3930  129.9500   64.6820 C   0  0  0  0  0  0  0  0  0  0  0  0
  128.4890  130.9280   64.2730 C   0  0  0  0  0  0  0  0  0  0  0  0
  128.6010  132.2150   64.6430 C   0  0  0  0  0  0  0  0  0  0  0  0
  128.6310  127.8140   65.1170 C   0  0  0  0  0  0  0  0  0  0  0  0
  128.9930  126.9140   65.8770 O   0  0  0  0  0  0  0  0  0  0  0  0
  129.1060  127.8050   63.6510 C   0  0  0  0  0  0  0  0  0  0  0  0
  128.1280  127.2140   62.7840 O   0  0  0  0  0  0  0  0  0  0  0  0
  128.2110  125.8660   62.4600 C   0  0  0  0  0  0  0  0  0  0  0  0
  128.7750  124.9560   63.3560 C   0  0  0  0  0  0  0  0  0  0  0  0
  128.9430  123.6260   63.0410 C   0  0  0  0  0  0  0  0  0  0  0  0
  128.4880  123.1170   61.8230 C   0  0  0  0  0  0  0  0  0  0  0  0
  128.6260  121.7590   61.6370 O   0  0  0  0  0  0  0  0  0  0  0  0
  127.9110  123.9980   60.8190 C   0  0  0  0  0  0  0  0  0  0  0  0
  127.4990  123.5630   59.4810 C   0  0  0  0  0  0  0  0  0  0  0  0
  127.5990  122.3420   59.1000 O   0  0  0  0  0  0  0  0  0  0  0  0
  126.9950  124.4900   58.5440 C   0  0  0  0  0  0  0  0  0  0  0  0
  126.5840  124.0970   57.1110 C   0  0  0  0  0  0  0  0  0  0  0  0
  126.8660  125.8110   58.9330 C   0  0  0  0  0  0  0  0  0  0  0  0
  127.1870  126.2810   60.1910 C   0  0  0  0  0  0  0  0  0  0  0  0
  127.7570  125.3980   61.1710 C   0  0  0  0  0  0  0  0  0  0  0  0
  126.7860  127.7130   60.1920 C   0  0  0  0  0  0  0  0  0  0  0  0
  126.6580  128.5870   61.0460 O   0  0  0  0  0  0  0  0  0  0  0  0
  126.5720  128.0150   58.6700 C   0  0  1  0  0  0  0  0  0  0  0  0
  125.3730  128.9040   58.3500 C   0  0  0  0  0  0  0  0  0  0  0  0
  127.7310  128.7020   58.2440 O   0  0  0  0  0  0  0  0  0  0  0  0
  127.6250  130.0340   58.0080 C   0  0  0  0  0  0  0  0  0  0  0  0
  127.6560  131.0010   58.9480 C   0  0  0  0  0  0  0  0  0  0  0  0
  127.8450  130.8240   60.4570 C   0  0  2  0  0  0  0  0  0  0  0  0
  127.0900  131.8090   61.1640 O   0  0  0  0  0  0  0  0  0  0  0  0
  125.6940  131.8200   60.9140 C   0  0  0  0  0  0  0  0  0  0  0  0
  129.3230  130.9240   60.9430 C   0  0  2  0  0  0  0  0  0  0  0  0
  129.7590  132.3390   61.3980 C   0  0  0  0  0  0  0  0  0  0  0  0
  130.3640  130.2040   60.0070 C   0  0  2  0  0  0  0  0  0  0  0  0
  130.2240  130.7070   58.6690 O   0  0  0  0  0  0  0  0  0  0  0  0
  130.8900  131.8000   58.2290 C   0  0  0  0  0  0  0  0  0  0  0  0
  132.3910  131.6920   58.4690 C   0  0  0  0  0  0  0  0  0  0  0  0
  130.3950  132.7960   57.7010 O   0  0  0  0  0  0  0  0  0  0  0  0
  130.4470  128.6270   59.8940 C   0  0  2  0  0  0  0  0  0  0  0  0
  130.5960  127.8670   61.2340 C   0  0  0  0  0  0  0  0  0  0  0  0
  131.5590  128.2240   58.8490 C   0  0  2  0  0  0  0  0  0  0  0  0
  131.4470  129.0410   57.6940 O   0  0  0  0  0  0  0  0  0  0  0  0
  131.6450  126.7380   58.3470 C   0  0  2  0  0  0  0  0  0  0  0  0
  130.6790  126.4900   57.1540 C   0  0  0  0  0  0  0  0  0  0  0  0
  131.6150  125.6620   59.5020 C   0  0  1  0  0  0  0  0  0  0  0  0
  130.2700  125.3830   59.8660 O   0  0  0  0  0  0  0  0  0  0  0  0
  132.3040  124.2870   59.1990 C   0  0  1  0  0  0  0  0  0  0  0  0
  133.8150  124.3890   58.9080 C   0  0  0  0  0  0  0  0  0  0  0  0
  132.0690  123.1040   60.1590 C   0  0  0  0  0  0  0  0  0  0  0  0
  132.0600  122.9570   61.5040 C   0  0  0  0  0  0  0  0  0  0  0  0
  132.2660  123.9480   62.5610 C   0  0  0  0  0  0  0  0  0  0  0  0
  131.7110  123.9440   63.7990 C   0  0  0  0  0  0  0  0  0  0  0  0
  131.9260  125.0680   64.8040 C   0  0  0  0  0  0  0  0  0  0  0  0
  130.8990  122.8510   64.3140 C   0  0  0  0  0  0  0  0  0  0  0  0
  131.3950  121.9790   65.0260 O   0  0  0  0  0  0  0  0  0  0  0  0
  129.5840  122.8050   63.9880 N   0  0  0  0  0  0  0  0  0  0  0  0
  126.3810  126.7720   58.0880 O   0  0  0  0  0  0  0  0  0  0  0  0
  129.5855  128.3870   69.5105 H   0  0  0  0  0  0  0  0  0  0  0  0
  128.3948  127.1192   68.7328 H   0  0  0  0  0  0  0  0  0  0  0  0
  128.7766  130.0919   68.0218 H   0  0  0  0  0  0  0  0  0  0  0  0
  126.7663  127.9014   67.1064 H   0  0  0  0  0  0  0  0  0  0  0  0
  126.5661  129.7040   66.9511 H   0  0  0  0  0  0  0  0  0  0  0  0
  126.9529  129.5372   63.7623 H   0  0  0  0  0  0  0  0  0  0  0  0
  126.6953  130.5353   65.2989 H   0  0  0  0  0  0  0  0  0  0  0  0
  129.2708  130.5388   63.6042 H   0  0  0  0  0  0  0  0  0  0  0  0
  129.4434  132.8209   64.2780 H   0  0  0  0  0  0  0  0  0  0  0  0
  127.8502  132.6626   65.3108 H   0  0  0  0  0  0  0  0  0  0  0  0
  129.2899  128.8405   63.3287 H   0  0  0  0  0  0  0  0  0  0  0  0
  130.0267  127.2062   63.5907 H   0  0  0  0  0  0  0  0  0  0  0  0
  129.0956  125.3130   64.3458 H   0  0  0  0  0  0  0  0  0  0  0  0
  128.2770  121.4620   60.7940 H   0  0  0  0  0  0  0  0  0  0  0  0
  125.7895  123.3373   57.1527 H   0  0  0  0  0  0  0  0  0  0  0  0
  126.2139  124.9858   56.5789 H   0  0  0  0  0  0  0  0  0  0  0  0
  127.4553  123.6875   56.5789 H   0  0  0  0  0  0  0  0  0  0  0  0
  124.9104  129.2470   59.2872 H   0  0  0  0  0  0  0  0  0  0  0  0
  125.7073  129.7743   57.7661 H   0  0  0  0  0  0  0  0  0  0  0  0
  124.6374  128.3313   57.7661 H   0  0  0  0  0  0  0  0  0  0  0  0
  127.5036  130.3521   56.9620 H   0  0  0  0  0  0  0  0  0  0  0  0
  127.5314  132.0336   58.5898 H   0  0  0  0  0  0  0  0  0  0  0  0
  127.4970  129.8019   60.6673 H   0  0  0  0  0  0  0  0  0  0  0  0
  125.1503  131.8243   61.8702 H   0  0  0  0  0  0  0  0  0  0  0  0
  125.4316  132.7202   60.3389 H   0  0  0  0  0  0  0  0  0  0  0  0
  125.4174  130.9240   60.3389 H   0  0  0  0  0  0  0  0  0  0  0  0
  129.3309  130.3311   61.8695 H   0  0  0  0  0  0  0  0  0  0  0  0
  129.7725  132.3828   62.4970 H   0  0  0  0  0  0  0  0  0  0  0  0
  130.7654  132.5550   61.0100 H   0  0  0  0  0  0  0  0  0  0  0  0
  129.0487  133.0840   61.0100 H   0  0  0  0  0  0  0  0  0  0  0  0
  131.2919  130.4516   60.5435 H   0  0  0  0  0  0  0  0  0  0  0  0
  132.5892  131.6777   59.5509 H   0  0  0  0  0  0  0  0  0  0  0  0
  132.7692  130.7643   58.0147 H   0  0  0  0  0  0  0  0  0  0  0  0
  132.8981  132.5560   58.0147 H   0  0  0  0  0  0  0  0  0  0  0  0
  129.4617  128.2983   59.5319 H   0  0  0  0  0  0  0  0  0  0  0  0
  130.4586  128.5681   62.0704 H   0  0  0  0  0  0  0  0  0  0  0  0
  129.8363  127.0736   61.2920 H   0  0  0  0  0  0  0  0  0  0  0  0
  131.5990  127.4192   61.2920 H   0  0  0  0  0  0  0  0  0  0  0  0
  132.4747  128.3684   59.4412 H   0  0  0  0  0  0  0  0  0  0  0  0
  130.5170  129.1390   57.4800 H   0  0  0  0  0  0  0  0  0  0  0  0
  132.6535  126.5857   57.9350 H   0  0  0  0  0  0  0  0  0  0  0  0
  129.6805  126.2337   57.5379 H   0  0  0  0  0  0  0  0  0  0  0  0
  130.6132  127.4004   56.5401 H   0  0  0  0  0  0  0  0  0  0  0  0
  131.0599  125.6605   56.5401 H   0  0  0  0  0  0  0  0  0  0  0  0
  132.2010  126.1328   60.3051 H   0  0  0  0  0  0  0  0  0  0  0  0
  130.0320  124.5220   59.5150 H   0  0  0  0  0  0  0  0  0  0  0  0
  131.7414  124.0318   58.2889 H   0  0  0  0  0  0  0  0  0  0  0  0
  134.3695  124.4264   59.8573 H   0  0  0  0  0  0  0  0  0  0  0  0
  134.1371  123.5106   58.3296 H   0  0  0  0  0  0  0  0  0  0  0  0
  134.0161  125.3028   58.3296 H   0  0  0  0  0  0  0  0  0  0  0  0
  131.8608  122.1631   59.6287 H   0  0  0  0  0  0  0  0  0  0  0  0
  131.8680  121.9334   61.8581 H   0  0  0  0  0  0  0  0  0  0  0  0
  132.9418  124.7839   62.3272 H   0  0  0  0  0  0  0  0  0  0  0  0
  131.8492  124.6664   65.8252 H   0  0  0  0  0  0  0  0  0  0  0  0
  132.9242  125.5059   64.6563 H   0  0  0  0  0  0  0  0  0  0  0  0
  131.1599  125.8434   64.6563 H   0  0  0  0  0  0  0  0  0  0  0  0
  129.0290  122.0570   64.3760 H   0  0  0  0  0  0  0  0  0  0  0  0
  1  2  2  0
  2  3  1  0
  3  4  1  0
  4  5  1  0
  5  6  1  0
  6  7  2  0
  4  8  1  0
  8  9  2  0
  8 10  1  0
 10 11  1  0
 11 12  1  0
 12 13  1  0
 13 14  2  0
 14 15  1  0
 15 16  1  0
 15 17  2  0
 17 18  1  0
 18 19  1  0
 18 20  2  0
 20 21  1  0
 20 22  1  0
 22 23  2  0
 23 24  1  0
 23 25  1  0
 25 26  2  0
 25 27  1  0
 27 28  1  1
 27 29  1  0
 29 30  1  0
 30 31  2  0
 31 32  1  0
 32 33  1  0
 33 34  1  0
 32 35  1  0
 35 36  1  0
 35 37  1  0
 37 38  1  0
 38 39  1  0
 39 40  1  0
 39 41  2  0
 37 42  1  0
 42 43  1  0
 42 44  1  0
 44 45  1  0
 44 46  1  0
 46 47  1  0
 46 48  1  0
 48 49  1  0
 48 50  1  0
 50 51  1  0
 50 52  1  0
 52 53  2  0
 53 54  1  0
 54 55  2  0
 55 56  1  0
 55 57  1  0
 57 58  2  0
 57 59  1  0
 27 60  1  0
 24 12  2  0
 59 14  1  0
 24 17  1  0
 60 22  1  0
  1 61  1  0
  1 62  1  0
  2 63  1  0
  3 64  1  0
  3 65  1  0
  5 66  1  0
  5 67  1  0
  6 68  1  0
  7 69  1  0
  7 70  1  0
 10 71  1  0
 10 72  1  0
 13 73  1  0
 16 74  1  0
 21 75  1  0
 21 76  1  0
 21 77  1  0
 28 78  1  0
 28 79  1  0
 28 80  1  0
 30 81  1  0
 31 82  1  0
 32 83  1  1
 34 84  1  0
 34 85  1  0
 34 86  1  0
 35 87  1  1
 36 88  1  0
 36 89  1  0
 36 90  1  0
 37 91  1  1
 40 92  1  0
 40 93  1  0
 40 94  1  0
 42 95  1  6
 43 96  1  0
 43 97  1  0
 43 98  1  0
 44 99  1  1
 45100  1  0
 46101  1  6
 47102  1  0
 47103  1  0
 47104  1  0
 48105  1  1
 49106  1  0
 50107  1  6
 51108  1  0
 51109  1  0
 51110  1  0
 52111  1  0
 53112  1  0
 54113  1  0
 56114  1  0
 56115  1  0
 56116  1  0
 59117  1  0
M  CHG  1  19  -1
M  END
>  <Binding energies>  (1) 
[-2.24]

>  <Ligand effiencies>  (1) 
[-0.03393939393939394]

>  <Interactions>  (1) 
["V-A:ILE:369:CG2:3237, V-A:ASP:366:CA:3210, V-B:PRO:540:CA:9855, V-A:ILE:369:CB:3236, V-A:PRO:540:C:4881, V-B:ASP:366:CG:8184, V-B:ALA:541:CB:9864, H-A:TYR:531:OH:4795, V-A:TYR:484:CE2:4346, V-B:TYR:539:CE2:9848, V-B:GLU:543:CG:9879, V-A:ASP:366:CG:3213, V-A:LEU:363:CD1:3189, V-B:TYR:484:CE2:9317, V-B:TYR:539:CZ:9849, V-B:TYR:531:CZ:9766, V-A:ALA:541:CB:4892, H-B:ALA:541:N:9863, V-B:ASP:366:CB:8183, V-A:GLU:543:CD:4908, V-A:TYR:484:CZ:4347, V-B:HIS:456:CE1:9041, V-B:TYR:484:CZ:9318, V-A:ASP:366:C:3208, V-B:TYR:539:CD2:9846, V-A:GLU:543:CG:4907, V-A:TYR:531:CZ:4794, V-B:GLU:543:CD:9880, H-B:TYR:531:OH:9767, V-A:ASP:366:CB:3212, V-A:LEU:475:CD2:4259, V-A:GLU:543:CB:4906, H-A:TYR:539:N:4870, V-A:PRO:540:CB:4885, V-A:PRO:540:CA:4883, H-B:TYR:539:O:9840, H-A:TYR:484:OH:4348"]

$$$$
ZINC299828415
     RDKit          3D

 78 82  0  0  0  0  0  0  0  0999 V2000
  132.4880  131.4710   58.0050 C   0  0  0  0  0  0  0  0  0  0  0  0
  131.6260  132.4370   57.4210 O   0  0  0  0  0  0  0  0  0  0  0  0
  130.3270  132.5060   57.7810 C   0  0  0  0  0  0  0  0  0  0  0  0
  129.5150  133.3440   57.3780 O   0  0  0  0  0  0  0  0  0  0  0  0
  129.9210  131.3530   58.7340 C   0  0  2  0  0  0  0  0  0  0  0  0
  129.4520  130.1150   57.9170 C   0  0  0  0  0  0  0  0  0  0  0  0
  129.2370  128.8840   58.8230 C   0  0  2  0  0  0  0  0  0  0  0  0
  128.8590  127.7470   58.0290 O   0  0  0  0  0  0  0  0  0  0  0  0
  129.1050  126.4570   58.3930 C   0  0  0  0  0  0  0  0  0  0  0  0
  128.2810  125.5400   58.3080 O   0  0  0  0  0  0  0  0  0  0  0  0
  130.4570  126.2890   58.9140 C   0  0  0  0  0  0  0  0  0  0  0  0
  130.8340  125.1960   59.6140 C   0  0  0  0  0  0  0  0  0  0  0  0
  132.1700  124.8730   60.1830 C   0  0  0  0  0  0  0  0  0  0  0  0
  132.2580  124.8750   61.5830 C   0  0  0  0  0  0  0  0  0  0  0  0
  133.4650  124.6140   62.2480 C   0  0  0  0  0  0  0  0  0  0  0  0
  133.6190  124.6040   63.6210 O   0  0  0  0  0  0  0  0  0  0  0  0
  132.5320  125.0090   64.4460 C   0  0  0  0  0  0  0  0  0  0  0  0
  134.5980  124.3440   61.4860 C   0  0  0  0  0  0  0  0  0  0  0  0
  134.5330  124.3290   60.0970 C   0  0  0  0  0  0  0  0  0  0  0  0
  133.3260  124.5870   59.4230 C   0  0  0  0  0  0  0  0  0  0  0  0
  133.2250  124.5400   58.0440 O   0  0  0  0  0  0  0  0  0  0  0  0
  133.1580  125.7460   57.2890 C   0  0  0  0  0  0  0  0  0  0  0  0
  128.2420  129.2410   59.9560 C   0  0  0  0  0  0  0  0  0  0  0  0
  127.2100  128.6080   60.1820 O   0  0  0  0  0  0  0  0  0  0  0  0
  128.7030  130.4780   60.7730 C   0  0  1  0  0  0  0  0  0  0  0  0
  128.8630  131.7620   59.8420 C   0  0  2  0  0  0  0  0  0  0  0  0
  127.5220  132.2260   59.1840 C   0  0  0  0  0  0  0  0  0  0  0  0
  129.4190  132.9400   60.7070 C   0  0  0  0  0  0  0  0  0  0  0  0
  128.6820  133.1550   62.0440 C   0  0  0  0  0  0  0  0  0  0  0  0
  128.7570  131.8630   62.8810 C   0  0  1  0  0  0  0  0  0  0  0  0
  128.3520  132.0780   64.3680 C   0  0  0  0  0  0  0  0  0  0  0  0
  128.2950  133.1530   64.9630 O   0  0  0  0  0  0  0  0  0  0  0  0
  128.0030  130.9680   65.1080 O   0  0  0  0  0  0  0  0  0  0  0  0
  127.7480  129.6780   64.5210 C   0  0  2  0  0  0  0  0  0  0  0  0
  128.1210  128.5910   65.5110 C   0  0  0  0  0  0  0  0  0  0  0  0
  127.9340  128.5760   66.9020 C   0  0  0  0  0  0  0  0  0  0  0  0
  128.4460  127.3850   67.3890 C   0  0  0  0  0  0  0  0  0  0  0  0
  128.9510  126.6540   66.3690 O   0  0  0  0  0  0  0  0  0  0  0  0
  128.7560  127.3840   65.2410 C   0  0  0  0  0  0  0  0  0  0  0  0
  128.3700  129.4740   63.1200 C   0  0  0  0  0  0  0  0  0  0  0  0
  128.0230  130.6720   62.1930 C   0  0  2  0  0  0  0  0  0  0  0  0
  126.4710  130.8580   62.1120 C   0  0  0  0  0  0  0  0  0  0  0  0
  132.4266  131.5398   59.1011 H   0  0  0  0  0  0  0  0  0  0  0  0
  132.1824  130.4645   57.6831 H   0  0  0  0  0  0  0  0  0  0  0  0
  133.5226  131.6605   57.6831 H   0  0  0  0  0  0  0  0  0  0  0  0
  130.8268  131.0890   59.2995 H   0  0  0  0  0  0  0  0  0  0  0  0
  128.5044  130.3576   57.4138 H   0  0  0  0  0  0  0  0  0  0  0  0
  130.2348  129.8700   57.1841 H   0  0  0  0  0  0  0  0  0  0  0  0
  130.1734  128.5943   59.3222 H   0  0  0  0  0  0  0  0  0  0  0  0
  131.1974  127.0815   58.7303 H   0  0  0  0  0  0  0  0  0  0  0  0
  130.0484  124.4454   59.7858 H   0  0  0  0  0  0  0  0  0  0  0  0
  131.3558  125.0871   62.1755 H   0  0  0  0  0  0  0  0  0  0  0  0
  132.8153  124.9035   65.5037 H   0  0  0  0  0  0  0  0  0  0  0  0
  132.2840  126.0599   64.2359 H   0  0  0  0  0  0  0  0  0  0  0  0
  131.6568  124.3766   64.2359 H   0  0  0  0  0  0  0  0  0  0  0  0
  135.5553  124.1402   61.9880 H   0  0  0  0  0  0  0  0  0  0  0  0
  135.4411  124.1116   59.5156 H   0  0  0  0  0  0  0  0  0  0  0  0
  133.1103  126.6053   57.9741 H   0  0  0  0  0  0  0  0  0  0  0  0
  134.0528  125.8318   56.6549 H   0  0  0  0  0  0  0  0  0  0  0  0
  132.2592  125.7322   56.6549 H   0  0  0  0  0  0  0  0  0  0  0  0
  129.7233  130.2642   61.1241 H   0  0  0  0  0  0  0  0  0  0  0  0
  126.7953  132.4774   59.9706 H   0  0  0  0  0  0  0  0  0  0  0  0
  127.7075  133.1122   58.5593 H   0  0  0  0  0  0  0  0  0  0  0  0
  127.1201  131.4147   58.5593 H   0  0  0  0  0  0  0  0  0  0  0  0
  130.4771  132.7350   60.9271 H   0  0  0  0  0  0  0  0  0  0  0  0
  129.2720  133.8572   60.1178 H   0  0  0  0  0  0  0  0  0  0  0  0
  129.1568  133.9790   62.5969 H   0  0  0  0  0  0  0  0  0  0  0  0
  127.6292  133.4062   61.8479 H   0  0  0  0  0  0  0  0  0  0  0  0
  129.8176  131.5739   62.9201 H   0  0  0  0  0  0  0  0  0  0  0  0
  126.6685  129.6162   64.3191 H   0  0  0  0  0  0  0  0  0  0  0  0
  127.4636  129.3704   67.5000 H   0  0  0  0  0  0  0  0  0  0  0  0
  128.4425  127.0795   68.4457 H   0  0  0  0  0  0  0  0  0  0  0  0
  129.0631  127.0599   64.2357 H   0  0  0  0  0  0  0  0  0  0  0  0
  129.4629  129.3954   63.2167 H   0  0  0  0  0  0  0  0  0  0  0  0
  127.9620  128.5524   62.6794 H   0  0  0  0  0  0  0  0  0  0  0  0
  126.0541  130.9080   63.1287 H   0  0  0  0  0  0  0  0  0  0  0  0
  126.2409  131.7901   61.5752 H   0  0  0  0  0  0  0  0  0  0  0  0
  126.0272  130.0066   61.5752 H   0  0  0  0  0  0  0  0  0  0  0  0
  1  2  1  0
  2  3  1  0
  3  4  2  0
  3  5  1  0
  5  6  1  0
  6  7  1  0
  7  8  1  0
  8  9  1  0
  9 10  2  0
  9 11  1  0
 11 12  2  0
 12 13  1  0
 13 14  2  0
 14 15  1  0
 15 16  1  0
 16 17  1  0
 15 18  2  0
 18 19  1  0
 19 20  2  0
 20 21  1  0
 21 22  1  0
  7 23  1  0
 23 24  2  0
 23 25  1  0
 25 26  1  0
 26 27  1  6
 26 28  1  0
 28 29  1  0
 29 30  1  0
 30 31  1  0
 31 32  2  0
 31 33  1  0
 33 34  1  0
 34 35  1  0
 35 36  1  0
 36 37  2  0
 37 38  1  0
 38 39  1  0
 34 40  1  0
 40 41  1  0
 41 42  1  6
 26  5  1  0
 41 30  1  0
 20 13  1  0
 41 25  1  0
 39 35  2  0
  1 43  1  0
  1 44  1  0
  1 45  1  0
  5 46  1  1
  6 47  1  0
  6 48  1  0
  7 49  1  1
 11 50  1  0
 12 51  1  0
 14 52  1  0
 17 53  1  0
 17 54  1  0
 17 55  1  0
 18 56  1  0
 19 57  1  0
 22 58  1  0
 22 59  1  0
 22 60  1  0
 25 61  1  1
 27 62  1  0
 27 63  1  0
 27 64  1  0
 28 65  1  0
 28 66  1  0
 29 67  1  0
 29 68  1  0
 30 69  1  1
 34 70  1  6
 36 71  1  0
 37 72  1  0
 39 73  1  0
 40 74  1  0
 40 75  1  0
 42 76  1  0
 42 77  1  0
 42 78  1  0
M  END
>  <Binding energies>  (1) 
[-9.04]

>  <Ligand effiencies>  (1) 
[-0.21523809523809523]

>  <Interactions>  (1) 
["V-A:ILE:369:CG2:3237, V-A:ASP:366:CA:3210, V-A:ILE:369:CB:3236, V-A:PRO:540:C:4881, V-B:GLU:543:CB:9878, V-B:GLU:543:CG:9879, V-A:ASP:366:CG:3213, V-A:TYR:539:CD1:4873, V-B:TYR:484:CE2:9317, V-A:LEU:363:CD1:3189, H-B:TYR:539:OH:9850, V-A:ALA:541:CB:4892, V-A:GLU:543:CD:4908, H-B:TYR:484:OH:9319, V-B:HIS:456:CE1:9041, H-A:GLY:454:N:4050, V-B:TYR:484:CZ:9318, V-A:ILE:369:CD1:3239, V-A:ASP:366:C:3208, V-A:GLU:543:CG:4907, V-A:TYR:531:CZ:4794, V-B:GLU:543:CD:9880, V-A:TYR:539:C:4867, V-A:ASP:366:CB:3212, V-A:ILE:369:CG1:3238, H-A:ARG:545:NH2:4928, V-A:ARG:545:CZ:4926, V-A:GLU:543:CB:4906, V-A:PRO:540:N:4884, H-A:TYR:539:N:4870, V-A:PRO:540:CB:4885, V-A:PRO:540:CA:4883, V-A:TYR:539:CE1:4875"]

$$$$
ZINC299833174
     RDKit          3D

 32 35  0  0  0  0  0  0  0  0999 V2000
  130.2820  124.3880   58.5700 O   0  0  0  0  0  0  0  0  0  0  0  0
  129.2590  124.0570   59.1750 C   0  0  0  0  0  0  0  0  0  0  0  0
  127.9370  123.9850   58.5550 C   0  0  0  0  0  0  0  0  0  0  0  0
  127.6700  124.2840   57.2070 C   0  0  0  0  0  0  0  0  0  0  0  0
  126.3300  124.1340   56.8750 C   0  0  0  0  0  0  0  0  0  0  0  0
  125.3800  123.6190   58.2300 S   0  0  0  0  0  0  0  0  0  0  0  0
  126.7880  123.6050   59.2510 C   0  0  0  0  0  0  0  0  0  0  0  0
  126.7320  123.2340   60.6620 C   0  0  0  0  0  0  0  0  0  0  0  0
  125.6880  122.9020   61.2250 O   0  0  0  0  0  0  0  0  0  0  0  0
  128.0860  123.3020   61.3580 C   0  0  0  0  0  0  0  0  0  0  0  0
  129.2570  123.6900   60.6410 C   0  0  0  0  0  0  0  0  0  0  0  0
  130.4870  123.7400   61.3140 C   0  0  0  0  0  0  0  0  0  0  0  0
  130.5880  123.4250   62.6590 C   0  0  0  0  0  0  0  0  0  0  0  0
  129.4640  123.0420   63.3800 C   0  0  0  0  0  0  0  0  0  0  0  0
  129.6250  122.7070   64.8640 C   0  0  0  0  0  0  0  0  0  0  0  0
  130.0190  123.8990   65.7110 C   0  0  0  0  0  0  0  0  0  0  0  0
  130.8700  124.9780   65.5150 C   0  0  0  0  0  0  0  0  0  0  0  0
  130.8200  125.7530   66.6740 C   0  0  0  0  0  0  0  0  0  0  0  0
  129.9440  125.1110   67.5310 C   0  0  0  0  0  0  0  0  0  0  0  0
  129.4610  123.9840   66.9480 O   0  0  0  0  0  0  0  0  0  0  0  0
  128.2160  122.9820   62.7370 C   0  0  0  0  0  0  0  0  0  0  0  0
  127.1330  122.6070   63.4990 O   0  0  0  0  0  0  0  0  0  0  0  0
  128.4416  124.6032   56.4909 H   0  0  0  0  0  0  0  0  0  0  0  0
  125.9202  124.3199   55.8713 H   0  0  0  0  0  0  0  0  0  0  0  0
  131.3909  124.0358   60.7614 H   0  0  0  0  0  0  0  0  0  0  0  0
  131.5658  123.4785   63.1601 H   0  0  0  0  0  0  0  0  0  0  0  0
  128.6682  122.3143   65.2385 H   0  0  0  0  0  0  0  0  0  0  0  0
  130.4373  121.9695   64.9439 H   0  0  0  0  0  0  0  0  0  0  0  0
  131.4701  125.1831   64.6162 H   0  0  0  0  0  0  0  0  0  0  0  0
  131.3674  126.6873   66.8676 H   0  0  0  0  0  0  0  0  0  0  0  0
  129.6775  125.4626   68.5386 H   0  0  0  0  0  0  0  0  0  0  0  0
  126.3560  123.1450   63.3310 H   0  0  0  0  0  0  0  0  0  0  0  0
  1  2  2  0
  2  3  1  0
  3  4  1  0
  4  5  2  0
  5  6  1  0
  6  7  1  0
  7  8  1  0
  8  9  2  0
  8 10  1  0
 10 11  2  0
 11 12  1  0
 12 13  2  0
 13 14  1  0
 14 15  1  0
 15 16  1  0
 16 17  2  0
 17 18  1  0
 18 19  2  0
 19 20  1  0
 14 21  2  0
 21 22  1  0
 11  2  1  0
 20 16  1  0
  7  3  2  0
 21 10  1  0
  4 23  1  0
  5 24  1  0
 12 25  1  0
 13 26  1  0
 15 27  1  0
 15 28  1  0
 17 29  1  0
 18 30  1  0
 19 31  1  0
 22 32  1  0
M  END
>  <Binding energies>  (1) 
[-6.14]

>  <Ligand effiencies>  (1) 
[-0.2669565217391304]

>  <Interactions>  (1) 
["V-B:PRO:540:CA:9855, V-B:GLU:543:CB:9878, V-B:ALA:541:CB:9864, V-B:TYR:539:CE2:9848, V-A:TYR:484:CE2:4346, H-B:ALA:541:O:9861, V-B:GLU:543:CG:9879, V-B:TYR:539:CZ:9849, H-B:GLU:543:OE1:9881, H-B:TYR:539:OH:9850, H-B:ALA:541:N:9863, V-A:TYR:484:CZ:4347, V-B:PRO:540:CB:9857, V-A:GLU:543:CD:4908, V-B:GLU:543:CA:9876, V-A:HIS:456:CE1:4070, V-B:GLU:543:CD:9880, V-B:PRO:540:C:9853, V-B:MET:535:CE:9807, H-A:TYR:484:OH:4348"]

$$$$
ZINC299838282
     RDKit          3D

 63 67  0  0  0  0  0  0  0  0999 V2000
  133.6320  124.7280   58.0350 C   0  0  0  0  0  0  0  0  0  0  0  0
  132.6410  124.8900   59.2100 C   0  0  2  0  0  0  0  0  0  0  0  0
  131.5840  125.9590   58.8830 C   0  0  0  0  0  0  0  0  0  0  0  0
  131.3690  127.0210   59.7650 C   0  0  0  0  0  0  0  0  0  0  0  0
  130.4060  127.9850   59.4850 C   0  0  0  0  0  0  0  0  0  0  0  0
  129.6280  127.9100   58.3210 C   0  0  0  0  0  0  0  0  0  0  0  0
  128.5950  128.9630   58.0330 C   0  0  0  0  0  0  0  0  0  0  0  0
  127.2560  128.6750   58.3460 C   0  0  0  0  0  0  0  0  0  0  0  0
  126.2380  129.6010   58.1320 C   0  0  0  0  0  0  0  0  0  0  0  0
  126.5360  130.8450   57.5890 C   0  0  0  0  0  0  0  0  0  0  0  0
  127.8500  131.1560   57.2520 C   0  0  0  0  0  0  0  0  0  0  0  0
  128.8800  130.2290   57.4590 C   0  0  0  0  0  0  0  0  0  0  0  0
  130.2130  130.6200   57.0070 C   0  0  0  0  0  0  0  0  0  0  0  0
  131.2690  130.9300   56.6480 N   0  0  0  0  0  0  0  0  0  0  0  0
  129.8660  126.8520   57.4330 C   0  0  0  0  0  0  0  0  0  0  0  0
  130.8280  125.8860   57.7090 C   0  0  0  0  0  0  0  0  0  0  0  0
  133.3750  125.1490   60.5580 C   0  0  0  0  0  0  0  0  0  0  0  0
  132.9510  123.9760   61.3910 C   0  0  0  0  0  0  0  0  0  0  0  0
  133.3920  123.8600   63.1340 S   0  0  0  0  0  0  0  0  0  0  0  0
  133.3610  122.4560   63.5590 O   0  0  0  0  0  0  0  0  0  0  0  0
  134.5920  124.6770   63.3540 O   0  0  0  0  0  0  0  0  0  0  0  0
  132.0150  124.6730   63.9420 C   0  0  0  0  0  0  0  0  0  0  0  0
  130.9240  125.1210   63.1940 C   0  0  0  0  0  0  0  0  0  0  0  0
  129.8530  125.7360   63.8360 C   0  0  0  0  0  0  0  0  0  0  0  0
  129.8750  125.8970   65.2200 C   0  0  0  0  0  0  0  0  0  0  0  0
  128.8320  126.4940   65.8420 F   0  0  0  0  0  0  0  0  0  0  0  0
  130.9610  125.4480   65.9690 C   0  0  0  0  0  0  0  0  0  0  0  0
  132.0350  124.8350   65.3300 C   0  0  0  0  0  0  0  0  0  0  0  0
  132.2080  123.1730   60.6230 C   0  0  0  0  0  0  0  0  0  0  0  0
  131.5950  121.8600   60.8930 C   0  0  0  0  0  0  0  0  0  0  0  0
  130.2710  121.7990   61.3310 C   0  0  0  0  0  0  0  0  0  0  0  0
  129.6690  120.5690   61.5840 C   0  0  0  0  0  0  0  0  0  0  0  0
  130.3690  119.3660   61.3920 C   0  0  0  0  0  0  0  0  0  0  0  0
  129.7210  118.0460   61.6790 C   0  0  0  0  0  0  0  0  0  0  0  0
  128.3480  118.1810   61.6660 N   0  0  0  0  0  0  0  0  0  0  0  0
  130.3110  116.9340   61.9310 N   0  0  0  0  0  0  0  0  0  0  0  0
  131.7060  116.9290   61.7490 O   0  0  0  0  0  0  0  0  0  0  0  0
  131.7000  119.4440   60.9540 C   0  0  0  0  0  0  0  0  0  0  0  0
  132.3040  120.6720   60.7020 C   0  0  0  0  0  0  0  0  0  0  0  0
  132.0600  123.5880   59.3520 O   0  0  0  0  0  0  0  0  0  0  0  0
  134.6452  124.5624   58.4300 H   0  0  0  0  0  0  0  0  0  0  0  0
  133.3332  123.8668   57.4194 H   0  0  0  0  0  0  0  0  0  0  0  0
  133.6230  125.6395   57.4194 H   0  0  0  0  0  0  0  0  0  0  0  0
  131.9649  127.0953   60.6866 H   0  0  0  0  0  0  0  0  0  0  0  0
  130.2527  128.8180   60.1868 H   0  0  0  0  0  0  0  0  0  0  0  0
  127.0050  127.6921   58.7714 H   0  0  0  0  0  0  0  0  0  0  0  0
  125.1996  129.3481   58.3924 H   0  0  0  0  0  0  0  0  0  0  0  0
  125.7356  131.5818   57.4260 H   0  0  0  0  0  0  0  0  0  0  0  0
  128.0824  132.1399   56.8186 H   0  0  0  0  0  0  0  0  0  0  0  0
  129.2826  126.7845   56.5029 H   0  0  0  0  0  0  0  0  0  0  0  0
  130.9947  125.0611   57.0007 H   0  0  0  0  0  0  0  0  0  0  0  0
  134.4662  125.1643   60.4196 H   0  0  0  0  0  0  0  0  0  0  0  0
  133.1280  126.1202   61.0115 H   0  0  0  0  0  0  0  0  0  0  0  0
  130.9111  124.9884   62.1021 H   0  0  0  0  0  0  0  0  0  0  0  0
  128.9918  126.0939   63.2526 H   0  0  0  0  0  0  0  0  0  0  0  0
  130.9695  125.5775   67.0613 H   0  0  0  0  0  0  0  0  0  0  0  0
  132.8960  124.4795   65.9151 H   0  0  0  0  0  0  0  0  0  0  0  0
  129.7000  122.7277   61.4771 H   0  0  0  0  0  0  0  0  0  0  0  0
  128.6286  120.5388   61.9399 H   0  0  0  0  0  0  0  0  0  0  0  0
  127.7560  117.3850   61.8560 H   0  0  0  0  0  0  0  0  0  0  0  0
  127.9200  119.0760   61.4780 H   0  0  0  0  0  0  0  0  0  0  0  0
  132.2758  118.5183   60.8073 H   0  0  0  0  0  0  0  0  0  0  0  0
  133.3457  120.7072   60.3504 H   0  0  0  0  0  0  0  0  0  0  0  0
  2  1  1  6
  2  3  1  0
  3  4  2  0
  4  5  1  0
  5  6  2  0
  6  7  1  0
  7  8  2  0
  8  9  1  0
  9 10  2  0
 10 11  1  0
 11 12  2  0
 12 13  1  0
 13 14  3  0
  6 15  1  0
 15 16  2  0
  2 17  1  0
 17 18  1  0
 18 19  1  0
 19 20  2  0
 19 21  2  0
 19 22  1  0
 22 23  2  0
 23 24  1  0
 24 25  2  0
 25 26  1  0
 25 27  1  0
 27 28  2  0
 18 29  2  0
 29 30  1  0
 30 31  2  0
 31 32  1  0
 32 33  2  0
 33 34  1  0
 34 35  1  0
 34 36  2  0
 36 37  1  0
 33 38  1  0
 38 39  2  0
 29 40  1  0
 40  2  1  0
 16  3  1  0
 28 22  1  0
 39 30  1  0
 12  7  1  0
  1 41  1  0
  1 42  1  0
  1 43  1  0
  4 44  1  0
  5 45  1  0
  8 46  1  0
  9 47  1  0
 10 48  1  0
 11 49  1  0
 15 50  1  0
 16 51  1  0
 17 52  1  0
 17 53  1  0
 23 54  1  0
 24 55  1  0
 27 56  1  0
 28 57  1  0
 31 58  1  0
 32 59  1  0
 35 60  1  0
 35 61  1  0
 38 62  1  0
 39 63  1  0
M  CHG  1  37  -1
M  END
>  <Binding energies>  (1) 
[-8.21]

>  <Ligand effiencies>  (1) 
[-0.1954761904761905]

>  <Interactions>  (1) 
["V-A:ILE:369:CG2:3237, V-A:ASP:366:CA:3210, V-B:PRO:540:CA:9855, V-A:GLY:454:CA:4049, V-B:GLU:543:CB:9878, V-B:ALA:541:CB:9864, H-A:ARG:545:NH1:4927, H-A:TYR:531:OH:4795, V-B:TYR:539:CE2:9848, V-A:LEU:475:CG:4257, V-B:GLU:543:CG:9879, V-B:TYR:539:C:9839, V-A:ASP:366:CG:3213, V-B:TYR:539:CZ:9849, H-B:TYR:539:OH:9850, V-A:LEU:475:CD1:4258, V-A:TYR:484:CZ:4347, V-A:GLU:543:CD:4908, H-A:GLY:454:N:4050, V-B:PRO:540:N:9856, V-A:ASP:366:C:3208, V-A:PRO:482:CB:4326, V-B:TYR:539:CD2:9846, V-A:SER:385:CB:3409, H-A:SER:385:OG:3410, V-A:MET:535:CE:4835, V-B:GLU:543:CD:9880, V-A:ASP:366:CB:3212, V-A:LEU:475:CD2:4259, H-A:ARG:545:NH2:4928, H-A:HIS:383:HE2:3395, V-A:PRO:482:CG:4327, H-B:TYR:539:O:9840, V-B:PRO:540:C:9853, V-B:ALA:541:CA:9862, V-A:TYR:539:CE1:4875, H-A:TYR:484:OH:4348, H-B:PRO:540:O:9854"]

$$$$
ZINC299838282-again1
     RDKit          3D

 65 69  0  0  0  0  0  0  0  0999 V2000
  128.1170  125.6760   61.1900 C   0  0  0  0  0  0  0  0  0  0  0  0
  129.4360  126.3210   61.6780 C   0  0  2  0  0  0  0  0  0  0  0  0
  129.8090  127.5140   60.7840 C   0  0  0  0  0  0  0  0  0  0  0  0
  129.8730  128.8110   61.3000 C   0  0  0  0  0  0  0  0  0  0  0  0
  130.2140  129.8780   60.4740 C   0  0  0  0  0  0  0  0  0  0  0  0
  130.4890  129.6810   59.1130 C   0  0  0  0  0  0  0  0  0  0  0  0
  130.8700  130.8440   58.2430 C   0  0  0  0  0  0  0  0  0  0  0  0
  131.8600  130.6390   57.2670 C   0  0  0  0  0  0  0  0  0  0  0  0
  132.2560  131.6550   56.4010 C   0  0  0  0  0  0  0  0  0  0  0  0
  131.6710  132.9130   56.4960 C   0  0  0  0  0  0  0  0  0  0  0  0
  130.6990  133.1530   57.4620 C   0  0  0  0  0  0  0  0  0  0  0  0
  130.2980  132.1390   58.3400 C   0  0  0  0  0  0  0  0  0  0  0  0
  129.3240  132.5070   59.3660 C   0  0  0  0  0  0  0  0  0  0  0  0
  128.5540  132.8000   60.1790 N   0  0  0  0  0  0  0  0  0  0  0  0
  130.4320  128.3740   58.6100 C   0  0  0  0  0  0  0  0  0  0  0  0
  130.0930  127.3040   59.4310 C   0  0  0  0  0  0  0  0  0  0  0  0
  130.5840  125.2770   61.8080 C   0  0  0  0  0  0  0  0  0  0  0  0
  130.7220  125.1260   63.2920 C   0  0  0  0  0  0  0  0  0  0  0  0
  131.8550  123.9240   64.0200 S   0  0  0  0  0  0  0  0  0  0  0  0
  133.0900  124.6330   64.3730 O   0  0  0  0  0  0  0  0  0  0  0  0
  131.1150  123.1690   65.0370 O   0  0  0  0  0  0  0  0  0  0  0  0
  132.2900  122.8030   62.6880 C   0  0  0  0  0  0  0  0  0  0  0  0
  133.6280  122.5890   62.3500 C   0  0  0  0  0  0  0  0  0  0  0  0
  133.9500  121.6950   61.3330 C   0  0  0  0  0  0  0  0  0  0  0  0
  132.9350  121.0280   60.6510 C   0  0  0  0  0  0  0  0  0  0  0  0
  133.2490  120.1590   59.6640 F   0  0  0  0  0  0  0  0  0  0  0  0
  131.5980  121.2490   60.9760 C   0  0  0  0  0  0  0  0  0  0  0  0
  131.2730  122.1410   61.9950 C   0  0  0  0  0  0  0  0  0  0  0  0
  129.8650  125.9700   63.8750 C   0  0  0  0  0  0  0  0  0  0  0  0
  129.6600  126.2910   65.2990 C   0  0  0  0  0  0  0  0  0  0  0  0
  130.4220  125.6400   66.2690 C   0  0  0  0  0  0  0  0  0  0  0  0
  130.2740  125.9680   67.6130 C   0  0  0  0  0  0  0  0  0  0  0  0
  129.3550  126.9500   68.0230 C   0  0  0  0  0  0  0  0  0  0  0  0
  129.2080  127.3070   69.4510 C   0  0  0  0  0  0  0  0  0  0  0  0
  129.1050  126.3090   70.3250 N   0  0  0  0  0  0  0  0  0  0  0  0
  129.1930  128.5770   69.8860 N   0  0  0  0  0  0  0  0  0  0  0  0
  129.0960  129.6080   68.9650 O   0  0  0  0  0  0  0  0  0  0  0  0
  128.5720  127.5740   67.0360 C   0  0  0  0  0  0  0  0  0  0  0  0
  128.7240  127.2490   65.6900 C   0  0  0  0  0  0  0  0  0  0  0  0
  129.1400  126.7200   63.0250 O   0  0  0  0  0  0  0  0  0  0  0  0
  127.5106  125.3795   62.0585 H   0  0  0  0  0  0  0  0  0  0  0  0
  127.5568  126.4018   60.5823 H   0  0  0  0  0  0  0  0  0  0  0  0
  128.3459  124.7882   60.5823 H   0  0  0  0  0  0  0  0  0  0  0  0
  129.6531  128.9894   62.3629 H   0  0  0  0  0  0  0  0  0  0  0  0
  130.2687  130.8925   60.8956 H   0  0  0  0  0  0  0  0  0  0  0  0
  132.3346  129.6500   57.1850 H   0  0  0  0  0  0  0  0  0  0  0  0
  133.0300  131.4629   55.6433 H   0  0  0  0  0  0  0  0  0  0  0  0
  131.9760  133.7163   55.8091 H   0  0  0  0  0  0  0  0  0  0  0  0
  130.2407  134.1502   57.5367 H   0  0  0  0  0  0  0  0  0  0  0  0
  130.6590  128.1918   57.5492 H   0  0  0  0  0  0  0  0  0  0  0  0
  130.0480  126.2871   59.0139 H   0  0  0  0  0  0  0  0  0  0  0  0
  130.3081  124.3226   61.3357 H   0  0  0  0  0  0  0  0  0  0  0  0
  131.5153  125.5868   61.3113 H   0  0  0  0  0  0  0  0  0  0  0  0
  134.4250  123.1253   62.8859 H   0  0  0  0  0  0  0  0  0  0  0  0
  135.0026  121.5158   61.0687 H   0  0  0  0  0  0  0  0  0  0  0  0
  130.8025  120.7210   60.4298 H   0  0  0  0  0  0  0  0  0  0  0  0
  130.2195  122.3238   62.2534 H   0  0  0  0  0  0  0  0  0  0  0  0
  131.1426  124.8644   65.9703 H   0  0  0  0  0  0  0  0  0  0  0  0
  130.8857  125.4508   68.3669 H   0  0  0  0  0  0  0  0  0  0  0  0
  129.0100  126.5080   71.3110 H   0  0  0  0  0  0  0  0  0  0  0  0
  129.1270  125.3540   69.9970 H   0  0  0  0  0  0  0  0  0  0  0  0
  129.0530  128.8590   70.8460 H   0  0  0  0  0  0  0  0  0  0  0  0
  129.1050  130.4010   69.5060 H   0  0  0  0  0  0  0  0  0  0  0  0
  127.8289  128.3295   67.3308 H   0  0  0  0  0  0  0  0  0  0  0  0
  128.1035  127.7497   64.9322 H   0  0  0  0  0  0  0  0  0  0  0  0
  2  1  1  6
  2  3  1  0
  3  4  2  0
  4  5  1  0
  5  6  2  0
  6  7  1  0
  7  8  2  0
  8  9  1  0
  9 10  2  0
 10 11  1  0
 11 12  2  0
 12 13  1  0
 13 14  3  0
  6 15  1  0
 15 16  2  0
  2 17  1  0
 17 18  1  0
 18 19  1  0
 19 20  2  0
 19 21  2  0
 19 22  1  0
 22 23  2  0
 23 24  1  0
 24 25  2  0
 25 26  1  0
 25 27  1  0
 27 28  2  0
 18 29  2  0
 29 30  1  0
 30 31  2  0
 31 32  1  0
 32 33  2  0
 33 34  1  0
 34 35  1  0
 34 36  2  0
 36 37  1  0
 33 38  1  0
 38 39  2  0
 29 40  1  0
 40  2  1  0
 16  3  1  0
 28 22  1  0
 39 30  1  0
 12  7  1  0
  1 41  1  0
  1 42  1  0
  1 43  1  0
  4 44  1  0
  5 45  1  0
  8 46  1  0
  9 47  1  0
 10 48  1  0
 11 49  1  0
 15 50  1  0
 16 51  1  0
 17 52  1  0
 17 53  1  0
 23 54  1  0
 24 55  1  0
 27 56  1  0
 28 57  1  0
 31 58  1  0
 32 59  1  0
 35 60  1  0
 35 61  1  0
 36 62  1  0
 37 63  1  0
 38 64  1  0
 39 65  1  0
M  CHG  1  36   1
M  END
>  <Binding energies>  (1) 
[-9.55]

>  <Ligand effiencies>  (1) 
[-0.21704545454545457]

>  <Interactions>  (1) 
["V-A:ILE:369:CG2:3237, V-A:GLY:454:CA:4049, V-B:GLU:543:C:9874, V-B:HIS:456:CD2:9039, H-B:GLU:543:O:9875, V-A:GLU:543:C:4902, V-B:GLU:543:CB:9878, V-A:ILE:538:CB:4862, V-B:TYR:539:CE2:9848, V-B:GLU:543:CG:9879, V-A:HIS:456:CD2:4068, V-A:ILE:538:CG2:4863, V-A:LEU:363:CD1:3189, V-A:ILE:538:CA:4860, V-A:TYR:531:CE2:4793, V-A:GLU:543:CD:4908, V-B:HIS:456:CE1:9041, H-A:GLY:454:N:4050, V-A:SER:385:C:3405, V-A:HIS:456:CE1:4070, V-A:ILE:369:CD1:3239, H-B:HIS:456:NE2:9042, V-B:TYR:539:CD2:9846, V-A:TYR:531:CZ:4794, V-A:SER:385:CB:3409, V-B:GLU:543:CD:9880, V-A:TYR:539:C:4867, V-A:LEU:475:CD2:4259, H-A:ARG:545:NH2:4928, V-A:GLU:543:CB:4906, V-A:PRO:540:N:4884, V-A:PRO:540:CB:4885, V-A:PRO:540:CA:4883, V-A:SER:385:CA:3407, V-A:PRO:540:CD:4887, H-A:HIS:456:NE2:4071, H-A:TYR:484:OH:4348, H-A:GLU:543:O:4903"]

$$$$
ZINC299838282-again2
     RDKit          3D

 64 68  0  0  0  0  0  0  0  0999 V2000
  127.6380  125.8530   61.2900 C   0  0  0  0  0  0  0  0  0  0  0  0
  129.0070  126.3880   61.7680 C   0  0  2  0  0  0  0  0  0  0  0  0
  129.4890  127.5250   60.8520 C   0  0  0  0  0  0  0  0  0  0  0  0
  129.8010  128.7850   61.3690 C   0  0  0  0  0  0  0  0  0  0  0  0
  130.2430  129.8000   60.5260 C   0  0  0  0  0  0  0  0  0  0  0  0
  130.3760  129.5880   59.1460 C   0  0  0  0  0  0  0  0  0  0  0  0
  130.8730  130.6940   58.2560 C   0  0  0  0  0  0  0  0  0  0  0  0
  131.9040  130.3960   57.3490 C   0  0  0  0  0  0  0  0  0  0  0  0
  132.4080  131.3510   56.4700 C   0  0  0  0  0  0  0  0  0  0  0  0
  131.8910  132.6410   56.4810 C   0  0  0  0  0  0  0  0  0  0  0  0
  130.8800  132.9740   57.3770 C   0  0  0  0  0  0  0  0  0  0  0  0
  130.3700  132.0210   58.2680 C   0  0  0  0  0  0  0  0  0  0  0  0
  129.3630  132.4890   59.2160 C   0  0  0  0  0  0  0  0  0  0  0  0
  128.5640  132.8600   59.9670 N   0  0  0  0  0  0  0  0  0  0  0  0
  130.0710  128.3170   58.6410 C   0  0  0  0  0  0  0  0  0  0  0  0
  129.6270  127.3000   59.4790 C   0  0  0  0  0  0  0  0  0  0  0  0
  130.0560  125.2480   61.9270 C   0  0  0  0  0  0  0  0  0  0  0  0
  130.3560  125.2810   63.3950 C   0  0  0  0  0  0  0  0  0  0  0  0
  131.6190  124.2110   64.1090 S   0  0  0  0  0  0  0  0  0  0  0  0
  132.8300  124.9940   64.3780 O   0  0  0  0  0  0  0  0  0  0  0  0
  130.9930  123.4170   65.1730 O   0  0  0  0  0  0  0  0  0  0  0  0
  132.0090  123.1060   62.7540 C   0  0  0  0  0  0  0  0  0  0  0  0
  133.3070  123.0550   62.2380 C   0  0  0  0  0  0  0  0  0  0  0  0
  133.6030  122.1780   61.1980 C   0  0  0  0  0  0  0  0  0  0  0  0
  132.6040  121.3540   60.6820 C   0  0  0  0  0  0  0  0  0  0  0  0
  132.8940  120.5010   59.6740 F   0  0  0  0  0  0  0  0  0  0  0  0
  131.3100  121.4010   61.1960 C   0  0  0  0  0  0  0  0  0  0  0  0
  131.0100  122.2770   62.2340 C   0  0  0  0  0  0  0  0  0  0  0  0
  129.5830  126.2160   63.9560 C   0  0  0  0  0  0  0  0  0  0  0  0
  129.3940  126.6080   65.3650 C   0  0  0  0  0  0  0  0  0  0  0  0
  128.6440  127.7430   65.6690 C   0  0  0  0  0  0  0  0  0  0  0  0
  128.4510  128.1250   66.9940 C   0  0  0  0  0  0  0  0  0  0  0  0
  128.9900  127.3750   68.0530 C   0  0  0  0  0  0  0  0  0  0  0  0
  128.7910  127.7960   69.4740 C   0  0  0  0  0  0  0  0  0  0  0  0
  129.7750  128.6850   69.8560 N   0  0  0  0  0  0  0  0  0  0  0  0
  127.8680  127.3930   70.2630 N   0  0  0  0  0  0  0  0  0  0  0  0
  126.8580  126.6030   69.6830 O   0  0  0  0  0  0  0  0  0  0  0  0
  129.7460  126.2370   67.7300 C   0  0  0  0  0  0  0  0  0  0  0  0
  129.9400  125.8540   66.4050 C   0  0  0  0  0  0  0  0  0  0  0  0
  128.7500  126.8420   63.1030 O   0  0  0  0  0  0  0  0  0  0  0  0
  127.0145  125.6093   62.1629 H   0  0  0  0  0  0  0  0  0  0  0  0
  127.1357  126.6210   60.6835 H   0  0  0  0  0  0  0  0  0  0  0  0
  127.7895  124.9479   60.6835 H   0  0  0  0  0  0  0  0  0  0  0  0
  129.6967  128.9755   62.4474 H   0  0  0  0  0  0  0  0  0  0  0  0
  130.4921  130.7845   60.9487 H   0  0  0  0  0  0  0  0  0  0  0  0
  132.3247  129.3798   57.3329 H   0  0  0  0  0  0  0  0  0  0  0  0
  133.2129  131.0853   55.7690 H   0  0  0  0  0  0  0  0  0  0  0  0
  132.2802  133.3969   55.7830 H   0  0  0  0  0  0  0  0  0  0  0  0
  130.4766  133.9973   57.3858 H   0  0  0  0  0  0  0  0  0  0  0  0
  130.1846  128.1206   57.5646 H   0  0  0  0  0  0  0  0  0  0  0  0
  129.3830  126.3129   59.0593 H   0  0  0  0  0  0  0  0  0  0  0  0
  129.6345  124.2764   61.6297 H   0  0  0  0  0  0  0  0  0  0  0  0
  130.9467  125.3824   61.2957 H   0  0  0  0  0  0  0  0  0  0  0  0
  134.0917  123.7053   62.6520 H   0  0  0  0  0  0  0  0  0  0  0  0
  134.6216  122.1355   60.7849 H   0  0  0  0  0  0  0  0  0  0  0  0
  130.5279  120.7474   60.7823 H   0  0  0  0  0  0  0  0  0  0  0  0
  129.9903  122.3175   62.6445 H   0  0  0  0  0  0  0  0  0  0  0  0
  128.2022  128.3401   64.8577 H   0  0  0  0  0  0  0  0  0  0  0  0
  127.8662  129.0299   67.2157 H   0  0  0  0  0  0  0  0  0  0  0  0
  129.7890  129.0550   70.7960 H   0  0  0  0  0  0  0  0  0  0  0  0
  130.5020  128.9570   69.2120 H   0  0  0  0  0  0  0  0  0  0  0  0
  126.4960  127.1970   69.0190 H   0  0  0  0  0  0  0  0  0  0  0  0
  130.1927  125.6377   68.5370 H   0  0  0  0  0  0  0  0  0  0  0  0
  130.5269  124.9521   66.1768 H   0  0  0  0  0  0  0  0  0  0  0  0
  2  1  1  6
  2  3  1  0
  3  4  2  0
  4  5  1  0
  5  6  2  0
  6  7  1  0
  7  8  2  0
  8  9  1  0
  9 10  2  0
 10 11  1  0
 11 12  2  0
 12 13  1  0
 13 14  3  0
  6 15  1  0
 15 16  2  0
  2 17  1  0
 17 18  1  0
 18 19  1  0
 19 20  2  0
 19 21  2  0
 19 22  1  0
 22 23  2  0
 23 24  1  0
 24 25  2  0
 25 26  1  0
 25 27  1  0
 27 28  2  0
 18 29  2  0
 29 30  1  0
 30 31  2  0
 31 32  1  0
 32 33  2  0
 33 34  1  0
 34 35  1  0
 34 36  2  0
 36 37  1  0
 33 38  1  0
 38 39  2  0
 29 40  1  0
 40  2  1  0
 16  3  1  0
 28 22  1  0
 39 30  1  0
 12  7  1  0
  1 41  1  0
  1 42  1  0
  1 43  1  0
  4 44  1  0
  5 45  1  0
  8 46  1  0
  9 47  1  0
 10 48  1  0
 11 49  1  0
 15 50  1  0
 16 51  1  0
 17 52  1  0
 17 53  1  0
 23 54  1  0
 24 55  1  0
 27 56  1  0
 28 57  1  0
 31 58  1  0
 32 59  1  0
 35 60  1  0
 35 61  1  0
 37 62  1  0
 38 63  1  0
 39 64  1  0
M  END
>  <Binding energies>  (1) 
[-8.49]

>  <Ligand effiencies>  (1) 
[-0.19744186046511628]

>  <Interactions>  (1) 
["V-A:ILE:369:CG2:3237, V-A:GLU:543:CA:4904, H-A:GLU:543:OE2:4910, H-B:GLU:543:O:9875, V-A:GLU:543:C:4902, V-B:GLU:543:CB:9878, V-A:ILE:538:CB:4862, V-B:TYR:539:CE2:9848, V-B:GLU:543:CG:9879, V-A:ILE:538:CG2:4863, V-A:LEU:363:CD1:3189, V-A:TYR:531:CE2:4793, H-B:ARG:545:N:9892, V-A:GLU:543:CD:4908, V-B:HIS:456:CE1:9041, H-B:GLY:544:N:9887, V-A:HIS:456:CE1:4070, V-A:ILE:369:CD1:3239, H-B:HIS:456:NE2:9042, V-B:TYR:539:CD2:9846, V-A:GLU:543:CG:4907, V-A:TYR:531:CZ:4794, V-B:GLU:543:CD:9880, V-A:TYR:539:C:4867, V-A:LEU:475:CD2:4259, H-A:ARG:545:NH2:4928, V-A:GLU:543:CB:4906, V-A:PRO:540:N:4884, H-B:GLU:543:OE2:9882, V-A:PRO:540:CA:4883, V-A:PRO:540:CB:4885, H-A:ARG:545:NE:4924, V-A:PRO:540:CD:4887, H-A:TYR:484:OH:4348, H-A:GLU:543:O:4903"]

$$$$
ZINC299846439
     RDKit          3D

 54 58  0  0  0  0  0  0  0  0999 V2000
  129.4860  125.4670   56.7360 N   0  0  0  0  0  0  0  0  0  0  0  0
  129.1910  125.5710   57.8510 C   0  0  0  0  0  0  0  0  0  0  0  0
  128.8140  125.7030   59.2760 C   0  0  0  0  0  0  0  0  0  0  0  0
  127.7460  126.7200   59.3370 C   0  0  0  0  0  0  0  0  0  0  0  0
  126.9060  127.5160   59.3850 N   0  0  0  0  0  0  0  0  0  0  0  0
  128.2220  124.3550   59.8170 C   0  0  1  0  0  0  0  0  0  0  0  0
  127.2070  123.7040   58.8840 C   0  0  0  0  0  0  0  0  0  0  0  0
  125.8250  123.7760   58.7740 C   0  0  0  0  0  0  0  0  0  0  0  0
  125.4550  122.9630   57.7030 C   0  0  0  0  0  0  0  0  0  0  0  0
  126.6280  122.4350   57.1950 C   0  0  0  0  0  0  0  0  0  0  0  0
  127.6900  122.8870   57.9080 O   0  0  0  0  0  0  0  0  0  0  0  0
  129.3600  123.4030   60.2130 C   0  0  0  0  0  0  0  0  0  0  0  0
  129.0440  121.9890   60.4900 N   0  0  0  0  0  0  0  0  0  0  0  0
  127.9860  121.7460   61.0680 O   0  0  0  0  0  0  0  0  0  0  0  0
  129.8870  121.1660   60.1510 O   0  0  0  0  0  0  0  0  0  0  0  0
  130.6480  123.8010   60.3830 C   0  0  0  0  0  0  0  0  0  0  0  0
  131.7780  123.0970   60.8030 N   0  0  0  0  0  0  0  0  0  0  0  0
  131.7720  122.4580   62.1250 C   0  0  0  0  0  0  0  0  0  0  0  0
  131.2780  123.3990   63.2130 C   0  0  0  0  0  0  0  0  0  0  0  0
  132.1520  124.2790   63.8620 C   0  0  0  0  0  0  0  0  0  0  0  0
  131.6620  125.1220   64.8620 C   0  0  0  0  0  0  0  0  0  0  0  0
  130.3060  125.0630   65.1890 C   0  0  0  0  0  0  0  0  0  0  0  0
  129.6920  126.1010   66.4220 Cl  0  0  0  0  0  0  0  0  0  0  0  0
  129.4450  124.2130   64.5690 N   0  0  0  0  0  0  0  0  0  0  0  0
  129.9350  123.3990   63.5990 C   0  0  0  0  0  0  0  0  0  0  0  0
  132.9040  123.9340   60.4280 C   0  0  0  0  0  0  0  0  0  0  0  0
  132.3300  125.2730   60.8020 C   0  0  0  0  0  0  0  0  0  0  0  0
  131.0380  125.1220   60.1640 N   0  0  0  0  0  0  0  0  0  0  0  0
  130.0420  126.2010   60.1090 C   0  0  1  0  0  0  0  0  0  0  0  0
  130.6170  127.5580   59.6530 C   0  0  0  0  0  0  0  0  0  0  0  0
  130.1690  128.7440   60.2540 C   0  0  0  0  0  0  0  0  0  0  0  0
  130.6750  129.9820   59.8630 C   0  0  0  0  0  0  0  0  0  0  0  0
  131.6390  130.0520   58.8600 C   0  0  0  0  0  0  0  0  0  0  0  0
  132.3320  131.7420   58.3220 Br  0  0  0  0  0  0  0  0  0  0  0  0
  132.0920  128.8850   58.2500 C   0  0  0  0  0  0  0  0  0  0  0  0
  131.5900  127.6410   58.6390 C   0  0  0  0  0  0  0  0  0  0  0  0
  132.2020  126.2360   57.8340 Cl  0  0  0  0  0  0  0  0  0  0  0  0
  127.6386  124.5966   60.7177 H   0  0  0  0  0  0  0  0  0  0  0  0
  125.1487  124.3640   59.4119 H   0  0  0  0  0  0  0  0  0  0  0  0
  124.4346  122.7786   57.3358 H   0  0  0  0  0  0  0  0  0  0  0  0
  126.6907  121.7486   56.3377 H   0  0  0  0  0  0  0  0  0  0  0  0
  131.1126  121.5782   62.0907 H   0  0  0  0  0  0  0  0  0  0  0  0
  132.8061  122.1725   62.3679 H   0  0  0  0  0  0  0  0  0  0  0  0
  133.2166  124.3064   63.5865 H   0  0  0  0  0  0  0  0  0  0  0  0
  132.3331  125.8206   65.3831 H   0  0  0  0  0  0  0  0  0  0  0  0
  129.2435  122.7083   63.0942 H   0  0  0  0  0  0  0  0  0  0  0  0
  133.8077  123.6952   61.0079 H   0  0  0  0  0  0  0  0  0  0  0  0
  133.2421  123.8365   59.3858 H   0  0  0  0  0  0  0  0  0  0  0  0
  132.2448  125.4005   61.8912 H   0  0  0  0  0  0  0  0  0  0  0  0
  132.9182  126.1523   60.5005 H   0  0  0  0  0  0  0  0  0  0  0  0
  129.6985  126.4243   61.1299 H   0  0  0  0  0  0  0  0  0  0  0  0
  129.4069  128.6958   61.0457 H   0  0  0  0  0  0  0  0  0  0  0  0
  130.3139  130.9022   60.3455 H   0  0  0  0  0  0  0  0  0  0  0  0
  132.8509  128.9433   57.4558 H   0  0  0  0  0  0  0  0  0  0  0  0
  1  2  3  0
  2  3  1  0
  3  4  1  0
  4  5  3  0
  3  6  1  0
  6  7  1  0
  7  8  2  0
  8  9  1  0
  9 10  2  0
 10 11  1  0
  6 12  1  0
 12 13  1  0
 13 14  2  0
 13 15  1  0
 12 16  2  0
 16 17  1  0
 17 18  1  0
 18 19  1  0
 19 20  2  0
 20 21  1  0
 21 22  2  0
 22 23  1  0
 22 24  1  0
 24 25  2  0
 17 26  1  0
 26 27  1  0
 27 28  1  0
 28 29  1  0
 29 30  1  0
 30 31  2  0
 31 32  1  0
 32 33  2  0
 33 34  1  0
 33 35  1  0
 35 36  2  0
 36 37  1  0
 29  3  1  0
 36 30  1  0
 11  7  1  0
 28 16  1  0
 25 19  1  0
  6 38  1  1
  8 39  1  0
  9 40  1  0
 10 41  1  0
 18 42  1  0
 18 43  1  0
 20 44  1  0
 21 45  1  0
 25 46  1  0
 26 47  1  0
 26 48  1  0
 27 49  1  0
 27 50  1  0
 29 51  1  1
 31 52  1  0
 32 53  1  0
 35 54  1  0
M  CHG  2  13   1  15  -1
M  END
>  <Binding energies>  (1) 
[-7.66]

>  <Ligand effiencies>  (1) 
[-0.20702702702702702]

>  <Interactions>  (1) 
["V-B:PRO:540:CA:9855, V-B:GLU:543:CB:9878, V-B:TYR:539:CE2:9848, V-B:GLU:543:CG:9879, V-B:TYR:539:C:9839, V-A:ASP:366:CG:3213, V-A:LEU:363:CD1:3189, H-B:TYR:539:OH:9850, H-B:ALA:541:N:9863, V-A:GLU:543:CD:4908, V-B:PRO:540:CB:9857, V-B:PRO:540:N:9856, V-B:PRO:540:CD:9859, V-A:TYR:531:CZ:4794, V-B:TYR:539:CD2:9846, V-B:GLU:543:CD:9880, V-A:ASP:366:CB:3212, V-A:LEU:475:CD2:4259, V-B:PRO:540:CG:9858, V-B:LEU:363:CD1:8160, V-A:PRO:540:CB:4885, V-A:PRO:540:CA:4883"]

$$$$
ZINC299849506
     RDKit          3D

 97102  0  0  0  0  0  0  0  0999 V2000
  128.7810  126.5980   63.2280 C   0  0  0  0  0  0  0  0  0  0  0  0
  129.3010  125.4490   64.0810 C   0  0  0  0  0  0  0  0  0  0  0  0
  129.1780  125.4530   65.3070 O   0  0  0  0  0  0  0  0  0  0  0  0
  129.8830  124.4820   63.3360 O   0  0  0  0  0  0  0  0  0  0  0  0
  129.1230  123.4380   62.7220 C   0  0  1  0  0  0  0  0  0  0  0  0
  128.0250  124.0640   61.8100 C   0  0  0  0  0  0  0  0  0  0  0  0
  128.6020  124.8040   60.5590 C   0  0  1  0  0  0  0  0  0  0  0  0
  129.6230  123.9120   59.7610 C   0  0  1  0  0  0  0  0  0  0  0  0
  130.2940  124.7050   58.5970 C   0  0  2  0  0  0  0  0  0  0  0  0
  131.2680  125.6160   59.1110 O   0  0  0  0  0  0  0  0  0  0  0  0
  132.5920  125.4110   58.9520 C   0  0  0  0  0  0  0  0  0  0  0  0
  133.2860  125.0940   60.2700 C   0  0  0  0  0  0  0  0  0  0  0  0
  133.2190  125.4640   57.8920 O   0  0  0  0  0  0  0  0  0  0  0  0
  129.2470  125.4420   57.7160 C   0  0  0  0  0  0  0  0  0  0  0  0
  128.2010  126.2790   58.5060 C   0  0  2  0  0  0  0  0  0  0  0  0
  128.8080  127.6010   59.0720 C   0  0  0  0  0  0  0  0  0  0  0  0
  127.8120  128.4710   59.8750 C   0  0  0  0  0  0  0  0  0  0  0  0
  127.1160  127.6060   60.9650 C   0  0  0  0  0  0  0  0  0  0  0  0
  126.4800  126.3420   60.3570 C   0  0  0  0  0  0  0  0  0  0  0  0
  127.4970  125.4170   59.6150 C   0  0  2  0  0  0  0  0  0  0  0  0
  126.6350  124.3080   58.9350 C   0  0  0  0  0  0  0  0  0  0  0  0
  126.8520  129.0070   58.9580 O   0  0  0  0  0  0  0  0  0  0  0  0
  125.9870  130.0500   59.5650 O   0  0  0  0  0  0  0  0  0  0  0  0
  126.7290  131.0950   60.2000 C   0  0  0  0  0  0  0  0  0  0  0  0
  125.7210  131.9480   61.0140 C   0  0  0  0  0  0  0  0  0  0  0  0
  126.3490  133.2300   61.6040 C   0  0  0  0  0  0  0  0  0  0  0  0
  127.0450  134.0770   60.5230 C   0  0  0  0  0  0  0  0  0  0  0  0
  128.0600  133.2550   59.7050 C   0  0  0  0  0  0  0  0  0  0  0  0
  127.4280  131.9740   59.1210 C   0  0  0  0  0  0  0  0  0  0  0  0
  127.6950  130.5580   61.1120 O   0  0  0  0  0  0  0  0  0  0  0  0
  128.5590  129.5180   60.5010 O   0  0  0  0  0  0  0  0  0  0  0  0
  130.6770  123.3000   60.7320 C   0  0  2  0  0  0  0  0  0  0  0  0
  131.7870  122.4070   60.1610 C   0  0  0  0  0  0  0  0  0  0  0  0
  132.2650  121.5390   61.3420 C   0  0  0  0  0  0  0  0  0  0  0  0
  131.3270  121.8280   62.5500 C   0  0  1  0  0  0  0  0  0  0  0  0
  132.0450  122.4800   63.7860 C   0  0  2  0  0  0  0  0  0  0  0  0
  131.1340  123.3380   64.7030 C   0  0  0  0  0  0  0  0  0  0  0  0
  133.2930  123.2910   63.3350 C   0  0  0  0  0  0  0  0  0  0  0  0
  133.1970  124.8200   63.5690 C   0  0  0  0  0  0  0  0  0  0  0  0
  133.2780  125.2470   65.0440 C   0  0  0  0  0  0  0  0  0  0  0  0
  132.1930  125.8360   65.5540 N   0  0  0  0  0  0  0  0  0  0  0  0
  134.2890  125.0630   65.7190 O   0  0  0  0  0  0  0  0  0  0  0  0
  130.0550  122.4840   61.8900 C   0  0  1  0  0  0  0  0  0  0  0  0
  129.1780  121.2870   61.3750 C   0  0  0  0  0  0  0  0  0  0  0  0
  128.4162  127.4040   63.8816 H   0  0  0  0  0  0  0  0  0  0  0  0
  129.5938  126.9804   62.5931 H   0  0  0  0  0  0  0  0  0  0  0  0
  127.9573  126.2397   62.5931 H   0  0  0  0  0  0  0  0  0  0  0  0
  128.6417  122.8364   63.5071 H   0  0  0  0  0  0  0  0  0  0  0  0
  127.3601  123.2594   61.4629 H   0  0  0  0  0  0  0  0  0  0  0  0
  127.4920  124.8140   62.4128 H   0  0  0  0  0  0  0  0  0  0  0  0
  129.1569  125.6638   60.9625 H   0  0  0  0  0  0  0  0  0  0  0  0
  129.0682  123.0843   59.2950 H   0  0  0  0  0  0  0  0  0  0  0  0
  130.8030  123.9777   57.9474 H   0  0  0  0  0  0  0  0  0  0  0  0
  132.6367  125.3906   61.1069 H   0  0  0  0  0  0  0  0  0  0  0  0
  133.4881  124.0143   60.3275 H   0  0  0  0  0  0  0  0  0  0  0  0
  134.2345  125.6482   60.3275 H   0  0  0  0  0  0  0  0  0  0  0  0
  129.7867  126.1203   57.0389 H   0  0  0  0  0  0  0  0  0  0  0  0
  128.6818  124.6597   57.1882 H   0  0  0  0  0  0  0  0  0  0  0  0
  127.4208  126.5841   57.7931 H   0  0  0  0  0  0  0  0  0  0  0  0
  129.6464  127.3385   59.7340 H   0  0  0  0  0  0  0  0  0  0  0  0
  129.1179  128.2005   58.2033 H   0  0  0  0  0  0  0  0  0  0  0  0
  127.8629  127.3058   61.7147 H   0  0  0  0  0  0  0  0  0  0  0  0
  126.3190  128.2068   61.4274 H   0  0  0  0  0  0  0  0  0  0  0  0
  126.0140  125.7639   61.1686 H   0  0  0  0  0  0  0  0  0  0  0  0
  125.7498  126.6806   59.6072 H   0  0  0  0  0  0  0  0  0  0  0  0
  126.1551  123.6906   59.7087 H   0  0  0  0  0  0  0  0  0  0  0  0
  125.8620  124.7770   58.3085 H   0  0  0  0  0  0  0  0  0  0  0  0
  127.2803  123.6746   58.3085 H   0  0  0  0  0  0  0  0  0  0  0  0
  124.8921  132.2374   60.3513 H   0  0  0  0  0  0  0  0  0  0  0  0
  125.3778  131.3325   61.8586 H   0  0  0  0  0  0  0  0  0  0  0  0
  125.5560  133.8319   62.0718 H   0  0  0  0  0  0  0  0  0  0  0  0
  127.1066  132.9301   62.3430 H   0  0  0  0  0  0  0  0  0  0  0  0
  126.2812  134.4777   59.8404 H   0  0  0  0  0  0  0  0  0  0  0  0
  127.5935  134.8857   61.0281 H   0  0  0  0  0  0  0  0  0  0  0  0
  128.4350  133.8753   58.8776 H   0  0  0  0  0  0  0  0  0  0  0  0
  128.8764  132.9551   60.3784 H   0  0  0  0  0  0  0  0  0  0  0  0
  126.6813  132.2637   58.3670 H   0  0  0  0  0  0  0  0  0  0  0  0
  128.2408  131.3752   58.6843 H   0  0  0  0  0  0  0  0  0  0  0  0
  131.1438  124.2418   61.0562 H   0  0  0  0  0  0  0  0  0  0  0  0
  131.3931  121.7733   59.3527 H   0  0  0  0  0  0  0  0  0  0  0  0
  132.6079  123.0001   59.7317 H   0  0  0  0  0  0  0  0  0  0  0  0
  132.2101  120.4743   61.0711 H   0  0  0  0  0  0  0  0  0  0  0  0
  133.3081  121.7765   61.5980 H   0  0  0  0  0  0  0  0  0  0  0  0
  130.9816  120.9453   63.1081 H   0  0  0  0  0  0  0  0  0  0  0  0
  132.3564  121.6305   64.4116 H   0  0  0  0  0  0  0  0  0  0  0  0
  131.3649  123.1205   65.7563 H   0  0  0  0  0  0  0  0  0  0  0  0
  131.3114  124.4047   64.5015 H   0  0  0  0  0  0  0  0  0  0  0  0
  130.0798  123.0971   64.5015 H   0  0  0  0  0  0  0  0  0  0  0  0
  134.1644  122.9143   63.8907 H   0  0  0  0  0  0  0  0  0  0  0  0
  133.3760  123.1500   62.2472 H   0  0  0  0  0  0  0  0  0  0  0  0
  134.0227  125.3029   63.0259 H   0  0  0  0  0  0  0  0  0  0  0  0
  132.2049  125.1294   63.2084 H   0  0  0  0  0  0  0  0  0  0  0  0
  131.3730  125.9790   64.9840 H   0  0  0  0  0  0  0  0  0  0  0  0
  132.1890  126.1400   66.5160 H   0  0  0  0  0  0  0  0  0  0  0  0
  128.7723  120.7333   62.2345 H   0  0  0  0  0  0  0  0  0  0  0  0
  128.3493  121.6755   60.7649 H   0  0  0  0  0  0  0  0  0  0  0  0
  129.7983  120.6139   60.7649 H   0  0  0  0  0  0  0  0  0  0  0  0
  1  2  1  0
  2  3  2  0
  2  4  1  0
  4  5  1  0
  5  6  1  0
  6  7  1  0
  7  8  1  0
  8  9  1  0
  9 10  1  0
 10 11  1  0
 11 12  1  0
 11 13  2  0
  9 14  1  0
 14 15  1  0
 15 16  1  0
 16 17  1  0
 17 18  1  0
 18 19  1  0
 19 20  1  0
 20 21  1  6
 17 22  1  0
 22 23  1  0
 23 24  1  0
 24 25  1  0
 25 26  1  0
 26 27  1  0
 27 28  1  0
 28 29  1  0
 24 30  1  0
 30 31  1  0
  8 32  1  0
 32 33  1  0
 33 34  1  0
 34 35  1  0
 35 36  1  0
 36 37  1  0
 36 38  1  0
 38 39  1  0
 39 40  1  0
 40 41  1  0
 40 42  2  0
 35 43  1  0
 43 44  1  6
 43  5  1  0
 20  7  1  0
 29 24  1  0
 43 32  1  0
 20 15  1  0
 31 17  1  0
  1 45  1  0
  1 46  1  0
  1 47  1  0
  5 48  1  1
  6 49  1  0
  6 50  1  0
  7 51  1  1
  8 52  1  6
  9 53  1  6
 12 54  1  0
 12 55  1  0
 12 56  1  0
 14 57  1  0
 14 58  1  0
 15 59  1  6
 16 60  1  0
 16 61  1  0
 18 62  1  0
 18 63  1  0
 19 64  1  0
 19 65  1  0
 21 66  1  0
 21 67  1  0
 21 68  1  0
 25 69  1  0
 25 70  1  0
 26 71  1  0
 26 72  1  0
 27 73  1  0
 27 74  1  0
 28 75  1  0
 28 76  1  0
 29 77  1  0
 29 78  1  0
 32 79  1  1
 33 80  1  0
 33 81  1  0
 34 82  1  0
 34 83  1  0
 35 84  1  1
 36 85  1  1
 37 86  1  0
 37 87  1  0
 37 88  1  0
 38 89  1  0
 38 90  1  0
 39 91  1  0
 39 92  1  0
 41 93  1  0
 41 94  1  0
 44 95  1  0
 44 96  1  0
 44 97  1  0
M  END
>  <Binding energies>  (1) 
[-7.23]

>  <Ligand effiencies>  (1) 
[-0.15717391304347827]

>  <Interactions>  (1) 
["V-A:ASP:366:CA:3210, V-B:PRO:540:CA:9855, V-A:GLY:454:CA:4049, H-A:GLU:543:OE2:4910, V-B:ASP:366:CG:8184, V-B:ALA:541:CB:9864, H-A:ARG:545:NH1:4927, V-A:TYR:484:CE2:4346, V-B:TYR:539:CE2:9848, V-B:LEU:475:CD2:9230, V-B:GLU:543:CG:9879, V-A:ASP:366:CG:3213, V-A:TYR:539:CD1:4873, V-B:TYR:539:CZ:9849, H-B:TYR:539:OH:9850, V-A:TYR:484:CZ:4347, V-A:GLU:543:CD:4908, H-A:GLY:454:N:4050, V-B:TYR:539:CD2:9846, V-B:GLU:543:CD:9880, V-A:TYR:539:C:4867, V-A:ASP:366:CB:3212, V-A:ARG:545:CD:4923, V-A:LEU:475:CD2:4259, V-A:ARG:545:CZ:4926, H-A:GLU:543:OE1:4909, H-A:ARG:545:NE:4924, V-B:PRO:540:C:9853, V-A:TYR:539:CE1:4875, H-A:TYR:484:OH:4348"]

$$$$
ZINC299862259
     RDKit          3D

 54 57  0  0  0  0  0  0  0  0999 V2000
  130.6050  119.5190   60.9150 C   0  0  0  0  0  0  0  0  0  0  0  0
  129.5170  120.1150   61.6150 O   0  0  0  0  0  0  0  0  0  0  0  0
  129.5740  121.4580   61.9510 C   0  0  0  0  0  0  0  0  0  0  0  0
  130.0090  121.9260   63.1950 C   0  0  0  0  0  0  0  0  0  0  0  0
  130.0440  123.2880   63.4590 C   0  0  0  0  0  0  0  0  0  0  0  0
  130.4640  123.6450   64.7230 O   0  0  0  0  0  0  0  0  0  0  0  0
  129.9910  124.8210   65.2630 C   0  0  0  0  0  0  0  0  0  0  0  0
  129.9070  124.8850   66.6500 C   0  0  0  0  0  0  0  0  0  0  0  0
  129.4350  126.0480   67.2450 C   0  0  0  0  0  0  0  0  0  0  0  0
  129.0080  127.1330   66.4670 C   0  0  0  0  0  0  0  0  0  0  0  0
  129.0880  127.0630   65.0660 C   0  0  0  0  0  0  0  0  0  0  0  0
  128.6660  128.1410   64.3240 O   0  0  0  0  0  0  0  0  0  0  0  0
  129.5790  125.8900   64.4460 C   0  0  0  0  0  0  0  0  0  0  0  0
  129.6590  125.6810   62.9610 C   0  0  0  0  0  0  0  0  0  0  0  0
  129.5800  126.6260   62.1790 O   0  0  0  0  0  0  0  0  0  0  0  0
  129.6280  124.2410   62.5100 C   0  0  0  0  0  0  0  0  0  0  0  0
  129.1790  123.7770   61.2450 C   0  0  0  0  0  0  0  0  0  0  0  0
  128.6790  124.7350   60.1490 C   0  0  0  0  0  0  0  0  0  0  0  0
  127.2530  124.4250   59.7110 C   0  0  0  0  0  0  0  0  0  0  0  0
  126.8370  123.8340   58.5690 C   0  0  0  0  0  0  0  0  0  0  0  0
  125.3590  123.6190   58.2910 C   0  0  0  0  0  0  0  0  0  0  0  0
  127.7530  123.3190   57.4680 C   0  0  0  0  0  0  0  0  0  0  0  0
  129.1620  122.3880   60.9880 C   0  0  0  0  0  0  0  0  0  0  0  0
  128.7180  121.9020   59.7800 O   0  0  0  0  0  0  0  0  0  0  0  0
  128.5440  128.3240   67.1950 C   0  0  0  0  0  0  0  0  0  0  0  0
  128.7490  128.4410   68.5170 C   0  0  0  0  0  0  0  0  0  0  0  0
  129.5400  127.3660   69.2690 C   0  0  0  0  0  0  0  0  0  0  0  0
  128.9660  127.2220   70.6890 C   0  0  0  0  0  0  0  0  0  0  0  0
  131.0450  127.7180   69.2360 C   0  0  0  0  0  0  0  0  0  0  0  0
  129.3520  126.0780   68.6310 O   0  0  0  0  0  0  0  0  0  0  0  0
  131.3321  119.1207   61.6380 H   0  0  0  0  0  0  0  0  0  0  0  0
  130.2301  118.7003   60.2832 H   0  0  0  0  0  0  0  0  0  0  0  0
  131.0931  120.2757   60.2832 H   0  0  0  0  0  0  0  0  0  0  0  0
  130.3252  121.2106   63.9685 H   0  0  0  0  0  0  0  0  0  0  0  0
  130.2102  124.0264   67.2672 H   0  0  0  0  0  0  0  0  0  0  0  0
  129.2020  128.2860   63.5420 H   0  0  0  0  0  0  0  0  0  0  0  0
  128.7134  125.7638   60.5368 H   0  0  0  0  0  0  0  0  0  0  0  0
  129.3326  124.6117   59.2729 H   0  0  0  0  0  0  0  0  0  0  0  0
  126.4605  124.7200   60.4145 H   0  0  0  0  0  0  0  0  0  0  0  0
  124.8145  123.5398   59.2435 H   0  0  0  0  0  0  0  0  0  0  0  0
  124.9669  124.4696   57.7141 H   0  0  0  0  0  0  0  0  0  0  0  0
  125.2255  122.6920   57.7141 H   0  0  0  0  0  0  0  0  0  0  0  0
  128.6276  122.8273   57.9188 H   0  0  0  0  0  0  0  0  0  0  0  0
  127.2065  122.5959   56.8447 H   0  0  0  0  0  0  0  0  0  0  0  0
  128.0869  124.1617   56.8447 H   0  0  0  0  0  0  0  0  0  0  0  0
  128.6380  120.9450   59.7770 H   0  0  0  0  0  0  0  0  0  0  0  0
  128.0241  129.1265   66.6513 H   0  0  0  0  0  0  0  0  0  0  0  0
  128.3486  129.3095   69.0604 H   0  0  0  0  0  0  0  0  0  0  0  0
  129.7577  127.4206   71.4264 H   0  0  0  0  0  0  0  0  0  0  0  0
  128.1464  127.9424   70.8280 H   0  0  0  0  0  0  0  0  0  0  0  0
  128.5835  126.2001   70.8280 H   0  0  0  0  0  0  0  0  0  0  0  0
  131.4235  127.8065   70.2650 H   0  0  0  0  0  0  0  0  0  0  0  0
  131.5957  126.9244   68.7097 H   0  0  0  0  0  0  0  0  0  0  0  0
  131.1866  128.6735   68.7097 H   0  0  0  0  0  0  0  0  0  0  0  0
  1  2  1  0
  2  3  1  0
  3  4  2  0
  4  5  1  0
  5  6  1  0
  6  7  1  0
  7  8  2  0
  8  9  1  0
  9 10  2  0
 10 11  1  0
 11 12  1  0
 11 13  2  0
 13 14  1  0
 14 15  2  0
 14 16  1  0
 16 17  1  0
 17 18  1  0
 18 19  1  0
 19 20  2  3
 20 21  1  0
 20 22  1  0
 17 23  2  0
 23 24  1  0
 10 25  1  0
 25 26  2  0
 26 27  1  0
 27 28  1  0
 27 29  1  0
 27 30  1  0
 23  3  1  0
 16  5  2  0
 13  7  1  0
 30  9  1  0
  1 31  1  0
  1 32  1  0
  1 33  1  0
  4 34  1  0
  8 35  1  0
 12 36  1  0
 18 37  1  0
 18 38  1  0
 19 39  1  0
 21 40  1  0
 21 41  1  0
 21 42  1  0
 22 43  1  0
 22 44  1  0
 22 45  1  0
 24 46  1  0
 25 47  1  0
 26 48  1  0
 28 49  1  0
 28 50  1  0
 28 51  1  0
 29 52  1  0
 29 53  1  0
 29 54  1  0
M  END
>  <Binding energies>  (1) 
[-6.89]

>  <Ligand effiencies>  (1) 
[-0.2153125]

>  <Interactions>  (1) 
["V-B:PRO:540:CA:9855, H-A:GLU:543:OE2:4910, V-A:GLU:543:C:4902, V-B:GLU:543:CB:9878, V-B:ALA:541:CB:9864, V-B:TYR:539:CE2:9848, V-A:TYR:484:CE2:4346, V-B:GLU:543:CG:9879, V-B:TYR:539:CZ:9849, H-B:ALA:541:N:9863, V-A:GLU:543:CD:4908, V-A:TYR:484:CZ:4347, V-B:PRO:540:CB:9857, V-A:ARG:545:CG:4922, V-B:HIS:456:CE1:9041, V-B:GLU:543:CA:9876, V-A:HIS:456:CE1:4070, V-B:TYR:539:CD2:9846, V-A:GLU:543:CG:4907, V-B:GLU:543:CD:9880, V-A:LEU:475:CD2:4259, H-A:GLU:543:OE1:4909, V-A:GLU:543:CB:4906, H-B:TYR:539:O:9840, V-B:TYR:539:CE1:9847, H-A:TYR:484:OH:4348"]

$$$$
ZINC30010375
     RDKit          3D

 34 35  0  0  0  0  0  0  0  0999 V2000
  129.5410  125.8520   66.1280 C   0  0  0  0  0  0  0  0  0  0  0  0
  129.7650  126.3380   67.2270 C   0  0  0  0  0  0  0  0  0  0  0  0
  130.0310  126.9050   68.5410 C   0  0  0  0  0  0  0  0  0  0  0  0
  131.2400  127.5580   68.7900 C   0  0  0  0  0  0  0  0  0  0  0  0
  131.4930  128.1010   70.0490 C   0  0  0  0  0  0  0  0  0  0  0  0
  130.5400  127.9910   71.0610 C   0  0  0  0  0  0  0  0  0  0  0  0
  129.3260  127.3370   70.8310 C   0  0  0  0  0  0  0  0  0  0  0  0
  128.4150  127.2640   71.9000 N   0  0  0  0  0  0  0  0  0  0  0  0
  128.7550  127.6440   73.2820 C   0  0  2  0  0  0  0  0  0  0  0  0
  129.2020  129.1210   73.3530 C   0  0  0  0  0  0  0  0  0  0  0  0
  129.8610  126.6910   73.8310 C   0  0  0  0  0  0  0  0  0  0  0  0
  129.4850  125.5150   74.0130 O   0  0  0  0  0  0  0  0  0  0  0  0
  131.0080  127.2520   74.0220 N   0  0  0  0  0  0  0  0  0  0  0  0
  132.1080  126.6130   74.5170 C   0  0  0  0  0  0  0  0  0  0  0  0
  132.3770  125.3090   74.8960 C   0  0  0  0  0  0  0  0  0  0  0  0
  133.6930  125.3090   75.3520 C   0  0  0  0  0  0  0  0  0  0  0  0
  134.5140  124.1570   75.8790 C   0  0  0  0  0  0  0  0  0  0  0  0
  134.2170  126.5140   75.2880 N   0  0  0  0  0  0  0  0  0  0  0  0
  133.2210  127.3460   74.7730 O   0  0  0  0  0  0  0  0  0  0  0  0
  129.0770  126.7970   69.5580 C   0  0  0  0  0  0  0  0  0  0  0  0
  129.3394  125.4147   65.1390 H   0  0  0  0  0  0  0  0  0  0  0  0
  131.9929  127.6440   67.9927 H   0  0  0  0  0  0  0  0  0  0  0  0
  132.4450  128.6165   70.2441 H   0  0  0  0  0  0  0  0  0  0  0  0
  130.7457  128.4236   72.0512 H   0  0  0  0  0  0  0  0  0  0  0  0
  127.4410  127.3710   71.6530 H   0  0  0  0  0  0  0  0  0  0  0  0
  127.8593  127.5423   73.9124 H   0  0  0  0  0  0  0  0  0  0  0  0
  129.2943  129.4260   74.4058 H   0  0  0  0  0  0  0  0  0  0  0  0
  130.1746  129.2342   72.8519 H   0  0  0  0  0  0  0  0  0  0  0  0
  128.4554  129.7546   72.8519 H   0  0  0  0  0  0  0  0  0  0  0  0
  131.6922  124.4496   74.8471 H   0  0  0  0  0  0  0  0  0  0  0  0
  134.5033  124.1720   76.9788 H   0  0  0  0  0  0  0  0  0  0  0  0
  134.0871  123.2085   75.5211 H   0  0  0  0  0  0  0  0  0  0  0  0
  135.5499  124.2510   75.5211 H   0  0  0  0  0  0  0  0  0  0  0  0
  128.1238  126.2850   69.3596 H   0  0  0  0  0  0  0  0  0  0  0  0
  1  2  3  0
  2  3  1  0
  3  4  2  0
  4  5  1  0
  5  6  2  0
  6  7  1  0
  7  8  1  0
  8  9  1  0
  9 10  1  0
  9 11  1  0
 11 12  1  0
 11 13  2  0
 13 14  1  0
 14 15  2  0
 15 16  1  0
 16 17  1  0
 16 18  2  0
 18 19  1  0
  7 20  2  0
 20  3  1  0
 19 14  1  0
  1 21  1  0
  4 22  1  0
  5 23  1  0
  6 24  1  0
  8 25  1  0
  9 26  1  1
 10 27  1  0
 10 28  1  0
 10 29  1  0
 15 30  1  0
 17 31  1  0
 17 32  1  0
 17 33  1  0
 20 34  1  0
M  CHG  1  12  -1
M  END
>  <Binding energies>  (1) 
[-7.63]

>  <Ligand effiencies>  (1) 
[-0.36333333333333334]

>  <Interactions>  (1) 
["V-A:ARG:545:CA:4919, V-B:HIS:456:CD2:9039, H-B:GLU:543:O:9875, V-A:GLU:543:C:4902, V-B:GLU:543:CB:9878, H-B:LYS:547:NZ:9923, V-A:GLY:544:CA:4914, V-B:GLU:543:CG:9879, V-A:GLY:544:C:4912, V-A:HIS:456:CD2:4068, V-A:HIS:456:CB:4065, V-A:GLU:543:CD:4908, V-A:ARG:545:CG:4922, V-A:HIS:456:CE1:4070, H-B:HIS:456:NE2:9042, V-A:HIS:456:CA:4063, V-B:GLU:543:CD:9880, H-A:LYS:547:NZ:4951, V-A:HIS:456:C:4061, V-A:HIS:456:CG:4066, V-A:GLU:543:CB:4906, H-B:GLY:544:O:9885, V-A:VAL:458:CG2:4087"]

$$$$
ZINC30010375-again1
     RDKit          3D

 35 36  0  0  0  0  0  0  0  0999 V2000
  127.2360  127.3430   72.4670 C   0  0  0  0  0  0  0  0  0  0  0  0
  128.1670  127.4260   71.6820 C   0  0  0  0  0  0  0  0  0  0  0  0
  129.2680  127.5240   70.7340 C   0  0  0  0  0  0  0  0  0  0  0  0
  130.4640  128.1410   71.1090 C   0  0  0  0  0  0  0  0  0  0  0  0
  131.5170  128.2320   70.2000 C   0  0  0  0  0  0  0  0  0  0  0  0
  131.3760  127.7090   68.9150 C   0  0  0  0  0  0  0  0  0  0  0  0
  130.1840  127.0930   68.5230 C   0  0  0  0  0  0  0  0  0  0  0  0
  130.1070  126.5890   67.2120 N   0  0  0  0  0  0  0  0  0  0  0  0
  129.6230  125.2900   66.7810 C   0  0  2  0  0  0  0  0  0  0  0  0
  129.5000  124.3000   67.9570 C   0  0  0  0  0  0  0  0  0  0  0  0
  130.5220  124.6760   65.6750 C   0  0  0  0  0  0  0  0  0  0  0  0
  130.4090  123.4850   65.3640 O   0  0  0  0  0  0  0  0  0  0  0  0
  131.4080  125.5360   65.1320 N   0  0  0  0  0  0  0  0  0  0  0  0
  132.3320  125.2110   64.1590 C   0  0  0  0  0  0  0  0  0  0  0  0
  132.3010  125.0040   62.7930 C   0  0  0  0  0  0  0  0  0  0  0  0
  133.6160  124.6950   62.4530 C   0  0  0  0  0  0  0  0  0  0  0  0
  134.1890  124.3670   61.0940 C   0  0  0  0  0  0  0  0  0  0  0  0
  134.4020  124.7110   63.5090 N   0  0  0  0  0  0  0  0  0  0  0  0
  133.5990  125.0370   64.6040 O   0  0  0  0  0  0  0  0  0  0  0  0
  129.1310  126.9990   69.4450 C   0  0  0  0  0  0  0  0  0  0  0  0
  126.3970  127.2682   73.1744 H   0  0  0  0  0  0  0  0  0  0  0  0
  130.5749  128.5552   72.1220 H   0  0  0  0  0  0  0  0  0  0  0  0
  132.4591  128.7164   70.4964 H   0  0  0  0  0  0  0  0  0  0  0  0
  132.2111  127.7819   68.2028 H   0  0  0  0  0  0  0  0  0  0  0  0
  130.9590  126.8450   66.7330 H   0  0  0  0  0  0  0  0  0  0  0  0
  128.6200  125.4619   66.3634 H   0  0  0  0  0  0  0  0  0  0  0  0
  129.5683  124.8494   68.9075 H   0  0  0  0  0  0  0  0  0  0  0  0
  128.5307  123.7829   67.9012 H   0  0  0  0  0  0  0  0  0  0  0  0
  130.3133  123.5615   67.9012 H   0  0  0  0  0  0  0  0  0  0  0  0
  131.4150  126.4910   65.4580 H   0  0  0  0  0  0  0  0  0  0  0  0
  131.4310  125.0688   62.1230 H   0  0  0  0  0  0  0  0  0  0  0  0
  135.1376  123.8240   61.2174 H   0  0  0  0  0  0  0  0  0  0  0  0
  133.4771  123.7396   60.5376 H   0  0  0  0  0  0  0  0  0  0  0  0
  134.3695  125.2986   60.5376 H   0  0  0  0  0  0  0  0  0  0  0  0
  128.1908  126.5089   69.1521 H   0  0  0  0  0  0  0  0  0  0  0  0
  1  2  3  0
  2  3  1  0
  3  4  2  0
  4  5  1  0
  5  6  2  0
  6  7  1  0
  7  8  1  0
  8  9  1  0
  9 10  1  0
  9 11  1  0
 11 12  2  0
 11 13  1  0
 13 14  1  0
 14 15  2  0
 15 16  1  0
 16 17  1  0
 16 18  2  0
 18 19  1  0
  7 20  2  0
 20  3  1  0
 19 14  1  0
  1 21  1  0
  4 22  1  0
  5 23  1  0
  6 24  1  0
  8 25  1  0
  9 26  1  6
 10 27  1  0
 10 28  1  0
 10 29  1  0
 13 30  1  0
 15 31  1  0
 17 32  1  0
 17 33  1  0
 17 34  1  0
 20 35  1  0
M  END
>  <Binding energies>  (1) 
[-7.21]

>  <Ligand effiencies>  (1) 
[-0.3277272727272727]

>  <Interactions>  (1) 
["V-A:ARG:545:CA:4919, V-B:GLU:543:C:9874, H-A:GLU:543:OE2:4910, V-B:HIS:456:CD2:9039, V-A:GLU:543:C:4902, V-B:GLU:543:CB:9878, H-A:ARG:545:NH1:4927, V-A:TYR:484:CE2:4346, V-A:GLY:544:CA:4914, V-B:GLU:543:CG:9879, V-A:GLY:544:C:4912, V-A:ASP:366:CG:3213, V-B:LYS:547:CE:9922, V-A:TYR:484:CZ:4347, V-A:GLU:543:CD:4908, V-B:HIS:456:CE1:9041, V-B:GLU:543:CA:9876, H-A:GLY:454:N:4050, V-A:ARG:545:CG:4922, V-A:TYR:484:CD2:4344, V-A:HIS:456:CE1:4070, V-A:ILE:369:CD1:3239, V-B:GLY:544:C:9884, V-B:GLU:543:CD:9880, V-B:HIS:456:CG:9037, H-A:ARG:545:NH2:4928, V-A:ARG:545:CZ:4926, H-A:GLU:543:OE1:4909, V-A:GLU:543:CB:4906, H-A:ARG:545:NE:4924, H-A:TYR:484:OH:4348"]

$$$$
ZINC3001448
     RDKit          3D

 47 50  0  0  0  0  0  0  0  0999 V2000
  126.9150  128.8530   64.9080 O   0  0  0  0  0  0  0  0  0  0  0  0
  127.6170  129.5330   65.6640 C   0  0  0  0  0  0  0  0  0  0  0  0
  128.3120  130.6170   65.2700 N   0  0  0  0  0  0  0  0  0  0  0  0
  128.3130  131.0530   63.9970 N   0  0  0  0  0  0  0  0  0  0  0  0
  129.4830  131.1450   63.5130 C   0  0  0  0  0  0  0  0  0  0  0  0
  129.7180  131.5780   62.1370 C   0  0  0  0  0  0  0  0  0  0  0  0
  130.7530  130.9720   61.4130 C   0  0  0  0  0  0  0  0  0  0  0  0
  131.0140  131.3360   60.0910 C   0  0  0  0  0  0  0  0  0  0  0  0
  132.0410  130.7280   59.4170 O   0  0  0  0  0  0  0  0  0  0  0  0
  130.2320  132.3140   59.4720 C   0  0  0  0  0  0  0  0  0  0  0  0
  130.5560  132.8410   57.6690 Br  0  0  0  0  0  0  0  0  0  0  0  0
  129.1910  132.9150   60.1780 C   0  0  0  0  0  0  0  0  0  0  0  0
  128.9260  132.5530   61.5000 C   0  0  0  0  0  0  0  0  0  0  0  0
  127.4670  133.4160   62.3860 Br  0  0  0  0  0  0  0  0  0  0  0  0
  127.7700  129.1720   67.1590 C   0  0  1  0  0  0  0  0  0  0  0  0
  126.9530  127.9940   67.6560 C   0  0  0  0  0  0  0  0  0  0  0  0
  128.4690  127.8680   67.5600 C   0  0  0  0  0  0  0  0  0  0  0  0
  129.0780  126.9260   66.5170 C   0  0  0  0  0  0  0  0  0  0  0  0
  129.5960  125.6840   66.9000 C   0  0  0  0  0  0  0  0  0  0  0  0
  130.1380  124.8300   65.9430 C   0  0  0  0  0  0  0  0  0  0  0  0
  130.1590  125.2180   64.6050 C   0  0  0  0  0  0  0  0  0  0  0  0
  129.6420  126.4520   64.2150 C   0  0  0  0  0  0  0  0  0  0  0  0
  129.1020  127.3060   65.1720 C   0  0  0  0  0  0  0  0  0  0  0  0
  129.2620  127.8700   68.8630 C   0  0  0  0  0  0  0  0  0  0  0  0
  128.5930  127.7530   70.0830 C   0  0  0  0  0  0  0  0  0  0  0  0
  129.3120  127.7700   71.2760 C   0  0  0  0  0  0  0  0  0  0  0  0
  130.6970  127.9110   71.2440 C   0  0  0  0  0  0  0  0  0  0  0  0
  131.3710  128.0340   70.0310 C   0  0  0  0  0  0  0  0  0  0  0  0
  130.6530  128.0160   68.8380 C   0  0  0  0  0  0  0  0  0  0  0  0
  128.8770  131.1480   65.9140 H   0  0  0  0  0  0  0  0  0  0  0  0
  130.3449  130.8915   64.1477 H   0  0  0  0  0  0  0  0  0  0  0  0
  131.3692  130.1978   61.8935 H   0  0  0  0  0  0  0  0  0  0  0  0
  132.5970  130.1880   59.9830 H   0  0  0  0  0  0  0  0  0  0  0  0
  128.5724  133.6818   59.6887 H   0  0  0  0  0  0  0  0  0  0  0  0
  127.9072  130.2253   67.4448 H   0  0  0  0  0  0  0  0  0  0  0  0
  126.4678  128.0401   68.6421 H   0  0  0  0  0  0  0  0  0  0  0  0
  126.1014  127.4203   67.2614 H   0  0  0  0  0  0  0  0  0  0  0  0
  129.5751  125.3821   67.9575 H   0  0  0  0  0  0  0  0  0  0  0  0
  130.5476  123.8538   66.2419 H   0  0  0  0  0  0  0  0  0  0  0  0
  130.5879  124.5437   63.8491 H   0  0  0  0  0  0  0  0  0  0  0  0
  129.6607  126.7495   63.1562 H   0  0  0  0  0  0  0  0  0  0  0  0
  128.6934  128.2815   64.8696 H   0  0  0  0  0  0  0  0  0  0  0  0
  127.4982  127.6474   70.1021 H   0  0  0  0  0  0  0  0  0  0  0  0
  128.7884  127.6725   72.2384 H   0  0  0  0  0  0  0  0  0  0  0  0
  131.2647  127.9254   72.1861 H   0  0  0  0  0  0  0  0  0  0  0  0
  132.4653  128.1448   70.0157 H   0  0  0  0  0  0  0  0  0  0  0  0
  131.1790  128.1165   67.8771 H   0  0  0  0  0  0  0  0  0  0  0  0
  1  2  2  0
  2  3  1  0
  3  4  1  0
  4  5  2  0
  5  6  1  0
  6  7  2  0
  7  8  1  0
  8  9  1  0
  8 10  2  0
 10 11  1  0
 10 12  1  0
 12 13  2  0
 13 14  1  0
  2 15  1  0
 15 16  1  0
 16 17  1  0
 17 18  1  0
 18 19  2  0
 19 20  1  0
 20 21  2  0
 21 22  1  0
 22 23  2  0
 17 24  1  0
 24 25  2  0
 25 26  1  0
 26 27  2  0
 27 28  1  0
 28 29  2  0
 13  6  1  0
 17 15  1  0
 23 18  1  0
 29 24  1  0
  3 30  1  0
  5 31  1  0
  7 32  1  0
  9 33  1  0
 12 34  1  0
 15 35  1  1
 16 36  1  0
 16 37  1  0
 19 38  1  0
 20 39  1  0
 21 40  1  0
 22 41  1  0
 23 42  1  0
 25 43  1  0
 26 44  1  0
 27 45  1  0
 28 46  1  0
 29 47  1  0
M  END
>  <Binding energies>  (1) 
[-7.77]

>  <Ligand effiencies>  (1) 
[-0.25064516129032255]

>  <Interactions>  (1) 
["V-A:ARG:545:CA:4919, V-A:GLU:543:CA:4904, V-A:GLU:543:C:4902, V-B:GLU:543:CB:9878, V-A:TYR:484:CE2:4346, V-A:GLY:544:C:4912, V-B:GLU:543:CG:9879, V-B:LEU:475:CD2:9230, V-B:TYR:484:CE2:9317, V-A:ALA:541:CB:4892, V-A:GLU:543:CD:4908, H-B:TYR:484:OH:9319, V-A:ARG:545:CG:4922, V-B:HIS:456:CE1:9041, V-B:TYR:484:CZ:9318, V-A:HIS:456:CE1:4070, V-A:GLU:543:CG:4907, V-B:GLU:543:CD:9880, V-A:TYR:539:C:4867, H-A:GLU:543:OE1:4909, V-A:GLU:543:CB:4906, V-A:PRO:540:N:4884, V-A:PRO:540:CB:4885, V-A:PRO:540:CA:4883, H-A:ASP:366:OD2:3215, V-A:PRO:540:CD:4887"]

$$$$
ZINC301678475
     RDKit          3D

 42 45  0  0  0  0  0  0  0  0999 V2000
  129.1900  128.7520   70.8130 F   0  0  0  0  0  0  0  0  0  0  0  0
  129.7380  127.6680   70.2610 C   0  0  0  0  0  0  0  0  0  0  0  0
  131.0590  127.7240   70.4350 F   0  0  0  0  0  0  0  0  0  0  0  0
  129.2810  126.5970   70.9120 F   0  0  0  0  0  0  0  0  0  0  0  0
  129.4110  127.6250   68.7680 C   0  0  0  0  0  0  0  0  0  0  0  0
  129.8110  126.5500   67.9580 C   0  0  0  0  0  0  0  0  0  0  0  0
  129.4830  126.5660   66.5950 C   0  0  0  0  0  0  0  0  0  0  0  0
  129.8320  125.5460   65.6890 N   0  0  0  0  0  0  0  0  0  0  0  0
  131.1370  125.4620   65.0360 C   0  0  1  0  0  0  0  0  0  0  0  0
  132.2410  125.3970   66.1140 C   0  0  0  0  0  0  0  0  0  0  0  0
  133.6140  125.0970   65.4820 C   0  0  0  0  0  0  0  0  0  0  0  0
  133.5450  123.9400   64.6400 O   0  0  0  0  0  0  0  0  0  0  0  0
  132.5840  123.9700   63.5690 C   0  0  0  0  0  0  0  0  0  0  0  0
  132.7720  122.6250   62.8520 C   0  0  0  0  0  0  0  0  0  0  0  0
  133.9750  122.7970   61.9130 C   0  0  0  0  0  0  0  0  0  0  0  0
  134.1610  124.3120   61.7190 C   0  0  0  0  0  0  0  0  0  0  0  0
  133.0220  124.9860   62.4930 C   0  0  0  0  0  0  0  0  0  0  0  0
  131.1800  124.1780   64.1850 C   0  0  0  0  0  0  0  0  0  0  0  0
  128.7770  127.6580   66.1500 N   0  0  0  0  0  0  0  0  0  0  0  0
  128.3320  127.9290   64.9010 N   0  0  0  0  0  0  0  0  0  0  0  0
  127.7310  129.0930   65.0700 C   0  0  0  0  0  0  0  0  0  0  0  0
  127.7200  129.6280   66.2780 N   0  0  0  0  0  0  0  0  0  0  0  0
  128.4000  128.7040   66.9970 C   0  0  0  0  0  0  0  0  0  0  0  0
  128.7100  128.6990   68.2990 N   0  0  0  0  0  0  0  0  0  0  0  0
  130.3736  125.7075   68.3867 H   0  0  0  0  0  0  0  0  0  0  0  0
  129.2420  124.7270   65.6620 H   0  0  0  0  0  0  0  0  0  0  0  0
  131.2987  126.3431   64.3976 H   0  0  0  0  0  0  0  0  0  0  0  0
  132.2896  126.3631   66.6377 H   0  0  0  0  0  0  0  0  0  0  0  0
  131.9955  124.5884   66.8183 H   0  0  0  0  0  0  0  0  0  0  0  0
  133.9310  125.9620   64.8809 H   0  0  0  0  0  0  0  0  0  0  0  0
  134.3381  124.9041   66.2873 H   0  0  0  0  0  0  0  0  0  0  0  0
  132.9719  121.8286   63.5840 H   0  0  0  0  0  0  0  0  0  0  0  0
  131.8679  122.3419   62.2931 H   0  0  0  0  0  0  0  0  0  0  0  0
  134.8765  122.3578   62.3651 H   0  0  0  0  0  0  0  0  0  0  0  0
  133.8066  122.2894   60.9518 H   0  0  0  0  0  0  0  0  0  0  0  0
  135.1348  124.6309   62.1192 H   0  0  0  0  0  0  0  0  0  0  0  0
  134.1380  124.5853   60.6537 H   0  0  0  0  0  0  0  0  0  0  0  0
  133.3766  125.9143   62.9648 H   0  0  0  0  0  0  0  0  0  0  0  0
  132.1875  125.2573   61.8296 H   0  0  0  0  0  0  0  0  0  0  0  0
  130.4398  124.2578   63.3753 H   0  0  0  0  0  0  0  0  0  0  0  0
  130.9500  123.3193   64.8329 H   0  0  0  0  0  0  0  0  0  0  0  0
  127.2503  129.6056   64.2237 H   0  0  0  0  0  0  0  0  0  0  0  0
  1  2  1  0
  2  3  1  0
  2  4  1  0
  2  5  1  0
  5  6  1  0
  6  7  2  0
  7  8  1  0
  8  9  1  0
  9 10  1  0
 10 11  1  0
 11 12  1  0
 12 13  1  0
 13 14  1  0
 14 15  1  0
 15 16  1  0
 16 17  1  0
 13 18  1  0
  7 19  1  0
 19 20  1  0
 20 21  2  0
 21 22  1  0
 22 23  2  0
 23 24  1  0
 24  5  2  0
 18  9  1  0
 23 19  1  0
 17 13  1  0
  6 25  1  0
  8 26  1  0
  9 27  1  6
 10 28  1  0
 10 29  1  0
 11 30  1  0
 11 31  1  0
 14 32  1  0
 14 33  1  0
 15 34  1  0
 15 35  1  0
 16 36  1  0
 16 37  1  0
 17 38  1  0
 17 39  1  0
 18 40  1  0
 18 41  1  0
 21 42  1  0
M  END
>  <Binding energies>  (1) 
[-6.31]

>  <Ligand effiencies>  (1) 
[-0.25239999999999996]

>  <Interactions>  (1) 
["V-A:GLY:454:CA:4049, V-B:HIS:456:CD2:9039, V-A:GLU:543:C:4902, V-B:GLU:543:CB:9878, V-B:GLU:543:CG:9879, V-A:GLY:544:C:4912, V-A:HIS:456:CD2:4068, V-A:ASP:366:CG:3213, V-A:GLU:543:CD:4908, V-A:TYR:484:CZ:4347, H-B:TYR:484:OH:9319, V-B:HIS:456:CE1:9041, H-A:GLY:454:N:4050, V-A:HIS:456:CE1:4070, V-A:ILE:369:CD1:3239, V-A:GLU:543:CG:4907, V-B:GLU:543:CD:9880, V-A:ARG:545:CD:4923, V-A:LEU:475:CD2:4259, V-A:ARG:545:CZ:4926, V-A:GLU:543:CB:4906, H-A:TYR:484:OH:4348"]

$$$$
ZINC302668310
     RDKit          3D

 38 40  0  0  0  0  0  0  0  0999 V2000
  128.9300  126.9960   67.4510 C   0  0  0  0  0  0  0  0  0  0  0  0
  130.1880  126.1680   67.7550 C   0  0  0  0  0  0  0  0  0  0  0  0
  130.7490  125.4170   66.5540 C   0  0  0  0  0  0  0  0  0  0  0  0
  132.0520  125.4810   66.1610 C   0  0  0  0  0  0  0  0  0  0  0  0
  132.5160  124.7150   65.0070 C   0  0  0  0  0  0  0  0  0  0  0  0
  133.6860  124.7730   64.6200 O   0  0  0  0  0  0  0  0  0  0  0  0
  131.5120  123.9610   64.4380 N   0  0  0  0  0  0  0  0  0  0  0  0
  131.7850  123.1850   63.3540 N   0  0  0  0  0  0  0  0  0  0  0  0
  130.7420  122.5690   62.9520 C   0  0  0  0  0  0  0  0  0  0  0  0
  130.7330  121.7000   61.8550 N   0  0  0  0  0  0  0  0  0  0  0  0
  129.5440  120.9130   61.5230 C   0  0  0  0  0  0  0  0  0  0  0  0
  131.7840  121.7440   60.8300 C   0  0  0  0  0  0  0  0  0  0  0  0
  132.3490  123.1560   60.5750 C   0  0  2  0  0  0  0  0  0  0  0  0
  131.7510  123.9800   59.4240 C   0  0  0  0  0  0  0  0  0  0  0  0
  133.1780  124.4840   59.1600 C   0  0  2  0  0  0  0  0  0  0  0  0
  133.5850  124.6930   57.8250 O   0  0  0  0  0  0  0  0  0  0  0  0
  133.7250  123.2550   59.9050 C   0  0  0  0  0  0  0  0  0  0  0  0
  129.2500  122.8630   63.9000 S   0  0  0  0  0  0  0  0  0  0  0  0
  130.2180  123.9430   64.8990 C   0  0  0  0  0  0  0  0  0  0  0  0
  129.8200  124.6310   65.9160 N   0  0  0  0  0  0  0  0  0  0  0  0
  128.4584  127.3064   68.3950 H   0  0  0  0  0  0  0  0  0  0  0  0
  129.2093  127.8874   66.8702 H   0  0  0  0  0  0  0  0  0  0  0  0
  128.2217  126.3870   66.8702 H   0  0  0  0  0  0  0  0  0  0  0  0
  130.9664  126.8488   68.1300 H   0  0  0  0  0  0  0  0  0  0  0  0
  129.8940  125.4073   68.4932 H   0  0  0  0  0  0  0  0  0  0  0  0
  132.7596  126.1140   66.7166 H   0  0  0  0  0  0  0  0  0  0  0  0
  129.0501  120.5861   62.4499 H   0  0  0  0  0  0  0  0  0  0  0  0
  128.8485  121.5297   60.9348 H   0  0  0  0  0  0  0  0  0  0  0  0
  129.8400  120.0319   60.9348 H   0  0  0  0  0  0  0  0  0  0  0  0
  132.6102  121.0934   61.1528 H   0  0  0  0  0  0  0  0  0  0  0  0
  131.3257  121.4084   59.8880 H   0  0  0  0  0  0  0  0  0  0  0  0
  132.2044  123.4775   61.6170 H   0  0  0  0  0  0  0  0  0  0  0  0
  131.3134  123.3849   58.6089 H   0  0  0  0  0  0  0  0  0  0  0  0
  130.9060  124.6680   59.5744 H   0  0  0  0  0  0  0  0  0  0  0  0
  133.4735  125.5000   59.4606 H   0  0  0  0  0  0  0  0  0  0  0  0
  134.5440  124.7200   57.8010 H   0  0  0  0  0  0  0  0  0  0  0  0
  133.9866  122.4031   59.2601 H   0  0  0  0  0  0  0  0  0  0  0  0
  134.6575  123.2915   60.4873 H   0  0  0  0  0  0  0  0  0  0  0  0
  1  2  1  0
  2  3  1  0
  3  4  2  0
  4  5  1  0
  5  6  2  0
  5  7  1  0
  7  8  1  0
  8  9  2  0
  9 10  1  0
 10 11  1  0
 10 12  1  0
 12 13  1  0
 13 14  1  0
 14 15  1  0
 15 16  1  0
 15 17  1  0
  9 18  1  0
 18 19  1  0
 19 20  2  0
 20  3  1  0
 19  7  1  0
 17 13  1  0
  1 21  1  0
  1 22  1  0
  1 23  1  0
  2 24  1  0
  2 25  1  0
  4 26  1  0
 11 27  1  0
 11 28  1  0
 11 29  1  0
 12 30  1  0
 12 31  1  0
 13 32  1  6
 14 33  1  0
 14 34  1  0
 15 35  1  6
 16 36  1  0
 17 37  1  0
 17 38  1  0
M  END
>  <Binding energies>  (1) 
[-6.13]

>  <Ligand effiencies>  (1) 
[-0.2919047619047619]

>  <Interactions>  (1) 
["V-A:ILE:369:CG2:3237, V-A:ASP:366:CA:3210, V-A:ILE:369:CB:3236, V-B:GLU:543:CB:9878, V-B:ALA:541:CB:9864, V-B:TYR:539:CE2:9848, V-A:TYR:484:CE2:4346, V-B:GLU:543:CG:9879, V-A:ASP:366:CG:3213, V-B:TYR:539:CZ:9849, H-B:TYR:539:OH:9850, V-A:TYR:484:CZ:4347, V-A:GLU:543:CD:4908, H-A:GLY:454:N:4050, V-A:HIS:456:CE1:4070, V-A:ILE:369:CD1:3239, V-B:TYR:539:CD2:9846, V-B:GLU:543:CD:9880, V-A:ASP:366:CB:3212, V-A:LEU:475:CD2:4259, H-A:ARG:545:NH2:4928, V-A:ARG:545:CZ:4926, H-A:ASP:366:O:3209, H-A:ARG:545:NE:4924, V-B:PRO:540:C:9853, H-A:TYR:484:OH:4348"]

$$$$
ZINC3046263
     RDKit          3D

 34 35  0  0  0  0  0  0  0  0999 V2000
  133.9760  123.9630   57.5100 N   0  0  0  0  0  0  0  0  0  0  0  0
  133.9730  124.2480   58.6310 C   0  0  0  0  0  0  0  0  0  0  0  0
  133.9680  124.6130   60.0580 C   0  0  0  0  0  0  0  0  0  0  0  0
  132.6100  124.4020   60.7480 C   0  0  0  0  0  0  0  0  0  0  0  0
  132.6360  123.3900   61.8390 N   0  0  0  0  0  0  0  0  0  0  0  0
  131.8260  122.1490   61.7150 C   0  0  0  0  0  0  0  0  0  0  0  0
  130.3510  122.4580   61.8400 C   0  0  0  0  0  0  0  0  0  0  0  0
  129.4650  122.4940   62.9070 C   0  0  0  0  0  0  0  0  0  0  0  0
  128.2100  122.8110   62.3870 C   0  0  0  0  0  0  0  0  0  0  0  0
  128.3830  122.9540   61.0220 C   0  0  0  0  0  0  0  0  0  0  0  0
  129.6810  122.7340   60.6900 O   0  0  0  0  0  0  0  0  0  0  0  0
  133.1280  123.8880   63.4670 S   0  0  0  0  0  0  0  0  0  0  0  0
  133.2040  122.6970   64.3230 O   0  0  0  0  0  0  0  0  0  0  0  0
  134.2780  124.7910   63.3330 O   0  0  0  0  0  0  0  0  0  0  0  0
  131.7380  124.8540   64.0510 C   0  0  0  0  0  0  0  0  0  0  0  0
  130.9660  125.6040   63.1570 C   0  0  0  0  0  0  0  0  0  0  0  0
  129.8550  126.3120   63.6180 C   0  0  0  0  0  0  0  0  0  0  0  0
  128.9020  127.2340   62.5130 Cl  0  0  0  0  0  0  0  0  0  0  0  0
  129.5100  126.2690   64.9690 C   0  0  0  0  0  0  0  0  0  0  0  0
  130.2750  125.5160   65.8620 C   0  0  0  0  0  0  0  0  0  0  0  0
  129.8400  125.4500   67.5300 Cl  0  0  0  0  0  0  0  0  0  0  0  0
  131.3870  124.8090   65.4030 C   0  0  0  0  0  0  0  0  0  0  0  0
  134.7192  123.9985   60.5757 H   0  0  0  0  0  0  0  0  0  0  0  0
  134.1922  125.6884   60.1143 H   0  0  0  0  0  0  0  0  0  0  0  0
  132.2860  125.3626   61.1749 H   0  0  0  0  0  0  0  0  0  0  0  0
  131.9183  124.0247   59.9804 H   0  0  0  0  0  0  0  0  0  0  0  0
  132.0168  121.6900   60.7337 H   0  0  0  0  0  0  0  0  0  0  0  0
  132.1120  121.4582   62.5219 H   0  0  0  0  0  0  0  0  0  0  0  0
  129.7066  122.3077   63.9638 H   0  0  0  0  0  0  0  0  0  0  0  0
  127.2714  122.9245   62.9493 H   0  0  0  0  0  0  0  0  0  0  0  0
  127.5849  123.2089   60.3092 H   0  0  0  0  0  0  0  0  0  0  0  0
  131.2347  125.6356   62.0908 H   0  0  0  0  0  0  0  0  0  0  0  0
  128.6349  126.8286   65.3310 H   0  0  0  0  0  0  0  0  0  0  0  0
  131.9886  124.2150   66.1068 H   0  0  0  0  0  0  0  0  0  0  0  0
  1  2  3  0
  2  3  1  0
  3  4  1  0
  4  5  1  0
  5  6  1  0
  6  7  1  0
  7  8  2  0
  8  9  1  0
  9 10  2  0
 10 11  1  0
  5 12  1  0
 12 13  2  0
 12 14  2  0
 12 15  1  0
 15 16  2  0
 16 17  1  0
 17 18  1  0
 17 19  2  0
 19 20  1  0
 20 21  1  0
 20 22  2  0
 11  7  1  0
 22 15  1  0
  3 23  1  0
  3 24  1  0
  4 25  1  0
  4 26  1  0
  6 27  1  0
  6 28  1  0
  8 29  1  0
  9 30  1  0
 10 31  1  0
 16 32  1  0
 19 33  1  0
 22 34  1  0
M  END
>  <Binding energies>  (1) 
[-6.35]

>  <Ligand effiencies>  (1) 
[-0.28863636363636364]

>  <Interactions>  (1) 
["V-A:ILE:369:CG2:3237, V-A:ASP:366:CA:3210, V-B:PRO:540:CA:9855, V-A:GLY:454:CA:4049, V-A:ILE:369:CB:3236, V-B:GLU:543:CB:9878, V-B:ALA:541:CB:9864, H-A:ARG:545:NH1:4927, V-B:TYR:539:CE2:9848, V-B:GLU:543:CG:9879, V-A:ASP:366:CG:3213, H-A:ASN:370:N:3244, H-B:TYR:539:OH:9850, V-A:TYR:484:CZ:4347, V-A:GLU:543:CD:4908, V-B:GLU:543:CA:9876, H-A:GLY:454:N:4050, V-A:ILE:369:CD1:3239, V-A:HIS:456:CE1:4070, V-A:ASP:366:C:3208, V-B:GLU:543:CD:9880, V-A:ASP:366:CB:3212, V-A:LEU:475:CD2:4259, H-A:ARG:545:NH2:4928, H-A:TYR:484:OH:4348"]

$$$$
ZINC306161352
     RDKit          3D

 33 34  0  0  0  0  0  0  0  0999 V2000
  132.4720  125.2580   65.0230 S   0  0  0  0  0  0  0  0  0  0  0  0
  130.8780  124.9540   64.2170 C   0  0  0  0  0  0  0  0  0  0  0  0
  129.8710  126.0320   64.6460 C   0  0  0  0  0  0  0  0  0  0  0  0
  129.5280  125.9460   66.1430 C   0  0  0  0  0  0  0  0  0  0  0  0
  128.4900  127.0240   66.5440 N   0  0  2  0  0  0  0  0  0  0  0  0
  128.3550  128.1670   65.5180 C   0  0  0  0  0  0  0  0  0  0  0  0
  127.6720  129.2680   66.3070 C   0  0  0  0  0  0  0  0  0  0  0  0
  128.3670  129.1980   67.6550 C   0  0  0  0  0  0  0  0  0  0  0  0
  128.6410  127.7010   67.9430 C   0  0  1  0  0  0  0  0  0  0  0  0
  127.6730  127.0530   68.9240 C   0  0  0  0  0  0  0  0  0  0  0  0
  128.2880  127.3240   70.3020 C   0  0  0  0  0  0  0  0  0  0  0  0
  129.6430  127.6930   70.0400 O   0  0  0  0  0  0  0  0  0  0  0  0
  129.9630  127.4200   68.6820 C   0  0  0  0  0  0  0  0  0  0  0  0
  132.1520  126.4520   65.5310 H   0  0  0  0  0  0  0  0  0  0  0  0
  131.0074  124.9874   63.1251 H   0  0  0  0  0  0  0  0  0  0  0  0
  130.5017  123.9635   64.5126 H   0  0  0  0  0  0  0  0  0  0  0  0
  130.3024  127.0223   64.4380 H   0  0  0  0  0  0  0  0  0  0  0  0
  128.9429  125.8715   64.0778 H   0  0  0  0  0  0  0  0  0  0  0  0
  129.1129  124.9505   66.3592 H   0  0  0  0  0  0  0  0  0  0  0  0
  130.4481  126.1171   66.7210 H   0  0  0  0  0  0  0  0  0  0  0  0
  127.5920  126.5600   66.5540 H   0  0  0  0  0  0  0  0  0  0  0  0
  129.3426  128.4936   65.1602 H   0  0  0  0  0  0  0  0  0  0  0  0
  127.7952  127.8726   64.6180 H   0  0  0  0  0  0  0  0  0  0  0  0
  127.8253  130.2486   65.8328 H   0  0  0  0  0  0  0  0  0  0  0  0
  126.5811  129.1434   66.3730 H   0  0  0  0  0  0  0  0  0  0  0  0
  129.3142  129.7563   67.6216 H   0  0  0  0  0  0  0  0  0  0  0  0
  127.7421  129.6426   68.4436 H   0  0  0  0  0  0  0  0  0  0  0  0
  126.6756  127.5103   68.8461 H   0  0  0  0  0  0  0  0  0  0  0  0
  127.5358  125.9790   68.7300 H   0  0  0  0  0  0  0  0  0  0  0  0
  127.7558  128.1431   70.8079 H   0  0  0  0  0  0  0  0  0  0  0  0
  128.2205  126.4470   70.9626 H   0  0  0  0  0  0  0  0  0  0  0  0
  130.7633  128.0846   68.3245 H   0  0  0  0  0  0  0  0  0  0  0  0
  130.3350  126.3968   68.5247 H   0  0  0  0  0  0  0  0  0  0  0  0
  1  2  1  0
  2  3  1  0
  3  4  1  0
  4  5  1  0
  5  6  1  0
  6  7  1  0
  7  8  1  0
  9  8  1  6
  9 10  1  0
 10 11  1  0
 11 12  1  0
 12 13  1  0
  9  5  1  0
 13  9  1  0
  1 14  1  0
  2 15  1  0
  2 16  1  0
  3 17  1  0
  3 18  1  0
  4 19  1  0
  4 20  1  0
  5 21  1  1
  6 22  1  0
  6 23  1  0
  7 24  1  0
  7 25  1  0
  8 26  1  0
  8 27  1  0
 10 28  1  0
 10 29  1  0
 11 30  1  0
 11 31  1  0
 13 32  1  0
 13 33  1  0
M  CHG  1   5   1
M  END
>  <Binding energies>  (1) 
[-5.23]

>  <Ligand effiencies>  (1) 
[-0.3486666666666667]

>  <Interactions>  (1) 
["V-B:TYR:484:CZ:9318, V-A:GLU:543:CA:4904, H-B:GLU:543:OE2:9882, V-B:GLU:543:C:9874, H-A:GLU:543:OE2:4910, H-B:GLU:543:OE1:9881, V-A:HIS:456:CE1:4070, V-B:GLU:543:CB:9878, V-A:GLU:543:CG:4907, H-A:ARG:545:NE:4924, V-B:GLU:543:CD:9880, V-A:GLU:543:CB:4906, V-A:GLU:543:CD:4908, H-A:ARG:545:NH2:4928, V-B:GLU:543:CG:9879, H-A:GLU:543:OE1:4909, V-B:HIS:456:CE1:9041, H-A:TYR:484:OH:4348"]

$$$$
ZINC307595909
     RDKit          3D

 24 24  0  0  0  0  0  0  0  0999 V2000
  130.9800  127.7230   71.6990 C   0  0  0  0  0  0  0  0  0  0  0  0
  129.4720  127.7950   71.3820 C   0  0  1  0  0  0  0  0  0  0  0  0
  129.1850  127.9900   69.6060 S   0  0  0  0  0  0  0  0  0  0  0  0
  127.7000  126.9670   69.5510 C   0  0  0  0  0  0  0  0  0  0  0  0
  127.3610  126.5990   71.0010 C   0  0  0  0  0  0  0  0  0  0  0  0
  128.6860  126.5390   71.7630 C   0  0  0  0  0  0  0  0  0  0  0  0
  129.0970  125.6390   72.5660 N   0  0  0  0  0  0  0  0  0  0  0  0
  128.1530  124.6100   72.7230 O   0  0  0  0  0  0  0  0  0  0  0  0
  128.8320  123.3890   72.9730 C   0  0  0  0  0  0  0  0  0  0  0  0
  127.9660  122.2250   72.5400 C   0  0  0  0  0  0  0  0  0  0  0  0
  128.3200  121.3040   71.6300 C   0  0  0  0  0  0  0  0  0  0  0  0
  127.2470  119.9790   71.1750 Cl  0  0  0  0  0  0  0  0  0  0  0  0
  131.1256  127.7161   72.7893 H   0  0  0  0  0  0  0  0  0  0  0  0
  131.4020  126.8037   71.2669 H   0  0  0  0  0  0  0  0  0  0  0  0
  131.4877  128.5979   71.2669 H   0  0  0  0  0  0  0  0  0  0  0  0
  129.1273  128.6534   71.9772 H   0  0  0  0  0  0  0  0  0  0  0  0
  126.8695  127.5291   69.0990 H   0  0  0  0  0  0  0  0  0  0  0  0
  127.8645  126.0651   68.9432 H   0  0  0  0  0  0  0  0  0  0  0  0
  126.7047  127.3636   71.4422 H   0  0  0  0  0  0  0  0  0  0  0  0
  126.8332  125.6352   71.0505 H   0  0  0  0  0  0  0  0  0  0  0  0
  129.7754  123.3729   72.4076 H   0  0  0  0  0  0  0  0  0  0  0  0
  129.0444  123.3043   74.0490 H   0  0  0  0  0  0  0  0  0  0  0  0
  126.9741  122.1269   73.0052 H   0  0  0  0  0  0  0  0  0  0  0  0
  129.3087  121.3774   71.1535 H   0  0  0  0  0  0  0  0  0  0  0  0
  1  2  1  0
  2  3  1  0
  3  4  1  0
  4  5  1  0
  5  6  1  0
  6  7  2  0
  7  8  1  0
  8  9  1  0
  9 10  1  0
 10 11  2  0
 11 12  1  0
  6  2  1  0
  1 13  1  0
  1 14  1  0
  1 15  1  0
  2 16  1  1
  4 17  1  0
  4 18  1  0
  5 19  1  0
  5 20  1  0
  9 21  1  0
  9 22  1  0
 10 23  1  0
 11 24  1  0
M  END
>  <Binding energies>  (1) 
[-5.11]

>  <Ligand effiencies>  (1) 
[-0.42583333333333334]

>  <Interactions>  (1) 
["V-A:TYR:484:CD2:4344, V-A:HIS:456:CE1:4070, V-B:GLU:543:C:9874, V-B:GLY:544:C:9884, V-A:TYR:484:CG:4342, V-B:GLU:543:CB:9878, H-B:LYS:547:NZ:9923, V-B:GLY:544:CA:9886, V-B:LYS:547:CE:9922, V-B:VAL:542:CG1:9871, V-A:GLY:544:C:4912, V-B:HIS:456:CE1:9041, V-A:HIS:456:CD2:4068, V-A:TYR:484:CB:4341, V-B:VAL:542:C:9866"]

$$$$
ZINC309101218
     RDKit          3D

 41 41  0  0  0  0  0  0  0  0999 V2000
  131.6050  129.9850   58.8530 C   0  0  0  0  0  0  0  0  0  0  0  0
  131.3890  130.5390   60.2750 C   0  0  2  0  0  0  0  0  0  0  0  0
  132.5410  131.4730   60.7210 C   0  0  0  0  0  0  0  0  0  0  0  0
  132.5610  131.8010   62.2280 C   0  0  0  0  0  0  0  0  0  0  0  0
  131.2490  131.8730   62.7420 O   0  0  0  0  0  0  0  0  0  0  0  0
  131.2560  129.3750   61.2810 N   0  0  0  0  0  0  0  0  0  0  0  0
  130.0030  128.4870   61.1230 C   0  0  0  0  0  0  0  0  0  0  0  0
  128.8290  129.0230   61.9740 C   0  0  2  0  0  0  0  0  0  0  0  0
  129.1550  130.2900   62.5270 O   0  0  0  0  0  0  0  0  0  0  0  0
  128.4610  128.0250   63.0990 C   0  0  0  0  0  0  0  0  0  0  0  0
  127.3450  128.5550   64.0340 N   0  0  2  0  0  0  0  0  0  0  0  0
  126.3900  129.4990   63.2790 C   0  0  0  0  0  0  0  0  0  0  0  0
  127.8930  129.2510   65.2960 C   0  0  0  0  0  0  0  0  0  0  0  0
  127.0880  129.2210   66.5740 C   0  0  0  0  0  0  0  0  0  0  0  0
  128.3710  128.4230   66.4660 C   0  0  0  0  0  0  0  0  0  0  0  0
  132.0040  128.9618   58.9148 H   0  0  0  0  0  0  0  0  0  0  0  0
  130.6458  129.9727   58.3147 H   0  0  0  0  0  0  0  0  0  0  0  0
  132.3194  130.6252   58.3147 H   0  0  0  0  0  0  0  0  0  0  0  0
  130.4624  131.1314   60.2554 H   0  0  0  0  0  0  0  0  0  0  0  0
  133.4941  130.9878   60.4637 H   0  0  0  0  0  0  0  0  0  0  0  0
  132.3853  132.4282   60.1982 H   0  0  0  0  0  0  0  0  0  0  0  0
  133.1146  131.0141   62.7611 H   0  0  0  0  0  0  0  0  0  0  0  0
  133.0497  132.7761   62.3704 H   0  0  0  0  0  0  0  0  0  0  0  0
  131.0650  131.0700   63.2360 H   0  0  0  0  0  0  0  0  0  0  0  0
  132.0830  128.7970   61.2250 H   0  0  0  0  0  0  0  0  0  0  0  0
  131.2300  129.7760   62.2080 H   0  0  0  0  0  0  0  0  0  0  0  0
  129.7030  128.4743   60.0648 H   0  0  0  0  0  0  0  0  0  0  0  0
  130.2490  127.4718   61.4678 H   0  0  0  0  0  0  0  0  0  0  0  0
  127.9550  129.1385   61.3161 H   0  0  0  0  0  0  0  0  0  0  0  0
  129.9170  130.1920   63.1030 H   0  0  0  0  0  0  0  0  0  0  0  0
  128.1167  127.0876   62.6378 H   0  0  0  0  0  0  0  0  0  0  0  0
  129.3611  127.8728   63.7127 H   0  0  0  0  0  0  0  0  0  0  0  0
  126.7970  127.7610   64.3370 H   0  0  0  0  0  0  0  0  0  0  0  0
  125.8012  130.0810   64.0033 H   0  0  0  0  0  0  0  0  0  0  0  0
  126.9748  130.1838   62.6473 H   0  0  0  0  0  0  0  0  0  0  0  0
  125.7120  128.9063   62.6473 H   0  0  0  0  0  0  0  0  0  0  0  0
  128.3369  130.0420   64.6737 H   0  0  0  0  0  0  0  0  0  0  0  0
  127.0463  130.1111   67.2190 H   0  0  0  0  0  0  0  0  0  0  0  0
  126.0446  128.9860   66.8313 H   0  0  0  0  0  0  0  0  0  0  0  0
  129.2614  128.7333   67.0325 H   0  0  0  0  0  0  0  0  0  0  0  0
  128.6461  127.3681   66.6122 H   0  0  0  0  0  0  0  0  0  0  0  0
  1  2  1  0
  2  3  1  0
  3  4  1  0
  4  5  1  0
  2  6  1  0
  6  7  1  0
  7  8  1  0
  8  9  1  0
  8 10  1  0
 10 11  1  0
 11 12  1  0
 11 13  1  0
 13 14  1  0
 14 15  1  0
 15 13  1  0
  1 16  1  0
  1 17  1  0
  1 18  1  0
  2 19  1  6
  3 20  1  0
  3 21  1  0
  4 22  1  0
  4 23  1  0
  5 24  1  0
  6 25  1  0
  6 26  1  0
  7 27  1  0
  7 28  1  0
  8 29  1  6
  9 30  1  0
 10 31  1  0
 10 32  1  0
 11 33  1  1
 12 34  1  0
 12 35  1  0
 12 36  1  0
 13 37  1  0
 14 38  1  0
 14 39  1  0
 15 40  1  0
 15 41  1  0
M  CHG  2   6   1  11   1
M  END
>  <Binding energies>  (1) 
[-6.35]

>  <Ligand effiencies>  (1) 
[-0.3175]

>  <Interactions>  (1) 
["V-B:TYR:484:CZ:9318, H-B:GLU:543:OE2:9882, V-A:PRO:540:CA:4883, H-B:GLU:543:OE1:9881, V-A:PRO:540:CB:4885, H-A:ALA:541:N:4891, V-A:GLU:543:CG:4907, V-B:GLU:543:CD:9880, V-A:GLU:543:CD:4908, H-A:ASP:366:OD2:3215, H-A:GLU:543:OE1:4909, V-B:HIS:456:CE1:9041, V-A:ASP:366:CG:3213, V-A:ASN:362:CB:3176, V-A:GLU:543:CB:4906, H-A:ASP:366:OD1:3214"]

$$$$
ZINC309101218-again1
     RDKit          3D

 40 40  0  0  0  0  0  0  0  0999 V2000
  129.1260  126.9790   64.9860 C   0  0  0  0  0  0  0  0  0  0  0  0
  129.9790  125.7350   64.6710 C   0  0  2  0  0  0  0  0  0  0  0  0
  130.0940  124.7320   65.8470 C   0  0  0  0  0  0  0  0  0  0  0  0
  130.6720  125.3410   67.1380 C   0  0  0  0  0  0  0  0  0  0  0  0
  132.0630  125.5430   67.0150 O   0  0  0  0  0  0  0  0  0  0  0  0
  131.3790  126.2320   64.2580 N   0  0  0  0  0  0  0  0  0  0  0  0
  132.0510  125.4820   63.0890 C   0  0  0  0  0  0  0  0  0  0  0  0
  133.0760  124.4500   63.6100 C   0  0  2  0  0  0  0  0  0  0  0  0
  133.4200  124.7400   64.9570 O   0  0  0  0  0  0  0  0  0  0  0  0
  134.3520  124.4430   62.7310 C   0  0  0  0  0  0  0  0  0  0  0  0
  134.4270  123.3500   61.7510 N   0  0  0  0  0  0  0  0  0  0  0  0
  133.9750  123.8410   60.4520 C   0  0  0  0  0  0  0  0  0  0  0  0
  133.6010  122.2040   62.1330 C   0  0  0  0  0  0  0  0  0  0  0  0
  132.4180  121.8520   61.2580 C   0  0  0  0  0  0  0  0  0  0  0  0
  133.6410  120.9630   61.2680 C   0  0  0  0  0  0  0  0  0  0  0  0
  129.0429  127.1002   66.0761 H   0  0  0  0  0  0  0  0  0  0  0  0
  129.6038  127.8704   64.5534 H   0  0  0  0  0  0  0  0  0  0  0  0
  128.1223  126.8545   64.5534 H   0  0  0  0  0  0  0  0  0  0  0  0
  129.4821  125.1755   63.8647 H   0  0  0  0  0  0  0  0  0  0  0  0
  129.0894  124.3424   66.0684 H   0  0  0  0  0  0  0  0  0  0  0  0
  130.7932  123.9457   65.5263 H   0  0  0  0  0  0  0  0  0  0  0  0
  130.1827  126.3068   67.3322 H   0  0  0  0  0  0  0  0  0  0  0  0
  130.4879  124.6457   67.9702 H   0  0  0  0  0  0  0  0  0  0  0  0
  132.4910  124.6890   66.9200 H   0  0  0  0  0  0  0  0  0  0  0  0
  131.2880  127.1990   63.9750 H   0  0  0  0  0  0  0  0  0  0  0  0
  131.9890  126.2110   65.0630 H   0  0  0  0  0  0  0  0  0  0  0  0
  131.2788  124.9591   62.5057 H   0  0  0  0  0  0  0  0  0  0  0  0
  132.5791  126.2140   62.4602 H   0  0  0  0  0  0  0  0  0  0  0  0
  132.6138  123.4531   63.5595 H   0  0  0  0  0  0  0  0  0  0  0  0
  132.8710  124.2060   65.5370 H   0  0  0  0  0  0  0  0  0  0  0  0
  134.3937  125.3958   62.1829 H   0  0  0  0  0  0  0  0  0  0  0  0
  135.1977  124.2966   63.4191 H   0  0  0  0  0  0  0  0  0  0  0  0
  133.2367  124.6430   60.5998 H   0  0  0  0  0  0  0  0  0  0  0  0
  134.8347  124.2332   59.8889 H   0  0  0  0  0  0  0  0  0  0  0  0
  133.5131  123.0166   59.8889 H   0  0  0  0  0  0  0  0  0  0  0  0
  133.7460  122.4087   63.2040 H   0  0  0  0  0  0  0  0  0  0  0  0
  131.4805  121.5027   61.7152 H   0  0  0  0  0  0  0  0  0  0  0  0
  131.8435  122.3755   60.4796 H   0  0  0  0  0  0  0  0  0  0  0  0
  133.5932  119.9671   61.7325 H   0  0  0  0  0  0  0  0  0  0  0  0
  134.3246  120.5720   60.5000 H   0  0  0  0  0  0  0  0  0  0  0  0
  1  2  1  0
  2  3  1  0
  3  4  1  0
  4  5  1  0
  2  6  1  0
  6  7  1  0
  7  8  1  0
  8  9  1  0
  8 10  1  0
 10 11  1  0
 11 12  1  0
 11 13  1  0
 13 14  1  0
 14 15  1  0
 15 13  1  0
  1 16  1  0
  1 17  1  0
  1 18  1  0
  2 19  1  6
  3 20  1  0
  3 21  1  0
  4 22  1  0
  4 23  1  0
  5 24  1  0
  6 25  1  0
  6 26  1  0
  7 27  1  0
  7 28  1  0
  8 29  1  1
  9 30  1  0
 10 31  1  0
 10 32  1  0
 12 33  1  0
 12 34  1  0
 12 35  1  0
 13 36  1  0
 14 37  1  0
 14 38  1  0
 15 39  1  0
 15 40  1  0
M  CHG  1   6   1
M  END
>  <Binding energies>  (1) 
[-4.89]

>  <Ligand effiencies>  (1) 
[-0.2573684210526316]

>  <Interactions>  (1) 
["V-A:ILE:369:CG2:3237, V-A:GLY:454:CA:4049, H-A:GLU:543:OE2:4910, V-A:ILE:369:CB:3236, V-B:GLU:543:CB:9878, V-A:TYR:484:CE2:4346, V-B:GLU:543:CG:9879, V-A:GLU:543:CD:4908, V-A:TYR:484:CZ:4347, H-A:GLY:454:N:4050, V-A:SER:385:C:3405, V-A:GLY:453:C:4042, V-A:HIS:456:CE1:4070, V-A:ILE:369:CD1:3239, V-A:SER:385:CB:3409, V-B:GLU:543:CD:9880, V-A:LEU:475:CD2:4259, H-A:ARG:545:NH2:4928, V-A:ARG:545:CZ:4926, H-A:GLU:543:OE1:4909, V-A:GLY:453:CA:4044, H-A:ARG:545:NE:4924, V-A:SER:385:CA:3407, H-A:TYR:484:OH:4348"]

$$$$
ZINC309345214
     RDKit          3D

 40 40  0  0  0  0  0  0  0  0999 V2000
  127.6190  127.2450   72.1390 C   0  0  0  0  0  0  0  0  0  0  0  0
  128.6200  127.1150   71.1400 O   0  0  0  0  0  0  0  0  0  0  0  0
  128.0990  126.9630   69.8250 C   0  0  0  0  0  0  0  0  0  0  0  0
  129.1960  127.2240   68.7590 C   0  0  0  0  0  0  0  0  0  0  0  0
  128.6860  128.3210   67.7920 C   0  0  0  0  0  0  0  0  0  0  0  0
  130.4790  127.7390   69.4560 C   0  0  0  0  0  0  0  0  0  0  0  0
  129.4670  125.9040   67.9760 C   0  0  0  0  0  0  0  0  0  0  0  0
  130.3910  126.0250   66.8330 N   0  0  0  0  0  0  0  0  0  0  0  0
  130.6220  125.0810   65.8710 C   0  0  0  0  0  0  0  0  0  0  0  0
  129.8570  123.5850   65.7860 S   0  0  0  0  0  0  0  0  0  0  0  0
  131.5560  125.5270   64.9780 N   0  0  0  0  0  0  0  0  0  0  0  0
  132.0640  124.7820   63.8150 C   0  0  0  0  0  0  0  0  0  0  0  0
  131.8230  125.5340   62.4990 C   0  0  0  0  0  0  0  0  0  0  0  0
  132.8720  124.9670   61.5430 C   0  0  0  0  0  0  0  0  0  0  0  0
  134.1020  124.6940   62.4190 C   0  0  0  0  0  0  0  0  0  0  0  0
  133.5920  124.6100   63.8690 C   0  0  0  0  0  0  0  0  0  0  0  0
  128.0840  127.1846   73.1340 H   0  0  0  0  0  0  0  0  0  0  0  0
  127.1145  128.2162   72.0284 H   0  0  0  0  0  0  0  0  0  0  0  0
  126.8832  126.4349   72.0284 H   0  0  0  0  0  0  0  0  0  0  0  0
  127.7176  125.9382   69.7053 H   0  0  0  0  0  0  0  0  0  0  0  0
  127.2899  127.6943   69.6818 H   0  0  0  0  0  0  0  0  0  0  0  0
  128.2923  129.1679   68.3732 H   0  0  0  0  0  0  0  0  0  0  0  0
  129.5162  128.6658   67.1580 H   0  0  0  0  0  0  0  0  0  0  0  0
  127.8873  127.9085   67.1580 H   0  0  0  0  0  0  0  0  0  0  0  0
  130.3496  127.6870   70.5471 H   0  0  0  0  0  0  0  0  0  0  0  0
  131.3341  127.1144   69.1580 H   0  0  0  0  0  0  0  0  0  0  0  0
  130.6649  128.7814   69.1580 H   0  0  0  0  0  0  0  0  0  0  0  0
  129.8916  125.1730   68.6798 H   0  0  0  0  0  0  0  0  0  0  0  0
  128.4989  125.5987   67.5522 H   0  0  0  0  0  0  0  0  0  0  0  0
  130.9360  126.8730   66.7940 H   0  0  0  0  0  0  0  0  0  0  0  0
  131.9290  126.4550   65.1110 H   0  0  0  0  0  0  0  0  0  0  0  0
  131.5305  123.8207   63.8499 H   0  0  0  0  0  0  0  0  0  0  0  0
  130.8077  125.3430   62.1213 H   0  0  0  0  0  0  0  0  0  0  0  0
  131.9069  126.6245   62.6165 H   0  0  0  0  0  0  0  0  0  0  0  0
  132.5115  124.0357   61.0818 H   0  0  0  0  0  0  0  0  0  0  0  0
  133.0974  125.6600   60.7190 H   0  0  0  0  0  0  0  0  0  0  0  0
  134.5746  123.7448   62.1262 H   0  0  0  0  0  0  0  0  0  0  0  0
  134.8560  125.4870   62.3065 H   0  0  0  0  0  0  0  0  0  0  0  0
  133.8477  123.6326   64.3041 H   0  0  0  0  0  0  0  0  0  0  0  0
  134.0542  125.3875   64.4950 H   0  0  0  0  0  0  0  0  0  0  0  0
  1  2  1  0
  2  3  1  0
  3  4  1  0
  4  5  1  0
  4  6  1  0
  4  7  1  0
  7  8  1  0
  8  9  1  0
  9 10  2  0
  9 11  1  0
 11 12  1  0
 12 13  1  0
 13 14  1  0
 14 15  1  0
 15 16  1  0
 16 12  1  0
  1 17  1  0
  1 18  1  0
  1 19  1  0
  3 20  1  0
  3 21  1  0
  5 22  1  0
  5 23  1  0
  5 24  1  0
  6 25  1  0
  6 26  1  0
  6 27  1  0
  7 28  1  0
  7 29  1  0
  8 30  1  0
 11 31  1  0
 12 32  1  0
 13 33  1  0
 13 34  1  0
 14 35  1  0
 14 36  1  0
 15 37  1  0
 15 38  1  0
 16 39  1  0
 16 40  1  0
M  END
>  <Binding energies>  (1) 
[-5.4]

>  <Ligand effiencies>  (1) 
[-0.30000000000000004]

>  <Interactions>  (1) 
["V-A:GLY:454:CA:4049, V-B:GLU:543:C:9874, H-A:GLU:543:OE2:4910, V-A:GLU:543:C:4902, V-B:HIS:456:CD2:9039, V-B:GLU:543:CB:9878, V-A:TYR:484:CE2:4346, V-B:GLU:543:CG:9879, V-A:ASP:366:CG:3213, V-A:GLU:543:CD:4908, V-A:TYR:484:CZ:4347, V-B:HIS:456:CE1:9041, V-B:GLU:543:CA:9876, V-A:HIS:456:CE1:4070, V-B:GLY:544:C:9884, V-A:GLU:543:CG:4907, V-B:HIS:456:CG:9037, V-A:ARG:545:CZ:4926, H-A:GLU:543:OE1:4909, V-A:GLU:543:CB:4906"]

$$$$
ZINC31168742
     RDKit          3D

 53 55  0  0  0  0  0  0  0  0999 V2000
  129.9220  121.7750   62.2440 C   0  0  0  0  0  0  0  0  0  0  0  0
  129.5030  122.9390   63.1180 C   0  0  0  0  0  0  0  0  0  0  0  0
  130.3110  123.5720   63.9870 C   0  0  0  0  0  0  0  0  0  0  0  0
  129.9040  124.6900   64.8260 C   0  0  0  0  0  0  0  0  0  0  0  0
  129.4800  125.8440   64.2770 C   0  0  0  0  0  0  0  0  0  0  0  0
  129.0420  126.9810   65.0540 C   0  0  0  0  0  0  0  0  0  0  0  0
  129.1480  126.9000   66.4030 C   0  0  0  0  0  0  0  0  0  0  0  0
  129.7680  125.6490   67.0540 C   0  0  0  0  0  0  0  0  0  0  0  0
  129.9680  124.5130   66.1790 O   0  0  0  0  0  0  0  0  0  0  0  0
  128.7350  127.9930   67.3090 C   0  0  0  0  0  0  0  0  0  0  0  0
  129.0720  127.9830   68.4980 O   0  0  0  0  0  0  0  0  0  0  0  0
  127.9850  129.1990   66.6750 C   0  0  1  0  0  0  0  0  0  0  0  0
  126.4640  128.9140   66.7450 C   0  0  0  0  0  0  0  0  0  0  0  0
  128.2090  130.3550   67.4720 O   0  0  0  0  0  0  0  0  0  0  0  0
  128.5050  129.4570   65.2330 C   0  0  2  0  0  0  0  0  0  0  0  0
  127.7950  130.5370   64.6170 O   0  0  0  0  0  0  0  0  0  0  0  0
  128.3700  131.7460   64.3810 C   0  0  0  0  0  0  0  0  0  0  0  0
  128.7260  132.5200   65.2740 O   0  0  0  0  0  0  0  0  0  0  0  0
  128.3750  132.1010   62.9180 C   0  0  0  0  0  0  0  0  0  0  0  0
  127.1760  132.3250   62.1950 C   0  0  0  0  0  0  0  0  0  0  0  0
  125.7850  132.1810   62.8120 C   0  0  0  0  0  0  0  0  0  0  0  0
  127.2340  132.6420   60.8350 C   0  0  0  0  0  0  0  0  0  0  0  0
  128.4440  132.7340   60.1540 C   0  0  0  0  0  0  0  0  0  0  0  0
  128.3810  133.0510   58.8110 O   0  0  0  0  0  0  0  0  0  0  0  0
  129.5630  132.9620   58.0220 C   0  0  0  0  0  0  0  0  0  0  0  0
  129.6280  132.4960   60.8610 C   0  0  0  0  0  0  0  0  0  0  0  0
  129.6010  132.1820   62.2200 C   0  0  0  0  0  0  0  0  0  0  0  0
  130.8160  131.9820   62.8300 O   0  0  0  0  0  0  0  0  0  0  0  0
  128.4430  128.1920   64.3440 C   0  0  0  0  0  0  0  0  0  0  0  0
  130.2261  120.9302   62.8795 H   0  0  0  0  0  0  0  0  0  0  0  0
  129.0770  121.4706   61.6089 H   0  0  0  0  0  0  0  0  0  0  0  0
  130.7672  122.0789   61.6089 H   0  0  0  0  0  0  0  0  0  0  0  0
  128.4642  123.2916   63.0361 H   0  0  0  0  0  0  0  0  0  0  0  0
  131.3503  123.2211   64.0695 H   0  0  0  0  0  0  0  0  0  0  0  0
  129.4663  125.9255   63.1801 H   0  0  0  0  0  0  0  0  0  0  0  0
  130.7476  125.9338   67.4655 H   0  0  0  0  0  0  0  0  0  0  0  0
  129.0421  125.3171   67.8109 H   0  0  0  0  0  0  0  0  0  0  0  0
  126.1500  128.8552   67.7976 H   0  0  0  0  0  0  0  0  0  0  0  0
  125.9155  129.7250   66.2436 H   0  0  0  0  0  0  0  0  0  0  0  0
  126.2464  127.9594   66.2436 H   0  0  0  0  0  0  0  0  0  0  0  0
  128.3190  131.1110   66.8890 H   0  0  0  0  0  0  0  0  0  0  0  0
  129.5649  129.7360   65.3269 H   0  0  0  0  0  0  0  0  0  0  0  0
  125.8677  132.1896   63.9089 H   0  0  0  0  0  0  0  0  0  0  0  0
  125.1506  133.0183   62.4856 H   0  0  0  0  0  0  0  0  0  0  0  0
  125.3356  131.2315   62.4856 H   0  0  0  0  0  0  0  0  0  0  0  0
  126.2972  132.8238   60.2878 H   0  0  0  0  0  0  0  0  0  0  0  0
  130.4404  132.8959   58.6822 H   0  0  0  0  0  0  0  0  0  0  0  0
  129.5134  132.0650   57.3872 H   0  0  0  0  0  0  0  0  0  0  0  0
  129.6483  133.8563   57.3872 H   0  0  0  0  0  0  0  0  0  0  0  0
  130.5936  132.5574   60.3378 H   0  0  0  0  0  0  0  0  0  0  0  0
  130.9550  131.0700   63.0950 H   0  0  0  0  0  0  0  0  0  0  0  0
  127.3923  127.9788   64.0980 H   0  0  0  0  0  0  0  0  0  0  0  0
  129.0274  128.3818   63.4316 H   0  0  0  0  0  0  0  0  0  0  0  0
  1  2  1  0
  2  3  2  0
  3  4  1  0
  4  5  2  0
  5  6  1  0
  6  7  2  0
  7  8  1  0
  8  9  1  0
  7 10  1  0
 10 11  2  0
 10 12  1  0
 12 13  1  0
 12 14  1  1
 12 15  1  0
 15 16  1  0
 16 17  1  0
 17 18  2  0
 17 19  1  0
 19 20  2  0
 20 21  1  0
 20 22  1  0
 22 23  2  0
 23 24  1  0
 24 25  1  0
 23 26  1  0
 26 27  2  0
 27 28  1  0
 15 29  1  0
  9  4  1  0
 27 19  1  0
 29  6  1  0
  1 30  1  0
  1 31  1  0
  1 32  1  0
  2 33  1  0
  3 34  1  0
  5 35  1  0
  8 36  1  0
  8 37  1  0
 13 38  1  0
 13 39  1  0
 13 40  1  0
 14 41  1  0
 15 42  1  1
 21 43  1  0
 21 44  1  0
 21 45  1  0
 22 46  1  0
 25 47  1  0
 25 48  1  0
 25 49  1  0
 26 50  1  0
 28 51  1  0
 29 52  1  0
 29 53  1  0
M  END
>  <Binding energies>  (1) 
[-6.95]

>  <Ligand effiencies>  (1) 
[-0.2241935483870968]

>  <Interactions>  (1) 
["H-A:ALA:541:N:4891, V-B:GLU:543:CB:9878, V-A:PRO:540:C:4881, V-B:ALA:541:CB:9864, V-B:GLU:543:CG:9879, V-A:TYR:539:CD1:4873, V-B:TYR:484:CE2:9317, V-A:ALA:541:CB:4892, V-A:GLU:543:CD:4908, H-B:TYR:484:OH:9319, V-B:HIS:456:CE1:9041, V-A:HIS:456:CE1:4070, V-B:TYR:484:CZ:9318, V-A:GLU:543:CG:4907, V-B:GLU:543:CD:9880, V-A:TYR:539:C:4867, V-A:LEU:475:CD2:4259, H-A:GLU:543:OE1:4909, V-A:GLU:543:CB:4906, V-A:PRO:540:N:4884, V-A:PRO:540:CA:4883, H-A:TYR:484:OH:4348"]

$$$$
ZINC3137049
     RDKit          3D

 54 56  0  0  0  0  0  0  0  0999 V2000
  130.3010  124.0370   66.7740 O   0  0  0  0  0  0  0  0  0  0  0  0
  131.0160  125.3140   66.6590 S   0  0  0  0  0  0  0  0  0  0  0  0
  132.3410  125.4900   67.2640 O   0  0  0  0  0  0  0  0  0  0  0  0
  131.1640  125.7070   64.9500 N   0  0  0  0  0  0  0  0  0  0  0  0
  130.8660  124.7050   63.9060 C   0  0  0  0  0  0  0  0  0  0  0  0
  129.4670  124.1020   64.1360 C   0  0  0  0  0  0  0  0  0  0  0  0
  129.4010  122.8350   63.5010 O   0  0  0  0  0  0  0  0  0  0  0  0
  129.0190  122.8100   61.8810 S   0  0  0  0  0  0  0  0  0  0  0  0
  127.6000  122.4650   61.7430 O   0  0  0  0  0  0  0  0  0  0  0  0
  129.5900  124.0040   61.2440 O   0  0  0  0  0  0  0  0  0  0  0  0
  129.9930  121.3800   61.4290 C   0  0  0  0  0  0  0  0  0  0  0  0
  131.2640  121.5400   60.8700 C   0  0  0  0  0  0  0  0  0  0  0  0
  132.0130  120.4170   60.5290 C   0  0  0  0  0  0  0  0  0  0  0  0
  131.4910  119.1430   60.7520 C   0  0  0  0  0  0  0  0  0  0  0  0
  130.2260  118.9820   61.3150 C   0  0  0  0  0  0  0  0  0  0  0  0
  129.4740  120.1030   61.6550 C   0  0  0  0  0  0  0  0  0  0  0  0
  131.9730  123.6370   63.8840 C   0  0  0  0  0  0  0  0  0  0  0  0
  133.2300  124.2680   63.6910 O   0  0  0  0  0  0  0  0  0  0  0  0
  134.1710  123.7680   62.4030 S   0  0  0  0  0  0  0  0  0  0  0  0
  135.4950  124.3980   62.4990 O   0  0  0  0  0  0  0  0  0  0  0  0
  134.0150  122.3170   62.2620 O   0  0  0  0  0  0  0  0  0  0  0  0
  133.2480  124.5430   61.0770 C   0  0  0  0  0  0  0  0  0  0  0  0
  133.3270  124.0440   59.7750 C   0  0  0  0  0  0  0  0  0  0  0  0
  132.5950  124.6520   58.7600 C   0  0  0  0  0  0  0  0  0  0  0  0
  131.7940  125.7550   59.0510 C   0  0  0  0  0  0  0  0  0  0  0  0
  131.7190  126.2580   60.3480 C   0  0  0  0  0  0  0  0  0  0  0  0
  132.4470  125.6490   61.3660 C   0  0  0  0  0  0  0  0  0  0  0  0
  129.9740  126.6000   67.3370 C   0  0  0  0  0  0  0  0  0  0  0  0
  130.2170  127.1090   68.6150 C   0  0  0  0  0  0  0  0  0  0  0  0
  129.4050  128.1210   69.1190 C   0  0  0  0  0  0  0  0  0  0  0  0
  128.3580  128.6180   68.3460 C   0  0  0  0  0  0  0  0  0  0  0  0
  128.1100  128.1080   67.0740 C   0  0  0  0  0  0  0  0  0  0  0  0
  128.9200  127.0960   66.5670 C   0  0  0  0  0  0  0  0  0  0  0  0
  131.3410  126.6750   64.6700 H   0  0  0  0  0  0  0  0  0  0  0  0
  130.8504  125.1842   62.9160 H   0  0  0  0  0  0  0  0  0  0  0  0
  129.2891  123.9836   65.2150 H   0  0  0  0  0  0  0  0  0  0  0  0
  128.7005  124.7694   63.7153 H   0  0  0  0  0  0  0  0  0  0  0  0
  131.6704  122.5480   60.7003 H   0  0  0  0  0  0  0  0  0  0  0  0
  133.0127  120.5341   60.0854 H   0  0  0  0  0  0  0  0  0  0  0  0
  132.0833  118.2566   60.4810 H   0  0  0  0  0  0  0  0  0  0  0  0
  129.8237  117.9733   61.4899 H   0  0  0  0  0  0  0  0  0  0  0  0
  128.4751  119.9837   62.0999 H   0  0  0  0  0  0  0  0  0  0  0  0
  131.9779  123.0931   64.8401 H   0  0  0  0  0  0  0  0  0  0  0  0
  131.7860  122.9293   63.0629 H   0  0  0  0  0  0  0  0  0  0  0  0
  133.9643  123.1753   59.5533 H   0  0  0  0  0  0  0  0  0  0  0  0
  132.6482  124.2639   57.7321 H   0  0  0  0  0  0  0  0  0  0  0  0
  131.2147  126.2336   58.2477 H   0  0  0  0  0  0  0  0  0  0  0  0
  131.0877  127.1319   60.5664 H   0  0  0  0  0  0  0  0  0  0  0  0
  132.3914  126.0375   62.3936 H   0  0  0  0  0  0  0  0  0  0  0  0
  131.0457  126.7122   69.2199 H   0  0  0  0  0  0  0  0  0  0  0  0
  129.5894  128.5271   70.1245 H   0  0  0  0  0  0  0  0  0  0  0  0
  127.7208  129.4213   68.7443 H   0  0  0  0  0  0  0  0  0  0  0  0
  127.2779  128.5031   66.4728 H   0  0  0  0  0  0  0  0  0  0  0  0
  128.7305  126.6883   65.5631 H   0  0  0  0  0  0  0  0  0  0  0  0
  1  2  2  0
  2  3  2  0
  2  4  1  0
  4  5  1  0
  5  6  1  0
  6  7  1  0
  7  8  1  0
  8  9  2  0
  8 10  2  0
  8 11  1  0
 11 12  2  0
 12 13  1  0
 13 14  2  0
 14 15  1  0
 15 16  2  0
  5 17  1  0
 17 18  1  0
 18 19  1  0
 19 20  2  0
 19 21  2  0
 19 22  1  0
 22 23  2  0
 23 24  1  0
 24 25  2  0
 25 26  1  0
 26 27  2  0
  2 28  1  0
 28 29  2  0
 29 30  1  0
 30 31  2  0
 31 32  1  0
 32 33  2  0
 16 11  1  0
 27 22  1  0
 33 28  1  0
  4 34  1  0
  5 35  1  0
  6 36  1  0
  6 37  1  0
 12 38  1  0
 13 39  1  0
 14 40  1  0
 15 41  1  0
 16 42  1  0
 17 43  1  0
 17 44  1  0
 23 45  1  0
 24 46  1  0
 25 47  1  0
 26 48  1  0
 27 49  1  0
 29 50  1  0
 30 51  1  0
 31 52  1  0
 32 53  1  0
 33 54  1  0
M  END
>  <Binding energies>  (1) 
[-8.52]

>  <Ligand effiencies>  (1) 
[-0.2505882352941176]

>  <Interactions>  (1) 
["V-A:ILE:369:CG2:3237, V-A:GLY:454:CA:4049, H-A:GLU:543:OE2:4910, V-B:GLU:543:CB:9878, V-B:ALA:541:CB:9864, H-A:ARG:545:NH1:4927, V-A:TYR:484:CE2:4346, V-B:TYR:539:CE2:9848, V-B:GLU:543:CG:9879, V-B:TYR:539:C:9839, V-A:ASP:366:CG:3213, V-B:TYR:539:CZ:9849, H-B:ALA:541:N:9863, V-A:TYR:484:CZ:4347, V-A:GLU:543:CD:4908, V-B:HIS:456:CE1:9041, H-A:GLY:454:N:4050, V-A:HIS:456:CE1:4070, V-A:ILE:369:CD1:3239, V-B:TYR:539:CD2:9846, V-A:SER:385:CB:3409, V-B:GLU:543:CD:9880, V-A:ASP:366:CB:3212, V-A:LEU:475:CD2:4259, H-A:GLU:543:OE1:4909, V-A:GLU:543:CB:4906, H-A:ARG:545:NE:4924, V-B:PRO:540:C:9853, V-B:ALA:541:CA:9862, H-A:HIS:456:ND1:4067, H-A:TYR:484:OH:4348"]

$$$$
ZINC313809212
     RDKit          3D

 36 37  0  0  0  0  0  0  0  0999 V2000
  134.7230  124.7970   66.7840 C   0  0  0  0  0  0  0  0  0  0  0  0
  133.6280  125.1460   65.7660 C   0  0  2  0  0  0  0  0  0  0  0  0
  132.2890  125.4690   66.4680 C   0  0  0  0  0  0  0  0  0  0  0  0
  131.1760  125.6490   65.4060 N   0  0  0  0  0  0  0  0  0  0  0  0
  129.8250  125.9360   66.1070 C   0  0  0  0  0  0  0  0  0  0  0  0
  129.9490  125.8420   67.6400 C   0  0  0  0  0  0  0  0  0  0  0  0
  129.5390  127.1460   68.3570 C   0  0  0  0  0  0  0  0  0  0  0  0
  130.5760  127.7100   69.2370 C   0  0  0  0  0  0  0  0  0  0  0  0
  131.3920  128.1510   69.9290 N   0  0  0  0  0  0  0  0  0  0  0  0
  128.6390  128.1070   67.6120 C   0  0  0  0  0  0  0  0  0  0  0  0
  128.0910  127.3030   68.7680 C   0  0  0  0  0  0  0  0  0  0  0  0
  131.1110  124.4180   64.4710 C   0  0  0  0  0  0  0  0  0  0  0  0
  132.5030  124.1880   63.8390 C   0  0  1  0  0  0  0  0  0  0  0  0
  132.9220  125.2550   62.8060 C   0  0  0  0  0  0  0  0  0  0  0  0
  133.4570  124.0290   64.8920 O   0  0  0  0  0  0  0  0  0  0  0  0
  134.3293  124.9225   67.8034 H   0  0  0  0  0  0  0  0  0  0  0  0
  135.0394  123.7535   66.6390 H   0  0  0  0  0  0  0  0  0  0  0  0
  135.5848  125.4650   66.6390 H   0  0  0  0  0  0  0  0  0  0  0  0
  133.9324  126.0398   65.2016 H   0  0  0  0  0  0  0  0  0  0  0  0
  132.0209  124.6428   67.1430 H   0  0  0  0  0  0  0  0  0  0  0  0
  132.3950  126.3981   67.0473 H   0  0  0  0  0  0  0  0  0  0  0  0
  131.4270  126.4500   64.8450 H   0  0  0  0  0  0  0  0  0  0  0  0
  129.4913  126.9489   65.8375 H   0  0  0  0  0  0  0  0  0  0  0  0
  129.0979  125.1807   65.7741 H   0  0  0  0  0  0  0  0  0  0  0  0
  129.3007  125.0274   67.9953 H   0  0  0  0  0  0  0  0  0  0  0  0
  131.0073  125.6550   67.8747 H   0  0  0  0  0  0  0  0  0  0  0  0
  128.7859  129.1920   67.7176 H   0  0  0  0  0  0  0  0  0  0  0  0
  128.3544  128.2478   66.5588 H   0  0  0  0  0  0  0  0  0  0  0  0
  127.8392  127.8028   69.7150 H   0  0  0  0  0  0  0  0  0  0  0  0
  127.2426  126.6163   68.9047 H   0  0  0  0  0  0  0  0  0  0  0  0
  130.8186  123.5302   65.0509 H   0  0  0  0  0  0  0  0  0  0  0  0
  130.3689  124.5938   63.6783 H   0  0  0  0  0  0  0  0  0  0  0  0
  132.4546  123.2678   63.2383 H   0  0  0  0  0  0  0  0  0  0  0  0
  133.2753  126.1548   63.3310 H   0  0  0  0  0  0  0  0  0  0  0  0
  133.7307  124.8571   62.1753 H   0  0  0  0  0  0  0  0  0  0  0  0
  132.0587  125.5137   62.1753 H   0  0  0  0  0  0  0  0  0  0  0  0
  1  2  1  0
  2  3  1  0
  3  4  1  0
  4  5  1  0
  5  6  1  0
  6  7  1  0
  7  8  1  0
  8  9  3  0
  7 10  1  0
 10 11  1  0
  4 12  1  0
 12 13  1  0
 13 14  1  0
 13 15  1  0
 15  2  1  0
 11  7  1  0
  1 16  1  0
  1 17  1  0
  1 18  1  0
  2 19  1  6
  3 20  1  0
  3 21  1  0
  4 22  1  0
  5 23  1  0
  5 24  1  0
  6 25  1  0
  6 26  1  0
 10 27  1  0
 10 28  1  0
 11 29  1  0
 11 30  1  0
 12 31  1  0
 12 32  1  0
 13 33  1  6
 14 34  1  0
 14 35  1  0
 14 36  1  0
M  CHG  1   4   1
M  END
>  <Binding energies>  (1) 
[-6.07]

>  <Ligand effiencies>  (1) 
[-0.379375]

>  <Interactions>  (1) 
["V-A:GLY:454:CA:4049, H-A:GLU:543:OE2:4910, V-A:GLU:543:C:4902, V-B:GLU:543:CB:9878, V-B:GLU:543:CG:9879, H-A:ARG:545:N:4920, V-A:GLU:543:CD:4908, V-A:TYR:484:CZ:4347, V-A:ILE:455:C:4052, V-A:ARG:545:CG:4922, H-A:GLY:454:N:4050, V-B:HIS:456:CE1:9041, V-A:GLY:453:C:4042, V-A:HIS:456:CE1:4070, V-A:GLU:543:CG:4907, V-B:GLU:543:CD:9880, V-A:ARG:545:CD:4923, V-A:ARG:545:CZ:4926, H-A:GLU:543:OE1:4909, V-A:GLU:543:CB:4906, V-A:GLY:453:CA:4044, V-A:GLY:454:C:4047, H-A:TYR:484:OH:4348"]

$$$$
ZINC31430704
     RDKit          3D

 64 65  0  0  0  0  0  0  0  0999 V2000
  129.9990  133.6530   72.4980 C   0  0  0  0  0  0  0  0  0  0  0  0
  128.9400  132.7260   73.1100 C   0  0  0  0  0  0  0  0  0  0  0  0
  129.5120  131.3590   73.5330 C   0  0  0  0  0  0  0  0  0  0  0  0
  129.3650  130.3210   72.5140 N   0  0  0  0  0  0  0  0  0  0  0  0
  129.5860  129.0070   72.7120 C   0  0  0  0  0  0  0  0  0  0  0  0
  129.9520  128.5340   73.7880 O   0  0  0  0  0  0  0  0  0  0  0  0
  129.3600  128.1830   71.5400 C   0  0  0  0  0  0  0  0  0  0  0  0
  130.0500  128.2110   70.3230 C   0  0  0  0  0  0  0  0  0  0  0  0
  129.4790  127.2900   69.4290 C   0  0  0  0  0  0  0  0  0  0  0  0
  129.8200  126.9630   68.1260 N   0  0  0  0  0  0  0  0  0  0  0  0
  129.7530  125.7390   67.5580 C   0  0  0  0  0  0  0  0  0  0  0  0
  129.3670  124.7150   68.1260 O   0  0  0  0  0  0  0  0  0  0  0  0
  130.1930  125.7180   66.1730 C   0  0  0  0  0  0  0  0  0  0  0  0
  131.1990  124.9290   65.6030 C   0  0  0  0  0  0  0  0  0  0  0  0
  131.3510  125.2470   64.2520 C   0  0  0  0  0  0  0  0  0  0  0  0
  132.2550  124.6310   63.4000 N   0  0  0  0  0  0  0  0  0  0  0  0
  133.5950  124.5810   63.5520 C   0  0  0  0  0  0  0  0  0  0  0  0
  134.2180  125.0950   64.4840 O   0  0  0  0  0  0  0  0  0  0  0  0
  134.3420  123.8210   62.4400 C   0  0  0  0  0  0  0  0  0  0  0  0
  133.5110  123.1300   61.3280 C   0  0  0  0  0  0  0  0  0  0  0  0
  133.3440  123.8410   60.0610 N   0  0  0  0  0  0  0  0  0  0  0  0
  132.3320  124.6910   59.7950 C   0  0  0  0  0  0  0  0  0  0  0  0
  131.5310  125.0610   60.6570 O   0  0  0  0  0  0  0  0  0  0  0  0
  132.3550  125.2120   58.5420 N   0  0  0  0  0  0  0  0  0  0  0  0
  131.0940  125.6740   57.9220 C   0  0  0  0  0  0  0  0  0  0  0  0
  130.4140  126.8130   58.7020 C   0  0  0  0  0  0  0  0  0  0  0  0
  131.3260  128.3320   58.5020 Cl  0  0  0  0  0  0  0  0  0  0  0  0
  133.5350  125.0800   57.8250 N   0  0  0  0  0  0  0  0  0  0  0  0
  133.8590  123.9460   57.5380 O   0  0  0  0  0  0  0  0  0  0  0  0
  130.4410  126.2710   64.0160 C   0  0  0  0  0  0  0  0  0  0  0  0
  129.7550  126.5740   65.1700 N   0  0  0  0  0  0  0  0  0  0  0  0
  128.7180  127.5980   65.2550 C   0  0  0  0  0  0  0  0  0  0  0  0
  128.4160  126.7340   70.1150 C   0  0  0  0  0  0  0  0  0  0  0  0
  128.3210  127.2740   71.3770 N   0  0  0  0  0  0  0  0  0  0  0  0
  127.3100  126.8870   72.3550 C   0  0  0  0  0  0  0  0  0  0  0  0
  130.5632  134.1469   73.3029 H   0  0  0  0  0  0  0  0  0  0  0  0
  130.6880  133.0625   71.8763 H   0  0  0  0  0  0  0  0  0  0  0  0
  129.5049  134.4141   71.8763 H   0  0  0  0  0  0  0  0  0  0  0  0
  128.5135  133.2176   73.9968 H   0  0  0  0  0  0  0  0  0  0  0  0
  128.1781  132.5406   72.3386 H   0  0  0  0  0  0  0  0  0  0  0  0
  130.5831  131.4828   73.7509 H   0  0  0  0  0  0  0  0  0  0  0  0
  128.9407  131.0293   74.4133 H   0  0  0  0  0  0  0  0  0  0  0  0
  129.0870  130.6300   71.5950 H   0  0  0  0  0  0  0  0  0  0  0  0
  130.9112  128.8578   70.0996 H   0  0  0  0  0  0  0  0  0  0  0  0
  130.1380  127.7270   67.5490 H   0  0  0  0  0  0  0  0  0  0  0  0
  131.7846  124.1691   66.1411 H   0  0  0  0  0  0  0  0  0  0  0  0
  131.8610  124.1880   62.5840 H   0  0  0  0  0  0  0  0  0  0  0  0
  135.0092  124.5424   61.9457 H   0  0  0  0  0  0  0  0  0  0  0  0
  134.8322  122.9885   62.9659 H   0  0  0  0  0  0  0  0  0  0  0  0
  133.9976  122.1693   61.1036 H   0  0  0  0  0  0  0  0  0  0  0  0
  132.4948  123.0612   61.7434 H   0  0  0  0  0  0  0  0  0  0  0  0
  134.0330  123.6600   59.3460 H   0  0  0  0  0  0  0  0  0  0  0  0
  131.3150  126.0306   56.9051 H   0  0  0  0  0  0  0  0  0  0  0  0
  130.4000  124.8206   57.9202 H   0  0  0  0  0  0  0  0  0  0  0  0
  129.3907  126.9517   58.3229 H   0  0  0  0  0  0  0  0  0  0  0  0
  130.3884  126.5494   59.7697 H   0  0  0  0  0  0  0  0  0  0  0  0
  130.2908  126.7678   63.0461 H   0  0  0  0  0  0  0  0  0  0  0  0
  128.5005  127.8128   66.3117 H   0  0  0  0  0  0  0  0  0  0  0  0
  129.0671  128.5155   64.7587 H   0  0  0  0  0  0  0  0  0  0  0  0
  127.8050  127.2373   64.7587 H   0  0  0  0  0  0  0  0  0  0  0  0
  127.7402  125.9669   69.7089 H   0  0  0  0  0  0  0  0  0  0  0  0
  127.7052  127.0383   73.3703 H   0  0  0  0  0  0  0  0  0  0  0  0
  126.4102  127.5043   72.2160 H   0  0  0  0  0  0  0  0  0  0  0  0
  127.0523  125.8267   72.2160 H   0  0  0  0  0  0  0  0  0  0  0  0
  1  2  1  0
  2  3  1  0
  3  4  1  0
  4  5  1  0
  5  6  2  0
  5  7  1  0
  7  8  2  0
  8  9  1  0
  9 10  1  0
 10 11  1  0
 11 12  2  0
 11 13  1  0
 13 14  2  0
 14 15  1  0
 15 16  1  0
 16 17  1  0
 17 18  2  0
 17 19  1  0
 19 20  1  0
 20 21  1  0
 21 22  1  0
 22 23  2  0
 22 24  1  0
 24 25  1  0
 25 26  1  0
 26 27  1  0
 24 28  1  0
 28 29  2  0
 15 30  2  0
 30 31  1  0
 31 32  1  0
  9 33  2  0
 33 34  1  0
 34 35  1  0
 34  7  1  0
 31 13  1  0
  1 36  1  0
  1 37  1  0
  1 38  1  0
  2 39  1  0
  2 40  1  0
  3 41  1  0
  3 42  1  0
  4 43  1  0
  8 44  1  0
 10 45  1  0
 14 46  1  0
 16 47  1  0
 19 48  1  0
 19 49  1  0
 20 50  1  0
 20 51  1  0
 21 52  1  0
 25 53  1  0
 25 54  1  0
 26 55  1  0
 26 56  1  0
 30 57  1  0
 32 58  1  0
 32 59  1  0
 32 60  1  0
 33 61  1  0
 35 62  1  0
 35 63  1  0
 35 64  1  0
M  END
>  <Binding energies>  (1) 
[-8.09]

>  <Ligand effiencies>  (1) 
[-0.20743589743589744]

>  <Interactions>  (1) 
["V-A:ILE:369:CG2:3237, V-A:GLY:454:CA:4049, V-B:HIS:456:CD2:9039, H-A:GLU:543:OE2:4910, V-A:GLU:543:C:4902, V-B:GLU:543:C:9874, V-B:GLU:543:CB:9878, H-A:ARG:545:NH1:4927, V-B:TYR:539:CE2:9848, V-B:GLU:543:CG:9879, V-A:ASP:366:CG:3213, V-B:TYR:539:CZ:9849, H-A:ASN:370:N:3244, H-B:TYR:539:OH:9850, V-B:LYS:547:CE:9922, V-A:GLU:543:CD:4908, V-A:TYR:484:CZ:4347, V-B:TYR:484:CB:9312, V-B:HIS:456:CE1:9041, H-A:GLY:454:N:4050, V-A:GLY:453:C:4042, V-A:HIS:456:CE1:4070, V-A:ILE:369:CD1:3239, V-B:GLY:544:C:9884, H-B:HIS:456:NE2:9042, V-B:GLY:544:CA:9886, V-B:GLU:543:CD:9880, V-A:ASP:366:CB:3212, H-A:LYS:547:NZ:4951, H-A:ARG:545:NH2:4928, V-A:ARG:545:CZ:4926, V-A:GLU:543:CB:4906, V-A:GLY:453:CA:4044, V-A:LYS:547:CE:4950, H-A:ARG:545:NE:4924, H-A:TYR:484:OH:4348, H-A:GLU:543:O:4903"]

$$$$
ZINC3160059-again1
     RDKit          3D

 34 34  0  0  0  0  0  0  0  0999 V2000
  129.0070  129.8080   68.0480 H   0  0  0  0  0  0  0  0  0  0  0  0
  128.1080  130.0220   67.6420 N   0  0  0  0  0  0  0  0  0  0  0  0
  127.5130  129.0120   67.1620 C   0  0  0  0  0  0  0  0  0  0  0  0
  126.2450  129.0930   66.5440 N   0  0  0  0  0  0  0  0  0  0  0  0
  128.0990  127.7410   67.2150 N   0  0  0  0  0  0  0  0  0  0  0  0
  129.2310  127.4390   67.7160 N   0  0  0  0  0  0  0  0  0  0  0  0
  129.4760  126.0150   67.5930 C   0  0  0  0  0  0  0  0  0  0  0  0
  130.3400  125.7340   66.3700 C   0  0  0  0  0  0  0  0  0  0  0  0
  131.7010  125.4500   66.5160 C   0  0  0  0  0  0  0  0  0  0  0  0
  132.4940  125.2160   65.3940 C   0  0  0  0  0  0  0  0  0  0  0  0
  131.9320  125.2650   64.1180 C   0  0  0  0  0  0  0  0  0  0  0  0
  130.5700  125.5440   63.9570 C   0  0  0  0  0  0  0  0  0  0  0  0
  129.9590  125.6150   62.5620 C   0  0  0  0  0  0  0  0  0  0  0  0
  129.5990  124.2890   62.0930 N   0  0  0  0  0  0  0  0  0  0  0  0
  128.3680  124.0600   62.3100 N   0  0  0  0  0  0  0  0  0  0  0  0
  127.6750  122.8950   61.9770 C   0  0  0  0  0  0  0  0  0  0  0  0
  128.3400  121.8340   61.3130 N   0  0  0  0  0  0  0  0  0  0  0  0
  126.4530  122.8550   62.2860 N   0  0  0  0  0  0  0  0  0  0  0  0
  126.1220  123.6870   62.7520 H   0  0  0  0  0  0  0  0  0  0  0  0
  129.7820  125.7860   65.0870 C   0  0  0  0  0  0  0  0  0  0  0  0
  125.8810  130.0150   66.3490 H   0  0  0  0  0  0  0  0  0  0  0  0
  126.0510  128.4640   65.7780 H   0  0  0  0  0  0  0  0  0  0  0  0
  127.5390  126.9960   66.8100 H   0  0  0  0  0  0  0  0  0  0  0  0
  129.9944  125.6562   68.4944 H   0  0  0  0  0  0  0  0  0  0  0  0
  128.5140  125.4935   67.4806 H   0  0  0  0  0  0  0  0  0  0  0  0
  132.1478  125.4111   67.5204 H   0  0  0  0  0  0  0  0  0  0  0  0
  133.5643  124.9924   65.5147 H   0  0  0  0  0  0  0  0  0  0  0  0
  132.5620  125.0836   63.2347 H   0  0  0  0  0  0  0  0  0  0  0  0
  129.0573  126.2442   62.5940 H   0  0  0  0  0  0  0  0  0  0  0  0
  130.6997  126.0458   61.8723 H   0  0  0  0  0  0  0  0  0  0  0  0
  127.8130  124.7790   62.7670 H   0  0  0  0  0  0  0  0  0  0  0  0
  127.7720  121.0850   60.9450 H   0  0  0  0  0  0  0  0  0  0  0  0
  129.0810  122.0700   60.6680 H   0  0  0  0  0  0  0  0  0  0  0  0
  128.7138  126.0194   64.9665 H   0  0  0  0  0  0  0  0  0  0  0  0
  1  2  1  0
  2  3  2  0
  3  4  1  0
  3  5  1  0
  5  6  2  0
  6  7  1  0
  7  8  1  0
  8  9  2  0
  9 10  1  0
 10 11  2  0
 11 12  1  0
 12 13  1  0
 13 14  1  0
 14 15  2  0
 15 16  1  0
 16 17  1  0
 16 18  2  0
 18 19  1  0
 12 20  2  0
 20  8  1  0
  4 21  1  0
  4 22  1  0
  5 23  1  0
  7 24  1  0
  7 25  1  0
  9 26  1  0
 10 27  1  0
 11 28  1  0
 13 29  1  0
 13 30  1  0
 15 31  1  0
 17 32  1  0
 17 33  1  0
 20 34  1  0
M  CHG  2   5   1  15   1
M  END
>  <Binding energies>  (1) 
[-8.13]

>  <Ligand effiencies>  (1) 
[-0.3126923076923077]

>  <Interactions>  (1) 
["V-B:PRO:540:CA:9855, V-B:GLU:543:CB:9878, V-B:ALA:541:CB:9864, H-A:GLU:543:O:4903, H-B:ALA:541:O:9861, V-B:GLU:543:CG:9879, H-B:GLU:543:OE1:9881, H-B:ALA:541:N:9863, V-A:GLU:543:CD:4908, V-A:TYR:484:CZ:4347, H-B:TYR:484:OH:9319, V-B:HIS:456:CE1:9041, V-A:HIS:456:CE1:4070, V-B:TYR:484:CZ:9318, H-B:HIS:456:NE2:9042, V-B:GLU:543:CD:9880, V-A:ARG:545:CZ:4926, H-B:GLU:543:OE2:9882, H-B:TYR:539:O:9840, V-B:PRO:540:C:9853, V-B:ALA:541:CA:9862, H-B:PRO:540:O:9854"]

$$$$
ZINC31637685
     RDKit          3D

 49 50  0  0  0  0  0  0  0  0999 V2000
  133.2030  122.5030   63.3680 C   0  0  0  0  0  0  0  0  0  0  0  0
  132.9060  123.9110   62.8170 C   0  0  2  0  0  0  0  0  0  0  0  0
  133.9850  124.3430   61.4110 S   0  0  0  0  0  0  0  0  0  0  0  0
  132.8590  124.2680   59.9760 C   0  0  2  0  0  0  0  0  0  0  0  0
  133.5960  123.9620   58.6600 C   0  0  0  0  0  0  0  0  0  0  0  0
  131.9950  125.5350   59.8200 C   0  0  0  0  0  0  0  0  0  0  0  0
  132.2250  126.3300   58.9050 O   0  0  0  0  0  0  0  0  0  0  0  0
  130.9960  125.6810   60.7110 N   0  0  0  0  0  0  0  0  0  0  0  0
  130.0700  126.6590   60.6160 N   0  0  0  0  0  0  0  0  0  0  0  0
  128.9960  126.3820   59.9760 C   0  0  0  0  0  0  0  0  0  0  0  0
  128.6100  125.1500   59.2600 C   0  0  0  0  0  0  0  0  0  0  0  0
  128.4830  125.1960   57.8680 C   0  0  0  0  0  0  0  0  0  0  0  0
  128.1090  124.0610   57.1520 C   0  0  0  0  0  0  0  0  0  0  0  0
  127.8750  122.8660   57.8270 C   0  0  0  0  0  0  0  0  0  0  0  0
  127.5080  121.7650   57.1340 F   0  0  0  0  0  0  0  0  0  0  0  0
  128.0200  122.7960   59.2100 C   0  0  0  0  0  0  0  0  0  0  0  0
  128.3930  123.9320   59.9230 C   0  0  0  0  0  0  0  0  0  0  0  0
  132.9790  124.9740   63.9410 C   0  0  0  0  0  0  0  0  0  0  0  0
  134.0000  125.0510   64.6240 O   0  0  0  0  0  0  0  0  0  0  0  0
  131.9410  125.7940   64.2000 N   0  0  0  0  0  0  0  0  0  0  0  0
  130.8030  125.8280   63.4770 N   0  0  0  0  0  0  0  0  0  0  0  0
  129.7090  125.9850   64.1230 C   0  0  0  0  0  0  0  0  0  0  0  0
  129.4770  126.2230   65.5620 C   0  0  0  0  0  0  0  0  0  0  0  0
  129.9530  125.2810   66.4810 C   0  0  0  0  0  0  0  0  0  0  0  0
  129.7290  125.4470   67.8470 C   0  0  0  0  0  0  0  0  0  0  0  0
  129.0170  126.5540   68.3000 C   0  0  0  0  0  0  0  0  0  0  0  0
  128.7980  126.7140   69.6240 F   0  0  0  0  0  0  0  0  0  0  0  0
  128.5270  127.4950   67.3990 C   0  0  0  0  0  0  0  0  0  0  0  0
  128.7540  127.3290   66.0360 C   0  0  0  0  0  0  0  0  0  0  0  0
  133.1971  122.5308   64.4676 H   0  0  0  0  0  0  0  0  0  0  0  0
  132.4331  121.8011   63.0149 H   0  0  0  0  0  0  0  0  0  0  0  0
  134.1908  122.1719   63.0149 H   0  0  0  0  0  0  0  0  0  0  0  0
  131.8764  123.8994   62.4299 H   0  0  0  0  0  0  0  0  0  0  0  0
  132.1822  123.4280   60.1913 H   0  0  0  0  0  0  0  0  0  0  0  0
  134.5906  123.5491   58.8842 H   0  0  0  0  0  0  0  0  0  0  0  0
  133.0177  123.2296   58.0776 H   0  0  0  0  0  0  0  0  0  0  0  0
  133.7065  124.8886   58.0776 H   0  0  0  0  0  0  0  0  0  0  0  0
  130.8570  125.0250   61.4660 H   0  0  0  0  0  0  0  0  0  0  0  0
  128.2454  127.1859   59.9568 H   0  0  0  0  0  0  0  0  0  0  0  0
  128.6802  126.1370   57.3336 H   0  0  0  0  0  0  0  0  0  0  0  0
  127.9991  124.1087   56.0585 H   0  0  0  0  0  0  0  0  0  0  0  0
  127.8406  121.8472   59.7369 H   0  0  0  0  0  0  0  0  0  0  0  0
  128.5186  123.8747   61.0143 H   0  0  0  0  0  0  0  0  0  0  0  0
  131.9900  126.4670   64.9520 H   0  0  0  0  0  0  0  0  0  0  0  0
  128.7976  125.9347   63.5092 H   0  0  0  0  0  0  0  0  0  0  0  0
  130.5087  124.4020   66.1225 H   0  0  0  0  0  0  0  0  0  0  0  0
  130.1133  124.7063   68.5638 H   0  0  0  0  0  0  0  0  0  0  0  0
  127.9626  128.3663   67.7628 H   0  0  0  0  0  0  0  0  0  0  0  0
  128.3635  128.0709   65.3239 H   0  0  0  0  0  0  0  0  0  0  0  0
  1  2  1  0
  2  3  1  0
  3  4  1  0
  4  5  1  0
  4  6  1  0
  6  7  2  0
  6  8  1  0
  8  9  1  0
  9 10  2  0
 10 11  1  0
 11 12  2  0
 12 13  1  0
 13 14  2  0
 14 15  1  0
 14 16  1  0
 16 17  2  0
  2 18  1  0
 18 19  2  0
 18 20  1  0
 20 21  1  0
 21 22  2  0
 22 23  1  0
 23 24  2  0
 24 25  1  0
 25 26  2  0
 26 27  1  0
 26 28  1  0
 28 29  2  0
 17 11  1  0
 29 23  1  0
  1 30  1  0
  1 31  1  0
  1 32  1  0
  2 33  1  6
  4 34  1  1
  5 35  1  0
  5 36  1  0
  5 37  1  0
  8 38  1  0
 10 39  1  0
 12 40  1  0
 13 41  1  0
 16 42  1  0
 17 43  1  0
 20 44  1  0
 22 45  1  0
 24 46  1  0
 25 47  1  0
 28 48  1  0
 29 49  1  0
M  END
>  <Binding energies>  (1) 
[-6.78]

>  <Ligand effiencies>  (1) 
[-0.21870967741935485]

>  <Interactions>  (1) 
["V-A:ILE:369:CG2:3237, V-A:ASP:366:CA:3210, V-B:PRO:540:CA:9855, V-B:TYR:539:CA:9841, V-A:GLY:454:CA:4049, V-B:GLU:543:C:9874, H-A:GLU:543:OE2:4910, V-A:ILE:369:CB:3236, V-B:GLU:543:CB:9878, H-A:ARG:545:NH1:4927, V-B:TYR:539:CE2:9848, V-B:GLU:543:CG:9879, V-B:TYR:539:C:9839, V-A:ASP:366:CG:3213, V-B:TYR:539:CZ:9849, V-B:TYR:539:CB:9843, V-A:GLU:543:CD:4908, V-B:GLU:543:CA:9876, H-A:GLY:454:N:4050, V-B:PRO:540:N:9856, V-A:HIS:456:CE1:4070, V-B:TYR:539:CD2:9846, V-B:PRO:540:CD:9859, V-B:GLU:543:CD:9880, V-A:ASP:366:CB:3212, V-A:LEU:475:CD2:4259, H-A:ARG:545:NH2:4928, V-A:ARG:545:CZ:4926, H-A:GLU:543:OE1:4909, V-B:TYR:539:CG:9844, V-B:TYR:539:CD1:9845, H-A:ARG:545:NE:4924, V-B:TYR:539:CE1:9847, H-A:TYR:484:OH:4348"]

$$$$
ZINC318506979
     RDKit          3D

 43 43  0  0  0  0  0  0  0  0999 V2000
  128.2070  127.0200   70.7030 C   0  0  0  0  0  0  0  0  0  0  0  0
  128.2500  126.9870   69.3620 C   0  0  0  0  0  0  0  0  0  0  0  0
  129.5140  126.8620   68.5380 C   0  0  0  0  0  0  0  0  0  0  0  0
  129.4730  125.6620   67.7770 O   0  0  0  0  0  0  0  0  0  0  0  0
  130.6040  125.4240   66.9460 C   0  0  0  0  0  0  0  0  0  0  0  0
  130.2400  124.6540   65.6550 C   0  0  0  0  0  0  0  0  0  0  0  0
  131.3030  124.6980   64.5200 C   0  0  2  0  0  0  0  0  0  0  0  0
  130.8040  125.6250   63.3620 C   0  0  0  0  0  0  0  0  0  0  0  0
  130.2120  126.9570   63.8610 N   0  0  0  0  0  0  0  0  0  0  0  0
  128.7710  127.2210   63.3920 C   0  0  0  0  0  0  0  0  0  0  0  0
  128.1000  128.2630   64.3020 C   0  0  0  0  0  0  0  0  0  0  0  0
  128.6880  128.2450   65.5980 O   0  0  0  0  0  0  0  0  0  0  0  0
  127.9890  129.0330   66.5490 C   0  0  0  0  0  0  0  0  0  0  0  0
  131.6990  123.2910   64.0430 C   0  0  0  0  0  0  0  0  0  0  0  0
  133.2250  123.2960   63.8980 C   0  0  0  0  0  0  0  0  0  0  0  0
  133.6390  124.6100   64.2550 O   0  0  0  0  0  0  0  0  0  0  0  0
  132.6480  125.1910   65.0930 C   0  0  0  0  0  0  0  0  0  0  0  0
  127.2406  127.1131   71.2202 H   0  0  0  0  0  0  0  0  0  0  0  0
  129.1381  126.9540   71.2849 H   0  0  0  0  0  0  0  0  0  0  0  0
  127.2949  127.0560   68.8207 H   0  0  0  0  0  0  0  0  0  0  0  0
  129.5942  127.7233   67.8585 H   0  0  0  0  0  0  0  0  0  0  0  0
  130.3854  126.8384   69.2089 H   0  0  0  0  0  0  0  0  0  0  0  0
  131.0461  126.3917   66.6666 H   0  0  0  0  0  0  0  0  0  0  0  0
  131.3124  124.8046   67.5157 H   0  0  0  0  0  0  0  0  0  0  0  0
  130.0773  123.6001   65.9248 H   0  0  0  0  0  0  0  0  0  0  0  0
  129.3480  125.1539   65.2495 H   0  0  0  0  0  0  0  0  0  0  0  0
  131.6547  125.8467   62.7008 H   0  0  0  0  0  0  0  0  0  0  0  0
  130.0007  125.0874   62.8369 H   0  0  0  0  0  0  0  0  0  0  0  0
  130.2320  126.9620   64.8720 H   0  0  0  0  0  0  0  0  0  0  0  0
  130.7980  127.7130   63.5380 H   0  0  0  0  0  0  0  0  0  0  0  0
  128.7883  127.5980   62.3588 H   0  0  0  0  0  0  0  0  0  0  0  0
  128.2000  126.2820   63.4391 H   0  0  0  0  0  0  0  0  0  0  0  0
  128.2256  129.2630   63.8613 H   0  0  0  0  0  0  0  0  0  0  0  0
  127.0309  128.0204   64.3929 H   0  0  0  0  0  0  0  0  0  0  0  0
  128.2696  128.7167   67.5645 H   0  0  0  0  0  0  0  0  0  0  0  0
  128.2497  130.0926   66.4098 H   0  0  0  0  0  0  0  0  0  0  0  0
  126.9059  128.9005   66.4098 H   0  0  0  0  0  0  0  0  0  0  0  0
  131.3897  122.5377   64.7825 H   0  0  0  0  0  0  0  0  0  0  0  0
  131.2090  123.0405   63.0905 H   0  0  0  0  0  0  0  0  0  0  0  0
  133.6773  122.5543   64.5728 H   0  0  0  0  0  0  0  0  0  0  0  0
  133.5377  123.0342   62.8764 H   0  0  0  0  0  0  0  0  0  0  0  0
  132.7731  124.8524   66.1321 H   0  0  0  0  0  0  0  0  0  0  0  0
  132.7127  126.2890   65.1101 H   0  0  0  0  0  0  0  0  0  0  0  0
  1  2  2  0
  2  3  1  0
  3  4  1  0
  4  5  1  0
  5  6  1  0
  7  6  1  1
  7  8  1  0
  8  9  1  0
  9 10  1  0
 10 11  1  0
 11 12  1  0
 12 13  1  0
  7 14  1  0
 14 15  1  0
 15 16  1  0
 16 17  1  0
 17  7  1  0
  1 18  1  0
  1 19  1  0
  2 20  1  0
  3 21  1  0
  3 22  1  0
  5 23  1  0
  5 24  1  0
  6 25  1  0
  6 26  1  0
  8 27  1  0
  8 28  1  0
  9 29  1  0
  9 30  1  0
 10 31  1  0
 10 32  1  0
 11 33  1  0
 11 34  1  0
 13 35  1  0
 13 36  1  0
 13 37  1  0
 14 38  1  0
 14 39  1  0
 15 40  1  0
 15 41  1  0
 17 42  1  0
 17 43  1  0
M  CHG  1   9   1
M  END
>  <Binding energies>  (1) 
[-5.05]

>  <Ligand effiencies>  (1) 
[-0.2657894736842105]

>  <Interactions>  (1) 
["V-A:GLY:454:CA:4049, V-B:GLU:543:C:9874, H-A:GLU:543:OE2:4910, V-B:GLU:543:CB:9878, V-A:TYR:484:CE2:4346, V-B:GLU:543:CG:9879, V-A:TYR:484:CZ:4347, V-A:GLU:543:CD:4908, V-B:HIS:456:CE1:9041, H-A:GLY:454:N:4050, V-A:HIS:456:CE1:4070, V-A:GLU:543:CG:4907, V-B:GLU:543:CD:9880, V-A:LEU:475:CD2:4259, H-A:ARG:545:NH2:4928, V-A:ARG:545:CZ:4926, H-A:GLU:543:OE1:4909, V-A:GLU:543:CB:4906, H-A:ARG:545:NE:4924, H-A:TYR:484:OH:4348"]

$$$$
ZINC320787824
     RDKit          3D

 44 43  0  0  0  0  0  0  0  0999 V2000
  127.6450  126.7470   71.7840 C   0  0  0  0  0  0  0  0  0  0  0  0
  128.8580  127.2650   71.5320 C   0  0  0  0  0  0  0  0  0  0  0  0
  129.3570  127.6770   70.1590 C   0  0  0  0  0  0  0  0  0  0  0  0
  128.3780  127.3630   69.0060 C   0  0  0  0  0  0  0  0  0  0  0  0
  128.9890  127.3560   67.5770 C   0  0  2  0  0  0  0  0  0  0  0  0
  127.9850  127.7190   66.5160 N   0  0  0  0  0  0  0  0  0  0  0  0
  129.5780  125.9750   67.1820 C   0  0  0  0  0  0  0  0  0  0  0  0
  129.4750  124.9920   67.9230 O   0  0  0  0  0  0  0  0  0  0  0  0
  130.2370  125.9530   66.0110 N   0  0  0  0  0  0  0  0  0  0  0  0
  130.9640  124.7990   65.4770 C   0  0  0  0  0  0  0  0  0  0  0  0
  131.5640  125.0410   64.0700 C   0  0  1  0  0  0  0  0  0  0  0  0
  131.3920  126.4000   63.7090 O   0  0  0  0  0  0  0  0  0  0  0  0
  133.0670  124.6570   63.9940 C   0  0  0  0  0  0  0  0  0  0  0  0
  133.6140  124.0810   62.6480 C   0  0  0  0  0  0  0  0  0  0  0  0
  135.0670  124.5310   62.3720 C   0  0  0  0  0  0  0  0  0  0  0  0
  133.5970  122.5360   62.7430 C   0  0  0  0  0  0  0  0  0  0  0  0
  132.7160  124.5080   61.4630 C   0  0  0  0  0  0  0  0  0  0  0  0
  127.3657  126.4756   72.8128 H   0  0  0  0  0  0  0  0  0  0  0  0
  126.9306  126.5940   70.9617 H   0  0  0  0  0  0  0  0  0  0  0  0
  129.5407  127.4008   72.3838 H   0  0  0  0  0  0  0  0  0  0  0  0
  129.5396  128.7617   70.1701 H   0  0  0  0  0  0  0  0  0  0  0  0
  130.2683  127.0919   69.9665 H   0  0  0  0  0  0  0  0  0  0  0  0
  127.9462  126.3686   69.1924 H   0  0  0  0  0  0  0  0  0  0  0  0
  127.6424  128.1808   69.0102 H   0  0  0  0  0  0  0  0  0  0  0  0
  129.7874  128.1112   67.6238 H   0  0  0  0  0  0  0  0  0  0  0  0
  128.0230  127.0360   65.7740 H   0  0  0  0  0  0  0  0  0  0  0  0
  128.2040  128.6360   66.1540 H   0  0  0  0  0  0  0  0  0  0  0  0
  127.0640  127.7290   66.9320 H   0  0  0  0  0  0  0  0  0  0  0  0
  130.2700  126.7960   65.4550 H   0  0  0  0  0  0  0  0  0  0  0  0
  131.7846  124.5550   66.1677 H   0  0  0  0  0  0  0  0  0  0  0  0
  130.2391  123.9772   65.3815 H   0  0  0  0  0  0  0  0  0  0  0  0
  131.0275  124.3912   63.3629 H   0  0  0  0  0  0  0  0  0  0  0  0
  131.5770  126.9470   64.4760 H   0  0  0  0  0  0  0  0  0  0  0  0
  133.6473  125.5635   64.2208 H   0  0  0  0  0  0  0  0  0  0  0  0
  133.1734  123.8279   64.7090 H   0  0  0  0  0  0  0  0  0  0  0  0
  135.5885  124.6925   63.3270 H   0  0  0  0  0  0  0  0  0  0  0  0
  135.5889  123.7524   61.7963 H   0  0  0  0  0  0  0  0  0  0  0  0
  135.0575  125.4683   61.7963 H   0  0  0  0  0  0  0  0  0  0  0  0
  133.5937  122.2337   63.8006 H   0  0  0  0  0  0  0  0  0  0  0  0
  132.6945  122.1481   62.2479 H   0  0  0  0  0  0  0  0  0  0  0  0
  134.4907  122.1283   62.2479 H   0  0  0  0  0  0  0  0  0  0  0  0
  131.7857  124.9504   61.8488 H   0  0  0  0  0  0  0  0  0  0  0  0
  133.2476  125.2497   60.8488 H   0  0  0  0  0  0  0  0  0  0  0  0
  132.4762  123.6275   60.8488 H   0  0  0  0  0  0  0  0  0  0  0  0
  1  2  2  0
  2  3  1  0
  3  4  1  0
  4  5  1  0
  5  6  1  0
  5  7  1  0
  7  8  2  0
  7  9  1  0
  9 10  1  0
 10 11  1  0
 11 12  1  0
 11 13  1  0
 13 14  1  0
 14 15  1  0
 14 16  1  0
 14 17  1  0
  1 18  1  0
  1 19  1  0
  2 20  1  0
  3 21  1  0
  3 22  1  0
  4 23  1  0
  4 24  1  0
  5 25  1  1
  6 26  1  0
  6 27  1  0
  6 28  1  0
  9 29  1  0
 10 30  1  0
 10 31  1  0
 11 32  1  6
 12 33  1  0
 13 34  1  0
 13 35  1  0
 15 36  1  0
 15 37  1  0
 15 38  1  0
 16 39  1  0
 16 40  1  0
 16 41  1  0
 17 42  1  0
 17 43  1  0
 17 44  1  0
M  CHG  1   6   1
M  END
>  <Binding energies>  (1) 
[-5.6]

>  <Ligand effiencies>  (1) 
[-0.2545454545454545]

>  <Interactions>  (1) 
["V-A:GLY:454:CA:4049, H-A:GLU:543:OE2:4910, V-B:GLU:543:CB:9878, V-B:GLU:543:CG:9879, H-B:GLU:543:OE1:9881, V-A:GLU:543:CD:4908, V-A:TYR:484:CZ:4347, V-B:HIS:456:CE1:9041, V-A:GLY:453:C:4042, V-A:HIS:456:CE1:4070, V-A:ILE:369:CD1:3239, V-B:GLY:544:C:9884, V-B:GLY:544:CA:9886, V-B:GLU:543:CD:9880, V-A:LEU:475:CD2:4259, H-A:ARG:545:NH2:4928, V-A:ARG:545:CZ:4926, H-A:GLU:543:OE1:4909, V-A:GLU:543:CB:4906, H-B:GLU:543:OE2:9882, V-A:GLY:453:CA:4044"]

$$$$
ZINC321246505
     RDKit          3D

 41 40  0  0  0  0  0  0  0  0999 V2000
  129.8750  127.8160   71.8030 C   0  0  0  0  0  0  0  0  0  0  0  0
  130.6010  128.0780   70.7030 C   0  0  0  0  0  0  0  0  0  0  0  0
  130.2190  127.7870   69.2560 C   0  0  0  0  0  0  0  0  0  0  0  0
  128.7550  127.3810   68.9640 C   0  0  0  0  0  0  0  0  0  0  0  0
  128.3240  127.3370   67.4700 C   0  0  1  0  0  0  0  0  0  0  0  0
  127.6730  128.6520   66.9800 C   0  0  0  0  0  0  0  0  0  0  0  0
  127.6940  128.7880   65.5700 O   0  0  0  0  0  0  0  0  0  0  0  0
  129.5360  127.0150   66.5680 N   0  0  0  0  0  0  0  0  0  0  0  0
  129.8920  125.5260   66.4380 C   0  0  0  0  0  0  0  0  0  0  0  0
  131.3310  125.3360   65.9880 C   0  0  0  0  0  0  0  0  0  0  0  0
  131.7710  124.6590   64.8980 C   0  0  0  0  0  0  0  0  0  0  0  0
  130.8410  123.9140   63.9280 C   0  0  0  0  0  0  0  0  0  0  0  0
  130.2030  122.6510   64.5260 C   0  0  0  0  0  0  0  0  0  0  0  0
  133.2310  124.6040   64.6290 C   0  0  0  0  0  0  0  0  0  0  0  0
  134.0730  125.1040   65.3830 O   0  0  0  0  0  0  0  0  0  0  0  0
  133.5550  123.9620   63.4770 O   0  0  0  0  0  0  0  0  0  0  0  0
  133.9890  124.6840   62.3330 C   0  0  0  0  0  0  0  0  0  0  0  0
  130.2678  128.0779   72.7965 H   0  0  0  0  0  0  0  0  0  0  0  0
  128.8879  127.3397   71.7099 H   0  0  0  0  0  0  0  0  0  0  0  0
  131.5789  128.5551   70.8644 H   0  0  0  0  0  0  0  0  0  0  0  0
  130.4304  128.6949   68.6720 H   0  0  0  0  0  0  0  0  0  0  0  0
  130.8114  126.9003   68.9861 H   0  0  0  0  0  0  0  0  0  0  0  0
  128.5977  126.3772   69.3854 H   0  0  0  0  0  0  0  0  0  0  0  0
  128.1408  128.1729   69.4175 H   0  0  0  0  0  0  0  0  0  0  0  0
  127.5652  126.5438   67.3992 H   0  0  0  0  0  0  0  0  0  0  0  0
  126.6266  128.6726   67.3186 H   0  0  0  0  0  0  0  0  0  0  0  0
  128.2567  129.4845   67.3997 H   0  0  0  0  0  0  0  0  0  0  0  0
  126.8800  128.4240   65.2130 H   0  0  0  0  0  0  0  0  0  0  0  0
  129.3330  127.3650   65.6420 H   0  0  0  0  0  0  0  0  0  0  0  0
  130.3360  127.5290   66.9090 H   0  0  0  0  0  0  0  0  0  0  0  0
  129.7554  125.0390   67.4148 H   0  0  0  0  0  0  0  0  0  0  0  0
  129.2312  125.0773   65.6817 H   0  0  0  0  0  0  0  0  0  0  0  0
  132.1039  125.8004   66.6180 H   0  0  0  0  0  0  0  0  0  0  0  0
  130.0354  124.5991   63.6251 H   0  0  0  0  0  0  0  0  0  0  0  0
  131.4593  123.5885   63.0784 H   0  0  0  0  0  0  0  0  0  0  0  0
  130.2327  122.7099   65.6240 H   0  0  0  0  0  0  0  0  0  0  0  0
  129.1580  122.5743   64.1911 H   0  0  0  0  0  0  0  0  0  0  0  0
  130.7614  121.7644   64.1911 H   0  0  0  0  0  0  0  0  0  0  0  0
  134.5313  125.5861   62.6527 H   0  0  0  0  0  0  0  0  0  0  0  0
  134.6557  124.0497   61.7303 H   0  0  0  0  0  0  0  0  0  0  0  0
  133.1161  124.9752   61.7303 H   0  0  0  0  0  0  0  0  0  0  0  0
  1  2  2  0
  2  3  1  0
  3  4  1  0
  4  5  1  0
  5  6  1  0
  6  7  1  0
  5  8  1  0
  8  9  1  0
  9 10  1  0
 10 11  2  0
 11 12  1  0
 12 13  1  0
 11 14  1  0
 14 15  2  0
 14 16  1  0
 16 17  1  0
  1 18  1  0
  1 19  1  0
  2 20  1  0
  3 21  1  0
  3 22  1  0
  4 23  1  0
  4 24  1  0
  5 25  1  1
  6 26  1  0
  6 27  1  0
  7 28  1  0
  8 29  1  0
  8 30  1  0
  9 31  1  0
  9 32  1  0
 10 33  1  0
 12 34  1  0
 12 35  1  0
 13 36  1  0
 13 37  1  0
 13 38  1  0
 17 39  1  0
 17 40  1  0
 17 41  1  0
M  CHG  1   8   1
M  END
>  <Binding energies>  (1) 
[-5.4]

>  <Ligand effiencies>  (1) 
[-0.27]

>  <Interactions>  (1) 
["V-A:GLY:454:CA:4049, H-A:GLU:543:OE2:4910, V-A:GLU:543:C:4902, V-B:GLU:543:CB:9878, V-B:ALA:541:CB:9864, H-A:ARG:545:NH1:4927, V-A:TYR:484:CE2:4346, V-A:GLY:544:C:4912, V-B:GLU:543:CG:9879, V-A:ASP:366:CG:3213, H-B:GLU:543:OE1:9881, V-A:GLU:543:CD:4908, H-B:TYR:484:OH:9319, V-B:HIS:456:CE1:9041, H-A:GLY:454:N:4050, V-A:HIS:456:CE1:4070, V-B:GLU:543:CD:9880, V-A:LEU:475:CD2:4259, H-A:ARG:545:NH2:4928, V-A:ARG:545:CZ:4926, H-A:GLU:543:OE1:4909, V-A:GLU:543:CB:4906, H-B:GLU:543:OE2:9882, H-A:ARG:545:NE:4924, H-A:TYR:484:OH:4348"]

$$$$
ZINC32133568
     RDKit          3D

 27 28  0  0  0  0  0  0  0  0999 V2000
  128.6120  119.0350   73.3750 N   0  0  0  0  0  0  0  0  0  0  0  0
  128.7330  120.4240   73.3390 C   0  0  0  0  0  0  0  0  0  0  0  0
  127.8580  121.1810   72.5680 C   0  0  0  0  0  0  0  0  0  0  0  0
  127.9820  122.5680   72.5350 C   0  0  0  0  0  0  0  0  0  0  0  0
  128.9820  123.2460   73.2660 C   0  0  0  0  0  0  0  0  0  0  0  0
  129.1460  124.6490   73.2660 N   0  0  0  0  0  0  0  0  0  0  0  0
  128.3700  125.3140   72.5120 N   0  0  0  0  0  0  0  0  0  0  0  0
  128.6270  126.6790   72.6130 C   0  0  0  0  0  0  0  0  0  0  0  0
  128.5600  127.1950   73.8730 N   0  0  0  0  0  0  0  0  0  0  0  0
  128.8110  128.5170   74.0480 C   0  0  0  0  0  0  0  0  0  0  0  0
  129.1400  129.3680   72.9930 C   0  0  0  0  0  0  0  0  0  0  0  0
  129.4820  131.2140   73.3040 Br  0  0  0  0  0  0  0  0  0  0  0  0
  129.2140  128.8360   71.7060 C   0  0  0  0  0  0  0  0  0  0  0  0
  128.9590  127.4780   71.5070 C   0  0  0  0  0  0  0  0  0  0  0  0
  129.0650  126.7500   69.7460 Br  0  0  0  0  0  0  0  0  0  0  0  0
  129.8570  122.4500   74.0390 C   0  0  0  0  0  0  0  0  0  0  0  0
  130.8840  123.0200   74.8000 N   0  0  0  0  0  0  0  0  0  0  0  0
  129.7300  121.0590   74.0730 C   0  0  0  0  0  0  0  0  0  0  0  0
  128.4750  118.5260   72.5150 H   0  0  0  0  0  0  0  0  0  0  0  0
  128.6570  118.5570   74.2630 H   0  0  0  0  0  0  0  0  0  0  0  0
  127.0684  120.6850   71.9845 H   0  0  0  0  0  0  0  0  0  0  0  0
  127.2804  123.1523   71.9215 H   0  0  0  0  0  0  0  0  0  0  0  0
  128.7526  128.9348   75.0639 H   0  0  0  0  0  0  0  0  0  0  0  0
  129.4715  129.4819   70.8536 H   0  0  0  0  0  0  0  0  0  0  0  0
  130.8880  124.0150   74.9670 H   0  0  0  0  0  0  0  0  0  0  0  0
  131.6100  122.4250   75.1750 H   0  0  0  0  0  0  0  0  0  0  0  0
  130.4228  120.4619   74.6841 H   0  0  0  0  0  0  0  0  0  0  0  0
  1  2  1  0
  2  3  2  0
  3  4  1  0
  4  5  2  0
  5  6  1  0
  6  7  2  0
  7  8  1  0
  8  9  2  0
  9 10  1  0
 10 11  2  0
 11 12  1  0
 11 13  1  0
 13 14  2  0
 14 15  1  0
  5 16  1  0
 16 17  1  0
 16 18  2  0
 18  2  1  0
 14  8  1  0
  1 19  1  0
  1 20  1  0
  3 21  1  0
  4 22  1  0
 10 23  1  0
 13 24  1  0
 17 25  1  0
 17 26  1  0
 18 27  1  0
M  END
>  <Binding energies>  (1) 
[-5.47]

>  <Ligand effiencies>  (1) 
[-0.24863636363636363]

>  <Interactions>  (1) 
["V-A:HIS:456:CE1:4070, H-A:TYR:484:O:4338, V-B:GLU:543:C:9874, V-B:HIS:456:CD2:9039, V-A:LYS:547:CE:4950, H-B:LYS:547:NZ:9923, V-B:GLY:544:CA:9886, V-B:LYS:547:CE:9922, V-A:TYR:484:CA:4339, V-A:TYR:484:C:4337, H-A:ASP:473:OD1:4241, V-B:HIS:456:CE1:9041, V-A:TYR:484:CB:4341, V-A:HIS:456:CD2:4068, V-A:HIS:456:CG:4066"]

$$$$
ZINC32505924
     RDKit          3D

 56 59  0  0  0  0  0  0  0  0999 V2000
  133.0560  119.8410   59.0260 C   0  0  0  0  0  0  0  0  0  0  0  0
  132.5370  119.8720   60.3510 O   0  0  0  0  0  0  0  0  0  0  0  0
  132.0510  121.0620   60.8640 C   0  0  0  0  0  0  0  0  0  0  0  0
  132.7470  122.2810   60.8130 C   0  0  0  0  0  0  0  0  0  0  0  0
  132.1900  123.4650   61.3270 C   0  0  0  0  0  0  0  0  0  0  0  0
  132.8480  124.6830   61.3240 O   0  0  0  0  0  0  0  0  0  0  0  0
  134.1170  124.7980   61.9550 C   0  0  0  0  0  0  0  0  0  0  0  0
  130.8990  123.4250   61.8790 C   0  0  0  0  0  0  0  0  0  0  0  0
  130.2890  124.5930   62.3840 N   0  0  0  0  0  0  0  0  0  0  0  0
  129.4510  125.4760   61.6570 C   0  0  0  0  0  0  0  0  0  0  0  0
  129.0900  125.5860   60.4300 N   0  0  0  0  0  0  0  0  0  0  0  0
  129.5910  124.7840   59.4280 C   0  0  0  0  0  0  0  0  0  0  0  0
  130.4090  125.1990   58.6040 O   0  0  0  0  0  0  0  0  0  0  0  0
  128.9760  123.3690   59.3730 C   0  0  0  0  0  0  0  0  0  0  0  0
  127.7120  123.2620   58.5100 C   0  0  0  0  0  0  0  0  0  0  0  0
  127.7540  122.4730   57.3540 C   0  0  0  0  0  0  0  0  0  0  0  0
  126.6430  122.3690   56.5220 C   0  0  0  0  0  0  0  0  0  0  0  0
  125.4690  123.0420   56.8480 C   0  0  0  0  0  0  0  0  0  0  0  0
  125.4050  123.8110   58.0090 C   0  0  0  0  0  0  0  0  0  0  0  0
  126.5200  123.9270   58.8580 C   0  0  0  0  0  0  0  0  0  0  0  0
  126.5100  124.6550   60.0350 O   0  0  0  0  0  0  0  0  0  0  0  0
  125.9130  124.0990   61.2010 C   0  0  0  0  0  0  0  0  0  0  0  0
  128.7310  126.6420   62.8540 S   0  0  0  0  0  0  0  0  0  0  0  0
  129.8770  126.1480   64.1350 C   0  0  1  0  0  0  0  0  0  0  0  0
  129.5300  126.2800   65.6190 C   0  0  0  0  0  0  0  0  0  0  0  0
  130.7420  125.0790   66.4170 S   0  0  0  0  0  0  0  0  0  0  0  0
  131.9140  125.8000   66.9270 O   0  0  0  0  0  0  0  0  0  0  0  0
  130.0010  124.1580   67.2840 O   0  0  0  0  0  0  0  0  0  0  0  0
  131.2030  124.2230   64.7970 C   0  0  0  0  0  0  0  0  0  0  0  0
  130.1020  124.6820   63.8250 C   0  0  2  0  0  0  0  0  0  0  0  0
  130.2160  122.2070   61.9560 C   0  0  0  0  0  0  0  0  0  0  0  0
  130.7850  121.0380   61.4570 C   0  0  0  0  0  0  0  0  0  0  0  0
  129.8850  119.5650   61.5570 Cl  0  0  0  0  0  0  0  0  0  0  0  0
  134.1534  119.7755   59.0635 H   0  0  0  0  0  0  0  0  0  0  0  0
  132.6543  118.9652   58.4953 H   0  0  0  0  0  0  0  0  0  0  0  0
  132.7614  120.7583   58.4953 H   0  0  0  0  0  0  0  0  0  0  0  0
  133.7495  122.3098   60.3611 H   0  0  0  0  0  0  0  0  0  0  0  0
  133.9859  124.7861   63.0471 H   0  0  0  0  0  0  0  0  0  0  0  0
  134.7545  123.9539   61.6530 H   0  0  0  0  0  0  0  0  0  0  0  0
  134.5924  125.7429   61.6530 H   0  0  0  0  0  0  0  0  0  0  0  0
  129.7310  122.6811   58.9646 H   0  0  0  0  0  0  0  0  0  0  0  0
  128.6775  123.1156   60.4009 H   0  0  0  0  0  0  0  0  0  0  0  0
  128.6758  121.9290   57.1004 H   0  0  0  0  0  0  0  0  0  0  0  0
  126.6926  121.7567   55.6095 H   0  0  0  0  0  0  0  0  0  0  0  0
  124.5913  122.9670   56.1892 H   0  0  0  0  0  0  0  0  0  0  0  0
  124.4711  124.3333   58.2640 H   0  0  0  0  0  0  0  0  0  0  0  0
  126.3810  124.5349   62.0960 H   0  0  0  0  0  0  0  0  0  0  0  0
  124.8361  124.3234   61.2042 H   0  0  0  0  0  0  0  0  0  0  0  0
  126.0604  123.0089   61.2042 H   0  0  0  0  0  0  0  0  0  0  0  0
  130.7176  126.8552   64.0775 H   0  0  0  0  0  0  0  0  0  0  0  0
  129.6921  127.3074   65.9770 H   0  0  0  0  0  0  0  0  0  0  0  0
  128.4763  126.0624   65.8479 H   0  0  0  0  0  0  0  0  0  0  0  0
  132.1951  124.5468   64.4492 H   0  0  0  0  0  0  0  0  0  0  0  0
  131.2633  123.1287   64.8916 H   0  0  0  0  0  0  0  0  0  0  0  0
  129.2851  123.9678   64.0054 H   0  0  0  0  0  0  0  0  0  0  0  0
  129.2175  122.1720   62.4162 H   0  0  0  0  0  0  0  0  0  0  0  0
  1  2  1  0
  2  3  1  0
  3  4  2  0
  4  5  1  0
  5  6  1  0
  6  7  1  0
  5  8  2  0
  8  9  1  0
  9 10  1  0
 10 11  2  0
 11 12  1  0
 12 13  2  0
 12 14  1  0
 14 15  1  0
 15 16  2  0
 16 17  1  0
 17 18  2  0
 18 19  1  0
 19 20  2  0
 20 21  1  0
 21 22  1  0
 10 23  1  0
 23 24  1  0
 24 25  1  0
 25 26  1  0
 26 27  2  0
 26 28  2  0
 26 29  1  0
 29 30  1  0
  8 31  1  0
 31 32  2  0
 32 33  1  0
 32  3  1  0
 30  9  1  0
 20 15  1  0
 30 24  1  0
  1 34  1  0
  1 35  1  0
  1 36  1  0
  4 37  1  0
  7 38  1  0
  7 39  1  0
  7 40  1  0
 14 41  1  0
 14 42  1  0
 16 43  1  0
 17 44  1  0
 18 45  1  0
 19 46  1  0
 22 47  1  0
 22 48  1  0
 22 49  1  0
 24 50  1  1
 25 51  1  0
 25 52  1  0
 29 53  1  0
 29 54  1  0
 30 55  1  1
 31 56  1  0
M  END
>  <Binding energies>  (1) 
[-6.1]

>  <Ligand effiencies>  (1) 
[-0.18484848484848485]

>  <Interactions>  (1) 
["V-A:ILE:369:CG2:3237, V-B:TYR:539:CA:9841, V-B:PRO:540:CA:9855, V-B:GLU:543:CB:9878, V-B:ALA:541:CB:9864, V-B:TYR:539:CE2:9848, V-A:TYR:484:CE2:4346, V-B:GLU:543:CG:9879, V-B:TYR:539:C:9839, V-A:ASP:366:CG:3213, V-B:TYR:539:CZ:9849, H-B:TYR:539:OH:9850, V-A:GLU:543:CD:4908, V-A:TYR:484:CZ:4347, V-B:PRO:540:CB:9857, V-B:PRO:540:N:9856, V-A:HIS:456:CE1:4070, V-A:ILE:369:CD1:3239, V-B:TYR:539:CD2:9846, V-B:PRO:540:CD:9859, H-A:SER:385:OG:3410, V-B:GLU:543:CD:9880, V-A:LEU:475:CD2:4259, V-A:ARG:545:CZ:4926, V-B:TYR:539:CG:9844, V-B:TYR:539:CD1:9845, V-B:LEU:363:CD1:8160, H-A:ARG:545:NE:4924, V-B:MET:535:CE:9807, V-B:TYR:539:CE1:9847, H-A:TYR:484:OH:4348"]

$$$$
ZINC3255240
     RDKit          3D

 34 36  0  0  0  0  0  0  0  0999 V2000
  133.2050  123.3640   64.0850 C   0  0  0  0  0  0  0  0  0  0  0  0
  132.0600  124.3580   64.1030 C   0  0  0  0  0  0  0  0  0  0  0  0
  131.5600  124.6990   65.2680 N   0  0  0  0  0  0  0  0  0  0  0  0
  130.5790  125.5730   65.0180 N   0  0  0  0  0  0  0  0  0  0  0  0
  129.8380  126.1140   66.0920 C   0  0  0  0  0  0  0  0  0  0  0  0
  129.8480  125.4850   67.3430 C   0  0  0  0  0  0  0  0  0  0  0  0
  129.1140  126.0200   68.4000 C   0  0  0  0  0  0  0  0  0  0  0  0
  128.3670  127.1820   68.2150 C   0  0  0  0  0  0  0  0  0  0  0  0
  128.3430  127.8220   66.9690 C   0  0  0  0  0  0  0  0  0  0  0  0
  127.5300  129.1000   66.7680 C   0  0  0  0  0  0  0  0  0  0  0  0
  126.2310  128.8860   66.9900 F   0  0  0  0  0  0  0  0  0  0  0  0
  127.9600  130.0270   67.6240 F   0  0  0  0  0  0  0  0  0  0  0  0
  127.6610  129.5760   65.5290 F   0  0  0  0  0  0  0  0  0  0  0  0
  129.0790  127.2770   65.9100 C   0  0  0  0  0  0  0  0  0  0  0  0
  130.4520  125.8060   63.6670 C   0  0  0  0  0  0  0  0  0  0  0  0
  129.3030  126.9260   63.0250 Cl  0  0  0  0  0  0  0  0  0  0  0  0
  131.4100  125.0090   63.0300 C   0  0  0  0  0  0  0  0  0  0  0  0
  131.7010  124.8790   61.6020 C   0  0  0  0  0  0  0  0  0  0  0  0
  132.8810  125.0210   61.1450 N   0  0  0  0  0  0  0  0  0  0  0  0
  133.1050  124.8920   59.7850 N   0  0  0  0  0  0  0  0  0  0  0  0
  133.9530  123.9780   59.2050 C   0  0  0  0  0  0  0  0  0  0  0  0
  133.9750  124.0730   57.8990 N   0  0  0  0  0  0  0  0  0  0  0  0
  133.1020  125.1010   57.5580 N   0  0  0  0  0  0  0  0  0  0  0  0
  132.6070  125.5620   58.6800 C   0  0  0  0  0  0  0  0  0  0  0  0
  133.4912  123.1156   65.1177 H   0  0  0  0  0  0  0  0  0  0  0  0
  132.8884  122.4495   63.5621 H   0  0  0  0  0  0  0  0  0  0  0  0
  134.0660  123.8059   63.5621 H   0  0  0  0  0  0  0  0  0  0  0  0
  130.4360  124.5673   67.4917 H   0  0  0  0  0  0  0  0  0  0  0  0
  129.1242  125.5243   69.3819 H   0  0  0  0  0  0  0  0  0  0  0  0
  127.7916  127.6000   69.0542 H   0  0  0  0  0  0  0  0  0  0  0  0
  129.0610  127.7670   64.9253 H   0  0  0  0  0  0  0  0  0  0  0  0
  130.8799  124.6529   60.9058 H   0  0  0  0  0  0  0  0  0  0  0  0
  134.5469  123.2481   59.7747 H   0  0  0  0  0  0  0  0  0  0  0  0
  131.8802  126.3857   58.7377 H   0  0  0  0  0  0  0  0  0  0  0  0
  1  2  1  0
  2  3  2  0
  3  4  1  0
  4  5  1  0
  5  6  2  0
  6  7  1  0
  7  8  2  0
  8  9  1  0
  9 10  1  0
 10 11  1  0
 10 12  1  0
 10 13  1  0
  9 14  2  0
  4 15  1  0
 15 16  1  0
 15 17  2  0
 17 18  1  0
 18 19  2  0
 19 20  1  0
 20 21  1  0
 21 22  2  0
 22 23  1  0
 23 24  2  0
 17  2  1  0
 24 20  1  0
 14  5  1  0
  1 25  1  0
  1 26  1  0
  1 27  1  0
  6 28  1  0
  7 29  1  0
  8 30  1  0
 14 31  1  0
 18 32  1  0
 21 33  1  0
 24 34  1  0
M  END
>  <Binding energies>  (1) 
[-5.99]

>  <Ligand effiencies>  (1) 
[-0.24958333333333335]

>  <Interactions>  (1) 
["V-A:ILE:369:CG2:3237, V-A:ASP:366:CA:3210, V-A:GLU:543:CA:4904, V-A:GLY:454:CA:4049, V-B:GLU:543:C:9874, V-A:ILE:369:CB:3236, V-B:GLU:543:CB:9878, V-B:TYR:539:CE2:9848, V-B:GLU:543:CG:9879, V-A:ASP:366:CG:3213, V-B:TYR:484:CE2:9317, H-A:ASN:370:N:3244, H-B:TYR:539:OH:9850, V-A:GLU:543:CD:4908, V-B:HIS:456:CE1:9041, V-B:GLU:543:CA:9876, V-A:HIS:456:CE1:4070, V-A:ILE:369:CD1:3239, V-B:TYR:484:CZ:9318, V-A:GLU:543:CG:4907, V-B:GLU:543:CD:9880, V-A:ASP:366:CB:3212, V-A:LEU:475:CD2:4259, V-A:GLU:543:CB:4906, H-A:TYR:484:OH:4348"]

$$$$
ZINC32635165
     RDKit          3D

 51 53  0  0  0  0  0  0  0  0999 V2000
  131.9790  123.6690   61.6490 C   0  0  0  0  0  0  0  0  0  0  0  0
  133.5090  123.6130   61.8390 C   0  0  0  0  0  0  0  0  0  0  0  0
  134.1950  124.3040   60.6370 C   0  0  0  0  0  0  0  0  0  0  0  0
  133.9540  122.1340   61.9570 C   0  0  0  0  0  0  0  0  0  0  0  0
  133.7400  124.3350   63.0630 O   0  0  0  0  0  0  0  0  0  0  0  0
  133.0950  124.1200   64.2410 C   0  0  0  0  0  0  0  0  0  0  0  0
  132.6680  123.0330   64.6330 O   0  0  0  0  0  0  0  0  0  0  0  0
  133.0020  125.3250   64.9200 N   0  0  0  0  0  0  0  0  0  0  0  0
  132.3920  125.4550   66.2510 C   0  0  0  0  0  0  0  0  0  0  0  0
  130.9010  125.0410   66.2720 C   0  0  0  0  0  0  0  0  0  0  0  0
  130.4600  124.3540   67.1930 O   0  0  0  0  0  0  0  0  0  0  0  0
  130.1650  125.2530   65.1180 N   0  0  0  0  0  0  0  0  0  0  0  0
  129.4450  126.3020   64.9520 C   0  0  0  0  0  0  0  0  0  0  0  0
  128.7930  126.6290   63.2880 S   0  0  0  0  0  0  0  0  0  0  0  0
  128.5460  128.3570   63.6670 C   0  0  1  0  0  0  0  0  0  0  0  0
  127.5150  129.1980   62.9140 C   0  0  0  0  0  0  0  0  0  0  0  0
  127.2140  130.6250   64.1080 S   0  0  0  0  0  0  0  0  0  0  0  0
  128.0440  131.7760   63.7400 O   0  0  0  0  0  0  0  0  0  0  0  0
  125.7690  130.7840   64.3100 O   0  0  0  0  0  0  0  0  0  0  0  0
  127.9930  129.7580   65.5930 C   0  0  0  0  0  0  0  0  0  0  0  0
  128.1480  128.2990   65.1260 C   0  0  2  0  0  0  0  0  0  0  0  0
  129.0550  127.3720   65.7960 N   0  0  0  0  0  0  0  0  0  0  0  0
  128.8670  127.2750   67.1930 C   0  0  0  0  0  0  0  0  0  0  0  0
  127.5920  127.0740   67.7450 C   0  0  0  0  0  0  0  0  0  0  0  0
  127.4290  126.9940   69.1250 C   0  0  0  0  0  0  0  0  0  0  0  0
  128.5360  127.1210   69.9600 C   0  0  0  0  0  0  0  0  0  0  0  0
  128.3130  127.0110   71.8470 Br  0  0  0  0  0  0  0  0  0  0  0  0
  129.8050  127.3320   69.4250 C   0  0  0  0  0  0  0  0  0  0  0  0
  129.9670  127.4130   68.0450 C   0  0  0  0  0  0  0  0  0  0  0  0
  131.4877  123.6870   62.6330 H   0  0  0  0  0  0  0  0  0  0  0  0
  131.7120  124.5775   61.0892 H   0  0  0  0  0  0  0  0  0  0  0  0
  131.6463  122.7824   61.0892 H   0  0  0  0  0  0  0  0  0  0  0  0
  134.9254  125.0397   61.0049 H   0  0  0  0  0  0  0  0  0  0  0  0
  134.7111  123.5491   60.0257 H   0  0  0  0  0  0  0  0  0  0  0  0
  133.4363  124.8146   60.0257 H   0  0  0  0  0  0  0  0  0  0  0  0
  134.0366  121.8596   63.0190 H   0  0  0  0  0  0  0  0  0  0  0  0
  133.2107  121.4873   61.4679 H   0  0  0  0  0  0  0  0  0  0  0  0
  134.9308  122.0048   61.4679 H   0  0  0  0  0  0  0  0  0  0  0  0
  133.4090  126.1480   64.4990 H   0  0  0  0  0  0  0  0  0  0  0  0
  132.9442  124.8146   66.9545 H   0  0  0  0  0  0  0  0  0  0  0  0
  132.4445  126.5160   66.5365 H   0  0  0  0  0  0  0  0  0  0  0  0
  129.4657  128.8814   63.3685 H   0  0  0  0  0  0  0  0  0  0  0  0
  127.9176  129.5582   61.9558 H   0  0  0  0  0  0  0  0  0  0  0  0
  126.6021  128.6440   62.6498 H   0  0  0  0  0  0  0  0  0  0  0  0
  128.9716  130.1982   65.8349 H   0  0  0  0  0  0  0  0  0  0  0  0
  127.3867  129.8505   66.5061 H   0  0  0  0  0  0  0  0  0  0  0  0
  127.1706  127.8614   65.3776 H   0  0  0  0  0  0  0  0  0  0  0  0
  126.7179  126.9793   67.0840 H   0  0  0  0  0  0  0  0  0  0  0  0
  126.4294  126.8311   69.5543 H   0  0  0  0  0  0  0  0  0  0  0  0
  130.6750  127.4341   70.0903 H   0  0  0  0  0  0  0  0  0  0  0  0
  130.9673  127.5868   67.6217 H   0  0  0  0  0  0  0  0  0  0  0  0
  1  2  1  0
  2  3  1  0
  2  4  1  0
  2  5  1  0
  5  6  1  0
  6  7  2  0
  6  8  1  0
  8  9  1  0
  9 10  1  0
 10 11  2  0
 10 12  1  0
 12 13  2  0
 13 14  1  0
 14 15  1  0
 15 16  1  0
 16 17  1  0
 17 18  2  0
 17 19  2  0
 17 20  1  0
 20 21  1  0
 21 22  1  0
 22 23  1  0
 23 24  2  0
 24 25  1  0
 25 26  2  0
 26 27  1  0
 26 28  1  0
 28 29  2  0
 22 13  1  0
 29 23  1  0
 21 15  1  0
  1 30  1  0
  1 31  1  0
  1 32  1  0
  3 33  1  0
  3 34  1  0
  3 35  1  0
  4 36  1  0
  4 37  1  0
  4 38  1  0
  8 39  1  0
  9 40  1  0
  9 41  1  0
 15 42  1  1
 16 43  1  0
 16 44  1  0
 20 45  1  0
 20 46  1  0
 21 47  1  6
 24 48  1  0
 25 49  1  0
 28 50  1  0
 29 51  1  0
M  END
>  <Binding energies>  (1) 
[-6.79]

>  <Ligand effiencies>  (1) 
[-0.22633333333333333]

>  <Interactions>  (1) 
["V-A:ILE:369:CG2:3237, V-A:ASP:366:CA:3210, V-A:GLY:454:CA:4049, V-B:GLU:543:C:9874, H-A:GLU:543:OE2:4910, V-B:GLU:543:CB:9878, V-A:TYR:484:CE2:4346, V-B:GLU:543:CG:9879, V-A:ASP:366:CG:3213, V-A:TYR:484:CZ:4347, V-A:GLU:543:CD:4908, H-B:TYR:484:OH:9319, V-A:ARG:545:CG:4922, H-A:GLY:454:N:4050, V-B:HIS:456:CE1:9041, V-A:HIS:456:CE1:4070, V-A:ILE:369:CD1:3239, V-B:TYR:484:CZ:9318, V-A:GLU:543:CG:4907, V-B:GLU:543:CD:9880, V-A:ARG:545:CD:4923, V-A:LEU:475:CD2:4259, H-A:ARG:545:NH2:4928, V-A:ARG:545:CZ:4926, V-A:GLU:543:CB:4906, H-A:TYR:484:OH:4348"]

$$$$
ZINC32837539-again1
     RDKit          3D

 34 36  0  0  0  0  0  0  0  0999 V2000
  129.5620  124.5390   63.7460 C   0  0  0  0  0  0  0  0  0  0  0  0
  130.6970  125.0640   64.6420 C   0  0  1  0  0  0  0  0  0  0  0  0
  131.5620  125.9730   63.8880 N   0  0  0  0  0  0  0  0  0  0  0  0
  131.8750  125.8220   62.5200 C   0  0  0  0  0  0  0  0  0  0  0  0
  131.2120  126.5690   61.5310 C   0  0  0  0  0  0  0  0  0  0  0  0
  131.5120  126.3910   60.1840 C   0  0  0  0  0  0  0  0  0  0  0  0
  130.8180  127.1600   59.2290 N   0  0  0  0  0  0  0  0  0  0  0  0
  131.0840  127.0050   57.9810 C   0  0  0  0  0  0  0  0  0  0  0  0
  132.0290  126.1080   57.5520 N   0  0  0  0  0  0  0  0  0  0  0  0
  132.7910  125.2890   58.3300 C   0  0  0  0  0  0  0  0  0  0  0  0
  133.6180  124.5180   57.8470 O   0  0  0  0  0  0  0  0  0  0  0  0
  132.4900  125.4610   59.8070 C   0  0  0  0  0  0  0  0  0  0  0  0
  133.1660  124.7180   60.7740 C   0  0  0  0  0  0  0  0  0  0  0  0
  132.8740  124.8980   62.1330 C   0  0  0  0  0  0  0  0  0  0  0  0
  133.6270  124.0950   63.1210 N   0  0  0  0  0  0  0  0  0  0  0  0
  133.9070  122.9390   62.8220 O   0  0  0  0  0  0  0  0  0  0  0  0
  133.9590  124.6270   64.1760 O   0  0  0  0  0  0  0  0  0  0  0  0
  130.1200  125.6740   65.9110 C   0  0  0  0  0  0  0  0  0  0  0  0
  130.4220  125.5740   67.2660 C   0  0  0  0  0  0  0  0  0  0  0  0
  129.5370  126.4110   67.9460 C   0  0  0  0  0  0  0  0  0  0  0  0
  128.7420  127.0000   66.9790 C   0  0  0  0  0  0  0  0  0  0  0  0
  129.1020  126.5620   65.7460 O   0  0  0  0  0  0  0  0  0  0  0  0
  128.7433  124.1603   64.3755 H   0  0  0  0  0  0  0  0  0  0  0  0
  129.1885  125.3558   63.1109 H   0  0  0  0  0  0  0  0  0  0  0  0
  129.9426  123.7255   63.1109 H   0  0  0  0  0  0  0  0  0  0  0  0
  131.3402  124.2319   64.9642 H   0  0  0  0  0  0  0  0  0  0  0  0
  131.6660  126.9060   64.2610 H   0  0  0  0  0  0  0  0  0  0  0  0
  130.4472  127.3028   61.8253 H   0  0  0  0  0  0  0  0  0  0  0  0
  130.5400  127.6069   57.2382 H   0  0  0  0  0  0  0  0  0  0  0  0
  132.1930  126.0290   56.5600 H   0  0  0  0  0  0  0  0  0  0  0  0
  133.9308  123.9884   60.4694 H   0  0  0  0  0  0  0  0  0  0  0  0
  131.2100  124.9522   67.7159 H   0  0  0  0  0  0  0  0  0  0  0  0
  129.4823  126.5706   69.0330 H   0  0  0  0  0  0  0  0  0  0  0  0
  127.9347  127.7195   67.1805 H   0  0  0  0  0  0  0  0  0  0  0  0
  1  2  1  0
  2  3  1  0
  3  4  1  0
  4  5  2  0
  5  6  1  0
  6  7  1  0
  7  8  2  0
  8  9  1  0
  9 10  1  0
 10 11  2  0
 10 12  1  0
 12 13  1  0
 13 14  2  0
 14 15  1  0
 15 16  2  0
 15 17  1  0
  2 18  1  0
 18 19  2  0
 19 20  1  0
 20 21  2  0
 21 22  1  0
 14  4  1  0
 22 18  1  0
 12  6  2  0
  1 23  1  0
  1 24  1  0
  1 25  1  0
  2 26  1  1
  3 27  1  0
  5 28  1  0
  8 29  1  0
  9 30  1  0
 13 31  1  0
 19 32  1  0
 20 33  1  0
 21 34  1  0
M  CHG  2  15   1  17  -1
M  END
>  <Binding energies>  (1) 
[-6.39]

>  <Ligand effiencies>  (1) 
[-0.26625]

>  <Interactions>  (1) 
["V-A:ASP:366:CA:3210, V-A:GLY:454:CA:4049, H-A:GLU:543:OE2:4910, V-B:GLU:543:CB:9878, H-A:TYR:531:OH:4795, V-B:TYR:539:CE2:9848, V-B:GLU:543:CG:9879, V-A:ASP:366:CG:3213, H-B:TYR:539:OH:9850, V-A:GLU:543:CD:4908, H-A:GLY:454:N:4050, V-A:HIS:456:CE1:4070, V-A:TYR:531:CZ:4794, V-B:GLU:543:CD:9880, V-A:ASP:366:CB:3212, H-A:ARG:545:NH2:4928, V-A:ARG:545:CZ:4926, H-A:GLU:543:OE1:4909, H-A:ASP:366:O:3209, H-A:ARG:545:NE:4924, H-A:TYR:484:OH:4348"]

$$$$
ZINC328609589
     RDKit          3D

 55 58  0  0  0  0  0  0  0  0999 V2000
  125.3740  123.6860   61.1450 C   0  0  0  0  0  0  0  0  0  0  0  0
  126.8760  123.8780   60.8530 C   0  0  0  0  0  0  0  0  0  0  0  0
  127.2500  123.2600   59.4890 C   0  0  0  0  0  0  0  0  0  0  0  0
  127.7370  123.3790   62.0170 C   0  0  0  0  0  0  0  0  0  0  0  0
  127.2330  122.8470   63.1130 N   0  0  0  0  0  0  0  0  0  0  0  0
  128.3570  122.5870   63.8930 O   0  0  0  0  0  0  0  0  0  0  0  0
  129.4030  122.9950   63.1360 C   0  0  0  0  0  0  0  0  0  0  0  0
  130.8060  122.9140   63.7320 C   0  0  2  0  0  0  0  0  0  0  0  0
  130.8540  123.5600   65.0530 N   0  0  0  0  0  0  0  0  0  0  0  0
  130.4800  124.8200   65.3380 C   0  0  0  0  0  0  0  0  0  0  0  0
  130.0560  125.6050   64.4880 O   0  0  0  0  0  0  0  0  0  0  0  0
  130.6520  125.2350   66.8130 C   0  0  2  0  0  0  0  0  0  0  0  0
  129.5100  124.9090   67.7630 C   0  0  0  0  0  0  0  0  0  0  0  0
  129.7770  126.3520   67.3850 C   0  0  0  0  0  0  0  0  0  0  0  0
  130.4640  127.2860   68.4030 C   0  0  0  0  0  0  0  0  0  0  0  0
  129.4300  128.1700   69.1270 C   0  0  0  0  0  0  0  0  0  0  0  0
  128.6390  128.8770   68.1730 O   0  0  0  0  0  0  0  0  0  0  0  0
  127.8620  128.0290   67.3290 C   0  0  0  0  0  0  0  0  0  0  0  0
  128.7800  127.1260   66.4840 C   0  0  0  0  0  0  0  0  0  0  0  0
  131.8800  123.4970   62.7680 C   0  0  0  0  0  0  0  0  0  0  0  0
  133.0650  124.1890   63.4920 C   0  0  0  0  0  0  0  0  0  0  0  0
  134.1070  124.7170   62.4860 C   0  0  0  0  0  0  0  0  0  0  0  0
  134.5620  123.6520   61.6540 O   0  0  0  0  0  0  0  0  0  0  0  0
  133.5320  123.0460   60.8720 C   0  0  0  0  0  0  0  0  0  0  0  0
  132.4610  122.4370   61.8000 C   0  0  0  0  0  0  0  0  0  0  0  0
  129.0520  123.4780   61.9740 N   0  0  0  0  0  0  0  0  0  0  0  0
  125.2117  123.6652   62.2328 H   0  0  0  0  0  0  0  0  0  0  0  0
  124.8056  124.5188   60.7053 H   0  0  0  0  0  0  0  0  0  0  0  0
  125.0334  122.7370   60.7053 H   0  0  0  0  0  0  0  0  0  0  0  0
  127.0903  124.9537   60.7699 H   0  0  0  0  0  0  0  0  0  0  0  0
  127.8134  122.3291   59.6503 H   0  0  0  0  0  0  0  0  0  0  0  0
  126.3332  123.0402   58.9223 H   0  0  0  0  0  0  0  0  0  0  0  0
  127.8700  123.9702   58.9223 H   0  0  0  0  0  0  0  0  0  0  0  0
  131.0473  121.8496   63.8694 H   0  0  0  0  0  0  0  0  0  0  0  0
  130.9810  122.9350   65.8350 H   0  0  0  0  0  0  0  0  0  0  0  0
  131.7356  125.0487   66.7813 H   0  0  0  0  0  0  0  0  0  0  0  0
  128.6106  124.4004   67.3855 H   0  0  0  0  0  0  0  0  0  0  0  0
  129.4246  124.3598   68.7123 H   0  0  0  0  0  0  0  0  0  0  0  0
  130.9993  126.6766   69.1460 H   0  0  0  0  0  0  0  0  0  0  0  0
  131.1653  127.9384   67.8622 H   0  0  0  0  0  0  0  0  0  0  0  0
  128.7763  127.5355   69.7435 H   0  0  0  0  0  0  0  0  0  0  0  0
  129.9578  128.8936   69.7656 H   0  0  0  0  0  0  0  0  0  0  0  0
  127.2075  127.4003   67.9506 H   0  0  0  0  0  0  0  0  0  0  0  0
  127.2572  128.6535   66.6551 H   0  0  0  0  0  0  0  0  0  0  0  0
  128.1629  126.4050   65.9277 H   0  0  0  0  0  0  0  0  0  0  0  0
  129.3523  127.7585   65.7895 H   0  0  0  0  0  0  0  0  0  0  0  0
  131.3243  124.2558   62.1975 H   0  0  0  0  0  0  0  0  0  0  0  0
  132.6796  125.0322   64.0840 H   0  0  0  0  0  0  0  0  0  0  0  0
  133.5546  123.4482   64.1412 H   0  0  0  0  0  0  0  0  0  0  0  0
  133.6479  125.4973   61.8612 H   0  0  0  0  0  0  0  0  0  0  0  0
  134.9617  125.1365   63.0368 H   0  0  0  0  0  0  0  0  0  0  0  0
  133.0671  123.8069   60.2279 H   0  0  0  0  0  0  0  0  0  0  0  0
  133.9686  122.2505   60.2503 H   0  0  0  0  0  0  0  0  0  0  0  0
  131.6452  122.0292   61.1850 H   0  0  0  0  0  0  0  0  0  0  0  0
  132.9334  121.6446   62.3990 H   0  0  0  0  0  0  0  0  0  0  0  0
  1  2  1  0
  2  3  1  0
  2  4  1  0
  4  5  2  0
  5  6  1  0
  6  7  1  0
  7  8  1  0
  8  9  1  0
  9 10  1  0
 10 11  2  0
 10 12  1  0
 12 13  1  0
 13 14  1  0
 14 15  1  0
 15 16  1  0
 16 17  1  0
 17 18  1  0
 18 19  1  0
  8 20  1  0
 20 21  1  0
 21 22  1  0
 22 23  1  0
 23 24  1  0
 24 25  1  0
  7 26  2  0
 26  4  1  0
 14 12  1  0
 25 20  1  0
 19 14  1  0
  1 27  1  0
  1 28  1  0
  1 29  1  0
  2 30  1  0
  3 31  1  0
  3 32  1  0
  3 33  1  0
  8 34  1  1
  9 35  1  0
 12 36  1  1
 13 37  1  0
 13 38  1  0
 15 39  1  0
 15 40  1  0
 16 41  1  0
 16 42  1  0
 18 43  1  0
 18 44  1  0
 19 45  1  0
 19 46  1  0
 20 47  1  0
 21 48  1  0
 21 49  1  0
 22 50  1  0
 22 51  1  0
 24 52  1  0
 24 53  1  0
 25 54  1  0
 25 55  1  0
M  END
>  <Binding energies>  (1) 
[-7.73]

>  <Ligand effiencies>  (1) 
[-0.2862962962962963]

>  <Interactions>  (1) 
["V-A:ILE:369:CG2:3237, V-B:PRO:540:CA:9855, V-B:GLU:543:C:9874, V-B:GLU:543:CB:9878, V-B:ALA:541:CB:9864, V-A:TYR:484:CE2:4346, V-B:GLU:543:CG:9879, V-A:ASP:366:CG:3213, H-B:ALA:541:N:9863, V-A:TYR:484:CZ:4347, V-B:PRO:540:CB:9857, V-A:GLU:543:CD:4908, V-B:HIS:456:CE1:9041, V-B:GLU:543:CA:9876, H-A:GLY:454:N:4050, V-B:PRO:540:N:9856, V-A:HIS:456:CE1:4070, V-A:ILE:369:CD1:3239, V-B:GLU:543:CD:9880, V-A:LEU:475:CD2:4259, V-A:ARG:545:CZ:4926, V-A:GLU:543:CB:4906, H-A:TYR:484:OH:4348"]

$$$$
ZINC328615143
     RDKit          3D

 52 54  0  0  0  0  0  0  0  0999 V2000
  132.2790  131.6570   56.4510 C   0  0  0  0  0  0  0  0  0  0  0  0
  131.0650  132.1650   57.1960 C   0  0  0  0  0  0  0  0  0  0  0  0
  130.5720  133.3400   56.8730 N   0  0  0  0  0  0  0  0  0  0  0  0
  129.4900  133.5540   57.7200 O   0  0  0  0  0  0  0  0  0  0  0  0
  129.3640  132.4800   58.5340 C   0  0  0  0  0  0  0  0  0  0  0  0
  128.2350  132.5370   59.5360 C   0  0  0  0  0  0  0  0  0  0  0  0
  130.3440  131.5490   58.2320 C   0  0  0  0  0  0  0  0  0  0  0  0
  130.5960  130.2040   58.8990 C   0  0  0  0  0  0  0  0  0  0  0  0
  130.4430  128.9870   57.9700 C   0  0  0  0  0  0  0  0  0  0  0  0
  130.2040  129.1280   56.7690 O   0  0  0  0  0  0  0  0  0  0  0  0
  130.5980  127.7850   58.5530 N   0  0  0  0  0  0  0  0  0  0  0  0
  130.5900  126.4930   57.8580 C   0  0  1  0  0  0  0  0  0  0  0  0
  131.7540  125.6510   58.3670 C   0  0  0  0  0  0  0  0  0  0  0  0
  131.9980  125.2580   59.5890 N   0  0  0  0  0  0  0  0  0  0  0  0
  133.1540  124.6330   59.4590 C   0  0  0  0  0  0  0  0  0  0  0  0
  133.8310  123.9780   60.6660 C   0  0  0  0  0  0  0  0  0  0  0  0
  133.4280  122.5030   60.8850 C   0  0  0  0  0  0  0  0  0  0  0  0
  133.6140  124.8020   61.9500 C   0  0  0  0  0  0  0  0  0  0  0  0
  133.6670  124.6190   58.2450 N   0  0  0  0  0  0  0  0  0  0  0  0
  132.7320  125.3200   57.4890 O   0  0  0  0  0  0  0  0  0  0  0  0
  129.2130  125.7760   57.9950 C   0  0  0  0  0  0  0  0  0  0  0  0
  128.5600  125.4260   56.6320 C   0  0  0  0  0  0  0  0  0  0  0  0
  127.2150  124.6980   56.8250 C   0  0  0  0  0  0  0  0  0  0  0  0
  127.4070  123.5280   57.6190 O   0  0  0  0  0  0  0  0  0  0  0  0
  127.9100  123.7890   58.9290 C   0  0  0  0  0  0  0  0  0  0  0  0
  129.2870  124.4750   58.8330 C   0  0  0  0  0  0  0  0  0  0  0  0
  133.0447  131.3366   57.1729 H   0  0  0  0  0  0  0  0  0  0  0  0
  131.9910  130.8039   55.8191 H   0  0  0  0  0  0  0  0  0  0  0  0
  132.6844  132.4610   55.8191 H   0  0  0  0  0  0  0  0  0  0  0  0
  128.6480  132.5161   60.5553 H   0  0  0  0  0  0  0  0  0  0  0  0
  127.6627  133.4652   59.3912 H   0  0  0  0  0  0  0  0  0  0  0  0
  127.5721  131.6712   59.3912 H   0  0  0  0  0  0  0  0  0  0  0  0
  131.6219  130.2052   59.2959 H   0  0  0  0  0  0  0  0  0  0  0  0
  129.8296  130.0964   59.6807 H   0  0  0  0  0  0  0  0  0  0  0  0
  130.9690  127.7730   59.4920 H   0  0  0  0  0  0  0  0  0  0  0  0
  130.7279  126.6519   56.7783 H   0  0  0  0  0  0  0  0  0  0  0  0
  134.9050  123.9683   60.4284 H   0  0  0  0  0  0  0  0  0  0  0  0
  133.3711  122.2947   61.9636 H   0  0  0  0  0  0  0  0  0  0  0  0
  132.4466  122.3187   60.4237 H   0  0  0  0  0  0  0  0  0  0  0  0
  134.1793  121.8452   60.4237 H   0  0  0  0  0  0  0  0  0  0  0  0
  133.7824  124.1624   62.8290 H   0  0  0  0  0  0  0  0  0  0  0  0
  134.3209  125.6446   61.9688 H   0  0  0  0  0  0  0  0  0  0  0  0
  132.5838  125.1872   61.9688 H   0  0  0  0  0  0  0  0  0  0  0  0
  128.5884  126.5167   58.5158 H   0  0  0  0  0  0  0  0  0  0  0  0
  128.3869  126.3548   56.0687 H   0  0  0  0  0  0  0  0  0  0  0  0
  129.2401  124.7583   56.0828 H   0  0  0  0  0  0  0  0  0  0  0  0
  126.5056  125.3698   57.3305 H   0  0  0  0  0  0  0  0  0  0  0  0
  126.8154  124.4078   55.8421 H   0  0  0  0  0  0  0  0  0  0  0  0
  127.2104  124.4479   59.4641 H   0  0  0  0  0  0  0  0  0  0  0  0
  128.0149  122.8390   59.4735 H   0  0  0  0  0  0  0  0  0  0  0  0
  129.6355  124.7216   59.8468 H   0  0  0  0  0  0  0  0  0  0  0  0
  129.9846  123.7834   58.3380 H   0  0  0  0  0  0  0  0  0  0  0  0
  1  2  1  0
  2  3  2  0
  3  4  1  0
  4  5  1  0
  5  6  1  0
  5  7  2  0
  7  8  1  0
  8  9  1  0
  9 10  2  0
  9 11  1  0
 11 12  1  0
 12 13  1  0
 13 14  2  0
 14 15  1  0
 15 16  1  0
 16 17  1  0
 16 18  1  0
 15 19  2  0
 19 20  1  0
 12 21  1  0
 21 22  1  0
 22 23  1  0
 23 24  1  0
 24 25  1  0
 25 26  1  0
  7  2  1  0
 20 13  1  0
 26 21  1  0
  1 27  1  0
  1 28  1  0
  1 29  1  0
  6 30  1  0
  6 31  1  0
  6 32  1  0
  8 33  1  0
  8 34  1  0
 11 35  1  0
 12 36  1  6
 16 37  1  0
 17 38  1  0
 17 39  1  0
 17 40  1  0
 18 41  1  0
 18 42  1  0
 18 43  1  0
 21 44  1  0
 22 45  1  0
 22 46  1  0
 23 47  1  0
 23 48  1  0
 25 49  1  0
 25 50  1  0
 26 51  1  0
 26 52  1  0
M  END
>  <Binding energies>  (1) 
[-7.54]

>  <Ligand effiencies>  (1) 
[-0.27925925925925926]

>  <Interactions>  (1) 
["V-A:ILE:369:CG2:3237, V-A:ASP:366:CA:3210, H-A:TYR:531:OH:4795, V-B:TYR:539:CE2:9848, V-A:ASP:366:CG:3213, V-A:LEU:363:CD1:3189, V-A:TYR:539:CD1:4873, V-B:TYR:539:CZ:9849, V-A:TYR:531:CE2:4793, H-B:TYR:539:OH:9850, V-A:ILE:369:CD1:3239, V-A:TYR:531:CZ:4794, V-A:TYR:539:C:4867, V-A:ASP:366:CB:3212, V-A:PRO:540:N:4884, H-A:TYR:539:N:4870, V-A:PRO:540:CA:4883, H-A:ASP:366:OD2:3215, V-A:TYR:539:CE1:4875"]

$$$$
ZINC329790459
     RDKit          3D

 52 56  0  0  0  0  0  0  0  0999 V2000
  130.6580  128.4610   59.5720 O   0  0  0  0  0  0  0  0  0  0  0  0
  130.4200  128.6990   60.7570 C   0  0  0  0  0  0  0  0  0  0  0  0
  130.7720  127.9150   61.8000 N   0  0  0  0  0  0  0  0  0  0  0  0
  131.5180  126.7480   61.7370 C   0  0  0  0  0  0  0  0  0  0  0  0
  132.1340  126.2380   60.7020 N   0  0  0  0  0  0  0  0  0  0  0  0
  132.7530  125.1050   60.9800 C   0  0  0  0  0  0  0  0  0  0  0  0
  132.6870  124.6800   62.3220 C   0  0  0  0  0  0  0  0  0  0  0  0
  131.6860  125.8300   63.1810 S   0  0  0  0  0  0  0  0  0  0  0  0
  133.3340  123.4780   62.9940 C   0  0  0  0  0  0  0  0  0  0  0  0
  133.1300  122.1060   62.3140 C   0  0  0  0  0  0  0  0  0  0  0  0
  133.7970  121.9780   60.9250 C   0  0  0  0  0  0  0  0  0  0  0  0
  133.1930  122.8560   59.8000 C   0  0  0  0  0  0  0  0  0  0  0  0
  133.4800  124.3710   59.8690 C   0  0  0  0  0  0  0  0  0  0  0  0
  129.8030  129.8270   61.1480 N   0  0  0  0  0  0  0  0  0  0  0  0
  128.6800  130.0620   62.0900 C   0  0  0  0  0  0  0  0  0  0  0  0
  128.7360  131.5410   61.6460 C   0  0  0  0  0  0  0  0  0  0  0  0
  127.4470  132.1770   61.0990 C   0  0  0  0  0  0  0  0  0  0  0  0
  127.2220  132.7850   62.4900 C   0  0  0  0  0  0  0  0  0  0  0  0
  128.7350  132.6510   62.7130 C   0  0  0  0  0  0  0  0  0  0  0  0
  129.9260  131.2420   60.7050 C   0  0  1  0  0  0  0  0  0  0  0  0
  131.2770  131.9380   61.0200 C   0  0  2  0  0  0  0  0  0  0  0  0
  132.5060  131.3170   60.3520 C   0  0  0  0  0  0  0  0  0  0  0  0
  133.6090  131.6480   61.3270 C   0  0  0  0  0  0  0  0  0  0  0  0
  132.9040  131.4470   62.6640 C   0  0  0  0  0  0  0  0  0  0  0  0
  131.5600  131.8660   62.4250 O   0  0  0  0  0  0  0  0  0  0  0  0
  130.5030  128.2200   62.7230 H   0  0  0  0  0  0  0  0  0  0  0  0
  134.4165  123.6672   63.0435 H   0  0  0  0  0  0  0  0  0  0  0  0
  132.8358  123.3918   63.9709 H   0  0  0  0  0  0  0  0  0  0  0  0
  133.5506  121.3302   62.9708 H   0  0  0  0  0  0  0  0  0  0  0  0
  132.0476  121.9914   62.1551 H   0  0  0  0  0  0  0  0  0  0  0  0
  134.8568  122.2517   61.0337 H   0  0  0  0  0  0  0  0  0  0  0  0
  133.6320  120.9369   60.6107 H   0  0  0  0  0  0  0  0  0  0  0  0
  133.5867  122.4861   58.8418 H   0  0  0  0  0  0  0  0  0  0  0  0
  132.1031  122.7641   59.9173 H   0  0  0  0  0  0  0  0  0  0  0  0
  134.5612  124.5083   60.0182 H   0  0  0  0  0  0  0  0  0  0  0  0
  133.1152  124.7992   58.9237 H   0  0  0  0  0  0  0  0  0  0  0  0
  127.7466  129.5384   61.8359 H   0  0  0  0  0  0  0  0  0  0  0  0
  128.7312  129.7657   63.1481 H   0  0  0  0  0  0  0  0  0  0  0  0
  127.6054  132.9143   60.2981 H   0  0  0  0  0  0  0  0  0  0  0  0
  126.6729  131.5721   60.6042 H   0  0  0  0  0  0  0  0  0  0  0  0
  126.8481  133.8195   62.4844 H   0  0  0  0  0  0  0  0  0  0  0  0
  126.4916  132.3637   63.1964 H   0  0  0  0  0  0  0  0  0  0  0  0
  129.3178  133.5443   62.4441 H   0  0  0  0  0  0  0  0  0  0  0  0
  129.1564  132.4857   63.7156 H   0  0  0  0  0  0  0  0  0  0  0  0
  129.9086  131.5374   59.6455 H   0  0  0  0  0  0  0  0  0  0  0  0
  131.1306  132.9586   60.6367 H   0  0  0  0  0  0  0  0  0  0  0  0
  132.3894  130.2292   60.2378 H   0  0  0  0  0  0  0  0  0  0  0  0
  132.6908  131.6948   59.3356 H   0  0  0  0  0  0  0  0  0  0  0  0
  134.4624  130.9629   61.2158 H   0  0  0  0  0  0  0  0  0  0  0  0
  134.0392  132.6515   61.1934 H   0  0  0  0  0  0  0  0  0  0  0  0
  132.9341  130.3893   62.9645 H   0  0  0  0  0  0  0  0  0  0  0  0
  133.3806  132.0131   63.4779 H   0  0  0  0  0  0  0  0  0  0  0  0
  1  2  2  0
  2  3  1  0
  3  4  1  0
  4  5  2  0
  5  6  1  0
  6  7  2  0
  7  8  1  0
  7  9  1  0
  9 10  1  0
 10 11  1  0
 11 12  1  0
 12 13  1  0
  2 14  1  0
 14 15  1  0
 15 16  1  0
 16 17  1  0
 17 18  1  0
 18 19  1  0
 16 20  1  0
 20 21  1  0
 21 22  1  0
 22 23  1  0
 23 24  1  0
 24 25  1  0
  8  4  1  0
 20 14  1  0
 25 21  1  0
 13  6  1  0
 19 16  1  0
  3 26  1  0
  9 27  1  0
  9 28  1  0
 10 29  1  0
 10 30  1  0
 11 31  1  0
 11 32  1  0
 12 33  1  0
 12 34  1  0
 13 35  1  0
 13 36  1  0
 15 37  1  0
 15 38  1  0
 17 39  1  0
 17 40  1  0
 18 41  1  0
 18 42  1  0
 19 43  1  0
 19 44  1  0
 20 45  1  6
 21 46  1  6
 22 47  1  0
 22 48  1  0
 23 49  1  0
 23 50  1  0
 24 51  1  0
 24 52  1  0
M  END
>  <Binding energies>  (1) 
[-5.43]

>  <Ligand effiencies>  (1) 
[-0.19392857142857142]

>  <Interactions>  (1) 
["V-A:ILE:369:CG2:3237, V-A:ASP:366:CA:3210, V-A:GLY:454:CA:4049, H-A:GLU:543:OE2:4910, V-A:ILE:369:CB:3236, H-A:ALA:541:N:4891, V-A:PRO:540:C:4881, V-B:TYR:539:CE2:9848, V-B:LEU:475:CD2:9230, V-A:ASP:366:CG:3213, V-A:ASN:362:CB:3176, V-A:ALA:541:CB:4892, V-A:GLU:543:CD:4908, V-A:ILE:369:CD1:3239, V-A:GLU:543:CG:4907, V-A:ASP:366:CB:3212, V-A:LEU:475:CD2:4259, H-A:ARG:545:NH2:4928, V-A:ARG:545:CZ:4926, H-A:GLU:543:OE1:4909, V-A:ASN:362:C:3172, V-A:PRO:540:CB:4885, V-A:PRO:540:CA:4883, V-A:LEU:363:CA:3185"]

$$$$
ZINC329870319
     RDKit          3D

 56 58  0  0  0  0  0  0  0  0999 V2000
  126.7000  126.8490   69.1920 C   0  0  0  0  0  0  0  0  0  0  0  0
  128.1140  127.1940   69.6040 C   0  0  0  0  0  0  0  0  0  0  0  0
  128.3710  127.4200   70.8710 N   0  0  0  0  0  0  0  0  0  0  0  0
  129.6760  127.6940   70.9240 N   0  0  0  0  0  0  0  0  0  0  0  0
  130.2600  128.0510   72.2100 C   0  0  0  0  0  0  0  0  0  0  0  0
  130.2750  127.6820   69.6880 C   0  0  0  0  0  0  0  0  0  0  0  0
  131.7370  128.0210   69.4780 C   0  0  0  0  0  0  0  0  0  0  0  0
  129.2620  127.3320   68.7990 C   0  0  0  0  0  0  0  0  0  0  0  0
  129.3650  127.1720   67.2920 C   0  0  0  0  0  0  0  0  0  0  0  0
  129.4750  125.6960   66.8320 C   0  0  2  0  0  0  0  0  0  0  0  0
  129.7880  124.7650   68.0150 C   0  0  0  0  0  0  0  0  0  0  0  0
  130.4760  125.5060   65.7760 N   0  0  0  0  0  0  0  0  0  0  0  0
  131.8140  125.4590   65.9470 C   0  0  0  0  0  0  0  0  0  0  0  0
  132.3600  125.6100   67.0400 O   0  0  0  0  0  0  0  0  0  0  0  0
  132.5760  125.1800   64.7420 C   0  0  0  0  0  0  0  0  0  0  0  0
  133.8230  124.7210   64.7250 N   0  0  0  0  0  0  0  0  0  0  0  0
  134.2420  124.5740   63.4210 N   0  0  0  0  0  0  0  0  0  0  0  0
  133.2150  124.9430   62.6550 N   0  0  0  0  0  0  0  0  0  0  0  0
  133.3620  124.9060   61.1980 C   0  0  0  0  0  0  0  0  0  0  0  0
  133.2900  123.4640   60.6340 C   0  0  0  0  0  0  0  0  0  0  0  0
  134.3600  122.5020   61.2060 C   0  0  0  0  0  0  0  0  0  0  0  0
  133.6000  121.3970   61.9450 C   0  0  0  0  0  0  0  0  0  0  0  0
  132.2550  121.3230   61.2280 C   0  0  0  0  0  0  0  0  0  0  0  0
  131.9330  122.7830   60.9070 C   0  0  0  0  0  0  0  0  0  0  0  0
  132.1360  125.3470   63.4150 C   0  0  0  0  0  0  0  0  0  0  0  0
  130.8440  125.8350   62.7820 C   0  0  0  0  0  0  0  0  0  0  0  0
  126.0828  126.6984   70.0900 H   0  0  0  0  0  0  0  0  0  0  0  0
  126.2816  127.6714   68.5932 H   0  0  0  0  0  0  0  0  0  0  0  0
  126.7073  125.9263   68.5932 H   0  0  0  0  0  0  0  0  0  0  0  0
  129.6259  127.6634   73.0209 H   0  0  0  0  0  0  0  0  0  0  0  0
  131.2660  127.6133   72.2900 H   0  0  0  0  0  0  0  0  0  0  0  0
  130.3291  129.1459   72.2900 H   0  0  0  0  0  0  0  0  0  0  0  0
  132.2307  128.1355   70.4543 H   0  0  0  0  0  0  0  0  0  0  0  0
  132.2236  127.2119   68.9136 H   0  0  0  0  0  0  0  0  0  0  0  0
  131.8179  128.9617   68.9136 H   0  0  0  0  0  0  0  0  0  0  0  0
  128.4681  127.6136   66.8331 H   0  0  0  0  0  0  0  0  0  0  0  0
  130.2887  127.6787   66.9757 H   0  0  0  0  0  0  0  0  0  0  0  0
  128.4919  125.4338   66.4139 H   0  0  0  0  0  0  0  0  0  0  0  0
  129.6084  125.2993   68.9596 H   0  0  0  0  0  0  0  0  0  0  0  0
  129.1385  123.8786   67.9659 H   0  0  0  0  0  0  0  0  0  0  0  0
  130.8411  124.4510   67.9659 H   0  0  0  0  0  0  0  0  0  0  0  0
  130.1190  125.4530   64.8340 H   0  0  0  0  0  0  0  0  0  0  0  0
  132.5560  125.5028   60.7462 H   0  0  0  0  0  0  0  0  0  0  0  0
  134.3529  125.3143   60.9501 H   0  0  0  0  0  0  0  0  0  0  0  0
  133.4580  123.6205   59.5582 H   0  0  0  0  0  0  0  0  0  0  0  0
  134.9588  122.0712   60.3901 H   0  0  0  0  0  0  0  0  0  0  0  0
  135.0500  123.0300   61.8806 H   0  0  0  0  0  0  0  0  0  0  0  0
  134.1350  120.4387   61.8705 H   0  0  0  0  0  0  0  0  0  0  0  0
  133.4933  121.6056   63.0198 H   0  0  0  0  0  0  0  0  0  0  0  0
  132.3342  120.7273   60.3067 H   0  0  0  0  0  0  0  0  0  0  0  0
  131.4755  120.8384   61.8342 H   0  0  0  0  0  0  0  0  0  0  0  0
  131.2874  122.8462   60.0186 H   0  0  0  0  0  0  0  0  0  0  0  0
  131.3956  123.2698   61.7342 H   0  0  0  0  0  0  0  0  0  0  0  0
  130.1279  126.1055   63.5720 H   0  0  0  0  0  0  0  0  0  0  0  0
  131.0516  126.7166   62.1578 H   0  0  0  0  0  0  0  0  0  0  0  0
  130.4169  125.0362   62.1578 H   0  0  0  0  0  0  0  0  0  0  0  0
  1  2  1  0
  2  3  2  0
  3  4  1  0
  4  5  1  0
  4  6  1  0
  6  7  1  0
  6  8  2  0
  8  9  1  0
  9 10  1  0
 10 11  1  0
 10 12  1  0
 12 13  1  0
 13 14  2  0
 13 15  1  0
 15 16  1  0
 16 17  2  0
 17 18  1  0
 18 19  1  0
 19 20  1  0
 20 21  1  0
 21 22  1  0
 22 23  1  0
 23 24  1  0
 18 25  1  0
 25 26  1  0
  8  2  1  0
 25 15  2  0
 24 20  1  0
  1 27  1  0
  1 28  1  0
  1 29  1  0
  5 30  1  0
  5 31  1  0
  5 32  1  0
  7 33  1  0
  7 34  1  0
  7 35  1  0
  9 36  1  0
  9 37  1  0
 10 38  1  6
 11 39  1  0
 11 40  1  0
 11 41  1  0
 12 42  1  0
 19 43  1  0
 19 44  1  0
 20 45  1  0
 21 46  1  0
 21 47  1  0
 22 48  1  0
 22 49  1  0
 23 50  1  0
 23 51  1  0
 24 52  1  0
 24 53  1  0
 26 54  1  0
 26 55  1  0
 26 56  1  0
M  END
>  <Binding energies>  (1) 
[-8.0]

>  <Ligand effiencies>  (1) 
[-0.2962962962962963]

>  <Interactions>  (1) 
["V-A:ILE:369:CG2:3237, V-A:ARG:545:CA:4919, V-A:GLU:543:CA:4904, V-B:GLU:543:C:9874, H-A:GLU:543:OE2:4910, V-A:GLU:543:C:4902, V-A:ILE:369:CB:3236, V-B:GLU:543:CB:9878, H-A:ARG:545:NH1:4927, V-A:TYR:484:CE2:4346, V-B:TYR:539:CE2:9848, V-B:GLU:543:CG:9879, V-A:GLY:544:C:4912, V-A:ASP:366:CG:3213, V-B:ARG:545:CG:9894, V-A:GLU:543:CD:4908, V-A:TYR:484:CZ:4347, V-B:HIS:456:CE1:9041, V-B:GLU:543:CA:9876, H-A:GLY:454:N:4050, V-A:ARG:545:CG:4922, V-A:HIS:456:CE1:4070, V-A:ILE:369:CD1:3239, V-B:GLY:544:C:9884, V-A:SER:385:CB:3409, V-B:GLU:543:CD:9880, V-A:ILE:369:CG1:3238, V-A:LEU:475:CD2:4259, H-A:ARG:545:NH2:4928, V-A:ARG:545:CZ:4926, V-A:GLU:543:CB:4906, H-A:ARG:545:NE:4924, H-A:HIS:456:ND1:4067, H-A:TYR:484:OH:4348"]

$$$$
ZINC329981054
     RDKit          3D

 35 38  0  0  0  0  0  0  0  0999 V2000
  129.1280  123.6050   75.8870 O   0  0  0  0  0  0  0  0  0  0  0  0
  130.0070  123.5680   75.0060 C   0  0  0  0  0  0  0  0  0  0  0  0
  130.2020  122.8220   73.9770 N   0  0  0  0  0  0  0  0  0  0  0  0
  129.4080  121.7820   73.5710 C   0  0  0  0  0  0  0  0  0  0  0  0
  128.9310  120.7540   74.2510 N   0  0  0  0  0  0  0  0  0  0  0  0
  128.2070  119.9430   73.5050 C   0  0  0  0  0  0  0  0  0  0  0  0
  128.0760  120.3070   72.1700 C   0  0  0  0  0  0  0  0  0  0  0  0
  128.9480  121.7810   71.8930 S   0  0  0  0  0  0  0  0  0  0  0  0
  127.2320  119.5300   71.1790 C   0  0  0  0  0  0  0  0  0  0  0  0
  126.8810  118.2540   71.7300 O   0  0  0  0  0  0  0  0  0  0  0  0
  126.4040  118.2870   73.0800 C   0  0  0  0  0  0  0  0  0  0  0  0
  127.5460  118.6870   74.0490 C   0  0  0  0  0  0  0  0  0  0  0  0
  130.9960  124.5710   75.2590 N   0  0  0  0  0  0  0  0  0  0  0  0
  131.0620  126.0490   75.1890 C   0  0  0  0  0  0  0  0  0  0  0  0
  132.4320  125.9170   75.8670 C   0  0  2  0  0  0  0  0  0  0  0  0
  133.8550  126.3310   75.5000 C   0  0  0  0  0  0  0  0  0  0  0  0
  134.6140  124.9890   75.7760 C   0  0  0  0  0  0  0  0  0  0  0  0
  133.5330  123.8660   75.8280 C   0  0  0  0  0  0  0  0  0  0  0  0
  132.4360  124.6060   75.0920 C   0  0  1  0  0  0  0  0  0  0  0  0
  126.3152  120.0963   70.9582 H   0  0  0  0  0  0  0  0  0  0  0  0
  127.8080  119.3784   70.2542 H   0  0  0  0  0  0  0  0  0  0  0  0
  125.5889  119.0215   73.1582 H   0  0  0  0  0  0  0  0  0  0  0  0
  126.0394  117.2858   73.3534 H   0  0  0  0  0  0  0  0  0  0  0  0
  127.1340  118.8856   75.0494 H   0  0  0  0  0  0  0  0  0  0  0  0
  128.2813  117.8728   74.1289 H   0  0  0  0  0  0  0  0  0  0  0  0
  131.0865  126.4645   74.1708 H   0  0  0  0  0  0  0  0  0  0  0  0
  130.2659  126.6947   75.5881 H   0  0  0  0  0  0  0  0  0  0  0  0
  132.3965  126.3452   76.8796 H   0  0  0  0  0  0  0  0  0  0  0  0
  133.9321  126.6332   74.4451 H   0  0  0  0  0  0  0  0  0  0  0  0
  134.2396  127.2007   76.0528 H   0  0  0  0  0  0  0  0  0  0  0  0
  135.3325  124.7866   74.9680 H   0  0  0  0  0  0  0  0  0  0  0  0
  135.1778  125.0398   76.7191 H   0  0  0  0  0  0  0  0  0  0  0  0
  133.8506  122.9554   75.2989 H   0  0  0  0  0  0  0  0  0  0  0  0
  133.2759  123.4854   76.8275 H   0  0  0  0  0  0  0  0  0  0  0  0
  132.6857  124.2856   74.0698 H   0  0  0  0  0  0  0  0  0  0  0  0
  1  2  1  0
  2  3  2  0
  3  4  1  0
  4  5  2  0
  5  6  1  0
  6  7  2  0
  7  8  1  0
  7  9  1  0
  9 10  1  0
 10 11  1  0
 11 12  1  0
  2 13  1  0
 13 14  1  0
 14 15  1  0
 15 16  1  0
 16 17  1  0
 17 18  1  0
 18 19  1  0
  8  4  1  0
 19 13  1  0
 12  6  1  0
 19 15  1  0
  9 20  1  0
  9 21  1  0
 11 22  1  0
 11 23  1  0
 12 24  1  0
 12 25  1  0
 14 26  1  0
 14 27  1  0
 15 28  1  1
 16 29  1  0
 16 30  1  0
 17 31  1  0
 17 32  1  0
 18 33  1  0
 18 34  1  0
 19 35  1  6
M  CHG  1   1  -1
M  END
>  <Binding energies>  (1) 
[-6.28]

>  <Ligand effiencies>  (1) 
[-0.3305263157894737]

>  <Interactions>  (1) 
["V-B:GLU:543:C:9874, H-B:LYS:547:NZ:9923, V-A:HIS:456:CD2:4068, V-A:VAL:457:C:4073, V-A:LYS:547:CG:4948, V-A:HIS:456:CB:4065, V-B:LYS:547:CE:9922, V-A:ASP:473:CG:4240, V-A:TYR:484:CA:4339, V-A:TYR:484:CD2:4344, V-A:HIS:456:CA:4063, V-A:TYR:484:CG:4342, H-A:TYR:484:N:4340, V-B:VAL:542:CG1:9871, V-A:HIS:456:C:4061, V-A:TYR:484:CB:4341, V-A:HIS:456:CG:4066, V-A:VAL:458:CG2:4087, H-A:SER:483:OG:4334"]

$$$$
ZINC330651811-again1
     RDKit          3D

 35 36  0  0  0  0  0  0  0  0999 V2000
  130.9410  127.3570   72.6670 C   0  0  0  0  0  0  0  0  0  0  0  0
  129.5340  127.9380   72.3830 C   0  0  0  0  0  0  0  0  0  0  0  0
  129.6060  129.4770   72.5730 C   0  0  0  0  0  0  0  0  0  0  0  0
  128.5350  127.3770   73.4240 C   0  0  0  0  0  0  0  0  0  0  0  0
  129.0830  127.5370   70.9600 C   0  0  0  0  0  0  0  0  0  0  0  0
  127.7980  127.4050   70.6630 N   0  0  0  0  0  0  0  0  0  0  0  0
  127.7150  126.9600   69.0110 S   0  0  0  0  0  0  0  0  0  0  0  0
  129.4330  127.0000   68.9020 C   0  0  0  0  0  0  0  0  0  0  0  0
  130.0280  126.7020   67.6850 N   0  0  0  0  0  0  0  0  0  0  0  0
  130.0370  125.4980   67.0750 C   0  0  0  0  0  0  0  0  0  0  0  0
  129.4960  124.4750   67.5020 O   0  0  0  0  0  0  0  0  0  0  0  0
  130.7250  125.5500   65.9220 N   0  0  0  0  0  0  0  0  0  0  0  0
  130.9900  124.4110   65.0420 C   0  0  0  0  0  0  0  0  0  0  0  0
  132.3060  124.5690   64.3100 C   0  0  0  0  0  0  0  0  0  0  0  0
  132.6140  124.1860   62.9960 C   0  0  0  0  0  0  0  0  0  0  0  0
  133.9370  124.5100   62.7560 C   0  0  0  0  0  0  0  0  0  0  0  0
  134.4790  125.0680   63.8620 O   0  0  0  0  0  0  0  0  0  0  0  0
  133.4970  125.0970   64.7990 C   0  0  0  0  0  0  0  0  0  0  0  0
  130.0050  127.3250   70.0330 N   0  0  0  0  0  0  0  0  0  0  0  0
  131.0984  127.2920   73.7537 H   0  0  0  0  0  0  0  0  0  0  0  0
  131.0193  126.3530   72.2245 H   0  0  0  0  0  0  0  0  0  0  0  0
  131.7049  128.0133   72.2245 H   0  0  0  0  0  0  0  0  0  0  0  0
  129.6171  129.7137   73.6472 H   0  0  0  0  0  0  0  0  0  0  0  0
  130.5231  129.8619   72.1032 H   0  0  0  0  0  0  0  0  0  0  0  0
  128.7288  129.9459   72.1032 H   0  0  0  0  0  0  0  0  0  0  0  0
  128.9065  127.5856   74.4381 H   0  0  0  0  0  0  0  0  0  0  0  0
  127.5546  127.8565   73.2868 H   0  0  0  0  0  0  0  0  0  0  0  0
  128.4341  126.2903   73.2868 H   0  0  0  0  0  0  0  0  0  0  0  0
  130.5030  127.4650   67.2250 H   0  0  0  0  0  0  0  0  0  0  0  0
  131.1300  126.4320   65.6410 H   0  0  0  0  0  0  0  0  0  0  0  0
  131.0255  123.4929   65.6468 H   0  0  0  0  0  0  0  0  0  0  0  0
  130.1842  124.3574   64.2951 H   0  0  0  0  0  0  0  0  0  0  0  0
  131.9246  123.7115   62.2822 H   0  0  0  0  0  0  0  0  0  0  0  0
  134.4683  124.3394   61.8081 H   0  0  0  0  0  0  0  0  0  0  0  0
  133.6267  125.4893   65.8185 H   0  0  0  0  0  0  0  0  0  0  0  0
  1  2  1  0
  2  3  1  0
  2  4  1  0
  2  5  1  0
  5  6  2  0
  6  7  1  0
  7  8  1  0
  8  9  1  0
  9 10  1  0
 10 11  2  0
 10 12  1  0
 12 13  1  0
 13 14  1  0
 14 15  1  0
 15 16  2  0
 16 17  1  0
 17 18  1  0
  8 19  2  0
 19  5  1  0
 18 14  2  0
  1 20  1  0
  1 21  1  0
  1 22  1  0
  3 23  1  0
  3 24  1  0
  3 25  1  0
  4 26  1  0
  4 27  1  0
  4 28  1  0
  9 29  1  0
 12 30  1  0
 13 31  1  0
 13 32  1  0
 15 33  1  0
 16 34  1  0
 18 35  1  0
M  END
>  <Binding energies>  (1) 
[-6.34]

>  <Ligand effiencies>  (1) 
[-0.3019047619047619]

>  <Interactions>  (1) 
["V-B:GLU:543:C:9874, H-A:GLU:543:OE2:4910, V-B:HIS:456:CD2:9039, V-A:GLU:543:C:4902, V-B:GLU:543:CB:9878, H-A:ARG:545:NH1:4927, V-B:GLU:543:CG:9879, V-A:GLY:544:C:4912, V-A:HIS:456:CD2:4068, V-B:LYS:547:CE:9922, V-A:GLU:543:CD:4908, V-A:TYR:484:CZ:4347, V-B:HIS:456:CE1:9041, H-A:GLY:454:N:4050, V-A:HIS:456:CE1:4070, V-A:ARG:545:CD:4923, H-A:ARG:545:NH2:4928, V-A:ARG:545:CZ:4926, H-A:GLU:543:OE1:4909, H-A:ARG:545:NE:4924, H-A:TYR:484:OH:4348"]

$$$$
ZINC331705097
     RDKit          3D

 36 37  0  0  0  0  0  0  0  0999 V2000
  134.0880  123.8750   61.6400 C   0  0  0  0  0  0  0  0  0  0  0  0
  133.4480  123.6950   63.0190 C   0  0  0  0  0  0  0  0  0  0  0  0
  133.9800  124.6770   63.9050 O   0  0  0  0  0  0  0  0  0  0  0  0
  133.2140  124.9750   65.0060 C   0  0  0  0  0  0  0  0  0  0  0  0
  133.5990  125.4250   66.1770 N   0  0  0  0  0  0  0  0  0  0  0  0
  132.5240  125.6020   67.0400 N   0  0  0  0  0  0  0  0  0  0  0  0
  131.3660  125.2730   66.5110 C   0  0  0  0  0  0  0  0  0  0  0  0
  130.0490  125.3810   67.2520 C   0  0  0  0  0  0  0  0  0  0  0  0
  129.6350  126.7640   67.5660 N   0  0  0  0  0  0  0  0  0  0  0  0
  128.7580  127.2950   66.5150 C   0  0  0  0  0  0  0  0  0  0  0  0
  128.6230  128.8290   66.4360 C   0  0  0  0  0  0  0  0  0  0  0  0
  128.1370  129.5230   67.7240 C   0  0  0  0  0  0  0  0  0  0  0  0
  129.0570  129.4830   68.8640 N   0  0  0  0  0  0  0  0  0  0  0  0
  129.5090  128.4170   69.5560 C   0  0  0  0  0  0  0  0  0  0  0  0
  130.1330  128.5340   70.6100 O   0  0  0  0  0  0  0  0  0  0  0  0
  129.1380  127.0370   68.9370 C   0  0  1  0  0  0  0  0  0  0  0  0
  127.6340  126.7580   69.0590 C   0  0  0  0  0  0  0  0  0  0  0  0
  131.5030  124.7300   64.8590 S   0  0  0  0  0  0  0  0  0  0  0  0
  135.1406  124.1710   61.7601 H   0  0  0  0  0  0  0  0  0  0  0  0
  134.0348  122.9270   61.0845 H   0  0  0  0  0  0  0  0  0  0  0  0
  133.5485  124.6562   61.0845 H   0  0  0  0  0  0  0  0  0  0  0  0
  132.3581  123.8205   62.9398 H   0  0  0  0  0  0  0  0  0  0  0  0
  133.6664  122.6878   63.4034 H   0  0  0  0  0  0  0  0  0  0  0  0
  129.2665  124.9206   66.6310 H   0  0  0  0  0  0  0  0  0  0  0  0
  130.1891  124.8696   68.2158 H   0  0  0  0  0  0  0  0  0  0  0  0
  129.1468  126.9442   65.5476 H   0  0  0  0  0  0  0  0  0  0  0  0
  127.7516  126.9285   66.7655 H   0  0  0  0  0  0  0  0  0  0  0  0
  129.6097  129.2427   66.1805 H   0  0  0  0  0  0  0  0  0  0  0  0
  127.8489  129.0240   65.6792 H   0  0  0  0  0  0  0  0  0  0  0  0
  127.9442  130.5792   67.4845 H   0  0  0  0  0  0  0  0  0  0  0  0
  127.2459  128.9628   68.0435 H   0  0  0  0  0  0  0  0  0  0  0  0
  129.2920  130.3740   69.2760 H   0  0  0  0  0  0  0  0  0  0  0  0
  129.6992  126.3194   69.5536 H   0  0  0  0  0  0  0  0  0  0  0  0
  127.3557  126.7064   70.1220 H   0  0  0  0  0  0  0  0  0  0  0  0
  127.0703  127.5669   68.5712 H   0  0  0  0  0  0  0  0  0  0  0  0
  127.3979  125.8007   68.5712 H   0  0  0  0  0  0  0  0  0  0  0  0
  1  2  1  0
  2  3  1  0
  3  4  1  0
  4  5  2  0
  5  6  1  0
  6  7  2  0
  7  8  1  0
  8  9  1  0
  9 10  1  0
 10 11  1  0
 11 12  1  0
 12 13  1  0
 13 14  1  0
 14 15  2  0
 14 16  1  0
 16 17  1  0
  7 18  1  0
 18  4  1  0
 16  9  1  0
  1 19  1  0
  1 20  1  0
  1 21  1  0
  2 22  1  0
  2 23  1  0
  8 24  1  0
  8 25  1  0
 10 26  1  0
 10 27  1  0
 11 28  1  0
 11 29  1  0
 12 30  1  0
 12 31  1  0
 13 32  1  0
 16 33  1  1
 17 34  1  0
 17 35  1  0
 17 36  1  0
M  END
>  <Binding energies>  (1) 
[-3.53]

>  <Ligand effiencies>  (1) 
[-0.16809523809523808]

>  <Interactions>  (1) 
["V-A:GLU:543:CA:4904, V-A:GLY:454:CA:4049, V-B:GLU:543:C:9874, V-A:GLU:543:C:4902, V-B:GLU:543:CB:9878, H-A:ARG:545:NH1:4927, V-A:TYR:484:CE2:4346, V-B:GLU:543:CG:9879, V-B:TYR:484:CE2:9317, V-A:TYR:484:CZ:4347, V-A:GLU:543:CD:4908, V-B:HIS:456:CE1:9041, H-A:GLY:454:N:4050, V-B:GLU:543:CA:9876, V-A:HIS:456:CE1:4070, V-A:ILE:369:CD1:3239, V-B:TYR:484:CZ:9318, H-B:HIS:456:NE2:9042, V-A:GLU:543:CG:4907, V-B:GLU:543:CD:9880, H-A:ARG:545:NH2:4928, V-A:ARG:545:CZ:4926, V-A:GLU:543:CB:4906, H-A:ARG:545:NE:4924, H-A:HIS:456:ND1:4067, H-A:TYR:484:OH:4348, H-A:GLU:543:O:4903"]

$$$$
ZINC331771602
     RDKit          3D

 42 43  0  0  0  0  0  0  0  0999 V2000
  130.9560  120.0900   60.8650 C   0  0  0  0  0  0  0  0  0  0  0  0
  131.0030  121.3810   61.6900 C   0  0  2  0  0  0  0  0  0  0  0  0
  129.6810  122.2010   61.7260 C   0  0  0  0  0  0  0  0  0  0  0  0
  129.8190  123.6180   62.0980 N   0  0  0  0  0  0  0  0  0  0  0  0
  128.6030  124.4100   61.8350 C   0  0  0  0  0  0  0  0  0  0  0  0
  127.3660  123.5290   61.5010 C   0  0  0  0  0  0  0  0  0  0  0  0
  126.8340  122.8510   62.3850 O   0  0  0  0  0  0  0  0  0  0  0  0
  126.8830  123.5400   60.2290 N   0  0  0  0  0  0  0  0  0  0  0  0
  125.6050  124.1390   59.8280 C   0  0  0  0  0  0  0  0  0  0  0  0
  127.6280  122.9370   59.1130 C   0  0  0  0  0  0  0  0  0  0  0  0
  127.1070  123.3330   57.7170 C   0  0  0  0  0  0  0  0  0  0  0  0
  127.5420  122.5790   56.4880 C   0  0  0  0  0  0  0  0  0  0  0  0
  126.1110  122.4630   57.0000 C   0  0  0  0  0  0  0  0  0  0  0  0
  131.0010  124.2140   61.4740 C   0  0  0  0  0  0  0  0  0  0  0  0
  132.2920  123.4740   61.9070 C   0  0  1  0  0  0  0  0  0  0  0  0
  132.5690  123.5800   63.4310 C   0  0  0  0  0  0  0  0  0  0  0  0
  131.6030  123.1630   64.2560 N   0  0  0  0  0  0  0  0  0  0  0  0
  133.6180  124.0470   63.8710 O   0  0  0  0  0  0  0  0  0  0  0  0
  132.2380  122.0940   61.5330 O   0  0  0  0  0  0  0  0  0  0  0  0
  130.9244  119.2234   61.5417 H   0  0  0  0  0  0  0  0  0  0  0  0
  130.0574  120.0928   60.2306 H   0  0  0  0  0  0  0  0  0  0  0  0
  131.8525  120.0274   60.2306 H   0  0  0  0  0  0  0  0  0  0  0  0
  131.0358  121.0738   62.7457 H   0  0  0  0  0  0  0  0  0  0  0  0
  129.2287  122.1571   60.7243 H   0  0  0  0  0  0  0  0  0  0  0  0
  129.0653  121.7427   62.5140 H   0  0  0  0  0  0  0  0  0  0  0  0
  128.3753  125.0102   62.7283 H   0  0  0  0  0  0  0  0  0  0  0  0
  128.8045  125.0415   60.9572 H   0  0  0  0  0  0  0  0  0  0  0  0
  125.0290  124.4090   60.7254 H   0  0  0  0  0  0  0  0  0  0  0  0
  125.7951  125.0418   59.2290 H   0  0  0  0  0  0  0  0  0  0  0  0
  125.0328  123.4153   59.2290 H   0  0  0  0  0  0  0  0  0  0  0  0
  128.6793  123.2512   59.1906 H   0  0  0  0  0  0  0  0  0  0  0  0
  127.5006  121.8479   59.2003 H   0  0  0  0  0  0  0  0  0  0  0  0
  127.1349  124.3892   58.0232 H   0  0  0  0  0  0  0  0  0  0  0  0
  127.7511  123.1210   55.5539 H   0  0  0  0  0  0  0  0  0  0  0  0
  128.3471  121.8672   56.2531 H   0  0  0  0  0  0  0  0  0  0  0  0
  125.2851  122.9208   56.4358 H   0  0  0  0  0  0  0  0  0  0  0  0
  125.4510  121.6318   57.2890 H   0  0  0  0  0  0  0  0  0  0  0  0
  130.9003  124.1513   60.3804 H   0  0  0  0  0  0  0  0  0  0  0  0
  131.0747  125.2634   61.7954 H   0  0  0  0  0  0  0  0  0  0  0  0
  133.1186  123.9739   61.3808 H   0  0  0  0  0  0  0  0  0  0  0  0
  130.7410  122.7880   63.8890 H   0  0  0  0  0  0  0  0  0  0  0  0
  131.7370  123.2160   65.2550 H   0  0  0  0  0  0  0  0  0  0  0  0
  1  2  1  0
  2  3  1  0
  3  4  1  0
  4  5  1  0
  5  6  1  0
  6  7  2  0
  6  8  1  0
  8  9  1  0
  8 10  1  0
 10 11  1  0
 11 12  1  0
 12 13  1  0
  4 14  1  0
 14 15  1  0
 15 16  1  0
 16 17  1  0
 16 18  2  0
 15 19  1  0
 19  2  1  0
 13 11  1  0
  1 20  1  0
  1 21  1  0
  1 22  1  0
  2 23  1  1
  3 24  1  0
  3 25  1  0
  5 26  1  0
  5 27  1  0
  9 28  1  0
  9 29  1  0
  9 30  1  0
 10 31  1  0
 10 32  1  0
 11 33  1  0
 12 34  1  0
 12 35  1  0
 13 36  1  0
 13 37  1  0
 14 38  1  0
 14 39  1  0
 15 40  1  6
 17 41  1  0
 17 42  1  0
M  END
>  <Binding energies>  (1) 
[-5.34]

>  <Ligand effiencies>  (1) 
[-0.2542857142857143]

>  <Interactions>  (1) 
["V-B:TYR:539:CD1:9845, V-B:PRO:540:CA:9855, V-B:TYR:539:CZ:9849, V-B:TYR:539:CE1:9847, V-B:TYR:539:CD2:9846, V-B:PRO:540:CD:9859, H-B:ALA:541:N:9863, V-B:TYR:539:CG:9844, V-B:TYR:539:CE2:9848, V-A:TYR:484:CZ:4347, V-B:PRO:540:CB:9857, V-A:LEU:475:CD2:4259, V-B:TYR:539:C:9839, H-A:GLY:454:N:4050, H-A:TYR:484:OH:4348, V-B:PRO:540:N:9856"]

$$$$
ZINC331822706
     RDKit          3D

 38 39  0  0  0  0  0  0  0  0999 V2000
  128.0120  130.3740   64.7270 C   0  0  0  0  0  0  0  0  0  0  0  0
  127.9810  131.7940   64.7280 O   0  0  0  0  0  0  0  0  0  0  0  0
  128.3390  132.4160   63.4960 C   0  0  2  0  0  0  0  0  0  0  0  0
  127.0900  132.9900   62.8020 C   0  0  0  0  0  0  0  0  0  0  0  0
  129.0410  131.3690   62.6120 C   0  0  0  0  0  0  0  0  0  0  0  0
  130.0510  132.1900   61.2330 S   0  0  0  0  0  0  0  0  0  0  0  0
  129.3700  133.4300   60.8490 O   0  0  0  0  0  0  0  0  0  0  0  0
  131.4600  132.2210   61.6410 O   0  0  0  0  0  0  0  0  0  0  0  0
  129.8940  131.0760   59.8750 N   0  0  0  0  0  0  0  0  0  0  0  0
  129.7380  131.6640   58.5280 C   0  0  1  0  0  0  0  0  0  0  0  0
  128.4170  132.3680   58.2940 C   0  0  0  0  0  0  0  0  0  0  0  0
  128.7290  133.3480   57.1590 C   0  0  0  0  0  0  0  0  0  0  0  0
  130.1530  133.3450   57.0290 O   0  0  0  0  0  0  0  0  0  0  0  0
  130.7520  132.7470   58.1770 C   0  0  2  0  0  0  0  0  0  0  0  0
  132.1660  132.2170   57.8520 C   0  0  0  0  0  0  0  0  0  0  0  0
  132.9700  131.4530   58.8740 C   0  0  0  0  0  0  0  0  0  0  0  0
  132.4090  130.7420   57.6510 C   0  0  0  0  0  0  0  0  0  0  0  0
  128.0200  130.0067   65.7638 H   0  0  0  0  0  0  0  0  0  0  0  0
  127.1221  129.9882   64.2082 H   0  0  0  0  0  0  0  0  0  0  0  0
  128.9179  130.0274   64.2082 H   0  0  0  0  0  0  0  0  0  0  0  0
  129.0246  133.2568   63.6778 H   0  0  0  0  0  0  0  0  0  0  0  0
  126.3679  133.3219   63.5625 H   0  0  0  0  0  0  0  0  0  0  0  0
  127.3800  133.8452   62.1738 H   0  0  0  0  0  0  0  0  0  0  0  0
  126.6299  132.2130   62.1738 H   0  0  0  0  0  0  0  0  0  0  0  0
  129.7149  130.7662   63.2384 H   0  0  0  0  0  0  0  0  0  0  0  0
  128.2702  130.7373   62.1464 H   0  0  0  0  0  0  0  0  0  0  0  0
  129.1580  130.3870   60.0460 H   0  0  0  0  0  0  0  0  0  0  0  0
  129.8559  130.7586   57.9145 H   0  0  0  0  0  0  0  0  0  0  0  0
  127.6382  131.6522   57.9922 H   0  0  0  0  0  0  0  0  0  0  0  0
  128.0319  132.8662   59.1959 H   0  0  0  0  0  0  0  0  0  0  0  0
  128.2573  133.0143   56.2230 H   0  0  0  0  0  0  0  0  0  0  0  0
  128.3419  134.3552   57.3729 H   0  0  0  0  0  0  0  0  0  0  0  0
  130.9344  133.4287   59.0208 H   0  0  0  0  0  0  0  0  0  0  0  0
  132.3416  133.1228   57.2530 H   0  0  0  0  0  0  0  0  0  0  0  0
  134.0529  131.6244   58.9630 H   0  0  0  0  0  0  0  0  0  0  0  0
  132.9057  131.3014   59.9616 H   0  0  0  0  0  0  0  0  0  0  0  0
  133.0858  130.3987   56.8547 H   0  0  0  0  0  0  0  0  0  0  0  0
  131.7700  129.8621   57.4856 H   0  0  0  0  0  0  0  0  0  0  0  0
  1  2  1  0
  2  3  1  0
  3  4  1  0
  3  5  1  0
  5  6  1  0
  6  7  2  0
  6  8  2  0
  6  9  1  0
  9 10  1  0
 10 11  1  0
 11 12  1  0
 12 13  1  0
 13 14  1  0
 14 15  1  0
 15 16  1  0
 16 17  1  0
 14 10  1  0
 17 15  1  0
  1 18  1  0
  1 19  1  0
  1 20  1  0
  3 21  1  1
  4 22  1  0
  4 23  1  0
  4 24  1  0
  5 25  1  0
  5 26  1  0
  9 27  1  0
 10 28  1  6
 11 29  1  0
 11 30  1  0
 12 31  1  0
 12 32  1  0
 14 33  1  1
 15 34  1  0
 16 35  1  0
 16 36  1  0
 17 37  1  0
 17 38  1  0
M  END
>  <Binding energies>  (1) 
[-5.96]

>  <Ligand effiencies>  (1) 
[-0.33111111111111113]

>  <Interactions>  (1) 
["H-A:ALA:541:N:4891, V-A:PRO:540:C:4881, V-B:LEU:475:CD2:9230, V-A:TYR:539:CD1:4873, V-A:LEU:363:CD1:3189, V-A:TYR:539:CZ:4877, V-A:TYR:531:CE2:4793, V-A:ALA:541:CB:4892, V-A:TYR:539:CA:4869, V-A:GLU:543:CD:4908, H-B:TYR:484:OH:9319, V-A:GLU:543:CG:4907, V-A:TYR:539:C:4867, V-A:PRO:540:N:4884, V-A:TYR:539:CG:4872, H-A:TYR:539:N:4870, V-A:PRO:540:CB:4885, V-A:PRO:540:CA:4883, V-A:LEU:363:CA:3185, V-A:TYR:539:CD2:4874, V-A:PRO:540:CD:4887, V-A:TYR:539:CE1:4875"]

$$$$
ZINC332236381
     RDKit          3D

 40 41  0  0  0  0  0  0  0  0999 V2000
  129.8820  124.1380   62.7470 C   0  0  0  0  0  0  0  0  0  0  0  0
  129.8180  124.0900   64.2810 C   0  0  1  0  0  0  0  0  0  0  0  0
  130.3930  122.7490   64.8260 C   0  0  0  0  0  0  0  0  0  0  0  0
  129.6930  121.8790   65.3420 O   0  0  0  0  0  0  0  0  0  0  0  0
  131.7240  122.5960   64.6620 N   0  0  0  0  0  0  0  0  0  0  0  0
  132.6610  123.4130   63.8890 C   0  0  0  0  0  0  0  0  0  0  0  0
  132.8520  124.8630   64.3780 C   0  0  0  0  0  0  0  0  0  0  0  0
  131.6260  125.7810   64.2110 C   0  0  0  0  0  0  0  0  0  0  0  0
  130.3800  125.3350   64.8460 N   0  0  0  0  0  0  0  0  0  0  0  0
  129.4060  126.4170   65.0620 C   0  0  0  0  0  0  0  0  0  0  0  0
  129.2100  126.7370   66.5360 C   0  0  0  0  0  0  0  0  0  0  0  0
  129.6280  125.8580   67.5370 C   0  0  0  0  0  0  0  0  0  0  0  0
  129.4620  126.1290   68.8570 N   0  0  0  0  0  0  0  0  0  0  0  0
  128.8590  127.3090   69.1920 C   0  0  0  0  0  0  0  0  0  0  0  0
  128.6850  127.6100   70.5700 N   0  0  0  0  0  0  0  0  0  0  0  0
  127.5930  126.9930   71.3240 C   0  0  0  0  0  0  0  0  0  0  0  0
  129.7950  128.1690   71.3450 C   0  0  0  0  0  0  0  0  0  0  0  0
  128.4210  128.2180   68.2690 N   0  0  0  0  0  0  0  0  0  0  0  0
  128.6000  127.9210   66.9570 C   0  0  0  0  0  0  0  0  0  0  0  0
  130.7258  124.7709   62.4348 H   0  0  0  0  0  0  0  0  0  0  0  0
  130.0219  123.1202   62.3538 H   0  0  0  0  0  0  0  0  0  0  0  0
  128.9441  124.5573   62.3538 H   0  0  0  0  0  0  0  0  0  0  0  0
  128.7757  124.0735   64.6322 H   0  0  0  0  0  0  0  0  0  0  0  0
  132.0870  121.7240   65.0200 H   0  0  0  0  0  0  0  0  0  0  0  0
  133.6422  122.9164   63.9152 H   0  0  0  0  0  0  0  0  0  0  0  0
  132.2255  123.4933   62.8821 H   0  0  0  0  0  0  0  0  0  0  0  0
  133.1088  124.8301   65.4471 H   0  0  0  0  0  0  0  0  0  0  0  0
  133.6434  125.2948   63.7478 H   0  0  0  0  0  0  0  0  0  0  0  0
  131.8839  126.7627   64.6349 H   0  0  0  0  0  0  0  0  0  0  0  0
  131.4147  125.7894   63.1315 H   0  0  0  0  0  0  0  0  0  0  0  0
  129.7640  127.3218   64.5489 H   0  0  0  0  0  0  0  0  0  0  0  0
  128.4383  126.0813   64.6608 H   0  0  0  0  0  0  0  0  0  0  0  0
  130.1088  124.9125   67.2459 H   0  0  0  0  0  0  0  0  0  0  0  0
  127.7846  127.1013   72.4018 H   0  0  0  0  0  0  0  0  0  0  0  0
  126.6450  127.4889   71.0685 H   0  0  0  0  0  0  0  0  0  0  0  0
  127.5286  125.9250   71.0685 H   0  0  0  0  0  0  0  0  0  0  0  0
  129.5828  128.0621   72.4190 H   0  0  0  0  0  0  0  0  0  0  0  0
  130.7219  127.6302   71.0990 H   0  0  0  0  0  0  0  0  0  0  0  0
  129.9140  129.2345   71.0990 H   0  0  0  0  0  0  0  0  0  0  0  0
  128.2525  128.6378   66.1984 H   0  0  0  0  0  0  0  0  0  0  0  0
  1  2  1  0
  2  3  1  0
  3  4  2  0
  3  5  1  0
  5  6  1  0
  6  7  1  0
  7  8  1  0
  8  9  1  0
  9 10  1  0
 10 11  1  0
 11 12  2  0
 12 13  1  0
 13 14  2  0
 14 15  1  0
 15 16  1  0
 15 17  1  0
 14 18  1  0
 18 19  2  0
  9  2  1  0
 19 11  1  0
  1 20  1  0
  1 21  1  0
  1 22  1  0
  2 23  1  6
  5 24  1  0
  6 25  1  0
  6 26  1  0
  7 27  1  0
  7 28  1  0
  8 29  1  0
  8 30  1  0
 10 31  1  0
 10 32  1  0
 12 33  1  0
 16 34  1  0
 16 35  1  0
 16 36  1  0
 17 37  1  0
 17 38  1  0
 17 39  1  0
 19 40  1  0
M  END
>  <Binding energies>  (1) 
[-3.13]

>  <Ligand effiencies>  (1) 
[-0.14227272727272727]

>  <Interactions>  (1) 
["V-A:HIS:456:CE1:4070, V-A:GLY:454:CA:4049, V-B:HIS:456:CD2:9039, V-B:GLY:544:C:9884, V-B:GLU:543:C:9874, V-B:GLU:543:CB:9878, V-B:GLY:544:CA:9886, V-A:GLU:543:CG:4907, V-B:GLU:543:CD:9880, V-A:ARG:545:CZ:4926, V-A:GLU:543:CB:4906, V-A:TYR:484:CZ:4347, V-A:TYR:484:CE2:4346, V-A:GLU:543:CD:4908, V-A:LEU:475:CD2:4259, V-B:GLU:543:CG:9879, V-B:HIS:456:CE1:9041, H-A:TYR:484:OH:4348"]

$$$$
ZINC33248378-again1
     RDKit          3D

 50 53  0  0  0  0  0  0  0  0999 V2000
  127.1910  128.9070   66.3920 C   0  0  0  0  0  0  0  0  0  0  0  0
  128.3280  128.3020   67.1920 C   0  0  0  0  0  0  0  0  0  0  0  0
  128.7300  128.5540   68.4890 C   0  0  0  0  0  0  0  0  0  0  0  0
  129.8070  127.7330   68.8310 C   0  0  0  0  0  0  0  0  0  0  0  0
  130.5400  127.7010   70.0880 C   0  0  0  0  0  0  0  0  0  0  0  0
  130.1620  127.3460   71.3420 C   0  0  0  0  0  0  0  0  0  0  0  0
  130.9180  127.3810   72.4530 N   0  0  0  0  0  0  0  0  0  0  0  0
  130.2650  126.9760   73.5660 C   0  0  0  0  0  0  0  0  0  0  0  0
  130.8820  126.9170   75.1050 S   0  0  0  0  0  0  0  0  0  0  0  0
  129.0090  126.6300   73.1390 N   0  0  0  0  0  0  0  0  0  0  0  0
  128.9370  126.8230   71.8900 C   0  0  0  0  0  0  0  0  0  0  0  0
  127.9280  126.5760   71.2110 O   0  0  0  0  0  0  0  0  0  0  0  0
  130.0890  126.9930   67.6820 C   0  0  0  0  0  0  0  0  0  0  0  0
  131.1870  125.9700   67.4400 C   0  0  0  0  0  0  0  0  0  0  0  0
  129.1770  127.3310   66.6900 N   0  0  0  0  0  0  0  0  0  0  0  0
  129.1270  126.7880   65.3870 C   0  0  0  0  0  0  0  0  0  0  0  0
  129.4970  125.4560   65.1760 C   0  0  0  0  0  0  0  0  0  0  0  0
  129.4460  124.9210   63.8920 C   0  0  0  0  0  0  0  0  0  0  0  0
  129.0190  125.7110   62.8240 C   0  0  0  0  0  0  0  0  0  0  0  0
  128.9820  125.1640   61.5640 O   0  0  0  0  0  0  0  0  0  0  0  0
  129.4500  123.8810   61.4000 C   0  0  0  0  0  0  0  0  0  0  0  0
  130.7830  123.6810   61.0300 C   0  0  0  0  0  0  0  0  0  0  0  0
  131.2860  122.3940   60.8630 C   0  0  0  0  0  0  0  0  0  0  0  0
  130.4670  121.2750   61.0590 C   0  0  0  0  0  0  0  0  0  0  0  0
  131.0020  119.9030   60.8830 N   0  0  0  0  0  0  0  0  0  0  0  0
  130.3480  118.9570   61.3120 O   0  0  0  0  0  0  0  0  0  0  0  0
  132.0820  119.7610   60.3160 O   0  0  0  0  0  0  0  0  0  0  0  0
  129.1270  121.4850   61.4210 C   0  0  0  0  0  0  0  0  0  0  0  0
  128.6040  122.7750   61.5900 C   0  0  0  0  0  0  0  0  0  0  0  0
  127.1820  122.9430   61.9710 N   0  0  0  0  0  0  0  0  0  0  0  0
  126.3540  123.1540   61.0910 O   0  0  0  0  0  0  0  0  0  0  0  0
  126.8880  122.8450   63.1590 O   0  0  0  0  0  0  0  0  0  0  0  0
  128.6590  127.0450   63.0350 C   0  0  0  0  0  0  0  0  0  0  0  0
  128.7100  127.5840   64.3170 C   0  0  0  0  0  0  0  0  0  0  0  0
  126.4330  129.3104   67.0795 H   0  0  0  0  0  0  0  0  0  0  0  0
  127.5795  129.7177   65.7580 H   0  0  0  0  0  0  0  0  0  0  0  0
  126.7357  128.1319   65.7580 H   0  0  0  0  0  0  0  0  0  0  0  0
  128.2679  129.2955   69.1574 H   0  0  0  0  0  0  0  0  0  0  0  0
  131.5889  128.0223   70.0069 H   0  0  0  0  0  0  0  0  0  0  0  0
  131.8790  127.6900   72.4920 H   0  0  0  0  0  0  0  0  0  0  0  0
  131.5726  125.6107   68.4055 H   0  0  0  0  0  0  0  0  0  0  0  0
  130.7792  125.1224   66.8697 H   0  0  0  0  0  0  0  0  0  0  0  0
  132.0037  126.4366   66.8697 H   0  0  0  0  0  0  0  0  0  0  0  0
  129.8269  124.8338   66.0210 H   0  0  0  0  0  0  0  0  0  0  0  0
  129.7422  123.8758   63.7193 H   0  0  0  0  0  0  0  0  0  0  0  0
  131.4402  124.5483   60.8694 H   0  0  0  0  0  0  0  0  0  0  0  0
  132.3381  122.2543   60.5740 H   0  0  0  0  0  0  0  0  0  0  0  0
  128.4709  120.6158   61.5760 H   0  0  0  0  0  0  0  0  0  0  0  0
  128.3356  127.6683   62.1883 H   0  0  0  0  0  0  0  0  0  0  0  0
  128.4233  128.6322   64.4873 H   0  0  0  0  0  0  0  0  0  0  0  0
  1  2  1  0
  2  3  2  0
  3  4  1  0
  4  5  1  0
  5  6  2  0
  6  7  1  0
  7  8  1  0
  8  9  2  0
  8 10  1  0
 10 11  2  0
 11 12  1  0
  4 13  2  0
 13 14  1  0
 13 15  1  0
 15 16  1  0
 16 17  2  0
 17 18  1  0
 18 19  2  0
 19 20  1  0
 20 21  1  0
 21 22  2  0
 22 23  1  0
 23 24  2  0
 24 25  1  0
 25 26  2  0
 25 27  1  0
 24 28  1  0
 28 29  2  0
 29 30  1  0
 30 31  2  0
 30 32  1  0
 19 33  1  0
 33 34  2  0
 15  2  1  0
 34 16  1  0
 11  6  1  0
 29 21  1  0
  1 35  1  0
  1 36  1  0
  1 37  1  0
  3 38  1  0
  5 39  1  0
  7 40  1  0
 14 41  1  0
 14 42  1  0
 14 43  1  0
 17 44  1  0
 18 45  1  0
 22 46  1  0
 23 47  1  0
 28 48  1  0
 33 49  1  0
 34 50  1  0
M  CHG  5  12  -1  25   1  27  -1  30   1  32  -1
M  END
>  <Binding energies>  (1) 
[-8.04]

>  <Ligand effiencies>  (1) 
[-0.22971428571428568]

>  <Interactions>  (1) 
["V-B:PRO:540:CA:9855, V-A:GLU:543:C:4902, V-B:GLU:543:CB:9878, H-B:LYS:547:NZ:9923, V-B:ALA:541:CB:9864, V-B:TYR:539:CE2:9848, V-B:GLU:543:CG:9879, V-A:GLY:544:C:4912, V-A:HIS:456:CD2:4068, H-B:ALA:541:N:9863, V-A:GLU:543:CD:4908, V-B:HIS:456:CE1:9041, V-A:HIS:456:CE1:4070, V-B:TYR:539:CD2:9846, V-A:GLU:543:CG:4907, H-A:SER:385:OG:3410, V-B:GLU:543:CD:9880, V-A:LEU:475:CD2:4259, V-A:GLU:543:CB:4906, V-B:PRO:540:C:9853, V-B:ALA:541:CA:9862, H-A:GLY:544:O:4913"]

$$$$
ZINC332709398
     RDKit          3D

 43 44  0  0  0  0  0  0  0  0999 V2000
  126.6500  128.1560   74.0460 C   0  0  0  0  0  0  0  0  0  0  0  0
  127.4240  128.0900   75.2340 O   0  0  0  0  0  0  0  0  0  0  0  0
  128.7570  128.2930   75.1950 C   0  0  0  0  0  0  0  0  0  0  0  0
  129.3290  129.3770   75.3470 O   0  0  0  0  0  0  0  0  0  0  0  0
  129.5410  126.9740   74.9730 C   0  0  2  0  0  0  0  0  0  0  0  0
  130.7830  126.9710   75.8940 C   0  0  0  0  0  0  0  0  0  0  0  0
  131.9690  126.5780   75.0160 C   0  0  2  0  0  0  0  0  0  0  0  0
  133.1570  127.2920   75.3460 O   0  0  0  0  0  0  0  0  0  0  0  0
  134.3470  126.7650   74.7730 C   0  0  0  0  0  0  0  0  0  0  0  0
  131.5580  126.9540   73.5970 C   0  0  0  0  0  0  0  0  0  0  0  0
  130.0960  126.8570   73.6010 N   0  0  0  0  0  0  0  0  0  0  0  0
  129.3470  126.8460   72.4650 C   0  0  0  0  0  0  0  0  0  0  0  0
  128.5330  125.9480   72.2330 O   0  0  0  0  0  0  0  0  0  0  0  0
  129.5360  127.9780   71.4210 C   0  0  1  0  0  0  0  0  0  0  0  0
  130.9100  127.8890   70.7280 C   0  0  0  0  0  0  0  0  0  0  0  0
  130.5830  128.0850   69.2620 C   0  0  0  0  0  0  0  0  0  0  0  0
  129.1710  127.5130   69.1110 C   0  0  0  0  0  0  0  0  0  0  0  0
  128.3440  128.2440   68.0380 C   0  0  0  0  0  0  0  0  0  0  0  0
  129.1360  125.9830   68.9110 C   0  0  0  0  0  0  0  0  0  0  0  0
  128.5710  127.8490   70.3640 O   0  0  0  0  0  0  0  0  0  0  0  0
  125.5852  128.2468   74.3067 H   0  0  0  0  0  0  0  0  0  0  0  0
  126.9588  129.0311   73.4553 H   0  0  0  0  0  0  0  0  0  0  0  0
  126.8062  127.2413   73.4553 H   0  0  0  0  0  0  0  0  0  0  0  0
  128.8297  126.1582   75.1693 H   0  0  0  0  0  0  0  0  0  0  0  0
  130.9416  127.9717   76.3222 H   0  0  0  0  0  0  0  0  0  0  0  0
  130.6569  126.2694   76.7318 H   0  0  0  0  0  0  0  0  0  0  0  0
  132.1948  125.5096   75.1481 H   0  0  0  0  0  0  0  0  0  0  0  0
  135.0359  126.4599   75.5744 H   0  0  0  0  0  0  0  0  0  0  0  0
  134.0991  125.8925   74.1507 H   0  0  0  0  0  0  0  0  0  0  0  0
  134.8265  127.5349   74.1507 H   0  0  0  0  0  0  0  0  0  0  0  0
  131.8791  127.9785   73.3577 H   0  0  0  0  0  0  0  0  0  0  0  0
  132.0186  126.3010   72.8411 H   0  0  0  0  0  0  0  0  0  0  0  0
  129.4303  128.9235   71.9731 H   0  0  0  0  0  0  0  0  0  0  0  0
  131.5840  128.6798   71.0892 H   0  0  0  0  0  0  0  0  0  0  0  0
  131.4283  126.9394   70.9270 H   0  0  0  0  0  0  0  0  0  0  0  0
  130.6015  129.1526   68.9978 H   0  0  0  0  0  0  0  0  0  0  0  0
  131.3097  127.5923   68.5993 H   0  0  0  0  0  0  0  0  0  0  0  0
  127.6054  128.8969   68.5260 H   0  0  0  0  0  0  0  0  0  0  0  0
  129.0127  128.8517   67.4106 H   0  0  0  0  0  0  0  0  0  0  0  0
  127.8230  127.5058   67.4106 H   0  0  0  0  0  0  0  0  0  0  0  0
  129.1246  125.4852   69.8918 H   0  0  0  0  0  0  0  0  0  0  0  0
  128.2313  125.7072   68.3493 H   0  0  0  0  0  0  0  0  0  0  0  0
  130.0271  125.6662   68.3493 H   0  0  0  0  0  0  0  0  0  0  0  0
  1  2  1  0
  2  3  1  0
  3  4  2  0
  3  5  1  0
  5  6  1  0
  6  7  1  0
  7  8  1  0
  8  9  1  0
  7 10  1  0
 10 11  1  0
 11 12  1  0
 12 13  2  0
 12 14  1  0
 14 15  1  0
 15 16  1  0
 16 17  1  0
 17 18  1  0
 17 19  1  0
 17 20  1  0
 11  5  1  0
 20 14  1  0
  1 21  1  0
  1 22  1  0
  1 23  1  0
  5 24  1  1
  6 25  1  0
  6 26  1  0
  7 27  1  6
  9 28  1  0
  9 29  1  0
  9 30  1  0
 10 31  1  0
 10 32  1  0
 14 33  1  1
 15 34  1  0
 15 35  1  0
 16 36  1  0
 16 37  1  0
 18 38  1  0
 18 39  1  0
 18 40  1  0
 19 41  1  0
 19 42  1  0
 19 43  1  0
M  END
>  <Binding energies>  (1) 
[-5.45]

>  <Ligand effiencies>  (1) 
[-0.2725]

>  <Interactions>  (1) 
["V-A:GLU:543:CA:4904, V-B:HIS:456:CD2:9039, V-B:GLU:543:C:9874, V-A:GLU:543:C:4902, V-B:GLU:543:CB:9878, H-B:LYS:547:NZ:9923, V-B:HIS:456:CB:9036, V-A:GLY:544:C:4912, V-A:HIS:456:CD2:4068, V-A:LYS:547:CG:4948, V-A:HIS:456:CB:4065, V-B:LYS:547:CE:9922, V-B:GLU:543:CA:9876, V-B:HIS:456:CE1:9041, V-A:HIS:456:CE1:4070, V-B:HIS:456:CG:9037, H-A:LYS:547:NZ:4951, V-A:ARG:545:C:4917, V-A:GLU:543:CB:4906, V-A:HIS:456:CG:4066"]

$$$$
ZINC332733854
     RDKit          3D

 41 42  0  0  0  0  0  0  0  0999 V2000
  129.5230  126.5730   67.6240 C   0  0  0  0  0  0  0  0  0  0  0  0
  130.4240  125.5200   67.3180 O   0  0  0  0  0  0  0  0  0  0  0  0
  129.8580  124.5090   66.4940 C   0  0  0  0  0  0  0  0  0  0  0  0
  130.8390  124.1260   65.3640 C   0  0  2  0  0  0  0  0  0  0  0  0
  131.9510  125.1690   65.1730 C   0  0  0  0  0  0  0  0  0  0  0  0
  132.4280  124.9620   63.7300 C   0  0  1  0  0  0  0  0  0  0  0  0
  133.7650  124.4620   63.7150 O   0  0  0  0  0  0  0  0  0  0  0  0
  134.3510  124.3420   62.4250 C   0  0  0  0  0  0  0  0  0  0  0  0
  131.4410  123.9420   63.1420 C   0  0  0  0  0  0  0  0  0  0  0  0
  130.2810  123.9320   64.0260 N   0  0  0  0  0  0  0  0  0  0  0  0
  129.4290  122.7480   63.8570 C   0  0  0  0  0  0  0  0  0  0  0  0
  128.3510  122.9350   62.8010 C   0  0  0  0  0  0  0  0  0  0  0  0
  128.5370  123.1900   61.5360 N   0  0  0  0  0  0  0  0  0  0  0  0
  127.3030  123.2200   61.0580 C   0  0  0  0  0  0  0  0  0  0  0  0
  127.0310  123.4790   59.7230 N   0  0  0  0  0  0  0  0  0  0  0  0
  125.7290  123.9860   59.2870 C   0  0  0  0  0  0  0  0  0  0  0  0
  127.8190  122.8720   58.6480 C   0  0  0  0  0  0  0  0  0  0  0  0
  126.3510  122.9990   61.9450 N   0  0  0  0  0  0  0  0  0  0  0  0
  127.0430  122.8010   63.1360 O   0  0  0  0  0  0  0  0  0  0  0  0
  129.4356  126.6751   68.7158 H   0  0  0  0  0  0  0  0  0  0  0  0
  129.9000  127.5139   67.1967 H   0  0  0  0  0  0  0  0  0  0  0  0
  128.5351  126.3461   67.1967 H   0  0  0  0  0  0  0  0  0  0  0  0
  129.6442  123.6200   67.1056 H   0  0  0  0  0  0  0  0  0  0  0  0
  128.9287  124.8912   66.0464 H   0  0  0  0  0  0  0  0  0  0  0  0
  131.1968  123.1560   65.7397 H   0  0  0  0  0  0  0  0  0  0  0  0
  131.5571  126.1869   65.3100 H   0  0  0  0  0  0  0  0  0  0  0  0
  132.7649  125.0512   65.9035 H   0  0  0  0  0  0  0  0  0  0  0  0
  132.4459  125.8956   63.1486 H   0  0  0  0  0  0  0  0  0  0  0  0
  135.4238  124.1223   62.5286 H   0  0  0  0  0  0  0  0  0  0  0  0
  133.8611  123.5255   61.8742 H   0  0  0  0  0  0  0  0  0  0  0  0
  134.2214  125.2853   61.8742 H   0  0  0  0  0  0  0  0  0  0  0  0
  131.1428  124.2432   62.1269 H   0  0  0  0  0  0  0  0  0  0  0  0
  131.8960  122.9430   63.0711 H   0  0  0  0  0  0  0  0  0  0  0  0
  130.0637  121.8990   63.5630 H   0  0  0  0  0  0  0  0  0  0  0  0
  128.9212  122.5696   64.8163 H   0  0  0  0  0  0  0  0  0  0  0  0
  125.1150  124.2251   60.1678 H   0  0  0  0  0  0  0  0  0  0  0  0
  125.8727  124.8939   58.6828 H   0  0  0  0  0  0  0  0  0  0  0  0
  125.2209  123.2200   58.6828 H   0  0  0  0  0  0  0  0  0  0  0  0
  128.6193  122.2555   59.0832 H   0  0  0  0  0  0  0  0  0  0  0  0
  127.1667  122.2408   58.0267 H   0  0  0  0  0  0  0  0  0  0  0  0
  128.2628  123.6638   58.0267 H   0  0  0  0  0  0  0  0  0  0  0  0
  1  2  1  0
  2  3  1  0
  3  4  1  0
  4  5  1  0
  5  6  1  0
  6  7  1  0
  7  8  1  0
  6  9  1  0
  9 10  1  0
 10 11  1  0
 11 12  1  0
 12 13  2  0
 13 14  1  0
 14 15  1  0
 15 16  1  0
 15 17  1  0
 14 18  2  0
 18 19  1  0
 10  4  1  0
 19 12  1  0
  1 20  1  0
  1 21  1  0
  1 22  1  0
  3 23  1  0
  3 24  1  0
  4 25  1  1
  5 26  1  0
  5 27  1  0
  6 28  1  6
  8 29  1  0
  8 30  1  0
  8 31  1  0
  9 32  1  0
  9 33  1  0
 11 34  1  0
 11 35  1  0
 16 36  1  0
 16 37  1  0
 16 38  1  0
 17 39  1  0
 17 40  1  0
 17 41  1  0
M  END
>  <Binding energies>  (1) 
[-5.23]

>  <Ligand effiencies>  (1) 
[-0.2752631578947369]

>  <Interactions>  (1) 
["V-B:PRO:540:CA:9855, V-B:GLU:543:CB:9878, V-B:ALA:541:CB:9864, V-B:TYR:539:CE2:9848, V-A:TYR:484:CE2:4346, V-B:GLU:543:CG:9879, V-B:TYR:539:C:9839, H-B:ALA:541:N:9863, V-A:TYR:484:CZ:4347, V-B:PRO:540:CB:9857, V-B:GLU:543:CA:9876, H-A:GLY:454:N:4050, V-A:GLY:453:C:4042, V-B:PRO:540:N:9856, V-A:HIS:456:CE1:4070, V-A:ILE:369:CD1:3239, V-B:TYR:539:CD2:9846, V-B:GLU:543:CD:9880, H-A:ARG:545:NH2:4928, V-A:ARG:545:CZ:4926, V-A:GLY:453:CA:4044, H-A:TYR:484:OH:4348"]

$$$$
ZINC33353841
     RDKit          3D

 68 73  0  0  0  0  0  0  0  0999 V2000
  133.9600  123.8930   61.8320 C   0  0  0  0  0  0  0  0  0  0  0  0
  133.0230  123.1280   62.5810 O   0  0  0  0  0  0  0  0  0  0  0  0
  132.3780  123.7070   63.6610 C   0  0  0  0  0  0  0  0  0  0  0  0
  132.9880  124.6280   64.5270 C   0  0  0  0  0  0  0  0  0  0  0  0
  132.2800  125.1830   65.5930 C   0  0  0  0  0  0  0  0  0  0  0  0
  130.9430  124.8320   65.8280 C   0  0  0  0  0  0  0  0  0  0  0  0
  130.1670  125.3880   66.9450 C   0  0  0  0  0  0  0  0  0  0  0  0
  129.4480  126.4340   66.8550 N   0  0  0  0  0  0  0  0  0  0  0  0
  128.8530  126.7590   68.0180 N   0  0  0  0  0  0  0  0  0  0  0  0
  129.5430  127.1950   69.0950 C   0  0  0  0  0  0  0  0  0  0  0  0
  130.7660  127.3590   69.1080 O   0  0  0  0  0  0  0  0  0  0  0  0
  128.7300  127.4600   70.2690 C   0  0  0  0  0  0  0  0  0  0  0  0
  127.4020  127.4020   70.3040 N   0  0  0  0  0  0  0  0  0  0  0  0
  126.9600  127.7170   71.5710 N   0  0  0  0  0  0  0  0  0  0  0  0
  128.0520  127.9560   72.2960 N   0  0  0  0  0  0  0  0  0  0  0  0
  127.9190  128.3120   73.6170 C   0  0  0  0  0  0  0  0  0  0  0  0
  127.1570  127.6730   74.4680 N   0  0  0  0  0  0  0  0  0  0  0  0
  127.3280  128.3940   75.6480 O   0  0  0  0  0  0  0  0  0  0  0  0
  128.2070  129.4640   75.4750 N   0  0  0  0  0  0  0  0  0  0  0  0
  128.5630  129.3940   74.2180 C   0  0  0  0  0  0  0  0  0  0  0  0
  129.4410  130.2960   73.6860 N   0  0  0  0  0  0  0  0  0  0  0  0
  129.2020  127.8200   71.5450 C   0  0  0  0  0  0  0  0  0  0  0  0
  130.5900  128.0680   72.1290 C   0  0  0  0  0  0  0  0  0  0  0  0
  130.8120  127.2940   73.3520 N   0  0  0  0  0  0  0  0  0  0  0  0
  130.0030  126.0690   73.3500 C   0  0  0  0  0  0  0  0  0  0  0  0
  130.2690  125.2150   74.6080 C   0  0  0  0  0  0  0  0  0  0  0  0
  131.6590  124.9360   74.7240 O   0  0  0  0  0  0  0  0  0  0  0  0
  132.4440  126.1210   74.8210 C   0  0  0  0  0  0  0  0  0  0  0  0
  132.2360  126.9970   73.5680 C   0  0  0  0  0  0  0  0  0  0  0  0
  130.3380  123.9160   64.9610 C   0  0  0  0  0  0  0  0  0  0  0  0
  131.0380  123.3540   63.8880 C   0  0  0  0  0  0  0  0  0  0  0  0
  130.3190  122.3610   62.9800 C   0  0  0  0  0  0  0  0  0  0  0  0
  128.5030  122.5290   63.1180 S   0  0  0  0  0  0  0  0  0  0  0  0
  127.9850  122.7540   61.4420 C   0  0  0  0  0  0  0  0  0  0  0  0
  126.8410  123.2540   61.0570 N   0  0  0  0  0  0  0  0  0  0  0  0
  126.7310  123.2990   59.7040 C   0  0  0  0  0  0  0  0  0  0  0  0
  125.6170  123.7850   59.0030 C   0  0  0  0  0  0  0  0  0  0  0  0
  125.6510  123.7670   57.6070 C   0  0  0  0  0  0  0  0  0  0  0  0
  126.7600  123.2780   56.9170 C   0  0  0  0  0  0  0  0  0  0  0  0
  127.8790  122.7890   57.5920 C   0  0  0  0  0  0  0  0  0  0  0  0
  127.8550  122.8050   58.9930 C   0  0  0  0  0  0  0  0  0  0  0  0
  129.0680  122.2770   60.1510 S   0  0  0  0  0  0  0  0  0  0  0  0
  134.6244  124.4354   62.5207 H   0  0  0  0  0  0  0  0  0  0  0  0
  134.5580  123.2218   61.1981 H   0  0  0  0  0  0  0  0  0  0  0  0
  133.4220  124.6132   61.1981 H   0  0  0  0  0  0  0  0  0  0  0  0
  134.0370  124.9155   64.3630 H   0  0  0  0  0  0  0  0  0  0  0  0
  132.7768  125.9051   66.2576 H   0  0  0  0  0  0  0  0  0  0  0  0
  130.2101  124.8703   67.9146 H   0  0  0  0  0  0  0  0  0  0  0  0
  127.8480  126.6540   68.0390 H   0  0  0  0  0  0  0  0  0  0  0  0
  129.7060  130.2700   72.7110 H   0  0  0  0  0  0  0  0  0  0  0  0
  129.8610  131.0190   74.2530 H   0  0  0  0  0  0  0  0  0  0  0  0
  131.3463  127.7808   71.3837 H   0  0  0  0  0  0  0  0  0  0  0  0
  130.6688  129.1358   72.3813 H   0  0  0  0  0  0  0  0  0  0  0  0
  128.9382  126.3436   73.3227 H   0  0  0  0  0  0  0  0  0  0  0  0
  130.2765  125.4755   72.4651 H   0  0  0  0  0  0  0  0  0  0  0  0
  129.9327  125.7652   75.4991 H   0  0  0  0  0  0  0  0  0  0  0  0
  129.7172  124.2672   74.5232 H   0  0  0  0  0  0  0  0  0  0  0  0
  132.1412  126.6862   75.7148 H   0  0  0  0  0  0  0  0  0  0  0  0
  133.5062  125.8449   74.8958 H   0  0  0  0  0  0  0  0  0  0  0  0
  132.7833  127.9424   73.6973 H   0  0  0  0  0  0  0  0  0  0  0  0
  132.6114  126.4454   72.6935 H   0  0  0  0  0  0  0  0  0  0  0  0
  129.2885  123.6312   65.1266 H   0  0  0  0  0  0  0  0  0  0  0  0
  130.6179  122.5470   61.9379 H   0  0  0  0  0  0  0  0  0  0  0  0
  130.5980  121.3429   63.2891 H   0  0  0  0  0  0  0  0  0  0  0  0
  124.7380  124.1709   59.5401 H   0  0  0  0  0  0  0  0  0  0  0  0
  124.7870  124.1455   57.0411 H   0  0  0  0  0  0  0  0  0  0  0  0
  126.7524  123.2778   55.8170 H   0  0  0  0  0  0  0  0  0  0  0  0
  128.7508  122.4038   57.0428 H   0  0  0  0  0  0  0  0  0  0  0  0
  1  2  1  0
  2  3  1  0
  3  4  2  0
  4  5  1  0
  5  6  2  0
  6  7  1  0
  7  8  2  0
  8  9  1  0
  9 10  1  0
 10 11  2  0
 10 12  1  0
 12 13  1  0
 13 14  2  0
 14 15  1  0
 15 16  1  0
 16 17  2  0
 17 18  1  0
 18 19  1  0
 19 20  2  0
 20 21  1  0
 15 22  1  0
 22 23  1  0
 23 24  1  0
 24 25  1  0
 25 26  1  0
 26 27  1  0
 27 28  1  0
 28 29  1  0
  6 30  1  0
 30 31  2  0
 31 32  1  0
 32 33  1  0
 33 34  1  0
 34 35  2  0
 35 36  1  0
 36 37  2  0
 37 38  1  0
 38 39  2  0
 39 40  1  0
 40 41  2  0
 41 42  1  0
 31  3  1  0
 42 34  1  0
 22 12  2  0
 29 24  1  0
 41 36  1  0
 20 16  1  0
  1 43  1  0
  1 44  1  0
  1 45  1  0
  4 46  1  0
  5 47  1  0
  7 48  1  0
  9 49  1  0
 21 50  1  0
 21 51  1  0
 23 52  1  0
 23 53  1  0
 25 54  1  0
 25 55  1  0
 26 56  1  0
 26 57  1  0
 28 58  1  0
 28 59  1  0
 29 60  1  0
 29 61  1  0
 30 62  1  0
 32 63  1  0
 32 64  1  0
 37 65  1  0
 38 66  1  0
 39 67  1  0
 40 68  1  0
M  END
>  <Binding energies>  (1) 
[-8.63]

>  <Ligand effiencies>  (1) 
[-0.1917777777777778]

>  <Interactions>  (1) 
["V-B:PRO:540:CA:9855, V-B:HIS:456:CD2:9039, H-B:GLU:543:O:9875, V-B:GLU:543:CB:9878, H-B:LYS:547:NZ:9923, V-B:ALA:541:CB:9864, V-B:TYR:539:CE2:9848, V-A:TYR:484:CE2:4346, V-B:GLU:543:CG:9879, V-A:GLY:544:C:4912, V-B:TYR:539:C:9839, V-A:HIS:456:CD2:4068, H-B:HIS:456:ND1:9038, V-B:TYR:539:CZ:9849, V-A:HIS:456:CB:4065, H-B:ALA:541:N:9863, V-A:TYR:484:CZ:4347, V-B:PRO:540:CB:9857, V-B:HIS:456:CE1:9041, V-B:PRO:540:N:9856, V-A:HIS:456:CE1:4070, V-A:ILE:369:CD1:3239, H-B:HIS:456:NE2:9042, V-B:TYR:539:CD2:9846, V-B:HIS:456:CG:9037, H-A:LYS:547:NZ:4951, V-A:LEU:475:CD2:4259, V-A:ARG:545:CZ:4926, V-B:TYR:539:CG:9844, V-A:HIS:456:CG:4066, V-B:TYR:539:CD1:9845, H-B:GLU:543:OE2:9882, V-A:LYS:547:CE:4950, V-B:PRO:540:C:9853, V-B:TYR:539:CE1:9847, H-A:GLU:543:O:4903"]

$$$$
ZINC33355604
     RDKit          3D

 60 65  0  0  0  0  0  0  0  0999 V2000
  130.5950  128.7520   61.3660 O   0  0  0  0  0  0  0  0  0  0  0  0
  129.3940  128.9610   61.5580 C   0  0  0  0  0  0  0  0  0  0  0  0
  128.4520  128.0330   62.1570 C   0  0  0  0  0  0  0  0  0  0  0  0
  128.7530  126.7910   62.6050 C   0  0  0  0  0  0  0  0  0  0  0  0
  130.0670  126.1440   62.6450 C   0  0  0  0  0  0  0  0  0  0  0  0
  130.6420  125.7160   63.8070 C   0  0  0  0  0  0  0  0  0  0  0  0
  130.0330  125.8760   65.0380 N   0  0  0  0  0  0  0  0  0  0  0  0
  129.8370  124.7680   65.9700 C   0  0  0  0  0  0  0  0  0  0  0  0
  129.8780  125.2440   67.4370 C   0  0  0  0  0  0  0  0  0  0  0  0
  129.0100  126.3890   67.7550 N   0  0  0  0  0  0  0  0  0  0  0  0
  128.6760  126.7160   69.0700 C   0  0  0  0  0  0  0  0  0  0  0  0
  127.3530  126.6450   69.5400 C   0  0  0  0  0  0  0  0  0  0  0  0
  127.0340  126.9850   70.8540 C   0  0  0  0  0  0  0  0  0  0  0  0
  128.0330  127.4110   71.7250 C   0  0  0  0  0  0  0  0  0  0  0  0
  129.3500  127.4970   71.2810 C   0  0  0  0  0  0  0  0  0  0  0  0
  130.5890  128.0330   72.3550 Cl  0  0  0  0  0  0  0  0  0  0  0  0
  129.6660  127.1550   69.9650 C   0  0  0  0  0  0  0  0  0  0  0  0
  129.1270  127.4490   66.7400 C   0  0  0  0  0  0  0  0  0  0  0  0
  129.0950  126.9710   65.2730 C   0  0  0  0  0  0  0  0  0  0  0  0
  131.8790  125.1360   63.8570 N   0  0  0  0  0  0  0  0  0  0  0  0
  132.5520  124.9720   62.7740 C   0  0  0  0  0  0  0  0  0  0  0  0
  133.8720  124.3620   62.7880 C   0  0  0  0  0  0  0  0  0  0  0  0
  134.5900  124.1790   61.6550 C   0  0  0  0  0  0  0  0  0  0  0  0
  134.0380  124.5990   60.3780 C   0  0  0  0  0  0  0  0  0  0  0  0
  132.8100  125.1630   60.3850 C   0  0  0  0  0  0  0  0  0  0  0  0
  132.0340  125.3720   61.5260 N   0  0  0  0  0  0  0  0  0  0  0  0
  130.7900  125.9610   61.3820 C   0  0  0  0  0  0  0  0  0  0  0  0
  130.2980  126.3160   60.3040 O   0  0  0  0  0  0  0  0  0  0  0  0
  126.8540  128.7630   62.2230 S   0  0  0  0  0  0  0  0  0  0  0  0
  127.4320  130.2500   61.5280 C   0  0  0  0  0  0  0  0  0  0  0  0
  126.3800  131.5300   61.3300 S   0  0  0  0  0  0  0  0  0  0  0  0
  128.7590  130.1140   61.2180 N   0  0  0  0  0  0  0  0  0  0  0  0
  129.5260  131.2300   60.6150 C   0  0  0  0  0  0  0  0  0  0  0  0
  130.9280  131.3640   61.1770 C   0  0  0  0  0  0  0  0  0  0  0  0
  132.1960  131.1310   60.6610 C   0  0  0  0  0  0  0  0  0  0  0  0
  133.1100  131.4450   61.6680 C   0  0  0  0  0  0  0  0  0  0  0  0
  132.3600  131.8530   62.7570 C   0  0  0  0  0  0  0  0  0  0  0  0
  131.0370  131.8140   62.4550 O   0  0  0  0  0  0  0  0  0  0  0  0
  127.9092  126.1961   62.9847 H   0  0  0  0  0  0  0  0  0  0  0  0
  128.8592  124.3045   65.7726 H   0  0  0  0  0  0  0  0  0  0  0  0
  130.6525  124.0451   65.8205 H   0  0  0  0  0  0  0  0  0  0  0  0
  129.5750  124.4011   68.0756 H   0  0  0  0  0  0  0  0  0  0  0  0
  130.9080  125.5866   67.6151 H   0  0  0  0  0  0  0  0  0  0  0  0
  126.5549  126.3152   68.8586 H   0  0  0  0  0  0  0  0  0  0  0  0
  125.9929  126.9166   71.2025 H   0  0  0  0  0  0  0  0  0  0  0  0
  127.7825  127.6792   72.7620 H   0  0  0  0  0  0  0  0  0  0  0  0
  130.7086  127.2306   69.6227 H   0  0  0  0  0  0  0  0  0  0  0  0
  128.2930  128.1513   66.8858 H   0  0  0  0  0  0  0  0  0  0  0  0
  130.1187  127.9011   66.8886 H   0  0  0  0  0  0  0  0  0  0  0  0
  128.0783  126.6264   65.0330 H   0  0  0  0  0  0  0  0  0  0  0  0
  129.3882  127.8155   64.6320 H   0  0  0  0  0  0  0  0  0  0  0  0
  134.3002  124.0394   63.7485 H   0  0  0  0  0  0  0  0  0  0  0  0
  135.5862  123.7147   61.7008 H   0  0  0  0  0  0  0  0  0  0  0  0
  134.5985  124.4630   59.4413 H   0  0  0  0  0  0  0  0  0  0  0  0
  132.3907  125.4812   59.4191 H   0  0  0  0  0  0  0  0  0  0  0  0
  129.5989  131.0584   59.5309 H   0  0  0  0  0  0  0  0  0  0  0  0
  128.9890  132.1606   60.8511 H   0  0  0  0  0  0  0  0  0  0  0  0
  132.4348  130.7679   59.6505 H   0  0  0  0  0  0  0  0  0  0  0  0
  134.2065  131.3810   61.6080 H   0  0  0  0  0  0  0  0  0  0  0  0
  132.7756  132.1639   63.7269 H   0  0  0  0  0  0  0  0  0  0  0  0
  1  2  2  0
  2  3  1  0
  3  4  2  0
  4  5  1  0
  5  6  2  0
  6  7  1  0
  7  8  1  0
  8  9  1  0
  9 10  1  0
 10 11  1  0
 11 12  2  0
 12 13  1  0
 13 14  2  0
 14 15  1  0
 15 16  1  0
 15 17  2  0
 10 18  1  0
 18 19  1  0
  6 20  1  0
 20 21  2  0
 21 22  1  0
 22 23  2  0
 23 24  1  0
 24 25  2  0
 25 26  1  0
 26 27  1  0
 27 28  2  0
  3 29  1  0
 29 30  1  0
 30 31  2  0
 30 32  1  0
 32 33  1  0
 33 34  1  0
 34 35  2  0
 35 36  1  0
 36 37  2  0
 37 38  1  0
 32  2  1  0
 38 34  1  0
 27  5  1  0
 19  7  1  0
 26 21  1  0
 17 11  1  0
  4 39  1  0
  8 40  1  0
  8 41  1  0
  9 42  1  0
  9 43  1  0
 12 44  1  0
 13 45  1  0
 14 46  1  0
 17 47  1  0
 18 48  1  0
 18 49  1  0
 19 50  1  0
 19 51  1  0
 22 52  1  0
 23 53  1  0
 24 54  1  0
 25 55  1  0
 33 56  1  0
 33 57  1  0
 35 58  1  0
 36 59  1  0
 37 60  1  0
M  END
>  <Binding energies>  (1) 
[-8.41]

>  <Ligand effiencies>  (1) 
[-0.22131578947368422]

>  <Interactions>  (1) 
["V-A:ASP:366:CA:3210, V-A:ALA:541:C:4888, V-B:GLU:543:C:9874, V-B:HIS:456:CD2:9039, H-A:ALA:541:N:4891, V-B:GLU:543:CB:9878, V-A:TYR:484:CE2:4346, V-B:GLU:543:CG:9879, V-A:GLY:544:C:4912, V-A:ASP:366:CG:3213, V-A:ASN:362:CB:3176, V-A:GLU:543:CD:4908, V-B:GLU:543:CA:9876, V-B:HIS:456:CE1:9041, V-A:ILE:369:CD1:3239, V-A:HIS:456:CE1:4070, V-B:GLY:544:C:9884, V-A:ALA:541:CA:4890, V-B:GLY:544:CA:9886, V-A:GLU:543:CG:4907, V-B:GLU:543:CD:9880, V-B:HIS:456:CG:9037, V-A:ASP:366:CB:3212, H-A:ARG:545:NH2:4928, V-A:ARG:545:CZ:4926, V-A:GLU:543:CB:4906, V-A:PRO:540:CB:4885, V-A:PRO:540:CA:4883"]

$$$$
ZINC334158194
     RDKit          3D

 68 71  0  0  0  0  0  0  0  0999 V2000
  126.9650  122.5490   56.4350 C   0  0  0  0  0  0  0  0  0  0  0  0
  127.6460  122.8990   57.7640 C   0  0  0  0  0  0  0  0  0  0  0  0
  126.8820  123.9670   58.5660 C   0  0  0  0  0  0  0  0  0  0  0  0
  126.7880  123.6380   60.0660 C   0  0  0  0  0  0  0  0  0  0  0  0
  128.1580  123.3380   60.7010 C   0  0  0  0  0  0  0  0  0  0  0  0
  128.3840  121.8370   60.9540 C   0  0  0  0  0  0  0  0  0  0  0  0
  129.3620  121.5680   62.1170 C   0  0  0  0  0  0  0  0  0  0  0  0
  130.5810  122.5330   62.1890 C   0  0  0  0  0  0  0  0  0  0  0  0
  130.3110  123.9680   62.0880 N   0  0  0  0  0  0  0  0  0  0  0  0
  130.5030  124.8270   63.0200 C   0  0  0  0  0  0  0  0  0  0  0  0
  129.7860  126.0260   62.9630 N   0  0  0  0  0  0  0  0  0  0  0  0
  129.4610  126.6680   64.0380 C   0  0  0  0  0  0  0  0  0  0  0  0
  128.6320  127.8590   63.9910 C   0  0  0  0  0  0  0  0  0  0  0  0
  128.2100  128.4820   65.1150 C   0  0  0  0  0  0  0  0  0  0  0  0
  128.5760  127.9730   66.4340 C   0  0  0  0  0  0  0  0  0  0  0  0
  128.0450  128.6020   67.7070 C   0  0  0  0  0  0  0  0  0  0  0  0
  129.3860  126.8870   66.4380 C   0  0  0  0  0  0  0  0  0  0  0  0
  129.8930  126.2400   65.3120 N   0  0  0  0  0  0  0  0  0  0  0  0
  130.8170  125.2220   65.4840 C   0  0  0  0  0  0  0  0  0  0  0  0
  131.1890  124.7770   66.5780 O   0  0  0  0  0  0  0  0  0  0  0  0
  131.3560  124.7100   64.2150 C   0  0  0  0  0  0  0  0  0  0  0  0
  132.6610  124.3210   64.1980 C   0  0  0  0  0  0  0  0  0  0  0  0
  133.5470  123.9500   63.0120 C   0  0  1  0  0  0  0  0  0  0  0  0
  133.6000  122.1710   62.7760 S   0  0  0  0  0  0  0  0  0  0  0  0
  133.2090  122.3460   61.0700 C   0  0  0  0  0  0  0  0  0  0  0  0
  133.1480  120.9550   60.1480 S   0  0  0  0  0  0  0  0  0  0  0  0
  132.9850  123.6560   60.7250 N   0  0  0  0  0  0  0  0  0  0  0  0
  132.6110  124.0380   59.3300 C   0  0  2  0  0  0  0  0  0  0  0  0
  133.5950  125.0630   58.6920 C   0  0  0  0  0  0  0  0  0  0  0  0
  132.9010  125.8390   57.5650 C   0  0  0  0  0  0  0  0  0  0  0  0
  131.2090  126.1810   58.2820 S   0  0  0  0  0  0  0  0  0  0  0  0
  131.3120  127.2720   59.2570 O   0  0  0  0  0  0  0  0  0  0  0  0
  130.1960  126.2250   57.2220 O   0  0  0  0  0  0  0  0  0  0  0  0
  131.1450  124.5380   59.1860 C   0  0  0  0  0  0  0  0  0  0  0  0
  133.0640  124.5800   61.7120 C   0  0  0  0  0  0  0  0  0  0  0  0
  132.8020  125.7800   61.6090 O   0  0  0  0  0  0  0  0  0  0  0  0
  126.0030  122.0546   56.6350 H   0  0  0  0  0  0  0  0  0  0  0  0
  126.7913  123.4695   55.8584 H   0  0  0  0  0  0  0  0  0  0  0  0
  127.6124  121.8719   55.8584 H   0  0  0  0  0  0  0  0  0  0  0  0
  127.7161  121.9860   58.3735 H   0  0  0  0  0  0  0  0  0  0  0  0
  128.6382  123.3110   57.5277 H   0  0  0  0  0  0  0  0  0  0  0  0
  127.4004  124.9302   58.4500 H   0  0  0  0  0  0  0  0  0  0  0  0
  125.8557  124.0035   58.1718 H   0  0  0  0  0  0  0  0  0  0  0  0
  126.3407  124.4977   60.5864 H   0  0  0  0  0  0  0  0  0  0  0  0
  126.1721  122.7322   60.1671 H   0  0  0  0  0  0  0  0  0  0  0  0
  128.9457  123.7027   60.0253 H   0  0  0  0  0  0  0  0  0  0  0  0
  128.1885  123.8458   61.6763 H   0  0  0  0  0  0  0  0  0  0  0  0
  127.4166  121.3712   61.1932 H   0  0  0  0  0  0  0  0  0  0  0  0
  128.8276  121.4102   60.0424 H   0  0  0  0  0  0  0  0  0  0  0  0
  128.8024  121.6544   63.0601 H   0  0  0  0  0  0  0  0  0  0  0  0
  129.7755  120.5634   61.9444 H   0  0  0  0  0  0  0  0  0  0  0  0
  131.0833  122.3588   63.1520 H   0  0  0  0  0  0  0  0  0  0  0  0
  131.1803  122.2961   61.2975 H   0  0  0  0  0  0  0  0  0  0  0  0
  128.3384  128.2667   63.0124 H   0  0  0  0  0  0  0  0  0  0  0  0
  127.5837  129.3827   65.0346 H   0  0  0  0  0  0  0  0  0  0  0  0
  128.4783  128.0887   68.5780 H   0  0  0  0  0  0  0  0  0  0  0  0
  128.3220  129.6662   67.7333 H   0  0  0  0  0  0  0  0  0  0  0  0
  126.9494  128.5075   67.7333 H   0  0  0  0  0  0  0  0  0  0  0  0
  129.6695  126.4785   67.4192 H   0  0  0  0  0  0  0  0  0  0  0  0
  133.1476  124.2662   65.1830 H   0  0  0  0  0  0  0  0  0  0  0  0
  134.5489  124.3357   63.2518 H   0  0  0  0  0  0  0  0  0  0  0  0
  132.6895  123.0956   58.7681 H   0  0  0  0  0  0  0  0  0  0  0  0
  133.9333  125.7698   59.4640 H   0  0  0  0  0  0  0  0  0  0  0  0
  134.4555  124.5198   58.2744 H   0  0  0  0  0  0  0  0  0  0  0  0
  133.4337  126.7752   57.3417 H   0  0  0  0  0  0  0  0  0  0  0  0
  132.8683  125.2893   56.6127 H   0  0  0  0  0  0  0  0  0  0  0  0
  130.6925  124.6714   60.1797 H   0  0  0  0  0  0  0  0  0  0  0  0
  130.5354  123.8094   58.6314 H   0  0  0  0  0  0  0  0  0  0  0  0
  1  2  1  0
  2  3  1  0
  3  4  1  0
  4  5  1  0
  5  6  1  0
  6  7  1  0
  7  8  1  0
  8  9  1  0
  9 10  2  0
 10 11  1  0
 11 12  2  0
 12 13  1  0
 13 14  2  0
 14 15  1  0
 15 16  1  0
 15 17  2  0
 17 18  1  0
 18 19  1  0
 19 20  2  0
 19 21  1  0
 21 22  2  0
 22 23  1  0
 23 24  1  0
 24 25  1  0
 25 26  2  0
 25 27  1  0
 27 28  1  0
 28 29  1  0
 29 30  1  0
 30 31  1  0
 31 32  2  0
 31 33  2  0
 31 34  1  0
 27 35  1  0
 35 36  2  0
 21 10  1  0
 35 23  1  0
 18 12  1  0
 34 28  1  0
  1 37  1  0
  1 38  1  0
  1 39  1  0
  2 40  1  0
  2 41  1  0
  3 42  1  0
  3 43  1  0
  4 44  1  0
  4 45  1  0
  5 46  1  0
  5 47  1  0
  6 48  1  0
  6 49  1  0
  7 50  1  0
  7 51  1  0
  8 52  1  0
  8 53  1  0
 13 54  1  0
 14 55  1  0
 16 56  1  0
 16 57  1  0
 16 58  1  0
 17 59  1  0
 22 60  1  0
 23 61  1  1
 28 62  1  6
 29 63  1  0
 29 64  1  0
 30 65  1  0
 30 66  1  0
 34 67  1  0
 34 68  1  0
M  END
>  <Binding energies>  (1) 
[-8.05]

>  <Ligand effiencies>  (1) 
[-0.22361111111111112]

>  <Interactions>  (1) 
["V-A:ILE:369:CG2:3237, V-A:ASP:366:CA:3210, V-B:PRO:540:CA:9855, V-A:GLY:454:CA:4049, V-B:GLU:543:CB:9878, V-B:ALA:541:CB:9864, H-A:TYR:531:OH:4795, V-B:TYR:539:CE2:9848, V-B:GLU:543:CG:9879, V-B:TYR:539:C:9839, V-A:ASP:366:CG:3213, V-B:TYR:539:CZ:9849, H-B:TYR:539:OH:9850, V-A:GLU:543:CD:4908, V-B:PRO:540:CB:9857, V-B:HIS:456:CE1:9041, H-A:GLY:454:N:4050, V-B:PRO:540:N:9856, V-A:ASP:366:C:3208, V-B:TYR:539:CD2:9846, V-A:GLU:543:CG:4907, V-A:TYR:531:CZ:4794, V-B:GLU:543:CD:9880, V-A:ASP:366:CB:3212, V-A:LEU:475:CD2:4259, H-A:ARG:545:NH2:4928, V-B:TYR:539:CG:9844, V-A:GLU:543:CB:4906, V-B:TYR:539:CD1:9845, V-B:PRO:540:C:9853, V-B:TYR:539:CE1:9847, H-A:TYR:484:OH:4348"]

$$$$
ZINC33724351
     RDKit          3D

 57 61  0  0  0  0  0  0  0  0999 V2000
  128.8700  126.8910   61.7600 O   0  0  0  0  0  0  0  0  0  0  0  0
  128.6780  125.6740   61.8330 C   0  0  0  0  0  0  0  0  0  0  0  0
  127.5460  124.9710   61.2580 C   0  0  0  0  0  0  0  0  0  0  0  0
  126.5870  125.5320   60.4830 C   0  0  0  0  0  0  0  0  0  0  0  0
  126.5090  126.9200   60.0160 C   0  0  0  0  0  0  0  0  0  0  0  0
  126.5120  127.2580   58.6920 C   0  0  0  0  0  0  0  0  0  0  0  0
  126.5830  126.3060   57.6910 N   0  0  0  0  0  0  0  0  0  0  0  0
  126.5340  124.8540   57.8410 C   0  0  0  0  0  0  0  0  0  0  0  0
  125.4320  124.2900   56.9140 C   0  0  0  0  0  0  0  0  0  0  0  0
  125.4240  122.7490   56.9010 C   0  0  0  0  0  0  0  0  0  0  0  0
  126.8060  122.1710   56.5360 C   0  0  0  0  0  0  0  0  0  0  0  0
  127.9260  122.7520   57.4210 C   0  0  0  0  0  0  0  0  0  0  0  0
  127.9130  124.2930   57.4210 C   0  0  0  0  0  0  0  0  0  0  0  0
  126.4620  128.5510   58.2560 N   0  0  0  0  0  0  0  0  0  0  0  0
  126.4070  129.5130   59.1070 C   0  0  0  0  0  0  0  0  0  0  0  0
  126.3570  130.9020   58.6770 C   0  0  0  0  0  0  0  0  0  0  0  0
  126.2950  131.9240   59.5610 C   0  0  0  0  0  0  0  0  0  0  0  0
  126.2760  131.6420   60.9870 C   0  0  0  0  0  0  0  0  0  0  0  0
  126.3230  130.3470   61.3660 C   0  0  0  0  0  0  0  0  0  0  0  0
  126.3900  129.2600   60.4920 N   0  0  0  0  0  0  0  0  0  0  0  0
  126.4310  127.9840   61.0240 C   0  0  0  0  0  0  0  0  0  0  0  0
  126.4080  127.7220   62.2310 O   0  0  0  0  0  0  0  0  0  0  0  0
  127.6090  123.2790   61.7120 S   0  0  0  0  0  0  0  0  0  0  0  0
  129.1360  123.4790   62.5200 C   0  0  0  0  0  0  0  0  0  0  0  0
  129.8530  122.1310   63.1890 S   0  0  0  0  0  0  0  0  0  0  0  0
  129.5100  124.8010   62.4680 N   0  0  0  0  0  0  0  0  0  0  0  0
  130.7740  125.3320   63.0680 C   0  0  1  0  0  0  0  0  0  0  0  0
  130.8940  125.1190   64.6040 C   0  0  0  0  0  0  0  0  0  0  0  0
  132.3570  125.2760   65.0410 C   0  0  0  0  0  0  0  0  0  0  0  0
  133.3050  124.3980   63.6850 S   0  0  0  0  0  0  0  0  0  0  0  0
  134.6050  125.0400   63.4680 O   0  0  0  0  0  0  0  0  0  0  0  0
  133.2240  122.9500   63.9050 O   0  0  0  0  0  0  0  0  0  0  0  0
  132.0860  124.9110   62.3470 C   0  0  0  0  0  0  0  0  0  0  0  0
  125.7696  124.8675   60.1663 H   0  0  0  0  0  0  0  0  0  0  0  0
  126.1680  126.5860   56.8140 H   0  0  0  0  0  0  0  0  0  0  0  0
  126.3074  124.5695   58.8791 H   0  0  0  0  0  0  0  0  0  0  0  0
  124.4534  124.6476   57.2667 H   0  0  0  0  0  0  0  0  0  0  0  0
  125.6366  124.6381   55.8908 H   0  0  0  0  0  0  0  0  0  0  0  0
  125.1390  122.3862   57.8996 H   0  0  0  0  0  0  0  0  0  0  0  0
  124.7033  122.4178   56.1388 H   0  0  0  0  0  0  0  0  0  0  0  0
  126.7802  121.0791   56.6668 H   0  0  0  0  0  0  0  0  0  0  0  0
  127.0227  122.4413   55.4920 H   0  0  0  0  0  0  0  0  0  0  0  0
  127.7869  122.3946   58.4520 H   0  0  0  0  0  0  0  0  0  0  0  0
  128.8918  122.4179   57.0141 H   0  0  0  0  0  0  0  0  0  0  0  0
  128.6752  124.6558   58.1263 H   0  0  0  0  0  0  0  0  0  0  0  0
  128.1261  124.6375   56.3983 H   0  0  0  0  0  0  0  0  0  0  0  0
  126.3700  131.1279   57.6005 H   0  0  0  0  0  0  0  0  0  0  0  0
  126.2591  132.9634   59.2026 H   0  0  0  0  0  0  0  0  0  0  0  0
  126.2253  132.4526   61.7288 H   0  0  0  0  0  0  0  0  0  0  0  0
  126.3073  130.1320   62.4447 H   0  0  0  0  0  0  0  0  0  0  0  0
  130.6660  126.4127   62.8936 H   0  0  0  0  0  0  0  0  0  0  0  0
  130.2758  125.8649   65.1250 H   0  0  0  0  0  0  0  0  0  0  0  0
  130.5474  124.1062   64.8571 H   0  0  0  0  0  0  0  0  0  0  0  0
  132.6403  126.3374   65.0967 H   0  0  0  0  0  0  0  0  0  0  0  0
  132.5549  124.8645   66.0418 H   0  0  0  0  0  0  0  0  0  0  0  0
  132.4898  125.7573   61.7718 H   0  0  0  0  0  0  0  0  0  0  0  0
  131.9015  124.0846   61.6449 H   0  0  0  0  0  0  0  0  0  0  0  0
  1  2  2  0
  2  3  1  0
  3  4  2  0
  4  5  1  0
  5  6  2  0
  6  7  1  0
  7  8  1  0
  8  9  1  0
  9 10  1  0
 10 11  1  0
 11 12  1  0
 12 13  1  0
  6 14  1  0
 14 15  2  0
 15 16  1  0
 16 17  2  0
 17 18  1  0
 18 19  2  0
 19 20  1  0
 20 21  1  0
 21 22  2  0
  3 23  1  0
 23 24  1  0
 24 25  2  0
 24 26  1  0
 26 27  1  0
 27 28  1  0
 28 29  1  0
 29 30  1  0
 30 31  2  0
 30 32  2  0
 30 33  1  0
 26  2  1  0
 33 27  1  0
 21  5  1  0
 13  8  1  0
 20 15  1  0
  4 34  1  0
  7 35  1  0
  8 36  1  0
  9 37  1  0
  9 38  1  0
 10 39  1  0
 10 40  1  0
 11 41  1  0
 11 42  1  0
 12 43  1  0
 12 44  1  0
 13 45  1  0
 13 46  1  0
 16 47  1  0
 17 48  1  0
 18 49  1  0
 19 50  1  0
 27 51  1  1
 28 52  1  0
 28 53  1  0
 29 54  1  0
 29 55  1  0
 33 56  1  0
 33 57  1  0
M  END
>  <Binding energies>  (1) 
[-8.76]

>  <Ligand effiencies>  (1) 
[-0.2576470588235294]

>  <Interactions>  (1) 
["V-B:TYR:539:CA:9841, V-B:PRO:540:CA:9855, V-A:GLY:454:CA:4049, V-B:TYR:539:CE1:9847, V-B:ASP:366:CG:8184, V-B:ALA:541:CB:9864, H-A:ARG:545:NH1:4927, V-B:TYR:539:CE2:9848, V-B:TYR:539:C:9839, V-A:TYR:539:CD1:4873, V-B:TYR:539:CZ:9849, V-B:TYR:531:CZ:9766, H-B:ALA:541:N:9863, V-B:TYR:531:CE2:9765, V-B:PRO:540:CB:9857, H-A:GLY:454:N:4050, V-B:PRO:540:N:9856, V-B:PRO:540:CD:9859, V-B:TYR:539:CD2:9846, V-B:GLU:543:CD:9880, H-B:TYR:531:OH:9767, V-A:LEU:475:CD2:4259, H-A:ARG:545:NH2:4928, V-A:ARG:545:CZ:4926, V-B:TYR:539:CG:9844, H-B:ARG:545:NH2:9900, V-B:TYR:539:CD1:9845, V-B:PRO:540:CG:9858, V-B:LEU:363:CD1:8160, H-A:ARG:545:NE:4924, V-B:MET:535:CE:9807, V-A:TYR:539:CE1:4875, H-A:TYR:484:OH:4348"]

$$$$
ZINC33833419
     RDKit          3D

 43 44  0  0  0  0  0  0  0  0999 V2000
  130.4530  125.6760   60.1060 C   0  0  0  0  0  0  0  0  0  0  0  0
  131.7890  125.5030   60.0540 C   0  0  0  0  0  0  0  0  0  0  0  0
  132.4990  125.2810   58.7220 C   0  0  0  0  0  0  0  0  0  0  0  0
  133.3070  123.9720   58.7630 C   0  0  1  0  0  0  0  0  0  0  0  0
  133.9760  123.7640   57.5350 O   0  0  0  0  0  0  0  0  0  0  0  0
  134.3050  123.9800   59.9340 C   0  0  0  0  0  0  0  0  0  0  0  0
  133.6550  124.2550   61.3250 C   0  0  2  0  0  0  0  0  0  0  0  0
  134.8440  124.4570   62.3080 C   0  0  0  0  0  0  0  0  0  0  0  0
  132.7550  123.0650   61.7610 C   0  0  0  0  0  0  0  0  0  0  0  0
  132.1420  123.2570   63.1610 C   0  0  0  0  0  0  0  0  0  0  0  0
  131.3170  124.5760   63.2880 C   0  0  1  0  0  0  0  0  0  0  0  0
  130.7470  124.8390   64.7260 C   0  0  0  0  0  0  0  0  0  0  0  0
  129.6360  125.9150   64.7270 C   0  0  0  0  0  0  0  0  0  0  0  0
  130.2070  123.5530   65.3940 C   0  0  0  0  0  0  0  0  0  0  0  0
  131.7860  125.3220   65.5580 O   0  0  0  0  0  0  0  0  0  0  0  0
  132.0580  125.8010   62.6470 C   0  0  0  0  0  0  0  0  0  0  0  0
  132.7450  125.5330   61.2710 C   0  0  2  0  0  0  0  0  0  0  0  0
  129.9563  125.8350   61.0745 H   0  0  0  0  0  0  0  0  0  0  0  0
  129.8596  125.6582   59.1799 H   0  0  0  0  0  0  0  0  0  0  0  0
  131.7515  125.2217   57.9171 H   0  0  0  0  0  0  0  0  0  0  0  0
  133.1847  126.1208   58.5361 H   0  0  0  0  0  0  0  0  0  0  0  0
  132.6058  123.1393   58.9206 H   0  0  0  0  0  0  0  0  0  0  0  0
  134.7280  124.3580   57.4940 H   0  0  0  0  0  0  0  0  0  0  0  0
  134.8000  122.9984   59.9723 H   0  0  0  0  0  0  0  0  0  0  0  0
  135.0083  124.8043   59.7448 H   0  0  0  0  0  0  0  0  0  0  0  0
  134.4782  124.3949   63.3435 H   0  0  0  0  0  0  0  0  0  0  0  0
  135.5976  123.6740   62.1377 H   0  0  0  0  0  0  0  0  0  0  0  0
  135.2968  125.4449   62.1377 H   0  0  0  0  0  0  0  0  0  0  0  0
  131.9382  122.9576   61.0322 H   0  0  0  0  0  0  0  0  0  0  0  0
  133.3906  122.1680   61.7997 H   0  0  0  0  0  0  0  0  0  0  0  0
  131.4780  122.4060   63.3730 H   0  0  0  0  0  0  0  0  0  0  0  0
  132.9729  123.3172   63.8794 H   0  0  0  0  0  0  0  0  0  0  0  0
  130.4109  124.4289   62.6820 H   0  0  0  0  0  0  0  0  0  0  0  0
  129.3731  126.1696   65.7643 H   0  0  0  0  0  0  0  0  0  0  0  0
  129.9972  126.8155   64.2087 H   0  0  0  0  0  0  0  0  0  0  0  0
  128.7475  125.5252   64.2087 H   0  0  0  0  0  0  0  0  0  0  0  0
  130.2524  123.6611   66.4877 H   0  0  0  0  0  0  0  0  0  0  0  0
  129.1641  123.3893   65.0847 H   0  0  0  0  0  0  0  0  0  0  0  0
  130.8204  122.6939   65.0847 H   0  0  0  0  0  0  0  0  0  0  0  0
  131.7370  126.2810   65.5810 H   0  0  0  0  0  0  0  0  0  0  0  0
  131.3212  126.6054   62.5057 H   0  0  0  0  0  0  0  0  0  0  0  0
  132.8706  126.0571   63.3427 H   0  0  0  0  0  0  0  0  0  0  0  0
  133.3811  126.4137   61.0986 H   0  0  0  0  0  0  0  0  0  0  0  0
  1  2  2  0
  2  3  1  0
  3  4  1  0
  4  5  1  0
  4  6  1  0
  6  7  1  0
  7  8  1  1
  7  9  1  0
  9 10  1  0
 10 11  1  0
 11 12  1  0
 12 13  1  0
 12 14  1  0
 12 15  1  0
 11 16  1  0
 16 17  1  0
 17  2  1  0
 17  7  1  0
  1 18  1  0
  1 19  1  0
  3 20  1  0
  3 21  1  0
  4 22  1  1
  5 23  1  0
  6 24  1  0
  6 25  1  0
  8 26  1  0
  8 27  1  0
  8 28  1  0
  9 29  1  0
  9 30  1  0
 10 31  1  0
 10 32  1  0
 11 33  1  6
 13 34  1  0
 13 35  1  0
 13 36  1  0
 14 37  1  0
 14 38  1  0
 14 39  1  0
 15 40  1  0
 16 41  1  0
 16 42  1  0
 17 43  1  6
M  END
>  <Binding energies>  (1) 
[-6.54]

>  <Ligand effiencies>  (1) 
[-0.34421052631578947]

>  <Interactions>  (1) 
["V-A:ILE:369:CG2:3237, V-A:ASP:366:CA:3210, H-A:GLU:543:OE2:4910, V-A:ILE:369:CB:3236, V-B:TYR:539:CE2:9848, V-A:TYR:484:CE2:4346, V-B:GLU:543:CG:9879, V-A:ASP:366:CG:3213, V-B:TYR:539:CZ:9849, H-A:ASN:370:N:3244, H-B:TYR:539:OH:9850, V-A:GLU:543:CD:4908, V-A:TYR:484:CZ:4347, V-A:GLY:453:C:4042, V-A:ILE:369:CD1:3239, V-B:GLU:543:CD:9880, V-A:ILE:369:CG1:3238, V-A:ASP:366:CB:3212, V-A:LEU:475:CD2:4259, V-A:ARG:545:CZ:4926, H-A:GLU:543:OE1:4909, H-A:ASP:366:O:3209, V-A:GLY:453:CA:4044, H-A:TYR:484:OH:4348"]

$$$$
ZINC33933371
     RDKit          3D

 55 59  0  0  0  0  0  0  0  0999 V2000
  127.0990  129.4540   64.9990 C   0  0  0  0  0  0  0  0  0  0  0  0
  127.8460  128.5130   65.9400 C   0  0  0  0  0  0  0  0  0  0  0  0
  127.6390  128.6080   67.2790 C   0  0  0  0  0  0  0  0  0  0  0  0
  128.3330  127.7360   68.2080 C   0  0  0  0  0  0  0  0  0  0  0  0
  129.1910  126.8360   67.6900 C   0  0  0  0  0  0  0  0  0  0  0  0
  129.4580  126.6780   66.3320 N   0  0  0  0  0  0  0  0  0  0  0  0
  130.3700  125.7100   65.9510 C   0  0  0  0  0  0  0  0  0  0  0  0
  130.9820  124.9710   66.7310 O   0  0  0  0  0  0  0  0  0  0  0  0
  130.5700  125.6150   64.5010 C   0  0  0  0  0  0  0  0  0  0  0  0
  131.4920  124.5900   64.0030 C   0  0  0  0  0  0  0  0  0  0  0  0
  131.2260  123.6030   63.1130 C   0  0  0  0  0  0  0  0  0  0  0  0
  132.3960  122.4250   62.5300 S   0  0  0  0  0  0  0  0  0  0  0  0
  131.2200  121.6710   61.4910 C   0  0  0  0  0  0  0  0  0  0  0  0
  131.6730  120.3820   60.5310 S   0  0  0  0  0  0  0  0  0  0  0  0
  130.0180  122.3070   61.6410 N   0  0  0  0  0  0  0  0  0  0  0  0
  128.8130  121.8780   60.8900 C   0  0  0  0  0  0  0  0  0  0  0  0
  128.3670  122.8520   59.7750 C   0  0  2  0  0  0  0  0  0  0  0  0
  127.0530  123.5800   60.0470 C   0  0  0  0  0  0  0  0  0  0  0  0
  126.5050  123.8930   58.6720 C   0  0  0  0  0  0  0  0  0  0  0  0
  127.2000  122.8880   57.7510 C   0  0  0  0  0  0  0  0  0  0  0  0
  128.0480  122.1130   58.5980 O   0  0  0  0  0  0  0  0  0  0  0  0
  129.9320  123.3530   62.5030 C   0  0  0  0  0  0  0  0  0  0  0  0
  128.8930  123.9820   62.7210 O   0  0  0  0  0  0  0  0  0  0  0  0
  129.8830  126.4600   63.6800 C   0  0  0  0  0  0  0  0  0  0  0  0
  130.0360  126.4400   62.3050 N   0  0  0  0  0  0  0  0  0  0  0  0
  130.9490  127.2090   61.4660 C   0  0  0  0  0  0  0  0  0  0  0  0
  131.1280  126.6340   60.0750 C   0  0  0  0  0  0  0  0  0  0  0  0
  131.7440  127.0930   58.9190 C   0  0  0  0  0  0  0  0  0  0  0  0
  131.5790  126.1060   57.9460 C   0  0  0  0  0  0  0  0  0  0  0  0
  130.8700  125.0830   58.5500 C   0  0  0  0  0  0  0  0  0  0  0  0
  130.5980  125.4030   59.8410 O   0  0  0  0  0  0  0  0  0  0  0  0
  129.0030  127.3910   64.1510 N   0  0  0  0  0  0  0  0  0  0  0  0
  128.7870  127.5120   65.4150 C   0  0  0  0  0  0  0  0  0  0  0  0
  126.5219  130.1809   65.5894 H   0  0  0  0  0  0  0  0  0  0  0  0
  127.8218  129.9881   64.3647 H   0  0  0  0  0  0  0  0  0  0  0  0
  126.4149  128.8712   64.3647 H   0  0  0  0  0  0  0  0  0  0  0  0
  126.9336  129.3584   67.6654 H   0  0  0  0  0  0  0  0  0  0  0  0
  128.1651  127.8070   69.2928 H   0  0  0  0  0  0  0  0  0  0  0  0
  129.7209  126.1759   68.3925 H   0  0  0  0  0  0  0  0  0  0  0  0
  132.5183  124.6260   64.3971 H   0  0  0  0  0  0  0  0  0  0  0  0
  129.0261  120.9027   60.4282 H   0  0  0  0  0  0  0  0  0  0  0  0
  127.9895  121.8407   61.6183 H   0  0  0  0  0  0  0  0  0  0  0  0
  129.2058  123.5594   59.6972 H   0  0  0  0  0  0  0  0  0  0  0  0
  126.3587  122.9347   60.6052 H   0  0  0  0  0  0  0  0  0  0  0  0
  127.1929  124.4837   60.6584 H   0  0  0  0  0  0  0  0  0  0  0  0
  125.4140  123.7552   58.6466 H   0  0  0  0  0  0  0  0  0  0  0  0
  126.6899  124.9353   58.3729 H   0  0  0  0  0  0  0  0  0  0  0  0
  126.4582  122.2433   57.2569 H   0  0  0  0  0  0  0  0  0  0  0  0
  127.7695  123.3913   56.9558 H   0  0  0  0  0  0  0  0  0  0  0  0
  129.5330  125.7370   61.7860 H   0  0  0  0  0  0  0  0  0  0  0  0
  130.5554  128.2318   61.3711 H   0  0  0  0  0  0  0  0  0  0  0  0
  131.9343  127.1823   61.9543 H   0  0  0  0  0  0  0  0  0  0  0  0
  132.2644  128.0539   58.7933 H   0  0  0  0  0  0  0  0  0  0  0  0
  131.9402  126.1356   56.9074 H   0  0  0  0  0  0  0  0  0  0  0  0
  130.5704  124.1468   58.0562 H   0  0  0  0  0  0  0  0  0  0  0  0
  1  2  1  0
  2  3  2  0
  3  4  1  0
  4  5  2  0
  5  6  1  0
  6  7  1  0
  7  8  2  0
  7  9  1  0
  9 10  1  0
 10 11  2  0
 11 12  1  0
 12 13  1  0
 13 14  2  0
 13 15  1  0
 15 16  1  0
 16 17  1  0
 17 18  1  0
 18 19  1  0
 19 20  1  0
 20 21  1  0
 15 22  1  0
 22 23  2  0
  9 24  2  0
 24 25  1  0
 25 26  1  0
 26 27  1  0
 27 28  2  0
 28 29  1  0
 29 30  2  0
 30 31  1  0
 24 32  1  0
 32 33  2  0
 33  2  1  0
 33  6  1  0
 22 11  1  0
 31 27  1  0
 21 17  1  0
  1 34  1  0
  1 35  1  0
  1 36  1  0
  3 37  1  0
  4 38  1  0
  5 39  1  0
 10 40  1  0
 16 41  1  0
 16 42  1  0
 17 43  1  6
 18 44  1  0
 18 45  1  0
 19 46  1  0
 19 47  1  0
 20 48  1  0
 20 49  1  0
 25 50  1  0
 26 51  1  0
 26 52  1  0
 28 53  1  0
 29 54  1  0
 30 55  1  0
M  END
>  <Binding energies>  (1) 
[-6.61]

>  <Ligand effiencies>  (1) 
[-0.19441176470588237]

>  <Interactions>  (1) 
["V-B:PRO:540:CA:9855, V-B:TYR:539:CZ:9849, V-B:GLU:543:CB:9878, V-B:TYR:539:CD2:9846, V-B:GLU:543:CD:9880, V-B:PRO:540:C:9853, V-A:GLU:543:CD:4908, V-B:TYR:539:CE2:9848, V-A:ASP:366:CB:3212, V-B:PRO:540:CB:9857, V-A:LEU:475:CD2:4259, V-B:GLU:543:CG:9879, V-B:HIS:456:CE1:9041, V-B:TYR:539:C:9839, V-A:ASP:366:CG:3213, H-A:TYR:484:OH:4348, V-B:PRO:540:N:9856"]

$$$$
ZINC33958515
     RDKit          3D

 55 56  0  0  0  0  0  0  0  0999 V2000
  126.1310  132.0590   62.8570 C   0  0  0  0  0  0  0  0  0  0  0  0
  127.5110  131.8130   62.2020 C   0  0  0  0  0  0  0  0  0  0  0  0
  127.3260  131.6590   60.6790 C   0  0  0  0  0  0  0  0  0  0  0  0
  128.3190  130.6200   62.8160 C   0  0  1  0  0  0  0  0  0  0  0  0
  129.7100  130.6130   62.3460 N   0  0  0  0  0  0  0  0  0  0  0  0
  130.4500  131.7120   62.1170 C   0  0  0  0  0  0  0  0  0  0  0  0
  130.0520  132.8540   62.3510 O   0  0  0  0  0  0  0  0  0  0  0  0
  131.8520  131.4960   61.5350 C   0  0  0  0  0  0  0  0  0  0  0  0
  131.8630  131.5710   60.0200 C   0  0  0  0  0  0  0  0  0  0  0  0
  132.8530  131.1560   59.1280 C   0  0  0  0  0  0  0  0  0  0  0  0
  132.5440  131.3650   57.7800 C   0  0  0  0  0  0  0  0  0  0  0  0
  131.3020  131.9460   57.6080 C   0  0  0  0  0  0  0  0  0  0  0  0
  130.5150  132.2270   59.1220 S   0  0  0  0  0  0  0  0  0  0  0  0
  128.2730  130.6970   64.3640 C   0  0  0  0  0  0  0  0  0  0  0  0
  128.4090  131.7920   64.9180 O   0  0  0  0  0  0  0  0  0  0  0  0
  128.0670  129.5260   64.9990 N   0  0  0  0  0  0  0  0  0  0  0  0
  128.0140  129.4370   66.3400 N   0  0  0  0  0  0  0  0  0  0  0  0
  128.3300  128.2840   66.7760 C   0  0  0  0  0  0  0  0  0  0  0  0
  128.3630  127.9360   68.2030 C   0  0  0  0  0  0  0  0  0  0  0  0
  127.2500  127.3290   68.7870 C   0  0  0  0  0  0  0  0  0  0  0  0
  127.2550  126.9750   70.1330 C   0  0  0  0  0  0  0  0  0  0  0  0
  128.3730  127.2110   70.9410 C   0  0  0  0  0  0  0  0  0  0  0  0
  128.3090  126.7140   72.2610 N   0  0  0  0  0  0  0  0  0  0  0  0
  129.4550  126.0060   72.8230 C   0  0  0  0  0  0  0  0  0  0  0  0
  127.3990  127.3990   73.1700 C   0  0  0  0  0  0  0  0  0  0  0  0
  129.5000  127.8590   70.3790 C   0  0  0  0  0  0  0  0  0  0  0  0
  130.6620  128.3040   71.1840 N   0  0  0  0  0  0  0  0  0  0  0  0
  131.7750  127.8770   70.8980 O   0  0  0  0  0  0  0  0  0  0  0  0
  130.4500  129.0230   72.1570 O   0  0  0  0  0  0  0  0  0  0  0  0
  129.4760  128.1970   69.0160 C   0  0  0  0  0  0  0  0  0  0  0  0
  126.2362  132.0402   63.9518 H   0  0  0  0  0  0  0  0  0  0  0  0
  125.7455  133.0400   62.5424 H   0  0  0  0  0  0  0  0  0  0  0  0
  125.4302  131.2716   62.5424 H   0  0  0  0  0  0  0  0  0  0  0  0
  128.1330  132.6941   62.4182 H   0  0  0  0  0  0  0  0  0  0  0  0
  126.4947  130.9670   60.4787 H   0  0  0  0  0  0  0  0  0  0  0  0
  127.1010  132.6403   60.2359 H   0  0  0  0  0  0  0  0  0  0  0  0
  128.2503  131.2598   60.2359 H   0  0  0  0  0  0  0  0  0  0  0  0
  127.8515  129.6816   62.4830 H   0  0  0  0  0  0  0  0  0  0  0  0
  130.0970  129.7050   62.1350 H   0  0  0  0  0  0  0  0  0  0  0  0
  132.5236  132.2711   61.9326 H   0  0  0  0  0  0  0  0  0  0  0  0
  132.1858  130.4888   61.8250 H   0  0  0  0  0  0  0  0  0  0  0  0
  133.7989  130.7017   59.4581 H   0  0  0  0  0  0  0  0  0  0  0  0
  133.2143  131.0970   56.9500 H   0  0  0  0  0  0  0  0  0  0  0  0
  130.8678  132.1984   56.6294 H   0  0  0  0  0  0  0  0  0  0  0  0
  127.9620  128.6570   64.4960 H   0  0  0  0  0  0  0  0  0  0  0  0
  128.5928  127.5055   66.0446 H   0  0  0  0  0  0  0  0  0  0  0  0
  126.3578  127.1279   68.1758 H   0  0  0  0  0  0  0  0  0  0  0  0
  126.3637  126.5009   70.5698 H   0  0  0  0  0  0  0  0  0  0  0  0
  129.4032  126.0380   73.9213 H   0  0  0  0  0  0  0  0  0  0  0  0
  129.4407  124.9591   72.4856 H   0  0  0  0  0  0  0  0  0  0  0  0
  130.3848  126.4873   72.4856 H   0  0  0  0  0  0  0  0  0  0  0  0
  127.6869  127.1823   74.2093 H   0  0  0  0  0  0  0  0  0  0  0  0
  127.4518  128.4835   72.9934 H   0  0  0  0  0  0  0  0  0  0  0  0
  126.3715  127.0483   72.9934 H   0  0  0  0  0  0  0  0  0  0  0  0
  130.3579  128.6818   68.5719 H   0  0  0  0  0  0  0  0  0  0  0  0
  1  2  1  0
  2  3  1  0
  2  4  1  0
  4  5  1  0
  5  6  1  0
  6  7  2  0
  6  8  1  0
  8  9  1  0
  9 10  2  0
 10 11  1  0
 11 12  2  0
 12 13  1  0
  4 14  1  0
 14 15  2  0
 14 16  1  0
 16 17  1  0
 17 18  2  0
 18 19  1  0
 19 20  2  0
 20 21  1  0
 21 22  2  0
 22 23  1  0
 23 24  1  0
 23 25  1  0
 22 26  1  0
 26 27  1  0
 27 28  2  0
 27 29  1  0
 26 30  2  0
 13  9  1  0
 30 19  1  0
  1 31  1  0
  1 32  1  0
  1 33  1  0
  2 34  1  0
  3 35  1  0
  3 36  1  0
  3 37  1  0
  4 38  1  1
  5 39  1  0
  8 40  1  0
  8 41  1  0
 10 42  1  0
 11 43  1  0
 12 44  1  0
 16 45  1  0
 18 46  1  0
 20 47  1  0
 21 48  1  0
 24 49  1  0
 24 50  1  0
 24 51  1  0
 25 52  1  0
 25 53  1  0
 25 54  1  0
 30 55  1  0
M  CHG  2  27   1  29  -1
M  END
>  <Binding energies>  (1) 
[-8.05]

>  <Ligand effiencies>  (1) 
[-0.2515625]

>  <Interactions>  (1) 
["V-B:GLU:543:C:9874, V-B:HIS:456:CD2:9039, V-A:GLU:543:C:4902, H-A:ALA:541:N:4891, V-B:GLU:543:CB:9878, V-A:GLY:544:CA:4914, V-A:GLY:544:C:4912, V-A:ASP:366:CG:3213, H-A:ARG:545:N:4920, V-A:HIS:456:CD2:4068, V-A:LEU:363:CD1:3189, V-B:LYS:547:CE:9922, V-A:GLU:543:CD:4908, H-B:TYR:484:OH:9319, V-B:HIS:456:CE1:9041, V-A:HIS:456:CE1:4070, V-B:GLY:544:C:9884, V-A:GLU:543:CG:4907, V-B:GLU:543:CD:9880, V-B:HIS:456:CG:9037, H-A:LYS:547:NZ:4951, H-A:GLU:543:OE1:4909, V-A:GLU:543:CB:4906, V-A:PRO:540:N:4884, H-B:GLU:543:OE2:9882, V-A:PRO:540:CA:4883, V-A:PRO:540:CB:4885, V-A:LEU:363:CA:3185, H-A:HIS:456:ND1:4067"]

$$$$
ZINC33961733
     RDKit          3D

 30 31  0  0  0  0  0  0  0  0999 V2000
  129.2400  129.2180   72.8440 C   0  0  0  0  0  0  0  0  0  0  0  0
  130.4830  128.4170   72.4260 C   0  0  0  0  0  0  0  0  0  0  0  0
  130.2000  127.3490   71.3420 C   0  0  2  0  0  0  0  0  0  0  0  0
  130.2580  128.0010   69.6550 S   0  0  0  0  0  0  0  0  0  0  0  0
  128.8520  127.0130   69.0840 C   0  0  0  0  0  0  0  0  0  0  0  0
  127.8980  127.8500   68.1990 C   0  0  0  0  0  0  0  0  0  0  0  0
  128.5690  128.3310   66.8930 C   0  0  0  0  0  0  0  0  0  0  0  0
  129.1090  127.1080   66.1200 N   0  0  0  0  0  0  0  0  0  0  0  0
  130.0420  126.2020   66.9520 C   0  0  0  0  0  0  0  0  0  0  0  0
  129.3200  125.7920   68.2550 C   0  0  0  0  0  0  0  0  0  0  0  0
  128.2070  126.5970   70.3200 N   0  0  0  0  0  0  0  0  0  0  0  0
  128.8160  126.7010   71.5090 C   0  0  0  0  0  0  0  0  0  0  0  0
  128.3500  126.3150   72.5780 O   0  0  0  0  0  0  0  0  0  0  0  0
  129.1805  129.2563   73.9417 H   0  0  0  0  0  0  0  0  0  0  0  0
  129.3113  130.2405   72.4447 H   0  0  0  0  0  0  0  0  0  0  0  0
  128.3383  128.7306   72.4447 H   0  0  0  0  0  0  0  0  0  0  0  0
  131.2330  129.1196   72.0338 H   0  0  0  0  0  0  0  0  0  0  0  0
  130.8359  127.8818   73.3199 H   0  0  0  0  0  0  0  0  0  0  0  0
  131.0035  126.6118   71.4866 H   0  0  0  0  0  0  0  0  0  0  0  0
  127.0251  127.2328   67.9401 H   0  0  0  0  0  0  0  0  0  0  0  0
  127.6077  128.7423   68.7730 H   0  0  0  0  0  0  0  0  0  0  0  0
  127.8307  128.8612   66.2735 H   0  0  0  0  0  0  0  0  0  0  0  0
  129.3984  129.0127   67.1327 H   0  0  0  0  0  0  0  0  0  0  0  0
  128.3240  126.5560   65.8010 H   0  0  0  0  0  0  0  0  0  0  0  0
  129.5980  127.4240   65.2940 H   0  0  0  0  0  0  0  0  0  0  0  0
  130.2944  125.3020   66.3721 H   0  0  0  0  0  0  0  0  0  0  0  0
  130.9658  126.7469   67.1964 H   0  0  0  0  0  0  0  0  0  0  0  0
  128.4406  125.1846   67.9947 H   0  0  0  0  0  0  0  0  0  0  0  0
  130.0357  125.2259   68.8693 H   0  0  0  0  0  0  0  0  0  0  0  0
  127.2940  126.1680   70.2730 H   0  0  0  0  0  0  0  0  0  0  0  0
  1  2  1  0
  2  3  1  0
  3  4  1  0
  4  5  1  0
  5  6  1  0
  6  7  1  0
  7  8  1  0
  8  9  1  0
  9 10  1  0
  5 11  1  0
 11 12  1  0
 12 13  2  0
 12  3  1  0
 10  5  1  0
  1 14  1  0
  1 15  1  0
  1 16  1  0
  2 17  1  0
  2 18  1  0
  3 19  1  6
  6 20  1  0
  6 21  1  0
  7 22  1  0
  7 23  1  0
  8 24  1  0
  8 25  1  0
  9 26  1  0
  9 27  1  0
 10 28  1  0
 10 29  1  0
 11 30  1  0
M  CHG  1   8   1
M  END
>  <Binding energies>  (1) 
[-6.05]

>  <Ligand effiencies>  (1) 
[-0.378125]

>  <Interactions>  (1) 
["V-B:GLU:543:C:9874, H-A:GLU:543:OE2:4910, H-B:GLU:543:O:9875, V-B:HIS:456:CD2:9039, V-B:GLU:543:CB:9878, H-B:LYS:547:NZ:9923, V-A:GLY:544:C:4912, V-B:GLU:543:CG:9879, V-A:HIS:456:CD2:4068, H-B:GLU:543:OE1:9881, V-A:GLU:543:CD:4908, V-B:GLU:543:CA:9876, V-B:HIS:456:CE1:9041, V-A:HIS:456:CE1:4070, V-A:GLU:543:CG:4907, V-B:GLU:543:CD:9880, H-A:GLU:543:OE1:4909, V-A:GLU:543:CB:4906, H-B:GLY:544:O:9885, H-B:GLU:543:OE2:9882"]

$$$$
ZINC33976518
     RDKit          3D

 28 28  0  0  0  0  0  0  0  0999 V2000
  128.6820  128.9260   74.1260 C   0  0  0  0  0  0  0  0  0  0  0  0
  129.4260  129.3730   72.8570 C   0  0  0  0  0  0  0  0  0  0  0  0
  130.1830  128.2190   72.1440 C   0  0  1  0  0  0  0  0  0  0  0  0
  130.3990  126.9790   73.0490 C   0  0  0  0  0  0  0  0  0  0  0  0
  131.6070  126.8190   73.5960 N   0  0  0  0  0  0  0  0  0  0  0  0
  129.4880  126.1810   73.2730 O   0  0  0  0  0  0  0  0  0  0  0  0
  129.5350  127.7620   70.8940 N   0  0  0  0  0  0  0  0  0  0  0  0
  130.2510  127.6430   69.6200 C   0  0  0  0  0  0  0  0  0  0  0  0
  129.1510  127.4250   68.5960 C   0  0  1  0  0  0  0  0  0  0  0  0
  129.5420  126.5650   67.4620 C   0  0  0  0  0  0  0  0  0  0  0  0
  129.8590  125.8480   66.5270 C   0  0  0  0  0  0  0  0  0  0  0  0
  130.3350  124.7710   65.1270 Br  0  0  0  0  0  0  0  0  0  0  0  0
  127.9760  126.9090   69.4130 C   0  0  0  0  0  0  0  0  0  0  0  0
  128.2410  127.3550   70.8510 C   0  0  0  0  0  0  0  0  0  0  0  0
  127.4160  127.3330   71.7640 O   0  0  0  0  0  0  0  0  0  0  0  0
  129.2383  129.2602   75.0141 H   0  0  0  0  0  0  0  0  0  0  0  0
  127.6751  129.3688   74.1359 H   0  0  0  0  0  0  0  0  0  0  0  0
  128.6002  127.8291   74.1359 H   0  0  0  0  0  0  0  0  0  0  0  0
  128.6928  129.7952   72.1540 H   0  0  0  0  0  0  0  0  0  0  0  0
  130.1798  130.1117   73.1670 H   0  0  0  0  0  0  0  0  0  0  0  0
  131.1551  128.6715   71.8986 H   0  0  0  0  0  0  0  0  0  0  0  0
  132.3440  127.4830   73.4090 H   0  0  0  0  0  0  0  0  0  0  0  0
  131.7900  126.0300   74.1990 H   0  0  0  0  0  0  0  0  0  0  0  0
  130.8124  128.5630   69.4002 H   0  0  0  0  0  0  0  0  0  0  0  0
  130.9902  126.8284   69.6256 H   0  0  0  0  0  0  0  0  0  0  0  0
  128.8921  128.3541   68.0671 H   0  0  0  0  0  0  0  0  0  0  0  0
  127.0341  127.3419   69.0451 H   0  0  0  0  0  0  0  0  0  0  0  0
  127.8806  125.8156   69.3392 H   0  0  0  0  0  0  0  0  0  0  0  0
  1  2  1  0
  2  3  1  0
  3  4  1  0
  4  5  1  0
  4  6  2  0
  3  7  1  0
  7  8  1  0
  8  9  1  0
  9 10  1  0
 10 11  3  0
 11 12  1  0
  9 13  1  0
 13 14  1  0
 14 15  2  0
 14  7  1  0
  1 16  1  0
  1 17  1  0
  1 18  1  0
  2 19  1  0
  2 20  1  0
  3 21  1  6
  5 22  1  0
  5 23  1  0
  8 24  1  0
  8 25  1  0
  9 26  1  6
 13 27  1  0
 13 28  1  0
M  END
>  <Binding energies>  (1) 
[-5.27]

>  <Ligand effiencies>  (1) 
[-0.31]

>  <Interactions>  (1) 
["V-A:HIS:456:CE1:4070, V-B:HIS:456:CD2:9039, V-B:HIS:456:CE1:9041, V-B:GLU:543:C:9874, V-B:GLU:543:CB:9878, H-B:LYS:547:NZ:9923, V-B:GLU:543:CD:9880, V-A:GLU:543:CB:4906, V-A:GLU:543:CD:4908, V-B:GLU:543:CG:9879, V-A:GLY:544:C:4912, H-A:GLY:544:O:4913, V-A:HIS:456:CD2:4068, V-A:HIS:456:CG:4066"]

$$$$
ZINC33986254
     RDKit          3D

 76 80  0  0  0  0  0  0  0  0999 V2000
  129.5730  126.3610   67.7490 C   0  0  0  0  0  0  0  0  0  0  0  0
  129.8620  125.4560   66.5430 C   0  0  0  0  0  0  0  0  0  0  0  0
  131.3620  125.3550   66.2150 C   0  0  0  0  0  0  0  0  0  0  0  0
  131.6510  125.5850   64.7190 C   0  0  0  0  0  0  0  0  0  0  0  0
  132.4240  124.4280   64.0810 C   0  0  0  0  0  0  0  0  0  0  0  0
  133.6550  124.4260   64.0420 O   0  0  0  0  0  0  0  0  0  0  0  0
  131.6090  123.4670   63.5990 O   0  0  0  0  0  0  0  0  0  0  0  0
  130.3760  123.8070   62.9750 C   0  0  0  0  0  0  0  0  0  0  0  0
  130.5230  123.8400   61.4430 C   0  0  0  0  0  0  0  0  0  0  0  0
  130.0130  122.9710   60.7310 O   0  0  0  0  0  0  0  0  0  0  0  0
  131.3880  125.0100   60.8450 C   0  0  1  0  0  0  0  0  0  0  0  0
  132.7290  124.8520   61.3170 O   0  0  0  0  0  0  0  0  0  0  0  0
  133.3650  123.8290   60.5500 C   0  0  0  0  0  0  0  0  0  0  0  0
  134.7350  124.3440   60.0950 C   0  0  0  0  0  0  0  0  0  0  0  0
  133.5030  122.5270   61.3430 C   0  0  0  0  0  0  0  0  0  0  0  0
  132.5300  123.6060   59.4250 O   0  0  0  0  0  0  0  0  0  0  0  0
  131.7820  124.8000   59.3740 C   0  0  1  0  0  0  0  0  0  0  0  0
  130.5540  125.2290   58.5480 C   0  0  0  0  0  0  0  0  0  0  0  0
  130.4030  126.6040   59.2490 C   0  0  1  0  0  0  0  0  0  0  0  0
  129.4160  127.7360   58.8790 C   0  0  2  0  0  0  0  0  0  0  0  0
  129.1440  127.8550   57.3640 C   0  0  0  0  0  0  0  0  0  0  0  0
  128.1470  128.9860   57.0540 C   0  0  0  0  0  0  0  0  0  0  0  0
  128.6730  130.3050   57.6300 C   0  0  0  0  0  0  0  0  0  0  0  0
  128.8930  131.3860   56.8430 C   0  0  0  0  0  0  0  0  0  0  0  0
  129.4210  132.6720   57.3000 C   0  0  0  0  0  0  0  0  0  0  0  0
  129.5830  133.6360   56.5570 O   0  0  0  0  0  0  0  0  0  0  0  0
  129.7480  132.6960   58.7240 C   0  0  0  0  0  0  0  0  0  0  0  0
  129.5530  131.6560   59.5580 C   0  0  0  0  0  0  0  0  0  0  0  0
  128.9600  130.2910   59.1650 C   0  0  1  0  0  0  0  0  0  0  0  0
  127.5930  130.1760   59.8980 C   0  0  0  0  0  0  0  0  0  0  0  0
  129.9710  129.1050   59.4570 C   0  0  2  0  0  0  0  0  0  0  0  0
  131.0570  129.3990   58.7240 F   0  0  0  0  0  0  0  0  0  0  0  0
  130.5890  129.0070   60.9260 C   0  0  1  0  0  0  0  0  0  0  0  0
  129.7050  129.3460   61.9770 O   0  0  0  0  0  0  0  0  0  0  0  0
  131.3480  127.6660   61.2460 C   0  0  0  0  0  0  0  0  0  0  0  0
  130.5740  126.3950   60.7890 C   0  0  2  0  0  0  0  0  0  0  0  0
  129.1830  126.3450   61.5290 C   0  0  0  0  0  0  0  0  0  0  0  0
  129.7518  125.8011   68.6788 H   0  0  0  0  0  0  0  0  0  0  0  0
  130.2356  127.2384   67.7162 H   0  0  0  0  0  0  0  0  0  0  0  0
  128.5245  126.6920   67.7162 H   0  0  0  0  0  0  0  0  0  0  0  0
  129.4821  124.4472   66.7623 H   0  0  0  0  0  0  0  0  0  0  0  0
  129.3627  125.9010   65.6697 H   0  0  0  0  0  0  0  0  0  0  0  0
  131.9038  126.1125   66.8004 H   0  0  0  0  0  0  0  0  0  0  0  0
  131.6939  124.3375   66.4690 H   0  0  0  0  0  0  0  0  0  0  0  0
  130.6938  125.7026   64.1899 H   0  0  0  0  0  0  0  0  0  0  0  0
  132.2755  126.4868   64.6365 H   0  0  0  0  0  0  0  0  0  0  0  0
  129.6168  123.0590   63.2474 H   0  0  0  0  0  0  0  0  0  0  0  0
  130.0732  124.8069   63.3194 H   0  0  0  0  0  0  0  0  0  0  0  0
  135.3509  124.5755   60.9765 H   0  0  0  0  0  0  0  0  0  0  0  0
  135.2347  123.5723   59.4910 H   0  0  0  0  0  0  0  0  0  0  0  0
  134.6026  125.2537   59.4910 H   0  0  0  0  0  0  0  0  0  0  0  0
  133.4794  122.7494   62.4200 H   0  0  0  0  0  0  0  0  0  0  0  0
  132.6712  121.8533   61.0894 H   0  0  0  0  0  0  0  0  0  0  0  0
  134.4575  122.0426   61.0894 H   0  0  0  0  0  0  0  0  0  0  0  0
  132.4852  125.3810   58.7592 H   0  0  0  0  0  0  0  0  0  0  0  0
  130.7678  125.3156   57.4725 H   0  0  0  0  0  0  0  0  0  0  0  0
  129.6818  124.5588   58.5379 H   0  0  0  0  0  0  0  0  0  0  0  0
  131.1987  127.1362   58.7072 H   0  0  0  0  0  0  0  0  0  0  0  0
  128.4446  127.4868   59.3310 H   0  0  0  0  0  0  0  0  0  0  0  0
  130.0921  128.0632   56.8465 H   0  0  0  0  0  0  0  0  0  0  0  0
  128.7070  126.9068   57.0176 H   0  0  0  0  0  0  0  0  0  0  0  0
  128.0299  129.0828   55.9645 H   0  0  0  0  0  0  0  0  0  0  0  0
  127.1735  128.7505   57.5087 H   0  0  0  0  0  0  0  0  0  0  0  0
  128.6553  131.2889   55.7734 H   0  0  0  0  0  0  0  0  0  0  0  0
  130.1792  133.6185   59.1400 H   0  0  0  0  0  0  0  0  0  0  0  0
  129.8424  131.7942   60.6102 H   0  0  0  0  0  0  0  0  0  0  0  0
  127.7578  130.1899   60.9855 H   0  0  0  0  0  0  0  0  0  0  0  0
  126.9519  131.0234   59.6134 H   0  0  0  0  0  0  0  0  0  0  0  0
  127.1025  129.2334   59.6134 H   0  0  0  0  0  0  0  0  0  0  0  0
  131.3508  129.7996   60.8882 H   0  0  0  0  0  0  0  0  0  0  0  0
  130.2250  129.5820   62.7480 H   0  0  0  0  0  0  0  0  0  0  0  0
  132.3212  127.6850   60.7336 H   0  0  0  0  0  0  0  0  0  0  0  0
  131.4556  127.6059   62.3391 H   0  0  0  0  0  0  0  0  0  0  0  0
  129.3460  126.3509   62.6168 H   0  0  0  0  0  0  0  0  0  0  0  0
  128.5839  127.2222   61.2433 H   0  0  0  0  0  0  0  0  0  0  0  0
  128.6485  125.4271   61.2433 H   0  0  0  0  0  0  0  0  0  0  0  0
  1  2  1  0
  2  3  1  0
  3  4  1  0
  4  5  1  0
  5  6  2  0
  5  7  1  0
  7  8  1  0
  8  9  1  0
  9 10  2  0
 11  9  1  1
 11 12  1  0
 12 13  1  0
 13 14  1  0
 13 15  1  0
 13 16  1  0
 16 17  1  0
 17 18  1  0
 18 19  1  0
 19 20  1  0
 20 21  1  0
 21 22  1  0
 22 23  1  0
 23 24  2  0
 24 25  1  0
 25 26  2  0
 25 27  1  0
 27 28  2  0
 28 29  1  0
 29 30  1  1
 29 31  1  0
 31 32  1  6
 31 33  1  0
 33 34  1  0
 33 35  1  0
 35 36  1  0
 36 37  1  1
 17 11  1  0
 36 19  1  0
 36 11  1  0
 31 20  1  0
 29 23  1  0
  1 38  1  0
  1 39  1  0
  1 40  1  0
  2 41  1  0
  2 42  1  0
  3 43  1  0
  3 44  1  0
  4 45  1  0
  4 46  1  0
  8 47  1  0
  8 48  1  0
 14 49  1  0
 14 50  1  0
 14 51  1  0
 15 52  1  0
 15 53  1  0
 15 54  1  0
 17 55  1  6
 18 56  1  0
 18 57  1  0
 19 58  1  6
 20 59  1  1
 21 60  1  0
 21 61  1  0
 22 62  1  0
 22 63  1  0
 24 64  1  0
 27 65  1  0
 28 66  1  0
 30 67  1  0
 30 68  1  0
 30 69  1  0
 33 70  1  6
 34 71  1  0
 35 72  1  0
 35 73  1  0
 37 74  1  0
 37 75  1  0
 37 76  1  0
M  END
>  <Binding energies>  (1) 
[-8.0]

>  <Ligand effiencies>  (1) 
[-0.21052631578947367]

>  <Interactions>  (1) 
["V-A:ILE:369:CG2:3237, V-A:ASP:366:CA:3210, H-A:GLU:543:OE2:4910, V-A:ILE:369:CB:3236, V-B:GLU:543:CB:9878, V-B:TYR:539:CE2:9848, V-B:GLU:543:CG:9879, V-A:ASP:366:CG:3213, V-B:TYR:539:CZ:9849, H-B:TYR:539:OH:9850, V-A:GLU:543:CD:4908, V-A:TYR:484:CZ:4347, H-A:GLY:454:N:4050, V-A:HIS:456:CE1:4070, V-A:ILE:369:CD1:3239, V-B:GLU:543:CD:9880, V-A:MET:535:CE:4835, V-A:TYR:539:C:4867, V-A:ASP:366:CB:3212, V-A:ILE:369:CG1:3238, H-A:ARG:545:NH2:4928, V-A:ARG:545:CZ:4926, H-A:GLU:543:OE1:4909, V-A:PRO:540:N:4884, H-A:TYR:539:N:4870, V-A:PRO:540:CA:4883, H-A:TYR:484:OH:4348"]

$$$$
ZINC340077237
     RDKit          3D

 42 43  0  0  0  0  0  0  0  0999 V2000
  129.0920  126.5850   67.2270 C   0  0  0  0  0  0  0  0  0  0  0  0
  129.6760  127.0400   68.5500 C   0  0  0  0  0  0  0  0  0  0  0  0
  130.8960  127.7220   68.6190 C   0  0  0  0  0  0  0  0  0  0  0  0
  131.3370  128.0930   69.8920 C   0  0  0  0  0  0  0  0  0  0  0  0
  130.6330  127.8160   71.0210 N   0  0  0  0  0  0  0  0  0  0  0  0
  129.4600  127.1500   70.8510 C   0  0  0  0  0  0  0  0  0  0  0  0
  128.6790  126.8530   72.1330 C   0  0  0  0  0  0  0  0  0  0  0  0
  129.2570  125.8330   73.0230 N   0  0  0  0  0  0  0  0  0  0  0  0
  128.8790  124.5640   72.8620 N   0  0  0  0  0  0  0  0  0  0  0  0
  129.4880  123.8570   73.7980 C   0  0  0  0  0  0  0  0  0  0  0  0
  129.2580  122.3280   73.8690 C   0  0  0  0  0  0  0  0  0  0  0  0
  130.6130  121.5820   73.7970 C   0  0  0  0  0  0  0  0  0  0  0  0
  128.5110  121.9670   75.1750 C   0  0  0  0  0  0  0  0  0  0  0  0
  128.3920  121.8030   72.6870 C   0  0  0  0  0  0  0  0  0  0  0  0
  130.2910  124.6980   74.6240 C   0  0  0  0  0  0  0  0  0  0  0  0
  131.1550  124.3270   75.8240 C   0  0  0  0  0  0  0  0  0  0  0  0
  132.6520  124.4930   75.5290 C   0  0  0  0  0  0  0  0  0  0  0  0
  133.0410  125.8970   75.3260 C   0  0  0  0  0  0  0  0  0  0  0  0
  133.3480  127.0010   75.1660 N   0  0  0  0  0  0  0  0  0  0  0  0
  130.1060  125.9740   74.0920 C   0  0  0  0  0  0  0  0  0  0  0  0
  130.5850  127.0930   74.4760 O   0  0  0  0  0  0  0  0  0  0  0  0
  128.9430  126.7450   69.6560 N   0  0  0  0  0  0  0  0  0  0  0  0
  128.2368  125.9187   67.4135 H   0  0  0  0  0  0  0  0  0  0  0  0
  128.7557  127.4616   66.6538 H   0  0  0  0  0  0  0  0  0  0  0  0
  129.8597  126.0446   66.6538 H   0  0  0  0  0  0  0  0  0  0  0  0
  131.4791  127.9546   67.7157 H   0  0  0  0  0  0  0  0  0  0  0  0
  132.2922  128.6308   69.9840 H   0  0  0  0  0  0  0  0  0  0  0  0
  128.6002  127.7904   72.7031 H   0  0  0  0  0  0  0  0  0  0  0  0
  127.7136  126.4427   71.8019 H   0  0  0  0  0  0  0  0  0  0  0  0
  130.9761  121.3821   74.8159 H   0  0  0  0  0  0  0  0  0  0  0  0
  130.4796  120.6302   73.2620 H   0  0  0  0  0  0  0  0  0  0  0  0
  131.3459  122.2038   73.2620 H   0  0  0  0  0  0  0  0  0  0  0  0
  129.1222  122.2624   76.0406 H   0  0  0  0  0  0  0  0  0  0  0  0
  127.5491  122.4997   75.2064 H   0  0  0  0  0  0  0  0  0  0  0  0
  128.3307  120.8823   75.2064 H   0  0  0  0  0  0  0  0  0  0  0  0
  127.5145  121.2710   73.0833 H   0  0  0  0  0  0  0  0  0  0  0  0
  128.0591  122.6515   72.0712 H   0  0  0  0  0  0  0  0  0  0  0  0
  128.9903  121.1154   72.0712 H   0  0  0  0  0  0  0  0  0  0  0  0
  130.8857  124.9767   76.6698 H   0  0  0  0  0  0  0  0  0  0  0  0
  130.9710  123.2686   76.0604 H   0  0  0  0  0  0  0  0  0  0  0  0
  133.2242  124.0889   76.3771 H   0  0  0  0  0  0  0  0  0  0  0  0
  132.8676  123.9515   74.5961 H   0  0  0  0  0  0  0  0  0  0  0  0
  1  2  1  0
  2  3  2  0
  3  4  1  0
  4  5  2  0
  5  6  1  0
  6  7  1  0
  7  8  1  0
  8  9  1  0
  9 10  2  0
 10 11  1  0
 11 12  1  0
 11 13  1  0
 11 14  1  0
 10 15  1  0
 15 16  1  0
 16 17  1  0
 17 18  1  0
 18 19  3  0
 15 20  2  0
 20 21  1  0
  6 22  2  0
 22  2  1  0
 20  8  1  0
  1 23  1  0
  1 24  1  0
  1 25  1  0
  3 26  1  0
  4 27  1  0
  7 28  1  0
  7 29  1  0
 12 30  1  0
 12 31  1  0
 12 32  1  0
 13 33  1  0
 13 34  1  0
 13 35  1  0
 14 36  1  0
 14 37  1  0
 14 38  1  0
 16 39  1  0
 16 40  1  0
 17 41  1  0
 17 42  1  0
M  CHG  1  21  -1
M  END
>  <Binding energies>  (1) 
[-6.41]

>  <Ligand effiencies>  (1) 
[-0.2913636363636364]

>  <Interactions>  (1) 
["V-A:ARG:545:CA:4919, V-A:GLU:543:CA:4904, V-B:GLU:543:C:9874, V-A:GLU:543:C:4902, V-B:GLU:543:CB:9878, H-B:LYS:547:NZ:9923, V-B:GLU:543:CG:9879, V-A:GLY:544:C:4912, V-A:HIS:456:CD2:4068, V-A:HIS:456:CB:4065, V-B:LYS:547:CE:9922, V-A:ASP:473:CG:4240, V-A:GLU:543:CD:4908, V-A:ARG:545:CG:4922, V-A:HIS:456:CE1:4070, V-B:GLY:544:CA:9886, V-A:GLU:543:CG:4907, V-B:GLU:543:CD:9880, H-A:LYS:547:NZ:4951, V-A:TYR:484:CB:4341, V-A:GLU:543:CB:4906, V-A:HIS:456:CG:4066"]

$$$$
ZINC340077237-again1
     RDKit          3D

 43 44  0  0  0  0  0  0  0  0999 V2000
  132.9960  124.0600   62.2220 C   0  0  0  0  0  0  0  0  0  0  0  0
  132.5120  122.7470   61.6380 C   0  0  0  0  0  0  0  0  0  0  0  0
  133.3910  121.8430   61.0310 C   0  0  0  0  0  0  0  0  0  0  0  0
  132.8340  120.6670   60.5250 C   0  0  0  0  0  0  0  0  0  0  0  0
  131.5040  120.3930   60.6050 N   0  0  0  0  0  0  0  0  0  0  0  0
  130.7320  121.3310   61.2160 C   0  0  0  0  0  0  0  0  0  0  0  0
  129.2390  121.0080   61.2890 C   0  0  0  0  0  0  0  0  0  0  0  0
  128.3380  121.9920   60.6830 N   0  0  0  0  0  0  0  0  0  0  0  0
  128.3500  122.1710   59.3620 N   0  0  0  0  0  0  0  0  0  0  0  0
  127.4930  123.1470   59.1010 C   0  0  0  0  0  0  0  0  0  0  0  0
  127.2610  123.5930   57.6370 C   0  0  0  0  0  0  0  0  0  0  0  0
  125.7810  123.9920   57.4410 C   0  0  0  0  0  0  0  0  0  0  0  0
  128.1830  124.7850   57.2870 C   0  0  0  0  0  0  0  0  0  0  0  0
  127.5800  122.4610   56.6190 C   0  0  0  0  0  0  0  0  0  0  0  0
  126.8930  123.6270   60.3000 C   0  0  0  0  0  0  0  0  0  0  0  0
  125.8600  124.7170   60.5110 C   0  0  0  0  0  0  0  0  0  0  0  0
  126.5140  126.1000   60.6500 C   0  0  0  0  0  0  0  0  0  0  0  0
  126.4980  126.8650   59.3930 C   0  0  0  0  0  0  0  0  0  0  0  0
  126.4870  127.4670   58.4050 N   0  0  0  0  0  0  0  0  0  0  0  0
  127.4810  122.8620   61.2940 C   0  0  0  0  0  0  0  0  0  0  0  0
  127.3430  122.8560   62.6580 O   0  0  0  0  0  0  0  0  0  0  0  0
  131.1770  122.5080   61.7400 N   0  0  0  0  0  0  0  0  0  0  0  0
  132.9749  124.0027   63.3203 H   0  0  0  0  0  0  0  0  0  0  0  0
  134.0248  124.2542   61.8847 H   0  0  0  0  0  0  0  0  0  0  0  0
  132.3394  124.8755   61.8847 H   0  0  0  0  0  0  0  0  0  0  0  0
  134.4689  122.0490   60.9561 H   0  0  0  0  0  0  0  0  0  0  0  0
  133.4966  119.9333   60.0427 H   0  0  0  0  0  0  0  0  0  0  0  0
  129.0776  120.0460   60.7805 H   0  0  0  0  0  0  0  0  0  0  0  0
  128.9899  120.9985   62.3604 H   0  0  0  0  0  0  0  0  0  0  0  0
  125.3028  124.1209   58.4232 H   0  0  0  0  0  0  0  0  0  0  0  0
  125.7271  124.9367   56.8801 H   0  0  0  0  0  0  0  0  0  0  0  0
  125.2595  123.2024   56.8801 H   0  0  0  0  0  0  0  0  0  0  0  0
  128.5451  125.2531   58.2143 H   0  0  0  0  0  0  0  0  0  0  0  0
  129.0402  124.4252   56.6989 H   0  0  0  0  0  0  0  0  0  0  0  0
  127.6193  125.5242   56.6989 H   0  0  0  0  0  0  0  0  0  0  0  0
  127.8393  121.5409   57.1632 H   0  0  0  0  0  0  0  0  0  0  0  0
  126.6987  122.2772   55.9870 H   0  0  0  0  0  0  0  0  0  0  0  0
  128.4276  122.7644   55.9870 H   0  0  0  0  0  0  0  0  0  0  0  0
  125.1757  124.7312   59.6499 H   0  0  0  0  0  0  0  0  0  0  0  0
  125.3169  124.4992   61.4425 H   0  0  0  0  0  0  0  0  0  0  0  0
  125.9697  126.6712   61.4165 H   0  0  0  0  0  0  0  0  0  0  0  0
  127.5661  125.9432   60.9300 H   0  0  0  0  0  0  0  0  0  0  0  0
  126.8430  123.6190   62.9550 H   0  0  0  0  0  0  0  0  0  0  0  0
  1  2  1  0
  2  3  2  0
  3  4  1  0
  4  5  2  0
  5  6  1  0
  6  7  1  0
  7  8  1  0
  8  9  1  0
  9 10  2  0
 10 11  1  0
 11 12  1  0
 11 13  1  0
 11 14  1  0
 10 15  1  0
 15 16  1  0
 16 17  1  0
 17 18  1  0
 18 19  3  0
 15 20  2  0
 20 21  1  0
  6 22  2  0
 22  2  1  0
 20  8  1  0
  1 23  1  0
  1 24  1  0
  1 25  1  0
  3 26  1  0
  4 27  1  0
  7 28  1  0
  7 29  1  0
 12 30  1  0
 12 31  1  0
 12 32  1  0
 13 33  1  0
 13 34  1  0
 13 35  1  0
 14 36  1  0
 14 37  1  0
 14 38  1  0
 16 39  1  0
 16 40  1  0
 17 41  1  0
 17 42  1  0
 21 43  1  0
M  END
>  <Binding energies>  (1) 
[-6.19]

>  <Ligand effiencies>  (1) 
[-0.26913043478260873]

>  <Interactions>  (1) 
["V-A:ILE:369:CG2:3237, V-B:TYR:539:CA:9841, V-B:PRO:540:CA:9855, V-B:ALA:541:CB:9864, V-B:ASP:366:CG:8184, V-B:TYR:539:CE2:9848, V-B:TYR:539:C:9839, V-B:TYR:539:CZ:9849, H-B:GLU:543:OE1:9881, H-B:ALA:541:N:9863, V-B:PRO:540:CB:9857, V-B:PRO:540:N:9856, V-B:TYR:539:CD2:9846, V-A:SER:385:CB:3409, H-A:SER:385:OG:3410, H-B:TYR:531:OH:9767, V-A:LEU:475:CD2:4259, V-B:TYR:539:CG:9844, V-B:TYR:539:CD1:9845, V-B:PRO:540:C:9853, V-B:TYR:539:CE1:9847"]

$$$$
ZINC340838
     RDKit          3D

 36 37  0  0  0  0  0  0  0  0999 V2000
  125.6790  132.3320   63.2490 C   0  0  0  0  0  0  0  0  0  0  0  0
  126.4550  131.9200   62.1280 O   0  0  0  0  0  0  0  0  0  0  0  0
  127.4120  132.8300   61.6370 C   0  0  0  0  0  0  0  0  0  0  0  0
  126.7740  134.0600   61.4390 O   0  0  0  0  0  0  0  0  0  0  0  0
  125.4730  133.9990   60.8680 C   0  0  0  0  0  0  0  0  0  0  0  0
  128.7110  132.9010   62.4960 C   0  0  1  0  0  0  0  0  0  0  0  0
  128.5190  132.5260   63.9080 C   0  0  0  0  0  0  0  0  0  0  0  0
  128.3690  132.2340   65.0170 N   0  0  0  0  0  0  0  0  0  0  0  0
  129.2470  131.7430   61.6310 C   0  0  2  0  0  0  0  0  0  0  0  0
  130.7500  131.7040   61.4260 C   0  0  0  0  0  0  0  0  0  0  0  0
  131.5740  131.2710   60.3940 C   0  0  0  0  0  0  0  0  0  0  0  0
  132.8900  131.4940   60.7990 C   0  0  0  0  0  0  0  0  0  0  0  0
  132.8160  132.0560   62.0600 C   0  0  0  0  0  0  0  0  0  0  0  0
  131.5190  132.1860   62.4380 O   0  0  0  0  0  0  0  0  0  0  0  0
  128.3680  132.3450   60.4810 C   0  0  0  0  0  0  0  0  0  0  0  0
  127.8000  131.4350   59.5810 O   0  0  0  0  0  0  0  0  0  0  0  0
  126.4950  131.7330   59.1030 C   0  0  0  0  0  0  0  0  0  0  0  0
  129.0400  133.3390   59.7430 O   0  0  0  0  0  0  0  0  0  0  0  0
  129.4330  133.0210   58.4100 C   0  0  0  0  0  0  0  0  0  0  0  0
  126.2002  132.0553   64.1773 H   0  0  0  0  0  0  0  0  0  0  0  0
  125.5399  133.4227   63.2177 H   0  0  0  0  0  0  0  0  0  0  0  0
  124.6976  131.8362   63.2177 H   0  0  0  0  0  0  0  0  0  0  0  0
  124.7216  133.9638   61.6706 H   0  0  0  0  0  0  0  0  0  0  0  0
  125.3035  134.8902   60.2459 H   0  0  0  0  0  0  0  0  0  0  0  0
  125.3876  133.0959   60.2459 H   0  0  0  0  0  0  0  0  0  0  0  0
  129.2627  133.8426   62.6338 H   0  0  0  0  0  0  0  0  0  0  0  0
  129.1688  130.6857   61.9241 H   0  0  0  0  0  0  0  0  0  0  0  0
  131.2495  130.8346   59.4378 H   0  0  0  0  0  0  0  0  0  0  0  0
  133.8035  131.2680   60.2294 H   0  0  0  0  0  0  0  0  0  0  0  0
  133.6824  132.3544   62.6685 H   0  0  0  0  0  0  0  0  0  0  0  0
  125.8183  131.8875   59.9564 H   0  0  0  0  0  0  0  0  0  0  0  0
  126.5283  132.6467   58.4913 H   0  0  0  0  0  0  0  0  0  0  0  0
  126.1284  130.8954   58.4913 H   0  0  0  0  0  0  0  0  0  0  0  0
  130.2879  132.3292   58.4349 H   0  0  0  0  0  0  0  0  0  0  0  0
  128.5922  132.5460   57.8833 H   0  0  0  0  0  0  0  0  0  0  0  0
  129.7221  133.9424   57.8833 H   0  0  0  0  0  0  0  0  0  0  0  0
  1  2  1  0
  2  3  1  0
  3  4  1  0
  4  5  1  0
  3  6  1  0
  6  7  1  0
  7  8  3  0
  6  9  1  0
  9 10  1  0
 10 11  2  0
 11 12  1  0
 12 13  2  0
 13 14  1  0
  9 15  1  0
 15 16  1  0
 16 17  1  0
 15 18  1  0
 18 19  1  0
 15  3  1  0
 14 10  1  0
  1 20  1  0
  1 21  1  0
  1 22  1  0
  5 23  1  0
  5 24  1  0
  5 25  1  0
  6 26  1  1
  9 27  1  1
 11 28  1  0
 12 29  1  0
 13 30  1  0
 17 31  1  0
 17 32  1  0
 17 33  1  0
 19 34  1  0
 19 35  1  0
 19 36  1  0
M  END
>  <Binding energies>  (1) 
[-4.47]

>  <Ligand effiencies>  (1) 
[-0.23526315789473684]

>  <Interactions>  (1) 
["V-A:TYR:539:CD1:4873, V-A:PRO:540:N:4884, V-A:PRO:540:CB:4885, V-A:PRO:540:CA:4883, H-A:ALA:541:N:4891, V-A:ALA:541:CB:4892, V-A:PRO:540:C:4881, V-A:GLU:543:CG:4907, V-A:TYR:539:C:4867, H-B:TYR:484:OH:9319, V-B:LEU:475:CD2:9230, V-A:TYR:539:CE1:4875, V-A:ASN:362:CB:3176"]

$$$$
ZINC34110309
     RDKit          3D

 77 77  0  0  0  0  0  0  0  0999 V2000
  128.1870  133.3480   60.9210 C   0  0  0  0  0  0  0  0  0  0  0  0
  128.6030  132.5310   61.9040 C   0  0  0  0  0  0  0  0  0  0  0  0
  128.0270  132.6170   63.3110 C   0  0  0  0  0  0  0  0  0  0  0  0
  129.6860  131.4790   61.6640 C   0  0  2  0  0  0  0  0  0  0  0  0
  129.2500  130.0380   62.0350 C   0  0  0  0  0  0  0  0  0  0  0  0
  129.9760  128.9370   61.2190 C   0  0  0  0  0  0  0  0  0  0  0  0
  129.5660  127.4460   61.4900 C   0  0  1  0  0  0  0  0  0  0  0  0
  128.0110  127.4070   61.3530 C   0  0  0  0  0  0  0  0  0  0  0  0
  130.1700  126.5630   60.3450 C   0  0  0  0  0  0  0  0  0  0  0  0
  129.6840  125.1230   60.2100 C   0  0  0  0  0  0  0  0  0  0  0  0
  129.4100  124.2690   61.2170 C   0  0  0  0  0  0  0  0  0  0  0  0
  128.8690  122.8900   60.8320 C   0  0  0  0  0  0  0  0  0  0  0  0
  127.5220  122.9810   60.3790 O   0  0  0  0  0  0  0  0  0  0  0  0
  126.5530  123.4500   61.1890 C   0  0  0  0  0  0  0  0  0  0  0  0
  125.9360  124.7380   60.6610 C   0  0  0  0  0  0  0  0  0  0  0  0
  126.1720  122.9400   62.2430 O   0  0  0  0  0  0  0  0  0  0  0  0
  129.5870  124.4540   62.6670 C   0  0  0  0  0  0  0  0  0  0  0  0
  129.0200  123.7090   63.4670 O   0  0  0  0  0  0  0  0  0  0  0  0
  130.5360  125.5520   63.1910 C   0  0  1  0  0  0  0  0  0  0  0  0
  132.0090  125.3330   62.7270 C   0  0  0  0  0  0  0  0  0  0  0  0
  132.8150  124.3850   63.6240 C   0  0  0  0  0  0  0  0  0  0  0  0
  132.2650  122.9810   63.8520 C   0  0  0  0  0  0  0  0  0  0  0  0
  133.8650  124.7480   64.1500 O   0  0  0  0  0  0  0  0  0  0  0  0
  130.0170  127.0170   62.9540 C   0  0  2  0  0  0  0  0  0  0  0  0
  129.0560  127.5190   64.0430 C   0  0  0  0  0  0  0  0  0  0  0  0
  129.0420  127.1690   65.3420 C   0  0  0  0  0  0  0  0  0  0  0  0
  128.1460  127.6650   66.2340 O   0  0  0  0  0  0  0  0  0  0  0  0
  128.3490  128.8670   66.8500 C   0  0  0  0  0  0  0  0  0  0  0  0
  128.2420  129.9720   66.3100 O   0  0  0  0  0  0  0  0  0  0  0  0
  128.6620  128.6750   68.2650 C   0  0  0  0  0  0  0  0  0  0  0  0
  129.4970  127.7550   68.8090 C   0  0  0  0  0  0  0  0  0  0  0  0
  129.7300  127.7250   70.3110 C   0  0  0  0  0  0  0  0  0  0  0  0
  130.2580  126.6640   68.0610 C   0  0  0  0  0  0  0  0  0  0  0  0
  130.8650  131.8500   62.3850 O   0  0  0  0  0  0  0  0  0  0  0  0
  132.0930  131.8280   61.8150 C   0  0  0  0  0  0  0  0  0  0  0  0
  132.0380  131.4430   60.3420 C   0  0  0  0  0  0  0  0  0  0  0  0
  133.1610  132.0790   62.3730 O   0  0  0  0  0  0  0  0  0  0  0  0
  128.6215  133.2626   59.9141 H   0  0  0  0  0  0  0  0  0  0  0  0
  127.4121  134.1020   61.1235 H   0  0  0  0  0  0  0  0  0  0  0  0
  128.8360  132.4962   64.0464 H   0  0  0  0  0  0  0  0  0  0  0  0
  127.5471  133.5968   63.4515 H   0  0  0  0  0  0  0  0  0  0  0  0
  127.2818  131.8202   63.4515 H   0  0  0  0  0  0  0  0  0  0  0  0
  129.8850  131.4573   60.5824 H   0  0  0  0  0  0  0  0  0  0  0  0
  129.4611  129.8753   63.1022 H   0  0  0  0  0  0  0  0  0  0  0  0
  128.1781  129.9566   61.8018 H   0  0  0  0  0  0  0  0  0  0  0  0
  129.7923  129.1410   60.1538 H   0  0  0  0  0  0  0  0  0  0  0  0
  131.0276  129.0008   61.5353 H   0  0  0  0  0  0  0  0  0  0  0  0
  127.5549  127.3956   62.3539 H   0  0  0  0  0  0  0  0  0  0  0  0
  127.6688  128.2968   60.8043 H   0  0  0  0  0  0  0  0  0  0  0  0
  127.7139  126.5011   60.8043 H   0  0  0  0  0  0  0  0  0  0  0  0
  129.9533  127.0705   59.3934 H   0  0  0  0  0  0  0  0  0  0  0  0
  131.2338  126.4672   60.6081 H   0  0  0  0  0  0  0  0  0  0  0  0
  129.5428  124.7429   59.1875 H   0  0  0  0  0  0  0  0  0  0  0  0
  129.4917  122.4704   60.0282 H   0  0  0  0  0  0  0  0  0  0  0  0
  128.8983  122.2407   61.7194 H   0  0  0  0  0  0  0  0  0  0  0  0
  125.6321  125.3725   61.5066 H   0  0  0  0  0  0  0  0  0  0  0  0
  126.6751  125.2740   60.0475 H   0  0  0  0  0  0  0  0  0  0  0  0
  125.0551  124.4980   60.0475 H   0  0  0  0  0  0  0  0  0  0  0  0
  130.5371  125.4411   64.2854 H   0  0  0  0  0  0  0  0  0  0  0  0
  131.9920  124.9146   61.7098 H   0  0  0  0  0  0  0  0  0  0  0  0
  132.5054  126.3134   62.7755 H   0  0  0  0  0  0  0  0  0  0  0  0
  132.1893  122.7878   64.9323 H   0  0  0  0  0  0  0  0  0  0  0  0
  131.2682  122.8988   63.3941 H   0  0  0  0  0  0  0  0  0  0  0  0
  132.9408  122.2436   63.3941 H   0  0  0  0  0  0  0  0  0  0  0  0
  130.9648  127.5664   63.0537 H   0  0  0  0  0  0  0  0  0  0  0  0
  128.2942  128.2459   63.7248 H   0  0  0  0  0  0  0  0  0  0  0  0
  129.7916  126.4471   65.6984 H   0  0  0  0  0  0  0  0  0  0  0  0
  128.1624  129.3555   68.9702 H   0  0  0  0  0  0  0  0  0  0  0  0
  128.7700  127.8486   70.8335 H   0  0  0  0  0  0  0  0  0  0  0  0
  130.1796  126.7615   70.5931 H   0  0  0  0  0  0  0  0  0  0  0  0
  130.4090  128.5431   70.5931 H   0  0  0  0  0  0  0  0  0  0  0  0
  130.7317  125.9849   68.7853 H   0  0  0  0  0  0  0  0  0  0  0  0
  129.5588  126.0965   67.4293 H   0  0  0  0  0  0  0  0  0  0  0  0
  131.0321  127.1242   67.4293 H   0  0  0  0  0  0  0  0  0  0  0  0
  131.8830  130.3577   60.2522 H   0  0  0  0  0  0  0  0  0  0  0  0
  131.2065  131.9737   59.8551 H   0  0  0  0  0  0  0  0  0  0  0  0
  132.9848  131.7196   59.8551 H   0  0  0  0  0  0  0  0  0  0  0  0
  1  2  2  0
  2  3  1  0
  2  4  1  0
  4  5  1  0
  5  6  1  0
  7  6  1  6
  7  8  1  0
  7  9  1  0
  9 10  1  0
 10 11  2  0
 11 12  1  0
 12 13  1  0
 13 14  1  0
 14 15  1  0
 14 16  2  0
 11 17  1  0
 17 18  2  0
 17 19  1  0
 19 20  1  0
 20 21  1  0
 21 22  1  0
 21 23  2  0
 19 24  1  0
 24 25  1  0
 25 26  2  0
 26 27  1  0
 27 28  1  0
 28 29  2  0
 28 30  1  0
 30 31  2  3
 31 32  1  0
 31 33  1  0
  4 34  1  0
 34 35  1  0
 35 36  1  0
 35 37  2  0
 24  7  1  0
  1 38  1  0
  1 39  1  0
  3 40  1  0
  3 41  1  0
  3 42  1  0
  4 43  1  6
  5 44  1  0
  5 45  1  0
  6 46  1  0
  6 47  1  0
  8 48  1  0
  8 49  1  0
  8 50  1  0
  9 51  1  0
  9 52  1  0
 10 53  1  0
 12 54  1  0
 12 55  1  0
 15 56  1  0
 15 57  1  0
 15 58  1  0
 19 59  1  1
 20 60  1  0
 20 61  1  0
 22 62  1  0
 22 63  1  0
 22 64  1  0
 24 65  1  1
 25 66  1  0
 26 67  1  0
 30 68  1  0
 32 69  1  0
 32 70  1  0
 32 71  1  0
 33 72  1  0
 33 73  1  0
 33 74  1  0
 36 75  1  0
 36 76  1  0
 36 77  1  0
M  END
>  <Binding energies>  (1) 
[-5.35]

>  <Ligand effiencies>  (1) 
[-0.13717948717948716]

>  <Interactions>  (1) 
["V-B:PRO:540:CA:9855, V-A:GLY:454:CA:4049, H-A:ALA:541:N:4891, V-A:PRO:540:C:4881, H-A:ARG:545:NH1:4927, V-B:LEU:475:CD2:9230, V-B:GLU:543:CG:9879, V-A:TYR:539:CD1:4873, V-A:ALA:541:CB:4892, H-B:ALA:541:N:9863, V-A:GLU:543:CD:4908, V-B:PRO:540:CB:9857, H-B:TYR:484:OH:9319, V-B:HIS:456:CE1:9041, H-A:GLY:454:N:4050, V-A:HIS:456:CE1:4070, V-A:GLU:543:CG:4907, V-B:GLU:543:CD:9880, V-A:TYR:539:C:4867, V-A:LEU:475:CD2:4259, H-A:ARG:545:NH2:4928, V-A:GLU:543:CB:4906, V-A:PRO:540:CB:4885, V-A:PRO:540:CA:4883, H-A:ARG:545:NE:4924, H-A:TYR:484:OH:4348"]

$$$$
ZINC34171944
     RDKit          3D

 83 87  0  0  0  0  0  0  0  0999 V2000
  128.4870  129.1180   66.7390 C   0  0  0  0  0  0  0  0  0  0  0  0
  128.4800  127.8250   66.3610 C   0  0  0  0  0  0  0  0  0  0  0  0
  128.5770  127.4250   64.8960 C   0  0  0  0  0  0  0  0  0  0  0  0
  129.8580  126.6000   64.7070 C   0  0  0  0  0  0  0  0  0  0  0  0
  129.8920  125.3420   65.6150 C   0  0  1  0  0  0  0  0  0  0  0  0
  131.1490  124.4840   65.2700 C   0  0  0  0  0  0  0  0  0  0  0  0
  131.7580  124.7900   63.8840 C   0  0  0  0  0  0  0  0  0  0  0  0
  131.4820  123.7050   62.8100 C   0  0  2  0  0  0  0  0  0  0  0  0
  131.6930  124.2320   61.3800 C   0  0  0  0  0  0  0  0  0  0  0  0
  130.5620  125.1910   60.9730 C   0  0  0  0  0  0  0  0  0  0  0  0
  129.1810  124.5160   61.1290 C   0  0  2  0  0  0  0  0  0  0  0  0
  129.0400  124.0590   62.4600 O   0  0  0  0  0  0  0  0  0  0  0  0
  130.0450  123.1390   62.9090 C   0  0  0  0  0  0  0  0  0  0  0  0
  129.1360  123.3950   60.2400 O   0  0  0  0  0  0  0  0  0  0  0  0
  127.9620  123.2630   59.4590 C   0  0  1  0  0  0  0  0  0  0  0  0
  127.9720  122.1090   58.7140 O   0  0  0  0  0  0  0  0  0  0  0  0
  126.7730  123.2120   60.4400 C   0  0  0  0  0  0  0  0  0  0  0  0
  126.6670  124.6050   61.1140 C   0  0  0  0  0  0  0  0  0  0  0  0
  127.9550  125.4390   60.8190 C   0  0  1  0  0  0  0  0  0  0  0  0
  127.9390  126.7860   61.5660 C   0  0  0  0  0  0  0  0  0  0  0  0
  127.9800  125.6820   59.3950 O   0  0  0  0  0  0  0  0  0  0  0  0
  127.9090  124.5220   58.5290 C   0  0  0  0  0  0  0  0  0  0  0  0
  129.1330  124.5920   57.5840 C   0  0  0  0  0  0  0  0  0  0  0  0
  126.5770  124.6430   57.7480 C   0  0  0  0  0  0  0  0  0  0  0  0
  129.7210  125.7160   67.1450 C   0  0  0  0  0  0  0  0  0  0  0  0
  129.5120  124.4020   67.9550 C   0  0  0  0  0  0  0  0  0  0  0  0
  130.9530  126.5160   67.6530 C   0  0  0  0  0  0  0  0  0  0  0  0
  128.4110  126.5990   67.2990 C   0  0  1  0  0  0  0  0  0  0  0  0
  127.9970  126.9530   68.7650 C   0  0  0  0  0  0  0  0  0  0  0  0
  129.1080  127.5400   69.6250 C   0  0  0  0  0  0  0  0  0  0  0  0
  129.0860  127.6450   70.9710 C   0  0  0  0  0  0  0  0  0  0  0  0
  130.1920  128.2010   71.7350 C   0  0  0  0  0  0  0  0  0  0  0  0
  131.2960  128.5500   71.3170 O   0  0  0  0  0  0  0  0  0  0  0  0
  129.8040  128.3080   73.0170 O   0  0  0  0  0  0  0  0  0  0  0  0
  128.4240  128.0300   73.1870 C   0  0  0  0  0  0  0  0  0  0  0  0
  128.0020  127.2520   71.9440 C   0  0  2  0  0  0  0  0  0  0  0  0
  127.9700  125.8590   72.1820 O   0  0  0  0  0  0  0  0  0  0  0  0
  128.4156  129.3798   67.8050 H   0  0  0  0  0  0  0  0  0  0  0  0
  128.5641  129.9120   65.9816 H   0  0  0  0  0  0  0  0  0  0  0  0
  127.7009  126.8216   64.6161 H   0  0  0  0  0  0  0  0  0  0  0  0
  128.6051  128.3212   64.2588 H   0  0  0  0  0  0  0  0  0  0  0  0
  129.9195  126.2791   63.6567 H   0  0  0  0  0  0  0  0  0  0  0  0
  130.7107  127.2369   64.9850 H   0  0  0  0  0  0  0  0  0  0  0  0
  129.0215  124.7018   65.4095 H   0  0  0  0  0  0  0  0  0  0  0  0
  131.9170  124.6729   66.0345 H   0  0  0  0  0  0  0  0  0  0  0  0
  130.8213  123.4341   65.2486 H   0  0  0  0  0  0  0  0  0  0  0  0
  131.3393  125.7424   63.5267 H   0  0  0  0  0  0  0  0  0  0  0  0
  132.8488  124.8263   64.0211 H   0  0  0  0  0  0  0  0  0  0  0  0
  132.2082  122.9046   63.0150 H   0  0  0  0  0  0  0  0  0  0  0  0
  132.6529  124.7670   61.3319 H   0  0  0  0  0  0  0  0  0  0  0  0
  131.6930  123.3769   60.6881 H   0  0  0  0  0  0  0  0  0  0  0  0
  130.6001  126.0845   61.6134 H   0  0  0  0  0  0  0  0  0  0  0  0
  130.6998  125.4675   59.9173 H   0  0  0  0  0  0  0  0  0  0  0  0
  129.8415  122.8852   63.9598 H   0  0  0  0  0  0  0  0  0  0  0  0
  129.9963  122.2577   62.2525 H   0  0  0  0  0  0  0  0  0  0  0  0
  128.0210  121.3690   59.3230 H   0  0  0  0  0  0  0  0  0  0  0  0
  125.8448  122.9869   59.8943 H   0  0  0  0  0  0  0  0  0  0  0  0
  126.9257  122.4263   61.1945 H   0  0  0  0  0  0  0  0  0  0  0  0
  125.7896  125.1364   60.7167 H   0  0  0  0  0  0  0  0  0  0  0  0
  126.5621  124.4738   62.2011 H   0  0  0  0  0  0  0  0  0  0  0  0
  127.9412  126.6037   62.6508 H   0  0  0  0  0  0  0  0  0  0  0  0
  128.8303  127.3688   61.2903 H   0  0  0  0  0  0  0  0  0  0  0  0
  127.0341  127.3474   61.2903 H   0  0  0  0  0  0  0  0  0  0  0  0
  130.0550  124.6447   58.1816 H   0  0  0  0  0  0  0  0  0  0  0  0
  129.1582  123.6938   56.9495 H   0  0  0  0  0  0  0  0  0  0  0  0
  129.0556  125.4872   56.9495 H   0  0  0  0  0  0  0  0  0  0  0  0
  125.7408  124.7190   58.4587 H   0  0  0  0  0  0  0  0  0  0  0  0
  126.6033  125.5425   57.1153 H   0  0  0  0  0  0  0  0  0  0  0  0
  126.4408  123.7535   57.1153 H   0  0  0  0  0  0  0  0  0  0  0  0
  129.5475  124.6253   69.0315 H   0  0  0  0  0  0  0  0  0  0  0  0
  128.5335  123.9675   67.7027 H   0  0  0  0  0  0  0  0  0  0  0  0
  130.3074  123.6853   67.7027 H   0  0  0  0  0  0  0  0  0  0  0  0
  130.9593  126.5201   68.7530 H   0  0  0  0  0  0  0  0  0  0  0  0
  131.8749  126.0438   67.2828 H   0  0  0  0  0  0  0  0  0  0  0  0
  130.8966  127.5503   67.2828 H   0  0  0  0  0  0  0  0  0  0  0  0
  127.5759  125.9595   66.9771 H   0  0  0  0  0  0  0  0  0  0  0  0
  127.1773  127.6852   68.7204 H   0  0  0  0  0  0  0  0  0  0  0  0
  127.7101  126.0035   69.2405 H   0  0  0  0  0  0  0  0  0  0  0  0
  130.0045  127.9098   69.1058 H   0  0  0  0  0  0  0  0  0  0  0  0
  128.2635  127.4243   74.0911 H   0  0  0  0  0  0  0  0  0  0  0  0
  127.8364  128.9521   73.3071 H   0  0  0  0  0  0  0  0  0  0  0  0
  126.9850  127.4770   71.5904 H   0  0  0  0  0  0  0  0  0  0  0  0
  128.2680  125.4070   71.3880 H   0  0  0  0  0  0  0  0  0  0  0  0
  1  2  2  0
  2  3  1  0
  3  4  1  0
  4  5  1  0
  5  6  1  0
  6  7  1  0
  7  8  1  0
  8  9  1  0
  9 10  1  0
 10 11  1  0
 11 12  1  1
 12 13  1  0
 11 14  1  0
 14 15  1  0
 15 16  1  6
 15 17  1  0
 17 18  1  0
 18 19  1  0
 19 20  1  1
 19 21  1  0
 21 22  1  0
 22 23  1  0
 22 24  1  0
  5 25  1  0
 25 26  1  0
 25 27  1  0
 25 28  1  0
 28 29  1  0
 29 30  1  0
 30 31  2  0
 31 32  1  0
 32 33  2  0
 32 34  1  0
 34 35  1  0
 35 36  1  0
 36 37  1  0
 28  2  1  0
 36 31  1  0
 13  8  1  0
 22 15  1  0
 19 11  1  0
  1 38  1  0
  1 39  1  0
  3 40  1  0
  3 41  1  0
  4 42  1  0
  4 43  1  0
  5 44  1  6
  6 45  1  0
  6 46  1  0
  7 47  1  0
  7 48  1  0
  8 49  1  1
  9 50  1  0
  9 51  1  0
 10 52  1  0
 10 53  1  0
 13 54  1  0
 13 55  1  0
 16 56  1  0
 17 57  1  0
 17 58  1  0
 18 59  1  0
 18 60  1  0
 20 61  1  0
 20 62  1  0
 20 63  1  0
 23 64  1  0
 23 65  1  0
 23 66  1  0
 24 67  1  0
 24 68  1  0
 24 69  1  0
 26 70  1  0
 26 71  1  0
 26 72  1  0
 27 73  1  0
 27 74  1  0
 27 75  1  0
 28 76  1  6
 29 77  1  0
 29 78  1  0
 30 79  1  0
 35 80  1  0
 35 81  1  0
 36 82  1  6
 37 83  1  0
M  END
>  <Binding energies>  (1) 
[-8.47]

>  <Ligand effiencies>  (1) 
[-0.2171794871794872]

>  <Interactions>  (1) 
["V-B:PRO:540:CA:9855, V-B:GLU:543:C:9874, V-B:HIS:456:CD2:9039, H-B:GLU:543:O:9875, V-B:GLU:543:CB:9878, H-B:LYS:547:NZ:9923, V-B:TYR:539:CE2:9848, V-A:TYR:484:CE2:4346, V-B:GLU:543:CG:9879, V-A:GLY:544:C:4912, H-A:ARG:545:N:4920, V-B:TYR:539:CZ:9849, V-A:GLU:543:CD:4908, V-A:TYR:484:CZ:4347, V-B:PRO:540:CB:9857, V-B:HIS:456:CE1:9041, V-B:GLU:543:CA:9876, V-A:TYR:484:CD2:4344, V-A:HIS:456:CE1:4070, V-A:GLU:543:CG:4907, V-B:GLU:543:CD:9880, H-A:LYS:547:NZ:4951, V-A:GLU:543:CB:4906, H-B:TYR:539:O:9840, V-B:PRO:540:C:9853, H-A:GLY:544:N:4915, H-A:HIS:456:NE2:4071"]

$$$$
ZINC34235146-again1
     RDKit          3D

 34 36  0  0  0  0  0  0  0  0999 V2000
  130.7990  126.0870   60.6550 O   0  0  0  0  0  0  0  0  0  0  0  0
  131.7690  125.3780   60.3550 C   0  0  0  0  0  0  0  0  0  0  0  0
  132.3050  125.3160   58.9740 C   0  0  0  0  0  0  0  0  0  0  0  0
  131.9500  126.2500   58.0320 C   0  0  0  0  0  0  0  0  0  0  0  0
  131.1140  127.4780   58.1480 C   0  0  0  0  0  0  0  0  0  0  0  0
  131.7220  128.6420   58.6370 C   0  0  0  0  0  0  0  0  0  0  0  0
  131.0130  129.8350   58.7530 C   0  0  0  0  0  0  0  0  0  0  0  0
  131.8960  131.3790   59.4410 Br  0  0  0  0  0  0  0  0  0  0  0  0
  129.6720  129.8830   58.3650 C   0  0  0  0  0  0  0  0  0  0  0  0
  128.9500  131.0430   58.4680 O   0  0  0  0  0  0  0  0  0  0  0  0
  129.0530  128.7400   57.8600 C   0  0  0  0  0  0  0  0  0  0  0  0
  129.7610  127.5370   57.7420 C   0  0  0  0  0  0  0  0  0  0  0  0
  129.1400  126.5260   57.2680 O   0  0  0  0  0  0  0  0  0  0  0  0
  133.2370  124.2130   58.6810 C   0  0  0  0  0  0  0  0  0  0  0  0
  133.6240  123.9560   57.5260 O   0  0  0  0  0  0  0  0  0  0  0  0
  133.6930  123.4470   59.5930 N   0  0  0  0  0  0  0  0  0  0  0  0
  133.3490  123.5870   60.9320 C   0  0  0  0  0  0  0  0  0  0  0  0
  134.1280  122.5560   62.0040 S   0  0  0  0  0  0  0  0  0  0  0  0
  132.3870  124.5460   61.2850 N   0  0  0  0  0  0  0  0  0  0  0  0
  131.9540  124.6990   62.6320 C   0  0  0  0  0  0  0  0  0  0  0  0
  130.6180  124.4450   62.9650 C   0  0  0  0  0  0  0  0  0  0  0  0
  130.1950  124.5920   64.2840 C   0  0  0  0  0  0  0  0  0  0  0  0
  131.1060  124.9860   65.2630 C   0  0  0  0  0  0  0  0  0  0  0  0
  130.5760  125.1700   66.8960 Cl  0  0  0  0  0  0  0  0  0  0  0  0
  132.4390  125.2320   64.9380 C   0  0  0  0  0  0  0  0  0  0  0  0
  132.8670  125.0870   63.6210 C   0  0  0  0  0  0  0  0  0  0  0  0
  132.3490  126.0601   57.0246 H   0  0  0  0  0  0  0  0  0  0  0  0
  132.7804  128.6128   58.9352 H   0  0  0  0  0  0  0  0  0  0  0  0
  128.6170  131.1920   59.3560 H   0  0  0  0  0  0  0  0  0  0  0  0
  127.9981  128.7835   57.5512 H   0  0  0  0  0  0  0  0  0  0  0  0
  129.9054  124.1307   62.1882 H   0  0  0  0  0  0  0  0  0  0  0  0
  129.1460  124.3979   64.5522 H   0  0  0  0  0  0  0  0  0  0  0  0
  133.1500  125.5395   65.7190 H   0  0  0  0  0  0  0  0  0  0  0  0
  133.9182  125.2764   63.3581 H   0  0  0  0  0  0  0  0  0  0  0  0
  1  2  2  0
  2  3  1  0
  3  4  2  0
  4  5  1  0
  5  6  2  0
  6  7  1  0
  7  8  1  0
  7  9  2  0
  9 10  1  0
  9 11  1  0
 11 12  2  0
 12 13  1  0
  3 14  1  0
 14 15  1  0
 14 16  2  0
 16 17  1  0
 17 18  2  0
 17 19  1  0
 19 20  1  0
 20 21  2  0
 21 22  1  0
 22 23  2  0
 23 24  1  0
 23 25  1  0
 25 26  2  0
 19  2  1  0
 26 20  1  0
 12  5  1  0
  4 27  1  0
  6 28  1  0
 10 29  1  0
 11 30  1  0
 21 31  1  0
 22 32  1  0
 25 33  1  0
 26 34  1  0
M  CHG  2  13  -1  15  -1
M  END
>  <Binding energies>  (1) 
[-5.85]

>  <Ligand effiencies>  (1) 
[-0.21666666666666665]

>  <Interactions>  (1) 
["V-A:ILE:369:CG2:3237, V-A:ASP:366:CA:3210, V-A:ILE:369:CD1:3239, V-A:HIS:456:CE1:4070, V-B:TYR:539:CZ:9849, V-A:GLY:454:CA:4049, H-A:ASN:370:N:3244, V-A:PRO:540:CB:4885, V-A:PRO:540:CA:4883, H-B:TYR:539:OH:9850, V-B:TYR:539:CE2:9848, V-A:TYR:484:CZ:4347, V-A:ASP:366:CB:3212, V-B:GLU:543:CG:9879, V-A:TYR:484:CE2:4346, V-A:ARG:545:CZ:4926, V-A:ASP:366:CG:3213"]

$$$$
ZINC343317323
     RDKit          3D

 36 37  0  0  0  0  0  0  0  0999 V2000
  133.5090  125.1460   65.5160 N   0  0  0  0  0  0  0  0  0  0  0  0
  132.3540  125.1170   65.5770 C   0  0  0  0  0  0  0  0  0  0  0  0
  130.8840  125.0820   65.6560 C   0  0  0  0  0  0  0  0  0  0  0  0
  130.3170  125.3170   67.0730 C   0  0  0  0  0  0  0  0  0  0  0  0
  129.9680  126.8070   67.2800 N   0  0  1  0  0  0  0  0  0  0  0  0
  128.6980  127.2780   66.5470 C   0  0  0  0  0  0  0  0  0  0  0  0
  128.2490  128.5370   67.2910 C   0  0  0  0  0  0  0  0  0  0  0  0
  129.1060  128.6310   68.5540 C   0  0  0  0  0  0  0  0  0  0  0  0
  129.8040  127.2730   68.7420 C   0  0  1  0  0  0  0  0  0  0  0  0
  129.0820  126.3070   69.7170 C   0  0  0  0  0  0  0  0  0  0  0  0
  128.0690  126.9940   70.6560 C   0  0  0  0  0  0  0  0  0  0  0  0
  128.4440  126.8560   72.1420 C   0  0  0  0  0  0  0  0  0  0  0  0
  128.4860  125.4990   72.5250 O   0  0  0  0  0  0  0  0  0  0  0  0
  130.0840  125.5680   64.4660 C   0  0  0  0  0  0  0  0  0  0  0  0
  130.1560  124.0900   64.7760 C   0  0  0  0  0  0  0  0  0  0  0  0
  129.4079  124.7115   67.2034 H   0  0  0  0  0  0  0  0  0  0  0  0
  131.0782  125.0257   67.8118 H   0  0  0  0  0  0  0  0  0  0  0  0
  130.7530  127.3230   66.9060 H   0  0  0  0  0  0  0  0  0  0  0  0
  128.9233  127.5109   65.4958 H   0  0  0  0  0  0  0  0  0  0  0  0
  127.9165  126.5039   66.5399 H   0  0  0  0  0  0  0  0  0  0  0  0
  128.4040  129.4252   66.6608 H   0  0  0  0  0  0  0  0  0  0  0  0
  127.1791  128.4876   67.5419 H   0  0  0  0  0  0  0  0  0  0  0  0
  129.8570  129.4266   68.4398 H   0  0  0  0  0  0  0  0  0  0  0  0
  128.4825  128.8702   69.4281 H   0  0  0  0  0  0  0  0  0  0  0  0
  130.7700  127.3231   69.2658 H   0  0  0  0  0  0  0  0  0  0  0  0
  128.5445  125.5544   69.1215 H   0  0  0  0  0  0  0  0  0  0  0  0
  129.8596  125.8677   70.3592 H   0  0  0  0  0  0  0  0  0  0  0  0
  128.0245  128.0635   70.4027 H   0  0  0  0  0  0  0  0  0  0  0  0
  127.0969  126.4996   70.5127 H   0  0  0  0  0  0  0  0  0  0  0  0
  129.4330  127.3081   72.3077 H   0  0  0  0  0  0  0  0  0  0  0  0
  127.6818  127.3692   72.7467 H   0  0  0  0  0  0  0  0  0  0  0  0
  128.3440  124.9540   71.7470 H   0  0  0  0  0  0  0  0  0  0  0  0
  129.1441  126.1177   64.6225 H   0  0  0  0  0  0  0  0  0  0  0  0
  130.3005  126.1894   63.5845 H   0  0  0  0  0  0  0  0  0  0  0  0
  129.2683  123.5644   65.1577 H   0  0  0  0  0  0  0  0  0  0  0  0
  130.4466  123.1908   64.2129 H   0  0  0  0  0  0  0  0  0  0  0  0
  1  2  3  0
  2  3  1  0
  3  4  1  0
  4  5  1  0
  5  6  1  0
  6  7  1  0
  7  8  1  0
  8  9  1  0
  9 10  1  0
 10 11  1  0
 11 12  1  0
 12 13  1  0
  3 14  1  0
 14 15  1  0
 15  3  1  0
  9  5  1  0
  4 16  1  0
  4 17  1  0
  5 18  1  6
  6 19  1  0
  6 20  1  0
  7 21  1  0
  7 22  1  0
  8 23  1  0
  8 24  1  0
  9 25  1  1
 10 26  1  0
 10 27  1  0
 11 28  1  0
 11 29  1  0
 12 30  1  0
 12 31  1  0
 13 32  1  0
 14 33  1  0
 14 34  1  0
 15 35  1  0
 15 36  1  0
M  CHG  1   5   1
M  END
>  <Binding energies>  (1) 
[-6.3]

>  <Ligand effiencies>  (1) 
[-0.37058823529411766]

>  <Interactions>  (1) 
["V-A:GLU:543:CA:4904, V-B:GLU:543:C:9874, H-A:GLU:543:OE2:4910, H-B:GLU:543:O:9875, V-B:GLU:543:CB:9878, H-B:LYS:547:NZ:9923, V-A:TYR:484:CE2:4346, V-B:GLU:543:CG:9879, V-A:GLU:543:CD:4908, V-A:TYR:484:CZ:4347, V-B:HIS:456:CE1:9041, H-A:GLY:454:N:4050, V-A:HIS:456:CE1:4070, V-A:GLU:543:CG:4907, V-B:GLU:543:CD:9880, H-A:ARG:545:NH2:4928, V-A:ARG:545:CZ:4926, H-A:GLU:543:OE1:4909, V-A:GLU:543:CB:4906, H-A:ARG:545:NE:4924, H-A:HIS:456:NE2:4071, H-A:TYR:484:OH:4348"]

$$$$
ZINC343317323-again1
     RDKit          3D

 35 36  0  0  0  0  0  0  0  0999 V2000
  126.9820  122.0560   56.7040 N   0  0  0  0  0  0  0  0  0  0  0  0
  126.8550  122.8890   57.4970 C   0  0  0  0  0  0  0  0  0  0  0  0
  126.6930  123.9520   58.5060 C   0  0  0  0  0  0  0  0  0  0  0  0
  128.0050  124.3930   59.1920 C   0  0  0  0  0  0  0  0  0  0  0  0
  128.8480  123.2560   59.5730 N   0  0  0  0  0  0  0  0  0  0  0  0
  128.1930  122.3570   60.5160 C   0  0  0  0  0  0  0  0  0  0  0  0
  129.3060  121.4860   61.0930 C   0  0  0  0  0  0  0  0  0  0  0  0
  130.5630  122.3460   60.9570 C   0  0  0  0  0  0  0  0  0  0  0  0
  130.0810  123.6340   60.2640 C   0  0  1  0  0  0  0  0  0  0  0  0
  131.1680  124.3130   59.3980 C   0  0  0  0  0  0  0  0  0  0  0  0
  132.6020  123.8130   59.6850 C   0  0  0  0  0  0  0  0  0  0  0  0
  133.6950  124.5090   58.8550 C   0  0  0  0  0  0  0  0  0  0  0  0
  133.7300  124.0080   57.5340 O   0  0  0  0  0  0  0  0  0  0  0  0
  125.6610  125.0260   58.2380 C   0  0  0  0  0  0  0  0  0  0  0  0
  125.4110  123.9930   59.3120 C   0  0  0  0  0  0  0  0  0  0  0  0
  128.5686  125.0331   58.4973 H   0  0  0  0  0  0  0  0  0  0  0  0
  127.7364  124.9334   60.1117 H   0  0  0  0  0  0  0  0  0  0  0  0
  127.7010  122.9308   61.3152 H   0  0  0  0  0  0  0  0  0  0  0  0
  127.4142  121.7523   60.0283 H   0  0  0  0  0  0  0  0  0  0  0  0
  129.1080  121.2484   62.1486 H   0  0  0  0  0  0  0  0  0  0  0  0
  129.3976  120.5204   60.5741 H   0  0  0  0  0  0  0  0  0  0  0  0
  130.9869  122.5729   61.9464 H   0  0  0  0  0  0  0  0  0  0  0  0
  131.3556  121.8382   60.3878 H   0  0  0  0  0  0  0  0  0  0  0  0
  129.8681  124.4411   60.9805 H   0  0  0  0  0  0  0  0  0  0  0  0
  130.9390  124.1185   58.3398 H   0  0  0  0  0  0  0  0  0  0  0  0
  131.1488  125.3848   59.6449 H   0  0  0  0  0  0  0  0  0  0  0  0
  132.8187  123.9819   60.7501 H   0  0  0  0  0  0  0  0  0  0  0  0
  132.6255  122.7491   59.4065 H   0  0  0  0  0  0  0  0  0  0  0  0
  133.4888  125.5891   58.8238 H   0  0  0  0  0  0  0  0  0  0  0  0
  134.6689  124.3137   59.3277 H   0  0  0  0  0  0  0  0  0  0  0  0
  134.5150  124.3500   57.0990 H   0  0  0  0  0  0  0  0  0  0  0  0
  125.8686  126.0696   58.5168 H   0  0  0  0  0  0  0  0  0  0  0  0
  125.1121  125.3720   57.3497 H   0  0  0  0  0  0  0  0  0  0  0  0
  125.4371  124.2847   60.3723 H   0  0  0  0  0  0  0  0  0  0  0  0
  124.6055  123.2760   59.5290 H   0  0  0  0  0  0  0  0  0  0  0  0
  1  2  3  0
  2  3  1  0
  3  4  1  0
  4  5  1  0
  5  6  1  0
  6  7  1  0
  7  8  1  0
  8  9  1  0
  9 10  1  0
 10 11  1  0
 11 12  1  0
 12 13  1  0
  3 14  1  0
 14 15  1  0
 15  3  1  0
  9  5  1  0
  4 16  1  0
  4 17  1  0
  6 18  1  0
  6 19  1  0
  7 20  1  0
  7 21  1  0
  8 22  1  0
  8 23  1  0
  9 24  1  1
 10 25  1  0
 10 26  1  0
 11 27  1  0
 11 28  1  0
 12 29  1  0
 12 30  1  0
 13 31  1  0
 14 32  1  0
 14 33  1  0
 15 34  1  0
 15 35  1  0
M  END
>  <Binding energies>  (1) 
[-5.53]

>  <Ligand effiencies>  (1) 
[-0.345625]

>  <Interactions>  (1) 
["V-A:ILE:369:CG2:3237, V-A:ASP:366:CA:3210, V-B:PRO:540:CA:9855, V-A:ILE:369:CB:3236, V-B:ALA:541:CB:9864, V-B:TYR:539:CE2:9848, H-B:TYR:539:N:9842, V-B:TYR:539:C:9839, V-A:ASP:366:CG:3213, V-B:TYR:539:CZ:9849, H-A:ASN:370:N:3244, H-B:TYR:539:OH:9850, V-B:PRO:540:CB:9857, V-B:PRO:540:N:9856, V-A:ASP:366:C:3208, V-B:TYR:539:CD2:9846, V-A:ASP:366:CB:3212, H-A:ASP:366:O:3209, V-B:PRO:540:C:9853"]

$$$$
ZINC34419963
     RDKit          3D

 32 33  0  0  0  0  0  0  0  0999 V2000
  125.9040  129.5720   63.6320 C   0  0  0  0  0  0  0  0  0  0  0  0
  125.4800  131.0830   62.7150 S   0  0  0  0  0  0  0  0  0  0  0  0
  126.9260  131.3960   61.7090 C   0  0  0  0  0  0  0  0  0  0  0  0
  126.7330  131.0010   60.4150 N   0  0  0  0  0  0  0  0  0  0  0  0
  127.6870  131.1580   59.5660 C   0  0  0  0  0  0  0  0  0  0  0  0
  127.3980  130.7660   58.4210 O   0  0  0  0  0  0  0  0  0  0  0  0
  128.9210  131.7200   59.9240 N   0  0  0  0  0  0  0  0  0  0  0  0
  129.9770  131.9090   58.9860 C   0  0  0  0  0  0  0  0  0  0  0  0
  131.2170  131.3060   59.2380 C   0  0  0  0  0  0  0  0  0  0  0  0
  132.2770  131.4640   58.3420 C   0  0  0  0  0  0  0  0  0  0  0  0
  133.6150  130.8100   58.6330 C   0  0  0  0  0  0  0  0  0  0  0  0
  132.0970  132.2290   57.1890 C   0  0  0  0  0  0  0  0  0  0  0  0
  130.8660  132.8310   56.9290 C   0  0  0  0  0  0  0  0  0  0  0  0
  129.7970  132.6780   57.8180 C   0  0  0  0  0  0  0  0  0  0  0  0
  128.4660  133.3460   57.4980 C   0  0  0  0  0  0  0  0  0  0  0  0
  129.1960  132.1200   61.2220 C   0  0  0  0  0  0  0  0  0  0  0  0
  130.2660  132.6080   61.6010 O   0  0  0  0  0  0  0  0  0  0  0  0
  128.0920  131.9290   62.1590 C   0  0  0  0  0  0  0  0  0  0  0  0
  128.2350  132.3070   63.5280 C   0  0  0  0  0  0  0  0  0  0  0  0
  128.3330  132.6170   64.6390 N   0  0  0  0  0  0  0  0  0  0  0  0
  125.8482  129.7710   64.7124 H   0  0  0  0  0  0  0  0  0  0  0  0
  125.1955  128.7727   63.3693 H   0  0  0  0  0  0  0  0  0  0  0  0
  126.9250  129.2580   63.3693 H   0  0  0  0  0  0  0  0  0  0  0  0
  131.3564  130.7039   60.1480 H   0  0  0  0  0  0  0  0  0  0  0  0
  133.7596  130.7393   59.7212 H   0  0  0  0  0  0  0  0  0  0  0  0
  133.6332  129.8014   58.1944 H   0  0  0  0  0  0  0  0  0  0  0  0
  134.4221  131.4152   58.1944 H   0  0  0  0  0  0  0  0  0  0  0  0
  132.9297  132.3579   56.4819 H   0  0  0  0  0  0  0  0  0  0  0  0
  130.7347  133.4314   56.0167 H   0  0  0  0  0  0  0  0  0  0  0  0
  127.9509  133.6045   58.4349 H   0  0  0  0  0  0  0  0  0  0  0  0
  128.6458  134.2607   56.9140 H   0  0  0  0  0  0  0  0  0  0  0  0
  127.8401  132.6552   56.9140 H   0  0  0  0  0  0  0  0  0  0  0  0
  1  2  1  0
  2  3  1  0
  3  4  1  0
  4  5  2  0
  5  6  1  0
  5  7  1  0
  7  8  1  0
  8  9  2  0
  9 10  1  0
 10 11  1  0
 10 12  2  0
 12 13  1  0
 13 14  2  0
 14 15  1  0
  7 16  1  0
 16 17  2  0
 16 18  1  0
 18 19  1  0
 19 20  3  0
 18  3  2  0
 14  8  1  0
  1 21  1  0
  1 22  1  0
  1 23  1  0
  9 24  1  0
 11 25  1  0
 11 26  1  0
 11 27  1  0
 12 28  1  0
 13 29  1  0
 15 30  1  0
 15 31  1  0
 15 32  1  0
M  CHG  1   6  -1
M  END
>  <Binding energies>  (1) 
[-5.18]

>  <Ligand effiencies>  (1) 
[-0.259]

>  <Interactions>  (1) 
["H-A:ALA:541:N:4891, V-A:ILE:538:CB:4862, V-A:ASP:366:CG:3213, V-A:LEU:363:CD1:3189, V-A:TYR:539:CD1:4873, V-A:LEU:363:CB:3187, V-A:TYR:539:CZ:4877, V-A:ALA:541:CB:4892, V-A:TYR:539:CA:4869, H-B:TYR:484:OH:9319, V-A:TYR:539:C:4867, V-A:ASP:366:CB:3212, V-A:PRO:540:N:4884, V-A:TYR:539:CG:4872, V-A:PRO:540:CB:4885, V-A:PRO:540:CA:4883, V-A:LEU:363:CA:3185, V-A:TYR:539:CD2:4874, V-A:PRO:540:CD:4887, V-A:TYR:539:CE1:4875"]

$$$$
ZINC345154150
     RDKit          3D

 40 39  0  0  0  0  0  0  0  0999 V2000
  126.4500  133.4860   62.0450 C   0  0  0  0  0  0  0  0  0  0  0  0
  126.7660  132.4200   63.1060 C   0  0  0  0  0  0  0  0  0  0  0  0
  128.1710  132.5750   63.7310 C   0  0  1  0  0  0  0  0  0  0  0  0
  128.3620  131.4900   64.6460 O   0  0  0  0  0  0  0  0  0  0  0  0
  127.6790  130.2820   64.3290 C   0  0  0  0  0  0  0  0  0  0  0  0
  129.2630  132.5600   62.6390 C   0  0  0  0  0  0  0  0  0  0  0  0
  129.3850  133.5110   61.8630 O   0  0  0  0  0  0  0  0  0  0  0  0
  130.0450  131.4660   62.5950 N   0  0  0  0  0  0  0  0  0  0  0  0
  131.1360  131.2300   61.6440 C   0  0  2  0  0  0  0  0  0  0  0  0
  132.4850  131.7470   62.1830 C   0  0  0  0  0  0  0  0  0  0  0  0
  130.8180  131.8270   60.2540 C   0  0  0  0  0  0  0  0  0  0  0  0
  131.6920  131.2670   59.1090 C   0  0  0  0  0  0  0  0  0  0  0  0
  131.1230  131.4940   57.6890 C   0  0  0  0  0  0  0  0  0  0  0  0
  132.1490  131.1900   56.5780 C   0  0  0  0  0  0  0  0  0  0  0  0
  130.5650  132.9220   57.5390 C   0  0  0  0  0  0  0  0  0  0  0  0
  126.1711  134.4268   62.5422 H   0  0  0  0  0  0  0  0  0  0  0  0
  127.3375  133.6524   61.4167 H   0  0  0  0  0  0  0  0  0  0  0  0
  125.6152  133.1418   61.4167 H   0  0  0  0  0  0  0  0  0  0  0  0
  126.0172  132.4937   63.9084 H   0  0  0  0  0  0  0  0  0  0  0  0
  126.7402  131.4424   62.6024 H   0  0  0  0  0  0  0  0  0  0  0  0
  128.2472  133.5387   64.2559 H   0  0  0  0  0  0  0  0  0  0  0  0
  127.3894  129.7698   65.2584 H   0  0  0  0  0  0  0  0  0  0  0  0
  126.7781  130.5134   63.7418 H   0  0  0  0  0  0  0  0  0  0  0  0
  128.3417  129.6293   63.7418 H   0  0  0  0  0  0  0  0  0  0  0  0
  129.9020  130.7470   63.2890 H   0  0  0  0  0  0  0  0  0  0  0  0
  131.2284  130.1407   61.5219 H   0  0  0  0  0  0  0  0  0  0  0  0
  132.4673  131.7402   63.2828 H   0  0  0  0  0  0  0  0  0  0  0  0
  133.2965  131.0961   61.8253 H   0  0  0  0  0  0  0  0  0  0  0  0
  132.6536  132.7735   61.8253 H   0  0  0  0  0  0  0  0  0  0  0  0
  129.7646  131.6138   60.0198 H   0  0  0  0  0  0  0  0  0  0  0  0
  131.0311  132.9043   60.3164 H   0  0  0  0  0  0  0  0  0  0  0  0
  132.6786  131.7503   59.1637 H   0  0  0  0  0  0  0  0  0  0  0  0
  131.7339  130.1776   59.2555 H   0  0  0  0  0  0  0  0  0  0  0  0
  130.2981  130.7769   57.5653 H   0  0  0  0  0  0  0  0  0  0  0  0
  133.1091  130.9055   57.0334 H   0  0  0  0  0  0  0  0  0  0  0  0
  131.7796  130.3627   55.9542 H   0  0  0  0  0  0  0  0  0  0  0  0
  132.2899  132.0850   55.9542 H   0  0  0  0  0  0  0  0  0  0  0  0
  130.3954  133.3560   58.5355 H   0  0  0  0  0  0  0  0  0  0  0  0
  131.2871  133.5418   56.9872 H   0  0  0  0  0  0  0  0  0  0  0  0
  129.6140  132.8880   56.9872 H   0  0  0  0  0  0  0  0  0  0  0  0
  1  2  1  0
  2  3  1  0
  3  4  1  0
  4  5  1  0
  3  6  1  0
  6  7  2  0
  6  8  1  0
  8  9  1  0
  9 10  1  0
  9 11  1  0
 11 12  1  0
 12 13  1  0
 13 14  1  0
 13 15  1  0
  1 16  1  0
  1 17  1  0
  1 18  1  0
  2 19  1  0
  2 20  1  0
  3 21  1  1
  5 22  1  0
  5 23  1  0
  5 24  1  0
  8 25  1  0
  9 26  1  6
 10 27  1  0
 10 28  1  0
 10 29  1  0
 11 30  1  0
 11 31  1  0
 12 32  1  0
 12 33  1  0
 13 34  1  0
 14 35  1  0
 14 36  1  0
 14 37  1  0
 15 38  1  0
 15 39  1  0
 15 40  1  0
M  END
>  <Binding energies>  (1) 
[-4.4]

>  <Ligand effiencies>  (1) 
[-0.275]

>  <Interactions>  (1) 
["V-A:LEU:363:CD1:3189, V-A:PRO:540:N:4884, V-A:PRO:540:CB:4885, V-A:PRO:540:CA:4883, V-A:TYR:531:CE2:4793, H-A:ALA:541:N:4891, V-A:ALA:541:CA:4890, V-A:ALA:541:CB:4892, V-A:GLU:543:CG:4907, V-A:TYR:531:CZ:4794, V-A:GLU:543:CD:4908, V-A:TYR:539:C:4867, H-B:TYR:484:OH:9319, V-A:PRO:540:CD:4887, V-B:LEU:475:CD2:9230, H-A:GLU:543:OE1:4909, V-A:ASN:362:CB:3176"]

$$$$
ZINC34561122
     RDKit          3D

 22 24  0  0  0  0  0  0  0  0999 V2000
  128.0310  126.9780   69.0780 Br  0  0  0  0  0  0  0  0  0  0  0  0
  129.0280  126.4590   67.5430 C   0  0  0  0  0  0  0  0  0  0  0  0
  130.0610  125.5390   67.6490 C   0  0  0  0  0  0  0  0  0  0  0  0
  130.8040  125.1320   66.5940 N   0  0  0  0  0  0  0  0  0  0  0  0
  130.5340  125.6450   65.3510 C   0  0  0  0  0  0  0  0  0  0  0  0
  129.4870  126.5980   65.1520 C   0  0  0  0  0  0  0  0  0  0  0  0
  128.7340  126.9950   66.2930 C   0  0  0  0  0  0  0  0  0  0  0  0
  129.2410  127.1070   63.8470 C   0  0  0  0  0  0  0  0  0  0  0  0
  127.8400  128.3830   63.5680 Br  0  0  0  0  0  0  0  0  0  0  0  0
  130.0120  126.6820   62.7600 C   0  0  0  0  0  0  0  0  0  0  0  0
  129.6520  127.3860   61.0160 Br  0  0  0  0  0  0  0  0  0  0  0  0
  131.0570  125.7340   62.9410 C   0  0  0  0  0  0  0  0  0  0  0  0
  131.8720  125.2670   61.8710 C   0  0  0  0  0  0  0  0  0  0  0  0
  132.8780  124.3390   62.1170 C   0  0  0  0  0  0  0  0  0  0  0  0
  133.9770  123.7040   60.6990 Br  0  0  0  0  0  0  0  0  0  0  0  0
  133.0660  123.8840   63.4150 C   0  0  0  0  0  0  0  0  0  0  0  0
  132.3160  124.2990   64.4620 N   0  0  0  0  0  0  0  0  0  0  0  0
  131.3180  125.2130   64.2460 C   0  0  0  0  0  0  0  0  0  0  0  0
  130.2873  125.1194   68.6403 H   0  0  0  0  0  0  0  0  0  0  0  0
  127.9191  127.7261   66.1864 H   0  0  0  0  0  0  0  0  0  0  0  0
  131.7059  125.6403   60.8497 H   0  0  0  0  0  0  0  0  0  0  0  0
  133.8638  123.1501   63.6015 H   0  0  0  0  0  0  0  0  0  0  0  0
  1  2  1  0
  2  3  2  0
  3  4  1  0
  4  5  2  0
  5  6  1  0
  6  7  2  0
  6  8  1  0
  8  9  1  0
  8 10  2  0
 10 11  1  0
 10 12  1  0
 12 13  2  0
 13 14  1  0
 14 15  1  0
 14 16  2  0
 16 17  1  0
 17 18  2  0
  7  2  1  0
 18 12  1  0
 18  5  1  0
  3 19  1  0
  7 20  1  0
 13 21  1  0
 16 22  1  0
M  END
>  <Binding energies>  (1) 
[-5.83]

>  <Ligand effiencies>  (1) 
[-0.3238888888888889]

>  <Interactions>  (1) 
["V-A:ILE:369:CG2:3237, V-A:HIS:456:CE1:4070, V-A:ILE:369:CD1:3239, V-A:GLY:454:CA:4049, V-B:GLU:543:C:9874, V-B:GLU:543:CB:9878, V-B:GLU:543:CD:9880, V-A:GLU:543:CD:4908, V-B:GLU:543:CG:9879, V-B:HIS:456:CE1:9041, H-A:TYR:484:OH:4348"]

$$$$
ZINC34751925-again1
     RDKit          3D

 55 57  0  0  0  0  0  0  0  0999 V2000
  133.4130  124.0880   58.8880 C   0  0  0  0  0  0  0  0  0  0  0  0
  132.9930  123.8570   60.1490 C   0  0  0  0  0  0  0  0  0  0  0  0
  133.5610  122.6840   60.9520 C   0  0  0  0  0  0  0  0  0  0  0  0
  132.4250  121.7470   61.3880 C   0  0  0  0  0  0  0  0  0  0  0  0
  131.3420  122.4960   62.1740 C   0  0  0  0  0  0  0  0  0  0  0  0
  130.7890  123.7210   61.3870 C   0  0  1  0  0  0  0  0  0  0  0  0
  129.5000  124.3970   62.0360 C   0  0  2  0  0  0  0  0  0  0  0  0
  129.8460  125.0930   63.3870 C   0  0  0  0  0  0  0  0  0  0  0  0
  128.3910  123.3250   62.3490 C   0  0  0  0  0  0  0  0  0  0  0  0
  127.1580  123.1540   61.4300 C   0  0  0  0  0  0  0  0  0  0  0  0
  126.0200  123.2200   61.8960 O   0  0  0  0  0  0  0  0  0  0  0  0
  127.3890  122.9630   59.9900 C   0  0  0  0  0  0  0  0  0  0  0  0
  126.6280  123.3810   58.9610 C   0  0  0  0  0  0  0  0  0  0  0  0
  125.4670  124.0880   58.9930 O   0  0  0  0  0  0  0  0  0  0  0  0
  125.4550  125.2850   58.2160 C   0  0  0  0  0  0  0  0  0  0  0  0
  127.1990  122.9270   57.6360 C   0  0  2  0  0  0  0  0  0  0  0  0
  126.3440  122.0710   56.9240 O   0  0  0  0  0  0  0  0  0  0  0  0
  128.3540  122.2180   58.0380 O   0  0  0  0  0  0  0  0  0  0  0  0
  128.5130  122.2350   59.3880 C   0  0  0  0  0  0  0  0  0  0  0  0
  129.4540  121.6930   59.9700 O   0  0  0  0  0  0  0  0  0  0  0  0
  128.9730  125.4640   60.9970 C   0  0  1  0  0  0  0  0  0  0  0  0
  127.6580  126.1690   61.4020 C   0  0  0  0  0  0  0  0  0  0  0  0
  130.0650  126.5010   60.6410 C   0  0  0  0  0  0  0  0  0  0  0  0
  131.2900  125.8090   60.0130 C   0  0  0  0  0  0  0  0  0  0  0  0
  131.9430  124.7110   60.9190 C   0  0  2  0  0  0  0  0  0  0  0  0
  132.7190  125.4080   62.0780 C   0  0  0  0  0  0  0  0  0  0  0  0
  133.0004  124.9328   58.3169 H   0  0  0  0  0  0  0  0  0  0  0  0
  134.1680  123.4316   58.4308 H   0  0  0  0  0  0  0  0  0  0  0  0
  134.2739  122.1260   60.3271 H   0  0  0  0  0  0  0  0  0  0  0  0
  134.0721  123.0719   61.8455 H   0  0  0  0  0  0  0  0  0  0  0  0
  131.9697  121.2982   60.4929 H   0  0  0  0  0  0  0  0  0  0  0  0
  132.8512  120.9733   62.0436 H   0  0  0  0  0  0  0  0  0  0  0  0
  130.5125  121.8043   62.3823 H   0  0  0  0  0  0  0  0  0  0  0  0
  131.7949  122.8677   63.1050 H   0  0  0  0  0  0  0  0  0  0  0  0
  130.3762  123.3258   60.4471 H   0  0  0  0  0  0  0  0  0  0  0  0
  129.5272  124.4518   64.2220 H   0  0  0  0  0  0  0  0  0  0  0  0
  130.9317  125.2594   63.4462 H   0  0  0  0  0  0  0  0  0  0  0  0
  129.3232  126.0590   63.4462 H   0  0  0  0  0  0  0  0  0  0  0  0
  128.8988  122.3495   62.3738 H   0  0  0  0  0  0  0  0  0  0  0  0
  127.9449  123.7068   63.2792 H   0  0  0  0  0  0  0  0  0  0  0  0
  125.4463  126.1572   58.8863 H   0  0  0  0  0  0  0  0  0  0  0  0
  126.3528  125.3192   57.5814 H   0  0  0  0  0  0  0  0  0  0  0  0
  124.5566  125.3012   57.5814 H   0  0  0  0  0  0  0  0  0  0  0  0
  127.3757  123.7726   56.9550 H   0  0  0  0  0  0  0  0  0  0  0  0
  128.7274  124.8774   60.0995 H   0  0  0  0  0  0  0  0  0  0  0  0
  127.5856  126.2078   62.4989 H   0  0  0  0  0  0  0  0  0  0  0  0
  127.6508  127.1919   60.9976 H   0  0  0  0  0  0  0  0  0  0  0  0
  126.8020  125.6088   60.9976 H   0  0  0  0  0  0  0  0  0  0  0  0
  129.6535  127.2269   59.9242 H   0  0  0  0  0  0  0  0  0  0  0  0
  130.3814  127.0116   61.5625 H   0  0  0  0  0  0  0  0  0  0  0  0
  130.9738  125.3359   59.0716 H   0  0  0  0  0  0  0  0  0  0  0  0
  132.0512  126.5890   59.8640 H   0  0  0  0  0  0  0  0  0  0  0  0
  132.3280  125.0568   63.0443 H   0  0  0  0  0  0  0  0  0  0  0  0
  133.7884  125.1613   62.0037 H   0  0  0  0  0  0  0  0  0  0  0  0
  132.5881  126.4976   62.0037 H   0  0  0  0  0  0  0  0  0  0  0  0
  1  2  2  0
  2  3  1  0
  3  4  1  0
  4  5  1  0
  5  6  1  0
  6  7  1  0
  7  8  1  1
  7  9  1  0
  9 10  1  0
 10 11  2  0
 10 12  1  0
 12 13  2  0
 13 14  1  0
 14 15  1  0
 13 16  1  0
 16 17  1  0
 16 18  1  0
 18 19  1  0
 19 20  2  0
  7 21  1  0
 21 22  1  0
 21 23  1  0
 23 24  1  0
 24 25  1  0
 25 26  1  1
 25  2  1  0
 25  6  1  0
 19 12  1  0
  1 27  1  0
  1 28  1  0
  3 29  1  0
  3 30  1  0
  4 31  1  0
  4 32  1  0
  5 33  1  0
  5 34  1  0
  6 35  1  6
  8 36  1  0
  8 37  1  0
  8 38  1  0
  9 39  1  0
  9 40  1  0
 15 41  1  0
 15 42  1  0
 15 43  1  0
 16 44  1  6
 21 45  1  6
 22 46  1  0
 22 47  1  0
 22 48  1  0
 23 49  1  0
 23 50  1  0
 24 51  1  0
 24 52  1  0
 26 53  1  0
 26 54  1  0
 26 55  1  0
M  CHG  1  17  -1
M  END
>  <Binding energies>  (1) 
[-6.51]

>  <Ligand effiencies>  (1) 
[-0.25038461538461537]

>  <Interactions>  (1) 
["V-A:ILE:369:CG2:3237, V-A:ASP:366:CA:3210, V-B:PRO:540:CA:9855, V-A:ILE:369:CB:3236, V-B:ASP:366:CG:8184, V-B:TYR:539:CE2:9848, H-B:TYR:539:N:9842, V-B:GLU:543:CG:9879, V-B:TYR:539:C:9839, V-A:ASP:366:CG:3213, V-B:TYR:539:CZ:9849, H-B:ALA:541:N:9863, V-B:PRO:540:CB:9857, V-B:PRO:540:N:9856, V-A:ILE:369:CD1:3239, V-B:TYR:539:CD2:9846, V-B:GLU:543:CD:9880, V-A:LEU:475:CD2:4259, V-A:ARG:545:CZ:4926, V-B:TYR:539:CG:9844, V-B:PRO:540:C:9853"]

$$$$
ZINC348997165
     RDKit          3D

 38 38  0  0  0  0  0  0  0  0999 V2000
  130.3160  118.4390   61.3060 C   0  0  0  0  0  0  0  0  0  0  0  0
  131.3480  119.2630   60.5250 C   0  0  0  0  0  0  0  0  0  0  0  0
  131.3460  120.7520   60.9100 C   0  0  0  0  0  0  0  0  0  0  0  0
  132.7620  121.3670   60.9290 C   0  0  0  0  0  0  0  0  0  0  0  0
  132.8680  122.7530   61.6210 C   0  0  2  0  0  0  0  0  0  0  0  0
  133.9930  123.6270   61.0020 C   0  0  0  0  0  0  0  0  0  0  0  0
  133.7270  124.1220   59.5690 C   0  0  0  0  0  0  0  0  0  0  0  0
  133.0210  122.5980   63.1610 C   0  0  0  0  0  0  0  0  0  0  0  0
  132.3020  123.5900   63.9750 N   0  0  0  0  0  0  0  0  0  0  0  0
  132.8450  124.7880   64.3160 C   0  0  0  0  0  0  0  0  0  0  0  0
  134.0370  125.0900   64.3730 O   0  0  0  0  0  0  0  0  0  0  0  0
  131.8420  125.4710   64.8800 N   0  0  0  0  0  0  0  0  0  0  0  0
  130.6160  124.7340   64.9890 C   0  0  2  0  0  0  0  0  0  0  0  0
  130.1530  124.5460   66.4490 C   0  0  0  0  0  0  0  0  0  0  0  0
  130.6480  125.4640   67.2790 F   0  0  0  0  0  0  0  0  0  0  0  0
  131.0190  123.4210   64.3620 C   0  0  0  0  0  0  0  0  0  0  0  0
  130.2940  122.4360   64.2180 O   0  0  0  0  0  0  0  0  0  0  0  0
  130.4819  118.5715   62.3853 H   0  0  0  0  0  0  0  0  0  0  0  0
  129.3027  118.7792   61.0463 H   0  0  0  0  0  0  0  0  0  0  0  0
  130.4235  117.3755   61.0463 H   0  0  0  0  0  0  0  0  0  0  0  0
  132.3483  118.8511   60.7241 H   0  0  0  0  0  0  0  0  0  0  0  0
  131.0813  119.1989   59.4598 H   0  0  0  0  0  0  0  0  0  0  0  0
  130.7334  121.3027   60.1810 H   0  0  0  0  0  0  0  0  0  0  0  0
  130.9373  120.8302   61.9283 H   0  0  0  0  0  0  0  0  0  0  0  0
  133.4293  120.6702   61.4574 H   0  0  0  0  0  0  0  0  0  0  0  0
  133.0409  121.5273   59.8771 H   0  0  0  0  0  0  0  0  0  0  0  0
  131.9253  123.2898   61.4386 H   0  0  0  0  0  0  0  0  0  0  0  0
  134.1321  124.5081   61.6457 H   0  0  0  0  0  0  0  0  0  0  0  0
  134.8816  122.9814   60.9412 H   0  0  0  0  0  0  0  0  0  0  0  0
  133.2066  125.0904   59.6063 H   0  0  0  0  0  0  0  0  0  0  0  0
  134.6833  124.2398   59.0383 H   0  0  0  0  0  0  0  0  0  0  0  0
  133.1010  123.3895   59.0383 H   0  0  0  0  0  0  0  0  0  0  0  0
  132.6509  121.6001   63.4390 H   0  0  0  0  0  0  0  0  0  0  0  0
  134.0892  122.7519   63.3739 H   0  0  0  0  0  0  0  0  0  0  0  0
  131.8540  126.4730   65.0030 H   0  0  0  0  0  0  0  0  0  0  0  0
  129.7583  125.2328   64.5141 H   0  0  0  0  0  0  0  0  0  0  0  0
  129.0549  124.6044   66.4778 H   0  0  0  0  0  0  0  0  0  0  0  0
  130.5236  123.5667   66.7860 H   0  0  0  0  0  0  0  0  0  0  0  0
  1  2  1  0
  2  3  1  0
  3  4  1  0
  4  5  1  0
  5  6  1  0
  6  7  1  0
  5  8  1  0
  8  9  1  0
  9 10  1  0
 10 11  2  0
 10 12  1  0
 12 13  1  0
 13 14  1  0
 14 15  1  0
 13 16  1  0
 16 17  2  0
 16  9  1  0
  1 18  1  0
  1 19  1  0
  1 20  1  0
  2 21  1  0
  2 22  1  0
  3 23  1  0
  3 24  1  0
  4 25  1  0
  4 26  1  0
  5 27  1  1
  6 28  1  0
  6 29  1  0
  7 30  1  0
  7 31  1  0
  7 32  1  0
  8 33  1  0
  8 34  1  0
 12 35  1  0
 13 36  1  6
 14 37  1  0
 14 38  1  0
M  END
>  <Binding energies>  (1) 
[-5.1]

>  <Ligand effiencies>  (1) 
[-0.2833333333333333]

>  <Interactions>  (1) 
["V-A:ILE:369:CG2:3237, V-A:ASP:366:CA:3210, V-A:GLY:454:CA:4049, H-A:GLU:543:OE2:4910, V-A:ILE:369:CB:3236, V-B:GLU:543:CB:9878, H-A:ARG:545:NH1:4927, V-B:TYR:539:CE2:9848, V-A:TYR:484:CE2:4346, V-A:LEU:475:CG:4257, V-B:GLU:543:CG:9879, V-A:GLU:543:CD:4908, V-A:TYR:484:CZ:4347, H-A:GLY:454:N:4050, V-A:ILE:369:CD1:3239, V-A:HIS:456:CE1:4070, V-B:TYR:539:CD2:9846, V-A:ASP:366:CB:3212, V-A:LEU:475:CD2:4259, H-A:ARG:545:NH2:4928, V-A:ARG:545:CZ:4926, H-A:GLU:543:OE1:4909, H-A:ARG:545:NE:4924"]

$$$$
ZINC34904342
     RDKit          3D

 39 42  0  0  0  0  0  0  0  0999 V2000
  133.5830  124.3000   58.6400 C   0  0  0  0  0  0  0  0  0  0  0  0
  133.7020  123.7520   60.0700 C   0  0  0  0  0  0  0  0  0  0  0  0
  132.5420  122.9530   60.4780 N   0  0  0  0  0  0  0  0  0  0  0  0
  132.5950  121.5950   60.6560 C   0  0  0  0  0  0  0  0  0  0  0  0
  133.5540  120.8250   60.6260 O   0  0  0  0  0  0  0  0  0  0  0  0
  131.1310  121.2280   60.7060 C   0  0  1  0  0  0  0  0  0  0  0  0
  130.4930  120.0820   61.4750 C   0  0  2  0  0  0  0  0  0  0  0  0
  130.6090  118.7050   60.8060 C   0  0  0  0  0  0  0  0  0  0  0  0
  129.1050  120.5690   61.6130 N   0  0  0  0  0  0  0  0  0  0  0  0
  129.0870  122.0390   61.4370 C   0  0  2  0  0  0  0  0  0  0  0  0
  128.3850  122.6820   62.6600 C   0  0  0  0  0  0  0  0  0  0  0  0
  128.6360  122.4730   63.8470 O   0  0  0  0  0  0  0  0  0  0  0  0
  127.4590  123.5310   62.1750 N   0  0  0  0  0  0  0  0  0  0  0  0
  127.3540  123.4880   60.7960 C   0  0  0  0  0  0  0  0  0  0  0  0
  126.4740  124.1780   59.9620 C   0  0  0  0  0  0  0  0  0  0  0  0
  126.5110  123.9280   58.5880 C   0  0  0  0  0  0  0  0  0  0  0  0
  127.4100  122.9930   58.0690 C   0  0  0  0  0  0  0  0  0  0  0  0
  128.2860  122.3110   58.9190 C   0  0  0  0  0  0  0  0  0  0  0  0
  128.2590  122.5720   60.2920 C   0  0  0  0  0  0  0  0  0  0  0  0
  130.5950  122.3740   61.4540 C   0  0  2  0  0  0  0  0  0  0  0  0
  131.3110  123.4990   60.7340 C   0  0  0  0  0  0  0  0  0  0  0  0
  130.9070  124.6490   60.5650 O   0  0  0  0  0  0  0  0  0  0  0  0
  133.3497  125.3743   58.6773 H   0  0  0  0  0  0  0  0  0  0  0  0
  134.5347  124.1496   58.1093 H   0  0  0  0  0  0  0  0  0  0  0  0
  132.7793  123.7685   58.1093 H   0  0  0  0  0  0  0  0  0  0  0  0
  134.6006  123.1203   60.1292 H   0  0  0  0  0  0  0  0  0  0  0  0
  133.7605  124.6158   60.7486 H   0  0  0  0  0  0  0  0  0  0  0  0
  130.9341  120.9419   59.6623 H   0  0  0  0  0  0  0  0  0  0  0  0
  130.9940  119.8717   62.4314 H   0  0  0  0  0  0  0  0  0  0  0  0
  130.6746  117.9258   61.5797 H   0  0  0  0  0  0  0  0  0  0  0  0
  129.7228  118.5259   60.1795 H   0  0  0  0  0  0  0  0  0  0  0  0
  131.5127  118.6767   60.1795 H   0  0  0  0  0  0  0  0  0  0  0  0
  128.5260  120.1570   60.8960 H   0  0  0  0  0  0  0  0  0  0  0  0
  126.8580  124.0850   62.7670 H   0  0  0  0  0  0  0  0  0  0  0  0
  125.7631  124.9065   60.3791 H   0  0  0  0  0  0  0  0  0  0  0  0
  125.8308  124.4685   57.9133 H   0  0  0  0  0  0  0  0  0  0  0  0
  127.4287  122.7926   56.9876 H   0  0  0  0  0  0  0  0  0  0  0  0
  128.9921  121.5735   58.5097 H   0  0  0  0  0  0  0  0  0  0  0  0
  130.7425  122.6439   62.5101 H   0  0  0  0  0  0  0  0  0  0  0  0
  1  2  1  0
  2  3  1  0
  3  4  1  0
  4  5  2  0
  4  6  1  0
  6  7  1  0
  7  8  1  0
  7  9  1  0
 10  9  1  1
 10 11  1  0
 11 12  2  0
 11 13  1  0
 13 14  1  0
 14 15  2  0
 15 16  1  0
 16 17  2  0
 17 18  1  0
 18 19  2  0
 10 20  1  0
 20 21  1  0
 21 22  2  0
 21  3  1  0
 20  6  1  0
 19 10  1  0
 19 14  1  0
  1 23  1  0
  1 24  1  0
  1 25  1  0
  2 26  1  0
  2 27  1  0
  6 28  1  6
  7 29  1  1
  8 30  1  0
  8 31  1  0
  8 32  1  0
  9 33  1  0
 13 34  1  0
 15 35  1  0
 16 36  1  0
 17 37  1  0
 18 38  1  0
 20 39  1  1
M  END
>  <Binding energies>  (1) 
[-7.64]

>  <Ligand effiencies>  (1) 
[-0.3183333333333333]

>  <Interactions>  (1) 
["V-A:ILE:369:CG2:3237, V-A:ASP:366:CA:3210, V-B:PRO:540:CA:9855, V-A:ILE:369:CB:3236, V-B:ALA:541:CB:9864, V-B:TYR:539:CE2:9848, V-B:GLU:543:CG:9879, V-B:TYR:539:C:9839, V-B:TYR:539:CZ:9849, H-B:GLU:543:OE1:9881, H-B:ALA:541:N:9863, V-B:PRO:540:CB:9857, V-B:PRO:540:N:9856, V-A:ILE:369:CD1:3239, V-A:ASP:366:C:3208, V-B:TYR:539:CD2:9846, H-A:SER:385:OG:3410, V-B:GLU:543:CD:9880, V-A:ASP:366:CB:3212, V-A:LEU:475:CD2:4259, V-B:TYR:539:CG:9844, H-B:TYR:539:O:9840, V-B:ALA:541:CA:9862, H-B:PRO:540:O:9854"]

$$$$
ZINC356675399
     RDKit          3D

 29 30  0  0  0  0  0  0  0  0999 V2000
  133.6040  130.3480   57.7930 C   0  0  0  0  0  0  0  0  0  0  0  0
  132.3800  131.1110   58.2480 C   0  0  0  0  0  0  0  0  0  0  0  0
  131.4480  131.7850   57.4640 C   0  0  0  0  0  0  0  0  0  0  0  0
  130.2400  132.4940   58.4910 S   0  0  0  0  0  0  0  0  0  0  0  0
  131.0750  131.8290   59.8660 C   0  0  0  0  0  0  0  0  0  0  0  0
  130.6090  132.0230   61.2480 C   0  0  0  0  0  0  0  0  0  0  0  0
  131.4370  132.0020   62.2750 N   0  0  0  0  0  0  0  0  0  0  0  0
  130.6030  132.2190   63.3690 O   0  0  0  0  0  0  0  0  0  0  0  0
  129.3600  132.3270   62.8400 C   0  0  0  0  0  0  0  0  0  0  0  0
  128.1970  132.6040   63.7650 C   0  0  0  0  0  0  0  0  0  0  0  0
  128.2860  131.7570   64.9070 O   0  0  0  0  0  0  0  0  0  0  0  0
  128.0590  130.3680   64.6780 C   0  0  0  0  0  0  0  0  0  0  0  0
  126.7460  130.2490   63.8920 C   0  0  0  0  0  0  0  0  0  0  0  0
  128.0080  129.5700   65.9960 C   0  0  0  0  0  0  0  0  0  0  0  0
  129.3360  132.2240   61.5390 N   0  0  0  0  0  0  0  0  0  0  0  0
  132.1560  131.1500   59.5490 N   0  0  0  0  0  0  0  0  0  0  0  0
  134.1655  129.9980   58.6717 H   0  0  0  0  0  0  0  0  0  0  0  0
  133.2932  129.4834   57.1882 H   0  0  0  0  0  0  0  0  0  0  0  0
  134.2435  131.0077   57.1882 H   0  0  0  0  0  0  0  0  0  0  0  0
  131.4727  131.8572   56.3667 H   0  0  0  0  0  0  0  0  0  0  0  0
  128.2260  133.6559   64.0855 H   0  0  0  0  0  0  0  0  0  0  0  0
  127.2529  132.4077   63.2357 H   0  0  0  0  0  0  0  0  0  0  0  0
  128.8914  129.9355   64.1034 H   0  0  0  0  0  0  0  0  0  0  0  0
  125.9034  130.1726   64.5950 H   0  0  0  0  0  0  0  0  0  0  0  0
  126.6157  131.1390   63.2588 H   0  0  0  0  0  0  0  0  0  0  0  0
  126.7779  129.3501   63.2588 H   0  0  0  0  0  0  0  0  0  0  0  0
  128.0524  130.2651   66.8474 H   0  0  0  0  0  0  0  0  0  0  0  0
  127.0713  128.9950   66.0405 H   0  0  0  0  0  0  0  0  0  0  0  0
  128.8639  128.8805   66.0405 H   0  0  0  0  0  0  0  0  0  0  0  0
  1  2  1  0
  2  3  2  0
  3  4  1  0
  4  5  1  0
  5  6  1  0
  6  7  2  0
  7  8  1  0
  8  9  1  0
  9 10  1  0
 10 11  1  0
 11 12  1  0
 12 13  1  0
 12 14  1  0
  9 15  2  0
  5 16  2  0
 16  2  1  0
 15  6  1  0
  1 17  1  0
  1 18  1  0
  1 19  1  0
  3 20  1  0
 10 21  1  0
 10 22  1  0
 12 23  1  0
 13 24  1  0
 13 25  1  0
 13 26  1  0
 14 27  1  0
 14 28  1  0
 14 29  1  0
M  END
>  <Binding energies>  (1) 
[-5.41]

>  <Ligand effiencies>  (1) 
[-0.338125]

>  <Interactions>  (1) 
["H-A:ALA:541:N:4891, V-A:PRO:540:C:4881, V-B:LEU:475:CD2:9230, V-A:ASP:366:CG:3213, V-A:LEU:363:CD1:3189, V-A:TYR:531:CE2:4793, V-A:ALA:541:CB:4892, V-A:GLU:543:CD:4908, H-B:TYR:484:OH:9319, V-B:TYR:484:CZ:9318, V-A:TYR:531:CZ:4794, V-A:GLU:543:CG:4907, V-A:TYR:539:C:4867, V-A:ASP:366:CB:3212, V-A:GLU:543:CB:4906, V-A:PRO:540:N:4884, V-A:PRO:540:CB:4885, V-A:PRO:540:CA:4883, V-A:LEU:363:CA:3185"]

$$$$
ZINC3581834-again1
     RDKit          3D

 27 28  0  0  0  0  0  0  0  0999 V2000
  128.7420  132.3300   74.2150 C   0  0  0  0  0  0  0  0  0  0  0  0
  128.7570  130.8190   74.1220 C   0  0  0  0  0  0  0  0  0  0  0  0
  128.0210  129.9620   74.8500 C   0  0  0  0  0  0  0  0  0  0  0  0
  128.1700  128.5290   74.6280 C   0  0  0  0  0  0  0  0  0  0  0  0
  127.4630  127.7220   75.3160 O   0  0  0  0  0  0  0  0  0  0  0  0
  129.1070  128.0940   73.6320 C   0  0  0  0  0  0  0  0  0  0  0  0
  129.3090  126.7100   73.3670 C   0  0  0  0  0  0  0  0  0  0  0  0
  128.3940  125.9560   72.8940 O   0  0  0  0  0  0  0  0  0  0  0  0
  130.6540  126.2080   73.6820 C   0  0  0  0  0  0  0  0  0  0  0  0
  131.4250  126.6760   74.6870 C   0  0  0  0  0  0  0  0  0  0  0  0
  132.7580  126.2220   75.0410 C   0  0  0  0  0  0  0  0  0  0  0  0
  133.9740  126.8560   74.7860 C   0  0  0  0  0  0  0  0  0  0  0  0
  135.0780  126.1440   75.2670 C   0  0  0  0  0  0  0  0  0  0  0  0
  134.7180  124.9610   75.8910 C   0  0  0  0  0  0  0  0  0  0  0  0
  133.0010  124.7220   75.8910 S   0  0  0  0  0  0  0  0  0  0  0  0
  129.8460  129.0810   72.8950 C   0  0  0  0  0  0  0  0  0  0  0  0
  130.6960  128.8470   71.9750 O   0  0  0  0  0  0  0  0  0  0  0  0
  129.6370  130.4030   73.1790 O   0  0  0  0  0  0  0  0  0  0  0  0
  128.7390  132.6322   75.2727 H   0  0  0  0  0  0  0  0  0  0  0  0
  129.6362  132.7367   73.7200 H   0  0  0  0  0  0  0  0  0  0  0  0
  127.8400  132.7189   73.7200 H   0  0  0  0  0  0  0  0  0  0  0  0
  127.3143  130.3376   75.6047 H   0  0  0  0  0  0  0  0  0  0  0  0
  131.0592  125.3978   73.0580 H   0  0  0  0  0  0  0  0  0  0  0  0
  130.9996  127.4840   75.3004 H   0  0  0  0  0  0  0  0  0  0  0  0
  134.0565  127.8185   74.2599 H   0  0  0  0  0  0  0  0  0  0  0  0
  136.1181  126.4862   75.1612 H   0  0  0  0  0  0  0  0  0  0  0  0
  135.4369  124.2562   76.3343 H   0  0  0  0  0  0  0  0  0  0  0  0
  1  2  1  0
  2  3  2  0
  3  4  1  0
  4  5  1  0
  4  6  2  0
  6  7  1  0
  7  8  2  0
  7  9  1  0
  9 10  2  0
 10 11  1  0
 11 12  2  0
 12 13  1  0
 13 14  2  0
 14 15  1  0
  6 16  1  0
 16 17  2  0
 16 18  1  0
 18  2  1  0
 15 11  1  0
  1 19  1  0
  1 20  1  0
  1 21  1  0
  3 22  1  0
  9 23  1  0
 10 24  1  0
 12 25  1  0
 13 26  1  0
 14 27  1  0
M  CHG  1   5  -1
M  END
>  <Binding energies>  (1) 
[-7.01]

>  <Ligand effiencies>  (1) 
[-0.3894444444444444]

>  <Interactions>  (1) 
["V-B:HIS:456:CD2:9039, V-A:LYS:547:CG:4948, V-A:HIS:456:CA:4063, V-A:HIS:456:CB:4065, H-B:LYS:547:NZ:9923, V-A:VAL:457:C:4073, H-A:LYS:547:NZ:4951, V-A:VAL:457:CA:4075, V-A:VAL:458:CG2:4087, V-A:HIS:456:C:4061, V-A:HIS:456:CD2:4068, V-A:HIS:456:CG:4066"]

$$$$
ZINC36378776
     RDKit          3D

 39 41  0  0  0  0  0  0  0  0999 V2000
  134.7320  122.5920   61.9920 C   0  0  0  0  0  0  0  0  0  0  0  0
  133.8780  123.5440   61.1530 C   0  0  0  0  0  0  0  0  0  0  0  0
  134.1560  123.6010   59.7860 C   0  0  0  0  0  0  0  0  0  0  0  0
  133.4180  124.4120   58.9330 C   0  0  0  0  0  0  0  0  0  0  0  0
  133.7510  124.4330   57.6020 O   0  0  0  0  0  0  0  0  0  0  0  0
  132.3560  125.1760   59.4320 C   0  0  0  0  0  0  0  0  0  0  0  0
  131.5860  126.1060   58.5000 C   0  0  0  0  0  0  0  0  0  0  0  0
  132.0290  125.1120   60.7970 C   0  0  0  0  0  0  0  0  0  0  0  0
  132.8070  124.3170   61.6660 C   0  0  0  0  0  0  0  0  0  0  0  0
  132.5420  124.3450   63.1510 C   0  0  0  0  0  0  0  0  0  0  0  0
  133.4800  124.2720   63.9450 O   0  0  0  0  0  0  0  0  0  0  0  0
  131.2770  124.3710   63.6370 O   0  0  0  0  0  0  0  0  0  0  0  0
  130.0820  124.3430   62.9460 C   0  0  0  0  0  0  0  0  0  0  0  0
  129.0220  123.5690   63.4460 C   0  0  0  0  0  0  0  0  0  0  0  0
  129.2410  122.7460   64.7170 C   0  0  0  0  0  0  0  0  0  0  0  0
  127.7870  123.5610   62.7820 C   0  0  0  0  0  0  0  0  0  0  0  0
  126.7470  122.7970   63.2600 O   0  0  0  0  0  0  0  0  0  0  0  0
  127.6040  124.3370   61.6320 C   0  0  0  0  0  0  0  0  0  0  0  0
  126.3890  124.3290   60.9850 O   0  0  0  0  0  0  0  0  0  0  0  0
  128.6560  125.1210   61.1340 C   0  0  0  0  0  0  0  0  0  0  0  0
  128.4390  126.0080   59.9130 C   0  0  0  0  0  0  0  0  0  0  0  0
  129.9030  125.1090   61.7790 C   0  0  0  0  0  0  0  0  0  0  0  0
  130.9630  125.8400   61.2890 O   0  0  0  0  0  0  0  0  0  0  0  0
  134.5569  122.7872   63.0603 H   0  0  0  0  0  0  0  0  0  0  0  0
  134.4581  121.5523   61.7596 H   0  0  0  0  0  0  0  0  0  0  0  0
  135.7952  122.7518   61.7596 H   0  0  0  0  0  0  0  0  0  0  0  0
  134.9753  122.9919   59.3764 H   0  0  0  0  0  0  0  0  0  0  0  0
  134.6990  124.4150   57.4540 H   0  0  0  0  0  0  0  0  0  0  0  0
  130.9968  126.8177   59.0969 H   0  0  0  0  0  0  0  0  0  0  0  0
  132.2948  126.6583   57.8655 H   0  0  0  0  0  0  0  0  0  0  0  0
  130.9112  125.5127   57.8655 H   0  0  0  0  0  0  0  0  0  0  0  0
  129.0719  123.3814   65.5989 H   0  0  0  0  0  0  0  0  0  0  0  0
  128.5363  121.9015   64.7330 H   0  0  0  0  0  0  0  0  0  0  0  0
  130.2722  122.3634   64.7330 H   0  0  0  0  0  0  0  0  0  0  0  0
  125.9000  123.2460   63.2520 H   0  0  0  0  0  0  0  0  0  0  0  0
  125.6380  124.3940   61.5790 H   0  0  0  0  0  0  0  0  0  0  0  0
  128.1895  127.0280   60.2405 H   0  0  0  0  0  0  0  0  0  0  0  0
  129.3579  126.0314   59.3088 H   0  0  0  0  0  0  0  0  0  0  0  0
  127.6131  125.6045   59.3088 H   0  0  0  0  0  0  0  0  0  0  0  0
  1  2  1  0
  2  3  2  0
  3  4  1  0
  4  5  1  0
  4  6  2  0
  6  7  1  0
  6  8  1  0
  8  9  2  0
  9 10  1  0
 10 11  2  0
 10 12  1  0
 12 13  1  0
 13 14  2  0
 14 15  1  0
 14 16  1  0
 16 17  1  0
 16 18  2  0
 18 19  1  0
 18 20  1  0
 20 21  1  0
 20 22  2  0
 22 23  1  0
  9  2  1  0
 22 13  1  0
 23  8  1  0
  1 24  1  0
  1 25  1  0
  1 26  1  0
  3 27  1  0
  5 28  1  0
  7 29  1  0
  7 30  1  0
  7 31  1  0
 15 32  1  0
 15 33  1  0
 15 34  1  0
 17 35  1  0
 19 36  1  0
 21 37  1  0
 21 38  1  0
 21 39  1  0
M  END
>  <Binding energies>  (1) 
[-6.16]

>  <Ligand effiencies>  (1) 
[-0.23692307692307693]

>  <Interactions>  (1) 
["V-A:ILE:369:CG2:3237, V-A:ASP:366:CA:3210, V-A:GLY:454:CA:4049, V-A:ILE:369:CB:3236, V-B:ALA:541:CB:9864, V-B:TYR:539:CE2:9848, V-A:TYR:484:CE2:4346, H-B:ALA:541:O:9861, V-B:GLU:543:CG:9879, V-A:ASP:366:CG:3213, H-A:ASN:370:N:3244, H-B:GLU:543:OE1:9881, H-B:TYR:539:OH:9850, H-B:ALA:541:N:9863, H-B:ASP:366:OD1:8185, H-A:GLY:454:N:4050, V-A:GLY:453:C:4042, V-A:ILE:369:CD1:3239, V-B:GLU:543:CD:9880, V-A:ILE:369:CG1:3238, V-A:ASP:366:CB:3212, H-A:ASP:366:O:3209, H-A:TYR:484:OH:4348"]

$$$$
ZINC36415342
     RDKit          3D

 74 78  0  0  0  0  0  0  0  0999 V2000
  126.4710  123.6880   60.8940 C   0  0  0  0  0  0  0  0  0  0  0  0
  127.5550  124.5610   61.5010 C   0  0  0  0  0  0  0  0  0  0  0  0
  127.6150  125.9180   61.1870 C   0  0  0  0  0  0  0  0  0  0  0  0
  128.6160  126.7360   61.7250 C   0  0  0  0  0  0  0  0  0  0  0  0
  128.6580  128.2200   61.3490 C   0  0  0  0  0  0  0  0  0  0  0  0
  130.0000  128.7330   61.0180 N   0  0  0  0  0  0  0  0  0  0  0  0
  130.0910  130.1900   61.2360 C   0  0  0  0  0  0  0  0  0  0  0  0
  131.4760  130.7750   60.9820 C   0  0  0  0  0  0  0  0  0  0  0  0
  132.2940  131.1710   62.0450 C   0  0  0  0  0  0  0  0  0  0  0  0
  133.5470  131.7170   61.7540 C   0  0  0  0  0  0  0  0  0  0  0  0
  133.9500  131.8480   60.4240 C   0  0  0  0  0  0  0  0  0  0  0  0
  133.0750  131.4340   59.4200 C   0  0  0  0  0  0  0  0  0  0  0  0
  131.8490  130.9110   59.6790 N   0  0  0  0  0  0  0  0  0  0  0  0
  130.2870  128.4100   59.6130 C   0  0  0  0  0  0  0  0  0  0  0  0
  131.2140  127.2090   59.4630 C   0  0  0  0  0  0  0  0  0  0  0  0
  131.6530  126.7840   58.2050 C   0  0  0  0  0  0  0  0  0  0  0  0
  132.4920  125.6710   58.1310 C   0  0  0  0  0  0  0  0  0  0  0  0
  132.8700  125.0150   59.3050 C   0  0  0  0  0  0  0  0  0  0  0  0
  132.3900  125.5020   60.5230 C   0  0  0  0  0  0  0  0  0  0  0  0
  131.5750  126.5840   60.6170 N   0  0  0  0  0  0  0  0  0  0  0  0
  129.5500  126.1820   62.6170 C   0  0  0  0  0  0  0  0  0  0  0  0
  130.5280  126.9740   63.1690 O   0  0  0  0  0  0  0  0  0  0  0  0
  129.4870  124.8170   62.9460 C   0  0  0  0  0  0  0  0  0  0  0  0
  130.4610  124.1830   63.9420 C   0  0  0  0  0  0  0  0  0  0  0  0
  130.8750  125.1040   65.0100 N   0  0  0  0  0  0  0  0  0  0  0  0
  130.2420  124.7330   66.2860 C   0  0  0  0  0  0  0  0  0  0  0  0
  129.5810  125.8990   67.0210 C   0  0  0  0  0  0  0  0  0  0  0  0
  129.0740  126.9890   66.3060 C   0  0  0  0  0  0  0  0  0  0  0  0
  128.4630  128.0270   67.0130 C   0  0  0  0  0  0  0  0  0  0  0  0
  128.3670  127.9500   68.4040 C   0  0  0  0  0  0  0  0  0  0  0  0
  128.8880  126.8250   69.0450 C   0  0  0  0  0  0  0  0  0  0  0  0
  129.4850  125.8050   68.3770 N   0  0  0  0  0  0  0  0  0  0  0  0
  132.3400  125.1080   65.1490 C   0  0  0  0  0  0  0  0  0  0  0  0
  133.0810  124.3350   64.0580 C   0  0  0  0  0  0  0  0  0  0  0  0
  133.9370  125.0070   63.1780 C   0  0  0  0  0  0  0  0  0  0  0  0
  134.6290  124.2650   62.2170 C   0  0  0  0  0  0  0  0  0  0  0  0
  134.4570  122.8810   62.1620 C   0  0  0  0  0  0  0  0  0  0  0  0
  133.5940  122.2800   63.0790 C   0  0  0  0  0  0  0  0  0  0  0  0
  132.9140  122.9830   64.0200 N   0  0  0  0  0  0  0  0  0  0  0  0
  128.4860  124.0170   62.3870 C   0  0  0  0  0  0  0  0  0  0  0  0
  125.8864  123.2172   61.6980 H   0  0  0  0  0  0  0  0  0  0  0  0
  125.8073  124.3067   60.2721 H   0  0  0  0  0  0  0  0  0  0  0  0
  126.9340  122.9077   60.2721 H   0  0  0  0  0  0  0  0  0  0  0  0
  126.8663  126.3517   60.5078 H   0  0  0  0  0  0  0  0  0  0  0  0
  128.0081  128.3706   60.4744 H   0  0  0  0  0  0  0  0  0  0  0  0
  128.3229  128.7756   62.2373 H   0  0  0  0  0  0  0  0  0  0  0  0
  129.3782  130.6851   60.5601 H   0  0  0  0  0  0  0  0  0  0  0  0
  129.8638  130.3654   62.2979 H   0  0  0  0  0  0  0  0  0  0  0  0
  131.9588  131.0553   63.0863 H   0  0  0  0  0  0  0  0  0  0  0  0
  134.2117  132.0416   62.5681 H   0  0  0  0  0  0  0  0  0  0  0  0
  134.9352  132.2682   60.1735 H   0  0  0  0  0  0  0  0  0  0  0  0
  133.3922  131.5357   58.3716 H   0  0  0  0  0  0  0  0  0  0  0  0
  129.3384  128.1884   59.1020 H   0  0  0  0  0  0  0  0  0  0  0  0
  130.7947  129.2791   59.1693 H   0  0  0  0  0  0  0  0  0  0  0  0
  131.3436  127.3157   57.2931 H   0  0  0  0  0  0  0  0  0  0  0  0
  132.8529  125.3131   57.1555 H   0  0  0  0  0  0  0  0  0  0  0  0
  133.5301  124.1357   59.2711 H   0  0  0  0  0  0  0  0  0  0  0  0
  132.6857  124.9855   61.4481 H   0  0  0  0  0  0  0  0  0  0  0  0
  130.9570  127.5370   62.5170 H   0  0  0  0  0  0  0  0  0  0  0  0
  129.9732  123.3107   64.4016 H   0  0  0  0  0  0  0  0  0  0  0  0
  131.3655  123.9021   63.3825 H   0  0  0  0  0  0  0  0  0  0  0  0
  129.4727  123.9739   66.0814 H   0  0  0  0  0  0  0  0  0  0  0  0
  131.0445  124.3617   66.9403 H   0  0  0  0  0  0  0  0  0  0  0  0
  129.1548  127.0279   65.2097 H   0  0  0  0  0  0  0  0  0  0  0  0
  128.0601  128.8994   66.4777 H   0  0  0  0  0  0  0  0  0  0  0  0
  127.8919  128.7571   68.9810 H   0  0  0  0  0  0  0  0  0  0  0  0
  128.8115  126.7620   70.1405 H   0  0  0  0  0  0  0  0  0  0  0  0
  132.6848  126.1523   65.1251 H   0  0  0  0  0  0  0  0  0  0  0  0
  132.5661  124.6029   66.0997 H   0  0  0  0  0  0  0  0  0  0  0  0
  134.0626  126.0980   63.2415 H   0  0  0  0  0  0  0  0  0  0  0  0
  135.3043  124.7680   61.5092 H   0  0  0  0  0  0  0  0  0  0  0  0
  134.9899  122.2775   61.4125 H   0  0  0  0  0  0  0  0  0  0  0  0
  133.4589  121.1891   63.0375 H   0  0  0  0  0  0  0  0  0  0  0  0
  128.4317  122.9497   62.6477 H   0  0  0  0  0  0  0  0  0  0  0  0
  1  2  1  0
  2  3  2  0
  3  4  1  0
  4  5  1  0
  5  6  1  0
  6  7  1  0
  7  8  1  0
  8  9  2  0
  9 10  1  0
 10 11  2  0
 11 12  1  0
 12 13  2  0
  6 14  1  0
 14 15  1  0
 15 16  2  0
 16 17  1  0
 17 18  2  0
 18 19  1  0
 19 20  2  0
  4 21  2  0
 21 22  1  0
 21 23  1  0
 23 24  1  0
 24 25  1  0
 25 26  1  0
 26 27  1  0
 27 28  2  0
 28 29  1  0
 29 30  2  0
 30 31  1  0
 31 32  2  0
 25 33  1  0
 33 34  1  0
 34 35  2  0
 35 36  1  0
 36 37  2  0
 37 38  1  0
 38 39  2  0
 23 40  2  0
 40  2  1  0
 13  8  1  0
 20 15  1  0
 32 27  1  0
 39 34  1  0
  1 41  1  0
  1 42  1  0
  1 43  1  0
  3 44  1  0
  5 45  1  0
  5 46  1  0
  7 47  1  0
  7 48  1  0
  9 49  1  0
 10 50  1  0
 11 51  1  0
 12 52  1  0
 14 53  1  0
 14 54  1  0
 16 55  1  0
 17 56  1  0
 18 57  1  0
 19 58  1  0
 22 59  1  0
 24 60  1  0
 24 61  1  0
 26 62  1  0
 26 63  1  0
 28 64  1  0
 29 65  1  0
 30 66  1  0
 31 67  1  0
 33 68  1  0
 33 69  1  0
 35 70  1  0
 36 71  1  0
 37 72  1  0
 38 73  1  0
 40 74  1  0
M  END
>  <Binding energies>  (1) 
[-7.09]

>  <Ligand effiencies>  (1) 
[-0.17292682926829267]

>  <Interactions>  (1) 
["V-A:ASP:366:CA:3210, V-B:PRO:540:CA:9855, V-A:GLY:454:CA:4049, H-A:GLU:543:OE2:4910, V-B:GLU:543:CB:9878, V-A:TYR:484:CE2:4346, V-B:GLU:543:CG:9879, V-A:ASP:366:CG:3213, V-A:ASN:362:CB:3176, V-A:LEU:363:CD1:3189, V-A:LEU:363:CB:3187, V-A:GLU:543:CD:4908, V-B:PRO:540:CB:9857, V-A:TYR:484:CZ:4347, V-B:HIS:456:CE1:9041, H-A:GLY:454:N:4050, V-A:GLY:453:C:4042, V-A:HIS:456:CE1:4070, V-A:ILE:369:CD1:3239, V-A:GLU:543:CG:4907, V-B:GLU:543:CD:9880, V-A:ASP:366:CB:3212, V-A:LEU:475:CD2:4259, H-A:ARG:545:NH2:4928, V-A:ASN:362:C:3172, H-A:GLU:543:OE1:4909, V-A:ARG:545:CZ:4926, V-A:GLU:543:CB:4906, V-A:PRO:540:CB:4885, V-A:LEU:363:CA:3185, V-A:PRO:540:CA:4883, V-A:GLY:453:CA:4044, H-A:TYR:484:OH:4348"]

$$$$
ZINC3680868
     RDKit          3D

 58 60  0  0  0  0  0  0  0  0999 V2000
  132.4380  123.1720   60.9060 C   0  0  0  0  0  0  0  0  0  0  0  0
  131.8050  124.0850   61.9880 C   0  0  2  0  0  0  0  0  0  0  0  0
  132.7960  124.3310   63.1500 C   0  0  0  0  0  0  0  0  0  0  0  0
  133.9770  123.9730   63.1160 O   0  0  0  0  0  0  0  0  0  0  0  0
  132.1720  125.0600   64.3640 C   0  0  2  0  0  0  0  0  0  0  0  0
  133.1630  125.1050   65.5550 C   0  0  0  0  0  0  0  0  0  0  0  0
  130.7850  124.4600   64.7510 C   0  0  1  0  0  0  0  0  0  0  0  0
  130.1120  125.2200   65.8950 C   0  0  0  0  0  0  0  0  0  0  0  0
  129.4720  126.4330   65.6450 C   0  0  0  0  0  0  0  0  0  0  0  0
  128.8500  127.1250   66.6800 C   0  0  0  0  0  0  0  0  0  0  0  0
  128.8470  126.6210   67.9930 C   0  0  0  0  0  0  0  0  0  0  0  0
  128.2140  127.3330   69.0520 N   0  0  0  0  0  0  0  0  0  0  0  0
  129.0180  128.1170   69.9900 C   0  0  0  0  0  0  0  0  0  0  0  0
  126.8750  126.9480   69.5000 C   0  0  0  0  0  0  0  0  0  0  0  0
  129.4960  125.3960   68.2260 C   0  0  0  0  0  0  0  0  0  0  0  0
  130.1180  124.7030   67.1920 C   0  0  0  0  0  0  0  0  0  0  0  0
  129.8910  124.3450   63.6010 N   0  0  0  0  0  0  0  0  0  0  0  0
  130.4240  123.5590   62.4890 C   0  0  1  0  0  0  0  0  0  0  0  0
  129.3980  123.4360   61.3610 C   0  0  0  0  0  0  0  0  0  0  0  0
  128.5260  124.4910   61.0920 C   0  0  0  0  0  0  0  0  0  0  0  0
  127.5870  124.3810   60.0710 C   0  0  0  0  0  0  0  0  0  0  0  0
  127.4920  123.2150   59.2910 C   0  0  0  0  0  0  0  0  0  0  0  0
  126.5270  123.1030   58.2500 N   0  0  0  0  0  0  0  0  0  0  0  0
  125.3880  124.0200   58.2020 C   0  0  0  0  0  0  0  0  0  0  0  0
  126.8720  122.4250   56.9990 C   0  0  0  0  0  0  0  0  0  0  0  0
  128.3760  122.1600   59.5800 C   0  0  0  0  0  0  0  0  0  0  0  0
  129.3160  122.2680   60.6010 C   0  0  0  0  0  0  0  0  0  0  0  0
  132.9999  122.3615   61.3931 H   0  0  0  0  0  0  0  0  0  0  0  0
  131.6434  122.7417   60.2787 H   0  0  0  0  0  0  0  0  0  0  0  0
  133.1196  123.7652   60.2787 H   0  0  0  0  0  0  0  0  0  0  0  0
  131.5977  125.0557   61.5139 H   0  0  0  0  0  0  0  0  0  0  0  0
  131.9784  126.1026   64.0715 H   0  0  0  0  0  0  0  0  0  0  0  0
  132.6014  125.0795   66.5005 H   0  0  0  0  0  0  0  0  0  0  0  0
  133.8362  124.2365   65.5049 H   0  0  0  0  0  0  0  0  0  0  0  0
  133.7547  126.0309   65.5049 H   0  0  0  0  0  0  0  0  0  0  0  0
  130.9913  123.4426   65.1149 H   0  0  0  0  0  0  0  0  0  0  0  0
  129.4586  126.8450   64.6252 H   0  0  0  0  0  0  0  0  0  0  0  0
  128.3522  128.0826   66.4674 H   0  0  0  0  0  0  0  0  0  0  0  0
  128.7435  127.8493   71.0210 H   0  0  0  0  0  0  0  0  0  0  0  0
  130.0845  127.9025   69.8271 H   0  0  0  0  0  0  0  0  0  0  0  0
  128.8304  129.1886   69.8271 H   0  0  0  0  0  0  0  0  0  0  0  0
  126.8446  126.9393   70.5995 H   0  0  0  0  0  0  0  0  0  0  0  0
  126.1388  127.6709   69.1186 H   0  0  0  0  0  0  0  0  0  0  0  0
  126.6352  125.9445   69.1186 H   0  0  0  0  0  0  0  0  0  0  0  0
  129.5124  124.9780   69.2434 H   0  0  0  0  0  0  0  0  0  0  0  0
  130.6164  123.7441   67.3972 H   0  0  0  0  0  0  0  0  0  0  0  0
  128.9720  124.0260   63.8730 H   0  0  0  0  0  0  0  0  0  0  0  0
  130.6157  122.5449   62.8695 H   0  0  0  0  0  0  0  0  0  0  0  0
  128.5808  125.4132   61.6891 H   0  0  0  0  0  0  0  0  0  0  0  0
  126.9065  125.2217   59.8704 H   0  0  0  0  0  0  0  0  0  0  0  0
  125.0760  124.2712   59.2265 H   0  0  0  0  0  0  0  0  0  0  0  0
  125.6790  124.9387   57.6717 H   0  0  0  0  0  0  0  0  0  0  0  0
  124.5526  123.5396   57.6717 H   0  0  0  0  0  0  0  0  0  0  0  0
  127.3603  121.4655   57.2246 H   0  0  0  0  0  0  0  0  0  0  0  0
  125.9570  122.2428   56.4163 H   0  0  0  0  0  0  0  0  0  0  0  0
  127.5579  123.0574   56.4163 H   0  0  0  0  0  0  0  0  0  0  0  0
  128.3237  121.2337   58.9891 H   0  0  0  0  0  0  0  0  0  0  0  0
  129.9969  121.4296   60.8097 H   0  0  0  0  0  0  0  0  0  0  0  0
  1  2  1  0
  2  3  1  0
  3  4  2  0
  3  5  1  0
  5  6  1  0
  5  7  1  0
  7  8  1  0
  8  9  2  0
  9 10  1  0
 10 11  2  0
 11 12  1  0
 12 13  1  0
 12 14  1  0
 11 15  1  0
 15 16  2  0
  7 17  1  0
 17 18  1  0
 18 19  1  0
 19 20  2  0
 20 21  1  0
 21 22  2  0
 22 23  1  0
 23 24  1  0
 23 25  1  0
 22 26  1  0
 26 27  2  0
 18  2  1  0
 27 19  1  0
 16  8  1  0
  1 28  1  0
  1 29  1  0
  1 30  1  0
  2 31  1  6
  5 32  1  6
  6 33  1  0
  6 34  1  0
  6 35  1  0
  7 36  1  1
  9 37  1  0
 10 38  1  0
 13 39  1  0
 13 40  1  0
 13 41  1  0
 14 42  1  0
 14 43  1  0
 14 44  1  0
 15 45  1  0
 16 46  1  0
 17 47  1  0
 18 48  1  1
 20 49  1  0
 21 50  1  0
 24 51  1  0
 24 52  1  0
 24 53  1  0
 25 54  1  0
 25 55  1  0
 25 56  1  0
 26 57  1  0
 27 58  1  0
M  END
>  <Binding energies>  (1) 
[-7.37]

>  <Ligand effiencies>  (1) 
[-0.26321428571428573]

>  <Interactions>  (1) 
["V-B:PRO:540:CA:9855, V-B:GLU:543:C:9874, V-B:GLU:543:CB:9878, V-B:TYR:539:CE2:9848, V-A:TYR:484:CE2:4346, V-B:GLU:543:CG:9879, V-B:TYR:539:C:9839, H-B:GLU:543:OE1:9881, V-A:GLU:543:CD:4908, V-B:PRO:540:CB:9857, V-A:TYR:484:CZ:4347, V-B:GLU:543:CA:9876, H-A:GLY:454:N:4050, V-B:HIS:456:CE1:9041, V-B:PRO:540:N:9856, V-A:HIS:456:CE1:4070, V-B:GLY:544:C:9884, V-B:TYR:539:CD2:9846, V-B:PRO:540:CD:9859, V-B:GLU:543:CD:9880, V-A:ARG:545:CD:4923, V-A:ARG:545:CZ:4926, V-B:TYR:539:CD1:9845"]

$$$$
ZINC37566594
     RDKit          3D

 41 42  0  0  0  0  0  0  0  0999 V2000
  131.7310  126.5230   58.8760 C   0  0  0  0  0  0  0  0  0  0  0  0
  131.7780  126.0980   60.2330 O   0  0  0  0  0  0  0  0  0  0  0  0
  130.9530  126.8030   61.1190 C   0  0  0  0  0  0  0  0  0  0  0  0
  130.6440  128.1840   60.5360 C   0  0  0  0  0  0  0  0  0  0  0  0
  131.3610  129.3300   61.2730 N   0  0  0  0  0  0  0  0  0  0  0  0
  131.3600  130.6920   60.5540 C   0  0  0  0  0  0  0  0  0  0  0  0
  131.6630  130.4160   59.0590 C   0  0  0  0  0  0  0  0  0  0  0  0
  131.5060  131.6790   58.1810 C   0  0  0  0  0  0  0  0  0  0  0  0
  130.1000  132.2690   58.3500 C   0  0  0  0  0  0  0  0  0  0  0  0
  129.8230  132.6250   59.8140 C   0  0  0  0  0  0  0  0  0  0  0  0
  129.9740  131.3760   60.7120 C   0  0  0  0  0  0  0  0  0  0  0  0
  129.9660  133.3950   57.5450 O   0  0  0  0  0  0  0  0  0  0  0  0
  129.0180  133.1830   56.5220 C   0  0  0  0  0  0  0  0  0  0  0  0
  128.6890  131.7000   56.6260 C   0  0  0  0  0  0  0  0  0  0  0  0
  129.1530  131.3470   57.9080 O   0  0  0  0  0  0  0  0  0  0  0  0
  131.5830  126.9930   62.3490 O   0  0  0  0  0  0  0  0  0  0  0  0
  131.0450  126.2180   63.4140 C   0  0  0  0  0  0  0  0  0  0  0  0
  131.6102  127.6157   58.8380 H   0  0  0  0  0  0  0  0  0  0  0  0
  132.6660  126.2397   58.3704 H   0  0  0  0  0  0  0  0  0  0  0  0
  130.8805  126.0422   58.3704 H   0  0  0  0  0  0  0  0  0  0  0  0
  130.0338  126.2163   61.2632 H   0  0  0  0  0  0  0  0  0  0  0  0
  130.9580  128.1963   59.4818 H   0  0  0  0  0  0  0  0  0  0  0  0
  129.5625  128.3506   60.6480 H   0  0  0  0  0  0  0  0  0  0  0  0
  130.9500  129.4490   62.1880 H   0  0  0  0  0  0  0  0  0  0  0  0
  132.3210  129.0600   61.4370 H   0  0  0  0  0  0  0  0  0  0  0  0
  132.1150  131.3669   60.9835 H   0  0  0  0  0  0  0  0  0  0  0  0
  132.6967  130.0506   58.9700 H   0  0  0  0  0  0  0  0  0  0  0  0
  130.9384  129.6689   58.7031 H   0  0  0  0  0  0  0  0  0  0  0  0
  132.2531  132.4274   58.4838 H   0  0  0  0  0  0  0  0  0  0  0  0
  131.6562  131.4045   57.1264 H   0  0  0  0  0  0  0  0  0  0  0  0
  130.5377  133.3946   60.1410 H   0  0  0  0  0  0  0  0  0  0  0  0
  128.7935  133.0029   59.8999 H   0  0  0  0  0  0  0  0  0  0  0  0
  129.8482  131.6793   61.7618 H   0  0  0  0  0  0  0  0  0  0  0  0
  129.2067  130.6499   60.4054 H   0  0  0  0  0  0  0  0  0  0  0  0
  128.1195  133.7954   56.6885 H   0  0  0  0  0  0  0  0  0  0  0  0
  129.3975  133.4637   55.5284 H   0  0  0  0  0  0  0  0  0  0  0  0
  127.6054  131.5311   56.5402 H   0  0  0  0  0  0  0  0  0  0  0  0
  129.1496  131.1028   55.8253 H   0  0  0  0  0  0  0  0  0  0  0  0
  131.3490  126.6560   64.3761 H   0  0  0  0  0  0  0  0  0  0  0  0
  129.9472  126.2116   63.3446 H   0  0  0  0  0  0  0  0  0  0  0  0
  131.4228  125.1872   63.3446 H   0  0  0  0  0  0  0  0  0  0  0  0
  1  2  1  0
  2  3  1  0
  3  4  1  0
  4  5  1  0
  5  6  1  0
  6  7  1  0
  7  8  1  0
  8  9  1  0
  9 10  1  0
 10 11  1  0
  9 12  1  0
 12 13  1  0
 13 14  1  0
 14 15  1  0
  3 16  1  0
 16 17  1  0
 11  6  1  0
 15  9  1  0
  1 18  1  0
  1 19  1  0
  1 20  1  0
  3 21  1  0
  4 22  1  0
  4 23  1  0
  5 24  1  0
  5 25  1  0
  6 26  1  0
  7 27  1  0
  7 28  1  0
  8 29  1  0
  8 30  1  0
 10 31  1  0
 10 32  1  0
 11 33  1  0
 11 34  1  0
 13 35  1  0
 13 36  1  0
 14 37  1  0
 14 38  1  0
 17 39  1  0
 17 40  1  0
 17 41  1  0
M  CHG  1   5   1
M  END
>  <Binding energies>  (1) 
[-5.4]

>  <Ligand effiencies>  (1) 
[-0.28421052631578947]

>  <Interactions>  (1) 
["V-A:ILE:538:C:4858, V-A:ASP:366:CG:3213, V-A:TYR:539:CD1:4873, V-A:ILE:538:CA:4860, V-A:GLU:543:CD:4908, V-A:MET:535:CE:4835, V-A:TYR:539:C:4867, V-A:ASP:366:CB:3212, H-A:ARG:545:NH2:4928, H-A:GLU:543:OE1:4909, H-A:ASP:366:OD1:3214, V-A:PRO:540:N:4884, V-A:TYR:539:CG:4872, H-A:TYR:539:N:4870, V-A:PRO:540:CB:4885, V-A:PRO:540:CA:4883, V-A:TYR:539:CD2:4874, H-A:ASP:366:OD2:3215, V-A:TYR:539:CE1:4875"]

$$$$
ZINC3775575
     RDKit          3D

 68 71  0  0  0  0  0  0  0  0999 V2000
  130.7210  127.4880   58.2020 C   0  0  0  0  0  0  0  0  0  0  0  0
  130.1240  128.2440   59.3860 C   0  0  0  0  0  0  0  0  0  0  0  0
  129.7070  129.5520   59.1940 C   0  0  0  0  0  0  0  0  0  0  0  0
  129.1590  130.3480   60.2430 C   0  0  0  0  0  0  0  0  0  0  0  0
  128.7190  131.7020   60.0150 C   0  0  0  0  0  0  0  0  0  0  0  0
  128.9680  132.3900   58.6440 C   0  0  0  0  0  0  0  0  0  0  0  0
  128.1830  131.7910   57.4530 C   0  0  0  0  0  0  0  0  0  0  0  0
  130.4690  132.5390   58.3400 C   0  0  0  0  0  0  0  0  0  0  0  0
  128.0250  132.3700   61.0320 C   0  0  0  0  0  0  0  0  0  0  0  0
  127.4260  133.5830   60.7800 O   0  0  0  0  0  0  0  0  0  0  0  0
  127.9300  131.8310   62.3150 C   0  0  0  0  0  0  0  0  0  0  0  0
  127.3020  132.5890   63.2860 O   0  0  0  0  0  0  0  0  0  0  0  0
  128.4870  130.5750   62.6190 C   0  0  0  0  0  0  0  0  0  0  0  0
  128.5300  130.2060   64.0770 C   0  0  0  0  0  0  0  0  0  0  0  0
  128.3460  130.9860   65.0110 O   0  0  0  0  0  0  0  0  0  0  0  0
  129.0240  129.7530   61.5480 C   0  0  0  0  0  0  0  0  0  0  0  0
  129.4020  128.3600   61.6890 C   0  0  0  0  0  0  0  0  0  0  0  0
  129.1510  127.6490   62.8380 O   0  0  0  0  0  0  0  0  0  0  0  0
  129.9750  127.6380   60.6310 C   0  0  0  0  0  0  0  0  0  0  0  0
  130.3980  126.2080   60.8230 C   0  0  0  0  0  0  0  0  0  0  0  0
  129.5580  125.1760   60.4080 C   0  0  0  0  0  0  0  0  0  0  0  0
  128.2040  125.4670   59.7690 C   0  0  0  0  0  0  0  0  0  0  0  0
  129.9550  123.8560   60.5510 C   0  0  0  0  0  0  0  0  0  0  0  0
  131.1900  123.4840   61.1590 C   0  0  0  0  0  0  0  0  0  0  0  0
  131.5860  122.1030   61.2860 C   0  0  0  0  0  0  0  0  0  0  0  0
  130.6050  120.9660   60.8920 C   0  0  0  0  0  0  0  0  0  0  0  0
  129.4530  120.7100   61.8930 C   0  0  0  0  0  0  0  0  0  0  0  0
  131.3490  119.6720   60.5140 C   0  0  0  0  0  0  0  0  0  0  0  0
  132.8830  121.8080   61.7270 C   0  0  0  0  0  0  0  0  0  0  0  0
  133.3540  120.5160   61.6740 O   0  0  0  0  0  0  0  0  0  0  0  0
  133.7190  122.8030   62.2300 C   0  0  0  0  0  0  0  0  0  0  0  0
  134.9520  122.4190   62.7250 O   0  0  0  0  0  0  0  0  0  0  0  0
  133.3070  124.1490   62.2690 C   0  0  0  0  0  0  0  0  0  0  0  0
  134.1900  125.0900   63.0430 C   0  0  0  0  0  0  0  0  0  0  0  0
  134.3270  125.0910   64.2650 O   0  0  0  0  0  0  0  0  0  0  0  0
  132.0610  124.5330   61.6280 C   0  0  0  0  0  0  0  0  0  0  0  0
  131.6450  125.9020   61.3900 C   0  0  0  0  0  0  0  0  0  0  0  0
  132.4740  126.9700   61.6350 O   0  0  0  0  0  0  0  0  0  0  0  0
  131.3630  126.6750   58.5721 H   0  0  0  0  0  0  0  0  0  0  0  0
  129.9103  127.0654   57.5903 H   0  0  0  0  0  0  0  0  0  0  0  0
  131.3200  128.1787   57.5903 H   0  0  0  0  0  0  0  0  0  0  0  0
  129.8027  129.9942   58.1914 H   0  0  0  0  0  0  0  0  0  0  0  0
  128.5445  133.3984   58.7612 H   0  0  0  0  0  0  0  0  0  0  0  0
  127.3622  131.1647   57.8327 H   0  0  0  0  0  0  0  0  0  0  0  0
  127.7695  132.6052   56.8398 H   0  0  0  0  0  0  0  0  0  0  0  0
  128.8591  131.1772   56.8398 H   0  0  0  0  0  0  0  0  0  0  0  0
  131.0306  132.5947   59.2842 H   0  0  0  0  0  0  0  0  0  0  0  0
  130.8135  131.6706   57.7592 H   0  0  0  0  0  0  0  0  0  0  0  0
  130.6360  133.4581   57.7592 H   0  0  0  0  0  0  0  0  0  0  0  0
  127.0260  133.9900   61.5510 H   0  0  0  0  0  0  0  0  0  0  0  0
  127.5940  132.3930   64.1780 H   0  0  0  0  0  0  0  0  0  0  0  0
  128.7427  129.1563   64.3279 H   0  0  0  0  0  0  0  0  0  0  0  0
  129.8410  127.7560   63.4960 H   0  0  0  0  0  0  0  0  0  0  0  0
  127.4537  125.6283   60.5571 H   0  0  0  0  0  0  0  0  0  0  0  0
  128.2796  126.3694   59.1445 H   0  0  0  0  0  0  0  0  0  0  0  0
  127.9022  124.6132   59.1445 H   0  0  0  0  0  0  0  0  0  0  0  0
  129.2898  123.0623   60.1801 H   0  0  0  0  0  0  0  0  0  0  0  0
  130.0959  121.3416   59.9921 H   0  0  0  0  0  0  0  0  0  0  0  0
  129.8349  120.7949   62.9211 H   0  0  0  0  0  0  0  0  0  0  0  0
  128.6578  121.4533   61.7347 H   0  0  0  0  0  0  0  0  0  0  0  0
  129.0474  119.6998   61.7347 H   0  0  0  0  0  0  0  0  0  0  0  0
  131.6531  119.1431   61.4293 H   0  0  0  0  0  0  0  0  0  0  0  0
  130.6841  119.0265   59.9213 H   0  0  0  0  0  0  0  0  0  0  0  0
  132.2413  119.9219   59.9213 H   0  0  0  0  0  0  0  0  0  0  0  0
  134.2730  120.4220   61.9320 H   0  0  0  0  0  0  0  0  0  0  0  0
  135.0930  121.4710   62.7160 H   0  0  0  0  0  0  0  0  0  0  0  0
  134.7586  125.8370   62.4696 H   0  0  0  0  0  0  0  0  0  0  0  0
  132.1320  127.7920   61.2740 H   0  0  0  0  0  0  0  0  0  0  0  0
  1  2  1  0
  2  3  2  0
  3  4  1  0
  4  5  2  0
  5  6  1  0
  6  7  1  0
  6  8  1  0
  5  9  1  0
  9 10  1  0
  9 11  2  0
 11 12  1  0
 11 13  1  0
 13 14  1  0
 14 15  2  0
 13 16  2  0
 16 17  1  0
 17 18  1  0
 17 19  2  0
 19 20  1  0
 20 21  2  0
 21 22  1  0
 21 23  1  0
 23 24  2  0
 24 25  1  0
 25 26  1  0
 26 27  1  0
 26 28  1  0
 25 29  2  0
 29 30  1  0
 29 31  1  0
 31 32  1  0
 31 33  2  0
 33 34  1  0
 34 35  2  0
 33 36  1  0
 36 37  2  0
 37 38  1  0
 19  2  1  0
 37 20  1  0
 16  4  1  0
 36 24  1  0
  1 39  1  0
  1 40  1  0
  1 41  1  0
  3 42  1  0
  6 43  1  0
  7 44  1  0
  7 45  1  0
  7 46  1  0
  8 47  1  0
  8 48  1  0
  8 49  1  0
 10 50  1  0
 12 51  1  0
 14 52  1  0
 18 53  1  0
 22 54  1  0
 22 55  1  0
 22 56  1  0
 23 57  1  0
 26 58  1  0
 27 59  1  0
 27 60  1  0
 27 61  1  0
 28 62  1  0
 28 63  1  0
 28 64  1  0
 30 65  1  0
 32 66  1  0
 34 67  1  0
 38 68  1  0
M  END
>  <Binding energies>  (1) 
[-5.62]

>  <Ligand effiencies>  (1) 
[-0.12772727272727272]

>  <Interactions>  (1) 
["V-A:GLY:454:CA:4049, H-A:GLU:543:OE2:4910, V-B:ALA:541:CB:9864, H-A:ARG:545:NH1:4927, V-B:TYR:539:CE2:9848, V-A:ASP:366:CG:3213, V-A:GLU:543:CD:4908, H-B:TYR:484:OH:9319, H-A:GLY:454:N:4050, V-A:ILE:369:CD1:3239, V-B:TYR:539:CD2:9846, V-A:GLU:543:CG:4907, H-A:SER:385:OG:3410, V-A:TYR:539:C:4867, V-A:LEU:475:CD2:4259, H-A:ARG:545:NH2:4928, V-A:ARG:545:CZ:4926, H-A:GLU:543:OE1:4909, H-A:ASP:366:OD1:3214, H-A:TYR:539:O:4868, V-A:PRO:540:N:4884, V-A:GLY:453:CA:4044, V-A:PRO:540:CA:4883, V-A:PRO:540:CB:4885, H-A:ARG:545:NE:4924, H-A:SER:385:O:3406, V-B:PRO:540:C:9853, H-A:ASP:366:OD2:3215, V-B:ALA:541:CA:9862, V-A:TYR:539:CE1:4875"]

$$$$
ZINC377838362
     RDKit          3D

 34 36  0  0  0  0  0  0  0  0999 V2000
  125.7280  123.1970   62.3580 N   0  0  0  0  0  0  0  0  0  0  0  0
  126.1620  123.3220   61.2920 C   0  0  0  0  0  0  0  0  0  0  0  0
  126.7100  123.4790   59.9450 C   0  0  0  0  0  0  0  0  0  0  0  0
  125.8250  123.9270   58.9570 C   0  0  0  0  0  0  0  0  0  0  0  0
  126.2670  124.1590   57.6590 C   0  0  0  0  0  0  0  0  0  0  0  0
  125.4030  124.5950   56.7150 F   0  0  0  0  0  0  0  0  0  0  0  0
  127.6020  123.9470   57.3360 C   0  0  0  0  0  0  0  0  0  0  0  0
  128.4900  123.4970   58.3090 C   0  0  0  0  0  0  0  0  0  0  0  0
  128.0750  123.2490   59.6290 C   0  0  0  0  0  0  0  0  0  0  0  0
  129.0150  122.7840   60.5810 N   0  0  0  0  0  0  0  0  0  0  0  0
  128.7000  121.7070   61.5280 C   0  0  0  0  0  0  0  0  0  0  0  0
  129.8610  120.7220   61.4740 C   0  0  0  0  0  0  0  0  0  0  0  0
  131.0470  121.6460   61.3290 C   0  0  0  0  0  0  0  0  0  0  0  0
  130.4830  122.7500   60.4250 C   0  0  2  0  0  0  0  0  0  0  0  0
  131.2390  124.0870   60.6530 C   0  0  0  0  0  0  0  0  0  0  0  0
  132.0900  124.4640   59.5290 N   0  0  0  0  0  0  0  0  0  0  0  0
  133.1770  123.8140   59.0120 C   0  0  0  0  0  0  0  0  0  0  0  0
  133.6370  124.4620   57.9730 N   0  0  0  0  0  0  0  0  0  0  0  0
  132.8000  125.4880   57.9000 C   0  0  0  0  0  0  0  0  0  0  0  0
  131.8420  125.5560   58.8000 N   0  0  0  0  0  0  0  0  0  0  0  0
  124.7682  124.0974   59.2103 H   0  0  0  0  0  0  0  0  0  0  0  0
  127.9568  124.1347   56.3119 H   0  0  0  0  0  0  0  0  0  0  0  0
  129.5432  123.3313   58.0381 H   0  0  0  0  0  0  0  0  0  0  0  0
  128.5957  122.1145   62.5444 H   0  0  0  0  0  0  0  0  0  0  0  0
  127.7517  121.2150   61.2660 H   0  0  0  0  0  0  0  0  0  0  0  0
  129.9262  120.1294   62.3984 H   0  0  0  0  0  0  0  0  0  0  0  0
  129.7758  119.9783   60.6680 H   0  0  0  0  0  0  0  0  0  0  0  0
  131.3612  122.0488   62.3032 H   0  0  0  0  0  0  0  0  0  0  0  0
  131.9441  121.1556   60.9230 H   0  0  0  0  0  0  0  0  0  0  0  0
  130.6598  122.5417   59.3595 H   0  0  0  0  0  0  0  0  0  0  0  0
  130.4986  124.8844   60.8141 H   0  0  0  0  0  0  0  0  0  0  0  0
  131.8929  123.9484   61.5266 H   0  0  0  0  0  0  0  0  0  0  0  0
  133.6025  122.8818   59.4119 H   0  0  0  0  0  0  0  0  0  0  0  0
  132.9025  126.2535   57.1167 H   0  0  0  0  0  0  0  0  0  0  0  0
  1  2  3  0
  2  3  1  0
  3  4  2  0
  4  5  1  0
  5  6  1  0
  5  7  2  0
  7  8  1  0
  8  9  2  0
  9 10  1  0
 10 11  1  0
 11 12  1  0
 12 13  1  0
 13 14  1  0
 14 15  1  0
 15 16  1  0
 16 17  1  0
 17 18  2  0
 18 19  1  0
 19 20  2  0
  9  3  1  0
 14 10  1  0
 20 16  1  0
  4 21  1  0
  7 22  1  0
  8 23  1  0
 11 24  1  0
 11 25  1  0
 12 26  1  0
 12 27  1  0
 13 28  1  0
 13 29  1  0
 14 30  1  6
 15 31  1  0
 15 32  1  0
 17 33  1  0
 19 34  1  0
M  END
>  <Binding energies>  (1) 
[-5.83]

>  <Ligand effiencies>  (1) 
[-0.2915]

>  <Interactions>  (1) 
["V-A:ILE:369:CG2:3237, V-A:ASP:366:CA:3210, V-B:PRO:540:CA:9855, V-B:ALA:541:CB:9864, V-B:TYR:539:CE2:9848, V-A:ASP:366:CG:3213, V-B:TYR:539:CZ:9849, V-B:TYR:531:CZ:9766, H-B:TYR:539:OH:9850, H-B:ALA:541:N:9863, V-B:TYR:531:CE2:9765, V-B:PRO:540:CB:9857, V-A:ASP:366:C:3208, V-B:TYR:539:CD2:9846, V-A:ASP:366:CB:3212, V-A:LEU:475:CD2:4259, V-B:LEU:363:CD1:8160, V-B:PRO:540:C:9853, V-B:MET:535:CE:9807, V-B:ALA:541:CA:9862"]

$$$$
ZINC38140035
     RDKit          3D

 85 86  0  0  0  0  0  0  0  0999 V2000
  127.5730  122.4730   57.1280 C   0  0  0  0  0  0  0  0  0  0  0  0
  126.1450  123.0240   56.9880 C   0  0  0  0  0  0  0  0  0  0  0  0
  125.6990  123.9320   58.1510 C   0  0  0  0  0  0  0  0  0  0  0  0
  125.7900  125.4400   57.8500 C   0  0  0  0  0  0  0  0  0  0  0  0
  126.9330  125.7870   56.8780 C   0  0  0  0  0  0  0  0  0  0  0  0
  128.0780  126.5630   57.5500 C   0  0  0  0  0  0  0  0  0  0  0  0
  129.4130  125.7920   57.5380 C   0  0  0  0  0  0  0  0  0  0  0  0
  129.9630  125.4910   58.9550 C   0  0  1  0  0  0  0  0  0  0  0  0
  129.4690  124.2000   59.3370 O   0  0  0  0  0  0  0  0  0  0  0  0
  128.5220  124.0260   60.2850 C   0  0  0  0  0  0  0  0  0  0  0  0
  127.7210  123.0910   60.3350 O   0  0  0  0  0  0  0  0  0  0  0  0
  128.5520  125.1050   61.3810 C   0  0  0  0  0  0  0  0  0  0  0  0
  128.8310  124.6550   62.8510 C   0  0  1  0  0  0  0  0  0  0  0  0
  128.5150  123.2780   63.0830 O   0  0  0  0  0  0  0  0  0  0  0  0
  129.5270  122.3480   62.8520 C   0  0  0  0  0  0  0  0  0  0  0  0
  129.0970  121.3200   62.0190 O   0  0  0  0  0  0  0  0  0  0  0  0
  130.1570  120.6210   61.3840 C   0  0  0  0  0  0  0  0  0  0  0  0
  130.2560  124.9220   63.4350 C   0  0  2  0  0  0  0  0  0  0  0  0
  130.2340  125.7700   64.7420 C   0  0  0  0  0  0  0  0  0  0  0  0
  129.3050  126.9820   64.7020 C   0  0  0  0  0  0  0  0  0  0  0  0
  128.8910  127.5820   65.8950 C   0  0  0  0  0  0  0  0  0  0  0  0
  128.0360  128.6810   65.8620 C   0  0  0  0  0  0  0  0  0  0  0  0
  127.6010  129.1800   64.6370 C   0  0  0  0  0  0  0  0  0  0  0  0
  128.0140  128.5940   63.4440 C   0  0  0  0  0  0  0  0  0  0  0  0
  128.8700  127.4950   63.4750 C   0  0  0  0  0  0  0  0  0  0  0  0
  131.2660  125.3380   62.4250 N   0  0  0  0  0  0  0  0  0  0  0  0
  131.0420  126.6520   61.8010 C   0  0  0  0  0  0  0  0  0  0  0  0
  132.3490  124.5490   62.1540 C   0  0  0  0  0  0  0  0  0  0  0  0
  133.4890  124.8660   62.5010 O   0  0  0  0  0  0  0  0  0  0  0  0
  132.2040  123.1880   61.4060 C   0  0  2  0  0  0  0  0  0  0  0  0
  133.5220  122.3520   61.3320 C   0  0  0  0  0  0  0  0  0  0  0  0
  133.3210  121.0430   60.5410 C   0  0  0  0  0  0  0  0  0  0  0  0
  134.1370  122.0460   62.7160 C   0  0  0  0  0  0  0  0  0  0  0  0
  131.6700  123.4050   60.0860 O   0  0  0  0  0  0  0  0  0  0  0  0
  132.2440  124.2490   59.1810 C   0  0  0  0  0  0  0  0  0  0  0  0
  133.1910  123.9720   58.4430 O   0  0  0  0  0  0  0  0  0  0  0  0
  131.5190  125.6020   59.1100 C   0  0  1  0  0  0  0  0  0  0  0  0
  132.1820  126.5290   58.0720 C   0  0  0  0  0  0  0  0  0  0  0  0
  127.8255  122.3756   58.1942 H   0  0  0  0  0  0  0  0  0  0  0  0
  127.6344  121.4866   56.6450 H   0  0  0  0  0  0  0  0  0  0  0  0
  128.2810  123.1625   56.6450 H   0  0  0  0  0  0  0  0  0  0  0  0
  126.0900  123.6057   56.0560 H   0  0  0  0  0  0  0  0  0  0  0  0
  125.4704  122.1552   56.9899 H   0  0  0  0  0  0  0  0  0  0  0  0
  124.6534  123.6919   58.3938 H   0  0  0  0  0  0  0  0  0  0  0  0
  126.3882  123.7356   58.9855 H   0  0  0  0  0  0  0  0  0  0  0  0
  124.8388  125.7675   57.4051 H   0  0  0  0  0  0  0  0  0  0  0  0
  125.9953  125.9554   58.7999 H   0  0  0  0  0  0  0  0  0  0  0  0
  127.3384  124.8514   56.4653 H   0  0  0  0  0  0  0  0  0  0  0  0
  126.5131  126.4337   56.0935 H   0  0  0  0  0  0  0  0  0  0  0  0
  128.2175  127.5148   57.0165 H   0  0  0  0  0  0  0  0  0  0  0  0
  127.7972  126.7208   58.6018 H   0  0  0  0  0  0  0  0  0  0  0  0
  129.2595  124.8373   57.0136 H   0  0  0  0  0  0  0  0  0  0  0  0
  130.1520  126.4305   57.0319 H   0  0  0  0  0  0  0  0  0  0  0  0
  129.6004  126.2766   59.6343 H   0  0  0  0  0  0  0  0  0  0  0  0
  129.3350  125.8273   61.1066 H   0  0  0  0  0  0  0  0  0  0  0  0
  127.5247  125.4976   61.4059 H   0  0  0  0  0  0  0  0  0  0  0  0
  128.1473  125.3261   63.3916 H   0  0  0  0  0  0  0  0  0  0  0  0
  130.3793  122.8579   62.3791 H   0  0  0  0  0  0  0  0  0  0  0  0
  129.8184  121.9094   63.8178 H   0  0  0  0  0  0  0  0  0  0  0  0
  130.8180  120.1851   62.1476 H   0  0  0  0  0  0  0  0  0  0  0  0
  129.7427  119.8184   60.7562 H   0  0  0  0  0  0  0  0  0  0  0  0
  130.7316  121.3179   60.7562 H   0  0  0  0  0  0  0  0  0  0  0  0
  130.6280  123.9382   63.7570 H   0  0  0  0  0  0  0  0  0  0  0  0
  129.9116  125.1185   65.5676 H   0  0  0  0  0  0  0  0  0  0  0  0
  131.2526  126.1640   64.8734 H   0  0  0  0  0  0  0  0  0  0  0  0
  129.2406  127.1860   66.8599 H   0  0  0  0  0  0  0  0  0  0  0  0
  127.7059  129.1526   66.7994 H   0  0  0  0  0  0  0  0  0  0  0  0
  126.9238  130.0465   64.6119 H   0  0  0  0  0  0  0  0  0  0  0  0
  127.6663  128.9966   62.4812 H   0  0  0  0  0  0  0  0  0  0  0  0
  129.2037  127.0308   62.5352 H   0  0  0  0  0  0  0  0  0  0  0  0
  130.9123  127.4128   62.5848 H   0  0  0  0  0  0  0  0  0  0  0  0
  131.9085  126.9136   61.1759 H   0  0  0  0  0  0  0  0  0  0  0  0
  130.1378  126.6117   61.1759 H   0  0  0  0  0  0  0  0  0  0  0  0
  131.5051  122.5849   62.0042 H   0  0  0  0  0  0  0  0  0  0  0  0
  134.2399  122.9898   60.7955 H   0  0  0  0  0  0  0  0  0  0  0  0
  133.1925  120.2062   61.2434 H   0  0  0  0  0  0  0  0  0  0  0  0
  132.4258  121.1310   59.9078 H   0  0  0  0  0  0  0  0  0  0  0  0
  134.2013  120.8584   59.9078 H   0  0  0  0  0  0  0  0  0  0  0  0
  133.4512  122.3872   63.5055 H   0  0  0  0  0  0  0  0  0  0  0  0
  134.2987  120.9624   62.8139 H   0  0  0  0  0  0  0  0  0  0  0  0
  135.0989  122.5706   62.8139 H   0  0  0  0  0  0  0  0  0  0  0  0
  131.6420  126.0766   60.0947 H   0  0  0  0  0  0  0  0  0  0  0  0
  132.7459  127.3175   58.5918 H   0  0  0  0  0  0  0  0  0  0  0  0
  132.8671  125.9430   57.4417 H   0  0  0  0  0  0  0  0  0  0  0  0
  131.4060  126.9880   57.4417 H   0  0  0  0  0  0  0  0  0  0  0  0
  1  2  1  0
  2  3  1  0
  3  4  1  0
  4  5  1  0
  5  6  1  0
  6  7  1  0
  7  8  1  0
  8  9  1  0
  9 10  1  0
 10 11  2  0
 10 12  1  0
 12 13  1  0
 13 14  1  0
 14 15  1  0
 15 16  1  0
 16 17  1  0
 13 18  1  0
 18 19  1  0
 19 20  1  0
 20 21  2  0
 21 22  1  0
 22 23  2  0
 23 24  1  0
 24 25  2  0
 18 26  1  0
 26 27  1  0
 26 28  1  0
 28 29  2  0
 28 30  1  0
 30 31  1  0
 31 32  1  0
 31 33  1  0
 30 34  1  0
 34 35  1  0
 35 36  2  0
 35 37  1  0
 37 38  1  0
 37  8  1  0
 25 20  1  0
  1 39  1  0
  1 40  1  0
  1 41  1  0
  2 42  1  0
  2 43  1  0
  3 44  1  0
  3 45  1  0
  4 46  1  0
  4 47  1  0
  5 48  1  0
  5 49  1  0
  6 50  1  0
  6 51  1  0
  7 52  1  0
  7 53  1  0
  8 54  1  1
 12 55  1  0
 12 56  1  0
 13 57  1  1
 15 58  1  0
 15 59  1  0
 17 60  1  0
 17 61  1  0
 17 62  1  0
 18 63  1  1
 19 64  1  0
 19 65  1  0
 21 66  1  0
 22 67  1  0
 23 68  1  0
 24 69  1  0
 25 70  1  0
 27 71  1  0
 27 72  1  0
 27 73  1  0
 30 74  1  1
 31 75  1  0
 32 76  1  0
 32 77  1  0
 32 78  1  0
 33 79  1  0
 33 80  1  0
 33 81  1  0
 37 82  1  1
 38 83  1  0
 38 84  1  0
 38 85  1  0
M  END
>  <Binding energies>  (1) 
[-2.78]

>  <Ligand effiencies>  (1) 
[-0.06949999999999999]

>  <Interactions>  (1) 
["V-B:TYR:539:CA:9841, V-A:ILE:369:CG2:3237, V-B:PRO:540:CA:9855, V-A:GLY:454:CA:4049, V-B:ALA:541:CB:9864, V-B:TYR:539:CE2:9848, V-B:GLU:543:CG:9879, V-B:TYR:539:C:9839, V-A:ASP:366:CG:3213, V-B:TYR:539:CZ:9849, V-B:TYR:531:CZ:9766, H-B:TYR:539:OH:9850, V-B:TYR:531:CE2:9765, H-B:ALA:541:N:9863, V-A:GLU:543:CD:4908, V-B:PRO:540:CB:9857, V-B:PRO:540:N:9856, V-A:ILE:369:CD1:3239, V-B:PRO:540:CD:9859, V-B:TYR:539:CD2:9846, V-A:TYR:531:CZ:4794, V-A:GLU:543:CG:4907, V-B:GLU:543:CD:9880, V-A:SER:385:CB:3409, V-A:ASP:366:CB:3212, V-A:LEU:475:CD2:4259, H-A:ARG:545:NH2:4928, V-B:TYR:539:CG:9844, V-B:TYR:539:CD1:9845, V-B:TYR:539:CE1:9847"]

$$$$
ZINC38146871
     RDKit          3D

 78 81  0  0  0  0  0  0  0  0999 V2000
  129.8990  125.3340   66.1060 C   0  0  0  0  0  0  0  0  0  0  0  0
  129.2380  126.5300   65.4290 C   0  0  0  0  0  0  0  0  0  0  0  0
  128.9550  126.4620   64.0680 C   0  0  0  0  0  0  0  0  0  0  0  0
  128.3580  127.5270   63.3840 C   0  0  0  0  0  0  0  0  0  0  0  0
  128.0620  127.2870   61.6420 S   0  0  0  0  0  0  0  0  0  0  0  0
  128.4800  125.5590   61.3770 C   0  0  0  0  0  0  0  0  0  0  0  0
  129.8480  125.1750   61.2270 C   0  0  0  0  0  0  0  0  0  0  0  0
  130.8100  125.9930   61.3860 O   0  0  0  0  0  0  0  0  0  0  0  0
  130.1730  123.8560   61.1550 O   0  0  0  0  0  0  0  0  0  0  0  0
  129.2440  122.9340   60.5640 C   0  0  2  0  0  0  0  0  0  0  0  0
  129.8190  121.5250   60.8970 C   0  0  0  0  0  0  0  0  0  0  0  0
  131.3120  121.2930   60.5640 C   0  0  0  0  0  0  0  0  0  0  0  0
  132.2300  122.2860   61.2620 C   0  0  0  0  0  0  0  0  0  0  0  0
  132.1460  122.4620   62.6460 C   0  0  0  0  0  0  0  0  0  0  0  0
  132.9860  123.3720   63.2820 C   0  0  0  0  0  0  0  0  0  0  0  0
  133.9070  124.1030   62.5340 C   0  0  0  0  0  0  0  0  0  0  0  0
  134.7320  125.0010   63.1600 O   0  0  0  0  0  0  0  0  0  0  0  0
  133.9960  123.9300   61.1530 C   0  0  0  0  0  0  0  0  0  0  0  0
  133.1570  123.0190   60.5170 C   0  0  0  0  0  0  0  0  0  0  0  0
  129.1210  123.2390   59.0240 C   0  0  0  0  0  0  0  0  0  0  0  0
  129.9140  124.4820   58.5670 C   0  0  0  0  0  0  0  0  0  0  0  0
  127.6560  123.3410   58.5440 C   0  0  0  0  0  0  0  0  0  0  0  0
  127.8880  123.1430   61.3060 C   0  0  0  0  0  0  0  0  0  0  0  0
  127.4220  124.6050   61.2880 C   0  0  0  0  0  0  0  0  0  0  0  0
  126.1910  124.9210   61.2010 O   0  0  0  0  0  0  0  0  0  0  0  0
  128.0090  128.7180   64.0770 C   0  0  0  0  0  0  0  0  0  0  0  0
  127.3360  129.9620   63.3970 C   0  0  0  0  0  0  0  0  0  0  0  0
  127.8850  130.2530   61.9670 C   0  0  0  0  0  0  0  0  0  0  0  0
  125.8110  129.7460   63.2050 C   0  0  0  0  0  0  0  0  0  0  0  0
  127.6100  131.2570   64.2070 C   0  0  0  0  0  0  0  0  0  0  0  0
  128.3060  128.7580   65.4560 C   0  0  0  0  0  0  0  0  0  0  0  0
  128.8970  127.6860   66.1390 C   0  0  0  0  0  0  0  0  0  0  0  0
  129.2100  127.7460   67.5120 N   0  0  0  0  0  0  0  0  0  0  0  0
  128.4220  127.4320   68.5670 C   0  0  0  0  0  0  0  0  0  0  0  0
  127.2640  127.0190   68.4670 O   0  0  0  0  0  0  0  0  0  0  0  0
  129.0570  127.6120   69.9280 C   0  0  0  0  0  0  0  0  0  0  0  0
  128.3370  127.4190   71.1190 C   0  0  0  0  0  0  0  0  0  0  0  0
  128.9850  127.6080   72.3420 C   0  0  0  0  0  0  0  0  0  0  0  0
  130.3290  127.9840   72.3580 C   0  0  0  0  0  0  0  0  0  0  0  0
  130.9830  128.1600   71.1400 C   0  0  0  0  0  0  0  0  0  0  0  0
  130.3690  127.9820   69.9420 N   0  0  0  0  0  0  0  0  0  0  0  0
  129.8352  125.4494   67.1981 H   0  0  0  0  0  0  0  0  0  0  0  0
  129.3832  124.4105   65.8041 H   0  0  0  0  0  0  0  0  0  0  0  0
  130.9554  125.2794   65.8041 H   0  0  0  0  0  0  0  0  0  0  0  0
  129.2076  125.5456   63.5145 H   0  0  0  0  0  0  0  0  0  0  0  0
  129.6870  121.3565   61.9760 H   0  0  0  0  0  0  0  0  0  0  0  0
  129.2649  120.8249   60.2545 H   0  0  0  0  0  0  0  0  0  0  0  0
  131.5890  120.2761   60.8789 H   0  0  0  0  0  0  0  0  0  0  0  0
  131.4361  121.4308   59.4797 H   0  0  0  0  0  0  0  0  0  0  0  0
  131.4173  121.8824   63.2318 H   0  0  0  0  0  0  0  0  0  0  0  0
  132.9230  123.5135   64.3710 H   0  0  0  0  0  0  0  0  0  0  0  0
  134.8280  125.8220   62.6720 H   0  0  0  0  0  0  0  0  0  0  0  0
  134.7255  124.5105   60.5691 H   0  0  0  0  0  0  0  0  0  0  0  0
  133.2240  122.8764   59.4283 H   0  0  0  0  0  0  0  0  0  0  0  0
  129.5817  122.3630   58.5441 H   0  0  0  0  0  0  0  0  0  0  0  0
  130.2675  125.0361   59.4490 H   0  0  0  0  0  0  0  0  0  0  0  0
  130.7770  124.1648   57.9631 H   0  0  0  0  0  0  0  0  0  0  0  0
  129.2626  125.1309   57.9631 H   0  0  0  0  0  0  0  0  0  0  0  0
  126.9869  123.3876   59.4159 H   0  0  0  0  0  0  0  0  0  0  0  0
  127.5314  124.2500   57.9372 H   0  0  0  0  0  0  0  0  0  0  0  0
  127.4066  122.4580   57.9372 H   0  0  0  0  0  0  0  0  0  0  0  0
  127.1210  122.5232   60.8186 H   0  0  0  0  0  0  0  0  0  0  0  0
  128.0366  122.8547   62.3571 H   0  0  0  0  0  0  0  0  0  0  0  0
  128.8545  130.7669   62.0440 H   0  0  0  0  0  0  0  0  0  0  0  0
  128.0145  129.3051   61.4241 H   0  0  0  0  0  0  0  0  0  0  0  0
  127.1733  130.8923   61.4241 H   0  0  0  0  0  0  0  0  0  0  0  0
  125.3237  129.6770   64.1888 H   0  0  0  0  0  0  0  0  0  0  0  0
  125.3883  130.5932   62.6451 H   0  0  0  0  0  0  0  0  0  0  0  0
  125.6402  128.8147   62.6451 H   0  0  0  0  0  0  0  0  0  0  0  0
  127.5627  131.0334   65.2830 H   0  0  0  0  0  0  0  0  0  0  0  0
  128.6095  131.6419   63.9561 H   0  0  0  0  0  0  0  0  0  0  0  0
  126.8521  132.0137   63.9561 H   0  0  0  0  0  0  0  0  0  0  0  0
  128.0630  129.6707   66.0198 H   0  0  0  0  0  0  0  0  0  0  0  0
  130.1690  127.9800   67.7180 H   0  0  0  0  0  0  0  0  0  0  0  0
  127.2779  127.1232   71.0888 H   0  0  0  0  0  0  0  0  0  0  0  0
  128.4397  127.4615   73.2860 H   0  0  0  0  0  0  0  0  0  0  0  0
  130.8594  128.1378   73.3093 H   0  0  0  0  0  0  0  0  0  0  0  0
  132.0424  128.4559   71.1495 H   0  0  0  0  0  0  0  0  0  0  0  0
  1  2  1  0
  2  3  2  0
  3  4  1  0
  4  5  1  0
  5  6  1  0
  6  7  2  0
  7  8  1  0
  7  9  1  0
  9 10  1  0
 10 11  1  6
 11 12  1  0
 12 13  1  0
 13 14  2  0
 14 15  1  0
 15 16  2  0
 16 17  1  0
 16 18  1  0
 18 19  2  0
 10 20  1  0
 20 21  1  0
 20 22  1  0
 10 23  1  0
 23 24  1  0
 24 25  2  0
  4 26  2  0
 26 27  1  0
 27 28  1  0
 27 29  1  0
 27 30  1  0
 26 31  1  0
 31 32  2  0
 32 33  1  0
 33 34  1  0
 34 35  2  0
 34 36  1  0
 36 37  2  0
 37 38  1  0
 38 39  2  0
 39 40  1  0
 40 41  2  0
 32  2  1  0
 41 36  1  0
 24  6  1  0
 19 13  1  0
  1 42  1  0
  1 43  1  0
  1 44  1  0
  3 45  1  0
 11 46  1  0
 11 47  1  0
 12 48  1  0
 12 49  1  0
 14 50  1  0
 15 51  1  0
 17 52  1  0
 18 53  1  0
 19 54  1  0
 20 55  1  0
 21 56  1  0
 21 57  1  0
 21 58  1  0
 22 59  1  0
 22 60  1  0
 22 61  1  0
 23 62  1  0
 23 63  1  0
 28 64  1  0
 28 65  1  0
 28 66  1  0
 29 67  1  0
 29 68  1  0
 29 69  1  0
 30 70  1  0
 30 71  1  0
 30 72  1  0
 31 73  1  0
 33 74  1  0
 37 75  1  0
 38 76  1  0
 39 77  1  0
 40 78  1  0
M  CHG  1   8  -1
M  END
>  <Binding energies>  (1) 
[-7.3]

>  <Ligand effiencies>  (1) 
[-0.1697674418604651]

>  <Interactions>  (1) 
["V-A:ILE:369:CG2:3237, V-B:PRO:540:CA:9855, V-A:GLY:454:CA:4049, V-B:HIS:456:CD2:9039, H-A:GLU:543:OE2:4910, V-A:GLU:543:C:4902, V-B:GLU:543:CB:9878, H-A:ARG:545:NH1:4927, V-B:TYR:539:CE2:9848, V-A:GLY:544:CA:4914, V-B:GLU:543:CG:9879, V-A:GLY:544:C:4912, V-B:TYR:539:CZ:9849, V-A:GLU:543:CD:4908, V-B:HIS:456:CE1:9041, H-A:GLY:454:N:4050, V-A:HIS:456:CE1:4070, V-B:TYR:484:CZ:9318, V-A:ILE:369:CD1:3239, V-B:TYR:539:CD2:9846, V-A:GLU:543:CG:4907, V-B:GLU:543:CD:9880, V-A:LEU:475:CD2:4259, H-A:ARG:545:NH2:4928, V-A:GLU:543:CB:4906, H-A:ASP:366:OD1:3214"]

$$$$
ZINC38146871-again1
     RDKit          3D

 79 82  0  0  0  0  0  0  0  0999 V2000
  130.3320  125.4550   65.2010 C   0  0  0  0  0  0  0  0  0  0  0  0
  129.5560  126.5780   64.5210 C   0  0  0  0  0  0  0  0  0  0  0  0
  129.6520  126.7220   63.1400 C   0  0  0  0  0  0  0  0  0  0  0  0
  128.9720  127.7340   62.4600 C   0  0  0  0  0  0  0  0  0  0  0  0
  129.2340  127.7910   60.7030 S   0  0  0  0  0  0  0  0  0  0  0  0
  128.5920  126.2320   59.9920 C   0  0  2  0  0  0  0  0  0  0  0  0
  127.5650  125.6320   60.9710 C   0  0  0  0  0  0  0  0  0  0  0  0
  126.4860  126.1590   61.2370 O   0  0  0  0  0  0  0  0  0  0  0  0
  127.9870  124.2900   61.5620 C   0  0  0  0  0  0  0  0  0  0  0  0
  128.5890  123.3570   60.4620 C   0  0  1  0  0  0  0  0  0  0  0  0
  129.1050  122.0890   61.2240 C   0  0  0  0  0  0  0  0  0  0  0  0
  130.5520  121.6130   60.9400 C   0  0  0  0  0  0  0  0  0  0  0  0
  131.5950  122.5330   61.5590 C   0  0  0  0  0  0  0  0  0  0  0  0
  132.6660  122.9970   60.7890 C   0  0  0  0  0  0  0  0  0  0  0  0
  133.6130  123.8450   61.3570 C   0  0  0  0  0  0  0  0  0  0  0  0
  133.4890  124.2270   62.6920 C   0  0  0  0  0  0  0  0  0  0  0  0
  134.4200  125.0630   63.2480 O   0  0  0  0  0  0  0  0  0  0  0  0
  132.4220  123.7670   63.4630 C   0  0  0  0  0  0  0  0  0  0  0  0
  131.4750  122.9190   62.8960 C   0  0  0  0  0  0  0  0  0  0  0  0
  127.5820  123.0800   59.2700 C   0  0  0  0  0  0  0  0  0  0  0  0
  128.0990  123.5510   57.8930 C   0  0  0  0  0  0  0  0  0  0  0  0
  126.1510  123.6080   59.4970 C   0  0  0  0  0  0  0  0  0  0  0  0
  129.7740  124.0090   59.9500 O   0  0  0  0  0  0  0  0  0  0  0  0
  129.8100  125.3470   59.6160 C   0  0  0  0  0  0  0  0  0  0  0  0
  130.8330  125.7190   59.0420 O   0  0  0  0  0  0  0  0  0  0  0  0
  128.1360  128.6420   63.1620 C   0  0  0  0  0  0  0  0  0  0  0  0
  127.3240  129.7950   62.4720 C   0  0  0  0  0  0  0  0  0  0  0  0
  126.4970  130.6500   63.4790 C   0  0  0  0  0  0  0  0  0  0  0  0
  128.2700  130.8040   61.7670 C   0  0  0  0  0  0  0  0  0  0  0  0
  126.2840  129.2230   61.4730 C   0  0  0  0  0  0  0  0  0  0  0  0
  128.0530  128.4700   64.5590 C   0  0  0  0  0  0  0  0  0  0  0  0
  128.7620  127.4730   65.2460 C   0  0  0  0  0  0  0  0  0  0  0  0
  128.6670  127.3040   66.6430 N   0  0  0  0  0  0  0  0  0  0  0  0
  128.4730  128.2470   67.5970 C   0  0  0  0  0  0  0  0  0  0  0  0
  128.3660  129.4530   67.3590 O   0  0  0  0  0  0  0  0  0  0  0  0
  128.4130  127.7470   69.0270 C   0  0  0  0  0  0  0  0  0  0  0  0
  129.4830  127.9780   69.9070 C   0  0  0  0  0  0  0  0  0  0  0  0
  129.4030  127.5060   71.2190 C   0  0  0  0  0  0  0  0  0  0  0  0
  128.2640  126.8170   71.6340 C   0  0  0  0  0  0  0  0  0  0  0  0
  127.2360  126.6190   70.7130 C   0  0  0  0  0  0  0  0  0  0  0  0
  127.2970  127.0700   69.4340 N   0  0  0  0  0  0  0  0  0  0  0  0
  130.2557  125.5654   66.2928 H   0  0  0  0  0  0  0  0  0  0  0  0
  129.9111  124.4842   64.9004 H   0  0  0  0  0  0  0  0  0  0  0  0
  131.3889  125.5054   64.9004 H   0  0  0  0  0  0  0  0  0  0  0  0
  130.2794  126.0209   62.5701 H   0  0  0  0  0  0  0  0  0  0  0  0
  128.0300  126.3611   59.0553 H   0  0  0  0  0  0  0  0  0  0  0  0
  128.7442  124.4624   62.3411 H   0  0  0  0  0  0  0  0  0  0  0  0
  127.0990  123.8006   61.9886 H   0  0  0  0  0  0  0  0  0  0  0  0
  129.0356  122.3028   62.3008 H   0  0  0  0  0  0  0  0  0  0  0  0
  128.4679  121.2694   60.8601 H   0  0  0  0  0  0  0  0  0  0  0  0
  130.6801  120.6027   61.3559 H   0  0  0  0  0  0  0  0  0  0  0  0
  130.7009  121.6208   59.8502 H   0  0  0  0  0  0  0  0  0  0  0  0
  132.7602  122.6925   59.7362 H   0  0  0  0  0  0  0  0  0  0  0  0
  134.4565  124.2125   60.7542 H   0  0  0  0  0  0  0  0  0  0  0  0
  134.5600  125.8620   62.7340 H   0  0  0  0  0  0  0  0  0  0  0  0
  132.3291  124.0732   64.5154 H   0  0  0  0  0  0  0  0  0  0  0  0
  130.6322  122.5529   63.5007 H   0  0  0  0  0  0  0  0  0  0  0  0
  127.5256  121.9815   59.2596 H   0  0  0  0  0  0  0  0  0  0  0  0
  128.9053  124.2855   58.0357 H   0  0  0  0  0  0  0  0  0  0  0  0
  128.4848  122.6875   57.3313 H   0  0  0  0  0  0  0  0  0  0  0  0
  127.2751  124.0154   57.3313 H   0  0  0  0  0  0  0  0  0  0  0  0
  125.9540  123.6807   60.5768 H   0  0  0  0  0  0  0  0  0  0  0  0
  126.0500  124.6026   59.0381 H   0  0  0  0  0  0  0  0  0  0  0  0
  125.4282  122.9173   59.0381 H   0  0  0  0  0  0  0  0  0  0  0  0
  126.7683  130.3695   64.5075 H   0  0  0  0  0  0  0  0  0  0  0  0
  126.7151  131.7164   63.3201 H   0  0  0  0  0  0  0  0  0  0  0  0
  125.4239  130.4675   63.3201 H   0  0  0  0  0  0  0  0  0  0  0  0
  128.8156  131.3859   62.5245 H   0  0  0  0  0  0  0  0  0  0  0  0
  128.9876  130.2562   61.1385 H   0  0  0  0  0  0  0  0  0  0  0  0
  127.6772  131.4848   61.1385 H   0  0  0  0  0  0  0  0  0  0  0  0
  125.4530  128.7660   62.0303 H   0  0  0  0  0  0  0  0  0  0  0  0
  125.8979  130.0357   60.8402 H   0  0  0  0  0  0  0  0  0  0  0  0
  126.7636  128.4618   60.8402 H   0  0  0  0  0  0  0  0  0  0  0  0
  127.4045  129.1465   65.1350 H   0  0  0  0  0  0  0  0  0  0  0  0
  128.8440  126.3650   66.9720 H   0  0  0  0  0  0  0  0  0  0  0  0
  130.3746  128.5249   69.5665 H   0  0  0  0  0  0  0  0  0  0  0  0
  130.2331  127.6767   71.9203 H   0  0  0  0  0  0  0  0  0  0  0  0
  128.1785  126.4387   72.6634 H   0  0  0  0  0  0  0  0  0  0  0  0
  126.3370  126.0740   71.0367 H   0  0  0  0  0  0  0  0  0  0  0  0
  1  2  1  0
  2  3  2  0
  3  4  1  0
  4  5  1  0
  5  6  1  0
  6  7  1  0
  7  8  2  0
  7  9  1  0
  9 10  1  0
 10 11  1  1
 11 12  1  0
 12 13  1  0
 13 14  2  0
 14 15  1  0
 15 16  2  0
 16 17  1  0
 16 18  1  0
 18 19  2  0
 10 20  1  0
 20 21  1  0
 20 22  1  0
 10 23  1  0
 23 24  1  0
 24 25  2  0
  4 26  2  0
 26 27  1  0
 27 28  1  0
 27 29  1  0
 27 30  1  0
 26 31  1  0
 31 32  2  0
 32 33  1  0
 33 34  1  0
 34 35  2  0
 34 36  1  0
 36 37  2  0
 37 38  1  0
 38 39  2  0
 39 40  1  0
 40 41  2  0
 32  2  1  0
 41 36  1  0
 24  6  1  0
 19 13  1  0
  1 42  1  0
  1 43  1  0
  1 44  1  0
  3 45  1  0
  6 46  1  6
  9 47  1  0
  9 48  1  0
 11 49  1  0
 11 50  1  0
 12 51  1  0
 12 52  1  0
 14 53  1  0
 15 54  1  0
 17 55  1  0
 18 56  1  0
 19 57  1  0
 20 58  1  0
 21 59  1  0
 21 60  1  0
 21 61  1  0
 22 62  1  0
 22 63  1  0
 22 64  1  0
 28 65  1  0
 28 66  1  0
 28 67  1  0
 29 68  1  0
 29 69  1  0
 29 70  1  0
 30 71  1  0
 30 72  1  0
 30 73  1  0
 31 74  1  0
 33 75  1  0
 37 76  1  0
 38 77  1  0
 39 78  1  0
 40 79  1  0
M  END
>  <Binding energies>  (1) 
[-7.88]

>  <Ligand effiencies>  (1) 
[-0.18325581395348836]

>  <Interactions>  (1) 
["V-B:PRO:540:CA:9855, V-B:GLU:543:C:9874, H-A:GLU:543:OE2:4910, V-B:GLU:543:CB:9878, H-A:ARG:545:NH1:4927, V-B:TYR:539:CE2:9848, V-B:GLU:543:CG:9879, V-B:TYR:539:CZ:9849, V-A:GLU:543:CD:4908, V-B:PRO:540:CB:9857, H-B:TYR:484:OH:9319, V-B:HIS:456:CE1:9041, H-A:GLY:454:N:4050, V-B:PRO:540:N:9856, V-A:HIS:456:CE1:4070, V-A:ILE:369:CD1:3239, V-B:GLY:544:C:9884, V-B:GLY:544:CA:9886, V-B:TYR:539:CD2:9846, V-B:GLU:543:CD:9880, V-A:LEU:475:CD2:4259, H-A:ARG:545:NH2:4928, H-B:ARG:545:NH2:9900, V-A:GLU:543:CB:4906, H-A:ASP:366:OD1:3214, H-B:GLU:543:OE2:9882"]

$$$$
ZINC38154251
     RDKit          3D

 65 65  0  0  0  0  0  0  0  0999 V2000
  134.3010  124.1340   62.3470 C   0  0  0  0  0  0  0  0  0  0  0  0
  133.5910  122.8050   62.6430 C   0  0  0  0  0  0  0  0  0  0  0  0
  133.9820  121.6880   61.6560 C   0  0  0  0  0  0  0  0  0  0  0  0
  132.7890  121.0450   60.9220 C   0  0  0  0  0  0  0  0  0  0  0  0
  131.5170  121.9160   60.8890 C   0  0  0  0  0  0  0  0  0  0  0  0
  130.2470  121.1330   61.2740 C   0  0  0  0  0  0  0  0  0  0  0  0
  129.0440  122.0470   61.5670 C   0  0  0  0  0  0  0  0  0  0  0  0
  128.9830  122.5080   63.0350 C   0  0  0  0  0  0  0  0  0  0  0  0
  129.9560  123.6650   63.3380 C   0  0  0  0  0  0  0  0  0  0  0  0
  130.7910  123.4780   64.6200 C   0  0  0  0  0  0  0  0  0  0  0  0
  131.6090  124.7200   65.0370 C   0  0  0  0  0  0  0  0  0  0  0  0
  131.0320  125.4780   66.2500 C   0  0  0  0  0  0  0  0  0  0  0  0
  129.9030  124.7330   66.9850 C   0  0  0  0  0  0  0  0  0  0  0  0
  129.4980  125.3960   68.2880 C   0  0  0  0  0  0  0  0  0  0  0  0
  128.7810  126.5320   68.3780 C   0  0  0  0  0  0  0  0  0  0  0  0
  128.3560  127.2460   69.6550 C   0  0  0  0  0  0  0  0  0  0  0  0
  129.3150  127.1630   70.8650 C   0  0  1  0  0  0  0  0  0  0  0  0
  129.9250  128.4290   71.1000 O   0  0  0  0  0  0  0  0  0  0  0  0
  130.1010  128.6720   72.4160 C   0  0  0  0  0  0  0  0  0  0  0  0
  130.6000  129.7270   72.8070 O   0  0  0  0  0  0  0  0  0  0  0  0
  129.5470  127.4990   73.2480 C   0  0  2  0  0  0  0  0  0  0  0  0
  128.8060  128.0510   74.3780 N   0  0  0  0  0  0  0  0  0  0  0  0
  130.7100  126.5900   73.7570 C   0  0  0  0  0  0  0  0  0  0  0  0
  131.9180  127.2820   74.0390 O   0  0  0  0  0  0  0  0  0  0  0  0
  128.6300  126.8470   72.1990 C   0  0  2  0  0  0  0  0  0  0  0  0
  128.4030  125.4600   72.3830 O   0  0  0  0  0  0  0  0  0  0  0  0
  134.5647  124.6277   63.2940 H   0  0  0  0  0  0  0  0  0  0  0  0
  135.2156  123.9400   61.7675 H   0  0  0  0  0  0  0  0  0  0  0  0
  133.6313  124.7864   61.7675 H   0  0  0  0  0  0  0  0  0  0  0  0
  133.8563  122.4836   63.6610 H   0  0  0  0  0  0  0  0  0  0  0  0
  132.5094  122.9762   62.5388 H   0  0  0  0  0  0  0  0  0  0  0  0
  134.6602  122.1155   60.9028 H   0  0  0  0  0  0  0  0  0  0  0  0
  134.4524  120.8916   62.2513 H   0  0  0  0  0  0  0  0  0  0  0  0
  133.0929  120.8405   59.8848 H   0  0  0  0  0  0  0  0  0  0  0  0
  132.5309  120.1334   61.4809 H   0  0  0  0  0  0  0  0  0  0  0  0
  131.6435  122.7497   61.5953 H   0  0  0  0  0  0  0  0  0  0  0  0
  131.3862  122.2722   59.8565 H   0  0  0  0  0  0  0  0  0  0  0  0
  129.9834  120.4619   60.4433 H   0  0  0  0  0  0  0  0  0  0  0  0
  130.4701  120.5762   62.1961 H   0  0  0  0  0  0  0  0  0  0  0  0
  129.1139  122.9360   60.9229 H   0  0  0  0  0  0  0  0  0  0  0  0
  128.1320  121.4656   61.3662 H   0  0  0  0  0  0  0  0  0  0  0  0
  127.9588  122.8429   63.2561 H   0  0  0  0  0  0  0  0  0  0  0  0
  129.2773  121.6542   63.6631 H   0  0  0  0  0  0  0  0  0  0  0  0
  130.6479  123.7636   62.4885 H   0  0  0  0  0  0  0  0  0  0  0  0
  129.3377  124.5611   63.4950 H   0  0  0  0  0  0  0  0  0  0  0  0
  130.1059  123.2254   65.4427 H   0  0  0  0  0  0  0  0  0  0  0  0
  131.5184  122.6808   64.4067 H   0  0  0  0  0  0  0  0  0  0  0  0
  132.6290  124.3933   65.2876 H   0  0  0  0  0  0  0  0  0  0  0  0
  131.5820  125.4169   64.1863 H   0  0  0  0  0  0  0  0  0  0  0  0
  131.8489  125.6568   66.9647 H   0  0  0  0  0  0  0  0  0  0  0  0
  130.5933  126.4083   65.8601 H   0  0  0  0  0  0  0  0  0  0  0  0
  129.0237  124.6926   66.3253 H   0  0  0  0  0  0  0  0  0  0  0  0
  130.2807  123.7300   67.2325 H   0  0  0  0  0  0  0  0  0  0  0  0
  129.8124  124.9145   69.2257 H   0  0  0  0  0  0  0  0  0  0  0  0
  128.4691  126.9933   67.4294 H   0  0  0  0  0  0  0  0  0  0  0  0
  128.2236  128.3103   69.4104 H   0  0  0  0  0  0  0  0  0  0  0  0
  127.4438  126.7246   69.9806 H   0  0  0  0  0  0  0  0  0  0  0  0
  130.0131  126.3590   70.5888 H   0  0  0  0  0  0  0  0  0  0  0  0
  129.0330  129.0290   74.4840 H   0  0  0  0  0  0  0  0  0  0  0  0
  127.8130  127.9950   74.2040 H   0  0  0  0  0  0  0  0  0  0  0  0
  130.3772  126.0901   74.6786 H   0  0  0  0  0  0  0  0  0  0  0  0
  130.9357  125.8854   72.9430 H   0  0  0  0  0  0  0  0  0  0  0  0
  131.9280  128.0980   73.5360 H   0  0  0  0  0  0  0  0  0  0  0  0
  127.6088  127.2501   72.2669 H   0  0  0  0  0  0  0  0  0  0  0  0
  128.4670  125.0230   71.5310 H   0  0  0  0  0  0  0  0  0  0  0  0
  1  2  1  0
  2  3  1  0
  3  4  1  0
  4  5  1  0
  5  6  1  0
  6  7  1  0
  7  8  1  0
  8  9  1  0
  9 10  1  0
 10 11  1  0
 11 12  1  0
 12 13  1  0
 13 14  1  0
 14 15  2  0
 15 16  1  0
 16 17  1  0
 17 18  1  0
 18 19  1  0
 19 20  2  0
 19 21  1  0
 21 22  1  1
 21 23  1  0
 23 24  1  0
 21 25  1  0
 25 26  1  0
 25 17  1  0
  1 27  1  0
  1 28  1  0
  1 29  1  0
  2 30  1  0
  2 31  1  0
  3 32  1  0
  3 33  1  0
  4 34  1  0
  4 35  1  0
  5 36  1  0
  5 37  1  0
  6 38  1  0
  6 39  1  0
  7 40  1  0
  7 41  1  0
  8 42  1  0
  8 43  1  0
  9 44  1  0
  9 45  1  0
 10 46  1  0
 10 47  1  0
 11 48  1  0
 11 49  1  0
 12 50  1  0
 12 51  1  0
 13 52  1  0
 13 53  1  0
 14 54  1  0
 15 55  1  0
 16 56  1  0
 16 57  1  0
 17 58  1  6
 22 59  1  0
 22 60  1  0
 23 61  1  0
 23 62  1  0
 24 63  1  0
 25 64  1  6
 26 65  1  0
M  END
>  <Binding energies>  (1) 
[-6.13]

>  <Ligand effiencies>  (1) 
[-0.20433333333333334]

>  <Interactions>  (1) 
["V-A:ILE:369:CG2:3237, V-A:GLY:454:CA:4049, V-B:GLU:543:C:9874, H-B:GLU:543:O:9875, V-B:GLU:543:CB:9878, H-B:LYS:547:NZ:9923, V-B:ALA:541:CB:9864, V-B:TYR:539:CE2:9848, V-A:TYR:484:CE2:4346, V-B:GLU:543:CG:9879, V-A:GLY:544:C:4912, V-A:HIS:456:CD2:4068, V-A:TYR:484:CZ:4347, V-A:GLU:543:CD:4908, V-B:GLU:543:CA:9876, V-B:HIS:456:CE1:9041, V-A:SER:385:C:3405, V-A:GLY:453:C:4042, V-A:ILE:369:CD1:3239, V-A:HIS:456:CE1:4070, V-B:TYR:539:CD2:9846, H-A:LYS:547:NZ:4951, V-A:LEU:475:CD2:4259, V-A:GLY:453:CA:4044, H-A:GLY:544:O:4913, H-A:HIS:456:NE2:4071"]

$$$$
ZINC38155903
     RDKit          3D

 79 82  0  0  0  0  0  0  0  0999 V2000
  130.3840  117.8350   61.2050 C   0  0  0  0  0  0  0  0  0  0  0  0
  130.6490  119.3250   60.9500 C   0  0  0  0  0  0  0  0  0  0  0  0
  129.6110  120.2430   61.6340 C   0  0  0  0  0  0  0  0  0  0  0  0
  129.5130  121.7020   61.1040 C   0  0  2  0  0  0  0  0  0  0  0  0
  130.9030  122.3810   60.8970 C   0  0  0  0  0  0  0  0  0  0  0  0
  131.7980  122.4470   62.1590 C   0  0  0  0  0  0  0  0  0  0  0  0
  131.3410  123.3890   63.2770 C   0  0  0  0  0  0  0  0  0  0  0  0
  131.5930  124.7560   63.1260 C   0  0  0  0  0  0  0  0  0  0  0  0
  131.2020  125.6570   64.1120 C   0  0  0  0  0  0  0  0  0  0  0  0
  130.5550  125.1920   65.2560 C   0  0  0  0  0  0  0  0  0  0  0  0
  130.1720  126.0790   66.2270 O   0  0  0  0  0  0  0  0  0  0  0  0
  130.2980  123.8320   65.4170 C   0  0  0  0  0  0  0  0  0  0  0  0
  130.6910  122.9310   64.4310 C   0  0  0  0  0  0  0  0  0  0  0  0
  128.6350  122.5630   62.0590 C   0  0  0  0  0  0  0  0  0  0  0  0
  128.2250  123.9120   61.4490 C   0  0  0  0  0  0  0  0  0  0  0  0
  128.0630  124.9520   62.1680 O   0  0  0  0  0  0  0  0  0  0  0  0
  128.0470  123.8970   60.0320 C   0  0  0  0  0  0  0  0  0  0  0  0
  127.4060  125.3690   59.2280 S   0  0  0  0  0  0  0  0  0  0  0  0
  128.4030  126.6870   59.8970 C   0  0  0  0  0  0  0  0  0  0  0  0
  127.8100  127.4830   60.8850 C   0  0  0  0  0  0  0  0  0  0  0  0
  128.4940  128.5410   61.4750 C   0  0  0  0  0  0  0  0  0  0  0  0
  127.8140  129.3900   62.5370 C   0  0  0  0  0  0  0  0  0  0  0  0
  129.8010  128.8100   61.0770 C   0  0  0  0  0  0  0  0  0  0  0  0
  130.5020  129.8450   61.6380 O   0  0  0  0  0  0  0  0  0  0  0  0
  130.4560  131.3160   60.8510 S   0  0  0  0  0  0  0  0  0  0  0  0
  129.0810  131.5620   60.4040 O   0  0  0  0  0  0  0  0  0  0  0  0
  131.1740  132.3110   61.6570 O   0  0  0  0  0  0  0  0  0  0  0  0
  131.5160  130.8570   59.3550 C   0  0  0  0  0  0  0  0  0  0  0  0
  131.2630  131.7920   58.2730 N   0  0  0  0  0  0  0  0  0  0  0  0
  132.0720  132.0780   57.2050 C   0  0  0  0  0  0  0  0  0  0  0  0
  131.3810  133.0270   56.4650 C   0  0  0  0  0  0  0  0  0  0  0  0
  130.2170  133.3300   57.0120 N   0  0  0  0  0  0  0  0  0  0  0  0
  130.1560  132.5840   58.0910 C   0  0  0  0  0  0  0  0  0  0  0  0
  130.4090  128.0080   60.1110 C   0  0  0  0  0  0  0  0  0  0  0  0
  129.7440  126.9330   59.4880 C   0  0  0  0  0  0  0  0  0  0  0  0
  130.4980  126.0910   58.4000 C   0  0  0  0  0  0  0  0  0  0  0  0
  131.8250  126.7570   57.9240 C   0  0  0  0  0  0  0  0  0  0  0  0
  130.9160  124.7040   58.9530 C   0  0  0  0  0  0  0  0  0  0  0  0
  129.6410  125.9380   57.1150 C   0  0  0  0  0  0  0  0  0  0  0  0
  128.4200  122.7650   59.2420 C   0  0  0  0  0  0  0  0  0  0  0  0
  128.1940  122.7010   57.9910 O   0  0  0  0  0  0  0  0  0  0  0  0
  128.8160  121.6180   59.8530 O   0  0  0  0  0  0  0  0  0  0  0  0
  130.3509  117.6487   62.2886 H   0  0  0  0  0  0  0  0  0  0  0  0
  129.4213  117.5515   60.7546 H   0  0  0  0  0  0  0  0  0  0  0  0
  131.1899  117.2369   60.7546 H   0  0  0  0  0  0  0  0  0  0  0  0
  131.6482  119.5754   61.3359 H   0  0  0  0  0  0  0  0  0  0  0  0
  130.5767  119.4936   59.8654 H   0  0  0  0  0  0  0  0  0  0  0  0
  128.6221  119.7769   61.5122 H   0  0  0  0  0  0  0  0  0  0  0  0
  129.9495  120.3360   62.6765 H   0  0  0  0  0  0  0  0  0  0  0  0
  131.4456  121.8172   60.1239 H   0  0  0  0  0  0  0  0  0  0  0  0
  130.6949  123.4237   60.6150 H   0  0  0  0  0  0  0  0  0  0  0  0
  131.8556  121.4326   62.5804 H   0  0  0  0  0  0  0  0  0  0  0  0
  132.7587  122.8549   61.8115 H   0  0  0  0  0  0  0  0  0  0  0  0
  132.1033  125.1214   62.2226 H   0  0  0  0  0  0  0  0  0  0  0  0
  131.4026  126.7316   63.9892 H   0  0  0  0  0  0  0  0  0  0  0  0
  130.5990  126.9350   66.1420 H   0  0  0  0  0  0  0  0  0  0  0  0
  129.7858  123.4710   66.3211 H   0  0  0  0  0  0  0  0  0  0  0  0
  130.4908  121.8569   64.5581 H   0  0  0  0  0  0  0  0  0  0  0  0
  127.7235  121.9971   62.3018 H   0  0  0  0  0  0  0  0  0  0  0  0
  129.2375  122.7775   62.9540 H   0  0  0  0  0  0  0  0  0  0  0  0
  126.7791  127.2665   61.2019 H   0  0  0  0  0  0  0  0  0  0  0  0
  128.1029  129.0293   63.5352 H   0  0  0  0  0  0  0  0  0  0  0  0
  128.1245  130.4390   62.4221 H   0  0  0  0  0  0  0  0  0  0  0  0
  126.7225  129.3160   62.4221 H   0  0  0  0  0  0  0  0  0  0  0  0
  132.5794  130.8984   59.6334 H   0  0  0  0  0  0  0  0  0  0  0  0
  131.2609  129.8391   59.0252 H   0  0  0  0  0  0  0  0  0  0  0  0
  133.0591  131.6471   56.9816 H   0  0  0  0  0  0  0  0  0  0  0  0
  131.7577  133.4741   55.5332 H   0  0  0  0  0  0  0  0  0  0  0  0
  129.3005  132.5927   58.7825 H   0  0  0  0  0  0  0  0  0  0  0  0
  131.4489  128.2233   59.8241 H   0  0  0  0  0  0  0  0  0  0  0  0
  132.4200  127.0556   58.7996 H   0  0  0  0  0  0  0  0  0  0  0  0
  132.3985  126.0399   57.3183 H   0  0  0  0  0  0  0  0  0  0  0  0
  131.5927  127.6453   57.3183 H   0  0  0  0  0  0  0  0  0  0  0  0
  130.9081  124.7302   60.0527 H   0  0  0  0  0  0  0  0  0  0  0  0
  130.2083  123.9398   58.5993 H   0  0  0  0  0  0  0  0  0  0  0  0
  131.9282  124.4581   58.5993 H   0  0  0  0  0  0  0  0  0  0  0  0
  128.5933  125.7510   57.3931 H   0  0  0  0  0  0  0  0  0  0  0  0
  129.7033  126.8615   56.5206 H   0  0  0  0  0  0  0  0  0  0  0  0
  130.0190  125.0931   56.5206 H   0  0  0  0  0  0  0  0  0  0  0  0
  1  2  1  0
  2  3  1  0
  4  3  1  1
  4  5  1  0
  5  6  1  0
  6  7  1  0
  7  8  2  0
  8  9  1  0
  9 10  2  0
 10 11  1  0
 10 12  1  0
 12 13  2  0
  4 14  1  0
 14 15  1  0
 15 16  2  0
 15 17  1  0
 17 18  1  0
 18 19  1  0
 19 20  2  0
 20 21  1  0
 21 22  1  0
 21 23  2  0
 23 24  1  0
 24 25  1  0
 25 26  2  0
 25 27  2  0
 25 28  1  0
 28 29  1  0
 29 30  1  0
 30 31  2  0
 31 32  1  0
 32 33  2  0
 23 34  1  0
 34 35  2  0
 35 36  1  0
 36 37  1  0
 36 38  1  0
 36 39  1  0
 17 40  2  0
 40 41  1  0
 40 42  1  0
 42  4  1  0
 13  7  1  0
 35 19  1  0
 33 29  1  0
  1 43  1  0
  1 44  1  0
  1 45  1  0
  2 46  1  0
  2 47  1  0
  3 48  1  0
  3 49  1  0
  5 50  1  0
  5 51  1  0
  6 52  1  0
  6 53  1  0
  8 54  1  0
  9 55  1  0
 11 56  1  0
 12 57  1  0
 13 58  1  0
 14 59  1  0
 14 60  1  0
 20 61  1  0
 22 62  1  0
 22 63  1  0
 22 64  1  0
 28 65  1  0
 28 66  1  0
 30 67  1  0
 31 68  1  0
 33 69  1  0
 34 70  1  0
 37 71  1  0
 37 72  1  0
 37 73  1  0
 38 74  1  0
 38 75  1  0
 38 76  1  0
 39 77  1  0
 39 78  1  0
 39 79  1  0
M  CHG  1  41  -1
M  END
>  <Binding energies>  (1) 
[-7.84]

>  <Ligand effiencies>  (1) 
[-0.18232558139534882]

>  <Interactions>  (1) 
["V-B:PRO:540:CA:9855, H-A:GLU:543:OE2:4910, H-A:ALA:541:N:4891, V-A:ILE:538:CB:4862, V-B:ALA:541:CB:9864, V-B:TYR:539:CE2:9848, V-A:TYR:484:CE2:4346, V-B:GLU:543:CG:9879, V-B:TYR:539:C:9839, V-A:ASP:366:CG:3213, V-A:ILE:538:CG2:4863, V-A:LEU:363:CD1:3189, V-B:TYR:539:CZ:9849, V-A:ILE:538:CA:4860, V-A:TYR:484:CZ:4347, V-A:GLU:543:CD:4908, V-B:PRO:540:N:9856, V-A:PRO:482:CB:4326, V-B:TYR:539:CD2:9846, V-A:TYR:531:CZ:4794, V-A:TYR:539:C:4867, V-A:ASP:366:CB:3212, V-A:LEU:475:CD2:4259, H-A:GLU:543:OE1:4909, V-A:PRO:540:N:4884, H-A:TYR:539:N:4870, V-A:PRO:540:CB:4885, V-A:PRO:540:CA:4883, V-B:PRO:540:C:9853, V-A:PRO:540:CD:4887, V-A:HIS:383:NE2:3394"]

$$$$
ZINC3831942
     RDKit          3D

 53 57  0  0  0  0  0  0  0  0999 V2000
  132.0680  125.4170   59.7250 C   0  0  0  0  0  0  0  0  0  0  0  0
  131.9970  124.2670   60.7190 C   0  0  0  0  0  0  0  0  0  0  0  0
  132.5610  123.0820   60.4120 C   0  0  0  0  0  0  0  0  0  0  0  0
  132.6190  121.8970   61.3820 C   0  0  0  0  0  0  0  0  0  0  0  0
  133.9730  121.1790   61.2270 C   0  0  0  0  0  0  0  0  0  0  0  0
  131.3760  121.0090   61.1640 C   0  0  0  0  0  0  0  0  0  0  0  0
  132.5750  122.4330   62.7590 N   0  0  0  0  0  0  0  0  0  0  0  0
  131.7670  123.5520   63.0640 C   0  0  0  0  0  0  0  0  0  0  0  0
  131.3280  123.6980   64.3710 C   0  0  0  0  0  0  0  0  0  0  0  0
  130.4950  124.7520   64.7010 C   0  0  0  0  0  0  0  0  0  0  0  0
  129.9920  125.6010   63.7100 C   0  0  0  0  0  0  0  0  0  0  0  0
  130.3030  125.3720   62.3510 C   0  0  0  0  0  0  0  0  0  0  0  0
  131.3280  124.4290   62.0480 C   0  0  0  0  0  0  0  0  0  0  0  0
  129.4360  126.1040   61.2850 C   0  0  1  0  0  0  0  0  0  0  0  0
  128.8430  125.1780   60.2130 C   0  0  0  0  0  0  0  0  0  0  0  0
  128.2750  123.9400   60.5420 C   0  0  0  0  0  0  0  0  0  0  0  0
  127.7380  123.1210   59.5510 C   0  0  0  0  0  0  0  0  0  0  0  0
  127.7480  123.5310   58.2180 C   0  0  0  0  0  0  0  0  0  0  0  0
  127.0690  122.4810   57.0220 Cl  0  0  0  0  0  0  0  0  0  0  0  0
  128.2970  124.7750   57.8730 C   0  0  0  0  0  0  0  0  0  0  0  0
  128.3190  125.2530   56.4290 C   0  0  0  0  0  0  0  0  0  0  0  0
  128.8320  125.5900   58.8750 C   0  0  0  0  0  0  0  0  0  0  0  0
  128.3120  126.8440   61.7860 O   0  0  0  0  0  0  0  0  0  0  0  0
  128.3740  127.3580   63.0560 C   0  0  0  0  0  0  0  0  0  0  0  0
  127.5680  128.4670   63.3130 C   0  0  0  0  0  0  0  0  0  0  0  0
  127.5270  129.0120   64.5950 C   0  0  0  0  0  0  0  0  0  0  0  0
  128.2890  128.4430   65.6150 C   0  0  0  0  0  0  0  0  0  0  0  0
  128.2470  129.1210   67.2030 Cl  0  0  0  0  0  0  0  0  0  0  0  0
  129.0870  127.3290   65.3530 C   0  0  0  0  0  0  0  0  0  0  0  0
  129.1330  126.7640   64.0680 C   0  0  0  0  0  0  0  0  0  0  0  0
  132.1269  126.3703   60.2707 H   0  0  0  0  0  0  0  0  0  0  0  0
  132.9607  125.3007   59.0929 H   0  0  0  0  0  0  0  0  0  0  0  0
  131.1678  125.4114   59.0929 H   0  0  0  0  0  0  0  0  0  0  0  0
  133.0031  122.9589   59.4123 H   0  0  0  0  0  0  0  0  0  0  0  0
  134.3875  120.9592   62.2219 H   0  0  0  0  0  0  0  0  0  0  0  0
  133.8284  120.2391   60.6742 H   0  0  0  0  0  0  0  0  0  0  0  0
  134.6700  121.8260   60.6742 H   0  0  0  0  0  0  0  0  0  0  0  0
  130.9614  120.7128   62.1389 H   0  0  0  0  0  0  0  0  0  0  0  0
  130.6182  121.5714   60.5989 H   0  0  0  0  0  0  0  0  0  0  0  0
  131.6623  120.1098   60.5989 H   0  0  0  0  0  0  0  0  0  0  0  0
  132.7470  121.7440   63.4760 H   0  0  0  0  0  0  0  0  0  0  0  0
  131.6408  122.9788   65.1423 H   0  0  0  0  0  0  0  0  0  0  0  0
  130.2255  124.9241   65.7535 H   0  0  0  0  0  0  0  0  0  0  0  0
  130.1895  126.7908   60.8719 H   0  0  0  0  0  0  0  0  0  0  0  0
  128.2529  123.6119   61.5917 H   0  0  0  0  0  0  0  0  0  0  0  0
  127.3043  122.1469   59.8211 H   0  0  0  0  0  0  0  0  0  0  0  0
  128.3696  126.3516   56.4072 H   0  0  0  0  0  0  0  0  0  0  0  0
  129.1989  124.8352   55.9178 H   0  0  0  0  0  0  0  0  0  0  0  0
  127.4045  124.9178   55.9178 H   0  0  0  0  0  0  0  0  0  0  0  0
  129.2513  126.5712   58.6077 H   0  0  0  0  0  0  0  0  0  0  0  0
  126.9663  128.9103   62.5059 H   0  0  0  0  0  0  0  0  0  0  0  0
  126.8954  129.8885   64.8017 H   0  0  0  0  0  0  0  0  0  0  0  0
  129.6873  126.8880   66.1624 H   0  0  0  0  0  0  0  0  0  0  0  0
  1  2  1  0
  2  3  2  0
  3  4  1  0
  4  5  1  0
  4  6  1  0
  4  7  1  0
  7  8  1  0
  8  9  2  0
  9 10  1  0
 10 11  2  0
 11 12  1  0
 12 13  2  0
 12 14  1  0
 14 15  1  0
 15 16  2  0
 16 17  1  0
 17 18  2  0
 18 19  1  0
 18 20  1  0
 20 21  1  0
 20 22  2  0
 14 23  1  0
 23 24  1  0
 24 25  2  0
 25 26  1  0
 26 27  2  0
 27 28  1  0
 27 29  1  0
 29 30  2  0
 13  2  1  0
 22 15  1  0
 30 24  1  0
 13  8  1  0
 30 11  1  0
  1 31  1  0
  1 32  1  0
  1 33  1  0
  3 34  1  0
  5 35  1  0
  5 36  1  0
  5 37  1  0
  6 38  1  0
  6 39  1  0
  6 40  1  0
  7 41  1  0
  9 42  1  0
 10 43  1  0
 14 44  1  6
 16 45  1  0
 17 46  1  0
 21 47  1  0
 21 48  1  0
 21 49  1  0
 22 50  1  0
 25 51  1  0
 26 52  1  0
 29 53  1  0
M  END
>  <Binding energies>  (1) 
[-7.7]

>  <Ligand effiencies>  (1) 
[-0.24838709677419354]

>  <Interactions>  (1) 
["V-A:ILE:369:CG2:3237, V-B:PRO:540:CA:9855, V-B:TYR:539:CE2:9848, V-B:GLU:543:CG:9879, V-B:TYR:539:C:9839, V-A:ASP:366:CG:3213, V-A:GLU:543:CD:4908, V-B:HIS:456:CE1:9041, V-A:SER:385:C:3405, V-B:PRO:540:N:9856, V-A:ILE:369:CD1:3239, V-B:TYR:539:CD2:9846, V-A:GLU:543:CG:4907, V-A:SER:385:CB:3409, V-B:PRO:540:CD:9859, V-B:GLU:543:CD:9880, V-A:ASP:366:CB:3212, V-A:LEU:475:CD2:4259, V-B:TYR:539:CG:9844, V-A:GLU:543:CB:4906, V-B:TYR:539:CD1:9845, V-A:SER:385:CA:3407, V-B:TYR:539:CE1:9847, H-A:TYR:484:OH:4348"]

$$$$
ZINC384178924-again1
     RDKit          3D

 40 40  0  0  0  0  0  0  0  0999 V2000
  128.3840  133.0090   56.7280 C   0  0  0  0  0  0  0  0  0  0  0  0
  129.2210  132.3450   57.3220 C   0  0  0  0  0  0  0  0  0  0  0  0
  130.2660  131.5350   58.0000 C   0  0  1  0  0  0  0  0  0  0  0  0
  130.4470  130.2050   57.2080 C   0  0  0  0  0  0  0  0  0  0  0  0
  131.6300  132.3070   57.9320 C   0  0  0  0  0  0  0  0  0  0  0  0
  131.7760  133.3300   56.7860 C   0  0  0  0  0  0  0  0  0  0  0  0
  129.8920  131.2370   59.4220 N   0  0  0  0  0  0  0  0  0  0  0  0
  129.6920  129.8310   59.8420 C   0  0  0  0  0  0  0  0  0  0  0  0
  130.9890  129.1410   60.3210 C   0  0  0  0  0  0  0  0  0  0  0  0
  131.6010  129.9600   61.4680 N   0  0  0  0  0  0  0  0  0  0  0  0
  131.7950  131.4330   61.0580 C   0  0  0  0  0  0  0  0  0  0  0  0
  130.4530  132.0480   60.5390 C   0  0  2  0  0  0  0  0  0  0  0  0
  129.4180  132.3250   61.6830 C   0  0  0  0  0  0  0  0  0  0  0  0
  128.7330  133.7040   61.5400 C   0  0  0  0  0  0  0  0  0  0  0  0
  130.0360  132.2150   63.0940 C   0  0  0  0  0  0  0  0  0  0  0  0
  127.6308  133.6065   56.1935 H   0  0  0  0  0  0  0  0  0  0  0  0
  130.5607  129.3699   57.9149 H   0  0  0  0  0  0  0  0  0  0  0  0
  129.5641  130.0321   56.5751 H   0  0  0  0  0  0  0  0  0  0  0  0
  131.3440  130.2743   56.5751 H   0  0  0  0  0  0  0  0  0  0  0  0
  131.7584  132.8464   58.8821 H   0  0  0  0  0  0  0  0  0  0  0  0
  132.3943  131.5392   57.7411 H   0  0  0  0  0  0  0  0  0  0  0  0
  131.9195  134.3356   57.2082 H   0  0  0  0  0  0  0  0  0  0  0  0
  132.6454  133.0649   56.1664 H   0  0  0  0  0  0  0  0  0  0  0  0
  130.8671  133.3187   56.1664 H   0  0  0  0  0  0  0  0  0  0  0  0
  128.9636  129.8139   60.6661 H   0  0  0  0  0  0  0  0  0  0  0  0
  129.3371  129.2771   58.9604 H   0  0  0  0  0  0  0  0  0  0  0  0
  130.7566  128.1262   60.6763 H   0  0  0  0  0  0  0  0  0  0  0  0
  131.7045  129.0784   59.4879 H   0  0  0  0  0  0  0  0  0  0  0  0
  130.9880  129.9180   62.2690 H   0  0  0  0  0  0  0  0  0  0  0  0
  132.4860  129.5600   61.7430 H   0  0  0  0  0  0  0  0  0  0  0  0
  132.1412  132.0072   61.9300 H   0  0  0  0  0  0  0  0  0  0  0  0
  132.5391  131.4782   60.2491 H   0  0  0  0  0  0  0  0  0  0  0  0
  130.6873  133.0424   60.1312 H   0  0  0  0  0  0  0  0  0  0  0  0
  128.6605  131.5353   61.5710 H   0  0  0  0  0  0  0  0  0  0  0  0
  128.5279  134.1169   62.5387 H   0  0  0  0  0  0  0  0  0  0  0  0
  129.3963  134.3876   60.9898 H   0  0  0  0  0  0  0  0  0  0  0  0
  127.7875  133.5885   60.9898 H   0  0  0  0  0  0  0  0  0  0  0  0
  129.2498  132.3549   63.8505 H   0  0  0  0  0  0  0  0  0  0  0  0
  130.4918  131.2216   63.2182 H   0  0  0  0  0  0  0  0  0  0  0  0
  130.8066  132.9901   63.2182 H   0  0  0  0  0  0  0  0  0  0  0  0
  1  2  3  0
  3  2  1  6
  3  4  1  0
  3  5  1  0
  5  6  1  0
  3  7  1  0
  7  8  1  0
  8  9  1  0
  9 10  1  0
 10 11  1  0
 11 12  1  0
 12 13  1  0
 13 14  1  0
 13 15  1  0
 12  7  1  0
  1 16  1  0
  4 17  1  0
  4 18  1  0
  4 19  1  0
  5 20  1  0
  5 21  1  0
  6 22  1  0
  6 23  1  0
  6 24  1  0
  8 25  1  0
  8 26  1  0
  9 27  1  0
  9 28  1  0
 10 29  1  0
 10 30  1  0
 11 31  1  0
 11 32  1  0
 12 33  1  6
 13 34  1  0
 14 35  1  0
 14 36  1  0
 14 37  1  0
 15 38  1  0
 15 39  1  0
 15 40  1  0
M  CHG  1  10   1
M  END
>  <Binding energies>  (1) 
[-6.26]

>  <Ligand effiencies>  (1) 
[-0.36823529411764705]

>  <Interactions>  (1) 
["V-A:PRO:540:CG:4886, V-A:PRO:540:C:4881, V-A:ILE:538:CB:4862, V-A:TYR:539:CE2:4876, V-A:ASP:366:CG:3213, V-A:ILE:538:CG2:4863, V-A:TYR:539:CD1:4873, V-A:LEU:363:CD1:3189, V-A:ILE:538:CA:4860, V-A:TYR:539:CZ:4877, V-A:ALA:541:CB:4892, V-A:GLU:543:CD:4908, V-A:ALA:541:CA:4890, V-A:GLU:543:CG:4907, V-A:MET:535:CE:4835, V-A:TYR:539:C:4867, H-A:GLU:543:OE1:4909, H-A:ASP:366:OD1:3214, V-A:PRO:540:N:4884, V-A:TYR:539:CG:4872, V-A:PRO:540:CB:4885, V-A:PRO:540:CA:4883, V-A:TYR:539:CD2:4874, H-A:ASP:366:OD2:3215, V-A:PRO:540:CD:4887, V-A:TYR:539:CE1:4875"]

$$$$
ZINC386409696-again1
     RDKit          3D

 39 38  0  0  0  0  0  0  0  0999 V2000
  131.7330  133.3490   56.7660 C   0  0  0  0  0  0  0  0  0  0  0  0
  130.7230  132.4960   57.0120 C   0  0  0  0  0  0  0  0  0  0  0  0
  129.2720  132.9520   57.0160 C   0  0  0  0  0  0  0  0  0  0  0  0
  130.9630  131.0160   57.2850 C   0  0  0  0  0  0  0  0  0  0  0  0
  129.9490  130.3820   58.2640 C   0  0  0  0  0  0  0  0  0  0  0  0
  130.3190  130.5370   59.7640 C   0  0  2  0  0  0  0  0  0  0  0  0
  130.9190  129.2850   60.2300 N   0  0  0  0  0  0  0  0  0  0  0  0
  131.3720  129.3600   61.6210 N   0  0  0  0  0  0  0  0  0  0  0  0
  129.0920  131.0120   60.6180 C   0  0  2  0  0  0  0  0  0  0  0  0
  127.7820  131.0940   59.8020 C   0  0  0  0  0  0  0  0  0  0  0  0
  129.3570  132.3040   61.4390 C   0  0  0  0  0  0  0  0  0  0  0  0
  130.4930  132.1820   62.4780 C   0  0  0  0  0  0  0  0  0  0  0  0
  131.7460  131.8570   61.8830 O   0  0  0  0  0  0  0  0  0  0  0  0
  132.8550  131.8420   62.7710 C   0  0  0  0  0  0  0  0  0  0  0  0
  132.7718  132.9873   56.7705 H   0  0  0  0  0  0  0  0  0  0  0  0
  131.5204  134.4085   56.5603 H   0  0  0  0  0  0  0  0  0  0  0  0
  128.9248  133.0611   58.0541 H   0  0  0  0  0  0  0  0  0  0  0  0
  129.1902  133.9192   56.4984 H   0  0  0  0  0  0  0  0  0  0  0  0
  128.6516  132.2055   56.4984 H   0  0  0  0  0  0  0  0  0  0  0  0
  130.9050  130.4747   56.3292 H   0  0  0  0  0  0  0  0  0  0  0  0
  131.9527  130.9374   57.7587 H   0  0  0  0  0  0  0  0  0  0  0  0
  128.9705  130.8572   58.1006 H   0  0  0  0  0  0  0  0  0  0  0  0
  129.9435  129.3024   58.0531 H   0  0  0  0  0  0  0  0  0  0  0  0
  131.0661  131.3344   59.8905 H   0  0  0  0  0  0  0  0  0  0  0  0
  131.7670  129.1130   59.7100 H   0  0  0  0  0  0  0  0  0  0  0  0
  131.3770  128.4390   62.0360 H   0  0  0  0  0  0  0  0  0  0  0  0
  130.7530  129.9530   62.1570 H   0  0  0  0  0  0  0  0  0  0  0  0
  132.3070  129.7410   61.6660 H   0  0  0  0  0  0  0  0  0  0  0  0
  128.9480  130.2154   61.3627 H   0  0  0  0  0  0  0  0  0  0  0  0
  126.9247  131.1477   60.4892 H   0  0  0  0  0  0  0  0  0  0  0  0
  127.8006  131.9927   59.1680 H   0  0  0  0  0  0  0  0  0  0  0  0
  127.6883  130.2000   59.1680 H   0  0  0  0  0  0  0  0  0  0  0  0
  129.6188  133.1093   60.7369 H   0  0  0  0  0  0  0  0  0  0  0  0
  128.4364  132.5087   62.0052 H   0  0  0  0  0  0  0  0  0  0  0  0
  130.5920  133.1417   63.0063 H   0  0  0  0  0  0  0  0  0  0  0  0
  130.2290  131.3658   63.1665 H   0  0  0  0  0  0  0  0  0  0  0  0
  132.4931  131.8469   63.8097 H   0  0  0  0  0  0  0  0  0  0  0  0
  133.4531  130.9357   62.5954 H   0  0  0  0  0  0  0  0  0  0  0  0
  133.4774  132.7318   62.5954 H   0  0  0  0  0  0  0  0  0  0  0  0
  1  2  2  0
  2  3  1  0
  2  4  1  0
  4  5  1  0
  5  6  1  0
  6  7  1  0
  7  8  1  0
  6  9  1  0
  9 10  1  0
  9 11  1  0
 11 12  1  0
 12 13  1  0
 13 14  1  0
  1 15  1  0
  1 16  1  0
  3 17  1  0
  3 18  1  0
  3 19  1  0
  4 20  1  0
  4 21  1  0
  5 22  1  0
  5 23  1  0
  6 24  1  6
  7 25  1  0
  8 26  1  0
  8 27  1  0
  8 28  1  0
  9 29  1  1
 10 30  1  0
 10 31  1  0
 10 32  1  0
 11 33  1  0
 11 34  1  0
 12 35  1  0
 12 36  1  0
 14 37  1  0
 14 38  1  0
 14 39  1  0
M  CHG  1   8   1
M  END
>  <Binding energies>  (1) 
[-5.07]

>  <Ligand effiencies>  (1) 
[-0.2816666666666667]

>  <Interactions>  (1) 
["V-A:PRO:540:CG:4886, V-A:ALA:541:C:4888, H-A:ALA:541:N:4891, V-A:PRO:540:C:4881, V-A:ILE:538:CB:4862, V-A:ASP:366:CG:3213, V-A:ASN:362:CB:3176, V-A:ILE:538:CG2:4863, V-A:LEU:363:CD1:3189, V-A:TYR:539:CD1:4873, V-A:ILE:538:CA:4860, V-A:ALA:541:CB:4892, V-A:GLU:543:CD:4908, V-A:ALA:541:CA:4890, V-A:GLU:543:CG:4907, H-A:GLU:543:OE1:4909, V-A:PRO:540:N:4884, V-A:PRO:540:CB:4885, V-A:PRO:540:CA:4883, H-A:ASP:366:OD2:3215, V-A:PRO:540:CD:4887"]

$$$$
ZINC387322426
     RDKit          3D

 34 35  0  0  0  0  0  0  0  0999 V2000
  128.3500  128.8010   67.4770 C   0  0  0  0  0  0  0  0  0  0  0  0
  128.7010  127.4640   66.8040 C   0  0  0  0  0  0  0  0  0  0  0  0
  129.4550  126.4720   67.7190 C   0  0  1  0  0  0  0  0  0  0  0  0
  130.7350  126.0540   67.1310 N   0  0  0  0  0  0  0  0  0  0  0  0
  130.8450  125.1060   66.0970 C   0  0  0  0  0  0  0  0  0  0  0  0
  129.8730  124.1030   66.0320 C   0  0  0  0  0  0  0  0  0  0  0  0
  129.9210  123.1310   65.0330 C   0  0  0  0  0  0  0  0  0  0  0  0
  128.9710  122.1690   64.9800 F   0  0  0  0  0  0  0  0  0  0  0  0
  130.9470  123.1480   64.0900 C   0  0  0  0  0  0  0  0  0  0  0  0
  131.9280  124.1380   64.1490 C   0  0  0  0  0  0  0  0  0  0  0  0
  133.3330  124.1650   62.8660 Br  0  0  0  0  0  0  0  0  0  0  0  0
  131.8800  125.1090   65.1490 C   0  0  0  0  0  0  0  0  0  0  0  0
  129.6170  127.0650   69.1320 C   0  0  0  0  0  0  0  0  0  0  0  0
  128.5780  126.9630   70.0690 C   0  0  0  0  0  0  0  0  0  0  0  0
  128.7180  127.4920   71.3510 C   0  0  0  0  0  0  0  0  0  0  0  0
  127.2890  127.3520   72.6000 Br  0  0  0  0  0  0  0  0  0  0  0  0
  129.9060  128.1230   71.7170 C   0  0  0  0  0  0  0  0  0  0  0  0
  130.9530  128.2200   70.8030 C   0  0  0  0  0  0  0  0  0  0  0  0
  130.8170  127.6910   69.5170 C   0  0  0  0  0  0  0  0  0  0  0  0
  131.8760  127.7990   68.6510 O   0  0  0  0  0  0  0  0  0  0  0  0
  128.3816  128.6808   68.5700 H   0  0  0  0  0  0  0  0  0  0  0  0
  129.0774  129.5675   67.1713 H   0  0  0  0  0  0  0  0  0  0  0  0
  127.3399  129.1114   67.1713 H   0  0  0  0  0  0  0  0  0  0  0  0
  127.7657  126.9873   66.4753 H   0  0  0  0  0  0  0  0  0  0  0  0
  129.3766  127.6989   65.9683 H   0  0  0  0  0  0  0  0  0  0  0  0
  128.8523  125.5565   67.8117 H   0  0  0  0  0  0  0  0  0  0  0  0
  131.5020  126.7050   67.2230 H   0  0  0  0  0  0  0  0  0  0  0  0
  129.0629  124.0803   66.7758 H   0  0  0  0  0  0  0  0  0  0  0  0
  130.9832  122.3825   63.3009 H   0  0  0  0  0  0  0  0  0  0  0  0
  132.6597  125.8836   65.1951 H   0  0  0  0  0  0  0  0  0  0  0  0
  127.6412  126.4593   69.7886 H   0  0  0  0  0  0  0  0  0  0  0  0
  130.0167  128.5442   72.7271 H   0  0  0  0  0  0  0  0  0  0  0  0
  131.8908  128.7152   71.0951 H   0  0  0  0  0  0  0  0  0  0  0  0
  131.6130  128.0920   67.7750 H   0  0  0  0  0  0  0  0  0  0  0  0
  1  2  1  0
  2  3  1  0
  3  4  1  0
  4  5  1  0
  5  6  2  0
  6  7  1  0
  7  8  1  0
  7  9  2  0
  9 10  1  0
 10 11  1  0
 10 12  2  0
  3 13  1  0
 13 14  2  0
 14 15  1  0
 15 16  1  0
 15 17  2  0
 17 18  1  0
 18 19  2  0
 19 20  1  0
 12  5  1  0
 19 13  1  0
  1 21  1  0
  1 22  1  0
  1 23  1  0
  2 24  1  0
  2 25  1  0
  3 26  1  1
  4 27  1  0
  6 28  1  0
  9 29  1  0
 12 30  1  0
 14 31  1  0
 17 32  1  0
 18 33  1  0
 20 34  1  0
M  END
>  <Binding energies>  (1) 
[-7.17]

>  <Ligand effiencies>  (1) 
[-0.3259090909090909]

>  <Interactions>  (1) 
["V-B:GLU:543:C:9874, H-A:GLU:543:OE2:4910, V-A:GLU:543:C:4902, V-B:HIS:456:CD2:9039, V-B:GLU:543:CB:9878, V-B:ALA:541:CB:9864, V-A:TYR:484:CE2:4346, V-A:GLY:544:CA:4914, V-B:GLU:543:CG:9879, V-A:GLY:544:C:4912, H-A:ARG:545:N:4920, V-B:LYS:547:CE:9922, V-A:GLU:543:CD:4908, V-A:TYR:484:CZ:4347, V-B:HIS:456:CE1:9041, V-B:GLU:543:CA:9876, V-A:HIS:456:CE1:4070, V-B:GLY:544:C:9884, V-A:GLU:543:CG:4907, V-B:GLU:543:CD:9880, V-B:HIS:456:CG:9037, V-A:LEU:475:CD2:4259, V-A:GLU:543:CB:4906"]

$$$$
ZINC387529322-again1
     RDKit          3D

 39 39  0  0  0  0  0  0  0  0999 V2000
  130.5550  127.6370   72.2370 C   0  0  0  0  0  0  0  0  0  0  0  0
  129.2990  128.0780   72.4470 C   0  0  0  0  0  0  0  0  0  0  0  0
  129.0170  129.2750   73.3450 C   0  0  0  0  0  0  0  0  0  0  0  0
  129.8720  130.3600   73.0030 O   0  0  0  0  0  0  0  0  0  0  0  0
  129.5820  131.6030   73.6360 C   0  0  0  0  0  0  0  0  0  0  0  0
  128.5110  131.4430   74.7330 C   0  0  0  0  0  0  0  0  0  0  0  0
  129.1270  132.5730   72.5360 C   0  0  0  0  0  0  0  0  0  0  0  0
  128.0670  127.4000   71.8190 C   0  0  2  0  0  0  0  0  0  0  0  0
  127.6440  126.1890   72.5240 N   0  0  0  0  0  0  0  0  0  0  0  0
  128.5370  125.0770   72.3100 N   0  0  0  0  0  0  0  0  0  0  0  0
  128.2590  127.0540   70.3050 C   0  0  1  0  0  0  0  0  0  0  0  0
  126.9110  126.8970   69.5630 C   0  0  0  0  0  0  0  0  0  0  0  0
  129.1190  128.0980   69.5530 C   0  0  0  0  0  0  0  0  0  0  0  0
  130.3440  127.6750   68.7800 C   0  0  0  0  0  0  0  0  0  0  0  0
  129.1040  128.1460   68.0440 C   0  0  0  0  0  0  0  0  0  0  0  0
  130.7314  126.7699   71.5836 H   0  0  0  0  0  0  0  0  0  0  0  0
  131.4038  128.1442   72.7190 H   0  0  0  0  0  0  0  0  0  0  0  0
  127.9691  129.5847   73.2187 H   0  0  0  0  0  0  0  0  0  0  0  0
  129.2015  128.9894   74.3911 H   0  0  0  0  0  0  0  0  0  0  0  0
  130.4753  131.9938   74.1452 H   0  0  0  0  0  0  0  0  0  0  0  0
  128.9862  131.5140   75.7225 H   0  0  0  0  0  0  0  0  0  0  0  0
  127.7586  132.2387   74.6297 H   0  0  0  0  0  0  0  0  0  0  0  0
  128.0240  130.4621   74.6297 H   0  0  0  0  0  0  0  0  0  0  0  0
  128.7029  133.4772   72.9970 H   0  0  0  0  0  0  0  0  0  0  0  0
  129.9892  132.8497   71.9115 H   0  0  0  0  0  0  0  0  0  0  0  0
  128.3630  132.0869   71.9115 H   0  0  0  0  0  0  0  0  0  0  0  0
  127.2765  128.1587   71.9164 H   0  0  0  0  0  0  0  0  0  0  0  0
  126.7070  125.8970   72.2830 H   0  0  0  0  0  0  0  0  0  0  0  0
  127.9720  124.2430   72.2370 H   0  0  0  0  0  0  0  0  0  0  0  0
  129.0270  125.2430   71.4420 H   0  0  0  0  0  0  0  0  0  0  0  0
  128.7907  126.0910   70.3027 H   0  0  0  0  0  0  0  0  0  0  0  0
  126.0973  126.8022   70.2971 H   0  0  0  0  0  0  0  0  0  0  0  0
  126.7346  127.7807   68.9321 H   0  0  0  0  0  0  0  0  0  0  0  0
  126.9424  125.9964   68.9321 H   0  0  0  0  0  0  0  0  0  0  0  0
  128.9258  128.8224   70.3580 H   0  0  0  0  0  0  0  0  0  0  0  0
  131.2474  128.3024   68.7939 H   0  0  0  0  0  0  0  0  0  0  0  0
  130.9720  126.7724   68.7491 H   0  0  0  0  0  0  0  0  0  0  0  0
  129.1074  129.1153   67.5240 H   0  0  0  0  0  0  0  0  0  0  0  0
  128.4587  127.7272   67.2577 H   0  0  0  0  0  0  0  0  0  0  0  0
  1  2  2  0
  2  3  1  0
  3  4  1  0
  4  5  1  0
  5  6  1  0
  5  7  1  0
  2  8  1  0
  8  9  1  0
  9 10  1  0
  8 11  1  0
 11 12  1  0
 11 13  1  0
 13 14  1  0
 14 15  1  0
 15 13  1  0
  1 16  1  0
  1 17  1  0
  3 18  1  0
  3 19  1  0
  5 20  1  0
  6 21  1  0
  6 22  1  0
  6 23  1  0
  7 24  1  0
  7 25  1  0
  7 26  1  0
  8 27  1  6
  9 28  1  0
 10 29  1  0
 10 30  1  0
 11 31  1  1
 12 32  1  0
 12 33  1  0
 12 34  1  0
 13 35  1  0
 14 36  1  0
 14 37  1  0
 15 38  1  0
 15 39  1  0
M  END
>  <Binding energies>  (1) 
[-5.62]

>  <Ligand effiencies>  (1) 
[-0.31222222222222223]

>  <Interactions>  (1) 
["V-B:HIS:456:CD2:9039, V-B:GLU:543:C:9874, H-B:GLU:543:O:9875, V-A:GLU:543:C:4902, V-B:GLU:543:CB:9878, H-B:LYS:547:NZ:9923, V-A:GLY:544:C:4912, V-A:HIS:456:CD2:4068, V-B:TYR:484:CB:9312, V-A:GLU:543:CD:4908, V-B:HIS:456:CE1:9041, V-A:HIS:456:CE1:4070, V-B:GLY:544:C:9884, V-B:TYR:484:CG:9313, V-A:GLU:543:CG:4907, H-A:LYS:547:NZ:4951, V-A:GLU:543:CB:4906, H-B:GLY:544:O:9885, V-A:LYS:547:CE:4950, H-A:HIS:456:NE2:4071"]

$$$$
ZINC38801834
     RDKit          3D

 51 52  0  0  0  0  0  0  0  0999 V2000
  133.9570  123.5010   60.3570 C   0  0  0  0  0  0  0  0  0  0  0  0
  132.9040  124.6220   60.3550 C   0  0  2  0  0  0  0  0  0  0  0  0
  132.8450  125.5490   61.9300 S   0  0  0  0  0  0  0  0  0  0  0  0
  132.2260  124.3240   63.1370 C   0  0  1  0  0  0  0  0  0  0  0  0
  132.7670  122.9050   62.8850 C   0  0  0  0  0  0  0  0  0  0  0  0
  132.4590  124.7420   64.6020 C   0  0  0  0  0  0  0  0  0  0  0  0
  133.6020  124.7550   65.0660 O   0  0  0  0  0  0  0  0  0  0  0  0
  131.3560  125.0810   65.3000 N   0  0  0  0  0  0  0  0  0  0  0  0
  131.4080  125.5280   66.5680 N   0  0  0  0  0  0  0  0  0  0  0  0
  130.3500  126.1450   66.9140 C   0  0  0  0  0  0  0  0  0  0  0  0
  130.1590  126.7640   68.2320 C   0  0  0  0  0  0  0  0  0  0  0  0
  131.2060  127.5090   68.7880 C   0  0  0  0  0  0  0  0  0  0  0  0
  131.0720  128.0960   70.0430 C   0  0  0  0  0  0  0  0  0  0  0  0
  129.8820  127.9450   70.7560 C   0  0  0  0  0  0  0  0  0  0  0  0
  129.7450  128.5490   72.0730 C   0  0  0  0  0  0  0  0  0  0  0  0
  129.6360  129.0270   73.1200 N   0  0  0  0  0  0  0  0  0  0  0  0
  128.8270  127.2120   70.2120 C   0  0  0  0  0  0  0  0  0  0  0  0
  128.9660  126.6240   68.9570 C   0  0  0  0  0  0  0  0  0  0  0  0
  131.5210  124.0640   59.9300 C   0  0  0  0  0  0  0  0  0  0  0  0
  131.1270  123.0070   60.4220 O   0  0  0  0  0  0  0  0  0  0  0  0
  130.7520  124.7090   59.0280 N   0  0  0  0  0  0  0  0  0  0  0  0
  131.0860  125.8820   58.4600 N   0  0  0  0  0  0  0  0  0  0  0  0
  130.2970  126.8310   58.7670 C   0  0  0  0  0  0  0  0  0  0  0  0
  130.4730  128.2150   58.3040 C   0  0  0  0  0  0  0  0  0  0  0  0
  129.4180  128.8480   57.6370 C   0  0  0  0  0  0  0  0  0  0  0  0
  129.5400  130.1640   57.2010 C   0  0  0  0  0  0  0  0  0  0  0  0
  130.7270  130.8630   57.4280 C   0  0  0  0  0  0  0  0  0  0  0  0
  130.8530  132.2430   56.9830 C   0  0  0  0  0  0  0  0  0  0  0  0
  130.9530  133.3410   56.6310 N   0  0  0  0  0  0  0  0  0  0  0  0
  131.7890  130.2450   58.0870 C   0  0  0  0  0  0  0  0  0  0  0  0
  131.6610  128.9280   58.5220 C   0  0  0  0  0  0  0  0  0  0  0  0
  134.2071  123.2347   61.3946 H   0  0  0  0  0  0  0  0  0  0  0  0
  133.5539  122.6183   59.8389 H   0  0  0  0  0  0  0  0  0  0  0  0
  134.8631  123.8482   59.8389 H   0  0  0  0  0  0  0  0  0  0  0  0
  133.2098  125.3648   59.6035 H   0  0  0  0  0  0  0  0  0  0  0  0
  131.1385  124.2986   62.9735 H   0  0  0  0  0  0  0  0  0  0  0  0
  132.9563  122.4084   63.8481 H   0  0  0  0  0  0  0  0  0  0  0  0
  132.0264  122.3264   62.3134 H   0  0  0  0  0  0  0  0  0  0  0  0
  133.7048  122.9663   62.3134 H   0  0  0  0  0  0  0  0  0  0  0  0
  130.4360  125.0510   64.8850 H   0  0  0  0  0  0  0  0  0  0  0  0
  129.5310  126.2189   66.1834 H   0  0  0  0  0  0  0  0  0  0  0  0
  132.1443  127.6317   68.2272 H   0  0  0  0  0  0  0  0  0  0  0  0
  131.9018  128.6772   70.4715 H   0  0  0  0  0  0  0  0  0  0  0  0
  127.8876  127.0987   70.7729 H   0  0  0  0  0  0  0  0  0  0  0  0
  128.1335  126.0450   68.5307 H   0  0  0  0  0  0  0  0  0  0  0  0
  129.8570  124.3350   58.7480 H   0  0  0  0  0  0  0  0  0  0  0  0
  129.4367  126.6040   59.4137 H   0  0  0  0  0  0  0  0  0  0  0  0
  128.4821  128.2993   57.4554 H   0  0  0  0  0  0  0  0  0  0  0  0
  128.7037  130.6520   56.6791 H   0  0  0  0  0  0  0  0  0  0  0  0
  132.7249  130.7957   58.2628 H   0  0  0  0  0  0  0  0  0  0  0  0
  132.5000  128.4422   59.0417 H   0  0  0  0  0  0  0  0  0  0  0  0
  1  2  1  0
  2  3  1  0
  3  4  1  0
  4  5  1  0
  4  6  1  0
  6  7  2  0
  6  8  1  0
  8  9  1  0
  9 10  2  0
 10 11  1  0
 11 12  2  0
 12 13  1  0
 13 14  2  0
 14 15  1  0
 15 16  3  0
 14 17  1  0
 17 18  2  0
  2 19  1  0
 19 20  2  0
 19 21  1  0
 21 22  1  0
 22 23  2  0
 23 24  1  0
 24 25  2  0
 25 26  1  0
 26 27  2  0
 27 28  1  0
 28 29  3  0
 27 30  1  0
 30 31  2  0
 18 11  1  0
 31 24  1  0
  1 32  1  0
  1 33  1  0
  1 34  1  0
  2 35  1  6
  4 36  1  1
  5 37  1  0
  5 38  1  0
  5 39  1  0
  8 40  1  0
 10 41  1  0
 12 42  1  0
 13 43  1  0
 17 44  1  0
 18 45  1  0
 21 46  1  0
 23 47  1  0
 25 48  1  0
 26 49  1  0
 30 50  1  0
 31 51  1  0
M  END
>  <Binding energies>  (1) 
[-8.28]

>  <Ligand effiencies>  (1) 
[-0.2509090909090909]

>  <Interactions>  (1) 
["V-A:ILE:369:CG2:3237, V-B:GLU:543:C:9874, H-A:GLU:543:OE2:4910, V-A:ILE:369:CB:3236, V-A:GLU:543:C:4902, V-B:HIS:456:CD2:9039, V-B:GLU:543:CB:9878, V-B:TYR:539:CE2:9848, V-A:GLY:544:C:4912, V-A:ASP:366:CG:3213, V-B:TYR:539:CZ:9849, H-B:TYR:539:OH:9850, V-A:GLU:543:CD:4908, V-A:ARG:545:CG:4922, H-A:GLY:454:N:4050, V-B:HIS:456:CE1:9041, V-A:ILE:369:CD1:3239, V-A:HIS:456:CE1:4070, V-A:MET:535:CE:4835, V-A:ASP:366:CB:3212, H-A:LYS:547:NZ:4951, H-A:ARG:545:NH2:4928, V-A:ARG:545:CZ:4926, V-A:LEU:475:CD2:4259, V-A:GLU:543:CB:4906, H-A:TYR:539:N:4870, H-A:ARG:545:NE:4924, H-A:TYR:484:OH:4348"]

$$$$
ZINC38918830
     RDKit          3D

 43 44  0  0  0  0  0  0  0  0999 V2000
  132.4090  131.5250   61.0260 C   0  0  0  0  0  0  0  0  0  0  0  0
  131.8160  131.1540   59.8730 C   0  0  0  0  0  0  0  0  0  0  0  0
  132.6460  130.9590   58.6110 C   0  0  0  0  0  0  0  0  0  0  0  0
  132.1120  131.8830   57.5080 C   0  0  0  0  0  0  0  0  0  0  0  0
  130.6370  131.5820   57.1830 C   0  0  1  0  0  0  0  0  0  0  0  0
  130.5750  130.3260   56.5220 O   0  0  0  0  0  0  0  0  0  0  0  0
  129.7000  131.6610   58.4460 C   0  0  2  0  0  0  0  0  0  0  0  0
  128.3070  131.0870   58.0260 C   0  0  0  0  0  0  0  0  0  0  0  0
  129.5310  133.1520   58.8840 C   0  0  0  0  0  0  0  0  0  0  0  0
  128.6160  133.3310   60.1170 C   0  0  0  0  0  0  0  0  0  0  0  0
  129.1700  132.5360   61.3290 C   0  0  1  0  0  0  0  0  0  0  0  0
  128.3820  132.7550   62.6600 C   0  0  0  0  0  0  0  0  0  0  0  0
  129.1060  132.2050   63.9080 C   0  0  0  0  0  0  0  0  0  0  0  0
  126.9350  132.2280   62.5900 C   0  0  0  0  0  0  0  0  0  0  0  0
  129.3820  131.0350   60.9350 C   0  0  2  0  0  0  0  0  0  0  0  0
  129.7680  130.1990   62.0120 O   0  0  0  0  0  0  0  0  0  0  0  0
  130.3020  130.8610   59.6740 C   0  0  2  0  0  0  0  0  0  0  0  0
  131.8053  131.6646   61.9349 H   0  0  0  0  0  0  0  0  0  0  0  0
  133.4964  131.6880   61.0576 H   0  0  0  0  0  0  0  0  0  0  0  0
  133.6974  131.2055   58.8204 H   0  0  0  0  0  0  0  0  0  0  0  0
  132.5770  129.9118   58.2814 H   0  0  0  0  0  0  0  0  0  0  0  0
  132.1980  132.9269   57.8438 H   0  0  0  0  0  0  0  0  0  0  0  0
  132.7069  131.7134   56.5984 H   0  0  0  0  0  0  0  0  0  0  0  0
  130.2470  132.3626   56.5132 H   0  0  0  0  0  0  0  0  0  0  0  0
  131.4640  129.9680   56.4650 H   0  0  0  0  0  0  0  0  0  0  0  0
  127.7230  130.8463   58.9265 H   0  0  0  0  0  0  0  0  0  0  0  0
  127.7670  131.8359   57.4280 H   0  0  0  0  0  0  0  0  0  0  0  0
  128.4514  130.1751   57.4280 H   0  0  0  0  0  0  0  0  0  0  0  0
  130.5241  133.5591   59.1250 H   0  0  0  0  0  0  0  0  0  0  0  0
  129.0549  133.6838   58.0470 H   0  0  0  0  0  0  0  0  0  0  0  0
  128.5655  134.3985   60.3776 H   0  0  0  0  0  0  0  0  0  0  0  0
  127.6132  132.9508   59.8723 H   0  0  0  0  0  0  0  0  0  0  0  0
  130.1581  132.9522   61.5748 H   0  0  0  0  0  0  0  0  0  0  0  0
  128.3368  133.8479   62.7763 H   0  0  0  0  0  0  0  0  0  0  0  0
  128.6105  132.5815   64.8150 H   0  0  0  0  0  0  0  0  0  0  0  0
  129.0684  131.1057   63.8990 H   0  0  0  0  0  0  0  0  0  0  0  0
  130.1550  132.5360   63.8990 H   0  0  0  0  0  0  0  0  0  0  0  0
  126.5466  132.0865   63.6094 H   0  0  0  0  0  0  0  0  0  0  0  0
  126.3056  132.9546   62.0553 H   0  0  0  0  0  0  0  0  0  0  0  0
  126.9203  131.2668   62.0553 H   0  0  0  0  0  0  0  0  0  0  0  0
  128.3822  130.6787   60.6462 H   0  0  0  0  0  0  0  0  0  0  0  0
  130.7250  130.1240   62.0110 H   0  0  0  0  0  0  0  0  0  0  0  0
  130.2913  129.7811   59.4648 H   0  0  0  0  0  0  0  0  0  0  0  0
  1  2  2  0
  2  3  1  0
  3  4  1  0
  4  5  1  0
  5  6  1  0
  5  7  1  0
  7  8  1  6
  7  9  1  0
  9 10  1  0
 10 11  1  0
 11 12  1  0
 12 13  1  0
 12 14  1  0
 11 15  1  0
 15 16  1  0
 15 17  1  0
 17  2  1  0
 17  7  1  0
  1 18  1  0
  1 19  1  0
  3 20  1  0
  3 21  1  0
  4 22  1  0
  4 23  1  0
  5 24  1  6
  6 25  1  0
  8 26  1  0
  8 27  1  0
  8 28  1  0
  9 29  1  0
  9 30  1  0
 10 31  1  0
 10 32  1  0
 11 33  1  1
 12 34  1  0
 13 35  1  0
 13 36  1  0
 13 37  1  0
 14 38  1  0
 14 39  1  0
 14 40  1  0
 15 41  1  6
 16 42  1  0
 17 43  1  6
M  END
>  <Binding energies>  (1) 
[-5.65]

>  <Ligand effiencies>  (1) 
[-0.2973684210526316]

>  <Interactions>  (1) 
["V-A:LEU:363:CD1:3189, V-A:TYR:539:CD1:4873, V-A:PRO:540:N:4884, V-A:PRO:540:CB:4885, V-A:PRO:540:CA:4883, V-A:ALA:541:CB:4892, V-A:GLU:543:CG:4907, H-A:TYR:531:OH:4795, H-A:ASP:366:OD2:3215, V-A:TYR:539:C:4867, V-A:GLU:543:CD:4908, H-A:GLU:543:OE1:4909"]

$$$$
ZINC39110119
     RDKit          3D

 51 55  0  0  0  0  0  0  0  0999 V2000
  129.8540  129.4910   73.7910 O   0  0  0  0  0  0  0  0  0  0  0  0
  130.3570  129.1220   72.5320 N   0  0  0  0  0  0  0  0  0  0  0  0
  129.5580  128.3640   71.8880 C   0  0  0  0  0  0  0  0  0  0  0  0
  128.1770  127.8250   72.2960 C   0  0  0  0  0  0  0  0  0  0  0  0
  127.6410  126.9810   71.1470 C   0  0  0  0  0  0  0  0  0  0  0  0
  128.7280  127.0320   70.1180 C   0  0  0  0  0  0  0  0  0  0  0  0
  128.7560  126.4200   68.8640 C   0  0  0  0  0  0  0  0  0  0  0  0
  129.8560  126.5900   68.0160 C   0  0  0  0  0  0  0  0  0  0  0  0
  129.8930  125.9430   66.6710 C   0  0  0  0  0  0  0  0  0  0  0  0
  130.4490  124.7080   66.3730 C   0  0  0  0  0  0  0  0  0  0  0  0
  130.2330  124.4880   65.0410 N   0  0  0  0  0  0  0  0  0  0  0  0
  130.6360  123.3090   64.2570 C   0  0  0  0  0  0  0  0  0  0  0  0
  129.4440  122.8530   63.3760 C   0  0  0  0  0  0  0  0  0  0  0  0
  129.8340  121.7250   62.4060 C   0  0  0  0  0  0  0  0  0  0  0  0
  131.0390  122.1740   61.5610 N   0  0  0  0  0  0  0  0  0  0  0  0
  132.2590  122.5480   62.4210 C   0  0  0  0  0  0  0  0  0  0  0  0
  131.8690  123.6760   63.3930 C   0  0  0  0  0  0  0  0  0  0  0  0
  129.5860  125.5150   64.4700 N   0  0  0  0  0  0  0  0  0  0  0  0
  129.3930  126.4020   65.4270 C   0  0  0  0  0  0  0  0  0  0  0  0
  128.7310  127.7030   65.1070 C   0  0  0  0  0  0  0  0  0  0  0  0
  128.4760  128.0770   63.7790 C   0  0  0  0  0  0  0  0  0  0  0  0
  127.8540  129.3020   63.5290 C   0  0  0  0  0  0  0  0  0  0  0  0
  127.4840  130.1560   64.5150 N   0  0  0  0  0  0  0  0  0  0  0  0
  127.7400  129.7890   65.7960 C   0  0  0  0  0  0  0  0  0  0  0  0
  128.3590  128.5840   66.1310 C   0  0  0  0  0  0  0  0  0  0  0  0
  130.9350  127.3660   68.4510 C   0  0  0  0  0  0  0  0  0  0  0  0
  130.9060  127.9760   69.7060 C   0  0  0  0  0  0  0  0  0  0  0  0
  129.8010  127.8160   70.5470 C   0  0  0  0  0  0  0  0  0  0  0  0
  128.2704  127.2067   73.2010 H   0  0  0  0  0  0  0  0  0  0  0  0
  127.4907  128.6575   72.5102 H   0  0  0  0  0  0  0  0  0  0  0  0
  127.4608  125.9462   71.4736 H   0  0  0  0  0  0  0  0  0  0  0  0
  126.6791  127.3521   70.7636 H   0  0  0  0  0  0  0  0  0  0  0  0
  127.9074  125.7996   68.5400 H   0  0  0  0  0  0  0  0  0  0  0  0
  130.9647  124.0348   67.0736 H   0  0  0  0  0  0  0  0  0  0  0  0
  130.9122  122.4765   64.9209 H   0  0  0  0  0  0  0  0  0  0  0  0
  128.6370  122.4931   64.0312 H   0  0  0  0  0  0  0  0  0  0  0  0
  129.1191  123.7158   62.7760 H   0  0  0  0  0  0  0  0  0  0  0  0
  130.1018  120.8246   62.9783 H   0  0  0  0  0  0  0  0  0  0  0  0
  128.9847  121.4979   61.7448 H   0  0  0  0  0  0  0  0  0  0  0  0
  131.2960  121.4320   60.9230 H   0  0  0  0  0  0  0  0  0  0  0  0
  130.7730  122.9700   60.9980 H   0  0  0  0  0  0  0  0  0  0  0  0
  132.5894  121.6682   62.9926 H   0  0  0  0  0  0  0  0  0  0  0  0
  133.0781  122.8886   61.7706 H   0  0  0  0  0  0  0  0  0  0  0  0
  132.7203  123.8784   64.0596 H   0  0  0  0  0  0  0  0  0  0  0  0
  131.6082  124.5608   62.7938 H   0  0  0  0  0  0  0  0  0  0  0  0
  128.7616  127.4156   62.9477 H   0  0  0  0  0  0  0  0  0  0  0  0
  127.6553  129.5869   62.4853 H   0  0  0  0  0  0  0  0  0  0  0  0
  127.4464  130.4720   66.6068 H   0  0  0  0  0  0  0  0  0  0  0  0
  128.5521  128.3295   67.1836 H   0  0  0  0  0  0  0  0  0  0  0  0
  131.8120  127.4964   67.8000 H   0  0  0  0  0  0  0  0  0  0  0  0
  131.7590  128.5872   70.0357 H   0  0  0  0  0  0  0  0  0  0  0  0
  1  2  1  0
  2  3  2  0
  3  4  1  0
  4  5  1  0
  5  6  1  0
  6  7  2  0
  7  8  1  0
  8  9  1  0
  9 10  2  0
 10 11  1  0
 11 12  1  0
 12 13  1  0
 13 14  1  0
 14 15  1  0
 15 16  1  0
 16 17  1  0
 11 18  1  0
 18 19  2  0
 19 20  1  0
 20 21  2  0
 21 22  1  0
 22 23  2  0
 23 24  1  0
 24 25  2  0
  8 26  2  0
 26 27  1  0
 27 28  2  0
 28  3  1  0
 28  6  1  0
 19  9  1  0
 25 20  1  0
 17 12  1  0
  4 29  1  0
  4 30  1  0
  5 31  1  0
  5 32  1  0
  7 33  1  0
 10 34  1  0
 12 35  1  0
 13 36  1  0
 13 37  1  0
 14 38  1  0
 14 39  1  0
 15 40  1  0
 15 41  1  0
 16 42  1  0
 16 43  1  0
 17 44  1  0
 17 45  1  0
 21 46  1  0
 22 47  1  0
 24 48  1  0
 25 49  1  0
 26 50  1  0
 27 51  1  0
M  CHG  2   1  -1  15   1
M  END
>  <Binding energies>  (1) 
[-9.1]

>  <Ligand effiencies>  (1) 
[-0.30333333333333334]

>  <Interactions>  (1) 
["V-B:HIS:456:CD2:9039, V-B:GLU:543:C:9874, V-A:GLU:543:C:4902, V-B:GLU:543:CB:9878, V-B:ALA:541:CB:9864, V-A:TYR:484:CE2:4346, V-B:GLU:543:CG:9879, V-A:GLY:544:C:4912, V-A:GLU:543:CD:4908, V-A:TYR:484:CZ:4347, H-B:TYR:484:OH:9319, V-A:ARG:545:CG:4922, V-B:HIS:456:CE1:9041, V-B:GLU:543:CA:9876, V-A:HIS:456:CE1:4070, V-B:TYR:484:CZ:9318, V-B:GLY:544:C:9884, V-A:GLU:543:CG:4907, V-B:GLU:543:CD:9880, H-A:LYS:547:NZ:4951, V-A:LEU:475:CD2:4259, V-A:GLU:543:CB:4906"]

$$$$
ZINC39206892
     RDKit          3D

 21 21  0  0  0  0  0  0  0  0999 V2000
  132.0000  131.8270   62.8240 C   0  0  0  0  0  0  0  0  0  0  0  0
  132.5300  131.3620   61.4530 C   0  0  0  0  0  0  0  0  0  0  0  0
  133.9680  131.8590   61.2090 C   0  0  0  0  0  0  0  0  0  0  0  0
  131.5880  131.7580   60.3140 C   0  0  0  0  0  0  0  0  0  0  0  0
  130.3920  132.2970   60.6650 N   0  0  0  0  0  0  0  0  0  0  0  0
  129.5590  132.6470   59.6500 C   0  0  0  0  0  0  0  0  0  0  0  0
  128.0310  133.3350   60.0730 Cl  0  0  0  0  0  0  0  0  0  0  0  0
  129.9120  132.4630   58.3030 C   0  0  0  0  0  0  0  0  0  0  0  0
  129.0050  132.8450   57.2150 N   0  0  0  0  0  0  0  0  0  0  0  0
  129.3920  133.7020   56.4290 O   0  0  0  0  0  0  0  0  0  0  0  0
  127.9180  132.2810   57.1590 O   0  0  0  0  0  0  0  0  0  0  0  0
  131.1710  131.8980   58.0420 C   0  0  0  0  0  0  0  0  0  0  0  0
  131.6980  131.6310   56.4170 Cl  0  0  0  0  0  0  0  0  0  0  0  0
  132.0190  131.5400   59.0420 N   0  0  0  0  0  0  0  0  0  0  0  0
  132.5672  131.3293   63.6244 H   0  0  0  0  0  0  0  0  0  0  0  0
  132.1196  132.9169   62.9129 H   0  0  0  0  0  0  0  0  0  0  0  0
  130.9350  131.5666   62.9129 H   0  0  0  0  0  0  0  0  0  0  0  0
  132.5626  130.2626   61.4697 H   0  0  0  0  0  0  0  0  0  0  0  0
  134.4654  132.0309   62.1749 H   0  0  0  0  0  0  0  0  0  0  0  0
  134.5260  131.1016   60.6389 H   0  0  0  0  0  0  0  0  0  0  0  0
  133.9392  132.7993   60.6389 H   0  0  0  0  0  0  0  0  0  0  0  0
  1  2  1  0
  2  3  1  0
  2  4  1  0
  4  5  2  0
  5  6  1  0
  6  7  1  0
  6  8  2  0
  8  9  1  0
  9 10  2  0
  9 11  1  0
  8 12  1  0
 12 13  1  0
 12 14  2  0
 14  4  1  0
  1 15  1  0
  1 16  1  0
  1 17  1  0
  2 18  1  0
  3 19  1  0
  3 20  1  0
  3 21  1  0
M  CHG  2   9   1  11  -1
M  END
>  <Binding energies>  (1) 
[-5.47]

>  <Ligand effiencies>  (1) 
[-0.3907142857142857]

>  <Interactions>  (1) 
["V-A:PRO:540:N:4884, V-A:TYR:539:CD1:4873, H-A:TYR:539:N:4870, V-A:PRO:540:CB:4885, V-A:PRO:540:CA:4883, V-A:LEU:363:CD1:3189, V-A:TYR:531:CE2:4793, H-A:ALA:541:N:4891, V-A:ALA:541:C:4888, V-A:ALA:541:CA:4890, V-A:LEU:363:CA:3185, V-A:GLU:543:CG:4907, V-A:ASN:362:CA:3174, V-A:GLU:543:CD:4908, V-A:TYR:539:C:4867, V-A:ASN:362:C:3172, V-A:TYR:539:CE1:4875, V-A:ASN:362:CB:3176"]

$$$$
ZINC39573767
     RDKit          3D

 57 59  0  0  0  0  0  0  0  0999 V2000
  128.3900  133.6960   62.2270 C   0  0  0  0  0  0  0  0  0  0  0  0
  129.0030  132.3520   62.6450 C   0  0  0  0  0  0  0  0  0  0  0  0
  129.0810  132.2170   64.1780 C   0  0  0  0  0  0  0  0  0  0  0  0
  130.2850  132.2690   62.0270 O   0  0  0  0  0  0  0  0  0  0  0  0
  130.3060  131.7860   60.6870 C   0  0  0  0  0  0  0  0  0  0  0  0
  130.8560  130.3430   60.6390 C   0  0  1  0  0  0  0  0  0  0  0  0
  131.8230  130.1720   61.6570 O   0  0  0  0  0  0  0  0  0  0  0  0
  129.7940  129.2220   60.7630 C   0  0  0  0  0  0  0  0  0  0  0  0
  130.4080  127.8910   60.8710 N   0  0  0  0  0  0  0  0  0  0  0  0
  130.3770  127.0370   61.9670 C   0  0  0  0  0  0  0  0  0  0  0  0
  129.6720  127.4170   63.0730 N   0  0  0  0  0  0  0  0  0  0  0  0
  129.8380  126.6840   64.0930 N   0  0  0  0  0  0  0  0  0  0  0  0
  129.1060  127.1120   65.1480 C   0  0  0  0  0  0  0  0  0  0  0  0
  129.1470  126.5270   66.3610 C   0  0  0  0  0  0  0  0  0  0  0  0
  130.3170  124.9650   66.7060 Br  0  0  0  0  0  0  0  0  0  0  0  0
  128.3580  126.9230   67.6040 C   0  0  0  0  0  0  0  0  0  0  0  0
  129.1850  127.3530   68.8100 C   0  0  0  0  0  0  0  0  0  0  0  0
  128.6200  127.3280   70.0880 C   0  0  0  0  0  0  0  0  0  0  0  0
  129.3880  127.6810   71.1950 C   0  0  0  0  0  0  0  0  0  0  0  0
  130.7200  128.0490   71.0200 C   0  0  0  0  0  0  0  0  0  0  0  0
  131.2930  128.0640   69.7510 C   0  0  0  0  0  0  0  0  0  0  0  0
  130.5250  127.7110   68.6430 C   0  0  0  0  0  0  0  0  0  0  0  0
  131.0680  125.9290   61.7470 N   0  0  0  0  0  0  0  0  0  0  0  0
  131.5410  126.0410   60.5200 C   0  0  0  0  0  0  0  0  0  0  0  0
  131.1620  127.2320   59.9200 C   0  0  0  0  0  0  0  0  0  0  0  0
  131.5380  127.5910   58.5620 C   0  0  0  0  0  0  0  0  0  0  0  0
  131.2490  128.5920   57.9110 O   0  0  0  0  0  0  0  0  0  0  0  0
  132.3200  126.6040   58.0320 N   0  0  0  0  0  0  0  0  0  0  0  0
  132.7640  125.4090   58.5320 C   0  0  0  0  0  0  0  0  0  0  0  0
  133.4780  124.6750   57.8490 O   0  0  0  0  0  0  0  0  0  0  0  0
  132.3370  125.1400   59.8120 N   0  0  0  0  0  0  0  0  0  0  0  0
  132.7460  123.8680   60.4220 C   0  0  0  0  0  0  0  0  0  0  0  0
  128.1264  134.2739   63.1251 H   0  0  0  0  0  0  0  0  0  0  0  0
  129.1193  134.2613   61.6282 H   0  0  0  0  0  0  0  0  0  0  0  0
  127.4850  133.5158   61.6282 H   0  0  0  0  0  0  0  0  0  0  0  0
  128.3712  131.5148   62.3133 H   0  0  0  0  0  0  0  0  0  0  0  0
  128.5834  133.0782   64.6477 H   0  0  0  0  0  0  0  0  0  0  0  0
  128.5800  131.2889   64.4903 H   0  0  0  0  0  0  0  0  0  0  0  0
  130.1353  132.1875   64.4903 H   0  0  0  0  0  0  0  0  0  0  0  0
  129.2831  131.7969   60.2825 H   0  0  0  0  0  0  0  0  0  0  0  0
  130.9593  132.4353   60.0856 H   0  0  0  0  0  0  0  0  0  0  0  0
  131.2890  130.2348   59.6336 H   0  0  0  0  0  0  0  0  0  0  0  0
  131.4570  130.4900   62.4860 H   0  0  0  0  0  0  0  0  0  0  0  0
  129.1861  129.4065   61.6610 H   0  0  0  0  0  0  0  0  0  0  0  0
  129.1755  129.2379   59.8535 H   0  0  0  0  0  0  0  0  0  0  0  0
  128.4451  127.9802   65.0082 H   0  0  0  0  0  0  0  0  0  0  0  0
  127.6988  127.7604   67.3318 H   0  0  0  0  0  0  0  0  0  0  0  0
  127.8238  126.0144   67.9188 H   0  0  0  0  0  0  0  0  0  0  0  0
  127.5694  127.0297   70.2195 H   0  0  0  0  0  0  0  0  0  0  0  0
  128.9451  127.6692   72.2018 H   0  0  0  0  0  0  0  0  0  0  0  0
  131.3258  128.3308   71.8938 H   0  0  0  0  0  0  0  0  0  0  0  0
  132.3467  128.3531   69.6237 H   0  0  0  0  0  0  0  0  0  0  0  0
  130.9732  127.7142   67.6385 H   0  0  0  0  0  0  0  0  0  0  0  0
  132.6300  126.7920   57.0900 H   0  0  0  0  0  0  0  0  0  0  0  0
  132.7163  123.9605   61.5177 H   0  0  0  0  0  0  0  0  0  0  0  0
  132.0590  123.0705   60.1026 H   0  0  0  0  0  0  0  0  0  0  0  0
  133.7691  123.6204   60.1026 H   0  0  0  0  0  0  0  0  0  0  0  0
  1  2  1  0
  2  3  1  0
  2  4  1  0
  4  5  1  0
  5  6  1  0
  6  7  1  0
  6  8  1  0
  8  9  1  0
  9 10  1  0
 10 11  1  0
 11 12  2  0
 12 13  1  0
 13 14  2  0
 14 15  1  0
 14 16  1  0
 16 17  1  0
 17 18  2  0
 18 19  1  0
 19 20  2  0
 20 21  1  0
 21 22  2  0
 10 23  2  0
 23 24  1  0
 24 25  2  0
 25 26  1  0
 26 27  2  0
 26 28  1  0
 28 29  1  0
 29 30  2  0
 29 31  1  0
 31 32  1  0
 25  9  1  0
 22 17  1  0
 31 24  1  0
  1 33  1  0
  1 34  1  0
  1 35  1  0
  2 36  1  0
  3 37  1  0
  3 38  1  0
  3 39  1  0
  5 40  1  0
  5 41  1  0
  6 42  1  6
  7 43  1  0
  8 44  1  0
  8 45  1  0
 13 46  1  0
 16 47  1  0
 16 48  1  0
 18 49  1  0
 19 50  1  0
 20 51  1  0
 21 52  1  0
 22 53  1  0
 28 54  1  0
 32 55  1  0
 32 56  1  0
 32 57  1  0
M  END
>  <Binding energies>  (1) 
[-7.43]

>  <Ligand effiencies>  (1) 
[-0.21852941176470586]

>  <Interactions>  (1) 
["V-A:ASP:366:CA:3210, V-A:ARG:545:CA:4919, V-A:GLU:543:CA:4904, V-A:GLU:543:C:4902, H-A:ALA:541:N:4891, V-B:GLU:543:CB:9878, H-A:TYR:531:OH:4795, V-B:TYR:539:CE2:9848, V-A:TYR:484:CE2:4346, V-B:LEU:475:CD2:9230, V-B:GLU:543:CG:9879, V-A:GLY:544:C:4912, V-A:ASP:366:CG:3213, H-B:TYR:539:OH:9850, V-A:ALA:541:CB:4892, V-A:GLU:543:CD:4908, V-A:TYR:484:CZ:4347, V-B:HIS:456:CE1:9041, V-A:ARG:545:CG:4922, V-A:HIS:456:CE1:4070, V-A:GLU:543:CG:4907, V-A:TYR:531:CZ:4794, V-B:GLU:543:CD:9880, V-A:ASP:366:CB:3212, H-A:ARG:545:NH2:4928, H-A:GLU:543:OE1:4909, H-A:ASP:366:O:3209, V-A:GLU:543:CB:4906, V-A:PRO:540:CA:4883, H-A:ASP:366:OD2:3215"]

$$$$
ZINC3965831
     RDKit          3D

 43 44  0  0  0  0  0  0  0  0999 V2000
  129.8740  124.2480   65.9790 C   0  0  0  0  0  0  0  0  0  0  0  0
  130.7880  125.4810   65.8560 C   0  0  1  0  0  0  0  0  0  0  0  0
  131.7490  125.4130   66.8890 O   0  0  0  0  0  0  0  0  0  0  0  0
  131.5320  125.5680   64.5020 C   0  0  1  0  0  0  0  0  0  0  0  0
  132.8050  124.6750   64.4620 C   0  0  0  0  0  0  0  0  0  0  0  0
  133.8890  124.6770   65.0420 O   0  0  0  0  0  0  0  0  0  0  0  0
  132.2820  123.9200   63.4000 N   0  0  0  0  0  0  0  0  0  0  0  0
  132.7670  123.8580   62.1530 C   0  0  0  0  0  0  0  0  0  0  0  0
  134.0610  123.0620   61.8530 C   0  0  0  0  0  0  0  0  0  0  0  0
  135.0930  123.5010   62.4100 O   0  0  0  0  0  0  0  0  0  0  0  0
  133.9080  122.0660   61.1090 O   0  0  0  0  0  0  0  0  0  0  0  0
  131.9790  124.6060   61.3520 C   0  0  0  0  0  0  0  0  0  0  0  0
  131.9900  124.9760   59.8560 C   0  0  0  0  0  0  0  0  0  0  0  0
  133.2390  124.3770   59.1650 C   0  0  0  0  0  0  0  0  0  0  0  0
  130.7550  124.3900   59.1170 C   0  0  0  0  0  0  0  0  0  0  0  0
  132.0060  126.5220   59.6590 C   0  0  0  0  0  0  0  0  0  0  0  0
  130.6280  127.2020   59.4990 C   0  0  0  0  0  0  0  0  0  0  0  0
  130.4850  128.4400   60.3960 C   0  0  0  0  0  0  0  0  0  0  0  0
  131.3300  128.2670   61.6620 N   0  0  0  0  0  0  0  0  0  0  0  0
  130.9670  125.1680   62.0710 O   0  0  0  0  0  0  0  0  0  0  0  0
  131.0050  124.6380   63.3690 C   0  0  2  0  0  0  0  0  0  0  0  0
  129.7057  124.0209   67.0421 H   0  0  0  0  0  0  0  0  0  0  0  0
  128.9102  124.4560   65.4914 H   0  0  0  0  0  0  0  0  0  0  0  0
  130.3532  123.3862   65.4914 H   0  0  0  0  0  0  0  0  0  0  0  0
  130.1490  126.3735   65.9279 H   0  0  0  0  0  0  0  0  0  0  0  0
  132.3960  124.7400   66.6600 H   0  0  0  0  0  0  0  0  0  0  0  0
  131.5327  126.6626   64.3933 H   0  0  0  0  0  0  0  0  0  0  0  0
  133.9523  124.0349   59.9294 H   0  0  0  0  0  0  0  0  0  0  0  0
  132.9378  123.5254   58.5373 H   0  0  0  0  0  0  0  0  0  0  0  0
  133.7145  125.1450   58.5373 H   0  0  0  0  0  0  0  0  0  0  0  0
  130.0180  124.0403   59.8549 H   0  0  0  0  0  0  0  0  0  0  0  0
  130.3014  125.1689   58.4865 H   0  0  0  0  0  0  0  0  0  0  0  0
  131.0714  123.5460   58.4865 H   0  0  0  0  0  0  0  0  0  0  0  0
  132.5005  126.9671   60.5349 H   0  0  0  0  0  0  0  0  0  0  0  0
  132.5315  126.6928   58.7079 H   0  0  0  0  0  0  0  0  0  0  0  0
  130.5037  127.5083   58.4499 H   0  0  0  0  0  0  0  0  0  0  0  0
  129.8567  126.4770   59.7982 H   0  0  0  0  0  0  0  0  0  0  0  0
  130.8280  129.3296   59.8473 H   0  0  0  0  0  0  0  0  0  0  0  0
  129.4291  128.5620   60.6792 H   0  0  0  0  0  0  0  0  0  0  0  0
  131.2490  127.3220   62.0080 H   0  0  0  0  0  0  0  0  0  0  0  0
  131.0120  128.9050   62.3770 H   0  0  0  0  0  0  0  0  0  0  0  0
  132.3010  128.4600   61.4610 H   0  0  0  0  0  0  0  0  0  0  0  0
  129.9968  124.2246   63.5198 H   0  0  0  0  0  0  0  0  0  0  0  0
  1  2  1  0
  2  3  1  0
  2  4  1  0
  4  5  1  0
  5  6  2  0
  5  7  1  0
  7  8  1  0
  8  9  1  0
  9 10  2  0
  9 11  1  0
  8 12  2  0
 12 13  1  0
 13 14  1  0
 13 15  1  0
 13 16  1  0
 16 17  1  0
 17 18  1  0
 18 19  1  0
 12 20  1  0
 20 21  1  0
 21  4  1  0
 21  7  1  0
  1 22  1  0
  1 23  1  0
  1 24  1  0
  2 25  1  1
  3 26  1  0
  4 27  1  6
 14 28  1  0
 14 29  1  0
 14 30  1  0
 15 31  1  0
 15 32  1  0
 15 33  1  0
 16 34  1  0
 16 35  1  0
 17 36  1  0
 17 37  1  0
 18 38  1  0
 18 39  1  0
 19 40  1  0
 19 41  1  0
 19 42  1  0
 21 43  1  1
M  CHG  2  11  -1  19   1
M  END
>  <Binding energies>  (1) 
[-5.59]

>  <Ligand effiencies>  (1) 
[-0.2236]

>  <Interactions>  (1) 
["V-A:ILE:369:CG2:3237, V-A:ASP:366:CA:3210, H-A:GLU:543:OE2:4910, V-B:GLU:543:CB:9878, V-B:TYR:539:CE2:9848, V-A:TYR:484:CE2:4346, V-B:GLU:543:CG:9879, V-A:ASP:366:CG:3213, V-B:TYR:539:CZ:9849, V-A:GLU:543:CD:4908, V-A:TYR:484:CZ:4347, V-B:GLU:543:CA:9876, H-A:GLY:454:N:4050, V-A:ILE:369:CD1:3239, V-B:GLU:543:CD:9880, V-A:ASP:366:CB:3212, H-A:ARG:545:NH2:4928, V-A:ARG:545:CZ:4926, H-A:GLU:543:OE1:4909, H-A:ASP:366:OD1:3214, H-A:ARG:545:NE:4924, H-A:ASP:366:OD2:3215, H-A:TYR:484:OH:4348"]

$$$$
ZINC3979756
     RDKit          3D

 75 77  0  0  0  0  0  0  0  0999 V2000
  130.3960  128.0140   59.9590 C   0  0  0  0  0  0  0  0  0  0  0  0
  130.8600  127.5290   58.5820 C   0  0  0  0  0  0  0  0  0  0  0  0
  132.1090  126.8640   58.7150 O   0  0  0  0  0  0  0  0  0  0  0  0
  132.4260  125.8350   57.9050 C   0  0  0  0  0  0  0  0  0  0  0  0
  133.2220  125.8660   56.9600 O   0  0  0  0  0  0  0  0  0  0  0  0
  131.7160  124.7670   58.3120 O   0  0  0  0  0  0  0  0  0  0  0  0
  132.1430  123.9940   59.4270 C   0  0  0  0  0  0  0  0  0  0  0  0
  132.3210  124.8730   60.6800 C   0  0  1  0  0  0  0  0  0  0  0  0
  131.0790  124.8180   61.3890 O   0  0  0  0  0  0  0  0  0  0  0  0
  131.0070  125.7230   62.4610 C   0  0  1  0  0  0  0  0  0  0  0  0
  129.7330  125.6570   63.0410 O   0  0  0  0  0  0  0  0  0  0  0  0
  129.6670  125.6680   64.4160 C   0  0  0  0  0  0  0  0  0  0  0  0
  129.4400  126.7700   65.0990 N   0  0  0  0  0  0  0  0  0  0  0  0
  129.4370  126.3870   66.3840 N   0  0  0  0  0  0  0  0  0  0  0  0
  129.2260  127.3960   67.4340 C   0  0  0  0  0  0  0  0  0  0  0  0
  128.4020  126.8120   68.6010 C   0  0  0  0  0  0  0  0  0  0  0  0
  128.5750  128.6580   66.8350 C   0  0  0  0  0  0  0  0  0  0  0  0
  129.6760  125.0370   66.5310 C   0  0  0  0  0  0  0  0  0  0  0  0
  129.7410  124.3490   67.8780 C   0  0  0  0  0  0  0  0  0  0  0  0
  129.8160  124.5400   65.2370 C   0  0  0  0  0  0  0  0  0  0  0  0
  130.0940  123.1150   64.8050 C   0  0  0  0  0  0  0  0  0  0  0  0
  129.6010  122.8360   63.3930 C   0  0  0  0  0  0  0  0  0  0  0  0
  128.3000  123.1870   63.0270 C   0  0  0  0  0  0  0  0  0  0  0  0
  127.8460  122.9250   61.7390 C   0  0  0  0  0  0  0  0  0  0  0  0
  128.6780  122.3100   60.8010 C   0  0  0  0  0  0  0  0  0  0  0  0
  128.1310  122.0950   59.5490 O   0  0  0  0  0  0  0  0  0  0  0  0
  127.6270  123.1810   58.7670 C   0  0  0  0  0  0  0  0  0  0  0  0
  127.2460  122.6040   57.3950 C   0  0  0  0  0  0  0  0  0  0  0  0
  128.6800  124.2990   58.6410 C   0  0  0  0  0  0  0  0  0  0  0  0
  129.9870  121.9650   61.1730 C   0  0  0  0  0  0  0  0  0  0  0  0
  130.4440  122.2250   62.4620 C   0  0  0  0  0  0  0  0  0  0  0  0
  132.0200  125.3080   63.5410 C   0  0  2  0  0  0  0  0  0  0  0  0
  131.9780  126.1880   64.6500 O   0  0  0  0  0  0  0  0  0  0  0  0
  133.4430  125.2350   62.9340 C   0  0  1  0  0  0  0  0  0  0  0  0
  134.3750  124.7290   63.8760 O   0  0  0  0  0  0  0  0  0  0  0  0
  133.4650  124.4180   61.6230 C   0  0  2  0  0  0  0  0  0  0  0  0
  134.7370  124.5100   61.0010 O   0  0  0  0  0  0  0  0  0  0  0  0
  130.9294  127.4565   60.7430 H   0  0  0  0  0  0  0  0  0  0  0  0
  130.6117  129.0878   60.0614 H   0  0  0  0  0  0  0  0  0  0  0  0
  129.3137  127.8460   60.0614 H   0  0  0  0  0  0  0  0  0  0  0  0
  130.1156  126.8334   58.1673 H   0  0  0  0  0  0  0  0  0  0  0  0
  130.9707  128.3897   57.9060 H   0  0  0  0  0  0  0  0  0  0  0  0
  131.3902  123.2197   59.6361 H   0  0  0  0  0  0  0  0  0  0  0  0
  133.1129  123.5364   59.1823 H   0  0  0  0  0  0  0  0  0  0  0  0
  132.5970  125.8866   60.3539 H   0  0  0  0  0  0  0  0  0  0  0  0
  131.2170  126.7366   62.0887 H   0  0  0  0  0  0  0  0  0  0  0  0
  130.2012  127.6902   67.8492 H   0  0  0  0  0  0  0  0  0  0  0  0
  128.8460  127.1267   69.5569 H   0  0  0  0  0  0  0  0  0  0  0  0
  127.3670  127.1793   68.5389 H   0  0  0  0  0  0  0  0  0  0  0  0
  128.4057  125.7138   68.5389 H   0  0  0  0  0  0  0  0  0  0  0  0
  128.2353  129.3165   67.6480 H   0  0  0  0  0  0  0  0  0  0  0  0
  129.3107  129.1909   66.2147 H   0  0  0  0  0  0  0  0  0  0  0  0
  127.7143  128.3674   66.2147 H   0  0  0  0  0  0  0  0  0  0  0  0
  129.6700  125.1010   68.6776 H   0  0  0  0  0  0  0  0  0  0  0  0
  128.9060  123.6386   67.9675 H   0  0  0  0  0  0  0  0  0  0  0  0
  130.6943  123.8075   67.9675 H   0  0  0  0  0  0  0  0  0  0  0  0
  131.1791  122.9387   64.8427 H   0  0  0  0  0  0  0  0  0  0  0  0
  129.5553  122.4434   65.4896 H   0  0  0  0  0  0  0  0  0  0  0  0
  127.6345  123.6706   63.7572 H   0  0  0  0  0  0  0  0  0  0  0  0
  126.8206  123.2051   61.4560 H   0  0  0  0  0  0  0  0  0  0  0  0
  126.7478  123.6380   59.2446 H   0  0  0  0  0  0  0  0  0  0  0  0
  126.6448  121.6935   57.5343 H   0  0  0  0  0  0  0  0  0  0  0  0
  126.6607  123.3476   56.8342 H   0  0  0  0  0  0  0  0  0  0  0  0
  128.1597  122.3578   56.8342 H   0  0  0  0  0  0  0  0  0  0  0  0
  128.9887  124.6267   59.6446 H   0  0  0  0  0  0  0  0  0  0  0  0
  129.5553  123.9184   58.0942 H   0  0  0  0  0  0  0  0  0  0  0  0
  128.2477  125.1500   58.0942 H   0  0  0  0  0  0  0  0  0  0  0  0
  130.6553  121.4866   60.4419 H   0  0  0  0  0  0  0  0  0  0  0  0
  131.4698  121.9490   62.7475 H   0  0  0  0  0  0  0  0  0  0  0  0
  131.7471  124.3082   63.9097 H   0  0  0  0  0  0  0  0  0  0  0  0
  131.4110  126.9290   64.4250 H   0  0  0  0  0  0  0  0  0  0  0  0
  133.7460  126.2615   62.6801 H   0  0  0  0  0  0  0  0  0  0  0  0
  134.0640  124.9480   64.7580 H   0  0  0  0  0  0  0  0  0  0  0  0
  133.2922  123.3577   61.8595 H   0  0  0  0  0  0  0  0  0  0  0  0
  135.0390  125.4200   61.0510 H   0  0  0  0  0  0  0  0  0  0  0  0
  1  2  1  0
  2  3  1  0
  3  4  1  0
  4  5  2  0
  4  6  1  0
  6  7  1  0
  7  8  1  0
  8  9  1  0
  9 10  1  0
 10 11  1  0
 11 12  1  0
 12 13  2  0
 13 14  1  0
 14 15  1  0
 15 16  1  0
 15 17  1  0
 14 18  1  0
 18 19  1  0
 18 20  2  0
 20 21  1  0
 21 22  1  0
 22 23  2  0
 23 24  1  0
 24 25  2  0
 25 26  1  0
 26 27  1  0
 27 28  1  0
 27 29  1  0
 25 30  1  0
 30 31  2  0
 10 32  1  0
 32 33  1  0
 32 34  1  0
 34 35  1  0
 34 36  1  0
 36 37  1  0
 36  8  1  0
 20 12  1  0
 31 22  1  0
  1 38  1  0
  1 39  1  0
  1 40  1  0
  2 41  1  0
  2 42  1  0
  7 43  1  0
  7 44  1  0
  8 45  1  6
 10 46  1  6
 15 47  1  0
 16 48  1  0
 16 49  1  0
 16 50  1  0
 17 51  1  0
 17 52  1  0
 17 53  1  0
 19 54  1  0
 19 55  1  0
 19 56  1  0
 21 57  1  0
 21 58  1  0
 23 59  1  0
 24 60  1  0
 27 61  1  0
 28 62  1  0
 28 63  1  0
 28 64  1  0
 29 65  1  0
 29 66  1  0
 29 67  1  0
 30 68  1  0
 31 69  1  0
 32 70  1  1
 33 71  1  0
 34 72  1  6
 35 73  1  0
 36 74  1  1
 37 75  1  0
M  END
>  <Binding energies>  (1) 
[-6.01]

>  <Ligand effiencies>  (1) 
[-0.15025]

>  <Interactions>  (1) 
["V-A:ASP:366:CA:3210, V-B:PRO:540:CA:9855, V-B:GLU:543:C:9874, H-A:GLU:543:OE2:4910, V-B:GLU:543:CB:9878, V-B:ALA:541:CB:9864, H-A:TYR:531:OH:4795, H-A:ARG:545:NH1:4927, V-B:TYR:539:CE2:9848, V-A:TYR:484:CE2:4346, V-B:GLU:543:CG:9879, V-B:TYR:539:C:9839, V-A:ASP:366:CG:3213, V-B:TYR:539:CZ:9849, H-B:TYR:539:OH:9850, V-A:GLU:543:CD:4908, V-A:TYR:484:CZ:4347, V-B:GLU:543:CA:9876, H-A:GLY:454:N:4050, V-B:HIS:456:CE1:9041, V-B:PRO:540:N:9856, V-A:TYR:484:CD2:4344, V-A:HIS:456:CE1:4070, V-B:TYR:539:CD2:9846, V-B:PRO:540:CD:9859, V-A:GLU:543:CG:4907, V-B:GLU:543:CD:9880, V-A:ASP:366:CB:3212, V-A:LEU:475:CD2:4259, H-A:ARG:545:NH2:4928, V-A:ARG:545:CZ:4926, H-A:GLU:543:OE1:4909, V-B:TYR:539:CG:9844, V-A:GLU:543:CB:4906, H-A:ASP:366:OD1:3214, H-A:ARG:545:NE:4924, H-A:ASP:366:OD2:3215, H-A:TYR:484:OH:4348"]

$$$$
ZINC399876763
     RDKit          3D

 38 37  0  0  0  0  0  0  0  0999 V2000
  131.3240  128.0640   69.5310 C   0  0  0  0  0  0  0  0  0  0  0  0
  129.8520  127.7520   69.1770 C   0  0  2  0  0  0  0  0  0  0  0  0
  129.2330  126.6160   70.0240 C   0  0  0  0  0  0  0  0  0  0  0  0
  128.2620  127.3190   71.4440 S   0  0  0  0  0  4  0  0  0  0  0  0
  129.4950  128.6020   71.9670 C   0  0  0  0  0  0  0  0  0  0  0  0
  128.2250  126.2480   72.5350 O   0  0  0  0  0  0  0  0  0  0  0  0
  129.6770  127.4570   67.6590 N   0  0  2  0  0  0  0  0  0  0  0  0
  128.6340  128.3750   66.9760 C   0  0  0  0  0  0  0  0  0  0  0  0
  129.4200  125.9740   67.2510 C   0  0  0  0  0  0  0  0  0  0  0  0
  130.2800  125.4030   66.0670 C   0  0  0  0  0  0  0  0  0  0  0  0
  129.8860  123.9080   65.9140 C   0  0  0  0  0  0  0  0  0  0  0  0
  129.9540  126.1130   64.7230 C   0  0  0  0  0  0  0  0  0  0  0  0
  131.8050  125.4730   66.4110 C   0  0  0  0  0  0  0  0  0  0  0  0
  132.9150  125.0250   65.0370 S   0  0  0  0  0  0  0  0  0  0  0  0
  131.4408  128.0888   70.6245 H   0  0  0  0  0  0  0  0  0  0  0  0
  131.9756  127.2840   69.1102 H   0  0  0  0  0  0  0  0  0  0  0  0
  131.6031  129.0413   69.1102 H   0  0  0  0  0  0  0  0  0  0  0  0
  129.2954  128.6668   69.4286 H   0  0  0  0  0  0  0  0  0  0  0  0
  128.5642  126.0150   69.3903 H   0  0  0  0  0  0  0  0  0  0  0  0
  130.0429  125.9876   70.4230 H   0  0  0  0  0  0  0  0  0  0  0  0
  129.5361  128.6448   73.0654 H   0  0  0  0  0  0  0  0  0  0  0  0
  130.4877  128.3387   71.5729 H   0  0  0  0  0  0  0  0  0  0  0  0
  129.1925  129.5834   71.5729 H   0  0  0  0  0  0  0  0  0  0  0  0
  130.5640  127.6950   67.2380 H   0  0  0  0  0  0  0  0  0  0  0  0
  128.0436  128.8947   67.7450 H   0  0  0  0  0  0  0  0  0  0  0  0
  129.1521  129.1155   66.3489 H   0  0  0  0  0  0  0  0  0  0  0  0
  127.9653  127.7671   66.3489 H   0  0  0  0  0  0  0  0  0  0  0  0
  129.6138  125.3480   68.1345 H   0  0  0  0  0  0  0  0  0  0  0  0
  128.3820  125.9525   66.8876 H   0  0  0  0  0  0  0  0  0  0  0  0
  129.7670  123.4564   66.9099 H   0  0  0  0  0  0  0  0  0  0  0  0
  128.9375  123.8334   65.3619 H   0  0  0  0  0  0  0  0  0  0  0  0
  130.6745  123.3757   65.3619 H   0  0  0  0  0  0  0  0  0  0  0  0
  129.5030  127.0953   64.9272 H   0  0  0  0  0  0  0  0  0  0  0  0
  130.8804  126.2478   64.1454 H   0  0  0  0  0  0  0  0  0  0  0  0
  129.2480  125.4983   64.1454 H   0  0  0  0  0  0  0  0  0  0  0  0
  132.0399  126.5022   66.7200 H   0  0  0  0  0  0  0  0  0  0  0  0
  131.9792  124.7329   67.2059 H   0  0  0  0  0  0  0  0  0  0  0  0
  132.6590  123.7150   65.0670 H   0  0  0  0  0  0  0  0  0  0  0  0
  1  2  1  0
  2  3  1  0
  4  3  1  6
  4  5  1  0
  4  6  2  0
  2  7  1  0
  7  8  1  0
  7  9  1  0
  9 10  1  0
 10 11  1  0
 10 12  1  0
 10 13  1  0
 13 14  1  0
  1 15  1  0
  1 16  1  0
  1 17  1  0
  2 18  1  1
  3 19  1  0
  3 20  1  0
  5 21  1  0
  5 22  1  0
  5 23  1  0
  7 24  1  6
  8 25  1  0
  8 26  1  0
  8 27  1  0
  9 28  1  0
  9 29  1  0
 11 30  1  0
 11 31  1  0
 11 32  1  0
 12 33  1  0
 12 34  1  0
 12 35  1  0
 13 36  1  0
 13 37  1  0
 14 38  1  0
M  CHG  1   7   1
M  END
>  <Binding energies>  (1) 
[-5.49]

>  <Ligand effiencies>  (1) 
[-0.343125]

>  <Interactions>  (1) 
["V-A:ARG:545:CA:4919, V-A:GLU:543:CA:4904, V-B:HIS:456:CD2:9039, H-A:GLU:543:OE2:4910, V-A:GLU:543:C:4902, V-B:GLU:543:CB:9878, H-B:LYS:547:NZ:9923, V-A:TYR:484:CE2:4346, V-A:GLY:544:C:4912, V-B:GLU:543:CG:9879, V-A:GLU:543:CD:4908, V-A:TYR:484:CZ:4347, V-B:HIS:456:CE1:9041, V-A:ARG:545:CG:4922, V-B:GLU:543:CA:9876, V-A:HIS:456:CE1:4070, V-A:GLU:543:CG:4907, V-B:GLU:543:CD:9880, H-A:ARG:545:NH2:4928, H-A:GLU:543:OE1:4909, V-A:GLU:543:CB:4906, H-A:ARG:545:NE:4924, H-A:TYR:484:OH:4348"]

$$$$
ZINC3998835
     RDKit          3D

 33 34  0  0  0  0  0  0  0  0999 V2000
  129.9460  123.8640   64.3040 C   0  0  0  0  0  0  0  0  0  0  0  0
  129.9080  125.3830   64.5500 C   0  0  1  0  0  0  0  0  0  0  0  0
  131.3110  125.8520   64.9710 N   0  0  0  0  0  0  0  0  0  0  0  0
  129.4220  126.1860   63.3200 C   0  0  0  0  0  0  0  0  0  0  0  0
  130.4760  126.9230   62.6240 N   0  0  0  0  0  0  0  0  0  0  0  0
  131.1560  126.4190   61.4930 C   0  0  0  0  0  0  0  0  0  0  0  0
  130.7540  126.7620   60.2010 C   0  0  0  0  0  0  0  0  0  0  0  0
  131.4200  126.2870   59.0820 C   0  0  0  0  0  0  0  0  0  0  0  0
  132.5320  125.4490   59.1840 C   0  0  0  0  0  0  0  0  0  0  0  0
  133.2150  125.0350   57.9320 N   0  0  0  0  0  0  0  0  0  0  0  0
  133.2110  125.7960   56.9700 O   0  0  0  0  0  0  0  0  0  0  0  0
  133.7140  123.9140   57.8900 O   0  0  0  0  0  0  0  0  0  0  0  0
  132.9610  125.0330   60.4920 C   0  0  0  0  0  0  0  0  0  0  0  0
  134.0280  124.1140   60.7260 C   0  0  0  0  0  0  0  0  0  0  0  0
  134.3900  123.7690   62.0230 C   0  0  0  0  0  0  0  0  0  0  0  0
  133.6900  124.3270   63.0810 C   0  0  0  0  0  0  0  0  0  0  0  0
  132.6570  125.1830   62.9160 N   0  0  0  0  0  0  0  0  0  0  0  0
  132.2730  125.5370   61.6500 C   0  0  0  0  0  0  0  0  0  0  0  0
  129.9592  123.3365   65.2692 H   0  0  0  0  0  0  0  0  0  0  0  0
  129.0551  123.5625   63.7335 H   0  0  0  0  0  0  0  0  0  0  0  0
  130.8508  123.6075   63.7335 H   0  0  0  0  0  0  0  0  0  0  0  0
  129.1770  125.5742   65.3494 H   0  0  0  0  0  0  0  0  0  0  0  0
  131.2810  126.2560   65.8960 H   0  0  0  0  0  0  0  0  0  0  0  0
  131.6590  126.5450   64.3240 H   0  0  0  0  0  0  0  0  0  0  0  0
  131.9500  125.0680   64.9810 H   0  0  0  0  0  0  0  0  0  0  0  0
  128.9667  125.4821   62.6078 H   0  0  0  0  0  0  0  0  0  0  0  0
  128.7108  126.9361   63.6962 H   0  0  0  0  0  0  0  0  0  0  0  0
  130.6230  127.8920   62.8680 H   0  0  0  0  0  0  0  0  0  0  0  0
  129.8871  127.4258   60.0676 H   0  0  0  0  0  0  0  0  0  0  0  0
  131.0617  126.5790   58.0838 H   0  0  0  0  0  0  0  0  0  0  0  0
  134.5677  123.6756   59.8736 H   0  0  0  0  0  0  0  0  0  0  0  0
  135.2164  123.0664   62.2061 H   0  0  0  0  0  0  0  0  0  0  0  0
  133.9897  124.0602   64.1052 H   0  0  0  0  0  0  0  0  0  0  0  0
  1  2  1  0
  2  3  1  0
  2  4  1  0
  4  5  1  0
  5  6  1  0
  6  7  2  0
  7  8  1  0
  8  9  2  0
  9 10  1  0
 10 11  2  0
 10 12  1  0
  9 13  1  0
 13 14  2  0
 14 15  1  0
 15 16  2  0
 16 17  1  0
 17 18  2  0
 18  6  1  0
 18 13  1  0
  1 19  1  0
  1 20  1  0
  1 21  1  0
  2 22  1  1
  3 23  1  0
  3 24  1  0
  3 25  1  0
  4 26  1  0
  4 27  1  0
  5 28  1  0
  7 29  1  0
  8 30  1  0
 14 31  1  0
 15 32  1  0
 16 33  1  0
M  CHG  3   3   1  10   1  12  -1
M  END
>  <Binding energies>  (1) 
[-6.47]

>  <Ligand effiencies>  (1) 
[-0.29409090909090907]

>  <Interactions>  (1) 
["V-A:ILE:369:CG2:3237, V-A:ASP:366:CA:3210, V-A:ILE:369:CD1:3239, V-B:TYR:539:CZ:9849, V-A:ASP:366:C:3208, H-A:GLU:543:OE2:4910, H-B:TYR:539:OH:9850, V-B:GLU:543:CD:9880, V-A:ARG:545:CZ:4926, H-A:TYR:531:OH:4795, V-A:GLU:543:CD:4908, V-A:ASP:366:CB:3212, V-B:TYR:539:CE2:9848, H-A:ARG:545:NH2:4928, V-B:GLU:543:CG:9879, H-A:GLU:543:OE1:4909, V-A:ASP:366:CG:3213, H-A:TYR:484:OH:4348"]

$$$$
ZINC39989974
     RDKit          3D

 61 63  0  0  0  0  0  0  0  0999 V2000
  130.7100  119.9070   60.9340 C   0  0  0  0  0  0  0  0  0  0  0  0
  131.2720  121.3160   61.1590 C   0  0  0  0  0  0  0  0  0  0  0  0
  130.1620  122.3600   61.3930 C   0  0  0  0  0  0  0  0  0  0  0  0
  129.8660  123.1980   60.1990 N   0  0  0  0  0  0  0  0  0  0  0  0
  130.5640  124.3570   59.8550 C   0  0  0  0  0  0  0  0  0  0  0  0
  131.6250  124.6320   60.7100 N   0  0  0  0  0  0  0  0  0  0  0  0
  133.0110  124.5320   60.2230 C   0  0  0  0  0  0  0  0  0  0  0  0
  133.9860  124.1420   61.3520 C   0  0  0  0  0  0  0  0  0  0  0  0
  133.8500  125.0440   62.5810 C   0  0  0  0  0  0  0  0  0  0  0  0
  132.3900  125.0920   63.0430 C   0  0  0  0  0  0  0  0  0  0  0  0
  131.4200  125.4680   61.9050 C   0  0  0  0  0  0  0  0  0  0  0  0
  130.2380  125.1640   58.8070 C   0  0  0  0  0  0  0  0  0  0  0  0
  130.9950  126.3800   58.5150 C   0  0  0  0  0  0  0  0  0  0  0  0
  130.7440  127.5920   59.0590 C   0  0  0  0  0  0  0  0  0  0  0  0
  129.5440  128.0160   60.2740 S   0  0  0  0  0  0  0  0  0  0  0  0
  130.0450  129.6820   60.2750 C   0  0  0  0  0  0  0  0  0  0  0  0
  129.2540  130.7520   61.2820 S   0  0  0  0  0  0  0  0  0  0  0  0
  131.0800  129.8520   59.3890 N   0  0  0  0  0  0  0  0  0  0  0  0
  131.7090  131.1960   59.1860 C   0  0  1  0  0  0  0  0  0  0  0  0
  133.2500  131.1230   59.0870 C   0  0  0  0  0  0  0  0  0  0  0  0
  131.0420  132.0190   58.0490 C   0  0  0  0  0  0  0  0  0  0  0  0
  131.7270  131.8870   56.6800 C   0  0  0  0  0  0  0  0  0  0  0  0
  131.5180  128.7590   58.7030 C   0  0  0  0  0  0  0  0  0  0  0  0
  132.4470  128.7650   57.8890 O   0  0  0  0  0  0  0  0  0  0  0  0
  129.1160  124.7350   57.9590 C   0  0  0  0  0  0  0  0  0  0  0  0
  128.8110  125.4820   56.6560 C   0  0  0  0  0  0  0  0  0  0  0  0
  128.4480  123.5930   58.2870 C   0  0  0  0  0  0  0  0  0  0  0  0
  127.3730  123.1410   57.4540 C   0  0  0  0  0  0  0  0  0  0  0  0
  126.5070  122.7580   56.7880 N   0  0  0  0  0  0  0  0  0  0  0  0
  128.7740  122.7860   59.4630 C   0  0  0  0  0  0  0  0  0  0  0  0
  128.0890  121.7960   59.7410 O   0  0  0  0  0  0  0  0  0  0  0  0
  130.5193  119.4288   61.9061 H   0  0  0  0  0  0  0  0  0  0  0  0
  129.7696  119.9735   60.3673 H   0  0  0  0  0  0  0  0  0  0  0  0
  131.4380  119.3080   60.3673 H   0  0  0  0  0  0  0  0  0  0  0  0
  131.9309  121.2972   62.0396 H   0  0  0  0  0  0  0  0  0  0  0  0
  131.8211  121.6074   60.2515 H   0  0  0  0  0  0  0  0  0  0  0  0
  129.2423  121.8300   61.6817 H   0  0  0  0  0  0  0  0  0  0  0  0
  130.5207  123.0389   62.1807 H   0  0  0  0  0  0  0  0  0  0  0  0
  133.0569  123.7681   59.4328 H   0  0  0  0  0  0  0  0  0  0  0  0
  133.3105  125.5175   59.8368 H   0  0  0  0  0  0  0  0  0  0  0  0
  133.7813  123.1037   61.6520 H   0  0  0  0  0  0  0  0  0  0  0  0
  135.0092  124.2566   60.9647 H   0  0  0  0  0  0  0  0  0  0  0  0
  134.4756  124.6470   63.3941 H   0  0  0  0  0  0  0  0  0  0  0  0
  134.1769  126.0608   62.3179 H   0  0  0  0  0  0  0  0  0  0  0  0
  132.1106  124.1014   63.4312 H   0  0  0  0  0  0  0  0  0  0  0  0
  132.3112  125.8685   63.8181 H   0  0  0  0  0  0  0  0  0  0  0  0
  130.3872  125.3346   62.2594 H   0  0  0  0  0  0  0  0  0  0  0  0
  131.6114  126.5146   61.6258 H   0  0  0  0  0  0  0  0  0  0  0  0
  131.8287  126.3034   57.8015 H   0  0  0  0  0  0  0  0  0  0  0  0
  131.5043  131.7712   60.1010 H   0  0  0  0  0  0  0  0  0  0  0  0
  133.6818  131.1025   60.0985 H   0  0  0  0  0  0  0  0  0  0  0  0
  133.5398  130.2101   58.5460 H   0  0  0  0  0  0  0  0  0  0  0  0
  133.6248  132.0044   58.5460 H   0  0  0  0  0  0  0  0  0  0  0  0
  130.0003  131.6809   57.9459 H   0  0  0  0  0  0  0  0  0  0  0  0
  131.1244  133.0769   58.3391 H   0  0  0  0  0  0  0  0  0  0  0  0
  132.7978  131.6807   56.8242 H   0  0  0  0  0  0  0  0  0  0  0  0
  131.2668  131.0610   56.1179 H   0  0  0  0  0  0  0  0  0  0  0  0
  131.6067  132.8248   56.1179 H   0  0  0  0  0  0  0  0  0  0  0  0
  128.4047  126.4770   56.8903 H   0  0  0  0  0  0  0  0  0  0  0  0
  129.7362  125.5921   56.0713 H   0  0  0  0  0  0  0  0  0  0  0  0
  128.0732  124.9131   56.0713 H   0  0  0  0  0  0  0  0  0  0  0  0
  1  2  1  0
  2  3  1  0
  3  4  1  0
  4  5  1  0
  5  6  1  0
  6  7  1  0
  7  8  1  0
  8  9  1  0
  9 10  1  0
 10 11  1  0
  5 12  2  0
 12 13  1  0
 13 14  2  0
 14 15  1  0
 15 16  1  0
 16 17  2  0
 16 18  1  0
 18 19  1  0
 19 20  1  0
 19 21  1  0
 21 22  1  0
 18 23  1  0
 23 24  2  0
 12 25  1  0
 25 26  1  0
 25 27  2  0
 27 28  1  0
 28 29  3  0
 27 30  1  0
 30 31  2  0
 30  4  1  0
 11  6  1  0
 23 14  1  0
  1 32  1  0
  1 33  1  0
  1 34  1  0
  2 35  1  0
  2 36  1  0
  3 37  1  0
  3 38  1  0
  7 39  1  0
  7 40  1  0
  8 41  1  0
  8 42  1  0
  9 43  1  0
  9 44  1  0
 10 45  1  0
 10 46  1  0
 11 47  1  0
 11 48  1  0
 13 49  1  0
 19 50  1  1
 20 51  1  0
 20 52  1  0
 20 53  1  0
 21 54  1  0
 21 55  1  0
 22 56  1  0
 22 57  1  0
 22 58  1  0
 26 59  1  0
 26 60  1  0
 26 61  1  0
M  END
>  <Binding energies>  (1) 
[-7.03]

>  <Ligand effiencies>  (1) 
[-0.2267741935483871]

>  <Interactions>  (1) 
["V-A:LEU:363:CD1:3189, V-B:PRO:540:CA:9855, V-A:ILE:369:CD1:3239, V-B:TYR:539:CZ:9849, V-A:PRO:540:CB:4885, V-A:LEU:363:CA:3185, V-A:PRO:540:CA:4883, V-B:TYR:539:CD2:9846, H-A:TYR:531:OH:4795, V-B:TYR:539:CE2:9848, V-A:ASP:366:CB:3212, V-A:LEU:475:CD2:4259, V-A:ARG:545:CZ:4926, V-A:ASP:366:CG:3213, V-B:PRO:540:N:9856"]

$$$$
ZINC4004045-again1
     RDKit          3D

 59 64  0  0  0  0  0  0  0  0999 V2000
  132.5110  131.5050   62.1640 C   0  0  0  0  0  0  0  0  0  0  0  0
  131.3510  132.2040   62.6050 O   0  0  0  0  0  0  0  0  0  0  0  0
  130.1330  131.9180   62.0200 C   0  0  0  0  0  0  0  0  0  0  0  0
  128.9150  131.8300   62.7150 C   0  0  0  0  0  0  0  0  0  0  0  0
  127.7340  131.5380   62.0350 C   0  0  0  0  0  0  0  0  0  0  0  0
  127.7510  131.3300   60.6570 C   0  0  0  0  0  0  0  0  0  0  0  0
  128.9540  131.4070   59.9470 C   0  0  0  0  0  0  0  0  0  0  0  0
  128.9850  131.1790   58.4340 C   0  0  2  0  0  0  0  0  0  0  0  0
  128.1250  130.0040   57.9820 C   0  0  0  0  0  0  0  0  0  0  0  0
  128.6250  128.8110   57.5920 C   0  0  0  0  0  0  0  0  0  0  0  0
  127.7450  127.8590   57.1390 N   0  0  0  0  0  0  0  0  0  0  0  0
  127.6790  126.4960   57.4600 C   0  0  0  0  0  0  0  0  0  0  0  0
  126.4810  125.9500   57.9370 C   0  0  0  0  0  0  0  0  0  0  0  0
  126.3410  124.5860   58.1710 C   0  0  0  0  0  0  0  0  0  0  0  0
  127.4080  123.7350   57.9160 C   0  0  0  0  0  0  0  0  0  0  0  0
  128.6100  124.2590   57.4530 C   0  0  0  0  0  0  0  0  0  0  0  0
  128.7850  125.6340   57.2520 C   0  0  0  0  0  0  0  0  0  0  0  0
  130.0340  126.1190   56.8290 N   0  0  0  0  0  0  0  0  0  0  0  0
  130.7040  127.1810   57.5810 C   0  0  2  0  0  0  0  0  0  0  0  0
  131.1420  126.6550   58.9630 C   0  0  0  0  0  0  0  0  0  0  0  0
  130.4430  127.1170   60.0970 C   0  0  0  0  0  0  0  0  0  0  0  0
  130.7900  126.6210   61.3450 C   0  0  0  0  0  0  0  0  0  0  0  0
  131.7680  125.6850   61.4940 C   0  0  0  0  0  0  0  0  0  0  0  0
  132.4720  125.1860   60.4080 C   0  0  0  0  0  0  0  0  0  0  0  0
  132.1740  125.6860   59.1250 C   0  0  0  0  0  0  0  0  0  0  0  0
  132.9550  125.1550   57.9890 N   0  0  0  0  0  0  0  0  0  0  0  0
  133.6140  124.1350   58.1530 O   0  0  0  0  0  0  0  0  0  0  0  0
  132.8550  125.7350   56.9120 O   0  0  0  0  0  0  0  0  0  0  0  0
  131.8700  125.3450   62.8060 O   0  0  0  0  0  0  0  0  0  0  0  0
  131.0740  126.2720   63.4950 C   0  0  0  0  0  0  0  0  0  0  0  0
  130.2430  126.9020   62.5560 O   0  0  0  0  0  0  0  0  0  0  0  0
  130.0780  128.5860   57.6140 C   0  0  0  0  0  0  0  0  0  0  0  0
  130.9030  129.6610   57.7080 C   0  0  0  0  0  0  0  0  0  0  0  0
  132.2630  129.6140   57.7510 O   0  0  0  0  0  0  0  0  0  0  0  0
  130.4260  131.1060   57.8470 C   0  0  0  0  0  0  0  0  0  0  0  0
  130.1340  131.7050   60.6400 C   0  0  0  0  0  0  0  0  0  0  0  0
  133.0847  131.1593   63.0366 H   0  0  0  0  0  0  0  0  0  0  0  0
  132.2086  130.6386   61.5574 H   0  0  0  0  0  0  0  0  0  0  0  0
  133.1357  132.1772   61.5574 H   0  0  0  0  0  0  0  0  0  0  0  0
  128.8935  131.9926   63.8027 H   0  0  0  0  0  0  0  0  0  0  0  0
  126.7853  131.4715   62.5877 H   0  0  0  0  0  0  0  0  0  0  0  0
  126.8147  131.1044   60.1255 H   0  0  0  0  0  0  0  0  0  0  0  0
  128.5245  132.0825   58.0079 H   0  0  0  0  0  0  0  0  0  0  0  0
  127.0329  130.1353   57.9729 H   0  0  0  0  0  0  0  0  0  0  0  0
  126.8190  128.2390   57.0070 H   0  0  0  0  0  0  0  0  0  0  0  0
  125.6284  126.6172   58.1317 H   0  0  0  0  0  0  0  0  0  0  0  0
  125.3918  124.1844   58.5553 H   0  0  0  0  0  0  0  0  0  0  0  0
  127.3031  122.6523   58.0793 H   0  0  0  0  0  0  0  0  0  0  0  0
  129.4451  123.5758   57.2390 H   0  0  0  0  0  0  0  0  0  0  0  0
  130.6570  125.3270   56.7650 H   0  0  0  0  0  0  0  0  0  0  0  0
  131.5866  127.4142   56.9673 H   0  0  0  0  0  0  0  0  0  0  0  0
  129.6365  127.8579   59.9938 H   0  0  0  0  0  0  0  0  0  0  0  0
  133.2461  124.4167   60.5455 H   0  0  0  0  0  0  0  0  0  0  0  0
  130.4625  125.7538   64.2484 H   0  0  0  0  0  0  0  0  0  0  0  0
  131.7034  127.0124   64.0104 H   0  0  0  0  0  0  0  0  0  0  0  0
  132.5770  128.8920   57.2030 H   0  0  0  0  0  0  0  0  0  0  0  0
  131.1121  131.6458   58.5163 H   0  0  0  0  0  0  0  0  0  0  0  0
  130.4139  131.5626   56.8463 H   0  0  0  0  0  0  0  0  0  0  0  0
  131.0816  131.7727   60.0855 H   0  0  0  0  0  0  0  0  0  0  0  0
  1  2  1  0
  2  3  1  0
  3  4  2  0
  4  5  1  0
  5  6  2  0
  6  7  1  0
  7  8  1  0
  8  9  1  0
  9 10  2  0
 10 11  1  0
 11 12  1  0
 12 13  2  0
 13 14  1  0
 14 15  2  0
 15 16  1  0
 16 17  2  0
 17 18  1  0
 18 19  1  0
 19 20  1  0
 20 21  2  0
 21 22  1  0
 22 23  2  0
 23 24  1  0
 24 25  2  0
 25 26  1  0
 26 27  2  0
 26 28  1  0
 23 29  1  0
 29 30  1  0
 30 31  1  0
 19 32  1  0
 32 33  2  0
 33 34  1  0
 33 35  1  0
  7 36  2  0
 36  3  1  0
 35  8  1  0
 32 10  1  0
 17 12  1  0
 25 20  1  0
 31 22  1  0
  1 37  1  0
  1 38  1  0
  1 39  1  0
  4 40  1  0
  5 41  1  0
  6 42  1  0
  8 43  1  6
  9 44  1  0
 11 45  1  0
 13 46  1  0
 14 47  1  0
 15 48  1  0
 16 49  1  0
 18 50  1  0
 19 51  1  6
 21 52  1  0
 24 53  1  0
 30 54  1  0
 30 55  1  0
 34 56  1  0
 35 57  1  0
 35 58  1  0
 36 59  1  0
M  CHG  2  26   1  28  -1
M  END
>  <Binding energies>  (1) 
[-7.28]

>  <Ligand effiencies>  (1) 
[-0.17756097560975612]

>  <Interactions>  (1) 
["V-A:ASP:366:CA:3210, V-B:TYR:539:CZ:9849, V-A:PRO:540:CA:4883, V-A:PRO:540:CB:4885, V-A:ASP:366:C:3208, H-A:ALA:541:N:4891, H-B:TYR:539:OH:9850, V-A:TYR:531:CZ:4794, H-A:TYR:531:OH:4795, H-A:ASP:366:OD2:3215, H-B:TYR:531:OH:9767, V-B:TYR:539:CE2:9848, V-A:GLU:543:CD:4908, H-A:ARG:545:NH2:4928, V-A:ASP:366:CB:3212, V-B:TYR:539:CE1:9847, V-A:ASP:366:CG:3213, V-A:ASN:362:CB:3176"]

$$$$
ZINC400422704
     RDKit          3D

 53 55  0  0  0  0  0  0  0  0999 V2000
  130.6560  118.8770   60.9990 C   0  0  0  0  0  0  0  0  0  0  0  0
  130.6280  120.4000   60.9840 C   0  0  0  0  0  0  0  0  0  0  0  0
  129.4110  121.0330   61.2620 C   0  0  0  0  0  0  0  0  0  0  0  0
  129.3160  122.4220   61.3110 C   0  0  0  0  0  0  0  0  0  0  0  0
  127.6200  123.2070   61.7040 Br  0  0  0  0  0  0  0  0  0  0  0  0
  130.4510  123.2070   61.0810 C   0  0  0  0  0  0  0  0  0  0  0  0
  130.3590  124.6070   61.1380 N   0  0  0  0  0  0  0  0  0  0  0  0
  131.2950  125.3330   61.9950 C   0  0  1  0  0  0  0  0  0  0  0  0
  131.3570  126.8170   61.5930 C   0  0  0  0  0  0  0  0  0  0  0  0
  130.8710  125.1940   63.4850 C   0  0  1  0  0  0  0  0  0  0  0  0
  130.6490  123.7740   64.0620 C   0  0  1  0  0  0  0  0  0  0  0  0
  132.1740  123.6540   64.2330 C   0  0  0  0  0  0  0  0  0  0  0  0
  131.9690  125.1440   64.5630 C   0  0  2  0  0  0  0  0  0  0  0  0
  131.1600  125.0320   65.7840 N   0  0  0  0  0  0  0  0  0  0  0  0
  131.2970  125.7450   66.9750 C   0  0  0  0  0  0  0  0  0  0  0  0
  132.3590  126.2160   67.3860 O   0  0  0  0  0  0  0  0  0  0  0  0
  130.0990  125.8520   67.6260 O   0  0  0  0  0  0  0  0  0  0  0  0
  129.5240  127.0730   68.1300 C   0  0  0  0  0  0  0  0  0  0  0  0
  130.5180  127.8250   69.0510 C   0  0  0  0  0  0  0  0  0  0  0  0
  129.0360  127.9870   66.9780 C   0  0  0  0  0  0  0  0  0  0  0  0
  128.3110  126.6100   68.9610 C   0  0  0  0  0  0  0  0  0  0  0  0
  130.1510  124.0200   65.4900 C   0  0  0  0  0  0  0  0  0  0  0  0
  131.6690  122.5770   60.8050 C   0  0  0  0  0  0  0  0  0  0  0  0
  131.7800  121.1790   60.7440 C   0  0  0  0  0  0  0  0  0  0  0  0
  133.1030  120.5850   60.4300 N   0  0  0  0  0  0  0  0  0  0  0  0
  134.0340  120.7510   61.2120 O   0  0  0  0  0  0  0  0  0  0  0  0
  133.2060  119.9180   59.4040 O   0  0  0  0  0  0  0  0  0  0  0  0
  130.6626  118.5206   62.0397 H   0  0  0  0  0  0  0  0  0  0  0  0
  129.7648  118.4888   60.4841 H   0  0  0  0  0  0  0  0  0  0  0  0
  131.5608  118.5218   60.4841 H   0  0  0  0  0  0  0  0  0  0  0  0
  128.5140  120.4231   61.4450 H   0  0  0  0  0  0  0  0  0  0  0  0
  129.4140  124.9620   61.1710 H   0  0  0  0  0  0  0  0  0  0  0  0
  132.2974  124.8982   61.8680 H   0  0  0  0  0  0  0  0  0  0  0  0
  131.3831  127.4413   62.4983 H   0  0  0  0  0  0  0  0  0  0  0  0
  132.2635  126.9978   60.9967 H   0  0  0  0  0  0  0  0  0  0  0  0
  130.4688  127.0728   60.9967 H   0  0  0  0  0  0  0  0  0  0  0  0
  130.1047  125.9762   63.3806 H   0  0  0  0  0  0  0  0  0  0  0  0
  130.0353  123.0159   63.5534 H   0  0  0  0  0  0  0  0  0  0  0  0
  132.5244  123.0149   65.0568 H   0  0  0  0  0  0  0  0  0  0  0  0
  132.8764  123.2488   63.4897 H   0  0  0  0  0  0  0  0  0  0  0  0
  132.7877  125.8762   64.6233 H   0  0  0  0  0  0  0  0  0  0  0  0
  130.2617  127.6311   70.1030 H   0  0  0  0  0  0  0  0  0  0  0  0
  131.5408  127.4726   68.8519 H   0  0  0  0  0  0  0  0  0  0  0  0
  130.4571  128.9051   68.8519 H   0  0  0  0  0  0  0  0  0  0  0  0
  128.5573  128.8835   67.3989 H   0  0  0  0  0  0  0  0  0  0  0  0
  129.8944  128.2862   66.3586 H   0  0  0  0  0  0  0  0  0  0  0  0
  128.3098  127.4402   66.3586 H   0  0  0  0  0  0  0  0  0  0  0  0
  128.5448  126.6992   70.0322 H   0  0  0  0  0  0  0  0  0  0  0  0
  127.4410  127.2393   68.7219 H   0  0  0  0  0  0  0  0  0  0  0  0
  128.0816  125.5611   68.7219 H   0  0  0  0  0  0  0  0  0  0  0  0
  130.2296  123.1317   66.1340 H   0  0  0  0  0  0  0  0  0  0  0  0
  129.0932  124.2868   65.6310 H   0  0  0  0  0  0  0  0  0  0  0  0
  132.5634  123.1933   60.6312 H   0  0  0  0  0  0  0  0  0  0  0  0
  1  2  1  0
  2  3  2  0
  3  4  1  0
  4  5  1  0
  4  6  2  0
  6  7  1  0
  7  8  1  0
  8  9  1  0
  8 10  1  0
 10 11  1  0
 11 12  1  0
 12 13  1  0
 13 14  1  0
 14 15  1  0
 15 16  2  0
 15 17  1  0
 17 18  1  0
 18 19  1  0
 18 20  1  0
 18 21  1  0
 14 22  1  0
  6 23  1  0
 23 24  2  0
 24 25  1  0
 25 26  2  0
 25 27  1  0
 24  2  1  0
 13 10  1  0
 22 11  1  0
  1 28  1  0
  1 29  1  0
  1 30  1  0
  3 31  1  0
  7 32  1  0
  8 33  1  1
  9 34  1  0
  9 35  1  0
  9 36  1  0
 10 37  1  1
 11 38  1  6
 12 39  1  0
 12 40  1  0
 13 41  1  1
 19 42  1  0
 19 43  1  0
 19 44  1  0
 20 45  1  0
 20 46  1  0
 20 47  1  0
 21 48  1  0
 21 49  1  0
 21 50  1  0
 22 51  1  0
 22 52  1  0
 23 53  1  0
M  CHG  2  25   1  27  -1
M  END
>  <Binding energies>  (1) 
[-7.07]

>  <Ligand effiencies>  (1) 
[-0.2525]

>  <Interactions>  (1) 
["V-A:ILE:369:CG2:3237, V-B:PRO:540:CA:9855, V-B:GLU:543:C:9874, V-A:GLU:543:C:4902, V-B:GLU:543:CB:9878, V-B:ALA:541:CB:9864, V-B:TYR:539:CE2:9848, V-A:TYR:484:CE2:4346, V-B:GLU:543:CG:9879, V-B:TYR:539:C:9839, V-A:ASP:366:CG:3213, V-A:TYR:484:CZ:4347, V-A:GLU:543:CD:4908, V-B:GLU:543:CA:9876, V-B:HIS:456:CE1:9041, V-A:HIS:456:CE1:4070, V-B:TYR:539:CD2:9846, V-A:GLU:543:CG:4907, V-A:SER:385:CB:3409, H-A:SER:385:OG:3410, V-A:LEU:475:CD2:4259, V-A:ARG:545:CZ:4926, V-A:GLU:543:CB:4906, H-A:ARG:545:NE:4924, V-A:SER:385:CA:3407, V-B:PRO:540:C:9853, H-A:HIS:456:ND1:4067, H-A:TYR:484:OH:4348"]

$$$$
ZINC4013454-again1
     RDKit          3D

 85 88  0  0  0  0  0  0  0  0999 V2000
  127.2370  127.6470   72.8320 C   0  0  0  0  0  0  0  0  0  0  0  0
  127.7560  126.6100   71.8240 C   0  0  0  0  0  0  0  0  0  0  0  0
  129.1810  126.5390   71.8210 O   0  0  0  0  0  0  0  0  0  0  0  0
  129.9480  127.4700   71.1890 C   0  0  0  0  0  0  0  0  0  0  0  0
  130.8270  128.1250   71.7590 O   0  0  0  0  0  0  0  0  0  0  0  0
  129.6180  127.6250   69.7310 C   0  0  0  0  0  0  0  0  0  0  0  0
  129.0720  128.8390   69.2890 C   0  0  0  0  0  0  0  0  0  0  0  0
  128.7350  129.0720   67.9560 C   0  0  0  0  0  0  0  0  0  0  0  0
  128.9670  128.0320   67.0510 C   0  0  0  0  0  0  0  0  0  0  0  0
  129.5260  126.8120   67.4700 C   0  0  0  0  0  0  0  0  0  0  0  0
  129.8520  126.5850   68.8140 C   0  0  0  0  0  0  0  0  0  0  0  0
  129.6570  126.0000   66.3420 N   0  0  0  0  0  0  0  0  0  0  0  0
  130.1310  124.6160   66.3620 C   0  0  0  0  0  0  0  0  0  0  0  0
  130.9430  124.3070   65.0930 C   0  0  0  0  0  0  0  0  0  0  0  0
  132.0000  125.3800   64.7920 C   0  0  0  0  0  0  0  0  0  0  0  0
  133.5370  124.5990   64.0100 S   0  0  0  0  0  0  0  0  0  0  0  0
  133.2910  123.1570   64.1200 O   0  0  0  0  0  0  0  0  0  0  0  0
  133.5320  125.1190   62.6370 O   0  0  0  0  0  0  0  0  0  0  0  0
  134.6340  125.0980   64.8450 O   0  0  0  0  0  0  0  0  0  0  0  0
  129.1640  126.6970   65.2520 C   0  0  0  0  0  0  0  0  0  0  0  0
  129.0990  126.2390   63.8700 C   0  0  0  0  0  0  0  0  0  0  0  0
  128.5690  126.8840   62.8160 C   0  0  0  0  0  0  0  0  0  0  0  0
  128.5070  126.3250   61.4080 C   0  0  0  0  0  0  0  0  0  0  0  0
  129.1600  124.9650   61.2220 C   0  0  0  0  0  0  0  0  0  0  0  0
  128.5300  123.7440   61.3620 N   0  0  0  0  0  0  0  0  0  0  0  0
  127.1360  123.5360   61.7510 C   0  0  0  0  0  0  0  0  0  0  0  0
  126.1890  123.8880   60.5940 C   0  0  0  0  0  0  0  0  0  0  0  0
  129.4610  122.7340   61.1240 C   0  0  0  0  0  0  0  0  0  0  0  0
  129.3460  121.3410   61.1660 C   0  0  0  0  0  0  0  0  0  0  0  0
  130.4890  120.6000   60.8630 C   0  0  0  0  0  0  0  0  0  0  0  0
  131.7140  121.2030   60.5300 C   0  0  0  0  0  0  0  0  0  0  0  0
  132.9300  120.3820   60.2020 C   0  0  0  0  0  0  0  0  0  0  0  0
  134.0430  120.5960   60.6920 O   0  0  0  0  0  0  0  0  0  0  0  0
  132.6850  119.3870   59.3110 O   0  0  0  0  0  0  0  0  0  0  0  0
  133.5990  119.1020   58.2590 C   0  0  0  0  0  0  0  0  0  0  0  0
  132.9070  118.2310   57.2060 C   0  0  0  0  0  0  0  0  0  0  0  0
  131.8210  122.6030   60.4960 C   0  0  0  0  0  0  0  0  0  0  0  0
  130.6780  123.3540   60.7960 C   0  0  0  0  0  0  0  0  0  0  0  0
  130.4670  124.7320   60.8380 N   0  0  0  0  0  0  0  0  0  0  0  0
  131.4800  125.7530   60.5770 C   0  0  0  0  0  0  0  0  0  0  0  0
  131.7400  125.8810   59.0680 C   0  0  0  0  0  0  0  0  0  0  0  0
  128.7270  127.9330   65.6810 N   0  0  0  0  0  0  0  0  0  0  0  0
  128.1690  128.9930   64.8390 C   0  0  0  0  0  0  0  0  0  0  0  0
  126.6940  129.2400   65.1890 C   0  0  0  0  0  0  0  0  0  0  0  0
  127.4177  127.2860   73.8553 H   0  0  0  0  0  0  0  0  0  0  0  0
  127.7641  128.6007   72.6812 H   0  0  0  0  0  0  0  0  0  0  0  0
  126.1577  127.7967   72.6812 H   0  0  0  0  0  0  0  0  0  0  0  0
  127.3511  125.6223   72.0894 H   0  0  0  0  0  0  0  0  0  0  0  0
  127.4274  126.9160   70.8198 H   0  0  0  0  0  0  0  0  0  0  0  0
  128.9027  129.6399   70.0237 H   0  0  0  0  0  0  0  0  0  0  0  0
  128.3058  130.0313   67.6311 H   0  0  0  0  0  0  0  0  0  0  0  0
  130.2771  125.6246   69.1409 H   0  0  0  0  0  0  0  0  0  0  0  0
  130.7684  124.4643   67.2456 H   0  0  0  0  0  0  0  0  0  0  0  0
  129.2621  123.9426   66.4014 H   0  0  0  0  0  0  0  0  0  0  0  0
  131.4505  123.3402   65.2262 H   0  0  0  0  0  0  0  0  0  0  0  0
  130.2414  124.2838   64.2461 H   0  0  0  0  0  0  0  0  0  0  0  0
  131.5766  126.1197   64.0966 H   0  0  0  0  0  0  0  0  0  0  0  0
  132.2899  125.8670   65.7348 H   0  0  0  0  0  0  0  0  0  0  0  0
  129.5345  125.2499   63.6652 H   0  0  0  0  0  0  0  0  0  0  0  0
  128.1513  127.8871   62.9871 H   0  0  0  0  0  0  0  0  0  0  0  0
  127.4481  126.2358   61.1237 H   0  0  0  0  0  0  0  0  0  0  0  0
  129.0742  127.0247   60.7766 H   0  0  0  0  0  0  0  0  0  0  0  0
  126.9920  122.4809   62.0267 H   0  0  0  0  0  0  0  0  0  0  0  0
  126.9070  124.1895   62.6057 H   0  0  0  0  0  0  0  0  0  0  0  0
  125.2307  124.2442   61.0000 H   0  0  0  0  0  0  0  0  0  0  0  0
  126.6420  124.6778   59.9767 H   0  0  0  0  0  0  0  0  0  0  0  0
  126.0161  122.9941   59.9767 H   0  0  0  0  0  0  0  0  0  0  0  0
  128.3963  120.8509   61.4264 H   0  0  0  0  0  0  0  0  0  0  0  0
  130.4289  119.5019   60.8857 H   0  0  0  0  0  0  0  0  0  0  0  0
  133.9310  120.0431   57.7963 H   0  0  0  0  0  0  0  0  0  0  0  0
  134.4702  118.5663   58.6641 H   0  0  0  0  0  0  0  0  0  0  0  0
  132.2979  117.4643   57.7071 H   0  0  0  0  0  0  0  0  0  0  0  0
  132.2599  118.8603   56.5773 H   0  0  0  0  0  0  0  0  0  0  0  0
  133.6663  117.7429   56.5773 H   0  0  0  0  0  0  0  0  0  0  0  0
  132.7721  123.0937   60.2419 H   0  0  0  0  0  0  0  0  0  0  0  0
  131.1283  126.7196   60.9668 H   0  0  0  0  0  0  0  0  0  0  0  0
  132.4160  125.4605   61.0753 H   0  0  0  0  0  0  0  0  0  0  0  0
  132.7158  126.3614   58.9035 H   0  0  0  0  0  0  0  0  0  0  0  0
  131.7419  124.8808   58.6101 H   0  0  0  0  0  0  0  0  0  0  0  0
  130.9485  126.4924   58.6101 H   0  0  0  0  0  0  0  0  0  0  0  0
  128.7389  129.9201   64.9994 H   0  0  0  0  0  0  0  0  0  0  0  0
  128.2368  128.6826   63.7859 H   0  0  0  0  0  0  0  0  0  0  0  0
  126.5750  129.2599   66.2824 H   0  0  0  0  0  0  0  0  0  0  0  0
  126.3737  130.2043   64.7677 H   0  0  0  0  0  0  0  0  0  0  0  0
  126.0770  128.4327   64.7677 H   0  0  0  0  0  0  0  0  0  0  0  0
  1  2  1  0
  2  3  1  0
  3  4  1  0
  4  5  2  0
  4  6  1  0
  6  7  2  0
  7  8  1  0
  8  9  2  0
  9 10  1  0
 10 11  2  0
 10 12  1  0
 12 13  1  0
 13 14  1  0
 14 15  1  0
 15 16  1  0
 16 17  2  0
 16 18  2  0
 16 19  1  0
 12 20  2  0
 20 21  1  0
 21 22  2  0
 22 23  1  0
 23 24  1  0
 24 25  1  0
 25 26  1  0
 26 27  1  0
 25 28  1  0
 28 29  2  0
 29 30  1  0
 30 31  2  0
 31 32  1  0
 32 33  2  0
 32 34  1  0
 34 35  1  0
 35 36  1  0
 31 37  1  0
 37 38  2  0
 38 39  1  0
 39 40  1  0
 40 41  1  0
 20 42  1  0
 42 43  1  0
 43 44  1  0
 11  6  1  0
 39 24  2  0
 42  9  1  0
 38 28  1  0
  1 45  1  0
  1 46  1  0
  1 47  1  0
  2 48  1  0
  2 49  1  0
  7 50  1  0
  8 51  1  0
 11 52  1  0
 13 53  1  0
 13 54  1  0
 14 55  1  0
 14 56  1  0
 15 57  1  0
 15 58  1  0
 21 59  1  0
 22 60  1  0
 23 61  1  0
 23 62  1  0
 26 63  1  0
 26 64  1  0
 27 65  1  0
 27 66  1  0
 27 67  1  0
 29 68  1  0
 30 69  1  0
 35 70  1  0
 35 71  1  0
 36 72  1  0
 36 73  1  0
 36 74  1  0
 37 75  1  0
 40 76  1  0
 40 77  1  0
 41 78  1  0
 41 79  1  0
 41 80  1  0
 43 81  1  0
 43 82  1  0
 44 83  1  0
 44 84  1  0
 44 85  1  0
M  CHG  3  12   1  19  -1  39   1
M  END
>  <Binding energies>  (1) 
[-9.07]

>  <Ligand effiencies>  (1) 
[-0.20613636363636365]

>  <Interactions>  (1) 
["V-A:ILE:369:CG2:3237, V-B:PRO:540:CA:9855, V-A:GLU:543:CA:4904, V-A:GLY:454:CA:4049, V-B:GLU:543:C:9874, V-B:HIS:456:CD2:9039, V-A:GLU:543:C:4902, V-B:GLU:543:CB:9878, V-B:ALA:541:CB:9864, H-A:ARG:545:NH1:4927, V-B:TYR:539:CE2:9848, V-A:TYR:484:CE2:4346, V-B:GLU:543:CG:9879, V-A:ASP:366:CG:3213, V-A:LEU:373:CG:3279, V-B:LYS:547:CE:9922, V-B:TYR:539:CB:9843, V-A:GLU:543:CD:4908, V-B:PRO:540:CB:9857, V-A:TYR:484:CZ:4347, V-B:HIS:456:CE1:9041, H-A:GLY:454:N:4050, V-A:HIS:383:CG:3390, V-A:HIS:456:CE1:4070, V-B:GLY:544:C:9884, V-B:TYR:539:CD2:9846, V-A:GLU:543:CG:4907, V-A:SER:385:CB:3409, H-A:SER:385:OG:3410, V-B:GLU:543:CD:9880, V-B:GLY:544:CA:9886, V-B:HIS:456:CG:9037, V-A:LEU:373:CD2:3281, V-A:ASP:366:CB:3212, V-A:LEU:475:CD2:4259, H-A:ARG:545:NH2:4928, V-A:ARG:545:CZ:4926, V-B:TYR:539:CG:9844, V-A:GLU:543:CB:4906, V-A:HIS:383:CD2:3392, H-A:HIS:383:HE2:3395, V-A:LEU:373:CD1:3280, H-A:ARG:545:NE:4924, V-A:SER:385:CA:3407, V-B:PRO:540:C:9853, V-A:HIS:383:NE2:3394, H-A:TYR:484:OH:4348"]

$$$$
ZINC403341025
     RDKit          3D

 39 39  0  0  0  0  0  0  0  0999 V2000
  128.0100  130.3210   64.5250 C   0  0  0  0  0  0  0  0  0  0  0  0
  127.5420  129.2350   65.5030 C   0  0  0  0  0  0  0  0  0  0  0  0
  128.3640  129.2030   66.8030 C   0  0  0  0  0  0  0  0  0  0  0  0
  128.1290  127.9120   67.6080 C   0  0  0  0  0  0  0  0  0  0  0  0
  129.4680  127.3250   68.1310 N   0  0  2  0  0  0  0  0  0  0  0  0
  129.8340  126.0370   67.3540 C   0  0  0  0  0  0  0  0  0  0  0  0
  129.4610  127.1970   69.6860 C   0  0  2  0  0  0  0  0  0  0  0  0
  128.0170  126.8800   70.1470 C   0  0  0  0  0  0  0  0  0  0  0  0
  127.9030  126.7740   71.6760 C   0  0  0  0  0  0  0  0  0  0  0  0
  128.4310  128.0360   72.3860 C   0  0  0  0  0  0  0  0  0  0  0  0
  129.8610  128.4490   71.9480 C   0  0  1  0  0  0  0  0  0  0  0  0
  130.2210  129.7330   72.5220 N   0  0  0  0  0  0  0  0  0  0  0  0
  130.8080  127.4450   72.4710 C   0  0  0  0  0  0  0  0  0  0  0  0
  131.5520  126.6550   72.8780 N   0  0  0  0  0  0  0  0  0  0  0  0
  129.9960  128.4720   70.4010 C   0  0  0  0  0  0  0  0  0  0  0  0
  128.3834  131.1875   65.0905 H   0  0  0  0  0  0  0  0  0  0  0  0
  128.8159  129.9215   63.8917 H   0  0  0  0  0  0  0  0  0  0  0  0
  127.1662  130.6324   63.8917 H   0  0  0  0  0  0  0  0  0  0  0  0
  126.4889  129.4235   65.7586 H   0  0  0  0  0  0  0  0  0  0  0  0
  127.6757  128.2634   65.0048 H   0  0  0  0  0  0  0  0  0  0  0  0
  129.4319  129.2724   66.5487 H   0  0  0  0  0  0  0  0  0  0  0  0
  128.0447  130.0519   67.4254 H   0  0  0  0  0  0  0  0  0  0  0  0
  127.4769  128.1371   68.4648 H   0  0  0  0  0  0  0  0  0  0  0  0
  127.6580  127.1699   66.9466 H   0  0  0  0  0  0  0  0  0  0  0  0
  130.1800  128.0090   67.9170 H   0  0  0  0  0  0  0  0  0  0  0  0
  130.0630  125.2312   68.0670 H   0  0  0  0  0  0  0  0  0  0  0  0
  128.9856  125.7368   66.7215 H   0  0  0  0  0  0  0  0  0  0  0  0
  130.7135  126.2278   66.7215 H   0  0  0  0  0  0  0  0  0  0  0  0
  130.1447  126.3821   69.9664 H   0  0  0  0  0  0  0  0  0  0  0  0
  127.3500  127.6817   69.7973 H   0  0  0  0  0  0  0  0  0  0  0  0
  127.7334  125.9067   69.7201 H   0  0  0  0  0  0  0  0  0  0  0  0
  126.8455  126.6327   71.9438 H   0  0  0  0  0  0  0  0  0  0  0  0
  128.5152  125.9205   72.0028 H   0  0  0  0  0  0  0  0  0  0  0  0
  127.7470  128.8691   72.1667 H   0  0  0  0  0  0  0  0  0  0  0  0
  128.4797  127.8027   73.4599 H   0  0  0  0  0  0  0  0  0  0  0  0
  131.1450  129.9990   72.2140 H   0  0  0  0  0  0  0  0  0  0  0  0
  129.5920  130.4480   72.1860 H   0  0  0  0  0  0  0  0  0  0  0  0
  129.4366  129.3393   70.0204 H   0  0  0  0  0  0  0  0  0  0  0  0
  131.0728  128.5241   70.1823 H   0  0  0  0  0  0  0  0  0  0  0  0
  1  2  1  0
  2  3  1  0
  3  4  1  0
  4  5  1  0
  5  6  1  0
  5  7  1  0
  7  8  1  0
  8  9  1  0
  9 10  1  0
 10 11  1  0
 11 12  1  0
 11 13  1  1
 13 14  3  0
 11 15  1  0
 15  7  1  0
  1 16  1  0
  1 17  1  0
  1 18  1  0
  2 19  1  0
  2 20  1  0
  3 21  1  0
  3 22  1  0
  4 23  1  0
  4 24  1  0
  5 25  1  1
  6 26  1  0
  6 27  1  0
  6 28  1  0
  7 29  1  6
  8 30  1  0
  8 31  1  0
  9 32  1  0
  9 33  1  0
 10 34  1  0
 10 35  1  0
 12 36  1  0
 12 37  1  0
 15 38  1  0
 15 39  1  0
M  CHG  1   5   1
M  END
>  <Binding energies>  (1) 
[-5.94]

>  <Ligand effiencies>  (1) 
[-0.33]

>  <Interactions>  (1) 
["V-B:GLU:543:C:9874, H-A:GLU:543:OE2:4910, V-A:GLU:543:C:4902, V-B:HIS:456:CD2:9039, V-B:GLU:543:CB:9878, V-B:GLU:543:CG:9879, V-A:GLY:544:C:4912, V-A:HIS:456:CD2:4068, V-A:GLU:543:CD:4908, V-B:HIS:456:CE1:9041, V-A:HIS:456:CE1:4070, V-B:GLY:544:C:9884, H-B:HIS:456:NE2:9042, V-A:GLU:543:CG:4907, H-A:LYS:547:NZ:4951, V-A:GLU:543:CB:4906, H-A:GLY:544:O:4913, H-A:HIS:456:ND1:4067, H-A:GLU:543:O:4903"]

$$$$
ZINC403426569
     RDKit          3D

 30 31  0  0  0  0  0  0  0  0999 V2000
  133.6870  124.7150   64.3100 N   0  0  0  0  0  0  0  0  0  0  0  0
  133.2500  123.9860   63.5250 C   0  0  0  0  0  0  0  0  0  0  0  0
  132.7000  123.0690   62.5370 C   0  0  0  0  0  0  0  0  0  0  0  0
  133.5150  122.0900   61.9620 C   0  0  0  0  0  0  0  0  0  0  0  0
  132.9890  121.2160   61.0120 C   0  0  0  0  0  0  0  0  0  0  0  0
  131.6500  121.3180   60.6370 C   0  0  0  0  0  0  0  0  0  0  0  0
  130.8190  122.2870   61.2020 C   0  0  0  0  0  0  0  0  0  0  0  0
  129.5080  122.3080   60.7640 O   0  0  0  0  0  0  0  0  0  0  0  0
  129.0770  123.2900   59.8180 C   0  0  1  0  0  0  0  0  0  0  0  0
  127.8770  122.7550   58.9970 C   0  0  0  0  0  0  0  0  0  0  0  0
  126.6570  123.6090   59.3710 C   0  0  0  0  0  0  0  0  0  0  0  0
  127.0130  124.2210   60.7250 C   0  0  2  0  0  0  0  0  0  0  0  0
  126.1240  125.3460   61.2640 N   0  0  0  0  0  0  0  0  0  0  0  0
  128.5210  124.4720   60.6340 C   0  0  0  0  0  0  0  0  0  0  0  0
  131.3570  123.1660   62.1590 C   0  0  0  0  0  0  0  0  0  0  0  0
  134.5711  122.0092   62.2590 H   0  0  0  0  0  0  0  0  0  0  0  0
  133.6302  120.4460   60.5583 H   0  0  0  0  0  0  0  0  0  0  0  0
  131.2428  120.6254   59.8856 H   0  0  0  0  0  0  0  0  0  0  0  0
  129.9135  123.5553   59.1547 H   0  0  0  0  0  0  0  0  0  0  0  0
  128.0856  122.8461   57.9208 H   0  0  0  0  0  0  0  0  0  0  0  0
  127.6940  121.6931   59.2180 H   0  0  0  0  0  0  0  0  0  0  0  0
  126.4900  124.3963   58.6212 H   0  0  0  0  0  0  0  0  0  0  0  0
  125.7310  123.0167   59.4123 H   0  0  0  0  0  0  0  0  0  0  0  0
  126.7755  123.5309   61.5480 H   0  0  0  0  0  0  0  0  0  0  0  0
  125.4210  124.9670   61.8830 H   0  0  0  0  0  0  0  0  0  0  0  0
  125.6660  125.8220   60.5010 H   0  0  0  0  0  0  0  0  0  0  0  0
  126.6820  126.0140   61.7770 H   0  0  0  0  0  0  0  0  0  0  0  0
  128.7236  125.4240   60.1216 H   0  0  0  0  0  0  0  0  0  0  0  0
  128.9875  124.5419   61.6277 H   0  0  0  0  0  0  0  0  0  0  0  0
  130.7164  123.9359   62.6138 H   0  0  0  0  0  0  0  0  0  0  0  0
  1  2  3  0
  2  3  1  0
  3  4  2  0
  4  5  1  0
  5  6  2  0
  6  7  1  0
  7  8  1  0
  8  9  1  0
  9 10  1  0
 10 11  1  0
 11 12  1  0
 12 13  1  0
 12 14  1  0
  7 15  2  0
 15  3  1  0
 14  9  1  0
  4 16  1  0
  5 17  1  0
  6 18  1  0
  9 19  1  6
 10 20  1  0
 10 21  1  0
 11 22  1  0
 11 23  1  0
 12 24  1  1
 13 25  1  0
 13 26  1  0
 13 27  1  0
 14 28  1  0
 14 29  1  0
 15 30  1  0
M  CHG  1  13   1
M  END
>  <Binding energies>  (1) 
[-6.23]

>  <Ligand effiencies>  (1) 
[-0.34611111111111115]

>  <Interactions>  (1) 
["V-A:ILE:369:CG2:3237, V-B:PRO:540:CA:9855, V-A:GLY:454:CA:4049, H-B:GLU:543:OE1:9881, V-B:TYR:539:CD2:9846, H-A:ARG:545:NE:4924, V-B:GLU:543:CD:9880, V-B:TYR:539:CE2:9848, V-B:PRO:540:CB:9857, V-A:LEU:475:CD2:4259, H-A:ARG:545:NH2:4928, H-B:ASP:366:OD1:8185, V-B:TYR:539:C:9839, H-A:GLY:454:N:4050, H-A:TYR:484:OH:4348, V-B:PRO:540:N:9856"]

$$$$
ZINC4045964
     RDKit          3D

 49 51  0  0  0  0  0  0  0  0999 V2000
  132.8330  125.2500   64.0110 N   0  0  0  0  0  0  0  0  0  0  0  0
  131.8270  125.3870   63.4530 C   0  0  0  0  0  0  0  0  0  0  0  0
  130.5760  125.5720   62.7830 C   0  0  0  0  0  0  0  0  0  0  0  0
  129.4630  125.9230   63.4600 C   0  0  0  0  0  0  0  0  0  0  0  0
  129.4040  126.1660   64.9110 C   0  0  0  0  0  0  0  0  0  0  0  0
  128.9030  127.3750   65.4040 C   0  0  0  0  0  0  0  0  0  0  0  0
  128.4610  128.3290   64.5490 F   0  0  0  0  0  0  0  0  0  0  0  0
  128.8540  127.6120   66.7790 C   0  0  0  0  0  0  0  0  0  0  0  0
  128.3640  128.7960   67.2210 F   0  0  0  0  0  0  0  0  0  0  0  0
  129.3070  126.6380   67.6860 C   0  0  0  0  0  0  0  0  0  0  0  0
  129.2830  126.8370   69.0590 N   0  0  0  0  0  0  0  0  0  0  0  0
  130.2020  127.8490   69.6090 C   0  0  0  0  0  0  0  0  0  0  0  0
  130.3670  127.7280   71.1380 C   0  0  0  0  0  0  0  0  0  0  0  0
  129.0200  127.8070   71.8660 C   0  0  0  0  0  0  0  0  0  0  0  0
  128.0260  126.8250   71.2310 C   0  0  0  0  0  0  0  0  0  0  0  0
  127.9620  126.9850   69.6970 C   0  0  0  0  0  0  0  0  0  0  0  0
  129.8030  125.4260   67.1850 C   0  0  0  0  0  0  0  0  0  0  0  0
  130.2440  124.4640   68.0320 F   0  0  0  0  0  0  0  0  0  0  0  0
  129.8500  125.1910   65.8100 C   0  0  0  0  0  0  0  0  0  0  0  0
  130.3360  124.0130   65.3520 F   0  0  0  0  0  0  0  0  0  0  0  0
  130.6250  125.3380   61.3380 C   0  0  0  0  0  0  0  0  0  0  0  0
  131.7300  125.5410   60.6490 N   0  0  0  0  0  0  0  0  0  0  0  0
  131.4550  125.2330   59.3770 N   0  0  0  0  0  0  0  0  0  0  0  0
  132.4990  125.4140   58.3650 C   0  0  0  0  0  0  0  0  0  0  0  0
  133.6820  124.4420   58.5530 C   0  0  0  0  0  0  0  0  0  0  0  0
  134.0500  123.8380   57.3280 O   0  0  0  0  0  0  0  0  0  0  0  0
  130.1470  124.8590   59.2040 C   0  0  0  0  0  0  0  0  0  0  0  0
  129.6300  124.5340   57.9770 N   0  0  0  0  0  0  0  0  0  0  0  0
  129.5830  124.9120   60.4740 C   0  0  0  0  0  0  0  0  0  0  0  0
  128.1970  124.6110   60.8140 C   0  0  0  0  0  0  0  0  0  0  0  0
  127.0990  124.3720   61.0860 N   0  0  0  0  0  0  0  0  0  0  0  0
  128.5315  126.0359   62.8859 H   0  0  0  0  0  0  0  0  0  0  0  0
  131.1876  127.7243   69.1368 H   0  0  0  0  0  0  0  0  0  0  0  0
  129.7743  128.8398   69.3963 H   0  0  0  0  0  0  0  0  0  0  0  0
  130.8403  126.7624   71.3694 H   0  0  0  0  0  0  0  0  0  0  0  0
  130.9900  128.5671   71.4813 H   0  0  0  0  0  0  0  0  0  0  0  0
  129.1621  127.5483   72.9257 H   0  0  0  0  0  0  0  0  0  0  0  0
  128.6226  128.8294   71.7835 H   0  0  0  0  0  0  0  0  0  0  0  0
  128.3392  125.7977   71.4690 H   0  0  0  0  0  0  0  0  0  0  0  0
  127.0269  127.0385   71.6388 H   0  0  0  0  0  0  0  0  0  0  0  0
  127.2858  126.2187   69.2902 H   0  0  0  0  0  0  0  0  0  0  0  0
  127.5982  128.0005   69.4814 H   0  0  0  0  0  0  0  0  0  0  0  0
  132.0591  125.2455   57.3710 H   0  0  0  0  0  0  0  0  0  0  0  0
  132.8890  126.4374   58.4678 H   0  0  0  0  0  0  0  0  0  0  0  0
  134.5433  124.9984   58.9512 H   0  0  0  0  0  0  0  0  0  0  0  0
  133.3736  123.6504   59.2518 H   0  0  0  0  0  0  0  0  0  0  0  0
  134.9920  123.9660   57.1940 H   0  0  0  0  0  0  0  0  0  0  0  0
  130.2210  124.4090   57.1690 H   0  0  0  0  0  0  0  0  0  0  0  0
  128.6410  124.3770   57.8440 H   0  0  0  0  0  0  0  0  0  0  0  0
  1  2  3  0
  2  3  1  0
  3  4  2  0
  4  5  1  0
  5  6  2  0
  6  7  1  0
  6  8  1  0
  8  9  1  0
  8 10  2  0
 10 11  1  0
 11 12  1  0
 12 13  1  0
 13 14  1  0
 14 15  1  0
 15 16  1  0
 10 17  1  0
 17 18  1  0
 17 19  2  0
 19 20  1  0
  3 21  1  0
 21 22  2  0
 22 23  1  0
 23 24  1  0
 24 25  1  0
 25 26  1  0
 23 27  1  0
 27 28  1  0
 27 29  2  0
 29 30  1  0
 30 31  3  0
 19  5  1  0
 29 21  1  0
 16 11  1  0
  4 32  1  0
 12 33  1  0
 12 34  1  0
 13 35  1  0
 13 36  1  0
 14 37  1  0
 14 38  1  0
 15 39  1  0
 15 40  1  0
 16 41  1  0
 16 42  1  0
 24 43  1  0
 24 44  1  0
 25 45  1  0
 25 46  1  0
 26 47  1  0
 28 48  1  0
 28 49  1  0
M  END
>  <Binding energies>  (1) 
[-6.86]

>  <Ligand effiencies>  (1) 
[-0.20176470588235296]

>  <Interactions>  (1) 
["V-A:ILE:369:CG2:3237, V-A:ASP:366:CA:3210, V-B:GLU:543:C:9874, V-B:HIS:456:CD2:9039, V-A:GLU:543:C:4902, V-A:ILE:369:CB:3236, V-B:GLU:543:CB:9878, V-B:TYR:539:CE2:9848, V-A:TYR:484:CE2:4346, V-B:GLU:543:CG:9879, V-A:GLY:544:C:4912, V-A:ASP:366:CG:3213, V-B:TYR:539:CZ:9849, H-A:ASN:370:N:3244, H-B:TYR:539:OH:9850, V-A:GLU:543:CD:4908, V-A:TYR:484:CZ:4347, V-B:HIS:456:CE1:9041, V-B:GLU:543:CA:9876, V-A:TYR:484:CD2:4344, V-A:HIS:456:CE1:4070, V-B:GLY:544:C:9884, V-A:ASP:366:C:3208, V-A:GLU:543:CG:4907, V-B:GLU:543:CD:9880, V-A:ASP:366:CB:3212, H-A:ARG:545:NH2:4928, V-A:ARG:545:CZ:4926, H-A:ASP:366:O:3209, V-A:GLU:543:CB:4906, H-A:ARG:545:NE:4924"]

$$$$
ZINC40660534
     RDKit          3D

 44 46  0  0  0  0  0  0  0  0999 V2000
  131.3820  119.4570   60.8700 C   0  0  0  0  0  0  0  0  0  0  0  0
  131.7090  120.7920   60.5010 O   0  0  0  0  0  0  0  0  0  0  0  0
  131.6830  121.7920   61.4570 C   0  0  0  0  0  0  0  0  0  0  0  0
  132.8340  122.3670   62.0220 C   0  0  0  0  0  0  0  0  0  0  0  0
  132.7470  123.3830   62.9910 C   0  0  0  0  0  0  0  0  0  0  0  0
  133.8560  123.9820   63.5680 O   0  0  0  0  0  0  0  0  0  0  0  0
  134.7630  124.7210   62.7570 C   0  0  0  0  0  0  0  0  0  0  0  0
  131.4780  123.8190   63.4050 C   0  0  0  0  0  0  0  0  0  0  0  0
  131.3790  124.8480   64.3610 N   0  0  0  0  0  0  0  0  0  0  0  0
  130.3910  125.8250   64.5830 C   0  0  0  0  0  0  0  0  0  0  0  0
  129.9690  126.5700   63.5240 N   0  0  0  0  0  0  0  0  0  0  0  0
  128.9980  127.4820   63.7640 C   0  0  0  0  0  0  0  0  0  0  0  0
  128.4070  127.7170   64.9580 N   0  0  0  0  0  0  0  0  0  0  0  0
  128.8240  126.9640   66.0140 C   0  0  0  0  0  0  0  0  0  0  0  0
  128.2570  127.2070   67.2790 N   0  0  0  0  0  0  0  0  0  0  0  0
  128.8360  127.3800   68.5490 C   0  0  0  0  0  0  0  0  0  0  0  0
  130.1610  127.8090   68.7080 C   0  0  0  0  0  0  0  0  0  0  0  0
  130.7120  127.9510   69.9820 C   0  0  0  0  0  0  0  0  0  0  0  0
  129.9440  127.6630   71.1090 C   0  0  0  0  0  0  0  0  0  0  0  0
  130.4780  127.8000   72.3440 F   0  0  0  0  0  0  0  0  0  0  0  0
  128.6250  127.2350   70.9620 C   0  0  0  0  0  0  0  0  0  0  0  0
  128.0710  127.0930   69.6890 C   0  0  0  0  0  0  0  0  0  0  0  0
  126.7890  126.6720   69.5730 F   0  0  0  0  0  0  0  0  0  0  0  0
  129.8330  125.9870   65.8680 C   0  0  0  0  0  0  0  0  0  0  0  0
  130.2880  125.1730   67.0140 N   0  0  0  0  0  0  0  0  0  0  0  0
  129.4330  124.6410   67.7150 O   0  0  0  0  0  0  0  0  0  0  0  0
  131.4950  125.0710   67.2030 O   0  0  0  0  0  0  0  0  0  0  0  0
  130.3310  123.2580   62.8330 C   0  0  0  0  0  0  0  0  0  0  0  0
  130.4310  122.2530   61.8740 C   0  0  0  0  0  0  0  0  0  0  0  0
  128.9790  121.5930   61.2040 Cl  0  0  0  0  0  0  0  0  0  0  0  0
  131.3617  119.3742   61.9667 H   0  0  0  0  0  0  0  0  0  0  0  0
  130.3934  119.1961   60.4643 H   0  0  0  0  0  0  0  0  0  0  0  0
  132.1381  118.7688   60.4643 H   0  0  0  0  0  0  0  0  0  0  0  0
  133.8249  122.0148   61.6994 H   0  0  0  0  0  0  0  0  0  0  0  0
  135.4547  125.2845   63.4004 H   0  0  0  0  0  0  0  0  0  0  0  0
  135.3349  124.0285   62.1219 H   0  0  0  0  0  0  0  0  0  0  0  0
  134.2003  125.4210   62.1219 H   0  0  0  0  0  0  0  0  0  0  0  0
  132.2120  124.9690   64.9200 H   0  0  0  0  0  0  0  0  0  0  0  0
  128.6585  128.0872   62.9105 H   0  0  0  0  0  0  0  0  0  0  0  0
  127.2470  127.2350   67.2790 H   0  0  0  0  0  0  0  0  0  0  0  0
  130.7713  128.0355   67.8213 H   0  0  0  0  0  0  0  0  0  0  0  0
  131.7521  128.2901   70.0969 H   0  0  0  0  0  0  0  0  0  0  0  0
  128.0195  127.0087   71.8520 H   0  0  0  0  0  0  0  0  0  0  0  0
  129.3383  123.6150   63.1445 H   0  0  0  0  0  0  0  0  0  0  0  0
  1  2  1  0
  2  3  1  0
  3  4  2  0
  4  5  1  0
  5  6  1  0
  6  7  1  0
  5  8  2  0
  8  9  1  0
  9 10  1  0
 10 11  2  0
 11 12  1  0
 12 13  2  0
 13 14  1  0
 14 15  1  0
 15 16  1  0
 16 17  2  0
 17 18  1  0
 18 19  2  0
 19 20  1  0
 19 21  1  0
 21 22  2  0
 22 23  1  0
 14 24  2  0
 24 25  1  0
 25 26  2  0
 25 27  1  0
  8 28  1  0
 28 29  2  0
 29 30  1  0
 29  3  1  0
 24 10  1  0
 22 16  1  0
  1 31  1  0
  1 32  1  0
  1 33  1  0
  4 34  1  0
  7 35  1  0
  7 36  1  0
  7 37  1  0
  9 38  1  0
 12 39  1  0
 15 40  1  0
 17 41  1  0
 18 42  1  0
 21 43  1  0
 28 44  1  0
M  CHG  2  25   1  27  -1
M  END
>  <Binding energies>  (1) 
[-6.33]

>  <Ligand effiencies>  (1) 
[-0.1978125]

>  <Interactions>  (1) 
["V-B:PRO:540:CA:9855, V-B:GLU:543:C:9874, H-A:GLU:543:OE2:4910, V-A:GLU:543:C:4902, V-B:GLU:543:CB:9878, V-B:ALA:541:CB:9864, V-A:TYR:484:CE2:4346, V-B:GLU:543:CG:9879, V-A:GLY:544:C:4912, V-A:GLU:543:CD:4908, V-A:TYR:484:CZ:4347, V-B:HIS:456:CE1:9041, H-A:GLY:454:N:4050, V-B:GLU:543:CA:9876, V-A:GLY:453:C:4042, V-A:ILE:369:CD1:3239, V-A:HIS:456:CE1:4070, V-B:GLY:544:C:9884, V-B:TYR:539:CD2:9846, V-B:GLY:544:CA:9886, V-B:GLU:543:CD:9880, V-A:LEU:475:CD2:4259, V-A:ARG:545:CZ:4926, V-A:GLU:543:CB:4906, H-B:GLU:543:OE2:9882, V-A:GLY:453:CA:4044, V-B:PRO:540:C:9853, H-A:TYR:484:OH:4348"]

$$$$
ZINC407260495
     RDKit          3D

 39 39  0  0  0  0  0  0  0  0999 V2000
  135.1820  126.9740   74.8320 C   0  0  0  0  0  0  0  0  0  0  0  0
  133.7140  126.6410   74.6690 C   0  0  0  0  0  0  0  0  0  0  0  0
  133.0890  125.6190   75.2780 C   0  0  0  0  0  0  0  0  0  0  0  0
  131.6160  125.2870   75.1140 C   0  0  0  0  0  0  0  0  0  0  0  0
  130.7100  126.5120   74.9090 C   0  0  0  0  0  0  0  0  0  0  0  0
  131.0170  127.2140   73.6470 N   0  0  0  0  0  0  0  0  0  0  0  0
  129.7150  128.1750   72.9560 S   0  0  0  0  0  0  0  0  0  0  0  0
  128.5090  127.9380   73.7580 O   0  0  0  0  0  0  0  0  0  0  0  0
  130.2290  129.5390   72.7900 O   0  0  0  0  0  0  0  0  0  0  0  0
  129.4660  127.4140   71.2350 C   0  0  2  0  0  0  0  0  0  0  0  0
  130.4080  128.1010   70.2180 C   0  0  0  0  0  0  0  0  0  0  0  0
  130.1310  127.6580   68.7640 C   0  0  0  0  0  0  0  0  0  0  0  0
  128.6330  127.7640   68.4100 C   0  0  0  0  0  0  0  0  0  0  0  0
  127.7680  126.9470   69.3950 C   0  0  2  0  0  0  0  0  0  0  0  0
  126.2830  126.9690   68.9950 C   0  0  0  0  0  0  0  0  0  0  0  0
  127.9790  127.5000   70.8210 C   0  0  0  0  0  0  0  0  0  0  0  0
  135.4286  127.0299   75.9025 H   0  0  0  0  0  0  0  0  0  0  0  0
  135.7906  126.1911   74.3559 H   0  0  0  0  0  0  0  0  0  0  0  0
  135.3933  127.9429   74.3559 H   0  0  0  0  0  0  0  0  0  0  0  0
  133.1160  127.2817   74.0042 H   0  0  0  0  0  0  0  0  0  0  0  0
  133.6866  124.9775   75.9423 H   0  0  0  0  0  0  0  0  0  0  0  0
  131.5067  124.6277   74.2403 H   0  0  0  0  0  0  0  0  0  0  0  0
  131.2942  124.8109   76.0520 H   0  0  0  0  0  0  0  0  0  0  0  0
  129.6616  126.1800   74.8861 H   0  0  0  0  0  0  0  0  0  0  0  0
  130.8847  127.2103   75.7408 H   0  0  0  0  0  0  0  0  0  0  0  0
  131.8670  127.7740   73.7650 H   0  0  0  0  0  0  0  0  0  0  0  0
  129.7290  126.3461   71.2569 H   0  0  0  0  0  0  0  0  0  0  0  0
  130.2689  129.1899   70.2878 H   0  0  0  0  0  0  0  0  0  0  0  0
  131.4390  127.8088   70.4663 H   0  0  0  0  0  0  0  0  0  0  0  0
  130.7051  128.3005   68.0802 H   0  0  0  0  0  0  0  0  0  0  0  0
  130.4332  126.6052   68.6631 H   0  0  0  0  0  0  0  0  0  0  0  0
  128.3275  128.8198   68.4545 H   0  0  0  0  0  0  0  0  0  0  0  0
  128.4845  127.3600   67.3977 H   0  0  0  0  0  0  0  0  0  0  0  0
  128.0823  125.8933   69.3648 H   0  0  0  0  0  0  0  0  0  0  0  0
  125.6593  126.9782   69.9011 H   0  0  0  0  0  0  0  0  0  0  0  0
  126.0771  127.8703   68.3989 H   0  0  0  0  0  0  0  0  0  0  0  0
  126.0505  126.0742   68.3989 H   0  0  0  0  0  0  0  0  0  0  0  0
  127.6579  128.5517   70.8500 H   0  0  0  0  0  0  0  0  0  0  0  0
  127.3848  126.8958   71.5223 H   0  0  0  0  0  0  0  0  0  0  0  0
  1  2  1  0
  2  3  2  0
  3  4  1  0
  4  5  1  0
  5  6  1  0
  6  7  1  0
  7  8  2  0
  7  9  2  0
  7 10  1  0
 10 11  1  0
 11 12  1  0
 12 13  1  0
 13 14  1  0
 14 15  1  0
 14 16  1  0
 16 10  1  0
  1 17  1  0
  1 18  1  0
  1 19  1  0
  2 20  1  0
  3 21  1  0
  4 22  1  0
  4 23  1  0
  5 24  1  0
  5 25  1  0
  6 26  1  0
 10 27  1  1
 11 28  1  0
 11 29  1  0
 12 30  1  0
 12 31  1  0
 13 32  1  0
 13 33  1  0
 14 34  1  1
 15 35  1  0
 15 36  1  0
 15 37  1  0
 16 38  1  0
 16 39  1  0
M  END
>  <Binding energies>  (1) 
[-6.16]

>  <Ligand effiencies>  (1) 
[-0.3623529411764706]

>  <Interactions>  (1) 
["V-B:HIS:456:CD2:9039, V-B:GLU:543:C:9874, V-A:GLU:543:C:4902, V-B:GLU:543:CB:9878, H-B:LYS:547:NZ:9923, V-A:VAL:457:CA:4075, V-A:GLY:544:C:4912, V-A:HIS:456:CD2:4068, V-A:VAL:457:C:4073, V-A:LYS:547:CG:4948, V-A:LYS:547:CB:4947, V-A:HIS:456:CB:4065, V-B:ARG:545:CG:9894, V-B:HIS:456:CE1:9041, V-B:GLU:543:CA:9876, V-A:HIS:456:CE1:4070, V-B:GLY:544:C:9884, H-A:LYS:547:NZ:4951, V-A:HIS:456:C:4061, V-A:ARG:545:C:4917, V-A:GLU:543:CB:4906, V-A:HIS:456:CG:4066, V-A:ILE:546:C:4934, V-B:ARG:545:CA:9891, H-A:GLY:544:O:4913"]

$$$$
ZINC4083403
     RDKit          3D

 64 67  0  0  0  0  0  0  0  0999 V2000
  126.3360  124.2950   57.3600 C   0  0  0  0  0  0  0  0  0  0  0  0
  126.8490  122.8640   57.4610 C   0  0  0  0  0  0  0  0  0  0  0  0
  126.8110  122.0990   56.4960 O   0  0  0  0  0  0  0  0  0  0  0  0
  127.3210  122.5770   58.6910 O   0  0  0  0  0  0  0  0  0  0  0  0
  128.3840  123.3420   59.2550 C   0  0  0  0  0  0  0  0  0  0  0  0
  128.0290  123.8280   60.6740 C   0  0  0  0  0  0  0  0  0  0  0  0
  127.6260  123.0310   61.5260 O   0  0  0  0  0  0  0  0  0  0  0  0
  128.1840  125.3480   61.0020 C   0  0  1  0  0  0  0  0  0  0  0  0
  126.8740  125.9000   60.8920 O   0  0  0  0  0  0  0  0  0  0  0  0
  128.7250  125.6040   62.4440 C   0  0  0  0  0  0  0  0  0  0  0  0
  129.5580  126.9020   62.3760 C   0  0  0  0  0  0  0  0  0  0  0  0
  129.4340  127.3690   60.9190 C   0  0  1  0  0  0  0  0  0  0  0  0
  130.4830  128.3450   60.3170 C   0  0  2  0  0  0  0  0  0  0  0  0
  130.7000  129.5730   61.2370 C   0  0  0  0  0  0  0  0  0  0  0  0
  131.6120  130.6630   60.6320 C   0  0  2  0  0  0  0  0  0  0  0  0
  131.7890  131.8480   61.6080 C   0  0  0  0  0  0  0  0  0  0  0  0
  131.0230  131.0370   59.2550 C   0  0  0  0  0  0  0  0  0  0  0  0
  130.4500  132.2400   58.9890 C   0  0  0  0  0  0  0  0  0  0  0  0
  129.7400  132.5710   57.7630 C   0  0  0  0  0  0  0  0  0  0  0  0
  129.3620  133.7160   57.5180 O   0  0  0  0  0  0  0  0  0  0  0  0
  129.3650  131.3800   56.8800 C   0  0  0  0  0  0  0  0  0  0  0  0
  130.5200  130.3670   56.8430 C   0  0  0  0  0  0  0  0  0  0  0  0
  131.0100  129.8530   58.2410 C   0  0  1  0  0  0  0  0  0  0  0  0
  132.4680  129.3400   58.0260 C   0  0  0  0  0  0  0  0  0  0  0  0
  130.0350  128.7760   58.8720 C   0  0  1  0  0  0  0  0  0  0  0  0
  129.6890  127.5370   57.9630 C   0  0  1  0  0  0  0  0  0  0  0  0
  130.8150  126.8760   57.4250 O   0  0  0  0  0  0  0  0  0  0  0  0
  128.7460  126.5290   58.6810 C   0  0  0  0  0  0  0  0  0  0  0  0
  129.2480  126.0740   60.0880 C   0  0  2  0  0  0  0  0  0  0  0  0
  130.5690  125.2350   59.9680 C   0  0  0  0  0  0  0  0  0  0  0  0
  126.1893  124.7041   58.3705 H   0  0  0  0  0  0  0  0  0  0  0  0
  127.0696  124.9101   56.8183 H   0  0  0  0  0  0  0  0  0  0  0  0
  125.3787  124.3040   56.8183 H   0  0  0  0  0  0  0  0  0  0  0  0
  129.2881  122.7174   59.3053 H   0  0  0  0  0  0  0  0  0  0  0  0
  128.5557  124.2223   58.6181 H   0  0  0  0  0  0  0  0  0  0  0  0
  126.3480  125.5830   61.6290 H   0  0  0  0  0  0  0  0  0  0  0  0
  127.8883  125.7259   63.1476 H   0  0  0  0  0  0  0  0  0  0  0  0
  129.3342  124.7585   62.7961 H   0  0  0  0  0  0  0  0  0  0  0  0
  129.1519  127.6599   63.0621 H   0  0  0  0  0  0  0  0  0  0  0  0
  130.6046  126.7408   62.6736 H   0  0  0  0  0  0  0  0  0  0  0  0
  128.5776  128.0584   60.8844 H   0  0  0  0  0  0  0  0  0  0  0  0
  131.4508  127.8274   60.2433 H   0  0  0  0  0  0  0  0  0  0  0  0
  129.7189  130.0227   61.4495 H   0  0  0  0  0  0  0  0  0  0  0  0
  131.2046  129.2049   62.1424 H   0  0  0  0  0  0  0  0  0  0  0  0
  132.6384  130.2998   60.4749 H   0  0  0  0  0  0  0  0  0  0  0  0
  131.7342  131.4814   62.6437 H   0  0  0  0  0  0  0  0  0  0  0  0
  132.7677  132.3204   61.4375 H   0  0  0  0  0  0  0  0  0  0  0  0
  130.9911  132.5858   61.4375 H   0  0  0  0  0  0  0  0  0  0  0  0
  130.5288  133.0223   59.7583 H   0  0  0  0  0  0  0  0  0  0  0  0
  128.4668  130.8932   57.2877 H   0  0  0  0  0  0  0  0  0  0  0  0
  129.1658  131.7370   55.8588 H   0  0  0  0  0  0  0  0  0  0  0  0
  130.1887  129.4961   56.2584 H   0  0  0  0  0  0  0  0  0  0  0  0
  131.3747  130.8986   56.3993 H   0  0  0  0  0  0  0  0  0  0  0  0
  132.9454  129.1720   59.0027 H   0  0  0  0  0  0  0  0  0  0  0  0
  132.4451  128.3959   57.4619 H   0  0  0  0  0  0  0  0  0  0  0  0
  133.0413  130.0904   57.4619 H   0  0  0  0  0  0  0  0  0  0  0  0
  129.0774  129.3114   58.9520 H   0  0  0  0  0  0  0  0  0  0  0  0
  129.1524  127.9670   57.1044 H   0  0  0  0  0  0  0  0  0  0  0  0
  131.4580  127.5380   57.1600 H   0  0  0  0  0  0  0  0  0  0  0  0
  127.7615  127.0043   58.8030 H   0  0  0  0  0  0  0  0  0  0  0  0
  128.7088  125.6275   58.0518 H   0  0  0  0  0  0  0  0  0  0  0  0
  130.9445  124.9965   60.9740 H   0  0  0  0  0  0  0  0  0  0  0  0
  130.3626  124.3021   59.4229 H   0  0  0  0  0  0  0  0  0  0  0  0
  131.3257  125.8184   59.4229 H   0  0  0  0  0  0  0  0  0  0  0  0
  1  2  1  0
  2  3  2  0
  2  4  1  0
  4  5  1  0
  5  6  1  0
  6  7  2  0
  6  8  1  0
  8  9  1  1
  8 10  1  0
 10 11  1  0
 11 12  1  0
 12 13  1  0
 13 14  1  0
 14 15  1  0
 15 16  1  0
 15 17  1  0
 17 18  2  0
 18 19  1  0
 19 20  2  0
 19 21  1  0
 21 22  1  0
 22 23  1  0
 23 24  1  6
 23 25  1  0
 25 26  1  0
 26 27  1  0
 26 28  1  0
 28 29  1  0
 29 30  1  6
 29  8  1  0
 29 12  1  0
 25 13  1  0
 23 17  1  0
  1 31  1  0
  1 32  1  0
  1 33  1  0
  5 34  1  0
  5 35  1  0
  9 36  1  0
 10 37  1  0
 10 38  1  0
 11 39  1  0
 11 40  1  0
 12 41  1  1
 13 42  1  6
 14 43  1  0
 14 44  1  0
 15 45  1  6
 16 46  1  0
 16 47  1  0
 16 48  1  0
 18 49  1  0
 21 50  1  0
 21 51  1  0
 22 52  1  0
 22 53  1  0
 24 54  1  0
 24 55  1  0
 24 56  1  0
 25 57  1  1
 26 58  1  6
 27 59  1  0
 28 60  1  0
 28 61  1  0
 30 62  1  0
 30 63  1  0
 30 64  1  0
M  END
>  <Binding energies>  (1) 
[-8.04]

>  <Ligand effiencies>  (1) 
[-0.25125]

>  <Interactions>  (1) 
["V-B:PRO:540:CA:9855, V-A:PRO:540:C:4881, H-A:TYR:531:OH:4795, V-B:TYR:539:CE2:9848, H-B:TYR:539:N:9842, V-B:TYR:539:C:9839, V-A:ASP:366:CG:3213, H-B:GLU:543:OE1:9881, V-A:TYR:531:CE2:4793, H-B:TYR:539:OH:9850, H-B:ALA:541:N:9863, V-B:PRO:540:CB:9857, H-B:ASP:366:OD1:8185, V-B:PRO:540:N:9856, V-B:TYR:539:CD2:9846, V-B:PRO:540:CD:9859, V-A:TYR:531:CZ:4794, V-B:GLU:543:CD:9880, V-A:MET:535:CE:4835, V-A:ASP:366:CB:3212, V-A:PRO:540:N:4884, H-A:TYR:539:N:4870, V-A:PRO:540:CB:4885, V-A:PRO:540:CA:4883"]

$$$$
ZINC408526549
     RDKit          3D

 53 55  0  0  0  0  0  0  0  0999 V2000
  127.5110  122.8310   56.4870 C   0  0  0  0  0  0  0  0  0  0  0  0
  126.5310  123.4300   57.5230 C   0  0  0  0  0  0  0  0  0  0  0  0
  125.3720  124.1300   56.7800 C   0  0  0  0  0  0  0  0  0  0  0  0
  127.2210  124.3800   58.5520 C   0  0  1  0  0  0  0  0  0  0  0  0
  128.4030  123.3250   59.7670 Br  0  0  0  0  0  0  0  0  0  0  0  0
  128.0220  125.5320   57.9190 C   0  0  0  0  0  0  0  0  0  0  0  0
  128.4880  125.4010   56.7850 O   0  0  0  0  0  0  0  0  0  0  0  0
  128.1960  126.6240   58.6930 N   0  0  0  0  0  0  0  0  0  0  0  0
  128.9010  127.8010   58.3670 C   0  0  0  0  0  0  0  0  0  0  0  0
  128.2260  128.9520   57.9170 C   0  0  0  0  0  0  0  0  0  0  0  0
  128.9630  130.0980   57.6280 C   0  0  0  0  0  0  0  0  0  0  0  0
  130.3160  130.1250   57.7850 C   0  0  0  0  0  0  0  0  0  0  0  0
  131.0130  129.0090   58.2430 C   0  0  0  0  0  0  0  0  0  0  0  0
  130.3070  127.8300   58.5420 C   0  0  0  0  0  0  0  0  0  0  0  0
  130.9920  126.7150   59.0130 N   0  0  0  0  0  0  0  0  0  0  0  0
  131.3330  126.7000   60.4450 C   0  0  0  0  0  0  0  0  0  0  0  0
  131.7470  125.2980   60.9380 C   0  0  0  0  0  0  0  0  0  0  0  0
  132.9130  124.7270   60.1220 C   0  0  0  0  0  0  0  0  0  0  0  0
  132.6060  124.8370   58.6230 C   0  0  0  0  0  0  0  0  0  0  0  0
  132.1570  126.2620   58.2340 C   0  0  0  0  0  0  0  0  0  0  0  0
  130.7280  131.3900   57.4220 N   0  0  0  0  0  0  0  0  0  0  0  0
  132.1030  131.8850   57.4270 C   0  0  0  0  0  0  0  0  0  0  0  0
  129.6740  132.1580   57.0390 C   0  0  0  0  0  0  0  0  0  0  0  0
  129.6940  133.3300   56.6550 O   0  0  0  0  0  0  0  0  0  0  0  0
  128.5930  131.3460   57.1750 N   0  0  0  0  0  0  0  0  0  0  0  0
  127.2340  131.7820   56.8590 C   0  0  0  0  0  0  0  0  0  0  0  0
  128.3360  122.3267   57.0115 H   0  0  0  0  0  0  0  0  0  0  0  0
  126.9786  122.1038   55.8564 H   0  0  0  0  0  0  0  0  0  0  0  0
  127.9154  123.6365   55.8564 H   0  0  0  0  0  0  0  0  0  0  0  0
  126.1318  122.6018   58.1269 H   0  0  0  0  0  0  0  0  0  0  0  0
  124.6698  124.5541   57.5128 H   0  0  0  0  0  0  0  0  0  0  0  0
  125.7747  124.9360   56.1490 H   0  0  0  0  0  0  0  0  0  0  0  0
  124.8460  123.3984   56.1490 H   0  0  0  0  0  0  0  0  0  0  0  0
  126.4034  124.8538   59.1151 H   0  0  0  0  0  0  0  0  0  0  0  0
  127.8850  126.5620   59.6510 H   0  0  0  0  0  0  0  0  0  0  0  0
  127.1327  128.9461   57.7955 H   0  0  0  0  0  0  0  0  0  0  0  0
  132.1049  129.0496   58.3695 H   0  0  0  0  0  0  0  0  0  0  0  0
  132.1681  127.3952   60.6163 H   0  0  0  0  0  0  0  0  0  0  0  0
  130.4357  127.0005   61.0059 H   0  0  0  0  0  0  0  0  0  0  0  0
  132.0512  125.3673   61.9928 H   0  0  0  0  0  0  0  0  0  0  0  0
  130.8848  124.6256   60.8177 H   0  0  0  0  0  0  0  0  0  0  0  0
  133.8285  125.2930   60.3491 H   0  0  0  0  0  0  0  0  0  0  0  0
  133.0546  123.6684   60.3854 H   0  0  0  0  0  0  0  0  0  0  0  0
  133.5120  124.5812   58.0541 H   0  0  0  0  0  0  0  0  0  0  0  0
  131.7845  124.1436   58.3899 H   0  0  0  0  0  0  0  0  0  0  0  0
  132.9918  126.9562   58.4106 H   0  0  0  0  0  0  0  0  0  0  0  0
  131.8655  126.2444   57.1735 H   0  0  0  0  0  0  0  0  0  0  0  0
  132.4446  132.0080   58.4653 H   0  0  0  0  0  0  0  0  0  0  0  0
  132.7539  131.1647   56.9097 H   0  0  0  0  0  0  0  0  0  0  0  0
  132.1454  132.8549   56.9097 H   0  0  0  0  0  0  0  0  0  0  0  0
  126.6796  131.9599   57.7923 H   0  0  0  0  0  0  0  0  0  0  0  0
  127.2742  132.7123   56.2735 H   0  0  0  0  0  0  0  0  0  0  0  0
  126.7255  131.0019   56.2735 H   0  0  0  0  0  0  0  0  0  0  0  0
  1  2  1  0
  2  3  1  0
  2  4  1  0
  4  5  1  0
  4  6  1  0
  6  7  2  0
  6  8  1  0
  8  9  1  0
  9 10  2  0
 10 11  1  0
 11 12  2  0
 12 13  1  0
 13 14  2  0
 14 15  1  0
 15 16  1  0
 16 17  1  0
 17 18  1  0
 18 19  1  0
 19 20  1  0
 12 21  1  0
 21 22  1  0
 21 23  1  0
 23 24  2  0
 23 25  1  0
 25 26  1  0
 14  9  1  0
 20 15  1  0
 25 11  1  0
  1 27  1  0
  1 28  1  0
  1 29  1  0
  2 30  1  0
  3 31  1  0
  3 32  1  0
  3 33  1  0
  4 34  1  1
  8 35  1  0
 10 36  1  0
 13 37  1  0
 16 38  1  0
 16 39  1  0
 17 40  1  0
 17 41  1  0
 18 42  1  0
 18 43  1  0
 19 44  1  0
 19 45  1  0
 20 46  1  0
 20 47  1  0
 22 48  1  0
 22 49  1  0
 22 50  1  0
 26 51  1  0
 26 52  1  0
 26 53  1  0
M  END
>  <Binding energies>  (1) 
[-6.6]

>  <Ligand effiencies>  (1) 
[-0.24444444444444444]

>  <Interactions>  (1) 
["V-B:PRO:540:CA:9855, V-B:TYR:539:CE2:9848, V-A:TYR:539:CE1:4875, V-A:ASP:366:CG:3213, V-A:TYR:539:CD1:4873, V-A:LEU:363:CD1:3189, V-B:TYR:539:CZ:9849, V-A:TYR:539:CZ:4877, V-B:TYR:531:CE2:9765, V-B:TYR:539:CD2:9846, V-A:MET:535:CE:4835, V-A:ASP:366:CB:3212, V-B:TYR:539:CG:9844, V-B:TYR:539:CD1:9845, H-A:TYR:539:N:4870, V-B:LEU:363:CD1:8160, V-A:PRO:540:CB:4885, V-B:MET:535:CE:9807, V-B:TYR:539:CE1:9847"]

$$$$
ZINC408585356
     RDKit          3D

 43 45  0  0  0  0  0  0  0  0999 V2000
  128.8540  125.9740   72.5520 O   0  0  0  0  0  0  0  0  0  0  0  0
  128.9890  126.9450   71.7780 C   0  0  0  0  0  0  0  0  0  0  0  0
  129.2130  127.0770   70.5200 N   0  0  0  0  0  0  0  0  0  0  0  0
  129.3510  125.9400   69.7780 N   0  0  0  0  0  0  0  0  0  0  0  0
  129.3840  125.8730   68.4130 C   0  0  0  0  0  0  0  0  0  0  0  0
  129.3010  127.2070   67.3840 S   0  0  0  0  0  0  0  0  0  0  0  0
  129.4920  124.5760   67.9960 N   0  0  0  0  0  0  0  0  0  0  0  0
  129.5160  124.1210   66.5990 C   0  0  0  0  0  0  0  0  0  0  0  0
  130.2280  125.0900   65.6320 C   0  0  0  0  0  0  0  0  0  0  0  0
  131.7180  124.7680   65.4060 C   0  0  0  0  0  0  0  0  0  0  0  0
  132.1260  124.8770   63.9440 C   0  0  0  0  0  0  0  0  0  0  0  0
  131.3590  125.6490   63.0660 C   0  0  0  0  0  0  0  0  0  0  0  0
  131.7310  125.7540   61.7280 C   0  0  0  0  0  0  0  0  0  0  0  0
  132.8670  125.0870   61.2730 C   0  0  0  0  0  0  0  0  0  0  0  0
  133.6350  124.3170   62.1440 C   0  0  0  0  0  0  0  0  0  0  0  0
  133.2640  124.2130   63.4820 C   0  0  0  0  0  0  0  0  0  0  0  0
  128.8330  128.1960   72.5680 C   0  0  0  0  0  0  0  0  0  0  0  0
  129.5010  129.4370   72.6220 C   0  0  0  0  0  0  0  0  0  0  0  0
  128.8610  130.2320   73.6190 C   0  0  0  0  0  0  0  0  0  0  0  0
  129.0230  131.5210   74.1500 C   0  0  0  0  0  0  0  0  0  0  0  0
  128.1530  131.9470   75.1600 C   0  0  0  0  0  0  0  0  0  0  0  0
  128.3560  133.6920   75.8910 Br  0  0  0  0  0  0  0  0  0  0  0  0
  127.1390  131.1150   75.6410 C   0  0  0  0  0  0  0  0  0  0  0  0
  126.9550  129.8290   75.1320 C   0  0  0  0  0  0  0  0  0  0  0  0
  125.5730  128.6990   75.7900 Br  0  0  0  0  0  0  0  0  0  0  0  0
  127.8300  129.4120   74.1210 C   0  0  0  0  0  0  0  0  0  0  0  0
  127.8190  128.2010   73.4960 O   0  0  0  0  0  0  0  0  0  0  0  0
  129.4130  125.0880   70.3170 H   0  0  0  0  0  0  0  0  0  0  0  0
  129.5200  123.8550   68.7020 H   0  0  0  0  0  0  0  0  0  0  0  0
  130.0346  123.1517   66.5604 H   0  0  0  0  0  0  0  0  0  0  0  0
  128.4687  124.0565   66.2688 H   0  0  0  0  0  0  0  0  0  0  0  0
  129.7140  125.0488   64.6603 H   0  0  0  0  0  0  0  0  0  0  0  0
  130.1844  126.0881   66.0923 H   0  0  0  0  0  0  0  0  0  0  0  0
  132.3238  125.4731   65.9941 H   0  0  0  0  0  0  0  0  0  0  0  0
  131.8852  123.7275   65.7214 H   0  0  0  0  0  0  0  0  0  0  0  0
  130.4633  126.1725   63.4315 H   0  0  0  0  0  0  0  0  0  0  0  0
  131.1310  126.3605   61.0336 H   0  0  0  0  0  0  0  0  0  0  0  0
  133.1601  125.1693   60.2160 H   0  0  0  0  0  0  0  0  0  0  0  0
  134.5301  123.7938   61.7764 H   0  0  0  0  0  0  0  0  0  0  0  0
  133.8673  123.6079   64.1748 H   0  0  0  0  0  0  0  0  0  0  0  0
  130.3612  129.7380   72.0059 H   0  0  0  0  0  0  0  0  0  0  0  0
  129.8187  132.1839   73.7793 H   0  0  0  0  0  0  0  0  0  0  0  0
  126.4729  131.4808   76.4363 H   0  0  0  0  0  0  0  0  0  0  0  0
  1  2  1  0
  2  3  2  0
  3  4  1  0
  4  5  1  0
  5  6  2  0
  5  7  1  0
  7  8  1  0
  8  9  1  0
  9 10  1  0
 10 11  1  0
 11 12  2  0
 12 13  1  0
 13 14  2  0
 14 15  1  0
 15 16  2  0
  2 17  1  0
 17 18  2  0
 18 19  1  0
 19 20  2  0
 20 21  1  0
 21 22  1  0
 21 23  2  0
 23 24  1  0
 24 25  1  0
 24 26  2  0
 26 27  1  0
 16 11  1  0
 27 17  1  0
 26 19  1  0
  4 28  1  0
  7 29  1  0
  8 30  1  0
  8 31  1  0
  9 32  1  0
  9 33  1  0
 10 34  1  0
 10 35  1  0
 12 36  1  0
 13 37  1  0
 14 38  1  0
 15 39  1  0
 16 40  1  0
 18 41  1  0
 20 42  1  0
 23 43  1  0
M  CHG  1   1  -1
M  END
>  <Binding energies>  (1) 
[-7.16]

>  <Ligand effiencies>  (1) 
[-0.24689655172413794]

>  <Interactions>  (1) 
["V-A:GLY:454:CA:4049, V-B:GLU:543:C:9874, V-B:HIS:456:CD2:9039, H-B:GLU:543:O:9875, V-B:GLU:543:CB:9878, H-B:LYS:547:NZ:9923, V-B:HIS:456:CB:9036, V-A:TYR:484:CE2:4346, V-B:GLU:543:CG:9879, V-A:HIS:456:CD2:4068, V-A:ASP:366:CG:3213, V-A:GLU:543:CD:4908, V-A:TYR:484:CZ:4347, V-B:GLU:543:CA:9876, V-A:HIS:456:CE1:4070, V-B:GLU:543:CD:9880, V-B:HIS:456:CG:9037, V-A:GLU:543:CB:4906, V-A:LYS:547:CE:4950, V-B:ASP:473:CG:9211, H-A:HIS:456:NE2:4071"]

$$$$
ZINC408585356-again1
     RDKit          3D

 44 46  0  0  0  0  0  0  0  0999 V2000
  129.4800  123.9910   67.8270 O   0  0  0  0  0  0  0  0  0  0  0  0
  129.9260  124.9600   67.2050 C   0  0  0  0  0  0  0  0  0  0  0  0
  129.8220  126.2470   67.5960 N   0  0  0  0  0  0  0  0  0  0  0  0
  129.3010  126.5100   68.8610 N   0  0  0  0  0  0  0  0  0  0  0  0
  129.9470  127.2780   69.7910 C   0  0  0  0  0  0  0  0  0  0  0  0
  131.4060  128.0830   69.5310 S   0  0  0  0  0  0  0  0  0  0  0  0
  129.2400  127.3120   70.9600 N   0  0  0  0  0  0  0  0  0  0  0  0
  129.6390  128.0220   72.1840 C   0  0  0  0  0  0  0  0  0  0  0  0
  130.9750  127.5460   72.7880 C   0  0  0  0  0  0  0  0  0  0  0  0
  130.8210  126.7300   74.0860 C   0  0  0  0  0  0  0  0  0  0  0  0
  132.1540  126.2340   74.6300 C   0  0  0  0  0  0  0  0  0  0  0  0
  133.3200  126.9670   74.3960 C   0  0  0  0  0  0  0  0  0  0  0  0
  134.5390  126.5110   74.8940 C   0  0  0  0  0  0  0  0  0  0  0  0
  134.5860  125.3240   75.6220 C   0  0  0  0  0  0  0  0  0  0  0  0
  133.4260  124.5900   75.8600 C   0  0  0  0  0  0  0  0  0  0  0  0
  132.2070  125.0450   75.3640 C   0  0  0  0  0  0  0  0  0  0  0  0
  130.5740  124.7780   65.9300 C   0  0  0  0  0  0  0  0  0  0  0  0
  131.8260  125.2090   65.4980 C   0  0  0  0  0  0  0  0  0  0  0  0
  131.9740  124.7550   64.1510 C   0  0  0  0  0  0  0  0  0  0  0  0
  132.9590  124.8390   63.1530 C   0  0  0  0  0  0  0  0  0  0  0  0
  132.7150  124.2380   61.9140 C   0  0  0  0  0  0  0  0  0  0  0  0
  134.0400  124.3400   60.5520 Br  0  0  0  0  0  0  0  0  0  0  0  0
  131.5180  123.5650   61.6560 C   0  0  0  0  0  0  0  0  0  0  0  0
  130.5190  123.4660   62.6270 C   0  0  0  0  0  0  0  0  0  0  0  0
  128.8890  122.5500   62.2720 Br  0  0  0  0  0  0  0  0  0  0  0  0
  130.7720  124.0700   63.8640 C   0  0  0  0  0  0  0  0  0  0  0  0
  129.9300  124.0860   64.9390 O   0  0  0  0  0  0  0  0  0  0  0  0
  130.3890  127.0000   67.2330 H   0  0  0  0  0  0  0  0  0  0  0  0
  128.7270  125.7390   69.1720 H   0  0  0  0  0  0  0  0  0  0  0  0
  128.3820  126.7830   71.0080 H   0  0  0  0  0  0  0  0  0  0  0  0
  129.7303  129.0923   71.9469 H   0  0  0  0  0  0  0  0  0  0  0  0
  128.8626  127.8145   72.9351 H   0  0  0  0  0  0  0  0  0  0  0  0
  131.4869  126.9184   72.0437 H   0  0  0  0  0  0  0  0  0  0  0  0
  131.5472  128.4493   73.0461 H   0  0  0  0  0  0  0  0  0  0  0  0
  130.3450  127.3658   74.8470 H   0  0  0  0  0  0  0  0  0  0  0  0
  130.2081  125.8469   73.8525 H   0  0  0  0  0  0  0  0  0  0  0  0
  133.2759  127.9028   73.8195 H   0  0  0  0  0  0  0  0  0  0  0  0
  135.4596  127.0854   74.7132 H   0  0  0  0  0  0  0  0  0  0  0  0
  135.5487  124.9627   76.0128 H   0  0  0  0  0  0  0  0  0  0  0  0
  133.4729  123.6549   76.4374 H   0  0  0  0  0  0  0  0  0  0  0  0
  131.2876  124.4702   75.5492 H   0  0  0  0  0  0  0  0  0  0  0  0
  132.5587  125.7867   66.0806 H   0  0  0  0  0  0  0  0  0  0  0  0
  133.9048  125.3677   63.3425 H   0  0  0  0  0  0  0  0  0  0  0  0
  131.3595  123.1045   60.6697 H   0  0  0  0  0  0  0  0  0  0  0  0
  1  2  2  0
  2  3  1  0
  3  4  1  0
  4  5  1  0
  5  6  2  0
  5  7  1  0
  7  8  1  0
  8  9  1  0
  9 10  1  0
 10 11  1  0
 11 12  2  0
 12 13  1  0
 13 14  2  0
 14 15  1  0
 15 16  2  0
  2 17  1  0
 17 18  2  0
 18 19  1  0
 19 20  2  0
 20 21  1  0
 21 22  1  0
 21 23  2  0
 23 24  1  0
 24 25  1  0
 24 26  2  0
 26 27  1  0
 16 11  1  0
 27 17  1  0
 26 19  1  0
  3 28  1  0
  4 29  1  0
  7 30  1  0
  8 31  1  0
  8 32  1  0
  9 33  1  0
  9 34  1  0
 10 35  1  0
 10 36  1  0
 12 37  1  0
 13 38  1  0
 14 39  1  0
 15 40  1  0
 16 41  1  0
 18 42  1  0
 20 43  1  0
 23 44  1  0
M  END
>  <Binding energies>  (1) 
[-8.3]

>  <Ligand effiencies>  (1) 
[-0.27666666666666667]

>  <Interactions>  (1) 
["V-A:ILE:369:CG2:3237, V-A:ASP:366:CA:3210, V-A:ARG:545:CA:4919, V-A:GLU:543:CA:4904, H-A:GLU:543:OE2:4910, H-B:GLU:543:O:9875, V-A:GLU:543:C:4902, V-B:GLU:543:CB:9878, V-B:ALA:541:CB:9864, V-A:TYR:484:CE2:4346, V-B:GLU:543:CG:9879, V-A:GLY:544:C:4912, V-A:ASP:366:CG:3213, V-A:HIS:456:CD2:4068, V-A:VAL:457:C:4073, V-A:LYS:547:CG:4948, V-A:HIS:456:CB:4065, V-A:TYR:484:CZ:4347, V-A:ARG:545:CG:4922, V-B:GLU:543:CA:9876, V-A:HIS:456:CE1:4070, V-A:ILE:369:CD1:3239, V-A:HIS:456:CA:4063, V-A:ASP:366:CB:3212, V-A:HIS:456:C:4061, V-A:ARG:545:CZ:4926, V-A:ARG:545:C:4917, V-A:GLU:543:CB:4906, V-A:HIS:456:CG:4066, V-A:VAL:458:CG2:4087, H-A:HIS:456:NE2:4071, H-A:TYR:484:OH:4348"]

$$$$
ZINC408606729
     RDKit          3D

 44 45  0  0  0  0  0  0  0  0999 V2000
  134.3730  126.8390   74.4510 C   0  0  0  0  0  0  0  0  0  0  0  0
  133.5280  126.0250   75.1050 C   0  0  0  0  0  0  0  0  0  0  0  0
  132.0130  126.1100   75.0430 C   0  0  0  0  0  0  0  0  0  0  0  0
  131.5190  126.9660   73.9660 N   0  0  0  0  0  0  0  0  0  0  0  0
  130.4150  126.7310   73.2260 C   0  0  0  0  0  0  0  0  0  0  0  0
  129.6680  125.7630   73.4070 O   0  0  0  0  0  0  0  0  0  0  0  0
  130.1820  127.7550   72.1700 C   0  0  0  0  0  0  0  0  0  0  0  0
  130.6120  128.9130   72.2490 O   0  0  0  0  0  0  0  0  0  0  0  0
  129.4580  127.2810   71.1330 N   0  0  0  0  0  0  0  0  0  0  0  0
  129.1310  128.0390   70.0690 N   0  0  0  0  0  0  0  0  0  0  0  0
  129.1410  127.3880   68.9760 C   0  0  0  0  0  0  0  0  0  0  0  0
  128.8210  127.9790   67.6700 C   0  0  0  0  0  0  0  0  0  0  0  0
  128.3030  129.2770   67.6130 C   0  0  0  0  0  0  0  0  0  0  0  0
  127.9850  129.8720   66.3920 C   0  0  0  0  0  0  0  0  0  0  0  0
  128.1790  129.1780   65.1860 C   0  0  0  0  0  0  0  0  0  0  0  0
  127.8860  129.7030   63.9390 O   0  0  0  0  0  0  0  0  0  0  0  0
  127.6720  131.1060   63.7980 C   0  0  0  0  0  0  0  0  0  0  0  0
  128.1710  131.5740   62.4390 C   0  0  0  0  0  0  0  0  0  0  0  0
  128.5020  130.6350   61.4580 C   0  0  0  0  0  0  0  0  0  0  0  0
  128.9470  131.0580   60.2080 C   0  0  0  0  0  0  0  0  0  0  0  0
  129.0560  132.4220   59.9390 C   0  0  0  0  0  0  0  0  0  0  0  0
  129.6030  132.9480   58.3890 Cl  0  0  0  0  0  0  0  0  0  0  0  0
  128.7250  133.3640   60.9120 C   0  0  0  0  0  0  0  0  0  0  0  0
  128.2800  132.9400   62.1610 C   0  0  0  0  0  0  0  0  0  0  0  0
  128.6980  127.8800   65.2370 C   0  0  0  0  0  0  0  0  0  0  0  0
  128.9580  126.9780   63.7860 Cl  0  0  0  0  0  0  0  0  0  0  0  0
  129.0130  127.2890   66.4630 C   0  0  0  0  0  0  0  0  0  0  0  0
  135.4595  126.7028   74.5556 H   0  0  0  0  0  0  0  0  0  0  0  0
  133.9785  127.6418   73.8108 H   0  0  0  0  0  0  0  0  0  0  0  0
  133.9671  125.2364   75.7337 H   0  0  0  0  0  0  0  0  0  0  0  0
  131.6136  125.0962   74.8925 H   0  0  0  0  0  0  0  0  0  0  0  0
  131.6757  126.5559   75.9903 H   0  0  0  0  0  0  0  0  0  0  0  0
  132.0830  127.7730   73.7390 H   0  0  0  0  0  0  0  0  0  0  0  0
  129.1300  126.3260   71.1090 H   0  0  0  0  0  0  0  0  0  0  0  0
  129.4046  126.3206   69.0111 H   0  0  0  0  0  0  0  0  0  0  0  0
  128.1438  129.8376   68.5459 H   0  0  0  0  0  0  0  0  0  0  0  0
  127.5786  130.8940   66.3733 H   0  0  0  0  0  0  0  0  0  0  0  0
  126.5968  131.3212   63.8852 H   0  0  0  0  0  0  0  0  0  0  0  0
  128.2237  131.6368   64.5879 H   0  0  0  0  0  0  0  0  0  0  0  0
  128.4109  129.5602   61.6736 H   0  0  0  0  0  0  0  0  0  0  0  0
  129.2112  130.3197   59.4365 H   0  0  0  0  0  0  0  0  0  0  0  0
  128.8151  134.4383   60.6936 H   0  0  0  0  0  0  0  0  0  0  0  0
  128.0139  133.6802   62.9299 H   0  0  0  0  0  0  0  0  0  0  0  0
  129.4180  126.2665   66.4827 H   0  0  0  0  0  0  0  0  0  0  0  0
  1  2  2  0
  2  3  1  0
  3  4  1  0
  4  5  1  0
  5  6  2  0
  5  7  1  0
  7  8  2  0
  7  9  1  0
  9 10  1  0
 10 11  2  0
 11 12  1  0
 12 13  2  0
 13 14  1  0
 14 15  2  0
 15 16  1  0
 16 17  1  0
 17 18  1  0
 18 19  2  0
 19 20  1  0
 20 21  2  0
 21 22  1  0
 21 23  1  0
 23 24  2  0
 15 25  1  0
 25 26  1  0
 25 27  2  0
 27 12  1  0
 24 18  1  0
  1 28  1  0
  1 29  1  0
  2 30  1  0
  3 31  1  0
  3 32  1  0
  4 33  1  0
  9 34  1  0
 11 35  1  0
 13 36  1  0
 14 37  1  0
 17 38  1  0
 17 39  1  0
 19 40  1  0
 20 41  1  0
 23 42  1  0
 24 43  1  0
 27 44  1  0
M  END
>  <Binding energies>  (1) 
[-6.77]

>  <Ligand effiencies>  (1) 
[-0.23344827586206895]

>  <Interactions>  (1) 
["V-A:GLU:543:CA:4904, H-B:GLU:543:O:9875, V-B:GLU:543:CB:9878, H-B:LYS:547:NZ:9923, V-A:PRO:540:C:4881, V-B:GLU:543:CG:9879, V-A:HIS:456:CD2:4068, V-B:TYR:484:CE2:9317, V-A:LYS:547:CG:4948, V-A:HIS:456:CB:4065, V-A:ALA:541:CB:4892, V-A:GLU:543:CD:4908, V-B:HIS:456:CE1:9041, V-B:TYR:484:CZ:9318, V-A:HIS:456:CE1:4070, V-A:HIS:456:CA:4063, V-A:GLU:543:CG:4907, V-B:GLU:543:CD:9880, V-A:TYR:539:C:4867, H-A:LYS:547:NZ:4951, V-A:ARG:545:C:4917, V-A:HIS:456:CG:4066, V-A:GLU:543:CB:4906, V-A:PRO:540:N:4884, V-A:PRO:540:CA:4883, H-A:GLY:544:O:4913, H-A:HIS:456:NE2:4071"]

$$$$
ZINC408649846
     RDKit          3D

 65 70  0  0  0  0  0  0  0  0999 V2000
  126.9400  130.3730   61.3880 O   0  0  0  0  0  0  0  0  0  0  0  0
  126.7440  129.3020   61.9680 C   0  0  0  0  0  0  0  0  0  0  0  0
  126.1030  128.1120   61.2110 C   0  0  0  0  0  0  0  0  0  0  0  0
  126.9070  127.6610   60.0490 N   0  0  0  0  0  0  0  0  0  0  0  0
  126.6960  126.5410   59.2880 C   0  0  0  0  0  0  0  0  0  0  0  0
  126.0390  126.5180   58.2440 O   0  0  0  0  0  0  0  0  0  0  0  0
  127.3190  125.2570   59.7630 C   0  0  0  0  0  0  0  0  0  0  0  0
  126.7960  124.6240   60.8980 C   0  0  0  0  0  0  0  0  0  0  0  0
  127.3580  123.4370   61.3670 C   0  0  0  0  0  0  0  0  0  0  0  0
  128.4450  122.8700   60.7040 C   0  0  0  0  0  0  0  0  0  0  0  0
  129.1400  121.4010   61.2850 Cl  0  0  0  0  0  0  0  0  0  0  0  0
  128.9700  123.4900   59.5720 C   0  0  0  0  0  0  0  0  0  0  0  0
  128.4160  124.6810   59.0950 C   0  0  0  0  0  0  0  0  0  0  0  0
  129.1260  125.4080   57.6900 Cl  0  0  0  0  0  0  0  0  0  0  0  0
  128.0950  128.3950   59.7980 N   0  0  0  0  0  0  0  0  0  0  0  0
  129.2970  128.0580   60.3430 C   0  0  0  0  0  0  0  0  0  0  0  0
  129.5600  127.0980   61.0680 O   0  0  0  0  0  0  0  0  0  0  0  0
  130.3170  129.0770   59.8510 C   0  0  2  0  0  0  0  0  0  0  0  0
  130.9140  130.0230   60.9320 C   0  0  2  0  0  0  0  0  0  0  0  0
  129.8100  131.0740   61.1110 C   0  0  0  0  0  0  0  0  0  0  0  0
  129.7750  131.4160   59.6170 C   0  0  1  0  0  0  0  0  0  0  0  0
  131.2420  131.8850   59.4350 C   0  0  2  0  0  0  0  0  0  0  0  0
  131.8250  131.8650   57.5260 Br  0  0  0  0  0  0  0  0  0  0  0  0
  132.0360  130.8640   60.2800 C   0  0  1  0  0  0  0  0  0  0  0  0
  133.0760  131.8160   61.6930 Br  0  0  0  0  0  0  0  0  0  0  0  0
  129.5350  130.0180   58.9640 C   0  0  2  0  0  0  0  0  0  0  0  0
  128.1030  129.5010   59.0030 C   0  0  0  0  0  0  0  0  0  0  0  0
  127.1610  129.9900   58.3800 O   0  0  0  0  0  0  0  0  0  0  0  0
  127.3020  129.0180   63.3290 C   0  0  0  0  0  0  0  0  0  0  0  0
  127.0210  129.8520   64.4220 C   0  0  0  0  0  0  0  0  0  0  0  0
  127.5570  129.5740   65.6760 C   0  0  0  0  0  0  0  0  0  0  0  0
  128.3920  128.4720   65.8510 C   0  0  0  0  0  0  0  0  0  0  0  0
  128.8960  128.1920   67.1020 O   0  0  0  0  0  0  0  0  0  0  0  0
  128.0630  127.7370   68.0900 C   0  0  0  0  0  0  0  0  0  0  0  0
  126.8640  127.4850   67.9220 O   0  0  0  0  0  0  0  0  0  0  0  0
  128.7580  127.5680   69.4100 C   0  0  0  0  0  0  0  0  0  0  0  0
  130.0880  127.9760   69.6070 C   0  0  0  0  0  0  0  0  0  0  0  0
  130.7030  127.8060   70.8440 C   0  0  0  0  0  0  0  0  0  0  0  0
  129.9970  127.2270   71.8950 C   0  0  0  0  0  0  0  0  0  0  0  0
  130.8400  126.9950   73.5860 Br  0  0  0  0  0  0  0  0  0  0  0  0
  128.6790  126.8170   71.7180 C   0  0  0  0  0  0  0  0  0  0  0  0
  128.0620  126.9870   70.4810 C   0  0  0  0  0  0  0  0  0  0  0  0
  128.6810  127.6370   64.7690 C   0  0  0  0  0  0  0  0  0  0  0  0
  128.1470  127.9140   63.5140 C   0  0  0  0  0  0  0  0  0  0  0  0
  125.9949  127.2696   61.9101 H   0  0  0  0  0  0  0  0  0  0  0  0
  125.1314  128.4538   60.8249 H   0  0  0  0  0  0  0  0  0  0  0  0
  125.9363  125.0662   61.4228 H   0  0  0  0  0  0  0  0  0  0  0  0
  126.9432  122.9479   62.2607 H   0  0  0  0  0  0  0  0  0  0  0  0
  129.8267  123.0387   59.0500 H   0  0  0  0  0  0  0  0  0  0  0  0
  131.1421  128.4998   59.4083 H   0  0  0  0  0  0  0  0  0  0  0  0
  131.2500  129.4707   61.8220 H   0  0  0  0  0  0  0  0  0  0  0  0
  128.8644  130.6544   61.4849 H   0  0  0  0  0  0  0  0  0  0  0  0
  129.9672  131.8869   61.8352 H   0  0  0  0  0  0  0  0  0  0  0  0
  129.0485  132.1433   59.2257 H   0  0  0  0  0  0  0  0  0  0  0  0
  131.3921  132.9287   59.7482 H   0  0  0  0  0  0  0  0  0  0  0  0
  132.7550  130.2697   59.6970 H   0  0  0  0  0  0  0  0  0  0  0  0
  129.8123  130.0869   57.9018 H   0  0  0  0  0  0  0  0  0  0  0  0
  126.3732  130.7307   64.2869 H   0  0  0  0  0  0  0  0  0  0  0  0
  127.3211  130.2253   66.5305 H   0  0  0  0  0  0  0  0  0  0  0  0
  130.6474  128.4332   68.7775 H   0  0  0  0  0  0  0  0  0  0  0  0
  131.7444  128.1284   70.9909 H   0  0  0  0  0  0  0  0  0  0  0  0
  128.1264  126.3602   72.5522 H   0  0  0  0  0  0  0  0  0  0  0  0
  127.0200  126.6630   70.3424 H   0  0  0  0  0  0  0  0  0  0  0  0
  129.3307  126.7605   64.9089 H   0  0  0  0  0  0  0  0  0  0  0  0
  128.3893  127.2626   62.6614 H   0  0  0  0  0  0  0  0  0  0  0  0
  1  2  2  0
  2  3  1  0
  3  4  1  0
  4  5  1  0
  5  6  2  0
  5  7  1  0
  7  8  2  0
  8  9  1  0
  9 10  2  0
 10 11  1  0
 10 12  1  0
 12 13  2  0
 13 14  1  0
  4 15  1  0
 15 16  1  0
 16 17  2  0
 16 18  1  0
 18 19  1  0
 19 20  1  0
 20 21  1  0
 21 22  1  0
 22 23  1  0
 22 24  1  0
 24 25  1  0
 21 26  1  0
 26 27  1  0
 27 28  2  0
  2 29  1  0
 29 30  2  0
 30 31  1  0
 31 32  2  0
 32 33  1  0
 33 34  1  0
 34 35  2  0
 34 36  1  0
 36 37  2  0
 37 38  1  0
 38 39  2  0
 39 40  1  0
 39 41  1  0
 41 42  2  0
 32 43  1  0
 43 44  2  0
 13  7  1  0
 27 15  1  0
 44 29  1  0
 26 18  1  0
 42 36  1  0
 24 19  1  0
  3 45  1  0
  3 46  1  0
  8 47  1  0
  9 48  1  0
 12 49  1  0
 18 50  1  6
 19 51  1  1
 20 52  1  0
 20 53  1  0
 21 54  1  1
 22 55  1  1
 24 56  1  6
 26 57  1  6
 30 58  1  0
 31 59  1  0
 37 60  1  0
 38 61  1  0
 41 62  1  0
 42 63  1  0
 43 64  1  0
 44 65  1  0
M  END
>  <Binding energies>  (1) 
[-9.82]

>  <Ligand effiencies>  (1) 
[-0.22318181818181818]

>  <Interactions>  (1) 
["V-B:PRO:540:CA:9855, V-B:GLU:543:C:9874, V-A:GLU:543:C:4902, V-B:GLU:543:CB:9878, V-B:ASP:366:CG:8184, V-B:ALA:541:CB:9864, V-B:TYR:539:CE2:9848, V-A:GLY:544:C:4912, V-A:ASP:366:CG:3213, V-A:ASN:362:CB:3176, V-A:HIS:456:CD2:4068, V-A:LEU:363:CD1:3189, V-B:TYR:539:CZ:9849, V-A:GLU:543:CD:4908, V-B:HIS:456:CE1:9041, V-B:TYR:484:CZ:9318, V-A:HIS:456:CE1:4070, V-B:TYR:539:CD2:9846, V-A:GLU:543:CG:4907, V-B:GLU:543:CD:9880, H-B:TYR:531:OH:9767, V-A:GLU:543:CB:4906, V-A:PRO:540:CB:4885, V-A:PRO:540:CA:4883, V-B:PRO:540:C:9853"]

$$$$
ZINC408725063
     RDKit          3D

 38 40  0  0  0  0  0  0  0  0999 V2000
  133.9420  124.3980   64.1670 O   0  0  0  0  0  0  0  0  0  0  0  0
  133.2410  123.7480   63.3890 C   0  0  0  0  0  0  0  0  0  0  0  0
  133.8090  123.1570   62.1660 C   0  0  0  0  0  0  0  0  0  0  0  0
  133.0870  122.4350   61.2790 C   0  0  0  0  0  0  0  0  0  0  0  0
  131.6830  122.1490   61.4080 C   0  0  0  0  0  0  0  0  0  0  0  0
  131.0780  121.4550   60.5230 N   0  0  0  0  0  0  0  0  0  0  0  0
  129.7040  121.1810   60.6590 N   0  0  0  0  0  0  0  0  0  0  0  0
  128.6690  122.1050   60.4710 C   0  0  0  0  0  0  0  0  0  0  0  0
  128.0170  122.7320   61.5420 C   0  0  0  0  0  0  0  0  0  0  0  0
  126.9900  123.6450   61.3070 C   0  0  0  0  0  0  0  0  0  0  0  0
  126.6040  123.9400   60.0000 C   0  0  0  0  0  0  0  0  0  0  0  0
  127.2410  123.3250   58.9170 C   0  0  0  0  0  0  0  0  0  0  0  0
  126.8190  123.6400   57.4820 C   0  0  0  0  0  0  0  0  0  0  0  0
  127.3230  124.8030   57.0650 F   0  0  0  0  0  0  0  0  0  0  0  0
  127.2650  122.6740   56.6780 F   0  0  0  0  0  0  0  0  0  0  0  0
  125.4900  123.7040   57.3710 F   0  0  0  0  0  0  0  0  0  0  0  0
  128.2730  122.4100   59.1650 C   0  0  0  0  0  0  0  0  0  0  0  0
  131.1080  122.7320   62.6140 C   0  0  0  0  0  0  0  0  0  0  0  0
  131.7760  123.4700   63.5510 C   0  0  0  0  0  0  0  0  0  0  0  0
  131.1650  124.0460   64.7630 C   0  0  0  0  0  0  0  0  0  0  0  0
  130.3660  125.1380   64.8760 C   0  0  0  0  0  0  0  0  0  0  0  0
  129.8950  126.0080   63.9620 N   0  0  0  0  0  0  0  0  0  0  0  0
  129.1140  126.9810   64.4800 C   0  0  0  0  0  0  0  0  0  0  0  0
  128.3430  128.2350   63.7180 S   0  0  0  0  0  0  0  0  0  0  0  0
  129.1360  126.6440   65.7900 N   0  0  0  0  0  0  0  0  0  0  0  0
  129.8460  125.5690   66.1460 C   0  0  0  0  0  0  0  0  0  0  0  0
  129.9900  125.1040   67.2770 O   0  0  0  0  0  0  0  0  0  0  0  0
  134.8790  123.3110   61.9625 H   0  0  0  0  0  0  0  0  0  0  0  0
  133.6104  122.0384   60.3965 H   0  0  0  0  0  0  0  0  0  0  0  0
  129.4930  120.2300   60.9260 H   0  0  0  0  0  0  0  0  0  0  0  0
  128.3178  122.5020   62.5748 H   0  0  0  0  0  0  0  0  0  0  0  0
  126.4839  124.1329   62.1531 H   0  0  0  0  0  0  0  0  0  0  0  0
  125.7932  124.6611   59.8193 H   0  0  0  0  0  0  0  0  0  0  0  0
  128.7799  121.9237   58.3185 H   0  0  0  0  0  0  0  0  0  0  0  0
  130.0350  122.5620   62.7864 H   0  0  0  0  0  0  0  0  0  0  0  0
  131.3865  123.5197   65.7032 H   0  0  0  0  0  0  0  0  0  0  0  0
  130.0880  125.9690   62.9720 H   0  0  0  0  0  0  0  0  0  0  0  0
  128.6220  127.2110   66.4490 H   0  0  0  0  0  0  0  0  0  0  0  0
  1  2  2  0
  2  3  1  0
  3  4  2  0
  4  5  1  0
  5  6  2  0
  6  7  1  0
  7  8  1  0
  8  9  2  0
  9 10  1  0
 10 11  2  0
 11 12  1  0
 12 13  1  0
 13 14  1  0
 13 15  1  0
 13 16  1  0
 12 17  2  0
  5 18  1  0
 18 19  2  0
 19 20  1  0
 20 21  2  0
 21 22  1  0
 22 23  1  0
 23 24  2  0
 23 25  1  0
 25 26  1  0
 26 27  2  0
 19  2  1  0
 26 21  1  0
 17  8  1  0
  3 28  1  0
  4 29  1  0
  7 30  1  0
  9 31  1  0
 10 32  1  0
 11 33  1  0
 17 34  1  0
 18 35  1  0
 20 36  1  0
 22 37  1  0
 25 38  1  0
M  END
>  <Binding energies>  (1) 
[-7.48]

>  <Ligand effiencies>  (1) 
[-0.24933333333333335]

>  <Interactions>  (1) 
["V-A:ILE:369:CG2:3237, V-B:PRO:540:CA:9855, V-A:GLY:454:CA:4049, H-A:GLU:543:OE2:4910, V-B:GLU:543:CB:9878, V-B:ALA:541:CB:9864, V-B:TYR:539:CE2:9848, V-B:GLU:543:CG:9879, V-B:TYR:539:C:9839, V-B:TYR:539:CZ:9849, V-A:TYR:484:CZ:4347, V-A:GLU:543:CD:4908, V-B:PRO:540:CB:9857, H-A:GLY:454:N:4050, V-B:PRO:540:N:9856, V-A:ILE:369:CD1:3239, V-B:TYR:539:CD2:9846, V-B:GLU:543:CD:9880, V-A:LEU:475:CD2:4259, H-A:ARG:545:NH2:4928, V-B:TYR:539:CG:9844, V-B:TYR:539:CD1:9845, V-B:LEU:363:CD1:8160, H-B:GLU:543:OE2:9882, H-B:TYR:539:O:9840, V-B:PRO:540:C:9853, V-B:TYR:539:CE1:9847, H-A:TYR:484:OH:4348"]

$$$$
ZINC408725063-again1
     RDKit          3D

 36 38  0  0  0  0  0  0  0  0999 V2000
  132.1960  123.7170   62.7220 O   0  0  0  0  0  0  0  0  0  0  0  0
  131.8470  124.2490   63.7760 C   0  0  0  0  0  0  0  0  0  0  0  0
  132.8370  124.8320   64.6960 C   0  0  0  0  0  0  0  0  0  0  0  0
  132.5120  125.4330   65.8630 C   0  0  0  0  0  0  0  0  0  0  0  0
  131.1710  125.5870   66.3650 C   0  0  0  0  0  0  0  0  0  0  0  0
  130.9830  126.1810   67.4870 N   0  0  0  0  0  0  0  0  0  0  0  0
  129.7470  126.3160   67.9360 N   0  0  0  0  0  0  0  0  0  0  0  0
  129.6750  126.8940   69.1900 C   0  0  0  0  0  0  0  0  0  0  0  0
  130.6920  127.8020   69.5170 C   0  0  0  0  0  0  0  0  0  0  0  0
  130.7330  128.4530   70.7480 C   0  0  0  0  0  0  0  0  0  0  0  0
  129.7450  128.2080   71.6970 C   0  0  0  0  0  0  0  0  0  0  0  0
  128.7120  127.3100   71.4200 C   0  0  0  0  0  0  0  0  0  0  0  0
  127.6240  127.0320   72.4570 C   0  0  0  0  0  0  0  0  0  0  0  0
  127.3030  125.7370   72.4970 F   0  0  0  0  0  0  0  0  0  0  0  0
  128.0710  127.3910   73.6600 F   0  0  0  0  0  0  0  0  0  0  0  0
  126.5120  127.7220   72.1950 F   0  0  0  0  0  0  0  0  0  0  0  0
  128.6860  126.6670   70.1760 C   0  0  0  0  0  0  0  0  0  0  0  0
  130.1770  125.0040   65.4590 C   0  0  0  0  0  0  0  0  0  0  0  0
  130.4370  124.3830   64.2680 C   0  0  0  0  0  0  0  0  0  0  0  0
  129.4110  123.8050   63.3780 C   0  0  0  0  0  0  0  0  0  0  0  0
  129.4860  122.6810   62.6180 C   0  0  0  0  0  0  0  0  0  0  0  0
  130.4560  121.7570   62.4190 N   0  0  0  0  0  0  0  0  0  0  0  0
  129.9810  120.9230   61.6070 C   0  0  0  0  0  0  0  0  0  0  0  0
  130.7840  119.4600   60.9480 S   0  0  0  0  0  0  0  0  0  0  0  0
  128.7350  121.1860   61.2130 N   0  0  0  0  0  0  0  0  0  0  0  0
  128.3340  122.3080   61.8170 C   0  0  0  0  0  0  0  0  0  0  0  0
  127.2360  122.8540   61.6910 O   0  0  0  0  0  0  0  0  0  0  0  0
  133.9001  124.7757   64.4190 H   0  0  0  0  0  0  0  0  0  0  0  0
  133.3335  125.8343   66.4747 H   0  0  0  0  0  0  0  0  0  0  0  0
  131.4817  128.0066   68.7790 H   0  0  0  0  0  0  0  0  0  0  0  0
  131.5458  129.1602   70.9697 H   0  0  0  0  0  0  0  0  0  0  0  0
  129.7778  128.7233   72.6683 H   0  0  0  0  0  0  0  0  0  0  0  0
  127.8698  125.9623   69.9584 H   0  0  0  0  0  0  0  0  0  0  0  0
  129.1228  125.0722   65.7656 H   0  0  0  0  0  0  0  0  0  0  0  0
  128.4609  124.3566   63.3227 H   0  0  0  0  0  0  0  0  0  0  0  0
  128.1810  120.6400   60.5720 H   0  0  0  0  0  0  0  0  0  0  0  0
  1  2  2  0
  2  3  1  0
  3  4  2  0
  4  5  1  0
  5  6  2  0
  6  7  1  0
  7  8  1  0
  8  9  2  0
  9 10  1  0
 10 11  2  0
 11 12  1  0
 12 13  1  0
 13 14  1  0
 13 15  1  0
 13 16  1  0
 12 17  2  0
  5 18  1  0
 18 19  2  0
 19 20  1  0
 20 21  2  0
 21 22  1  0
 22 23  2  0
 23 24  1  0
 23 25  1  0
 25 26  1  0
 26 27  2  0
 19  2  1  0
 26 21  1  0
 17  8  1  0
  3 28  1  0
  4 29  1  0
  9 30  1  0
 10 31  1  0
 11 32  1  0
 17 33  1  0
 18 34  1  0
 20 35  1  0
 25 36  1  0
M  CHG  2   7  -1  24  -1
M  END
>  <Binding energies>  (1) 
[-5.71]

>  <Ligand effiencies>  (1) 
[-0.20392857142857143]

>  <Interactions>  (1) 
["V-B:PRO:540:CA:9855, V-B:GLU:543:C:9874, V-B:HIS:456:CD2:9039, V-A:GLU:543:C:4902, V-B:HIS:456:CB:9036, V-B:ALA:541:CB:9864, V-A:GLY:544:CA:4914, V-B:GLU:543:CG:9879, V-A:GLY:544:C:4912, V-B:TYR:539:C:9839, V-B:LYS:547:CE:9922, H-B:ALA:541:N:9863, V-A:GLU:543:CD:4908, V-B:HIS:456:CE1:9041, V-B:PRO:540:N:9856, V-A:HIS:456:CE1:4070, V-B:GLY:544:C:9884, V-B:TYR:539:CD2:9846, V-B:GLY:544:CA:9886, V-B:GLU:543:CD:9880, V-B:HIS:456:CG:9037, V-A:ARG:545:CD:4923, V-A:LEU:475:CD2:4259, V-A:ARG:545:CZ:4926, V-A:GLU:543:CB:4906, H-B:TYR:539:O:9840, V-B:PRO:540:C:9853, V-B:ALA:541:CA:9862, H-B:PRO:540:O:9854"]

$$$$
ZINC408734461-again1
     RDKit          3D

 41 40  0  0  0  0  0  0  0  0999 V2000
  134.2350  124.2420   61.3930 C   0  0  0  0  0  0  0  0  0  0  0  0
  133.4350  124.9250   62.5070 C   0  0  0  0  0  0  0  0  0  0  0  0
  133.6410  124.2310   63.7320 O   0  0  0  0  0  0  0  0  0  0  0  0
  133.2830  124.7860   64.9100 C   0  0  0  0  0  0  0  0  0  0  0  0
  134.0690  125.0740   65.8180 O   0  0  0  0  0  0  0  0  0  0  0  0
  131.8430  125.0080   64.9860 C   0  0  0  0  0  0  0  0  0  0  0  0
  131.2170  125.3590   66.1250 C   0  0  0  0  0  0  0  0  0  0  0  0
  129.7260  125.5920   66.2390 C   0  0  0  0  0  0  0  0  0  0  0  0
  129.4610  126.9680   66.4680 O   0  0  0  0  0  0  0  0  0  0  0  0
  128.9890  127.3920   67.6590 C   0  0  0  0  0  0  0  0  0  0  0  0
  127.8660  127.8680   67.8560 O   0  0  0  0  0  0  0  0  0  0  0  0
  130.0420  127.2200   68.7670 C   0  0  0  0  0  0  0  0  0  0  0  0
  129.8640  128.1950   69.8360 N   0  0  0  0  0  0  0  0  0  0  0  0
  129.4280  127.8670   70.9960 C   0  0  0  0  0  0  0  0  0  0  0  0
  129.4570  128.9370   72.0830 C   0  0  0  0  0  0  0  0  0  0  0  0
  128.9110  126.5490   71.3360 C   0  0  0  0  0  0  0  0  0  0  0  0
  128.9080  125.9220   72.5370 C   0  0  0  0  0  0  0  0  0  0  0  0
  128.3680  124.7710   72.7680 O   0  0  0  0  0  0  0  0  0  0  0  0
  129.4850  126.5380   73.6200 O   0  0  0  0  0  0  0  0  0  0  0  0
  130.5580  125.9150   74.3510 C   0  0  0  0  0  0  0  0  0  0  0  0
  131.9030  126.6100   74.0910 C   0  0  0  0  0  0  0  0  0  0  0  0
  134.9999  123.5889   61.8384 H   0  0  0  0  0  0  0  0  0  0  0  0
  133.5565  123.6403   60.7704 H   0  0  0  0  0  0  0  0  0  0  0  0
  134.7229  125.0064   60.7704 H   0  0  0  0  0  0  0  0  0  0  0  0
  133.7716  125.9667   62.6145 H   0  0  0  0  0  0  0  0  0  0  0  0
  132.3650  124.9102   62.2523 H   0  0  0  0  0  0  0  0  0  0  0  0
  131.2426  124.8831   64.0728 H   0  0  0  0  0  0  0  0  0  0  0  0
  131.8284  125.4845   67.0308 H   0  0  0  0  0  0  0  0  0  0  0  0
  129.2367  125.2782   65.3051 H   0  0  0  0  0  0  0  0  0  0  0  0
  129.3345  125.0056   67.0834 H   0  0  0  0  0  0  0  0  0  0  0  0
  129.9533  126.2081   69.1891 H   0  0  0  0  0  0  0  0  0  0  0  0
  131.0360  127.3760   68.3226 H   0  0  0  0  0  0  0  0  0  0  0  0
  129.4439  128.4555   73.0719 H   0  0  0  0  0  0  0  0  0  0  0  0
  130.3718  129.5392   71.9804 H   0  0  0  0  0  0  0  0  0  0  0  0
  128.5762  129.5879   71.9804 H   0  0  0  0  0  0  0  0  0  0  0  0
  128.4618  125.9858   70.5047 H   0  0  0  0  0  0  0  0  0  0  0  0
  130.3328  125.9657   75.4265 H   0  0  0  0  0  0  0  0  0  0  0  0
  130.6412  124.8713   74.0138 H   0  0  0  0  0  0  0  0  0  0  0  0
  132.3800  126.8565   75.0511 H   0  0  0  0  0  0  0  0  0  0  0  0
  132.5584  125.9377   73.5179 H   0  0  0  0  0  0  0  0  0  0  0  0
  131.7338  127.5335   73.5179 H   0  0  0  0  0  0  0  0  0  0  0  0
  1  2  1  0
  2  3  1  0
  3  4  1  0
  4  5  2  0
  4  6  1  0
  6  7  2  0
  7  8  1  0
  8  9  1  0
  9 10  1  0
 10 11  2  0
 10 12  1  0
 12 13  1  0
 13 14  2  3
 14 15  1  0
 14 16  1  0
 16 17  2  3
 17 18  1  0
 17 19  1  0
 19 20  1  0
 20 21  1  0
  1 22  1  0
  1 23  1  0
  1 24  1  0
  2 25  1  0
  2 26  1  0
  6 27  1  0
  7 28  1  0
  8 29  1  0
  8 30  1  0
 12 31  1  0
 12 32  1  0
 15 33  1  0
 15 34  1  0
 15 35  1  0
 16 36  1  0
 20 37  1  0
 20 38  1  0
 21 39  1  0
 21 40  1  0
 21 41  1  0
M  CHG  1  18  -1
M  END
>  <Binding energies>  (1) 
[-5.55]

>  <Ligand effiencies>  (1) 
[-0.2642857142857143]

>  <Interactions>  (1) 
["V-A:GLY:454:CA:4049, V-B:HIS:456:CD2:9039, V-A:GLU:543:C:4902, V-B:GLU:543:CB:9878, H-B:LYS:547:NZ:9923, V-B:GLU:543:CG:9879, V-A:HIS:456:CD2:4068, V-A:ASP:366:CG:3213, V-A:HIS:456:CB:4065, V-B:LYS:547:CE:9922, V-A:GLU:543:CD:4908, V-A:TYR:484:CZ:4347, H-A:GLY:454:N:4050, V-A:HIS:456:CE1:4070, V-A:ILE:369:CD1:3239, V-B:GLU:543:CD:9880, V-A:ARG:545:CZ:4926, V-A:GLU:543:CB:4906, V-A:HIS:456:CG:4066, H-A:ARG:545:NE:4924, H-A:TYR:484:OH:4348"]

$$$$
ZINC408734724
     RDKit          3D

 67 71  0  0  0  0  0  0  0  0999 V2000
  129.8840  121.9870   61.5160 C   0  0  0  0  0  0  0  0  0  0  0  0
  130.0160  122.7180   62.8410 C   0  0  0  0  0  0  0  0  0  0  0  0
  130.7160  123.9230   62.9050 C   0  0  0  0  0  0  0  0  0  0  0  0
  130.8470  124.5860   64.1220 C   0  0  0  0  0  0  0  0  0  0  0  0
  130.2760  124.0550   65.2810 C   0  0  0  0  0  0  0  0  0  0  0  0
  130.4550  124.7680   66.4790 N   0  0  0  0  0  0  0  0  0  0  0  0
  129.8430  125.9160   67.0020 C   0  0  0  0  0  0  0  0  0  0  0  0
  129.3260  126.7700   66.0810 N   0  0  0  0  0  0  0  0  0  0  0  0
  128.7180  127.8710   66.5920 C   0  0  0  0  0  0  0  0  0  0  0  0
  128.1580  128.7620   65.6810 N   0  0  0  0  0  0  0  0  0  0  0  0
  128.0040  128.2230   64.5460 N   0  0  0  0  0  0  0  0  0  0  0  0
  127.4320  129.1200   63.5660 C   0  0  0  0  0  0  0  0  0  0  0  0
  128.5240  129.6440   62.6280 C   0  0  0  0  0  0  0  0  0  0  0  0
  129.1640  128.7690   61.7350 C   0  0  0  0  0  0  0  0  0  0  0  0
  128.7110  126.9170   61.6220 Br  0  0  0  0  0  0  0  0  0  0  0  0
  130.1580  129.2390   60.8850 C   0  0  0  0  0  0  0  0  0  0  0  0
  130.5350  130.5780   60.8940 C   0  0  0  0  0  0  0  0  0  0  0  0
  131.9200  131.1020   59.6760 Br  0  0  0  0  0  0  0  0  0  0  0  0
  129.9000  131.4770   61.7730 C   0  0  0  0  0  0  0  0  0  0  0  0
  130.2420  132.7070   61.7780 O   0  0  0  0  0  0  0  0  0  0  0  0
  128.8880  131.0070   62.6410 C   0  0  0  0  0  0  0  0  0  0  0  0
  127.9780  132.2100   63.8380 Br  0  0  0  0  0  0  0  0  0  0  0  0
  128.5870  128.1480   67.9190 N   0  0  0  0  0  0  0  0  0  0  0  0
  129.1230  127.2260   68.7690 C   0  0  0  0  0  0  0  0  0  0  0  0
  129.0740  127.4850   70.1460 N   0  0  0  0  0  0  0  0  0  0  0  0
  130.3150  127.7270   70.9210 C   0  0  0  0  0  0  0  0  0  0  0  0
  130.1080  128.4110   72.2880 C   0  0  0  0  0  0  0  0  0  0  0  0
  129.0960  127.6480   73.1500 C   0  0  0  0  0  0  0  0  0  0  0  0
  128.9640  128.2620   74.5640 C   0  0  0  0  0  0  0  0  0  0  0  0
  128.3620  129.6620   74.5780 C   0  0  0  0  0  0  0  0  0  0  0  0
  127.0890  129.8730   75.1180 C   0  0  0  0  0  0  0  0  0  0  0  0
  126.5410  131.1520   75.1280 C   0  0  0  0  0  0  0  0  0  0  0  0
  127.2660  132.2180   74.5990 C   0  0  0  0  0  0  0  0  0  0  0  0
  128.5340  132.0150   74.0580 C   0  0  0  0  0  0  0  0  0  0  0  0
  129.0820  130.7360   74.0470 C   0  0  0  0  0  0  0  0  0  0  0  0
  127.7900  127.6730   72.3450 C   0  0  0  0  0  0  0  0  0  0  0  0
  127.9570  126.9750   70.9790 C   0  0  0  0  0  0  0  0  0  0  0  0
  129.7670  126.0990   68.3470 N   0  0  0  0  0  0  0  0  0  0  0  0
  129.5900  122.8350   65.2150 C   0  0  0  0  0  0  0  0  0  0  0  0
  129.4600  122.1710   63.9980 C   0  0  0  0  0  0  0  0  0  0  0  0
  129.6914  120.9203   61.7033 H   0  0  0  0  0  0  0  0  0  0  0  0
  129.0487  122.4153   60.9426 H   0  0  0  0  0  0  0  0  0  0  0  0
  130.8164  122.0961   60.9426 H   0  0  0  0  0  0  0  0  0  0  0  0
  131.1639  124.3487   61.9950 H   0  0  0  0  0  0  0  0  0  0  0  0
  131.4034  125.5336   64.1713 H   0  0  0  0  0  0  0  0  0  0  0  0
  131.1200  124.3470   67.1110 H   0  0  0  0  0  0  0  0  0  0  0  0
  126.6754  128.5805   62.9774 H   0  0  0  0  0  0  0  0  0  0  0  0
  126.9668  129.9704   64.0859 H   0  0  0  0  0  0  0  0  0  0  0  0
  130.6543  128.5414   60.1944 H   0  0  0  0  0  0  0  0  0  0  0  0
  130.8028  126.7566   71.0955 H   0  0  0  0  0  0  0  0  0  0  0  0
  130.9222  128.4198   70.3199 H   0  0  0  0  0  0  0  0  0  0  0  0
  131.0713  128.4500   72.8177 H   0  0  0  0  0  0  0  0  0  0  0  0
  129.7170  129.4239   72.1116 H   0  0  0  0  0  0  0  0  0  0  0  0
  129.4101  126.6123   73.3468 H   0  0  0  0  0  0  0  0  0  0  0  0
  128.3228  127.6037   75.1685 H   0  0  0  0  0  0  0  0  0  0  0  0
  129.9828  128.3495   74.9694 H   0  0  0  0  0  0  0  0  0  0  0  0
  126.5212  129.0280   75.5347 H   0  0  0  0  0  0  0  0  0  0  0  0
  125.5400  131.3208   75.5516 H   0  0  0  0  0  0  0  0  0  0  0  0
  126.8333  133.2293   74.6086 H   0  0  0  0  0  0  0  0  0  0  0  0
  129.0991  132.8619   73.6416 H   0  0  0  0  0  0  0  0  0  0  0  0
  130.0822  130.5701   73.6203 H   0  0  0  0  0  0  0  0  0  0  0  0
  127.0065  127.1554   72.9179 H   0  0  0  0  0  0  0  0  0  0  0  0
  127.5138  128.7226   72.1659 H   0  0  0  0  0  0  0  0  0  0  0  0
  128.1292  125.9041   71.1619 H   0  0  0  0  0  0  0  0  0  0  0  0
  127.0350  127.1793   70.4149 H   0  0  0  0  0  0  0  0  0  0  0  0
  129.1533  122.4009   66.1265 H   0  0  0  0  0  0  0  0  0  0  0  0
  128.9187  121.2147   63.9487 H   0  0  0  0  0  0  0  0  0  0  0  0
  1  2  1  0
  2  3  2  0
  3  4  1  0
  4  5  2  0
  5  6  1  0
  6  7  1  0
  7  8  2  0
  8  9  1  0
  9 10  1  0
 10 11  2  0
 11 12  1  0
 12 13  1  0
 13 14  2  0
 14 15  1  0
 14 16  1  0
 16 17  2  0
 17 18  1  0
 17 19  1  0
 19 20  1  0
 19 21  2  0
 21 22  1  0
  9 23  2  0
 23 24  1  0
 24 25  1  0
 25 26  1  0
 26 27  1  0
 27 28  1  0
 28 29  1  0
 29 30  1  0
 30 31  2  0
 31 32  1  0
 32 33  2  0
 33 34  1  0
 34 35  2  0
 28 36  1  0
 36 37  1  0
 24 38  2  0
  5 39  1  0
 39 40  2  0
 40  2  1  0
 38  7  1  0
 21 13  1  0
 37 25  1  0
 35 30  1  0
  1 41  1  0
  1 42  1  0
  1 43  1  0
  3 44  1  0
  4 45  1  0
  6 46  1  0
 12 47  1  0
 12 48  1  0
 16 49  1  0
 26 50  1  0
 26 51  1  0
 27 52  1  0
 27 53  1  0
 28 54  1  0
 29 55  1  0
 29 56  1  0
 31 57  1  0
 32 58  1  0
 33 59  1  0
 34 60  1  0
 35 61  1  0
 36 62  1  0
 36 63  1  0
 37 64  1  0
 37 65  1  0
 39 66  1  0
 40 67  1  0
M  CHG  1  20  -1
M  END
>  <Binding energies>  (1) 
[-9.12]

>  <Ligand effiencies>  (1) 
[-0.22243902439024388]

>  <Interactions>  (1) 
["V-B:GLU:543:C:9874, V-B:HIS:456:CD2:9039, H-A:ALA:541:N:4891, V-B:GLU:543:CB:9878, V-B:HIS:456:CB:9036, V-B:ALA:541:CB:9864, V-A:TYR:484:CE2:4346, V-B:GLU:543:CG:9879, V-A:GLY:544:C:4912, V-A:ALA:541:CB:4892, V-A:GLU:543:CD:4908, V-A:TYR:484:CZ:4347, V-B:HIS:456:CE1:9041, V-A:HIS:456:CE1:4070, V-B:GLY:544:C:9884, V-A:GLU:543:CG:4907, V-B:GLU:543:CD:9880, V-B:HIS:456:CG:9037, V-A:LEU:475:CD2:4259, V-A:GLU:543:CB:4906, V-A:PRO:540:CB:4885, V-A:LYS:547:CE:4950, V-B:ASP:473:CG:9211, H-A:TYR:484:OH:4348"]

$$$$
ZINC408736906-again1
     RDKit          3D

 72 77  0  0  0  0  0  0  0  0999 V2000
  132.5120  125.5410   66.3430 C   0  0  0  0  0  0  0  0  0  0  0  0
  132.3180  125.1980   64.8810 C   0  0  0  0  0  0  0  0  0  0  0  0
  132.8720  124.2410   64.2710 N   0  0  0  0  0  0  0  0  0  0  0  0
  132.6360  124.3420   62.9360 N   0  0  0  0  0  0  0  0  0  0  0  0
  132.9720  123.2080   62.1340 C   0  0  0  0  0  0  0  0  0  0  0  0
  133.6520  122.1030   62.6790 C   0  0  0  0  0  0  0  0  0  0  0  0
  133.9690  121.0000   61.8920 C   0  0  0  0  0  0  0  0  0  0  0  0
  133.6050  120.9830   60.5490 C   0  0  0  0  0  0  0  0  0  0  0  0
  132.9290  122.0600   59.9880 C   0  0  0  0  0  0  0  0  0  0  0  0
  132.6130  123.1640   60.7740 C   0  0  0  0  0  0  0  0  0  0  0  0
  131.8060  125.3680   62.6320 C   0  0  0  0  0  0  0  0  0  0  0  0
  131.5650  125.8750   61.5350 O   0  0  0  0  0  0  0  0  0  0  0  0
  131.3770  125.9470   63.9750 C   0  0  1  0  0  0  0  0  0  0  0  0
  129.8290  125.8260   64.2580 C   0  0  2  0  0  0  0  0  0  0  0  0
  129.3860  126.5130   65.5690 C   0  0  0  0  0  0  0  0  0  0  0  0
  128.7350  127.7590   65.6920 C   0  0  0  0  0  0  0  0  0  0  0  0
  128.2770  128.7230   64.6180 C   0  0  0  0  0  0  0  0  0  0  0  0
  128.5110  128.0880   66.9420 N   0  0  0  0  0  0  0  0  0  0  0  0
  128.9570  127.0770   67.7040 N   0  0  0  0  0  0  0  0  0  0  0  0
  128.7880  127.1710   69.1210 C   0  0  0  0  0  0  0  0  0  0  0  0
  129.8730  127.4610   69.9610 C   0  0  0  0  0  0  0  0  0  0  0  0
  129.6990  127.5380   71.3390 C   0  0  0  0  0  0  0  0  0  0  0  0
  128.4380  127.3230   71.8890 C   0  0  0  0  0  0  0  0  0  0  0  0
  127.3500  127.0280   71.0720 C   0  0  0  0  0  0  0  0  0  0  0  0
  127.5240  126.9480   69.6940 C   0  0  0  0  0  0  0  0  0  0  0  0
  129.5130  126.0910   66.9010 C   0  0  0  0  0  0  0  0  0  0  0  0
  130.0550  125.0250   67.3460 O   0  0  0  0  0  0  0  0  0  0  0  0
  129.1820  124.4050   64.0720 C   0  0  2  0  0  0  0  0  0  0  0  0
  129.8550  123.3410   64.9550 C   0  0  0  0  0  0  0  0  0  0  0  0
  130.1530  122.1010   64.5360 C   0  0  0  0  0  0  0  0  0  0  0  0
  129.8540  121.6580   63.1990 C   0  0  0  0  0  0  0  0  0  0  0  0
  129.3520  122.4930   62.2780 C   0  0  0  0  0  0  0  0  0  0  0  0
  129.0670  123.9730   62.5480 C   0  0  1  0  0  0  0  0  0  0  0  0
  127.7670  124.3100   62.0640 O   0  0  0  0  0  0  0  0  0  0  0  0
  127.5750  125.4530   60.8490 S   0  0  0  0  0  0  0  0  0  0  0  0
  126.3990  126.2660   61.1760 O   0  0  0  0  0  0  0  0  0  0  0  0
  128.8680  126.0710   60.5330 O   0  0  0  0  0  0  0  0  0  0  0  0
  127.1110  124.3690   59.5030 C   0  0  0  0  0  0  0  0  0  0  0  0
  128.0500  123.4630   59.0060 C   0  0  0  0  0  0  0  0  0  0  0  0
  127.7070  122.6210   57.9530 C   0  0  0  0  0  0  0  0  0  0  0  0
  126.4270  122.6880   57.4040 C   0  0  0  0  0  0  0  0  0  0  0  0
  125.4870  123.5890   57.9000 C   0  0  0  0  0  0  0  0  0  0  0  0
  125.8270  124.4330   58.9530 C   0  0  0  0  0  0  0  0  0  0  0  0
  132.0660  124.7525   66.9669 H   0  0  0  0  0  0  0  0  0  0  0  0
  133.5872  125.6177   66.5621 H   0  0  0  0  0  0  0  0  0  0  0  0
  132.0237  126.5020   66.5621 H   0  0  0  0  0  0  0  0  0  0  0  0
  133.9368  122.1113   63.7415 H   0  0  0  0  0  0  0  0  0  0  0  0
  134.5051  120.1450   62.3297 H   0  0  0  0  0  0  0  0  0  0  0  0
  133.8541  120.1107   59.9268 H   0  0  0  0  0  0  0  0  0  0  0  0
  132.6445  122.0398   58.9256 H   0  0  0  0  0  0  0  0  0  0  0  0
  132.0757  124.0132   60.3265 H   0  0  0  0  0  0  0  0  0  0  0  0
  131.4621  127.0377   64.0895 H   0  0  0  0  0  0  0  0  0  0  0  0
  129.4019  126.4040   63.4252 H   0  0  0  0  0  0  0  0  0  0  0  0
  127.8504  129.6209   65.0889 H   0  0  0  0  0  0  0  0  0  0  0  0
  129.1352  129.0096   63.9924 H   0  0  0  0  0  0  0  0  0  0  0  0
  127.5127  128.2388   63.9924 H   0  0  0  0  0  0  0  0  0  0  0  0
  130.8696  127.6289   69.5267 H   0  0  0  0  0  0  0  0  0  0  0  0
  130.5542  127.7678   71.9916 H   0  0  0  0  0  0  0  0  0  0  0  0
  128.3003  127.3868   72.9785 H   0  0  0  0  0  0  0  0  0  0  0  0
  126.3571  126.8589   71.5141 H   0  0  0  0  0  0  0  0  0  0  0  0
  126.6663  126.7085   69.0483 H   0  0  0  0  0  0  0  0  0  0  0  0
  128.1446  124.4854   64.4287 H   0  0  0  0  0  0  0  0  0  0  0  0
  130.1070  123.6119   65.9909 H   0  0  0  0  0  0  0  0  0  0  0  0
  130.6394  121.4036   65.2338 H   0  0  0  0  0  0  0  0  0  0  0  0
  130.0420  120.6090   62.9266 H   0  0  0  0  0  0  0  0  0  0  0  0
  129.1335  122.0942   61.2764 H   0  0  0  0  0  0  0  0  0  0  0  0
  129.8531  124.5257   62.0126 H   0  0  0  0  0  0  0  0  0  0  0  0
  129.0573  123.4152   59.4454 H   0  0  0  0  0  0  0  0  0  0  0  0
  128.4421  121.9058   57.5554 H   0  0  0  0  0  0  0  0  0  0  0  0
  126.1566  122.0227   56.5708 H   0  0  0  0  0  0  0  0  0  0  0  0
  124.4795  123.6331   57.4607 H   0  0  0  0  0  0  0  0  0  0  0  0
  125.0899  125.1463   59.3503 H   0  0  0  0  0  0  0  0  0  0  0  0
  1  2  1  0
  2  3  2  0
  3  4  1  0
  4  5  1  0
  5  6  2  0
  6  7  1  0
  7  8  2  0
  8  9  1  0
  9 10  2  0
  4 11  1  0
 11 12  2  0
 11 13  1  0
 13 14  1  0
 14 15  1  0
 15 16  1  0
 16 17  1  0
 16 18  2  0
 18 19  1  0
 19 20  1  0
 20 21  2  0
 21 22  1  0
 22 23  2  0
 23 24  1  0
 24 25  2  0
 19 26  1  0
 26 27  1  0
 14 28  1  0
 28 29  1  0
 29 30  2  0
 30 31  1  0
 31 32  2  0
 32 33  1  0
 33 34  1  0
 34 35  1  0
 35 36  2  0
 35 37  2  0
 35 38  1  0
 38 39  2  0
 39 40  1  0
 40 41  2  0
 41 42  1  0
 42 43  2  0
 13  2  1  0
 26 15  2  0
 33 28  1  0
 43 38  1  0
 10  5  1  0
 25 20  1  0
  1 44  1  0
  1 45  1  0
  1 46  1  0
  6 47  1  0
  7 48  1  0
  8 49  1  0
  9 50  1  0
 10 51  1  0
 13 52  1  6
 14 53  1  6
 17 54  1  0
 17 55  1  0
 17 56  1  0
 21 57  1  0
 22 58  1  0
 23 59  1  0
 24 60  1  0
 25 61  1  0
 28 62  1  1
 29 63  1  0
 30 64  1  0
 31 65  1  0
 32 66  1  0
 33 67  1  6
 39 68  1  0
 40 69  1  0
 41 70  1  0
 42 71  1  0
 43 72  1  0
M  CHG  1  27  -1
M  END
>  <Binding energies>  (1) 
[-9.23]

>  <Ligand effiencies>  (1) 
[-0.21465116279069768]

>  <Interactions>  (1) 
["V-A:ILE:369:CG2:3237, V-B:PRO:540:CA:9855, V-A:GLY:454:CA:4049, V-B:GLU:543:C:9874, V-B:HIS:456:CD2:9039, V-B:GLU:543:CB:9878, V-B:ALA:541:CB:9864, V-B:TYR:539:CE2:9848, V-A:TYR:484:CE2:4346, V-B:GLU:543:CG:9879, V-B:TYR:539:C:9839, V-B:TYR:539:CZ:9849, V-A:TYR:484:CZ:4347, V-A:GLU:543:CD:4908, V-B:PRO:540:CB:9857, V-A:ARG:545:CG:4922, H-A:GLY:454:N:4050, V-A:SER:385:C:3405, V-B:HIS:456:CE1:9041, V-B:PRO:540:N:9856, V-A:HIS:456:CE1:4070, V-B:GLY:544:C:9884, V-B:TYR:539:CD2:9846, V-A:GLU:543:CG:4907, V-A:SER:385:CB:3409, V-B:GLY:544:CA:9886, V-B:GLU:543:CD:9880, V-B:PRO:540:CD:9859, V-A:ARG:545:CD:4923, V-A:LEU:475:CD2:4259, H-A:ARG:545:NH2:4928, V-A:ARG:545:CZ:4926, V-B:TYR:539:CG:9844, H-B:ARG:545:NH2:9900, V-A:SER:385:CA:3407, H-A:TYR:484:OH:4348"]

$$$$
ZINC408751075-again1
     RDKit          3D

 28 29  0  0  0  0  0  0  0  0999 V2000
  128.0340  128.7010   64.3490 O   0  0  0  0  0  0  0  0  0  0  0  0
  128.4620  127.7510   65.0000 N   0  0  0  0  0  0  0  0  0  0  0  0
  128.6750  126.6460   64.5100 O   0  0  0  0  0  0  0  0  0  0  0  0
  128.7320  127.9480   66.4430 C   0  0  0  0  0  0  0  0  0  0  0  0
  129.4040  126.9770   67.2010 C   0  0  0  0  0  0  0  0  0  0  0  0
  129.6450  127.1920   68.5590 C   0  0  0  0  0  0  0  0  0  0  0  0
  129.2140  128.3870   69.1410 C   0  0  0  0  0  0  0  0  0  0  0  0
  129.4280  128.6090   70.5080 N   0  0  0  0  0  0  0  0  0  0  0  0
  129.6670  127.5940   71.4440 N   0  0  0  0  0  0  0  0  0  0  0  0
  130.6840  127.7370   72.1940 C   0  0  0  0  0  0  0  0  0  0  0  0
  131.1030  126.7690   73.2510 C   0  0  0  0  0  0  0  0  0  0  0  0
  132.3810  126.9260   73.8200 C   0  0  0  0  0  0  0  0  0  0  0  0
  132.8550  126.0740   74.8090 C   0  0  0  0  0  0  0  0  0  0  0  0
  134.5920  126.3350   75.5410 Br  0  0  0  0  0  0  0  0  0  0  0  0
  132.0610  125.0310   75.2620 C   0  0  0  0  0  0  0  0  0  0  0  0
  130.7890  124.8300   74.7340 C   0  0  0  0  0  0  0  0  0  0  0  0
  129.8880  123.4880   75.3830 Cl  0  0  0  0  0  0  0  0  0  0  0  0
  130.2920  125.6910   73.7240 C   0  0  0  0  0  0  0  0  0  0  0  0
  129.1130  125.4700   73.2630 O   0  0  0  0  0  0  0  0  0  0  0  0
  128.5510  129.3380   68.4280 N   0  0  0  0  0  0  0  0  0  0  0  0
  128.3260  129.1140   67.1080 C   0  0  0  0  0  0  0  0  0  0  0  0
  129.7414  126.0449   66.7243 H   0  0  0  0  0  0  0  0  0  0  0  0
  130.1658  126.4330   69.1612 H   0  0  0  0  0  0  0  0  0  0  0  0
  129.0930  129.4670   70.9210 H   0  0  0  0  0  0  0  0  0  0  0  0
  131.2990  128.6382   72.0541 H   0  0  0  0  0  0  0  0  0  0  0  0
  133.0233  127.7479   73.4709 H   0  0  0  0  0  0  0  0  0  0  0  0
  132.4396  124.3573   76.0448 H   0  0  0  0  0  0  0  0  0  0  0  0
  127.7980  129.8870   66.5303 H   0  0  0  0  0  0  0  0  0  0  0  0
  1  2  2  0
  2  3  1  0
  2  4  1  0
  4  5  2  0
  5  6  1  0
  6  7  2  0
  7  8  1  0
  8  9  1  0
  9 10  2  0
 10 11  1  0
 11 12  2  0
 12 13  1  0
 13 14  1  0
 13 15  2  0
 15 16  1  0
 16 17  1  0
 16 18  2  0
 18 19  1  0
  7 20  1  0
 20 21  2  0
 21  4  1  0
 18 11  1  0
  5 22  1  0
  6 23  1  0
  8 24  1  0
 10 25  1  0
 12 26  1  0
 15 27  1  0
 21 28  1  0
M  CHG  3   2   1   3  -1  19  -1
M  END
>  <Binding energies>  (1) 
[-6.0]

>  <Ligand effiencies>  (1) 
[-0.2727272727272727]

>  <Interactions>  (1) 
["V-B:HIS:456:CD2:9039, V-A:GLU:543:C:4902, V-B:GLU:543:CB:9878, H-B:LYS:547:NZ:9923, V-B:GLU:543:CG:9879, V-A:GLY:544:C:4912, V-A:HIS:456:CD2:4068, V-A:VAL:457:C:4073, V-A:LYS:547:CG:4948, V-A:HIS:456:CB:4065, V-B:LYS:547:CE:9922, V-A:GLU:543:CD:4908, V-B:HIS:456:CE1:9041, V-A:HIS:456:CE1:4070, H-B:HIS:456:NE2:9042, V-A:GLU:543:CG:4907, V-B:GLU:543:CD:9880, V-A:HIS:456:CG:4066, V-A:GLU:543:CB:4906, V-A:VAL:458:CG2:4087, H-A:GLU:543:O:4903"]

$$$$
ZINC408755036
     RDKit          3D

 52 54  0  0  0  0  0  0  0  0999 V2000
  134.2780  125.0680   66.1960 C   0  0  0  0  0  0  0  0  0  0  0  0
  133.8770  124.6060   64.9110 O   0  0  0  0  0  0  0  0  0  0  0  0
  132.5360  124.5990   64.5760 C   0  0  0  0  0  0  0  0  0  0  0  0
  131.5910  125.4790   65.1310 C   0  0  0  0  0  0  0  0  0  0  0  0
  130.2560  125.4490   64.7230 C   0  0  0  0  0  0  0  0  0  0  0  0
  129.2320  126.3860   65.3570 C   0  0  0  0  0  0  0  0  0  0  0  0
  129.2600  126.3150   66.8010 N   0  0  0  0  0  0  0  0  0  0  0  0
  129.4700  127.4520   67.3310 N   0  0  0  0  0  0  0  0  0  0  0  0
  129.5080  127.5210   68.7410 C   0  0  0  0  0  0  0  0  0  0  0  0
  130.7100  127.7270   69.4490 C   0  0  0  0  0  0  0  0  0  0  0  0
  130.7520  127.8070   70.8340 C   0  0  0  0  0  0  0  0  0  0  0  0
  129.5850  127.6870   71.5860 C   0  0  0  0  0  0  0  0  0  0  0  0
  129.6210  127.7700   73.0670 N   0  0  0  0  0  0  0  0  0  0  0  0
  129.4030  126.7530   73.7200 O   0  0  0  0  0  0  0  0  0  0  0  0
  129.8690  128.8540   73.5890 O   0  0  0  0  0  0  0  0  0  0  0  0
  128.3810  127.4860   70.9040 C   0  0  0  0  0  0  0  0  0  0  0  0
  128.3100  127.3980   69.5000 C   0  0  0  0  0  0  0  0  0  0  0  0
  126.9630  127.1750   68.8830 N   0  0  0  0  0  0  0  0  0  0  0  0
  126.7210  127.5650   67.7450 O   0  0  0  0  0  0  0  0  0  0  0  0
  126.1090  126.5860   69.5430 O   0  0  0  0  0  0  0  0  0  0  0  0
  129.8640  124.5590   63.7230 C   0  0  0  0  0  0  0  0  0  0  0  0
  130.7850  123.6760   63.1670 C   0  0  0  0  0  0  0  0  0  0  0  0
  130.1390  122.4030   61.6330 I   0  0  0  0  0  0  0  0  0  0  0  0
  132.1100  123.6610   63.6200 C   0  0  0  0  0  0  0  0  0  0  0  0
  132.9870  122.7390   63.0980 O   0  0  0  0  0  0  0  0  0  0  0  0
  134.2020  123.2390   62.0480 S   0  0  0  0  0  0  0  0  0  0  0  0
  135.1020  124.1260   62.7940 O   0  0  0  0  0  0  0  0  0  0  0  0
  134.7240  122.0820   61.3110 O   0  0  0  0  0  0  0  0  0  0  0  0
  133.2510  124.2440   60.9030 C   0  0  0  0  0  0  0  0  0  0  0  0
  132.6800  125.4410   61.3430 C   0  0  0  0  0  0  0  0  0  0  0  0
  131.9560  126.2310   60.4550 C   0  0  0  0  0  0  0  0  0  0  0  0
  131.8020  125.8260   59.1280 C   0  0  0  0  0  0  0  0  0  0  0  0
  131.0120  126.6880   58.1620 C   0  0  0  0  0  0  0  0  0  0  0  0
  132.3580  124.6200   58.6940 C   0  0  0  0  0  0  0  0  0  0  0  0
  133.0810  123.8280   59.5810 C   0  0  0  0  0  0  0  0  0  0  0  0
  133.7675  124.4799   66.9729 H   0  0  0  0  0  0  0  0  0  0  0  0
  135.3665  124.9519   66.3042 H   0  0  0  0  0  0  0  0  0  0  0  0
  134.0099  126.1293   66.3042 H   0  0  0  0  0  0  0  0  0  0  0  0
  131.9076  126.2015   65.8976 H   0  0  0  0  0  0  0  0  0  0  0  0
  129.4538  127.4178   65.0470 H   0  0  0  0  0  0  0  0  0  0  0  0
  128.2316  126.0777   65.0191 H   0  0  0  0  0  0  0  0  0  0  0  0
  131.6480  127.8279   68.8833 H   0  0  0  0  0  0  0  0  0  0  0  0
  131.7144  127.9664   71.3422 H   0  0  0  0  0  0  0  0  0  0  0  0
  127.4528  127.3929   71.4869 H   0  0  0  0  0  0  0  0  0  0  0  0
  128.8215  124.5550   63.3720 H   0  0  0  0  0  0  0  0  0  0  0  0
  132.8025  125.7582   62.3891 H   0  0  0  0  0  0  0  0  0  0  0  0
  131.5054  127.1739   60.7985 H   0  0  0  0  0  0  0  0  0  0  0  0
  130.3747  127.3834   58.7280 H   0  0  0  0  0  0  0  0  0  0  0  0
  131.7063  127.2597   57.5287 H   0  0  0  0  0  0  0  0  0  0  0  0
  130.3820  126.0461   57.5287 H   0  0  0  0  0  0  0  0  0  0  0  0
  132.2243  124.2965   57.6512 H   0  0  0  0  0  0  0  0  0  0  0  0
  133.5173  122.8770   59.2416 H   0  0  0  0  0  0  0  0  0  0  0  0
  1  2  1  0
  2  3  1  0
  3  4  2  0
  4  5  1  0
  5  6  1  0
  6  7  1  0
  7  8  2  0
  8  9  1  0
  9 10  2  0
 10 11  1  0
 11 12  2  0
 12 13  1  0
 13 14  2  0
 13 15  1  0
 12 16  1  0
 16 17  2  0
 17 18  1  0
 18 19  2  0
 18 20  1  0
  5 21  2  0
 21 22  1  0
 22 23  1  0
 22 24  2  0
 24 25  1  0
 25 26  1  0
 26 27  2  0
 26 28  2  0
 26 29  1  0
 29 30  2  0
 30 31  1  0
 31 32  2  0
 32 33  1  0
 32 34  1  0
 34 35  2  0
 24  3  1  0
 35 29  1  0
 17  9  1  0
  1 36  1  0
  1 37  1  0
  1 38  1  0
  4 39  1  0
  6 40  1  0
  6 41  1  0
 10 42  1  0
 11 43  1  0
 16 44  1  0
 21 45  1  0
 30 46  1  0
 31 47  1  0
 33 48  1  0
 33 49  1  0
 33 50  1  0
 34 51  1  0
 35 52  1  0
M  CHG  4  13   1  15  -1  18   1  20  -1
M  END
>  <Binding energies>  (1) 
[-9.49]

>  <Ligand effiencies>  (1) 
[-0.27114285714285713]

>  <Interactions>  (1) 
["V-A:ILE:369:CG2:3237, V-A:GLY:454:CA:4049, V-B:HIS:456:CD2:9039, V-B:GLU:543:C:9874, V-A:GLU:543:C:4902, V-B:GLU:543:CB:9878, H-B:LYS:547:NZ:9923, V-B:TYR:539:CE2:9848, V-B:GLU:543:CG:9879, V-A:GLY:544:C:4912, V-A:ASP:366:CG:3213, H-B:HIS:456:ND1:9038, V-B:TYR:539:CZ:9849, H-B:ARG:545:N:9892, V-A:GLU:543:CD:4908, V-A:ARG:545:CG:4922, H-B:GLY:544:N:9887, H-A:GLY:454:N:4050, V-A:GLY:453:C:4042, V-B:HIS:456:CE1:9041, V-A:ILE:369:CD1:3239, V-A:HIS:456:CE1:4070, V-B:GLU:543:CD:9880, V-A:ASP:366:CB:3212, V-A:ARG:545:CD:4923, H-A:LYS:547:NZ:4951, H-A:ARG:545:NH2:4928, V-A:ARG:545:CZ:4926, V-A:GLU:543:CB:4906, V-A:GLY:453:CA:4044, H-A:ARG:545:NE:4924, H-A:TYR:484:OH:4348"]

$$$$
ZINC408763567
     RDKit          3D

 38 39  0  0  0  0  0  0  0  0999 V2000
  134.3440  123.9740   61.4840 C   0  0  0  0  0  0  0  0  0  0  0  0
  134.6040  124.7390   62.7850 C   0  0  0  0  0  0  0  0  0  0  0  0
  133.6650  124.3060   63.7670 O   0  0  0  0  0  0  0  0  0  0  0  0
  132.3000  124.3800   63.5100 C   0  0  0  0  0  0  0  0  0  0  0  0
  131.5510  125.5400   63.7790 C   0  0  0  0  0  0  0  0  0  0  0  0
  130.1830  125.6180   63.5010 C   0  0  0  0  0  0  0  0  0  0  0  0
  129.3700  126.8290   63.7720 C   0  0  0  0  0  0  0  0  0  0  0  0
  128.8630  127.3480   64.9200 C   0  0  0  0  0  0  0  0  0  0  0  0
  127.9930  128.4830   64.8300 C   0  0  0  0  0  0  0  0  0  0  0  0
  127.2750  129.3870   64.7560 N   0  0  0  0  0  0  0  0  0  0  0  0
  129.1620  126.8390   66.2530 C   0  0  0  0  0  0  0  0  0  0  0  0
  129.6140  125.7080   66.4390 O   0  0  0  0  0  0  0  0  0  0  0  0
  128.9230  127.7260   67.2480 N   0  0  0  0  0  0  0  0  0  0  0  0
  129.0690  127.5620   68.6390 C   0  0  0  0  0  0  0  0  0  0  0  0
  130.2990  127.9460   69.1760 C   0  0  0  0  0  0  0  0  0  0  0  0
  130.5320  127.8350   70.5450 C   0  0  0  0  0  0  0  0  0  0  0  0
  129.5290  127.3470   71.3780 C   0  0  0  0  0  0  0  0  0  0  0  0
  129.8780  127.1810   73.4340 I   0  0  0  0  0  0  0  0  0  0  0  0
  128.2930  126.9730   70.8550 C   0  0  0  0  0  0  0  0  0  0  0  0
  128.0570  127.0830   69.4880 C   0  0  0  0  0  0  0  0  0  0  0  0
  129.5450  124.4930   62.9820 C   0  0  0  0  0  0  0  0  0  0  0  0
  130.2480  123.3210   62.7120 C   0  0  0  0  0  0  0  0  0  0  0  0
  129.2500  121.8530   61.9890 Br  0  0  0  0  0  0  0  0  0  0  0  0
  131.6330  123.2580   62.9700 C   0  0  0  0  0  0  0  0  0  0  0  0
  132.2790  122.1830   62.7190 O   0  0  0  0  0  0  0  0  0  0  0  0
  133.9982  122.9567   61.7197 H   0  0  0  0  0  0  0  0  0  0  0  0
  133.5731  124.4969   60.8989 H   0  0  0  0  0  0  0  0  0  0  0  0
  135.2739  123.9189   60.8989 H   0  0  0  0  0  0  0  0  0  0  0  0
  135.6265  124.5354   63.1358 H   0  0  0  0  0  0  0  0  0  0  0  0
  134.4932  125.8197   62.6122 H   0  0  0  0  0  0  0  0  0  0  0  0
  132.0565  126.4113   64.2210 H   0  0  0  0  0  0  0  0  0  0  0  0
  129.1331  127.4177   62.8735 H   0  0  0  0  0  0  0  0  0  0  0  0
  128.6500  128.6540   66.9620 H   0  0  0  0  0  0  0  0  0  0  0  0
  131.0870  128.3376   68.5159 H   0  0  0  0  0  0  0  0  0  0  0  0
  131.5041  128.1316   70.9658 H   0  0  0  0  0  0  0  0  0  0  0  0
  127.5053  126.5915   71.5213 H   0  0  0  0  0  0  0  0  0  0  0  0
  127.0798  126.7954   69.0727 H   0  0  0  0  0  0  0  0  0  0  0  0
  128.4641  124.5312   62.7814 H   0  0  0  0  0  0  0  0  0  0  0  0
  1  2  1  0
  2  3  1  0
  3  4  1  0
  4  5  2  0
  5  6  1  0
  6  7  1  0
  7  8  2  0
  8  9  1  0
  9 10  3  0
  8 11  1  0
 11 12  2  0
 11 13  1  0
 13 14  1  0
 14 15  2  0
 15 16  1  0
 16 17  2  0
 17 18  1  0
 17 19  1  0
 19 20  2  0
  6 21  2  0
 21 22  1  0
 22 23  1  0
 22 24  2  0
 24 25  1  0
 24  4  1  0
 20 14  1  0
  1 26  1  0
  1 27  1  0
  1 28  1  0
  2 29  1  0
  2 30  1  0
  5 31  1  0
  7 32  1  0
 13 33  1  0
 15 34  1  0
 16 35  1  0
 19 36  1  0
 20 37  1  0
 21 38  1  0
M  CHG  1  25  -1
M  END
>  <Binding energies>  (1) 
[-6.5]

>  <Ligand effiencies>  (1) 
[-0.25]

>  <Interactions>  (1) 
["V-B:GLU:543:C:9874, H-A:GLU:543:OE2:4910, V-A:GLU:543:C:4902, V-B:GLU:543:CB:9878, V-B:ALA:541:CB:9864, V-B:GLU:543:CG:9879, V-A:GLY:544:C:4912, V-A:GLU:543:CD:4908, H-B:TYR:484:OH:9319, V-B:HIS:456:CE1:9041, H-A:GLY:454:N:4050, V-A:GLY:453:C:4042, V-A:ILE:369:CD1:3239, V-A:HIS:456:CE1:4070, V-A:GLU:543:CG:4907, V-B:GLU:543:CD:9880, V-A:LEU:475:CD2:4259, V-A:ARG:545:CZ:4926, V-A:GLU:543:CB:4906, H-B:GLU:543:OE2:9882, V-A:GLY:453:CA:4044, H-A:TYR:484:OH:4348"]

$$$$
ZINC408768823
     RDKit          3D

 60 64  0  0  0  0  0  0  0  0999 V2000
  133.3580  124.4440   62.5750 C   0  0  0  0  0  0  0  0  0  0  0  0
  133.9790  124.5130   63.8550 O   0  0  0  0  0  0  0  0  0  0  0  0
  133.2240  124.8940   64.9470 C   0  0  0  0  0  0  0  0  0  0  0  0
  133.9100  125.0990   66.1470 C   0  0  0  0  0  0  0  0  0  0  0  0
  133.2300  125.4820   67.3020 C   0  0  0  0  0  0  0  0  0  0  0  0
  131.8500  125.6670   67.2680 C   0  0  0  0  0  0  0  0  0  0  0  0
  131.1400  125.4790   66.0790 C   0  0  0  0  0  0  0  0  0  0  0  0
  129.6140  125.6700   66.0680 C   0  0  2  0  0  0  0  0  0  0  0  0
  129.1060  126.3900   64.7860 C   0  0  0  0  0  0  0  0  0  0  0  0
  129.1660  125.6440   63.5440 C   0  0  0  0  0  0  0  0  0  0  0  0
  129.2240  126.2070   62.4500 O   0  0  0  0  0  0  0  0  0  0  0  0
  129.1700  124.3050   63.7300 N   0  0  0  0  0  0  0  0  0  0  0  0
  129.2040  123.2760   62.7700 C   0  0  0  0  0  0  0  0  0  0  0  0
  128.4310  123.4800   61.6230 C   0  0  0  0  0  0  0  0  0  0  0  0
  128.4080  122.5220   60.6130 C   0  0  0  0  0  0  0  0  0  0  0  0
  129.1660  121.3620   60.7460 C   0  0  0  0  0  0  0  0  0  0  0  0
  129.9510  121.1530   61.8770 C   0  0  0  0  0  0  0  0  0  0  0  0
  129.9750  122.1080   62.8900 C   0  0  0  0  0  0  0  0  0  0  0  0
  128.7860  127.7180   64.8470 C   0  0  0  0  0  0  0  0  0  0  0  0
  128.3150  128.6030   63.6930 C   0  0  0  0  0  0  0  0  0  0  0  0
  128.7500  128.4170   66.0210 N   0  0  0  0  0  0  0  0  0  0  0  0
  128.8700  127.8060   67.1430 C   0  0  0  0  0  0  0  0  0  0  0  0
  128.6580  128.5530   68.7220 S   0  0  0  0  0  0  0  0  0  0  0  0
  128.8900  126.9750   69.4950 C   0  0  0  0  0  0  0  0  0  0  0  0
  128.8430  126.6680   70.8130 C   0  0  0  0  0  0  0  0  0  0  0  0
  128.5140  127.5840   71.9450 C   0  0  0  0  0  0  0  0  0  0  0  0
  127.3610  127.3000   72.6830 C   0  0  0  0  0  0  0  0  0  0  0  0
  126.9820  128.0920   73.7530 C   0  0  0  0  0  0  0  0  0  0  0  0
  125.4030  127.6770   74.7330 Br  0  0  0  0  0  0  0  0  0  0  0  0
  127.7570  129.1840   74.1120 C   0  0  0  0  0  0  0  0  0  0  0  0
  128.9330  129.5230   73.4210 C   0  0  0  0  0  0  0  0  0  0  0  0
  129.6890  130.7290   73.9070 N   0  0  0  0  0  0  0  0  0  0  0  0
  129.3220  131.2630   74.9510 O   0  0  0  0  0  0  0  0  0  0  0  0
  130.6470  131.1740   73.2850 O   0  0  0  0  0  0  0  0  0  0  0  0
  129.3160  128.7000   72.3160 C   0  0  0  0  0  0  0  0  0  0  0  0
  130.3740  128.9450   71.6350 O   0  0  0  0  0  0  0  0  0  0  0  0
  129.2090  125.9600   68.5060 C   0  0  0  0  0  0  0  0  0  0  0  0
  129.4670  124.7780   68.7530 O   0  0  0  0  0  0  0  0  0  0  0  0
  129.1840  126.4850   67.2540 N   0  0  0  0  0  0  0  0  0  0  0  0
  131.8330  125.0860   64.9250 C   0  0  0  0  0  0  0  0  0  0  0  0
  132.2719  124.3233   62.7004 H   0  0  0  0  0  0  0  0  0  0  0  0
  133.5621  125.3703   62.0180 H   0  0  0  0  0  0  0  0  0  0  0  0
  133.7605  123.5850   62.0180 H   0  0  0  0  0  0  0  0  0  0  0  0
  135.0002  124.9564   66.1806 H   0  0  0  0  0  0  0  0  0  0  0  0
  133.7831  125.6381   68.2399 H   0  0  0  0  0  0  0  0  0  0  0  0
  131.3155  125.9629   68.1828 H   0  0  0  0  0  0  0  0  0  0  0  0
  129.1792  124.6600   66.0993 H   0  0  0  0  0  0  0  0  0  0  0  0
  129.2000  123.9860   64.6870 H   0  0  0  0  0  0  0  0  0  0  0  0
  127.8387  124.4010   61.5182 H   0  0  0  0  0  0  0  0  0  0  0  0
  127.7939  122.6809   59.7143 H   0  0  0  0  0  0  0  0  0  0  0  0
  129.1447  120.6031   59.9500 H   0  0  0  0  0  0  0  0  0  0  0  0
  130.5508  120.2356   61.9699 H   0  0  0  0  0  0  0  0  0  0  0  0
  130.5969  121.9480   63.7831 H   0  0  0  0  0  0  0  0  0  0  0  0
  127.8342  129.5064   64.0964 H   0  0  0  0  0  0  0  0  0  0  0  0
  129.1788  128.8917   63.0761 H   0  0  0  0  0  0  0  0  0  0  0  0
  127.5931  128.0478   63.0761 H   0  0  0  0  0  0  0  0  0  0  0  0
  129.0732  125.6260   71.0797 H   0  0  0  0  0  0  0  0  0  0  0  0
  126.7441  126.4317   72.4084 H   0  0  0  0  0  0  0  0  0  0  0  0
  127.4418  129.8043   74.9640 H   0  0  0  0  0  0  0  0  0  0  0  0
  131.2787  124.9257   63.9885 H   0  0  0  0  0  0  0  0  0  0  0  0
  1  2  1  0
  2  3  1  0
  3  4  2  0
  4  5  1  0
  5  6  2  0
  6  7  1  0
  7  8  1  0
  8  9  1  0
  9 10  1  0
 10 11  2  0
 10 12  1  0
 12 13  1  0
 13 14  2  0
 14 15  1  0
 15 16  2  0
 16 17  1  0
 17 18  2  0
  9 19  2  0
 19 20  1  0
 19 21  1  0
 21 22  2  0
 22 23  1  0
 23 24  1  0
 24 25  2  0
 25 26  1  0
 26 27  2  0
 27 28  1  0
 28 29  1  0
 28 30  2  0
 30 31  1  0
 31 32  1  0
 32 33  2  0
 32 34  1  0
 31 35  2  0
 35 36  1  0
 24 37  1  0
 37 38  2  0
 37 39  1  0
  7 40  2  0
 40  3  1  0
 39  8  1  0
 18 13  1  0
 39 22  1  0
 35 26  1  0
  1 41  1  0
  1 42  1  0
  1 43  1  0
  4 44  1  0
  5 45  1  0
  6 46  1  0
  8 47  1  1
 12 48  1  0
 14 49  1  0
 15 50  1  0
 16 51  1  0
 17 52  1  0
 18 53  1  0
 20 54  1  0
 20 55  1  0
 20 56  1  0
 25 57  1  0
 27 58  1  0
 30 59  1  0
 40 60  1  0
M  CHG  3  32   1  34  -1  36  -1
M  END
>  <Binding energies>  (1) 
[-8.49]

>  <Ligand effiencies>  (1) 
[-0.20707317073170733]

>  <Interactions>  (1) 
["V-B:PRO:540:CA:9855, V-A:GLY:454:CA:4049, V-B:GLU:543:C:9874, V-B:HIS:456:CD2:9039, V-B:GLU:543:CB:9878, V-B:HIS:456:CB:9036, V-B:ALA:541:CB:9864, V-B:TYR:539:CE2:9848, V-B:GLU:543:CG:9879, V-B:TYR:539:C:9839, H-B:GLU:543:OE1:9881, V-B:LYS:547:CE:9922, V-A:GLU:543:CD:4908, V-A:TYR:484:CZ:4347, V-A:ARG:545:CG:4922, V-B:HIS:456:CE1:9041, H-A:GLY:454:N:4050, V-B:GLU:543:CA:9876, V-A:HIS:456:CE1:4070, V-B:GLY:544:C:9884, V-B:TYR:539:CD2:9846, V-A:GLU:543:CG:4907, V-B:GLU:543:CD:9880, V-B:HIS:456:CG:9037, V-B:LYS:547:CD:9921, V-A:ARG:545:CD:4923, H-A:LYS:547:NZ:4951, H-A:ARG:545:NH2:4928, V-A:ARG:545:CZ:4926, V-A:LEU:475:CD2:4259, V-A:GLU:543:CB:4906, V-A:LYS:547:CE:4950, V-B:PRO:540:C:9853, H-A:GLY:544:N:4915"]

$$$$
ZINC408770656
     RDKit          3D

 60 64  0  0  0  0  0  0  0  0999 V2000
  133.5040  124.7460   62.5640 C   0  0  0  0  0  0  0  0  0  0  0  0
  133.9980  124.5100   63.8790 O   0  0  0  0  0  0  0  0  0  0  0  0
  133.2390  124.9120   64.9630 C   0  0  0  0  0  0  0  0  0  0  0  0
  133.9180  125.1230   66.1640 C   0  0  0  0  0  0  0  0  0  0  0  0
  133.2330  125.5250   67.3100 C   0  0  0  0  0  0  0  0  0  0  0  0
  131.8540  125.7190   67.2650 C   0  0  0  0  0  0  0  0  0  0  0  0
  131.1510  125.5200   66.0730 C   0  0  0  0  0  0  0  0  0  0  0  0
  129.6230  125.7010   66.0560 C   0  0  2  0  0  0  0  0  0  0  0  0
  129.0920  126.3270   64.7360 C   0  0  0  0  0  0  0  0  0  0  0  0
  128.9960  125.4640   63.5780 C   0  0  0  0  0  0  0  0  0  0  0  0
  128.4900  125.8580   62.5270 O   0  0  0  0  0  0  0  0  0  0  0  0
  129.5130  124.2340   63.7870 N   0  0  0  0  0  0  0  0  0  0  0  0
  129.6090  123.1330   62.9170 C   0  0  0  0  0  0  0  0  0  0  0  0
  130.9060  122.6910   62.6420 C   0  0  0  0  0  0  0  0  0  0  0  0
  131.1130  121.6080   61.7910 C   0  0  0  0  0  0  0  0  0  0  0  0
  130.0210  120.9690   61.2110 C   0  0  0  0  0  0  0  0  0  0  0  0
  128.7240  121.4050   61.4690 C   0  0  0  0  0  0  0  0  0  0  0  0
  128.5130  122.4870   62.3190 C   0  0  0  0  0  0  0  0  0  0  0  0
  128.7810  127.6570   64.7030 C   0  0  0  0  0  0  0  0  0  0  0  0
  128.3090  128.4590   63.4910 C   0  0  0  0  0  0  0  0  0  0  0  0
  128.7980  128.4470   65.8190 N   0  0  0  0  0  0  0  0  0  0  0  0
  128.9130  127.9160   66.9820 C   0  0  0  0  0  0  0  0  0  0  0  0
  128.7310  128.7720   68.5070 S   0  0  0  0  0  0  0  0  0  0  0  0
  128.9210  127.2470   69.3920 C   0  0  0  0  0  0  0  0  0  0  0  0
  128.8610  127.0070   70.7270 C   0  0  0  0  0  0  0  0  0  0  0  0
  128.5450  127.9230   71.8500 C   0  0  0  0  0  0  0  0  0  0  0  0
  127.4690  127.5960   72.6700 C   0  0  0  0  0  0  0  0  0  0  0  0
  127.1070  128.3970   73.7490 C   0  0  0  0  0  0  0  0  0  0  0  0
  125.4520  127.7250   74.8700 I   0  0  0  0  0  0  0  0  0  0  0  0
  127.8310  129.5730   74.0330 C   0  0  0  0  0  0  0  0  0  0  0  0
  127.4600  130.2700   75.0360 O   0  0  0  0  0  0  0  0  0  0  0  0
  128.9320  129.9420   73.2060 C   0  0  0  0  0  0  0  0  0  0  0  0
  129.7760  131.1720   73.3940 N   0  0  0  0  0  0  0  0  0  0  0  0
  130.9970  131.1270   73.2790 O   0  0  0  0  0  0  0  0  0  0  0  0
  129.2130  132.2290   73.6660 O   0  0  0  0  0  0  0  0  0  0  0  0
  129.2530  129.0940   72.1290 C   0  0  0  0  0  0  0  0  0  0  0  0
  129.2300  126.1640   68.4700 C   0  0  0  0  0  0  0  0  0  0  0  0
  129.4800  124.9990   68.7930 O   0  0  0  0  0  0  0  0  0  0  0  0
  129.2040  126.6000   67.1850 N   0  0  0  0  0  0  0  0  0  0  0  0
  131.8490  125.1120   64.9280 C   0  0  0  0  0  0  0  0  0  0  0  0
  132.5129  125.2195   62.6241 H   0  0  0  0  0  0  0  0  0  0  0  0
  134.1960  125.4108   62.0262 H   0  0  0  0  0  0  0  0  0  0  0  0
  133.4216  123.7900   62.0262 H   0  0  0  0  0  0  0  0  0  0  0  0
  135.0065  124.9703   66.2070 H   0  0  0  0  0  0  0  0  0  0  0  0
  133.7812  125.6890   68.2495 H   0  0  0  0  0  0  0  0  0  0  0  0
  131.3155  126.0304   68.1722 H   0  0  0  0  0  0  0  0  0  0  0  0
  129.1972  124.6916   66.1553 H   0  0  0  0  0  0  0  0  0  0  0  0
  129.8570  124.0550   64.7190 H   0  0  0  0  0  0  0  0  0  0  0  0
  131.7669  123.2005   63.0995 H   0  0  0  0  0  0  0  0  0  0  0  0
  132.1344  121.2594   61.5784 H   0  0  0  0  0  0  0  0  0  0  0  0
  130.1842  120.1111   60.5422 H   0  0  0  0  0  0  0  0  0  0  0  0
  127.8681  120.8956   61.0022 H   0  0  0  0  0  0  0  0  0  0  0  0
  127.4899  122.8361   62.5225 H   0  0  0  0  0  0  0  0  0  0  0  0
  127.7785  129.3604   63.8318 H   0  0  0  0  0  0  0  0  0  0  0  0
  129.1784  128.7525   62.8844 H   0  0  0  0  0  0  0  0  0  0  0  0
  127.6303  127.8414   62.8844 H   0  0  0  0  0  0  0  0  0  0  0  0
  129.0813  125.9705   71.0221 H   0  0  0  0  0  0  0  0  0  0  0  0
  126.8915  126.6836   72.4605 H   0  0  0  0  0  0  0  0  0  0  0  0
  130.0980  129.3655   71.4792 H   0  0  0  0  0  0  0  0  0  0  0  0
  131.3007  124.9461   63.9889 H   0  0  0  0  0  0  0  0  0  0  0  0
  1  2  1  0
  2  3  1  0
  3  4  2  0
  4  5  1  0
  5  6  2  0
  6  7  1  0
  7  8  1  0
  8  9  1  0
  9 10  1  0
 10 11  2  0
 10 12  1  0
 12 13  1  0
 13 14  2  0
 14 15  1  0
 15 16  2  0
 16 17  1  0
 17 18  2  0
  9 19  2  0
 19 20  1  0
 19 21  1  0
 21 22  2  0
 22 23  1  0
 23 24  1  0
 24 25  2  0
 25 26  1  0
 26 27  2  0
 27 28  1  0
 28 29  1  0
 28 30  2  0
 30 31  1  0
 30 32  1  0
 32 33  1  0
 33 34  2  0
 33 35  1  0
 32 36  2  0
 24 37  1  0
 37 38  2  0
 37 39  1  0
  7 40  2  0
 40  3  1  0
 39  8  1  0
 18 13  1  0
 39 22  1  0
 36 26  1  0
  1 41  1  0
  1 42  1  0
  1 43  1  0
  4 44  1  0
  5 45  1  0
  6 46  1  0
  8 47  1  1
 12 48  1  0
 14 49  1  0
 15 50  1  0
 16 51  1  0
 17 52  1  0
 18 53  1  0
 20 54  1  0
 20 55  1  0
 20 56  1  0
 25 57  1  0
 27 58  1  0
 36 59  1  0
 40 60  1  0
M  CHG  3  31  -1  33   1  35  -1
M  END
>  <Binding energies>  (1) 
[-7.96]

>  <Ligand effiencies>  (1) 
[-0.19414634146341464]

>  <Interactions>  (1) 
["V-B:PRO:540:CA:9855, V-A:GLU:543:CA:4904, V-A:GLY:454:CA:4049, V-B:GLU:543:C:9874, V-B:HIS:456:CD2:9039, V-A:GLU:543:C:4902, V-B:GLU:543:CB:9878, V-B:HIS:456:CB:9036, V-B:ALA:541:CB:9864, V-A:GLY:544:CA:4914, V-B:GLU:543:CG:9879, V-B:TYR:539:C:9839, V-B:LYS:547:CE:9922, V-A:GLU:543:CD:4908, V-A:TYR:484:CZ:4347, V-A:ARG:545:CG:4922, V-B:HIS:456:CE1:9041, H-A:GLY:454:N:4050, V-B:GLU:543:CA:9876, V-A:HIS:456:CE1:4070, V-B:TYR:539:CD2:9846, V-A:GLU:543:CG:4907, V-B:GLU:543:CD:9880, V-B:HIS:456:CG:9037, V-B:LYS:547:CD:9921, V-A:ARG:545:CD:4923, H-A:LYS:547:NZ:4951, H-A:ARG:545:NH2:4928, V-A:ARG:545:CZ:4926, V-A:LEU:475:CD2:4259, V-A:GLU:543:CB:4906, V-A:LYS:547:CE:4950, V-B:PRO:540:C:9853, V-B:ALA:541:CA:9862, H-A:GLY:544:N:4915"]

$$$$
ZINC408771650
     RDKit          3D

 63 67  0  0  0  0  0  0  0  0999 V2000
  127.0620  129.2500   65.2320 C   0  0  0  0  0  0  0  0  0  0  0  0
  128.0020  129.5750   66.1350 C   0  0  0  0  0  0  0  0  0  0  0  0
  128.0230  129.0950   67.5740 C   0  0  0  0  0  0  0  0  0  0  0  0
  128.6630  127.7190   67.7330 C   0  0  0  0  0  0  0  0  0  0  0  0
  129.1230  127.0490   66.5950 C   0  0  0  0  0  0  0  0  0  0  0  0
  129.7270  125.7920   66.6950 C   0  0  0  0  0  0  0  0  0  0  0  0
  130.1920  125.0640   65.4960 C   0  0  0  0  0  0  0  0  0  0  0  0
  131.4600  124.8120   65.0390 C   0  0  0  0  0  0  0  0  0  0  0  0
  131.5820  124.1850   63.7100 C   0  0  0  0  0  0  0  0  0  0  0  0
  130.6410  123.5950   63.1620 O   0  0  0  0  0  0  0  0  0  0  0  0
  132.8320  124.3160   63.1270 N   0  0  0  0  0  0  0  0  0  0  0  0
  132.9610  123.8690   61.7870 C   0  0  0  0  0  0  0  0  0  0  0  0
  133.0210  122.4990   61.5020 C   0  0  0  0  0  0  0  0  0  0  0  0
  133.1570  122.0620   60.1810 C   0  0  0  0  0  0  0  0  0  0  0  0
  133.2140  120.5770   59.8690 C   0  0  0  0  0  0  0  0  0  0  0  0
  133.2210  122.9980   59.1450 C   0  0  0  0  0  0  0  0  0  0  0  0
  133.1580  124.3670   59.4210 C   0  0  0  0  0  0  0  0  0  0  0  0
  133.2420  125.3830   58.2970 C   0  0  0  0  0  0  0  0  0  0  0  0
  133.0320  124.8010   60.7430 C   0  0  0  0  0  0  0  0  0  0  0  0
  133.9580  124.8510   63.7500 C   0  0  0  0  0  0  0  0  0  0  0  0
  134.9790  125.0440   63.0830 O   0  0  0  0  0  0  0  0  0  0  0  0
  133.8590  125.1250   65.1260 N   0  0  0  0  0  0  0  0  0  0  0  0
  132.7240  125.1420   65.7190 C   0  0  0  0  0  0  0  0  0  0  0  0
  132.7820  125.3220   66.9470 O   0  0  0  0  0  0  0  0  0  0  0  0
  129.8410  125.1940   67.9500 C   0  0  0  0  0  0  0  0  0  0  0  0
  129.3870  125.8540   69.0920 C   0  0  0  0  0  0  0  0  0  0  0  0
  128.7970  127.1260   68.9990 C   0  0  0  0  0  0  0  0  0  0  0  0
  128.3290  127.8350   70.0910 O   0  0  0  0  0  0  0  0  0  0  0  0
  128.1060  127.1630   71.3290 C   0  0  0  0  0  0  0  0  0  0  0  0
  128.1900  128.1640   72.4710 C   0  0  0  0  0  0  0  0  0  0  0  0
  127.3480  128.0240   73.5930 C   0  0  0  0  0  0  0  0  0  0  0  0
  127.4080  128.9330   74.6580 C   0  0  0  0  0  0  0  0  0  0  0  0
  128.3150  129.9820   74.5580 C   0  0  0  0  0  0  0  0  0  0  0  0
  129.1300  130.1280   73.4710 C   0  0  0  0  0  0  0  0  0  0  0  0
  129.1000  129.2340   72.4050 C   0  0  0  0  0  0  0  0  0  0  0  0
  129.9320  131.2090   73.6530 O   0  0  0  0  0  0  0  0  0  0  0  0
  129.4490  131.8530   74.8010 C   0  0  0  0  0  0  0  0  0  0  0  0
  128.5800  130.9660   75.4560 O   0  0  0  0  0  0  0  0  0  0  0  0
  127.1244  129.6442   64.2070 H   0  0  0  0  0  0  0  0  0  0  0  0
  126.2299  128.5897   65.5176 H   0  0  0  0  0  0  0  0  0  0  0  0
  128.8163  130.2378   65.8069 H   0  0  0  0  0  0  0  0  0  0  0  0
  128.5919  129.8182   68.1767 H   0  0  0  0  0  0  0  0  0  0  0  0
  126.9786  129.0134   67.9095 H   0  0  0  0  0  0  0  0  0  0  0  0
  129.0079  127.5178   65.6066 H   0  0  0  0  0  0  0  0  0  0  0  0
  129.3877  124.6568   64.8657 H   0  0  0  0  0  0  0  0  0  0  0  0
  132.9610  121.7653   62.3193 H   0  0  0  0  0  0  0  0  0  0  0  0
  133.2359  120.0055   60.8086 H   0  0  0  0  0  0  0  0  0  0  0  0
  132.3262  120.2904   59.2862 H   0  0  0  0  0  0  0  0  0  0  0  0
  134.1212  120.3593   59.2862 H   0  0  0  0  0  0  0  0  0  0  0  0
  133.3217  122.6549   58.1047 H   0  0  0  0  0  0  0  0  0  0  0  0
  133.3256  126.3941   58.7222 H   0  0  0  0  0  0  0  0  0  0  0  0
  134.1257  125.1717   57.6770 H   0  0  0  0  0  0  0  0  0  0  0  0
  132.3356  125.3197   57.6770 H   0  0  0  0  0  0  0  0  0  0  0  0
  132.9884  125.8775   60.9650 H   0  0  0  0  0  0  0  0  0  0  0  0
  130.2921  124.1948   68.0398 H   0  0  0  0  0  0  0  0  0  0  0  0
  129.4920  125.3736   70.0760 H   0  0  0  0  0  0  0  0  0  0  0  0
  127.1085  126.6995   71.3202 H   0  0  0  0  0  0  0  0  0  0  0  0
  128.8707  126.3843   71.4667 H   0  0  0  0  0  0  0  0  0  0  0  0
  126.6332  127.1888   73.6332 H   0  0  0  0  0  0  0  0  0  0  0  0
  126.7612  128.8206   75.5406 H   0  0  0  0  0  0  0  0  0  0  0  0
  129.7664  129.3602   71.5390 H   0  0  0  0  0  0  0  0  0  0  0  0
  130.2868  132.1144   75.4641 H   0  0  0  0  0  0  0  0  0  0  0  0
  128.9206  132.7787   74.5292 H   0  0  0  0  0  0  0  0  0  0  0  0
  1  2  2  0
  2  3  1  0
  3  4  1  0
  4  5  2  0
  5  6  1  0
  6  7  1  0
  7  8  2  0
  8  9  1  0
  9 10  2  0
  9 11  1  0
 11 12  1  0
 12 13  2  0
 13 14  1  0
 14 15  1  0
 14 16  2  0
 16 17  1  0
 17 18  1  0
 17 19  2  0
 11 20  1  0
 20 21  2  0
 20 22  1  0
 22 23  2  0
 23 24  1  0
  6 25  2  0
 25 26  1  0
 26 27  2  0
 27 28  1  0
 28 29  1  0
 29 30  1  0
 30 31  2  0
 31 32  1  0
 32 33  2  0
 33 34  1  0
 34 35  2  0
 34 36  1  0
 36 37  1  0
 37 38  1  0
 27  4  1  0
 35 30  1  0
 23  8  1  0
 38 33  1  0
 19 12  1  0
  1 39  1  0
  1 40  1  0
  2 41  1  0
  3 42  1  0
  3 43  1  0
  5 44  1  0
  7 45  1  0
 13 46  1  0
 15 47  1  0
 15 48  1  0
 15 49  1  0
 16 50  1  0
 18 51  1  0
 18 52  1  0
 18 53  1  0
 19 54  1  0
 25 55  1  0
 26 56  1  0
 29 57  1  0
 29 58  1  0
 31 59  1  0
 32 60  1  0
 35 61  1  0
 37 62  1  0
 37 63  1  0
M  CHG  1  24  -1
M  END
>  <Binding energies>  (1) 
[-7.1]

>  <Ligand effiencies>  (1) 
[-0.1868421052631579]

>  <Interactions>  (1) 
["V-A:ILE:369:CG2:3237, V-A:ASP:366:CA:3210, V-A:GLY:454:CA:4049, V-B:GLU:543:C:9874, V-B:HIS:456:CD2:9039, V-A:ILE:369:CB:3236, V-B:GLU:543:CB:9878, H-A:ARG:545:NH1:4927, V-A:TYR:484:CE2:4346, V-B:TYR:539:CE2:9848, V-B:GLU:543:CG:9879, V-A:ASP:366:CG:3213, V-B:TYR:539:CZ:9849, V-B:LYS:547:CE:9922, V-A:GLU:543:CD:4908, V-A:TYR:484:CZ:4347, V-B:HIS:456:CE1:9041, H-A:GLY:454:N:4050, V-B:GLU:543:CA:9876, V-A:GLY:453:C:4042, V-A:HIS:456:CE1:4070, V-B:TYR:484:CZ:9318, V-A:ASP:366:C:3208, V-B:TYR:539:CD2:9846, V-A:GLU:543:CG:4907, V-A:SER:385:CB:3409, V-B:GLU:543:CD:9880, V-B:HIS:456:CG:9037, V-A:ASP:366:CB:3212, V-A:ARG:545:CD:4923, H-A:LYS:547:NZ:4951, H-A:ARG:545:NH2:4928, V-A:ARG:545:CZ:4926, V-A:LEU:475:CD2:4259, V-A:GLU:543:CB:4906, V-A:GLY:453:CA:4044, V-A:LYS:547:CE:4950, H-A:ARG:545:NE:4924, V-A:SER:385:CA:3407, H-A:HIS:456:ND1:4067, H-A:TYR:484:OH:4348"]

$$$$
ZINC408779608
     RDKit          3D

 58 61  0  0  0  0  0  0  0  0999 V2000
  130.9530  128.1790   61.2640 C   0  0  0  0  0  0  0  0  0  0  0  0
  131.7280  127.1110   61.7960 O   0  0  0  0  0  0  0  0  0  0  0  0
  131.1080  126.1310   62.5480 C   0  0  0  0  0  0  0  0  0  0  0  0
  130.7700  126.2780   63.9040 C   0  0  0  0  0  0  0  0  0  0  0  0
  130.1330  125.2490   64.6060 C   0  0  0  0  0  0  0  0  0  0  0  0
  129.7900  125.3900   66.0370 C   0  0  0  0  0  0  0  0  0  0  0  0
  129.2410  126.4390   66.7290 C   0  0  0  0  0  0  0  0  0  0  0  0
  129.1690  126.3100   68.1950 C   0  0  0  0  0  0  0  0  0  0  0  0
  129.2560  125.2180   68.7730 O   0  0  0  0  0  0  0  0  0  0  0  0
  129.0020  127.5090   68.8670 N   0  0  0  0  0  0  0  0  0  0  0  0
  129.0670  127.4590   70.2830 C   0  0  0  0  0  0  0  0  0  0  0  0
  127.9020  127.6140   71.0460 C   0  0  0  0  0  0  0  0  0  0  0  0
  127.9610  127.5520   72.4400 C   0  0  0  0  0  0  0  0  0  0  0  0
  126.6950  127.7210   73.2590 C   0  0  0  0  0  0  0  0  0  0  0  0
  129.1910  127.3470   73.0720 C   0  0  0  0  0  0  0  0  0  0  0  0
  130.3590  127.1970   72.3200 C   0  0  0  0  0  0  0  0  0  0  0  0
  131.6860  126.9720   73.0210 C   0  0  0  0  0  0  0  0  0  0  0  0
  130.2950  127.2500   70.9240 C   0  0  0  0  0  0  0  0  0  0  0  0
  128.7720  128.7430   68.2640 C   0  0  0  0  0  0  0  0  0  0  0  0
  128.7900  129.7650   68.9580 O   0  0  0  0  0  0  0  0  0  0  0  0
  128.5120  128.7410   66.8820 N   0  0  0  0  0  0  0  0  0  0  0  0
  128.7490  127.7070   66.1650 C   0  0  0  0  0  0  0  0  0  0  0  0
  128.3960  127.8030   64.9770 O   0  0  0  0  0  0  0  0  0  0  0  0
  129.8590  124.0470   63.9520 C   0  0  0  0  0  0  0  0  0  0  0  0
  130.1910  123.8810   62.6090 C   0  0  0  0  0  0  0  0  0  0  0  0
  129.8310  122.3800   61.8300 Cl  0  0  0  0  0  0  0  0  0  0  0  0
  130.8050  124.9220   61.9040 C   0  0  0  0  0  0  0  0  0  0  0  0
  131.1290  124.7490   60.5790 O   0  0  0  0  0  0  0  0  0  0  0  0
  132.5260  124.6410   60.3280 C   0  0  0  0  0  0  0  0  0  0  0  0
  133.0140  123.2790   60.8180 C   0  0  0  0  0  0  0  0  0  0  0  0
  132.8340  122.1700   59.9810 C   0  0  0  0  0  0  0  0  0  0  0  0
  133.2560  120.9030   60.3780 C   0  0  0  0  0  0  0  0  0  0  0  0
  133.8600  120.7290   61.6190 C   0  0  0  0  0  0  0  0  0  0  0  0
  134.0440  121.8220   62.4650 C   0  0  0  0  0  0  0  0  0  0  0  0
  133.6240  123.0990   62.0770 C   0  0  0  0  0  0  0  0  0  0  0  0
  133.8360  124.2060   63.0060 C   0  0  0  0  0  0  0  0  0  0  0  0
  134.0050  125.0820   63.7430 N   0  0  0  0  0  0  0  0  0  0  0  0
  130.5255  128.7681   62.0888 H   0  0  0  0  0  0  0  0  0  0  0  0
  131.5941  128.8248   60.6460 H   0  0  0  0  0  0  0  0  0  0  0  0
  130.1402  127.7698   60.6460 H   0  0  0  0  0  0  0  0  0  0  0  0
  131.0103  127.2180   64.4223 H   0  0  0  0  0  0  0  0  0  0  0  0
  130.0127  124.5042   66.6501 H   0  0  0  0  0  0  0  0  0  0  0  0
  126.9376  127.7851   70.5453 H   0  0  0  0  0  0  0  0  0  0  0  0
  126.9439  127.6878   74.3299 H   0  0  0  0  0  0  0  0  0  0  0  0
  126.2304  128.6891   73.0204 H   0  0  0  0  0  0  0  0  0  0  0  0
  125.9928  126.9086   73.0204 H   0  0  0  0  0  0  0  0  0  0  0  0
  129.2397  127.3034   74.1701 H   0  0  0  0  0  0  0  0  0  0  0  0
  131.5343  126.9977   74.1102 H   0  0  0  0  0  0  0  0  0  0  0  0
  132.0926  125.9921   72.7305 H   0  0  0  0  0  0  0  0  0  0  0  0
  132.3929  127.7631   72.7305 H   0  0  0  0  0  0  0  0  0  0  0  0
  131.2112  127.1273   70.3278 H   0  0  0  0  0  0  0  0  0  0  0  0
  129.3773  123.2244   64.5009 H   0  0  0  0  0  0  0  0  0  0  0  0
  132.7153  124.7343   59.2484 H   0  0  0  0  0  0  0  0  0  0  0  0
  133.0625  125.4415   60.8584 H   0  0  0  0  0  0  0  0  0  0  0  0
  132.3543  122.3011   58.9998 H   0  0  0  0  0  0  0  0  0  0  0  0
  133.1117  120.0407   59.7105 H   0  0  0  0  0  0  0  0  0  0  0  0
  134.1926  119.7286   61.9331 H   0  0  0  0  0  0  0  0  0  0  0  0
  134.5230  121.6792   63.4449 H   0  0  0  0  0  0  0  0  0  0  0  0
  1  2  1  0
  2  3  1  0
  3  4  2  0
  4  5  1  0
  5  6  1  0
  6  7  2  0
  7  8  1  0
  8  9  2  0
  8 10  1  0
 10 11  1  0
 11 12  2  0
 12 13  1  0
 13 14  1  0
 13 15  2  0
 15 16  1  0
 16 17  1  0
 16 18  2  0
 10 19  1  0
 19 20  2  0
 19 21  1  0
 21 22  2  0
 22 23  1  0
  5 24  2  0
 24 25  1  0
 25 26  1  0
 25 27  2  0
 27 28  1  0
 28 29  1  0
 29 30  1  0
 30 31  2  0
 31 32  1  0
 32 33  2  0
 33 34  1  0
 34 35  2  0
 35 36  1  0
 36 37  3  0
 27  3  1  0
 35 30  1  0
 22  7  1  0
 18 11  1  0
  1 38  1  0
  1 39  1  0
  1 40  1  0
  4 41  1  0
  6 42  1  0
 12 43  1  0
 14 44  1  0
 14 45  1  0
 14 46  1  0
 15 47  1  0
 17 48  1  0
 17 49  1  0
 17 50  1  0
 18 51  1  0
 24 52  1  0
 29 53  1  0
 29 54  1  0
 31 55  1  0
 32 56  1  0
 33 57  1  0
 34 58  1  0
M  CHG  1  23  -1
M  END
>  <Binding energies>  (1) 
[-5.93]

>  <Ligand effiencies>  (1) 
[-0.16027027027027027]

>  <Interactions>  (1) 
["V-A:ILE:369:CG2:3237, V-A:GLU:543:CA:4904, V-A:GLY:454:CA:4049, V-B:HIS:456:CD2:9039, V-B:GLU:543:CB:9878, V-B:HIS:456:CB:9036, H-A:ARG:545:NH1:4927, V-B:TYR:539:CE2:9848, V-B:GLU:543:CG:9879, V-A:GLY:544:C:4912, V-A:ASP:366:CG:3213, V-A:HIS:456:CD2:4068, V-B:LYS:547:CE:9922, V-A:GLU:543:CD:4908, V-B:GLU:543:CA:9876, H-A:GLY:454:N:4050, V-A:SER:385:C:3405, V-B:HIS:456:CE1:9041, V-A:ILE:369:CD1:3239, V-A:HIS:456:CE1:4070, V-B:GLY:544:C:9884, V-B:TYR:539:CD2:9846, V-A:GLU:543:CG:4907, V-A:SER:385:CB:3409, V-B:GLU:543:CD:9880, V-B:HIS:456:CG:9037, V-A:LEU:475:CD2:4259, H-A:ARG:545:NH2:4928, V-A:GLU:543:CB:4906, V-A:HIS:456:CG:4066, H-A:ARG:545:NE:4924, V-A:SER:385:CA:3407"]

$$$$
ZINC408785013
     RDKit          3D

 52 55  0  0  0  0  0  0  0  0999 V2000
  130.6380  119.3020   60.8870 C   0  0  0  0  0  0  0  0  0  0  0  0
  130.8810  120.5610   61.5020 O   0  0  0  0  0  0  0  0  0  0  0  0
  130.1770  121.6700   61.0700 C   0  0  0  0  0  0  0  0  0  0  0  0
  130.9290  122.7990   60.7470 C   0  0  0  0  0  0  0  0  0  0  0  0
  130.3060  123.9590   60.2990 C   0  0  0  0  0  0  0  0  0  0  0  0
  128.9130  124.0220   60.1780 C   0  0  0  0  0  0  0  0  0  0  0  0
  128.2930  125.1730   59.6790 N   0  0  0  0  0  0  0  0  0  0  0  0
  128.0130  126.1690   60.4260 C   0  0  0  0  0  0  0  0  0  0  0  0
  127.4300  127.3330   60.0890 N   0  0  0  0  0  0  0  0  0  0  0  0
  127.1970  128.3090   60.9800 C   0  0  0  0  0  0  0  0  0  0  0  0
  126.6600  129.3760   60.6820 O   0  0  0  0  0  0  0  0  0  0  0  0
  127.6650  127.9060   62.2860 C   0  0  0  0  0  0  0  0  0  0  0  0
  127.5290  128.7210   63.3590 C   0  0  0  0  0  0  0  0  0  0  0  0
  127.9770  128.4730   64.7460 C   0  0  0  0  0  0  0  0  0  0  0  0
  127.6400  129.4030   65.7370 C   0  0  0  0  0  0  0  0  0  0  0  0
  128.0300  129.2040   67.0600 C   0  0  0  0  0  0  0  0  0  0  0  0
  128.7680  128.0710   67.4150 C   0  0  0  0  0  0  0  0  0  0  0  0
  129.1470  127.8670   68.7180 O   0  0  0  0  0  0  0  0  0  0  0  0
  128.3560  126.9180   69.4260 C   0  0  0  0  0  0  0  0  0  0  0  0
  128.3550  127.2820   70.9010 C   0  0  0  0  0  0  0  0  0  0  0  0
  127.2430  127.0020   71.6930 C   0  0  0  0  0  0  0  0  0  0  0  0
  127.2460  127.3420   73.0430 C   0  0  0  0  0  0  0  0  0  0  0  0
  128.3600  127.9700   73.6340 C   0  0  0  0  0  0  0  0  0  0  0  0
  128.3630  128.3400   75.1060 C   0  0  0  0  0  0  0  0  0  0  0  0
  129.2380  129.1330   75.5280 O   0  0  0  0  0  0  0  0  0  0  0  0
  127.4900  127.8430   75.8560 O   0  0  0  0  0  0  0  0  0  0  0  0
  129.4700  128.2440   72.8120 C   0  0  0  0  0  0  0  0  0  0  0  0
  129.4690  127.9040   71.4620 C   0  0  0  0  0  0  0  0  0  0  0  0
  129.1200  127.1440   66.4300 C   0  0  0  0  0  0  0  0  0  0  0  0
  130.2310  125.4360   66.9160 I   0  0  0  0  0  0  0  0  0  0  0  0
  128.7280  127.3480   65.1070 C   0  0  0  0  0  0  0  0  0  0  0  0
  128.3400  126.2750   62.1870 S   0  0  0  0  0  0  0  0  0  0  0  0
  128.1630  122.8830   60.4890 C   0  0  0  0  0  0  0  0  0  0  0  0
  128.7830  121.7190   60.9360 C   0  0  0  0  0  0  0  0  0  0  0  0
  130.4904  118.5370   61.6635 H   0  0  0  0  0  0  0  0  0  0  0  0
  129.7360  119.3678   60.2609 H   0  0  0  0  0  0  0  0  0  0  0  0
  131.4997  119.0274   60.2609 H   0  0  0  0  0  0  0  0  0  0  0  0
  132.0241  122.7719   60.8474 H   0  0  0  0  0  0  0  0  0  0  0  0
  130.9149  124.8368   60.0368 H   0  0  0  0  0  0  0  0  0  0  0  0
  127.1570  127.4820   59.1290 H   0  0  0  0  0  0  0  0  0  0  0  0
  127.0253  129.6818   63.1770 H   0  0  0  0  0  0  0  0  0  0  0  0
  127.0618  130.2994   65.4686 H   0  0  0  0  0  0  0  0  0  0  0  0
  127.7559  129.9418   67.8285 H   0  0  0  0  0  0  0  0  0  0  0  0
  127.3258  126.9349   69.0407 H   0  0  0  0  0  0  0  0  0  0  0  0
  128.7738  125.9094   69.2910 H   0  0  0  0  0  0  0  0  0  0  0  0
  126.3627  126.5122   71.2513 H   0  0  0  0  0  0  0  0  0  0  0  0
  126.3631  127.1163   73.6590 H   0  0  0  0  0  0  0  0  0  0  0  0
  130.3539  128.7356   73.2444 H   0  0  0  0  0  0  0  0  0  0  0  0
  130.3473  128.1262   70.8381 H   0  0  0  0  0  0  0  0  0  0  0  0
  129.0126  126.6155   64.3373 H   0  0  0  0  0  0  0  0  0  0  0  0
  127.0688  122.9071   60.3790 H   0  0  0  0  0  0  0  0  0  0  0  0
  128.1767  120.8355   61.1846 H   0  0  0  0  0  0  0  0  0  0  0  0
  1  2  1  0
  2  3  1  0
  3  4  2  0
  4  5  1  0
  5  6  2  0
  6  7  1  0
  7  8  2  0
  8  9  1  0
  9 10  1  0
 10 11  2  0
 10 12  1  0
 12 13  2  0
 13 14  1  0
 14 15  2  0
 15 16  1  0
 16 17  2  0
 17 18  1  0
 18 19  1  0
 19 20  1  0
 20 21  2  0
 21 22  1  0
 22 23  2  0
 23 24  1  0
 24 25  2  0
 24 26  1  0
 23 27  1  0
 27 28  2  0
 17 29  1  0
 29 30  1  0
 29 31  2  0
 12 32  1  0
  6 33  1  0
 33 34  2  0
 34  3  1  0
 32  8  1  0
 31 14  1  0
 28 20  1  0
  1 35  1  0
  1 36  1  0
  1 37  1  0
  4 38  1  0
  5 39  1  0
  9 40  1  0
 13 41  1  0
 15 42  1  0
 16 43  1  0
 19 44  1  0
 19 45  1  0
 21 46  1  0
 22 47  1  0
 27 48  1  0
 28 49  1  0
 31 50  1  0
 33 51  1  0
 34 52  1  0
M  CHG  1  26  -1
M  END
>  <Binding energies>  (1) 
[-8.88]

>  <Ligand effiencies>  (1) 
[-0.2537142857142857]

>  <Interactions>  (1) 
["V-B:PRO:540:CA:9855, V-B:GLU:543:C:9874, V-B:HIS:456:CD2:9039, V-B:GLU:543:CB:9878, H-B:LYS:547:NZ:9923, V-B:ALA:541:CB:9864, V-B:TYR:539:CE2:9848, V-B:GLU:543:CG:9879, V-B:TYR:539:C:9839, V-B:LYS:547:CE:9922, V-A:GLU:543:CD:4908, V-B:HIS:456:CE1:9041, V-B:TYR:484:CZ:9318, V-A:HIS:456:CE1:4070, V-B:GLY:544:C:9884, V-B:TYR:539:CD2:9846, V-A:GLU:543:CG:4907, V-B:GLY:544:CA:9886, V-B:GLU:543:CD:9880, V-B:HIS:456:CG:9037, H-A:LYS:547:NZ:4951, V-A:LEU:475:CD2:4259, V-A:GLU:543:CB:4906, V-B:PRO:540:C:9853"]

$$$$
ZINC408832574
     RDKit          3D

 79 82  0  0  0  0  0  0  0  0999 V2000
  130.5540  128.4790   58.2160 C   0  0  0  0  0  0  0  0  0  0  0  0
  131.1990  127.2190   58.3630 O   0  0  0  0  0  0  0  0  0  0  0  0
  131.4740  126.7370   59.6320 C   0  0  0  0  0  0  0  0  0  0  0  0
  131.0200  127.3510   60.8120 C   0  0  0  0  0  0  0  0  0  0  0  0
  131.3450  126.8240   62.0590 C   0  0  0  0  0  0  0  0  0  0  0  0
  132.1170  125.6660   62.1470 C   0  0  0  0  0  0  0  0  0  0  0  0
  132.5500  124.9770   63.7440 S   0  0  0  0  0  0  0  0  0  0  0  0
  133.8360  124.2860   63.5940 O   0  0  0  0  0  0  0  0  0  0  0  0
  132.4020  126.0600   64.7230 O   0  0  0  0  0  0  0  0  0  0  0  0
  131.3240  123.7150   64.1090 N   0  0  0  0  0  0  0  0  0  0  0  0
  130.5800  123.8260   65.3490 C   0  0  0  0  0  0  0  0  0  0  0  0
  129.9930  125.2390   65.4680 C   0  0  0  0  0  0  0  0  0  0  0  0
  130.1120  125.8630   66.5280 O   0  0  0  0  0  0  0  0  0  0  0  0
  129.4170  125.7380   64.3570 N   0  0  0  0  0  0  0  0  0  0  0  0
  129.1060  127.0410   64.2500 N   0  0  0  0  0  0  0  0  0  0  0  0
  128.3170  127.2940   63.2860 C   0  0  0  0  0  0  0  0  0  0  0  0
  127.9680  128.6600   62.8750 C   0  0  0  0  0  0  0  0  0  0  0  0
  127.6110  128.9100   61.5460 C   0  0  0  0  0  0  0  0  0  0  0  0
  127.3140  130.2010   61.1160 C   0  0  0  0  0  0  0  0  0  0  0  0
  126.8450  130.4900   59.2910 Br  0  0  0  0  0  0  0  0  0  0  0  0
  127.3710  131.2700   62.0130 C   0  0  0  0  0  0  0  0  0  0  0  0
  127.0970  132.5440   61.5760 O   0  0  0  0  0  0  0  0  0  0  0  0
  128.2460  133.3740   61.4320 C   0  0  0  0  0  0  0  0  0  0  0  0
  129.0990  132.9640   60.2300 C   0  0  0  0  0  0  0  0  0  0  0  0
  128.7300  133.3250   58.9260 C   0  0  0  0  0  0  0  0  0  0  0  0
  129.5110  132.9470   57.8350 C   0  0  0  0  0  0  0  0  0  0  0  0
  130.6720  132.2030   58.0330 C   0  0  0  0  0  0  0  0  0  0  0  0
  131.6400  131.7340   56.6830 Cl  0  0  0  0  0  0  0  0  0  0  0  0
  131.0510  131.8380   59.3240 C   0  0  0  0  0  0  0  0  0  0  0  0
  130.2720  132.2140   60.4210 C   0  0  0  0  0  0  0  0  0  0  0  0
  130.7890  131.7330   62.0000 Cl  0  0  0  0  0  0  0  0  0  0  0  0
  127.7360  131.0540   63.3480 C   0  0  0  0  0  0  0  0  0  0  0  0
  127.8090  132.1610   64.1730 O   0  0  0  0  0  0  0  0  0  0  0  0
  128.9460  132.3340   65.0120 C   0  0  0  0  0  0  0  0  0  0  0  0
  128.0180  129.7430   63.7670 C   0  0  0  0  0  0  0  0  0  0  0  0
  130.7490  123.0340   63.0180 C   0  0  0  0  0  0  0  0  0  0  0  0
  129.4340  123.2870   62.6060 C   0  0  0  0  0  0  0  0  0  0  0  0
  128.8870  122.6050   61.5160 C   0  0  0  0  0  0  0  0  0  0  0  0
  127.4590  122.8810   61.0810 C   0  0  0  0  0  0  0  0  0  0  0  0
  129.6550  121.6530   60.8400 C   0  0  0  0  0  0  0  0  0  0  0  0
  130.9650  121.3890   61.2430 C   0  0  0  0  0  0  0  0  0  0  0  0
  131.8060  120.3670   60.5010 C   0  0  0  0  0  0  0  0  0  0  0  0
  131.5080  122.0850   62.3260 C   0  0  0  0  0  0  0  0  0  0  0  0
  132.5560  125.0370   60.9820 C   0  0  0  0  0  0  0  0  0  0  0  0
  132.2570  125.5750   59.7180 C   0  0  0  0  0  0  0  0  0  0  0  0
  132.7020  125.0270   58.5280 O   0  0  0  0  0  0  0  0  0  0  0  0
  133.9140  124.2800   58.5140 C   0  0  0  0  0  0  0  0  0  0  0  0
  130.3390  128.8990   59.2097 H   0  0  0  0  0  0  0  0  0  0  0  0
  131.2117  129.1652   57.6624 H   0  0  0  0  0  0  0  0  0  0  0  0
  129.6127  128.3467   57.6624 H   0  0  0  0  0  0  0  0  0  0  0  0
  130.4009  128.2581   60.7496 H   0  0  0  0  0  0  0  0  0  0  0  0
  130.9928  127.3211   62.9749 H   0  0  0  0  0  0  0  0  0  0  0  0
  129.7641  123.0882   65.3545 H   0  0  0  0  0  0  0  0  0  0  0  0
  131.2522  123.6352   66.1985 H   0  0  0  0  0  0  0  0  0  0  0  0
  129.3180  125.1920   63.5140 H   0  0  0  0  0  0  0  0  0  0  0  0
  127.8754  126.4510   62.7343 H   0  0  0  0  0  0  0  0  0  0  0  0
  127.5642  128.0757   60.8307 H   0  0  0  0  0  0  0  0  0  0  0  0
  127.9179  134.4152   61.2966 H   0  0  0  0  0  0  0  0  0  0  0  0
  128.8600  133.2663   62.3383 H   0  0  0  0  0  0  0  0  0  0  0  0
  127.8146  133.9126   58.7624 H   0  0  0  0  0  0  0  0  0  0  0  0
  129.2104  133.2363   56.8172 H   0  0  0  0  0  0  0  0  0  0  0  0
  131.9681  131.2509   59.4797 H   0  0  0  0  0  0  0  0  0  0  0  0
  128.6346  132.2866   66.0659 H   0  0  0  0  0  0  0  0  0  0  0  0
  129.6761  131.5366   64.8092 H   0  0  0  0  0  0  0  0  0  0  0  0
  129.4059  133.3125   64.8092 H   0  0  0  0  0  0  0  0  0  0  0  0
  128.2842  129.5608   64.8186 H   0  0  0  0  0  0  0  0  0  0  0  0
  128.8269  124.0290   63.1453 H   0  0  0  0  0  0  0  0  0  0  0  0
  126.8223  123.0041   61.9695 H   0  0  0  0  0  0  0  0  0  0  0  0
  127.4304  123.8013   60.4791 H   0  0  0  0  0  0  0  0  0  0  0  0
  127.0895  122.0376   60.4791 H   0  0  0  0  0  0  0  0  0  0  0  0
  129.2250  121.1090   59.9861 H   0  0  0  0  0  0  0  0  0  0  0  0
  132.3315  119.7284   61.2263 H   0  0  0  0  0  0  0  0  0  0  0  0
  131.1546  119.7451   59.8694 H   0  0  0  0  0  0  0  0  0  0  0  0
  132.5416  120.8865   59.8694 H   0  0  0  0  0  0  0  0  0  0  0  0
  132.5437  121.8843   62.6377 H   0  0  0  0  0  0  0  0  0  0  0  0
  133.1429  124.1094   61.0531 H   0  0  0  0  0  0  0  0  0  0  0  0
  134.2348  124.0823   59.5474 H   0  0  0  0  0  0  0  0  0  0  0  0
  133.7505  123.3257   57.9919 H   0  0  0  0  0  0  0  0  0  0  0  0
  134.6930  124.8549   57.9919 H   0  0  0  0  0  0  0  0  0  0  0  0
  1  2  1  0
  2  3  1  0
  3  4  2  0
  4  5  1  0
  5  6  2  0
  6  7  1  0
  7  8  2  0
  7  9  2  0
  7 10  1  0
 10 11  1  0
 11 12  1  0
 12 13  2  0
 12 14  1  0
 14 15  1  0
 15 16  2  0
 16 17  1  0
 17 18  2  0
 18 19  1  0
 19 20  1  0
 19 21  2  0
 21 22  1  0
 22 23  1  0
 23 24  1  0
 24 25  2  0
 25 26  1  0
 26 27  2  0
 27 28  1  0
 27 29  1  0
 29 30  2  0
 30 31  1  0
 21 32  1  0
 32 33  1  0
 33 34  1  0
 32 35  2  0
 10 36  1  0
 36 37  2  0
 37 38  1  0
 38 39  1  0
 38 40  2  0
 40 41  1  0
 41 42  1  0
 41 43  2  0
  6 44  1  0
 44 45  2  0
 45 46  1  0
 46 47  1  0
 45  3  1  0
 35 17  1  0
 43 36  1  0
 30 24  1  0
  1 48  1  0
  1 49  1  0
  1 50  1  0
  4 51  1  0
  5 52  1  0
 11 53  1  0
 11 54  1  0
 14 55  1  0
 16 56  1  0
 18 57  1  0
 23 58  1  0
 23 59  1  0
 25 60  1  0
 26 61  1  0
 29 62  1  0
 34 63  1  0
 34 64  1  0
 34 65  1  0
 35 66  1  0
 37 67  1  0
 39 68  1  0
 39 69  1  0
 39 70  1  0
 40 71  1  0
 42 72  1  0
 42 73  1  0
 42 74  1  0
 43 75  1  0
 44 76  1  0
 47 77  1  0
 47 78  1  0
 47 79  1  0
M  END
>  <Binding energies>  (1) 
[-8.73]

>  <Ligand effiencies>  (1) 
[-0.181875]

>  <Interactions>  (1) 
["V-A:ILE:369:CG2:3237, V-A:ASP:366:CA:3210, V-B:PRO:540:CA:9855, V-A:ILE:369:CB:3236, H-A:TYR:531:OH:4795, V-A:TYR:484:CE2:4346, V-B:TYR:539:CE2:9848, V-B:GLU:543:CG:9879, V-A:ASP:366:CG:3213, V-A:TYR:539:CD1:4873, V-B:TYR:484:CE2:9317, V-A:LEU:363:CD1:3189, H-B:GLU:543:OE1:9881, H-B:TYR:539:OH:9850, V-A:ALA:541:CB:4892, V-A:TYR:484:CZ:4347, V-B:PRO:540:CB:9857, V-A:GLU:543:CD:4908, H-B:TYR:484:OH:9319, H-A:GLY:454:N:4050, V-B:TYR:484:CZ:9318, V-A:ASP:366:C:3208, V-B:TYR:539:CD2:9846, V-A:GLU:543:CG:4907, V-B:GLU:543:CD:9880, V-A:TYR:539:C:4867, V-A:ASP:366:CB:3212, V-A:LEU:475:CD2:4259, H-A:ARG:545:NH2:4928, V-A:ARG:545:CZ:4926, V-A:PRO:540:N:4884, V-A:TYR:539:CG:4872, V-A:PRO:540:CB:4885, V-A:PRO:540:CA:4883, H-A:ARG:545:NE:4924, V-B:PRO:540:C:9853, V-A:TYR:539:CE1:4875"]

$$$$
ZINC408835031
     RDKit          3D

 60 62  0  0  0  0  0  0  0  0999 V2000
  129.8270  120.9620   61.5290 C   0  0  0  0  0  0  0  0  0  0  0  0
  129.1030  122.2270   61.0610 C   0  0  0  0  0  0  0  0  0  0  0  0
  130.0680  123.2530   60.8540 O   0  0  0  0  0  0  0  0  0  0  0  0
  130.0360  124.3910   61.6400 C   0  0  0  0  0  0  0  0  0  0  0  0
  129.7810  124.3870   63.0230 C   0  0  0  0  0  0  0  0  0  0  0  0
  129.7650  125.5740   63.7620 C   0  0  0  0  0  0  0  0  0  0  0  0
  129.4880  125.5080   65.2130 C   0  0  0  0  0  0  0  0  0  0  0  0
  130.3850  125.4730   66.2300 C   0  0  0  0  0  0  0  0  0  0  0  0
  131.8000  125.4280   65.9900 C   0  0  0  0  0  0  0  0  0  0  0  0
  132.9450  125.3820   65.8200 N   0  0  0  0  0  0  0  0  0  0  0  0
  129.9170  125.4670   67.6140 C   0  0  0  0  0  0  0  0  0  0  0  0
  129.5430  124.4340   68.1760 O   0  0  0  0  0  0  0  0  0  0  0  0
  129.9160  126.6830   68.2100 N   0  0  0  0  0  0  0  0  0  0  0  0
  129.5340  127.0540   69.5180 C   0  0  0  0  0  0  0  0  0  0  0  0
  130.4540  127.3680   70.5330 C   0  0  0  0  0  0  0  0  0  0  0  0
  130.0230  127.7300   71.8190 C   0  0  0  0  0  0  0  0  0  0  0  0
  130.8780  128.0420   72.8620 O   0  0  0  0  0  0  0  0  0  0  0  0
  131.4560  126.9940   73.6340 C   0  0  0  0  0  0  0  0  0  0  0  0
  128.6500  127.7840   72.0740 C   0  0  0  0  0  0  0  0  0  0  0  0
  128.0610  128.2190   73.6400 Cl  0  0  0  0  0  0  0  0  0  0  0  0
  127.7310  127.4910   71.0690 C   0  0  0  0  0  0  0  0  0  0  0  0
  128.1560  127.1280   69.7810 C   0  0  0  0  0  0  0  0  0  0  0  0
  127.2800  126.8300   68.7480 O   0  0  0  0  0  0  0  0  0  0  0  0
  127.1440  127.7330   67.6550 C   0  0  0  0  0  0  0  0  0  0  0  0
  129.9960  126.7840   63.0990 C   0  0  0  0  0  0  0  0  0  0  0  0
  130.2460  126.8090   61.7290 C   0  0  0  0  0  0  0  0  0  0  0  0
  130.5710  128.6520   60.7870 I   0  0  0  0  0  0  0  0  0  0  0  0
  130.2730  125.6160   61.0010 C   0  0  0  0  0  0  0  0  0  0  0  0
  130.5080  125.6510   59.6480 O   0  0  0  0  0  0  0  0  0  0  0  0
  131.8870  125.6270   59.2880 C   0  0  0  0  0  0  0  0  0  0  0  0
  132.6590  124.6680   60.1850 C   0  0  0  0  0  0  0  0  0  0  0  0
  132.7940  123.3300   59.8040 C   0  0  0  0  0  0  0  0  0  0  0  0
  133.4850  122.4390   60.6210 C   0  0  0  0  0  0  0  0  0  0  0  0
  134.0370  122.8840   61.8190 C   0  0  0  0  0  0  0  0  0  0  0  0
  134.7070  122.0180   62.6130 F   0  0  0  0  0  0  0  0  0  0  0  0
  133.9020  124.2150   62.2100 C   0  0  0  0  0  0  0  0  0  0  0  0
  133.2100  125.1080   61.3940 C   0  0  0  0  0  0  0  0  0  0  0  0
  129.8429  120.9342   62.6285 H   0  0  0  0  0  0  0  0  0  0  0  0
  129.2997  120.0753   61.1474 H   0  0  0  0  0  0  0  0  0  0  0  0
  130.8587  120.9676   61.1474 H   0  0  0  0  0  0  0  0  0  0  0  0
  128.5715  122.0229   60.1198 H   0  0  0  0  0  0  0  0  0  0  0  0
  128.3737  122.5451   61.8206 H   0  0  0  0  0  0  0  0  0  0  0  0
  129.5904  123.4314   63.5334 H   0  0  0  0  0  0  0  0  0  0  0  0
  128.4270  125.4845   65.5025 H   0  0  0  0  0  0  0  0  0  0  0  0
  130.1630  127.4660   67.6200 H   0  0  0  0  0  0  0  0  0  0  0  0
  131.5316  127.3294   70.3157 H   0  0  0  0  0  0  0  0  0  0  0  0
  131.3333  127.2164   74.7043 H   0  0  0  0  0  0  0  0  0  0  0  0
  130.9541  126.0443   73.3970 H   0  0  0  0  0  0  0  0  0  0  0  0
  132.5270  126.9118   73.3970 H   0  0  0  0  0  0  0  0  0  0  0  0
  126.6544  127.5449   71.2881 H   0  0  0  0  0  0  0  0  0  0  0  0
  126.9905  128.7525   68.0386 H   0  0  0  0  0  0  0  0  0  0  0  0
  128.0564  127.7057   67.0411 H   0  0  0  0  0  0  0  0  0  0  0  0
  126.2801  127.4382   67.0411 H   0  0  0  0  0  0  0  0  0  0  0  0
  129.9800  127.7264   63.6661 H   0  0  0  0  0  0  0  0  0  0  0  0
  131.9819  125.2993   58.2422 H   0  0  0  0  0  0  0  0  0  0  0  0
  132.3027  126.6382   59.4093 H   0  0  0  0  0  0  0  0  0  0  0  0
  132.3541  122.9807   58.8582 H   0  0  0  0  0  0  0  0  0  0  0  0
  133.5944  121.3865   60.3206 H   0  0  0  0  0  0  0  0  0  0  0  0
  134.3398  124.5591   63.1586 H   0  0  0  0  0  0  0  0  0  0  0  0
  133.0969  126.1585   61.7001 H   0  0  0  0  0  0  0  0  0  0  0  0
  1  2  1  0
  2  3  1  0
  3  4  1  0
  4  5  2  0
  5  6  1  0
  6  7  1  0
  7  8  2  0
  8  9  1  0
  9 10  3  0
  8 11  1  0
 11 12  2  0
 11 13  1  0
 13 14  1  0
 14 15  2  0
 15 16  1  0
 16 17  1  0
 17 18  1  0
 16 19  2  0
 19 20  1  0
 19 21  1  0
 21 22  2  0
 22 23  1  0
 23 24  1  0
  6 25  2  0
 25 26  1  0
 26 27  1  0
 26 28  2  0
 28 29  1  0
 29 30  1  0
 30 31  1  0
 31 32  2  0
 32 33  1  0
 33 34  2  0
 34 35  1  0
 34 36  1  0
 36 37  2  0
 28  4  1  0
 37 31  1  0
 22 14  1  0
  1 38  1  0
  1 39  1  0
  1 40  1  0
  2 41  1  0
  2 42  1  0
  5 43  1  0
  7 44  1  0
 13 45  1  0
 15 46  1  0
 18 47  1  0
 18 48  1  0
 18 49  1  0
 21 50  1  0
 24 51  1  0
 24 52  1  0
 24 53  1  0
 25 54  1  0
 30 55  1  0
 30 56  1  0
 32 57  1  0
 33 58  1  0
 36 59  1  0
 37 60  1  0
M  END
>  <Binding energies>  (1) 
[-7.04]

>  <Ligand effiencies>  (1) 
[-0.18526315789473685]

>  <Interactions>  (1) 
["V-A:ILE:369:CG2:3237, V-B:PRO:540:CA:9855, V-A:GLY:454:CA:4049, V-B:GLU:543:C:9874, H-A:GLU:543:OE2:4910, V-B:HIS:456:CD2:9039, V-B:GLU:543:CB:9878, V-B:ALA:541:CB:9864, V-B:TYR:539:CE2:9848, V-B:GLU:543:CG:9879, V-A:ASP:366:CG:3213, V-A:HIS:456:CD2:4068, V-A:GLU:543:CD:4908, V-B:GLU:543:CA:9876, V-B:HIS:456:CE1:9041, V-A:SER:385:C:3405, V-A:GLY:453:C:4042, V-A:ILE:369:CD1:3239, V-A:HIS:456:CE1:4070, V-B:TYR:539:CD2:9846, V-B:GLU:543:CD:9880, V-B:HIS:456:CG:9037, V-A:ASP:366:CB:3212, H-A:LYS:547:NZ:4951, H-A:ARG:545:NH2:4928, V-A:LEU:475:CD2:4259, V-A:HIS:456:CG:4066, H-A:ARG:545:NE:4924, H-A:TYR:484:OH:4348"]

$$$$
ZINC408838554
     RDKit          3D

 73 77  0  0  0  0  0  0  0  0999 V2000
  131.7430  126.8950   58.9690 C   0  0  0  0  0  0  0  0  0  0  0  0
  132.1150  125.5350   58.7760 O   0  0  0  0  0  0  0  0  0  0  0  0
  132.0330  124.6470   59.8340 C   0  0  0  0  0  0  0  0  0  0  0  0
  131.2540  124.8630   60.9810 C   0  0  0  0  0  0  0  0  0  0  0  0
  131.2040  123.9200   62.0210 C   0  0  0  0  0  0  0  0  0  0  0  0
  130.3620  124.1420   63.2640 C   0  0  0  0  0  0  0  0  0  0  0  0
  129.5540  123.2840   63.6220 O   0  0  0  0  0  0  0  0  0  0  0  0
  130.5610  125.3190   63.9010 N   0  0  0  0  0  0  0  0  0  0  0  0
  129.9450  125.8500   65.0500 C   0  0  0  0  0  0  0  0  0  0  0  0
  130.1940  125.1620   66.2370 C   0  0  0  0  0  0  0  0  0  0  0  0
  129.6420  125.6000   67.4370 C   0  0  0  0  0  0  0  0  0  0  0  0
  128.8230  126.7400   67.4720 C   0  0  0  0  0  0  0  0  0  0  0  0
  128.2160  127.2390   68.7670 C   0  0  0  0  0  0  0  0  0  0  0  0
  127.0510  127.6490   68.7950 O   0  0  0  0  0  0  0  0  0  0  0  0
  129.0140  127.1850   69.8550 N   0  0  0  0  0  0  0  0  0  0  0  0
  128.6300  127.6270   71.0670 N   0  0  0  0  0  0  0  0  0  0  0  0
  129.5550  128.2560   71.6750 C   0  0  0  0  0  0  0  0  0  0  0  0
  129.3940  128.8680   73.0080 C   0  0  0  0  0  0  0  0  0  0  0  0
  129.4680  130.2630   73.1650 C   0  0  0  0  0  0  0  0  0  0  0  0
  129.3180  130.8580   74.4160 C   0  0  0  0  0  0  0  0  0  0  0  0
  129.4260  132.7500   74.5890 Br  0  0  0  0  0  0  0  0  0  0  0  0
  129.0880  130.0680   75.5390 C   0  0  0  0  0  0  0  0  0  0  0  0
  129.0110  128.6860   75.4080 C   0  0  0  0  0  0  0  0  0  0  0  0
  129.1730  128.0760   74.1580 C   0  0  0  0  0  0  0  0  0  0  0  0
  129.0580  126.7020   74.0840 O   0  0  0  0  0  0  0  0  0  0  0  0
  130.1830  125.9180   74.0770 C   0  0  0  0  0  0  0  0  0  0  0  0
  131.3380  126.3500   74.1260 O   0  0  0  0  0  0  0  0  0  0  0  0
  129.8680  124.4800   73.9960 C   0  0  0  0  0  0  0  0  0  0  0  0
  128.6110  123.9030   72.9010 S   0  0  0  0  0  0  0  0  0  0  0  0
  128.8740  122.2440   73.3990 C   0  0  0  0  0  0  0  0  0  0  0  0
  128.1910  121.1120   72.9320 C   0  0  0  0  0  0  0  0  0  0  0  0
  128.5290  119.8520   73.4410 C   0  0  0  0  0  0  0  0  0  0  0  0
  127.8200  118.6370   72.9680 N   0  0  0  0  0  0  0  0  0  0  0  0
  127.5690  118.5320   71.7710 O   0  0  0  0  0  0  0  0  0  0  0  0
  127.5070  117.7800   73.7900 O   0  0  0  0  0  0  0  0  0  0  0  0
  129.5420  119.7530   74.4010 C   0  0  0  0  0  0  0  0  0  0  0  0
  130.2260  120.8740   74.8690 C   0  0  0  0  0  0  0  0  0  0  0  0
  129.9010  122.1500   74.3760 C   0  0  0  0  0  0  0  0  0  0  0  0
  130.4510  123.4290   74.7000 C   0  0  0  0  0  0  0  0  0  0  0  0
  131.7160  123.5680   75.8690 Cl  0  0  0  0  0  0  0  0  0  0  0  0
  128.5810  127.4310   66.2770 C   0  0  0  0  0  0  0  0  0  0  0  0
  129.1340  126.9950   65.0750 C   0  0  0  0  0  0  0  0  0  0  0  0
  131.9610  122.7480   61.8910 C   0  0  0  0  0  0  0  0  0  0  0  0
  132.7480  122.5060   60.7530 C   0  0  0  0  0  0  0  0  0  0  0  0
  133.5070  121.3650   60.5660 O   0  0  0  0  0  0  0  0  0  0  0  0
  132.9270  120.2370   59.9180 C   0  0  0  0  0  0  0  0  0  0  0  0
  132.7790  123.4670   59.7350 C   0  0  0  0  0  0  0  0  0  0  0  0
  133.5350  123.2360   58.6110 O   0  0  0  0  0  0  0  0  0  0  0  0
  134.4230  124.2960   58.2830 C   0  0  0  0  0  0  0  0  0  0  0  0
  131.6843  127.1097   60.0462 H   0  0  0  0  0  0  0  0  0  0  0  0
  132.4949  127.5502   58.5050 H   0  0  0  0  0  0  0  0  0  0  0  0
  130.7623  127.0763   58.5050 H   0  0  0  0  0  0  0  0  0  0  0  0
  130.6698  125.7910   61.0676 H   0  0  0  0  0  0  0  0  0  0  0  0
  131.2690  125.9180   63.5030 H   0  0  0  0  0  0  0  0  0  0  0  0
  130.8318  124.2659   66.2248 H   0  0  0  0  0  0  0  0  0  0  0  0
  129.8490  125.0485   68.3660 H   0  0  0  0  0  0  0  0  0  0  0  0
  129.9530  126.8200   69.8020 H   0  0  0  0  0  0  0  0  0  0  0  0
  130.5316  128.3487   71.1774 H   0  0  0  0  0  0  0  0  0  0  0  0
  129.6476  130.8966   72.2839 H   0  0  0  0  0  0  0  0  0  0  0  0
  128.9675  130.5359   76.5272 H   0  0  0  0  0  0  0  0  0  0  0  0
  128.8208  128.0651   76.2958 H   0  0  0  0  0  0  0  0  0  0  0  0
  127.3993  121.2125   72.1750 H   0  0  0  0  0  0  0  0  0  0  0  0
  129.8064  118.7618   74.7980 H   0  0  0  0  0  0  0  0  0  0  0  0
  131.0189  120.7604   75.6229 H   0  0  0  0  0  0  0  0  0  0  0  0
  127.9462  128.3293   66.2883 H   0  0  0  0  0  0  0  0  0  0  0  0
  128.9349  127.5483   64.1454 H   0  0  0  0  0  0  0  0  0  0  0  0
  131.9384  122.0009   62.6981 H   0  0  0  0  0  0  0  0  0  0  0  0
  132.5619  119.5270   60.6747 H   0  0  0  0  0  0  0  0  0  0  0  0
  132.0868  120.5671   59.2894 H   0  0  0  0  0  0  0  0  0  0  0  0
  133.6843  119.7457   59.2894 H   0  0  0  0  0  0  0  0  0  0  0  0
  134.8058  124.7530   59.2075 H   0  0  0  0  0  0  0  0  0  0  0  0
  135.2637  123.9010   57.6938 H   0  0  0  0  0  0  0  0  0  0  0  0
  133.8868  125.0545   57.6938 H   0  0  0  0  0  0  0  0  0  0  0  0
  1  2  1  0
  2  3  1  0
  3  4  2  0
  4  5  1  0
  5  6  1  0
  6  7  2  0
  6  8  1  0
  8  9  1  0
  9 10  2  0
 10 11  1  0
 11 12  2  0
 12 13  1  0
 13 14  2  0
 13 15  1  0
 15 16  1  0
 16 17  2  0
 17 18  1  0
 18 19  2  0
 19 20  1  0
 20 21  1  0
 20 22  2  0
 22 23  1  0
 23 24  2  0
 24 25  1  0
 25 26  1  0
 26 27  2  0
 26 28  1  0
 28 29  1  0
 29 30  1  0
 30 31  2  0
 31 32  1  0
 32 33  1  0
 33 34  2  0
 33 35  1  0
 32 36  2  0
 36 37  1  0
 37 38  2  0
 38 39  1  0
 39 40  1  0
 12 41  1  0
 41 42  2  0
  5 43  2  0
 43 44  1  0
 44 45  1  0
 45 46  1  0
 44 47  2  0
 47 48  1  0
 48 49  1  0
 47  3  1  0
 42  9  1  0
 24 18  1  0
 39 28  2  0
 38 30  1  0
  1 50  1  0
  1 51  1  0
  1 52  1  0
  4 53  1  0
  8 54  1  0
 10 55  1  0
 11 56  1  0
 15 57  1  0
 17 58  1  0
 19 59  1  0
 22 60  1  0
 23 61  1  0
 31 62  1  0
 36 63  1  0
 37 64  1  0
 41 65  1  0
 42 66  1  0
 43 67  1  0
 46 68  1  0
 46 69  1  0
 46 70  1  0
 49 71  1  0
 49 72  1  0
 49 73  1  0
M  CHG  2  33   1  35  -1
M  END
>  <Binding energies>  (1) 
[-5.62]

>  <Ligand effiencies>  (1) 
[-0.11019607843137255]

>  <Interactions>  (1) 
["V-A:ILE:369:CG2:3237, V-A:ASP:366:CA:3210, V-B:HIS:456:CD2:9039, H-A:GLU:543:OE2:4910, H-B:GLU:543:O:9875, V-A:ILE:369:CB:3236, V-B:GLU:543:C:9874, V-B:GLU:543:CB:9878, H-B:LYS:547:NZ:9923, V-B:TYR:539:CE2:9848, V-B:GLU:543:CG:9879, V-A:ASP:366:CG:3213, V-A:HIS:456:CD2:4068, H-B:HIS:456:ND1:9038, H-B:TYR:539:OH:9850, V-B:LYS:547:CE:9922, V-A:ASP:473:CG:4240, V-A:TYR:484:CA:4339, V-A:GLU:543:CD:4908, V-B:HIS:456:CE1:9041, V-B:GLU:543:CA:9876, V-A:HIS:456:CE1:4070, V-A:ASP:366:C:3208, V-B:TYR:539:CD2:9846, V-B:GLY:544:CA:9886, V-A:SER:385:CB:3409, H-A:SER:385:OG:3410, H-A:TYR:484:N:4340, V-B:GLU:543:CD:9880, V-A:ASP:366:CB:3212, H-A:LYS:547:NZ:4951, V-A:LEU:475:CD2:4259, H-A:GLU:543:OE1:4909, V-A:TYR:484:CB:4341, V-A:LYS:547:CE:4950, V-A:SER:385:CA:3407, V-A:TYR:484:C:4337, H-A:SER:483:OG:4334, H-A:HIS:456:NE2:4071"]

$$$$
ZINC408848536-again1
     RDKit          3D

 36 38  0  0  0  0  0  0  0  0999 V2000
  134.9020  124.6350   62.3880 C   0  0  0  0  0  0  0  0  0  0  0  0
  133.5260  124.0920   62.7300 C   0  0  0  0  0  0  0  0  0  0  0  0
  132.9020  123.1860   61.8700 C   0  0  0  0  0  0  0  0  0  0  0  0
  131.6420  122.6780   62.1830 C   0  0  0  0  0  0  0  0  0  0  0  0
  130.9990  123.0760   63.3540 C   0  0  0  0  0  0  0  0  0  0  0  0
  131.6060  123.9940   64.2160 C   0  0  0  0  0  0  0  0  0  0  0  0
  130.9180  124.3790   65.4660 C   0  0  0  0  0  0  0  0  0  0  0  0
  130.0620  125.4160   65.7400 C   0  0  0  0  0  0  0  0  0  0  0  0
  129.6520  125.5930   67.1510 C   0  0  0  0  0  0  0  0  0  0  0  0
  129.8540  124.7170   68.0050 O   0  0  0  0  0  0  0  0  0  0  0  0
  129.0210  126.7970   67.4550 N   0  0  0  0  0  0  0  0  0  0  0  0
  128.7370  127.0100   68.8360 C   0  0  0  0  0  0  0  0  0  0  0  0
  127.4350  126.7740   69.3010 C   0  0  0  0  0  0  0  0  0  0  0  0
  127.1220  126.9720   70.6440 C   0  0  0  0  0  0  0  0  0  0  0  0
  128.1050  127.4020   71.5320 C   0  0  0  0  0  0  0  0  0  0  0  0
  129.4080  127.6350   71.0860 C   0  0  0  0  0  0  0  0  0  0  0  0
  130.5900  128.1650   72.2320 Cl  0  0  0  0  0  0  0  0  0  0  0  0
  129.7340  127.4390   69.7350 C   0  0  0  0  0  0  0  0  0  0  0  0
  131.3560  127.7240   69.1850 Cl  0  0  0  0  0  0  0  0  0  0  0  0
  128.6650  127.7420   66.4790 C   0  0  0  0  0  0  0  0  0  0  0  0
  127.9230  129.2170   66.7840 S   0  0  0  0  0  0  0  0  0  0  0  0
  128.9080  127.4440   65.1430 N   0  0  0  0  0  0  0  0  0  0  0  0
  129.5340  126.3950   64.7720 C   0  0  0  0  0  0  0  0  0  0  0  0
  129.5790  126.2160   63.5440 O   0  0  0  0  0  0  0  0  0  0  0  0
  132.8780  124.4880   63.9040 C   0  0  0  0  0  0  0  0  0  0  0  0
  135.4516  124.8519   63.3158 H   0  0  0  0  0  0  0  0  0  0  0  0
  135.4553  123.8878   61.8002 H   0  0  0  0  0  0  0  0  0  0  0  0
  134.7960  125.5587   61.8002 H   0  0  0  0  0  0  0  0  0  0  0  0
  133.4056  122.8725   60.9437 H   0  0  0  0  0  0  0  0  0  0  0  0
  131.1545  121.9621   61.5049 H   0  0  0  0  0  0  0  0  0  0  0  0
  130.0088  122.6656   63.6011 H   0  0  0  0  0  0  0  0  0  0  0  0
  131.1279  123.7222   66.3231 H   0  0  0  0  0  0  0  0  0  0  0  0
  126.6577  126.4311   68.6023 H   0  0  0  0  0  0  0  0  0  0  0  0
  126.0985  126.7887   71.0030 H   0  0  0  0  0  0  0  0  0  0  0  0
  127.8536  127.5591   72.5913 H   0  0  0  0  0  0  0  0  0  0  0  0
  133.3719  125.1937   64.5882 H   0  0  0  0  0  0  0  0  0  0  0  0
  1  2  1  0
  2  3  2  0
  3  4  1  0
  4  5  2  0
  5  6  1  0
  6  7  1  0
  7  8  2  0
  8  9  1  0
  9 10  2  0
  9 11  1  0
 11 12  1  0
 12 13  2  0
 13 14  1  0
 14 15  2  0
 15 16  1  0
 16 17  1  0
 16 18  2  0
 18 19  1  0
 11 20  1  0
 20 21  2  0
 20 22  1  0
 22 23  2  0
 23 24  1  0
  6 25  2  0
 25  2  1  0
 23  8  1  0
 18 12  1  0
  1 26  1  0
  1 27  1  0
  1 28  1  0
  3 29  1  0
  4 30  1  0
  5 31  1  0
  7 32  1  0
 13 33  1  0
 14 34  1  0
 15 35  1  0
 25 36  1  0
M  CHG  1  24  -1
M  END
>  <Binding energies>  (1) 
[-6.6]

>  <Ligand effiencies>  (1) 
[-0.264]

>  <Interactions>  (1) 
["V-B:GLU:543:C:9874, V-B:HIS:456:CD2:9039, V-A:GLU:543:C:4902, V-B:GLU:543:CB:9878, V-A:TYR:484:CE2:4346, V-B:GLU:543:CG:9879, V-A:GLY:544:C:4912, V-A:ASP:366:CG:3213, V-A:TYR:484:CZ:4347, V-A:GLU:543:CD:4908, V-B:HIS:456:CE1:9041, V-B:GLU:543:CA:9876, V-A:ARG:545:CG:4922, V-A:GLY:453:C:4042, V-B:TYR:484:CZ:9318, V-A:HIS:456:CE1:4070, V-A:ILE:369:CD1:3239, V-B:GLY:544:C:9884, V-B:GLY:544:CA:9886, V-A:GLU:543:CG:4907, V-B:GLU:543:CD:9880, V-A:LEU:475:CD2:4259, V-A:ARG:545:CZ:4926, V-A:GLU:543:CB:4906, V-A:GLY:453:CA:4044, H-A:TYR:484:OH:4348"]

$$$$
ZINC408852201
     RDKit          3D

 63 66  0  0  0  0  0  0  0  0999 V2000
  130.7820  128.1290   69.9210 C   0  0  0  0  0  0  0  0  0  0  0  0
  129.4690  128.1400   69.6340 C   0  0  0  0  0  0  0  0  0  0  0  0
  128.7410  127.1540   68.7360 C   0  0  0  0  0  0  0  0  0  0  0  0
  129.5930  126.0920   68.3120 O   0  0  0  0  0  0  0  0  0  0  0  0
  129.6780  125.7840   66.9680 C   0  0  0  0  0  0  0  0  0  0  0  0
  129.1400  126.7170   66.0810 C   0  0  0  0  0  0  0  0  0  0  0  0
  129.1760  126.4910   64.7090 C   0  0  0  0  0  0  0  0  0  0  0  0
  129.7570  125.3240   64.2040 C   0  0  0  0  0  0  0  0  0  0  0  0
  129.8010  125.0490   62.6880 C   0  0  1  0  0  0  0  0  0  0  0  0
  128.8090  123.9220   62.2670 C   0  0  0  0  0  0  0  0  0  0  0  0
  129.1700  122.5260   62.6330 C   0  0  0  0  0  0  0  0  0  0  0  0
  129.1790  122.0970   63.7890 O   0  0  0  0  0  0  0  0  0  0  0  0
  129.4510  121.7440   61.5610 O   0  0  0  0  0  0  0  0  0  0  0  0
  130.7420  121.7290   60.9690 C   0  0  0  0  0  0  0  0  0  0  0  0
  131.2250  120.2790   60.8630 C   0  0  0  0  0  0  0  0  0  0  0  0
  127.6320  124.2650   61.6540 C   0  0  0  0  0  0  0  0  0  0  0  0
  126.4640  123.3500   61.2860 C   0  0  0  0  0  0  0  0  0  0  0  0
  127.3400  125.5500   61.2860 N   0  0  0  0  0  0  0  0  0  0  0  0
  128.2280  126.4710   61.3600 C   0  0  0  0  0  0  0  0  0  0  0  0
  128.0300  128.1120   60.7510 S   0  0  0  0  0  0  0  0  0  0  0  0
  129.7040  128.4740   61.2000 C   0  0  0  0  0  0  0  0  0  0  0  0
  130.3960  129.6250   61.0210 C   0  0  0  0  0  0  0  0  0  0  0  0
  129.9380  130.8570   60.3410 C   0  0  0  0  0  0  0  0  0  0  0  0
  130.5150  131.2650   59.1310 C   0  0  0  0  0  0  0  0  0  0  0  0
  130.0920  132.4290   58.4950 C   0  0  0  0  0  0  0  0  0  0  0  0
  130.8910  132.9590   56.8500 Br  0  0  0  0  0  0  0  0  0  0  0  0
  129.0890  133.2080   59.0640 C   0  0  0  0  0  0  0  0  0  0  0  0
  128.5050  132.8240   60.2700 C   0  0  0  0  0  0  0  0  0  0  0  0
  127.1450  133.9290   61.0230 Br  0  0  0  0  0  0  0  0  0  0  0  0
  128.9160  131.6440   60.9100 C   0  0  0  0  0  0  0  0  0  0  0  0
  128.3300  131.2800   62.1060 O   0  0  0  0  0  0  0  0  0  0  0  0
  128.7470  131.8660   63.2620 C   0  0  0  0  0  0  0  0  0  0  0  0
  130.2260  132.2260   63.2200 C   0  0  0  0  0  0  0  0  0  0  0  0
  128.0610  132.1010   64.2590 O   0  0  0  0  0  0  0  0  0  0  0  0
  130.3120  127.3460   61.8830 C   0  0  0  0  0  0  0  0  0  0  0  0
  131.4510  127.3240   62.3570 O   0  0  0  0  0  0  0  0  0  0  0  0
  129.4500  126.2970   61.9330 N   0  0  0  0  0  0  0  0  0  0  0  0
  130.2970  124.3860   65.0870 C   0  0  0  0  0  0  0  0  0  0  0  0
  130.2600  124.6120   66.4600 C   0  0  0  0  0  0  0  0  0  0  0  0
  131.2059  128.8951   70.5869 H   0  0  0  0  0  0  0  0  0  0  0  0
  131.4327  127.3539   69.4900 H   0  0  0  0  0  0  0  0  0  0  0  0
  128.8651  128.9372   70.0920 H   0  0  0  0  0  0  0  0  0  0  0  0
  127.8913  126.7286   69.2901 H   0  0  0  0  0  0  0  0  0  0  0  0
  128.3998  127.6953   67.8413 H   0  0  0  0  0  0  0  0  0  0  0  0
  128.6835  127.6391   66.4700 H   0  0  0  0  0  0  0  0  0  0  0  0
  128.7462  127.2325   64.0195 H   0  0  0  0  0  0  0  0  0  0  0  0
  130.8236  124.7218   62.4487 H   0  0  0  0  0  0  0  0  0  0  0  0
  130.6926  122.1756   59.9650 H   0  0  0  0  0  0  0  0  0  0  0  0
  131.4417  122.3096   61.5882 H   0  0  0  0  0  0  0  0  0  0  0  0
  131.3633  119.8639   61.8722 H   0  0  0  0  0  0  0  0  0  0  0  0
  130.4771  119.6822   60.3203 H   0  0  0  0  0  0  0  0  0  0  0  0
  132.1814  120.2498   60.3203 H   0  0  0  0  0  0  0  0  0  0  0  0
  125.9873  122.9766   62.2043 H   0  0  0  0  0  0  0  0  0  0  0  0
  125.7282  123.9145   60.6944 H   0  0  0  0  0  0  0  0  0  0  0  0
  126.8360  122.5005   60.6944 H   0  0  0  0  0  0  0  0  0  0  0  0
  131.4174  129.6462   61.4287 H   0  0  0  0  0  0  0  0  0  0  0  0
  131.3124  130.6578   58.6778 H   0  0  0  0  0  0  0  0  0  0  0  0
  128.7565  134.1282   58.5613 H   0  0  0  0  0  0  0  0  0  0  0  0
  130.6099  132.3194   64.2466 H   0  0  0  0  0  0  0  0  0  0  0  0
  130.7806  131.4366   62.6915 H   0  0  0  0  0  0  0  0  0  0  0  0
  130.3558  133.1820   62.6915 H   0  0  0  0  0  0  0  0  0  0  0  0
  130.7534  123.4648   64.6957 H   0  0  0  0  0  0  0  0  0  0  0  0
  130.6884  123.8695   67.1494 H   0  0  0  0  0  0  0  0  0  0  0  0
  1  2  2  0
  2  3  1  0
  3  4  1  0
  4  5  1  0
  5  6  2  0
  6  7  1  0
  7  8  2  0
  8  9  1  0
  9 10  1  0
 10 11  1  0
 11 12  2  0
 11 13  1  0
 13 14  1  0
 14 15  1  0
 10 16  2  0
 16 17  1  0
 16 18  1  0
 18 19  2  0
 19 20  1  0
 20 21  1  0
 21 22  2  0
 22 23  1  0
 23 24  2  0
 24 25  1  0
 25 26  1  0
 25 27  2  0
 27 28  1  0
 28 29  1  0
 28 30  2  0
 30 31  1  0
 31 32  1  0
 32 33  1  0
 32 34  2  0
 21 35  1  0
 35 36  2  0
 35 37  1  0
  8 38  1  0
 38 39  2  0
 39  5  1  0
 37  9  1  0
 37 19  1  0
 30 23  1  0
  1 40  1  0
  1 41  1  0
  2 42  1  0
  3 43  1  0
  3 44  1  0
  6 45  1  0
  7 46  1  0
  9 47  1  6
 14 48  1  0
 14 49  1  0
 15 50  1  0
 15 51  1  0
 15 52  1  0
 17 53  1  0
 17 54  1  0
 17 55  1  0
 22 56  1  0
 24 57  1  0
 27 58  1  0
 33 59  1  0
 33 60  1  0
 33 61  1  0
 38 62  1  0
 39 63  1  0
M  END
>  <Binding energies>  (1) 
[-8.01]

>  <Ligand effiencies>  (1) 
[-0.2053846153846154]

>  <Interactions>  (1) 
["V-B:PRO:540:CA:9855, V-A:ALA:541:C:4888, V-A:GLU:543:C:4902, V-B:GLU:543:CB:9878, V-A:ILE:538:CB:4862, V-B:ALA:541:CB:9864, V-B:TYR:539:CE2:9848, V-A:TYR:484:CE2:4346, V-B:GLU:543:CG:9879, V-A:GLY:544:C:4912, V-A:TYR:539:CD1:4873, V-A:ILE:538:CA:4860, V-A:ALA:541:CB:4892, V-A:GLU:543:CD:4908, V-B:PRO:540:CB:9857, V-A:TYR:484:CZ:4347, H-B:TYR:484:OH:9319, V-B:HIS:456:CE1:9041, V-A:HIS:456:CE1:4070, V-A:ALA:541:CA:4890, V-B:TYR:539:CD2:9846, V-A:GLU:543:CG:4907, V-B:GLU:543:CD:9880, V-A:TYR:539:C:4867, V-A:LEU:475:CD2:4259, H-A:ARG:545:NH2:4928, V-A:GLU:543:CB:4906, V-A:PRO:540:N:4884, V-A:PRO:540:CB:4885, V-A:PRO:540:CA:4883, V-B:PRO:540:C:9853, V-A:PRO:540:CD:4887, V-A:TYR:539:CE1:4875"]

$$$$
ZINC4088527
     RDKit          3D

 24 25  0  0  0  0  0  0  0  0999 V2000
  127.9860  130.8210   57.3090 O   0  0  0  0  0  0  0  0  0  0  0  0
  127.6140  131.8100   57.9370 C   0  0  0  0  0  0  0  0  0  0  0  0
  128.1170  132.1640   59.2610 C   0  0  0  0  0  0  0  0  0  0  0  0
  127.3530  132.8110   60.2290 C   0  0  0  0  0  0  0  0  0  0  0  0
  128.1900  133.1130   61.7040 S   0  0  0  0  0  0  0  0  0  0  0  0
  129.6290  132.3620   61.0710 C   0  0  0  0  0  0  0  0  0  0  0  0
  130.8150  132.2640   61.8850 N   0  0  0  0  0  0  0  0  0  0  0  0
  130.6830  132.2270   63.1060 O   0  0  0  0  0  0  0  0  0  0  0  0
  131.9050  132.2170   61.3260 O   0  0  0  0  0  0  0  0  0  0  0  0
  129.4290  131.9110   59.7490 C   0  0  0  0  0  0  0  0  0  0  0  0
  130.4710  131.2440   58.9400 C   0  0  0  0  0  0  0  0  0  0  0  0
  130.9690  129.9470   59.2410 C   0  0  0  0  0  0  0  0  0  0  0  0
  130.5390  129.1020   60.3500 C   0  0  0  0  0  0  0  0  0  0  0  0
  129.4010  129.1180   60.8180 O   0  0  0  0  0  0  0  0  0  0  0  0
  131.9460  129.5740   58.3220 C   0  0  0  0  0  0  0  0  0  0  0  0
  132.2670  130.7580   57.1120 S   0  0  0  0  0  0  0  0  0  0  0  0
  131.0730  131.8230   57.8010 C   0  0  0  0  0  0  0  0  0  0  0  0
  130.8100  133.1060   57.2000 N   0  0  0  0  0  0  0  0  0  0  0  0
  129.6510  133.5010   57.1480 O   0  0  0  0  0  0  0  0  0  0  0  0
  131.7580  133.7510   56.7630 O   0  0  0  0  0  0  0  0  0  0  0  0
  126.8601  132.4648   57.4757 H   0  0  0  0  0  0  0  0  0  0  0  0
  126.3054  133.1040   60.0658 H   0  0  0  0  0  0  0  0  0  0  0  0
  131.2729  128.4123   60.7924 H   0  0  0  0  0  0  0  0  0  0  0  0
  132.4681  128.6067   58.3647 H   0  0  0  0  0  0  0  0  0  0  0  0
  1  2  2  0
  2  3  1  0
  3  4  2  0
  4  5  1  0
  5  6  1  0
  6  7  1  0
  7  8  2  0
  7  9  1  0
  6 10  2  0
 10 11  1  0
 11 12  1  0
 12 13  1  0
 13 14  2  0
 12 15  2  0
 15 16  1  0
 16 17  1  0
 17 18  1  0
 18 19  2  0
 18 20  1  0
 10  3  1  0
 17 11  2  0
  2 21  1  0
  4 22  1  0
 13 23  1  0
 15 24  1  0
M  CHG  4   7   1   9  -1  18   1  20  -1
M  END
>  <Binding energies>  (1) 
[-5.96]

>  <Ligand effiencies>  (1) 
[-0.298]

>  <Interactions>  (1) 
["V-A:TYR:539:CD1:4873, V-A:LEU:363:CD1:3189, H-A:TYR:539:N:4870, V-A:PRO:540:N:4884, V-A:PRO:540:CA:4883, V-A:PRO:540:CB:4885, V-A:TYR:531:CE2:4793, H-A:ALA:541:N:4891, V-A:ALA:541:CA:4890, V-A:PRO:540:C:4881, V-A:ILE:538:CB:4862, V-A:TYR:531:CZ:4794, V-A:TYR:539:C:4867, V-A:ASP:366:CB:3212, V-A:PRO:540:CD:4887, V-A:TYR:539:CE1:4875, V-A:ASP:366:CG:3213"]

$$$$
ZINC408855163
     RDKit          3D

 70 75  0  0  0  0  0  0  0  0999 V2000
  132.8970  123.3460   60.1510 C   0  0  0  0  0  0  0  0  0  0  0  0
  132.3790  122.2970   60.8090 C   0  0  0  0  0  0  0  0  0  0  0  0
  130.9830  121.7460   60.5920 C   0  0  0  0  0  0  0  0  0  0  0  0
  129.9310  122.3970   61.4830 C   0  0  0  0  0  0  0  0  0  0  0  0
  130.3230  122.9780   62.6910 C   0  0  0  0  0  0  0  0  0  0  0  0
  129.3820  123.5510   63.5490 C   0  0  0  0  0  0  0  0  0  0  0  0
  129.7800  124.1900   64.8210 C   0  0  0  0  0  0  0  0  0  0  0  0
  129.6140  125.4740   65.2720 C   0  0  0  0  0  0  0  0  0  0  0  0
  130.0220  125.7550   66.6620 C   0  0  0  0  0  0  0  0  0  0  0  0
  130.7570  124.9950   67.3080 O   0  0  0  0  0  0  0  0  0  0  0  0
  129.5170  126.9350   67.1820 N   0  0  0  0  0  0  0  0  0  0  0  0
  129.7850  127.1960   68.5510 C   0  0  0  0  0  0  0  0  0  0  0  0
  131.0430  127.7080   68.9340 C   0  0  0  0  0  0  0  0  0  0  0  0
  131.3290  127.9700   70.2800 C   0  0  0  0  0  0  0  0  0  0  0  0
  130.3270  127.7200   71.2120 C   0  0  0  0  0  0  0  0  0  0  0  0
  129.1070  127.2250   70.8450 C   0  0  0  0  0  0  0  0  0  0  0  0
  128.7950  126.9420   69.5200 C   0  0  0  0  0  0  0  0  0  0  0  0
  128.3430  127.0480   71.9550 O   0  0  0  0  0  0  0  0  0  0  0  0
  129.0500  127.6590   73.0000 C   0  0  0  0  0  0  0  0  0  0  0  0
  130.3650  127.8670   72.5620 O   0  0  0  0  0  0  0  0  0  0  0  0
  128.7810  127.8780   66.4700 C   0  0  0  0  0  0  0  0  0  0  0  0
  128.2580  128.8160   67.0790 O   0  0  0  0  0  0  0  0  0  0  0  0
  128.6970  127.7050   65.0780 N   0  0  0  0  0  0  0  0  0  0  0  0
  129.0450  126.6070   64.5220 C   0  0  0  0  0  0  0  0  0  0  0  0
  128.9940  126.6130   63.2810 O   0  0  0  0  0  0  0  0  0  0  0  0
  128.0360  123.5540   63.1790 C   0  0  0  0  0  0  0  0  0  0  0  0
  127.6160  122.9730   61.9710 C   0  0  0  0  0  0  0  0  0  0  0  0
  126.2940  122.9100   61.5710 O   0  0  0  0  0  0  0  0  0  0  0  0
  125.7510  123.9310   60.7410 C   0  0  0  0  0  0  0  0  0  0  0  0
  126.6110  125.1890   60.9010 C   0  0  0  0  0  0  0  0  0  0  0  0
  128.5760  122.4120   61.1140 C   0  0  0  0  0  0  0  0  0  0  0  0
  128.1940  121.8300   59.9250 O   0  0  0  0  0  0  0  0  0  0  0  0
  128.7280  122.4440   58.7540 C   0  0  0  0  0  0  0  0  0  0  0  0
  127.6980  123.4010   58.1600 C   0  0  0  0  0  0  0  0  0  0  0  0
  126.4520  122.9090   57.7680 C   0  0  0  0  0  0  0  0  0  0  0  0
  125.4930  123.7470   57.2130 C   0  0  0  0  0  0  0  0  0  0  0  0
  125.7580  125.0990   57.0270 C   0  0  0  0  0  0  0  0  0  0  0  0
  127.0120  125.6420   57.3980 C   0  0  0  0  0  0  0  0  0  0  0  0
  127.2960  127.0170   57.2080 C   0  0  0  0  0  0  0  0  0  0  0  0
  128.5330  127.5390   57.5710 C   0  0  0  0  0  0  0  0  0  0  0  0
  129.5080  126.7190   58.1240 C   0  0  0  0  0  0  0  0  0  0  0  0
  129.2610  125.3650   58.3260 C   0  0  0  0  0  0  0  0  0  0  0  0
  128.0090  124.7880   57.9720 C   0  0  0  0  0  0  0  0  0  0  0  0
  133.9213  123.6815   60.3704 H   0  0  0  0  0  0  0  0  0  0  0  0
  132.2972  123.8701   59.3924 H   0  0  0  0  0  0  0  0  0  0  0  0
  133.0125  121.8015   61.5594 H   0  0  0  0  0  0  0  0  0  0  0  0
  130.7018  121.9121   59.5416 H   0  0  0  0  0  0  0  0  0  0  0  0
  131.0115  120.6771   60.8502 H   0  0  0  0  0  0  0  0  0  0  0  0
  131.3869  122.9843   62.9702 H   0  0  0  0  0  0  0  0  0  0  0  0
  130.2972  123.5219   65.5254 H   0  0  0  0  0  0  0  0  0  0  0  0
  131.8072  127.9035   68.1673 H   0  0  0  0  0  0  0  0  0  0  0  0
  132.3104  128.3593   70.5888 H   0  0  0  0  0  0  0  0  0  0  0  0
  127.8123  126.5352   69.2392 H   0  0  0  0  0  0  0  0  0  0  0  0
  128.5835  128.6220   73.2548 H   0  0  0  0  0  0  0  0  0  0  0  0
  129.0393  127.0212   73.8962 H   0  0  0  0  0  0  0  0  0  0  0  0
  127.2927  124.0185   63.8437 H   0  0  0  0  0  0  0  0  0  0  0  0
  125.7636  123.6028   59.6912 H   0  0  0  0  0  0  0  0  0  0  0  0
  124.7115  124.1430   61.0317 H   0  0  0  0  0  0  0  0  0  0  0  0
  126.7557  125.4006   61.9707 H   0  0  0  0  0  0  0  0  0  0  0  0
  127.5888  125.0279   60.4236 H   0  0  0  0  0  0  0  0  0  0  0  0
  126.1059  126.0416   60.4236 H   0  0  0  0  0  0  0  0  0  0  0  0
  129.6380  123.0033   59.0169 H   0  0  0  0  0  0  0  0  0  0  0  0
  128.9727  121.6672   58.0146 H   0  0  0  0  0  0  0  0  0  0  0  0
  126.2258  121.8407   57.9006 H   0  0  0  0  0  0  0  0  0  0  0  0
  124.5156  123.3373   56.9182 H   0  0  0  0  0  0  0  0  0  0  0  0
  124.9883  125.7513   56.5887 H   0  0  0  0  0  0  0  0  0  0  0  0
  126.5324  127.6767   56.7701 H   0  0  0  0  0  0  0  0  0  0  0  0
  128.7405  128.6085   57.4191 H   0  0  0  0  0  0  0  0  0  0  0  0
  130.4832  127.1435   58.4045 H   0  0  0  0  0  0  0  0  0  0  0  0
  130.0449  124.7309   58.7658 H   0  0  0  0  0  0  0  0  0  0  0  0
  1  2  2  0
  2  3  1  0
  3  4  1  0
  4  5  2  0
  5  6  1  0
  6  7  1  0
  7  8  2  0
  8  9  1  0
  9 10  2  0
  9 11  1  0
 11 12  1  0
 12 13  2  0
 13 14  1  0
 14 15  2  0
 15 16  1  0
 16 17  2  0
 16 18  1  0
 18 19  1  0
 19 20  1  0
 11 21  1  0
 21 22  2  0
 21 23  1  0
 23 24  2  0
 24 25  1  0
  6 26  2  0
 26 27  1  0
 27 28  1  0
 28 29  1  0
 29 30  1  0
 27 31  2  0
 31 32  1  0
 32 33  1  0
 33 34  1  0
 34 35  2  0
 35 36  1  0
 36 37  2  0
 37 38  1  0
 38 39  2  0
 39 40  1  0
 40 41  2  0
 41 42  1  0
 42 43  2  0
 31  4  1  0
 43 34  1  0
 24  8  1  0
 43 38  1  0
 17 12  1  0
 20 15  1  0
  1 44  1  0
  1 45  1  0
  2 46  1  0
  3 47  1  0
  3 48  1  0
  5 49  1  0
  7 50  1  0
 13 51  1  0
 14 52  1  0
 17 53  1  0
 19 54  1  0
 19 55  1  0
 26 56  1  0
 29 57  1  0
 29 58  1  0
 30 59  1  0
 30 60  1  0
 30 61  1  0
 33 62  1  0
 33 63  1  0
 35 64  1  0
 36 65  1  0
 37 66  1  0
 39 67  1  0
 40 68  1  0
 41 69  1  0
 42 70  1  0
M  CHG  1  25  -1
M  END
>  <Binding energies>  (1) 
[-7.19]

>  <Ligand effiencies>  (1) 
[-0.1672093023255814]

>  <Interactions>  (1) 
["V-A:ILE:369:CG2:3237, V-B:PRO:540:CA:9855, V-A:ARG:545:CA:4919, V-A:GLU:543:C:4902, V-B:GLU:543:CB:9878, V-B:ALA:541:CB:9864, V-B:TYR:539:CE2:9848, V-B:GLU:543:CG:9879, V-A:GLY:544:C:4912, V-B:TYR:539:C:9839, V-B:TYR:539:CZ:9849, V-B:TYR:531:CZ:9766, H-B:ALA:541:N:9863, V-B:TYR:531:CE2:9765, V-A:GLU:543:CD:4908, V-B:PRO:540:CB:9857, V-A:ARG:545:CG:4922, V-B:HIS:456:CE1:9041, V-B:PRO:540:N:9856, V-A:HIS:456:CE1:4070, V-B:TYR:539:CD2:9846, V-B:PRO:540:CD:9859, V-A:GLU:543:CG:4907, V-B:GLU:543:CD:9880, V-A:LEU:475:CD2:4259, H-A:LYS:547:NZ:4951, V-B:TYR:539:CG:9844, V-A:GLU:543:CB:4906, V-B:LEU:363:CD1:8160, V-B:PRO:540:C:9853, V-B:MET:535:CE:9807, H-A:TYR:484:OH:4348"]

$$$$
ZINC408878769
     RDKit          3D

 68 71  0  0  0  0  0  0  0  0999 V2000
  127.5280  129.8510   64.9100 C   0  0  0  0  0  0  0  0  0  0  0  0
  127.0240  129.2280   66.2160 C   0  0  0  0  0  0  0  0  0  0  0  0
  128.1490  128.8740   67.0150 O   0  0  0  0  0  0  0  0  0  0  0  0
  128.7540  127.6410   66.8410 C   0  0  0  0  0  0  0  0  0  0  0  0
  128.9620  127.0420   65.5870 C   0  0  0  0  0  0  0  0  0  0  0  0
  129.5780  125.7870   65.4660 C   0  0  0  0  0  0  0  0  0  0  0  0
  129.8010  125.1380   64.1660 C   0  0  0  0  0  0  0  0  0  0  0  0
  129.1320  124.1370   63.7530 N   0  0  0  0  0  0  0  0  0  0  0  0
  129.5250  123.7160   62.5370 N   0  0  0  0  0  0  0  0  0  0  0  0
  128.8950  122.7260   61.8750 C   0  0  0  0  0  0  0  0  0  0  0  0
  127.9150  122.1110   62.3040 O   0  0  0  0  0  0  0  0  0  0  0  0
  129.4410  122.4080   60.4750 C   0  0  0  0  0  0  0  0  0  0  0  0
  129.1160  123.4110   59.4810 N   0  0  0  0  0  0  0  0  0  0  0  0
  127.9460  123.2810   58.7120 C   0  0  0  0  0  0  0  0  0  0  0  0
  128.0040  122.6030   57.4900 C   0  0  0  0  0  0  0  0  0  0  0  0
  126.8620  122.4640   56.7020 C   0  0  0  0  0  0  0  0  0  0  0  0
  125.6510  123.0010   57.1330 C   0  0  0  0  0  0  0  0  0  0  0  0
  125.5800  123.6720   58.3530 C   0  0  0  0  0  0  0  0  0  0  0  0
  126.7200  123.8130   59.1480 C   0  0  0  0  0  0  0  0  0  0  0  0
  126.5770  124.6350   60.6640 Cl  0  0  0  0  0  0  0  0  0  0  0  0
  129.8960  125.0120   59.5690 S   0  0  0  0  0  0  0  0  0  0  0  0
  129.7460  125.6380   58.2510 O   0  0  0  0  0  0  0  0  0  0  0  0
  129.4250  125.6700   60.7940 O   0  0  0  0  0  0  0  0  0  0  0  0
  131.6350  124.6380   59.7800 C   0  0  0  0  0  0  0  0  0  0  0  0
  132.1530  124.4350   61.0620 C   0  0  0  0  0  0  0  0  0  0  0  0
  133.5130  124.1940   61.2290 C   0  0  0  0  0  0  0  0  0  0  0  0
  134.3510  124.1670   60.1160 C   0  0  0  0  0  0  0  0  0  0  0  0
  133.8420  124.3840   58.8370 C   0  0  0  0  0  0  0  0  0  0  0  0
  132.4820  124.6260   58.6670 C   0  0  0  0  0  0  0  0  0  0  0  0
  129.9880  125.1360   66.6330 C   0  0  0  0  0  0  0  0  0  0  0  0
  129.7920  125.7180   67.8820 C   0  0  0  0  0  0  0  0  0  0  0  0
  129.1730  126.9720   68.0000 C   0  0  0  0  0  0  0  0  0  0  0  0
  128.9430  127.6040   69.2090 O   0  0  0  0  0  0  0  0  0  0  0  0
  129.7940  127.3340   70.3220 C   0  0  0  0  0  0  0  0  0  0  0  0
  129.1060  127.7290   71.6220 C   0  0  0  0  0  0  0  0  0  0  0  0
  127.8290  127.2350   71.9040 C   0  0  0  0  0  0  0  0  0  0  0  0
  127.1930  127.5840   73.0940 C   0  0  0  0  0  0  0  0  0  0  0  0
  127.8360  128.4230   74.0010 C   0  0  0  0  0  0  0  0  0  0  0  0
  127.0470  128.8570   75.4740 Cl  0  0  0  0  0  0  0  0  0  0  0  0
  129.1120  128.9140   73.7310 C   0  0  0  0  0  0  0  0  0  0  0  0
  129.7480  128.5660   72.5420 C   0  0  0  0  0  0  0  0  0  0  0  0
  128.2046  130.6873   65.1399 H   0  0  0  0  0  0  0  0  0  0  0  0
  128.0689  129.0916   64.3263 H   0  0  0  0  0  0  0  0  0  0  0  0
  126.6724  130.2214   64.3263 H   0  0  0  0  0  0  0  0  0  0  0  0
  126.3997  129.9548   66.7564 H   0  0  0  0  0  0  0  0  0  0  0  0
  126.4220  128.3336   65.9977 H   0  0  0  0  0  0  0  0  0  0  0  0
  128.6343  127.5692   64.6789 H   0  0  0  0  0  0  0  0  0  0  0  0
  130.5902  125.5399   63.5136 H   0  0  0  0  0  0  0  0  0  0  0  0
  130.3110  124.2070   62.1380 H   0  0  0  0  0  0  0  0  0  0  0  0
  130.5360  122.3255   60.5399 H   0  0  0  0  0  0  0  0  0  0  0  0
  128.9676  121.4694   60.1511 H   0  0  0  0  0  0  0  0  0  0  0  0
  128.9582  122.1760   57.1478 H   0  0  0  0  0  0  0  0  0  0  0  0
  126.9173  121.9310   55.7413 H   0  0  0  0  0  0  0  0  0  0  0  0
  124.7503  122.8955   56.5104 H   0  0  0  0  0  0  0  0  0  0  0  0
  124.6215  124.0925   58.6913 H   0  0  0  0  0  0  0  0  0  0  0  0
  131.4870  124.4657   61.9369 H   0  0  0  0  0  0  0  0  0  0  0  0
  133.9249  124.0255   62.2350 H   0  0  0  0  0  0  0  0  0  0  0  0
  135.4255  123.9724   60.2484 H   0  0  0  0  0  0  0  0  0  0  0  0
  134.5125  124.3641   57.9652 H   0  0  0  0  0  0  0  0  0  0  0  0
  132.0749  124.8071   57.6613 H   0  0  0  0  0  0  0  0  0  0  0  0
  130.4720  124.1507   66.5633 H   0  0  0  0  0  0  0  0  0  0  0  0
  130.1260  125.1891   68.7868 H   0  0  0  0  0  0  0  0  0  0  0  0
  130.0282  126.2595   70.3474 H   0  0  0  0  0  0  0  0  0  0  0  0
  130.7193  127.9191   70.2149 H   0  0  0  0  0  0  0  0  0  0  0  0
  127.3258  126.5704   71.1862 H   0  0  0  0  0  0  0  0  0  0  0  0
  126.1871  127.1983   73.3161 H   0  0  0  0  0  0  0  0  0  0  0  0
  129.6146  129.5735   74.4538 H   0  0  0  0  0  0  0  0  0  0  0  0
  130.7561  128.9493   72.3256 H   0  0  0  0  0  0  0  0  0  0  0  0
  1  2  1  0
  2  3  1  0
  3  4  1  0
  4  5  2  0
  5  6  1  0
  6  7  1  0
  7  8  2  0
  8  9  1  0
  9 10  1  0
 10 11  2  0
 10 12  1  0
 12 13  1  0
 13 14  1  0
 14 15  2  0
 15 16  1  0
 16 17  2  0
 17 18  1  0
 18 19  2  0
 19 20  1  0
 13 21  1  0
 21 22  2  0
 21 23  2  0
 21 24  1  0
 24 25  2  0
 25 26  1  0
 26 27  2  0
 27 28  1  0
 28 29  2  0
  6 30  2  0
 30 31  1  0
 31 32  2  0
 32 33  1  0
 33 34  1  0
 34 35  1  0
 35 36  2  0
 36 37  1  0
 37 38  2  0
 38 39  1  0
 38 40  1  0
 40 41  2  0
 32  4  1  0
 41 35  1  0
 19 14  1  0
 29 24  1  0
  1 42  1  0
  1 43  1  0
  1 44  1  0
  2 45  1  0
  2 46  1  0
  5 47  1  0
  7 48  1  0
  9 49  1  0
 12 50  1  0
 12 51  1  0
 15 52  1  0
 16 53  1  0
 17 54  1  0
 18 55  1  0
 25 56  1  0
 26 57  1  0
 27 58  1  0
 28 59  1  0
 29 60  1  0
 30 61  1  0
 31 62  1  0
 34 63  1  0
 34 64  1  0
 36 65  1  0
 37 66  1  0
 40 67  1  0
 41 68  1  0
M  END
>  <Binding energies>  (1) 
[-8.85]

>  <Ligand effiencies>  (1) 
[-0.21071428571428572]

>  <Interactions>  (1) 
["V-A:ILE:369:CG2:3237, V-A:ASP:366:CA:3210, V-B:PRO:540:CA:9855, V-B:HIS:456:CD2:9039, V-A:ILE:369:CB:3236, V-B:GLU:543:CB:9878, V-B:ALA:541:CB:9864, V-B:TYR:539:CE2:9848, V-A:TYR:484:CE2:4346, V-B:GLU:543:CG:9879, V-B:TYR:539:C:9839, V-A:ASP:366:CG:3213, V-B:TYR:539:CZ:9849, H-B:TYR:539:OH:9850, V-B:LYS:547:CE:9922, H-B:ALA:541:N:9863, V-A:GLU:543:CD:4908, V-B:PRO:540:CB:9857, V-B:HIS:456:CE1:9041, V-B:PRO:540:N:9856, V-A:HIS:456:CE1:4070, V-B:TYR:484:CZ:9318, V-A:ILE:369:CD1:3239, V-B:GLY:544:C:9884, V-A:ASP:366:C:3208, V-B:TYR:539:CD2:9846, V-B:PRO:540:CD:9859, V-B:GLU:543:CD:9880, V-B:HIS:456:CG:9037, V-A:ASP:366:CB:3212, V-B:TYR:539:CG:9844, V-A:GLU:543:CB:4906, V-B:TYR:539:CD1:9845, V-B:LEU:363:CD1:8160, V-B:TYR:539:CE1:9847"]

$$$$
ZINC408879196
     RDKit          3D

 51 53  0  0  0  0  0  0  0  0999 V2000
  126.4060  123.6660   61.4300 C   0  0  0  0  0  0  0  0  0  0  0  0
  127.1850  122.8460   62.2960 O   0  0  0  0  0  0  0  0  0  0  0  0
  128.4860  122.5200   61.9470 C   0  0  0  0  0  0  0  0  0  0  0  0
  128.8190  121.3730   61.2080 C   0  0  0  0  0  0  0  0  0  0  0  0
  130.1450  121.0890   60.8860 C   0  0  0  0  0  0  0  0  0  0  0  0
  131.1730  121.9390   61.3020 C   0  0  0  0  0  0  0  0  0  0  0  0
  132.6320  121.6380   60.9620 C   0  0  0  0  0  0  0  0  0  0  0  0
  133.3860  121.6860   62.0600 F   0  0  0  0  0  0  0  0  0  0  0  0
  132.7140  120.4150   60.4400 F   0  0  0  0  0  0  0  0  0  0  0  0
  133.1330  122.5060   60.0800 F   0  0  0  0  0  0  0  0  0  0  0  0
  130.8500  123.0830   62.0380 C   0  0  0  0  0  0  0  0  0  0  0  0
  129.5150  123.3880   62.3540 C   0  0  0  0  0  0  0  0  0  0  0  0
  129.1440  124.5260   63.1010 N   0  0  0  0  0  0  0  0  0  0  0  0
  129.8650  125.6310   63.3820 C   0  0  0  0  0  0  0  0  0  0  0  0
  131.0040  125.8520   62.9630 O   0  0  0  0  0  0  0  0  0  0  0  0
  129.1180  126.6680   64.2540 C   0  0  0  0  0  0  0  0  0  0  0  0
  129.2880  126.4640   65.7210 N   0  0  0  0  0  0  0  0  0  0  0  0
  129.6540  125.2560   66.2030 C   0  0  0  0  0  0  0  0  0  0  0  0
  129.8900  124.2210   65.5790 O   0  0  0  0  0  0  0  0  0  0  0  0
  129.7320  125.3620   67.9810 S   0  0  0  0  0  0  0  0  0  0  0  0
  129.2200  127.0530   67.9530 C   0  0  0  0  0  0  0  0  0  0  0  0
  128.9970  127.9130   68.9800 C   0  0  0  0  0  0  0  0  0  0  0  0
  129.1740  127.7230   70.4410 C   0  0  0  0  0  0  0  0  0  0  0  0
  129.4340  128.8480   71.2170 C   0  0  0  0  0  0  0  0  0  0  0  0
  129.6060  128.7710   72.6070 C   0  0  0  0  0  0  0  0  0  0  0  0
  129.8610  129.9070   73.3750 O   0  0  0  0  0  0  0  0  0  0  0  0
  129.2060  131.1370   73.0840 C   0  0  0  0  0  0  0  0  0  0  0  0
  129.5140  127.5050   73.2380 C   0  0  0  0  0  0  0  0  0  0  0  0
  129.6660  127.4610   74.5090 O   0  0  0  0  0  0  0  0  0  0  0  0
  129.2620  126.3310   72.4670 C   0  0  0  0  0  0  0  0  0  0  0  0
  129.1550  124.9380   73.0240 N   0  0  0  0  0  0  0  0  0  0  0  0
  129.8610  124.5700   73.9570 O   0  0  0  0  0  0  0  0  0  0  0  0
  128.3390  124.1690   72.5190 O   0  0  0  0  0  0  0  0  0  0  0  0
  129.1020  126.4840   71.0790 C   0  0  0  0  0  0  0  0  0  0  0  0
  128.9960  127.4720   66.5830 C   0  0  0  0  0  0  0  0  0  0  0  0
  128.6060  128.5920   66.2360 O   0  0  0  0  0  0  0  0  0  0  0  0
  125.7712  124.3342   62.0305 H   0  0  0  0  0  0  0  0  0  0  0  0
  127.0738  124.2671   60.7954 H   0  0  0  0  0  0  0  0  0  0  0  0
  125.7715  123.0299   60.7954 H   0  0  0  0  0  0  0  0  0  0  0  0
  128.0224  120.6895   60.8789 H   0  0  0  0  0  0  0  0  0  0  0  0
  130.3839  120.1892   60.3001 H   0  0  0  0  0  0  0  0  0  0  0  0
  131.6532  123.7548   62.3750 H   0  0  0  0  0  0  0  0  0  0  0  0
  128.1810  124.5290   63.4060 H   0  0  0  0  0  0  0  0  0  0  0  0
  129.4943  127.6695   63.9985 H   0  0  0  0  0  0  0  0  0  0  0  0
  128.0457  126.5499   64.0392 H   0  0  0  0  0  0  0  0  0  0  0  0
  128.6275  128.9054   68.6824 H   0  0  0  0  0  0  0  0  0  0  0  0
  129.5070  129.8291   70.7249 H   0  0  0  0  0  0  0  0  0  0  0  0
  128.9377  131.6409   74.0242 H   0  0  0  0  0  0  0  0  0  0  0  0
  129.8799  131.7824   72.5015 H   0  0  0  0  0  0  0  0  0  0  0  0
  128.2944  130.9381   72.5015 H   0  0  0  0  0  0  0  0  0  0  0  0
  128.9118  125.5884   70.4693 H   0  0  0  0  0  0  0  0  0  0  0  0
  1  2  1  0
  2  3  1  0
  3  4  2  0
  4  5  1  0
  5  6  2  0
  6  7  1  0
  7  8  1  0
  7  9  1  0
  7 10  1  0
  6 11  1  0
 11 12  2  0
 12 13  1  0
 13 14  1  0
 14 15  2  0
 14 16  1  0
 16 17  1  0
 17 18  1  0
 18 19  2  0
 18 20  1  0
 20 21  1  0
 21 22  2  0
 22 23  1  0
 23 24  2  0
 24 25  1  0
 25 26  1  0
 26 27  1  0
 25 28  2  0
 28 29  1  0
 28 30  1  0
 30 31  1  0
 31 32  2  0
 31 33  1  0
 30 34  2  0
 21 35  1  0
 35 36  2  0
 12  3  1  0
 35 17  1  0
 34 23  1  0
  1 37  1  0
  1 38  1  0
  1 39  1  0
  4 40  1  0
  5 41  1  0
 11 42  1  0
 13 43  1  0
 16 44  1  0
 16 45  1  0
 22 46  1  0
 24 47  1  0
 27 48  1  0
 27 49  1  0
 27 50  1  0
 34 51  1  0
M  CHG  3  29  -1  31   1  33  -1
M  END
>  <Binding energies>  (1) 
[-8.85]

>  <Ligand effiencies>  (1) 
[-0.2391891891891892]

>  <Interactions>  (1) 
["V-A:ILE:369:CG2:3237, V-B:PRO:540:CA:9855, V-B:HIS:456:CD2:9039, V-A:GLU:543:C:4902, V-B:GLU:543:CB:9878, H-B:LYS:547:NZ:9923, V-B:ALA:541:CB:9864, V-B:TYR:539:CE2:9848, V-B:GLU:543:CG:9879, V-B:TYR:539:C:9839, V-A:HIS:456:CD2:4068, H-B:GLU:543:OE1:9881, V-B:LYS:547:CE:9922, H-B:ALA:541:N:9863, V-A:GLU:543:CD:4908, V-B:PRO:540:CB:9857, V-B:HIS:456:CE1:9041, V-A:HIS:456:CE1:4070, V-B:TYR:539:CD2:9846, V-A:GLU:543:CG:4907, V-A:SER:385:CB:3409, V-B:GLU:543:CD:9880, H-A:LYS:547:NZ:4951, H-A:ARG:545:NH2:4928, V-A:LEU:475:CD2:4259, V-A:GLU:543:CB:4906, H-B:GLU:543:OE2:9882, V-B:PRO:540:C:9853, H-A:TYR:484:OH:4348"]

$$$$
ZINC408881743
     RDKit          3D

 78 81  0  0  0  0  0  0  0  0999 V2000
  134.3890  118.6130   56.9360 C   0  0  0  0  0  0  0  0  0  0  0  0
  133.6170  119.4540   57.6420 C   0  0  0  0  0  0  0  0  0  0  0  0
  132.8290  119.0750   58.8840 C   0  0  0  0  0  0  0  0  0  0  0  0
  133.1500  119.9000   60.0050 O   0  0  0  0  0  0  0  0  0  0  0  0
  132.1610  120.7680   60.4080 C   0  0  0  0  0  0  0  0  0  0  0  0
  130.9390  120.2740   60.8840 C   0  0  0  0  0  0  0  0  0  0  0  0
  130.6420  118.5740   60.9750 Cl  0  0  0  0  0  0  0  0  0  0  0  0
  129.9380  121.1560   61.2900 C   0  0  0  0  0  0  0  0  0  0  0  0
  130.1360  122.5380   61.2150 C   0  0  0  0  0  0  0  0  0  0  0  0
  129.0490  123.5320   61.6770 C   0  0  0  0  0  0  0  0  0  0  0  0
  129.3610  124.1140   63.0730 C   0  0  0  0  0  0  0  0  0  0  0  0
  129.4480  125.4580   63.2910 C   0  0  0  0  0  0  0  0  0  0  0  0
  129.9640  126.0090   64.6430 C   0  0  0  0  0  0  0  0  0  0  0  0
  130.8640  124.9930   65.4000 C   0  0  0  0  0  0  0  0  0  0  0  0
  132.1950  124.7410   64.6370 C   0  0  0  0  0  0  0  0  0  0  0  0
  131.1060  125.5340   66.8270 C   0  0  0  0  0  0  0  0  0  0  0  0
  130.0510  123.6830   65.5260 C   0  0  0  0  0  0  0  0  0  0  0  0
  129.5610  123.1350   64.1760 C   0  0  0  0  0  0  0  0  0  0  0  0
  129.1850  121.9650   64.0910 O   0  0  0  0  0  0  0  0  0  0  0  0
  129.1670  126.3800   62.2680 N   0  0  0  0  0  0  0  0  0  0  0  0
  128.7830  127.7470   62.6860 C   0  0  0  0  0  0  0  0  0  0  0  0
  127.2600  127.9700   62.7710 C   0  0  0  0  0  0  0  0  0  0  0  0
  126.8640  129.0110   63.8270 C   0  0  0  0  0  0  0  0  0  0  0  0
  128.0110  129.3430   64.5940 O   0  0  0  0  0  0  0  0  0  0  0  0
  127.9670  128.8420   65.9220 C   0  0  0  0  0  0  0  0  0  0  0  0
  128.9050  125.9730   60.9440 C   0  0  0  0  0  0  0  0  0  0  0  0
  128.7740  124.6460   60.6370 C   0  0  0  0  0  0  0  0  0  0  0  0
  128.3680  124.1900   59.2790 C   0  0  0  0  0  0  0  0  0  0  0  0
  128.1890  123.0040   58.9960 O   0  0  0  0  0  0  0  0  0  0  0  0
  128.1690  125.2660   58.2050 C   0  0  0  0  0  0  0  0  0  0  0  0
  127.6400  126.6020   58.7730 C   0  0  0  0  0  0  0  0  0  0  0  0
  127.6690  127.6360   57.6260 C   0  0  0  0  0  0  0  0  0  0  0  0
  126.2130  126.4190   59.3590 C   0  0  0  0  0  0  0  0  0  0  0  0
  128.6380  127.0650   59.8710 C   0  0  0  0  0  0  0  0  0  0  0  0
  131.3480  123.0240   60.7150 C   0  0  0  0  0  0  0  0  0  0  0  0
  132.3670  122.1510   60.3010 C   0  0  0  0  0  0  0  0  0  0  0  0
  133.5810  122.5750   59.7910 O   0  0  0  0  0  0  0  0  0  0  0  0
  133.8930  123.9640   59.7880 C   0  0  0  0  0  0  0  0  0  0  0  0
  134.9257  118.9746   56.0465 H   0  0  0  0  0  0  0  0  0  0  0  0
  134.4850  117.5622   57.2469 H   0  0  0  0  0  0  0  0  0  0  0  0
  133.5500  120.4957   57.2951 H   0  0  0  0  0  0  0  0  0  0  0  0
  131.7556  119.1769   58.6662 H   0  0  0  0  0  0  0  0  0  0  0  0
  133.0907  118.0387   59.1442 H   0  0  0  0  0  0  0  0  0  0  0  0
  128.9851  120.7613   61.6723 H   0  0  0  0  0  0  0  0  0  0  0  0
  128.1173  122.9536   61.7625 H   0  0  0  0  0  0  0  0  0  0  0  0
  130.5475  126.9216   64.4515 H   0  0  0  0  0  0  0  0  0  0  0  0
  129.0873  126.2122   65.2755 H   0  0  0  0  0  0  0  0  0  0  0  0
  133.0090  124.5869   65.3607 H   0  0  0  0  0  0  0  0  0  0  0  0
  132.0918  123.8464   64.0052 H   0  0  0  0  0  0  0  0  0  0  0  0
  132.4259  125.6114   64.0052 H   0  0  0  0  0  0  0  0  0  0  0  0
  130.7723  124.7881   67.5634 H   0  0  0  0  0  0  0  0  0  0  0  0
  132.1788  125.7328   66.9667 H   0  0  0  0  0  0  0  0  0  0  0  0
  130.5391  126.4663   66.9667 H   0  0  0  0  0  0  0  0  0  0  0  0
  130.6878  122.9219   66.0006 H   0  0  0  0  0  0  0  0  0  0  0  0
  129.1581  123.9120   66.1263 H   0  0  0  0  0  0  0  0  0  0  0  0
  129.2172  127.9406   63.6780 H   0  0  0  0  0  0  0  0  0  0  0  0
  129.1638  128.4348   61.9166 H   0  0  0  0  0  0  0  0  0  0  0  0
  126.9006  128.3124   61.7894 H   0  0  0  0  0  0  0  0  0  0  0  0
  126.8034  127.0133   63.0649 H   0  0  0  0  0  0  0  0  0  0  0  0
  126.4776  129.9131   63.3302 H   0  0  0  0  0  0  0  0  0  0  0  0
  126.0820  128.6000   64.4824 H   0  0  0  0  0  0  0  0  0  0  0  0
  128.0405  129.6788   66.6322 H   0  0  0  0  0  0  0  0  0  0  0  0
  127.0185  128.3081   66.0813 H   0  0  0  0  0  0  0  0  0  0  0  0
  128.8079  128.1510   66.0813 H   0  0  0  0  0  0  0  0  0  0  0  0
  129.1355  125.4530   57.7141 H   0  0  0  0  0  0  0  0  0  0  0  0
  127.4138  124.8885   57.4999 H   0  0  0  0  0  0  0  0  0  0  0  0
  127.6975  128.6513   58.0483 H   0  0  0  0  0  0  0  0  0  0  0  0
  128.5629  127.4714   57.0064 H   0  0  0  0  0  0  0  0  0  0  0  0
  126.7673  127.5217   57.0064 H   0  0  0  0  0  0  0  0  0  0  0  0
  126.2642  126.4256   60.4578 H   0  0  0  0  0  0  0  0  0  0  0  0
  125.5679  127.2418   59.0171 H   0  0  0  0  0  0  0  0  0  0  0  0
  125.7964  125.4601   59.0171 H   0  0  0  0  0  0  0  0  0  0  0  0
  129.5925  127.3259   59.3905 H   0  0  0  0  0  0  0  0  0  0  0  0
  128.1885  127.9285   60.3832 H   0  0  0  0  0  0  0  0  0  0  0  0
  131.5062  124.1103   60.6447 H   0  0  0  0  0  0  0  0  0  0  0  0
  133.9738  124.3239   60.8243 H   0  0  0  0  0  0  0  0  0  0  0  0
  134.8494  124.1238   59.2687 H   0  0  0  0  0  0  0  0  0  0  0  0
  133.0968  124.5175   59.2687 H   0  0  0  0  0  0  0  0  0  0  0  0
  1  2  2  0
  2  3  1  0
  3  4  1  0
  4  5  1  0
  5  6  2  0
  6  7  1  0
  6  8  1  0
  8  9  2  0
  9 10  1  0
 10 11  1  0
 11 12  2  0
 12 13  1  0
 13 14  1  0
 14 15  1  0
 14 16  1  0
 14 17  1  0
 17 18  1  0
 18 19  2  0
 12 20  1  0
 20 21  1  0
 21 22  1  0
 22 23  1  0
 23 24  1  0
 24 25  1  0
 20 26  1  0
 26 27  2  0
 27 28  1  0
 28 29  2  0
 28 30  1  0
 30 31  1  0
 31 32  1  0
 31 33  1  0
 31 34  1  0
  9 35  1  0
 35 36  2  0
 36 37  1  0
 37 38  1  0
 36  5  1  0
 27 10  1  0
 18 11  1  0
 34 26  1  0
  1 39  1  0
  1 40  1  0
  2 41  1  0
  3 42  1  0
  3 43  1  0
  8 44  1  0
 10 45  1  0
 13 46  1  0
 13 47  1  0
 15 48  1  0
 15 49  1  0
 15 50  1  0
 16 51  1  0
 16 52  1  0
 16 53  1  0
 17 54  1  0
 17 55  1  0
 21 56  1  0
 21 57  1  0
 22 58  1  0
 22 59  1  0
 23 60  1  0
 23 61  1  0
 25 62  1  0
 25 63  1  0
 25 64  1  0
 30 65  1  0
 30 66  1  0
 32 67  1  0
 32 68  1  0
 32 69  1  0
 33 70  1  0
 33 71  1  0
 33 72  1  0
 34 73  1  0
 34 74  1  0
 35 75  1  0
 38 76  1  0
 38 77  1  0
 38 78  1  0
M  END
>  <Binding energies>  (1) 
[-7.33]

>  <Ligand effiencies>  (1) 
[-0.19289473684210526]

>  <Interactions>  (1) 
["V-A:ILE:369:CG2:3237, V-A:ASP:366:CA:3210, V-A:ILE:369:CB:3236, V-B:ALA:541:CB:9864, V-B:ASP:366:CG:8184, V-B:TYR:539:CE2:9848, V-A:TYR:484:CE2:4346, V-B:GLU:543:CG:9879, V-A:LEU:373:CG:3279, V-A:GLU:543:CD:4908, V-A:TYR:484:CZ:4347, V-A:HIS:456:CE1:4070, V-A:ILE:369:CD1:3239, V-B:TYR:539:CD2:9846, V-A:GLU:543:CG:4907, V-A:SER:385:CB:3409, H-A:SER:385:OG:3410, V-B:GLU:543:CD:9880, V-A:LEU:373:CD2:3281, V-A:LEU:475:CD2:4259, V-B:TYR:539:CG:9844, V-A:HIS:383:CD2:3392, V-A:LEU:373:CD1:3280, V-A:HIS:383:NE2:3394"]

$$$$
ZINC408888704
     RDKit          3D

 58 60  0  0  0  0  0  0  0  0999 V2000
  126.4140  124.9670   60.5300 C   0  0  0  0  0  0  0  0  0  0  0  0
  127.5540  125.8980   60.9550 C   0  0  0  0  0  0  0  0  0  0  0  0
  128.7580  125.1400   61.0110 O   0  0  0  0  0  0  0  0  0  0  0  0
  129.4520  125.0410   62.2020 C   0  0  0  0  0  0  0  0  0  0  0  0
  129.0970  125.7230   63.3790 C   0  0  0  0  0  0  0  0  0  0  0  0
  129.8450  125.5780   64.5540 C   0  0  0  0  0  0  0  0  0  0  0  0
  129.4900  126.2750   65.8090 C   0  0  0  0  0  0  0  0  0  0  0  0
  128.8620  127.4720   65.9420 C   0  0  0  0  0  0  0  0  0  0  0  0
  128.3890  128.2110   64.8050 C   0  0  0  0  0  0  0  0  0  0  0  0
  127.9910  128.8190   63.9040 N   0  0  0  0  0  0  0  0  0  0  0  0
  128.6360  128.0300   67.2730 C   0  0  0  0  0  0  0  0  0  0  0  0
  128.3990  129.2280   67.4540 O   0  0  0  0  0  0  0  0  0  0  0  0
  128.7110  127.1300   68.2810 N   0  0  0  0  0  0  0  0  0  0  0  0
  128.5220  127.3290   69.6640 C   0  0  0  0  0  0  0  0  0  0  0  0
  129.5500  127.7830   70.5090 C   0  0  0  0  0  0  0  0  0  0  0  0
  129.3300  127.9930   71.8780 C   0  0  0  0  0  0  0  0  0  0  0  0
  130.4220  128.4710   72.7600 N   0  0  0  0  0  0  0  0  0  0  0  0
  130.5930  129.6810   72.8810 O   0  0  0  0  0  0  0  0  0  0  0  0
  131.1200  127.6420   73.3370 O   0  0  0  0  0  0  0  0  0  0  0  0
  128.0500  127.7450   72.3930 C   0  0  0  0  0  0  0  0  0  0  0  0
  127.0210  127.3080   71.5650 C   0  0  0  0  0  0  0  0  0  0  0  0
  127.2420  127.1030   70.2010 C   0  0  0  0  0  0  0  0  0  0  0  0
  126.0820  126.6250   69.3330 C   0  0  0  0  0  0  0  0  0  0  0  0
  130.9710  124.7520   64.5390 C   0  0  0  0  0  0  0  0  0  0  0  0
  131.3370  124.0680   63.3820 C   0  0  0  0  0  0  0  0  0  0  0  0
  132.8720  122.9380   63.4080 Br  0  0  0  0  0  0  0  0  0  0  0  0
  130.5780  124.2070   62.2170 C   0  0  0  0  0  0  0  0  0  0  0  0
  130.9440  123.5220   61.0800 O   0  0  0  0  0  0  0  0  0  0  0  0
  130.9550  122.1400   61.0620 C   0  0  0  0  0  0  0  0  0  0  0  0
  132.0330  121.4130   60.5330 C   0  0  0  0  0  0  0  0  0  0  0  0
  132.0080  120.0230   60.4980 C   0  0  0  0  0  0  0  0  0  0  0  0
  130.9030  119.3150   60.9840 C   0  0  0  0  0  0  0  0  0  0  0  0
  130.8750  117.8320   60.9470 N   0  0  0  0  0  0  0  0  0  0  0  0
  130.4760  117.2770   59.9280 O   0  0  0  0  0  0  0  0  0  0  0  0
  131.2540  117.2120   61.9370 O   0  0  0  0  0  0  0  0  0  0  0  0
  129.8240  120.0420   61.5060 C   0  0  0  0  0  0  0  0  0  0  0  0
  129.8360  121.4430   61.5540 C   0  0  0  0  0  0  0  0  0  0  0  0
  128.6780  122.1560   62.1360 N   0  0  0  0  0  0  0  0  0  0  0  0
  127.7570  122.4900   61.3960 O   0  0  0  0  0  0  0  0  0  0  0  0
  128.7010  122.4080   63.3380 O   0  0  0  0  0  0  0  0  0  0  0  0
  125.9183  124.5622   61.4247 H   0  0  0  0  0  0  0  0  0  0  0  0
  125.6845  125.5308   59.9301 H   0  0  0  0  0  0  0  0  0  0  0  0
  126.8207  124.1395   59.9301 H   0  0  0  0  0  0  0  0  0  0  0  0
  127.6613  126.7117   60.2227 H   0  0  0  0  0  0  0  0  0  0  0  0
  127.3369  126.3347   61.9410 H   0  0  0  0  0  0  0  0  0  0  0  0
  128.2163  126.3820   63.3769 H   0  0  0  0  0  0  0  0  0  0  0  0
  129.7667  125.7648   66.7434 H   0  0  0  0  0  0  0  0  0  0  0  0
  129.0430  126.2080   68.0330 H   0  0  0  0  0  0  0  0  0  0  0  0
  130.5473  127.9775   70.0876 H   0  0  0  0  0  0  0  0  0  0  0  0
  127.8568  127.8978   73.4651 H   0  0  0  0  0  0  0  0  0  0  0  0
  126.0231  127.1220   71.9887 H   0  0  0  0  0  0  0  0  0  0  0  0
  125.2577  126.2853   69.9773 H   0  0  0  0  0  0  0  0  0  0  0  0
  125.7338  127.4529   68.6979 H   0  0  0  0  0  0  0  0  0  0  0  0
  126.4182  125.7921   68.6979 H   0  0  0  0  0  0  0  0  0  0  0  0
  131.5757  124.6403   65.4511 H   0  0  0  0  0  0  0  0  0  0  0  0
  132.9093  121.9500   60.1409 H   0  0  0  0  0  0  0  0  0  0  0  0
  132.8664  119.4739   60.0837 H   0  0  0  0  0  0  0  0  0  0  0  0
  128.9462  119.4997   61.8874 H   0  0  0  0  0  0  0  0  0  0  0  0
  1  2  1  0
  2  3  1  0
  3  4  1  0
  4  5  2  0
  5  6  1  0
  6  7  1  0
  7  8  2  0
  8  9  1  0
  9 10  3  0
  8 11  1  0
 11 12  2  0
 11 13  1  0
 13 14  1  0
 14 15  2  0
 15 16  1  0
 16 17  1  0
 17 18  2  0
 17 19  1  0
 16 20  2  0
 20 21  1  0
 21 22  2  0
 22 23  1  0
  6 24  2  0
 24 25  1  0
 25 26  1  0
 25 27  2  0
 27 28  1  0
 28 29  1  0
 29 30  2  0
 30 31  1  0
 31 32  2  0
 32 33  1  0
 33 34  2  0
 33 35  1  0
 32 36  1  0
 36 37  2  0
 37 38  1  0
 38 39  2  0
 38 40  1  0
 27  4  1  0
 37 29  1  0
 22 14  1  0
  1 41  1  0
  1 42  1  0
  1 43  1  0
  2 44  1  0
  2 45  1  0
  5 46  1  0
  7 47  1  0
 13 48  1  0
 15 49  1  0
 20 50  1  0
 21 51  1  0
 23 52  1  0
 23 53  1  0
 23 54  1  0
 24 55  1  0
 30 56  1  0
 31 57  1  0
 36 58  1  0
M  CHG  6  17   1  19  -1  33   1  35  -1  38   1  40  -1
M  END
>  <Binding energies>  (1) 
[-9.27]

>  <Ligand effiencies>  (1) 
[-0.22609756097560973]

>  <Interactions>  (1) 
["V-A:GLY:454:CA:4049, V-B:HIS:456:CD2:9039, V-B:GLU:543:C:9874, H-B:GLU:543:O:9875, V-B:GLU:543:CB:9878, V-B:ALA:541:CB:9864, V-B:TYR:539:CE2:9848, V-B:GLU:543:CG:9879, V-A:GLY:544:C:4912, V-B:ARG:545:CG:9894, H-B:ALA:541:N:9863, V-A:GLU:543:CD:4908, V-B:HIS:456:CE1:9041, V-B:GLU:543:CA:9876, V-A:HIS:456:CE1:4070, V-B:GLY:544:C:9884, V-B:TYR:539:CD2:9846, V-A:GLU:543:CG:4907, V-A:SER:385:CB:3409, H-A:SER:385:OG:3410, V-B:GLU:543:CD:9880, V-B:HIS:456:CG:9037, V-B:GLY:544:CA:9886, H-A:LYS:547:NZ:4951, V-A:LEU:475:CD2:4259, V-A:GLU:543:CB:4906, H-A:HIS:383:HE2:3395, V-B:ARG:545:CA:9891, V-B:ALA:541:CA:9862, V-A:HIS:383:NE2:3394"]

$$$$
ZINC408893322
     RDKit          3D

 81 85  0  0  0  0  0  0  0  0999 V2000
  133.2030  131.7760   61.6930 C   0  0  0  0  0  0  0  0  0  0  0  0
  131.9320  131.6790   62.5410 C   0  0  0  0  0  0  0  0  0  0  0  0
  130.8450  132.2110   61.7910 O   0  0  0  0  0  0  0  0  0  0  0  0
  129.6470  131.5210   61.7370 C   0  0  0  0  0  0  0  0  0  0  0  0
  129.4410  130.2580   62.3180 C   0  0  0  0  0  0  0  0  0  0  0  0
  128.2010  129.6150   62.2290 C   0  0  0  0  0  0  0  0  0  0  0  0
  127.9710  128.2220   62.8520 C   0  0  0  0  0  0  0  0  0  0  0  0
  128.8210  127.1180   62.1810 C   0  0  0  0  0  0  0  0  0  0  0  0
  129.6180  126.2820   62.9090 C   0  0  0  0  0  0  0  0  0  0  0  0
  130.5850  125.3030   62.2060 C   0  0  0  0  0  0  0  0  0  0  0  0
  130.9230  125.7740   60.7830 C   0  0  0  0  0  0  0  0  0  0  0  0
  129.6390  126.0090   59.9850 C   0  0  0  0  0  0  0  0  0  0  0  0
  128.7020  126.9930   60.6980 C   0  0  0  0  0  0  0  0  0  0  0  0
  127.7760  127.5110   60.0740 O   0  0  0  0  0  0  0  0  0  0  0  0
  129.6570  126.3510   64.3120 N   0  0  0  0  0  0  0  0  0  0  0  0
  130.1410  125.1530   65.0320 C   0  0  0  0  0  0  0  0  0  0  0  0
  131.6510  125.1780   65.3440 C   0  0  0  0  0  0  0  0  0  0  0  0
  132.4480  124.1500   64.5290 C   0  0  0  0  0  0  0  0  0  0  0  0
  133.7400  124.6780   64.2640 O   0  0  0  0  0  0  0  0  0  0  0  0
  134.0660  124.7050   62.8820 C   0  0  0  0  0  0  0  0  0  0  0  0
  128.9780  127.3540   65.0320 C   0  0  0  0  0  0  0  0  0  0  0  0
  128.1350  128.2210   64.3930 C   0  0  0  0  0  0  0  0  0  0  0  0
  127.2920  129.1980   65.1420 C   0  0  0  0  0  0  0  0  0  0  0  0
  126.3790  129.8340   64.6140 O   0  0  0  0  0  0  0  0  0  0  0  0
  127.5370  129.3350   66.6480 C   0  0  0  0  0  0  0  0  0  0  0  0
  127.8850  127.9790   67.2610 C   0  0  0  0  0  0  0  0  0  0  0  0
  129.1180  127.3700   66.5760 C   0  0  0  0  0  0  0  0  0  0  0  0
  127.1530  130.2510   61.5550 C   0  0  0  0  0  0  0  0  0  0  0  0
  127.3400  131.5020   60.9730 C   0  0  0  0  0  0  0  0  0  0  0  0
  126.0220  132.2540   60.1460 Cl  0  0  0  0  0  0  0  0  0  0  0  0
  128.5860  132.1350   61.0560 C   0  0  0  0  0  0  0  0  0  0  0  0
  128.7630  133.3650   60.4720 O   0  0  0  0  0  0  0  0  0  0  0  0
  128.8440  133.3290   59.0530 C   0  0  0  0  0  0  0  0  0  0  0  0
  129.6410  132.1070   58.6360 C   0  0  0  0  0  0  0  0  0  0  0  0
  128.9880  130.9660   58.1590 C   0  0  0  0  0  0  0  0  0  0  0  0
  129.7210  129.8390   57.7810 C   0  0  0  0  0  0  0  0  0  0  0  0
  129.0010  128.6080   57.2630 C   0  0  0  0  0  0  0  0  0  0  0  0
  131.1160  129.8530   57.8850 C   0  0  0  0  0  0  0  0  0  0  0  0
  131.7760  130.9880   58.3630 C   0  0  0  0  0  0  0  0  0  0  0  0
  133.2890  130.9920   58.4710 C   0  0  0  0  0  0  0  0  0  0  0  0
  131.0350  132.1120   58.7390 C   0  0  0  0  0  0  0  0  0  0  0  0
  134.0802  131.8429   62.3534 H   0  0  0  0  0  0  0  0  0  0  0  0
  133.2894  130.8818   61.0582 H   0  0  0  0  0  0  0  0  0  0  0  0
  133.1527  132.6729   61.0582 H   0  0  0  0  0  0  0  0  0  0  0  0
  131.7313  130.6263   62.7891 H   0  0  0  0  0  0  0  0  0  0  0  0
  132.0584  132.2467   63.4747 H   0  0  0  0  0  0  0  0  0  0  0  0
  130.2680  129.7667   62.8515 H   0  0  0  0  0  0  0  0  0  0  0  0
  126.9187  127.9759   62.6469 H   0  0  0  0  0  0  0  0  0  0  0  0
  131.5142  125.2358   62.7909 H   0  0  0  0  0  0  0  0  0  0  0  0
  130.0946  124.3207   62.1383 H   0  0  0  0  0  0  0  0  0  0  0  0
  131.4941  126.7126   60.8370 H   0  0  0  0  0  0  0  0  0  0  0  0
  131.5207  124.9989   60.2810 H   0  0  0  0  0  0  0  0  0  0  0  0
  129.9019  126.4179   58.9983 H   0  0  0  0  0  0  0  0  0  0  0  0
  129.1154  125.0468   59.8851 H   0  0  0  0  0  0  0  0  0  0  0  0
  129.5924  125.0751   65.9822 H   0  0  0  0  0  0  0  0  0  0  0  0
  129.9662  124.2913   64.3710 H   0  0  0  0  0  0  0  0  0  0  0  0
  132.0393  126.1820   65.1178 H   0  0  0  0  0  0  0  0  0  0  0  0
  131.7721  124.9213   66.4067 H   0  0  0  0  0  0  0  0  0  0  0  0
  132.5409  123.2157   65.1021 H   0  0  0  0  0  0  0  0  0  0  0  0
  131.9287  123.9400   63.5823 H   0  0  0  0  0  0  0  0  0  0  0  0
  135.1559  124.7953   62.7641 H   0  0  0  0  0  0  0  0  0  0  0  0
  133.7214  123.7752   62.4058 H   0  0  0  0  0  0  0  0  0  0  0  0
  133.5732  125.5654   62.4058 H   0  0  0  0  0  0  0  0  0  0  0  0
  128.3704  130.0328   66.8168 H   0  0  0  0  0  0  0  0  0  0  0  0
  126.6208  129.7150   67.1236 H   0  0  0  0  0  0  0  0  0  0  0  0
  128.0964  128.1113   68.3324 H   0  0  0  0  0  0  0  0  0  0  0  0
  127.0318  127.2992   67.1197 H   0  0  0  0  0  0  0  0  0  0  0  0
  130.0035  127.9641   66.8459 H   0  0  0  0  0  0  0  0  0  0  0  0
  129.2167  126.3293   66.9183 H   0  0  0  0  0  0  0  0  0  0  0  0
  126.1721  129.7582   61.4842 H   0  0  0  0  0  0  0  0  0  0  0  0
  127.8315  133.2723   58.6269 H   0  0  0  0  0  0  0  0  0  0  0  0
  129.3392  134.2397   58.6852 H   0  0  0  0  0  0  0  0  0  0  0  0
  127.8908  130.9562   58.0811 H   0  0  0  0  0  0  0  0  0  0  0  0
  128.6482  128.0049   58.1126 H   0  0  0  0  0  0  0  0  0  0  0  0
  128.1411  128.9168   56.6504 H   0  0  0  0  0  0  0  0  0  0  0  0
  129.6917  128.0099   56.6504 H   0  0  0  0  0  0  0  0  0  0  0  0
  131.6960  128.9664   57.5891 H   0  0  0  0  0  0  0  0  0  0  0  0
  133.5809  130.9928   59.5316 H   0  0  0  0  0  0  0  0  0  0  0  0
  133.6940  130.0949   57.9799 H   0  0  0  0  0  0  0  0  0  0  0  0
  133.6893  131.8912   57.9799 H   0  0  0  0  0  0  0  0  0  0  0  0
  131.5520  133.0058   59.1182 H   0  0  0  0  0  0  0  0  0  0  0  0
  1  2  1  0
  2  3  1  0
  3  4  1  0
  4  5  2  0
  5  6  1  0
  6  7  1  0
  7  8  1  0
  8  9  2  0
  9 10  1  0
 10 11  1  0
 11 12  1  0
 12 13  1  0
 13 14  2  0
  9 15  1  0
 15 16  1  0
 16 17  1  0
 17 18  1  0
 18 19  1  0
 19 20  1  0
 15 21  1  0
 21 22  2  0
 22 23  1  0
 23 24  2  0
 23 25  1  0
 25 26  1  0
 26 27  1  0
  6 28  2  0
 28 29  1  0
 29 30  1  0
 29 31  2  0
 31 32  1  0
 32 33  1  0
 33 34  1  0
 34 35  2  0
 35 36  1  0
 36 37  1  0
 36 38  2  0
 38 39  1  0
 39 40  1  0
 39 41  2  0
 31  4  1  0
 41 34  1  0
 22  7  1  0
 13  8  1  0
 27 21  1  0
  1 42  1  0
  1 43  1  0
  1 44  1  0
  2 45  1  0
  2 46  1  0
  5 47  1  0
  7 48  1  0
 10 49  1  0
 10 50  1  0
 11 51  1  0
 11 52  1  0
 12 53  1  0
 12 54  1  0
 16 55  1  0
 16 56  1  0
 17 57  1  0
 17 58  1  0
 18 59  1  0
 18 60  1  0
 20 61  1  0
 20 62  1  0
 20 63  1  0
 25 64  1  0
 25 65  1  0
 26 66  1  0
 26 67  1  0
 27 68  1  0
 27 69  1  0
 28 70  1  0
 33 71  1  0
 33 72  1  0
 35 73  1  0
 37 74  1  0
 37 75  1  0
 37 76  1  0
 38 77  1  0
 40 78  1  0
 40 79  1  0
 40 80  1  0
 41 81  1  0
M  END
>  <Binding energies>  (1) 
[-8.13]

>  <Ligand effiencies>  (1) 
[-0.19829268292682928]

>  <Interactions>  (1) 
["H-A:ALA:541:N:4891, V-B:GLU:543:CB:9878, V-B:GLU:543:CG:9879, V-A:ASP:366:CG:3213, V-A:ASN:362:CB:3176, V-A:TYR:539:CD1:4873, V-A:LEU:363:CD1:3189, V-A:GLU:543:CD:4908, H-B:TYR:484:OH:9319, V-B:HIS:456:CE1:9041, H-A:GLY:454:N:4050, V-B:TYR:484:CZ:9318, V-A:GLU:543:CG:4907, V-B:GLU:543:CD:9880, V-A:MET:535:CE:4835, V-A:TYR:539:C:4867, V-A:ASP:366:CB:3212, H-A:ARG:545:NH2:4928, V-A:ARG:545:CZ:4926, V-A:GLU:543:CB:4906, V-A:PRO:540:N:4884, V-A:PRO:540:CB:4885, V-A:PRO:540:CA:4883, V-A:LEU:363:CA:3185, V-A:GLY:453:CA:4044, H-A:ARG:545:NE:4924, V-A:TYR:539:CE1:4875, H-A:TYR:484:OH:4348"]

$$$$
ZINC408893322-again1
     RDKit          3D

 81 85  0  0  0  0  0  0  0  0999 V2000
  126.4650  128.3240   62.0100 C   0  0  0  0  0  0  0  0  0  0  0  0
  126.8290  128.6440   63.4630 C   0  0  0  0  0  0  0  0  0  0  0  0
  128.2290  128.4470   63.6330 O   0  0  0  0  0  0  0  0  0  0  0  0
  128.7260  127.1640   63.7810 C   0  0  0  0  0  0  0  0  0  0  0  0
  128.8400  126.2400   62.7280 C   0  0  0  0  0  0  0  0  0  0  0  0
  129.3480  124.9550   62.9500 C   0  0  0  0  0  0  0  0  0  0  0  0
  129.4570  123.9410   61.8010 C   0  0  1  0  0  0  0  0  0  0  0  0
  128.2560  124.0040   60.8530 C   0  0  0  0  0  0  0  0  0  0  0  0
  127.0350  123.5670   61.2430 C   0  0  0  0  0  0  0  0  0  0  0  0
  126.7520  122.9790   62.4380 O   0  0  0  0  0  0  0  0  0  0  0  0
  125.7680  123.7380   60.4140 C   0  0  0  0  0  0  0  0  0  0  0  0
  125.8850  124.9660   59.4740 C   0  0  0  0  0  0  0  0  0  0  0  0
  127.2990  125.1330   58.9300 C   0  0  0  0  0  0  0  0  0  0  0  0
  128.4130  124.6450   59.5430 C   0  0  0  0  0  0  0  0  0  0  0  0
  129.6920  124.7100   58.9690 N   0  0  0  0  0  0  0  0  0  0  0  0
  129.8090  125.0780   57.5420 C   0  0  0  0  0  0  0  0  0  0  0  0
  129.8130  126.6020   57.2810 C   0  0  0  0  0  0  0  0  0  0  0  0
  130.6890  127.3900   58.2660 C   0  0  0  0  0  0  0  0  0  0  0  0
  129.9950  127.5480   59.4960 O   0  0  0  0  0  0  0  0  0  0  0  0
  130.8450  127.8820   60.5820 C   0  0  0  0  0  0  0  0  0  0  0  0
  130.8530  124.3800   59.6990 C   0  0  0  0  0  0  0  0  0  0  0  0
  130.7910  124.0350   61.0230 C   0  0  0  0  0  0  0  0  0  0  0  0
  132.0140  123.7010   61.8110 C   0  0  0  0  0  0  0  0  0  0  0  0
  131.9560  123.1690   62.9210 O   0  0  0  0  0  0  0  0  0  0  0  0
  133.3770  123.8590   61.1250 C   0  0  0  0  0  0  0  0  0  0  0  0
  133.3270  124.8910   59.9970 C   0  0  0  0  0  0  0  0  0  0  0  0
  132.2210  124.5330   58.9940 C   0  0  0  0  0  0  0  0  0  0  0  0
  129.7560  124.5960   64.2380 C   0  0  0  0  0  0  0  0  0  0  0  0
  129.6540  125.5020   65.2910 C   0  0  0  0  0  0  0  0  0  0  0  0
  130.1710  125.0230   66.8700 Cl  0  0  0  0  0  0  0  0  0  0  0  0
  129.1330  126.7810   65.0680 C   0  0  0  0  0  0  0  0  0  0  0  0
  129.0310  127.6660   66.1140 O   0  0  0  0  0  0  0  0  0  0  0  0
  127.9800  127.3700   67.0300 C   0  0  0  0  0  0  0  0  0  0  0  0
  128.5180  127.3950   68.4510 C   0  0  0  0  0  0  0  0  0  0  0  0
  129.8610  127.7030   68.6920 C   0  0  0  0  0  0  0  0  0  0  0  0
  130.3570  127.7330   69.9980 C   0  0  0  0  0  0  0  0  0  0  0  0
  131.8170  128.0640   70.2450 C   0  0  0  0  0  0  0  0  0  0  0  0
  129.5010  127.4550   71.0690 C   0  0  0  0  0  0  0  0  0  0  0  0
  128.1580  127.1500   70.8380 C   0  0  0  0  0  0  0  0  0  0  0  0
  127.2390  126.8520   72.0090 C   0  0  0  0  0  0  0  0  0  0  0  0
  127.6700  127.1230   69.5290 C   0  0  0  0  0  0  0  0  0  0  0  0
  125.6390  127.5978   61.9903 H   0  0  0  0  0  0  0  0  0  0  0  0
  126.1543  129.2467   61.4981 H   0  0  0  0  0  0  0  0  0  0  0  0
  127.3403  127.8976   61.4981 H   0  0  0  0  0  0  0  0  0  0  0  0
  126.5716  129.6895   63.6882 H   0  0  0  0  0  0  0  0  0  0  0  0
  126.2707  127.9856   64.1447 H   0  0  0  0  0  0  0  0  0  0  0  0
  128.5254  126.5310   61.7149 H   0  0  0  0  0  0  0  0  0  0  0  0
  129.4479  122.9536   62.2857 H   0  0  0  0  0  0  0  0  0  0  0  0
  126.4620  123.6470   63.0620 H   0  0  0  0  0  0  0  0  0  0  0  0
  125.6092  122.8339   59.8078 H   0  0  0  0  0  0  0  0  0  0  0  0
  124.9197  123.8963   61.0961 H   0  0  0  0  0  0  0  0  0  0  0  0
  125.1924  124.8347   58.6296 H   0  0  0  0  0  0  0  0  0  0  0  0
  125.6352  125.8655   60.0558 H   0  0  0  0  0  0  0  0  0  0  0  0
  127.4275  125.6809   57.9849 H   0  0  0  0  0  0  0  0  0  0  0  0
  130.7486  124.6585   57.1531 H   0  0  0  0  0  0  0  0  0  0  0  0
  128.9207  124.6720   57.0360 H   0  0  0  0  0  0  0  0  0  0  0  0
  130.1881  126.7798   56.2623 H   0  0  0  0  0  0  0  0  0  0  0  0
  128.7797  126.9555   57.4127 H   0  0  0  0  0  0  0  0  0  0  0  0
  131.6266  126.8423   58.4418 H   0  0  0  0  0  0  0  0  0  0  0  0
  130.9160  128.3799   57.8435 H   0  0  0  0  0  0  0  0  0  0  0  0
  130.3259  127.6780   61.5301 H   0  0  0  0  0  0  0  0  0  0  0  0
  131.7625  127.2775   60.5289 H   0  0  0  0  0  0  0  0  0  0  0  0
  131.1056  128.9494   60.5289 H   0  0  0  0  0  0  0  0  0  0  0  0
  134.1165  124.1831   61.8720 H   0  0  0  0  0  0  0  0  0  0  0  0
  133.6559  122.8883   60.6892 H   0  0  0  0  0  0  0  0  0  0  0  0
  133.1225  125.8843   60.4231 H   0  0  0  0  0  0  0  0  0  0  0  0
  134.2950  124.8963   59.4745 H   0  0  0  0  0  0  0  0  0  0  0  0
  132.1486  125.3308   58.2401 H   0  0  0  0  0  0  0  0  0  0  0  0
  132.4777  123.5736   58.5210 H   0  0  0  0  0  0  0  0  0  0  0  0
  130.1609  123.5898   64.4214 H   0  0  0  0  0  0  0  0  0  0  0  0
  127.1830  128.1211   66.9274 H   0  0  0  0  0  0  0  0  0  0  0  0
  127.5758  126.3707   66.8107 H   0  0  0  0  0  0  0  0  0  0  0  0
  130.5311  127.9230   67.8479 H   0  0  0  0  0  0  0  0  0  0  0  0
  132.0052  128.1067   71.3279 H   0  0  0  0  0  0  0  0  0  0  0  0
  132.4507  127.2867   69.7931 H   0  0  0  0  0  0  0  0  0  0  0  0
  132.0536  129.0386   69.7931 H   0  0  0  0  0  0  0  0  0  0  0  0
  129.8879  127.4768   72.0985 H   0  0  0  0  0  0  0  0  0  0  0  0
  127.7780  127.0268   72.9518 H   0  0  0  0  0  0  0  0  0  0  0  0
  126.3595  127.5110   71.9618 H   0  0  0  0  0  0  0  0  0  0  0  0
  126.9136  125.8023   71.9618 H   0  0  0  0  0  0  0  0  0  0  0  0
  126.6116  126.8862   69.3453 H   0  0  0  0  0  0  0  0  0  0  0  0
  1  2  1  0
  2  3  1  0
  3  4  1  0
  4  5  2  0
  5  6  1  0
  6  7  1  0
  7  8  1  0
  8  9  2  0
  9 10  1  0
  9 11  1  0
 11 12  1  0
 12 13  1  0
 13 14  2  0
 14 15  1  0
 15 16  1  0
 16 17  1  0
 17 18  1  0
 18 19  1  0
 19 20  1  0
 15 21  1  0
 21 22  2  0
 22 23  1  0
 23 24  2  0
 23 25  1  0
 25 26  1  0
 26 27  1  0
  6 28  2  0
 28 29  1  0
 29 30  1  0
 29 31  2  0
 31 32  1  0
 32 33  1  0
 33 34  1  0
 34 35  2  0
 35 36  1  0
 36 37  1  0
 36 38  2  0
 38 39  1  0
 39 40  1  0
 39 41  2  0
 31  4  1  0
 41 34  1  0
 22  7  1  0
 14  8  1  0
 27 21  1  0
  1 42  1  0
  1 43  1  0
  1 44  1  0
  2 45  1  0
  2 46  1  0
  5 47  1  0
  7 48  1  1
 10 49  1  0
 11 50  1  0
 11 51  1  0
 12 52  1  0
 12 53  1  0
 13 54  1  0
 16 55  1  0
 16 56  1  0
 17 57  1  0
 17 58  1  0
 18 59  1  0
 18 60  1  0
 20 61  1  0
 20 62  1  0
 20 63  1  0
 25 64  1  0
 25 65  1  0
 26 66  1  0
 26 67  1  0
 27 68  1  0
 27 69  1  0
 28 70  1  0
 33 71  1  0
 33 72  1  0
 35 73  1  0
 37 74  1  0
 37 75  1  0
 37 76  1  0
 38 77  1  0
 40 78  1  0
 40 79  1  0
 40 80  1  0
 41 81  1  0
M  END
>  <Binding energies>  (1) 
[-7.75]

>  <Ligand effiencies>  (1) 
[-0.18452380952380953]

>  <Interactions>  (1) 
["V-A:ASP:366:CA:3210, V-B:PRO:540:CA:9855, V-A:ARG:545:CA:4919, V-B:GLU:543:C:9874, V-B:HIS:456:CD2:9039, V-A:GLU:543:C:4902, V-B:GLU:543:CB:9878, V-B:TYR:539:CE2:9848, V-A:TYR:484:CE2:4346, H-B:ALA:541:O:9861, V-B:GLU:543:CG:9879, V-A:GLY:544:CA:4914, V-A:GLY:544:C:4912, V-A:ASP:366:CG:3213, V-B:TYR:539:CZ:9849, H-B:GLU:543:OE1:9881, V-B:LYS:547:CE:9922, H-B:ALA:541:N:9863, V-A:GLU:543:CD:4908, V-B:PRO:540:CB:9857, V-A:TYR:484:CZ:4347, V-B:HIS:456:CE1:9041, V-A:ARG:545:CG:4922, V-A:HIS:456:CE1:4070, V-B:GLY:544:C:9884, V-B:GLY:544:CA:9886, V-B:GLU:543:CD:9880, V-A:ASP:366:CB:3212, V-A:GLU:543:CB:4906"]

$$$$
ZINC408898466-again1
     RDKit          3D

 80 83  0  0  0  0  0  0  0  0999 V2000
  127.9830  128.9580   63.9160 C   0  0  0  0  0  0  0  0  0  0  0  0
  128.4570  128.0680   62.7640 C   0  0  0  0  0  0  0  0  0  0  0  0
  128.7820  128.8960   61.6530 O   0  0  0  0  0  0  0  0  0  0  0  0
  129.6400  128.4250   60.6760 C   0  0  0  0  0  0  0  0  0  0  0  0
  129.8190  127.0640   60.3840 C   0  0  0  0  0  0  0  0  0  0  0  0
  130.7080  126.6440   59.3900 C   0  0  0  0  0  0  0  0  0  0  0  0
  130.8710  125.1480   59.0760 C   0  0  1  0  0  0  0  0  0  0  0  0
  131.5000  124.3660   60.2320 C   0  0  0  0  0  0  0  0  0  0  0  0
  132.8170  124.4780   60.5210 C   0  0  0  0  0  0  0  0  0  0  0  0
  133.7240  125.2060   59.8130 O   0  0  0  0  0  0  0  0  0  0  0  0
  133.4540  123.8770   61.7710 C   0  0  0  0  0  0  0  0  0  0  0  0
  132.4240  123.7990   62.9490 C   0  0  0  0  0  0  0  0  0  0  0  0
  132.2490  125.1930   63.5950 C   0  0  0  0  0  0  0  0  0  0  0  0
  132.8950  122.7230   63.9510 C   0  0  0  0  0  0  0  0  0  0  0  0
  131.0560  123.3710   62.4000 C   0  0  0  0  0  0  0  0  0  0  0  0
  130.6290  123.5990   61.1270 C   0  0  0  0  0  0  0  0  0  0  0  0
  129.4040  123.1280   60.6330 N   0  0  0  0  0  0  0  0  0  0  0  0
  128.6710  122.1210   61.4280 C   0  0  0  0  0  0  0  0  0  0  0  0
  129.5300  120.9050   61.8470 C   0  0  0  0  0  0  0  0  0  0  0  0
  130.5320  120.4610   60.7730 C   0  0  0  0  0  0  0  0  0  0  0  0
  131.8510  120.7970   61.1830 O   0  0  0  0  0  0  0  0  0  0  0  0
  132.8230  120.6170   60.1640 C   0  0  0  0  0  0  0  0  0  0  0  0
  128.8960  123.5470   59.3850 C   0  0  0  0  0  0  0  0  0  0  0  0
  129.5460  124.4870   58.6270 C   0  0  0  0  0  0  0  0  0  0  0  0
  129.0180  124.9310   57.3090 C   0  0  0  0  0  0  0  0  0  0  0  0
  129.7040  125.5480   56.4940 O   0  0  0  0  0  0  0  0  0  0  0  0
  127.6350  124.4090   56.8880 C   0  0  0  0  0  0  0  0  0  0  0  0
  126.7250  124.0310   58.0800 C   0  0  0  0  0  0  0  0  0  0  0  0
  126.3540  125.2910   58.9110 C   0  0  0  0  0  0  0  0  0  0  0  0
  125.4760  123.3250   57.5060 C   0  0  0  0  0  0  0  0  0  0  0  0
  127.5140  123.0040   58.9380 C   0  0  0  0  0  0  0  0  0  0  0  0
  131.4390  127.6060   58.6880 C   0  0  0  0  0  0  0  0  0  0  0  0
  131.2770  128.9620   58.9630 C   0  0  0  0  0  0  0  0  0  0  0  0
  132.4430  130.3420   57.9020 I   0  0  0  0  0  0  0  0  0  0  0  0
  130.3620  129.3760   59.9400 C   0  0  0  0  0  0  0  0  0  0  0  0
  130.1980  130.7150   60.2170 O   0  0  0  0  0  0  0  0  0  0  0  0
  130.6700  131.1580   61.4910 C   0  0  0  0  0  0  0  0  0  0  0  0
  132.2020  131.1380   61.6340 C   0  0  0  0  0  0  0  0  0  0  0  0
  128.2363  128.4824   64.8750 H   0  0  0  0  0  0  0  0  0  0  0  0
  128.4788  129.9377   63.8504 H   0  0  0  0  0  0  0  0  0  0  0  0
  126.8933  129.0934   63.8504 H   0  0  0  0  0  0  0  0  0  0  0  0
  129.3464  127.5009   63.0759 H   0  0  0  0  0  0  0  0  0  0  0  0
  127.6623  127.3605   62.4849 H   0  0  0  0  0  0  0  0  0  0  0  0
  129.2481  126.3123   60.9488 H   0  0  0  0  0  0  0  0  0  0  0  0
  131.5700  125.1035   58.2278 H   0  0  0  0  0  0  0  0  0  0  0  0
  134.4470  125.4650   60.3880 H   0  0  0  0  0  0  0  0  0  0  0  0
  133.8119  122.8630   61.5394 H   0  0  0  0  0  0  0  0  0  0  0  0
  134.2899  124.5215   62.0807 H   0  0  0  0  0  0  0  0  0  0  0  0
  132.2615  125.0937   64.6904 H   0  0  0  0  0  0  0  0  0  0  0  0
  133.0717  125.8504   63.2771 H   0  0  0  0  0  0  0  0  0  0  0  0
  131.2894  125.6266   63.2771 H   0  0  0  0  0  0  0  0  0  0  0  0
  132.7370  123.0841   64.9780 H   0  0  0  0  0  0  0  0  0  0  0  0
  132.3190  121.7990   63.7945 H   0  0  0  0  0  0  0  0  0  0  0  0
  133.9646  122.5193   63.7945 H   0  0  0  0  0  0  0  0  0  0  0  0
  130.3731  122.8435   63.0821 H   0  0  0  0  0  0  0  0  0  0  0  0
  128.2926  122.6078   62.3390 H   0  0  0  0  0  0  0  0  0  0  0  0
  127.8638  121.7355   60.7878 H   0  0  0  0  0  0  0  0  0  0  0  0
  130.0896  121.1712   62.7558 H   0  0  0  0  0  0  0  0  0  0  0  0
  128.8401  120.0642   62.0116 H   0  0  0  0  0  0  0  0  0  0  0  0
  130.4587  119.3726   60.6316 H   0  0  0  0  0  0  0  0  0  0  0  0
  130.3026  120.9717   59.8261 H   0  0  0  0  0  0  0  0  0  0  0  0
  133.8060  120.4350   60.6229 H   0  0  0  0  0  0  0  0  0  0  0  0
  132.5445  119.7552   59.5398 H   0  0  0  0  0  0  0  0  0  0  0  0
  132.8716  121.5214   59.5398 H   0  0  0  0  0  0  0  0  0  0  0  0
  127.1319  125.1918   56.3014 H   0  0  0  0  0  0  0  0  0  0  0  0
  127.8011  123.4905   56.3059 H   0  0  0  0  0  0  0  0  0  0  0  0
  126.4231  125.0563   59.9835 H   0  0  0  0  0  0  0  0  0  0  0  0
  127.0497  126.1079   58.6688 H   0  0  0  0  0  0  0  0  0  0  0  0
  125.3266  125.6005   58.6688 H   0  0  0  0  0  0  0  0  0  0  0  0
  124.8443  122.9679   58.3327 H   0  0  0  0  0  0  0  0  0  0  0  0
  124.9054  124.0341   56.8884 H   0  0  0  0  0  0  0  0  0  0  0  0
  125.7893  122.4704   56.8884 H   0  0  0  0  0  0  0  0  0  0  0  0
  126.9224  122.7629   59.8335 H   0  0  0  0  0  0  0  0  0  0  0  0
  127.6880  122.1119   58.3185 H   0  0  0  0  0  0  0  0  0  0  0  0
  132.1496  127.2893   57.9103 H   0  0  0  0  0  0  0  0  0  0  0  0
  130.3215  132.1893   61.6492 H   0  0  0  0  0  0  0  0  0  0  0  0
  130.2720  130.4562   62.2387 H   0  0  0  0  0  0  0  0  0  0  0  0
  132.4707  131.1345   62.7007 H   0  0  0  0  0  0  0  0  0  0  0  0
  132.6035  130.2345   61.1518 H   0  0  0  0  0  0  0  0  0  0  0  0
  132.6270  132.0307   61.1518 H   0  0  0  0  0  0  0  0  0  0  0  0
  1  2  1  0
  2  3  1  0
  3  4  1  0
  4  5  2  0
  5  6  1  0
  6  7  1  0
  7  8  1  0
  8  9  2  0
  9 10  1  0
  9 11  1  0
 11 12  1  0
 12 13  1  0
 12 14  1  0
 12 15  1  0
 15 16  2  0
 16 17  1  0
 17 18  1  0
 18 19  1  0
 19 20  1  0
 20 21  1  0
 21 22  1  0
 17 23  1  0
 23 24  2  0
 24 25  1  0
 25 26  2  0
 25 27  1  0
 27 28  1  0
 28 29  1  0
 28 30  1  0
 28 31  1  0
  6 32  2  0
 32 33  1  0
 33 34  1  0
 33 35  2  0
 35 36  1  0
 36 37  1  0
 37 38  1  0
 35  4  1  0
 24  7  1  0
 16  8  1  0
 31 23  1  0
  1 39  1  0
  1 40  1  0
  1 41  1  0
  2 42  1  0
  2 43  1  0
  5 44  1  0
  7 45  1  6
 10 46  1  0
 11 47  1  0
 11 48  1  0
 13 49  1  0
 13 50  1  0
 13 51  1  0
 14 52  1  0
 14 53  1  0
 14 54  1  0
 15 55  1  0
 18 56  1  0
 18 57  1  0
 19 58  1  0
 19 59  1  0
 20 60  1  0
 20 61  1  0
 22 62  1  0
 22 63  1  0
 22 64  1  0
 27 65  1  0
 27 66  1  0
 29 67  1  0
 29 68  1  0
 29 69  1  0
 30 70  1  0
 30 71  1  0
 30 72  1  0
 31 73  1  0
 31 74  1  0
 32 75  1  0
 37 76  1  0
 37 77  1  0
 38 78  1  0
 38 79  1  0
 38 80  1  0
M  END
>  <Binding energies>  (1) 
[-7.65]

>  <Ligand effiencies>  (1) 
[-0.19615384615384615]

>  <Interactions>  (1) 
["V-A:ILE:369:CG2:3237, V-B:PRO:540:CA:9855, V-A:GLY:454:CA:4049, V-B:ALA:541:CB:9864, H-A:TYR:531:OH:4795, V-B:TYR:539:CE2:9848, V-B:TYR:539:C:9839, V-A:ASP:366:CG:3213, V-A:LEU:363:CD1:3189, V-B:TYR:539:CZ:9849, V-A:TYR:531:CE2:4793, H-B:TYR:539:OH:9850, V-A:GLU:543:CD:4908, V-B:PRO:540:CB:9857, V-B:PRO:540:N:9856, V-B:TYR:539:CD2:9846, V-B:PRO:540:CD:9859, V-A:SER:385:CB:3409, H-A:SER:385:OG:3410, V-A:ASP:366:CB:3212, V-A:LEU:475:CD2:4259, V-A:ARG:545:CZ:4926, H-A:ASP:366:OD1:3214, V-B:LEU:363:CD1:8160, V-B:PRO:540:C:9853, H-A:ASP:366:OD2:3215"]

$$$$
ZINC408910723
     RDKit          3D

 61 64  0  0  0  0  0  0  0  0999 V2000
  132.1120  131.3640   59.5470 C   0  0  0  0  0  0  0  0  0  0  0  0
  131.7980  131.4390   61.0440 C   0  0  0  0  0  0  0  0  0  0  0  0
  130.5640  132.1290   61.2160 O   0  0  0  0  0  0  0  0  0  0  0  0
  129.4200  131.4190   61.5310 C   0  0  0  0  0  0  0  0  0  0  0  0
  129.0990  130.9790   62.8280 C   0  0  0  0  0  0  0  0  0  0  0  0
  127.9210  130.2710   63.0800 C   0  0  0  0  0  0  0  0  0  0  0  0
  127.6300  129.8140   64.4550 C   0  0  0  0  0  0  0  0  0  0  0  0
  128.1080  128.7550   65.1540 C   0  0  0  0  0  0  0  0  0  0  0  0
  127.7570  128.4270   66.8370 S   0  0  0  0  0  0  0  0  0  0  0  0
  128.9180  127.0620   66.8990 C   0  0  0  0  0  0  0  0  0  0  0  0
  129.1740  126.3880   67.9600 N   0  0  0  0  0  0  0  0  0  0  0  0
  128.7130  126.6990   69.2490 C   0  0  0  0  0  0  0  0  0  0  0  0
  129.6290  127.1870   70.1880 C   0  0  0  0  0  0  0  0  0  0  0  0
  129.2200  127.5540   71.4670 C   0  0  0  0  0  0  0  0  0  0  0  0
  127.8760  127.4540   71.8150 C   0  0  0  0  0  0  0  0  0  0  0  0
  126.9410  126.9990   70.8910 C   0  0  0  0  0  0  0  0  0  0  0  0
  127.3570  126.6340   69.6140 C   0  0  0  0  0  0  0  0  0  0  0  0
  129.4020  126.9040   65.6330 N   0  0  0  0  0  0  0  0  0  0  0  0
  130.3640  125.7960   65.3470 C   0  0  1  0  0  0  0  0  0  0  0  0
  131.1880  125.4230   66.6050 C   0  0  0  0  0  0  0  0  0  0  0  0
  129.7650  124.6050   64.5650 C   0  0  0  0  0  0  0  0  0  0  0  0
  129.8890  123.3150   65.1000 C   0  0  0  0  0  0  0  0  0  0  0  0
  129.3880  122.2120   64.4140 C   0  0  0  0  0  0  0  0  0  0  0  0
  128.7570  122.3930   63.1860 C   0  0  0  0  0  0  0  0  0  0  0  0
  128.6230  123.6680   62.6400 C   0  0  0  0  0  0  0  0  0  0  0  0
  129.1250  124.7700   63.3270 C   0  0  0  0  0  0  0  0  0  0  0  0
  128.9740  127.7210   64.6310 C   0  0  0  0  0  0  0  0  0  0  0  0
  129.2950  127.5840   63.4480 O   0  0  0  0  0  0  0  0  0  0  0  0
  127.0660  129.9780   62.0130 C   0  0  0  0  0  0  0  0  0  0  0  0
  127.3610  130.4120   60.7250 C   0  0  0  0  0  0  0  0  0  0  0  0
  126.0160  129.9840   59.1770 I   0  0  0  0  0  0  0  0  0  0  0  0
  128.5390  131.1260   60.4800 C   0  0  0  0  0  0  0  0  0  0  0  0
  128.8240  131.5530   59.2060 O   0  0  0  0  0  0  0  0  0  0  0  0
  128.8390  132.9750   59.0500 C   0  0  0  0  0  0  0  0  0  0  0  0
  129.3670  133.3530   57.6490 C   0  0  0  0  0  0  0  0  0  0  0  0
  130.6120  133.3660   57.5170 O   0  0  0  0  0  0  0  0  0  0  0  0
  128.5630  133.6230   56.7260 O   0  0  0  0  0  0  0  0  0  0  0  0
  133.1732  131.1105   59.4072 H   0  0  0  0  0  0  0  0  0  0  0  0
  131.4855  130.5902   59.0793 H   0  0  0  0  0  0  0  0  0  0  0  0
  131.9028  132.3374   59.0793 H   0  0  0  0  0  0  0  0  0  0  0  0
  131.7148  130.4227   61.4564 H   0  0  0  0  0  0  0  0  0  0  0  0
  132.6032  131.9726   61.5703 H   0  0  0  0  0  0  0  0  0  0  0  0
  129.7873  131.1960   63.6582 H   0  0  0  0  0  0  0  0  0  0  0  0
  126.9059  130.4358   65.0018 H   0  0  0  0  0  0  0  0  0  0  0  0
  130.6893  127.2821   69.9108 H   0  0  0  0  0  0  0  0  0  0  0  0
  129.9549  127.9210   72.1986 H   0  0  0  0  0  0  0  0  0  0  0  0
  127.5511  127.7366   72.8272 H   0  0  0  0  0  0  0  0  0  0  0  0
  125.8788  126.9281   71.1681 H   0  0  0  0  0  0  0  0  0  0  0  0
  126.6139  126.2897   68.8796 H   0  0  0  0  0  0  0  0  0  0  0  0
  131.0917  126.1898   64.6222 H   0  0  0  0  0  0  0  0  0  0  0  0
  130.6159  125.6820   67.5081 H   0  0  0  0  0  0  0  0  0  0  0  0
  131.3962  124.3429   66.6000 H   0  0  0  0  0  0  0  0  0  0  0  0
  132.1369  125.9793   66.6000 H   0  0  0  0  0  0  0  0  0  0  0  0
  130.3867  123.1731   66.0707 H   0  0  0  0  0  0  0  0  0  0  0  0
  129.4901  121.2029   64.8398 H   0  0  0  0  0  0  0  0  0  0  0  0
  128.3611  121.5224   62.6425 H   0  0  0  0  0  0  0  0  0  0  0  0
  128.1225  123.8033   61.6699 H   0  0  0  0  0  0  0  0  0  0  0  0
  129.0193  125.7767   62.8965 H   0  0  0  0  0  0  0  0  0  0  0  0
  126.1494  129.3975   62.1945 H   0  0  0  0  0  0  0  0  0  0  0  0
  127.8173  133.3644   59.1703 H   0  0  0  0  0  0  0  0  0  0  0  0
  129.5002  133.4124   59.8125 H   0  0  0  0  0  0  0  0  0  0  0  0
  1  2  1  0
  2  3  1  0
  3  4  1  0
  4  5  2  0
  5  6  1  0
  6  7  1  0
  7  8  2  0
  8  9  1  0
  9 10  1  0
 10 11  2  0
 11 12  1  0
 12 13  2  0
 13 14  1  0
 14 15  2  0
 15 16  1  0
 16 17  2  0
 10 18  1  0
 18 19  1  0
 19 20  1  0
 19 21  1  0
 21 22  2  0
 22 23  1  0
 23 24  2  0
 24 25  1  0
 25 26  2  0
 18 27  1  0
 27 28  2  0
  6 29  2  0
 29 30  1  0
 30 31  1  0
 30 32  2  0
 32 33  1  0
 33 34  1  0
 34 35  1  0
 35 36  2  0
 35 37  1  0
 32  4  1  0
 27  8  1  0
 17 12  1  0
 26 21  1  0
  1 38  1  0
  1 39  1  0
  1 40  1  0
  2 41  1  0
  2 42  1  0
  5 43  1  0
  7 44  1  0
 13 45  1  0
 14 46  1  0
 15 47  1  0
 16 48  1  0
 17 49  1  0
 19 50  1  6
 20 51  1  0
 20 52  1  0
 20 53  1  0
 22 54  1  0
 23 55  1  0
 24 56  1  0
 25 57  1  0
 26 58  1  0
 29 59  1  0
 34 60  1  0
 34 61  1  0
M  CHG  1  37  -1
M  END
>  <Binding energies>  (1) 
[-8.25]

>  <Ligand effiencies>  (1) 
[-0.22297297297297297]

>  <Interactions>  (1) 
["V-B:GLU:543:C:9874, V-B:HIS:456:CD2:9039, H-A:ALA:541:N:4891, V-B:GLU:543:CB:9878, V-B:ALA:541:CB:9864, V-A:TYR:484:CE2:4346, V-B:GLU:543:CG:9879, V-A:TYR:539:CD1:4873, V-A:TYR:539:CA:4869, V-A:GLU:543:CD:4908, V-A:TYR:484:CZ:4347, V-B:GLU:543:CA:9876, V-B:HIS:456:CE1:9041, V-A:HIS:456:CE1:4070, V-B:GLY:544:C:9884, V-B:GLY:544:CA:9886, V-A:GLU:543:CG:4907, V-B:GLU:543:CD:9880, V-B:HIS:456:CG:9037, V-A:TYR:539:C:4867, V-A:LEU:475:CD2:4259, V-A:PRO:540:N:4884, V-A:TYR:539:CG:4872, H-A:TYR:539:N:4870, V-A:PRO:540:CB:4885, V-A:PRO:540:CA:4883, V-B:ALA:541:CA:9862, V-A:TYR:539:CE1:4875"]

$$$$
ZINC408931272
     RDKit          3D

 79 84  0  0  0  0  0  0  0  0999 V2000
  127.9380  132.5940   60.6500 C   0  0  0  0  0  0  0  0  0  0  0  0
  127.3140  131.4410   61.2060 O   0  0  0  0  0  0  0  0  0  0  0  0
  127.5740  131.1030   62.5200 C   0  0  0  0  0  0  0  0  0  0  0  0
  126.8880  130.0000   63.0280 C   0  0  0  0  0  0  0  0  0  0  0  0
  127.0890  129.5860   64.3410 C   0  0  0  0  0  0  0  0  0  0  0  0
  127.9710  130.2740   65.1800 C   0  0  0  0  0  0  0  0  0  0  0  0
  128.2110  129.8250   66.4840 N   0  0  0  0  0  0  0  0  0  0  0  0
  128.6400  128.6430   66.7400 C   0  0  0  0  0  0  0  0  0  0  0  0
  128.9860  127.4150   65.4790 S   0  0  0  0  0  0  0  0  0  0  0  0
  129.4810  126.2200   66.6670 C   0  0  0  0  0  0  0  0  0  0  0  0
  129.9440  124.9630   66.4700 C   0  0  0  0  0  0  0  0  0  0  0  0
  130.1540  124.2470   65.2180 C   0  0  0  0  0  0  0  0  0  0  0  0
  129.7590  122.9480   64.8840 C   0  0  0  0  0  0  0  0  0  0  0  0
  130.1560  122.6400   63.5970 C   0  0  0  0  0  0  0  0  0  0  0  0
  129.9670  121.3640   62.8020 C   0  0  0  0  0  0  0  0  0  0  0  0
  130.8290  123.7460   63.1100 N   0  0  0  0  0  0  0  0  0  0  0  0
  131.4030  123.8580   61.8240 C   0  0  0  0  0  0  0  0  0  0  0  0
  132.7880  123.9800   61.6870 C   0  0  0  0  0  0  0  0  0  0  0  0
  133.3470  124.0990   60.4170 C   0  0  0  0  0  0  0  0  0  0  0  0
  132.5360  124.0980   59.2800 C   0  0  0  0  0  0  0  0  0  0  0  0
  133.1820  124.2250   58.0660 O   0  0  0  0  0  0  0  0  0  0  0  0
  133.2250  125.4990   57.4270 C   0  0  0  0  0  0  0  0  0  0  0  0
  131.9290  126.2440   57.7070 C   0  0  0  0  0  0  0  0  0  0  0  0
  131.9120  127.2720   58.6540 C   0  0  0  0  0  0  0  0  0  0  0  0
  130.7300  127.9610   58.9120 C   0  0  0  0  0  0  0  0  0  0  0  0
  129.5680  127.6210   58.2220 C   0  0  0  0  0  0  0  0  0  0  0  0
  127.9520  128.5640   58.5750 Br  0  0  0  0  0  0  0  0  0  0  0  0
  129.5790  126.5980   57.2750 C   0  0  0  0  0  0  0  0  0  0  0  0
  130.7600  125.9080   57.0170 C   0  0  0  0  0  0  0  0  0  0  0  0
  131.1450  123.9720   59.4280 C   0  0  0  0  0  0  0  0  0  0  0  0
  130.5820  123.8510   60.6950 C   0  0  0  0  0  0  0  0  0  0  0  0
  130.8400  124.7220   64.0980 C   0  0  0  0  0  0  0  0  0  0  0  0
  131.4980  126.0740   63.8720 C   0  0  0  0  0  0  0  0  0  0  0  0
  129.3630  126.7740   67.9940 C   0  0  0  0  0  0  0  0  0  0  0  0
  129.6180  126.1710   69.0420 O   0  0  0  0  0  0  0  0  0  0  0  0
  128.9310  128.0610   67.9360 N   0  0  0  0  0  0  0  0  0  0  0  0
  128.7530  128.8300   69.1910 C   0  0  0  0  0  0  0  0  0  0  0  0
  129.1570  128.0790   70.4560 C   0  0  0  0  0  0  0  0  0  0  0  0
  130.4700  128.1450   70.9160 C   0  0  0  0  0  0  0  0  0  0  0  0
  130.8400  127.4640   72.0730 C   0  0  0  0  0  0  0  0  0  0  0  0
  129.9040  126.7030   72.8020 C   0  0  0  0  0  0  0  0  0  0  0  0
  130.3090  125.9560   74.0580 C   0  0  0  0  0  0  0  0  0  0  0  0
  129.8500  124.8040   74.2500 O   0  0  0  0  0  0  0  0  0  0  0  0
  131.0910  126.5100   74.8670 O   0  0  0  0  0  0  0  0  0  0  0  0
  128.5810  126.6610   72.3220 C   0  0  0  0  0  0  0  0  0  0  0  0
  128.2100  127.3430   71.1670 C   0  0  0  0  0  0  0  0  0  0  0  0
  128.6710  131.3690   64.6630 C   0  0  0  0  0  0  0  0  0  0  0  0
  128.4750  131.7870   63.3500 C   0  0  0  0  0  0  0  0  0  0  0  0
  128.2914  133.2470   61.4616 H   0  0  0  0  0  0  0  0  0  0  0  0
  128.7922  132.2853   60.0295 H   0  0  0  0  0  0  0  0  0  0  0  0
  127.2124  133.1403   60.0295 H   0  0  0  0  0  0  0  0  0  0  0  0
  126.1824  129.4530   62.3854 H   0  0  0  0  0  0  0  0  0  0  0  0
  126.5481  128.7078   64.7233 H   0  0  0  0  0  0  0  0  0  0  0  0
  130.1971  124.4038   67.3828 H   0  0  0  0  0  0  0  0  0  0  0  0
  129.2099  122.2676   65.5514 H   0  0  0  0  0  0  0  0  0  0  0  0
  129.8415  120.5170   63.4925 H   0  0  0  0  0  0  0  0  0  0  0  0
  129.0727  121.4559   62.1682 H   0  0  0  0  0  0  0  0  0  0  0  0
  130.8496  121.1928   62.1682 H   0  0  0  0  0  0  0  0  0  0  0  0
  133.4336  123.9821   62.5776 H   0  0  0  0  0  0  0  0  0  0  0  0
  134.4374  124.1947   60.3084 H   0  0  0  0  0  0  0  0  0  0  0  0
  134.0742  126.0783   57.8186 H   0  0  0  0  0  0  0  0  0  0  0  0
  133.3461  125.3639   56.3421 H   0  0  0  0  0  0  0  0  0  0  0  0
  132.8323  127.5366   59.1953 H   0  0  0  0  0  0  0  0  0  0  0  0
  130.7134  128.7700   59.6571 H   0  0  0  0  0  0  0  0  0  0  0  0
  128.6577  126.3370   56.7336 H   0  0  0  0  0  0  0  0  0  0  0  0
  130.7738  125.0994   56.2713 H   0  0  0  0  0  0  0  0  0  0  0  0
  130.4977  123.9689   58.5386 H   0  0  0  0  0  0  0  0  0  0  0  0
  129.4923  123.7501   60.8066 H   0  0  0  0  0  0  0  0  0  0  0  0
  131.7241  126.5386   64.8431 H   0  0  0  0  0  0  0  0  0  0  0  0
  132.4305  125.9377   63.3047 H   0  0  0  0  0  0  0  0  0  0  0  0
  130.8154  126.7238   63.3047 H   0  0  0  0  0  0  0  0  0  0  0  0
  129.3629  129.7430   69.1239 H   0  0  0  0  0  0  0  0  0  0  0  0
  127.6765  129.0374   69.2807 H   0  0  0  0  0  0  0  0  0  0  0  0
  131.2160  128.7360   70.3645 H   0  0  0  0  0  0  0  0  0  0  0  0
  131.8809  127.5210   72.4241 H   0  0  0  0  0  0  0  0  0  0  0  0
  127.8263  126.0781   72.8703 H   0  0  0  0  0  0  0  0  0  0  0  0
  127.1688  127.3014   70.8147 H   0  0  0  0  0  0  0  0  0  0  0  0
  129.3860  131.9070   65.3027 H   0  0  0  0  0  0  0  0  0  0  0  0
  129.0276  132.6554   62.9622 H   0  0  0  0  0  0  0  0  0  0  0  0
  1  2  1  0
  2  3  1  0
  3  4  2  0
  4  5  1  0
  5  6  2  0
  6  7  1  0
  7  8  2  0
  8  9  1  0
  9 10  1  0
 10 11  2  0
 11 12  1  0
 12 13  1  0
 13 14  2  0
 14 15  1  0
 14 16  1  0
 16 17  1  0
 17 18  2  0
 18 19  1  0
 19 20  2  0
 20 21  1  0
 21 22  1  0
 22 23  1  0
 23 24  2  0
 24 25  1  0
 25 26  2  0
 26 27  1  0
 26 28  1  0
 28 29  2  0
 20 30  1  0
 30 31  2  0
 16 32  1  0
 32 33  1  0
 10 34  1  0
 34 35  2  0
 34 36  1  0
 36 37  1  0
 37 38  1  0
 38 39  2  0
 39 40  1  0
 40 41  2  0
 41 42  1  0
 42 43  2  0
 42 44  1  0
 41 45  1  0
 45 46  2  0
  6 47  1  0
 47 48  2  0
 48  3  1  0
 36  8  1  0
 46 38  1  0
 32 12  2  0
 31 17  1  0
 29 23  1  0
  1 49  1  0
  1 50  1  0
  1 51  1  0
  4 52  1  0
  5 53  1  0
 11 54  1  0
 13 55  1  0
 15 56  1  0
 15 57  1  0
 15 58  1  0
 18 59  1  0
 19 60  1  0
 22 61  1  0
 22 62  1  0
 24 63  1  0
 25 64  1  0
 28 65  1  0
 29 66  1  0
 30 67  1  0
 31 68  1  0
 33 69  1  0
 33 70  1  0
 33 71  1  0
 37 72  1  0
 37 73  1  0
 39 74  1  0
 40 75  1  0
 45 76  1  0
 46 77  1  0
 47 78  1  0
 48 79  1  0
M  CHG  1  44  -1
M  END
>  <Binding energies>  (1) 
[-9.84]

>  <Ligand effiencies>  (1) 
[-0.205]

>  <Interactions>  (1) 
["V-A:ASP:366:CA:3210, V-B:HIS:456:CD2:9039, V-A:GLU:543:C:4902, V-B:GLU:543:CB:9878, H-B:LYS:547:NZ:9923, V-B:ALA:541:CB:9864, V-B:TYR:539:CE2:9848, V-A:TYR:484:CE2:4346, V-B:GLU:543:CG:9879, V-A:GLY:544:C:4912, V-A:HIS:456:CD2:4068, V-A:ASP:366:CG:3213, V-B:TYR:484:CE2:9317, V-B:TYR:539:CZ:9849, H-B:TYR:539:OH:9850, V-A:GLU:543:CD:4908, H-B:TYR:484:OH:9319, V-B:HIS:456:CE1:9041, V-A:HIS:456:CE1:4070, V-B:TYR:484:CZ:9318, V-A:ASP:366:C:3208, V-B:TYR:539:CD2:9846, V-A:GLU:543:CG:4907, V-A:TYR:531:CZ:4794, V-B:GLU:543:CD:9880, V-A:ASP:366:CB:3212, H-A:LYS:547:NZ:4951, V-A:LEU:475:CD2:4259, V-A:ARG:545:CZ:4926, V-A:GLU:543:CB:4906"]

$$$$
ZINC408931539
     RDKit          3D

 62 65  0  0  0  0  0  0  0  0999 V2000
  129.0030  122.1110   60.6760 C   0  0  0  0  0  0  0  0  0  0  0  0
  129.8550  121.3600   61.7040 C   0  0  0  0  0  0  0  0  0  0  0  0
  131.1950  121.8410   61.6270 O   0  0  0  0  0  0  0  0  0  0  0  0
  131.6390  122.7870   62.5330 C   0  0  0  0  0  0  0  0  0  0  0  0
  130.8760  123.2400   63.6230 C   0  0  0  0  0  0  0  0  0  0  0  0
  131.3780  124.1920   64.5180 C   0  0  0  0  0  0  0  0  0  0  0  0
  130.6130  124.6710   65.6900 C   0  0  0  0  0  0  0  0  0  0  0  0
  129.8570  125.7910   65.7900 C   0  0  0  0  0  0  0  0  0  0  0  0
  129.4860  126.9960   64.5620 S   0  0  0  0  0  0  0  0  0  0  0  0
  128.4650  127.9460   65.6880 C   0  0  0  0  0  0  0  0  0  0  0  0
  127.8720  129.0360   65.3620 N   0  0  0  0  0  0  0  0  0  0  0  0
  127.9620  129.5880   64.0790 C   0  0  0  0  0  0  0  0  0  0  0  0
  128.6320  130.7980   63.8710 C   0  0  0  0  0  0  0  0  0  0  0  0
  128.6740  131.3800   62.6070 C   0  0  0  0  0  0  0  0  0  0  0  0
  128.0360  130.7710   61.5260 C   0  0  0  0  0  0  0  0  0  0  0  0
  128.1260  131.4210   60.3110 O   0  0  0  0  0  0  0  0  0  0  0  0
  128.5580  132.7760   60.2780 C   0  0  0  0  0  0  0  0  0  0  0  0
  127.3510  129.5640   61.7300 C   0  0  0  0  0  0  0  0  0  0  0  0
  127.3120  128.9860   62.9960 C   0  0  0  0  0  0  0  0  0  0  0  0
  128.4650  127.2750   66.8720 N   0  0  0  0  0  0  0  0  0  0  0  0
  127.6880  127.8040   68.0160 C   0  0  0  0  0  0  0  0  0  0  0  0
  128.3330  127.5640   69.3770 C   0  0  0  0  0  0  0  0  0  0  0  0
  129.6350  127.9940   69.6230 C   0  0  0  0  0  0  0  0  0  0  0  0
  130.2110  127.7910   70.8730 C   0  0  0  0  0  0  0  0  0  0  0  0
  129.4980  127.1610   71.9140 C   0  0  0  0  0  0  0  0  0  0  0  0
  130.1260  126.9410   73.2760 C   0  0  0  0  0  0  0  0  0  0  0  0
  129.7180  125.9890   73.9830 O   0  0  0  0  0  0  0  0  0  0  0  0
  131.0350  127.7180   73.6560 O   0  0  0  0  0  0  0  0  0  0  0  0
  128.1780  126.7480   71.6430 C   0  0  0  0  0  0  0  0  0  0  0  0
  127.6020  126.9510   70.3930 C   0  0  0  0  0  0  0  0  0  0  0  0
  129.1830  126.1300   67.0210 C   0  0  0  0  0  0  0  0  0  0  0  0
  129.2460  125.4790   68.0680 O   0  0  0  0  0  0  0  0  0  0  0  0
  132.6550  124.7090   64.2980 C   0  0  0  0  0  0  0  0  0  0  0  0
  133.4210  124.2760   63.2200 C   0  0  0  0  0  0  0  0  0  0  0  0
  132.9260  123.3080   62.3310 C   0  0  0  0  0  0  0  0  0  0  0  0
  133.6380  122.8270   61.2460 O   0  0  0  0  0  0  0  0  0  0  0  0
  133.6430  123.5630   60.0270 C   0  0  0  0  0  0  0  0  0  0  0  0
  128.2770  122.7510   61.1988 H   0  0  0  0  0  0  0  0  0  0  0  0
  129.6540  122.7344   60.0455 H   0  0  0  0  0  0  0  0  0  0  0  0
  128.4662  121.3869   60.0455 H   0  0  0  0  0  0  0  0  0  0  0  0
  129.4563  121.5355   62.7141 H   0  0  0  0  0  0  0  0  0  0  0  0
  129.8318  120.2807   61.4928 H   0  0  0  0  0  0  0  0  0  0  0  0
  129.8635  122.8381   63.7759 H   0  0  0  0  0  0  0  0  0  0  0  0
  130.6641  124.0410   66.5903 H   0  0  0  0  0  0  0  0  0  0  0  0
  129.1313  131.2953   64.7156 H   0  0  0  0  0  0  0  0  0  0  0  0
  129.2141  132.3269   62.4595 H   0  0  0  0  0  0  0  0  0  0  0  0
  128.6767  133.1482   61.3063 H   0  0  0  0  0  0  0  0  0  0  0  0
  129.5214  132.8410   59.7511 H   0  0  0  0  0  0  0  0  0  0  0  0
  127.8100  133.3866   59.7511 H   0  0  0  0  0  0  0  0  0  0  0  0
  126.8431  129.0726   60.8871 H   0  0  0  0  0  0  0  0  0  0  0  0
  126.7635  128.0445   63.1467 H   0  0  0  0  0  0  0  0  0  0  0  0
  127.5673  128.8887   67.8784 H   0  0  0  0  0  0  0  0  0  0  0  0
  126.7293  127.2647   68.0221 H   0  0  0  0  0  0  0  0  0  0  0  0
  130.2080  128.4943   68.8284 H   0  0  0  0  0  0  0  0  0  0  0  0
  131.2424  128.1284   71.0529 H   0  0  0  0  0  0  0  0  0  0  0  0
  127.5927  126.2563   72.4340 H   0  0  0  0  0  0  0  0  0  0  0  0
  126.5675  126.6270   70.2062 H   0  0  0  0  0  0  0  0  0  0  0  0
  133.0607  125.4671   64.9841 H   0  0  0  0  0  0  0  0  0  0  0  0
  134.4252  124.6965   63.0624 H   0  0  0  0  0  0  0  0  0  0  0  0
  133.6503  124.6403   60.2492 H   0  0  0  0  0  0  0  0  0  0  0  0
  134.5394  123.3025   59.4451 H   0  0  0  0  0  0  0  0  0  0  0  0
  132.7431  123.3147   59.4451 H   0  0  0  0  0  0  0  0  0  0  0  0
  1  2  1  0
  2  3  1  0
  3  4  1  0
  4  5  2  0
  5  6  1  0
  6  7  1  0
  7  8  2  0
  8  9  1  0
  9 10  1  0
 10 11  2  0
 11 12  1  0
 12 13  2  0
 13 14  1  0
 14 15  2  0
 15 16  1  0
 16 17  1  0
 15 18  1  0
 18 19  2  0
 10 20  1  0
 20 21  1  0
 21 22  1  0
 22 23  2  0
 23 24  1  0
 24 25  2  0
 25 26  1  0
 26 27  2  0
 26 28  1  0
 25 29  1  0
 29 30  2  0
 20 31  1  0
 31 32  2  0
  6 33  2  0
 33 34  1  0
 34 35  2  0
 35 36  1  0
 36 37  1  0
 35  4  1  0
 31  8  1  0
 19 12  1  0
 30 22  1  0
  1 38  1  0
  1 39  1  0
  1 40  1  0
  2 41  1  0
  2 42  1  0
  5 43  1  0
  7 44  1  0
 13 45  1  0
 14 46  1  0
 17 47  1  0
 17 48  1  0
 17 49  1  0
 18 50  1  0
 19 51  1  0
 21 52  1  0
 21 53  1  0
 23 54  1  0
 24 55  1  0
 29 56  1  0
 30 57  1  0
 33 58  1  0
 34 59  1  0
 37 60  1  0
 37 61  1  0
 37 62  1  0
M  CHG  1  28  -1
M  END
>  <Binding energies>  (1) 
[-8.5]

>  <Ligand effiencies>  (1) 
[-0.22972972972972974]

>  <Interactions>  (1) 
["V-A:ILE:369:CG2:3237, V-B:PRO:540:CA:9855, V-B:GLU:543:C:9874, V-A:ILE:369:CB:3236, V-B:GLU:543:CB:9878, H-B:LYS:547:NZ:9923, V-B:ALA:541:CB:9864, V-B:TYR:539:CE2:9848, V-A:TYR:484:CE2:4346, V-B:GLU:543:CG:9879, V-A:HIS:456:CD2:4068, V-A:TYR:484:CZ:4347, V-A:GLU:543:CD:4908, H-B:TYR:484:OH:9319, V-B:HIS:456:CE1:9041, V-A:ILE:369:CD1:3239, V-A:HIS:456:CE1:4070, V-B:GLY:544:C:9884, V-B:TYR:539:CD2:9846, V-A:GLU:543:CG:4907, V-B:GLU:543:CD:9880, H-A:LYS:547:NZ:4951, V-A:LEU:475:CD2:4259, V-A:ARG:545:CZ:4926, V-A:GLU:543:CB:4906, V-A:PRO:540:CA:4883"]

$$$$
ZINC408944025
     RDKit          3D

 76 79  0  0  0  0  0  0  0  0999 V2000
  131.3970  125.7990   58.4520 C   0  0  0  0  0  0  0  0  0  0  0  0
  131.2990  125.1110   59.8160 C   0  0  0  0  0  0  0  0  0  0  0  0
  129.9800  125.2900   60.3250 O   0  0  0  0  0  0  0  0  0  0  0  0
  129.4440  126.5630   60.4080 C   0  0  0  0  0  0  0  0  0  0  0  0
  130.1200  127.6570   60.9740 C   0  0  0  0  0  0  0  0  0  0  0  0
  129.5280  128.9240   61.0340 C   0  0  0  0  0  0  0  0  0  0  0  0
  130.2810  130.1140   61.6490 C   0  0  1  0  0  0  0  0  0  0  0  0
  131.2530  130.7100   60.6960 N   0  0  0  0  0  0  0  0  0  0  0  0
  130.9820  131.7700   59.8880 C   0  0  0  0  0  0  0  0  0  0  0  0
  131.5380  131.9390   58.8060 O   0  0  0  0  0  0  0  0  0  0  0  0
  129.9790  132.5680   60.3290 N   0  0  0  0  0  0  0  0  0  0  0  0
  129.2140  132.3640   61.4400 C   0  0  0  0  0  0  0  0  0  0  0  0
  128.3340  133.5780   61.7380 C   0  0  0  0  0  0  0  0  0  0  0  0
  129.3630  131.2400   62.1940 C   0  0  0  0  0  0  0  0  0  0  0  0
  128.4990  130.9170   63.3600 C   0  0  0  0  0  0  0  0  0  0  0  0
  128.2960  131.6890   64.3010 O   0  0  0  0  0  0  0  0  0  0  0  0
  127.9390  129.6830   63.2870 O   0  0  0  0  0  0  0  0  0  0  0  0
  127.7070  128.9160   64.4620 C   0  0  0  0  0  0  0  0  0  0  0  0
  128.2480  129.0940   60.5050 C   0  0  0  0  0  0  0  0  0  0  0  0
  127.5680  128.0210   59.9380 C   0  0  0  0  0  0  0  0  0  0  0  0
  128.1530  126.7450   59.8910 C   0  0  0  0  0  0  0  0  0  0  0  0
  127.5240  125.6300   59.3630 O   0  0  0  0  0  0  0  0  0  0  0  0
  126.5070  124.9670   60.1100 C   0  0  0  0  0  0  0  0  0  0  0  0
  127.0630  123.6490   60.6980 C   0  0  1  0  0  0  0  0  0  0  0  0
  128.0290  123.0920   59.8290 O   0  0  0  0  0  0  0  0  0  0  0  0
  127.4310  123.7360   62.1180 N   0  0  0  0  0  0  0  0  0  0  0  0
  128.7570  123.8100   62.6350 N   0  0  0  0  0  0  0  0  0  0  0  0
  129.1160  124.6730   63.5010 C   0  0  0  0  0  0  0  0  0  0  0  0
  130.4930  124.7960   64.0040 C   0  0  0  0  0  0  0  0  0  0  0  0
  131.5800  124.5450   63.1500 C   0  0  0  0  0  0  0  0  0  0  0  0
  132.8900  124.6920   63.5930 C   0  0  0  0  0  0  0  0  0  0  0  0
  134.3410  124.3490   62.4080 Br  0  0  0  0  0  0  0  0  0  0  0  0
  133.1390  125.0970   64.8990 C   0  0  0  0  0  0  0  0  0  0  0  0
  132.0760  125.3420   65.7640 C   0  0  0  0  0  0  0  0  0  0  0  0
  130.7450  125.1840   65.3370 C   0  0  0  0  0  0  0  0  0  0  0  0
  129.6590  125.3790   66.1770 O   0  0  0  0  0  0  0  0  0  0  0  0
  129.1270  126.6880   66.3730 C   0  0  0  0  0  0  0  0  0  0  0  0
  129.2060  127.0430   67.8490 C   0  0  0  0  0  0  0  0  0  0  0  0
  130.4180  127.4490   68.4150 C   0  0  0  0  0  0  0  0  0  0  0  0
  130.4850  127.7440   69.7740 C   0  0  0  0  0  0  0  0  0  0  0  0
  129.3440  127.6270   70.5650 C   0  0  0  0  0  0  0  0  0  0  0  0
  129.4480  128.0520   72.6100 I   0  0  0  0  0  0  0  0  0  0  0  0
  128.1340  127.2240   70.0050 C   0  0  0  0  0  0  0  0  0  0  0  0
  128.0630  126.9350   68.6460 C   0  0  0  0  0  0  0  0  0  0  0  0
  131.5508  126.8786   58.5961 H   0  0  0  0  0  0  0  0  0  0  0  0
  132.2445  125.3797   57.8899 H   0  0  0  0  0  0  0  0  0  0  0  0
  130.4661  125.6330   57.8899 H   0  0  0  0  0  0  0  0  0  0  0  0
  131.5102  124.0372   59.7048 H   0  0  0  0  0  0  0  0  0  0  0  0
  132.0310  125.5496   60.5101 H   0  0  0  0  0  0  0  0  0  0  0  0
  131.1334  127.5152   61.3775 H   0  0  0  0  0  0  0  0  0  0  0  0
  130.8123  129.6761   62.5069 H   0  0  0  0  0  0  0  0  0  0  0  0
  131.9900  130.1010   60.3700 H   0  0  0  0  0  0  0  0  0  0  0  0
  129.8480  133.4140   59.7940 H   0  0  0  0  0  0  0  0  0  0  0  0
  128.2416  133.7055   62.8267 H   0  0  0  0  0  0  0  0  0  0  0  0
  128.7908  134.4781   61.3009 H   0  0  0  0  0  0  0  0  0  0  0  0
  127.3364  133.4239   61.3009 H   0  0  0  0  0  0  0  0  0  0  0  0
  127.8953  129.5384   65.3492 H   0  0  0  0  0  0  0  0  0  0  0  0
  126.6635  128.5682   64.4728 H   0  0  0  0  0  0  0  0  0  0  0  0
  128.3828  128.0482   64.4728 H   0  0  0  0  0  0  0  0  0  0  0  0
  127.7724  130.0854   60.5366 H   0  0  0  0  0  0  0  0  0  0  0  0
  126.5612  128.1736   59.5220 H   0  0  0  0  0  0  0  0  0  0  0  0
  126.1718  125.6196   60.9296 H   0  0  0  0  0  0  0  0  0  0  0  0
  125.6595  124.7395   59.4467 H   0  0  0  0  0  0  0  0  0  0  0  0
  126.2463  122.9132   60.7386 H   0  0  0  0  0  0  0  0  0  0  0  0
  128.6370  123.7880   59.5660 H   0  0  0  0  0  0  0  0  0  0  0  0
  126.6960  123.9130   62.7890 H   0  0  0  0  0  0  0  0  0  0  0  0
  128.3551  125.3635   63.8938 H   0  0  0  0  0  0  0  0  0  0  0  0
  131.3918  124.2270   62.1139 H   0  0  0  0  0  0  0  0  0  0  0  0
  134.1742  125.2237   65.2486 H   0  0  0  0  0  0  0  0  0  0  0  0
  132.2798  125.6637   66.7960 H   0  0  0  0  0  0  0  0  0  0  0  0
  129.7109  127.4139   65.7881 H   0  0  0  0  0  0  0  0  0  0  0  0
  128.0784  126.7145   66.0418 H   0  0  0  0  0  0  0  0  0  0  0  0
  131.3174  127.5353   67.7876 H   0  0  0  0  0  0  0  0  0  0  0  0
  131.4359  128.0685   70.2219 H   0  0  0  0  0  0  0  0  0  0  0  0
  127.2371  127.1345   70.6355 H   0  0  0  0  0  0  0  0  0  0  0  0
  127.1080  126.6217   68.1991 H   0  0  0  0  0  0  0  0  0  0  0  0
  1  2  1  0
  2  3  1  0
  3  4  1  0
  4  5  2  0
  5  6  1  0
  6  7  1  0
  7  8  1  0
  8  9  1  0
  9 10  2  0
  9 11  1  0
 11 12  1  0
 12 13  1  0
 12 14  2  0
 14 15  1  0
 15 16  2  0
 15 17  1  0
 17 18  1  0
  6 19  2  0
 19 20  1  0
 20 21  2  0
 21 22  1  0
 22 23  1  0
 23 24  1  0
 24 25  1  0
 24 26  1  0
 26 27  1  0
 27 28  2  0
 28 29  1  0
 29 30  2  0
 30 31  1  0
 31 32  1  0
 31 33  2  0
 33 34  1  0
 34 35  2  0
 35 36  1  0
 36 37  1  0
 37 38  1  0
 38 39  2  0
 39 40  1  0
 40 41  2  0
 41 42  1  0
 41 43  1  0
 43 44  2  0
 21  4  1  0
 35 29  1  0
 44 38  1  0
 14  7  1  0
  1 45  1  0
  1 46  1  0
  1 47  1  0
  2 48  1  0
  2 49  1  0
  5 50  1  0
  7 51  1  1
  8 52  1  0
 11 53  1  0
 13 54  1  0
 13 55  1  0
 13 56  1  0
 18 57  1  0
 18 58  1  0
 18 59  1  0
 19 60  1  0
 20 61  1  0
 23 62  1  0
 23 63  1  0
 24 64  1  1
 25 65  1  0
 26 66  1  0
 28 67  1  0
 30 68  1  0
 33 69  1  0
 34 70  1  0
 37 71  1  0
 37 72  1  0
 39 73  1  0
 40 74  1  0
 43 75  1  0
 44 76  1  0
M  END
>  <Binding energies>  (1) 
[-8.19]

>  <Ligand effiencies>  (1) 
[-0.170625]

>  <Interactions>  (1) 
["V-B:PRO:540:CA:9855, V-B:GLU:543:C:9874, V-A:GLU:543:C:4902, V-A:PRO:540:C:4881, V-B:GLU:543:CB:9878, V-B:GLU:543:CG:9879, H-B:GLU:543:OE1:9881, V-A:ALA:541:CB:4892, V-A:GLU:543:CD:4908, H-B:TYR:484:OH:9319, V-B:HIS:456:CE1:9041, V-A:GLY:453:C:4042, V-A:ILE:369:CD1:3239, V-A:HIS:456:CE1:4070, V-A:GLU:543:CG:4907, V-B:GLU:543:CD:9880, V-A:ARG:545:CZ:4926, V-A:GLU:543:CB:4906, H-A:TYR:539:O:4868, V-A:PRO:540:N:4884, V-A:PRO:540:CB:4885, V-A:PRO:540:CA:4883, V-A:GLY:453:CA:4044, H-A:ASP:366:OD2:3215"]

$$$$
ZINC408945831
     RDKit          3D

 81 84  0  0  0  0  0  0  0  0999 V2000
  128.1130  124.2060   57.1820 C   0  0  0  0  0  0  0  0  0  0  0  0
  128.8560  125.5270   56.9640 C   0  0  0  0  0  0  0  0  0  0  0  0
  129.0220  126.1690   58.2250 O   0  0  0  0  0  0  0  0  0  0  0  0
  130.0330  125.7580   59.0770 C   0  0  0  0  0  0  0  0  0  0  0  0
  129.8660  124.7720   60.0660 C   0  0  0  0  0  0  0  0  0  0  0  0
  130.9230  124.4000   60.9030 C   0  0  0  0  0  0  0  0  0  0  0  0
  130.7210  123.3370   61.9910 C   0  0  1  0  0  0  0  0  0  0  0  0
  129.3070  123.2280   62.4350 N   0  0  0  0  0  0  0  0  0  0  0  0
  128.4200  122.3030   61.9780 C   0  0  0  0  0  0  0  0  0  0  0  0
  127.2090  122.5030   61.9470 O   0  0  0  0  0  0  0  0  0  0  0  0
  128.9910  121.1900   61.4550 N   0  0  0  0  0  0  0  0  0  0  0  0
  130.3260  120.9710   61.2840 C   0  0  0  0  0  0  0  0  0  0  0  0
  130.5960  119.5340   60.8380 C   0  0  0  0  0  0  0  0  0  0  0  0
  131.2400  121.9270   61.6000 C   0  0  0  0  0  0  0  0  0  0  0  0
  132.7000  121.7830   61.3460 C   0  0  0  0  0  0  0  0  0  0  0  0
  133.1790  121.3960   60.2780 O   0  0  0  0  0  0  0  0  0  0  0  0
  133.4650  122.1360   62.4100 O   0  0  0  0  0  0  0  0  0  0  0  0
  134.3530  123.2440   62.3440 C   0  0  0  0  0  0  0  0  0  0  0  0
  132.1600  125.0290   60.7480 C   0  0  0  0  0  0  0  0  0  0  0  0
  132.3420  126.0020   59.7710 C   0  0  0  0  0  0  0  0  0  0  0  0
  131.2830  126.3760   58.9260 C   0  0  0  0  0  0  0  0  0  0  0  0
  131.3950  127.3350   57.9350 O   0  0  0  0  0  0  0  0  0  0  0  0
  130.9990  128.6800   58.2020 C   0  0  0  0  0  0  0  0  0  0  0  0
  131.2190  129.0270   59.6890 C   0  0  1  0  0  0  0  0  0  0  0  0
  131.6570  130.3670   59.8000 O   0  0  0  0  0  0  0  0  0  0  0  0
  130.0160  128.6840   60.4560 N   0  0  0  0  0  0  0  0  0  0  0  0
  130.0470  128.1260   61.7680 N   0  0  0  0  0  0  0  0  0  0  0  0
  129.0160  128.0610   62.5160 C   0  0  0  0  0  0  0  0  0  0  0  0
  129.0220  127.5000   63.8740 C   0  0  0  0  0  0  0  0  0  0  0  0
  129.5160  126.2060   64.0740 C   0  0  0  0  0  0  0  0  0  0  0  0
  129.5420  125.6350   65.3430 C   0  0  0  0  0  0  0  0  0  0  0  0
  130.2240  123.8700   65.5630 Br  0  0  0  0  0  0  0  0  0  0  0  0
  129.0730  126.3570   66.4440 C   0  0  0  0  0  0  0  0  0  0  0  0
  129.0990  125.7810   67.6950 O   0  0  0  0  0  0  0  0  0  0  0  0
  129.0750  126.5470   68.8470 C   0  0  0  0  0  0  0  0  0  0  0  0
  127.9420  126.6420   69.6720 C   0  0  0  0  0  0  0  0  0  0  0  0
  127.9660  127.4040   70.8360 C   0  0  0  0  0  0  0  0  0  0  0  0
  129.1200  128.0960   71.2140 C   0  0  0  0  0  0  0  0  0  0  0  0
  129.1470  128.9080   72.4560 N   0  0  0  0  0  0  0  0  0  0  0  0
  130.1250  129.6190   72.6730 O   0  0  0  0  0  0  0  0  0  0  0  0
  128.1910  128.8400   73.2230 O   0  0  0  0  0  0  0  0  0  0  0  0
  130.2500  128.0070   70.3880 C   0  0  0  0  0  0  0  0  0  0  0  0
  130.2410  127.2470   69.2090 C   0  0  0  0  0  0  0  0  0  0  0  0
  131.4590  127.2060   68.3720 N   0  0  0  0  0  0  0  0  0  0  0  0
  131.6050  126.2720   67.5880 O   0  0  0  0  0  0  0  0  0  0  0  0
  132.2620  128.1270   68.4770 O   0  0  0  0  0  0  0  0  0  0  0  0
  128.5650  127.6510   66.2770 C   0  0  0  0  0  0  0  0  0  0  0  0
  128.1120  128.3000   67.4110 O   0  0  0  0  0  0  0  0  0  0  0  0
  128.2270  129.7160   67.5000 C   0  0  0  0  0  0  0  0  0  0  0  0
  128.5490  128.2110   64.9880 C   0  0  0  0  0  0  0  0  0  0  0  0
  128.0075  124.0184   58.2607 H   0  0  0  0  0  0  0  0  0  0  0  0
  127.1161  124.2656   56.7209 H   0  0  0  0  0  0  0  0  0  0  0  0
  128.6817  123.3850   56.7209 H   0  0  0  0  0  0  0  0  0  0  0  0
  129.8412  125.3285   56.5167 H   0  0  0  0  0  0  0  0  0  0  0  0
  128.2805  126.1742   56.2858 H   0  0  0  0  0  0  0  0  0  0  0  0
  128.8868  124.2848   60.1833 H   0  0  0  0  0  0  0  0  0  0  0  0
  131.3347  123.7020   62.8278 H   0  0  0  0  0  0  0  0  0  0  0  0
  128.8940  124.0630   62.8250 H   0  0  0  0  0  0  0  0  0  0  0  0
  128.3400  120.4550   61.2200 H   0  0  0  0  0  0  0  0  0  0  0  0
  130.7166  118.8919   61.7230 H   0  0  0  0  0  0  0  0  0  0  0  0
  129.7501  119.1722   60.2350 H   0  0  0  0  0  0  0  0  0  0  0  0
  131.5155  119.5039   60.2350 H   0  0  0  0  0  0  0  0  0  0  0  0
  134.6122  123.5674   63.3629 H   0  0  0  0  0  0  0  0  0  0  0  0
  135.2678  122.9493   61.8090 H   0  0  0  0  0  0  0  0  0  0  0  0
  133.8662  124.0727   61.8090 H   0  0  0  0  0  0  0  0  0  0  0  0
  132.9981  124.7524   61.4046 H   0  0  0  0  0  0  0  0  0  0  0  0
  133.3245  126.4836   59.6585 H   0  0  0  0  0  0  0  0  0  0  0  0
  131.5960  129.3627   57.5795 H   0  0  0  0  0  0  0  0  0  0  0  0
  129.9296  128.7875   57.9677 H   0  0  0  0  0  0  0  0  0  0  0  0
  132.0234  128.4245   60.1360 H   0  0  0  0  0  0  0  0  0  0  0  0
  132.5600  130.3680   60.1270 H   0  0  0  0  0  0  0  0  0  0  0  0
  129.1770  129.2080   60.2510 H   0  0  0  0  0  0  0  0  0  0  0  0
  128.0653  128.4482   62.1208 H   0  0  0  0  0  0  0  0  0  0  0  0
  129.8899  125.6308   63.2142 H   0  0  0  0  0  0  0  0  0  0  0  0
  127.0225  126.1062   69.3938 H   0  0  0  0  0  0  0  0  0  0  0  0
  127.0662  127.4625   71.4661 H   0  0  0  0  0  0  0  0  0  0  0  0
  131.1658  128.5464   70.6717 H   0  0  0  0  0  0  0  0  0  0  0  0
  128.2514  130.0161   68.5580 H   0  0  0  0  0  0  0  0  0  0  0  0
  129.1544  130.0404   67.0054 H   0  0  0  0  0  0  0  0  0  0  0  0
  127.3640  130.1858   67.0054 H   0  0  0  0  0  0  0  0  0  0  0  0
  128.1570  129.2293   64.8490 H   0  0  0  0  0  0  0  0  0  0  0  0
  1  2  1  0
  2  3  1  0
  3  4  1  0
  4  5  2  0
  5  6  1  0
  6  7  1  0
  7  8  1  0
  8  9  1  0
  9 10  2  0
  9 11  1  0
 11 12  1  0
 12 13  1  0
 12 14  2  0
 14 15  1  0
 15 16  2  0
 15 17  1  0
 17 18  1  0
  6 19  2  0
 19 20  1  0
 20 21  2  0
 21 22  1  0
 22 23  1  0
 23 24  1  0
 24 25  1  0
 24 26  1  0
 26 27  1  0
 27 28  2  0
 28 29  1  0
 29 30  2  0
 30 31  1  0
 31 32  1  0
 31 33  2  0
 33 34  1  0
 34 35  1  0
 35 36  2  0
 36 37  1  0
 37 38  2  0
 38 39  1  0
 39 40  2  0
 39 41  1  0
 38 42  1  0
 42 43  2  0
 43 44  1  0
 44 45  2  0
 44 46  1  0
 33 47  1  0
 47 48  1  0
 48 49  1  0
 47 50  2  0
 21  4  1  0
 50 29  1  0
 14  7  1  0
 43 35  1  0
  1 51  1  0
  1 52  1  0
  1 53  1  0
  2 54  1  0
  2 55  1  0
  5 56  1  0
  7 57  1  1
  8 58  1  0
 11 59  1  0
 13 60  1  0
 13 61  1  0
 13 62  1  0
 18 63  1  0
 18 64  1  0
 18 65  1  0
 19 66  1  0
 20 67  1  0
 23 68  1  0
 23 69  1  0
 24 70  1  1
 25 71  1  0
 26 72  1  0
 28 73  1  0
 30 74  1  0
 36 75  1  0
 37 76  1  0
 42 77  1  0
 49 78  1  0
 49 79  1  0
 49 80  1  0
 50 81  1  0
M  CHG  4  39   1  41  -1  44   1  46  -1
M  END
>  <Binding energies>  (1) 
[-6.95]

>  <Ligand effiencies>  (1) 
[-0.1287037037037037]

>  <Interactions>  (1) 
["V-B:PRO:540:CA:9855, V-A:GLU:543:CA:4904, V-A:GLY:454:CA:4049, V-B:GLU:543:C:9874, V-B:HIS:456:CD2:9039, V-A:GLU:543:C:4902, V-B:GLU:543:CB:9878, V-B:ALA:541:CB:9864, H-A:TYR:531:OH:4795, V-B:TYR:539:CE2:9848, V-A:TYR:484:CE2:4346, V-B:GLU:543:CG:9879, V-B:TYR:539:C:9839, V-A:ASP:366:CG:3213, H-A:ARG:545:N:4920, V-B:TYR:484:CE2:9317, V-B:TYR:539:CZ:9849, H-B:GLU:543:OE1:9881, H-B:ALA:541:N:9863, V-A:GLU:543:CD:4908, V-A:TYR:484:CZ:4347, V-B:HIS:456:CE1:9041, V-A:ARG:545:CG:4922, V-A:GLY:453:C:4042, V-A:ILE:369:CD1:3239, V-B:TYR:484:CZ:9318, V-A:HIS:456:CE1:4070, V-B:TYR:539:CD2:9846, V-A:GLU:543:CG:4907, V-B:GLU:543:CD:9880, V-A:ASP:366:CB:3212, H-A:LYS:547:NZ:4951, V-A:LEU:475:CD2:4259, V-A:GLU:543:CB:4906, H-B:TYR:539:O:9840, H-A:ARG:545:NE:4924, V-B:PRO:540:C:9853, H-A:ASP:366:OD2:3215, V-B:ALA:541:CA:9862, H-A:HIS:456:ND1:4067, H-A:TYR:484:OH:4348, H-B:PRO:540:O:9854"]

$$$$
ZINC408946278
     RDKit          3D

 83 86  0  0  0  0  0  0  0  0999 V2000
  131.8510  125.5570   66.8650 C   0  0  0  0  0  0  0  0  0  0  0  0
  130.6370  125.1300   66.0350 C   0  0  0  0  0  0  0  0  0  0  0  0
  129.4540  125.5170   66.7290 O   0  0  0  0  0  0  0  0  0  0  0  0
  128.8600  126.7360   66.4530 C   0  0  0  0  0  0  0  0  0  0  0  0
  128.9110  127.3650   65.1960 C   0  0  0  0  0  0  0  0  0  0  0  0
  128.2890  128.5980   64.9680 C   0  0  0  0  0  0  0  0  0  0  0  0
  128.3730  129.2150   63.6360 C   0  0  0  0  0  0  0  0  0  0  0  0
  128.9950  130.2950   63.3910 N   0  0  0  0  0  0  0  0  0  0  0  0
  128.9750  130.7370   62.0640 N   0  0  0  0  0  0  0  0  0  0  0  0
  130.1980  131.3820   61.6080 C   0  0  1  0  0  0  0  0  0  0  0  0
  131.0040  131.9630   62.6150 O   0  0  0  0  0  0  0  0  0  0  0  0
  131.0420  130.3640   60.8140 C   0  0  0  0  0  0  0  0  0  0  0  0
  130.2140  129.3180   60.3050 O   0  0  0  0  0  0  0  0  0  0  0  0
  130.1540  128.1020   60.9640 C   0  0  0  0  0  0  0  0  0  0  0  0
  131.2790  127.4430   61.4860 C   0  0  0  0  0  0  0  0  0  0  0  0
  131.1470  126.2190   62.1340 C   0  0  0  0  0  0  0  0  0  0  0  0
  129.8910  125.6230   62.2750 C   0  0  0  0  0  0  0  0  0  0  0  0
  129.7460  124.2750   62.9970 C   0  0  1  0  0  0  0  0  0  0  0  0
  128.3420  123.7860   63.0220 N   0  0  0  0  0  0  0  0  0  0  0  0
  127.8240  122.8750   62.1570 C   0  0  0  0  0  0  0  0  0  0  0  0
  126.6330  122.8450   61.8590 O   0  0  0  0  0  0  0  0  0  0  0  0
  128.7460  122.0760   61.5640 N   0  0  0  0  0  0  0  0  0  0  0  0
  130.1000  122.1680   61.6970 C   0  0  0  0  0  0  0  0  0  0  0  0
  130.8030  120.9880   61.0270 C   0  0  0  0  0  0  0  0  0  0  0  0
  130.6660  123.1550   62.4430 C   0  0  0  0  0  0  0  0  0  0  0  0
  132.1360  123.3630   62.5480 C   0  0  0  0  0  0  0  0  0  0  0  0
  132.7480  123.4290   63.6160 O   0  0  0  0  0  0  0  0  0  0  0  0
  132.7500  123.4590   61.3410 O   0  0  0  0  0  0  0  0  0  0  0  0
  133.9160  124.2530   61.1700 C   0  0  0  0  0  0  0  0  0  0  0  0
  128.7680  126.2800   61.7620 C   0  0  0  0  0  0  0  0  0  0  0  0
  128.8870  127.5190   61.1080 C   0  0  0  0  0  0  0  0  0  0  0  0
  127.8120  128.2150   60.5830 O   0  0  0  0  0  0  0  0  0  0  0  0
  126.4840  127.7710   60.8490 C   0  0  0  0  0  0  0  0  0  0  0  0
  125.7410  128.8730   61.6090 C   0  0  0  0  0  0  0  0  0  0  0  0
  127.6040  129.2010   66.0300 C   0  0  0  0  0  0  0  0  0  0  0  0
  127.5460  128.5920   67.2810 C   0  0  0  0  0  0  0  0  0  0  0  0
  128.1720  127.3570   67.5050 C   0  0  0  0  0  0  0  0  0  0  0  0
  128.1560  126.6970   68.7210 O   0  0  0  0  0  0  0  0  0  0  0  0
  129.2980  126.7530   69.5730 C   0  0  0  0  0  0  0  0  0  0  0  0
  128.8980  127.2850   70.9430 C   0  0  0  0  0  0  0  0  0  0  0  0
  129.7750  128.1140   71.6500 C   0  0  0  0  0  0  0  0  0  0  0  0
  129.4120  128.6060   72.9010 C   0  0  0  0  0  0  0  0  0  0  0  0
  128.1720  128.2720   73.4420 C   0  0  0  0  0  0  0  0  0  0  0  0
  127.6780  128.9450   75.1520 Br  0  0  0  0  0  0  0  0  0  0  0  0
  127.2900  127.4530   72.7400 C   0  0  0  0  0  0  0  0  0  0  0  0
  127.6520  126.9600   71.4900 C   0  0  0  0  0  0  0  0  0  0  0  0
  131.6114  125.4727   67.9353 H   0  0  0  0  0  0  0  0  0  0  0  0
  132.7048  124.9052   66.6280 H   0  0  0  0  0  0  0  0  0  0  0  0
  132.1088  126.5998   66.6280 H   0  0  0  0  0  0  0  0  0  0  0  0
  130.6681  125.6227   65.0520 H   0  0  0  0  0  0  0  0  0  0  0  0
  130.6469  124.0400   65.8872 H   0  0  0  0  0  0  0  0  0  0  0  0
  129.4525  126.8764   64.3726 H   0  0  0  0  0  0  0  0  0  0  0  0
  127.8660  128.7103   62.8004 H   0  0  0  0  0  0  0  0  0  0  0  0
  128.6040  130.0430   61.4310 H   0  0  0  0  0  0  0  0  0  0  0  0
  129.8609  132.2249   60.9868 H   0  0  0  0  0  0  0  0  0  0  0  0
  130.9390  131.4190   63.4030 H   0  0  0  0  0  0  0  0  0  0  0  0
  131.5337  130.8776   59.9747 H   0  0  0  0  0  0  0  0  0  0  0  0
  131.7963  129.9267   61.4847 H   0  0  0  0  0  0  0  0  0  0  0  0
  132.2745  127.8992   61.3815 H   0  0  0  0  0  0  0  0  0  0  0  0
  132.0381  125.7166   62.5384 H   0  0  0  0  0  0  0  0  0  0  0  0
  130.0718  124.4945   64.0245 H   0  0  0  0  0  0  0  0  0  0  0  0
  127.6660  124.3870   63.4700 H   0  0  0  0  0  0  0  0  0  0  0  0
  128.3580  121.3250   61.0110 H   0  0  0  0  0  0  0  0  0  0  0  0
  131.2044  120.3143   61.7984 H   0  0  0  0  0  0  0  0  0  0  0  0
  130.0837  120.4405   60.4002 H   0  0  0  0  0  0  0  0  0  0  0  0
  131.6269  121.3599   60.4002 H   0  0  0  0  0  0  0  0  0  0  0  0
  134.3200  124.5281   62.1554 H   0  0  0  0  0  0  0  0  0  0  0  0
  134.6708  123.6804   60.6111 H   0  0  0  0  0  0  0  0  0  0  0  0
  133.6598  125.1651   60.6111 H   0  0  0  0  0  0  0  0  0  0  0  0
  127.7750  125.8197   61.8720 H   0  0  0  0  0  0  0  0  0  0  0  0
  125.9668  127.5618   59.9010 H   0  0  0  0  0  0  0  0  0  0  0  0
  126.5100  126.8516   61.4524 H   0  0  0  0  0  0  0  0  0  0  0  0
  125.8509  128.7101   62.6913 H   0  0  0  0  0  0  0  0  0  0  0  0
  126.1639  129.8524   61.3409 H   0  0  0  0  0  0  0  0  0  0  0  0
  124.6745  128.8483   61.3409 H   0  0  0  0  0  0  0  0  0  0  0  0
  127.1050  130.1688   65.8740 H   0  0  0  0  0  0  0  0  0  0  0  0
  127.0038  129.0844   68.1017 H   0  0  0  0  0  0  0  0  0  0  0  0
  129.7206  125.7434   69.6831 H   0  0  0  0  0  0  0  0  0  0  0  0
  130.0481  127.4241   69.1291 H   0  0  0  0  0  0  0  0  0  0  0  0
  130.7516  128.3773   71.2177 H   0  0  0  0  0  0  0  0  0  0  0  0
  130.1014  129.2558   73.4600 H   0  0  0  0  0  0  0  0  0  0  0  0
  126.3114  127.1971   73.1722 H   0  0  0  0  0  0  0  0  0  0  0  0
  126.9581  126.3144   70.9317 H   0  0  0  0  0  0  0  0  0  0  0  0
  1  2  1  0
  2  3  1  0
  3  4  1  0
  4  5  2  0
  5  6  1  0
  6  7  1  0
  7  8  2  0
  8  9  1  0
  9 10  1  0
 10 11  1  0
 10 12  1  0
 12 13  1  0
 13 14  1  0
 14 15  2  0
 15 16  1  0
 16 17  2  0
 17 18  1  0
 18 19  1  0
 19 20  1  0
 20 21  2  0
 20 22  1  0
 22 23  1  0
 23 24  1  0
 23 25  2  0
 25 26  1  0
 26 27  2  0
 26 28  1  0
 28 29  1  0
 17 30  1  0
 30 31  2  0
 31 32  1  0
 32 33  1  0
 33 34  1  0
  6 35  2  0
 35 36  1  0
 36 37  2  0
 37 38  1  0
 38 39  1  0
 39 40  1  0
 40 41  2  0
 41 42  1  0
 42 43  2  0
 43 44  1  0
 43 45  1  0
 45 46  2  0
 37  4  1  0
 46 40  1  0
 31 14  1  0
 25 18  1  0
  1 47  1  0
  1 48  1  0
  1 49  1  0
  2 50  1  0
  2 51  1  0
  5 52  1  0
  7 53  1  0
  9 54  1  0
 10 55  1  6
 11 56  1  0
 12 57  1  0
 12 58  1  0
 15 59  1  0
 16 60  1  0
 18 61  1  1
 19 62  1  0
 22 63  1  0
 24 64  1  0
 24 65  1  0
 24 66  1  0
 29 67  1  0
 29 68  1  0
 29 69  1  0
 30 70  1  0
 33 71  1  0
 33 72  1  0
 34 73  1  0
 34 74  1  0
 34 75  1  0
 35 76  1  0
 36 77  1  0
 39 78  1  0
 39 79  1  0
 41 80  1  0
 42 81  1  0
 45 82  1  0
 46 83  1  0
M  END
>  <Binding energies>  (1) 
[-7.49]

>  <Ligand effiencies>  (1) 
[-0.14980000000000002]

>  <Interactions>  (1) 
["V-B:PRO:540:CA:9855, V-B:HIS:456:CD2:9039, H-A:ALA:541:N:4891, V-B:GLU:543:CB:9878, H-A:ALA:541:O:4889, V-B:ASP:366:CG:8184, V-B:ALA:541:CB:9864, V-B:TYR:539:CE2:9848, V-B:GLU:543:CG:9879, V-A:ASP:366:CG:3213, H-B:GLU:543:OE1:9881, V-B:LYS:547:CE:9922, H-B:ALA:541:N:9863, V-A:GLU:543:CD:4908, V-A:TYR:484:CZ:4347, V-B:HIS:456:CE1:9041, H-A:GLY:454:N:4050, V-A:HIS:456:CE1:4070, V-A:ILE:369:CD1:3239, V-B:GLY:544:C:9884, V-B:TYR:539:CD2:9846, V-A:GLU:543:CG:4907, V-B:GLU:543:CD:9880, V-B:HIS:456:CG:9037, V-A:LEU:475:CD2:4259, H-A:GLU:543:OE1:4909, H-B:GLU:543:OE2:9882, H-B:TYR:539:O:9840, V-B:PRO:540:C:9853, H-A:TYR:484:OH:4348"]

$$$$
ZINC408951120
     RDKit          3D

 41 43  0  0  0  0  0  0  0  0999 V2000
  134.6610  125.0940   66.4750 N   0  0  0  0  0  0  0  0  0  0  0  0
  133.7750  124.9400   65.7450 C   0  0  0  0  0  0  0  0  0  0  0  0
  132.6880  124.7680   64.8280 C   0  0  0  0  0  0  0  0  0  0  0  0
  132.9630  124.7990   63.4980 C   0  0  0  0  0  0  0  0  0  0  0  0
  132.0990  124.6410   62.3080 C   0  0  0  0  0  0  0  0  0  0  0  0
  132.3830  125.2450   61.0820 C   0  0  0  0  0  0  0  0  0  0  0  0
  131.5530  125.0620   59.9760 C   0  0  0  0  0  0  0  0  0  0  0  0
  132.0690  125.9200   58.3430 Br  0  0  0  0  0  0  0  0  0  0  0  0
  130.3920  124.2720   60.0950 C   0  0  0  0  0  0  0  0  0  0  0  0
  129.6280  124.0900   59.0890 O   0  0  0  0  0  0  0  0  0  0  0  0
  130.0810  123.6890   61.3390 C   0  0  0  0  0  0  0  0  0  0  0  0
  128.3810  122.4940   61.6760 I   0  0  0  0  0  0  0  0  0  0  0  0
  130.9300  123.8890   62.4290 C   0  0  0  0  0  0  0  0  0  0  0  0
  131.3480  124.6330   65.3900 C   0  0  0  0  0  0  0  0  0  0  0  0
  130.6530  123.6240   65.2750 O   0  0  0  0  0  0  0  0  0  0  0  0
  130.8850  125.7370   66.0120 N   0  0  0  0  0  0  0  0  0  0  0  0
  129.5380  125.9030   66.5690 C   0  0  0  0  0  0  0  0  0  0  0  0
  129.2700  127.2970   67.1880 C   0  0  0  0  0  0  0  0  0  0  0  0
  129.7850  127.4520   68.6090 C   0  0  0  0  0  0  0  0  0  0  0  0
  131.0800  127.7220   69.0150 C   0  0  0  0  0  0  0  0  0  0  0  0
  131.1620  127.7250   70.3820 N   0  0  0  0  0  0  0  0  0  0  0  0
  129.9250  127.4640   70.9250 C   0  0  0  0  0  0  0  0  0  0  0  0
  129.5120  127.3560   72.2580 C   0  0  0  0  0  0  0  0  0  0  0  0
  128.1640  127.0740   72.4810 C   0  0  0  0  0  0  0  0  0  0  0  0
  127.2660  126.9030   71.4310 C   0  0  0  0  0  0  0  0  0  0  0  0
  127.6780  127.0120   70.1050 C   0  0  0  0  0  0  0  0  0  0  0  0
  129.0270  127.2960   69.8270 C   0  0  0  0  0  0  0  0  0  0  0  0
  134.0233  124.9738   63.2628 H   0  0  0  0  0  0  0  0  0  0  0  0
  133.2781  125.8771   60.9863 H   0  0  0  0  0  0  0  0  0  0  0  0
  130.6724  123.4452   63.4020 H   0  0  0  0  0  0  0  0  0  0  0  0
  131.5050  126.5280   66.1060 H   0  0  0  0  0  0  0  0  0  0  0  0
  128.8091  125.7390   65.7617 H   0  0  0  0  0  0  0  0  0  0  0  0
  129.4436  125.1728   67.3862 H   0  0  0  0  0  0  0  0  0  0  0  0
  129.7591  128.0548   66.5583 H   0  0  0  0  0  0  0  0  0  0  0  0
  128.1779  127.4217   67.2301 H   0  0  0  0  0  0  0  0  0  0  0  0
  131.9247  127.9080   68.3354 H   0  0  0  0  0  0  0  0  0  0  0  0
  132.0300  127.8870   70.8750 H   0  0  0  0  0  0  0  0  0  0  0  0
  130.2178  127.4874   73.0914 H   0  0  0  0  0  0  0  0  0  0  0  0
  127.8005  126.9843   73.5153 H   0  0  0  0  0  0  0  0  0  0  0  0
  126.2123  126.6778   71.6525 H   0  0  0  0  0  0  0  0  0  0  0  0
  126.9570  126.8776   69.2852 H   0  0  0  0  0  0  0  0  0  0  0  0
  1  2  3  0
  2  3  1  0
  3  4  2  0
  4  5  1  0
  5  6  2  0
  6  7  1  0
  7  8  1  0
  7  9  2  0
  9 10  1  0
  9 11  1  0
 11 12  1  0
 11 13  2  0
  3 14  1  0
 14 15  2  0
 14 16  1  0
 16 17  1  0
 17 18  1  0
 18 19  1  0
 19 20  2  0
 20 21  1  0
 21 22  1  0
 22 23  2  0
 23 24  1  0
 24 25  2  0
 25 26  1  0
 26 27  2  0
 13  5  1  0
 27 19  1  0
 27 22  1  0
  4 28  1  0
  6 29  1  0
 13 30  1  0
 16 31  1  0
 17 32  1  0
 17 33  1  0
 18 34  1  0
 18 35  1  0
 20 36  1  0
 21 37  1  0
 23 38  1  0
 24 39  1  0
 25 40  1  0
 26 41  1  0
M  CHG  1  10  -1
M  END
>  <Binding energies>  (1) 
[-7.55]

>  <Ligand effiencies>  (1) 
[-0.2603448275862069]

>  <Interactions>  (1) 
["V-B:PRO:540:CA:9855, V-A:GLY:454:CA:4049, V-B:GLU:543:C:9874, H-A:GLU:543:OE2:4910, V-A:GLU:543:C:4902, V-B:HIS:456:CD2:9039, V-B:GLU:543:CB:9878, V-B:ALA:541:CB:9864, V-B:TYR:539:CE2:9848, V-B:GLU:543:CG:9879, V-A:GLY:544:C:4912, V-A:ASP:366:CG:3213, V-A:TYR:484:CZ:4347, V-A:GLU:543:CD:4908, V-A:ARG:545:CG:4922, H-A:GLY:454:N:4050, V-B:HIS:456:CE1:9041, V-A:HIS:456:CE1:4070, V-B:GLY:544:C:9884, V-B:GLY:544:CA:9886, V-B:GLU:543:CD:9880, V-A:ASP:366:CB:3212, V-A:ARG:545:CD:4923, H-A:ILE:455:N:4055, V-A:ARG:545:CZ:4926, H-A:GLU:543:OE1:4909, V-A:GLU:543:CB:4906, H-A:ARG:545:NE:4924, V-B:PRO:540:C:9853, H-A:GLY:544:O:4913, H-A:HIS:456:NE2:4071, H-A:TYR:484:OH:4348, H-A:GLU:543:O:4903"]

$$$$
ZINC408951213
     RDKit          3D

 45 47  0  0  0  0  0  0  0  0999 V2000
  130.1980  121.7960   64.9910 C   0  0  0  0  0  0  0  0  0  0  0  0
  130.9880  122.9940   64.7080 N   0  0  0  0  0  0  0  0  0  0  0  0
  132.2370  122.7870   63.9730 C   0  0  0  0  0  0  0  0  0  0  0  0
  130.3530  124.2700   64.6770 C   0  0  0  0  0  0  0  0  0  0  0  0
  130.0120  124.8820   63.4570 C   0  0  0  0  0  0  0  0  0  0  0  0
  129.3940  126.1280   63.4220 C   0  0  0  0  0  0  0  0  0  0  0  0
  129.1070  126.7920   64.6150 C   0  0  0  0  0  0  0  0  0  0  0  0
  128.4860  128.0580   64.5790 N   0  0  0  0  0  0  0  0  0  0  0  0
  128.1930  128.7140   63.4010 C   0  0  0  0  0  0  0  0  0  0  0  0
  127.5490  129.9000   63.6760 C   0  0  0  0  0  0  0  0  0  0  0  0
  127.4550  129.9820   65.0610 C   0  0  0  0  0  0  0  0  0  0  0  0
  128.0540  128.8640   65.6390 C   0  0  0  0  0  0  0  0  0  0  0  0
  128.2100  128.5950   67.0740 C   0  0  0  0  0  0  0  0  0  0  0  0
  129.3260  128.3130   67.6110 N   0  0  0  0  0  0  0  0  0  0  0  0
  129.2330  128.1010   68.9350 N   0  0  0  0  0  0  0  0  0  0  0  0
  130.3180  128.0030   69.7330 C   0  0  0  0  0  0  0  0  0  0  0  0
  131.4770  128.0930   69.3160 O   0  0  0  0  0  0  0  0  0  0  0  0
  130.0490  127.7720   71.2090 C   0  0  0  0  0  0  0  0  0  0  0  0
  131.0820  127.3350   72.0480 C   0  0  0  0  0  0  0  0  0  0  0  0
  130.8720  127.1120   73.4090 C   0  0  0  0  0  0  0  0  0  0  0  0
  132.3740  126.5160   74.4380 Br  0  0  0  0  0  0  0  0  0  0  0  0
  129.5970  127.3270   73.9680 C   0  0  0  0  0  0  0  0  0  0  0  0
  129.3940  127.1280   75.2110 O   0  0  0  0  0  0  0  0  0  0  0  0
  128.5490  127.7670   73.1360 C   0  0  0  0  0  0  0  0  0  0  0  0
  126.7740  128.0960   73.7780 Br  0  0  0  0  0  0  0  0  0  0  0  0
  128.7830  127.9830   71.7770 C   0  0  0  0  0  0  0  0  0  0  0  0
  129.4140  126.1960   65.8380 C   0  0  0  0  0  0  0  0  0  0  0  0
  130.0330  124.9500   65.8660 C   0  0  0  0  0  0  0  0  0  0  0  0
  130.1104  121.6632   66.0794 H   0  0  0  0  0  0  0  0  0  0  0  0
  129.1949  121.9064   64.5532 H   0  0  0  0  0  0  0  0  0  0  0  0
  130.6945  120.9175   64.5532 H   0  0  0  0  0  0  0  0  0  0  0  0
  133.0635  122.6500   64.6858 H   0  0  0  0  0  0  0  0  0  0  0  0
  132.1461  121.8917   63.3405 H   0  0  0  0  0  0  0  0  0  0  0  0
  132.4398  123.6638   63.3405 H   0  0  0  0  0  0  0  0  0  0  0  0
  130.2383  124.3654   62.5126 H   0  0  0  0  0  0  0  0  0  0  0  0
  129.1327  126.5878   62.4575 H   0  0  0  0  0  0  0  0  0  0  0  0
  128.4370  128.3452   62.3938 H   0  0  0  0  0  0  0  0  0  0  0  0
  127.1820  130.6359   62.9454 H   0  0  0  0  0  0  0  0  0  0  0  0
  126.9800  130.8043   65.6161 H   0  0  0  0  0  0  0  0  0  0  0  0
  127.3172  128.6399   67.7150 H   0  0  0  0  0  0  0  0  0  0  0  0
  128.2960  128.0160   69.3010 H   0  0  0  0  0  0  0  0  0  0  0  0
  132.0823  127.1636   71.6238 H   0  0  0  0  0  0  0  0  0  0  0  0
  127.9568  128.3262   71.1370 H   0  0  0  0  0  0  0  0  0  0  0  0
  129.1673  126.7099   66.7787 H   0  0  0  0  0  0  0  0  0  0  0  0
  130.2762  124.4889   66.8346 H   0  0  0  0  0  0  0  0  0  0  0  0
  1  2  1  0
  2  3  1  0
  2  4  1  0
  4  5  2  0
  5  6  1  0
  6  7  2  0
  7  8  1  0
  8  9  1  0
  9 10  2  0
 10 11  1  0
 11 12  2  0
 12 13  1  0
 13 14  2  0
 14 15  1  0
 15 16  1  0
 16 17  2  0
 16 18  1  0
 18 19  2  0
 19 20  1  0
 20 21  1  0
 20 22  2  0
 22 23  1  0
 22 24  1  0
 24 25  1  0
 24 26  2  0
  7 27  1  0
 27 28  2  0
 28  4  1  0
 12  8  1  0
 26 18  1  0
  1 29  1  0
  1 30  1  0
  1 31  1  0
  3 32  1  0
  3 33  1  0
  3 34  1  0
  5 35  1  0
  6 36  1  0
  9 37  1  0
 10 38  1  0
 11 39  1  0
 13 40  1  0
 15 41  1  0
 19 42  1  0
 26 43  1  0
 27 44  1  0
 28 45  1  0
M  CHG  1  23  -1
M  END
>  <Binding energies>  (1) 
[-7.49]

>  <Ligand effiencies>  (1) 
[-0.2582758620689655]

>  <Interactions>  (1) 
["V-A:GLY:454:CA:4049, V-B:HIS:456:CD2:9039, V-A:GLU:543:C:4902, V-B:GLU:543:CB:9878, H-B:LYS:547:NZ:9923, V-B:HIS:456:CB:9036, V-B:ALA:541:CB:9864, V-A:TYR:484:CE2:4346, V-A:LEU:475:CG:4257, V-B:GLU:543:CG:9879, V-A:GLY:544:C:4912, V-A:HIS:456:CD2:4068, H-A:ARG:545:N:4920, V-A:HIS:456:CB:4065, V-B:LYS:547:CE:9922, V-A:LEU:475:CD1:4258, V-A:GLU:543:CD:4908, V-A:TYR:484:CZ:4347, V-B:HIS:456:CE1:9041, V-B:TYR:484:CZ:9318, V-A:HIS:456:CE1:4070, H-B:HIS:456:NE2:9042, V-A:GLU:543:CG:4907, V-B:GLU:543:CD:9880, V-B:HIS:456:CG:9037, H-A:LYS:547:NZ:4951, V-A:LEU:475:CD2:4259, V-A:GLU:543:CB:4906, V-A:HIS:456:CG:4066"]

$$$$
ZINC408955922
     RDKit          3D

 81 84  0  0  0  0  0  0  0  0999 V2000
  131.5050  124.8570   59.5710 C   0  0  0  0  0  0  0  0  0  0  0  0
  132.0960  124.9110   60.9830 C   0  0  0  0  0  0  0  0  0  0  0  0
  131.1820  124.3180   61.8970 O   0  0  0  0  0  0  0  0  0  0  0  0
  131.5360  123.2510   62.6590 C   0  0  0  0  0  0  0  0  0  0  0  0
  131.9950  123.3700   63.7970 O   0  0  0  0  0  0  0  0  0  0  0  0
  131.3340  121.9450   61.9710 C   0  0  0  0  0  0  0  0  0  0  0  0
  132.3010  121.3280   61.2390 C   0  0  0  0  0  0  0  0  0  0  0  0
  133.7800  121.7060   61.1390 C   0  0  0  0  0  0  0  0  0  0  0  0
  132.0400  120.1750   60.5600 N   0  0  0  0  0  0  0  0  0  0  0  0
  130.8660  119.4980   60.5450 C   0  0  0  0  0  0  0  0  0  0  0  0
  130.6370  118.5800   59.7620 O   0  0  0  0  0  0  0  0  0  0  0  0
  129.9190  119.9980   61.3830 N   0  0  0  0  0  0  0  0  0  0  0  0
  129.8860  121.3950   61.8900 C   0  0  2  0  0  0  0  0  0  0  0  0
  128.9130  122.2820   61.1010 C   0  0  0  0  0  0  0  0  0  0  0  0
  128.0070  123.1090   61.7700 C   0  0  0  0  0  0  0  0  0  0  0  0
  127.1090  123.8950   61.0570 C   0  0  0  0  0  0  0  0  0  0  0  0
  127.0940  123.8720   59.6520 C   0  0  0  0  0  0  0  0  0  0  0  0
  126.2280  124.6270   58.8820 O   0  0  0  0  0  0  0  0  0  0  0  0
  126.2410  126.0500   58.9920 C   0  0  0  0  0  0  0  0  0  0  0  0
  127.6390  126.5790   58.6110 C   0  0  0  0  0  0  0  0  0  0  0  0
  127.9900  126.6150   57.4320 O   0  0  0  0  0  0  0  0  0  0  0  0
  128.4780  127.0030   59.5770 N   0  0  0  0  0  0  0  0  0  0  0  0
  128.1660  126.9870   60.8870 N   0  0  0  0  0  0  0  0  0  0  0  0
  129.1920  126.9530   61.6390 C   0  0  0  0  0  0  0  0  0  0  0  0
  129.1270  126.9190   63.1060 C   0  0  0  0  0  0  0  0  0  0  0  0
  128.4410  127.9330   63.7830 C   0  0  0  0  0  0  0  0  0  0  0  0
  128.3630  127.9430   65.1750 C   0  0  0  0  0  0  0  0  0  0  0  0
  127.5050  129.2210   65.9630 Cl  0  0  0  0  0  0  0  0  0  0  0  0
  128.9770  126.9310   65.9180 C   0  0  0  0  0  0  0  0  0  0  0  0
  128.8950  126.9530   67.2900 O   0  0  0  0  0  0  0  0  0  0  0  0
  129.5110  128.0840   67.8950 C   0  0  0  0  0  0  0  0  0  0  0  0
  129.6650  127.8290   69.3880 C   0  0  0  0  0  0  0  0  0  0  0  0
  130.8920  128.0980   70.0060 C   0  0  0  0  0  0  0  0  0  0  0  0
  131.0600  127.8740   71.3720 C   0  0  0  0  0  0  0  0  0  0  0  0
  130.0030  127.3780   72.1330 C   0  0  0  0  0  0  0  0  0  0  0  0
  130.2110  127.0970   73.8230 Cl  0  0  0  0  0  0  0  0  0  0  0  0
  128.7770  127.1070   71.5260 C   0  0  0  0  0  0  0  0  0  0  0  0
  128.6010  127.3300   70.1590 C   0  0  0  0  0  0  0  0  0  0  0  0
  127.0610  126.9770   69.4530 Cl  0  0  0  0  0  0  0  0  0  0  0  0
  129.6610  125.8950   65.2680 C   0  0  0  0  0  0  0  0  0  0  0  0
  130.2310  124.9190   66.0660 O   0  0  0  0  0  0  0  0  0  0  0  0
  131.3910  125.2230   66.8360 C   0  0  0  0  0  0  0  0  0  0  0  0
  132.5650  125.4460   65.8790 C   0  0  0  0  0  0  0  0  0  0  0  0
  129.7310  125.9030   63.8650 C   0  0  0  0  0  0  0  0  0  0  0  0
  127.9970  123.0450   58.9680 C   0  0  0  0  0  0  0  0  0  0  0  0
  127.9420  123.0630   57.5860 O   0  0  0  0  0  0  0  0  0  0  0  0
  126.8410  122.4550   56.9180 C   0  0  0  0  0  0  0  0  0  0  0  0
  128.8990  122.2560   59.7020 C   0  0  0  0  0  0  0  0  0  0  0  0
  130.4114  124.7571   59.6348 H   0  0  0  0  0  0  0  0  0  0  0  0
  131.7578  125.7820   59.0321 H   0  0  0  0  0  0  0  0  0  0  0  0
  131.9213  123.9932   59.0321 H   0  0  0  0  0  0  0  0  0  0  0  0
  133.0475  124.3595   61.0046 H   0  0  0  0  0  0  0  0  0  0  0  0
  132.2756  125.9582   61.2680 H   0  0  0  0  0  0  0  0  0  0  0  0
  134.2002  121.8134   62.1499 H   0  0  0  0  0  0  0  0  0  0  0  0
  134.3240  120.9180   60.5976 H   0  0  0  0  0  0  0  0  0  0  0  0
  133.8793  122.6584   60.5976 H   0  0  0  0  0  0  0  0  0  0  0  0
  132.7840  119.7400   60.0330 H   0  0  0  0  0  0  0  0  0  0  0  0
  129.0430  119.4980   61.3880 H   0  0  0  0  0  0  0  0  0  0  0  0
  129.4767  121.4043   62.9110 H   0  0  0  0  0  0  0  0  0  0  0  0
  128.0043  123.1384   62.8696 H   0  0  0  0  0  0  0  0  0  0  0  0
  126.4028  124.5417   61.5983 H   0  0  0  0  0  0  0  0  0  0  0  0
  125.4888  126.4778   58.3129 H   0  0  0  0  0  0  0  0  0  0  0  0
  126.0065  126.3414   60.0265 H   0  0  0  0  0  0  0  0  0  0  0  0
  129.4000  127.3500   59.3540 H   0  0  0  0  0  0  0  0  0  0  0  0
  130.1839  126.9488   61.1634 H   0  0  0  0  0  0  0  0  0  0  0  0
  127.9554  128.7352   63.2079 H   0  0  0  0  0  0  0  0  0  0  0  0
  130.5014  128.2483   67.4454 H   0  0  0  0  0  0  0  0  0  0  0  0
  128.8873  128.9757   67.7340 H   0  0  0  0  0  0  0  0  0  0  0  0
  131.7296  128.4889   69.4097 H   0  0  0  0  0  0  0  0  0  0  0  0
  132.0275  128.0889   71.8493 H   0  0  0  0  0  0  0  0  0  0  0  0
  127.9437  126.7152   72.1278 H   0  0  0  0  0  0  0  0  0  0  0  0
  131.2158  126.1341   67.4269 H   0  0  0  0  0  0  0  0  0  0  0  0
  131.6163  124.3929   67.5217 H   0  0  0  0  0  0  0  0  0  0  0  0
  133.4831  125.6204   66.4593 H   0  0  0  0  0  0  0  0  0  0  0  0
  132.6953  124.5566   65.2450 H   0  0  0  0  0  0  0  0  0  0  0  0
  132.3601  126.3213   65.2450 H   0  0  0  0  0  0  0  0  0  0  0  0
  130.2710  125.0954   63.3491 H   0  0  0  0  0  0  0  0  0  0  0  0
  126.1317  122.0633   57.6619 H   0  0  0  0  0  0  0  0  0  0  0  0
  126.3363  123.2023   56.2880 H   0  0  0  0  0  0  0  0  0  0  0  0
  127.2046  121.6298   56.2880 H   0  0  0  0  0  0  0  0  0  0  0  0
  129.6070  121.6060   59.1670 H   0  0  0  0  0  0  0  0  0  0  0  0
  1  2  1  0
  2  3  1  0
  3  4  1  0
  4  5  2  0
  4  6  1  0
  6  7  2  0
  7  8  1  0
  7  9  1  0
  9 10  1  0
 10 11  2  0
 10 12  1  0
 12 13  1  0
 13 14  1  0
 14 15  2  0
 15 16  1  0
 16 17  2  0
 17 18  1  0
 18 19  1  0
 19 20  1  0
 20 21  2  0
 20 22  1  0
 22 23  1  0
 23 24  2  0
 24 25  1  0
 25 26  2  0
 26 27  1  0
 27 28  1  0
 27 29  2  0
 29 30  1  0
 30 31  1  0
 31 32  1  0
 32 33  2  0
 33 34  1  0
 34 35  2  0
 35 36  1  0
 35 37  1  0
 37 38  2  0
 38 39  1  0
 29 40  1  0
 40 41  1  0
 41 42  1  0
 42 43  1  0
 40 44  2  0
 17 45  1  0
 45 46  1  0
 46 47  1  0
 45 48  2  0
 13  6  1  0
 48 14  1  0
 44 25  1  0
 38 32  1  0
  1 49  1  0
  1 50  1  0
  1 51  1  0
  2 52  1  0
  2 53  1  0
  8 54  1  0
  8 55  1  0
  8 56  1  0
  9 57  1  0
 12 58  1  0
 13 59  1  1
 15 60  1  0
 16 61  1  0
 19 62  1  0
 19 63  1  0
 22 64  1  0
 24 65  1  0
 26 66  1  0
 31 67  1  0
 31 68  1  0
 33 69  1  0
 34 70  1  0
 37 71  1  0
 42 72  1  0
 42 73  1  0
 43 74  1  0
 43 75  1  0
 43 76  1  0
 44 77  1  0
 47 78  1  0
 47 79  1  0
 47 80  1  0
 48 81  1  0
M  END
>  <Binding energies>  (1) 
[-7.93]

>  <Ligand effiencies>  (1) 
[-0.15549019607843137]

>  <Interactions>  (1) 
["V-A:ILE:369:CG2:3237, V-B:PRO:540:CA:9855, V-B:GLU:543:C:9874, V-A:GLU:543:C:4902, V-B:GLU:543:CB:9878, V-B:ASP:366:CG:8184, V-B:ALA:541:CB:9864, V-B:TYR:539:CE2:9848, V-A:TYR:484:CE2:4346, V-B:GLU:543:CG:9879, V-A:GLY:544:C:4912, V-B:TYR:539:C:9839, V-A:HIS:456:CD2:4068, V-A:GLU:543:CD:4908, V-A:TYR:484:CZ:4347, V-B:HIS:456:CE1:9041, V-B:PRO:540:N:9856, V-A:ILE:369:CD1:3239, V-A:HIS:456:CE1:4070, V-B:GLY:544:C:9884, V-B:TYR:539:CD2:9846, V-B:PRO:540:CD:9859, V-A:GLU:543:CG:4907, H-A:SER:385:OG:3410, V-B:GLU:543:CD:9880, H-B:TYR:531:OH:9767, V-A:ARG:545:CD:4923, V-A:LEU:475:CD2:4259, V-A:ARG:545:CZ:4926, V-A:GLU:543:CB:4906, H-A:HIS:383:HE2:3395, V-B:TYR:539:CD1:9845, H-B:TYR:539:O:9840, H-A:TYR:484:OH:4348, H-B:PRO:540:O:9854"]

$$$$
ZINC408957251
     RDKit          3D

 76 79  0  0  0  0  0  0  0  0999 V2000
  126.1480  128.5010   60.6670 C   0  0  0  0  0  0  0  0  0  0  0  0
  126.1180  129.0490   59.2380 C   0  0  0  0  0  0  0  0  0  0  0  0
  126.9370  128.2230   58.4140 O   0  0  0  0  0  0  0  0  0  0  0  0
  128.3070  128.4190   58.3900 C   0  0  0  0  0  0  0  0  0  0  0  0
  128.9250  129.6420   58.7060 C   0  0  0  0  0  0  0  0  0  0  0  0
  130.3160  129.7820   58.6660 C   0  0  0  0  0  0  0  0  0  0  0  0
  130.9810  131.1170   59.0290 C   0  0  2  0  0  0  0  0  0  0  0  0
  132.0120  130.9710   60.0900 N   0  0  0  0  0  0  0  0  0  0  0  0
  131.7950  131.2020   61.4130 C   0  0  0  0  0  0  0  0  0  0  0  0
  132.4240  130.6270   62.2980 O   0  0  0  0  0  0  0  0  0  0  0  0
  130.7530  132.0280   61.6750 N   0  0  0  0  0  0  0  0  0  0  0  0
  129.8880  132.5530   60.7600 C   0  0  0  0  0  0  0  0  0  0  0  0
  128.9540  133.5780   61.4040 C   0  0  0  0  0  0  0  0  0  0  0  0
  129.9820  132.2290   59.4410 C   0  0  0  0  0  0  0  0  0  0  0  0
  129.0100  132.6930   58.4130 C   0  0  0  0  0  0  0  0  0  0  0  0
  127.8080  132.4170   58.4260 O   0  0  0  0  0  0  0  0  0  0  0  0
  129.5810  133.4420   57.4360 O   0  0  0  0  0  0  0  0  0  0  0  0
  130.4530  132.8600   56.4770 C   0  0  0  0  0  0  0  0  0  0  0  0
  131.0960  128.6790   58.3110 C   0  0  0  0  0  0  0  0  0  0  0  0
  130.4980  127.4640   57.9950 C   0  0  0  0  0  0  0  0  0  0  0  0
  129.1010  127.3210   58.0250 C   0  0  0  0  0  0  0  0  0  0  0  0
  128.4430  126.1430   57.7140 O   0  0  0  0  0  0  0  0  0  0  0  0
  127.7440  125.4390   58.7380 C   0  0  0  0  0  0  0  0  0  0  0  0
  128.5620  124.2040   59.1910 C   0  0  1  0  0  0  0  0  0  0  0  0
  128.4840  123.2080   58.1900 O   0  0  0  0  0  0  0  0  0  0  0  0
  129.9180  124.5570   59.6050 N   0  0  0  0  0  0  0  0  0  0  0  0
  130.0270  125.2830   60.8000 N   0  0  0  0  0  0  0  0  0  0  0  0
  129.0140  125.3000   61.5640 C   0  0  0  0  0  0  0  0  0  0  0  0
  128.9780  126.0270   62.8390 C   0  0  0  0  0  0  0  0  0  0  0  0
  129.5230  125.4370   63.9870 C   0  0  0  0  0  0  0  0  0  0  0  0
  129.5010  126.0980   65.2160 C   0  0  0  0  0  0  0  0  0  0  0  0
  130.2700  125.2560   66.7430 Br  0  0  0  0  0  0  0  0  0  0  0  0
  128.9200  127.3680   65.3190 C   0  0  0  0  0  0  0  0  0  0  0  0
  128.8990  128.0260   66.5230 O   0  0  0  0  0  0  0  0  0  0  0  0
  127.8310  127.6410   67.3840 C   0  0  0  0  0  0  0  0  0  0  0  0
  128.3440  127.5510   68.8120 C   0  0  0  0  0  0  0  0  0  0  0  0
  129.6060  128.0540   69.1370 C   0  0  0  0  0  0  0  0  0  0  0  0
  130.0730  127.9670   70.4470 C   0  0  0  0  0  0  0  0  0  0  0  0
  129.2760  127.3800   71.4270 C   0  0  0  0  0  0  0  0  0  0  0  0
  129.9780  127.2460   73.3930 I   0  0  0  0  0  0  0  0  0  0  0  0
  128.0140  126.8780   71.1090 C   0  0  0  0  0  0  0  0  0  0  0  0
  127.5480  126.9650   69.7990 C   0  0  0  0  0  0  0  0  0  0  0  0
  128.3830  127.9730   64.1790 C   0  0  0  0  0  0  0  0  0  0  0  0
  127.6090  129.7130   64.2770 Br  0  0  0  0  0  0  0  0  0  0  0  0
  128.4110  127.3070   62.9550 C   0  0  0  0  0  0  0  0  0  0  0  0
  126.1023  129.3364   61.3811 H   0  0  0  0  0  0  0  0  0  0  0  0
  125.2848  127.8373   60.8234 H   0  0  0  0  0  0  0  0  0  0  0  0
  127.0784  127.9355   60.8234 H   0  0  0  0  0  0  0  0  0  0  0  0
  125.0850  129.0405   58.8600 H   0  0  0  0  0  0  0  0  0  0  0  0
  126.4951  130.0823   59.2251 H   0  0  0  0  0  0  0  0  0  0  0  0
  128.3033  130.5040   58.9897 H   0  0  0  0  0  0  0  0  0  0  0  0
  131.4648  131.4329   58.0930 H   0  0  0  0  0  0  0  0  0  0  0  0
  132.7860  130.3580   59.8830 H   0  0  0  0  0  0  0  0  0  0  0  0
  130.6600  132.2960   62.6440 H   0  0  0  0  0  0  0  0  0  0  0  0
  129.0242  133.5009   62.4990 H   0  0  0  0  0  0  0  0  0  0  0  0
  129.2468  134.5902   61.0881 H   0  0  0  0  0  0  0  0  0  0  0  0
  127.9190  133.3803   61.0881 H   0  0  0  0  0  0  0  0  0  0  0  0
  131.2602  132.3212   56.9947 H   0  0  0  0  0  0  0  0  0  0  0  0
  129.8883  132.1571   55.8469 H   0  0  0  0  0  0  0  0  0  0  0  0
  130.8855  133.6511   55.8469 H   0  0  0  0  0  0  0  0  0  0  0  0
  132.1916  128.7722   58.2812 H   0  0  0  0  0  0  0  0  0  0  0  0
  131.1265  126.6047   57.7182 H   0  0  0  0  0  0  0  0  0  0  0  0
  127.5888  126.1074   59.5977 H   0  0  0  0  0  0  0  0  0  0  0  0
  126.7735  125.1025   58.3444 H   0  0  0  0  0  0  0  0  0  0  0  0
  128.1224  123.7775   60.1047 H   0  0  0  0  0  0  0  0  0  0  0  0
  128.4290  123.6410   57.3350 H   0  0  0  0  0  0  0  0  0  0  0  0
  130.4750  124.9640   58.8680 H   0  0  0  0  0  0  0  0  0  0  0  0
  128.1177  124.7419   61.2555 H   0  0  0  0  0  0  0  0  0  0  0  0
  129.9755  124.4367   63.9186 H   0  0  0  0  0  0  0  0  0  0  0  0
  127.0267  128.3894   67.3290 H   0  0  0  0  0  0  0  0  0  0  0  0
  127.4400  126.6617   67.0707 H   0  0  0  0  0  0  0  0  0  0  0  0
  130.2305  128.5183   68.3596 H   0  0  0  0  0  0  0  0  0  0  0  0
  131.0671  128.3603   70.7061 H   0  0  0  0  0  0  0  0  0  0  0  0
  127.3902  126.4160   71.8883 H   0  0  0  0  0  0  0  0  0  0  0  0
  126.5532  126.5722   69.5419 H   0  0  0  0  0  0  0  0  0  0  0  0
  127.9822  127.7915   62.0654 H   0  0  0  0  0  0  0  0  0  0  0  0
  1  2  1  0
  2  3  1  0
  3  4  1  0
  4  5  2  0
  5  6  1  0
  6  7  1  0
  7  8  1  0
  8  9  1  0
  9 10  2  0
  9 11  1  0
 11 12  1  0
 12 13  1  0
 12 14  2  0
 14 15  1  0
 15 16  2  0
 15 17  1  0
 17 18  1  0
  6 19  2  0
 19 20  1  0
 20 21  2  0
 21 22  1  0
 22 23  1  0
 23 24  1  0
 24 25  1  0
 24 26  1  0
 26 27  1  0
 27 28  2  0
 28 29  1  0
 29 30  2  0
 30 31  1  0
 31 32  1  0
 31 33  2  0
 33 34  1  0
 34 35  1  0
 35 36  1  0
 36 37  2  0
 37 38  1  0
 38 39  2  0
 39 40  1  0
 39 41  1  0
 41 42  2  0
 33 43  1  0
 43 44  1  0
 43 45  2  0
 21  4  1  0
 45 29  1  0
 14  7  1  0
 42 36  1  0
  1 46  1  0
  1 47  1  0
  1 48  1  0
  2 49  1  0
  2 50  1  0
  5 51  1  0
  7 52  1  6
  8 53  1  0
 11 54  1  0
 13 55  1  0
 13 56  1  0
 13 57  1  0
 18 58  1  0
 18 59  1  0
 18 60  1  0
 19 61  1  0
 20 62  1  0
 23 63  1  0
 23 64  1  0
 24 65  1  1
 25 66  1  0
 26 67  1  0
 28 68  1  0
 30 69  1  0
 35 70  1  0
 35 71  1  0
 37 72  1  0
 38 73  1  0
 41 74  1  0
 42 75  1  0
 45 76  1  0
M  END
>  <Binding energies>  (1) 
[-7.79]

>  <Ligand effiencies>  (1) 
[-0.15897959183673468]

>  <Interactions>  (1) 
["V-B:GLU:543:C:9874, V-A:GLU:543:C:4902, V-A:PRO:540:C:4881, V-A:ILE:538:CB:4862, H-A:ALA:541:O:4889, V-B:GLU:543:CB:9878, V-B:ASP:366:CG:8184, V-B:TYR:539:CE2:9848, V-A:TYR:484:CE2:4346, V-B:GLU:543:CG:9879, V-A:HIS:456:CD2:4068, V-A:ILE:538:CG2:4863, V-A:TYR:539:CD1:4873, V-A:ILE:538:CA:4860, H-B:TYR:539:OH:9850, V-A:ALA:541:CB:4892, V-A:GLU:543:CD:4908, V-B:HIS:456:CE1:9041, V-A:HIS:456:CE1:4070, V-B:GLY:544:C:9884, V-B:GLU:543:CD:9880, V-A:TYR:539:C:4867, H-B:TYR:531:OH:9767, H-A:ARG:545:NH2:4928, H-A:GLU:543:OE1:4909, V-A:GLU:543:CB:4906, V-A:PRO:540:N:4884, H-A:TYR:539:N:4870, V-A:PRO:540:CB:4885, V-A:PRO:540:CA:4883, H-A:ASP:366:OD2:3215"]

$$$$
ZINC408961701
     RDKit          3D

 50 53  0  0  0  0  0  0  0  0999 V2000
  125.9060  123.9090   59.5490 C   0  0  0  0  0  0  0  0  0  0  0  0
  127.0380  123.4560   58.7390 N   0  0  0  0  0  0  0  0  0  0  0  0
  126.7050  122.7650   57.4920 C   0  0  0  0  0  0  0  0  0  0  0  0
  128.3070  123.2480   59.3500 C   0  0  0  0  0  0  0  0  0  0  0  0
  129.3530  124.1750   59.1880 C   0  0  0  0  0  0  0  0  0  0  0  0
  130.5970  123.9700   59.7760 C   0  0  0  0  0  0  0  0  0  0  0  0
  130.8240  122.8280   60.5450 C   0  0  0  0  0  0  0  0  0  0  0  0
  132.0880  122.6050   61.1370 N   0  0  0  0  0  0  0  0  0  0  0  0
  133.2140  122.2140   60.4430 C   0  0  0  0  0  0  0  0  0  0  0  0
  134.2830  122.1050   61.3080 C   0  0  0  0  0  0  0  0  0  0  0  0
  133.8040  122.4270   62.5750 C   0  0  0  0  0  0  0  0  0  0  0  0
  132.4480  122.7320   62.4760 C   0  0  0  0  0  0  0  0  0  0  0  0
  131.4760  123.0820   63.5060 C   0  0  0  0  0  0  0  0  0  0  0  0
  131.6600  123.8970   64.5680 C   0  0  0  0  0  0  0  0  0  0  0  0
  133.1070  124.8000   65.0200 S   0  0  0  0  0  0  0  0  0  0  0  0
  132.2840  125.4760   66.4530 C   0  0  0  0  0  0  0  0  0  0  0  0
  132.8280  126.2560   67.2380 O   0  0  0  0  0  0  0  0  0  0  0  0
  131.0270  124.9900   66.4890 N   0  0  0  0  0  0  0  0  0  0  0  0
  130.1180  125.3990   67.5820 C   0  0  0  0  0  0  0  0  0  0  0  0
  129.4460  126.7590   67.3820 C   0  0  0  0  0  0  0  0  0  0  0  0
  128.9430  127.0830   66.1160 C   0  0  0  0  0  0  0  0  0  0  0  0
  128.3120  128.3070   65.8940 C   0  0  0  0  0  0  0  0  0  0  0  0
  128.1780  129.2190   66.9390 C   0  0  0  0  0  0  0  0  0  0  0  0
  128.6760  128.9080   68.2020 C   0  0  0  0  0  0  0  0  0  0  0  0
  129.3090  127.6840   68.4320 C   0  0  0  0  0  0  0  0  0  0  0  0
  129.9110  127.3590   70.0220 Cl  0  0  0  0  0  0  0  0  0  0  0  0
  130.5970  124.1450   65.5190 C   0  0  0  0  0  0  0  0  0  0  0  0
  129.4630  123.6600   65.4660 O   0  0  0  0  0  0  0  0  0  0  0  0
  129.8050  121.8890   60.7120 C   0  0  0  0  0  0  0  0  0  0  0  0
  128.5630  122.1000   60.1210 C   0  0  0  0  0  0  0  0  0  0  0  0
  126.1552  123.8093   60.6157 H   0  0  0  0  0  0  0  0  0  0  0  0
  125.6897  124.9629   59.3200 H   0  0  0  0  0  0  0  0  0  0  0  0
  125.0224  123.2952   59.3200 H   0  0  0  0  0  0  0  0  0  0  0  0
  126.2381  121.7962   57.7231 H   0  0  0  0  0  0  0  0  0  0  0  0
  126.0042  123.3797   56.9080 H   0  0  0  0  0  0  0  0  0  0  0  0
  127.6224  122.5999   56.9080 H   0  0  0  0  0  0  0  0  0  0  0  0
  129.1839  125.0792   58.5848 H   0  0  0  0  0  0  0  0  0  0  0  0
  131.4009  124.7074   59.6349 H   0  0  0  0  0  0  0  0  0  0  0  0
  133.2536  122.0183   59.3613 H   0  0  0  0  0  0  0  0  0  0  0  0
  135.3129  121.8194   61.0476 H   0  0  0  0  0  0  0  0  0  0  0  0
  134.3977  122.4387   63.5009 H   0  0  0  0  0  0  0  0  0  0  0  0
  130.4780  122.6303   63.4066 H   0  0  0  0  0  0  0  0  0  0  0  0
  129.3293  124.6378   67.6742 H   0  0  0  0  0  0  0  0  0  0  0  0
  130.7401  125.4905   68.4845 H   0  0  0  0  0  0  0  0  0  0  0  0
  129.0465  126.3655   65.2887 H   0  0  0  0  0  0  0  0  0  0  0  0
  127.9208  128.5520   64.8955 H   0  0  0  0  0  0  0  0  0  0  0  0
  127.6792  130.1841   66.7665 H   0  0  0  0  0  0  0  0  0  0  0  0
  128.5702  129.6311   69.0241 H   0  0  0  0  0  0  0  0  0  0  0  0
  129.9835  120.9832   61.3101 H   0  0  0  0  0  0  0  0  0  0  0  0
  127.7661  121.3545   60.2595 H   0  0  0  0  0  0  0  0  0  0  0  0
  1  2  1  0
  2  3  1  0
  2  4  1  0
  4  5  2  0
  5  6  1  0
  6  7  2  0
  7  8  1  0
  8  9  1  0
  9 10  2  0
 10 11  1  0
 11 12  2  0
 12 13  1  0
 13 14  2  0
 14 15  1  0
 15 16  1  0
 16 17  2  0
 16 18  1  0
 18 19  1  0
 19 20  1  0
 20 21  2  0
 21 22  1  0
 22 23  2  0
 23 24  1  0
 24 25  2  0
 25 26  1  0
 18 27  1  0
 27 28  2  0
  7 29  1  0
 29 30  2  0
 30  4  1  0
 12  8  1  0
 27 14  1  0
 25 20  1  0
  1 31  1  0
  1 32  1  0
  1 33  1  0
  3 34  1  0
  3 35  1  0
  3 36  1  0
  5 37  1  0
  6 38  1  0
  9 39  1  0
 10 40  1  0
 11 41  1  0
 13 42  1  0
 19 43  1  0
 19 44  1  0
 21 45  1  0
 22 46  1  0
 23 47  1  0
 24 48  1  0
 29 49  1  0
 30 50  1  0
M  END
>  <Binding energies>  (1) 
[-8.06]

>  <Ligand effiencies>  (1) 
[-0.26866666666666666]

>  <Interactions>  (1) 
["V-A:ILE:369:CG2:3237, V-B:PRO:540:CA:9855, V-A:GLU:543:CA:4904, V-A:GLY:454:CA:4049, V-A:ILE:369:CB:3236, V-B:GLU:543:CB:9878, V-B:TYR:539:CE2:9848, V-A:TYR:484:CE2:4346, V-B:GLU:543:CG:9879, V-B:TYR:539:C:9839, V-B:TYR:539:CZ:9849, V-A:TYR:484:CZ:4347, V-B:PRO:540:CB:9857, V-A:GLU:543:CD:4908, V-A:ARG:545:CG:4922, H-A:GLY:454:N:4050, V-B:HIS:456:CE1:9041, V-B:PRO:540:N:9856, V-A:HIS:456:CE1:4070, V-A:ILE:369:CD1:3239, V-B:TYR:539:CD2:9846, V-B:PRO:540:CD:9859, V-A:GLU:543:CG:4907, V-B:GLU:543:CD:9880, V-A:ILE:369:CG1:3238, V-A:ARG:545:CD:4923, V-A:LEU:475:CD2:4259, H-A:ARG:545:NH2:4928, V-A:GLU:543:CB:4906, H-A:ARG:545:NE:4924, V-B:PRO:540:C:9853, H-A:HIS:456:ND1:4067, H-A:TYR:484:OH:4348"]

$$$$
ZINC408970694
     RDKit          3D

 76 78  0  0  0  0  0  0  0  0999 V2000
  127.4620  129.2050   66.5350 C   0  0  0  0  0  0  0  0  0  0  0  0
  128.2910  128.7940   65.3150 C   0  0  0  0  0  0  0  0  0  0  0  0
  127.6830  129.3440   64.1500 O   0  0  0  0  0  0  0  0  0  0  0  0
  127.6780  128.6200   62.9720 C   0  0  0  0  0  0  0  0  0  0  0  0
  128.3850  127.4200   62.7790 C   0  0  0  0  0  0  0  0  0  0  0  0
  128.3420  126.7330   61.5560 C   0  0  0  0  0  0  0  0  0  0  0  0
  129.0660  125.4750   61.3310 C   0  0  0  0  0  0  0  0  0  0  0  0
  128.5450  124.4430   60.7990 N   0  0  0  0  0  0  0  0  0  0  0  0
  129.4100  123.4170   60.6960 N   0  0  0  0  0  0  0  0  0  0  0  0
  129.1070  122.1710   61.1090 C   0  0  0  0  0  0  0  0  0  0  0  0
  128.0260  121.8300   61.6010 O   0  0  0  0  0  0  0  0  0  0  0  0
  130.2160  121.1170   60.8860 C   0  0  2  0  0  0  0  0  0  0  0  0
  129.8410  119.7650   61.5510 C   0  0  0  0  0  0  0  0  0  0  0  0
  130.8260  118.6000   61.2830 C   0  0  0  0  0  0  0  0  0  0  0  0
  131.0650  118.3610   59.7760 C   0  0  0  0  0  0  0  0  0  0  0  0
  130.3790  117.3160   62.0150 C   0  0  0  0  0  0  0  0  0  0  0  0
  131.5210  121.5640   61.3870 N   0  0  0  0  0  0  0  0  0  0  0  0
  132.6920  121.3820   60.7550 C   0  0  0  0  0  0  0  0  0  0  0  0
  132.7910  120.8040   59.6710 O   0  0  0  0  0  0  0  0  0  0  0  0
  133.9480  121.9080   61.4830 C   0  0  2  0  0  0  0  0  0  0  0  0
  133.6240  122.2340   62.9510 C   0  0  0  0  0  0  0  0  0  0  0  0
  134.4050  123.1290   60.8840 O   0  0  0  0  0  0  0  0  0  0  0  0
  133.5820  124.2420   60.7870 C   0  0  0  0  0  0  0  0  0  0  0  0
  133.0080  124.8950   61.8940 C   0  0  0  0  0  0  0  0  0  0  0  0
  132.1950  126.0140   61.7170 C   0  0  0  0  0  0  0  0  0  0  0  0
  131.9390  126.4950   60.4350 C   0  0  0  0  0  0  0  0  0  0  0  0
  130.9320  127.8800   60.2160 Cl  0  0  0  0  0  0  0  0  0  0  0  0
  132.4980  125.8560   59.3300 C   0  0  0  0  0  0  0  0  0  0  0  0
  133.3130  124.7370   59.5030 C   0  0  0  0  0  0  0  0  0  0  0  0
  133.9900  123.9730   58.1070 Cl  0  0  0  0  0  0  0  0  0  0  0  0
  127.5770  127.2740   60.5170 C   0  0  0  0  0  0  0  0  0  0  0  0
  126.8680  128.4610   60.6900 C   0  0  0  0  0  0  0  0  0  0  0  0
  125.7380  129.2150   59.0950 I   0  0  0  0  0  0  0  0  0  0  0  0
  126.9130  129.1300   61.9160 C   0  0  0  0  0  0  0  0  0  0  0  0
  126.2080  130.2990   62.0750 O   0  0  0  0  0  0  0  0  0  0  0  0
  126.7350  131.4030   61.3490 C   0  0  0  0  0  0  0  0  0  0  0  0
  128.2350  131.4890   61.5960 C   0  0  0  0  0  0  0  0  0  0  0  0
  129.1170  130.9880   60.6330 C   0  0  0  0  0  0  0  0  0  0  0  0
  130.4950  131.0490   60.8360 C   0  0  0  0  0  0  0  0  0  0  0  0
  131.0030  131.6150   62.0050 C   0  0  0  0  0  0  0  0  0  0  0  0
  132.7080  131.6910   62.2580 Cl  0  0  0  0  0  0  0  0  0  0  0  0
  130.1310  132.1180   62.9700 C   0  0  0  0  0  0  0  0  0  0  0  0
  128.7500  132.0580   62.7730 C   0  0  0  0  0  0  0  0  0  0  0  0
  127.7090  132.6950   64.0000 Cl  0  0  0  0  0  0  0  0  0  0  0  0
  128.0038  128.9364   67.4538 H   0  0  0  0  0  0  0  0  0  0  0  0
  127.2923  130.2916   66.5138 H   0  0  0  0  0  0  0  0  0  0  0  0
  126.4944  128.6823   66.5138 H   0  0  0  0  0  0  0  0  0  0  0  0
  129.3162  129.1797   65.4159 H   0  0  0  0  0  0  0  0  0  0  0  0
  128.3305  127.6974   65.2379 H   0  0  0  0  0  0  0  0  0  0  0  0
  128.9851  127.0106   63.6050 H   0  0  0  0  0  0  0  0  0  0  0  0
  130.1202  125.4218   61.6404 H   0  0  0  0  0  0  0  0  0  0  0  0
  130.3070  123.6400   60.2890 H   0  0  0  0  0  0  0  0  0  0  0  0
  130.2989  120.9794   59.7978 H   0  0  0  0  0  0  0  0  0  0  0  0
  129.7900  119.9236   62.6383 H   0  0  0  0  0  0  0  0  0  0  0  0
  128.8825  119.4618   61.1045 H   0  0  0  0  0  0  0  0  0  0  0  0
  131.8005  118.8961   61.6986 H   0  0  0  0  0  0  0  0  0  0  0  0
  131.8373  117.5887   59.6452 H   0  0  0  0  0  0  0  0  0  0  0  0
  130.1289  118.0270   59.3047 H   0  0  0  0  0  0  0  0  0  0  0  0
  131.3990  119.2971   59.3047 H   0  0  0  0  0  0  0  0  0  0  0  0
  130.4345  117.4754   63.1020 H   0  0  0  0  0  0  0  0  0  0  0  0
  129.3438  117.0742   61.7322 H   0  0  0  0  0  0  0  0  0  0  0  0
  131.0402  116.4837   61.7322 H   0  0  0  0  0  0  0  0  0  0  0  0
  131.5080  122.0480   62.2730 H   0  0  0  0  0  0  0  0  0  0  0  0
  134.7150  121.1227   61.4120 H   0  0  0  0  0  0  0  0  0  0  0  0
  134.2444  121.6097   63.6108 H   0  0  0  0  0  0  0  0  0  0  0  0
  133.8350  123.2958   63.1460 H   0  0  0  0  0  0  0  0  0  0  0  0
  132.5609  122.0296   63.1460 H   0  0  0  0  0  0  0  0  0  0  0  0
  133.2028  124.5187   62.9091 H   0  0  0  0  0  0  0  0  0  0  0  0
  131.7554  126.5174   62.5907 H   0  0  0  0  0  0  0  0  0  0  0  0
  132.2959  126.2353   58.3175 H   0  0  0  0  0  0  0  0  0  0  0  0
  127.5346  126.7542   59.5485 H   0  0  0  0  0  0  0  0  0  0  0  0
  126.5458  131.2619   60.2746 H   0  0  0  0  0  0  0  0  0  0  0  0
  126.2499  132.3323   61.6823 H   0  0  0  0  0  0  0  0  0  0  0  0
  128.7205  130.5426   59.7087 H   0  0  0  0  0  0  0  0  0  0  0  0
  131.1814  130.6508   60.0743 H   0  0  0  0  0  0  0  0  0  0  0  0
  130.5333  132.5644   63.8913 H   0  0  0  0  0  0  0  0  0  0  0  0
  1  2  1  0
  2  3  1  0
  3  4  1  0
  4  5  2  0
  5  6  1  0
  6  7  1  0
  7  8  2  0
  8  9  1  0
  9 10  1  0
 10 11  2  0
 10 12  1  0
 12 13  1  0
 13 14  1  0
 14 15  1  0
 14 16  1  0
 12 17  1  0
 17 18  1  0
 18 19  2  0
 18 20  1  0
 20 21  1  0
 20 22  1  0
 22 23  1  0
 23 24  2  0
 24 25  1  0
 25 26  2  0
 26 27  1  0
 26 28  1  0
 28 29  2  0
 29 30  1  0
  6 31  2  0
 31 32  1  0
 32 33  1  0
 32 34  2  0
 34 35  1  0
 35 36  1  0
 36 37  1  0
 37 38  2  0
 38 39  1  0
 39 40  2  0
 40 41  1  0
 40 42  1  0
 42 43  2  0
 43 44  1  0
 34  4  1  0
 43 37  1  0
 29 23  1  0
  1 45  1  0
  1 46  1  0
  1 47  1  0
  2 48  1  0
  2 49  1  0
  5 50  1  0
  7 51  1  0
  9 52  1  0
 12 53  1  6
 13 54  1  0
 13 55  1  0
 14 56  1  0
 15 57  1  0
 15 58  1  0
 15 59  1  0
 16 60  1  0
 16 61  1  0
 16 62  1  0
 17 63  1  0
 20 64  1  1
 21 65  1  0
 21 66  1  0
 21 67  1  0
 24 68  1  0
 25 69  1  0
 28 70  1  0
 31 71  1  0
 36 72  1  0
 36 73  1  0
 38 74  1  0
 39 75  1  0
 42 76  1  0
M  END
>  <Binding energies>  (1) 
[-7.67]

>  <Ligand effiencies>  (1) 
[-0.1667391304347826]

>  <Interactions>  (1) 
["V-A:ILE:369:CG2:3237, V-A:ASP:366:CA:3210, V-B:PRO:540:CA:9855, V-A:GLY:454:CA:4049, V-A:ILE:369:CB:3236, V-B:ASP:366:CG:8184, V-B:ALA:541:CB:9864, V-B:TYR:539:CE2:9848, V-A:LEU:475:CG:4257, V-B:LEU:475:CD2:9230, V-B:TYR:539:C:9839, V-A:ASP:366:CG:3213, V-A:ASN:362:CB:3176, V-B:TYR:484:CE2:9317, V-B:TYR:539:CZ:9849, V-A:ALA:541:CB:4892, H-B:ALA:541:N:9863, V-A:LEU:475:CD1:4258, V-B:TYR:539:CB:9843, V-B:ASP:366:CB:8183, V-A:GLU:543:CD:4908, V-B:HIS:456:CE1:9041, V-B:TYR:484:CZ:9318, V-A:ILE:369:CD1:3239, V-A:ASP:366:C:3208, V-A:ALA:541:CA:4890, V-A:PRO:482:CB:4326, V-B:TYR:539:CD2:9846, V-A:GLU:543:CG:4907, H-A:SER:385:OG:3410, V-B:GLU:543:CD:9880, V-A:ASP:366:CB:3212, V-A:LEU:475:CD2:4259, V-B:TYR:539:CG:9844, V-A:PRO:540:CB:4885, V-A:PRO:540:CA:4883, V-A:PRO:482:CG:4327, V-A:HIS:383:NE2:3394"]

$$$$
ZINC408971072
     RDKit          3D

 62 64  0  0  0  0  0  0  0  0999 V2000
  133.4490  131.8370   61.6880 C   0  0  0  0  0  0  0  0  0  0  0  0
  132.0500  131.2150   61.6470 C   0  0  0  0  0  0  0  0  0  0  0  0
  131.1000  132.2500   61.4080 O   0  0  0  0  0  0  0  0  0  0  0  0
  129.8200  132.1360   61.9210 C   0  0  0  0  0  0  0  0  0  0  0  0
  129.4830  131.3360   63.0270 C   0  0  0  0  0  0  0  0  0  0  0  0
  128.1660  131.2640   63.5040 C   0  0  0  0  0  0  0  0  0  0  0  0
  127.7880  130.4350   64.6570 C   0  0  0  0  0  0  0  0  0  0  0  0
  128.1700  130.6610   65.8460 N   0  0  0  0  0  0  0  0  0  0  0  0
  127.7240  129.7670   66.8260 N   0  0  0  0  0  0  0  0  0  0  0  0
  128.4080  128.6210   67.2410 C   0  0  0  0  0  0  0  0  0  0  0  0
  128.8290  127.6170   66.3620 C   0  0  0  0  0  0  0  0  0  0  0  0
  129.5090  126.5100   66.9000 C   0  0  0  0  0  0  0  0  0  0  0  0
  129.9780  125.4480   66.0780 N   0  0  0  0  0  0  0  0  0  0  0  0
  129.8490  124.0620   66.5300 C   0  0  0  0  0  0  0  0  0  0  0  0
  130.2020  125.6670   64.6500 C   0  0  0  0  0  0  0  0  0  0  0  0
  129.7400  126.4410   68.2420 N   0  0  0  0  0  0  0  0  0  0  0  0
  129.3020  127.4520   69.0450 C   0  0  0  0  0  0  0  0  0  0  0  0
  129.5540  127.3630   70.4420 N   0  0  0  0  0  0  0  0  0  0  0  0
  130.7020  128.0570   71.0260 C   0  0  0  0  0  0  0  0  0  0  0  0
  128.4820  126.9670   71.3560 C   0  0  0  0  0  0  0  0  0  0  0  0
  128.6410  128.5460   68.5730 N   0  0  0  0  0  0  0  0  0  0  0  0
  127.1810  132.0140   62.8520 C   0  0  0  0  0  0  0  0  0  0  0  0
  127.4960  132.8150   61.7570 C   0  0  0  0  0  0  0  0  0  0  0  0
  126.1190  133.8270   60.9140 Br  0  0  0  0  0  0  0  0  0  0  0  0
  128.8110  132.8720   61.2870 C   0  0  0  0  0  0  0  0  0  0  0  0
  129.1170  133.6730   60.2140 O   0  0  0  0  0  0  0  0  0  0  0  0
  128.8090  133.1000   58.9450 C   0  0  0  0  0  0  0  0  0  0  0  0
  130.0180  132.3890   58.3420 C   0  0  0  0  0  0  0  0  0  0  0  0
  130.9160  133.0530   57.4940 C   0  0  0  0  0  0  0  0  0  0  0  0
  132.0120  132.3770   56.9580 C   0  0  0  0  0  0  0  0  0  0  0  0
  132.2230  131.0340   57.2630 C   0  0  0  0  0  0  0  0  0  0  0  0
  131.3360  130.3660   58.1080 C   0  0  0  0  0  0  0  0  0  0  0  0
  130.2400  131.0390   58.6460 C   0  0  0  0  0  0  0  0  0  0  0  0
  129.3900  130.3760   59.4650 F   0  0  0  0  0  0  0  0  0  0  0  0
  133.7586  131.9746   62.7345 H   0  0  0  0  0  0  0  0  0  0  0  0
  134.1615  131.1709   61.1795 H   0  0  0  0  0  0  0  0  0  0  0  0
  133.4317  132.8122   61.1795 H   0  0  0  0  0  0  0  0  0  0  0  0
  131.9987  130.4708   60.8386 H   0  0  0  0  0  0  0  0  0  0  0  0
  131.8314  130.7173   62.6033 H   0  0  0  0  0  0  0  0  0  0  0  0
  130.2696  130.7537   63.5293 H   0  0  0  0  0  0  0  0  0  0  0  0
  127.1355  129.5675   64.4790 H   0  0  0  0  0  0  0  0  0  0  0  0
  126.8300  129.9990   67.2370 H   0  0  0  0  0  0  0  0  0  0  0  0
  128.6338  127.6915   65.2820 H   0  0  0  0  0  0  0  0  0  0  0  0
  129.8464  124.0337   67.6296 H   0  0  0  0  0  0  0  0  0  0  0  0
  128.9076  123.6385   66.1500 H   0  0  0  0  0  0  0  0  0  0  0  0
  130.6961  123.4721   66.1500 H   0  0  0  0  0  0  0  0  0  0  0  0
  130.9825  126.4301   64.5141 H   0  0  0  0  0  0  0  0  0  0  0  0
  130.5239  124.7256   64.1807 H   0  0  0  0  0  0  0  0  0  0  0  0
  129.2681  126.0101   64.1807 H   0  0  0  0  0  0  0  0  0  0  0  0
  130.6354  128.0168   72.1232 H   0  0  0  0  0  0  0  0  0  0  0  0
  131.6315  127.5694   70.6969 H   0  0  0  0  0  0  0  0  0  0  0  0
  130.7022  129.1066   70.6969 H   0  0  0  0  0  0  0  0  0  0  0  0
  128.8210  127.0922   72.3949 H   0  0  0  0  0  0  0  0  0  0  0  0
  127.5984  127.5980   71.1801 H   0  0  0  0  0  0  0  0  0  0  0  0
  128.2208  125.9130   71.1801 H   0  0  0  0  0  0  0  0  0  0  0  0
  126.1417  131.9703   63.2098 H   0  0  0  0  0  0  0  0  0  0  0  0
  127.9929  132.3731   59.0700 H   0  0  0  0  0  0  0  0  0  0  0  0
  128.5114  133.9110   58.2640 H   0  0  0  0  0  0  0  0  0  0  0  0
  130.7551  134.1135   57.2500 H   0  0  0  0  0  0  0  0  0  0  0  0
  132.7112  132.9053   56.2931 H   0  0  0  0  0  0  0  0  0  0  0  0
  133.0869  130.5015   56.8386 H   0  0  0  0  0  0  0  0  0  0  0  0
  131.5019  129.3059   58.3502 H   0  0  0  0  0  0  0  0  0  0  0  0
  1  2  1  0
  2  3  1  0
  3  4  1  0
  4  5  2  0
  5  6  1  0
  6  7  1  0
  7  8  2  0
  8  9  1  0
  9 10  1  0
 10 11  2  0
 11 12  1  0
 12 13  1  0
 13 14  1  0
 13 15  1  0
 12 16  2  0
 16 17  1  0
 17 18  1  0
 18 19  1  0
 18 20  1  0
 17 21  2  0
  6 22  2  0
 22 23  1  0
 23 24  1  0
 23 25  2  0
 25 26  1  0
 26 27  1  0
 27 28  1  0
 28 29  2  0
 29 30  1  0
 30 31  2  0
 31 32  1  0
 32 33  2  0
 33 34  1  0
 25  4  1  0
 33 28  1  0
 21 10  1  0
  1 35  1  0
  1 36  1  0
  1 37  1  0
  2 38  1  0
  2 39  1  0
  5 40  1  0
  7 41  1  0
  9 42  1  0
 11 43  1  0
 14 44  1  0
 14 45  1  0
 14 46  1  0
 15 47  1  0
 15 48  1  0
 15 49  1  0
 19 50  1  0
 19 51  1  0
 19 52  1  0
 20 53  1  0
 20 54  1  0
 20 55  1  0
 22 56  1  0
 27 57  1  0
 27 58  1  0
 29 59  1  0
 30 60  1  0
 31 61  1  0
 32 62  1  0
M  END
>  <Binding energies>  (1) 
[-7.98]

>  <Ligand effiencies>  (1) 
[-0.228]

>  <Interactions>  (1) 
["V-A:GLU:543:C:4902, H-A:ALA:541:N:4891, V-B:GLU:543:CB:9878, V-A:TYR:484:CE2:4346, V-B:GLU:543:CG:9879, V-A:GLY:544:C:4912, V-A:ASN:362:CB:3176, V-A:TYR:539:CD1:4873, V-A:LEU:363:CD1:3189, V-B:TYR:484:CE2:9317, V-A:TYR:531:CE2:4793, V-A:GLU:543:CD:4908, V-A:TYR:484:CZ:4347, H-B:TYR:484:OH:9319, V-B:HIS:456:CE1:9041, V-B:GLU:543:CA:9876, V-B:TYR:484:CZ:9318, V-A:HIS:456:CE1:4070, H-B:HIS:456:NE2:9042, V-A:GLU:543:CG:4907, V-A:TYR:531:CZ:4794, V-B:GLU:543:CD:9880, V-A:TYR:539:C:4867, V-A:ASN:362:C:3172, V-A:GLU:543:CB:4906, V-A:PRO:540:N:4884, V-A:PRO:540:CB:4885, V-A:PRO:540:CA:4883, V-A:PRO:540:CD:4887, V-A:TYR:539:CE1:4875"]

$$$$
ZINC408972358
     RDKit          3D

 69 70  0  0  0  0  0  0  0  0999 V2000
  129.7430  132.6820   57.0040 C   0  0  0  0  0  0  0  0  0  0  0  0
  129.7680  132.9880   58.5090 C   0  0  0  0  0  0  0  0  0  0  0  0
  128.3710  133.1020   59.1360 C   0  0  0  0  0  0  0  0  0  0  0  0
  128.4750  133.6660   60.4390 O   0  0  0  0  0  0  0  0  0  0  0  0
  128.4350  132.7450   61.4590 C   0  0  0  0  0  0  0  0  0  0  0  0
  127.2090  132.4030   62.0360 C   0  0  0  0  0  0  0  0  0  0  0  0
  125.4240  133.2750   61.3690 I   0  0  0  0  0  0  0  0  0  0  0  0
  127.1600  131.4720   63.0710 C   0  0  0  0  0  0  0  0  0  0  0  0
  128.3290  130.8660   63.5530 C   0  0  0  0  0  0  0  0  0  0  0  0
  128.3110  129.8780   64.6400 C   0  0  0  0  0  0  0  0  0  0  0  0
  127.3770  129.7900   65.5010 N   0  0  0  0  0  0  0  0  0  0  0  0
  127.5810  128.8040   66.3930 N   0  0  0  0  0  0  0  0  0  0  0  0
  128.2380  129.0020   67.5520 C   0  0  0  0  0  0  0  0  0  0  0  0
  128.7080  130.0820   67.9250 O   0  0  0  0  0  0  0  0  0  0  0  0
  128.3400  127.7610   68.4690 C   0  0  2  0  0  0  0  0  0  0  0  0
  129.1440  128.0820   69.7580 C   0  0  0  0  0  0  0  0  0  0  0  0
  128.9540  127.0780   70.9230 C   0  0  0  0  0  0  0  0  0  0  0  0
  127.4920  126.9970   71.4080 C   0  0  0  0  0  0  0  0  0  0  0  0
  129.9350  127.3790   72.0770 C   0  0  0  0  0  0  0  0  0  0  0  0
  128.9510  126.6160   67.7860 N   0  0  0  0  0  0  0  0  0  0  0  0
  130.2710  126.3670   67.7310 C   0  0  0  0  0  0  0  0  0  0  0  0
  131.1140  127.0830   68.2730 O   0  0  0  0  0  0  0  0  0  0  0  0
  130.7010  125.1430   66.8970 C   0  0  2  0  0  0  0  0  0  0  0  0
  131.9400  125.4730   66.0460 C   0  0  0  0  0  0  0  0  0  0  0  0
  129.6600  124.7650   65.9850 O   0  0  0  0  0  0  0  0  0  0  0  0
  129.6060  125.2780   64.6960 C   0  0  0  0  0  0  0  0  0  0  0  0
  129.4520  126.6440   64.4000 C   0  0  0  0  0  0  0  0  0  0  0  0
  129.4210  127.0880   63.0780 C   0  0  0  0  0  0  0  0  0  0  0  0
  129.5360  126.1740   62.0330 C   0  0  0  0  0  0  0  0  0  0  0  0
  129.5000  126.7220   60.3970 Cl  0  0  0  0  0  0  0  0  0  0  0  0
  129.6810  124.8160   62.3120 C   0  0  0  0  0  0  0  0  0  0  0  0
  129.7150  124.3690   63.6340 C   0  0  0  0  0  0  0  0  0  0  0  0
  129.9030  122.6780   63.9390 Cl  0  0  0  0  0  0  0  0  0  0  0  0
  129.5510  131.2260   62.9710 C   0  0  0  0  0  0  0  0  0  0  0  0
  129.6210  132.1650   61.9270 C   0  0  0  0  0  0  0  0  0  0  0  0
  130.8000  132.5610   61.3200 O   0  0  0  0  0  0  0  0  0  0  0  0
  131.9580  131.7420   61.4340 C   0  0  0  0  0  0  0  0  0  0  0  0
  129.6543  131.5962   56.8520 H   0  0  0  0  0  0  0  0  0  0  0  0
  128.8832  133.1885   56.5411 H   0  0  0  0  0  0  0  0  0  0  0  0
  130.6736  133.0422   56.5411 H   0  0  0  0  0  0  0  0  0  0  0  0
  130.3134  132.1803   59.0191 H   0  0  0  0  0  0  0  0  0  0  0  0
  130.2575  133.9654   58.6315 H   0  0  0  0  0  0  0  0  0  0  0  0
  127.7396  133.7472   58.5075 H   0  0  0  0  0  0  0  0  0  0  0  0
  127.9205  132.1010   59.2070 H   0  0  0  0  0  0  0  0  0  0  0  0
  126.1896  131.2082   63.5169 H   0  0  0  0  0  0  0  0  0  0  0  0
  129.1527  129.1738   64.7144 H   0  0  0  0  0  0  0  0  0  0  0  0
  127.2050  127.9020   66.1410 H   0  0  0  0  0  0  0  0  0  0  0  0
  127.3091  127.4897   68.7403 H   0  0  0  0  0  0  0  0  0  0  0  0
  130.2123  128.1012   69.4965 H   0  0  0  0  0  0  0  0  0  0  0  0
  128.7626  129.0473   70.1225 H   0  0  0  0  0  0  0  0  0  0  0  0
  129.1942  126.0786   70.5311 H   0  0  0  0  0  0  0  0  0  0  0  0
  127.4701  126.9958   72.5078 H   0  0  0  0  0  0  0  0  0  0  0  0
  126.9320  127.8655   71.0310 H   0  0  0  0  0  0  0  0  0  0  0  0
  127.0313  126.0720   71.0310 H   0  0  0  0  0  0  0  0  0  0  0  0
  129.4270  127.2231   73.0401 H   0  0  0  0  0  0  0  0  0  0  0  0
  130.8018  126.7055   72.0064 H   0  0  0  0  0  0  0  0  0  0  0  0
  130.2749  128.4228   72.0064 H   0  0  0  0  0  0  0  0  0  0  0  0
  128.3110  125.9890   67.3210 H   0  0  0  0  0  0  0  0  0  0  0  0
  130.9187  124.3296   67.6048 H   0  0  0  0  0  0  0  0  0  0  0  0
  132.7894  125.6992   66.7073 H   0  0  0  0  0  0  0  0  0  0  0  0
  132.1893  124.6099   65.4112 H   0  0  0  0  0  0  0  0  0  0  0  0
  131.7270  126.3457   65.4112 H   0  0  0  0  0  0  0  0  0  0  0  0
  129.3549  127.3706   65.2201 H   0  0  0  0  0  0  0  0  0  0  0  0
  129.3057  128.1601   62.8606 H   0  0  0  0  0  0  0  0  0  0  0  0
  129.7690  124.0937   61.4871 H   0  0  0  0  0  0  0  0  0  0  0  0
  130.4782  130.7629   63.3396 H   0  0  0  0  0  0  0  0  0  0  0  0
  132.1886  131.5789   62.4971 H   0  0  0  0  0  0  0  0  0  0  0  0
  131.7717  130.7737   60.9465 H   0  0  0  0  0  0  0  0  0  0  0  0
  132.8089  132.2402   60.9465 H   0  0  0  0  0  0  0  0  0  0  0  0
  1  2  1  0
  2  3  1  0
  3  4  1  0
  4  5  1  0
  5  6  2  0
  6  7  1  0
  6  8  1  0
  8  9  2  0
  9 10  1  0
 10 11  2  0
 11 12  1  0
 12 13  1  0
 13 14  2  0
 13 15  1  0
 15 16  1  0
 16 17  1  0
 17 18  1  0
 17 19  1  0
 15 20  1  0
 20 21  1  0
 21 22  2  0
 21 23  1  0
 23 24  1  0
 23 25  1  0
 25 26  1  0
 26 27  2  0
 27 28  1  0
 28 29  2  0
 29 30  1  0
 29 31  1  0
 31 32  2  0
 32 33  1  0
  9 34  1  0
 34 35  2  0
 35 36  1  0
 36 37  1  0
 35  5  1  0
 32 26  1  0
  1 38  1  0
  1 39  1  0
  1 40  1  0
  2 41  1  0
  2 42  1  0
  3 43  1  0
  3 44  1  0
  8 45  1  0
 10 46  1  0
 12 47  1  0
 15 48  1  1
 16 49  1  0
 16 50  1  0
 17 51  1  0
 18 52  1  0
 18 53  1  0
 18 54  1  0
 19 55  1  0
 19 56  1  0
 19 57  1  0
 20 58  1  0
 23 59  1  1
 24 60  1  0
 24 61  1  0
 24 62  1  0
 27 63  1  0
 28 64  1  0
 31 65  1  0
 34 66  1  0
 37 67  1  0
 37 68  1  0
 37 69  1  0
M  END
>  <Binding energies>  (1) 
[-7.9]

>  <Ligand effiencies>  (1) 
[-0.20256410256410257]

>  <Interactions>  (1) 
["V-B:HIS:456:CD2:9039, H-B:GLU:543:O:9875, H-A:ALA:541:N:4891, V-B:GLU:543:CB:9878, V-B:ALA:541:CB:9864, V-A:TYR:484:CE2:4346, V-B:GLU:543:CG:9879, V-A:HIS:456:CD2:4068, V-A:TYR:539:CD1:4873, V-A:GLU:543:CD:4908, V-A:TYR:484:CZ:4347, H-B:TYR:484:OH:9319, V-B:HIS:456:CE1:9041, V-A:HIS:456:CE1:4070, V-B:GLY:544:C:9884, V-B:GLY:544:CA:9886, V-A:GLU:543:CG:4907, V-B:GLU:543:CD:9880, V-A:TYR:539:C:4867, V-A:LEU:475:CD2:4259, V-A:GLU:543:CB:4906, V-A:PRO:540:N:4884, H-B:GLU:543:OE2:9882, V-A:PRO:540:CA:4883, V-A:PRO:540:CB:4885, V-A:TYR:539:CE1:4875"]

$$$$
ZINC408982988
     RDKit          3D

 62 65  0  0  0  0  0  0  0  0999 V2000
  130.2430  132.8800   57.4050 C   0  0  0  0  0  0  0  0  0  0  0  0
  131.0120  131.7890   57.5430 C   0  0  0  0  0  0  0  0  0  0  0  0
  130.9540  130.8300   58.7180 C   0  0  0  0  0  0  0  0  0  0  0  0
  130.4670  129.4370   58.3310 C   0  0  0  0  0  0  0  0  0  0  0  0
  131.3870  128.3860   58.2750 C   0  0  0  0  0  0  0  0  0  0  0  0
  130.9880  127.0990   57.9120 C   0  0  0  0  0  0  0  0  0  0  0  0
  131.9940  126.0140   57.8770 C   0  0  0  0  0  0  0  0  0  0  0  0
  132.3660  125.1000   58.8320 C   0  0  0  0  0  0  0  0  0  0  0  0
  131.6650  125.0190   60.1300 C   0  0  0  0  0  0  0  0  0  0  0  0
  130.5260  125.4670   60.3080 O   0  0  0  0  0  0  0  0  0  0  0  0
  132.3700  124.3560   61.1210 N   0  0  0  0  0  0  0  0  0  0  0  0
  131.8180  124.3930   62.4290 C   0  0  0  0  0  0  0  0  0  0  0  0
  132.3200  125.3030   63.3660 C   0  0  0  0  0  0  0  0  0  0  0  0
  131.7800  125.3410   64.6490 C   0  0  0  0  0  0  0  0  0  0  0  0
  130.7420  124.4740   64.9960 C   0  0  0  0  0  0  0  0  0  0  0  0
  130.1510  124.5200   66.3980 C   0  0  0  0  0  0  0  0  0  0  0  0
  130.0920  125.9440   66.9680 C   0  0  0  0  0  0  0  0  0  0  0  0
  130.2420  123.5660   64.0590 C   0  0  0  0  0  0  0  0  0  0  0  0
  130.7780  123.5230   62.7750 C   0  0  0  0  0  0  0  0  0  0  0  0
  133.5470  123.6380   60.9250 C   0  0  0  0  0  0  0  0  0  0  0  0
  134.1390  123.1780   61.9060 O   0  0  0  0  0  0  0  0  0  0  0  0
  133.9850  123.4720   59.5990 N   0  0  0  0  0  0  0  0  0  0  0  0
  133.4820  124.1580   58.6430 C   0  0  0  0  0  0  0  0  0  0  0  0
  133.9640  123.9300   57.5200 O   0  0  0  0  0  0  0  0  0  0  0  0
  129.6390  126.8630   57.6330 C   0  0  0  0  0  0  0  0  0  0  0  0
  128.7130  127.9030   57.6850 C   0  0  0  0  0  0  0  0  0  0  0  0
  129.1150  129.2050   58.0280 C   0  0  0  0  0  0  0  0  0  0  0  0
  128.2490  130.2830   58.0900 O   0  0  0  0  0  0  0  0  0  0  0  0
  127.3590  130.4170   59.1950 C   0  0  0  0  0  0  0  0  0  0  0  0
  127.8350  131.5350   60.1120 C   0  0  0  0  0  0  0  0  0  0  0  0
  127.1550  132.7560   60.1400 C   0  0  0  0  0  0  0  0  0  0  0  0
  127.5960  133.7850   60.9690 C   0  0  0  0  0  0  0  0  0  0  0  0
  128.7220  133.6030   61.7710 C   0  0  0  0  0  0  0  0  0  0  0  0
  129.4250  132.3880   61.7560 C   0  0  0  0  0  0  0  0  0  0  0  0
  130.6240  132.1930   62.6080 N   0  0  0  0  0  0  0  0  0  0  0  0
  130.5240  132.3850   63.8170 O   0  0  0  0  0  0  0  0  0  0  0  0
  131.6740  131.8460   62.0740 O   0  0  0  0  0  0  0  0  0  0  0  0
  128.9680  131.3630   60.9140 C   0  0  0  0  0  0  0  0  0  0  0  0
  130.3523  133.5213   56.5180 H   0  0  0  0  0  0  0  0  0  0  0  0
  129.5033  133.1330   58.1789 H   0  0  0  0  0  0  0  0  0  0  0  0
  131.7383  131.5737   56.7454 H   0  0  0  0  0  0  0  0  0  0  0  0
  131.9628  130.7413   59.1474 H   0  0  0  0  0  0  0  0  0  0  0  0
  130.2331  131.2402   59.4405 H   0  0  0  0  0  0  0  0  0  0  0  0
  132.4421  128.5765   58.5210 H   0  0  0  0  0  0  0  0  0  0  0  0
  132.5359  125.9245   56.9239 H   0  0  0  0  0  0  0  0  0  0  0  0
  133.1376  125.9853   63.0903 H   0  0  0  0  0  0  0  0  0  0  0  0
  132.1713  126.0543   65.3893 H   0  0  0  0  0  0  0  0  0  0  0  0
  129.1301  124.1119   66.3634 H   0  0  0  0  0  0  0  0  0  0  0  0
  130.8039  123.9256   67.0541 H   0  0  0  0  0  0  0  0  0  0  0  0
  130.0938  125.8994   68.0671 H   0  0  0  0  0  0  0  0  0  0  0  0
  130.9673  126.5137   66.6227 H   0  0  0  0  0  0  0  0  0  0  0  0
  129.1726  126.4394   66.6227 H   0  0  0  0  0  0  0  0  0  0  0  0
  129.4242  122.8846   64.3362 H   0  0  0  0  0  0  0  0  0  0  0  0
  130.3860  122.8087   62.0360 H   0  0  0  0  0  0  0  0  0  0  0  0
  129.3056  125.8482   57.3703 H   0  0  0  0  0  0  0  0  0  0  0  0
  127.6561  127.7026   57.4551 H   0  0  0  0  0  0  0  0  0  0  0  0
  126.3507  130.6538   58.8244 H   0  0  0  0  0  0  0  0  0  0  0  0
  127.3363  129.4722   59.7580 H   0  0  0  0  0  0  0  0  0  0  0  0
  126.2689  132.9048   59.5054 H   0  0  0  0  0  0  0  0  0  0  0  0
  127.0551  134.7426   60.9909 H   0  0  0  0  0  0  0  0  0  0  0  0
  129.0633  134.4207   62.4228 H   0  0  0  0  0  0  0  0  0  0  0  0
  129.5106  130.4066   60.8840 H   0  0  0  0  0  0  0  0  0  0  0  0
  1  2  2  0
  2  3  1  0
  3  4  1  0
  4  5  2  0
  5  6  1  0
  6  7  1  0
  7  8  2  0
  8  9  1  0
  9 10  2  0
  9 11  1  0
 11 12  1  0
 12 13  2  0
 13 14  1  0
 14 15  2  0
 15 16  1  0
 16 17  1  0
 15 18  1  0
 18 19  2  0
 11 20  1  0
 20 21  2  0
 20 22  1  0
 22 23  2  0
 23 24  1  0
  6 25  2  0
 25 26  1  0
 26 27  2  0
 27 28  1  0
 28 29  1  0
 29 30  1  0
 30 31  2  0
 31 32  1  0
 32 33  2  0
 33 34  1  0
 34 35  1  0
 35 36  2  0
 35 37  1  0
 34 38  2  0
 27  4  1  0
 38 30  1  0
 23  8  1  0
 19 12  1  0
  1 39  1  0
  1 40  1  0
  2 41  1  0
  3 42  1  0
  3 43  1  0
  5 44  1  0
  7 45  1  0
 13 46  1  0
 14 47  1  0
 16 48  1  0
 16 49  1  0
 17 50  1  0
 17 51  1  0
 17 52  1  0
 18 53  1  0
 19 54  1  0
 25 55  1  0
 26 56  1  0
 29 57  1  0
 29 58  1  0
 31 59  1  0
 32 60  1  0
 33 61  1  0
 38 62  1  0
M  CHG  3  24  -1  35   1  37  -1
M  END
>  <Binding energies>  (1) 
[-8.39]

>  <Ligand effiencies>  (1) 
[-0.22078947368421054]

>  <Interactions>  (1) 
["V-A:ILE:369:CG2:3237, V-A:ASP:366:CA:3210, V-A:ILE:369:CB:3236, H-A:ALA:541:N:4891, V-A:PRO:540:C:4881, V-B:GLU:543:CB:9878, V-B:TYR:539:CE2:9848, V-A:TYR:484:CE2:4346, V-B:GLU:543:CG:9879, V-A:ASP:366:CG:3213, V-A:TYR:539:CD1:4873, V-B:TYR:539:CZ:9849, H-A:ASN:370:N:3244, H-B:TYR:539:OH:9850, V-A:ALA:541:CB:4892, V-A:GLU:543:CD:4908, V-A:TYR:484:CZ:4347, H-A:GLY:454:N:4050, V-A:ILE:369:CD1:3239, V-A:HIS:456:CE1:4070, V-A:ALA:541:CA:4890, V-A:GLU:543:CG:4907, V-A:TYR:539:C:4867, V-A:ASP:366:CB:3212, V-A:ARG:545:CZ:4926, V-A:PRO:540:N:4884, V-A:PRO:540:CA:4883, V-A:TYR:539:CE1:4875"]

$$$$
ZINC408991211
     RDKit          3D

 66 69  0  0  0  0  0  0  0  0999 V2000
  126.4340  123.8380   57.2490 C   0  0  0  0  0  0  0  0  0  0  0  0
  126.5430  124.7570   58.2220 C   0  0  0  0  0  0  0  0  0  0  0  0
  126.5490  126.2580   57.9950 C   0  0  0  0  0  0  0  0  0  0  0  0
  127.9440  126.8740   58.0720 C   0  0  0  0  0  0  0  0  0  0  0  0
  129.0670  126.0460   58.0160 C   0  0  0  0  0  0  0  0  0  0  0  0
  130.3560  126.5790   58.1020 C   0  0  0  0  0  0  0  0  0  0  0  0
  131.5530  125.7140   58.0400 C   0  0  0  0  0  0  0  0  0  0  0  0
  132.3300  125.1930   59.0430 C   0  0  0  0  0  0  0  0  0  0  0  0
  132.0930  125.5470   60.4570 C   0  0  0  0  0  0  0  0  0  0  0  0
  131.4790  126.5640   60.8010 O   0  0  0  0  0  0  0  0  0  0  0  0
  132.6600  124.6720   61.3700 N   0  0  0  0  0  0  0  0  0  0  0  0
  132.3320  124.8780   62.7360 C   0  0  0  0  0  0  0  0  0  0  0  0
  130.9990  125.0780   63.1160 C   0  0  0  0  0  0  0  0  0  0  0  0
  130.6790  125.2880   64.4560 C   0  0  0  0  0  0  0  0  0  0  0  0
  131.6810  125.2980   65.4330 C   0  0  0  0  0  0  0  0  0  0  0  0
  131.3030  125.5330   66.8870 C   0  0  0  0  0  0  0  0  0  0  0  0
  133.0170  125.0940   65.0530 C   0  0  0  0  0  0  0  0  0  0  0  0
  134.2950  125.0970   66.2200 Cl  0  0  0  0  0  0  0  0  0  0  0  0
  133.3380  124.8860   63.7100 C   0  0  0  0  0  0  0  0  0  0  0  0
  133.5420  123.6420   61.0530 C   0  0  0  0  0  0  0  0  0  0  0  0
  133.8890  122.8560   61.9390 O   0  0  0  0  0  0  0  0  0  0  0  0
  133.9940  123.5710   59.7230 N   0  0  0  0  0  0  0  0  0  0  0  0
  133.4270  124.2430   58.7920 C   0  0  0  0  0  0  0  0  0  0  0  0
  133.9080  124.0830   57.6570 O   0  0  0  0  0  0  0  0  0  0  0  0
  130.5150  127.9620   58.2090 C   0  0  0  0  0  0  0  0  0  0  0  0
  129.4010  128.8160   58.2680 C   0  0  0  0  0  0  0  0  0  0  0  0
  129.4880  130.1930   58.3740 O   0  0  0  0  0  0  0  0  0  0  0  0
  130.3450  130.7720   59.3520 C   0  0  0  0  0  0  0  0  0  0  0  0
  131.6460  131.1990   58.6650 C   0  0  0  0  0  0  0  0  0  0  0  0
  128.1160  128.2590   58.2160 C   0  0  0  0  0  0  0  0  0  0  0  0
  127.0130  129.0780   58.2730 O   0  0  0  0  0  0  0  0  0  0  0  0
  126.2660  128.9790   59.4820 C   0  0  0  0  0  0  0  0  0  0  0  0
  126.9420  129.7970   60.5730 C   0  0  0  0  0  0  0  0  0  0  0  0
  127.6290  129.1510   61.6030 C   0  0  0  0  0  0  0  0  0  0  0  0
  128.2570  129.8970   62.5970 C   0  0  0  0  0  0  0  0  0  0  0  0
  128.2120  131.2970   62.5740 C   0  0  0  0  0  0  0  0  0  0  0  0
  128.8850  132.0910   63.6320 N   0  0  0  0  0  0  0  0  0  0  0  0
  128.3220  132.2270   64.7140 O   0  0  0  0  0  0  0  0  0  0  0  0
  129.9820  132.5860   63.3880 O   0  0  0  0  0  0  0  0  0  0  0  0
  127.5230  131.9360   61.5330 C   0  0  0  0  0  0  0  0  0  0  0  0
  126.8940  131.1920   60.5390 C   0  0  0  0  0  0  0  0  0  0  0  0
  126.4382  122.7672   57.5008 H   0  0  0  0  0  0  0  0  0  0  0  0
  126.3405  124.1560   56.2001 H   0  0  0  0  0  0  0  0  0  0  0  0
  126.6345  124.3965   59.2572 H   0  0  0  0  0  0  0  0  0  0  0  0
  126.1315  126.4622   56.9980 H   0  0  0  0  0  0  0  0  0  0  0  0
  125.9475  126.7115   58.7965 H   0  0  0  0  0  0  0  0  0  0  0  0
  128.9353  124.9598   57.9027 H   0  0  0  0  0  0  0  0  0  0  0  0
  131.8730  125.4439   57.0228 H   0  0  0  0  0  0  0  0  0  0  0  0
  130.2038  125.0693   62.3560 H   0  0  0  0  0  0  0  0  0  0  0  0
  129.6305  125.4472   64.7481 H   0  0  0  0  0  0  0  0  0  0  0  0
  132.0540  125.0661   67.5412 H   0  0  0  0  0  0  0  0  0  0  0  0
  131.2650  126.6142   67.0858 H   0  0  0  0  0  0  0  0  0  0  0  0
  130.3166  125.0887   67.0858 H   0  0  0  0  0  0  0  0  0  0  0  0
  134.3860  124.7277   63.4158 H   0  0  0  0  0  0  0  0  0  0  0  0
  131.5278  128.3894   58.2477 H   0  0  0  0  0  0  0  0  0  0  0  0
  129.8567  131.6497   59.8006 H   0  0  0  0  0  0  0  0  0  0  0  0
  130.5596  130.0413   60.1458 H   0  0  0  0  0  0  0  0  0  0  0  0
  132.3993  131.4462   59.4275 H   0  0  0  0  0  0  0  0  0  0  0  0
  132.0165  130.3753   58.0371 H   0  0  0  0  0  0  0  0  0  0  0  0
  131.4564  132.0820   58.0371 H   0  0  0  0  0  0  0  0  0  0  0  0
  125.2486  129.3624   59.3153 H   0  0  0  0  0  0  0  0  0  0  0  0
  126.2180  127.9254   59.7945 H   0  0  0  0  0  0  0  0  0  0  0  0
  127.6741  128.0522   61.6291 H   0  0  0  0  0  0  0  0  0  0  0  0
  128.7934  129.3823   63.4078 H   0  0  0  0  0  0  0  0  0  0  0  0
  127.4793  133.0347   61.5018 H   0  0  0  0  0  0  0  0  0  0  0  0
  126.3585  131.7036   59.7257 H   0  0  0  0  0  0  0  0  0  0  0  0
  1  2  2  0
  2  3  1  0
  3  4  1  0
  4  5  2  0
  5  6  1  0
  6  7  1  0
  7  8  2  0
  8  9  1  0
  9 10  2  0
  9 11  1  0
 11 12  1  0
 12 13  2  0
 13 14  1  0
 14 15  2  0
 15 16  1  0
 15 17  1  0
 17 18  1  0
 17 19  2  0
 11 20  1  0
 20 21  2  0
 20 22  1  0
 22 23  2  0
 23 24  1  0
  6 25  2  0
 25 26  1  0
 26 27  1  0
 27 28  1  0
 28 29  1  0
 26 30  2  0
 30 31  1  0
 31 32  1  0
 32 33  1  0
 33 34  2  0
 34 35  1  0
 35 36  2  0
 36 37  1  0
 37 38  2  0
 37 39  1  0
 36 40  1  0
 40 41  2  0
 30  4  1  0
 41 33  1  0
 23  8  1  0
 19 12  1  0
  1 42  1  0
  1 43  1  0
  2 44  1  0
  3 45  1  0
  3 46  1  0
  5 47  1  0
  7 48  1  0
 13 49  1  0
 14 50  1  0
 16 51  1  0
 16 52  1  0
 16 53  1  0
 19 54  1  0
 25 55  1  0
 28 56  1  0
 28 57  1  0
 29 58  1  0
 29 59  1  0
 29 60  1  0
 32 61  1  0
 32 62  1  0
 34 63  1  0
 35 64  1  0
 40 65  1  0
 41 66  1  0
M  CHG  3  24  -1  37   1  39  -1
M  END
>  <Binding energies>  (1) 
[-8.03]

>  <Ligand effiencies>  (1) 
[-0.19585365853658535]

>  <Interactions>  (1) 
["V-A:ILE:369:CG2:3237, V-A:ASP:366:CA:3210, V-A:GLY:454:CA:4049, V-A:ILE:369:CB:3236, H-A:ALA:541:N:4891, V-B:ASP:366:CG:8184, V-B:TYR:539:CE2:9848, V-A:ASP:366:CG:3213, V-B:TYR:539:CZ:9849, H-A:ASN:370:N:3244, H-B:TYR:539:OH:9850, V-A:ALA:541:CB:4892, V-A:TYR:484:CZ:4347, H-B:TYR:484:OH:9319, V-A:ARG:545:CG:4922, V-A:GLY:453:C:4042, V-A:ILE:369:CD1:3239, V-A:HIS:456:CE1:4070, V-A:GLU:543:CG:4907, H-B:TYR:531:OH:9767, V-A:ASP:366:CB:3212, V-A:ARG:545:CD:4923, V-A:ARG:545:CZ:4926, V-A:GLY:453:CA:4044, V-A:PRO:540:CB:4885"]

$$$$
ZINC408992686
     RDKit          3D

 62 66  0  0  0  0  0  0  0  0999 V2000
  133.2320  123.6490   63.4040 C   0  0  0  0  0  0  0  0  0  0  0  0
  133.0640  124.7320   64.4740 C   0  0  0  0  0  0  0  0  0  0  0  0
  132.0460  124.3350   65.3820 O   0  0  0  0  0  0  0  0  0  0  0  0
  130.7560  124.2190   64.9840 C   0  0  0  0  0  0  0  0  0  0  0  0
  130.0370  123.2550   65.2680 O   0  0  0  0  0  0  0  0  0  0  0  0
  130.3110  125.3550   64.1440 C   0  0  0  0  0  0  0  0  0  0  0  0
  129.5420  126.3870   64.6170 C   0  0  0  0  0  0  0  0  0  0  0  0
  129.2140  126.6550   66.0420 C   0  0  0  0  0  0  0  0  0  0  0  0
  128.4650  127.7820   66.4000 C   0  0  0  0  0  0  0  0  0  0  0  0
  128.1550  128.0300   67.7340 C   0  0  0  0  0  0  0  0  0  0  0  0
  128.5920  127.1460   68.7180 C   0  0  0  0  0  0  0  0  0  0  0  0
  129.3340  126.0180   68.3780 C   0  0  0  0  0  0  0  0  0  0  0  0
  129.6430  125.7720   67.0420 C   0  0  0  0  0  0  0  0  0  0  0  0
  129.0900  127.3920   63.8050 N   0  0  0  0  0  0  0  0  0  0  0  0
  129.4270  127.4470   62.5700 C   0  0  0  0  0  0  0  0  0  0  0  0
  129.0050  128.7550   61.4740 S   0  0  0  0  0  0  0  0  0  0  0  0
  129.9710  128.0000   60.1930 C   0  0  0  0  0  0  0  0  0  0  0  0
  130.2040  128.4240   58.9250 C   0  0  0  0  0  0  0  0  0  0  0  0
  129.7860  129.6750   58.2440 C   0  0  0  0  0  0  0  0  0  0  0  0
  128.4340  129.8350   57.9550 C   0  0  0  0  0  0  0  0  0  0  0  0
  127.9570  130.9830   57.3300 C   0  0  0  0  0  0  0  0  0  0  0  0
  125.8750  131.0370   56.9890 I   0  0  0  0  0  0  0  0  0  0  0  0
  128.8450  132.0170   56.9680 C   0  0  0  0  0  0  0  0  0  0  0  0
  128.3530  133.0510   56.4060 O   0  0  0  0  0  0  0  0  0  0  0  0
  130.2380  131.8780   57.2390 C   0  0  0  0  0  0  0  0  0  0  0  0
  131.2860  132.8980   56.8970 N   0  0  0  0  0  0  0  0  0  0  0  0
  132.4120  132.5600   56.5480 O   0  0  0  0  0  0  0  0  0  0  0  0
  130.9900  134.0880   56.9790 O   0  0  0  0  0  0  0  0  0  0  0  0
  130.6650  130.6950   57.8720 C   0  0  0  0  0  0  0  0  0  0  0  0
  130.5070  126.7270   60.6500 C   0  0  0  0  0  0  0  0  0  0  0  0
  131.1830  125.9510   59.9680 O   0  0  0  0  0  0  0  0  0  0  0  0
  130.1690  126.4950   61.9450 N   0  0  0  0  0  0  0  0  0  0  0  0
  130.5260  125.1960   62.6100 C   0  0  2  0  0  0  0  0  0  0  0  0
  129.6820  124.0480   62.0300 C   0  0  0  0  0  0  0  0  0  0  0  0
  130.3130  122.8890   61.5690 C   0  0  0  0  0  0  0  0  0  0  0  0
  129.5600  121.8360   61.0530 C   0  0  0  0  0  0  0  0  0  0  0  0
  128.1710  121.9340   60.9960 C   0  0  0  0  0  0  0  0  0  0  0  0
  127.5160  123.0800   61.4530 C   0  0  0  0  0  0  0  0  0  0  0  0
  126.1370  123.0910   61.3620 O   0  0  0  0  0  0  0  0  0  0  0  0
  125.4890  124.2300   60.8070 C   0  0  0  0  0  0  0  0  0  0  0  0
  128.2840  124.1350   61.9710 C   0  0  0  0  0  0  0  0  0  0  0  0
  133.3833  122.6738   63.8899 H   0  0  0  0  0  0  0  0  0  0  0  0
  132.3292  123.6100   62.7768 H   0  0  0  0  0  0  0  0  0  0  0  0
  134.1042  123.8854   62.7768 H   0  0  0  0  0  0  0  0  0  0  0  0
  134.0114  124.8630   65.0173 H   0  0  0  0  0  0  0  0  0  0  0  0
  132.7849  125.6833   63.9975 H   0  0  0  0  0  0  0  0  0  0  0  0
  128.1187  128.4771   65.6209 H   0  0  0  0  0  0  0  0  0  0  0  0
  127.5684  128.9188   68.0097 H   0  0  0  0  0  0  0  0  0  0  0  0
  128.3487  127.3409   69.7729 H   0  0  0  0  0  0  0  0  0  0  0  0
  129.6747  125.3242   69.1607 H   0  0  0  0  0  0  0  0  0  0  0  0
  130.2268  124.8800   66.7707 H   0  0  0  0  0  0  0  0  0  0  0  0
  130.7945  127.7330   58.3055 H   0  0  0  0  0  0  0  0  0  0  0  0
  127.7274  129.0368   58.2265 H   0  0  0  0  0  0  0  0  0  0  0  0
  131.7372  130.5685   58.0827 H   0  0  0  0  0  0  0  0  0  0  0  0
  131.5801  124.9445   62.4213 H   0  0  0  0  0  0  0  0  0  0  0  0
  131.4091  122.8077   61.6137 H   0  0  0  0  0  0  0  0  0  0  0  0
  130.0623  120.9270   60.6905 H   0  0  0  0  0  0  0  0  0  0  0  0
  127.5836  121.0991   60.5863 H   0  0  0  0  0  0  0  0  0  0  0  0
  125.1220  124.8750   61.6190 H   0  0  0  0  0  0  0  0  0  0  0  0
  126.2027  124.7918   60.1865 H   0  0  0  0  0  0  0  0  0  0  0  0
  124.6414  123.9036   60.1865 H   0  0  0  0  0  0  0  0  0  0  0  0
  127.7815  125.0430   62.3358 H   0  0  0  0  0  0  0  0  0  0  0  0
  1  2  1  0
  2  3  1  0
  3  4  1  0
  4  5  2  0
  4  6  1  0
  6  7  2  0
  7  8  1  0
  8  9  2  0
  9 10  1  0
 10 11  2  0
 11 12  1  0
 12 13  2  0
  7 14  1  0
 14 15  2  0
 15 16  1  0
 16 17  1  0
 17 18  2  0
 18 19  1  0
 19 20  2  0
 20 21  1  0
 21 22  1  0
 21 23  2  0
 23 24  1  0
 23 25  1  0
 25 26  1  0
 26 27  2  0
 26 28  1  0
 25 29  2  0
 17 30  1  0
 30 31  2  0
 30 32  1  0
 32 33  1  0
 33 34  1  0
 34 35  2  0
 35 36  1  0
 36 37  2  0
 37 38  1  0
 38 39  1  0
 39 40  1  0
 38 41  2  0
 33  6  1  0
 41 34  1  0
 13  8  1  0
 32 15  1  0
 29 19  1  0
  1 42  1  0
  1 43  1  0
  1 44  1  0
  2 45  1  0
  2 46  1  0
  9 47  1  0
 10 48  1  0
 11 49  1  0
 12 50  1  0
 13 51  1  0
 18 52  1  0
 20 53  1  0
 29 54  1  0
 33 55  1  1
 35 56  1  0
 36 57  1  0
 37 58  1  0
 40 59  1  0
 40 60  1  0
 40 61  1  0
 41 62  1  0
M  CHG  3  24  -1  26   1  28  -1
M  END
>  <Binding energies>  (1) 
[-8.58]

>  <Ligand effiencies>  (1) 
[-0.20926829268292682]

>  <Interactions>  (1) 
["V-B:PRO:540:CA:9855, V-A:GLY:454:CA:4049, V-B:GLU:543:C:9874, V-B:GLU:543:CB:9878, V-A:ILE:538:CB:4862, V-B:ALA:541:CB:9864, V-B:TYR:539:CE2:9848, V-A:TYR:484:CE2:4346, V-B:GLU:543:CG:9879, V-B:TYR:539:C:9839, V-A:LEU:363:CD1:3189, V-A:TYR:539:CZ:4877, H-B:ALA:541:N:9863, V-A:GLU:543:CD:4908, V-B:PRO:540:CB:9857, V-B:HIS:456:CE1:9041, V-B:GLU:543:CA:9876, V-B:PRO:540:N:9856, V-A:HIS:456:CE1:4070, V-B:TYR:539:CD2:9846, V-B:GLU:543:CD:9880, V-A:MET:535:CE:4835, V-A:ARG:545:CZ:4926, V-A:PRO:540:N:4884, H-A:TYR:539:N:4870, V-A:PRO:540:CB:4885, V-B:PRO:540:C:9853, V-A:PRO:540:CD:4887, V-A:TYR:539:CE1:4875, H-A:TYR:484:OH:4348"]

$$$$
ZINC408993535-again1
     RDKit          3D

 65 71  0  0  0  0  0  0  0  0999 V2000
  126.9880  128.1020   72.9170 C   0  0  0  0  0  0  0  0  0  0  0  0
  127.8940  127.7520   71.7570 C   0  0  0  0  0  0  0  0  0  0  0  0
  127.3760  126.5450   70.6100 S   0  0  0  0  0  0  0  0  0  0  0  0
  128.8310  126.7150   69.7120 C   0  0  0  0  0  0  0  0  0  0  0  0
  129.0850  125.9800   68.5930 N   0  0  0  0  0  0  0  0  0  0  0  0
  130.2110  126.1520   67.9710 C   0  0  0  0  0  0  0  0  0  0  0  0
  130.5910  125.4110   66.7450 C   0  0  0  0  0  0  0  0  0  0  0  0
  129.6520  124.6100   66.0860 C   0  0  0  0  0  0  0  0  0  0  0  0
  129.9990  123.9160   64.9340 C   0  0  0  0  0  0  0  0  0  0  0  0
  131.2880  124.0000   64.4040 C   0  0  0  0  0  0  0  0  0  0  0  0
  131.5790  123.0550   62.9290 S   0  0  0  0  0  0  0  0  0  0  0  0
  131.4980  124.3550   61.7530 C   0  0  0  0  0  0  0  0  0  0  0  0
  131.9490  124.2550   60.5330 N   0  0  0  0  0  0  0  0  0  0  0  0
  131.7740  125.4080   59.8350 C   0  0  0  0  0  0  0  0  0  0  0  0
  132.1550  125.6050   58.5000 C   0  0  0  0  0  0  0  0  0  0  0  0
  131.9100  126.8480   57.9160 C   0  0  0  0  0  0  0  0  0  0  0  0
  131.3010  127.8900   58.6300 C   0  0  0  0  0  0  0  0  0  0  0  0
  131.0710  129.1340   58.0010 N   0  0  0  0  0  0  0  0  0  0  0  0
  129.8960  129.4660   57.3930 C   0  0  0  0  0  0  0  0  0  0  0  0
  128.8410  128.8290   57.3790 O   0  0  0  0  0  0  0  0  0  0  0  0
  130.1460  130.7630   56.6380 C   0  0  1  0  0  0  0  0  0  0  0  0
  128.9210  131.6910   56.4290 C   0  0  0  0  0  0  0  0  0  0  0  0
  128.5590  132.5660   57.6380 C   0  0  0  0  0  0  0  0  0  0  0  0
  129.7970  133.3130   58.1580 C   0  0  0  0  0  0  0  0  0  0  0  0
  130.9210  132.3370   58.5530 C   0  0  0  0  0  0  0  0  0  0  0  0
  131.3100  131.3720   57.3920 C   0  0  1  0  0  0  0  0  0  0  0  0
  132.0030  130.1310   57.9370 C   0  0  0  0  0  0  0  0  0  0  0  0
  133.1840  130.0900   58.2880 O   0  0  0  0  0  0  0  0  0  0  0  0
  130.9160  127.7060   59.9660 C   0  0  0  0  0  0  0  0  0  0  0  0
  131.1560  126.4590   60.5580 C   0  0  0  0  0  0  0  0  0  0  0  0
  130.8020  125.9010   62.1860 S   0  0  0  0  0  0  0  0  0  0  0  0
  132.2720  124.7950   65.0460 C   0  0  0  0  0  0  0  0  0  0  0  0
  133.6790  124.9520   64.5640 N   0  0  0  0  0  0  0  0  0  0  0  0
  134.5700  125.0830   65.4010 O   0  0  0  0  0  0  0  0  0  0  0  0
  133.9360  124.9500   63.3670 O   0  0  0  0  0  0  0  0  0  0  0  0
  131.8880  125.4850   66.2130 C   0  0  0  0  0  0  0  0  0  0  0  0
  131.0960  127.0910   68.4910 N   0  0  0  0  0  0  0  0  0  0  0  0
  130.9730  127.8990   69.5940 C   0  0  0  0  0  0  0  0  0  0  0  0
  131.8680  128.6860   69.8940 O   0  0  0  0  0  0  0  0  0  0  0  0
  129.6890  127.6610   70.2630 C   0  0  0  0  0  0  0  0  0  0  0  0
  129.1580  128.2750   71.4240 C   0  0  0  0  0  0  0  0  0  0  0  0
  129.8910  129.3010   72.2720 C   0  0  0  0  0  0  0  0  0  0  0  0
  127.5102  127.9003   73.8639 H   0  0  0  0  0  0  0  0  0  0  0  0
  126.7212  129.1679   72.8652 H   0  0  0  0  0  0  0  0  0  0  0  0
  126.0739  127.4923   72.8652 H   0  0  0  0  0  0  0  0  0  0  0  0
  128.6297  124.5292   66.4839 H   0  0  0  0  0  0  0  0  0  0  0  0
  129.2466  123.2905   64.4314 H   0  0  0  0  0  0  0  0  0  0  0  0
  132.6357  124.7985   57.9268 H   0  0  0  0  0  0  0  0  0  0  0  0
  132.2020  127.0150   56.8687 H   0  0  0  0  0  0  0  0  0  0  0  0
  130.3751  130.5805   55.5777 H   0  0  0  0  0  0  0  0  0  0  0  0
  129.1364  132.3550   55.5789 H   0  0  0  0  0  0  0  0  0  0  0  0
  128.0588  131.0298   56.2575 H   0  0  0  0  0  0  0  0  0  0  0  0
  127.7950  133.2983   57.3379 H   0  0  0  0  0  0  0  0  0  0  0  0
  128.1735  131.9192   58.4399 H   0  0  0  0  0  0  0  0  0  0  0  0
  130.1672  133.9839   57.3688 H   0  0  0  0  0  0  0  0  0  0  0  0
  129.5054  133.8834   59.0522 H   0  0  0  0  0  0  0  0  0  0  0  0
  131.8090  132.9193   58.8400 H   0  0  0  0  0  0  0  0  0  0  0  0
  130.5522  131.7232   59.3880 H   0  0  0  0  0  0  0  0  0  0  0  0
  131.9168  132.0172   56.7397 H   0  0  0  0  0  0  0  0  0  0  0  0
  130.4387  128.5185   60.5335 H   0  0  0  0  0  0  0  0  0  0  0  0
  132.6349  126.1069   66.7281 H   0  0  0  0  0  0  0  0  0  0  0  0
  131.9640  127.2190   67.9920 H   0  0  0  0  0  0  0  0  0  0  0  0
  129.7314  129.0776   73.3372 H   0  0  0  0  0  0  0  0  0  0  0  0
  130.9669  129.2619   72.0463 H   0  0  0  0  0  0  0  0  0  0  0  0
  129.5053  130.3061   72.0463 H   0  0  0  0  0  0  0  0  0  0  0  0
  1  2  1  0
  2  3  1  0
  3  4  1  0
  4  5  1  0
  5  6  2  0
  6  7  1  0
  7  8  2  0
  8  9  1  0
  9 10  2  0
 10 11  1  0
 11 12  1  0
 12 13  2  0
 13 14  1  0
 14 15  2  0
 15 16  1  0
 16 17  2  0
 17 18  1  0
 18 19  1  0
 19 20  2  0
 19 21  1  0
 21 22  1  0
 22 23  1  0
 23 24  1  0
 24 25  1  0
 25 26  1  0
 26 27  1  0
 27 28  2  0
 17 29  1  0
 29 30  2  0
 30 31  1  0
 10 32  1  0
 32 33  1  0
 33 34  2  0
 33 35  1  0
 32 36  2  0
  6 37  1  0
 37 38  1  0
 38 39  2  0
 38 40  1  0
 40 41  1  0
 41 42  1  0
 41  2  2  0
 40  4  2  0
 36  7  1  0
 31 12  1  0
 30 14  1  0
 27 18  1  0
 26 21  1  0
  1 43  1  0
  1 44  1  0
  1 45  1  0
  8 46  1  0
  9 47  1  0
 15 48  1  0
 16 49  1  0
 21 50  1  6
 22 51  1  0
 22 52  1  0
 23 53  1  0
 23 54  1  0
 24 55  1  0
 24 56  1  0
 25 57  1  0
 25 58  1  0
 26 59  1  6
 29 60  1  0
 36 61  1  0
 37 62  1  0
 42 63  1  0
 42 64  1  0
 42 65  1  0
M  CHG  2  33   1  35  -1
M  END
>  <Binding energies>  (1) 
[-10.23]

>  <Ligand effiencies>  (1) 
[-0.23790697674418607]

>  <Interactions>  (1) 
["V-A:GLY:454:CA:4049, V-B:HIS:456:CD2:9039, H-A:GLU:543:OE2:4910, V-B:GLU:543:C:9874, V-A:GLU:543:C:4902, V-B:GLU:543:CB:9878, V-B:HIS:456:CB:9036, H-A:ARG:545:NH1:4927, H-A:TYR:531:OH:4795, V-A:TYR:484:CE2:4346, V-A:GLY:544:CA:4914, V-B:GLU:543:CG:9879, V-A:GLY:544:C:4912, V-A:ASP:366:CG:3213, H-A:ARG:545:N:4920, V-A:TYR:539:CD1:4873, V-A:TYR:531:CE2:4793, V-A:TYR:539:CA:4869, V-A:TYR:484:CZ:4347, V-A:GLU:543:CD:4908, V-B:GLU:543:CA:9876, H-A:GLY:454:N:4050, V-B:HIS:456:CE1:9041, V-A:ARG:545:CG:4922, V-A:HIS:456:CE1:4070, V-B:GLY:544:C:9884, V-B:GLY:544:CA:9886, V-A:TYR:531:CZ:4794, V-B:GLU:543:CD:9880, V-B:HIS:456:CG:9037, V-A:MET:535:CE:4835, V-A:TYR:539:C:4867, V-A:ASP:366:CB:3212, H-A:ARG:545:NH2:4928, V-A:ARG:545:CZ:4926, V-A:GLU:543:CB:4906, V-A:PRO:540:N:4884, V-A:PRO:540:CB:4885, V-A:PRO:540:CA:4883, H-A:ARG:545:NE:4924, H-A:GLY:544:N:4915, V-A:PRO:540:CD:4887, V-A:TYR:539:CE1:4875, H-A:TYR:484:OH:4348"]

$$$$
ZINC408993913
     RDKit          3D

 53 57  0  0  0  0  0  0  0  0999 V2000
  131.7560  128.4700   69.9110 C   0  0  0  0  0  0  0  0  0  0  0  0
  130.5350  127.6670   69.4780 C   0  0  0  0  0  0  0  0  0  0  0  0
  130.6440  126.8620   68.3440 C   0  0  0  0  0  0  0  0  0  0  0  0
  129.5720  126.0850   67.8840 C   0  0  0  0  0  0  0  0  0  0  0  0
  129.6320  125.3010   66.7200 N   0  0  0  0  0  0  0  0  0  0  0  0
  130.7250  125.0840   66.1010 C   0  0  0  0  0  0  0  0  0  0  0  0
  132.0090  125.4270   66.3390 N   0  0  0  0  0  0  0  0  0  0  0  0
  133.0020  125.0890   65.5040 C   0  0  0  0  0  0  0  0  0  0  0  0
  134.1800  125.3900   65.7000 O   0  0  0  0  0  0  0  0  0  0  0  0
  132.4660  124.3630   64.3800 C   0  0  0  0  0  0  0  0  0  0  0  0
  133.2530  123.9580   63.3580 C   0  0  0  0  0  0  0  0  0  0  0  0
  132.8670  123.2500   62.1490 C   0  0  0  0  0  0  0  0  0  0  0  0
  133.4270  123.2090   60.8780 C   0  0  0  0  0  0  0  0  0  0  0  0
  132.6340  122.3700   60.0950 C   0  0  0  0  0  0  0  0  0  0  0  0
  131.6050  121.9420   60.9120 C   0  0  0  0  0  0  0  0  0  0  0  0
  130.2170  120.9050   60.6440 S   0  0  0  0  0  0  0  0  0  0  0  0
  128.9540  121.9450   61.2950 C   0  0  0  0  0  0  0  0  0  0  0  0
  128.6170  121.9460   62.5620 N   0  0  0  0  0  0  0  0  0  0  0  0
  127.5660  122.8460   62.6810 N   0  0  0  0  0  0  0  0  0  0  0  0
  127.2770  123.3900   61.4470 N   0  0  0  0  0  0  0  0  0  0  0  0
  128.1450  122.8240   60.5930 N   0  0  0  0  0  0  0  0  0  0  0  0
  128.1410  123.1870   59.2260 C   0  0  0  0  0  0  0  0  0  0  0  0
  128.8900  124.2850   58.7880 C   0  0  0  0  0  0  0  0  0  0  0  0
  128.8640  124.6550   57.4460 C   0  0  0  0  0  0  0  0  0  0  0  0
  128.0830  123.9350   56.5460 C   0  0  0  0  0  0  0  0  0  0  0  0
  127.3280  122.8450   56.9730 C   0  0  0  0  0  0  0  0  0  0  0  0
  127.3590  122.4670   58.3120 C   0  0  0  0  0  0  0  0  0  0  0  0
  131.7470  122.4760   62.1500 O   0  0  0  0  0  0  0  0  0  0  0  0
  130.7260  124.1430   64.5950 S   0  0  0  0  0  0  0  0  0  0  0  0
  128.3570  126.1970   68.5600 C   0  0  0  0  0  0  0  0  0  0  0  0
  128.2020  127.0080   69.6920 C   0  0  0  0  0  0  0  0  0  0  0  0
  126.8650  127.0770   70.3280 N   0  0  0  0  0  0  0  0  0  0  0  0
  126.8140  127.2470   71.5440 O   0  0  0  0  0  0  0  0  0  0  0  0
  125.8680  126.9240   69.6290 O   0  0  0  0  0  0  0  0  0  0  0  0
  129.3120  127.7370   70.1730 C   0  0  0  0  0  0  0  0  0  0  0  0
  129.2110  128.5570   71.4610 C   0  0  0  0  0  0  0  0  0  0  0  0
  131.8036  128.5013   71.0095 H   0  0  0  0  0  0  0  0  0  0  0  0
  132.6663  127.9937   69.5180 H   0  0  0  0  0  0  0  0  0  0  0  0
  131.6793  129.4945   69.5180 H   0  0  0  0  0  0  0  0  0  0  0  0
  131.5973  126.8363   67.7958 H   0  0  0  0  0  0  0  0  0  0  0  0
  132.2320  125.9590   67.1670 H   0  0  0  0  0  0  0  0  0  0  0  0
  134.3229  124.1948   63.4539 H   0  0  0  0  0  0  0  0  0  0  0  0
  134.3315  123.7415   60.5490 H   0  0  0  0  0  0  0  0  0  0  0  0
  132.7952  122.1030   59.0401 H   0  0  0  0  0  0  0  0  0  0  0  0
  129.4994  124.8558   59.5041 H   0  0  0  0  0  0  0  0  0  0  0  0
  129.4582  125.5129   57.0982 H   0  0  0  0  0  0  0  0  0  0  0  0
  128.0619  124.2300   55.4865 H   0  0  0  0  0  0  0  0  0  0  0  0
  126.7101  122.2856   56.2551 H   0  0  0  0  0  0  0  0  0  0  0  0
  126.7698  121.6031   58.6533 H   0  0  0  0  0  0  0  0  0  0  0  0
  127.4902  125.6287   68.1915 H   0  0  0  0  0  0  0  0  0  0  0  0
  129.2935  127.8871   72.3296 H   0  0  0  0  0  0  0  0  0  0  0  0
  130.0249  129.2965   71.4897 H   0  0  0  0  0  0  0  0  0  0  0  0
  128.2420  129.0769   71.4897 H   0  0  0  0  0  0  0  0  0  0  0  0
  1  2  1  0
  2  3  2  0
  3  4  1  0
  4  5  1  0
  5  6  2  0
  6  7  1  0
  7  8  1  0
  8  9  2  0
  8 10  1  0
 10 11  2  0
 11 12  1  0
 12 13  2  0
 13 14  1  0
 14 15  2  0
 15 16  1  0
 16 17  1  0
 17 18  2  0
 18 19  1  0
 19 20  2  0
 20 21  1  0
 21 22  1  0
 22 23  2  0
 23 24  1  0
 24 25  2  0
 25 26  1  0
 26 27  2  0
 15 28  1  0
 10 29  1  0
  4 30  2  0
 30 31  1  0
 31 32  1  0
 32 33  2  0
 32 34  1  0
 31 35  2  0
 35 36  1  0
 35  2  1  0
 29  6  1  0
 28 12  1  0
 21 17  1  0
 27 22  1  0
  1 37  1  0
  1 38  1  0
  1 39  1  0
  3 40  1  0
  7 41  1  0
 11 42  1  0
 13 43  1  0
 14 44  1  0
 23 45  1  0
 24 46  1  0
 25 47  1  0
 26 48  1  0
 27 49  1  0
 30 50  1  0
 36 51  1  0
 36 52  1  0
 36 53  1  0
M  CHG  2  32   1  34  -1
M  END
>  <Binding energies>  (1) 
[-9.7]

>  <Ligand effiencies>  (1) 
[-0.26216216216216215]

>  <Interactions>  (1) 
["V-A:ILE:369:CG2:3237, V-A:ARG:545:CA:4919, V-A:GLU:543:CA:4904, V-A:GLY:454:CA:4049, V-B:GLU:543:C:9874, H-A:GLU:543:OE2:4910, V-A:GLU:543:C:4902, V-B:HIS:456:CD2:9039, V-B:PRO:540:CA:9855, V-B:GLU:543:CB:9878, V-B:ALA:541:CB:9864, H-A:ARG:545:NH1:4927, V-A:TYR:484:CE2:4346, V-B:TYR:539:CE2:9848, V-A:GLY:544:CA:4914, V-B:GLU:543:CG:9879, V-A:GLY:544:C:4912, V-B:TYR:539:C:9839, H-B:HIS:456:ND1:9038, V-B:TYR:539:CZ:9849, H-B:ARG:545:N:9892, H-B:ALA:541:N:9863, V-A:TYR:484:CZ:4347, V-B:PRO:540:CB:9857, V-B:HIS:456:CE1:9041, H-A:GLY:454:N:4050, V-B:GLU:543:CA:9876, V-A:ARG:545:CG:4922, V-B:PRO:540:N:9856, V-A:HIS:456:CE1:4070, V-A:ILE:369:CD1:3239, V-B:GLY:544:C:9884, V-B:GLY:544:CA:9886, V-B:TYR:539:CD2:9846, V-B:PRO:540:CD:9859, V-B:HIS:456:CG:9037, V-A:ARG:545:CD:4923, V-A:LEU:475:CD2:4259, H-A:ARG:545:NH2:4928, V-A:ARG:545:CZ:4926, V-B:TYR:539:CG:9844, V-A:GLU:543:CB:4906, V-B:TYR:539:CD1:9845, H-A:ARG:545:NE:4924, V-B:PRO:540:C:9853, V-B:TYR:539:CE1:9847, H-A:TYR:484:OH:4348"]

$$$$
ZINC409001342-again1
     RDKit          3D

 29 31  0  0  0  0  0  0  0  0999 V2000
  129.0380  127.3590   70.8160 I   0  0  0  0  0  0  0  0  0  0  0  0
  129.1440  127.0280   68.7050 C   0  0  0  0  0  0  0  0  0  0  0  0
  128.6260  127.7250   67.6280 C   0  0  0  0  0  0  0  0  0  0  0  0
  129.0230  127.0300   66.4850 C   0  0  0  0  0  0  0  0  0  0  0  0
  129.7700  125.9340   66.9060 C   0  0  0  0  0  0  0  0  0  0  0  0
  130.4490  124.8460   66.2200 C   0  0  0  0  0  0  0  0  0  0  0  0
  131.2220  125.0750   65.2430 N   0  0  0  0  0  0  0  0  0  0  0  0
  131.8240  123.9580   64.6510 N   0  0  0  0  0  0  0  0  0  0  0  0
  132.4020  123.9560   63.3740 C   0  0  0  0  0  0  0  0  0  0  0  0
  133.5380  123.1820   63.1390 C   0  0  0  0  0  0  0  0  0  0  0  0
  134.0970  123.1620   61.8630 C   0  0  0  0  0  0  0  0  0  0  0  0
  133.4970  123.9210   60.8280 C   0  0  0  0  0  0  0  0  0  0  0  0
  134.0070  123.9540   59.5070 C   0  0  0  0  0  0  0  0  0  0  0  0
  133.3720  124.7210   58.5330 C   0  0  0  0  0  0  0  0  0  0  0  0
  132.2340  125.4620   58.8430 C   0  0  0  0  0  0  0  0  0  0  0  0
  131.7090  125.4500   60.1330 C   0  0  0  0  0  0  0  0  0  0  0  0
  132.3300  124.6810   61.1470 C   0  0  0  0  0  0  0  0  0  0  0  0
  131.7960  124.6860   62.3990 N   0  0  0  0  0  0  0  0  0  0  0  0
  129.8350  125.9450   68.2640 O   0  0  0  0  0  0  0  0  0  0  0  0
  128.0219  128.6435   67.6653 H   0  0  0  0  0  0  0  0  0  0  0  0
  128.7889  127.2986   65.4443 H   0  0  0  0  0  0  0  0  0  0  0  0
  130.2891  123.8102   66.5541 H   0  0  0  0  0  0  0  0  0  0  0  0
  132.1010  123.2490   65.3150 H   0  0  0  0  0  0  0  0  0  0  0  0
  133.9878  122.5936   63.9523 H   0  0  0  0  0  0  0  0  0  0  0  0
  134.9965  122.5620   61.6608 H   0  0  0  0  0  0  0  0  0  0  0  0
  134.9053  123.3734   59.2501 H   0  0  0  0  0  0  0  0  0  0  0  0
  133.7732  124.7417   57.5090 H   0  0  0  0  0  0  0  0  0  0  0  0
  131.7453  126.0624   58.0615 H   0  0  0  0  0  0  0  0  0  0  0  0
  130.8096  126.0394   60.3647 H   0  0  0  0  0  0  0  0  0  0  0  0
  1  2  1  0
  2  3  2  0
  3  4  1  0
  4  5  2  0
  5  6  1  0
  6  7  2  0
  7  8  1  0
  8  9  1  0
  9 10  2  0
 10 11  1  0
 11 12  2  0
 12 13  1  0
 13 14  2  0
 14 15  1  0
 15 16  2  0
 16 17  1  0
 17 18  2  0
  5 19  1  0
 19  2  1  0
 18  9  1  0
 17 12  1  0
  3 20  1  0
  4 21  1  0
  6 22  1  0
  8 23  1  0
 10 24  1  0
 11 25  1  0
 13 26  1  0
 14 27  1  0
 15 28  1  0
 16 29  1  0
M  END
>  <Binding energies>  (1) 
[-6.33]

>  <Ligand effiencies>  (1) 
[-0.3165]

>  <Interactions>  (1) 
["V-A:ILE:369:CG2:3237, V-A:ASP:366:CA:3210, V-A:GLY:454:CA:4049, V-A:ILE:369:CB:3236, V-B:GLU:543:CB:9878, V-B:TYR:539:CE2:9848, V-A:TYR:484:CE2:4346, V-B:GLU:543:CG:9879, V-A:ASP:366:CG:3213, V-A:TYR:484:CZ:4347, V-A:GLU:543:CD:4908, V-B:HIS:456:CE1:9041, V-A:HIS:456:CE1:4070, V-A:ILE:369:CD1:3239, V-A:ASP:366:C:3208, V-B:GLU:543:CD:9880, V-A:ASP:366:CB:3212, V-A:LEU:475:CD2:4259, V-A:GLU:543:CB:4906, H-A:TYR:484:OH:4348"]

$$$$
ZINC409018430
     RDKit          3D

 70 71  0  0  0  0  0  0  0  0999 V2000
  126.6450  130.0930   75.1190 C   0  0  0  0  0  0  0  0  0  0  0  0
  126.0900  128.8690   75.1220 C   0  0  0  0  0  0  0  0  0  0  0  0
  126.1770  127.8190   74.0200 C   0  0  0  0  0  0  0  0  0  0  0  0
  127.4990  127.7480   73.2510 C   0  0  0  0  0  0  0  0  0  0  0  0
  127.4740  127.6770   71.8550 C   0  0  0  0  0  0  0  0  0  0  0  0
  128.6530  127.6000   71.1080 C   0  0  0  0  0  0  0  0  0  0  0  0
  128.5730  127.5320   69.6410 C   0  0  0  0  0  0  0  0  0  0  0  0
  128.1140  126.5290   69.0080 N   0  0  0  0  0  0  0  0  0  0  0  0
  128.1330  126.6940   67.6710 N   0  0  0  0  0  0  0  0  0  0  0  0
  129.2570  126.5490   66.9420 C   0  0  0  0  0  0  0  0  0  0  0  0
  130.3610  126.2550   67.4140 O   0  0  0  0  0  0  0  0  0  0  0  0
  129.0820  126.7630   65.4150 C   0  0  1  0  0  0  0  0  0  0  0  0
  128.7250  128.2410   65.0630 C   0  0  0  0  0  0  0  0  0  0  0  0
  127.5790  128.8710   65.8930 C   0  0  0  0  0  0  0  0  0  0  0  0
  126.5550  129.5750   64.9770 C   0  0  0  0  0  0  0  0  0  0  0  0
  128.0990  129.8010   67.0100 C   0  0  0  0  0  0  0  0  0  0  0  0
  130.2070  126.2580   64.6070 N   0  0  0  0  0  0  0  0  0  0  0  0
  130.5460  124.9750   64.3790 C   0  0  0  0  0  0  0  0  0  0  0  0
  129.9540  124.0150   64.8730 O   0  0  0  0  0  0  0  0  0  0  0  0
  131.7280  124.7490   63.4120 C   0  0  1  0  0  0  0  0  0  0  0  0
  132.6350  123.6150   63.9210 C   0  0  0  0  0  0  0  0  0  0  0  0
  131.2570  124.3470   62.1180 O   0  0  0  0  0  0  0  0  0  0  0  0
  131.2610  123.0150   61.7270 C   0  0  0  0  0  0  0  0  0  0  0  0
  132.3970  122.3380   61.2510 C   0  0  0  0  0  0  0  0  0  0  0  0
  132.3210  121.0000   60.8690 C   0  0  0  0  0  0  0  0  0  0  0  0
  131.1110  120.3160   60.9590 C   0  0  0  0  0  0  0  0  0  0  0  0
  131.0160  118.6590   60.4840 Cl  0  0  0  0  0  0  0  0  0  0  0  0
  129.9770  120.9720   61.4350 C   0  0  0  0  0  0  0  0  0  0  0  0
  130.0510  122.3130   61.8170 C   0  0  0  0  0  0  0  0  0  0  0  0
  128.6210  123.0950   62.3960 Cl  0  0  0  0  0  0  0  0  0  0  0  0
  129.8760  127.5900   71.7950 C   0  0  0  0  0  0  0  0  0  0  0  0
  129.9330  127.6500   73.1970 C   0  0  0  0  0  0  0  0  0  0  0  0
  131.1130  127.6370   73.9220 O   0  0  0  0  0  0  0  0  0  0  0  0
  131.7050  126.3920   74.2850 C   0  0  0  0  0  0  0  0  0  0  0  0
  133.2200  126.5810   74.4020 C   0  0  0  0  0  0  0  0  0  0  0  0
  128.7340  127.7250   73.9170 C   0  0  0  0  0  0  0  0  0  0  0  0
  128.7800  127.7740   75.2900 O   0  0  0  0  0  0  0  0  0  0  0  0
  126.5074  130.7614   75.9817 H   0  0  0  0  0  0  0  0  0  0  0  0
  127.2368  130.4264   74.2538 H   0  0  0  0  0  0  0  0  0  0  0  0
  125.5105  128.5952   76.0160 H   0  0  0  0  0  0  0  0  0  0  0  0
  126.0044  126.8351   74.4807 H   0  0  0  0  0  0  0  0  0  0  0  0
  125.4214  128.1123   73.2763 H   0  0  0  0  0  0  0  0  0  0  0  0
  126.5057  127.6818   71.3332 H   0  0  0  0  0  0  0  0  0  0  0  0
  128.9294  128.3953   69.0599 H   0  0  0  0  0  0  0  0  0  0  0  0
  127.2480  126.9310   67.2470 H   0  0  0  0  0  0  0  0  0  0  0  0
  128.2192  126.1410   65.1345 H   0  0  0  0  0  0  0  0  0  0  0  0
  129.6272  128.8519   65.2143 H   0  0  0  0  0  0  0  0  0  0  0  0
  128.3674  128.2236   64.0229 H   0  0  0  0  0  0  0  0  0  0  0  0
  127.0574  128.0488   66.4047 H   0  0  0  0  0  0  0  0  0  0  0  0
  125.8047  130.0908   65.5942 H   0  0  0  0  0  0  0  0  0  0  0  0
  127.0742  130.3080   64.3420 H   0  0  0  0  0  0  0  0  0  0  0  0
  126.0565  128.8278   64.3420 H   0  0  0  0  0  0  0  0  0  0  0  0
  127.8563  129.3669   67.9911 H   0  0  0  0  0  0  0  0  0  0  0  0
  129.1896  129.9111   66.9174 H   0  0  0  0  0  0  0  0  0  0  0  0
  127.6217  130.7877   66.9174 H   0  0  0  0  0  0  0  0  0  0  0  0
  130.7510  126.9780   64.1540 H   0  0  0  0  0  0  0  0  0  0  0  0
  132.2786  125.6994   63.3518 H   0  0  0  0  0  0  0  0  0  0  0  0
  132.6368  123.6127   65.0210 H   0  0  0  0  0  0  0  0  0  0  0  0
  132.2569  122.6498   63.5529 H   0  0  0  0  0  0  0  0  0  0  0  0
  133.6597  123.7718   63.5529 H   0  0  0  0  0  0  0  0  0  0  0  0
  133.3569  122.8703   61.1792 H   0  0  0  0  0  0  0  0  0  0  0  0
  133.2176  120.4834   60.4960 H   0  0  0  0  0  0  0  0  0  0  0  0
  129.0216  120.4320   61.5099 H   0  0  0  0  0  0  0  0  0  0  0  0
  130.8131  127.5338   71.2217 H   0  0  0  0  0  0  0  0  0  0  0  0
  131.2986  126.0571   75.2508 H   0  0  0  0  0  0  0  0  0  0  0  0
  131.4810  125.6345   73.5194 H   0  0  0  0  0  0  0  0  0  0  0  0
  133.5041  126.6164   75.4641 H   0  0  0  0  0  0  0  0  0  0  0  0
  133.7333  125.7399   73.9130 H   0  0  0  0  0  0  0  0  0  0  0  0
  133.5109  127.5224   73.9130 H   0  0  0  0  0  0  0  0  0  0  0  0
  129.6780  127.7350   75.6270 H   0  0  0  0  0  0  0  0  0  0  0  0
  1  2  2  0
  2  3  1  0
  3  4  1  0
  4  5  2  0
  5  6  1  0
  6  7  1  0
  7  8  2  0
  8  9  1  0
  9 10  1  0
 10 11  2  0
 10 12  1  0
 12 13  1  0
 13 14  1  0
 14 15  1  0
 14 16  1  0
 12 17  1  0
 17 18  1  0
 18 19  2  0
 18 20  1  0
 20 21  1  0
 20 22  1  0
 22 23  1  0
 23 24  2  0
 24 25  1  0
 25 26  2  0
 26 27  1  0
 26 28  1  0
 28 29  2  0
 29 30  1  0
  6 31  2  0
 31 32  1  0
 32 33  1  0
 33 34  1  0
 34 35  1  0
 32 36  2  0
 36 37  1  0
 36  4  1  0
 29 23  1  0
  1 38  1  0
  1 39  1  0
  2 40  1  0
  3 41  1  0
  3 42  1  0
  5 43  1  0
  7 44  1  0
  9 45  1  0
 12 46  1  6
 13 47  1  0
 13 48  1  0
 14 49  1  0
 15 50  1  0
 15 51  1  0
 15 52  1  0
 16 53  1  0
 16 54  1  0
 16 55  1  0
 17 56  1  0
 20 57  1  6
 21 58  1  0
 21 59  1  0
 21 60  1  0
 24 61  1  0
 25 62  1  0
 28 63  1  0
 31 64  1  0
 34 65  1  0
 34 66  1  0
 35 67  1  0
 35 68  1  0
 35 69  1  0
 37 70  1  0
M  END
>  <Binding energies>  (1) 
[-7.38]

>  <Ligand effiencies>  (1) 
[-0.1845]

>  <Interactions>  (1) 
["V-A:GLY:454:CA:4049, V-B:GLU:543:C:9874, H-A:GLU:543:OE2:4910, V-B:HIS:456:CD2:9039, V-B:GLU:543:CB:9878, H-B:LYS:547:NZ:9923, V-B:HIS:456:CB:9036, V-B:ALA:541:CB:9864, V-B:TYR:539:CE2:9848, V-B:GLU:543:CG:9879, V-A:HIS:456:CD2:4068, V-B:TYR:484:CE2:9317, V-A:LYS:547:CG:4948, V-A:HIS:456:CB:4065, V-B:LYS:547:CE:9922, V-A:GLU:543:CD:4908, V-B:HIS:456:CE1:9041, V-B:GLU:543:CA:9876, V-A:HIS:456:CE1:4070, V-B:TYR:484:CZ:9318, V-B:GLY:544:C:9884, V-B:TYR:539:CD2:9846, V-A:GLU:543:CG:4907, V-B:GLU:543:CD:9880, V-B:HIS:456:CG:9037, H-A:LYS:547:NZ:4951, V-A:LEU:475:CD2:4259, H-A:GLU:543:OE1:4909, V-A:HIS:456:CG:4066, V-A:GLU:543:CB:4906, H-B:GLU:543:OE2:9882, V-A:HIS:383:NE2:3394"]

$$$$
ZINC409060419
     RDKit          3D

 58 61  0  0  0  0  0  0  0  0999 V2000
  131.9450  131.8870   57.7180 C   0  0  0  0  0  0  0  0  0  0  0  0
  130.5500  131.8090   57.9870 O   0  0  0  0  0  0  0  0  0  0  0  0
  130.0160  130.6300   58.4740 C   0  0  0  0  0  0  0  0  0  0  0  0
  130.7510  129.6760   59.1990 C   0  0  0  0  0  0  0  0  0  0  0  0
  130.1550  128.5020   59.6690 C   0  0  0  0  0  0  0  0  0  0  0  0
  130.9820  127.5460   60.4340 C   0  0  0  0  0  0  0  0  0  0  0  0
  131.7540  126.5430   59.9500 C   0  0  0  0  0  0  0  0  0  0  0  0
  131.9700  126.0110   58.2780 S   0  0  0  0  0  0  0  0  0  0  0  0
  133.0590  124.6950   58.7910 C   0  0  0  0  0  0  0  0  0  0  0  0
  133.5810  123.9050   58.0030 O   0  0  0  0  0  0  0  0  0  0  0  0
  133.1760  124.7430   60.1340 N   0  0  0  0  0  0  0  0  0  0  0  0
  134.0120  123.7500   60.8440 C   0  0  0  0  0  0  0  0  0  0  0  0
  133.2760  123.0350   61.9930 C   0  0  0  0  0  0  0  0  0  0  0  0
  133.6820  123.5980   63.2390 O   0  0  0  0  0  0  0  0  0  0  0  0
  132.7250  124.0360   64.1330 C   0  0  0  0  0  0  0  0  0  0  0  0
  131.5050  123.3590   64.1140 C   0  0  0  0  0  0  0  0  0  0  0  0
  130.4770  123.7300   64.9760 C   0  0  0  0  0  0  0  0  0  0  0  0
  130.6690  124.7840   65.8660 C   0  0  0  0  0  0  0  0  0  0  0  0
  129.6720  125.1450   66.7040 F   0  0  0  0  0  0  0  0  0  0  0  0
  131.8830  125.4680   65.8980 C   0  0  0  0  0  0  0  0  0  0  0  0
  132.9100  125.0970   65.0350 C   0  0  0  0  0  0  0  0  0  0  0  0
  132.5230  125.6980   60.8400 C   0  0  0  0  0  0  0  0  0  0  0  0
  132.5790  125.8160   62.0690 O   0  0  0  0  0  0  0  0  0  0  0  0
  128.8030  128.2750   59.3940 C   0  0  0  0  0  0  0  0  0  0  0  0
  128.0580  129.2080   58.6750 C   0  0  0  0  0  0  0  0  0  0  0  0
  126.3890  128.8870   58.3540 Cl  0  0  0  0  0  0  0  0  0  0  0  0
  128.6580  130.3870   58.2220 C   0  0  0  0  0  0  0  0  0  0  0  0
  127.9150  131.2960   57.5080 O   0  0  0  0  0  0  0  0  0  0  0  0
  127.0190  132.0720   58.2960 C   0  0  0  0  0  0  0  0  0  0  0  0
  127.5650  132.1710   59.7100 C   0  0  0  0  0  0  0  0  0  0  0  0
  128.6100  133.0510   59.9880 C   0  0  0  0  0  0  0  0  0  0  0  0
  129.1170  133.1430   61.2810 C   0  0  0  0  0  0  0  0  0  0  0  0
  128.5860  132.3540   62.3130 C   0  0  0  0  0  0  0  0  0  0  0  0
  129.1260  132.4510   63.6920 N   0  0  0  0  0  0  0  0  0  0  0  0
  128.3440  132.3870   64.6360 O   0  0  0  0  0  0  0  0  0  0  0  0
  130.3370  132.5940   63.8400 O   0  0  0  0  0  0  0  0  0  0  0  0
  127.5380  131.4700   62.0180 C   0  0  0  0  0  0  0  0  0  0  0  0
  127.0300  131.3790   60.7260 C   0  0  0  0  0  0  0  0  0  0  0  0
  132.5003  131.9180   58.6671 H   0  0  0  0  0  0  0  0  0  0  0  0
  132.2568  131.0049   57.1395 H   0  0  0  0  0  0  0  0  0  0  0  0
  132.1565  132.7984   57.1395 H   0  0  0  0  0  0  0  0  0  0  0  0
  131.8171  129.8569   59.4007 H   0  0  0  0  0  0  0  0  0  0  0  0
  130.9695  127.6624   61.5277 H   0  0  0  0  0  0  0  0  0  0  0  0
  134.3441  122.9925   60.1188 H   0  0  0  0  0  0  0  0  0  0  0  0
  134.8546  124.2977   61.2913 H   0  0  0  0  0  0  0  0  0  0  0  0
  132.1905  123.1626   61.8690 H   0  0  0  0  0  0  0  0  0  0  0  0
  133.5227  121.9632   61.9765 H   0  0  0  0  0  0  0  0  0  0  0  0
  131.3544  122.5255   63.4122 H   0  0  0  0  0  0  0  0  0  0  0  0
  129.5172  123.1931   64.9544 H   0  0  0  0  0  0  0  0  0  0  0  0
  132.0291  126.2991   66.6037 H   0  0  0  0  0  0  0  0  0  0  0  0
  133.8687  125.6358   65.0593 H   0  0  0  0  0  0  0  0  0  0  0  0
  128.3227  127.3511   59.7486 H   0  0  0  0  0  0  0  0  0  0  0  0
  126.9263  133.0797   57.8648 H   0  0  0  0  0  0  0  0  0  0  0  0
  126.0282  131.5944   58.3121 H   0  0  0  0  0  0  0  0  0  0  0  0
  129.0338  133.6726   59.1855 H   0  0  0  0  0  0  0  0  0  0  0  0
  129.9406  133.8398   61.4957 H   0  0  0  0  0  0  0  0  0  0  0  0
  127.1136  130.8426   62.8157 H   0  0  0  0  0  0  0  0  0  0  0  0
  126.2071  130.6830   60.5059 H   0  0  0  0  0  0  0  0  0  0  0  0
  1  2  1  0
  2  3  1  0
  3  4  2  0
  4  5  1  0
  5  6  1  0
  6  7  2  0
  7  8  1  0
  8  9  1  0
  9 10  2  0
  9 11  1  0
 11 12  1  0
 12 13  1  0
 13 14  1  0
 14 15  1  0
 15 16  2  0
 16 17  1  0
 17 18  2  0
 18 19  1  0
 18 20  1  0
 20 21  2  0
 11 22  1  0
 22 23  2  0
  5 24  2  0
 24 25  1  0
 25 26  1  0
 25 27  2  0
 27 28  1  0
 28 29  1  0
 29 30  1  0
 30 31  2  0
 31 32  1  0
 32 33  2  0
 33 34  1  0
 34 35  2  0
 34 36  1  0
 33 37  1  0
 37 38  2  0
 27  3  1  0
 38 30  1  0
 22  7  1  0
 21 15  1  0
  1 39  1  0
  1 40  1  0
  1 41  1  0
  4 42  1  0
  6 43  1  0
 12 44  1  0
 12 45  1  0
 13 46  1  0
 13 47  1  0
 16 48  1  0
 17 49  1  0
 20 50  1  0
 21 51  1  0
 24 52  1  0
 29 53  1  0
 29 54  1  0
 31 55  1  0
 32 56  1  0
 37 57  1  0
 38 58  1  0
M  CHG  2  34   1  36  -1
M  END
>  <Binding energies>  (1) 
[-7.41]

>  <Ligand effiencies>  (1) 
[-0.195]

>  <Interactions>  (1) 
["V-A:ILE:369:CG2:3237, V-A:ASP:366:CA:3210, V-A:GLY:454:CA:4049, H-A:ALA:541:N:4891, V-A:PRO:540:C:4881, V-B:GLU:543:CB:9878, H-A:TYR:531:OH:4795, V-B:TYR:539:CE2:9848, V-A:TYR:484:CE2:4346, V-B:GLU:543:CG:9879, V-A:ASP:366:CG:3213, V-A:LEU:363:CD1:3189, V-A:TYR:539:CD1:4873, V-A:TYR:539:CZ:4877, H-B:TYR:539:OH:9850, V-A:ALA:541:CB:4892, V-A:TYR:484:CZ:4347, V-A:GLU:543:CD:4908, H-B:TYR:484:OH:9319, V-B:GLU:543:CA:9876, H-A:GLY:454:N:4050, V-A:ILE:369:CD1:3239, V-A:ALA:541:CA:4890, V-A:GLU:543:CG:4907, V-B:GLU:543:CD:9880, V-A:TYR:539:C:4867, V-A:ASP:366:CB:3212, V-A:LEU:475:CD2:4259, H-A:ARG:545:NH2:4928, V-A:ARG:545:CZ:4926, V-A:PRO:540:N:4884, V-A:PRO:540:CB:4885, V-A:PRO:540:CA:4883, V-A:TYR:539:CE1:4875"]

$$$$
ZINC409068530-again1
     RDKit          3D

 72 76  0  0  0  0  0  0  0  0999 V2000
  126.5120  122.6580   57.5750 C   0  0  0  0  0  0  0  0  0  0  0  0
  127.3400  123.7510   58.2830 C   0  0  0  0  0  0  0  0  0  0  0  0
  128.1360  124.6420   57.3050 C   0  0  0  0  0  0  0  0  0  0  0  0
  128.3600  123.0560   59.1870 C   0  0  0  0  0  0  0  0  0  0  0  0
  128.7500  123.5260   60.3950 C   0  0  0  0  0  0  0  0  0  0  0  0
  128.2090  124.7800   60.9270 C   0  0  0  0  0  0  0  0  0  0  0  0
  127.0750  125.2670   60.3590 C   0  0  0  0  0  0  0  0  0  0  0  0
  126.3540  126.3410   60.7840 O   0  0  0  0  0  0  0  0  0  0  0  0
  126.3820  124.6400   59.1460 C   0  0  0  0  0  0  0  0  0  0  0  0
  128.8840  125.3830   62.1910 C   0  0  2  0  0  0  0  0  0  0  0  0
  128.6720  126.8910   62.4030 C   0  0  0  0  0  0  0  0  0  0  0  0
  128.3700  127.3510   63.6910 C   0  0  0  0  0  0  0  0  0  0  0  0
  128.1780  128.7090   63.9320 C   0  0  0  0  0  0  0  0  0  0  0  0
  127.8000  129.2580   65.5230 Cl  0  0  0  0  0  0  0  0  0  0  0  0
  128.2980  129.6230   62.8880 C   0  0  0  0  0  0  0  0  0  0  0  0
  128.6080  129.1840   61.6020 C   0  0  0  0  0  0  0  0  0  0  0  0
  128.7920  130.3550   60.3430 Cl  0  0  0  0  0  0  0  0  0  0  0  0
  128.7830  127.8140   61.3450 C   0  0  0  0  0  0  0  0  0  0  0  0
  129.1300  127.4010   60.0800 O   0  0  0  0  0  0  0  0  0  0  0  0
  130.7510  127.2450   59.6750 S   0  0  0  0  0  0  0  0  0  0  0  0
  131.5910  127.4830   60.8570 O   0  0  0  0  0  0  0  0  0  0  0  0
  130.8980  126.0340   58.8610 O   0  0  0  0  0  0  0  0  0  0  0  0
  130.9010  128.6430   58.5660 C   0  0  0  0  0  0  0  0  0  0  0  0
  132.0190  129.4770   58.6270 C   0  0  0  0  0  0  0  0  0  0  0  0
  132.1100  130.5740   57.7740 C   0  0  0  0  0  0  0  0  0  0  0  0
  131.0880  130.8250   56.8600 C   0  0  0  0  0  0  0  0  0  0  0  0
  129.9780  129.9850   56.7870 C   0  0  0  0  0  0  0  0  0  0  0  0
  129.8870  128.8860   57.6370 C   0  0  0  0  0  0  0  0  0  0  0  0
  130.3320  124.8150   62.3550 C   0  0  0  0  0  0  0  0  0  0  0  0
  130.6220  123.5560   61.9060 C   0  0  0  0  0  0  0  0  0  0  0  0
  132.0210  122.9290   62.0220 C   0  0  0  0  0  0  0  0  0  0  0  0
  133.1290  124.0190   62.0380 C   0  0  0  0  0  0  0  0  0  0  0  0
  133.1920  124.7730   60.6810 C   0  0  0  0  0  0  0  0  0  0  0  0
  134.4690  123.3360   62.3870 C   0  0  0  0  0  0  0  0  0  0  0  0
  132.7820  124.9970   63.1860 C   0  0  0  0  0  0  0  0  0  0  0  0
  131.3590  125.5840   63.1200 C   0  0  0  0  0  0  0  0  0  0  0  0
  131.0840  126.5370   63.8470 O   0  0  0  0  0  0  0  0  0  0  0  0
  129.6990  122.8470   61.1460 N   0  0  0  0  0  0  0  0  0  0  0  0
  129.4580  121.4290   61.4770 C   0  0  0  0  0  0  0  0  0  0  0  0
  130.4730  120.3290   61.1000 C   0  0  0  0  0  0  0  0  0  0  0  0
  130.1560  119.1580   61.4050 O   0  0  0  0  0  0  0  0  0  0  0  0
  131.5340  120.6460   60.5150 O   0  0  0  0  0  0  0  0  0  0  0  0
  126.0280  122.0190   58.3283 H   0  0  0  0  0  0  0  0  0  0  0  0
  125.7430  123.1303   56.9460 H   0  0  0  0  0  0  0  0  0  0  0  0
  127.1748  122.0456   56.9460 H   0  0  0  0  0  0  0  0  0  0  0  0
  128.7627  125.3435   57.8753 H   0  0  0  0  0  0  0  0  0  0  0  0
  128.7760  124.0103   56.6715 H   0  0  0  0  0  0  0  0  0  0  0  0
  127.4364  125.2070   56.6715 H   0  0  0  0  0  0  0  0  0  0  0  0
  128.8048  122.1144   58.8327 H   0  0  0  0  0  0  0  0  0  0  0  0
  125.4190  126.1780   60.6360 H   0  0  0  0  0  0  0  0  0  0  0  0
  125.5503  124.0145   59.5025 H   0  0  0  0  0  0  0  0  0  0  0  0
  126.0329  125.4634   58.5056 H   0  0  0  0  0  0  0  0  0  0  0  0
  128.3354  125.0267   63.0754 H   0  0  0  0  0  0  0  0  0  0  0  0
  128.2837  126.6329   64.5198 H   0  0  0  0  0  0  0  0  0  0  0  0
  128.1475  130.6958   63.0792 H   0  0  0  0  0  0  0  0  0  0  0  0
  132.8249  129.2684   59.3461 H   0  0  0  0  0  0  0  0  0  0  0  0
  132.9846  131.2395   57.8213 H   0  0  0  0  0  0  0  0  0  0  0  0
  131.1581  131.6944   56.1898 H   0  0  0  0  0  0  0  0  0  0  0  0
  129.1774  130.1895   56.0609 H   0  0  0  0  0  0  0  0  0  0  0  0
  129.0199  128.2118   57.5770 H   0  0  0  0  0  0  0  0  0  0  0  0
  132.0769  122.3476   62.9541 H   0  0  0  0  0  0  0  0  0  0  0  0
  132.1844  122.2807   61.1485 H   0  0  0  0  0  0  0  0  0  0  0  0
  133.2823  125.8536   60.8658 H   0  0  0  0  0  0  0  0  0  0  0  0
  134.0642  124.4248   60.1082 H   0  0  0  0  0  0  0  0  0  0  0  0
  132.2741  124.5744   60.1082 H   0  0  0  0  0  0  0  0  0  0  0  0
  134.5784  123.2803   63.4801 H   0  0  0  0  0  0  0  0  0  0  0  0
  134.4838  122.3204   61.9648 H   0  0  0  0  0  0  0  0  0  0  0  0
  135.2995  123.9208   61.9648 H   0  0  0  0  0  0  0  0  0  0  0  0
  132.8871  124.4583   64.1393 H   0  0  0  0  0  0  0  0  0  0  0  0
  133.4745  125.8465   63.0920 H   0  0  0  0  0  0  0  0  0  0  0  0
  129.3401  121.3811   62.5696 H   0  0  0  0  0  0  0  0  0  0  0  0
  128.5945  121.1815   60.8421 H   0  0  0  0  0  0  0  0  0  0  0  0
  1  2  1  0
  2  3  1  0
  2  4  1  0
  4  5  2  0
  5  6  1  0
  6  7  2  0
  7  8  1  0
  7  9  1  0
  6 10  1  0
 10 11  1  0
 11 12  2  0
 12 13  1  0
 13 14  1  0
 13 15  2  0
 15 16  1  0
 16 17  1  0
 16 18  2  0
 18 19  1  0
 19 20  1  0
 20 21  2  0
 20 22  2  0
 20 23  1  0
 23 24  2  0
 24 25  1  0
 25 26  2  0
 26 27  1  0
 27 28  2  0
 10 29  1  0
 29 30  2  0
 30 31  1  0
 31 32  1  0
 32 33  1  0
 32 34  1  0
 32 35  1  0
 35 36  1  0
 36 37  2  0
 30 38  1  0
 38 39  1  0
 39 40  1  0
 40 41  2  0
 40 42  1  0
  9  2  1  0
 18 11  1  0
 28 23  1  0
 36 29  1  0
 38  5  1  0
  1 43  1  0
  1 44  1  0
  1 45  1  0
  3 46  1  0
  3 47  1  0
  3 48  1  0
  4 49  1  0
  8 50  1  0
  9 51  1  0
  9 52  1  0
 10 53  1  1
 12 54  1  0
 15 55  1  0
 24 56  1  0
 25 57  1  0
 26 58  1  0
 27 59  1  0
 28 60  1  0
 31 61  1  0
 31 62  1  0
 33 63  1  0
 33 64  1  0
 33 65  1  0
 34 66  1  0
 34 67  1  0
 34 68  1  0
 35 69  1  0
 35 70  1  0
 39 71  1  0
 39 72  1  0
M  CHG  1  42  -1
M  END
>  <Binding energies>  (1) 
[-8.13]

>  <Ligand effiencies>  (1) 
[-0.1890697674418605]

>  <Interactions>  (1) 
[""]

$$$$
ZINC409068530-again2
     RDKit          3D

 71 75  0  0  0  0  0  0  0  0999 V2000
  131.1500  131.4080   57.6030 C   0  0  0  0  0  0  0  0  0  0  0  0
  131.2400  130.0080   58.2460 C   0  0  0  0  0  0  0  0  0  0  0  0
  132.6490  129.3790   58.1400 C   0  0  0  0  0  0  0  0  0  0  0  0
  130.2490  129.0870   57.5210 C   0  0  0  0  0  0  0  0  0  0  0  0
  129.5800  128.0800   58.1400 C   0  0  0  0  0  0  0  0  0  0  0  0
  129.9110  127.7320   59.5220 C   0  0  0  0  0  0  0  0  0  0  0  0
  130.4660  128.7090   60.2920 C   0  0  0  0  0  0  0  0  0  0  0  0
  130.8440  128.5740   61.5180 O   0  0  0  0  0  0  0  0  0  0  0  0
  130.7790  130.1110   59.7440 C   0  0  0  0  0  0  0  0  0  0  0  0
  129.7500  126.2540   59.9480 C   0  0  2  0  0  0  0  0  0  0  0  0
  131.1140  125.5820   60.2140 C   0  0  0  0  0  0  0  0  0  0  0  0
  131.8490  125.1170   59.1160 C   0  0  0  0  0  0  0  0  0  0  0  0
  133.0960  124.5240   59.2920 C   0  0  0  0  0  0  0  0  0  0  0  0
  133.9830  123.9600   57.9230 Cl  0  0  0  0  0  0  0  0  0  0  0  0
  133.6290  124.3950   60.5720 C   0  0  0  0  0  0  0  0  0  0  0  0
  132.9180  124.8580   61.6770 C   0  0  0  0  0  0  0  0  0  0  0  0
  133.6330  124.7210   63.2450 Cl  0  0  0  0  0  0  0  0  0  0  0  0
  131.6510  125.4370   61.5090 C   0  0  0  0  0  0  0  0  0  0  0  0
  130.9780  125.9200   62.6050 O   0  0  0  0  0  0  0  0  0  0  0  0
  129.5660  125.1650   63.0880 S   0  0  0  0  0  0  0  0  0  0  0  0
  128.4270  125.9180   62.5510 O   0  0  0  0  0  0  0  0  0  0  0  0
  129.6870  123.7110   62.9160 O   0  0  0  0  0  0  0  0  0  0  0  0
  129.6920  125.5400   64.8330 C   0  0  0  0  0  0  0  0  0  0  0  0
  130.3780  124.6820   65.6960 C   0  0  0  0  0  0  0  0  0  0  0  0
  130.4710  124.9970   67.0490 C   0  0  0  0  0  0  0  0  0  0  0  0
  129.8830  126.1660   67.5290 C   0  0  0  0  0  0  0  0  0  0  0  0
  129.2010  127.0250   66.6690 C   0  0  0  0  0  0  0  0  0  0  0  0
  129.1050  126.7110   65.3160 C   0  0  0  0  0  0  0  0  0  0  0  0
  128.8300  125.4640   58.9630 C   0  0  0  0  0  0  0  0  0  0  0  0
  128.3500  126.0210   57.8050 C   0  0  0  0  0  0  0  0  0  0  0  0
  127.4620  125.2130   56.8280 C   0  0  0  0  0  0  0  0  0  0  0  0
  126.6260  124.1300   57.5630 C   0  0  0  0  0  0  0  0  0  0  0  0
  125.9610  123.2300   56.4980 C   0  0  0  0  0  0  0  0  0  0  0  0
  125.5840  124.7760   58.5170 C   0  0  0  0  0  0  0  0  0  0  0  0
  127.6190  123.2530   58.3600 C   0  0  0  0  0  0  0  0  0  0  0  0
  128.5400  124.0440   59.3050 C   0  0  0  0  0  0  0  0  0  0  0  0
  129.1000  123.4490   60.2250 O   0  0  0  0  0  0  0  0  0  0  0  0
  128.5650  127.3740   57.5090 N   0  0  0  0  0  0  0  0  0  0  0  0
  127.5440  128.1640   56.7780 C   0  0  0  0  0  0  0  0  0  0  0  0
  126.9220  129.4240   57.4180 C   0  0  0  0  0  0  0  0  0  0  0  0
  127.4150  130.5260   57.0890 O   0  0  0  0  0  0  0  0  0  0  0  0
  125.9950  129.2800   58.2490 O   0  0  0  0  0  0  0  0  0  0  0  0
  131.1009  132.1719   58.3930 H   0  0  0  0  0  0  0  0  0  0  0  0
  132.0388  131.5826   56.9788 H   0  0  0  0  0  0  0  0  0  0  0  0
  130.2462  131.4674   56.9788 H   0  0  0  0  0  0  0  0  0  0  0  0
  133.0479  129.2009   59.1495 H   0  0  0  0  0  0  0  0  0  0  0  0
  132.5845  128.4242   57.5975 H   0  0  0  0  0  0  0  0  0  0  0  0
  133.3167  130.0645   57.5975 H   0  0  0  0  0  0  0  0  0  0  0  0
  130.0720  129.2505   56.4477 H   0  0  0  0  0  0  0  0  0  0  0  0
  129.8765  130.7368   59.8058 H   0  0  0  0  0  0  0  0  0  0  0  0
  131.5853  130.5619   60.3412 H   0  0  0  0  0  0  0  0  0  0  0  0
  129.2247  126.2347   60.9143 H   0  0  0  0  0  0  0  0  0  0  0  0
  131.4356  125.2217   58.1020 H   0  0  0  0  0  0  0  0  0  0  0  0
  134.6143  123.9261   60.7110 H   0  0  0  0  0  0  0  0  0  0  0  0
  130.8420  123.7629   65.3088 H   0  0  0  0  0  0  0  0  0  0  0  0
  131.0065  124.3258   67.7366 H   0  0  0  0  0  0  0  0  0  0  0  0
  129.9580  126.4133   68.5982 H   0  0  0  0  0  0  0  0  0  0  0  0
  128.7412  127.9459   67.0571 H   0  0  0  0  0  0  0  0  0  0  0  0
  128.5686  127.3831   64.6301 H   0  0  0  0  0  0  0  0  0  0  0  0
  126.7764  125.9045   56.3164 H   0  0  0  0  0  0  0  0  0  0  0  0
  128.1221  124.7040   56.1102 H   0  0  0  0  0  0  0  0  0  0  0  0
  125.3783  122.4414   56.9965 H   0  0  0  0  0  0  0  0  0  0  0  0
  125.2933  123.8376   55.8696 H   0  0  0  0  0  0  0  0  0  0  0  0
  126.7380  122.7702   55.8696 H   0  0  0  0  0  0  0  0  0  0  0  0
  125.8794  124.5929   59.5607 H   0  0  0  0  0  0  0  0  0  0  0  0
  125.5406  125.8596   58.3329 H   0  0  0  0  0  0  0  0  0  0  0  0
  124.5941  124.3329   58.3329 H   0  0  0  0  0  0  0  0  0  0  0  0
  127.0406  122.5365   58.9617 H   0  0  0  0  0  0  0  0  0  0  0  0
  128.2699  122.7615   57.6219 H   0  0  0  0  0  0  0  0  0  0  0  0
  128.0106  128.4868   55.8356 H   0  0  0  0  0  0  0  0  0  0  0  0
  126.6919  127.4710   56.7173 H   0  0  0  0  0  0  0  0  0  0  0  0
  1  2  1  0
  2  3  1  0
  2  4  1  0
  4  5  2  0
  5  6  1  0
  6  7  2  0
  7  8  1  0
  7  9  1  0
  6 10  1  0
 10 11  1  0
 11 12  2  0
 12 13  1  0
 13 14  1  0
 13 15  2  0
 15 16  1  0
 16 17  1  0
 16 18  2  0
 18 19  1  0
 19 20  1  0
 20 21  2  0
 20 22  2  0
 20 23  1  0
 23 24  2  0
 24 25  1  0
 25 26  2  0
 26 27  1  0
 27 28  2  0
 10 29  1  0
 29 30  2  0
 30 31  1  0
 31 32  1  0
 32 33  1  0
 32 34  1  0
 32 35  1  0
 35 36  1  0
 36 37  2  0
 30 38  1  0
 38 39  1  0
 39 40  1  0
 40 41  2  0
 40 42  1  0
  9  2  1  0
 18 11  1  0
 28 23  1  0
 36 29  1  0
 38  5  1  0
  1 43  1  0
  1 44  1  0
  1 45  1  0
  3 46  1  0
  3 47  1  0
  3 48  1  0
  4 49  1  0
  9 50  1  0
  9 51  1  0
 10 52  1  1
 12 53  1  0
 15 54  1  0
 24 55  1  0
 25 56  1  0
 26 57  1  0
 27 58  1  0
 28 59  1  0
 31 60  1  0
 31 61  1  0
 33 62  1  0
 33 63  1  0
 33 64  1  0
 34 65  1  0
 34 66  1  0
 34 67  1  0
 35 68  1  0
 35 69  1  0
 39 70  1  0
 39 71  1  0
M  CHG  2   8  -1  42  -1
M  END
>  <Binding energies>  (1) 
[-6.11]

>  <Ligand effiencies>  (1) 
[-0.14547619047619048]

>  <Interactions>  (1) 
["V-A:ILE:369:CG2:3237, V-A:ASP:366:CA:3210, V-B:PRO:540:CA:9855, V-A:ILE:369:C:3232, V-A:ILE:369:CB:3236, V-B:GLU:543:CB:9878, V-B:TYR:539:CE2:9848, V-A:TYR:484:CE2:4346, V-B:GLU:543:CG:9879, V-A:ASP:366:CG:3213, V-B:TYR:539:CZ:9849, V-A:TYR:531:CE2:4793, V-B:TYR:531:CZ:9766, V-A:TYR:484:CZ:4347, V-A:GLU:543:CD:4908, V-B:PRO:540:N:9856, V-A:ILE:369:CD1:3239, V-A:HIS:456:CE1:4070, V-A:ASP:366:C:3208, V-A:TYR:531:CZ:4794, V-A:MET:535:CE:4835, V-B:GLU:543:CD:9880, H-B:TYR:531:OH:9767, V-A:ASP:366:CB:3212, H-A:ARG:545:NH2:4928, V-A:ARG:545:CZ:4926, V-B:MET:535:CE:9807"]

$$$$
ZINC409069855
     RDKit          3D

 78 81  0  0  0  0  0  0  0  0999 V2000
  133.3150  130.4450   57.9180 C   0  0  0  0  0  0  0  0  0  0  0  0
  132.4840  131.3370   57.8520 C   0  0  0  0  0  0  0  0  0  0  0  0
  131.4940  132.4220   57.7910 C   0  0  0  0  0  0  0  0  0  0  0  0
  130.6140  132.3980   58.9140 O   0  0  0  0  0  0  0  0  0  0  0  0
  130.2870  131.1470   59.3890 C   0  0  0  0  0  0  0  0  0  0  0  0
  130.6540  130.7920   60.6940 C   0  0  0  0  0  0  0  0  0  0  0  0
  131.3880  131.7770   61.6040 C   0  0  0  0  0  0  0  0  0  0  0  0
  132.8420  131.4400   61.9160 C   0  0  0  0  0  0  0  0  0  0  0  0
  133.9280  131.8470   61.2340 C   0  0  0  0  0  0  0  0  0  0  0  0
  130.3210  129.5300   61.1870 C   0  0  0  0  0  0  0  0  0  0  0  0
  129.6090  128.6120   60.4070 C   0  0  0  0  0  0  0  0  0  0  0  0
  129.2030  127.2310   60.9760 C   0  0  0  0  0  0  0  0  0  0  0  0
  128.7680  126.2340   59.8720 C   0  0  0  0  0  0  0  0  0  0  0  0
  129.7470  125.7460   59.0520 C   0  0  0  0  0  0  0  0  0  0  0  0
  129.4710  124.7430   57.9260 C   0  0  0  0  0  0  0  0  0  0  0  0
  128.2200  123.8670   58.2460 C   0  0  0  0  0  0  0  0  0  0  0  0
  127.8140  123.1280   56.9540 C   0  0  0  0  0  0  0  0  0  0  0  0
  128.5310  122.8870   59.4080 C   0  0  0  0  0  0  0  0  0  0  0  0
  127.0390  124.7980   58.6460 C   0  0  0  0  0  0  0  0  0  0  0  0
  127.3680  125.7870   59.7810 C   0  0  0  0  0  0  0  0  0  0  0  0
  126.4860  126.2220   60.5200 O   0  0  0  0  0  0  0  0  0  0  0  0
  131.0790  125.9350   59.4470 N   0  0  0  0  0  0  0  0  0  0  0  0
  132.0510  126.4560   58.4750 C   0  0  0  0  0  0  0  0  0  0  0  0
  132.9220  125.5140   57.6190 C   0  0  0  0  0  0  0  0  0  0  0  0
  133.2880  124.4520   58.1680 O   0  0  0  0  0  0  0  0  0  0  0  0
  133.2170  125.8410   56.4480 O   0  0  0  0  0  0  0  0  0  0  0  0
  131.3660  126.0060   60.8180 C   0  0  0  0  0  0  0  0  0  0  0  0
  130.3920  126.4960   61.6440 C   0  0  0  0  0  0  0  0  0  0  0  0
  130.4140  126.2860   63.1010 C   0  0  0  0  0  0  0  0  0  0  0  0
  129.5530  126.7470   63.8500 O   0  0  0  0  0  0  0  0  0  0  0  0
  131.6400  125.5420   63.6650 C   0  0  0  0  0  0  0  0  0  0  0  0
  132.2780  124.5200   62.6810 C   0  0  0  0  0  0  0  0  0  0  0  0
  133.6160  124.0550   63.2930 C   0  0  0  0  0  0  0  0  0  0  0  0
  131.3000  123.3380   62.4470 C   0  0  0  0  0  0  0  0  0  0  0  0
  132.5900  125.2420   61.3340 C   0  0  0  0  0  0  0  0  0  0  0  0
  129.2900  128.9650   59.0900 C   0  0  0  0  0  0  0  0  0  0  0  0
  129.6170  130.2280   58.5690 C   0  0  0  0  0  0  0  0  0  0  0  0
  129.3120  130.6310   57.2810 O   0  0  0  0  0  0  0  0  0  0  0  0
  127.9580  130.6120   56.8360 C   0  0  0  0  0  0  0  0  0  0  0  0
  127.1150  131.4580   57.7950 C   0  0  0  0  0  0  0  0  0  0  0  0
  134.0637  129.6413   57.9775 H   0  0  0  0  0  0  0  0  0  0  0  0
  132.0228  133.3864   57.7732 H   0  0  0  0  0  0  0  0  0  0  0  0
  130.8917  132.2855   56.8807 H   0  0  0  0  0  0  0  0  0  0  0  0
  131.3676  132.7638   61.1183 H   0  0  0  0  0  0  0  0  0  0  0  0
  130.8607  131.7402   62.5687 H   0  0  0  0  0  0  0  0  0  0  0  0
  133.0218  130.7969   62.7901 H   0  0  0  0  0  0  0  0  0  0  0  0
  134.9311  131.5348   61.5600 H   0  0  0  0  0  0  0  0  0  0  0  0
  133.8128  132.4920   60.3504 H   0  0  0  0  0  0  0  0  0  0  0  0
  130.6236  129.2516   62.2073 H   0  0  0  0  0  0  0  0  0  0  0  0
  128.3922  127.4751   61.6782 H   0  0  0  0  0  0  0  0  0  0  0  0
  129.2939  125.2935   56.9903 H   0  0  0  0  0  0  0  0  0  0  0  0
  130.3440  124.0812   57.8268 H   0  0  0  0  0  0  0  0  0  0  0  0
  127.2993  122.1912   57.2137 H   0  0  0  0  0  0  0  0  0  0  0  0
  127.1394  123.7654   56.3635 H   0  0  0  0  0  0  0  0  0  0  0  0
  128.7138  122.9005   56.3635 H   0  0  0  0  0  0  0  0  0  0  0  0
  128.3696  123.3957   60.3698 H   0  0  0  0  0  0  0  0  0  0  0  0
  127.8659  122.0136   59.3390 H   0  0  0  0  0  0  0  0  0  0  0  0
  129.5780  122.5569   59.3390 H   0  0  0  0  0  0  0  0  0  0  0  0
  126.7415  125.3774   57.7596 H   0  0  0  0  0  0  0  0  0  0  0  0
  126.2359  124.1456   59.0194 H   0  0  0  0  0  0  0  0  0  0  0  0
  131.4805  127.0774   57.7690 H   0  0  0  0  0  0  0  0  0  0  0  0
  132.7957  126.9406   59.1235 H   0  0  0  0  0  0  0  0  0  0  0  0
  132.4038  126.2880   63.9298 H   0  0  0  0  0  0  0  0  0  0  0  0
  131.2865  124.9652   64.5324 H   0  0  0  0  0  0  0  0  0  0  0  0
  133.5454  124.0795   64.3905 H   0  0  0  0  0  0  0  0  0  0  0  0
  133.8334  123.0286   62.9624 H   0  0  0  0  0  0  0  0  0  0  0  0
  134.4230  124.7254   62.9624 H   0  0  0  0  0  0  0  0  0  0  0  0
  130.9692  122.9382   63.4169 H   0  0  0  0  0  0  0  0  0  0  0  0
  130.4268  123.6915   61.8791 H   0  0  0  0  0  0  0  0  0  0  0  0
  131.8108  122.5464   61.8791 H   0  0  0  0  0  0  0  0  0  0  0  0
  133.4161  125.9514   61.4901 H   0  0  0  0  0  0  0  0  0  0  0  0
  132.8665  124.4826   60.5878 H   0  0  0  0  0  0  0  0  0  0  0  0
  128.7716  128.2368   58.4489 H   0  0  0  0  0  0  0  0  0  0  0  0
  127.8960  131.0307   55.8207 H   0  0  0  0  0  0  0  0  0  0  0  0
  127.5830  129.5780   56.8193 H   0  0  0  0  0  0  0  0  0  0  0  0
  127.3715  131.2006   58.8332 H   0  0  0  0  0  0  0  0  0  0  0  0
  127.3202  132.5245   57.6202 H   0  0  0  0  0  0  0  0  0  0  0  0
  126.0478  131.2565   57.6202 H   0  0  0  0  0  0  0  0  0  0  0  0
  1  2  3  0
  2  3  1  0
  3  4  1  0
  4  5  1  0
  5  6  2  0
  6  7  1  0
  7  8  1  0
  8  9  2  0
  6 10  1  0
 10 11  2  0
 11 12  1  0
 12 13  1  0
 13 14  2  0
 14 15  1  0
 15 16  1  0
 16 17  1  0
 16 18  1  0
 16 19  1  0
 19 20  1  0
 20 21  2  0
 14 22  1  0
 22 23  1  0
 23 24  1  0
 24 25  2  0
 24 26  1  0
 22 27  1  0
 27 28  2  0
 28 29  1  0
 29 30  2  0
 29 31  1  0
 31 32  1  0
 32 33  1  0
 32 34  1  0
 32 35  1  0
 11 36  1  0
 36 37  2  0
 37 38  1  0
 38 39  1  0
 39 40  1  0
 37  5  1  0
 28 12  1  0
 20 13  1  0
 35 27  1  0
  1 41  1  0
  3 42  1  0
  3 43  1  0
  7 44  1  0
  7 45  1  0
  8 46  1  0
  9 47  1  0
  9 48  1  0
 10 49  1  0
 12 50  1  0
 15 51  1  0
 15 52  1  0
 17 53  1  0
 17 54  1  0
 17 55  1  0
 18 56  1  0
 18 57  1  0
 18 58  1  0
 19 59  1  0
 19 60  1  0
 23 61  1  0
 23 62  1  0
 31 63  1  0
 31 64  1  0
 33 65  1  0
 33 66  1  0
 33 67  1  0
 34 68  1  0
 34 69  1  0
 34 70  1  0
 35 71  1  0
 35 72  1  0
 36 73  1  0
 39 74  1  0
 39 75  1  0
 40 76  1  0
 40 77  1  0
 40 78  1  0
M  CHG  1  26  -1
M  END
>  <Binding energies>  (1) 
[-7.5]

>  <Ligand effiencies>  (1) 
[-0.1875]

>  <Interactions>  (1) 
["V-A:ASP:366:CA:3210, V-B:PRO:540:CA:9855, V-A:GLY:454:CA:4049, V-B:TYR:539:CE2:9848, H-A:TYR:531:OH:4795, V-A:TYR:539:CE1:4875, V-A:ASP:366:CG:3213, V-A:ASN:362:CB:3176, V-A:LEU:363:CD1:3189, V-B:TYR:539:CZ:9849, V-A:TYR:531:CE2:4793, H-B:TYR:539:OH:9850, V-A:GLU:543:CD:4908, V-A:ASP:366:C:3208, V-B:TYR:539:CD2:9846, V-A:MET:535:CE:4835, V-A:ASP:366:CB:3212, V-A:ASN:362:C:3172, V-A:ARG:545:CZ:4926, V-B:TYR:539:CG:9844, V-B:TYR:539:CD1:9845, V-A:PRO:540:N:4884, V-A:PRO:540:CB:4885, V-A:PRO:540:CA:4883, V-A:LEU:363:CA:3185, V-A:PRO:540:CD:4887, V-B:TYR:539:CE1:9847"]

$$$$
ZINC409069855-again1
     RDKit          3D

 78 81  0  0  0  0  0  0  0  0999 V2000
  132.4830  131.4880   61.8070 C   0  0  0  0  0  0  0  0  0  0  0  0
  131.2920  131.5900   61.5560 C   0  0  0  0  0  0  0  0  0  0  0  0
  129.8570  131.7150   61.2650 C   0  0  0  0  0  0  0  0  0  0  0  0
  129.5160  131.1030   60.0250 O   0  0  0  0  0  0  0  0  0  0  0  0
  129.7770  129.7530   59.9520 C   0  0  0  0  0  0  0  0  0  0  0  0
  130.8110  129.2980   59.1190 C   0  0  0  0  0  0  0  0  0  0  0  0
  131.6570  130.2760   58.3040 C   0  0  0  0  0  0  0  0  0  0  0  0
  130.9020  131.1410   57.3020 C   0  0  0  0  0  0  0  0  0  0  0  0
  130.9930  132.4740   57.1550 C   0  0  0  0  0  0  0  0  0  0  0  0
  131.0840  127.9310   59.0390 C   0  0  0  0  0  0  0  0  0  0  0  0
  130.3360  127.0120   59.7770 C   0  0  0  0  0  0  0  0  0  0  0  0
  130.6540  125.5090   59.7270 C   0  0  1  0  0  0  0  0  0  0  0  0
  130.8180  124.9270   61.1370 C   0  0  0  0  0  0  0  0  0  0  0  0
  131.8190  125.3170   61.9610 C   0  0  0  0  0  0  0  0  0  0  0  0
  132.8230  126.1790   61.6390 O   0  0  0  0  0  0  0  0  0  0  0  0
  131.8990  124.9140   63.4320 C   0  0  0  0  0  0  0  0  0  0  0  0
  130.4740  124.6470   64.0320 C   0  0  0  0  0  0  0  0  0  0  0  0
  129.7660  125.9870   64.3390 C   0  0  0  0  0  0  0  0  0  0  0  0
  130.6170  123.7370   65.2700 C   0  0  0  0  0  0  0  0  0  0  0  0
  129.6230  123.9070   62.9940 C   0  0  0  0  0  0  0  0  0  0  0  0
  129.8000  124.0110   61.6510 C   0  0  0  0  0  0  0  0  0  0  0  0
  129.0730  123.2410   60.7440 N   0  0  0  0  0  0  0  0  0  0  0  0
  128.7300  121.8520   61.1290 C   0  0  0  0  0  0  0  0  0  0  0  0
  129.8270  120.7720   61.2650 C   0  0  0  0  0  0  0  0  0  0  0  0
  130.9900  121.1180   60.9600 O   0  0  0  0  0  0  0  0  0  0  0  0
  129.5090  119.6290   61.6660 O   0  0  0  0  0  0  0  0  0  0  0  0
  128.9350  123.6300   59.4040 C   0  0  0  0  0  0  0  0  0  0  0  0
  129.6380  124.6870   58.8890 C   0  0  0  0  0  0  0  0  0  0  0  0
  129.4770  125.1010   57.4680 C   0  0  0  0  0  0  0  0  0  0  0  0
  130.2800  125.8450   56.9050 O   0  0  0  0  0  0  0  0  0  0  0  0
  128.3840  124.3990   56.6440 C   0  0  0  0  0  0  0  0  0  0  0  0
  127.2220  123.8330   57.4960 C   0  0  0  0  0  0  0  0  0  0  0  0
  126.4160  124.9830   58.1600 C   0  0  0  0  0  0  0  0  0  0  0  0
  126.3390  122.9680   56.5690 C   0  0  0  0  0  0  0  0  0  0  0  0
  127.8580  122.9030   58.5670 C   0  0  0  0  0  0  0  0  0  0  0  0
  129.2970  127.4730   60.5880 C   0  0  0  0  0  0  0  0  0  0  0  0
  128.9990  128.8410   60.6810 C   0  0  0  0  0  0  0  0  0  0  0  0
  127.9710  129.3510   61.4550 O   0  0  0  0  0  0  0  0  0  0  0  0
  127.5630  128.6540   62.6290 C   0  0  0  0  0  0  0  0  0  0  0  0
  127.9480  129.4880   63.8540 C   0  0  0  0  0  0  0  0  0  0  0  0
  133.5556  131.3961   62.0330 H   0  0  0  0  0  0  0  0  0  0  0  0
  129.2863  131.2302   62.0707 H   0  0  0  0  0  0  0  0  0  0  0  0
  129.6125  132.7854   61.1979 H   0  0  0  0  0  0  0  0  0  0  0  0
  132.1682  130.9473   59.0097 H   0  0  0  0  0  0  0  0  0  0  0  0
  132.3350  129.6515   57.7038 H   0  0  0  0  0  0  0  0  0  0  0  0
  130.2083  130.6186   56.6268 H   0  0  0  0  0  0  0  0  0  0  0  0
  130.3910  132.9853   56.3893 H   0  0  0  0  0  0  0  0  0  0  0  0
  131.6694  133.0536   57.8004 H   0  0  0  0  0  0  0  0  0  0  0  0
  131.8962  127.5748   58.3883 H   0  0  0  0  0  0  0  0  0  0  0  0
  131.6164  125.4210   59.2017 H   0  0  0  0  0  0  0  0  0  0  0  0
  133.6490  125.8590   62.0070 H   0  0  0  0  0  0  0  0  0  0  0  0
  132.5014  123.9978   63.5196 H   0  0  0  0  0  0  0  0  0  0  0  0
  132.3607  125.7404   63.9922 H   0  0  0  0  0  0  0  0  0  0  0  0
  129.6943  126.1227   65.4282 H   0  0  0  0  0  0  0  0  0  0  0  0
  130.3441  126.8153   63.9036 H   0  0  0  0  0  0  0  0  0  0  0  0
  128.7559  125.9762   63.9036 H   0  0  0  0  0  0  0  0  0  0  0  0
  130.5218  124.3427   66.1833 H   0  0  0  0  0  0  0  0  0  0  0  0
  129.8283  122.9704   65.2546 H   0  0  0  0  0  0  0  0  0  0  0  0
  131.6028  123.2492   65.2546 H   0  0  0  0  0  0  0  0  0  0  0  0
  128.8190  123.2510   63.3591 H   0  0  0  0  0  0  0  0  0  0  0  0
  128.2275  121.9127   62.1056 H   0  0  0  0  0  0  0  0  0  0  0  0
  128.1463  121.4980   60.2665 H   0  0  0  0  0  0  0  0  0  0  0  0
  127.9682  125.1254   55.9302 H   0  0  0  0  0  0  0  0  0  0  0  0
  128.8609  123.5423   56.1454 H   0  0  0  0  0  0  0  0  0  0  0  0
  126.4802  124.8914   59.2543 H   0  0  0  0  0  0  0  0  0  0  0  0
  126.8340  125.9514   57.8479 H   0  0  0  0  0  0  0  0  0  0  0  0
  125.3630  124.9205   57.8479 H   0  0  0  0  0  0  0  0  0  0  0  0
  125.6850  122.3273   57.1787 H   0  0  0  0  0  0  0  0  0  0  0  0
  125.7232  123.6220   55.9342 H   0  0  0  0  0  0  0  0  0  0  0  0
  126.9802  122.3388   55.9342 H   0  0  0  0  0  0  0  0  0  0  0  0
  127.0660  122.5458   59.2417 H   0  0  0  0  0  0  0  0  0  0  0  0
  128.3440  122.0667   58.0432 H   0  0  0  0  0  0  0  0  0  0  0  0
  128.7011  126.7503   61.1647 H   0  0  0  0  0  0  0  0  0  0  0  0
  126.4734  128.5044   62.6107 H   0  0  0  0  0  0  0  0  0  0  0  0
  128.0580  127.6726   62.6732 H   0  0  0  0  0  0  0  0  0  0  0  0
  127.6924  128.9344   64.7695 H   0  0  0  0  0  0  0  0  0  0  0  0
  129.0295  129.6880   63.8363 H   0  0  0  0  0  0  0  0  0  0  0  0
  127.3986  130.4408   63.8363 H   0  0  0  0  0  0  0  0  0  0  0  0
  1  2  3  0
  2  3  1  0
  3  4  1  0
  4  5  1  0
  5  6  2  0
  6  7  1  0
  7  8  1  0
  8  9  2  0
  6 10  1  0
 10 11  2  0
 11 12  1  0
 12 13  1  0
 13 14  2  0
 14 15  1  0
 14 16  1  0
 16 17  1  0
 17 18  1  0
 17 19  1  0
 17 20  1  0
 20 21  2  0
 21 22  1  0
 22 23  1  0
 23 24  1  0
 24 25  2  0
 24 26  1  0
 22 27  1  0
 27 28  2  0
 28 29  1  0
 29 30  2  0
 29 31  1  0
 31 32  1  0
 32 33  1  0
 32 34  1  0
 32 35  1  0
 11 36  1  0
 36 37  2  0
 37 38  1  0
 38 39  1  0
 39 40  1  0
 37  5  1  0
 28 12  1  0
 21 13  1  0
 35 27  1  0
  1 41  1  0
  3 42  1  0
  3 43  1  0
  7 44  1  0
  7 45  1  0
  8 46  1  0
  9 47  1  0
  9 48  1  0
 10 49  1  0
 12 50  1  6
 15 51  1  0
 16 52  1  0
 16 53  1  0
 18 54  1  0
 18 55  1  0
 18 56  1  0
 19 57  1  0
 19 58  1  0
 19 59  1  0
 20 60  1  0
 23 61  1  0
 23 62  1  0
 31 63  1  0
 31 64  1  0
 33 65  1  0
 33 66  1  0
 33 67  1  0
 34 68  1  0
 34 69  1  0
 34 70  1  0
 35 71  1  0
 35 72  1  0
 36 73  1  0
 39 74  1  0
 39 75  1  0
 40 76  1  0
 40 77  1  0
 40 78  1  0
M  CHG  1  26  -1
M  END
>  <Binding energies>  (1) 
[-7.04]

>  <Ligand effiencies>  (1) 
[-0.17170731707317075]

>  <Interactions>  (1) 
["V-B:PRO:540:CA:9855, V-B:ALA:541:CB:9864, H-A:TYR:531:OH:4795, V-A:TYR:484:CE2:4346, V-B:TYR:539:CE2:9848, V-B:GLU:543:CG:9879, V-B:TYR:539:C:9839, V-A:ASP:366:CG:3213, V-B:TYR:539:CZ:9849, H-B:TYR:539:OH:9850, H-B:ALA:541:N:9863, V-A:GLU:543:CD:4908, V-A:TYR:484:CZ:4347, V-B:PRO:540:N:9856, V-B:TYR:539:CD2:9846, V-B:GLU:543:CD:9880, V-A:LEU:475:CD2:4259, H-A:ARG:545:NH2:4928, H-A:ASP:366:OD1:3214, V-A:PRO:540:N:4884, V-A:PRO:540:CB:4885, V-A:PRO:540:CA:4883, V-B:PRO:540:C:9853, V-B:MET:535:CE:9807, H-A:ASP:366:OD2:3215, V-B:TYR:539:CE1:9847"]

$$$$
ZINC409069855-again2
     RDKit          3D

 77 80  0  0  0  0  0  0  0  0999 V2000
  129.5550  132.6490   57.8480 C   0  0  0  0  0  0  0  0  0  0  0  0
  129.1570  132.9810   58.9540 C   0  0  0  0  0  0  0  0  0  0  0  0
  128.6690  133.3690   60.2860 C   0  0  0  0  0  0  0  0  0  0  0  0
  129.4880  132.8360   61.3220 O   0  0  0  0  0  0  0  0  0  0  0  0
  129.4620  131.4640   61.4390 C   0  0  0  0  0  0  0  0  0  0  0  0
  128.3860  130.8540   62.1000 C   0  0  0  0  0  0  0  0  0  0  0  0
  127.2440  131.6780   62.6850 C   0  0  0  0  0  0  0  0  0  0  0  0
  127.6700  132.5300   63.8650 C   0  0  0  0  0  0  0  0  0  0  0  0
  128.7280  132.2740   64.6510 C   0  0  0  0  0  0  0  0  0  0  0  0
  128.3540  129.4640   62.2290 C   0  0  0  0  0  0  0  0  0  0  0  0
  129.3830  128.6680   61.7160 C   0  0  0  0  0  0  0  0  0  0  0  0
  129.3370  127.1330   61.8650 C   0  0  1  0  0  0  0  0  0  0  0  0
  130.0810  126.4290   60.7150 C   0  0  0  0  0  0  0  0  0  0  0  0
  129.6230  126.3250   59.4380 C   0  0  0  0  0  0  0  0  0  0  0  0
  128.4500  126.6780   59.0310 O   0  0  0  0  0  0  0  0  0  0  0  0
  130.5080  125.8190   58.2880 C   0  0  0  0  0  0  0  0  0  0  0  0
  131.9830  126.3120   58.5000 C   0  0  0  0  0  0  0  0  0  0  0  0
  132.1010  127.8350   58.2610 C   0  0  0  0  0  0  0  0  0  0  0  0
  132.9170  125.4820   57.5950 C   0  0  0  0  0  0  0  0  0  0  0  0
  132.3600  126.0230   59.9610 C   0  0  0  0  0  0  0  0  0  0  0  0
  131.4580  126.0060   60.9780 C   0  0  0  0  0  0  0  0  0  0  0  0
  131.7870  125.5560   62.2580 N   0  0  0  0  0  0  0  0  0  0  0  0
  132.7330  124.4170   62.3480 C   0  0  0  0  0  0  0  0  0  0  0  0
  134.1370  124.6090   62.9620 C   0  0  0  0  0  0  0  0  0  0  0  0
  135.1100  124.3450   62.2210 O   0  0  0  0  0  0  0  0  0  0  0  0
  134.2360  125.0190   64.1410 O   0  0  0  0  0  0  0  0  0  0  0  0
  131.0400  125.9550   63.3820 C   0  0  0  0  0  0  0  0  0  0  0  0
  129.8500  126.6220   63.2400 C   0  0  0  0  0  0  0  0  0  0  0  0
  129.0150  126.9880   64.4170 C   0  0  0  0  0  0  0  0  0  0  0  0
  128.0540  127.7540   64.3340 O   0  0  0  0  0  0  0  0  0  0  0  0
  129.4820  126.5050   65.7990 C   0  0  0  0  0  0  0  0  0  0  0  0
  130.3580  125.2310   65.7570 C   0  0  0  0  0  0  0  0  0  0  0  0
  130.9420  125.0220   67.1730 C   0  0  0  0  0  0  0  0  0  0  0  0
  129.5260  124.0090   65.2810 C   0  0  0  0  0  0  0  0  0  0  0  0
  131.5360  125.5140   64.7830 C   0  0  0  0  0  0  0  0  0  0  0  0
  130.4580  129.2900   61.0760 C   0  0  0  0  0  0  0  0  0  0  0  0
  130.5180  130.6870   60.9400 C   0  0  0  0  0  0  0  0  0  0  0  0
  131.5720  131.3550   60.3410 O   0  0  0  0  0  0  0  0  0  0  0  0
  132.8200  131.4580   61.0210 C   0  0  0  0  0  0  0  0  0  0  0  0
  132.5490  131.5890   62.5230 C   0  0  0  0  0  0  0  0  0  0  0  0
  129.9134  132.3500   56.8519 H   0  0  0  0  0  0  0  0  0  0  0  0
  128.6693  134.4665   60.3602 H   0  0  0  0  0  0  0  0  0  0  0  0
  127.6530  132.9662   60.4101 H   0  0  0  0  0  0  0  0  0  0  0  0
  126.8511  132.3397   61.8990 H   0  0  0  0  0  0  0  0  0  0  0  0
  126.4821  130.9723   63.0476 H   0  0  0  0  0  0  0  0  0  0  0  0
  127.0687  133.4223   64.0935 H   0  0  0  0  0  0  0  0  0  0  0  0
  128.9666  132.9463   65.4883 H   0  0  0  0  0  0  0  0  0  0  0  0
  129.3562  131.3920   64.4576 H   0  0  0  0  0  0  0  0  0  0  0  0
  127.5058  128.9875   62.7424 H   0  0  0  0  0  0  0  0  0  0  0  0
  128.2705  126.8687   61.8125 H   0  0  0  0  0  0  0  0  0  0  0  0
  130.4891  124.7193   58.2686 H   0  0  0  0  0  0  0  0  0  0  0  0
  130.1260  126.2116   57.3341 H   0  0  0  0  0  0  0  0  0  0  0  0
  132.1414  128.3560   59.2289 H   0  0  0  0  0  0  0  0  0  0  0  0
  133.0183  128.0469   57.6920 H   0  0  0  0  0  0  0  0  0  0  0  0
  131.2273  128.1856   57.6920 H   0  0  0  0  0  0  0  0  0  0  0  0
  133.5937  124.8806   58.2198 H   0  0  0  0  0  0  0  0  0  0  0  0
  132.3150  124.8154   56.9600 H   0  0  0  0  0  0  0  0  0  0  0  0
  133.5082  126.1582   56.9600 H   0  0  0  0  0  0  0  0  0  0  0  0
  133.4150  125.8192   60.1965 H   0  0  0  0  0  0  0  0  0  0  0  0
  132.2329  123.6386   62.9430 H   0  0  0  0  0  0  0  0  0  0  0  0
  132.9532  124.1953   61.2933 H   0  0  0  0  0  0  0  0  0  0  0  0
  130.0656  127.3108   66.2680 H   0  0  0  0  0  0  0  0  0  0  0  0
  128.5768  126.2503   66.3698 H   0  0  0  0  0  0  0  0  0  0  0  0
  130.1861  125.2925   67.9250 H   0  0  0  0  0  0  0  0  0  0  0  0
  131.2251  123.9668   67.3008 H   0  0  0  0  0  0  0  0  0  0  0  0
  131.8303  125.6580   67.3008 H   0  0  0  0  0  0  0  0  0  0  0  0
  129.1507  123.4578   66.1558 H   0  0  0  0  0  0  0  0  0  0  0  0
  128.6766  124.3573   64.6750 H   0  0  0  0  0  0  0  0  0  0  0  0
  130.1614  123.3464   64.6750 H   0  0  0  0  0  0  0  0  0  0  0  0
  132.1618  126.3137   65.2059 H   0  0  0  0  0  0  0  0  0  0  0  0
  132.1078  124.5820   64.6625 H   0  0  0  0  0  0  0  0  0  0  0  0
  131.2738  128.6735   60.6705 H   0  0  0  0  0  0  0  0  0  0  0  0
  133.4214  130.5570   60.8302 H   0  0  0  0  0  0  0  0  0  0  0  0
  133.3726  132.3382   60.6607 H   0  0  0  0  0  0  0  0  0  0  0  0
  133.3997  131.1778   63.0863 H   0  0  0  0  0  0  0  0  0  0  0  0
  132.4173  132.6503   62.7806 H   0  0  0  0  0  0  0  0  0  0  0  0
  131.6355  131.0330   62.7806 H   0  0  0  0  0  0  0  0  0  0  0  0
  1  2  3  0
  2  3  1  0
  3  4  1  0
  4  5  1  0
  5  6  2  0
  6  7  1  0
  7  8  1  0
  8  9  2  0
  6 10  1  0
 10 11  2  0
 11 12  1  0
 12 13  1  0
 13 14  2  0
 14 15  1  0
 14 16  1  0
 16 17  1  0
 17 18  1  0
 17 19  1  0
 17 20  1  0
 20 21  2  0
 21 22  1  0
 22 23  1  0
 23 24  1  0
 24 25  2  0
 24 26  1  0
 22 27  1  0
 27 28  2  0
 28 29  1  0
 29 30  2  0
 29 31  1  0
 31 32  1  0
 32 33  1  0
 32 34  1  0
 32 35  1  0
 11 36  1  0
 36 37  2  0
 37 38  1  0
 38 39  1  0
 39 40  1  0
 37  5  1  0
 28 12  1  0
 21 13  1  0
 35 27  1  0
  1 41  1  0
  3 42  1  0
  3 43  1  0
  7 44  1  0
  7 45  1  0
  8 46  1  0
  9 47  1  0
  9 48  1  0
 10 49  1  0
 12 50  1  6
 16 51  1  0
 16 52  1  0
 18 53  1  0
 18 54  1  0
 18 55  1  0
 19 56  1  0
 19 57  1  0
 19 58  1  0
 20 59  1  0
 23 60  1  0
 23 61  1  0
 31 62  1  0
 31 63  1  0
 33 64  1  0
 33 65  1  0
 33 66  1  0
 34 67  1  0
 34 68  1  0
 34 69  1  0
 35 70  1  0
 35 71  1  0
 36 72  1  0
 39 73  1  0
 39 74  1  0
 40 75  1  0
 40 76  1  0
 40 77  1  0
M  CHG  2  15  -1  26  -1
M  END
>  <Binding energies>  (1) 
[-6.19]

>  <Ligand effiencies>  (1) 
[-0.15475]

>  <Interactions>  (1) 
["V-A:ASP:366:CA:3210, H-A:ALA:541:N:4891, V-B:GLU:543:CB:9878, H-A:ARG:545:NH1:4927, V-A:TYR:484:CE2:4346, V-B:GLU:543:CG:9879, V-B:LEU:475:CD2:9230, V-A:ASP:366:CG:3213, V-A:ASN:362:CB:3176, V-A:TYR:539:CD1:4873, V-B:TYR:484:CE2:9317, V-B:TYR:539:CZ:9849, V-A:ALA:541:CB:4892, V-A:GLU:543:CD:4908, V-A:TYR:484:CZ:4347, H-A:GLY:454:N:4050, V-A:GLY:453:C:4042, V-A:HIS:456:CE1:4070, V-B:TYR:484:CZ:9318, V-A:ASP:366:C:3208, V-A:TYR:531:CZ:4794, V-A:GLU:543:CG:4907, V-B:GLU:543:CD:9880, V-A:TYR:539:C:4867, V-A:ASP:366:CB:3212, H-A:ARG:545:NH2:4928, V-A:ARG:545:CZ:4926, V-A:PRO:540:N:4884, V-A:PRO:540:CB:4885, V-A:PRO:540:CA:4883, V-A:GLY:453:CA:4044, H-A:ARG:545:NE:4924"]

$$$$
ZINC409070781
     RDKit          3D

 75 79  0  0  0  0  0  0  0  0999 V2000
  129.1320  131.8280   63.7560 C   0  0  0  0  0  0  0  0  0  0  0  0
  129.5960  131.9350   62.3150 C   0  0  0  0  0  0  0  0  0  0  0  0
  130.8670  131.4750   61.9610 C   0  0  0  0  0  0  0  0  0  0  0  0
  131.3010  131.5860   60.6430 C   0  0  0  0  0  0  0  0  0  0  0  0
  130.4700  132.1640   59.6830 C   0  0  0  0  0  0  0  0  0  0  0  0
  131.0390  132.3490   57.9950 S   0  0  0  0  0  0  0  0  0  0  0  0
  130.7110  133.7010   57.5230 O   0  0  0  0  0  0  0  0  0  0  0  0
  132.4100  131.8310   57.9290 O   0  0  0  0  0  0  0  0  0  0  0  0
  130.0340  131.2370   57.2430 O   0  0  0  0  0  0  0  0  0  0  0  0
  130.1750  129.9060   57.5440 C   0  0  0  0  0  0  0  0  0  0  0  0
  131.4210  129.4200   57.9450 C   0  0  0  0  0  0  0  0  0  0  0  0
  131.5910  128.0710   58.2440 C   0  0  0  0  0  0  0  0  0  0  0  0
  130.5140  127.1750   58.1530 C   0  0  0  0  0  0  0  0  0  0  0  0
  130.6740  125.6730   58.4760 C   0  0  0  0  0  0  0  0  0  0  0  0
  131.8000  125.3690   59.5000 C   0  0  0  0  0  0  0  0  0  0  0  0
  131.5720  125.7080   60.8060 C   0  0  0  0  0  0  0  0  0  0  0  0
  132.5720  125.4120   61.9310 C   0  0  0  0  0  0  0  0  0  0  0  0
  133.4430  124.1650   61.5930 C   0  0  0  0  0  0  0  0  0  0  0  0
  134.6130  124.1090   62.5970 C   0  0  0  0  0  0  0  0  0  0  0  0
  132.5750  122.8770   61.6300 C   0  0  0  0  0  0  0  0  0  0  0  0
  134.0520  124.3520   60.1720 C   0  0  0  0  0  0  0  0  0  0  0  0
  133.0140  124.6510   59.0740 C   0  0  0  0  0  0  0  0  0  0  0  0
  133.2390  124.3740   57.8970 O   0  0  0  0  0  0  0  0  0  0  0  0
  130.2560  126.0260   61.1700 N   0  0  0  0  0  0  0  0  0  0  0  0
  130.0080  127.0240   62.2260 C   0  0  0  0  0  0  0  0  0  0  0  0
  129.1120  128.2590   61.9870 C   0  0  0  0  0  0  0  0  0  0  0  0
  128.3400  128.5690   62.9210 O   0  0  0  0  0  0  0  0  0  0  0  0
  129.2100  128.8910   60.9120 O   0  0  0  0  0  0  0  0  0  0  0  0
  129.2240  125.3670   60.4870 C   0  0  0  0  0  0  0  0  0  0  0  0
  129.4110  125.0880   59.1620 C   0  0  0  0  0  0  0  0  0  0  0  0
  128.5300  124.1590   58.4350 C   0  0  0  0  0  0  0  0  0  0  0  0
  128.8400  123.6690   57.3490 O   0  0  0  0  0  0  0  0  0  0  0  0
  127.2810  123.6670   59.1940 C   0  0  0  0  0  0  0  0  0  0  0  0
  126.7840  124.6330   60.3130 C   0  0  0  0  0  0  0  0  0  0  0  0
  126.2490  125.9490   59.6890 C   0  0  0  0  0  0  0  0  0  0  0  0
  125.6990  123.8890   61.1190 C   0  0  0  0  0  0  0  0  0  0  0  0
  127.9790  124.9250   61.2680 C   0  0  0  0  0  0  0  0  0  0  0  0
  129.2790  127.6650   57.7090 C   0  0  0  0  0  0  0  0  0  0  0  0
  129.1040  129.0160   57.4050 C   0  0  0  0  0  0  0  0  0  0  0  0
  127.4050  129.6160   56.7860 Br  0  0  0  0  0  0  0  0  0  0  0  0
  129.1990  132.6220   60.0330 C   0  0  0  0  0  0  0  0  0  0  0  0
  128.7620  132.5090   61.3510 C   0  0  0  0  0  0  0  0  0  0  0  0
  129.9794  132.0234   64.4295 H   0  0  0  0  0  0  0  0  0  0  0  0
  128.3383  132.5667   63.9415 H   0  0  0  0  0  0  0  0  0  0  0  0
  128.7419  130.8163   63.9415 H   0  0  0  0  0  0  0  0  0  0  0  0
  131.5228  131.0264   62.7217 H   0  0  0  0  0  0  0  0  0  0  0  0
  132.2980  131.2184   60.3588 H   0  0  0  0  0  0  0  0  0  0  0  0
  132.2751  130.1085   58.0253 H   0  0  0  0  0  0  0  0  0  0  0  0
  132.5799  127.7031   58.5549 H   0  0  0  0  0  0  0  0  0  0  0  0
  130.8859  125.2321   57.4908 H   0  0  0  0  0  0  0  0  0  0  0  0
  133.2294  126.2836   62.0660 H   0  0  0  0  0  0  0  0  0  0  0  0
  132.0094  125.2058   62.8535 H   0  0  0  0  0  0  0  0  0  0  0  0
  134.2169  124.1280   63.6230 H   0  0  0  0  0  0  0  0  0  0  0  0
  135.1852  123.1824   62.4419 H   0  0  0  0  0  0  0  0  0  0  0  0
  135.2711  124.9767   62.4419 H   0  0  0  0  0  0  0  0  0  0  0  0
  132.3840  122.5935   62.6755 H   0  0  0  0  0  0  0  0  0  0  0  0
  131.6184  123.0647   61.1203 H   0  0  0  0  0  0  0  0  0  0  0  0
  133.1080  122.0608   61.1203 H   0  0  0  0  0  0  0  0  0  0  0  0
  134.7649  125.1889   60.2097 H   0  0  0  0  0  0  0  0  0  0  0  0
  134.5287  123.3974   59.9045 H   0  0  0  0  0  0  0  0  0  0  0  0
  129.5605  126.4767   63.0687 H   0  0  0  0  0  0  0  0  0  0  0  0
  131.0014  127.4790   62.3535 H   0  0  0  0  0  0  0  0  0  0  0  0
  126.4664  123.5352   58.4667 H   0  0  0  0  0  0  0  0  0  0  0  0
  127.5666  122.7294   59.6933 H   0  0  0  0  0  0  0  0  0  0  0  0
  125.9655  126.6464   60.4911 H   0  0  0  0  0  0  0  0  0  0  0  0
  127.0331  126.4051   59.0668 H   0  0  0  0  0  0  0  0  0  0  0  0
  125.3691  125.7286   59.0668 H   0  0  0  0  0  0  0  0  0  0  0  0
  125.8880  124.0186   62.1949 H   0  0  0  0  0  0  0  0  0  0  0  0
  124.7098  124.2997   60.8684 H   0  0  0  0  0  0  0  0  0  0  0  0
  125.7257  122.8183   60.8684 H   0  0  0  0  0  0  0  0  0  0  0  0
  127.6919  125.7248   61.9665 H   0  0  0  0  0  0  0  0  0  0  0  0
  128.2216  124.0003   61.8122 H   0  0  0  0  0  0  0  0  0  0  0  0
  128.4317  126.9724   57.5979 H   0  0  0  0  0  0  0  0  0  0  0  0
  128.5447  133.0706   59.2710 H   0  0  0  0  0  0  0  0  0  0  0  0
  127.7622  132.8709   61.6327 H   0  0  0  0  0  0  0  0  0  0  0  0
  1  2  1  0
  2  3  2  0
  3  4  1  0
  4  5  2  0
  5  6  1  0
  6  7  2  0
  6  8  2  0
  6  9  1  0
  9 10  1  0
 10 11  2  0
 11 12  1  0
 12 13  2  0
 13 14  1  0
 14 15  1  0
 15 16  2  0
 16 17  1  0
 17 18  1  0
 18 19  1  0
 18 20  1  0
 18 21  1  0
 21 22  1  0
 22 23  2  0
 16 24  1  0
 24 25  1  0
 25 26  1  0
 26 27  2  0
 26 28  1  0
 24 29  1  0
 29 30  2  0
 30 31  1  0
 31 32  2  0
 31 33  1  0
 33 34  1  0
 34 35  1  0
 34 36  1  0
 34 37  1  0
 13 38  1  0
 38 39  2  0
 39 40  1  0
  5 41  1  0
 41 42  2  0
 42  2  1  0
 39 10  1  0
 30 14  1  0
 22 15  1  0
 37 29  1  0
  1 43  1  0
  1 44  1  0
  1 45  1  0
  3 46  1  0
  4 47  1  0
 11 48  1  0
 12 49  1  0
 14 50  1  0
 17 51  1  0
 17 52  1  0
 19 53  1  0
 19 54  1  0
 19 55  1  0
 20 56  1  0
 20 57  1  0
 20 58  1  0
 21 59  1  0
 21 60  1  0
 25 61  1  0
 25 62  1  0
 33 63  1  0
 33 64  1  0
 35 65  1  0
 35 66  1  0
 35 67  1  0
 36 68  1  0
 36 69  1  0
 36 70  1  0
 37 71  1  0
 37 72  1  0
 38 73  1  0
 41 74  1  0
 42 75  1  0
M  CHG  1  28  -1
M  END
>  <Binding energies>  (1) 
[-9.12]

>  <Ligand effiencies>  (1) 
[-0.21714285714285714]

>  <Interactions>  (1) 
["V-A:ILE:369:CG2:3237, V-A:ASP:366:CA:3210, V-B:PRO:540:CA:9855, V-A:GLY:454:CA:4049, V-A:ILE:369:CB:3236, V-B:ASP:366:CG:8184, V-B:TYR:539:CE2:9848, V-A:ASP:366:CG:3213, V-B:TYR:539:CZ:9849, H-B:TYR:539:OH:9850, V-A:ALA:541:CB:4892, V-A:GLU:543:CD:4908, V-B:PRO:540:CB:9857, V-A:GLY:453:C:4042, V-A:ILE:369:CD1:3239, V-A:TYR:531:CZ:4794, V-A:GLU:543:CG:4907, V-A:MET:535:CE:4835, V-A:TYR:539:C:4867, V-A:ASP:366:CB:3212, V-A:PRO:540:N:4884, H-A:TYR:539:N:4870, V-A:PRO:540:CB:4885, V-A:PRO:540:CA:4883, V-A:GLY:453:CA:4044"]

$$$$
ZINC409070781-again1
     RDKit          3D

 75 79  0  0  0  0  0  0  0  0999 V2000
  132.9550  131.3360   62.7790 C   0  0  0  0  0  0  0  0  0  0  0  0
  132.2360  131.6080   61.4690 C   0  0  0  0  0  0  0  0  0  0  0  0
  130.8770  131.9280   61.4720 C   0  0  0  0  0  0  0  0  0  0  0  0
  130.2150  132.1610   60.2690 C   0  0  0  0  0  0  0  0  0  0  0  0
  130.9160  132.0730   59.0650 C   0  0  0  0  0  0  0  0  0  0  0  0
  130.0640  132.3490   57.5160 S   0  0  0  0  0  0  0  0  0  0  0  0
  129.5650  133.7290   57.4990 O   0  0  0  0  0  0  0  0  0  0  0  0
  130.8800  131.8050   56.4240 O   0  0  0  0  0  0  0  0  0  0  0  0
  128.7890  131.3090   57.7930 O   0  0  0  0  0  0  0  0  0  0  0  0
  129.0890  130.0140   58.1130 C   0  0  0  0  0  0  0  0  0  0  0  0
  130.3730  129.5160   57.8760 C   0  0  0  0  0  0  0  0  0  0  0  0
  130.6920  128.2040   58.2240 C   0  0  0  0  0  0  0  0  0  0  0  0
  129.7320  127.3750   58.8170 C   0  0  0  0  0  0  0  0  0  0  0  0
  130.0800  125.9350   59.2290 C   0  0  1  0  0  0  0  0  0  0  0  0
  130.1490  125.7770   60.7560 C   0  0  0  0  0  0  0  0  0  0  0  0
  131.0580  126.4390   61.5090 C   0  0  0  0  0  0  0  0  0  0  0  0
  132.0530  127.2380   61.0390 O   0  0  0  0  0  0  0  0  0  0  0  0
  131.0330  126.4490   63.0370 C   0  0  0  0  0  0  0  0  0  0  0  0
  129.5770  126.2590   63.5880 C   0  0  0  0  0  0  0  0  0  0  0  0
  128.7830  127.5790   63.4670 C   0  0  0  0  0  0  0  0  0  0  0  0
  129.6570  125.7280   65.0350 C   0  0  0  0  0  0  0  0  0  0  0  0
  128.8550  125.2070   62.7370 C   0  0  0  0  0  0  0  0  0  0  0  0
  129.1420  124.9610   61.4330 C   0  0  0  0  0  0  0  0  0  0  0  0
  128.5450  123.9160   60.7280 N   0  0  0  0  0  0  0  0  0  0  0  0
  128.2960  122.6480   61.4520 C   0  0  0  0  0  0  0  0  0  0  0  0
  129.3200  121.4920   61.4090 C   0  0  0  0  0  0  0  0  0  0  0  0
  129.4710  120.8430   62.4680 O   0  0  0  0  0  0  0  0  0  0  0  0
  129.9350  121.2620   60.3430 O   0  0  0  0  0  0  0  0  0  0  0  0
  128.4880  123.9210   59.3280 C   0  0  0  0  0  0  0  0  0  0  0  0
  129.1660  124.8520   58.5870 C   0  0  0  0  0  0  0  0  0  0  0  0
  129.0920  124.8530   57.1020 C   0  0  0  0  0  0  0  0  0  0  0  0
  129.8940  125.4750   56.4040 O   0  0  0  0  0  0  0  0  0  0  0  0
  128.1070  123.8750   56.4380 C   0  0  0  0  0  0  0  0  0  0  0  0
  126.9180  123.4670   57.3440 C   0  0  0  0  0  0  0  0  0  0  0  0
  125.9950  124.6860   57.6190 C   0  0  0  0  0  0  0  0  0  0  0  0
  126.1650  122.3190   56.6380 C   0  0  0  0  0  0  0  0  0  0  0  0
  127.5240  122.9150   58.6630 C   0  0  0  0  0  0  0  0  0  0  0  0
  128.4480  127.8800   59.0520 C   0  0  0  0  0  0  0  0  0  0  0  0
  128.1250  129.1910   58.7050 C   0  0  0  0  0  0  0  0  0  0  0  0
  126.3690  129.8460   59.0500 Br  0  0  0  0  0  0  0  0  0  0  0  0
  132.2730  131.7470   59.0590 C   0  0  0  0  0  0  0  0  0  0  0  0
  132.9330  131.5130   60.2620 C   0  0  0  0  0  0  0  0  0  0  0  0
  132.2920  131.5868   63.6201 H   0  0  0  0  0  0  0  0  0  0  0  0
  133.2291  130.2721   62.8328 H   0  0  0  0  0  0  0  0  0  0  0  0
  133.8647  131.9521   62.8328 H   0  0  0  0  0  0  0  0  0  0  0  0
  130.3296  131.9960   62.4237 H   0  0  0  0  0  0  0  0  0  0  0  0
  129.1443  132.4133   60.2676 H   0  0  0  0  0  0  0  0  0  0  0  0
  131.1345  130.1611   57.4134 H   0  0  0  0  0  0  0  0  0  0  0  0
  131.7039  127.8179   58.0315 H   0  0  0  0  0  0  0  0  0  0  0  0
  131.0851  125.7552   58.8197 H   0  0  0  0  0  0  0  0  0  0  0  0
  131.9660  128.1150   61.4190 H   0  0  0  0  0  0  0  0  0  0  0  0
  131.6663  125.6308   63.4104 H   0  0  0  0  0  0  0  0  0  0  0  0
  131.4089  127.4233   63.3825 H   0  0  0  0  0  0  0  0  0  0  0  0
  128.5527  127.9618   64.4722 H   0  0  0  0  0  0  0  0  0  0  0  0
  129.3852  128.3204   62.9213 H   0  0  0  0  0  0  0  0  0  0  0  0
  127.8459  127.3945   62.9213 H   0  0  0  0  0  0  0  0  0  0  0  0
  129.5312  126.5633   65.7396 H   0  0  0  0  0  0  0  0  0  0  0  0
  128.8603  124.9873   65.1983 H   0  0  0  0  0  0  0  0  0  0  0  0
  130.6366  125.2549   65.1983 H   0  0  0  0  0  0  0  0  0  0  0  0
  128.0572  124.6167   63.2114 H   0  0  0  0  0  0  0  0  0  0  0  0
  128.1682  122.9131   62.5119 H   0  0  0  0  0  0  0  0  0  0  0  0
  127.4342  122.2274   60.9131 H   0  0  0  0  0  0  0  0  0  0  0  0
  127.7042  124.3514   55.5320 H   0  0  0  0  0  0  0  0  0  0  0  0
  128.6700  122.9559   56.2182 H   0  0  0  0  0  0  0  0  0  0  0  0
  125.8880  124.8273   58.7046 H   0  0  0  0  0  0  0  0  0  0  0  0
  126.4378  125.5891   57.1735 H   0  0  0  0  0  0  0  0  0  0  0  0
  125.0057  124.5047   57.1735 H   0  0  0  0  0  0  0  0  0  0  0  0
  125.7260  121.6498   57.3926 H   0  0  0  0  0  0  0  0  0  0  0  0
  125.3652  122.7372   56.0092 H   0  0  0  0  0  0  0  0  0  0  0  0
  126.8672  121.7520   56.0092 H   0  0  0  0  0  0  0  0  0  0  0  0
  126.7053  122.6930   59.3633 H   0  0  0  0  0  0  0  0  0  0  0  0
  128.0978  122.0091   58.4177 H   0  0  0  0  0  0  0  0  0  0  0  0
  127.6860  127.2359   59.5152 H   0  0  0  0  0  0  0  0  0  0  0  0
  132.8191  131.6752   58.1069 H   0  0  0  0  0  0  0  0  0  0  0  0
  134.0020  131.2536   60.2623 H   0  0  0  0  0  0  0  0  0  0  0  0
  1  2  1  0
  2  3  2  0
  3  4  1  0
  4  5  2  0
  5  6  1  0
  6  7  2  0
  6  8  2  0
  6  9  1  0
  9 10  1  0
 10 11  2  0
 11 12  1  0
 12 13  2  0
 13 14  1  0
 14 15  1  0
 15 16  2  0
 16 17  1  0
 16 18  1  0
 18 19  1  0
 19 20  1  0
 19 21  1  0
 19 22  1  0
 22 23  2  0
 23 24  1  0
 24 25  1  0
 25 26  1  0
 26 27  2  0
 26 28  1  0
 24 29  1  0
 29 30  2  0
 30 31  1  0
 31 32  2  0
 31 33  1  0
 33 34  1  0
 34 35  1  0
 34 36  1  0
 34 37  1  0
 13 38  1  0
 38 39  2  0
 39 40  1  0
  5 41  1  0
 41 42  2  0
 42  2  1  0
 39 10  1  0
 30 14  1  0
 23 15  1  0
 37 29  1  0
  1 43  1  0
  1 44  1  0
  1 45  1  0
  3 46  1  0
  4 47  1  0
 11 48  1  0
 12 49  1  0
 14 50  1  6
 17 51  1  0
 18 52  1  0
 18 53  1  0
 20 54  1  0
 20 55  1  0
 20 56  1  0
 21 57  1  0
 21 58  1  0
 21 59  1  0
 22 60  1  0
 25 61  1  0
 25 62  1  0
 33 63  1  0
 33 64  1  0
 35 65  1  0
 35 66  1  0
 35 67  1  0
 36 68  1  0
 36 69  1  0
 36 70  1  0
 37 71  1  0
 37 72  1  0
 38 73  1  0
 41 74  1  0
 42 75  1  0
M  CHG  1  28  -1
M  END
>  <Binding energies>  (1) 
[-9.34]

>  <Ligand effiencies>  (1) 
[-0.2172093023255814]

>  <Interactions>  (1) 
["V-B:PRO:540:CA:9855, V-A:PRO:540:C:4881, V-B:ALA:541:CB:9864, H-A:TYR:531:OH:4795, V-B:TYR:539:CE2:9848, V-B:GLU:543:CG:9879, V-B:TYR:539:C:9839, V-A:ASP:366:CG:3213, V-A:ASN:362:CB:3176, V-A:LEU:363:CD1:3189, V-B:TYR:539:CZ:9849, H-B:TYR:539:OH:9850, H-B:ALA:541:N:9863, V-A:GLU:543:CD:4908, V-B:PRO:540:CB:9857, V-B:PRO:540:N:9856, V-B:TYR:539:CD2:9846, V-A:GLU:543:CG:4907, V-B:PRO:540:CD:9859, V-B:GLU:543:CD:9880, H-A:ARG:545:NH2:4928, H-A:GLU:543:OE1:4909, H-A:ASP:366:OD1:3214, V-A:PRO:540:N:4884, H-A:TYR:539:N:4870, V-A:PRO:540:CB:4885, V-A:PRO:540:CA:4883, H-A:ASP:366:OD2:3215, V-B:TYR:539:CE1:9847"]

$$$$
ZINC409073194-again1
     RDKit          3D

 86 90  0  0  0  0  0  0  0  0999 V2000
  134.0760  124.6470   62.7850 C   0  0  0  0  0  0  0  0  0  0  0  0
  133.1400  124.7450   63.7420 C   0  0  0  0  0  0  0  0  0  0  0  0
  131.7090  124.2580   63.6040 C   0  0  0  0  0  0  0  0  0  0  0  0
  130.6990  125.3960   63.5150 C   0  0  0  0  0  0  0  0  0  0  0  0
  130.3010  125.8570   62.2590 C   0  0  0  0  0  0  0  0  0  0  0  0
  129.3810  126.9000   62.1360 C   0  0  0  0  0  0  0  0  0  0  0  0
  128.9600  127.4030   60.7470 C   0  0  1  0  0  0  0  0  0  0  0  0
  129.9770  128.3990   60.1510 C   0  0  0  0  0  0  0  0  0  0  0  0
  130.1670  129.6280   60.6820 C   0  0  0  0  0  0  0  0  0  0  0  0
  129.4900  130.1360   61.7480 O   0  0  0  0  0  0  0  0  0  0  0  0
  131.1930  130.6360   60.1690 C   0  0  0  0  0  0  0  0  0  0  0  0
  131.6370  130.3670   58.6870 C   0  0  0  0  0  0  0  0  0  0  0  0
  133.0920  130.8450   58.5010 C   0  0  0  0  0  0  0  0  0  0  0  0
  130.6460  131.0520   57.7200 C   0  0  0  0  0  0  0  0  0  0  0  0
  131.5930  128.8660   58.3740 C   0  0  0  0  0  0  0  0  0  0  0  0
  130.8310  127.9680   59.0420 C   0  0  0  0  0  0  0  0  0  0  0  0
  130.8260  126.6200   58.6980 N   0  0  0  0  0  0  0  0  0  0  0  0
  132.1220  125.9250   58.5870 C   0  0  0  0  0  0  0  0  0  0  0  0
  132.3730  124.8040   59.6410 C   0  0  0  0  0  0  0  0  0  0  0  0
  133.2420  123.6210   59.1500 C   0  0  0  0  0  0  0  0  0  0  0  0
  133.4930  122.7230   59.9850 O   0  0  0  0  0  0  0  0  0  0  0  0
  133.6130  123.5930   57.9550 O   0  0  0  0  0  0  0  0  0  0  0  0
  129.6590  125.8730   58.8410 C   0  0  0  0  0  0  0  0  0  0  0  0
  128.7090  126.2470   59.7490 C   0  0  0  0  0  0  0  0  0  0  0  0
  127.4170  125.5280   59.8580 C   0  0  0  0  0  0  0  0  0  0  0  0
  126.6440  125.6990   60.8000 O   0  0  0  0  0  0  0  0  0  0  0  0
  127.1510  124.4110   58.8310 C   0  0  0  0  0  0  0  0  0  0  0  0
  127.8990  124.6010   57.4840 C   0  0  0  0  0  0  0  0  0  0  0  0
  127.7250  123.3040   56.6640 C   0  0  0  0  0  0  0  0  0  0  0  0
  127.3520  125.8450   56.7330 C   0  0  0  0  0  0  0  0  0  0  0  0
  129.4120  124.7680   57.8050 C   0  0  0  0  0  0  0  0  0  0  0  0
  128.8550  127.4820   63.2930 C   0  0  0  0  0  0  0  0  0  0  0  0
  129.2440  127.0410   64.5680 C   0  0  0  0  0  0  0  0  0  0  0  0
  128.7760  127.5900   65.7490 O   0  0  0  0  0  0  0  0  0  0  0  0
  127.9870  128.7740   65.7050 C   0  0  0  0  0  0  0  0  0  0  0  0
  130.1650  125.9870   64.6690 C   0  0  0  0  0  0  0  0  0  0  0  0
  130.5790  125.5510   65.9060 O   0  0  0  0  0  0  0  0  0  0  0  0
  129.5270  125.3090   66.8360 C   0  0  0  0  0  0  0  0  0  0  0  0
  129.7070  126.1980   68.0570 C   0  0  0  0  0  0  0  0  0  0  0  0
  130.8640  126.9710   68.2060 C   0  0  0  0  0  0  0  0  0  0  0  0
  131.0310  127.7800   69.3300 C   0  0  0  0  0  0  0  0  0  0  0  0
  130.0440  127.8170   70.3150 C   0  0  0  0  0  0  0  0  0  0  0  0
  128.8900  127.0450   70.1770 C   0  0  0  0  0  0  0  0  0  0  0  0
  127.6700  127.0880   71.3970 Cl  0  0  0  0  0  0  0  0  0  0  0  0
  128.7230  126.2350   69.0510 C   0  0  0  0  0  0  0  0  0  0  0  0
  135.0920  125.0267   62.9684 H   0  0  0  0  0  0  0  0  0  0  0  0
  133.8271  124.1870   61.8173 H   0  0  0  0  0  0  0  0  0  0  0  0
  133.4308  125.2117   64.6947 H   0  0  0  0  0  0  0  0  0  0  0  0
  131.6324  123.6490   62.6911 H   0  0  0  0  0  0  0  0  0  0  0  0
  131.4708  123.6762   64.5067 H   0  0  0  0  0  0  0  0  0  0  0  0
  130.7180  125.3921   61.3535 H   0  0  0  0  0  0  0  0  0  0  0  0
  128.0086  127.9324   60.9035 H   0  0  0  0  0  0  0  0  0  0  0  0
  129.9810  129.9590   62.5530 H   0  0  0  0  0  0  0  0  0  0  0  0
  130.7525  131.6424   60.2248 H   0  0  0  0  0  0  0  0  0  0  0  0
  132.0885  130.5413   60.8008 H   0  0  0  0  0  0  0  0  0  0  0  0
  133.5566  130.9976   59.4863 H   0  0  0  0  0  0  0  0  0  0  0  0
  133.6587  130.0858   57.9420 H   0  0  0  0  0  0  0  0  0  0  0  0
  133.0981  131.7924   57.9420 H   0  0  0  0  0  0  0  0  0  0  0  0
  129.8768  131.5837   58.2992 H   0  0  0  0  0  0  0  0  0  0  0  0
  131.1885  131.7688   57.0861 H   0  0  0  0  0  0  0  0  0  0  0  0
  130.1671  130.2912   57.0861 H   0  0  0  0  0  0  0  0  0  0  0  0
  132.2225  128.4944   57.5520 H   0  0  0  0  0  0  0  0  0  0  0  0
  132.1781  125.4694   57.5874 H   0  0  0  0  0  0  0  0  0  0  0  0
  132.8919  126.6893   58.7688 H   0  0  0  0  0  0  0  0  0  0  0  0
  132.8750  125.2582   60.5080 H   0  0  0  0  0  0  0  0  0  0  0  0
  131.3857  124.3803   59.8773 H   0  0  0  0  0  0  0  0  0  0  0  0
  127.4682  123.4539   59.2708 H   0  0  0  0  0  0  0  0  0  0  0  0
  126.0750  124.4368   58.6041 H   0  0  0  0  0  0  0  0  0  0  0  0
  127.6105  122.4503   57.3481 H   0  0  0  0  0  0  0  0  0  0  0  0
  126.8301  123.3884   56.0299 H   0  0  0  0  0  0  0  0  0  0  0  0
  128.6105  123.1495   56.0299 H   0  0  0  0  0  0  0  0  0  0  0  0
  127.0209  126.5980   57.4634 H   0  0  0  0  0  0  0  0  0  0  0  0
  128.1460  126.2707   56.1018 H   0  0  0  0  0  0  0  0  0  0  0  0
  126.5016  125.5477   56.1018 H   0  0  0  0  0  0  0  0  0  0  0  0
  129.7987  123.8171   58.2003 H   0  0  0  0  0  0  0  0  0  0  0  0
  129.9283  125.0506   56.8757 H   0  0  0  0  0  0  0  0  0  0  0  0
  128.1241  128.2991   63.2031 H   0  0  0  0  0  0  0  0  0  0  0  0
  127.7660  129.1057   66.7303 H   0  0  0  0  0  0  0  0  0  0  0  0
  128.5401  129.5637   65.1754 H   0  0  0  0  0  0  0  0  0  0  0  0
  127.0453  128.5676   65.1754 H   0  0  0  0  0  0  0  0  0  0  0  0
  128.5604  125.5320   66.3607 H   0  0  0  0  0  0  0  0  0  0  0  0
  129.5513  124.2541   67.1469 H   0  0  0  0  0  0  0  0  0  0  0  0
  131.6458  126.9405   67.4328 H   0  0  0  0  0  0  0  0  0  0  0  0
  131.9407  128.3886   69.4396 H   0  0  0  0  0  0  0  0  0  0  0  0
  130.1756  128.4553   71.2012 H   0  0  0  0  0  0  0  0  0  0  0  0
  127.8144  125.6240   68.9455 H   0  0  0  0  0  0  0  0  0  0  0  0
  1  2  2  0
  2  3  1  0
  3  4  1  0
  4  5  2  0
  5  6  1  0
  6  7  1  0
  7  8  1  0
  8  9  2  0
  9 10  1  0
  9 11  1  0
 11 12  1  0
 12 13  1  0
 12 14  1  0
 12 15  1  0
 15 16  2  0
 16 17  1  0
 17 18  1  0
 18 19  1  0
 19 20  1  0
 20 21  2  0
 20 22  1  0
 17 23  1  0
 23 24  2  0
 24 25  1  0
 25 26  2  0
 25 27  1  0
 27 28  1  0
 28 29  1  0
 28 30  1  0
 28 31  1  0
  6 32  2  0
 32 33  1  0
 33 34  1  0
 34 35  1  0
 33 36  2  0
 36 37  1  0
 37 38  1  0
 38 39  1  0
 39 40  2  0
 40 41  1  0
 41 42  2  0
 42 43  1  0
 43 44  1  0
 43 45  2  0
 36  4  1  0
 45 39  1  0
 24  7  1  0
 16  8  1  0
 31 23  1  0
  1 46  1  0
  1 47  1  0
  2 48  1  0
  3 49  1  0
  3 50  1  0
  5 51  1  0
  7 52  1  1
 10 53  1  0
 11 54  1  0
 11 55  1  0
 13 56  1  0
 13 57  1  0
 13 58  1  0
 14 59  1  0
 14 60  1  0
 14 61  1  0
 15 62  1  0
 18 63  1  0
 18 64  1  0
 19 65  1  0
 19 66  1  0
 27 67  1  0
 27 68  1  0
 29 69  1  0
 29 70  1  0
 29 71  1  0
 30 72  1  0
 30 73  1  0
 30 74  1  0
 31 75  1  0
 31 76  1  0
 32 77  1  0
 35 78  1  0
 35 79  1  0
 35 80  1  0
 38 81  1  0
 38 82  1  0
 40 83  1  0
 41 84  1  0
 42 85  1  0
 45 86  1  0
M  CHG  1  22  -1
M  END
>  <Binding energies>  (1) 
[-9.0]

>  <Ligand effiencies>  (1) 
[-0.1956521739130435]

>  <Interactions>  (1) 
["V-A:ILE:369:CG2:3237, V-B:GLU:543:C:9874, V-B:HIS:456:CD2:9039, V-A:GLU:543:C:4902, V-A:ILE:369:CB:3236, V-B:GLU:543:CB:9878, V-B:TYR:539:CE2:9848, V-B:GLU:543:CG:9879, V-A:ASP:366:CG:3213, V-A:LEU:363:CD1:3189, V-B:TYR:539:CZ:9849, H-B:TYR:539:OH:9850, V-A:GLU:543:CD:4908, V-B:GLU:543:CA:9876, V-A:ARG:545:CG:4922, V-B:HIS:456:CE1:9041, V-A:HIS:456:CE1:4070, V-B:GLY:544:C:9884, V-A:GLU:543:CG:4907, V-B:GLU:543:CD:9880, V-A:ASP:366:CB:3212, V-A:ARG:545:CZ:4926, H-A:GLU:543:OE1:4909, V-A:GLU:543:CB:4906, V-B:TYR:539:CD1:9845, V-A:LEU:363:CA:3185, V-A:GLY:453:CA:4044, V-B:TYR:539:CE1:9847, H-A:TYR:484:OH:4348"]

$$$$
ZINC409076985
     RDKit          3D

 74 78  0  0  0  0  0  0  0  0999 V2000
  133.3520  122.0800   62.4080 C   0  0  0  0  0  0  0  0  0  0  0  0
  132.4070  122.2940   61.1980 C   0  0  0  0  0  0  0  0  0  0  0  0
  131.2870  121.2220   61.2640 C   0  0  0  0  0  0  0  0  0  0  0  0
  133.2160  122.0290   59.9020 C   0  0  0  0  0  0  0  0  0  0  0  0
  131.7790  123.7430   61.1710 C   0  0  1  0  0  0  0  0  0  0  0  0
  132.4940  124.7230   60.1990 C   0  0  0  0  0  0  0  0  0  0  0  0
  132.0950  126.1900   60.4570 C   0  0  0  0  0  0  0  0  0  0  0  0
  130.5700  126.3080   60.5300 C   0  0  0  0  0  0  0  0  0  0  0  0
  129.7560  125.1820   60.7100 C   0  0  0  0  0  0  0  0  0  0  0  0
  128.0730  125.5810   60.6740 S   0  0  0  0  0  0  0  0  0  0  0  0
  128.4310  127.2750   60.4530 C   0  0  0  0  0  0  0  0  0  0  0  0
  127.4100  128.1660   60.3050 N   0  0  0  0  0  0  0  0  0  0  0  0
  126.8650  128.7670   61.2980 C   0  0  0  0  0  0  0  0  0  0  0  0
  127.2290  128.7800   62.7300 C   0  0  0  0  0  0  0  0  0  0  0  0
  128.1870  127.8630   63.1750 C   0  0  0  0  0  0  0  0  0  0  0  0
  128.5700  127.8240   64.5120 C   0  0  0  0  0  0  0  0  0  0  0  0
  127.9980  128.6930   65.4400 C   0  0  0  0  0  0  0  0  0  0  0  0
  128.4460  128.5860   66.7410 O   0  0  0  0  0  0  0  0  0  0  0  0
  129.0180  127.3590   67.1860 C   0  0  0  0  0  0  0  0  0  0  0  0
  129.1380  127.3990   68.7000 C   0  0  0  0  0  0  0  0  0  0  0  0
  130.3170  127.8520   69.2910 C   0  0  0  0  0  0  0  0  0  0  0  0
  130.4350  127.8800   70.6770 C   0  0  0  0  0  0  0  0  0  0  0  0
  129.3820  127.4540   71.5100 C   0  0  0  0  0  0  0  0  0  0  0  0
  129.5140  127.4820   73.0200 C   0  0  0  0  0  0  0  0  0  0  0  0
  129.2450  126.4420   73.6700 O   0  0  0  0  0  0  0  0  0  0  0  0
  129.8890  128.5410   73.5750 O   0  0  0  0  0  0  0  0  0  0  0  0
  128.2010  127.0000   70.8880 C   0  0  0  0  0  0  0  0  0  0  0  0
  128.0810  126.9710   69.5010 C   0  0  0  0  0  0  0  0  0  0  0  0
  127.0190  129.6000   65.0080 C   0  0  0  0  0  0  0  0  0  0  0  0
  126.6360  129.6370   63.6700 C   0  0  0  0  0  0  0  0  0  0  0  0
  129.8160  127.4940   60.3640 C   0  0  0  0  0  0  0  0  0  0  0  0
  130.4170  128.7770   60.1160 C   0  0  0  0  0  0  0  0  0  0  0  0
  130.5060  129.2310   58.9750 O   0  0  0  0  0  0  0  0  0  0  0  0
  130.8070  129.4120   61.2350 N   0  0  0  0  0  0  0  0  0  0  0  0
  131.3750  130.7580   61.2760 C   0  0  0  0  0  0  0  0  0  0  0  0
  130.2890  131.8110   61.2280 C   0  0  0  0  0  0  0  0  0  0  0  0
  129.4340  132.2690   60.2350 C   0  0  0  0  0  0  0  0  0  0  0  0
  128.6530  133.2770   60.8020 C   0  0  0  0  0  0  0  0  0  0  0  0
  129.0630  133.3910   62.1190 C   0  0  0  0  0  0  0  0  0  0  0  0
  130.0530  132.4990   62.3780 O   0  0  0  0  0  0  0  0  0  0  0  0
  130.2550  123.7460   60.8380 C   0  0  0  0  0  0  0  0  0  0  0  0
  132.7860  122.2082   63.3425 H   0  0  0  0  0  0  0  0  0  0  0  0
  133.7719  121.0640   62.3701 H   0  0  0  0  0  0  0  0  0  0  0  0
  134.1687  122.8159   62.3701 H   0  0  0  0  0  0  0  0  0  0  0  0
  131.0542  120.9992   62.3157 H   0  0  0  0  0  0  0  0  0  0  0  0
  130.3854  121.6023   60.7615 H   0  0  0  0  0  0  0  0  0  0  0  0
  131.6274  120.3046   60.7615 H   0  0  0  0  0  0  0  0  0  0  0  0
  134.2310  121.6965   60.1649 H   0  0  0  0  0  0  0  0  0  0  0  0
  132.7158  121.2477   59.3108 H   0  0  0  0  0  0  0  0  0  0  0  0
  133.2750  122.9548   59.3108 H   0  0  0  0  0  0  0  0  0  0  0  0
  131.9286  124.1002   62.2006 H   0  0  0  0  0  0  0  0  0  0  0  0
  133.5815  124.6228   60.3306 H   0  0  0  0  0  0  0  0  0  0  0  0
  132.1906  124.4647   59.1737 H   0  0  0  0  0  0  0  0  0  0  0  0
  132.5331  126.5256   61.4085 H   0  0  0  0  0  0  0  0  0  0  0  0
  132.4688  126.8179   59.6348 H   0  0  0  0  0  0  0  0  0  0  0  0
  125.9824  129.3716   61.0420 H   0  0  0  0  0  0  0  0  0  0  0  0
  128.6433  127.1638   62.4588 H   0  0  0  0  0  0  0  0  0  0  0  0
  129.3312  127.1008   64.8399 H   0  0  0  0  0  0  0  0  0  0  0  0
  128.3723  126.5198   66.8878 H   0  0  0  0  0  0  0  0  0  0  0  0
  130.0118  127.2230   66.7345 H   0  0  0  0  0  0  0  0  0  0  0  0
  131.1541  128.1874   68.6611 H   0  0  0  0  0  0  0  0  0  0  0  0
  131.3691  128.2420   71.1313 H   0  0  0  0  0  0  0  0  0  0  0  0
  127.3588  126.6624   71.5099 H   0  0  0  0  0  0  0  0  0  0  0  0
  127.1512  126.6100   69.0372 H   0  0  0  0  0  0  0  0  0  0  0  0
  126.5515  130.2855   65.7301 H   0  0  0  0  0  0  0  0  0  0  0  0
  125.8599  130.3459   63.3459 H   0  0  0  0  0  0  0  0  0  0  0  0
  130.7450  128.9220   62.1160 H   0  0  0  0  0  0  0  0  0  0  0  0
  131.9495  130.8770   62.2065 H   0  0  0  0  0  0  0  0  0  0  0  0
  132.0263  130.8885   60.3992 H   0  0  0  0  0  0  0  0  0  0  0  0
  129.3819  131.9062   59.1979 H   0  0  0  0  0  0  0  0  0  0  0  0
  127.8683  133.8637   60.3021 H   0  0  0  0  0  0  0  0  0  0  0  0
  128.6473  134.1008   62.8493 H   0  0  0  0  0  0  0  0  0  0  0  0
  129.7043  123.2386   61.6438 H   0  0  0  0  0  0  0  0  0  0  0  0
  130.0904  123.2185   59.8869 H   0  0  0  0  0  0  0  0  0  0  0  0
  1  2  1  0
  2  3  1  0
  2  4  1  0
  2  5  1  0
  5  6  1  0
  6  7  1  0
  7  8  1  0
  8  9  2  0
  9 10  1  0
 10 11  1  0
 11 12  1  0
 12 13  2  0
 13 14  1  0
 14 15  2  0
 15 16  1  0
 16 17  2  0
 17 18  1  0
 18 19  1  0
 19 20  1  0
 20 21  2  0
 21 22  1  0
 22 23  2  0
 23 24  1  0
 24 25  2  0
 24 26  1  0
 23 27  1  0
 27 28  2  0
 17 29  1  0
 29 30  2  0
 11 31  2  0
 31 32  1  0
 32 33  2  0
 32 34  1  0
 34 35  1  0
 35 36  1  0
 36 37  2  0
 37 38  1  0
 38 39  2  0
 39 40  1  0
  9 41  1  0
 41  5  1  0
 31  8  1  0
 40 36  1  0
 30 14  1  0
 28 20  1  0
  1 42  1  0
  1 43  1  0
  1 44  1  0
  3 45  1  0
  3 46  1  0
  3 47  1  0
  4 48  1  0
  4 49  1  0
  4 50  1  0
  5 51  1  1
  6 52  1  0
  6 53  1  0
  7 54  1  0
  7 55  1  0
 13 56  1  0
 15 57  1  0
 16 58  1  0
 19 59  1  0
 19 60  1  0
 21 61  1  0
 22 62  1  0
 27 63  1  0
 28 64  1  0
 29 65  1  0
 30 66  1  0
 34 67  1  0
 35 68  1  0
 35 69  1  0
 37 70  1  0
 38 71  1  0
 39 72  1  0
 41 73  1  0
 41 74  1  0
M  CHG  1  26  -1
M  END
>  <Binding energies>  (1) 
[-9.72]

>  <Ligand effiencies>  (1) 
[-0.23142857142857146]

>  <Interactions>  (1) 
["V-A:ILE:369:CG2:3237, V-A:GLY:454:CA:4049, V-B:GLU:543:C:9874, V-A:ILE:369:CB:3236, V-A:GLU:543:C:4902, H-A:ALA:541:N:4891, V-A:PRO:540:C:4881, H-B:LYS:547:NZ:9923, V-B:GLU:543:CB:9878, V-B:TYR:539:CE2:9848, V-A:GLY:544:C:4912, V-A:ASP:366:CG:3213, V-A:ALA:541:CB:4892, V-A:GLU:543:CD:4908, V-B:HIS:456:CE1:9041, V-A:HIS:456:CE1:4070, V-A:ALA:541:CA:4890, V-B:TYR:539:CD2:9846, V-A:GLU:543:CG:4907, V-B:GLU:543:CD:9880, V-A:TYR:539:C:4867, V-A:ASP:366:CB:3212, H-A:LYS:547:NZ:4951, V-A:LEU:475:CD2:4259, H-A:GLU:543:OE1:4909, V-A:GLU:543:CB:4906, V-A:PRO:540:CA:4883, H-A:ASP:366:OD2:3215"]

$$$$
ZINC409084381
     RDKit          3D

 64 67  0  0  0  0  0  0  0  0999 V2000
  130.6600  117.4870   61.4880 C   0  0  0  0  0  0  0  0  0  0  0  0
  131.0270  118.4710   60.5280 O   0  0  0  0  0  0  0  0  0  0  0  0
  131.0010  119.8240   60.8600 C   0  0  0  0  0  0  0  0  0  0  0  0
  129.8740  120.4160   61.4530 C   0  0  0  0  0  0  0  0  0  0  0  0
  129.8350  121.7750   61.7680 C   0  0  0  0  0  0  0  0  0  0  0  0
  128.6310  122.3800   62.3910 N   0  0  0  0  0  0  0  0  0  0  0  0
  128.7000  122.7710   63.5530 O   0  0  0  0  0  0  0  0  0  0  0  0
  127.6040  122.4690   61.7250 O   0  0  0  0  0  0  0  0  0  0  0  0
  130.9640  122.5510   61.4970 C   0  0  0  0  0  0  0  0  0  0  0  0
  132.1340  122.0070   60.9530 C   0  0  0  0  0  0  0  0  0  0  0  0
  133.2560  122.9820   60.8320 C   0  0  0  0  0  0  0  0  0  0  0  0
  133.5060  124.0480   61.4980 N   0  0  0  0  0  0  0  0  0  0  0  0
  132.6510  124.5950   62.4120 C   0  0  0  0  0  0  0  0  0  0  0  0
  132.8650  124.0310   64.0370 S   0  0  0  0  0  0  0  0  0  0  0  0
  131.5840  125.0360   64.6130 C   0  0  0  0  0  0  0  0  0  0  0  0
  131.0280  125.8230   63.5950 C   0  0  0  0  0  0  0  0  0  0  0  0
  131.6520  125.6010   62.3390 C   0  0  0  0  0  0  0  0  0  0  0  0
  131.2650  126.3040   61.1360 C   0  0  0  0  0  0  0  0  0  0  0  0
  131.0890  125.6950   60.0810 O   0  0  0  0  0  0  0  0  0  0  0  0
  131.1620  127.6400   61.3100 N   0  0  0  0  0  0  0  0  0  0  0  0
  130.9700  128.6520   60.3500 C   0  0  0  0  0  0  0  0  0  0  0  0
  130.9780  129.9610   60.8370 C   0  0  0  0  0  0  0  0  0  0  0  0
  130.8220  131.0360   59.9660 C   0  0  0  0  0  0  0  0  0  0  0  0
  130.6620  130.8030   58.6020 C   0  0  0  0  0  0  0  0  0  0  0  0
  130.4750  132.1350   57.5210 Cl  0  0  0  0  0  0  0  0  0  0  0  0
  130.6590  129.5030   58.1030 C   0  0  0  0  0  0  0  0  0  0  0  0
  130.8130  128.4270   58.9720 C   0  0  0  0  0  0  0  0  0  0  0  0
  129.8590  126.7740   63.8800 C   0  0  0  0  0  0  0  0  0  0  0  0
  129.1950  126.4040   65.2220 C   0  0  0  0  0  0  0  0  0  0  0  0
  130.2300  126.2440   66.3690 C   0  0  1  0  0  0  0  0  0  0  0  0
  129.5890  126.2150   67.8110 C   0  0  0  0  0  0  0  0  0  0  0  0
  130.4090  127.0340   68.8410 C   0  0  0  0  0  0  0  0  0  0  0  0
  128.1480  126.7880   67.7780 C   0  0  0  0  0  0  0  0  0  0  0  0
  129.4870  124.7550   68.3270 C   0  0  0  0  0  0  0  0  0  0  0  0
  131.1070  124.9930   66.0610 C   0  0  0  0  0  0  0  0  0  0  0  0
  132.1320  120.6310   60.5870 C   0  0  0  0  0  0  0  0  0  0  0  0
  133.1210  120.0970   59.9660 O   0  0  0  0  0  0  0  0  0  0  0  0
  130.8099  117.8890   62.5009 H   0  0  0  0  0  0  0  0  0  0  0  0
  129.6016  117.2195   61.3527 H   0  0  0  0  0  0  0  0  0  0  0  0
  131.2847  116.5918   61.3527 H   0  0  0  0  0  0  0  0  0  0  0  0
  128.9969  119.7906   61.6756 H   0  0  0  0  0  0  0  0  0  0  0  0
  130.9331  123.6280   61.7188 H   0  0  0  0  0  0  0  0  0  0  0  0
  133.9870  122.7485   60.0439 H   0  0  0  0  0  0  0  0  0  0  0  0
  131.2860  127.9770   62.2540 H   0  0  0  0  0  0  0  0  0  0  0  0
  131.1082  130.1435   61.9139 H   0  0  0  0  0  0  0  0  0  0  0  0
  130.8251  132.0655   60.3536 H   0  0  0  0  0  0  0  0  0  0  0  0
  130.5352  129.3269   57.0243 H   0  0  0  0  0  0  0  0  0  0  0  0
  130.8118  127.3993   58.5797 H   0  0  0  0  0  0  0  0  0  0  0  0
  130.2336  127.8070   63.9312 H   0  0  0  0  0  0  0  0  0  0  0  0
  129.1167  126.6866   63.0730 H   0  0  0  0  0  0  0  0  0  0  0  0
  128.4842  127.1977   65.4954 H   0  0  0  0  0  0  0  0  0  0  0  0
  128.6873  125.4371   65.0903 H   0  0  0  0  0  0  0  0  0  0  0  0
  130.8666  127.1406   66.3971 H   0  0  0  0  0  0  0  0  0  0  0  0
  130.1155  126.7408   69.8598 H   0  0  0  0  0  0  0  0  0  0  0  0
  131.4813  126.8356   68.6970 H   0  0  0  0  0  0  0  0  0  0  0  0
  130.2119  128.1066   68.6970 H   0  0  0  0  0  0  0  0  0  0  0  0
  127.7869  126.9316   68.8071 H   0  0  0  0  0  0  0  0  0  0  0  0
  128.1495  127.7540   67.2518 H   0  0  0  0  0  0  0  0  0  0  0  0
  127.4857  126.0848   67.2518 H   0  0  0  0  0  0  0  0  0  0  0  0
  129.4869  124.7540   69.4270 H   0  0  0  0  0  0  0  0  0  0  0  0
  128.5549  124.3006   67.9599 H   0  0  0  0  0  0  0  0  0  0  0  0
  130.3468  124.1754   67.9599 H   0  0  0  0  0  0  0  0  0  0  0  0
  131.9787  124.9847   66.7319 H   0  0  0  0  0  0  0  0  0  0  0  0
  130.5080  124.0838   66.2177 H   0  0  0  0  0  0  0  0  0  0  0  0
  1  2  1  0
  2  3  1  0
  3  4  2  0
  4  5  1  0
  5  6  1  0
  6  7  2  0
  6  8  1  0
  5  9  2  0
  9 10  1  0
 10 11  1  0
 11 12  2  0
 12 13  1  0
 13 14  1  0
 14 15  1  0
 15 16  2  0
 16 17  1  0
 17 18  1  0
 18 19  2  0
 18 20  1  0
 20 21  1  0
 21 22  2  0
 22 23  1  0
 23 24  2  0
 24 25  1  0
 24 26  1  0
 26 27  2  0
 16 28  1  0
 28 29  1  0
 29 30  1  0
 30 31  1  0
 31 32  1  0
 31 33  1  0
 31 34  1  0
 30 35  1  0
 10 36  2  0
 36 37  1  0
 36  3  1  0
 17 13  2  0
 27 21  1  0
 35 15  1  0
  1 38  1  0
  1 39  1  0
  1 40  1  0
  4 41  1  0
  9 42  1  0
 11 43  1  0
 20 44  1  0
 22 45  1  0
 23 46  1  0
 26 47  1  0
 27 48  1  0
 28 49  1  0
 28 50  1  0
 29 51  1  0
 29 52  1  0
 30 53  1  1
 32 54  1  0
 32 55  1  0
 32 56  1  0
 33 57  1  0
 33 58  1  0
 33 59  1  0
 34 60  1  0
 34 61  1  0
 34 62  1  0
 35 63  1  0
 35 64  1  0
M  CHG  3   6   1   8  -1  37  -1
M  END
>  <Binding energies>  (1) 
[-8.25]

>  <Ligand effiencies>  (1) 
[-0.21710526315789475]

>  <Interactions>  (1) 
["V-A:ILE:369:CG2:3237, V-A:GLY:454:CA:4049, V-B:GLU:543:C:9874, H-A:GLU:543:OE2:4910, V-B:GLU:543:CB:9878, V-B:ALA:541:CB:9864, V-B:TYR:539:CE2:9848, V-A:TYR:484:CE2:4346, V-A:LEU:475:CG:4257, V-B:GLU:543:CG:9879, V-A:ASP:366:CG:3213, H-B:ALA:541:N:9863, V-A:LEU:475:CD1:4258, V-A:GLU:543:CD:4908, V-A:TYR:484:CZ:4347, V-B:GLU:543:CA:9876, V-A:HIS:456:CE1:4070, V-A:PRO:482:CB:4326, V-B:TYR:539:CD2:9846, H-A:SER:385:OG:3410, V-B:GLU:543:CD:9880, V-A:LEU:475:CD2:4259, H-A:GLU:543:OE1:4909, V-A:GLU:543:CB:4906, H-A:HIS:383:HE2:3395, H-A:ASP:366:OD2:3215, V-B:ALA:541:CA:9862, V-A:HIS:383:NE2:3394"]

$$$$
ZINC409084584-again1
     RDKit          3D

 64 68  0  0  0  0  0  0  0  0999 V2000
  131.3200  117.3750   60.7780 O   0  0  0  0  0  0  0  0  0  0  0  0
  130.5290  118.2470   61.2020 C   0  0  0  0  0  0  0  0  0  0  0  0
  129.5140  117.9970   61.8930 O   0  0  0  0  0  0  0  0  0  0  0  0
  130.8750  119.7210   60.8840 C   0  0  0  0  0  0  0  0  0  0  0  0
  130.0000  120.7800   61.6230 C   0  0  0  0  0  0  0  0  0  0  0  0
  130.2960  122.1870   61.2760 N   0  0  0  0  0  0  0  0  0  0  0  0
  129.3340  122.8840   60.5490 C   0  0  0  0  0  0  0  0  0  0  0  0
  128.0100  122.7570   60.8110 C   0  0  0  0  0  0  0  0  0  0  0  0
  126.9200  123.3660   59.9360 C   0  0  0  0  0  0  0  0  0  0  0  0
  127.4130  123.5830   58.4780 C   0  0  0  0  0  0  0  0  0  0  0  0
  128.8810  124.0060   58.4460 C   0  0  0  0  0  0  0  0  0  0  0  0
  129.1360  124.7400   57.3290 O   0  0  0  0  0  0  0  0  0  0  0  0
  129.7710  123.7200   59.4280 C   0  0  0  0  0  0  0  0  0  0  0  0
  131.2020  124.2900   59.4290 C   0  0  1  0  0  0  0  0  0  0  0  0
  131.2190  125.8300   59.4630 C   0  0  0  0  0  0  0  0  0  0  0  0
  131.5120  126.5480   58.2990 C   0  0  0  0  0  0  0  0  0  0  0  0
  131.5170  127.9390   58.3170 C   0  0  0  0  0  0  0  0  0  0  0  0
  131.2190  128.6250   59.4990 C   0  0  0  0  0  0  0  0  0  0  0  0
  131.2330  130.0010   59.5620 O   0  0  0  0  0  0  0  0  0  0  0  0
  130.5210  130.6830   60.5300 C   0  0  0  0  0  0  0  0  0  0  0  0
  129.1200  130.6320   60.5720 C   0  0  0  0  0  0  0  0  0  0  0  0
  128.4130  131.2860   61.5770 C   0  0  0  0  0  0  0  0  0  0  0  0
  129.0850  131.9990   62.5760 C   0  0  0  0  0  0  0  0  0  0  0  0
  128.3340  132.6950   63.6490 N   0  0  0  0  0  0  0  0  0  0  0  0
  127.7040  133.7090   63.3630 O   0  0  0  0  0  0  0  0  0  0  0  0
  128.3680  132.2310   64.7860 O   0  0  0  0  0  0  0  0  0  0  0  0
  130.4870  132.0370   62.5390 C   0  0  0  0  0  0  0  0  0  0  0  0
  131.2130  131.3880   61.5310 C   0  0  0  0  0  0  0  0  0  0  0  0
  132.6920  131.4700   61.5350 N   0  0  0  0  0  0  0  0  0  0  0  0
  133.2860  131.4750   60.4620 O   0  0  0  0  0  0  0  0  0  0  0  0
  133.2610  131.5570   62.6200 O   0  0  0  0  0  0  0  0  0  0  0  0
  130.9460  127.9120   60.6660 C   0  0  0  0  0  0  0  0  0  0  0  0
  130.9400  126.5200   60.6480 C   0  0  0  0  0  0  0  0  0  0  0  0
  132.0860  123.6250   60.5240 C   0  0  0  0  0  0  0  0  0  0  0  0
  131.6140  122.6460   61.3570 C   0  0  0  0  0  0  0  0  0  0  0  0
  132.4640  122.0970   62.5150 C   0  0  0  0  0  0  0  0  0  0  0  0
  133.5310  123.1130   62.9470 C   0  0  0  0  0  0  0  0  0  0  0  0
  134.3750  123.5370   61.7410 C   0  0  0  0  0  0  0  0  0  0  0  0
  133.5060  124.0780   60.5960 C   0  0  0  0  0  0  0  0  0  0  0  0
  134.0290  124.7230   59.6870 O   0  0  0  0  0  0  0  0  0  0  0  0
  131.9252  119.8923   61.1626 H   0  0  0  0  0  0  0  0  0  0  0  0
  130.6790  119.8570   59.8102 H   0  0  0  0  0  0  0  0  0  0  0  0
  128.9459  120.5826   61.3782 H   0  0  0  0  0  0  0  0  0  0  0  0
  130.2269  120.6731   62.6940 H   0  0  0  0  0  0  0  0  0  0  0  0
  127.7065  122.1853   61.7004 H   0  0  0  0  0  0  0  0  0  0  0  0
  126.0528  122.6893   59.9229 H   0  0  0  0  0  0  0  0  0  0  0  0
  126.6472  124.3450   60.3568 H   0  0  0  0  0  0  0  0  0  0  0  0
  127.2984  122.6436   57.9173 H   0  0  0  0  0  0  0  0  0  0  0  0
  126.8108  124.3833   58.0231 H   0  0  0  0  0  0  0  0  0  0  0  0
  129.8820  124.3610   56.8600 H   0  0  0  0  0  0  0  0  0  0  0  0
  131.6659  124.0218   58.4683 H   0  0  0  0  0  0  0  0  0  0  0  0
  131.7392  126.0110   57.3663 H   0  0  0  0  0  0  0  0  0  0  0  0
  131.7554  128.4997   57.4012 H   0  0  0  0  0  0  0  0  0  0  0  0
  128.5734  130.0684   59.8015 H   0  0  0  0  0  0  0  0  0  0  0  0
  127.3139  131.2418   61.5860 H   0  0  0  0  0  0  0  0  0  0  0  0
  131.0296  132.5896   63.3201 H   0  0  0  0  0  0  0  0  0  0  0  0
  130.7351  128.4502   61.6019 H   0  0  0  0  0  0  0  0  0  0  0  0
  130.7152  125.9607   61.5682 H   0  0  0  0  0  0  0  0  0  0  0  0
  131.8078  121.8793   63.3706 H   0  0  0  0  0  0  0  0  0  0  0  0
  132.9704  121.1821   62.1737 H   0  0  0  0  0  0  0  0  0  0  0  0
  133.0379  123.9983   63.3750 H   0  0  0  0  0  0  0  0  0  0  0  0
  134.1861  122.6486   63.6987 H   0  0  0  0  0  0  0  0  0  0  0  0
  135.0769  124.3229   62.0567 H   0  0  0  0  0  0  0  0  0  0  0  0
  134.9121  122.6507   61.3721 H   0  0  0  0  0  0  0  0  0  0  0  0
  1  2  2  0
  2  3  1  0
  2  4  1  0
  4  5  1  0
  5  6  1  0
  6  7  1  0
  7  8  2  0
  8  9  1  0
  9 10  1  0
 10 11  1  0
 11 12  1  0
 11 13  2  0
 13 14  1  0
 14 15  1  0
 15 16  2  0
 16 17  1  0
 17 18  2  0
 18 19  1  0
 19 20  1  0
 20 21  2  0
 21 22  1  0
 22 23  2  0
 23 24  1  0
 24 25  2  0
 24 26  1  0
 23 27  1  0
 27 28  2  0
 28 29  1  0
 29 30  2  0
 29 31  1  0
 18 32  1  0
 32 33  2  0
 14 34  1  0
 34 35  2  0
 35 36  1  0
 36 37  1  0
 37 38  1  0
 38 39  1  0
 39 40  2  0
 35  6  1  0
 13  7  1  0
 33 15  1  0
 39 34  1  0
 28 20  1  0
  4 41  1  0
  4 42  1  0
  5 43  1  0
  5 44  1  0
  8 45  1  0
  9 46  1  0
  9 47  1  0
 10 48  1  0
 10 49  1  0
 12 50  1  0
 14 51  1  6
 16 52  1  0
 17 53  1  0
 21 54  1  0
 22 55  1  0
 27 56  1  0
 32 57  1  0
 33 58  1  0
 36 59  1  0
 36 60  1  0
 37 61  1  0
 37 62  1  0
 38 63  1  0
 38 64  1  0
M  CHG  5   3  -1  24   1  26  -1  29   1  31  -1
M  END
>  <Binding energies>  (1) 
[-9.07]

>  <Ligand effiencies>  (1) 
[-0.22121951219512195]

>  <Interactions>  (1) 
["V-B:PRO:540:CA:9855, V-A:GLY:454:CA:4049, V-B:ALA:541:CB:9864, V-B:TYR:539:CE2:9848, V-B:LEU:475:CD2:9230, V-A:ASP:366:CG:3213, V-B:TYR:539:CZ:9849, H-B:TYR:539:OH:9850, V-A:ALA:541:CB:4892, V-A:GLU:543:CD:4908, V-B:PRO:540:CB:9857, H-B:TYR:484:OH:9319, V-A:ILE:369:CD1:3239, V-A:ALA:541:CA:4890, V-B:TYR:539:CD2:9846, V-A:GLU:543:CG:4907, H-A:SER:385:OG:3410, V-A:ASP:366:CB:3212, V-A:LEU:475:CD2:4259, H-A:HIS:383:HE2:3395, H-A:ASN:362:ND2:3179, V-A:PRO:540:CB:4885, V-A:PRO:540:CA:4883, V-B:PRO:540:C:9853"]

$$$$
ZINC409086412
     RDKit          3D

 36 38  0  0  0  0  0  0  0  0999 V2000
  133.9780  125.0820   64.2980 O   0  0  0  0  0  0  0  0  0  0  0  0
  132.8960  124.5070   64.1450 C   0  0  0  0  0  0  0  0  0  0  0  0
  131.7490  124.6290   65.0180 C   0  0  0  0  0  0  0  0  0  0  0  0
  131.7750  125.4190   66.1140 C   0  0  0  0  0  0  0  0  0  0  0  0
  130.6570  125.5830   67.0270 C   0  0  0  0  0  0  0  0  0  0  0  0
  130.5890  126.5790   67.9290 C   0  0  0  0  0  0  0  0  0  0  0  0
  129.5160  126.8210   68.8730 C   0  0  0  0  0  0  0  0  0  0  0  0
  128.1370  126.6820   68.7740 C   0  0  0  0  0  0  0  0  0  0  0  0
  127.5870  127.0600   70.0000 C   0  0  0  0  0  0  0  0  0  0  0  0
  128.6530  127.4170   70.8040 C   0  0  0  0  0  0  0  0  0  0  0  0
  129.8180  127.2730   70.1220 O   0  0  0  0  0  0  0  0  0  0  0  0
  130.4270  123.6280   64.4150 S   0  0  0  0  0  0  0  0  0  0  0  0
  131.3750  123.0820   63.0620 C   0  0  0  0  0  0  0  0  0  0  0  0
  130.7070  122.0180   61.9630 S   0  0  0  0  0  0  0  0  0  0  0  0
  132.6150  123.6630   63.1190 N   0  0  0  0  0  0  0  0  0  0  0  0
  133.6480  123.3870   62.0920 C   0  0  0  0  0  0  0  0  0  0  0  0
  133.1830  123.6020   60.6320 C   0  0  1  0  0  0  0  0  0  0  0  0
  132.5000  124.9420   60.3680 C   0  0  0  0  0  0  0  0  0  0  0  0
  132.7530  125.2130   58.9000 C   0  0  0  0  0  0  0  0  0  0  0  0
  133.9630  124.3410   58.5590 C   0  0  0  0  0  0  0  0  0  0  0  0
  134.3190  123.6850   59.7750 O   0  0  0  0  0  0  0  0  0  0  0  0
  132.7010  125.9727   66.3283 H   0  0  0  0  0  0  0  0  0  0  0  0
  129.8289  124.8605   66.9787 H   0  0  0  0  0  0  0  0  0  0  0  0
  131.4347  127.2820   67.9525 H   0  0  0  0  0  0  0  0  0  0  0  0
  127.5801  126.3369   67.8904 H   0  0  0  0  0  0  0  0  0  0  0  0
  126.5210  127.0714   70.2713 H   0  0  0  0  0  0  0  0  0  0  0  0
  128.5697  127.7665   71.8437 H   0  0  0  0  0  0  0  0  0  0  0  0
  134.5041  124.0516   62.2801 H   0  0  0  0  0  0  0  0  0  0  0  0
  133.8994  122.3201   62.1837 H   0  0  0  0  0  0  0  0  0  0  0  0
  132.4968  122.7611   60.4531 H   0  0  0  0  0  0  0  0  0  0  0  0
  131.4209  124.8752   60.5708 H   0  0  0  0  0  0  0  0  0  0  0  0
  132.8870  125.7435   61.0143 H   0  0  0  0  0  0  0  0  0  0  0  0
  131.8813  124.9243   58.2944 H   0  0  0  0  0  0  0  0  0  0  0  0
  132.9307  126.2787   58.6934 H   0  0  0  0  0  0  0  0  0  0  0  0
  133.6988  123.6026   57.7876 H   0  0  0  0  0  0  0  0  0  0  0  0
  134.7959  124.9389   58.1605 H   0  0  0  0  0  0  0  0  0  0  0  0
  1  2  2  0
  2  3  1  0
  3  4  2  0
  4  5  1  0
  5  6  2  0
  6  7  1  0
  7  8  2  0
  8  9  1  0
  9 10  2  0
 10 11  1  0
  3 12  1  0
 12 13  1  0
 13 14  2  0
 13 15  1  0
 15 16  1  0
 16 17  1  0
 17 18  1  0
 18 19  1  0
 19 20  1  0
 20 21  1  0
 15  2  1  0
 21 17  1  0
 11  7  1  0
  4 22  1  0
  5 23  1  0
  6 24  1  0
  8 25  1  0
  9 26  1  0
 10 27  1  0
 16 28  1  0
 16 29  1  0
 17 30  1  6
 18 31  1  0
 18 32  1  0
 19 33  1  0
 19 34  1  0
 20 35  1  0
 20 36  1  0
M  END
>  <Binding energies>  (1) 
[-6.41]

>  <Ligand effiencies>  (1) 
[-0.30523809523809525]

>  <Interactions>  (1) 
["V-A:ILE:369:CG2:3237, V-A:ASP:366:CA:3210, V-B:GLU:543:C:9874, V-A:ILE:369:CB:3236, V-B:GLU:543:CB:9878, H-A:ARG:545:NH1:4927, V-B:TYR:539:CE2:9848, V-A:ASP:366:CG:3213, V-A:TYR:484:CZ:4347, V-A:GLU:543:CD:4908, V-B:GLU:543:CA:9876, H-A:GLY:454:N:4050, V-B:HIS:456:CE1:9041, V-A:HIS:456:CE1:4070, V-A:ILE:369:CD1:3239, V-A:ASP:366:C:3208, V-B:GLY:544:C:9884, V-A:ASP:366:CB:3212, V-A:LEU:475:CD2:4259, H-A:ARG:545:NH2:4928, V-A:ARG:545:CZ:4926, V-A:GLU:543:CB:4906, H-A:ARG:545:NE:4924, H-A:TYR:484:OH:4348"]

$$$$
ZINC409090966
     RDKit          3D

 81 85  0  0  0  0  0  0  0  0999 V2000
  132.1220  125.5000   66.7520 C   0  0  0  0  0  0  0  0  0  0  0  0
  130.7430  125.0870   67.2750 C   0  0  0  0  0  0  0  0  0  0  0  0
  129.8700  126.2070   67.1750 O   0  0  0  0  0  0  0  0  0  0  0  0
  129.4060  126.6080   65.9350 C   0  0  0  0  0  0  0  0  0  0  0  0
  129.4790  125.8160   64.7760 C   0  0  0  0  0  0  0  0  0  0  0  0
  128.9740  126.2780   63.5530 C   0  0  0  0  0  0  0  0  0  0  0  0
  129.0530  125.4140   62.2770 C   0  0  0  0  0  0  0  0  0  0  0  0
  129.0330  126.2540   60.9750 C   0  0  0  0  0  0  0  0  0  0  0  0
  129.9430  126.0580   59.9770 C   0  0  0  0  0  0  0  0  0  0  0  0
  129.9860  126.9950   58.7450 C   0  0  0  0  0  0  0  0  0  0  0  0
  129.4450  128.4150   59.0710 C   0  0  0  0  0  0  0  0  0  0  0  0
  130.3550  129.1420   60.0980 C   0  0  0  0  0  0  0  0  0  0  0  0
  129.3220  129.2010   57.7470 C   0  0  0  0  0  0  0  0  0  0  0  0
  128.0170  128.2230   59.6390 C   0  0  0  0  0  0  0  0  0  0  0  0
  127.9480  127.2660   60.8410 C   0  0  0  0  0  0  0  0  0  0  0  0
  126.9340  127.2340   61.5370 O   0  0  0  0  0  0  0  0  0  0  0  0
  130.9300  125.0650   60.0790 N   0  0  0  0  0  0  0  0  0  0  0  0
  131.5740  124.5920   58.8280 C   0  0  0  0  0  0  0  0  0  0  0  0
  133.1120  124.6020   58.6810 C   0  0  0  0  0  0  0  0  0  0  0  0
  133.7580  125.0970   59.6310 O   0  0  0  0  0  0  0  0  0  0  0  0
  133.6280  124.1240   57.6440 O   0  0  0  0  0  0  0  0  0  0  0  0
  131.0940  124.2940   61.2390 C   0  0  0  0  0  0  0  0  0  0  0  0
  130.2370  124.4140   62.2930 C   0  0  0  0  0  0  0  0  0  0  0  0
  130.3770  123.5550   63.5020 C   0  0  0  0  0  0  0  0  0  0  0  0
  129.4560  123.3900   64.3020 O   0  0  0  0  0  0  0  0  0  0  0  0
  131.6340  122.6750   63.6050 C   0  0  0  0  0  0  0  0  0  0  0  0
  132.8380  123.2030   62.7880 C   0  0  0  0  0  0  0  0  0  0  0  0
  133.3540  124.5460   63.3730 C   0  0  0  0  0  0  0  0  0  0  0  0
  133.9290  122.1100   62.7970 C   0  0  0  0  0  0  0  0  0  0  0  0
  132.3400  123.3800   61.3260 C   0  0  0  0  0  0  0  0  0  0  0  0
  128.3850  127.5450   63.4950 C   0  0  0  0  0  0  0  0  0  0  0  0
  128.3100  128.3400   64.6350 C   0  0  0  0  0  0  0  0  0  0  0  0
  128.8270  127.8830   65.8480 C   0  0  0  0  0  0  0  0  0  0  0  0
  128.7330  128.6990   66.9520 O   0  0  0  0  0  0  0  0  0  0  0  0
  128.7920  128.1250   68.2030 C   0  0  0  0  0  0  0  0  0  0  0  0
  130.0000  128.1180   68.9110 C   0  0  0  0  0  0  0  0  0  0  0  0
  130.0780  127.5380   70.1740 C   0  0  0  0  0  0  0  0  0  0  0  0
  128.9490  126.9550   70.7560 C   0  0  0  0  0  0  0  0  0  0  0  0
  129.0240  126.3050   72.1360 C   0  0  0  0  0  0  0  0  0  0  0  0
  128.1330  126.8480   72.9670 F   0  0  0  0  0  0  0  0  0  0  0  0
  128.7880  124.9930   72.0820 F   0  0  0  0  0  0  0  0  0  0  0  0
  130.2440  126.4930   72.6380 F   0  0  0  0  0  0  0  0  0  0  0  0
  127.7400  126.9680   70.0510 C   0  0  0  0  0  0  0  0  0  0  0  0
  127.6420  127.5520   68.7780 C   0  0  0  0  0  0  0  0  0  0  0  0
  126.3410  127.5400   68.0700 N   0  0  0  0  0  0  0  0  0  0  0  0
  125.5340  126.6620   68.3600 O   0  0  0  0  0  0  0  0  0  0  0  0
  126.1100  128.4150   67.2410 O   0  0  0  0  0  0  0  0  0  0  0  0
  132.7914  125.7005   67.6015 H   0  0  0  0  0  0  0  0  0  0  0  0
  132.5402  124.6877   66.1394 H   0  0  0  0  0  0  0  0  0  0  0  0
  132.0248  126.4085   66.1394 H   0  0  0  0  0  0  0  0  0  0  0  0
  130.3507  124.2553   66.6714 H   0  0  0  0  0  0  0  0  0  0  0  0
  130.8188  124.7595   68.3224 H   0  0  0  0  0  0  0  0  0  0  0  0
  129.9395  124.8185   64.8297 H   0  0  0  0  0  0  0  0  0  0  0  0
  128.1319  124.8127   62.2809 H   0  0  0  0  0  0  0  0  0  0  0  0
  131.0275  127.0824   58.4021 H   0  0  0  0  0  0  0  0  0  0  0  0
  129.3442  126.5589   57.9653 H   0  0  0  0  0  0  0  0  0  0  0  0
  130.0340  128.8855   61.1184 H   0  0  0  0  0  0  0  0  0  0  0  0
  131.3984  128.8260   59.9516 H   0  0  0  0  0  0  0  0  0  0  0  0
  130.2772  130.2294   59.9516 H   0  0  0  0  0  0  0  0  0  0  0  0
  129.1554  130.2658   57.9669 H   0  0  0  0  0  0  0  0  0  0  0  0
  130.2489  129.0873   57.1656 H   0  0  0  0  0  0  0  0  0  0  0  0
  128.4742  128.8096   57.1656 H   0  0  0  0  0  0  0  0  0  0  0  0
  127.6353  129.2049   59.9556 H   0  0  0  0  0  0  0  0  0  0  0  0
  127.4124  127.7733   58.8376 H   0  0  0  0  0  0  0  0  0  0  0  0
  131.2511  123.5506   58.6825 H   0  0  0  0  0  0  0  0  0  0  0  0
  131.2517  125.3394   58.0881 H   0  0  0  0  0  0  0  0  0  0  0  0
  131.9313  122.6182   64.6625 H   0  0  0  0  0  0  0  0  0  0  0  0
  131.3708  121.6922   63.1869 H   0  0  0  0  0  0  0  0  0  0  0  0
  133.3357  124.4984   64.4718 H   0  0  0  0  0  0  0  0  0  0  0  0
  134.3843  124.7233   63.0308 H   0  0  0  0  0  0  0  0  0  0  0  0
  132.7075  125.3675   63.0308 H   0  0  0  0  0  0  0  0  0  0  0  0
  134.1838  121.8548   63.8362 H   0  0  0  0  0  0  0  0  0  0  0  0
  133.5545  121.2139   62.2806 H   0  0  0  0  0  0  0  0  0  0  0  0
  134.8258  122.4829   62.2806 H   0  0  0  0  0  0  0  0  0  0  0  0
  133.1486  123.8256   60.7279 H   0  0  0  0  0  0  0  0  0  0  0  0
  132.0584  122.3881   60.9429 H   0  0  0  0  0  0  0  0  0  0  0  0
  127.9784  127.9156   62.5425 H   0  0  0  0  0  0  0  0  0  0  0  0
  127.8409  129.3334   64.5796 H   0  0  0  0  0  0  0  0  0  0  0  0
  130.8957  128.5751   68.4650 H   0  0  0  0  0  0  0  0  0  0  0  0
  131.0344  127.5385   70.7175 H   0  0  0  0  0  0  0  0  0  0  0  0
  126.8478  126.5110   70.5038 H   0  0  0  0  0  0  0  0  0  0  0  0
  1  2  1  0
  2  3  1  0
  3  4  1  0
  4  5  2  0
  5  6  1  0
  6  7  1  0
  7  8  1  0
  8  9  2  0
  9 10  1  0
 10 11  1  0
 11 12  1  0
 11 13  1  0
 11 14  1  0
 14 15  1  0
 15 16  2  0
  9 17  1  0
 17 18  1  0
 18 19  1  0
 19 20  2  0
 19 21  1  0
 17 22  1  0
 22 23  2  0
 23 24  1  0
 24 25  2  0
 24 26  1  0
 26 27  1  0
 27 28  1  0
 27 29  1  0
 27 30  1  0
  6 31  2  0
 31 32  1  0
 32 33  2  0
 33 34  1  0
 34 35  1  0
 35 36  2  0
 36 37  1  0
 37 38  2  0
 38 39  1  0
 39 40  1  0
 39 41  1  0
 39 42  1  0
 38 43  1  0
 43 44  2  0
 44 45  1  0
 45 46  2  0
 45 47  1  0
 33  4  1  0
 44 35  1  0
 23  7  1  0
 15  8  1  0
 30 22  1  0
  1 48  1  0
  1 49  1  0
  1 50  1  0
  2 51  1  0
  2 52  1  0
  5 53  1  0
  7 54  1  0
 10 55  1  0
 10 56  1  0
 12 57  1  0
 12 58  1  0
 12 59  1  0
 13 60  1  0
 13 61  1  0
 13 62  1  0
 14 63  1  0
 14 64  1  0
 18 65  1  0
 18 66  1  0
 26 67  1  0
 26 68  1  0
 28 69  1  0
 28 70  1  0
 28 71  1  0
 29 72  1  0
 29 73  1  0
 29 74  1  0
 30 75  1  0
 30 76  1  0
 31 77  1  0
 32 78  1  0
 36 79  1  0
 37 80  1  0
 43 81  1  0
M  CHG  3  21  -1  45   1  47  -1
M  END
>  <Binding energies>  (1) 
[-6.36]

>  <Ligand effiencies>  (1) 
[-0.13531914893617022]

>  <Interactions>  (1) 
["V-A:ASP:366:CA:3210, V-A:GLU:543:CA:4904, V-A:GLY:454:CA:4049, V-B:GLU:543:C:9874, V-A:GLU:543:C:4902, V-B:GLU:543:CB:9878, V-B:TYR:539:CE2:9848, V-A:TYR:484:CE2:4346, V-B:GLU:543:CG:9879, V-A:HIS:456:CD2:4068, H-B:HIS:456:ND1:9038, V-B:TYR:539:CZ:9849, H-A:ASN:370:N:3244, H-B:TYR:539:OH:9850, H-B:ARG:545:N:9892, V-B:ARG:545:CG:9894, V-B:LYS:547:CE:9922, V-A:GLU:543:CD:4908, V-A:TYR:484:CZ:4347, H-B:TYR:484:OH:9319, V-B:HIS:456:CE1:9041, V-A:ARG:545:CG:4922, V-A:HIS:456:CE1:4070, V-B:GLY:544:CA:9886, V-A:GLU:543:CG:4907, V-B:GLU:543:CD:9880, V-A:ASP:366:CB:3212, V-A:LEU:475:CD2:4259, V-A:ARG:545:CZ:4926, H-B:ARG:545:NH2:9900, V-A:GLU:543:CB:4906, V-A:HIS:456:CG:4066"]

$$$$
ZINC409098142
     RDKit          3D

 49 51  0  0  0  0  0  0  0  0999 V2000
  131.0160  122.8890   64.4680 C   0  0  0  0  0  0  0  0  0  0  0  0
  129.8190  123.1620   65.3830 C   0  0  0  0  0  0  0  0  0  0  0  0
  130.0270  124.4070   66.0410 O   0  0  0  0  0  0  0  0  0  0  0  0
  129.5830  125.5780   65.4520 C   0  0  0  0  0  0  0  0  0  0  0  0
  129.6040  125.8190   64.0670 C   0  0  0  0  0  0  0  0  0  0  0  0
  129.1460  127.0310   63.5410 C   0  0  0  0  0  0  0  0  0  0  0  0
  129.1670  127.2720   62.0350 C   0  0  0  0  0  0  0  0  0  0  0  0
  130.0910  126.3730   61.3770 N   0  0  0  0  0  0  0  0  0  0  0  0
  131.3040  126.6960   61.5400 N   0  0  0  0  0  0  0  0  0  0  0  0
  132.1680  125.8100   60.8900 C   0  0  0  0  0  0  0  0  0  0  0  0
  132.0410  125.7700   59.5310 N   0  0  0  0  0  0  0  0  0  0  0  0
  132.8790  124.9830   58.8150 C   0  0  0  0  0  0  0  0  0  0  0  0
  133.8810  124.2190   59.4050 C   0  0  0  0  0  0  0  0  0  0  0  0
  134.0220  124.2690   60.7900 C   0  0  0  0  0  0  0  0  0  0  0  0
  133.1660  125.0690   61.5620 C   0  0  0  0  0  0  0  0  0  0  0  0
  133.3340  125.1070   63.0330 N   0  0  0  0  0  0  0  0  0  0  0  0
  132.4080  125.5180   63.7260 O   0  0  0  0  0  0  0  0  0  0  0  0
  134.3930  124.7010   63.5010 O   0  0  0  0  0  0  0  0  0  0  0  0
  128.6530  128.0100   64.4080 C   0  0  0  0  0  0  0  0  0  0  0  0
  128.6290  127.7870   65.7830 C   0  0  0  0  0  0  0  0  0  0  0  0
  127.9600  129.1490   66.9380 Br  0  0  0  0  0  0  0  0  0  0  0  0
  129.0880  126.5750   66.3060 C   0  0  0  0  0  0  0  0  0  0  0  0
  129.0650  126.3740   67.6650 O   0  0  0  0  0  0  0  0  0  0  0  0
  130.1570  126.9550   68.3670 C   0  0  0  0  0  0  0  0  0  0  0  0
  129.6910  127.3490   69.7560 C   0  0  0  0  0  0  0  0  0  0  0  0
  130.5520  128.0530   70.6020 C   0  0  0  0  0  0  0  0  0  0  0  0
  130.1330  128.4060   71.8810 C   0  0  0  0  0  0  0  0  0  0  0  0
  128.8550  128.0540   72.3120 C   0  0  0  0  0  0  0  0  0  0  0  0
  128.3370  128.4920   73.9000 Cl  0  0  0  0  0  0  0  0  0  0  0  0
  127.9920  127.3510   71.4720 C   0  0  0  0  0  0  0  0  0  0  0  0
  128.4110  126.9960   70.1930 C   0  0  0  0  0  0  0  0  0  0  0  0
  131.9069  122.6858   65.0804 H   0  0  0  0  0  0  0  0  0  0  0  0
  130.8008  122.0169   63.8331 H   0  0  0  0  0  0  0  0  0  0  0  0
  131.2002  123.7682   63.8331 H   0  0  0  0  0  0  0  0  0  0  0  0
  128.8974  123.2084   64.7842 H   0  0  0  0  0  0  0  0  0  0  0  0
  129.7207  122.3559   66.1249 H   0  0  0  0  0  0  0  0  0  0  0  0
  129.9862  125.0430   63.3874 H   0  0  0  0  0  0  0  0  0  0  0  0
  128.1571  127.1085   61.6308 H   0  0  0  0  0  0  0  0  0  0  0  0
  129.4941  128.3060   61.8508 H   0  0  0  0  0  0  0  0  0  0  0  0
  132.7626  124.9463   57.7218 H   0  0  0  0  0  0  0  0  0  0  0  0
  134.5453  123.5911   58.7931 H   0  0  0  0  0  0  0  0  0  0  0  0
  134.8089  123.6779   61.2812 H   0  0  0  0  0  0  0  0  0  0  0  0
  128.2816  128.9626   64.0022 H   0  0  0  0  0  0  0  0  0  0  0  0
  130.9765  126.2254   68.4451 H   0  0  0  0  0  0  0  0  0  0  0  0
  130.5179  127.8433   67.8278 H   0  0  0  0  0  0  0  0  0  0  0  0
  131.5598  128.3278   70.2572 H   0  0  0  0  0  0  0  0  0  0  0  0
  130.8078  128.9608   72.5495 H   0  0  0  0  0  0  0  0  0  0  0  0
  126.9844  127.0782   71.8187 H   0  0  0  0  0  0  0  0  0  0  0  0
  127.7359  126.4385   69.5271 H   0  0  0  0  0  0  0  0  0  0  0  0
  1  2  1  0
  2  3  1  0
  3  4  1  0
  4  5  2  0
  5  6  1  0
  6  7  1  0
  7  8  1  0
  8  9  2  0
  9 10  1  0
 10 11  2  0
 11 12  1  0
 12 13  2  0
 13 14  1  0
 14 15  2  0
 15 16  1  0
 16 17  2  0
 16 18  1  0
  6 19  2  0
 19 20  1  0
 20 21  1  0
 20 22  2  0
 22 23  1  0
 23 24  1  0
 24 25  1  0
 25 26  2  0
 26 27  1  0
 27 28  2  0
 28 29  1  0
 28 30  1  0
 30 31  2  0
 22  4  1  0
 31 25  1  0
 15 10  1  0
  1 32  1  0
  1 33  1  0
  1 34  1  0
  2 35  1  0
  2 36  1  0
  5 37  1  0
  7 38  1  0
  7 39  1  0
 12 40  1  0
 13 41  1  0
 14 42  1  0
 19 43  1  0
 24 44  1  0
 24 45  1  0
 26 46  1  0
 27 47  1  0
 30 48  1  0
 31 49  1  0
M  CHG  2  16   1  18  -1
M  END
>  <Binding energies>  (1) 
[-7.05]

>  <Ligand effiencies>  (1) 
[-0.22741935483870968]

>  <Interactions>  (1) 
["V-A:ILE:369:CG2:3237, V-A:ASP:366:CA:3210, V-B:GLU:543:C:9874, V-B:HIS:456:CD2:9039, V-A:GLU:543:C:4902, V-A:ILE:369:CB:3236, V-B:GLU:543:CB:9878, H-A:ARG:545:NH1:4927, V-A:TYR:484:CE2:4346, V-B:TYR:539:CE2:9848, V-B:GLU:543:CG:9879, V-A:GLY:544:C:4912, V-A:ASP:366:CG:3213, V-A:GLU:543:CD:4908, V-A:TYR:484:CZ:4347, V-B:HIS:456:CE1:9041, H-A:GLY:454:N:4050, V-B:TYR:484:CZ:9318, V-A:HIS:456:CE1:4070, V-A:ILE:369:CD1:3239, V-A:GLU:543:CG:4907, V-B:GLU:543:CD:9880, V-A:ASP:366:CB:3212, V-A:LEU:475:CD2:4259, H-A:ARG:545:NH2:4928, V-A:ARG:545:CZ:4926, V-A:GLU:543:CB:4906, H-A:TYR:484:OH:4348"]

$$$$
ZINC409124951-again1
     RDKit          3D

 43 45  0  0  0  0  0  0  0  0999 V2000
  133.6760  124.0740   58.3940 C   0  0  0  0  0  0  0  0  0  0  0  0
  133.0070  125.0510   58.6910 C   0  0  0  0  0  0  0  0  0  0  0  0
  132.1740  126.2050   59.0650 C   0  0  0  0  0  0  0  0  0  0  0  0
  131.0170  125.7900   59.7770 O   0  0  0  0  0  0  0  0  0  0  0  0
  130.0190  125.0780   59.1380 C   0  0  0  0  0  0  0  0  0  0  0  0
  129.6370  125.3040   57.8050 C   0  0  0  0  0  0  0  0  0  0  0  0
  128.6140  124.5580   57.2220 C   0  0  0  0  0  0  0  0  0  0  0  0
  127.9600  123.5760   57.9600 C   0  0  0  0  0  0  0  0  0  0  0  0
  126.5640  122.5580   57.1640 Br  0  0  0  0  0  0  0  0  0  0  0  0
  128.3300  123.3380   59.2820 C   0  0  0  0  0  0  0  0  0  0  0  0
  129.3580  124.0790   59.8800 C   0  0  0  0  0  0  0  0  0  0  0  0
  129.7430  123.7930   61.3410 C   0  0  2  0  0  0  0  0  0  0  0  0
  129.8730  125.0750   62.1790 C   0  0  0  0  0  0  0  0  0  0  0  0
  128.7580  125.9720   62.1550 C   0  0  0  0  0  0  0  0  0  0  0  0
  127.8510  126.6910   62.1220 N   0  0  0  0  0  0  0  0  0  0  0  0
  130.9920  125.4070   62.8650 C   0  0  0  0  0  0  0  0  0  0  0  0
  131.1140  126.5970   63.5510 N   0  0  0  0  0  0  0  0  0  0  0  0
  132.1130  124.5760   62.9210 N   0  0  0  0  0  0  0  0  0  0  0  0
  133.0910  124.7090   64.0160 C   0  0  0  0  0  0  0  0  0  0  0  0
  132.2270  123.4910   62.0540 C   0  0  0  0  0  0  0  0  0  0  0  0
  133.4360  122.9670   61.7240 C   0  0  0  0  0  0  0  0  0  0  0  0
  133.5890  121.6920   60.9010 C   0  0  0  0  0  0  0  0  0  0  0  0
  132.3560  120.7710   61.1080 C   0  0  0  0  0  0  0  0  0  0  0  0
  131.0740  121.6110   61.0390 C   0  0  0  0  0  0  0  0  0  0  0  0
  130.0950  120.9510   60.5160 O   0  0  0  0  0  0  0  0  0  0  0  0
  131.0020  122.8950   61.4920 C   0  0  0  0  0  0  0  0  0  0  0  0
  134.2788  123.1937   58.1264 H   0  0  0  0  0  0  0  0  0  0  0  0
  132.7631  126.8827   59.7003 H   0  0  0  0  0  0  0  0  0  0  0  0
  131.8540  126.7179   58.1460 H   0  0  0  0  0  0  0  0  0  0  0  0
  130.1505  126.0777   57.2153 H   0  0  0  0  0  0  0  0  0  0  0  0
  128.3234  124.7456   56.1778 H   0  0  0  0  0  0  0  0  0  0  0  0
  127.8102  122.5610   59.8618 H   0  0  0  0  0  0  0  0  0  0  0  0
  128.8990  123.2140   61.7440 H   0  0  0  0  0  0  0  0  0  0  0  0
  131.3330  126.6100   64.5370 H   0  0  0  0  0  0  0  0  0  0  0  0
  130.9740  127.4840   63.0870 H   0  0  0  0  0  0  0  0  0  0  0  0
  132.5709  124.6383   64.9827 H   0  0  0  0  0  0  0  0  0  0  0  0
  133.8369  123.9040   63.9412 H   0  0  0  0  0  0  0  0  0  0  0  0
  133.5949  125.6839   63.9412 H   0  0  0  0  0  0  0  0  0  0  0  0
  134.3445  123.4849   62.0653 H   0  0  0  0  0  0  0  0  0  0  0  0
  133.6722  121.9544   59.8360 H   0  0  0  0  0  0  0  0  0  0  0  0
  134.4945  121.1596   61.2276 H   0  0  0  0  0  0  0  0  0  0  0  0
  132.3348  120.0038   60.3200 H   0  0  0  0  0  0  0  0  0  0  0  0
  132.4230  120.2836   62.0919 H   0  0  0  0  0  0  0  0  0  0  0  0
  1  2  3  0
  2  3  1  0
  3  4  1  0
  4  5  1  0
  5  6  2  0
  6  7  1  0
  7  8  2  0
  8  9  1  0
  8 10  1  0
 10 11  2  0
 11 12  1  0
 12 13  1  0
 13 14  1  0
 14 15  3  0
 13 16  2  0
 16 17  1  0
 16 18  1  0
 18 19  1  0
 18 20  1  0
 20 21  2  0
 21 22  1  0
 22 23  1  0
 23 24  1  0
 24 25  1  0
 24 26  2  0
 11  5  1  0
 26 12  1  0
 26 20  1  0
  1 27  1  0
  3 28  1  0
  3 29  1  0
  6 30  1  0
  7 31  1  0
 10 32  1  0
 12 33  1  1
 17 34  1  0
 17 35  1  0
 19 36  1  0
 19 37  1  0
 19 38  1  0
 21 39  1  0
 22 40  1  0
 22 41  1  0
 23 42  1  0
 23 43  1  0
M  CHG  1  25  -1
M  END
>  <Binding energies>  (1) 
[-6.29]

>  <Ligand effiencies>  (1) 
[-0.22464285714285714]

>  <Interactions>  (1) 
["V-A:ILE:369:CG2:3237, V-A:ASP:366:CA:3210, V-B:PRO:540:CA:9855, H-A:GLU:543:OE2:4910, V-A:ILE:369:CB:3236, V-B:TYR:539:CE2:9848, V-B:TYR:539:C:9839, V-A:ASP:366:CG:3213, V-B:TYR:539:CZ:9849, V-A:GLU:543:CD:4908, V-B:PRO:540:CB:9857, V-B:PRO:540:N:9856, V-A:ILE:369:CD1:3239, V-A:ASP:366:C:3208, V-B:PRO:540:CD:9859, V-B:TYR:539:CD2:9846, V-B:GLU:543:CD:9880, V-A:ASP:366:CB:3212, V-A:LEU:475:CD2:4259, V-A:ARG:545:CZ:4926, H-A:GLU:543:OE1:4909"]

$$$$
ZINC409133870-again1
     RDKit          3D

 71 74  0  0  0  0  0  0  0  0999 V2000
  129.9120  124.6570   64.2230 C   0  0  0  0  0  0  0  0  0  0  0  0
  129.4540  125.7640   63.2690 C   0  0  0  0  0  0  0  0  0  0  0  0
  128.8590  125.1600   62.1250 O   0  0  0  0  0  0  0  0  0  0  0  0
  128.1710  125.9440   61.2160 C   0  0  0  0  0  0  0  0  0  0  0  0
  128.2330  127.3470   61.1860 C   0  0  0  0  0  0  0  0  0  0  0  0
  127.5060  128.0790   60.2410 C   0  0  0  0  0  0  0  0  0  0  0  0
  127.5850  129.6090   60.2170 C   0  0  1  0  0  0  0  0  0  0  0  0
  127.7700  130.1860   61.6260 C   0  0  0  0  0  0  0  0  0  0  0  0
  126.6840  130.0300   62.5420 C   0  0  0  0  0  0  0  0  0  0  0  0
  125.7980  129.8850   63.2740 N   0  0  0  0  0  0  0  0  0  0  0  0
  128.9170  130.7860   62.0200 C   0  0  0  0  0  0  0  0  0  0  0  0
  129.1050  131.2860   63.2870 N   0  0  0  0  0  0  0  0  0  0  0  0
  129.9870  130.9790   61.1470 N   0  0  0  0  0  0  0  0  0  0  0  0
  131.3780  130.7780   61.6020 C   0  0  0  0  0  0  0  0  0  0  0  0
  131.9260  131.8200   62.6010 C   0  0  0  0  0  0  0  0  0  0  0  0
  132.9620  132.5950   62.0160 O   0  0  0  0  0  0  0  0  0  0  0  0
  133.8490  131.8400   61.2050 C   0  0  0  0  0  0  0  0  0  0  0  0
  129.7460  130.9980   59.7750 C   0  0  0  0  0  0  0  0  0  0  0  0
  130.4960  131.7680   58.9480 C   0  0  0  0  0  0  0  0  0  0  0  0
  130.3070  131.8440   57.4290 C   0  0  0  0  0  0  0  0  0  0  0  0
  131.7010  132.0220   56.7870 C   0  0  0  0  0  0  0  0  0  0  0  0
  129.3500  133.0210   57.1370 C   0  0  0  0  0  0  0  0  0  0  0  0
  129.6860  130.5000   56.9230 C   0  0  0  0  0  0  0  0  0  0  0  0
  128.6040  129.9850   57.8850 C   0  0  0  0  0  0  0  0  0  0  0  0
  127.7020  129.3040   57.2630 O   0  0  0  0  0  0  0  0  0  0  0  0
  128.6400  130.1880   59.2310 C   0  0  0  0  0  0  0  0  0  0  0  0
  126.7100  127.4000   59.3150 C   0  0  0  0  0  0  0  0  0  0  0  0
  126.6370  126.0080   59.3330 C   0  0  0  0  0  0  0  0  0  0  0  0
  125.4170  125.0390   57.9340 I   0  0  0  0  0  0  0  0  0  0  0  0
  127.3690  125.2800   60.2770 C   0  0  0  0  0  0  0  0  0  0  0  0
  127.2860  123.9090   60.2950 O   0  0  0  0  0  0  0  0  0  0  0  0
  128.2020  123.2500   59.4220 C   0  0  0  0  0  0  0  0  0  0  0  0
  129.4990  122.8890   60.1400 C   0  0  0  0  0  0  0  0  0  0  0  0
  129.5430  121.7090   60.8870 C   0  0  0  0  0  0  0  0  0  0  0  0
  130.7110  121.3450   61.5530 C   0  0  0  0  0  0  0  0  0  0  0  0
  131.8350  122.1640   61.4740 C   0  0  0  0  0  0  0  0  0  0  0  0
  132.9690  121.8100   62.1190 F   0  0  0  0  0  0  0  0  0  0  0  0
  131.7990  123.3460   60.7360 C   0  0  0  0  0  0  0  0  0  0  0  0
  130.6320  123.7100   60.0700 C   0  0  0  0  0  0  0  0  0  0  0  0
  129.7747  124.9889   65.2627 H   0  0  0  0  0  0  0  0  0  0  0  0
  129.3152  123.7501   64.0458 H   0  0  0  0  0  0  0  0  0  0  0  0
  130.9751  124.4368   64.0458 H   0  0  0  0  0  0  0  0  0  0  0  0
  128.7179  126.4071   63.7736 H   0  0  0  0  0  0  0  0  0  0  0  0
  130.3145  126.3782   62.9651 H   0  0  0  0  0  0  0  0  0  0  0  0
  128.8621  127.8777   61.9158 H   0  0  0  0  0  0  0  0  0  0  0  0
  126.6104  129.9353   59.8250 H   0  0  0  0  0  0  0  0  0  0  0  0
  129.8580  130.9500   63.8720 H   0  0  0  0  0  0  0  0  0  0  0  0
  128.4800  131.9780   63.6730 H   0  0  0  0  0  0  0  0  0  0  0  0
  131.4344  129.7902   62.0827 H   0  0  0  0  0  0  0  0  0  0  0  0
  132.0000  130.8792   60.7004 H   0  0  0  0  0  0  0  0  0  0  0  0
  131.1077  132.4879   62.9082 H   0  0  0  0  0  0  0  0  0  0  0  0
  132.3377  131.2868   63.4706 H   0  0  0  0  0  0  0  0  0  0  0  0
  134.5294  131.2609   61.8466 H   0  0  0  0  0  0  0  0  0  0  0  0
  133.2704  131.1531   60.5699 H   0  0  0  0  0  0  0  0  0  0  0  0
  134.4347  132.5209   60.5699 H   0  0  0  0  0  0  0  0  0  0  0  0
  131.2930  132.3786   59.3974 H   0  0  0  0  0  0  0  0  0  0  0  0
  132.4593  132.1188   57.5780 H   0  0  0  0  0  0  0  0  0  0  0  0
  131.9319  131.1460   56.1630 H   0  0  0  0  0  0  0  0  0  0  0  0
  131.7043  132.9279   56.1630 H   0  0  0  0  0  0  0  0  0  0  0  0
  128.9992  133.4525   58.0861 H   0  0  0  0  0  0  0  0  0  0  0  0
  129.8815  133.7909   56.5585 H   0  0  0  0  0  0  0  0  0  0  0  0
  128.4878  132.6577   56.5585 H   0  0  0  0  0  0  0  0  0  0  0  0
  129.2358  130.6642   55.9329 H   0  0  0  0  0  0  0  0  0  0  0  0
  130.4867  129.7478   56.8679 H   0  0  0  0  0  0  0  0  0  0  0  0
  126.1372  127.9676   58.5668 H   0  0  0  0  0  0  0  0  0  0  0  0
  127.7349  122.3289   59.0434 H   0  0  0  0  0  0  0  0  0  0  0  0
  128.4443  123.9348   58.5960 H   0  0  0  0  0  0  0  0  0  0  0  0
  128.6529  121.0657   60.9493 H   0  0  0  0  0  0  0  0  0  0  0  0
  130.7456  120.4147   62.1389 H   0  0  0  0  0  0  0  0  0  0  0  0
  132.6898  123.9890   60.6801 H   0  0  0  0  0  0  0  0  0  0  0  0
  130.5995  124.6430   59.4883 H   0  0  0  0  0  0  0  0  0  0  0  0
  1  2  1  0
  2  3  1  0
  3  4  1  0
  4  5  2  0
  5  6  1  0
  6  7  1  0
  7  8  1  0
  8  9  1  0
  9 10  3  0
  8 11  2  0
 11 12  1  0
 11 13  1  0
 13 14  1  0
 14 15  1  0
 15 16  1  0
 16 17  1  0
 13 18  1  0
 18 19  2  0
 19 20  1  0
 20 21  1  0
 20 22  1  0
 20 23  1  0
 23 24  1  0
 24 25  1  0
 24 26  2  0
  6 27  2  0
 27 28  1  0
 28 29  1  0
 28 30  2  0
 30 31  1  0
 31 32  1  0
 32 33  1  0
 33 34  2  0
 34 35  1  0
 35 36  2  0
 36 37  1  0
 36 38  1  0
 38 39  2  0
 30  4  1  0
 39 33  1  0
 26  7  1  0
 26 18  1  0
  1 40  1  0
  1 41  1  0
  1 42  1  0
  2 43  1  0
  2 44  1  0
  5 45  1  0
  7 46  1  6
 12 47  1  0
 12 48  1  0
 14 49  1  0
 14 50  1  0
 15 51  1  0
 15 52  1  0
 17 53  1  0
 17 54  1  0
 17 55  1  0
 19 56  1  0
 21 57  1  0
 21 58  1  0
 21 59  1  0
 22 60  1  0
 22 61  1  0
 22 62  1  0
 23 63  1  0
 23 64  1  0
 27 65  1  0
 32 66  1  0
 32 67  1  0
 34 68  1  0
 35 69  1  0
 38 70  1  0
 39 71  1  0
M  CHG  1  25  -1
M  END
>  <Binding energies>  (1) 
[-6.17]

>  <Ligand effiencies>  (1) 
[-0.15048780487804878]

>  <Interactions>  (1) 
["V-B:PRO:540:CA:9855, V-A:ALA:541:C:4888, H-A:ALA:541:N:4891, V-B:TYR:539:CE2:9848, V-B:GLU:543:CG:9879, V-A:ASN:362:CB:3176, V-A:LEU:363:CD1:3189, V-A:TYR:539:CD1:4873, V-B:TYR:531:CE2:9765, V-A:GLU:543:CD:4908, V-A:ALA:541:CA:4890, V-B:TYR:539:CD2:9846, V-A:GLU:543:CG:4907, V-A:MET:535:CE:4835, V-B:GLU:543:CD:9880, V-A:TYR:539:C:4867, H-B:TYR:531:OH:9767, V-A:LEU:475:CD2:4259, V-A:ASN:362:C:3172, H-A:GLU:543:OE1:4909, V-A:PRO:540:N:4884, V-A:PRO:540:CB:4885, V-A:PRO:540:CA:4883, V-A:LEU:363:CA:3185"]

$$$$
ZINC409143105
     RDKit          3D

 59 62  0  0  0  0  0  0  0  0999 V2000
  128.6580  124.4530   56.7030 C   0  0  0  0  0  0  0  0  0  0  0  0
  129.0960  125.8580   57.0770 C   0  0  0  0  0  0  0  0  0  0  0  0
  128.3920  126.9600   56.5910 C   0  0  0  0  0  0  0  0  0  0  0  0
  128.7870  128.2480   56.9420 C   0  0  0  0  0  0  0  0  0  0  0  0
  129.8870  128.4520   57.7880 C   0  0  0  0  0  0  0  0  0  0  0  0
  130.3060  129.8620   58.1450 C   0  0  0  0  0  0  0  0  0  0  0  0
  129.8450  130.8300   57.5360 O   0  0  0  0  0  0  0  0  0  0  0  0
  131.1720  129.9870   59.1720 N   0  0  0  0  0  0  0  0  0  0  0  0
  131.8100  131.2300   59.6130 C   0  0  1  0  0  0  0  0  0  0  0  0
  131.9130  132.2100   58.4300 C   0  0  0  0  0  0  0  0  0  0  0  0
  131.0250  131.8390   60.7750 C   0  0  0  0  0  0  0  0  0  0  0  0
  131.4250  131.8280   62.0240 N   0  0  0  0  0  0  0  0  0  0  0  0
  130.4780  132.5200   62.7700 N   0  0  0  0  0  0  0  0  0  0  0  0
  129.5230  132.8900   61.9530 C   0  0  0  0  0  0  0  0  0  0  0  0
  128.1410  133.8600   62.4610 S   0  0  0  0  0  0  0  0  0  0  0  0
  126.8560  132.5610   62.3980 C   0  0  0  0  0  0  0  0  0  0  0  0
  127.4280  131.2050   62.8330 C   0  0  0  0  0  0  0  0  0  0  0  0
  127.8780  130.4940   61.9140 O   0  0  0  0  0  0  0  0  0  0  0  0
  127.3380  131.0130   64.1040 N   0  0  0  0  0  0  0  0  0  0  0  0
  127.8050  129.9150   64.7770 C   0  0  0  0  0  0  0  0  0  0  0  0
  127.7970  129.6590   66.0700 N   0  0  0  0  0  0  0  0  0  0  0  0
  128.3060  128.4790   66.3940 C   0  0  0  0  0  0  0  0  0  0  0  0
  128.3780  128.0490   67.8320 C   0  0  0  0  0  0  0  0  0  0  0  0
  127.3150  127.3430   68.4100 C   0  0  0  0  0  0  0  0  0  0  0  0
  127.3670  126.9390   69.7410 C   0  0  0  0  0  0  0  0  0  0  0  0
  128.4850  127.2330   70.5180 C   0  0  0  0  0  0  0  0  0  0  0  0
  129.5690  127.9370   69.9740 C   0  0  0  0  0  0  0  0  0  0  0  0
  130.7600  128.2540   70.8000 N   0  0  0  0  0  0  0  0  0  0  0  0
  131.8740  128.0010   70.3500 O   0  0  0  0  0  0  0  0  0  0  0  0
  130.5890  128.7600   71.9060 O   0  0  0  0  0  0  0  0  0  0  0  0
  129.4990  128.3360   68.6290 C   0  0  0  0  0  0  0  0  0  0  0  0
  128.7290  127.7370   65.2860 C   0  0  0  0  0  0  0  0  0  0  0  0
  128.4480  128.6240   63.8210 S   0  0  0  0  0  0  0  0  0  0  0  0
  129.8210  132.5070   60.6600 N   0  0  0  0  0  0  0  0  0  0  0  0
  129.0640  132.7910   59.4460 C   0  0  0  0  0  0  0  0  0  0  0  0
  130.5850  127.3340   58.2720 C   0  0  0  0  0  0  0  0  0  0  0  0
  130.1890  126.0460   57.9220 C   0  0  0  0  0  0  0  0  0  0  0  0
  128.4762  123.8699   57.6178 H   0  0  0  0  0  0  0  0  0  0  0  0
  127.7328  124.5030   56.1101 H   0  0  0  0  0  0  0  0  0  0  0  0
  129.4477  123.9684   56.1101 H   0  0  0  0  0  0  0  0  0  0  0  0
  127.5250  126.8113   55.9306 H   0  0  0  0  0  0  0  0  0  0  0  0
  128.2313  129.1136   56.5523 H   0  0  0  0  0  0  0  0  0  0  0  0
  131.6190  129.1400   59.4900 H   0  0  0  0  0  0  0  0  0  0  0  0
  132.8280  131.0148   59.9700 H   0  0  0  0  0  0  0  0  0  0  0  0
  132.0208  133.2359   58.8120 H   0  0  0  0  0  0  0  0  0  0  0  0
  132.7891  131.9533   57.8164 H   0  0  0  0  0  0  0  0  0  0  0  0
  131.0027  132.1410   57.8164 H   0  0  0  0  0  0  0  0  0  0  0  0
  126.0313  132.8370   63.0715 H   0  0  0  0  0  0  0  0  0  0  0  0
  126.4935  132.4744   61.3631 H   0  0  0  0  0  0  0  0  0  0  0  0
  126.4281  127.1049   67.8044 H   0  0  0  0  0  0  0  0  0  0  0  0
  126.5234  126.3864   70.1802 H   0  0  0  0  0  0  0  0  0  0  0  0
  128.5180  126.9097   71.5689 H   0  0  0  0  0  0  0  0  0  0  0  0
  130.3431  128.8870   68.1886 H   0  0  0  0  0  0  0  0  0  0  0  0
  129.1764  126.7334   65.3362 H   0  0  0  0  0  0  0  0  0  0  0  0
  128.0655  133.1656   59.7157 H   0  0  0  0  0  0  0  0  0  0  0  0
  129.5933  133.5517   58.8534 H   0  0  0  0  0  0  0  0  0  0  0  0
  128.9623  131.8699   58.8534 H   0  0  0  0  0  0  0  0  0  0  0  0
  131.4522  127.4770   58.9334 H   0  0  0  0  0  0  0  0  0  0  0  0
  130.7385  125.1766   58.3121 H   0  0  0  0  0  0  0  0  0  0  0  0
  1  2  1  0
  2  3  2  0
  3  4  1  0
  4  5  2  0
  5  6  1  0
  6  7  2  0
  6  8  1  0
  8  9  1  0
  9 10  1  0
  9 11  1  0
 11 12  2  0
 12 13  1  0
 13 14  2  0
 14 15  1  0
 15 16  1  0
 16 17  1  0
 17 18  1  0
 17 19  2  0
 19 20  1  0
 20 21  2  0
 21 22  1  0
 22 23  1  0
 23 24  2  0
 24 25  1  0
 25 26  2  0
 26 27  1  0
 27 28  1  0
 28 29  2  0
 28 30  1  0
 27 31  2  0
 22 32  2  0
 32 33  1  0
 14 34  1  0
 34 35  1  0
  5 36  1  0
 36 37  2  0
 37  2  1  0
 34 11  1  0
 33 20  1  0
 31 23  1  0
  1 38  1  0
  1 39  1  0
  1 40  1  0
  3 41  1  0
  4 42  1  0
  8 43  1  0
  9 44  1  1
 10 45  1  0
 10 46  1  0
 10 47  1  0
 16 48  1  0
 16 49  1  0
 24 50  1  0
 25 51  1  0
 26 52  1  0
 31 53  1  0
 32 54  1  0
 35 55  1  0
 35 56  1  0
 35 57  1  0
 36 58  1  0
 37 59  1  0
M  CHG  3  18  -1  28   1  30  -1
M  END
>  <Binding energies>  (1) 
[-7.83]

>  <Ligand effiencies>  (1) 
[-0.20605263157894738]

>  <Interactions>  (1) 
["V-A:GLU:543:CA:4904, V-B:GLU:543:C:9874, V-A:GLU:543:C:4902, H-A:ALA:541:N:4891, V-A:PRO:540:C:4881, V-B:GLU:543:CB:9878, V-B:TYR:539:CE2:9848, V-A:GLY:544:CA:4914, V-B:LEU:475:CD2:9230, V-A:GLY:544:C:4912, H-A:ARG:545:N:4920, V-A:TYR:539:CD1:4873, V-A:LEU:363:CD1:3189, V-B:TYR:539:CZ:9849, V-A:ALA:541:CB:4892, V-A:GLU:543:CD:4908, H-B:TYR:484:OH:9319, V-B:HIS:456:CE1:9041, V-A:HIS:456:CE1:4070, V-B:GLY:544:C:9884, V-A:ALA:541:CA:4890, V-A:GLU:543:CG:4907, V-A:MET:535:CE:4835, V-B:GLU:543:CD:9880, V-A:TYR:539:C:4867, H-A:LYS:547:NZ:4951, V-A:GLU:543:CB:4906, V-A:PRO:540:N:4884, V-A:PRO:540:CB:4885, V-A:PRO:540:CA:4883, H-A:ASP:366:OD2:3215, V-B:TYR:539:CE1:9847, H-A:HIS:456:ND1:4067"]

$$$$
ZINC409154608-again1
     RDKit          3D

 49 52  0  0  0  0  0  0  0  0999 V2000
  130.0530  128.6260   72.3750 C   0  0  0  0  0  0  0  0  0  0  0  0
  130.0580  127.9420   71.0120 C   0  0  0  0  0  0  0  0  0  0  0  0
  131.0830  128.2690   70.1210 C   0  0  0  0  0  0  0  0  0  0  0  0
  131.1200  127.7180   68.8440 C   0  0  0  0  0  0  0  0  0  0  0  0
  130.1280  126.8270   68.4180 C   0  0  0  0  0  0  0  0  0  0  0  0
  130.1530  126.2270   67.0390 C   0  0  0  0  0  0  0  0  0  0  0  0
  129.1660  126.3650   66.0540 C   0  0  0  0  0  0  0  0  0  0  0  0
  129.6080  125.4990   64.6140 S   0  0  0  0  0  0  0  0  0  0  0  0
  131.0610  125.0310   65.4220 C   0  0  0  0  0  0  0  0  0  0  0  0
  131.9520  124.2280   64.7240 N   0  0  0  0  0  0  0  0  0  0  0  0
  131.8420  123.8330   63.4360 C   0  0  0  0  0  0  0  0  0  0  0  0
  130.9180  124.1510   62.6830 O   0  0  0  0  0  0  0  0  0  0  0  0
  132.9880  122.9540   62.9180 C   0  0  0  0  0  0  0  0  0  0  0  0
  134.3760  123.8940   62.2010 S   0  0  0  0  0  0  0  0  0  0  0  0
  133.5840  124.3820   60.7040 C   0  0  0  0  0  0  0  0  0  0  0  0
  133.7200  123.7340   59.5760 N   0  0  0  0  0  0  0  0  0  0  0  0
  132.9130  124.3630   58.6340 N   0  0  0  0  0  0  0  0  0  0  0  0
  132.2670  125.3310   59.2420 C   0  0  0  0  0  0  0  0  0  0  0  0
  131.2680  126.2130   58.5530 C   0  0  0  0  0  0  0  0  0  0  0  0
  130.2620  125.6330   57.7710 C   0  0  0  0  0  0  0  0  0  0  0  0
  129.3170  126.4300   57.1320 C   0  0  0  0  0  0  0  0  0  0  0  0
  129.3700  127.8150   57.2750 C   0  0  0  0  0  0  0  0  0  0  0  0
  128.1980  128.8040   56.4840 Cl  0  0  0  0  0  0  0  0  0  0  0  0
  130.3600  128.4050   58.0570 C   0  0  0  0  0  0  0  0  0  0  0  0
  131.3050  127.6070   58.6960 C   0  0  0  0  0  0  0  0  0  0  0  0
  132.6520  125.3900   60.5700 N   0  0  0  0  0  0  0  0  0  0  0  0
  132.2140  126.2620   61.5540 N   0  0  0  0  0  0  0  0  0  0  0  0
  131.1800  125.4850   66.6500 N   0  0  0  0  0  0  0  0  0  0  0  0
  129.1020  126.5030   69.3150 C   0  0  0  0  0  0  0  0  0  0  0  0
  129.0500  127.0380   70.6120 C   0  0  0  0  0  0  0  0  0  0  0  0
  127.9410  126.6280   71.5070 N   0  0  0  0  0  0  0  0  0  0  0  0
  126.8090  127.0470   71.2870 O   0  0  0  0  0  0  0  0  0  0  0  0
  128.2070  125.9030   72.4620 O   0  0  0  0  0  0  0  0  0  0  0  0
  130.0586  127.8636   73.1679 H   0  0  0  0  0  0  0  0  0  0  0  0
  130.9465  129.2605   72.4701 H   0  0  0  0  0  0  0  0  0  0  0  0
  129.1503  129.2473   72.4701 H   0  0  0  0  0  0  0  0  0  0  0  0
  131.8706  128.9708   70.4329 H   0  0  0  0  0  0  0  0  0  0  0  0
  131.9392  127.9859   68.1605 H   0  0  0  0  0  0  0  0  0  0  0  0
  128.2379  126.9428   66.1758 H   0  0  0  0  0  0  0  0  0  0  0  0
  132.7460  123.8900   65.2500 H   0  0  0  0  0  0  0  0  0  0  0  0
  133.3721  122.3559   63.7575 H   0  0  0  0  0  0  0  0  0  0  0  0
  132.5732  122.3325   62.1107 H   0  0  0  0  0  0  0  0  0  0  0  0
  130.2182  124.5394   57.6609 H   0  0  0  0  0  0  0  0  0  0  0  0
  128.5311  125.9683   56.5163 H   0  0  0  0  0  0  0  0  0  0  0  0
  130.3951  129.4987   58.1694 H   0  0  0  0  0  0  0  0  0  0  0  0
  132.0848  128.0728   59.3164 H   0  0  0  0  0  0  0  0  0  0  0  0
  131.2540  126.0950   61.8200 H   0  0  0  0  0  0  0  0  0  0  0  0
  132.4210  127.2250   61.3330 H   0  0  0  0  0  0  0  0  0  0  0  0
  128.3126  125.8078   68.9932 H   0  0  0  0  0  0  0  0  0  0  0  0
  1  2  1  0
  2  3  2  0
  3  4  1  0
  4  5  2  0
  5  6  1  0
  6  7  2  0
  7  8  1  0
  8  9  1  0
  9 10  1  0
 10 11  1  0
 11 12  2  0
 11 13  1  0
 13 14  1  0
 14 15  1  0
 15 16  2  0
 16 17  1  0
 17 18  2  0
 18 19  1  0
 19 20  2  0
 20 21  1  0
 21 22  2  0
 22 23  1  0
 22 24  1  0
 24 25  2  0
 18 26  1  0
 26 27  1  0
  9 28  2  0
  5 29  1  0
 29 30  2  0
 30 31  1  0
 31 32  2  0
 31 33  1  0
 30  2  1  0
 28  6  1  0
 26 15  1  0
 25 19  1  0
  1 34  1  0
  1 35  1  0
  1 36  1  0
  3 37  1  0
  4 38  1  0
  7 39  1  0
 10 40  1  0
 13 41  1  0
 13 42  1  0
 20 43  1  0
 21 44  1  0
 24 45  1  0
 25 46  1  0
 27 47  1  0
 27 48  1  0
 29 49  1  0
M  CHG  2  31   1  33  -1
M  END
>  <Binding energies>  (1) 
[-8.28]

>  <Ligand effiencies>  (1) 
[-0.22999999999999998]

>  <Interactions>  (1) 
["V-A:GLU:543:CA:4904, V-A:GLY:454:CA:4049, V-B:GLU:543:C:9874, V-A:GLU:543:C:4902, V-B:GLU:543:CB:9878, H-B:LYS:547:NZ:9923, V-B:TYR:539:CE2:9848, V-A:GLY:544:CA:4914, V-A:GLY:544:C:4912, V-B:GLU:543:CG:9879, V-A:ASP:366:CG:3213, H-B:HIS:456:ND1:9038, V-B:TYR:539:CZ:9849, H-B:TYR:539:OH:9850, H-B:ARG:545:N:9892, V-A:TYR:484:CZ:4347, V-A:GLU:543:CD:4908, V-A:ARG:545:CG:4922, H-A:GLY:454:N:4050, V-A:HIS:456:CE1:4070, V-B:GLY:544:C:9884, V-B:GLY:544:CA:9886, V-B:GLU:543:CD:9880, V-A:MET:535:CE:4835, V-A:ASP:366:CB:3212, V-A:LEU:475:CD2:4259, H-A:GLU:543:OE1:4909, V-A:GLU:543:CB:4906, H-A:ASP:366:OD1:3214, H-A:ASP:366:OD2:3215, H-A:TYR:484:OH:4348"]

$$$$
ZINC409166291-again1
     RDKit          3D

 32 34  0  0  0  0  0  0  0  0999 V2000
  127.8520  129.8480   66.9760 O   0  0  0  0  0  0  0  0  0  0  0  0
  128.2720  128.8100   66.4620 C   0  0  0  0  0  0  0  0  0  0  0  0
  128.3570  128.5460   65.1550 N   0  0  0  0  0  0  0  0  0  0  0  0
  128.8740  127.3400   64.9160 C   0  0  0  0  0  0  0  0  0  0  0  0
  129.0930  126.7680   63.7070 C   0  0  0  0  0  0  0  0  0  0  0  0
  129.7060  125.4510   63.3720 C   0  0  0  0  0  0  0  0  0  0  0  0
  128.8930  124.4950   62.7510 C   0  0  0  0  0  0  0  0  0  0  0  0
  129.3850  123.2370   62.4220 C   0  0  0  0  0  0  0  0  0  0  0  0
  128.3600  122.0820   61.6500 Cl  0  0  0  0  0  0  0  0  0  0  0  0
  130.7030  122.9090   62.7180 C   0  0  0  0  0  0  0  0  0  0  0  0
  131.5380  123.8310   63.3500 C   0  0  0  0  0  0  0  0  0  0  0  0
  133.1660  123.3130   63.6840 Cl  0  0  0  0  0  0  0  0  0  0  0  0
  131.0470  125.1130   63.6890 C   0  0  0  0  0  0  0  0  0  0  0  0
  131.8170  125.9570   64.2720 O   0  0  0  0  0  0  0  0  0  0  0  0
  129.1220  126.7400   66.1950 C   0  0  0  0  0  0  0  0  0  0  0  0
  129.5660  125.6220   66.4660 O   0  0  0  0  0  0  0  0  0  0  0  0
  128.7420  127.6950   67.0730 N   0  0  0  0  0  0  0  0  0  0  0  0
  128.8320  127.5560   68.4670 C   0  0  0  0  0  0  0  0  0  0  0  0
  127.7250  127.1040   69.1940 C   0  0  0  0  0  0  0  0  0  0  0  0
  127.8190  126.9670   70.5760 C   0  0  0  0  0  0  0  0  0  0  0  0
  129.0130  127.2800   71.2240 C   0  0  0  0  0  0  0  0  0  0  0  0
  129.1250  127.1100   72.9380 Cl  0  0  0  0  0  0  0  0  0  0  0  0
  130.1180  127.7300   70.5010 C   0  0  0  0  0  0  0  0  0  0  0  0
  130.0300  127.8690   69.1180 C   0  0  0  0  0  0  0  0  0  0  0  0
  128.0860  129.1880   64.4250 H   0  0  0  0  0  0  0  0  0  0  0  0
  128.7695  127.3659   62.8422 H   0  0  0  0  0  0  0  0  0  0  0  0
  127.8468  124.7436   62.5194 H   0  0  0  0  0  0  0  0  0  0  0  0
  131.0908  121.9146   62.4518 H   0  0  0  0  0  0  0  0  0  0  0  0
  126.7860  126.8584   68.6763 H   0  0  0  0  0  0  0  0  0  0  0  0
  126.9536  126.6127   71.1552 H   0  0  0  0  0  0  0  0  0  0  0  0
  131.0558  127.9742   71.0215 H   0  0  0  0  0  0  0  0  0  0  0  0
  130.8972  128.2227   68.5411 H   0  0  0  0  0  0  0  0  0  0  0  0
  1  2  2  0
  2  3  1  0
  3  4  1  0
  4  5  2  0
  5  6  1  0
  6  7  2  0
  7  8  1  0
  8  9  1  0
  8 10  2  0
 10 11  1  0
 11 12  1  0
 11 13  2  0
 13 14  1  0
  4 15  1  0
 15 16  2  0
 15 17  1  0
 17 18  1  0
 18 19  2  0
 19 20  1  0
 20 21  2  0
 21 22  1  0
 21 23  1  0
 23 24  2  0
 17  2  1  0
 24 18  1  0
 13  6  1  0
  3 25  1  0
  5 26  1  0
  7 27  1  0
 10 28  1  0
 19 29  1  0
 20 30  1  0
 23 31  1  0
 24 32  1  0
M  CHG  1  14  -1
M  END
>  <Binding energies>  (1) 
[-5.66]

>  <Ligand effiencies>  (1) 
[-0.22640000000000002]

>  <Interactions>  (1) 
["V-B:PRO:540:CA:9855, V-A:GLY:454:CA:4049, V-B:GLU:543:C:9874, V-B:GLU:543:CB:9878, V-B:ALA:541:CB:9864, V-B:GLU:543:CG:9879, V-A:GLU:543:CD:4908, H-B:TYR:484:OH:9319, V-B:HIS:456:CE1:9041, V-A:HIS:456:CE1:4070, V-B:GLY:544:C:9884, V-A:GLU:543:CG:4907, V-B:GLU:543:CD:9880, V-A:LEU:475:CD2:4259, H-A:ARG:545:NH2:4928, H-A:GLU:543:OE1:4909, V-A:GLU:543:CB:4906, H-B:GLU:543:OE2:9882, H-A:ARG:545:NE:4924, V-B:PRO:540:C:9853, V-B:ALA:541:CA:9862"]

$$$$
ZINC409189394
     RDKit          3D

 72 77  0  0  0  0  0  0  0  0999 V2000
  129.2240  122.4090   65.2490 C   0  0  0  0  0  0  0  0  0  0  0  0
  129.1800  122.2070   63.7320 C   0  0  0  0  0  0  0  0  0  0  0  0
  130.4580  121.7760   63.2820 O   0  0  0  0  0  0  0  0  0  0  0  0
  130.6470  121.3320   62.0140 C   0  0  0  0  0  0  0  0  0  0  0  0
  130.3740  120.1850   61.6540 O   0  0  0  0  0  0  0  0  0  0  0  0
  131.2470  122.3590   61.1260 C   0  0  0  0  0  0  0  0  0  0  0  0
  132.2360  122.0850   60.2180 C   0  0  0  0  0  0  0  0  0  0  0  0
  132.7600  120.7110   59.7970 C   0  0  0  0  0  0  0  0  0  0  0  0
  132.8190  123.0530   59.4480 N   0  0  0  0  0  0  0  0  0  0  0  0
  132.3870  124.2580   59.4660 C   0  0  0  0  0  0  0  0  0  0  0  0
  132.9530  125.5430   58.4040 S   0  0  0  0  0  0  0  0  0  0  0  0
  131.8170  126.6680   59.1560 C   0  0  0  0  0  0  0  0  0  0  0  0
  131.7080  127.9760   58.8190 C   0  0  0  0  0  0  0  0  0  0  0  0
  130.8870  129.0550   59.4080 C   0  0  0  0  0  0  0  0  0  0  0  0
  129.5460  129.1640   59.0500 C   0  0  0  0  0  0  0  0  0  0  0  0
  128.7610  130.1820   59.5820 C   0  0  0  0  0  0  0  0  0  0  0  0
  129.3000  131.1130   60.4740 C   0  0  0  0  0  0  0  0  0  0  0  0
  128.1800  132.3660   61.0480 S   0  0  0  0  0  0  0  0  0  0  0  0
  128.1510  131.9700   62.7610 C   0  0  0  0  0  0  0  0  0  0  0  0
  128.2810  130.7740   63.2770 N   0  0  0  0  0  0  0  0  0  0  0  0
  128.1740  130.9810   64.5880 C   0  0  0  0  0  0  0  0  0  0  0  0
  128.2780  129.8500   65.5790 C   0  0  0  0  0  0  0  0  0  0  0  0
  128.3110  130.1850   66.9440 C   0  0  0  0  0  0  0  0  0  0  0  0
  128.3960  129.2020   67.9290 C   0  0  0  0  0  0  0  0  0  0  0  0
  128.4510  127.8600   67.5660 C   0  0  0  0  0  0  0  0  0  0  0  0
  128.5570  126.6390   68.7820 Cl  0  0  0  0  0  0  0  0  0  0  0  0
  128.4270  127.5040   66.2210 C   0  0  0  0  0  0  0  0  0  0  0  0
  128.3440  128.4840   65.2270 C   0  0  0  0  0  0  0  0  0  0  0  0
  128.3680  127.9410   63.5830 Cl  0  0  0  0  0  0  0  0  0  0  0  0
  127.9980  132.2390   64.9460 N   0  0  0  0  0  0  0  0  0  0  0  0
  127.9750  132.8650   63.7720 N   0  0  0  0  0  0  0  0  0  0  0  0
  130.6640  131.0250   60.8610 C   0  0  0  0  0  0  0  0  0  0  0  0
  131.3320  131.9480   61.8280 N   0  0  0  0  0  0  0  0  0  0  0  0
  130.8010  132.2230   62.8960 O   0  0  0  0  0  0  0  0  0  0  0  0
  132.4330  132.4060   61.5290 O   0  0  0  0  0  0  0  0  0  0  0  0
  131.4310  129.9940   60.2880 C   0  0  0  0  0  0  0  0  0  0  0  0
  131.0230  125.9940   60.1750 C   0  0  0  0  0  0  0  0  0  0  0  0
  130.1130  126.4980   60.8390 O   0  0  0  0  0  0  0  0  0  0  0  0
  131.4170  124.7020   60.3110 N   0  0  0  0  0  0  0  0  0  0  0  0
  130.8560  123.8410   61.4060 C   0  0  2  0  0  0  0  0  0  0  0  0
  131.3570  124.3270   62.7790 C   0  0  0  0  0  0  0  0  0  0  0  0
  130.4900  125.0370   63.6130 C   0  0  0  0  0  0  0  0  0  0  0  0
  130.9300  125.4900   64.8540 C   0  0  0  0  0  0  0  0  0  0  0  0
  132.2380  125.2360   65.2650 C   0  0  0  0  0  0  0  0  0  0  0  0
  132.7560  125.8360   66.8510 S   0  0  0  0  0  0  0  0  0  0  0  0
  134.3630  125.0990   67.2600 C   0  0  0  0  0  0  0  0  0  0  0  0
  133.1090  124.5250   64.4360 C   0  0  0  0  0  0  0  0  0  0  0  0
  132.6670  124.0710   63.1970 C   0  0  0  0  0  0  0  0  0  0  0  0
  129.0158  121.4533   65.7523 H   0  0  0  0  0  0  0  0  0  0  0  0
  130.2215  122.7682   65.5423 H   0  0  0  0  0  0  0  0  0  0  0  0
  128.4663  123.1506   65.5423 H   0  0  0  0  0  0  0  0  0  0  0  0
  128.4261  121.4454   63.4837 H   0  0  0  0  0  0  0  0  0  0  0  0
  128.9143  123.1542   63.2399 H   0  0  0  0  0  0  0  0  0  0  0  0
  132.9873  120.1149   60.6931 H   0  0  0  0  0  0  0  0  0  0  0  0
  131.9956  120.1949   59.1976 H   0  0  0  0  0  0  0  0  0  0  0  0
  133.6739  120.8350   59.1976 H   0  0  0  0  0  0  0  0  0  0  0  0
  132.3326  128.2854   57.9680 H   0  0  0  0  0  0  0  0  0  0  0  0
  129.1061  128.4435   58.3448 H   0  0  0  0  0  0  0  0  0  0  0  0
  127.7012  130.2551   59.2965 H   0  0  0  0  0  0  0  0  0  0  0  0
  128.2689  131.2434   67.2407 H   0  0  0  0  0  0  0  0  0  0  0  0
  128.4195  129.4869   68.9912 H   0  0  0  0  0  0  0  0  0  0  0  0
  128.4737  126.4423   65.9372 H   0  0  0  0  0  0  0  0  0  0  0  0
  127.8490  133.8630   63.6760 H   0  0  0  0  0  0  0  0  0  0  0  0
  132.4989  129.9246   60.5424 H   0  0  0  0  0  0  0  0  0  0  0  0
  129.7585  123.9130   61.4262 H   0  0  0  0  0  0  0  0  0  0  0  0
  129.4583  125.2385   63.2889 H   0  0  0  0  0  0  0  0  0  0  0  0
  130.2458  126.0482   65.5100 H   0  0  0  0  0  0  0  0  0  0  0  0
  134.4752  125.0475   68.3530 H   0  0  0  0  0  0  0  0  0  0  0  0
  134.4195  124.0850   66.8374 H   0  0  0  0  0  0  0  0  0  0  0  0
  135.1684  125.7177   66.8374 H   0  0  0  0  0  0  0  0  0  0  0  0
  134.1405  124.3247   64.7614 H   0  0  0  0  0  0  0  0  0  0  0  0
  133.3505  123.5086   62.5439 H   0  0  0  0  0  0  0  0  0  0  0  0
  1  2  1  0
  2  3  1  0
  3  4  1  0
  4  5  2  0
  4  6  1  0
  6  7  2  0
  7  8  1  0
  7  9  1  0
  9 10  2  0
 10 11  1  0
 11 12  1  0
 12 13  2  0
 13 14  1  0
 14 15  2  0
 15 16  1  0
 16 17  2  0
 17 18  1  0
 18 19  1  0
 19 20  2  0
 20 21  1  0
 21 22  1  0
 22 23  2  0
 23 24  1  0
 24 25  2  0
 25 26  1  0
 25 27  1  0
 27 28  2  0
 28 29  1  0
 21 30  2  0
 30 31  1  0
 17 32  1  0
 32 33  1  0
 33 34  2  0
 33 35  1  0
 32 36  2  0
 12 37  1  0
 37 38  2  0
 37 39  1  0
 39 40  1  0
 40 41  1  0
 41 42  2  0
 42 43  1  0
 43 44  2  0
 44 45  1  0
 45 46  1  0
 44 47  1  0
 47 48  2  0
 40  6  1  0
 48 41  1  0
 39 10  1  0
 36 14  1  0
 31 19  1  0
 28 22  1  0
  1 49  1  0
  1 50  1  0
  1 51  1  0
  2 52  1  0
  2 53  1  0
  8 54  1  0
  8 55  1  0
  8 56  1  0
 13 57  1  0
 15 58  1  0
 16 59  1  0
 23 60  1  0
 24 61  1  0
 27 62  1  0
 31 63  1  0
 36 64  1  0
 40 65  1  1
 42 66  1  0
 43 67  1  0
 46 68  1  0
 46 69  1  0
 46 70  1  0
 47 71  1  0
 48 72  1  0
M  CHG  2  33   1  35  -1
M  END
>  <Binding energies>  (1) 
[-9.24]

>  <Ligand effiencies>  (1) 
[-0.18857142857142858]

>  <Interactions>  (1) 
["V-A:ILE:369:CG2:3237, V-A:ASP:366:CA:3210, V-A:GLU:543:CA:4904, V-A:GLY:454:CA:4049, V-B:GLU:543:C:9874, H-A:ALA:541:N:4891, V-B:GLU:543:CB:9878, V-A:PRO:540:C:4881, V-B:ALA:541:CB:9864, V-B:TYR:539:CE2:9848, V-A:TYR:484:CE2:4346, V-B:GLU:543:CG:9879, V-B:LEU:475:CD2:9230, V-A:ASP:366:CG:3213, V-B:TYR:484:CE2:9317, V-A:ALA:541:CB:4892, V-A:GLU:543:CD:4908, V-A:TYR:484:CZ:4347, V-A:ILE:455:C:4052, H-B:TYR:484:OH:9319, V-B:GLU:543:CA:9876, V-A:ARG:545:CG:4922, V-B:HIS:456:CE1:9041, V-A:HIS:456:CE1:4070, V-B:TYR:484:CZ:9318, V-A:ASP:366:C:3208, V-B:TYR:539:CD2:9846, V-A:GLU:543:CG:4907, V-B:GLU:543:CD:9880, V-A:ASP:366:CB:3212, V-A:ARG:545:CB:4921, V-A:LEU:475:CD2:4259, V-A:ARG:545:CD:4923, V-A:ARG:545:CZ:4926, V-A:GLU:543:CB:4906, V-A:PRO:540:CB:4885, V-A:PRO:540:CA:4883, H-A:ARG:545:NE:4924, H-A:TYR:484:OH:4348"]

$$$$
ZINC409191848
     RDKit          3D

 81 84  0  0  0  0  0  0  0  0999 V2000
  129.1540  122.1400   60.4610 C   0  0  0  0  0  0  0  0  0  0  0  0
  129.1200  121.7430   61.7420 C   0  0  0  0  0  0  0  0  0  0  0  0
  130.3230  121.6880   62.6630 C   0  0  0  0  0  0  0  0  0  0  0  0
  130.7770  123.0630   63.1420 C   0  0  0  0  0  0  0  0  0  0  0  0
  129.9040  124.1480   63.0250 C   0  0  0  0  0  0  0  0  0  0  0  0
  130.2860  125.4210   63.4480 C   0  0  0  0  0  0  0  0  0  0  0  0
  129.3420  126.5480   63.3010 C   0  0  0  0  0  0  0  0  0  0  0  0
  128.7600  127.3540   64.2460 C   0  0  0  0  0  0  0  0  0  0  0  0
  127.9720  128.5000   63.7580 C   0  0  0  0  0  0  0  0  0  0  0  0
  127.5360  128.5670   62.6020 O   0  0  0  0  0  0  0  0  0  0  0  0
  127.7590  129.4900   64.7000 N   0  0  0  0  0  0  0  0  0  0  0  0
  127.0660  130.7260   64.2390 C   0  0  0  0  0  0  0  0  0  0  0  0
  127.7100  131.4130   63.0360 C   0  0  0  0  0  0  0  0  0  0  0  0
  126.9120  131.8580   61.9840 C   0  0  0  0  0  0  0  0  0  0  0  0
  127.4890  132.4820   60.8800 C   0  0  0  0  0  0  0  0  0  0  0  0
  128.8800  132.6720   60.8090 C   0  0  0  0  0  0  0  0  0  0  0  0
  129.5170  133.2820   59.7430 O   0  0  0  0  0  0  0  0  0  0  0  0
  129.2660  132.8280   58.4160 C   0  0  0  0  0  0  0  0  0  0  0  0
  130.5660  132.8920   57.5990 C   0  0  0  0  0  0  0  0  0  0  0  0
  131.6200  131.8650   58.0410 C   0  0  0  0  0  0  0  0  0  0  0  0
  129.6890  132.2260   61.8650 C   0  0  0  0  0  0  0  0  0  0  0  0
  131.0520  132.4360   61.7460 O   0  0  0  0  0  0  0  0  0  0  0  0
  131.9560  131.3580   61.9800 C   0  0  0  0  0  0  0  0  0  0  0  0
  133.3830  131.8470   61.7200 C   0  0  0  0  0  0  0  0  0  0  0  0
  129.0930  131.6010   62.9740 C   0  0  0  0  0  0  0  0  0  0  0  0
  128.1160  129.4100   66.0420 C   0  0  0  0  0  0  0  0  0  0  0  0
  128.0160  130.4200   66.7450 O   0  0  0  0  0  0  0  0  0  0  0  0
  128.5450  128.1580   66.5180 N   0  0  0  0  0  0  0  0  0  0  0  0
  128.8720  127.2210   65.7080 C   0  0  0  0  0  0  0  0  0  0  0  0
  129.1520  126.1380   66.2490 O   0  0  0  0  0  0  0  0  0  0  0  0
  131.5750  125.6120   63.9550 C   0  0  0  0  0  0  0  0  0  0  0  0
  132.4700  124.5380   64.0840 C   0  0  0  0  0  0  0  0  0  0  0  0
  133.7590  124.6690   64.5700 O   0  0  0  0  0  0  0  0  0  0  0  0
  133.9690  124.9210   65.9560 C   0  0  0  0  0  0  0  0  0  0  0  0
  132.6730  125.4810   66.5510 C   0  0  0  0  0  0  0  0  0  0  0  0
  132.0540  123.2560   63.6930 C   0  0  0  0  0  0  0  0  0  0  0  0
  132.9090  122.1830   63.8060 O   0  0  0  0  0  0  0  0  0  0  0  0
  133.9810  122.1670   62.8670 C   0  0  0  0  0  0  0  0  0  0  0  0
  133.5880  122.9820   61.6410 C   0  0  0  0  0  0  0  0  0  0  0  0
  133.8850  124.3490   61.6010 C   0  0  0  0  0  0  0  0  0  0  0  0
  133.5390  125.1170   60.4910 C   0  0  0  0  0  0  0  0  0  0  0  0
  132.8900  124.5250   59.4080 C   0  0  0  0  0  0  0  0  0  0  0  0
  132.4610  125.4760   58.0320 Cl  0  0  0  0  0  0  0  0  0  0  0  0
  132.5840  123.1650   59.4400 C   0  0  0  0  0  0  0  0  0  0  0  0
  132.9280  122.3910   60.5500 C   0  0  0  0  0  0  0  0  0  0  0  0
  132.5210  120.7080   60.5420 Cl  0  0  0  0  0  0  0  0  0  0  0  0
  128.2306  122.1489   59.8633 H   0  0  0  0  0  0  0  0  0  0  0  0
  130.1053  122.4566   60.0084 H   0  0  0  0  0  0  0  0  0  0  0  0
  128.1479  121.4348   62.1544 H   0  0  0  0  0  0  0  0  0  0  0  0
  130.0627  121.0801   63.5420 H   0  0  0  0  0  0  0  0  0  0  0  0
  131.1538  121.2512   62.0894 H   0  0  0  0  0  0  0  0  0  0  0  0
  128.9034  123.9962   62.5940 H   0  0  0  0  0  0  0  0  0  0  0  0
  129.0595  126.7786   62.2632 H   0  0  0  0  0  0  0  0  0  0  0  0
  126.0341  130.4584   63.9679 H   0  0  0  0  0  0  0  0  0  0  0  0
  127.1252  131.4421   65.0718 H   0  0  0  0  0  0  0  0  0  0  0  0
  125.8220  131.7161   62.0253 H   0  0  0  0  0  0  0  0  0  0  0  0
  126.8494  132.8296   60.0553 H   0  0  0  0  0  0  0  0  0  0  0  0
  128.9023  131.7903   58.4460 H   0  0  0  0  0  0  0  0  0  0  0  0
  128.5055  133.4692   57.9464 H   0  0  0  0  0  0  0  0  0  0  0  0
  130.3223  132.7078   56.5423 H   0  0  0  0  0  0  0  0  0  0  0  0
  130.9999  133.8899   57.7598 H   0  0  0  0  0  0  0  0  0  0  0  0
  131.6578  131.8281   59.1397 H   0  0  0  0  0  0  0  0  0  0  0  0
  131.3516  130.8726   57.6498 H   0  0  0  0  0  0  0  0  0  0  0  0
  132.6051  132.1591   57.6498 H   0  0  0  0  0  0  0  0  0  0  0  0
  131.8654  131.0189   63.0225 H   0  0  0  0  0  0  0  0  0  0  0  0
  131.7198  130.5192   61.3088 H   0  0  0  0  0  0  0  0  0  0  0  0
  133.8915  132.0212   62.6797 H   0  0  0  0  0  0  0  0  0  0  0  0
  133.9327  131.0859   61.1467 H   0  0  0  0  0  0  0  0  0  0  0  0
  133.3504  132.7852   61.1467 H   0  0  0  0  0  0  0  0  0  0  0  0
  129.7248  131.2548   63.8053 H   0  0  0  0  0  0  0  0  0  0  0  0
  131.8931  126.6205   64.2578 H   0  0  0  0  0  0  0  0  0  0  0  0
  134.2373  123.9844   66.4668 H   0  0  0  0  0  0  0  0  0  0  0  0
  134.7871  125.6445   66.0874 H   0  0  0  0  0  0  0  0  0  0  0  0
  132.7326  125.4553   67.6491 H   0  0  0  0  0  0  0  0  0  0  0  0
  132.5342  126.5194   66.2156 H   0  0  0  0  0  0  0  0  0  0  0  0
  131.8217  124.8704   66.2156 H   0  0  0  0  0  0  0  0  0  0  0  0
  134.8791  122.6049   63.3270 H   0  0  0  0  0  0  0  0  0  0  0  0
  134.1936  121.1301   62.5678 H   0  0  0  0  0  0  0  0  0  0  0  0
  134.3959  124.8212   62.4530 H   0  0  0  0  0  0  0  0  0  0  0  0
  133.7779  126.1905   60.4690 H   0  0  0  0  0  0  0  0  0  0  0  0
  132.0691  122.6996   58.5866 H   0  0  0  0  0  0  0  0  0  0  0  0
  1  2  2  0
  2  3  1  0
  3  4  1  0
  4  5  2  0
  5  6  1  0
  6  7  1  0
  7  8  2  0
  8  9  1  0
  9 10  2  0
  9 11  1  0
 11 12  1  0
 12 13  1  0
 13 14  2  0
 14 15  1  0
 15 16  2  0
 16 17  1  0
 17 18  1  0
 18 19  1  0
 19 20  1  0
 16 21  1  0
 21 22  1  0
 22 23  1  0
 23 24  1  0
 21 25  2  0
 11 26  1  0
 26 27  2  0
 26 28  1  0
 28 29  2  0
 29 30  1  0
  6 31  2  0
 31 32  1  0
 32 33  1  0
 33 34  1  0
 34 35  1  0
 32 36  2  0
 36 37  1  0
 37 38  1  0
 38 39  1  0
 39 40  2  0
 40 41  1  0
 41 42  2  0
 42 43  1  0
 42 44  1  0
 44 45  2  0
 45 46  1  0
 36  4  1  0
 45 39  1  0
 29  8  1  0
 25 13  1  0
  1 47  1  0
  1 48  1  0
  2 49  1  0
  3 50  1  0
  3 51  1  0
  5 52  1  0
  7 53  1  0
 12 54  1  0
 12 55  1  0
 14 56  1  0
 15 57  1  0
 18 58  1  0
 18 59  1  0
 19 60  1  0
 19 61  1  0
 20 62  1  0
 20 63  1  0
 20 64  1  0
 23 65  1  0
 23 66  1  0
 24 67  1  0
 24 68  1  0
 24 69  1  0
 25 70  1  0
 31 71  1  0
 34 72  1  0
 34 73  1  0
 35 74  1  0
 35 75  1  0
 35 76  1  0
 38 77  1  0
 38 78  1  0
 40 79  1  0
 41 80  1  0
 44 81  1  0
M  CHG  1  30  -1
M  END
>  <Binding energies>  (1) 
[-7.28]

>  <Ligand effiencies>  (1) 
[-0.1582608695652174]

>  <Interactions>  (1) 
["V-A:ILE:369:CG2:3237, V-A:ASP:366:CA:3210, V-B:PRO:540:CA:9855, V-A:GLY:454:CA:4049, H-A:ALA:541:N:4891, V-B:GLU:543:CB:9878, V-B:ALA:541:CB:9864, V-B:TYR:539:CE2:9848, V-B:GLU:543:CG:9879, V-A:ASP:366:CG:3213, V-A:ASN:362:CB:3176, V-A:TYR:539:CD1:4873, V-A:LEU:363:CD1:3189, V-B:TYR:539:CZ:9849, V-A:GLU:543:CD:4908, V-A:TYR:484:CZ:4347, H-B:TYR:484:OH:9319, V-A:ARG:545:CG:4922, H-A:GLY:454:N:4050, V-A:GLY:453:C:4042, V-A:ILE:369:CD1:3239, V-A:HIS:456:CE1:4070, V-B:TYR:539:CD2:9846, V-A:GLU:543:CG:4907, V-B:GLU:543:CD:9880, V-A:TYR:539:C:4867, V-A:ASP:366:CB:3212, V-A:ARG:545:CD:4923, V-A:LEU:475:CD2:4259, H-A:ARG:545:NH2:4928, V-A:ARG:545:CZ:4926, V-A:GLU:543:CB:4906, V-A:PRO:540:N:4884, V-A:PRO:540:CB:4885, V-A:PRO:540:CA:4883, H-A:ARG:545:NE:4924, V-A:PRO:540:CD:4887, H-A:TYR:484:OH:4348"]

$$$$
ZINC409215370
     RDKit          3D

 53 55  0  0  0  0  0  0  0  0999 V2000
  126.7000  123.2260   61.6390 C   0  0  0  0  0  0  0  0  0  0  0  0
  127.9990  123.9650   61.9750 C   0  0  0  0  0  0  0  0  0  0  0  0
  128.6890  123.2330   62.9830 O   0  0  0  0  0  0  0  0  0  0  0  0
  129.7580  123.8160   63.6420 C   0  0  0  0  0  0  0  0  0  0  0  0
  129.6770  124.3860   64.9250 C   0  0  0  0  0  0  0  0  0  0  0  0
  130.7970  124.9600   65.5410 C   0  0  0  0  0  0  0  0  0  0  0  0
  130.6610  125.5410   66.8830 C   0  0  0  0  0  0  0  0  0  0  0  0
  129.9140  126.5380   67.1580 N   0  0  0  0  0  0  0  0  0  0  0  0
  129.8360  127.0600   68.4600 C   0  0  0  0  0  0  0  0  0  0  0  0
  130.9550  127.7220   68.9760 C   0  0  0  0  0  0  0  0  0  0  0  0
  130.9740  128.2070   70.2820 C   0  0  0  0  0  0  0  0  0  0  0  0
  129.8770  128.0160   71.1250 C   0  0  0  0  0  0  0  0  0  0  0  0
  129.9270  128.5590   72.5460 C   0  0  0  0  0  0  0  0  0  0  0  0
  128.7560  127.3200   70.6460 C   0  0  0  0  0  0  0  0  0  0  0  0
  127.5430  127.0660   71.5320 C   0  0  0  0  0  0  0  0  0  0  0  0
  128.7530  126.8410   69.3320 C   0  0  0  0  0  0  0  0  0  0  0  0
  132.0150  124.9560   64.8460 C   0  0  0  0  0  0  0  0  0  0  0  0
  132.1120  124.3960   63.5750 C   0  0  0  0  0  0  0  0  0  0  0  0
  133.9570  124.4200   62.5830 I   0  0  0  0  0  0  0  0  0  0  0  0
  130.9880  123.8250   62.9740 C   0  0  0  0  0  0  0  0  0  0  0  0
  131.0950  123.2810   61.7130 O   0  0  0  0  0  0  0  0  0  0  0  0
  130.9960  121.9170   61.4970 C   0  0  0  0  0  0  0  0  0  0  0  0
  129.8600  121.1720   61.8530 C   0  0  0  0  0  0  0  0  0  0  0  0
  129.7910  119.8070   61.5940 C   0  0  0  0  0  0  0  0  0  0  0  0
  130.8550  119.1410   60.9740 C   0  0  0  0  0  0  0  0  0  0  0  0
  130.7810  117.6860   60.6950 N   0  0  0  0  0  0  0  0  0  0  0  0
  130.4140  117.3190   59.5810 O   0  0  0  0  0  0  0  0  0  0  0  0
  131.0880  116.9000   61.5860 O   0  0  0  0  0  0  0  0  0  0  0  0
  131.9910  119.8830   60.6260 C   0  0  0  0  0  0  0  0  0  0  0  0
  132.0780  121.2580   60.8840 C   0  0  0  0  0  0  0  0  0  0  0  0
  133.3110  121.9850   60.5050 N   0  0  0  0  0  0  0  0  0  0  0  0
  134.3700  121.6630   61.0340 O   0  0  0  0  0  0  0  0  0  0  0  0
  133.2210  122.8660   59.6550 O   0  0  0  0  0  0  0  0  0  0  0  0
  126.1913  122.9366   62.5704 H   0  0  0  0  0  0  0  0  0  0  0  0
  126.0438  123.8860   61.0527 H   0  0  0  0  0  0  0  0  0  0  0  0
  126.9320  122.3247   61.0527 H   0  0  0  0  0  0  0  0  0  0  0  0
  128.6270  124.0389   61.0749 H   0  0  0  0  0  0  0  0  0  0  0  0
  127.7725  124.9795   62.3350 H   0  0  0  0  0  0  0  0  0  0  0  0
  128.7138  124.3811   65.4563 H   0  0  0  0  0  0  0  0  0  0  0  0
  131.2392  125.0883   67.7020 H   0  0  0  0  0  0  0  0  0  0  0  0
  131.8391  127.8627   68.3368 H   0  0  0  0  0  0  0  0  0  0  0  0
  131.8597  128.7444   70.6519 H   0  0  0  0  0  0  0  0  0  0  0  0
  129.8503  127.7256   73.2599 H   0  0  0  0  0  0  0  0  0  0  0  0
  130.8778  129.0895   72.7026 H   0  0  0  0  0  0  0  0  0  0  0  0
  129.0891  129.2543   72.7026 H   0  0  0  0  0  0  0  0  0  0  0  0
  127.8414  127.1285   72.5889 H   0  0  0  0  0  0  0  0  0  0  0  0
  126.7718  127.8221   71.3234 H   0  0  0  0  0  0  0  0  0  0  0  0
  127.1400  126.0640   71.3234 H   0  0  0  0  0  0  0  0  0  0  0  0
  127.8803  126.2776   68.9700 H   0  0  0  0  0  0  0  0  0  0  0  0
  132.9064  125.4016   65.3116 H   0  0  0  0  0  0  0  0  0  0  0  0
  129.0133  121.6747   62.3433 H   0  0  0  0  0  0  0  0  0  0  0  0
  128.8900  119.2444   61.8796 H   0  0  0  0  0  0  0  0  0  0  0  0
  132.8355  119.3741   60.1383 H   0  0  0  0  0  0  0  0  0  0  0  0
  1  2  1  0
  2  3  1  0
  3  4  1  0
  4  5  2  0
  5  6  1  0
  6  7  1  0
  7  8  2  0
  8  9  1  0
  9 10  2  0
 10 11  1  0
 11 12  2  0
 12 13  1  0
 12 14  1  0
 14 15  1  0
 14 16  2  0
  6 17  2  0
 17 18  1  0
 18 19  1  0
 18 20  2  0
 20 21  1  0
 21 22  1  0
 22 23  2  0
 23 24  1  0
 24 25  2  0
 25 26  1  0
 26 27  2  0
 26 28  1  0
 25 29  1  0
 29 30  2  0
 30 31  1  0
 31 32  2  0
 31 33  1  0
 20  4  1  0
 30 22  1  0
 16  9  1  0
  1 34  1  0
  1 35  1  0
  1 36  1  0
  2 37  1  0
  2 38  1  0
  5 39  1  0
  7 40  1  0
 10 41  1  0
 11 42  1  0
 13 43  1  0
 13 44  1  0
 13 45  1  0
 15 46  1  0
 15 47  1  0
 15 48  1  0
 16 49  1  0
 17 50  1  0
 23 51  1  0
 24 52  1  0
 29 53  1  0
M  CHG  4  26   1  28  -1  31   1  33  -1
M  END
>  <Binding energies>  (1) 
[-9.0]

>  <Ligand effiencies>  (1) 
[-0.2727272727272727]

>  <Interactions>  (1) 
["V-A:ILE:369:CG2:3237, V-B:PRO:540:CA:9855, V-B:GLU:543:C:9874, V-B:HIS:456:CD2:9039, V-A:GLU:543:C:4902, V-B:GLU:543:CB:9878, V-B:ALA:541:CB:9864, V-B:TYR:539:CE2:9848, V-B:GLU:543:CG:9879, V-A:GLY:544:C:4912, V-A:HIS:383:CE1:3393, V-B:PRO:540:CB:9857, V-A:ARG:545:CG:4922, V-B:HIS:456:CE1:9041, V-A:HIS:456:CE1:4070, V-B:GLY:544:C:9884, V-B:TYR:539:CD2:9846, V-A:SER:385:CB:3409, H-A:SER:385:OG:3410, V-B:GLU:543:CD:9880, V-A:LEU:475:CD2:4259, V-A:ARG:545:CZ:4926, V-A:GLU:543:CB:4906, H-A:HIS:383:HE2:3395, V-B:PRO:540:C:9853, V-A:HIS:383:NE2:3394"]

$$$$
ZINC409228432-again1
     RDKit          3D

 52 54  0  0  0  0  0  0  0  0999 V2000
  130.7640  127.3610   72.4030 C   0  0  0  0  0  0  0  0  0  0  0  0
  129.5900  127.2680   71.4470 C   0  0  0  0  0  0  0  0  0  0  0  0
  128.2840  127.3650   71.9330 C   0  0  0  0  0  0  0  0  0  0  0  0
  127.2000  127.2660   71.0620 C   0  0  0  0  0  0  0  0  0  0  0  0
  127.4030  127.0680   69.6930 C   0  0  0  0  0  0  0  0  0  0  0  0
  126.1930  126.9630   68.7720 C   0  0  0  0  0  0  0  0  0  0  0  0
  128.7200  126.9730   69.1970 C   0  0  0  0  0  0  0  0  0  0  0  0
  128.9840  126.7560   67.8110 N   0  0  0  0  0  0  0  0  0  0  0  0
  129.5400  125.5190   67.4940 C   0  0  0  0  0  0  0  0  0  0  0  0
  129.8500  124.6910   68.3620 O   0  0  0  0  0  0  0  0  0  0  0  0
  129.7430  125.2500   66.0520 C   0  0  0  0  0  0  0  0  0  0  0  0
  130.1030  123.9730   65.7020 C   0  0  0  0  0  0  0  0  0  0  0  0
  130.3220  123.3340   64.4110 C   0  0  0  0  0  0  0  0  0  0  0  0
  129.4490  122.4820   63.7350 C   0  0  0  0  0  0  0  0  0  0  0  0
  130.0240  122.0590   62.5550 C   0  0  0  0  0  0  0  0  0  0  0  0
  129.4610  121.1320   61.4940 C   0  0  0  0  0  0  0  0  0  0  0  0
  131.2800  122.6400   62.4750 N   0  0  0  0  0  0  0  0  0  0  0  0
  132.2260  122.4280   61.3540 C   0  0  0  0  0  0  0  0  0  0  0  0
  133.5020  121.7200   61.8470 C   0  0  0  0  0  0  0  0  0  0  0  0
  132.5050  123.7040   60.5340 C   0  0  0  0  0  0  0  0  0  0  0  0
  131.4730  123.4010   63.6270 C   0  0  0  0  0  0  0  0  0  0  0  0
  132.7520  124.1680   63.9190 C   0  0  0  0  0  0  0  0  0  0  0  0
  129.5200  126.3780   65.1290 C   0  0  0  0  0  0  0  0  0  0  0  0
  129.8380  126.3370   63.9280 O   0  0  0  0  0  0  0  0  0  0  0  0
  129.0490  127.4950   65.5250 N   0  0  0  0  0  0  0  0  0  0  0  0
  128.7180  127.7450   66.8510 C   0  0  0  0  0  0  0  0  0  0  0  0
  128.0420  129.2480   67.1710 S   0  0  0  0  0  0  0  0  0  0  0  0
  129.8040  127.0680   70.0820 C   0  0  0  0  0  0  0  0  0  0  0  0
  130.3962  127.3319   73.4393 H   0  0  0  0  0  0  0  0  0  0  0  0
  131.4445  126.5139   72.2315 H   0  0  0  0  0  0  0  0  0  0  0  0
  131.3027  128.3046   72.2315 H   0  0  0  0  0  0  0  0  0  0  0  0
  128.1101  127.5202   73.0080 H   0  0  0  0  0  0  0  0  0  0  0  0
  126.1758  127.3444   71.4554 H   0  0  0  0  0  0  0  0  0  0  0  0
  125.2776  126.8836   69.3768 H   0  0  0  0  0  0  0  0  0  0  0  0
  126.1364  127.8596   68.1373 H   0  0  0  0  0  0  0  0  0  0  0  0
  126.2917  126.0700   68.1373 H   0  0  0  0  0  0  0  0  0  0  0  0
  130.2556  123.3031   66.5610 H   0  0  0  0  0  0  0  0  0  0  0  0
  128.4496  122.1905   64.0904 H   0  0  0  0  0  0  0  0  0  0  0  0
  128.9485  120.2881   61.9789 H   0  0  0  0  0  0  0  0  0  0  0  0
  128.7455  121.6841   60.8669 H   0  0  0  0  0  0  0  0  0  0  0  0
  130.2808  120.7517   60.8669 H   0  0  0  0  0  0  0  0  0  0  0  0
  131.7365  121.7542   60.6354 H   0  0  0  0  0  0  0  0  0  0  0  0
  133.5155  121.7125   62.9469 H   0  0  0  0  0  0  0  0  0  0  0  0
  133.5151  120.6856   61.4731 H   0  0  0  0  0  0  0  0  0  0  0  0
  134.3866  122.2563   61.4731 H   0  0  0  0  0  0  0  0  0  0  0  0
  132.6891  124.5461   61.2174 H   0  0  0  0  0  0  0  0  0  0  0  0
  133.3899  123.5462   59.8999 H   0  0  0  0  0  0  0  0  0  0  0  0
  131.6350  123.9299   59.8999 H   0  0  0  0  0  0  0  0  0  0  0  0
  132.8897  124.2506   65.0072 H   0  0  0  0  0  0  0  0  0  0  0  0
  133.6080  123.6340   63.4806 H   0  0  0  0  0  0  0  0  0  0  0  0
  132.6841  125.1746   63.4806 H   0  0  0  0  0  0  0  0  0  0  0  0
  130.8312  126.9842   69.6974 H   0  0  0  0  0  0  0  0  0  0  0  0
  1  2  1  0
  2  3  2  0
  3  4  1  0
  4  5  2  0
  5  6  1  0
  5  7  1  0
  7  8  1  0
  8  9  1  0
  9 10  2  0
  9 11  1  0
 11 12  2  0
 12 13  1  0
 13 14  1  0
 14 15  2  0
 15 16  1  0
 15 17  1  0
 17 18  1  0
 18 19  1  0
 18 20  1  0
 17 21  1  0
 21 22  1  0
 11 23  1  0
 23 24  1  0
 23 25  2  0
 25 26  1  0
 26 27  2  0
  7 28  2  0
 28  2  1  0
 26  8  1  0
 21 13  2  0
  1 29  1  0
  1 30  1  0
  1 31  1  0
  3 32  1  0
  4 33  1  0
  6 34  1  0
  6 35  1  0
  6 36  1  0
 12 37  1  0
 14 38  1  0
 16 39  1  0
 16 40  1  0
 16 41  1  0
 18 42  1  0
 19 43  1  0
 19 44  1  0
 19 45  1  0
 20 46  1  0
 20 47  1  0
 20 48  1  0
 22 49  1  0
 22 50  1  0
 22 51  1  0
 28 52  1  0
M  CHG  1  24  -1
M  END
>  <Binding energies>  (1) 
[-6.39]

>  <Ligand effiencies>  (1) 
[-0.2282142857142857]

>  <Interactions>  (1) 
["V-B:HIS:456:CD2:9039, V-B:GLU:543:C:9874, V-B:GLU:543:CB:9878, V-B:ALA:541:CB:9864, V-B:TYR:539:CE2:9848, V-A:TYR:484:CE2:4346, V-B:GLU:543:CG:9879, V-A:GLY:544:C:4912, V-A:HIS:456:CD2:4068, V-B:ARG:545:CG:9894, V-A:TYR:484:CZ:4347, V-A:GLU:543:CD:4908, V-B:HIS:456:CE1:9041, V-B:GLU:543:CA:9876, V-A:HIS:456:CE1:4070, V-B:TYR:484:CZ:9318, V-B:GLY:544:C:9884, V-A:GLU:543:CG:4907, V-B:GLU:543:CD:9880, V-B:HIS:456:CG:9037, V-A:LEU:475:CD2:4259, V-A:GLU:543:CB:4906, V-B:ARG:545:CA:9891, V-B:PRO:540:C:9853"]

$$$$
ZINC409248114
     RDKit          3D

 64 67  0  0  0  0  0  0  0  0999 V2000
  133.2030  121.0410   60.7120 C   0  0  0  0  0  0  0  0  0  0  0  0
  132.1650  121.9540   60.3750 O   0  0  0  0  0  0  0  0  0  0  0  0
  131.0450  122.0440   61.1790 C   0  0  0  0  0  0  0  0  0  0  0  0
  129.7630  121.6380   60.7720 C   0  0  0  0  0  0  0  0  0  0  0  0
  128.6700  121.7860   61.6190 C   0  0  0  0  0  0  0  0  0  0  0  0
  128.8370  122.3560   62.8760 C   0  0  0  0  0  0  0  0  0  0  0  0
  130.1000  122.7760   63.3080 C   0  0  0  0  0  0  0  0  0  0  0  0
  130.2560  123.4310   64.6260 C   0  0  0  0  0  0  0  0  0  0  0  0
  129.8580  124.6820   64.9620 C   0  0  0  0  0  0  0  0  0  0  0  0
  129.1020  125.9080   63.9540 S   0  0  0  0  0  0  0  0  0  0  0  0
  129.0310  127.0860   65.3030 C   0  0  0  0  0  0  0  0  0  0  0  0
  128.5510  128.2710   65.1990 N   0  0  0  0  0  0  0  0  0  0  0  0
  127.8810  128.7740   64.0740 C   0  0  0  0  0  0  0  0  0  0  0  0
  126.5540  129.1960   64.2160 C   0  0  0  0  0  0  0  0  0  0  0  0
  125.8270  129.6650   63.1240 C   0  0  0  0  0  0  0  0  0  0  0  0
  126.4210  129.6970   61.8660 C   0  0  0  0  0  0  0  0  0  0  0  0
  127.7290  129.2560   61.6920 C   0  0  0  0  0  0  0  0  0  0  0  0
  128.4490  128.7890   62.7890 C   0  0  0  0  0  0  0  0  0  0  0  0
  129.5950  126.4740   66.3820 N   0  0  0  0  0  0  0  0  0  0  0  0
  129.6850  127.2030   67.6680 C   0  0  0  0  0  0  0  0  0  0  0  0
  128.3360  127.7320   68.2060 C   0  0  0  0  0  0  0  0  0  0  0  0
  127.7750  126.9350   69.3990 C   0  0  0  0  0  0  0  0  0  0  0  0
  128.4150  127.3340   70.7200 C   0  0  0  0  0  0  0  0  0  0  0  0
  127.6620  127.3090   71.8970 C   0  0  0  0  0  0  0  0  0  0  0  0
  128.2510  127.6680   73.1070 C   0  0  0  0  0  0  0  0  0  0  0  0
  129.5910  128.0510   73.1350 C   0  0  0  0  0  0  0  0  0  0  0  0
  130.3480  128.0770   71.9640 C   0  0  0  0  0  0  0  0  0  0  0  0
  129.7590  127.7170   70.7550 C   0  0  0  0  0  0  0  0  0  0  0  0
  130.0550  125.1990   66.2940 C   0  0  0  0  0  0  0  0  0  0  0  0
  130.5650  124.5740   67.2310 O   0  0  0  0  0  0  0  0  0  0  0  0
  131.2130  122.5830   62.4650 C   0  0  0  0  0  0  0  0  0  0  0  0
  132.4720  122.9750   62.8780 O   0  0  0  0  0  0  0  0  0  0  0  0
  132.7790  124.3760   62.7540 C   0  0  2  0  0  0  0  0  0  0  0  0
  133.1670  124.6510   61.2880 C   0  0  0  0  0  0  0  0  0  0  0  0
  133.9340  124.7640   63.7170 C   0  0  0  0  0  0  0  0  0  0  0  0
  133.7240  124.7320   64.9520 O   0  0  0  0  0  0  0  0  0  0  0  0
  135.0360  125.0610   63.1980 O   0  0  0  0  0  0  0  0  0  0  0  0
  133.2860  120.9680   61.8064 H   0  0  0  0  0  0  0  0  0  0  0  0
  132.9695  120.0502   60.2951 H   0  0  0  0  0  0  0  0  0  0  0  0
  134.1559  121.3990   60.2951 H   0  0  0  0  0  0  0  0  0  0  0  0
  129.6224  121.1987   59.7734 H   0  0  0  0  0  0  0  0  0  0  0  0
  127.6734  121.4521   61.2944 H   0  0  0  0  0  0  0  0  0  0  0  0
  127.9671  122.4781   63.5380 H   0  0  0  0  0  0  0  0  0  0  0  0
  130.7459  122.8411   65.4147 H   0  0  0  0  0  0  0  0  0  0  0  0
  126.0771  129.1567   65.2065 H   0  0  0  0  0  0  0  0  0  0  0  0
  124.7901  130.0078   63.2554 H   0  0  0  0  0  0  0  0  0  0  0  0
  125.8523  130.0736   61.0030 H   0  0  0  0  0  0  0  0  0  0  0  0
  128.1917  129.2760   60.6942 H   0  0  0  0  0  0  0  0  0  0  0  0
  129.4778  128.4265   62.6472 H   0  0  0  0  0  0  0  0  0  0  0  0
  130.1100  126.5212   68.4194 H   0  0  0  0  0  0  0  0  0  0  0  0
  130.3131  128.0865   67.4811 H   0  0  0  0  0  0  0  0  0  0  0  0
  128.4770  128.7755   68.5241 H   0  0  0  0  0  0  0  0  0  0  0  0
  127.6079  127.6302   67.3878 H   0  0  0  0  0  0  0  0  0  0  0  0
  126.6915  127.1135   69.4640 H   0  0  0  0  0  0  0  0  0  0  0  0
  128.0007  125.8724   69.2262 H   0  0  0  0  0  0  0  0  0  0  0  0
  126.6049  127.0060   71.8678 H   0  0  0  0  0  0  0  0  0  0  0  0
  127.6618  127.6494   74.0357 H   0  0  0  0  0  0  0  0  0  0  0  0
  130.0561  128.3356   74.0904 H   0  0  0  0  0  0  0  0  0  0  0  0
  131.4049  128.3803   71.9955 H   0  0  0  0  0  0  0  0  0  0  0  0
  130.3508  127.7339   69.8279 H   0  0  0  0  0  0  0  0  0  0  0  0
  131.9048  124.9850   63.0278 H   0  0  0  0  0  0  0  0  0  0  0  0
  134.0641  125.2869   61.2592 H   0  0  0  0  0  0  0  0  0  0  0  0
  133.3762  123.6984   60.7792 H   0  0  0  0  0  0  0  0  0  0  0  0
  132.3375  125.1640   60.7792 H   0  0  0  0  0  0  0  0  0  0  0  0
  1  2  1  0
  2  3  1  0
  3  4  2  0
  4  5  1  0
  5  6  2  0
  6  7  1  0
  7  8  1  0
  8  9  2  0
  9 10  1  0
 10 11  1  0
 11 12  2  0
 12 13  1  0
 13 14  2  0
 14 15  1  0
 15 16  2  0
 16 17  1  0
 17 18  2  0
 11 19  1  0
 19 20  1  0
 20 21  1  0
 21 22  1  0
 22 23  1  0
 23 24  2  0
 24 25  1  0
 25 26  2  0
 26 27  1  0
 27 28  2  0
 19 29  1  0
 29 30  2  0
  7 31  2  0
 31 32  1  0
 32 33  1  0
 33 34  1  0
 33 35  1  0
 35 36  2  0
 35 37  1  0
 31  3  1  0
 29  9  1  0
 18 13  1  0
 28 23  1  0
  1 38  1  0
  1 39  1  0
  1 40  1  0
  4 41  1  0
  5 42  1  0
  6 43  1  0
  8 44  1  0
 14 45  1  0
 15 46  1  0
 16 47  1  0
 17 48  1  0
 18 49  1  0
 20 50  1  0
 20 51  1  0
 21 52  1  0
 21 53  1  0
 22 54  1  0
 22 55  1  0
 24 56  1  0
 25 57  1  0
 26 58  1  0
 27 59  1  0
 28 60  1  0
 33 61  1  1
 34 62  1  0
 34 63  1  0
 34 64  1  0
M  CHG  1  37  -1
M  END
>  <Binding energies>  (1) 
[-7.61]

>  <Ligand effiencies>  (1) 
[-0.20567567567567568]

>  <Interactions>  (1) 
["V-A:ILE:369:CG2:3237, V-B:PRO:540:CA:9855, V-A:GLY:454:CA:4049, V-B:GLU:543:C:9874, V-B:HIS:456:CD2:9039, V-B:GLU:543:CB:9878, V-B:ALA:541:CB:9864, H-A:ARG:545:NH1:4927, V-A:TYR:484:CE2:4346, V-B:TYR:539:CE2:9848, V-B:GLU:543:CG:9879, V-A:GLY:544:C:4912, V-A:ASP:366:CG:3213, V-A:GLU:543:CD:4908, V-B:HIS:456:CE1:9041, H-A:GLY:454:N:4050, V-A:GLY:453:C:4042, V-A:HIS:456:CE1:4070, V-B:GLY:544:C:9884, V-B:TYR:539:CD2:9846, V-A:SER:385:CB:3409, V-B:GLU:543:CD:9880, V-B:HIS:456:CG:9037, V-A:LEU:475:CD2:4259, H-A:ARG:545:NH2:4928, V-A:ARG:545:CZ:4926, V-A:GLU:543:CB:4906, V-A:GLY:453:CA:4044, H-A:ARG:545:NE:4924, V-B:PRO:540:C:9853, V-B:ALA:541:CA:9862, H-A:TYR:484:OH:4348"]

$$$$
ZINC409275881
     RDKit          3D

 66 71  0  0  0  0  0  0  0  0999 V2000
  129.5230  122.6730   64.9630 C   0  0  0  0  0  0  0  0  0  0  0  0
  130.1300  123.8850   64.2520 C   0  0  0  0  0  0  0  0  0  0  0  0
  130.2270  124.9560   65.1850 O   0  0  0  0  0  0  0  0  0  0  0  0
  129.6370  126.1740   64.8950 C   0  0  0  0  0  0  0  0  0  0  0  0
  129.6770  126.7870   63.6340 C   0  0  0  0  0  0  0  0  0  0  0  0
  129.0550  128.0200   63.4020 C   0  0  0  0  0  0  0  0  0  0  0  0
  129.1550  128.6340   62.0790 C   0  0  0  0  0  0  0  0  0  0  0  0
  130.2830  128.9100   61.5380 N   0  0  0  0  0  0  0  0  0  0  0  0
  130.2480  129.5520   60.3150 N   0  0  0  0  0  0  0  0  0  0  0  0
  130.7930  128.9230   59.1800 C   0  0  0  0  0  0  0  0  0  0  0  0
  131.4580  127.6100   59.1550 C   0  0  0  0  0  0  0  0  0  0  0  0
  132.0490  126.8920   58.1150 C   0  0  0  0  0  0  0  0  0  0  0  0
  132.5590  125.6860   58.6850 C   0  0  0  0  0  0  0  0  0  0  0  0
  133.2620  124.5620   58.2240 C   0  0  0  0  0  0  0  0  0  0  0  0
  133.5980  123.5600   59.1390 C   0  0  0  0  0  0  0  0  0  0  0  0
  133.2470  123.6570   60.4880 C   0  0  0  0  0  0  0  0  0  0  0  0
  132.5430  124.7590   60.9750 C   0  0  0  0  0  0  0  0  0  0  0  0
  132.2120  125.7570   60.0520 C   0  0  0  0  0  0  0  0  0  0  0  0
  131.5390  126.9110   60.3270 O   0  0  0  0  0  0  0  0  0  0  0  0
  130.7380  129.5180   58.0380 N   0  0  0  0  0  0  0  0  0  0  0  0
  130.1170  130.7610   57.8810 C   0  0  0  0  0  0  0  0  0  0  0  0
  130.0960  131.3400   56.6110 C   0  0  0  0  0  0  0  0  0  0  0  0
  129.4750  132.5770   56.4240 C   0  0  0  0  0  0  0  0  0  0  0  0
  128.8760  133.2320   57.5020 C   0  0  0  0  0  0  0  0  0  0  0  0
  128.8940  132.6560   58.7740 C   0  0  0  0  0  0  0  0  0  0  0  0
  129.5210  131.4180   58.9600 C   0  0  0  0  0  0  0  0  0  0  0  0
  129.5600  130.7600   60.3240 C   0  0  0  0  0  0  0  0  0  0  0  0
  129.0340  131.2700   61.3220 O   0  0  0  0  0  0  0  0  0  0  0  0
  128.3750  128.6540   64.4580 C   0  0  0  0  0  0  0  0  0  0  0  0
  127.5110  130.3450   64.1960 Br  0  0  0  0  0  0  0  0  0  0  0  0
  128.3320  128.0500   65.7220 C   0  0  0  0  0  0  0  0  0  0  0  0
  127.4180  128.8890   67.1740 Br  0  0  0  0  0  0  0  0  0  0  0  0
  128.9680  126.8230   65.9370 C   0  0  0  0  0  0  0  0  0  0  0  0
  128.9230  126.2430   67.1820 O   0  0  0  0  0  0  0  0  0  0  0  0
  129.8700  126.7710   68.1040 C   0  0  0  0  0  0  0  0  0  0  0  0
  129.1750  127.0310   69.4280 C   0  0  0  0  0  0  0  0  0  0  0  0
  127.8230  126.7290   69.5880 C   0  0  0  0  0  0  0  0  0  0  0  0
  127.1950  126.9730   70.8050 C   0  0  0  0  0  0  0  0  0  0  0  0
  127.9130  127.5220   71.8660 C   0  0  0  0  0  0  0  0  0  0  0  0
  129.2810  127.8420   71.7400 C   0  0  0  0  0  0  0  0  0  0  0  0
  130.0630  128.4370   72.8930 C   0  0  0  0  0  0  0  0  0  0  0  0
  130.3490  129.6590   72.8620 O   0  0  0  0  0  0  0  0  0  0  0  0
  130.4000  127.6920   73.8440 O   0  0  0  0  0  0  0  0  0  0  0  0
  129.8920  127.5820   70.4950 C   0  0  0  0  0  0  0  0  0  0  0  0
  129.5933  122.8134   66.0517 H   0  0  0  0  0  0  0  0  0  0  0  0
  128.4667  122.5695   64.6741 H   0  0  0  0  0  0  0  0  0  0  0  0
  130.0728  121.7651   64.6741 H   0  0  0  0  0  0  0  0  0  0  0  0
  131.1313  123.6303   63.8745 H   0  0  0  0  0  0  0  0  0  0  0  0
  129.4948  124.1810   63.4041 H   0  0  0  0  0  0  0  0  0  0  0  0
  130.2083  126.2886   62.8098 H   0  0  0  0  0  0  0  0  0  0  0  0
  128.2308  128.8668   61.5297 H   0  0  0  0  0  0  0  0  0  0  0  0
  132.1103  127.1961   57.0597 H   0  0  0  0  0  0  0  0  0  0  0  0
  133.5428  124.4714   57.1643 H   0  0  0  0  0  0  0  0  0  0  0  0
  134.1509  122.6757   58.7893 H   0  0  0  0  0  0  0  0  0  0  0  0
  133.5309  122.8496   61.1790 H   0  0  0  0  0  0  0  0  0  0  0  0
  132.2614  124.8393   62.0353 H   0  0  0  0  0  0  0  0  0  0  0  0
  130.5666  130.8242   55.7610 H   0  0  0  0  0  0  0  0  0  0  0  0
  129.4577  133.0365   55.4247 H   0  0  0  0  0  0  0  0  0  0  0  0
  128.3879  134.2058   57.3486 H   0  0  0  0  0  0  0  0  0  0  0  0
  128.4196  133.1705   59.6226 H   0  0  0  0  0  0  0  0  0  0  0  0
  130.6854  126.0474   68.2508 H   0  0  0  0  0  0  0  0  0  0  0  0
  130.2883  127.7098   67.7120 H   0  0  0  0  0  0  0  0  0  0  0  0
  127.2531  126.2978   68.7518 H   0  0  0  0  0  0  0  0  0  0  0  0
  126.1291  126.7321   70.9303 H   0  0  0  0  0  0  0  0  0  0  0  0
  127.4020  127.7097   72.8219 H   0  0  0  0  0  0  0  0  0  0  0  0
  130.9578  127.8183   70.3604 H   0  0  0  0  0  0  0  0  0  0  0  0
  1  2  1  0
  2  3  1  0
  3  4  1  0
  4  5  2  0
  5  6  1  0
  6  7  1  0
  7  8  2  0
  8  9  1  0
  9 10  1  0
 10 11  1  0
 11 12  2  0
 12 13  1  0
 13 14  2  0
 14 15  1  0
 15 16  2  0
 16 17  1  0
 17 18  2  0
 18 19  1  0
 10 20  2  0
 20 21  1  0
 21 22  2  0
 22 23  1  0
 23 24  2  0
 24 25  1  0
 25 26  2  0
 26 27  1  0
 27 28  2  0
  6 29  2  0
 29 30  1  0
 29 31  1  0
 31 32  1  0
 31 33  2  0
 33 34  1  0
 34 35  1  0
 35 36  1  0
 36 37  2  0
 37 38  1  0
 38 39  2  0
 39 40  1  0
 40 41  1  0
 41 42  2  0
 41 43  1  0
 40 44  2  0
 33  4  1  0
 44 36  1  0
 27  9  1  0
 19 11  1  0
 26 21  1  0
 18 13  1  0
  1 45  1  0
  1 46  1  0
  1 47  1  0
  2 48  1  0
  2 49  1  0
  5 50  1  0
  7 51  1  0
 12 52  1  0
 14 53  1  0
 15 54  1  0
 16 55  1  0
 17 56  1  0
 22 57  1  0
 23 58  1  0
 24 59  1  0
 25 60  1  0
 35 61  1  0
 35 62  1  0
 37 63  1  0
 38 64  1  0
 39 65  1  0
 44 66  1  0
M  CHG  1  43  -1
M  END
>  <Binding energies>  (1) 
[-9.73]

>  <Ligand effiencies>  (1) 
[-0.22113636363636366]

>  <Interactions>  (1) 
["V-A:ILE:369:CG2:3237, V-A:ASP:366:CA:3210, V-B:GLU:543:C:9874, V-A:ILE:369:CB:3236, V-B:HIS:456:CD2:9039, V-B:GLU:543:CB:9878, V-B:ALA:541:CB:9864, H-A:TYR:531:OH:4795, V-A:TYR:484:CE2:4346, V-B:TYR:539:CE2:9848, V-B:GLU:543:CG:9879, V-A:ASP:366:CG:3213, V-A:TYR:539:CD1:4873, V-B:TYR:539:CZ:9849, V-A:TYR:539:CA:4869, V-A:GLU:543:CD:4908, V-B:HIS:456:CE1:9041, V-B:TYR:484:CZ:9318, V-A:HIS:456:CE1:4070, V-A:ASP:366:C:3208, V-B:GLY:544:C:9884, V-B:GLY:544:CA:9886, V-A:GLU:543:CG:4907, V-A:TYR:531:CZ:4794, V-B:GLU:543:CD:9880, V-A:MET:535:CE:4835, V-B:HIS:456:CG:9037, V-A:TYR:539:C:4867, V-A:ASP:366:CB:3212, H-A:LYS:547:NZ:4951, V-A:PRO:540:N:4884, V-A:TYR:539:CG:4872, V-A:PRO:540:CA:4883, V-A:TYR:539:CE1:4875"]

$$$$
ZINC409277695
     RDKit          3D

 59 63  0  0  0  0  0  0  0  0999 V2000
  130.9080  130.5410   60.5480 O   0  0  0  0  0  0  0  0  0  0  0  0
  129.6990  130.2810   60.4900 C   0  0  0  0  0  0  0  0  0  0  0  0
  128.6370  131.3380   60.6970 C   0  0  0  0  0  0  0  0  0  0  0  0
  128.9850  132.6650   60.9790 C   0  0  0  0  0  0  0  0  0  0  0  0
  127.9770  133.6130   61.1670 C   0  0  0  0  0  0  0  0  0  0  0  0
  126.6350  133.2420   61.0740 C   0  0  0  0  0  0  0  0  0  0  0  0
  126.2910  131.9190   60.7880 C   0  0  0  0  0  0  0  0  0  0  0  0
  127.2960  130.9690   60.5980 C   0  0  0  0  0  0  0  0  0  0  0  0
  126.9270  129.6550   60.3000 N   0  0  0  0  0  0  0  0  0  0  0  0
  127.7890  128.7140   60.1040 C   0  0  0  0  0  0  0  0  0  0  0  0
  127.2900  127.3580   59.7560 C   0  0  0  0  0  0  0  0  0  0  0  0
  126.4800  127.1330   58.6310 C   0  0  0  0  0  0  0  0  0  0  0  0
  126.0030  125.8550   58.3430 C   0  0  0  0  0  0  0  0  0  0  0  0
  126.2990  124.7910   59.1900 C   0  0  0  0  0  0  0  0  0  0  0  0
  127.0750  124.9930   60.3360 C   0  0  0  0  0  0  0  0  0  0  0  0
  127.3410  123.8340   61.2980 C   0  0  0  0  0  0  0  0  0  0  0  0
  126.2150  123.3560   61.8280 F   0  0  0  0  0  0  0  0  0  0  0  0
  127.9360  122.8490   60.6260 F   0  0  0  0  0  0  0  0  0  0  0  0
  128.1440  124.2090   62.2940 F   0  0  0  0  0  0  0  0  0  0  0  0
  127.5770  126.2730   60.6010 C   0  0  0  0  0  0  0  0  0  0  0  0
  129.1620  129.0190   60.2480 N   0  0  0  0  0  0  0  0  0  0  0  0
  130.1270  128.0440   60.0600 N   0  0  0  0  0  0  0  0  0  0  0  0
  130.5070  127.3880   61.0950 C   0  0  0  0  0  0  0  0  0  0  0  0
  131.5490  126.3500   61.0640 C   0  0  0  0  0  0  0  0  0  0  0  0
  132.0470  125.8720   59.8420 C   0  0  0  0  0  0  0  0  0  0  0  0
  133.0440  124.9020   59.8040 C   0  0  0  0  0  0  0  0  0  0  0  0
  133.6380  124.3330   58.2870 Cl  0  0  0  0  0  0  0  0  0  0  0  0
  133.5670  124.3970   60.9900 C   0  0  0  0  0  0  0  0  0  0  0  0
  133.0990  124.8520   62.2280 C   0  0  0  0  0  0  0  0  0  0  0  0
  133.6910  124.3070   63.4690 N   0  0  0  0  0  0  0  0  0  0  0  0
  134.2370  125.0900   64.2400 O   0  0  0  0  0  0  0  0  0  0  0  0
  133.5950  123.1030   63.6850 O   0  0  0  0  0  0  0  0  0  0  0  0
  132.0720  125.8180   62.2600 C   0  0  0  0  0  0  0  0  0  0  0  0
  131.5640  126.2400   63.4670 O   0  0  0  0  0  0  0  0  0  0  0  0
  130.3050  125.6620   63.8090 C   0  0  0  0  0  0  0  0  0  0  0  0
  129.8730  126.0590   65.2190 C   0  0  0  0  0  0  0  0  0  0  0  0
  130.3370  125.3550   66.3390 C   0  0  0  0  0  0  0  0  0  0  0  0
  129.9400  125.7220   67.6250 C   0  0  0  0  0  0  0  0  0  0  0  0
  129.0720  126.7970   67.8040 C   0  0  0  0  0  0  0  0  0  0  0  0
  128.5350  127.3060   69.5580 Br  0  0  0  0  0  0  0  0  0  0  0  0
  128.6050  127.5060   66.6990 C   0  0  0  0  0  0  0  0  0  0  0  0
  129.0070  127.1490   65.4110 C   0  0  0  0  0  0  0  0  0  0  0  0
  128.3590  128.1750   63.9390 Br  0  0  0  0  0  0  0  0  0  0  0  0
  130.0428  132.9578   61.0517 H   0  0  0  0  0  0  0  0  0  0  0  0
  128.2421  134.6571   61.3895 H   0  0  0  0  0  0  0  0  0  0  0  0
  125.8462  133.9934   61.2263 H   0  0  0  0  0  0  0  0  0  0  0  0
  125.2331  131.6270   60.7128 H   0  0  0  0  0  0  0  0  0  0  0  0
  126.2194  127.9733   57.9707 H   0  0  0  0  0  0  0  0  0  0  0  0
  125.3913  125.6872   57.4443 H   0  0  0  0  0  0  0  0  0  0  0  0
  125.9203  123.7849   58.9567 H   0  0  0  0  0  0  0  0  0  0  0  0
  128.2082  126.4320   61.4878 H   0  0  0  0  0  0  0  0  0  0  0  0
  130.0272  127.6142   62.0587 H   0  0  0  0  0  0  0  0  0  0  0  0
  131.6429  126.2703   58.8996 H   0  0  0  0  0  0  0  0  0  0  0  0
  134.3567  123.6320   60.9544 H   0  0  0  0  0  0  0  0  0  0  0  0
  129.5460  126.0077   63.0917 H   0  0  0  0  0  0  0  0  0  0  0  0
  130.4062  124.5672   63.7738 H   0  0  0  0  0  0  0  0  0  0  0  0
  131.0211  124.5045   66.2024 H   0  0  0  0  0  0  0  0  0  0  0  0
  130.3118  125.1634   68.4966 H   0  0  0  0  0  0  0  0  0  0  0  0
  127.9160  128.3514   66.8426 H   0  0  0  0  0  0  0  0  0  0  0  0
  1  2  2  0
  2  3  1  0
  3  4  2  0
  4  5  1  0
  5  6  2  0
  6  7  1  0
  7  8  2  0
  8  9  1  0
  9 10  2  0
 10 11  1  0
 11 12  2  0
 12 13  1  0
 13 14  2  0
 14 15  1  0
 15 16  1  0
 16 17  1  0
 16 18  1  0
 16 19  1  0
 15 20  2  0
 10 21  1  0
 21 22  1  0
 22 23  2  0
 23 24  1  0
 24 25  2  0
 25 26  1  0
 26 27  1  0
 26 28  2  0
 28 29  1  0
 29 30  1  0
 30 31  2  0
 30 32  1  0
 29 33  2  0
 33 34  1  0
 34 35  1  0
 35 36  1  0
 36 37  2  0
 37 38  1  0
 38 39  2  0
 39 40  1  0
 39 41  1  0
 41 42  2  0
 42 43  1  0
 21  2  1  0
 33 24  1  0
 42 36  1  0
  8  3  1  0
 20 11  1  0
  4 44  1  0
  5 45  1  0
  6 46  1  0
  7 47  1  0
 12 48  1  0
 13 49  1  0
 14 50  1  0
 20 51  1  0
 23 52  1  0
 25 53  1  0
 28 54  1  0
 35 55  1  0
 35 56  1  0
 37 57  1  0
 38 58  1  0
 41 59  1  0
M  CHG  2  30   1  32  -1
M  END
>  <Binding energies>  (1) 
[-8.82]

>  <Ligand effiencies>  (1) 
[-0.20511627906976745]

>  <Interactions>  (1) 
["V-A:ILE:369:CG2:3237, V-A:ASP:366:CA:3210, V-B:PRO:540:CA:9855, V-A:GLY:454:CA:4049, V-A:ILE:369:CB:3236, V-B:GLU:543:CB:9878, H-A:ARG:545:NH1:4927, V-B:TYR:539:CE2:9848, V-B:GLU:543:CG:9879, V-A:ASP:366:CG:3213, V-A:TYR:539:CD1:4873, V-B:TYR:539:CZ:9849, V-A:GLU:543:CD:4908, V-B:PRO:540:CB:9857, V-B:HIS:456:CE1:9041, H-A:GLY:454:N:4050, V-A:HIS:456:CE1:4070, V-A:ASP:366:C:3208, V-B:GLU:543:CD:9880, V-A:ASP:366:CB:3212, H-A:ARG:545:NH2:4928, V-A:ARG:545:CZ:4926, V-A:PRO:540:CA:4883, H-A:ARG:545:NE:4924, V-B:PRO:540:C:9853, V-A:TYR:539:CE1:4875, H-A:TYR:484:OH:4348"]

$$$$
ZINC409279297
     RDKit          3D

 52 55  0  0  0  0  0  0  0  0999 V2000
  131.6880  126.5600   59.7270 C   0  0  0  0  0  0  0  0  0  0  0  0
  131.5770  126.1550   61.2080 C   0  0  0  0  0  0  0  0  0  0  0  0
  131.0300  124.7290   61.3700 C   0  0  0  0  0  0  0  0  0  0  0  0
  131.8260  123.7650   61.0630 N   0  0  0  0  0  0  0  0  0  0  0  0
  131.4010  122.4350   61.1630 C   0  0  0  0  0  0  0  0  0  0  0  0
  132.3020  121.4240   60.8270 C   0  0  0  0  0  0  0  0  0  0  0  0
  131.9030  120.0880   60.8990 C   0  0  0  0  0  0  0  0  0  0  0  0
  130.6050  119.7630   61.2980 C   0  0  0  0  0  0  0  0  0  0  0  0
  130.0720  117.9390   61.4000 Br  0  0  0  0  0  0  0  0  0  0  0  0
  129.6980  120.7710   61.6310 C   0  0  0  0  0  0  0  0  0  0  0  0
  130.1010  122.1090   61.5680 C   0  0  0  0  0  0  0  0  0  0  0  0
  129.1490  123.2280   61.9450 C   0  0  0  0  0  0  0  0  0  0  0  0
  127.9870  123.0140   62.3110 O   0  0  0  0  0  0  0  0  0  0  0  0
  129.7300  124.4880   61.8400 N   0  0  0  0  0  0  0  0  0  0  0  0
  128.8770  125.5370   62.1400 N   0  0  0  0  0  0  0  0  0  0  0  0
  129.2470  126.3170   63.0890 C   0  0  0  0  0  0  0  0  0  0  0  0
  128.4460  127.4260   63.6300 C   0  0  0  0  0  0  0  0  0  0  0  0
  127.5280  128.1100   62.8150 C   0  0  0  0  0  0  0  0  0  0  0  0
  126.7640  129.1630   63.3140 C   0  0  0  0  0  0  0  0  0  0  0  0
  125.6460  129.9860   62.2880 Cl  0  0  0  0  0  0  0  0  0  0  0  0
  126.9060  129.5540   64.6420 C   0  0  0  0  0  0  0  0  0  0  0  0
  127.8080  128.8920   65.4710 C   0  0  0  0  0  0  0  0  0  0  0  0
  127.9940  129.4770   67.2770 Br  0  0  0  0  0  0  0  0  0  0  0  0
  128.5680  127.8210   64.9810 C   0  0  0  0  0  0  0  0  0  0  0  0
  129.4700  127.2070   65.8250 O   0  0  0  0  0  0  0  0  0  0  0  0
  128.9160  126.2750   66.7570 C   0  0  0  0  0  0  0  0  0  0  0  0
  129.2570  126.7010   68.1770 C   0  0  0  0  0  0  0  0  0  0  0  0
  128.2960  126.5910   69.1820 C   0  0  0  0  0  0  0  0  0  0  0  0
  128.5840  127.0270   70.4720 C   0  0  0  0  0  0  0  0  0  0  0  0
  129.8420  127.5720   70.7930 C   0  0  0  0  0  0  0  0  0  0  0  0
  130.1550  128.0430   72.1980 C   0  0  0  0  0  0  0  0  0  0  0  0
  129.9840  127.2470   73.1520 O   0  0  0  0  0  0  0  0  0  0  0  0
  130.5770  129.2130   72.3630 O   0  0  0  0  0  0  0  0  0  0  0  0
  130.7980  127.6650   69.7640 C   0  0  0  0  0  0  0  0  0  0  0  0
  130.5090  127.2380   68.4700 C   0  0  0  0  0  0  0  0  0  0  0  0
  131.9782  127.6187   59.6572 H   0  0  0  0  0  0  0  0  0  0  0  0
  132.4488  125.9379   59.2328 H   0  0  0  0  0  0  0  0  0  0  0  0
  130.7164  126.4127   59.2328 H   0  0  0  0  0  0  0  0  0  0  0  0
  132.5751  126.2078   61.6673 H   0  0  0  0  0  0  0  0  0  0  0  0
  130.8781  126.8472   61.7003 H   0  0  0  0  0  0  0  0  0  0  0  0
  133.3230  121.6786   60.5065 H   0  0  0  0  0  0  0  0  0  0  0  0
  132.6134  119.2889   60.6406 H   0  0  0  0  0  0  0  0  0  0  0  0
  128.6740  120.5148   61.9406 H   0  0  0  0  0  0  0  0  0  0  0  0
  130.2388  126.1433   63.5319 H   0  0  0  0  0  0  0  0  0  0  0  0
  127.4104  127.8085   61.7637 H   0  0  0  0  0  0  0  0  0  0  0  0
  126.3053  130.3865   65.0371 H   0  0  0  0  0  0  0  0  0  0  0  0
  127.8229  126.2450   66.6374 H   0  0  0  0  0  0  0  0  0  0  0  0
  129.3375  125.2770   66.5663 H   0  0  0  0  0  0  0  0  0  0  0  0
  127.3100  126.1594   68.9549 H   0  0  0  0  0  0  0  0  0  0  0  0
  127.8153  126.9444   71.2545 H   0  0  0  0  0  0  0  0  0  0  0  0
  131.7913  128.0824   69.9858 H   0  0  0  0  0  0  0  0  0  0  0  0
  131.2690  127.3247   67.6795 H   0  0  0  0  0  0  0  0  0  0  0  0
  1  2  1  0
  2  3  1  0
  3  4  2  0
  4  5  1  0
  5  6  2  0
  6  7  1  0
  7  8  2  0
  8  9  1  0
  8 10  1  0
 10 11  2  0
 11 12  1  0
 12 13  2  0
 12 14  1  0
 14 15  1  0
 15 16  2  0
 16 17  1  0
 17 18  2  0
 18 19  1  0
 19 20  1  0
 19 21  2  0
 21 22  1  0
 22 23  1  0
 22 24  2  0
 24 25  1  0
 25 26  1  0
 26 27  1  0
 27 28  2  0
 28 29  1  0
 29 30  2  0
 30 31  1  0
 31 32  2  0
 31 33  1  0
 30 34  1  0
 34 35  2  0
 14  3  1  0
 24 17  1  0
 35 27  1  0
 11  5  1  0
  1 36  1  0
  1 37  1  0
  1 38  1  0
  2 39  1  0
  2 40  1  0
  6 41  1  0
  7 42  1  0
 10 43  1  0
 16 44  1  0
 18 45  1  0
 21 46  1  0
 26 47  1  0
 26 48  1  0
 28 49  1  0
 29 50  1  0
 34 51  1  0
 35 52  1  0
M  CHG  1  33  -1
M  END
>  <Binding energies>  (1) 
[-8.69]

>  <Ligand effiencies>  (1) 
[-0.24828571428571428]

>  <Interactions>  (1) 
["V-B:GLU:543:C:9874, V-A:GLU:543:C:4902, V-B:GLU:543:CB:9878, V-B:ALA:541:CB:9864, V-B:TYR:539:CE2:9848, V-B:GLU:543:CG:9879, V-A:GLY:544:C:4912, V-A:ASP:366:CG:3213, V-B:TYR:484:CE2:9317, H-B:ALA:541:N:9863, V-A:GLU:543:CD:4908, V-B:HIS:456:CE1:9041, V-B:GLU:543:CA:9876, V-B:TYR:484:CZ:9318, V-A:HIS:456:CE1:4070, V-A:PRO:482:CB:4326, V-B:TYR:539:CD2:9846, V-A:GLU:543:CG:4907, V-A:SER:385:CB:3409, V-B:GLU:543:CD:9880, V-A:ASP:366:CB:3212, H-A:LYS:547:NZ:4951, V-A:LEU:475:CD2:4259, V-A:GLU:543:CB:4906"]

$$$$
ZINC409282739
     RDKit          3D

 75 79  0  0  0  0  0  0  0  0999 V2000
  133.3830  122.9720   59.8890 C   0  0  0  0  0  0  0  0  0  0  0  0
  133.4870  121.8780   60.9540 C   0  0  0  0  0  0  0  0  0  0  0  0
  132.2070  121.7050   61.5550 O   0  0  0  0  0  0  0  0  0  0  0  0
  131.7280  122.6490   62.4470 C   0  0  0  0  0  0  0  0  0  0  0  0
  132.5600  123.4120   63.2830 C   0  0  0  0  0  0  0  0  0  0  0  0
  132.0380  124.3470   64.1800 C   0  0  0  0  0  0  0  0  0  0  0  0
  133.0120  125.1000   65.0830 C   0  0  0  0  0  0  0  0  0  0  0  0
  130.6430  124.5370   64.2450 C   0  0  0  0  0  0  0  0  0  0  0  0
  130.0090  125.4880   65.1910 C   0  0  0  0  0  0  0  0  0  0  0  0
  130.0250  125.2350   66.4550 N   0  0  0  0  0  0  0  0  0  0  0  0
  129.4600  126.1010   67.3950 C   0  0  0  0  0  0  0  0  0  0  0  0
  129.5220  125.7520   68.7460 C   0  0  0  0  0  0  0  0  0  0  0  0
  128.9760  126.6040   69.7070 C   0  0  0  0  0  0  0  0  0  0  0  0
  128.3690  127.8010   69.3200 C   0  0  0  0  0  0  0  0  0  0  0  0
  128.3030  128.1530   67.9700 C   0  0  0  0  0  0  0  0  0  0  0  0
  128.8490  127.2950   67.0070 C   0  0  0  0  0  0  0  0  0  0  0  0
  128.8000  127.6430   65.5340 C   0  0  0  0  0  0  0  0  0  0  0  0
  128.2980  128.6950   65.1190 O   0  0  0  0  0  0  0  0  0  0  0  0
  129.3710  126.6590   64.7340 N   0  0  0  0  0  0  0  0  0  0  0  0
  129.3870  126.9650   63.3840 N   0  0  0  0  0  0  0  0  0  0  0  0
  128.2660  126.9250   62.7610 C   0  0  0  0  0  0  0  0  0  0  0  0
  128.1400  127.1250   61.3130 C   0  0  0  0  0  0  0  0  0  0  0  0
  127.7200  128.3660   60.8210 C   0  0  0  0  0  0  0  0  0  0  0  0
  127.5850  128.5890   59.4500 C   0  0  0  0  0  0  0  0  0  0  0  0
  127.0330  130.1370   58.9100 Cl  0  0  0  0  0  0  0  0  0  0  0  0
  127.8840  127.5660   58.5390 C   0  0  0  0  0  0  0  0  0  0  0  0
  127.7810  127.7670   57.1790 O   0  0  0  0  0  0  0  0  0  0  0  0
  128.9810  128.0970   56.4630 C   0  0  0  0  0  0  0  0  0  0  0  0
  129.8320  129.1670   57.1440 C   0  0  0  0  0  0  0  0  0  0  0  0
  130.7780  128.8050   58.1060 C   0  0  0  0  0  0  0  0  0  0  0  0
  131.5630  129.7790   58.7140 C   0  0  0  0  0  0  0  0  0  0  0  0
  131.4070  131.1200   58.3650 C   0  0  0  0  0  0  0  0  0  0  0  0
  130.4610  131.5230   57.4010 C   0  0  0  0  0  0  0  0  0  0  0  0
  130.2970  132.9790   57.0170 C   0  0  0  0  0  0  0  0  0  0  0  0
  129.1400  133.4550   56.9270 O   0  0  0  0  0  0  0  0  0  0  0  0
  131.3250  133.6670   56.8000 O   0  0  0  0  0  0  0  0  0  0  0  0
  129.6750  130.5150   56.8060 C   0  0  0  0  0  0  0  0  0  0  0  0
  128.2680  126.3100   59.0220 C   0  0  0  0  0  0  0  0  0  0  0  0
  128.5970  124.8600   57.8310 Br  0  0  0  0  0  0  0  0  0  0  0  0
  128.4040  126.0990   60.3930 C   0  0  0  0  0  0  0  0  0  0  0  0
  129.8160  123.7920   63.3960 C   0  0  0  0  0  0  0  0  0  0  0  0
  130.3360  122.8410   62.5100 C   0  0  0  0  0  0  0  0  0  0  0  0
  129.4020  121.9940   61.6240 C   0  0  0  0  0  0  0  0  0  0  0  0
  129.6810  120.4750   61.6450 C   0  0  0  0  0  0  0  0  0  0  0  0
  129.3810  122.5220   60.1760 C   0  0  0  0  0  0  0  0  0  0  0  0
  133.2898  123.9526   60.3786 H   0  0  0  0  0  0  0  0  0  0  0  0
  134.2863  122.9599   59.2615 H   0  0  0  0  0  0  0  0  0  0  0  0
  132.4981  122.7899   59.2615 H   0  0  0  0  0  0  0  0  0  0  0  0
  133.8073  120.9352   60.4866 H   0  0  0  0  0  0  0  0  0  0  0  0
  134.2246  122.1660   61.7175 H   0  0  0  0  0  0  0  0  0  0  0  0
  133.6495  123.2697   63.2300 H   0  0  0  0  0  0  0  0  0  0  0  0
  132.7606  124.9057   66.1361 H   0  0  0  0  0  0  0  0  0  0  0  0
  134.0379  124.7579   64.8817 H   0  0  0  0  0  0  0  0  0  0  0  0
  132.9392  126.1790   64.8817 H   0  0  0  0  0  0  0  0  0  0  0  0
  129.9994  124.8092   69.0513 H   0  0  0  0  0  0  0  0  0  0  0  0
  129.0238  126.3322   70.7718 H   0  0  0  0  0  0  0  0  0  0  0  0
  127.9411  128.4693   70.0817 H   0  0  0  0  0  0  0  0  0  0  0  0
  127.8261  129.0964   67.6656 H   0  0  0  0  0  0  0  0  0  0  0  0
  127.3526  126.7308   63.3424 H   0  0  0  0  0  0  0  0  0  0  0  0
  127.4926  129.1789   61.5264 H   0  0  0  0  0  0  0  0  0  0  0  0
  129.5868  127.1843   56.3626 H   0  0  0  0  0  0  0  0  0  0  0  0
  128.6708  128.5062   55.4902 H   0  0  0  0  0  0  0  0  0  0  0  0
  130.9023  127.7478   58.3832 H   0  0  0  0  0  0  0  0  0  0  0  0
  132.3076  129.4912   59.4708 H   0  0  0  0  0  0  0  0  0  0  0  0
  132.0357  131.8796   58.8525 H   0  0  0  0  0  0  0  0  0  0  0  0
  128.9195  130.7958   56.0574 H   0  0  0  0  0  0  0  0  0  0  0  0
  128.7234  125.1123   60.7596 H   0  0  0  0  0  0  0  0  0  0  0  0
  128.7290  123.9582   63.4258 H   0  0  0  0  0  0  0  0  0  0  0  0
  128.4061  122.1116   62.0760 H   0  0  0  0  0  0  0  0  0  0  0  0
  129.7447  120.1283   62.6870 H   0  0  0  0  0  0  0  0  0  0  0  0
  128.8651  119.9452   61.1315 H   0  0  0  0  0  0  0  0  0  0  0  0
  130.6319  120.2697   61.1315 H   0  0  0  0  0  0  0  0  0  0  0  0
  129.3373  123.6211   60.1871 H   0  0  0  0  0  0  0  0  0  0  0  0
  130.2928  122.1966   59.6538 H   0  0  0  0  0  0  0  0  0  0  0  0
  128.4979  122.1252   59.6538 H   0  0  0  0  0  0  0  0  0  0  0  0
  1  2  1  0
  2  3  1  0
  3  4  1  0
  4  5  2  0
  5  6  1  0
  6  7  1  0
  6  8  2  0
  8  9  1  0
  9 10  2  0
 10 11  1  0
 11 12  2  0
 12 13  1  0
 13 14  2  0
 14 15  1  0
 15 16  2  0
 16 17  1  0
 17 18  2  0
 17 19  1  0
 19 20  1  0
 20 21  2  0
 21 22  1  0
 22 23  2  0
 23 24  1  0
 24 25  1  0
 24 26  2  0
 26 27  1  0
 27 28  1  0
 28 29  1  0
 29 30  2  0
 30 31  1  0
 31 32  2  0
 32 33  1  0
 33 34  1  0
 34 35  2  0
 34 36  1  0
 33 37  2  0
 26 38  1  0
 38 39  1  0
 38 40  2  0
  8 41  1  0
 41 42  2  0
 42 43  1  0
 43 44  1  0
 43 45  1  0
 42  4  1  0
 19  9  1  0
 40 22  1  0
 16 11  1  0
 37 29  1  0
  1 46  1  0
  1 47  1  0
  1 48  1  0
  2 49  1  0
  2 50  1  0
  5 51  1  0
  7 52  1  0
  7 53  1  0
  7 54  1  0
 12 55  1  0
 13 56  1  0
 14 57  1  0
 15 58  1  0
 21 59  1  0
 23 60  1  0
 28 61  1  0
 28 62  1  0
 30 63  1  0
 31 64  1  0
 32 65  1  0
 37 66  1  0
 40 67  1  0
 41 68  1  0
 43 69  1  0
 44 70  1  0
 44 71  1  0
 44 72  1  0
 45 73  1  0
 45 74  1  0
 45 75  1  0
M  CHG  1  36  -1
M  END
>  <Binding energies>  (1) 
[-9.04]

>  <Ligand effiencies>  (1) 
[-0.20088888888888887]

>  <Interactions>  (1) 
["V-A:ILE:369:CG2:3237, V-B:GLU:543:C:9874, V-A:ILE:369:CB:3236, V-B:GLU:543:CB:9878, V-B:ALA:541:CB:9864, V-B:TYR:539:CE2:9848, V-B:GLU:543:CG:9879, V-A:ASP:366:CG:3213, V-B:TYR:539:CZ:9849, V-A:ILE:538:CA:4860, V-A:GLU:543:CD:4908, V-B:HIS:456:CE1:9041, V-B:GLU:543:CA:9876, V-A:HIS:456:CE1:4070, V-A:ILE:369:CD1:3239, V-B:TYR:539:CD2:9846, V-A:GLU:543:CG:4907, V-B:GLU:543:CD:9880, V-A:MET:535:CE:4835, V-A:TYR:539:C:4867, H-B:TYR:531:OH:9767, V-A:LEU:475:CD2:4259, V-A:ARG:545:CZ:4926, V-A:GLU:543:CB:4906, V-A:PRO:540:N:4884, H-A:TYR:539:N:4870, V-B:PRO:540:C:9853, H-A:TYR:484:OH:4348"]

$$$$
ZINC409283562
     RDKit          3D

 58 62  0  0  0  0  0  0  0  0999 V2000
  127.6160  129.0580   66.1090 C   0  0  0  0  0  0  0  0  0  0  0  0
  128.1090  129.7180   64.9490 O   0  0  0  0  0  0  0  0  0  0  0  0
  127.2300  129.9840   63.9200 C   0  0  0  0  0  0  0  0  0  0  0  0
  126.4900  131.1660   63.7440 C   0  0  0  0  0  0  0  0  0  0  0  0
  125.6220  131.3260   62.6610 C   0  0  0  0  0  0  0  0  0  0  0  0
  125.4500  130.3180   61.7140 C   0  0  0  0  0  0  0  0  0  0  0  0
  126.1900  129.1450   61.8950 C   0  0  0  0  0  0  0  0  0  0  0  0
  126.1630  128.0510   61.0820 O   0  0  0  0  0  0  0  0  0  0  0  0
  127.0400  127.1390   61.6010 C   0  0  0  0  0  0  0  0  0  0  0  0
  127.2300  125.8490   60.8970 C   0  0  0  0  0  0  0  0  0  0  0  0
  126.7570  125.8420   59.6960 N   0  0  0  0  0  0  0  0  0  0  0  0
  126.8560  124.7280   58.8580 C   0  0  0  0  0  0  0  0  0  0  0  0
  126.3040  124.8040   57.5790 C   0  0  0  0  0  0  0  0  0  0  0  0
  126.4070  123.7120   56.7140 C   0  0  0  0  0  0  0  0  0  0  0  0
  127.0650  122.5510   57.1270 C   0  0  0  0  0  0  0  0  0  0  0  0
  127.6200  122.4730   58.4060 C   0  0  0  0  0  0  0  0  0  0  0  0
  127.5090  123.5670   59.2720 C   0  0  0  0  0  0  0  0  0  0  0  0
  128.0960  123.5210   60.6660 C   0  0  0  0  0  0  0  0  0  0  0  0
  128.7200  122.5390   61.0880 O   0  0  0  0  0  0  0  0  0  0  0  0
  127.8520  124.6850   61.3930 N   0  0  0  0  0  0  0  0  0  0  0  0
  128.3890  124.6830   62.6650 N   0  0  0  0  0  0  0  0  0  0  0  0
  129.5340  125.2510   62.8040 C   0  0  0  0  0  0  0  0  0  0  0  0
  130.2820  125.2970   64.0680 C   0  0  0  0  0  0  0  0  0  0  0  0
  129.6200  125.5840   65.2710 C   0  0  0  0  0  0  0  0  0  0  0  0
  130.3160  125.6630   66.4720 C   0  0  0  0  0  0  0  0  0  0  0  0
  129.4760  126.0220   67.9370 Cl  0  0  0  0  0  0  0  0  0  0  0  0
  131.6920  125.4680   66.4890 C   0  0  0  0  0  0  0  0  0  0  0  0
  132.3870  125.1820   65.3100 C   0  0  0  0  0  0  0  0  0  0  0  0
  133.8540  125.0040   65.3650 N   0  0  0  0  0  0  0  0  0  0  0  0
  134.4850  125.1030   64.3170 O   0  0  0  0  0  0  0  0  0  0  0  0
  134.3740  124.7420   66.4450 O   0  0  0  0  0  0  0  0  0  0  0  0
  131.6760  125.0680   64.0980 C   0  0  0  0  0  0  0  0  0  0  0  0
  132.3670  124.7270   62.9520 O   0  0  0  0  0  0  0  0  0  0  0  0
  132.7440  123.3430   62.8270 C   0  0  2  0  0  0  0  0  0  0  0  0
  133.9700  123.2490   61.8950 C   0  0  0  0  0  0  0  0  0  0  0  0
  131.5610  122.5310   62.2280 C   0  0  0  0  0  0  0  0  0  0  0  0
  130.6990  122.1090   63.0330 O   0  0  0  0  0  0  0  0  0  0  0  0
  131.5110  122.3320   60.9910 O   0  0  0  0  0  0  0  0  0  0  0  0
  127.6200  127.6470   62.7660 C   0  0  0  0  0  0  0  0  0  0  0  0
  127.0800  128.9540   62.9730 C   0  0  0  0  0  0  0  0  0  0  0  0
  127.9950  129.5653   67.0084 H   0  0  0  0  0  0  0  0  0  0  0  0
  126.5164  129.0867   66.1077 H   0  0  0  0  0  0  0  0  0  0  0  0
  127.9555  128.0117   66.1077 H   0  0  0  0  0  0  0  0  0  0  0  0
  126.5965  131.9819   64.4740 H   0  0  0  0  0  0  0  0  0  0  0  0
  125.0627  132.2671   62.5535 H   0  0  0  0  0  0  0  0  0  0  0  0
  124.7636  130.4394   60.8631 H   0  0  0  0  0  0  0  0  0  0  0  0
  125.7897  125.7201   57.2530 H   0  0  0  0  0  0  0  0  0  0  0  0
  125.9694  123.7664   55.7063 H   0  0  0  0  0  0  0  0  0  0  0  0
  127.1463  121.6944   56.4417 H   0  0  0  0  0  0  0  0  0  0  0  0
  128.1400  121.5595   58.7302 H   0  0  0  0  0  0  0  0  0  0  0  0
  129.9815  125.7324   61.9220 H   0  0  0  0  0  0  0  0  0  0  0  0
  128.5325  125.7492   65.2640 H   0  0  0  0  0  0  0  0  0  0  0  0
  132.2400  125.5394   67.4401 H   0  0  0  0  0  0  0  0  0  0  0  0
  132.9937  122.9291   63.8151 H   0  0  0  0  0  0  0  0  0  0  0  0
  134.8860  123.1788   62.5000 H   0  0  0  0  0  0  0  0  0  0  0  0
  133.8804  122.3551   61.2603 H   0  0  0  0  0  0  0  0  0  0  0  0
  134.0177  124.1461   61.2603 H   0  0  0  0  0  0  0  0  0  0  0  0
  128.3554  127.1362   63.4050 H   0  0  0  0  0  0  0  0  0  0  0  0
  1  2  1  0
  2  3  1  0
  3  4  2  0
  4  5  1  0
  5  6  2  0
  6  7  1  0
  7  8  1  0
  8  9  1  0
  9 10  1  0
 10 11  2  0
 11 12  1  0
 12 13  2  0
 13 14  1  0
 14 15  2  0
 15 16  1  0
 16 17  2  0
 17 18  1  0
 18 19  2  0
 18 20  1  0
 20 21  1  0
 21 22  2  0
 22 23  1  0
 23 24  2  0
 24 25  1  0
 25 26  1  0
 25 27  2  0
 27 28  1  0
 28 29  1  0
 29 30  2  0
 29 31  1  0
 28 32  2  0
 32 33  1  0
 33 34  1  0
 34 35  1  0
 34 36  1  0
 36 37  2  0
 36 38  1  0
  9 39  2  0
 39 40  1  0
 40  3  1  0
 40  7  2  0
 20 10  1  0
 32 23  1  0
 17 12  1  0
  1 41  1  0
  1 42  1  0
  1 43  1  0
  4 44  1  0
  5 45  1  0
  6 46  1  0
 13 47  1  0
 14 48  1  0
 15 49  1  0
 16 50  1  0
 22 51  1  0
 24 52  1  0
 27 53  1  0
 34 54  1  1
 35 55  1  0
 35 56  1  0
 35 57  1  0
 39 58  1  0
M  CHG  3  29   1  31  -1  38  -1
M  END
>  <Binding energies>  (1) 
[-7.69]

>  <Ligand effiencies>  (1) 
[-0.19225]

>  <Interactions>  (1) 
["V-B:PRO:540:CA:9855, V-A:GLY:454:CA:4049, V-B:GLU:543:CB:9878, H-A:ARG:545:NH1:4927, V-B:TYR:539:CE2:9848, V-B:GLU:543:CG:9879, V-B:TYR:539:C:9839, V-A:TYR:484:CZ:4347, V-B:PRO:540:CB:9857, V-A:GLU:543:CD:4908, H-B:TYR:484:OH:9319, V-B:GLU:543:CA:9876, H-A:GLY:454:N:4050, V-A:GLY:453:C:4042, V-B:PRO:540:N:9856, V-A:HIS:456:CE1:4070, V-A:ILE:369:CD1:3239, V-B:TYR:539:CD2:9846, V-B:PRO:540:CD:9859, V-B:GLU:543:CD:9880, V-A:ARG:545:CD:4923, V-A:LEU:475:CD2:4259, H-A:ILE:455:N:4055, V-A:ARG:545:CZ:4926, H-A:ARG:545:NH2:4928, V-B:TYR:539:CG:9844, H-B:ARG:545:NH2:9900, V-B:TYR:539:CD1:9845, V-A:GLY:453:CA:4044, H-A:ARG:545:NE:4924, V-B:MET:535:CE:9807, H-A:TYR:484:OH:4348"]

$$$$
ZINC409288854
     RDKit          3D

 55 57  0  0  0  0  0  0  0  0999 V2000
  128.0020  122.8340   58.9100 C   0  0  0  0  0  0  0  0  0  0  0  0
  127.6960  122.7800   60.4090 C   0  0  0  0  0  0  0  0  0  0  0  0
  128.6950  121.9950   61.0510 O   0  0  0  0  0  0  0  0  0  0  0  0
  129.7590  122.6120   61.6820 C   0  0  0  0  0  0  0  0  0  0  0  0
  129.6130  123.5440   62.7210 C   0  0  0  0  0  0  0  0  0  0  0  0
  130.7220  124.1570   63.3090 C   0  0  0  0  0  0  0  0  0  0  0  0
  130.4980  125.1050   64.3930 C   0  0  0  0  0  0  0  0  0  0  0  0
  129.3170  125.4490   64.7540 N   0  0  0  0  0  0  0  0  0  0  0  0
  129.2260  126.3660   65.7830 N   0  0  0  0  0  0  0  0  0  0  0  0
  128.6810  127.6380   65.5470 C   0  0  0  0  0  0  0  0  0  0  0  0
  128.2080  128.0620   64.1300 C   0  0  0  0  0  0  0  0  0  0  0  0
  129.2760  127.7000   63.0760 C   0  0  0  0  0  0  0  0  0  0  0  0
  127.8430  129.5620   64.0610 C   0  0  0  0  0  0  0  0  0  0  0  0
  128.5540  128.4960   66.5000 N   0  0  0  0  0  0  0  0  0  0  0  0
  128.9280  128.1740   67.8080 C   0  0  0  0  0  0  0  0  0  0  0  0
  128.7710  129.1420   68.8020 C   0  0  0  0  0  0  0  0  0  0  0  0
  129.1220  128.8450   70.1200 C   0  0  0  0  0  0  0  0  0  0  0  0
  129.6270  127.5840   70.4470 C   0  0  0  0  0  0  0  0  0  0  0  0
  130.1010  127.1890   72.2470 Br  0  0  0  0  0  0  0  0  0  0  0  0
  129.7860  126.6120   69.4570 C   0  0  0  0  0  0  0  0  0  0  0  0
  129.4370  126.9120   68.1340 C   0  0  0  0  0  0  0  0  0  0  0  0
  129.5920  125.8800   67.0340 C   0  0  0  0  0  0  0  0  0  0  0  0
  130.0060  124.7350   67.2550 O   0  0  0  0  0  0  0  0  0  0  0  0
  132.0090  123.8530   62.8340 C   0  0  0  0  0  0  0  0  0  0  0  0
  133.5550  124.7010   63.5890 Br  0  0  0  0  0  0  0  0  0  0  0  0
  132.1660  122.9250   61.7960 C   0  0  0  0  0  0  0  0  0  0  0  0
  133.7470  122.5730   61.1750 Cl  0  0  0  0  0  0  0  0  0  0  0  0
  131.0480  122.2840   61.2430 C   0  0  0  0  0  0  0  0  0  0  0  0
  131.2080  121.3640   60.2250 O   0  0  0  0  0  0  0  0  0  0  0  0
  131.9460  120.1740   60.5530 C   0  0  2  0  0  0  0  0  0  0  0  0
  132.8730  119.8430   59.3670 C   0  0  0  0  0  0  0  0  0  0  0  0
  130.9730  118.9980   60.8450 C   0  0  0  0  0  0  0  0  0  0  0  0
  129.9970  119.2330   61.5920 O   0  0  0  0  0  0  0  0  0  0  0  0
  131.2220  117.8760   60.3450 O   0  0  0  0  0  0  0  0  0  0  0  0
  129.0753  123.0234   58.7615 H   0  0  0  0  0  0  0  0  0  0  0  0
  127.7314  121.8742   58.4457 H   0  0  0  0  0  0  0  0  0  0  0  0
  127.4192  123.6432   58.4457 H   0  0  0  0  0  0  0  0  0  0  0  0
  127.7016  123.7984   60.8248 H   0  0  0  0  0  0  0  0  0  0  0  0
  126.7048  122.3322   60.5732 H   0  0  0  0  0  0  0  0  0  0  0  0
  128.6044  123.7971   63.0798 H   0  0  0  0  0  0  0  0  0  0  0  0
  131.3648  125.5366   64.9150 H   0  0  0  0  0  0  0  0  0  0  0  0
  127.2882  127.5017   63.9062 H   0  0  0  0  0  0  0  0  0  0  0  0
  130.2004  127.3867   63.5833 H   0  0  0  0  0  0  0  0  0  0  0  0
  128.9060  126.8771   62.4468 H   0  0  0  0  0  0  0  0  0  0  0  0
  129.4827  128.5783   62.4468 H   0  0  0  0  0  0  0  0  0  0  0  0
  127.7454  129.9629   65.0807 H   0  0  0  0  0  0  0  0  0  0  0  0
  128.6345  130.1078   63.5266 H   0  0  0  0  0  0  0  0  0  0  0  0
  126.8892  129.6831   63.5266 H   0  0  0  0  0  0  0  0  0  0  0  0
  128.3722  130.1350   68.5474 H   0  0  0  0  0  0  0  0  0  0  0  0
  129.0005  129.6067   70.9042 H   0  0  0  0  0  0  0  0  0  0  0  0
  130.1822  125.6186   69.7141 H   0  0  0  0  0  0  0  0  0  0  0  0
  132.5481  120.3353   61.4594 H   0  0  0  0  0  0  0  0  0  0  0  0
  133.8451  119.4959   59.7472 H   0  0  0  0  0  0  0  0  0  0  0  0
  132.4157  119.0526   58.7537 H   0  0  0  0  0  0  0  0  0  0  0  0
  133.0198  120.7443   58.7537 H   0  0  0  0  0  0  0  0  0  0  0  0
  1  2  1  0
  2  3  1  0
  3  4  1  0
  4  5  2  0
  5  6  1  0
  6  7  1  0
  7  8  2  0
  8  9  1  0
  9 10  1  0
 10 11  1  0
 11 12  1  0
 11 13  1  0
 10 14  2  0
 14 15  1  0
 15 16  2  0
 16 17  1  0
 17 18  2  0
 18 19  1  0
 18 20  1  0
 20 21  2  0
 21 22  1  0
 22 23  2  0
  6 24  2  0
 24 25  1  0
 24 26  1  0
 26 27  1  0
 26 28  2  0
 28 29  1  0
 29 30  1  0
 30 31  1  0
 30 32  1  0
 32 33  2  0
 32 34  1  0
 28  4  1  0
 22  9  1  0
 21 15  1  0
  1 35  1  0
  1 36  1  0
  1 37  1  0
  2 38  1  0
  2 39  1  0
  5 40  1  0
  7 41  1  0
 11 42  1  0
 12 43  1  0
 12 44  1  0
 12 45  1  0
 13 46  1  0
 13 47  1  0
 13 48  1  0
 16 49  1  0
 17 50  1  0
 20 51  1  0
 30 52  1  1
 31 53  1  0
 31 54  1  0
 31 55  1  0
M  CHG  1  34  -1
M  END
>  <Binding energies>  (1) 
[-6.12]

>  <Ligand effiencies>  (1) 
[-0.18]

>  <Interactions>  (1) 
["V-A:ILE:369:CG2:3237, V-B:PRO:540:CA:9855, V-A:GLU:543:CA:4904, V-B:HIS:456:CD2:9039, V-A:GLU:543:C:4902, V-B:GLU:543:CB:9878, V-B:TYR:539:CE2:9848, V-B:GLU:543:CG:9879, V-B:TYR:539:C:9839, V-A:HIS:456:CD2:4068, H-B:ALA:541:N:9863, V-A:GLU:543:CD:4908, V-B:PRO:540:CB:9857, V-B:HIS:456:CE1:9041, V-B:PRO:540:N:9856, V-A:ILE:369:CD1:3239, V-A:HIS:456:CE1:4070, V-B:TYR:539:CD2:9846, V-A:GLU:543:CG:4907, V-A:SER:385:CB:3409, H-A:SER:385:OG:3410, V-B:GLU:543:CD:9880, V-A:LEU:475:CD2:4259, V-A:ARG:545:CZ:4926, V-A:GLU:543:CB:4906, H-A:HIS:383:HE2:3395, V-B:PRO:540:C:9853, H-A:TYR:484:OH:4348"]

$$$$
ZINC409288925
     RDKit          3D

 34 37  0  0  0  0  0  0  0  0999 V2000
  128.0910  127.4640   68.0310 C   0  0  0  0  0  0  0  0  0  0  0  0
  128.8860  126.2780   68.0210 O   0  0  0  0  0  0  0  0  0  0  0  0
  129.7090  126.0190   66.9410 C   0  0  0  0  0  0  0  0  0  0  0  0
  129.2220  126.2560   65.6550 C   0  0  0  0  0  0  0  0  0  0  0  0
  130.0600  125.9990   64.5720 C   0  0  0  0  0  0  0  0  0  0  0  0
  131.3450  125.5130   64.8350 C   0  0  0  0  0  0  0  0  0  0  0  0
  132.2220  125.2450   63.7740 N   0  0  0  0  0  0  0  0  0  0  0  0
  133.4510  124.6860   63.9530 C   0  0  0  0  0  0  0  0  0  0  0  0
  133.9800  124.3520   65.0130 O   0  0  0  0  0  0  0  0  0  0  0  0
  134.1170  124.5700   62.5870 C   0  0  1  0  0  0  0  0  0  0  0  0
  134.3700  123.1430   62.0190 C   0  0  1  0  0  0  0  0  0  0  0  0
  133.1520  122.2340   62.1370 C   0  0  0  0  0  0  0  0  0  0  0  0
  132.2560  122.7220   61.2640 C   0  0  0  0  0  0  0  0  0  0  0  0
  132.9350  123.9310   60.6280 C   0  0  2  0  0  0  0  0  0  0  0  0
  132.4770  124.2660   59.2010 C   0  0  0  0  0  0  0  0  0  0  0  0
  134.2790  123.4930   60.6500 O   0  0  0  0  0  0  0  0  0  0  0  0
  133.1120  125.1210   61.6180 C   0  0  1  0  0  0  0  0  0  0  0  0
  131.9170  125.5200   62.4760 C   0  0  0  0  0  0  0  0  0  0  0  0
  130.8870  126.0350   62.0350 O   0  0  0  0  0  0  0  0  0  0  0  0
  131.7820  125.2890   66.1070 N   0  0  0  0  0  0  0  0  0  0  0  0
  130.9720  125.5410   67.1490 N   0  0  0  0  0  0  0  0  0  0  0  0
  127.8909  127.7625   69.0706 H   0  0  0  0  0  0  0  0  0  0  0  0
  128.6309  128.2717   67.5150 H   0  0  0  0  0  0  0  0  0  0  0  0
  127.1388  127.2715   67.5150 H   0  0  0  0  0  0  0  0  0  0  0  0
  128.2016  126.6364   65.5001 H   0  0  0  0  0  0  0  0  0  0  0  0
  129.7210  126.1732   63.5402 H   0  0  0  0  0  0  0  0  0  0  0  0
  135.0945  125.0603   62.7053 H   0  0  0  0  0  0  0  0  0  0  0  0
  135.2486  122.6569   62.4682 H   0  0  0  0  0  0  0  0  0  0  0  0
  133.0324  121.3626   62.7976 H   0  0  0  0  0  0  0  0  0  0  0  0
  131.2488  122.3335   61.0528 H   0  0  0  0  0  0  0  0  0  0  0  0
  131.5898  124.9149   59.2435 H   0  0  0  0  0  0  0  0  0  0  0  0
  133.2868  124.7864   58.6687 H   0  0  0  0  0  0  0  0  0  0  0  0
  132.2263  123.3366   58.6687 H   0  0  0  0  0  0  0  0  0  0  0  0
  133.3473  126.0181   61.0265 H   0  0  0  0  0  0  0  0  0  0  0  0
  1  2  1  0
  2  3  1  0
  3  4  2  0
  4  5  1  0
  5  6  2  0
  6  7  1  0
  7  8  1  0
  8  9  2  0
  8 10  1  0
 10 11  1  0
 11 12  1  0
 12 13  2  0
 13 14  1  0
 14 15  1  6
 14 16  1  0
 14 17  1  0
 17 18  1  0
 18 19  2  0
  6 20  1  0
 20 21  2  0
 21  3  1  0
 18  7  1  0
 17 10  1  0
 16 11  1  0
  1 22  1  0
  1 23  1  0
  1 24  1  0
  4 25  1  0
  5 26  1  0
 10 27  1  1
 11 28  1  6
 12 29  1  0
 13 30  1  0
 15 31  1  0
 15 32  1  0
 15 33  1  0
 17 34  1  6
M  END
>  <Binding energies>  (1) 
[-5.83]

>  <Ligand effiencies>  (1) 
[-0.2776190476190476]

>  <Interactions>  (1) 
["V-A:HIS:456:CE1:4070, V-A:ILE:369:CD1:3239, V-A:GLY:453:CA:4044, V-A:GLY:454:CA:4049, V-B:TYR:539:CZ:9849, V-B:GLU:543:CB:9878, H-A:ARG:545:NE:4924, V-B:GLU:543:CD:9880, V-A:ARG:545:CZ:4926, V-A:GLU:543:CD:4908, V-B:TYR:539:CE2:9848, V-A:LEU:475:CD2:4259, V-B:GLU:543:CG:9879, V-B:HIS:456:CE1:9041, H-A:GLY:454:N:4050, V-A:ASP:366:CG:3213, H-A:TYR:484:OH:4348"]

$$$$
ZINC409289289
     RDKit          3D

 61 65  0  0  0  0  0  0  0  0999 V2000
  133.9920  124.0410   61.2410 C   0  0  0  0  0  0  0  0  0  0  0  0
  133.2290  123.5690   59.9940 C   0  0  0  0  0  0  0  0  0  0  0  0
  133.0040  124.7190   58.9910 C   0  0  0  0  0  0  0  0  0  0  0  0
  131.9860  123.0170   60.4270 O   0  0  0  0  0  0  0  0  0  0  0  0
  131.8980  121.7650   60.9330 C   0  0  0  0  0  0  0  0  0  0  0  0
  132.8470  121.0210   61.1930 O   0  0  0  0  0  0  0  0  0  0  0  0
  130.4440  121.3490   61.1680 C   0  0  0  0  0  0  0  0  0  0  0  0
  130.0140  121.7560   62.4620 O   0  0  0  0  0  0  0  0  0  0  0  0
  129.7760  123.1050   62.5650 C   0  0  0  0  0  0  0  0  0  0  0  0
  130.6870  123.9080   63.2610 C   0  0  0  0  0  0  0  0  0  0  0  0
  132.0940  123.2180   63.9940 Cl  0  0  0  0  0  0  0  0  0  0  0  0
  130.4700  125.2790   63.3710 C   0  0  0  0  0  0  0  0  0  0  0  0
  129.3400  125.8790   62.7980 C   0  0  0  0  0  0  0  0  0  0  0  0
  129.0730  127.3170   62.9150 C   0  0  0  0  0  0  0  0  0  0  0  0
  127.8940  127.8170   63.0090 N   0  0  0  0  0  0  0  0  0  0  0  0
  127.7980  129.1950   63.0320 N   0  0  0  0  0  0  0  0  0  0  0  0
  127.9820  129.8820   64.2470 C   0  0  0  0  0  0  0  0  0  0  0  0
  128.2590  129.2670   65.5560 C   0  0  0  0  0  0  0  0  0  0  0  0
  128.2480  129.7950   66.8480 C   0  0  0  0  0  0  0  0  0  0  0  0
  128.5930  128.7270   67.7310 C   0  0  0  0  0  0  0  0  0  0  0  0
  128.7500  128.5630   69.1170 C   0  0  0  0  0  0  0  0  0  0  0  0
  129.1080  127.3040   69.6090 C   0  0  0  0  0  0  0  0  0  0  0  0
  129.3220  127.0620   71.4850 Br  0  0  0  0  0  0  0  0  0  0  0  0
  129.3090  126.2190   68.7510 C   0  0  0  0  0  0  0  0  0  0  0  0
  129.1630  126.3500   67.3690 C   0  0  0  0  0  0  0  0  0  0  0  0
  128.8050  127.6140   66.8880 C   0  0  0  0  0  0  0  0  0  0  0  0
  128.6140  127.9470   65.5800 O   0  0  0  0  0  0  0  0  0  0  0  0
  127.9030  131.1680   64.2650 N   0  0  0  0  0  0  0  0  0  0  0  0
  127.6860  131.9140   63.1020 C   0  0  0  0  0  0  0  0  0  0  0  0
  127.6200  133.3040   63.2020 C   0  0  0  0  0  0  0  0  0  0  0  0
  127.4170  134.0730   62.0540 C   0  0  0  0  0  0  0  0  0  0  0  0
  127.2810  133.4530   60.8100 C   0  0  0  0  0  0  0  0  0  0  0  0
  127.3460  132.0630   60.7050 C   0  0  0  0  0  0  0  0  0  0  0  0
  127.5460  131.2940   61.8570 C   0  0  0  0  0  0  0  0  0  0  0  0
  127.6230  129.7820   61.7840 C   0  0  0  0  0  0  0  0  0  0  0  0
  127.5290  129.1640   60.7160 O   0  0  0  0  0  0  0  0  0  0  0  0
  128.4320  125.0640   62.1110 C   0  0  0  0  0  0  0  0  0  0  0  0
  128.6280  123.6810   61.9910 C   0  0  0  0  0  0  0  0  0  0  0  0
  127.6300  122.8650   61.2640 N   0  0  0  0  0  0  0  0  0  0  0  0
  127.9930  122.2230   60.2830 O   0  0  0  0  0  0  0  0  0  0  0  0
  126.4770  122.8540   61.6850 O   0  0  0  0  0  0  0  0  0  0  0  0
  133.4582  123.7108   62.1443 H   0  0  0  0  0  0  0  0  0  0  0  0
  135.0046  123.6113   61.2358 H   0  0  0  0  0  0  0  0  0  0  0  0
  134.0596  125.1389   61.2358 H   0  0  0  0  0  0  0  0  0  0  0  0
  133.8221  122.8093   59.4638 H   0  0  0  0  0  0  0  0  0  0  0  0
  132.8210  125.6542   59.5405 H   0  0  0  0  0  0  0  0  0  0  0  0
  133.8967  124.8339   58.3586 H   0  0  0  0  0  0  0  0  0  0  0  0
  132.1338  124.4890   58.3586 H   0  0  0  0  0  0  0  0  0  0  0  0
  129.8045  121.8220   60.4082 H   0  0  0  0  0  0  0  0  0  0  0  0
  130.3703  120.2538   61.0958 H   0  0  0  0  0  0  0  0  0  0  0  0
  131.1960  125.9005   63.9156 H   0  0  0  0  0  0  0  0  0  0  0  0
  129.9310  128.0054   62.9226 H   0  0  0  0  0  0  0  0  0  0  0  0
  128.0181  130.8328   67.1312 H   0  0  0  0  0  0  0  0  0  0  0  0
  128.5943  129.4090   69.8026 H   0  0  0  0  0  0  0  0  0  0  0  0
  129.5878  125.2423   69.1733 H   0  0  0  0  0  0  0  0  0  0  0  0
  129.3220  125.4993   66.6900 H   0  0  0  0  0  0  0  0  0  0  0  0
  127.7275  133.7926   64.1817 H   0  0  0  0  0  0  0  0  0  0  0  0
  127.3641  135.1691   62.1298 H   0  0  0  0  0  0  0  0  0  0  0  0
  127.1219  134.0632   59.9087 H   0  0  0  0  0  0  0  0  0  0  0  0
  127.2409  131.5756   59.7245 H   0  0  0  0  0  0  0  0  0  0  0  0
  127.5419  125.5207   61.6536 H   0  0  0  0  0  0  0  0  0  0  0  0
  1  2  1  0
  2  3  1  0
  2  4  1  0
  4  5  1  0
  5  6  2  0
  5  7  1  0
  7  8  1  0
  8  9  1  0
  9 10  2  0
 10 11  1  0
 10 12  1  0
 12 13  2  0
 13 14  1  0
 14 15  2  0
 15 16  1  0
 16 17  1  0
 17 18  1  0
 18 19  2  0
 19 20  1  0
 20 21  2  0
 21 22  1  0
 22 23  1  0
 22 24  2  0
 24 25  1  0
 25 26  2  0
 26 27  1  0
 17 28  2  0
 28 29  1  0
 29 30  2  0
 30 31  1  0
 31 32  2  0
 32 33  1  0
 33 34  2  0
 34 35  1  0
 35 36  2  0
 13 37  1  0
 37 38  2  0
 38 39  1  0
 39 40  2  0
 39 41  1  0
 38  9  1  0
 35 16  1  0
 27 18  1  0
 34 29  1  0
 26 20  1  0
  1 42  1  0
  1 43  1  0
  1 44  1  0
  2 45  1  0
  3 46  1  0
  3 47  1  0
  3 48  1  0
  7 49  1  0
  7 50  1  0
 12 51  1  0
 14 52  1  0
 19 53  1  0
 21 54  1  0
 24 55  1  0
 25 56  1  0
 30 57  1  0
 31 58  1  0
 32 59  1  0
 33 60  1  0
 37 61  1  0
M  CHG  2  39   1  41  -1
M  END
>  <Binding energies>  (1) 
[-8.42]

>  <Ligand effiencies>  (1) 
[-0.20536585365853657]

>  <Interactions>  (1) 
["V-A:ILE:369:CG2:3237, V-A:ASP:366:CA:3210, V-B:PRO:540:CA:9855, V-A:GLU:543:CA:4904, V-B:GLU:543:C:9874, V-B:GLU:543:CB:9878, V-B:TYR:539:CE2:9848, V-B:LEU:475:CD2:9230, V-B:GLU:543:CG:9879, V-A:ASP:366:CG:3213, V-A:HIS:456:CD2:4068, V-A:TYR:539:CD1:4873, V-B:TYR:484:CE2:9317, V-A:ALA:541:CB:4892, H-B:ALA:541:N:9863, V-A:GLU:543:CD:4908, H-B:TYR:484:OH:9319, V-B:HIS:456:CE1:9041, V-A:ILE:369:CD1:3239, V-B:TYR:484:CZ:9318, V-A:HIS:456:CE1:4070, V-B:TYR:539:CD2:9846, V-A:GLU:543:CG:4907, H-A:SER:385:OG:3410, V-B:GLU:543:CD:9880, V-A:ASP:366:CB:3212, V-A:LEU:475:CD2:4259, V-A:GLU:543:CB:4906, V-B:PRO:540:C:9853, V-A:TYR:539:CE1:4875"]

$$$$
ZINC409293695
     RDKit          3D

 51 54  0  0  0  0  0  0  0  0999 V2000
  132.0600  125.3950   64.9160 C   0  0  0  0  0  0  0  0  0  0  0  0
  130.8140  124.4540   64.9160 C   0  0  0  0  0  0  0  0  0  0  0  0
  130.2000  124.5510   66.3440 C   0  0  0  0  0  0  0  0  0  0  0  0
  131.3410  123.0210   64.6490 C   0  0  0  0  0  0  0  0  0  0  0  0
  129.7650  124.8710   63.8050 C   0  0  0  0  0  0  0  0  0  0  0  0
  129.4940  123.9990   62.8920 N   0  0  0  0  0  0  0  0  0  0  0  0
  128.6720  124.2980   61.8030 C   0  0  0  0  0  0  0  0  0  0  0  0
  128.4230  123.2990   60.8620 C   0  0  0  0  0  0  0  0  0  0  0  0
  127.6370  123.5830   59.7440 C   0  0  0  0  0  0  0  0  0  0  0  0
  127.1050  124.8630   59.5650 C   0  0  0  0  0  0  0  0  0  0  0  0
  126.0420  125.2430   58.0330 Br  0  0  0  0  0  0  0  0  0  0  0  0
  127.3520  125.8640   60.5070 C   0  0  0  0  0  0  0  0  0  0  0  0
  128.1320  125.5740   61.6320 C   0  0  0  0  0  0  0  0  0  0  0  0
  128.4140  126.6300   62.6800 C   0  0  0  0  0  0  0  0  0  0  0  0
  128.0010  127.7910   62.5740 O   0  0  0  0  0  0  0  0  0  0  0  0
  129.1570  126.1430   63.7570 N   0  0  0  0  0  0  0  0  0  0  0  0
  129.3670  127.0410   64.7880 N   0  0  0  0  0  0  0  0  0  0  0  0
  128.4320  127.1820   65.6560 C   0  0  0  0  0  0  0  0  0  0  0  0
  128.5970  128.0510   66.8100 C   0  0  0  0  0  0  0  0  0  0  0  0
  128.3940  129.4080   67.0130 C   0  0  0  0  0  0  0  0  0  0  0  0
  128.7040  129.6740   68.3460 C   0  0  0  0  0  0  0  0  0  0  0  0
  129.0930  128.4720   68.9230 C   0  0  0  0  0  0  0  0  0  0  0  0
  129.5080  128.0830   70.3050 C   0  0  0  0  0  0  0  0  0  0  0  0
  128.5120  128.0790   71.2910 C   0  0  0  0  0  0  0  0  0  0  0  0
  128.7780  127.7230   72.6280 C   0  0  0  0  0  0  0  0  0  0  0  0
  127.6860  127.7250   73.6790 C   0  0  0  0  0  0  0  0  0  0  0  0
  126.4890  127.7100   73.3060 O   0  0  0  0  0  0  0  0  0  0  0  0
  128.0140  127.7400   74.8900 O   0  0  0  0  0  0  0  0  0  0  0  0
  130.1020  127.3670   72.9460 C   0  0  0  0  0  0  0  0  0  0  0  0
  131.1030  127.3690   71.9790 C   0  0  0  0  0  0  0  0  0  0  0  0
  130.8180  127.7250   70.6630 C   0  0  0  0  0  0  0  0  0  0  0  0
  132.1260  127.7330   69.5280 Cl  0  0  0  0  0  0  0  0  0  0  0  0
  129.0070  127.4940   67.9840 O   0  0  0  0  0  0  0  0  0  0  0  0
  132.3526  125.6160   65.9531 H   0  0  0  0  0  0  0  0  0  0  0  0
  132.8939  124.8993   64.3975 H   0  0  0  0  0  0  0  0  0  0  0  0
  131.8113  126.3327   64.3975 H   0  0  0  0  0  0  0  0  0  0  0  0
  130.9947  124.4255   67.0941 H   0  0  0  0  0  0  0  0  0  0  0  0
  129.7260  125.5352   66.4732 H   0  0  0  0  0  0  0  0  0  0  0  0
  129.4457  123.7609   66.4732 H   0  0  0  0  0  0  0  0  0  0  0  0
  131.5273  122.5143   65.6074 H   0  0  0  0  0  0  0  0  0  0  0  0
  130.5919  122.4558   64.0750 H   0  0  0  0  0  0  0  0  0  0  0  0
  132.2778  123.0758   64.0750 H   0  0  0  0  0  0  0  0  0  0  0  0
  128.8440  122.2922   61.0003 H   0  0  0  0  0  0  0  0  0  0  0  0
  127.4356  122.7969   59.0014 H   0  0  0  0  0  0  0  0  0  0  0  0
  126.9366  126.8727   60.3657 H   0  0  0  0  0  0  0  0  0  0  0  0
  127.4871  126.6345   65.5242 H   0  0  0  0  0  0  0  0  0  0  0  0
  128.0527  130.1371   66.2634 H   0  0  0  0  0  0  0  0  0  0  0  0
  128.6506  130.6520   68.8466 H   0  0  0  0  0  0  0  0  0  0  0  0
  127.4870  128.3637   71.0113 H   0  0  0  0  0  0  0  0  0  0  0  0
  130.3505  127.0816   73.9789 H   0  0  0  0  0  0  0  0  0  0  0  0
  132.1292  127.0867   72.2568 H   0  0  0  0  0  0  0  0  0  0  0  0
  1  2  1  0
  2  3  1  0
  2  4  1  0
  2  5  1  0
  5  6  2  0
  6  7  1  0
  7  8  2  0
  8  9  1  0
  9 10  2  0
 10 11  1  0
 10 12  1  0
 12 13  2  0
 13 14  1  0
 14 15  2  0
 14 16  1  0
 16 17  1  0
 17 18  2  0
 18 19  1  0
 19 20  2  0
 20 21  1  0
 21 22  2  0
 22 23  1  0
 23 24  2  0
 24 25  1  0
 25 26  1  0
 26 27  2  0
 26 28  1  0
 25 29  2  0
 29 30  1  0
 30 31  2  0
 31 32  1  0
 22 33  1  0
 16  5  1  0
 33 19  1  0
 13  7  1  0
 31 23  1  0
  1 34  1  0
  1 35  1  0
  1 36  1  0
  3 37  1  0
  3 38  1  0
  3 39  1  0
  4 40  1  0
  4 41  1  0
  4 42  1  0
  8 43  1  0
  9 44  1  0
 12 45  1  0
 18 46  1  0
 20 47  1  0
 21 48  1  0
 24 49  1  0
 29 50  1  0
 30 51  1  0
M  CHG  1  28  -1
M  END
>  <Binding energies>  (1) 
[-6.97]

>  <Ligand effiencies>  (1) 
[-0.2112121212121212]

>  <Interactions>  (1) 
["V-B:PRO:540:CA:9855, V-A:GLU:543:CA:4904, V-A:ARG:545:CA:4919, V-B:HIS:456:CD2:9039, V-A:GLU:543:C:4902, V-B:GLU:543:CB:9878, H-B:LYS:547:NZ:9923, V-A:TYR:484:CE2:4346, V-B:GLU:543:CG:9879, V-A:GLY:544:C:4912, V-A:HIS:456:CD2:4068, V-B:TYR:484:CE2:9317, V-B:LYS:547:CE:9922, V-A:GLU:543:CD:4908, V-A:TYR:484:CZ:4347, V-B:HIS:456:CE1:9041, V-A:ARG:545:CG:4922, V-B:TYR:484:CZ:9318, V-A:HIS:456:CE1:4070, V-A:GLU:543:CG:4907, V-B:GLU:543:CD:9880, V-A:ARG:545:CB:4921, V-A:LEU:475:CD2:4259, V-A:ARG:545:CZ:4926, V-A:GLU:543:CB:4906, V-A:HIS:456:CG:4066"]

$$$$
ZINC409294571
     RDKit          3D

 61 66  0  0  0  0  0  0  0  0999 V2000
  127.6420  127.7540   75.4590 O   0  0  0  0  0  0  0  0  0  0  0  0
  128.6360  128.3030   74.9270 C   0  0  0  0  0  0  0  0  0  0  0  0
  129.3840  129.0910   75.5560 O   0  0  0  0  0  0  0  0  0  0  0  0
  128.9460  128.0050   73.4740 C   0  0  0  0  0  0  0  0  0  0  0  0
  128.0160  127.3390   72.6520 C   0  0  0  0  0  0  0  0  0  0  0  0
  128.2980  127.0670   71.3160 C   0  0  0  0  0  0  0  0  0  0  0  0
  129.5200  127.4560   70.7680 C   0  0  0  0  0  0  0  0  0  0  0  0
  129.8220  127.1780   69.3070 C   0  0  0  0  0  0  0  0  0  0  0  0
  128.5880  127.0700   68.6030 O   0  0  0  0  0  0  0  0  0  0  0  0
  128.5130  127.4390   67.2730 C   0  0  0  0  0  0  0  0  0  0  0  0
  127.7930  128.5580   66.8240 C   0  0  0  0  0  0  0  0  0  0  0  0
  127.7310  128.8710   65.4680 C   0  0  0  0  0  0  0  0  0  0  0  0
  128.3860  128.0820   64.5190 C   0  0  0  0  0  0  0  0  0  0  0  0
  128.2870  128.4320   63.0990 C   0  0  0  0  0  0  0  0  0  0  0  0
  127.7990  127.6500   62.2040 N   0  0  0  0  0  0  0  0  0  0  0  0
  127.6800  128.1610   60.9260 N   0  0  0  0  0  0  0  0  0  0  0  0
  128.6770  127.8780   59.9750 C   0  0  0  0  0  0  0  0  0  0  0  0
  129.8800  127.0570   60.2010 C   0  0  0  0  0  0  0  0  0  0  0  0
  130.5220  126.6560   61.3730 C   0  0  0  0  0  0  0  0  0  0  0  0
  131.6520  125.8780   60.9780 C   0  0  0  0  0  0  0  0  0  0  0  0
  132.7000  125.2020   61.6270 C   0  0  0  0  0  0  0  0  0  0  0  0
  133.6500  124.5350   60.8470 C   0  0  0  0  0  0  0  0  0  0  0  0
  133.5740  124.5280   59.4530 C   0  0  0  0  0  0  0  0  0  0  0  0
  132.5450  125.1870   58.7790 C   0  0  0  0  0  0  0  0  0  0  0  0
  131.5990  125.8520   59.5670 C   0  0  0  0  0  0  0  0  0  0  0  0
  130.5230  126.5500   59.1060 O   0  0  0  0  0  0  0  0  0  0  0  0
  128.5680  128.3540   58.7820 N   0  0  0  0  0  0  0  0  0  0  0  0
  127.5060  129.1850   58.4110 C   0  0  0  0  0  0  0  0  0  0  0  0
  127.4590  129.6610   57.0990 C   0  0  0  0  0  0  0  0  0  0  0  0
  126.4180  130.5030   56.7050 C   0  0  0  0  0  0  0  0  0  0  0  0
  125.4280  130.8700   57.6200 C   0  0  0  0  0  0  0  0  0  0  0  0
  125.4710  130.3960   58.9330 C   0  0  0  0  0  0  0  0  0  0  0  0
  126.5140  129.5480   59.3240 C   0  0  0  0  0  0  0  0  0  0  0  0
  126.5940  129.0110   60.7380 C   0  0  0  0  0  0  0  0  0  0  0  0
  125.7660  129.3060   61.6090 O   0  0  0  0  0  0  0  0  0  0  0  0
  129.1040  126.9650   64.9670 C   0  0  0  0  0  0  0  0  0  0  0  0
  129.1780  126.6360   66.3280 C   0  0  0  0  0  0  0  0  0  0  0  0
  129.9510  125.4440   66.7370 N   0  0  0  0  0  0  0  0  0  0  0  0
  131.0050  125.1990   66.1580 O   0  0  0  0  0  0  0  0  0  0  0  0
  129.4900  124.7380   67.6280 O   0  0  0  0  0  0  0  0  0  0  0  0
  130.4570  128.1180   71.5610 C   0  0  0  0  0  0  0  0  0  0  0  0
  130.1730  128.3880   72.8970 C   0  0  0  0  0  0  0  0  0  0  0  0
  127.0488  127.0280   73.0736 H   0  0  0  0  0  0  0  0  0  0  0  0
  127.5569  126.5452   70.6927 H   0  0  0  0  0  0  0  0  0  0  0  0
  130.4175  128.0024   68.8878 H   0  0  0  0  0  0  0  0  0  0  0  0
  130.3935  126.2430   69.2115 H   0  0  0  0  0  0  0  0  0  0  0  0
  127.2711  129.1957   67.5527 H   0  0  0  0  0  0  0  0  0  0  0  0
  127.1586  129.7512   65.1400 H   0  0  0  0  0  0  0  0  0  0  0  0
  128.6512  129.4203   62.7817 H   0  0  0  0  0  0  0  0  0  0  0  0
  130.2165  126.8935   62.4027 H   0  0  0  0  0  0  0  0  0  0  0  0
  132.7712  125.1978   62.7247 H   0  0  0  0  0  0  0  0  0  0  0  0
  134.4758  124.0039   61.3430 H   0  0  0  0  0  0  0  0  0  0  0  0
  134.3407  123.9922   58.8742 H   0  0  0  0  0  0  0  0  0  0  0  0
  132.4806  125.1839   57.6809 H   0  0  0  0  0  0  0  0  0  0  0  0
  128.2393  129.3735   56.3790 H   0  0  0  0  0  0  0  0  0  0  0  0
  126.3769  130.8785   55.6719 H   0  0  0  0  0  0  0  0  0  0  0  0
  124.6108  131.5354   57.3047 H   0  0  0  0  0  0  0  0  0  0  0  0
  124.6922  130.6864   59.6535 H   0  0  0  0  0  0  0  0  0  0  0  0
  129.6223  126.3307   64.2328 H   0  0  0  0  0  0  0  0  0  0  0  0
  131.4210  128.4270   71.1307 H   0  0  0  0  0  0  0  0  0  0  0  0
  130.9201  128.9098   73.5132 H   0  0  0  0  0  0  0  0  0  0  0  0
  1  2  2  0
  2  3  1  0
  2  4  1  0
  4  5  2  0
  5  6  1  0
  6  7  2  0
  7  8  1  0
  8  9  1  0
  9 10  1  0
 10 11  2  0
 11 12  1  0
 12 13  2  0
 13 14  1  0
 14 15  2  0
 15 16  1  0
 16 17  1  0
 17 18  1  0
 18 19  2  0
 19 20  1  0
 20 21  2  0
 21 22  1  0
 22 23  2  0
 23 24  1  0
 24 25  2  0
 25 26  1  0
 17 27  2  0
 27 28  1  0
 28 29  2  0
 29 30  1  0
 30 31  2  0
 31 32  1  0
 32 33  2  0
 33 34  1  0
 34 35  2  0
 13 36  1  0
 36 37  2  0
 37 38  1  0
 38 39  2  0
 38 40  1  0
  7 41  1  0
 41 42  2  0
 42  4  1  0
 37 10  1  0
 34 16  1  0
 26 18  1  0
 33 28  1  0
 25 20  1  0
  5 43  1  0
  6 44  1  0
  8 45  1  0
  8 46  1  0
 11 47  1  0
 12 48  1  0
 14 49  1  0
 19 50  1  0
 21 51  1  0
 22 52  1  0
 23 53  1  0
 24 54  1  0
 29 55  1  0
 30 56  1  0
 31 57  1  0
 32 58  1  0
 36 59  1  0
 41 60  1  0
 42 61  1  0
M  CHG  3   3  -1  38   1  40  -1
M  END
>  <Binding energies>  (1) 
[-9.77]

>  <Ligand effiencies>  (1) 
[-0.23261904761904761]

>  <Interactions>  (1) 
["V-A:ILE:369:CG2:3237, V-A:ASP:366:CA:3210, V-B:HIS:456:CD2:9039, V-A:GLU:543:C:4902, V-B:GLU:543:CB:9878, H-B:LYS:547:NZ:9923, V-B:TYR:539:CE2:9848, V-B:GLU:543:CG:9879, V-A:GLY:544:C:4912, V-A:ASP:366:CG:3213, V-A:TYR:539:CZ:4877, V-A:GLU:543:CD:4908, V-B:HIS:456:CE1:9041, V-A:HIS:456:CE1:4070, V-B:GLU:543:CD:9880, V-A:MET:535:CE:4835, V-A:ASP:366:CB:3212, H-A:LYS:547:NZ:4951, H-B:ARG:545:NH2:9900, V-A:TYR:539:CE1:4875, H-A:TYR:484:OH:4348"]

$$$$
ZINC409299085
     RDKit          3D

 67 69  0  0  0  0  0  0  0  0999 V2000
  133.2730  131.4610   61.8940 C   0  0  0  0  0  0  0  0  0  0  0  0
  131.7850  131.1730   61.6760 C   0  0  0  0  0  0  0  0  0  0  0  0
  131.0200  132.0990   62.4330 O   0  0  0  0  0  0  0  0  0  0  0  0
  129.6700  132.0850   62.3950 C   0  0  0  0  0  0  0  0  0  0  0  0
  128.9720  132.6300   61.5360 O   0  0  0  0  0  0  0  0  0  0  0  0
  129.0640  131.3110   63.5880 C   0  0  1  0  0  0  0  0  0  0  0  0
  128.3920  132.2260   64.6300 C   0  0  0  0  0  0  0  0  0  0  0  0
  128.0670  130.3720   63.1580 O   0  0  0  0  0  0  0  0  0  0  0  0
  128.5120  129.1330   62.7440 C   0  0  0  0  0  0  0  0  0  0  0  0
  128.8260  128.9640   61.3900 C   0  0  0  0  0  0  0  0  0  0  0  0
  128.6500  130.0580   60.5640 O   0  0  0  0  0  0  0  0  0  0  0  0
  129.0630  129.9910   59.2030 C   0  0  0  0  0  0  0  0  0  0  0  0
  129.7680  131.3020   58.8470 C   0  0  0  0  0  0  0  0  0  0  0  0
  129.3230  127.7260   60.9530 C   0  0  0  0  0  0  0  0  0  0  0  0
  129.5190  126.6630   61.8430 C   0  0  0  0  0  0  0  0  0  0  0  0
  130.0640  125.3710   61.4120 C   0  0  0  0  0  0  0  0  0  0  0  0
  130.6110  124.5230   62.2080 N   0  0  0  0  0  0  0  0  0  0  0  0
  131.0720  123.3390   61.6640 N   0  0  0  0  0  0  0  0  0  0  0  0
  132.2990  123.3060   60.9700 C   0  0  0  0  0  0  0  0  0  0  0  0
  133.2790  124.5460   60.8770 C   0  0  0  0  0  0  0  0  0  0  0  0
  132.6480  125.7240   60.0660 C   0  0  0  0  0  0  0  0  0  0  0  0
  133.5870  125.1010   62.2930 C   0  0  0  0  0  0  0  0  0  0  0  0
  134.5980  124.1770   60.1380 C   0  0  0  0  0  0  0  0  0  0  0  0
  132.6820  122.2120   60.4000 N   0  0  0  0  0  0  0  0  0  0  0  0
  131.9500  121.0280   60.5040 C   0  0  0  0  0  0  0  0  0  0  0  0
  132.4280  119.8880   59.8560 C   0  0  0  0  0  0  0  0  0  0  0  0
  131.7350  118.6820   59.9740 C   0  0  0  0  0  0  0  0  0  0  0  0
  130.5690  118.6140   60.7400 C   0  0  0  0  0  0  0  0  0  0  0  0
  129.6330  116.9660   60.8980 Br  0  0  0  0  0  0  0  0  0  0  0  0
  130.0890  119.7530   61.3910 C   0  0  0  0  0  0  0  0  0  0  0  0
  130.7810  120.9630   61.2640 C   0  0  0  0  0  0  0  0  0  0  0  0
  130.2890  122.2190   61.9500 C   0  0  0  0  0  0  0  0  0  0  0  0
  129.2840  122.2250   62.6720 O   0  0  0  0  0  0  0  0  0  0  0  0
  129.1790  126.8510   63.1870 C   0  0  0  0  0  0  0  0  0  0  0  0
  128.6640  128.0680   63.6510 C   0  0  0  0  0  0  0  0  0  0  0  0
  128.2920  128.2020   65.0760 N   0  0  0  0  0  0  0  0  0  0  0  0
  128.7530  127.3990   65.8810 O   0  0  0  0  0  0  0  0  0  0  0  0
  127.5490  129.1260   65.3940 O   0  0  0  0  0  0  0  0  0  0  0  0
  133.4844  131.5019   62.9727 H   0  0  0  0  0  0  0  0  0  0  0  0
  133.8725  130.6622   61.4329 H   0  0  0  0  0  0  0  0  0  0  0  0
  133.5311  132.4258   61.4329 H   0  0  0  0  0  0  0  0  0  0  0  0
  131.5413  131.2786   60.6086 H   0  0  0  0  0  0  0  0  0  0  0  0
  131.5534  130.1473   61.9990 H   0  0  0  0  0  0  0  0  0  0  0  0
  129.9225  130.7991   64.0473 H   0  0  0  0  0  0  0  0  0  0  0  0
  128.6472  131.8785   65.6420 H   0  0  0  0  0  0  0  0  0  0  0  0
  128.7484  133.2580   64.4959 H   0  0  0  0  0  0  0  0  0  0  0  0
  127.3007  132.1947   64.4959 H   0  0  0  0  0  0  0  0  0  0  0  0
  129.7557  129.1476   59.0661 H   0  0  0  0  0  0  0  0  0  0  0  0
  128.1904  129.8418   58.5501 H   0  0  0  0  0  0  0  0  0  0  0  0
  130.0511  131.8285   59.7704 H   0  0  0  0  0  0  0  0  0  0  0  0
  130.6708  131.0845   58.2574 H   0  0  0  0  0  0  0  0  0  0  0  0
  129.0887  131.9352   58.2574 H   0  0  0  0  0  0  0  0  0  0  0  0
  129.5636  127.5881   59.8885 H   0  0  0  0  0  0  0  0  0  0  0  0
  130.0008  125.1127   60.3446 H   0  0  0  0  0  0  0  0  0  0  0  0
  132.2459  126.4746   60.7624 H   0  0  0  0  0  0  0  0  0  0  0  0
  133.4187  126.1873   59.4325 H   0  0  0  0  0  0  0  0  0  0  0  0
  131.8353  125.3391   59.4325 H   0  0  0  0  0  0  0  0  0  0  0  0
  133.2006  124.4047   63.0518 H   0  0  0  0  0  0  0  0  0  0  0  0
  134.6747  125.2101   62.4155 H   0  0  0  0  0  0  0  0  0  0  0  0
  133.1041  126.0817   62.4155 H   0  0  0  0  0  0  0  0  0  0  0  0
  135.3830  123.9574   60.8766 H   0  0  0  0  0  0  0  0  0  0  0  0
  134.4297  123.2915   59.5075 H   0  0  0  0  0  0  0  0  0  0  0  0
  134.9136  125.0213   59.5075 H   0  0  0  0  0  0  0  0  0  0  0  0
  133.3475  119.9397   59.2545 H   0  0  0  0  0  0  0  0  0  0  0  0
  132.1082  117.7827   59.4623 H   0  0  0  0  0  0  0  0  0  0  0  0
  129.1739  119.6993   61.9990 H   0  0  0  0  0  0  0  0  0  0  0  0
  129.3196  126.0225   63.8968 H   0  0  0  0  0  0  0  0  0  0  0  0
  1  2  1  0
  2  3  1  0
  3  4  1  0
  4  5  2  0
  4  6  1  0
  6  7  1  0
  6  8  1  0
  8  9  1  0
  9 10  2  0
 10 11  1  0
 11 12  1  0
 12 13  1  0
 10 14  1  0
 14 15  2  0
 15 16  1  0
 16 17  2  0
 17 18  1  0
 18 19  1  0
 19 20  1  0
 20 21  1  0
 20 22  1  0
 20 23  1  0
 19 24  2  0
 24 25  1  0
 25 26  2  0
 26 27  1  0
 27 28  2  0
 28 29  1  0
 28 30  1  0
 30 31  2  0
 31 32  1  0
 32 33  2  0
 15 34  1  0
 34 35  2  0
 35 36  1  0
 36 37  2  0
 36 38  1  0
 35  9  1  0
 32 18  1  0
 31 25  1  0
  1 39  1  0
  1 40  1  0
  1 41  1  0
  2 42  1  0
  2 43  1  0
  6 44  1  1
  7 45  1  0
  7 46  1  0
  7 47  1  0
 12 48  1  0
 12 49  1  0
 13 50  1  0
 13 51  1  0
 13 52  1  0
 14 53  1  0
 16 54  1  0
 21 55  1  0
 21 56  1  0
 21 57  1  0
 22 58  1  0
 22 59  1  0
 22 60  1  0
 23 61  1  0
 23 62  1  0
 23 63  1  0
 26 64  1  0
 27 65  1  0
 30 66  1  0
 34 67  1  0
M  CHG  2  36   1  38  -1
M  END
>  <Binding energies>  (1) 
[-5.78]

>  <Ligand effiencies>  (1) 
[-0.15210526315789474]

>  <Interactions>  (1) 
["V-A:ILE:369:CG2:3237, V-A:ASP:366:CA:3210, V-A:ILE:369:CB:3236, H-A:ALA:541:N:4891, V-B:ALA:541:CB:9864, V-B:TYR:539:CE2:9848, V-B:TYR:539:C:9839, V-A:ASP:366:CG:3213, V-A:ASN:362:CB:3176, V-B:TYR:484:CE2:9317, V-A:ALA:541:CB:4892, V-B:VAL:344:CG1:7972, V-B:TYR:539:CB:9843, V-A:GLU:543:CD:4908, H-B:TYR:484:OH:9319, V-B:TYR:484:CZ:9318, V-A:ILE:369:CD1:3239, V-A:PRO:482:CB:4326, V-B:TYR:539:CD2:9846, V-A:GLU:543:CG:4907, V-A:SER:385:CB:3409, V-B:GLU:543:CD:9880, V-A:ILE:369:CG1:3238, V-A:ASP:366:CB:3212, V-A:LEU:475:CD2:4259, V-A:ARG:545:CZ:4926, V-B:TYR:539:CG:9844, V-A:PRO:540:CB:4885, V-A:PRO:482:CG:4327, V-A:HIS:383:NE2:3394"]

$$$$
ZINC409299467
     RDKit          3D

 54 58  0  0  0  0  0  0  0  0999 V2000
  132.3870  122.9130   61.5720 C   0  0  0  0  0  0  0  0  0  0  0  0
  133.3350  123.9670   62.1790 C   0  0  1  0  0  0  0  0  0  0  0  0
  132.9800  125.2500   61.6250 O   0  0  0  0  0  0  0  0  0  0  0  0
  132.0010  125.2700   60.6460 C   0  0  0  0  0  0  0  0  0  0  0  0
  130.6710  125.6760   60.9250 C   0  0  0  0  0  0  0  0  0  0  0  0
  130.2170  126.2700   62.1960 C   0  0  0  0  0  0  0  0  0  0  0  0
  129.5890  125.6300   63.1130 N   0  0  0  0  0  0  0  0  0  0  0  0
  129.2900  126.3220   64.2690 N   0  0  0  0  0  0  0  0  0  0  0  0
  128.4890  127.4760   64.1980 C   0  0  0  0  0  0  0  0  0  0  0  0
  127.9040  128.0470   62.9740 C   0  0  0  0  0  0  0  0  0  0  0  0
  127.6630  129.3670   62.5900 C   0  0  0  0  0  0  0  0  0  0  0  0
  127.0710  129.3170   61.2900 C   0  0  0  0  0  0  0  0  0  0  0  0
  126.5890  130.2490   60.3580 C   0  0  0  0  0  0  0  0  0  0  0  0
  126.0610  129.7770   59.1500 C   0  0  0  0  0  0  0  0  0  0  0  0
  125.4000  131.0250   57.8730 Br  0  0  0  0  0  0  0  0  0  0  0  0
  126.0090  128.4110   58.8650 C   0  0  0  0  0  0  0  0  0  0  0  0
  126.4830  127.4610   59.7710 C   0  0  0  0  0  0  0  0  0  0  0  0
  127.0090  127.9420   60.9740 C   0  0  0  0  0  0  0  0  0  0  0  0
  127.5210  127.1830   61.9840 O   0  0  0  0  0  0  0  0  0  0  0  0
  128.2080  128.1220   65.2780 N   0  0  0  0  0  0  0  0  0  0  0  0
  128.7170  127.7360   66.5230 C   0  0  0  0  0  0  0  0  0  0  0  0
  128.3710  128.4880   67.6470 C   0  0  0  0  0  0  0  0  0  0  0  0
  128.8750  128.1330   68.9000 C   0  0  0  0  0  0  0  0  0  0  0  0
  129.7230  127.0300   69.0280 C   0  0  0  0  0  0  0  0  0  0  0  0
  130.0710  126.2740   67.9070 C   0  0  0  0  0  0  0  0  0  0  0  0
  129.5620  126.6300   66.6520 C   0  0  0  0  0  0  0  0  0  0  0  0
  129.9150  125.8350   65.4120 C   0  0  0  0  0  0  0  0  0  0  0  0
  130.6730  124.8570   65.4460 O   0  0  0  0  0  0  0  0  0  0  0  0
  129.7080  125.5560   59.9140 C   0  0  0  0  0  0  0  0  0  0  0  0
  130.0480  125.1070   58.6440 C   0  0  0  0  0  0  0  0  0  0  0  0
  128.7150  124.9710   57.2920 Br  0  0  0  0  0  0  0  0  0  0  0  0
  131.3680  124.7850   58.3550 C   0  0  0  0  0  0  0  0  0  0  0  0
  132.3570  124.8820   59.3380 C   0  0  0  0  0  0  0  0  0  0  0  0
  133.7570  124.5820   58.9720 N   0  0  0  0  0  0  0  0  0  0  0  0
  134.6240  124.6940   59.8350 O   0  0  0  0  0  0  0  0  0  0  0  0
  133.9970  124.2710   57.8090 O   0  0  0  0  0  0  0  0  0  0  0  0
  133.2330  123.9770   63.7290 C   0  0  0  0  0  0  0  0  0  0  0  0
  132.3660  123.2370   64.2500 O   0  0  0  0  0  0  0  0  0  0  0  0
  133.9960  124.7290   64.3790 O   0  0  0  0  0  0  0  0  0  0  0  0
  131.8886  122.3589   62.3810 H   0  0  0  0  0  0  0  0  0  0  0  0
  131.6303  123.4148   60.9510 H   0  0  0  0  0  0  0  0  0  0  0  0
  132.9659  122.2135   60.9510 H   0  0  0  0  0  0  0  0  0  0  0  0
  134.3795  123.7272   61.9310 H   0  0  0  0  0  0  0  0  0  0  0  0
  130.4316  127.3348   62.3695 H   0  0  0  0  0  0  0  0  0  0  0  0
  127.8857  130.2715   63.1751 H   0  0  0  0  0  0  0  0  0  0  0  0
  126.6252  131.3274   60.5719 H   0  0  0  0  0  0  0  0  0  0  0  0
  125.5856  128.0767   57.9064 H   0  0  0  0  0  0  0  0  0  0  0  0
  126.4446  126.3843   59.5491 H   0  0  0  0  0  0  0  0  0  0  0  0
  127.7039  129.3568   67.5461 H   0  0  0  0  0  0  0  0  0  0  0  0
  128.6038  128.7229   69.7880 H   0  0  0  0  0  0  0  0  0  0  0  0
  130.1185  126.7558   70.0171 H   0  0  0  0  0  0  0  0  0  0  0  0
  130.7393  125.4062   68.0088 H   0  0  0  0  0  0  0  0  0  0  0  0
  128.6629  125.8224   60.1301 H   0  0  0  0  0  0  0  0  0  0  0  0
  131.6377  124.4503   57.3424 H   0  0  0  0  0  0  0  0  0  0  0  0
  1  2  1  0
  2  3  1  0
  3  4  1  0
  4  5  2  0
  5  6  1  0
  6  7  2  0
  7  8  1  0
  8  9  1  0
  9 10  1  0
 10 11  2  0
 11 12  1  0
 12 13  2  0
 13 14  1  0
 14 15  1  0
 14 16  2  0
 16 17  1  0
 17 18  2  0
 18 19  1  0
  9 20  2  0
 20 21  1  0
 21 22  2  0
 22 23  1  0
 23 24  2  0
 24 25  1  0
 25 26  2  0
 26 27  1  0
 27 28  2  0
  5 29  1  0
 29 30  2  0
 30 31  1  0
 30 32  1  0
 32 33  2  0
 33 34  1  0
 34 35  2  0
 34 36  1  0
  2 37  1  0
 37 38  2  0
 37 39  1  0
 33  4  1  0
 27  8  1  0
 19 10  1  0
 26 21  1  0
 18 12  1  0
  1 40  1  0
  1 41  1  0
  1 42  1  0
  2 43  1  1
  6 44  1  0
 11 45  1  0
 13 46  1  0
 16 47  1  0
 17 48  1  0
 22 49  1  0
 23 50  1  0
 24 51  1  0
 25 52  1  0
 29 53  1  0
 32 54  1  0
M  CHG  3  34   1  36  -1  39  -1
M  END
>  <Binding energies>  (1) 
[-7.57]

>  <Ligand effiencies>  (1) 
[-0.1941025641025641]

>  <Interactions>  (1) 
["V-A:ILE:369:CG2:3237, V-A:ASP:366:CA:3210, V-A:GLY:454:CA:4049, V-A:ILE:369:CB:3236, V-B:GLU:543:CB:9878, V-B:ASP:366:CG:8184, H-A:ARG:545:NH1:4927, V-B:TYR:539:CE2:9848, V-B:GLU:543:CG:9879, V-A:ASP:366:CG:3213, V-B:TYR:539:CZ:9849, H-A:ASN:370:N:3244, V-A:TYR:539:CZ:4877, H-B:TYR:539:OH:9850, V-A:GLU:543:CD:4908, V-B:ASP:366:CB:8183, V-B:HIS:456:CE1:9041, H-A:GLY:454:N:4050, V-A:HIS:456:CE1:4070, V-A:ASP:366:C:3208, V-A:GLU:543:CG:4907, V-B:GLU:543:CD:9880, V-A:ASP:366:CB:3212, H-A:ARG:545:NH2:4928, V-A:GLU:543:CB:4906, H-A:ARG:545:NE:4924, V-A:TYR:539:CE1:4875, H-A:TYR:484:OH:4348"]

$$$$
ZINC409300641
     RDKit          3D

 61 65  0  0  0  0  0  0  0  0999 V2000
  128.7950  124.9460   61.0470 C   0  0  0  0  0  0  0  0  0  0  0  0
  127.8920  125.8100   60.1080 C   0  0  0  0  0  0  0  0  0  0  0  0
  126.5240  125.9580   60.8230 C   0  0  0  0  0  0  0  0  0  0  0  0
  127.7320  124.9930   58.7930 C   0  0  0  0  0  0  0  0  0  0  0  0
  128.5260  127.2350   59.8340 C   0  0  0  0  0  0  0  0  0  0  0  0
  128.9090  127.4840   58.6260 N   0  0  0  0  0  0  0  0  0  0  0  0
  129.3820  128.7420   58.2440 C   0  0  0  0  0  0  0  0  0  0  0  0
  129.7820  128.9300   56.9210 C   0  0  0  0  0  0  0  0  0  0  0  0
  130.2240  130.1870   56.5040 C   0  0  0  0  0  0  0  0  0  0  0  0
  130.2610  131.2530   57.4060 C   0  0  0  0  0  0  0  0  0  0  0  0
  130.8590  132.9650   56.8270 Br  0  0  0  0  0  0  0  0  0  0  0  0
  129.8610  131.0670   58.7310 C   0  0  0  0  0  0  0  0  0  0  0  0
  129.4270  129.8040   59.1480 C   0  0  0  0  0  0  0  0  0  0  0  0
  128.9900  129.5620   60.5780 C   0  0  0  0  0  0  0  0  0  0  0  0
  128.9640  130.4670   61.4210 O   0  0  0  0  0  0  0  0  0  0  0  0
  128.6520  128.2300   60.8260 N   0  0  0  0  0  0  0  0  0  0  0  0
  128.3380  127.9410   62.1420 N   0  0  0  0  0  0  0  0  0  0  0  0
  129.3140  127.7440   62.9520 C   0  0  0  0  0  0  0  0  0  0  0  0
  129.0990  127.4110   64.3550 C   0  0  0  0  0  0  0  0  0  0  0  0
  128.3350  128.1400   65.2460 C   0  0  0  0  0  0  0  0  0  0  0  0
  128.3510  127.5880   66.5040 N   0  0  0  0  0  0  0  0  0  0  0  0
  127.6140  128.1070   67.6530 C   0  0  0  0  0  0  0  0  0  0  0  0
  128.2640  127.7700   68.9890 C   0  0  0  0  0  0  0  0  0  0  0  0
  127.5990  126.9610   69.9090 C   0  0  0  0  0  0  0  0  0  0  0  0
  128.1920  126.6610   71.1320 C   0  0  0  0  0  0  0  0  0  0  0  0
  129.4670  127.1590   71.4660 C   0  0  0  0  0  0  0  0  0  0  0  0
  130.1110  126.8330   72.8000 C   0  0  0  0  0  0  0  0  0  0  0  0
  129.7370  125.8080   73.4180 O   0  0  0  0  0  0  0  0  0  0  0  0
  130.9980  127.5990   73.2480 O   0  0  0  0  0  0  0  0  0  0  0  0
  130.1220  127.9690   70.5190 C   0  0  0  0  0  0  0  0  0  0  0  0
  129.5290  128.2700   69.2950 C   0  0  0  0  0  0  0  0  0  0  0  0
  129.1110  126.4320   66.4660 C   0  0  0  0  0  0  0  0  0  0  0  0
  129.4130  125.5020   67.4720 C   0  0  0  0  0  0  0  0  0  0  0  0
  130.2200  124.4220   67.1220 C   0  0  0  0  0  0  0  0  0  0  0  0
  130.7100  124.2620   65.8300 C   0  0  0  0  0  0  0  0  0  0  0  0
  130.4100  125.1820   64.8290 C   0  0  0  0  0  0  0  0  0  0  0  0
  129.5990  126.2940   65.1270 C   0  0  0  0  0  0  0  0  0  0  0  0
  128.5567  125.1740   62.0964 H   0  0  0  0  0  0  0  0  0  0  0  0
  128.6110  123.8791   60.8527 H   0  0  0  0  0  0  0  0  0  0  0  0
  129.8528  125.1769   60.8527 H   0  0  0  0  0  0  0  0  0  0  0  0
  126.6760  125.9416   61.9123 H   0  0  0  0  0  0  0  0  0  0  0  0
  126.0594  126.9116   60.5319 H   0  0  0  0  0  0  0  0  0  0  0  0
  125.8662  125.1258   60.5319 H   0  0  0  0  0  0  0  0  0  0  0  0
  127.5259  123.9406   59.0380 H   0  0  0  0  0  0  0  0  0  0  0  0
  126.8971  125.4031   58.2058 H   0  0  0  0  0  0  0  0  0  0  0  0
  128.6599  125.0579   58.2058 H   0  0  0  0  0  0  0  0  0  0  0  0
  129.7494  128.0917   56.2095 H   0  0  0  0  0  0  0  0  0  0  0  0
  130.5439  130.3383   55.4625 H   0  0  0  0  0  0  0  0  0  0  0  0
  129.8869  131.9067   59.4411 H   0  0  0  0  0  0  0  0  0  0  0  0
  130.3443  127.8290   62.5761 H   0  0  0  0  0  0  0  0  0  0  0  0
  127.7808  129.0523   64.9802 H   0  0  0  0  0  0  0  0  0  0  0  0
  127.5509  129.2014   67.5618 H   0  0  0  0  0  0  0  0  0  0  0  0
  126.6218  127.6321   67.6448 H   0  0  0  0  0  0  0  0  0  0  0  0
  126.6038  126.5590   69.6680 H   0  0  0  0  0  0  0  0  0  0  0  0
  127.6557  126.0238   71.8506 H   0  0  0  0  0  0  0  0  0  0  0  0
  131.1195  128.3712   70.7496 H   0  0  0  0  0  0  0  0  0  0  0  0
  130.0596  128.9032   68.5687 H   0  0  0  0  0  0  0  0  0  0  0  0
  129.0281  125.6209   68.4956 H   0  0  0  0  0  0  0  0  0  0  0  0
  130.4768  123.6754   67.8880 H   0  0  0  0  0  0  0  0  0  0  0  0
  131.3447  123.3947   65.5954 H   0  0  0  0  0  0  0  0  0  0  0  0
  130.8040  125.0411   63.8117 H   0  0  0  0  0  0  0  0  0  0  0  0
  1  2  1  0
  2  3  1  0
  2  4  1  0
  2  5  1  0
  5  6  2  0
  6  7  1  0
  7  8  2  0
  8  9  1  0
  9 10  2  0
 10 11  1  0
 10 12  1  0
 12 13  2  0
 13 14  1  0
 14 15  2  0
 14 16  1  0
 16 17  1  0
 17 18  2  0
 18 19  1  0
 19 20  2  0
 20 21  1  0
 21 22  1  0
 22 23  1  0
 23 24  2  0
 24 25  1  0
 25 26  2  0
 26 27  1  0
 27 28  2  0
 27 29  1  0
 26 30  1  0
 30 31  2  0
 21 32  1  0
 32 33  2  0
 33 34  1  0
 34 35  2  0
 35 36  1  0
 36 37  2  0
 16  5  1  0
 37 19  1  0
 13  7  1  0
 31 23  1  0
 37 32  1  0
  1 38  1  0
  1 39  1  0
  1 40  1  0
  3 41  1  0
  3 42  1  0
  3 43  1  0
  4 44  1  0
  4 45  1  0
  4 46  1  0
  8 47  1  0
  9 48  1  0
 12 49  1  0
 18 50  1  0
 20 51  1  0
 22 52  1  0
 22 53  1  0
 24 54  1  0
 25 55  1  0
 30 56  1  0
 31 57  1  0
 33 58  1  0
 34 59  1  0
 35 60  1  0
 36 61  1  0
M  CHG  1  29  -1
M  END
>  <Binding energies>  (1) 
[-7.85]

>  <Ligand effiencies>  (1) 
[-0.21216216216216216]

>  <Interactions>  (1) 
["V-B:GLU:543:C:9874, V-A:GLU:543:C:4902, V-B:GLU:543:CB:9878, H-B:LYS:547:NZ:9923, V-A:ILE:538:CB:4862, V-A:TYR:484:CE2:4346, V-B:GLU:543:CG:9879, V-A:HIS:456:CD2:4068, V-A:ILE:538:CA:4860, V-A:GLU:543:CD:4908, V-A:TYR:484:CZ:4347, V-B:HIS:456:CE1:9041, V-B:GLU:543:CA:9876, V-A:HIS:456:CE1:4070, V-B:GLY:544:C:9884, V-A:GLU:543:CG:4907, V-A:TYR:531:CZ:4794, V-B:GLU:543:CD:9880, V-A:MET:535:CE:4835, H-A:LYS:547:NZ:4951, V-A:GLU:543:CB:4906, V-A:PRO:540:N:4884, V-A:PRO:540:CD:4887"]

$$$$
ZINC409301114
     RDKit          3D

 58 62  0  0  0  0  0  0  0  0999 V2000
  128.3540  122.5410   61.1960 C   0  0  0  0  0  0  0  0  0  0  0  0
  129.7340  122.6040   61.5350 O   0  0  0  0  0  0  0  0  0  0  0  0
  130.2280  123.7200   62.1880 C   0  0  0  0  0  0  0  0  0  0  0  0
  129.5250  124.9300   62.2980 C   0  0  0  0  0  0  0  0  0  0  0  0
  130.0800  126.0400   62.9460 C   0  0  0  0  0  0  0  0  0  0  0  0
  129.3710  127.3220   63.0520 C   0  0  0  0  0  0  0  0  0  0  0  0
  128.0910  127.4330   63.0200 N   0  0  0  0  0  0  0  0  0  0  0  0
  127.5740  128.7140   63.0190 N   0  0  0  0  0  0  0  0  0  0  0  0
  127.5340  129.4430   64.2210 C   0  0  0  0  0  0  0  0  0  0  0  0
  127.9830  128.9660   65.5410 C   0  0  0  0  0  0  0  0  0  0  0  0
  128.1100  129.6190   66.7680 C   0  0  0  0  0  0  0  0  0  0  0  0
  128.5840  128.6500   67.7040 C   0  0  0  0  0  0  0  0  0  0  0  0
  128.9060  128.6280   69.0710 C   0  0  0  0  0  0  0  0  0  0  0  0
  129.3520  127.4290   69.6370 C   0  0  0  0  0  0  0  0  0  0  0  0
  129.7500  127.3840   71.3170 Cl  0  0  0  0  0  0  0  0  0  0  0  0
  129.4820  126.2680   68.8710 C   0  0  0  0  0  0  0  0  0  0  0  0
  129.1710  126.2570   67.5110 C   0  0  0  0  0  0  0  0  0  0  0  0
  128.7270  127.4620   66.9550 C   0  0  0  0  0  0  0  0  0  0  0  0
  128.3760  127.6610   65.6510 O   0  0  0  0  0  0  0  0  0  0  0  0
  127.0640  130.6430   64.2190 N   0  0  0  0  0  0  0  0  0  0  0  0
  126.6290  131.2660   63.0440 C   0  0  0  0  0  0  0  0  0  0  0  0
  126.1370  132.5700   63.1230 C   0  0  0  0  0  0  0  0  0  0  0  0
  125.7100  133.2200   61.9640 C   0  0  0  0  0  0  0  0  0  0  0  0
  125.7750  132.5690   60.7300 C   0  0  0  0  0  0  0  0  0  0  0  0
  126.2640  131.2640   60.6470 C   0  0  0  0  0  0  0  0  0  0  0  0
  126.6900  130.6130   61.8110 C   0  0  0  0  0  0  0  0  0  0  0  0
  127.2300  129.1990   61.7600 C   0  0  0  0  0  0  0  0  0  0  0  0
  127.3360  128.5660   60.7030 O   0  0  0  0  0  0  0  0  0  0  0  0
  131.3680  125.9250   63.4730 C   0  0  0  0  0  0  0  0  0  0  0  0
  132.0970  124.7350   63.3730 C   0  0  0  0  0  0  0  0  0  0  0  0
  133.4850  124.7010   63.8830 N   0  0  0  0  0  0  0  0  0  0  0  0
  133.6520  124.7270   65.0990 O   0  0  0  0  0  0  0  0  0  0  0  0
  134.4050  124.6740   63.0720 O   0  0  0  0  0  0  0  0  0  0  0  0
  131.5040  123.6140   62.7600 C   0  0  0  0  0  0  0  0  0  0  0  0
  132.1610  122.4020   62.6680 O   0  0  0  0  0  0  0  0  0  0  0  0
  133.0370  122.2060   61.5410 C   0  0  2  0  0  0  0  0  0  0  0  0
  132.8830  123.4260   60.6120 C   0  0  0  0  0  0  0  0  0  0  0  0
  132.6890  120.8940   60.7850 C   0  0  0  0  0  0  0  0  0  0  0  0
  133.5920  120.3050   60.1470 O   0  0  0  0  0  0  0  0  0  0  0  0
  131.5120  120.4750   60.8840 O   0  0  0  0  0  0  0  0  0  0  0  0
  127.7514  122.5135   62.1158 H   0  0  0  0  0  0  0  0  0  0  0  0
  128.0808  123.4276   60.6050 H   0  0  0  0  0  0  0  0  0  0  0  0
  128.1627  121.6332   60.6050 H   0  0  0  0  0  0  0  0  0  0  0  0
  128.5165  125.0077   61.8658 H   0  0  0  0  0  0  0  0  0  0  0  0
  129.9690  128.2383   63.1651 H   0  0  0  0  0  0  0  0  0  0  0  0
  127.8878  130.6764   66.9744 H   0  0  0  0  0  0  0  0  0  0  0  0
  128.8094  129.5359   69.6845 H   0  0  0  0  0  0  0  0  0  0  0  0
  129.8369  125.3435   69.3500 H   0  0  0  0  0  0  0  0  0  0  0  0
  129.2701  125.3446   66.9046 H   0  0  0  0  0  0  0  0  0  0  0  0
  126.0860  133.0831   64.0946 H   0  0  0  0  0  0  0  0  0  0  0  0
  125.3214  134.2474   62.0226 H   0  0  0  0  0  0  0  0  0  0  0  0
  125.4394  133.0869   59.8194 H   0  0  0  0  0  0  0  0  0  0  0  0
  126.3142  130.7514   59.6750 H   0  0  0  0  0  0  0  0  0  0  0  0
  131.8203  126.7907   63.9789 H   0  0  0  0  0  0  0  0  0  0  0  0
  134.0780  122.1130   61.8841 H   0  0  0  0  0  0  0  0  0  0  0  0
  132.7681  124.3365   61.2185 H   0  0  0  0  0  0  0  0  0  0  0  0
  133.7766  123.5186   59.9772 H   0  0  0  0  0  0  0  0  0  0  0  0
  131.9944  123.2937   59.9772 H   0  0  0  0  0  0  0  0  0  0  0  0
  1  2  1  0
  2  3  1  0
  3  4  2  0
  4  5  1  0
  5  6  1  0
  6  7  2  0
  7  8  1  0
  8  9  1  0
  9 10  1  0
 10 11  2  0
 11 12  1  0
 12 13  2  0
 13 14  1  0
 14 15  1  0
 14 16  2  0
 16 17  1  0
 17 18  2  0
 18 19  1  0
  9 20  2  0
 20 21  1  0
 21 22  2  0
 22 23  1  0
 23 24  2  0
 24 25  1  0
 25 26  2  0
 26 27  1  0
 27 28  2  0
  5 29  2  0
 29 30  1  0
 30 31  1  0
 31 32  2  0
 31 33  1  0
 30 34  2  0
 34 35  1  0
 35 36  1  0
 36 37  1  0
 36 38  1  0
 38 39  2  0
 38 40  1  0
 34  3  1  0
 27  8  1  0
 19 10  1  0
 26 21  1  0
 18 12  1  0
  1 41  1  0
  1 42  1  0
  1 43  1  0
  4 44  1  0
  6 45  1  0
 11 46  1  0
 13 47  1  0
 16 48  1  0
 17 49  1  0
 22 50  1  0
 23 51  1  0
 24 52  1  0
 25 53  1  0
 29 54  1  0
 36 55  1  1
 37 56  1  0
 37 57  1  0
 37 58  1  0
M  CHG  3  31   1  33  -1  40  -1
M  END
>  <Binding energies>  (1) 
[-7.86]

>  <Ligand effiencies>  (1) 
[-0.1965]

>  <Interactions>  (1) 
["V-A:ILE:369:CG2:3237, V-B:PRO:540:CA:9855, V-A:GLU:543:C:4902, V-B:GLU:543:CB:9878, H-A:ARG:545:NH1:4927, V-B:TYR:539:CE2:9848, V-B:LEU:475:CD2:9230, V-B:GLU:543:CG:9879, V-B:TYR:484:CE2:9317, V-A:GLU:543:CD:4908, H-B:TYR:484:OH:9319, V-B:HIS:456:CE1:9041, H-A:GLY:454:N:4050, V-B:GLU:543:CA:9876, V-B:TYR:484:CZ:9318, V-A:HIS:456:CE1:4070, V-B:TYR:539:CD2:9846, V-A:GLU:543:CG:4907, H-A:SER:385:OG:3410, V-B:GLU:543:CD:9880, V-A:LEU:475:CD2:4259, H-A:ARG:545:NH2:4928, V-A:ARG:545:CZ:4926, V-A:GLU:543:CB:4906, H-A:ARG:545:NE:4924, V-B:PRO:540:C:9853, V-A:TYR:539:CE1:4875, H-A:TYR:484:OH:4348"]

$$$$
ZINC409303275
     RDKit          3D

 79 83  0  0  0  0  0  0  0  0999 V2000
  128.9700  133.0230   59.8230 C   0  0  0  0  0  0  0  0  0  0  0  0
  129.4510  133.2350   61.2620 C   0  0  0  0  0  0  0  0  0  0  0  0
  130.2720  132.1300   61.6320 O   0  0  0  0  0  0  0  0  0  0  0  0
  129.9580  130.8570   61.1900 C   0  0  0  0  0  0  0  0  0  0  0  0
  130.7050  130.1750   60.2160 C   0  0  0  0  0  0  0  0  0  0  0  0
  130.3530  128.8920   59.7890 C   0  0  0  0  0  0  0  0  0  0  0  0
  131.1910  128.2460   58.6870 C   0  0  0  0  0  0  0  0  0  0  0  0
  129.2290  128.2580   60.3550 C   0  0  0  0  0  0  0  0  0  0  0  0
  128.7790  126.9060   59.9440 C   0  0  0  0  0  0  0  0  0  0  0  0
  128.7630  126.5940   58.6930 N   0  0  0  0  0  0  0  0  0  0  0  0
  128.3670  125.3300   58.2440 C   0  0  0  0  0  0  0  0  0  0  0  0
  128.3760  125.0770   56.8710 C   0  0  0  0  0  0  0  0  0  0  0  0
  127.9960  123.8190   56.3970 C   0  0  0  0  0  0  0  0  0  0  0  0
  127.6110  122.8190   57.2910 C   0  0  0  0  0  0  0  0  0  0  0  0
  127.6020  123.0680   58.6650 C   0  0  0  0  0  0  0  0  0  0  0  0
  127.9780  124.3310   59.1380 C   0  0  0  0  0  0  0  0  0  0  0  0
  127.9810  124.6390   60.6200 C   0  0  0  0  0  0  0  0  0  0  0  0
  127.6750  123.7960   61.4720 O   0  0  0  0  0  0  0  0  0  0  0  0
  128.3550  125.9520   60.8930 N   0  0  0  0  0  0  0  0  0  0  0  0
  128.3940  126.2590   62.2430 N   0  0  0  0  0  0  0  0  0  0  0  0
  129.4860  126.0030   62.8670 C   0  0  0  0  0  0  0  0  0  0  0  0
  129.6640  126.2160   64.3080 C   0  0  0  0  0  0  0  0  0  0  0  0
  128.7670  127.0420   64.9940 C   0  0  0  0  0  0  0  0  0  0  0  0
  128.9000  127.2640   66.3630 C   0  0  0  0  0  0  0  0  0  0  0  0
  127.6480  128.3950   67.2500 Br  0  0  0  0  0  0  0  0  0  0  0  0
  129.9400  126.6570   67.0730 C   0  0  0  0  0  0  0  0  0  0  0  0
  130.0550  126.8740   68.4240 O   0  0  0  0  0  0  0  0  0  0  0  0
  129.0440  126.2400   69.2000 C   0  0  0  0  0  0  0  0  0  0  0  0
  128.9760  126.9050   70.5630 C   0  0  0  0  0  0  0  0  0  0  0  0
  127.9500  126.5800   71.4480 C   0  0  0  0  0  0  0  0  0  0  0  0
  127.8930  127.1850   72.7000 C   0  0  0  0  0  0  0  0  0  0  0  0
  128.8560  128.1320   73.0980 C   0  0  0  0  0  0  0  0  0  0  0  0
  128.7970  128.7880   74.4640 C   0  0  0  0  0  0  0  0  0  0  0  0
  128.1420  128.2280   75.3770 O   0  0  0  0  0  0  0  0  0  0  0  0
  129.4020  129.8710   74.6410 O   0  0  0  0  0  0  0  0  0  0  0  0
  129.8780  128.4490   72.1820 C   0  0  0  0  0  0  0  0  0  0  0  0
  129.9380  127.8440   70.9300 C   0  0  0  0  0  0  0  0  0  0  0  0
  130.8650  125.8390   66.4110 C   0  0  0  0  0  0  0  0  0  0  0  0
  131.8780  125.2870   67.1740 O   0  0  0  0  0  0  0  0  0  0  0  0
  133.2340  125.4940   66.7920 C   0  0  0  0  0  0  0  0  0  0  0  0
  130.7130  125.6250   65.0310 C   0  0  0  0  0  0  0  0  0  0  0  0
  128.4980  128.9320   61.3420 C   0  0  0  0  0  0  0  0  0  0  0  0
  128.8360  130.2270   61.7560 C   0  0  0  0  0  0  0  0  0  0  0  0
  127.9810  130.9750   62.7980 C   0  0  0  0  0  0  0  0  0  0  0  0
  128.3260  130.6660   64.2720 C   0  0  0  0  0  0  0  0  0  0  0  0
  126.4770  130.7570   62.5400 C   0  0  0  0  0  0  0  0  0  0  0  0
  127.9635  132.5794   59.8344 H   0  0  0  0  0  0  0  0  0  0  0  0
  128.9383  133.9906   59.3007 H   0  0  0  0  0  0  0  0  0  0  0  0
  129.6628  132.3468   59.3007 H   0  0  0  0  0  0  0  0  0  0  0  0
  130.0322  134.1667   61.3255 H   0  0  0  0  0  0  0  0  0  0  0  0
  128.5885  133.3076   61.9408 H   0  0  0  0  0  0  0  0  0  0  0  0
  131.5887  130.6626   59.7786 H   0  0  0  0  0  0  0  0  0  0  0  0
  131.9846  127.6342   59.1408 H   0  0  0  0  0  0  0  0  0  0  0  0
  130.5475  127.6080   58.0634 H   0  0  0  0  0  0  0  0  0  0  0  0
  131.6442  129.0306   58.0634 H   0  0  0  0  0  0  0  0  0  0  0  0
  128.6808  125.8644   56.1659 H   0  0  0  0  0  0  0  0  0  0  0  0
  128.0003  123.6161   55.3159 H   0  0  0  0  0  0  0  0  0  0  0  0
  127.3133  121.8303   56.9117 H   0  0  0  0  0  0  0  0  0  0  0  0
  127.3020  122.2785   59.3698 H   0  0  0  0  0  0  0  0  0  0  0  0
  130.3334  125.6027   62.2911 H   0  0  0  0  0  0  0  0  0  0  0  0
  127.9446  127.5232   64.4444 H   0  0  0  0  0  0  0  0  0  0  0  0
  128.0731  126.3394   68.6925 H   0  0  0  0  0  0  0  0  0  0  0  0
  129.2820  125.1727   69.3191 H   0  0  0  0  0  0  0  0  0  0  0  0
  127.1850  125.8451   71.1570 H   0  0  0  0  0  0  0  0  0  0  0  0
  127.0803  126.9184   73.3917 H   0  0  0  0  0  0  0  0  0  0  0  0
  130.6429  129.1885   72.4614 H   0  0  0  0  0  0  0  0  0  0  0  0
  130.7448  128.1071   70.2302 H   0  0  0  0  0  0  0  0  0  0  0  0
  133.8582  125.5893   67.6927 H   0  0  0  0  0  0  0  0  0  0  0  0
  133.5812  124.6385   66.1941 H   0  0  0  0  0  0  0  0  0  0  0  0
  133.3101  126.4142   66.1941 H   0  0  0  0  0  0  0  0  0  0  0  0
  131.4319  124.9799   64.5047 H   0  0  0  0  0  0  0  0  0  0  0  0
  127.6350  128.4307   61.8045 H   0  0  0  0  0  0  0  0  0  0  0  0
  128.2348  132.0359   62.6560 H   0  0  0  0  0  0  0  0  0  0  0  0
  127.6709  131.2528   64.9327 H   0  0  0  0  0  0  0  0  0  0  0  0
  128.1772  129.5936   64.4664 H   0  0  0  0  0  0  0  0  0  0  0  0
  129.3756  130.9316   64.4664 H   0  0  0  0  0  0  0  0  0  0  0  0
  125.9475  130.6802   63.5011 H   0  0  0  0  0  0  0  0  0  0  0  0
  126.0763  131.6065   61.9674 H   0  0  0  0  0  0  0  0  0  0  0  0
  126.3340  129.8287   61.9674 H   0  0  0  0  0  0  0  0  0  0  0  0
  1  2  1  0
  2  3  1  0
  3  4  1  0
  4  5  2  0
  5  6  1  0
  6  7  1  0
  6  8  2  0
  8  9  1  0
  9 10  2  0
 10 11  1  0
 11 12  2  0
 12 13  1  0
 13 14  2  0
 14 15  1  0
 15 16  2  0
 16 17  1  0
 17 18  2  0
 17 19  1  0
 19 20  1  0
 20 21  2  0
 21 22  1  0
 22 23  2  0
 23 24  1  0
 24 25  1  0
 24 26  2  0
 26 27  1  0
 27 28  1  0
 28 29  1  0
 29 30  2  0
 30 31  1  0
 31 32  2  0
 32 33  1  0
 33 34  2  0
 33 35  1  0
 32 36  1  0
 36 37  2  0
 26 38  1  0
 38 39  1  0
 39 40  1  0
 38 41  2  0
  8 42  1  0
 42 43  2  0
 43 44  1  0
 44 45  1  0
 44 46  1  0
 43  4  1  0
 19  9  1  0
 41 22  1  0
 16 11  1  0
 37 29  1  0
  1 47  1  0
  1 48  1  0
  1 49  1  0
  2 50  1  0
  2 51  1  0
  5 52  1  0
  7 53  1  0
  7 54  1  0
  7 55  1  0
 12 56  1  0
 13 57  1  0
 14 58  1  0
 15 59  1  0
 21 60  1  0
 23 61  1  0
 28 62  1  0
 28 63  1  0
 30 64  1  0
 31 65  1  0
 36 66  1  0
 37 67  1  0
 40 68  1  0
 40 69  1  0
 40 70  1  0
 41 71  1  0
 42 72  1  0
 44 73  1  0
 45 74  1  0
 45 75  1  0
 45 76  1  0
 46 77  1  0
 46 78  1  0
 46 79  1  0
M  CHG  1  35  -1
M  END
>  <Binding energies>  (1) 
[-8.49]

>  <Ligand effiencies>  (1) 
[-0.18456521739130435]

>  <Interactions>  (1) 
["V-B:PRO:540:CA:9855, V-B:GLU:543:C:9874, V-B:HIS:456:CD2:9039, H-A:ALA:541:N:4891, V-B:GLU:543:CB:9878, H-B:LYS:547:NZ:9923, V-A:PRO:540:C:4881, V-B:TYR:539:CE2:9848, V-B:GLU:543:CG:9879, V-B:TYR:539:C:9839, V-A:ASP:366:CG:3213, V-A:TYR:539:CD1:4873, V-B:TYR:539:CZ:9849, V-A:ALA:541:CB:4892, V-B:LYS:547:CE:9922, V-A:GLU:543:CD:4908, V-A:TYR:484:CZ:4347, V-B:HIS:456:CE1:9041, V-A:ARG:545:CG:4922, V-B:PRO:540:N:9856, V-A:HIS:456:CE1:4070, V-B:GLY:544:C:9884, V-B:TYR:539:CD2:9846, V-A:GLU:543:CG:4907, V-B:GLY:544:CA:9886, V-B:GLU:543:CD:9880, V-A:TYR:539:C:4867, V-A:ASP:366:CB:3212, V-A:ARG:545:CD:4923, H-A:LYS:547:NZ:4951, V-A:ARG:545:CZ:4926, V-B:TYR:539:CG:9844, V-B:TYR:539:CD1:9845, V-A:PRO:540:N:4884, V-A:PRO:540:CA:4883, V-B:TYR:539:CE1:9847, H-A:HIS:456:ND1:4067, H-A:TYR:484:OH:4348"]

$$$$
ZINC409305021
     RDKit          3D

 60 64  0  0  0  0  0  0  0  0999 V2000
  126.8620  127.1600   71.7360 C   0  0  0  0  0  0  0  0  0  0  0  0
  126.8730  126.5960   70.4310 O   0  0  0  0  0  0  0  0  0  0  0  0
  127.7730  127.0610   69.4900 C   0  0  0  0  0  0  0  0  0  0  0  0
  127.3980  127.5260   68.2160 C   0  0  0  0  0  0  0  0  0  0  0  0
  128.3440  128.0200   67.3110 C   0  0  0  0  0  0  0  0  0  0  0  0
  127.9070  128.4710   65.9850 C   0  0  0  0  0  0  0  0  0  0  0  0
  128.6040  129.2410   65.2280 N   0  0  0  0  0  0  0  0  0  0  0  0
  128.1000  129.5060   63.9710 N   0  0  0  0  0  0  0  0  0  0  0  0
  128.0980  128.4900   62.9940 C   0  0  0  0  0  0  0  0  0  0  0  0
  128.5370  127.0840   63.1590 C   0  0  0  0  0  0  0  0  0  0  0  0
  128.3560  125.9590   62.3490 C   0  0  0  0  0  0  0  0  0  0  0  0
  128.9930  124.8580   63.0030 C   0  0  0  0  0  0  0  0  0  0  0  0
  129.1840  123.4890   62.7470 C   0  0  0  0  0  0  0  0  0  0  0  0
  128.6410  123.0240   61.5670 O   0  0  0  0  0  0  0  0  0  0  0  0
  128.8640  121.6660   61.2070 C   0  0  0  0  0  0  0  0  0  0  0  0
  129.8940  122.7250   63.6920 C   0  0  0  0  0  0  0  0  0  0  0  0
  130.4030  123.3010   64.8580 C   0  0  0  0  0  0  0  0  0  0  0  0
  130.2310  124.6570   65.1320 C   0  0  0  0  0  0  0  0  0  0  0  0
  129.5260  125.4100   64.1870 C   0  0  0  0  0  0  0  0  0  0  0  0
  129.2580  126.7440   64.2710 O   0  0  0  0  0  0  0  0  0  0  0  0
  127.6740  128.7640   61.8060 N   0  0  0  0  0  0  0  0  0  0  0  0
  127.2450  130.0430   61.4430 C   0  0  0  0  0  0  0  0  0  0  0  0
  126.8000  130.2510   60.1360 C   0  0  0  0  0  0  0  0  0  0  0  0
  126.3790  131.5220   59.7420 C   0  0  0  0  0  0  0  0  0  0  0  0
  126.4050  132.5830   60.6510 C   0  0  0  0  0  0  0  0  0  0  0  0
  126.8490  132.3790   61.9590 C   0  0  0  0  0  0  0  0  0  0  0  0
  127.2660  131.1020   62.3520 C   0  0  0  0  0  0  0  0  0  0  0  0
  127.7580  130.8400   63.7590 C   0  0  0  0  0  0  0  0  0  0  0  0
  127.8330  131.7360   64.6100 O   0  0  0  0  0  0  0  0  0  0  0  0
  129.6860  128.0590   67.7070 C   0  0  0  0  0  0  0  0  0  0  0  0
  130.0790  127.6000   68.9630 C   0  0  0  0  0  0  0  0  0  0  0  0
  131.7470  127.7220   69.4060 Cl  0  0  0  0  0  0  0  0  0  0  0  0
  129.1290  127.0690   69.8470 C   0  0  0  0  0  0  0  0  0  0  0  0
  129.5100  126.6120   71.0920 O   0  0  0  0  0  0  0  0  0  0  0  0
  130.0560  127.5890   71.9980 C   0  0  1  0  0  0  0  0  0  0  0  0
  129.3450  128.9310   71.7300 C   0  0  0  0  0  0  0  0  0  0  0  0
  129.8620  127.1430   73.4740 C   0  0  0  0  0  0  0  0  0  0  0  0
  129.4980  125.9600   73.6690 O   0  0  0  0  0  0  0  0  0  0  0  0
  130.1040  127.9640   74.3880 O   0  0  0  0  0  0  0  0  0  0  0  0
  126.8777  126.3537   72.4841 H   0  0  0  0  0  0  0  0  0  0  0  0
  127.7479  127.7989   71.8668 H   0  0  0  0  0  0  0  0  0  0  0  0
  125.9519  127.7638   71.8668 H   0  0  0  0  0  0  0  0  0  0  0  0
  126.3375  127.5006   67.9250 H   0  0  0  0  0  0  0  0  0  0  0  0
  126.9274  128.1309   65.6180 H   0  0  0  0  0  0  0  0  0  0  0  0
  127.8228  125.9266   61.3874 H   0  0  0  0  0  0  0  0  0  0  0  0
  128.9640  121.0570   62.1175 H   0  0  0  0  0  0  0  0  0  0  0  0
  128.0139  121.2999   60.6125 H   0  0  0  0  0  0  0  0  0  0  0  0
  129.7865  121.5910   60.6125 H   0  0  0  0  0  0  0  0  0  0  0  0
  130.0513  121.6519   63.5084 H   0  0  0  0  0  0  0  0  0  0  0  0
  130.9509  122.6718   65.5749 H   0  0  0  0  0  0  0  0  0  0  0  0
  130.6312  125.1139   66.0491 H   0  0  0  0  0  0  0  0  0  0  0  0
  126.7813  129.4164   59.4197 H   0  0  0  0  0  0  0  0  0  0  0  0
  126.0259  131.6889   58.7137 H   0  0  0  0  0  0  0  0  0  0  0  0
  126.0742  133.5833   60.3347 H   0  0  0  0  0  0  0  0  0  0  0  0
  126.8709  133.2144   62.6742 H   0  0  0  0  0  0  0  0  0  0  0  0
  130.4427  128.4584   67.0157 H   0  0  0  0  0  0  0  0  0  0  0  0
  131.1383  127.6959   71.8334 H   0  0  0  0  0  0  0  0  0  0  0  0
  129.0916  129.4093   72.6876 H   0  0  0  0  0  0  0  0  0  0  0  0
  130.0118  129.5909   71.1556 H   0  0  0  0  0  0  0  0  0  0  0  0
  128.4245  128.7500   71.1556 H   0  0  0  0  0  0  0  0  0  0  0  0
  1  2  1  0
  2  3  1  0
  3  4  2  0
  4  5  1  0
  5  6  1  0
  6  7  2  0
  7  8  1  0
  8  9  1  0
  9 10  1  0
 10 11  2  0
 11 12  1  0
 12 13  2  0
 13 14  1  0
 14 15  1  0
 13 16  1  0
 16 17  2  0
 17 18  1  0
 18 19  2  0
 19 20  1  0
  9 21  2  0
 21 22  1  0
 22 23  2  0
 23 24  1  0
 24 25  2  0
 25 26  1  0
 26 27  2  0
 27 28  1  0
 28 29  2  0
  5 30  2  0
 30 31  1  0
 31 32  1  0
 31 33  2  0
 33 34  1  0
 34 35  1  0
 35 36  1  0
 35 37  1  0
 37 38  2  0
 37 39  1  0
 33  3  1  0
 28  8  1  0
 20 10  1  0
 27 22  1  0
 19 12  1  0
  1 40  1  0
  1 41  1  0
  1 42  1  0
  4 43  1  0
  6 44  1  0
 11 45  1  0
 15 46  1  0
 15 47  1  0
 15 48  1  0
 16 49  1  0
 17 50  1  0
 18 51  1  0
 23 52  1  0
 24 53  1  0
 25 54  1  0
 26 55  1  0
 30 56  1  0
 35 57  1  6
 36 58  1  0
 36 59  1  0
 36 60  1  0
M  CHG  1  39  -1
M  END
>  <Binding energies>  (1) 
[-6.93]

>  <Ligand effiencies>  (1) 
[-0.17769230769230768]

>  <Interactions>  (1) 
["V-A:ARG:545:CA:4919, V-B:PRO:540:CA:9855, V-B:GLU:543:C:9874, V-B:HIS:456:CD2:9039, V-A:GLU:543:C:4902, V-B:GLU:543:CB:9878, H-B:LYS:547:NZ:9923, V-B:ALA:541:CB:9864, V-A:TYR:484:CE2:4346, V-A:GLY:544:C:4912, V-B:GLU:543:CG:9879, V-A:HIS:456:CD2:4068, V-A:TYR:539:CD1:4873, H-B:ARG:545:N:9892, V-A:GLU:543:CD:4908, V-A:TYR:484:CZ:4347, H-B:TYR:484:OH:9319, V-A:ARG:545:CG:4922, V-B:HIS:456:CE1:9041, H-B:GLY:544:N:9887, V-A:HIS:456:CE1:4070, V-B:GLY:544:C:9884, V-B:GLY:544:CA:9886, V-A:GLU:543:CG:4907, V-B:GLU:543:CD:9880, V-B:HIS:456:CG:9037, H-A:LYS:547:NZ:4951, V-A:LEU:475:CD2:4259, V-A:GLU:543:CB:4906, V-B:PRO:540:C:9853, V-A:TYR:539:CE1:4875"]

$$$$
ZINC409308734
     RDKit          3D

 59 62  0  0  0  0  0  0  0  0999 V2000
  128.3500  122.5070   59.8270 C   0  0  0  0  0  0  0  0  0  0  0  0
  129.2250  121.8230   60.7160 O   0  0  0  0  0  0  0  0  0  0  0  0
  130.1500  122.5400   61.4550 C   0  0  0  0  0  0  0  0  0  0  0  0
  129.8020  123.4360   62.4790 C   0  0  0  0  0  0  0  0  0  0  0  0
  130.7760  124.1630   63.1760 C   0  0  0  0  0  0  0  0  0  0  0  0
  130.4350  125.1060   64.2490 C   0  0  0  0  0  0  0  0  0  0  0  0
  129.2370  125.4910   64.5090 N   0  0  0  0  0  0  0  0  0  0  0  0
  129.0830  126.3820   65.5540 N   0  0  0  0  0  0  0  0  0  0  0  0
  128.8290  127.7350   65.2840 C   0  0  0  0  0  0  0  0  0  0  0  0
  128.6030  128.2310   63.8290 C   0  0  0  0  0  0  0  0  0  0  0  0
  127.7290  129.5000   63.8300 C   0  0  0  0  0  0  0  0  0  0  0  0
  128.0050  127.1430   62.9040 C   0  0  0  0  0  0  0  0  0  0  0  0
  128.7720  128.6040   66.2350 N   0  0  0  0  0  0  0  0  0  0  0  0
  128.9780  128.2280   67.5650 C   0  0  0  0  0  0  0  0  0  0  0  0
  128.8940  129.2080   68.5560 C   0  0  0  0  0  0  0  0  0  0  0  0
  129.1060  128.8640   69.8920 C   0  0  0  0  0  0  0  0  0  0  0  0
  129.4070  127.5440   70.2390 C   0  0  0  0  0  0  0  0  0  0  0  0
  129.6990  127.0860   72.0630 Br  0  0  0  0  0  0  0  0  0  0  0  0
  129.4930  126.5600   69.2520 C   0  0  0  0  0  0  0  0  0  0  0  0
  129.2730  126.9060   67.9140 C   0  0  0  0  0  0  0  0  0  0  0  0
  129.3650  125.8640   66.8160 C   0  0  0  0  0  0  0  0  0  0  0  0
  129.6630  124.6850   67.0440 O   0  0  0  0  0  0  0  0  0  0  0  0
  132.1160  123.9790   62.8280 C   0  0  0  0  0  0  0  0  0  0  0  0
  132.4990  123.0880   61.8190 C   0  0  0  0  0  0  0  0  0  0  0  0
  133.9360  122.9390   61.4900 N   0  0  0  0  0  0  0  0  0  0  0  0
  134.3880  123.6170   60.5720 O   0  0  0  0  0  0  0  0  0  0  0  0
  134.6190  122.1680   62.1550 O   0  0  0  0  0  0  0  0  0  0  0  0
  131.5050  122.3600   61.1400 C   0  0  0  0  0  0  0  0  0  0  0  0
  131.8580  121.5070   60.1200 O   0  0  0  0  0  0  0  0  0  0  0  0
  132.4730  120.2920   60.5350 C   0  0  0  0  0  0  0  0  0  0  0  0
  131.4370  119.1780   60.5000 C   0  0  0  0  0  0  0  0  0  0  0  0
  130.5140  119.0680   61.5480 C   0  0  0  0  0  0  0  0  0  0  0  0
  129.5560  118.0550   61.5430 C   0  0  0  0  0  0  0  0  0  0  0  0
  129.5120  117.1430   60.4900 C   0  0  0  0  0  0  0  0  0  0  0  0
  130.4270  117.2440   59.4430 C   0  0  0  0  0  0  0  0  0  0  0  0
  131.3900  118.2550   59.4420 C   0  0  0  0  0  0  0  0  0  0  0  0
  132.5060  118.3360   58.1210 Cl  0  0  0  0  0  0  0  0  0  0  0  0
  127.6139  123.0824   60.4075 H   0  0  0  0  0  0  0  0  0  0  0  0
  128.9329  123.1913   59.1930 H   0  0  0  0  0  0  0  0  0  0  0  0
  127.8266  121.7761   59.1930 H   0  0  0  0  0  0  0  0  0  0  0  0
  128.7417  123.5699   62.7395 H   0  0  0  0  0  0  0  0  0  0  0  0
  131.2530  125.5061   64.8661 H   0  0  0  0  0  0  0  0  0  0  0  0
  129.5920  128.4739   63.4133 H   0  0  0  0  0  0  0  0  0  0  0  0
  127.5214  129.8014   64.8673 H   0  0  0  0  0  0  0  0  0  0  0  0
  128.2605  130.3117   63.3117 H   0  0  0  0  0  0  0  0  0  0  0  0
  126.7811  129.2928   63.3117 H   0  0  0  0  0  0  0  0  0  0  0  0
  127.5649  126.3423   63.5166 H   0  0  0  0  0  0  0  0  0  0  0  0
  127.2255  127.5894   62.2691 H   0  0  0  0  0  0  0  0  0  0  0  0
  128.7997  126.7242   62.2691 H   0  0  0  0  0  0  0  0  0  0  0  0
  128.6614  130.2483   68.2846 H   0  0  0  0  0  0  0  0  0  0  0  0
  129.0360  129.6342   70.6742 H   0  0  0  0  0  0  0  0  0  0  0  0
  129.7318  125.5212   69.5240 H   0  0  0  0  0  0  0  0  0  0  0  0
  132.8909  124.5495   63.3611 H   0  0  0  0  0  0  0  0  0  0  0  0
  133.3020  120.0467   59.8549 H   0  0  0  0  0  0  0  0  0  0  0  0
  132.8662  120.4032   61.5563 H   0  0  0  0  0  0  0  0  0  0  0  0
  130.5453  119.7859   62.3808 H   0  0  0  0  0  0  0  0  0  0  0  0
  128.8350  117.9756   62.3700 H   0  0  0  0  0  0  0  0  0  0  0  0
  128.7559  116.3441   60.4850 H   0  0  0  0  0  0  0  0  0  0  0  0
  130.3901  116.5231   58.6130 H   0  0  0  0  0  0  0  0  0  0  0  0
  1  2  1  0
  2  3  1  0
  3  4  2  0
  4  5  1  0
  5  6  1  0
  6  7  2  0
  7  8  1  0
  8  9  1  0
  9 10  1  0
 10 11  1  0
 10 12  1  0
  9 13  2  0
 13 14  1  0
 14 15  2  0
 15 16  1  0
 16 17  2  0
 17 18  1  0
 17 19  1  0
 19 20  2  0
 20 21  1  0
 21 22  2  0
  5 23  2  0
 23 24  1  0
 24 25  1  0
 25 26  2  0
 25 27  1  0
 24 28  2  0
 28 29  1  0
 29 30  1  0
 30 31  1  0
 31 32  2  0
 32 33  1  0
 33 34  2  0
 34 35  1  0
 35 36  2  0
 36 37  1  0
 28  3  1  0
 36 31  1  0
 21  8  1  0
 20 14  1  0
  1 38  1  0
  1 39  1  0
  1 40  1  0
  4 41  1  0
  6 42  1  0
 10 43  1  0
 11 44  1  0
 11 45  1  0
 11 46  1  0
 12 47  1  0
 12 48  1  0
 12 49  1  0
 15 50  1  0
 16 51  1  0
 19 52  1  0
 23 53  1  0
 30 54  1  0
 30 55  1  0
 32 56  1  0
 33 57  1  0
 34 58  1  0
 35 59  1  0
M  CHG  2  25   1  27  -1
M  END
>  <Binding energies>  (1) 
[-6.79]

>  <Ligand effiencies>  (1) 
[-0.18351351351351353]

>  <Interactions>  (1) 
["V-A:ILE:369:CG2:3237, V-B:TYR:539:CA:9841, V-B:PRO:540:CA:9855, V-A:GLU:543:CA:4904, V-B:HIS:456:CD2:9039, V-A:GLU:543:C:4902, V-B:GLU:543:CB:9878, V-B:ALA:541:CB:9864, V-B:TYR:539:CE2:9848, V-A:LEU:475:CG:4257, V-B:GLU:543:CG:9879, V-B:TYR:539:C:9839, V-A:HIS:456:CD2:4068, V-B:VAL:344:CG1:7972, V-A:LEU:475:CD1:4258, V-B:TYR:539:CB:9843, V-A:HIS:383:CE1:3393, V-A:GLU:543:CD:4908, V-B:GLU:543:CA:9876, H-A:GLY:454:N:4050, V-B:HIS:456:CE1:9041, V-B:PRO:540:N:9856, V-A:HIS:456:CE1:4070, V-A:ILE:369:CD1:3239, V-A:PRO:482:CB:4326, V-B:TYR:539:CD2:9846, V-A:GLU:543:CG:4907, V-A:SER:385:CB:3409, V-B:GLU:543:CD:9880, V-A:LEU:475:CD2:4259, V-B:TYR:539:CG:9844, V-A:GLU:543:CB:4906, V-A:HIS:383:CD2:3392, V-A:LEU:373:CD1:3280, V-A:PRO:482:CG:4327, V-B:PRO:540:C:9853, V-A:HIS:383:NE2:3394, H-A:TYR:484:OH:4348"]

$$$$
ZINC409310655
     RDKit          3D

 63 65  0  0  0  0  0  0  0  0999 V2000
  133.4880  126.5560   74.7510 C   0  0  0  0  0  0  0  0  0  0  0  0
  132.4030  126.6180   73.9610 C   0  0  0  0  0  0  0  0  0  0  0  0
  130.9640  126.7530   74.4280 C   0  0  0  0  0  0  0  0  0  0  0  0
  130.2660  127.7690   73.7090 O   0  0  0  0  0  0  0  0  0  0  0  0
  130.0600  127.6290   72.3480 C   0  0  0  0  0  0  0  0  0  0  0  0
  131.0230  127.9570   71.3780 C   0  0  0  0  0  0  0  0  0  0  0  0
  130.7500  127.7950   70.0230 C   0  0  0  0  0  0  0  0  0  0  0  0
  129.5070  127.3140   69.5980 C   0  0  0  0  0  0  0  0  0  0  0  0
  129.2410  127.1350   68.1180 C   0  0  0  0  0  0  0  0  0  0  0  0
  128.0940  127.2770   67.6910 O   0  0  0  0  0  0  0  0  0  0  0  0
  130.2380  126.8000   67.2700 N   0  0  0  0  0  0  0  0  0  0  0  0
  131.4770  126.4200   67.6450 N   0  0  0  0  0  0  0  0  0  0  0  0
  132.1340  125.6730   66.8400 C   0  0  0  0  0  0  0  0  0  0  0  0
  131.8270  125.2240   65.4640 C   0  0  0  0  0  0  0  0  0  0  0  0
  132.8920  125.0180   64.5800 C   0  0  0  0  0  0  0  0  0  0  0  0
  132.6710  124.5930   63.2720 C   0  0  0  0  0  0  0  0  0  0  0  0
  134.3140  124.2920   62.0080 I   0  0  0  0  0  0  0  0  0  0  0  0
  131.3680  124.3690   62.8180 C   0  0  0  0  0  0  0  0  0  0  0  0
  131.1650  123.9360   61.5270 O   0  0  0  0  0  0  0  0  0  0  0  0
  131.1500  122.5800   61.2780 C   0  0  0  0  0  0  0  0  0  0  0  0
  132.3500  121.8670   61.1740 C   0  0  0  0  0  0  0  0  0  0  0  0
  132.3430  120.4970   60.9280 C   0  0  0  0  0  0  0  0  0  0  0  0
  131.1350  119.8040   60.7760 C   0  0  0  0  0  0  0  0  0  0  0  0
  131.1250  118.3440   60.5180 N   0  0  0  0  0  0  0  0  0  0  0  0
  131.3040  117.9470   59.3690 O   0  0  0  0  0  0  0  0  0  0  0  0
  130.9340  117.5820   61.4630 O   0  0  0  0  0  0  0  0  0  0  0  0
  129.9370  120.5260   60.8720 C   0  0  0  0  0  0  0  0  0  0  0  0
  129.9270  121.9070   61.1150 C   0  0  0  0  0  0  0  0  0  0  0  0
  128.6340  122.6210   61.2120 N   0  0  0  0  0  0  0  0  0  0  0  0
  128.3390  123.4300   60.3380 O   0  0  0  0  0  0  0  0  0  0  0  0
  127.8990  122.3550   62.1590 O   0  0  0  0  0  0  0  0  0  0  0  0
  130.2780  124.5990   63.6680 C   0  0  0  0  0  0  0  0  0  0  0  0
  129.0140  124.3900   63.1440 O   0  0  0  0  0  0  0  0  0  0  0  0
  128.4000  125.4070   62.3620 C   0  0  0  0  0  0  0  0  0  0  0  0
  130.5220  125.0300   64.9830 C   0  0  0  0  0  0  0  0  0  0  0  0
  128.5550  126.9680   70.5660 C   0  0  0  0  0  0  0  0  0  0  0  0
  128.8170  127.1270   71.9380 C   0  0  0  0  0  0  0  0  0  0  0  0
  127.9090  126.8110   72.9340 O   0  0  0  0  0  0  0  0  0  0  0  0
  126.8890  127.7420   73.2820 C   0  0  0  0  0  0  0  0  0  0  0  0
  127.4050  128.6350   74.4150 C   0  0  0  0  0  0  0  0  0  0  0  0
  134.4885  126.4579   74.3046 H   0  0  0  0  0  0  0  0  0  0  0  0
  133.3758  126.6033   75.8442 H   0  0  0  0  0  0  0  0  0  0  0  0
  132.5725  126.5662   72.8754 H   0  0  0  0  0  0  0  0  0  0  0  0
  130.4492  125.7927   74.2771 H   0  0  0  0  0  0  0  0  0  0  0  0
  130.9749  127.0333   75.4916 H   0  0  0  0  0  0  0  0  0  0  0  0
  132.0026  128.3458   71.6932 H   0  0  0  0  0  0  0  0  0  0  0  0
  131.5194  128.0477   69.2786 H   0  0  0  0  0  0  0  0  0  0  0  0
  130.0550  126.7140   66.2800 H   0  0  0  0  0  0  0  0  0  0  0  0
  133.0895  125.3015   67.2389 H   0  0  0  0  0  0  0  0  0  0  0  0
  133.9218  125.1948   64.9240 H   0  0  0  0  0  0  0  0  0  0  0  0
  133.3084  122.3947   61.2878 H   0  0  0  0  0  0  0  0  0  0  0  0
  133.2959  119.9528   60.8522 H   0  0  0  0  0  0  0  0  0  0  0  0
  128.9806  119.9956   60.7537 H   0  0  0  0  0  0  0  0  0  0  0  0
  127.9470  126.1573   63.0267 H   0  0  0  0  0  0  0  0  0  0  0  0
  129.1579  125.8893   61.7273 H   0  0  0  0  0  0  0  0  0  0  0  0
  127.6202  124.9609   61.7273 H   0  0  0  0  0  0  0  0  0  0  0  0
  129.6698  125.2201   65.6521 H   0  0  0  0  0  0  0  0  0  0  0  0
  127.5832  126.5639   70.2461 H   0  0  0  0  0  0  0  0  0  0  0  0
  126.6387  128.3608   72.4077 H   0  0  0  0  0  0  0  0  0  0  0  0
  125.9868  127.2046   73.6095 H   0  0  0  0  0  0  0  0  0  0  0  0
  127.1448  128.1847   75.3843 H   0  0  0  0  0  0  0  0  0  0  0  0
  128.4980  128.7314   74.3371 H   0  0  0  0  0  0  0  0  0  0  0  0
  126.9427  129.6301   74.3371 H   0  0  0  0  0  0  0  0  0  0  0  0
  1  2  2  0
  2  3  1  0
  3  4  1  0
  4  5  1  0
  5  6  2  0
  6  7  1  0
  7  8  2  0
  8  9  1  0
  9 10  2  0
  9 11  1  0
 11 12  1  0
 12 13  2  0
 13 14  1  0
 14 15  2  0
 15 16  1  0
 16 17  1  0
 16 18  2  0
 18 19  1  0
 19 20  1  0
 20 21  2  0
 21 22  1  0
 22 23  2  0
 23 24  1  0
 24 25  2  0
 24 26  1  0
 23 27  1  0
 27 28  2  0
 28 29  1  0
 29 30  2  0
 29 31  1  0
 18 32  1  0
 32 33  1  0
 33 34  1  0
 32 35  2  0
  8 36  1  0
 36 37  2  0
 37 38  1  0
 38 39  1  0
 39 40  1  0
 37  5  1  0
 35 14  1  0
 28 20  1  0
  1 41  1  0
  1 42  1  0
  2 43  1  0
  3 44  1  0
  3 45  1  0
  6 46  1  0
  7 47  1  0
 11 48  1  0
 13 49  1  0
 15 50  1  0
 21 51  1  0
 22 52  1  0
 27 53  1  0
 34 54  1  0
 34 55  1  0
 34 56  1  0
 35 57  1  0
 36 58  1  0
 39 59  1  0
 39 60  1  0
 40 61  1  0
 40 62  1  0
 40 63  1  0
M  CHG  4  24   1  26  -1  29   1  31  -1
M  END
>  <Binding energies>  (1) 
[-8.67]

>  <Ligand effiencies>  (1) 
[-0.21146341463414633]

>  <Interactions>  (1) 
["V-B:PRO:540:CA:9855, V-B:HIS:456:CD2:9039, H-A:GLU:543:OE2:4910, V-A:GLU:543:C:4902, V-B:GLU:543:CB:9878, H-B:LYS:547:NZ:9923, V-B:HIS:456:CB:9036, V-B:TYR:539:CE2:9848, V-A:GLY:544:CA:4914, V-A:GLY:544:C:4912, V-B:GLU:543:CG:9879, V-B:TYR:539:C:9839, V-A:HIS:456:CD2:4068, V-A:LYS:547:CG:4948, V-A:HIS:456:CB:4065, V-B:LYS:547:CE:9922, H-B:ALA:541:N:9863, V-A:TYR:484:CZ:4347, V-A:GLU:543:CD:4908, V-B:HIS:456:CE1:9041, V-A:ARG:545:CG:4922, V-A:HIS:456:CE1:4070, V-A:ILE:369:CD1:3239, V-B:GLY:544:C:9884, V-B:TYR:539:CD2:9846, V-A:SER:385:CB:3409, H-A:SER:385:OG:3410, V-B:GLU:543:CD:9880, V-B:HIS:456:CG:9037, H-A:LYS:547:NZ:4951, V-A:LEU:475:CD2:4259, V-A:ARG:545:CZ:4926, H-A:GLU:543:OE1:4909, V-A:HIS:456:CG:4066, V-A:GLU:543:CB:4906, H-A:HIS:383:HE2:3395, V-A:HIS:383:NE2:3394"]

$$$$
ZINC409312675
     RDKit          3D

 59 62  0  0  0  0  0  0  0  0999 V2000
  128.3520  130.1850   67.5040 C   0  0  0  0  0  0  0  0  0  0  0  0
  128.2110  128.8720   68.0380 O   0  0  0  0  0  0  0  0  0  0  0  0
  128.7370  127.7930   67.3470 C   0  0  0  0  0  0  0  0  0  0  0  0
  128.7730  127.7110   65.9460 C   0  0  0  0  0  0  0  0  0  0  0  0
  129.3110  126.5970   65.2940 C   0  0  0  0  0  0  0  0  0  0  0  0
  129.3210  126.5710   63.8370 C   0  0  0  0  0  0  0  0  0  0  0  0
  128.4080  127.1420   63.1430 N   0  0  0  0  0  0  0  0  0  0  0  0
  128.4820  126.9810   61.7730 N   0  0  0  0  0  0  0  0  0  0  0  0
  129.0670  127.9840   60.9820 C   0  0  0  0  0  0  0  0  0  0  0  0
  129.6410  129.2800   61.6220 C   0  0  0  0  0  0  0  0  0  0  0  0
  130.6630  130.0050   60.7080 C   0  0  0  0  0  0  0  0  0  0  0  0
  131.3020  131.1890   61.4620 C   0  0  0  0  0  0  0  0  0  0  0  0
  130.2220  132.1790   61.9630 C   0  0  0  0  0  0  0  0  0  0  0  0
  129.0730  131.4840   62.7370 C   0  0  0  0  0  0  0  0  0  0  0  0
  128.5100  130.2840   61.9460 C   0  0  0  0  0  0  0  0  0  0  0  0
  129.1530  127.8550   59.7030 N   0  0  0  0  0  0  0  0  0  0  0  0
  128.7000  126.6950   59.0660 C   0  0  0  0  0  0  0  0  0  0  0  0
  128.8140  126.6120   57.6780 C   0  0  0  0  0  0  0  0  0  0  0  0
  128.3870  125.4590   57.0150 C   0  0  0  0  0  0  0  0  0  0  0  0
  127.8490  124.3910   57.7380 C   0  0  0  0  0  0  0  0  0  0  0  0
  127.2740  122.8230   56.8250 Br  0  0  0  0  0  0  0  0  0  0  0  0
  127.7330  124.4710   59.1270 C   0  0  0  0  0  0  0  0  0  0  0  0
  128.1560  125.6270   59.7900 C   0  0  0  0  0  0  0  0  0  0  0  0
  128.0430  125.7490   61.2980 C   0  0  0  0  0  0  0  0  0  0  0  0
  127.5980  124.8370   62.0040 O   0  0  0  0  0  0  0  0  0  0  0  0
  129.8290  125.5450   66.0640 C   0  0  0  0  0  0  0  0  0  0  0  0
  130.5930  123.9870   65.2640 Br  0  0  0  0  0  0  0  0  0  0  0  0
  129.7980  125.6200   67.4550 C   0  0  0  0  0  0  0  0  0  0  0  0
  129.2560  126.7380   68.1100 C   0  0  0  0  0  0  0  0  0  0  0  0
  129.1860  126.8680   69.4890 O   0  0  0  0  0  0  0  0  0  0  0  0
  129.7830  127.9820   70.1760 C   0  0  2  0  0  0  0  0  0  0  0  0
  131.2540  128.0620   69.7220 C   0  0  0  0  0  0  0  0  0  0  0  0
  129.7050  127.8090   71.7190 C   0  0  0  0  0  0  0  0  0  0  0  0
  129.0370  126.8380   72.1450 O   0  0  0  0  0  0  0  0  0  0  0  0
  130.2890  128.6370   72.4580 O   0  0  0  0  0  0  0  0  0  0  0  0
  128.4298  130.9095   68.3280 H   0  0  0  0  0  0  0  0  0  0  0  0
  129.2605  130.2338   66.8858 H   0  0  0  0  0  0  0  0  0  0  0  0
  127.4745  130.4256   66.8858 H   0  0  0  0  0  0  0  0  0  0  0  0
  128.3692  128.5412   65.3480 H   0  0  0  0  0  0  0  0  0  0  0  0
  130.1363  126.0458   63.3179 H   0  0  0  0  0  0  0  0  0  0  0  0
  130.1524  128.9518   62.5389 H   0  0  0  0  0  0  0  0  0  0  0  0
  131.4499  129.2969   60.4089 H   0  0  0  0  0  0  0  0  0  0  0  0
  130.1425  130.3848   59.8165 H   0  0  0  0  0  0  0  0  0  0  0  0
  131.8643  130.8037   62.3253 H   0  0  0  0  0  0  0  0  0  0  0  0
  131.9716  131.7225   60.7713 H   0  0  0  0  0  0  0  0  0  0  0  0
  130.7006  132.9113   62.6298 H   0  0  0  0  0  0  0  0  0  0  0  0
  129.7787  132.6571   61.0770 H   0  0  0  0  0  0  0  0  0  0  0  0
  129.4568  131.1274   63.7042 H   0  0  0  0  0  0  0  0  0  0  0  0
  128.2630  132.2133   62.8850 H   0  0  0  0  0  0  0  0  0  0  0  0
  127.7392  129.7811   62.5485 H   0  0  0  0  0  0  0  0  0  0  0  0
  128.0726  130.6480   61.0046 H   0  0  0  0  0  0  0  0  0  0  0  0
  129.2386  127.4514   57.1078 H   0  0  0  0  0  0  0  0  0  0  0  0
  128.4745  125.3915   55.9206 H   0  0  0  0  0  0  0  0  0  0  0  0
  127.3113  123.6296   59.6964 H   0  0  0  0  0  0  0  0  0  0  0  0
  130.2050  124.7894   68.0504 H   0  0  0  0  0  0  0  0  0  0  0  0
  129.2404  128.9071   69.9314 H   0  0  0  0  0  0  0  0  0  0  0  0
  131.9089  128.0976   70.6051 H   0  0  0  0  0  0  0  0  0  0  0  0
  131.5002  127.1759   69.1185 H   0  0  0  0  0  0  0  0  0  0  0  0
  131.4026  128.9696   69.1185 H   0  0  0  0  0  0  0  0  0  0  0  0
  1  2  1  0
  2  3  1  0
  3  4  2  0
  4  5  1  0
  5  6  1  0
  6  7  2  0
  7  8  1  0
  8  9  1  0
  9 10  1  0
 10 11  1  0
 11 12  1  0
 12 13  1  0
 13 14  1  0
 14 15  1  0
  9 16  2  0
 16 17  1  0
 17 18  2  0
 18 19  1  0
 19 20  2  0
 20 21  1  0
 20 22  1  0
 22 23  2  0
 23 24  1  0
 24 25  2  0
  5 26  2  0
 26 27  1  0
 26 28  1  0
 28 29  2  0
 29 30  1  0
 30 31  1  0
 31 32  1  0
 31 33  1  0
 33 34  2  0
 33 35  1  0
 29  3  1  0
 24  8  1  0
 15 10  1  0
 23 17  1  0
  1 36  1  0
  1 37  1  0
  1 38  1  0
  4 39  1  0
  6 40  1  0
 10 41  1  0
 11 42  1  0
 11 43  1  0
 12 44  1  0
 12 45  1  0
 13 46  1  0
 13 47  1  0
 14 48  1  0
 14 49  1  0
 15 50  1  0
 15 51  1  0
 18 52  1  0
 19 53  1  0
 22 54  1  0
 28 55  1  0
 31 56  1  1
 32 57  1  0
 32 58  1  0
 32 59  1  0
M  CHG  1  35  -1
M  END
>  <Binding energies>  (1) 
[-7.2]

>  <Ligand effiencies>  (1) 
[-0.2057142857142857]

>  <Interactions>  (1) 
["V-A:GLU:543:CA:4904, V-A:GLU:543:C:4902, V-B:GLU:543:CB:9878, V-A:PRO:540:C:4881, V-A:TYR:484:CE2:4346, V-B:GLU:543:CG:9879, V-A:GLY:544:C:4912, V-B:TYR:484:CE2:9317, V-B:TYR:539:CZ:9849, V-A:GLU:543:CD:4908, V-A:TYR:484:CZ:4347, V-B:HIS:456:CE1:9041, V-A:ARG:545:CG:4922, V-B:GLU:543:CA:9876, V-B:PRO:540:N:9856, V-A:HIS:456:CE1:4070, V-B:TYR:484:CZ:9318, V-A:GLU:543:CG:4907, V-B:GLU:543:CD:9880, H-A:LYS:547:NZ:4951, V-B:TYR:539:CG:9844, V-A:GLU:543:CB:4906, V-B:TYR:539:CD1:9845, V-A:PRO:540:CA:4883, V-B:TYR:539:CE1:9847"]

$$$$
ZINC409315089
     RDKit          3D

 60 63  0  0  0  0  0  0  0  0999 V2000
  133.5950  124.7480   63.4590 C   0  0  0  0  0  0  0  0  0  0  0  0
  132.0710  124.6830   63.2960 C   0  0  0  0  0  0  0  0  0  0  0  0
  131.3140  125.1160   64.5630 C   0  0  0  0  0  0  0  0  0  0  0  0
  129.8130  124.7580   64.5120 C   0  0  0  0  0  0  0  0  0  0  0  0
  129.2820  124.7490   63.0700 C   0  0  0  0  0  0  0  0  0  0  0  0
  129.1250  123.6010   62.5110 N   0  0  0  0  0  0  0  0  0  0  0  0
  128.6760  123.5120   61.1890 C   0  0  0  0  0  0  0  0  0  0  0  0
  128.5100  122.2450   60.6260 C   0  0  0  0  0  0  0  0  0  0  0  0
  128.0760  122.1240   59.3050 C   0  0  0  0  0  0  0  0  0  0  0  0
  127.8140  123.2660   58.5430 C   0  0  0  0  0  0  0  0  0  0  0  0
  127.2280  123.0890   56.7410 Br  0  0  0  0  0  0  0  0  0  0  0  0
  127.9800  124.5360   59.1000 C   0  0  0  0  0  0  0  0  0  0  0  0
  128.4060  124.6560   60.4270 C   0  0  0  0  0  0  0  0  0  0  0  0
  128.6020  126.0210   61.0620 C   0  0  0  0  0  0  0  0  0  0  0  0
  128.4290  127.0750   60.4390 O   0  0  0  0  0  0  0  0  0  0  0  0
  128.9920  125.9420   62.3960 N   0  0  0  0  0  0  0  0  0  0  0  0
  129.2610  127.1490   63.0090 N   0  0  0  0  0  0  0  0  0  0  0  0
  128.2600  127.8820   63.3390 C   0  0  0  0  0  0  0  0  0  0  0  0
  128.3680  129.1920   64.0150 C   0  0  0  0  0  0  0  0  0  0  0  0
  128.6660  130.3030   63.2130 C   0  0  0  0  0  0  0  0  0  0  0  0
  128.8140  131.5900   63.7480 C   0  0  0  0  0  0  0  0  0  0  0  0
  129.1320  132.7480   62.8750 N   0  0  0  0  0  0  0  0  0  0  0  0
  128.3470  133.6920   62.8440 O   0  0  0  0  0  0  0  0  0  0  0  0
  130.1660  132.7210   62.2150 O   0  0  0  0  0  0  0  0  0  0  0  0
  128.6570  131.7560   65.1270 C   0  0  0  0  0  0  0  0  0  0  0  0
  128.3540  130.6720   65.9440 C   0  0  0  0  0  0  0  0  0  0  0  0
  128.1970  129.3840   65.4060 C   0  0  0  0  0  0  0  0  0  0  0  0
  127.8630  128.2930   66.1890 O   0  0  0  0  0  0  0  0  0  0  0  0
  128.8410  127.3290   66.5640 C   0  0  0  0  0  0  0  0  0  0  0  0
  129.0210  127.3650   68.0760 C   0  0  0  0  0  0  0  0  0  0  0  0
  130.2460  127.7400   68.6250 C   0  0  0  0  0  0  0  0  0  0  0  0
  130.4040  127.7970   70.0070 C   0  0  0  0  0  0  0  0  0  0  0  0
  129.3410  127.4830   70.8770 C   0  0  0  0  0  0  0  0  0  0  0  0
  129.5080  127.5640   72.3810 C   0  0  0  0  0  0  0  0  0  0  0  0
  128.9970  126.6690   73.0960 O   0  0  0  0  0  0  0  0  0  0  0  0
  130.1500  128.5260   72.8670 O   0  0  0  0  0  0  0  0  0  0  0  0
  128.1170  127.0930   70.2990 C   0  0  0  0  0  0  0  0  0  0  0  0
  127.9610  127.0290   68.9180 C   0  0  0  0  0  0  0  0  0  0  0  0
  133.8492  124.7588   64.5292 H   0  0  0  0  0  0  0  0  0  0  0  0
  134.0526  123.8686   62.9823 H   0  0  0  0  0  0  0  0  0  0  0  0
  133.9760  125.6632   62.9823 H   0  0  0  0  0  0  0  0  0  0  0  0
  131.7780  125.3458   62.4685 H   0  0  0  0  0  0  0  0  0  0  0  0
  131.8052  123.6347   63.0950 H   0  0  0  0  0  0  0  0  0  0  0  0
  131.7660  124.6147   65.4316 H   0  0  0  0  0  0  0  0  0  0  0  0
  131.3921  126.2106   64.6389 H   0  0  0  0  0  0  0  0  0  0  0  0
  129.6690  123.7600   64.9516 H   0  0  0  0  0  0  0  0  0  0  0  0
  129.2581  125.5206   65.0781 H   0  0  0  0  0  0  0  0  0  0  0  0
  128.7207  121.3448   61.2220 H   0  0  0  0  0  0  0  0  0  0  0  0
  127.9397  121.1264   58.8621 H   0  0  0  0  0  0  0  0  0  0  0  0
  127.7773  125.4352   58.4997 H   0  0  0  0  0  0  0  0  0  0  0  0
  127.2524  127.5094   63.1023 H   0  0  0  0  0  0  0  0  0  0  0  0
  128.7875  130.1599   62.1291 H   0  0  0  0  0  0  0  0  0  0  0  0
  128.7744  132.7555   65.5711 H   0  0  0  0  0  0  0  0  0  0  0  0
  128.2356  130.8255   67.0268 H   0  0  0  0  0  0  0  0  0  0  0  0
  128.5076  126.3269   66.2564 H   0  0  0  0  0  0  0  0  0  0  0  0
  129.7970  127.5594   66.0711 H   0  0  0  0  0  0  0  0  0  0  0  0
  131.0894  127.9914   67.9651 H   0  0  0  0  0  0  0  0  0  0  0  0
  131.3765  128.0926   70.4275 H   0  0  0  0  0  0  0  0  0  0  0  0
  127.2696  126.8345   70.9510 H   0  0  0  0  0  0  0  0  0  0  0  0
  126.9989  126.7125   68.4889 H   0  0  0  0  0  0  0  0  0  0  0  0
  1  2  1  0
  2  3  1  0
  3  4  1  0
  4  5  1  0
  5  6  2  0
  6  7  1  0
  7  8  2  0
  8  9  1  0
  9 10  2  0
 10 11  1  0
 10 12  1  0
 12 13  2  0
 13 14  1  0
 14 15  2  0
 14 16  1  0
 16 17  1  0
 17 18  2  0
 18 19  1  0
 19 20  2  0
 20 21  1  0
 21 22  1  0
 22 23  2  0
 22 24  1  0
 21 25  2  0
 25 26  1  0
 26 27  2  0
 27 28  1  0
 28 29  1  0
 29 30  1  0
 30 31  2  0
 31 32  1  0
 32 33  2  0
 33 34  1  0
 34 35  2  0
 34 36  1  0
 33 37  1  0
 37 38  2  0
 16  5  1  0
 27 19  1  0
 38 30  1  0
 13  7  1  0
  1 39  1  0
  1 40  1  0
  1 41  1  0
  2 42  1  0
  2 43  1  0
  3 44  1  0
  3 45  1  0
  4 46  1  0
  4 47  1  0
  8 48  1  0
  9 49  1  0
 12 50  1  0
 18 51  1  0
 20 52  1  0
 25 53  1  0
 26 54  1  0
 29 55  1  0
 29 56  1  0
 31 57  1  0
 32 58  1  0
 37 59  1  0
 38 60  1  0
M  CHG  3  22   1  24  -1  36  -1
M  END
>  <Binding energies>  (1) 
[-8.82]

>  <Ligand effiencies>  (1) 
[-0.23210526315789473]

>  <Interactions>  (1) 
["V-B:PRO:540:CA:9855, V-A:GLU:543:CA:4904, V-B:GLU:543:C:9874, V-A:GLU:543:C:4902, H-A:ALA:541:N:4891, V-B:GLU:543:CB:9878, H-B:LYS:547:NZ:9923, V-B:TYR:539:CE2:9848, V-B:GLU:543:CG:9879, V-B:TYR:539:C:9839, V-B:TYR:484:CE2:9317, V-B:TYR:539:CZ:9849, V-A:ALA:541:CB:4892, V-A:GLU:543:CD:4908, V-B:PRO:540:CB:9857, V-B:HIS:456:CE1:9041, V-B:PRO:540:N:9856, V-B:TYR:484:CZ:9318, V-A:HIS:456:CE1:4070, V-A:ALA:541:CA:4890, V-B:TYR:539:CD2:9846, V-A:GLU:543:CG:4907, V-B:GLU:543:CD:9880, H-A:LYS:547:NZ:4951, V-A:ARG:545:CZ:4926, V-B:TYR:539:CG:9844, V-A:GLU:543:CB:4906, V-B:PRO:540:C:9853, V-B:TYR:539:CE1:9847"]

$$$$
ZINC409315453
     RDKit          3D

 69 73  0  0  0  0  0  0  0  0999 V2000
  125.6060  130.0740   57.6780 C   0  0  0  0  0  0  0  0  0  0  0  0
  126.6320  128.9800   57.9870 C   0  0  0  0  0  0  0  0  0  0  0  0
  127.8910  129.3760   57.4500 O   0  0  0  0  0  0  0  0  0  0  0  0
  129.0240  129.3470   58.2450 C   0  0  0  0  0  0  0  0  0  0  0  0
  129.0750  128.7040   59.4930 C   0  0  0  0  0  0  0  0  0  0  0  0
  130.2300  128.7340   60.2840 C   0  0  0  0  0  0  0  0  0  0  0  0
  130.3040  128.0680   61.5890 C   0  0  0  0  0  0  0  0  0  0  0  0
  129.7030  126.9680   61.8680 N   0  0  0  0  0  0  0  0  0  0  0  0
  129.9010  126.4540   63.1360 N   0  0  0  0  0  0  0  0  0  0  0  0
  130.6950  125.3110   63.3220 C   0  0  0  0  0  0  0  0  0  0  0  0
  131.3930  124.6110   62.1230 C   0  0  0  0  0  0  0  0  0  0  0  0
  132.4350  125.5500   61.4700 C   0  0  0  0  0  0  0  0  0  0  0  0
  132.9880  124.9150   60.1780 C   0  0  0  0  0  0  0  0  0  0  0  0
  133.6050  123.5240   60.4580 C   0  0  0  0  0  0  0  0  0  0  0  0
  132.6690  122.5930   61.2680 C   0  0  0  0  0  0  0  0  0  0  0  0
  132.1270  123.3060   62.5250 C   0  0  0  0  0  0  0  0  0  0  0  0
  130.8700  124.8070   64.4950 N   0  0  0  0  0  0  0  0  0  0  0  0
  130.2480  125.3650   65.6160 C   0  0  0  0  0  0  0  0  0  0  0  0
  130.4760  124.7810   66.8630 C   0  0  0  0  0  0  0  0  0  0  0  0
  129.8590  125.3080   67.9990 C   0  0  0  0  0  0  0  0  0  0  0  0
  129.0130  126.4140   67.8890 C   0  0  0  0  0  0  0  0  0  0  0  0
  128.1720  127.1210   69.4440 Br  0  0  0  0  0  0  0  0  0  0  0  0
  128.7800  127.0020   66.6440 C   0  0  0  0  0  0  0  0  0  0  0  0
  129.4040  126.4760   65.5070 C   0  0  0  0  0  0  0  0  0  0  0  0
  129.1740  127.0890   64.1390 C   0  0  0  0  0  0  0  0  0  0  0  0
  128.4210  128.0540   63.9640 O   0  0  0  0  0  0  0  0  0  0  0  0
  131.3440  129.4270   59.8050 C   0  0  0  0  0  0  0  0  0  0  0  0
  131.3320  130.0650   58.5600 C   0  0  0  0  0  0  0  0  0  0  0  0
  132.5470  130.7730   58.1000 N   0  0  0  0  0  0  0  0  0  0  0  0
  132.6160  131.9830   58.2910 O   0  0  0  0  0  0  0  0  0  0  0  0
  133.4420  130.1230   57.5690 O   0  0  0  0  0  0  0  0  0  0  0  0
  130.1660  130.0160   57.7760 C   0  0  0  0  0  0  0  0  0  0  0  0
  130.1470  130.6850   56.5700 O   0  0  0  0  0  0  0  0  0  0  0  0
  129.8030  132.0710   56.6130 C   0  0  0  0  0  0  0  0  0  0  0  0
  129.1110  132.4230   57.9260 C   0  0  0  0  0  0  0  0  0  0  0  0
  129.8770  132.9330   58.9780 C   0  0  0  0  0  0  0  0  0  0  0  0
  129.2700  133.2710   60.1850 C   0  0  0  0  0  0  0  0  0  0  0  0
  127.8960  133.1030   60.3380 C   0  0  0  0  0  0  0  0  0  0  0  0
  127.0660  133.5660   61.9880 Br  0  0  0  0  0  0  0  0  0  0  0  0
  127.1240  132.6000   59.2930 C   0  0  0  0  0  0  0  0  0  0  0  0
  127.7300  132.2620   58.0860 C   0  0  0  0  0  0  0  0  0  0  0  0
  125.2172  130.4886   58.6198 H   0  0  0  0  0  0  0  0  0  0  0  0
  126.0870  130.8740   57.0961 H   0  0  0  0  0  0  0  0  0  0  0  0
  124.7768  129.6452   57.0961 H   0  0  0  0  0  0  0  0  0  0  0  0
  126.7178  128.8486   59.0758 H   0  0  0  0  0  0  0  0  0  0  0  0
  126.3138  128.0274   57.5384 H   0  0  0  0  0  0  0  0  0  0  0  0
  128.1878  128.1650   59.8569 H   0  0  0  0  0  0  0  0  0  0  0  0
  130.9109  128.5393   62.3761 H   0  0  0  0  0  0  0  0  0  0  0  0
  130.5858  124.3616   61.4186 H   0  0  0  0  0  0  0  0  0  0  0  0
  131.9569  126.5104   61.2271 H   0  0  0  0  0  0  0  0  0  0  0  0
  133.2644  125.7111   62.1744 H   0  0  0  0  0  0  0  0  0  0  0  0
  132.1681  124.8045   59.4531 H   0  0  0  0  0  0  0  0  0  0  0  0
  133.7748  125.5707   59.7767 H   0  0  0  0  0  0  0  0  0  0  0  0
  133.8305  123.0415   59.4956 H   0  0  0  0  0  0  0  0  0  0  0  0
  134.5101  123.6836   61.0624 H   0  0  0  0  0  0  0  0  0  0  0  0
  131.8229  122.2931   60.6323 H   0  0  0  0  0  0  0  0  0  0  0  0
  133.2444  121.7116   61.5874 H   0  0  0  0  0  0  0  0  0  0  0  0
  131.4245  122.6395   63.0468 H   0  0  0  0  0  0  0  0  0  0  0  0
  132.9685  123.5560   63.1878 H   0  0  0  0  0  0  0  0  0  0  0  0
  131.1398  123.9082   66.9504 H   0  0  0  0  0  0  0  0  0  0  0  0
  130.0395  124.8511   68.9832 H   0  0  0  0  0  0  0  0  0  0  0  0
  128.1116  127.8714   66.5576 H   0  0  0  0  0  0  0  0  0  0  0  0
  132.2535  129.4723   60.4221 H   0  0  0  0  0  0  0  0  0  0  0  0
  130.7193  132.6720   56.5171 H   0  0  0  0  0  0  0  0  0  0  0  0
  129.1120  132.2860   55.7845 H   0  0  0  0  0  0  0  0  0  0  0  0
  130.9615  133.0677   58.8523 H   0  0  0  0  0  0  0  0  0  0  0  0
  129.8734  133.6691   61.0141 H   0  0  0  0  0  0  0  0  0  0  0  0
  126.0392  132.4703   59.4211 H   0  0  0  0  0  0  0  0  0  0  0  0
  127.1229  131.8681   57.2575 H   0  0  0  0  0  0  0  0  0  0  0  0
  1  2  1  0
  2  3  1  0
  3  4  1  0
  4  5  2  0
  5  6  1  0
  6  7  1  0
  7  8  2  0
  8  9  1  0
  9 10  1  0
 10 11  1  0
 11 12  1  0
 12 13  1  0
 13 14  1  0
 14 15  1  0
 15 16  1  0
 10 17  2  0
 17 18  1  0
 18 19  2  0
 19 20  1  0
 20 21  2  0
 21 22  1  0
 21 23  1  0
 23 24  2  0
 24 25  1  0
 25 26  2  0
  6 27  2  0
 27 28  1  0
 28 29  1  0
 29 30  2  0
 29 31  1  0
 28 32  2  0
 32 33  1  0
 33 34  1  0
 34 35  1  0
 35 36  2  0
 36 37  1  0
 37 38  2  0
 38 39  1  0
 38 40  1  0
 40 41  2  0
 32  4  1  0
 41 35  1  0
 25  9  1  0
 16 11  1  0
 24 18  1  0
  1 42  1  0
  1 43  1  0
  1 44  1  0
  2 45  1  0
  2 46  1  0
  5 47  1  0
  7 48  1  0
 11 49  1  0
 12 50  1  0
 12 51  1  0
 13 52  1  0
 13 53  1  0
 14 54  1  0
 14 55  1  0
 15 56  1  0
 15 57  1  0
 16 58  1  0
 16 59  1  0
 19 60  1  0
 20 61  1  0
 23 62  1  0
 27 63  1  0
 34 64  1  0
 34 65  1  0
 36 66  1  0
 37 67  1  0
 40 68  1  0
 41 69  1  0
M  CHG  2  29   1  31  -1
M  END
>  <Binding energies>  (1) 
[-7.89]

>  <Ligand effiencies>  (1) 
[-0.1924390243902439]

>  <Interactions>  (1) 
["V-A:ILE:369:CG2:3237, V-B:GLU:543:C:9874, V-A:PRO:540:C:4881, V-B:GLU:543:CB:9878, H-A:TYR:531:OH:4795, V-A:TYR:484:CE2:4346, V-B:GLU:543:CG:9879, V-B:LEU:475:CD2:9230, V-A:ASP:366:CG:3213, V-A:TYR:539:CD1:4873, V-A:LEU:363:CD1:3189, V-A:TYR:539:CZ:4877, V-B:TYR:531:CZ:9766, V-A:GLU:543:CD:4908, V-A:TYR:484:CZ:4347, V-B:GLU:543:CA:9876, V-B:HIS:456:CE1:9041, V-A:HIS:456:CE1:4070, V-A:ILE:369:CD1:3239, V-A:MET:535:CE:4835, V-B:GLU:543:CD:9880, V-A:TYR:539:C:4867, H-B:TYR:531:OH:9767, V-A:ASP:366:CB:3212, V-A:LEU:475:CD2:4259, V-A:PRO:540:N:4884, V-A:PRO:540:CB:4885, V-A:PRO:540:CA:4883, V-A:TYR:539:CE1:4875"]

$$$$
ZINC409315568
     RDKit          3D

 66 68  0  0  0  0  0  0  0  0999 V2000
  129.3630  132.4830   73.3710 C   0  0  0  0  0  0  0  0  0  0  0  0
  129.1170  131.2450   72.9160 C   0  0  0  0  0  0  0  0  0  0  0  0
  129.4270  129.9660   73.6720 C   0  0  0  0  0  0  0  0  0  0  0  0
  129.3170  128.7200   72.7980 C   0  0  0  0  0  0  0  0  0  0  0  0
  129.2720  128.8610   71.4100 C   0  0  0  0  0  0  0  0  0  0  0  0
  129.1820  127.7460   70.5690 C   0  0  0  0  0  0  0  0  0  0  0  0
  129.1330  127.8660   69.1080 C   0  0  0  0  0  0  0  0  0  0  0  0
  128.6190  126.9830   68.3290 N   0  0  0  0  0  0  0  0  0  0  0  0
  128.6670  127.2490   66.9740 N   0  0  0  0  0  0  0  0  0  0  0  0
  129.3760  126.3970   66.1110 C   0  0  0  0  0  0  0  0  0  0  0  0
  130.1250  125.1470   66.6480 C   0  0  1  0  0  0  0  0  0  0  0  0
  129.9130  123.9210   65.7250 C   0  0  0  0  0  0  0  0  0  0  0  0
  131.6270  125.4780   66.8540 C   0  0  0  0  0  0  0  0  0  0  0  0
  132.4690  125.4350   65.5690 C   0  0  0  0  0  0  0  0  0  0  0  0
  129.4290  126.6270   64.8430 N   0  0  0  0  0  0  0  0  0  0  0  0
  128.7540  127.7170   64.2840 C   0  0  0  0  0  0  0  0  0  0  0  0
  128.8520  127.9250   62.9070 C   0  0  0  0  0  0  0  0  0  0  0  0
  128.1780  128.9970   62.3180 C   0  0  0  0  0  0  0  0  0  0  0  0
  127.4060  129.8580   63.1010 C   0  0  0  0  0  0  0  0  0  0  0  0
  126.4910  131.3150   62.2880 Br  0  0  0  0  0  0  0  0  0  0  0  0
  127.3030  129.6530   64.4790 C   0  0  0  0  0  0  0  0  0  0  0  0
  127.9840  128.5830   65.0690 C   0  0  0  0  0  0  0  0  0  0  0  0
  127.8960  128.3320   66.5630 C   0  0  0  0  0  0  0  0  0  0  0  0
  127.2110  129.0370   67.3130 O   0  0  0  0  0  0  0  0  0  0  0  0
  129.1460  126.4740   71.1530 C   0  0  0  0  0  0  0  0  0  0  0  0
  129.1940  126.3030   72.5470 C   0  0  0  0  0  0  0  0  0  0  0  0
  129.1990  125.0630   73.1630 O   0  0  0  0  0  0  0  0  0  0  0  0
  128.5650  123.9530   72.5350 C   0  0  0  0  0  0  0  0  0  0  0  0
  129.0360  122.6690   73.2230 C   0  0  0  0  0  0  0  0  0  0  0  0
  129.2580  127.4400   73.3720 C   0  0  0  0  0  0  0  0  0  0  0  0
  129.3130  127.3330   74.7450 O   0  0  0  0  0  0  0  0  0  0  0  0
  130.3500  126.5060   75.2790 C   0  0  0  0  0  0  0  0  0  0  0  0
  131.7070  126.8150   74.6360 C   0  0  0  0  0  0  0  0  0  0  0  0
  131.8520  126.7380   73.4150 O   0  0  0  0  0  0  0  0  0  0  0  0
  132.6640  127.1640   75.5260 O   0  0  0  0  0  0  0  0  0  0  0  0
  133.9620  126.5930   75.4490 C   0  0  0  0  0  0  0  0  0  0  0  0
  129.1052  133.3568   72.7546 H   0  0  0  0  0  0  0  0  0  0  0  0
  129.8224  132.6241   74.3604 H   0  0  0  0  0  0  0  0  0  0  0  0
  128.6566  131.1500   71.9215 H   0  0  0  0  0  0  0  0  0  0  0  0
  130.4524  130.0300   74.0650 H   0  0  0  0  0  0  0  0  0  0  0  0
  128.6854  129.8706   74.4788 H   0  0  0  0  0  0  0  0  0  0  0  0
  129.3080  129.8680   70.9687 H   0  0  0  0  0  0  0  0  0  0  0  0
  129.5635  128.7689   68.6504 H   0  0  0  0  0  0  0  0  0  0  0  0
  129.7032  124.8727   67.6262 H   0  0  0  0  0  0  0  0  0  0  0  0
  129.7575  123.0220   66.3395 H   0  0  0  0  0  0  0  0  0  0  0  0
  129.0305  124.0883   65.0901 H   0  0  0  0  0  0  0  0  0  0  0  0
  130.8005  123.7822   65.0901 H   0  0  0  0  0  0  0  0  0  0  0  0
  131.7010  126.4894   67.2801 H   0  0  0  0  0  0  0  0  0  0  0  0
  132.0310  124.7013   67.5200 H   0  0  0  0  0  0  0  0  0  0  0  0
  133.5359  125.3805   65.8314 H   0  0  0  0  0  0  0  0  0  0  0  0
  132.1911  124.5499   64.9780 H   0  0  0  0  0  0  0  0  0  0  0  0
  132.2827  126.3438   64.9780 H   0  0  0  0  0  0  0  0  0  0  0  0
  129.4580  127.2469   62.2881 H   0  0  0  0  0  0  0  0  0  0  0  0
  128.2555  129.1638   61.2335 H   0  0  0  0  0  0  0  0  0  0  0  0
  126.6910  130.3279   65.0954 H   0  0  0  0  0  0  0  0  0  0  0  0
  129.0785  125.5875   70.5053 H   0  0  0  0  0  0  0  0  0  0  0  0
  127.4732  124.0463   72.6316 H   0  0  0  0  0  0  0  0  0  0  0  0
  128.8268  123.9252   71.4670 H   0  0  0  0  0  0  0  0  0  0  0  0
  128.9883  122.7990   74.3142 H   0  0  0  0  0  0  0  0  0  0  0  0
  128.3859  121.8334   72.9245 H   0  0  0  0  0  0  0  0  0  0  0  0
  130.0723  122.4520   72.9245 H   0  0  0  0  0  0  0  0  0  0  0  0
  130.4213  126.6785   76.3631 H   0  0  0  0  0  0  0  0  0  0  0  0
  130.0984  125.4571   75.0633 H   0  0  0  0  0  0  0  0  0  0  0  0
  134.3486  126.4229   76.4647 H   0  0  0  0  0  0  0  0  0  0  0  0
  133.9097  125.6348   74.9113 H   0  0  0  0  0  0  0  0  0  0  0  0
  134.6331  127.2790   74.9113 H   0  0  0  0  0  0  0  0  0  0  0  0
  1  2  2  0
  2  3  1  0
  3  4  1  0
  4  5  2  0
  5  6  1  0
  6  7  1  0
  7  8  2  0
  8  9  1  0
  9 10  1  0
 10 11  1  0
 11 12  1  0
 11 13  1  0
 13 14  1  0
 10 15  2  0
 15 16  1  0
 16 17  2  0
 17 18  1  0
 18 19  2  0
 19 20  1  0
 19 21  1  0
 21 22  2  0
 22 23  1  0
 23 24  2  0
  6 25  2  0
 25 26  1  0
 26 27  1  0
 27 28  1  0
 28 29  1  0
 26 30  2  0
 30 31  1  0
 31 32  1  0
 32 33  1  0
 33 34  2  0
 33 35  1  0
 35 36  1  0
 30  4  1  0
 23  9  1  0
 22 16  1  0
  1 37  1  0
  1 38  1  0
  2 39  1  0
  3 40  1  0
  3 41  1  0
  5 42  1  0
  7 43  1  0
 11 44  1  1
 12 45  1  0
 12 46  1  0
 12 47  1  0
 13 48  1  0
 13 49  1  0
 14 50  1  0
 14 51  1  0
 14 52  1  0
 17 53  1  0
 18 54  1  0
 21 55  1  0
 25 56  1  0
 28 57  1  0
 28 58  1  0
 29 59  1  0
 29 60  1  0
 29 61  1  0
 32 62  1  0
 32 63  1  0
 36 64  1  0
 36 65  1  0
 36 66  1  0
M  END
>  <Binding energies>  (1) 
[-6.62]

>  <Ligand effiencies>  (1) 
[-0.18388888888888888]

>  <Interactions>  (1) 
["V-B:HIS:456:CD2:9039, V-B:GLU:543:C:9874, V-A:GLU:543:C:4902, V-B:GLU:543:CB:9878, H-B:LYS:547:NZ:9923, V-A:TYR:484:CE2:4346, V-B:GLU:543:CG:9879, V-A:HIS:456:CD2:4068, V-A:LYS:547:CG:4948, V-A:HIS:456:CB:4065, V-B:LYS:547:CE:9922, V-A:GLU:543:CD:4908, V-A:TYR:484:CZ:4347, H-B:TYR:484:OH:9319, V-B:HIS:456:CE1:9041, V-A:HIS:456:CE1:4070, V-B:GLY:544:CA:9886, V-B:GLU:543:CD:9880, H-A:LYS:547:NZ:4951, V-A:ARG:545:CZ:4926, V-A:GLU:543:CB:4906, V-A:LYS:547:CE:4950, V-A:VAL:458:CG2:4087"]

$$$$
ZINC409316883
     RDKit          3D

 55 58  0  0  0  0  0  0  0  0999 V2000
  133.0120  124.7260   63.5660 C   0  0  0  0  0  0  0  0  0  0  0  0
  132.9860  125.0910   62.0760 C   0  0  0  0  0  0  0  0  0  0  0  0
  131.7610  125.9600   61.6940 C   0  0  0  0  0  0  0  0  0  0  0  0
  130.6050  125.2050   60.9980 C   0  0  0  0  0  0  0  0  0  0  0  0
  130.5090  125.2430   59.7140 N   0  0  0  0  0  0  0  0  0  0  0  0
  129.4620  124.5910   59.0540 C   0  0  0  0  0  0  0  0  0  0  0  0
  129.4100  124.6590   57.6610 C   0  0  0  0  0  0  0  0  0  0  0  0
  128.3700  124.0290   56.9740 C   0  0  0  0  0  0  0  0  0  0  0  0
  127.3820  123.3360   57.6780 C   0  0  0  0  0  0  0  0  0  0  0  0
  125.9660  122.4840   56.7340 Br  0  0  0  0  0  0  0  0  0  0  0  0
  127.4290  123.2660   59.0720 C   0  0  0  0  0  0  0  0  0  0  0  0
  128.4760  123.8920   59.7590 C   0  0  0  0  0  0  0  0  0  0  0  0
  128.5580  123.8390   61.2730 C   0  0  0  0  0  0  0  0  0  0  0  0
  127.7040  123.2700   61.9640 O   0  0  0  0  0  0  0  0  0  0  0  0
  129.6820  124.4870   61.7730 N   0  0  0  0  0  0  0  0  0  0  0  0
  129.7880  124.5050   63.1530 N   0  0  0  0  0  0  0  0  0  0  0  0
  129.4490  125.5950   63.7420 C   0  0  0  0  0  0  0  0  0  0  0  0
  129.4860  125.7840   65.1970 C   0  0  0  0  0  0  0  0  0  0  0  0
  129.9970  124.8110   66.0680 C   0  0  0  0  0  0  0  0  0  0  0  0
  130.0150  125.0230   67.4460 C   0  0  0  0  0  0  0  0  0  0  0  0
  129.5240  126.2170   67.9790 C   0  0  0  0  0  0  0  0  0  0  0  0
  129.5410  126.4240   69.3370 O   0  0  0  0  0  0  0  0  0  0  0  0
  130.3280  127.5330   69.7540 C   0  0  0  0  0  0  0  0  0  0  0  0
  130.1480  127.7250   71.2500 C   0  0  0  0  0  0  0  0  0  0  0  0
  129.0910  128.4920   71.7420 C   0  0  0  0  0  0  0  0  0  0  0  0
  128.9360  128.6660   73.1130 C   0  0  0  0  0  0  0  0  0  0  0  0
  129.8370  128.0760   73.9990 C   0  0  0  0  0  0  0  0  0  0  0  0
  130.9180  127.2970   73.5380 C   0  0  0  0  0  0  0  0  0  0  0  0
  131.8980  126.6580   74.5020 C   0  0  0  0  0  0  0  0  0  0  0  0
  131.7210  125.4620   74.8390 O   0  0  0  0  0  0  0  0  0  0  0  0
  132.8550  127.3440   74.9340 O   0  0  0  0  0  0  0  0  0  0  0  0
  131.0490  127.1380   72.1430 C   0  0  0  0  0  0  0  0  0  0  0  0
  129.0100  127.1950   67.1230 C   0  0  0  0  0  0  0  0  0  0  0  0
  128.3950  128.6830   67.7550 Cl  0  0  0  0  0  0  0  0  0  0  0  0
  128.9930  126.9770   65.7450 C   0  0  0  0  0  0  0  0  0  0  0  0
  132.9467  125.6434   64.1694 H   0  0  0  0  0  0  0  0  0  0  0  0
  132.1581  124.0726   63.7984 H   0  0  0  0  0  0  0  0  0  0  0  0
  133.9499  124.2003   63.7984 H   0  0  0  0  0  0  0  0  0  0  0  0
  133.9025  125.6493   61.8345 H   0  0  0  0  0  0  0  0  0  0  0  0
  132.9186  124.1530   61.5054 H   0  0  0  0  0  0  0  0  0  0  0  0
  131.3651  126.4125   62.6152 H   0  0  0  0  0  0  0  0  0  0  0  0
  132.1269  126.6958   60.9627 H   0  0  0  0  0  0  0  0  0  0  0  0
  130.1856  125.2070   57.1060 H   0  0  0  0  0  0  0  0  0  0  0  0
  128.3286  124.0785   55.8759 H   0  0  0  0  0  0  0  0  0  0  0  0
  126.6492  122.7230   59.6261 H   0  0  0  0  0  0  0  0  0  0  0  0
  129.1110  126.4364   63.1192 H   0  0  0  0  0  0  0  0  0  0  0  0
  130.3888  123.8681   65.6587 H   0  0  0  0  0  0  0  0  0  0  0  0
  130.4169  124.2479   68.1151 H   0  0  0  0  0  0  0  0  0  0  0  0
  131.3876  127.3394   69.5308 H   0  0  0  0  0  0  0  0  0  0  0  0
  130.0093  128.4400   69.2194 H   0  0  0  0  0  0  0  0  0  0  0  0
  128.3799  128.9593   71.0448 H   0  0  0  0  0  0  0  0  0  0  0  0
  128.1016  129.2698   73.4991 H   0  0  0  0  0  0  0  0  0  0  0  0
  129.7014  128.2215   75.0809 H   0  0  0  0  0  0  0  0  0  0  0  0
  131.8811  126.5369   71.7476 H   0  0  0  0  0  0  0  0  0  0  0  0
  128.5869  127.7523   65.0787 H   0  0  0  0  0  0  0  0  0  0  0  0
  1  2  1  0
  2  3  1  0
  3  4  1  0
  4  5  2  0
  5  6  1  0
  6  7  2  0
  7  8  1  0
  8  9  2  0
  9 10  1  0
  9 11  1  0
 11 12  2  0
 12 13  1  0
 13 14  2  0
 13 15  1  0
 15 16  1  0
 16 17  2  0
 17 18  1  0
 18 19  2  0
 19 20  1  0
 20 21  2  0
 21 22  1  0
 22 23  1  0
 23 24  1  0
 24 25  2  0
 25 26  1  0
 26 27  2  0
 27 28  1  0
 28 29  1  0
 29 30  2  0
 29 31  1  0
 28 32  2  0
 21 33  1  0
 33 34  1  0
 33 35  2  0
 15  4  1  0
 35 18  1  0
 12  6  1  0
 32 24  1  0
  1 36  1  0
  1 37  1  0
  1 38  1  0
  2 39  1  0
  2 40  1  0
  3 41  1  0
  3 42  1  0
  7 43  1  0
  8 44  1  0
 11 45  1  0
 17 46  1  0
 19 47  1  0
 20 48  1  0
 23 49  1  0
 23 50  1  0
 25 51  1  0
 26 52  1  0
 27 53  1  0
 32 54  1  0
 35 55  1  0
M  CHG  1  31  -1
M  END
>  <Binding energies>  (1) 
[-9.08]

>  <Ligand effiencies>  (1) 
[-0.25942857142857145]

>  <Interactions>  (1) 
["V-B:PRO:540:CA:9855, V-B:HIS:456:CD2:9039, V-B:GLU:543:CB:9878, V-B:TYR:539:CE2:9848, V-A:TYR:484:CE2:4346, V-B:GLU:543:CG:9879, V-A:GLY:544:C:4912, V-A:ASP:366:CG:3213, V-A:HIS:456:CD2:4068, V-B:TYR:539:CZ:9849, H-B:ALA:541:N:9863, V-A:TYR:484:CZ:4347, V-A:GLU:543:CD:4908, V-B:PRO:540:CB:9857, V-B:HIS:456:CE1:9041, V-B:GLU:543:CA:9876, V-B:PRO:540:N:9856, V-A:HIS:456:CE1:4070, V-B:PRO:540:CD:9859, V-A:GLU:543:CG:4907, V-B:GLU:543:CD:9880, H-A:LYS:547:NZ:4951, V-A:ARG:545:CZ:4926, V-A:GLU:543:CB:4906, V-A:HIS:456:CG:4066, V-B:MET:535:CE:9807, V-B:TYR:539:CE1:9847"]

$$$$
ZINC409323719
     RDKit          3D

 62 65  0  0  0  0  0  0  0  0999 V2000
  131.3580  125.8890   57.8870 C   0  0  0  0  0  0  0  0  0  0  0  0
  132.1740  125.8100   59.1900 C   0  0  0  0  0  0  0  0  0  0  0  0
  131.3180  125.7900   60.4860 C   0  0  2  0  0  0  0  0  0  0  0  0
  132.0880  126.4050   61.6750 C   0  0  0  0  0  0  0  0  0  0  0  0
  130.8200  124.3620   60.8450 C   0  0  0  0  0  0  0  0  0  0  0  0
  131.5990  123.3770   60.5590 N   0  0  0  0  0  0  0  0  0  0  0  0
  131.2110  122.0580   60.8200 C   0  0  0  0  0  0  0  0  0  0  0  0
  132.0960  121.0280   60.4960 C   0  0  0  0  0  0  0  0  0  0  0  0
  131.7320  119.7020   60.7320 C   0  0  0  0  0  0  0  0  0  0  0  0
  130.4870  119.4030   61.2880 C   0  0  0  0  0  0  0  0  0  0  0  0
  130.0000  117.5910   61.6050 Br  0  0  0  0  0  0  0  0  0  0  0  0
  129.5960  120.4300   61.6120 C   0  0  0  0  0  0  0  0  0  0  0  0
  129.9640  121.7600   61.3800 C   0  0  0  0  0  0  0  0  0  0  0  0
  129.0220  122.9000   61.7180 C   0  0  0  0  0  0  0  0  0  0  0  0
  127.8920  122.7090   62.1840 O   0  0  0  0  0  0  0  0  0  0  0  0
  129.5710  124.1490   61.4510 N   0  0  0  0  0  0  0  0  0  0  0  0
  128.7370  125.2190   61.7150 N   0  0  0  0  0  0  0  0  0  0  0  0
  129.0310  125.9380   62.7380 C   0  0  0  0  0  0  0  0  0  0  0  0
  128.2830  127.1350   63.1410 C   0  0  0  0  0  0  0  0  0  0  0  0
  128.4740  127.7530   64.3830 C   0  0  0  0  0  0  0  0  0  0  0  0
  127.7330  128.8760   64.7460 C   0  0  0  0  0  0  0  0  0  0  0  0
  127.9980  129.6010   66.2930 Cl  0  0  0  0  0  0  0  0  0  0  0  0
  126.7810  129.4000   63.8660 C   0  0  0  0  0  0  0  0  0  0  0  0
  126.0490  130.5030   64.2380 O   0  0  0  0  0  0  0  0  0  0  0  0
  126.2180  131.6320   63.3860 C   0  0  0  0  0  0  0  0  0  0  0  0
  127.6620  131.7200   62.9140 C   0  0  0  0  0  0  0  0  0  0  0  0
  128.6830  131.9620   63.8350 C   0  0  0  0  0  0  0  0  0  0  0  0
  130.0060  132.0310   63.4090 C   0  0  0  0  0  0  0  0  0  0  0  0
  130.3290  131.8540   62.0560 C   0  0  0  0  0  0  0  0  0  0  0  0
  131.7400  131.9270   61.6020 N   0  0  0  0  0  0  0  0  0  0  0  0
  132.6100  132.2060   62.4230 O   0  0  0  0  0  0  0  0  0  0  0  0
  131.9910  131.7060   60.4190 O   0  0  0  0  0  0  0  0  0  0  0  0
  129.2980  131.6050   61.1400 C   0  0  0  0  0  0  0  0  0  0  0  0
  127.9750  131.5360   61.5650 C   0  0  0  0  0  0  0  0  0  0  0  0
  126.5800  128.8120   62.6110 C   0  0  0  0  0  0  0  0  0  0  0  0
  125.6370  129.3950   61.7830 O   0  0  0  0  0  0  0  0  0  0  0  0
  125.7160  129.1920   60.3760 C   0  0  0  0  0  0  0  0  0  0  0  0
  127.3360  127.6790   62.2630 C   0  0  0  0  0  0  0  0  0  0  0  0
  130.2899  125.9924   58.1289 H   0  0  0  0  0  0  0  0  0  0  0  0
  131.6870  126.7595   57.3005 H   0  0  0  0  0  0  0  0  0  0  0  0
  131.5140  124.9716   57.3005 H   0  0  0  0  0  0  0  0  0  0  0  0
  132.7771  124.8905   59.1624 H   0  0  0  0  0  0  0  0  0  0  0  0
  132.7847  126.7239   59.2325 H   0  0  0  0  0  0  0  0  0  0  0  0
  130.4306  126.4076   60.2834 H   0  0  0  0  0  0  0  0  0  0  0  0
  131.6469  126.0527   62.6191 H   0  0  0  0  0  0  0  0  0  0  0  0
  133.1433  126.0984   61.6264 H   0  0  0  0  0  0  0  0  0  0  0  0
  132.0223  127.5020   61.6264 H   0  0  0  0  0  0  0  0  0  0  0  0
  133.0769  121.2611   60.0562 H   0  0  0  0  0  0  0  0  0  0  0  0
  132.4286  118.8892   60.4790 H   0  0  0  0  0  0  0  0  0  0  0  0
  128.6130  120.1946   62.0460 H   0  0  0  0  0  0  0  0  0  0  0  0
  129.8954  125.6387   63.3489 H   0  0  0  0  0  0  0  0  0  0  0  0
  129.2196  127.3462   65.0820 H   0  0  0  0  0  0  0  0  0  0  0  0
  125.5556  131.5317   62.5135 H   0  0  0  0  0  0  0  0  0  0  0  0
  125.9657  132.5454   63.9447 H   0  0  0  0  0  0  0  0  0  0  0  0
  128.4412  132.0984   64.8994 H   0  0  0  0  0  0  0  0  0  0  0  0
  130.8049  132.2260   64.1396 H   0  0  0  0  0  0  0  0  0  0  0  0
  129.5368  131.4629   60.0757 H   0  0  0  0  0  0  0  0  0  0  0  0
  127.1743  131.3363   60.8377 H   0  0  0  0  0  0  0  0  0  0  0  0
  126.1080  128.1846   60.1723 H   0  0  0  0  0  0  0  0  0  0  0  0
  124.7135  129.2915   59.9343 H   0  0  0  0  0  0  0  0  0  0  0  0
  126.3875  129.9430   59.9343 H   0  0  0  0  0  0  0  0  0  0  0  0
  127.1808  127.2094   61.2804 H   0  0  0  0  0  0  0  0  0  0  0  0
  1  2  1  0
  2  3  1  0
  3  4  1  0
  3  5  1  0
  5  6  2  0
  6  7  1  0
  7  8  2  0
  8  9  1  0
  9 10  2  0
 10 11  1  0
 10 12  1  0
 12 13  2  0
 13 14  1  0
 14 15  2  0
 14 16  1  0
 16 17  1  0
 17 18  2  0
 18 19  1  0
 19 20  2  0
 20 21  1  0
 21 22  1  0
 21 23  2  0
 23 24  1  0
 24 25  1  0
 25 26  1  0
 26 27  2  0
 27 28  1  0
 28 29  2  0
 29 30  1  0
 30 31  2  0
 30 32  1  0
 29 33  1  0
 33 34  2  0
 23 35  1  0
 35 36  1  0
 36 37  1  0
 35 38  2  0
 16  5  1  0
 38 19  1  0
 13  7  1  0
 34 26  1  0
  1 39  1  0
  1 40  1  0
  1 41  1  0
  2 42  1  0
  2 43  1  0
  3 44  1  6
  4 45  1  0
  4 46  1  0
  4 47  1  0
  8 48  1  0
  9 49  1  0
 12 50  1  0
 18 51  1  0
 20 52  1  0
 25 53  1  0
 25 54  1  0
 27 55  1  0
 28 56  1  0
 33 57  1  0
 34 58  1  0
 37 59  1  0
 37 60  1  0
 37 61  1  0
 38 62  1  0
M  CHG  2  30   1  32  -1
M  END
>  <Binding energies>  (1) 
[-7.63]

>  <Ligand effiencies>  (1) 
[-0.20078947368421052]

>  <Interactions>  (1) 
["H-A:ALA:541:N:4891, V-A:PRO:540:C:4881, V-B:ALA:541:CB:9864, V-B:ASP:366:CG:8184, V-B:TYR:539:CE2:9848, V-A:LEU:475:CG:4257, V-A:ASP:366:CG:3213, V-B:TYR:539:CZ:9849, V-A:ALA:541:CB:4892, H-B:ALA:541:N:9863, V-A:LEU:475:CD1:4258, V-A:GLU:543:CD:4908, H-B:TYR:484:OH:9319, V-B:HIS:456:CE1:9041, V-B:TYR:484:CZ:9318, V-A:ALA:541:CA:4890, V-A:PRO:482:CB:4326, V-B:TYR:539:CD2:9846, V-A:GLU:543:CG:4907, V-A:SER:385:CB:3409, V-B:GLU:543:CD:9880, V-A:ASP:366:CB:3212, V-A:LEU:475:CD2:4259, H-B:ARG:545:NH2:9900, V-A:GLU:543:CB:4906, V-A:PRO:482:CG:4327, V-A:PRO:540:CA:4883, V-A:PRO:540:CB:4885, V-B:PRO:540:C:9853"]

$$$$
ZINC409325101
     RDKit          3D

 69 72  0  0  0  0  0  0  0  0999 V2000
  126.3690  129.5730   64.1380 C   0  0  0  0  0  0  0  0  0  0  0  0
  126.8450  129.3060   65.3650 C   0  0  0  0  0  0  0  0  0  0  0  0
  128.3180  129.2230   65.7240 C   0  0  0  0  0  0  0  0  0  0  0  0
  128.7290  127.8480   66.2410 C   0  0  0  0  0  0  0  0  0  0  0  0
  129.2280  126.8980   65.3470 C   0  0  0  0  0  0  0  0  0  0  0  0
  129.6210  125.6290   65.7820 C   0  0  0  0  0  0  0  0  0  0  0  0
  130.1500  124.6690   64.8050 C   0  0  0  0  0  0  0  0  0  0  0  0
  129.7480  124.5890   63.5880 N   0  0  0  0  0  0  0  0  0  0  0  0
  130.3290  123.6090   62.8060 N   0  0  0  0  0  0  0  0  0  0  0  0
  131.5580  123.8500   62.1730 C   0  0  0  0  0  0  0  0  0  0  0  0
  132.2710  125.2280   62.2760 C   0  0  2  0  0  0  0  0  0  0  0  0
  132.4890  125.8350   60.8720 C   0  0  0  0  0  0  0  0  0  0  0  0
  133.6080  125.1340   63.0610 C   0  0  0  0  0  0  0  0  0  0  0  0
  133.4490  124.7690   64.5480 C   0  0  0  0  0  0  0  0  0  0  0  0
  132.1460  122.9330   61.4850 N   0  0  0  0  0  0  0  0  0  0  0  0
  131.5880  121.6560   61.3690 C   0  0  0  0  0  0  0  0  0  0  0  0
  132.2650  120.7020   60.6070 C   0  0  0  0  0  0  0  0  0  0  0  0
  131.7400  119.4140   60.4820 C   0  0  0  0  0  0  0  0  0  0  0  0
  130.5420  119.0790   61.1190 C   0  0  0  0  0  0  0  0  0  0  0  0
  129.8360  117.3200   60.9450 Br  0  0  0  0  0  0  0  0  0  0  0  0
  129.8620  120.0300   61.8820 C   0  0  0  0  0  0  0  0  0  0  0  0
  130.3860  121.3220   62.0020 C   0  0  0  0  0  0  0  0  0  0  0  0
  129.6760  122.3790   62.8270 C   0  0  0  0  0  0  0  0  0  0  0  0
  128.6300  122.1450   63.4450 O   0  0  0  0  0  0  0  0  0  0  0  0
  129.5040  125.3250   67.1460 C   0  0  0  0  0  0  0  0  0  0  0  0
  129.0070  126.2630   68.0670 C   0  0  0  0  0  0  0  0  0  0  0  0
  128.8930  126.0240   69.4260 O   0  0  0  0  0  0  0  0  0  0  0  0
  127.7960  126.5750   70.1460 C   0  0  0  0  0  0  0  0  0  0  0  0
  128.6090  127.5240   67.6000 C   0  0  0  0  0  0  0  0  0  0  0  0
  128.1290  128.4660   68.4780 O   0  0  0  0  0  0  0  0  0  0  0  0
  129.1180  129.3300   69.0260 C   0  0  0  0  0  0  0  0  0  0  0  0
  129.6570  128.7060   70.3010 C   0  0  0  0  0  0  0  0  0  0  0  0
  128.9750  128.8810   71.5040 C   0  0  0  0  0  0  0  0  0  0  0  0
  129.4730  128.3150   72.6750 C   0  0  0  0  0  0  0  0  0  0  0  0
  130.6630  127.5620   72.6730 C   0  0  0  0  0  0  0  0  0  0  0  0
  131.2050  126.9480   73.9490 C   0  0  0  0  0  0  0  0  0  0  0  0
  132.3440  127.2900   74.3490 O   0  0  0  0  0  0  0  0  0  0  0  0
  130.5000  126.1160   74.5680 O   0  0  0  0  0  0  0  0  0  0  0  0
  131.3330  127.4020   71.4440 C   0  0  0  0  0  0  0  0  0  0  0  0
  130.8390  127.9670   70.2730 C   0  0  0  0  0  0  0  0  0  0  0  0
  125.2833  129.6141   63.9662 H   0  0  0  0  0  0  0  0  0  0  0  0
  127.0648  129.7506   63.3048 H   0  0  0  0  0  0  0  0  0  0  0  0
  126.1141  129.1349   66.1690 H   0  0  0  0  0  0  0  0  0  0  0  0
  128.9110  129.4515   64.8262 H   0  0  0  0  0  0  0  0  0  0  0  0
  128.5009  129.9465   66.5321 H   0  0  0  0  0  0  0  0  0  0  0  0
  129.3134  127.1532   64.2804 H   0  0  0  0  0  0  0  0  0  0  0  0
  130.9382  123.9765   65.1355 H   0  0  0  0  0  0  0  0  0  0  0  0
  131.6120  125.8998   62.8455 H   0  0  0  0  0  0  0  0  0  0  0  0
  132.8593  126.8660   60.9717 H   0  0  0  0  0  0  0  0  0  0  0  0
  133.2267  125.2320   60.3223 H   0  0  0  0  0  0  0  0  0  0  0  0
  131.5362  125.8392   60.3223 H   0  0  0  0  0  0  0  0  0  0  0  0
  134.2339  124.3658   62.5834 H   0  0  0  0  0  0  0  0  0  0  0  0
  134.0605  126.1362   63.0308 H   0  0  0  0  0  0  0  0  0  0  0  0
  133.8112  125.6005   65.1704 H   0  0  0  0  0  0  0  0  0  0  0  0
  132.3877  124.5815   64.7681 H   0  0  0  0  0  0  0  0  0  0  0  0
  134.0345  123.8641   64.7681 H   0  0  0  0  0  0  0  0  0  0  0  0
  133.2089  120.9640   60.1067 H   0  0  0  0  0  0  0  0  0  0  0  0
  132.2707  118.6612   59.8806 H   0  0  0  0  0  0  0  0  0  0  0  0
  128.9205  119.7655   62.3856 H   0  0  0  0  0  0  0  0  0  0  0  0
  129.8081  124.3300   67.5031 H   0  0  0  0  0  0  0  0  0  0  0  0
  127.9822  126.4815   71.2261 H   0  0  0  0  0  0  0  0  0  0  0  0
  127.6821  127.6373   69.8842 H   0  0  0  0  0  0  0  0  0  0  0  0
  126.8758  126.0321   69.8842 H   0  0  0  0  0  0  0  0  0  0  0  0
  129.9367  129.4609   68.3031 H   0  0  0  0  0  0  0  0  0  0  0  0
  128.6761  130.3127   69.2474 H   0  0  0  0  0  0  0  0  0  0  0  0
  128.0438  129.4660   71.5284 H   0  0  0  0  0  0  0  0  0  0  0  0
  128.9267  128.4588   73.6189 H   0  0  0  0  0  0  0  0  0  0  0  0
  132.2651  126.8188   71.4099 H   0  0  0  0  0  0  0  0  0  0  0  0
  131.3806  127.8309   69.3253 H   0  0  0  0  0  0  0  0  0  0  0  0
  1  2  2  0
  2  3  1  0
  3  4  1  0
  4  5  2  0
  5  6  1  0
  6  7  1  0
  7  8  2  0
  8  9  1  0
  9 10  1  0
 10 11  1  0
 11 12  1  0
 11 13  1  0
 13 14  1  0
 10 15  2  0
 15 16  1  0
 16 17  2  0
 17 18  1  0
 18 19  2  0
 19 20  1  0
 19 21  1  0
 21 22  2  0
 22 23  1  0
 23 24  2  0
  6 25  2  0
 25 26  1  0
 26 27  1  0
 27 28  1  0
 26 29  2  0
 29 30  1  0
 30 31  1  0
 31 32  1  0
 32 33  2  0
 33 34  1  0
 34 35  2  0
 35 36  1  0
 36 37  2  0
 36 38  1  0
 35 39  1  0
 39 40  2  0
 29  4  1  0
 40 32  1  0
 23  9  1  0
 22 16  1  0
  1 41  1  0
  1 42  1  0
  2 43  1  0
  3 44  1  0
  3 45  1  0
  5 46  1  0
  7 47  1  0
 11 48  1  1
 12 49  1  0
 12 50  1  0
 12 51  1  0
 13 52  1  0
 13 53  1  0
 14 54  1  0
 14 55  1  0
 14 56  1  0
 17 57  1  0
 18 58  1  0
 21 59  1  0
 25 60  1  0
 28 61  1  0
 28 62  1  0
 28 63  1  0
 31 64  1  0
 31 65  1  0
 33 66  1  0
 34 67  1  0
 39 68  1  0
 40 69  1  0
M  CHG  1  38  -1
M  END
>  <Binding energies>  (1) 
[-7.36]

>  <Ligand effiencies>  (1) 
[-0.184]

>  <Interactions>  (1) 
["V-A:ARG:545:CA:4919, V-A:GLU:543:CA:4904, V-A:GLY:454:CA:4049, V-B:GLU:543:C:9874, V-B:HIS:456:CD2:9039, V-A:GLU:543:C:4902, V-B:GLU:543:CB:9878, H-B:LYS:547:NZ:9923, V-B:ALA:541:CB:9864, V-B:TYR:539:CE2:9848, V-B:GLU:543:CG:9879, V-A:GLY:544:C:4912, V-B:TYR:539:C:9839, V-A:HIS:456:CD2:4068, V-A:ASP:366:CG:3213, H-B:ALA:541:N:9863, V-A:GLU:543:CD:4908, V-B:HIS:456:CE1:9041, V-B:GLU:543:CA:9876, V-A:HIS:456:CE1:4070, V-B:GLY:544:C:9884, V-A:PRO:482:CB:4326, V-B:TYR:539:CD2:9846, V-A:GLU:543:CG:4907, V-A:SER:385:CB:3409, V-B:GLU:543:CD:9880, V-A:ASP:366:CB:3212, H-A:LYS:547:NZ:4951, V-A:LEU:475:CD2:4259, V-A:ARG:545:CZ:4926, V-A:GLU:543:CB:4906, V-A:HIS:456:CG:4066, V-A:PRO:482:CG:4327, V-A:HIS:383:NE2:3394"]

$$$$
ZINC409327703
     RDKit          3D

 51 53  0  0  0  0  0  0  0  0999 V2000
  133.5750  122.2590   61.3500 C   0  0  0  0  0  0  0  0  0  0  0  0
  132.6730  122.6260   62.5430 C   0  0  0  0  0  0  0  0  0  0  0  0
  131.2110  122.9910   62.1570 C   0  0  1  0  0  0  0  0  0  0  0  0
  130.3140  121.7350   62.1190 C   0  0  0  0  0  0  0  0  0  0  0  0
  130.5890  124.0650   63.0920 C   0  0  0  0  0  0  0  0  0  0  0  0
  130.8090  123.9520   64.3570 N   0  0  0  0  0  0  0  0  0  0  0  0
  130.3120  124.8980   65.2580 C   0  0  0  0  0  0  0  0  0  0  0  0
  130.5800  124.7260   66.6160 C   0  0  0  0  0  0  0  0  0  0  0  0
  130.1090  125.6610   67.5400 C   0  0  0  0  0  0  0  0  0  0  0  0
  129.3740  126.7680   67.1070 C   0  0  0  0  0  0  0  0  0  0  0  0
  128.7400  128.0390   68.3740 Br  0  0  0  0  0  0  0  0  0  0  0  0
  129.1050  126.9460   65.7490 C   0  0  0  0  0  0  0  0  0  0  0  0
  129.5740  126.0050   64.8240 C   0  0  0  0  0  0  0  0  0  0  0  0
  129.3000  126.1670   63.3400 C   0  0  0  0  0  0  0  0  0  0  0  0
  128.6740  127.1320   62.8850 O   0  0  0  0  0  0  0  0  0  0  0  0
  129.8190  125.1240   62.5790 N   0  0  0  0  0  0  0  0  0  0  0  0
  129.6170  125.2520   61.2180 N   0  0  0  0  0  0  0  0  0  0  0  0
  128.9370  124.3240   60.6490 C   0  0  0  0  0  0  0  0  0  0  0  0
  128.6510  124.2770   59.2060 C   0  0  0  0  0  0  0  0  0  0  0  0
  127.5430  123.5620   58.7200 C   0  0  0  0  0  0  0  0  0  0  0  0
  127.2560  123.5160   57.3580 C   0  0  0  0  0  0  0  0  0  0  0  0
  125.8890  122.6290   56.7900 Cl  0  0  0  0  0  0  0  0  0  0  0  0
  128.0750  124.1870   56.4560 C   0  0  0  0  0  0  0  0  0  0  0  0
  129.1770  124.9010   56.9160 C   0  0  0  0  0  0  0  0  0  0  0  0
  129.4770  124.9600   58.2880 C   0  0  0  0  0  0  0  0  0  0  0  0
  130.5690  125.6660   58.7780 O   0  0  0  0  0  0  0  0  0  0  0  0
  131.8100  125.0110   59.1000 C   0  0  2  0  0  0  0  0  0  0  0  0
  132.3790  125.7140   60.3480 C   0  0  0  0  0  0  0  0  0  0  0  0
  132.8260  125.1120   57.9240 C   0  0  0  0  0  0  0  0  0  0  0  0
  133.6070  124.1450   57.7700 O   0  0  0  0  0  0  0  0  0  0  0  0
  132.8280  126.1390   57.2060 O   0  0  0  0  0  0  0  0  0  0  0  0
  134.5339  121.8688   61.7218 H   0  0  0  0  0  0  0  0  0  0  0  0
  133.0792  121.4911   60.7380 H   0  0  0  0  0  0  0  0  0  0  0  0
  133.7562  123.1549   60.7380 H   0  0  0  0  0  0  0  0  0  0  0  0
  132.6431  121.7663   63.2285 H   0  0  0  0  0  0  0  0  0  0  0  0
  133.1099  123.5257   63.0009 H   0  0  0  0  0  0  0  0  0  0  0  0
  131.2616  123.4273   61.1485 H   0  0  0  0  0  0  0  0  0  0  0  0
  130.0861  121.4159   63.1468 H   0  0  0  0  0  0  0  0  0  0  0  0
  129.3775  121.9691   61.5916 H   0  0  0  0  0  0  0  0  0  0  0  0
  130.8393  120.9251   61.5916 H   0  0  0  0  0  0  0  0  0  0  0  0
  131.1606  123.8565   66.9580 H   0  0  0  0  0  0  0  0  0  0  0  0
  130.3171  125.5259   68.6117 H   0  0  0  0  0  0  0  0  0  0  0  0
  128.5290  127.8188   65.4079 H   0  0  0  0  0  0  0  0  0  0  0  0
  128.5433  123.5130   61.2793 H   0  0  0  0  0  0  0  0  0  0  0  0
  126.8909  123.0293   59.4279 H   0  0  0  0  0  0  0  0  0  0  0  0
  127.8516  124.1532   55.3795 H   0  0  0  0  0  0  0  0  0  0  0  0
  129.8221  125.4264   56.1964 H   0  0  0  0  0  0  0  0  0  0  0  0
  131.6350  123.9409   59.2853 H   0  0  0  0  0  0  0  0  0  0  0  0
  131.9860  125.2285   61.2535 H   0  0  0  0  0  0  0  0  0  0  0  0
  133.4767  125.6426   60.3406 H   0  0  0  0  0  0  0  0  0  0  0  0
  132.0804  126.7727   60.3406 H   0  0  0  0  0  0  0  0  0  0  0  0
  1  2  1  0
  2  3  1  0
  3  4  1  0
  3  5  1  0
  5  6  2  0
  6  7  1  0
  7  8  2  0
  8  9  1  0
  9 10  2  0
 10 11  1  0
 10 12  1  0
 12 13  2  0
 13 14  1  0
 14 15  2  0
 14 16  1  0
 16 17  1  0
 17 18  2  0
 18 19  1  0
 19 20  2  0
 20 21  1  0
 21 22  1  0
 21 23  2  0
 23 24  1  0
 24 25  2  0
 25 26  1  0
 26 27  1  0
 27 28  1  0
 27 29  1  0
 29 30  2  0
 29 31  1  0
 16  5  1  0
 25 19  1  0
 13  7  1  0
  1 32  1  0
  1 33  1  0
  1 34  1  0
  2 35  1  0
  2 36  1  0
  3 37  1  6
  4 38  1  0
  4 39  1  0
  4 40  1  0
  8 41  1  0
  9 42  1  0
 12 43  1  0
 18 44  1  0
 20 45  1  0
 23 46  1  0
 24 47  1  0
 27 48  1  1
 28 49  1  0
 28 50  1  0
 28 51  1  0
M  CHG  1  31  -1
M  END
>  <Binding energies>  (1) 
[-6.96]

>  <Ligand effiencies>  (1) 
[-0.22451612903225807]

>  <Interactions>  (1) 
["V-A:ILE:369:CG2:3237, V-A:ASP:366:CA:3210, V-B:PRO:540:CA:9855, V-B:GLU:543:CB:9878, V-B:ALA:541:CB:9864, V-B:TYR:539:CE2:9848, H-A:TYR:531:OH:4795, V-A:TYR:484:CE2:4346, V-B:GLU:543:CG:9879, V-A:ASP:366:CG:3213, V-B:TYR:539:CZ:9849, H-B:TYR:539:OH:9850, V-A:TYR:484:CZ:4347, V-B:PRO:540:CB:9857, V-A:GLU:543:CD:4908, V-B:HIS:456:CE1:9041, V-B:PRO:540:N:9856, V-A:HIS:456:CE1:4070, V-A:ILE:369:CD1:3239, V-A:ASP:366:C:3208, V-B:PRO:540:CD:9859, V-B:GLU:543:CD:9880, V-A:ASP:366:CB:3212, V-A:LEU:475:CD2:4259, V-A:GLU:543:CB:4906, V-B:MET:535:CE:9807, V-B:TYR:539:CE1:9847, H-A:TYR:484:OH:4348"]

$$$$
ZINC409335341
     RDKit          3D

 57 59  0  0  0  0  0  0  0  0999 V2000
  133.3280  121.7900   60.9160 C   0  0  0  0  0  0  0  0  0  0  0  0
  133.9200  122.0760   62.3000 C   0  0  0  0  0  0  0  0  0  0  0  0
  134.2990  123.4430   62.3740 O   0  0  0  0  0  0  0  0  0  0  0  0
  133.5640  124.3260   63.0850 C   0  0  0  0  0  0  0  0  0  0  0  0
  133.7920  124.6910   64.2400 O   0  0  0  0  0  0  0  0  0  0  0  0
  132.3620  124.8780   62.3140 C   0  0  0  0  0  0  0  0  0  0  0  0
  132.7750  125.8600   61.3640 O   0  0  0  0  0  0  0  0  0  0  0  0
  131.9650  125.9500   60.2530 C   0  0  0  0  0  0  0  0  0  0  0  0
  130.7070  126.5900   60.3310 C   0  0  0  0  0  0  0  0  0  0  0  0
  130.2130  127.1470   61.6000 C   0  0  0  0  0  0  0  0  0  0  0  0
  128.9840  127.1140   61.9670 N   0  0  0  0  0  0  0  0  0  0  0  0
  128.6830  127.6770   63.1940 N   0  0  0  0  0  0  0  0  0  0  0  0
  128.2280  129.0030   63.2540 C   0  0  0  0  0  0  0  0  0  0  0  0
  127.9150  129.8090   61.9610 C   0  0  1  0  0  0  0  0  0  0  0  0
  126.4220  130.2110   61.8870 C   0  0  0  0  0  0  0  0  0  0  0  0
  128.8340  131.0520   61.8330 C   0  0  0  0  0  0  0  0  0  0  0  0
  128.5070  132.1980   62.8080 C   0  0  0  0  0  0  0  0  0  0  0  0
  128.0510  129.5970   64.3830 N   0  0  0  0  0  0  0  0  0  0  0  0
  128.3100  128.9380   65.5890 C   0  0  0  0  0  0  0  0  0  0  0  0
  128.0890  129.6260   66.7840 C   0  0  0  0  0  0  0  0  0  0  0  0
  128.3440  128.9970   68.0040 C   0  0  0  0  0  0  0  0  0  0  0  0
  128.8220  127.6850   68.0310 C   0  0  0  0  0  0  0  0  0  0  0  0
  129.1690  126.8360   69.6990 Br  0  0  0  0  0  0  0  0  0  0  0  0
  129.0470  126.9930   66.8390 C   0  0  0  0  0  0  0  0  0  0  0  0
  128.7860  127.6230   65.6160 C   0  0  0  0  0  0  0  0  0  0  0  0
  129.0290  126.9070   64.3020 C   0  0  0  0  0  0  0  0  0  0  0  0
  129.4910  125.7610   64.2470 O   0  0  0  0  0  0  0  0  0  0  0  0
  129.9160  126.6600   59.1750 C   0  0  0  0  0  0  0  0  0  0  0  0
  130.3400  126.0920   57.9800 C   0  0  0  0  0  0  0  0  0  0  0  0
  129.2380  126.1970   56.4310 Br  0  0  0  0  0  0  0  0  0  0  0  0
  131.5650  125.4370   57.9190 C   0  0  0  0  0  0  0  0  0  0  0  0
  132.3900  125.3540   59.0460 C   0  0  0  0  0  0  0  0  0  0  0  0
  133.6800  124.6310   58.9410 N   0  0  0  0  0  0  0  0  0  0  0  0
  134.4450  124.6340   59.8990 O   0  0  0  0  0  0  0  0  0  0  0  0
  133.9380  124.0710   57.8790 O   0  0  0  0  0  0  0  0  0  0  0  0
  132.3428  121.3141   61.0298 H   0  0  0  0  0  0  0  0  0  0  0  0
  133.2174  122.7340   60.3623 H   0  0  0  0  0  0  0  0  0  0  0  0
  133.9988  121.1166   60.3623 H   0  0  0  0  0  0  0  0  0  0  0  0
  133.1679  121.8606   63.0732 H   0  0  0  0  0  0  0  0  0  0  0  0
  134.8021  121.4392   62.4627 H   0  0  0  0  0  0  0  0  0  0  0  0
  131.8631  124.0525   61.7852 H   0  0  0  0  0  0  0  0  0  0  0  0
  131.6712  125.3487   63.0290 H   0  0  0  0  0  0  0  0  0  0  0  0
  130.9413  127.6203   62.2749 H   0  0  0  0  0  0  0  0  0  0  0  0
  128.1231  129.1476   61.1070 H   0  0  0  0  0  0  0  0  0  0  0  0
  126.0205  130.3191   62.9054 H   0  0  0  0  0  0  0  0  0  0  0  0
  126.3258  131.1670   61.3515 H   0  0  0  0  0  0  0  0  0  0  0  0
  125.8588  129.4325   61.3515 H   0  0  0  0  0  0  0  0  0  0  0  0
  129.8704  130.7320   62.0159 H   0  0  0  0  0  0  0  0  0  0  0  0
  128.6763  131.4516   60.8203 H   0  0  0  0  0  0  0  0  0  0  0  0
  128.6093  131.8394   63.8429 H   0  0  0  0  0  0  0  0  0  0  0  0
  129.2027  133.0331   62.6388 H   0  0  0  0  0  0  0  0  0  0  0  0
  127.4754  132.5402   62.6388 H   0  0  0  0  0  0  0  0  0  0  0  0
  127.7152  130.6603   66.7641 H   0  0  0  0  0  0  0  0  0  0  0  0
  128.1680  129.5362   68.9465 H   0  0  0  0  0  0  0  0  0  0  0  0
  129.4264  125.9607   66.8607 H   0  0  0  0  0  0  0  0  0  0  0  0
  128.9438  127.1731   59.2151 H   0  0  0  0  0  0  0  0  0  0  0  0
  131.8894  124.9785   56.9732 H   0  0  0  0  0  0  0  0  0  0  0  0
  1  2  1  0
  2  3  1  0
  3  4  1  0
  4  5  2  0
  4  6  1  0
  6  7  1  0
  7  8  1  0
  8  9  2  0
  9 10  1  0
 10 11  2  0
 11 12  1  0
 12 13  1  0
 13 14  1  0
 14 15  1  0
 14 16  1  0
 16 17  1  0
 13 18  2  0
 18 19  1  0
 19 20  2  0
 20 21  1  0
 21 22  2  0
 22 23  1  0
 22 24  1  0
 24 25  2  0
 25 26  1  0
 26 27  2  0
  9 28  1  0
 28 29  2  0
 29 30  1  0
 29 31  1  0
 31 32  2  0
 32 33  1  0
 33 34  2  0
 33 35  1  0
 32  8  1  0
 26 12  1  0
 25 19  1  0
  1 36  1  0
  1 37  1  0
  1 38  1  0
  2 39  1  0
  2 40  1  0
  6 41  1  0
  6 42  1  0
 10 43  1  0
 14 44  1  6
 15 45  1  0
 15 46  1  0
 15 47  1  0
 16 48  1  0
 16 49  1  0
 17 50  1  0
 17 51  1  0
 17 52  1  0
 20 53  1  0
 21 54  1  0
 24 55  1  0
 28 56  1  0
 31 57  1  0
M  CHG  2  33   1  35  -1
M  END
>  <Binding energies>  (1) 
[-7.38]

>  <Ligand effiencies>  (1) 
[-0.21085714285714285]

>  <Interactions>  (1) 
["V-A:ILE:369:CG2:3237, V-A:ASP:366:CA:3210, V-A:GLY:454:CA:4049, V-A:ILE:369:CB:3236, V-B:GLU:543:CB:9878, V-B:TYR:539:CE2:9848, V-B:GLU:543:CG:9879, V-A:ASP:366:CG:3213, V-B:TYR:484:CE2:9317, V-B:TYR:539:CZ:9849, H-A:ASN:370:N:3244, H-B:TYR:539:OH:9850, V-A:ALA:541:CB:4892, V-A:GLU:543:CD:4908, V-B:HIS:456:CE1:9041, H-A:GLY:454:N:4050, V-A:ILE:369:CD1:3239, V-B:TYR:484:CZ:9318, V-A:HIS:456:CE1:4070, V-A:ASP:366:C:3208, V-A:GLU:543:CG:4907, V-B:GLU:543:CD:9880, V-A:ASP:366:CB:3212, V-A:LEU:475:CD2:4259, H-A:ARG:545:NH2:4928, V-A:ARG:545:CZ:4926, V-A:GLU:543:CB:4906, H-A:ARG:545:NE:4924, H-A:TYR:484:OH:4348"]

$$$$
ZINC409371136-again1
     RDKit          3D

 62 65  0  0  0  0  0  0  0  0999 V2000
  126.6470  129.3500   64.2670 C   0  0  0  0  0  0  0  0  0  0  0  0
  127.9820  129.2280   64.1950 C   0  0  0  0  0  0  0  0  0  0  0  0
  128.7140  127.9800   63.7380 C   0  0  0  0  0  0  0  0  0  0  0  0
  129.1090  127.0590   64.8880 C   0  0  0  0  0  0  0  0  0  0  0  0
  128.7100  127.3840   66.1870 C   0  0  0  0  0  0  0  0  0  0  0  0
  129.0740  126.5840   67.2680 C   0  0  0  0  0  0  0  0  0  0  0  0
  128.6150  126.9480   68.6260 C   0  0  0  0  0  0  0  0  0  0  0  0
  129.3150  127.3910   69.7200 C   0  0  0  0  0  0  0  0  0  0  0  0
  128.5680  127.5280   70.9850 C   0  0  0  0  0  0  0  0  0  0  0  0
  127.3320  127.5400   71.0340 O   0  0  0  0  0  0  0  0  0  0  0  0
  129.3620  127.6370   72.1140 N   0  0  0  0  0  0  0  0  0  0  0  0
  128.6620  127.6150   73.4270 C   0  0  0  0  0  0  0  0  0  0  0  0
  128.4780  129.0010   74.0170 C   0  0  0  0  0  0  0  0  0  0  0  0
  127.5030  129.5830   74.8130 C   0  0  0  0  0  0  0  0  0  0  0  0
  127.8740  130.9140   75.0060 C   0  0  0  0  0  0  0  0  0  0  0  0
  129.0580  131.0900   74.3140 C   0  0  0  0  0  0  0  0  0  0  0  0
  129.4240  129.9300   73.7120 O   0  0  0  0  0  0  0  0  0  0  0  0
  130.7530  127.6620   72.1150 C   0  0  0  0  0  0  0  0  0  0  0  0
  131.3510  127.5280   73.1850 O   0  0  0  0  0  0  0  0  0  0  0  0
  131.3870  127.8680   70.8770 N   0  0  0  0  0  0  0  0  0  0  0  0
  130.7520  127.7130   69.7760 C   0  0  0  0  0  0  0  0  0  0  0  0
  131.4010  127.9970   68.7560 O   0  0  0  0  0  0  0  0  0  0  0  0
  129.8330  125.4340   67.0380 C   0  0  0  0  0  0  0  0  0  0  0  0
  130.2510  125.0860   65.7440 C   0  0  0  0  0  0  0  0  0  0  0  0
  131.0380  123.9840   65.4610 O   0  0  0  0  0  0  0  0  0  0  0  0
  130.5630  122.9910   64.5580 C   0  0  0  0  0  0  0  0  0  0  0  0
  129.2440  122.4300   65.0990 C   0  0  0  0  0  0  0  0  0  0  0  0
  129.8670  125.8990   64.6650 C   0  0  0  0  0  0  0  0  0  0  0  0
  130.2660  125.5930   63.3840 O   0  0  0  0  0  0  0  0  0  0  0  0
  131.3210  126.3990   62.8660 C   0  0  0  0  0  0  0  0  0  0  0  0
  132.2060  125.5390   61.9650 C   0  0  0  0  0  0  0  0  0  0  0  0
  131.9360  125.5170   60.5910 C   0  0  0  0  0  0  0  0  0  0  0  0
  132.7160  124.7530   59.7260 C   0  0  0  0  0  0  0  0  0  0  0  0
  133.7760  124.0000   60.2240 C   0  0  0  0  0  0  0  0  0  0  0  0
  134.0570  124.0110   61.5890 C   0  0  0  0  0  0  0  0  0  0  0  0
  133.2800  124.7740   62.4680 C   0  0  0  0  0  0  0  0  0  0  0  0
  133.6190  124.7470   63.8890 C   0  0  0  0  0  0  0  0  0  0  0  0
  133.8870  124.7270   65.0140 N   0  0  0  0  0  0  0  0  0  0  0  0
  126.1987  130.2940   64.6104 H   0  0  0  0  0  0  0  0  0  0  0  0
  126.0014  128.5060   63.9826 H   0  0  0  0  0  0  0  0  0  0  0  0
  128.5897  130.0965   64.4889 H   0  0  0  0  0  0  0  0  0  0  0  0
  128.0591  127.4220   63.0526 H   0  0  0  0  0  0  0  0  0  0  0  0
  129.6428  128.3073   63.2480 H   0  0  0  0  0  0  0  0  0  0  0  0
  128.1004  128.2834   66.3585 H   0  0  0  0  0  0  0  0  0  0  0  0
  127.5314  126.8467   68.7858 H   0  0  0  0  0  0  0  0  0  0  0  0
  127.6714  127.1568   73.2899 H   0  0  0  0  0  0  0  0  0  0  0  0
  129.2850  127.0371   74.1255 H   0  0  0  0  0  0  0  0  0  0  0  0
  126.6067  129.0888   75.2160 H   0  0  0  0  0  0  0  0  0  0  0  0
  127.3328  131.6718   75.5916 H   0  0  0  0  0  0  0  0  0  0  0  0
  129.6214  132.0332   74.2593 H   0  0  0  0  0  0  0  0  0  0  0  0
  130.1080  124.7897   67.8861 H   0  0  0  0  0  0  0  0  0  0  0  0
  130.3965  123.4398   63.5676 H   0  0  0  0  0  0  0  0  0  0  0  0
  131.3041  122.1837   64.4630 H   0  0  0  0  0  0  0  0  0  0  0  0
  129.2653  122.4391   66.1988 H   0  0  0  0  0  0  0  0  0  0  0  0
  128.4083  123.0506   64.7433 H   0  0  0  0  0  0  0  0  0  0  0  0
  129.1113  121.3976   64.7433 H   0  0  0  0  0  0  0  0  0  0  0  0
  130.8981  127.2303   62.2829 H   0  0  0  0  0  0  0  0  0  0  0  0
  131.9186  126.8072   63.6944 H   0  0  0  0  0  0  0  0  0  0  0  0
  131.0996  126.1089   60.1909 H   0  0  0  0  0  0  0  0  0  0  0  0
  132.4943  124.7446   58.6486 H   0  0  0  0  0  0  0  0  0  0  0  0
  134.3914  123.3967   59.5404 H   0  0  0  0  0  0  0  0  0  0  0  0
  134.8959  123.4155   61.9784 H   0  0  0  0  0  0  0  0  0  0  0  0
  1  2  2  0
  2  3  1  0
  3  4  1  0
  4  5  2  0
  5  6  1  0
  6  7  1  0
  7  8  2  0
  8  9  1  0
  9 10  2  0
  9 11  1  0
 11 12  1  0
 12 13  1  0
 13 14  2  0
 14 15  1  0
 15 16  2  0
 16 17  1  0
 11 18  1  0
 18 19  2  0
 18 20  1  0
 20 21  2  0
 21 22  1  0
  6 23  2  0
 23 24  1  0
 24 25  1  0
 25 26  1  0
 26 27  1  0
 24 28  2  0
 28 29  1  0
 29 30  1  0
 30 31  1  0
 31 32  2  0
 32 33  1  0
 33 34  2  0
 34 35  1  0
 35 36  2  0
 36 37  1  0
 37 38  3  0
 28  4  1  0
 36 31  1  0
 21  8  1  0
 17 13  1  0
  1 39  1  0
  1 40  1  0
  2 41  1  0
  3 42  1  0
  3 43  1  0
  5 44  1  0
  7 45  1  0
 12 46  1  0
 12 47  1  0
 14 48  1  0
 15 49  1  0
 16 50  1  0
 23 51  1  0
 26 52  1  0
 26 53  1  0
 27 54  1  0
 27 55  1  0
 27 56  1  0
 30 57  1  0
 30 58  1  0
 32 59  1  0
 33 60  1  0
 34 61  1  0
 35 62  1  0
M  CHG  1  22  -1
M  END
>  <Binding energies>  (1) 
[-7.51]

>  <Ligand effiencies>  (1) 
[-0.1976315789473684]

>  <Interactions>  (1) 
["V-A:ILE:369:CG2:3237, V-B:HIS:456:CD2:9039, V-A:GLU:543:C:4902, V-B:GLU:543:CB:9878, V-B:ALA:541:CB:9864, V-A:TYR:484:CE2:4346, V-B:GLU:543:CG:9879, V-A:GLY:544:C:4912, V-A:ASP:366:CG:3213, H-A:ARG:545:N:4920, V-A:HIS:456:CD2:4068, H-B:HIS:456:ND1:9038, V-A:GLU:543:CD:4908, V-A:TYR:484:CZ:4347, V-B:HIS:456:CE1:9041, H-A:GLY:454:N:4050, V-B:GLU:543:CA:9876, V-A:HIS:456:CE1:4070, V-A:ILE:369:CD1:3239, V-B:GLU:543:CD:9880, V-A:ASP:366:CB:3212, H-A:LYS:547:NZ:4951, H-A:ARG:545:NH2:4928, V-A:ARG:545:CZ:4926, V-A:LEU:475:CD2:4259, V-A:GLU:543:CB:4906, V-A:LYS:547:CE:4950, H-A:ARG:545:NE:4924, H-A:TYR:484:OH:4348"]

$$$$
ZINC409378483
     RDKit          3D

 52 54  0  0  0  0  0  0  0  0999 V2000
  134.3430  122.7580   61.0160 O   0  0  0  0  0  0  0  0  0  0  0  0
  133.2480  123.2640   61.2770 C   0  0  0  0  0  0  0  0  0  0  0  0
  132.6070  123.0980   62.4670 O   0  0  0  0  0  0  0  0  0  0  0  0
  132.4330  124.1690   63.4160 C   0  0  2  0  0  0  0  0  0  0  0  0
  133.8070  124.7190   63.9090 C   0  0  0  0  0  0  0  0  0  0  0  0
  133.9360  124.8510   65.1460 O   0  0  0  0  0  0  0  0  0  0  0  0
  134.7060  124.9890   63.0780 O   0  0  0  0  0  0  0  0  0  0  0  0
  131.5430  123.6910   64.6060 C   0  0  2  0  0  0  0  0  0  0  0  0
  130.8820  122.4680   64.2240 O   0  0  0  0  0  0  0  0  0  0  0  0
  129.5250  122.3340   64.1260 C   0  0  0  0  0  0  0  0  0  0  0  0
  128.7940  122.1070   65.0940 O   0  0  0  0  0  0  0  0  0  0  0  0
  129.0200  122.4840   62.7220 C   0  0  0  0  0  0  0  0  0  0  0  0
  128.0430  123.4360   62.3840 C   0  0  0  0  0  0  0  0  0  0  0  0
  127.5940  123.5510   61.0710 C   0  0  0  0  0  0  0  0  0  0  0  0
  128.1170  122.7190   60.0850 C   0  0  0  0  0  0  0  0  0  0  0  0
  127.5610  122.8630   58.4580 Cl  0  0  0  0  0  0  0  0  0  0  0  0
  129.0860  121.7710   60.4030 C   0  0  0  0  0  0  0  0  0  0  0  0
  129.5360  121.6540   61.7150 C   0  0  0  0  0  0  0  0  0  0  0  0
  130.5240  124.7890   65.0180 C   0  0  0  0  0  0  0  0  0  0  0  0
  129.8930  125.4120   64.1610 O   0  0  0  0  0  0  0  0  0  0  0  0
  130.4100  124.9890   66.3490 N   0  0  0  0  0  0  0  0  0  0  0  0
  129.6260  125.9290   67.0450 C   0  0  0  0  0  0  0  0  0  0  0  0
  129.4910  125.7240   68.4200 C   0  0  0  0  0  0  0  0  0  0  0  0
  128.7440  126.6060   69.1960 C   0  0  0  0  0  0  0  0  0  0  0  0
  128.1290  127.7080   68.6050 C   0  0  0  0  0  0  0  0  0  0  0  0
  128.2590  127.9490   67.2290 C   0  0  0  0  0  0  0  0  0  0  0  0
  127.6130  129.1300   66.6030 N   0  0  0  0  0  0  0  0  0  0  0  0
  126.3870  129.1670   66.5410 O   0  0  0  0  0  0  0  0  0  0  0  0
  128.3260  130.0300   66.1710 O   0  0  0  0  0  0  0  0  0  0  0  0
  129.0160  127.0510   66.4590 C   0  0  0  0  0  0  0  0  0  0  0  0
  132.4900  124.1360   60.3190 C   0  0  0  0  0  0  0  0  0  0  0  0
  133.0920  124.6640   59.1650 C   0  0  0  0  0  0  0  0  0  0  0  0
  132.3640  125.4730   58.2960 C   0  0  0  0  0  0  0  0  0  0  0  0
  131.0300  125.7610   58.5730 C   0  0  0  0  0  0  0  0  0  0  0  0
  130.1280  126.7640   57.4950 Cl  0  0  0  0  0  0  0  0  0  0  0  0
  130.4190  125.2450   59.7130 C   0  0  0  0  0  0  0  0  0  0  0  0
  131.1460  124.4360   60.5820 C   0  0  0  0  0  0  0  0  0  0  0  0
  131.9177  125.0012   62.9142 H   0  0  0  0  0  0  0  0  0  0  0  0
  132.1726  123.5005   65.4877 H   0  0  0  0  0  0  0  0  0  0  0  0
  127.6301  124.0949   63.1621 H   0  0  0  0  0  0  0  0  0  0  0  0
  126.8280  124.2973   60.8135 H   0  0  0  0  0  0  0  0  0  0  0  0
  129.4949  121.1162   59.6194 H   0  0  0  0  0  0  0  0  0  0  0  0
  130.3021  120.9051   61.9644 H   0  0  0  0  0  0  0  0  0  0  0  0
  130.9240  124.3550   66.9420 H   0  0  0  0  0  0  0  0  0  0  0  0
  129.9786  124.8590   68.8933 H   0  0  0  0  0  0  0  0  0  0  0  0
  128.6391  126.4328   70.2772 H   0  0  0  0  0  0  0  0  0  0  0  0
  127.5351  128.3965   69.2241 H   0  0  0  0  0  0  0  0  0  0  0  0
  129.1333  127.2289   65.3798 H   0  0  0  0  0  0  0  0  0  0  0  0
  134.1458  124.4369   58.9461 H   0  0  0  0  0  0  0  0  0  0  0  0
  132.8412  125.8832   57.3938 H   0  0  0  0  0  0  0  0  0  0  0  0
  129.3649  125.4760   59.9263 H   0  0  0  0  0  0  0  0  0  0  0  0
  130.6621  124.0290   61.4821 H   0  0  0  0  0  0  0  0  0  0  0  0
  1  2  2  0
  2  3  1  0
  3  4  1  0
  4  5  1  0
  5  6  2  0
  5  7  1  0
  4  8  1  0
  8  9  1  0
  9 10  1  0
 10 11  2  0
 10 12  1  0
 12 13  2  0
 13 14  1  0
 14 15  2  0
 15 16  1  0
 15 17  1  0
 17 18  2  0
  8 19  1  0
 19 20  2  0
 19 21  1  0
 21 22  1  0
 22 23  2  0
 23 24  1  0
 24 25  2  0
 25 26  1  0
 26 27  1  0
 27 28  2  0
 27 29  1  0
 26 30  2  0
  2 31  1  0
 31 32  2  0
 32 33  1  0
 33 34  2  0
 34 35  1  0
 34 36  1  0
 36 37  2  0
 18 12  1  0
 30 22  1  0
 37 31  1  0
  4 38  1  6
  8 39  1  1
 13 40  1  0
 14 41  1  0
 17 42  1  0
 18 43  1  0
 21 44  1  0
 23 45  1  0
 24 46  1  0
 25 47  1  0
 30 48  1  0
 32 49  1  0
 33 50  1  0
 36 51  1  0
 37 52  1  0
M  CHG  3   7  -1  27   1  29  -1
M  END
>  <Binding energies>  (1) 
[-7.98]

>  <Ligand effiencies>  (1) 
[-0.21000000000000002]

>  <Interactions>  (1) 
["V-A:ASP:366:CA:3210, V-B:PRO:540:CA:9855, V-A:GLY:454:CA:4049, V-B:GLU:543:C:9874, V-B:GLU:543:CB:9878, V-B:ALA:541:CB:9864, H-A:ARG:545:NH1:4927, V-B:TYR:539:CE2:9848, V-A:TYR:484:CE2:4346, V-B:GLU:543:CG:9879, V-B:TYR:539:C:9839, V-A:ASP:366:CG:3213, V-B:TYR:539:CZ:9849, V-A:TYR:484:CZ:4347, V-A:GLU:543:CD:4908, H-B:TYR:484:OH:9319, V-B:GLU:543:CA:9876, H-A:GLY:454:N:4050, V-B:HIS:456:CE1:9041, V-A:GLY:453:C:4042, V-B:PRO:540:N:9856, V-A:HIS:456:CE1:4070, V-B:TYR:484:CZ:9318, V-B:TYR:539:CD2:9846, V-B:GLU:543:CD:9880, V-A:ASP:366:CB:3212, V-A:LEU:475:CD2:4259, H-A:ARG:545:NH2:4928, V-A:ARG:545:CZ:4926, V-A:GLY:453:CA:4044, H-A:ARG:545:NE:4924, H-A:TYR:484:OH:4348"]

$$$$
ZINC409396348
     RDKit          3D

 67 71  0  0  0  0  0  0  0  0999 V2000
  133.0070  126.5980   74.1780 C   0  0  0  0  0  0  0  0  0  0  0  0
  131.4880  126.7290   74.3160 C   0  0  0  0  0  0  0  0  0  0  0  0
  131.0540  127.8390   73.5370 O   0  0  0  0  0  0  0  0  0  0  0  0
  130.0720  127.6640   72.5780 C   0  0  0  0  0  0  0  0  0  0  0  0
  130.3330  127.5310   71.2020 C   0  0  0  0  0  0  0  0  0  0  0  0
  129.3000  127.3410   70.2750 C   0  0  0  0  0  0  0  0  0  0  0  0
  129.6300  127.2000   68.8490 C   0  0  0  0  0  0  0  0  0  0  0  0
  129.5570  126.1000   68.2120 N   0  0  0  0  0  0  0  0  0  0  0  0
  129.9170  126.2210   66.9200 N   0  0  0  0  0  0  0  0  0  0  0  0
  129.8570  125.1920   66.0480 C   0  0  0  0  0  0  0  0  0  0  0  0
  129.4750  124.0550   66.3400 O   0  0  0  0  0  0  0  0  0  0  0  0
  130.3040  125.5100   64.7060 C   0  0  0  0  0  0  0  0  0  0  0  0
  131.3580  124.8740   64.0790 N   0  0  0  0  0  0  0  0  0  0  0  0
  131.5860  125.3910   62.8240 C   0  0  0  0  0  0  0  0  0  0  0  0
  132.5180  125.0470   61.8370 C   0  0  0  0  0  0  0  0  0  0  0  0
  133.9010  123.5010   62.1140 I   0  0  0  0  0  0  0  0  0  0  0  0
  132.4870  125.7790   60.6500 C   0  0  0  0  0  0  0  0  0  0  0  0
  131.5740  126.8090   60.4490 C   0  0  0  0  0  0  0  0  0  0  0  0
  130.6480  127.1540   61.4340 C   0  0  0  0  0  0  0  0  0  0  0  0
  130.6420  126.4410   62.6460 C   0  0  0  0  0  0  0  0  0  0  0  0
  129.8550  126.5200   63.8480 C   0  0  0  0  0  0  0  0  0  0  0  0
  128.7520  127.4950   64.0740 C   0  0  0  0  0  0  0  0  0  0  0  0
  128.7320  128.2170   65.2720 C   0  0  0  0  0  0  0  0  0  0  0  0
  127.7000  129.1170   65.5340 C   0  0  0  0  0  0  0  0  0  0  0  0
  126.6770  129.2950   64.6030 C   0  0  0  0  0  0  0  0  0  0  0  0
  126.6850  128.5700   63.4110 C   0  0  0  0  0  0  0  0  0  0  0  0
  127.7160  127.6670   63.1430 C   0  0  0  0  0  0  0  0  0  0  0  0
  127.6840  126.7790   61.6580 Cl  0  0  0  0  0  0  0  0  0  0  0  0
  127.9810  127.2880   70.7480 C   0  0  0  0  0  0  0  0  0  0  0  0
  127.7060  127.4220   72.1060 C   0  0  0  0  0  0  0  0  0  0  0  0
  128.7420  127.6160   73.0210 C   0  0  0  0  0  0  0  0  0  0  0  0
  128.4390  127.7160   74.3620 O   0  0  0  0  0  0  0  0  0  0  0  0
  127.3760  128.4770   74.7700 C   0  0  0  0  0  0  0  0  0  0  0  0
  126.3140  128.0080   75.1960 O   0  0  0  0  0  0  0  0  0  0  0  0
  127.6230  129.9520   74.6330 C   0  0  0  0  0  0  0  0  0  0  0  0
  126.6630  130.9050   75.0060 C   0  0  0  0  0  0  0  0  0  0  0  0
  126.9220  132.2680   74.8660 C   0  0  0  0  0  0  0  0  0  0  0  0
  128.1430  132.6960   74.3520 C   0  0  0  0  0  0  0  0  0  0  0  0
  129.1200  131.7750   73.9710 C   0  0  0  0  0  0  0  0  0  0  0  0
  130.2990  132.2940   73.4730 O   0  0  0  0  0  0  0  0  0  0  0  0
  130.2600  133.4880   72.6970 C   0  0  0  0  0  0  0  0  0  0  0  0
  128.8490  130.4030   74.1160 C   0  0  0  0  0  0  0  0  0  0  0  0
  133.4640  126.5586   75.1778 H   0  0  0  0  0  0  0  0  0  0  0  0
  133.2471  125.6758   73.6285 H   0  0  0  0  0  0  0  0  0  0  0  0
  133.4014  127.4655   73.6285 H   0  0  0  0  0  0  0  0  0  0  0  0
  131.0027  125.8104   73.9545 H   0  0  0  0  0  0  0  0  0  0  0  0
  131.2190  126.8831   75.3714 H   0  0  0  0  0  0  0  0  0  0  0  0
  131.3726  127.5773   70.8456 H   0  0  0  0  0  0  0  0  0  0  0  0
  129.9586  128.0957   68.3015 H   0  0  0  0  0  0  0  0  0  0  0  0
  130.2480  127.1350   66.6450 H   0  0  0  0  0  0  0  0  0  0  0  0
  131.8650  124.1200   64.5190 H   0  0  0  0  0  0  0  0  0  0  0  0
  133.2035  125.5353   59.8518 H   0  0  0  0  0  0  0  0  0  0  0  0
  131.5822  127.3608   59.4975 H   0  0  0  0  0  0  0  0  0  0  0  0
  129.9326  127.9723   61.2648 H   0  0  0  0  0  0  0  0  0  0  0  0
  129.5343  128.0740   66.0108 H   0  0  0  0  0  0  0  0  0  0  0  0
  127.6926  129.6867   66.4750 H   0  0  0  0  0  0  0  0  0  0  0  0
  125.8640  130.0069   64.8084 H   0  0  0  0  0  0  0  0  0  0  0  0
  125.8758  128.7103   62.6792 H   0  0  0  0  0  0  0  0  0  0  0  0
  127.1543  127.1388   70.0379 H   0  0  0  0  0  0  0  0  0  0  0  0
  126.6657  127.3747   72.4602 H   0  0  0  0  0  0  0  0  0  0  0  0
  125.6963  130.5735   75.4130 H   0  0  0  0  0  0  0  0  0  0  0  0
  126.1612  133.0054   75.1618 H   0  0  0  0  0  0  0  0  0  0  0  0
  128.3401  133.7729   74.2449 H   0  0  0  0  0  0  0  0  0  0  0  0
  130.2315  134.3600   73.3670 H   0  0  0  0  0  0  0  0  0  0  0  0
  131.1568  133.5423   72.0624 H   0  0  0  0  0  0  0  0  0  0  0  0
  129.3615  133.4837   72.0624 H   0  0  0  0  0  0  0  0  0  0  0  0
  129.6119  129.6683   73.8188 H   0  0  0  0  0  0  0  0  0  0  0  0
  1  2  1  0
  2  3  1  0
  3  4  1  0
  4  5  2  0
  5  6  1  0
  6  7  1  0
  7  8  2  0
  8  9  1  0
  9 10  1  0
 10 11  2  0
 10 12  1  0
 12 13  1  0
 13 14  1  0
 14 15  2  0
 15 16  1  0
 15 17  1  0
 17 18  2  0
 18 19  1  0
 19 20  2  0
 20 21  1  0
 21 22  1  0
 22 23  2  0
 23 24  1  0
 24 25  2  0
 25 26  1  0
 26 27  2  0
 27 28  1  0
  6 29  2  0
 29 30  1  0
 30 31  2  0
 31 32  1  0
 32 33  1  0
 33 34  2  0
 33 35  1  0
 35 36  2  0
 36 37  1  0
 37 38  2  0
 38 39  1  0
 39 40  1  0
 40 41  1  0
 39 42  2  0
 31  4  1  0
 42 35  1  0
 21 12  2  0
 27 22  1  0
 20 14  1  0
  1 43  1  0
  1 44  1  0
  1 45  1  0
  2 46  1  0
  2 47  1  0
  5 48  1  0
  7 49  1  0
  9 50  1  0
 13 51  1  0
 17 52  1  0
 18 53  1  0
 19 54  1  0
 23 55  1  0
 24 56  1  0
 25 57  1  0
 26 58  1  0
 29 59  1  0
 30 60  1  0
 36 61  1  0
 37 62  1  0
 38 63  1  0
 41 64  1  0
 41 65  1  0
 41 66  1  0
 42 67  1  0
M  END
>  <Binding energies>  (1) 
[-9.58]

>  <Ligand effiencies>  (1) 
[-0.21772727272727274]

>  <Interactions>  (1) 
["V-B:HIS:456:CD2:9039, H-A:GLU:543:OE2:4910, V-A:GLU:543:C:4902, V-B:GLU:543:CB:9878, H-B:LYS:547:NZ:9923, V-B:HIS:456:CB:9036, V-A:GLY:544:CA:4914, V-B:GLU:543:CG:9879, V-A:HIS:456:CD2:4068, V-A:ASP:366:CG:3213, V-A:HIS:456:CB:4065, V-B:TYR:484:CB:9312, V-A:GLU:543:CD:4908, V-B:HIS:456:CE1:9041, V-A:HIS:456:CE1:4070, V-A:ILE:369:CD1:3239, V-B:GLY:544:C:9884, V-A:GLU:543:CG:4907, V-B:GLU:543:CD:9880, V-B:HIS:456:CG:9037, V-A:ASP:366:CB:3212, H-A:LYS:547:NZ:4951, H-A:GLU:543:OE1:4909, V-A:HIS:456:CG:4066, V-A:GLU:543:CB:4906, V-B:ASP:473:CB:9210, V-A:LYS:547:CE:4950, V-B:ASP:473:CG:9211, H-A:TYR:484:OH:4348"]

$$$$
ZINC409399635
     RDKit          3D

 51 53  0  0  0  0  0  0  0  0999 V2000
  132.3230  126.5920   74.3130 C   0  0  0  0  0  0  0  0  0  0  0  0
  131.0270  127.1390   74.1160 O   0  0  0  0  0  0  0  0  0  0  0  0
  130.1240  126.5030   73.3370 C   0  0  0  0  0  0  0  0  0  0  0  0
  129.4920  125.4900   73.6480 O   0  0  0  0  0  0  0  0  0  0  0  0
  129.9820  127.1780   72.0530 C   0  0  0  0  0  0  0  0  0  0  0  0
  130.5920  128.2980   71.5000 C   0  0  0  0  0  0  0  0  0  0  0  0
  130.0390  128.4670   70.2290 C   0  0  0  0  0  0  0  0  0  0  0  0
  129.1210  127.4440   70.0490 C   0  0  0  0  0  0  0  0  0  0  0  0
  128.1770  127.0630   68.9250 C   0  0  0  0  0  0  0  0  0  0  0  0
  128.8840  126.6920   67.6900 N   0  0  0  0  0  0  0  0  0  0  0  0
  128.7660  127.3960   66.5410 C   0  0  0  0  0  0  0  0  0  0  0  0
  128.3850  128.5560   66.3890 O   0  0  0  0  0  0  0  0  0  0  0  0
  129.2540  126.5840   65.5990 N   0  0  0  0  0  0  0  0  0  0  0  0
  129.7170  125.4390   66.1140 C   0  0  0  0  0  0  0  0  0  0  0  0
  130.3250  124.3840   65.5220 C   0  0  0  0  0  0  0  0  0  0  0  0
  130.6270  124.1970   64.0850 C   0  0  0  0  0  0  0  0  0  0  0  0
  129.6410  123.9430   63.1260 C   0  0  0  0  0  0  0  0  0  0  0  0
  129.9730  123.7900   61.7790 C   0  0  0  0  0  0  0  0  0  0  0  0
  128.4430  123.2200   60.4660 I   0  0  0  0  0  0  0  0  0  0  0  0
  131.3030  123.9440   61.3540 C   0  0  0  0  0  0  0  0  0  0  0  0
  131.6230  123.8400   60.0140 O   0  0  0  0  0  0  0  0  0  0  0  0
  131.7280  125.0340   59.2000 C   0  0  0  0  0  0  0  0  0  0  0  0
  133.0830  124.8670   58.4830 C   0  0  0  0  0  0  0  0  0  0  0  0
  130.6060  125.1750   58.1420 C   0  0  0  0  0  0  0  0  0  0  0  0
  131.7650  126.3210   60.0530 C   0  0  0  0  0  0  0  0  0  0  0  0
  132.3030  124.0940   62.3280 C   0  0  0  0  0  0  0  0  0  0  0  0
  134.3460  123.9800   61.8670 I   0  0  0  0  0  0  0  0  0  0  0  0
  131.9590  124.2460   63.6710 C   0  0  0  0  0  0  0  0  0  0  0  0
  129.4570  125.4820   67.5190 C   0  0  0  0  0  0  0  0  0  0  0  0
  129.6710  124.6240   68.3780 O   0  0  0  0  0  0  0  0  0  0  0  0
  129.0890  126.6670   71.1650 O   0  0  0  0  0  0  0  0  0  0  0  0
  132.5250  126.5067   75.3909 H   0  0  0  0  0  0  0  0  0  0  0  0
  132.3746  125.5954   73.8503 H   0  0  0  0  0  0  0  0  0  0  0  0
  133.0730  127.2503   73.8503 H   0  0  0  0  0  0  0  0  0  0  0  0
  131.3604  128.9282   71.9716 H   0  0  0  0  0  0  0  0  0  0  0  0
  130.2849  129.2606   69.5081 H   0  0  0  0  0  0  0  0  0  0  0  0
  127.5678  126.2075   69.2521 H   0  0  0  0  0  0  0  0  0  0  0  0
  127.5562  127.9429   68.7004 H   0  0  0  0  0  0  0  0  0  0  0  0
  129.2960  126.8080   64.6170 H   0  0  0  0  0  0  0  0  0  0  0  0
  130.6320  123.5661   66.1904 H   0  0  0  0  0  0  0  0  0  0  0  0
  128.5892  123.8627   63.4378 H   0  0  0  0  0  0  0  0  0  0  0  0
  133.8838  124.7683   59.2307 H   0  0  0  0  0  0  0  0  0  0  0  0
  133.0560  123.9654   57.8534 H   0  0  0  0  0  0  0  0  0  0  0  0
  133.2758  125.7482   57.8534 H   0  0  0  0  0  0  0  0  0  0  0  0
  129.6373  125.2967   58.6488 H   0  0  0  0  0  0  0  0  0  0  0  0
  130.8038  126.0553   57.5128 H   0  0  0  0  0  0  0  0  0  0  0  0
  130.5799  124.2731   57.5128 H   0  0  0  0  0  0  0  0  0  0  0  0
  131.7573  126.0540   61.1201 H   0  0  0  0  0  0  0  0  0  0  0  0
  132.6798  126.8870   59.8232 H   0  0  0  0  0  0  0  0  0  0  0  0
  130.8842  126.9386   59.8232 H   0  0  0  0  0  0  0  0  0  0  0  0
  132.7512  124.4073   64.4169 H   0  0  0  0  0  0  0  0  0  0  0  0
  1  2  1  0
  2  3  1  0
  3  4  2  0
  3  5  1  0
  5  6  2  0
  6  7  1  0
  7  8  2  0
  8  9  1  0
  9 10  1  0
 10 11  1  0
 11 12  2  0
 11 13  1  0
 13 14  1  0
 14 15  2  0
 15 16  1  0
 16 17  2  0
 17 18  1  0
 18 19  1  0
 18 20  2  0
 20 21  1  0
 21 22  1  0
 22 23  1  0
 22 24  1  0
 22 25  1  0
 20 26  1  0
 26 27  1  0
 26 28  2  0
 14 29  1  0
 29 30  2  0
  8 31  1  0
 31  5  1  0
 29 10  1  0
 28 16  1  0
  1 32  1  0
  1 33  1  0
  1 34  1  0
  6 35  1  0
  7 36  1  0
  9 37  1  0
  9 38  1  0
 13 39  1  0
 15 40  1  0
 17 41  1  0
 23 42  1  0
 23 43  1  0
 23 44  1  0
 24 45  1  0
 24 46  1  0
 24 47  1  0
 25 48  1  0
 25 49  1  0
 25 50  1  0
 28 51  1  0
M  END
>  <Binding energies>  (1) 
[-7.77]

>  <Ligand effiencies>  (1) 
[-0.2428125]

>  <Interactions>  (1) 
["V-A:ASP:366:CA:3210, V-B:PRO:540:CA:9855, V-B:GLU:543:C:9874, H-A:GLU:543:OE2:4910, V-A:GLU:543:C:4902, V-B:GLU:543:CB:9878, H-B:LYS:547:NZ:9923, V-B:TYR:539:CE2:9848, V-A:TYR:484:CE2:4346, V-A:GLY:544:CA:4914, V-B:GLU:543:CG:9879, V-A:GLY:544:C:4912, V-A:HIS:456:CD2:4068, V-A:ASP:366:CG:3213, V-B:TYR:539:CZ:9849, H-B:GLU:543:OE1:9881, V-A:HIS:456:CB:4065, V-A:GLU:543:CD:4908, V-A:TYR:484:CZ:4347, V-B:HIS:456:CE1:9041, V-B:GLU:543:CA:9876, V-A:HIS:456:CE1:4070, V-A:ILE:369:CD1:3239, V-A:ASP:366:C:3208, V-B:GLU:543:CD:9880, V-A:ASP:366:CB:3212, H-A:LYS:547:NZ:4951, H-A:GLU:543:OE1:4909, V-A:GLU:543:CB:4906, V-A:HIS:456:CG:4066, H-B:GLU:543:OE2:9882"]

$$$$
ZINC4114747
     RDKit          3D

 20 21  0  0  0  0  0  0  0  0999 V2000
  133.9510  123.9600   57.8930 N   0  0  0  0  0  0  0  0  0  0  0  0
  134.0020  124.0260   59.0290 N   0  0  0  0  0  0  0  0  0  0  0  0
  134.1890  124.1650   60.2370 N   0  0  0  0  0  0  0  0  0  0  0  0
  133.7800  123.0480   61.0560 C   0  0  0  0  0  0  0  0  0  0  0  0
  133.1970  123.6100   62.3370 C   0  0  0  0  0  0  0  0  0  0  0  0
  133.9960  124.1430   63.2430 N   0  0  0  0  0  0  0  0  0  0  0  0
  133.1830  124.5380   64.2540 C   0  0  0  0  0  0  0  0  0  0  0  0
  133.4860  125.1660   65.4770 C   0  0  0  0  0  0  0  0  0  0  0  0
  132.4440  125.4710   66.3580 C   0  0  0  0  0  0  0  0  0  0  0  0
  131.1210  125.1630   66.0420 C   0  0  0  0  0  0  0  0  0  0  0  0
  129.8540  125.5510   67.1460 Cl  0  0  0  0  0  0  0  0  0  0  0  0
  130.8230  124.5430   64.8320 C   0  0  0  0  0  0  0  0  0  0  0  0
  131.8410  124.2410   63.9650 N   0  0  0  0  0  0  0  0  0  0  0  0
  131.8540  123.6430   62.7290 C   0  0  0  0  0  0  0  0  0  0  0  0
  130.3000  123.0150   61.8260 Br  0  0  0  0  0  0  0  0  0  0  0  0
  133.0206  122.4532   60.5273 H   0  0  0  0  0  0  0  0  0  0  0  0
  134.6373  122.3946   61.2752 H   0  0  0  0  0  0  0  0  0  0  0  0
  134.5263  125.4129   65.7355 H   0  0  0  0  0  0  0  0  0  0  0  0
  132.6714  125.9618   67.3158 H   0  0  0  0  0  0  0  0  0  0  0  0
  129.7821  124.2980   64.5743 H   0  0  0  0  0  0  0  0  0  0  0  0
  1  2  2  0
  2  3  2  0
  3  4  1  0
  4  5  1  0
  5  6  1  0
  6  7  2  0
  7  8  1  0
  8  9  2  0
  9 10  1  0
 10 11  1  0
 10 12  2  0
 12 13  1  0
 13 14  1  0
 14 15  1  0
 14  5  2  0
 13  7  1  0
  4 16  1  0
  4 17  1  0
  8 18  1  0
  9 19  1  0
 12 20  1  0
M  CHG  2   1  -1   2   1
M  END
>  <Binding energies>  (1) 
[-5.94]

>  <Ligand effiencies>  (1) 
[-0.396]

>  <Interactions>  (1) 
["V-A:ILE:369:CG2:3237, V-A:ASP:366:CA:3210, V-A:HIS:456:CE1:4070, V-A:ILE:369:CD1:3239, V-A:GLY:454:CA:4049, V-A:ASP:366:C:3208, H-A:ASN:370:N:3244, V-A:ILE:369:CB:3236, H-B:TYR:539:OH:9850, V-B:GLU:543:CB:9878, V-A:ARG:545:CZ:4926, V-A:TYR:484:CZ:4347, V-B:TYR:539:CE2:9848, V-A:ASP:366:CB:3212, V-A:ARG:545:CD:4923, V-B:GLU:543:CG:9879, V-A:ARG:545:CG:4922, H-A:GLY:454:N:4050"]

$$$$
ZINC4170652
     RDKit          3D

 47 49  0  0  0  0  0  0  0  0999 V2000
  128.8580  127.3450   63.0070 H   0  0  0  0  0  0  0  0  0  0  0  0
  128.6660  127.3230   63.9980 N   0  0  0  0  0  0  0  0  0  0  0  0
  129.4880  126.5900   64.6310 C   0  0  0  0  0  0  0  0  0  0  0  0
  129.4840  126.3560   66.0930 C   0  0  0  0  0  0  0  0  0  0  0  0
  128.8030  127.2220   66.9020 C   0  0  0  0  0  0  0  0  0  0  0  0
  128.7190  127.3060   68.3770 C   0  0  0  0  0  0  0  0  0  0  0  0
  127.5520  126.9560   69.0640 C   0  0  0  0  0  0  0  0  0  0  0  0
  127.5080  127.0300   70.4530 C   0  0  0  0  0  0  0  0  0  0  0  0
  128.6330  127.4440   71.1720 C   0  0  0  0  0  0  0  0  0  0  0  0
  128.5730  127.5250   72.6990 C   0  0  0  0  0  0  0  0  0  0  0  0
  127.1230  127.6570   73.1990 C   0  0  0  0  0  0  0  0  0  0  0  0
  129.4790  128.6300   73.2770 C   0  0  0  0  0  0  0  0  0  0  0  0
  129.8030  127.7860   70.4840 C   0  0  0  0  0  0  0  0  0  0  0  0
  129.8460  127.7110   69.0940 C   0  0  0  0  0  0  0  0  0  0  0  0
  130.2500  125.2080   66.6630 C   0  0  0  0  0  0  0  0  0  0  0  0
  129.8670  124.6950   67.7140 O   0  0  0  0  0  0  0  0  0  0  0  0
  131.3430  124.7520   65.9000 N   0  0  0  0  0  0  0  0  0  0  0  0
  131.4360  125.0540   64.6600 C   0  0  0  0  0  0  0  0  0  0  0  0
  132.6910  124.4970   63.5420 S   0  0  0  0  0  0  0  0  0  0  0  0
  131.8810  125.4560   62.2450 C   0  0  0  0  0  0  0  0  0  0  0  0
  132.4130  125.4870   60.8170 C   0  0  0  0  0  0  0  0  0  0  0  0
  133.2680  124.2440   60.4520 C   0  0  0  0  0  0  0  0  0  0  0  0
  133.8920  124.3220   59.0400 C   0  0  0  0  0  0  0  0  0  0  0  0
  132.4430  122.9530   60.6060 C   0  0  0  0  0  0  0  0  0  0  0  0
  130.8380  126.0960   62.5950 N   0  0  0  0  0  0  0  0  0  0  0  0
  130.5590  125.9050   63.9550 N   0  0  0  0  0  0  0  0  0  0  0  0
  128.2190  127.9850   66.3664 H   0  0  0  0  0  0  0  0  0  0  0  0
  126.6661  126.6211   68.5045 H   0  0  0  0  0  0  0  0  0  0  0  0
  126.5845  126.7617   70.9871 H   0  0  0  0  0  0  0  0  0  0  0  0
  128.9730  126.5728   73.0776 H   0  0  0  0  0  0  0  0  0  0  0  0
  127.1131  127.6579   74.2990 H   0  0  0  0  0  0  0  0  0  0  0  0
  126.6913  128.5982   72.8277 H   0  0  0  0  0  0  0  0  0  0  0  0
  126.5285  126.8093   72.8277 H   0  0  0  0  0  0  0  0  0  0  0  0
  129.4479  128.5921   74.3759 H   0  0  0  0  0  0  0  0  0  0  0  0
  130.5123  128.4738   72.9338 H   0  0  0  0  0  0  0  0  0  0  0  0
  129.1233  129.6127   72.9338 H   0  0  0  0  0  0  0  0  0  0  0  0
  130.6914  128.1151   71.0430 H   0  0  0  0  0  0  0  0  0  0  0  0
  130.7713  127.9718   68.5594 H   0  0  0  0  0  0  0  0  0  0  0  0
  131.5578  125.5370   60.1270 H   0  0  0  0  0  0  0  0  0  0  0  0
  133.0667  126.3677   60.7324 H   0  0  0  0  0  0  0  0  0  0  0  0
  134.1073  124.2282   61.1628 H   0  0  0  0  0  0  0  0  0  0  0  0
  134.9801  124.4580   59.1270 H   0  0  0  0  0  0  0  0  0  0  0  0
  133.6814  123.3905   58.4941 H   0  0  0  0  0  0  0  0  0  0  0  0
  133.4586  125.1730   58.4941 H   0  0  0  0  0  0  0  0  0  0  0  0
  132.3024  122.7330   61.6746 H   0  0  0  0  0  0  0  0  0  0  0  0
  131.4618  123.0855   60.1267 H   0  0  0  0  0  0  0  0  0  0  0  0
  132.9754  122.1182   60.1267 H   0  0  0  0  0  0  0  0  0  0  0  0
  1  2  1  0
  2  3  2  0
  3  4  1  0
  4  5  2  0
  5  6  1  0
  6  7  2  0
  7  8  1  0
  8  9  2  0
  9 10  1  0
 10 11  1  0
 10 12  1  0
  9 13  1  0
 13 14  2  0
  4 15  1  0
 15 16  2  0
 15 17  1  0
 17 18  2  0
 18 19  1  0
 19 20  1  0
 20 21  1  0
 21 22  1  0
 22 23  1  0
 22 24  1  0
 20 25  2  0
 25 26  1  0
 26  3  1  0
 14  6  1  0
 26 18  1  0
  5 27  1  0
  7 28  1  0
  8 29  1  0
 10 30  1  0
 11 31  1  0
 11 32  1  0
 11 33  1  0
 12 34  1  0
 12 35  1  0
 12 36  1  0
 13 37  1  0
 14 38  1  0
 21 39  1  0
 21 40  1  0
 22 41  1  0
 23 42  1  0
 23 43  1  0
 23 44  1  0
 24 45  1  0
 24 46  1  0
 24 47  1  0
M  END
>  <Binding energies>  (1) 
[-7.5]

>  <Ligand effiencies>  (1) 
[-0.28846153846153844]

>  <Interactions>  (1) 
["V-A:ILE:369:CG2:3237, V-A:ASP:366:CA:3210, V-B:GLU:543:C:9874, V-A:ILE:369:CB:3236, V-B:HIS:456:CD2:9039, V-B:GLU:543:CB:9878, V-B:TYR:539:CE2:9848, V-A:TYR:484:CE2:4346, V-B:GLU:543:CG:9879, V-A:ASP:366:CG:3213, H-B:GLU:543:OE1:9881, V-B:LYS:547:CE:9922, V-A:GLU:543:CD:4908, V-B:HIS:456:CE1:9041, V-A:HIS:456:CE1:4070, V-A:ASP:366:C:3208, V-B:GLY:544:C:9884, V-B:GLU:543:CD:9880, V-B:HIS:456:CG:9037, V-A:ASP:366:CB:3212, H-A:ARG:545:NH2:4928, H-A:GLU:543:OE1:4909, V-A:GLU:543:CB:4906, H-A:TYR:484:OH:4348"]

$$$$
ZINC417211713
     RDKit          3D

 39 41  0  0  0  0  0  0  0  0999 V2000
  126.7140  126.9690   70.5060 C   0  0  0  0  0  0  0  0  0  0  0  0
  128.1870  127.3120   70.5420 C   0  0  0  0  0  0  0  0  0  0  0  0
  128.8190  126.9770   71.6510 N   0  0  0  0  0  0  0  0  0  0  0  0
  130.0940  127.2920   71.6370 C   0  0  0  0  0  0  0  0  0  0  0  0
  131.0700  127.1110   72.5810 N   0  0  0  0  0  0  0  0  0  0  0  0
  130.9260  126.5380   73.7230 C   0  0  0  0  0  0  0  0  0  0  0  0
  129.9600  126.0000   74.2960 O   0  0  0  0  0  0  0  0  0  0  0  0
  132.0970  126.4690   74.5460 N   0  0  0  0  0  0  0  0  0  0  0  0
  132.4220  125.9520   75.8800 C   0  0  0  0  0  0  0  0  0  0  0  0
  133.8800  126.3590   75.6930 C   0  0  0  0  0  0  0  0  0  0  0  0
  134.8810  125.1940   75.6070 C   0  0  0  0  0  0  0  0  0  0  0  0
  134.3240  124.0070   75.8400 F   0  0  0  0  0  0  0  0  0  0  0  0
  133.4620  126.9540   74.3520 C   0  0  0  0  0  0  0  0  0  0  0  0
  130.5820  128.0650   70.1680 S   0  0  0  0  0  0  0  0  0  0  0  0
  128.9520  127.9380   69.5510 C   0  0  0  0  0  0  0  0  0  0  0  0
  128.5650  128.4550   68.1800 C   0  0  0  0  0  0  0  0  0  0  0  0
  129.0030  127.5190   67.0580 C   0  0  0  0  0  0  0  0  0  0  0  0
  129.6820  126.3360   67.3680 C   0  0  0  0  0  0  0  0  0  0  0  0
  130.0870  125.4680   66.3550 C   0  0  0  0  0  0  0  0  0  0  0  0
  129.8140  125.7760   65.0230 C   0  0  0  0  0  0  0  0  0  0  0  0
  129.1410  126.9550   64.7020 C   0  0  0  0  0  0  0  0  0  0  0  0
  128.8150  127.3220   63.0450 Cl  0  0  0  0  0  0  0  0  0  0  0  0
  128.7350  127.8280   65.7160 C   0  0  0  0  0  0  0  0  0  0  0  0
  128.0850  128.9730   65.3960 F   0  0  0  0  0  0  0  0  0  0  0  0
  126.3330  126.8803   71.5341 H   0  0  0  0  0  0  0  0  0  0  0  0
  126.1653  127.7634   69.9789 H   0  0  0  0  0  0  0  0  0  0  0  0
  126.5727  126.0139   69.9789 H   0  0  0  0  0  0  0  0  0  0  0  0
  131.9121  126.4781   76.7005 H   0  0  0  0  0  0  0  0  0  0  0  0
  132.1665  124.9166   76.1498 H   0  0  0  0  0  0  0  0  0  0  0  0
  134.4190  126.9490   76.4489 H   0  0  0  0  0  0  0  0  0  0  0  0
  135.3191  125.1829   74.5981 H   0  0  0  0  0  0  0  0  0  0  0  0
  135.6413  125.3574   76.3850 H   0  0  0  0  0  0  0  0  0  0  0  0
  133.5443  128.0499   74.3042 H   0  0  0  0  0  0  0  0  0  0  0  0
  134.0148  126.6948   73.4370 H   0  0  0  0  0  0  0  0  0  0  0  0
  127.4713  128.5656   68.1404 H   0  0  0  0  0  0  0  0  0  0  0  0
  129.0745  129.4183   68.0299 H   0  0  0  0  0  0  0  0  0  0  0  0
  129.8978  126.0889   68.4179 H   0  0  0  0  0  0  0  0  0  0  0  0
  130.6218  124.5403   66.6066 H   0  0  0  0  0  0  0  0  0  0  0  0
  130.1296  125.0886   64.2243 H   0  0  0  0  0  0  0  0  0  0  0  0
  1  2  1  0
  2  3  1  0
  3  4  2  0
  4  5  1  0
  5  6  2  0
  6  7  1  0
  6  8  1  0
  8  9  1  0
  9 10  1  0
 10 11  1  0
 11 12  1  0
 10 13  1  0
  4 14  1  0
 14 15  1  0
 15 16  1  0
 16 17  1  0
 17 18  2  0
 18 19  1  0
 19 20  2  0
 20 21  1  0
 21 22  1  0
 21 23  2  0
 23 24  1  0
 15  2  2  0
 23 17  1  0
 13  8  1  0
  1 25  1  0
  1 26  1  0
  1 27  1  0
  9 28  1  0
  9 29  1  0
 10 30  1  0
 11 31  1  0
 11 32  1  0
 13 33  1  0
 13 34  1  0
 16 35  1  0
 16 36  1  0
 18 37  1  0
 19 38  1  0
 20 39  1  0
M  CHG  1   7  -1
M  END
>  <Binding energies>  (1) 
[-7.34]

>  <Ligand effiencies>  (1) 
[-0.30583333333333335]

>  <Interactions>  (1) 
["V-B:HIS:456:CD2:9039, V-B:GLU:543:C:9874, V-A:GLU:543:C:4902, V-B:GLU:543:CB:9878, H-B:LYS:547:NZ:9923, V-A:VAL:457:CA:4075, V-B:GLU:543:CG:9879, V-A:GLY:544:C:4912, V-A:HIS:456:CD2:4068, V-A:VAL:457:C:4073, V-A:LYS:547:CG:4948, V-A:HIS:456:CB:4065, V-A:ASP:473:CG:4240, V-A:GLU:543:CD:4908, V-B:HIS:456:CE1:9041, V-A:HIS:456:CE1:4070, V-B:GLY:544:C:9884, V-A:HIS:456:CA:4063, V-B:GLY:544:CA:9886, V-A:GLU:543:CG:4907, V-B:GLU:543:CD:9880, V-B:HIS:456:CG:9037, V-A:HIS:456:C:4061, V-A:HIS:456:CG:4066, V-A:GLU:543:CB:4906, V-A:VAL:458:CG2:4087"]

$$$$
ZINC419623860
     RDKit          3D

 41 40  0  0  0  0  0  0  0  0999 V2000
  133.0140  131.8230   62.3950 C   0  0  0  0  0  0  0  0  0  0  0  0
  131.7360  132.2220   61.9150 O   0  0  0  0  0  0  0  0  0  0  0  0
  131.2240  131.4610   60.8210 C   0  0  2  0  0  0  0  0  0  0  0  0
  132.0860  131.6940   59.5590 C   0  0  0  0  0  0  0  0  0  0  0  0
  131.7200  130.5970   58.1540 S   0  0  0  0  0  0  0  0  0  0  0  0
  131.0820  131.7850   56.9210 C   0  0  2  0  0  0  0  0  0  0  0  0
  132.0510  132.9730   56.7660 C   0  0  0  0  0  0  0  0  0  0  0  0
  129.6610  132.2980   57.2650 C   0  0  0  0  0  0  0  0  0  0  0  0
  129.4960  133.5140   57.4020 O   0  0  0  0  0  0  0  0  0  0  0  0
  128.6320  131.4190   57.4090 N   0  0  0  0  0  0  0  0  0  0  0  0
  128.7100  129.9780   57.1570 C   0  0  0  0  0  0  0  0  0  0  0  0
  127.3040  131.8440   57.8580 C   0  0  0  0  0  0  0  0  0  0  0  0
  129.7460  131.8730   60.6170 C   0  0  0  0  0  0  0  0  0  0  0  0
  129.2250  132.9850   61.5610 C   0  0  0  0  0  0  0  0  0  0  0  0
  128.8700  132.4610   62.9670 C   0  0  0  0  0  0  0  0  0  0  0  0
  128.0240  133.7190   60.9350 C   0  0  0  0  0  0  0  0  0  0  0  0
  133.0094  131.8244   63.4950 H   0  0  0  0  0  0  0  0  0  0  0  0
  133.2429  130.8106   62.0306 H   0  0  0  0  0  0  0  0  0  0  0  0
  133.7782  132.5253   62.0306 H   0  0  0  0  0  0  0  0  0  0  0  0
  131.2679  130.3815   61.0276 H   0  0  0  0  0  0  0  0  0  0  0  0
  131.9318  132.7319   59.2290 H   0  0  0  0  0  0  0  0  0  0  0  0
  133.1228  131.4749   59.8540 H   0  0  0  0  0  0  0  0  0  0  0  0
  131.0090  131.2432   55.9664 H   0  0  0  0  0  0  0  0  0  0  0  0
  132.3475  133.3365   57.7609 H   0  0  0  0  0  0  0  0  0  0  0  0
  132.9446  132.6476   56.2132 H   0  0  0  0  0  0  0  0  0  0  0  0
  131.5526  133.7830   56.2132 H   0  0  0  0  0  0  0  0  0  0  0  0
  128.7392  129.4392   58.1156 H   0  0  0  0  0  0  0  0  0  0  0  0
  127.8279  129.6579   56.5831 H   0  0  0  0  0  0  0  0  0  0  0  0
  129.6215  129.7549   56.5831 H   0  0  0  0  0  0  0  0  0  0  0  0
  127.2744  131.8535   58.9576 H   0  0  0  0  0  0  0  0  0  0  0  0
  127.0940  132.8542   57.4768 H   0  0  0  0  0  0  0  0  0  0  0  0
  126.5465  131.1434   57.4768 H   0  0  0  0  0  0  0  0  0  0  0  0
  129.6332  132.2275   59.5818 H   0  0  0  0  0  0  0  0  0  0  0  0
  129.1495  130.9781   60.8480 H   0  0  0  0  0  0  0  0  0  0  0  0
  130.0521  133.6989   61.6887 H   0  0  0  0  0  0  0  0  0  0  0  0
  129.3160  133.1193   63.7271 H   0  0  0  0  0  0  0  0  0  0  0  0
  127.7768  132.4487   63.0885 H   0  0  0  0  0  0  0  0  0  0  0  0
  129.2639  131.4412   63.0885 H   0  0  0  0  0  0  0  0  0  0  0  0
  127.3785  134.1135   61.7336 H   0  0  0  0  0  0  0  0  0  0  0  0
  128.3863  134.5502   60.3122 H   0  0  0  0  0  0  0  0  0  0  0  0
  127.4496  133.0175   60.3122 H   0  0  0  0  0  0  0  0  0  0  0  0
  1  2  1  0
  2  3  1  0
  3  4  1  0
  4  5  1  0
  5  6  1  0
  6  7  1  0
  6  8  1  0
  8  9  2  0
  8 10  1  0
 10 11  1  0
 10 12  1  0
  3 13  1  0
 13 14  1  0
 14 15  1  0
 14 16  1  0
  1 17  1  0
  1 18  1  0
  1 19  1  0
  3 20  1  1
  4 21  1  0
  4 22  1  0
  6 23  1  6
  7 24  1  0
  7 25  1  0
  7 26  1  0
 11 27  1  0
 11 28  1  0
 11 29  1  0
 12 30  1  0
 12 31  1  0
 12 32  1  0
 13 33  1  0
 13 34  1  0
 14 35  1  0
 15 36  1  0
 15 37  1  0
 15 38  1  0
 16 39  1  0
 16 40  1  0
 16 41  1  0
M  END
>  <Binding energies>  (1) 
[-4.75]

>  <Ligand effiencies>  (1) 
[-0.296875]

>  <Interactions>  (1) 
["V-A:ALA:541:C:4888, V-A:PRO:540:CG:4886, H-A:ALA:541:N:4891, V-A:PRO:540:C:4881, V-A:ILE:538:CB:4862, H-A:TYR:531:OH:4795, V-A:ASN:362:CB:3176, V-A:ILE:538:CG2:4863, V-A:TYR:539:CD1:4873, V-A:LEU:363:CD1:3189, V-A:TYR:539:CZ:4877, V-A:ALA:541:CB:4892, V-A:MET:535:CE:4835, V-A:TYR:539:C:4867, V-A:PRO:540:N:4884, H-A:TYR:539:N:4870, V-A:PRO:540:CB:4885, V-A:PRO:540:CA:4883, V-A:PRO:540:CD:4887, V-A:TYR:539:CE1:4875"]

$$$$
ZINC420500647
     RDKit          3D

 46 48  0  0  0  0  0  0  0  0999 V2000
  128.2540  129.1130   67.2890 C   0  0  0  0  0  0  0  0  0  0  0  0
  128.5440  127.8280   66.4950 C   0  0  0  0  0  0  0  0  0  0  0  0
  129.1980  126.7010   67.3280 C   0  0  2  0  0  0  0  0  0  0  0  0
  130.3980  127.3270   68.5520 S   0  0  0  0  0  0  0  0  0  0  0  0
  129.6290  127.4320   70.1460 C   0  0  0  0  0  0  0  0  0  0  0  0
  128.3160  126.9790   70.2810 C   0  0  0  0  0  0  0  0  0  0  0  0
  127.6790  127.0500   71.5170 C   0  0  0  0  0  0  0  0  0  0  0  0
  128.3620  127.5690   72.6160 C   0  0  0  0  0  0  0  0  0  0  0  0
  129.6770  128.0100   72.4900 C   0  0  0  0  0  0  0  0  0  0  0  0
  130.3140  127.9390   71.2540 C   0  0  0  0  0  0  0  0  0  0  0  0
  129.8410  125.6590   66.4290 C   0  0  0  0  0  0  0  0  0  0  0  0
  130.3330  125.8360   65.2340 N   0  0  0  0  0  0  0  0  0  0  0  0
  130.6730  124.6110   64.8790 C   0  0  0  0  0  0  0  0  0  0  0  0
  131.2590  124.2860   63.4940 C   0  0  0  0  0  0  0  0  0  0  0  0
  133.1020  123.8640   63.7700 S   0  0  0  0  0  0  0  0  0  0  0  0
  133.9550  124.3600   62.1610 C   0  0  0  0  0  0  0  0  0  0  0  0
  133.6230  124.7330   64.8310 O   0  0  0  0  0  0  0  0  0  0  0  0
  133.2290  122.4090   63.9100 O   0  0  0  0  0  0  0  0  0  0  0  0
  130.5380  123.1380   62.7480 C   0  0  0  0  0  0  0  0  0  0  0  0
  129.3360  123.7960   62.0630 C   0  0  0  0  0  0  0  0  0  0  0  0
  129.7270  125.2660   61.8430 C   0  0  0  0  0  0  0  0  0  0  0  0
  131.1130  125.4430   62.4820 C   0  0  0  0  0  0  0  0  0  0  0  0
  130.4460  123.6730   65.7790 N   0  0  0  0  0  0  0  0  0  0  0  0
  129.8640  124.3660   66.8360 O   0  0  0  0  0  0  0  0  0  0  0  0
  128.3027  128.8971   68.3665 H   0  0  0  0  0  0  0  0  0  0  0  0
  129.0020  129.8782   67.0342 H   0  0  0  0  0  0  0  0  0  0  0  0
  127.2498  129.4827   67.0342 H   0  0  0  0  0  0  0  0  0  0  0  0
  127.5932  127.4505   66.0907 H   0  0  0  0  0  0  0  0  0  0  0  0
  129.2645  128.0984   65.7090 H   0  0  0  0  0  0  0  0  0  0  0  0
  128.3853  126.2245   67.8958 H   0  0  0  0  0  0  0  0  0  0  0  0
  127.7844  126.5659   69.4111 H   0  0  0  0  0  0  0  0  0  0  0  0
  126.6424  126.6985   71.6258 H   0  0  0  0  0  0  0  0  0  0  0  0
  127.8576  127.6307   73.5916 H   0  0  0  0  0  0  0  0  0  0  0  0
  130.2103  128.4129   73.3636 H   0  0  0  0  0  0  0  0  0  0  0  0
  131.3542  128.2812   71.1496 H   0  0  0  0  0  0  0  0  0  0  0  0
  134.8850  124.9008   62.3906 H   0  0  0  0  0  0  0  0  0  0  0  0
  134.1900  123.4577   61.5773 H   0  0  0  0  0  0  0  0  0  0  0  0
  133.2871  125.0106   61.5773 H   0  0  0  0  0  0  0  0  0  0  0  0
  131.2061  122.6836   62.0016 H   0  0  0  0  0  0  0  0  0  0  0  0
  130.2313  122.3326   63.4315 H   0  0  0  0  0  0  0  0  0  0  0  0
  129.1300  123.3069   61.0995 H   0  0  0  0  0  0  0  0  0  0  0  0
  128.4257  123.7081   62.6742 H   0  0  0  0  0  0  0  0  0  0  0  0
  129.7718  125.4915   60.7673 H   0  0  0  0  0  0  0  0  0  0  0  0
  128.9895  125.9477   62.2918 H   0  0  0  0  0  0  0  0  0  0  0  0
  131.8992  125.3828   61.7150 H   0  0  0  0  0  0  0  0  0  0  0  0
  131.2120  126.4237   62.9704 H   0  0  0  0  0  0  0  0  0  0  0  0
  1  2  1  0
  2  3  1  0
  3  4  1  0
  4  5  1  0
  5  6  2  0
  6  7  1  0
  7  8  2  0
  8  9  1  0
  9 10  2  0
  3 11  1  0
 11 12  2  0
 12 13  1  0
 13 14  1  0
 14 15  1  0
 15 16  1  0
 15 17  2  0
 15 18  2  0
 14 19  1  0
 19 20  1  0
 20 21  1  0
 21 22  1  0
 13 23  2  0
 23 24  1  0
 10  5  1  0
 24 11  1  0
 22 14  1  0
  1 25  1  0
  1 26  1  0
  1 27  1  0
  2 28  1  0
  2 29  1  0
  3 30  1  1
  6 31  1  0
  7 32  1  0
  8 33  1  0
  9 34  1  0
 10 35  1  0
 16 36  1  0
 16 37  1  0
 16 38  1  0
 19 39  1  0
 19 40  1  0
 20 41  1  0
 20 42  1  0
 21 43  1  0
 21 44  1  0
 22 45  1  0
 22 46  1  0
M  END
>  <Binding energies>  (1) 
[-7.27]

>  <Ligand effiencies>  (1) 
[-0.30291666666666667]

>  <Interactions>  (1) 
["V-A:HIS:456:CE1:4070, V-A:ILE:369:CD1:3239, V-A:GLY:454:CA:4049, V-B:GLU:543:C:9874, V-B:GLY:544:C:9884, V-B:HIS:456:CD2:9039, V-B:GLU:543:CB:9878, V-A:GLU:543:CG:4907, H-A:ARG:545:NE:4924, V-B:GLU:543:CD:9880, V-A:GLU:543:CB:4906, V-A:GLU:543:CD:4908, H-A:ARG:545:NH2:4928, V-B:GLU:543:CG:9879, V-A:GLY:544:C:4912, V-B:HIS:456:CE1:9041, H-A:GLY:454:N:4050, H-A:TYR:484:OH:4348"]

$$$$
ZINC420519371
     RDKit          3D

 48 50  0  0  0  0  0  0  0  0999 V2000
  128.3780  128.2400   65.4560 C   0  0  0  0  0  0  0  0  0  0  0  0
  127.8850  128.4680   66.9010 C   0  0  0  0  0  0  0  0  0  0  0  0
  128.1060  129.9470   67.2900 C   0  0  0  0  0  0  0  0  0  0  0  0
  128.5150  127.4780   67.9320 C   0  0  2  0  0  0  0  0  0  0  0  0
  129.0300  128.1750   69.2230 C   0  0  0  0  0  0  0  0  0  0  0  0
  129.3870  127.2350   70.4030 C   0  0  0  0  0  0  0  0  0  0  0  0
  130.5650  127.7640   71.2530 C   0  0  0  0  0  0  0  0  0  0  0  0
  130.0190  127.9780   72.6680 C   0  0  0  0  0  0  0  0  0  0  0  0
  128.8760  126.9740   72.7840 C   0  0  0  0  0  0  0  0  0  0  0  0
  128.2300  127.0020   71.3980 C   0  0  0  0  0  0  0  0  0  0  0  0
  129.6220  126.6450   67.2960 C   0  0  0  0  0  0  0  0  0  0  0  0
  129.5410  125.8890   66.2360 N   0  0  0  0  0  0  0  0  0  0  0  0
  130.7590  125.3880   66.1630 C   0  0  0  0  0  0  0  0  0  0  0  0
  131.1540  124.4520   65.1180 C   0  0  0  0  0  0  0  0  0  0  0  0
  130.5650  123.3110   64.5840 C   0  0  0  0  0  0  0  0  0  0  0  0
  131.4200  122.8300   63.5920 C   0  0  0  0  0  0  0  0  0  0  0  0
  132.4930  123.7030   63.5540 C   0  0  0  0  0  0  0  0  0  0  0  0
  133.9920  123.7130   62.5530 S   0  0  0  0  0  0  0  0  0  0  0  0
  133.3570  124.3270   60.8870 C   0  0  0  0  0  0  0  0  0  0  0  0
  134.8780  124.7270   63.1340 O   0  0  0  0  0  0  0  0  0  0  0  0
  134.4140  122.3140   62.4200 O   0  0  0  0  0  0  0  0  0  0  0  0
  132.3380  124.6790   64.4850 O   0  0  0  0  0  0  0  0  0  0  0  0
  131.6070  125.7740   67.0940 N   0  0  0  0  0  0  0  0  0  0  0  0
  130.8450  126.6340   67.8810 O   0  0  0  0  0  0  0  0  0  0  0  0
  129.3762  127.7784   65.4777 H   0  0  0  0  0  0  0  0  0  0  0  0
  127.6775  127.5744   64.9303 H   0  0  0  0  0  0  0  0  0  0  0  0
  128.4315  129.2048   64.9303 H   0  0  0  0  0  0  0  0  0  0  0  0
  126.8074  128.2493   66.9312 H   0  0  0  0  0  0  0  0  0  0  0  0
  128.1199  130.0397   68.3860 H   0  0  0  0  0  0  0  0  0  0  0  0
  129.0660  130.2943   66.8805 H   0  0  0  0  0  0  0  0  0  0  0  0
  127.2895  130.5598   66.8805 H   0  0  0  0  0  0  0  0  0  0  0  0
  127.6981  126.8090   68.2405 H   0  0  0  0  0  0  0  0  0  0  0  0
  129.9335  128.7451   68.9608 H   0  0  0  0  0  0  0  0  0  0  0  0
  128.1952  128.7965   69.5793 H   0  0  0  0  0  0  0  0  0  0  0  0
  129.6437  126.2951   69.8924 H   0  0  0  0  0  0  0  0  0  0  0  0
  131.3828  127.0285   71.2685 H   0  0  0  0  0  0  0  0  0  0  0  0
  130.9676  128.6991   70.8364 H   0  0  0  0  0  0  0  0  0  0  0  0
  130.7950  127.7743   73.4205 H   0  0  0  0  0  0  0  0  0  0  0  0
  129.6895  129.0133   72.8404 H   0  0  0  0  0  0  0  0  0  0  0  0
  129.2580  125.9696   73.0190 H   0  0  0  0  0  0  0  0  0  0  0  0
  128.1695  127.2222   73.5897 H   0  0  0  0  0  0  0  0  0  0  0  0
  127.7305  126.0447   71.1882 H   0  0  0  0  0  0  0  0  0  0  0  0
  127.4647  127.7885   71.3224 H   0  0  0  0  0  0  0  0  0  0  0  0
  129.6040  122.8699   64.8873 H   0  0  0  0  0  0  0  0  0  0  0  0
  131.2713  121.9374   62.9666 H   0  0  0  0  0  0  0  0  0  0  0  0
  132.5748  125.0833   61.0489 H   0  0  0  0  0  0  0  0  0  0  0  0
  134.1872  124.7736   60.3201 H   0  0  0  0  0  0  0  0  0  0  0  0
  132.9386  123.4823   60.3201 H   0  0  0  0  0  0  0  0  0  0  0  0
  1  2  1  0
  2  3  1  0
  2  4  1  0
  4  5  1  0
  5  6  1  0
  6  7  1  0
  7  8  1  0
  8  9  1  0
  9 10  1  0
  4 11  1  0
 11 12  2  0
 12 13  1  0
 13 14  1  0
 14 15  2  0
 15 16  1  0
 16 17  2  0
 17 18  1  0
 18 19  1  0
 18 20  2  0
 18 21  2  0
 17 22  1  0
 13 23  2  0
 23 24  1  0
 10  6  1  0
 24 11  1  0
 22 14  1  0
  1 25  1  0
  1 26  1  0
  1 27  1  0
  2 28  1  0
  3 29  1  0
  3 30  1  0
  3 31  1  0
  4 32  1  1
  5 33  1  0
  5 34  1  0
  6 35  1  0
  7 36  1  0
  7 37  1  0
  8 38  1  0
  8 39  1  0
  9 40  1  0
  9 41  1  0
 10 42  1  0
 10 43  1  0
 15 44  1  0
 16 45  1  0
 19 46  1  0
 19 47  1  0
 19 48  1  0
M  END
>  <Binding energies>  (1) 
[-7.15]

>  <Ligand effiencies>  (1) 
[-0.29791666666666666]

>  <Interactions>  (1) 
["V-A:GLU:543:CA:4904, V-A:GLY:454:CA:4049, V-B:GLU:543:CB:9878, H-A:ARG:545:NH1:4927, V-A:TYR:484:CE2:4346, V-A:GLY:544:C:4912, V-A:ASP:366:CG:3213, V-B:TYR:484:CE2:9317, V-A:GLU:543:CD:4908, V-A:TYR:484:CZ:4347, V-B:HIS:456:CE1:9041, H-A:GLY:454:N:4050, V-B:TYR:484:CZ:9318, V-A:HIS:456:CE1:4070, V-A:ILE:369:CD1:3239, V-A:GLU:543:CG:4907, V-B:GLU:543:CD:9880, V-A:LEU:475:CD2:4259, H-A:ARG:545:NH2:4928, V-A:GLU:543:CB:4906, H-A:TYR:484:OH:4348"]

$$$$
ZINC4210041
     RDKit          3D

 54 57  0  0  0  0  0  0  0  0999 V2000
  127.6110  131.0560   61.7310 C   0  0  0  0  0  0  0  0  0  0  0  0
  128.6130  130.6020   60.6550 C   0  0  1  0  0  0  0  0  0  0  0  0
  129.7660  131.4470   60.7750 O   0  0  0  0  0  0  0  0  0  0  0  0
  130.8800  131.2850   59.9620 C   0  0  0  0  0  0  0  0  0  0  0  0
  130.7980  130.8930   58.6120 C   0  0  0  0  0  0  0  0  0  0  0  0
  131.9420  130.7830   57.8270 C   0  0  0  0  0  0  0  0  0  0  0  0
  133.1870  131.0770   58.3690 C   0  0  0  0  0  0  0  0  0  0  0  0
  133.2890  131.4680   59.7010 C   0  0  0  0  0  0  0  0  0  0  0  0
  132.1490  131.5620   60.5120 C   0  0  0  0  0  0  0  0  0  0  0  0
  132.3100  131.9390   61.9340 N   0  0  0  0  0  0  0  0  0  0  0  0
  131.3420  131.8420   62.6830 O   0  0  0  0  0  0  0  0  0  0  0  0
  133.4180  132.3070   62.3110 O   0  0  0  0  0  0  0  0  0  0  0  0
  129.0230  129.1290   60.8650 C   0  0  0  0  0  0  0  0  0  0  0  0
  128.3340  128.2280   60.3750 O   0  0  0  0  0  0  0  0  0  0  0  0
  130.1040  128.9210   61.6410 N   0  0  0  0  0  0  0  0  0  0  0  0
  130.3850  127.7080   62.1450 N   0  0  0  0  0  0  0  0  0  0  0  0
  131.4110  127.1680   61.6240 C   0  0  0  0  0  0  0  0  0  0  0  0
  131.9800  125.9050   62.1220 C   0  0  0  0  0  0  0  0  0  0  0  0
  131.6140  125.4800   63.4060 C   0  0  0  0  0  0  0  0  0  0  0  0
  132.1240  124.3010   63.9460 C   0  0  0  0  0  0  0  0  0  0  0  0
  133.0100  123.5220   63.2080 C   0  0  0  0  0  0  0  0  0  0  0  0
  133.3780  123.9190   61.9250 C   0  0  0  0  0  0  0  0  0  0  0  0
  132.8590  125.0940   61.3660 C   0  0  0  0  0  0  0  0  0  0  0  0
  133.2440  125.4450   60.0860 O   0  0  0  0  0  0  0  0  0  0  0  0
  132.7270  124.7750   59.0080 C   0  0  0  0  0  0  0  0  0  0  0  0
  133.3800  124.0540   58.2490 O   0  0  0  0  0  0  0  0  0  0  0  0
  131.2820  125.0150   58.8370 C   0  0  0  0  0  0  0  0  0  0  0  0
  130.7140  126.3070   57.7810 S   0  0  0  0  0  0  0  0  0  0  0  0
  129.0430  125.9510   58.1630 C   0  0  0  0  0  0  0  0  0  0  0  0
  127.9120  126.6280   57.6850 C   0  0  0  0  0  0  0  0  0  0  0  0
  126.6580  126.1900   58.1010 C   0  0  0  0  0  0  0  0  0  0  0  0
  126.5270  125.1060   58.9620 C   0  0  0  0  0  0  0  0  0  0  0  0
  127.6470  124.4310   59.4420 C   0  0  0  0  0  0  0  0  0  0  0  0
  128.9370  124.8480   59.0570 C   0  0  0  0  0  0  0  0  0  0  0  0
  130.2180  124.3400   59.4330 C   0  0  0  0  0  0  0  0  0  0  0  0
  130.3480  123.0140   60.5330 Cl  0  0  0  0  0  0  0  0  0  0  0  0
  128.0328  130.8649   62.7288 H   0  0  0  0  0  0  0  0  0  0  0  0
  127.4126  132.1319   61.6167 H   0  0  0  0  0  0  0  0  0  0  0  0
  126.6713  130.4957   61.6167 H   0  0  0  0  0  0  0  0  0  0  0  0
  128.1584  130.6784   59.6562 H   0  0  0  0  0  0  0  0  0  0  0  0
  129.8151  130.6704   58.1712 H   0  0  0  0  0  0  0  0  0  0  0  0
  131.8604  130.4633   56.7776 H   0  0  0  0  0  0  0  0  0  0  0  0
  134.0907  131.0009   57.7465 H   0  0  0  0  0  0  0  0  0  0  0  0
  134.2766  131.7063   60.1228 H   0  0  0  0  0  0  0  0  0  0  0  0
  130.6590  129.6840   62.0000 H   0  0  0  0  0  0  0  0  0  0  0  0
  131.8923  127.6636   60.7680 H   0  0  0  0  0  0  0  0  0  0  0  0
  130.9126  126.0869   63.9974 H   0  0  0  0  0  0  0  0  0  0  0  0
  131.8259  123.9857   64.9568 H   0  0  0  0  0  0  0  0  0  0  0  0
  133.4186  122.5951   63.6370 H   0  0  0  0  0  0  0  0  0  0  0  0
  134.0825  123.3045   61.3453 H   0  0  0  0  0  0  0  0  0  0  0  0
  128.0130  127.4824   56.9996 H   0  0  0  0  0  0  0  0  0  0  0  0
  125.7568  126.7094   57.7431 H   0  0  0  0  0  0  0  0  0  0  0  0
  125.5234  124.7764   59.2688 H   0  0  0  0  0  0  0  0  0  0  0  0
  127.5248  123.5738   60.1205 H   0  0  0  0  0  0  0  0  0  0  0  0
  1  2  1  0
  2  3  1  0
  3  4  1  0
  4  5  2  0
  5  6  1  0
  6  7  2  0
  7  8  1  0
  8  9  2  0
  9 10  1  0
 10 11  2  0
 10 12  1  0
  2 13  1  0
 13 14  2  0
 13 15  1  0
 15 16  1  0
 16 17  2  0
 17 18  1  0
 18 19  2  0
 19 20  1  0
 20 21  2  0
 21 22  1  0
 22 23  2  0
 23 24  1  0
 24 25  1  0
 25 26  2  0
 25 27  1  0
 27 28  1  0
 28 29  1  0
 29 30  2  0
 30 31  1  0
 31 32  2  0
 32 33  1  0
 33 34  2  0
 34 35  1  0
 35 36  1  0
  9  4  1  0
 23 18  1  0
 35 27  2  0
 34 29  1  0
  1 37  1  0
  1 38  1  0
  1 39  1  0
  2 40  1  6
  5 41  1  0
  6 42  1  0
  7 43  1  0
  8 44  1  0
 15 45  1  0
 17 46  1  0
 19 47  1  0
 20 48  1  0
 21 49  1  0
 22 50  1  0
 30 51  1  0
 31 52  1  0
 32 53  1  0
 33 54  1  0
M  CHG  2  10   1  12  -1
M  END
>  <Binding energies>  (1) 
[-7.25]

>  <Ligand effiencies>  (1) 
[-0.19594594594594594]

>  <Interactions>  (1) 
["V-A:LEU:363:CD1:3189, V-A:LEU:363:CB:3187, V-A:PRO:540:CB:4885, V-A:PRO:540:CA:4883, V-A:LEU:363:CA:3185, V-A:GLY:454:CA:4049, H-A:ALA:541:N:4891, V-B:TYR:539:CZ:9849, H-B:TYR:539:OH:9850, V-A:PRO:540:C:4881, V-B:TYR:539:CD2:9846, V-A:GLU:543:CD:4908, H-A:ASP:366:OD2:3215, V-A:ASP:366:CB:3212, V-B:TYR:539:CE2:9848, H-A:ARG:545:NH2:4928, H-A:GLU:543:OE1:4909, V-A:ASP:366:CG:3213"]

$$$$
ZINC4268211
     RDKit          3D

 59 64  0  0  0  0  0  0  0  0999 V2000
  130.3920  124.3520   65.7750 C   0  0  0  0  0  0  0  0  0  0  0  0
  130.2180  124.4050   64.4420 C   0  0  0  0  0  0  0  0  0  0  0  0
  129.5640  123.3380   63.6750 C   0  0  0  0  0  0  0  0  0  0  0  0
  129.1170  122.2870   64.1380 O   0  0  0  0  0  0  0  0  0  0  0  0
  129.6130  123.8120   62.1970 C   0  0  1  0  0  0  0  0  0  0  0  0
  130.8890  124.6640   62.2090 C   0  0  2  0  0  0  0  0  0  0  0  0
  132.0860  123.8870   62.3650 O   0  0  0  0  0  0  0  0  0  0  0  0
  132.2580  122.8150   61.4690 C   0  0  0  0  0  0  0  0  0  0  0  0
  132.6870  123.3530   60.0950 C   0  0  0  0  0  0  0  0  0  0  0  0
  133.3090  121.9170   62.1060 C   0  0  0  0  0  0  0  0  0  0  0  0
  131.1030  122.0050   61.3560 O   0  0  0  0  0  0  0  0  0  0  0  0
  129.8140  122.6260   61.2260 C   0  0  2  0  0  0  0  0  0  0  0  0
  129.5120  123.0030   59.7640 C   0  0  0  0  0  0  0  0  0  0  0  0
  128.0430  123.4560   59.6210 C   0  0  2  0  0  0  0  0  0  0  0  0
  127.5000  123.5140   58.1320 C   0  0  0  0  0  0  0  0  0  0  0  0
  128.2140  124.5650   57.2410 C   0  0  0  0  0  0  0  0  0  0  0  0
  127.6040  122.0980   57.5050 C   0  0  0  0  0  0  0  0  0  0  0  0
  125.9740  123.8410   58.1950 C   0  0  0  0  0  0  0  0  0  0  0  0
  125.6200  125.0810   59.0420 C   0  0  0  0  0  0  0  0  0  0  0  0
  126.2110  124.9410   60.4570 C   0  0  0  0  0  0  0  0  0  0  0  0
  127.7660  124.7550   60.4720 C   0  0  2  0  0  0  0  0  0  0  0  0
  128.4630  126.0650   60.0540 C   0  0  0  0  0  0  0  0  0  0  0  0
  128.3440  126.9020   61.2000 O   0  0  0  0  0  0  0  0  0  0  0  0
  128.3890  126.1320   62.4000 C   0  0  2  0  0  0  0  0  0  0  0  0
  129.6150  126.5700   63.2530 C   0  0  0  0  0  0  0  0  0  0  0  0
  130.6880  125.4840   63.4770 C   0  0  1  0  0  0  0  0  0  0  0  0
  128.2830  124.6470   61.9350 C   0  0  2  0  0  0  0  0  0  0  0  0
  130.8896  125.1819   66.2981 H   0  0  0  0  0  0  0  0  0  0  0  0
  130.0367  123.4788   66.3418 H   0  0  0  0  0  0  0  0  0  0  0  0
  131.0193  125.2247   61.2717 H   0  0  0  0  0  0  0  0  0  0  0  0
  133.3675  124.2064   60.2315 H   0  0  0  0  0  0  0  0  0  0  0  0
  133.2025  122.5589   59.5349 H   0  0  0  0  0  0  0  0  0  0  0  0
  131.7981  123.6788   59.5349 H   0  0  0  0  0  0  0  0  0  0  0  0
  133.2322  121.9826   63.2014 H   0  0  0  0  0  0  0  0  0  0  0  0
  133.1437  120.8769   61.7885 H   0  0  0  0  0  0  0  0  0  0  0  0
  134.3106  122.2425   61.7885 H   0  0  0  0  0  0  0  0  0  0  0  0
  129.0714  121.8721   61.5263 H   0  0  0  0  0  0  0  0  0  0  0  0
  130.1766  123.8236   59.4560 H   0  0  0  0  0  0  0  0  0  0  0  0
  129.6794  122.1232   59.1253 H   0  0  0  0  0  0  0  0  0  0  0  0
  127.4290  122.6534   60.0555 H   0  0  0  0  0  0  0  0  0  0  0  0
  128.7173  125.3059   57.8796 H   0  0  0  0  0  0  0  0  0  0  0  0
  128.9583  124.0624   56.6059 H   0  0  0  0  0  0  0  0  0  0  0  0
  127.4725  125.0718   56.6059 H   0  0  0  0  0  0  0  0  0  0  0  0
  127.6593  121.3457   58.3056 H   0  0  0  0  0  0  0  0  0  0  0  0
  126.7175  121.9066   56.8825 H   0  0  0  0  0  0  0  0  0  0  0  0
  128.5090  122.0382   56.8825 H   0  0  0  0  0  0  0  0  0  0  0  0
  125.6167  124.0124   57.1689 H   0  0  0  0  0  0  0  0  0  0  0  0
  125.4896  122.9813   58.6811 H   0  0  0  0  0  0  0  0  0  0  0  0
  126.0341  125.9799   58.5620 H   0  0  0  0  0  0  0  0  0  0  0  0
  124.5258  125.1666   59.1155 H   0  0  0  0  0  0  0  0  0  0  0  0
  125.9638  125.8479   61.0283 H   0  0  0  0  0  0  0  0  0  0  0  0
  125.7736  124.0345   60.9008 H   0  0  0  0  0  0  0  0  0  0  0  0
  129.5204  125.8843   59.8104 H   0  0  0  0  0  0  0  0  0  0  0  0
  128.0152  126.5135   59.1550 H   0  0  0  0  0  0  0  0  0  0  0  0
  127.5632  126.2891   63.1095 H   0  0  0  0  0  0  0  0  0  0  0  0
  130.0941  127.4209   62.7466 H   0  0  0  0  0  0  0  0  0  0  0  0
  129.2188  126.8144   64.2496 H   0  0  0  0  0  0  0  0  0  0  0  0
  131.5735  126.0357   63.8257 H   0  0  0  0  0  0  0  0  0  0  0  0
  127.5815  124.0362   62.5222 H   0  0  0  0  0  0  0  0  0  0  0  0
  1  2  2  0
  2  3  1  0
  3  4  2  0
  5  3  1  1
  5  6  1  0
  6  7  1  0
  7  8  1  0
  8  9  1  0
  8 10  1  0
  8 11  1  0
 11 12  1  0
 12 13  1  0
 13 14  1  0
 14 15  1  0
 15 16  1  0
 15 17  1  0
 15 18  1  0
 18 19  1  0
 19 20  1  0
 21 20  1  1
 21 22  1  0
 22 23  1  0
 23 24  1  0
 24 25  1  0
 25 26  1  0
 24 27  1  0
 26  2  1  0
 12  5  1  0
 21 14  1  0
 27  5  1  0
 26  6  1  0
 27 21  1  0
  1 28  1  0
  1 29  1  0
  6 30  1  6
  9 31  1  0
  9 32  1  0
  9 33  1  0
 10 34  1  0
 10 35  1  0
 10 36  1  0
 12 37  1  1
 13 38  1  0
 13 39  1  0
 14 40  1  1
 16 41  1  0
 16 42  1  0
 16 43  1  0
 17 44  1  0
 17 45  1  0
 17 46  1  0
 18 47  1  0
 18 48  1  0
 19 49  1  0
 19 50  1  0
 20 51  1  0
 20 52  1  0
 22 53  1  0
 22 54  1  0
 24 55  1  1
 25 56  1  0
 25 57  1  0
 26 58  1  1
 27 59  1  1
M  END
>  <Binding energies>  (1) 
[-7.25]

>  <Ligand effiencies>  (1) 
[-0.26851851851851855]

>  <Interactions>  (1) 
["V-A:ILE:369:CG2:3237, V-B:TYR:539:CA:9841, V-B:PRO:540:CA:9855, V-B:ASP:366:CG:8184, V-B:TYR:539:CE2:9848, V-A:TYR:484:CE2:4346, V-B:GLU:543:CG:9879, V-B:TYR:539:C:9839, V-B:TYR:539:CZ:9849, V-A:TYR:484:CZ:4347, V-A:GLU:543:CD:4908, V-B:PRO:540:CB:9857, V-B:PRO:540:N:9856, V-B:TYR:539:CD2:9846, V-B:PRO:540:CD:9859, V-B:GLU:543:CD:9880, V-A:LEU:475:CD2:4259, V-B:TYR:539:CG:9844, V-B:TYR:539:CD1:9845, V-B:TYR:539:CE1:9847"]

$$$$
ZINC4299836
     RDKit          3D

 47 49  0  0  0  0  0  0  0  0999 V2000
  133.0100  125.8700   57.2120 O   0  0  0  0  0  0  0  0  0  0  0  0
  133.2850  124.8910   57.8990 N   0  0  0  0  0  0  0  0  0  0  0  0
  133.9730  123.9650   57.4770 O   0  0  0  0  0  0  0  0  0  0  0  0
  132.7150  124.7740   59.2700 C   0  0  0  0  0  0  0  0  0  0  0  0
  133.6050  124.6510   60.3450 C   0  0  0  0  0  0  0  0  0  0  0  0
  133.1730  124.4310   61.6570 C   0  0  0  0  0  0  0  0  0  0  0  0
  134.2240  124.2620   62.7700 C   0  0  0  0  0  0  0  0  0  0  0  0
  134.2900  122.9820   63.1330 F   0  0  0  0  0  0  0  0  0  0  0  0
  135.4310  124.6530   62.3580 F   0  0  0  0  0  0  0  0  0  0  0  0
  133.9320  124.9790   63.8570 F   0  0  0  0  0  0  0  0  0  0  0  0
  131.7920  124.3140   61.9080 C   0  0  0  0  0  0  0  0  0  0  0  0
  131.3040  124.1710   63.2040 N   0  0  0  0  0  0  0  0  0  0  0  0
  131.1160  125.4120   63.9750 C   0  0  0  0  0  0  0  0  0  0  0  0
  131.0280  125.1490   65.4930 C   0  0  0  0  0  0  0  0  0  0  0  0
  129.9090  124.1580   65.8370 C   0  0  0  0  0  0  0  0  0  0  0  0
  130.0240  122.9110   64.9510 C   0  0  0  0  0  0  0  0  0  0  0  0
  130.1550  123.2800   63.4580 C   0  0  0  0  0  0  0  0  0  0  0  0
  130.8990  124.4600   60.8390 C   0  0  0  0  0  0  0  0  0  0  0  0
  131.3240  124.6850   59.5210 C   0  0  0  0  0  0  0  0  0  0  0  0
  130.3700  124.9110   58.5260 N   0  0  0  0  0  0  0  0  0  0  0  0
  129.0300  124.2950   58.5750 C   0  0  0  0  0  0  0  0  0  0  0  0
  128.3390  124.2470   57.1960 C   0  0  0  0  0  0  0  0  0  0  0  0
  128.2500  125.6330   56.5500 C   0  0  0  0  0  0  0  0  0  0  0  0
  129.6320  126.2960   56.5600 C   0  0  0  0  0  0  0  0  0  0  0  0
  130.2700  126.2730   57.9650 C   0  0  0  0  0  0  0  0  0  0  0  0
  134.6846  124.7305   60.1498 H   0  0  0  0  0  0  0  0  0  0  0  0
  131.9665  126.0819   63.7805 H   0  0  0  0  0  0  0  0  0  0  0  0
  130.1665  125.8665   63.6560 H   0  0  0  0  0  0  0  0  0  0  0  0
  131.9873  124.7365   65.8388 H   0  0  0  0  0  0  0  0  0  0  0  0
  130.8041  126.1033   65.9923 H   0  0  0  0  0  0  0  0  0  0  0  0
  129.9947  123.8638   66.8934 H   0  0  0  0  0  0  0  0  0  0  0  0
  128.9346  124.6375   65.6619 H   0  0  0  0  0  0  0  0  0  0  0  0
  130.9123  122.3382   65.2557 H   0  0  0  0  0  0  0  0  0  0  0  0
  129.1078  122.3156   65.0774 H   0  0  0  0  0  0  0  0  0  0  0  0
  130.2867  122.3566   62.8749 H   0  0  0  0  0  0  0  0  0  0  0  0
  129.2406  123.8139   63.1600 H   0  0  0  0  0  0  0  0  0  0  0  0
  129.8197  124.3956   61.0411 H   0  0  0  0  0  0  0  0  0  0  0  0
  129.1302  123.2669   58.9531 H   0  0  0  0  0  0  0  0  0  0  0  0
  128.4059  124.9155   59.2349 H   0  0  0  0  0  0  0  0  0  0  0  0
  128.9137  123.5828   56.5338 H   0  0  0  0  0  0  0  0  0  0  0  0
  127.3146  123.8740   57.3422 H   0  0  0  0  0  0  0  0  0  0  0  0
  127.9006  125.5311   55.5120 H   0  0  0  0  0  0  0  0  0  0  0  0
  127.5427  126.2554   57.1178 H   0  0  0  0  0  0  0  0  0  0  0  0
  130.2898  125.7579   55.8616 H   0  0  0  0  0  0  0  0  0  0  0  0
  129.5088  127.3466   56.2582 H   0  0  0  0  0  0  0  0  0  0  0  0
  131.2812  126.7009   57.8988 H   0  0  0  0  0  0  0  0  0  0  0  0
  129.6216  126.8593   58.6327 H   0  0  0  0  0  0  0  0  0  0  0  0
  1  2  2  0
  2  3  1  0
  2  4  1  0
  4  5  2  0
  5  6  1  0
  6  7  1  0
  7  8  1  0
  7  9  1  0
  7 10  1  0
  6 11  2  0
 11 12  1  0
 12 13  1  0
 13 14  1  0
 14 15  1  0
 15 16  1  0
 16 17  1  0
 11 18  1  0
 18 19  2  0
 19 20  1  0
 20 21  1  0
 21 22  1  0
 22 23  1  0
 23 24  1  0
 24 25  1  0
 19  4  1  0
 25 20  1  0
 17 12  1  0
  5 26  1  0
 13 27  1  0
 13 28  1  0
 14 29  1  0
 14 30  1  0
 15 31  1  0
 15 32  1  0
 16 33  1  0
 16 34  1  0
 17 35  1  0
 17 36  1  0
 18 37  1  0
 21 38  1  0
 21 39  1  0
 22 40  1  0
 22 41  1  0
 23 42  1  0
 23 43  1  0
 24 44  1  0
 24 45  1  0
 25 46  1  0
 25 47  1  0
M  CHG  2   2   1   3  -1
M  END
>  <Binding energies>  (1) 
[-6.33]

>  <Ligand effiencies>  (1) 
[-0.2532]

>  <Interactions>  (1) 
["V-A:ASP:366:CA:3210, V-A:GLY:454:CA:4049, V-B:GLU:543:CB:9878, H-A:TYR:531:OH:4795, V-B:TYR:539:CE2:9848, V-A:TYR:484:CE2:4346, V-B:GLU:543:CG:9879, V-A:ASP:366:CG:3213, V-B:TYR:539:CZ:9849, H-A:ASN:370:N:3244, H-B:TYR:539:OH:9850, V-A:TYR:484:CZ:4347, V-A:GLY:453:C:4042, V-A:ILE:369:CD1:3239, V-A:ASP:366:C:3208, V-A:ASP:366:CB:3212, V-A:LEU:475:CD2:4259, V-A:ARG:545:CZ:4926, V-A:GLY:453:CA:4044, V-B:TYR:539:CE1:9847"]

$$$$
ZINC43200201
     RDKit          3D

 50 53  0  0  0  0  0  0  0  0999 V2000
  133.5200  124.0030   58.0670 O   0  0  0  0  0  0  0  0  0  0  0  0
  132.7680  124.5360   58.8910 C   0  0  0  0  0  0  0  0  0  0  0  0
  131.7260  125.3610   58.5560 O   0  0  0  0  0  0  0  0  0  0  0  0
  130.4290  124.8980   58.5850 C   0  0  0  0  0  0  0  0  0  0  0  0
  130.0170  123.9640   59.5370 C   0  0  0  0  0  0  0  0  0  0  0  0
  128.7020  123.4960   59.5720 C   0  0  0  0  0  0  0  0  0  0  0  0
  128.3440  122.5760   60.5340 O   0  0  0  0  0  0  0  0  0  0  0  0
  127.6590  122.9860   61.6470 C   0  0  0  0  0  0  0  0  0  0  0  0
  126.4400  122.8540   61.7970 O   0  0  0  0  0  0  0  0  0  0  0  0
  128.5480  123.6140   62.6820 C   0  0  0  0  0  0  0  0  0  0  0  0
  128.6310  125.0110   62.7630 C   0  0  0  0  0  0  0  0  0  0  0  0
  129.4520  125.6290   63.7090 C   0  0  0  0  0  0  0  0  0  0  0  0
  129.4990  127.0000   63.7520 O   0  0  0  0  0  0  0  0  0  0  0  0
  130.2100  124.8520   64.5930 C   0  0  0  0  0  0  0  0  0  0  0  0
  131.0230  125.4550   65.5250 O   0  0  0  0  0  0  0  0  0  0  0  0
  130.1370  123.4560   64.5220 C   0  0  0  0  0  0  0  0  0  0  0  0
  130.8680  122.6660   65.3750 O   0  0  0  0  0  0  0  0  0  0  0  0
  129.3120  122.8450   63.5750 C   0  0  0  0  0  0  0  0  0  0  0  0
  127.7450  124.0070   58.6450 C   0  0  0  0  0  0  0  0  0  0  0  0
  126.3860  123.5870   58.6390 C   0  0  0  0  0  0  0  0  0  0  0  0
  125.4860  124.1110   57.7150 C   0  0  0  0  0  0  0  0  0  0  0  0
  125.8980  125.0560   56.7840 C   0  0  0  0  0  0  0  0  0  0  0  0
  127.2180  125.4930   56.7580 C   0  0  0  0  0  0  0  0  0  0  0  0
  128.1620  124.9800   57.6830 C   0  0  0  0  0  0  0  0  0  0  0  0
  129.5110  125.4120   57.6740 C   0  0  0  0  0  0  0  0  0  0  0  0
  132.9160  124.3480   60.3740 C   0  0  0  0  0  0  0  0  0  0  0  0
  132.4700  125.3530   61.2440 C   0  0  0  0  0  0  0  0  0  0  0  0
  132.5900  125.2110   62.6280 C   0  0  0  0  0  0  0  0  0  0  0  0
  132.1390  126.2200   63.4420 O   0  0  0  0  0  0  0  0  0  0  0  0
  133.1620  124.0530   63.1670 C   0  0  0  0  0  0  0  0  0  0  0  0
  133.2800  123.9120   64.5300 O   0  0  0  0  0  0  0  0  0  0  0  0
  133.6120  123.0410   62.3090 C   0  0  0  0  0  0  0  0  0  0  0  0
  134.1790  121.8940   62.8050 O   0  0  0  0  0  0  0  0  0  0  0  0
  133.4900  123.1910   60.9270 C   0  0  0  0  0  0  0  0  0  0  0  0
  130.7425  123.5893   60.2741 H   0  0  0  0  0  0  0  0  0  0  0  0
  128.0407  125.6298   62.0712 H   0  0  0  0  0  0  0  0  0  0  0  0
  130.3670  127.3410   63.9780 H   0  0  0  0  0  0  0  0  0  0  0  0
  131.1200  126.3980   65.3750 H   0  0  0  0  0  0  0  0  0  0  0  0
  131.6270  123.1190   65.7490 H   0  0  0  0  0  0  0  0  0  0  0  0
  129.2600  121.7472   63.5280 H   0  0  0  0  0  0  0  0  0  0  0  0
  126.0429  122.8412   59.3712 H   0  0  0  0  0  0  0  0  0  0  0  0
  124.4391  123.7736   57.7223 H   0  0  0  0  0  0  0  0  0  0  0  0
  125.1745  125.4619   56.0616 H   0  0  0  0  0  0  0  0  0  0  0  0
  127.5316  126.2413   56.0152 H   0  0  0  0  0  0  0  0  0  0  0  0
  129.8367  126.1623   56.9385 H   0  0  0  0  0  0  0  0  0  0  0  0
  132.0189  126.2669   60.8302 H   0  0  0  0  0  0  0  0  0  0  0  0
  132.2680  126.0350   64.3750 H   0  0  0  0  0  0  0  0  0  0  0  0
  132.4580  124.0970   64.9910 H   0  0  0  0  0  0  0  0  0  0  0  0
  135.0620  121.7310   62.4630 H   0  0  0  0  0  0  0  0  0  0  0  0
  133.8483  122.3921   60.2612 H   0  0  0  0  0  0  0  0  0  0  0  0
  1  2  2  0
  2  3  1  0
  3  4  1  0
  4  5  2  0
  5  6  1  0
  6  7  1  0
  7  8  1  0
  8  9  2  0
  8 10  1  0
 10 11  2  0
 11 12  1  0
 12 13  1  0
 12 14  2  0
 14 15  1  0
 14 16  1  0
 16 17  1  0
 16 18  2  0
  6 19  2  0
 19 20  1  0
 20 21  2  0
 21 22  1  0
 22 23  2  0
 23 24  1  0
 24 25  2  0
  2 26  1  0
 26 27  2  0
 27 28  1  0
 28 29  1  0
 28 30  2  0
 30 31  1  0
 30 32  1  0
 32 33  1  0
 32 34  2  0
 25  4  1  0
 34 26  1  0
 18 10  1  0
 24 19  1  0
  5 35  1  0
 11 36  1  0
 13 37  1  0
 15 38  1  0
 17 39  1  0
 18 40  1  0
 20 41  1  0
 21 42  1  0
 22 43  1  0
 23 44  1  0
 25 45  1  0
 27 46  1  0
 29 47  1  0
 31 48  1  0
 33 49  1  0
 34 50  1  0
M  END
>  <Binding energies>  (1) 
[-7.31]

>  <Ligand effiencies>  (1) 
[-0.18275]

>  <Interactions>  (1) 
["V-A:ILE:369:CG2:3237, V-B:PRO:540:CA:9855, V-A:GLY:454:CA:4049, H-A:GLU:543:OE2:4910, V-B:ALA:541:CB:9864, V-B:TYR:539:CE2:9848, V-A:TYR:484:CE2:4346, V-B:GLU:543:CG:9879, V-A:ASP:366:CG:3213, V-B:TYR:539:CZ:9849, V-B:TYR:531:CZ:9766, H-B:TYR:539:OH:9850, H-B:ALA:541:N:9863, V-B:TYR:531:CE2:9765, V-B:PRO:540:CB:9857, H-A:GLY:454:N:4050, V-B:PRO:540:N:9856, V-A:ILE:369:CD1:3239, V-B:TYR:539:CD2:9846, V-B:GLU:543:CD:9880, V-A:ASP:366:CB:3212, H-A:ARG:545:NH2:4928, V-A:ARG:545:CZ:4926, H-A:GLU:543:OE1:4909, H-A:ARG:545:NE:4924, H-A:SER:385:O:3406, V-B:PRO:540:C:9853, V-B:MET:535:CE:9807, H-A:TYR:484:OH:4348"]

$$$$
ZINC4326602
     RDKit          3D

 62 65  0  0  0  0  0  0  0  0999 V2000
  134.4060  123.4760   62.0480 C   0  0  0  0  0  0  0  0  0  0  0  0
  133.1710  124.2140   62.5910 C   0  0  1  0  0  0  0  0  0  0  0  0
  132.2030  124.2090   61.5330 O   0  0  0  0  0  0  0  0  0  0  0  0
  131.8970  125.3640   60.8280 C   0  0  0  0  0  0  0  0  0  0  0  0
  131.1520  126.4340   61.3560 C   0  0  0  0  0  0  0  0  0  0  0  0
  130.8840  127.5640   60.5840 C   0  0  0  0  0  0  0  0  0  0  0  0
  131.3570  127.6440   59.2760 C   0  0  0  0  0  0  0  0  0  0  0  0
  131.0270  129.0440   58.3210 Cl  0  0  0  0  0  0  0  0  0  0  0  0
  132.0970  126.5920   58.7410 C   0  0  0  0  0  0  0  0  0  0  0  0
  132.3680  125.4590   59.5100 C   0  0  0  0  0  0  0  0  0  0  0  0
  133.2860  124.1740   58.8090 Cl  0  0  0  0  0  0  0  0  0  0  0  0
  132.6110  123.4850   63.8440 C   0  0  0  0  0  0  0  0  0  0  0  0
  132.9670  122.3310   64.0820 O   0  0  0  0  0  0  0  0  0  0  0  0
  131.7360  124.1020   64.6620 N   0  0  0  0  0  0  0  0  0  0  0  0
  131.3050  125.3630   64.4800 N   0  0  0  0  0  0  0  0  0  0  0  0
  130.0800  125.5160   64.7880 C   0  0  0  0  0  0  0  0  0  0  0  0
  129.3600  126.8010   64.6850 C   0  0  0  0  0  0  0  0  0  0  0  0
  129.1290  127.3940   63.4320 C   0  0  0  0  0  0  0  0  0  0  0  0
  128.4390  128.5990   63.3170 C   0  0  0  0  0  0  0  0  0  0  0  0
  127.9490  129.2370   64.4560 C   0  0  0  0  0  0  0  0  0  0  0  0
  127.2780  130.4340   64.3480 O   0  0  0  0  0  0  0  0  0  0  0  0
  127.9800  131.5980   64.1800 C   0  0  0  0  0  0  0  0  0  0  0  0
  128.0310  132.5020   65.0210 O   0  0  0  0  0  0  0  0  0  0  0  0
  128.6990  131.6640   62.8630 C   0  0  0  0  0  0  0  0  0  0  0  0
  130.0940  131.8140   62.7840 C   0  0  0  0  0  0  0  0  0  0  0  0
  130.7290  131.8770   61.5470 C   0  0  0  0  0  0  0  0  0  0  0  0
  129.9780  131.7910   60.3790 C   0  0  0  0  0  0  0  0  0  0  0  0
  128.5960  131.6400   60.4370 C   0  0  0  0  0  0  0  0  0  0  0  0
  127.9590  131.5780   61.6740 C   0  0  0  0  0  0  0  0  0  0  0  0
  128.1780  128.6710   65.7100 C   0  0  0  0  0  0  0  0  0  0  0  0
  128.8820  127.4690   65.8370 C   0  0  0  0  0  0  0  0  0  0  0  0
  129.0590  126.9560   67.1070 O   0  0  0  0  0  0  0  0  0  0  0  0
  128.2130  127.3290   68.1190 C   0  0  0  0  0  0  0  0  0  0  0  0
  127.0020  127.5270   67.9690 O   0  0  0  0  0  0  0  0  0  0  0  0
  128.9100  127.4850   69.4400 C   0  0  0  0  0  0  0  0  0  0  0  0
  128.2690  127.1980   70.6560 C   0  0  0  0  0  0  0  0  0  0  0  0
  128.9440  127.3540   71.8650 C   0  0  0  0  0  0  0  0  0  0  0  0
  130.2640  127.7970   71.8670 C   0  0  0  0  0  0  0  0  0  0  0  0
  130.9140  128.0860   70.6710 C   0  0  0  0  0  0  0  0  0  0  0  0
  130.2400  127.9310   69.4630 C   0  0  0  0  0  0  0  0  0  0  0  0
  135.0148  123.1122   62.8888 H   0  0  0  0  0  0  0  0  0  0  0  0
  134.0826  122.6230   61.4334 H   0  0  0  0  0  0  0  0  0  0  0  0
  135.0040  124.1649   61.4334 H   0  0  0  0  0  0  0  0  0  0  0  0
  133.4213  125.2403   62.8977 H   0  0  0  0  0  0  0  0  0  0  0  0
  130.7769  126.3788   62.3886 H   0  0  0  0  0  0  0  0  0  0  0  0
  130.2985  128.3930   61.0082 H   0  0  0  0  0  0  0  0  0  0  0  0
  132.4695  126.6544   57.7079 H   0  0  0  0  0  0  0  0  0  0  0  0
  131.3640  123.6330   65.4750 H   0  0  0  0  0  0  0  0  0  0  0  0
  129.5246  124.6393   65.1525 H   0  0  0  0  0  0  0  0  0  0  0  0
  129.5004  126.8968   62.5238 H   0  0  0  0  0  0  0  0  0  0  0  0
  128.2804  129.0481   62.3254 H   0  0  0  0  0  0  0  0  0  0  0  0
  130.6887  131.8822   63.7069 H   0  0  0  0  0  0  0  0  0  0  0  0
  131.8214  131.9944   61.4930 H   0  0  0  0  0  0  0  0  0  0  0  0
  130.4807  131.8428   59.4020 H   0  0  0  0  0  0  0  0  0  0  0  0
  128.0088  131.5699   59.5095 H   0  0  0  0  0  0  0  0  0  0  0  0
  126.8662  131.4606   61.7192 H   0  0  0  0  0  0  0  0  0  0  0  0
  127.8000  129.1765   66.6109 H   0  0  0  0  0  0  0  0  0  0  0  0
  127.2264  126.8475   70.6541 H   0  0  0  0  0  0  0  0  0  0  0  0
  128.4360  127.1280   72.8141 H   0  0  0  0  0  0  0  0  0  0  0  0
  130.7971  127.9195   72.8213 H   0  0  0  0  0  0  0  0  0  0  0  0
  131.9569  128.4357   70.6802 H   0  0  0  0  0  0  0  0  0  0  0  0
  130.7546  128.1602   68.5182 H   0  0  0  0  0  0  0  0  0  0  0  0
  1  2  1  0
  2  3  1  0
  3  4  1  0
  4  5  2  0
  5  6  1  0
  6  7  2  0
  7  8  1  0
  7  9  1  0
  9 10  2  0
 10 11  1  0
  2 12  1  0
 12 13  2  0
 12 14  1  0
 14 15  1  0
 15 16  2  0
 16 17  1  0
 17 18  2  0
 18 19  1  0
 19 20  2  0
 20 21  1  0
 21 22  1  0
 22 23  2  0
 22 24  1  0
 24 25  2  0
 25 26  1  0
 26 27  2  0
 27 28  1  0
 28 29  2  0
 20 30  1  0
 30 31  2  0
 31 32  1  0
 32 33  1  0
 33 34  2  0
 33 35  1  0
 35 36  2  0
 36 37  1  0
 37 38  2  0
 38 39  1  0
 39 40  2  0
 10  4  1  0
 31 17  1  0
 40 35  1  0
 29 24  1  0
  1 41  1  0
  1 42  1  0
  1 43  1  0
  2 44  1  1
  5 45  1  0
  6 46  1  0
  9 47  1  0
 14 48  1  0
 16 49  1  0
 18 50  1  0
 19 51  1  0
 25 52  1  0
 26 53  1  0
 27 54  1  0
 28 55  1  0
 29 56  1  0
 30 57  1  0
 36 58  1  0
 37 59  1  0
 38 60  1  0
 39 61  1  0
 40 62  1  0
M  END
>  <Binding energies>  (1) 
[-8.66]

>  <Ligand effiencies>  (1) 
[-0.21121951219512194]

>  <Interactions>  (1) 
["V-A:ILE:369:CG2:3237, V-A:ASP:366:CA:3210, V-A:GLY:454:CA:4049, V-A:GLU:543:C:4902, V-B:GLU:543:CB:9878, V-B:TYR:539:CE2:9848, V-B:GLU:543:CG:9879, V-A:GLY:544:C:4912, V-A:ASP:366:CG:3213, V-B:TYR:539:CZ:9849, V-A:ALA:541:CB:4892, V-A:TYR:484:CZ:4347, V-A:GLU:543:CD:4908, H-B:TYR:484:OH:9319, V-B:HIS:456:CE1:9041, H-A:GLY:454:N:4050, V-A:ILE:369:CD1:3239, V-A:HIS:456:CE1:4070, V-A:GLU:543:CG:4907, V-B:GLU:543:CD:9880, V-A:ASP:366:CB:3212, V-A:LEU:475:CD2:4259, V-A:GLU:543:CB:4906, V-A:PRO:540:CA:4883, H-A:TYR:484:OH:4348"]

$$$$
ZINC43379589
     RDKit          3D

 42 44  0  0  0  0  0  0  0  0999 V2000
  129.3480  128.0390   75.6150 C   0  0  0  0  0  0  0  0  0  0  0  0
  128.6800  128.6350   74.4490 N   0  0  0  0  0  0  0  0  0  0  0  0
  127.5760  129.5520   74.8450 C   0  0  0  0  0  0  0  0  0  0  0  0
  127.9280  131.0100   74.5670 C   0  0  0  0  0  0  0  0  0  0  0  0
  126.9720  132.0090   74.7680 C   0  0  0  0  0  0  0  0  0  0  0  0
  127.2830  133.3360   74.4870 C   0  0  0  0  0  0  0  0  0  0  0  0
  128.5490  133.6620   74.0020 C   0  0  0  0  0  0  0  0  0  0  0  0
  129.5050  132.6690   73.7930 C   0  0  0  0  0  0  0  0  0  0  0  0
  129.1930  131.3420   74.0730 C   0  0  0  0  0  0  0  0  0  0  0  0
  129.2970  128.4580   73.1750 C   0  0  0  0  0  0  0  0  0  0  0  0
  130.4950  128.8000   73.2670 O   0  0  0  0  0  0  0  0  0  0  0  0
  128.6560  128.0140   72.1460 N   0  0  0  0  0  0  0  0  0  0  0  0
  129.1410  127.8170   70.8780 C   0  0  0  0  0  0  0  0  0  0  0  0
  130.3170  128.0930   70.3490 N   0  0  0  0  0  0  0  0  0  0  0  0
  130.4180  127.7370   69.0110 N   0  0  0  0  0  0  0  0  0  0  0  0
  129.3200  127.1950   68.5480 C   0  0  0  0  0  0  0  0  0  0  0  0
  129.1100  126.6250   66.8990 S   0  0  0  0  0  0  0  0  0  0  0  0
  129.8830  124.9880   67.0970 C   0  0  0  0  0  0  0  0  0  0  0  0
  130.8130  124.6800   65.9350 C   0  0  0  0  0  0  0  0  0  0  0  0
  132.0130  125.3840   65.7950 C   0  0  0  0  0  0  0  0  0  0  0  0
  132.8650  125.1000   64.7310 C   0  0  0  0  0  0  0  0  0  0  0  0
  132.5160  124.1140   63.8110 C   0  0  0  0  0  0  0  0  0  0  0  0
  131.3200  123.4100   63.9440 C   0  0  0  0  0  0  0  0  0  0  0  0
  130.4690  123.6920   65.0090 C   0  0  0  0  0  0  0  0  0  0  0  0
  128.0500  127.0930   69.7310 S   0  0  0  0  0  0  0  0  0  0  0  0
  128.9008  128.4380   76.5374 H   0  0  0  0  0  0  0  0  0  0  0  0
  129.2236  126.9463   75.5900 H   0  0  0  0  0  0  0  0  0  0  0  0
  130.4195  128.2867   75.5900 H   0  0  0  0  0  0  0  0  0  0  0  0
  126.6721  129.2886   74.2761 H   0  0  0  0  0  0  0  0  0  0  0  0
  127.4074  129.4396   75.9262 H   0  0  0  0  0  0  0  0  0  0  0  0
  125.9737  131.7466   75.1483 H   0  0  0  0  0  0  0  0  0  0  0  0
  126.5330  134.1247   74.6469 H   0  0  0  0  0  0  0  0  0  0  0  0
  128.7955  134.7113   73.7825 H   0  0  0  0  0  0  0  0  0  0  0  0
  130.5012  132.9332   73.4086 H   0  0  0  0  0  0  0  0  0  0  0  0
  129.9420  130.5540   73.9056 H   0  0  0  0  0  0  0  0  0  0  0  0
  130.4603  124.9738   68.0332 H   0  0  0  0  0  0  0  0  0  0  0  0
  129.0894  124.2267   67.1217 H   0  0  0  0  0  0  0  0  0  0  0  0
  132.2836  126.1614   66.5247 H   0  0  0  0  0  0  0  0  0  0  0  0
  133.8097  125.6519   64.6174 H   0  0  0  0  0  0  0  0  0  0  0  0
  133.1904  123.8887   62.9717 H   0  0  0  0  0  0  0  0  0  0  0  0
  131.0501  122.6355   63.2110 H   0  0  0  0  0  0  0  0  0  0  0  0
  129.5259  123.1371   65.1214 H   0  0  0  0  0  0  0  0  0  0  0  0
  1  2  1  0
  2  3  1  0
  3  4  1  0
  4  5  2  0
  5  6  1  0
  6  7  2  0
  7  8  1  0
  8  9  2  0
  2 10  1  0
 10 11  1  0
 10 12  2  0
 12 13  1  0
 13 14  2  0
 14 15  1  0
 15 16  2  0
 16 17  1  0
 17 18  1  0
 18 19  1  0
 19 20  2  0
 20 21  1  0
 21 22  2  0
 22 23  1  0
 23 24  2  0
 16 25  1  0
  9  4  1  0
 25 13  1  0
 24 19  1  0
  1 26  1  0
  1 27  1  0
  1 28  1  0
  3 29  1  0
  3 30  1  0
  5 31  1  0
  6 32  1  0
  7 33  1  0
  8 34  1  0
  9 35  1  0
 18 36  1  0
 18 37  1  0
 20 38  1  0
 21 39  1  0
 22 40  1  0
 23 41  1  0
 24 42  1  0
M  CHG  1  11  -1
M  END
>  <Binding energies>  (1) 
[-7.33]

>  <Ligand effiencies>  (1) 
[-0.2932]

>  <Interactions>  (1) 
["V-A:HIS:456:CE1:4070, V-B:GLU:543:C:9874, V-B:HIS:456:CD2:9039, V-B:ASP:473:CB:9210, V-A:LYS:547:CE:4950, V-B:GLU:543:CB:9878, V-B:ASP:473:CG:9211, V-B:HIS:456:CB:9036, V-A:ARG:545:CZ:4926, V-B:TYR:484:CB:9312, V-A:TYR:484:CZ:4347, V-A:TYR:484:CE2:4346, H-A:LYS:547:NZ:4951, V-A:LEU:475:CD2:4259, V-B:GLU:543:CG:9879, V-B:HIS:456:CE1:9041, V-B:GLU:543:CA:9876, V-A:GLU:543:CB:4906"]

$$$$
ZINC43589896
     RDKit          3D

 83 84  0  0  0  0  0  0  0  0999 V2000
  129.7610  133.0230   57.8320 C   0  0  0  0  0  0  0  0  0  0  0  0
  129.4470  132.9130   59.3320 C   0  0  0  0  0  0  0  0  0  0  0  0
  130.4170  132.0940   60.0790 N   0  0  0  0  0  0  0  0  0  0  0  0
  131.1420  131.0960   59.2640 C   0  0  0  0  0  0  0  0  0  0  0  0
  130.2920  129.9330   58.6970 C   0  0  0  0  0  0  0  0  0  0  0  0
  130.0630  128.7710   59.6810 C   0  0  0  0  0  0  0  0  0  0  0  0
  130.9830  127.5870   59.4190 C   0  0  0  0  0  0  0  0  0  0  0  0
  131.4730  126.8370   60.4900 C   0  0  0  0  0  0  0  0  0  0  0  0
  132.3190  125.7580   60.2540 C   0  0  0  0  0  0  0  0  0  0  0  0
  132.6870  125.4130   58.9460 C   0  0  0  0  0  0  0  0  0  0  0  0
  133.5940  124.2650   58.6940 N   0  0  0  0  0  0  0  0  0  0  0  0
  134.0530  123.6540   59.6550 O   0  0  0  0  0  0  0  0  0  0  0  0
  133.8530  123.9650   57.5310 O   0  0  0  0  0  0  0  0  0  0  0  0
  132.1860  126.1710   57.8780 C   0  0  0  0  0  0  0  0  0  0  0  0
  131.3380  127.2520   58.1130 C   0  0  0  0  0  0  0  0  0  0  0  0
  130.5850  132.1840   61.4270 C   0  0  0  0  0  0  0  0  0  0  0  0
  131.7030  132.2120   61.9480 O   0  0  0  0  0  0  0  0  0  0  0  0
  129.3370  132.2380   62.3340 C   0  0  0  0  0  0  0  0  0  0  0  0
  128.8900  130.8800   62.6310 N   0  0  0  0  0  0  0  0  0  0  0  0
  127.6300  130.4430   62.4840 C   0  0  0  0  0  0  0  0  0  0  0  0
  126.7130  131.1190   62.0160 O   0  0  0  0  0  0  0  0  0  0  0  0
  127.3830  128.9810   62.9150 C   0  0  1  0  0  0  0  0  0  0  0  0
  128.3660  127.9440   62.3090 C   0  0  0  0  0  0  0  0  0  0  0  0
  128.5640  126.6660   63.1580 C   0  0  0  0  0  0  0  0  0  0  0  0
  129.9700  126.0400   63.0710 C   0  0  0  0  0  0  0  0  0  0  0  0
  130.7420  126.1590   64.3220 N   0  0  0  0  0  0  0  0  0  0  0  0
  131.2150  125.1590   65.0940 C   0  0  0  0  0  0  0  0  0  0  0  0
  131.0030  123.8620   64.8130 N   0  0  0  0  0  0  0  0  0  0  0  0
  131.9290  125.4710   66.1840 N   0  0  0  0  0  0  0  0  0  0  0  0
  127.3290  128.8430   64.3750 N   0  0  0  0  0  0  0  0  0  0  0  0
  127.9670  129.6030   65.2860 C   0  0  0  0  0  0  0  0  0  0  0  0
  128.7250  130.5340   65.0070 O   0  0  0  0  0  0  0  0  0  0  0  0
  127.6790  129.2590   66.7650 C   0  0  1  0  0  0  0  0  0  0  0  0
  126.2510  128.9170   66.8660 N   0  0  0  0  0  0  0  0  0  0  0  0
  128.5920  128.1390   67.3250 C   0  0  0  0  0  0  0  0  0  0  0  0
  128.3450  127.7200   68.7690 C   0  0  0  0  0  0  0  0  0  0  0  0
  129.2790  128.0560   69.7720 C   0  0  0  0  0  0  0  0  0  0  0  0
  129.0610  127.6560   71.1050 C   0  0  0  0  0  0  0  0  0  0  0  0
  127.9040  126.9300   71.4450 C   0  0  0  0  0  0  0  0  0  0  0  0
  127.6900  126.5520   72.7380 O   0  0  0  0  0  0  0  0  0  0  0  0
  126.9650  126.5990   70.4490 C   0  0  0  0  0  0  0  0  0  0  0  0
  127.1890  126.9880   69.1120 C   0  0  0  0  0  0  0  0  0  0  0  0
  130.7915  133.3840   57.6986 H   0  0  0  0  0  0  0  0  0  0  0  0
  129.6551  132.0342   57.3617 H   0  0  0  0  0  0  0  0  0  0  0  0
  129.0612  133.7295   57.3617 H   0  0  0  0  0  0  0  0  0  0  0  0
  129.4430  133.9256   59.7616 H   0  0  0  0  0  0  0  0  0  0  0  0
  128.4694  132.4168   59.4214 H   0  0  0  0  0  0  0  0  0  0  0  0
  131.5987  131.6240   58.4140 H   0  0  0  0  0  0  0  0  0  0  0  0
  131.8665  130.6273   59.9462 H   0  0  0  0  0  0  0  0  0  0  0  0
  129.3104  130.3351   58.4057 H   0  0  0  0  0  0  0  0  0  0  0  0
  130.8558  129.5181   57.8485 H   0  0  0  0  0  0  0  0  0  0  0  0
  130.2417  129.1356   60.7033 H   0  0  0  0  0  0  0  0  0  0  0  0
  129.0282  128.4226   59.5474 H   0  0  0  0  0  0  0  0  0  0  0  0
  131.1902  127.0992   61.5202 H   0  0  0  0  0  0  0  0  0  0  0  0
  132.7025  125.1704   61.1012 H   0  0  0  0  0  0  0  0  0  0  0  0
  132.4645  125.9104   56.8462 H   0  0  0  0  0  0  0  0  0  0  0  0
  130.9492  127.8403   57.2688 H   0  0  0  0  0  0  0  0  0  0  0  0
  129.5880  132.7545   63.2722 H   0  0  0  0  0  0  0  0  0  0  0  0
  128.5330  132.7833   61.8181 H   0  0  0  0  0  0  0  0  0  0  0  0
  129.5860  130.2550   63.0090 H   0  0  0  0  0  0  0  0  0  0  0  0
  126.3970  128.7403   62.4910 H   0  0  0  0  0  0  0  0  0  0  0  0
  127.9820  127.6438   61.3229 H   0  0  0  0  0  0  0  0  0  0  0  0
  129.3472  128.4387   62.2599 H   0  0  0  0  0  0  0  0  0  0  0  0
  128.3680  126.9209   64.2100 H   0  0  0  0  0  0  0  0  0  0  0  0
  127.8673  125.9166   62.7543 H   0  0  0  0  0  0  0  0  0  0  0  0
  129.8621  124.9726   62.8279 H   0  0  0  0  0  0  0  0  0  0  0  0
  130.5228  126.5892   62.2945 H   0  0  0  0  0  0  0  0  0  0  0  0
  130.9660  127.1040   64.6020 H   0  0  0  0  0  0  0  0  0  0  0  0
  131.3800  123.1410   65.4110 H   0  0  0  0  0  0  0  0  0  0  0  0
  130.4670  123.6040   63.9960 H   0  0  0  0  0  0  0  0  0  0  0  0
  132.1040  126.4380   66.4180 H   0  0  0  0  0  0  0  0  0  0  0  0
  132.2950  124.7400   66.7790 H   0  0  0  0  0  0  0  0  0  0  0  0
  126.7270  128.1050   64.7100 H   0  0  0  0  0  0  0  0  0  0  0  0
  127.9110  130.1319   67.3929 H   0  0  0  0  0  0  0  0  0  0  0  0
  125.6850  129.7130   66.6060 H   0  0  0  0  0  0  0  0  0  0  0  0
  126.0160  128.1940   66.2010 H   0  0  0  0  0  0  0  0  0  0  0  0
  128.4577  127.2500   66.6913 H   0  0  0  0  0  0  0  0  0  0  0  0
  129.6087  128.5586   67.3131 H   0  0  0  0  0  0  0  0  0  0  0  0
  130.1796  128.6317   69.5123 H   0  0  0  0  0  0  0  0  0  0  0  0
  129.7966  127.9116   71.8819 H   0  0  0  0  0  0  0  0  0  0  0  0
  126.7760  126.3180   72.9150 H   0  0  0  0  0  0  0  0  0  0  0  0
  126.0571  126.0372   70.7138 H   0  0  0  0  0  0  0  0  0  0  0  0
  126.4595  126.7196   68.3337 H   0  0  0  0  0  0  0  0  0  0  0  0
  1  2  1  0
  2  3  1  0
  3  4  1  0
  4  5  1  0
  5  6  1  0
  6  7  1  0
  7  8  2  0
  8  9  1  0
  9 10  2  0
 10 11  1  0
 11 12  2  0
 11 13  1  0
 10 14  1  0
 14 15  2  0
  3 16  1  0
 16 17  2  0
 16 18  1  0
 18 19  1  0
 19 20  1  0
 20 21  2  0
 20 22  1  0
 22 23  1  0
 23 24  1  0
 24 25  1  0
 25 26  1  0
 26 27  1  0
 27 28  1  0
 27 29  2  0
 22 30  1  0
 30 31  1  0
 31 32  2  0
 31 33  1  0
 33 34  1  0
 33 35  1  0
 35 36  1  0
 36 37  2  0
 37 38  1  0
 38 39  2  0
 39 40  1  0
 39 41  1  0
 41 42  2  0
 15  7  1  0
 42 36  1  0
  1 43  1  0
  1 44  1  0
  1 45  1  0
  2 46  1  0
  2 47  1  0
  4 48  1  0
  4 49  1  0
  5 50  1  0
  5 51  1  0
  6 52  1  0
  6 53  1  0
  8 54  1  0
  9 55  1  0
 14 56  1  0
 15 57  1  0
 18 58  1  0
 18 59  1  0
 19 60  1  0
 22 61  1  6
 23 62  1  0
 23 63  1  0
 24 64  1  0
 24 65  1  0
 25 66  1  0
 25 67  1  0
 26 68  1  0
 28 69  1  0
 28 70  1  0
 29 71  1  0
 29 72  1  0
 30 73  1  0
 33 74  1  1
 34 75  1  0
 34 76  1  0
 35 77  1  0
 35 78  1  0
 37 79  1  0
 38 80  1  0
 40 81  1  0
 41 82  1  0
 42 83  1  0
M  CHG  3  11   1  13  -1  29   1
M  END
>  <Binding energies>  (1) 
[-11.38]

>  <Ligand effiencies>  (1) 
[-0.21884615384615386]

>  <Interactions>  (1) 
["V-A:ILE:369:CG2:3237, V-A:ASP:366:CA:3210, V-B:GLU:543:C:9874, H-A:GLU:543:OE2:4910, H-B:GLU:543:O:9875, H-A:ALA:541:N:4891, V-A:ILE:369:CB:3236, V-A:PRO:540:C:4881, H-B:LYS:547:NZ:9923, V-B:GLU:543:CB:9878, V-B:TYR:539:CE2:9848, V-A:TYR:484:CE2:4346, V-B:GLU:543:CG:9879, V-A:ASP:366:CG:3213, H-A:ASN:370:N:3244, H-B:GLU:543:OE1:9881, H-B:TYR:539:OH:9850, V-A:ALA:541:CB:4892, V-A:GLU:543:CD:4908, V-A:TYR:484:CZ:4347, H-B:TYR:484:OH:9319, V-B:HIS:456:CE1:9041, V-B:GLU:543:CA:9876, V-A:HIS:456:CE1:4070, V-B:TYR:484:CZ:9318, V-A:ASP:366:C:3208, V-B:GLY:544:C:9884, V-B:GLY:544:CA:9886, V-A:TYR:531:CZ:4794, V-A:GLU:543:CG:4907, V-B:GLU:543:CD:9880, V-A:TYR:539:C:4867, V-A:ASP:366:CB:3212, H-A:GLU:543:OE1:4909, V-A:GLU:543:CB:4906, H-B:GLY:544:O:9885, V-A:PRO:540:N:4884, H-B:GLU:543:OE2:9882, V-A:PRO:540:CA:4883, V-A:PRO:540:CB:4885, H-A:TYR:484:OH:4348"]

$$$$
ZINC437479830
     RDKit          3D

 68 70  0  0  0  0  0  0  0  0999 V2000
  126.4290  127.8170   73.7840 C   0  0  0  0  0  0  0  0  0  0  0  0
  127.5830  128.4880   73.9660 C   0  0  0  0  0  0  0  0  0  0  0  0
  127.6000  129.9040   74.5210 C   0  0  0  0  0  0  0  0  0  0  0  0
  128.9580  127.9030   73.6300 C   0  0  2  0  0  0  0  0  0  0  0  0
  129.8880  128.9130   73.2170 O   0  0  0  0  0  0  0  0  0  0  0  0
  130.6300  128.5090   72.0700 C   0  0  0  0  0  0  0  0  0  0  0  0
  130.4120  127.0040   72.0020 C   0  0  0  0  0  0  0  0  0  0  0  0
  128.9830  126.8440   72.4990 C   0  0  2  0  0  0  0  0  0  0  0  0
  127.9160  127.0120   71.3830 C   0  0  0  0  0  0  0  0  0  0  0  0
  128.4780  126.8450   70.0450 N   0  0  0  0  0  0  0  0  0  0  0  0
  129.0290  127.8300   69.3130 C   0  0  0  0  0  0  0  0  0  0  0  0
  129.1100  128.9950   69.7080 O   0  0  0  0  0  0  0  0  0  0  0  0
  129.5750  127.4310   67.9220 C   0  0  2  0  0  0  0  0  0  0  0  0
  128.4400  127.6170   66.8810 C   0  0  0  0  0  0  0  0  0  0  0  0
  128.9660  127.2580   65.4740 C   0  0  0  0  0  0  0  0  0  0  0  0
  129.5400  125.8140   65.4600 C   0  0  1  0  0  0  0  0  0  0  0  0
  130.1250  125.4060   64.0890 C   0  0  0  0  0  0  0  0  0  0  0  0
  129.6110  124.5030   63.4270 O   0  0  0  0  0  0  0  0  0  0  0  0
  131.2530  126.0370   63.7100 N   0  0  0  0  0  0  0  0  0  0  0  0
  132.0020  125.7790   62.4800 C   0  0  0  0  0  0  0  0  0  0  0  0
  133.0770  124.6700   62.6370 C   0  0  1  0  0  0  0  0  0  0  0  0
  132.6450  123.5000   63.5040 C   0  0  0  0  0  0  0  0  0  0  0  0
  133.5990  122.3970   63.0750 C   0  0  0  0  0  0  0  0  0  0  0  0
  133.7330  122.5900   61.6740 O   0  0  0  0  0  0  0  0  0  0  0  0
  133.5430  123.9680   61.3330 C   0  0  1  0  0  0  0  0  0  0  0  0
  132.6300  124.1070   60.1130 C   0  0  0  0  0  0  0  0  0  0  0  0
  131.3510  123.6920   60.1360 C   0  0  0  0  0  0  0  0  0  0  0  0
  133.2360  124.7540   58.8750 C   0  0  0  0  0  0  0  0  0  0  0  0
  130.5550  125.5100   66.5970 C   0  0  0  0  0  0  0  0  0  0  0  0
  129.9770  125.9330   67.9660 C   0  0  0  0  0  0  0  0  0  0  0  0
  126.4455  126.7937   73.3809 H   0  0  0  0  0  0  0  0  0  0  0  0
  125.4703  128.2925   74.0385 H   0  0  0  0  0  0  0  0  0  0  0  0
  127.5996  129.8670   75.6204 H   0  0  0  0  0  0  0  0  0  0  0  0
  128.5045  130.4238   74.1720 H   0  0  0  0  0  0  0  0  0  0  0  0
  126.7083  130.4453   74.1720 H   0  0  0  0  0  0  0  0  0  0  0  0
  129.2353  127.4234   74.5803 H   0  0  0  0  0  0  0  0  0  0  0  0
  130.2474  129.0009   71.1636 H   0  0  0  0  0  0  0  0  0  0  0  0
  131.6940  128.7802   72.1368 H   0  0  0  0  0  0  0  0  0  0  0  0
  130.5158  126.6354   70.9708 H   0  0  0  0  0  0  0  0  0  0  0  0
  131.1434  126.4323   72.5921 H   0  0  0  0  0  0  0  0  0  0  0  0
  128.7178  125.8369   72.8532 H   0  0  0  0  0  0  0  0  0  0  0  0
  127.1280  126.2591   71.5316 H   0  0  0  0  0  0  0  0  0  0  0  0
  127.5156  128.0341   71.4532 H   0  0  0  0  0  0  0  0  0  0  0  0
  128.4590  125.9100   69.6650 H   0  0  0  0  0  0  0  0  0  0  0  0
  130.4438  128.0493   67.6519 H   0  0  0  0  0  0  0  0  0  0  0  0
  127.5971  126.9579   67.1362 H   0  0  0  0  0  0  0  0  0  0  0  0
  128.1033  128.6642   66.8897 H   0  0  0  0  0  0  0  0  0  0  0  0
  128.1403  127.3264   64.7504 H   0  0  0  0  0  0  0  0  0  0  0  0
  129.7667  127.9619   65.2031 H   0  0  0  0  0  0  0  0  0  0  0  0
  128.6570  125.1878   65.6554 H   0  0  0  0  0  0  0  0  0  0  0  0
  131.6170  126.7670   64.3060 H   0  0  0  0  0  0  0  0  0  0  0  0
  131.2930  125.4698   61.6978 H   0  0  0  0  0  0  0  0  0  0  0  0
  132.5286  126.7086   62.2181 H   0  0  0  0  0  0  0  0  0  0  0  0
  133.8829  125.2751   63.0779 H   0  0  0  0  0  0  0  0  0  0  0  0
  132.7628  123.7332   64.5725 H   0  0  0  0  0  0  0  0  0  0  0  0
  131.5850  123.2331   63.3809 H   0  0  0  0  0  0  0  0  0  0  0  0
  134.5709  122.5014   63.5796 H   0  0  0  0  0  0  0  0  0  0  0  0
  133.2312  121.3928   63.3326 H   0  0  0  0  0  0  0  0  0  0  0  0
  134.4610  124.4715   60.9958 H   0  0  0  0  0  0  0  0  0  0  0  0
  130.7197  123.8057   59.2424 H   0  0  0  0  0  0  0  0  0  0  0  0
  130.9361  123.2388   61.0484 H   0  0  0  0  0  0  0  0  0  0  0  0
  133.9583  125.5252   59.1807 H   0  0  0  0  0  0  0  0  0  0  0  0
  133.7492  123.9881   58.2750 H   0  0  0  0  0  0  0  0  0  0  0  0
  132.4382  125.2161   58.2750 H   0  0  0  0  0  0  0  0  0  0  0  0
  130.7690  124.4311   66.6122 H   0  0  0  0  0  0  0  0  0  0  0  0
  131.4787  126.0774   66.4103 H   0  0  0  0  0  0  0  0  0  0  0  0
  129.0904  125.3228   68.1932 H   0  0  0  0  0  0  0  0  0  0  0  0
  130.7381  125.7822   68.7457 H   0  0  0  0  0  0  0  0  0  0  0  0
  1  2  2  0
  2  3  1  0
  2  4  1  0
  4  5  1  0
  5  6  1  0
  6  7  1  0
  7  8  1  0
  8  9  1  0
  9 10  1  0
 10 11  1  0
 11 12  2  0
 11 13  1  0
 13 14  1  0
 14 15  1  0
 15 16  1  0
 16 17  1  0
 17 18  2  0
 17 19  1  0
 19 20  1  0
 20 21  1  0
 21 22  1  0
 22 23  1  0
 23 24  1  0
 24 25  1  0
 25 26  1  0
 26 27  2  0
 26 28  1  0
 16 29  1  0
 29 30  1  0
  8  4  1  0
 30 13  1  0
 25 21  1  0
  1 31  1  0
  1 32  1  0
  3 33  1  0
  3 34  1  0
  3 35  1  0
  4 36  1  1
  6 37  1  0
  6 38  1  0
  7 39  1  0
  7 40  1  0
  8 41  1  1
  9 42  1  0
  9 43  1  0
 10 44  1  0
 13 45  1  1
 14 46  1  0
 14 47  1  0
 15 48  1  0
 15 49  1  0
 16 50  1  6
 19 51  1  0
 20 52  1  0
 20 53  1  0
 21 54  1  1
 22 55  1  0
 22 56  1  0
 23 57  1  0
 23 58  1  0
 25 59  1  6
 27 60  1  0
 27 61  1  0
 28 62  1  0
 28 63  1  0
 28 64  1  0
 29 65  1  0
 29 66  1  0
 30 67  1  0
 30 68  1  0
M  END
>  <Binding energies>  (1) 
[-7.98]

>  <Ligand effiencies>  (1) 
[-0.249375]

>  <Interactions>  (1) 
["V-A:ASP:366:CA:3210, V-A:GLY:454:CA:4049, V-B:GLU:543:C:9874, H-A:GLU:543:OE2:4910, H-B:GLU:543:O:9875, V-B:HIS:456:CD2:9039, V-A:GLU:543:C:4902, V-B:GLU:543:CB:9878, V-B:HIS:456:CB:9036, V-B:TYR:539:CE2:9848, V-A:GLY:544:CA:4914, V-A:GLY:544:C:4912, V-B:GLU:543:CG:9879, V-A:HIS:456:CD2:4068, V-A:ASP:366:CG:3213, V-B:LYS:547:CE:9922, V-A:GLU:543:CD:4908, V-B:HIS:456:CE1:9041, V-A:HIS:456:CE1:4070, V-A:ILE:369:CD1:3239, V-B:GLY:544:C:9884, V-B:GLU:543:CD:9880, V-B:HIS:456:CG:9037, V-A:ASP:366:CB:3212, H-A:LYS:547:NZ:4951, V-A:LEU:475:CD2:4259, V-A:ARG:545:CZ:4926, H-A:GLU:543:OE1:4909, V-A:HIS:456:CG:4066, V-A:GLU:543:CB:4906, H-A:HIS:456:NE2:4071"]

$$$$
ZINC4394531
     RDKit          3D

 35 37  0  0  0  0  0  0  0  0999 V2000
  134.1770  124.3590   60.7330 C   0  0  0  0  0  0  0  0  0  0  0  0
  132.9240  123.6020   61.1140 C   0  0  0  0  0  0  0  0  0  0  0  0
  132.3500  122.8970   60.1620 N   0  0  0  0  0  0  0  0  0  0  0  0
  131.2060  122.2150   60.5290 N   0  0  0  0  0  0  0  0  0  0  0  0
  130.8770  122.5230   62.1720 S   0  0  0  0  0  0  0  0  0  0  0  0
  132.2840  123.5360   62.3480 C   0  0  0  0  0  0  0  0  0  0  0  0
  132.6180  124.1720   63.6080 C   0  0  0  0  0  0  0  0  0  0  0  0
  133.9390  124.3890   63.8140 O   0  0  0  0  0  0  0  0  0  0  0  0
  134.1050  125.0290   65.0370 N   0  0  0  0  0  0  0  0  0  0  0  0
  132.9040  125.1790   65.5500 C   0  0  0  0  0  0  0  0  0  0  0  0
  132.7900  125.8430   66.9090 C   0  0  0  0  0  0  0  0  0  0  0  0
  131.9050  124.6600   64.7030 C   0  0  0  0  0  0  0  0  0  0  0  0
  130.4560  124.6450   64.9310 C   0  0  0  0  0  0  0  0  0  0  0  0
  129.7340  123.6940   64.6090 O   0  0  0  0  0  0  0  0  0  0  0  0
  130.0530  125.8070   65.5270 O   0  0  0  0  0  0  0  0  0  0  0  0
  129.8140  125.6820   66.9120 N   0  0  0  0  0  0  0  0  0  0  0  0
  129.2560  126.7400   67.3440 C   0  0  0  0  0  0  0  0  0  0  0  0
  128.8830  126.9570   68.7470 C   0  0  0  0  0  0  0  0  0  0  0  0
  127.5490  126.7730   69.1380 C   0  0  0  0  0  0  0  0  0  0  0  0
  127.1550  126.9730   70.4610 C   0  0  0  0  0  0  0  0  0  0  0  0
  128.0920  127.3640   71.4160 C   0  0  0  0  0  0  0  0  0  0  0  0
  129.4220  127.5510   71.0470 C   0  0  0  0  0  0  0  0  0  0  0  0
  130.5840  128.0350   72.2280 Cl  0  0  0  0  0  0  0  0  0  0  0  0
  129.8150  127.3490   69.7230 C   0  0  0  0  0  0  0  0  0  0  0  0
  134.7043  124.6776   61.6443 H   0  0  0  0  0  0  0  0  0  0  0  0
  134.8334  123.7062   60.1388 H   0  0  0  0  0  0  0  0  0  0  0  0
  133.9045  125.2437   60.1388 H   0  0  0  0  0  0  0  0  0  0  0  0
  132.9197  125.0877   67.6981 H   0  0  0  0  0  0  0  0  0  0  0  0
  133.5690  126.6134   67.0072 H   0  0  0  0  0  0  0  0  0  0  0  0
  131.7986  126.3094   67.0072 H   0  0  0  0  0  0  0  0  0  0  0  0
  129.0397  127.5414   66.6222 H   0  0  0  0  0  0  0  0  0  0  0  0
  126.8024  126.4665   68.3905 H   0  0  0  0  0  0  0  0  0  0  0  0
  126.1046  126.8221   70.7507 H   0  0  0  0  0  0  0  0  0  0  0  0
  127.7817  127.5246   72.4590 H   0  0  0  0  0  0  0  0  0  0  0  0
  130.8674  127.4985   69.4400 H   0  0  0  0  0  0  0  0  0  0  0  0
  1  2  1  0
  2  3  1  0
  3  4  2  0
  4  5  1  0
  5  6  1  0
  6  7  1  0
  7  8  1  0
  8  9  1  0
  9 10  2  0
 10 11  1  0
 10 12  1  0
 12 13  1  0
 13 14  2  0
 13 15  1  0
 15 16  1  0
 16 17  2  0
 17 18  1  0
 18 19  2  0
 19 20  1  0
 20 21  2  0
 21 22  1  0
 22 23  1  0
 22 24  2  0
  6  2  2  0
 12  7  2  0
 24 18  1  0
  1 25  1  0
  1 26  1  0
  1 27  1  0
 11 28  1  0
 11 29  1  0
 11 30  1  0
 17 31  1  0
 19 32  1  0
 20 33  1  0
 21 34  1  0
 24 35  1  0
M  END
>  <Binding energies>  (1) 
[-7.64]

>  <Ligand effiencies>  (1) 
[-0.3183333333333333]

>  <Interactions>  (1) 
["V-A:ASP:366:CA:3210, V-B:GLU:543:C:9874, V-B:HIS:456:CD2:9039, V-B:GLU:543:CB:9878, H-A:ARG:545:NH1:4927, V-B:GLU:543:CG:9879, V-A:GLY:544:C:4912, V-A:ASP:366:CG:3213, V-A:GLU:543:CD:4908, V-B:HIS:456:CE1:9041, V-B:GLU:543:CA:9876, V-A:ARG:545:CG:4922, H-A:GLY:454:N:4050, V-A:HIS:456:CE1:4070, V-A:ILE:369:CD1:3239, V-B:GLY:544:C:9884, V-B:GLY:544:CA:9886, V-A:ARG:545:CD:4923, V-A:LEU:475:CD2:4259, H-A:ARG:545:NH2:4928, V-A:ARG:545:CZ:4926, H-A:ARG:545:NE:4924, H-A:TYR:484:OH:4348"]

$$$$
ZINC4429103
     RDKit          3D

 59 62  0  0  0  0  0  0  0  0999 V2000
  126.3780  123.9920   58.0890 C   0  0  0  0  0  0  0  0  0  0  0  0
  127.1610  122.7360   57.7250 C   0  0  0  0  0  0  0  0  0  0  0  0
  126.8480  122.0440   56.7550 O   0  0  0  0  0  0  0  0  0  0  0  0
  128.1840  122.5100   58.5710 O   0  0  0  0  0  0  0  0  0  0  0  0
  127.9610  122.4390   59.9780 C   0  0  0  0  0  0  0  0  0  0  0  0
  129.0930  123.1340   60.7580 C   0  0  0  0  0  0  0  0  0  0  0  0
  130.1000  122.5020   61.0950 O   0  0  0  0  0  0  0  0  0  0  0  0
  128.9310  124.6460   61.1100 C   0  0  1  0  0  0  0  0  0  0  0  0
  127.5330  124.9110   61.0370 O   0  0  0  0  0  0  0  0  0  0  0  0
  129.4530  124.9950   62.5400 C   0  0  0  0  0  0  0  0  0  0  0  0
  129.9730  126.4480   62.4740 C   0  0  0  0  0  0  0  0  0  0  0  0
  129.7240  126.8900   61.0240 C   0  0  1  0  0  0  0  0  0  0  0  0
  130.5460  128.0520   60.4090 C   0  0  2  0  0  0  0  0  0  0  0  0
  130.4750  129.3220   61.2700 C   0  0  0  0  0  0  0  0  0  0  0  0
  131.3710  130.4330   60.7070 C   0  0  2  0  0  0  0  0  0  0  0  0
  131.3650  131.7910   61.8780 Cl  0  0  0  0  0  0  0  0  0  0  0  0
  130.8890  130.7960   59.2860 C   0  0  0  0  0  0  0  0  0  0  0  0
  130.6060  132.0710   58.9120 C   0  0  0  0  0  0  0  0  0  0  0  0
  130.2180  132.4920   57.5770 C   0  0  0  0  0  0  0  0  0  0  0  0
  129.8650  133.6450   57.3360 O   0  0  0  0  0  0  0  0  0  0  0  0
  130.4100  131.4550   56.4720 C   0  0  0  0  0  0  0  0  0  0  0  0
  130.0710  130.0460   56.9860 C   0  0  0  0  0  0  0  0  0  0  0  0
  130.8300  129.5930   58.2840 C   0  0  1  0  0  0  0  0  0  0  0  0
  132.2950  129.2260   57.9120 C   0  0  0  0  0  0  0  0  0  0  0  0
  130.0490  128.3860   58.9620 C   0  0  1  0  0  0  0  0  0  0  0  0
  129.8850  127.0940   58.0910 C   0  0  0  0  0  0  0  0  0  0  0  0
  130.2950  126.9810   56.9370 O   0  0  0  0  0  0  0  0  0  0  0  0
  129.1720  125.9170   58.7890 C   0  0  0  0  0  0  0  0  0  0  0  0
  129.7840  125.5900   60.1830 C   0  0  2  0  0  0  0  0  0  0  0  0
  131.2550  125.0710   59.9980 C   0  0  0  0  0  0  0  0  0  0  0  0
  126.3207  124.0840   59.1836 H   0  0  0  0  0  0  0  0  0  0  0  0
  126.8863  124.8744   57.6730 H   0  0  0  0  0  0  0  0  0  0  0  0
  125.3620  123.9241   57.6730 H   0  0  0  0  0  0  0  0  0  0  0  0
  127.0068  122.9321   60.2152 H   0  0  0  0  0  0  0  0  0  0  0  0
  127.9345  121.3797   60.2731 H   0  0  0  0  0  0  0  0  0  0  0  0
  127.1860  124.9610   61.9310 H   0  0  0  0  0  0  0  0  0  0  0  0
  128.6361  124.9165   63.2725 H   0  0  0  0  0  0  0  0  0  0  0  0
  130.2474  124.3019   62.8539 H   0  0  0  0  0  0  0  0  0  0  0  0
  129.4191  127.0897   63.1750 H   0  0  0  0  0  0  0  0  0  0  0  0
  131.0344  126.5216   62.7535 H   0  0  0  0  0  0  0  0  0  0  0  0
  128.7465  127.3945   61.0180 H   0  0  0  0  0  0  0  0  0  0  0  0
  131.5914  127.7120   60.3702 H   0  0  0  0  0  0  0  0  0  0  0  0
  129.4350  129.6795   61.2948 H   0  0  0  0  0  0  0  0  0  0  0  0
  130.8275  129.0735   62.2819 H   0  0  0  0  0  0  0  0  0  0  0  0
  132.4192  130.1203   60.5910 H   0  0  0  0  0  0  0  0  0  0  0  0
  130.6766  132.8502   59.6852 H   0  0  0  0  0  0  0  0  0  0  0  0
  129.7492  131.7003   55.6275 H   0  0  0  0  0  0  0  0  0  0  0  0
  131.4617  131.4711   56.1500 H   0  0  0  0  0  0  0  0  0  0  0  0
  128.9919  130.0139   57.1971 H   0  0  0  0  0  0  0  0  0  0  0  0
  130.3918  129.3531   56.1942 H   0  0  0  0  0  0  0  0  0  0  0  0
  132.8810  129.0792   58.8313 H   0  0  0  0  0  0  0  0  0  0  0  0
  132.3018  128.2984   57.3208 H   0  0  0  0  0  0  0  0  0  0  0  0
  132.7383  130.0408   57.3208 H   0  0  0  0  0  0  0  0  0  0  0  0
  129.0292  128.7895   59.0467 H   0  0  0  0  0  0  0  0  0  0  0  0
  128.1112  126.1760   58.9216 H   0  0  0  0  0  0  0  0  0  0  0  0
  129.2953  125.0277   58.1534 H   0  0  0  0  0  0  0  0  0  0  0  0
  131.7135  124.9092   60.9847 H   0  0  0  0  0  0  0  0  0  0  0  0
  131.2419  124.1232   59.4399 H   0  0  0  0  0  0  0  0  0  0  0  0
  131.8396  125.8171   59.4399 H   0  0  0  0  0  0  0  0  0  0  0  0
  1  2  1  0
  2  3  2  0
  2  4  1  0
  4  5  1  0
  5  6  1  0
  6  7  2  0
  6  8  1  0
  8  9  1  1
  8 10  1  0
 10 11  1  0
 11 12  1  0
 12 13  1  0
 13 14  1  0
 14 15  1  0
 15 16  1  0
 15 17  1  0
 17 18  2  0
 18 19  1  0
 19 20  2  0
 19 21  1  0
 21 22  1  0
 22 23  1  0
 23 24  1  6
 23 25  1  0
 25 26  1  0
 26 27  2  0
 26 28  1  0
 28 29  1  0
 29 30  1  6
 29  8  1  0
 29 12  1  0
 25 13  1  0
 23 17  1  0
  1 31  1  0
  1 32  1  0
  1 33  1  0
  5 34  1  0
  5 35  1  0
  9 36  1  0
 10 37  1  0
 10 38  1  0
 11 39  1  0
 11 40  1  0
 12 41  1  1
 13 42  1  6
 14 43  1  0
 14 44  1  0
 15 45  1  6
 18 46  1  0
 21 47  1  0
 21 48  1  0
 22 49  1  0
 22 50  1  0
 24 51  1  0
 24 52  1  0
 24 53  1  0
 25 54  1  1
 28 55  1  0
 28 56  1  0
 30 57  1  0
 30 58  1  0
 30 59  1  0
M  END
>  <Binding energies>  (1) 
[-7.78]

>  <Ligand effiencies>  (1) 
[-0.2509677419354839]

>  <Interactions>  (1) 
["V-A:PRO:540:N:4884, V-B:PRO:540:CA:9855, H-A:TYR:539:N:4870, V-A:PRO:540:CB:4885, V-A:PRO:540:CA:4883, H-B:GLU:543:OE1:9881, V-A:TYR:531:CE2:4793, V-B:TYR:539:CD2:9846, V-A:TYR:531:CZ:4794, V-B:PRO:540:C:9853, V-A:MET:535:CE:4835, H-A:TYR:531:OH:4795, V-B:PRO:540:CB:9857, V-A:ASP:366:CB:3212, H-B:TYR:539:N:9842, V-B:TYR:539:C:9839, V-A:ASP:366:CG:3213, V-B:PRO:540:N:9856"]

$$$$
ZINC44352513
     RDKit          3D

 91 93  0  0  0  0  0  0  0  0999 V2000
  129.8290  116.9060   60.4970 C   0  0  0  0  0  0  0  0  0  0  0  0
  130.5700  117.7850   61.5150 C   0  0  0  0  0  0  0  0  0  0  0  0
  130.4670  119.2870   61.1980 C   0  0  0  0  0  0  0  0  0  0  0  0
  131.7470  119.8540   60.5600 C   0  0  0  0  0  0  0  0  0  0  0  0
  132.1970  121.1820   61.1970 C   0  0  0  0  0  0  0  0  0  0  0  0
  133.6220  121.1180   61.7730 C   0  0  0  0  0  0  0  0  0  0  0  0
  134.2390  122.5120   61.9900 C   0  0  0  0  0  0  0  0  0  0  0  0
  133.6720  123.5610   61.0460 C   0  0  0  0  0  0  0  0  0  0  0  0
  133.9250  123.4910   59.6720 C   0  0  0  0  0  0  0  0  0  0  0  0
  133.3930  124.4500   58.8090 C   0  0  0  0  0  0  0  0  0  0  0  0
  133.6360  124.3700   57.4630 O   0  0  0  0  0  0  0  0  0  0  0  0
  132.6100  125.4870   59.3160 C   0  0  0  0  0  0  0  0  0  0  0  0
  132.3680  125.5760   60.6920 C   0  0  0  0  0  0  0  0  0  0  0  0
  131.5780  126.5790   61.2080 O   0  0  0  0  0  0  0  0  0  0  0  0
  130.6880  126.3050   62.2090 C   0  0  0  0  0  0  0  0  0  0  0  0
  130.5460  126.9970   63.2200 O   0  0  0  0  0  0  0  0  0  0  0  0
  130.0090  124.9790   61.9960 C   0  0  0  0  0  0  0  0  0  0  0  0
  130.0780  123.9400   62.9600 C   0  0  0  0  0  0  0  0  0  0  0  0
  130.8730  124.0240   64.2720 C   0  0  0  0  0  0  0  0  0  0  0  0
  129.9920  124.2210   65.5260 C   0  0  0  0  0  0  0  0  0  0  0  0
  129.8840  125.6790   66.0140 C   0  0  0  0  0  0  0  0  0  0  0  0
  129.7150  125.7970   67.5380 C   0  0  0  0  0  0  0  0  0  0  0  0
  129.1740  127.1710   67.9720 C   0  0  0  0  0  0  0  0  0  0  0  0
  129.2710  127.4040   69.4890 C   0  0  0  0  0  0  0  0  0  0  0  0
  130.6140  128.0150   69.9130 C   0  0  0  0  0  0  0  0  0  0  0  0
  129.4170  122.7320   62.7170 C   0  0  0  0  0  0  0  0  0  0  0  0
  128.6870  122.5370   61.5530 C   0  0  0  0  0  0  0  0  0  0  0  0
  128.0500  121.3440   61.3350 O   0  0  0  0  0  0  0  0  0  0  0  0
  128.6010  123.5540   60.6120 C   0  0  0  0  0  0  0  0  0  0  0  0
  129.2450  124.7850   60.8180 C   0  0  0  0  0  0  0  0  0  0  0  0
  129.1550  125.8300   59.9090 O   0  0  0  0  0  0  0  0  0  0  0  0
  128.4980  127.0220   60.2260 C   0  0  2  0  0  0  0  0  0  0  0  0
  129.4380  127.9980   60.6110 O   0  0  0  0  0  0  0  0  0  0  0  0
  128.8330  129.2560   60.9290 C   0  0  2  0  0  0  0  0  0  0  0  0
  129.9470  130.3190   61.0230 C   0  0  0  0  0  0  0  0  0  0  0  0
  131.1040  129.8010   61.6470 O   0  0  0  0  0  0  0  0  0  0  0  0
  128.0030  129.0820   62.2260 C   0  0  2  0  0  0  0  0  0  0  0  0
  128.8180  128.7240   63.3330 O   0  0  0  0  0  0  0  0  0  0  0  0
  126.9260  128.0060   61.9640 C   0  0  2  0  0  0  0  0  0  0  0  0
  126.1170  127.7740   63.1050 O   0  0  0  0  0  0  0  0  0  0  0  0
  127.5600  126.7010   61.4100 C   0  0  1  0  0  0  0  0  0  0  0  0
  126.5730  125.7550   61.0380 O   0  0  0  0  0  0  0  0  0  0  0  0
  132.8890  124.6040   61.5500 C   0  0  0  0  0  0  0  0  0  0  0  0
  129.2089  116.1705   61.0304 H   0  0  0  0  0  0  0  0  0  0  0  0
  129.1869  117.5378   59.8657 H   0  0  0  0  0  0  0  0  0  0  0  0
  130.5603  116.3801   59.8657 H   0  0  0  0  0  0  0  0  0  0  0  0
  130.1397  117.6065   62.5115 H   0  0  0  0  0  0  0  0  0  0  0  0
  131.6347  117.5116   61.4732 H   0  0  0  0  0  0  0  0  0  0  0  0
  129.6296  119.4420   60.5018 H   0  0  0  0  0  0  0  0  0  0  0  0
  130.3112  119.8152   62.1503 H   0  0  0  0  0  0  0  0  0  0  0  0
  132.5545  119.1165   60.6785 H   0  0  0  0  0  0  0  0  0  0  0  0
  131.5271  120.0539   59.5009 H   0  0  0  0  0  0  0  0  0  0  0  0
  132.1641  121.9685   60.4287 H   0  0  0  0  0  0  0  0  0  0  0  0
  131.5132  121.3957   62.0317 H   0  0  0  0  0  0  0  0  0  0  0  0
  133.5875  120.5942   62.7397 H   0  0  0  0  0  0  0  0  0  0  0  0
  134.2512  120.5863   61.0440 H   0  0  0  0  0  0  0  0  0  0  0  0
  134.0407  122.8268   63.0252 H   0  0  0  0  0  0  0  0  0  0  0  0
  135.3172  122.4321   61.7872 H   0  0  0  0  0  0  0  0  0  0  0  0
  134.5458  122.6767   59.2701 H   0  0  0  0  0  0  0  0  0  0  0  0
  134.3410  124.9540   57.1770 H   0  0  0  0  0  0  0  0  0  0  0  0
  132.1820  126.2361   58.6336 H   0  0  0  0  0  0  0  0  0  0  0  0
  131.4428  123.0908   64.3921 H   0  0  0  0  0  0  0  0  0  0  0  0
  131.5226  124.9084   64.1958 H   0  0  0  0  0  0  0  0  0  0  0  0
  128.9788  123.8616   65.2930 H   0  0  0  0  0  0  0  0  0  0  0  0
  130.4751  123.6566   66.3372 H   0  0  0  0  0  0  0  0  0  0  0  0
  130.7993  126.2143   65.7213 H   0  0  0  0  0  0  0  0  0  0  0  0
  128.9855  126.1129   65.5510 H   0  0  0  0  0  0  0  0  0  0  0  0
  129.0131  125.0201   67.8752 H   0  0  0  0  0  0  0  0  0  0  0  0
  130.7089  125.6730   67.9927 H   0  0  0  0  0  0  0  0  0  0  0  0
  129.7531  127.9534   67.4596 H   0  0  0  0  0  0  0  0  0  0  0  0
  128.1083  127.2049   67.7017 H   0  0  0  0  0  0  0  0  0  0  0  0
  128.4633  128.0865   69.7920 H   0  0  0  0  0  0  0  0  0  0  0  0
  129.1835  126.4239   69.9806 H   0  0  0  0  0  0  0  0  0  0  0  0
  130.6740  128.0423   71.0110 H   0  0  0  0  0  0  0  0  0  0  0  0
  131.4371  127.4027   69.5159 H   0  0  0  0  0  0  0  0  0  0  0  0
  130.6932  129.0378   69.5159 H   0  0  0  0  0  0  0  0  0  0  0  0
  129.4766  121.9234   63.4603 H   0  0  0  0  0  0  0  0  0  0  0  0
  128.3650  120.8920   60.5490 H   0  0  0  0  0  0  0  0  0  0  0  0
  128.0201  123.3934   59.6918 H   0  0  0  0  0  0  0  0  0  0  0  0
  127.9364  127.4119   59.3643 H   0  0  0  0  0  0  0  0  0  0  0  0
  128.1340  129.6024   60.1535 H   0  0  0  0  0  0  0  0  0  0  0  0
  130.2077  130.6546   60.0084 H   0  0  0  0  0  0  0  0  0  0  0  0
  129.5739  131.1581   61.6286 H   0  0  0  0  0  0  0  0  0  0  0  0
  130.8940  128.9380   62.0140 H   0  0  0  0  0  0  0  0  0  0  0  0
  127.5305  130.0406   62.4865 H   0  0  0  0  0  0  0  0  0  0  0  0
  129.7350  128.7190   63.0470 H   0  0  0  0  0  0  0  0  0  0  0  0
  126.2521  128.3933   61.1857 H   0  0  0  0  0  0  0  0  0  0  0  0
  126.6890  127.7250   63.8760 H   0  0  0  0  0  0  0  0  0  0  0  0
  128.1554  126.2456   62.2150 H   0  0  0  0  0  0  0  0  0  0  0  0
  125.8390  125.8210   61.6530 H   0  0  0  0  0  0  0  0  0  0  0  0
  132.6818  124.6597   62.6289 H   0  0  0  0  0  0  0  0  0  0  0  0
  1  2  1  0
  2  3  1  0
  3  4  1  0
  4  5  1  0
  5  6  1  0
  6  7  1  0
  7  8  1  0
  8  9  2  0
  9 10  1  0
 10 11  1  0
 10 12  2  0
 12 13  1  0
 13 14  1  0
 14 15  1  0
 15 16  2  0
 15 17  1  0
 17 18  2  0
 18 19  1  0
 19 20  1  0
 20 21  1  0
 21 22  1  0
 22 23  1  0
 23 24  1  0
 24 25  1  0
 18 26  1  0
 26 27  2  0
 27 28  1  0
 27 29  1  0
 29 30  2  0
 30 31  1  0
 31 32  1  0
 32 33  1  0
 33 34  1  0
 34 35  1  0
 35 36  1  0
 34 37  1  0
 37 38  1  0
 37 39  1  0
 39 40  1  0
 39 41  1  0
 41 42  1  0
 13 43  2  0
 43  8  1  0
 30 17  1  0
 41 32  1  0
  1 44  1  0
  1 45  1  0
  1 46  1  0
  2 47  1  0
  2 48  1  0
  3 49  1  0
  3 50  1  0
  4 51  1  0
  4 52  1  0
  5 53  1  0
  5 54  1  0
  6 55  1  0
  6 56  1  0
  7 57  1  0
  7 58  1  0
  9 59  1  0
 11 60  1  0
 12 61  1  0
 19 62  1  0
 19 63  1  0
 20 64  1  0
 20 65  1  0
 21 66  1  0
 21 67  1  0
 22 68  1  0
 22 69  1  0
 23 70  1  0
 23 71  1  0
 24 72  1  0
 24 73  1  0
 25 74  1  0
 25 75  1  0
 25 76  1  0
 26 77  1  0
 28 78  1  0
 29 79  1  0
 32 80  1  6
 34 81  1  6
 35 82  1  0
 35 83  1  0
 36 84  1  0
 37 85  1  1
 38 86  1  0
 39 87  1  6
 40 88  1  0
 41 89  1  1
 42 90  1  0
 43 91  1  0
M  END
>  <Binding energies>  (1) 
[-6.93]

>  <Ligand effiencies>  (1) 
[-0.14142857142857143]

>  <Interactions>  (1) 
["V-A:ILE:369:CG2:3237, V-A:ASP:366:CA:3210, V-B:PRO:540:CA:9855, V-A:GLY:454:CA:4049, H-A:GLU:543:OE2:4910, V-A:ILE:369:CB:3236, V-A:GLU:543:C:4902, V-B:GLU:543:CB:9878, V-B:ALA:541:CB:9864, V-B:TYR:539:CE2:9848, V-A:TYR:484:CE2:4346, V-A:LEU:475:CG:4257, V-B:GLU:543:CG:9879, V-A:GLY:544:C:4912, V-B:TYR:539:C:9839, V-A:ASP:366:CG:3213, H-A:ASN:370:N:3244, H-B:GLU:543:OE1:9881, H-B:TYR:539:OH:9850, V-B:VAL:344:CG1:7972, H-B:ALA:541:N:9863, V-A:LEU:475:CD1:4258, V-A:HIS:383:CE1:3393, H-B:ASP:366:OD1:8185, V-A:SER:385:C:3405, V-A:ILE:369:CD1:3239, V-A:HIS:456:CE1:4070, V-A:PRO:482:CB:4326, V-B:TYR:539:CD2:9846, V-A:SER:385:CB:3409, V-B:GLU:543:CD:9880, V-A:ASP:366:CB:3212, V-A:LEU:475:CD2:4259, H-A:ARG:545:NH2:4928, H-A:GLU:543:OE1:4909, H-B:ARG:545:NH2:9900, H-A:ASP:366:O:3209, V-A:GLU:543:CB:4906, H-B:GLU:543:OE2:9882, V-A:PRO:482:CG:4327, H-B:TYR:539:O:9840, V-A:SER:385:CA:3407, H-A:ASP:366:OD2:3215, V-A:HIS:383:NE2:3394"]

$$$$
ZINC44358963
     RDKit          3D

 84 86  0  0  0  0  0  0  0  0999 V2000
  133.7830  122.6190   62.3200 C   0  0  0  0  0  0  0  0  0  0  0  0
  133.9120  124.1350   62.3830 C   0  0  0  0  0  0  0  0  0  0  0  0
  134.0260  124.7260   63.4580 O   0  0  0  0  0  0  0  0  0  0  0  0
  133.8850  124.6970   61.1610 O   0  0  0  0  0  0  0  0  0  0  0  0
  132.6830  124.7310   60.4000 C   0  0  0  0  0  0  0  0  0  0  0  0
  131.6720  125.7850   60.9450 C   0  0  1  0  0  0  0  0  0  0  0  0
  132.4790  126.7160   61.6480 O   0  0  0  0  0  0  0  0  0  0  0  0
  130.9240  126.5620   59.7930 C   0  0  1  0  0  0  0  0  0  0  0  0
  131.6810  127.7630   59.1470 C   0  0  0  0  0  0  0  0  0  0  0  0
  131.0260  129.1240   59.3800 C   0  0  0  0  0  0  0  0  0  0  0  0
  131.2720  129.7900   60.5850 C   0  0  0  0  0  0  0  0  0  0  0  0
  130.6910  131.0310   60.8460 C   0  0  0  0  0  0  0  0  0  0  0  0
  130.9590  131.6500   62.0400 O   0  0  0  0  0  0  0  0  0  0  0  0
  129.8480  131.6230   59.8960 C   0  0  0  0  0  0  0  0  0  0  0  0
  129.2020  132.9780   60.1550 C   0  0  0  0  0  0  0  0  0  0  0  0
  129.5990  130.9590   58.6920 C   0  0  0  0  0  0  0  0  0  0  0  0
  130.1790  129.7160   58.4300 C   0  0  0  0  0  0  0  0  0  0  0  0
  129.9090  129.1010   57.2340 O   0  0  0  0  0  0  0  0  0  0  0  0
  130.5710  125.6580   58.7390 O   0  0  0  0  0  0  0  0  0  0  0  0
  129.8120  126.0370   57.6860 C   0  0  0  0  0  0  0  0  0  0  0  0
  128.3260  125.8470   57.9540 C   0  0  0  0  0  0  0  0  0  0  0  0
  130.2200  126.4950   56.6180 O   0  0  0  0  0  0  0  0  0  0  0  0
  130.6790  125.1560   61.9840 C   0  0  2  0  0  0  0  0  0  0  0  0
  129.2290  125.6880   61.9500 C   0  0  0  0  0  0  0  0  0  0  0  0
  128.4290  124.4070   62.1910 C   0  0  0  0  0  0  0  0  0  0  0  0
  129.4580  123.3240   62.5400 C   0  0  2  0  0  0  0  0  0  0  0  0
  129.0670  121.9210   62.0420 C   0  0  0  0  0  0  0  0  0  0  0  0
  129.9580  123.3300   64.0020 C   0  0  0  0  0  0  0  0  0  0  0  0
  130.6300  124.6740   64.3860 C   0  0  2  0  0  0  0  0  0  0  0  0
  129.6750  125.6320   65.0900 C   0  0  0  0  0  0  0  0  0  0  0  0
  129.7860  126.0960   66.3560 C   0  0  0  0  0  0  0  0  0  0  0  0
  130.9400  125.7340   67.2810 C   0  0  0  0  0  0  0  0  0  0  0  0
  128.7760  127.0500   66.9980 C   0  0  0  0  0  0  0  0  0  0  0  0
  128.4260  126.8290   68.4840 C   0  0  0  0  0  0  0  0  0  0  0  0
  129.3480  127.5800   69.4320 C   0  0  0  0  0  0  0  0  0  0  0  0
  129.2760  127.6440   70.7790 C   0  0  0  0  0  0  0  0  0  0  0  0
  130.2980  128.4280   71.5850 C   0  0  0  0  0  0  0  0  0  0  0  0
  128.1960  126.9810   71.6230 C   0  0  0  0  0  0  0  0  0  0  0  0
  131.2700  125.3200   63.2680 O   0  0  0  0  0  0  0  0  0  0  0  0
  130.5400  123.7840   61.7520 O   0  0  0  0  0  0  0  0  0  0  0  0
  133.7483  122.2112   63.3410 H   0  0  0  0  0  0  0  0  0  0  0  0
  132.8588  122.3515   61.7867 H   0  0  0  0  0  0  0  0  0  0  0  0
  134.6487  122.1992   61.7867 H   0  0  0  0  0  0  0  0  0  0  0  0
  132.9301  124.9826   59.3581 H   0  0  0  0  0  0  0  0  0  0  0  0
  132.2099  123.7405   60.4707 H   0  0  0  0  0  0  0  0  0  0  0  0
  132.9920  126.2370   62.3050 H   0  0  0  0  0  0  0  0  0  0  0  0
  130.0523  126.9940   60.3063 H   0  0  0  0  0  0  0  0  0  0  0  0
  132.6973  127.7944   59.5667 H   0  0  0  0  0  0  0  0  0  0  0  0
  131.6696  127.5921   58.0604 H   0  0  0  0  0  0  0  0  0  0  0  0
  131.9313  129.3298   61.3357 H   0  0  0  0  0  0  0  0  0  0  0  0
  131.0610  131.0330   62.7680 H   0  0  0  0  0  0  0  0  0  0  0  0
  129.1224  133.1450   61.2393 H   0  0  0  0  0  0  0  0  0  0  0  0
  129.8193  133.7703   59.7063 H   0  0  0  0  0  0  0  0  0  0  0  0
  128.1978  132.9972   59.7063 H   0  0  0  0  0  0  0  0  0  0  0  0
  128.9391  131.4203   57.9426 H   0  0  0  0  0  0  0  0  0  0  0  0
  130.6510  128.5950   56.8960 H   0  0  0  0  0  0  0  0  0  0  0  0
  128.1491  125.8244   59.0395 H   0  0  0  0  0  0  0  0  0  0  0  0
  127.7635  126.6805   57.5081 H   0  0  0  0  0  0  0  0  0  0  0  0
  127.9913  124.8987   57.5081 H   0  0  0  0  0  0  0  0  0  0  0  0
  129.0533  126.4272   62.7455 H   0  0  0  0  0  0  0  0  0  0  0  0
  128.9655  126.2133   61.0201 H   0  0  0  0  0  0  0  0  0  0  0  0
  127.7247  124.5475   63.0242 H   0  0  0  0  0  0  0  0  0  0  0  0
  127.8371  124.1297   61.3063 H   0  0  0  0  0  0  0  0  0  0  0  0
  128.8838  121.2636   62.9047 H   0  0  0  0  0  0  0  0  0  0  0  0
  128.1537  121.9895   61.4327 H   0  0  0  0  0  0  0  0  0  0  0  0
  129.8841  121.5073   61.4327 H   0  0  0  0  0  0  0  0  0  0  0  0
  129.1011  123.1588   64.6701 H   0  0  0  0  0  0  0  0  0  0  0  0
  130.7109  122.5346   64.1046 H   0  0  0  0  0  0  0  0  0  0  0  0
  131.4179  124.4053   65.1051 H   0  0  0  0  0  0  0  0  0  0  0  0
  128.8081  125.9811   64.5098 H   0  0  0  0  0  0  0  0  0  0  0  0
  130.6167  125.8354   68.3275 H   0  0  0  0  0  0  0  0  0  0  0  0
  131.2497  124.6956   67.0919 H   0  0  0  0  0  0  0  0  0  0  0  0
  131.7873  126.4095   67.0919 H   0  0  0  0  0  0  0  0  0  0  0  0
  129.1802  128.0687   66.9036 H   0  0  0  0  0  0  0  0  0  0  0  0
  127.8352  126.8626   66.4597 H   0  0  0  0  0  0  0  0  0  0  0  0
  127.3944  127.1703   68.6552 H   0  0  0  0  0  0  0  0  0  0  0  0
  128.5446  125.7555   68.6928 H   0  0  0  0  0  0  0  0  0  0  0  0
  130.1725  128.1381   68.9644 H   0  0  0  0  0  0  0  0  0  0  0  0
  130.1081  128.2823   72.6587 H   0  0  0  0  0  0  0  0  0  0  0  0
  131.3095  128.0720   71.3399 H   0  0  0  0  0  0  0  0  0  0  0  0
  130.2162  129.4972   71.3399 H   0  0  0  0  0  0  0  0  0  0  0  0
  128.4258  127.1221   72.6894 H   0  0  0  0  0  0  0  0  0  0  0  0
  127.2211  127.4364   71.3947 H   0  0  0  0  0  0  0  0  0  0  0  0
  128.1608  125.9055   71.3947 H   0  0  0  0  0  0  0  0  0  0  0  0
  1  2  1  0
  2  3  2  0
  2  4  1  0
  4  5  1  0
  5  6  1  0
  6  7  1  1
  6  8  1  0
  8  9  1  0
  9 10  1  0
 10 11  2  0
 11 12  1  0
 12 13  1  0
 12 14  2  0
 14 15  1  0
 14 16  1  0
 16 17  2  0
 17 18  1  0
  8 19  1  0
 19 20  1  0
 20 21  1  0
 20 22  2  0
  6 23  1  0
 23 24  1  0
 24 25  1  0
 25 26  1  0
 26 27  1  6
 26 28  1  0
 28 29  1  0
 29 30  1  0
 30 31  2  0
 31 32  1  0
 31 33  1  0
 33 34  1  0
 34 35  1  0
 35 36  2  3
 36 37  1  0
 36 38  1  0
 29 39  1  0
 26 40  1  0
 17 10  1  0
 23 39  1  1
 40 23  1  0
  1 41  1  0
  1 42  1  0
  1 43  1  0
  5 44  1  0
  5 45  1  0
  7 46  1  0
  8 47  1  1
  9 48  1  0
  9 49  1  0
 11 50  1  0
 13 51  1  0
 15 52  1  0
 15 53  1  0
 15 54  1  0
 16 55  1  0
 18 56  1  0
 21 57  1  0
 21 58  1  0
 21 59  1  0
 24 60  1  0
 24 61  1  0
 25 62  1  0
 25 63  1  0
 27 64  1  0
 27 65  1  0
 27 66  1  0
 28 67  1  0
 28 68  1  0
 29 69  1  1
 30 70  1  0
 32 71  1  0
 32 72  1  0
 32 73  1  0
 33 74  1  0
 33 75  1  0
 34 76  1  0
 34 77  1  0
 35 78  1  0
 37 79  1  0
 37 80  1  0
 37 81  1  0
 38 82  1  0
 38 83  1  0
 38 84  1  0
M  END
>  <Binding energies>  (1) 
[-6.57]

>  <Ligand effiencies>  (1) 
[-0.1527906976744186]

>  <Interactions>  (1) 
["V-A:GLY:454:CA:4049, V-B:GLU:543:C:9874, V-A:GLU:543:C:4902, H-A:ALA:541:N:4891, V-B:GLU:543:CB:9878, V-B:ALA:541:CB:9864, H-A:ARG:545:NH1:4927, H-A:TYR:531:OH:4795, V-B:GLU:543:CG:9879, V-A:GLY:544:C:4912, V-A:ASP:366:CG:3213, H-B:TYR:539:OH:9850, V-A:GLU:543:CD:4908, V-B:HIS:456:CE1:9041, H-A:GLY:454:N:4050, V-A:ILE:369:CD1:3239, V-A:HIS:456:CE1:4070, V-B:GLU:543:CD:9880, V-A:TYR:539:C:4867, V-A:ASP:366:CB:3212, V-A:LEU:475:CD2:4259, H-A:ARG:545:NH2:4928, H-A:GLU:543:OE1:4909, V-A:GLU:543:CB:4906, H-A:ASP:366:OD1:3214, V-A:PRO:540:N:4884, V-A:PRO:540:CA:4883, H-A:ASP:366:OD2:3215"]

$$$$
ZINC44360377
     RDKit          3D

 94 97  0  0  0  0  0  0  0  0999 V2000
  130.6030  118.9380   61.1990 C   0  0  0  0  0  0  0  0  0  0  0  0
  131.0150  120.3720   60.8940 C   0  0  0  0  0  0  0  0  0  0  0  0
  132.1290  120.6370   60.4410 O   0  0  0  0  0  0  0  0  0  0  0  0
  130.0360  121.2590   61.1850 O   0  0  0  0  0  0  0  0  0  0  0  0
  130.1910  122.6620   60.9440 C   0  0  2  0  0  0  0  0  0  0  0  0
  130.9300  123.2750   62.1610 C   0  0  0  0  0  0  0  0  0  0  0  0
  131.9980  124.3380   61.7880 C   0  0  1  0  0  0  0  0  0  0  0  0
  132.0570  125.2820   62.8660 O   0  0  0  0  0  0  0  0  0  0  0  0
  132.4930  124.9370   64.0990 C   0  0  0  0  0  0  0  0  0  0  0  0
  131.3530  124.8490   65.1040 C   0  0  0  0  0  0  0  0  0  0  0  0
  133.6590  124.7200   64.4310 O   0  0  0  0  0  0  0  0  0  0  0  0
  133.4180  123.7610   61.4810 C   0  0  0  0  0  0  0  0  0  0  0  0
  133.7120  122.4320   62.2110 C   0  0  0  0  0  0  0  0  0  0  0  0
  133.6710  123.6150   59.9640 C   0  0  0  0  0  0  0  0  0  0  0  0
  134.3750  124.7050   61.9300 O   0  0  0  0  0  0  0  0  0  0  0  0
  128.8240  123.3410   60.6020 C   0  0  1  0  0  0  0  0  0  0  0  0
  127.8590  123.2980   61.8100 C   0  0  0  0  0  0  0  0  0  0  0  0
  128.9900  124.7780   59.9850 C   0  0  1  0  0  0  0  0  0  0  0  0
  128.9870  124.7960   58.4190 C   0  0  2  0  0  0  0  0  0  0  0  0
  130.2960  124.6240   57.9060 O   0  0  0  0  0  0  0  0  0  0  0  0
  128.3500  126.1430   57.9950 C   0  0  0  0  0  0  0  0  0  0  0  0
  128.2890  126.9970   59.2800 C   0  0  1  0  0  0  0  0  0  0  0  0
  129.7160  127.6400   59.4380 C   0  0  0  0  0  0  0  0  0  0  0  0
  127.1760  128.1070   59.3320 C   0  0  2  0  0  0  0  0  0  0  0  0
  127.2060  129.1340   58.1720 C   0  0  0  0  0  0  0  0  0  0  0  0
  127.9860  130.3870   58.5200 C   0  0  0  0  0  0  0  0  0  0  0  0
  128.3760  130.7910   59.7550 C   0  0  0  0  0  0  0  0  0  0  0  0
  127.9840  129.9770   61.0200 C   0  0  1  0  0  0  0  0  0  0  0  0
  127.5570  130.9460   62.1600 C   0  0  0  0  0  0  0  0  0  0  0  0
  128.6030  132.0130   62.4940 C   0  0  0  0  0  0  0  0  0  0  0  0
  128.9320  132.8440   61.2560 C   0  0  0  0  0  0  0  0  0  0  0  0
  128.8540  134.0740   61.2850 O   0  0  0  0  0  0  0  0  0  0  0  0
  129.3170  132.0160   59.9920 C   0  0  0  0  0  0  0  0  0  0  0  0
  130.7460  131.4650   60.2420 C   0  0  0  0  0  0  0  0  0  0  0  0
  129.3070  132.9900   58.7710 C   0  0  0  0  0  0  0  0  0  0  0  0
  126.9650  128.7900   60.7440 C   0  0  1  0  0  0  0  0  0  0  0  0
  125.4940  129.3300   60.7640 C   0  0  0  0  0  0  0  0  0  0  0  0
  127.0960  127.7570   61.9300 C   0  0  0  0  0  0  0  0  0  0  0  0
  126.4320  127.8440   62.9640 O   0  0  0  0  0  0  0  0  0  0  0  0
  128.0620  126.5600   61.7450 C   0  0  0  0  0  0  0  0  0  0  0  0
  127.9450  125.8890   60.3460 C   0  0  2  0  0  0  0  0  0  0  0  0
  126.5010  125.2670   60.2260 C   0  0  0  0  0  0  0  0  0  0  0  0
  130.5612  118.7924   62.2885 H   0  0  0  0  0  0  0  0  0  0  0  0
  129.6119  118.7409   60.7644 H   0  0  0  0  0  0  0  0  0  0  0  0
  131.3383  118.2449   60.7644 H   0  0  0  0  0  0  0  0  0  0  0  0
  130.8058  122.8447   60.0503 H   0  0  0  0  0  0  0  0  0  0  0  0
  130.1835  123.7505   62.8141 H   0  0  0  0  0  0  0  0  0  0  0  0
  131.4644  122.4499   62.6545 H   0  0  0  0  0  0  0  0  0  0  0  0
  131.6874  124.8079   60.8432 H   0  0  0  0  0  0  0  0  0  0  0  0
  131.7611  124.8805   66.1250 H   0  0  0  0  0  0  0  0  0  0  0  0
  130.6680  125.6969   64.9566 H   0  0  0  0  0  0  0  0  0  0  0  0
  130.8062  123.9060   64.9566 H   0  0  0  0  0  0  0  0  0  0  0  0
  133.6759  122.5951   63.2982 H   0  0  0  0  0  0  0  0  0  0  0  0
  132.9578  121.6832   61.9273 H   0  0  0  0  0  0  0  0  0  0  0  0
  134.7117  122.0712   61.9273 H   0  0  0  0  0  0  0  0  0  0  0  0
  134.6131  123.0713   59.8000 H   0  0  0  0  0  0  0  0  0  0  0  0
  132.8411  123.0569   59.5059 H   0  0  0  0  0  0  0  0  0  0  0  0
  133.7389  124.6128   59.5059 H   0  0  0  0  0  0  0  0  0  0  0  0
  133.9140  125.4140   62.3830 H   0  0  0  0  0  0  0  0  0  0  0  0
  128.3563  122.7467   59.8032 H   0  0  0  0  0  0  0  0  0  0  0  0
  128.4394  123.3239   62.7441 H   0  0  0  0  0  0  0  0  0  0  0  0
  127.1857  124.1670   61.7725 H   0  0  0  0  0  0  0  0  0  0  0  0
  127.2656  122.3725   61.7725 H   0  0  0  0  0  0  0  0  0  0  0  0
  129.9548  125.0190   60.4552 H   0  0  0  0  0  0  0  0  0  0  0  0
  128.4029  123.9604   58.0060 H   0  0  0  0  0  0  0  0  0  0  0  0
  130.2670  124.7310   56.9520 H   0  0  0  0  0  0  0  0  0  0  0  0
  128.9707  126.6385   57.2339 H   0  0  0  0  0  0  0  0  0  0  0  0
  127.3525  126.0002   57.5538 H   0  0  0  0  0  0  0  0  0  0  0  0
  129.9536  127.7471   60.5067 H   0  0  0  0  0  0  0  0  0  0  0  0
  130.4651  126.9924   58.9589 H   0  0  0  0  0  0  0  0  0  0  0  0
  129.7271  128.6301   58.9589 H   0  0  0  0  0  0  0  0  0  0  0  0
  126.2666  127.5118   59.1627 H   0  0  0  0  0  0  0  0  0  0  0  0
  127.6726  128.6611   57.2953 H   0  0  0  0  0  0  0  0  0  0  0  0
  126.1679  129.4348   57.9675 H   0  0  0  0  0  0  0  0  0  0  0  0
  128.2660  131.0393   57.6797 H   0  0  0  0  0  0  0  0  0  0  0  0
  128.8794  129.4384   61.3638 H   0  0  0  0  0  0  0  0  0  0  0  0
  126.6305  131.4537   61.8537 H   0  0  0  0  0  0  0  0  0  0  0  0
  127.4254  130.3347   63.0650 H   0  0  0  0  0  0  0  0  0  0  0  0
  128.2080  132.6741   63.2794 H   0  0  0  0  0  0  0  0  0  0  0  0
  129.5200  131.5158   62.8432 H   0  0  0  0  0  0  0  0  0  0  0  0
  130.9278  131.3949   61.3246 H   0  0  0  0  0  0  0  0  0  0  0  0
  130.8385  130.4667   59.7893 H   0  0  0  0  0  0  0  0  0  0  0  0
  131.4847  132.1428   59.7893 H   0  0  0  0  0  0  0  0  0  0  0  0
  129.2963  134.0293   59.1311 H   0  0  0  0  0  0  0  0  0  0  0  0
  130.2069  132.8225   58.1610 H   0  0  0  0  0  0  0  0  0  0  0  0
  128.4107  132.8041   58.1610 H   0  0  0  0  0  0  0  0  0  0  0  0
  125.1623  129.4518   61.8057 H   0  0  0  0  0  0  0  0  0  0  0  0
  125.4531  130.3018   60.2502 H   0  0  0  0  0  0  0  0  0  0  0  0
  124.8341  128.6155   60.2502 H   0  0  0  0  0  0  0  0  0  0  0  0
  129.0934  126.9196   61.8752 H   0  0  0  0  0  0  0  0  0  0  0  0
  127.7911  125.8022   62.4949 H   0  0  0  0  0  0  0  0  0  0  0  0
  126.0927  125.0911   61.2322 H   0  0  0  0  0  0  0  0  0  0  0  0
  125.8462  125.9628   59.6811 H   0  0  0  0  0  0  0  0  0  0  0  0
  126.5568  124.3131   59.6811 H   0  0  0  0  0  0  0  0  0  0  0  0
  1  2  1  0
  2  3  2  0
  2  4  1  0
  4  5  1  0
  5  6  1  0
  6  7  1  0
  7  8  1  0
  8  9  1  0
  9 10  1  0
  9 11  2  0
  7 12  1  0
 12 13  1  0
 12 14  1  0
 12 15  1  0
  5 16  1  0
 16 17  1  0
 16 18  1  0
 18 19  1  0
 19 20  1  0
 19 21  1  0
 21 22  1  0
 22 23  1  1
 22 24  1  0
 24 25  1  0
 25 26  1  0
 26 27  2  0
 27 28  1  0
 28 29  1  0
 29 30  1  0
 30 31  1  0
 31 32  2  0
 31 33  1  0
 33 34  1  0
 33 35  1  0
 28 36  1  0
 36 37  1  6
 36 38  1  0
 38 39  2  0
 38 40  1  0
 40 41  1  0
 41 42  1  6
 41 18  1  0
 41 22  1  0
 36 24  1  0
 33 27  1  0
  1 43  1  0
  1 44  1  0
  1 45  1  0
  5 46  1  6
  6 47  1  0
  6 48  1  0
  7 49  1  6
 10 50  1  0
 10 51  1  0
 10 52  1  0
 13 53  1  0
 13 54  1  0
 13 55  1  0
 14 56  1  0
 14 57  1  0
 14 58  1  0
 15 59  1  0
 16 60  1  6
 17 61  1  0
 17 62  1  0
 17 63  1  0
 18 64  1  1
 19 65  1  6
 20 66  1  0
 21 67  1  0
 21 68  1  0
 23 69  1  0
 23 70  1  0
 23 71  1  0
 24 72  1  6
 25 73  1  0
 25 74  1  0
 26 75  1  0
 28 76  1  1
 29 77  1  0
 29 78  1  0
 30 79  1  0
 30 80  1  0
 34 81  1  0
 34 82  1  0
 34 83  1  0
 35 84  1  0
 35 85  1  0
 35 86  1  0
 37 87  1  0
 37 88  1  0
 37 89  1  0
 40 90  1  0
 40 91  1  0
 42 92  1  0
 42 93  1  0
 42 94  1  0
M  END
>  <Binding energies>  (1) 
[-7.91]

>  <Ligand effiencies>  (1) 
[-0.17977272727272728]

>  <Interactions>  (1) 
["V-A:ILE:369:CG2:3237, V-A:GLY:454:CA:4049, V-A:ILE:369:CB:3236, H-A:ALA:541:N:4891, V-B:ASP:366:CG:8184, V-B:TYR:539:CE2:9848, V-A:TYR:539:CD1:4873, V-B:TYR:539:CZ:9849, H-B:TYR:539:OH:9850, H-A:GLY:454:N:4050, V-A:ILE:369:CD1:3239, V-B:TYR:539:CD2:9846, H-A:SER:385:OG:3410, V-B:GLU:543:CD:9880, V-A:TYR:539:C:4867, V-A:LEU:475:CD2:4259, H-A:ARG:545:NH2:4928, V-A:ARG:545:CZ:4926, H-B:ARG:545:NH2:9900, H-A:ASP:366:OD1:3214, V-A:PRO:540:N:4884, V-A:PRO:540:CB:4885, V-A:PRO:540:CA:4883, H-A:ARG:545:NE:4924, H-A:TYR:484:OH:4348"]

$$$$
ZINC4436153
     RDKit          3D

 47 50  0  0  0  0  0  0  0  0999 V2000
  133.9740  118.7180   58.2810 C   0  0  0  0  0  0  0  0  0  0  0  0
  132.5460  118.2920   57.9250 C   0  0  0  0  0  0  0  0  0  0  0  0
  131.4960  117.9560   59.3730 S   0  0  0  0  0  0  0  0  0  0  0  0
  131.5980  119.4950   60.2340 C   0  0  0  0  0  0  0  0  0  0  0  0
  132.6150  120.3420   60.1100 N   0  0  0  0  0  0  0  0  0  0  0  0
  132.2710  121.3180   60.9070 C   0  0  0  0  0  0  0  0  0  0  0  0
  131.0650  121.0530   61.5000 N   0  0  0  0  0  0  0  0  0  0  0  0
  130.6400  119.8610   61.0650 N   0  0  0  0  0  0  0  0  0  0  0  0
  130.2970  121.9540   62.3710 C   0  0  2  0  0  0  0  0  0  0  0  0
  129.0700  122.5150   61.6370 C   0  0  0  0  0  0  0  0  0  0  0  0
  127.9260  122.8770   62.3560 C   0  0  0  0  0  0  0  0  0  0  0  0
  126.8130  123.3840   61.6910 C   0  0  0  0  0  0  0  0  0  0  0  0
  126.8350  123.5300   60.3030 C   0  0  0  0  0  0  0  0  0  0  0  0
  125.6210  124.0900   59.5770 C   0  0  0  0  0  0  0  0  0  0  0  0
  125.8140  124.1430   58.0550 C   0  0  0  0  0  0  0  0  0  0  0  0
  127.9740  123.1670   59.5810 C   0  0  0  0  0  0  0  0  0  0  0  0
  129.0870  122.6610   60.2460 C   0  0  0  0  0  0  0  0  0  0  0  0
  131.2700  123.0500   62.8860 C   0  0  0  0  0  0  0  0  0  0  0  0
  132.4930  123.2500   62.3070 C   0  0  0  0  0  0  0  0  0  0  0  0
  133.4650  124.3360   62.7700 C   0  0  0  0  0  0  0  0  0  0  0  0
  133.2120  124.6740   64.2500 C   0  0  0  0  0  0  0  0  0  0  0  0
  131.7330  125.0200   64.4920 C   0  0  0  0  0  0  0  0  0  0  0  0
  130.7830  123.9210   63.9830 C   0  0  0  0  0  0  0  0  0  0  0  0
  129.6300  123.8560   64.4090 O   0  0  0  0  0  0  0  0  0  0  0  0
  132.9940  122.4190   61.3140 N   0  0  0  0  0  0  0  0  0  0  0  0
  134.0848  118.7511   59.3749 H   0  0  0  0  0  0  0  0  0  0  0  0
  134.6880  117.9937   57.8618 H   0  0  0  0  0  0  0  0  0  0  0  0
  134.1745  119.7151   57.8618 H   0  0  0  0  0  0  0  0  0  0  0  0
  132.0801  119.0975   57.3384 H   0  0  0  0  0  0  0  0  0  0  0  0
  132.6241  117.3508   57.3611 H   0  0  0  0  0  0  0  0  0  0  0  0
  129.8862  121.4166   63.2384 H   0  0  0  0  0  0  0  0  0  0  0  0
  127.9058  122.7608   63.4497 H   0  0  0  0  0  0  0  0  0  0  0  0
  125.9158  123.6697   62.2597 H   0  0  0  0  0  0  0  0  0  0  0  0
  124.7526  123.4526   59.7997 H   0  0  0  0  0  0  0  0  0  0  0  0
  125.4694  125.1211   59.9291 H   0  0  0  0  0  0  0  0  0  0  0  0
  126.8516  124.4279   57.8267 H   0  0  0  0  0  0  0  0  0  0  0  0
  125.6022  123.1534   57.6239 H   0  0  0  0  0  0  0  0  0  0  0  0
  125.1265  124.8856   57.6239 H   0  0  0  0  0  0  0  0  0  0  0  0
  127.9915  123.2810   58.4871 H   0  0  0  0  0  0  0  0  0  0  0  0
  129.9831  122.3749   59.6757 H   0  0  0  0  0  0  0  0  0  0  0  0
  134.4974  123.9758   62.6501 H   0  0  0  0  0  0  0  0  0  0  0  0
  133.3119  125.2400   62.1623 H   0  0  0  0  0  0  0  0  0  0  0  0
  133.4842  123.8061   64.8687 H   0  0  0  0  0  0  0  0  0  0  0  0
  133.8245  125.5471   64.5195 H   0  0  0  0  0  0  0  0  0  0  0  0
  131.5733  125.1527   65.5722 H   0  0  0  0  0  0  0  0  0  0  0  0
  131.5086  125.9419   63.9355 H   0  0  0  0  0  0  0  0  0  0  0  0
  133.9530  122.5350   61.0180 H   0  0  0  0  0  0  0  0  0  0  0  0
  1  2  1  0
  2  3  1  0
  3  4  1  0
  4  5  1  0
  5  6  2  0
  6  7  1  0
  7  8  1  0
  7  9  1  0
  9 10  1  0
 10 11  2  0
 11 12  1  0
 12 13  2  0
 13 14  1  0
 14 15  1  0
 13 16  1  0
 16 17  2  0
  9 18  1  0
 18 19  2  0
 19 20  1  0
 20 21  1  0
 21 22  1  0
 22 23  1  0
 23 24  2  0
 19 25  1  0
  8  4  2  0
 17 10  1  0
 23 18  1  0
 25  6  1  0
  1 26  1  0
  1 27  1  0
  1 28  1  0
  2 29  1  0
  2 30  1  0
  9 31  1  1
 11 32  1  0
 12 33  1  0
 14 34  1  0
 14 35  1  0
 15 36  1  0
 15 37  1  0
 15 38  1  0
 16 39  1  0
 17 40  1  0
 20 41  1  0
 20 42  1  0
 21 43  1  0
 21 44  1  0
 22 45  1  0
 22 46  1  0
 25 47  1  0
M  END
>  <Binding energies>  (1) 
[-7.06]

>  <Ligand effiencies>  (1) 
[-0.2715384615384615]

>  <Interactions>  (1) 
["V-A:ILE:369:CG2:3237, V-B:PRO:540:CA:9855, V-B:ALA:541:CB:9864, V-B:TYR:539:CE2:9848, V-A:VAL:384:C:3397, V-B:GLU:543:CG:9879, V-B:TYR:539:CB:9843, V-B:PRO:540:CB:9857, V-B:TYR:539:CD2:9846, V-A:SER:385:CB:3409, H-A:SER:385:OG:3410, V-B:GLU:543:CD:9880, V-A:LEU:475:CD2:4259, V-A:ARG:545:CZ:4926, V-B:TYR:539:CG:9844, V-A:HIS:383:CD2:3392, H-A:HIS:383:HE2:3395, V-A:LEU:373:CD1:3280, H-A:SER:385:O:3406, V-A:SER:385:CA:3407, V-A:HIS:383:NE2:3394"]

$$$$
ZINC4474616-again1
     RDKit          3D

 28 30  0  0  0  0  0  0  0  0999 V2000
  135.4970  124.7140   75.8190 O   0  0  0  0  0  0  0  0  0  0  0  0
  134.3250  125.0110   75.5980 C   0  0  0  0  0  0  0  0  0  0  0  0
  133.1790  124.1300   75.8930 C   0  0  0  0  0  0  0  0  0  0  0  0
  131.8890  124.4700   75.6440 C   0  0  0  0  0  0  0  0  0  0  0  0
  131.4600  125.7250   75.0630 C   0  0  0  0  0  0  0  0  0  0  0  0
  130.2100  125.9400   74.8720 N   0  0  0  0  0  0  0  0  0  0  0  0
  129.8410  127.0930   74.3410 N   0  0  0  0  0  0  0  0  0  0  0  0
  129.2460  126.9720   73.1340 C   0  0  0  0  0  0  0  0  0  0  0  0
  128.0060  126.6630   72.8010 N   0  0  0  0  0  0  0  0  0  0  0  0
  127.7910  126.6440   71.4290 N   0  0  0  0  0  0  0  0  0  0  0  0
  128.8660  126.9380   70.7350 C   0  0  0  0  0  0  0  0  0  0  0  0
  128.9180  126.9910   69.2340 C   0  0  0  0  0  0  0  0  0  0  0  0
  128.4400  128.0880   68.5000 C   0  0  0  0  0  0  0  0  0  0  0  0
  128.5120  128.0870   67.1060 C   0  0  0  0  0  0  0  0  0  0  0  0
  129.0660  126.9780   66.4690 C   0  0  0  0  0  0  0  0  0  0  0  0
  129.5370  125.9010   67.1450 N   0  0  0  0  0  0  0  0  0  0  0  0
  129.4580  125.9220   68.5010 C   0  0  0  0  0  0  0  0  0  0  0  0
  130.2520  127.2670   71.7460 S   0  0  0  0  0  0  0  0  0  0  0  0
  132.5950  126.6030   74.7690 C   0  0  0  0  0  0  0  0  0  0  0  0
  133.8940  126.2910   75.0060 C   0  0  0  0  0  0  0  0  0  0  0  0
  133.3810  123.1448   76.3386 H   0  0  0  0  0  0  0  0  0  0  0  0
  131.1107  123.7371   75.9030 H   0  0  0  0  0  0  0  0  0  0  0  0
  128.0069  128.9519   69.0255 H   0  0  0  0  0  0  0  0  0  0  0  0
  128.1398  128.9424   66.5232 H   0  0  0  0  0  0  0  0  0  0  0  0
  129.1236  126.9763   65.3705 H   0  0  0  0  0  0  0  0  0  0  0  0
  129.8387  125.0521   69.0563 H   0  0  0  0  0  0  0  0  0  0  0  0
  132.3788  127.5856   74.3243 H   0  0  0  0  0  0  0  0  0  0  0  0
  134.6648  127.0304   74.7432 H   0  0  0  0  0  0  0  0  0  0  0  0
  1  2  2  0
  2  3  1  0
  3  4  2  0
  4  5  1  0
  5  6  2  3
  6  7  1  0
  7  8  1  0
  8  9  2  0
  9 10  1  0
 10 11  2  0
 11 12  1  0
 12 13  2  0
 13 14  1  0
 14 15  2  0
 15 16  1  0
 16 17  2  0
 11 18  1  0
  5 19  1  0
 19 20  2  0
 20  2  1  0
 18  8  1  0
 17 12  1  0
  3 21  1  0
  4 22  1  0
 13 23  1  0
 14 24  1  0
 15 25  1  0
 17 26  1  0
 19 27  1  0
 20 28  1  0
M  CHG  1   7  -1
M  END
>  <Binding energies>  (1) 
[-6.95]

>  <Ligand effiencies>  (1) 
[-0.34750000000000003]

>  <Interactions>  (1) 
["V-B:GLU:543:C:9874, V-B:GLU:543:CB:9878, H-B:LYS:547:NZ:9923, H-A:VAL:457:N:4076, V-B:GLU:543:CG:9879, V-A:HIS:456:CD2:4068, V-A:LYS:547:CG:4948, V-A:HIS:456:CB:4065, V-A:GLU:543:CD:4908, V-B:HIS:456:CE1:9041, V-B:GLU:543:CA:9876, V-A:HIS:456:CE1:4070, V-A:HIS:456:CA:4063, V-A:GLU:543:CG:4907, V-B:GLU:543:CD:9880, H-A:LYS:547:NZ:4951, V-A:HIS:456:C:4061, V-A:GLU:543:CB:4906, V-A:HIS:456:CG:4066, H-A:VAL:458:N:4084, V-A:VAL:458:CG2:4087"]

$$$$
ZINC4476841
     RDKit          3D

 32 33  0  0  0  0  0  0  0  0999 V2000
  130.6430  119.0910   75.2730 C   0  0  0  0  0  0  0  0  0  0  0  0
  130.1050  120.3900   74.7030 C   0  0  0  0  0  0  0  0  0  0  0  0
  129.3290  120.3750   73.5470 C   0  0  0  0  0  0  0  0  0  0  0  0
  128.8210  121.5610   73.0110 C   0  0  0  0  0  0  0  0  0  0  0  0
  127.9790  121.4790   71.7420 C   0  0  0  0  0  0  0  0  0  0  0  0
  129.0730  122.7990   73.6400 C   0  0  0  0  0  0  0  0  0  0  0  0
  128.5540  123.9730   73.0710 N   0  0  0  0  0  0  0  0  0  0  0  0
  129.3910  124.9180   73.0630 N   0  0  0  0  0  0  0  0  0  0  0  0
  128.9250  126.0730   72.5200 C   0  0  0  0  0  0  0  0  0  0  0  0
  127.7720  126.0340   71.7850 N   0  0  0  0  0  0  0  0  0  0  0  0
  127.5070  127.3180   71.4020 C   0  0  0  0  0  0  0  0  0  0  0  0
  128.4110  128.1630   71.8270 N   0  0  0  0  0  0  0  0  0  0  0  0
  129.3030  127.4350   72.4950 C   0  0  0  0  0  0  0  0  0  0  0  0
  130.4680  128.0590   73.0480 N   0  0  0  0  0  0  0  0  0  0  0  0
  130.6080  129.2640   72.8750 O   0  0  0  0  0  0  0  0  0  0  0  0
  131.2430  127.3570   73.6920 O   0  0  0  0  0  0  0  0  0  0  0  0
  129.8800  122.8040   74.8040 C   0  0  0  0  0  0  0  0  0  0  0  0
  130.2670  124.1010   75.5080 C   0  0  0  0  0  0  0  0  0  0  0  0
  130.3800  121.6060   75.3250 C   0  0  0  0  0  0  0  0  0  0  0  0
  130.6239  119.1370   76.3719 H   0  0  0  0  0  0  0  0  0  0  0  0
  130.0178  118.2534   74.9302 H   0  0  0  0  0  0  0  0  0  0  0  0
  131.6774  118.9407   74.9302 H   0  0  0  0  0  0  0  0  0  0  0  0
  129.1133  119.4178   73.0497 H   0  0  0  0  0  0  0  0  0  0  0  0
  126.9177  121.3756   72.0122 H   0  0  0  0  0  0  0  0  0  0  0  0
  128.1189  122.3950   71.1493 H   0  0  0  0  0  0  0  0  0  0  0  0
  128.2931  120.6072   71.1493 H   0  0  0  0  0  0  0  0  0  0  0  0
  127.2160  125.2150   71.5840 H   0  0  0  0  0  0  0  0  0  0  0  0
  126.6314  127.6091   70.8032 H   0  0  0  0  0  0  0  0  0  0  0  0
  130.2232  123.9541   76.5973 H   0  0  0  0  0  0  0  0  0  0  0  0
  131.2891  124.3852   75.2172 H   0  0  0  0  0  0  0  0  0  0  0  0
  129.5678  124.8988   75.2172 H   0  0  0  0  0  0  0  0  0  0  0  0
  130.9969  121.6242   76.2355 H   0  0  0  0  0  0  0  0  0  0  0  0
  1  2  1  0
  2  3  2  0
  3  4  1  0
  4  5  1  0
  4  6  2  0
  6  7  1  0
  7  8  2  0
  8  9  1  0
  9 10  1  0
 10 11  1  0
 11 12  2  0
 12 13  1  0
 13 14  1  0
 14 15  2  0
 14 16  1  0
  6 17  1  0
 17 18  1  0
 17 19  2  0
 19  2  1  0
 13  9  2  0
  1 20  1  0
  1 21  1  0
  1 22  1  0
  3 23  1  0
  5 24  1  0
  5 25  1  0
  5 26  1  0
 10 27  1  0
 11 28  1  0
 18 29  1  0
 18 30  1  0
 18 31  1  0
 19 32  1  0
M  CHG  2  14   1  16  -1
M  END
>  <Binding energies>  (1) 
[-6.11]

>  <Ligand effiencies>  (1) 
[-0.3055]

>  <Interactions>  (1) 
["H-B:GLY:544:O:9885, V-A:TYR:484:CD2:4344, V-B:GLY:544:C:9884, V-B:HIS:456:CD2:9039, H-B:GLU:543:O:9875, V-B:GLU:543:C:9874, H-B:LYS:547:NZ:9923, V-B:GLY:544:CA:9886, V-B:LYS:547:CE:9922, V-A:ASP:473:CG:4240, V-B:HIS:456:CG:9037, V-A:ASP:473:CB:4239, H-A:LYS:547:NZ:4951, V-A:GLY:544:C:4912, V-B:HIS:456:CE1:9041, V-A:HIS:456:CD2:4068, V-A:TYR:484:CB:4341"]

$$$$
ZINC4476841-again1
     RDKit          3D

 32 33  0  0  0  0  0  0  0  0999 V2000
  131.4450  118.3600   59.6880 C   0  0  0  0  0  0  0  0  0  0  0  0
  131.4330  119.6410   60.5030 C   0  0  0  0  0  0  0  0  0  0  0  0
  130.2310  120.1470   60.9900 C   0  0  0  0  0  0  0  0  0  0  0  0
  130.2070  121.3200   61.7500 C   0  0  0  0  0  0  0  0  0  0  0  0
  128.8580  121.8260   62.2520 C   0  0  0  0  0  0  0  0  0  0  0  0
  131.4020  122.0060   62.0530 C   0  0  0  0  0  0  0  0  0  0  0  0
  131.3330  123.1840   62.8130 N   0  0  0  0  0  0  0  0  0  0  0  0
  131.0940  122.9640   64.0420 N   0  0  0  0  0  0  0  0  0  0  0  0
  131.0130  124.0680   64.8410 C   0  0  0  0  0  0  0  0  0  0  0  0
  129.9110  124.5790   65.4050 N   0  0  0  0  0  0  0  0  0  0  0  0
  130.2880  125.6280   66.0920 C   0  0  0  0  0  0  0  0  0  0  0  0
  131.6320  125.8450   66.0100 N   0  0  0  0  0  0  0  0  0  0  0  0
  132.1210  124.8490   65.2050 C   0  0  0  0  0  0  0  0  0  0  0  0
  133.5200  124.7720   64.8990 N   0  0  0  0  0  0  0  0  0  0  0  0
  134.3120  125.1000   65.7750 O   0  0  0  0  0  0  0  0  0  0  0  0
  133.8510  124.3820   63.7810 O   0  0  0  0  0  0  0  0  0  0  0  0
  132.6160  121.4880   61.5380 C   0  0  0  0  0  0  0  0  0  0  0  0
  133.9490  122.2010   61.7480 C   0  0  0  0  0  0  0  0  0  0  0  0
  132.6210  120.3140   60.7800 C   0  0  0  0  0  0  0  0  0  0  0  0
  131.4531  117.4940   60.3662 H   0  0  0  0  0  0  0  0  0  0  0  0
  130.5472  118.3206   59.0537 H   0  0  0  0  0  0  0  0  0  0  0  0
  132.3434  118.3374   59.0537 H   0  0  0  0  0  0  0  0  0  0  0  0
  129.2907  119.6185   60.7746 H   0  0  0  0  0  0  0  0  0  0  0  0
  128.8533  121.8278   63.3520 H   0  0  0  0  0  0  0  0  0  0  0  0
  128.6895  122.8485   61.8830 H   0  0  0  0  0  0  0  0  0  0  0  0
  128.0586  121.1666   61.8830 H   0  0  0  0  0  0  0  0  0  0  0  0
  129.5992  126.2620   66.6695 H   0  0  0  0  0  0  0  0  0  0  0  0
  132.1600  126.5860   66.4490 H   0  0  0  0  0  0  0  0  0  0  0  0
  134.1434  122.3050   62.8257 H   0  0  0  0  0  0  0  0  0  0  0  0
  134.7558  121.6140   61.2848 H   0  0  0  0  0  0  0  0  0  0  0  0
  133.9085  123.1979   61.2848 H   0  0  0  0  0  0  0  0  0  0  0  0
  133.5731  119.9170   60.3980 H   0  0  0  0  0  0  0  0  0  0  0  0
  1  2  1  0
  2  3  2  0
  3  4  1  0
  4  5  1  0
  4  6  2  0
  6  7  1  0
  7  8  2  0
  8  9  1  0
  9 10  1  0
 10 11  2  0
 11 12  1  0
 12 13  1  0
 13 14  1  0
 14 15  2  0
 14 16  1  0
  6 17  1  0
 17 18  1  0
 17 19  2  0
 19  2  1  0
 13  9  2  0
  1 20  1  0
  1 21  1  0
  1 22  1  0
  3 23  1  0
  5 24  1  0
  5 25  1  0
  5 26  1  0
 11 27  1  0
 12 28  1  0
 18 29  1  0
 18 30  1  0
 18 31  1  0
 19 32  1  0
M  CHG  2  14   1  16  -1
M  END
>  <Binding energies>  (1) 
[-6.18]

>  <Ligand effiencies>  (1) 
[-0.309]

>  <Interactions>  (1) 
["V-A:ILE:369:CG2:3237, V-A:GLY:454:CA:4049, H-A:GLU:543:OE2:4910, V-B:ALA:541:CB:9864, H-A:ARG:545:NH1:4927, V-A:TYR:484:CE2:4346, V-B:TYR:539:CE2:9848, V-B:GLU:543:CG:9879, V-B:TYR:539:C:9839, V-B:TYR:539:CB:9843, V-A:TYR:484:CZ:4347, V-A:GLU:543:CD:4908, H-A:GLY:454:N:4050, V-A:ILE:369:CD1:3239, V-B:TYR:539:CD2:9846, V-A:SER:385:CB:3409, V-A:LEU:475:CD2:4259, H-A:ARG:545:NH2:4928, V-A:ARG:545:CZ:4926, V-B:TYR:539:CG:9844, V-A:HIS:383:CD2:3392, H-A:ARG:545:NE:4924, V-B:PRO:540:C:9853, V-B:ALA:541:CA:9862, V-A:HIS:383:NE2:3394, H-A:TYR:484:OH:4348"]

$$$$
ZINC44891032
     RDKit          3D

 53 55  0  0  0  0  0  0  0  0999 V2000
  128.6850  123.9290   72.6090 C   0  0  0  0  0  0  0  0  0  0  0  0
  129.1320  125.1110   73.2670 O   0  0  0  0  0  0  0  0  0  0  0  0
  129.2640  126.2780   72.5380 C   0  0  0  0  0  0  0  0  0  0  0  0
  128.9090  126.2170   71.1890 C   0  0  0  0  0  0  0  0  0  0  0  0
  129.0070  127.3490   70.3660 C   0  0  0  0  0  0  0  0  0  0  0  0
  128.6460  127.3680   69.0060 N   0  0  0  0  0  0  0  0  0  0  0  0
  128.5680  128.4260   68.1710 C   0  0  0  0  0  0  0  0  0  0  0  0
  128.7520  129.5980   68.5020 O   0  0  0  0  0  0  0  0  0  0  0  0
  128.1920  128.0810   66.7240 C   0  0  0  0  0  0  0  0  0  0  0  0
  128.3690  126.6790   66.5050 O   0  0  0  0  0  0  0  0  0  0  0  0
  129.6090  126.2150   66.1770 C   0  0  0  0  0  0  0  0  0  0  0  0
  130.5670  125.8040   67.0500 C   0  0  0  0  0  0  0  0  0  0  0  0
  131.7920  125.3570   66.6680 O   0  0  0  0  0  0  0  0  0  0  0  0
  132.0850  125.3090   65.3380 C   0  0  0  0  0  0  0  0  0  0  0  0
  133.4940  124.7890   65.1050 C   0  0  0  0  0  0  0  0  0  0  0  0
  133.7040  124.0600   63.8510 N   0  0  0  0  0  0  0  0  0  0  0  0
  132.6780  123.0280   63.6450 C   0  0  0  0  0  0  0  0  0  0  0  0
  132.9080  122.1640   62.3920 C   0  0  0  0  0  0  0  0  0  0  0  0
  132.9520  123.1220   60.8550 S   0  0  0  0  0  0  0  0  0  0  0  0
  134.2070  124.3140   61.3950 C   0  0  0  0  0  0  0  0  0  0  0  0
  133.8680  124.9950   62.7320 C   0  0  0  0  0  0  0  0  0  0  0  0
  131.2070  125.6920   64.3790 C   0  0  0  0  0  0  0  0  0  0  0  0
  129.8630  126.1890   64.7200 C   0  0  0  0  0  0  0  0  0  0  0  0
  129.0510  126.5410   63.8650 O   0  0  0  0  0  0  0  0  0  0  0  0
  129.4480  128.5550   70.9140 C   0  0  0  0  0  0  0  0  0  0  0  0
  129.8160  128.6390   72.2660 C   0  0  0  0  0  0  0  0  0  0  0  0
  130.2720  129.7870   72.8840 O   0  0  0  0  0  0  0  0  0  0  0  0
  129.3350  130.7830   73.2790 C   0  0  0  0  0  0  0  0  0  0  0  0
  129.7210  127.4960   73.0630 C   0  0  0  0  0  0  0  0  0  0  0  0
  128.4005  123.1768   73.3595 H   0  0  0  0  0  0  0  0  0  0  0  0
  127.8146  124.1665   71.9797 H   0  0  0  0  0  0  0  0  0  0  0  0
  129.4948  123.5311   71.9797 H   0  0  0  0  0  0  0  0  0  0  0  0
  128.5475  125.2683   70.7656 H   0  0  0  0  0  0  0  0  0  0  0  0
  128.3540  126.4760   68.6340 H   0  0  0  0  0  0  0  0  0  0  0  0
  127.1406  128.3499   66.5446 H   0  0  0  0  0  0  0  0  0  0  0  0
  128.8381  128.6435   66.0340 H   0  0  0  0  0  0  0  0  0  0  0  0
  130.3376  125.8351   68.1254 H   0  0  0  0  0  0  0  0  0  0  0  0
  134.1778  125.6506   65.1134 H   0  0  0  0  0  0  0  0  0  0  0  0
  133.6817  124.0621   65.9090 H   0  0  0  0  0  0  0  0  0  0  0  0
  132.6690  122.3676   64.5247 H   0  0  0  0  0  0  0  0  0  0  0  0
  131.7214  123.5517   63.5016 H   0  0  0  0  0  0  0  0  0  0  0  0
  133.8678  121.6381   62.5026 H   0  0  0  0  0  0  0  0  0  0  0  0
  132.0589  121.4687   62.3169 H   0  0  0  0  0  0  0  0  0  0  0  0
  135.1651  123.7852   61.5062 H   0  0  0  0  0  0  0  0  0  0  0  0
  134.2542  125.1041   60.6311 H   0  0  0  0  0  0  0  0  0  0  0  0
  134.6805  125.6935   62.9806 H   0  0  0  0  0  0  0  0  0  0  0  0
  132.9016  125.5024   62.5958 H   0  0  0  0  0  0  0  0  0  0  0  0
  131.5050  125.6303   63.3219 H   0  0  0  0  0  0  0  0  0  0  0  0
  129.5078  129.4507   70.2782 H   0  0  0  0  0  0  0  0  0  0  0  0
  129.2908  130.8299   74.3771 H   0  0  0  0  0  0  0  0  0  0  0  0
  129.6492  131.7598   72.8826 H   0  0  0  0  0  0  0  0  0  0  0  0
  128.3409  130.5290   72.8826 H   0  0  0  0  0  0  0  0  0  0  0  0
  130.0101  127.5519   74.1229 H   0  0  0  0  0  0  0  0  0  0  0  0
  1  2  1  0
  2  3  1  0
  3  4  2  0
  4  5  1  0
  5  6  1  0
  6  7  1  0
  7  8  2  0
  7  9  1  0
  9 10  1  0
 10 11  1  0
 11 12  2  0
 12 13  1  0
 13 14  1  0
 14 15  1  0
 15 16  1  0
 16 17  1  0
 17 18  1  0
 18 19  1  0
 19 20  1  0
 20 21  1  0
 14 22  2  0
 22 23  1  0
 23 24  2  0
  5 25  2  0
 25 26  1  0
 26 27  1  0
 27 28  1  0
 26 29  2  0
 29  3  1  0
 23 11  1  0
 21 16  1  0
  1 30  1  0
  1 31  1  0
  1 32  1  0
  4 33  1  0
  6 34  1  0
  9 35  1  0
  9 36  1  0
 12 37  1  0
 15 38  1  0
 15 39  1  0
 17 40  1  0
 17 41  1  0
 18 42  1  0
 18 43  1  0
 20 44  1  0
 20 45  1  0
 21 46  1  0
 21 47  1  0
 22 48  1  0
 25 49  1  0
 28 50  1  0
 28 51  1  0
 28 52  1  0
 29 53  1  0
M  END
>  <Binding energies>  (1) 
[-6.28]

>  <Ligand effiencies>  (1) 
[-0.20933333333333334]

>  <Interactions>  (1) 
["V-A:GLY:454:CA:4049, V-B:GLU:543:C:9874, V-B:HIS:456:CD2:9039, H-B:GLU:543:O:9875, V-A:GLU:543:C:4902, V-B:GLU:543:CB:9878, H-B:LYS:547:NZ:9923, V-B:GLU:543:CG:9879, V-A:HIS:456:CD2:4068, V-A:ASP:366:CG:3213, V-B:LYS:547:CE:9922, V-A:GLU:543:CD:4908, V-B:HIS:456:CE1:9041, H-A:GLY:454:N:4050, V-A:HIS:456:CE1:4070, V-A:ILE:369:CD1:3239, V-B:GLY:544:CA:9886, V-B:GLU:543:CD:9880, V-A:ARG:545:CD:4923, H-A:LYS:547:NZ:4951, V-A:LEU:475:CD2:4259, V-A:ARG:545:CZ:4926, V-A:GLU:543:CB:4906, V-A:LYS:547:CE:4950, H-A:TYR:484:OH:4348"]

$$$$
ZINC4524112
     RDKit          3D

 59 62  0  0  0  0  0  0  0  0999 V2000
  130.2020  123.9990   66.1330 C   0  0  0  0  0  0  0  0  0  0  0  0
  130.1090  125.4210   65.8120 N   0  0  0  0  0  0  0  0  0  0  0  0
  130.2980  126.2110   66.9900 N   0  0  0  0  0  0  0  0  0  0  0  0
  129.4400  126.2600   67.9350 C   0  0  0  0  0  0  0  0  0  0  0  0
  129.6150  127.0450   69.1740 C   0  0  0  0  0  0  0  0  0  0  0  0
  128.5700  127.1540   70.1070 C   0  0  0  0  0  0  0  0  0  0  0  0
  128.7220  127.8870   71.2830 C   0  0  0  0  0  0  0  0  0  0  0  0
  129.9280  128.5280   71.5520 C   0  0  0  0  0  0  0  0  0  0  0  0
  130.0810  129.2450   72.7080 O   0  0  0  0  0  0  0  0  0  0  0  0
  130.9780  128.4380   70.6410 C   0  0  0  0  0  0  0  0  0  0  0  0
  130.8300  127.7070   69.4610 C   0  0  0  0  0  0  0  0  0  0  0  0
  131.9070  127.6630   68.6090 O   0  0  0  0  0  0  0  0  0  0  0  0
  130.0000  125.8820   64.4720 C   0  0  0  0  0  0  0  0  0  0  0  0
  128.9520  126.6860   64.1450 N   0  0  0  0  0  0  0  0  0  0  0  0
  128.8710  127.0740   62.8420 C   0  0  0  0  0  0  0  0  0  0  0  0
  127.8450  127.9550   62.4760 N   0  0  0  0  0  0  0  0  0  0  0  0
  126.8550  127.5890   61.4370 C   0  0  0  0  0  0  0  0  0  0  0  0
  126.1420  128.7860   60.7730 C   0  0  0  0  0  0  0  0  0  0  0  0
  125.5090  129.7260   61.8000 C   0  0  0  0  0  0  0  0  0  0  0  0
  126.5750  130.1360   62.8160 C   0  0  0  0  0  0  0  0  0  0  0  0
  127.2770  128.9180   63.4490 C   0  0  0  0  0  0  0  0  0  0  0  0
  129.7830  126.7150   61.8960 N   0  0  0  0  0  0  0  0  0  0  0  0
  130.8060  125.9130   62.3040 C   0  0  0  0  0  0  0  0  0  0  0  0
  131.7330  125.4800   61.3460 N   0  0  0  0  0  0  0  0  0  0  0  0
  131.3980  125.4890   59.9030 C   0  0  0  0  0  0  0  0  0  0  0  0
  132.6120  125.4690   58.9510 C   0  0  0  0  0  0  0  0  0  0  0  0
  133.5780  124.3280   59.2670 C   0  0  0  0  0  0  0  0  0  0  0  0
  133.9630  124.4010   60.7430 C   0  0  0  0  0  0  0  0  0  0  0  0
  132.7280  124.4300   61.6670 C   0  0  0  0  0  0  0  0  0  0  0  0
  130.9350  125.4550   63.5810 N   0  0  0  0  0  0  0  0  0  0  0  0
  130.2105  123.8695   67.2253 H   0  0  0  0  0  0  0  0  0  0  0  0
  129.3366  123.4697   65.7077 H   0  0  0  0  0  0  0  0  0  0  0  0
  131.1290  123.5870   65.7077 H   0  0  0  0  0  0  0  0  0  0  0  0
  128.5120  125.6809   67.8188 H   0  0  0  0  0  0  0  0  0  0  0  0
  127.6128  126.6509   69.9054 H   0  0  0  0  0  0  0  0  0  0  0  0
  127.8892  127.9588   71.9981 H   0  0  0  0  0  0  0  0  0  0  0  0
  130.1760  130.1880   72.5510 H   0  0  0  0  0  0  0  0  0  0  0  0
  131.9302  128.9464   70.8529 H   0  0  0  0  0  0  0  0  0  0  0  0
  131.6550  127.7190   67.6840 H   0  0  0  0  0  0  0  0  0  0  0  0
  127.3767  127.0226   60.6515 H   0  0  0  0  0  0  0  0  0  0  0  0
  126.0732  127.0058   61.9456 H   0  0  0  0  0  0  0  0  0  0  0  0
  126.8767  129.3516   60.1811 H   0  0  0  0  0  0  0  0  0  0  0  0
  125.3361  128.3884   60.1386 H   0  0  0  0  0  0  0  0  0  0  0  0
  125.1194  130.6204   61.2917 H   0  0  0  0  0  0  0  0  0  0  0  0
  124.6807  129.2155   62.3131 H   0  0  0  0  0  0  0  0  0  0  0  0
  127.3292  130.7546   62.3077 H   0  0  0  0  0  0  0  0  0  0  0  0
  126.0758  130.6939   63.6219 H   0  0  0  0  0  0  0  0  0  0  0  0
  128.0960  129.2866   64.0841 H   0  0  0  0  0  0  0  0  0  0  0  0
  126.5049  128.3723   64.0112 H   0  0  0  0  0  0  0  0  0  0  0  0
  130.7829  124.6023   59.6901 H   0  0  0  0  0  0  0  0  0  0  0  0
  130.8757  126.4387   59.7148 H   0  0  0  0  0  0  0  0  0  0  0  0
  132.2503  125.3507   57.9189 H   0  0  0  0  0  0  0  0  0  0  0  0
  133.1563  126.4162   59.0798 H   0  0  0  0  0  0  0  0  0  0  0  0
  133.0911  123.3637   59.0596 H   0  0  0  0  0  0  0  0  0  0  0  0
  134.4786  124.4179   58.6418 H   0  0  0  0  0  0  0  0  0  0  0  0
  134.5725  123.5204   60.9940 H   0  0  0  0  0  0  0  0  0  0  0  0
  134.5238  125.3342   60.8998 H   0  0  0  0  0  0  0  0  0  0  0  0
  132.2275  123.4528   61.5991 H   0  0  0  0  0  0  0  0  0  0  0  0
  133.1028  124.6583   62.6757 H   0  0  0  0  0  0  0  0  0  0  0  0
  1  2  1  0
  2  3  1  0
  3  4  2  0
  4  5  1  0
  5  6  2  0
  6  7  1  0
  7  8  2  0
  8  9  1  0
  8 10  1  0
 10 11  2  0
 11 12  1  0
  2 13  1  0
 13 14  2  0
 14 15  1  0
 15 16  1  0
 16 17  1  0
 17 18  1  0
 18 19  1  0
 19 20  1  0
 20 21  1  0
 15 22  2  0
 22 23  1  0
 23 24  1  0
 24 25  1  0
 25 26  1  0
 26 27  1  0
 27 28  1  0
 28 29  1  0
 23 30  2  0
 11  5  1  0
 30 13  1  0
 21 16  1  0
 29 24  1  0
  1 31  1  0
  1 32  1  0
  1 33  1  0
  4 34  1  0
  6 35  1  0
  7 36  1  0
  9 37  1  0
 10 38  1  0
 12 39  1  0
 17 40  1  0
 17 41  1  0
 18 42  1  0
 18 43  1  0
 19 44  1  0
 19 45  1  0
 20 46  1  0
 20 47  1  0
 21 48  1  0
 21 49  1  0
 25 50  1  0
 25 51  1  0
 26 52  1  0
 26 53  1  0
 27 54  1  0
 27 55  1  0
 28 56  1  0
 28 57  1  0
 29 58  1  0
 29 59  1  0
M  END
>  <Binding energies>  (1) 
[-6.91]

>  <Ligand effiencies>  (1) 
[-0.2159375]

>  <Interactions>  (1) 
["V-A:ILE:369:CG2:3237, V-A:ASP:366:CA:3210, V-B:HIS:456:CD2:9039, H-A:GLU:543:OE2:4910, V-A:ILE:369:CB:3236, V-A:GLU:543:C:4902, V-B:GLU:543:CB:9878, V-B:ASP:366:CG:8184, V-B:TYR:539:CE2:9848, V-A:TYR:484:CE2:4346, V-A:GLY:544:CA:4914, V-B:GLU:543:CG:9879, V-A:GLY:544:C:4912, V-A:ASP:366:CG:3213, H-A:ARG:545:N:4920, V-A:TYR:484:CZ:4347, V-A:GLU:543:CD:4908, V-B:HIS:456:CE1:9041, V-A:HIS:456:CE1:4070, V-A:ILE:369:CD1:3239, V-B:GLU:543:CD:9880, V-A:ASP:366:CB:3212, H-A:LYS:547:NZ:4951, V-A:GLU:543:CB:4906, H-A:GLY:544:O:4913, H-A:GLU:543:O:4903"]

$$$$
ZINC4524121
     RDKit          3D

 29 30  0  0  0  0  0  0  0  0999 V2000
  127.9300  123.7680   56.8070 C   0  0  0  0  0  0  0  0  0  0  0  0
  128.3540  124.6090   58.0230 C   0  0  0  0  0  0  0  0  0  0  0  0
  128.1430  123.9210   59.3180 N   0  0  0  0  0  0  0  0  0  0  0  0
  129.2120  123.5320   60.0600 C   0  0  0  0  0  0  0  0  0  0  0  0
  130.3880  123.7160   59.7290 O   0  0  0  0  0  0  0  0  0  0  0  0
  128.7630  122.8830   61.2770 C   0  0  0  0  0  0  0  0  0  0  0  0
  129.5810  122.3860   62.2330 C   0  0  0  0  0  0  0  0  0  0  0  0
  131.0610  122.3870   62.2610 C   0  0  0  0  0  0  0  0  0  0  0  0
  131.7740  121.3430   61.6500 C   0  0  0  0  0  0  0  0  0  0  0  0
  130.9620  120.0310   60.8610 Cl  0  0  0  0  0  0  0  0  0  0  0  0
  133.1660  121.3510   61.6560 C   0  0  0  0  0  0  0  0  0  0  0  0
  133.8580  122.3850   62.2750 C   0  0  0  0  0  0  0  0  0  0  0  0
  133.1730  123.4250   62.9110 C   0  0  0  0  0  0  0  0  0  0  0  0
  133.9550  124.5030   63.5510 N   0  0  0  0  0  0  0  0  0  0  0  0
  133.6750  124.8040   64.7070 O   0  0  0  0  0  0  0  0  0  0  0  0
  134.8160  125.0720   62.8900 O   0  0  0  0  0  0  0  0  0  0  0  0
  131.7630  123.4330   62.8890 C   0  0  0  0  0  0  0  0  0  0  0  0
  130.8800  124.7510   63.5980 Cl  0  0  0  0  0  0  0  0  0  0  0  0
  127.0060  122.8490   61.3230 S   0  0  0  0  0  0  0  0  0  0  0  0
  126.8840  123.6710   59.7940 C   0  0  0  0  0  0  0  0  0  0  0  0
  125.3790  124.0180   59.1590 S   0  0  0  0  0  0  0  0  0  0  0  0
  127.4598  122.8354   57.1522 H   0  0  0  0  0  0  0  0  0  0  0  0
  127.2115  124.3379   56.1996 H   0  0  0  0  0  0  0  0  0  0  0  0
  128.8155  123.5292   56.1996 H   0  0  0  0  0  0  0  0  0  0  0  0
  129.4233  124.8481   57.9256 H   0  0  0  0  0  0  0  0  0  0  0  0
  127.7245  125.5111   58.0287 H   0  0  0  0  0  0  0  0  0  0  0  0
  129.0839  121.9230   63.0982 H   0  0  0  0  0  0  0  0  0  0  0  0
  133.7205  120.5355   61.1687 H   0  0  0  0  0  0  0  0  0  0  0  0
  134.9580  122.3854   62.2645 H   0  0  0  0  0  0  0  0  0  0  0  0
  1  2  1  0
  2  3  1  0
  3  4  1  0
  4  5  2  0
  4  6  1  0
  6  7  2  0
  7  8  1  0
  8  9  2  0
  9 10  1  0
  9 11  1  0
 11 12  2  0
 12 13  1  0
 13 14  1  0
 14 15  2  0
 14 16  1  0
 13 17  2  0
 17 18  1  0
  6 19  1  0
 19 20  1  0
 20 21  2  0
 20  3  1  0
 17  8  1  0
  1 22  1  0
  1 23  1  0
  1 24  1  0
  2 25  1  0
  2 26  1  0
  7 27  1  0
 11 28  1  0
 12 29  1  0
M  CHG  2  14   1  16  -1
M  END
>  <Binding energies>  (1) 
[-6.47]

>  <Ligand effiencies>  (1) 
[-0.3080952380952381]

>  <Interactions>  (1) 
["V-B:PRO:540:CA:9855, V-A:GLY:454:CA:4049, V-B:ALA:541:CB:9864, H-A:ARG:545:NH1:4927, V-B:TYR:539:CE2:9848, V-B:TYR:539:CZ:9849, H-B:ALA:541:N:9863, V-B:PRO:540:CB:9857, H-A:GLY:454:N:4050, V-A:GLY:453:C:4042, V-A:ILE:369:CD1:3239, V-B:TYR:539:CD2:9846, V-A:SER:385:CB:3409, V-A:LEU:475:CD2:4259, H-A:ARG:545:NH2:4928, V-A:ARG:545:CZ:4926, V-A:GLY:453:CA:4044, H-A:ARG:545:NE:4924, V-B:TYR:539:CE1:9847, H-A:TYR:484:OH:4348"]

$$$$
ZINC4532519
     RDKit          3D

 55 57  0  0  0  0  0  0  0  0999 V2000
  130.6000  125.4710   67.2690 C   0  0  0  0  0  0  0  0  0  0  0  0
  131.1520  125.1860   65.8840 C   0  0  0  0  0  0  0  0  0  0  0  0
  130.2970  124.7560   64.8710 C   0  0  0  0  0  0  0  0  0  0  0  0
  130.8020  124.4830   63.6020 C   0  0  0  0  0  0  0  0  0  0  0  0
  132.1720  124.6300   63.3250 C   0  0  0  0  0  0  0  0  0  0  0  0
  132.7590  124.3440   61.9110 C   0  0  0  0  0  0  0  0  0  0  0  0
  134.1800  124.4550   61.9960 O   0  0  0  0  0  0  0  0  0  0  0  0
  132.4220  122.8960   61.4490 C   0  0  0  0  0  0  0  0  0  0  0  0
  133.4150  121.9770   61.0830 C   0  0  0  0  0  0  0  0  0  0  0  0
  133.0810  120.6920   60.6660 C   0  0  0  0  0  0  0  0  0  0  0  0
  131.7420  120.2730   60.5950 C   0  0  0  0  0  0  0  0  0  0  0  0
  131.4010  118.9590   60.1630 N   0  0  0  0  0  0  0  0  0  0  0  0
  130.7130  118.0440   61.0740 C   0  0  0  0  0  0  0  0  0  0  0  0
  132.1080  118.3520   59.0360 C   0  0  0  0  0  0  0  0  0  0  0  0
  130.7510  121.1990   60.9580 C   0  0  0  0  0  0  0  0  0  0  0  0
  131.0850  122.4840   61.3750 C   0  0  0  0  0  0  0  0  0  0  0  0
  132.2650  125.4030   60.8830 C   0  0  0  0  0  0  0  0  0  0  0  0
  132.4770  125.2580   59.5040 C   0  0  0  0  0  0  0  0  0  0  0  0
  132.0420  126.2300   58.6090 C   0  0  0  0  0  0  0  0  0  0  0  0
  131.3820  127.3870   59.0540 C   0  0  0  0  0  0  0  0  0  0  0  0
  130.9360  128.3810   58.1350 N   0  0  0  0  0  0  0  0  0  0  0  0
  129.6120  128.2710   57.5230 C   0  0  0  0  0  0  0  0  0  0  0  0
  131.5380  129.7140   58.1500 C   0  0  0  0  0  0  0  0  0  0  0  0
  131.1680  127.5240   60.4350 C   0  0  0  0  0  0  0  0  0  0  0  0
  131.6030  126.5530   61.3300 C   0  0  0  0  0  0  0  0  0  0  0  0
  133.0180  125.0610   64.3610 C   0  0  0  0  0  0  0  0  0  0  0  0
  132.5140  125.3330   65.6300 C   0  0  0  0  0  0  0  0  0  0  0  0
  131.3075  125.1057   68.0280 H   0  0  0  0  0  0  0  0  0  0  0  0
  130.4583  126.5550   67.3913 H   0  0  0  0  0  0  0  0  0  0  0  0
  129.6342  124.9588   67.3913 H   0  0  0  0  0  0  0  0  0  0  0  0
  129.2230  124.6322   65.0737 H   0  0  0  0  0  0  0  0  0  0  0  0
  130.1200  124.1481   62.8066 H   0  0  0  0  0  0  0  0  0  0  0  0
  134.4140  125.3820   61.9170 H   0  0  0  0  0  0  0  0  0  0  0  0
  134.4728  122.2756   61.1260 H   0  0  0  0  0  0  0  0  0  0  0  0
  133.8811  119.9907   60.3865 H   0  0  0  0  0  0  0  0  0  0  0  0
  130.9287  118.3308   62.1138 H   0  0  0  0  0  0  0  0  0  0  0  0
  129.6287  118.0964   60.8966 H   0  0  0  0  0  0  0  0  0  0  0  0
  131.0644  117.0168   60.8966 H   0  0  0  0  0  0  0  0  0  0  0  0
  132.8917  117.6791   59.4143 H   0  0  0  0  0  0  0  0  0  0  0  0
  131.3970  117.7787   58.4230 H   0  0  0  0  0  0  0  0  0  0  0  0
  132.5671  119.1416   58.4230 H   0  0  0  0  0  0  0  0  0  0  0  0
  129.6924  120.9037   60.9120 H   0  0  0  0  0  0  0  0  0  0  0  0
  130.2860  123.1879   61.6511 H   0  0  0  0  0  0  0  0  0  0  0  0
  132.9940  124.3639   59.1254 H   0  0  0  0  0  0  0  0  0  0  0  0
  132.2183  126.0897   57.5323 H   0  0  0  0  0  0  0  0  0  0  0  0
  128.8477  128.2075   58.3115 H   0  0  0  0  0  0  0  0  0  0  0  0
  129.4220  129.1565   56.8986 H   0  0  0  0  0  0  0  0  0  0  0  0
  129.5707  127.3663   56.8986 H   0  0  0  0  0  0  0  0  0  0  0  0
  131.6845  130.0385   59.1908 H   0  0  0  0  0  0  0  0  0  0  0  0
  132.5096  129.6833   57.6352 H   0  0  0  0  0  0  0  0  0  0  0  0
  130.8726  130.4227   57.6352 H   0  0  0  0  0  0  0  0  0  0  0  0
  130.6471  128.4151   60.8154 H   0  0  0  0  0  0  0  0  0  0  0  0
  131.4242  126.6904   62.4066 H   0  0  0  0  0  0  0  0  0  0  0  0
  134.0935  125.1852   64.1666 H   0  0  0  0  0  0  0  0  0  0  0  0
  133.1907  125.6638   66.4316 H   0  0  0  0  0  0  0  0  0  0  0  0
  1  2  1  0
  2  3  2  0
  3  4  1  0
  4  5  2  0
  5  6  1  0
  6  7  1  0
  6  8  1  0
  8  9  2  0
  9 10  1  0
 10 11  2  0
 11 12  1  0
 12 13  1  0
 12 14  1  0
 11 15  1  0
 15 16  2  0
  6 17  1  0
 17 18  2  0
 18 19  1  0
 19 20  2  0
 20 21  1  0
 21 22  1  0
 21 23  1  0
 20 24  1  0
 24 25  2  0
  5 26  1  0
 26 27  2  0
 27  2  1  0
 16  8  1  0
 25 17  1  0
  1 28  1  0
  1 29  1  0
  1 30  1  0
  3 31  1  0
  4 32  1  0
  7 33  1  0
  9 34  1  0
 10 35  1  0
 13 36  1  0
 13 37  1  0
 13 38  1  0
 14 39  1  0
 14 40  1  0
 14 41  1  0
 15 42  1  0
 16 43  1  0
 18 44  1  0
 19 45  1  0
 22 46  1  0
 22 47  1  0
 22 48  1  0
 23 49  1  0
 23 50  1  0
 23 51  1  0
 24 52  1  0
 25 53  1  0
 26 54  1  0
 27 55  1  0
M  END
>  <Binding energies>  (1) 
[-6.38]

>  <Ligand effiencies>  (1) 
[-0.22785714285714284]

>  <Interactions>  (1) 
["V-A:ILE:369:CG2:3237, V-A:HIS:456:CE1:4070, V-B:TYR:539:CD2:9846, V-A:SER:385:CB:3409, V-A:SER:385:CA:3407, V-A:ARG:545:CZ:4926, V-B:TYR:539:CB:9843, V-A:HIS:383:CD2:3392, V-A:TYR:484:CZ:4347, V-A:TYR:484:CE2:4346, V-B:TYR:539:CE2:9848, V-A:ASP:366:CB:3212, V-A:LEU:475:CD2:4259, V-B:GLU:543:CG:9879, V-B:TYR:539:CG:9844, V-A:ASP:366:CG:3213, V-A:HIS:383:NE2:3394, H-A:ASP:366:OD1:3214"]

$$$$
ZINC453423
     RDKit          3D

 25 26  0  0  0  0  0  0  0  0999 V2000
  127.9520  131.7250   75.3880 O   0  0  0  0  0  0  0  0  0  0  0  0
  127.3330  130.5140   75.1870 C   0  0  0  0  0  0  0  0  0  0  0  0
  126.1480  130.2680   75.8840 C   0  0  0  0  0  0  0  0  0  0  0  0
  125.4750  129.0590   75.7250 C   0  0  0  0  0  0  0  0  0  0  0  0
  125.9800  128.0930   74.8610 C   0  0  0  0  0  0  0  0  0  0  0  0
  127.1620  128.3340   74.1620 C   0  0  0  0  0  0  0  0  0  0  0  0
  127.8670  129.5390   74.3190 C   0  0  0  0  0  0  0  0  0  0  0  0
  129.1180  129.7870   73.5670 C   0  0  0  0  0  0  0  0  0  0  0  0
  129.8760  128.9550   72.9550 N   0  0  0  0  0  0  0  0  0  0  0  0
  129.6400  127.5890   73.0460 N   0  0  0  0  0  0  0  0  0  0  0  0
  129.8720  126.6860   74.0840 C   0  0  0  0  0  0  0  0  0  0  0  0
  130.5700  127.0040   75.6820 S   0  0  0  0  0  0  0  0  0  0  0  0
  129.5360  125.4750   73.7130 N   0  0  0  0  0  0  0  0  0  0  0  0
  129.1140  125.5310   72.3920 N   0  0  0  0  0  0  0  0  0  0  0  0
  129.2090  126.7800   72.0090 C   0  0  0  0  0  0  0  0  0  0  0  0
  128.8790  127.2820   70.6110 C   0  0  0  0  0  0  0  0  0  0  0  0
  129.6630  128.3010   70.2500 F   0  0  0  0  0  0  0  0  0  0  0  0
  129.0360  126.3200   69.7030 F   0  0  0  0  0  0  0  0  0  0  0  0
  127.6180  127.7070   70.5400 F   0  0  0  0  0  0  0  0  0  0  0  0
  127.7480  132.3660   74.7040 H   0  0  0  0  0  0  0  0  0  0  0  0
  125.7438  131.0336   76.5626 H   0  0  0  0  0  0  0  0  0  0  0  0
  124.5457  128.8684   76.2818 H   0  0  0  0  0  0  0  0  0  0  0  0
  125.4472  127.1397   74.7293 H   0  0  0  0  0  0  0  0  0  0  0  0
  127.5495  127.5670   73.4753 H   0  0  0  0  0  0  0  0  0  0  0  0
  129.4436  130.8370   73.5282 H   0  0  0  0  0  0  0  0  0  0  0  0
  1  2  1  0
  2  3  2  0
  3  4  1  0
  4  5  2  0
  5  6  1  0
  6  7  2  0
  7  8  1  0
  8  9  2  0
  9 10  1  0
 10 11  1  0
 11 12  1  0
 11 13  2  0
 13 14  1  0
 14 15  2  0
 15 16  1  0
 16 17  1  0
 16 18  1  0
 16 19  1  0
  7  2  1  0
 15 10  1  0
  1 20  1  0
  3 21  1  0
  4 22  1  0
  5 23  1  0
  6 24  1  0
  8 25  1  0
M  CHG  1  12  -1
M  END
>  <Binding energies>  (1) 
[-4.79]

>  <Ligand effiencies>  (1) 
[-0.2395]

>  <Interactions>  (1) 
["V-A:HIS:456:CE1:4070, V-B:HIS:456:CD2:9039, V-B:GLU:543:C:9874, V-A:GLU:543:C:4902, V-B:GLU:543:CB:9878, H-B:LYS:547:NZ:9923, H-B:LYS:471:NZ:9192, V-B:LYS:547:CE:9922, V-B:HIS:456:CB:9036, V-B:HIS:456:CG:9037, V-B:LYS:547:CD:9921, H-A:LYS:547:NZ:4951, V-B:HIS:456:CE1:9041, V-A:HIS:456:CD2:4068, V-A:GLU:543:CB:4906"]

$$$$
ZINC45615297
     RDKit          3D

 38 40  0  0  0  0  0  0  0  0999 V2000
  133.7270  125.1520   65.7750 O   0  0  0  0  0  0  0  0  0  0  0  0
  133.4920  124.7620   64.6370 N   0  0  0  0  0  0  0  0  0  0  0  0
  134.3430  124.8170   63.7520 O   0  0  0  0  0  0  0  0  0  0  0  0
  132.1520  124.1980   64.2910 C   0  0  0  0  0  0  0  0  0  0  0  0
  132.0560  123.2700   63.2370 C   0  0  0  0  0  0  0  0  0  0  0  0
  130.8330  122.7090   62.8840 C   0  0  0  0  0  0  0  0  0  0  0  0
  129.7030  123.0910   63.5970 C   0  0  0  0  0  0  0  0  0  0  0  0
  129.7510  123.9820   64.6130 N   0  0  0  0  0  0  0  0  0  0  0  0
  130.9480  124.5340   64.9650 C   0  0  0  0  0  0  0  0  0  0  0  0
  130.9390  125.4550   66.0320 N   0  0  0  0  0  0  0  0  0  0  0  0
  129.7940  125.6820   66.9120 C   0  0  0  0  0  0  0  0  0  0  0  0
  129.0010  126.9300   66.5150 C   0  0  0  0  0  0  0  0  0  0  0  0
  129.0440  127.3390   65.1760 C   0  0  0  0  0  0  0  0  0  0  0  0
  128.3440  128.4640   64.7520 C   0  0  0  0  0  0  0  0  0  0  0  0
  127.5960  129.2000   65.6650 C   0  0  0  0  0  0  0  0  0  0  0  0
  127.5530  128.8120   67.0020 C   0  0  0  0  0  0  0  0  0  0  0  0
  128.2550  127.6800   67.4510 C   0  0  0  0  0  0  0  0  0  0  0  0
  128.2130  127.2620   68.9300 C   0  0  0  0  0  0  0  0  0  0  0  0
  129.3500  127.6480   69.7620 N   0  0  0  0  0  0  0  0  0  0  0  0
  130.6560  127.8030   69.3710 C   0  0  0  0  0  0  0  0  0  0  0  0
  131.3530  128.0970   70.5280 C   0  0  0  0  0  0  0  0  0  0  0  0
  130.3890  128.0710   71.5430 C   0  0  0  0  0  0  0  0  0  0  0  0
  129.1880  127.7870   71.0890 N   0  0  0  0  0  0  0  0  0  0  0  0
  132.9626  122.9838   62.6836 H   0  0  0  0  0  0  0  0  0  0  0  0
  130.7622  121.9818   62.0617 H   0  0  0  0  0  0  0  0  0  0  0  0
  128.7321  122.6516   63.3244 H   0  0  0  0  0  0  0  0  0  0  0  0
  131.7400  126.0610   66.1400 H   0  0  0  0  0  0  0  0  0  0  0  0
  129.1285  124.8077   66.8608 H   0  0  0  0  0  0  0  0  0  0  0  0
  130.1758  125.8337   67.9324 H   0  0  0  0  0  0  0  0  0  0  0  0
  129.6384  126.7637   64.4510 H   0  0  0  0  0  0  0  0  0  0  0  0
  128.3820  128.7710   63.6964 H   0  0  0  0  0  0  0  0  0  0  0  0
  127.0388  130.0878   65.3313 H   0  0  0  0  0  0  0  0  0  0  0  0
  126.9604  129.4007   67.7178 H   0  0  0  0  0  0  0  0  0  0  0  0
  127.3105  127.7067   69.3748 H   0  0  0  0  0  0  0  0  0  0  0  0
  128.2303  126.1622   68.9160 H   0  0  0  0  0  0  0  0  0  0  0  0
  131.0623  127.7125   68.3528 H   0  0  0  0  0  0  0  0  0  0  0  0
  132.4283  128.3055   70.6290 H   0  0  0  0  0  0  0  0  0  0  0  0
  130.6115  128.2664   72.6024 H   0  0  0  0  0  0  0  0  0  0  0  0
  1  2  2  0
  2  3  1  0
  2  4  1  0
  4  5  2  0
  5  6  1  0
  6  7  2  0
  7  8  1  0
  8  9  2  0
  9 10  1  0
 10 11  1  0
 11 12  1  0
 12 13  2  0
 13 14  1  0
 14 15  2  0
 15 16  1  0
 16 17  2  0
 17 18  1  0
 18 19  1  0
 19 20  1  0
 20 21  2  0
 21 22  1  0
 22 23  2  0
  9  4  1  0
 17 12  1  0
 23 19  1  0
  5 24  1  0
  6 25  1  0
  7 26  1  0
 10 27  1  0
 11 28  1  0
 11 29  1  0
 13 30  1  0
 14 31  1  0
 15 32  1  0
 16 33  1  0
 18 34  1  0
 18 35  1  0
 20 36  1  0
 21 37  1  0
 22 38  1  0
M  CHG  2   2   1   3  -1
M  END
>  <Binding energies>  (1) 
[-6.44]

>  <Ligand effiencies>  (1) 
[-0.26833333333333337]

>  <Interactions>  (1) 
["V-A:ARG:545:CA:4919, V-A:GLY:454:CA:4049, H-A:GLU:543:OE2:4910, V-A:GLU:543:C:4902, V-B:GLU:543:CB:9878, V-B:ALA:541:CB:9864, H-A:ARG:545:NH1:4927, V-A:GLY:544:CA:4914, V-B:GLU:543:CG:9879, V-A:GLY:544:C:4912, V-A:GLU:543:CD:4908, V-B:HIS:456:CE1:9041, H-A:GLY:454:N:4050, V-A:HIS:456:CE1:4070, V-A:GLU:543:CG:4907, V-B:GLU:543:CD:9880, V-A:LEU:475:CD2:4259, H-A:ARG:545:NH2:4928, V-A:ARG:545:CZ:4926, V-A:GLU:543:CB:4906, H-A:ARG:545:NE:4924, H-A:TYR:484:OH:4348"]

$$$$
ZINC4570449
     RDKit          3D

 39 41  0  0  0  0  0  0  0  0999 V2000
  131.5910  121.8060   61.7890 C   0  0  0  0  0  0  0  0  0  0  0  0
  132.1650  122.5020   62.9410 N   0  0  0  0  0  0  0  0  0  0  0  0
  133.6100  122.3760   63.1300 C   0  0  0  0  0  0  0  0  0  0  0  0
  131.4550  123.5750   63.5530 C   0  0  0  0  0  0  0  0  0  0  0  0
  131.6430  124.9030   63.1310 C   0  0  0  0  0  0  0  0  0  0  0  0
  130.9580  125.9550   63.7320 C   0  0  0  0  0  0  0  0  0  0  0  0
  130.0700  125.6980   64.7770 C   0  0  0  0  0  0  0  0  0  0  0  0
  129.3630  126.7640   65.3820 N   0  0  0  0  0  0  0  0  0  0  0  0
  129.4040  126.9260   66.7330 C   0  0  0  0  0  0  0  0  0  0  0  0
  130.0560  126.2050   67.4950 O   0  0  0  0  0  0  0  0  0  0  0  0
  128.5910  128.0620   67.1280 C   0  0  0  0  0  0  0  0  0  0  0  0
  128.3980  128.4910   68.4000 C   0  0  0  0  0  0  0  0  0  0  0  0
  128.8440  127.9130   69.6840 C   0  0  0  0  0  0  0  0  0  0  0  0
  127.9990  127.1020   70.4500 C   0  0  0  0  0  0  0  0  0  0  0  0
  128.4380  126.5870   71.6670 C   0  0  0  0  0  0  0  0  0  0  0  0
  129.7190  126.8910   72.1240 C   0  0  0  0  0  0  0  0  0  0  0  0
  130.2640  126.2540   73.6320 Cl  0  0  0  0  0  0  0  0  0  0  0  0
  130.5610  127.7110   71.3740 C   0  0  0  0  0  0  0  0  0  0  0  0
  130.1200  128.2240   70.1580 C   0  0  0  0  0  0  0  0  0  0  0  0
  127.9180  128.8370   65.7020 S   0  0  0  0  0  0  0  0  0  0  0  0
  128.6350  127.6600   64.6410 C   0  0  0  0  0  0  0  0  0  0  0  0
  128.3720  127.7680   62.9940 S   0  0  0  0  0  0  0  0  0  0  0  0
  129.8620  124.3880   65.2110 C   0  0  0  0  0  0  0  0  0  0  0  0
  130.5510  123.3410   64.6060 C   0  0  0  0  0  0  0  0  0  0  0  0
  130.9277  121.0017   62.1398 H   0  0  0  0  0  0  0  0  0  0  0  0
  131.0140  122.5180   61.1806 H   0  0  0  0  0  0  0  0  0  0  0  0
  132.3998  121.3751   61.1806 H   0  0  0  0  0  0  0  0  0  0  0  0
  133.8387  122.3561   64.2058 H   0  0  0  0  0  0  0  0  0  0  0  0
  133.9609  121.4438   62.6632 H   0  0  0  0  0  0  0  0  0  0  0  0
  134.1170  123.2333   62.6632 H   0  0  0  0  0  0  0  0  0  0  0  0
  132.3445  125.1144   62.3106 H   0  0  0  0  0  0  0  0  0  0  0  0
  131.1163  126.9864   63.3840 H   0  0  0  0  0  0  0  0  0  0  0  0
  127.8151  129.4195   68.4900 H   0  0  0  0  0  0  0  0  0  0  0  0
  126.9857  126.8708   70.0899 H   0  0  0  0  0  0  0  0  0  0  0  0
  127.7765  125.9430   72.2651 H   0  0  0  0  0  0  0  0  0  0  0  0
  131.5694  127.9513   71.7419 H   0  0  0  0  0  0  0  0  0  0  0  0
  130.7794  128.8773   69.5677 H   0  0  0  0  0  0  0  0  0  0  0  0
  129.1555  124.1836   66.0289 H   0  0  0  0  0  0  0  0  0  0  0  0
  130.3860  122.3117   64.9573 H   0  0  0  0  0  0  0  0  0  0  0  0
  1  2  1  0
  2  3  1  0
  2  4  1  0
  4  5  2  0
  5  6  1  0
  6  7  2  0
  7  8  1  0
  8  9  1  0
  9 10  2  0
  9 11  1  0
 11 12  2  0
 12 13  1  0
 13 14  2  0
 14 15  1  0
 15 16  2  0
 16 17  1  0
 16 18  1  0
 18 19  2  0
 11 20  1  0
 20 21  1  0
 21 22  2  0
  7 23  1  0
 23 24  2  0
 24  4  1  0
 21  8  1  0
 19 13  1  0
  1 25  1  0
  1 26  1  0
  1 27  1  0
  3 28  1  0
  3 29  1  0
  3 30  1  0
  5 31  1  0
  6 32  1  0
 12 33  1  0
 14 34  1  0
 15 35  1  0
 18 36  1  0
 19 37  1  0
 23 38  1  0
 24 39  1  0
M  END
>  <Binding energies>  (1) 
[-6.36]

>  <Ligand effiencies>  (1) 
[-0.265]

>  <Interactions>  (1) 
["V-A:HIS:456:CE1:4070, V-A:GLY:454:CA:4049, V-B:GLU:543:C:9874, V-A:GLU:543:C:4902, V-B:GLU:543:CB:9878, V-A:GLU:543:CG:4907, V-B:GLU:543:CD:9880, V-A:GLU:543:CD:4908, V-A:TYR:484:CZ:4347, V-A:TYR:484:CE2:4346, V-A:LEU:475:CD2:4259, V-B:GLU:543:CG:9879, V-A:GLY:544:C:4912, V-B:HIS:456:CE1:9041, V-A:HIS:456:CD2:4068, V-A:GLU:543:CB:4906"]

$$$$
ZINC461491815
     RDKit          3D

 52 56  0  0  0  0  0  0  0  0999 V2000
  132.6080  123.4880   60.6810 C   0  0  0  0  0  0  0  0  0  0  0  0
  131.9000  124.4740   59.7600 C   0  0  0  0  0  0  0  0  0  0  0  0
  130.5520  124.6060   59.6520 C   0  0  0  0  0  0  0  0  0  0  0  0
  129.5910  123.7130   60.3060 C   0  0  0  0  0  0  0  0  0  0  0  0
  128.4660  123.9200   61.1030 C   0  0  0  0  0  0  0  0  0  0  0  0
  127.9660  122.6670   61.4570 C   0  0  0  0  0  0  0  0  0  0  0  0
  128.8110  121.7390   60.8780 C   0  0  0  0  0  0  0  0  0  0  0  0
  129.7970  122.3720   60.1930 O   0  0  0  0  0  0  0  0  0  0  0  0
  129.9530  125.7480   58.8110 C   0  0  0  0  0  0  0  0  0  0  0  0
  130.8230  126.8920   58.4700 N   0  0  0  0  0  0  0  0  0  0  0  0
  130.9470  127.9100   59.3820 C   0  0  0  0  0  0  0  0  0  0  0  0
  130.7470  127.8260   60.6780 N   0  0  0  0  0  0  0  0  0  0  0  0
  131.0060  129.0790   61.2170 N   0  0  0  0  0  0  0  0  0  0  0  0
  131.3450  129.8750   60.2290 C   0  0  0  0  0  0  0  0  0  0  0  0
  131.7230  131.3530   60.3700 C   0  0  2  0  0  0  0  0  0  0  0  0
  133.0760  131.5470   61.0290 C   0  0  0  0  0  0  0  0  0  0  0  0
  132.7600  131.5190   62.5270 C   0  0  0  0  0  0  0  0  0  0  0  0
  131.3800  131.8830   62.6240 O   0  0  0  0  0  0  0  0  0  0  0  0
  130.8310  132.1420   61.3330 C   0  0  0  0  0  0  0  0  0  0  0  0
  131.3420  129.1870   59.0300 N   0  0  0  0  0  0  0  0  0  0  0  0
  131.6170  129.7230   57.6940 C   0  0  0  0  0  0  0  0  0  0  0  0
  130.6480  130.8140   57.2730 C   0  0  0  0  0  0  0  0  0  0  0  0
  129.2490  130.8260   57.2480 C   0  0  0  0  0  0  0  0  0  0  0  0
  128.6880  132.0220   56.7960 C   0  0  0  0  0  0  0  0  0  0  0  0
  129.6450  132.9610   56.4620 C   0  0  0  0  0  0  0  0  0  0  0  0
  131.2460  132.3520   56.7100 S   0  0  0  0  0  0  0  0  0  0  0  0
  132.0750  126.2920   57.9830 C   0  0  0  0  0  0  0  0  0  0  0  0
  132.8230  125.4620   59.0540 C   0  0  0  0  0  0  0  0  0  0  0  0
  132.4127  123.7599   61.7288 H   0  0  0  0  0  0  0  0  0  0  0  0
  132.2316  122.4723   60.4895 H   0  0  0  0  0  0  0  0  0  0  0  0
  133.6907  123.5200   60.4895 H   0  0  0  0  0  0  0  0  0  0  0  0
  128.0488  124.8939   61.3987 H   0  0  0  0  0  0  0  0  0  0  0  0
  127.0784  122.4593   62.0727 H   0  0  0  0  0  0  0  0  0  0  0  0
  128.7006  120.6477   60.9603 H   0  0  0  0  0  0  0  0  0  0  0  0
  129.6053  125.3087   57.8644 H   0  0  0  0  0  0  0  0  0  0  0  0
  129.1723  126.1805   59.4540 H   0  0  0  0  0  0  0  0  0  0  0  0
  131.6559  131.6983   59.3277 H   0  0  0  0  0  0  0  0  0  0  0  0
  133.7641  130.7326   60.7584 H   0  0  0  0  0  0  0  0  0  0  0  0
  133.5720  132.4777   60.7162 H   0  0  0  0  0  0  0  0  0  0  0  0
  132.9233  130.5115   62.9373 H   0  0  0  0  0  0  0  0  0  0  0  0
  133.4072  132.2015   63.0974 H   0  0  0  0  0  0  0  0  0  0  0  0
  129.7904  131.7900   61.2755 H   0  0  0  0  0  0  0  0  0  0  0  0
  130.8085  133.2160   61.0965 H   0  0  0  0  0  0  0  0  0  0  0  0
  132.6353  130.1390   57.6876 H   0  0  0  0  0  0  0  0  0  0  0  0
  131.5035  128.8935   56.9806 H   0  0  0  0  0  0  0  0  0  0  0  0
  128.6409  129.9637   57.5590 H   0  0  0  0  0  0  0  0  0  0  0  0
  127.6051  132.1971   56.7149 H   0  0  0  0  0  0  0  0  0  0  0  0
  129.4178  133.9693   56.0856 H   0  0  0  0  0  0  0  0  0  0  0  0
  131.8376  125.6324   57.1353 H   0  0  0  0  0  0  0  0  0  0  0  0
  132.7390  127.1206   57.6958 H   0  0  0  0  0  0  0  0  0  0  0  0
  133.6352  124.9029   58.5664 H   0  0  0  0  0  0  0  0  0  0  0  0
  133.2163  126.1583   59.8093 H   0  0  0  0  0  0  0  0  0  0  0  0
  1  2  1  0
  2  3  2  0
  3  4  1  0
  4  5  2  0
  5  6  1  0
  6  7  2  0
  7  8  1  0
  3  9  1  0
  9 10  1  0
 10 11  1  0
 11 12  2  0
 12 13  1  0
 13 14  2  0
 14 15  1  0
 15 16  1  0
 16 17  1  0
 17 18  1  0
 18 19  1  0
 14 20  1  0
 20 21  1  0
 21 22  1  0
 22 23  2  0
 23 24  1  0
 24 25  2  0
 25 26  1  0
 10 27  1  0
 27 28  1  0
 28  2  1  0
  8  4  1  0
 20 11  1  0
 26 22  1  0
 19 15  1  0
  1 29  1  0
  1 30  1  0
  1 31  1  0
  5 32  1  0
  6 33  1  0
  7 34  1  0
  9 35  1  0
  9 36  1  0
 15 37  1  6
 16 38  1  0
 16 39  1  0
 17 40  1  0
 17 41  1  0
 19 42  1  0
 19 43  1  0
 21 44  1  0
 21 45  1  0
 23 46  1  0
 24 47  1  0
 25 48  1  0
 27 49  1  0
 27 50  1  0
 28 51  1  0
 28 52  1  0
M  END
>  <Binding energies>  (1) 
[-6.57]

>  <Ligand effiencies>  (1) 
[-0.23464285714285715]

>  <Interactions>  (1) 
["V-A:ASP:366:CA:3210, V-B:PRO:540:CA:9855, V-A:ILE:538:C:4858, H-A:ALA:541:N:4891, V-A:PRO:540:C:4881, V-A:ILE:538:CB:4862, V-B:ALA:541:CB:9864, V-B:TYR:539:CE2:9848, V-B:TYR:539:C:9839, V-A:ASP:366:CG:3213, V-A:ASN:362:CB:3176, V-A:LEU:363:CD1:3189, V-A:ILE:538:CA:4860, V-A:TYR:531:CE2:4793, V-A:GLU:543:CD:4908, V-B:TYR:539:CD2:9846, V-A:TYR:531:CZ:4794, V-A:GLU:543:CG:4907, V-A:MET:535:CE:4835, V-A:ASP:366:CB:3212, V-A:PRO:540:CB:4885, V-A:PRO:540:CA:4883, V-B:PRO:540:C:9853"]

$$$$
ZINC4615006
     RDKit          3D

 31 31  0  0  0  0  0  0  0  0999 V2000
  128.9860  127.0780   68.5600 C   0  0  0  0  0  0  0  0  0  0  0  0
  129.4240  126.5840   67.1760 C   0  0  0  0  0  0  0  0  0  0  0  0
  130.5400  125.5300   67.2450 C   0  0  0  0  0  0  0  0  0  0  0  0
  131.3620  125.4930   66.0420 N   0  0  0  0  0  0  0  0  0  0  0  0
  131.1390  124.6100   64.9660 C   0  0  0  0  0  0  0  0  0  0  0  0
  129.8500  124.0970   64.7420 C   0  0  0  0  0  0  0  0  0  0  0  0
  129.5910  123.2230   63.6930 C   0  0  0  0  0  0  0  0  0  0  0  0
  130.6210  122.8370   62.8430 C   0  0  0  0  0  0  0  0  0  0  0  0
  130.2920  121.7250   61.4750 S   0  0  0  0  0  0  0  0  0  0  0  0
  131.4550  121.7750   60.5810 O   0  0  0  0  0  0  0  0  0  0  0  0
  129.8570  120.4450   62.0470 O   0  0  0  0  0  0  0  0  0  0  0  0
  128.8180  122.5300   60.5970 C   0  0  0  0  0  0  0  0  0  0  0  0
  127.7590  122.4360   61.3990 F   0  0  0  0  0  0  0  0  0  0  0  0
  129.1180  123.8070   60.3600 F   0  0  0  0  0  0  0  0  0  0  0  0
  128.6030  121.8760   59.4560 F   0  0  0  0  0  0  0  0  0  0  0  0
  131.9050  123.3400   63.0440 C   0  0  0  0  0  0  0  0  0  0  0  0
  132.1980  124.2260   64.0980 C   0  0  0  0  0  0  0  0  0  0  0  0
  133.6070  124.7100   64.2400 N   0  0  0  0  0  0  0  0  0  0  0  0
  134.3630  124.7140   63.2740 O   0  0  0  0  0  0  0  0  0  0  0  0
  133.9810  125.1020   65.3420 O   0  0  0  0  0  0  0  0  0  0  0  0
  129.5023  126.4957   69.3375 H   0  0  0  0  0  0  0  0  0  0  0  0
  129.2428  128.1422   68.6677 H   0  0  0  0  0  0  0  0  0  0  0  0
  127.8987  126.9505   68.6677 H   0  0  0  0  0  0  0  0  0  0  0  0
  128.5537  126.1415   66.6692 H   0  0  0  0  0  0  0  0  0  0  0  0
  129.8203  127.4501   66.6257 H   0  0  0  0  0  0  0  0  0  0  0  0
  131.1866  125.7596   68.1047 H   0  0  0  0  0  0  0  0  0  0  0  0
  130.0584  124.5462   67.3454 H   0  0  0  0  0  0  0  0  0  0  0  0
  132.1270  126.1500   65.9730 H   0  0  0  0  0  0  0  0  0  0  0  0
  129.0287  124.3935   65.4111 H   0  0  0  0  0  0  0  0  0  0  0  0
  128.5729  122.8374   63.5356 H   0  0  0  0  0  0  0  0  0  0  0  0
  132.7116  123.0364   62.3604 H   0  0  0  0  0  0  0  0  0  0  0  0
  1  2  1  0
  2  3  1  0
  3  4  1  0
  4  5  1  0
  5  6  2  0
  6  7  1  0
  7  8  2  0
  8  9  1  0
  9 10  2  0
  9 11  2  0
  9 12  1  0
 12 13  1  0
 12 14  1  0
 12 15  1  0
  8 16  1  0
 16 17  2  0
 17 18  1  0
 18 19  2  0
 18 20  1  0
 17  5  1  0
  1 21  1  0
  1 22  1  0
  1 23  1  0
  2 24  1  0
  2 25  1  0
  3 26  1  0
  3 27  1  0
  4 28  1  0
  6 29  1  0
  7 30  1  0
 16 31  1  0
M  CHG  2  18   1  20  -1
M  END
>  <Binding energies>  (1) 
[-5.46]

>  <Ligand effiencies>  (1) 
[-0.26]

>  <Interactions>  (1) 
["V-B:PRO:540:CA:9855, V-A:GLY:454:CA:4049, H-A:GLU:543:OE2:4910, V-B:GLU:543:CB:9878, V-B:ALA:541:CB:9864, H-A:ARG:545:NH1:4927, V-B:TYR:539:CE2:9848, V-B:GLU:543:CG:9879, V-B:TYR:539:C:9839, V-A:GLU:543:CD:4908, H-A:GLY:454:N:4050, V-B:PRO:540:N:9856, V-A:HIS:456:CE1:4070, V-B:TYR:539:CD2:9846, V-B:GLU:543:CD:9880, V-A:LEU:475:CD2:4259, H-A:ARG:545:NH2:4928, V-A:ARG:545:CZ:4926, V-B:TYR:539:CG:9844, H-A:ARG:545:NE:4924, V-B:PRO:540:C:9853, H-A:TYR:484:OH:4348"]

$$$$
ZINC461579916
     RDKit          3D

 56 59  0  0  0  0  0  0  0  0999 V2000
  131.2470  126.7740   61.9160 C   0  0  0  0  0  0  0  0  0  0  0  0
  131.8540  125.9000   60.8250 C   0  0  0  0  0  0  0  0  0  0  0  0
  131.2960  125.9660   59.5430 C   0  0  0  0  0  0  0  0  0  0  0  0
  131.8070  125.1930   58.5040 C   0  0  0  0  0  0  0  0  0  0  0  0
  132.8840  124.3450   58.7390 C   0  0  0  0  0  0  0  0  0  0  0  0
  133.4490  124.2720   60.0100 C   0  0  0  0  0  0  0  0  0  0  0  0
  132.9480  125.0410   61.0730 C   0  0  0  0  0  0  0  0  0  0  0  0
  133.5920  124.9610   62.4750 C   0  0  2  0  0  0  0  0  0  0  0  0
  135.0850  124.5710   62.3980 C   0  0  0  0  0  0  0  0  0  0  0  0
  132.8040  124.1870   63.4590 N   0  0  0  0  0  0  0  0  0  0  0  0
  132.9130  122.7360   63.2800 C   0  0  0  0  0  0  0  0  0  0  0  0
  132.2290  124.7170   64.6080 C   0  0  0  0  0  0  0  0  0  0  0  0
  132.8970  125.1520   65.6490 N   0  0  0  0  0  0  0  0  0  0  0  0
  131.9840  125.6300   66.5770 N   0  0  0  0  0  0  0  0  0  0  0  0
  130.7870  125.4670   66.0660 C   0  0  0  0  0  0  0  0  0  0  0  0
  129.4810  125.9020   66.7270 C   0  0  0  0  0  0  0  0  0  0  0  0
  129.6600  126.6180   68.0550 C   0  0  0  0  0  0  0  0  0  0  0  0
  128.7270  126.6160   69.1070 C   0  0  0  0  0  0  0  0  0  0  0  0
  129.1240  127.3540   70.2140 C   0  0  0  0  0  0  0  0  0  0  0  0
  130.6710  128.0870   69.9820 S   0  0  0  0  0  0  0  0  0  0  0  0
  130.7670  127.3930   68.3970 C   0  0  0  0  0  0  0  0  0  0  0  0
  130.8670  124.9050   64.8050 N   0  0  0  0  0  0  0  0  0  0  0  0
  129.7500  124.6520   63.8860 C   0  0  0  0  0  0  0  0  0  0  0  0
  129.7200  123.1830   63.3850 C   0  0  2  0  0  0  0  0  0  0  0  0
  129.8430  123.0110   61.8790 C   0  0  0  0  0  0  0  0  0  0  0  0
  128.4050  123.1380   61.3670 C   0  0  0  0  0  0  0  0  0  0  0  0
  127.5780  122.8910   62.5060 O   0  0  0  0  0  0  0  0  0  0  0  0
  128.3710  122.5110   63.6260 C   0  0  0  0  0  0  0  0  0  0  0  0
  131.5245  126.3745   62.9026 H   0  0  0  0  0  0  0  0  0  0  0  0
  131.6269  127.8015   61.8164 H   0  0  0  0  0  0  0  0  0  0  0  0
  130.1515  126.7768   61.8164 H   0  0  0  0  0  0  0  0  0  0  0  0
  130.4443  126.6361   59.3544 H   0  0  0  0  0  0  0  0  0  0  0  0
  131.3604  125.2527   57.5005 H   0  0  0  0  0  0  0  0  0  0  0  0
  133.2897  123.7318   57.9209 H   0  0  0  0  0  0  0  0  0  0  0  0
  134.3025  123.6003   60.1842 H   0  0  0  0  0  0  0  0  0  0  0  0
  133.5683  125.9808   62.8866 H   0  0  0  0  0  0  0  0  0  0  0  0
  135.4893  124.4654   63.4155 H   0  0  0  0  0  0  0  0  0  0  0  0
  135.1873  123.6160   61.8618 H   0  0  0  0  0  0  0  0  0  0  0  0
  135.6413  125.3540   61.8618 H   0  0  0  0  0  0  0  0  0  0  0  0
  132.9497  122.2468   64.2646 H   0  0  0  0  0  0  0  0  0  0  0  0
  132.0399  122.3690   62.7206 H   0  0  0  0  0  0  0  0  0  0  0  0
  133.8311  122.5035   62.7206 H   0  0  0  0  0  0  0  0  0  0  0  0
  128.9556  126.5799   66.0383 H   0  0  0  0  0  0  0  0  0  0  0  0
  128.9141  124.9834   66.9386 H   0  0  0  0  0  0  0  0  0  0  0  0
  127.7688  126.0781   69.0574 H   0  0  0  0  0  0  0  0  0  0  0  0
  128.5245  127.4595   71.1302 H   0  0  0  0  0  0  0  0  0  0  0  0
  131.6223  127.5496   67.7232 H   0  0  0  0  0  0  0  0  0  0  0  0
  128.8063  124.8667   64.4088 H   0  0  0  0  0  0  0  0  0  0  0  0
  129.8812  125.3037   63.0096 H   0  0  0  0  0  0  0  0  0  0  0  0
  130.5701  122.7568   63.9379 H   0  0  0  0  0  0  0  0  0  0  0  0
  130.4814  123.7961   61.4476 H   0  0  0  0  0  0  0  0  0  0  0  0
  130.3059  122.0526   61.6010 H   0  0  0  0  0  0  0  0  0  0  0  0
  128.2244  124.1483   60.9711 H   0  0  0  0  0  0  0  0  0  0  0  0
  128.1969  122.4341   60.5477 H   0  0  0  0  0  0  0  0  0  0  0  0
  127.9192  122.8707   64.5622 H   0  0  0  0  0  0  0  0  0  0  0  0
  128.4594  121.4190   63.7246 H   0  0  0  0  0  0  0  0  0  0  0  0
  1  2  1  0
  2  3  2  0
  3  4  1  0
  4  5  2  0
  5  6  1  0
  6  7  2  0
  7  8  1  0
  8  9  1  0
  8 10  1  0
 10 11  1  0
 10 12  1  0
 12 13  2  0
 13 14  1  0
 14 15  2  0
 15 16  1  0
 16 17  1  0
 17 18  1  0
 18 19  2  0
 19 20  1  0
 20 21  1  0
 15 22  1  0
 22 23  1  0
 23 24  1  0
 24 25  1  0
 25 26  1  0
 26 27  1  0
 27 28  1  0
  7  2  1  0
 22 12  1  0
 28 24  1  0
 21 17  2  0
  1 29  1  0
  1 30  1  0
  1 31  1  0
  3 32  1  0
  4 33  1  0
  5 34  1  0
  6 35  1  0
  8 36  1  1
  9 37  1  0
  9 38  1  0
  9 39  1  0
 11 40  1  0
 11 41  1  0
 11 42  1  0
 16 43  1  0
 16 44  1  0
 18 45  1  0
 19 46  1  0
 21 47  1  0
 23 48  1  0
 23 49  1  0
 24 50  1  1
 25 51  1  0
 25 52  1  0
 26 53  1  0
 26 54  1  0
 28 55  1  0
 28 56  1  0
M  END
>  <Binding energies>  (1) 
[-6.89]

>  <Ligand effiencies>  (1) 
[-0.24607142857142855]

>  <Interactions>  (1) 
["V-A:ILE:369:CG2:3237, V-A:ASP:366:CA:3210, V-A:GLY:454:CA:4049, V-B:GLU:543:C:9874, V-A:GLU:543:C:4902, V-B:GLU:543:CB:9878, V-B:ALA:541:CB:9864, V-B:TYR:539:CE2:9848, V-B:GLU:543:CG:9879, V-A:GLY:544:C:4912, V-A:ASP:366:CG:3213, V-B:TYR:539:CZ:9849, H-B:ALA:541:N:9863, V-A:GLU:543:CD:4908, V-B:HIS:456:CE1:9041, V-A:GLY:453:C:4042, V-A:ILE:369:CD1:3239, V-A:HIS:456:CE1:4070, V-B:GLU:543:CD:9880, V-A:LEU:475:CD2:4259, H-A:ARG:545:NH2:4928, V-A:ARG:545:CZ:4926, V-A:GLU:543:CB:4906, V-A:GLY:453:CA:4044, H-A:ARG:545:NE:4924, V-B:ALA:541:CA:9862, H-A:TYR:484:OH:4348"]

$$$$
ZINC4635648-again1
     RDKit          3D

 55 58  0  0  0  0  0  0  0  0999 V2000
  133.3560  125.4680   66.7990 C   0  0  0  0  0  0  0  0  0  0  0  0
  132.2470  125.3700   65.7500 C   0  0  0  0  0  0  0  0  0  0  0  0
  130.8930  125.4740   65.9450 C   0  0  0  0  0  0  0  0  0  0  0  0
  130.3080  125.5670   67.2970 C   0  0  0  0  0  0  0  0  0  0  0  0
  129.7690  124.6110   67.8590 O   0  0  0  0  0  0  0  0  0  0  0  0
  130.3610  126.7900   67.8780 N   0  0  0  0  0  0  0  0  0  0  0  0
  129.8470  127.1910   69.1260 C   0  0  0  0  0  0  0  0  0  0  0  0
  128.5350  126.9080   69.5420 C   0  0  0  0  0  0  0  0  0  0  0  0
  128.0810  127.3430   70.7860 C   0  0  0  0  0  0  0  0  0  0  0  0
  128.9290  128.0650   71.6260 C   0  0  0  0  0  0  0  0  0  0  0  0
  128.4870  128.4890   72.8310 F   0  0  0  0  0  0  0  0  0  0  0  0
  130.2300  128.3550   71.2190 C   0  0  0  0  0  0  0  0  0  0  0  0
  130.6900  127.9230   69.9750 C   0  0  0  0  0  0  0  0  0  0  0  0
  131.9590  128.2160   69.6050 F   0  0  0  0  0  0  0  0  0  0  0  0
  129.9030  125.4410   64.7260 C   0  0  1  0  0  0  0  0  0  0  0  0
  129.1050  126.7350   64.5020 C   0  0  0  0  0  0  0  0  0  0  0  0
  128.7180  127.5190   65.5950 C   0  0  0  0  0  0  0  0  0  0  0  0
  127.9910  128.6880   65.3960 C   0  0  0  0  0  0  0  0  0  0  0  0
  127.6520  129.0790   64.1020 C   0  0  0  0  0  0  0  0  0  0  0  0
  126.7470  130.5270   63.8530 Cl  0  0  0  0  0  0  0  0  0  0  0  0
  128.0370  128.3080   63.0060 C   0  0  0  0  0  0  0  0  0  0  0  0
  128.7630  127.1370   63.2060 C   0  0  0  0  0  0  0  0  0  0  0  0
  130.6070  124.9880   63.4280 C   0  0  0  0  0  0  0  0  0  0  0  0
  129.9310  124.5270   62.3490 C   0  0  0  0  0  0  0  0  0  0  0  0
  128.5850  124.3490   62.2780 O   0  0  0  0  0  0  0  0  0  0  0  0
  130.5970  124.1360   61.0280 C   0  0  0  0  0  0  0  0  0  0  0  0
  131.9780  124.8500   60.8060 C   0  0  0  0  0  0  0  0  0  0  0  0
  131.7450  126.2590   60.2150 C   0  0  0  0  0  0  0  0  0  0  0  0
  132.8670  123.9580   59.9130 C   0  0  0  0  0  0  0  0  0  0  0  0
  132.6960  125.0390   62.1480 C   0  0  0  0  0  0  0  0  0  0  0  0
  132.0580  125.0910   63.3350 C   0  0  0  0  0  0  0  0  0  0  0  0
  132.7810  125.2320   64.4890 N   0  0  0  0  0  0  0  0  0  0  0  0
  132.9134  125.4289   67.8053 H   0  0  0  0  0  0  0  0  0  0  0  0
  134.0551  124.6281   66.6730 H   0  0  0  0  0  0  0  0  0  0  0  0
  133.8970  126.4175   66.6730 H   0  0  0  0  0  0  0  0  0  0  0  0
  130.9540  127.4710   67.4270 H   0  0  0  0  0  0  0  0  0  0  0  0
  127.8625  126.3400   68.8823 H   0  0  0  0  0  0  0  0  0  0  0  0
  127.0531  127.1168   71.1057 H   0  0  0  0  0  0  0  0  0  0  0  0
  130.8967  128.9268   71.8813 H   0  0  0  0  0  0  0  0  0  0  0  0
  129.1525  124.6865   65.0042 H   0  0  0  0  0  0  0  0  0  0  0  0
  128.9898  127.2096   66.6150 H   0  0  0  0  0  0  0  0  0  0  0  0
  127.6849  129.3013   66.2563 H   0  0  0  0  0  0  0  0  0  0  0  0
  127.7682  128.6237   61.9872 H   0  0  0  0  0  0  0  0  0  0  0  0
  129.0684  126.5265   62.3434 H   0  0  0  0  0  0  0  0  0  0  0  0
  128.1710  124.7300   63.0550 H   0  0  0  0  0  0  0  0  0  0  0  0
  130.7597  123.0481   61.0253 H   0  0  0  0  0  0  0  0  0  0  0  0
  129.9274  124.4513   60.2143 H   0  0  0  0  0  0  0  0  0  0  0  0
  131.6250  126.9845   61.0331 H   0  0  0  0  0  0  0  0  0  0  0  0
  132.6082  126.5442   59.5957 H   0  0  0  0  0  0  0  0  0  0  0  0
  130.8360  126.2511   59.5957 H   0  0  0  0  0  0  0  0  0  0  0  0
  133.5016  123.3213   60.5469 H   0  0  0  0  0  0  0  0  0  0  0  0
  132.2303  123.3246   59.2779 H   0  0  0  0  0  0  0  0  0  0  0  0
  133.5026  124.5926   59.2779 H   0  0  0  0  0  0  0  0  0  0  0  0
  133.7916  125.1376   62.1420 H   0  0  0  0  0  0  0  0  0  0  0  0
  133.7880  125.2550   64.4060 H   0  0  0  0  0  0  0  0  0  0  0  0
  1  2  1  0
  2  3  2  0
  3  4  1  0
  4  5  2  0
  4  6  1  0
  6  7  1  0
  7  8  2  0
  8  9  1  0
  9 10  2  0
 10 11  1  0
 10 12  1  0
 12 13  2  0
 13 14  1  0
  3 15  1  0
 15 16  1  0
 16 17  2  0
 17 18  1  0
 18 19  2  0
 19 20  1  0
 19 21  1  0
 21 22  2  0
 15 23  1  0
 23 24  2  0
 24 25  1  0
 24 26  1  0
 26 27  1  0
 27 28  1  0
 27 29  1  0
 27 30  1  0
 30 31  2  0
 31 32  1  0
 32  2  1  0
 13  7  1  0
 22 16  1  0
 31 23  1  0
  1 33  1  0
  1 34  1  0
  1 35  1  0
  6 36  1  0
  8 37  1  0
  9 38  1  0
 12 39  1  0
 15 40  1  1
 17 41  1  0
 18 42  1  0
 21 43  1  0
 22 44  1  0
 25 45  1  0
 26 46  1  0
 26 47  1  0
 28 48  1  0
 28 49  1  0
 28 50  1  0
 29 51  1  0
 29 52  1  0
 29 53  1  0
 30 54  1  0
 32 55  1  0
M  END
>  <Binding energies>  (1) 
[-8.4]

>  <Ligand effiencies>  (1) 
[-0.24000000000000002]

>  <Interactions>  (1) 
["V-A:ARG:545:CA:4919, V-A:GLU:543:CA:4904, V-B:GLU:543:C:9874, H-A:GLU:543:OE2:4910, V-A:GLU:543:C:4902, V-B:HIS:456:CD2:9039, V-B:GLU:543:CB:9878, V-B:TYR:539:CE2:9848, V-A:GLY:544:CA:4914, V-B:GLU:543:CG:9879, V-A:GLY:544:C:4912, V-A:ASP:366:CG:3213, H-B:GLU:543:OE1:9881, V-A:TYR:484:CZ:4347, V-A:GLU:543:CD:4908, V-B:HIS:456:CE1:9041, V-A:ARG:545:CG:4922, V-A:HIS:456:CE1:4070, V-A:GLU:543:CG:4907, V-B:GLU:543:CD:9880, V-A:ASP:366:CB:3212, V-A:ARG:545:CD:4923, V-A:ARG:545:CB:4921, V-A:ARG:545:CZ:4926, V-A:GLU:543:CB:4906, H-A:TYR:484:OH:4348"]

$$$$
ZINC464556032
     RDKit          3D

 51 54  0  0  0  0  0  0  0  0999 V2000
  131.3450  128.0590   69.3420 C   0  0  0  0  0  0  0  0  0  0  0  0
  129.9700  128.2000   70.0160 C   0  0  1  0  0  0  0  0  0  0  0  0
  128.5990  127.6730   68.9270 S   0  0  0  0  0  0  0  0  0  0  0  0
  129.3430  126.3290   68.0580 C   0  0  0  0  0  0  0  0  0  0  0  0
  129.4580  125.0670   68.3950 N   0  0  0  0  0  0  0  0  0  0  0  0
  130.1320  124.4500   67.3470 N   0  0  0  0  0  0  0  0  0  0  0  0
  130.3650  125.3870   66.4600 C   0  0  0  0  0  0  0  0  0  0  0  0
  131.0440  125.2500   65.1810 C   0  0  0  0  0  0  0  0  0  0  0  0
  130.5010  125.3880   63.9060 C   0  0  0  0  0  0  0  0  0  0  0  0
  131.4150  125.1790   62.8650 C   0  0  0  0  0  0  0  0  0  0  0  0
  132.7000  124.9130   63.3490 C   0  0  0  0  0  0  0  0  0  0  0  0
  132.7430  124.8860   65.0840 S   0  0  0  0  0  0  0  0  0  0  0  0
  133.9340  124.7360   62.4810 C   0  0  0  0  0  0  0  0  0  0  0  0
  133.4720  124.4700   61.0330 C   0  0  0  0  0  0  0  0  0  0  0  0
  132.4140  125.5050   60.5510 C   0  0  1  0  0  0  0  0  0  0  0  0
  132.1740  125.4930   58.9910 C   0  0  0  0  0  0  0  0  0  0  0  0
  132.0780  126.9210   58.3960 C   0  0  0  0  0  0  0  0  0  0  0  0
  133.3260  124.7470   58.2660 C   0  0  0  0  0  0  0  0  0  0  0  0
  130.8610  124.7380   58.6520 C   0  0  0  0  0  0  0  0  0  0  0  0
  131.1020  125.3030   61.3760 C   0  0  0  0  0  0  0  0  0  0  0  0
  129.8910  126.6000   66.8480 O   0  0  0  0  0  0  0  0  0  0  0  0
  129.9260  127.4810   71.3630 C   0  0  0  0  0  0  0  0  0  0  0  0
  128.9120  126.5690   71.6920 C   0  0  0  0  0  0  0  0  0  0  0  0
  128.8890  125.9320   72.8910 N   0  0  0  0  0  0  0  0  0  0  0  0
  129.8930  126.2140   73.7640 C   0  0  0  0  0  0  0  0  0  0  0  0
  130.9080  127.1180   73.4410 C   0  0  0  0  0  0  0  0  0  0  0  0
  130.9340  127.7520   72.2400 N   0  0  0  0  0  0  0  0  0  0  0  0
  132.1250  127.9790   70.1135 H   0  0  0  0  0  0  0  0  0  0  0  0
  131.3551  127.1551   68.7152 H   0  0  0  0  0  0  0  0  0  0  0  0
  131.5384  128.9420   68.7152 H   0  0  0  0  0  0  0  0  0  0  0  0
  129.8242  129.2733   70.2079 H   0  0  0  0  0  0  0  0  0  0  0  0
  129.4445  125.6396   63.7312 H   0  0  0  0  0  0  0  0  0  0  0  0
  134.5466  125.6490   62.5144 H   0  0  0  0  0  0  0  0  0  0  0  0
  134.5382  123.8930   62.8476 H   0  0  0  0  0  0  0  0  0  0  0  0
  134.3463  124.5218   60.3675 H   0  0  0  0  0  0  0  0  0  0  0  0
  133.0053  123.4743   61.0062 H   0  0  0  0  0  0  0  0  0  0  0  0
  132.8067  126.5148   60.7410 H   0  0  0  0  0  0  0  0  0  0  0  0
  132.0286  127.6560   59.2129 H   0  0  0  0  0  0  0  0  0  0  0  0
  132.9648  127.1204   57.7764 H   0  0  0  0  0  0  0  0  0  0  0  0
  131.1725  127.0000   57.7764 H   0  0  0  0  0  0  0  0  0  0  0  0
  134.0047  124.3075   59.0117 H   0  0  0  0  0  0  0  0  0  0  0  0
  132.9066  123.9485   57.6362 H   0  0  0  0  0  0  0  0  0  0  0  0
  133.8830  125.4563   57.6362 H   0  0  0  0  0  0  0  0  0  0  0  0
  130.3544  124.4467   59.5840 H   0  0  0  0  0  0  0  0  0  0  0  0
  130.2013  125.3947   58.0659 H   0  0  0  0  0  0  0  0  0  0  0  0
  131.0967  123.8375   58.0659 H   0  0  0  0  0  0  0  0  0  0  0  0
  130.4389  126.1661   61.2170 H   0  0  0  0  0  0  0  0  0  0  0  0
  130.6113  124.3779   61.0394 H   0  0  0  0  0  0  0  0  0  0  0  0
  128.1160  126.3649   70.9607 H   0  0  0  0  0  0  0  0  0  0  0  0
  129.9062  125.7192   74.7464 H   0  0  0  0  0  0  0  0  0  0  0  0
  131.7025  127.3205   74.1744 H   0  0  0  0  0  0  0  0  0  0  0  0
  1  2  1  0
  2  3  1  0
  3  4  1  0
  4  5  2  0
  5  6  1  0
  6  7  2  0
  7  8  1  0
  8  9  2  0
  9 10  1  0
 10 11  2  0
 11 12  1  0
 11 13  1  0
 13 14  1  0
 14 15  1  0
 15 16  1  0
 16 17  1  0
 16 18  1  0
 16 19  1  0
 15 20  1  0
  7 21  1  0
  2 22  1  0
 22 23  2  0
 23 24  1  0
 24 25  2  0
 25 26  1  0
 26 27  2  0
 21  4  1  0
 27 22  1  0
 12  8  1  0
 20 10  1  0
  1 28  1  0
  1 29  1  0
  1 30  1  0
  2 31  1  1
  9 32  1  0
 13 33  1  0
 13 34  1  0
 14 35  1  0
 14 36  1  0
 15 37  1  1
 17 38  1  0
 17 39  1  0
 17 40  1  0
 18 41  1  0
 18 42  1  0
 18 43  1  0
 19 44  1  0
 19 45  1  0
 19 46  1  0
 20 47  1  0
 20 48  1  0
 23 49  1  0
 25 50  1  0
 26 51  1  0
M  END
>  <Binding energies>  (1) 
[-7.67]

>  <Ligand effiencies>  (1) 
[-0.2840740740740741]

>  <Interactions>  (1) 
["V-A:ASP:366:CA:3210, V-A:GLU:543:CA:4904, V-A:GLU:543:C:4902, V-B:GLU:543:CB:9878, H-B:LYS:547:NZ:9923, V-B:TYR:539:CE2:9848, V-B:GLU:543:CG:9879, V-A:GLY:544:C:4912, V-A:ASP:366:CG:3213, V-A:HIS:456:CD2:4068, V-B:TYR:539:CZ:9849, V-A:ARG:545:CG:4922, V-A:HIS:456:CE1:4070, V-A:ASP:366:C:3208, V-A:ASP:366:CB:3212, H-A:LYS:547:NZ:4951, V-A:ARG:545:CZ:4926, V-A:GLU:543:CB:4906, H-A:TYR:484:OH:4348"]

$$$$
ZINC466669002
     RDKit          3D

 53 55  0  0  0  0  0  0  0  0999 V2000
  127.9980  129.6600   66.2050 C   0  0  0  0  0  0  0  0  0  0  0  0
  128.3480  129.4700   67.6900 C   0  0  0  0  0  0  0  0  0  0  0  0
  128.6420  128.0070   68.0960 C   0  0  1  0  0  0  0  0  0  0  0  0
  129.4810  127.3730   67.0720 N   0  0  0  0  0  0  0  0  0  0  0  0
  129.7410  126.0570   67.0020 C   0  0  0  0  0  0  0  0  0  0  0  0
  129.1310  125.1950   67.6380 O   0  0  0  0  0  0  0  0  0  0  0  0
  130.7480  125.7960   66.1530 N   0  0  0  0  0  0  0  0  0  0  0  0
  131.1330  124.4610   65.6770 C   0  0  1  0  0  0  0  0  0  0  0  0
  129.8910  123.6110   65.3340 C   0  0  0  0  0  0  0  0  0  0  0  0
  132.1020  124.5540   64.5030 C   0  0  0  0  0  0  0  0  0  0  0  0
  131.8470  124.8570   63.2570 N   0  0  0  0  0  0  0  0  0  0  0  0
  133.0450  124.8100   62.7070 C   0  0  0  0  0  0  0  0  0  0  0  0
  133.2670  125.1000   61.2290 C   0  0  0  0  0  0  0  0  0  0  0  0
  133.9150  123.9160   60.4650 C   0  0  0  0  0  0  0  0  0  0  0  0
  134.1420  124.2330   58.9720 C   0  0  0  0  0  0  0  0  0  0  0  0
  132.8560  124.7170   58.2800 C   0  0  0  0  0  0  0  0  0  0  0  0
  132.2280  125.9100   59.0220 C   0  0  0  0  0  0  0  0  0  0  0  0
  131.9860  125.6030   60.5150 C   0  0  0  0  0  0  0  0  0  0  0  0
  134.0450  124.5080   63.5060 N   0  0  0  0  0  0  0  0  0  0  0  0
  133.4210  124.3400   64.7400 O   0  0  0  0  0  0  0  0  0  0  0  0
  129.3060  127.9160   69.4670 C   0  0  0  0  0  0  0  0  0  0  0  0
  128.6410  127.6970   70.5790 N   0  0  0  0  0  0  0  0  0  0  0  0
  129.4090  127.6610   71.6540 C   0  0  0  0  0  0  0  0  0  0  0  0
  128.7190  127.4130   72.9850 C   0  0  0  0  0  0  0  0  0  0  0  0
  128.4450  128.5560   73.6130 F   0  0  0  0  0  0  0  0  0  0  0  0
  127.5650  126.7640   72.8180 F   0  0  0  0  0  0  0  0  0  0  0  0
  129.4830  126.6840   73.7990 F   0  0  0  0  0  0  0  0  0  0  0  0
  130.7650  127.8580   71.4080 C   0  0  0  0  0  0  0  0  0  0  0  0
  131.0160  128.1030   69.7090 S   0  0  0  0  0  0  0  0  0  0  0  0
  127.0342  130.1832   66.1195 H   0  0  0  0  0  0  0  0  0  0  0  0
  128.7832  130.2557   65.7165 H   0  0  0  0  0  0  0  0  0  0  0  0
  127.9262  128.6770   65.7165 H   0  0  0  0  0  0  0  0  0  0  0  0
  129.2394  130.0746   67.9132 H   0  0  0  0  0  0  0  0  0  0  0  0
  127.4627  129.7825   68.2632 H   0  0  0  0  0  0  0  0  0  0  0  0
  127.6829  127.4733   68.1685 H   0  0  0  0  0  0  0  0  0  0  0  0
  130.1620  127.9850   66.6440 H   0  0  0  0  0  0  0  0  0  0  0  0
  131.1020  126.5670   65.6060 H   0  0  0  0  0  0  0  0  0  0  0  0
  131.6609  123.9479   66.4943 H   0  0  0  0  0  0  0  0  0  0  0  0
  129.4058  123.2789   66.2637 H   0  0  0  0  0  0  0  0  0  0  0  0
  129.1838  124.2154   64.7469 H   0  0  0  0  0  0  0  0  0  0  0  0
  130.1983  122.7330   64.7469 H   0  0  0  0  0  0  0  0  0  0  0  0
  133.9938  125.9254   61.2058 H   0  0  0  0  0  0  0  0  0  0  0  0
  134.8855  123.6852   60.9286 H   0  0  0  0  0  0  0  0  0  0  0  0
  133.2259  123.0607   60.5252 H   0  0  0  0  0  0  0  0  0  0  0  0
  134.9068  125.0193   58.8888 H   0  0  0  0  0  0  0  0  0  0  0  0
  134.4655  123.3066   58.4749 H   0  0  0  0  0  0  0  0  0  0  0  0
  133.0977  125.0234   57.2515 H   0  0  0  0  0  0  0  0  0  0  0  0
  132.1312  123.8896   58.2834 H   0  0  0  0  0  0  0  0  0  0  0  0
  132.9051  126.7733   58.9426 H   0  0  0  0  0  0  0  0  0  0  0  0
  131.2538  126.1228   58.5577 H   0  0  0  0  0  0  0  0  0  0  0  0
  131.6410  126.5210   61.0132 H   0  0  0  0  0  0  0  0  0  0  0  0
  131.2320  124.8044   60.5758 H   0  0  0  0  0  0  0  0  0  0  0  0
  131.5554  127.8583   72.1730 H   0  0  0  0  0  0  0  0  0  0  0  0
  1  2  1  0
  2  3  1  0
  3  4  1  0
  4  5  1  0
  5  6  2  0
  5  7  1  0
  7  8  1  0
  8  9  1  0
  8 10  1  0
 10 11  2  0
 11 12  1  0
 12 13  1  0
 13 14  1  0
 14 15  1  0
 15 16  1  0
 16 17  1  0
 17 18  1  0
 12 19  2  0
 19 20  1  0
  3 21  1  0
 21 22  2  0
 22 23  1  0
 23 24  1  0
 24 25  1  0
 24 26  1  0
 24 27  1  0
 23 28  2  0
 28 29  1  0
 20 10  1  0
 29 21  1  0
 18 13  1  0
  1 30  1  0
  1 31  1  0
  1 32  1  0
  2 33  1  0
  2 34  1  0
  3 35  1  1
  4 36  1  0
  7 37  1  0
  8 38  1  1
  9 39  1  0
  9 40  1  0
  9 41  1  0
 13 42  1  0
 14 43  1  0
 14 44  1  0
 15 45  1  0
 15 46  1  0
 16 47  1  0
 16 48  1  0
 17 49  1  0
 17 50  1  0
 18 51  1  0
 18 52  1  0
 28 53  1  0
M  END
>  <Binding energies>  (1) 
[-8.3]

>  <Ligand effiencies>  (1) 
[-0.267741935483871]

>  <Interactions>  (1) 
["V-A:ILE:369:CG2:3237, V-A:ASP:366:CA:3210, V-A:GLU:543:CA:4904, V-B:HIS:456:CD2:9039, H-A:GLU:543:OE2:4910, V-A:GLU:543:C:4902, V-A:ILE:369:CB:3236, V-B:GLU:543:CB:9878, V-B:TYR:539:CE2:9848, V-A:TYR:484:CE2:4346, V-A:GLY:544:C:4912, V-B:GLU:543:CG:9879, V-A:HIS:456:CD2:4068, V-A:ASP:366:CG:3213, V-B:TYR:484:CE2:9317, V-B:TYR:539:CZ:9849, V-B:LYS:547:CE:9922, V-A:GLU:543:CD:4908, V-A:TYR:484:CZ:4347, V-B:HIS:456:CE1:9041, H-A:GLY:454:N:4050, V-A:HIS:456:CE1:4070, V-B:TYR:484:CZ:9318, V-A:ILE:369:CD1:3239, V-B:GLY:544:C:9884, V-A:ASP:366:C:3208, V-B:GLY:544:CA:9886, V-A:GLU:543:CG:4907, V-A:ASP:366:CB:3212, H-A:ARG:545:NH2:4928, V-A:ARG:545:CZ:4926, H-A:GLU:543:OE1:4909, V-A:GLU:543:CB:4906, H-A:TYR:484:OH:4348"]

$$$$
ZINC4727025
     RDKit          3D

 56 59  0  0  0  0  0  0  0  0999 V2000
  128.2990  125.1610   57.1560 C   0  0  0  0  0  0  0  0  0  0  0  0
  129.6070  124.7690   57.8760 C   0  0  2  0  0  0  0  0  0  0  0  0
  129.3860  123.8750   59.1190 C   0  0  0  0  0  0  0  0  0  0  0  0
  130.1460  124.5740   60.2510 C   0  0  1  0  0  0  0  0  0  0  0  0
  130.6030  123.7570   61.4940 C   0  0  2  0  0  0  0  0  0  0  0  0
  129.4490  122.9260   62.1090 C   0  0  0  0  0  0  0  0  0  0  0  0
  129.8740  122.1430   63.3640 C   0  0  0  0  0  0  0  0  0  0  0  0
  130.4570  123.1340   64.3690 C   0  0  0  0  0  0  0  0  0  0  0  0
  129.8370  123.3930   65.5440 C   0  0  0  0  0  0  0  0  0  0  0  0
  130.2490  124.4210   66.4860 C   0  0  0  0  0  0  0  0  0  0  0  0
  129.7600  124.5100   67.6090 O   0  0  0  0  0  0  0  0  0  0  0  0
  131.2130  125.4700   65.9260 C   0  0  0  0  0  0  0  0  0  0  0  0
  132.2700  124.8100   65.0190 C   0  0  0  0  0  0  0  0  0  0  0  0
  131.7240  123.8890   63.8690 C   0  0  1  0  0  0  0  0  0  0  0  0
  132.8350  122.8300   63.5930 C   0  0  0  0  0  0  0  0  0  0  0  0
  131.2810  124.6950   62.5690 C   0  0  2  0  0  0  0  0  0  0  0  0
  130.3190  125.5390   62.9710 F   0  0  0  0  0  0  0  0  0  0  0  0
  132.3560  125.6610   61.9320 C   0  0  1  0  0  0  0  0  0  0  0  0
  133.6360  125.0850   61.7550 O   0  0  0  0  0  0  0  0  0  0  0  0
  131.8560  126.3320   60.6200 C   0  0  0  0  0  0  0  0  0  0  0  0
  131.3090  125.3260   59.5610 C   0  0  1  0  0  0  0  0  0  0  0  0
  132.4490  124.3770   59.0510 C   0  0  0  0  0  0  0  0  0  0  0  0
  130.5470  125.9410   58.3280 C   0  0  2  0  0  0  0  0  0  0  0  0
  129.7860  127.2650   58.6270 C   0  0  0  0  0  0  0  0  0  0  0  0
  131.4080  126.3370   57.2680 O   0  0  0  0  0  0  0  0  0  0  0  0
  127.5250  125.3930   57.9024 H   0  0  0  0  0  0  0  0  0  0  0  0
  128.4778  126.0450   56.5263 H   0  0  0  0  0  0  0  0  0  0  0  0
  127.9622  124.3243   56.5263 H   0  0  0  0  0  0  0  0  0  0  0  0
  130.1130  124.2216   57.0671 H   0  0  0  0  0  0  0  0  0  0  0  0
  128.3148  123.8042   59.3587 H   0  0  0  0  0  0  0  0  0  0  0  0
  129.7412  122.8467   58.9565 H   0  0  0  0  0  0  0  0  0  0  0  0
  129.4217  125.2270   60.7599 H   0  0  0  0  0  0  0  0  0  0  0  0
  131.3579  123.0353   61.1487 H   0  0  0  0  0  0  0  0  0  0  0  0
  128.6318  123.6097   62.3825 H   0  0  0  0  0  0  0  0  0  0  0  0
  129.1341  122.1910   61.3536 H   0  0  0  0  0  0  0  0  0  0  0  0
  129.0001  121.6387   63.8022 H   0  0  0  0  0  0  0  0  0  0  0  0
  130.6237  121.3820   63.1017 H   0  0  0  0  0  0  0  0  0  0  0  0
  128.9597  122.7828   65.8045 H   0  0  0  0  0  0  0  0  0  0  0  0
  130.6440  126.2069   65.3402 H   0  0  0  0  0  0  0  0  0  0  0  0
  131.7255  125.9629   66.7653 H   0  0  0  0  0  0  0  0  0  0  0  0
  132.8604  125.6129   64.5534 H   0  0  0  0  0  0  0  0  0  0  0  0
  132.8474  124.1449   65.6779 H   0  0  0  0  0  0  0  0  0  0  0  0
  133.2291  122.4544   64.5488 H   0  0  0  0  0  0  0  0  0  0  0  0
  132.4101  121.9942   63.0177 H   0  0  0  0  0  0  0  0  0  0  0  0
  133.6495  123.2944   63.0177 H   0  0  0  0  0  0  0  0  0  0  0  0
  132.4862  126.4484   62.6890 H   0  0  0  0  0  0  0  0  0  0  0  0
  134.2910  125.7860   61.7710 H   0  0  0  0  0  0  0  0  0  0  0  0
  131.0506  127.0358   60.8767 H   0  0  0  0  0  0  0  0  0  0  0  0
  132.7254  126.8301   60.1662 H   0  0  0  0  0  0  0  0  0  0  0  0
  132.9746  123.9394   59.9125 H   0  0  0  0  0  0  0  0  0  0  0  0
  132.0113  123.5728   58.4414 H   0  0  0  0  0  0  0  0  0  0  0  0
  133.1605  124.9533   58.4414 H   0  0  0  0  0  0  0  0  0  0  0  0
  129.7060  127.4042   59.7152 H   0  0  0  0  0  0  0  0  0  0  0  0
  130.3357  128.1109   58.1886 H   0  0  0  0  0  0  0  0  0  0  0  0
  128.7784  127.2158   58.1886 H   0  0  0  0  0  0  0  0  0  0  0  0
  131.7240  127.2250   57.4520 H   0  0  0  0  0  0  0  0  0  0  0  0
  1  2  1  0
  2  3  1  0
  3  4  1  0
  4  5  1  0
  5  6  1  0
  6  7  1  0
  7  8  1  0
  8  9  2  0
  9 10  1  0
 10 11  2  0
 10 12  1  0
 12 13  1  0
 13 14  1  0
 14 15  1  6
 14 16  1  0
 16 17  1  1
 16 18  1  0
 18 19  1  0
 18 20  1  0
 20 21  1  0
 21 22  1  6
 21 23  1  0
 23 24  1  0
 23 25  1  6
 23  2  1  0
 21  4  1  0
 16  5  1  0
 14  8  1  0
  1 26  1  0
  1 27  1  0
  1 28  1  0
  2 29  1  6
  3 30  1  0
  3 31  1  0
  4 32  1  1
  5 33  1  6
  6 34  1  0
  6 35  1  0
  7 36  1  0
  7 37  1  0
  9 38  1  0
 12 39  1  0
 12 40  1  0
 13 41  1  0
 13 42  1  0
 15 43  1  0
 15 44  1  0
 15 45  1  0
 18 46  1  1
 19 47  1  0
 20 48  1  0
 20 49  1  0
 22 50  1  0
 22 51  1  0
 22 52  1  0
 24 53  1  0
 24 54  1  0
 24 55  1  0
 25 56  1  0
M  END
>  <Binding energies>  (1) 
[-6.85]

>  <Ligand effiencies>  (1) 
[-0.2537037037037037]

>  <Interactions>  (1) 
["V-A:GLY:454:CA:4049, V-B:GLU:543:CB:9878, V-B:ALA:541:CB:9864, H-A:TYR:531:OH:4795, V-B:TYR:539:CE2:9848, V-A:TYR:484:CE2:4346, V-B:GLU:543:CG:9879, V-A:ASP:366:CG:3213, V-B:TYR:539:CZ:9849, H-B:TYR:539:OH:9850, V-A:TYR:484:CZ:4347, V-A:GLU:543:CD:4908, V-A:HIS:456:CE1:4070, V-B:TYR:539:CD2:9846, V-A:ASP:366:CB:3212, V-A:LEU:475:CD2:4259, H-A:ARG:545:NH2:4928, H-A:ASP:366:OD1:3214, H-A:ASP:366:OD2:3215, H-A:TYR:484:OH:4348"]

$$$$
ZINC473090876
     RDKit          3D

 39 41  0  0  0  0  0  0  0  0999 V2000
  130.5370  117.2310   59.5600 C   0  0  0  0  0  0  0  0  0  0  0  0
  130.5290  117.8140   60.9030 N   0  0  0  0  0  0  0  0  0  0  0  0
  130.8980  116.9230   62.0020 C   0  0  0  0  0  0  0  0  0  0  0  0
  130.6140  119.2260   61.0670 C   0  0  0  0  0  0  0  0  0  0  0  0
  131.7540  119.9380   60.6530 C   0  0  0  0  0  0  0  0  0  0  0  0
  131.8410  121.3180   60.8170 C   0  0  0  0  0  0  0  0  0  0  0  0
  130.7900  122.0240   61.4010 C   0  0  0  0  0  0  0  0  0  0  0  0
  130.8870  123.5470   61.5520 C   0  0  2  0  0  0  0  0  0  0  0  0
  131.6220  123.9790   63.1300 S   0  0  0  0  0  0  0  0  0  0  0  0
  130.6440  125.4750   63.2450 C   0  0  0  0  0  0  0  0  0  0  0  0
  129.4430  125.3230   62.3100 C   0  0  0  0  0  0  0  0  0  0  0  0
  128.5020  126.1160   62.3410 O   0  0  0  0  0  0  0  0  0  0  0  0
  129.5950  124.2590   61.4700 N   0  0  0  0  0  0  0  0  0  0  0  0
  128.6540  123.9720   60.4390 C   0  0  0  0  0  0  0  0  0  0  0  0
  127.2770  123.8830   60.7070 C   0  0  0  0  0  0  0  0  0  0  0  0
  126.3790  123.5740   59.6900 C   0  0  0  0  0  0  0  0  0  0  0  0
  126.8470  123.3460   58.3990 C   0  0  0  0  0  0  0  0  0  0  0  0
  125.6170  122.9220   57.0100 Br  0  0  0  0  0  0  0  0  0  0  0  0
  128.2080  123.4220   58.1170 C   0  0  0  0  0  0  0  0  0  0  0  0
  129.1090  123.7310   59.1330 C   0  0  0  0  0  0  0  0  0  0  0  0
  129.6500  121.3330   61.8190 C   0  0  0  0  0  0  0  0  0  0  0  0
  129.5660  119.9540   61.6550 C   0  0  0  0  0  0  0  0  0  0  0  0
  130.5521  116.1338   59.6367 H   0  0  0  0  0  0  0  0  0  0  0  0
  129.6344  117.5483   59.0172 H   0  0  0  0  0  0  0  0  0  0  0  0
  131.4305  117.5729   59.0172 H   0  0  0  0  0  0  0  0  0  0  0  0
  130.6923  117.4198   62.9616 H   0  0  0  0  0  0  0  0  0  0  0  0
  130.3099  115.9958   61.9356 H   0  0  0  0  0  0  0  0  0  0  0  0
  131.9695  116.6831   61.9356 H   0  0  0  0  0  0  0  0  0  0  0  0
  132.5919  119.3950   60.1914 H   0  0  0  0  0  0  0  0  0  0  0  0
  132.7426  121.8534   60.4845 H   0  0  0  0  0  0  0  0  0  0  0  0
  131.5065  123.8643   60.7002 H   0  0  0  0  0  0  0  0  0  0  0  0
  130.2972  125.6165   64.2793 H   0  0  0  0  0  0  0  0  0  0  0  0
  131.2457  126.3498   62.9576 H   0  0  0  0  0  0  0  0  0  0  0  0
  126.9068  124.0588   61.7278 H   0  0  0  0  0  0  0  0  0  0  0  0
  125.3022  123.5101   59.9056 H   0  0  0  0  0  0  0  0  0  0  0  0
  128.5707  123.2386   57.0949 H   0  0  0  0  0  0  0  0  0  0  0  0
  130.1848  123.7866   58.9106 H   0  0  0  0  0  0  0  0  0  0  0  0
  128.8153  121.8816   62.2797 H   0  0  0  0  0  0  0  0  0  0  0  0
  128.6628  119.4241   61.9918 H   0  0  0  0  0  0  0  0  0  0  0  0
  1  2  1  0
  2  3  1  0
  2  4  1  0
  4  5  2  0
  5  6  1  0
  6  7  2  0
  7  8  1  0
  8  9  1  0
  9 10  1  0
 10 11  1  0
 11 12  2  0
 11 13  1  0
 13 14  1  0
 14 15  2  0
 15 16  1  0
 16 17  2  0
 17 18  1  0
 17 19  1  0
 19 20  2  0
  7 21  1  0
 21 22  2  0
 22  4  1  0
 13  8  1  0
 20 14  1  0
  1 23  1  0
  1 24  1  0
  1 25  1  0
  3 26  1  0
  3 27  1  0
  3 28  1  0
  5 29  1  0
  6 30  1  0
  8 31  1  6
 10 32  1  0
 10 33  1  0
 15 34  1  0
 16 35  1  0
 19 36  1  0
 20 37  1  0
 21 38  1  0
 22 39  1  0
M  END
>  <Binding energies>  (1) 
[-6.02]

>  <Ligand effiencies>  (1) 
[-0.2736363636363636]

>  <Interactions>  (1) 
["V-B:TYR:539:CA:9841, V-B:PRO:540:CA:9855, V-B:ALA:541:CB:9864, V-B:TYR:539:CE2:9848, V-A:LEU:475:CG:4257, V-B:TYR:539:C:9839, V-B:TYR:539:CZ:9849, V-B:VAL:344:CG1:7972, V-A:LEU:475:CD1:4258, V-A:HIS:383:CE1:3393, V-B:TYR:539:CB:9843, V-B:PRO:540:CB:9857, V-B:PRO:540:N:9856, V-A:PRO:482:CB:4326, V-B:TYR:539:CD2:9846, V-B:PRO:540:CD:9859, V-A:LEU:475:CD2:4259, V-B:TYR:539:CG:9844, V-A:HIS:383:CD2:3392, V-B:LEU:363:CD1:8160, V-B:PRO:540:C:9853, V-B:MET:535:CE:9807, V-B:ALA:541:CA:9862, V-A:HIS:383:NE2:3394"]

$$$$
ZINC473114425
     RDKit          3D

 88 94  0  0  0  0  0  0  0  0999 V2000
  132.1530  123.3180   62.4320 C   0  0  0  0  0  0  0  0  0  0  0  0
  132.9250  124.6550   62.2520 C   0  0  0  0  0  0  0  0  0  0  0  0
  134.0420  124.8300   63.3030 C   0  0  0  0  0  0  0  0  0  0  0  0
  133.5930  124.6950   60.8490 C   0  0  0  0  0  0  0  0  0  0  0  0
  132.6050  124.8070   59.6740 C   0  0  0  0  0  0  0  0  0  0  0  0
  132.9250  124.4360   58.5470 O   0  0  0  0  0  0  0  0  0  0  0  0
  131.3080  125.4500   59.9590 C   0  0  0  0  0  0  0  0  0  0  0  0
  130.9420  125.8750   61.2060 C   0  0  0  0  0  0  0  0  0  0  0  0
  131.9510  125.8650   62.3740 C   0  0  0  0  0  0  0  0  0  0  0  0
  129.5730  126.1500   61.4410 N   0  0  0  0  0  0  0  0  0  0  0  0
  129.1780  126.7730   62.6440 C   0  0  0  0  0  0  0  0  0  0  0  0
  128.2700  127.8330   62.5830 C   0  0  0  0  0  0  0  0  0  0  0  0
  127.8610  128.4730   63.7500 C   0  0  0  0  0  0  0  0  0  0  0  0
  128.3620  128.0530   64.9840 C   0  0  0  0  0  0  0  0  0  0  0  0
  127.8530  128.8590   66.4980 S   0  0  0  0  0  0  0  0  0  0  0  0
  126.1000  128.8490   66.4410 N   0  0  0  0  0  0  0  0  0  0  0  0
  128.2680  128.0150   67.6240 O   0  0  0  0  0  0  0  0  0  0  0  0
  128.2900  130.2560   66.3980 O   0  0  0  0  0  0  0  0  0  0  0  0
  129.2660  126.9910   65.0530 C   0  0  0  0  0  0  0  0  0  0  0  0
  129.6740  126.3530   63.8860 C   0  0  0  0  0  0  0  0  0  0  0  0
  128.6070  125.4870   60.6440 C   0  0  0  0  0  0  0  0  0  0  0  0
  128.9830  125.0670   59.3970 C   0  0  0  0  0  0  0  0  0  0  0  0
  128.2160  124.0780   58.6180 C   0  0  0  0  0  0  0  0  0  0  0  0
  128.5830  123.6720   57.5160 O   0  0  0  0  0  0  0  0  0  0  0  0
  126.8830  123.6050   59.2250 C   0  0  0  0  0  0  0  0  0  0  0  0
  126.8340  123.6550   60.7770 C   0  0  0  0  0  0  0  0  0  0  0  0
  125.3690  123.4130   61.2010 C   0  0  0  0  0  0  0  0  0  0  0  0
  127.8010  122.5950   61.3720 C   0  0  0  0  0  0  0  0  0  0  0  0
  127.2420  125.0860   61.2400 C   0  0  0  0  0  0  0  0  0  0  0  0
  130.2910  125.6450   58.8150 C   0  0  0  0  0  0  0  0  0  0  0  0
  130.1530  127.1280   58.3940 C   0  0  0  0  0  0  0  0  0  0  0  0
  131.2150  128.0230   58.5700 C   0  0  0  0  0  0  0  0  0  0  0  0
  131.0910  129.3550   58.1880 C   0  0  0  0  0  0  0  0  0  0  0  0
  129.9060  129.8080   57.6160 C   0  0  0  0  0  0  0  0  0  0  0  0
  128.8170  128.9450   57.4080 C   0  0  0  0  0  0  0  0  0  0  0  0
  127.6120  129.3000   56.8440 N   0  0  0  0  0  0  0  0  0  0  0  0
  126.9480  130.7250   56.9190 S   0  0  0  0  0  0  0  0  0  0  0  0
  127.8590  131.7930   56.4910 O   0  0  0  0  0  0  0  0  0  0  0  0
  125.5720  130.7890   56.4100 O   0  0  0  0  0  0  0  0  0  0  0  0
  126.8400  130.9420   58.7030 C   0  0  0  0  0  0  0  0  0  0  0  0
  127.3340  129.9460   59.5450 C   0  0  0  0  0  0  0  0  0  0  0  0
  127.2690  130.0830   60.9290 C   0  0  0  0  0  0  0  0  0  0  0  0
  126.6990  131.2440   61.5060 C   0  0  0  0  0  0  0  0  0  0  0  0
  126.6140  131.4140   62.9110 C   0  0  0  0  0  0  0  0  0  0  0  0
  126.0470  132.5680   63.4460 C   0  0  0  0  0  0  0  0  0  0  0  0
  125.5560  133.5670   62.6120 C   0  0  0  0  0  0  0  0  0  0  0  0
  125.6240  133.4320   61.2280 C   0  0  0  0  0  0  0  0  0  0  0  0
  126.1950  132.2700   60.6500 C   0  0  0  0  0  0  0  0  0  0  0  0
  126.2810  132.1020   59.2460 C   0  0  0  0  0  0  0  0  0  0  0  0
  128.9760  127.6080   57.7950 C   0  0  0  0  0  0  0  0  0  0  0  0
  132.0309  123.1066   63.5046 H   0  0  0  0  0  0  0  0  0  0  0  0
  131.1631  123.3997   61.9594 H   0  0  0  0  0  0  0  0  0  0  0  0
  132.7187  122.5015   61.9594 H   0  0  0  0  0  0  0  0  0  0  0  0
  133.6097  124.7623   64.3122 H   0  0  0  0  0  0  0  0  0  0  0  0
  134.7951  124.0389   63.1728 H   0  0  0  0  0  0  0  0  0  0  0  0
  134.5171  125.8135   63.1728 H   0  0  0  0  0  0  0  0  0  0  0  0
  134.2676  125.5631   60.8144 H   0  0  0  0  0  0  0  0  0  0  0  0
  134.1183  123.7365   60.7254 H   0  0  0  0  0  0  0  0  0  0  0  0
  132.5319  126.7989   62.3570 H   0  0  0  0  0  0  0  0  0  0  0  0
  131.3957  125.7773   63.3195 H   0  0  0  0  0  0  0  0  0  0  0  0
  127.8770  128.1630   61.6101 H   0  0  0  0  0  0  0  0  0  0  0  0
  127.1454  129.3069   63.7001 H   0  0  0  0  0  0  0  0  0  0  0  0
  125.7000  129.2670   65.5970 H   0  0  0  0  0  0  0  0  0  0  0  0
  125.6720  127.9550   66.6920 H   0  0  0  0  0  0  0  0  0  0  0  0
  129.6544  126.6598   66.0274 H   0  0  0  0  0  0  0  0  0  0  0  0
  130.3873  125.5172   63.9380 H   0  0  0  0  0  0  0  0  0  0  0  0
  126.0795  124.2466   58.8341 H   0  0  0  0  0  0  0  0  0  0  0  0
  126.7639  122.5493   58.9398 H   0  0  0  0  0  0  0  0  0  0  0  0
  125.3021  123.4019   62.2989 H   0  0  0  0  0  0  0  0  0  0  0  0
  124.7343  124.2185   60.8031 H   0  0  0  0  0  0  0  0  0  0  0  0
  125.0270  122.4462   60.8031 H   0  0  0  0  0  0  0  0  0  0  0  0
  127.7615  122.6383   62.4704 H   0  0  0  0  0  0  0  0  0  0  0  0
  127.4996  121.5927   61.0335 H   0  0  0  0  0  0  0  0  0  0  0  0
  128.8267  122.8033   61.0335 H   0  0  0  0  0  0  0  0  0  0  0  0
  126.4782  125.8041   60.9069 H   0  0  0  0  0  0  0  0  0  0  0  0
  127.3212  125.0921   62.3371 H   0  0  0  0  0  0  0  0  0  0  0  0
  130.5956  125.1425   57.8851 H   0  0  0  0  0  0  0  0  0  0  0  0
  132.1569  127.6695   59.0148 H   0  0  0  0  0  0  0  0  0  0  0  0
  131.9300  130.0504   58.3382 H   0  0  0  0  0  0  0  0  0  0  0  0
  129.8201  130.8641   57.3205 H   0  0  0  0  0  0  0  0  0  0  0  0
  127.7810  129.0400   59.1098 H   0  0  0  0  0  0  0  0  0  0  0  0
  127.6621  129.2859   61.5772 H   0  0  0  0  0  0  0  0  0  0  0  0
  126.9976  130.6309   63.5815 H   0  0  0  0  0  0  0  0  0  0  0  0
  125.9869  132.6905   64.5375 H   0  0  0  0  0  0  0  0  0  0  0  0
  125.1099  134.4721   63.0500 H   0  0  0  0  0  0  0  0  0  0  0  0
  125.2330  134.2303   60.5801 H   0  0  0  0  0  0  0  0  0  0  0  0
  125.9048  132.8908   58.5780 H   0  0  0  0  0  0  0  0  0  0  0  0
  128.1466  126.9062   57.6232 H   0  0  0  0  0  0  0  0  0  0  0  0
  1  2  1  0
  2  3  1  0
  2  4  1  0
  4  5  1  0
  5  6  2  0
  5  7  1  0
  7  8  2  0
  8  9  1  0
  8 10  1  0
 10 11  1  0
 11 12  2  0
 12 13  1  0
 13 14  2  0
 14 15  1  0
 15 16  1  0
 15 17  2  0
 15 18  2  0
 14 19  1  0
 19 20  2  0
 10 21  1  0
 21 22  2  0
 22 23  1  0
 23 24  2  0
 23 25  1  0
 25 26  1  0
 26 27  1  0
 26 28  1  0
 26 29  1  0
 22 30  1  0
 30 31  1  0
 31 32  2  0
 32 33  1  0
 33 34  2  0
 34 35  1  0
 35 36  1  0
 36 37  1  0
 37 38  2  0
 37 39  2  0
 37 40  1  0
 40 41  2  0
 41 42  1  0
 42 43  2  0
 43 44  1  0
 44 45  2  0
 45 46  1  0
 46 47  2  0
 47 48  1  0
 48 49  2  0
 35 50  2  0
  9  2  1  0
 20 11  1  0
 29 21  1  0
 50 31  1  0
 30  7  1  0
 49 40  1  0
 48 43  1  0
  1 51  1  0
  1 52  1  0
  1 53  1  0
  3 54  1  0
  3 55  1  0
  3 56  1  0
  4 57  1  0
  4 58  1  0
  9 59  1  0
  9 60  1  0
 12 61  1  0
 13 62  1  0
 16 63  1  0
 16 64  1  0
 19 65  1  0
 20 66  1  0
 25 67  1  0
 25 68  1  0
 27 69  1  0
 27 70  1  0
 27 71  1  0
 28 72  1  0
 28 73  1  0
 28 74  1  0
 29 75  1  0
 29 76  1  0
 30 77  1  0
 32 78  1  0
 33 79  1  0
 34 80  1  0
 41 81  1  0
 42 82  1  0
 44 83  1  0
 45 84  1  0
 46 85  1  0
 47 86  1  0
 49 87  1  0
 50 88  1  0
M  CHG  1  36  -1
M  END
>  <Binding energies>  (1) 
[-10.24]

>  <Ligand effiencies>  (1) 
[-0.19692307692307692]

>  <Interactions>  (1) 
["V-B:PRO:540:CA:9855, V-B:ALA:541:CB:9864, V-B:TYR:539:CE2:9848, V-B:GLU:543:CG:9879, V-B:LEU:475:CD2:9230, V-A:ASP:366:CG:3213, V-A:TYR:539:CD1:4873, H-B:TYR:539:OH:9850, V-A:GLU:543:CD:4908, V-B:PRO:540:CB:9857, H-B:TYR:484:OH:9319, V-B:HIS:456:CE1:9041, V-A:GLY:453:C:4042, V-A:GLU:543:CG:4907, V-B:GLU:543:CD:9880, V-A:MET:535:CE:4835, H-B:TYR:531:OH:9767, V-A:ASP:366:CB:3212, V-A:ARG:545:CZ:4926, H-B:GLU:543:OE2:9882, V-A:GLY:453:CA:4044, H-A:TYR:539:OH:4878, V-B:PRO:540:C:9853, V-A:TYR:539:CE1:4875"]

$$$$
ZINC473114425-again1
     RDKit          3D

 89 95  0  0  0  0  0  0  0  0999 V2000
  134.2190  122.5760   61.3610 C   0  0  0  0  0  0  0  0  0  0  0  0
  134.1190  124.1150   61.4630 C   0  0  0  0  0  0  0  0  0  0  0  0
  135.1420  124.7250   62.4460 C   0  0  0  0  0  0  0  0  0  0  0  0
  132.7140  124.4310   61.9900 C   0  0  0  0  0  0  0  0  0  0  0  0
  131.6340  124.7430   61.2230 C   0  0  0  0  0  0  0  0  0  0  0  0
  131.8010  124.8380   59.7670 C   0  0  0  0  0  0  0  0  0  0  0  0
  133.0460  124.8500   59.2370 C   0  0  0  0  0  0  0  0  0  0  0  0
  133.3350  124.9980   57.9140 O   0  0  0  0  0  0  0  0  0  0  0  0
  134.3340  124.7450   60.0470 C   0  0  0  0  0  0  0  0  0  0  0  0
  130.5710  125.0630   58.8710 C   0  0  2  0  0  0  0  0  0  0  0  0
  130.5340  126.4880   58.2960 C   0  0  0  0  0  0  0  0  0  0  0  0
  129.6190  126.8340   57.2960 C   0  0  0  0  0  0  0  0  0  0  0  0
  129.5890  128.1310   56.7870 C   0  0  0  0  0  0  0  0  0  0  0  0
  130.4680  129.0960   57.2790 C   0  0  0  0  0  0  0  0  0  0  0  0
  131.3860  128.7710   58.2790 C   0  0  0  0  0  0  0  0  0  0  0  0
  132.2420  129.7760   58.7530 N   0  0  0  0  0  0  0  0  0  0  0  0
  131.6670  131.2790   59.5020 S   0  0  0  0  0  0  0  0  0  0  0  0
  132.8000  131.8550   60.2350 O   0  0  0  0  0  0  0  0  0  0  0  0
  130.9940  132.0440   58.4460 O   0  0  0  0  0  0  0  0  0  0  0  0
  130.4300  130.7550   60.6840 C   0  0  0  0  0  0  0  0  0  0  0  0
  130.2450  131.4800   61.8580 C   0  0  0  0  0  0  0  0  0  0  0  0
  129.2670  131.1060   62.7760 C   0  0  0  0  0  0  0  0  0  0  0  0
  128.4370  129.9870   62.5230 C   0  0  0  0  0  0  0  0  0  0  0  0
  127.4300  129.5820   63.4350 C   0  0  0  0  0  0  0  0  0  0  0  0
  126.6250  128.4810   63.1500 C   0  0  0  0  0  0  0  0  0  0  0  0
  126.7980  127.7640   61.9720 C   0  0  0  0  0  0  0  0  0  0  0  0
  127.7800  128.1340   61.0550 C   0  0  0  0  0  0  0  0  0  0  0  0
  128.6170  129.2480   61.3130 C   0  0  0  0  0  0  0  0  0  0  0  0
  129.6240  129.6500   60.4020 C   0  0  0  0  0  0  0  0  0  0  0  0
  131.4170  127.4640   58.7770 C   0  0  0  0  0  0  0  0  0  0  0  0
  129.2700  124.7180   59.6290 C   0  0  0  0  0  0  0  0  0  0  0  0
  129.1980  124.7600   60.9930 C   0  0  0  0  0  0  0  0  0  0  0  0
  127.8590  124.4940   61.7240 C   0  0  0  0  0  0  0  0  0  0  0  0
  126.9470  123.5180   60.9280 C   0  0  0  0  0  0  0  0  0  0  0  0
  125.5620  123.4860   61.6090 C   0  0  0  0  0  0  0  0  0  0  0  0
  127.5880  122.1050   60.8370 C   0  0  0  0  0  0  0  0  0  0  0  0
  126.7590  124.1150   59.5130 C   0  0  0  0  0  0  0  0  0  0  0  0
  128.0750  124.4410   58.7880 C   0  0  0  0  0  0  0  0  0  0  0  0
  128.0790  124.5820   57.5650 O   0  0  0  0  0  0  0  0  0  0  0  0
  130.3560  124.9720   61.7630 N   0  0  0  0  0  0  0  0  0  0  0  0
  130.2180  125.1830   63.1550 C   0  0  0  0  0  0  0  0  0  0  0  0
  130.6360  124.2180   64.0800 C   0  0  0  0  0  0  0  0  0  0  0  0
  130.4900  124.4520   65.4460 C   0  0  0  0  0  0  0  0  0  0  0  0
  129.9240  125.6500   65.8860 C   0  0  0  0  0  0  0  0  0  0  0  0
  129.7330  125.9740   67.6350 S   0  0  0  0  0  0  0  0  0  0  0  0
  131.1190  126.9590   68.0670 N   0  0  0  0  0  0  0  0  0  0  0  0
  128.5300  126.7940   67.8140 O   0  0  0  0  0  0  0  0  0  0  0  0
  129.8790  124.6850   68.3180 O   0  0  0  0  0  0  0  0  0  0  0  0
  129.5090  126.6150   64.9680 C   0  0  0  0  0  0  0  0  0  0  0  0
  129.6530  126.3790   63.6040 C   0  0  0  0  0  0  0  0  0  0  0  0
  134.2472  122.1426   62.3716 H   0  0  0  0  0  0  0  0  0  0  0  0
  133.3442  122.1868   60.8194 H   0  0  0  0  0  0  0  0  0  0  0  0
  135.1368  122.3033   60.8194 H   0  0  0  0  0  0  0  0  0  0  0  0
  134.8179  124.5317   63.4793 H   0  0  0  0  0  0  0  0  0  0  0  0
  136.1284  124.2675   62.2795 H   0  0  0  0  0  0  0  0  0  0  0  0
  135.2084  125.8103   62.2795 H   0  0  0  0  0  0  0  0  0  0  0  0
  132.5667  124.4031   63.0797 H   0  0  0  0  0  0  0  0  0  0  0  0
  134.2870  125.0530   57.8000 H   0  0  0  0  0  0  0  0  0  0  0  0
  135.0476  124.1198   59.4904 H   0  0  0  0  0  0  0  0  0  0  0  0
  134.7115  125.7673   60.1967 H   0  0  0  0  0  0  0  0  0  0  0  0
  130.6528  124.3791   58.0134 H   0  0  0  0  0  0  0  0  0  0  0  0
  128.9194  126.0783   56.9094 H   0  0  0  0  0  0  0  0  0  0  0  0
  128.8712  128.3942   55.9961 H   0  0  0  0  0  0  0  0  0  0  0  0
  130.4375  130.1193   56.8765 H   0  0  0  0  0  0  0  0  0  0  0  0
  133.2160  129.7260   58.4910 H   0  0  0  0  0  0  0  0  0  0  0  0
  130.8774  132.3566   62.0624 H   0  0  0  0  0  0  0  0  0  0  0  0
  129.1384  131.6834   63.7034 H   0  0  0  0  0  0  0  0  0  0  0  0
  127.2835  130.1395   64.3719 H   0  0  0  0  0  0  0  0  0  0  0  0
  125.8454  128.1765   63.8638 H   0  0  0  0  0  0  0  0  0  0  0  0
  126.1543  126.8971   61.7617 H   0  0  0  0  0  0  0  0  0  0  0  0
  127.9060  127.5584   60.1262 H   0  0  0  0  0  0  0  0  0  0  0  0
  129.7721  129.0890   59.4675 H   0  0  0  0  0  0  0  0  0  0  0  0
  132.1452  127.1986   59.5576 H   0  0  0  0  0  0  0  0  0  0  0  0
  128.0732  124.0560   62.7101 H   0  0  0  0  0  0  0  0  0  0  0  0
  127.3283  125.4525   61.8222 H   0  0  0  0  0  0  0  0  0  0  0  0
  125.6904  123.4890   62.7015 H   0  0  0  0  0  0  0  0  0  0  0  0
  124.9836  124.3710   61.3054 H   0  0  0  0  0  0  0  0  0  0  0  0
  125.0251  122.5752   61.3054 H   0  0  0  0  0  0  0  0  0  0  0  0
  127.7643  121.7164   61.8508 H   0  0  0  0  0  0  0  0  0  0  0  0
  126.9088  121.4283   60.2979 H   0  0  0  0  0  0  0  0  0  0  0  0
  128.5446  122.1703   60.2979 H   0  0  0  0  0  0  0  0  0  0  0  0
  126.1998  123.3897   58.9038 H   0  0  0  0  0  0  0  0  0  0  0  0
  126.2230  125.0672   59.6397 H   0  0  0  0  0  0  0  0  0  0  0  0
  131.0797  123.2750   63.7281 H   0  0  0  0  0  0  0  0  0  0  0  0
  130.8192  123.6962   66.1743 H   0  0  0  0  0  0  0  0  0  0  0  0
  130.9490  127.9680   68.0350 H   0  0  0  0  0  0  0  0  0  0  0  0
  131.9940  126.6810   67.6170 H   0  0  0  0  0  0  0  0  0  0  0  0
  129.0693  127.5595   65.3211 H   0  0  0  0  0  0  0  0  0  0  0  0
  129.3212  127.1359   62.8780 H   0  0  0  0  0  0  0  0  0  0  0  0
  1  2  1  0
  2  3  1  0
  2  4  1  0
  4  5  2  0
  5  6  1  0
  6  7  2  0
  7  8  1  0
  7  9  1  0
  6 10  1  0
 10 11  1  0
 11 12  2  0
 12 13  1  0
 13 14  2  0
 14 15  1  0
 15 16  1  0
 16 17  1  0
 17 18  2  0
 17 19  2  0
 17 20  1  0
 20 21  2  0
 21 22  1  0
 22 23  2  0
 23 24  1  0
 24 25  2  0
 25 26  1  0
 26 27  2  0
 27 28  1  0
 28 29  2  0
 15 30  2  0
 10 31  1  0
 31 32  2  0
 32 33  1  0
 33 34  1  0
 34 35  1  0
 34 36  1  0
 34 37  1  0
 37 38  1  0
 38 39  2  0
 32 40  1  0
 40 41  1  0
 41 42  2  0
 42 43  1  0
 43 44  2  0
 44 45  1  0
 45 46  1  0
 45 47  2  0
 45 48  2  0
 44 49  1  0
 49 50  2  0
  9  2  1  0
 30 11  1  0
 38 31  1  0
 50 41  1  0
 40  5  1  0
 29 20  1  0
 28 23  1  0
  1 51  1  0
  1 52  1  0
  1 53  1  0
  3 54  1  0
  3 55  1  0
  3 56  1  0
  4 57  1  0
  8 58  1  0
  9 59  1  0
  9 60  1  0
 10 61  1  6
 12 62  1  0
 13 63  1  0
 14 64  1  0
 16 65  1  0
 21 66  1  0
 22 67  1  0
 24 68  1  0
 25 69  1  0
 26 70  1  0
 27 71  1  0
 29 72  1  0
 30 73  1  0
 33 74  1  0
 33 75  1  0
 35 76  1  0
 35 77  1  0
 35 78  1  0
 36 79  1  0
 36 80  1  0
 36 81  1  0
 37 82  1  0
 37 83  1  0
 42 84  1  0
 43 85  1  0
 46 86  1  0
 46 87  1  0
 49 88  1  0
 50 89  1  0
M  END
>  <Binding energies>  (1) 
[-10.54]

>  <Ligand effiencies>  (1) 
[-0.19518518518518516]

>  <Interactions>  (1) 
["V-A:ILE:369:CG2:3237, V-A:ASP:366:CA:3210, V-B:PRO:540:CA:9855, H-A:GLU:543:OE2:4910, V-A:ILE:369:CB:3236, V-B:GLU:543:CB:9878, H-A:TYR:531:OH:4795, V-B:TYR:539:CE2:9848, V-A:TYR:484:CE2:4346, V-B:GLU:543:CG:9879, V-B:TYR:539:C:9839, V-A:ASP:366:CG:3213, V-B:TYR:539:CZ:9849, H-B:TYR:539:OH:9850, V-A:GLU:543:CD:4908, V-B:PRO:540:CB:9857, V-A:TYR:484:CZ:4347, V-A:GLY:453:C:4042, V-B:PRO:540:N:9856, V-A:ILE:369:CD1:3239, V-A:HIS:456:CE1:4070, V-A:TYR:531:CZ:4794, V-A:GLU:543:CG:4907, V-B:GLU:543:CD:9880, V-A:MET:535:CE:4835, V-A:ASP:366:CB:3212, V-A:ARG:545:CZ:4926, H-A:ASP:366:O:3209, V-A:GLY:453:CA:4044, V-A:PRO:540:CA:4883, V-A:PRO:540:CB:4885, V-B:PRO:540:C:9853, H-A:ASP:366:OD2:3215, H-A:TYR:484:OH:4348"]

$$$$
ZINC473124815
     RDKit          3D

 74 77  0  0  0  0  0  0  0  0999 V2000
  134.1000  123.9890   60.0800 C   0  0  0  0  0  0  0  0  0  0  0  0
  133.6470  123.2610   61.2170 O   0  0  0  0  0  0  0  0  0  0  0  0
  132.7020  123.8290   62.0490 C   0  0  0  0  0  0  0  0  0  0  0  0
  132.1600  123.2080   63.1840 C   0  0  0  0  0  0  0  0  0  0  0  0
  131.2020  123.8490   63.9920 C   0  0  0  0  0  0  0  0  0  0  0  0
  130.6620  123.2430   65.1160 O   0  0  0  0  0  0  0  0  0  0  0  0
  129.5090  122.4150   65.0050 C   0  0  0  0  0  0  0  0  0  0  0  0
  130.7780  125.1560   63.6540 C   0  0  0  0  0  0  0  0  0  0  0  0
  131.3190  125.7570   62.5000 C   0  0  0  0  0  0  0  0  0  0  0  0
  132.2710  125.1080   61.7200 C   0  0  0  0  0  0  0  0  0  0  0  0
  130.9850  127.0290   62.0810 O   0  0  0  0  0  0  0  0  0  0  0  0
  129.6450  127.4140   62.3990 C   0  0  2  0  0  0  0  0  0  0  0  0
  129.3220  128.8020   61.8400 C   0  0  0  0  0  0  0  0  0  0  0  0
  128.0030  129.1820   61.5780 C   0  0  0  0  0  0  0  0  0  0  0  0
  127.7090  130.4460   61.0440 C   0  0  0  0  0  0  0  0  0  0  0  0
  126.4280  130.8870   60.7610 O   0  0  0  0  0  0  0  0  0  0  0  0
  125.4410  129.9480   60.3500 C   0  0  0  0  0  0  0  0  0  0  0  0
  128.7640  131.3290   60.7710 C   0  0  0  0  0  0  0  0  0  0  0  0
  128.4910  132.5640   60.2310 O   0  0  0  0  0  0  0  0  0  0  0  0
  128.7590  132.6590   58.8390 C   0  0  0  0  0  0  0  0  0  0  0  0
  130.0950  130.9590   61.0070 C   0  0  0  0  0  0  0  0  0  0  0  0
  131.0770  131.8770   60.6760 O   0  0  0  0  0  0  0  0  0  0  0  0
  132.4430  131.4810   60.7140 C   0  0  0  0  0  0  0  0  0  0  0  0
  130.3580  129.6930   61.5530 C   0  0  0  0  0  0  0  0  0  0  0  0
  129.4480  127.3420   63.9330 C   0  0  1  0  0  0  0  0  0  0  0  0
  128.1350  127.7820   64.3060 O   0  0  0  0  0  0  0  0  0  0  0  0
  127.9120  128.8920   65.0500 C   0  0  0  0  0  0  0  0  0  0  0  0
  127.8540  130.0400   64.6010 O   0  0  0  0  0  0  0  0  0  0  0  0
  127.7290  128.5570   66.4560 C   0  0  0  0  0  0  0  0  0  0  0  0
  128.7410  128.1500   67.2520 C   0  0  0  0  0  0  0  0  0  0  0  0
  128.6350  127.8210   68.6890 C   0  0  0  0  0  0  0  0  0  0  0  0
  127.5230  127.1070   69.1370 C   0  0  0  0  0  0  0  0  0  0  0  0
  127.3780  126.7880   70.4850 C   0  0  0  0  0  0  0  0  0  0  0  0
  128.3480  127.1780   71.4220 C   0  0  0  0  0  0  0  0  0  0  0  0
  128.2630  126.8970   72.7760 O   0  0  0  0  0  0  0  0  0  0  0  0
  127.4740  127.7310   73.6160 C   0  0  0  0  0  0  0  0  0  0  0  0
  129.4730  127.8940   70.9880 C   0  0  0  0  0  0  0  0  0  0  0  0
  130.4030  128.2520   71.9500 O   0  0  0  0  0  0  0  0  0  0  0  0
  131.1120  127.2380   72.6550 C   0  0  0  0  0  0  0  0  0  0  0  0
  129.6040  128.2090   69.6230 C   0  0  0  0  0  0  0  0  0  0  0  0
  129.7500  125.9170   64.4530 C   0  0  0  0  0  0  0  0  0  0  0  0
  129.1870  125.4340   65.4360 O   0  0  0  0  0  0  0  0  0  0  0  0
  134.6541  124.8795   60.4117 H   0  0  0  0  0  0  0  0  0  0  0  0
  134.7605  123.3504   59.4750 H   0  0  0  0  0  0  0  0  0  0  0  0
  133.2353  124.2994   59.4750 H   0  0  0  0  0  0  0  0  0  0  0  0
  132.4923  122.1936   63.4496 H   0  0  0  0  0  0  0  0  0  0  0  0
  129.1464  122.1546   66.0104 H   0  0  0  0  0  0  0  0  0  0  0  0
  128.7210  122.9549   64.4594 H   0  0  0  0  0  0  0  0  0  0  0  0
  129.7688  121.4958   64.4594 H   0  0  0  0  0  0  0  0  0  0  0  0
  132.6861  125.6122   60.8349 H   0  0  0  0  0  0  0  0  0  0  0  0
  128.9390  126.7172   61.9236 H   0  0  0  0  0  0  0  0  0  0  0  0
  127.1836  128.4804   61.7934 H   0  0  0  0  0  0  0  0  0  0  0  0
  124.9696  129.4996   61.2370 H   0  0  0  0  0  0  0  0  0  0  0  0
  124.6761  130.4600   59.7476 H   0  0  0  0  0  0  0  0  0  0  0  0
  125.9142  129.1586   59.7476 H   0  0  0  0  0  0  0  0  0  0  0  0
  129.7859  133.0230   58.6873 H   0  0  0  0  0  0  0  0  0  0  0  0
  128.6494  131.6672   58.3760 H   0  0  0  0  0  0  0  0  0  0  0  0
  128.0492  133.3603   58.3760 H   0  0  0  0  0  0  0  0  0  0  0  0
  132.7684  131.3867   61.7605 H   0  0  0  0  0  0  0  0  0  0  0  0
  132.5583  130.5125   60.2054 H   0  0  0  0  0  0  0  0  0  0  0  0
  133.0584  132.2377   60.2054 H   0  0  0  0  0  0  0  0  0  0  0  0
  131.3976  129.3979   61.7582 H   0  0  0  0  0  0  0  0  0  0  0  0
  130.1641  128.0278   64.4093 H   0  0  0  0  0  0  0  0  0  0  0  0
  126.7210  128.6393   66.8886 H   0  0  0  0  0  0  0  0  0  0  0  0
  129.7342  128.0547   66.7890 H   0  0  0  0  0  0  0  0  0  0  0  0
  126.7525  126.7926   68.4177 H   0  0  0  0  0  0  0  0  0  0  0  0
  126.4942  126.2246   70.8189 H   0  0  0  0  0  0  0  0  0  0  0  0
  127.6915  127.5011   74.6695 H   0  0  0  0  0  0  0  0  0  0  0  0
  127.7126  128.7856   73.4140 H   0  0  0  0  0  0  0  0  0  0  0  0
  126.4078  127.5512   73.4140 H   0  0  0  0  0  0  0  0  0  0  0  0
  131.0003  127.3977   73.7376 H   0  0  0  0  0  0  0  0  0  0  0  0
  130.7056  126.2519   72.3860 H   0  0  0  0  0  0  0  0  0  0  0  0
  132.1777  127.2812   72.3860 H   0  0  0  0  0  0  0  0  0  0  0  0
  130.4857  128.7716   69.2823 H   0  0  0  0  0  0  0  0  0  0  0  0
  1  2  1  0
  2  3  1  0
  3  4  2  0
  4  5  1  0
  5  6  1  0
  6  7  1  0
  5  8  2  0
  8  9  1  0
  9 10  2  0
  9 11  1  0
 11 12  1  0
 12 13  1  0
 13 14  2  0
 14 15  1  0
 15 16  1  0
 16 17  1  0
 15 18  2  0
 18 19  1  0
 19 20  1  0
 18 21  1  0
 21 22  1  0
 22 23  1  0
 21 24  2  0
 12 25  1  0
 25 26  1  0
 26 27  1  0
 27 28  2  0
 27 29  1  0
 29 30  2  0
 30 31  1  0
 31 32  2  0
 32 33  1  0
 33 34  2  0
 34 35  1  0
 35 36  1  0
 34 37  1  0
 37 38  1  0
 38 39  1  0
 37 40  2  0
 25 41  1  0
 41 42  2  0
 10  3  1  0
 24 13  1  0
 40 31  1  0
 41  8  1  0
  1 43  1  0
  1 44  1  0
  1 45  1  0
  4 46  1  0
  7 47  1  0
  7 48  1  0
  7 49  1  0
 10 50  1  0
 12 51  1  6
 14 52  1  0
 17 53  1  0
 17 54  1  0
 17 55  1  0
 20 56  1  0
 20 57  1  0
 20 58  1  0
 23 59  1  0
 23 60  1  0
 23 61  1  0
 24 62  1  0
 25 63  1  1
 29 64  1  0
 30 65  1  0
 32 66  1  0
 33 67  1  0
 36 68  1  0
 36 69  1  0
 36 70  1  0
 39 71  1  0
 39 72  1  0
 39 73  1  0
 40 74  1  0
M  END
>  <Binding energies>  (1) 
[-4.77]

>  <Ligand effiencies>  (1) 
[-0.11357142857142856]

>  <Interactions>  (1) 
["V-A:ILE:369:CG2:3237, V-A:ASP:366:CA:3210, V-B:GLU:543:C:9874, V-A:ILE:369:CB:3236, V-A:GLU:543:C:4902, V-B:HIS:456:CD2:9039, V-B:GLU:543:CB:9878, H-B:LYS:547:NZ:9923, V-B:ALA:541:CB:9864, V-B:ASP:366:CG:8184, V-A:TYR:484:CE2:4346, V-B:GLU:543:CG:9879, V-A:GLY:544:C:4912, V-A:ASP:366:CG:3213, V-A:HIS:456:CD2:4068, V-A:TYR:539:CD1:4873, V-B:LYS:547:CE:9922, V-A:GLU:543:CD:4908, H-B:TYR:484:OH:9319, V-B:HIS:456:CE1:9041, V-A:ILE:369:CD1:3239, V-A:HIS:456:CE1:4070, V-B:GLY:544:C:9884, V-B:GLY:544:CA:9886, V-A:GLU:543:CG:4907, V-B:GLU:543:CD:9880, V-A:TYR:539:C:4867, V-A:LEU:475:CD2:4259, H-A:ARG:545:NH2:4928, V-A:GLU:543:CB:4906, V-A:HIS:456:CG:4066, V-A:PRO:540:CB:4885, V-A:PRO:540:CA:4883, H-A:TYR:484:OH:4348"]

$$$$
ZINC473134053
     RDKit          3D

101106  0  0  0  0  0  0  0  0999 V2000
  132.7520  125.8710   56.8770 C   0  0  0  0  0  0  0  0  0  0  0  0
  131.4360  126.1150   56.9880 C   0  0  0  0  0  0  0  0  0  0  0  0
  130.7300  126.6130   58.1620 C   0  0  0  0  0  0  0  0  0  0  0  0
  129.7070  127.5930   58.1870 C   0  0  0  0  0  0  0  0  0  0  0  0
  129.1100  128.3140   56.9900 C   0  0  0  0  0  0  0  0  0  0  0  0
  129.3290  127.7820   59.4980 C   0  0  0  0  0  0  0  0  0  0  0  0
  128.3440  128.6700   59.9650 C   0  0  0  0  0  0  0  0  0  0  0  0
  127.9860  128.8930   61.2930 C   0  0  0  0  0  0  0  0  0  0  0  0
  128.5290  128.3400   62.4130 N   0  0  0  0  0  0  0  0  0  0  0  0
  128.0280  128.9770   63.5090 C   0  0  0  0  0  0  0  0  0  0  0  0
  128.1750  128.5840   64.8630 C   0  0  0  0  0  0  0  0  0  0  0  0
  127.4100  129.4580   65.8780 C   0  0  0  0  0  0  0  0  0  0  0  0
  128.2690  130.6120   66.4260 C   0  0  0  0  0  0  0  0  0  0  0  0
  128.7020  130.6330   67.5820 O   0  0  0  0  0  0  0  0  0  0  0  0
  128.4730  131.5620   65.4930 O   0  0  0  0  0  0  0  0  0  0  0  0
  129.4150  132.6020   65.7160 C   0  0  0  0  0  0  0  0  0  0  0  0
  128.9460  127.4390   65.3110 C   0  0  0  0  0  0  0  0  0  0  0  0
  129.6840  126.6520   64.4430 N   0  0  0  0  0  0  0  0  0  0  0  0
  130.2830  125.6700   65.2000 C   0  0  0  0  0  0  0  0  0  0  0  0
  131.1870  124.6770   64.7520 C   0  0  0  0  0  0  0  0  0  0  0  0
  131.6590  124.4760   63.4430 C   0  0  0  0  0  0  0  0  0  0  0  0
  131.2940  125.1850   62.3270 N   0  0  0  0  0  0  0  0  0  0  0  0
  131.9530  124.7140   61.2140 C   0  0  0  0  0  0  0  0  0  0  0  0
  131.8090  125.1730   59.8910 C   0  0  0  0  0  0  0  0  0  0  0  0
  130.9260  126.1810   59.4560 C   0  0  0  0  0  0  0  0  0  0  0  0
  130.0850  126.9230   60.2530 N   0  0  0  0  0  0  0  0  0  0  0  0
  132.7750  123.6980   61.6420 C   0  0  0  0  0  0  0  0  0  0  0  0
  133.7160  122.8940   60.7630 C   0  0  0  0  0  0  0  0  0  0  0  0
  132.5760  123.5340   63.0320 C   0  0  0  0  0  0  0  0  0  0  0  0
  133.2590  122.5020   63.9180 C   0  0  0  0  0  0  0  0  0  0  0  0
  134.0490  121.4670   63.1050 C   0  0  0  0  0  0  0  0  0  0  0  0
  129.9050  125.7640   66.5080 C   0  0  0  0  0  0  0  0  0  0  0  0
  130.3240  124.8220   67.6330 C   0  0  0  0  0  0  0  0  0  0  0  0
  129.1060  126.9150   66.5990 C   0  0  0  0  0  0  0  0  0  0  0  0
  128.5900  127.3730   67.8660 C   0  0  0  0  0  0  0  0  0  0  0  0
  128.6400  128.5600   68.1890 O   0  0  0  0  0  0  0  0  0  0  0  0
  128.0730  126.3930   68.6290 N   0  0  0  0  0  0  0  0  0  0  0  0
  127.4090  126.5870   69.9210 C   0  0  0  0  0  0  0  0  0  0  0  0
  127.9920  127.6960   70.8350 C   0  0  0  0  0  0  0  0  0  0  0  0
  129.3340  127.4420   71.3850 N   0  0  0  0  0  0  0  0  0  0  0  0
  130.4760  127.8270   70.7840 C   0  0  0  0  0  0  0  0  0  0  0  0
  130.5920  128.4490   69.7270 O   0  0  0  0  0  0  0  0  0  0  0  0
  131.5240  127.3620   71.6380 C   0  0  0  0  0  0  0  0  0  0  0  0
  130.9720  126.7220   72.6720 C   0  0  0  0  0  0  0  0  0  0  0  0
  129.5510  126.7540   72.5220 C   0  0  0  0  0  0  0  0  0  0  0  0
  128.7090  126.2640   73.2750 O   0  0  0  0  0  0  0  0  0  0  0  0
  127.2750  130.2230   63.0470 C   0  0  1  0  0  0  0  0  0  0  0  0
  128.1400  131.5100   63.1070 C   0  0  0  0  0  0  0  0  0  0  0  0
  129.6070  131.2850   62.6840 C   0  0  0  0  0  0  0  0  0  0  0  0
  130.1130  132.3700   61.7330 C   0  0  0  0  0  0  0  0  0  0  0  0
  129.3290  133.0920   61.1130 O   0  0  0  0  0  0  0  0  0  0  0  0
  131.4590  132.4140   61.6680 O   0  0  0  0  0  0  0  0  0  0  0  0
  132.2370  131.3020   62.0870 C   0  0  0  0  0  0  0  0  0  0  0  0
  126.8660  129.8310   61.6450 C   0  0  2  0  0  0  0  0  0  0  0  0
  125.4720  129.1730   61.5660 C   0  0  0  0  0  0  0  0  0  0  0  0
  133.1634  125.4939   55.9291 H   0  0  0  0  0  0  0  0  0  0  0  0
  133.4184  126.0482   57.7340 H   0  0  0  0  0  0  0  0  0  0  0  0
  130.8241  125.9175   56.0955 H   0  0  0  0  0  0  0  0  0  0  0  0
  128.4449  129.1172   57.3400 H   0  0  0  0  0  0  0  0  0  0  0  0
  129.9182  128.7462   56.3817 H   0  0  0  0  0  0  0  0  0  0  0  0
  128.5347  127.6006   56.3817 H   0  0  0  0  0  0  0  0  0  0  0  0
  127.8000  129.2482   59.2036 H   0  0  0  0  0  0  0  0  0  0  0  0
  126.5244  129.8819   65.3819 H   0  0  0  0  0  0  0  0  0  0  0  0
  127.1294  128.8172   66.7269 H   0  0  0  0  0  0  0  0  0  0  0  0
  129.5488  132.7497   66.7978 H   0  0  0  0  0  0  0  0  0  0  0  0
  130.3784  132.3278   65.2614 H   0  0  0  0  0  0  0  0  0  0  0  0
  129.0471  133.5337   65.2614 H   0  0  0  0  0  0  0  0  0  0  0  0
  131.5639  123.9820   65.5168 H   0  0  0  0  0  0  0  0  0  0  0  0
  130.6250  125.9410   62.3300 H   0  0  0  0  0  0  0  0  0  0  0  0
  132.4442  124.7014   59.1267 H   0  0  0  0  0  0  0  0  0  0  0  0
  130.0120  126.8390   61.2570 H   0  0  0  0  0  0  0  0  0  0  0  0
  134.3998  122.3097   61.3962 H   0  0  0  0  0  0  0  0  0  0  0  0
  133.1316  122.2120   60.1279 H   0  0  0  0  0  0  0  0  0  0  0  0
  134.2984  123.5777   60.1279 H   0  0  0  0  0  0  0  0  0  0  0  0
  133.9512  123.0215   64.5970 H   0  0  0  0  0  0  0  0  0  0  0  0
  132.4763  121.9660   64.4748 H   0  0  0  0  0  0  0  0  0  0  0  0
  134.5710  120.7832   63.7905 H   0  0  0  0  0  0  0  0  0  0  0  0
  133.3571  120.8931   62.4710 H   0  0  0  0  0  0  0  0  0  0  0  0
  134.7850  121.9830   62.4710 H   0  0  0  0  0  0  0  0  0  0  0  0
  130.1139  125.2942   68.6040 H   0  0  0  0  0  0  0  0  0  0  0  0
  129.7594  123.8813   67.5530 H   0  0  0  0  0  0  0  0  0  0  0  0
  131.4007  124.6114   67.5530 H   0  0  0  0  0  0  0  0  0  0  0  0
  128.1100  125.4450   68.2830 H   0  0  0  0  0  0  0  0  0  0  0  0
  126.3561  126.8359   69.7224 H   0  0  0  0  0  0  0  0  0  0  0  0
  127.5581  125.6461   70.4709 H   0  0  0  0  0  0  0  0  0  0  0  0
  128.0395  128.6250   70.2479 H   0  0  0  0  0  0  0  0  0  0  0  0
  127.3204  127.7459   71.7048 H   0  0  0  0  0  0  0  0  0  0  0  0
  132.6017  127.5067   71.4717 H   0  0  0  0  0  0  0  0  0  0  0  0
  131.5195  126.2492   73.5007 H   0  0  0  0  0  0  0  0  0  0  0  0
  126.4222  130.4916   63.6878 H   0  0  0  0  0  0  0  0  0  0  0  0
  127.6953  132.2602   62.4365 H   0  0  0  0  0  0  0  0  0  0  0  0
  128.1526  131.8432   64.1552 H   0  0  0  0  0  0  0  0  0  0  0  0
  130.2380  131.2829   63.5850 H   0  0  0  0  0  0  0  0  0  0  0  0
  129.6589  130.3231   62.1529 H   0  0  0  0  0  0  0  0  0  0  0  0
  132.2625  131.2656   63.1861 H   0  0  0  0  0  0  0  0  0  0  0  0
  131.7896  130.3747   61.6997 H   0  0  0  0  0  0  0  0  0  0  0  0
  133.2614  131.4045   61.6997 H   0  0  0  0  0  0  0  0  0  0  0  0
  126.7451  130.6802   60.9563 H   0  0  0  0  0  0  0  0  0  0  0  0
  125.0929  128.9940   62.5830 H   0  0  0  0  0  0  0  0  0  0  0  0
  124.7815  129.8402   61.0294 H   0  0  0  0  0  0  0  0  0  0  0  0
  125.5482  128.2158   61.0294 H   0  0  0  0  0  0  0  0  0  0  0  0
  1  2  2  0
  2  3  1  0
  3  4  2  0
  4  5  1  0
  4  6  1  0
  6  7  2  0
  7  8  1  0
  8  9  2  0
  9 10  1  0
 10 11  2  0
 11 12  1  0
 12 13  1  0
 13 14  2  0
 13 15  1  0
 15 16  1  0
 11 17  1  0
 17 18  2  0
 18 19  1  0
 19 20  2  0
 20 21  1  0
 21 22  1  0
 22 23  1  0
 23 24  1  0
 24 25  2  0
 25 26  1  0
 23 27  2  0
 27 28  1  0
 27 29  1  0
 29 30  1  0
 30 31  1  0
 19 32  1  0
 32 33  1  0
 32 34  2  0
 34 35  1  0
 35 36  2  0
 35 37  1  0
 37 38  1  0
 38 39  1  0
 39 40  1  0
 40 41  1  0
 41 42  2  0
 41 43  1  0
 43 44  2  0
 44 45  1  0
 45 46  2  0
 10 47  1  0
 47 48  1  0
 48 49  1  0
 49 50  1  0
 50 51  2  0
 50 52  1  0
 52 53  1  0
 47 54  1  0
 54 55  1  0
 25  3  1  0
 45 40  1  0
 26  6  1  0
 54  8  1  0
 34 17  1  0
 29 21  2  0
  1 56  1  0
  1 57  1  0
  2 58  1  0
  5 59  1  0
  5 60  1  0
  5 61  1  0
  7 62  1  0
 12 63  1  0
 12 64  1  0
 16 65  1  0
 16 66  1  0
 16 67  1  0
 20 68  1  0
 22 69  1  0
 24 70  1  0
 26 71  1  0
 28 72  1  0
 28 73  1  0
 28 74  1  0
 30 75  1  0
 30 76  1  0
 31 77  1  0
 31 78  1  0
 31 79  1  0
 33 80  1  0
 33 81  1  0
 33 82  1  0
 37 83  1  0
 38 84  1  0
 38 85  1  0
 39 86  1  0
 39 87  1  0
 43 88  1  0
 44 89  1  0
 47 90  1  1
 48 91  1  0
 48 92  1  0
 49 93  1  0
 49 94  1  0
 53 95  1  0
 53 96  1  0
 53 97  1  0
 54 98  1  6
 55 99  1  0
 55100  1  0
 55101  1  0
M  END
>  <Binding energies>  (1) 
[-5.87]

>  <Ligand effiencies>  (1) 
[-0.10120689655172414]

>  <Interactions>  (1) 
["V-A:ILE:369:CG2:3237, V-A:ASP:366:CA:3210, V-A:ARG:545:CA:4919, V-A:GLU:543:CA:4904, V-A:GLY:454:CA:4049, V-B:GLU:543:C:9874, V-B:HIS:456:CD2:9039, H-B:GLU:543:O:9875, H-A:ALA:541:N:4891, V-A:GLU:543:C:4902, V-B:GLU:543:CB:9878, H-B:LYS:547:NZ:9923, V-A:PRO:540:C:4881, V-B:ASP:366:CG:8184, V-A:TYR:531:CE1:4792, V-A:TYR:484:CE2:4346, V-A:ASN:370:CB:3245, V-B:GLU:543:CG:9879, V-A:GLY:544:C:4912, V-A:HIS:456:CD2:4068, V-B:TYR:484:CE2:9317, V-B:TYR:539:CZ:9849, V-A:ALA:541:CB:4892, V-A:GLU:543:CD:4908, V-A:TYR:484:CZ:4347, H-B:TYR:484:OH:9319, V-A:VAL:542:C:4894, V-B:HIS:456:CE1:9041, V-A:SER:385:C:3405, V-B:GLU:543:CA:9876, V-A:HIS:456:CE1:4070, V-A:ILE:369:CD1:3239, V-B:TYR:484:CZ:9318, V-A:ASP:366:C:3208, V-B:GLY:544:C:9884, V-A:ALA:541:CA:4890, V-B:TYR:484:CD2:9315, V-B:GLY:544:CA:9886, V-A:GLU:543:CG:4907, V-A:TYR:531:CZ:4794, V-A:SER:385:CB:3409, V-B:GLU:543:CD:9880, V-A:MET:535:CE:4835, V-B:HIS:456:CG:9037, V-A:ASP:366:CB:3212, V-A:LEU:475:CD2:4259, V-A:GLU:543:CB:4906, V-A:HIS:456:CG:4066, H-B:GLU:543:OE2:9882, V-A:PRO:540:CA:4883"]

$$$$
ZINC473134053-again1
     RDKit          3D

102107  0  0  0  0  0  0  0  0999 V2000
  127.0480  130.2040   56.4270 C   0  0  0  0  0  0  0  0  0  0  0  0
  127.5830  128.9750   56.5040 C   0  0  0  0  0  0  0  0  0  0  0  0
  128.0040  128.2720   57.7110 C   0  0  0  0  0  0  0  0  0  0  0  0
  128.6000  126.9870   57.7810 C   0  0  0  0  0  0  0  0  0  0  0  0
  128.9030  126.0640   56.6120 C   0  0  0  0  0  0  0  0  0  0  0  0
  128.8570  126.7090   59.1050 C   0  0  0  0  0  0  0  0  0  0  0  0
  129.4790  125.5520   59.6070 C   0  0  0  0  0  0  0  0  0  0  0  0
  129.6940  125.2290   60.9440 C   0  0  0  0  0  0  0  0  0  0  0  0
  129.3230  125.9250   62.0560 N   0  0  0  0  0  0  0  0  0  0  0  0
  129.5500  125.1490   63.1570 C   0  0  0  0  0  0  0  0  0  0  0  0
  129.4890  125.5640   64.5080 C   0  0  0  0  0  0  0  0  0  0  0  0
  129.9220  124.5130   65.5490 C   0  0  0  0  0  0  0  0  0  0  0  0
  131.3430  124.7660   66.0820 C   0  0  0  0  0  0  0  0  0  0  0  0
  131.5770  125.0030   67.2710 O   0  0  0  0  0  0  0  0  0  0  0  0
  132.2600  124.6950   65.0990 O   0  0  0  0  0  0  0  0  0  0  0  0
  133.6390  124.8760   65.3850 C   0  0  0  0  0  0  0  0  0  0  0  0
  129.0860  126.8840   64.9350 C   0  0  0  0  0  0  0  0  0  0  0  0
  128.6480  127.8900   64.0880 N   0  0  0  0  0  0  0  0  0  0  0  0
  128.3200  129.0450   64.7740 C   0  0  0  0  0  0  0  0  0  0  0  0
  127.8070  130.2710   64.2930 C   0  0  0  0  0  0  0  0  0  0  0  0
  127.5060  130.6100   62.9620 C   0  0  0  0  0  0  0  0  0  0  0  0
  127.6910  129.8200   61.8540 N   0  0  0  0  0  0  0  0  0  0  0  0
  127.3020  130.4850   60.7130 C   0  0  0  0  0  0  0  0  0  0  0  0
  127.3680  129.9980   59.3930 C   0  0  0  0  0  0  0  0  0  0  0  0
  127.8850  128.7480   58.9970 C   0  0  0  0  0  0  0  0  0  0  0  0
  128.3950  127.7770   59.8300 N   0  0  0  0  0  0  0  0  0  0  0  0
  126.8500  131.7210   61.1090 C   0  0  0  0  0  0  0  0  0  0  0  0
  126.3270  132.8090   60.1880 C   0  0  0  0  0  0  0  0  0  0  0  0
  126.9720  131.7980   62.5160 C   0  0  0  0  0  0  0  0  0  0  0  0
  126.5790  132.9860   63.3820 C   0  0  0  0  0  0  0  0  0  0  0  0
  127.6510  133.3230   64.4270 C   0  0  0  0  0  0  0  0  0  0  0  0
  128.5750  128.8030   66.0970 C   0  0  0  0  0  0  0  0  0  0  0  0
  128.3650  129.8080   67.2270 C   0  0  0  0  0  0  0  0  0  0  0  0
  129.0280  127.4650   66.2070 C   0  0  0  0  0  0  0  0  0  0  0  0
  129.3630  126.9020   67.4890 C   0  0  0  0  0  0  0  0  0  0  0  0
  128.8630  125.8480   67.8820 O   0  0  0  0  0  0  0  0  0  0  0  0
  130.2300  127.6500   68.1930 N   0  0  0  0  0  0  0  0  0  0  0  0
  130.7160  127.3050   69.5240 C   0  0  0  0  0  0  0  0  0  0  0  0
  130.3240  128.3700   70.5640 C   0  0  0  0  0  0  0  0  0  0  0  0
  129.2070  127.9520   71.4240 N   0  0  0  0  0  0  0  0  0  0  0  0
  128.0820  127.3800   70.9510 C   0  0  0  0  0  0  0  0  0  0  0  0
  127.8140  127.1130   69.7800 O   0  0  0  0  0  0  0  0  0  0  0  0
  127.2710  127.1480   72.1050 C   0  0  0  0  0  0  0  0  0  0  0  0
  127.9290  127.5880   73.1810 C   0  0  0  0  0  0  0  0  0  0  0  0
  129.1870  128.1180   72.7590 C   0  0  0  0  0  0  0  0  0  0  0  0
  130.0630  128.6180   73.4650 O   0  0  0  0  0  0  0  0  0  0  0  0
  129.8850  123.7310   62.7030 C   0  0  1  0  0  0  0  0  0  0  0  0
  128.6930  122.7310   62.7650 C   0  0  0  0  0  0  0  0  0  0  0  0
  128.0000  122.4340   61.4160 C   0  0  0  0  0  0  0  0  0  0  0  0
  128.8530  121.5640   60.4940 C   0  0  0  0  0  0  0  0  0  0  0  0
  128.8220  121.7080   59.2700 O   0  0  0  0  0  0  0  0  0  0  0  0
  129.6050  120.6740   61.1740 O   0  0  0  0  0  0  0  0  0  0  0  0
  131.0130  120.6320   60.9930 C   0  0  0  0  0  0  0  0  0  0  0  0
  130.4250  123.9660   61.3120 C   0  0  2  0  0  0  0  0  0  0  0  0
  131.9600  124.1160   61.2590 C   0  0  0  0  0  0  0  0  0  0  0  0
  126.7714  130.6231   55.4483 H   0  0  0  0  0  0  0  0  0  0  0  0
  126.8863  130.7918   57.3426 H   0  0  0  0  0  0  0  0  0  0  0  0
  127.7188  128.4395   55.5528 H   0  0  0  0  0  0  0  0  0  0  0  0
  129.2249  125.0835   56.9928 H   0  0  0  0  0  0  0  0  0  0  0  0
  127.9984  125.9401   55.9986 H   0  0  0  0  0  0  0  0  0  0  0  0
  129.7050  126.5004   55.9986 H   0  0  0  0  0  0  0  0  0  0  0  0
  129.8339  124.8236   58.8630 H   0  0  0  0  0  0  0  0  0  0  0  0
  129.2177  124.5413   66.3935 H   0  0  0  0  0  0  0  0  0  0  0  0
  129.9193  123.5304   65.0546 H   0  0  0  0  0  0  0  0  0  0  0  0
  133.7880  124.8956   66.4747 H   0  0  0  0  0  0  0  0  0  0  0  0
  134.2155  124.0458   64.9509 H   0  0  0  0  0  0  0  0  0  0  0  0
  133.9818  125.8268   64.9509 H   0  0  0  0  0  0  0  0  0  0  0  0
  128.5680  127.7800   63.0870 H   0  0  0  0  0  0  0  0  0  0  0  0
  127.6218  131.0501   65.0471 H   0  0  0  0  0  0  0  0  0  0  0  0
  128.0700  128.8860   61.8760 H   0  0  0  0  0  0  0  0  0  0  0  0
  126.9807  130.6530   58.5987 H   0  0  0  0  0  0  0  0  0  0  0  0
  128.4500  127.8450   60.8350 H   0  0  0  0  0  0  0  0  0  0  0  0
  125.9282  133.6387   60.7901 H   0  0  0  0  0  0  0  0  0  0  0  0
  127.1464  133.1774   59.5533 H   0  0  0  0  0  0  0  0  0  0  0  0
  125.5275  132.3991   59.5533 H   0  0  0  0  0  0  0  0  0  0  0  0
  126.4285  133.8620   62.7340 H   0  0  0  0  0  0  0  0  0  0  0  0
  125.6562  132.7212   63.9190 H   0  0  0  0  0  0  0  0  0  0  0  0
  127.2334  133.1917   65.4361 H   0  0  0  0  0  0  0  0  0  0  0  0
  128.5134  132.6526   64.2970 H   0  0  0  0  0  0  0  0  0  0  0  0
  127.9747  134.3662   64.2970 H   0  0  0  0  0  0  0  0  0  0  0  0
  128.4716  129.2980   68.1958 H   0  0  0  0  0  0  0  0  0  0  0  0
  129.1152  130.6087   67.1497 H   0  0  0  0  0  0  0  0  0  0  0  0
  127.3569  130.2413   67.1497 H   0  0  0  0  0  0  0  0  0  0  0  0
  130.5950  128.4960   67.7800 H   0  0  0  0  0  0  0  0  0  0  0  0
  130.2838  126.3385   69.8224 H   0  0  0  0  0  0  0  0  0  0  0  0
  131.8139  127.2493   69.4857 H   0  0  0  0  0  0  0  0  0  0  0  0
  131.1974  128.5765   71.2000 H   0  0  0  0  0  0  0  0  0  0  0  0
  129.9966  129.2632   70.0117 H   0  0  0  0  0  0  0  0  0  0  0  0
  126.2731  126.6851   72.1067 H   0  0  0  0  0  0  0  0  0  0  0  0
  127.5637  127.5489   74.2178 H   0  0  0  0  0  0  0  0  0  0  0  0
  130.6007  123.2263   63.3686 H   0  0  0  0  0  0  0  0  0  0  0  0
  129.0699  121.7797   63.1686 H   0  0  0  0  0  0  0  0  0  0  0  0
  127.9303  123.2106   63.3961 H   0  0  0  0  0  0  0  0  0  0  0  0
  127.0522  121.9123   61.6146 H   0  0  0  0  0  0  0  0  0  0  0  0
  127.8362  123.3957   60.9077 H   0  0  0  0  0  0  0  0  0  0  0  0
  131.5086  120.6172   61.9749 H   0  0  0  0  0  0  0  0  0  0  0  0
  131.2837  119.7254   60.4320 H   0  0  0  0  0  0  0  0  0  0  0  0
  131.3372  121.5209   60.4320 H   0  0  0  0  0  0  0  0  0  0  0  0
  130.2620  123.1257   60.6211 H   0  0  0  0  0  0  0  0  0  0  0  0
  132.3602  124.1551   62.2829 H   0  0  0  0  0  0  0  0  0  0  0  0
  132.3943  123.2560   60.7282 H   0  0  0  0  0  0  0  0  0  0  0  0
  132.2196  125.0438   60.7282 H   0  0  0  0  0  0  0  0  0  0  0  0
  1  2  2  0
  2  3  1  0
  3  4  2  0
  4  5  1  0
  4  6  1  0
  6  7  2  0
  7  8  1  0
  8  9  2  0
  9 10  1  0
 10 11  2  0
 11 12  1  0
 12 13  1  0
 13 14  2  0
 13 15  1  0
 15 16  1  0
 11 17  1  0
 17 18  2  0
 18 19  1  0
 19 20  2  0
 20 21  1  0
 21 22  1  0
 22 23  1  0
 23 24  1  0
 24 25  2  0
 25 26  1  0
 23 27  2  0
 27 28  1  0
 27 29  1  0
 29 30  1  0
 30 31  1  0
 19 32  1  0
 32 33  1  0
 32 34  2  0
 34 35  1  0
 35 36  2  0
 35 37  1  0
 37 38  1  0
 38 39  1  0
 39 40  1  0
 40 41  1  0
 41 42  2  0
 41 43  1  0
 43 44  2  0
 44 45  1  0
 45 46  2  0
 10 47  1  0
 47 48  1  0
 48 49  1  0
 49 50  1  0
 50 51  2  0
 50 52  1  0
 52 53  1  0
 47 54  1  0
 54 55  1  0
 25  3  1  0
 45 40  1  0
 26  6  1  0
 54  8  1  0
 34 17  1  0
 29 21  2  0
  1 56  1  0
  1 57  1  0
  2 58  1  0
  5 59  1  0
  5 60  1  0
  5 61  1  0
  7 62  1  0
 12 63  1  0
 12 64  1  0
 16 65  1  0
 16 66  1  0
 16 67  1  0
 18 68  1  0
 20 69  1  0
 22 70  1  0
 24 71  1  0
 26 72  1  0
 28 73  1  0
 28 74  1  0
 28 75  1  0
 30 76  1  0
 30 77  1  0
 31 78  1  0
 31 79  1  0
 31 80  1  0
 33 81  1  0
 33 82  1  0
 33 83  1  0
 37 84  1  0
 38 85  1  0
 38 86  1  0
 39 87  1  0
 39 88  1  0
 43 89  1  0
 44 90  1  0
 47 91  1  1
 48 92  1  0
 48 93  1  0
 49 94  1  0
 49 95  1  0
 53 96  1  0
 53 97  1  0
 53 98  1  0
 54 99  1  6
 55100  1  0
 55101  1  0
 55102  1  0
M  CHG  1  18   1
M  END
>  <Binding energies>  (1) 
[-7.29]

>  <Ligand effiencies>  (1) 
[-0.1235593220338983]

>  <Interactions>  (1) 
["V-B:PRO:540:CA:9855, V-A:GLU:543:CA:4904, V-A:GLY:454:CA:4049, V-B:HIS:456:CD2:9039, H-A:GLU:543:OE2:4910, V-A:GLU:543:C:4902, V-B:GLU:543:CB:9878, V-B:ALA:541:CB:9864, V-B:TYR:539:CE2:9848, V-A:TYR:484:CE2:4346, V-B:LEU:475:CD2:9230, V-B:GLU:543:CG:9879, V-B:TYR:539:C:9839, V-A:GLY:544:C:4912, V-A:TYR:539:CD1:4873, V-B:TYR:484:CE2:9317, H-B:GLU:543:OE1:9881, V-A:ALA:541:CB:4892, V-B:LYS:547:CE:9922, V-A:GLU:543:CD:4908, V-A:TYR:484:CZ:4347, V-B:HIS:456:CE1:9041, V-B:PRO:540:N:9856, V-B:TYR:484:CZ:9318, V-A:HIS:456:CE1:4070, V-B:GLY:544:C:9884, V-B:TYR:539:CD2:9846, V-A:GLU:543:CG:4907, V-B:GLY:544:CA:9886, V-B:GLU:543:CD:9880, V-A:MET:535:CE:4835, V-B:HIS:456:CG:9037, V-A:ARG:545:CD:4923, H-A:LYS:547:NZ:4951, V-A:LEU:475:CD2:4259, V-A:ARG:545:CZ:4926, H-A:GLU:543:OE1:4909, V-A:GLU:543:CB:4906, V-B:PRO:540:C:9853, V-A:TYR:539:CE1:4875, H-A:HIS:456:ND1:4067, H-A:TYR:484:OH:4348"]

$$$$
ZINC4742244
     RDKit          3D

 57 58  0  0  0  0  0  0  0  0999 V2000
  133.8530  123.5090   61.2460 C   0  0  0  0  0  0  0  0  0  0  0  0
  132.4430  123.6100   60.6770 C   0  0  0  0  0  0  0  0  0  0  0  0
  131.6190  122.6700   60.9570 N   0  0  0  0  0  0  0  0  0  0  0  0
  130.3970  122.7330   60.3830 N   0  0  0  0  0  0  0  0  0  0  0  0
  129.2570  122.9770   61.0590 C   0  0  0  0  0  0  0  0  0  0  0  0
  128.1900  123.0430   60.4460 O   0  0  0  0  0  0  0  0  0  0  0  0
  129.2550  123.1630   62.5970 C   0  0  2  0  0  0  0  0  0  0  0  0
  127.8680  122.8320   63.1760 C   0  0  0  0  0  0  0  0  0  0  0  0
  129.8700  124.8060   63.1100 S   0  0  0  0  0  0  0  0  0  0  0  0
  131.1540  124.4030   64.3440 C   0  0  1  0  0  0  0  0  0  0  0  0
  132.5060  125.0790   64.0590 C   0  0  0  0  0  0  0  0  0  0  0  0
  130.6880  124.6870   65.7840 C   0  0  0  0  0  0  0  0  0  0  0  0
  129.9440  123.8870   66.3580 O   0  0  0  0  0  0  0  0  0  0  0  0
  131.1430  125.8270   66.3400 N   0  0  0  0  0  0  0  0  0  0  0  0
  130.9000  126.1530   67.6270 N   0  0  0  0  0  0  0  0  0  0  0  0
  129.8190  126.7960   67.8730 C   0  0  0  0  0  0  0  0  0  0  0  0
  128.7270  127.1290   66.8380 C   0  0  0  0  0  0  0  0  0  0  0  0
  129.5110  127.2050   69.2660 C   0  0  0  0  0  0  0  0  0  0  0  0
  128.2200  126.9880   69.7810 C   0  0  0  0  0  0  0  0  0  0  0  0
  127.8800  127.3640   71.0800 C   0  0  0  0  0  0  0  0  0  0  0  0
  128.8270  127.9680   71.8990 C   0  0  0  0  0  0  0  0  0  0  0  0
  130.1130  128.1950   71.4180 C   0  0  0  0  0  0  0  0  0  0  0  0
  130.4610  127.8190   70.1180 C   0  0  0  0  0  0  0  0  0  0  0  0
  131.7470  128.0850   69.7150 O   0  0  0  0  0  0  0  0  0  0  0  0
  132.2030  124.7990   59.8130 C   0  0  0  0  0  0  0  0  0  0  0  0
  131.3500  125.8160   60.2730 C   0  0  0  0  0  0  0  0  0  0  0  0
  131.1040  126.9560   59.5110 C   0  0  0  0  0  0  0  0  0  0  0  0
  131.7110  127.1030   58.2670 C   0  0  0  0  0  0  0  0  0  0  0  0
  132.5580  126.1080   57.7870 C   0  0  0  0  0  0  0  0  0  0  0  0
  132.8070  124.9620   58.5470 C   0  0  0  0  0  0  0  0  0  0  0  0
  133.6310  124.0090   58.0000 O   0  0  0  0  0  0  0  0  0  0  0  0
  133.8060  123.5124   62.3450 H   0  0  0  0  0  0  0  0  0  0  0  0
  134.3212  122.5750   60.9019 H   0  0  0  0  0  0  0  0  0  0  0  0
  134.4496  124.3667   60.9019 H   0  0  0  0  0  0  0  0  0  0  0  0
  130.3860  122.5880   59.3840 H   0  0  0  0  0  0  0  0  0  0  0  0
  129.9716  122.4460   63.0242 H   0  0  0  0  0  0  0  0  0  0  0  0
  127.9171  122.8437   64.2748 H   0  0  0  0  0  0  0  0  0  0  0  0
  127.1393  123.5815   62.8335 H   0  0  0  0  0  0  0  0  0  0  0  0
  127.5563  121.8342   62.8335 H   0  0  0  0  0  0  0  0  0  0  0  0
  131.3168  123.3193   64.2491 H   0  0  0  0  0  0  0  0  0  0  0  0
  133.0001  125.3261   65.0102 H   0  0  0  0  0  0  0  0  0  0  0  0
  133.1440  124.3938   63.4815 H   0  0  0  0  0  0  0  0  0  0  0  0
  132.3407  126.0005   63.4815 H   0  0  0  0  0  0  0  0  0  0  0  0
  131.7390  126.4650   65.8340 H   0  0  0  0  0  0  0  0  0  0  0  0
  127.8009  127.4114   67.3601 H   0  0  0  0  0  0  0  0  0  0  0  0
  129.0623  127.9657   66.2076 H   0  0  0  0  0  0  0  0  0  0  0  0
  128.5383  126.2476   66.2076 H   0  0  0  0  0  0  0  0  0  0  0  0
  127.4609  126.5105   69.1440 H   0  0  0  0  0  0  0  0  0  0  0  0
  126.8625  127.1827   71.4566 H   0  0  0  0  0  0  0  0  0  0  0  0
  128.5607  128.2656   72.9240 H   0  0  0  0  0  0  0  0  0  0  0  0
  130.8614  128.6742   72.0663 H   0  0  0  0  0  0  0  0  0  0  0  0
  131.9580  127.6850   68.8680 H   0  0  0  0  0  0  0  0  0  0  0  0
  130.8663  125.7100   61.2552 H   0  0  0  0  0  0  0  0  0  0  0  0
  130.4313  127.7386   59.8917 H   0  0  0  0  0  0  0  0  0  0  0  0
  131.5218  128.0036   57.6644 H   0  0  0  0  0  0  0  0  0  0  0  0
  133.0347  126.2246   56.8025 H   0  0  0  0  0  0  0  0  0  0  0  0
  134.3840  124.3860   57.5400 H   0  0  0  0  0  0  0  0  0  0  0  0
  1  2  1  0
  2  3  2  0
  3  4  1  0
  4  5  1  0
  5  6  2  0
  5  7  1  0
  7  8  1  0
  7  9  1  0
  9 10  1  0
 10 11  1  0
 10 12  1  0
 12 13  2  0
 12 14  1  0
 14 15  1  0
 15 16  2  0
 16 17  1  0
 16 18  1  0
 18 19  2  0
 19 20  1  0
 20 21  2  0
 21 22  1  0
 22 23  2  0
 23 24  1  0
  2 25  1  0
 25 26  2  0
 26 27  1  0
 27 28  2  0
 28 29  1  0
 29 30  2  0
 30 31  1  0
 23 18  1  0
 30 25  1  0
  1 32  1  0
  1 33  1  0
  1 34  1  0
  4 35  1  0
  7 36  1  1
  8 37  1  0
  8 38  1  0
  8 39  1  0
 10 40  1  1
 11 41  1  0
 11 42  1  0
 11 43  1  0
 14 44  1  0
 17 45  1  0
 17 46  1  0
 17 47  1  0
 19 48  1  0
 20 49  1  0
 21 50  1  0
 22 51  1  0
 24 52  1  0
 26 53  1  0
 27 54  1  0
 28 55  1  0
 29 56  1  0
 31 57  1  0
M  END
>  <Binding energies>  (1) 
[-7.82]

>  <Ligand effiencies>  (1) 
[-0.22342857142857145]

>  <Interactions>  (1) 
["V-A:ILE:369:CG2:3237, V-A:ASP:366:CA:3210, V-B:GLU:543:C:9874, H-A:GLU:543:OE2:4910, V-A:GLU:543:C:4902, V-B:HIS:456:CD2:9039, V-B:GLU:543:CB:9878, V-B:ALA:541:CB:9864, V-B:TYR:539:CE2:9848, V-A:TYR:484:CE2:4346, V-B:GLU:543:CG:9879, V-A:GLY:544:C:4912, V-A:ASP:366:CG:3213, H-A:ARG:545:N:4920, V-B:TYR:539:CZ:9849, H-B:TYR:539:OH:9850, V-A:TYR:484:CZ:4347, V-A:GLU:543:CD:4908, V-B:HIS:456:CE1:9041, V-A:ILE:369:CD1:3239, V-A:HIS:456:CE1:4070, V-A:ASP:366:C:3208, V-B:TYR:539:CD2:9846, V-A:TYR:531:CZ:4794, V-B:GLU:543:CD:9880, V-A:ASP:366:CB:3212, V-A:ARG:545:CZ:4926, H-A:GLU:543:OE1:4909, H-A:ASP:366:O:3209, V-A:GLU:543:CB:4906, V-B:ALA:541:CA:9862, H-A:TYR:484:OH:4348"]

$$$$
ZINC476829961
     RDKit          3D

 56 59  0  0  0  0  0  0  0  0999 V2000
  130.0780  120.5820   61.2730 C   0  0  0  0  0  0  0  0  0  0  0  0
  129.4720  121.5850   62.2840 C   0  0  2  0  0  0  0  0  0  0  0  0
  128.3530  122.3620   61.6050 C   0  0  0  0  0  0  0  0  0  0  0  0
  127.2700  122.8470   62.1680 N   0  0  0  0  0  0  0  0  0  0  0  0
  126.6060  123.3870   61.1640 C   0  0  0  0  0  0  0  0  0  0  0  0
  127.2810  123.2210   59.9620 C   0  0  0  0  0  0  0  0  0  0  0  0
  127.0440  123.6090   58.5060 C   0  0  0  0  0  0  0  0  0  0  0  0
  125.5410  123.8730   58.2610 C   0  0  0  0  0  0  0  0  0  0  0  0
  127.8430  124.8900   58.1820 C   0  0  0  0  0  0  0  0  0  0  0  0
  127.5130  122.4630   57.5820 C   0  0  0  0  0  0  0  0  0  0  0  0
  128.4140  122.5390   60.2600 O   0  0  0  0  0  0  0  0  0  0  0  0
  130.4540  122.5060   62.9010 N   0  0  0  0  0  0  0  0  0  0  0  0
  131.2350  123.2240   61.8810 C   0  0  0  0  0  0  0  0  0  0  0  0
  132.3580  124.0680   62.5050 C   0  0  0  0  0  0  0  0  0  0  0  0
  131.8160  125.0820   63.5190 C   0  0  0  0  0  0  0  0  0  0  0  0
  130.9320  124.3830   64.5700 C   0  0  1  0  0  0  0  0  0  0  0  0
  130.3040  125.3690   65.5400 C   0  0  0  0  0  0  0  0  0  0  0  0
  130.5470  125.5150   66.8140 N   0  0  0  0  0  0  0  0  0  0  0  0
  129.6600  126.4250   67.1760 C   0  0  0  0  0  0  0  0  0  0  0  0
  129.5780  126.9510   68.5850 C   0  0  0  0  0  0  0  0  0  0  0  0
  130.6670  127.6190   69.1640 C   0  0  0  0  0  0  0  0  0  0  0  0
  130.5910  128.1050   70.4650 C   0  0  0  0  0  0  0  0  0  0  0  0
  129.4230  127.9280   71.2030 C   0  0  0  0  0  0  0  0  0  0  0  0
  129.3270  128.5310   72.8180 Cl  0  0  0  0  0  0  0  0  0  0  0  0
  128.3320  127.2670   70.6460 C   0  0  0  0  0  0  0  0  0  0  0  0
  128.4100  126.7800   69.3430 C   0  0  0  0  0  0  0  0  0  0  0  0
  128.8480  126.8360   66.2210 N   0  0  0  0  0  0  0  0  0  0  0  0
  129.2560  126.1090   65.1040 O   0  0  0  0  0  0  0  0  0  0  0  0
  129.9060  123.4050   63.9350 C   0  0  0  0  0  0  0  0  0  0  0  0
  130.5719  119.7645   61.8187 H   0  0  0  0  0  0  0  0  0  0  0  0
  129.2777  120.1698   60.6409 H   0  0  0  0  0  0  0  0  0  0  0  0
  130.8151  121.0988   60.6409 H   0  0  0  0  0  0  0  0  0  0  0  0
  129.0797  120.9904   63.1222 H   0  0  0  0  0  0  0  0  0  0  0  0
  125.6401  123.9033   61.2662 H   0  0  0  0  0  0  0  0  0  0  0  0
  125.0225  123.9641   59.2269 H   0  0  0  0  0  0  0  0  0  0  0  0
  125.4208  124.8060   57.6909 H   0  0  0  0  0  0  0  0  0  0  0  0
  125.1100  123.0368   57.6909 H   0  0  0  0  0  0  0  0  0  0  0  0
  128.1479  125.3788   59.1191 H   0  0  0  0  0  0  0  0  0  0  0  0
  128.7372  124.6265   57.5981 H   0  0  0  0  0  0  0  0  0  0  0  0
  127.2131  125.5772   57.5981 H   0  0  0  0  0  0  0  0  0  0  0  0
  127.8592  121.6170   58.1939 H   0  0  0  0  0  0  0  0  0  0  0  0
  126.6756  122.1379   56.9471 H   0  0  0  0  0  0  0  0  0  0  0  0
  128.3381  122.8182   56.9471 H   0  0  0  0  0  0  0  0  0  0  0  0
  131.6819  122.4902   61.1941 H   0  0  0  0  0  0  0  0  0  0  0  0
  130.5544  123.9043   61.3481 H   0  0  0  0  0  0  0  0  0  0  0  0
  133.0647  123.3975   63.0158 H   0  0  0  0  0  0  0  0  0  0  0  0
  132.8537  124.6261   61.6970 H   0  0  0  0  0  0  0  0  0  0  0  0
  132.6603  125.5721   64.0259 H   0  0  0  0  0  0  0  0  0  0  0  0
  131.2076  125.8260   62.9840 H   0  0  0  0  0  0  0  0  0  0  0  0
  131.6001  123.7514   65.1739 H   0  0  0  0  0  0  0  0  0  0  0  0
  131.5905  127.7599   68.5833 H   0  0  0  0  0  0  0  0  0  0  0  0
  131.4507  128.6276   70.9098 H   0  0  0  0  0  0  0  0  0  0  0  0
  127.4116  127.1296   71.2325 H   0  0  0  0  0  0  0  0  0  0  0  0
  127.5477  126.2565   68.9045 H   0  0  0  0  0  0  0  0  0  0  0  0
  129.4856  122.7831   64.7390 H   0  0  0  0  0  0  0  0  0  0  0  0
  129.1575  124.0327   63.4292 H   0  0  0  0  0  0  0  0  0  0  0  0
  1  2  1  0
  2  3  1  0
  3  4  2  0
  4  5  1  0
  5  6  2  0
  6  7  1  0
  7  8  1  0
  7  9  1  0
  7 10  1  0
  6 11  1  0
  2 12  1  0
 12 13  1  0
 13 14  1  0
 14 15  1  0
 15 16  1  0
 16 17  1  0
 17 18  2  0
 18 19  1  0
 19 20  1  0
 20 21  2  0
 21 22  1  0
 22 23  2  0
 23 24  1  0
 23 25  1  0
 25 26  2  0
 19 27  2  0
 27 28  1  0
 16 29  1  0
 11  3  1  0
 29 12  1  0
 28 17  1  0
 26 20  1  0
  1 30  1  0
  1 31  1  0
  1 32  1  0
  2 33  1  1
  5 34  1  0
  8 35  1  0
  8 36  1  0
  8 37  1  0
  9 38  1  0
  9 39  1  0
  9 40  1  0
 10 41  1  0
 10 42  1  0
 10 43  1  0
 13 44  1  0
 13 45  1  0
 14 46  1  0
 14 47  1  0
 15 48  1  0
 15 49  1  0
 16 50  1  1
 21 51  1  0
 22 52  1  0
 25 53  1  0
 26 54  1  0
 29 55  1  0
 29 56  1  0
M  END
>  <Binding energies>  (1) 
[-8.76]

>  <Ligand effiencies>  (1) 
[-0.3020689655172414]

>  <Interactions>  (1) 
["V-B:TYR:539:CA:9841, V-B:PRO:540:CA:9855, V-B:GLU:543:C:9874, V-B:HIS:456:CD2:9039, V-A:GLU:543:C:4902, V-B:GLU:543:CB:9878, V-B:ALA:541:CB:9864, V-B:TYR:539:CE2:9848, V-B:GLU:543:CG:9879, V-A:GLY:544:C:4912, V-B:TYR:539:C:9839, V-B:TYR:539:CZ:9849, H-B:ALA:541:N:9863, V-A:GLU:543:CD:4908, V-B:PRO:540:CB:9857, V-B:HIS:456:CE1:9041, V-B:PRO:540:N:9856, V-A:HIS:456:CE1:4070, V-B:TYR:539:CD2:9846, V-A:LEU:475:CD2:4259, V-B:TYR:539:CG:9844, V-A:GLU:543:CB:4906, V-B:TYR:539:CD1:9845, V-B:PRO:540:C:9853, V-B:TYR:539:CE1:9847, H-A:TYR:484:OH:4348"]

$$$$
ZINC4769270
     RDKit          3D

100106  0  0  0  0  0  0  0  0999 V2000
  125.4980  124.0980   59.9260 C   0  0  0  0  0  0  0  0  0  0  0  0
  126.3760  123.1860   59.2820 O   0  0  0  0  0  0  0  0  0  0  0  0
  126.4670  123.1550   57.9370 C   0  0  0  0  0  0  0  0  0  0  0  0
  125.5500  123.3830   57.1450 O   0  0  0  0  0  0  0  0  0  0  0  0
  127.8840  122.7870   57.4780 C   0  0  0  0  0  0  0  0  0  0  0  0
  128.8500  123.9870   57.3620 C   0  0  0  0  0  0  0  0  0  0  0  0
  128.4920  125.0840   58.3540 C   0  0  0  0  0  0  0  0  0  0  0  0
  127.7740  126.2710   58.0740 C   0  0  0  0  0  0  0  0  0  0  0  0
  127.2100  126.6840   56.7270 C   0  0  0  0  0  0  0  0  0  0  0  0
  127.6700  126.9920   59.2420 C   0  0  0  0  0  0  0  0  0  0  0  0
  127.0390  128.2420   59.4200 C   0  0  0  0  0  0  0  0  0  0  0  0
  126.9280  128.9640   60.6310 C   0  0  0  0  0  0  0  0  0  0  0  0
  127.4290  128.5400   61.8360 N   0  0  0  0  0  0  0  0  0  0  0  0
  127.1060  129.5250   62.7360 C   0  0  0  0  0  0  0  0  0  0  0  0
  127.4140  129.4920   64.1160 C   0  0  0  0  0  0  0  0  0  0  0  0
  128.1040  128.4760   64.8190 C   0  0  0  0  0  0  0  0  0  0  0  0
  128.5790  127.3150   64.2660 N   0  0  0  0  0  0  0  0  0  0  0  0
  129.1680  126.6270   65.2990 C   0  0  0  0  0  0  0  0  0  0  0  0
  129.8170  125.3800   65.1470 C   0  0  0  0  0  0  0  0  0  0  0  0
  129.9580  124.6440   63.9490 C   0  0  0  0  0  0  0  0  0  0  0  0
  129.5020  125.0100   62.7030 N   0  0  0  0  0  0  0  0  0  0  0  0
  129.8200  124.0570   61.7630 C   0  0  0  0  0  0  0  0  0  0  0  0
  129.5150  124.0810   60.3860 C   0  0  0  0  0  0  0  0  0  0  0  0
  128.8110  125.0850   59.6930 C   0  0  0  0  0  0  0  0  0  0  0  0
  128.3020  126.2520   60.2150 N   0  0  0  0  0  0  0  0  0  0  0  0
  130.4930  123.0590   62.4300 C   0  0  0  0  0  0  0  0  0  0  0  0
  131.0460  121.7950   61.7900 C   0  0  0  0  0  0  0  0  0  0  0  0
  132.5800  121.8610   61.6390 C   0  0  0  0  0  0  0  0  0  0  0  0
  133.0370  121.5170   60.2220 C   0  0  0  0  0  0  0  0  0  0  0  0
  133.2130  120.3490   59.8710 O   0  0  0  0  0  0  0  0  0  0  0  0
  133.2120  122.6170   59.4580 O   0  0  0  0  0  0  0  0  0  0  0  0
  133.3870  123.8910   60.0600 C   0  0  0  0  0  0  0  0  0  0  0  0
  130.5740  123.4220   63.7960 C   0  0  0  0  0  0  0  0  0  0  0  0
  131.2190  122.6130   64.9060 C   0  0  0  0  0  0  0  0  0  0  0  0
  129.0360  127.3220   66.4790 C   0  0  0  0  0  0  0  0  0  0  0  0
  129.5230  126.9060   67.8680 C   0  0  2  0  0  0  0  0  0  0  0  0
  129.1910  125.5170   68.3460 C   0  0  0  0  0  0  0  0  0  0  0  0
  128.6230  126.7090   69.0940 C   0  0  2  0  0  0  0  0  0  0  0  0
  127.1090  126.9730   69.0050 C   0  0  0  0  0  0  0  0  0  0  0  0
  126.5510  127.2820   67.9490 O   0  0  0  0  0  0  0  0  0  0  0  0
  126.5050  126.8300   70.2020 O   0  0  0  0  0  0  0  0  0  0  0  0
  127.2460  126.9740   71.4050 C   0  0  0  0  0  0  0  0  0  0  0  0
  128.3990  128.5290   66.1570 C   0  0  0  0  0  0  0  0  0  0  0  0
  128.0910  129.6760   67.1040 C   0  0  0  0  0  0  0  0  0  0  0  0
  126.4510  130.5580   62.1090 C   0  0  0  0  0  0  0  0  0  0  0  0
  125.9540  131.8490   62.7600 C   0  0  2  0  0  0  0  0  0  0  0  0
  126.4270  133.1520   62.1720 C   0  0  0  0  0  0  0  0  0  0  0  0
  126.8090  132.8080   63.6010 C   0  0  2  0  0  0  0  0  0  0  0  0
  128.2710  132.4640   63.9470 C   0  0  0  0  0  0  0  0  0  0  0  0
  128.6790  132.5940   65.1020 O   0  0  0  0  0  0  0  0  0  0  0  0
  129.0130  132.0420   62.8960 O   0  0  0  0  0  0  0  0  0  0  0  0
  129.4730  132.9620   61.9190 C   0  0  0  0  0  0  0  0  0  0  0  0
  126.3010  130.1770   60.7680 C   0  0  0  0  0  0  0  0  0  0  0  0
  125.5900  130.9520   59.6720 C   0  0  0  0  0  0  0  0  0  0  0  0
  125.5975  123.9947   61.0166 H   0  0  0  0  0  0  0  0  0  0  0  0
  125.7553  125.1257   59.6301 H   0  0  0  0  0  0  0  0  0  0  0  0
  124.4612  123.8799   59.6301 H   0  0  0  0  0  0  0  0  0  0  0  0
  128.3059  122.0747   58.2023 H   0  0  0  0  0  0  0  0  0  0  0  0
  127.7863  122.3643   56.4672 H   0  0  0  0  0  0  0  0  0  0  0  0
  129.8750  123.6424   57.5635 H   0  0  0  0  0  0  0  0  0  0  0  0
  128.7704  124.3993   56.3453 H   0  0  0  0  0  0  0  0  0  0  0  0
  126.3310  127.3276   56.8793 H   0  0  0  0  0  0  0  0  0  0  0  0
  127.9757  127.2365   56.1627 H   0  0  0  0  0  0  0  0  0  0  0  0
  126.9144  125.7872   56.1627 H   0  0  0  0  0  0  0  0  0  0  0  0
  126.5884  128.7005   58.5274 H   0  0  0  0  0  0  0  0  0  0  0  0
  127.0789  130.3546   64.7107 H   0  0  0  0  0  0  0  0  0  0  0  0
  130.2567  124.9380   66.0532 H   0  0  0  0  0  0  0  0  0  0  0  0
  129.0010  125.8660   62.5130 H   0  0  0  0  0  0  0  0  0  0  0  0
  129.8640  123.2247   59.7902 H   0  0  0  0  0  0  0  0  0  0  0  0
  128.3790  126.5350   61.1810 H   0  0  0  0  0  0  0  0  0  0  0  0
  130.7859  120.9321   62.4206 H   0  0  0  0  0  0  0  0  0  0  0  0
  130.6049  121.6950   60.7873 H   0  0  0  0  0  0  0  0  0  0  0  0
  132.9161  122.8798   61.8819 H   0  0  0  0  0  0  0  0  0  0  0  0
  133.0184  121.1202   62.3239 H   0  0  0  0  0  0  0  0  0  0  0  0
  133.3724  123.7844   61.1547 H   0  0  0  0  0  0  0  0  0  0  0  0
  134.3519  124.3156   59.7458 H   0  0  0  0  0  0  0  0  0  0  0  0
  132.5723  124.5600   59.7458 H   0  0  0  0  0  0  0  0  0  0  0  0
  130.9019  123.0107   65.8813 H   0  0  0  0  0  0  0  0  0  0  0  0
  130.9091  121.5610   64.8207 H   0  0  0  0  0  0  0  0  0  0  0  0
  132.3136  122.6808   64.8207 H   0  0  0  0  0  0  0  0  0  0  0  0
  130.4173  127.5247   67.7022 H   0  0  0  0  0  0  0  0  0  0  0  0
  128.5245  124.8773   67.7488 H   0  0  0  0  0  0  0  0  0  0  0  0
  129.7848  124.6367   68.6332 H   0  0  0  0  0  0  0  0  0  0  0  0
  128.6401  127.0812   70.1290 H   0  0  0  0  0  0  0  0  0  0  0  0
  126.5750  126.8436   72.2668 H   0  0  0  0  0  0  0  0  0  0  0  0
  128.0398  126.2133   71.4400 H   0  0  0  0  0  0  0  0  0  0  0  0
  127.6971  127.9766   71.4400 H   0  0  0  0  0  0  0  0  0  0  0  0
  128.1843  129.3284   68.1435 H   0  0  0  0  0  0  0  0  0  0  0  0
  128.8002  130.4980   66.9272 H   0  0  0  0  0  0  0  0  0  0  0  0
  127.0654  130.0322   66.9272 H   0  0  0  0  0  0  0  0  0  0  0  0
  125.0044  131.3365   62.9733 H   0  0  0  0  0  0  0  0  0  0  0  0
  127.1952  133.1501   61.3847 H   0  0  0  0  0  0  0  0  0  0  0  0
  125.9299  134.0070   61.6906 H   0  0  0  0  0  0  0  0  0  0  0  0
  126.7000  133.2907   64.5834 H   0  0  0  0  0  0  0  0  0  0  0  0
  129.9113  133.8386   62.4184 H   0  0  0  0  0  0  0  0  0  0  0  0
  130.2355  132.4787   61.2905 H   0  0  0  0  0  0  0  0  0  0  0  0
  128.6289  133.2820   61.2905 H   0  0  0  0  0  0  0  0  0  0  0  0
  124.9125  131.6905   60.1255 H   0  0  0  0  0  0  0  0  0  0  0  0
  126.3331  131.4705   59.0484 H   0  0  0  0  0  0  0  0  0  0  0  0
  125.0095  130.2562   59.0484 H   0  0  0  0  0  0  0  0  0  0  0  0
  1  2  1  0
  2  3  1  0
  3  4  2  0
  3  5  1  0
  5  6  1  0
  6  7  1  0
  7  8  2  0
  8  9  1  0
  8 10  1  0
 10 11  2  0
 11 12  1  0
 12 13  2  0
 13 14  1  0
 14 15  2  0
 15 16  1  0
 16 17  2  0
 17 18  1  0
 18 19  2  0
 19 20  1  0
 20 21  1  0
 21 22  1  0
 22 23  1  0
 23 24  2  0
 24 25  1  0
 22 26  2  0
 26 27  1  0
 27 28  1  0
 28 29  1  0
 29 30  2  0
 29 31  1  0
 31 32  1  0
 26 33  1  0
 33 34  1  0
 18 35  1  0
 35 36  1  0
 36 37  1  0
 37 38  1  0
 38 39  1  0
 39 40  2  0
 39 41  1  0
 41 42  1  0
 35 43  2  0
 43 44  1  0
 14 45  1  0
 45 46  1  0
 46 47  1  0
 47 48  1  0
 48 49  1  0
 49 50  2  0
 49 51  1  0
 51 52  1  0
 45 53  2  0
 53 54  1  0
 24  7  1  0
 38 36  1  0
 48 46  1  0
 25 10  1  0
 53 12  1  0
 43 16  1  0
 33 20  2  0
  1 55  1  0
  1 56  1  0
  1 57  1  0
  5 58  1  0
  5 59  1  0
  6 60  1  0
  6 61  1  0
  9 62  1  0
  9 63  1  0
  9 64  1  0
 11 65  1  0
 15 66  1  0
 19 67  1  0
 21 68  1  0
 23 69  1  0
 25 70  1  0
 27 71  1  0
 27 72  1  0
 28 73  1  0
 28 74  1  0
 32 75  1  0
 32 76  1  0
 32 77  1  0
 34 78  1  0
 34 79  1  0
 34 80  1  0
 36 81  1  1
 37 82  1  0
 37 83  1  0
 38 84  1  1
 42 85  1  0
 42 86  1  0
 42 87  1  0
 44 88  1  0
 44 89  1  0
 44 90  1  0
 46 91  1  1
 47 92  1  0
 47 93  1  0
 48 94  1  1
 52 95  1  0
 52 96  1  0
 52 97  1  0
 54 98  1  0
 54 99  1  0
 54100  1  0
M  END
>  <Binding energies>  (1) 
[-7.65]

>  <Ligand effiencies>  (1) 
[-0.13660714285714287]

>  <Interactions>  (1) 
["V-A:ILE:369:CG2:3237, V-B:PRO:540:CA:9855, V-B:GLU:543:C:9874, V-B:HIS:456:CD2:9039, V-B:GLU:543:CB:9878, V-A:PRO:540:C:4881, V-B:TYR:539:CE2:9848, V-A:TYR:484:CE2:4346, V-B:GLU:543:CG:9879, V-B:LEU:475:CD2:9230, V-B:TYR:539:C:9839, H-B:HIS:456:ND1:9038, V-B:TYR:484:CE2:9317, V-B:TYR:539:CZ:9849, H-B:GLU:543:OE1:9881, V-B:TYR:531:CZ:9766, V-A:ALA:541:CB:4892, H-B:ARG:545:N:9892, V-A:GLU:543:CD:4908, V-A:TYR:484:CZ:4347, V-B:PRO:540:CB:9857, H-B:TYR:484:OH:9319, V-B:HIS:456:CE1:9041, H-B:GLY:544:N:9887, V-B:GLU:543:CA:9876, V-B:PRO:540:N:9856, V-B:TYR:484:CZ:9318, V-A:HIS:456:CE1:4070, V-B:GLY:544:C:9884, V-A:ALA:541:CA:4890, V-B:TYR:539:CD2:9846, V-A:GLU:543:CG:4907, V-B:GLY:544:CA:9886, H-A:SER:385:OG:3410, V-B:GLU:543:CD:9880, V-B:HIS:456:CG:9037, V-A:LEU:475:CD2:4259, V-B:TYR:539:CG:9844, V-A:GLU:543:CB:4906, V-B:TYR:539:CD1:9845, V-A:PRO:540:CA:4883, V-B:TYR:539:CE1:9847"]

$$$$
ZINC4769270-again1
     RDKit          3D

102108  0  0  0  0  0  0  0  0999 V2000
  127.4520  130.9950   57.3750 C   0  0  0  0  0  0  0  0  0  0  0  0
  128.7420  131.5840   57.4390 O   0  0  0  0  0  0  0  0  0  0  0  0
  128.9320  132.7490   58.0910 C   0  0  0  0  0  0  0  0  0  0  0  0
  129.7190  133.6410   57.7640 O   0  0  0  0  0  0  0  0  0  0  0  0
  128.0380  132.8530   59.3340 C   0  0  0  0  0  0  0  0  0  0  0  0
  128.7820  133.2280   60.6310 C   0  0  0  0  0  0  0  0  0  0  0  0
  128.8520  132.0610   61.6080 C   0  0  0  0  0  0  0  0  0  0  0  0
  128.4040  132.0700   62.9140 C   0  0  0  0  0  0  0  0  0  0  0  0
  127.7620  133.2450   63.6370 C   0  0  0  0  0  0  0  0  0  0  0  0
  128.6440  130.8070   63.4270 C   0  0  0  0  0  0  0  0  0  0  0  0
  128.3270  130.3770   64.7180 C   0  0  0  0  0  0  0  0  0  0  0  0
  128.5440  129.1160   65.2810 C   0  0  0  0  0  0  0  0  0  0  0  0
  129.1110  128.0750   64.6470 N   0  0  0  0  0  0  0  0  0  0  0  0
  129.1560  127.0350   65.5040 C   0  0  0  0  0  0  0  0  0  0  0  0
  129.7080  125.7840   65.2110 C   0  0  0  0  0  0  0  0  0  0  0  0
  130.2890  125.3480   64.0150 C   0  0  0  0  0  0  0  0  0  0  0  0
  130.4170  126.0910   62.9000 N   0  0  0  0  0  0  0  0  0  0  0  0
  131.0230  125.3400   61.9630 C   0  0  0  0  0  0  0  0  0  0  0  0
  131.3210  125.7680   60.6670 C   0  0  0  0  0  0  0  0  0  0  0  0
  131.0980  127.0280   60.1050 C   0  0  0  0  0  0  0  0  0  0  0  0
  130.5220  128.0670   60.7410 N   0  0  0  0  0  0  0  0  0  0  0  0
  130.4910  129.1080   59.8880 C   0  0  0  0  0  0  0  0  0  0  0  0
  129.9610  130.3660   60.1820 C   0  0  0  0  0  0  0  0  0  0  0  0
  129.3760  130.8010   61.3750 C   0  0  0  0  0  0  0  0  0  0  0  0
  129.2350  130.0490   62.4840 N   0  0  0  0  0  0  0  0  0  0  0  0
  131.0640  128.7320   58.6830 C   0  0  0  0  0  0  0  0  0  0  0  0
  131.2360  129.6090   57.4430 C   0  0  0  0  0  0  0  0  0  0  0  0
  132.5310  130.4490   57.4460 C   0  0  0  0  0  0  0  0  0  0  0  0
  132.4240  131.7390   58.2650 C   0  0  0  0  0  0  0  0  0  0  0  0
  132.3160  132.8370   57.7170 O   0  0  0  0  0  0  0  0  0  0  0  0
  132.4400  131.5090   59.5940 O   0  0  0  0  0  0  0  0  0  0  0  0
  133.6620  131.5370   60.3140 C   0  0  0  0  0  0  0  0  0  0  0  0
  131.4390  127.4090   58.8190 C   0  0  0  0  0  0  0  0  0  0  0  0
  132.1050  126.5310   57.7700 C   0  0  0  0  0  0  0  0  0  0  0  0
  131.3100  124.0940   62.4920 C   0  0  0  0  0  0  0  0  0  0  0  0
  132.0180  122.9430   61.7760 C   0  0  2  0  0  0  0  0  0  0  0  0
  132.0590  122.8620   60.2740 C   0  0  0  0  0  0  0  0  0  0  0  0
  131.2790  121.8150   61.0410 C   0  0  2  0  0  0  0  0  0  0  0  0
  129.7430  121.8220   60.9550 C   0  0  0  0  0  0  0  0  0  0  0  0
  129.0370  121.1050   61.6700 O   0  0  0  0  0  0  0  0  0  0  0  0
  129.2980  122.6680   60.0060 O   0  0  0  0  0  0  0  0  0  0  0  0
  127.9820  123.1960   60.0680 C   0  0  0  0  0  0  0  0  0  0  0  0
  130.8190  124.0890   63.7830 C   0  0  0  0  0  0  0  0  0  0  0  0
  130.8630  122.9230   64.7580 C   0  0  0  0  0  0  0  0  0  0  0  0
  128.5750  127.4120   66.7050 C   0  0  0  0  0  0  0  0  0  0  0  0
  128.3690  126.5700   67.9640 C   0  0  2  0  0  0  0  0  0  0  0  0
  127.9770  127.1870   69.2810 C   0  0  0  0  0  0  0  0  0  0  0  0
  129.3530  126.5660   69.1460 C   0  0  2  0  0  0  0  0  0  0  0  0
  130.5790  127.4960   69.1410 C   0  0  0  0  0  0  0  0  0  0  0  0
  131.5340  127.3280   68.3760 O   0  0  0  0  0  0  0  0  0  0  0  0
  130.4710  128.4740   70.0620 O   0  0  0  0  0  0  0  0  0  0  0  0
  130.5330  128.1720   71.4480 C   0  0  0  0  0  0  0  0  0  0  0  0
  128.2180  128.7400   66.5710 C   0  0  0  0  0  0  0  0  0  0  0  0
  127.5780  129.6200   67.6340 C   0  0  0  0  0  0  0  0  0  0  0  0
  127.0763  130.8234   58.3945 H   0  0  0  0  0  0  0  0  0  0  0  0
  126.7670  131.6696   56.8405 H   0  0  0  0  0  0  0  0  0  0  0  0
  127.5131  130.0356   56.8405 H   0  0  0  0  0  0  0  0  0  0  0  0
  127.2733  133.6203   59.1432 H   0  0  0  0  0  0  0  0  0  0  0  0
  127.6135  131.8514   59.4970 H   0  0  0  0  0  0  0  0  0  0  0  0
  129.8058  133.5390   60.3757 H   0  0  0  0  0  0  0  0  0  0  0  0
  128.2270  134.0442   61.1166 H   0  0  0  0  0  0  0  0  0  0  0  0
  127.8436  133.0957   64.7238 H   0  0  0  0  0  0  0  0  0  0  0  0
  128.2773  134.1750   63.3549 H   0  0  0  0  0  0  0  0  0  0  0  0
  126.7010  133.3137   63.3549 H   0  0  0  0  0  0  0  0  0  0  0  0
  127.8483  131.1215   65.3711 H   0  0  0  0  0  0  0  0  0  0  0  0
  129.4540  128.0830   63.7000 H   0  0  0  0  0  0  0  0  0  0  0  0
  129.6821  125.0467   66.0269 H   0  0  0  0  0  0  0  0  0  0  0  0
  130.1100  127.0440   62.7780 H   0  0  0  0  0  0  0  0  0  0  0  0
  131.7886  125.0216   60.0080 H   0  0  0  0  0  0  0  0  0  0  0  0
  130.1740  128.0720   61.6860 H   0  0  0  0  0  0  0  0  0  0  0  0
  130.0100  131.1089   59.3723 H   0  0  0  0  0  0  0  0  0  0  0  0
  129.5280  129.0910   62.5820 H   0  0  0  0  0  0  0  0  0  0  0  0
  131.2478  128.9574   56.5568 H   0  0  0  0  0  0  0  0  0  0  0  0
  130.3953  130.3183   57.4343 H   0  0  0  0  0  0  0  0  0  0  0  0
  133.3418  129.8363   57.8668 H   0  0  0  0  0  0  0  0  0  0  0  0
  132.7264  130.7438   56.4044 H   0  0  0  0  0  0  0  0  0  0  0  0
  133.4516  131.5322   61.3937 H   0  0  0  0  0  0  0  0  0  0  0  0
  134.2615  130.6524   60.0533 H   0  0  0  0  0  0  0  0  0  0  0  0
  134.2204  132.4482   60.0533 H   0  0  0  0  0  0  0  0  0  0  0  0
  132.6976  125.7497   58.2684 H   0  0  0  0  0  0  0  0  0  0  0  0
  131.3339  126.0615   57.1416 H   0  0  0  0  0  0  0  0  0  0  0  0
  132.7650  127.1470   57.1416 H   0  0  0  0  0  0  0  0  0  0  0  0
  132.7577  122.9718   62.5896 H   0  0  0  0  0  0  0  0  0  0  0  0
  131.5234  123.6102   59.6713 H   0  0  0  0  0  0  0  0  0  0  0  0
  132.8643  122.8287   59.5254 H   0  0  0  0  0  0  0  0  0  0  0  0
  131.2806  120.7169   61.1054 H   0  0  0  0  0  0  0  0  0  0  0  0
  127.6841  123.3155   61.1201 H   0  0  0  0  0  0  0  0  0  0  0  0
  127.9554  124.1744   59.5660 H   0  0  0  0  0  0  0  0  0  0  0  0
  127.2866  122.5073   59.5660 H   0  0  0  0  0  0  0  0  0  0  0  0
  130.8485  123.3064   65.7889 H   0  0  0  0  0  0  0  0  0  0  0  0
  129.9886  122.2757   64.5952 H   0  0  0  0  0  0  0  0  0  0  0  0
  131.7837  122.3434   64.5952 H   0  0  0  0  0  0  0  0  0  0  0  0
  127.9534  125.7960   67.3020 H   0  0  0  0  0  0  0  0  0  0  0  0
  127.8759  128.2792   69.3645 H   0  0  0  0  0  0  0  0  0  0  0  0
  127.1348  127.0512   69.9755 H   0  0  0  0  0  0  0  0  0  0  0  0
  129.9280  125.7875   69.6688 H   0  0  0  0  0  0  0  0  0  0  0  0
  130.3454  129.0857   72.0311 H   0  0  0  0  0  0  0  0  0  0  0  0
  129.7710  127.4176   71.6933 H   0  0  0  0  0  0  0  0  0  0  0  0
  131.5306  127.7788   71.6933 H   0  0  0  0  0  0  0  0  0  0  0  0
  127.8500  129.2460   68.6321 H   0  0  0  0  0  0  0  0  0  0  0  0
  127.9370  130.6534   67.5193 H   0  0  0  0  0  0  0  0  0  0  0  0
  126.4842  129.5969   67.5193 H   0  0  0  0  0  0  0  0  0  0  0  0
  1  2  1  0
  2  3  1  0
  3  4  2  0
  3  5  1  0
  5  6  1  0
  6  7  1  0
  7  8  2  0
  8  9  1  0
  8 10  1  0
 10 11  2  0
 11 12  1  0
 12 13  2  0
 13 14  1  0
 14 15  2  0
 15 16  1  0
 16 17  2  0
 17 18  1  0
 18 19  2  0
 19 20  1  0
 20 21  1  0
 21 22  1  0
 22 23  1  0
 23 24  2  0
 24 25  1  0
 22 26  2  0
 26 27  1  0
 27 28  1  0
 28 29  1  0
 29 30  2  0
 29 31  1  0
 31 32  1  0
 26 33  1  0
 33 34  1  0
 18 35  1  0
 35 36  1  0
 36 37  1  0
 37 38  1  0
 38 39  1  0
 39 40  2  0
 39 41  1  0
 41 42  1  0
 35 43  2  0
 43 44  1  0
 14 45  1  0
 45 46  1  0
 46 47  1  0
 47 48  1  0
 48 49  1  0
 49 50  2  0
 49 51  1  0
 51 52  1  0
 45 53  2  0
 53 54  1  0
 24  7  1  0
 38 36  1  0
 48 46  1  0
 25 10  1  0
 53 12  1  0
 43 16  1  0
 33 20  2  0
  1 55  1  0
  1 56  1  0
  1 57  1  0
  5 58  1  0
  5 59  1  0
  6 60  1  0
  6 61  1  0
  9 62  1  0
  9 63  1  0
  9 64  1  0
 11 65  1  0
 13 66  1  0
 15 67  1  0
 17 68  1  0
 19 69  1  0
 21 70  1  0
 23 71  1  0
 25 72  1  0
 27 73  1  0
 27 74  1  0
 28 75  1  0
 28 76  1  0
 32 77  1  0
 32 78  1  0
 32 79  1  0
 34 80  1  0
 34 81  1  0
 34 82  1  0
 36 83  1  1
 37 84  1  0
 37 85  1  0
 38 86  1  1
 42 87  1  0
 42 88  1  0
 42 89  1  0
 44 90  1  0
 44 91  1  0
 44 92  1  0
 46 93  1  6
 47 94  1  0
 47 95  1  0
 48 96  1  1
 52 97  1  0
 52 98  1  0
 52 99  1  0
 54100  1  0
 54101  1  0
 54102  1  0
M  CHG  2  13   1  17   1
M  END
>  <Binding energies>  (1) 
[-9.81]

>  <Ligand effiencies>  (1) 
[-0.16913793103448277]

>  <Interactions>  (1) 
["V-B:PRO:540:CA:9855, V-B:GLU:543:C:9874, H-A:GLU:543:OE2:4910, V-A:GLU:543:C:4902, V-B:GLU:543:CB:9878, V-B:TYR:539:CE2:9848, V-A:TYR:484:CE2:4346, V-B:LEU:475:CD2:9230, V-B:GLU:543:CG:9879, V-A:GLY:544:C:4912, V-A:ASP:366:CG:3213, V-A:TYR:539:CD1:4873, V-B:TYR:484:CE2:9317, V-A:LEU:363:CD1:3189, V-A:LEU:363:CB:3187, V-A:TYR:531:CE2:4793, V-A:ALA:541:CB:4892, H-B:ALA:541:N:9863, V-A:GLU:543:CD:4908, V-A:TYR:484:CZ:4347, V-B:HIS:456:CE1:9041, V-B:GLU:543:CA:9876, V-B:TYR:484:CZ:9318, V-A:HIS:456:CE1:4070, V-B:TYR:539:CD2:9846, V-A:GLU:543:CG:4907, V-A:TYR:531:CZ:4794, V-B:GLU:543:CD:9880, V-A:MET:535:CE:4835, V-A:TYR:539:C:4867, V-A:ASP:366:CB:3212, V-A:LEU:475:CD2:4259, V-A:ASN:362:C:3172, H-A:GLU:543:OE1:4909, V-A:GLU:543:CB:4906, V-A:PRO:540:N:4884, H-A:TYR:539:N:4870, V-A:PRO:540:CB:4885, V-A:PRO:540:CA:4883, V-A:LEU:363:CA:3185, V-A:TYR:539:CE1:4875"]

$$$$
ZINC477206605
     RDKit          3D

 44 46  0  0  0  0  0  0  0  0999 V2000
  132.2040  125.7990   63.8610 O   0  0  0  0  0  0  0  0  0  0  0  0
  133.2390  124.8740   63.3850 S   0  0  0  0  0  0  0  0  0  0  0  0
  134.6460  125.0960   63.7400 O   0  0  0  0  0  0  0  0  0  0  0  0
  132.7580  123.1170   63.8900 C   0  0  0  0  0  0  0  0  0  0  0  0
  131.5470  122.6450   63.0700 C   0  0  0  0  0  0  0  0  0  0  0  0
  130.2540  122.6200   63.8940 C   0  0  0  0  0  0  0  0  0  0  0  0
  129.5650  124.2610   64.2570 S   0  0  0  0  0  0  0  0  0  0  0  0
  130.3290  124.6370   65.8660 C   0  0  0  0  0  0  0  0  0  0  0  0
  129.7430  125.8540   66.5550 C   0  0  0  0  0  0  0  0  0  0  0  0
  129.1190  126.9500   65.9670 C   0  0  0  0  0  0  0  0  0  0  0  0
  128.6380  128.0730   67.2000 S   0  0  0  0  0  0  0  0  0  0  0  0
  129.2980  126.9850   68.3920 C   0  0  0  0  0  0  0  0  0  0  0  0
  129.2800  127.2920   69.8680 C   0  0  0  0  0  0  0  0  0  0  0  0
  128.1300  127.0280   70.6300 C   0  0  0  0  0  0  0  0  0  0  0  0
  128.0920  127.2980   71.9980 C   0  0  0  0  0  0  0  0  0  0  0  0
  129.2070  127.8380   72.6320 C   0  0  0  0  0  0  0  0  0  0  0  0
  130.3590  128.1070   71.8970 C   0  0  0  0  0  0  0  0  0  0  0  0
  130.4000  127.8370   70.5270 C   0  0  0  0  0  0  0  0  0  0  0  0
  131.5390  128.1270   69.8550 F   0  0  0  0  0  0  0  0  0  0  0  0
  129.8150  125.8950   67.8740 N   0  0  0  0  0  0  0  0  0  0  0  0
  133.1370  124.8240   61.5980 C   0  0  0  0  0  0  0  0  0  0  0  0
  134.0800  124.0970   60.8680 C   0  0  0  0  0  0  0  0  0  0  0  0
  134.0030  124.0650   59.4770 C   0  0  0  0  0  0  0  0  0  0  0  0
  132.9860  124.7610   58.8260 C   0  0  0  0  0  0  0  0  0  0  0  0
  132.0450  125.4900   59.5510 C   0  0  0  0  0  0  0  0  0  0  0  0
  132.1210  125.5240   60.9410 C   0  0  0  0  0  0  0  0  0  0  0  0
  133.6064  122.4409   63.7081 H   0  0  0  0  0  0  0  0  0  0  0  0
  132.4951  123.1085   64.9581 H   0  0  0  0  0  0  0  0  0  0  0  0
  131.4096  123.3278   62.2186 H   0  0  0  0  0  0  0  0  0  0  0  0
  131.7500  121.6171   62.7352 H   0  0  0  0  0  0  0  0  0  0  0  0
  129.5004  122.0463   63.3346 H   0  0  0  0  0  0  0  0  0  0  0  0
  130.5073  122.1642   64.8625 H   0  0  0  0  0  0  0  0  0  0  0  0
  130.1937  123.7670   66.5254 H   0  0  0  0  0  0  0  0  0  0  0  0
  131.3887  124.8592   65.6721 H   0  0  0  0  0  0  0  0  0  0  0  0
  128.9558  127.0840   64.8875 H   0  0  0  0  0  0  0  0  0  0  0  0
  127.2433  126.6006   70.1391 H   0  0  0  0  0  0  0  0  0  0  0  0
  127.1807  127.0841   72.5757 H   0  0  0  0  0  0  0  0  0  0  0  0
  129.1785  128.0518   73.7107 H   0  0  0  0  0  0  0  0  0  0  0  0
  131.2406  128.5340   72.3975 H   0  0  0  0  0  0  0  0  0  0  0  0
  134.8806  123.5517   61.3892 H   0  0  0  0  0  0  0  0  0  0  0  0
  134.7413  123.4932   58.8956 H   0  0  0  0  0  0  0  0  0  0  0  0
  132.9253  124.7347   57.7280 H   0  0  0  0  0  0  0  0  0  0  0  0
  131.2461  126.0359   59.0277 H   0  0  0  0  0  0  0  0  0  0  0  0
  131.3840  126.0998   61.5201 H   0  0  0  0  0  0  0  0  0  0  0  0
  1  2  2  0
  2  3  2  0
  2  4  1  0
  4  5  1  0
  5  6  1  0
  6  7  1  0
  7  8  1  0
  8  9  1  0
  9 10  2  0
 10 11  1  0
 11 12  1  0
 12 13  1  0
 13 14  2  0
 14 15  1  0
 15 16  2  0
 16 17  1  0
 17 18  2  0
 18 19  1  0
 12 20  2  0
  2 21  1  0
 21 22  2  0
 22 23  1  0
 23 24  2  0
 24 25  1  0
 25 26  2  0
 20  9  1  0
 26 21  1  0
 18 13  1  0
  4 27  1  0
  4 28  1  0
  5 29  1  0
  5 30  1  0
  6 31  1  0
  6 32  1  0
  8 33  1  0
  8 34  1  0
 10 35  1  0
 14 36  1  0
 15 37  1  0
 16 38  1  0
 17 39  1  0
 22 40  1  0
 23 41  1  0
 24 42  1  0
 25 43  1  0
 26 44  1  0
M  END
>  <Binding energies>  (1) 
[-7.21]

>  <Ligand effiencies>  (1) 
[-0.2773076923076923]

>  <Interactions>  (1) 
["V-A:ILE:369:CG2:3237, V-A:ASP:366:CA:3210, V-A:ARG:545:CA:4919, V-A:GLU:543:CA:4904, V-A:GLY:454:CA:4049, V-B:GLU:543:C:9874, V-A:ILE:369:CB:3236, V-A:GLU:543:C:4902, V-B:HIS:456:CD2:9039, V-B:GLU:543:CB:9878, V-B:ALA:541:CB:9864, H-A:ARG:545:NH1:4927, V-B:TYR:539:CE2:9848, V-A:TYR:484:CE2:4346, V-B:GLU:543:CG:9879, V-A:GLY:544:C:4912, V-A:ASP:366:CG:3213, V-A:TYR:484:CZ:4347, V-A:GLU:543:CD:4908, V-B:HIS:456:CE1:9041, H-A:GLY:454:N:4050, V-A:ARG:545:CG:4922, V-A:ILE:369:CD1:3239, V-A:HIS:456:CE1:4070, V-A:GLU:543:CG:4907, V-B:GLU:543:CD:9880, V-A:ASP:366:CB:3212, V-A:LEU:475:CD2:4259, H-A:ARG:545:NH2:4928, V-A:ARG:545:CZ:4926, V-A:GLU:543:CB:4906, H-A:ARG:545:NE:4924"]

$$$$
ZINC4819714
     RDKit          3D

 33 35  0  0  0  0  0  0  0  0999 V2000
  129.0870  131.3110   63.0870 C   0  0  0  0  0  0  0  0  0  0  0  0
  127.6560  130.9990   63.4760 C   0  0  0  0  0  0  0  0  0  0  0  0
  126.6330  131.9590   63.5360 C   0  0  0  0  0  0  0  0  0  0  0  0
  125.3940  131.4460   63.8850 C   0  0  0  0  0  0  0  0  0  0  0  0
  125.4500  129.7350   64.1120 S   0  0  0  0  0  0  0  0  0  0  0  0
  127.1450  129.7170   63.7130 C   0  0  0  0  0  0  0  0  0  0  0  0
  127.9130  128.4790   63.7190 C   0  0  0  0  0  0  0  0  0  0  0  0
  128.4730  127.7780   64.7320 C   0  0  0  0  0  0  0  0  0  0  0  0
  129.4180  126.3100   64.5390 S   0  0  0  0  0  0  0  0  0  0  0  0
  129.6920  126.1810   66.2510 C   0  0  0  0  0  0  0  0  0  0  0  0
  130.6140  124.9200   66.8450 S   0  0  0  0  0  0  0  0  0  0  0  0
  129.0570  127.2140   66.8930 N   0  0  0  0  0  0  0  0  0  0  0  0
  129.1070  127.3630   68.2990 C   0  0  0  0  0  0  0  0  0  0  0  0
  130.2850  127.7970   68.9100 C   0  0  0  0  0  0  0  0  0  0  0  0
  130.3310  127.9510   70.2930 C   0  0  0  0  0  0  0  0  0  0  0  0
  129.2030  127.6790   71.0790 C   0  0  0  0  0  0  0  0  0  0  0  0
  129.2540  127.8430   72.5540 N   0  0  0  0  0  0  0  0  0  0  0  0
  128.7050  127.0020   73.2590 O   0  0  0  0  0  0  0  0  0  0  0  0
  129.8450  128.8150   73.0160 O   0  0  0  0  0  0  0  0  0  0  0  0
  128.0230  127.2510   70.4510 C   0  0  0  0  0  0  0  0  0  0  0  0
  127.9710  127.0960   69.0690 C   0  0  0  0  0  0  0  0  0  0  0  0
  128.3610  128.1100   66.1410 C   0  0  0  0  0  0  0  0  0  0  0  0
  127.7240  129.0590   66.6070 O   0  0  0  0  0  0  0  0  0  0  0  0
  129.6934  131.4432   63.9952 H   0  0  0  0  0  0  0  0  0  0  0  0
  129.4945  130.4806   62.4917 H   0  0  0  0  0  0  0  0  0  0  0  0
  129.1119  132.2357   62.4917 H   0  0  0  0  0  0  0  0  0  0  0  0
  126.8006  133.0254   63.3244 H   0  0  0  0  0  0  0  0  0  0  0  0
  124.4853  132.0546   64.0031 H   0  0  0  0  0  0  0  0  0  0  0  0
  128.0645  128.0356   62.7238 H   0  0  0  0  0  0  0  0  0  0  0  0
  131.1740  128.0166   68.3006 H   0  0  0  0  0  0  0  0  0  0  0  0
  131.2611  128.2892   70.7731 H   0  0  0  0  0  0  0  0  0  0  0  0
  127.1306  127.0360   71.0571 H   0  0  0  0  0  0  0  0  0  0  0  0
  127.0405  126.7650   68.5847 H   0  0  0  0  0  0  0  0  0  0  0  0
  1  2  1  0
  2  3  1  0
  3  4  2  0
  4  5  1  0
  5  6  1  0
  6  7  1  0
  7  8  2  0
  8  9  1  0
  9 10  1  0
 10 11  2  0
 10 12  1  0
 12 13  1  0
 13 14  2  0
 14 15  1  0
 15 16  2  0
 16 17  1  0
 17 18  2  0
 17 19  1  0
 16 20  1  0
 20 21  2  0
 12 22  1  0
 22 23  2  0
  6  2  2  0
 22  8  1  0
 21 13  1  0
  1 24  1  0
  1 25  1  0
  1 26  1  0
  3 27  1  0
  4 28  1  0
  7 29  1  0
 14 30  1  0
 15 31  1  0
 20 32  1  0
 21 33  1  0
M  CHG  2  17   1  19  -1
M  END
>  <Binding energies>  (1) 
[-7.49]

>  <Ligand effiencies>  (1) 
[-0.32565217391304346]

>  <Interactions>  (1) 
["V-A:HIS:456:CE1:4070, V-B:GLU:543:C:9874, V-B:HIS:456:CD2:9039, V-A:GLU:543:C:4902, V-B:GLU:543:CB:9878, H-B:LYS:547:NZ:9923, V-A:GLU:543:CG:4907, V-B:GLU:543:CD:9880, V-B:ARG:545:CZ:9898, V-A:GLU:543:CD:4908, V-A:TYR:484:CE2:4346, V-A:TYR:484:CZ:4347, V-B:GLY:454:CA:9020, H-A:LYS:547:NZ:4951, H-B:TYR:484:OH:9319, V-B:GLU:543:CG:9879, V-B:HIS:456:CE1:9041, V-A:GLU:543:CB:4906"]

$$$$
ZINC4822433
     RDKit          3D

 39 41  0  0  0  0  0  0  0  0999 V2000
  131.4890  125.9450   57.5420 N   0  0  0  0  0  0  0  0  0  0  0  0
  131.1940  126.1150   58.8910 C   0  0  0  0  0  0  0  0  0  0  0  0
  131.4080  127.3370   59.4210 N   0  0  0  0  0  0  0  0  0  0  0  0
  131.1180  127.4950   60.7360 C   0  0  0  0  0  0  0  0  0  0  0  0
  131.3550  128.7840   61.2230 N   0  0  0  0  0  0  0  0  0  0  0  0
  130.6100  126.4450   61.5410 C   0  0  0  0  0  0  0  0  0  0  0  0
  130.3180  126.6720   62.9780 C   0  0  0  0  0  0  0  0  0  0  0  0
  129.9960  125.7510   63.7980 N   0  0  0  0  0  0  0  0  0  0  0  0
  129.7290  126.0260   65.1480 C   0  0  0  0  0  0  0  0  0  0  0  0
  129.0260  127.1980   65.4520 C   0  0  0  0  0  0  0  0  0  0  0  0
  128.7790  127.5690   66.7710 C   0  0  0  0  0  0  0  0  0  0  0  0
  129.2600  126.7790   67.8110 C   0  0  0  0  0  0  0  0  0  0  0  0
  128.8920  127.3340   69.7940 I   0  0  0  0  0  0  0  0  0  0  0  0
  129.9940  125.6290   67.5380 C   0  0  0  0  0  0  0  0  0  0  0  0
  130.2380  125.2640   66.2170 C   0  0  0  0  0  0  0  0  0  0  0  0
  130.4250  125.2000   60.8790 C   0  0  0  0  0  0  0  0  0  0  0  0
  129.9700  124.0630   61.5780 N   0  0  0  0  0  0  0  0  0  0  0  0
  130.1730  122.6790   61.4310 C   0  0  0  0  0  0  0  0  0  0  0  0
  129.1090  121.8380   61.7710 C   0  0  0  0  0  0  0  0  0  0  0  0
  129.2320  120.4570   61.6380 C   0  0  0  0  0  0  0  0  0  0  0  0
  130.4200  119.9140   61.1550 C   0  0  0  0  0  0  0  0  0  0  0  0
  130.6050  117.8400   60.9520 I   0  0  0  0  0  0  0  0  0  0  0  0
  131.4820  120.7410   60.7980 C   0  0  0  0  0  0  0  0  0  0  0  0
  131.3580  122.1220   60.9310 C   0  0  0  0  0  0  0  0  0  0  0  0
  130.7210  125.0440   59.5590 N   0  0  0  0  0  0  0  0  0  0  0  0
  132.0540  126.6360   57.0700 H   0  0  0  0  0  0  0  0  0  0  0  0
  131.1300  125.1380   57.0560 H   0  0  0  0  0  0  0  0  0  0  0  0
  132.0290  129.3760   60.7630 H   0  0  0  0  0  0  0  0  0  0  0  0
  130.8480  129.1010   62.0370 H   0  0  0  0  0  0  0  0  0  0  0  0
  130.3837  127.7014   63.3601 H   0  0  0  0  0  0  0  0  0  0  0  0
  128.6623  127.8372   64.6340 H   0  0  0  0  0  0  0  0  0  0  0  0
  128.2063  128.4823   66.9901 H   0  0  0  0  0  0  0  0  0  0  0  0
  130.3797  125.0111   68.3622 H   0  0  0  0  0  0  0  0  0  0  0  0
  130.8377  124.3665   66.0050 H   0  0  0  0  0  0  0  0  0  0  0  0
  129.4220  124.3000   62.3920 H   0  0  0  0  0  0  0  0  0  0  0  0
  128.1692  122.2696   62.1458 H   0  0  0  0  0  0  0  0  0  0  0  0
  128.3949  119.7985   61.9131 H   0  0  0  0  0  0  0  0  0  0  0  0
  132.4155  120.3052   60.4123 H   0  0  0  0  0  0  0  0  0  0  0  0
  132.1929  122.7776   60.6427 H   0  0  0  0  0  0  0  0  0  0  0  0
  1  2  1  0
  2  3  2  0
  3  4  1  0
  4  5  1  0
  4  6  2  0
  6  7  1  0
  7  8  2  0
  8  9  1  0
  9 10  2  0
 10 11  1  0
 11 12  2  0
 12 13  1  0
 12 14  1  0
 14 15  2  0
  6 16  1  0
 16 17  1  0
 17 18  1  0
 18 19  2  0
 19 20  1  0
 20 21  2  0
 21 22  1  0
 21 23  1  0
 23 24  2  0
 16 25  2  0
 25  2  1  0
 15  9  1  0
 24 18  1  0
  1 26  1  0
  1 27  1  0
  5 28  1  0
  5 29  1  0
  7 30  1  0
 10 31  1  0
 11 32  1  0
 14 33  1  0
 15 34  1  0
 17 35  1  0
 19 36  1  0
 20 37  1  0
 23 38  1  0
 24 39  1  0
M  END
>  <Binding energies>  (1) 
[-7.5]

>  <Ligand effiencies>  (1) 
[-0.25]

>  <Interactions>  (1) 
["V-B:PRO:540:CA:9855, V-B:GLU:543:CB:9878, V-B:ALA:541:CB:9864, H-A:TYR:531:OH:4795, V-B:TYR:539:CE2:9848, V-B:GLU:543:CG:9879, V-B:TYR:539:C:9839, V-A:ASP:366:CG:3213, V-B:TYR:539:CZ:9849, H-B:TYR:539:OH:9850, V-A:GLU:543:CD:4908, V-B:HIS:456:CE1:9041, V-A:HIS:456:CE1:4070, V-B:TYR:539:CD2:9846, V-B:GLU:543:CD:9880, V-A:LEU:475:CD2:4259, H-A:GLU:543:OE1:4909, V-A:GLU:543:CB:4906, V-B:PRO:540:C:9853, H-A:ASP:366:OD2:3215, V-B:ALA:541:CA:9862, V-A:HIS:383:NE2:3394"]

$$$$
ZINC482247
     RDKit          3D

 33 34  0  0  0  0  0  0  0  0999 V2000
  133.6040  124.2580   63.9010 N   0  0  0  0  0  0  0  0  0  0  0  0
  132.7000  124.7060   64.4690 C   0  0  0  0  0  0  0  0  0  0  0  0
  131.5630  125.2680   65.1820 C   0  0  0  0  0  0  0  0  0  0  0  0
  130.5650  125.9440   64.4760 C   0  0  0  0  0  0  0  0  0  0  0  0
  129.4780  126.4820   65.1600 C   0  0  0  0  0  0  0  0  0  0  0  0
  129.3890  126.3430   66.5460 C   0  0  0  0  0  0  0  0  0  0  0  0
  128.3230  126.8840   67.2210 O   0  0  0  0  0  0  0  0  0  0  0  0
  128.5430  127.2930   68.5120 C   0  0  0  0  0  0  0  0  0  0  0  0
  127.6590  126.9170   69.5240 C   0  0  0  0  0  0  0  0  0  0  0  0
  127.8920  127.3250   70.8350 C   0  0  0  0  0  0  0  0  0  0  0  0
  129.0110  128.1090   71.1540 C   0  0  0  0  0  0  0  0  0  0  0  0
  129.2410  128.5390   72.5890 C   0  0  0  0  0  0  0  0  0  0  0  0
  130.2460  129.1830   72.9010 O   0  0  0  0  0  0  0  0  0  0  0  0
  128.2900  128.1980   73.4820 N   0  0  0  0  0  0  0  0  0  0  0  0
  128.3090  128.5080   74.9220 C   0  0  0  0  0  0  0  0  0  0  0  0
  126.9130  128.7000   75.5730 C   0  0  0  0  0  0  0  0  0  0  0  0
  126.5470  129.8860   75.7350 O   0  0  0  0  0  0  0  0  0  0  0  0
  126.2110  127.7070   75.8830 O   0  0  0  0  0  0  0  0  0  0  0  0
  129.8910  128.4790   70.1230 C   0  0  0  0  0  0  0  0  0  0  0  0
  129.6590  128.0710   68.8130 C   0  0  0  0  0  0  0  0  0  0  0  0
  130.3890  125.6720   67.2520 C   0  0  0  0  0  0  0  0  0  0  0  0
  131.4760  125.1310   66.5700 C   0  0  0  0  0  0  0  0  0  0  0  0
  130.6376  126.0509   63.3836 H   0  0  0  0  0  0  0  0  0  0  0  0
  128.6902  127.0161   64.6086 H   0  0  0  0  0  0  0  0  0  0  0  0
  126.7800  126.2997   69.2868 H   0  0  0  0  0  0  0  0  0  0  0  0
  127.1909  127.0293   71.6293 H   0  0  0  0  0  0  0  0  0  0  0  0
  127.4610  127.7330   73.1420 H   0  0  0  0  0  0  0  0  0  0  0  0
  128.8166  127.6820   75.4417 H   0  0  0  0  0  0  0  0  0  0  0  0
  128.8282  129.4727   75.0207 H   0  0  0  0  0  0  0  0  0  0  0  0
  130.7714  129.0969   70.3535 H   0  0  0  0  0  0  0  0  0  0  0  0
  130.3571  128.3629   68.0146 H   0  0  0  0  0  0  0  0  0  0  0  0
  130.3185  125.5708   68.3451 H   0  0  0  0  0  0  0  0  0  0  0  0
  132.2637  124.5975   67.1222 H   0  0  0  0  0  0  0  0  0  0  0  0
  1  2  3  0
  2  3  1  0
  3  4  2  0
  4  5  1  0
  5  6  2  0
  6  7  1  0
  7  8  1  0
  8  9  2  0
  9 10  1  0
 10 11  2  0
 11 12  1  0
 12 13  2  0
 12 14  1  0
 14 15  1  0
 15 16  1  0
 16 17  2  0
 16 18  1  0
 11 19  1  0
 19 20  2  0
  6 21  1  0
 21 22  2  0
 22  3  1  0
 20  8  1  0
  4 23  1  0
  5 24  1  0
  9 25  1  0
 10 26  1  0
 14 27  1  0
 15 28  1  0
 15 29  1  0
 19 30  1  0
 20 31  1  0
 21 32  1  0
 22 33  1  0
M  CHG  1  18  -1
M  END
>  <Binding energies>  (1) 
[-7.38]

>  <Ligand effiencies>  (1) 
[-0.3208695652173913]

>  <Interactions>  (1) 
["H-B:GLY:544:O:9885, V-A:HIS:456:CE1:4070, V-B:HIS:456:CD2:9039, V-B:GLU:543:C:9874, V-A:GLU:543:C:4902, V-B:GLU:543:CB:9878, H-B:LYS:547:NZ:9923, V-B:GLU:543:CD:9880, V-A:ARG:545:CZ:4926, V-A:GLU:543:CB:4906, V-A:GLU:543:CD:4908, V-A:TYR:484:CZ:4347, V-A:TYR:484:CE2:4346, H-A:LYS:547:NZ:4951, V-B:GLU:543:CG:9879, V-B:HIS:456:CE1:9041, H-A:GLY:454:N:4050, H-A:TYR:484:OH:4348"]

$$$$
ZINC4837014-again1
     RDKit          3D

 47 50  0  0  0  0  0  0  0  0999 V2000
  128.7430  126.7160   63.3250 C   0  0  0  0  0  0  0  0  0  0  0  0
  129.6290  125.5700   63.8030 C   0  0  0  0  0  0  0  0  0  0  0  0
  129.9510  125.3760   65.1060 C   0  0  0  0  0  0  0  0  0  0  0  0
  129.4660  126.1140   66.2880 C   0  0  0  0  0  0  0  0  0  0  0  0
  128.7350  127.3010   66.1660 C   0  0  0  0  0  0  0  0  0  0  0  0
  128.2870  127.9690   67.3030 C   0  0  0  0  0  0  0  0  0  0  0  0
  128.5670  127.4460   68.5640 C   0  0  0  0  0  0  0  0  0  0  0  0
  129.2850  126.2610   68.6970 C   0  0  0  0  0  0  0  0  0  0  0  0
  129.7310  125.5940   67.5580 C   0  0  0  0  0  0  0  0  0  0  0  0
  130.1910  124.6760   62.6820 C   0  0  1  0  0  0  0  0  0  0  0  0
  131.6410  124.7310   62.6880 O   0  0  0  0  0  0  0  0  0  0  0  0
  132.2720  123.4600   62.7390 C   0  0  2  0  0  0  0  0  0  0  0  0
  133.7860  123.6800   62.8260 C   0  0  0  0  0  0  0  0  0  0  0  0
  134.3190  124.3470   61.5420 C   0  0  0  0  0  0  0  0  0  0  0  0
  133.9450  123.5370   60.2860 C   0  0  0  0  0  0  0  0  0  0  0  0
  132.4280  123.2840   60.1970 C   0  0  0  0  0  0  0  0  0  0  0  0
  131.8460  122.6280   61.4810 C   0  0  2  0  0  0  0  0  0  0  0  0
  130.2850  122.4340   61.5180 C   0  0  0  0  0  0  0  0  0  0  0  0
  129.6180  122.9400   60.2970 C   0  0  0  0  0  0  0  0  0  0  0  0
  129.0940  123.3350   59.3440 N   0  0  0  0  0  0  0  0  0  0  0  0
  129.9700  120.9910   61.5850 C   0  0  0  0  0  0  0  0  0  0  0  0
  129.7240  119.8610   61.6360 N   0  0  0  0  0  0  0  0  0  0  0  0
  129.7240  123.1810   62.7670 C   0  0  2  0  0  0  0  0  0  0  0  0
  128.2610  122.9990   62.8950 C   0  0  0  0  0  0  0  0  0  0  0  0
  127.1160  122.8510   62.9900 N   0  0  0  0  0  0  0  0  0  0  0  0
  130.5230  122.6200   63.9440 C   0  0  0  0  0  0  0  0  0  0  0  0
  129.9750  121.9530   65.0240 N   0  0  0  0  0  0  0  0  0  0  0  0
  131.8690  122.8040   63.9330 O   0  0  0  0  0  0  0  0  0  0  0  0
  128.3313  127.2486   64.1950 H   0  0  0  0  0  0  0  0  0  0  0  0
  129.3400  127.4123   62.7177 H   0  0  0  0  0  0  0  0  0  0  0  0
  127.9189  126.3136   62.7177 H   0  0  0  0  0  0  0  0  0  0  0  0
  130.6655  124.5643   65.3075 H   0  0  0  0  0  0  0  0  0  0  0  0
  128.5134  127.7080   65.1684 H   0  0  0  0  0  0  0  0  0  0  0  0
  127.7155  128.9039   67.2062 H   0  0  0  0  0  0  0  0  0  0  0  0
  128.2172  127.9748   69.4629 H   0  0  0  0  0  0  0  0  0  0  0  0
  129.4991  125.8533   69.6960 H   0  0  0  0  0  0  0  0  0  0  0  0
  130.2940  124.6543   67.6586 H   0  0  0  0  0  0  0  0  0  0  0  0
  129.7878  125.0769   61.7403 H   0  0  0  0  0  0  0  0  0  0  0  0
  134.0070  124.3279   63.6870 H   0  0  0  0  0  0  0  0  0  0  0  0
  134.2772  122.7030   62.9448 H   0  0  0  0  0  0  0  0  0  0  0  0
  133.8879  125.3555   61.4580 H   0  0  0  0  0  0  0  0  0  0  0  0
  135.4160  124.3934   61.6079 H   0  0  0  0  0  0  0  0  0  0  0  0
  134.2654  124.0954   59.3941 H   0  0  0  0  0  0  0  0  0  0  0  0
  134.4506  122.5619   60.3458 H   0  0  0  0  0  0  0  0  0  0  0  0
  131.9209  124.2465   60.0342 H   0  0  0  0  0  0  0  0  0  0  0  0
  132.2589  122.5853   59.3644 H   0  0  0  0  0  0  0  0  0  0  0  0
  132.2695  121.6128   61.4805 H   0  0  0  0  0  0  0  0  0  0  0  0
  1  2  1  0
  2  3  2  0
  3  4  1  0
  4  5  2  0
  5  6  1  0
  6  7  2  0
  7  8  1  0
  8  9  2  0
  2 10  1  0
 10 11  1  0
 11 12  1  0
 12 13  1  1
 13 14  1  0
 14 15  1  0
 15 16  1  0
 16 17  1  0
 17 18  1  0
 18 19  1  0
 19 20  3  0
 18 21  1  0
 21 22  3  0
 18 23  1  0
 23 24  1  1
 24 25  3  0
 23 26  1  0
 26 27  2  0
 26 28  1  0
  9  4  1  0
 23 10  1  0
 17 12  1  0
 28 12  1  0
  1 29  1  0
  1 30  1  0
  1 31  1  0
  3 32  1  0
  5 33  1  0
  6 34  1  0
  7 35  1  0
  8 36  1  0
  9 37  1  0
 10 38  1  6
 13 39  1  0
 13 40  1  0
 14 41  1  0
 14 42  1  0
 15 43  1  0
 15 44  1  0
 16 45  1  0
 16 46  1  0
 17 47  1  1
M  CHG  1  27  -1
M  END
>  <Binding energies>  (1) 
[-7.39]

>  <Ligand effiencies>  (1) 
[-0.2639285714285714]

>  <Interactions>  (1) 
["V-A:ILE:369:CG2:3237, V-A:GLY:454:CA:4049, V-B:GLU:543:C:9874, V-A:ILE:369:CB:3236, V-B:GLU:543:CB:9878, V-B:ALA:541:CB:9864, V-B:TYR:539:CE2:9848, V-B:GLU:543:CG:9879, V-A:ASP:366:CG:3213, H-B:ALA:541:N:9863, V-A:GLU:543:CD:4908, V-B:HIS:456:CE1:9041, V-B:GLU:543:CA:9876, V-A:ILE:369:CD1:3239, V-A:HIS:456:CE1:4070, V-B:TYR:539:CD2:9846, V-B:GLU:543:CD:9880, V-A:LEU:475:CD2:4259, V-A:GLU:543:CB:4906, H-A:TYR:484:OH:4348"]

$$$$
ZINC48448216
     RDKit          3D

 41 42  0  0  0  0  0  0  0  0999 V2000
  125.7490  120.5990   72.3590 C   0  0  0  0  0  0  0  0  0  0  0  0
  127.2430  120.2580   72.1360 C   0  0  0  0  0  0  0  0  0  0  0  0
  127.5560  120.4970   70.6350 C   0  0  0  0  0  0  0  0  0  0  0  0
  127.4730  118.7530   72.4200 C   0  0  0  0  0  0  0  0  0  0  0  0
  128.1190  121.1130   73.0890 C   0  0  0  0  0  0  0  0  0  0  0  0
  128.3290  122.4700   72.7970 C   0  0  0  0  0  0  0  0  0  0  0  0
  129.1060  123.2690   73.6310 C   0  0  0  0  0  0  0  0  0  0  0  0
  129.6880  122.7140   74.7670 C   0  0  0  0  0  0  0  0  0  0  0  0
  130.6540  123.7230   75.8450 S   0  0  0  0  0  0  0  0  0  0  0  0
  131.3560  125.0390   74.7910 C   0  0  0  0  0  0  0  0  0  0  0  0
  130.3620  126.1900   74.5640 C   0  0  0  0  0  0  0  0  0  0  0  0
  129.6980  126.5310   75.5580 O   0  0  0  0  0  0  0  0  0  0  0  0
  130.3750  126.6420   73.3680 N   0  0  0  0  0  0  0  0  0  0  0  0
  129.3960  128.0380   72.8820 S   0  0  0  0  0  0  0  0  0  0  0  0
  127.9730  127.9730   73.2340 O   0  0  0  0  0  0  0  0  0  0  0  0
  129.9520  129.3970   72.9250 O   0  0  0  0  0  0  0  0  0  0  0  0
  129.3870  127.6360   71.1080 C   0  0  0  0  0  0  0  0  0  0  0  0
  128.3740  126.9630   70.4290 C   0  0  0  0  0  0  0  0  0  0  0  0
  128.6520  126.7870   69.0690 C   0  0  0  0  0  0  0  0  0  0  0  0
  129.8750  127.3290   68.7010 C   0  0  0  0  0  0  0  0  0  0  0  0
  130.6930  128.0650   70.0420 S   0  0  0  0  0  0  0  0  0  0  0  0
  129.4970  121.3680   75.0730 C   0  0  0  0  0  0  0  0  0  0  0  0
  128.7170  120.5740   74.2400 C   0  0  0  0  0  0  0  0  0  0  0  0
  125.5409  120.6465   73.4381 H   0  0  0  0  0  0  0  0  0  0  0  0
  125.5223  121.5720   71.8987 H   0  0  0  0  0  0  0  0  0  0  0  0
  125.1226  119.8207   71.8987 H   0  0  0  0  0  0  0  0  0  0  0  0
  128.4272  121.1623   70.5435 H   0  0  0  0  0  0  0  0  0  0  0  0
  127.7764  119.5352   70.1487 H   0  0  0  0  0  0  0  0  0  0  0  0
  126.6862  120.9629   70.1487 H   0  0  0  0  0  0  0  0  0  0  0  0
  127.4987  118.5847   73.5067 H   0  0  0  0  0  0  0  0  0  0  0  0
  126.6540  118.1670   71.9775 H   0  0  0  0  0  0  0  0  0  0  0  0
  128.4297  118.4384   71.9775 H   0  0  0  0  0  0  0  0  0  0  0  0
  127.8732  122.9079   71.8967 H   0  0  0  0  0  0  0  0  0  0  0  0
  129.2591  124.3322   73.3938 H   0  0  0  0  0  0  0  0  0  0  0  0
  132.2577  125.4397   75.2772 H   0  0  0  0  0  0  0  0  0  0  0  0
  131.5933  124.5981   73.8115 H   0  0  0  0  0  0  0  0  0  0  0  0
  127.4518  126.6071   70.9115 H   0  0  0  0  0  0  0  0  0  0  0  0
  127.9754  126.2753   68.3687 H   0  0  0  0  0  0  0  0  0  0  0  0
  130.2788  127.2959   67.6783 H   0  0  0  0  0  0  0  0  0  0  0  0
  129.9620  120.9350   75.9710 H   0  0  0  0  0  0  0  0  0  0  0  0
  128.5665  119.5122   74.4849 H   0  0  0  0  0  0  0  0  0  0  0  0
  1  2  1  0
  2  3  1  0
  2  4  1  0
  2  5  1  0
  5  6  2  0
  6  7  1  0
  7  8  2  0
  8  9  1  0
  9 10  1  0
 10 11  1  0
 11 12  1  0
 11 13  2  0
 13 14  1  0
 14 15  2  0
 14 16  2  0
 14 17  1  0
 17 18  2  0
 18 19  1  0
 19 20  2  0
 20 21  1  0
  8 22  1  0
 22 23  2  0
 23  5  1  0
 21 17  1  0
  1 24  1  0
  1 25  1  0
  1 26  1  0
  3 27  1  0
  3 28  1  0
  3 29  1  0
  4 30  1  0
  4 31  1  0
  4 32  1  0
  6 33  1  0
  7 34  1  0
 10 35  1  0
 10 36  1  0
 18 37  1  0
 19 38  1  0
 20 39  1  0
 22 40  1  0
 23 41  1  0
M  CHG  1  12  -1
M  END
>  <Binding energies>  (1) 
[-8.0]

>  <Ligand effiencies>  (1) 
[-0.34782608695652173]

>  <Interactions>  (1) 
["V-B:GLU:543:C:9874, V-A:GLU:543:C:4902, V-B:GLU:543:CB:9878, H-B:LYS:547:NZ:9923, V-A:GLY:544:C:4912, V-A:HIS:456:CD2:4068, V-A:HIS:456:CB:4065, V-B:LYS:547:CE:9922, V-A:TYR:484:CA:4339, V-B:GLU:543:CA:9876, V-B:HIS:456:CE1:9041, V-A:TYR:484:CD2:4344, V-A:HIS:456:CE1:4070, V-A:TYR:484:CG:4342, V-B:GLY:544:CA:9886, H-A:LYS:547:NZ:4951, V-B:VAL:542:CG1:9871, V-A:TYR:484:CB:4341, V-A:HIS:456:CG:4066, V-B:VAL:542:C:9866, V-A:GLU:543:CB:4906, V-A:TYR:484:C:4337"]

$$$$
ZINC48492952
     RDKit          3D

 36 37  0  0  0  0  0  0  0  0999 V2000
  128.3260  128.1770   66.7590 C   0  0  0  0  0  0  0  0  0  0  0  0
  129.2570  127.6760   67.7130 O   0  0  0  0  0  0  0  0  0  0  0  0
  128.8370  127.4560   69.0110 C   0  0  0  0  0  0  0  0  0  0  0  0
  127.5440  126.9650   69.1760 C   0  0  0  0  0  0  0  0  0  0  0  0
  127.0290  126.7230   70.4480 C   0  0  0  0  0  0  0  0  0  0  0  0
  127.8020  126.9660   71.5950 C   0  0  0  0  0  0  0  0  0  0  0  0
  127.3380  126.7570   72.8820 O   0  0  0  0  0  0  0  0  0  0  0  0
  126.5910  127.7750   73.5370 C   0  0  0  0  0  0  0  0  0  0  0  0
  129.1110  127.4500   71.4360 C   0  0  0  0  0  0  0  0  0  0  0  0
  130.1410  127.7960   72.8800 S   0  0  0  0  0  0  0  0  0  0  0  0
  129.5210  127.0030   73.9470 O   0  0  0  0  0  0  0  0  0  0  0  0
  131.4820  127.3390   72.4940 O   0  0  0  0  0  0  0  0  0  0  0  0
  129.8200  129.5400   72.9000 N   0  0  0  0  0  0  0  0  0  0  0  0
  129.1500  130.0980   73.8340 C   0  0  0  0  0  0  0  0  0  0  0  0
  128.5700  129.6250   74.8270 O   0  0  0  0  0  0  0  0  0  0  0  0
  129.0350  131.6180   73.6870 C   0  0  1  0  0  0  0  0  0  0  0  0
  129.7340  132.4890   74.7240 C   0  0  0  0  0  0  0  0  0  0  0  0
  130.2120  132.4950   73.2910 C   0  0  2  0  0  0  0  0  0  0  0  0
  129.9910  133.7820   72.4850 C   0  0  0  0  0  0  0  0  0  0  0  0
  129.6160  127.6960   70.1520 C   0  0  0  0  0  0  0  0  0  0  0  0
  127.4745  128.6352   67.2833 H   0  0  0  0  0  0  0  0  0  0  0  0
  128.8178  128.9323   66.1284 H   0  0  0  0  0  0  0  0  0  0  0  0
  127.9666  127.3505   66.1284 H   0  0  0  0  0  0  0  0  0  0  0  0
  126.9216  126.7658   68.2911 H   0  0  0  0  0  0  0  0  0  0  0  0
  126.0045  126.3369   70.5550 H   0  0  0  0  0  0  0  0  0  0  0  0
  126.6810  127.6524   74.6264 H   0  0  0  0  0  0  0  0  0  0  0  0
  126.9813  128.7613   73.2455 H   0  0  0  0  0  0  0  0  0  0  0  0
  125.5331  127.6986   73.2455 H   0  0  0  0  0  0  0  0  0  0  0  0
  128.0180  131.4968   73.2858 H   0  0  0  0  0  0  0  0  0  0  0  0
  129.2219  133.3709   75.1363 H   0  0  0  0  0  0  0  0  0  0  0  0
  130.2071  132.3067   75.7002 H   0  0  0  0  0  0  0  0  0  0  0  0
  131.1586  132.2973   72.7667 H   0  0  0  0  0  0  0  0  0  0  0  0
  129.8460  134.6264   73.1749 H   0  0  0  0  0  0  0  0  0  0  0  0
  130.8695  133.9731   71.8512 H   0  0  0  0  0  0  0  0  0  0  0  0
  129.0991  133.6691   71.8512 H   0  0  0  0  0  0  0  0  0  0  0  0
  130.6392  128.0833   70.0375 H   0  0  0  0  0  0  0  0  0  0  0  0
  1  2  1  0
  2  3  1  0
  3  4  2  0
  4  5  1  0
  5  6  2  0
  6  7  1  0
  7  8  1  0
  6  9  1  0
  9 10  1  0
 10 11  2  0
 10 12  2  0
 10 13  1  0
 13 14  2  0
 14 15  1  0
 14 16  1  0
 16 17  1  0
 17 18  1  0
 18 19  1  0
  9 20  2  0
 20  3  1  0
 18 16  1  0
  1 21  1  0
  1 22  1  0
  1 23  1  0
  4 24  1  0
  5 25  1  0
  8 26  1  0
  8 27  1  0
  8 28  1  0
 16 29  1  6
 17 30  1  0
 17 31  1  0
 18 32  1  1
 19 33  1  0
 19 34  1  0
 19 35  1  0
 20 36  1  0
M  CHG  1  15  -1
M  END
>  <Binding energies>  (1) 
[-6.21]

>  <Ligand effiencies>  (1) 
[-0.3105]

>  <Interactions>  (1) 
["V-B:GLU:543:C:9874, V-B:HIS:456:CD2:9039, V-A:GLU:543:C:4902, V-B:GLU:543:CB:9878, H-B:LYS:547:NZ:9923, V-B:HIS:456:CB:9036, V-A:GLY:544:CA:4914, V-B:LYS:547:CE:9922, V-A:GLU:543:CD:4908, V-B:TYR:484:CB:9312, V-B:HIS:456:CE1:9041, V-A:HIS:456:CE1:4070, V-B:GLY:544:C:9884, V-B:GLY:544:CA:9886, V-A:GLU:543:CG:4907, V-B:GLU:543:CD:9880, V-B:HIS:456:CG:9037, H-A:LYS:547:NZ:4951, V-A:GLU:543:CB:4906, V-A:LYS:547:CE:4950"]

$$$$
ZINC49054615
     RDKit          3D

 46 48  0  0  0  0  0  0  0  0999 V2000
  131.5940  121.2690   60.6940 C   0  0  0  0  0  0  0  0  0  0  0  0
  131.4020  122.2230   61.8640 C   0  0  0  0  0  0  0  0  0  0  0  0
  132.5410  122.6870   62.5300 C   0  0  0  0  0  0  0  0  0  0  0  0
  132.4260  123.5840   63.5890 C   0  0  0  0  0  0  0  0  0  0  0  0
  133.6030  123.9890   64.2050 O   0  0  0  0  0  0  0  0  0  0  0  0
  133.6040  124.8460   65.2940 C   0  0  0  0  0  0  0  0  0  0  0  0
  134.7020  125.1020   65.7830 O   0  0  0  0  0  0  0  0  0  0  0  0
  132.3000  125.3580   65.7340 C   0  0  0  0  0  0  0  0  0  0  0  0
  131.1430  125.0170   65.1250 C   0  0  0  0  0  0  0  0  0  0  0  0
  129.8020  125.5670   65.6090 C   0  0  0  0  0  0  0  0  0  0  0  0
  129.6230  125.3150   67.0230 N   0  0  0  0  0  0  0  0  0  0  0  0
  129.5890  126.3130   67.7440 N   0  0  0  0  0  0  0  0  0  0  0  0
  129.6890  127.1960   68.4570 N   0  0  0  0  0  0  0  0  0  0  0  0
  131.1690  124.0500   64.0000 C   0  0  0  0  0  0  0  0  0  0  0  0
  130.0290  123.5750   63.3420 C   0  0  0  0  0  0  0  0  0  0  0  0
  130.1310  122.6680   62.2790 C   0  0  0  0  0  0  0  0  0  0  0  0
  128.6090  122.1270   61.4780 S   0  0  0  0  0  0  0  0  0  0  0  0
  128.7020  120.6750   61.2850 O   0  0  0  0  0  0  0  0  0  0  0  0
  127.4800  122.7140   62.2090 O   0  0  0  0  0  0  0  0  0  0  0  0
  128.6610  122.8980   59.8780 N   0  0  0  0  0  0  0  0  0  0  0  0
  127.6980  123.6850   59.2010 C   0  0  0  0  0  0  0  0  0  0  0  0
  127.3890  124.9110   59.8380 C   0  0  0  0  0  0  0  0  0  0  0  0
  128.0480  125.3270   61.1540 C   0  0  0  0  0  0  0  0  0  0  0  0
  126.4610  125.7920   59.2780 C   0  0  0  0  0  0  0  0  0  0  0  0
  125.8250  125.4800   58.0870 C   0  0  0  0  0  0  0  0  0  0  0  0
  126.1120  124.2830   57.4470 C   0  0  0  0  0  0  0  0  0  0  0  0
  127.0350  123.3750   57.9810 C   0  0  0  0  0  0  0  0  0  0  0  0
  127.2330  122.0980   57.1760 C   0  0  0  0  0  0  0  0  0  0  0  0
  131.7976  120.2575   61.0753 H   0  0  0  0  0  0  0  0  0  0  0  0
  130.6811  121.2528   60.0805 H   0  0  0  0  0  0  0  0  0  0  0  0
  132.4421  121.6072   60.0805 H   0  0  0  0  0  0  0  0  0  0  0  0
  133.5362  122.3404   62.2146 H   0  0  0  0  0  0  0  0  0  0  0  0
  132.2636  126.0453   66.5921 H   0  0  0  0  0  0  0  0  0  0  0  0
  129.7712  126.6518   65.4293 H   0  0  0  0  0  0  0  0  0  0  0  0
  128.9947  125.0641   65.0564 H   0  0  0  0  0  0  0  0  0  0  0  0
  129.0356  123.9197   63.6649 H   0  0  0  0  0  0  0  0  0  0  0  0
  129.5100  122.7330   59.3580 H   0  0  0  0  0  0  0  0  0  0  0  0
  127.4514  124.9504   61.9979 H   0  0  0  0  0  0  0  0  0  0  0  0
  129.0627  124.9054   61.2053 H   0  0  0  0  0  0  0  0  0  0  0  0
  128.1039  126.4244   61.2053 H   0  0  0  0  0  0  0  0  0  0  0  0
  126.2333  126.7406   59.7862 H   0  0  0  0  0  0  0  0  0  0  0  0
  125.0957  126.1785   57.6509 H   0  0  0  0  0  0  0  0  0  0  0  0
  125.6045  124.0423   56.5012 H   0  0  0  0  0  0  0  0  0  0  0  0
  127.3647  121.2486   57.8624 H   0  0  0  0  0  0  0  0  0  0  0  0
  126.3511  121.9238   56.5420 H   0  0  0  0  0  0  0  0  0  0  0  0
  128.1262  122.1990   56.5420 H   0  0  0  0  0  0  0  0  0  0  0  0
  1  2  1  0
  2  3  2  0
  3  4  1  0
  4  5  1  0
  5  6  1  0
  6  7  2  0
  6  8  1  0
  8  9  2  0
  9 10  1  0
 10 11  1  0
 11 12  2  0
 12 13  2  0
  9 14  1  0
 14 15  1  0
 15 16  2  0
 16 17  1  0
 17 18  2  0
 17 19  2  0
 17 20  1  0
 20 21  1  0
 21 22  2  0
 22 23  1  0
 22 24  1  0
 24 25  2  0
 25 26  1  0
 26 27  2  0
 27 28  1  0
 16  2  1  0
 27 21  1  0
 14  4  2  0
  1 29  1  0
  1 30  1  0
  1 31  1  0
  3 32  1  0
  8 33  1  0
 10 34  1  0
 10 35  1  0
 15 36  1  0
 20 37  1  0
 23 38  1  0
 23 39  1  0
 23 40  1  0
 24 41  1  0
 25 42  1  0
 26 43  1  0
 28 44  1  0
 28 45  1  0
 28 46  1  0
M  CHG  2  12   1  13  -1
M  END
>  <Binding energies>  (1) 
[-8.52]

>  <Ligand effiencies>  (1) 
[-0.29379310344827586]

>  <Interactions>  (1) 
["V-B:TYR:539:CA:9841, V-B:PRO:540:CA:9855, V-A:GLY:454:CA:4049, V-B:GLU:543:CB:9878, V-B:ALA:541:CB:9864, H-A:ARG:545:NH1:4927, V-B:TYR:539:CE2:9848, V-B:GLU:543:CG:9879, V-B:TYR:539:C:9839, H-B:ALA:541:N:9863, H-A:GLY:454:N:4050, V-B:PRO:540:N:9856, V-A:HIS:456:CE1:4070, V-B:TYR:539:CD2:9846, V-B:PRO:540:CD:9859, V-B:GLU:543:CD:9880, V-A:ARG:545:CD:4923, V-A:LEU:475:CD2:4259, V-A:ARG:545:CZ:4926, V-B:TYR:539:CG:9844, V-B:TYR:539:CD1:9845, H-A:ARG:545:NE:4924, V-B:PRO:540:C:9853, V-B:TYR:539:CE1:9847, H-A:TYR:484:OH:4348"]

$$$$
ZINC49110747
     RDKit          3D

 56 59  0  0  0  0  0  0  0  0999 V2000
  133.7710  118.8020   58.0370 C   0  0  0  0  0  0  0  0  0  0  0  0
  132.4800  118.7170   58.8540 C   0  0  0  0  0  0  0  0  0  0  0  0
  131.7430  117.7460   58.6770 O   0  0  0  0  0  0  0  0  0  0  0  0
  132.1840  119.8170   59.8290 C   0  0  0  0  0  0  0  0  0  0  0  0
  133.0970  120.8520   60.0720 C   0  0  0  0  0  0  0  0  0  0  0  0
  132.7960  121.8590   60.9860 C   0  0  0  0  0  0  0  0  0  0  0  0
  131.5770  121.8530   61.6750 C   0  0  0  0  0  0  0  0  0  0  0  0
  131.2120  122.8960   62.6600 C   0  0  0  0  0  0  0  0  0  0  0  0
  130.9610  124.1990   62.3980 C   0  0  0  0  0  0  0  0  0  0  0  0
  130.6060  125.1480   63.4310 C   0  0  0  0  0  0  0  0  0  0  0  0
  130.6360  126.3680   63.2560 O   0  0  0  0  0  0  0  0  0  0  0  0
  130.2420  124.5380   64.5800 N   0  0  0  0  0  0  0  0  0  0  0  0
  129.8530  125.1000   65.8120 C   0  0  0  0  0  0  0  0  0  0  0  0
  129.2230  126.3450   65.9590 C   0  0  0  0  0  0  0  0  0  0  0  0
  128.8950  126.8140   67.2290 C   0  0  0  0  0  0  0  0  0  0  0  0
  129.2010  126.0600   68.3650 C   0  0  0  0  0  0  0  0  0  0  0  0
  128.8420  126.5850   69.7220 C   0  0  0  0  0  0  0  0  0  0  0  0
  129.7350  126.8130   70.6560 N   0  0  0  0  0  0  0  0  0  0  0  0
  129.0280  127.2710   71.7390 C   0  0  0  0  0  0  0  0  0  0  0  0
  129.4990  127.6690   73.0050 C   0  0  0  0  0  0  0  0  0  0  0  0
  130.9810  127.6640   73.3960 C   0  0  0  0  0  0  0  0  0  0  0  0
  131.2770  126.8050   74.6470 C   0  0  0  0  0  0  0  0  0  0  0  0
  130.4390  125.9470   75.0120 O   0  0  0  0  0  0  0  0  0  0  0  0
  132.3780  126.9950   75.2110 O   0  0  0  0  0  0  0  0  0  0  0  0
  128.5440  128.0860   73.9390 C   0  0  0  0  0  0  0  0  0  0  0  0
  127.1670  128.1180   73.6600 C   0  0  0  0  0  0  0  0  0  0  0  0
  126.2070  128.5690   74.7000 N   0  0  0  0  0  0  0  0  0  0  0  0
  125.9930  129.7720   74.8220 O   0  0  0  0  0  0  0  0  0  0  0  0
  125.6570  127.7250   75.4030 O   0  0  0  0  0  0  0  0  0  0  0  0
  126.6970  127.7250   72.3970 C   0  0  0  0  0  0  0  0  0  0  0  0
  127.6430  127.3090   71.4570 C   0  0  0  0  0  0  0  0  0  0  0  0
  127.5580  126.8650   70.1560 N   0  0  0  0  0  0  0  0  0  0  0  0
  126.3900  126.6870   69.4310 O   0  0  0  0  0  0  0  0  0  0  0  0
  129.8270  124.8190   68.2150 C   0  0  0  0  0  0  0  0  0  0  0  0
  130.1550  124.3460   66.9480 C   0  0  0  0  0  0  0  0  0  0  0  0
  130.6660  120.8210   61.4310 C   0  0  0  0  0  0  0  0  0  0  0  0
  130.9640  119.8130   60.5190 C   0  0  0  0  0  0  0  0  0  0  0  0
  134.6329  118.8587   58.7181 H   0  0  0  0  0  0  0  0  0  0  0  0
  133.8631  117.9080   57.4028 H   0  0  0  0  0  0  0  0  0  0  0  0
  133.7451  119.7004   57.4028 H   0  0  0  0  0  0  0  0  0  0  0  0
  134.0581  120.8693   59.5372 H   0  0  0  0  0  0  0  0  0  0  0  0
  133.5217  122.6654   61.1680 H   0  0  0  0  0  0  0  0  0  0  0  0
  131.1374  122.5795   63.7108 H   0  0  0  0  0  0  0  0  0  0  0  0
  131.0295  124.5513   61.3582 H   0  0  0  0  0  0  0  0  0  0  0  0
  130.1960  123.5300   64.5530 H   0  0  0  0  0  0  0  0  0  0  0  0
  128.9881  126.9507   65.0714 H   0  0  0  0  0  0  0  0  0  0  0  0
  128.3911  127.7856   67.3385 H   0  0  0  0  0  0  0  0  0  0  0  0
  131.5640  127.2659   72.5524 H   0  0  0  0  0  0  0  0  0  0  0  0
  131.2593  128.7005   73.6374 H   0  0  0  0  0  0  0  0  0  0  0  0
  128.8862  128.4026   74.9353 H   0  0  0  0  0  0  0  0  0  0  0  0
  125.6238  127.7439   72.1564 H   0  0  0  0  0  0  0  0  0  0  0  0
  126.6480  126.8390   68.5190 H   0  0  0  0  0  0  0  0  0  0  0  0
  130.0614  124.2134   69.1029 H   0  0  0  0  0  0  0  0  0  0  0  0
  130.6552  123.3722   66.8407 H   0  0  0  0  0  0  0  0  0  0  0  0
  129.7044  120.8056   61.9650 H   0  0  0  0  0  0  0  0  0  0  0  0
  130.2370  119.0075   60.3384 H   0  0  0  0  0  0  0  0  0  0  0  0
  1  2  1  0
  2  3  2  0
  2  4  1  0
  4  5  2  0
  5  6  1  0
  6  7  2  0
  7  8  1  0
  8  9  2  0
  9 10  1  0
 10 11  2  0
 10 12  1  0
 12 13  1  0
 13 14  2  0
 14 15  1  0
 15 16  2  0
 16 17  1  0
 17 18  2  0
 18 19  1  0
 19 20  2  0
 20 21  1  0
 21 22  1  0
 22 23  2  0
 22 24  1  0
 20 25  1  0
 25 26  2  0
 26 27  1  0
 27 28  2  0
 27 29  1  0
 26 30  1  0
 30 31  2  0
 31 32  1  0
 32 33  1  0
 16 34  1  0
 34 35  2  0
  7 36  1  0
 36 37  2  0
 37  4  1  0
 35 13  1  0
 32 17  1  0
 31 19  1  0
  1 38  1  0
  1 39  1  0
  1 40  1  0
  5 41  1  0
  6 42  1  0
  8 43  1  0
  9 44  1  0
 12 45  1  0
 14 46  1  0
 15 47  1  0
 21 48  1  0
 21 49  1  0
 25 50  1  0
 30 51  1  0
 33 52  1  0
 34 53  1  0
 35 54  1  0
 36 55  1  0
 37 56  1  0
M  CHG  3  24  -1  27   1  29  -1
M  END
>  <Binding energies>  (1) 
[-7.27]

>  <Ligand effiencies>  (1) 
[-0.1864102564102564]

>  <Interactions>  (1) 
["V-A:ILE:369:CG2:3237, V-B:GLU:543:C:9874, V-B:HIS:456:CD2:9039, H-B:GLU:543:O:9875, V-B:GLU:543:CB:9878, H-B:LYS:547:NZ:9923, V-B:HIS:456:CB:9036, V-B:TYR:539:CE2:9848, V-A:TYR:484:CE2:4346, V-B:GLU:543:CG:9879, V-A:GLY:544:C:4912, V-A:HIS:456:CD2:4068, H-B:HIS:456:ND1:9038, H-B:ARG:545:N:9892, V-B:LYS:547:CE:9922, V-B:TYR:539:CB:9843, V-A:GLU:543:CD:4908, V-A:TYR:484:CZ:4347, V-B:GLU:543:CA:9876, H-B:GLY:544:N:9887, V-B:HIS:456:CE1:9041, V-A:HIS:456:CE1:4070, V-B:GLY:544:C:9884, V-B:TYR:539:CD2:9846, H-A:SER:385:OG:3410, V-B:GLU:543:CD:9880, V-B:HIS:456:CG:9037, H-A:LYS:547:NZ:4951, H-A:ARG:545:NH2:4928, V-A:LEU:475:CD2:4259, V-B:TYR:539:CG:9844, H-A:HIS:383:HE2:3395, V-A:HIS:383:CD2:3392, H-B:GLU:543:OE2:9882, V-A:HIS:383:NE2:3394, H-A:TYR:484:OH:4348"]

$$$$
ZINC49694396
     RDKit          3D

 97101  0  0  0  0  0  0  0  0999 V2000
  129.2510  127.9790   69.7120 C   0  0  0  0  0  0  0  0  0  0  0  0
  130.1490  127.2970   68.8430 O   0  0  0  0  0  0  0  0  0  0  0  0
  129.7830  127.0850   67.5280 C   0  0  0  0  0  0  0  0  0  0  0  0
  128.7170  127.7300   66.8860 C   0  0  0  0  0  0  0  0  0  0  0  0
  128.4280  127.4590   65.5510 C   0  0  0  0  0  0  0  0  0  0  0  0
  129.1960  126.5400   64.8290 C   0  0  0  0  0  0  0  0  0  0  0  0
  130.2580  125.8760   65.4600 C   0  0  0  0  0  0  0  0  0  0  0  0
  130.5400  126.1610   66.8060 C   0  0  0  0  0  0  0  0  0  0  0  0
  130.9790  124.9740   64.7090 O   0  0  0  0  0  0  0  0  0  0  0  0
  130.9790  123.5880   65.0340 C   0  0  0  0  0  0  0  0  0  0  0  0
  131.3710  122.8230   63.7600 C   0  0  0  0  0  0  0  0  0  0  0  0
  132.8960  122.6650   63.6020 C   0  0  0  0  0  0  0  0  0  0  0  0
  133.4290  123.1480   62.2430 C   0  0  0  0  0  0  0  0  0  0  0  0
  133.2800  122.1190   61.1040 C   0  0  0  0  0  0  0  0  0  0  0  0
  132.0570  122.3330   60.1770 C   0  0  0  0  0  0  0  0  0  0  0  0
  130.9300  123.1830   60.8130 C   0  0  0  0  0  0  0  0  0  0  0  0
  130.9790  124.7240   60.5790 C   0  0  0  0  0  0  0  0  0  0  0  0
  132.0730  125.0140   59.5220 C   0  0  0  0  0  0  0  0  0  0  0  0
  129.6420  125.2090   59.9600 C   0  0  0  0  0  0  0  0  0  0  0  0
  131.1880  125.5400   61.9040 C   0  0  0  0  0  0  0  0  0  0  0  0
  130.3040  126.7240   62.1620 N   0  0  0  0  0  0  0  0  0  0  0  0
  130.0610  127.6240   60.9960 C   0  0  0  0  0  0  0  0  0  0  0  0
  131.3420  128.2890   60.4160 C   0  0  1  0  0  0  0  0  0  0  0  0
  131.7030  127.6740   59.1900 O   0  0  0  0  0  0  0  0  0  0  0  0
  131.1930  129.8220   60.2130 C   0  0  2  0  0  0  0  0  0  0  0  0
  131.6240  130.2950   58.8000 C   0  0  0  0  0  0  0  0  0  0  0  0
  130.7020  131.3450   58.1910 C   0  0  0  0  0  0  0  0  0  0  0  0
  129.4920  131.6530   58.8200 C   0  0  0  0  0  0  0  0  0  0  0  0
  128.6500  132.6150   58.2720 C   0  0  0  0  0  0  0  0  0  0  0  0
  129.0190  133.2690   57.0990 C   0  0  0  0  0  0  0  0  0  0  0  0
  130.2250  132.9680   56.4670 C   0  0  0  0  0  0  0  0  0  0  0  0
  131.0670  132.0040   57.0140 C   0  0  0  0  0  0  0  0  0  0  0  0
  131.9120  130.5620   61.2670 N   0  0  0  0  0  0  0  0  0  0  0  0
  131.4390  131.6560   61.9910 C   0  0  0  0  0  0  0  0  0  0  0  0
  132.1340  132.2910   62.7840 O   0  0  0  0  0  0  0  0  0  0  0  0
  130.1300  131.9340   61.7310 O   0  0  0  0  0  0  0  0  0  0  0  0
  129.4230  132.9440   62.4640 C   0  0  1  0  0  0  0  0  0  0  0  0
  128.6860  133.8780   61.5040 C   0  0  0  0  0  0  0  0  0  0  0  0
  127.3810  133.3180   61.4090 O   0  0  0  0  0  0  0  0  0  0  0  0
  127.1460  132.3270   62.3680 C   0  0  1  0  0  0  0  0  0  0  0  0
  127.1290  131.0300   61.8500 O   0  0  0  0  0  0  0  0  0  0  0  0
  127.7900  130.0970   62.6970 C   0  0  0  0  0  0  0  0  0  0  0  0
  128.3770  130.9450   63.8220 C   0  0  0  0  0  0  0  0  0  0  0  0
  128.3020  132.3900   63.3470 C   0  0  1  0  0  0  0  0  0  0  0  0
  128.8330  126.2950   63.0760 S   0  0  0  0  0  0  0  0  0  0  0  0
  128.5710  124.8660   62.8610 O   0  0  0  0  0  0  0  0  0  0  0  0
  127.8050  127.2760   62.7080 O   0  0  0  0  0  0  0  0  0  0  0  0
  129.5239  127.7718   70.7573 H   0  0  0  0  0  0  0  0  0  0  0  0
  129.3108  129.0614   69.5251 H   0  0  0  0  0  0  0  0  0  0  0  0
  128.2244  127.6308   69.5251 H   0  0  0  0  0  0  0  0  0  0  0  0
  128.1041  128.4557   67.4408 H   0  0  0  0  0  0  0  0  0  0  0  0
  127.5881  127.9724   65.0600 H   0  0  0  0  0  0  0  0  0  0  0  0
  131.3754  125.6449   67.3018 H   0  0  0  0  0  0  0  0  0  0  0  0
  131.7081  123.3882   65.8331 H   0  0  0  0  0  0  0  0  0  0  0  0
  129.9882  123.2705   65.3911 H   0  0  0  0  0  0  0  0  0  0  0  0
  130.9162  121.8221   63.7974 H   0  0  0  0  0  0  0  0  0  0  0  0
  131.0081  123.4050   62.9000 H   0  0  0  0  0  0  0  0  0  0  0  0
  133.3895  123.2459   64.3951 H   0  0  0  0  0  0  0  0  0  0  0  0
  133.1170  121.5896   63.6707 H   0  0  0  0  0  0  0  0  0  0  0  0
  132.8790  124.0577   61.9602 H   0  0  0  0  0  0  0  0  0  0  0  0
  134.5072  123.3244   62.3708 H   0  0  0  0  0  0  0  0  0  0  0  0
  134.1881  122.1630   60.4848 H   0  0  0  0  0  0  0  0  0  0  0  0
  133.1269  121.1447   61.5911 H   0  0  0  0  0  0  0  0  0  0  0  0
  132.3996  122.8400   59.2629 H   0  0  0  0  0  0  0  0  0  0  0  0
  131.6319  121.3390   59.9740 H   0  0  0  0  0  0  0  0  0  0  0  0
  129.9735  122.8178   60.4109 H   0  0  0  0  0  0  0  0  0  0  0  0
  131.0591  123.0575   61.8982 H   0  0  0  0  0  0  0  0  0  0  0  0
  133.0163  125.2640   60.0297 H   0  0  0  0  0  0  0  0  0  0  0  0
  132.2200  124.1238   58.8928 H   0  0  0  0  0  0  0  0  0  0  0  0
  131.7598  125.8601   58.8928 H   0  0  0  0  0  0  0  0  0  0  0  0
  128.9369  125.4648   60.7646 H   0  0  0  0  0  0  0  0  0  0  0  0
  129.8268  126.0974   59.3382 H   0  0  0  0  0  0  0  0  0  0  0  0
  129.2142  124.4088   59.3382 H   0  0  0  0  0  0  0  0  0  0  0  0
  131.0472  124.8409   62.7416 H   0  0  0  0  0  0  0  0  0  0  0  0
  132.1938  125.9727   61.7981 H   0  0  0  0  0  0  0  0  0  0  0  0
  129.5897  127.0321   60.1976 H   0  0  0  0  0  0  0  0  0  0  0  0
  129.4217  128.4417   61.3601 H   0  0  0  0  0  0  0  0  0  0  0  0
  132.1376  128.1386   61.1605 H   0  0  0  0  0  0  0  0  0  0  0  0
  131.0600  127.9310   58.5240 H   0  0  0  0  0  0  0  0  0  0  0  0
  130.1193  130.0466   60.2949 H   0  0  0  0  0  0  0  0  0  0  0  0
  132.6353  130.7219   58.8714 H   0  0  0  0  0  0  0  0  0  0  0  0
  131.5822  129.4142   58.1424 H   0  0  0  0  0  0  0  0  0  0  0  0
  129.2061  131.1351   59.7474 H   0  0  0  0  0  0  0  0  0  0  0  0
  127.6963  132.8583   58.7632 H   0  0  0  0  0  0  0  0  0  0  0  0
  128.3527  134.0302   56.6670 H   0  0  0  0  0  0  0  0  0  0  0  0
  130.5094  133.4895   55.5412 H   0  0  0  0  0  0  0  0  0  0  0  0
  132.0193  131.7610   56.5200 H   0  0  0  0  0  0  0  0  0  0  0  0
  132.8730  130.2950   61.4220 H   0  0  0  0  0  0  0  0  0  0  0  0
  130.1998  133.4340   63.0693 H   0  0  0  0  0  0  0  0  0  0  0  0
  128.6439  134.9000   61.9086 H   0  0  0  0  0  0  0  0  0  0  0  0
  129.1838  133.9573   60.5263 H   0  0  0  0  0  0  0  0  0  0  0  0
  126.1573  132.5193   62.8102 H   0  0  0  0  0  0  0  0  0  0  0  0
  127.0758  129.3622   63.0970 H   0  0  0  0  0  0  0  0  0  0  0  0
  128.5609  129.5226   62.1625 H   0  0  0  0  0  0  0  0  0  0  0  0
  127.7903  130.8154   64.7434 H   0  0  0  0  0  0  0  0  0  0  0  0
  129.4123  130.6503   64.0483 H   0  0  0  0  0  0  0  0  0  0  0  0
  128.2830  133.0147   64.2522 H   0  0  0  0  0  0  0  0  0  0  0  0
  1  2  1  0
  2  3  1  0
  3  4  2  0
  4  5  1  0
  5  6  2  0
  6  7  1  0
  7  8  2  0
  7  9  1  0
  9 10  1  0
 10 11  1  0
 11 12  1  0
 12 13  1  0
 13 14  1  0
 14 15  1  0
 15 16  1  0
 16 17  1  0
 17 18  1  0
 17 19  1  0
 17 20  1  0
 20 21  1  0
 21 22  1  0
 22 23  1  0
 23 24  1  0
 23 25  1  0
 25 26  1  0
 26 27  1  0
 27 28  2  0
 28 29  1  0
 29 30  2  0
 30 31  1  0
 31 32  2  0
 25 33  1  0
 33 34  1  0
 34 35  2  0
 34 36  1  0
 36 37  1  0
 37 38  1  0
 38 39  1  0
 39 40  1  0
 40 41  1  0
 41 42  1  0
 42 43  1  0
 43 44  1  0
 21 45  1  0
 45 46  2  0
 45 47  2  0
  8  3  1  0
 32 27  1  0
 44 37  1  0
 45  6  1  0
 44 40  1  0
  1 48  1  0
  1 49  1  0
  1 50  1  0
  4 51  1  0
  5 52  1  0
  8 53  1  0
 10 54  1  0
 10 55  1  0
 11 56  1  0
 11 57  1  0
 12 58  1  0
 12 59  1  0
 13 60  1  0
 13 61  1  0
 14 62  1  0
 14 63  1  0
 15 64  1  0
 15 65  1  0
 16 66  1  0
 16 67  1  0
 18 68  1  0
 18 69  1  0
 18 70  1  0
 19 71  1  0
 19 72  1  0
 19 73  1  0
 20 74  1  0
 20 75  1  0
 22 76  1  0
 22 77  1  0
 23 78  1  1
 24 79  1  0
 25 80  1  1
 26 81  1  0
 26 82  1  0
 28 83  1  0
 29 84  1  0
 30 85  1  0
 31 86  1  0
 32 87  1  0
 33 88  1  0
 37 89  1  1
 38 90  1  0
 38 91  1  0
 40 92  1  1
 42 93  1  0
 42 94  1  0
 43 95  1  0
 43 96  1  0
 44 97  1  1
M  END
>  <Binding energies>  (1) 
[-4.46]

>  <Ligand effiencies>  (1) 
[-0.08745098039215686]

>  <Interactions>  (1) 
["V-A:ILE:369:CG2:3237, V-A:ILE:538:C:4858, V-A:GLY:454:CA:4049, H-A:ALA:541:N:4891, V-B:GLU:543:CB:9878, V-A:ILE:538:CB:4862, V-A:PRO:540:C:4881, H-A:TYR:531:OH:4795, V-A:TYR:484:CE2:4346, V-B:TYR:539:CE2:9848, V-B:GLU:543:CG:9879, V-A:ASP:366:CG:3213, V-A:TYR:539:CD1:4873, V-A:ILE:538:CA:4860, V-A:ALA:541:CB:4892, V-A:TYR:539:CA:4869, V-A:GLU:543:CD:4908, V-A:TYR:484:CZ:4347, V-B:HIS:456:CE1:9041, V-A:HIS:456:CE1:4070, V-A:ALA:541:CA:4890, V-B:TYR:539:CD2:9846, V-A:GLU:543:CG:4907, V-B:GLU:543:CD:9880, V-A:TYR:539:C:4867, V-A:LEU:475:CD2:4259, H-A:GLU:543:OE1:4909, V-A:GLU:543:CB:4906, V-A:TYR:539:CG:4872, V-A:PRO:540:CA:4883, H-A:ASP:366:OD2:3215, V-A:TYR:539:CE1:4875, H-A:TYR:484:OH:4348"]

$$$$
ZINC49694626
     RDKit          3D

 69 73  0  0  0  0  0  0  0  0999 V2000
  126.7710  130.5750   75.2120 C   0  0  0  0  0  0  0  0  0  0  0  0
  125.8560  129.5970   75.3070 C   0  0  0  0  0  0  0  0  0  0  0  0
  126.1530  128.1170   75.1850 C   0  0  0  0  0  0  0  0  0  0  0  0
  126.0790  127.7210   73.8190 O   0  0  0  0  0  0  0  0  0  0  0  0
  127.2300  127.7090   73.0560 C   0  0  0  0  0  0  0  0  0  0  0  0
  128.4410  127.7560   73.7440 C   0  0  0  0  0  0  0  0  0  0  0  0
  129.6630  127.7470   73.0680 C   0  0  0  0  0  0  0  0  0  0  0  0
  130.7970  127.7930   73.8400 O   0  0  0  0  0  0  0  0  0  0  0  0
  129.7010  127.6910   71.6590 C   0  0  0  0  0  0  0  0  0  0  0  0
  130.9840  127.6760   70.8600 C   0  0  0  0  0  0  0  0  0  0  0  0
  132.0970  127.7210   71.3880 O   0  0  0  0  0  0  0  0  0  0  0  0
  130.7670  127.6030   69.4040 C   0  0  0  0  0  0  0  0  0  0  0  0
  131.9200  127.5760   68.6750 O   0  0  0  0  0  0  0  0  0  0  0  0
  129.5250  127.5460   68.8660 C   0  0  0  0  0  0  0  0  0  0  0  0
  129.1900  127.5360   67.4220 C   0  0  0  0  0  0  0  0  0  0  0  0
  128.5960  128.6460   66.8010 C   0  0  0  0  0  0  0  0  0  0  0  0
  128.2900  128.6320   65.4380 C   0  0  0  0  0  0  0  0  0  0  0  0
  128.5830  127.5020   64.6790 C   0  0  0  0  0  0  0  0  0  0  0  0
  129.1650  126.3810   65.2870 C   0  0  0  0  0  0  0  0  0  0  0  0
  129.4760  126.4030   66.6460 C   0  0  0  0  0  0  0  0  0  0  0  0
  129.5100  125.2560   64.5650 O   0  0  0  0  0  0  0  0  0  0  0  0
  128.8170  125.1390   63.3150 C   0  0  2  0  0  0  0  0  0  0  0  0
  129.3160  123.9470   62.4990 C   0  0  0  0  0  0  0  0  0  0  0  0
  130.4760  123.2760   62.8880 C   0  0  0  0  0  0  0  0  0  0  0  0
  130.9370  122.1830   62.1580 C   0  0  0  0  0  0  0  0  0  0  0  0
  130.2420  121.7350   61.0210 C   0  0  0  0  0  0  0  0  0  0  0  0
  130.6430  120.6550   60.2540 O   0  0  0  0  0  0  0  0  0  0  0  0
  131.2930  119.5510   60.8760 C   0  0  0  0  0  0  0  0  0  0  0  0
  130.2620  118.5330   61.3160 C   0  0  0  0  0  0  0  0  0  0  0  0
  130.2310  117.2510   60.9180 C   0  0  0  0  0  0  0  0  0  0  0  0
  129.0720  122.4010   60.6250 C   0  0  0  0  0  0  0  0  0  0  0  0
  128.4220  121.9180   59.5010 O   0  0  0  0  0  0  0  0  0  0  0  0
  127.9640  122.8300   58.5100 C   0  0  0  0  0  0  0  0  0  0  0  0
  128.6210  123.5050   61.3700 C   0  0  0  0  0  0  0  0  0  0  0  0
  128.8540  126.4970   62.5440 C   0  0  2  0  0  0  0  0  0  0  0  0
  130.2660  126.9750   62.1170 C   0  0  0  0  0  0  0  0  0  0  0  0
  131.2110  126.8110   63.1560 O   0  0  0  0  0  0  0  0  0  0  0  0
  128.2220  127.5080   63.3450 O   0  0  0  0  0  0  0  0  0  0  0  0
  128.3830  127.5960   69.6020 O   0  0  0  0  0  0  0  0  0  0  0  0
  128.4700  127.6470   70.9780 C   0  0  0  0  0  0  0  0  0  0  0  0
  127.2550  127.6540   71.6570 C   0  0  0  0  0  0  0  0  0  0  0  0
  126.4647  131.6266   75.3137 H   0  0  0  0  0  0  0  0  0  0  0  0
  127.8270  130.3247   75.0324 H   0  0  0  0  0  0  0  0  0  0  0  0
  124.8120  129.8931   75.4870 H   0  0  0  0  0  0  0  0  0  0  0  0
  127.1634  127.9144   75.5697 H   0  0  0  0  0  0  0  0  0  0  0  0
  125.4134  127.5489   75.7684 H   0  0  0  0  0  0  0  0  0  0  0  0
  128.4342  127.8012   74.8431 H   0  0  0  0  0  0  0  0  0  0  0  0
  131.6010  127.8510   73.3180 H   0  0  0  0  0  0  0  0  0  0  0  0
  131.7300  127.8080   67.7620 H   0  0  0  0  0  0  0  0  0  0  0  0
  128.3677  129.5416   67.3975 H   0  0  0  0  0  0  0  0  0  0  0  0
  127.8205  129.5083   64.9673 H   0  0  0  0  0  0  0  0  0  0  0  0
  129.9487  125.5262   67.1126 H   0  0  0  0  0  0  0  0  0  0  0  0
  127.7571  124.9215   63.5132 H   0  0  0  0  0  0  0  0  0  0  0  0
  131.0299  123.6124   63.7768 H   0  0  0  0  0  0  0  0  0  0  0  0
  131.8544  121.6650   62.4744 H   0  0  0  0  0  0  0  0  0  0  0  0
  131.9856  119.0840   60.1603 H   0  0  0  0  0  0  0  0  0  0  0  0
  131.8525  119.9055   61.7542 H   0  0  0  0  0  0  0  0  0  0  0  0
  129.4804  118.8687   62.0135 H   0  0  0  0  0  0  0  0  0  0  0  0
  129.4432  116.5788   61.2889 H   0  0  0  0  0  0  0  0  0  0  0  0
  130.9934  116.8729   60.2210 H   0  0  0  0  0  0  0  0  0  0  0  0
  127.5217  123.7107   58.9986 H   0  0  0  0  0  0  0  0  0  0  0  0
  128.8107  123.1453   57.8825 H   0  0  0  0  0  0  0  0  0  0  0  0
  127.2054  122.3392   57.8825 H   0  0  0  0  0  0  0  0  0  0  0  0
  127.7056  124.0296   61.0589 H   0  0  0  0  0  0  0  0  0  0  0  0
  128.3118  126.3238   61.6027 H   0  0  0  0  0  0  0  0  0  0  0  0
  130.5913  126.3902   61.2439 H   0  0  0  0  0  0  0  0  0  0  0  0
  130.2061  128.0462   61.8744 H   0  0  0  0  0  0  0  0  0  0  0  0
  130.7750  126.9810   63.9940 H   0  0  0  0  0  0  0  0  0  0  0  0
  126.3114  127.6162   71.0929 H   0  0  0  0  0  0  0  0  0  0  0  0
  1  2  2  0
  2  3  1  0
  3  4  1  0
  4  5  1  0
  5  6  2  0
  6  7  1  0
  7  8  1  0
  7  9  2  0
  9 10  1  0
 10 11  2  0
 10 12  1  0
 12 13  1  0
 12 14  2  0
 14 15  1  0
 15 16  2  0
 16 17  1  0
 17 18  2  0
 18 19  1  0
 19 20  2  0
 19 21  1  0
 21 22  1  0
 22 23  1  0
 23 24  2  0
 24 25  1  0
 25 26  2  0
 26 27  1  0
 27 28  1  0
 28 29  1  0
 29 30  2  0
 26 31  1  0
 31 32  1  0
 32 33  1  0
 31 34  2  0
 22 35  1  0
 35 36  1  0
 36 37  1  0
 35 38  1  0
 14 39  1  0
 39 40  1  0
 40 41  2  0
 41  5  1  0
 40  9  1  0
 20 15  1  0
 34 23  1  0
 38 18  1  0
  1 42  1  0
  1 43  1  0
  2 44  1  0
  3 45  1  0
  3 46  1  0
  6 47  1  0
  8 48  1  0
 13 49  1  0
 16 50  1  0
 17 51  1  0
 20 52  1  0
 22 53  1  1
 24 54  1  0
 25 55  1  0
 28 56  1  0
 28 57  1  0
 29 58  1  0
 30 59  1  0
 30 60  1  0
 33 61  1  0
 33 62  1  0
 33 63  1  0
 34 64  1  0
 35 65  1  6
 36 66  1  0
 36 67  1  0
 37 68  1  0
 41 69  1  0
M  END
>  <Binding energies>  (1) 
[-5.79]

>  <Ligand effiencies>  (1) 
[-0.1315909090909091]

>  <Interactions>  (1) 
["V-B:PRO:540:CA:9855, V-B:HIS:456:CD2:9039, H-A:GLU:543:OE2:4910, V-B:GLU:543:CB:9878, H-B:LYS:547:NZ:9923, V-B:HIS:456:CB:9036, V-B:TYR:539:CE2:9848, V-B:GLU:543:CG:9879, V-A:GLY:544:C:4912, V-B:TYR:539:C:9839, V-A:HIS:456:CD2:4068, H-A:ARG:545:N:4920, V-B:TYR:539:CZ:9849, V-B:LYS:547:CE:9922, V-A:HIS:383:CE1:3393, V-A:GLU:543:CD:4908, V-B:HIS:456:CE1:9041, V-A:HIS:383:NE2:3394, V-B:PRO:540:N:9856, V-A:HIS:456:CE1:4070, V-B:GLY:544:C:9884, V-A:PRO:482:CB:4326, V-B:TYR:539:CD2:9846, V-A:GLU:543:CG:4907, V-B:GLU:543:CD:9880, V-B:HIS:456:CG:9037, V-B:LYS:547:CD:9921, H-A:LYS:547:NZ:4951, H-A:ARG:545:NH2:4928, V-A:LEU:475:CD2:4259, H-A:GLU:543:OE1:4909, V-A:GLU:543:CB:4906, V-A:PRO:482:CG:4327, H-A:GLY:544:O:4913, H-A:HIS:456:ND1:4067"]

$$$$
ZINC49762292-again1
     RDKit          3D

 77 79  0  0  0  0  0  0  0  0999 V2000
  126.1610  122.4890   56.4000 C   0  0  0  0  0  0  0  0  0  0  0  0
  126.6620  123.1390   57.6980 C   0  0  0  0  0  0  0  0  0  0  0  0
  127.9490  122.4850   58.2360 C   0  0  0  0  0  0  0  0  0  0  0  0
  128.6240  123.2620   59.3850 C   0  0  0  0  0  0  0  0  0  0  0  0
  127.9720  123.0500   60.7660 C   0  0  0  0  0  0  0  0  0  0  0  0
  128.7420  122.0450   61.6410 C   0  0  0  0  0  0  0  0  0  0  0  0
  130.2440  121.9840   61.3100 C   0  0  0  0  0  0  0  0  0  0  0  0
  130.7110  120.5720   60.9130 C   0  0  0  0  0  0  0  0  0  0  0  0
  132.2000  120.5130   60.5290 C   0  0  0  0  0  0  0  0  0  0  0  0
  132.9690  121.7840   60.9300 C   0  0  0  0  0  0  0  0  0  0  0  0
  133.0980  122.7990   59.7760 C   0  0  0  0  0  0  0  0  0  0  0  0
  134.0170  123.9990   60.0850 C   0  0  0  0  0  0  0  0  0  0  0  0
  133.8440  124.5810   61.5040 C   0  0  0  0  0  0  0  0  0  0  0  0
  132.4900  125.2760   61.7250 C   0  0  0  0  0  0  0  0  0  0  0  0
  132.2590  125.4880   63.1130 O   0  0  0  0  0  0  0  0  0  0  0  0
  132.7360  124.6210   64.0290 C   0  0  0  0  0  0  0  0  0  0  0  0
  133.8110  124.7190   64.6270 O   0  0  0  0  0  0  0  0  0  0  0  0
  131.7700  123.4570   64.2630 C   0  0  0  0  0  0  0  0  0  0  0  0
  130.4520  123.8110   63.8540 O   0  0  0  0  0  0  0  0  0  0  0  0
  129.9050  124.9890   64.3200 C   0  0  0  0  0  0  0  0  0  0  0  0
  129.3590  125.9900   63.5030 C   0  0  0  0  0  0  0  0  0  0  0  0
  128.8270  127.1590   64.0530 C   0  0  0  0  0  0  0  0  0  0  0  0
  128.3180  128.0840   63.1750 O   0  0  0  0  0  0  0  0  0  0  0  0
  128.8250  127.3570   65.4490 C   0  0  0  0  0  0  0  0  0  0  0  0
  128.2710  128.5920   66.1140 C   0  0  0  0  0  0  0  0  0  0  0  0
  127.7670  129.5310   65.4990 O   0  0  0  0  0  0  0  0  0  0  0  0
  128.3860  128.5760   67.5690 C   0  0  0  0  0  0  0  0  0  0  0  0
  128.9480  127.5460   68.2410 C   0  0  0  0  0  0  0  0  0  0  0  0
  129.0550  127.4440   69.7210 C   0  0  0  0  0  0  0  0  0  0  0  0
  127.9810  126.9790   70.4930 C   0  0  0  0  0  0  0  0  0  0  0  0
  128.0830  126.9050   71.8790 C   0  0  0  0  0  0  0  0  0  0  0  0
  129.2600  127.3020   72.5070 C   0  0  0  0  0  0  0  0  0  0  0  0
  130.3350  127.7720   71.7590 C   0  0  0  0  0  0  0  0  0  0  0  0
  130.2310  127.8420   70.3720 C   0  0  0  0  0  0  0  0  0  0  0  0
  129.4190  126.4250   67.6310 O   0  0  0  0  0  0  0  0  0  0  0  0
  129.3730  126.3390   66.2530 C   0  0  0  0  0  0  0  0  0  0  0  0
  129.9040  125.1790   65.6990 C   0  0  0  0  0  0  0  0  0  0  0  0
  125.5062  121.6395   56.6443 H   0  0  0  0  0  0  0  0  0  0  0  0
  125.5976  123.2292   55.8130 H   0  0  0  0  0  0  0  0  0  0  0  0
  127.0203  122.1326   55.8130 H   0  0  0  0  0  0  0  0  0  0  0  0
  126.8634  124.2027   57.5032 H   0  0  0  0  0  0  0  0  0  0  0  0
  125.8793  123.0042   58.4591 H   0  0  0  0  0  0  0  0  0  0  0  0
  127.6969  121.4788   58.6021 H   0  0  0  0  0  0  0  0  0  0  0  0
  128.6665  122.4696   57.4023 H   0  0  0  0  0  0  0  0  0  0  0  0
  129.6742  122.9407   59.4473 H   0  0  0  0  0  0  0  0  0  0  0  0
  128.5161  124.3306   59.1474 H   0  0  0  0  0  0  0  0  0  0  0  0
  127.9360  124.0166   61.2898 H   0  0  0  0  0  0  0  0  0  0  0  0
  126.9655  122.6394   60.5976 H   0  0  0  0  0  0  0  0  0  0  0  0
  128.6273  122.3384   62.6949 H   0  0  0  0  0  0  0  0  0  0  0  0
  128.3215  121.0480   61.4433 H   0  0  0  0  0  0  0  0  0  0  0  0
  130.4477  122.6694   60.4741 H   0  0  0  0  0  0  0  0  0  0  0  0
  130.7949  122.2718   62.2176 H   0  0  0  0  0  0  0  0  0  0  0  0
  130.5420  119.8955   61.7638 H   0  0  0  0  0  0  0  0  0  0  0  0
  130.1322  120.2728   60.0268 H   0  0  0  0  0  0  0  0  0  0  0  0
  132.6593  119.6502   61.0336 H   0  0  0  0  0  0  0  0  0  0  0  0
  132.2568  120.4226   59.4342 H   0  0  0  0  0  0  0  0  0  0  0  0
  132.4381  122.2667   61.7638 H   0  0  0  0  0  0  0  0  0  0  0  0
  133.9865  121.4774   61.2140 H   0  0  0  0  0  0  0  0  0  0  0  0
  133.5017  122.2731   58.8983 H   0  0  0  0  0  0  0  0  0  0  0  0
  132.0920  123.2092   59.6036 H   0  0  0  0  0  0  0  0  0  0  0  0
  135.0611  123.6718   59.9715 H   0  0  0  0  0  0  0  0  0  0  0  0
  133.7409  124.7975   59.3806 H   0  0  0  0  0  0  0  0  0  0  0  0
  133.9356  123.7597   62.2300 H   0  0  0  0  0  0  0  0  0  0  0  0
  134.6237  125.3457   61.6357 H   0  0  0  0  0  0  0  0  0  0  0  0
  132.4921  126.2459   61.2061 H   0  0  0  0  0  0  0  0  0  0  0  0
  131.6912  124.6338   61.3256 H   0  0  0  0  0  0  0  0  0  0  0  0
  132.1069  122.5851   63.6830 H   0  0  0  0  0  0  0  0  0  0  0  0
  131.7564  123.2169   65.3364 H   0  0  0  0  0  0  0  0  0  0  0  0
  129.3495  125.8524   62.4117 H   0  0  0  0  0  0  0  0  0  0  0  0
  128.3750  128.9830   63.5040 H   0  0  0  0  0  0  0  0  0  0  0  0
  128.0012  129.4338   68.1401 H   0  0  0  0  0  0  0  0  0  0  0  0
  127.0485  126.6696   69.9983 H   0  0  0  0  0  0  0  0  0  0  0  0
  127.2367  126.5342   72.4759 H   0  0  0  0  0  0  0  0  0  0  0  0
  129.3409  127.2438   73.6025 H   0  0  0  0  0  0  0  0  0  0  0  0
  131.2621  128.0866   72.2605 H   0  0  0  0  0  0  0  0  0  0  0  0
  131.0809  128.2137   69.7808 H   0  0  0  0  0  0  0  0  0  0  0  0
  130.3269  124.4050   66.3563 H   0  0  0  0  0  0  0  0  0  0  0  0
  1  2  1  0
  2  3  1  0
  3  4  1  0
  4  5  1  0
  5  6  1  0
  6  7  1  0
  7  8  1  0
  8  9  1  0
  9 10  1  0
 10 11  1  0
 11 12  1  0
 12 13  1  0
 13 14  1  0
 14 15  1  0
 15 16  1  0
 16 17  2  0
 16 18  1  0
 18 19  1  0
 19 20  1  0
 20 21  2  0
 21 22  1  0
 22 23  1  0
 22 24  2  0
 24 25  1  0
 25 26  2  0
 25 27  1  0
 27 28  2  0
 28 29  1  0
 29 30  2  0
 30 31  1  0
 31 32  2  0
 32 33  1  0
 33 34  2  0
 28 35  1  0
 35 36  1  0
 36 37  2  0
 37 20  1  0
 36 24  1  0
 34 29  1  0
  1 38  1  0
  1 39  1  0
  1 40  1  0
  2 41  1  0
  2 42  1  0
  3 43  1  0
  3 44  1  0
  4 45  1  0
  4 46  1  0
  5 47  1  0
  5 48  1  0
  6 49  1  0
  6 50  1  0
  7 51  1  0
  7 52  1  0
  8 53  1  0
  8 54  1  0
  9 55  1  0
  9 56  1  0
 10 57  1  0
 10 58  1  0
 11 59  1  0
 11 60  1  0
 12 61  1  0
 12 62  1  0
 13 63  1  0
 13 64  1  0
 14 65  1  0
 14 66  1  0
 18 67  1  0
 18 68  1  0
 21 69  1  0
 23 70  1  0
 27 71  1  0
 30 72  1  0
 31 73  1  0
 32 74  1  0
 33 75  1  0
 34 76  1  0
 37 77  1  0
M  END
>  <Binding energies>  (1) 
[-7.47]

>  <Ligand effiencies>  (1) 
[-0.19657894736842105]

>  <Interactions>  (1) 
["V-A:ILE:369:CG2:3237, V-A:ASP:366:CA:3210, V-B:PRO:540:CA:9855, V-B:GLU:543:C:9874, V-A:ILE:369:CB:3236, V-A:GLU:543:C:4902, V-B:GLU:543:CB:9878, V-B:ALA:541:CB:9864, V-B:TYR:539:CE2:9848, V-B:GLU:543:CG:9879, V-A:GLY:544:C:4912, V-B:TYR:539:C:9839, V-A:ASP:366:CG:3213, V-B:TYR:539:CZ:9849, V-A:TYR:484:CZ:4347, V-B:PRO:540:CB:9857, V-A:GLU:543:CD:4908, H-B:TYR:484:OH:9319, V-B:HIS:456:CE1:9041, H-A:GLY:454:N:4050, V-B:PRO:540:N:9856, V-A:ILE:369:CD1:3239, V-A:HIS:456:CE1:4070, V-B:TYR:539:CD2:9846, V-B:PRO:540:CD:9859, V-A:GLU:543:CG:4907, V-B:GLU:543:CD:9880, V-A:LEU:475:CD2:4259, H-A:ARG:545:NH2:4928, V-A:ARG:545:CZ:4926, H-A:GLU:543:OE1:4909, V-B:TYR:539:CG:9844, V-A:GLU:543:CB:4906, H-A:ARG:545:NE:4924, V-B:PRO:540:C:9853, V-B:MET:535:CE:9807, H-A:TYR:484:OH:4348"]

$$$$
ZINC49780751
     RDKit          3D

 75 79  0  0  0  0  0  0  0  0999 V2000
  129.4890  126.1280   65.3520 C   0  0  0  0  0  0  0  0  0  0  0  0
  129.0740  127.0210   66.4950 C   0  0  0  0  0  0  0  0  0  0  0  0
  129.4550  126.6520   67.7390 O   0  0  0  0  0  0  0  0  0  0  0  0
  128.9410  127.6160   68.5440 C   0  0  0  0  0  0  0  0  0  0  0  0
  129.1660  127.5170   70.0200 C   0  0  0  0  0  0  0  0  0  0  0  0
  128.1640  127.0030   70.8520 C   0  0  0  0  0  0  0  0  0  0  0  0
  128.3720  126.9070   72.2250 C   0  0  0  0  0  0  0  0  0  0  0  0
  129.5820  127.3270   72.7700 C   0  0  0  0  0  0  0  0  0  0  0  0
  130.5870  127.8420   71.9540 C   0  0  0  0  0  0  0  0  0  0  0  0
  130.3780  127.9360   70.5800 C   0  0  0  0  0  0  0  0  0  0  0  0
  128.2810  128.5490   67.8930 N   0  0  0  0  0  0  0  0  0  0  0  0
  128.3460  128.1980   66.6180 C   0  0  0  0  0  0  0  0  0  0  0  0
  127.6800  129.0380   65.5420 C   0  0  0  0  0  0  0  0  0  0  0  0
  128.3310  130.4190   65.3580 C   0  0  0  0  0  0  0  0  0  0  0  0
  127.5880  131.1670   64.3990 O   0  0  0  0  0  0  0  0  0  0  0  0
  128.2100  131.5960   63.2430 C   0  0  0  0  0  0  0  0  0  0  0  0
  128.8560  130.6180   62.4860 C   0  0  0  0  0  0  0  0  0  0  0  0
  129.5040  130.9550   61.3010 C   0  0  0  0  0  0  0  0  0  0  0  0
  129.5140  132.2800   60.8630 C   0  0  0  0  0  0  0  0  0  0  0  0
  130.2190  132.6430   59.5560 C   0  0  0  0  0  0  0  0  0  0  0  0
  129.6200  131.9910   58.2610 C   0  0  1  0  0  0  0  0  0  0  0  0
  129.7510  132.9950   57.0680 C   0  0  0  0  0  0  0  0  0  0  0  0
  130.9060  133.3730   56.7680 O   0  0  0  0  0  0  0  0  0  0  0  0
  128.7130  133.3570   56.4600 O   0  0  0  0  0  0  0  0  0  0  0  0
  130.2190  130.6700   57.9140 N   0  0  0  0  0  0  0  0  0  0  0  0
  131.4360  130.3270   58.6870 C   0  0  0  0  0  0  0  0  0  0  0  0
  132.0260  128.9790   58.2080 C   0  0  0  0  0  0  0  0  0  0  0  0
  131.0060  127.9200   58.3530 N   0  0  0  0  0  0  0  0  0  0  0  0
  131.5880  126.2540   58.2170 S   0  0  0  0  0  0  0  0  0  0  0  0
  130.4620  125.4210   57.7760 O   0  0  0  0  0  0  0  0  0  0  0  0
  132.8340  126.2570   57.4410 O   0  0  0  0  0  0  0  0  0  0  0  0
  132.0140  125.7740   59.9050 C   0  0  0  0  0  0  0  0  0  0  0  0
  131.2430  126.3150   60.9440 C   0  0  0  0  0  0  0  0  0  0  0  0
  131.4690  125.9470   62.2680 C   0  0  0  0  0  0  0  0  0  0  0  0
  132.4690  125.0300   62.5720 C   0  0  0  0  0  0  0  0  0  0  0  0
  133.2510  124.4930   61.5520 C   0  0  0  0  0  0  0  0  0  0  0  0
  133.0510  124.8640   60.2140 C   0  0  0  0  0  0  0  0  0  0  0  0
  133.9470  124.2830   59.1910 N   0  0  0  0  0  0  0  0  0  0  0  0
  133.4520  123.8160   58.1710 O   0  0  0  0  0  0  0  0  0  0  0  0
  135.1580  124.3470   59.3870 O   0  0  0  0  0  0  0  0  0  0  0  0
  129.7950  128.2440   57.5720 C   0  0  0  0  0  0  0  0  0  0  0  0
  129.2220  129.5850   58.0810 C   0  0  0  0  0  0  0  0  0  0  0  0
  128.8780  133.2670   61.6170 C   0  0  0  0  0  0  0  0  0  0  0  0
  128.2260  132.9290   62.8010 C   0  0  0  0  0  0  0  0  0  0  0  0
  129.9210  125.1984   65.7511 H   0  0  0  0  0  0  0  0  0  0  0  0
  128.6098  125.8887   64.7358 H   0  0  0  0  0  0  0  0  0  0  0  0
  130.2388  126.6457   64.7358 H   0  0  0  0  0  0  0  0  0  0  0  0
  127.2081  126.6736   70.4187 H   0  0  0  0  0  0  0  0  0  0  0  0
  127.5839  126.5011   72.8762 H   0  0  0  0  0  0  0  0  0  0  0  0
  129.7463  127.2516   73.8550 H   0  0  0  0  0  0  0  0  0  0  0  0
  131.5402  128.1725   72.3923 H   0  0  0  0  0  0  0  0  0  0  0  0
  131.1693  128.3414   69.9323 H   0  0  0  0  0  0  0  0  0  0  0  0
  127.7396  128.4941   64.5878 H   0  0  0  0  0  0  0  0  0  0  0  0
  126.6402  129.2077   65.8584 H   0  0  0  0  0  0  0  0  0  0  0  0
  128.3343  130.9544   66.3189 H   0  0  0  0  0  0  0  0  0  0  0  0
  129.3657  130.2942   65.0061 H   0  0  0  0  0  0  0  0  0  0  0  0
  128.8532  129.5726   62.8283 H   0  0  0  0  0  0  0  0  0  0  0  0
  130.0084  130.1766   60.7096 H   0  0  0  0  0  0  0  0  0  0  0  0
  130.1721  133.7356   59.4379 H   0  0  0  0  0  0  0  0  0  0  0  0
  131.2424  132.2498   59.6460 H   0  0  0  0  0  0  0  0  0  0  0  0
  128.5602  131.7814   58.4682 H   0  0  0  0  0  0  0  0  0  0  0  0
  132.1867  131.1191   58.5491 H   0  0  0  0  0  0  0  0  0  0  0  0
  131.1666  130.2376   59.7497 H   0  0  0  0  0  0  0  0  0  0  0  0
  132.3218  129.0620   57.1518 H   0  0  0  0  0  0  0  0  0  0  0  0
  132.9079  128.7265   58.8150 H   0  0  0  0  0  0  0  0  0  0  0  0
  130.4492  127.0397   60.7101 H   0  0  0  0  0  0  0  0  0  0  0  0
  130.8571  126.3813   63.0723 H   0  0  0  0  0  0  0  0  0  0  0  0
  132.6422  124.7292   63.6158 H   0  0  0  0  0  0  0  0  0  0  0  0
  134.0384  123.7660   61.7998 H   0  0  0  0  0  0  0  0  0  0  0  0
  130.0543  128.3327   56.5067 H   0  0  0  0  0  0  0  0  0  0  0  0
  129.0468  127.4467   57.6924 H   0  0  0  0  0  0  0  0  0  0  0  0
  128.3167  129.8333   57.5076 H   0  0  0  0  0  0  0  0  0  0  0  0
  128.9778  129.4862   59.1490 H   0  0  0  0  0  0  0  0  0  0  0  0
  128.8914  134.3128   61.2763 H   0  0  0  0  0  0  0  0  0  0  0  0
  127.7222  133.7085   63.3914 H   0  0  0  0  0  0  0  0  0  0  0  0
  1  2  1  0
  2  3  1  0
  3  4  1  0
  4  5  1  0
  5  6  2  0
  6  7  1  0
  7  8  2  0
  8  9  1  0
  9 10  2  0
  4 11  2  0
 11 12  1  0
 12 13  1  0
 13 14  1  0
 14 15  1  0
 15 16  1  0
 16 17  2  0
 17 18  1  0
 18 19  2  0
 19 20  1  0
 20 21  1  0
 21 22  1  0
 22 23  2  0
 22 24  1  0
 21 25  1  0
 25 26  1  0
 26 27  1  0
 27 28  1  0
 28 29  1  0
 29 30  2  0
 29 31  2  0
 29 32  1  0
 32 33  2  0
 33 34  1  0
 34 35  2  0
 35 36  1  0
 36 37  2  0
 37 38  1  0
 38 39  2  0
 38 40  1  0
 28 41  1  0
 41 42  1  0
 19 43  1  0
 43 44  2  0
 12  2  2  0
 44 16  1  0
 10  5  1  0
 42 25  1  0
 37 32  1  0
  1 45  1  0
  1 46  1  0
  1 47  1  0
  6 48  1  0
  7 49  1  0
  8 50  1  0
  9 51  1  0
 10 52  1  0
 13 53  1  0
 13 54  1  0
 14 55  1  0
 14 56  1  0
 17 57  1  0
 18 58  1  0
 20 59  1  0
 20 60  1  0
 21 61  1  1
 26 62  1  0
 26 63  1  0
 27 64  1  0
 27 65  1  0
 33 66  1  0
 34 67  1  0
 35 68  1  0
 36 69  1  0
 41 70  1  0
 41 71  1  0
 42 72  1  0
 42 73  1  0
 43 74  1  0
 44 75  1  0
M  CHG  3  24  -1  38   1  40  -1
M  END
>  <Binding energies>  (1) 
[-10.84]

>  <Ligand effiencies>  (1) 
[-0.24636363636363637]

>  <Interactions>  (1) 
["V-A:ILE:369:CG2:3237, V-A:ASP:366:CA:3210, V-B:GLU:543:C:9874, V-A:ILE:369:CB:3236, V-A:GLU:543:C:4902, V-A:PRO:540:C:4881, V-B:GLU:543:CB:9878, H-A:TYR:531:OH:4795, V-B:GLU:543:CG:9879, V-B:LEU:475:CD2:9230, V-A:GLY:544:C:4912, V-A:ASP:366:CG:3213, V-B:TYR:484:CE2:9317, H-B:TYR:539:OH:9850, V-A:ALA:541:CB:4892, V-A:GLU:543:CD:4908, H-B:TYR:484:OH:9319, V-B:HIS:456:CE1:9041, H-A:ASP:366:N:3211, V-B:TYR:484:CZ:9318, V-A:HIS:456:CE1:4070, V-A:ILE:369:CD1:3239, V-A:ASP:366:C:3208, V-A:GLU:543:CG:4907, V-A:TYR:531:CZ:4794, V-B:GLU:543:CD:9880, V-A:TYR:539:C:4867, V-A:ASP:366:CB:3212, V-A:GLU:543:CB:4906, V-A:PRO:540:N:4884, H-A:TYR:539:N:4870, V-A:PRO:540:CB:4885, V-A:PRO:540:CA:4883"]

$$$$
ZINC49784584-again1
     RDKit          3D

 93 96  0  0  0  0  0  0  0  0999 V2000
  129.8570  124.7220   67.8180 C   0  0  0  0  0  0  0  0  0  0  0  0
  129.5470  125.9660   67.4150 C   0  0  0  0  0  0  0  0  0  0  0  0
  129.5970  127.1510   68.3650 C   0  0  0  0  0  0  0  0  0  0  0  0
  129.1420  126.2720   65.9760 C   0  0  0  0  0  0  0  0  0  0  0  0
  129.7700  125.3580   64.9010 C   0  0  0  0  0  0  0  0  0  0  0  0
  131.1260  125.8290   64.2880 C   0  0  2  0  0  0  0  0  0  0  0  0
  130.9990  126.9370   63.2160 C   0  0  0  0  0  0  0  0  0  0  0  0
  130.5110  126.4650   61.8050 C   0  0  2  0  0  0  0  0  0  0  0  0
  128.9560  126.3630   61.7170 C   0  0  0  0  0  0  0  0  0  0  0  0
  128.2810  126.1620   60.3180 C   0  0  2  0  0  0  0  0  0  0  0  0
  128.0100  124.6460   60.0670 C   0  0  0  0  0  0  0  0  0  0  0  0
  126.8060  124.3640   59.1730 C   0  0  0  0  0  0  0  0  0  0  0  0
  126.7010  123.4820   58.1540 C   0  0  0  0  0  0  0  0  0  0  0  0
  125.4100  123.3470   57.3640 C   0  0  0  0  0  0  0  0  0  0  0  0
  127.8060  122.5450   57.6880 C   0  0  0  0  0  0  0  0  0  0  0  0
  129.0030  126.9670   59.1330 C   0  0  0  0  0  0  0  0  0  0  0  0
  128.5810  126.3870   57.7450 C   0  0  0  0  0  0  0  0  0  0  0  0
  128.4270  128.4210   59.2130 C   0  0  0  0  0  0  0  0  0  0  0  0
  130.6140  127.0140   59.2890 C   0  0  2  0  0  0  0  0  0  0  0  0
  131.2950  128.0080   58.2580 C   0  0  0  0  0  0  0  0  0  0  0  0
  131.0380  129.5090   58.4500 C   0  0  0  0  0  0  0  0  0  0  0  0
  131.9000  130.5360   58.2850 C   0  0  0  0  0  0  0  0  0  0  0  0
  131.4610  131.9720   58.5170 C   0  0  0  0  0  0  0  0  0  0  0  0
  133.3620  130.4020   57.8760 C   0  0  0  0  0  0  0  0  0  0  0  0
  131.2330  125.5840   59.0420 C   0  0  0  0  0  0  0  0  0  0  0  0
  131.4790  125.1890   57.8970 O   0  0  0  0  0  0  0  0  0  0  0  0
  131.5380  124.7230   60.2070 C   0  0  0  0  0  0  0  0  0  0  0  0
  132.2790  123.4540   60.0450 C   0  0  0  0  0  0  0  0  0  0  0  0
  133.4730  123.4940   59.7420 O   0  0  0  0  0  0  0  0  0  0  0  0
  131.6220  122.1730   60.4460 C   0  0  0  0  0  0  0  0  0  0  0  0
  132.3420  120.9730   60.5000 C   0  0  0  0  0  0  0  0  0  0  0  0
  131.7160  119.7880   60.8820 C   0  0  0  0  0  0  0  0  0  0  0  0
  130.3650  119.7800   61.2340 C   0  0  0  0  0  0  0  0  0  0  0  0
  129.8070  118.5730   61.5960 O   0  0  0  0  0  0  0  0  0  0  0  0
  129.6330  120.9860   61.2140 C   0  0  0  0  0  0  0  0  0  0  0  0
  128.3970  121.0370   61.5320 O   0  0  0  0  0  0  0  0  0  0  0  0
  130.2740  122.1720   60.8300 C   0  0  0  0  0  0  0  0  0  0  0  0
  131.1920  125.1160   61.4700 C   0  0  0  0  0  0  0  0  0  0  0  0
  131.4220  124.2020   62.4680 O   0  0  0  0  0  0  0  0  0  0  0  0
  131.9910  124.6660   63.6980 C   0  0  0  0  0  0  0  0  0  0  0  0
  133.4580  125.1040   63.4320 C   0  0  0  0  0  0  0  0  0  0  0  0
  131.9750  123.4110   64.6010 C   0  0  0  0  0  0  0  0  0  0  0  0
  130.9070  127.5100   60.7370 C   0  0  0  0  0  0  0  0  0  0  0  0
  131.3690  128.6230   61.0060 O   0  0  0  0  0  0  0  0  0  0  0  0
  129.8108  123.8854   67.1053 H   0  0  0  0  0  0  0  0  0  0  0  0
  130.1569  124.5403   68.8606 H   0  0  0  0  0  0  0  0  0  0  0  0
  129.5817  126.7892   69.4037 H   0  0  0  0  0  0  0  0  0  0  0  0
  130.5201  127.7230   68.1895 H   0  0  0  0  0  0  0  0  0  0  0  0
  128.7254  127.7987   68.1895 H   0  0  0  0  0  0  0  0  0  0  0  0
  128.0484  126.1780   65.9042 H   0  0  0  0  0  0  0  0  0  0  0  0
  129.5141  127.2857   65.7661 H   0  0  0  0  0  0  0  0  0  0  0  0
  129.9351  124.3709   65.3574 H   0  0  0  0  0  0  0  0  0  0  0  0
  129.0564  125.3625   64.0639 H   0  0  0  0  0  0  0  0  0  0  0  0
  131.6402  126.2535   65.1628 H   0  0  0  0  0  0  0  0  0  0  0  0
  130.2843  127.6861   63.5875 H   0  0  0  0  0  0  0  0  0  0  0  0
  132.0167  127.3267   63.0660 H   0  0  0  0  0  0  0  0  0  0  0  0
  128.6538  125.5118   62.3448 H   0  0  0  0  0  0  0  0  0  0  0  0
  128.6104  127.3582   62.0334 H   0  0  0  0  0  0  0  0  0  0  0  0
  127.2904  126.6402   60.3269 H   0  0  0  0  0  0  0  0  0  0  0  0
  128.9015  124.2105   59.5921 H   0  0  0  0  0  0  0  0  0  0  0  0
  127.7869  124.1989   61.0470 H   0  0  0  0  0  0  0  0  0  0  0  0
  125.9042  124.9568   59.3859 H   0  0  0  0  0  0  0  0  0  0  0  0
  124.5622  123.2583   58.0593 H   0  0  0  0  0  0  0  0  0  0  0  0
  125.2732  124.2357   56.7304 H   0  0  0  0  0  0  0  0  0  0  0  0
  125.4600  122.4492   56.7304 H   0  0  0  0  0  0  0  0  0  0  0  0
  128.3144  122.1139   58.5630 H   0  0  0  0  0  0  0  0  0  0  0  0
  127.3703  121.7369   57.0821 H   0  0  0  0  0  0  0  0  0  0  0  0
  128.5320  123.1070   57.0821 H   0  0  0  0  0  0  0  0  0  0  0  0
  127.9399  125.5059   57.8954 H   0  0  0  0  0  0  0  0  0  0  0  0
  128.0267  127.1518   57.1812 H   0  0  0  0  0  0  0  0  0  0  0  0
  129.4792  126.0950   57.1812 H   0  0  0  0  0  0  0  0  0  0  0  0
  128.3116  128.7122   60.2675 H   0  0  0  0  0  0  0  0  0  0  0  0
  129.1174  129.1169   58.7139 H   0  0  0  0  0  0  0  0  0  0  0  0
  127.4474  128.4553   58.7139 H   0  0  0  0  0  0  0  0  0  0  0  0
  132.3820  127.8493   58.3152 H   0  0  0  0  0  0  0  0  0  0  0  0
  130.8362  127.7655   57.2881 H   0  0  0  0  0  0  0  0  0  0  0  0
  130.0198  129.7842   58.7625 H   0  0  0  0  0  0  0  0  0  0  0  0
  131.4014  132.1671   59.5979 H   0  0  0  0  0  0  0  0  0  0  0  0
  132.1908  132.6568   58.0605 H   0  0  0  0  0  0  0  0  0  0  0  0
  130.4730  132.1317   58.0605 H   0  0  0  0  0  0  0  0  0  0  0  0
  133.9909  130.3444   58.7766 H   0  0  0  0  0  0  0  0  0  0  0  0
  133.4932  129.4881   57.2781 H   0  0  0  0  0  0  0  0  0  0  0  0
  133.6571  131.2769   57.2781 H   0  0  0  0  0  0  0  0  0  0  0  0
  133.4105  120.9658   60.2387 H   0  0  0  0  0  0  0  0  0  0  0  0
  132.2913  118.8508   60.9064 H   0  0  0  0  0  0  0  0  0  0  0  0
  128.8770  118.5200   61.3610 H   0  0  0  0  0  0  0  0  0  0  0  0
  129.7103  123.1166   60.8300 H   0  0  0  0  0  0  0  0  0  0  0  0
  133.9743  125.2581   64.3910 H   0  0  0  0  0  0  0  0  0  0  0  0
  133.9761  124.3214   62.8583 H   0  0  0  0  0  0  0  0  0  0  0  0
  133.4622  126.0426   62.8583 H   0  0  0  0  0  0  0  0  0  0  0  0
  131.9789  123.7190   65.6570 H   0  0  0  0  0  0  0  0  0  0  0  0
  131.0693  122.8220   64.3942 H   0  0  0  0  0  0  0  0  0  0  0  0
  132.8654  122.7991   64.3942 H   0  0  0  0  0  0  0  0  0  0  0  0
  1  2  2  0
  2  3  1  0
  2  4  1  0
  4  5  1  0
  5  6  1  0
  6  7  1  0
  8  7  1  1
  8  9  1  0
  9 10  1  0
 10 11  1  0
 11 12  1  0
 12 13  2  3
 13 14  1  0
 13 15  1  0
 10 16  1  0
 16 17  1  0
 16 18  1  0
 16 19  1  0
 19 20  1  6
 20 21  1  0
 21 22  2  3
 22 23  1  0
 22 24  1  0
 19 25  1  0
 25 26  2  0
 25 27  1  0
 27 28  1  0
 28 29  2  0
 28 30  1  0
 30 31  2  0
 31 32  1  0
 32 33  2  0
 33 34  1  0
 33 35  1  0
 35 36  1  0
 35 37  2  0
 27 38  2  0
 38 39  1  0
 39 40  1  0
 40 41  1  0
 40 42  1  0
 19 43  1  0
 43 44  2  0
 40  6  1  0
 38  8  1  0
 43  8  1  0
 37 30  1  0
  1 45  1  0
  1 46  1  0
  3 47  1  0
  3 48  1  0
  3 49  1  0
  4 50  1  0
  4 51  1  0
  5 52  1  0
  5 53  1  0
  6 54  1  1
  7 55  1  0
  7 56  1  0
  9 57  1  0
  9 58  1  0
 10 59  1  1
 11 60  1  0
 11 61  1  0
 12 62  1  0
 14 63  1  0
 14 64  1  0
 14 65  1  0
 15 66  1  0
 15 67  1  0
 15 68  1  0
 17 69  1  0
 17 70  1  0
 17 71  1  0
 18 72  1  0
 18 73  1  0
 18 74  1  0
 20 75  1  0
 20 76  1  0
 21 77  1  0
 23 78  1  0
 23 79  1  0
 23 80  1  0
 24 81  1  0
 24 82  1  0
 24 83  1  0
 31 84  1  0
 32 85  1  0
 34 86  1  0
 37 87  1  0
 41 88  1  0
 41 89  1  0
 41 90  1  0
 42 91  1  0
 42 92  1  0
 42 93  1  0
M  CHG  1  36  -1
M  END
>  <Binding energies>  (1) 
[-7.39]

>  <Ligand effiencies>  (1) 
[-0.16422222222222221]

>  <Interactions>  (1) 
["V-A:ILE:369:CG2:3237, V-B:PRO:540:CA:9855, V-B:GLU:543:C:9874, V-B:GLU:543:CB:9878, V-B:ALA:541:CB:9864, V-B:TYR:539:CE2:9848, V-A:TYR:484:CE2:4346, V-B:GLU:543:CG:9879, V-B:TYR:539:C:9839, V-A:ASP:366:CG:3213, V-A:LEU:363:CD1:3189, V-B:TYR:539:CZ:9849, V-A:TYR:531:CE2:4793, H-B:TYR:539:OH:9850, H-B:ALA:541:N:9863, V-A:GLU:543:CD:4908, V-A:TYR:484:CZ:4347, V-B:PRO:540:CB:9857, V-B:GLU:543:CA:9876, V-B:PRO:540:N:9856, V-A:HIS:456:CE1:4070, V-B:TYR:539:CD2:9846, V-A:SER:385:CB:3409, V-B:GLU:543:CD:9880, V-A:ASP:366:CB:3212, V-A:LEU:475:CD2:4259, H-A:ARG:545:NH2:4928, V-A:ARG:545:CZ:4926, V-B:TYR:539:CG:9844, V-A:GLU:543:CB:4906, V-B:TYR:539:CD1:9845, V-A:PRO:540:N:4884, V-B:LEU:363:CD1:8160, V-A:PRO:540:CB:4885, V-A:PRO:540:CA:4883, V-A:LEU:363:CA:3185, H-B:TYR:539:O:9840, V-B:TYR:539:CE1:9847, H-B:PRO:540:O:9854"]

$$$$
ZINC49802131
     RDKit          3D

 56 60  0  0  0  0  0  0  0  0999 V2000
  134.3030  122.9570   61.9800 C   0  0  0  0  0  0  0  0  0  0  0  0
  134.0230  124.4630   62.1140 C   0  0  0  0  0  0  0  0  0  0  0  0
  132.6300  124.7290   62.6630 C   0  0  0  0  0  0  0  0  0  0  0  0
  131.6320  124.9460   61.9170 N   0  0  0  0  0  0  0  0  0  0  0  0
  130.4760  125.1530   62.6690 N   0  0  0  0  0  0  0  0  0  0  0  0
  129.2870  125.5810   61.9250 C   0  0  0  0  0  0  0  0  0  0  0  0
  129.5460  126.8730   61.1590 C   0  0  0  0  0  0  0  0  0  0  0  0
  128.7560  127.2080   60.0590 C   0  0  0  0  0  0  0  0  0  0  0  0
  129.0730  128.3240   59.2900 C   0  0  0  0  0  0  0  0  0  0  0  0
  130.1990  129.1030   59.5880 C   0  0  0  0  0  0  0  0  0  0  0  0
  130.5640  130.2690   58.7250 C   0  0  0  0  0  0  0  0  0  0  0  0
  130.6360  130.0780   57.3360 C   0  0  0  0  0  0  0  0  0  0  0  0
  130.9470  131.1270   56.4740 C   0  0  0  0  0  0  0  0  0  0  0  0
  131.2100  132.3900   56.9880 C   0  0  0  0  0  0  0  0  0  0  0  0
  131.1800  132.5980   58.3630 C   0  0  0  0  0  0  0  0  0  0  0  0
  130.8790  131.5490   59.2470 C   0  0  0  0  0  0  0  0  0  0  0  0
  130.9740  131.8660   60.7130 C   0  0  0  0  0  0  0  0  0  0  0  0
  129.9180  132.0880   61.4650 N   0  0  0  0  0  0  0  0  0  0  0  0
  130.4150  132.3260   62.7240 N   0  0  0  0  0  0  0  0  0  0  0  0
  131.7790  132.2140   62.6620 N   0  0  0  0  0  0  0  0  0  0  0  0
  132.1170  131.9200   61.3620 N   0  0  0  0  0  0  0  0  0  0  0  0
  130.9800  128.7580   60.6990 C   0  0  0  0  0  0  0  0  0  0  0  0
  130.6600  127.6490   61.4760 C   0  0  0  0  0  0  0  0  0  0  0  0
  130.5630  125.1630   64.0860 C   0  0  0  0  0  0  0  0  0  0  0  0
  129.6160  125.4270   64.9100 N   0  0  0  0  0  0  0  0  0  0  0  0
  129.8340  125.3690   66.2770 C   0  0  0  0  0  0  0  0  0  0  0  0
  130.2390  124.3400   66.8290 O   0  0  0  0  0  0  0  0  0  0  0  0
  129.4360  126.5950   67.0780 C   0  0  0  0  0  0  0  0  0  0  0  0
  128.7070  127.6510   66.5060 C   0  0  0  0  0  0  0  0  0  0  0  0
  128.3520  128.7630   67.2650 C   0  0  0  0  0  0  0  0  0  0  0  0
  128.7280  128.8460   68.6020 C   0  0  0  0  0  0  0  0  0  0  0  0
  129.4620  127.8150   69.2040 C   0  0  0  0  0  0  0  0  0  0  0  0
  129.8650  127.9040   70.6290 N   0  0  0  0  0  0  0  0  0  0  0  0
  129.0480  127.5980   71.4930 O   0  0  0  0  0  0  0  0  0  0  0  0
  131.0030  128.2810   70.8960 O   0  0  0  0  0  0  0  0  0  0  0  0
  129.8080  126.6980   68.4270 C   0  0  0  0  0  0  0  0  0  0  0  0
  132.2860  124.7470   64.4250 S   0  0  0  0  0  0  0  0  0  0  0  0
  134.3863  122.5090   62.9812 H   0  0  0  0  0  0  0  0  0  0  0  0
  133.4785  122.4781   61.4315 H   0  0  0  0  0  0  0  0  0  0  0  0
  135.2445  122.8065   61.4315 H   0  0  0  0  0  0  0  0  0  0  0  0
  134.7651  124.9044   62.7955 H   0  0  0  0  0  0  0  0  0  0  0  0
  134.0894  124.9147   61.1132 H   0  0  0  0  0  0  0  0  0  0  0  0
  129.0078  124.7917   61.2115 H   0  0  0  0  0  0  0  0  0  0  0  0
  128.4747  125.7617   62.6444 H   0  0  0  0  0  0  0  0  0  0  0  0
  127.8833  126.5907   59.7996 H   0  0  0  0  0  0  0  0  0  0  0  0
  128.4324  128.5976   58.4387 H   0  0  0  0  0  0  0  0  0  0  0  0
  130.4427  129.0784   56.9195 H   0  0  0  0  0  0  0  0  0  0  0  0
  130.9842  130.9553   55.3881 H   0  0  0  0  0  0  0  0  0  0  0  0
  131.4415  133.2241   56.3093 H   0  0  0  0  0  0  0  0  0  0  0  0
  131.3953  133.5994   58.7641 H   0  0  0  0  0  0  0  0  0  0  0  0
  131.8556  129.3706   60.9598 H   0  0  0  0  0  0  0  0  0  0  0  0
  131.2862  127.3844   62.3408 H   0  0  0  0  0  0  0  0  0  0  0  0
  128.4135  127.5987   65.4472 H   0  0  0  0  0  0  0  0  0  0  0  0
  127.7728  129.5780   66.8064 H   0  0  0  0  0  0  0  0  0  0  0  0
  128.4462  129.7301   69.1927 H   0  0  0  0  0  0  0  0  0  0  0  0
  130.3854  125.8828   68.8875 H   0  0  0  0  0  0  0  0  0  0  0  0
  1  2  1  0
  2  3  1  0
  3  4  2  0
  4  5  1  0
  5  6  1  0
  6  7  1  0
  7  8  2  0
  8  9  1  0
  9 10  2  0
 10 11  1  0
 11 12  2  0
 12 13  1  0
 13 14  2  0
 14 15  1  0
 15 16  2  0
 16 17  1  0
 17 18  1  0
 18 19  2  0
 19 20  1  0
 20 21  1  0
 10 22  1  0
 22 23  2  0
  5 24  1  0
 24 25  2  0
 25 26  1  0
 26 27  2  0
 26 28  1  0
 28 29  2  0
 29 30  1  0
 30 31  2  0
 31 32  1  0
 32 33  1  0
 33 34  2  0
 33 35  1  0
 32 36  2  0
 24 37  1  0
 37  3  1  0
 23  7  1  0
 36 28  1  0
 16 11  1  0
 21 17  2  0
  1 38  1  0
  1 39  1  0
  1 40  1  0
  2 41  1  0
  2 42  1  0
  6 43  1  0
  6 44  1  0
  8 45  1  0
  9 46  1  0
 12 47  1  0
 13 48  1  0
 14 49  1  0
 15 50  1  0
 22 51  1  0
 23 52  1  0
 29 53  1  0
 30 54  1  0
 31 55  1  0
 36 56  1  0
M  CHG  3  20  -1  33   1  35  -1
M  END
>  <Binding energies>  (1) 
[-8.7]

>  <Ligand effiencies>  (1) 
[-0.23513513513513512]

>  <Interactions>  (1) 
["V-A:GLU:543:CA:4904, V-A:GLY:454:CA:4049, H-A:ALA:541:N:4891, V-B:GLU:543:CB:9878, V-B:GLU:543:CG:9879, V-A:ASP:366:CG:3213, H-A:ARG:545:N:4920, V-A:LEU:363:CD1:3189, V-A:GLU:543:CD:4908, V-B:HIS:456:CE1:9041, V-A:ILE:369:CD1:3239, V-A:HIS:456:CE1:4070, V-A:GLU:543:CG:4907, V-A:MET:535:CE:4835, V-B:GLU:543:CD:9880, V-A:ARG:545:CZ:4926, V-A:GLU:543:CB:4906, V-A:PRO:540:N:4884, V-A:PRO:540:CB:4885, V-A:PRO:540:CA:4883, V-A:PRO:540:CD:4887, H-A:TYR:484:OH:4348"]

$$$$
ZINC49807613
     RDKit          3D

 53 56  0  0  0  0  0  0  0  0999 V2000
  134.5950  124.7170   62.4820 C   0  0  0  0  0  0  0  0  0  0  0  0
  133.1200  124.3190   62.5960 C   0  0  0  0  0  0  0  0  0  0  0  0
  132.3470  124.1270   61.4380 C   0  0  0  0  0  0  0  0  0  0  0  0
  132.9770  124.2580   60.0490 C   0  0  0  0  0  0  0  0  0  0  0  0
  130.9930  123.7870   61.5620 C   0  0  0  0  0  0  0  0  0  0  0  0
  130.3790  123.6440   62.8240 C   0  0  0  0  0  0  0  0  0  0  0  0
  131.1660  123.8290   63.9770 C   0  0  0  0  0  0  0  0  0  0  0  0
  130.5430  123.6290   65.3720 C   0  0  0  0  0  0  0  0  0  0  0  0
  130.1590  124.9130   66.1000 C   0  0  0  0  0  0  0  0  0  0  0  0
  129.4820  125.8920   65.5340 N   0  0  0  0  0  0  0  0  0  0  0  0
  129.3650  126.8300   66.5560 O   0  0  0  0  0  0  0  0  0  0  0  0
  129.9930  126.2730   67.6210 C   0  0  0  0  0  0  0  0  0  0  0  0
  130.0480  127.0330   68.9060 C   0  0  0  0  0  0  0  0  0  0  0  0
  131.1950  127.7540   69.2590 C   0  0  0  0  0  0  0  0  0  0  0  0
  131.2480  128.4630   70.4590 C   0  0  0  0  0  0  0  0  0  0  0  0
  130.1540  128.4620   71.3240 C   0  0  0  0  0  0  0  0  0  0  0  0
  130.2290  129.1670   72.4980 O   0  0  0  0  0  0  0  0  0  0  0  0
  129.0000  127.7450   70.9830 C   0  0  0  0  0  0  0  0  0  0  0  0
  127.9070  127.7250   71.8130 O   0  0  0  0  0  0  0  0  0  0  0  0
  128.9530  127.0360   69.7810 C   0  0  0  0  0  0  0  0  0  0  0  0
  130.4860  125.0880   67.3640 N   0  0  0  0  0  0  0  0  0  0  0  0
  132.5280  124.1600   63.8580 C   0  0  0  0  0  0  0  0  0  0  0  0
  133.2960  124.3090   64.9900 O   0  0  0  0  0  0  0  0  0  0  0  0
  128.9000  123.2360   62.8900 C   0  0  0  0  0  0  0  0  0  0  0  0
  128.2130  123.3750   61.5230 C   0  0  0  0  0  0  0  0  0  0  0  0
  129.1110  122.8460   60.3800 C   0  0  0  0  0  0  0  0  0  0  0  0
  129.4950  121.3550   60.5600 C   0  0  0  0  0  0  0  0  0  0  0  0
  128.4230  123.1200   59.0290 C   0  0  0  0  0  0  0  0  0  0  0  0
  130.2820  123.6730   60.3750 O   0  0  0  0  0  0  0  0  0  0  0  0
  135.0225  124.8324   63.4889 H   0  0  0  0  0  0  0  0  0  0  0  0
  135.1448  123.9351   61.9376 H   0  0  0  0  0  0  0  0  0  0  0  0
  134.6768  125.6693   61.9376 H   0  0  0  0  0  0  0  0  0  0  0  0
  134.0492  124.4810   60.1522 H   0  0  0  0  0  0  0  0  0  0  0  0
  132.8501  123.3143   59.4983 H   0  0  0  0  0  0  0  0  0  0  0  0
  132.4844  125.0729   59.4983 H   0  0  0  0  0  0  0  0  0  0  0  0
  129.6351  123.0190   65.2553 H   0  0  0  0  0  0  0  0  0  0  0  0
  131.3180  123.1485   65.9872 H   0  0  0  0  0  0  0  0  0  0  0  0
  132.0630  127.7614   68.5833 H   0  0  0  0  0  0  0  0  0  0  0  0
  132.1558  129.0249   70.7240 H   0  0  0  0  0  0  0  0  0  0  0  0
  130.2360  130.1180   72.3670 H   0  0  0  0  0  0  0  0  0  0  0  0
  128.0060  128.2880   72.5840 H   0  0  0  0  0  0  0  0  0  0  0  0
  128.0455  126.4729   69.5175 H   0  0  0  0  0  0  0  0  0  0  0  0
  132.7720  124.3450   65.7940 H   0  0  0  0  0  0  0  0  0  0  0  0
  128.8331  122.1882   63.2181 H   0  0  0  0  0  0  0  0  0  0  0  0
  128.3905  123.9037   63.6004 H   0  0  0  0  0  0  0  0  0  0  0  0
  127.2745  122.8013   61.5348 H   0  0  0  0  0  0  0  0  0  0  0  0
  128.0177  124.4423   61.3422 H   0  0  0  0  0  0  0  0  0  0  0  0
  129.5558  121.1189   61.6327 H   0  0  0  0  0  0  0  0  0  0  0  0
  128.7311  120.7200   60.0875 H   0  0  0  0  0  0  0  0  0  0  0  0
  130.4706  121.1680   60.0875 H   0  0  0  0  0  0  0  0  0  0  0  0
  127.4144  123.5217   59.2060 H   0  0  0  0  0  0  0  0  0  0  0  0
  129.0140  123.8514   58.4582 H   0  0  0  0  0  0  0  0  0  0  0  0
  128.3494  122.1826   58.4582 H   0  0  0  0  0  0  0  0  0  0  0  0
  1  2  1  0
  2  3  2  0
  3  4  1  0
  3  5  1  0
  5  6  2  0
  6  7  1  0
  7  8  1  0
  8  9  1  0
  9 10  2  0
 10 11  1  0
 11 12  1  0
 12 13  1  0
 13 14  2  0
 14 15  1  0
 15 16  2  0
 16 17  1  0
 16 18  1  0
 18 19  1  0
 18 20  2  0
 12 21  2  0
  7 22  2  0
 22 23  1  0
  6 24  1  0
 24 25  1  0
 25 26  1  0
 26 27  1  0
 26 28  1  0
 26 29  1  0
 22  2  1  0
 29  5  1  0
 21  9  1  0
 20 13  1  0
  1 30  1  0
  1 31  1  0
  1 32  1  0
  4 33  1  0
  4 34  1  0
  4 35  1  0
  8 36  1  0
  8 37  1  0
 14 38  1  0
 15 39  1  0
 17 40  1  0
 19 41  1  0
 20 42  1  0
 23 43  1  0
 24 44  1  0
 24 45  1  0
 25 46  1  0
 25 47  1  0
 27 48  1  0
 27 49  1  0
 27 50  1  0
 28 51  1  0
 28 52  1  0
 28 53  1  0
M  END
>  <Binding energies>  (1) 
[-7.67]

>  <Ligand effiencies>  (1) 
[-0.2396875]

>  <Interactions>  (1) 
["V-B:PRO:540:CA:9855, V-A:ARG:545:CA:4919, V-A:GLU:543:CA:4904, V-B:HIS:456:CD2:9039, V-A:GLU:543:C:4902, V-B:GLU:543:CB:9878, V-B:ALA:541:CB:9864, V-B:TYR:539:CE2:9848, V-A:TYR:484:CE2:4346, V-A:GLY:544:CA:4914, V-B:GLU:543:CG:9879, V-A:GLY:544:C:4912, V-B:TYR:539:C:9839, V-A:ASP:366:CG:3213, V-B:TYR:539:CZ:9849, V-A:TYR:484:CZ:4347, V-A:ARG:545:CG:4922, H-A:GLY:454:N:4050, V-B:HIS:456:CE1:9041, V-A:GLY:453:C:4042, V-A:HIS:456:CE1:4070, V-A:ILE:369:CD1:3239, H-B:HIS:456:NE2:9042, V-B:TYR:539:CD2:9846, H-A:LYS:547:NZ:4951, V-A:ARG:545:CZ:4926, V-A:GLU:543:CB:4906, V-A:GLY:453:CA:4044, H-A:GLY:544:O:4913, H-A:TYR:484:OH:4348, H-A:GLU:543:O:4903"]

$$$$
ZINC49823267
     RDKit          3D

 99106  0  0  0  0  0  0  0  0999 V2000
  125.8790  125.4380   58.1630 C   0  0  0  0  0  0  0  0  0  0  0  0
  126.9440  126.2500   57.6960 O   0  0  0  0  0  0  0  0  0  0  0  0
  127.2450  127.3460   58.5520 C   0  0  0  0  0  0  0  0  0  0  0  0
  128.7550  127.3570   58.8560 C   0  0  2  0  0  0  0  0  0  0  0  0
  129.0720  126.9460   60.3080 C   0  0  0  0  0  0  0  0  0  0  0  0
  128.3480  125.7680   60.6500 O   0  0  0  0  0  0  0  0  0  0  0  0
  128.8210  124.5920   60.0590 C   0  0  1  0  0  0  0  0  0  0  0  0
  130.1570  124.7000   59.6350 O   0  0  0  0  0  0  0  0  0  0  0  0
  131.1170  124.8940   60.6450 C   0  0  2  0  0  0  0  0  0  0  0  0
  132.3140  125.1290   59.9530 O   0  0  0  0  0  0  0  0  0  0  0  0
  133.2480  124.0490   59.8790 C   0  0  1  0  0  0  0  0  0  0  0  0
  133.9770  124.2550   58.5400 C   0  0  0  0  0  0  0  0  0  0  0  0
  134.1760  124.1570   61.1160 C   0  0  0  0  0  0  0  0  0  0  0  0
  133.6840  123.4530   62.3860 C   0  0  0  0  0  0  0  0  0  0  0  0
  132.1930  123.6730   62.7730 C   0  0  1  0  0  0  0  0  0  0  0  0
  131.8960  124.8420   63.7630 C   0  0  2  0  0  0  0  0  0  0  0  0
  132.9430  125.0480   64.8780 C   0  0  0  0  0  0  0  0  0  0  0  0
  130.4970  124.5920   64.3720 C   0  0  0  0  0  0  0  0  0  0  0  0
  129.4080  124.4960   63.2910 C   0  0  0  0  0  0  0  0  0  0  0  0
  129.7220  123.4490   62.1740 C   0  0  1  0  0  0  0  0  0  0  0  0
  128.6530  123.4120   61.0400 C   0  0  1  0  0  0  0  0  0  0  0  0
  127.2020  123.2300   61.5300 C   0  0  0  0  0  0  0  0  0  0  0  0
  131.1580  123.6510   61.5830 C   0  0  1  0  0  0  0  0  0  0  0  0
  131.4990  122.5280   60.7550 O   0  0  0  0  0  0  0  0  0  0  0  0
  132.6140  122.7620   59.7850 O   0  0  0  0  0  0  0  0  0  0  0  0
  129.1990  128.6930   58.6120 O   0  0  0  0  0  0  0  0  0  0  0  0
  128.2660  129.7260   58.7510 C   0  0  1  0  0  0  0  0  0  0  0  0
  127.8640  129.9360   60.0810 O   0  0  0  0  0  0  0  0  0  0  0  0
  128.8760  130.2830   60.9930 C   0  0  2  0  0  0  0  0  0  0  0  0
  128.2210  130.3500   62.2460 O   0  0  0  0  0  0  0  0  0  0  0  0
  127.8660  131.6610   62.7220 C   0  0  1  0  0  0  0  0  0  0  0  0
  126.5640  131.4770   63.5190 C   0  0  0  0  0  0  0  0  0  0  0  0
  129.0350  132.2570   63.5430 C   0  0  0  0  0  0  0  0  0  0  0  0
  130.4420  131.8750   63.0580 C   0  0  0  0  0  0  0  0  0  0  0  0
  130.7520  132.0500   61.5440 C   0  0  1  0  0  0  0  0  0  0  0  0
  132.1090  131.3390   61.2190 C   0  0  2  0  0  0  0  0  0  0  0  0
  133.2960  131.8250   62.0810 C   0  0  0  0  0  0  0  0  0  0  0  0
  132.4550  131.4780   59.7280 C   0  0  0  0  0  0  0  0  0  0  0  0
  131.3630  130.8420   58.8740 C   0  0  0  0  0  0  0  0  0  0  0  0
  130.0100  131.5720   59.0730 C   0  0  1  0  0  0  0  0  0  0  0  0
  128.8610  131.0220   58.1710 C   0  0  1  0  0  0  0  0  0  0  0  0
  129.2080  130.9090   56.6720 C   0  0  0  0  0  0  0  0  0  0  0  0
  129.5700  131.6180   60.5800 C   0  0  1  0  0  0  0  0  0  0  0  0
  128.5840  132.6650   60.6240 O   0  0  0  0  0  0  0  0  0  0  0  0
  127.5400  132.5530   61.6630 O   0  0  0  0  0  0  0  0  0  0  0  0
  125.8752  125.4351   59.2630 H   0  0  0  0  0  0  0  0  0  0  0  0
  124.9233  125.8388   57.7941 H   0  0  0  0  0  0  0  0  0  0  0  0
  126.0125  124.4103   57.7941 H   0  0  0  0  0  0  0  0  0  0  0  0
  126.9634  128.2869   58.0566 H   0  0  0  0  0  0  0  0  0  0  0  0
  126.6815  127.2446   59.4912 H   0  0  0  0  0  0  0  0  0  0  0  0
  129.2701  126.6227   58.2192 H   0  0  0  0  0  0  0  0  0  0  0  0
  130.1504  126.7517   60.4044 H   0  0  0  0  0  0  0  0  0  0  0  0
  128.7776  127.7604   60.9862 H   0  0  0  0  0  0  0  0  0  0  0  0
  128.2202  124.4090   59.1559 H   0  0  0  0  0  0  0  0  0  0  0  0
  130.8998  125.7390   61.3150 H   0  0  0  0  0  0  0  0  0  0  0  0
  135.0194  124.5496   58.7315 H   0  0  0  0  0  0  0  0  0  0  0  0
  133.9607  123.3171   57.9655 H   0  0  0  0  0  0  0  0  0  0  0  0
  133.4722  125.0457   57.9655 H   0  0  0  0  0  0  0  0  0  0  0  0
  135.1498  123.7227   60.8457 H   0  0  0  0  0  0  0  0  0  0  0  0
  134.2157  125.2276   61.3656 H   0  0  0  0  0  0  0  0  0  0  0  0
  133.8370  122.3724   62.2488 H   0  0  0  0  0  0  0  0  0  0  0  0
  134.2649  123.8982   63.2072 H   0  0  0  0  0  0  0  0  0  0  0  0
  132.0195  122.7502   63.3460 H   0  0  0  0  0  0  0  0  0  0  0  0
  131.9394  125.7762   63.1839 H   0  0  0  0  0  0  0  0  0  0  0  0
  132.4566  124.9523   65.8600 H   0  0  0  0  0  0  0  0  0  0  0  0
  133.7327  124.2880   64.7844 H   0  0  0  0  0  0  0  0  0  0  0  0
  133.3859  126.0505   64.7844 H   0  0  0  0  0  0  0  0  0  0  0  0
  130.5194  123.6493   64.9385 H   0  0  0  0  0  0  0  0  0  0  0  0
  130.2535  125.4427   65.0255 H   0  0  0  0  0  0  0  0  0  0  0  0
  128.4617  124.2136   63.7755 H   0  0  0  0  0  0  0  0  0  0  0  0
  129.3523  125.4801   62.8026 H   0  0  0  0  0  0  0  0  0  0  0  0
  129.6836  122.4670   62.6682 H   0  0  0  0  0  0  0  0  0  0  0  0
  128.8543  122.4893   60.4759 H   0  0  0  0  0  0  0  0  0  0  0  0
  127.1840  123.2277   62.6298 H   0  0  0  0  0  0  0  0  0  0  0  0
  126.5818  124.0574   61.1548 H   0  0  0  0  0  0  0  0  0  0  0  0
  126.8053  122.2751   61.1548 H   0  0  0  0  0  0  0  0  0  0  0  0
  127.3631  129.4285   58.1976 H   0  0  0  0  0  0  0  0  0  0  0  0
  129.6977  129.5523   61.0244 H   0  0  0  0  0  0  0  0  0  0  0  0
  126.7858  131.5083   64.5960 H   0  0  0  0  0  0  0  0  0  0  0  0
  125.8617  132.2848   63.2656 H   0  0  0  0  0  0  0  0  0  0  0  0
  126.1131  130.5062   63.2656 H   0  0  0  0  0  0  0  0  0  0  0  0
  128.9499  133.3532   63.5084 H   0  0  0  0  0  0  0  0  0  0  0  0
  128.9390  131.8383   64.5556 H   0  0  0  0  0  0  0  0  0  0  0  0
  131.1616  132.4929   63.6152 H   0  0  0  0  0  0  0  0  0  0  0  0
  130.5151  130.7919   63.2355 H   0  0  0  0  0  0  0  0  0  0  0  0
  130.8526  133.1265   61.3415 H   0  0  0  0  0  0  0  0  0  0  0  0
  131.9527  130.2798   61.4716 H   0  0  0  0  0  0  0  0  0  0  0  0
  133.0423  131.7211   63.1463 H   0  0  0  0  0  0  0  0  0  0  0  0
  134.1856  131.2187   61.8551 H   0  0  0  0  0  0  0  0  0  0  0  0
  133.5050  132.8811   61.8551 H   0  0  0  0  0  0  0  0  0  0  0  0
  132.5415  132.5445   59.4727 H   0  0  0  0  0  0  0  0  0  0  0  0
  133.4089  130.9669   59.5310 H   0  0  0  0  0  0  0  0  0  0  0  0
  131.6528  130.9031   57.8146 H   0  0  0  0  0  0  0  0  0  0  0  0
  131.2443  129.7921   59.1798 H   0  0  0  0  0  0  0  0  0  0  0  0
  130.1966  132.6048   58.7436 H   0  0  0  0  0  0  0  0  0  0  0  0
  128.0753  131.7915   58.1942 H   0  0  0  0  0  0  0  0  0  0  0  0
  130.2486  130.5701   56.5611 H   0  0  0  0  0  0  0  0  0  0  0  0
  128.5333  130.1841   56.1931 H   0  0  0  0  0  0  0  0  0  0  0  0
  129.0895  131.8922   56.1931 H   0  0  0  0  0  0  0  0  0  0  0  0
  1  2  1  0
  2  3  1  0
  3  4  1  0
  4  5  1  0
  5  6  1  0
  6  7  1  0
  7  8  1  0
  8  9  1  0
  9 10  1  0
 10 11  1  0
 11 12  1  6
 11 13  1  0
 13 14  1  0
 14 15  1  0
 15 16  1  0
 16 17  1  0
 16 18  1  0
 18 19  1  0
 19 20  1  0
 20 21  1  0
 21 22  1  0
 20 23  1  0
 23 24  1  6
 24 25  1  0
  4 26  1  0
 26 27  1  0
 27 28  1  0
 28 29  1  0
 29 30  1  0
 30 31  1  0
 31 32  1  1
 31 33  1  0
 33 34  1  0
 34 35  1  0
 35 36  1  0
 36 37  1  0
 36 38  1  0
 38 39  1  0
 39 40  1  0
 40 41  1  0
 41 42  1  0
 40 43  1  0
 43 44  1  6
 44 45  1  0
 21  7  1  0
 41 27  1  0
 23  9  1  0
 43 29  1  0
 25 11  1  0
 45 31  1  0
 23 15  1  0
 43 35  1  0
  1 46  1  0
  1 47  1  0
  1 48  1  0
  3 49  1  0
  3 50  1  0
  4 51  1  6
  5 52  1  0
  5 53  1  0
  7 54  1  6
  9 55  1  1
 12 56  1  0
 12 57  1  0
 12 58  1  0
 13 59  1  0
 13 60  1  0
 14 61  1  0
 14 62  1  0
 15 63  1  1
 16 64  1  6
 17 65  1  0
 17 66  1  0
 17 67  1  0
 18 68  1  0
 18 69  1  0
 19 70  1  0
 19 71  1  0
 20 72  1  1
 21 73  1  6
 22 74  1  0
 22 75  1  0
 22 76  1  0
 27 77  1  6
 29 78  1  1
 32 79  1  0
 32 80  1  0
 32 81  1  0
 33 82  1  0
 33 83  1  0
 34 84  1  0
 34 85  1  0
 35 86  1  1
 36 87  1  1
 37 88  1  0
 37 89  1  0
 37 90  1  0
 38 91  1  0
 38 92  1  0
 39 93  1  0
 39 94  1  0
 40 95  1  6
 41 96  1  6
 42 97  1  0
 42 98  1  0
 42 99  1  0
M  END
>  <Binding energies>  (1) 
[-7.53]

>  <Ligand effiencies>  (1) 
[-0.1536734693877551]

>  <Interactions>  (1) 
["V-A:ILE:369:CG2:3237, V-A:ASP:366:CA:3210, V-B:PRO:540:CA:9855, V-A:ILE:369:CB:3236, V-A:PRO:540:C:4881, V-B:TYR:539:CE2:9848, V-B:GLU:543:CG:9879, V-A:ASP:366:CG:3213, V-A:ASN:362:CB:3176, V-A:ALA:541:CB:4892, V-A:GLU:543:CD:4908, V-A:ILE:369:CD1:3239, V-A:ASP:366:C:3208, V-A:ALA:541:CA:4890, V-A:GLU:543:CG:4907, V-B:GLU:543:CD:9880, V-A:MET:535:CE:4835, H-B:TYR:531:OH:9767, V-A:ASP:366:CB:3212, V-A:ARG:545:CZ:4926, V-A:PRO:540:CB:4885, V-A:PRO:540:CA:4883, V-B:PRO:540:C:9853"]

$$$$
ZINC49899036
     RDKit          3D

 98104  0  0  0  0  0  0  0  0999 V2000
  129.3550  120.6110   61.5770 C   0  0  0  0  0  0  0  0  0  0  0  0
  129.2990  121.8450   60.8750 O   0  0  0  0  0  0  0  0  0  0  0  0
  128.2450  122.6830   61.0210 C   0  0  0  0  0  0  0  0  0  0  0  0
  127.2760  122.4660   61.7550 O   0  0  0  0  0  0  0  0  0  0  0  0
  128.3300  123.9630   60.1370 C   0  0  1  0  0  0  0  0  0  0  0  0
  128.7000  123.5590   58.8080 O   0  0  0  0  0  0  0  0  0  0  0  0
  129.6640  124.4550   58.2310 C   0  0  0  0  0  0  0  0  0  0  0  0
  129.6780  125.6670   59.1930 C   0  0  2  0  0  0  0  0  0  0  0  0
  128.4470  126.6580   58.9760 C   0  0  2  0  0  0  0  0  0  0  0  0
  127.0670  125.9160   58.9550 C   0  0  1  0  0  0  0  0  0  0  0  0
  126.7190  125.4000   57.6840 O   0  0  0  0  0  0  0  0  0  0  0  0
  126.9840  124.7680   60.0030 C   0  0  2  0  0  0  0  0  0  0  0  0
  126.5450  125.2650   61.2580 O   0  0  0  0  0  0  0  0  0  0  0  0
  128.6510  127.8170   57.9060 C   0  0  1  0  0  0  0  0  0  0  0  0
  128.6400  127.3470   56.4130 C   0  0  0  0  0  0  0  0  0  0  0  0
  127.5330  128.8890   58.0990 C   0  0  0  0  0  0  0  0  0  0  0  0
  127.7640  130.1980   57.3250 C   0  0  0  0  0  0  0  0  0  0  0  0
  126.8200  130.9050   56.9750 O   0  0  0  0  0  0  0  0  0  0  0  0
  129.1730  130.5890   57.1130 C   0  0  0  0  0  0  0  0  0  0  0  0
  129.3450  131.7920   56.4950 O   0  0  0  0  0  0  0  0  0  0  0  0
  130.0010  132.8080   57.1410 C   0  0  0  0  0  0  0  0  0  0  0  0
  130.9930  133.4130   56.7200 O   0  0  0  0  0  0  0  0  0  0  0  0
  129.3260  133.1280   58.4580 C   0  0  1  0  0  0  0  0  0  0  0  0
  127.8800  132.9050   58.2990 N   0  0  0  0  0  0  0  0  0  0  0  0
  129.9100  132.2990   59.6310 C   0  0  0  0  0  0  0  0  0  0  0  0
  129.3010  132.5760   60.9980 C   0  0  0  0  0  0  0  0  0  0  0  0
  128.2850  133.5470   61.1440 C   0  0  0  0  0  0  0  0  0  0  0  0
  127.6670  133.7250   62.3750 C   0  0  0  0  0  0  0  0  0  0  0  0
  128.0250  132.9330   63.4580 C   0  0  0  0  0  0  0  0  0  0  0  0
  128.9960  131.9490   63.3200 C   0  0  0  0  0  0  0  0  0  0  0  0
  129.6280  131.7560   62.0990 C   0  0  0  0  0  0  0  0  0  0  0  0
  130.2360  129.8440   57.5190 C   0  0  0  0  0  0  0  0  0  0  0  0
  131.6670  130.3440   57.3490 C   0  0  0  0  0  0  0  0  0  0  0  0
  130.0310  128.4900   58.2260 C   0  0  2  0  0  0  0  0  0  0  0  0
  131.1950  127.4600   58.1720 C   0  0  0  0  0  0  0  0  0  0  0  0
  131.0420  126.4180   59.2950 C   0  0  1  0  0  0  0  0  0  0  0  0
  131.2870  127.1210   60.5320 O   0  0  0  0  0  0  0  0  0  0  0  0
  130.7640  126.7380   61.7420 C   0  0  0  0  0  0  0  0  0  0  0  0
  131.2970  127.2440   62.7280 O   0  0  0  0  0  0  0  0  0  0  0  0
  129.5880  125.7260   61.7530 C   0  0  2  0  0  0  0  0  0  0  0  0
  129.6430  124.8690   62.9010 O   0  0  0  0  0  0  0  0  0  0  0  0
  130.7480  124.7860   63.7140 C   0  0  0  0  0  0  0  0  0  0  0  0
  131.7280  124.0790   63.4780 O   0  0  0  0  0  0  0  0  0  0  0  0
  130.7240  125.7090   64.9340 C   0  0  2  0  0  0  0  0  0  0  0  0
  131.9950  125.4400   65.6980 N   0  0  0  0  0  0  0  0  0  0  0  0
  129.4620  125.5250   65.8110 C   0  0  0  0  0  0  0  0  0  0  0  0
  129.2840  126.5640   66.9080 C   0  0  0  0  0  0  0  0  0  0  0  0
  129.6550  126.2710   68.2380 C   0  0  0  0  0  0  0  0  0  0  0  0
  129.4010  127.1870   69.2490 C   0  0  0  0  0  0  0  0  0  0  0  0
  128.7560  128.3840   68.9630 C   0  0  0  0  0  0  0  0  0  0  0  0
  128.3490  128.6690   67.6660 C   0  0  0  0  0  0  0  0  0  0  0  0
  128.5930  127.7640   66.6410 C   0  0  0  0  0  0  0  0  0  0  0  0
  129.5570  124.8510   60.4790 C   0  0  1  0  0  0  0  0  0  0  0  0
  129.3462  120.8044   62.6598 H   0  0  0  0  0  0  0  0  0  0  0  0
  128.4838  119.9959   61.3073 H   0  0  0  0  0  0  0  0  0  0  0  0
  130.2783  120.0773   61.3073 H   0  0  0  0  0  0  0  0  0  0  0  0
  130.6564  123.9828   58.1837 H   0  0  0  0  0  0  0  0  0  0  0  0
  129.4109  124.7389   57.1988 H   0  0  0  0  0  0  0  0  0  0  0  0
  128.4149  127.2672   59.8914 H   0  0  0  0  0  0  0  0  0  0  0  0
  126.3418  126.6999   59.2187 H   0  0  0  0  0  0  0  0  0  0  0  0
  127.1840  124.5690   57.5550 H   0  0  0  0  0  0  0  0  0  0  0  0
  126.2371  124.0497   59.6340 H   0  0  0  0  0  0  0  0  0  0  0  0
  126.6390  124.5680   61.9110 H   0  0  0  0  0  0  0  0  0  0  0  0
  128.6143  126.2480   56.3748 H   0  0  0  0  0  0  0  0  0  0  0  0
  127.7511  127.7524   55.9075 H   0  0  0  0  0  0  0  0  0  0  0  0
  129.5469  127.7104   55.9075 H   0  0  0  0  0  0  0  0  0  0  0  0
  126.5795  128.4552   57.7635 H   0  0  0  0  0  0  0  0  0  0  0  0
  127.5335  129.1528   59.1669 H   0  0  0  0  0  0  0  0  0  0  0  0
  129.5137  134.1803   58.7175 H   0  0  0  0  0  0  0  0  0  0  0  0
  127.6240  132.8830   57.3210 H   0  0  0  0  0  0  0  0  0  0  0  0
  127.6060  132.0160   58.6910 H   0  0  0  0  0  0  0  0  0  0  0  0
  129.7575  131.2340   59.4019 H   0  0  0  0  0  0  0  0  0  0  0  0
  130.9681  132.5897   59.7080 H   0  0  0  0  0  0  0  0  0  0  0  0
  127.9836  134.1617   60.2830 H   0  0  0  0  0  0  0  0  0  0  0  0
  126.8913  134.4960   62.4925 H   0  0  0  0  0  0  0  0  0  0  0  0
  127.5365  133.0857   64.4317 H   0  0  0  0  0  0  0  0  0  0  0  0
  129.2651  131.3203   64.1816 H   0  0  0  0  0  0  0  0  0  0  0  0
  130.3835  130.9640   61.9898 H   0  0  0  0  0  0  0  0  0  0  0  0
  132.1201  130.5023   58.3388 H   0  0  0  0  0  0  0  0  0  0  0  0
  132.2527  129.5973   56.7928 H   0  0  0  0  0  0  0  0  0  0  0  0
  131.6602  131.2930   56.7928 H   0  0  0  0  0  0  0  0  0  0  0  0
  130.0286  128.8110   59.2781 H   0  0  0  0  0  0  0  0  0  0  0  0
  131.1813  126.9483   57.1984 H   0  0  0  0  0  0  0  0  0  0  0  0
  132.1486  127.9918   58.3061 H   0  0  0  0  0  0  0  0  0  0  0  0
  131.7701  125.5968   59.2204 H   0  0  0  0  0  0  0  0  0  0  0  0
  128.6700  126.3309   61.7890 H   0  0  0  0  0  0  0  0  0  0  0  0
  130.6731  126.7595   64.6119 H   0  0  0  0  0  0  0  0  0  0  0  0
  132.7220  125.1810   65.0460 H   0  0  0  0  0  0  0  0  0  0  0  0
  131.8320  124.6830   66.3470 H   0  0  0  0  0  0  0  0  0  0  0  0
  132.2630  126.2740   66.2000 H   0  0  0  0  0  0  0  0  0  0  0  0
  128.5808  125.5680   65.1541 H   0  0  0  0  0  0  0  0  0  0  0  0
  129.5803  124.5573   66.3205 H   0  0  0  0  0  0  0  0  0  0  0  0
  130.1461  125.3153   68.4734 H   0  0  0  0  0  0  0  0  0  0  0  0
  129.7114  126.9647   70.2806 H   0  0  0  0  0  0  0  0  0  0  0  0
  128.5668  129.1096   69.7678 H   0  0  0  0  0  0  0  0  0  0  0  0
  127.8314  129.6152   67.4497 H   0  0  0  0  0  0  0  0  0  0  0  0
  128.2470  127.9835   65.6202 H   0  0  0  0  0  0  0  0  0  0  0  0
  130.3999  124.2066   60.7691 H   0  0  0  0  0  0  0  0  0  0  0  0
  1  2  1  0
  2  3  1  0
  3  4  2  0
  5  3  1  1
  5  6  1  0
  6  7  1  0
  8  7  1  6
  8  9  1  0
  9 10  1  0
 10 11  1  0
 10 12  1  0
 12 13  1  0
  9 14  1  0
 14 15  1  6
 14 16  1  0
 16 17  1  0
 17 18  2  0
 17 19  1  0
 19 20  1  0
 20 21  1  0
 21 22  2  0
 21 23  1  0
 23 24  1  0
 23 25  1  0
 25 26  1  0
 26 27  2  0
 27 28  1  0
 28 29  2  0
 29 30  1  0
 30 31  2  0
 19 32  2  0
 32 33  1  0
 32 34  1  0
 34 35  1  0
 35 36  1  0
 36 37  1  0
 37 38  1  0
 38 39  2  0
 38 40  1  0
 40 41  1  0
 41 42  1  0
 42 43  2  0
 42 44  1  0
 44 45  1  0
 44 46  1  0
 46 47  1  0
 47 48  2  0
 48 49  1  0
 49 50  2  0
 50 51  1  0
 51 52  2  0
 40 53  1  0
 12  5  1  0
 34 14  1  0
 52 47  1  0
 53  5  1  0
 36  8  1  0
 53  8  1  0
 31 26  1  0
  1 54  1  0
  1 55  1  0
  1 56  1  0
  7 57  1  0
  7 58  1  0
  9 59  1  1
 10 60  1  1
 11 61  1  0
 12 62  1  6
 13 63  1  0
 15 64  1  0
 15 65  1  0
 15 66  1  0
 16 67  1  0
 16 68  1  0
 23 69  1  1
 24 70  1  0
 24 71  1  0
 25 72  1  0
 25 73  1  0
 27 74  1  0
 28 75  1  0
 29 76  1  0
 30 77  1  0
 31 78  1  0
 33 79  1  0
 33 80  1  0
 33 81  1  0
 34 82  1  1
 35 83  1  0
 35 84  1  0
 36 85  1  6
 40 86  1  1
 44 87  1  6
 45 88  1  0
 45 89  1  0
 45 90  1  0
 46 91  1  0
 46 92  1  0
 48 93  1  0
 49 94  1  0
 50 95  1  0
 51 96  1  0
 52 97  1  0
 53 98  1  1
M  CHG  1  45   1
M  END
>  <Binding energies>  (1) 
[-9.66]

>  <Ligand effiencies>  (1) 
[-0.161]

>  <Interactions>  (1) 
["V-B:PRO:540:CA:9855, H-A:GLU:543:OE2:4910, V-B:GLU:543:CB:9878, V-B:ALA:541:CB:9864, V-B:TYR:539:CE2:9848, V-B:GLU:543:CG:9879, V-B:LEU:475:CD2:9230, V-B:TYR:539:C:9839, V-A:TYR:539:CD1:4873, V-B:TYR:539:CZ:9849, H-B:GLU:543:OE1:9881, V-A:TYR:531:CE2:4793, V-A:ALA:541:CB:4892, H-B:ALA:541:N:9863, V-A:TYR:539:CA:4869, V-A:GLU:543:CD:4908, V-B:HIS:456:CE1:9041, V-A:HIS:456:CE1:4070, V-A:TYR:531:CZ:4794, V-A:GLU:543:CG:4907, V-A:MET:535:CE:4835, V-B:GLU:543:CD:9880, V-A:TYR:539:C:4867, H-B:TYR:531:OH:9767, V-A:ASP:366:CB:3212, V-A:LEU:475:CD2:4259, H-A:ARG:545:NH2:4928, V-A:ARG:545:CZ:4926, V-A:GLU:543:CB:4906, V-A:PRO:540:N:4884, H-A:TYR:539:N:4870, V-A:PRO:540:CB:4885, V-A:PRO:540:CA:4883, V-B:PRO:540:C:9853, V-B:ALA:541:CA:9862, H-A:TYR:484:OH:4348"]

$$$$
ZINC503916407
     RDKit          3D

 77 80  0  0  0  0  0  0  0  0999 V2000
  129.4810  122.2450   65.1160 C   0  0  0  0  0  0  0  0  0  0  0  0
  129.4800  123.4250   64.4680 C   0  0  0  0  0  0  0  0  0  0  0  0
  130.2520  124.7100   64.8210 C   0  0  2  0  0  0  0  0  0  0  0  0
  130.3170  124.8780   66.3780 C   0  0  0  0  0  0  0  0  0  0  0  0
  129.5250  126.0140   64.3200 C   0  0  0  0  0  0  0  0  0  0  0  0
  129.3720  126.4210   62.8210 C   0  0  2  0  0  0  0  0  0  0  0  0
  128.3440  127.4160   62.7050 O   0  0  0  0  0  0  0  0  0  0  0  0
  128.2690  128.5040   63.5190 C   0  0  0  0  0  0  0  0  0  0  0  0
  128.2500  128.4850   64.7490 O   0  0  0  0  0  0  0  0  0  0  0  0
  128.2110  129.8280   62.7550 C   0  0  0  0  0  0  0  0  0  0  0  0
  129.5160  130.2680   62.4050 O   0  0  0  0  0  0  0  0  0  0  0  0
  129.7790  131.9100   62.2780 S   0  0  0  0  0  0  0  0  0  0  0  0
  128.4780  132.5850   62.3540 O   0  0  0  0  0  0  0  0  0  0  0  0
  130.8960  132.2860   63.1520 O   0  0  0  0  0  0  0  0  0  0  0  0
  130.3270  131.9580   60.5730 C   0  0  0  0  0  0  0  0  0  0  0  0
  129.5310  132.5580   59.5930 C   0  0  0  0  0  0  0  0  0  0  0  0
  129.9720  132.5960   58.2730 C   0  0  0  0  0  0  0  0  0  0  0  0
  131.2060  132.0360   57.9340 C   0  0  0  0  0  0  0  0  0  0  0  0
  131.6760  132.0740   56.4910 C   0  0  0  0  0  0  0  0  0  0  0  0
  131.9970  131.4340   58.9150 C   0  0  0  0  0  0  0  0  0  0  0  0
  131.5600  131.4000   60.2360 C   0  0  0  0  0  0  0  0  0  0  0  0
  129.2540  125.3970   61.6200 C   0  0  1  0  0  0  0  0  0  0  0  0
  127.7240  125.4490   61.2360 C   0  0  0  0  0  0  0  0  0  0  0  0
  130.0080  125.9140   60.3190 C   0  0  2  0  0  0  0  0  0  0  0  0
  129.5110  125.3430   58.9590 C   0  0  0  0  0  0  0  0  0  0  0  0
  131.5360  125.7340   60.3800 C   0  0  0  0  0  0  0  0  0  0  0  0
  131.9800  124.2890   60.6300 C   0  0  0  0  0  0  0  0  0  0  0  0
  131.2900  123.5480   61.8210 C   0  0  2  0  0  0  0  0  0  0  0  0
  131.1890  122.0470   61.4300 C   0  0  0  0  0  0  0  0  0  0  0  0
  129.9140  121.8310   60.6520 C   0  0  0  0  0  0  0  0  0  0  0  0
  128.9600  122.7450   61.3930 C   0  0  0  0  0  0  0  0  0  0  0  0
  127.7510  122.5450   61.4950 O   0  0  0  0  0  0  0  0  0  0  0  0
  129.7600  123.9320   62.0030 C   0  0  2  0  0  0  0  0  0  0  0  0
  132.1620  123.6280   63.1550 C   0  0  1  0  0  0  0  0  0  0  0  0
  133.6820  123.8800   62.8750 C   0  0  0  0  0  0  0  0  0  0  0  0
  131.7420  124.5850   64.3310 C   0  0  1  0  0  0  0  0  0  0  0  0
  132.4110  125.8340   64.2570 O   0  0  0  0  0  0  0  0  0  0  0  0
  128.8718  121.4101   64.7393 H   0  0  0  0  0  0  0  0  0  0  0  0
  130.0910  122.1157   66.0222 H   0  0  0  0  0  0  0  0  0  0  0  0
  128.8460  123.4782   63.5707 H   0  0  0  0  0  0  0  0  0  0  0  0
  129.9605  123.9565   66.8614 H   0  0  0  0  0  0  0  0  0  0  0  0
  131.3557  125.0736   66.6826 H   0  0  0  0  0  0  0  0  0  0  0  0
  129.6804  125.7218   66.6826 H   0  0  0  0  0  0  0  0  0  0  0  0
  128.5004  125.9517   64.7154 H   0  0  0  0  0  0  0  0  0  0  0  0
  130.2270  126.7854   64.6696 H   0  0  0  0  0  0  0  0  0  0  0  0
  130.4085  126.7420   62.6403 H   0  0  0  0  0  0  0  0  0  0  0  0
  127.6195  129.6893   61.8380 H   0  0  0  0  0  0  0  0  0  0  0  0
  127.7452  130.5869   63.4009 H   0  0  0  0  0  0  0  0  0  0  0  0
  128.5600  132.9984   59.8637 H   0  0  0  0  0  0  0  0  0  0  0  0
  129.3493  133.0665   57.4978 H   0  0  0  0  0  0  0  0  0  0  0  0
  132.7721  132.1626   56.4646 H   0  0  0  0  0  0  0  0  0  0  0  0
  131.3706  131.1482   55.9814 H   0  0  0  0  0  0  0  0  0  0  0  0
  131.2258  132.9387   55.9814 H   0  0  0  0  0  0  0  0  0  0  0  0
  132.9648  130.9870   58.6438 H   0  0  0  0  0  0  0  0  0  0  0  0
  132.1853  130.9344   61.0120 H   0  0  0  0  0  0  0  0  0  0  0  0
  127.1164  125.4697   62.1527 H   0  0  0  0  0  0  0  0  0  0  0  0
  127.5252  126.3544   60.6438 H   0  0  0  0  0  0  0  0  0  0  0  0
  127.4641  124.5592   60.6438 H   0  0  0  0  0  0  0  0  0  0  0  0
  129.7454  126.9820   60.3401 H   0  0  0  0  0  0  0  0  0  0  0  0
  128.7990  124.5250   59.1430 H   0  0  0  0  0  0  0  0  0  0  0  0
  129.0139  126.1399   58.3864 H   0  0  0  0  0  0  0  0  0  0  0  0
  130.3689  124.9606   58.3864 H   0  0  0  0  0  0  0  0  0  0  0  0
  131.9627  126.0670   59.4224 H   0  0  0  0  0  0  0  0  0  0  0  0
  131.8947  126.3308   61.2316 H   0  0  0  0  0  0  0  0  0  0  0  0
  131.7776  123.7132   59.7148 H   0  0  0  0  0  0  0  0  0  0  0  0
  133.0442  124.3522   60.9012 H   0  0  0  0  0  0  0  0  0  0  0  0
  132.0528  121.7680   60.8087 H   0  0  0  0  0  0  0  0  0  0  0  0
  131.1831  121.4245   62.3369 H   0  0  0  0  0  0  0  0  0  0  0  0
  130.0271  122.1333   59.6004 H   0  0  0  0  0  0  0  0  0  0  0  0
  129.5874  120.7818   60.6020 H   0  0  0  0  0  0  0  0  0  0  0  0
  129.5691  124.0575   63.0790 H   0  0  0  0  0  0  0  0  0  0  0  0
  131.9412  122.6179   63.5305 H   0  0  0  0  0  0  0  0  0  0  0  0
  134.2208  123.9693   63.8298 H   0  0  0  0  0  0  0  0  0  0  0  0
  134.0933  123.0378   62.2992 H   0  0  0  0  0  0  0  0  0  0  0  0
  133.7995  124.8099   62.2992 H   0  0  0  0  0  0  0  0  0  0  0  0
  132.1022  123.9778   65.1745 H   0  0  0  0  0  0  0  0  0  0  0  0
  131.9010  126.4820   64.7470 H   0  0  0  0  0  0  0  0  0  0  0  0
  1  2  2  0
  2  3  1  0
  3  4  1  1
  3  5  1  0
  5  6  1  0
  6  7  1  0
  7  8  1  0
  8  9  2  0
  8 10  1  0
 10 11  1  0
 11 12  1  0
 12 13  2  0
 12 14  2  0
 12 15  1  0
 15 16  2  0
 16 17  1  0
 17 18  2  0
 18 19  1  0
 18 20  1  0
 20 21  2  0
  6 22  1  0
 22 23  1  6
 22 24  1  0
 24 25  1  0
 24 26  1  0
 26 27  1  0
 28 27  1  6
 28 29  1  0
 29 30  1  0
 30 31  1  0
 31 32  2  0
 31 33  1  0
 28 34  1  0
 34 35  1  0
 34 36  1  0
 36 37  1  0
 36  3  1  0
 21 15  1  0
 33 22  1  0
 33 28  1  0
  1 38  1  0
  1 39  1  0
  2 40  1  0
  4 41  1  0
  4 42  1  0
  4 43  1  0
  5 44  1  0
  5 45  1  0
  6 46  1  6
 10 47  1  0
 10 48  1  0
 16 49  1  0
 17 50  1  0
 19 51  1  0
 19 52  1  0
 19 53  1  0
 20 54  1  0
 21 55  1  0
 23 56  1  0
 23 57  1  0
 23 58  1  0
 24 59  1  6
 25 60  1  0
 25 61  1  0
 25 62  1  0
 26 63  1  0
 26 64  1  0
 27 65  1  0
 27 66  1  0
 29 67  1  0
 29 68  1  0
 30 69  1  0
 30 70  1  0
 33 71  1  1
 34 72  1  1
 35 73  1  0
 35 74  1  0
 35 75  1  0
 36 76  1  1
 37 77  1  0
M  END
>  <Binding energies>  (1) 
[-7.07]

>  <Ligand effiencies>  (1) 
[-0.17675000000000002]

>  <Interactions>  (1) 
["V-A:GLY:454:CA:4049, H-A:GLU:543:OE2:4910, H-A:ALA:541:N:4891, V-B:GLU:543:CB:9878, V-A:ILE:538:CB:4862, V-B:ALA:541:CB:9864, V-B:TYR:539:CE2:9848, V-A:TYR:484:CE2:4346, V-B:GLU:543:CG:9879, V-A:ASP:366:CG:3213, V-A:ILE:538:CG2:4863, V-A:LEU:363:CD1:3189, H-B:ALA:541:N:9863, V-A:GLU:543:CD:4908, V-A:TYR:484:CZ:4347, V-A:HIS:456:CE1:4070, V-B:TYR:539:CD2:9846, V-B:GLU:543:CD:9880, V-A:TYR:539:C:4867, V-A:LEU:475:CD2:4259, H-A:ARG:545:NH2:4928, H-A:GLU:543:OE1:4909, V-A:PRO:540:N:4884, V-A:PRO:540:CB:4885, V-A:PRO:540:CA:4883, H-A:ARG:545:NE:4924"]

$$$$
ZINC503938860
     RDKit          3D

 59 62  0  0  0  0  0  0  0  0999 V2000
  132.5010  125.2640   58.4210 C   0  0  0  0  0  0  0  0  0  0  0  0
  131.4220  125.9990   58.7550 C   0  0  0  0  0  0  0  0  0  0  0  0
  131.3780  127.5080   58.5170 C   0  0  0  0  0  0  0  0  0  0  0  0
  130.1530  127.8850   57.6600 C   0  0  0  0  0  0  0  0  0  0  0  0
  128.8570  127.3290   58.2740 C   0  0  0  0  0  0  0  0  0  0  0  0
  128.9040  125.7890   58.4960 C   0  0  2  0  0  0  0  0  0  0  0  0
  128.9280  125.0560   57.1220 C   0  0  0  0  0  0  0  0  0  0  0  0
  127.6490  125.4030   59.3250 C   0  0  0  0  0  0  0  0  0  0  0  0
  127.5500  123.8850   59.5810 C   0  0  2  0  0  0  0  0  0  0  0  0
  126.5260  123.6860   60.5470 O   0  0  0  0  0  0  0  0  0  0  0  0
  126.9990  123.1960   61.7050 C   0  0  0  0  0  0  0  0  0  0  0  0
  126.2450  122.8590   62.6160 O   0  0  0  0  0  0  0  0  0  0  0  0
  128.5300  123.1580   61.6830 C   0  0  2  0  0  0  0  0  0  0  0  0
  129.0880  124.3070   62.5750 C   0  0  0  0  0  0  0  0  0  0  0  0
  129.8070  123.7890   63.7500 N   0  0  0  0  0  0  0  0  0  0  0  0
  130.8690  122.8440   63.3760 C   0  0  0  0  0  0  0  0  0  0  0  0
  132.2550  123.4500   63.0210 C   0  0  2  0  0  0  0  0  0  0  0  0
  133.3480  122.3590   62.9800 C   0  0  0  0  0  0  0  0  0  0  0  0
  132.6530  124.6060   63.9620 C   0  0  0  0  0  0  0  0  0  0  0  0
  133.7750  124.7480   64.4480 O   0  0  0  0  0  0  0  0  0  0  0  0
  131.5040  125.5640   64.2810 C   0  0  0  0  0  0  0  0  0  0  0  0
  130.1960  124.8450   64.6990 C   0  0  2  0  0  0  0  0  0  0  0  0
  130.2200  124.3510   66.1580 C   0  0  0  0  0  0  0  0  0  0  0  0
  128.8240  123.2500   60.1770 C   0  0  2  0  0  0  0  0  0  0  0  0
  130.1720  123.9310   59.7780 C   0  0  0  0  0  0  0  0  0  0  0  0
  130.1340  125.4460   59.4070 C   0  0  1  0  0  0  0  0  0  0  0  0
  132.5055  124.1793   58.6036 H   0  0  0  0  0  0  0  0  0  0  0  0
  133.3772  125.7488   57.9658 H   0  0  0  0  0  0  0  0  0  0  0  0
  131.3149  128.0254   59.4857 H   0  0  0  0  0  0  0  0  0  0  0  0
  132.2914  127.8104   57.9838 H   0  0  0  0  0  0  0  0  0  0  0  0
  130.0805  128.9809   57.5989 H   0  0  0  0  0  0  0  0  0  0  0  0
  130.2800  127.4501   56.6576 H   0  0  0  0  0  0  0  0  0  0  0  0
  128.6903  127.8186   59.2448 H   0  0  0  0  0  0  0  0  0  0  0  0
  128.0410  127.5357   57.5658 H   0  0  0  0  0  0  0  0  0  0  0  0
  128.9636  123.9690   57.2869 H   0  0  0  0  0  0  0  0  0  0  0  0
  128.0210  125.3113   56.5544 H   0  0  0  0  0  0  0  0  0  0  0  0
  129.8163  125.3700   56.5544 H   0  0  0  0  0  0  0  0  0  0  0  0
  127.6940  125.9214   60.2942 H   0  0  0  0  0  0  0  0  0  0  0  0
  126.7628  125.7013   58.7457 H   0  0  0  0  0  0  0  0  0  0  0  0
  127.3659  123.4151   58.6036 H   0  0  0  0  0  0  0  0  0  0  0  0
  129.0172  122.2681   62.1081 H   0  0  0  0  0  0  0  0  0  0  0  0
  129.7790  124.9186   61.9763 H   0  0  0  0  0  0  0  0  0  0  0  0
  128.2370  124.9055   62.9323 H   0  0  0  0  0  0  0  0  0  0  0  0
  131.0139  122.1552   64.2213 H   0  0  0  0  0  0  0  0  0  0  0  0
  130.5171  122.3691   62.4483 H   0  0  0  0  0  0  0  0  0  0  0  0
  132.1638  123.8808   62.0130 H   0  0  0  0  0  0  0  0  0  0  0  0
  133.6269  122.0806   64.0070 H   0  0  0  0  0  0  0  0  0  0  0  0
  132.9632  121.4741   62.4519 H   0  0  0  0  0  0  0  0  0  0  0  0
  134.2322  122.7454   62.4519 H   0  0  0  0  0  0  0  0  0  0  0  0
  131.8180  126.2219   65.1048 H   0  0  0  0  0  0  0  0  0  0  0  0
  131.2848  126.1237   63.3597 H   0  0  0  0  0  0  0  0  0  0  0  0
  129.4049  125.6081   64.6555 H   0  0  0  0  0  0  0  0  0  0  0  0
  130.1781  125.2145   66.8382 H   0  0  0  0  0  0  0  0  0  0  0  0
  129.3525  123.6993   66.3388 H   0  0  0  0  0  0  0  0  0  0  0  0
  131.1466  123.7865   66.3388 H   0  0  0  0  0  0  0  0  0  0  0  0
  129.0183  122.2551   59.7499 H   0  0  0  0  0  0  0  0  0  0  0  0
  130.8621  123.8173   60.6271 H   0  0  0  0  0  0  0  0  0  0  0  0
  130.4773  123.4240   58.8508 H   0  0  0  0  0  0  0  0  0  0  0  0
  130.0406  125.9486   60.3810 H   0  0  0  0  0  0  0  0  0  0  0  0
  1  2  2  0
  2  3  1  0
  3  4  1  0
  4  5  1  0
  5  6  1  0
  6  7  1  6
  6  8  1  0
  8  9  1  0
  9 10  1  0
 10 11  1  0
 11 12  2  0
 11 13  1  0
 13 14  1  0
 14 15  1  0
 15 16  1  0
 16 17  1  0
 17 18  1  0
 17 19  1  0
 19 20  2  0
 19 21  1  0
 21 22  1  0
 22 23  1  0
 13 24  1  0
 24 25  1  0
 25 26  1  0
 26  2  1  0
 26  6  1  0
 24  9  1  0
 22 15  1  0
  1 27  1  0
  1 28  1  0
  3 29  1  0
  3 30  1  0
  4 31  1  0
  4 32  1  0
  5 33  1  0
  5 34  1  0
  7 35  1  0
  7 36  1  0
  7 37  1  0
  8 38  1  0
  8 39  1  0
  9 40  1  6
 13 41  1  1
 14 42  1  0
 14 43  1  0
 16 44  1  0
 16 45  1  0
 17 46  1  6
 18 47  1  0
 18 48  1  0
 18 49  1  0
 21 50  1  0
 21 51  1  0
 22 52  1  1
 23 53  1  0
 23 54  1  0
 23 55  1  0
 24 56  1  6
 25 57  1  0
 25 58  1  0
 26 59  1  1
M  END
>  <Binding energies>  (1) 
[-7.69]

>  <Ligand effiencies>  (1) 
[-0.2957692307692308]

>  <Interactions>  (1) 
["V-A:ASP:366:CA:3210, V-B:PRO:540:CA:9855, V-A:GLY:454:CA:4049, V-B:GLU:543:CB:9878, V-B:TYR:539:CE2:9848, V-A:TYR:484:CE2:4346, V-B:GLU:543:CG:9879, V-A:ASP:366:CG:3213, V-B:TYR:539:CZ:9849, H-B:ALA:541:N:9863, V-A:GLU:543:CD:4908, V-A:TYR:484:CZ:4347, H-A:GLY:454:N:4050, V-B:GLU:543:CD:9880, V-A:ASP:366:CB:3212, V-A:LEU:475:CD2:4259, H-A:ARG:545:NH2:4928, V-A:ARG:545:CZ:4926, H-A:ARG:545:NE:4924, V-B:PRO:540:C:9853, H-A:TYR:484:OH:4348"]

$$$$
ZINC504183579
     RDKit          3D

 48 50  0  0  0  0  0  0  0  0999 V2000
  130.6470  119.5130   60.8760 C   0  0  0  0  0  0  0  0  0  0  0  0
  130.8360  121.0000   61.2110 C   0  0  0  0  0  0  0  0  0  0  0  0
  132.0360  121.6480   60.4840 C   0  0  2  0  0  0  0  0  0  0  0  0
  133.6810  121.4770   61.5970 Br  0  0  0  0  0  0  0  0  0  0  0  0
  131.8520  123.1340   60.1450 C   0  0  0  0  0  0  0  0  0  0  0  0
  132.6320  123.7080   59.3840 O   0  0  0  0  0  0  0  0  0  0  0  0
  130.7870  123.7030   60.7640 O   0  0  0  0  0  0  0  0  0  0  0  0
  130.5190  125.1100   60.6850 C   0  0  2  0  0  0  0  0  0  0  0  0
  131.8000  125.9000   61.0370 C   0  0  0  0  0  0  0  0  0  0  0  0
  132.5320  125.3650   62.2620 C   0  0  0  0  0  0  0  0  0  0  0  0
  133.9060  124.7370   62.0100 C   0  0  0  0  0  0  0  0  0  0  0  0
  131.9290  125.3970   63.4810 C   0  0  0  0  0  0  0  0  0  0  0  0
  132.5340  124.8960   64.7180 C   0  0  0  0  0  0  0  0  0  0  0  0
  133.6280  124.3580   64.8820 O   0  0  0  0  0  0  0  0  0  0  0  0
  131.5910  125.1800   65.7790 C   0  0  0  0  0  0  0  0  0  0  0  0
  130.4880  125.7990   65.3290 C   0  0  0  0  0  0  0  0  0  0  0  0
  129.2890  126.2900   66.1170 C   0  0  0  0  0  0  0  0  0  0  0  0
  130.5780  125.9870   63.8270 C   0  0  2  0  0  0  0  0  0  0  0  0
  129.3500  125.4200   63.0600 C   0  0  2  0  0  0  0  0  0  0  0  0
  129.0680  124.0470   63.3160 O   0  0  0  0  0  0  0  0  0  0  0  0
  128.2110  123.5770   62.3770 C   0  0  0  0  0  0  0  0  0  0  0  0
  127.7700  122.4290   62.4080 O   0  0  0  0  0  0  0  0  0  0  0  0
  127.9990  124.6640   61.3130 C   0  0  2  0  0  0  0  0  0  0  0  0
  127.7200  124.0860   59.9100 C   0  0  0  0  0  0  0  0  0  0  0  0
  129.2600  125.5170   61.5250 C   0  0  2  0  0  0  0  0  0  0  0  0
  130.5734  118.9336   61.8082 H   0  0  0  0  0  0  0  0  0  0  0  0
  129.7252  119.3835   60.2900 H   0  0  0  0  0  0  0  0  0  0  0  0
  131.5071  119.1570   60.2900 H   0  0  0  0  0  0  0  0  0  0  0  0
  129.9219  121.5405   60.9241 H   0  0  0  0  0  0  0  0  0  0  0  0
  131.0379  121.0654   62.2903 H   0  0  0  0  0  0  0  0  0  0  0  0
  132.1198  121.1028   59.5323 H   0  0  0  0  0  0  0  0  0  0  0  0
  130.2510  125.3751   59.6516 H   0  0  0  0  0  0  0  0  0  0  0  0
  132.4837  125.8545   60.1765 H   0  0  0  0  0  0  0  0  0  0  0  0
  131.4892  126.9287   61.2718 H   0  0  0  0  0  0  0  0  0  0  0  0
  134.3901  124.5157   62.9726 H   0  0  0  0  0  0  0  0  0  0  0  0
  133.7840  123.8053   61.4382 H   0  0  0  0  0  0  0  0  0  0  0  0
  134.5307  125.4390   61.4382 H   0  0  0  0  0  0  0  0  0  0  0  0
  131.7591  124.9183   66.8341 H   0  0  0  0  0  0  0  0  0  0  0  0
  129.4978  126.2045   67.1936 H   0  0  0  0  0  0  0  0  0  0  0  0
  129.0901  127.3420   65.8645 H   0  0  0  0  0  0  0  0  0  0  0  0
  128.4094  125.6797   65.8645 H   0  0  0  0  0  0  0  0  0  0  0  0
  130.5265  127.0377   63.5055 H   0  0  0  0  0  0  0  0  0  0  0  0
  128.6366  126.1369   63.4925 H   0  0  0  0  0  0  0  0  0  0  0  0
  127.0919  125.2794   61.4047 H   0  0  0  0  0  0  0  0  0  0  0  0
  127.2437  123.0993   60.0080 H   0  0  0  0  0  0  0  0  0  0  0  0
  127.0498  124.7637   59.3609 H   0  0  0  0  0  0  0  0  0  0  0  0
  128.6675  123.9829   59.3609 H   0  0  0  0  0  0  0  0  0  0  0  0
  129.2114  126.5485   61.1460 H   0  0  0  0  0  0  0  0  0  0  0  0
  1  2  1  0
  2  3  1  0
  3  4  1  0
  3  5  1  0
  5  6  2  0
  5  7  1  0
  7  8  1  0
  8  9  1  0
  9 10  1  0
 10 11  1  0
 10 12  2  0
 12 13  1  0
 13 14  2  0
 13 15  1  0
 15 16  2  0
 16 17  1  0
 16 18  1  0
 18 19  1  0
 19 20  1  0
 20 21  1  0
 21 22  2  0
 21 23  1  0
 23 24  1  0
 23 25  1  0
 25  8  1  0
 18 12  1  0
 25 19  1  0
  1 26  1  0
  1 27  1  0
  1 28  1  0
  2 29  1  0
  2 30  1  0
  3 31  1  6
  8 32  1  6
  9 33  1  0
  9 34  1  0
 11 35  1  0
 11 36  1  0
 11 37  1  0
 15 38  1  0
 17 39  1  0
 17 40  1  0
 17 41  1  0
 18 42  1  1
 19 43  1  1
 23 44  1  1
 24 45  1  0
 24 46  1  0
 24 47  1  0
 25 48  1  1
M  END
>  <Binding energies>  (1) 
[-5.67]

>  <Ligand effiencies>  (1) 
[-0.21]

>  <Interactions>  (1) 
["V-A:ILE:369:CG2:3237, H-B:TYR:539:OH:9850, V-B:TYR:539:CD2:9846, V-B:GLU:543:CB:9878, V-A:SER:385:CB:3409, H-B:ALA:541:N:9863, V-B:GLU:543:CD:9880, V-B:TYR:539:CE2:9848, V-A:GLU:543:CD:4908, V-A:TYR:484:CZ:4347, V-B:GLU:543:CG:9879, V-A:LEU:475:CD2:4259, V-A:ARG:545:CZ:4926, H-A:GLY:454:N:4050, V-A:ASP:366:CG:3213, H-A:TYR:484:OH:4348"]

$$$$
ZINC504509710
     RDKit          3D

 80 83  0  0  0  0  0  0  0  0999 V2000
  129.5010  124.1820   66.4840 O   0  0  0  0  0  0  0  0  0  0  0  0
  130.0430  125.2680   66.2780 C   0  0  0  0  0  0  0  0  0  0  0  0
  130.5210  126.1120   67.4700 C   0  0  0  0  0  0  0  0  0  0  0  0
  129.4840  127.1710   67.9260 C   0  0  0  0  0  0  0  0  0  0  0  0
  129.4730  127.4650   69.3730 N   0  0  0  0  0  0  0  0  0  0  0  0
  130.5470  127.8840   70.0700 C   0  0  0  0  0  0  0  0  0  0  0  0
  131.6830  128.0930   69.6450 O   0  0  0  0  0  0  0  0  0  0  0  0
  130.0800  128.0450   71.4110 C   0  0  0  0  0  0  0  0  0  0  0  0
  128.7860  127.7140   71.4530 C   0  0  0  0  0  0  0  0  0  0  0  0
  128.3740  127.3300   70.1400 C   0  0  0  0  0  0  0  0  0  0  0  0
  127.2550  126.9600   69.7840 O   0  0  0  0  0  0  0  0  0  0  0  0
  130.2790  125.7590   65.0470 N   0  0  0  0  0  0  0  0  0  0  0  0
  129.9870  125.0600   63.7990 C   0  0  0  0  0  0  0  0  0  0  0  0
  130.2340  123.5400   63.8940 C   0  0  0  0  0  0  0  0  0  0  0  0
  130.1120  122.8580   62.5970 N   0  0  0  0  0  0  0  0  0  0  0  0
  128.8850  122.9360   61.9090 C   0  0  0  0  0  0  0  0  0  0  0  0
  127.8270  122.4650   62.3310 O   0  0  0  0  0  0  0  0  0  0  0  0
  128.9330  123.8020   60.2720 S   0  0  0  0  0  0  0  0  0  0  0  0
  127.9040  125.5300   60.6640 S   0  0  0  0  0  0  0  0  0  0  0  0
  128.9870  126.8180   59.8870 C   0  0  0  0  0  0  0  0  0  0  0  0
  128.5480  127.5440   58.9920 O   0  0  0  0  0  0  0  0  0  0  0  0
  130.3040  126.8820   60.3790 N   0  0  0  0  0  0  0  0  0  0  0  0
  130.5850  127.7530   61.5290 C   0  0  0  0  0  0  0  0  0  0  0  0
  130.3420  129.2550   61.2530 C   0  0  0  0  0  0  0  0  0  0  0  0
  131.3540  129.8280   60.3690 N   0  0  0  0  0  0  0  0  0  0  0  0
  131.7710  131.1060   60.3970 C   0  0  0  0  0  0  0  0  0  0  0  0
  131.2870  131.9650   61.1330 O   0  0  0  0  0  0  0  0  0  0  0  0
  132.9420  131.4720   59.4690 C   0  0  0  0  0  0  0  0  0  0  0  0
  132.6490  131.2100   57.9650 C   0  0  0  0  0  0  0  0  0  0  0  0
  131.2240  131.2470   57.5700 N   0  0  0  0  0  0  0  0  0  0  0  0
  130.5720  132.3710   57.2120 C   0  0  0  0  0  0  0  0  0  0  0  0
  131.0250  133.5150   57.1550 O   0  0  0  0  0  0  0  0  0  0  0  0
  129.2420  131.9490   56.9040 C   0  0  0  0  0  0  0  0  0  0  0  0
  129.1600  130.6300   57.0980 C   0  0  0  0  0  0  0  0  0  0  0  0
  130.4340  130.1560   57.5390 C   0  0  0  0  0  0  0  0  0  0  0  0
  130.7450  128.9990   57.8220 O   0  0  0  0  0  0  0  0  0  0  0  0
  131.3760  126.1580   59.8380 C   0  0  0  0  0  0  0  0  0  0  0  0
  131.6400  126.2190   58.4660 C   0  0  0  0  0  0  0  0  0  0  0  0
  132.6980  125.4850   57.9360 C   0  0  0  0  0  0  0  0  0  0  0  0
  133.4840  124.7000   58.7770 C   0  0  0  0  0  0  0  0  0  0  0  0
  133.2220  124.6390   60.1450 C   0  0  0  0  0  0  0  0  0  0  0  0
  132.1620  125.3650   60.6790 C   0  0  0  0  0  0  0  0  0  0  0  0
  131.2610  122.2270   62.0900 C   0  0  0  0  0  0  0  0  0  0  0  0
  132.5130  122.5540   62.6170 C   0  0  0  0  0  0  0  0  0  0  0  0
  133.6560  121.9470   62.1060 C   0  0  0  0  0  0  0  0  0  0  0  0
  133.5440  121.0210   61.0700 C   0  0  0  0  0  0  0  0  0  0  0  0
  132.2980  120.6990   60.5350 C   0  0  0  0  0  0  0  0  0  0  0  0
  131.1510  121.3050   61.0430 C   0  0  0  0  0  0  0  0  0  0  0  0
  130.7267  125.4383   68.3148 H   0  0  0  0  0  0  0  0  0  0  0  0
  131.4205  126.6553   67.1450 H   0  0  0  0  0  0  0  0  0  0  0  0
  129.6982  128.1080   67.3910 H   0  0  0  0  0  0  0  0  0  0  0  0
  128.4958  126.7462   67.6956 H   0  0  0  0  0  0  0  0  0  0  0  0
  130.6843  128.3844   72.2652 H   0  0  0  0  0  0  0  0  0  0  0  0
  128.1461  127.7338   72.3475 H   0  0  0  0  0  0  0  0  0  0  0  0
  130.7090  126.6690   64.9630 H   0  0  0  0  0  0  0  0  0  0  0  0
  128.9314  125.2292   63.5400 H   0  0  0  0  0  0  0  0  0  0  0  0
  130.6645  125.4585   63.0295 H   0  0  0  0  0  0  0  0  0  0  0  0
  131.2488  123.3731   64.2842 H   0  0  0  0  0  0  0  0  0  0  0  0
  129.4652  123.1218   64.5603 H   0  0  0  0  0  0  0  0  0  0  0  0
  129.9371  127.4451   62.3629 H   0  0  0  0  0  0  0  0  0  0  0  0
  131.6545  127.6403   61.7604 H   0  0  0  0  0  0  0  0  0  0  0  0
  129.3544  129.3729   60.7831 H   0  0  0  0  0  0  0  0  0  0  0  0
  130.3959  129.7864   62.2146 H   0  0  0  0  0  0  0  0  0  0  0  0
  131.7840  129.1950   59.7110 H   0  0  0  0  0  0  0  0  0  0  0  0
  133.1674  132.5409   59.5984 H   0  0  0  0  0  0  0  0  0  0  0  0
  133.7893  130.8290   59.7495 H   0  0  0  0  0  0  0  0  0  0  0  0
  133.1813  131.9741   57.3795 H   0  0  0  0  0  0  0  0  0  0  0  0
  132.9860  130.1812   57.7702 H   0  0  0  0  0  0  0  0  0  0  0  0
  128.4235  132.6007   56.5643 H   0  0  0  0  0  0  0  0  0  0  0  0
  128.2628  130.0125   56.9442 H   0  0  0  0  0  0  0  0  0  0  0  0
  131.0157  126.8430   57.8096 H   0  0  0  0  0  0  0  0  0  0  0  0
  132.9123  125.5248   56.8578 H   0  0  0  0  0  0  0  0  0  0  0  0
  134.3204  124.1220   58.3570 H   0  0  0  0  0  0  0  0  0  0  0  0
  133.8514  124.0188   60.8001 H   0  0  0  0  0  0  0  0  0  0  0  0
  131.9439  125.3153   61.7560 H   0  0  0  0  0  0  0  0  0  0  0  0
  132.5947  123.2880   63.4322 H   0  0  0  0  0  0  0  0  0  0  0  0
  134.6448  122.1970   62.5182 H   0  0  0  0  0  0  0  0  0  0  0  0
  134.4487  120.5393   60.6705 H   0  0  0  0  0  0  0  0  0  0  0  0
  132.2206  119.9696   59.7153 H   0  0  0  0  0  0  0  0  0  0  0  0
  130.1641  121.0601   60.6233 H   0  0  0  0  0  0  0  0  0  0  0  0
  1  2  2  0
  2  3  1  0
  3  4  1  0
  4  5  1  0
  5  6  1  0
  6  7  2  0
  6  8  1  0
  8  9  2  0
  9 10  1  0
 10 11  2  0
  2 12  1  0
 12 13  1  0
 13 14  1  0
 14 15  1  0
 15 16  1  0
 16 17  2  0
 16 18  1  0
 18 19  1  0
 19 20  1  0
 20 21  2  0
 20 22  1  0
 22 23  1  0
 23 24  1  0
 24 25  1  0
 25 26  1  0
 26 27  2  0
 26 28  1  0
 28 29  1  0
 29 30  1  0
 30 31  1  0
 31 32  2  0
 31 33  1  0
 33 34  2  0
 34 35  1  0
 35 36  2  0
 22 37  1  0
 37 38  2  0
 38 39  1  0
 39 40  2  0
 40 41  1  0
 41 42  2  0
 15 43  1  0
 43 44  2  0
 44 45  1  0
 45 46  2  0
 46 47  1  0
 47 48  2  0
 10  5  1  0
 35 30  1  0
 42 37  1  0
 48 43  1  0
  3 49  1  0
  3 50  1  0
  4 51  1  0
  4 52  1  0
  8 53  1  0
  9 54  1  0
 12 55  1  0
 13 56  1  0
 13 57  1  0
 14 58  1  0
 14 59  1  0
 23 60  1  0
 23 61  1  0
 24 62  1  0
 24 63  1  0
 25 64  1  0
 28 65  1  0
 28 66  1  0
 29 67  1  0
 29 68  1  0
 33 69  1  0
 34 70  1  0
 38 71  1  0
 39 72  1  0
 40 73  1  0
 41 74  1  0
 42 75  1  0
 44 76  1  0
 45 77  1  0
 46 78  1  0
 47 79  1  0
 48 80  1  0
M  END
>  <Binding energies>  (1) 
[-9.83]

>  <Ligand effiencies>  (1) 
[-0.1966]

>  <Interactions>  (1) 
["V-A:ILE:369:CG2:3237, V-A:ASP:366:CA:3210, V-A:GLY:454:CA:4049, V-B:HIS:456:CD2:9039, H-A:GLU:543:OE2:4910, V-A:GLU:543:C:4902, H-A:ALA:541:N:4891, V-B:GLU:543:CB:9878, H-A:TYR:531:OH:4795, V-B:TYR:539:CE2:9848, V-A:GLY:544:C:4912, V-B:GLU:543:CG:9879, V-A:ASP:366:CG:3213, H-A:ARG:545:N:4920, V-A:LEU:363:CD1:3189, V-B:TYR:539:CZ:9849, H-B:ALA:541:N:9863, V-A:GLU:543:CD:4908, V-B:HIS:456:CE1:9041, V-A:HIS:456:CE1:4070, V-A:ASP:366:C:3208, V-B:TYR:539:CD2:9846, V-A:SER:385:CB:3409, V-B:GLU:543:CD:9880, V-A:MET:535:CE:4835, V-A:ASP:366:CB:3212, V-A:LEU:475:CD2:4259, H-A:GLU:543:OE1:4909, V-A:GLU:543:CB:4906, H-A:TYR:539:N:4870, V-A:PRO:540:CB:4885, V-A:PRO:540:CA:4883, V-A:LEU:363:CA:3185, V-A:SER:385:CA:3407, H-A:ASP:366:OD2:3215, H-A:TYR:484:OH:4348"]

$$$$
ZINC504610635
     RDKit          3D

 83 88  0  0  0  0  0  0  0  0999 V2000
  132.2340  126.5950   74.0440 C   0  0  0  0  0  0  0  0  0  0  0  0
  130.7300  126.4710   73.7550 C   0  0  0  0  0  0  0  0  0  0  0  0
  130.0720  127.7530   73.1770 C   0  0  2  0  0  0  0  0  0  0  0  0
  129.1460  128.4700   74.1870 C   0  0  0  0  0  0  0  0  0  0  0  0
  129.3950  127.5070   71.8860 N   0  0  0  0  0  0  0  0  0  0  0  0
  128.2500  126.8310   71.8280 N   0  0  0  0  0  0  0  0  0  0  0  0
  127.9520  126.8440   70.6110 C   0  0  0  0  0  0  0  0  0  0  0  0
  128.8660  127.4770   69.8470 N   0  0  0  0  0  0  0  0  0  0  0  0
  128.8110  127.6830   68.4440 C   0  0  0  0  0  0  0  0  0  0  0  0
  129.1680  126.6540   67.5600 C   0  0  0  0  0  0  0  0  0  0  0  0
  129.1050  126.8540   66.1830 C   0  0  0  0  0  0  0  0  0  0  0  0
  128.6860  128.0800   65.6640 C   0  0  0  0  0  0  0  0  0  0  0  0
  128.6430  128.2110   64.2650 N   0  0  0  0  0  0  0  0  0  0  0  0
  127.6990  129.1190   63.6190 C   0  0  0  0  0  0  0  0  0  0  0  0
  126.7990  128.4410   62.5720 C   0  0  0  0  0  0  0  0  0  0  0  0
  127.3160  127.1600   62.0970 N   0  0  0  0  0  0  0  0  0  0  0  0
  128.2080  127.0860   61.0140 C   0  0  0  0  0  0  0  0  0  0  0  0
  127.9180  126.3970   59.8300 C   0  0  0  0  0  0  0  0  0  0  0  0
  128.8550  126.3490   58.8010 C   0  0  0  0  0  0  0  0  0  0  0  0
  130.0910  126.9820   58.9330 C   0  0  0  0  0  0  0  0  0  0  0  0
  130.9660  126.8650   57.8690 O   0  0  0  0  0  0  0  0  0  0  0  0
  131.9130  125.7970   57.8630 C   0  0  0  0  0  0  0  0  0  0  0  0
  132.3310  125.4080   59.2940 C   0  0  2  0  0  0  0  0  0  0  0  0
  133.5410  124.4720   59.3930 C   0  0  0  0  0  0  0  0  0  0  0  0
  133.0270  123.3290   60.0480 O   0  0  0  0  0  0  0  0  0  0  0  0
  131.8080  123.6320   60.6530 C   0  0  1  0  0  0  0  0  0  0  0  0
  130.9150  122.3840   60.5490 C   0  0  0  0  0  0  0  0  0  0  0  0
  129.5230  122.6460   60.8970 N   0  0  0  0  0  0  0  0  0  0  0  0
  128.8860  122.4850   62.0970 C   0  0  0  0  0  0  0  0  0  0  0  0
  127.6340  122.8470   61.9920 N   0  0  0  0  0  0  0  0  0  0  0  0
  127.5660  123.2270   60.7250 C   0  0  0  0  0  0  0  0  0  0  0  0
  128.6640  123.1480   60.0050 N   0  0  0  0  0  0  0  0  0  0  0  0
  132.0310  124.0970   62.1290 C   0  0  0  0  0  0  0  0  0  0  0  0
  131.2770  125.1610   62.6520 C   0  0  0  0  0  0  0  0  0  0  0  0
  131.4520  125.5900   63.9670 C   0  0  0  0  0  0  0  0  0  0  0  0
  132.3840  124.9590   64.7870 C   0  0  0  0  0  0  0  0  0  0  0  0
  132.6020  125.4870   66.4150 Cl  0  0  0  0  0  0  0  0  0  0  0  0
  133.1390  123.9000   64.2880 C   0  0  0  0  0  0  0  0  0  0  0  0
  132.9690  123.4640   62.9720 C   0  0  0  0  0  0  0  0  0  0  0  0
  133.9370  122.1300   62.4430 Cl  0  0  0  0  0  0  0  0  0  0  0  0
  131.2840  124.6770   59.8980 O   0  0  0  0  0  0  0  0  0  0  0  0
  130.3740  127.6830   60.1160 C   0  0  0  0  0  0  0  0  0  0  0  0
  129.4380  127.7320   61.1450 C   0  0  0  0  0  0  0  0  0  0  0  0
  128.3230  129.1090   66.5420 C   0  0  0  0  0  0  0  0  0  0  0  0
  128.3830  128.9110   67.9190 C   0  0  0  0  0  0  0  0  0  0  0  0
  129.8980  127.7970   70.6640 C   0  0  0  0  0  0  0  0  0  0  0  0
  130.9980  128.2770   70.3780 O   0  0  0  0  0  0  0  0  0  0  0  0
  132.3985  126.6086   75.1315 H   0  0  0  0  0  0  0  0  0  0  0  0
  132.7639  125.7375   73.6037 H   0  0  0  0  0  0  0  0  0  0  0  0
  132.6163  127.5277   73.6037 H   0  0  0  0  0  0  0  0  0  0  0  0
  130.5865  125.6559   73.0305 H   0  0  0  0  0  0  0  0  0  0  0  0
  130.2426  126.2811   74.7227 H   0  0  0  0  0  0  0  0  0  0  0  0
  130.9023  128.4463   72.9775 H   0  0  0  0  0  0  0  0  0  0  0  0
  129.4620  128.2253   75.2118 H   0  0  0  0  0  0  0  0  0  0  0  0
  129.2085  129.5575   74.0338 H   0  0  0  0  0  0  0  0  0  0  0  0
  128.1088  128.1372   74.0338 H   0  0  0  0  0  0  0  0  0  0  0  0
  127.0375  126.3856   70.2065 H   0  0  0  0  0  0  0  0  0  0  0  0
  129.4998  125.6831   67.9567 H   0  0  0  0  0  0  0  0  0  0  0  0
  129.3876  126.0397   65.4996 H   0  0  0  0  0  0  0  0  0  0  0  0
  129.5080  128.0390   63.7730 H   0  0  0  0  0  0  0  0  0  0  0  0
  127.0560  129.5597   64.3951 H   0  0  0  0  0  0  0  0  0  0  0  0
  128.2958  129.8739   63.0861 H   0  0  0  0  0  0  0  0  0  0  0  0
  125.8096  128.2713   63.0217 H   0  0  0  0  0  0  0  0  0  0  0  0
  126.7540  129.1129   61.7022 H   0  0  0  0  0  0  0  0  0  0  0  0
  126.7480  126.3450   62.2780 H   0  0  0  0  0  0  0  0  0  0  0  0
  126.9476  125.8924   59.7124 H   0  0  0  0  0  0  0  0  0  0  0  0
  128.6180  125.8061   57.8741 H   0  0  0  0  0  0  0  0  0  0  0  0
  131.4626  124.9221   57.3714 H   0  0  0  0  0  0  0  0  0  0  0  0
  132.8089  126.1319   57.3197 H   0  0  0  0  0  0  0  0  0  0  0  0
  132.5756  126.3677   59.7726 H   0  0  0  0  0  0  0  0  0  0  0  0
  133.9203  124.2140   58.3932 H   0  0  0  0  0  0  0  0  0  0  0  0
  134.3884  124.9254   59.9282 H   0  0  0  0  0  0  0  0  0  0  0  0
  130.9531  122.0114   59.5147 H   0  0  0  0  0  0  0  0  0  0  0  0
  131.2992  121.6449   61.2674 H   0  0  0  0  0  0  0  0  0  0  0  0
  129.3580  122.1064   63.0156 H   0  0  0  0  0  0  0  0  0  0  0  0
  126.6250  123.5954   60.2904 H   0  0  0  0  0  0  0  0  0  0  0  0
  130.5361  125.6640   62.0132 H   0  0  0  0  0  0  0  0  0  0  0  0
  130.8539  126.4269   64.3567 H   0  0  0  0  0  0  0  0  0  0  0  0
  133.8756  123.4027   64.9361 H   0  0  0  0  0  0  0  0  0  0  0  0
  131.3403  128.1961   60.2303 H   0  0  0  0  0  0  0  0  0  0  0  0
  129.6695  128.2838   62.0680 H   0  0  0  0  0  0  0  0  0  0  0  0
  127.9891  130.0778   66.1421 H   0  0  0  0  0  0  0  0  0  0  0  0
  128.0924  129.7242   68.6004 H   0  0  0  0  0  0  0  0  0  0  0  0
  1  2  1  0
  2  3  1  0
  3  4  1  0
  3  5  1  0
  5  6  1  0
  6  7  2  0
  7  8  1  0
  8  9  1  0
  9 10  2  0
 10 11  1  0
 11 12  2  0
 12 13  1  0
 13 14  1  0
 14 15  1  0
 15 16  1  0
 16 17  1  0
 17 18  2  0
 18 19  1  0
 19 20  2  0
 20 21  1  0
 21 22  1  0
 22 23  1  0
 23 24  1  0
 24 25  1  0
 25 26  1  0
 26 27  1  1
 27 28  1  0
 28 29  1  0
 29 30  2  0
 30 31  1  0
 31 32  2  0
 26 33  1  0
 33 34  2  0
 34 35  1  0
 35 36  2  0
 36 37  1  0
 36 38  1  0
 38 39  2  0
 39 40  1  0
 26 41  1  0
 20 42  1  0
 42 43  2  0
 12 44  1  0
 44 45  2  0
  8 46  1  0
 46 47  2  0
 46  5  1  0
 45  9  1  0
 43 17  1  0
 41 23  1  0
 32 28  1  0
 39 33  1  0
  1 48  1  0
  1 49  1  0
  1 50  1  0
  2 51  1  0
  2 52  1  0
  3 53  1  6
  4 54  1  0
  4 55  1  0
  4 56  1  0
  7 57  1  0
 10 58  1  0
 11 59  1  0
 13 60  1  0
 14 61  1  0
 14 62  1  0
 15 63  1  0
 15 64  1  0
 16 65  1  0
 18 66  1  0
 19 67  1  0
 22 68  1  0
 22 69  1  0
 23 70  1  1
 24 71  1  0
 24 72  1  0
 27 73  1  0
 27 74  1  0
 29 75  1  0
 31 76  1  0
 34 77  1  0
 35 78  1  0
 38 79  1  0
 42 80  1  0
 43 81  1  0
 44 82  1  0
 45 83  1  0
M  END
>  <Binding energies>  (1) 
[-8.21]

>  <Ligand effiencies>  (1) 
[-0.16755102040816328]

>  <Interactions>  (1) 
["V-A:ILE:369:CG2:3237, V-A:ASP:366:CA:3210, V-B:PRO:540:CA:9855, V-A:GLY:454:CA:4049, V-B:GLU:543:C:9874, H-A:GLU:543:OE2:4910, V-B:GLU:543:CB:9878, V-B:ALA:541:CB:9864, H-A:TYR:531:OH:4795, V-B:TYR:539:CE2:9848, V-B:GLU:543:CG:9879, V-A:HIS:456:CD2:4068, H-A:ARG:545:N:4920, V-A:ASP:366:CG:3213, V-B:TYR:539:CZ:9849, H-B:GLU:543:OE1:9881, V-A:HIS:456:CB:4065, H-B:ALA:541:N:9863, V-A:GLU:543:CD:4908, V-A:TYR:484:CZ:4347, H-B:ASP:366:OD1:8185, V-B:HIS:456:CE1:9041, V-A:ARG:545:CG:4922, V-A:HIS:456:CE1:4070, V-A:ILE:369:CD1:3239, V-B:GLY:544:C:9884, V-B:TYR:539:CD2:9846, V-A:GLU:543:CG:4907, V-B:GLU:543:CD:9880, V-A:ASP:366:CB:3212, V-A:ARG:545:CD:4923, V-A:LEU:475:CD2:4259, V-A:ARG:545:CZ:4926, H-A:GLU:543:OE1:4909, V-A:GLU:543:CB:4906, V-A:HIS:456:CG:4066, H-B:GLU:543:OE2:9882"]

$$$$
ZINC504797783
     RDKit          3D

 74 75  0  0  0  0  0  0  0  0999 V2000
  127.7680  129.1290   66.0950 C   0  0  0  0  0  0  0  0  0  0  0  0
  128.6270  129.1530   67.3660 C   0  0  0  0  0  0  0  0  0  0  0  0
  129.2340  127.4550   67.9720 Si  0  0  0  0  0  4  0  0  0  0  0  0
  130.9290  127.6250   68.8050 C   0  0  0  0  0  0  0  0  0  0  0  0
  130.9030  128.0790   70.2720 C   0  0  0  0  0  0  0  0  0  0  0  0
  128.0210  126.5940   69.1510 C   0  0  0  0  0  0  0  0  0  0  0  0
  127.9570  127.1960   70.5600 C   0  0  0  0  0  0  0  0  0  0  0  0
  129.5220  126.4700   66.6280 O   0  0  0  0  0  0  0  0  0  0  0  0
  130.2400  125.2430   66.4700 C   0  0  0  0  0  0  0  0  0  0  0  0
  131.7680  125.4920   66.5310 C   0  0  0  0  0  0  0  0  0  0  0  0
  129.8190  124.3990   67.6940 C   0  0  0  0  0  0  0  0  0  0  0  0
  129.8150  124.5710   65.1190 C   0  0  2  0  0  0  0  0  0  0  0  0
  130.6210  123.2870   64.7960 C   0  0  0  0  0  0  0  0  0  0  0  0
  129.7300  125.5590   63.9520 C   0  0  0  0  0  0  0  0  0  0  0  0
  129.5090  125.2680   62.6560 C   0  0  0  0  0  0  0  0  0  0  0  0
  129.4480  126.2960   61.5330 C   0  0  2  0  0  0  0  0  0  0  0  0
  128.2250  126.0170   60.6390 C   0  0  0  0  0  0  0  0  0  0  0  0
  130.8000  126.3590   60.7520 C   0  0  2  0  0  0  0  0  0  0  0  0
  130.6300  126.8850   59.2960 C   0  0  0  0  0  0  0  0  0  0  0  0
  131.6860  126.1870   58.4240 C   0  0  0  0  0  0  0  0  0  0  0  0
  132.5850  125.4980   59.4490 C   0  0  2  0  0  0  0  0  0  0  0  0
  133.5260  124.3660   58.9920 C   0  0  0  0  0  0  0  0  0  0  0  0
  133.6120  123.9700   57.8300 O   0  0  0  0  0  0  0  0  0  0  0  0
  134.3540  123.7760   60.1490 C   0  0  0  0  0  0  0  0  0  0  0  0
  133.5210  123.5260   61.4360 C   0  0  0  0  0  0  0  0  0  0  0  0
  132.5560  124.6870   61.7900 C   0  0  0  0  0  0  0  0  0  0  0  0
  131.6330  125.0450   60.5880 C   0  0  1  0  0  0  0  0  0  0  0  0
  130.7130  123.8430   60.2000 C   0  0  0  0  0  0  0  0  0  0  0  0
  126.7039  129.0993   66.3721 H   0  0  0  0  0  0  0  0  0  0  0  0
  127.9670  130.0331   65.5008 H   0  0  0  0  0  0  0  0  0  0  0  0
  128.0172  128.2375   65.5008 H   0  0  0  0  0  0  0  0  0  0  0  0
  129.5101  129.7780   67.1672 H   0  0  0  0  0  0  0  0  0  0  0  0
  127.9784  129.5454   68.1631 H   0  0  0  0  0  0  0  0  0  0  0  0
  131.4272  126.6452   68.7624 H   0  0  0  0  0  0  0  0  0  0  0  0
  131.4581  128.4163   68.2537 H   0  0  0  0  0  0  0  0  0  0  0  0
  130.9534  127.1984   70.9293 H   0  0  0  0  0  0  0  0  0  0  0  0
  131.7652  128.7332   70.4687 H   0  0  0  0  0  0  0  0  0  0  0  0
  129.9718  128.6305   70.4687 H   0  0  0  0  0  0  0  0  0  0  0  0
  127.0154  126.6506   68.7087 H   0  0  0  0  0  0  0  0  0  0  0  0
  128.3849  125.5629   69.2710 H   0  0  0  0  0  0  0  0  0  0  0  0
  128.0424  126.3924   71.3063 H   0  0  0  0  0  0  0  0  0  0  0  0
  128.7844  127.9086   70.6922 H   0  0  0  0  0  0  0  0  0  0  0  0
  126.9982  127.7187   70.6922 H   0  0  0  0  0  0  0  0  0  0  0  0
  132.0893  125.5444   67.5817 H   0  0  0  0  0  0  0  0  0  0  0  0
  132.2942  124.6678   66.0273 H   0  0  0  0  0  0  0  0  0  0  0  0
  132.0053  126.4407   66.0273 H   0  0  0  0  0  0  0  0  0  0  0  0
  130.0858  124.9338   68.6175 H   0  0  0  0  0  0  0  0  0  0  0  0
  128.7321  124.2321   67.6679 H   0  0  0  0  0  0  0  0  0  0  0  0
  130.3395  123.4303   67.6679 H   0  0  0  0  0  0  0  0  0  0  0  0
  128.7816  124.2262   65.2716 H   0  0  0  0  0  0  0  0  0  0  0  0
  130.9266  122.8002   65.7339 H   0  0  0  0  0  0  0  0  0  0  0  0
  129.9935  122.5973   64.2124 H   0  0  0  0  0  0  0  0  0  0  0  0
  131.5149  123.5523   64.2124 H   0  0  0  0  0  0  0  0  0  0  0  0
  129.8641  126.6224   64.1995 H   0  0  0  0  0  0  0  0  0  0  0  0
  129.3618  124.2112   62.3885 H   0  0  0  0  0  0  0  0  0  0  0  0
  129.3107  127.3020   61.9563 H   0  0  0  0  0  0  0  0  0  0  0  0
  127.3471  125.8167   61.2708 H   0  0  0  0  0  0  0  0  0  0  0  0
  128.0275  126.8932   60.0039 H   0  0  0  0  0  0  0  0  0  0  0  0
  128.4271  125.1419   60.0039 H   0  0  0  0  0  0  0  0  0  0  0  0
  131.3500  127.0342   61.4240 H   0  0  0  0  0  0  0  0  0  0  0  0
  129.6216  126.6472   58.9265 H   0  0  0  0  0  0  0  0  0  0  0  0
  130.7606  127.9767   59.2617 H   0  0  0  0  0  0  0  0  0  0  0  0
  131.2192  125.4522   57.7516 H   0  0  0  0  0  0  0  0  0  0  0  0
  132.2322  126.8817   57.7690 H   0  0  0  0  0  0  0  0  0  0  0  0
  133.3437  126.2360   59.7487 H   0  0  0  0  0  0  0  0  0  0  0  0
  134.7822  122.8181   59.8188 H   0  0  0  0  0  0  0  0  0  0  0  0
  135.1311  124.5124   60.4019 H   0  0  0  0  0  0  0  0  0  0  0  0
  132.9263  122.6118   61.2925 H   0  0  0  0  0  0  0  0  0  0  0  0
  134.2347  123.4365   62.2682 H   0  0  0  0  0  0  0  0  0  0  0  0
  131.9312  124.3854   62.6436 H   0  0  0  0  0  0  0  0  0  0  0  0
  133.1577  125.5732   62.0405 H   0  0  0  0  0  0  0  0  0  0  0  0
  130.3406  123.3565   61.1136 H   0  0  0  0  0  0  0  0  0  0  0  0
  129.8622  124.2091   59.6066 H   0  0  0  0  0  0  0  0  0  0  0  0
  131.2886  123.1173   59.6066 H   0  0  0  0  0  0  0  0  0  0  0  0
  1  2  1  0
  2  3  1  0
  3  4  1  0
  4  5  1  0
  3  6  1  0
  6  7  1  0
  3  8  1  0
  8  9  1  0
  9 10  1  0
  9 11  1  0
  9 12  1  0
 12 13  1  0
 12 14  1  0
 14 15  2  0
 15 16  1  0
 16 17  1  0
 16 18  1  0
 18 19  1  0
 19 20  1  0
 20 21  1  0
 21 22  1  0
 22 23  2  0
 22 24  1  0
 24 25  1  0
 25 26  1  0
 26 27  1  0
 27 28  1  6
 27 18  1  0
 27 21  1  0
  1 29  1  0
  1 30  1  0
  1 31  1  0
  2 32  1  0
  2 33  1  0
  4 34  1  0
  4 35  1  0
  5 36  1  0
  5 37  1  0
  5 38  1  0
  6 39  1  0
  6 40  1  0
  7 41  1  0
  7 42  1  0
  7 43  1  0
 10 44  1  0
 10 45  1  0
 10 46  1  0
 11 47  1  0
 11 48  1  0
 11 49  1  0
 12 50  1  1
 13 51  1  0
 13 52  1  0
 13 53  1  0
 14 54  1  0
 15 55  1  0
 16 56  1  1
 17 57  1  0
 17 58  1  0
 17 59  1  0
 18 60  1  1
 19 61  1  0
 19 62  1  0
 20 63  1  0
 20 64  1  0
 21 65  1  1
 24 66  1  0
 24 67  1  0
 25 68  1  0
 25 69  1  0
 26 70  1  0
 26 71  1  0
 28 72  1  0
 28 73  1  0
 28 74  1  0
M  END
>  <Binding energies>  (1) 
[-7.41]

>  <Ligand effiencies>  (1) 
[-0.2646428571428571]

>  <Interactions>  (1) 
["V-A:ILE:369:CG2:3237, V-A:ASP:366:CA:3210, V-A:GLU:543:CA:4904, V-B:GLU:543:C:9874, V-B:HIS:456:CD2:9039, V-A:GLU:543:C:4902, V-A:ILE:369:CB:3236, V-B:GLU:543:CB:9878, V-B:TYR:539:CE2:9848, V-A:TYR:484:CE2:4346, V-B:GLU:543:CG:9879, V-A:GLY:544:C:4912, V-A:ASP:366:CG:3213, H-B:TYR:539:OH:9850, V-A:TYR:484:CZ:4347, V-A:GLU:543:CD:4908, V-A:ARG:545:CG:4922, V-B:HIS:456:CE1:9041, V-B:GLU:543:CA:9876, V-A:TYR:484:CD2:4344, V-A:HIS:456:CE1:4070, V-A:ILE:369:CD1:3239, V-A:GLU:543:CG:4907, V-B:GLU:543:CD:9880, V-A:ILE:369:CG1:3238, V-A:ASP:366:CB:3212, V-A:GLU:543:CB:4906"]

$$$$
ZINC5066388-again1
     RDKit          3D

 43 46  0  0  0  0  0  0  0  0999 V2000
  129.3810  125.7720   63.9000 N   0  0  0  0  0  0  0  0  0  0  0  0
  129.3010  124.8860   63.1590 C   0  0  0  0  0  0  0  0  0  0  0  0
  129.1950  123.7570   62.2150 C   0  0  0  0  0  0  0  0  0  0  0  0
  127.7890  123.3050   62.3150 C   0  0  0  0  0  0  0  0  0  0  0  0
  126.6890  122.9520   62.4010 N   0  0  0  0  0  0  0  0  0  0  0  0
  129.5820  124.2620   60.7690 C   0  0  2  0  0  0  0  0  0  0  0  0
  128.5740  123.9750   59.6410 C   0  0  0  0  0  0  0  0  0  0  0  0
  128.4530  122.7040   59.0620 C   0  0  0  0  0  0  0  0  0  0  0  0
  127.5420  122.4770   58.0300 C   0  0  0  0  0  0  0  0  0  0  0  0
  126.7490  123.5210   57.5560 C   0  0  0  0  0  0  0  0  0  0  0  0
  126.8710  124.7930   58.1110 C   0  0  0  0  0  0  0  0  0  0  0  0
  126.1080  125.8090   57.6490 F   0  0  0  0  0  0  0  0  0  0  0  0
  127.7830  125.0190   59.1420 C   0  0  0  0  0  0  0  0  0  0  0  0
  130.9340  123.9540   60.3620 O   0  0  0  0  0  0  0  0  0  0  0  0
  131.5320  122.7810   60.8800 C   0  0  1  0  0  0  0  0  0  0  0  0
  132.8740  122.5490   60.1860 C   0  0  0  0  0  0  0  0  0  0  0  0
  133.6990  123.8080   59.8460 C   0  0  0  0  0  0  0  0  0  0  0  0
  133.9860  124.7140   61.0590 C   0  0  0  0  0  0  0  0  0  0  0  0
  132.7660  125.1480   61.9010 C   0  0  0  0  0  0  0  0  0  0  0  0
  132.2270  124.1600   62.9570 C   0  0  0  0  0  0  0  0  0  0  0  0
  131.5970  122.8510   62.4120 C   0  0  1  0  0  0  0  0  0  0  0  0
  130.1120  122.5830   62.6740 C   0  0  1  0  0  0  0  0  0  0  0  0
  129.8770  122.1670   64.0720 C   0  0  0  0  0  0  0  0  0  0  0  0
  129.6930  121.8430   65.1680 N   0  0  0  0  0  0  0  0  0  0  0  0
  129.9850  121.4280   61.7050 C   0  0  0  0  0  0  0  0  0  0  0  0
  129.2300  120.2720   61.6860 N   0  0  0  0  0  0  0  0  0  0  0  0
  130.7530  121.6420   60.6170 O   0  0  0  0  0  0  0  0  0  0  0  0
  129.5276  125.3504   60.9187 H   0  0  0  0  0  0  0  0  0  0  0  0
  129.0823  121.8779   59.4248 H   0  0  0  0  0  0  0  0  0  0  0  0
  127.4493  121.4732   57.5899 H   0  0  0  0  0  0  0  0  0  0  0  0
  126.0280  123.3407   56.7450 H   0  0  0  0  0  0  0  0  0  0  0  0
  127.8826  126.0281   59.5683 H   0  0  0  0  0  0  0  0  0  0  0  0
  133.4863  121.9159   60.8451 H   0  0  0  0  0  0  0  0  0  0  0  0
  132.6258  122.0925   59.2165 H   0  0  0  0  0  0  0  0  0  0  0  0
  134.6604  123.4869   59.4186 H   0  0  0  0  0  0  0  0  0  0  0  0
  133.0993  124.4011   59.1398 H   0  0  0  0  0  0  0  0  0  0  0  0
  134.6753  124.1731   61.7241 H   0  0  0  0  0  0  0  0  0  0  0  0
  134.3931  125.6445   60.6366 H   0  0  0  0  0  0  0  0  0  0  0  0
  133.0449  126.0717   62.4293 H   0  0  0  0  0  0  0  0  0  0  0  0
  131.9484  125.2440   61.1714 H   0  0  0  0  0  0  0  0  0  0  0  0
  133.0641  123.8814   63.6140 H   0  0  0  0  0  0  0  0  0  0  0  0
  131.4089  124.6907   63.4661 H   0  0  0  0  0  0  0  0  0  0  0  0
  132.2697  122.1593   62.9402 H   0  0  0  0  0  0  0  0  0  0  0  0
  1  2  3  0
  2  3  1  0
  3  4  1  0
  4  5  3  0
  3  6  1  0
  6  7  1  0
  7  8  2  0
  8  9  1  0
  9 10  2  0
 10 11  1  0
 11 12  1  0
 11 13  2  0
  6 14  1  0
 15 14  1  6
 15 16  1  0
 16 17  1  0
 17 18  1  0
 18 19  1  0
 19 20  1  0
 20 21  1  0
 21 22  1  0
 22 23  1  1
 23 24  3  0
 22 25  1  0
 25 26  2  0
 25 27  1  0
 22  3  1  0
 13  7  1  0
 21 15  1  0
 27 15  1  0
  6 28  1  1
  8 29  1  0
  9 30  1  0
 10 31  1  0
 13 32  1  0
 16 33  1  0
 16 34  1  0
 17 35  1  0
 17 36  1  0
 18 37  1  0
 18 38  1  0
 19 39  1  0
 19 40  1  0
 20 41  1  0
 20 42  1  0
 21 43  1  1
M  CHG  1  26  -1
M  END
>  <Binding energies>  (1) 
[-4.85]

>  <Ligand effiencies>  (1) 
[-0.16724137931034483]

>  <Interactions>  (1) 
["V-A:ILE:369:CG2:3237, V-A:ASP:366:CA:3210, V-B:PRO:540:CA:9855, V-A:ILE:369:CB:3236, V-B:ALA:541:CB:9864, V-B:TYR:539:CE2:9848, V-B:GLU:543:CG:9879, V-B:TYR:539:C:9839, V-A:ASP:366:CG:3213, V-B:TYR:539:CZ:9849, V-B:TYR:531:CZ:9766, H-B:ALA:541:N:9863, V-B:TYR:531:CE2:9765, V-B:PRO:540:CB:9857, V-B:PRO:540:N:9856, V-A:ILE:369:CD1:3239, V-B:TYR:539:CD2:9846, V-B:GLU:543:CD:9880, V-A:ASP:366:CB:3212, V-A:LEU:475:CD2:4259, V-B:TYR:539:CG:9844, H-A:TYR:484:OH:4348"]

$$$$
ZINC5073784
     RDKit          3D

 42 44  0  0  0  0  0  0  0  0999 V2000
  130.8900  126.9300   73.6110 C   0  0  0  0  0  0  0  0  0  0  0  0
  129.7560  127.9460   73.3780 C   0  0  0  0  0  0  0  0  0  0  0  0
  128.6120  127.4160   72.6240 N   0  0  0  0  0  0  0  0  0  0  0  0
  127.2890  127.6680   73.2100 C   0  0  0  0  0  0  0  0  0  0  0  0
  127.3200  128.5720   74.4550 C   0  0  0  0  0  0  0  0  0  0  0  0
  128.6460  127.3850   71.2050 C   0  0  0  0  0  0  0  0  0  0  0  0
  129.8210  127.7590   70.5370 C   0  0  0  0  0  0  0  0  0  0  0  0
  129.8890  127.7410   69.1470 C   0  0  0  0  0  0  0  0  0  0  0  0
  128.7730  127.3490   68.4050 C   0  0  0  0  0  0  0  0  0  0  0  0
  128.8420  127.3220   66.9910 N   0  0  0  0  0  0  0  0  0  0  0  0
  128.3150  128.3480   66.2640 C   0  0  0  0  0  0  0  0  0  0  0  0
  127.7900  129.3420   66.7730 O   0  0  0  0  0  0  0  0  0  0  0  0
  128.4790  128.0960   64.8440 C   0  0  0  0  0  0  0  0  0  0  0  0
  128.0560  128.8840   63.8250 C   0  0  0  0  0  0  0  0  0  0  0  0
  127.3150  130.1380   63.7390 C   0  0  0  0  0  0  0  0  0  0  0  0
  125.9760  130.3880   63.4540 C   0  0  0  0  0  0  0  0  0  0  0  0
  125.7680  131.7640   63.5360 C   0  0  0  0  0  0  0  0  0  0  0  0
  126.9880  132.3100   63.8840 C   0  0  0  0  0  0  0  0  0  0  0  0
  127.9140  131.3270   64.0180 O   0  0  0  0  0  0  0  0  0  0  0  0
  129.3510  126.5860   64.6110 S   0  0  0  0  0  0  0  0  0  0  0  0
  129.4380  126.2870   66.3190 C   0  0  0  0  0  0  0  0  0  0  0  0
  130.1760  124.8940   66.8740 S   0  0  0  0  0  0  0  0  0  0  0  0
  127.5960  126.9660   69.0530 C   0  0  0  0  0  0  0  0  0  0  0  0
  127.5350  126.9870   70.4430 C   0  0  0  0  0  0  0  0  0  0  0  0
  131.0431  126.7928   74.6916 H   0  0  0  0  0  0  0  0  0  0  0  0
  130.6190  125.9669   73.1539 H   0  0  0  0  0  0  0  0  0  0  0  0
  131.8177  127.3047   73.1539 H   0  0  0  0  0  0  0  0  0  0  0  0
  129.3932  128.2876   74.3587 H   0  0  0  0  0  0  0  0  0  0  0  0
  130.1823  128.7588   72.7717 H   0  0  0  0  0  0  0  0  0  0  0  0
  126.6588  128.1497   72.4479 H   0  0  0  0  0  0  0  0  0  0  0  0
  126.8921  126.6941   73.5325 H   0  0  0  0  0  0  0  0  0  0  0  0
  127.2986  127.9489   75.3612 H   0  0  0  0  0  0  0  0  0  0  0  0
  128.2394  129.1759   74.4469 H   0  0  0  0  0  0  0  0  0  0  0  0
  126.4441  129.2374   74.4469 H   0  0  0  0  0  0  0  0  0  0  0  0
  130.7006  128.0707   71.1194 H   0  0  0  0  0  0  0  0  0  0  0  0
  130.8176  128.0342   68.6353 H   0  0  0  0  0  0  0  0  0  0  0  0
  128.3352  128.4874   62.8377 H   0  0  0  0  0  0  0  0  0  0  0  0
  125.2154  129.6326   63.2074 H   0  0  0  0  0  0  0  0  0  0  0  0
  124.8259  132.3039   63.3598 H   0  0  0  0  0  0  0  0  0  0  0  0
  127.1806  133.3830   64.0308 H   0  0  0  0  0  0  0  0  0  0  0  0
  126.7209  126.6491   68.4667 H   0  0  0  0  0  0  0  0  0  0  0  0
  126.6061  126.6885   70.9510 H   0  0  0  0  0  0  0  0  0  0  0  0
  1  2  1  0
  2  3  1  0
  3  4  1  0
  4  5  1  0
  3  6  1  0
  6  7  2  0
  7  8  1  0
  8  9  2  0
  9 10  1  0
 10 11  1  0
 11 12  2  0
 11 13  1  0
 13 14  2  0
 14 15  1  0
 15 16  2  0
 16 17  1  0
 17 18  2  0
 18 19  1  0
 13 20  1  0
 20 21  1  0
 21 22  2  0
  9 23  1  0
 23 24  2  0
 24  6  1  0
 21 10  1  0
 19 15  1  0
  1 25  1  0
  1 26  1  0
  1 27  1  0
  2 28  1  0
  2 29  1  0
  4 30  1  0
  4 31  1  0
  5 32  1  0
  5 33  1  0
  5 34  1  0
  7 35  1  0
  8 36  1  0
 14 37  1  0
 16 38  1  0
 17 39  1  0
 18 40  1  0
 23 41  1  0
 24 42  1  0
M  END
>  <Binding energies>  (1) 
[-6.16]

>  <Ligand effiencies>  (1) 
[-0.25666666666666665]

>  <Interactions>  (1) 
["V-B:GLU:543:C:9874, V-B:HIS:456:CD2:9039, V-B:GLU:543:CB:9878, V-A:TYR:484:CE2:4346, V-B:LEU:475:CD2:9230, V-B:GLU:543:CG:9879, V-A:HIS:456:CD2:4068, V-B:LYS:547:CE:9922, V-A:GLU:543:CD:4908, V-A:TYR:484:CZ:4347, H-B:TYR:484:OH:9319, V-B:HIS:456:CE1:9041, V-A:HIS:456:CE1:4070, V-B:TYR:484:CZ:9318, V-B:GLY:544:C:9884, V-A:GLU:543:CG:4907, V-B:GLU:543:CD:9880, V-B:HIS:456:CG:9037, V-A:GLU:543:CB:4906"]

$$$$
ZINC507951405
     RDKit          3D

 38 41  0  0  0  0  0  0  0  0999 V2000
  130.2660  127.2340   75.8940 O   0  0  0  0  0  0  0  0  0  0  0  0
  130.7530  126.6020   74.6610 S   0  0  0  0  0  0  0  0  0  0  0  0
  130.1450  125.3250   74.2700 O   0  0  0  0  0  0  0  0  0  0  0  0
  130.8930  127.6100   73.4690 N   0  0  0  0  0  0  0  0  0  0  0  0
  130.1330  127.5340   72.3260 C   0  0  0  0  0  0  0  0  0  0  0  0
  128.7730  127.2110   72.4800 C   0  0  0  0  0  0  0  0  0  0  0  0
  127.8850  127.1000   71.4030 C   0  0  0  0  0  0  0  0  0  0  0  0
  128.3870  127.3200   70.1160 C   0  0  0  0  0  0  0  0  0  0  0  0
  127.7820  127.2840   68.8920 N   0  0  0  0  0  0  0  0  0  0  0  0
  128.7590  127.5740   68.0530 C   0  0  0  0  0  0  0  0  0  0  0  0
  128.6900  127.6820   66.5400 C   0  0  0  0  0  0  0  0  0  0  0  0
  129.3750  126.5420   65.7960 C   0  0  0  0  0  0  0  0  0  0  0  0
  129.4800  126.5810   64.4030 C   0  0  0  0  0  0  0  0  0  0  0  0
  130.1020  125.5370   63.7230 C   0  0  0  0  0  0  0  0  0  0  0  0
  130.6170  124.4570   64.4380 C   0  0  0  0  0  0  0  0  0  0  0  0
  130.5140  124.4110   65.8270 C   0  0  0  0  0  0  0  0  0  0  0  0
  129.8920  125.4550   66.5070 C   0  0  0  0  0  0  0  0  0  0  0  0
  129.9780  127.8050   68.6290 O   0  0  0  0  0  0  0  0  0  0  0  0
  129.7400  127.6410   69.9590 C   0  0  0  0  0  0  0  0  0  0  0  0
  130.6330  127.7560   71.0280 C   0  0  0  0  0  0  0  0  0  0  0  0
  132.4680  126.1690   75.0500 C   0  0  0  0  0  0  0  0  0  0  0  0
  132.8550  124.9910   75.7070 C   0  0  0  0  0  0  0  0  0  0  0  0
  134.2290  124.8950   75.8800 C   0  0  0  0  0  0  0  0  0  0  0  0
  135.0670  126.2650   75.2280 S   0  0  0  0  0  0  0  0  0  0  0  0
  133.5610  126.9630   74.7220 C   0  0  0  0  0  0  0  0  0  0  0  0
  128.3881  127.0371   73.4957 H   0  0  0  0  0  0  0  0  0  0  0  0
  126.8264  126.8478   71.5639 H   0  0  0  0  0  0  0  0  0  0  0  0
  127.6307  127.6985   66.2441 H   0  0  0  0  0  0  0  0  0  0  0  0
  129.2259  128.6027   66.2661 H   0  0  0  0  0  0  0  0  0  0  0  0
  129.0716  127.4358   63.8440 H   0  0  0  0  0  0  0  0  0  0  0  0
  130.1865  125.5645   62.6266 H   0  0  0  0  0  0  0  0  0  0  0  0
  131.1095  123.6331   63.9007 H   0  0  0  0  0  0  0  0  0  0  0  0
  130.9220  123.5543   66.3835 H   0  0  0  0  0  0  0  0  0  0  0  0
  129.8075  125.4244   67.6033 H   0  0  0  0  0  0  0  0  0  0  0  0
  131.6900  128.0111   70.8614 H   0  0  0  0  0  0  0  0  0  0  0  0
  132.1443  124.2242   76.0490 H   0  0  0  0  0  0  0  0  0  0  0  0
  134.7279  124.0479   76.3735 H   0  0  0  0  0  0  0  0  0  0  0  0
  133.4801  127.9275   74.1993 H   0  0  0  0  0  0  0  0  0  0  0  0
  1  2  2  0
  2  3  2  0
  2  4  1  0
  4  5  1  0
  5  6  2  0
  6  7  1  0
  7  8  2  0
  8  9  1  0
  9 10  2  0
 10 11  1  0
 11 12  1  0
 12 13  2  0
 13 14  1  0
 14 15  2  0
 15 16  1  0
 16 17  2  0
 10 18  1  0
 18 19  1  0
 19 20  2  0
  2 21  1  0
 21 22  1  0
 22 23  2  0
 23 24  1  0
 24 25  1  0
 20  5  1  0
 25 21  2  0
 19  8  1  0
 17 12  1  0
  6 26  1  0
  7 27  1  0
 11 28  1  0
 11 29  1  0
 13 30  1  0
 14 31  1  0
 15 32  1  0
 16 33  1  0
 17 34  1  0
 20 35  1  0
 22 36  1  0
 23 37  1  0
 25 38  1  0
M  CHG  1   4  -1
M  END
>  <Binding energies>  (1) 
[-7.82]

>  <Ligand effiencies>  (1) 
[-0.3128]

>  <Interactions>  (1) 
["V-B:HIS:456:CD2:9039, V-B:GLU:543:CB:9878, H-B:LYS:547:NZ:9923, V-A:TYR:484:CE2:4346, V-A:VAL:457:CA:4075, V-A:GLY:544:C:4912, V-B:GLU:543:CG:9879, V-A:HIS:456:CD2:4068, V-A:VAL:457:C:4073, V-A:LYS:547:CG:4948, V-A:HIS:456:CB:4065, V-A:GLU:543:CD:4908, V-A:TYR:484:CZ:4347, V-B:HIS:456:CE1:9041, V-A:HIS:456:CE1:4070, V-B:GLY:544:C:9884, V-A:HIS:456:CA:4063, V-A:GLU:543:CG:4907, V-B:GLU:543:CD:9880, H-A:LYS:547:NZ:4951, V-A:HIS:456:C:4061, V-A:HIS:456:CG:4066, V-A:GLU:543:CB:4906, V-A:VAL:458:CG2:4087"]

$$$$
ZINC508591431-again1
     RDKit          3D

 36 38  0  0  0  0  0  0  0  0999 V2000
  129.1100  125.8170   63.9060 C   0  0  0  0  0  0  0  0  0  0  0  0
  129.5210  126.9700   64.6310 O   0  0  0  0  0  0  0  0  0  0  0  0
  129.1580  126.9640   65.9570 C   0  0  0  0  0  0  0  0  0  0  0  0
  128.2760  127.9370   66.4500 C   0  0  0  0  0  0  0  0  0  0  0  0
  127.6300  129.1590   65.4100 Cl  0  0  0  0  0  0  0  0  0  0  0  0
  127.9120  127.9340   67.7970 C   0  0  0  0  0  0  0  0  0  0  0  0
  128.4300  126.9700   68.6600 C   0  0  0  0  0  0  0  0  0  0  0  0
  127.9770  126.9720   70.3260 Cl  0  0  0  0  0  0  0  0  0  0  0  0
  129.3190  126.0110   68.1790 C   0  0  0  0  0  0  0  0  0  0  0  0
  129.6980  126.0070   66.8330 C   0  0  0  0  0  0  0  0  0  0  0  0
  130.6900  124.9550   66.3430 C   0  0  0  0  0  0  0  0  0  0  0  0
  131.9720  125.5400   65.9680 N   0  0  0  0  0  0  0  0  0  0  0  0
  132.7410  125.1920   64.8880 C   0  0  0  0  0  0  0  0  0  0  0  0
  133.9510  124.6890   64.8440 N   0  0  0  0  0  0  0  0  0  0  0  0
  134.2450  124.5190   63.4950 N   0  0  0  0  0  0  0  0  0  0  0  0
  133.1860  124.9260   62.8330 C   0  0  0  0  0  0  0  0  0  0  0  0
  132.9710  124.9540   61.3540 C   0  0  0  0  0  0  0  0  0  0  0  0
  131.9020  125.6770   60.8120 C   0  0  0  0  0  0  0  0  0  0  0  0
  131.7000  125.7050   59.4340 C   0  0  0  0  0  0  0  0  0  0  0  0
  132.5680  125.0100   58.5960 C   0  0  0  0  0  0  0  0  0  0  0  0
  133.6350  124.2870   59.1240 C   0  0  0  0  0  0  0  0  0  0  0  0
  133.8360  124.2590   60.5010 C   0  0  0  0  0  0  0  0  0  0  0  0
  132.1980  125.3620   63.6580 O   0  0  0  0  0  0  0  0  0  0  0  0
  128.8266  125.0220   64.6115 H   0  0  0  0  0  0  0  0  0  0  0  0
  128.2468  126.0703   63.2730 H   0  0  0  0  0  0  0  0  0  0  0  0
  129.9388  125.4672   63.2730 H   0  0  0  0  0  0  0  0  0  0  0  0
  127.2146  128.6942   68.1786 H   0  0  0  0  0  0  0  0  0  0  0  0
  129.7256  125.2516   68.8630 H   0  0  0  0  0  0  0  0  0  0  0  0
  130.8562  124.2229   67.1470 H   0  0  0  0  0  0  0  0  0  0  0  0
  130.2621  124.4774   65.4493 H   0  0  0  0  0  0  0  0  0  0  0  0
  132.1560  126.4110   66.4450 H   0  0  0  0  0  0  0  0  0  0  0  0
  131.2186  126.2254   61.4770 H   0  0  0  0  0  0  0  0  0  0  0  0
  130.8590  126.2733   59.0100 H   0  0  0  0  0  0  0  0  0  0  0  0
  132.4097  125.0321   57.5077 H   0  0  0  0  0  0  0  0  0  0  0  0
  134.3162  123.7403   58.4553 H   0  0  0  0  0  0  0  0  0  0  0  0
  134.6778  123.6885   60.9204 H   0  0  0  0  0  0  0  0  0  0  0  0
  1  2  1  0
  2  3  1  0
  3  4  2  0
  4  5  1  0
  4  6  1  0
  6  7  2  0
  7  8  1  0
  7  9  1  0
  9 10  2  0
 10 11  1  0
 11 12  1  0
 12 13  1  0
 13 14  2  0
 14 15  1  0
 15 16  2  0
 16 17  1  0
 17 18  2  0
 18 19  1  0
 19 20  2  0
 20 21  1  0
 21 22  2  0
 16 23  1  0
 10  3  1  0
 23 13  1  0
 22 17  1  0
  1 24  1  0
  1 25  1  0
  1 26  1  0
  6 27  1  0
  9 28  1  0
 11 29  1  0
 11 30  1  0
 12 31  1  0
 18 32  1  0
 19 33  1  0
 20 34  1  0
 21 35  1  0
 22 36  1  0
M  END
>  <Binding energies>  (1) 
[-7.01]

>  <Ligand effiencies>  (1) 
[-0.2920833333333333]

>  <Interactions>  (1) 
["V-A:ILE:369:CG2:3237, V-A:ASP:366:CA:3210, V-B:GLU:543:C:9874, H-A:GLU:543:OE2:4910, V-A:ILE:369:CB:3236, V-B:GLU:543:CB:9878, H-A:ARG:545:NH1:4927, V-A:TYR:484:CE2:4346, V-B:TYR:539:CE2:9848, V-B:GLU:543:CG:9879, V-A:ASP:366:CG:3213, V-B:TYR:539:CZ:9849, V-A:TYR:484:CZ:4347, V-A:GLU:543:CD:4908, V-B:HIS:456:CE1:9041, H-A:GLY:454:N:4050, V-B:GLU:543:CA:9876, V-A:HIS:456:CE1:4070, V-A:ILE:369:CD1:3239, V-B:GLU:543:CD:9880, V-A:ASP:366:CB:3212, H-A:ARG:545:NH2:4928, V-A:ARG:545:CZ:4926, H-A:ARG:545:NE:4924, H-A:TYR:484:OH:4348"]

$$$$
ZINC5093449
     RDKit          3D

 37 39  0  0  0  0  0  0  0  0999 V2000
  131.4190  127.6930   58.9070 C   0  0  0  0  0  0  0  0  0  0  0  0
  131.6070  126.5360   57.9040 C   0  0  0  0  0  0  0  0  0  0  0  0
  130.2980  126.2340   57.1520 C   0  0  0  0  0  0  0  0  0  0  0  0
  132.1750  125.2910   58.5700 C   0  0  0  0  0  0  0  0  0  0  0  0
  131.7320  124.4540   59.5830 C   0  0  0  0  0  0  0  0  0  0  0  0
  132.7140  123.4590   59.7700 C   0  0  0  0  0  0  0  0  0  0  0  0
  132.6610  122.3620   60.7140 C   0  0  0  0  0  0  0  0  0  0  0  0
  133.6610  121.7520   61.0990 O   0  0  0  0  0  0  0  0  0  0  0  0
  131.4040  121.8180   60.8430 N   0  0  0  0  0  0  0  0  0  0  0  0
  130.6860  122.4990   61.6320 N   0  0  0  0  0  0  0  0  0  0  0  0
  129.3440  121.9730   61.7960 C   0  0  1  0  0  0  0  0  0  0  0  0
  128.7470  122.5140   63.1030 C   0  0  0  0  0  0  0  0  0  0  0  0
  129.2000  122.3530   64.2350 O   0  0  0  0  0  0  0  0  0  0  0  0
  127.6290  123.1820   62.7560 N   0  0  0  0  0  0  0  0  0  0  0  0
  127.4180  123.2170   61.3840 C   0  0  0  0  0  0  0  0  0  0  0  0
  126.3970  123.8350   60.6620 C   0  0  0  0  0  0  0  0  0  0  0  0
  126.4110  123.7500   59.2670 C   0  0  0  0  0  0  0  0  0  0  0  0
  127.4330  123.0510   58.6140 C   0  0  0  0  0  0  0  0  0  0  0  0
  127.4440  122.9380   56.7130 Br  0  0  0  0  0  0  0  0  0  0  0  0
  128.4460  122.4350   59.3510 C   0  0  0  0  0  0  0  0  0  0  0  0
  128.4320  122.5280   60.7450 C   0  0  0  0  0  0  0  0  0  0  0  0
  133.7030  123.6420   58.9190 N   0  0  0  0  0  0  0  0  0  0  0  0
  133.3780  124.7350   58.2220 N   0  0  0  0  0  0  0  0  0  0  0  0
  131.4825  127.3025   59.9334 H   0  0  0  0  0  0  0  0  0  0  0  0
  132.2068  128.4448   58.7514 H   0  0  0  0  0  0  0  0  0  0  0  0
  130.4337  128.1567   58.7514 H   0  0  0  0  0  0  0  0  0  0  0  0
  132.3493  126.8635   57.1612 H   0  0  0  0  0  0  0  0  0  0  0  0
  129.4926  126.0482   57.8779 H   0  0  0  0  0  0  0  0  0  0  0  0
  130.0311  127.0942   56.5204 H   0  0  0  0  0  0  0  0  0  0  0  0
  130.4350  125.3439   56.5204 H   0  0  0  0  0  0  0  0  0  0  0  0
  130.7876  124.5487   60.1390 H   0  0  0  0  0  0  0  0  0  0  0  0
  129.4173  120.8761   61.7589 H   0  0  0  0  0  0  0  0  0  0  0  0
  127.0320  123.6410   63.4290 H   0  0  0  0  0  0  0  0  0  0  0  0
  125.5948  124.3797   61.1814 H   0  0  0  0  0  0  0  0  0  0  0  0
  125.6163  124.2340   58.6803 H   0  0  0  0  0  0  0  0  0  0  0  0
  129.2473  121.8818   58.8393 H   0  0  0  0  0  0  0  0  0  0  0  0
  133.9810  125.0970   57.4960 H   0  0  0  0  0  0  0  0  0  0  0  0
  1  2  1  0
  2  3  1  0
  2  4  1  0
  4  5  2  0
  5  6  1  0
  6  7  1  0
  7  8  2  0
  7  9  1  0
  9 10  2  0
 10 11  1  0
 11 12  1  0
 12 13  2  0
 12 14  1  0
 14 15  1  0
 15 16  2  0
 16 17  1  0
 17 18  2  0
 18 19  1  0
 18 20  1  0
 20 21  2  0
  6 22  2  0
 22 23  1  0
 23  4  1  0
 21 11  1  0
 21 15  1  0
  1 24  1  0
  1 25  1  0
  1 26  1  0
  2 27  1  0
  3 28  1  0
  3 29  1  0
  3 30  1  0
  5 31  1  0
 11 32  1  1
 14 33  1  0
 16 34  1  0
 17 35  1  0
 20 36  1  0
 23 37  1  0
M  END
>  <Binding energies>  (1) 
[-7.39]

>  <Ligand effiencies>  (1) 
[-0.2956]

>  <Interactions>  (1) 
["V-A:ILE:369:CG2:3237, V-A:ASP:366:CA:3210, V-B:PRO:540:CA:9855, V-B:ALA:541:CB:9864, V-B:TYR:539:CE2:9848, H-B:ALA:541:O:9861, V-B:GLU:543:CG:9879, V-B:TYR:539:C:9839, V-A:ASP:366:CG:3213, V-B:TYR:539:CZ:9849, H-B:GLU:543:OE1:9881, H-B:TYR:539:OH:9850, V-B:PRO:540:CB:9857, V-B:PRO:540:N:9856, V-A:ASP:366:C:3208, V-B:TYR:539:CD2:9846, V-A:TYR:531:CZ:4794, V-B:GLU:543:CD:9880, V-A:ASP:366:CB:3212, V-B:TYR:539:CG:9844, H-A:ASP:366:O:3209, V-B:TYR:539:CD1:9845, V-B:ALA:541:CA:9862, V-B:TYR:539:CE1:9847"]

$$$$
ZINC509904621
     RDKit          3D

 54 56  0  0  0  0  0  0  0  0999 V2000
  133.3110  121.7770   61.3220 C   0  0  0  0  0  0  0  0  0  0  0  0
  133.2170  123.1280   62.0530 C   0  0  0  0  0  0  0  0  0  0  0  0
  134.3250  124.0910   61.5850 C   0  0  0  0  0  0  0  0  0  0  0  0
  133.2210  122.9370   63.5820 C   0  0  0  0  0  0  0  0  0  0  0  0
  133.5600  124.1640   64.2170 O   0  0  0  0  0  0  0  0  0  0  0  0
  132.4940  125.1050   64.2600 C   0  0  0  0  0  0  0  0  0  0  0  0
  131.3730  124.5870   65.1830 C   0  0  1  0  0  0  0  0  0  0  0  0
  130.9030  125.6650   66.0600 N   0  0  0  0  0  0  0  0  0  0  0  0
  130.1160  125.5200   67.1470 C   0  0  0  0  0  0  0  0  0  0  0  0
  129.8540  124.4090   67.6160 O   0  0  0  0  0  0  0  0  0  0  0  0
  129.6390  126.6760   67.6930 N   0  0  0  0  0  0  0  0  0  0  0  0
  128.3650  127.3190   67.3050 C   0  0  0  0  0  0  0  0  0  0  0  0
  128.3740  127.8300   65.8780 C   0  0  0  0  0  0  0  0  0  0  0  0
  127.8940  128.9810   65.2670 C   0  0  0  0  0  0  0  0  0  0  0  0
  128.1930  128.8770   63.9090 C   0  0  0  0  0  0  0  0  0  0  0  0
  128.8500  127.6710   63.7490 C   0  0  0  0  0  0  0  0  0  0  0  0
  128.9630  127.0380   64.9440 O   0  0  0  0  0  0  0  0  0  0  0  0
  130.4800  127.4770   68.6060 C   0  0  0  0  0  0  0  0  0  0  0  0
  129.9400  127.5700   70.0230 C   0  0  0  0  0  0  0  0  0  0  0  0
  130.5490  128.1040   71.1590 C   0  0  0  0  0  0  0  0  0  0  0  0
  129.7720  128.0450   72.3210 C   0  0  0  0  0  0  0  0  0  0  0  0
  128.5300  127.4770   72.0980 C   0  0  0  0  0  0  0  0  0  0  0  0
  128.3350  127.0170   70.4350 S   0  0  0  0  0  0  0  0  0  0  0  0
  130.2060  123.9820   64.4130 C   0  0  0  0  0  0  0  0  0  0  0  0
  129.4300  122.8370   64.5590 C   0  0  0  0  0  0  0  0  0  0  0  0
  128.4950  122.8370   63.5230 C   0  0  0  0  0  0  0  0  0  0  0  0
  128.7350  123.9830   62.7880 C   0  0  0  0  0  0  0  0  0  0  0  0
  129.7680  124.6770   63.3280 O   0  0  0  0  0  0  0  0  0  0  0  0
  133.3676  120.9637   62.0605 H   0  0  0  0  0  0  0  0  0  0  0  0
  132.4203  121.6385   60.6915 H   0  0  0  0  0  0  0  0  0  0  0  0
  134.2123  121.7632   60.6915 H   0  0  0  0  0  0  0  0  0  0  0  0
  132.2545  123.5913   61.7904 H   0  0  0  0  0  0  0  0  0  0  0  0
  134.8264  124.5268   62.4617 H   0  0  0  0  0  0  0  0  0  0  0  0
  135.0590  123.5390   60.9796 H   0  0  0  0  0  0  0  0  0  0  0  0
  133.8806  124.8947   60.9796 H   0  0  0  0  0  0  0  0  0  0  0  0
  132.2219  122.6175   63.9133 H   0  0  0  0  0  0  0  0  0  0  0  0
  133.9620  122.1701   63.8516 H   0  0  0  0  0  0  0  0  0  0  0  0
  132.8697  126.0642   64.6456 H   0  0  0  0  0  0  0  0  0  0  0  0
  132.0923  125.2435   63.2454 H   0  0  0  0  0  0  0  0  0  0  0  0
  131.8044  123.7781   65.7909 H   0  0  0  0  0  0  0  0  0  0  0  0
  130.9700  126.5930   65.6710 H   0  0  0  0  0  0  0  0  0  0  0  0
  127.5541  126.5831   67.4094 H   0  0  0  0  0  0  0  0  0  0  0  0
  128.2177  128.1861   67.9657 H   0  0  0  0  0  0  0  0  0  0  0  0
  127.3761  129.8164   65.7607 H   0  0  0  0  0  0  0  0  0  0  0  0
  127.9540  129.6080   63.1225 H   0  0  0  0  0  0  0  0  0  0  0  0
  129.2265  127.2812   62.7918 H   0  0  0  0  0  0  0  0  0  0  0  0
  131.4795  127.0194   68.6462 H   0  0  0  0  0  0  0  0  0  0  0  0
  130.4984  128.5011   68.2050 H   0  0  0  0  0  0  0  0  0  0  0  0
  131.5600  128.5371   71.1424 H   0  0  0  0  0  0  0  0  0  0  0  0
  130.1105  128.4094   73.3021 H   0  0  0  0  0  0  0  0  0  0  0  0
  127.7642  127.3351   72.8748 H   0  0  0  0  0  0  0  0  0  0  0  0
  129.5339  122.0739   65.3444 H   0  0  0  0  0  0  0  0  0  0  0  0
  127.7226  122.0780   63.3301 H   0  0  0  0  0  0  0  0  0  0  0  0
  128.1702  124.2880   61.8947 H   0  0  0  0  0  0  0  0  0  0  0  0
  1  2  1  0
  2  3  1  0
  2  4  1  0
  4  5  1  0
  5  6  1  0
  6  7  1  0
  7  8  1  0
  8  9  1  0
  9 10  2  0
  9 11  1  0
 11 12  1  0
 12 13  1  0
 13 14  2  0
 14 15  1  0
 15 16  2  0
 16 17  1  0
 11 18  1  0
 18 19  1  0
 19 20  2  0
 20 21  1  0
 21 22  2  0
 22 23  1  0
  7 24  1  0
 24 25  2  0
 25 26  1  0
 26 27  2  0
 27 28  1  0
 17 13  1  0
 23 19  1  0
 28 24  1  0
  1 29  1  0
  1 30  1  0
  1 31  1  0
  2 32  1  0
  3 33  1  0
  3 34  1  0
  3 35  1  0
  4 36  1  0
  4 37  1  0
  6 38  1  0
  6 39  1  0
  7 40  1  1
  8 41  1  0
 12 42  1  0
 12 43  1  0
 14 44  1  0
 15 45  1  0
 16 46  1  0
 18 47  1  0
 18 48  1  0
 20 49  1  0
 21 50  1  0
 22 51  1  0
 25 52  1  0
 26 53  1  0
 27 54  1  0
M  END
>  <Binding energies>  (1) 
[-5.97]

>  <Ligand effiencies>  (1) 
[-0.20586206896551723]

>  <Interactions>  (1) 
["V-A:ILE:369:CG2:3237, V-A:GLY:454:CA:4049, V-B:GLU:543:C:9874, H-A:GLU:543:OE2:4910, V-A:GLU:543:C:4902, V-B:HIS:456:CD2:9039, V-B:GLU:543:CB:9878, V-B:ALA:541:CB:9864, V-A:TYR:484:CE2:4346, V-A:GLY:544:C:4912, V-B:GLU:543:CG:9879, V-A:TYR:484:CZ:4347, V-A:GLU:543:CD:4908, V-B:HIS:456:CE1:9041, H-A:GLY:454:N:4050, V-A:ILE:369:CD1:3239, V-A:HIS:456:CE1:4070, V-A:GLU:543:CG:4907, V-B:GLU:543:CD:9880, V-A:LEU:475:CD2:4259, V-A:ARG:545:CZ:4926, H-A:GLU:543:OE1:4909, V-A:GLU:543:CB:4906, H-A:TYR:484:OH:4348"]

$$$$
ZINC514288153
     RDKit          3D

 76 82  0  0  0  0  0  0  0  0999 V2000
  133.2790  120.0160   57.2880 C   0  0  0  0  0  0  0  0  0  0  0  0
  133.0870  119.3610   58.6750 C   0  0  0  0  0  0  0  0  0  0  0  0
  132.0310  118.2350   58.6150 C   0  0  0  0  0  0  0  0  0  0  0  0
  134.3250  118.7610   59.0260 O   0  0  0  0  0  0  0  0  0  0  0  0
  132.7150  120.3880   59.7750 C   0  0  0  0  0  0  0  0  0  0  0  0
  133.1530  121.5420   59.7590 O   0  0  0  0  0  0  0  0  0  0  0  0
  131.8550  119.8860   60.7190 O   0  0  0  0  0  0  0  0  0  0  0  0
  130.7830  120.6240   61.3350 C   0  0  2  0  0  0  0  0  0  0  0  0
  129.9940  119.6200   62.2320 C   0  0  0  0  0  0  0  0  0  0  0  0
  129.8790  121.1840   60.1510 C   0  0  0  0  0  0  0  0  0  0  0  0
  129.4890  122.5910   60.2490 O   0  0  0  0  0  0  0  0  0  0  0  0
  130.4850  123.5170   60.6930 C   0  0  1  0  0  0  0  0  0  0  0  0
  130.8740  124.4380   59.5130 C   0  0  0  0  0  0  0  0  0  0  0  0
  129.9150  125.6330   59.3470 C   0  0  0  0  0  0  0  0  0  0  0  0
  129.7120  126.4650   60.6560 C   0  0  2  0  0  0  0  0  0  0  0  0
  131.1340  126.9090   61.1660 C   0  0  0  0  0  0  0  0  0  0  0  0
  129.0180  125.4850   61.7090 C   0  0  2  0  0  0  0  0  0  0  0  0
  127.8340  124.8850   61.2020 O   0  0  0  0  0  0  0  0  0  0  0  0
  128.5440  126.2510   62.9960 C   0  0  0  0  0  0  0  0  0  0  0  0
  127.6840  127.5080   62.6990 C   0  0  0  0  0  0  0  0  0  0  0  0
  128.4660  128.4190   61.7440 C   0  0  2  0  0  0  0  0  0  0  0  0
  127.9900  129.8470   61.4210 C   0  0  0  0  0  0  0  0  0  0  0  0
  128.8820  130.1310   60.2270 C   0  0  0  0  0  0  0  0  0  0  0  0
  129.3580  128.9470   59.7060 C   0  0  0  0  0  0  0  0  0  0  0  0
  130.1830  129.1990   58.6420 N   0  0  0  0  0  0  0  0  0  0  0  0
  130.2680  130.5660   58.4460 C   0  0  0  0  0  0  0  0  0  0  0  0
  130.9770  131.3110   57.4970 C   0  0  0  0  0  0  0  0  0  0  0  0
  130.8530  132.7000   57.5550 C   0  0  0  0  0  0  0  0  0  0  0  0
  131.7060  133.6680   56.4080 Cl  0  0  0  0  0  0  0  0  0  0  0  0
  130.0580  133.3250   58.5150 C   0  0  0  0  0  0  0  0  0  0  0  0
  129.3490  132.5870   59.4620 C   0  0  0  0  0  0  0  0  0  0  0  0
  129.4430  131.1880   59.4390 C   0  0  0  0  0  0  0  0  0  0  0  0
  128.7650  127.7240   60.3850 C   0  0  1  0  0  0  0  0  0  0  0  0
  127.4500  127.4090   59.5880 C   0  0  0  0  0  0  0  0  0  0  0  0
  129.9830  124.3050   61.9650 C   0  0  0  0  0  0  0  0  0  0  0  0
  130.3690  123.8640   63.2050 C   0  0  0  0  0  0  0  0  0  0  0  0
  131.0630  122.5660   63.3970 C   0  0  0  0  0  0  0  0  0  0  0  0
  131.3480  122.0810   64.4910 O   0  0  0  0  0  0  0  0  0  0  0  0
  131.3470  121.8840   62.0500 C   0  0  2  0  0  0  0  0  0  0  0  0
  131.6600  122.8270   61.0340 O   0  0  0  0  0  0  0  0  0  0  0  0
  133.5863  121.0643   57.4169 H   0  0  0  0  0  0  0  0  0  0  0  0
  134.0555  119.4722   56.7300 H   0  0  0  0  0  0  0  0  0  0  0  0
  132.3318  119.9775   56.7300 H   0  0  0  0  0  0  0  0  0  0  0  0
  131.7528  117.9384   59.6371 H   0  0  0  0  0  0  0  0  0  0  0  0
  131.1390  118.5968   58.0826 H   0  0  0  0  0  0  0  0  0  0  0  0
  132.4493  117.3680   58.0826 H   0  0  0  0  0  0  0  0  0  0  0  0
  134.1450  117.9140   59.4420 H   0  0  0  0  0  0  0  0  0  0  0  0
  130.1770  119.8528   63.2914 H   0  0  0  0  0  0  0  0  0  0  0  0
  128.9183  119.7047   62.0185 H   0  0  0  0  0  0  0  0  0  0  0  0
  130.3306  118.5948   62.0185 H   0  0  0  0  0  0  0  0  0  0  0  0
  130.4371  121.0545   59.2119 H   0  0  0  0  0  0  0  0  0  0  0  0
  128.9401  120.6130   60.2006 H   0  0  0  0  0  0  0  0  0  0  0  0
  131.8892  124.8237   59.6880 H   0  0  0  0  0  0  0  0  0  0  0  0
  130.8185  123.8383   58.5925 H   0  0  0  0  0  0  0  0  0  0  0  0
  130.3217  126.2993   58.5720 H   0  0  0  0  0  0  0  0  0  0  0  0
  128.9327  125.2204   59.0736 H   0  0  0  0  0  0  0  0  0  0  0  0
  131.1445  126.9123   62.2659 H   0  0  0  0  0  0  0  0  0  0  0  0
  131.8931  126.2051   60.7942 H   0  0  0  0  0  0  0  0  0  0  0  0
  131.3578  127.9198   60.7942 H   0  0  0  0  0  0  0  0  0  0  0  0
  127.2300  124.7460   61.9350 H   0  0  0  0  0  0  0  0  0  0  0  0
  127.9473  125.5604   63.6100 H   0  0  0  0  0  0  0  0  0  0  0  0
  129.4508  126.5994   63.5122 H   0  0  0  0  0  0  0  0  0  0  0  0
  126.7356  127.2063   62.2305 H   0  0  0  0  0  0  0  0  0  0  0  0
  127.4638  128.0433   63.6344 H   0  0  0  0  0  0  0  0  0  0  0  0
  129.3429  128.5772   62.3890 H   0  0  0  0  0  0  0  0  0  0  0  0
  126.9231  129.8757   61.1547 H   0  0  0  0  0  0  0  0  0  0  0  0
  128.0635  130.5683   62.2482 H   0  0  0  0  0  0  0  0  0  0  0  0
  130.6230  128.4660   58.1050 H   0  0  0  0  0  0  0  0  0  0  0  0
  131.6053  130.8227   56.7376 H   0  0  0  0  0  0  0  0  0  0  0  0
  129.9888  134.4228   58.5254 H   0  0  0  0  0  0  0  0  0  0  0  0
  128.7265  133.0935   60.2143 H   0  0  0  0  0  0  0  0  0  0  0  0
  126.6307  127.2127   60.2953 H   0  0  0  0  0  0  0  0  0  0  0  0
  127.1896  128.2702   58.9551 H   0  0  0  0  0  0  0  0  0  0  0  0
  127.6081  126.5233   58.9551 H   0  0  0  0  0  0  0  0  0  0  0  0
  130.1579  124.4911   64.0837 H   0  0  0  0  0  0  0  0  0  0  0  0
  132.0225  121.2712   62.6650 H   0  0  0  0  0  0  0  0  0  0  0  0
  1  2  1  0
  2  3  1  0
  2  4  1  0
  2  5  1  0
  5  6  2  0
  5  7  1  0
  8  7  1  6
  8  9  1  0
  8 10  1  0
 10 11  1  0
 12 11  1  6
 12 13  1  0
 13 14  1  0
 14 15  1  0
 15 16  1  1
 15 17  1  0
 17 18  1  6
 17 19  1  0
 19 20  1  0
 20 21  1  0
 21 22  1  0
 22 23  1  0
 23 24  2  0
 24 25  1  0
 25 26  1  0
 26 27  2  0
 27 28  1  0
 28 29  1  0
 28 30  2  0
 30 31  1  0
 31 32  2  0
 24 33  1  0
 33 34  1  6
 17 35  1  0
 35 36  2  0
 36 37  1  0
 37 38  2  0
 37 39  1  0
 39 40  1  0
 39  8  1  0
 35 12  1  0
 40 12  1  0
 33 15  1  0
 33 21  1  0
 32 23  1  0
 32 26  1  0
  1 41  1  0
  1 42  1  0
  1 43  1  0
  3 44  1  0
  3 45  1  0
  3 46  1  0
  4 47  1  0
  9 48  1  0
  9 49  1  0
  9 50  1  0
 10 51  1  0
 10 52  1  0
 13 53  1  0
 13 54  1  0
 14 55  1  0
 14 56  1  0
 16 57  1  0
 16 58  1  0
 16 59  1  0
 18 60  1  0
 19 61  1  0
 19 62  1  0
 20 63  1  0
 20 64  1  0
 21 65  1  1
 22 66  1  0
 22 67  1  0
 25 68  1  0
 27 69  1  0
 30 70  1  0
 31 71  1  0
 34 72  1  0
 34 73  1  0
 34 74  1  0
 36 75  1  0
 39 76  1  1
M  END
>  <Binding energies>  (1) 
[-1.92]

>  <Ligand effiencies>  (1) 
[-0.044651162790697675]

>  <Interactions>  (1) 
["V-A:ILE:369:CG2:3237, V-A:ILE:538:C:4858, V-A:PRO:540:CG:4886, V-A:ILE:538:CB:4862, H-A:VAL:384:O:3398, V-B:ALA:541:CB:9864, H-A:TYR:531:OH:4795, V-B:TYR:539:CE2:9848, V-A:LEU:475:CG:4257, V-B:GLU:543:CG:9879, V-B:TYR:539:C:9839, V-A:ASP:366:CG:3213, V-A:ILE:538:CG2:4863, V-A:LEU:363:CD1:3189, V-B:TYR:539:CZ:9849, V-A:ILE:538:CA:4860, H-B:GLU:543:OE1:9881, V-A:TYR:539:CA:4869, V-A:LEU:475:CD1:4258, V-B:TYR:539:CB:9843, V-A:HIS:383:CE1:3393, V-A:HIS:383:NE2:3394, V-A:ILE:538:CG1:4864, V-B:TYR:539:CD2:9846, H-A:SER:385:OG:3410, V-B:GLU:543:CD:9880, V-A:TYR:539:C:4867, V-A:LEU:475:CD2:4259, V-B:TYR:539:CG:9844, V-A:HIS:383:CD2:3392, V-B:TYR:539:CD1:9845, H-A:HIS:383:HE2:3395, H-A:SER:385:N:3408, V-A:LEU:373:CD1:3280, V-A:PRO:540:N:4884, V-A:PRO:540:CA:4883, V-A:PRO:540:CB:4885, V-A:PRO:540:CD:4887, V-B:TYR:539:CE1:9847, H-A:TYR:484:OH:4348"]

$$$$
ZINC514290751
     RDKit          3D

 69 71  0  0  0  0  0  0  0  0999 V2000
  129.7990  123.3060   65.3440 C   0  0  0  0  0  0  0  0  0  0  0  0
  130.5610  124.3980   65.5370 C   0  0  0  0  0  0  0  0  0  0  0  0
  130.4210  125.4280   66.6510 C   0  0  0  0  0  0  0  0  0  0  0  0
  129.5630  126.5810   66.3500 N   0  0  0  0  0  0  0  0  0  0  0  0
  129.1130  127.0000   65.1100 C   0  0  0  0  0  0  0  0  0  0  0  0
  129.5500  126.3040   63.5480 S   0  0  0  0  0  0  0  0  0  0  0  0
  128.2490  127.0660   62.5330 C   0  0  0  0  0  0  0  0  0  0  0  0
  128.6560  127.2380   61.0570 C   0  0  0  0  0  0  0  0  0  0  0  0
  127.7600  127.1350   60.2160 O   0  0  0  0  0  0  0  0  0  0  0  0
  129.9440  127.5570   60.7230 N   0  0  0  0  0  0  0  0  0  0  0  0
  130.5760  128.8040   61.2120 C   0  0  0  0  0  0  0  0  0  0  0  0
  130.4710  130.0700   60.3170 C   0  0  0  0  0  0  0  0  0  0  0  0
  131.3080  129.9900   59.0270 C   0  0  0  0  0  0  0  0  0  0  0  0
  130.8370  131.3250   61.1290 C   0  0  0  0  0  0  0  0  0  0  0  0
  130.7740  126.6690   60.0720 C   0  0  0  0  0  0  0  0  0  0  0  0
  131.8000  126.0390   60.7070 C   0  0  0  0  0  0  0  0  0  0  0  0
  132.0730  126.2130   62.0500 N   0  0  0  0  0  0  0  0  0  0  0  0
  132.6400  125.1360   60.0600 N   0  0  0  0  0  0  0  0  0  0  0  0
  133.6880  124.3190   60.7220 C   0  0  0  0  0  0  0  0  0  0  0  0
  133.1450  123.2400   61.6970 C   0  0  0  0  0  0  0  0  0  0  0  0
  134.1770  122.1530   62.0570 C   0  0  0  0  0  0  0  0  0  0  0  0
  131.8500  122.6160   61.1490 C   0  0  0  0  0  0  0  0  0  0  0  0
  132.5500  124.9720   58.6890 C   0  0  0  0  0  0  0  0  0  0  0  0
  133.3310  124.3310   57.9840 O   0  0  0  0  0  0  0  0  0  0  0  0
  131.4930  125.6090   58.1040 N   0  0  0  0  0  0  0  0  0  0  0  0
  130.5550  126.4290   58.6470 C   0  0  0  0  0  0  0  0  0  0  0  0
  129.6430  126.8950   57.9660 O   0  0  0  0  0  0  0  0  0  0  0  0
  128.4050  128.0940   65.2290 N   0  0  0  0  0  0  0  0  0  0  0  0
  128.2990  128.3810   66.5820 N   0  0  0  0  0  0  0  0  0  0  0  0
  129.0020  127.4860   67.2360 C   0  0  0  0  0  0  0  0  0  0  0  0
  129.1820  127.4990   68.7250 C   0  0  0  0  0  0  0  0  0  0  0  0
  130.4580  127.7630   69.2410 C   0  0  0  0  0  0  0  0  0  0  0  0
  130.6830  127.7950   70.6160 C   0  0  0  0  0  0  0  0  0  0  0  0
  129.6300  127.5700   71.4990 C   0  0  0  0  0  0  0  0  0  0  0  0
  129.9060  127.6060   73.2020 Cl  0  0  0  0  0  0  0  0  0  0  0  0
  128.3520  127.3210   71.0030 C   0  0  0  0  0  0  0  0  0  0  0  0
  128.1210  127.2890   69.6260 C   0  0  0  0  0  0  0  0  0  0  0  0
  126.5080  126.9710   69.0860 Cl  0  0  0  0  0  0  0  0  0  0  0  0
  130.0033  122.6356   64.4961 H   0  0  0  0  0  0  0  0  0  0  0  0
  128.9717  123.0836   66.0341 H   0  0  0  0  0  0  0  0  0  0  0  0
  131.3720  124.5651   64.8129 H   0  0  0  0  0  0  0  0  0  0  0  0
  130.0044  124.9180   67.5321 H   0  0  0  0  0  0  0  0  0  0  0  0
  131.4295  125.8384   66.8075 H   0  0  0  0  0  0  0  0  0  0  0  0
  127.3529  126.4295   62.5770 H   0  0  0  0  0  0  0  0  0  0  0  0
  128.0616  128.0704   62.9404 H   0  0  0  0  0  0  0  0  0  0  0  0
  130.1143  129.0477   62.1802 H   0  0  0  0  0  0  0  0  0  0  0  0
  131.6515  128.5754   61.2425 H   0  0  0  0  0  0  0  0  0  0  0  0
  129.4230  130.1331   59.9888 H   0  0  0  0  0  0  0  0  0  0  0  0
  132.3722  129.8883   59.2861 H   0  0  0  0  0  0  0  0  0  0  0  0
  130.9894  129.1182   58.4367 H   0  0  0  0  0  0  0  0  0  0  0  0
  131.1603  130.9064   58.4367 H   0  0  0  0  0  0  0  0  0  0  0  0
  130.7710  131.0987   62.2034 H   0  0  0  0  0  0  0  0  0  0  0  0
  131.8630  131.6352   60.8820 H   0  0  0  0  0  0  0  0  0  0  0  0
  130.1386  132.1381   60.8820 H   0  0  0  0  0  0  0  0  0  0  0  0
  131.7860  127.0500   62.5360 H   0  0  0  0  0  0  0  0  0  0  0  0
  132.5640  125.5070   62.5800 H   0  0  0  0  0  0  0  0  0  0  0  0
  134.2729  123.8122   59.9403 H   0  0  0  0  0  0  0  0  0  0  0  0
  134.2888  125.0133   61.3279 H   0  0  0  0  0  0  0  0  0  0  0  0
  132.9222  123.7618   62.6394 H   0  0  0  0  0  0  0  0  0  0  0  0
  134.2557  122.0701   63.1510 H   0  0  0  0  0  0  0  0  0  0  0  0
  133.8545  121.1882   61.6384 H   0  0  0  0  0  0  0  0  0  0  0  0
  135.1572  122.4250   61.6384 H   0  0  0  0  0  0  0  0  0  0  0  0
  131.2085  122.3069   61.9875 H   0  0  0  0  0  0  0  0  0  0  0  0
  131.3179  123.3566   60.5339 H   0  0  0  0  0  0  0  0  0  0  0  0
  132.0976  121.7383   60.5339 H   0  0  0  0  0  0  0  0  0  0  0  0
  131.3980  125.4550   57.1110 H   0  0  0  0  0  0  0  0  0  0  0  0
  131.2942  127.9477   68.5506 H   0  0  0  0  0  0  0  0  0  0  0  0
  131.6922  127.9980   71.0037 H   0  0  0  0  0  0  0  0  0  0  0  0
  127.5193  127.1484   71.7007 H   0  0  0  0  0  0  0  0  0  0  0  0
  1  2  2  0
  2  3  1  0
  3  4  1  0
  4  5  1  0
  5  6  1  0
  6  7  1  0
  7  8  1  0
  8  9  2  0
  8 10  1  0
 10 11  1  0
 11 12  1  0
 12 13  1  0
 12 14  1  0
 10 15  1  0
 15 16  2  0
 16 17  1  0
 16 18  1  0
 18 19  1  0
 19 20  1  0
 20 21  1  0
 20 22  1  0
 18 23  1  0
 23 24  2  0
 23 25  1  0
 25 26  1  0
 26 27  2  0
  5 28  2  0
 28 29  1  0
 29 30  2  0
 30 31  1  0
 31 32  2  0
 32 33  1  0
 33 34  2  0
 34 35  1  0
 34 36  1  0
 36 37  2  0
 37 38  1  0
 30  4  1  0
 37 31  1  0
 26 15  1  0
  1 39  1  0
  1 40  1  0
  2 41  1  0
  3 42  1  0
  3 43  1  0
  7 44  1  0
  7 45  1  0
 11 46  1  0
 11 47  1  0
 12 48  1  0
 13 49  1  0
 13 50  1  0
 13 51  1  0
 14 52  1  0
 14 53  1  0
 14 54  1  0
 17 55  1  0
 17 56  1  0
 19 57  1  0
 19 58  1  0
 20 59  1  0
 21 60  1  0
 21 61  1  0
 21 62  1  0
 22 63  1  0
 22 64  1  0
 22 65  1  0
 25 66  1  0
 32 67  1  0
 33 68  1  0
 36 69  1  0
M  END
>  <Binding energies>  (1) 
[-7.4]

>  <Ligand effiencies>  (1) 
[-0.1804878048780488]

>  <Interactions>  (1) 
["V-A:ILE:369:CG2:3237, V-A:GLY:454:CA:4049, V-B:HIS:456:CD2:9039, H-A:GLU:543:OE2:4910, V-A:GLU:543:C:4902, V-B:GLU:543:C:9874, V-B:GLU:543:CB:9878, H-A:TYR:531:OH:4795, V-A:TYR:484:CE2:4346, V-B:TYR:539:CE2:9848, V-A:GLY:544:C:4912, V-B:GLU:543:CG:9879, V-A:ASP:366:CG:3213, V-B:TYR:539:CZ:9849, H-B:TYR:539:OH:9850, V-B:ARG:545:CG:9894, V-A:GLU:543:CD:4908, V-A:TYR:484:CZ:4347, V-B:HIS:456:CE1:9041, V-B:GLU:543:CA:9876, V-A:HIS:456:CE1:4070, V-A:ILE:369:CD1:3239, V-B:GLY:544:C:9884, V-B:GLU:543:CD:9880, V-A:ASP:366:CB:3212, V-A:LEU:475:CD2:4259, V-A:ARG:545:CZ:4926, H-A:GLU:543:OE1:4909, V-A:GLU:543:CB:4906, H-A:ASP:366:OD1:3214, V-A:PRO:540:CA:4883, H-A:ASP:366:OD2:3215"]

$$$$
ZINC514293432-again1
     RDKit          3D

 61 66  0  0  0  0  0  0  0  0999 V2000
  129.2040  133.2210   57.9790 C   0  0  0  0  0  0  0  0  0  0  0  0
  129.1200  131.6870   58.0820 C   0  0  2  0  0  0  0  0  0  0  0  0
  129.6300  131.0070   56.7930 C   0  0  0  0  0  0  0  0  0  0  0  0
  129.7830  129.4810   56.9710 C   0  0  0  0  0  0  0  0  0  0  0  0
  128.5160  128.9110   57.6140 C   0  0  0  0  0  0  0  0  0  0  0  0
  127.5670  129.7320   58.2540 C   0  0  0  0  0  0  0  0  0  0  0  0
  126.2010  128.8350   58.8490 S   0  0  0  0  0  0  0  0  0  0  0  0
  126.8810  127.3640   58.2480 C   0  0  0  0  0  0  0  0  0  0  0  0
  126.2520  126.1630   58.3960 N   0  0  0  0  0  0  0  0  0  0  0  0
  126.8450  125.1280   57.8960 C   0  0  0  0  0  0  0  0  0  0  0  0
  126.2530  123.7180   58.0000 C   0  0  1  0  0  0  0  0  0  0  0  0
  125.4270  123.3140   56.7570 C   0  0  0  0  0  0  0  0  0  0  0  0
  127.6050  122.5590   58.3950 S   0  0  0  0  0  0  0  0  0  0  0  0
  127.6450  122.8300   60.1340 C   0  0  0  0  0  0  0  0  0  0  0  0
  126.5700  122.9040   60.8750 N   0  0  0  0  0  0  0  0  0  0  0  0
  126.9770  123.1980   62.1690 N   0  0  0  0  0  0  0  0  0  0  0  0
  128.2850  123.2950   62.1640 C   0  0  0  0  0  0  0  0  0  0  0  0
  129.0690  123.6420   63.3510 C   0  0  0  0  0  0  0  0  0  0  0  0
  129.5240  122.8220   64.3840 C   0  0  0  0  0  0  0  0  0  0  0  0
  130.2520  123.5040   65.3650 C   0  0  0  0  0  0  0  0  0  0  0  0
  130.3490  124.8610   65.1080 C   0  0  0  0  0  0  0  0  0  0  0  0
  129.5250  125.2990   63.6500 S   0  0  0  0  0  0  0  0  0  0  0  0
  128.7760  123.0840   60.8860 N   0  0  0  0  0  0  0  0  0  0  0  0
  130.1410  123.2450   60.3850 C   0  0  0  0  0  0  0  0  0  0  0  0
  130.2790  124.5430   59.5630 C   0  0  1  0  0  0  0  0  0  0  0  0
  130.3230  125.8400   60.3700 C   0  0  0  0  0  0  0  0  0  0  0  0
  131.1510  126.7820   59.5240 C   0  0  0  0  0  0  0  0  0  0  0  0
  131.9370  125.8580   58.5900 C   0  0  0  0  0  0  0  0  0  0  0  0
  131.5670  124.5300   58.9560 O   0  0  0  0  0  0  0  0  0  0  0  0
  128.0630  125.2520   57.2510 N   0  0  0  0  0  0  0  0  0  0  0  0
  128.7980  126.3910   57.0370 C   0  0  0  0  0  0  0  0  0  0  0  0
  129.8740  126.3430   56.4460 O   0  0  0  0  0  0  0  0  0  0  0  0
  128.1110  127.5610   57.6060 C   0  0  0  0  0  0  0  0  0  0  0  0
  127.6610  131.2510   58.3680 C   0  0  0  0  0  0  0  0  0  0  0  0
  129.2278  133.6556   58.9892 H   0  0  0  0  0  0  0  0  0  0  0  0
  130.1189  133.5026   57.4371 H   0  0  0  0  0  0  0  0  0  0  0  0
  128.3253  133.6008   57.4371 H   0  0  0  0  0  0  0  0  0  0  0  0
  129.7657  131.3687   58.9137 H   0  0  0  0  0  0  0  0  0  0  0  0
  128.9136  131.2006   55.9811 H   0  0  0  0  0  0  0  0  0  0  0  0
  130.6197  131.4242   56.5553 H   0  0  0  0  0  0  0  0  0  0  0  0
  129.9384  129.0113   55.9885 H   0  0  0  0  0  0  0  0  0  0  0  0
  130.6475  129.2729   57.6186 H   0  0  0  0  0  0  0  0  0  0  0  0
  125.5150  123.6891   58.8152 H   0  0  0  0  0  0  0  0  0  0  0  0
  124.4821  122.8519   57.0790 H   0  0  0  0  0  0  0  0  0  0  0  0
  125.2110  124.2082   56.1538 H   0  0  0  0  0  0  0  0  0  0  0  0
  126.0002  122.5945   56.1538 H   0  0  0  0  0  0  0  0  0  0  0  0
  129.3286  121.7402   64.4235 H   0  0  0  0  0  0  0  0  0  0  0  0
  130.6983  123.0157   66.2439 H   0  0  0  0  0  0  0  0  0  0  0  0
  130.8845  125.5741   65.7520 H   0  0  0  0  0  0  0  0  0  0  0  0
  130.8349  123.2838   61.2377 H   0  0  0  0  0  0  0  0  0  0  0  0
  130.3781  122.3909   59.7336 H   0  0  0  0  0  0  0  0  0  0  0  0
  129.3999  124.5449   58.9018 H   0  0  0  0  0  0  0  0  0  0  0  0
  129.3093  126.2401   60.5193 H   0  0  0  0  0  0  0  0  0  0  0  0
  130.7483  125.6947   61.3740 H   0  0  0  0  0  0  0  0  0  0  0  0
  130.5038  127.4597   58.9479 H   0  0  0  0  0  0  0  0  0  0  0  0
  131.8068  127.4250   60.1294 H   0  0  0  0  0  0  0  0  0  0  0  0
  131.6691  126.0552   57.5415 H   0  0  0  0  0  0  0  0  0  0  0  0
  133.0216  126.0163   58.6823 H   0  0  0  0  0  0  0  0  0  0  0  0
  128.4760  124.4110   56.8780 H   0  0  0  0  0  0  0  0  0  0  0  0
  126.9858  131.7186   57.6362 H   0  0  0  0  0  0  0  0  0  0  0  0
  127.3694  131.5673   59.3804 H   0  0  0  0  0  0  0  0  0  0  0  0
  1  2  1  0
  2  3  1  0
  3  4  1  0
  4  5  1  0
  5  6  2  0
  6  7  1  0
  7  8  1  0
  8  9  1  0
  9 10  2  0
 10 11  1  0
 11 12  1  0
 11 13  1  0
 13 14  1  0
 14 15  2  0
 15 16  1  0
 16 17  2  0
 17 18  1  0
 18 19  2  0
 19 20  1  0
 20 21  2  0
 21 22  1  0
 17 23  1  0
 23 24  1  0
 24 25  1  0
 25 26  1  0
 26 27  1  0
 27 28  1  0
 28 29  1  0
 10 30  1  0
 30 31  1  0
 31 32  2  0
 31 33  1  0
  6 34  1  0
 34  2  1  0
 33  5  1  0
 33  8  2  0
 23 14  1  0
 29 25  1  0
 22 18  1  0
  1 35  1  0
  1 36  1  0
  1 37  1  0
  2 38  1  1
  3 39  1  0
  3 40  1  0
  4 41  1  0
  4 42  1  0
 11 43  1  1
 12 44  1  0
 12 45  1  0
 12 46  1  0
 19 47  1  0
 20 48  1  0
 21 49  1  0
 24 50  1  0
 24 51  1  0
 25 52  1  6
 26 53  1  0
 26 54  1  0
 27 55  1  0
 27 56  1  0
 28 57  1  0
 28 58  1  0
 30 59  1  0
 34 60  1  0
 34 61  1  0
M  END
>  <Binding energies>  (1) 
[-7.62]

>  <Ligand effiencies>  (1) 
[-0.21771428571428572]

>  <Interactions>  (1) 
["V-B:PRO:540:CA:9855, V-B:ASP:366:CG:8184, V-B:ALA:541:CB:9864, H-A:TYR:531:OH:4795, V-B:TYR:539:CE2:9848, V-A:TYR:484:CE2:4346, V-B:GLU:543:CG:9879, V-A:ASP:366:CG:3213, V-A:TYR:539:CD1:4873, H-B:TYR:539:OH:9850, H-B:ALA:541:N:9863, V-A:TYR:539:CA:4869, V-A:TYR:484:CZ:4347, V-B:PRO:540:CB:9857, V-B:PRO:540:N:9856, V-B:TYR:539:CD2:9846, V-A:MET:535:CE:4835, V-B:GLU:543:CD:9880, V-A:TYR:539:C:4867, H-B:TYR:531:OH:9767, V-A:ASP:366:CB:3212, V-A:PRO:540:N:4884, V-A:TYR:539:CG:4872, V-B:LEU:363:CD1:8160, V-A:PRO:540:CA:4883, V-B:PRO:540:C:9853, V-B:MET:535:CE:9807, V-A:TYR:539:CE1:4875"]

$$$$
ZINC514374652-again1
     RDKit          3D

 76 79  0  0  0  0  0  0  0  0999 V2000
  133.7130  124.3500   58.5710 C   0  0  0  0  0  0  0  0  0  0  0  0
  132.8420  125.4470   59.2020 C   0  0  0  0  0  0  0  0  0  0  0  0
  132.0910  125.0050   60.4720 C   0  0  0  0  0  0  0  0  0  0  0  0
  131.7730  123.4960   60.5170 C   0  0  0  0  0  0  0  0  0  0  0  0
  131.2120  123.1250   61.8130 N   0  0  0  0  0  0  0  0  0  0  0  0
  129.8800  122.9690   62.1370 C   0  0  0  0  0  0  0  0  0  0  0  0
  128.5380  123.2310   61.0110 S   0  0  0  0  0  0  0  0  0  0  0  0
  128.8090  124.9850   60.5700 C   0  0  0  0  0  0  0  0  0  0  0  0
  128.6440  125.9340   61.7550 C   0  0  0  0  0  0  0  0  0  0  0  0
  129.0310  125.6260   62.9490 N   0  0  0  0  0  0  0  0  0  0  0  0
  128.8260  126.5600   63.9220 C   0  0  0  0  0  0  0  0  0  0  0  0
  129.3010  126.2870   65.5530 S   0  0  0  0  0  0  0  0  0  0  0  0
  128.7240  127.8730   66.0190 C   0  0  0  0  0  0  0  0  0  0  0  0
  128.7830  128.2890   67.4110 C   0  0  0  0  0  0  0  0  0  0  0  0
  128.6060  129.4690   67.7170 O   0  0  0  0  0  0  0  0  0  0  0  0
  128.9850  127.2880   68.2990 N   0  0  0  0  0  0  0  0  0  0  0  0
  129.0850  127.3510   69.7060 C   0  0  0  0  0  0  0  0  0  0  0  0
  127.9990  127.0890   70.5600 C   0  0  0  0  0  0  0  0  0  0  0  0
  128.1450  127.1770   71.9420 C   0  0  0  0  0  0  0  0  0  0  0  0
  129.3720  127.5370   72.4980 C   0  0  0  0  0  0  0  0  0  0  0  0
  129.5260  127.6190   74.0060 C   0  0  0  0  0  0  0  0  0  0  0  0
  130.4540  127.8070   71.6590 C   0  0  0  0  0  0  0  0  0  0  0  0
  130.3210  127.7240   70.2680 C   0  0  0  0  0  0  0  0  0  0  0  0
  131.5350  128.0300   69.3980 C   0  0  0  0  0  0  0  0  0  0  0  0
  128.1450  128.5760   64.9350 C   0  0  0  0  0  0  0  0  0  0  0  0
  127.6100  130.0000   65.0090 C   0  0  0  0  0  0  0  0  0  0  0  0
  128.2310  127.8150   63.7390 C   0  0  0  0  0  0  0  0  0  0  0  0
  127.7710  128.1660   62.3820 C   0  0  0  0  0  0  0  0  0  0  0  0
  127.2090  129.1880   61.9960 O   0  0  0  0  0  0  0  0  0  0  0  0
  128.0410  127.1510   61.5000 N   0  0  0  0  0  0  0  0  0  0  0  0
  129.7590  122.6030   63.3900 N   0  0  0  0  0  0  0  0  0  0  0  0
  131.0360  122.4930   63.9260 N   0  0  0  0  0  0  0  0  0  0  0  0
  131.8850  122.7980   62.9730 C   0  0  0  0  0  0  0  0  0  0  0  0
  133.4120  122.7700   63.1190 C   0  0  1  0  0  0  0  0  0  0  0  0
  134.0730  122.2340   61.8130 C   0  0  0  0  0  0  0  0  0  0  0  0
  133.4980  120.9040   61.2950 C   0  0  0  0  0  0  0  0  0  0  0  0
  133.9230  124.0990   63.5280 N   0  0  0  0  0  0  0  0  0  0  0  0
  132.8980  125.0650   63.9260 C   0  0  0  0  0  0  0  0  0  0  0  0
  134.7590  124.7090   62.4920 C   0  0  0  0  0  0  0  0  0  0  0  0
  134.1857  123.7546   59.3660 H   0  0  0  0  0  0  0  0  0  0  0  0
  133.0851  123.6965   57.9476 H   0  0  0  0  0  0  0  0  0  0  0  0
  134.4918  124.8135   57.9476 H   0  0  0  0  0  0  0  0  0  0  0  0
  133.4915  126.2955   59.4631 H   0  0  0  0  0  0  0  0  0  0  0  0
  132.0761  125.7096   58.4574 H   0  0  0  0  0  0  0  0  0  0  0  0
  132.7112  125.2544   61.3456 H   0  0  0  0  0  0  0  0  0  0  0  0
  131.1269  125.5346   60.4734 H   0  0  0  0  0  0  0  0  0  0  0  0
  131.0460  123.2565   59.7270 H   0  0  0  0  0  0  0  0  0  0  0  0
  132.7053  122.9334   60.3612 H   0  0  0  0  0  0  0  0  0  0  0  0
  129.8299  125.0928   60.1749 H   0  0  0  0  0  0  0  0  0  0  0  0
  128.0474  125.2567   59.8242 H   0  0  0  0  0  0  0  0  0  0  0  0
  129.0270  126.3530   67.9190 H   0  0  0  0  0  0  0  0  0  0  0  0
  127.0243  126.8117   70.1320 H   0  0  0  0  0  0  0  0  0  0  0  0
  127.2887  126.9616   72.5979 H   0  0  0  0  0  0  0  0  0  0  0  0
  128.6539  127.1546   74.4894 H   0  0  0  0  0  0  0  0  0  0  0  0
  130.4400  127.0881   74.3106 H   0  0  0  0  0  0  0  0  0  0  0  0
  129.5957  128.6737   74.3106 H   0  0  0  0  0  0  0  0  0  0  0  0
  131.4233  128.0885   72.0962 H   0  0  0  0  0  0  0  0  0  0  0  0
  132.4008  128.2482   70.0404 H   0  0  0  0  0  0  0  0  0  0  0  0
  131.7596  127.1604   68.7629 H   0  0  0  0  0  0  0  0  0  0  0  0
  131.3205  128.9022   68.7629 H   0  0  0  0  0  0  0  0  0  0  0  0
  127.4989  130.2957   66.0627 H   0  0  0  0  0  0  0  0  0  0  0  0
  128.3131  130.6823   64.5089 H   0  0  0  0  0  0  0  0  0  0  0  0
  126.6316  130.0505   64.5089 H   0  0  0  0  0  0  0  0  0  0  0  0
  127.7510  127.3350   60.5500 H   0  0  0  0  0  0  0  0  0  0  0  0
  133.6887  122.0712   63.9222 H   0  0  0  0  0  0  0  0  0  0  0  0
  133.9414  122.9924   61.0272 H   0  0  0  0  0  0  0  0  0  0  0  0
  135.1276  122.0397   62.0581 H   0  0  0  0  0  0  0  0  0  0  0  0
  133.2224  120.2666   62.1481 H   0  0  0  0  0  0  0  0  0  0  0  0
  132.6059  121.1037   60.6833 H   0  0  0  0  0  0  0  0  0  0  0  0
  134.2547  120.3909   60.6833 H   0  0  0  0  0  0  0  0  0  0  0  0
  132.8465  125.1136   65.0237 H   0  0  0  0  0  0  0  0  0  0  0  0
  133.1546  126.0573   63.5267 H   0  0  0  0  0  0  0  0  0  0  0  0
  131.9226  124.7501   63.5267 H   0  0  0  0  0  0  0  0  0  0  0  0
  135.5610  125.2942   62.9655 H   0  0  0  0  0  0  0  0  0  0  0  0
  135.2014  123.9200   61.8661 H   0  0  0  0  0  0  0  0  0  0  0  0
  134.1426  125.3710   61.8661 H   0  0  0  0  0  0  0  0  0  0  0  0
  1  2  1  0
  2  3  1  0
  3  4  1  0
  4  5  1  0
  5  6  1  0
  6  7  1  0
  7  8  1  0
  8  9  1  0
  9 10  2  0
 10 11  1  0
 11 12  1  0
 12 13  1  0
 13 14  1  0
 14 15  2  0
 14 16  1  0
 16 17  1  0
 17 18  2  0
 18 19  1  0
 19 20  2  0
 20 21  1  0
 20 22  1  0
 22 23  2  0
 23 24  1  0
 13 25  2  0
 25 26  1  0
 25 27  1  0
 27 28  1  0
 28 29  2  0
 28 30  1  0
  6 31  2  0
 31 32  1  0
 32 33  2  0
 33 34  1  0
 34 35  1  0
 35 36  1  0
 34 37  1  0
 37 38  1  0
 37 39  1  0
 33  5  1  0
 30  9  1  0
 27 11  2  0
 23 17  1  0
  1 40  1  0
  1 41  1  0
  1 42  1  0
  2 43  1  0
  2 44  1  0
  3 45  1  0
  3 46  1  0
  4 47  1  0
  4 48  1  0
  8 49  1  0
  8 50  1  0
 16 51  1  0
 18 52  1  0
 19 53  1  0
 21 54  1  0
 21 55  1  0
 21 56  1  0
 22 57  1  0
 24 58  1  0
 24 59  1  0
 24 60  1  0
 26 61  1  0
 26 62  1  0
 26 63  1  0
 30 64  1  0
 34 65  1  1
 35 66  1  0
 35 67  1  0
 36 68  1  0
 36 69  1  0
 36 70  1  0
 38 71  1  0
 38 72  1  0
 38 73  1  0
 39 74  1  0
 39 75  1  0
 39 76  1  0
M  END
>  <Binding energies>  (1) 
[-7.86]

>  <Ligand effiencies>  (1) 
[-0.19170731707317074]

>  <Interactions>  (1) 
["V-A:ILE:369:CG2:3237, V-A:ASP:366:CA:3210, V-A:ARG:545:CA:4919, V-A:GLU:543:CA:4904, V-A:GLY:454:CA:4049, V-B:GLU:543:C:9874, V-A:ILE:369:CB:3236, H-B:GLU:543:O:9875, V-B:HIS:456:CD2:9039, V-A:GLU:543:C:4902, V-B:GLU:543:CB:9878, V-B:TYR:539:CE2:9848, V-B:GLU:543:CG:9879, V-A:GLY:544:C:4912, V-A:ASP:366:CG:3213, V-A:GLU:543:CD:4908, V-B:HIS:456:CE1:9041, H-A:GLY:454:N:4050, V-A:SER:385:C:3405, V-A:GLY:453:C:4042, V-A:ARG:545:CG:4922, V-A:ILE:369:CD1:3239, V-A:HIS:456:CE1:4070, V-A:ASP:366:C:3208, V-A:GLU:543:CG:4907, V-A:SER:385:CB:3409, V-B:GLU:543:CD:9880, V-A:ASP:366:CB:3212, V-A:LEU:475:CD2:4259, V-A:ARG:545:CZ:4926, V-A:GLU:543:CB:4906, V-A:GLY:453:CA:4044, V-A:SER:385:CA:3407, H-A:TYR:484:OH:4348"]

$$$$
ZINC514375295
     RDKit          3D

 72 75  0  0  0  0  0  0  0  0999 V2000
  125.3660  124.0640   59.4660 C   0  0  0  0  0  0  0  0  0  0  0  0
  126.4350  124.4610   58.4330 C   0  0  0  0  0  0  0  0  0  0  0  0
  127.1640  123.2140   57.8960 C   0  0  0  0  0  0  0  0  0  0  0  0
  127.3970  125.5150   59.0320 C   0  0  0  0  0  0  0  0  0  0  0  0
  127.7040  125.3220   60.4660 N   0  0  0  0  0  0  0  0  0  0  0  0
  127.4210  126.3050   61.3740 C   0  0  0  0  0  0  0  0  0  0  0  0
  126.2730  126.7150   61.5620 O   0  0  0  0  0  0  0  0  0  0  0  0
  128.5580  126.9800   62.1780 C   0  0  0  0  0  0  0  0  0  0  0  0
  129.4340  125.9360   63.4030 S   0  0  0  0  0  0  0  0  0  0  0  0
  129.1070  126.7930   64.9120 C   0  0  0  0  0  0  0  0  0  0  0  0
  128.3840  127.8830   64.9690 N   0  0  0  0  0  0  0  0  0  0  0  0
  128.3440  128.2910   66.2950 N   0  0  0  0  0  0  0  0  0  0  0  0
  129.0100  127.4060   66.9930 C   0  0  0  0  0  0  0  0  0  0  0  0
  129.2480  127.5270   68.4590 C   0  0  0  0  0  0  0  0  0  0  0  0
  130.5500  127.8060   68.8920 C   0  0  0  0  0  0  0  0  0  0  0  0
  130.8350  127.9180   70.2520 C   0  0  0  0  0  0  0  0  0  0  0  0
  129.8180  127.7520   71.1920 C   0  0  0  0  0  0  0  0  0  0  0  0
  130.1700  127.8820   72.8770 Cl  0  0  0  0  0  0  0  0  0  0  0  0
  128.5170  127.4770   70.7710 C   0  0  0  0  0  0  0  0  0  0  0  0
  128.2260  127.3650   69.4090 C   0  0  0  0  0  0  0  0  0  0  0  0
  126.6060  126.9870   68.9360 Cl  0  0  0  0  0  0  0  0  0  0  0  0
  129.4660  126.3810   66.1810 N   0  0  0  0  0  0  0  0  0  0  0  0
  130.2100  125.1700   66.5500 C   0  0  0  0  0  0  0  0  0  0  0  0
  131.2540  124.7490   65.5350 C   0  0  0  0  0  0  0  0  0  0  0  0
  132.4990  125.2440   65.1730 C   0  0  0  0  0  0  0  0  0  0  0  0
  132.9990  124.4050   64.1780 C   0  0  0  0  0  0  0  0  0  0  0  0
  132.0330  123.4370   63.9660 C   0  0  0  0  0  0  0  0  0  0  0  0
  130.9720  123.6500   64.7860 O   0  0  0  0  0  0  0  0  0  0  0  0
  128.4450  124.2080   60.7950 C   0  0  0  0  0  0  0  0  0  0  0  0
  129.7250  124.0350   60.3590 C   0  0  0  0  0  0  0  0  0  0  0  0
  130.3880  124.9660   59.5840 N   0  0  0  0  0  0  0  0  0  0  0  0
  130.4850  122.9150   60.6880 N   0  0  0  0  0  0  0  0  0  0  0  0
  131.8740  122.6610   60.2230 C   0  0  0  0  0  0  0  0  0  0  0  0
  132.9220  123.6900   60.7180 C   0  0  0  0  0  0  0  0  0  0  0  0
  133.5020  124.5650   59.5890 C   0  0  0  0  0  0  0  0  0  0  0  0
  134.0470  122.9800   61.4920 C   0  0  0  0  0  0  0  0  0  0  0  0
  129.9310  121.9020   61.4510 C   0  0  0  0  0  0  0  0  0  0  0  0
  130.4940  120.8590   61.7910 O   0  0  0  0  0  0  0  0  0  0  0  0
  128.6430  122.1210   61.8510 N   0  0  0  0  0  0  0  0  0  0  0  0
  127.8140  123.1680   61.6050 C   0  0  0  0  0  0  0  0  0  0  0  0
  126.6590  123.1850   62.0300 O   0  0  0  0  0  0  0  0  0  0  0  0
  125.7640  124.2118   60.4808 H   0  0  0  0  0  0  0  0  0  0  0  0
  124.4722  124.6902   59.3279 H   0  0  0  0  0  0  0  0  0  0  0  0
  125.0976  123.0062   59.3279 H   0  0  0  0  0  0  0  0  0  0  0  0
  125.9472  124.9321   57.5669 H   0  0  0  0  0  0  0  0  0  0  0  0
  127.5198  122.6053   58.7403 H   0  0  0  0  0  0  0  0  0  0  0  0
  126.4709  122.6200   57.2822 H   0  0  0  0  0  0  0  0  0  0  0  0
  128.0216  123.5266   57.2822 H   0  0  0  0  0  0  0  0  0  0  0  0
  128.3420  125.4759   58.4703 H   0  0  0  0  0  0  0  0  0  0  0  0
  126.8868  126.4861   58.9497 H   0  0  0  0  0  0  0  0  0  0  0  0
  129.3044  127.3449   61.4571 H   0  0  0  0  0  0  0  0  0  0  0  0
  128.0658  127.7665   62.7688 H   0  0  0  0  0  0  0  0  0  0  0  0
  131.3543  127.9378   68.1532 H   0  0  0  0  0  0  0  0  0  0  0  0
  131.8608  128.1370   70.5834 H   0  0  0  0  0  0  0  0  0  0  0  0
  127.7166  127.3477   71.5144 H   0  0  0  0  0  0  0  0  0  0  0  0
  130.7160  125.3548   67.5091 H   0  0  0  0  0  0  0  0  0  0  0  0
  129.4759  124.3527   66.6061 H   0  0  0  0  0  0  0  0  0  0  0  0
  132.9972  126.1307   65.5919 H   0  0  0  0  0  0  0  0  0  0  0  0
  133.9675  124.4946   63.6643 H   0  0  0  0  0  0  0  0  0  0  0  0
  132.1130  122.6151   63.2393 H   0  0  0  0  0  0  0  0  0  0  0  0
  130.5060  124.8270   58.5900 H   0  0  0  0  0  0  0  0  0  0  0  0
  130.7680  125.8100   59.9870 H   0  0  0  0  0  0  0  0  0  0  0  0
  132.1774  121.6652   60.5784 H   0  0  0  0  0  0  0  0  0  0  0  0
  131.8537  122.7420   59.1262 H   0  0  0  0  0  0  0  0  0  0  0  0
  132.3913  124.3767   61.3938 H   0  0  0  0  0  0  0  0  0  0  0  0
  134.0596  125.4062   60.0267 H   0  0  0  0  0  0  0  0  0  0  0  0
  134.1788  123.9604   58.9674 H   0  0  0  0  0  0  0  0  0  0  0  0
  132.6815  124.9528   58.9674 H   0  0  0  0  0  0  0  0  0  0  0  0
  133.8740  123.0892   62.5728 H   0  0  0  0  0  0  0  0  0  0  0  0
  134.0562  121.9121   61.2282 H   0  0  0  0  0  0  0  0  0  0  0  0
  135.0149  123.4312   61.2282 H   0  0  0  0  0  0  0  0  0  0  0  0
  128.2400  121.3820   62.4090 H   0  0  0  0  0  0  0  0  0  0  0  0
  1  2  1  0
  2  3  1  0
  2  4  1  0
  4  5  1  0
  5  6  1  0
  6  7  2  0
  6  8  1  0
  8  9  1  0
  9 10  1  0
 10 11  2  0
 11 12  1  0
 12 13  2  0
 13 14  1  0
 14 15  2  0
 15 16  1  0
 16 17  2  0
 17 18  1  0
 17 19  1  0
 19 20  2  0
 20 21  1  0
 13 22  1  0
 22 23  1  0
 23 24  1  0
 24 25  2  0
 25 26  1  0
 26 27  2  0
 27 28  1  0
  5 29  1  0
 29 30  2  0
 30 31  1  0
 30 32  1  0
 32 33  1  0
 33 34  1  0
 34 35  1  0
 34 36  1  0
 32 37  1  0
 37 38  2  0
 37 39  1  0
 39 40  1  0
 40 41  2  0
 22 10  1  0
 28 24  1  0
 40 29  1  0
 20 14  1  0
  1 42  1  0
  1 43  1  0
  1 44  1  0
  2 45  1  0
  3 46  1  0
  3 47  1  0
  3 48  1  0
  4 49  1  0
  4 50  1  0
  8 51  1  0
  8 52  1  0
 15 53  1  0
 16 54  1  0
 19 55  1  0
 23 56  1  0
 23 57  1  0
 25 58  1  0
 26 59  1  0
 27 60  1  0
 31 61  1  0
 31 62  1  0
 33 63  1  0
 33 64  1  0
 34 65  1  0
 35 66  1  0
 35 67  1  0
 35 68  1  0
 36 69  1  0
 36 70  1  0
 36 71  1  0
 39 72  1  0
M  END
>  <Binding energies>  (1) 
[-7.39]

>  <Ligand effiencies>  (1) 
[-0.16795454545454544]

>  <Interactions>  (1) 
["V-A:ILE:369:CG2:3237, V-A:ASP:366:CA:3210, V-B:PRO:540:CA:9855, V-B:HIS:456:CD2:9039, V-B:GLU:543:C:9874, V-A:GLU:543:C:4902, V-B:GLU:543:CB:9878, V-B:ALA:541:CB:9864, V-B:TYR:539:CE2:9848, V-A:TYR:484:CE2:4346, V-B:GLU:543:CG:9879, V-A:GLY:544:C:4912, V-A:ASP:366:CG:3213, H-B:TYR:539:OH:9850, V-B:ARG:545:CG:9894, H-B:ALA:541:N:9863, V-A:GLU:543:CD:4908, V-B:PRO:540:CB:9857, V-A:TYR:484:CZ:4347, V-B:HIS:456:CE1:9041, V-B:GLU:543:CA:9876, V-B:PRO:540:N:9856, V-A:ILE:369:CD1:3239, V-A:HIS:456:CE1:4070, V-B:GLY:544:C:9884, V-B:TYR:539:CD2:9846, V-B:GLU:543:CD:9880, V-A:ASP:366:CB:3212, V-A:LEU:475:CD2:4259, V-A:ARG:545:CZ:4926, H-B:ARG:545:NH2:9900, V-A:GLU:543:CB:4906, V-B:PRO:540:C:9853, H-A:TYR:484:OH:4348"]

$$$$
ZINC514375481
     RDKit          3D

 63 66  0  0  0  0  0  0  0  0999 V2000
  133.3100  131.8190   61.6720 C   0  0  0  0  0  0  0  0  0  0  0  0
  132.0540  131.0690   61.2050 C   0  0  0  0  0  0  0  0  0  0  0  0
  131.2640  131.8320   60.2040 N   0  0  0  0  0  0  0  0  0  0  0  0
  129.8770  132.2230   60.5610 C   0  0  0  0  0  0  0  0  0  0  0  0
  129.6600  132.1930   62.0800 C   0  0  0  0  0  0  0  0  0  0  0  0
  131.6180  131.5590   58.4880 S   0  0  0  0  0  0  0  0  0  0  0  0
  130.8600  132.5370   57.6980 O   0  0  0  0  0  0  0  0  0  0  0  0
  133.0750  131.4510   58.3430 O   0  0  0  0  0  0  0  0  0  0  0  0
  130.9090  129.9540   58.1330 C   0  0  0  0  0  0  0  0  0  0  0  0
  129.6300  129.8470   57.5820 C   0  0  0  0  0  0  0  0  0  0  0  0
  129.1060  128.5910   57.2800 C   0  0  0  0  0  0  0  0  0  0  0  0
  129.8570  127.4430   57.5270 C   0  0  0  0  0  0  0  0  0  0  0  0
  131.1380  127.5380   58.0850 C   0  0  0  0  0  0  0  0  0  0  0  0
  131.9320  126.2980   58.3330 C   0  0  0  0  0  0  0  0  0  0  0  0
  132.9230  125.9190   57.5630 N   0  0  0  0  0  0  0  0  0  0  0  0
  133.4050  124.7180   58.0640 N   0  0  0  0  0  0  0  0  0  0  0  0
  132.6770  124.4010   59.1080 C   0  0  0  0  0  0  0  0  0  0  0  0
  132.8620  122.9150   60.0480 S   0  0  0  0  0  0  0  0  0  0  0  0
  134.3110  123.3680   61.0610 C   0  0  0  0  0  0  0  0  0  0  0  0
  133.9880  123.9890   62.4090 C   0  0  0  0  0  0  0  0  0  0  0  0
  134.7330  124.7490   63.1780 N   0  0  0  0  0  0  0  0  0  0  0  0
  133.9610  125.0440   64.2970 N   0  0  0  0  0  0  0  0  0  0  0  0
  132.8170  124.4320   64.1160 C   0  0  0  0  0  0  0  0  0  0  0  0
  131.6620  124.4170   64.9880 C   0  0  0  0  0  0  0  0  0  0  0  0
  130.6070  123.5310   65.1580 C   0  0  0  0  0  0  0  0  0  0  0  0
  129.7900  124.0590   66.1590 C   0  0  0  0  0  0  0  0  0  0  0  0
  130.3770  125.2470   66.5590 C   0  0  0  0  0  0  0  0  0  0  0  0
  129.8830  126.5410   67.8630 Br  0  0  0  0  0  0  0  0  0  0  0  0
  131.5130  125.4610   65.8480 O   0  0  0  0  0  0  0  0  0  0  0  0
  132.7680  123.7440   62.9470 O   0  0  0  0  0  0  0  0  0  0  0  0
  131.7260  125.3740   59.3440 N   0  0  0  0  0  0  0  0  0  0  0  0
  130.6540  125.3300   60.3450 C   0  0  0  0  0  0  0  0  0  0  0  0
  131.0310  126.0770   61.6500 C   0  0  0  0  0  0  0  0  0  0  0  0
  129.9590  125.9600   62.7530 C   0  0  0  0  0  0  0  0  0  0  0  0
  131.3500  127.5530   61.3550 C   0  0  0  0  0  0  0  0  0  0  0  0
  131.6630  128.8030   58.3700 C   0  0  0  0  0  0  0  0  0  0  0  0
  133.3391  131.8364   62.7715 H   0  0  0  0  0  0  0  0  0  0  0  0
  134.2058  131.3078   61.2895 H   0  0  0  0  0  0  0  0  0  0  0  0
  133.2848  132.8501   61.2895 H   0  0  0  0  0  0  0  0  0  0  0  0
  132.3625  130.1140   60.7547 H   0  0  0  0  0  0  0  0  0  0  0  0
  131.4129  130.9178   62.0860 H   0  0  0  0  0  0  0  0  0  0  0  0
  129.6862  133.2417   60.1923 H   0  0  0  0  0  0  0  0  0  0  0  0
  129.1848  131.5042   60.0982 H   0  0  0  0  0  0  0  0  0  0  0  0
  130.6250  132.3264   62.5909 H   0  0  0  0  0  0  0  0  0  0  0  0
  128.9768  133.0052   62.3689 H   0  0  0  0  0  0  0  0  0  0  0  0
  129.2228  131.2259   62.3689 H   0  0  0  0  0  0  0  0  0  0  0  0
  129.0370  130.7526   57.3866 H   0  0  0  0  0  0  0  0  0  0  0  0
  128.0987  128.5058   56.8463 H   0  0  0  0  0  0  0  0  0  0  0  0
  129.4403  126.4549   57.2818 H   0  0  0  0  0  0  0  0  0  0  0  0
  134.9006  122.4565   61.2386 H   0  0  0  0  0  0  0  0  0  0  0  0
  134.8531  124.1376   60.4920 H   0  0  0  0  0  0  0  0  0  0  0  0
  130.4456  122.5918   64.6086 H   0  0  0  0  0  0  0  0  0  0  0  0
  128.8623  123.6179   66.5525 H   0  0  0  0  0  0  0  0  0  0  0  0
  129.7536  125.7965   59.9187 H   0  0  0  0  0  0  0  0  0  0  0  0
  130.4790  124.2748   60.6019 H   0  0  0  0  0  0  0  0  0  0  0  0
  131.9316  125.5821   62.0425 H   0  0  0  0  0  0  0  0  0  0  0  0
  130.4414  126.0126   63.7402 H   0  0  0  0  0  0  0  0  0  0  0  0
  129.2381  126.7848   62.6527 H   0  0  0  0  0  0  0  0  0  0  0  0
  129.4330  124.9991   62.6527 H   0  0  0  0  0  0  0  0  0  0  0  0
  131.4680  128.0991   62.3026 H   0  0  0  0  0  0  0  0  0  0  0  0
  132.2829  127.6178   60.7758 H   0  0  0  0  0  0  0  0  0  0  0  0
  130.5271  127.9973   60.7758 H   0  0  0  0  0  0  0  0  0  0  0  0
  132.6782  128.8916   58.7842 H   0  0  0  0  0  0  0  0  0  0  0  0
  1  2  1  0
  2  3  1  0
  3  4  1  0
  4  5  1  0
  3  6  1  0
  6  7  2  0
  6  8  2  0
  6  9  1  0
  9 10  2  0
 10 11  1  0
 11 12  2  0
 12 13  1  0
 13 14  1  0
 14 15  2  0
 15 16  1  0
 16 17  2  0
 17 18  1  0
 18 19  1  0
 19 20  1  0
 20 21  2  0
 21 22  1  0
 22 23  2  0
 23 24  1  0
 24 25  2  0
 25 26  1  0
 26 27  2  0
 27 28  1  0
 27 29  1  0
 23 30  1  0
 17 31  1  0
 31 32  1  0
 32 33  1  0
 33 34  1  0
 33 35  1  0
 13 36  2  0
 36  9  1  0
 31 14  1  0
 30 20  1  0
 29 24  1  0
  1 37  1  0
  1 38  1  0
  1 39  1  0
  2 40  1  0
  2 41  1  0
  4 42  1  0
  4 43  1  0
  5 44  1  0
  5 45  1  0
  5 46  1  0
 10 47  1  0
 11 48  1  0
 12 49  1  0
 19 50  1  0
 19 51  1  0
 25 52  1  0
 26 53  1  0
 32 54  1  0
 32 55  1  0
 33 56  1  0
 34 57  1  0
 34 58  1  0
 34 59  1  0
 35 60  1  0
 35 61  1  0
 35 62  1  0
 36 63  1  0
M  END
>  <Binding energies>  (1) 
[-8.84]

>  <Ligand effiencies>  (1) 
[-0.24555555555555555]

>  <Interactions>  (1) 
["V-A:ILE:369:CG2:3237, V-A:ILE:369:CB:3236, V-B:GLU:543:CB:9878, H-A:TYR:531:OH:4795, H-A:ARG:545:NH1:4927, V-B:TYR:539:CE2:9848, V-A:TYR:484:CE2:4346, V-B:GLU:543:CG:9879, V-A:ASP:366:CG:3213, V-A:ASN:362:CB:3176, V-B:TYR:539:CZ:9849, H-B:TYR:539:OH:9850, V-A:ALA:541:CB:4892, V-A:TYR:484:CZ:4347, V-B:GLU:543:CA:9876, H-A:GLY:454:N:4050, V-A:ILE:369:CD1:3239, V-A:HIS:456:CE1:4070, V-A:MET:535:CE:4835, V-A:ASP:366:CB:3212, H-A:ARG:545:NH2:4928, V-A:ARG:545:CZ:4926, V-A:PRO:540:CB:4885, V-A:PRO:540:CA:4883, H-A:ARG:545:NE:4924, H-A:TYR:484:OH:4348"]

$$$$
ZINC514383119
     RDKit          3D

 56 58  0  0  0  0  0  0  0  0999 V2000
  127.6130  123.1630   58.3990 C   0  0  0  0  0  0  0  0  0  0  0  0
  127.2330  122.9400   59.7530 O   0  0  0  0  0  0  0  0  0  0  0  0
  128.1650  123.1120   60.7610 C   0  0  0  0  0  0  0  0  0  0  0  0
  129.5330  123.3220   60.5270 C   0  0  0  0  0  0  0  0  0  0  0  0
  130.4270  123.4850   61.5840 C   0  0  0  0  0  0  0  0  0  0  0  0
  132.2680  123.7830   61.1770 Br  0  0  0  0  0  0  0  0  0  0  0  0
  129.9630  123.4350   62.9040 C   0  0  0  0  0  0  0  0  0  0  0  0
  130.9020  123.6100   64.0960 C   0  0  0  0  0  0  0  0  0  0  0  0
  130.5740  124.7840   64.9140 N   0  0  0  0  0  0  0  0  0  0  0  0
  129.5100  125.5670   64.2600 C   0  0  0  0  0  0  0  0  0  0  0  0
  129.2250  126.8470   65.0810 C   0  0  0  0  0  0  0  0  0  0  0  0
  128.8340  126.4660   66.4580 N   0  0  0  0  0  0  0  0  0  0  0  0
  128.1300  127.7560   67.4440 S   0  0  0  0  0  0  0  0  0  0  0  0
  128.5050  129.0450   66.8510 O   0  0  0  0  0  0  0  0  0  0  0  0
  126.7170  127.4340   67.6820 O   0  0  0  0  0  0  0  0  0  0  0  0
  128.9620  127.6170   69.0240 C   0  0  0  0  0  0  0  0  0  0  0  0
  130.2230  128.1830   69.1980 C   0  0  0  0  0  0  0  0  0  0  0  0
  130.8660  128.0890   70.4290 C   0  0  0  0  0  0  0  0  0  0  0  0
  130.2600  127.4300   71.5140 C   0  0  0  0  0  0  0  0  0  0  0  0
  130.8700  127.2910   72.7490 O   0  0  0  0  0  0  0  0  0  0  0  0
  130.1850  127.7030   73.9280 C   0  0  0  0  0  0  0  0  0  0  0  0
  128.9790  126.8660   71.3390 C   0  0  0  0  0  0  0  0  0  0  0  0
  128.2830  126.1670   72.4410 N   0  0  0  0  0  0  0  0  0  0  0  0
  127.2590  126.6650   72.9010 O   0  0  0  0  0  0  0  0  0  0  0  0
  128.7500  125.1020   72.8350 O   0  0  0  0  0  0  0  0  0  0  0  0
  128.3470  126.9630   70.0910 C   0  0  0  0  0  0  0  0  0  0  0  0
  129.8930  125.6650   67.1140 C   0  0  0  0  0  0  0  0  0  0  0  0
  130.1600  124.3940   66.2770 C   0  0  0  0  0  0  0  0  0  0  0  0
  128.6000  123.2420   63.1410 C   0  0  0  0  0  0  0  0  0  0  0  0
  127.6930  123.0740   62.0810 C   0  0  0  0  0  0  0  0  0  0  0  0
  126.3360  122.8670   62.2590 O   0  0  0  0  0  0  0  0  0  0  0  0
  125.4040  123.7230   61.6060 C   0  0  0  0  0  0  0  0  0  0  0  0
  128.5614  123.7196   58.3712 H   0  0  0  0  0  0  0  0  0  0  0  0
  127.7402  122.1962   57.8899 H   0  0  0  0  0  0  0  0  0  0  0  0
  126.8310  123.7455   57.8899 H   0  0  0  0  0  0  0  0  0  0  0  0
  129.9056  123.3585   59.4927 H   0  0  0  0  0  0  0  0  0  0  0  0
  130.8374  122.7124   64.7285 H   0  0  0  0  0  0  0  0  0  0  0  0
  131.9167  123.7581   63.6980 H   0  0  0  0  0  0  0  0  0  0  0  0
  129.8325  125.8470   63.2463 H   0  0  0  0  0  0  0  0  0  0  0  0
  128.5944  124.9601   64.2018 H   0  0  0  0  0  0  0  0  0  0  0  0
  130.1301  127.4713   65.1150 H   0  0  0  0  0  0  0  0  0  0  0  0
  128.4094  127.4145   64.6091 H   0  0  0  0  0  0  0  0  0  0  0  0
  130.7111  128.7048   68.3617 H   0  0  0  0  0  0  0  0  0  0  0  0
  131.8628  128.5367   70.5552 H   0  0  0  0  0  0  0  0  0  0  0  0
  130.7443  127.3666   74.8135 H   0  0  0  0  0  0  0  0  0  0  0  0
  130.1038  128.7999   73.9405 H   0  0  0  0  0  0  0  0  0  0  0  0
  129.1780  127.2606   73.9405 H   0  0  0  0  0  0  0  0  0  0  0  0
  127.3514  126.5166   69.9517 H   0  0  0  0  0  0  0  0  0  0  0  0
  130.8153  126.2605   67.1832 H   0  0  0  0  0  0  0  0  0  0  0  0
  129.5680  125.3801   68.1255 H   0  0  0  0  0  0  0  0  0  0  0  0
  130.9597  123.8046   66.7492 H   0  0  0  0  0  0  0  0  0  0  0  0
  129.2430  123.7888   66.2241 H   0  0  0  0  0  0  0  0  0  0  0  0
  128.2298  123.2211   64.1766 H   0  0  0  0  0  0  0  0  0  0  0  0
  124.8138  124.2651   62.3595 H   0  0  0  0  0  0  0  0  0  0  0  0
  125.9467  124.4440   60.9770 H   0  0  0  0  0  0  0  0  0  0  0  0
  124.7316  123.1211   60.9770 H   0  0  0  0  0  0  0  0  0  0  0  0
  1  2  1  0
  2  3  1  0
  3  4  2  0
  4  5  1  0
  5  6  1  0
  5  7  2  0
  7  8  1  0
  8  9  1  0
  9 10  1  0
 10 11  1  0
 11 12  1  0
 12 13  1  0
 13 14  2  0
 13 15  2  0
 13 16  1  0
 16 17  2  0
 17 18  1  0
 18 19  2  0
 19 20  1  0
 20 21  1  0
 19 22  1  0
 22 23  1  0
 23 24  2  0
 23 25  1  0
 22 26  2  0
 12 27  1  0
 27 28  1  0
  7 29  1  0
 29 30  2  0
 30 31  1  0
 31 32  1  0
 30  3  1  0
 28  9  1  0
 26 16  1  0
  1 33  1  0
  1 34  1  0
  1 35  1  0
  4 36  1  0
  8 37  1  0
  8 38  1  0
 10 39  1  0
 10 40  1  0
 11 41  1  0
 11 42  1  0
 17 43  1  0
 18 44  1  0
 21 45  1  0
 21 46  1  0
 21 47  1  0
 26 48  1  0
 27 49  1  0
 27 50  1  0
 28 51  1  0
 28 52  1  0
 29 53  1  0
 32 54  1  0
 32 55  1  0
 32 56  1  0
M  CHG  2  23   1  25  -1
M  END
>  <Binding energies>  (1) 
[-8.26]

>  <Ligand effiencies>  (1) 
[-0.258125]

>  <Interactions>  (1) 
["V-B:PRO:540:CA:9855, V-A:GLU:543:CA:4904, V-B:GLU:543:C:9874, V-A:GLU:543:C:4902, V-B:GLU:543:CB:9878, H-B:LYS:547:NZ:9923, V-B:ALA:541:CB:9864, V-B:TYR:539:CE2:9848, V-A:TYR:484:CE2:4346, V-B:GLU:543:CG:9879, V-A:GLY:544:C:4912, V-A:HIS:456:CD2:4068, V-B:LYS:547:CE:9922, H-B:ALA:541:N:9863, V-A:GLU:543:CD:4908, V-A:TYR:484:CZ:4347, V-B:PRO:540:CB:9857, V-B:HIS:456:CE1:9041, V-B:PRO:540:N:9856, V-A:HIS:456:CE1:4070, V-B:GLY:544:CA:9886, V-B:GLU:543:CD:9880, H-A:LYS:547:NZ:4951, V-A:GLU:543:CB:4906, H-A:TYR:484:OH:4348"]

$$$$
ZINC514384611
     RDKit          3D

 67 72  0  0  0  0  0  0  0  0999 V2000
  133.4820  124.1640   59.1330 C   0  0  0  0  0  0  0  0  0  0  0  0
  132.2730  124.7360   59.0220 C   0  0  0  0  0  0  0  0  0  0  0  0
  131.6160  125.5890   60.0870 C   0  0  0  0  0  0  0  0  0  0  0  0
  131.0540  124.7570   61.0990 O   0  0  0  0  0  0  0  0  0  0  0  0
  131.4900  124.8800   62.4070 C   0  0  0  0  0  0  0  0  0  0  0  0
  132.8350  124.7090   62.7860 C   0  0  0  0  0  0  0  0  0  0  0  0
  133.2240  124.8320   64.1180 C   0  0  0  0  0  0  0  0  0  0  0  0
  132.2780  125.1270   65.0940 C   0  0  0  0  0  0  0  0  0  0  0  0
  130.9440  125.3040   64.7350 C   0  0  0  0  0  0  0  0  0  0  0  0
  130.5420  125.2010   63.3990 C   0  0  0  0  0  0  0  0  0  0  0  0
  129.0460  125.3630   63.0960 C   0  0  0  0  0  0  0  0  0  0  0  0
  128.6260  126.4590   62.2000 N   0  0  0  0  0  0  0  0  0  0  0  0
  128.0320  126.2100   60.9940 C   0  0  0  0  0  0  0  0  0  0  0  0
  128.6890  125.9660   59.9800 O   0  0  0  0  0  0  0  0  0  0  0  0
  126.4950  126.2760   60.8510 C   0  0  0  0  0  0  0  0  0  0  0  0
  125.7430  124.7530   60.1950 S   0  0  0  0  0  0  0  0  0  0  0  0
  126.9440  123.6200   60.8110 C   0  0  0  0  0  0  0  0  0  0  0  0
  126.9310  123.1490   62.0340 N   0  0  0  0  0  0  0  0  0  0  0  0
  128.0030  122.2720   62.1590 N   0  0  0  0  0  0  0  0  0  0  0  0
  128.6070  122.2300   60.9960 C   0  0  0  0  0  0  0  0  0  0  0  0
  129.8400  121.4010   60.6760 C   0  0  0  0  0  0  0  0  0  0  0  0
  131.0770  121.4620   61.5420 C   0  0  0  0  0  0  0  0  0  0  0  0
  130.2030  120.2240   61.5480 C   0  0  0  0  0  0  0  0  0  0  0  0
  127.9520  123.0250   60.0790 N   0  0  0  0  0  0  0  0  0  0  0  0
  128.3150  123.2530   58.6840 C   0  0  0  0  0  0  0  0  0  0  0  0
  127.6180  122.4420   57.6090 C   0  0  0  0  0  0  0  0  0  0  0  0
  127.3050  123.9050   57.7590 C   0  0  0  0  0  0  0  0  0  0  0  0
  128.5300  127.7240   62.8020 C   0  0  0  0  0  0  0  0  0  0  0  0
  128.3410  127.8330   64.1860 C   0  0  0  0  0  0  0  0  0  0  0  0
  128.2610  129.0900   64.7870 C   0  0  0  0  0  0  0  0  0  0  0  0
  128.3540  130.2390   64.0030 C   0  0  0  0  0  0  0  0  0  0  0  0
  128.5340  130.1320   62.6140 C   0  0  0  0  0  0  0  0  0  0  0  0
  128.6030  128.8780   62.0120 C   0  0  0  0  0  0  0  0  0  0  0  0
  128.5880  131.2410   61.7950 O   0  0  0  0  0  0  0  0  0  0  0  0
  128.9170  132.4520   62.4800 C   0  0  0  0  0  0  0  0  0  0  0  0
  128.0910  132.5750   63.7830 C   0  0  0  0  0  0  0  0  0  0  0  0
  128.3360  131.4590   64.6470 O   0  0  0  0  0  0  0  0  0  0  0  0
  133.8821  123.5587   58.3062 H   0  0  0  0  0  0  0  0  0  0  0  0
  134.0729  124.3005   60.0508 H   0  0  0  0  0  0  0  0  0  0  0  0
  131.7173  124.5729   58.0868 H   0  0  0  0  0  0  0  0  0  0  0  0
  132.3684  126.2531   60.5375 H   0  0  0  0  0  0  0  0  0  0  0  0
  130.8168  126.1890   59.6273 H   0  0  0  0  0  0  0  0  0  0  0  0
  133.5890  124.4751   62.0200 H   0  0  0  0  0  0  0  0  0  0  0  0
  134.2791  124.6958   64.3978 H   0  0  0  0  0  0  0  0  0  0  0  0
  132.5827  125.2203   66.1468 H   0  0  0  0  0  0  0  0  0  0  0  0
  130.1975  125.5275   65.5114 H   0  0  0  0  0  0  0  0  0  0  0  0
  128.7023  124.4219   62.6420 H   0  0  0  0  0  0  0  0  0  0  0  0
  128.5996  125.6217   64.0675 H   0  0  0  0  0  0  0  0  0  0  0  0
  126.0640  126.4743   61.8434 H   0  0  0  0  0  0  0  0  0  0  0  0
  126.2780  127.0744   60.1262 H   0  0  0  0  0  0  0  0  0  0  0  0
  129.6449  121.5538   59.6043 H   0  0  0  0  0  0  0  0  0  0  0  0
  132.0747  121.4293   61.0799 H   0  0  0  0  0  0  0  0  0  0  0  0
  131.4564  122.1513   62.3107 H   0  0  0  0  0  0  0  0  0  0  0  0
  130.5663  119.2919   61.0907 H   0  0  0  0  0  0  0  0  0  0  0  0
  129.6847  119.6412   62.3237 H   0  0  0  0  0  0  0  0  0  0  0  0
  129.3610  123.4518   58.9602 H   0  0  0  0  0  0  0  0  0  0  0  0
  128.1837  122.0883   56.7344 H   0  0  0  0  0  0  0  0  0  0  0  0
  127.0214  121.5179   57.5983 H   0  0  0  0  0  0  0  0  0  0  0  0
  127.6422  124.6201   56.9942 H   0  0  0  0  0  0  0  0  0  0  0  0
  126.3855  124.4913   57.9033 H   0  0  0  0  0  0  0  0  0  0  0  0
  128.2554  126.9249   64.8008 H   0  0  0  0  0  0  0  0  0  0  0  0
  128.1251  129.1739   65.8753 H   0  0  0  0  0  0  0  0  0  0  0  0
  128.7143  128.7944   60.9208 H   0  0  0  0  0  0  0  0  0  0  0  0
  129.9885  132.4483   62.7289 H   0  0  0  0  0  0  0  0  0  0  0  0
  128.6841  133.3063   61.8273 H   0  0  0  0  0  0  0  0  0  0  0  0
  128.3732  133.5025   64.3028 H   0  0  0  0  0  0  0  0  0  0  0  0
  127.0223  132.5921   63.5231 H   0  0  0  0  0  0  0  0  0  0  0  0
  1  2  2  0
  2  3  1  0
  3  4  1  0
  4  5  1  0
  5  6  2  0
  6  7  1  0
  7  8  2  0
  8  9  1  0
  9 10  2  0
 10 11  1  0
 11 12  1  0
 12 13  1  0
 13 14  2  0
 13 15  1  0
 15 16  1  0
 16 17  1  0
 17 18  2  0
 18 19  1  0
 19 20  2  0
 20 21  1  0
 21 22  1  0
 22 23  1  0
 20 24  1  0
 24 25  1  0
 25 26  1  0
 26 27  1  0
 12 28  1  0
 28 29  2  0
 29 30  1  0
 30 31  2  0
 31 32  1  0
 32 33  2  0
 32 34  1  0
 34 35  1  0
 35 36  1  0
 36 37  1  0
 10  5  1  0
 24 17  1  0
 27 25  1  0
 33 28  1  0
 23 21  1  0
 37 31  1  0
  1 38  1  0
  1 39  1  0
  2 40  1  0
  3 41  1  0
  3 42  1  0
  6 43  1  0
  7 44  1  0
  8 45  1  0
  9 46  1  0
 11 47  1  0
 11 48  1  0
 15 49  1  0
 15 50  1  0
 21 51  1  0
 22 52  1  0
 22 53  1  0
 23 54  1  0
 23 55  1  0
 25 56  1  0
 26 57  1  0
 26 58  1  0
 27 59  1  0
 27 60  1  0
 29 61  1  0
 30 62  1  0
 33 63  1  0
 35 64  1  0
 35 65  1  0
 36 66  1  0
 36 67  1  0
M  END
>  <Binding energies>  (1) 
[-6.93]

>  <Ligand effiencies>  (1) 
[-0.1872972972972973]

>  <Interactions>  (1) 
["V-A:ILE:369:CG2:3237, V-A:ASP:366:CA:3210, V-B:PRO:540:CA:9855, V-B:TYR:539:CA:9841, V-A:ILE:369:CB:3236, V-B:ASP:366:CG:8184, V-B:ALA:541:CB:9864, V-B:TYR:539:CE2:9848, V-B:GLU:543:CG:9879, V-B:LEU:475:CD2:9230, V-B:TYR:539:C:9839, V-A:ASP:366:CG:3213, V-B:TYR:539:CZ:9849, V-A:ALA:541:CB:4892, H-B:ALA:541:N:9863, V-A:GLU:543:CD:4908, V-B:PRO:540:CB:9857, H-B:TYR:484:OH:9319, V-B:PRO:540:N:9856, V-B:TYR:539:CD2:9846, V-A:GLU:543:CG:4907, V-B:GLU:543:CD:9880, V-A:ASP:366:CB:3212, V-A:LEU:475:CD2:4259, V-A:ARG:545:CZ:4926, V-B:TYR:539:CG:9844, V-B:TYR:539:CD1:9845, V-B:PRO:540:C:9853, V-B:TYR:539:CE1:9847"]

$$$$
ZINC514387826
     RDKit          3D

 67 69  0  0  0  0  0  0  0  0999 V2000
  130.1200  122.3250   63.8850 C   0  0  0  0  0  0  0  0  0  0  0  0
  130.9520  123.3270   63.0610 C   0  0  0  0  0  0  0  0  0  0  0  0
  131.7790  122.5990   61.9880 C   0  0  0  0  0  0  0  0  0  0  0  0
  131.8190  124.1470   63.9060 N   0  0  0  0  0  0  0  0  0  0  0  0
  131.4070  124.8530   65.0560 C   0  0  0  0  0  0  0  0  0  0  0  0
  130.0430  125.1160   65.2690 C   0  0  0  0  0  0  0  0  0  0  0  0
  129.6040  125.8060   66.3920 C   0  0  0  0  0  0  0  0  0  0  0  0
  130.5260  126.2540   67.3340 C   0  0  0  0  0  0  0  0  0  0  0  0
  129.9840  127.1490   68.7870 S   0  0  0  0  0  0  0  0  0  0  0  0
  129.0870  126.2530   69.5260 O   0  0  0  0  0  0  0  0  0  0  0  0
  131.1760  127.7150   69.4290 O   0  0  0  0  0  0  0  0  0  0  0  0
  129.0270  128.4940   68.1730 N   0  0  0  0  0  0  0  0  0  0  0  0
  127.8810  128.2960   67.2990 C   0  0  0  0  0  0  0  0  0  0  0  0
  127.6930  129.4770   66.3310 C   0  0  0  0  0  0  0  0  0  0  0  0
  128.2880  130.5460   66.4890 O   0  0  0  0  0  0  0  0  0  0  0  0
  126.8500  129.2540   65.3090 N   0  0  0  0  0  0  0  0  0  0  0  0
  126.4980  130.2250   64.2740 C   0  0  0  0  0  0  0  0  0  0  0  0
  127.6930  130.6060   63.4140 C   0  0  0  0  0  0  0  0  0  0  0  0
  128.1010  131.9390   63.3380 C   0  0  0  0  0  0  0  0  0  0  0  0
  129.1730  132.2940   62.5240 C   0  0  0  0  0  0  0  0  0  0  0  0
  129.8310  131.3220   61.7610 C   0  0  0  0  0  0  0  0  0  0  0  0
  131.0130  131.6830   60.8930 C   0  0  0  0  0  0  0  0  0  0  0  0
  132.0060  132.1640   61.4460 O   0  0  0  0  0  0  0  0  0  0  0  0
  130.9540  131.4610   59.5490 N   0  0  0  0  0  0  0  0  0  0  0  0
  129.8620  130.7420   58.8600 C   0  0  0  0  0  0  0  0  0  0  0  0
  129.2390  131.7190   57.8380 C   0  0  0  0  0  0  0  0  0  0  0  0
  130.2920  132.2940   56.8720 C   0  0  0  0  0  0  0  0  0  0  0  0
  131.5000  132.8640   57.6400 C   0  0  0  0  0  0  0  0  0  0  0  0
  132.0710  131.8610   58.6680 C   0  0  0  0  0  0  0  0  0  0  0  0
  129.4210  129.9870   61.8460 C   0  0  0  0  0  0  0  0  0  0  0  0
  128.3490  129.6320   62.6580 C   0  0  0  0  0  0  0  0  0  0  0  0
  131.8830  126.0110   67.1350 C   0  0  0  0  0  0  0  0  0  0  0  0
  132.3560  125.3110   66.0100 C   0  0  0  0  0  0  0  0  0  0  0  0
  133.8310  125.0920   65.8900 N   0  0  0  0  0  0  0  0  0  0  0  0
  134.5190  124.9080   66.8890 O   0  0  0  0  0  0  0  0  0  0  0  0
  134.3330  125.1020   64.7680 O   0  0  0  0  0  0  0  0  0  0  0  0
  130.2763  122.5132   64.9575 H   0  0  0  0  0  0  0  0  0  0  0  0
  129.0540  122.4471   63.6428 H   0  0  0  0  0  0  0  0  0  0  0  0
  130.4359  121.2996   63.6428 H   0  0  0  0  0  0  0  0  0  0  0  0
  130.2420  124.0033   62.5624 H   0  0  0  0  0  0  0  0  0  0  0  0
  132.5193  121.9473   62.4752 H   0  0  0  0  0  0  0  0  0  0  0  0
  131.1112  121.9903   61.3607 H   0  0  0  0  0  0  0  0  0  0  0  0
  132.2981  123.3386   61.3607 H   0  0  0  0  0  0  0  0  0  0  0  0
  132.7900  124.2160   63.6370 H   0  0  0  0  0  0  0  0  0  0  0  0
  129.3065  124.7677   64.5299 H   0  0  0  0  0  0  0  0  0  0  0  0
  128.5306  125.9979   66.5365 H   0  0  0  0  0  0  0  0  0  0  0  0
  129.4690  129.4180   68.1500 H   0  0  0  0  0  0  0  0  0  0  0  0
  128.0331  127.3767   66.7145 H   0  0  0  0  0  0  0  0  0  0  0  0
  126.9805  128.2199   67.9261 H   0  0  0  0  0  0  0  0  0  0  0  0
  126.3920  128.3560   65.2490 H   0  0  0  0  0  0  0  0  0  0  0  0
  125.7215  129.7889   63.6284 H   0  0  0  0  0  0  0  0  0  0  0  0
  126.1374  131.1360   64.7740 H   0  0  0  0  0  0  0  0  0  0  0  0
  127.5752  132.7090   63.9216 H   0  0  0  0  0  0  0  0  0  0  0  0
  129.5043  133.3420   62.4801 H   0  0  0  0  0  0  0  0  0  0  0  0
  130.2623  129.8590   58.3404 H   0  0  0  0  0  0  0  0  0  0  0  0
  129.1056  130.4002   59.5819 H   0  0  0  0  0  0  0  0  0  0  0  0
  128.4765  131.1830   57.2538 H   0  0  0  0  0  0  0  0  0  0  0  0
  128.7967  132.5574   58.3961 H   0  0  0  0  0  0  0  0  0  0  0  0
  130.6383  131.4940   56.2011 H   0  0  0  0  0  0  0  0  0  0  0  0
  129.8288  133.1091   56.2967 H   0  0  0  0  0  0  0  0  0  0  0  0
  132.2899  133.1179   56.9178 H   0  0  0  0  0  0  0  0  0  0  0  0
  131.1580  133.7519   58.1919 H   0  0  0  0  0  0  0  0  0  0  0  0
  132.4777  130.9798   58.1501 H   0  0  0  0  0  0  0  0  0  0  0  0
  132.8856  132.3168   59.2499 H   0  0  0  0  0  0  0  0  0  0  0  0
  129.9490  129.2144   61.2678 H   0  0  0  0  0  0  0  0  0  0  0  0
  128.0179  128.5841   62.7047 H   0  0  0  0  0  0  0  0  0  0  0  0
  132.6058  126.3770   67.8790 H   0  0  0  0  0  0  0  0  0  0  0  0
  1  2  1  0
  2  3  1  0
  2  4  1  0
  4  5  1  0
  5  6  2  0
  6  7  1  0
  7  8  2  0
  8  9  1  0
  9 10  2  0
  9 11  2  0
  9 12  1  0
 12 13  1  0
 13 14  1  0
 14 15  2  0
 14 16  1  0
 16 17  1  0
 17 18  1  0
 18 19  2  0
 19 20  1  0
 20 21  2  0
 21 22  1  0
 22 23  2  0
 22 24  1  0
 24 25  1  0
 25 26  1  0
 26 27  1  0
 27 28  1  0
 28 29  1  0
 21 30  1  0
 30 31  2  0
  8 32  1  0
 32 33  2  0
 33 34  1  0
 34 35  2  0
 34 36  1  0
 33  5  1  0
 31 18  1  0
 29 24  1  0
  1 37  1  0
  1 38  1  0
  1 39  1  0
  2 40  1  0
  3 41  1  0
  3 42  1  0
  3 43  1  0
  4 44  1  0
  6 45  1  0
  7 46  1  0
 12 47  1  0
 13 48  1  0
 13 49  1  0
 16 50  1  0
 17 51  1  0
 17 52  1  0
 19 53  1  0
 20 54  1  0
 25 55  1  0
 25 56  1  0
 26 57  1  0
 26 58  1  0
 27 59  1  0
 27 60  1  0
 28 61  1  0
 28 62  1  0
 29 63  1  0
 29 64  1  0
 30 65  1  0
 31 66  1  0
 32 67  1  0
M  CHG  2  34   1  36  -1
M  END
>  <Binding energies>  (1) 
[-9.27]

>  <Ligand effiencies>  (1) 
[-0.23769230769230767]

>  <Interactions>  (1) 
["V-A:PRO:540:CG:4886, V-A:GLY:454:CA:4049, H-A:GLU:543:OE2:4910, H-A:ALA:541:N:4891, V-B:GLU:543:CB:9878, V-B:ALA:541:CB:9864, H-A:ARG:545:NH1:4927, V-B:GLU:543:CG:9879, V-A:LEU:363:CD1:3189, H-B:GLU:543:OE1:9881, V-A:ALA:541:CB:4892, V-A:GLU:543:CD:4908, V-A:TYR:484:CZ:4347, H-B:TYR:484:OH:9319, V-A:ARG:545:CG:4922, H-A:GLY:454:N:4050, V-B:HIS:456:CE1:9041, V-A:HIS:456:CE1:4070, V-B:TYR:484:CZ:9318, H-B:HIS:456:NE2:9042, V-A:GLU:543:CG:4907, V-B:GLU:543:CD:9880, V-A:ARG:545:CD:4923, V-A:LEU:475:CD2:4259, H-A:ARG:545:NH2:4928, V-A:ARG:545:CZ:4926, H-A:ILE:455:N:4055, V-A:GLU:543:CB:4906, V-A:PRO:540:N:4884, H-B:GLU:543:OE2:9882, V-A:PRO:540:CA:4883, V-A:PRO:540:CB:4885, H-A:ARG:545:NE:4924, V-A:PRO:540:CD:4887, H-A:TYR:484:OH:4348, H-A:GLU:543:O:4903"]

$$$$
ZINC514396024
     RDKit          3D

 66 70  0  0  0  0  0  0  0  0999 V2000
  128.0150  133.7540   61.2800 C   0  0  0  0  0  0  0  0  0  0  0  0
  128.4530  132.5770   60.3960 C   0  0  0  0  0  0  0  0  0  0  0  0
  129.9030  132.1500   60.6300 C   0  0  0  0  0  0  0  0  0  0  0  0
  130.4110  132.2190   61.9330 C   0  0  0  0  0  0  0  0  0  0  0  0
  131.7320  131.8620   62.2050 C   0  0  0  0  0  0  0  0  0  0  0  0
  132.5650  131.4370   61.1740 C   0  0  0  0  0  0  0  0  0  0  0  0
  132.0820  131.3730   59.8690 C   0  0  0  0  0  0  0  0  0  0  0  0
  130.7560  131.7330   59.5830 C   0  0  0  0  0  0  0  0  0  0  0  0
  130.3040  131.6500   58.2420 N   0  0  0  0  0  0  0  0  0  0  0  0
  130.8980  132.4430   57.2840 C   0  0  0  0  0  0  0  0  0  0  0  0
  132.0250  131.8770   56.4030 C   0  0  0  0  0  0  0  0  0  0  0  0
  130.5970  133.6190   57.0720 O   0  0  0  0  0  0  0  0  0  0  0  0
  129.3140  130.6760   57.9240 C   0  0  0  0  0  0  0  0  0  0  0  0
  129.4480  129.3710   58.0460 N   0  0  0  0  0  0  0  0  0  0  0  0
  128.3660  128.6850   57.7270 C   0  0  0  0  0  0  0  0  0  0  0  0
  128.4340  127.1780   57.8880 C   0  0  0  0  0  0  0  0  0  0  0  0
  129.4070  126.3490   56.5900 S   0  0  0  0  0  0  0  0  0  0  0  0
  130.8180  125.8870   57.5420 C   0  0  0  0  0  0  0  0  0  0  0  0
  132.0510  126.1100   57.1510 N   0  0  0  0  0  0  0  0  0  0  0  0
  132.9000  125.7350   58.1850 N   0  0  0  0  0  0  0  0  0  0  0  0
  132.1350  125.3470   59.1740 C   0  0  0  0  0  0  0  0  0  0  0  0
  132.5650  124.9970   60.4190 N   0  0  0  0  0  0  0  0  0  0  0  0
  132.2270  125.8550   61.5630 C   0  0  0  0  0  0  0  0  0  0  0  0
  132.2880  125.1130   62.9140 C   0  0  0  0  0  0  0  0  0  0  0  0
  133.6350  124.4140   63.1250 C   0  0  0  0  0  0  0  0  0  0  0  0
  133.9460  123.5240   61.9160 C   0  0  0  0  0  0  0  0  0  0  0  0
  133.8430  124.2920   60.5820 C   0  0  0  0  0  0  0  0  0  0  0  0
  130.8000  125.3650   58.8230 N   0  0  0  0  0  0  0  0  0  0  0  0
  129.6430  125.1600   59.6950 C   0  0  0  0  0  0  0  0  0  0  0  0
  129.5320  123.7360   60.1930 C   0  0  0  0  0  0  0  0  0  0  0  0
  128.4660  122.8930   60.4710 C   0  0  0  0  0  0  0  0  0  0  0  0
  129.0080  121.6820   60.9060 C   0  0  0  0  0  0  0  0  0  0  0  0
  130.3830  121.8390   60.8730 C   0  0  0  0  0  0  0  0  0  0  0  0
  130.6990  123.0840   60.4370 O   0  0  0  0  0  0  0  0  0  0  0  0
  127.2930  129.4500   57.2860 C   0  0  0  0  0  0  0  0  0  0  0  0
  127.7220  131.1290   57.3350 S   0  0  0  0  0  0  0  0  0  0  0  0
  128.1186  133.4755   62.3391 H   0  0  0  0  0  0  0  0  0  0  0  0
  128.6481  134.6280   61.0670 H   0  0  0  0  0  0  0  0  0  0  0  0
  126.9646  134.0015   61.0670 H   0  0  0  0  0  0  0  0  0  0  0  0
  127.7981  131.7190   60.6077 H   0  0  0  0  0  0  0  0  0  0  0  0
  128.3765  132.9095   59.3502 H   0  0  0  0  0  0  0  0  0  0  0  0
  129.7605  132.5589   62.7523 H   0  0  0  0  0  0  0  0  0  0  0  0
  132.1154  131.9164   63.2346 H   0  0  0  0  0  0  0  0  0  0  0  0
  133.6052  131.1516   61.3898 H   0  0  0  0  0  0  0  0  0  0  0  0
  132.7444  131.0380   59.0572 H   0  0  0  0  0  0  0  0  0  0  0  0
  132.8244  131.4755   57.0432 H   0  0  0  0  0  0  0  0  0  0  0  0
  131.6252  131.0728   55.7679 H   0  0  0  0  0  0  0  0  0  0  0  0
  132.4313  132.6780   55.7679 H   0  0  0  0  0  0  0  0  0  0  0  0
  128.8913  126.9527   58.8627 H   0  0  0  0  0  0  0  0  0  0  0  0
  127.4044  126.7986   57.8112 H   0  0  0  0  0  0  0  0  0  0  0  0
  132.9366  126.6950   61.5925 H   0  0  0  0  0  0  0  0  0  0  0  0
  131.1908  126.1963   61.4225 H   0  0  0  0  0  0  0  0  0  0  0  0
  132.1341  125.8396   63.7254 H   0  0  0  0  0  0  0  0  0  0  0  0
  131.5022  124.3433   62.9145 H   0  0  0  0  0  0  0  0  0  0  0  0
  134.4264  125.1698   63.2367 H   0  0  0  0  0  0  0  0  0  0  0  0
  133.5875  123.7945   64.0328 H   0  0  0  0  0  0  0  0  0  0  0  0
  134.9680  123.1307   62.0198 H   0  0  0  0  0  0  0  0  0  0  0  0
  133.2036  122.7126   61.8955 H   0  0  0  0  0  0  0  0  0  0  0  0
  134.6576  125.0300   60.5394 H   0  0  0  0  0  0  0  0  0  0  0  0
  133.9143  123.5517   59.7716 H   0  0  0  0  0  0  0  0  0  0  0  0
  129.7332  125.8302   60.5626 H   0  0  0  0  0  0  0  0  0  0  0  0
  128.7401  125.3770   59.1053 H   0  0  0  0  0  0  0  0  0  0  0  0
  127.3974  123.1329   60.3683 H   0  0  0  0  0  0  0  0  0  0  0  0
  128.4534  120.7831   61.2134 H   0  0  0  0  0  0  0  0  0  0  0  0
  131.1127  121.0670   61.1586 H   0  0  0  0  0  0  0  0  0  0  0  0
  126.3218  129.0519   56.9568 H   0  0  0  0  0  0  0  0  0  0  0  0
  1  2  1  0
  2  3  1  0
  3  4  2  0
  4  5  1  0
  5  6  2  0
  6  7  1  0
  7  8  2  0
  8  9  1  0
  9 10  1  0
 10 11  1  0
 10 12  2  0
  9 13  1  0
 13 14  2  0
 14 15  1  0
 15 16  1  0
 16 17  1  0
 17 18  1  0
 18 19  2  0
 19 20  1  0
 20 21  2  0
 21 22  1  0
 22 23  1  0
 23 24  1  0
 24 25  1  0
 25 26  1  0
 26 27  1  0
 21 28  1  0
 28 29  1  0
 29 30  1  0
 30 31  2  0
 31 32  1  0
 32 33  2  0
 33 34  1  0
 15 35  2  0
 35 36  1  0
  8  3  1  0
 36 13  1  0
 28 18  1  0
 34 30  1  0
 27 22  1  0
  1 37  1  0
  1 38  1  0
  1 39  1  0
  2 40  1  0
  2 41  1  0
  4 42  1  0
  5 43  1  0
  6 44  1  0
  7 45  1  0
 11 46  1  0
 11 47  1  0
 11 48  1  0
 16 49  1  0
 16 50  1  0
 23 51  1  0
 23 52  1  0
 24 53  1  0
 24 54  1  0
 25 55  1  0
 25 56  1  0
 26 57  1  0
 26 58  1  0
 27 59  1  0
 27 60  1  0
 29 61  1  0
 29 62  1  0
 31 63  1  0
 32 64  1  0
 33 65  1  0
 35 66  1  0
M  END
>  <Binding energies>  (1) 
[-7.85]

>  <Ligand effiencies>  (1) 
[-0.21805555555555556]

>  <Interactions>  (1) 
["V-A:ASP:366:CA:3210, V-B:PRO:540:CA:9855, V-A:PRO:540:C:4881, H-A:TYR:531:OH:4795, V-B:TYR:539:CE2:9848, V-B:TYR:539:C:9839, V-A:ASP:366:CG:3213, V-A:TYR:539:CD1:4873, V-A:LEU:363:CD1:3189, V-B:TYR:539:CZ:9849, V-A:TYR:531:CE2:4793, H-B:TYR:539:OH:9850, V-A:GLU:543:CD:4908, V-A:ILE:369:CD1:3239, V-B:TYR:539:CD2:9846, V-A:MET:535:CE:4835, V-A:TYR:539:C:4867, V-A:ASP:366:CB:3212, V-A:ARG:545:CZ:4926, V-A:PRO:540:N:4884, H-A:TYR:539:N:4870, V-A:PRO:540:CB:4885, V-A:PRO:540:CA:4883, V-B:PRO:540:C:9853"]

$$$$
ZINC517854804
     RDKit          3D

 44 47  0  0  0  0  0  0  0  0999 V2000
  126.4850  118.3650   71.4260 C   0  0  0  0  0  0  0  0  0  0  0  0
  127.5170  119.2680   71.0650 O   0  0  0  0  0  0  0  0  0  0  0  0
  127.3910  120.5440   71.6780 C   0  0  0  0  0  0  0  0  0  0  0  0
  128.2480  120.5750   72.9320 C   0  0  0  0  0  0  0  0  0  0  0  0
  128.4770  119.3850   73.6350 C   0  0  0  0  0  0  0  0  0  0  0  0
  129.2610  119.3480   74.7870 C   0  0  0  0  0  0  0  0  0  0  0  0
  129.8590  120.5000   75.2950 C   0  0  0  0  0  0  0  0  0  0  0  0
  129.6460  121.7010   74.6090 C   0  0  0  0  0  0  0  0  0  0  0  0
  130.2380  123.3170   74.9680 S   0  0  0  0  0  0  0  0  0  0  0  0
  129.4030  123.8940   73.5430 C   0  0  0  0  0  0  0  0  0  0  0  0
  129.4820  125.2360   73.2910 N   0  0  0  0  0  0  0  0  0  0  0  0
  129.8580  126.1250   74.1450 C   0  0  0  0  0  0  0  0  0  0  0  0
  130.1610  126.0380   75.3510 O   0  0  0  0  0  0  0  0  0  0  0  0
  129.9130  127.5440   73.5440 C   0  0  0  0  0  0  0  0  0  0  0  0
  129.9740  127.5300   72.0190 C   0  0  0  0  0  0  0  0  0  0  0  0
  131.0890  127.7270   71.2270 C   0  0  0  0  0  0  0  0  0  0  0  0
  130.7740  127.6480   69.8910 N   0  0  0  0  0  0  0  0  0  0  0  0
  131.7200  127.7910   68.7960 C   0  0  0  0  0  0  0  0  0  0  0  0
  129.4200  127.3910   69.7690 C   0  0  0  0  0  0  0  0  0  0  0  0
  128.6170  127.2210   68.6330 C   0  0  0  0  0  0  0  0  0  0  0  0
  127.2600  126.9770   68.8420 C   0  0  0  0  0  0  0  0  0  0  0  0
  126.7170  126.9040   70.1200 C   0  0  0  0  0  0  0  0  0  0  0  0
  127.5130  127.0720   71.2510 C   0  0  0  0  0  0  0  0  0  0  0  0
  128.8880  127.3180   71.0950 C   0  0  0  0  0  0  0  0  0  0  0  0
  128.7270  122.9870   72.8830 N   0  0  0  0  0  0  0  0  0  0  0  0
  128.8470  121.7500   73.4340 C   0  0  0  0  0  0  0  0  0  0  0  0
  126.4168  118.3054   72.5223 H   0  0  0  0  0  0  0  0  0  0  0  0
  125.5274  118.7205   71.0179 H   0  0  0  0  0  0  0  0  0  0  0  0
  126.7102  117.3686   71.0179 H   0  0  0  0  0  0  0  0  0  0  0  0
  127.7297  121.3239   70.9801 H   0  0  0  0  0  0  0  0  0  0  0  0
  126.3390  120.7285   71.9412 H   0  0  0  0  0  0  0  0  0  0  0  0
  128.0247  118.4522   73.2670 H   0  0  0  0  0  0  0  0  0  0  0  0
  129.4108  118.3897   75.3059 H   0  0  0  0  0  0  0  0  0  0  0  0
  130.4773  120.4663   76.2042 H   0  0  0  0  0  0  0  0  0  0  0  0
  129.0133  128.0946   73.8562 H   0  0  0  0  0  0  0  0  0  0  0  0
  130.8303  128.0275   73.9111 H   0  0  0  0  0  0  0  0  0  0  0  0
  132.0994  127.9221   71.6157 H   0  0  0  0  0  0  0  0  0  0  0  0
  132.7307  127.9438   69.2023 H   0  0  0  0  0  0  0  0  0  0  0  0
  131.7067  126.8806   68.1787 H   0  0  0  0  0  0  0  0  0  0  0  0
  131.4382  128.6568   68.1787 H   0  0  0  0  0  0  0  0  0  0  0  0
  129.0395  127.2777   67.6189 H   0  0  0  0  0  0  0  0  0  0  0  0
  126.6012  126.8385   67.9721 H   0  0  0  0  0  0  0  0  0  0  0  0
  125.6409  126.7103   70.2400 H   0  0  0  0  0  0  0  0  0  0  0  0
  127.0698  127.0127   72.2560 H   0  0  0  0  0  0  0  0  0  0  0  0
  1  2  1  0
  2  3  1  0
  3  4  1  0
  4  5  2  0
  5  6  1  0
  6  7  2  0
  7  8  1  0
  8  9  1  0
  9 10  1  0
 10 11  1  0
 11 12  2  0
 12 13  1  0
 12 14  1  0
 14 15  1  0
 15 16  2  0
 16 17  1  0
 17 18  1  0
 17 19  1  0
 19 20  2  0
 20 21  1  0
 21 22  2  0
 22 23  1  0
 23 24  2  0
 10 25  2  0
 25 26  1  0
 26  4  1  0
 26  8  2  0
 24 15  1  0
 24 19  1  0
  1 27  1  0
  1 28  1  0
  1 29  1  0
  3 30  1  0
  3 31  1  0
  5 32  1  0
  6 33  1  0
  7 34  1  0
 14 35  1  0
 14 36  1  0
 16 37  1  0
 18 38  1  0
 18 39  1  0
 18 40  1  0
 20 41  1  0
 21 42  1  0
 22 43  1  0
 23 44  1  0
M  CHG  1  13  -1
M  END
>  <Binding energies>  (1) 
[-7.47]

>  <Ligand effiencies>  (1) 
[-0.2873076923076923]

>  <Interactions>  (1) 
["V-A:ARG:545:CA:4919, V-B:GLU:543:C:9874, V-B:HIS:456:CD2:9039, V-A:GLU:543:C:4902, V-B:GLU:543:CB:9878, H-B:LYS:547:NZ:9923, V-A:GLY:544:C:4912, V-A:HIS:456:CD2:4068, V-B:LYS:547:CE:9922, V-A:GLU:543:CD:4908, V-B:HIS:456:CE1:9041, V-B:GLU:543:CA:9876, V-A:ARG:545:CG:4922, V-A:HIS:456:CE1:4070, V-B:GLY:544:C:9884, V-B:GLY:544:CA:9886, V-A:GLU:543:CG:4907, H-A:TYR:484:N:4340, V-B:VAL:542:CG1:9871, V-A:TYR:484:CB:4341, V-A:GLU:543:CB:4906, V-A:SER:483:CB:4333, V-B:VAL:542:CB:9870, V-A:TYR:484:C:4337, H-A:SER:483:OG:4334"]

$$$$
ZINC5186469
     RDKit          3D

 33 35  0  0  0  0  0  0  0  0999 V2000
  131.2340  125.4670   66.5080 C   0  0  0  0  0  0  0  0  0  0  0  0
  131.1430  124.5120   65.3330 C   0  0  0  0  0  0  0  0  0  0  0  0
  130.0190  123.8630   65.1410 N   0  0  0  0  0  0  0  0  0  0  0  0
  130.2100  123.1190   64.0480 N   0  0  0  0  0  0  0  0  0  0  0  0
  129.1290  122.2400   63.6000 C   0  0  0  0  0  0  0  0  0  0  0  0
  128.5250  122.6650   62.2720 C   0  0  0  0  0  0  0  0  0  0  0  0
  127.5130  123.6010   62.0530 C   0  0  0  0  0  0  0  0  0  0  0  0
  127.3220  123.6500   60.6970 N   0  0  0  0  0  0  0  0  0  0  0  0
  126.4730  124.3860   59.9130 C   0  0  0  0  0  0  0  0  0  0  0  0
  126.5090  124.2170   58.5320 C   0  0  0  0  0  0  0  0  0  0  0  0
  125.4510  125.1350   57.5230 Cl  0  0  0  0  0  0  0  0  0  0  0  0
  127.4010  123.3070   57.9650 C   0  0  0  0  0  0  0  0  0  0  0  0
  128.2660  122.5530   58.7620 C   0  0  0  0  0  0  0  0  0  0  0  0
  128.2310  122.7250   60.1590 C   0  0  0  0  0  0  0  0  0  0  0  0
  128.9530  122.1300   61.1410 N   0  0  0  0  0  0  0  0  0  0  0  0
  131.4760  123.2460   63.5240 C   0  0  0  0  0  0  0  0  0  0  0  0
  131.9220  122.4660   62.2990 C   0  0  0  0  0  0  0  0  0  0  0  0
  132.1100  124.1770   64.3550 C   0  0  0  0  0  0  0  0  0  0  0  0
  133.4520  124.6810   64.2450 N   0  0  0  0  0  0  0  0  0  0  0  0
  133.9860  124.6690   63.1410 O   0  0  0  0  0  0  0  0  0  0  0  0
  133.9980  125.1000   65.2580 O   0  0  0  0  0  0  0  0  0  0  0  0
  131.1798  124.8981   67.4479 H   0  0  0  0  0  0  0  0  0  0  0  0
  132.1882  126.0125   66.4641 H   0  0  0  0  0  0  0  0  0  0  0  0
  130.4000  126.1829   66.4641 H   0  0  0  0  0  0  0  0  0  0  0  0
  129.5287  121.2209   63.4924 H   0  0  0  0  0  0  0  0  0  0  0  0
  128.3304  122.2924   64.3546 H   0  0  0  0  0  0  0  0  0  0  0  0
  126.9760  124.1831   62.8165 H   0  0  0  0  0  0  0  0  0  0  0  0
  125.7723  125.1009   60.3689 H   0  0  0  0  0  0  0  0  0  0  0  0
  127.4238  123.1809   56.8725 H   0  0  0  0  0  0  0  0  0  0  0  0
  128.9638  121.8359   58.3050 H   0  0  0  0  0  0  0  0  0  0  0  0
  132.4447  121.5518   62.6167 H   0  0  0  0  0  0  0  0  0  0  0  0
  131.0424  122.1949   61.6966 H   0  0  0  0  0  0  0  0  0  0  0  0
  132.6018  123.0865   61.6966 H   0  0  0  0  0  0  0  0  0  0  0  0
  1  2  1  0
  2  3  2  0
  3  4  1  0
  4  5  1  0
  5  6  1  0
  6  7  2  0
  7  8  1  0
  8  9  1  0
  9 10  2  0
 10 11  1  0
 10 12  1  0
 12 13  2  0
 13 14  1  0
 14 15  2  0
  4 16  1  0
 16 17  1  0
 16 18  2  0
 18 19  1  0
 19 20  2  0
 19 21  1  0
 18  2  1  0
 15  6  1  0
 14  8  1  0
  1 22  1  0
  1 23  1  0
  1 24  1  0
  5 25  1  0
  5 26  1  0
  7 27  1  0
  9 28  1  0
 12 29  1  0
 13 30  1  0
 17 31  1  0
 17 32  1  0
 17 33  1  0
M  CHG  2  19   1  21  -1
M  END
>  <Binding energies>  (1) 
[-6.35]

>  <Ligand effiencies>  (1) 
[-0.30238095238095236]

>  <Interactions>  (1) 
["V-B:PRO:540:CA:9855, V-A:GLY:454:CA:4049, V-B:ALA:541:CB:9864, H-A:ARG:545:NH1:4927, V-A:TYR:484:CE2:4346, V-B:TYR:539:CE2:9848, V-B:GLU:543:CG:9879, V-B:TYR:539:C:9839, V-B:TYR:539:CZ:9849, V-B:TYR:531:CZ:9766, V-B:TYR:531:CE2:9765, V-A:TYR:484:CZ:4347, H-A:GLY:454:N:4050, V-B:PRO:540:N:9856, V-A:HIS:456:CE1:4070, V-B:TYR:539:CD2:9846, V-B:GLU:543:CD:9880, V-A:LEU:475:CD2:4259, H-A:ARG:545:NH2:4928, V-A:ARG:545:CZ:4926, V-B:TYR:539:CG:9844, H-A:ARG:545:NE:4924, H-A:TYR:484:OH:4348"]

$$$$
ZINC5203318
     RDKit          3D

 41 44  0  0  0  0  0  0  0  0999 V2000
  125.7250  123.1290   62.3830 O   0  0  0  0  0  0  0  0  0  0  0  0
  126.5610  123.2320   61.4850 C   0  0  0  0  0  0  0  0  0  0  0  0
  126.3250  124.1830   60.2900 C   0  0  0  0  0  0  0  0  0  0  0  0
  126.3960  123.5620   58.9020 C   0  0  0  0  0  0  0  0  0  0  0  0
  125.3860  123.4220   57.9490 C   0  0  0  0  0  0  0  0  0  0  0  0
  125.7810  122.7670   56.7800 C   0  0  0  0  0  0  0  0  0  0  0  0
  127.1100  122.3900   56.8100 C   0  0  0  0  0  0  0  0  0  0  0  0
  127.8710  122.8510   58.2940 S   0  0  0  0  0  0  0  0  0  0  0  0
  127.7520  122.5300   61.5120 N   0  0  0  0  0  0  0  0  0  0  0  0
  128.8190  123.0680   61.9820 C   0  0  0  0  0  0  0  0  0  0  0  0
  129.0150  124.8030   62.5640 S   0  0  0  0  0  0  0  0  0  0  0  0
  130.6200  124.4460   63.2650 C   0  0  2  0  0  0  0  0  0  0  0  0
  131.6780  125.5360   63.4370 C   0  0  0  0  0  0  0  0  0  0  0  0
  133.2560  124.5230   63.6180 S   0  0  0  0  0  0  0  0  0  0  0  0
  134.2520  125.0150   62.6590 O   0  0  0  0  0  0  0  0  0  0  0  0
  133.6020  124.3680   65.0340 O   0  0  0  0  0  0  0  0  0  0  0  0
  132.4830  122.9170   62.9920 C   0  0  0  0  0  0  0  0  0  0  0  0
  131.1700  123.3790   62.3330 C   0  0  1  0  0  0  0  0  0  0  0  0
  130.0750  122.4450   62.0950 N   0  0  0  0  0  0  0  0  0  0  0  0
  130.3370  121.1290   61.6400 C   0  0  0  0  0  0  0  0  0  0  0  0
  129.5090  120.0620   62.0190 C   0  0  0  0  0  0  0  0  0  0  0  0
  129.7700  118.7730   61.5630 C   0  0  0  0  0  0  0  0  0  0  0  0
  130.8580  118.5420   60.7240 C   0  0  0  0  0  0  0  0  0  0  0  0
  131.1100  117.2890   60.2810 F   0  0  0  0  0  0  0  0  0  0  0  0
  131.6870  119.5920   60.3380 C   0  0  0  0  0  0  0  0  0  0  0  0
  131.4260  120.8810   60.7940 C   0  0  0  0  0  0  0  0  0  0  0  0
  125.3245  124.6249   60.4074 H   0  0  0  0  0  0  0  0  0  0  0  0
  127.1522  124.9071   60.3271 H   0  0  0  0  0  0  0  0  0  0  0  0
  124.3636  123.7964   58.1054 H   0  0  0  0  0  0  0  0  0  0  0  0
  125.1093  122.5731   55.9308 H   0  0  0  0  0  0  0  0  0  0  0  0
  127.6211  121.8620   55.9915 H   0  0  0  0  0  0  0  0  0  0  0  0
  130.4356  124.1970   64.3205 H   0  0  0  0  0  0  0  0  0  0  0  0
  131.7230  126.1923   62.5553 H   0  0  0  0  0  0  0  0  0  0  0  0
  131.4852  126.2124   64.2828 H   0  0  0  0  0  0  0  0  0  0  0  0
  133.1388  122.4255   62.2583 H   0  0  0  0  0  0  0  0  0  0  0  0
  132.3228  122.1797   63.7924 H   0  0  0  0  0  0  0  0  0  0  0  0
  131.4722  123.6559   61.3122 H   0  0  0  0  0  0  0  0  0  0  0  0
  128.6490  120.2449   62.6800 H   0  0  0  0  0  0  0  0  0  0  0  0
  129.1190  117.9390   61.8642 H   0  0  0  0  0  0  0  0  0  0  0  0
  132.5446  119.4037   59.6754 H   0  0  0  0  0  0  0  0  0  0  0  0
  132.0796  121.7111   60.4879 H   0  0  0  0  0  0  0  0  0  0  0  0
  1  2  2  0
  2  3  1  0
  3  4  1  0
  4  5  2  0
  5  6  1  0
  6  7  2  0
  7  8  1  0
  2  9  1  0
  9 10  2  0
 10 11  1  0
 11 12  1  0
 12 13  1  0
 13 14  1  0
 14 15  2  0
 14 16  2  0
 14 17  1  0
 17 18  1  0
 18 19  1  0
 19 20  1  0
 20 21  2  0
 21 22  1  0
 22 23  2  0
 23 24  1  0
 23 25  1  0
 25 26  2  0
  8  4  1  0
 19 10  1  0
 26 20  1  0
 18 12  1  0
  3 27  1  0
  3 28  1  0
  5 29  1  0
  6 30  1  0
  7 31  1  0
 12 32  1  1
 13 33  1  0
 13 34  1  0
 17 35  1  0
 17 36  1  0
 18 37  1  6
 21 38  1  0
 22 39  1  0
 25 40  1  0
 26 41  1  0
M  END
>  <Binding energies>  (1) 
[-8.56]

>  <Ligand effiencies>  (1) 
[-0.32923076923076927]

>  <Interactions>  (1) 
["V-B:TYR:539:CA:9841, V-B:PRO:540:CA:9855, V-B:ALA:541:CB:9864, H-A:ARG:545:NH1:4927, V-B:TYR:539:CE2:9848, V-B:TYR:539:C:9839, V-B:TYR:539:CZ:9849, H-B:ALA:541:N:9863, V-A:LEU:475:CD1:4258, V-A:HIS:383:CE1:3393, V-B:PRO:540:CB:9857, H-A:GLY:454:N:4050, V-A:HIS:383:NE2:3394, V-B:PRO:540:N:9856, V-A:PRO:482:CB:4326, V-B:TYR:539:CD2:9846, V-B:PRO:540:CD:9859, V-A:LEU:475:CD2:4259, H-A:ARG:545:NH2:4928, V-A:ARG:545:CZ:4926, V-B:TYR:539:CG:9844, V-A:HIS:383:CD2:3392, V-B:TYR:539:CD1:9845, V-B:LEU:363:CD1:8160, V-B:PRO:540:C:9853, V-B:MET:535:CE:9807, V-B:ALA:541:CA:9862, V-B:TYR:539:CE1:9847, H-A:TYR:484:OH:4348"]

$$$$
ZINC5214783
     RDKit          3D

 42 44  0  0  0  0  0  0  0  0999 V2000
  128.7430  127.5190   63.9660 C   0  0  0  0  0  0  0  0  0  0  0  0
  128.7380  127.6700   65.4860 C   0  0  0  0  0  0  0  0  0  0  0  0
  129.2470  126.6070   66.2430 C   0  0  0  0  0  0  0  0  0  0  0  0
  129.2690  126.6680   67.6330 C   0  0  0  0  0  0  0  0  0  0  0  0
  128.7820  127.7970   68.2830 C   0  0  0  0  0  0  0  0  0  0  0  0
  128.2730  128.8600   67.5410 C   0  0  0  0  0  0  0  0  0  0  0  0
  128.2370  128.8240   66.1350 C   0  0  0  0  0  0  0  0  0  0  0  0
  127.6940  129.9750   65.3820 C   0  0  0  0  0  0  0  0  0  0  0  0
  128.4180  130.9140   64.9030 N   0  0  0  0  0  0  0  0  0  0  0  0
  127.7460  131.8150   64.2860 N   0  0  0  0  0  0  0  0  0  0  0  0
  128.1200  132.1100   63.0950 C   0  0  0  0  0  0  0  0  0  0  0  0
  127.5570  133.0210   62.2760 N   0  0  0  0  0  0  0  0  0  0  0  0
  128.0140  133.2540   61.0390 C   0  0  0  0  0  0  0  0  0  0  0  0
  127.5440  134.0820   60.2610 O   0  0  0  0  0  0  0  0  0  0  0  0
  129.2080  132.3670   60.7190 C   0  0  2  0  0  0  0  0  0  0  0  0
  128.9530  131.5090   59.4530 C   0  0  0  0  0  0  0  0  0  0  0  0
  130.2320  130.9970   58.7800 C   0  0  0  0  0  0  0  0  0  0  0  0
  130.7230  129.7490   59.1860 C   0  0  0  0  0  0  0  0  0  0  0  0
  131.9000  129.2330   58.6510 C   0  0  0  0  0  0  0  0  0  0  0  0
  132.6060  129.9630   57.7000 C   0  0  0  0  0  0  0  0  0  0  0  0
  132.1310  131.2040   57.2840 C   0  0  0  0  0  0  0  0  0  0  0  0
  130.9410  131.7380   57.8020 C   0  0  0  0  0  0  0  0  0  0  0  0
  130.4870  133.0560   57.3010 N   0  0  0  0  0  0  0  0  0  0  0  0
  131.3160  133.7820   56.7610 O   0  0  0  0  0  0  0  0  0  0  0  0
  129.3040  133.3630   57.4130 O   0  0  0  0  0  0  0  0  0  0  0  0
  129.5140  131.3730   62.1890 S   0  0  0  0  0  0  0  0  0  0  0  0
  128.7784  126.4513   63.7037 H   0  0  0  0  0  0  0  0  0  0  0  0
  127.8295  127.9687   63.5498 H   0  0  0  0  0  0  0  0  0  0  0  0
  129.6248  128.0282   63.5498 H   0  0  0  0  0  0  0  0  0  0  0  0
  129.6341  125.7129   65.7323 H   0  0  0  0  0  0  0  0  0  0  0  0
  129.6703  125.8259   68.2159 H   0  0  0  0  0  0  0  0  0  0  0  0
  128.7988  127.8503   69.3816 H   0  0  0  0  0  0  0  0  0  0  0  0
  127.8905  129.7477   68.0660 H   0  0  0  0  0  0  0  0  0  0  0  0
  126.6065  130.0264   65.2251 H   0  0  0  0  0  0  0  0  0  0  0  0
  126.7590  133.5460   62.6020 H   0  0  0  0  0  0  0  0  0  0  0  0
  130.0996  132.9647   60.4786 H   0  0  0  0  0  0  0  0  0  0  0  0
  128.3419  130.6408   59.7406 H   0  0  0  0  0  0  0  0  0  0  0  0
  128.4475  132.1592   58.7238 H   0  0  0  0  0  0  0  0  0  0  0  0
  130.1700  129.1682   59.9389 H   0  0  0  0  0  0  0  0  0  0  0  0
  132.2709  128.2508   58.9792 H   0  0  0  0  0  0  0  0  0  0  0  0
  133.5383  129.5603   57.2773 H   0  0  0  0  0  0  0  0  0  0  0  0
  132.6989  131.7763   56.5357 H   0  0  0  0  0  0  0  0  0  0  0  0
  1  2  1  0
  2  3  2  0
  3  4  1  0
  4  5  2  0
  5  6  1  0
  6  7  2  0
  7  8  1  0
  8  9  2  0
  9 10  1  0
 10 11  2  0
 11 12  1  0
 12 13  1  0
 13 14  2  0
 13 15  1  0
 15 16  1  0
 16 17  1  0
 17 18  2  0
 18 19  1  0
 19 20  2  0
 20 21  1  0
 21 22  2  0
 22 23  1  0
 23 24  2  0
 23 25  1  0
 15 26  1  0
  7  2  1  0
 26 11  1  0
 22 17  1  0
  1 27  1  0
  1 28  1  0
  1 29  1  0
  3 30  1  0
  4 31  1  0
  5 32  1  0
  6 33  1  0
  8 34  1  0
 12 35  1  0
 15 36  1  6
 16 37  1  0
 16 38  1  0
 18 39  1  0
 19 40  1  0
 20 41  1  0
 21 42  1  0
M  CHG  2  23   1  25  -1
M  END
>  <Binding energies>  (1) 
[-8.02]

>  <Ligand effiencies>  (1) 
[-0.29703703703703704]

>  <Interactions>  (1) 
["V-B:GLU:543:CB:9878, V-B:GLU:543:CG:9879, V-B:LEU:475:CD2:9230, V-A:ASP:366:CG:3213, V-A:LEU:363:CD1:3189, V-A:TYR:531:CE2:4793, V-A:GLU:543:CD:4908, H-B:TYR:484:OH:9319, V-B:HIS:456:CE1:9041, V-B:TYR:484:CZ:9318, V-A:GLU:543:CG:4907, V-A:TYR:531:CZ:4794, V-B:GLU:543:CD:9880, V-A:TYR:539:C:4867, V-A:ASP:366:CB:3212, V-A:GLU:543:CB:4906, V-A:PRO:540:N:4884, H-A:TYR:539:N:4870, V-A:PRO:540:CB:4885, V-A:PRO:540:CA:4883, V-A:PRO:540:CD:4887"]

$$$$
ZINC5215315
     RDKit          3D

 46 47  0  0  0  0  0  0  0  0999 V2000
  129.6690  121.4900   60.9040 C   0  0  0  0  0  0  0  0  0  0  0  0
  128.3730  122.3150   61.0140 C   0  0  0  0  0  0  0  0  0  0  0  0
  128.4900  123.6250   60.2080 C   0  0  0  0  0  0  0  0  0  0  0  0
  128.0030  122.5550   62.4950 C   0  0  0  0  0  0  0  0  0  0  0  0
  128.4030  123.8660   63.0030 N   0  0  0  0  0  0  0  0  0  0  0  0
  129.7110  124.1470   63.4310 C   0  0  0  0  0  0  0  0  0  0  0  0
  129.9340  124.5990   64.6860 N   0  0  0  0  0  0  0  0  0  0  0  0
  131.2150  124.8570   65.0410 C   0  0  0  0  0  0  0  0  0  0  0  0
  131.3380  125.3190   66.3510 N   0  0  0  0  0  0  0  0  0  0  0  0
  132.3140  124.6710   64.1600 C   0  0  0  0  0  0  0  0  0  0  0  0
  133.7300  124.9640   64.5740 N   0  0  0  0  0  0  0  0  0  0  0  0
  134.0060  125.0820   65.7620 O   0  0  0  0  0  0  0  0  0  0  0  0
  134.6070  125.0840   63.7240 O   0  0  0  0  0  0  0  0  0  0  0  0
  131.9690  124.1890   62.8650 C   0  0  0  0  0  0  0  0  0  0  0  0
  132.9500  123.9530   61.8800 N   0  0  0  0  0  0  0  0  0  0  0  0
  132.7300  124.0160   60.4330 C   0  0  0  0  0  0  0  0  0  0  0  0
  131.8150  125.2180   60.1160 C   0  0  0  0  0  0  0  0  0  0  0  0
  131.6500  125.4090   58.5950 C   0  0  0  0  0  0  0  0  0  0  0  0
  133.0100  125.5000   57.8730 C   0  0  0  0  0  0  0  0  0  0  0  0
  133.9250  124.3040   58.2010 C   0  0  0  0  0  0  0  0  0  0  0  0
  134.0970  124.1070   59.7220 C   0  0  0  0  0  0  0  0  0  0  0  0
  130.6780  123.9350   62.5160 N   0  0  0  0  0  0  0  0  0  0  0  0
  130.0400  121.2538   61.9123 H   0  0  0  0  0  0  0  0  0  0  0  0
  129.4640  120.5558   60.3606 H   0  0  0  0  0  0  0  0  0  0  0  0
  130.4286  122.0711   60.3606 H   0  0  0  0  0  0  0  0  0  0  0  0
  127.5457  121.7426   60.5691 H   0  0  0  0  0  0  0  0  0  0  0  0
  128.5660  124.4761   60.9007 H   0  0  0  0  0  0  0  0  0  0  0  0
  129.3883  123.5866   59.5743 H   0  0  0  0  0  0  0  0  0  0  0  0
  127.5991  123.7464   59.5743 H   0  0  0  0  0  0  0  0  0  0  0  0
  126.9118  122.4623   62.5983 H   0  0  0  0  0  0  0  0  0  0  0  0
  128.5497  121.8048   63.0851 H   0  0  0  0  0  0  0  0  0  0  0  0
  127.6740  124.5150   63.2660 H   0  0  0  0  0  0  0  0  0  0  0  0
  131.7480  124.7180   67.0520 H   0  0  0  0  0  0  0  0  0  0  0  0
  131.0140  126.2480   66.5790 H   0  0  0  0  0  0  0  0  0  0  0  0
  133.8780  123.7050   62.1930 H   0  0  0  0  0  0  0  0  0  0  0  0
  132.2250  123.1102   60.0663 H   0  0  0  0  0  0  0  0  0  0  0  0
  130.8260  125.0439   60.5649 H   0  0  0  0  0  0  0  0  0  0  0  0
  132.2764  126.1256   60.5324 H   0  0  0  0  0  0  0  0  0  0  0  0
  131.0887  124.5547   58.1887 H   0  0  0  0  0  0  0  0  0  0  0  0
  131.1126  126.3541   58.4276 H   0  0  0  0  0  0  0  0  0  0  0  0
  132.8338  125.5238   56.7875 H   0  0  0  0  0  0  0  0  0  0  0  0
  133.5142  126.4150   58.2172 H   0  0  0  0  0  0  0  0  0  0  0  0
  133.4843  123.3918   57.7724 H   0  0  0  0  0  0  0  0  0  0  0  0
  134.9167  124.5072   57.7707 H   0  0  0  0  0  0  0  0  0  0  0  0
  134.6573  123.1776   59.9020 H   0  0  0  0  0  0  0  0  0  0  0  0
  134.6415  124.9735   60.1253 H   0  0  0  0  0  0  0  0  0  0  0  0
  1  2  1  0
  2  3  1  0
  2  4  1  0
  4  5  1  0
  5  6  1  0
  6  7  2  0
  7  8  1  0
  8  9  1  0
  8 10  2  0
 10 11  1  0
 11 12  2  0
 11 13  1  0
 10 14  1  0
 14 15  1  0
 15 16  1  0
 16 17  1  0
 17 18  1  0
 18 19  1  0
 19 20  1  0
 20 21  1  0
 14 22  2  0
 22  6  1  0
 21 16  1  0
  1 23  1  0
  1 24  1  0
  1 25  1  0
  2 26  1  0
  3 27  1  0
  3 28  1  0
  3 29  1  0
  4 30  1  0
  4 31  1  0
  5 32  1  0
  9 33  1  0
  9 34  1  0
 15 35  1  0
 16 36  1  0
 17 37  1  0
 17 38  1  0
 18 39  1  0
 18 40  1  0
 19 41  1  0
 19 42  1  0
 20 43  1  0
 20 44  1  0
 21 45  1  0
 21 46  1  0
M  CHG  2  11   1  13  -1
M  END
>  <Binding energies>  (1) 
[-6.45]

>  <Ligand effiencies>  (1) 
[-0.24807692307692308]

>  <Interactions>  (1) 
["V-A:ILE:369:CG2:3237, V-A:ASP:366:CA:3210, V-B:PRO:540:CA:9855, V-A:GLY:454:CA:4049, H-A:GLU:543:OE2:4910, V-A:ILE:369:CB:3236, V-B:ALA:541:CB:9864, H-A:ARG:545:NH1:4927, V-B:TYR:539:CE2:9848, V-B:GLU:543:CG:9879, V-A:ASP:366:CG:3213, V-B:TYR:539:CZ:9849, H-B:GLU:543:OE1:9881, V-A:TYR:484:CZ:4347, H-A:GLY:454:N:4050, V-A:HIS:456:CE1:4070, V-A:ILE:369:CD1:3239, V-A:ASP:366:C:3208, V-B:TYR:539:CD2:9846, V-B:GLU:543:CD:9880, V-A:ASP:366:CB:3212, V-A:ARG:545:CD:4923, H-A:ARG:545:NH2:4928, V-A:ARG:545:CZ:4926, H-B:GLU:543:OE2:9882, V-A:GLY:453:CA:4044, H-A:ARG:545:NE:4924, V-B:PRO:540:C:9853, V-B:ALA:541:CA:9862, H-A:TYR:484:OH:4348"]

$$$$
ZINC522033301
     RDKit          3D

 55 59  0  0  0  0  0  0  0  0999 V2000
  130.6390  121.3040   62.1960 F   0  0  0  0  0  0  0  0  0  0  0  0
  129.5100  121.9790   61.8780 C   0  0  0  0  0  0  0  0  0  0  0  0
  129.1530  122.1240   60.5360 C   0  0  0  0  0  0  0  0  0  0  0  0
  127.9890  122.8120   60.1920 C   0  0  0  0  0  0  0  0  0  0  0  0
  127.1830  123.3590   61.1900 C   0  0  0  0  0  0  0  0  0  0  0  0
  127.5370  123.2160   62.5310 C   0  0  0  0  0  0  0  0  0  0  0  0
  128.7030  122.5250   62.8840 C   0  0  0  0  0  0  0  0  0  0  0  0
  129.0870  122.3660   64.3460 C   0  0  0  0  0  0  0  0  0  0  0  0
  129.5020  123.6320   64.8610 O   0  0  0  0  0  0  0  0  0  0  0  0
  130.8170  124.0450   64.7260 C   0  0  0  0  0  0  0  0  0  0  0  0
  131.5990  123.4260   63.7940 N   0  0  0  0  0  0  0  0  0  0  0  0
  132.8810  123.8380   63.6440 C   0  0  0  0  0  0  0  0  0  0  0  0
  133.4340  124.8670   64.4000 C   0  0  0  0  0  0  0  0  0  0  0  0
  132.6320  125.4950   65.3530 C   0  0  0  0  0  0  0  0  0  0  0  0
  131.3010  125.0900   65.5360 C   0  0  0  0  0  0  0  0  0  0  0  0
  130.4660  125.7790   66.5720 C   0  0  0  0  0  0  0  0  0  0  0  0
  130.8140  126.1170   67.7860 N   0  0  0  0  0  0  0  0  0  0  0  0
  129.7090  126.6600   68.2700 C   0  0  0  0  0  0  0  0  0  0  0  0
  129.6260  127.2090   69.6700 C   0  0  0  0  0  0  0  0  0  0  0  0
  128.4910  126.9840   70.4590 C   0  0  0  0  0  0  0  0  0  0  0  0
  128.4180  127.4890   71.7530 C   0  0  0  0  0  0  0  0  0  0  0  0
  129.4700  128.2260   72.2950 C   0  0  0  0  0  0  0  0  0  0  0  0
  129.2790  128.6710   73.5930 O   0  0  0  0  0  0  0  0  0  0  0  0
  128.1060  129.3660   74.0290 C   0  0  0  0  0  0  0  0  0  0  0  0
  127.1760  128.5650   74.9690 C   0  0  0  0  0  0  0  0  0  0  0  0
  125.9160  129.3900   75.2980 C   0  0  0  0  0  0  0  0  0  0  0  0
  126.2880  130.6700   75.8100 O   0  0  0  0  0  0  0  0  0  0  0  0
  126.9980  131.4810   74.8730 C   0  0  0  0  0  0  0  0  0  0  0  0
  128.3420  130.8180   74.5100 C   0  0  0  0  0  0  0  0  0  0  0  0
  130.6080  128.4550   71.5090 C   0  0  0  0  0  0  0  0  0  0  0  0
  130.6830  127.9510   70.2130 C   0  0  0  0  0  0  0  0  0  0  0  0
  128.6810  126.6810   67.4440 N   0  0  0  0  0  0  0  0  0  0  0  0
  129.1750  126.0810   66.2900 O   0  0  0  0  0  0  0  0  0  0  0  0
  129.7904  121.6952   59.7487 H   0  0  0  0  0  0  0  0  0  0  0  0
  127.7073  122.9229   59.1345 H   0  0  0  0  0  0  0  0  0  0  0  0
  126.2668  123.9040   60.9189 H   0  0  0  0  0  0  0  0  0  0  0  0
  126.8977  123.6478   63.3152 H   0  0  0  0  0  0  0  0  0  0  0  0
  128.2200  122.0024   64.9170 H   0  0  0  0  0  0  0  0  0  0  0  0
  129.9099  121.6417   64.4362 H   0  0  0  0  0  0  0  0  0  0  0  0
  133.5109  123.3382   62.8933 H   0  0  0  0  0  0  0  0  0  0  0  0
  134.4784  125.1777   64.2497 H   0  0  0  0  0  0  0  0  0  0  0  0
  133.0448  126.3114   65.9638 H   0  0  0  0  0  0  0  0  0  0  0  0
  127.6502  126.4031   70.0520 H   0  0  0  0  0  0  0  0  0  0  0  0
  127.5175  127.3043   72.3572 H   0  0  0  0  0  0  0  0  0  0  0  0
  127.5403  129.4660   73.0909 H   0  0  0  0  0  0  0  0  0  0  0  0
  126.8786  127.6284   74.4748 H   0  0  0  0  0  0  0  0  0  0  0  0
  127.7137  128.3418   75.9023 H   0  0  0  0  0  0  0  0  0  0  0  0
  125.3192  129.5232   74.3836 H   0  0  0  0  0  0  0  0  0  0  0  0
  125.3242  128.8567   76.0565 H   0  0  0  0  0  0  0  0  0  0  0  0
  126.3928  131.5991   73.9621 H   0  0  0  0  0  0  0  0  0  0  0  0
  127.1923  132.4655   75.3235 H   0  0  0  0  0  0  0  0  0  0  0  0
  128.8262  131.3931   73.7070 H   0  0  0  0  0  0  0  0  0  0  0  0
  128.9876  130.8018   75.4005 H   0  0  0  0  0  0  0  0  0  0  0  0
  131.4471  129.0365   71.9186 H   0  0  0  0  0  0  0  0  0  0  0  0
  131.5828  128.1377   69.6085 H   0  0  0  0  0  0  0  0  0  0  0  0
  1  2  1  0
  2  3  2  0
  3  4  1  0
  4  5  2  0
  5  6  1  0
  6  7  2  0
  7  8  1  0
  8  9  1  0
  9 10  1  0
 10 11  2  0
 11 12  1  0
 12 13  2  0
 13 14  1  0
 14 15  2  0
 15 16  1  0
 16 17  2  0
 17 18  1  0
 18 19  1  0
 19 20  2  0
 20 21  1  0
 21 22  2  0
 22 23  1  0
 23 24  1  0
 24 25  1  0
 25 26  1  0
 26 27  1  0
 27 28  1  0
 28 29  1  0
 22 30  1  0
 30 31  2  0
 18 32  2  0
 32 33  1  0
  7  2  1  0
 15 10  1  0
 33 16  1  0
 31 19  1  0
 29 24  1  0
  3 34  1  0
  4 35  1  0
  5 36  1  0
  6 37  1  0
  8 38  1  0
  8 39  1  0
 12 40  1  0
 13 41  1  0
 14 42  1  0
 20 43  1  0
 21 44  1  0
 24 45  1  0
 25 46  1  0
 25 47  1  0
 26 48  1  0
 26 49  1  0
 28 50  1  0
 28 51  1  0
 29 52  1  0
 29 53  1  0
 30 54  1  0
 31 55  1  0
M  END
>  <Binding energies>  (1) 
[-7.75]

>  <Ligand effiencies>  (1) 
[-0.23484848484848486]

>  <Interactions>  (1) 
["V-B:PRO:540:CA:9855, V-A:GLY:454:CA:4049, V-B:HIS:456:CD2:9039, V-A:GLU:543:C:4902, V-B:HIS:456:CB:9036, V-B:ALA:541:CB:9864, V-B:TYR:539:CE2:9848, V-A:GLY:544:CA:4914, V-B:GLU:543:CG:9879, V-A:GLY:544:C:4912, V-A:GLU:543:CD:4908, V-B:HIS:456:CE1:9041, V-B:PRO:540:N:9856, V-A:HIS:456:CE1:4070, V-B:TYR:539:CD2:9846, H-B:LYS:471:NZ:9192, V-B:GLU:543:CD:9880, V-B:HIS:456:CG:9037, V-A:ARG:545:CD:4923, H-A:LYS:547:NZ:4951, V-A:LEU:475:CD2:4259, V-A:ARG:545:CZ:4926, V-A:GLU:543:CB:4906, H-A:TYR:484:OH:4348"]

$$$$
ZINC524729224
     RDKit          3D

 66 71  0  0  0  0  0  0  0  0999 V2000
  131.3510  116.9540   61.9950 C   0  0  0  0  0  0  0  0  0  0  0  0
  131.4140  117.6310   60.7440 O   0  0  0  0  0  0  0  0  0  0  0  0
  131.3500  119.0120   60.7120 C   0  0  0  0  0  0  0  0  0  0  0  0
  132.3770  119.8330   60.2000 C   0  0  0  0  0  0  0  0  0  0  0  0
  132.2590  121.2360   60.1930 C   0  0  0  0  0  0  0  0  0  0  0  0
  133.2170  122.1090   59.7130 O   0  0  0  0  0  0  0  0  0  0  0  0
  133.9280  122.9290   60.6320 C   0  0  0  0  0  0  0  0  0  0  0  0
  131.0910  121.8060   60.7080 C   0  0  0  0  0  0  0  0  0  0  0  0
  130.0830  121.0020   61.2080 C   0  0  0  0  0  0  0  0  0  0  0  0
  130.1890  119.6140   61.2190 C   0  0  0  0  0  0  0  0  0  0  0  0
  128.8970  118.6540   61.8550 Cl  0  0  0  0  0  0  0  0  0  0  0  0
  128.9930  121.6950   61.6700 O   0  0  0  0  0  0  0  0  0  0  0  0
  129.2630  123.0900   61.5070 C   0  0  2  0  0  0  0  0  0  0  0  0
  129.3010  123.6910   62.9390 C   0  0  0  0  0  0  0  0  0  0  0  0
  129.4420  122.9770   63.9360 O   0  0  0  0  0  0  0  0  0  0  0  0
  128.9890  125.1340   63.0690 C   0  0  0  0  0  0  0  0  0  0  0  0
  128.4890  125.8420   62.0180 C   0  0  0  0  0  0  0  0  0  0  0  0
  128.2070  125.2650   60.6300 C   0  0  0  0  0  0  0  0  0  0  0  0
  128.1230  123.7180   60.6470 C   0  0  1  0  0  0  0  0  0  0  0  0
  127.9450  123.1800   59.2110 C   0  0  0  0  0  0  0  0  0  0  0  0
  128.0880  127.1480   62.1880 N   0  0  0  0  0  0  0  0  0  0  0  0
  128.1860  127.8540   63.3670 C   0  0  0  0  0  0  0  0  0  0  0  0
  128.7040  127.2700   64.4730 C   0  0  0  0  0  0  0  0  0  0  0  0
  128.7290  128.0430   65.7150 C   0  0  0  0  0  0  0  0  0  0  0  0
  129.0630  127.5410   66.7920 O   0  0  0  0  0  0  0  0  0  0  0  0
  128.3340  129.3540   65.5620 N   0  0  0  0  0  0  0  0  0  0  0  0
  128.3110  130.1700   66.7960 C   0  0  0  0  0  0  0  0  0  0  0  0
  127.9460  129.9970   64.3990 C   0  0  0  0  0  0  0  0  0  0  0  0
  127.9290  131.2290   64.2970 O   0  0  0  0  0  0  0  0  0  0  0  0
  127.7280  129.1570   63.3250 N   0  0  0  0  0  0  0  0  0  0  0  0
  127.0920  129.7640   62.1390 C   0  0  0  0  0  0  0  0  0  0  0  0
  129.1930  125.7970   64.4650 C   0  0  2  0  0  0  0  0  0  0  0  0
  130.6170  125.6000   65.0290 C   0  0  0  0  0  0  0  0  0  0  0  0
  130.7490  125.3580   66.4040 C   0  0  0  0  0  0  0  0  0  0  0  0
  132.0050  125.1780   66.9800 C   0  0  0  0  0  0  0  0  0  0  0  0
  133.1490  125.2370   66.1880 C   0  0  0  0  0  0  0  0  0  0  0  0
  134.7060  125.0170   66.9000 Cl  0  0  0  0  0  0  0  0  0  0  0  0
  133.0340  125.4760   64.8200 C   0  0  0  0  0  0  0  0  0  0  0  0
  131.7790  125.6560   64.2340 C   0  0  0  0  0  0  0  0  0  0  0  0
  131.7250  125.9470   62.5270 Cl  0  0  0  0  0  0  0  0  0  0  0  0
  130.6560  123.1980   60.8560 C   0  0  0  0  0  0  0  0  0  0  0  0
  131.2610  124.2220   60.5330 O   0  0  0  0  0  0  0  0  0  0  0  0
  131.4192  117.6869   62.8124 H   0  0  0  0  0  0  0  0  0  0  0  0
  130.3983  116.4092   62.0695 H   0  0  0  0  0  0  0  0  0  0  0  0
  132.1868  116.2428   62.0695 H   0  0  0  0  0  0  0  0  0  0  0  0
  133.2888  119.3672   59.7979 H   0  0  0  0  0  0  0  0  0  0  0  0
  133.6723  122.6341   61.6604 H   0  0  0  0  0  0  0  0  0  0  0  0
  135.0094  122.8052   60.4732 H   0  0  0  0  0  0  0  0  0  0  0  0
  133.6523  123.9820   60.4732 H   0  0  0  0  0  0  0  0  0  0  0  0
  127.2503  125.6680   60.2662 H   0  0  0  0  0  0  0  0  0  0  0  0
  129.0384  125.5515   59.9692 H   0  0  0  0  0  0  0  0  0  0  0  0
  127.2174  123.3834   61.1742 H   0  0  0  0  0  0  0  0  0  0  0  0
  127.5997  122.1364   59.2506 H   0  0  0  0  0  0  0  0  0  0  0  0
  127.2015  123.7923   58.6796 H   0  0  0  0  0  0  0  0  0  0  0  0
  128.9069  123.2280   58.6796 H   0  0  0  0  0  0  0  0  0  0  0  0
  127.7150  127.6290   61.3830 H   0  0  0  0  0  0  0  0  0  0  0  0
  128.3297  129.5076   67.6740 H   0  0  0  0  0  0  0  0  0  0  0  0
  129.1909  130.8298   66.8157 H   0  0  0  0  0  0  0  0  0  0  0  0
  127.3953  130.7792   66.8157 H   0  0  0  0  0  0  0  0  0  0  0  0
  126.3313  130.4900   62.4620 H   0  0  0  0  0  0  0  0  0  0  0  0
  127.8555  130.2769   61.5356 H   0  0  0  0  0  0  0  0  0  0  0  0
  126.6153  128.9774   61.5356 H   0  0  0  0  0  0  0  0  0  0  0  0
  128.5480  125.2604   65.1763 H   0  0  0  0  0  0  0  0  0  0  0  0
  129.8498  125.3097   67.0357 H   0  0  0  0  0  0  0  0  0  0  0  0
  132.0929  124.9893   68.0601 H   0  0  0  0  0  0  0  0  0  0  0  0
  133.9390  125.5233   64.1965 H   0  0  0  0  0  0  0  0  0  0  0  0
  1  2  1  0
  2  3  1  0
  3  4  2  0
  4  5  1  0
  5  6  1  0
  6  7  1  0
  5  8  2  0
  8  9  1  0
  9 10  2  0
 10 11  1  0
  9 12  1  0
 13 12  1  1
 13 14  1  0
 14 15  2  0
 14 16  1  0
 16 17  2  0
 17 18  1  0
 18 19  1  0
 19 20  1  0
 17 21  1  0
 21 22  1  0
 22 23  2  0
 23 24  1  0
 24 25  2  0
 24 26  1  0
 26 27  1  0
 26 28  1  0
 28 29  2  0
 28 30  1  0
 30 31  1  0
 23 32  1  0
 32 33  1  0
 33 34  2  0
 34 35  1  0
 35 36  2  0
 36 37  1  0
 36 38  1  0
 38 39  2  0
 39 40  1  0
 13 41  1  0
 41 42  2  0
 10  3  1  0
 19 13  1  0
 30 22  1  0
 39 33  1  0
 41  8  1  0
 32 16  1  0
  1 43  1  0
  1 44  1  0
  1 45  1  0
  4 46  1  0
  7 47  1  0
  7 48  1  0
  7 49  1  0
 18 50  1  0
 18 51  1  0
 19 52  1  1
 20 53  1  0
 20 54  1  0
 20 55  1  0
 21 56  1  0
 27 57  1  0
 27 58  1  0
 27 59  1  0
 31 60  1  0
 31 61  1  0
 31 62  1  0
 32 63  1  1
 34 64  1  0
 35 65  1  0
 38 66  1  0
M  END
>  <Binding energies>  (1) 
[-5.72]

>  <Ligand effiencies>  (1) 
[-0.1330232558139535]

>  <Interactions>  (1) 
["V-A:ILE:369:CG2:3237, V-B:PRO:540:CA:9855, V-A:GLU:543:CA:4904, V-A:GLY:454:CA:4049, V-A:ILE:369:CB:3236, V-B:ALA:541:CB:9864, V-B:TYR:539:CE2:9848, V-A:TYR:484:CE2:4346, V-A:LEU:475:CG:4257, V-B:GLU:543:CG:9879, V-B:TYR:539:C:9839, V-B:TYR:484:CE2:9317, H-B:GLU:543:OE1:9881, H-B:ALA:541:N:9863, V-A:LEU:475:CD1:4258, V-A:GLU:543:CD:4908, V-A:TYR:484:CZ:4347, V-A:ILE:455:C:4052, H-B:TYR:484:OH:9319, V-B:HIS:456:CE1:9041, V-A:ARG:545:CG:4922, V-A:GLY:453:C:4042, V-B:TYR:484:CZ:9318, V-A:ILE:369:CD1:3239, V-A:HIS:456:CE1:4070, V-A:PRO:482:CB:4326, V-B:TYR:539:CD2:9846, V-A:GLU:543:CG:4907, V-A:SER:385:CB:3409, H-A:SER:385:OG:3410, V-B:GLU:543:CD:9880, V-A:ARG:545:CD:4923, V-A:LEU:475:CD2:4259, V-A:ARG:545:CB:4921, V-A:ARG:545:CZ:4926, V-A:GLU:543:CB:4906, H-A:HIS:383:HE2:3395, V-A:GLY:453:CA:4044, V-B:PRO:540:C:9853, V-B:ALA:541:CA:9862, V-A:GLY:454:C:4047, V-A:HIS:383:NE2:3394"]

$$$$
ZINC524729252
     RDKit          3D

 55 59  0  0  0  0  0  0  0  0999 V2000
  126.5180  131.3380   56.7940 C   0  0  0  0  0  0  0  0  0  0  0  0
  127.4660  131.0260   57.8100 O   0  0  0  0  0  0  0  0  0  0  0  0
  127.3500  129.8380   58.5090 C   0  0  0  0  0  0  0  0  0  0  0  0
  126.5700  129.6850   59.6750 C   0  0  0  0  0  0  0  0  0  0  0  0
  126.4880  128.4490   60.3430 C   0  0  0  0  0  0  0  0  0  0  0  0
  125.7520  128.2170   61.4910 O   0  0  0  0  0  0  0  0  0  0  0  0
  126.3320  128.5120   62.7560 C   0  0  0  0  0  0  0  0  0  0  0  0
  127.2000  127.3640   59.8250 C   0  0  0  0  0  0  0  0  0  0  0  0
  127.9650  127.5130   58.6840 C   0  0  0  0  0  0  0  0  0  0  0  0
  128.0540  128.7300   58.0130 C   0  0  0  0  0  0  0  0  0  0  0  0
  129.0240  128.8620   56.5870 Cl  0  0  0  0  0  0  0  0  0  0  0  0
  128.6050  126.3670   58.2870 O   0  0  0  0  0  0  0  0  0  0  0  0
  128.2800  125.3390   59.2270 C   0  0  2  0  0  0  0  0  0  0  0  0
  129.6160  124.9460   59.9120 C   0  0  0  0  0  0  0  0  0  0  0  0
  130.5800  125.7150   59.9580 O   0  0  0  0  0  0  0  0  0  0  0  0
  129.7170  123.5600   60.4110 C   0  0  0  0  0  0  0  0  0  0  0  0
  128.7700  122.6140   60.1740 C   0  0  0  0  0  0  0  0  0  0  0  0
  127.5140  122.8740   59.3390 C   0  0  0  0  0  0  0  0  0  0  0  0
  127.6360  124.1450   58.4580 C   0  0  1  0  0  0  0  0  0  0  0  0
  126.3020  124.4110   57.7260 C   0  0  0  0  0  0  0  0  0  0  0  0
  128.8400  121.3470   60.6850 N   0  0  0  0  0  0  0  0  0  0  0  0
  129.9000  120.7940   61.3220 C   0  0  0  0  0  0  0  0  0  0  0  0
  129.8590  119.6820   61.8430 O   0  0  0  0  0  0  0  0  0  0  0  0
  131.1810  121.6650   61.2450 C   0  0  0  0  0  0  0  0  0  0  0  0
  130.8840  123.1920   61.3460 C   0  0  2  0  0  0  0  0  0  0  0  0
  130.7050  123.6670   62.7990 C   0  0  0  0  0  0  0  0  0  0  0  0
  131.2530  124.8930   63.1910 C   0  0  0  0  0  0  0  0  0  0  0  0
  131.0990  125.3470   64.4980 C   0  0  0  0  0  0  0  0  0  0  0  0
  130.3970  124.5730   65.4190 C   0  0  0  0  0  0  0  0  0  0  0  0
  130.2000  125.1380   67.0390 Cl  0  0  0  0  0  0  0  0  0  0  0  0
  129.8530  123.3470   65.0440 C   0  0  0  0  0  0  0  0  0  0  0  0
  130.0080  122.8940   63.7370 C   0  0  0  0  0  0  0  0  0  0  0  0
  127.3350  125.9730   60.2660 C   0  0  0  0  0  0  0  0  0  0  0  0
  126.8110  125.4290   61.2390 O   0  0  0  0  0  0  0  0  0  0  0  0
  125.5712  131.6496   57.2592 H   0  0  0  0  0  0  0  0  0  0  0  0
  126.9061  132.1558   56.1690 H   0  0  0  0  0  0  0  0  0  0  0  0
  126.3445  130.4496   56.1690 H   0  0  0  0  0  0  0  0  0  0  0  0
  126.0151  130.5489   60.0696 H   0  0  0  0  0  0  0  0  0  0  0  0
  125.6595  128.1699   63.5564 H   0  0  0  0  0  0  0  0  0  0  0  0
  127.2997  127.9965   62.8449 H   0  0  0  0  0  0  0  0  0  0  0  0
  126.4853  129.5976   62.8449 H   0  0  0  0  0  0  0  0  0  0  0  0
  127.3403  122.0071   58.6846 H   0  0  0  0  0  0  0  0  0  0  0  0
  126.6772  123.0305   60.0357 H   0  0  0  0  0  0  0  0  0  0  0  0
  128.3643  123.9818   57.6500 H   0  0  0  0  0  0  0  0  0  0  0  0
  125.5034  124.5702   58.4655 H   0  0  0  0  0  0  0  0  0  0  0  0
  126.4020  125.3069   57.0956 H   0  0  0  0  0  0  0  0  0  0  0  0
  126.0507  123.5453   57.0956 H   0  0  0  0  0  0  0  0  0  0  0  0
  128.0370  120.7410   60.6000 H   0  0  0  0  0  0  0  0  0  0  0  0
  131.8481  121.3818   62.0725 H   0  0  0  0  0  0  0  0  0  0  0  0
  131.6449  121.4834   60.2643 H   0  0  0  0  0  0  0  0  0  0  0  0
  131.7653  123.7489   60.9952 H   0  0  0  0  0  0  0  0  0  0  0  0
  131.8087  125.5017   62.4625 H   0  0  0  0  0  0  0  0  0  0  0  0
  131.5297  126.3125   64.8020 H   0  0  0  0  0  0  0  0  0  0  0  0
  129.3031  122.7392   65.7776 H   0  0  0  0  0  0  0  0  0  0  0  0
  129.5814  121.9248   63.4392 H   0  0  0  0  0  0  0  0  0  0  0  0
  1  2  1  0
  2  3  1  0
  3  4  2  0
  4  5  1  0
  5  6  1  0
  6  7  1  0
  5  8  2  0
  8  9  1  0
  9 10  2  0
 10 11  1  0
  9 12  1  0
 13 12  1  6
 13 14  1  0
 14 15  2  0
 14 16  1  0
 16 17  2  0
 17 18  1  0
 18 19  1  0
 19 20  1  0
 17 21  1  0
 21 22  1  0
 22 23  2  0
 22 24  1  0
 24 25  1  0
 25 26  1  0
 26 27  2  0
 27 28  1  0
 28 29  2  0
 29 30  1  0
 29 31  1  0
 31 32  2  0
 13 33  1  0
 33 34  2  0
 10  3  1  0
 19 13  1  0
 32 26  1  0
 33  8  1  0
 25 16  1  0
  1 35  1  0
  1 36  1  0
  1 37  1  0
  4 38  1  0
  7 39  1  0
  7 40  1  0
  7 41  1  0
 18 42  1  0
 18 43  1  0
 19 44  1  6
 20 45  1  0
 20 46  1  0
 20 47  1  0
 21 48  1  0
 24 49  1  0
 24 50  1  0
 25 51  1  6
 27 52  1  0
 28 53  1  0
 31 54  1  0
 32 55  1  0
M  END
>  <Binding energies>  (1) 
[-6.59]

>  <Ligand effiencies>  (1) 
[-0.18828571428571428]

>  <Interactions>  (1) 
["V-B:PRO:540:CA:9855, V-B:GLU:543:CB:9878, V-B:ASP:366:CG:8184, V-B:ALA:541:CB:9864, V-B:TYR:539:CE2:9848, V-A:TYR:484:CE2:4346, V-B:GLU:543:CG:9879, V-B:TYR:539:C:9839, V-A:TYR:539:CZ:4877, V-A:TYR:484:CZ:4347, V-B:PRO:540:CB:9857, V-B:PRO:540:N:9856, V-A:HIS:456:CE1:4070, V-B:TYR:539:CD2:9846, V-A:MET:535:CE:4835, V-B:GLU:543:CD:9880, V-A:LEU:475:CD2:4259, H-B:ARG:545:NH2:9900, H-B:TYR:539:O:9840, V-B:PRO:540:C:9853, V-A:TYR:539:CE1:4875, H-B:PRO:540:O:9854"]

$$$$
ZINC524729412
     RDKit          3D

 92 99  0  0  0  0  0  0  0  0999 V2000
  130.4060  124.8340   65.2270 C   0  0  0  0  0  0  0  0  0  0  0  0
  129.7770  125.6440   66.2130 O   0  0  0  0  0  0  0  0  0  0  0  0
  129.1080  126.7930   65.8270 C   0  0  0  0  0  0  0  0  0  0  0  0
  128.7450  127.0730   64.4990 C   0  0  0  0  0  0  0  0  0  0  0  0
  128.0640  128.2500   64.1690 C   0  0  0  0  0  0  0  0  0  0  0  0
  127.6800  128.5560   62.7110 C   0  0  2  0  0  0  0  0  0  0  0  0
  128.6740  127.9360   61.6820 C   0  0  0  0  0  0  0  0  0  0  0  0
  129.2970  128.6990   60.7440 C   0  0  0  0  0  0  0  0  0  0  0  0
  130.2530  128.1650   59.6770 C   0  0  0  0  0  0  0  0  0  0  0  0
  130.0950  126.6400   59.4660 C   0  0  1  0  0  0  0  0  0  0  0  0
  131.1410  126.1320   58.4490 C   0  0  0  0  0  0  0  0  0  0  0  0
  129.9900  125.8780   60.8230 C   0  0  1  0  0  0  0  0  0  0  0  0
  129.6090  124.5270   60.5520 O   0  0  0  0  0  0  0  0  0  0  0  0
  130.5690  123.7070   61.0870 C   0  0  0  0  0  0  0  0  0  0  0  0
  130.5370  122.3170   61.0180 C   0  0  0  0  0  0  0  0  0  0  0  0
  129.2200  121.5220   60.2250 Cl  0  0  0  0  0  0  0  0  0  0  0  0
  131.5820  121.5780   61.5930 C   0  0  0  0  0  0  0  0  0  0  0  0
  131.5110  120.2000   61.4960 O   0  0  0  0  0  0  0  0  0  0  0  0
  131.7280  119.5730   60.2370 C   0  0  0  0  0  0  0  0  0  0  0  0
  132.6350  122.2670   62.2290 C   0  0  0  0  0  0  0  0  0  0  0  0
  132.6570  123.6730   62.2930 C   0  0  0  0  0  0  0  0  0  0  0  0
  133.6500  124.4230   62.8970 O   0  0  0  0  0  0  0  0  0  0  0  0
  134.8850  124.6120   62.2150 C   0  0  0  0  0  0  0  0  0  0  0  0
  131.6050  124.3810   61.7080 C   0  0  0  0  0  0  0  0  0  0  0  0
  131.3200  125.8150   61.5980 C   0  0  0  0  0  0  0  0  0  0  0  0
  131.9910  126.7570   62.0230 O   0  0  0  0  0  0  0  0  0  0  0  0
  128.8770  126.4660   61.7310 C   0  0  0  0  0  0  0  0  0  0  0  0
  128.1070  125.7380   62.3660 O   0  0  0  0  0  0  0  0  0  0  0  0
  128.9940  130.0360   60.6270 N   0  0  0  0  0  0  0  0  0  0  0  0
  128.1010  130.7120   61.4290 C   0  0  0  0  0  0  0  0  0  0  0  0
  127.4520  130.0660   62.4280 C   0  0  0  0  0  0  0  0  0  0  0  0
  126.4700  130.8180   63.2080 C   0  0  0  0  0  0  0  0  0  0  0  0
  125.7340  130.2750   64.0360 O   0  0  0  0  0  0  0  0  0  0  0  0
  126.4370  132.1650   62.9160 N   0  0  0  0  0  0  0  0  0  0  0  0
  125.4440  132.9690   63.6620 C   0  0  0  0  0  0  0  0  0  0  0  0
  127.2070  132.8550   61.9940 C   0  0  0  0  0  0  0  0  0  0  0  0
  127.3400  134.0840   62.0290 O   0  0  0  0  0  0  0  0  0  0  0  0
  127.9290  132.0520   61.1350 N   0  0  0  0  0  0  0  0  0  0  0  0
  128.5700  132.7310   59.9900 C   0  0  0  0  0  0  0  0  0  0  0  0
  127.7460  129.1560   65.1830 C   0  0  0  0  0  0  0  0  0  0  0  0
  128.0990  128.8900   66.5030 C   0  0  0  0  0  0  0  0  0  0  0  0
  128.7810  127.7100   66.8370 C   0  0  0  0  0  0  0  0  0  0  0  0
  129.1650  127.3860   68.1240 O   0  0  0  0  0  0  0  0  0  0  0  0
  129.8430  128.3480   68.9280 C   0  0  0  0  0  0  0  0  0  0  0  0
  130.4020  127.6550   70.1830 C   0  0  0  0  0  0  0  0  0  0  0  0
  129.4350  127.6840   71.3580 C   0  0  0  0  0  0  0  0  0  0  0  0
  128.4250  126.7140   71.4590 C   0  0  0  0  0  0  0  0  0  0  0  0
  127.5230  126.7360   72.5250 C   0  0  0  0  0  0  0  0  0  0  0  0
  127.6420  127.7500   73.4720 C   0  0  0  0  0  0  0  0  0  0  0  0
  128.6280  128.7170   73.3880 C   0  0  0  0  0  0  0  0  0  0  0  0
  129.5430  128.6830   72.3370 C   0  0  0  0  0  0  0  0  0  0  0  0
  128.5180  129.5890   74.5960 C   0  0  0  0  0  0  0  0  0  0  0  0
  127.1960  129.1090   75.2130 C   0  0  0  0  0  0  0  0  0  0  0  0
  126.8490  127.8750   74.5820 O   0  0  0  0  0  0  0  0  0  0  0  0
  131.0090  124.0575   65.7205 H   0  0  0  0  0  0  0  0  0  0  0  0
  129.6383  124.3582   64.5991 H   0  0  0  0  0  0  0  0  0  0  0  0
  131.0571  125.4600   64.5991 H   0  0  0  0  0  0  0  0  0  0  0  0
  129.0003  126.3552   63.7056 H   0  0  0  0  0  0  0  0  0  0  0  0
  126.7069  128.0621   62.5723 H   0  0  0  0  0  0  0  0  0  0  0  0
  130.0461  128.6781   58.7263 H   0  0  0  0  0  0  0  0  0  0  0  0
  131.2816  128.3556   60.0172 H   0  0  0  0  0  0  0  0  0  0  0  0
  129.1282  126.4118   58.9934 H   0  0  0  0  0  0  0  0  0  0  0  0
  132.0034  125.7132   58.9883 H   0  0  0  0  0  0  0  0  0  0  0  0
  130.6898  125.3527   57.8173 H   0  0  0  0  0  0  0  0  0  0  0  0
  131.4746  126.9685   57.8173 H   0  0  0  0  0  0  0  0  0  0  0  0
  132.0840  118.5444   60.3961 H   0  0  0  0  0  0  0  0  0  0  0  0
  130.7851  119.5512   59.6709 H   0  0  0  0  0  0  0  0  0  0  0  0
  132.4826  120.1387   59.6709 H   0  0  0  0  0  0  0  0  0  0  0  0
  133.4561  121.6941   62.6845 H   0  0  0  0  0  0  0  0  0  0  0  0
  135.6943  124.7359   62.9496 H   0  0  0  0  0  0  0  0  0  0  0  0
  135.0934  123.7353   61.5842 H   0  0  0  0  0  0  0  0  0  0  0  0
  134.8217  125.5109   61.5842 H   0  0  0  0  0  0  0  0  0  0  0  0
  129.4770  130.5630   59.9130 H   0  0  0  0  0  0  0  0  0  0  0  0
  125.6043  132.8392   64.7425 H   0  0  0  0  0  0  0  0  0  0  0  0
  125.5599  134.0308   63.3991 H   0  0  0  0  0  0  0  0  0  0  0  0
  124.4295  132.6348   63.3991 H   0  0  0  0  0  0  0  0  0  0  0  0
  129.2808  133.4839   60.3613 H   0  0  0  0  0  0  0  0  0  0  0  0
  129.1063  131.9907   59.3781 H   0  0  0  0  0  0  0  0  0  0  0  0
  127.8001  133.2238   59.3781 H   0  0  0  0  0  0  0  0  0  0  0  0
  127.2129  130.0862   64.9370 H   0  0  0  0  0  0  0  0  0  0  0  0
  127.8408  129.6118   67.2919 H   0  0  0  0  0  0  0  0  0  0  0  0
  130.6698  128.7908   68.3532 H   0  0  0  0  0  0  0  0  0  0  0  0
  129.1414  129.1413   69.2255 H   0  0  0  0  0  0  0  0  0  0  0  0
  130.6220  126.6060   69.9357 H   0  0  0  0  0  0  0  0  0  0  0  0
  131.3060  128.2031   70.4868 H   0  0  0  0  0  0  0  0  0  0  0  0
  128.3434  125.9299   70.6919 H   0  0  0  0  0  0  0  0  0  0  0  0
  126.7377  125.9710   72.6144 H   0  0  0  0  0  0  0  0  0  0  0  0
  130.3442  129.4342   72.2757 H   0  0  0  0  0  0  0  0  0  0  0  0
  129.3618  129.4290   75.2833 H   0  0  0  0  0  0  0  0  0  0  0  0
  128.5387  130.6655   74.3708 H   0  0  0  0  0  0  0  0  0  0  0  0
  127.3208  128.9551   76.2950 H   0  0  0  0  0  0  0  0  0  0  0  0
  126.4041  129.8572   75.0611 H   0  0  0  0  0  0  0  0  0  0  0  0
  1  2  1  0
  2  3  1  0
  3  4  2  0
  4  5  1  0
  5  6  1  0
  6  7  1  0
  7  8  2  0
  8  9  1  0
  9 10  1  0
 10 11  1  0
 10 12  1  0
 12 13  1  6
 13 14  1  0
 14 15  2  0
 15 16  1  0
 15 17  1  0
 17 18  1  0
 18 19  1  0
 17 20  2  0
 20 21  1  0
 21 22  1  0
 22 23  1  0
 21 24  2  0
 24 25  1  0
 25 26  2  0
 12 27  1  0
 27 28  2  0
  8 29  1  0
 29 30  1  0
 30 31  2  0
 31 32  1  0
 32 33  2  0
 32 34  1  0
 34 35  1  0
 34 36  1  0
 36 37  2  0
 36 38  1  0
 38 39  1  0
  5 40  2  0
 40 41  1  0
 41 42  2  0
 42 43  1  0
 43 44  1  0
 44 45  1  0
 45 46  1  0
 46 47  2  0
 47 48  1  0
 48 49  2  0
 49 50  1  0
 50 51  2  0
 50 52  1  0
 52 53  1  0
 53 54  1  0
 42  3  1  0
 51 46  1  0
 31  6  1  0
 54 49  1  0
 27  7  1  0
 38 30  1  0
 25 12  1  0
 24 14  1  0
  1 55  1  0
  1 56  1  0
  1 57  1  0
  4 58  1  0
  6 59  1  6
  9 60  1  0
  9 61  1  0
 10 62  1  6
 11 63  1  0
 11 64  1  0
 11 65  1  0
 19 66  1  0
 19 67  1  0
 19 68  1  0
 20 69  1  0
 23 70  1  0
 23 71  1  0
 23 72  1  0
 29 73  1  0
 35 74  1  0
 35 75  1  0
 35 76  1  0
 39 77  1  0
 39 78  1  0
 39 79  1  0
 40 80  1  0
 41 81  1  0
 44 82  1  0
 44 83  1  0
 45 84  1  0
 45 85  1  0
 47 86  1  0
 48 87  1  0
 51 88  1  0
 52 89  1  0
 52 90  1  0
 53 91  1  0
 53 92  1  0
M  END
>  <Binding energies>  (1) 
[-6.82]

>  <Ligand effiencies>  (1) 
[-0.124]

>  <Interactions>  (1) 
["V-B:PRO:540:CA:9855, V-A:GLU:543:CA:4904, V-B:HIS:456:CD2:9039, V-A:GLU:543:C:4902, V-B:GLU:543:CB:9878, H-B:LYS:547:NZ:9923, V-B:TYR:539:CE2:9848, V-B:GLU:543:CG:9879, V-B:LEU:475:CD2:9230, V-B:TYR:539:C:9839, V-A:ASP:366:CG:3213, V-A:TYR:539:CD1:4873, V-B:LYS:547:CE:9922, V-A:GLU:543:CD:4908, H-B:TYR:484:OH:9319, V-B:GLY:454:CA:9020, V-B:HIS:456:CE1:9041, H-A:GLY:454:N:4050, V-A:GLY:453:C:4042, V-B:PRO:540:N:9856, V-A:HIS:456:CE1:4070, V-A:ILE:369:CD1:3239, V-B:GLY:544:C:9884, V-B:GLY:544:CA:9886, V-A:GLU:543:CG:4907, V-B:TYR:539:CD2:9846, H-A:SER:385:OG:3410, V-B:GLU:543:CD:9880, V-A:LEU:475:CD2:4259, H-A:ARG:545:NH2:4928, V-A:ARG:545:CZ:4926, V-A:GLU:543:CB:4906, V-A:GLY:453:CA:4044, V-A:PRO:540:CA:4883"]

$$$$
ZINC524730515
     RDKit          3D

 61 64  0  0  0  0  0  0  0  0999 V2000
  128.3080  122.7950   63.6090 C   0  0  0  0  0  0  0  0  0  0  0  0
  127.7980  122.3850   62.3490 O   0  0  0  0  0  0  0  0  0  0  0  0
  127.0060  123.2060   61.6310 C   0  0  0  0  0  0  0  0  0  0  0  0
  125.7730  123.2330   61.6630 O   0  0  0  0  0  0  0  0  0  0  0  0
  127.8260  124.1460   60.7330 C   0  0  0  0  0  0  0  0  0  0  0  0
  129.2100  123.6050   60.2470 C   0  0  2  0  0  0  0  0  0  0  0  0
  130.2940  123.8240   61.3160 C   0  0  0  0  0  0  0  0  0  0  0  0
  130.1680  124.8550   62.2530 C   0  0  0  0  0  0  0  0  0  0  0  0
  131.1490  125.0510   63.2250 C   0  0  0  0  0  0  0  0  0  0  0  0
  132.2670  124.2170   63.2730 C   0  0  0  0  0  0  0  0  0  0  0  0
  133.2180  124.4300   64.2370 O   0  0  0  0  0  0  0  0  0  0  0  0
  132.4030  123.1810   62.3390 C   0  0  0  0  0  0  0  0  0  0  0  0
  133.7720  122.1260   62.3660 Cl  0  0  0  0  0  0  0  0  0  0  0  0
  131.4190  122.9900   61.3690 C   0  0  0  0  0  0  0  0  0  0  0  0
  129.6620  124.1560   58.8430 C   0  0  1  0  0  0  0  0  0  0  0  0
  128.5100  124.1120   57.8130 C   0  0  0  0  0  0  0  0  0  0  0  0
  128.3310  123.1460   57.0730 O   0  0  0  0  0  0  0  0  0  0  0  0
  127.5950  125.3420   57.7750 C   0  0  0  0  0  0  0  0  0  0  0  0
  128.3900  126.6700   57.6920 C   0  0  1  0  0  0  0  0  0  0  0  0
  127.4110  127.8520   57.5360 C   0  0  0  0  0  0  0  0  0  0  0  0
  129.5020  126.7970   58.7860 C   0  0  1  0  0  0  0  0  0  0  0  0
  130.3980  127.8390   58.3830 O   0  0  0  0  0  0  0  0  0  0  0  0
  130.5010  128.7330   59.4180 C   0  0  0  0  0  0  0  0  0  0  0  0
  131.3310  129.8530   59.4060 C   0  0  0  0  0  0  0  0  0  0  0  0
  132.3270  130.1760   58.0290 Cl  0  0  0  0  0  0  0  0  0  0  0  0
  131.3440  130.7050   60.5200 C   0  0  0  0  0  0  0  0  0  0  0  0
  132.1870  131.8010   60.4700 O   0  0  0  0  0  0  0  0  0  0  0  0
  133.3880  131.7990   61.2320 C   0  0  0  0  0  0  0  0  0  0  0  0
  130.5100  130.4070   61.6180 C   0  0  0  0  0  0  0  0  0  0  0  0
  129.6740  129.2750   61.6160 C   0  0  0  0  0  0  0  0  0  0  0  0
  128.8280  128.9130   62.6480 O   0  0  0  0  0  0  0  0  0  0  0  0
  129.0980  127.7230   63.3790 C   0  0  0  0  0  0  0  0  0  0  0  0
  129.6900  128.4400   60.4950 C   0  0  0  0  0  0  0  0  0  0  0  0
  128.9590  127.2120   60.1690 C   0  0  0  0  0  0  0  0  0  0  0  0
  128.0920  126.6540   60.8400 O   0  0  0  0  0  0  0  0  0  0  0  0
  130.3890  125.5240   58.9010 C   0  0  0  0  0  0  0  0  0  0  0  0
  131.6130  125.5770   59.0340 O   0  0  0  0  0  0  0  0  0  0  0  0
  127.7224  122.3242   64.4124 H   0  0  0  0  0  0  0  0  0  0  0  0
  129.3611  122.4892   63.6954 H   0  0  0  0  0  0  0  0  0  0  0  0
  128.2356  123.8892   63.6954 H   0  0  0  0  0  0  0  0  0  0  0  0
  127.2217  124.3700   59.8416 H   0  0  0  0  0  0  0  0  0  0  0  0
  128.0557  125.0222   61.3570 H   0  0  0  0  0  0  0  0  0  0  0  0
  129.0725  122.5236   60.0997 H   0  0  0  0  0  0  0  0  0  0  0  0
  129.2891  125.5158   62.2231 H   0  0  0  0  0  0  0  0  0  0  0  0
  131.0411  125.8657   63.9562 H   0  0  0  0  0  0  0  0  0  0  0  0
  132.9960  124.0240   65.0770 H   0  0  0  0  0  0  0  0  0  0  0  0
  131.5272  122.1757   60.6375 H   0  0  0  0  0  0  0  0  0  0  0  0
  130.4363  123.4632   58.4817 H   0  0  0  0  0  0  0  0  0  0  0  0
  126.9398  125.2673   56.8946 H   0  0  0  0  0  0  0  0  0  0  0  0
  127.0155  125.3569   58.7099 H   0  0  0  0  0  0  0  0  0  0  0  0
  129.0028  126.6832   56.7786 H   0  0  0  0  0  0  0  0  0  0  0  0
  127.1114  128.2137   58.5307 H   0  0  0  0  0  0  0  0  0  0  0  0
  127.9035  128.6655   56.9830 H   0  0  0  0  0  0  0  0  0  0  0  0
  126.5201  127.5197   56.9830 H   0  0  0  0  0  0  0  0  0  0  0  0
  133.1420  131.7994   62.3041 H   0  0  0  0  0  0  0  0  0  0  0  0
  133.9739  130.8999   60.9906 H   0  0  0  0  0  0  0  0  0  0  0  0
  133.9769  132.6962   60.9906 H   0  0  0  0  0  0  0  0  0  0  0  0
  130.5132  131.0730   62.4935 H   0  0  0  0  0  0  0  0  0  0  0  0
  129.0497  127.9360   64.4571 H   0  0  0  0  0  0  0  0  0  0  0  0
  128.3507  126.9576   63.1226 H   0  0  0  0  0  0  0  0  0  0  0  0
  130.1024  127.3551   63.1226 H   0  0  0  0  0  0  0  0  0  0  0  0
  1  2  1  0
  2  3  1  0
  3  4  2  0
  3  5  1  0
  5  6  1  0
  6  7  1  0
  7  8  2  0
  8  9  1  0
  9 10  2  0
 10 11  1  0
 10 12  1  0
 12 13  1  0
 12 14  2  0
  6 15  1  0
 15 16  1  0
 16 17  2  0
 16 18  1  0
 18 19  1  0
 19 20  1  0
 19 21  1  0
 21 22  1  6
 22 23  1  0
 23 24  2  0
 24 25  1  0
 24 26  1  0
 26 27  1  0
 27 28  1  0
 26 29  2  0
 29 30  1  0
 30 31  1  0
 31 32  1  0
 30 33  2  0
 33 34  1  0
 34 35  2  0
 21 36  1  0
 36 37  2  0
 14  7  1  0
 36 15  1  0
 34 21  1  0
 33 23  1  0
  1 38  1  0
  1 39  1  0
  1 40  1  0
  5 41  1  0
  5 42  1  0
  6 43  1  6
  8 44  1  0
  9 45  1  0
 11 46  1  0
 14 47  1  0
 15 48  1  6
 18 49  1  0
 18 50  1  0
 19 51  1  6
 20 52  1  0
 20 53  1  0
 20 54  1  0
 28 55  1  0
 28 56  1  0
 28 57  1  0
 29 58  1  0
 32 59  1  0
 32 60  1  0
 32 61  1  0
M  END
>  <Binding energies>  (1) 
[-5.84]

>  <Ligand effiencies>  (1) 
[-0.15368421052631578]

>  <Interactions>  (1) 
["V-B:PRO:540:CA:9855, V-A:GLY:454:CA:4049, V-B:ALA:541:CB:9864, H-A:TYR:531:OH:4795, V-B:TYR:539:CE2:9848, V-B:GLU:543:CG:9879, V-A:ASP:366:CG:3213, V-A:ASN:362:CB:3176, V-B:TYR:539:CZ:9849, V-A:TYR:531:CE2:4793, H-B:TYR:539:OH:9850, H-B:ALA:541:N:9863, V-A:GLU:543:CD:4908, H-A:GLY:454:N:4050, V-A:ILE:369:CD1:3239, V-B:TYR:539:CD2:9846, V-B:GLU:543:CD:9880, V-A:ASP:366:CB:3212, V-A:LEU:475:CD2:4259, H-A:ARG:545:NH2:4928, V-A:PRO:540:CB:4885, V-A:PRO:540:CA:4883, V-B:PRO:540:C:9853, V-B:ALA:541:CA:9862, H-A:TYR:484:OH:4348"]

$$$$
ZINC524730515-again1
     RDKit          3D

 60 63  0  0  0  0  0  0  0  0999 V2000
  125.8580  123.7090   61.2460 C   0  0  0  0  0  0  0  0  0  0  0  0
  126.7980  122.8470   61.8710 O   0  0  0  0  0  0  0  0  0  0  0  0
  128.0930  123.2100   61.9770 C   0  0  0  0  0  0  0  0  0  0  0  0
  128.5190  124.2470   62.4890 O   0  0  0  0  0  0  0  0  0  0  0  0
  129.0450  122.1700   61.3770 C   0  0  0  0  0  0  0  0  0  0  0  0
  130.1290  122.7680   60.4310 C   0  0  1  0  0  0  0  0  0  0  0  0
  129.5890  123.7840   59.3880 C   0  0  0  0  0  0  0  0  0  0  0  0
  128.3360  123.5730   58.7190 C   0  0  0  0  0  0  0  0  0  0  0  0
  127.6540  122.5150   58.9130 O   0  0  0  0  0  0  0  0  0  0  0  0
  127.6820  124.6540   57.8320 C   0  0  0  0  0  0  0  0  0  0  0  0
  128.5310  125.9370   57.6370 C   0  0  1  0  0  0  0  0  0  0  0  0
  127.6530  127.0860   57.0960 C   0  0  0  0  0  0  0  0  0  0  0  0
  129.4330  126.2450   58.8650 C   0  0  1  0  0  0  0  0  0  0  0  0
  130.3240  127.3140   58.5300 O   0  0  0  0  0  0  0  0  0  0  0  0
  130.2180  128.2630   59.5140 C   0  0  0  0  0  0  0  0  0  0  0  0
  130.9760  129.4310   59.5590 C   0  0  0  0  0  0  0  0  0  0  0  0
  132.1460  129.7490   58.3240 Cl  0  0  0  0  0  0  0  0  0  0  0  0
  130.7760  130.3360   60.6110 C   0  0  0  0  0  0  0  0  0  0  0  0
  131.5480  131.4840   60.6140 O   0  0  0  0  0  0  0  0  0  0  0  0
  132.6710  131.5730   61.4830 C   0  0  0  0  0  0  0  0  0  0  0  0
  129.8120  130.0370   61.5960 C   0  0  0  0  0  0  0  0  0  0  0  0
  129.0490  128.8560   61.5390 C   0  0  0  0  0  0  0  0  0  0  0  0
  128.0920  128.4830   62.4650 O   0  0  0  0  0  0  0  0  0  0  0  0
  128.4580  127.6050   63.5210 C   0  0  0  0  0  0  0  0  0  0  0  0
  129.2690  127.9760   60.4770 C   0  0  0  0  0  0  0  0  0  0  0  0
  128.6520  126.6970   60.1180 C   0  0  0  0  0  0  0  0  0  0  0  0
  127.7310  126.1140   60.6900 O   0  0  0  0  0  0  0  0  0  0  0  0
  130.3120  125.0000   59.1750 C   0  0  0  0  0  0  0  0  0  0  0  0
  131.5890  125.0180   59.1970 O   0  0  0  0  0  0  0  0  0  0  0  0
  131.3850  123.3000   61.1360 C   0  0  0  0  0  0  0  0  0  0  0  0
  132.6790  123.0390   60.6640 C   0  0  0  0  0  0  0  0  0  0  0  0
  133.7920  123.5290   61.3460 C   0  0  0  0  0  0  0  0  0  0  0  0
  133.6300  124.2840   62.5080 C   0  0  0  0  0  0  0  0  0  0  0  0
  134.7420  124.7480   63.1630 O   0  0  0  0  0  0  0  0  0  0  0  0
  132.3430  124.5550   62.9870 C   0  0  0  0  0  0  0  0  0  0  0  0
  132.0940  125.4730   64.4320 Cl  0  0  0  0  0  0  0  0  0  0  0  0
  131.2320  124.0700   62.2950 C   0  0  0  0  0  0  0  0  0  0  0  0
  125.2790  124.2400   62.0159 H   0  0  0  0  0  0  0  0  0  0  0  0
  126.3905  124.4393   60.6190 H   0  0  0  0  0  0  0  0  0  0  0  0
  125.1765  123.1154   60.6190 H   0  0  0  0  0  0  0  0  0  0  0  0
  129.5552  121.6522   62.2026 H   0  0  0  0  0  0  0  0  0  0  0  0
  128.4298  121.4935   60.7655 H   0  0  0  0  0  0  0  0  0  0  0  0
  130.4526  121.8824   59.8644 H   0  0  0  0  0  0  0  0  0  0  0  0
  127.4928  124.2151   56.8413 H   0  0  0  0  0  0  0  0  0  0  0  0
  126.7639  124.9664   58.3511 H   0  0  0  0  0  0  0  0  0  0  0  0
  129.2796  125.7763   56.8472 H   0  0  0  0  0  0  0  0  0  0  0  0
  127.2238  127.6476   57.9389 H   0  0  0  0  0  0  0  0  0  0  0  0
  128.2684  127.7598   56.4818 H   0  0  0  0  0  0  0  0  0  0  0  0
  126.8412  126.6692   56.4818 H   0  0  0  0  0  0  0  0  0  0  0  0
  132.3289  131.5459   62.5281 H   0  0  0  0  0  0  0  0  0  0  0  0
  133.3471  130.7256   61.2964 H   0  0  0  0  0  0  0  0  0  0  0  0
  133.2052  132.5163   61.2964 H   0  0  0  0  0  0  0  0  0  0  0  0
  129.6533  130.7414   62.4258 H   0  0  0  0  0  0  0  0  0  0  0  0
  128.2559  128.0897   64.4875 H   0  0  0  0  0  0  0  0  0  0  0  0
  127.8717  126.6773   63.4464 H   0  0  0  0  0  0  0  0  0  0  0  0
  129.5297  127.3684   63.4464 H   0  0  0  0  0  0  0  0  0  0  0  0
  132.8172  122.4436   59.7494 H   0  0  0  0  0  0  0  0  0  0  0  0
  134.8028  123.3193   60.9660 H   0  0  0  0  0  0  0  0  0  0  0  0
  135.1140  125.5330   62.7550 H   0  0  0  0  0  0  0  0  0  0  0  0
  130.2214  124.2962   62.6659 H   0  0  0  0  0  0  0  0  0  0  0  0
  1  2  1  0
  2  3  1  0
  3  4  2  0
  3  5  1  0
  5  6  1  0
  6  7  1  0
  7  8  2  0
  8  9  1  0
  8 10  1  0
 10 11  1  0
 11 12  1  0
 11 13  1  0
 13 14  1  6
 14 15  1  0
 15 16  2  0
 16 17  1  0
 16 18  1  0
 18 19  1  0
 19 20  1  0
 18 21  2  0
 21 22  1  0
 22 23  1  0
 23 24  1  0
 22 25  2  0
 25 26  1  0
 26 27  2  0
 13 28  1  0
 28 29  2  0
  6 30  1  0
 30 31  2  0
 31 32  1  0
 32 33  2  0
 33 34  1  0
 33 35  1  0
 35 36  1  0
 35 37  2  0
 28  7  1  0
 37 30  1  0
 26 13  1  0
 25 15  1  0
  1 38  1  0
  1 39  1  0
  1 40  1  0
  5 41  1  0
  5 42  1  0
  6 43  1  6
 10 44  1  0
 10 45  1  0
 11 46  1  6
 12 47  1  0
 12 48  1  0
 12 49  1  0
 20 50  1  0
 20 51  1  0
 20 52  1  0
 21 53  1  0
 24 54  1  0
 24 55  1  0
 24 56  1  0
 31 57  1  0
 32 58  1  0
 34 59  1  0
 37 60  1  0
M  CHG  1   9  -1
M  END
>  <Binding energies>  (1) 
[-5.7]

>  <Ligand effiencies>  (1) 
[-0.15]

>  <Interactions>  (1) 
["V-B:PRO:540:CA:9855, V-B:ALA:541:CB:9864, H-A:ARG:545:NH1:4927, H-A:TYR:531:OH:4795, V-B:TYR:539:CE2:9848, V-A:ASP:366:CG:3213, V-B:TYR:539:CZ:9849, H-B:TYR:539:OH:9850, H-B:ALA:541:N:9863, V-A:GLU:543:CD:4908, V-B:PRO:540:CB:9857, H-A:GLY:454:N:4050, V-A:ILE:369:CD1:3239, V-B:TYR:539:CD2:9846, V-B:GLU:543:CD:9880, V-A:ASP:366:CB:3212, H-A:ARG:545:NH2:4928, V-A:ARG:545:CZ:4926, H-A:ASP:366:OD1:3214, V-A:PRO:540:CB:4885, V-A:PRO:540:CA:4883"]

$$$$
ZINC524730589
     RDKit          3D

 75 79  0  0  0  0  0  0  0  0999 V2000
  132.2010  131.7540   61.2220 C   0  0  0  0  0  0  0  0  0  0  0  0
  130.9320  132.3890   61.2730 O   0  0  0  0  0  0  0  0  0  0  0  0
  130.1030  132.3910   60.2010 C   0  0  0  0  0  0  0  0  0  0  0  0
  129.4290  133.3730   59.8770 O   0  0  0  0  0  0  0  0  0  0  0  0
  130.0720  131.0900   59.4770 C   0  0  0  0  0  0  0  0  0  0  0  0
  130.0540  131.0250   58.1140 C   0  0  0  0  0  0  0  0  0  0  0  0
  130.1840  132.1690   57.1100 C   0  0  0  0  0  0  0  0  0  0  0  0
  130.0040  129.8020   57.4860 N   0  0  0  0  0  0  0  0  0  0  0  0
  130.0130  128.5810   58.1180 C   0  0  0  0  0  0  0  0  0  0  0  0
  129.9680  128.5080   59.4760 C   0  0  0  0  0  0  0  0  0  0  0  0
  129.9620  127.1970   60.1750 C   0  0  0  0  0  0  0  0  0  0  0  0
  130.0970  127.1230   61.3990 O   0  0  0  0  0  0  0  0  0  0  0  0
  129.8850  125.9170   59.2970 C   0  0  2  0  0  0  0  0  0  0  0  0
  129.0290  125.0250   60.0160 O   0  0  0  0  0  0  0  0  0  0  0  0
  129.7640  123.9170   60.3500 C   0  0  0  0  0  0  0  0  0  0  0  0
  129.2580  122.8270   61.0550 C   0  0  0  0  0  0  0  0  0  0  0  0
  127.6060  122.8240   61.5700 Cl  0  0  0  0  0  0  0  0  0  0  0  0
  130.1010  121.7420   61.3350 C   0  0  0  0  0  0  0  0  0  0  0  0
  129.5560  120.6800   62.0350 O   0  0  0  0  0  0  0  0  0  0  0  0
  129.8740  119.3480   61.6480 C   0  0  0  0  0  0  0  0  0  0  0  0
  131.4410  121.7880   60.8950 C   0  0  0  0  0  0  0  0  0  0  0  0
  131.9410  122.8950   60.1850 C   0  0  0  0  0  0  0  0  0  0  0  0
  133.2370  123.0180   59.7200 O   0  0  0  0  0  0  0  0  0  0  0  0
  134.1220  123.9250   60.3700 C   0  0  0  0  0  0  0  0  0  0  0  0
  131.0760  123.9600   59.9190 C   0  0  0  0  0  0  0  0  0  0  0  0
  131.2660  125.2370   59.2250 C   0  0  0  0  0  0  0  0  0  0  0  0
  132.2900  125.6680   58.6960 O   0  0  0  0  0  0  0  0  0  0  0  0
  129.2530  126.1750   57.8940 C   0  0  2  0  0  0  0  0  0  0  0  0
  129.1380  124.9730   56.9300 C   0  0  0  0  0  0  0  0  0  0  0  0
  129.9320  127.3710   57.1870 C   0  0  0  0  0  0  0  0  0  0  0  0
  129.9300  129.8000   60.3450 C   0  0  2  0  0  0  0  0  0  0  0  0
  128.7380  129.8370   61.3320 C   0  0  0  0  0  0  0  0  0  0  0  0
  128.8890  130.4340   62.5890 C   0  0  0  0  0  0  0  0  0  0  0  0
  127.8300  130.4870   63.5070 C   0  0  0  0  0  0  0  0  0  0  0  0
  127.9290  131.0730   64.7570 O   0  0  0  0  0  0  0  0  0  0  0  0
  128.7490  132.2240   64.9300 C   0  0  0  0  0  0  0  0  0  0  0  0
  126.5970  129.9210   63.1620 C   0  0  0  0  0  0  0  0  0  0  0  0
  125.5860  129.9950   64.1050 O   0  0  0  0  0  0  0  0  0  0  0  0
  125.6780  129.2230   65.2970 C   0  0  0  0  0  0  0  0  0  0  0  0
  126.4440  129.3190   61.9020 C   0  0  0  0  0  0  0  0  0  0  0  0
  127.5010  129.2720   60.9790 C   0  0  0  0  0  0  0  0  0  0  0  0
  127.3950  128.6920   59.7270 O   0  0  0  0  0  0  0  0  0  0  0  0
  126.4810  127.6240   59.5150 C   0  0  0  0  0  0  0  0  0  0  0  0
  132.5620  131.5734   62.2453 H   0  0  0  0  0  0  0  0  0  0  0  0
  132.1101  130.7952   60.6906 H   0  0  0  0  0  0  0  0  0  0  0  0
  132.9140  132.4016   60.6906 H   0  0  0  0  0  0  0  0  0  0  0  0
  130.2922  133.1208   57.6507 H   0  0  0  0  0  0  0  0  0  0  0  0
  131.0691  132.0036   56.4782 H   0  0  0  0  0  0  0  0  0  0  0  0
  129.2843  132.2064   56.4782 H   0  0  0  0  0  0  0  0  0  0  0  0
  129.9570  129.8020   56.4770 H   0  0  0  0  0  0  0  0  0  0  0  0
  130.0214  118.7305   62.5463 H   0  0  0  0  0  0  0  0  0  0  0  0
  129.0496  118.9334   61.0493 H   0  0  0  0  0  0  0  0  0  0  0  0
  130.7968  119.3505   61.0493 H   0  0  0  0  0  0  0  0  0  0  0  0
  132.1084  120.9409   61.1116 H   0  0  0  0  0  0  0  0  0  0  0  0
  134.0193  123.8197   61.4601 H   0  0  0  0  0  0  0  0  0  0  0  0
  135.1580  123.7007   60.0760 H   0  0  0  0  0  0  0  0  0  0  0  0
  133.8723  124.9551   60.0760 H   0  0  0  0  0  0  0  0  0  0  0  0
  128.2064  126.4060   58.1413 H   0  0  0  0  0  0  0  0  0  0  0  0
  129.0491  124.0436   57.5117 H   0  0  0  0  0  0  0  0  0  0  0  0
  128.2475  125.0953   56.2960 H   0  0  0  0  0  0  0  0  0  0  0  0
  130.0356  124.9243   56.2960 H   0  0  0  0  0  0  0  0  0  0  0  0
  130.9490  127.0805   56.8847 H   0  0  0  0  0  0  0  0  0  0  0  0
  129.3327  127.6449   56.3062 H   0  0  0  0  0  0  0  0  0  0  0  0
  130.8192  129.7720   60.9919 H   0  0  0  0  0  0  0  0  0  0  0  0
  129.8603  130.8715   62.8631 H   0  0  0  0  0  0  0  0  0  0  0  0
  128.8871  132.4178   66.0040 H   0  0  0  0  0  0  0  0  0  0  0  0
  129.7282  132.0506   64.4598 H   0  0  0  0  0  0  0  0  0  0  0  0
  128.2652  133.0929   64.4598 H   0  0  0  0  0  0  0  0  0  0  0  0
  125.5989  129.8867   66.1707 H   0  0  0  0  0  0  0  0  0  0  0  0
  124.8613  128.4865   65.3208 H   0  0  0  0  0  0  0  0  0  0  0  0
  126.6449  128.6991   65.3208 H   0  0  0  0  0  0  0  0  0  0  0  0
  125.4745  128.8746   61.6325 H   0  0  0  0  0  0  0  0  0  0  0  0
  126.1447  127.2310   60.4858 H   0  0  0  0  0  0  0  0  0  0  0  0
  125.6132  127.9913   58.9476 H   0  0  0  0  0  0  0  0  0  0  0  0
  126.9779  126.8233   58.9476 H   0  0  0  0  0  0  0  0  0  0  0  0
  1  2  1  0
  2  3  1  0
  3  4  2  0
  3  5  1  0
  5  6  2  0
  6  7  1  0
  6  8  1  0
  8  9  1  0
  9 10  2  0
 10 11  1  0
 11 12  2  0
 11 13  1  0
 13 14  1  1
 14 15  1  0
 15 16  2  0
 16 17  1  0
 16 18  1  0
 18 19  1  0
 19 20  1  0
 18 21  2  0
 21 22  1  0
 22 23  1  0
 23 24  1  0
 22 25  2  0
 25 26  1  0
 26 27  2  0
 13 28  1  0
 28 29  1  0
 28 30  1  0
 10 31  1  0
 31 32  1  0
 32 33  2  0
 33 34  1  0
 34 35  1  0
 35 36  1  0
 34 37  2  0
 37 38  1  0
 38 39  1  0
 37 40  1  0
 40 41  2  0
 41 42  1  0
 42 43  1  0
 31  5  1  0
 41 32  1  0
 30  9  1  0
 26 13  1  0
 25 15  1  0
  1 44  1  0
  1 45  1  0
  1 46  1  0
  7 47  1  0
  7 48  1  0
  7 49  1  0
  8 50  1  0
 20 51  1  0
 20 52  1  0
 20 53  1  0
 21 54  1  0
 24 55  1  0
 24 56  1  0
 24 57  1  0
 28 58  1  1
 29 59  1  0
 29 60  1  0
 29 61  1  0
 30 62  1  0
 30 63  1  0
 31 64  1  1
 33 65  1  0
 36 66  1  0
 36 67  1  0
 36 68  1  0
 39 69  1  0
 39 70  1  0
 39 71  1  0
 40 72  1  0
 43 73  1  0
 43 74  1  0
 43 75  1  0
M  END
>  <Binding energies>  (1) 
[-5.72]

>  <Ligand effiencies>  (1) 
[-0.13]

>  <Interactions>  (1) 
["V-A:ILE:369:CG2:3237, V-A:ASP:366:CA:3210, V-B:PRO:540:CA:9855, V-A:ILE:369:CB:3236, H-A:ALA:541:N:4891, V-B:ASP:366:CG:8184, V-B:ALA:541:CB:9864, H-A:TYR:531:OH:4795, V-B:TYR:539:CE2:9848, V-B:TYR:484:CE2:9317, V-B:TYR:539:CZ:9849, H-B:TYR:539:OH:9850, V-A:ALA:541:CB:4892, H-B:ALA:541:N:9863, V-A:GLU:543:CD:4908, H-B:TYR:484:OH:9319, V-B:TYR:484:CZ:9318, V-A:ILE:369:CD1:3239, V-B:TYR:539:CD2:9846, V-A:GLU:543:CG:4907, V-A:MET:535:CE:4835, V-B:GLU:543:CD:9880, V-B:ARG:545:CZ:9898, V-A:LEU:475:CD2:4259, V-A:PRO:540:N:4884, V-A:PRO:540:CB:4885, V-A:PRO:540:CA:4883, V-B:PRO:540:C:9853, V-B:TYR:539:CE1:9847"]

$$$$
ZINC524730589-again1
     RDKit          3D

 74 78  0  0  0  0  0  0  0  0999 V2000
  127.6390  133.9650   61.1820 C   0  0  0  0  0  0  0  0  0  0  0  0
  127.3960  133.2560   59.9750 O   0  0  0  0  0  0  0  0  0  0  0  0
  128.4140  132.7100   59.2620 C   0  0  0  0  0  0  0  0  0  0  0  0
  129.2660  133.3950   58.6870 O   0  0  0  0  0  0  0  0  0  0  0  0
  128.3820  131.2180   59.2220 C   0  0  0  0  0  0  0  0  0  0  0  0
  127.4930  130.5430   58.4330 C   0  0  0  0  0  0  0  0  0  0  0  0
  126.5400  131.1170   57.3850 C   0  0  0  0  0  0  0  0  0  0  0  0
  127.4250  129.1690   58.4700 N   0  0  0  0  0  0  0  0  0  0  0  0
  128.2090  128.3580   59.2490 C   0  0  0  0  0  0  0  0  0  0  0  0
  127.9120  127.0470   59.3230 C   0  0  0  0  0  0  0  0  0  0  0  0
  128.7600  126.0550   60.1100 C   0  0  1  0  0  0  0  0  0  0  0  0
  128.4730  124.6160   59.6280 C   0  0  0  0  0  0  0  0  0  0  0  0
  130.2540  126.5510   60.1960 C   0  0  1  0  0  0  0  0  0  0  0  0
  130.8230  125.8190   61.2900 O   0  0  0  0  0  0  0  0  0  0  0  0
  131.8700  125.0830   60.7990 C   0  0  0  0  0  0  0  0  0  0  0  0
  132.6710  124.2510   61.5780 C   0  0  0  0  0  0  0  0  0  0  0  0
  132.3740  124.1100   63.2760 Cl  0  0  0  0  0  0  0  0  0  0  0  0
  133.7110  123.5350   60.9670 C   0  0  0  0  0  0  0  0  0  0  0  0
  134.4800  122.7190   61.7780 O   0  0  0  0  0  0  0  0  0  0  0  0
  133.9770  121.4500   62.1770 C   0  0  0  0  0  0  0  0  0  0  0  0
  133.9170  123.6800   59.5790 C   0  0  0  0  0  0  0  0  0  0  0  0
  133.1010  124.5230   58.8020 C   0  0  0  0  0  0  0  0  0  0  0  0
  133.2350  124.7210   57.4400 O   0  0  0  0  0  0  0  0  0  0  0  0
  133.2270  126.0490   56.9300 C   0  0  0  0  0  0  0  0  0  0  0  0
  132.0720  125.2230   59.4390 C   0  0  0  0  0  0  0  0  0  0  0  0
  131.0620  126.1610   58.9400 C   0  0  0  0  0  0  0  0  0  0  0  0
  130.8830  126.5410   57.7830 O   0  0  0  0  0  0  0  0  0  0  0  0
  130.3230  128.0920   60.4280 C   0  0  0  0  0  0  0  0  0  0  0  0
  131.3600  128.5480   61.0540 O   0  0  0  0  0  0  0  0  0  0  0  0
  129.3400  128.9350   59.9800 C   0  0  0  0  0  0  0  0  0  0  0  0
  129.3190  130.4730   60.2260 C   0  0  2  0  0  0  0  0  0  0  0  0
  129.0970  130.8510   61.7070 C   0  0  0  0  0  0  0  0  0  0  0  0
  128.0330  130.2770   62.4120 C   0  0  0  0  0  0  0  0  0  0  0  0
  127.7960  130.5850   63.7600 C   0  0  0  0  0  0  0  0  0  0  0  0
  126.7590  130.0410   64.4990 O   0  0  0  0  0  0  0  0  0  0  0  0
  125.7300  129.3150   63.8340 C   0  0  0  0  0  0  0  0  0  0  0  0
  128.6430  131.4860   64.4150 C   0  0  0  0  0  0  0  0  0  0  0  0
  128.3680  131.7540   65.7450 O   0  0  0  0  0  0  0  0  0  0  0  0
  128.3730  130.6920   66.6920 C   0  0  0  0  0  0  0  0  0  0  0  0
  129.7090  132.0660   63.7070 C   0  0  0  0  0  0  0  0  0  0  0  0
  129.9480  131.7580   62.3590 C   0  0  0  0  0  0  0  0  0  0  0  0
  130.9910  132.3010   61.6280 O   0  0  0  0  0  0  0  0  0  0  0  0
  132.2220  131.6000   61.5180 C   0  0  0  0  0  0  0  0  0  0  0  0
  127.4161  133.3145   62.0406 H   0  0  0  0  0  0  0  0  0  0  0  0
  128.6942  134.2735   61.2200 H   0  0  0  0  0  0  0  0  0  0  0  0
  126.9949  134.8559   61.2200 H   0  0  0  0  0  0  0  0  0  0  0  0
  125.7022  131.6216   57.8885 H   0  0  0  0  0  0  0  0  0  0  0  0
  127.0793  131.8406   56.7561 H   0  0  0  0  0  0  0  0  0  0  0  0
  126.1526  130.3019   56.7561 H   0  0  0  0  0  0  0  0  0  0  0  0
  126.6800  128.7290   57.9530 H   0  0  0  0  0  0  0  0  0  0  0  0
  127.0213  126.6769   58.7941 H   0  0  0  0  0  0  0  0  0  0  0  0
  128.4781  126.0086   61.1722 H   0  0  0  0  0  0  0  0  0  0  0  0
  128.3416  123.9570   60.4989 H   0  0  0  0  0  0  0  0  0  0  0  0
  127.5557  124.6087   59.0209 H   0  0  0  0  0  0  0  0  0  0  0  0
  129.3173  124.2574   59.0209 H   0  0  0  0  0  0  0  0  0  0  0  0
  133.9545  121.3933   63.2753 H   0  0  0  0  0  0  0  0  0  0  0  0
  132.9588  121.3185   61.7822 H   0  0  0  0  0  0  0  0  0  0  0  0
  134.6287  120.6566   61.7822 H   0  0  0  0  0  0  0  0  0  0  0  0
  134.7321  123.1227   59.0942 H   0  0  0  0  0  0  0  0  0  0  0  0
  133.2227  126.7631   57.7667 H   0  0  0  0  0  0  0  0  0  0  0  0
  134.1242  126.2108   56.3145 H   0  0  0  0  0  0  0  0  0  0  0  0
  132.3279  126.2000   56.3145 H   0  0  0  0  0  0  0  0  0  0  0  0
  130.3318  130.8418   60.0063 H   0  0  0  0  0  0  0  0  0  0  0  0
  127.3674  129.5683   61.8975 H   0  0  0  0  0  0  0  0  0  0  0  0
  125.0694  128.8489   64.5799 H   0  0  0  0  0  0  0  0  0  0  0  0
  125.1451  130.0015   63.2042 H   0  0  0  0  0  0  0  0  0  0  0  0
  126.1807  128.5338   63.2042 H   0  0  0  0  0  0  0  0  0  0  0  0
  128.3710  131.1086   67.7101 H   0  0  0  0  0  0  0  0  0  0  0  0
  127.4778  130.0690   66.5490 H   0  0  0  0  0  0  0  0  0  0  0  0
  129.2740  130.0775   66.5490 H   0  0  0  0  0  0  0  0  0  0  0  0
  130.3714  132.7779   64.2212 H   0  0  0  0  0  0  0  0  0  0  0  0
  132.6094  131.3794   62.5236 H   0  0  0  0  0  0  0  0  0  0  0  0
  132.0603  130.6585   60.9726 H   0  0  0  0  0  0  0  0  0  0  0  0
  132.9492  132.2194   60.9726 H   0  0  0  0  0  0  0  0  0  0  0  0
  1  2  1  0
  2  3  1  0
  3  4  2  0
  3  5  1  0
  5  6  2  0
  6  7  1  0
  6  8  1  0
  8  9  1  0
  9 10  2  0
 10 11  1  0
 11 12  1  0
 11 13  1  0
 13 14  1  1
 14 15  1  0
 15 16  2  0
 16 17  1  0
 16 18  1  0
 18 19  1  0
 19 20  1  0
 18 21  2  0
 21 22  1  0
 22 23  1  0
 23 24  1  0
 22 25  2  0
 25 26  1  0
 26 27  2  0
 13 28  1  0
 28 29  1  0
 28 30  2  0
 30 31  1  0
 31 32  1  0
 32 33  2  0
 33 34  1  0
 34 35  1  0
 35 36  1  0
 34 37  2  0
 37 38  1  0
 38 39  1  0
 37 40  1  0
 40 41  2  0
 41 42  1  0
 42 43  1  0
 31  5  1  0
 41 32  1  0
 30  9  1  0
 26 13  1  0
 25 15  1  0
  1 44  1  0
  1 45  1  0
  1 46  1  0
  7 47  1  0
  7 48  1  0
  7 49  1  0
  8 50  1  0
 10 51  1  0
 11 52  1  1
 12 53  1  0
 12 54  1  0
 12 55  1  0
 20 56  1  0
 20 57  1  0
 20 58  1  0
 21 59  1  0
 24 60  1  0
 24 61  1  0
 24 62  1  0
 31 63  1  6
 33 64  1  0
 36 65  1  0
 36 66  1  0
 36 67  1  0
 39 68  1  0
 39 69  1  0
 39 70  1  0
 40 71  1  0
 43 72  1  0
 43 73  1  0
 43 74  1  0
M  CHG  1  29  -1
M  END
>  <Binding energies>  (1) 
[-4.39]

>  <Ligand effiencies>  (1) 
[-0.09977272727272726]

>  <Interactions>  (1) 
["V-A:ILE:369:CG2:3237, V-A:ASP:366:CA:3210, V-A:GLU:543:CA:4904, V-A:GLY:454:CA:4049, V-A:ILE:369:CB:3236, H-A:ALA:541:N:4891, H-A:TYR:531:OH:4795, V-B:TYR:539:CE2:9848, V-A:ASN:370:CB:3245, V-A:TYR:531:CE1:4792, V-A:ASP:366:CG:3213, V-A:TYR:539:CD1:4873, V-B:TYR:484:CE2:9317, V-B:TYR:539:CZ:9849, V-A:TYR:539:CZ:4877, V-A:TYR:531:CE2:4793, H-B:TYR:539:OH:9850, V-A:ALA:541:CB:4892, V-A:GLU:543:CD:4908, H-B:TYR:484:OH:9319, V-B:HIS:456:CE1:9041, H-A:GLY:454:N:4050, V-A:SER:385:C:3405, V-A:ILE:369:CD1:3239, V-B:TYR:484:CZ:9318, V-A:ASP:366:C:3208, V-A:ALA:541:CA:4890, V-A:GLU:543:CG:4907, V-A:TYR:531:CZ:4794, V-A:SER:385:CB:3409, V-B:ARG:545:CZ:9898, V-A:TYR:539:C:4867, H-B:TYR:531:OH:9767, V-A:ASP:366:CB:3212, V-A:LEU:475:CD2:4259, H-A:ARG:545:NH2:4928, V-A:GLU:543:CB:4906, H-A:TYR:539:N:4870, V-A:PRO:540:CB:4885, V-A:PRO:540:CA:4883, V-A:SER:385:CA:3407, V-A:TYR:539:CE1:4875"]

$$$$
ZINC524730759
     RDKit          3D

 69 74  0  0  0  0  0  0  0  0999 V2000
  133.2100  121.3140   61.0830 C   0  0  0  0  0  0  0  0  0  0  0  0
  132.3270  121.9900   60.1950 O   0  0  0  0  0  0  0  0  0  0  0  0
  131.9220  123.2770   60.4940 C   0  0  0  0  0  0  0  0  0  0  0  0
  131.6390  123.5430   61.8330 C   0  0  0  0  0  0  0  0  0  0  0  0
  131.2300  124.8110   62.2380 C   0  0  0  0  0  0  0  0  0  0  0  0
  131.0980  125.8290   61.2950 C   0  0  0  0  0  0  0  0  0  0  0  0
  130.7310  127.1890   61.6890 C   0  0  0  0  0  0  0  0  0  0  0  0
  130.7040  128.2180   60.8080 C   0  0  0  0  0  0  0  0  0  0  0  0
  130.4520  129.6710   61.2710 C   0  0  1  0  0  0  0  0  0  0  0  0
  131.8070  130.4240   61.3000 C   0  0  0  0  0  0  0  0  0  0  0  0
  131.6480  131.9170   61.6380 C   0  0  0  0  0  0  0  0  0  0  0  0
  132.3720  132.5820   62.3770 O   0  0  0  0  0  0  0  0  0  0  0  0
  130.5630  132.5560   61.0940 O   0  0  0  0  0  0  0  0  0  0  0  0
  129.6070  131.8740   60.3590 C   0  0  0  0  0  0  0  0  0  0  0  0
  128.7450  132.6630   59.5840 C   0  0  0  0  0  0  0  0  0  0  0  0
  127.7090  132.0690   58.8550 C   0  0  0  0  0  0  0  0  0  0  0  0
  127.5370  130.6890   58.9350 C   0  0  0  0  0  0  0  0  0  0  0  0
  128.3730  129.9310   59.7230 C   0  0  0  0  0  0  0  0  0  0  0  0
  129.4470  130.4760   60.4360 C   0  0  0  0  0  0  0  0  0  0  0  0
  128.0360  128.6110   59.6870 O   0  0  0  0  0  0  0  0  0  0  0  0
  127.0000  128.4560   58.8290 C   0  0  0  0  0  0  0  0  0  0  0  0
  126.4830  127.2530   58.5070 C   0  0  0  0  0  0  0  0  0  0  0  0
  126.8820  125.9450   59.0740 C   0  0  0  0  0  0  0  0  0  0  0  0
  127.1770  124.9190   58.1730 C   0  0  0  0  0  0  0  0  0  0  0  0
  127.5620  123.6440   58.6150 C   0  0  0  0  0  0  0  0  0  0  0  0
  127.8920  122.6040   57.7640 O   0  0  0  0  0  0  0  0  0  0  0  0
  127.2200  122.4760   56.5170 C   0  0  0  0  0  0  0  0  0  0  0  0
  127.6210  123.3860   59.9890 C   0  0  0  0  0  0  0  0  0  0  0  0
  127.9690  122.1010   60.3700 O   0  0  0  0  0  0  0  0  0  0  0  0
  128.7510  121.8970   61.5410 C   0  0  0  0  0  0  0  0  0  0  0  0
  127.3330  124.4170   60.8960 C   0  0  0  0  0  0  0  0  0  0  0  0
  126.9660  125.7010   60.4550 C   0  0  0  0  0  0  0  0  0  0  0  0
  126.6440  126.7320   61.3210 O   0  0  0  0  0  0  0  0  0  0  0  0
  127.6180  127.2280   62.2320 C   0  0  0  0  0  0  0  0  0  0  0  0
  126.5990  129.7610   58.3040 C   0  0  0  0  0  0  0  0  0  0  0  0
  125.6860  129.9750   57.5070 O   0  0  0  0  0  0  0  0  0  0  0  0
  130.9450  127.9970   59.3740 C   0  0  0  0  0  0  0  0  0  0  0  0
  130.8650  128.9160   58.5530 O   0  0  0  0  0  0  0  0  0  0  0  0
  131.2470  126.6980   59.0270 N   0  0  0  0  0  0  0  0  0  0  0  0
  131.4810  126.4140   57.5980 C   0  0  0  0  0  0  0  0  0  0  0  0
  131.3830  125.6030   59.9400 C   0  0  0  0  0  0  0  0  0  0  0  0
  131.7870  124.3130   59.5510 C   0  0  0  0  0  0  0  0  0  0  0  0
  132.9237  121.5332   62.1222 H   0  0  0  0  0  0  0  0  0  0  0  0
  133.1485  120.2300   60.9066 H   0  0  0  0  0  0  0  0  0  0  0  0
  134.2404  121.6563   60.9066 H   0  0  0  0  0  0  0  0  0  0  0  0
  131.7401  122.7410   62.5790 H   0  0  0  0  0  0  0  0  0  0  0  0
  131.0119  125.0085   63.2979 H   0  0  0  0  0  0  0  0  0  0  0  0
  130.4673  127.3835   62.7391 H   0  0  0  0  0  0  0  0  0  0  0  0
  129.9910  129.5864   62.2662 H   0  0  0  0  0  0  0  0  0  0  0  0
  132.4527  129.9579   62.0588 H   0  0  0  0  0  0  0  0  0  0  0  0
  132.2475  130.3554   60.2944 H   0  0  0  0  0  0  0  0  0  0  0  0
  128.8839  133.7536   59.5490 H   0  0  0  0  0  0  0  0  0  0  0  0
  127.0422  132.6809   58.2298 H   0  0  0  0  0  0  0  0  0  0  0  0
  125.6865  127.2425   57.7484 H   0  0  0  0  0  0  0  0  0  0  0  0
  127.1059  125.1149   57.0929 H   0  0  0  0  0  0  0  0  0  0  0  0
  126.1536  122.2729   56.6943 H   0  0  0  0  0  0  0  0  0  0  0  0
  127.3253  123.4104   55.9461 H   0  0  0  0  0  0  0  0  0  0  0  0
  127.6614  121.6458   55.9461 H   0  0  0  0  0  0  0  0  0  0  0  0
  128.1266  122.0599   62.4319 H   0  0  0  0  0  0  0  0  0  0  0  0
  129.1388  120.8676   61.5482 H   0  0  0  0  0  0  0  0  0  0  0  0
  129.5922  122.6058   61.5482 H   0  0  0  0  0  0  0  0  0  0  0  0
  127.3956  124.2166   61.9758 H   0  0  0  0  0  0  0  0  0  0  0  0
  127.2773  127.0545   63.2634 H   0  0  0  0  0  0  0  0  0  0  0  0
  128.5724  126.7061   62.0684 H   0  0  0  0  0  0  0  0  0  0  0  0
  127.7573  128.3068   62.0684 H   0  0  0  0  0  0  0  0  0  0  0  0
  132.1778  125.5683   57.5015 H   0  0  0  0  0  0  0  0  0  0  0  0
  130.5267  126.1599   57.1136 H   0  0  0  0  0  0  0  0  0  0  0  0
  131.9130  127.3021   57.1136 H   0  0  0  0  0  0  0  0  0  0  0  0
  132.0012  124.1104   58.4912 H   0  0  0  0  0  0  0  0  0  0  0  0
  1  2  1  0
  2  3  1  0
  3  4  2  0
  4  5  1  0
  5  6  2  0
  6  7  1  0
  7  8  2  0
  8  9  1  0
  9 10  1  0
 10 11  1  0
 11 12  2  0
 11 13  1  0
 13 14  1  0
 14 15  2  0
 15 16  1  0
 16 17  2  0
 17 18  1  0
 18 19  2  0
 18 20  1  0
 20 21  1  0
 21 22  2  0
 22 23  1  0
 23 24  2  0
 24 25  1  0
 25 26  1  0
 26 27  1  0
 25 28  2  0
 28 29  1  0
 29 30  1  0
 28 31  1  0
 31 32  2  0
 32 33  1  0
 33 34  1  0
 21 35  1  0
 35 36  2  0
  8 37  1  0
 37 38  2  0
 37 39  1  0
 39 40  1  0
 39 41  1  0
 41 42  2  0
 42  3  1  0
 41  6  1  0
 19  9  1  0
 32 23  1  0
 19 14  1  0
 35 17  1  0
  1 43  1  0
  1 44  1  0
  1 45  1  0
  4 46  1  0
  5 47  1  0
  7 48  1  0
  9 49  1  1
 10 50  1  0
 10 51  1  0
 15 52  1  0
 16 53  1  0
 22 54  1  0
 24 55  1  0
 27 56  1  0
 27 57  1  0
 27 58  1  0
 30 59  1  0
 30 60  1  0
 30 61  1  0
 31 62  1  0
 34 63  1  0
 34 64  1  0
 34 65  1  0
 40 66  1  0
 40 67  1  0
 40 68  1  0
 42 69  1  0
M  END
>  <Binding energies>  (1) 
[-6.61]

>  <Ligand effiencies>  (1) 
[-0.1573809523809524]

>  <Interactions>  (1) 
["V-A:ILE:369:CG2:3237, V-B:PRO:540:CA:9855, V-B:TYR:539:CE1:9847, H-A:ALA:541:N:4891, V-A:PRO:540:C:4881, V-B:ALA:541:CB:9864, H-A:TYR:531:OH:4795, V-B:TYR:539:CE2:9848, V-B:TYR:539:C:9839, V-A:ASP:366:CG:3213, V-A:TYR:539:CD1:4873, V-B:TYR:539:CZ:9849, H-B:ALA:541:N:9863, V-B:PRO:540:N:9856, V-A:TYR:531:CZ:4794, V-B:GLU:543:CD:9880, V-A:TYR:539:C:4867, H-B:TYR:531:OH:9767, V-A:ASP:366:CB:3212, V-A:LEU:475:CD2:4259, V-B:TYR:539:CG:9844, H-B:ARG:545:NH2:9900, V-B:TYR:539:CD1:9845, V-A:PRO:540:CB:4885, V-A:PRO:540:CA:4883, V-B:PRO:540:C:9853, V-A:TYR:539:CE1:4875"]

$$$$
ZINC524731346-again1
     RDKit          3D

 67 73  0  0  0  0  0  0  0  0999 V2000
  131.6770  133.6730   56.8820 C   0  0  0  0  0  0  0  0  0  0  0  0
  130.3350  133.3280   56.5550 O   0  0  0  0  0  0  0  0  0  0  0  0
  129.7080  132.3010   57.2390 C   0  0  0  0  0  0  0  0  0  0  0  0
  128.4870  132.4500   57.9300 C   0  0  0  0  0  0  0  0  0  0  0  0
  127.8950  131.3690   58.6110 C   0  0  0  0  0  0  0  0  0  0  0  0
  126.7020  131.4300   59.3080 O   0  0  0  0  0  0  0  0  0  0  0  0
  125.4780  131.4140   58.5850 C   0  0  0  0  0  0  0  0  0  0  0  0
  128.5480  130.1350   58.5920 C   0  0  0  0  0  0  0  0  0  0  0  0
  129.7430  129.9850   57.9130 C   0  0  0  0  0  0  0  0  0  0  0  0
  130.3360  131.0470   57.2330 C   0  0  0  0  0  0  0  0  0  0  0  0
  131.8320  130.8080   56.3960 Cl  0  0  0  0  0  0  0  0  0  0  0  0
  130.2650  128.7190   57.9660 O   0  0  0  0  0  0  0  0  0  0  0  0
  129.3860  127.9190   58.7680 C   0  0  2  0  0  0  0  0  0  0  0  0
  128.2180  128.8380   59.1890 C   0  0  0  0  0  0  0  0  0  0  0  0
  127.2310  128.5370   59.8610 O   0  0  0  0  0  0  0  0  0  0  0  0
  130.1000  127.3630   60.0350 C   0  0  0  0  0  0  0  0  0  0  0  0
  130.9720  128.1240   60.6150 O   0  0  0  0  0  0  0  0  0  0  0  0
  129.7670  126.1480   60.5670 C   0  0  0  0  0  0  0  0  0  0  0  0
  128.7800  125.3020   59.8900 C   0  0  0  0  0  0  0  0  0  0  0  0
  128.3760  125.5720   58.6340 C   0  0  0  0  0  0  0  0  0  0  0  0
  128.8920  126.7590   57.8250 C   0  0  1  0  0  0  0  0  0  0  0  0
  127.9080  127.0850   56.6800 C   0  0  0  0  0  0  0  0  0  0  0  0
  128.2590  124.1830   60.4640 N   0  0  0  0  0  0  0  0  0  0  0  0
  128.7890  123.5110   61.5090 C   0  0  0  0  0  0  0  0  0  0  0  0
  128.2170  122.5660   62.0510 O   0  0  0  0  0  0  0  0  0  0  0  0
  130.2000  124.0090   61.9100 C   0  0  0  0  0  0  0  0  0  0  0  0
  130.3370  125.5670   61.8860 C   0  0  2  0  0  0  0  0  0  0  0  0
  129.7280  126.2020   63.1610 C   0  0  0  0  0  0  0  0  0  0  0  0
  128.8990  127.2710   63.1160 C   0  0  0  0  0  0  0  0  0  0  0  0
  128.3640  127.9000   64.3210 C   0  0  0  0  0  0  0  0  0  0  0  0
  127.5440  129.0250   64.2490 C   0  0  0  0  0  0  0  0  0  0  0  0
  127.0890  129.6190   65.4210 C   0  0  0  0  0  0  0  0  0  0  0  0
  127.4550  129.0900   66.6570 C   0  0  0  0  0  0  0  0  0  0  0  0
  128.2720  127.9560   66.7460 C   0  0  0  0  0  0  0  0  0  0  0  0
  128.7340  127.3480   65.5580 C   0  0  0  0  0  0  0  0  0  0  0  0
  129.6150  126.2130   65.5770 N   0  0  0  0  0  0  0  0  0  0  0  0
  130.1170  125.6010   64.4470 C   0  0  0  0  0  0  0  0  0  0  0  0
  130.8410  124.5990   64.4950 O   0  0  0  0  0  0  0  0  0  0  0  0
  129.9470  125.5750   66.8790 C   0  0  0  0  0  0  0  0  0  0  0  0
  130.0100  126.6520   67.9800 C   0  0  0  0  0  0  0  0  0  0  0  0
  128.6670  127.3820   68.0970 C   0  0  0  0  0  0  0  0  0  0  0  0
  131.7919  133.7025   57.9756 H   0  0  0  0  0  0  0  0  0  0  0  0
  132.3616  132.9216   56.4615 H   0  0  0  0  0  0  0  0  0  0  0  0
  131.9144  134.6614   56.4615 H   0  0  0  0  0  0  0  0  0  0  0  0
  127.9876  133.4301   57.9369 H   0  0  0  0  0  0  0  0  0  0  0  0
  124.6349  131.4030   59.2915 H   0  0  0  0  0  0  0  0  0  0  0  0
  125.4143  132.3114   57.9520 H   0  0  0  0  0  0  0  0  0  0  0  0
  125.4377  130.5153   57.9520 H   0  0  0  0  0  0  0  0  0  0  0  0
  127.6371  124.9036   58.1678 H   0  0  0  0  0  0  0  0  0  0  0  0
  129.8185  126.5206   57.2820 H   0  0  0  0  0  0  0  0  0  0  0  0
  126.9446  127.4042   57.1042 H   0  0  0  0  0  0  0  0  0  0  0  0
  128.3218  127.8941   56.0602 H   0  0  0  0  0  0  0  0  0  0  0  0
  127.7568  126.1889   56.0602 H   0  0  0  0  0  0  0  0  0  0  0  0
  127.3590  123.8460   60.1520 H   0  0  0  0  0  0  0  0  0  0  0  0
  130.4187  123.6551   62.9283 H   0  0  0  0  0  0  0  0  0  0  0  0
  130.9089  123.6085   61.1704 H   0  0  0  0  0  0  0  0  0  0  0  0
  131.4043  125.8327   61.9019 H   0  0  0  0  0  0  0  0  0  0  0  0
  128.6175  127.6816   62.1351 H   0  0  0  0  0  0  0  0  0  0  0  0
  127.2587  129.4402   63.2712 H   0  0  0  0  0  0  0  0  0  0  0  0
  126.4404  130.5061   65.3724 H   0  0  0  0  0  0  0  0  0  0  0  0
  127.0961  129.5713   67.5787 H   0  0  0  0  0  0  0  0  0  0  0  0
  129.1725  124.8363   67.1330 H   0  0  0  0  0  0  0  0  0  0  0  0
  130.9227  125.0729   66.8021 H   0  0  0  0  0  0  0  0  0  0  0  0
  130.2462  126.1728   68.9416 H   0  0  0  0  0  0  0  0  0  0  0  0
  130.7895  127.3825   67.7178 H   0  0  0  0  0  0  0  0  0  0  0  0
  127.8949  126.6741   68.4326 H   0  0  0  0  0  0  0  0  0  0  0  0
  128.7616  128.2009   68.8253 H   0  0  0  0  0  0  0  0  0  0  0  0
  1  2  1  0
  2  3  1  0
  3  4  2  0
  4  5  1  0
  5  6  1  0
  6  7  1  0
  5  8  2  0
  8  9  1  0
  9 10  2  0
 10 11  1  0
  9 12  1  0
 13 12  1  6
 13 14  1  0
 14 15  2  0
 13 16  1  0
 16 17  1  0
 16 18  2  0
 18 19  1  0
 19 20  2  0
 20 21  1  0
 21 22  1  0
 19 23  1  0
 23 24  1  0
 24 25  2  0
 24 26  1  0
 26 27  1  0
 27 28  1  0
 28 29  2  0
 29 30  1  0
 30 31  2  0
 31 32  1  0
 32 33  2  0
 33 34  1  0
 34 35  2  0
 35 36  1  0
 36 37  1  0
 37 38  2  0
 36 39  1  0
 39 40  1  0
 40 41  1  0
 10  3  1  0
 21 13  1  0
 37 28  1  0
 14  8  1  0
 27 18  1  0
 35 30  1  0
 41 34  1  0
  1 42  1  0
  1 43  1  0
  1 44  1  0
  4 45  1  0
  7 46  1  0
  7 47  1  0
  7 48  1  0
 20 49  1  0
 21 50  1  6
 22 51  1  0
 22 52  1  0
 22 53  1  0
 23 54  1  0
 26 55  1  0
 26 56  1  0
 27 57  1  6
 29 58  1  0
 31 59  1  0
 32 60  1  0
 33 61  1  0
 39 62  1  0
 39 63  1  0
 40 64  1  0
 40 65  1  0
 41 66  1  0
 41 67  1  0
M  CHG  1  17  -1
M  END
>  <Binding energies>  (1) 
[-6.38]

>  <Ligand effiencies>  (1) 
[-0.1519047619047619]

>  <Interactions>  (1) 
["V-A:ILE:538:C:4858, V-A:PRO:540:CG:4886, V-B:GLU:543:CB:9878, V-A:ILE:538:CB:4862, H-A:TYR:531:OH:4795, V-B:GLU:543:CG:9879, V-A:ILE:538:CG2:4863, V-A:TYR:539:CD1:4873, V-A:LEU:363:CD1:3189, V-A:ILE:538:CA:4860, V-A:TYR:539:CZ:4877, V-A:TYR:531:CE2:4793, H-B:ALA:541:N:9863, V-A:GLU:543:CD:4908, V-B:HIS:456:CE1:9041, V-A:HIS:456:CE1:4070, V-B:TYR:484:CZ:9318, V-A:TYR:531:CZ:4794, V-A:MET:535:CE:4835, V-B:GLU:543:CD:9880, V-A:TYR:539:C:4867, V-A:PRO:540:N:4884, H-A:TYR:539:N:4870, V-A:PRO:540:CB:4885, V-A:PRO:540:CA:4883, V-A:PRO:540:CD:4887, V-A:TYR:539:CE1:4875, H-A:TYR:484:OH:4348"]

$$$$
ZINC526261594
     RDKit          3D

 68 71  0  0  0  0  0  0  0  0999 V2000
  125.4010  124.2360   57.4230 C   0  0  0  0  0  0  0  0  0  0  0  0
  126.0580  122.8510   57.4730 C   0  0  0  0  0  0  0  0  0  0  0  0
  127.5790  122.9160   57.6770 C   0  0  0  0  0  0  0  0  0  0  0  0
  127.8520  122.8750   59.0740 O   0  0  0  0  0  0  0  0  0  0  0  0
  128.0170  124.0580   59.7750 C   0  0  0  0  0  0  0  0  0  0  0  0
  127.0660  124.5690   60.6740 C   0  0  0  0  0  0  0  0  0  0  0  0
  127.3000  125.7590   61.3560 C   0  0  0  0  0  0  0  0  0  0  0  0
  128.4850  126.4790   61.1470 C   0  0  0  0  0  0  0  0  0  0  0  0
  128.8410  127.7610   61.9250 C   0  0  1  0  0  0  0  0  0  0  0  0
  127.6550  128.6600   62.2060 C   0  0  0  0  0  0  0  0  0  0  0  0
  126.9370  129.2660   61.4120 O   0  0  0  0  0  0  0  0  0  0  0  0
  127.4120  128.6820   63.7430 C   0  0  0  0  0  0  0  0  0  0  0  0
  126.4710  129.2740   64.2760 O   0  0  0  0  0  0  0  0  0  0  0  0
  128.4090  127.9560   64.3190 N   0  0  0  0  0  0  0  0  0  0  0  0
  128.5530  127.8010   65.7270 C   0  0  0  0  0  0  0  0  0  0  0  0
  129.0280  126.5910   66.2470 C   0  0  0  0  0  0  0  0  0  0  0  0
  129.1530  126.4100   67.6210 C   0  0  0  0  0  0  0  0  0  0  0  0
  128.8020  127.4340   68.5090 C   0  0  0  0  0  0  0  0  0  0  0  0
  128.9460  127.2100   69.9850 C   0  0  0  0  0  0  0  0  0  0  0  0
  127.6820  126.9310   70.8020 C   0  0  0  0  0  0  0  0  0  0  0  0
  130.0260  127.2360   70.5760 O   0  0  0  0  0  0  0  0  0  0  0  0
  128.3210  128.6440   67.9930 C   0  0  0  0  0  0  0  0  0  0  0  0
  128.1960  128.8250   66.6180 C   0  0  0  0  0  0  0  0  0  0  0  0
  129.4430  127.5770   63.3290 C   0  0  1  0  0  0  0  0  0  0  0  0
  130.1390  126.2270   63.5660 C   0  0  0  0  0  0  0  0  0  0  0  0
  129.4340  125.0260   63.4930 C   0  0  0  0  0  0  0  0  0  0  0  0
  130.0790  123.7970   63.6880 C   0  0  0  0  0  0  0  0  0  0  0  0
  129.4290  122.5760   63.6150 O   0  0  0  0  0  0  0  0  0  0  0  0
  129.1330  122.0120   62.3410 C   0  0  0  0  0  0  0  0  0  0  0  0
  131.4550  123.7860   63.9650 C   0  0  0  0  0  0  0  0  0  0  0  0
  132.0520  122.5630   64.1480 O   0  0  0  0  0  0  0  0  0  0  0  0
  132.1910  124.9910   64.0500 C   0  0  0  0  0  0  0  0  0  0  0  0
  133.6560  125.0330   64.3300 N   0  0  0  0  0  0  0  0  0  0  0  0
  134.4600  125.0430   63.4040 O   0  0  0  0  0  0  0  0  0  0  0  0
  134.0240  125.0590   65.5030 O   0  0  0  0  0  0  0  0  0  0  0  0
  131.5040  126.1980   63.8510 C   0  0  0  0  0  0  0  0  0  0  0  0
  129.4280  125.9680   60.2520 C   0  0  0  0  0  0  0  0  0  0  0  0
  129.2130  124.7600   59.5690 C   0  0  0  0  0  0  0  0  0  0  0  0
  130.1290  124.2010   58.6950 O   0  0  0  0  0  0  0  0  0  0  0  0
  131.4540  124.7200   58.6420 C   0  0  0  0  0  0  0  0  0  0  0  0
  125.2294  124.5976   58.4476 H   0  0  0  0  0  0  0  0  0  0  0  0
  126.0627  124.9368   56.8928 H   0  0  0  0  0  0  0  0  0  0  0  0
  124.4397  124.1669   56.8928 H   0  0  0  0  0  0  0  0  0  0  0  0
  125.6165  122.2833   58.3054 H   0  0  0  0  0  0  0  0  0  0  0  0
  125.8763  122.3651   56.5030 H   0  0  0  0  0  0  0  0  0  0  0  0
  128.0565  122.0582   57.1807 H   0  0  0  0  0  0  0  0  0  0  0  0
  127.9770  123.8453   57.2434 H   0  0  0  0  0  0  0  0  0  0  0  0
  126.1261  124.0223   60.8406 H   0  0  0  0  0  0  0  0  0  0  0  0
  126.5492  126.1381   62.0650 H   0  0  0  0  0  0  0  0  0  0  0  0
  129.5764  128.1835   61.2245 H   0  0  0  0  0  0  0  0  0  0  0  0
  129.3051  125.7755   65.5628 H   0  0  0  0  0  0  0  0  0  0  0  0
  129.5308  125.4541   68.0129 H   0  0  0  0  0  0  0  0  0  0  0  0
  127.9198  126.9835   71.8747 H   0  0  0  0  0  0  0  0  0  0  0  0
  126.9154  127.6815   70.5592 H   0  0  0  0  0  0  0  0  0  0  0  0
  127.3025  125.9275   70.5592 H   0  0  0  0  0  0  0  0  0  0  0  0
  128.0400  129.4570   68.6787 H   0  0  0  0  0  0  0  0  0  0  0  0
  127.8139  129.7793   66.2265 H   0  0  0  0  0  0  0  0  0  0  0  0
  130.3011  128.2545   63.4500 H   0  0  0  0  0  0  0  0  0  0  0  0
  128.3551  125.0435   63.2791 H   0  0  0  0  0  0  0  0  0  0  0  0
  128.6257  121.0454   62.4768 H   0  0  0  0  0  0  0  0  0  0  0  0
  128.4771  122.6949   61.7811 H   0  0  0  0  0  0  0  0  0  0  0  0
  130.0676  121.8601   61.7811 H   0  0  0  0  0  0  0  0  0  0  0  0
  132.1280  122.3260   65.0760 H   0  0  0  0  0  0  0  0  0  0  0  0
  132.0565  127.1465   63.9216 H   0  0  0  0  0  0  0  0  0  0  0  0
  130.3606  126.5248   60.0782 H   0  0  0  0  0  0  0  0  0  0  0  0
  131.8311  124.8677   59.6647 H   0  0  0  0  0  0  0  0  0  0  0  0
  132.1048  124.0103   58.1102 H   0  0  0  0  0  0  0  0  0  0  0  0
  131.4496  125.6829   58.1102 H   0  0  0  0  0  0  0  0  0  0  0  0
  1  2  1  0
  2  3  1  0
  3  4  1  0
  4  5  1  0
  5  6  2  0
  6  7  1  0
  7  8  2  0
  8  9  1  0
  9 10  1  0
 10 11  2  0
 10 12  1  0
 12 13  2  0
 12 14  1  0
 14 15  1  0
 15 16  2  0
 16 17  1  0
 17 18  2  0
 18 19  1  0
 19 20  1  0
 19 21  2  0
 18 22  1  0
 22 23  2  0
 14 24  1  0
 24 25  1  0
 25 26  2  0
 26 27  1  0
 27 28  1  0
 28 29  1  0
 27 30  2  0
 30 31  1  0
 30 32  1  0
 32 33  1  0
 33 34  2  0
 33 35  1  0
 32 36  2  0
  8 37  1  0
 37 38  2  0
 38 39  1  0
 39 40  1  0
 38  5  1  0
 24  9  1  0
 36 25  1  0
 23 15  1  0
  1 41  1  0
  1 42  1  0
  1 43  1  0
  2 44  1  0
  2 45  1  0
  3 46  1  0
  3 47  1  0
  6 48  1  0
  7 49  1  0
  9 50  1  6
 16 51  1  0
 17 52  1  0
 20 53  1  0
 20 54  1  0
 20 55  1  0
 22 56  1  0
 23 57  1  0
 24 58  1  6
 26 59  1  0
 29 60  1  0
 29 61  1  0
 29 62  1  0
 31 63  1  0
 36 64  1  0
 37 65  1  0
 40 66  1  0
 40 67  1  0
 40 68  1  0
M  CHG  2  33   1  35  -1
M  END
>  <Binding energies>  (1) 
[-7.25]

>  <Ligand effiencies>  (1) 
[-0.17682926829268292]

>  <Interactions>  (1) 
["V-B:PRO:540:CA:9855, V-B:GLU:543:C:9874, V-B:GLU:543:CB:9878, V-B:ALA:541:CB:9864, H-A:ARG:545:NH1:4927, V-B:TYR:539:CE2:9848, V-B:GLU:543:CG:9879, V-B:TYR:539:C:9839, V-B:TYR:539:CZ:9849, H-B:TYR:539:OH:9850, V-A:GLU:543:CD:4908, V-B:PRO:540:CB:9857, H-B:TYR:484:OH:9319, V-B:HIS:456:CE1:9041, H-A:GLY:454:N:4050, V-B:PRO:540:N:9856, V-A:HIS:456:CE1:4070, V-B:GLY:544:C:9884, V-B:TYR:539:CD2:9846, V-B:PRO:540:CD:9859, V-A:GLU:543:CG:4907, V-B:GLU:543:CD:9880, H-A:ARG:545:NH2:4928, V-A:ARG:545:CZ:4926, V-B:TYR:539:CG:9844, V-A:GLU:543:CB:4906, V-B:LEU:363:CD1:8160, H-A:ARG:545:NE:4924, H-A:TYR:484:OH:4348"]

$$$$
ZINC526261594-again1
     RDKit          3D

 67 70  0  0  0  0  0  0  0  0999 V2000
  134.6520  118.3290   56.7740 C   0  0  0  0  0  0  0  0  0  0  0  0
  133.6210  119.3820   57.2020 C   0  0  0  0  0  0  0  0  0  0  0  0
  132.8730  119.0010   58.4890 C   0  0  0  0  0  0  0  0  0  0  0  0
  133.2820  119.8820   59.5310 O   0  0  0  0  0  0  0  0  0  0  0  0
  132.3270  120.5170   60.3070 C   0  0  0  0  0  0  0  0  0  0  0  0
  132.3890  121.8740   60.6600 C   0  0  0  0  0  0  0  0  0  0  0  0
  131.3870  122.4530   61.4340 C   0  0  0  0  0  0  0  0  0  0  0  0
  130.3060  121.6880   61.8900 C   0  0  0  0  0  0  0  0  0  0  0  0
  129.1240  122.2830   62.6820 C   0  0  1  0  0  0  0  0  0  0  0  0
  129.5110  122.8540   64.0290 C   0  0  0  0  0  0  0  0  0  0  0  0
  129.9510  122.2720   65.0200 O   0  0  0  0  0  0  0  0  0  0  0  0
  129.3160  124.3980   63.9790 C   0  0  0  0  0  0  0  0  0  0  0  0
  129.6190  125.1540   64.9060 O   0  0  0  0  0  0  0  0  0  0  0  0
  128.7700  124.6960   62.7680 N   0  0  0  0  0  0  0  0  0  0  0  0
  128.3920  126.0130   62.3810 C   0  0  0  0  0  0  0  0  0  0  0  0
  128.8910  127.1150   63.0870 C   0  0  0  0  0  0  0  0  0  0  0  0
  128.5170  128.4090   62.7390 C   0  0  0  0  0  0  0  0  0  0  0  0
  127.6300  128.6330   61.6770 C   0  0  0  0  0  0  0  0  0  0  0  0
  127.2090  130.0170   61.2820 C   0  0  0  0  0  0  0  0  0  0  0  0
  125.9330  130.1780   60.4520 C   0  0  0  0  0  0  0  0  0  0  0  0
  127.8370  131.0320   61.5850 O   0  0  0  0  0  0  0  0  0  0  0  0
  127.1270  127.5330   60.9740 C   0  0  0  0  0  0  0  0  0  0  0  0
  127.5000  126.2390   61.3210 C   0  0  0  0  0  0  0  0  0  0  0  0
  128.3820  123.4670   62.0370 C   0  0  1  0  0  0  0  0  0  0  0  0
  128.4780  123.5360   60.5050 C   0  0  0  0  0  0  0  0  0  0  0  0
  127.6570  122.7580   59.6950 C   0  0  0  0  0  0  0  0  0  0  0  0
  127.7170  122.8430   58.2980 C   0  0  0  0  0  0  0  0  0  0  0  0
  126.8800  122.0760   57.4880 O   0  0  0  0  0  0  0  0  0  0  0  0
  125.8840  122.7050   56.6860 C   0  0  0  0  0  0  0  0  0  0  0  0
  128.6510  123.7310   57.7040 C   0  0  0  0  0  0  0  0  0  0  0  0
  128.6880  123.7840   56.4260 O   0  0  0  0  0  0  0  0  0  0  0  0
  129.5090  124.5300   58.5190 C   0  0  0  0  0  0  0  0  0  0  0  0
  130.5280  125.5070   58.0030 N   0  0  0  0  0  0  0  0  0  0  0  0
  130.2250  126.6690   57.7520 O   0  0  0  0  0  0  0  0  0  0  0  0
  131.6810  125.1140   57.8430 O   0  0  0  0  0  0  0  0  0  0  0  0
  129.3920  124.3990   59.9120 C   0  0  0  0  0  0  0  0  0  0  0  0
  130.2470  120.3370   61.5370 C   0  0  0  0  0  0  0  0  0  0  0  0
  131.2420  119.7420   60.7420 C   0  0  0  0  0  0  0  0  0  0  0  0
  131.2130  118.4160   60.3450 O   0  0  0  0  0  0  0  0  0  0  0  0
  130.2850  117.5230   60.9540 C   0  0  0  0  0  0  0  0  0  0  0  0
  135.1007  117.8707   57.6677 H   0  0  0  0  0  0  0  0  0  0  0  0
  134.1554  117.5524   56.1738 H   0  0  0  0  0  0  0  0  0  0  0  0
  135.4389  118.8091   56.1738 H   0  0  0  0  0  0  0  0  0  0  0  0
  134.1427  120.3359   57.3690 H   0  0  0  0  0  0  0  0  0  0  0  0
  132.8745  119.4578   56.3976 H   0  0  0  0  0  0  0  0  0  0  0  0
  131.7888  119.0948   58.3289 H   0  0  0  0  0  0  0  0  0  0  0  0
  133.1043  117.9613   58.7639 H   0  0  0  0  0  0  0  0  0  0  0  0
  133.2379  122.4863   60.3217 H   0  0  0  0  0  0  0  0  0  0  0  0
  131.4448  123.5213   61.6898 H   0  0  0  0  0  0  0  0  0  0  0  0
  128.4880  121.3869   62.7321 H   0  0  0  0  0  0  0  0  0  0  0  0
  129.5855  126.9557   63.9250 H   0  0  0  0  0  0  0  0  0  0  0  0
  128.9207  129.2635   63.3019 H   0  0  0  0  0  0  0  0  0  0  0  0
  125.0694  130.2870   61.1246 H   0  0  0  0  0  0  0  0  0  0  0  0
  126.0187  131.0724   59.8175 H   0  0  0  0  0  0  0  0  0  0  0  0
  125.7939  129.2903   59.8175 H   0  0  0  0  0  0  0  0  0  0  0  0
  126.4296  127.6932   60.1386 H   0  0  0  0  0  0  0  0  0  0  0  0
  127.0925  125.3851   60.7599 H   0  0  0  0  0  0  0  0  0  0  0  0
  127.2971  123.3257   62.1508 H   0  0  0  0  0  0  0  0  0  0  0  0
  126.9453  122.0610   60.1616 H   0  0  0  0  0  0  0  0  0  0  0  0
  125.1343  123.1785   57.3369 H   0  0  0  0  0  0  0  0  0  0  0  0
  126.3540  123.4704   56.0510 H   0  0  0  0  0  0  0  0  0  0  0  0
  125.3949  121.9516   56.0510 H   0  0  0  0  0  0  0  0  0  0  0  0
  130.0478  125.0015   60.5577 H   0  0  0  0  0  0  0  0  0  0  0  0
  129.4031  119.7256   61.8891 H   0  0  0  0  0  0  0  0  0  0  0  0
  130.3656  117.6006   62.0483 H   0  0  0  0  0  0  0  0  0  0  0  0
  129.2637  117.7866   60.6420 H   0  0  0  0  0  0  0  0  0  0  0  0
  130.5092  116.4923   60.6420 H   0  0  0  0  0  0  0  0  0  0  0  0
  1  2  1  0
  2  3  1  0
  3  4  1  0
  4  5  1  0
  5  6  2  0
  6  7  1  0
  7  8  2  0
  8  9  1  0
  9 10  1  0
 10 11  2  0
 10 12  1  0
 12 13  2  0
 12 14  1  0
 14 15  1  0
 15 16  2  0
 16 17  1  0
 17 18  2  0
 18 19  1  0
 19 20  1  0
 19 21  2  0
 18 22  1  0
 22 23  2  0
 14 24  1  0
 24 25  1  0
 25 26  2  0
 26 27  1  0
 27 28  1  0
 28 29  1  0
 27 30  2  0
 30 31  1  0
 30 32  1  0
 32 33  1  0
 33 34  2  0
 33 35  1  0
 32 36  2  0
  8 37  1  0
 37 38  2  0
 38 39  1  0
 39 40  1  0
 38  5  1  0
 24  9  1  0
 36 25  1  0
 23 15  1  0
  1 41  1  0
  1 42  1  0
  1 43  1  0
  2 44  1  0
  2 45  1  0
  3 46  1  0
  3 47  1  0
  6 48  1  0
  7 49  1  0
  9 50  1  1
 16 51  1  0
 17 52  1  0
 20 53  1  0
 20 54  1  0
 20 55  1  0
 22 56  1  0
 23 57  1  0
 24 58  1  6
 26 59  1  0
 29 60  1  0
 29 61  1  0
 29 62  1  0
 36 63  1  0
 37 64  1  0
 40 65  1  0
 40 66  1  0
 40 67  1  0
M  CHG  3  31  -1  33   1  35  -1
M  END
>  <Binding energies>  (1) 
[-6.21]

>  <Ligand effiencies>  (1) 
[-0.15525]

>  <Interactions>  (1) 
["V-A:ILE:369:CG2:3237, V-B:PRO:540:CA:9855, V-B:TYR:539:CE1:9847, V-B:ALA:541:CB:9864, H-A:TYR:531:OH:4795, V-B:TYR:539:CE2:9848, V-A:VAL:384:C:3397, H-B:TYR:539:N:9842, V-B:GLU:543:CG:9879, V-B:TYR:539:C:9839, V-A:LEU:373:CG:3279, V-B:TYR:539:CZ:9849, H-B:TYR:539:OH:9850, V-B:TYR:539:CB:9843, V-A:GLU:543:CD:4908, V-B:PRO:540:CB:9857, V-B:PRO:540:N:9856, V-A:PRO:482:CB:4326, V-B:TYR:539:CD2:9846, V-B:PRO:540:CD:9859, H-A:SER:385:OG:3410, V-B:GLU:543:CD:9880, V-A:LEU:373:CD2:3281, V-A:LEU:475:CD2:4259, V-B:TYR:539:CG:9844, V-A:HIS:383:CD2:3392, H-A:HIS:383:HE2:3395, V-A:LEU:373:CD1:3280, V-B:MET:535:CE:9807, V-A:HIS:383:NE2:3394, H-A:TYR:484:OH:4348"]

$$$$
ZINC526349934
     RDKit          3D

 70 73  0  0  0  0  0  0  0  0999 V2000
  128.9490  132.9800   62.4510 C   0  0  0  0  0  0  0  0  0  0  0  0
  130.1970  132.3030   62.3410 O   0  0  0  0  0  0  0  0  0  0  0  0
  130.2400  131.0630   61.7330 C   0  0  0  0  0  0  0  0  0  0  0  0
  131.0950  130.9260   60.6420 C   0  0  0  0  0  0  0  0  0  0  0  0
  131.1910  129.7170   59.9580 C   0  0  0  0  0  0  0  0  0  0  0  0
  130.4350  128.6030   60.3580 C   0  0  0  0  0  0  0  0  0  0  0  0
  130.4740  127.3850   59.7010 O   0  0  0  0  0  0  0  0  0  0  0  0
  131.6900  126.9410   59.1090 C   0  0  0  0  0  0  0  0  0  0  0  0
  129.5860  128.7190   61.4720 C   0  0  0  0  0  0  0  0  0  0  0  0
  128.7220  127.5120   61.8880 C   0  0  1  0  0  0  0  0  0  0  0  0
  127.5510  127.1900   60.9830 C   0  0  0  0  0  0  0  0  0  0  0  0
  126.7420  127.9510   60.4520 O   0  0  0  0  0  0  0  0  0  0  0  0
  127.4850  125.6450   60.8120 C   0  0  0  0  0  0  0  0  0  0  0  0
  126.6030  125.0620   60.1790 O   0  0  0  0  0  0  0  0  0  0  0  0
  128.5600  125.1240   61.4680 N   0  0  0  0  0  0  0  0  0  0  0  0
  128.8680  123.7380   61.4950 C   0  0  0  0  0  0  0  0  0  0  0  0
  129.1700  123.0760   62.6950 C   0  0  0  0  0  0  0  0  0  0  0  0
  129.4770  121.7200   62.6930 C   0  0  0  0  0  0  0  0  0  0  0  0
  129.4960  120.9980   61.5000 C   0  0  0  0  0  0  0  0  0  0  0  0
  129.8040  119.6540   61.6010 O   0  0  0  0  0  0  0  0  0  0  0  0
  130.8930  119.1260   60.8460 C   0  0  0  0  0  0  0  0  0  0  0  0
  130.9000  117.5870   60.9470 C   0  0  0  0  0  0  0  0  0  0  0  0
  129.9160  116.9310   59.9570 C   0  0  0  0  0  0  0  0  0  0  0  0
  130.6250  117.1220   62.3880 C   0  0  0  0  0  0  0  0  0  0  0  0
  129.2090  121.6580   60.2970 C   0  0  0  0  0  0  0  0  0  0  0  0
  128.9000  123.0150   60.2960 C   0  0  0  0  0  0  0  0  0  0  0  0
  129.4740  126.1830   61.9460 C   0  0  2  0  0  0  0  0  0  0  0  0
  130.1220  125.9300   63.3110 C   0  0  0  0  0  0  0  0  0  0  0  0
  129.3940  126.0700   64.4920 C   0  0  0  0  0  0  0  0  0  0  0  0
  129.9940  125.8490   65.7390 C   0  0  0  0  0  0  0  0  0  0  0  0
  129.3170  125.9690   66.9420 O   0  0  0  0  0  0  0  0  0  0  0  0
  128.8370  127.2450   67.3550 C   0  0  0  0  0  0  0  0  0  0  0  0
  131.3500  125.4890   65.7890 C   0  0  0  0  0  0  0  0  0  0  0  0
  131.9040  125.2880   67.0290 O   0  0  0  0  0  0  0  0  0  0  0  0
  132.1100  125.3430   64.6040 C   0  0  0  0  0  0  0  0  0  0  0  0
  133.5560  124.9790   64.6030 N   0  0  0  0  0  0  0  0  0  0  0  0
  134.2000  125.0150   65.6470 O   0  0  0  0  0  0  0  0  0  0  0  0
  134.0740  124.6490   63.5390 O   0  0  0  0  0  0  0  0  0  0  0  0
  131.4640  125.5610   63.3780 C   0  0  0  0  0  0  0  0  0  0  0  0
  129.4840  129.9520   62.1370 C   0  0  0  0  0  0  0  0  0  0  0  0
  128.6981  133.1161   63.5133 H   0  0  0  0  0  0  0  0  0  0  0  0
  129.0207  133.9629   61.9623 H   0  0  0  0  0  0  0  0  0  0  0  0
  128.1642  132.3839   61.9623 H   0  0  0  0  0  0  0  0  0  0  0  0
  131.7020  131.7837   60.3167 H   0  0  0  0  0  0  0  0  0  0  0  0
  131.8669  129.6334   59.0942 H   0  0  0  0  0  0  0  0  0  0  0  0
  132.4084  126.6787   59.8997 H   0  0  0  0  0  0  0  0  0  0  0  0
  131.4926  126.0569   58.4849 H   0  0  0  0  0  0  0  0  0  0  0  0
  132.1087  127.7443   58.4849 H   0  0  0  0  0  0  0  0  0  0  0  0
  128.3897  127.8680   62.8743 H   0  0  0  0  0  0  0  0  0  0  0  0
  129.1638  123.6335   63.6432 H   0  0  0  0  0  0  0  0  0  0  0  0
  129.7070  121.2120   63.6411 H   0  0  0  0  0  0  0  0  0  0  0  0
  130.7847  119.4225   59.7923 H   0  0  0  0  0  0  0  0  0  0  0  0
  131.8383  119.5209   61.2465 H   0  0  0  0  0  0  0  0  0  0  0  0
  131.9100  117.2545   60.6654 H   0  0  0  0  0  0  0  0  0  0  0  0
  129.1282  116.4058   60.5169 H   0  0  0  0  0  0  0  0  0  0  0  0
  129.4608  117.7070   59.3240 H   0  0  0  0  0  0  0  0  0  0  0  0
  130.4572  116.2124   59.3240 H   0  0  0  0  0  0  0  0  0  0  0  0
  131.0538  117.8471   63.0954 H   0  0  0  0  0  0  0  0  0  0  0  0
  129.5392  117.0505   62.5493 H   0  0  0  0  0  0  0  0  0  0  0  0
  131.0854  116.1361   62.5493 H   0  0  0  0  0  0  0  0  0  0  0  0
  129.2281  121.1005   59.3489 H   0  0  0  0  0  0  0  0  0  0  0  0
  128.6792  123.5237   59.3460 H   0  0  0  0  0  0  0  0  0  0  0  0
  130.3453  126.1980   61.2747 H   0  0  0  0  0  0  0  0  0  0  0  0
  128.3335  126.3581   64.4441 H   0  0  0  0  0  0  0  0  0  0  0  0
  128.8193  127.2920   68.4539 H   0  0  0  0  0  0  0  0  0  0  0  0
  129.5011  128.0304   66.9650 H   0  0  0  0  0  0  0  0  0  0  0  0
  127.8199  127.3979   66.9650 H   0  0  0  0  0  0  0  0  0  0  0  0
  132.5870  124.6130   67.0210 H   0  0  0  0  0  0  0  0  0  0  0  0
  132.0322  125.4373   62.4443 H   0  0  0  0  0  0  0  0  0  0  0  0
  128.7979  130.0486   62.9914 H   0  0  0  0  0  0  0  0  0  0  0  0
  1  2  1  0
  2  3  1  0
  3  4  2  0
  4  5  1  0
  5  6  2  0
  6  7  1  0
  7  8  1  0
  6  9  1  0
  9 10  1  0
 10 11  1  0
 11 12  2  0
 11 13  1  0
 13 14  2  0
 13 15  1  0
 15 16  1  0
 16 17  2  0
 17 18  1  0
 18 19  2  0
 19 20  1  0
 20 21  1  0
 21 22  1  0
 22 23  1  0
 22 24  1  0
 19 25  1  0
 25 26  2  0
 15 27  1  0
 27 28  1  0
 28 29  2  0
 29 30  1  0
 30 31  1  0
 31 32  1  0
 30 33  2  0
 33 34  1  0
 33 35  1  0
 35 36  1  0
 36 37  2  0
 36 38  1  0
 35 39  2  0
  9 40  2  0
 40  3  1  0
 27 10  1  0
 39 28  1  0
 26 16  1  0
  1 41  1  0
  1 42  1  0
  1 43  1  0
  4 44  1  0
  5 45  1  0
  8 46  1  0
  8 47  1  0
  8 48  1  0
 10 49  1  1
 17 50  1  0
 18 51  1  0
 21 52  1  0
 21 53  1  0
 22 54  1  0
 23 55  1  0
 23 56  1  0
 23 57  1  0
 24 58  1  0
 24 59  1  0
 24 60  1  0
 25 61  1  0
 26 62  1  0
 27 63  1  6
 29 64  1  0
 32 65  1  0
 32 66  1  0
 32 67  1  0
 34 68  1  0
 39 69  1  0
 40 70  1  0
M  CHG  2  36   1  38  -1
M  END
>  <Binding energies>  (1) 
[-7.71]

>  <Ligand effiencies>  (1) 
[-0.18804878048780488]

>  <Interactions>  (1) 
["V-B:TYR:539:CA:9841, V-B:PRO:540:CA:9855, H-A:ALA:541:N:4891, V-B:GLU:543:CB:9878, V-B:ALA:541:CB:9864, H-A:ARG:545:NH1:4927, V-B:TYR:539:CE2:9848, V-A:LEU:475:CG:4257, V-B:GLU:543:CG:9879, V-B:TYR:539:C:9839, V-A:ASP:366:CG:3213, V-A:ALA:541:CB:4892, V-B:VAL:344:CG1:7972, V-A:LEU:475:CD1:4258, V-A:HIS:383:CE1:3393, V-B:TYR:539:CB:9843, V-A:GLU:543:CD:4908, H-A:GLY:454:N:4050, V-A:ALA:541:CA:4890, V-A:PRO:482:CB:4326, V-B:TYR:539:CD2:9846, V-B:GLU:543:CD:9880, V-A:ASP:366:CB:3212, V-A:LEU:475:CD2:4259, H-A:ARG:545:NH2:4928, V-A:ARG:545:CZ:4926, V-A:PRO:482:CG:4327, H-A:ARG:545:NE:4924, V-B:PRO:540:C:9853, V-A:HIS:383:NE2:3394, H-A:TYR:484:OH:4348"]

$$$$
ZINC526451906
     RDKit          3D

 67 70  0  0  0  0  0  0  0  0999 V2000
  131.9810  129.9330   58.0650 C   0  0  0  0  0  0  0  0  0  0  0  0
  130.7390  129.1710   58.5360 C   0  0  0  0  0  0  0  0  0  0  0  0
  130.7030  127.9070   57.8780 O   0  0  0  0  0  0  0  0  0  0  0  0
  130.8570  126.7440   58.6160 C   0  0  0  0  0  0  0  0  0  0  0  0
  129.9710  126.3530   59.6310 C   0  0  0  0  0  0  0  0  0  0  0  0
  130.1880  125.1840   60.3570 C   0  0  0  0  0  0  0  0  0  0  0  0
  129.2010  124.7880   61.4560 C   0  0  2  0  0  0  0  0  0  0  0  0
  129.7670  123.7650   62.4390 C   0  0  1  0  0  0  0  0  0  0  0  0
  130.6240  124.3450   63.5740 C   0  0  0  0  0  0  0  0  0  0  0  0
  130.0160  124.9170   64.6980 C   0  0  0  0  0  0  0  0  0  0  0  0
  130.7840  125.4630   65.7200 C   0  0  0  0  0  0  0  0  0  0  0  0
  132.1730  125.4410   65.6340 C   0  0  0  0  0  0  0  0  0  0  0  0
  132.8130  124.8770   64.5180 C   0  0  0  0  0  0  0  0  0  0  0  0
  134.1870  124.8010   64.3810 O   0  0  0  0  0  0  0  0  0  0  0  0
  134.7840  125.0840   63.1200 C   0  0  0  0  0  0  0  0  0  0  0  0
  132.0280  124.3450   63.4790 C   0  0  0  0  0  0  0  0  0  0  0  0
  132.6330  123.7740   62.3830 O   0  0  0  0  0  0  0  0  0  0  0  0
  133.0320  122.4180   62.5520 C   0  0  0  0  0  0  0  0  0  0  0  0
  128.5110  123.0660   62.9130 C   0  0  0  0  0  0  0  0  0  0  0  0
  128.3350  122.3510   63.8990 O   0  0  0  0  0  0  0  0  0  0  0  0
  127.3790  123.3870   61.8920 C   0  0  0  0  0  0  0  0  0  0  0  0
  126.2420  122.9140   61.9480 O   0  0  0  0  0  0  0  0  0  0  0  0
  127.9030  124.2580   60.9880 N   0  0  0  0  0  0  0  0  0  0  0  0
  127.1500  124.8220   59.9240 C   0  0  0  0  0  0  0  0  0  0  0  0
  126.8450  126.1900   59.9780 C   0  0  0  0  0  0  0  0  0  0  0  0
  126.1170  126.8050   58.9610 C   0  0  0  0  0  0  0  0  0  0  0  0
  125.8070  128.2880   59.0410 C   0  0  0  0  0  0  0  0  0  0  0  0
  125.6910  126.0510   57.8690 C   0  0  0  0  0  0  0  0  0  0  0  0
  126.0010  124.6950   57.7900 C   0  0  0  0  0  0  0  0  0  0  0  0
  126.7440  124.0610   58.8040 C   0  0  0  0  0  0  0  0  0  0  0  0
  127.1350  122.7340   58.7280 O   0  0  0  0  0  0  0  0  0  0  0  0
  127.5830  122.1960   57.4900 C   0  0  0  0  0  0  0  0  0  0  0  0
  131.2940  124.3880   60.0570 C   0  0  0  0  0  0  0  0  0  0  0  0
  132.1970  124.7340   59.0390 C   0  0  0  0  0  0  0  0  0  0  0  0
  133.3520  123.8310   58.7630 N   0  0  0  0  0  0  0  0  0  0  0  0
  133.9000  123.2780   59.7140 O   0  0  0  0  0  0  0  0  0  0  0  0
  133.7330  123.6550   57.6110 O   0  0  0  0  0  0  0  0  0  0  0  0
  131.9600  125.9290   58.3210 C   0  0  0  0  0  0  0  0  0  0  0  0
  132.7980  126.3410   57.3130 O   0  0  0  0  0  0  0  0  0  0  0  0
  132.5503  130.2823   58.9390 H   0  0  0  0  0  0  0  0  0  0  0  0
  132.6121  129.2665   57.4588 H   0  0  0  0  0  0  0  0  0  0  0  0
  131.6728  130.7976   57.4588 H   0  0  0  0  0  0  0  0  0  0  0  0
  130.7874  129.0206   59.6246 H   0  0  0  0  0  0  0  0  0  0  0  0
  129.8324  129.7455   58.2951 H   0  0  0  0  0  0  0  0  0  0  0  0
  129.0939  126.9774   59.8564 H   0  0  0  0  0  0  0  0  0  0  0  0
  129.0277  125.7560   61.9488 H   0  0  0  0  0  0  0  0  0  0  0  0
  130.5027  123.0944   61.9710 H   0  0  0  0  0  0  0  0  0  0  0  0
  128.9187  124.9345   64.7732 H   0  0  0  0  0  0  0  0  0  0  0  0
  130.2941  125.9123   66.5964 H   0  0  0  0  0  0  0  0  0  0  0  0
  132.7757  125.8696   66.4482 H   0  0  0  0  0  0  0  0  0  0  0  0
  135.7679  125.5504   63.2765 H   0  0  0  0  0  0  0  0  0  0  0  0
  134.9074  124.1486   62.5546 H   0  0  0  0  0  0  0  0  0  0  0  0
  134.1380  125.7717   62.5546 H   0  0  0  0  0  0  0  0  0  0  0  0
  133.1000  122.1868   63.6253 H   0  0  0  0  0  0  0  0  0  0  0  0
  132.2905  121.7561   62.0807 H   0  0  0  0  0  0  0  0  0  0  0  0
  134.0138  122.2632   62.0807 H   0  0  0  0  0  0  0  0  0  0  0  0
  127.1858  126.7870   60.8367 H   0  0  0  0  0  0  0  0  0  0  0  0
  125.7433  128.5929   60.0960 H   0  0  0  0  0  0  0  0  0  0  0  0
  126.6056  128.8569   58.5425 H   0  0  0  0  0  0  0  0  0  0  0  0
  124.8473  128.4894   58.5425 H   0  0  0  0  0  0  0  0  0  0  0  0
  125.1083  126.5279   57.0671 H   0  0  0  0  0  0  0  0  0  0  0  0
  125.6601  124.1110   56.9224 H   0  0  0  0  0  0  0  0  0  0  0  0
  128.2762  121.3636   57.6813 H   0  0  0  0  0  0  0  0  0  0  0  0
  126.7195  121.8294   56.9156 H   0  0  0  0  0  0  0  0  0  0  0  0
  128.0999  122.9789   56.9156 H   0  0  0  0  0  0  0  0  0  0  0  0
  131.4628  123.4660   60.6326 H   0  0  0  0  0  0  0  0  0  0  0  0
  132.5780  127.2180   56.9890 H   0  0  0  0  0  0  0  0  0  0  0  0
  1  2  1  0
  2  3  1  0
  3  4  1  0
  4  5  2  0
  5  6  1  0
  6  7  1  0
  7  8  1  0
  8  9  1  0
  9 10  2  0
 10 11  1  0
 11 12  2  0
 12 13  1  0
 13 14  1  0
 14 15  1  0
 13 16  2  0
 16 17  1  0
 17 18  1  0
  8 19  1  0
 19 20  2  0
 19 21  1  0
 21 22  2  0
 21 23  1  0
 23 24  1  0
 24 25  2  0
 25 26  1  0
 26 27  1  0
 26 28  2  0
 28 29  1  0
 29 30  2  0
 30 31  1  0
 31 32  1  0
  6 33  2  0
 33 34  1  0
 34 35  1  0
 35 36  2  0
 35 37  1  0
 34 38  2  0
 38 39  1  0
 38  4  1  0
 23  7  1  0
 30 24  1  0
 16  9  1  0
  1 40  1  0
  1 41  1  0
  1 42  1  0
  2 43  1  0
  2 44  1  0
  5 45  1  0
  7 46  1  1
  8 47  1  6
 10 48  1  0
 11 49  1  0
 12 50  1  0
 15 51  1  0
 15 52  1  0
 15 53  1  0
 18 54  1  0
 18 55  1  0
 18 56  1  0
 25 57  1  0
 27 58  1  0
 27 59  1  0
 27 60  1  0
 28 61  1  0
 29 62  1  0
 32 63  1  0
 32 64  1  0
 32 65  1  0
 33 66  1  0
 39 67  1  0
M  CHG  2  35   1  37  -1
M  END
>  <Binding energies>  (1) 
[-7.7]

>  <Ligand effiencies>  (1) 
[-0.1925]

>  <Interactions>  (1) 
["V-A:ILE:369:CG2:3237, V-B:TYR:539:CA:9841, V-B:PRO:540:CA:9855, V-A:GLY:454:CA:4049, V-A:ILE:369:CB:3236, V-B:ALA:541:CB:9864, V-B:ASP:366:CG:8184, H-A:TYR:531:OH:4795, H-A:ARG:545:NH1:4927, V-B:TYR:539:CE2:9848, V-B:GLU:543:CG:9879, V-B:TYR:539:C:9839, V-A:ASP:366:CG:3213, V-B:TYR:539:CZ:9849, H-A:ASN:370:N:3244, V-B:TYR:531:CZ:9766, H-B:TYR:539:OH:9850, H-B:ALA:541:N:9863, V-B:TYR:531:CE2:9765, V-A:GLU:543:CD:4908, V-B:ASP:366:CB:8183, H-A:GLY:454:N:4050, V-A:GLY:453:C:4042, V-B:PRO:540:N:9856, V-B:PRO:540:CD:9859, V-B:TYR:539:CD2:9846, V-B:GLU:543:CD:9880, V-A:ASP:366:CB:3212, V-A:LEU:475:CD2:4259, H-A:ARG:545:NH2:4928, V-A:ARG:545:CZ:4926, V-B:TYR:539:CG:9844, V-B:TYR:539:CD1:9845, V-A:GLY:453:CA:4044, H-A:ARG:545:NE:4924, V-B:TYR:539:CE1:9847, H-A:TYR:484:OH:4348"]

$$$$
ZINC526486775
     RDKit          3D

 60 64  0  0  0  0  0  0  0  0999 V2000
  126.5470  126.2660   60.8500 C   0  0  0  0  0  0  0  0  0  0  0  0
  126.0600  124.8410   60.5700 C   0  0  0  0  0  0  0  0  0  0  0  0
  127.1520  124.0770   60.0660 O   0  0  0  0  0  0  0  0  0  0  0  0
  128.3880  124.1470   60.6880 C   0  0  0  0  0  0  0  0  0  0  0  0
  129.4800  124.8480   60.1560 C   0  0  0  0  0  0  0  0  0  0  0  0
  130.7010  124.8870   60.8250 C   0  0  0  0  0  0  0  0  0  0  0  0
  131.8740  125.6730   60.2210 C   0  0  1  0  0  0  0  0  0  0  0  0
  133.1970  124.9120   60.0270 C   0  0  1  0  0  0  0  0  0  0  0  0
  133.4330  123.6870   60.9230 C   0  0  0  0  0  0  0  0  0  0  0  0
  133.2100  122.3420   60.6090 C   0  0  0  0  0  0  0  0  0  0  0  0
  133.5450  121.4310   61.6160 C   0  0  0  0  0  0  0  0  0  0  0  0
  134.0220  122.0490   62.7540 C   0  0  0  0  0  0  0  0  0  0  0  0
  134.0340  123.7770   62.5670 S   0  0  0  0  0  0  0  0  0  0  0  0
  133.2510  124.7060   58.5220 C   0  0  0  0  0  0  0  0  0  0  0  0
  133.9470  123.9370   57.8570 O   0  0  0  0  0  0  0  0  0  0  0  0
  132.2210  125.6770   57.8780 C   0  0  0  0  0  0  0  0  0  0  0  0
  132.0810  125.8540   56.6660 O   0  0  0  0  0  0  0  0  0  0  0  0
  131.5490  126.2510   58.9060 N   0  0  0  0  0  0  0  0  0  0  0  0
  130.5300  127.2050   58.7170 C   0  0  0  0  0  0  0  0  0  0  0  0
  130.4880  128.3300   59.5540 C   0  0  0  0  0  0  0  0  0  0  0  0
  129.5050  129.3030   59.3790 C   0  0  0  0  0  0  0  0  0  0  0  0
  128.5570  129.1630   58.3670 C   0  0  0  0  0  0  0  0  0  0  0  0
  128.5900  128.0490   57.5300 C   0  0  0  0  0  0  0  0  0  0  0  0
  129.5700  127.0660   57.6960 C   0  0  0  0  0  0  0  0  0  0  0  0
  129.5430  125.6600   56.6140 S   0  0  0  0  0  0  0  0  0  0  0  0
  127.9590  124.9680   56.9750 C   0  0  0  0  0  0  0  0  0  0  0  0
  127.8370  123.5870   57.1400 C   0  0  0  0  0  0  0  0  0  0  0  0
  126.5900  123.0360   57.4280 C   0  0  0  0  0  0  0  0  0  0  0  0
  125.4790  123.8690   57.5520 C   0  0  0  0  0  0  0  0  0  0  0  0
  125.6010  125.2480   57.3910 C   0  0  0  0  0  0  0  0  0  0  0  0
  126.8460  125.8010   57.1020 C   0  0  0  0  0  0  0  0  0  0  0  0
  130.8330  124.2160   62.0420 C   0  0  0  0  0  0  0  0  0  0  0  0
  129.7670  123.5040   62.6120 C   0  0  0  0  0  0  0  0  0  0  0  0
  129.9770  122.8140   63.9190 N   0  0  0  0  0  0  0  0  0  0  0  0
  131.1280  122.6450   64.3120 O   0  0  0  0  0  0  0  0  0  0  0  0
  129.0110  122.4320   64.5710 O   0  0  0  0  0  0  0  0  0  0  0  0
  128.5380  123.4780   61.9130 C   0  0  0  0  0  0  0  0  0  0  0  0
  127.4480  122.8010   62.4070 O   0  0  0  0  0  0  0  0  0  0  0  0
  126.6023  126.4277   61.9366 H   0  0  0  0  0  0  0  0  0  0  0  0
  127.5441  126.4064   60.4072 H   0  0  0  0  0  0  0  0  0  0  0  0
  125.8443  126.9873   60.4072 H   0  0  0  0  0  0  0  0  0  0  0  0
  125.6886  124.3870   61.5006 H   0  0  0  0  0  0  0  0  0  0  0  0
  125.2442  124.8613   59.8325 H   0  0  0  0  0  0  0  0  0  0  0  0
  129.3706  125.3746   59.1965 H   0  0  0  0  0  0  0  0  0  0  0  0
  132.0288  126.4358   60.9983 H   0  0  0  0  0  0  0  0  0  0  0  0
  134.0660  125.4800   60.3906 H   0  0  0  0  0  0  0  0  0  0  0  0
  132.8003  122.0236   59.6391 H   0  0  0  0  0  0  0  0  0  0  0  0
  133.4398  120.3410   61.5122 H   0  0  0  0  0  0  0  0  0  0  0  0
  134.3511  121.5183   63.6596 H   0  0  0  0  0  0  0  0  0  0  0  0
  131.2351  128.4451   60.3531 H   0  0  0  0  0  0  0  0  0  0  0  0
  129.4776  130.1818   60.0401 H   0  0  0  0  0  0  0  0  0  0  0  0
  127.7826  129.9319   58.2288 H   0  0  0  0  0  0  0  0  0  0  0  0
  127.8394  127.9425   56.7330 H   0  0  0  0  0  0  0  0  0  0  0  0
  128.7198  122.9380   57.0432 H   0  0  0  0  0  0  0  0  0  0  0  0
  126.4827  121.9489   57.5569 H   0  0  0  0  0  0  0  0  0  0  0  0
  124.4951  123.4330   57.7795 H   0  0  0  0  0  0  0  0  0  0  0  0
  124.7182  125.8964   57.4917 H   0  0  0  0  0  0  0  0  0  0  0  0
  126.9518  126.8884   56.9745 H   0  0  0  0  0  0  0  0  0  0  0  0
  131.7986  124.2463   62.5681 H   0  0  0  0  0  0  0  0  0  0  0  0
  126.8120  123.3810   62.8340 H   0  0  0  0  0  0  0  0  0  0  0  0
  1  2  1  0
  2  3  1  0
  3  4  1  0
  4  5  2  0
  5  6  1  0
  6  7  1  0
  7  8  1  0
  8  9  1  0
  9 10  2  0
 10 11  1  0
 11 12  2  0
 12 13  1  0
  8 14  1  0
 14 15  2  0
 14 16  1  0
 16 17  2  0
 16 18  1  0
 18 19  1  0
 19 20  2  0
 20 21  1  0
 21 22  2  0
 22 23  1  0
 23 24  2  0
 24 25  1  0
 25 26  1  0
 26 27  2  0
 27 28  1  0
 28 29  2  0
 29 30  1  0
 30 31  2  0
  6 32  2  0
 32 33  1  0
 33 34  1  0
 34 35  2  0
 34 36  1  0
 33 37  2  0
 37 38  1  0
 37  4  1  0
 18  7  1  0
 24 19  1  0
 31 26  1  0
 13  9  1  0
  1 39  1  0
  1 40  1  0
  1 41  1  0
  2 42  1  0
  2 43  1  0
  5 44  1  0
  7 45  1  1
  8 46  1  1
 10 47  1  0
 11 48  1  0
 12 49  1  0
 20 50  1  0
 21 51  1  0
 22 52  1  0
 23 53  1  0
 27 54  1  0
 28 55  1  0
 29 56  1  0
 30 57  1  0
 31 58  1  0
 32 59  1  0
 38 60  1  0
M  CHG  2  34   1  36  -1
M  END
>  <Binding energies>  (1) 
[-8.75]

>  <Ligand effiencies>  (1) 
[-0.22435897435897437]

>  <Interactions>  (1) 
["V-A:ILE:369:CG2:3237, V-A:ASP:366:CA:3210, V-B:PRO:540:CA:9855, V-A:GLY:454:CA:4049, V-B:ASP:366:CG:8184, V-B:ALA:541:CB:9864, H-A:TYR:531:OH:4795, V-B:TYR:539:CE2:9848, H-B:ALA:541:O:9861, V-A:ASP:366:CG:3213, V-B:TYR:539:CZ:9849, H-B:GLU:543:OE1:9881, H-A:ASN:370:N:3244, V-B:TYR:531:CZ:9766, H-B:TYR:539:OH:9850, H-B:ALA:541:N:9863, V-B:TYR:531:CE2:9765, V-B:PRO:540:CB:9857, V-B:PRO:540:N:9856, V-A:ILE:369:CD1:3239, V-A:ASP:366:C:3208, V-A:SER:385:CB:3409, V-A:ASP:366:CB:3212, V-A:LEU:475:CD2:4259, V-B:LEU:363:CD1:8160, V-B:TYR:539:CE1:9847, H-A:TYR:484:OH:4348"]

$$$$
ZINC526689786
     RDKit          3D

 62 66  0  0  0  0  0  0  0  0999 V2000
  134.8940  124.7260   62.3060 C   0  0  0  0  0  0  0  0  0  0  0  0
  134.3260  124.2370   63.5170 O   0  0  0  0  0  0  0  0  0  0  0  0
  132.9500  124.1520   63.6380 C   0  0  0  0  0  0  0  0  0  0  0  0
  132.1790  125.0210   64.4260 C   0  0  0  0  0  0  0  0  0  0  0  0
  130.7890  124.8750   64.5050 C   0  0  0  0  0  0  0  0  0  0  0  0
  130.0580  125.7700   65.3120 N   0  0  0  0  0  0  0  0  0  0  0  0
  129.2880  126.7660   64.8270 C   0  0  0  0  0  0  0  0  0  0  0  0
  129.1150  127.0460   63.6400 O   0  0  0  0  0  0  0  0  0  0  0  0
  128.7240  127.4200   65.9740 C   0  0  0  0  0  0  0  0  0  0  0  0
  127.6160  128.8260   65.9660 S   0  0  0  0  0  0  0  0  0  0  0  0
  127.4300  129.2220   64.2020 C   0  0  0  0  0  0  0  0  0  0  0  0
  128.1350  130.5010   63.8190 C   0  0  0  0  0  0  0  0  0  0  0  0
  128.9480  130.8710   62.7560 C   0  0  0  0  0  0  0  0  0  0  0  0
  129.2970  132.2080   62.9560 C   0  0  0  0  0  0  0  0  0  0  0  0
  128.6800  132.5980   64.1310 C   0  0  0  0  0  0  0  0  0  0  0  0
  127.9730  131.5640   64.6530 O   0  0  0  0  0  0  0  0  0  0  0  0
  129.1870  126.8060   67.0680 C   0  0  0  0  0  0  0  0  0  0  0  0
  128.9270  127.0940   68.3940 N   0  0  0  0  0  0  0  0  0  0  0  0
  127.5490  127.1870   68.8700 C   0  0  0  0  0  0  0  0  0  0  0  0
  127.4390  126.9490   70.3890 C   0  0  0  0  0  0  0  0  0  0  0  0
  128.3610  127.7360   71.2310 N   0  0  0  0  0  0  0  0  0  0  0  0
  128.1140  127.9720   72.5900 C   0  0  0  0  0  0  0  0  0  0  0  0
  129.1050  128.4630   73.4610 C   0  0  0  0  0  0  0  0  0  0  0  0
  128.7830  128.7310   74.7930 C   0  0  0  0  0  0  0  0  0  0  0  0
  127.4800  128.5240   75.2420 C   0  0  0  0  0  0  0  0  0  0  0  0
  126.5340  128.0610   74.3310 C   0  0  0  0  0  0  0  0  0  0  0  0
  126.8330  127.8000   73.0330 N   0  0  0  0  0  0  0  0  0  0  0  0
  129.7260  127.7190   70.6740 C   0  0  0  0  0  0  0  0  0  0  0  0
  129.8350  127.9510   69.1520 C   0  0  0  0  0  0  0  0  0  0  0  0
  130.0490  125.7300   66.6600 C   0  0  0  0  0  0  0  0  0  0  0  0
  130.6580  124.9350   67.3810 O   0  0  0  0  0  0  0  0  0  0  0  0
  130.1360  123.8550   63.7950 C   0  0  0  0  0  0  0  0  0  0  0  0
  128.7590  123.7640   63.9090 O   0  0  0  0  0  0  0  0  0  0  0  0
  127.9990  123.2450   62.8220 C   0  0  0  0  0  0  0  0  0  0  0  0
  130.9130  122.9890   63.0080 C   0  0  0  0  0  0  0  0  0  0  0  0
  132.2980  123.1350   62.9310 C   0  0  0  0  0  0  0  0  0  0  0  0
  133.1970  122.0350   61.9440 Cl  0  0  0  0  0  0  0  0  0  0  0  0
  135.7085  125.4273   62.5400 H   0  0  0  0  0  0  0  0  0  0  0  0
  135.2921  123.8836   61.7213 H   0  0  0  0  0  0  0  0  0  0  0  0
  134.1201  125.2449   61.7213 H   0  0  0  0  0  0  0  0  0  0  0  0
  132.6733  125.8268   64.9885 H   0  0  0  0  0  0  0  0  0  0  0  0
  127.8502  128.3964   63.6089 H   0  0  0  0  0  0  0  0  0  0  0  0
  126.3571  129.3589   64.0015 H   0  0  0  0  0  0  0  0  0  0  0  0
  129.2582  130.2322   61.9159 H   0  0  0  0  0  0  0  0  0  0  0  0
  129.9351  132.8274   62.3086 H   0  0  0  0  0  0  0  0  0  0  0  0
  128.7520  133.6007   64.5774 H   0  0  0  0  0  0  0  0  0  0  0  0
  127.1620  128.1907   68.6400 H   0  0  0  0  0  0  0  0  0  0  0  0
  126.9637  126.4057   68.3631 H   0  0  0  0  0  0  0  0  0  0  0  0
  126.4110  127.1928   70.6952 H   0  0  0  0  0  0  0  0  0  0  0  0
  127.7152  125.8960   70.5471 H   0  0  0  0  0  0  0  0  0  0  0  0
  130.1277  128.6346   73.0942 H   0  0  0  0  0  0  0  0  0  0  0  0
  129.5535  129.1034   75.4841 H   0  0  0  0  0  0  0  0  0  0  0  0
  127.2059  128.7212   76.2889 H   0  0  0  0  0  0  0  0  0  0  0  0
  125.5024  127.9002   74.6774 H   0  0  0  0  0  0  0  0  0  0  0  0
  130.3055  128.5068   71.1775 H   0  0  0  0  0  0  0  0  0  0  0  0
  130.1065  126.7017   70.8484 H   0  0  0  0  0  0  0  0  0  0  0  0
  129.5923  129.0019   68.9361 H   0  0  0  0  0  0  0  0  0  0  0  0
  130.8629  127.7051   68.8470 H   0  0  0  0  0  0  0  0  0  0  0  0
  127.1497  122.6650   63.2123 H   0  0  0  0  0  0  0  0  0  0  0  0
  127.6237  124.0763   62.2071 H   0  0  0  0  0  0  0  0  0  0  0  0
  128.6367  122.5929   62.2071 H   0  0  0  0  0  0  0  0  0  0  0  0
  130.4214  122.1830   62.4435 H   0  0  0  0  0  0  0  0  0  0  0  0
  1  2  1  0
  2  3  1  0
  3  4  2  0
  4  5  1  0
  5  6  1  0
  6  7  1  0
  7  8  2  0
  7  9  1  0
  9 10  1  0
 10 11  1  0
 11 12  1  0
 12 13  2  0
 13 14  1  0
 14 15  2  0
 15 16  1  0
  9 17  2  0
 17 18  1  0
 18 19  1  0
 19 20  1  0
 20 21  1  0
 21 22  1  0
 22 23  2  0
 23 24  1  0
 24 25  2  0
 25 26  1  0
 26 27  2  0
 21 28  1  0
 28 29  1  0
 17 30  1  0
 30 31  2  0
  5 32  2  0
 32 33  1  0
 33 34  1  0
 32 35  1  0
 35 36  2  0
 36 37  1  0
 36  3  1  0
 30  6  1  0
 16 12  1  0
 29 18  1  0
 27 22  1  0
  1 38  1  0
  1 39  1  0
  1 40  1  0
  4 41  1  0
 11 42  1  0
 11 43  1  0
 13 44  1  0
 14 45  1  0
 15 46  1  0
 19 47  1  0
 19 48  1  0
 20 49  1  0
 20 50  1  0
 23 51  1  0
 24 52  1  0
 25 53  1  0
 26 54  1  0
 28 55  1  0
 28 56  1  0
 29 57  1  0
 29 58  1  0
 34 59  1  0
 34 60  1  0
 34 61  1  0
 35 62  1  0
M  END
>  <Binding energies>  (1) 
[-8.01]

>  <Ligand effiencies>  (1) 
[-0.21648648648648647]

>  <Interactions>  (1) 
["V-B:GLU:543:C:9874, V-B:HIS:456:CD2:9039, V-B:GLU:543:CB:9878, H-B:LYS:547:NZ:9923, V-B:HIS:456:CB:9036, V-B:ALA:541:CB:9864, V-B:GLU:543:CG:9879, V-A:ASP:366:CG:3213, V-B:TYR:484:CE2:9317, V-A:ALA:541:CB:4892, V-B:LYS:547:CE:9922, V-A:GLU:543:CD:4908, H-B:TYR:484:OH:9319, V-B:HIS:456:CE1:9041, H-A:GLY:454:N:4050, V-A:GLY:453:C:4042, V-A:HIS:456:CE1:4070, V-A:ILE:369:CD1:3239, V-B:GLY:544:C:9884, V-A:GLU:543:CG:4907, V-B:GLU:543:CD:9880, V-B:HIS:456:CG:9037, V-A:LEU:475:CD2:4259, V-A:ARG:545:CZ:4926, V-A:GLU:543:CB:4906, V-A:GLY:453:CA:4044, H-A:TYR:484:OH:4348"]

$$$$
ZINC52955754
     RDKit          3D

 79 86  0  0  0  0  0  0  0  0999 V2000
  129.8210  124.7490   66.4140 C   0  0  0  0  0  0  0  0  0  0  0  0
  129.9180  125.3590   64.9960 N   0  0  2  0  0  0  0  0  0  0  0  0
  129.1590  126.7060   64.9880 C   0  0  0  0  0  0  0  0  0  0  0  0
  129.3460  127.4210   63.6240 C   0  0  2  0  0  0  0  0  0  0  0  0
  128.3770  128.6190   63.5700 C   0  0  0  0  0  0  0  0  0  0  0  0
  128.0000  129.1510   64.6160 O   0  0  0  0  0  0  0  0  0  0  0  0
  127.9720  129.0210   62.3480 N   0  0  0  0  0  0  0  0  0  0  0  0
  127.0750  130.1210   62.0660 C   0  0  2  0  0  0  0  0  0  0  0  0
  125.9770  130.2890   63.1240 C   0  0  0  0  0  0  0  0  0  0  0  0
  126.4800  129.9950   60.8120 O   0  0  0  0  0  0  0  0  0  0  0  0
  127.3320  130.5430   59.8560 C   0  0  1  0  0  0  0  0  0  0  0  0
  128.2790  129.6570   59.3790 O   0  0  0  0  0  0  0  0  0  0  0  0
  126.4940  131.1710   58.7350 C   0  0  2  0  0  0  0  0  0  0  0  0
  125.7980  130.2160   57.7500 C   0  0  0  0  0  0  0  0  0  0  0  0
  126.4960  130.4280   56.4140 C   0  0  0  0  0  0  0  0  0  0  0  0
  127.0040  131.8670   56.4530 C   0  0  0  0  0  0  0  0  0  0  0  0
  127.3190  132.0370   57.8690 N   0  0  0  0  0  0  0  0  0  0  0  0
  128.2400  132.9060   58.3700 C   0  0  0  0  0  0  0  0  0  0  0  0
  128.7780  133.7520   57.6560 O   0  0  0  0  0  0  0  0  0  0  0  0
  128.6200  132.7180   59.8790 C   0  0  2  0  0  0  0  0  0  0  0  0
  130.1650  132.5140   60.0060 C   0  0  0  0  0  0  0  0  0  0  0  0
  130.8230  131.9250   58.7620 C   0  0  0  0  0  0  0  0  0  0  0  0
  131.3350  132.7660   57.7700 C   0  0  0  0  0  0  0  0  0  0  0  0
  131.9390  132.2200   56.6400 C   0  0  0  0  0  0  0  0  0  0  0  0
  132.0240  130.8370   56.5030 C   0  0  0  0  0  0  0  0  0  0  0  0
  131.5100  129.9920   57.4850 C   0  0  0  0  0  0  0  0  0  0  0  0
  130.9080  130.5370   58.6160 C   0  0  0  0  0  0  0  0  0  0  0  0
  127.9120  131.6250   60.5860 N   0  0  0  0  0  0  0  0  0  0  0  0
  127.8960  131.4180   61.9170 C   0  0  0  0  0  0  0  0  0  0  0  0
  128.3920  132.0830   62.8280 O   0  0  0  0  0  0  0  0  0  0  0  0
  129.1240  126.4590   62.4640 C   0  0  0  0  0  0  0  0  0  0  0  0
  129.1310  125.1120   62.5700 C   0  0  0  0  0  0  0  0  0  0  0  0
  128.8550  124.2190   61.4150 C   0  0  0  0  0  0  0  0  0  0  0  0
  128.2290  124.5970   60.2170 C   0  0  0  0  0  0  0  0  0  0  0  0
  127.9910  123.6710   59.1940 C   0  0  0  0  0  0  0  0  0  0  0  0
  128.3590  122.3220   59.3010 C   0  0  0  0  0  0  0  0  0  0  0  0
  129.0010  121.9430   60.4840 C   0  0  0  0  0  0  0  0  0  0  0  0
  129.5080  120.7530   60.9750 N   0  0  0  0  0  0  0  0  0  0  0  0
  130.0620  120.9510   62.2270 C   0  0  0  0  0  0  0  0  0  0  0  0
  129.9410  122.2830   62.5850 C   0  0  0  0  0  0  0  0  0  0  0  0
  129.2510  122.8850   61.4990 C   0  0  0  0  0  0  0  0  0  0  0  0
  130.3740  123.1710   63.7470 C   0  0  0  0  0  0  0  0  0  0  0  0
  129.3800  124.3740   63.9160 C   0  0  1  0  0  0  0  0  0  0  0  0
  129.9473  125.5434   67.1643 H   0  0  0  0  0  0  0  0  0  0  0  0
  128.8363  124.2759   66.5431 H   0  0  0  0  0  0  0  0  0  0  0  0
  130.6103  123.9938   66.5431 H   0  0  0  0  0  0  0  0  0  0  0  0
  130.8900  125.5440   64.7930 H   0  0  0  0  0  0  0  0  0  0  0  0
  128.0880  126.5201   65.1565 H   0  0  0  0  0  0  0  0  0  0  0  0
  129.5601  127.3476   65.7864 H   0  0  0  0  0  0  0  0  0  0  0  0
  130.3795  127.7853   63.5285 H   0  0  0  0  0  0  0  0  0  0  0  0
  128.3490  128.5420   61.5440 H   0  0  0  0  0  0  0  0  0  0  0  0
  126.4216  130.2210   64.1278 H   0  0  0  0  0  0  0  0  0  0  0  0
  125.4969  131.2711   63.0014 H   0  0  0  0  0  0  0  0  0  0  0  0
  125.2252  129.4954   63.0014 H   0  0  0  0  0  0  0  0  0  0  0  0
  128.2400  129.6790   58.4190 H   0  0  0  0  0  0  0  0  0  0  0  0
  125.7239  131.6947   59.3204 H   0  0  0  0  0  0  0  0  0  0  0  0
  125.9109  129.1732   58.0812 H   0  0  0  0  0  0  0  0  0  0  0  0
  124.7185  130.4162   57.6821 H   0  0  0  0  0  0  0  0  0  0  0  0
  127.3349  129.7255   56.3011 H   0  0  0  0  0  0  0  0  0  0  0  0
  125.8199  130.2531   55.5641 H   0  0  0  0  0  0  0  0  0  0  0  0
  127.8992  131.9924   55.8261 H   0  0  0  0  0  0  0  0  0  0  0  0
  126.2839  132.6032   56.0664 H   0  0  0  0  0  0  0  0  0  0  0  0
  128.2895  133.6410   60.3779 H   0  0  0  0  0  0  0  0  0  0  0  0
  130.6263  133.4915   60.2101 H   0  0  0  0  0  0  0  0  0  0  0  0
  130.3222  131.7901   60.8192 H   0  0  0  0  0  0  0  0  0  0  0  0
  131.2610  133.8578   57.8816 H   0  0  0  0  0  0  0  0  0  0  0  0
  132.3471  132.8785   55.8591 H   0  0  0  0  0  0  0  0  0  0  0  0
  132.5018  130.4068   55.6104 H   0  0  0  0  0  0  0  0  0  0  0  0
  131.5796  128.9005   57.3671 H   0  0  0  0  0  0  0  0  0  0  0  0
  130.4994  129.8759   59.3944 H   0  0  0  0  0  0  0  0  0  0  0  0
  128.9452  126.8919   61.4687 H   0  0  0  0  0  0  0  0  0  0  0  0
  127.9187  125.6432   60.0788 H   0  0  0  0  0  0  0  0  0  0  0  0
  127.4974  124.0142   58.2728 H   0  0  0  0  0  0  0  0  0  0  0  0
  128.1535  121.6002   58.4968 H   0  0  0  0  0  0  0  0  0  0  0  0
  129.5060  119.8510   60.5200 H   0  0  0  0  0  0  0  0  0  0  0  0
  130.5279  120.1689   62.8444 H   0  0  0  0  0  0  0  0  0  0  0  0
  130.3848  122.5769   64.6727 H   0  0  0  0  0  0  0  0  0  0  0  0
  131.3796  123.5654   63.5393 H   0  0  0  0  0  0  0  0  0  0  0  0
  128.4115  123.9711   64.2471 H   0  0  0  0  0  0  0  0  0  0  0  0
  1  2  1  0
  2  3  1  0
  3  4  1  0
  4  5  1  0
  5  6  2  0
  5  7  1  0
  8  7  1  1
  8  9  1  0
  8 10  1  0
 10 11  1  0
 11 12  1  6
 11 13  1  0
 13 14  1  0
 14 15  1  0
 15 16  1  0
 16 17  1  0
 17 18  1  0
 18 19  2  0
 18 20  1  0
 20 21  1  0
 21 22  1  0
 22 23  2  0
 23 24  1  0
 24 25  2  0
 25 26  1  0
 26 27  2  0
 20 28  1  0
 28 29  1  0
 29 30  2  0
  4 31  1  0
 31 32  2  0
 32 33  1  0
 33 34  2  0
 34 35  1  0
 35 36  2  0
 36 37  1  0
 37 38  1  0
 38 39  1  0
 39 40  2  0
 40 41  1  0
 40 42  1  0
 42 43  1  0
 43  2  1  0
 29  8  1  0
 43 32  1  0
 28 11  1  0
 41 33  1  0
 17 13  1  0
 27 22  1  0
 41 37  2  0
  1 44  1  0
  1 45  1  0
  1 46  1  0
  2 47  1  6
  3 48  1  0
  3 49  1  0
  4 50  1  1
  7 51  1  0
  9 52  1  0
  9 53  1  0
  9 54  1  0
 12 55  1  0
 13 56  1  1
 14 57  1  0
 14 58  1  0
 15 59  1  0
 15 60  1  0
 16 61  1  0
 16 62  1  0
 20 63  1  1
 21 64  1  0
 21 65  1  0
 23 66  1  0
 24 67  1  0
 25 68  1  0
 26 69  1  0
 27 70  1  0
 31 71  1  0
 34 72  1  0
 35 73  1  0
 36 74  1  0
 38 75  1  0
 39 76  1  0
 42 77  1  0
 42 78  1  0
 43 79  1  1
M  CHG  1   2   1
M  END
>  <Binding energies>  (1) 
[-9.14]

>  <Ligand effiencies>  (1) 
[-0.194468085106383]

>  <Interactions>  (1) 
["V-B:PRO:540:CA:9855, H-A:GLU:543:OE2:4910, V-B:GLU:543:CB:9878, V-A:PRO:540:C:4881, V-A:ILE:538:CB:4862, V-B:ALA:541:CB:9864, V-B:TYR:539:CE2:9848, V-A:TYR:484:CE2:4346, V-B:GLU:543:CG:9879, V-A:TYR:539:CE2:4876, V-B:TYR:539:C:9839, V-A:TYR:539:CD1:4873, V-A:LEU:363:CD1:3189, V-A:TYR:539:CZ:4877, V-A:TYR:531:CE2:4793, V-B:TYR:531:CZ:9766, V-A:GLU:543:CD:4908, V-B:GLU:543:CA:9876, V-B:PRO:540:N:9856, V-B:TYR:539:CD2:9846, V-A:TYR:531:CZ:4794, V-A:MET:535:CE:4835, V-B:GLU:543:CD:9880, V-A:TYR:539:C:4867, V-A:LEU:475:CD2:4259, V-B:TYR:539:CG:9844, V-A:PRO:540:N:4884, V-A:TYR:539:CG:4872, H-A:TYR:539:N:4870, V-A:PRO:540:CB:4885, V-A:PRO:540:CA:4883, H-B:TYR:539:O:9840, V-B:PRO:540:C:9853, V-A:PRO:540:CD:4887, V-A:TYR:539:CE1:4875"]

$$$$
ZINC52955754-again1
     RDKit          3D

 78 85  0  0  0  0  0  0  0  0999 V2000
  132.5630  124.1190   64.4910 C   0  0  0  0  0  0  0  0  0  0  0  0
  131.5630  124.9580   63.8380 N   0  0  0  0  0  0  0  0  0  0  0  0
  130.8030  124.2440   62.8060 C   0  0  0  0  0  0  0  0  0  0  0  0
  129.9990  125.2250   61.8930 C   0  0  2  0  0  0  0  0  0  0  0  0
  130.9550  125.9570   60.9090 C   0  0  0  0  0  0  0  0  0  0  0  0
  131.7100  126.8450   61.3150 O   0  0  0  0  0  0  0  0  0  0  0  0
  130.8780  125.5940   59.6140 N   0  0  0  0  0  0  0  0  0  0  0  0
  131.4510  126.2470   58.4610 C   0  0  2  0  0  0  0  0  0  0  0  0
  132.6910  125.5430   57.9090 C   0  0  0  0  0  0  0  0  0  0  0  0
  131.7430  127.5940   58.7010 O   0  0  0  0  0  0  0  0  0  0  0  0
  130.5520  128.3190   58.6310 C   0  0  1  0  0  0  0  0  0  0  0  0
  129.8840  128.3920   59.8360 O   0  0  0  0  0  0  0  0  0  0  0  0
  130.7970  129.7060   58.0250 C   0  0  2  0  0  0  0  0  0  0  0  0
  131.5230  130.7420   58.9010 C   0  0  0  0  0  0  0  0  0  0  0  0
  130.4820  131.8050   59.2210 C   0  0  0  0  0  0  0  0  0  0  0  0
  129.5140  131.7840   58.0410 C   0  0  0  0  0  0  0  0  0  0  0  0
  129.5180  130.3680   57.6750 N   0  0  0  0  0  0  0  0  0  0  0  0
  128.4610  129.7010   57.1290 C   0  0  0  0  0  0  0  0  0  0  0  0
  127.4630  130.3000   56.7240 O   0  0  0  0  0  0  0  0  0  0  0  0
  128.5680  128.1380   57.0940 C   0  0  2  0  0  0  0  0  0  0  0  0
  127.3870  127.4850   57.8880 C   0  0  0  0  0  0  0  0  0  0  0  0
  127.3610  125.9610   57.9330 C   0  0  0  0  0  0  0  0  0  0  0  0
  127.0180  125.2370   56.7870 C   0  0  0  0  0  0  0  0  0  0  0  0
  126.9730  123.8470   56.8290 C   0  0  0  0  0  0  0  0  0  0  0  0
  127.2700  123.1840   58.0170 C   0  0  0  0  0  0  0  0  0  0  0  0
  127.6090  123.8980   59.1640 C   0  0  0  0  0  0  0  0  0  0  0  0
  127.6520  125.2890   59.1230 C   0  0  0  0  0  0  0  0  0  0  0  0
  129.8300  127.5900   57.6350 N   0  0  0  0  0  0  0  0  0  0  0  0
  130.3270  126.3570   57.4140 C   0  0  0  0  0  0  0  0  0  0  0  0
  129.9700  125.4890   56.6170 O   0  0  0  0  0  0  0  0  0  0  0  0
  129.1760  126.1660   62.7770 C   0  0  0  0  0  0  0  0  0  0  0  0
  129.5040  126.4450   64.0550 C   0  0  0  0  0  0  0  0  0  0  0  0
  128.7790  127.4100   64.9090 C   0  0  0  0  0  0  0  0  0  0  0  0
  127.9740  128.4690   64.4690 C   0  0  0  0  0  0  0  0  0  0  0  0
  127.3600  129.3370   65.3810 C   0  0  0  0  0  0  0  0  0  0  0  0
  127.4980  129.1910   66.7690 C   0  0  0  0  0  0  0  0  0  0  0  0
  128.2760  128.1150   67.2110 C   0  0  0  0  0  0  0  0  0  0  0  0
  128.6540  127.6280   68.4500 N   0  0  0  0  0  0  0  0  0  0  0  0
  129.4470  126.5030   68.3010 C   0  0  0  0  0  0  0  0  0  0  0  0
  129.6070  126.2170   66.9550 C   0  0  0  0  0  0  0  0  0  0  0  0
  128.8820  127.2460   66.2890 C   0  0  0  0  0  0  0  0  0  0  0  0
  130.2980  125.1510   66.0990 C   0  0  0  0  0  0  0  0  0  0  0  0
  130.7410  125.7980   64.7350 C   0  0  1  0  0  0  0  0  0  0  0  0
  132.4588  124.2065   65.5826 H   0  0  0  0  0  0  0  0  0  0  0  0
  132.4147  123.0711   64.1913 H   0  0  0  0  0  0  0  0  0  0  0  0
  133.5692  124.4472   64.1913 H   0  0  0  0  0  0  0  0  0  0  0  0
  131.5033  123.6698   62.1816 H   0  0  0  0  0  0  0  0  0  0  0  0
  130.0850  123.5796   63.3090 H   0  0  0  0  0  0  0  0  0  0  0  0
  129.2884  124.6755   61.2580 H   0  0  0  0  0  0  0  0  0  0  0  0
  130.2930  124.7980   59.4070 H   0  0  0  0  0  0  0  0  0  0  0  0
  133.3139  125.1893   58.7438 H   0  0  0  0  0  0  0  0  0  0  0  0
  132.3821  124.6856   57.2931 H   0  0  0  0  0  0  0  0  0  0  0  0
  133.2690  126.2476   57.2931 H   0  0  0  0  0  0  0  0  0  0  0  0
  130.5400  128.3860   60.5360 H   0  0  0  0  0  0  0  0  0  0  0  0
  131.4429  129.4535   57.1711 H   0  0  0  0  0  0  0  0  0  0  0  0
  131.8907  130.2734   59.8258 H   0  0  0  0  0  0  0  0  0  0  0  0
  132.3976  131.1687   58.3882 H   0  0  0  0  0  0  0  0  0  0  0  0
  129.9562  131.5611   60.1559 H   0  0  0  0  0  0  0  0  0  0  0  0
  130.9366  132.7966   59.3627 H   0  0  0  0  0  0  0  0  0  0  0  0
  128.5095  132.1171   58.3411 H   0  0  0  0  0  0  0  0  0  0  0  0
  129.7993  132.4571   57.2191 H   0  0  0  0  0  0  0  0  0  0  0  0
  128.5308  127.8873   56.0236 H   0  0  0  0  0  0  0  0  0  0  0  0
  127.4386  127.8496   58.9245 H   0  0  0  0  0  0  0  0  0  0  0  0
  126.4746  127.7770   57.3473 H   0  0  0  0  0  0  0  0  0  0  0  0
  126.7836  125.7666   55.8518 H   0  0  0  0  0  0  0  0  0  0  0  0
  126.7043  123.2749   55.9287 H   0  0  0  0  0  0  0  0  0  0  0  0
  127.2366  122.0850   58.0500 H   0  0  0  0  0  0  0  0  0  0  0  0
  127.8417  123.3653   60.0979 H   0  0  0  0  0  0  0  0  0  0  0  0
  127.9148  125.8585   60.0267 H   0  0  0  0  0  0  0  0  0  0  0  0
  128.2771  126.6354   62.3507 H   0  0  0  0  0  0  0  0  0  0  0  0
  127.8217  128.6212   63.3903 H   0  0  0  0  0  0  0  0  0  0  0  0
  126.7467  130.1641   64.9940 H   0  0  0  0  0  0  0  0  0  0  0  0
  127.0193  129.8865   67.4740 H   0  0  0  0  0  0  0  0  0  0  0  0
  128.4100  128.0020   69.3550 H   0  0  0  0  0  0  0  0  0  0  0  0
  129.8843  125.9233   69.1273 H   0  0  0  0  0  0  0  0  0  0  0  0
  131.1820  124.7677   66.6298 H   0  0  0  0  0  0  0  0  0  0  0  0
  129.6033  124.3198   65.9080 H   0  0  0  0  0  0  0  0  0  0  0  0
  131.4700  126.5835   64.9830 H   0  0  0  0  0  0  0  0  0  0  0  0
  1  2  1  0
  2  3  1  0
  3  4  1  0
  4  5  1  0
  5  6  2  0
  5  7  1  0
  8  7  1  1
  8  9  1  0
  8 10  1  0
 10 11  1  0
 11 12  1  1
 11 13  1  0
 13 14  1  0
 14 15  1  0
 15 16  1  0
 16 17  1  0
 17 18  1  0
 18 19  2  0
 18 20  1  0
 20 21  1  0
 21 22  1  0
 22 23  2  0
 23 24  1  0
 24 25  2  0
 25 26  1  0
 26 27  2  0
 20 28  1  0
 28 29  1  0
 29 30  2  0
  4 31  1  0
 31 32  2  0
 32 33  1  0
 33 34  2  0
 34 35  1  0
 35 36  2  0
 36 37  1  0
 37 38  1  0
 38 39  1  0
 39 40  2  0
 40 41  1  0
 40 42  1  0
 42 43  1  0
 43  2  1  0
 29  8  1  0
 43 32  1  0
 28 11  1  0
 41 33  1  0
 17 13  1  0
 27 22  1  0
 41 37  2  0
  1 44  1  0
  1 45  1  0
  1 46  1  0
  3 47  1  0
  3 48  1  0
  4 49  1  6
  7 50  1  0
  9 51  1  0
  9 52  1  0
  9 53  1  0
 12 54  1  0
 13 55  1  6
 14 56  1  0
 14 57  1  0
 15 58  1  0
 15 59  1  0
 16 60  1  0
 16 61  1  0
 20 62  1  6
 21 63  1  0
 21 64  1  0
 23 65  1  0
 24 66  1  0
 25 67  1  0
 26 68  1  0
 27 69  1  0
 31 70  1  0
 34 71  1  0
 35 72  1  0
 36 73  1  0
 38 74  1  0
 39 75  1  0
 42 76  1  0
 42 77  1  0
 43 78  1  1
M  END
>  <Binding energies>  (1) 
[-8.31]

>  <Ligand effiencies>  (1) 
[-0.1806521739130435]

>  <Interactions>  (1) 
["V-A:ASP:366:CA:3210, V-B:PRO:540:CA:9855, V-B:GLU:543:CB:9878, H-A:TYR:531:OH:4795, V-B:GLU:543:CG:9879, V-A:ASP:366:CG:3213, V-B:TYR:539:CZ:9849, H-B:TYR:539:OH:9850, V-A:GLU:543:CD:4908, V-B:HIS:456:CE1:9041, V-B:PRO:540:N:9856, V-A:HIS:456:CE1:4070, V-B:TYR:484:CZ:9318, V-A:ASP:366:C:3208, H-B:HIS:456:NE2:9042, V-A:MET:535:CE:4835, V-B:GLU:543:CD:9880, H-B:TYR:531:OH:9767, V-A:ASP:366:CB:3212, H-A:ARG:545:NH2:4928, H-A:GLU:543:OE1:4909, V-A:GLU:543:CB:4906, V-A:PRO:540:CB:4885, V-A:PRO:540:CA:4883, H-A:ASP:366:OD2:3215"]

$$$$
ZINC5313399
     RDKit          3D

 58 61  0  0  0  0  0  0  0  0999 V2000
  133.0590  125.0900   60.5800 C   0  0  0  0  0  0  0  0  0  0  0  0
  133.2540  123.6490   61.0290 C   0  0  0  0  0  0  0  0  0  0  0  0
  133.0050  122.6130   60.1210 C   0  0  0  0  0  0  0  0  0  0  0  0
  133.1740  121.2850   60.5050 C   0  0  0  0  0  0  0  0  0  0  0  0
  133.5900  120.9830   61.7990 C   0  0  0  0  0  0  0  0  0  0  0  0
  133.8420  122.0100   62.7090 C   0  0  0  0  0  0  0  0  0  0  0  0
  133.6880  123.3560   62.3330 C   0  0  0  0  0  0  0  0  0  0  0  0
  133.9410  124.4230   63.1750 O   0  0  0  0  0  0  0  0  0  0  0  0
  132.8600  125.2080   63.6750 C   0  0  0  0  0  0  0  0  0  0  0  0
  132.2770  124.5320   64.9290 C   0  0  1  0  0  0  0  0  0  0  0  0
  132.1510  125.4900   65.9650 O   0  0  0  0  0  0  0  0  0  0  0  0
  130.8960  123.8930   64.6560 C   0  0  0  0  0  0  0  0  0  0  0  0
  130.1190  124.6720   63.6830 N   0  0  0  0  0  0  0  0  0  0  0  0
  129.9160  124.3720   62.3490 C   0  0  0  0  0  0  0  0  0  0  0  0
  130.4740  123.2480   61.7820 N   0  0  0  0  0  0  0  0  0  0  0  0
  129.9600  121.9720   62.0400 N   0  0  0  0  0  0  0  0  0  0  0  0
  128.8190  121.6520   61.5640 C   0  0  0  0  0  0  0  0  0  0  0  0
  127.9130  122.4660   60.7230 C   0  0  0  0  0  0  0  0  0  0  0  0
  128.1080  122.5410   59.3340 C   0  0  0  0  0  0  0  0  0  0  0  0
  127.2630  123.3020   58.5290 C   0  0  0  0  0  0  0  0  0  0  0  0
  127.5580  123.3850   56.6520 Br  0  0  0  0  0  0  0  0  0  0  0  0
  126.2000  123.9970   59.0990 C   0  0  0  0  0  0  0  0  0  0  0  0
  125.9830  123.9290   60.4720 C   0  0  0  0  0  0  0  0  0  0  0  0
  126.8270  123.1670   61.2830 C   0  0  0  0  0  0  0  0  0  0  0  0
  126.5650  123.1400   62.6320 O   0  0  0  0  0  0  0  0  0  0  0  0
  129.1920  125.2620   61.7100 N   0  0  0  0  0  0  0  0  0  0  0  0
  128.8810  126.1560   62.6340 C   0  0  0  0  0  0  0  0  0  0  0  0
  129.4230  125.8460   63.8760 C   0  0  0  0  0  0  0  0  0  0  0  0
  129.2250  126.6610   65.0600 C   0  0  0  0  0  0  0  0  0  0  0  0
  129.6380  126.4800   66.2030 O   0  0  0  0  0  0  0  0  0  0  0  0
  128.4570  127.7450   64.7370 N   0  0  0  0  0  0  0  0  0  0  0  0
  127.8800  128.1520   63.5630 C   0  0  0  0  0  0  0  0  0  0  0  0
  127.2170  129.1890   63.5240 O   0  0  0  0  0  0  0  0  0  0  0  0
  128.1120  127.3140   62.4980 N   0  0  0  0  0  0  0  0  0  0  0  0
  127.5250  127.6700   61.2000 C   0  0  0  0  0  0  0  0  0  0  0  0
  132.9710  125.7404   61.4628 H   0  0  0  0  0  0  0  0  0  0  0  0
  133.9226  125.4060   59.9764 H   0  0  0  0  0  0  0  0  0  0  0  0
  132.1425  125.1651   59.9764 H   0  0  0  0  0  0  0  0  0  0  0  0
  132.6741  122.8491   59.0989 H   0  0  0  0  0  0  0  0  0  0  0  0
  132.9790  120.4752   59.7865 H   0  0  0  0  0  0  0  0  0  0  0  0
  133.7200  119.9341   62.1039 H   0  0  0  0  0  0  0  0  0  0  0  0
  134.1646  121.7641   63.7315 H   0  0  0  0  0  0  0  0  0  0  0  0
  133.2251  126.2125   63.9353 H   0  0  0  0  0  0  0  0  0  0  0  0
  132.0789  125.2919   62.9051 H   0  0  0  0  0  0  0  0  0  0  0  0
  132.9673  123.7289   65.2264 H   0  0  0  0  0  0  0  0  0  0  0  0
  131.7220  126.2720   65.6110 H   0  0  0  0  0  0  0  0  0  0  0  0
  131.0452  122.8771   64.2615 H   0  0  0  0  0  0  0  0  0  0  0  0
  130.3358  123.8704   65.6024 H   0  0  0  0  0  0  0  0  0  0  0  0
  130.7470  123.3200   60.8120 H   0  0  0  0  0  0  0  0  0  0  0  0
  128.4636  120.6407   61.8109 H   0  0  0  0  0  0  0  0  0  0  0  0
  128.9416  121.9898   58.8742 H   0  0  0  0  0  0  0  0  0  0  0  0
  125.5325  124.5991   58.4651 H   0  0  0  0  0  0  0  0  0  0  0  0
  125.1423  124.4783   60.9209 H   0  0  0  0  0  0  0  0  0  0  0  0
  126.7930  123.9610   63.0750 H   0  0  0  0  0  0  0  0  0  0  0  0
  128.2780  128.3640   65.5140 H   0  0  0  0  0  0  0  0  0  0  0  0
  126.5946  128.2343   61.3608 H   0  0  0  0  0  0  0  0  0  0  0  0
  128.2361  128.2892   60.6334 H   0  0  0  0  0  0  0  0  0  0  0  0
  127.3046  126.7532   60.6334 H   0  0  0  0  0  0  0  0  0  0  0  0
  1  2  1  0
  2  3  2  0
  3  4  1  0
  4  5  2  0
  5  6  1  0
  6  7  2  0
  7  8  1  0
  8  9  1  0
  9 10  1  0
 10 11  1  0
 10 12  1  0
 12 13  1  0
 13 14  1  0
 14 15  1  0
 15 16  1  0
 16 17  2  0
 17 18  1  0
 18 19  2  0
 19 20  1  0
 20 21  1  0
 20 22  2  0
 22 23  1  0
 23 24  2  0
 24 25  1  0
 14 26  2  0
 26 27  1  0
 27 28  2  0
 28 29  1  0
 29 30  2  0
 29 31  1  0
 31 32  1  0
 32 33  2  0
 32 34  1  0
 34 35  1  0
  7  2  1  0
 28 13  1  0
 24 18  1  0
 34 27  1  0
  1 36  1  0
  1 37  1  0
  1 38  1  0
  3 39  1  0
  4 40  1  0
  5 41  1  0
  6 42  1  0
  9 43  1  0
  9 44  1  0
 10 45  1  1
 11 46  1  0
 12 47  1  0
 12 48  1  0
 15 49  1  0
 17 50  1  0
 19 51  1  0
 22 52  1  0
 23 53  1  0
 25 54  1  0
 31 55  1  0
 35 56  1  0
 35 57  1  0
 35 58  1  0
M  END
>  <Binding energies>  (1) 
[-7.61]

>  <Ligand effiencies>  (1) 
[-0.19512820512820514]

>  <Interactions>  (1) 
["V-A:ILE:369:CG2:3237, V-B:PRO:540:CA:9855, V-A:GLY:454:CA:4049, H-A:GLU:543:OE2:4910, V-B:ALA:541:CB:9864, V-B:TYR:539:CE2:9848, V-B:GLU:543:CG:9879, V-B:TYR:539:C:9839, V-A:ASP:366:CG:3213, V-B:TYR:539:CZ:9849, H-B:GLU:543:OE1:9881, H-B:ALA:541:N:9863, V-A:GLU:543:CD:4908, V-A:TYR:484:CZ:4347, V-B:PRO:540:CB:9857, H-A:GLY:454:N:4050, V-A:SER:385:C:3405, V-B:PRO:540:N:9856, V-A:ILE:369:CD1:3239, V-B:TYR:539:CD2:9846, V-A:SER:385:CB:3409, V-B:GLU:543:CD:9880, V-A:ASP:366:CB:3212, V-A:LEU:475:CD2:4259, H-A:ARG:545:NH2:4928, V-A:ARG:545:CZ:4926, H-A:GLU:543:OE1:4909, V-B:TYR:539:CD1:9845, H-B:GLU:543:OE2:9882, H-A:ARG:545:NE:4924, V-A:SER:385:CA:3407, V-B:PRO:540:C:9853, V-B:ALA:541:CA:9862, V-B:TYR:539:CE1:9847, H-A:TYR:484:OH:4348"]

$$$$
ZINC53292337
     RDKit          3D

 55 56  0  0  0  0  0  0  0  0999 V2000
  130.7870  128.0970   70.5500 C   0  0  0  0  0  0  0  0  0  0  0  0
  129.5820  127.3540   69.9600 C   0  0  0  0  0  0  0  0  0  0  0  0
  129.6400  127.2370   68.4270 C   0  0  0  0  0  0  0  0  0  0  0  0
  128.2900  127.5350   67.7490 C   0  0  0  0  0  0  0  0  0  0  0  0
  128.2750  128.8850   67.0110 C   0  0  0  0  0  0  0  0  0  0  0  0
  128.0340  128.7400   65.4980 C   0  0  0  0  0  0  0  0  0  0  0  0
  127.3490  129.9720   64.8790 C   0  0  0  0  0  0  0  0  0  0  0  0
  128.3270  131.1270   64.5990 C   0  0  0  0  0  0  0  0  0  0  0  0
  128.1530  131.7260   63.1930 C   0  0  0  0  0  0  0  0  0  0  0  0
  129.3690  132.5590   62.7460 C   0  0  0  0  0  0  0  0  0  0  0  0
  129.4500  132.6250   61.2860 N   0  0  0  0  0  0  0  0  0  0  0  0
  128.5410  133.1990   60.4120 C   0  0  0  0  0  0  0  0  0  0  0  0
  127.0390  133.9870   60.8920 S   0  0  0  0  0  0  0  0  0  0  0  0
  125.9470  132.5410   60.7340 C   0  0  0  0  0  0  0  0  0  0  0  0
  126.0160  131.7870   59.3980 C   0  0  0  0  0  0  0  0  0  0  0  0
  128.9210  133.1110   59.1570 N   0  0  0  0  0  0  0  0  0  0  0  0
  130.0730  132.4670   59.1870 C   0  0  0  0  0  0  0  0  0  0  0  0
  130.4530  132.1340   60.4790 C   0  0  0  0  0  0  0  0  0  0  0  0
  131.6700  131.4100   60.7930 C   0  0  0  0  0  0  0  0  0  0  0  0
  132.0940  131.0490   61.8880 O   0  0  0  0  0  0  0  0  0  0  0  0
  132.3480  131.1450   59.6350 N   0  0  0  0  0  0  0  0  0  0  0  0
  132.0760  131.4270   58.3200 C   0  0  0  0  0  0  0  0  0  0  0  0
  132.8590  131.0720   57.4400 O   0  0  0  0  0  0  0  0  0  0  0  0
  130.8970  132.1080   58.1210 N   0  0  0  0  0  0  0  0  0  0  0  0
  130.4990  132.4710   56.7560 C   0  0  0  0  0  0  0  0  0  0  0  0
  130.7355  128.0652   71.6483 H   0  0  0  0  0  0  0  0  0  0  0  0
  131.7163  127.6148   70.2124 H   0  0  0  0  0  0  0  0  0  0  0  0
  130.7735  129.1438   70.2124 H   0  0  0  0  0  0  0  0  0  0  0  0
  129.5508  126.3412   70.3880 H   0  0  0  0  0  0  0  0  0  0  0  0
  128.6820  127.9340   70.2120 H   0  0  0  0  0  0  0  0  0  0  0  0
  130.3870  127.9505   68.0491 H   0  0  0  0  0  0  0  0  0  0  0  0
  129.9065  126.1972   68.1864 H   0  0  0  0  0  0  0  0  0  0  0  0
  128.0779  126.7360   67.0233 H   0  0  0  0  0  0  0  0  0  0  0  0
  127.5271  127.5830   68.5400 H   0  0  0  0  0  0  0  0  0  0  0  0
  127.4738  129.5078   67.4356 H   0  0  0  0  0  0  0  0  0  0  0  0
  129.2658  129.3440   67.1441 H   0  0  0  0  0  0  0  0  0  0  0  0
  129.0039  128.5911   65.0009 H   0  0  0  0  0  0  0  0  0  0  0  0
  127.3625  127.8811   65.3518 H   0  0  0  0  0  0  0  0  0  0  0  0
  126.8797  129.6724   63.9303 H   0  0  0  0  0  0  0  0  0  0  0  0
  126.6088  130.3368   65.6063 H   0  0  0  0  0  0  0  0  0  0  0  0
  128.1572  131.9197   65.3425 H   0  0  0  0  0  0  0  0  0  0  0  0
  129.3472  130.7206   64.6626 H   0  0  0  0  0  0  0  0  0  0  0  0
  128.0068  130.9044   62.4763 H   0  0  0  0  0  0  0  0  0  0  0  0
  127.2833  132.3988   63.2243 H   0  0  0  0  0  0  0  0  0  0  0  0
  129.2741  133.5786   63.1477 H   0  0  0  0  0  0  0  0  0  0  0  0
  130.2825  132.0789   63.1269 H   0  0  0  0  0  0  0  0  0  0  0  0
  126.2088  131.8327   61.5339 H   0  0  0  0  0  0  0  0  0  0  0  0
  124.9222  132.9353   60.7989 H   0  0  0  0  0  0  0  0  0  0  0  0
  126.1147  130.7085   59.5903 H   0  0  0  0  0  0  0  0  0  0  0  0
  125.0970  131.9744   58.8233 H   0  0  0  0  0  0  0  0  0  0  0  0
  126.8858  132.1381   58.8233 H   0  0  0  0  0  0  0  0  0  0  0  0
  133.2120  130.6420   59.7740 H   0  0  0  0  0  0  0  0  0  0  0  0
  129.6868  133.2118   56.7956 H   0  0  0  0  0  0  0  0  0  0  0  0
  131.3612  132.9003   56.2246 H   0  0  0  0  0  0  0  0  0  0  0  0
  130.1507  131.5731   56.2246 H   0  0  0  0  0  0  0  0  0  0  0  0
  1  2  1  0
  2  3  1  0
  3  4  1  0
  4  5  1  0
  5  6  1  0
  6  7  1  0
  7  8  1  0
  8  9  1  0
  9 10  1  0
 10 11  1  0
 11 12  1  0
 12 13  1  0
 13 14  1  0
 14 15  1  0
 12 16  2  0
 16 17  1  0
 17 18  2  0
 18 19  1  0
 19 20  2  0
 19 21  1  0
 21 22  1  0
 22 23  2  0
 22 24  1  0
 24 25  1  0
 18 11  1  0
 24 17  1  0
  1 26  1  0
  1 27  1  0
  1 28  1  0
  2 29  1  0
  2 30  1  0
  3 31  1  0
  3 32  1  0
  4 33  1  0
  4 34  1  0
  5 35  1  0
  5 36  1  0
  6 37  1  0
  6 38  1  0
  7 39  1  0
  7 40  1  0
  8 41  1  0
  8 42  1  0
  9 43  1  0
  9 44  1  0
 10 45  1  0
 10 46  1  0
 14 47  1  0
 14 48  1  0
 15 49  1  0
 15 50  1  0
 15 51  1  0
 21 52  1  0
 25 53  1  0
 25 54  1  0
 25 55  1  0
M  END
>  <Binding energies>  (1) 
[-5.68]

>  <Ligand effiencies>  (1) 
[-0.21846153846153846]

>  <Interactions>  (1) 
["V-A:GLU:543:C:4902, V-B:GLU:543:CB:9878, V-A:PRO:540:C:4881, H-A:TYR:531:OH:4795, V-A:GLY:544:C:4912, V-A:TYR:539:CD1:4873, V-B:TYR:484:CE2:9317, V-A:LEU:363:CD1:3189, V-A:ALA:541:CB:4892, V-A:GLU:543:CD:4908, V-B:HIS:456:CE1:9041, V-A:HIS:456:CE1:4070, V-A:ALA:541:CA:4890, V-A:GLU:543:CG:4907, V-B:GLU:543:CD:9880, V-A:TYR:539:C:4867, V-A:GLU:543:CB:4906, V-A:PRO:540:N:4884, V-A:PRO:540:CB:4885, V-A:PRO:540:CA:4883, H-A:ASP:366:OD2:3215, V-A:TYR:539:CE1:4875"]

$$$$
ZINC5342079-again1
     RDKit          3D

 32 31  0  0  0  0  0  0  0  0999 V2000
  134.8400  126.5930   74.9660 C   0  0  0  0  0  0  0  0  0  0  0  0
  133.6250  126.6320   74.3990 C   0  0  0  0  0  0  0  0  0  0  0  0
  132.4610  126.7400   75.0950 O   0  0  0  0  0  0  0  0  0  0  0  0
  131.2120  126.7070   74.5020 C   0  0  0  0  0  0  0  0  0  0  0  0
  130.5350  125.7620   74.9500 O   0  0  0  0  0  0  0  0  0  0  0  0
  130.9560  127.6060   73.6020 N   0  0  0  0  0  0  0  0  0  0  0  0
  129.7810  127.7770   72.8940 C   0  0  0  0  0  0  0  0  0  0  0  0
  129.2270  129.2930   72.4380 S   0  0  0  0  0  0  0  0  0  0  0  0
  129.2310  126.5590   72.6130 N   0  0  0  0  0  0  0  0  0  0  0  0
  128.0350  126.3550   71.7860 C   0  0  0  0  0  0  0  0  0  0  0  0
  128.0440  127.0980   70.4300 C   0  0  0  0  0  0  0  0  0  0  0  0
  128.7580  126.4090   69.3440 N   0  0  0  0  0  0  0  0  0  0  0  0
  128.8830  126.8430   68.0450 C   0  0  0  0  0  0  0  0  0  0  0  0
  128.3890  128.3830   67.5610 S   0  0  0  0  0  0  0  0  0  0  0  0
  129.4410  125.9180   67.1740 N   0  0  0  0  0  0  0  0  0  0  0  0
  129.8320  124.5660   67.6150 C   0  0  0  0  0  0  0  0  0  0  0  0
  129.7100  126.2130   65.7550 C   0  0  0  0  0  0  0  0  0  0  0  0
  135.7380  126.5044   74.3369 H   0  0  0  0  0  0  0  0  0  0  0  0
  134.9384  126.6496   76.0601 H   0  0  0  0  0  0  0  0  0  0  0  0
  133.5660  126.5729   73.3022 H   0  0  0  0  0  0  0  0  0  0  0  0
  129.7160  125.7350   72.9400 H   0  0  0  0  0  0  0  0  0  0  0  0
  127.9392  125.2779   71.5844 H   0  0  0  0  0  0  0  0  0  0  0  0
  127.1914  126.7689   72.3579 H   0  0  0  0  0  0  0  0  0  0  0  0
  127.0003  127.2419   70.1137 H   0  0  0  0  0  0  0  0  0  0  0  0
  128.5846  128.0405   70.6015 H   0  0  0  0  0  0  0  0  0  0  0  0
  129.0900  125.4790   69.5550 H   0  0  0  0  0  0  0  0  0  0  0  0
  129.8431  124.5278   68.7143 H   0  0  0  0  0  0  0  0  0  0  0  0
  129.1095  123.8314   67.2298 H   0  0  0  0  0  0  0  0  0  0  0  0
  130.8351  124.3305   67.2298 H   0  0  0  0  0  0  0  0  0  0  0  0
  130.4496  127.0241   65.6829 H   0  0  0  0  0  0  0  0  0  0  0  0
  130.1042  125.3124   65.2616 H   0  0  0  0  0  0  0  0  0  0  0  0
  128.7769  126.5227   65.2616 H   0  0  0  0  0  0  0  0  0  0  0  0
  1  2  2  0
  2  3  1  0
  3  4  1  0
  4  5  1  0
  4  6  2  0
  6  7  1  0
  7  8  2  0
  7  9  1  0
  9 10  1  0
 10 11  1  0
 11 12  1  0
 12 13  1  0
 13 14  2  0
 13 15  1  0
 15 16  1  0
 15 17  1  0
  1 18  1  0
  1 19  1  0
  2 20  1  0
  9 21  1  0
 10 22  1  0
 10 23  1  0
 11 24  1  0
 11 25  1  0
 12 26  1  0
 16 27  1  0
 16 28  1  0
 16 29  1  0
 17 30  1  0
 17 31  1  0
 17 32  1  0
M  CHG  1   5  -1
M  END
>  <Binding energies>  (1) 
[-5.47]

>  <Ligand effiencies>  (1) 
[-0.28789473684210526]

>  <Interactions>  (1) 
["V-B:HIS:456:CD2:9039, V-B:GLU:543:C:9874, H-B:GLU:543:O:9875, V-B:GLU:543:CB:9878, H-B:LYS:547:NZ:9923, V-A:TYR:484:CE2:4346, V-B:GLU:543:CG:9879, V-A:HIS:456:CD2:4068, V-A:VAL:457:C:4073, V-A:LYS:547:CG:4948, V-A:HIS:456:CB:4065, V-A:GLU:543:CD:4908, V-A:TYR:484:CZ:4347, V-B:HIS:456:CE1:9041, V-B:GLU:543:CA:9876, V-A:HIS:456:CE1:4070, V-B:GLY:544:C:9884, V-B:GLY:544:CA:9886, V-A:GLU:543:CG:4907, V-B:GLU:543:CD:9880, H-A:LYS:547:NZ:4951, V-A:HIS:456:C:4061, V-A:ARG:545:C:4917, V-A:HIS:456:CG:4066, V-A:GLU:543:CB:4906, V-A:VAL:458:CG2:4087, H-A:HIS:456:NE2:4071"]

$$$$
ZINC5351490
     RDKit          3D

 55 58  0  0  0  0  0  0  0  0999 V2000
  134.3650  122.1550   61.0250 C   0  0  0  0  0  0  0  0  0  0  0  0
  132.9560  121.7880   61.2100 N   0  0  0  0  0  0  0  0  0  0  0  0
  132.4090  120.8740   60.3410 C   0  0  0  0  0  0  0  0  0  0  0  0
  133.0030  120.3270   59.4120 O   0  0  0  0  0  0  0  0  0  0  0  0
  131.0890  120.5890   60.5810 N   0  0  0  0  0  0  0  0  0  0  0  0
  130.2070  121.0350   61.5240 C   0  0  0  0  0  0  0  0  0  0  0  0
  129.0480  120.6300   61.5630 O   0  0  0  0  0  0  0  0  0  0  0  0
  130.8720  121.9950   62.3880 C   0  0  0  0  0  0  0  0  0  0  0  0
  132.2060  122.3570   62.2410 C   0  0  0  0  0  0  0  0  0  0  0  0
  132.5920  123.2350   63.1500 N   0  0  0  0  0  0  0  0  0  0  0  0
  131.5230  123.4390   63.8900 C   0  0  0  0  0  0  0  0  0  0  0  0
  131.4630  124.3130   64.9550 N   0  0  0  0  0  0  0  0  0  0  0  0
  130.4660  125.2850   65.0640 N   0  0  0  0  0  0  0  0  0  0  0  0
  130.3080  125.8190   66.2050 C   0  0  0  0  0  0  0  0  0  0  0  0
  129.3000  126.8600   66.4940 C   0  0  0  0  0  0  0  0  0  0  0  0
  128.8110  127.6870   65.4670 C   0  0  0  0  0  0  0  0  0  0  0  0
  127.8580  128.6730   65.7200 C   0  0  0  0  0  0  0  0  0  0  0  0
  127.2230  129.7690   64.3000 Br  0  0  0  0  0  0  0  0  0  0  0  0
  127.3710  128.8540   67.0110 C   0  0  0  0  0  0  0  0  0  0  0  0
  127.8390  128.0500   68.0450 C   0  0  0  0  0  0  0  0  0  0  0  0
  128.7940  127.0610   67.7990 C   0  0  0  0  0  0  0  0  0  0  0  0
  129.2100  126.3080   68.8710 O   0  0  0  0  0  0  0  0  0  0  0  0
  130.4180  122.7170   63.4720 N   0  0  0  0  0  0  0  0  0  0  0  0
  129.0770  122.7060   64.0690 C   0  0  0  0  0  0  0  0  0  0  0  0
  128.0150  123.2960   63.1100 C   0  0  2  0  0  0  0  0  0  0  0  0
  127.4460  122.2890   62.2930 O   0  0  0  0  0  0  0  0  0  0  0  0
  128.5720  124.4190   62.2130 C   0  0  0  0  0  0  0  0  0  0  0  0
  129.1210  123.8640   61.0180 O   0  0  0  0  0  0  0  0  0  0  0  0
  128.2980  123.6280   59.9340 C   0  0  0  0  0  0  0  0  0  0  0  0
  127.2460  124.5260   59.7490 C   0  0  0  0  0  0  0  0  0  0  0  0
  126.3620  124.3710   58.6830 C   0  0  0  0  0  0  0  0  0  0  0  0
  126.5330  123.3110   57.7950 C   0  0  0  0  0  0  0  0  0  0  0  0
  125.4400  123.1160   56.4730 Cl  0  0  0  0  0  0  0  0  0  0  0  0
  127.5780  122.4060   57.9680 C   0  0  0  0  0  0  0  0  0  0  0  0
  128.4590  122.5610   59.0350 C   0  0  0  0  0  0  0  0  0  0  0  0
  134.8435  122.2796   62.0076 H   0  0  0  0  0  0  0  0  0  0  0  0
  134.8801  121.3611   60.4644 H   0  0  0  0  0  0  0  0  0  0  0  0
  134.4274  123.0994   60.4644 H   0  0  0  0  0  0  0  0  0  0  0  0
  130.6960  119.9160   59.9410 H   0  0  0  0  0  0  0  0  0  0  0  0
  131.8430  124.0490   65.8520 H   0  0  0  0  0  0  0  0  0  0  0  0
  130.9598  125.4872   67.0266 H   0  0  0  0  0  0  0  0  0  0  0  0
  129.1883  127.5532   64.4424 H   0  0  0  0  0  0  0  0  0  0  0  0
  126.6184  129.6304   67.2131 H   0  0  0  0  0  0  0  0  0  0  0  0
  127.4537  128.1943   69.0652 H   0  0  0  0  0  0  0  0  0  0  0  0
  128.6870  125.5130   68.9990 H   0  0  0  0  0  0  0  0  0  0  0  0
  128.8026  121.6681   64.3087 H   0  0  0  0  0  0  0  0  0  0  0  0
  129.1017  123.3283   64.9757 H   0  0  0  0  0  0  0  0  0  0  0  0
  127.2401  123.7326   63.7572 H   0  0  0  0  0  0  0  0  0  0  0  0
  128.0710  122.0640   61.5990 H   0  0  0  0  0  0  0  0  0  0  0  0
  127.7596  125.1133   61.9522 H   0  0  0  0  0  0  0  0  0  0  0  0
  129.3626  124.9564   62.7572 H   0  0  0  0  0  0  0  0  0  0  0  0
  127.1135  125.3630   60.4503 H   0  0  0  0  0  0  0  0  0  0  0  0
  125.5339  125.0815   58.5434 H   0  0  0  0  0  0  0  0  0  0  0  0
  127.7067  121.5711   57.2634 H   0  0  0  0  0  0  0  0  0  0  0  0
  129.2832  121.8460   59.1742 H   0  0  0  0  0  0  0  0  0  0  0  0
  1  2  1  0
  2  3  1  0
  3  4  2  0
  3  5  1  0
  5  6  1  0
  6  7  2  0
  6  8  1  0
  8  9  2  0
  9 10  1  0
 10 11  2  0
 11 12  1  0
 12 13  1  0
 13 14  2  0
 14 15  1  0
 15 16  2  0
 16 17  1  0
 17 18  1  0
 17 19  2  0
 19 20  1  0
 20 21  2  0
 21 22  1  0
 11 23  1  0
 23 24  1  0
 24 25  1  0
 25 26  1  0
 25 27  1  0
 27 28  1  0
 28 29  1  0
 29 30  2  0
 30 31  1  0
 31 32  2  0
 32 33  1  0
 32 34  1  0
 34 35  2  0
  9  2  1  0
 21 15  1  0
 35 29  1  0
 23  8  1  0
  1 36  1  0
  1 37  1  0
  1 38  1  0
  5 39  1  0
 12 40  1  0
 14 41  1  0
 16 42  1  0
 19 43  1  0
 20 44  1  0
 22 45  1  0
 24 46  1  0
 24 47  1  0
 25 48  1  1
 26 49  1  0
 27 50  1  0
 27 51  1  0
 30 52  1  0
 31 53  1  0
 34 54  1  0
 35 55  1  0
M  END
>  <Binding energies>  (1) 
[-6.85]

>  <Ligand effiencies>  (1) 
[-0.17564102564102563]

>  <Interactions>  (1) 
["V-A:ILE:369:CG2:3237, V-B:TYR:539:CA:9841, V-B:PRO:540:CA:9855, V-A:ILE:369:CB:3236, H-B:GLU:543:O:9875, V-B:GLU:543:CB:9878, V-B:ALA:541:CB:9864, V-B:TYR:539:CE2:9848, V-B:GLU:543:CG:9879, V-B:TYR:539:C:9839, V-B:TYR:539:CZ:9849, H-B:ALA:541:N:9863, V-A:TYR:484:CZ:4347, V-B:PRO:540:CB:9857, V-A:GLU:543:CD:4908, V-B:HIS:456:CE1:9041, V-B:PRO:540:N:9856, V-A:ILE:369:CD1:3239, V-B:TYR:539:CD2:9846, V-A:GLU:543:CG:4907, H-A:SER:385:OG:3410, V-B:GLU:543:CD:9880, V-A:ILE:369:CG1:3238, V-A:LEU:475:CD2:4259, V-B:TYR:539:CG:9844, V-B:LEU:363:CD1:8160, H-B:TYR:539:O:9840, V-B:MET:535:CE:9807, H-A:HIS:456:NE2:4071, H-A:TYR:484:OH:4348"]

$$$$
ZINC536955079
     RDKit          3D

 44 43  0  0  0  0  0  0  0  0999 V2000
  135.1010  126.5610   75.1700 C   0  0  0  0  0  0  0  0  0  0  0  0
  133.7960  126.2550   75.0810 C   0  0  0  0  0  0  0  0  0  0  0  0
  132.9250  126.5210   73.8710 C   0  0  0  0  0  0  0  0  0  0  0  0
  131.8260  127.3390   74.2430 O   0  0  0  0  0  0  0  0  0  0  0  0
  130.5610  126.7510   73.9690 C   0  0  0  0  0  0  0  0  0  0  0  0
  129.8030  127.5770   72.8990 C   0  0  1  0  0  0  0  0  0  0  0  0
  128.9670  126.6980   71.9320 C   0  0  0  0  0  0  0  0  0  0  0  0
  128.9320  127.1960   70.4700 C   0  0  0  0  0  0  0  0  0  0  0  0
  129.2360  126.1520   69.4860 N   0  0  0  0  0  0  0  0  0  0  0  0
  129.4700  126.3730   68.1300 C   0  0  0  0  0  0  0  0  0  0  0  0
  129.6670  125.4700   67.3170 O   0  0  0  0  0  0  0  0  0  0  0  0
  129.4520  127.7070   67.8240 O   0  0  0  0  0  0  0  0  0  0  0  0
  128.3540  128.4160   67.2210 C   0  0  0  0  0  0  0  0  0  0  0  0
  128.3430  129.9050   67.6450 C   0  0  0  0  0  0  0  0  0  0  0  0
  128.3740  128.2750   65.6780 C   0  0  0  0  0  0  0  0  0  0  0  0
  127.1000  127.7140   67.7800 C   0  0  0  0  0  0  0  0  0  0  0  0
  128.9050  128.6880   73.5300 C   0  0  0  0  0  0  0  0  0  0  0  0
  128.6230  128.5470   75.0480 C   0  0  0  0  0  0  0  0  0  0  0  0
  127.7390  127.7240   75.3750 O   0  0  0  0  0  0  0  0  0  0  0  0
  129.2440  129.2680   75.8640 O   0  0  0  0  0  0  0  0  0  0  0  0
  135.6583  126.3312   76.0901 H   0  0  0  0  0  0  0  0  0  0  0  0
  135.6123  127.0414   74.3228 H   0  0  0  0  0  0  0  0  0  0  0  0
  133.3250  125.7755   75.9518 H   0  0  0  0  0  0  0  0  0  0  0  0
  133.5179  127.0339   73.0994 H   0  0  0  0  0  0  0  0  0  0  0  0
  132.5503  125.5657   73.4748 H   0  0  0  0  0  0  0  0  0  0  0  0
  130.7101  125.7264   73.5976 H   0  0  0  0  0  0  0  0  0  0  0  0
  129.9668  126.7342   74.8945 H   0  0  0  0  0  0  0  0  0  0  0  0
  130.5898  128.0658   72.3057 H   0  0  0  0  0  0  0  0  0  0  0  0
  129.3921  125.6835   71.9378 H   0  0  0  0  0  0  0  0  0  0  0  0
  127.9300  126.7363   72.2970 H   0  0  0  0  0  0  0  0  0  0  0  0
  127.9261  127.5888   70.2606 H   0  0  0  0  0  0  0  0  0  0  0  0
  129.7110  127.9666   70.3733 H   0  0  0  0  0  0  0  0  0  0  0  0
  129.2170  125.1950   69.8070 H   0  0  0  0  0  0  0  0  0  0  0  0
  128.3425  129.9736   68.7429 H   0  0  0  0  0  0  0  0  0  0  0  0
  129.2375  130.4063   67.2467 H   0  0  0  0  0  0  0  0  0  0  0  0
  127.4412  130.3930   67.2467 H   0  0  0  0  0  0  0  0  0  0  0  0
  128.5238  127.2192   65.4082 H   0  0  0  0  0  0  0  0  0  0  0  0
  127.4170  128.6267   65.2652 H   0  0  0  0  0  0  0  0  0  0  0  0
  129.1955  128.8790   65.2652 H   0  0  0  0  0  0  0  0  0  0  0  0
  127.1299  127.7307   68.8795 H   0  0  0  0  0  0  0  0  0  0  0  0
  126.1991  128.2390   67.4296 H   0  0  0  0  0  0  0  0  0  0  0  0
  127.0765  126.6715   67.4296 H   0  0  0  0  0  0  0  0  0  0  0  0
  129.4016  129.6560   73.3676 H   0  0  0  0  0  0  0  0  0  0  0  0
  127.9268  128.5981   73.0350 H   0  0  0  0  0  0  0  0  0  0  0  0
  1  2  2  0
  2  3  1  0
  3  4  1  0
  4  5  1  0
  5  6  1  0
  6  7  1  0
  7  8  1  0
  8  9  1  0
  9 10  1  0
 10 11  2  0
 10 12  1  0
 12 13  1  0
 13 14  1  0
 13 15  1  0
 13 16  1  0
  6 17  1  0
 17 18  1  0
 18 19  2  0
 18 20  1  0
  1 21  1  0
  1 22  1  0
  2 23  1  0
  3 24  1  0
  3 25  1  0
  5 26  1  0
  5 27  1  0
  6 28  1  6
  7 29  1  0
  7 30  1  0
  8 31  1  0
  8 32  1  0
  9 33  1  0
 14 34  1  0
 14 35  1  0
 14 36  1  0
 15 37  1  0
 15 38  1  0
 15 39  1  0
 16 40  1  0
 16 41  1  0
 16 42  1  0
 17 43  1  0
 17 44  1  0
M  CHG  1  20  -1
M  END
>  <Binding energies>  (1) 
[-5.67]

>  <Ligand effiencies>  (1) 
[-0.27]

>  <Interactions>  (1) 
["V-A:GLU:543:CA:4904, V-B:HIS:456:CD2:9039, V-B:GLU:543:C:9874, H-B:GLU:543:O:9875, V-B:GLU:543:CB:9878, H-B:LYS:547:NZ:9923, V-A:VAL:457:CA:4075, V-A:HIS:456:CD2:4068, V-A:VAL:457:C:4073, V-B:TYR:484:CE2:9317, V-A:LYS:547:CG:4948, V-A:LYS:547:CB:4947, V-A:HIS:456:CB:4065, V-A:GLU:543:CD:4908, V-B:HIS:456:CE1:9041, V-A:HIS:456:CE1:4070, V-B:TYR:484:CZ:9318, V-A:GLU:543:CG:4907, V-B:GLU:543:CD:9880, H-A:LYS:547:NZ:4951, V-A:HIS:456:C:4061, V-A:HIS:456:CG:4066, V-A:GLU:543:CB:4906, V-A:VAL:458:CG2:4087, H-A:HIS:456:NE2:4071"]

$$$$
ZINC537067013-again1
     RDKit          3D

 50 53  0  0  0  0  0  0  0  0999 V2000
  127.9270  128.3450   67.2850 C   0  0  0  0  0  0  0  0  0  0  0  0
  128.7370  127.1560   67.8400 C   0  0  1  0  0  0  0  0  0  0  0  0
  129.8570  126.8260   66.8310 N   0  0  0  0  0  0  0  0  0  0  0  0
  130.0030  125.3500   66.4040 C   0  0  2  0  0  0  0  0  0  0  0  0
  129.8490  124.4650   67.6530 C   0  0  0  0  0  0  0  0  0  0  0  0
  131.3400  125.1650   65.7090 C   0  0  0  0  0  0  0  0  0  0  0  0
  132.5290  125.4900   66.1500 N   0  0  0  0  0  0  0  0  0  0  0  0
  133.4240  125.1060   65.1550 N   0  0  0  0  0  0  0  0  0  0  0  0
  132.7010  124.5840   64.1940 C   0  0  0  0  0  0  0  0  0  0  0  0
  133.1660  124.0210   62.9360 C   0  0  0  0  0  0  0  0  0  0  0  0
  134.1000  124.5620   62.0520 C   0  0  0  0  0  0  0  0  0  0  0  0
  134.3300  123.7620   60.9270 C   0  0  0  0  0  0  0  0  0  0  0  0
  133.5740  122.6010   60.9350 C   0  0  0  0  0  0  0  0  0  0  0  0
  132.5710  122.4940   62.3430 S   0  0  0  0  0  0  0  0  0  0  0  0
  131.3720  124.5950   64.4780 O   0  0  0  0  0  0  0  0  0  0  0  0
  129.2540  127.3710   69.2650 C   0  0  0  0  0  0  0  0  0  0  0  0
  130.5330  127.8910   69.5000 C   0  0  0  0  0  0  0  0  0  0  0  0
  130.9880  128.0860   70.8050 C   0  0  0  0  0  0  0  0  0  0  0  0
  130.1740  127.7540   71.8890 C   0  0  0  0  0  0  0  0  0  0  0  0
  130.6380  127.9720   73.1660 O   0  0  0  0  0  0  0  0  0  0  0  0
  131.2930  126.9760   73.8640 C   0  0  0  0  0  0  0  0  0  0  0  0
  130.5010  125.9740   74.4280 C   0  0  0  0  0  0  0  0  0  0  0  0
  131.0850  124.9430   75.1590 C   0  0  0  0  0  0  0  0  0  0  0  0
  132.4660  124.9160   75.3320 C   0  0  0  0  0  0  0  0  0  0  0  0
  133.2690  125.9120   74.7820 C   0  0  0  0  0  0  0  0  0  0  0  0
  132.6840  126.9440   74.0520 C   0  0  0  0  0  0  0  0  0  0  0  0
  128.8890  127.2480   71.6610 C   0  0  0  0  0  0  0  0  0  0  0  0
  128.0800  126.9410   72.7010 F   0  0  0  0  0  0  0  0  0  0  0  0
  128.4360  127.0570   70.3560 C   0  0  0  0  0  0  0  0  0  0  0  0
  127.5242  128.9362   68.1206 H   0  0  0  0  0  0  0  0  0  0  0  0
  128.5817  128.9791   66.6692 H   0  0  0  0  0  0  0  0  0  0  0  0
  127.0972  127.9678   66.6692 H   0  0  0  0  0  0  0  0  0  0  0  0
  128.0681  126.2889   67.9432 H   0  0  0  0  0  0  0  0  0  0  0  0
  129.7070  127.3750   65.9980 H   0  0  0  0  0  0  0  0  0  0  0  0
  130.7330  127.1240   67.2360 H   0  0  0  0  0  0  0  0  0  0  0  0
  129.2229  125.0552   65.6867 H   0  0  0  0  0  0  0  0  0  0  0  0
  129.9566  125.0836   68.5562 H   0  0  0  0  0  0  0  0  0  0  0  0
  128.8553  123.9933   67.6479 H   0  0  0  0  0  0  0  0  0  0  0  0
  130.6250  123.6854   67.6479 H   0  0  0  0  0  0  0  0  0  0  0  0
  134.6062  125.5236   62.2226 H   0  0  0  0  0  0  0  0  0  0  0  0
  135.0340  124.0261   60.1242 H   0  0  0  0  0  0  0  0  0  0  0  0
  133.6068  121.8389   60.1425 H   0  0  0  0  0  0  0  0  0  0  0  0
  131.1832  128.1474   68.6506 H   0  0  0  0  0  0  0  0  0  0  0  0
  131.9910  128.5025   70.9796 H   0  0  0  0  0  0  0  0  0  0  0  0
  129.4095  125.9993   74.2940 H   0  0  0  0  0  0  0  0  0  0  0  0
  130.4578  124.1531   75.5980 H   0  0  0  0  0  0  0  0  0  0  0  0
  132.9272  124.1005   75.9084 H   0  0  0  0  0  0  0  0  0  0  0  0
  134.3595  125.8839   74.9233 H   0  0  0  0  0  0  0  0  0  0  0  0
  133.3138  127.7364   73.6214 H   0  0  0  0  0  0  0  0  0  0  0  0
  127.4265  126.6559   70.1827 H   0  0  0  0  0  0  0  0  0  0  0  0
  1  2  1  0
  2  3  1  0
  3  4  1  0
  4  5  1  0
  4  6  1  0
  6  7  2  0
  7  8  1  0
  8  9  2  0
  9 10  1  0
 10 11  2  0
 11 12  1  0
 12 13  2  0
 13 14  1  0
  9 15  1  0
  2 16  1  0
 16 17  2  0
 17 18  1  0
 18 19  2  0
 19 20  1  0
 20 21  1  0
 21 22  2  0
 22 23  1  0
 23 24  2  0
 24 25  1  0
 25 26  2  0
 19 27  1  0
 27 28  1  0
 27 29  2  0
 15  6  1  0
 29 16  1  0
 14 10  1  0
 26 21  1  0
  1 30  1  0
  1 31  1  0
  1 32  1  0
  2 33  1  1
  3 34  1  0
  3 35  1  0
  4 36  1  6
  5 37  1  0
  5 38  1  0
  5 39  1  0
 11 40  1  0
 12 41  1  0
 13 42  1  0
 17 43  1  0
 18 44  1  0
 22 45  1  0
 23 46  1  0
 24 47  1  0
 25 48  1  0
 26 49  1  0
 29 50  1  0
M  CHG  1   3   1
M  END
>  <Binding energies>  (1) 
[-9.09]

>  <Ligand effiencies>  (1) 
[-0.2932258064516129]

>  <Interactions>  (1) 
["V-A:ILE:369:CG2:3237, V-B:GLU:543:C:9874, H-A:GLU:543:OE2:4910, V-A:ILE:369:CB:3236, V-A:GLU:543:C:4902, V-B:GLU:543:CB:9878, V-A:TYR:484:CE2:4346, V-A:GLY:544:CA:4914, V-B:GLU:543:CG:9879, V-A:GLY:544:C:4912, V-A:ASP:366:CG:3213, V-A:HIS:456:CD2:4068, V-A:HIS:456:CB:4065, V-B:LYS:547:CE:9922, V-A:GLU:543:CD:4908, V-A:TYR:484:CZ:4347, V-B:HIS:456:CE1:9041, H-A:GLY:454:N:4050, V-B:GLU:543:CA:9876, V-A:HIS:456:CE1:4070, V-A:ILE:369:CD1:3239, H-A:LYS:547:NZ:4951, H-A:ARG:545:NH2:4928, V-A:ARG:545:CZ:4926, H-A:GLU:543:OE1:4909, V-A:LEU:475:CD2:4259, V-A:GLU:543:CB:4906, V-A:HIS:456:CG:4066, H-A:ARG:545:NE:4924, H-A:TYR:484:OH:4348"]

$$$$
ZINC5377131
     RDKit          3D

 33 34  0  0  0  0  0  0  0  0999 V2000
  126.4610  122.0670   56.4170 N   0  0  0  0  0  0  0  0  0  0  0  0
  127.1650  122.5120   57.2220 C   0  0  0  0  0  0  0  0  0  0  0  0
  128.0580  123.0790   58.2430 C   0  0  0  0  0  0  0  0  0  0  0  0
  127.3980  123.2130   59.6210 C   0  0  0  0  0  0  0  0  0  0  0  0
  128.4010  123.1660   60.6260 O   0  0  0  0  0  0  0  0  0  0  0  0
  128.7440  121.8480   61.0280 C   0  0  0  0  0  0  0  0  0  0  0  0
  130.1930  121.6190   60.9410 C   0  0  0  0  0  0  0  0  0  0  0  0
  131.3980  121.4380   60.8550 C   0  0  0  0  0  0  0  0  0  0  0  0
  132.8550  121.2410   60.7470 C   0  0  0  0  0  0  0  0  0  0  0  0
  133.7020  122.5230   60.9510 C   0  0  1  0  0  0  0  0  0  0  0  0
  132.9260  123.8480   60.7040 C   0  0  0  0  0  0  0  0  0  0  0  0
  133.2060  124.6580   61.9950 C   0  0  1  0  0  0  0  0  0  0  0  0
  132.4840  123.9700   63.1510 C   0  0  0  0  0  0  0  0  0  0  0  0
  133.1450  122.8180   63.3880 C   0  0  0  0  0  0  0  0  0  0  0  0
  134.2900  122.7550   62.3780 C   0  0  2  0  0  0  0  0  0  0  0  0
  134.6280  124.2380   62.3420 C   0  0  0  0  0  0  0  0  0  0  0  0
  128.9374  122.4252   58.3394 H   0  0  0  0  0  0  0  0  0  0  0  0
  128.3286  124.0925   57.9119 H   0  0  0  0  0  0  0  0  0  0  0  0
  126.8621  124.1718   59.6806 H   0  0  0  0  0  0  0  0  0  0  0  0
  126.6855  122.3885   59.7712 H   0  0  0  0  0  0  0  0  0  0  0  0
  128.4197  121.6956   62.0680 H   0  0  0  0  0  0  0  0  0  0  0  0
  128.2412  121.1393   60.3535 H   0  0  0  0  0  0  0  0  0  0  0  0
  133.1581  120.5062   61.5074 H   0  0  0  0  0  0  0  0  0  0  0  0
  133.0461  120.9046   59.7173 H   0  0  0  0  0  0  0  0  0  0  0  0
  134.4922  122.3180   60.2137 H   0  0  0  0  0  0  0  0  0  0  0  0
  133.3102  124.3723   59.8166 H   0  0  0  0  0  0  0  0  0  0  0  0
  131.8540  123.6945   60.5111 H   0  0  0  0  0  0  0  0  0  0  0  0
  132.9669  125.7238   61.8654 H   0  0  0  0  0  0  0  0  0  0  0  0
  131.5976  124.3412   63.6863 H   0  0  0  0  0  0  0  0  0  0  0  0
  132.9062  122.0698   64.1582 H   0  0  0  0  0  0  0  0  0  0  0  0
  135.0650  122.0114   62.6155 H   0  0  0  0  0  0  0  0  0  0  0  0
  134.9713  124.6284   63.3114 H   0  0  0  0  0  0  0  0  0  0  0  0
  135.4456  124.5713   61.6860 H   0  0  0  0  0  0  0  0  0  0  0  0
  1  2  3  0
  2  3  1  0
  3  4  1  0
  4  5  1  0
  5  6  1  0
  6  7  1  0
  7  8  3  0
  8  9  1  0
  9 10  1  0
 10 11  1  0
 11 12  1  0
 12 13  1  0
 13 14  2  0
 14 15  1  0
 15 16  1  0
 15 10  1  0
 16 12  1  0
  3 17  1  0
  3 18  1  0
  4 19  1  0
  4 20  1  0
  6 21  1  0
  6 22  1  0
  9 23  1  0
  9 24  1  0
 10 25  1  6
 11 26  1  0
 11 27  1  0
 12 28  1  6
 13 29  1  0
 14 30  1  0
 15 31  1  1
 16 32  1  0
 16 33  1  0
M  END
>  <Binding energies>  (1) 
[-5.56]

>  <Ligand effiencies>  (1) 
[-0.3475]

>  <Interactions>  (1) 
["V-A:ILE:369:CG2:3237, V-B:PRO:540:CA:9855, V-A:GLY:454:CA:4049, V-B:ALA:541:CB:9864, V-B:TYR:539:CE2:9848, H-B:TYR:539:N:9842, V-B:TYR:539:C:9839, V-A:ASP:366:CG:3213, V-B:TYR:539:CZ:9849, V-B:PRO:540:CB:9857, V-A:GLY:453:C:4042, V-B:PRO:540:N:9856, V-A:ILE:369:CD1:3239, V-B:TYR:539:CD2:9846, V-B:PRO:540:CD:9859, V-A:LEU:475:CD2:4259, V-B:TYR:539:CG:9844, V-B:TYR:539:CD1:9845, V-A:GLY:453:CA:4044, V-B:PRO:540:C:9853"]

$$$$
ZINC540191849
     RDKit          3D

 48 50  0  0  0  0  0  0  0  0999 V2000
  133.9620  122.8300   61.2570 C   0  0  0  0  0  0  0  0  0  0  0  0
  132.7830  122.2520   62.0630 C   0  0  2  0  0  0  0  0  0  0  0  0
  131.8440  121.6370   61.1200 N   0  0  0  0  0  0  0  0  0  0  0  0
  130.6070  121.0590   61.6530 C   0  0  1  0  0  0  0  0  0  0  0  0
  129.3560  121.8880   61.3290 C   0  0  0  0  0  0  0  0  0  0  0  0
  129.0130  122.1080   59.9910 C   0  0  0  0  0  0  0  0  0  0  0  0
  127.8870  122.8610   59.6700 C   0  0  0  0  0  0  0  0  0  0  0  0
  127.1030  123.4020   60.6880 C   0  0  0  0  0  0  0  0  0  0  0  0
  125.7190  124.3530   60.2900 Cl  0  0  0  0  0  0  0  0  0  0  0  0
  127.4340  123.1880   62.0240 C   0  0  0  0  0  0  0  0  0  0  0  0
  128.5600  122.4350   62.3440 C   0  0  0  0  0  0  0  0  0  0  0  0
  130.4880  119.6110   61.1970 C   0  0  0  0  0  0  0  0  0  0  0  0
  131.2510  119.0470   60.1600 C   0  0  0  0  0  0  0  0  0  0  0  0
  130.9740  117.7090   59.9130 C   0  0  0  0  0  0  0  0  0  0  0  0
  129.7430  117.1000   60.9600 S   0  0  0  0  0  0  0  0  0  0  0  0
  129.6150  118.6530   61.7180 C   0  0  0  0  0  0  0  0  0  0  0  0
  132.1340  123.2800   62.9970 C   0  0  0  0  0  0  0  0  0  0  0  0
  131.3470  122.8330   64.0610 C   0  0  0  0  0  0  0  0  0  0  0  0
  130.7170  123.7490   64.8990 C   0  0  0  0  0  0  0  0  0  0  0  0
  130.8670  125.1180   64.6720 C   0  0  0  0  0  0  0  0  0  0  0  0
  130.2190  126.0200   65.5190 N   0  0  0  0  0  0  0  0  0  0  0  0
  130.4340  125.8440   67.2700 S   0  0  0  0  0  0  0  0  0  0  0  0
  129.2900  127.1820   67.9420 C   0  0  0  0  0  0  0  0  0  0  0  0
  129.9060  124.5300   67.6560 O   0  0  0  0  0  0  0  0  0  0  0  0
  131.8220  126.2130   67.5600 O   0  0  0  0  0  0  0  0  0  0  0  0
  131.6720  125.5700   63.6240 C   0  0  0  0  0  0  0  0  0  0  0  0
  132.3030  124.6540   62.7880 C   0  0  0  0  0  0  0  0  0  0  0  0
  134.7297  123.2064   61.9490 H   0  0  0  0  0  0  0  0  0  0  0  0
  134.3944  122.0417   60.6233 H   0  0  0  0  0  0  0  0  0  0  0  0
  133.6037  123.6546   60.6233 H   0  0  0  0  0  0  0  0  0  0  0  0
  133.1522  121.4779   62.7518 H   0  0  0  0  0  0  0  0  0  0  0  0
  131.7280  122.1530   60.2600 H   0  0  0  0  0  0  0  0  0  0  0  0
  130.6686  121.0799   62.7511 H   0  0  0  0  0  0  0  0  0  0  0  0
  129.6355  121.6843   59.1891 H   0  0  0  0  0  0  0  0  0  0  0  0
  127.6168  123.0285   58.6169 H   0  0  0  0  0  0  0  0  0  0  0  0
  126.8081  123.6124   62.8228 H   0  0  0  0  0  0  0  0  0  0  0  0
  128.8261  122.2686   63.3983 H   0  0  0  0  0  0  0  0  0  0  0  0
  132.0025  119.6163   59.5932 H   0  0  0  0  0  0  0  0  0  0  0  0
  131.4787  117.1083   59.1420 H   0  0  0  0  0  0  0  0  0  0  0  0
  128.9101  118.8652   62.5354 H   0  0  0  0  0  0  0  0  0  0  0  0
  131.2247  121.7541   64.2373 H   0  0  0  0  0  0  0  0  0  0  0  0
  130.1017  123.3943   65.7390 H   0  0  0  0  0  0  0  0  0  0  0  0
  130.4400  126.9680   65.2490 H   0  0  0  0  0  0  0  0  0  0  0  0
  129.3077  127.1612   69.0417 H   0  0  0  0  0  0  0  0  0  0  0  0
  129.6299  128.1666   67.5883 H   0  0  0  0  0  0  0  0  0  0  0  0
  128.2646  126.9993   67.5883 H   0  0  0  0  0  0  0  0  0  0  0  0
  131.8071  126.6492   63.4596 H   0  0  0  0  0  0  0  0  0  0  0  0
  132.9357  125.0100   61.9615 H   0  0  0  0  0  0  0  0  0  0  0  0
  1  2  1  0
  2  3  1  0
  3  4  1  0
  4  5  1  0
  5  6  2  0
  6  7  1  0
  7  8  2  0
  8  9  1  0
  8 10  1  0
 10 11  2  0
  4 12  1  0
 12 13  1  0
 13 14  2  0
 14 15  1  0
 15 16  1  0
  2 17  1  0
 17 18  2  0
 18 19  1  0
 19 20  2  0
 20 21  1  0
 21 22  1  0
 22 23  1  0
 22 24  2  0
 22 25  2  0
 20 26  1  0
 26 27  2  0
 11  5  1  0
 16 12  2  0
 27 17  1  0
  1 28  1  0
  1 29  1  0
  1 30  1  0
  2 31  1  1
  3 32  1  0
  4 33  1  1
  6 34  1  0
  7 35  1  0
 10 36  1  0
 11 37  1  0
 13 38  1  0
 14 39  1  0
 16 40  1  0
 18 41  1  0
 19 42  1  0
 21 43  1  0
 23 44  1  0
 23 45  1  0
 23 46  1  0
 26 47  1  0
 27 48  1  0
M  END
>  <Binding energies>  (1) 
[-7.82]

>  <Ligand effiencies>  (1) 
[-0.2696551724137931]

>  <Interactions>  (1) 
["V-A:ILE:369:CG2:3237, V-B:PRO:540:CA:9855, H-A:GLU:543:OE2:4910, V-B:GLU:543:CB:9878, V-B:ALA:541:CB:9864, V-B:TYR:539:CE2:9848, V-A:TYR:484:CE2:4346, V-B:GLU:543:CG:9879, V-B:TYR:539:C:9839, V-B:VAL:344:CG1:7972, V-A:LEU:475:CD1:4258, V-B:TYR:539:CB:9843, V-A:HIS:383:CE1:3393, V-A:TYR:484:CZ:4347, V-B:PRO:540:CB:9857, V-A:GLU:543:CD:4908, V-B:PRO:540:N:9856, V-A:ILE:369:CD1:3239, V-A:HIS:456:CE1:4070, V-A:PRO:482:CB:4326, V-B:TYR:539:CD2:9846, V-B:GLU:543:CD:9880, V-A:LEU:475:CD2:4259, V-A:ARG:545:CZ:4926, H-A:GLU:543:OE1:4909, V-B:TYR:539:CG:9844, V-A:GLU:543:CB:4906, V-A:HIS:383:CD2:3392, V-A:PRO:482:CG:4327, V-B:PRO:540:C:9853, V-B:ALA:541:CA:9862, V-A:HIS:383:NE2:3394, H-A:HIS:456:ND1:4067, H-A:TYR:484:OH:4348"]

$$$$
ZINC5419904
     RDKit          3D

 57 59  0  0  0  0  0  0  0  0999 V2000
  133.9670  124.0020   57.9520 C   0  0  0  0  0  0  0  0  0  0  0  0
  133.7730  123.7480   59.4360 C   0  0  0  0  0  0  0  0  0  0  0  0
  133.0270  122.6450   59.8590 C   0  0  0  0  0  0  0  0  0  0  0  0
  132.8370  122.4150   61.2190 C   0  0  0  0  0  0  0  0  0  0  0  0
  133.3950  123.2910   62.1480 C   0  0  0  0  0  0  0  0  0  0  0  0
  133.1340  122.9860   63.9200 S   0  0  0  0  0  4  0  0  0  0  0  0
  133.5900  124.2560   64.6430 O   0  0  0  0  0  0  0  0  0  0  0  0
  131.4300  122.9980   63.7220 O   0  0  0  0  0  0  0  0  0  0  0  0
  130.8900  124.2360   63.2710 C   0  0  0  0  0  0  0  0  0  0  0  0
  130.3440  125.0210   64.4620 C   0  0  0  0  0  0  0  0  0  0  0  0
  130.5610  124.5530   65.7580 C   0  0  0  0  0  0  0  0  0  0  0  0
  130.0650  125.2580   66.8510 C   0  0  0  0  0  0  0  0  0  0  0  0
  129.3330  126.4460   66.6790 C   0  0  0  0  0  0  0  0  0  0  0  0
  128.8390  127.1730   67.8000 N   0  0  0  0  0  0  0  0  0  0  0  0
  129.6740  127.3480   68.9890 C   0  0  0  0  0  0  0  0  0  0  0  0
  127.7270  128.1090   67.6360 C   0  0  0  0  0  0  0  0  0  0  0  0
  129.1140  126.8960   65.3650 C   0  0  0  0  0  0  0  0  0  0  0  0
  129.6080  126.1920   64.2720 C   0  0  0  0  0  0  0  0  0  0  0  0
  129.8280  123.9970   62.1960 C   0  0  0  0  0  0  0  0  0  0  0  0
  129.9330  124.6330   60.9600 C   0  0  0  0  0  0  0  0  0  0  0  0
  128.9800  124.4040   59.9710 C   0  0  0  0  0  0  0  0  0  0  0  0
  127.9020  123.5270   60.1890 C   0  0  0  0  0  0  0  0  0  0  0  0
  126.9230  123.2990   59.1800 N   0  0  0  0  0  0  0  0  0  0  0  0
  127.3240  122.7700   57.8750 C   0  0  0  0  0  0  0  0  0  0  0  0
  125.6370  123.9950   59.2360 C   0  0  0  0  0  0  0  0  0  0  0  0
  127.8180  122.8900   61.4390 C   0  0  0  0  0  0  0  0  0  0  0  0
  128.7690  123.1170   62.4280 C   0  0  0  0  0  0  0  0  0  0  0  0
  134.1330  124.4000   61.7340 C   0  0  0  0  0  0  0  0  0  0  0  0
  134.3210  124.6270   60.3730 C   0  0  0  0  0  0  0  0  0  0  0  0
  134.6292  124.8691   57.8119 H   0  0  0  0  0  0  0  0  0  0  0  0
  134.4199  123.1153   57.4844 H   0  0  0  0  0  0  0  0  0  0  0  0
  132.9924  124.2057   57.4844 H   0  0  0  0  0  0  0  0  0  0  0  0
  132.5902  121.9590   59.1183 H   0  0  0  0  0  0  0  0  0  0  0  0
  132.2507  121.5481   61.5576 H   0  0  0  0  0  0  0  0  0  0  0  0
  131.6834  124.8398   62.8063 H   0  0  0  0  0  0  0  0  0  0  0  0
  131.1264  123.6229   65.9170 H   0  0  0  0  0  0  0  0  0  0  0  0
  130.2490  124.8790   67.8671 H   0  0  0  0  0  0  0  0  0  0  0  0
  129.0585  127.2190   69.8915 H   0  0  0  0  0  0  0  0  0  0  0  0
  130.4798  126.5992   68.9846 H   0  0  0  0  0  0  0  0  0  0  0  0
  130.1113  128.3573   68.9846 H   0  0  0  0  0  0  0  0  0  0  0  0
  127.3593  128.4185   68.6254 H   0  0  0  0  0  0  0  0  0  0  0  0
  128.0711  128.9933   67.0796 H   0  0  0  0  0  0  0  0  0  0  0  0
  126.9144  127.6191   67.0796 H   0  0  0  0  0  0  0  0  0  0  0  0
  128.5421  127.8208   65.1986 H   0  0  0  0  0  0  0  0  0  0  0  0
  129.4179  126.5596   63.2528 H   0  0  0  0  0  0  0  0  0  0  0  0
  130.7714  125.3180   60.7654 H   0  0  0  0  0  0  0  0  0  0  0  0
  129.0717  124.9177   59.0026 H   0  0  0  0  0  0  0  0  0  0  0  0
  127.9828  121.9009   58.0184 H   0  0  0  0  0  0  0  0  0  0  0  0
  126.4295  122.4633   57.3131 H   0  0  0  0  0  0  0  0  0  0  0  0
  127.8610  123.5484   57.3131 H   0  0  0  0  0  0  0  0  0  0  0  0
  125.3497  124.1505   60.2864 H   0  0  0  0  0  0  0  0  0  0  0  0
  125.7248  124.9687   58.7319 H   0  0  0  0  0  0  0  0  0  0  0  0
  124.8698  123.3890   58.7319 H   0  0  0  0  0  0  0  0  0  0  0  0
  126.9852  122.1996   61.6386 H   0  0  0  0  0  0  0  0  0  0  0  0
  128.6867  122.6016   63.3963 H   0  0  0  0  0  0  0  0  0  0  0  0
  134.5626  125.0891   62.4760 H   0  0  0  0  0  0  0  0  0  0  0  0
  134.9011  125.4986   60.0358 H   0  0  0  0  0  0  0  0  0  0  0  0
  1  2  1  0
  2  3  2  0
  3  4  1  0
  4  5  2  0
  5  6  1  0
  6  7  2  0
  6  8  1  6
  8  9  1  0
  9 10  1  0
 10 11  2  0
 11 12  1  0
 12 13  2  0
 13 14  1  0
 14 15  1  0
 14 16  1  0
 13 17  1  0
 17 18  2  0
  9 19  1  0
 19 20  2  0
 20 21  1  0
 21 22  2  0
 22 23  1  0
 23 24  1  0
 23 25  1  0
 22 26  1  0
 26 27  2  0
  5 28  1  0
 28 29  2  0
 29  2  1  0
 18 10  1  0
 27 19  1  0
  1 30  1  0
  1 31  1  0
  1 32  1  0
  3 33  1  0
  4 34  1  0
  9 35  1  0
 11 36  1  0
 12 37  1  0
 15 38  1  0
 15 39  1  0
 15 40  1  0
 16 41  1  0
 16 42  1  0
 16 43  1  0
 17 44  1  0
 18 45  1  0
 20 46  1  0
 21 47  1  0
 24 48  1  0
 24 49  1  0
 24 50  1  0
 25 51  1  0
 25 52  1  0
 25 53  1  0
 26 54  1  0
 27 55  1  0
 28 56  1  0
 29 57  1  0
M  END
>  <Binding energies>  (1) 
[-7.14]

>  <Ligand effiencies>  (1) 
[-0.24620689655172412]

>  <Interactions>  (1) 
["V-A:ILE:369:CG2:3237, V-A:ASP:366:CA:3210, V-B:PRO:540:CA:9855, V-A:GLY:454:CA:4049, V-A:ILE:369:CB:3236, V-B:GLU:543:CB:9878, V-B:ALA:541:CB:9864, V-B:TYR:539:CE2:9848, V-A:TYR:484:CE2:4346, V-B:GLU:543:CG:9879, V-B:TYR:539:C:9839, V-A:ASP:366:CG:3213, V-B:TYR:539:CZ:9849, V-A:TYR:484:CZ:4347, V-A:GLU:543:CD:4908, V-B:PRO:540:CB:9857, V-B:HIS:456:CE1:9041, H-A:GLY:454:N:4050, V-B:PRO:540:N:9856, V-A:ILE:369:CD1:3239, V-A:HIS:456:CE1:4070, V-A:ASP:366:C:3208, V-B:TYR:539:CD2:9846, V-B:GLU:543:CD:9880, V-A:ASP:366:CB:3212, V-A:LEU:475:CD2:4259, V-A:GLU:543:CB:4906, V-B:PRO:540:C:9853, H-A:TYR:484:OH:4348"]

$$$$
ZINC5423290
     RDKit          3D

 26 27  0  0  0  0  0  0  0  0999 V2000
  128.7840  126.6410   70.1840 C   0  0  0  0  0  0  0  0  0  0  0  0
  129.3370  126.9670   71.5570 C   0  0  0  0  0  0  0  0  0  0  0  0
  130.0040  128.0550   71.8380 N   0  0  0  0  0  0  0  0  0  0  0  0
  130.3530  127.9770   73.1800 N   0  0  0  0  0  0  0  0  0  0  0  0
  129.8890  126.8480   73.6590 C   0  0  0  0  0  0  0  0  0  0  0  0
  130.2400  126.3480   75.3240 S   0  0  0  0  0  0  0  0  0  0  0  0
  129.1800  126.1600   72.6690 N   0  0  0  0  0  0  0  0  0  0  0  0
  128.5370  124.9280   72.6580 N   0  0  0  0  0  0  0  0  0  0  0  0
  129.1090  123.9550   73.2500 C   0  0  0  0  0  0  0  0  0  0  0  0
  128.5660  122.5920   73.3030 C   0  0  0  0  0  0  0  0  0  0  0  0
  128.3100  122.0080   74.5490 C   0  0  0  0  0  0  0  0  0  0  0  0
  127.7980  120.7150   74.6400 C   0  0  0  0  0  0  0  0  0  0  0  0
  127.5330  119.9870   73.4850 C   0  0  0  0  0  0  0  0  0  0  0  0
  127.7760  120.5390   72.2190 C   0  0  0  0  0  0  0  0  0  0  0  0
  127.4960  119.7620   70.9860 N   0  0  0  0  0  0  0  0  0  0  0  0
  126.8490  118.7230   71.0800 O   0  0  0  0  0  0  0  0  0  0  0  0
  127.9210  120.1860   69.9150 O   0  0  0  0  0  0  0  0  0  0  0  0
  128.2930  121.8430   72.1470 C   0  0  0  0  0  0  0  0  0  0  0  0
  127.8409  126.0850   70.2911 H   0  0  0  0  0  0  0  0  0  0  0  0
  128.5988  127.5744   69.6322 H   0  0  0  0  0  0  0  0  0  0  0  0
  129.5110  126.0270   69.6322 H   0  0  0  0  0  0  0  0  0  0  0  0
  130.0685  124.1483   73.7521 H   0  0  0  0  0  0  0  0  0  0  0  0
  128.5155  122.5767   75.4679 H   0  0  0  0  0  0  0  0  0  0  0  0
  127.6032  120.2696   75.6268 H   0  0  0  0  0  0  0  0  0  0  0  0
  127.1284  118.9673   73.5654 H   0  0  0  0  0  0  0  0  0  0  0  0
  128.4889  122.2886   71.1605 H   0  0  0  0  0  0  0  0  0  0  0  0
  1  2  1  0
  2  3  2  0
  3  4  1  0
  4  5  2  0
  5  6  1  0
  5  7  1  0
  7  8  1  0
  8  9  2  0
  9 10  1  0
 10 11  2  0
 11 12  1  0
 12 13  2  0
 13 14  1  0
 14 15  1  0
 15 16  2  0
 15 17  1  0
 14 18  2  0
  7  2  1  0
 18 10  1  0
  1 19  1  0
  1 20  1  0
  1 21  1  0
  9 22  1  0
 11 23  1  0
 12 24  1  0
 13 25  1  0
 18 26  1  0
M  CHG  3   6  -1  15   1  17  -1
M  END
>  <Binding energies>  (1) 
[-6.56]

>  <Ligand effiencies>  (1) 
[-0.3644444444444444]

>  <Interactions>  (1) 
["V-A:TYR:484:CD2:4344, V-A:HIS:456:CE1:4070, V-B:GLU:543:C:9874, V-A:TYR:484:CG:4342, H-B:LYS:547:NZ:9923, V-B:GLY:544:CA:9886, V-B:LYS:547:CE:9922, H-A:TYR:484:N:4340, V-A:TYR:484:CA:4339, H-A:LYS:547:NZ:4951, V-B:VAL:542:CG1:9871, H-B:GLU:543:N:9877, H-A:SER:483:OG:4334, V-A:TYR:484:CB:4341, V-A:HIS:456:CD2:4068, V-B:VAL:542:C:9866"]

$$$$
ZINC5447873-again1
     RDKit          3D

 40 43  0  0  0  0  0  0  0  0999 V2000
  132.9030  125.4150   59.2240 N   0  0  0  0  0  0  0  0  0  0  0  0
  132.3070  125.0680   60.1530 C   0  0  0  0  0  0  0  0  0  0  0  0
  131.5450  124.6260   61.3450 C   0  0  0  0  0  0  0  0  0  0  0  0
  131.4190  125.8370   62.1790 C   0  0  0  0  0  0  0  0  0  0  0  0
  131.3210  126.7900   62.8290 N   0  0  0  0  0  0  0  0  0  0  0  0
  130.1140  124.0720   60.9840 C   0  0  1  0  0  0  0  0  0  0  0  0
  129.6760  124.2600   59.5030 C   0  0  0  0  0  0  0  0  0  0  0  0
  128.3340  123.5850   59.1750 C   0  0  0  0  0  0  0  0  0  0  0  0
  128.3500  122.0940   59.5490 C   0  0  0  0  0  0  0  0  0  0  0  0
  128.7100  121.8890   61.0330 C   0  0  0  0  0  0  0  0  0  0  0  0
  130.0520  122.5500   61.3730 C   0  0  1  0  0  0  0  0  0  0  0  0
  131.0920  121.8330   60.7170 O   0  0  0  0  0  0  0  0  0  0  0  0
  132.3060  122.3300   61.0780 C   0  0  0  0  0  0  0  0  0  0  0  0
  133.4270  121.7480   60.5160 N   0  0  0  0  0  0  0  0  0  0  0  0
  132.3300  123.4940   62.0750 C   0  0  1  0  0  0  0  0  0  0  0  0
  133.6960  123.9070   62.4660 C   0  0  0  0  0  0  0  0  0  0  0  0
  134.7640  124.2330   62.7730 N   0  0  0  0  0  0  0  0  0  0  0  0
  131.4910  122.9140   63.2600 C   0  0  1  0  0  0  0  0  0  0  0  0
  131.3180  123.8140   64.4880 C   0  0  0  0  0  0  0  0  0  0  0  0
  130.0990  123.8260   65.1750 C   0  0  0  0  0  0  0  0  0  0  0  0
  129.9280  124.6440   66.2880 C   0  0  0  0  0  0  0  0  0  0  0  0
  130.9740  125.4590   66.7130 C   0  0  0  0  0  0  0  0  0  0  0  0
  130.8070  126.2540   67.7950 F   0  0  0  0  0  0  0  0  0  0  0  0
  132.1870  125.4660   66.0320 C   0  0  0  0  0  0  0  0  0  0  0  0
  132.3580  124.6480   64.9180 C   0  0  0  0  0  0  0  0  0  0  0  0
  130.2250  122.4140   62.7740 O   0  0  0  0  0  0  0  0  0  0  0  0
  129.3995  124.6757   61.5629 H   0  0  0  0  0  0  0  0  0  0  0  0
  129.5837  125.3372   59.3003 H   0  0  0  0  0  0  0  0  0  0  0  0
  130.4424  123.7839   58.8738 H   0  0  0  0  0  0  0  0  0  0  0  0
  127.5337  124.0868   59.7387 H   0  0  0  0  0  0  0  0  0  0  0  0
  128.1600  123.6685   58.0921 H   0  0  0  0  0  0  0  0  0  0  0  0
  127.3538  121.6673   59.3604 H   0  0  0  0  0  0  0  0  0  0  0  0
  129.1129  121.5921   58.9358 H   0  0  0  0  0  0  0  0  0  0  0  0
  127.9220  122.3338   61.6584 H   0  0  0  0  0  0  0  0  0  0  0  0
  128.7939  120.8093   61.2259 H   0  0  0  0  0  0  0  0  0  0  0  0
  132.1009  122.0881   63.6548 H   0  0  0  0  0  0  0  0  0  0  0  0
  129.2720  123.1859   64.8338 H   0  0  0  0  0  0  0  0  0  0  0  0
  128.9706  124.6467   66.8296 H   0  0  0  0  0  0  0  0  0  0  0  0
  133.0076  126.1149   66.3720 H   0  0  0  0  0  0  0  0  0  0  0  0
  133.3137  124.6569   64.3735 H   0  0  0  0  0  0  0  0  0  0  0  0
  1  2  3  0
  2  3  1  0
  3  4  1  0
  4  5  3  0
  3  6  1  0
  6  7  1  0
  7  8  1  0
  8  9  1  0
  9 10  1  0
 11 10  1  6
 11 12  1  0
 12 13  1  0
 13 14  2  0
 13 15  1  0
 15 16  1  1
 16 17  3  0
 15 18  1  0
 18 19  1  0
 19 20  2  0
 20 21  1  0
 21 22  2  0
 22 23  1  0
 22 24  1  0
 24 25  2  0
 18 26  1  0
 15  3  1  0
 25 19  1  0
 11  6  1  0
 26 11  1  0
  6 27  1  1
  7 28  1  0
  7 29  1  0
  8 30  1  0
  8 31  1  0
  9 32  1  0
  9 33  1  0
 10 34  1  0
 10 35  1  0
 18 36  1  1
 20 37  1  0
 21 38  1  0
 24 39  1  0
 25 40  1  0
M  CHG  1  14  -1
M  END
>  <Binding energies>  (1) 
[-6.05]

>  <Ligand effiencies>  (1) 
[-0.2326923076923077]

>  <Interactions>  (1) 
["V-A:HIS:456:CE1:4070, V-B:PRO:540:CA:9855, V-B:TYR:539:C:9839, V-B:GLU:543:CB:9878, V-B:TYR:539:CD2:9846, V-A:ARG:545:CZ:4926, V-B:PRO:540:C:9853, V-B:ALA:541:CB:9864, V-A:TYR:484:CZ:4347, V-A:TYR:484:CE2:4346, V-B:TYR:539:CE2:9848, V-A:LEU:475:CD2:4259, H-A:ARG:545:NH2:4928, V-B:GLU:543:CG:9879, V-B:GLU:543:CA:9876, H-A:GLY:454:N:4050, V-A:ASP:366:CG:3213, V-B:PRO:540:N:9856"]

$$$$
ZINC545611104
     RDKit          3D

 33 35  0  0  0  0  0  0  0  0999 V2000
  129.6550  128.2900   72.5020 Br  0  0  0  0  0  0  0  0  0  0  0  0
  129.5360  127.7570   70.6780 C   0  0  0  0  0  0  0  0  0  0  0  0
  128.3150  127.3280   70.1630 C   0  0  0  0  0  0  0  0  0  0  0  0
  128.2260  126.9390   68.8290 C   0  0  0  0  0  0  0  0  0  0  0  0
  129.3600  126.9830   68.0130 C   0  0  0  0  0  0  0  0  0  0  0  0
  129.2670  126.5590   66.5540 C   0  0  0  0  0  0  0  0  0  0  0  0
  130.1260  124.9830   66.2370 S   0  0  0  0  0  0  0  0  0  0  0  0
  131.8750  125.4680   66.3330 C   0  0  0  0  0  0  0  0  0  0  0  0
  132.6350  125.2010   65.0540 C   0  0  0  0  0  0  0  0  0  0  0  0
  132.1650  125.1730   63.8380 N   0  0  0  0  0  0  0  0  0  0  0  0
  133.2380  124.8780   63.1270 C   0  0  0  0  0  0  0  0  0  0  0  0
  133.1870  124.7230   61.6330 C   0  0  0  0  0  0  0  0  0  0  0  0
  133.9930  123.7890   60.9640 C   0  0  0  0  0  0  0  0  0  0  0  0
  133.9810  123.6120   59.6180 N   0  0  0  0  0  0  0  0  0  0  0  0
  133.1400  124.3830   58.8860 C   0  0  0  0  0  0  0  0  0  0  0  0
  132.3010  125.3380   59.4590 C   0  0  0  0  0  0  0  0  0  0  0  0
  131.1430  126.3910   58.3760 Br  0  0  0  0  0  0  0  0  0  0  0  0
  132.3290  125.5050   60.8440 C   0  0  0  0  0  0  0  0  0  0  0  0
  134.3550  124.7250   63.8130 N   0  0  0  0  0  0  0  0  0  0  0  0
  133.9620  124.9420   65.1320 O   0  0  0  0  0  0  0  0  0  0  0  0
  130.5840  127.4090   68.5360 C   0  0  0  0  0  0  0  0  0  0  0  0
  130.6710  127.7980   69.8710 C   0  0  0  0  0  0  0  0  0  0  0  0
  127.4243  127.2966   70.8078 H   0  0  0  0  0  0  0  0  0  0  0  0
  127.2646  126.5975   68.4179 H   0  0  0  0  0  0  0  0  0  0  0  0
  128.2064  126.4443   66.2857 H   0  0  0  0  0  0  0  0  0  0  0  0
  129.7529  127.3360   65.9456 H   0  0  0  0  0  0  0  0  0  0  0  0
  131.9283  126.5443   66.5538 H   0  0  0  0  0  0  0  0  0  0  0  0
  132.3407  124.8619   67.1241 H   0  0  0  0  0  0  0  0  0  0  0  0
  134.6724  123.1655   61.5637 H   0  0  0  0  0  0  0  0  0  0  0  0
  133.1185  124.2497   57.7943 H   0  0  0  0  0  0  0  0  0  0  0  0
  131.6764  126.2521   61.3192 H   0  0  0  0  0  0  0  0  0  0  0  0
  131.4773  127.4371   67.8947 H   0  0  0  0  0  0  0  0  0  0  0  0
  131.6319  128.1361   70.2862 H   0  0  0  0  0  0  0  0  0  0  0  0
  1  2  1  0
  2  3  2  0
  3  4  1  0
  4  5  2  0
  5  6  1  0
  6  7  1  0
  7  8  1  0
  8  9  1  0
  9 10  2  0
 10 11  1  0
 11 12  1  0
 12 13  2  0
 13 14  1  0
 14 15  2  0
 15 16  1  0
 16 17  1  0
 16 18  2  0
 11 19  2  0
 19 20  1  0
  5 21  1  0
 21 22  2  0
 22  2  1  0
 20  9  1  0
 18 12  1  0
  3 23  1  0
  4 24  1  0
  6 25  1  0
  6 26  1  0
  8 27  1  0
  8 28  1  0
 13 29  1  0
 15 30  1  0
 18 31  1  0
 21 32  1  0
 22 33  1  0
M  END
>  <Binding energies>  (1) 
[-8.11]

>  <Ligand effiencies>  (1) 
[-0.3686363636363636]

>  <Interactions>  (1) 
["V-A:ILE:369:CG2:3237, V-A:ASP:366:CA:3210, V-B:GLU:543:C:9874, V-A:GLU:543:C:4902, V-B:GLU:543:CB:9878, H-A:ARG:545:NH1:4927, V-B:TYR:539:CE2:9848, V-B:GLU:543:CG:9879, V-A:ASP:366:CG:3213, V-B:TYR:539:CZ:9849, V-A:GLU:543:CD:4908, V-A:TYR:484:CZ:4347, V-B:HIS:456:CE1:9041, H-A:GLY:454:N:4050, V-A:HIS:456:CE1:4070, V-A:ILE:369:CD1:3239, V-B:GLU:543:CD:9880, V-A:ASP:366:CB:3212, H-A:ARG:545:NH2:4928, V-A:ARG:545:CZ:4926, V-A:GLU:543:CB:4906, H-A:ARG:545:NE:4924, H-A:TYR:484:OH:4348"]

$$$$
ZINC551223552
     RDKit          3D

 41 43  0  0  0  0  0  0  0  0999 V2000
  133.4150  125.1080   65.7550 C   0  0  0  0  0  0  0  0  0  0  0  0
  132.2720  125.2080   64.7250 C   0  0  2  0  0  0  0  0  0  0  0  0
  131.2630  124.2060   65.0870 N   0  0  0  0  0  0  0  0  0  0  0  0
  129.8780  124.6860   65.0900 C   0  0  2  0  0  0  0  0  0  0  0  0
  129.6230  125.3470   63.7230 C   0  0  0  0  0  0  0  0  0  0  0  0
  129.5870  125.6790   66.2110 C   0  0  0  0  0  0  0  0  0  0  0  0
  129.0860  126.9730   66.1020 C   0  0  0  0  0  0  0  0  0  0  0  0
  128.8470  127.6110   67.3200 C   0  0  0  0  0  0  0  0  0  0  0  0
  129.1930  126.8480   68.4300 C   0  0  0  0  0  0  0  0  0  0  0  0
  129.0120  127.1690   69.8860 C   0  0  0  0  0  0  0  0  0  0  0  0
  130.1350  127.6290   70.5890 C   0  0  0  0  0  0  0  0  0  0  0  0
  130.0500  127.9630   71.9400 C   0  0  0  0  0  0  0  0  0  0  0  0
  128.8380  127.8370   72.6130 C   0  0  0  0  0  0  0  0  0  0  0  0
  127.7140  127.3720   71.9340 C   0  0  0  0  0  0  0  0  0  0  0  0
  127.7940  127.0380   70.5810 C   0  0  0  0  0  0  0  0  0  0  0  0
  126.6820  126.5670   69.9710 F   0  0  0  0  0  0  0  0  0  0  0  0
  129.8480  125.3220   67.9030 S   0  0  0  0  0  0  0  0  0  0  0  0
  132.7780  125.0410   63.2870 C   0  0  0  0  0  0  0  0  0  0  0  0
  132.0930  125.7200   62.3270 N   0  0  0  0  0  0  0  0  0  0  0  0
  132.4670  125.4820   61.0420 C   0  0  0  0  0  0  0  0  0  0  0  0
  133.4960  124.5960   60.7150 C   0  0  0  0  0  0  0  0  0  0  0  0
  133.9680  124.2480   58.9050 Br  0  0  0  0  0  0  0  0  0  0  0  0
  134.1560  123.9690   61.7730 C   0  0  0  0  0  0  0  0  0  0  0  0
  133.8120  124.1780   63.0710 N   0  0  0  0  0  0  0  0  0  0  0  0
  132.9966  125.1446   66.7717 H   0  0  0  0  0  0  0  0  0  0  0  0
  133.9536  124.1593   65.6141 H   0  0  0  0  0  0  0  0  0  0  0  0
  134.1102  125.9488   65.6141 H   0  0  0  0  0  0  0  0  0  0  0  0
  131.8225  126.2116   64.7519 H   0  0  0  0  0  0  0  0  0  0  0  0
  131.4850  123.7950   65.9820 H   0  0  0  0  0  0  0  0  0  0  0  0
  129.2092  123.8306   65.2662 H   0  0  0  0  0  0  0  0  0  0  0  0
  129.2309  126.3635   63.8747 H   0  0  0  0  0  0  0  0  0  0  0  0
  130.5659  125.3981   63.1588 H   0  0  0  0  0  0  0  0  0  0  0  0
  128.8900  124.7516   63.1588 H   0  0  0  0  0  0  0  0  0  0  0  0
  128.8936  127.4549   65.1321 H   0  0  0  0  0  0  0  0  0  0  0  0
  128.4241  128.6237   67.3951 H   0  0  0  0  0  0  0  0  0  0  0  0
  131.0979  127.7278   70.0664 H   0  0  0  0  0  0  0  0  0  0  0  0
  130.9406  128.3260   72.4740 H   0  0  0  0  0  0  0  0  0  0  0  0
  128.7680  128.1038   73.6778 H   0  0  0  0  0  0  0  0  0  0  0  0
  126.7576  127.2674   72.4673 H   0  0  0  0  0  0  0  0  0  0  0  0
  131.9404  126.0059   60.2307 H   0  0  0  0  0  0  0  0  0  0  0  0
  134.9843  123.2810   61.5481 H   0  0  0  0  0  0  0  0  0  0  0  0
  1  2  1  0
  2  3  1  0
  3  4  1  0
  4  5  1  0
  4  6  1  0
  6  7  2  0
  7  8  1  0
  8  9  2  0
  9 10  1  0
 10 11  2  0
 11 12  1  0
 12 13  2  0
 13 14  1  0
 14 15  2  0
 15 16  1  0
  9 17  1  0
  2 18  1  0
 18 19  2  0
 19 20  1  0
 20 21  2  0
 21 22  1  0
 21 23  1  0
 23 24  2  0
 17  6  1  0
 24 18  1  0
 15 10  1  0
  1 25  1  0
  1 26  1  0
  1 27  1  0
  2 28  1  6
  3 29  1  0
  4 30  1  1
  5 31  1  0
  5 32  1  0
  5 33  1  0
  7 34  1  0
  8 35  1  0
 11 36  1  0
 12 37  1  0
 13 38  1  0
 14 39  1  0
 20 40  1  0
 23 41  1  0
M  END
>  <Binding energies>  (1) 
[-7.52]

>  <Ligand effiencies>  (1) 
[-0.30079999999999996]

>  <Interactions>  (1) 
["V-A:ILE:369:CG2:3237, V-A:ASP:366:CA:3210, V-B:GLU:543:C:9874, V-A:ILE:369:CB:3236, V-B:HIS:456:CD2:9039, V-B:GLU:543:CB:9878, V-A:TYR:484:CE2:4346, V-B:GLU:543:CG:9879, V-A:ASP:366:CG:3213, V-A:GLU:543:CD:4908, V-A:ARG:545:CG:4922, H-A:GLY:454:N:4050, V-B:GLU:543:CA:9876, V-B:HIS:456:CE1:9041, V-A:ILE:369:CD1:3239, V-A:HIS:456:CE1:4070, V-A:ASP:366:C:3208, V-B:GLY:544:C:9884, V-B:GLY:544:CA:9886, V-B:GLU:543:CD:9880, V-B:HIS:456:CG:9037, V-A:ASP:366:CB:3212, V-A:ARG:545:CD:4923, H-A:ARG:545:NH2:4928, V-A:ARG:545:CZ:4926, V-A:GLU:543:CB:4906, H-A:TYR:484:OH:4348"]

$$$$
ZINC5574401
     RDKit          3D

 40 39  0  0  0  0  0  0  0  0999 V2000
  133.6430  122.6860   61.3690 C   0  0  0  0  0  0  0  0  0  0  0  0
  132.8880  123.8520   60.7240 C   0  0  0  0  0  0  0  0  0  0  0  0
  133.7180  124.4720   59.7490 O   0  0  0  0  0  0  0  0  0  0  0  0
  133.2900  124.6390   58.4770 C   0  0  0  0  0  0  0  0  0  0  0  0
  133.6330  123.9240   57.5310 O   0  0  0  0  0  0  0  0  0  0  0  0
  132.3790  125.7870   58.3640 C   0  0  0  0  0  0  0  0  0  0  0  0
  131.0200  125.7640   58.3510 C   0  0  0  0  0  0  0  0  0  0  0  0
  130.2570  127.0910   58.2090 C   0  0  0  0  0  0  0  0  0  0  0  0
  130.3150  124.5990   58.4700 N   0  0  0  0  0  0  0  0  0  0  0  0
  129.3430  124.5830   59.2870 N   0  0  0  0  0  0  0  0  0  0  0  0
  128.6610  123.3000   59.3330 C   0  0  2  0  0  0  0  0  0  0  0  0
  127.4990  123.2690   58.3070 C   0  0  0  0  0  0  0  0  0  0  0  0
  127.6930  122.2920   57.1300 C   0  0  0  0  0  0  0  0  0  0  0  0
  126.4520  122.0850   56.4690 O   0  0  0  0  0  0  0  0  0  0  0  0
  125.3850  122.8410   57.0190 C   0  0  0  0  0  0  0  0  0  0  0  0
  128.1910  123.0310   60.7780 C   0  0  0  0  0  0  0  0  0  0  0  0
  128.6980  121.7900   61.2560 O   0  0  0  0  0  0  0  0  0  0  0  0
  130.0460  121.5470   60.8820 C   0  0  0  0  0  0  0  0  0  0  0  0
  133.5864  122.7735   62.4641 H   0  0  0  0  0  0  0  0  0  0  0  0
  133.1886  121.7354   61.0531 H   0  0  0  0  0  0  0  0  0  0  0  0
  134.6964  122.7117   61.0531 H   0  0  0  0  0  0  0  0  0  0  0  0
  131.9741  123.4752   60.2416 H   0  0  0  0  0  0  0  0  0  0  0  0
  132.6180  124.5867   61.4968 H   0  0  0  0  0  0  0  0  0  0  0  0
  132.8506  126.7772   58.2805 H   0  0  0  0  0  0  0  0  0  0  0  0
  130.0273  127.4906   59.2078 H   0  0  0  0  0  0  0  0  0  0  0  0
  130.8775  127.8137   57.6588 H   0  0  0  0  0  0  0  0  0  0  0  0
  129.3203  126.9183   57.6588 H   0  0  0  0  0  0  0  0  0  0  0  0
  129.3489  122.4906   59.0472 H   0  0  0  0  0  0  0  0  0  0  0  0
  126.5807  122.9822   58.8404 H   0  0  0  0  0  0  0  0  0  0  0  0
  127.4524  124.2755   57.8657 H   0  0  0  0  0  0  0  0  0  0  0  0
  128.4193  122.7146   56.4201 H   0  0  0  0  0  0  0  0  0  0  0  0
  128.0664  121.3307   57.5126 H   0  0  0  0  0  0  0  0  0  0  0  0
  125.4373  122.8039   58.1171 H   0  0  0  0  0  0  0  0  0  0  0  0
  125.4644  123.8855   56.6832 H   0  0  0  0  0  0  0  0  0  0  0  0
  124.4259  122.4198   56.6832 H   0  0  0  0  0  0  0  0  0  0  0  0
  128.5497  123.8413   61.4298 H   0  0  0  0  0  0  0  0  0  0  0  0
  127.0919  122.9876   60.7869 H   0  0  0  0  0  0  0  0  0  0  0  0
  130.6629  121.4358   61.7859 H   0  0  0  0  0  0  0  0  0  0  0  0
  130.1004  120.6246   60.2852 H   0  0  0  0  0  0  0  0  0  0  0  0
  130.4190  122.3924   60.2852 H   0  0  0  0  0  0  0  0  0  0  0  0
  1  2  1  0
  2  3  1  0
  3  4  1  0
  4  5  2  0
  4  6  1  0
  6  7  2  0
  7  8  1  0
  7  9  1  0
  9 10  2  0
 10 11  1  0
 11 12  1  0
 12 13  1  0
 13 14  1  0
 14 15  1  0
 11 16  1  0
 16 17  1  0
 17 18  1  0
  1 19  1  0
  1 20  1  0
  1 21  1  0
  2 22  1  0
  2 23  1  0
  6 24  1  0
  8 25  1  0
  8 26  1  0
  8 27  1  0
 11 28  1  6
 12 29  1  0
 12 30  1  0
 13 31  1  0
 13 32  1  0
 15 33  1  0
 15 34  1  0
 15 35  1  0
 16 36  1  0
 16 37  1  0
 18 38  1  0
 18 39  1  0
 18 40  1  0
M  END
>  <Binding energies>  (1) 
[-4.02]

>  <Ligand effiencies>  (1) 
[-0.2233333333333333]

>  <Interactions>  (1) 
["V-A:ILE:369:CG2:3237, V-A:ASP:366:CA:3210, V-B:PRO:540:CA:9855, V-B:TYR:539:CA:9841, V-B:TYR:539:CE2:9848, H-B:TYR:539:N:9842, V-B:TYR:539:C:9839, V-A:ASP:366:CG:3213, V-B:TYR:539:CZ:9849, H-A:ASN:370:N:3244, H-B:TYR:539:OH:9850, H-B:ALA:541:N:9863, V-B:PRO:540:CB:9857, V-B:PRO:540:N:9856, V-A:ILE:369:CD1:3239, V-A:ASP:366:C:3208, V-B:TYR:539:CD2:9846, V-B:PRO:540:CD:9859, V-A:ASP:366:CB:3212, V-B:TYR:539:CG:9844, V-B:TYR:539:CD1:9845, V-B:PRO:540:CG:9858, V-B:LEU:363:CD1:8160, V-B:MET:535:CE:9807, V-B:TYR:539:CE1:9847"]

$$$$
ZINC5597162
     RDKit          3D

 35 36  0  0  0  0  0  0  0  0999 V2000
  133.9710  121.9260   62.4630 C   0  0  0  0  0  0  0  0  0  0  0  0
  133.9730  123.7170   62.7360 S   0  0  0  0  0  0  0  0  0  0  0  0
  133.3420  124.4290   61.2350 C   0  0  0  0  0  0  0  0  0  0  0  0
  133.8830  123.9590   60.0340 C   0  0  0  0  0  0  0  0  0  0  0  0
  133.4440  124.4690   58.8150 C   0  0  0  0  0  0  0  0  0  0  0  0
  133.9920  124.0000   57.6220 N   0  0  0  0  0  0  0  0  0  0  0  0
  132.4560  125.4480   58.7950 C   0  0  0  0  0  0  0  0  0  0  0  0
  131.9120  125.9120   59.9920 C   0  0  0  0  0  0  0  0  0  0  0  0
  132.3340  125.4180   61.2460 C   0  0  0  0  0  0  0  0  0  0  0  0
  131.8030  125.8480   62.4800 N   0  0  0  0  0  0  0  0  0  0  0  0
  130.9120  125.1120   63.0110 N   0  0  0  0  0  0  0  0  0  0  0  0
  130.3890  125.5660   64.2370 C   0  0  0  0  0  0  0  0  0  0  0  0
  129.4850  126.6320   64.1850 C   0  0  0  0  0  0  0  0  0  0  0  0
  128.9150  127.1580   65.3410 C   0  0  0  0  0  0  0  0  0  0  0  0
  129.2470  126.6190   66.5830 C   0  0  0  0  0  0  0  0  0  0  0  0
  128.5070  127.2950   68.0680 S   0  0  0  0  0  0  0  0  0  0  0  0
  126.8170  127.5040   67.6580 N   0  0  0  0  0  0  0  0  0  0  0  0
  128.5890  126.2700   69.1150 O   0  0  0  0  0  0  0  0  0  0  0  0
  129.0820  128.6300   68.2710 O   0  0  0  0  0  0  0  0  0  0  0  0
  130.1410  125.5530   66.6640 C   0  0  0  0  0  0  0  0  0  0  0  0
  130.7060  125.0340   65.5030 C   0  0  0  0  0  0  0  0  0  0  0  0
  133.9704  121.4072   63.4330 H   0  0  0  0  0  0  0  0  0  0  0  0
  133.0725  121.6427   61.8951 H   0  0  0  0  0  0  0  0  0  0  0  0
  134.8688  121.6407   61.8951 H   0  0  0  0  0  0  0  0  0  0  0  0
  134.6606  123.1812   60.0525 H   0  0  0  0  0  0  0  0  0  0  0  0
  134.0750  123.0050   57.4700 H   0  0  0  0  0  0  0  0  0  0  0  0
  134.2900  124.6610   56.9200 H   0  0  0  0  0  0  0  0  0  0  0  0
  132.1042  125.8557   57.8358 H   0  0  0  0  0  0  0  0  0  0  0  0
  131.1309  126.6858   59.9587 H   0  0  0  0  0  0  0  0  0  0  0  0
  129.2186  127.0642   63.2092 H   0  0  0  0  0  0  0  0  0  0  0  0
  128.2053  127.9958   65.2747 H   0  0  0  0  0  0  0  0  0  0  0  0
  126.6480  128.1090   66.8500 H   0  0  0  0  0  0  0  0  0  0  0  0
  126.2760  126.6350   67.6310 H   0  0  0  0  0  0  0  0  0  0  0  0
  130.3993  125.1230   67.6430 H   0  0  0  0  0  0  0  0  0  0  0  0
  131.4124  124.1938   65.5746 H   0  0  0  0  0  0  0  0  0  0  0  0
  1  2  1  0
  2  3  1  0
  3  4  2  0
  4  5  1  0
  5  6  1  0
  5  7  2  0
  7  8  1  0
  8  9  2  0
  9 10  1  0
 10 11  2  0
 11 12  1  0
 12 13  2  0
 13 14  1  0
 14 15  2  0
 15 16  1  0
 16 17  1  0
 16 18  2  0
 16 19  2  0
 15 20  1  0
 20 21  2  0
  9  3  1  0
 21 12  1  0
  1 22  1  0
  1 23  1  0
  1 24  1  0
  4 25  1  0
  6 26  1  0
  6 27  1  0
  7 28  1  0
  8 29  1  0
 13 30  1  0
 14 31  1  0
 17 32  1  0
 17 33  1  0
 20 34  1  0
 21 35  1  0
M  END
>  <Binding energies>  (1) 
[-6.23]

>  <Ligand effiencies>  (1) 
[-0.2492]

>  <Interactions>  (1) 
["V-A:ILE:369:CG2:3237, V-A:ASP:366:CA:3210, V-A:GLY:454:CA:4049, V-A:ILE:369:C:3232, V-A:ILE:369:CB:3236, V-B:GLU:543:CB:9878, V-B:TYR:539:CE2:9848, V-A:ASN:370:CB:3245, V-B:GLU:543:CG:9879, V-A:ASP:366:CG:3213, V-B:TYR:539:CZ:9849, H-B:TYR:539:OH:9850, V-A:GLU:543:CD:4908, V-B:HIS:456:CE1:9041, H-A:GLY:454:N:4050, V-A:HIS:456:CE1:4070, V-A:ILE:369:CD1:3239, V-A:ASP:366:C:3208, V-A:ASN:370:CA:3243, V-B:GLU:543:CD:9880, V-A:ASP:366:CB:3212, V-A:LEU:475:CD2:4259, H-A:ARG:545:NH2:4928, H-A:ASP:366:O:3209, H-B:GLU:543:OE2:9882"]

$$$$
ZINC561348
     RDKit          3D

 31 32  0  0  0  0  0  0  0  0999 V2000
  132.4290  125.4250   62.1030 N   0  0  0  0  0  0  0  0  0  0  0  0
  132.9160  124.9680   63.2610 C   0  0  0  0  0  0  0  0  0  0  0  0
  133.9790  124.3490   63.3050 O   0  0  0  0  0  0  0  0  0  0  0  0
  132.0970  125.2210   64.5090 C   0  0  0  0  0  0  0  0  0  0  0  0
  132.7430  125.4410   65.7320 C   0  0  0  0  0  0  0  0  0  0  0  0
  132.0080  125.6770   66.8900 C   0  0  0  0  0  0  0  0  0  0  0  0
  130.6100  125.6800   66.8750 C   0  0  0  0  0  0  0  0  0  0  0  0
  129.9370  125.9960   68.0670 N   0  0  0  0  0  0  0  0  0  0  0  0
  130.2460  127.0220   68.7590 C   0  0  0  0  0  0  0  0  0  0  0  0
  129.5850  127.3940   70.0160 C   0  0  0  0  0  0  0  0  0  0  0  0
  128.3630  126.7970   70.3530 C   0  0  0  0  0  0  0  0  0  0  0  0
  127.7060  127.1270   71.5380 C   0  0  0  0  0  0  0  0  0  0  0  0
  128.2620  128.0620   72.4110 C   0  0  0  0  0  0  0  0  0  0  0  0
  127.5960  128.3700   73.5720 O   0  0  0  0  0  0  0  0  0  0  0  0
  129.4830  128.6680   72.0930 C   0  0  0  0  0  0  0  0  0  0  0  0
  130.0550  129.5920   72.9330 O   0  0  0  0  0  0  0  0  0  0  0  0
  130.1340  128.3330   70.9050 C   0  0  0  0  0  0  0  0  0  0  0  0
  129.9680  125.5000   65.6380 C   0  0  0  0  0  0  0  0  0  0  0  0
  130.6950  125.2610   64.4760 C   0  0  0  0  0  0  0  0  0  0  0  0
  132.9390  125.2680   61.2450 H   0  0  0  0  0  0  0  0  0  0  0  0
  131.5540  125.9260   62.0770 H   0  0  0  0  0  0  0  0  0  0  0  0
  133.8420  125.4271   65.7777 H   0  0  0  0  0  0  0  0  0  0  0  0
  132.5374  125.8649   67.8357 H   0  0  0  0  0  0  0  0  0  0  0  0
  131.0573  127.6675   68.3915 H   0  0  0  0  0  0  0  0  0  0  0  0
  127.9154  126.0573   69.6730 H   0  0  0  0  0  0  0  0  0  0  0  0
  126.7467  126.6486   71.7849 H   0  0  0  0  0  0  0  0  0  0  0  0
  128.0220  129.0670   74.0760 H   0  0  0  0  0  0  0  0  0  0  0  0
  130.2180  130.4350   72.5060 H   0  0  0  0  0  0  0  0  0  0  0  0
  131.0934  128.8124   70.6605 H   0  0  0  0  0  0  0  0  0  0  0  0
  128.8703  125.5490   65.5874 H   0  0  0  0  0  0  0  0  0  0  0  0
  130.1666  125.1022   63.5244 H   0  0  0  0  0  0  0  0  0  0  0  0
  1  2  1  0
  2  3  2  0
  2  4  1  0
  4  5  2  0
  5  6  1  0
  6  7  2  0
  7  8  1  0
  8  9  2  0
  9 10  1  0
 10 11  2  0
 11 12  1  0
 12 13  2  0
 13 14  1  0
 13 15  1  0
 15 16  1  0
 15 17  2  0
  7 18  1  0
 18 19  2  0
 19  4  1  0
 17 10  1  0
  1 20  1  0
  1 21  1  0
  5 22  1  0
  6 23  1  0
  9 24  1  0
 11 25  1  0
 12 26  1  0
 14 27  1  0
 16 28  1  0
 17 29  1  0
 18 30  1  0
 19 31  1  0
M  END
>  <Binding energies>  (1) 
[-5.77]

>  <Ligand effiencies>  (1) 
[-0.2508695652173913]

>  <Interactions>  (1) 
["V-B:GLU:543:C:9874, V-B:HIS:456:CD2:9039, V-A:GLU:543:C:4902, V-B:GLU:543:CB:9878, H-B:LYS:547:NZ:9923, V-B:GLU:543:CG:9879, V-A:GLY:544:C:4912, V-A:ASP:366:CG:3213, V-A:TYR:484:CZ:4347, V-A:ARG:545:CG:4922, V-B:HIS:456:CE1:9041, H-A:GLY:454:N:4050, V-A:HIS:456:CE1:4070, V-B:GLY:544:C:9884, V-B:GLU:543:CD:9880, V-B:HIS:456:CG:9037, V-A:ARG:545:CD:4923, H-A:LYS:547:NZ:4951, H-A:ARG:545:NH2:4928, V-A:ARG:545:CZ:4926, V-A:GLU:543:CB:4906, H-A:ASP:366:OD1:3214, H-A:GLY:544:O:4913, H-A:GLU:543:O:4903"]

$$$$
ZINC566838084
     RDKit          3D

 37 36  0  0  0  0  0  0  0  0999 V2000
  129.9170  117.6600   61.3000 C   0  0  0  0  0  0  0  0  0  0  0  0
  130.9500  118.5040   60.5340 C   0  0  0  0  0  0  0  0  0  0  0  0
  131.1040  119.9640   61.0330 C   0  0  2  0  0  0  0  0  0  0  0  0
  129.9340  120.7950   60.7160 N   0  0  0  0  0  0  0  0  0  0  0  0
  129.3170  121.6470   61.5550 C   0  0  0  0  0  0  0  0  0  0  0  0
  129.6780  121.8370   62.7170 O   0  0  0  0  0  0  0  0  0  0  0  0
  128.1030  122.4100   60.9820 C   0  0  1  0  0  0  0  0  0  0  0  0
  128.2760  123.9280   61.1660 C   0  0  0  0  0  0  0  0  0  0  0  0
  127.9810  122.1730   59.5780 O   0  0  0  0  0  0  0  0  0  0  0  0
  127.4420  123.2460   58.8070 C   0  0  0  0  0  0  0  0  0  0  0  0
  127.4400  122.8660   57.3110 C   0  0  0  0  0  0  0  0  0  0  0  0
  128.0390  123.9760   56.4270 C   0  0  0  0  0  0  0  0  0  0  0  0
  126.0260  122.4830   56.8360 C   0  0  0  0  0  0  0  0  0  0  0  0
  132.3950  120.6190   60.4950 C   0  0  0  0  0  0  0  0  0  0  0  0
  132.2460  121.9100   60.1940 F   0  0  0  0  0  0  0  0  0  0  0  0
  133.4310  120.4990   61.3260 F   0  0  0  0  0  0  0  0  0  0  0  0
  130.0707  117.7856   62.3819 H   0  0  0  0  0  0  0  0  0  0  0  0
  128.9025  117.9910   61.0329 H   0  0  0  0  0  0  0  0  0  0  0  0
  130.0391  116.5999   61.0329 H   0  0  0  0  0  0  0  0  0  0  0  0
  131.9281  118.0085   60.6221 H   0  0  0  0  0  0  0  0  0  0  0  0
  130.5852  118.5703   59.4984 H   0  0  0  0  0  0  0  0  0  0  0  0
  131.1776  119.9047   62.1289 H   0  0  0  0  0  0  0  0  0  0  0  0
  129.5890  120.7250   59.7700 H   0  0  0  0  0  0  0  0  0  0  0  0
  127.2128  122.0526   61.5203 H   0  0  0  0  0  0  0  0  0  0  0  0
  128.3032  124.1665   62.2395 H   0  0  0  0  0  0  0  0  0  0  0  0
  129.2166  124.2496   60.6950 H   0  0  0  0  0  0  0  0  0  0  0  0
  127.4319  124.4530   60.6950 H   0  0  0  0  0  0  0  0  0  0  0  0
  126.4113  123.4485   59.1336 H   0  0  0  0  0  0  0  0  0  0  0  0
  128.0604  124.1440   58.9526 H   0  0  0  0  0  0  0  0  0  0  0  0
  128.0885  121.9839   57.2043 H   0  0  0  0  0  0  0  0  0  0  0  0
  128.4643  124.7641   57.0658 H   0  0  0  0  0  0  0  0  0  0  0  0
  128.8307  123.5518   55.7919 H   0  0  0  0  0  0  0  0  0  0  0  0
  127.2499  124.4049   55.7919 H   0  0  0  0  0  0  0  0  0  0  0  0
  125.3806  122.3082   57.7094 H   0  0  0  0  0  0  0  0  0  0  0  0
  125.6089  123.3005   56.2296 H   0  0  0  0  0  0  0  0  0  0  0  0
  126.0785  121.5667   56.2296 H   0  0  0  0  0  0  0  0  0  0  0  0
  132.6061  120.0580   59.5727 H   0  0  0  0  0  0  0  0  0  0  0  0
  1  2  1  0
  2  3  1  0
  3  4  1  0
  4  5  1  0
  5  6  2  0
  5  7  1  0
  7  8  1  0
  7  9  1  0
  9 10  1  0
 10 11  1  0
 11 12  1  0
 11 13  1  0
  3 14  1  0
 14 15  1  0
 14 16  1  0
  1 17  1  0
  1 18  1  0
  1 19  1  0
  2 20  1  0
  2 21  1  0
  3 22  1  1
  4 23  1  0
  7 24  1  1
  8 25  1  0
  8 26  1  0
  8 27  1  0
 10 28  1  0
 10 29  1  0
 11 30  1  0
 12 31  1  0
 12 32  1  0
 12 33  1  0
 13 34  1  0
 13 35  1  0
 13 36  1  0
 14 37  1  0
M  END
>  <Binding energies>  (1) 
[-3.81]

>  <Ligand effiencies>  (1) 
[-0.22411764705882353]

>  <Interactions>  (1) 
["V-A:ILE:369:CG2:3237, V-B:PRO:540:CA:9855, V-B:ALA:541:CB:9864, V-B:TYR:539:CE2:9848, V-B:TYR:539:C:9839, V-B:TYR:539:CZ:9849, V-B:PRO:540:CB:9857, V-A:SER:385:C:3405, V-A:HIS:383:NE2:3394, V-B:PRO:540:N:9856, V-A:PRO:482:CB:4326, V-B:TYR:539:CD2:9846, V-B:PRO:540:CD:9859, V-A:SER:385:CB:3409, V-A:LEU:475:CD2:4259, V-B:TYR:539:CG:9844, V-B:TYR:539:CD1:9845, V-A:PRO:482:CG:4327, H-B:TYR:539:O:9840, V-A:SER:385:CA:3407, V-B:PRO:540:C:9853, V-B:TYR:539:CE1:9847"]

$$$$
ZINC56908314-again1
     RDKit          3D

 28 29  0  0  0  0  0  0  0  0999 V2000
  133.5570  124.0090   58.9690 N   0  0  0  0  0  0  0  0  0  0  0  0
  133.4210  124.1850   60.1050 C   0  0  0  0  0  0  0  0  0  0  0  0
  133.2500  124.4080   61.5290 C   0  0  0  0  0  0  0  0  0  0  0  0
  133.9980  123.9270   62.6010 C   0  0  0  0  0  0  0  0  0  0  0  0
  133.6040  124.2970   63.8030 N   0  0  0  0  0  0  0  0  0  0  0  0
  132.5460  125.0760   63.7470 C   0  0  0  0  0  0  0  0  0  0  0  0
  131.8570  125.6560   64.8040 N   0  0  0  0  0  0  0  0  0  0  0  0
  130.8390  125.1060   65.4970 C   0  0  0  0  0  0  0  0  0  0  0  0
  130.3550  123.9890   65.2930 O   0  0  0  0  0  0  0  0  0  0  0  0
  130.4180  125.9300   66.4700 N   0  0  0  0  0  0  0  0  0  0  0  0
  129.5060  125.5630   67.5540 C   0  0  0  0  0  0  0  0  0  0  0  0
  129.4920  126.5450   68.7190 C   0  0  0  0  0  0  0  0  0  0  0  0
  128.3810  126.6040   69.5670 C   0  0  0  0  0  0  0  0  0  0  0  0
  128.3760  127.4820   70.6470 C   0  0  0  0  0  0  0  0  0  0  0  0
  129.4850  128.2930   70.8840 C   0  0  0  0  0  0  0  0  0  0  0  0
  129.4800  129.1450   71.9340 F   0  0  0  0  0  0  0  0  0  0  0  0
  130.6010  128.2280   70.0520 C   0  0  0  0  0  0  0  0  0  0  0  0
  130.6060  127.3500   68.9710 C   0  0  0  0  0  0  0  0  0  0  0  0
  131.9630  125.4020   62.1470 S   0  0  0  0  0  0  0  0  0  0  0  0
  134.8704  123.2737   62.4524 H   0  0  0  0  0  0  0  0  0  0  0  0
  132.1580  126.5810   65.0710 H   0  0  0  0  0  0  0  0  0  0  0  0
  130.8200  126.8550   66.5240 H   0  0  0  0  0  0  0  0  0  0  0  0
  128.4878  125.5020   67.1422 H   0  0  0  0  0  0  0  0  0  0  0  0
  129.8623  124.6026   67.9549 H   0  0  0  0  0  0  0  0  0  0  0  0
  127.5115  125.9566   69.3803 H   0  0  0  0  0  0  0  0  0  0  0  0
  127.5006  127.5358   71.3109 H   0  0  0  0  0  0  0  0  0  0  0  0
  131.4743  128.8675   70.2483 H   0  0  0  0  0  0  0  0  0  0  0  0
  131.4872  127.2902   68.3153 H   0  0  0  0  0  0  0  0  0  0  0  0
  1  2  3  0
  2  3  1  0
  3  4  2  0
  4  5  1  0
  5  6  2  0
  6  7  1  0
  7  8  1  0
  8  9  2  0
  8 10  1  0
 10 11  1  0
 11 12  1  0
 12 13  2  0
 13 14  1  0
 14 15  2  0
 15 16  1  0
 15 17  1  0
 17 18  2  0
  6 19  1  0
 19  3  1  0
 18 12  1  0
  4 20  1  0
  7 21  1  0
 10 22  1  0
 11 23  1  0
 11 24  1  0
 13 25  1  0
 14 26  1  0
 17 27  1  0
 18 28  1  0
M  END
>  <Binding energies>  (1) 
[-6.59]

>  <Ligand effiencies>  (1) 
[-0.3138095238095238]

>  <Interactions>  (1) 
["V-A:ILE:369:CG2:3237, V-A:GLY:454:CA:4049, V-B:GLU:543:C:9874, H-A:GLU:543:OE2:4910, V-B:HIS:456:CD2:9039, V-A:GLU:543:C:4902, V-B:GLU:543:CB:9878, V-B:GLU:543:CG:9879, V-A:GLY:544:C:4912, V-A:ASP:366:CG:3213, H-B:TYR:539:OH:9850, V-A:GLU:543:CD:4908, V-B:HIS:456:CE1:9041, V-B:GLU:543:CA:9876, H-A:GLY:454:N:4050, V-A:HIS:456:CE1:4070, V-A:ILE:369:CD1:3239, V-A:ARG:545:CZ:4926, H-A:GLU:543:OE1:4909, V-A:GLU:543:CB:4906, H-A:TYR:484:OH:4348"]

$$$$
ZINC5719546
     RDKit          3D

 37 38  0  0  0  0  0  0  0  0999 V2000
  130.7420  125.4590   67.1870 C   0  0  0  0  0  0  0  0  0  0  0  0
  130.8420  124.7770   65.8080 N   0  0  0  0  0  0  0  0  0  0  0  0
  129.8460  123.6060   65.7070 C   0  0  0  0  0  0  0  0  0  0  0  0
  130.6900  125.7480   64.6130 C   0  0  0  0  0  0  0  0  0  0  0  0
  129.5380  125.3260   63.6710 C   0  0  0  0  0  0  0  0  0  0  0  0
  129.9830  125.1210   62.3310 O   0  0  0  0  0  0  0  0  0  0  0  0
  130.7310  124.0480   61.9800 C   0  0  0  0  0  0  0  0  0  0  0  0
  130.3750  122.8700   62.0670 O   0  0  0  0  0  0  0  0  0  0  0  0
  132.1160  124.4740   61.4270 C   0  0  1  0  0  0  0  0  0  0  0  0
  133.3400  124.4010   62.4260 C   0  0  1  0  0  0  0  0  0  0  0  0
  133.1510  123.9960   63.9240 C   0  0  0  0  0  0  0  0  0  0  0  0
  132.4410  123.0020   64.2030 O   0  0  0  0  0  0  0  0  0  0  0  0
  133.6900  124.7230   64.7900 O   0  0  0  0  0  0  0  0  0  0  0  0
  134.3770  123.6040   61.5610 C   0  0  1  0  0  0  0  0  0  0  0  0
  133.9220  122.1560   61.4000 C   0  0  0  0  0  0  0  0  0  0  0  0
  132.8450  122.1770   60.5890 C   0  0  0  0  0  0  0  0  0  0  0  0
  132.6110  123.6380   60.2030 C   0  0  2  0  0  0  0  0  0  0  0  0
  134.0690  124.0670   60.1410 C   0  0  0  0  0  0  0  0  0  0  0  0
  130.8528  124.7034   67.9787 H   0  0  0  0  0  0  0  0  0  0  0  0
  131.5396  126.2104   67.2831 H   0  0  0  0  0  0  0  0  0  0  0  0
  129.7623  125.9498   67.2831 H   0  0  0  0  0  0  0  0  0  0  0  0
  131.7660  124.3690   65.7380 H   0  0  0  0  0  0  0  0  0  0  0  0
  129.5649  123.2755   66.7178 H   0  0  0  0  0  0  0  0  0  0  0  0
  128.9468  123.9351   65.1655 H   0  0  0  0  0  0  0  0  0  0  0  0
  130.3151  122.7713   65.1655 H   0  0  0  0  0  0  0  0  0  0  0  0
  130.4827  126.7571   64.9987 H   0  0  0  0  0  0  0  0  0  0  0  0
  131.6266  125.7290   64.0365 H   0  0  0  0  0  0  0  0  0  0  0  0
  129.0997  124.3892   64.0456 H   0  0  0  0  0  0  0  0  0  0  0  0
  128.7973  126.1391   63.6594 H   0  0  0  0  0  0  0  0  0  0  0  0
  131.8749  125.5177   61.1771 H   0  0  0  0  0  0  0  0  0  0  0  0
  133.6648  125.4043   62.7390 H   0  0  0  0  0  0  0  0  0  0  0  0
  135.3861  123.7229   61.9824 H   0  0  0  0  0  0  0  0  0  0  0  0
  134.3831  121.2679   61.8568 H   0  0  0  0  0  0  0  0  0  0  0  0
  132.2494  121.3101   60.2670 H   0  0  0  0  0  0  0  0  0  0  0  0
  131.9284  123.7569   59.3486 H   0  0  0  0  0  0  0  0  0  0  0  0
  134.6466  123.5287   59.3751 H   0  0  0  0  0  0  0  0  0  0  0  0
  134.2936  125.1101   59.8735 H   0  0  0  0  0  0  0  0  0  0  0  0
  1  2  1  0
  2  3  1  0
  2  4  1  0
  4  5  1  0
  5  6  1  0
  6  7  1  0
  7  8  2  0
  7  9  1  0
  9 10  1  0
 10 11  1  0
 11 12  2  0
 11 13  1  0
 10 14  1  0
 14 15  1  0
 15 16  2  0
 16 17  1  0
 17 18  1  0
 17  9  1  0
 18 14  1  0
  1 19  1  0
  1 20  1  0
  1 21  1  0
  2 22  1  0
  3 23  1  0
  3 24  1  0
  3 25  1  0
  4 26  1  0
  4 27  1  0
  5 28  1  0
  5 29  1  0
  9 30  1  6
 10 31  1  1
 14 32  1  1
 15 33  1  0
 16 34  1  0
 17 35  1  6
 18 36  1  0
 18 37  1  0
M  CHG  2   2   1  13  -1
M  END
>  <Binding energies>  (1) 
[-4.13]

>  <Ligand effiencies>  (1) 
[-0.21736842105263157]

>  <Interactions>  (1) 
["V-A:ILE:369:CG2:3237, V-A:ASP:366:CA:3210, V-A:GLY:454:CA:4049, V-A:ILE:369:CB:3236, V-B:GLU:543:CB:9878, V-B:TYR:539:CE2:9848, V-A:TYR:484:CE2:4346, V-B:GLU:543:CG:9879, V-A:ASP:366:CG:3213, V-A:GLU:543:CD:4908, V-A:TYR:484:CZ:4347, V-B:GLU:543:CA:9876, H-A:GLY:454:N:4050, V-A:HIS:456:CE1:4070, V-A:ILE:369:CD1:3239, V-B:GLU:543:CD:9880, H-A:ARG:545:NH2:4928, H-A:ARG:545:NE:4924, H-A:TYR:484:OH:4348"]

$$$$
ZINC574766312-again1
     RDKit          3D

 43 44  0  0  0  0  0  0  0  0999 V2000
  130.5510  131.5130   61.9420 C   0  0  0  0  0  0  0  0  0  0  0  0
  131.3010  130.9000   60.7460 C   0  0  1  0  0  0  0  0  0  0  0  0
  130.7040  129.5260   60.3590 C   0  0  0  0  0  0  0  0  0  0  0  0
  131.4750  128.9200   59.1530 N   0  0  1  0  0  0  0  0  0  0  0  0
  130.9550  127.5170   58.6990 C   0  0  2  0  0  0  0  0  0  0  0  0
  129.4920  127.2820   59.1420 C   0  0  0  0  0  0  0  0  0  0  0  0
  131.8310  126.3480   59.1630 C   0  0  0  0  0  0  0  0  0  0  0  0
  131.9050  126.1490   60.5070 N   0  0  0  0  0  0  0  0  0  0  0  0
  132.7070  125.1320   60.9180 C   0  0  0  0  0  0  0  0  0  0  0  0
  133.4270  124.3340   60.0260 C   0  0  0  0  0  0  0  0  0  0  0  0
  133.2920  124.6250   58.6640 C   0  0  0  0  0  0  0  0  0  0  0  0
  133.9820  123.8750   57.7160 N   0  0  0  0  0  0  0  0  0  0  0  0
  132.4990  125.6330   58.2150 N   0  0  0  0  0  0  0  0  0  0  0  0
  131.4650  129.8970   57.9380 C   0  0  0  0  0  0  0  0  0  0  0  0
  132.0880  131.2720   58.3160 C   0  0  0  0  0  0  0  0  0  0  0  0
  133.5920  131.1200   58.6600 C   0  0  0  0  0  0  0  0  0  0  0  0
  131.8760  132.2230   57.1170 C   0  0  0  0  0  0  0  0  0  0  0  0
  131.2750  131.8310   59.5160 C   0  0  0  0  0  0  0  0  0  0  0  0
  130.9963  131.1490   62.8797 H   0  0  0  0  0  0  0  0  0  0  0  0
  130.6287  132.6095   61.9006 H   0  0  0  0  0  0  0  0  0  0  0  0
  129.4919  131.2186   61.9006 H   0  0  0  0  0  0  0  0  0  0  0  0
  132.3458  130.7665   61.0632 H   0  0  0  0  0  0  0  0  0  0  0  0
  130.7801  128.8430   61.2179 H   0  0  0  0  0  0  0  0  0  0  0  0
  129.6497  129.6621   60.0762 H   0  0  0  0  0  0  0  0  0  0  0  0
  132.4400  128.8100   59.4330 H   0  0  0  0  0  0  0  0  0  0  0  0
  131.0073  127.5387   57.6005 H   0  0  0  0  0  0  0  0  0  0  0  0
  129.4385  127.2734   60.2407 H   0  0  0  0  0  0  0  0  0  0  0  0
  128.8560  128.0895   58.7502 H   0  0  0  0  0  0  0  0  0  0  0  0
  129.1409  126.3160   58.7502 H   0  0  0  0  0  0  0  0  0  0  0  0
  132.7926  124.9292   61.9957 H   0  0  0  0  0  0  0  0  0  0  0  0
  134.0706  123.5144   60.3781 H   0  0  0  0  0  0  0  0  0  0  0  0
  134.6870  124.3190   57.1460 H   0  0  0  0  0  0  0  0  0  0  0  0
  133.7600  122.8970   57.6020 H   0  0  0  0  0  0  0  0  0  0  0  0
  132.0464  129.4535   57.1162 H   0  0  0  0  0  0  0  0  0  0  0  0
  130.4214  130.0602   57.6310 H   0  0  0  0  0  0  0  0  0  0  0  0
  133.7188  131.1072   59.7526 H   0  0  0  0  0  0  0  0  0  0  0  0
  133.9719  130.1789   58.2357 H   0  0  0  0  0  0  0  0  0  0  0  0
  134.1525  131.9661   58.2357 H   0  0  0  0  0  0  0  0  0  0  0  0
  131.6506  133.2343   57.4865 H   0  0  0  0  0  0  0  0  0  0  0  0
  132.7899  132.2513   56.5054 H   0  0  0  0  0  0  0  0  0  0  0  0
  131.0366  131.8605   56.5054 H   0  0  0  0  0  0  0  0  0  0  0  0
  131.6988  132.8044   59.8038 H   0  0  0  0  0  0  0  0  0  0  0  0
  130.2276  131.9197   59.1918 H   0  0  0  0  0  0  0  0  0  0  0  0
  1  2  1  0
  2  3  1  0
  3  4  1  0
  4  5  1  0
  5  6  1  0
  5  7  1  0
  7  8  2  0
  8  9  1  0
  9 10  2  0
 10 11  1  0
 11 12  1  0
 11 13  2  0
  4 14  1  0
 14 15  1  0
 15 16  1  0
 15 17  1  0
 15 18  1  0
 18  2  1  0
 13  7  1  0
  1 19  1  0
  1 20  1  0
  1 21  1  0
  2 22  1  1
  3 23  1  0
  3 24  1  0
  4 25  1  1
  5 26  1  6
  6 27  1  0
  6 28  1  0
  6 29  1  0
  9 30  1  0
 10 31  1  0
 12 32  1  0
 12 33  1  0
 14 34  1  0
 14 35  1  0
 16 36  1  0
 16 37  1  0
 16 38  1  0
 17 39  1  0
 17 40  1  0
 17 41  1  0
 18 42  1  0
 18 43  1  0
M  CHG  1   4   1
M  END
>  <Binding energies>  (1) 
[-6.05]

>  <Ligand effiencies>  (1) 
[-0.28809523809523807]

>  <Interactions>  (1) 
["V-A:ILE:369:CG2:3237, V-A:ASP:366:CA:3210, V-A:ILE:369:C:3232, V-A:ILE:369:CB:3236, H-A:TYR:531:OH:4795, V-B:TYR:539:CE2:9848, V-A:ASN:370:CB:3245, V-A:ASP:366:CG:3213, V-A:LEU:363:CD1:3189, V-A:LEU:363:CB:3187, V-A:LEU:363:CG:3188, V-B:TYR:539:CZ:9849, H-B:TYR:539:OH:9850, V-A:ASP:366:C:3208, V-A:ASN:370:CA:3243, V-A:ASP:366:CB:3212, H-A:ASP:366:O:3209, H-A:ASP:366:OD1:3214, V-A:PRO:540:CB:4885, V-A:PRO:540:CA:4883, V-A:LEU:363:CA:3185, H-A:ASP:366:OD2:3215"]

$$$$
ZINC57531386
     RDKit          3D

 40 42  0  0  0  0  0  0  0  0999 V2000
  128.3630  125.7320   62.4650 O   0  0  0  0  0  0  0  0  0  0  0  0
  129.3010  124.9330   62.4020 C   0  0  0  0  0  0  0  0  0  0  0  0
  129.2270  123.7150   61.5930 C   0  0  0  0  0  0  0  0  0  0  0  0
  129.7210  122.4340   61.8450 C   0  0  0  0  0  0  0  0  0  0  0  0
  129.4430  121.5200   60.8230 C   0  0  0  0  0  0  0  0  0  0  0  0
  128.7360  122.0880   59.7730 C   0  0  0  0  0  0  0  0  0  0  0  0
  128.4130  123.7680   60.0550 S   0  0  0  0  0  0  0  0  0  0  0  0
  130.5740  125.1860   63.2560 C   0  0  2  0  0  0  0  0  0  0  0  0
  131.8570  124.5630   62.6000 C   0  0  1  0  0  0  0  0  0  0  0  0
  132.1010  125.0290   61.1610 C   0  0  0  0  0  0  0  0  0  0  0  0
  131.5190  126.2100   60.6840 C   0  0  0  0  0  0  0  0  0  0  0  0
  131.7400  126.6240   59.3720 C   0  0  0  0  0  0  0  0  0  0  0  0
  132.5480  125.8650   58.5220 C   0  0  0  0  0  0  0  0  0  0  0  0
  132.7520  126.2910   57.2350 O   0  0  0  0  0  0  0  0  0  0  0  0
  133.1370  124.6850   58.9930 C   0  0  0  0  0  0  0  0  0  0  0  0
  133.9340  123.9210   58.1790 O   0  0  0  0  0  0  0  0  0  0  0  0
  132.9120  124.2730   60.3080 C   0  0  0  0  0  0  0  0  0  0  0  0
  132.9850  124.8310   63.5010 N   0  0  0  0  0  0  0  0  0  0  0  0
  132.9320  124.9700   64.8520 C   0  0  0  0  0  0  0  0  0  0  0  0
  134.3110  125.0860   65.7600 S   0  0  0  0  0  0  0  0  0  0  0  0
  131.7000  125.0050   65.4260 N   0  0  0  0  0  0  0  0  0  0  0  0
  130.3880  124.7980   64.7830 C   0  0  1  0  0  0  0  0  0  0  0  0
  129.4730  125.7190   65.3550 O   0  0  0  0  0  0  0  0  0  0  0  0
  129.8410  123.3630   65.0770 C   0  0  0  0  0  0  0  0  0  0  0  0
  130.7750  122.4280   64.8940 F   0  0  0  0  0  0  0  0  0  0  0  0
  129.4370  123.2550   66.3450 F   0  0  0  0  0  0  0  0  0  0  0  0
  128.7920  123.0260   64.3240 F   0  0  0  0  0  0  0  0  0  0  0  0
  130.2747  122.1691   62.7578 H   0  0  0  0  0  0  0  0  0  0  0  0
  129.7517  120.4645   60.8491 H   0  0  0  0  0  0  0  0  0  0  0  0
  128.4196  121.5403   58.8731 H   0  0  0  0  0  0  0  0  0  0  0  0
  130.7355  126.2741   63.2628 H   0  0  0  0  0  0  0  0  0  0  0  0
  131.7216  123.4773   62.4866 H   0  0  0  0  0  0  0  0  0  0  0  0
  130.8839  126.8141   61.3486 H   0  0  0  0  0  0  0  0  0  0  0  0
  131.2767  127.5515   59.0044 H   0  0  0  0  0  0  0  0  0  0  0  0
  132.5370  127.2200   57.1160 H   0  0  0  0  0  0  0  0  0  0  0  0
  134.3110  124.4190   57.4480 H   0  0  0  0  0  0  0  0  0  0  0  0
  133.3763  123.3463   60.6763 H   0  0  0  0  0  0  0  0  0  0  0  0
  133.9210  124.7270   63.1390 H   0  0  0  0  0  0  0  0  0  0  0  0
  131.7330  125.0060   66.4350 H   0  0  0  0  0  0  0  0  0  0  0  0
  128.8600  126.0040   64.6740 H   0  0  0  0  0  0  0  0  0  0  0  0
  1  2  2  0
  2  3  1  0
  3  4  2  0
  4  5  1  0
  5  6  2  0
  6  7  1  0
  2  8  1  0
  8  9  1  0
  9 10  1  0
 10 11  2  0
 11 12  1  0
 12 13  2  0
 13 14  1  0
 13 15  1  0
 15 16  1  0
 15 17  2  0
  9 18  1  0
 18 19  1  0
 19 20  2  0
 19 21  1  0
 21 22  1  0
 22 23  1  1
 22 24  1  0
 24 25  1  0
 24 26  1  0
 24 27  1  0
  7  3  1  0
 22  8  1  0
 17 10  1  0
  4 28  1  0
  5 29  1  0
  6 30  1  0
  8 31  1  1
  9 32  1  6
 11 33  1  0
 12 34  1  0
 14 35  1  0
 16 36  1  0
 17 37  1  0
 18 38  1  0
 21 39  1  0
 23 40  1  0
M  END
>  <Binding energies>  (1) 
[-5.15]

>  <Ligand effiencies>  (1) 
[-0.1609375]

>  <Interactions>  (1) 
["V-A:ASP:366:CA:3210, V-B:PRO:540:CA:9855, V-A:GLY:454:CA:4049, H-A:GLU:543:OE2:4910, V-B:GLU:543:CB:9878, V-B:ALA:541:CB:9864, H-A:TYR:531:OH:4795, V-B:TYR:539:CE2:9848, V-A:TYR:484:CE2:4346, V-B:GLU:543:CG:9879, V-B:TYR:539:C:9839, V-A:ASP:366:CG:3213, H-B:GLU:543:OE1:9881, H-B:TYR:539:OH:9850, V-A:TYR:484:CZ:4347, V-A:ARG:545:CG:4922, V-B:GLU:543:CA:9876, V-A:GLY:453:C:4042, V-B:PRO:540:N:9856, V-A:TYR:484:CD2:4344, V-B:TYR:539:CD2:9846, V-B:GLU:543:CD:9880, V-A:ASP:366:CB:3212, V-A:ARG:545:CD:4923, V-A:LEU:475:CD2:4259, V-A:ARG:545:CZ:4926, H-A:ASP:366:O:3209, H-A:ASP:366:OD1:3214, H-B:GLU:543:OE2:9882, V-A:GLY:453:CA:4044, H-A:TYR:484:OH:4348"]

$$$$
ZINC575399432
     RDKit          3D

 80 83  0  0  0  0  0  0  0  0999 V2000
  129.3050  125.4300   58.0720 C   0  0  0  0  0  0  0  0  0  0  0  0
  130.3850  126.5170   57.8670 C   0  0  0  0  0  0  0  0  0  0  0  0
  131.8000  125.9230   57.9970 C   0  0  0  0  0  0  0  0  0  0  0  0
  130.2200  127.7530   58.7650 C   0  0  0  0  0  0  0  0  0  0  0  0
  130.7000  128.9180   58.2540 N   0  0  0  0  0  0  0  0  0  0  0  0
  130.5920  130.0490   58.9960 C   0  0  0  0  0  0  0  0  0  0  0  0
  131.1020  131.2520   58.4420 N   0  0  0  0  0  0  0  0  0  0  0  0
  132.5500  131.3580   58.2390 C   0  0  0  0  0  0  0  0  0  0  0  0
  130.0950  132.2930   57.3720 S   0  0  0  0  0  0  0  0  0  0  0  0
  128.8210  132.9860   58.5800 C   0  0  0  0  0  0  0  0  0  0  0  0
  130.9300  133.4030   56.9000 O   0  0  0  0  0  0  0  0  0  0  0  0
  129.4060  131.4270   56.4080 O   0  0  0  0  0  0  0  0  0  0  0  0
  130.0270  130.0730   60.2340 N   0  0  0  0  0  0  0  0  0  0  0  0
  129.5700  128.9040   60.7600 C   0  0  0  0  0  0  0  0  0  0  0  0
  129.5990  127.6990   60.0290 C   0  0  0  0  0  0  0  0  0  0  0  0
  128.9600  126.4550   60.6550 C   0  0  0  0  0  0  0  0  0  0  0  0
  129.2790  126.3740   62.1680 C   0  0  1  0  0  0  0  0  0  0  0  0
  130.7610  125.9830   62.4380 C   0  0  2  0  0  0  0  0  0  0  0  0
  131.6350  125.8940   61.1740 C   0  0  0  0  0  0  0  0  0  0  0  0
  133.0120  125.2500   61.4510 C   0  0  2  0  0  0  0  0  0  0  0  0
  133.7650  124.7970   60.1790 C   0  0  0  0  0  0  0  0  0  0  0  0
  133.1800  123.5460   59.5200 C   0  0  0  0  0  0  0  0  0  0  0  0
  133.4690  123.2400   58.3630 O   0  0  0  0  0  0  0  0  0  0  0  0
  132.3320  122.8810   60.3530 O   0  0  0  0  0  0  0  0  0  0  0  0
  132.5260  121.5430   60.8440 C   0  0  0  0  0  0  0  0  0  0  0  0
  132.8370  120.5600   59.6880 C   0  0  0  0  0  0  0  0  0  0  0  0
  133.6300  121.4950   61.9270 C   0  0  0  0  0  0  0  0  0  0  0  0
  131.1680  121.1720   61.4750 C   0  0  0  0  0  0  0  0  0  0  0  0
  132.9030  124.1300   62.3360 O   0  0  0  0  0  0  0  0  0  0  0  0
  132.1510  124.3250   63.5110 C   0  0  0  0  0  0  0  0  0  0  0  0
  131.9520  122.9390   64.1050 C   0  0  0  0  0  0  0  0  0  0  0  0
  132.8640  125.2980   64.4670 C   0  0  0  0  0  0  0  0  0  0  0  0
  130.8580  124.7790   63.2040 O   0  0  0  0  0  0  0  0  0  0  0  0
  128.8580  127.6900   62.8400 C   0  0  0  0  0  0  0  0  0  0  0  0
  128.3190  127.7020   64.1330 C   0  0  0  0  0  0  0  0  0  0  0  0
  127.9800  128.8960   64.7620 C   0  0  0  0  0  0  0  0  0  0  0  0
  127.4740  128.8800   66.0160 F   0  0  0  0  0  0  0  0  0  0  0  0
  128.1710  130.1050   64.1030 C   0  0  0  0  0  0  0  0  0  0  0  0
  128.6860  130.1140   62.8090 C   0  0  0  0  0  0  0  0  0  0  0  0
  129.0070  128.9150   62.1510 C   0  0  0  0  0  0  0  0  0  0  0  0
  129.1458  125.2697   59.1486 H   0  0  0  0  0  0  0  0  0  0  0  0
  128.3633  125.7564   57.6067 H   0  0  0  0  0  0  0  0  0  0  0  0
  129.6375  124.4904   57.6067 H   0  0  0  0  0  0  0  0  0  0  0  0
  130.2404  126.8818   56.8394 H   0  0  0  0  0  0  0  0  0  0  0  0
  132.0562  125.8155   59.0613 H   0  0  0  0  0  0  0  0  0  0  0  0
  131.8296  124.9365   57.5113 H   0  0  0  0  0  0  0  0  0  0  0  0
  132.5249  126.5928   57.5113 H   0  0  0  0  0  0  0  0  0  0  0  0
  133.0554  131.3950   59.2153 H   0  0  0  0  0  0  0  0  0  0  0  0
  132.9061  130.4835   57.6747 H   0  0  0  0  0  0  0  0  0  0  0  0
  132.7750  132.2750   57.6747 H   0  0  0  0  0  0  0  0  0  0  0  0
  129.1566  132.8035   59.6115 H   0  0  0  0  0  0  0  0  0  0  0  0
  128.7111  134.0682   58.4162 H   0  0  0  0  0  0  0  0  0  0  0  0
  127.8528  132.4902   58.4162 H   0  0  0  0  0  0  0  0  0  0  0  0
  127.8695  126.5025   60.5186 H   0  0  0  0  0  0  0  0  0  0  0  0
  129.3697  125.5619   60.1604 H   0  0  0  0  0  0  0  0  0  0  0  0
  128.6944  125.5600   62.6214 H   0  0  0  0  0  0  0  0  0  0  0  0
  131.1683  126.8169   63.0285 H   0  0  0  0  0  0  0  0  0  0  0  0
  131.1073  125.2888   60.4221 H   0  0  0  0  0  0  0  0  0  0  0  0
  131.8113  126.9193   60.8166 H   0  0  0  0  0  0  0  0  0  0  0  0
  133.5984  126.0541   61.9196 H   0  0  0  0  0  0  0  0  0  0  0  0
  133.7348  125.6188   59.4484 H   0  0  0  0  0  0  0  0  0  0  0  0
  134.7891  124.5429   60.4897 H   0  0  0  0  0  0  0  0  0  0  0  0
  133.1441  119.5894   60.1047 H   0  0  0  0  0  0  0  0  0  0  0  0
  131.9376  120.4254   59.0692 H   0  0  0  0  0  0  0  0  0  0  0  0
  133.6502  120.9672   59.0692 H   0  0  0  0  0  0  0  0  0  0  0  0
  133.1664  121.5152   62.9243 H   0  0  0  0  0  0  0  0  0  0  0  0
  134.2152  120.5706   61.8133 H   0  0  0  0  0  0  0  0  0  0  0  0
  134.2933  122.3652   61.8133 H   0  0  0  0  0  0  0  0  0  0  0  0
  131.2544  121.1956   62.5713 H   0  0  0  0  0  0  0  0  0  0  0  0
  130.4039  121.8943   61.1518 H   0  0  0  0  0  0  0  0  0  0  0  0
  130.8773  120.1615   61.1518 H   0  0  0  0  0  0  0  0  0  0  0  0
  131.9616  123.0058   65.2029 H   0  0  0  0  0  0  0  0  0  0  0  0
  130.9862  122.5321   63.7708 H   0  0  0  0  0  0  0  0  0  0  0  0
  132.7643  122.2768   63.7708 H   0  0  0  0  0  0  0  0  0  0  0  0
  132.6531  125.0102   65.5075 H   0  0  0  0  0  0  0  0  0  0  0  0
  133.9487  125.2587   64.2883 H   0  0  0  0  0  0  0  0  0  0  0  0
  132.4998  126.3205   64.2883 H   0  0  0  0  0  0  0  0  0  0  0  0
  128.1608  126.7499   64.6608 H   0  0  0  0  0  0  0  0  0  0  0  0
  127.9162  131.0516   64.6020 H   0  0  0  0  0  0  0  0  0  0  0  0
  128.8437  131.0736   62.2949 H   0  0  0  0  0  0  0  0  0  0  0  0
  1  2  1  0
  2  3  1  0
  2  4  1  0
  4  5  2  0
  5  6  1  0
  6  7  1  0
  7  8  1  0
  7  9  1  0
  9 10  1  0
  9 11  2  0
  9 12  2  0
  6 13  2  0
 13 14  1  0
 14 15  2  0
 15 16  1  0
 16 17  1  0
 17 18  1  0
 18 19  1  0
 19 20  1  0
 20 21  1  0
 21 22  1  0
 22 23  2  0
 22 24  1  0
 24 25  1  0
 25 26  1  0
 25 27  1  0
 25 28  1  0
 20 29  1  0
 29 30  1  0
 30 31  1  0
 30 32  1  0
 30 33  1  0
 17 34  1  0
 34 35  2  0
 35 36  1  0
 36 37  1  0
 36 38  2  0
 38 39  1  0
 39 40  2  0
 15  4  1  0
 33 18  1  0
 40 34  1  0
 40 14  1  0
  1 41  1  0
  1 42  1  0
  1 43  1  0
  2 44  1  0
  3 45  1  0
  3 46  1  0
  3 47  1  0
  8 48  1  0
  8 49  1  0
  8 50  1  0
 10 51  1  0
 10 52  1  0
 10 53  1  0
 16 54  1  0
 16 55  1  0
 17 56  1  1
 18 57  1  1
 19 58  1  0
 19 59  1  0
 20 60  1  1
 21 61  1  0
 21 62  1  0
 26 63  1  0
 26 64  1  0
 26 65  1  0
 27 66  1  0
 27 67  1  0
 27 68  1  0
 28 69  1  0
 28 70  1  0
 28 71  1  0
 31 72  1  0
 31 73  1  0
 31 74  1  0
 32 75  1  0
 32 76  1  0
 32 77  1  0
 35 78  1  0
 38 79  1  0
 39 80  1  0
M  END
>  <Binding energies>  (1) 
[-7.35]

>  <Ligand effiencies>  (1) 
[-0.18375]

>  <Interactions>  (1) 
["V-A:ILE:369:CG2:3237, V-A:ASP:366:CA:3210, H-A:TYR:531:OH:4795, V-B:TYR:539:CE2:9848, V-A:ASP:366:CG:3213, V-A:LEU:363:CD1:3189, V-A:TYR:539:CD1:4873, H-B:TYR:539:OH:9850, V-A:TYR:484:CZ:4347, V-A:GLU:543:CD:4908, V-B:TYR:539:CD2:9846, V-A:GLU:543:CG:4907, V-A:SER:385:CB:3409, V-B:GLU:543:CD:9880, V-A:TYR:539:C:4867, V-A:ASP:366:CB:3212, V-A:LEU:475:CD2:4259, V-A:ARG:545:CZ:4926, V-A:PRO:540:N:4884, H-A:TYR:539:N:4870, V-A:PRO:540:CB:4885, V-A:PRO:540:CA:4883, V-A:TYR:539:CE1:4875"]

$$$$
ZINC575416033
     RDKit          3D

 58 61  0  0  0  0  0  0  0  0999 V2000
  125.3970  122.7390   56.7270 C   0  0  0  0  0  0  0  0  0  0  0  0
  126.6440  122.1920   57.1310 O   0  0  0  0  0  0  0  0  0  0  0  0
  127.2140  122.8360   58.2240 C   0  0  0  0  0  0  0  0  0  0  0  0
  128.3720  122.1670   58.6200 O   0  0  0  0  0  0  0  0  0  0  0  0
  128.9510  122.4650   59.8380 C   0  0  0  0  0  0  0  0  0  0  0  0
  128.4510  121.8000   60.9530 C   0  0  0  0  0  0  0  0  0  0  0  0
  128.9800  122.0410   62.2160 C   0  0  0  0  0  0  0  0  0  0  0  0
  130.0230  122.9550   62.4190 C   0  0  0  0  0  0  0  0  0  0  0  0
  130.5340  123.6440   61.2900 C   0  0  0  0  0  0  0  0  0  0  0  0
  129.9940  123.3820   60.0250 C   0  0  0  0  0  0  0  0  0  0  0  0
  131.6410  124.6870   61.4240 C   0  0  0  0  0  0  0  0  0  0  0  0
  132.4870  124.4640   62.6810 C   0  0  0  0  0  0  0  0  0  0  0  0
  131.6290  124.3260   63.9560 C   0  0  1  0  0  0  0  0  0  0  0  0
  131.0210  125.6350   64.5470 C   0  0  1  0  0  0  0  0  0  0  0  0
  129.9480  126.3600   63.7170 C   0  0  0  0  0  0  0  0  0  0  0  0
  129.1610  127.1870   64.7260 C   0  0  0  0  0  0  0  0  0  0  0  0
  129.0860  126.2870   65.9610 C   0  0  2  0  0  0  0  0  0  0  0  0
  128.9210  127.0310   67.1700 O   0  0  0  0  0  0  0  0  0  0  0  0
  128.3600  128.3040   67.0370 C   0  0  0  0  0  0  0  0  0  0  0  0
  128.4600  129.0320   68.2190 O   0  0  0  0  0  0  0  0  0  0  0  0
  129.2880  128.4320   69.2060 C   0  0  0  0  0  0  0  0  0  0  0  0
  130.3840  125.4140   65.9690 C   0  0  2  0  0  0  0  0  0  0  0  0
  131.3990  125.8690   67.0520 C   0  0  0  0  0  0  0  0  0  0  0  0
  129.9930  123.9250   66.2330 C   0  0  0  0  0  0  0  0  0  0  0  0
  129.5560  123.1580   64.9670 C   0  0  0  0  0  0  0  0  0  0  0  0
  130.6170  123.1510   63.8310 C   0  0  1  0  0  0  0  0  0  0  0  0
  124.8050  122.9987   57.6170 H   0  0  0  0  0  0  0  0  0  0  0  0
  125.5709  123.6435   56.1256 H   0  0  0  0  0  0  0  0  0  0  0  0
  124.8494  121.9985   56.1256 H   0  0  0  0  0  0  0  0  0  0  0  0
  127.4672  123.8699   57.9466 H   0  0  0  0  0  0  0  0  0  0  0  0
  126.4955  122.8391   59.0569 H   0  0  0  0  0  0  0  0  0  0  0  0
  127.6302  121.0774   60.8344 H   0  0  0  0  0  0  0  0  0  0  0  0
  128.5684  121.4991   63.0802 H   0  0  0  0  0  0  0  0  0  0  0  0
  130.4009  123.9122   59.1513 H   0  0  0  0  0  0  0  0  0  0  0  0
  132.2940  124.6279   60.5408 H   0  0  0  0  0  0  0  0  0  0  0  0
  131.1685  125.6773   61.5025 H   0  0  0  0  0  0  0  0  0  0  0  0
  133.0756  123.5439   62.5510 H   0  0  0  0  0  0  0  0  0  0  0  0
  133.1340  125.3445   62.8081 H   0  0  0  0  0  0  0  0  0  0  0  0
  132.3518  124.0671   64.7437 H   0  0  0  0  0  0  0  0  0  0  0  0
  131.9163  126.2738   64.5658 H   0  0  0  0  0  0  0  0  0  0  0  0
  130.4161  127.0115   62.9644 H   0  0  0  0  0  0  0  0  0  0  0  0
  129.3048  125.6564   63.1682 H   0  0  0  0  0  0  0  0  0  0  0  0
  129.6860  128.1256   64.9571 H   0  0  0  0  0  0  0  0  0  0  0  0
  128.1682  127.4789   64.3529 H   0  0  0  0  0  0  0  0  0  0  0  0
  128.1949  125.6441   65.9098 H   0  0  0  0  0  0  0  0  0  0  0  0
  128.8878  128.8454   66.2381 H   0  0  0  0  0  0  0  0  0  0  0  0
  127.2938  128.1873   66.7930 H   0  0  0  0  0  0  0  0  0  0  0  0
  128.9184  128.6998   70.2068 H   0  0  0  0  0  0  0  0  0  0  0  0
  129.2662  127.3386   69.0876 H   0  0  0  0  0  0  0  0  0  0  0  0
  130.3202  128.7932   69.0876 H   0  0  0  0  0  0  0  0  0  0  0  0
  130.9785  125.6805   68.0508 H   0  0  0  0  0  0  0  0  0  0  0  0
  132.3362  125.3049   66.9363 H   0  0  0  0  0  0  0  0  0  0  0  0
  131.6014  126.9440   66.9363 H   0  0  0  0  0  0  0  0  0  0  0  0
  130.8632  123.4103   66.6664 H   0  0  0  0  0  0  0  0  0  0  0  0
  129.1278  123.9382   66.9122 H   0  0  0  0  0  0  0  0  0  0  0  0
  129.3459  122.1159   65.2498 H   0  0  0  0  0  0  0  0  0  0  0  0
  128.6710  123.6776   64.5711 H   0  0  0  0  0  0  0  0  0  0  0  0
  131.2164  122.2407   63.9794 H   0  0  0  0  0  0  0  0  0  0  0  0
  1  2  1  0
  2  3  1  0
  3  4  1  0
  4  5  1  0
  5  6  2  0
  6  7  1  0
  7  8  2  0
  8  9  1  0
  9 10  2  0
  9 11  1  0
 11 12  1  0
 12 13  1  0
 13 14  1  0
 14 15  1  0
 15 16  1  0
 16 17  1  0
 17 18  1  0
 18 19  1  0
 19 20  1  0
 20 21  1  0
 17 22  1  0
 22 23  1  1
 22 24  1  0
 24 25  1  0
 25 26  1  0
 10  5  1  0
 26 13  1  0
 26  8  1  0
 22 14  1  0
  1 27  1  0
  1 28  1  0
  1 29  1  0
  3 30  1  0
  3 31  1  0
  6 32  1  0
  7 33  1  0
 10 34  1  0
 11 35  1  0
 11 36  1  0
 12 37  1  0
 12 38  1  0
 13 39  1  1
 14 40  1  1
 15 41  1  0
 15 42  1  0
 16 43  1  0
 16 44  1  0
 17 45  1  6
 19 46  1  0
 19 47  1  0
 21 48  1  0
 21 49  1  0
 21 50  1  0
 23 51  1  0
 23 52  1  0
 23 53  1  0
 24 54  1  0
 24 55  1  0
 25 56  1  0
 25 57  1  0
 26 58  1  1
M  END
>  <Binding energies>  (1) 
[-6.22]

>  <Ligand effiencies>  (1) 
[-0.23923076923076922]

>  <Interactions>  (1) 
["V-B:PRO:540:CA:9855, V-A:GLU:543:C:4902, V-B:GLU:543:CB:9878, V-B:ALA:541:CB:9864, V-B:TYR:539:CE2:9848, V-A:TYR:484:CE2:4346, H-B:TYR:539:N:9842, V-B:GLU:543:CG:9879, V-B:TYR:539:C:9839, V-A:TYR:484:CZ:4347, V-A:GLU:543:CD:4908, V-B:PRO:540:CB:9857, V-B:GLU:543:CA:9876, V-B:HIS:456:CE1:9041, V-B:PRO:540:N:9856, V-A:HIS:456:CE1:4070, V-B:TYR:539:CD2:9846, V-B:PRO:540:CD:9859, V-A:GLU:543:CG:4907, V-B:GLU:543:CD:9880, V-A:LEU:475:CD2:4259, V-A:GLU:543:CB:4906, V-B:LEU:363:CD1:8160, V-B:PRO:540:C:9853, V-B:MET:535:CE:9807"]

$$$$
ZINC575416080-again1
     RDKit          3D

 70 72  0  0  0  0  0  0  0  0999 V2000
  128.7870  130.9820   57.8580 C   0  0  0  0  0  0  0  0  0  0  0  0
  130.0830  131.4340   58.5770 C   0  0  0  0  0  0  0  0  0  0  0  0
  129.7020  132.2750   59.8350 C   0  0  0  0  0  0  0  0  0  0  0  0
  130.9690  130.2000   58.9230 C   0  0  2  0  0  0  0  0  0  0  0  0
  130.9290  129.6630   60.3710 C   0  0  0  0  0  0  0  0  0  0  0  0
  130.0920  128.5160   60.4350 O   0  0  0  0  0  0  0  0  0  0  0  0
  130.3370  127.5340   61.3270 C   0  0  0  0  0  0  0  0  0  0  0  0
  131.4090  127.3110   61.8920 O   0  0  0  0  0  0  0  0  0  0  0  0
  129.1010  126.6700   61.5940 C   0  0  0  0  0  0  0  0  0  0  0  0
  129.2830  125.1930   61.1930 C   0  0  0  0  0  0  0  0  0  0  0  0
  127.7640  124.2770   60.8010 S   0  0  0  0  0  0  0  0  0  0  0  0
  128.3590  122.9050   59.4200 S   0  0  0  0  0  0  0  0  0  0  0  0
  127.3000  123.2480   57.9850 C   0  0  0  0  0  0  0  0  0  0  0  0
  127.9840  123.9490   56.7970 C   0  0  0  0  0  0  0  0  0  0  0  0
  129.1570  124.7450   57.1630 N   0  0  0  0  0  0  0  0  0  0  0  0
  129.1210  125.9190   57.8190 C   0  0  0  0  0  0  0  0  0  0  0  0
  128.0720  126.4660   58.1620 O   0  0  0  0  0  0  0  0  0  0  0  0
  130.4750  126.5840   58.1140 C   0  0  0  0  0  0  0  0  0  0  0  0
  131.6800  125.6150   58.1080 C   0  0  0  0  0  0  0  0  0  0  0  0
  132.4580  125.5270   59.4380 C   0  0  0  0  0  0  0  0  0  0  0  0
  133.4190  124.3230   59.4900 C   0  0  0  0  0  0  0  0  0  0  0  0
  133.1550  123.3700   60.6740 C   0  0  2  0  0  0  0  0  0  0  0  0
  131.5570  122.4810   60.5130 S   0  0  0  0  0  0  0  0  0  0  0  0
  131.0550  122.6170   62.2660 C   0  0  0  0  0  0  0  0  0  0  0  0
  132.3730  123.0190   62.9240 C   0  0  2  0  0  0  0  0  0  0  0  0
  132.4830  123.7520   64.1660 N   0  0  0  0  0  0  0  0  0  0  0  0
  133.5430  124.5970   64.1440 C   0  0  0  0  0  0  0  0  0  0  0  0
  134.0550  125.1780   65.0970 O   0  0  0  0  0  0  0  0  0  0  0  0
  133.9090  124.6690   62.8420 N   0  0  0  0  0  0  0  0  0  0  0  0
  132.8940  124.0770   62.0040 C   0  0  1  0  0  0  0  0  0  0  0  0
  132.3520  130.6780   58.5360 C   0  0  0  0  0  0  0  0  0  0  0  0
  132.2900  131.8370   57.8630 C   0  0  0  0  0  0  0  0  0  0  0  0
  130.9630  132.2040   57.6870 N   0  0  0  0  0  0  0  0  0  0  0  0
  130.3500  133.3690   57.2900 O   0  0  0  0  0  0  0  0  0  0  0  0
  128.0259  130.7166   58.6065 H   0  0  0  0  0  0  0  0  0  0  0  0
  128.4117  131.8023   57.2285 H   0  0  0  0  0  0  0  0  0  0  0  0
  129.0033  130.1062   57.2285 H   0  0  0  0  0  0  0  0  0  0  0  0
  129.9575  131.7110   60.7442 H   0  0  0  0  0  0  0  0  0  0  0  0
  130.2581  133.2240   59.8238 H   0  0  0  0  0  0  0  0  0  0  0  0
  128.6219  132.4828   59.8238 H   0  0  0  0  0  0  0  0  0  0  0  0
  130.5971  129.3141   58.3875 H   0  0  0  0  0  0  0  0  0  0  0  0
  131.9466  129.3909   60.6881 H   0  0  0  0  0  0  0  0  0  0  0  0
  130.5298  130.4422   61.0370 H   0  0  0  0  0  0  0  0  0  0  0  0
  128.8722  126.7129   62.6691 H   0  0  0  0  0  0  0  0  0  0  0  0
  128.2852  127.0740   60.9765 H   0  0  0  0  0  0  0  0  0  0  0  0
  129.9316  125.1635   60.3051 H   0  0  0  0  0  0  0  0  0  0  0  0
  129.7064  124.6969   62.0788 H   0  0  0  0  0  0  0  0  0  0  0  0
  126.8990  122.2890   57.6251 H   0  0  0  0  0  0  0  0  0  0  0  0
  126.5319  123.9495   58.3426 H   0  0  0  0  0  0  0  0  0  0  0  0
  128.3005  123.1790   56.0781 H   0  0  0  0  0  0  0  0  0  0  0  0
  127.2467  124.6485   56.3761 H   0  0  0  0  0  0  0  0  0  0  0  0
  130.0550  124.3630   56.9020 H   0  0  0  0  0  0  0  0  0  0  0  0
  130.6517  127.3567   57.3513 H   0  0  0  0  0  0  0  0  0  0  0  0
  130.4074  126.9929   59.1329 H   0  0  0  0  0  0  0  0  0  0  0  0
  131.3069  124.6092   57.8646 H   0  0  0  0  0  0  0  0  0  0  0  0
  132.3879  126.0121   57.3656 H   0  0  0  0  0  0  0  0  0  0  0  0
  133.0435  126.4496   59.5642 H   0  0  0  0  0  0  0  0  0  0  0  0
  131.7212  125.3974   60.2444 H   0  0  0  0  0  0  0  0  0  0  0  0
  133.3128  123.7532   58.5551 H   0  0  0  0  0  0  0  0  0  0  0  0
  134.4336  124.7268   59.6222 H   0  0  0  0  0  0  0  0  0  0  0  0
  134.0624  122.7485   60.6586 H   0  0  0  0  0  0  0  0  0  0  0  0
  130.2835  123.3886   62.4053 H   0  0  0  0  0  0  0  0  0  0  0  0
  130.6063  121.7013   62.6786 H   0  0  0  0  0  0  0  0  0  0  0  0
  132.8267  122.0358   63.1177 H   0  0  0  0  0  0  0  0  0  0  0  0
  132.2450  123.2640   65.0170 H   0  0  0  0  0  0  0  0  0  0  0  0
  134.3940  125.4820   62.4940 H   0  0  0  0  0  0  0  0  0  0  0  0
  132.3037  124.9301   61.6383 H   0  0  0  0  0  0  0  0  0  0  0  0
  133.2845  130.1456   58.7749 H   0  0  0  0  0  0  0  0  0  0  0  0
  133.1586  132.4093   57.5052 H   0  0  0  0  0  0  0  0  0  0  0  0
  130.4920  133.9220   58.0620 H   0  0  0  0  0  0  0  0  0  0  0  0
  1  2  1  0
  2  3  1  0
  2  4  1  0
  4  5  1  0
  5  6  1  0
  6  7  1  0
  7  8  2  0
  7  9  1  0
  9 10  1  0
 10 11  1  0
 11 12  1  0
 12 13  1  0
 13 14  1  0
 14 15  1  0
 15 16  1  0
 16 17  2  0
 16 18  1  0
 18 19  1  0
 19 20  1  0
 20 21  1  0
 21 22  1  0
 22 23  1  0
 23 24  1  0
 24 25  1  0
 25 26  1  0
 26 27  1  0
 27 28  2  0
 27 29  1  0
 29 30  1  0
  4 31  1  0
 31 32  2  0
 32 33  1  0
 33 34  1  0
 33  2  1  0
 30 22  1  0
 30 25  1  0
  1 35  1  0
  1 36  1  0
  1 37  1  0
  3 38  1  0
  3 39  1  0
  3 40  1  0
  4 41  1  6
  5 42  1  0
  5 43  1  0
  9 44  1  0
  9 45  1  0
 10 46  1  0
 10 47  1  0
 13 48  1  0
 13 49  1  0
 14 50  1  0
 14 51  1  0
 15 52  1  0
 18 53  1  0
 18 54  1  0
 19 55  1  0
 19 56  1  0
 20 57  1  0
 20 58  1  0
 21 59  1  0
 21 60  1  0
 22 61  1  1
 24 62  1  0
 24 63  1  0
 25 64  1  1
 26 65  1  0
 29 66  1  0
 30 67  1  6
 31 68  1  0
 32 69  1  0
 34 70  1  0
M  END
>  <Binding energies>  (1) 
[-6.59]

>  <Ligand effiencies>  (1) 
[-0.17342105263157895]

>  <Interactions>  (1) 
["V-A:ILE:369:CG2:3237, V-A:ASP:366:CA:3210, V-B:PRO:540:CA:9855, V-A:GLY:454:CA:4049, H-A:ARG:545:NH1:4927, V-B:TYR:539:CE2:9848, V-A:ASP:366:CG:3213, V-A:LEU:363:CD1:3189, V-B:TYR:539:CZ:9849, H-B:TYR:539:OH:9850, H-A:GLY:454:N:4050, V-B:PRO:540:N:9856, V-A:ASP:366:CB:3212, V-A:LEU:475:CD2:4259, H-A:ARG:545:NH2:4928, V-A:ARG:545:CZ:4926, H-A:ASP:366:OD1:3214, H-A:TYR:539:O:4868, V-A:PRO:540:N:4884, H-A:TYR:539:N:4870, V-A:PRO:540:CB:4885, V-A:PRO:540:CA:4883, H-A:ARG:545:NE:4924, V-B:TYR:539:CE1:9847, H-A:TYR:484:OH:4348"]

$$$$
ZINC575417598
     RDKit          3D

 66 70  0  0  0  0  0  0  0  0999 V2000
  128.8090  131.4050   64.7120 C   0  0  0  0  0  0  0  0  0  0  0  0
  127.8410  130.6040   65.3840 O   0  0  0  0  0  0  0  0  0  0  0  0
  128.2410  129.6020   66.2550 C   0  0  0  0  0  0  0  0  0  0  0  0
  128.3090  129.8140   67.6420 C   0  0  0  0  0  0  0  0  0  0  0  0
  128.7280  128.8080   68.5000 C   0  0  0  0  0  0  0  0  0  0  0  0
  129.0940  127.5720   67.9880 C   0  0  0  0  0  0  0  0  0  0  0  0
  129.0400  127.3170   66.6110 C   0  0  0  0  0  0  0  0  0  0  0  0
  128.6030  128.3340   65.7290 C   0  0  0  0  0  0  0  0  0  0  0  0
  128.5340  128.0410   64.2500 C   0  0  0  0  0  0  0  0  0  0  0  0
  127.9060  128.7710   63.4800 O   0  0  0  0  0  0  0  0  0  0  0  0
  129.4050  126.9030   63.7430 C   0  0  0  0  0  0  0  0  0  0  0  0
  129.7970  126.8320   62.3840 C   0  0  0  0  0  0  0  0  0  0  0  0
  129.4410  127.8090   61.4820 O   0  0  0  0  0  0  0  0  0  0  0  0
  130.5770  125.7750   61.8970 C   0  0  0  0  0  0  0  0  0  0  0  0
  130.9800  124.7650   62.7870 C   0  0  0  0  0  0  0  0  0  0  0  0
  130.6480  124.8370   64.1460 C   0  0  0  0  0  0  0  0  0  0  0  0
  131.1320  123.8520   64.9790 O   0  0  0  0  0  0  0  0  0  0  0  0
  129.8440  125.8930   64.6400 C   0  0  0  0  0  0  0  0  0  0  0  0
  129.4620  125.9680   66.1060 C   0  0  0  0  0  0  0  0  0  0  0  0
  129.6210  125.0280   66.8880 O   0  0  0  0  0  0  0  0  0  0  0  0
  131.8120  123.6550   62.2620 C   0  0  0  0  0  0  0  0  0  0  0  0
  132.4570  123.7360   61.0810 C   0  0  0  0  0  0  0  0  0  0  0  0
  133.1420  122.5800   60.4810 C   0  0  0  0  0  0  0  0  0  0  0  0
  133.2370  122.4510   59.2600 O   0  0  0  0  0  0  0  0  0  0  0  0
  133.7370  121.4730   61.3680 C   0  0  0  0  0  0  0  0  0  0  0  0
  134.4600  122.0540   62.4380 O   0  0  0  0  0  0  0  0  0  0  0  0
  132.4090  125.0410   60.2840 C   0  0  0  0  0  0  0  0  0  0  0  0
  130.9860  125.6490   60.4040 C   0  0  1  0  0  0  0  0  0  0  0  0
  130.1100  124.7900   59.6680 O   0  0  0  0  0  0  0  0  0  0  0  0
  129.3590  123.8410   60.3700 C   0  0  1  0  0  0  0  0  0  0  0  0
  128.3230  124.6040   61.2120 C   0  0  0  0  0  0  0  0  0  0  0  0
  127.2300  125.2280   60.3150 C   0  0  2  0  0  0  0  0  0  0  0  0
  126.1530  125.8600   61.2150 N   0  0  0  0  0  0  0  0  0  0  0  0
  126.6110  124.1730   59.3630 C   0  0  2  0  0  0  0  0  0  0  0  0
  125.8200  123.2060   60.0470 O   0  0  0  0  0  0  0  0  0  0  0  0
  127.7820  123.5130   58.5980 C   0  0  2  0  0  0  0  0  0  0  0  0
  127.3320  122.4430   57.5880 C   0  0  0  0  0  0  0  0  0  0  0  0
  128.7150  122.9190   59.5130 O   0  0  0  0  0  0  0  0  0  0  0  0
  129.4349  131.9229   65.4536 H   0  0  0  0  0  0  0  0  0  0  0  0
  129.4423  130.7633   64.0818 H   0  0  0  0  0  0  0  0  0  0  0  0
  128.2971  132.1472   64.0818 H   0  0  0  0  0  0  0  0  0  0  0  0
  128.0254  130.7936   68.0543 H   0  0  0  0  0  0  0  0  0  0  0  0
  128.7699  128.9900   69.5840 H   0  0  0  0  0  0  0  0  0  0  0  0
  129.4316  126.7802   68.6729 H   0  0  0  0  0  0  0  0  0  0  0  0
  129.3490  128.6760   61.8820 H   0  0  0  0  0  0  0  0  0  0  0  0
  131.3310  124.1710   65.8620 H   0  0  0  0  0  0  0  0  0  0  0  0
  131.9059  122.7343   62.8566 H   0  0  0  0  0  0  0  0  0  0  0  0
  132.9240  120.8514   61.7713 H   0  0  0  0  0  0  0  0  0  0  0  0
  134.4154  120.8502   60.7664 H   0  0  0  0  0  0  0  0  0  0  0  0
  135.0950  121.4110   62.7620 H   0  0  0  0  0  0  0  0  0  0  0  0
  133.1484  125.7482   60.6880 H   0  0  0  0  0  0  0  0  0  0  0  0
  132.6424  124.8423   59.2276 H   0  0  0  0  0  0  0  0  0  0  0  0
  130.9399  126.6674   59.9909 H   0  0  0  0  0  0  0  0  0  0  0  0
  130.0319  123.2476   61.0064 H   0  0  0  0  0  0  0  0  0  0  0  0
  127.8519  123.9069   61.9206 H   0  0  0  0  0  0  0  0  0  0  0  0
  128.8375  125.4131   61.7511 H   0  0  0  0  0  0  0  0  0  0  0  0
  127.6816  126.0045   59.6801 H   0  0  0  0  0  0  0  0  0  0  0  0
  126.5700  126.5640   61.8080 H   0  0  0  0  0  0  0  0  0  0  0  0
  125.7280  125.1550   61.8000 H   0  0  0  0  0  0  0  0  0  0  0  0
  125.4350  126.2940   60.6510 H   0  0  0  0  0  0  0  0  0  0  0  0
  125.9147  124.6653   58.6682 H   0  0  0  0  0  0  0  0  0  0  0  0
  126.3920  122.4910   60.3370 H   0  0  0  0  0  0  0  0  0  0  0  0
  128.2583  124.3265   58.0311 H   0  0  0  0  0  0  0  0  0  0  0  0
  126.9609  121.5605   58.1297 H   0  0  0  0  0  0  0  0  0  0  0  0
  126.5288  122.8500   56.9561 H   0  0  0  0  0  0  0  0  0  0  0  0
  128.1846  122.1536   56.9561 H   0  0  0  0  0  0  0  0  0  0  0  0
  1  2  1  0
  2  3  1  0
  3  4  2  0
  4  5  1  0
  5  6  2  0
  6  7  1  0
  7  8  2  0
  8  9  1  0
  9 10  2  0
  9 11  1  0
 11 12  2  0
 12 13  1  0
 12 14  1  0
 14 15  2  0
 15 16  1  0
 16 17  1  0
 16 18  2  0
 18 19  1  0
 19 20  2  0
 15 21  1  0
 21 22  2  0
 22 23  1  0
 23 24  2  0
 23 25  1  0
 25 26  1  0
 22 27  1  0
 27 28  1  0
 28 29  1  0
 29 30  1  0
 30 31  1  0
 31 32  1  0
 32 33  1  0
 32 34  1  0
 34 35  1  0
 34 36  1  0
 36 37  1  0
 36 38  1  0
  8  3  1  0
 18 11  1  0
 38 30  1  0
 19  7  1  0
 28 14  1  0
  1 39  1  0
  1 40  1  0
  1 41  1  0
  4 42  1  0
  5 43  1  0
  6 44  1  0
 13 45  1  0
 17 46  1  0
 21 47  1  0
 25 48  1  0
 25 49  1  0
 26 50  1  0
 27 51  1  0
 27 52  1  0
 28 53  1  6
 30 54  1  1
 31 55  1  0
 31 56  1  0
 32 57  1  6
 33 58  1  0
 33 59  1  0
 33 60  1  0
 34 61  1  6
 35 62  1  0
 36 63  1  6
 37 64  1  0
 37 65  1  0
 37 66  1  0
M  CHG  1  33   1
M  END
>  <Binding energies>  (1) 
[-8.31]

>  <Ligand effiencies>  (1) 
[-0.18466666666666667]

>  <Interactions>  (1) 
["V-B:TYR:539:CA:9841, V-A:ILE:369:CG2:3237, V-B:PRO:540:CA:9855, V-A:GLU:543:CA:4904, V-B:GLU:543:CB:9878, V-B:ASP:366:CG:8184, V-B:TYR:539:CE2:9848, V-B:GLU:543:CG:9879, V-B:TYR:539:C:9839, V-A:ASP:366:CG:3213, H-B:ASP:366:OD2:8186, V-B:TYR:484:CE2:9317, H-B:GLU:543:OE1:9881, V-A:GLU:543:CD:4908, V-B:PRO:540:CB:9857, H-B:TYR:484:OH:9319, H-B:ASP:366:OD1:8185, V-B:HIS:456:CE1:9041, H-A:GLY:454:N:4050, V-B:PRO:540:N:9856, V-B:TYR:484:CZ:9318, V-A:ILE:369:CD1:3239, V-B:PRO:540:CD:9859, V-A:GLU:543:CG:4907, V-B:TYR:539:CD2:9846, V-A:SER:385:CB:3409, V-B:GLU:543:CD:9880, V-A:LEU:475:CD2:4259, H-A:GLU:543:OE1:4909, V-B:TYR:539:CG:9844, V-A:GLU:543:CB:4906, V-B:TYR:539:CD1:9845, H-A:SER:385:O:3406, H-A:TYR:484:OH:4348"]

$$$$
ZINC575442678
     RDKit          3D

 40 42  0  0  0  0  0  0  0  0999 V2000
  132.7040  125.0840   65.1240 C   0  0  0  0  0  0  0  0  0  0  0  0
  131.2650  124.5460   64.8980 C   0  0  0  0  0  0  0  0  0  0  0  0
  131.2940  123.0210   64.6470 C   0  0  0  0  0  0  0  0  0  0  0  0
  130.5690  124.7690   66.1160 O   0  0  0  0  0  0  0  0  0  0  0  0
  129.9200  125.9750   65.9970 B   0  0  0  0  0  0  0  0  0  0  0  0
  129.2450  126.7340   67.1920 C   0  0  0  0  0  0  0  0  0  0  0  0
  128.9380  128.0970   67.2810 C   0  0  0  0  0  0  0  0  0  0  0  0
  128.3580  128.4160   68.4170 N   0  0  0  0  0  0  0  0  0  0  0  0
  128.3100  127.2660   69.1060 N   0  0  0  0  0  0  0  0  0  0  0  0
  127.6540  127.2320   70.4060 C   0  0  0  0  0  0  0  0  0  0  0  0
  128.6330  127.2740   71.5690 C   0  0  0  0  0  0  0  0  0  0  0  0
  128.8240  126.1680   72.4060 C   0  0  0  0  0  0  0  0  0  0  0  0
  129.6920  126.1850   73.4520 N   0  0  0  0  0  0  0  0  0  0  0  0
  130.3710  127.3450   73.6450 C   0  0  0  0  0  0  0  0  0  0  0  0
  130.2600  128.4750   72.8970 N   0  0  0  0  0  0  0  0  0  0  0  0
  129.3830  128.4190   71.8600 C   0  0  0  0  0  0  0  0  0  0  0  0
  128.8070  126.2060   68.3930 C   0  0  0  0  0  0  0  0  0  0  0  0
  129.9360  126.4340   64.7020 O   0  0  0  0  0  0  0  0  0  0  0  0
  130.3920  125.3680   63.8840 C   0  0  0  0  0  0  0  0  0  0  0  0
  131.1720  125.9860   62.7010 C   0  0  0  0  0  0  0  0  0  0  0  0
  129.1150  124.6460   63.3700 C   0  0  0  0  0  0  0  0  0  0  0  0
  132.9024  125.1582   66.2034 H   0  0  0  0  0  0  0  0  0  0  0  0
  133.4290  124.3962   64.6643 H   0  0  0  0  0  0  0  0  0  0  0  0
  132.8000  126.0787   64.6643 H   0  0  0  0  0  0  0  0  0  0  0  0
  131.3041  122.4909   65.6108 H   0  0  0  0  0  0  0  0  0  0  0  0
  130.4013  122.7264   64.0758 H   0  0  0  0  0  0  0  0  0  0  0  0
  132.1973  122.7605   64.0758 H   0  0  0  0  0  0  0  0  0  0  0  0
  129.1586  128.8237   66.4852 H   0  0  0  0  0  0  0  0  0  0  0  0
  126.9824  128.0998   70.4821 H   0  0  0  0  0  0  0  0  0  0  0  0
  127.1061  126.2804   70.4724 H   0  0  0  0  0  0  0  0  0  0  0  0
  128.2499  125.2505   72.2097 H   0  0  0  0  0  0  0  0  0  0  0  0
  131.0784  127.3732   74.4869 H   0  0  0  0  0  0  0  0  0  0  0  0
  129.2580  129.3083   71.2248 H   0  0  0  0  0  0  0  0  0  0  0  0
  128.8488  125.1536   68.7102 H   0  0  0  0  0  0  0  0  0  0  0  0
  131.9791  126.6254   63.0880 H   0  0  0  0  0  0  0  0  0  0  0  0
  131.6037  125.1822   62.0866 H   0  0  0  0  0  0  0  0  0  0  0  0
  130.4882  126.5901   62.0866 H   0  0  0  0  0  0  0  0  0  0  0  0
  128.5153  124.3069   64.2275 H   0  0  0  0  0  0  0  0  0  0  0  0
  128.5210  125.3419   62.7594 H   0  0  0  0  0  0  0  0  0  0  0  0
  129.4051  123.7782   62.7594 H   0  0  0  0  0  0  0  0  0  0  0  0
  1  2  1  0
  2  3  1  0
  2  4  1  0
  4  5  1  0
  5  6  1  0
  6  7  1  0
  7  8  2  0
  8  9  1  0
  9 10  1  0
 10 11  1  0
 11 12  2  0
 12 13  1  0
 13 14  2  0
 14 15  1  0
 15 16  2  0
  9 17  1  0
  5 18  1  0
 18 19  1  0
 19 20  1  0
 19 21  1  0
 19  2  1  0
 17  6  2  0
 16 11  1  0
  1 22  1  0
  1 23  1  0
  1 24  1  0
  3 25  1  0
  3 26  1  0
  3 27  1  0
  7 28  1  0
 10 29  1  0
 10 30  1  0
 12 31  1  0
 14 32  1  0
 16 33  1  0
 17 34  1  0
 20 35  1  0
 20 36  1  0
 20 37  1  0
 21 38  1  0
 21 39  1  0
 21 40  1  0
M  END
>  <Binding energies>  (1) 
[-5.46]

>  <Ligand effiencies>  (1) 
[-0.26]

>  <Interactions>  (1) 
["V-B:GLU:543:C:9874, V-B:HIS:456:CD2:9039, V-B:GLU:543:CB:9878, H-B:LYS:547:NZ:9923, V-A:TYR:484:CE2:4346, V-B:GLU:543:CG:9879, V-A:HIS:456:CD2:4068, V-A:GLU:543:CD:4908, V-A:TYR:484:CZ:4347, V-B:HIS:456:CE1:9041, V-B:GLU:543:CA:9876, V-A:HIS:456:CE1:4070, V-B:GLY:544:C:9884, V-A:GLU:543:CG:4907, V-B:GLU:543:CD:9880, H-A:LYS:547:NZ:4951, V-A:LEU:475:CD2:4259, V-A:ARG:545:CZ:4926, V-A:GLU:543:CB:4906, H-A:TYR:484:OH:4348"]

$$$$
ZINC575628849
     RDKit          3D

 34 37  0  0  0  0  0  0  0  0999 V2000
  126.4730  122.8440   61.6420 O   0  0  0  0  0  0  0  0  0  0  0  0
  127.3930  123.2510   60.9230 C   0  0  0  0  0  0  0  0  0  0  0  0
  128.8410  123.1940   61.2790 C   0  0  0  0  0  0  0  0  0  0  0  0
  129.1430  122.6570   62.4800 C   0  0  0  0  0  0  0  0  0  0  0  0
  130.5400  122.5030   63.0360 C   0  0  0  0  0  0  0  0  0  0  0  0
  131.6170  123.0280   62.0840 C   0  0  0  0  0  0  0  0  0  0  0  0
  131.3380  123.5800   60.8570 C   0  0  0  0  0  0  0  0  0  0  0  0
  132.5000  124.0840   59.9650 C   0  0  0  0  0  0  0  0  0  0  0  0
  133.8810  123.9090   60.5610 C   0  0  0  0  0  0  0  0  0  0  0  0
  134.1140  123.3680   61.7570 C   0  0  0  0  0  0  0  0  0  0  0  0
  133.0260  122.8600   62.6730 C   0  0  0  0  0  0  0  0  0  0  0  0
  129.9180  123.6900   60.3930 C   0  0  0  0  0  0  0  0  0  0  0  0
  129.5470  124.2250   59.1890 C   0  0  0  0  0  0  0  0  0  0  0  0
  130.4160  124.7230   58.2630 O   0  0  0  0  0  0  0  0  0  0  0  0
  128.1280  124.3280   58.7400 C   0  0  0  0  0  0  0  0  0  0  0  0
  127.7800  124.8860   57.4920 C   0  0  0  0  0  0  0  0  0  0  0  0
  126.4520  124.9750   57.0860 C   0  0  0  0  0  0  0  0  0  0  0  0
  125.4420  124.5100   57.9170 C   0  0  0  0  0  0  0  0  0  0  0  0
  125.7650  123.9560   59.1520 C   0  0  0  0  0  0  0  0  0  0  0  0
  127.1000  123.8570   59.5800 C   0  0  0  0  0  0  0  0  0  0  0  0
  128.3075  122.3041   63.1024 H   0  0  0  0  0  0  0  0  0  0  0  0
  130.6053  123.0600   63.9823 H   0  0  0  0  0  0  0  0  0  0  0  0
  130.7221  121.4281   63.1825 H   0  0  0  0  0  0  0  0  0  0  0  0
  132.4654  123.5321   59.0141 H   0  0  0  0  0  0  0  0  0  0  0  0
  132.3501  125.1671   59.8445 H   0  0  0  0  0  0  0  0  0  0  0  0
  134.7449  124.2491   59.9710 H   0  0  0  0  0  0  0  0  0  0  0  0
  135.1574  123.2871   62.0957 H   0  0  0  0  0  0  0  0  0  0  0  0
  133.2003  121.7910   62.8649 H   0  0  0  0  0  0  0  0  0  0  0  0
  133.0693  123.4559   63.5966 H   0  0  0  0  0  0  0  0  0  0  0  0
  130.2200  124.3430   57.4050 H   0  0  0  0  0  0  0  0  0  0  0  0
  128.5735  125.2578   56.8271 H   0  0  0  0  0  0  0  0  0  0  0  0
  126.2030  125.4131   56.1082 H   0  0  0  0  0  0  0  0  0  0  0  0
  124.3908  124.5791   57.6006 H   0  0  0  0  0  0  0  0  0  0  0  0
  124.9602  123.5886   59.8056 H   0  0  0  0  0  0  0  0  0  0  0  0
  1  2  2  0
  2  3  1  0
  3  4  2  0
  4  5  1  0
  5  6  1  0
  6  7  2  0
  7  8  1  0
  8  9  1  0
  9 10  2  0
 10 11  1  0
  7 12  1  0
 12 13  2  0
 13 14  1  0
 13 15  1  0
 15 16  2  0
 16 17  1  0
 17 18  2  0
 18 19  1  0
 19 20  2  0
 20  2  1  0
 12  3  1  0
 20 15  1  0
 11  6  1  0
  4 21  1  0
  5 22  1  0
  5 23  1  0
  8 24  1  0
  8 25  1  0
  9 26  1  0
 10 27  1  0
 11 28  1  0
 11 29  1  0
 14 30  1  0
 16 31  1  0
 17 32  1  0
 18 33  1  0
 19 34  1  0
M  END
>  <Binding energies>  (1) 
[-6.79]

>  <Ligand effiencies>  (1) 
[-0.32333333333333336]

>  <Interactions>  (1) 
["V-A:ILE:369:CG2:3237, V-B:PRO:540:CA:9855, V-A:ILE:369:CD1:3239, V-B:TYR:539:CZ:9849, V-A:GLY:454:CA:4049, H-B:TYR:539:OH:9850, H-B:ALA:541:N:9863, V-B:ALA:541:CB:9864, V-B:TYR:539:CE2:9848, V-B:PRO:540:CB:9857, V-A:LEU:475:CD2:4259"]

$$$$
ZINC5759225
     RDKit          3D

 40 39  0  0  0  0  0  0  0  0999 V2000
  131.7430  126.5350   58.0570 C   0  0  0  0  0  0  0  0  0  0  0  0
  131.3610  127.5370   59.1610 C   0  0  0  0  0  0  0  0  0  0  0  0
  130.1810  126.9990   59.9990 C   0  0  0  0  0  0  0  0  0  0  0  0
  131.0860  128.9340   58.5460 C   0  0  0  0  0  0  0  0  0  0  0  0
  131.8320  130.0670   59.3000 N   0  0  0  0  0  0  0  0  0  0  0  0
  131.8750  131.3880   58.4880 C   0  0  0  0  0  0  0  0  0  0  0  0
  130.4950  131.7660   57.8870 C   0  0  0  0  0  0  0  0  0  0  0  0
  130.6530  132.1950   56.4170 C   0  0  0  0  0  0  0  0  0  0  0  0
  129.7550  132.8530   58.6950 C   0  0  0  0  0  0  0  0  0  0  0  0
  131.3010  130.2740   60.7430 C   0  0  0  0  0  0  0  0  0  0  0  0
  131.8040  131.5970   61.3760 C   0  0  1  0  0  0  0  0  0  0  0  0
  131.0540  131.8960   62.5440 O   0  0  0  0  0  0  0  0  0  0  0  0
  133.2980  131.5080   61.7570 C   0  0  0  0  0  0  0  0  0  0  0  0
  133.4930  131.7830   63.1310 O   0  0  0  0  0  0  0  0  0  0  0  0
  132.0990  125.6012   58.5166 H   0  0  0  0  0  0  0  0  0  0  0  0
  130.8623  126.3239   57.4327 H   0  0  0  0  0  0  0  0  0  0  0  0
  132.5407  126.9638   57.4327 H   0  0  0  0  0  0  0  0  0  0  0  0
  132.2050  127.6572   59.8562 H   0  0  0  0  0  0  0  0  0  0  0  0
  130.4129  127.1047   61.0691 H   0  0  0  0  0  0  0  0  0  0  0  0
  129.2721  127.5717   59.7625 H   0  0  0  0  0  0  0  0  0  0  0  0
  130.0173  125.9373   59.7625 H   0  0  0  0  0  0  0  0  0  0  0  0
  131.4167  128.9299   57.4969 H   0  0  0  0  0  0  0  0  0  0  0  0
  130.0067  129.1304   58.6264 H   0  0  0  0  0  0  0  0  0  0  0  0
  132.7900  129.7600   59.3970 H   0  0  0  0  0  0  0  0  0  0  0  0
  132.2034  132.1998   59.1536 H   0  0  0  0  0  0  0  0  0  0  0  0
  132.5733  131.2412   57.6509 H   0  0  0  0  0  0  0  0  0  0  0  0
  129.8692  130.8630   57.9409 H   0  0  0  0  0  0  0  0  0  0  0  0
  131.0329  133.2265   56.3749 H   0  0  0  0  0  0  0  0  0  0  0  0
  131.3623  131.5221   55.9129 H   0  0  0  0  0  0  0  0  0  0  0  0
  129.6767  132.1429   55.9129 H   0  0  0  0  0  0  0  0  0  0  0  0
  129.8847  132.6624   59.7706 H   0  0  0  0  0  0  0  0  0  0  0  0
  130.1689  133.8411   58.4452 H   0  0  0  0  0  0  0  0  0  0  0  0
  128.6840  132.8302   58.4452 H   0  0  0  0  0  0  0  0  0  0  0  0
  130.2015  130.2917   60.7153 H   0  0  0  0  0  0  0  0  0  0  0  0
  131.6763  129.4441   61.3598 H   0  0  0  0  0  0  0  0  0  0  0  0
  131.6738  132.3913   60.6263 H   0  0  0  0  0  0  0  0  0  0  0  0
  131.3660  131.3310   63.2550 H   0  0  0  0  0  0  0  0  0  0  0  0
  133.6642  130.4940   61.5386 H   0  0  0  0  0  0  0  0  0  0  0  0
  133.8522  132.2554   61.1702 H   0  0  0  0  0  0  0  0  0  0  0  0
  132.8920  132.4840   63.3920 H   0  0  0  0  0  0  0  0  0  0  0  0
  1  2  1  0
  2  3  1  0
  2  4  1  0
  4  5  1  0
  5  6  1  0
  6  7  1  0
  7  8  1  0
  7  9  1  0
  5 10  1  0
 10 11  1  0
 11 12  1  0
 11 13  1  0
 13 14  1  0
  1 15  1  0
  1 16  1  0
  1 17  1  0
  2 18  1  0
  3 19  1  0
  3 20  1  0
  3 21  1  0
  4 22  1  0
  4 23  1  0
  5 24  1  0
  6 25  1  0
  6 26  1  0
  7 27  1  0
  8 28  1  0
  8 29  1  0
  8 30  1  0
  9 31  1  0
  9 32  1  0
  9 33  1  0
 10 34  1  0
 10 35  1  0
 11 36  1  6
 12 37  1  0
 13 38  1  0
 13 39  1  0
 14 40  1  0
M  CHG  1   5   1
M  END
>  <Binding energies>  (1) 
[-4.69]

>  <Ligand effiencies>  (1) 
[-0.27588235294117647]

>  <Interactions>  (1) 
["V-A:PRO:540:N:4884, H-A:ASN:362:ND2:3179, V-A:PRO:540:CB:4885, V-A:PRO:540:CA:4883, H-A:ALA:541:N:4891, H-A:ALA:541:O:4889, V-A:MET:535:CE:4835, H-A:ASP:366:OD2:3215, V-A:ASP:366:CB:3212, V-A:TYR:539:C:4867, H-A:GLU:543:OE1:4909, V-A:ASP:366:CG:3213, V-A:ASN:362:CB:3176"]

$$$$
ZINC576207743
     RDKit          3D

 42 43  0  0  0  0  0  0  0  0999 V2000
  132.4560  131.8180   62.4670 C   0  0  0  0  0  0  0  0  0  0  0  0
  131.1350  132.1820   62.0940 O   0  0  0  0  0  0  0  0  0  0  0  0
  130.1690  131.9150   63.1000 C   0  0  0  0  0  0  0  0  0  0  0  0
  128.7800  131.8260   62.4420 C   0  0  0  0  0  0  0  0  0  0  0  0
  128.1440  133.1940   62.0790 C   0  0  2  0  0  0  0  0  0  0  0  0
  126.6040  133.1670   62.1600 C   0  0  0  0  0  0  0  0  0  0  0  0
  128.5970  133.7120   60.6880 C   0  0  0  0  0  0  0  0  0  0  0  0
  129.3560  132.7520   59.8850 N   0  0  0  0  0  0  0  0  0  0  0  0
  129.5170  132.8080   58.5510 C   0  0  0  0  0  0  0  0  0  0  0  0
  129.0480  133.7150   57.8580 O   0  0  0  0  0  0  0  0  0  0  0  0
  130.4400  131.7300   57.9340 C   0  0  1  0  0  0  0  0  0  0  0  0
  131.7230  132.3340   57.3020 C   0  0  0  0  0  0  0  0  0  0  0  0
  132.8540  131.5330   57.9900 C   0  0  2  0  0  0  0  0  0  0  0  0
  132.8250  130.0540   57.5420 C   0  0  0  0  0  0  0  0  0  0  0  0
  131.5800  129.5000   58.2700 C   0  0  0  0  0  0  0  0  0  0  0  0
  131.0300  130.7500   58.9920 C   0  0  1  0  0  0  0  0  0  0  0  0
  132.3330  131.4300   59.4190 C   0  0  0  0  0  0  0  0  0  0  0  0
  132.5345  131.7964   63.5640 H   0  0  0  0  0  0  0  0  0  0  0  0
  132.6898  130.8220   62.0630 H   0  0  0  0  0  0  0  0  0  0  0  0
  133.1670  132.5537   62.0630 H   0  0  0  0  0  0  0  0  0  0  0  0
  130.4051  130.9619   63.5958 H   0  0  0  0  0  0  0  0  0  0  0  0
  130.1770  132.7203   63.8493 H   0  0  0  0  0  0  0  0  0  0  0  0
  128.8760  131.2371   61.5179 H   0  0  0  0  0  0  0  0  0  0  0  0
  128.1143  131.3619   63.1846 H   0  0  0  0  0  0  0  0  0  0  0  0
  128.5136  133.8983   62.8388 H   0  0  0  0  0  0  0  0  0  0  0  0
  126.2924  133.1615   63.2149 H   0  0  0  0  0  0  0  0  0  0  0  0
  126.1949  134.0581   61.6614 H   0  0  0  0  0  0  0  0  0  0  0  0
  126.2264  132.2621   61.6614 H   0  0  0  0  0  0  0  0  0  0  0  0
  127.6982  133.9955   60.1207 H   0  0  0  0  0  0  0  0  0  0  0  0
  129.2769  134.5548   60.8815 H   0  0  0  0  0  0  0  0  0  0  0  0
  129.7950  131.9950   60.3890 H   0  0  0  0  0  0  0  0  0  0  0  0
  129.7800  131.2347   57.2067 H   0  0  0  0  0  0  0  0  0  0  0  0
  131.7368  132.1830   56.2125 H   0  0  0  0  0  0  0  0  0  0  0  0
  131.8093  133.4211   57.4465 H   0  0  0  0  0  0  0  0  0  0  0  0
  133.8378  131.9898   57.8071 H   0  0  0  0  0  0  0  0  0  0  0  0
  132.7146  129.9727   56.4506 H   0  0  0  0  0  0  0  0  0  0  0  0
  133.7491  129.5079   57.7827 H   0  0  0  0  0  0  0  0  0  0  0  0
  130.8467  129.0995   57.5545 H   0  0  0  0  0  0  0  0  0  0  0  0
  131.8053  128.6650   58.9497 H   0  0  0  0  0  0  0  0  0  0  0  0
  130.2879  130.5135   59.7688 H   0  0  0  0  0  0  0  0  0  0  0  0
  132.1773  132.4082   59.8974 H   0  0  0  0  0  0  0  0  0  0  0  0
  132.9618  130.9350   60.1737 H   0  0  0  0  0  0  0  0  0  0  0  0
  1  2  1  0
  2  3  1  0
  3  4  1  0
  4  5  1  0
  5  6  1  0
  5  7  1  0
  7  8  1  0
  8  9  1  0
  9 10  2  0
  9 11  1  0
 11 12  1  0
 12 13  1  0
 13 14  1  0
 14 15  1  0
 15 16  1  0
 16 17  1  0
 16 11  1  0
 17 13  1  0
  1 18  1  0
  1 19  1  0
  1 20  1  0
  3 21  1  0
  3 22  1  0
  4 23  1  0
  4 24  1  0
  5 25  1  1
  6 26  1  0
  6 27  1  0
  6 28  1  0
  7 29  1  0
  7 30  1  0
  8 31  1  0
 11 32  1  6
 12 33  1  0
 12 34  1  0
 13 35  1  1
 14 36  1  0
 14 37  1  0
 15 38  1  0
 15 39  1  0
 16 40  1  1
 17 41  1  0
 17 42  1  0
M  END
>  <Binding energies>  (1) 
[-5.35]

>  <Ligand effiencies>  (1) 
[-0.2972222222222222]

>  <Interactions>  (1) 
["V-A:ALA:541:C:4888, H-A:ALA:541:N:4891, V-A:PRO:540:C:4881, V-B:LEU:475:CD2:9230, V-A:ASP:366:CG:3213, V-A:ASN:362:CB:3176, V-A:TYR:539:CD1:4873, V-A:LEU:363:CD1:3189, V-A:TYR:531:CE2:4793, V-A:ALA:541:CB:4892, V-A:GLU:543:CD:4908, V-A:ALA:541:CA:4890, V-A:GLU:543:CG:4907, V-A:TYR:531:CZ:4794, V-A:TYR:539:C:4867, V-A:ASP:366:CB:3212, V-A:PRO:540:N:4884, H-A:TYR:539:N:4870, V-A:PRO:540:CB:4885, V-A:PRO:540:CA:4883"]

$$$$
ZINC5785000
     RDKit          3D

 27 28  0  0  0  0  0  0  0  0999 V2000
  129.4610  126.8100   67.6470 C   0  0  0  0  0  0  0  0  0  0  0  0
  129.8230  125.5190   67.5880 C   0  0  0  0  0  0  0  0  0  0  0  0
  130.4010  124.8410   66.3630 C   0  0  0  0  0  0  0  0  0  0  0  0
  131.5880  125.4680   65.8020 N   0  0  0  0  0  0  0  0  0  0  0  0
  132.3090  125.0030   64.7320 C   0  0  0  0  0  0  0  0  0  0  0  0
  133.6020  124.8050   64.6870 N   0  0  0  0  0  0  0  0  0  0  0  0
  134.0230  124.3220   63.4540 N   0  0  0  0  0  0  0  0  0  0  0  0
  133.0460  124.1580   62.5930 C   0  0  0  0  0  0  0  0  0  0  0  0
  133.3190  123.5670   60.9480 S   0  0  0  0  0  0  0  0  0  0  0  0
  133.3050  125.0980   59.9490 C   0  0  2  0  0  0  0  0  0  0  0  0
  132.0290  125.9180   60.0520 C   0  0  0  0  0  0  0  0  0  0  0  0
  131.7900  126.4330   58.6410 C   0  0  0  0  0  0  0  0  0  0  0  0
  132.4000  125.4600   57.8030 O   0  0  0  0  0  0  0  0  0  0  0  0
  133.3030  124.7130   58.4700 C   0  0  0  0  0  0  0  0  0  0  0  0
  133.9730  123.8540   57.9000 O   0  0  0  0  0  0  0  0  0  0  0  0
  131.4910  124.6090   63.2530 S   0  0  0  0  0  0  0  0  0  0  0  0
  129.0484  127.2235   68.5791 H   0  0  0  0  0  0  0  0  0  0  0  0
  129.5769  127.4547   66.7633 H   0  0  0  0  0  0  0  0  0  0  0  0
  129.6905  124.9096   68.4941 H   0  0  0  0  0  0  0  0  0  0  0  0
  130.6611  123.8082   66.6382 H   0  0  0  0  0  0  0  0  0  0  0  0
  129.6262  124.9107   65.5852 H   0  0  0  0  0  0  0  0  0  0  0  0
  131.6840  126.4340   66.0810 H   0  0  0  0  0  0  0  0  0  0  0  0
  134.1703  125.6693   60.3163 H   0  0  0  0  0  0  0  0  0  0  0  0
  131.1892  125.2897   60.3837 H   0  0  0  0  0  0  0  0  0  0  0  0
  132.1149  126.7335   60.7852 H   0  0  0  0  0  0  0  0  0  0  0  0
  130.7128  126.5078   58.4309 H   0  0  0  0  0  0  0  0  0  0  0  0
  132.2044  127.4401   58.4857 H   0  0  0  0  0  0  0  0  0  0  0  0
  1  2  2  0
  2  3  1  0
  3  4  1  0
  4  5  1  0
  5  6  2  0
  6  7  1  0
  7  8  2  0
  8  9  1  0
  9 10  1  0
 10 11  1  0
 11 12  1  0
 12 13  1  0
 13 14  1  0
 14 15  2  0
  8 16  1  0
 16  5  1  0
 14 10  1  0
  1 17  1  0
  1 18  1  0
  2 19  1  0
  3 20  1  0
  3 21  1  0
  4 22  1  0
 10 23  1  6
 11 24  1  0
 11 25  1  0
 12 26  1  0
 12 27  1  0
M  END
>  <Binding energies>  (1) 
[-6.34]

>  <Ligand effiencies>  (1) 
[-0.3729411764705882]

>  <Interactions>  (1) 
["V-A:ASP:366:CA:3210, H-A:GLU:543:OE2:4910, V-B:GLU:543:CB:9878, H-A:TYR:531:OH:4795, V-A:TYR:484:CE2:4346, V-B:TYR:539:CE2:9848, V-B:GLU:543:CG:9879, V-A:ASP:366:CG:3213, V-B:TYR:539:CZ:9849, H-A:ASN:370:N:3244, H-B:TYR:539:OH:9850, V-A:GLU:543:CD:4908, V-A:TYR:484:CZ:4347, V-B:GLU:543:CA:9876, H-A:GLY:454:N:4050, V-A:HIS:456:CE1:4070, V-A:ASP:366:C:3208, V-A:ASP:366:CB:3212, H-A:ARG:545:NH2:4928, V-A:ARG:545:CZ:4926, H-A:GLU:543:OE1:4909, H-A:ARG:545:NE:4924, H-A:TYR:484:OH:4348"]

$$$$
ZINC5822594
     RDKit          3D

 26 27  0  0  0  0  0  0  0  0999 V2000
  129.9620  121.1730   74.9660 C   0  0  0  0  0  0  0  0  0  0  0  0
  130.0020  122.3910   75.6940 O   0  0  0  0  0  0  0  0  0  0  0  0
  131.3440  122.7640   75.8830 N   0  0  0  0  0  0  0  0  0  0  0  0
  131.5320  123.9770   75.5510 C   0  0  0  0  0  0  0  0  0  0  0  0
  130.5080  124.9730   74.9820 C   0  0  0  0  0  0  0  0  0  0  0  0
  131.1320  126.3780   75.0630 C   0  0  2  0  0  0  0  0  0  0  0  0
  130.8850  127.1390   73.8360 N   0  0  0  0  0  0  0  0  0  0  0  0
  129.8260  127.0030   73.1150 C   0  0  0  0  0  0  0  0  0  0  0  0
  128.8470  126.2450   73.2690 O   0  0  0  0  0  0  0  0  0  0  0  0
  129.7660  127.9250   71.8650 C   0  0  0  0  0  0  0  0  0  0  0  0
  128.7320  127.6340   71.0670 F   0  0  0  0  0  0  0  0  0  0  0  0
  129.6390  129.2060   72.2300 F   0  0  0  0  0  0  0  0  0  0  0  0
  130.8800  127.8000   71.1370 F   0  0  0  0  0  0  0  0  0  0  0  0
  132.5840  126.0650   75.2400 C   0  0  0  0  0  0  0  0  0  0  0  0
  133.7740  126.8020   75.1930 C   0  0  0  0  0  0  0  0  0  0  0  0
  134.8800  126.0250   75.5180 C   0  0  0  0  0  0  0  0  0  0  0  0
  134.4430  124.3830   75.8850 S   0  0  0  0  0  0  0  0  0  0  0  0
  132.7740  124.7370   75.5580 C   0  0  0  0  0  0  0  0  0  0  0  0
  129.9342  120.3268   75.6683 H   0  0  0  0  0  0  0  0  0  0  0  0
  129.0627  121.1537   74.3328 H   0  0  0  0  0  0  0  0  0  0  0  0
  130.8581  121.0947   74.3328 H   0  0  0  0  0  0  0  0  0  0  0  0
  130.2825  124.7223   73.9349 H   0  0  0  0  0  0  0  0  0  0  0  0
  129.5699  124.9329   75.5551 H   0  0  0  0  0  0  0  0  0  0  0  0
  130.7189  127.0052   75.8667 H   0  0  0  0  0  0  0  0  0  0  0  0
  133.8272  127.8688   74.9302 H   0  0  0  0  0  0  0  0  0  0  0  0
  135.9120  126.4051   75.5403 H   0  0  0  0  0  0  0  0  0  0  0  0
  1  2  1  0
  2  3  1  0
  3  4  2  0
  4  5  1  0
  5  6  1  0
  6  7  1  0
  7  8  2  0
  8  9  1  0
  8 10  1  0
 10 11  1  0
 10 12  1  0
 10 13  1  0
  6 14  1  0
 14 15  1  0
 15 16  2  0
 16 17  1  0
 17 18  1  0
 18  4  1  0
 18 14  2  0
  1 19  1  0
  1 20  1  0
  1 21  1  0
  5 22  1  0
  5 23  1  0
  6 24  1  1
 15 25  1  0
 16 26  1  0
M  CHG  1   9  -1
M  END
>  <Binding energies>  (1) 
[-5.25]

>  <Ligand effiencies>  (1) 
[-0.2916666666666667]

>  <Interactions>  (1) 
["V-A:VAL:457:CA:4075, V-A:HIS:456:CE1:4070, V-B:HIS:456:CD2:9039, V-A:LYS:547:CG:4948, V-B:HIS:456:CE1:9041, V-A:GLU:543:C:4902, V-A:HIS:456:CB:4065, H-B:LYS:547:NZ:9923, V-A:VAL:457:C:4073, H-A:LYS:547:NZ:4951, V-A:HIS:456:C:4061, V-A:VAL:458:CG2:4087, V-A:GLY:544:C:4912, H-A:LYS:471:NZ:4221, V-A:HIS:456:CD2:4068, V-A:HIS:456:CG:4066"]

$$$$
ZINC5822594-again1
     RDKit          3D

 27 28  0  0  0  0  0  0  0  0999 V2000
  126.7180  133.5650   60.9040 C   0  0  0  0  0  0  0  0  0  0  0  0
  126.9600  132.3600   60.1970 O   0  0  0  0  0  0  0  0  0  0  0  0
  127.7520  132.6450   59.0700 N   0  0  0  0  0  0  0  0  0  0  0  0
  128.8780  132.0580   59.1420 C   0  0  0  0  0  0  0  0  0  0  0  0
  129.4020  131.1600   60.2730 C   0  0  0  0  0  0  0  0  0  0  0  0
  130.7120  130.4990   59.7930 C   0  0  2  0  0  0  0  0  0  0  0  0
  131.7820  130.5640   60.7910 N   0  0  0  0  0  0  0  0  0  0  0  0
  131.9810  131.5820   61.6500 C   0  0  0  0  0  0  0  0  0  0  0  0
  131.2580  132.5800   61.6780 O   0  0  0  0  0  0  0  0  0  0  0  0
  133.1870  131.4910   62.6010 C   0  0  0  0  0  0  0  0  0  0  0  0
  133.8900  130.3750   62.3950 F   0  0  0  0  0  0  0  0  0  0  0  0
  133.9780  132.5440   62.3990 F   0  0  0  0  0  0  0  0  0  0  0  0
  132.7610  131.5130   63.8640 F   0  0  0  0  0  0  0  0  0  0  0  0
  131.0280  131.2820   58.5580 C   0  0  0  0  0  0  0  0  0  0  0  0
  132.1140  131.3450   57.6770 C   0  0  0  0  0  0  0  0  0  0  0  0
  131.8830  132.2250   56.6270 C   0  0  0  0  0  0  0  0  0  0  0  0
  130.3170  132.9720   56.7310 S   0  0  0  0  0  0  0  0  0  0  0  0
  129.9880  132.1150   58.2050 C   0  0  0  0  0  0  0  0  0  0  0  0
  126.7572  133.3696   61.9858 H   0  0  0  0  0  0  0  0  0  0  0  0
  127.4851  134.3070   60.6373 H   0  0  0  0  0  0  0  0  0  0  0  0
  125.7239  133.9533   60.6373 H   0  0  0  0  0  0  0  0  0  0  0  0
  129.5971  131.7659   61.1701 H   0  0  0  0  0  0  0  0  0  0  0  0
  128.6571  130.3908   60.5249 H   0  0  0  0  0  0  0  0  0  0  0  0
  130.6109  129.4187   59.6121 H   0  0  0  0  0  0  0  0  0  0  0  0
  132.4520  129.8080   60.7750 H   0  0  0  0  0  0  0  0  0  0  0  0
  133.0410  130.7660   57.8014 H   0  0  0  0  0  0  0  0  0  0  0  0
  132.6069  132.4256   55.8234 H   0  0  0  0  0  0  0  0  0  0  0  0
  1  2  1  0
  2  3  1  0
  3  4  2  0
  4  5  1  0
  5  6  1  0
  6  7  1  0
  7  8  1  0
  8  9  2  0
  8 10  1  0
 10 11  1  0
 10 12  1  0
 10 13  1  0
  6 14  1  0
 14 15  1  0
 15 16  2  0
 16 17  1  0
 17 18  1  0
 18  4  1  0
 18 14  2  0
  1 19  1  0
  1 20  1  0
  1 21  1  0
  5 22  1  0
  5 23  1  0
  6 24  1  6
  7 25  1  0
 15 26  1  0
 16 27  1  0
M  END
>  <Binding energies>  (1) 
[-5.05]

>  <Ligand effiencies>  (1) 
[-0.2657894736842105]

>  <Interactions>  (1) 
["V-A:ALA:541:C:4888, H-A:ALA:541:N:4891, V-A:ILE:538:CB:4862, V-A:ASP:366:CG:3213, V-A:ASN:362:CB:3176, V-A:LEU:363:CD1:3189, V-A:TYR:539:CD1:4873, V-A:ILE:538:CA:4860, V-A:GLU:543:CD:4908, V-A:ASN:362:CG:3177, V-A:GLU:543:CG:4907, V-A:ASN:362:C:3172, V-A:ARG:545:CZ:4926, H-A:GLU:543:OE1:4909, V-A:PRO:540:N:4884, V-A:PRO:540:CB:4885, V-A:PRO:540:CA:4883, V-A:ASN:362:CA:3174, H-A:ASP:366:OD2:3215, V-A:TYR:539:CE1:4875"]

$$$$
ZINC5824383
     RDKit          3D

 69 72  0  0  0  0  0  0  0  0999 V2000
  131.3670  127.5150   60.4680 C   0  0  0  0  0  0  0  0  0  0  0  0
  131.1250  126.3030   61.3620 C   0  0  0  0  0  0  0  0  0  0  0  0
  132.1210  125.5570   61.6460 N   0  0  0  0  0  0  0  0  0  0  0  0
  131.9290  124.4300   62.3600 N   0  0  0  0  0  0  0  0  0  0  0  0
  132.8150  124.2240   63.8640 S   0  0  0  0  0  0  0  0  0  0  0  0
  133.9990  125.0900   63.7980 O   0  0  0  0  0  0  0  0  0  0  0  0
  132.9560  122.7860   64.1190 O   0  0  0  0  0  0  0  0  0  0  0  0
  131.7210  124.8760   65.1180 C   0  0  0  0  0  0  0  0  0  0  0  0
  130.3350  124.8300   64.9520 C   0  0  0  0  0  0  0  0  0  0  0  0
  129.5030  125.3390   65.9460 C   0  0  0  0  0  0  0  0  0  0  0  0
  130.0580  125.8910   67.1030 C   0  0  0  0  0  0  0  0  0  0  0  0
  129.1540  126.4560   68.1840 C   0  0  0  0  0  0  0  0  0  0  0  0
  131.4440  125.9420   67.2630 C   0  0  0  0  0  0  0  0  0  0  0  0
  132.2760  125.4350   66.2700 C   0  0  0  0  0  0  0  0  0  0  0  0
  129.6540  126.1030   61.8600 C   0  0  1  0  0  0  0  0  0  0  0  0
  128.9310  127.4660   62.0990 C   0  0  0  0  0  0  0  0  0  0  0  0
  127.4370  127.3120   62.4840 N   0  0  0  0  0  0  0  0  0  0  0  0
  126.4840  127.3340   61.2710 C   0  0  0  0  0  0  0  0  0  0  0  0
  127.0200  128.3670   63.5280 C   0  0  0  0  0  0  0  0  0  0  0  0
  128.8300  125.1610   60.9060 C   0  0  1  0  0  0  0  0  0  0  0  0
  128.8670  125.5470   59.4160 C   0  0  0  0  0  0  0  0  0  0  0  0
  129.0130  124.5730   58.4210 C   0  0  0  0  0  0  0  0  0  0  0  0
  129.0680  124.9420   57.0800 C   0  0  0  0  0  0  0  0  0  0  0  0
  128.9850  126.2870   56.7300 C   0  0  0  0  0  0  0  0  0  0  0  0
  128.8470  127.2660   57.7100 C   0  0  0  0  0  0  0  0  0  0  0  0
  128.7900  126.8970   59.0510 C   0  0  0  0  0  0  0  0  0  0  0  0
  129.0300  123.6250   61.1040 C   0  0  0  0  0  0  0  0  0  0  0  0
  130.2480  122.9820   60.6950 C   0  0  0  0  0  0  0  0  0  0  0  0
  131.1850  123.6610   60.1510 O   0  0  0  0  0  0  0  0  0  0  0  0
  130.4320  121.5800   60.8990 C   0  0  0  0  0  0  0  0  0  0  0  0
  131.5900  120.8700   60.5260 C   0  0  0  0  0  0  0  0  0  0  0  0
  131.6970  119.4980   60.7600 C   0  0  0  0  0  0  0  0  0  0  0  0
  130.6500  118.8100   61.3700 C   0  0  0  0  0  0  0  0  0  0  0  0
  129.4960  119.4930   61.7480 C   0  0  0  0  0  0  0  0  0  0  0  0
  129.3950  120.8650   61.5120 C   0  0  0  0  0  0  0  0  0  0  0  0
  128.2260  121.4740   61.9180 O   0  0  0  0  0  0  0  0  0  0  0  0
  128.0260  122.8160   61.7430 C   0  0  0  0  0  0  0  0  0  0  0  0
  126.9060  123.2190   62.1900 O   0  0  0  0  0  0  0  0  0  0  0  0
  131.5442  128.4024   61.0934 H   0  0  0  0  0  0  0  0  0  0  0  0
  132.2464  127.3324   59.8329 H   0  0  0  0  0  0  0  0  0  0  0  0
  130.4849  127.6842   59.8329 H   0  0  0  0  0  0  0  0  0  0  0  0
  130.9840  124.0380   62.3460 H   0  0  0  0  0  0  0  0  0  0  0  0
  129.9023  124.3935   64.0397 H   0  0  0  0  0  0  0  0  0  0  0  0
  128.4107  125.3064   65.8203 H   0  0  0  0  0  0  0  0  0  0  0  0
  129.5619  126.2011   69.1733 H   0  0  0  0  0  0  0  0  0  0  0  0
  129.0986  127.5498   68.0810 H   0  0  0  0  0  0  0  0  0  0  0  0
  128.1466  126.0265   68.0810 H   0  0  0  0  0  0  0  0  0  0  0  0
  131.8775  126.3825   68.1730 H   0  0  0  0  0  0  0  0  0  0  0  0
  133.3684  125.4746   66.3925 H   0  0  0  0  0  0  0  0  0  0  0  0
  129.7137  125.5952   62.8339 H   0  0  0  0  0  0  0  0  0  0  0  0
  129.4476  127.9967   62.9123 H   0  0  0  0  0  0  0  0  0  0  0  0
  128.9660  128.0225   61.1508 H   0  0  0  0  0  0  0  0  0  0  0  0
  127.3380  126.4090   62.9260 H   0  0  0  0  0  0  0  0  0  0  0  0
  125.4423  127.3580   61.6235 H   0  0  0  0  0  0  0  0  0  0  0  0
  126.6858  128.2277   60.6623 H   0  0  0  0  0  0  0  0  0  0  0  0
  126.6444  126.4319   60.6623 H   0  0  0  0  0  0  0  0  0  0  0  0
  127.1790  127.9648   64.5394 H   0  0  0  0  0  0  0  0  0  0  0  0
  127.6270  129.2746   63.3947 H   0  0  0  0  0  0  0  0  0  0  0  0
  125.9565  128.6143   63.3947 H   0  0  0  0  0  0  0  0  0  0  0  0
  127.8088  125.3640   61.2608 H   0  0  0  0  0  0  0  0  0  0  0  0
  129.0846  123.5114   58.7002 H   0  0  0  0  0  0  0  0  0  0  0  0
  129.1766  124.1741   56.2999 H   0  0  0  0  0  0  0  0  0  0  0  0
  129.0288  126.5785   55.6702 H   0  0  0  0  0  0  0  0  0  0  0  0
  128.7833  128.3268   57.4259 H   0  0  0  0  0  0  0  0  0  0  0  0
  128.6840  127.6690   59.8274 H   0  0  0  0  0  0  0  0  0  0  0  0
  132.4217  121.4043   60.0435 H   0  0  0  0  0  0  0  0  0  0  0  0
  132.6088  118.9594   60.4625 H   0  0  0  0  0  0  0  0  0  0  0  0
  130.7345  117.7286   61.5529 H   0  0  0  0  0  0  0  0  0  0  0  0
  128.6678  118.9532   62.2305 H   0  0  0  0  0  0  0  0  0  0  0  0
  1  2  1  0
  2  3  2  0
  3  4  1  0
  4  5  1  0
  5  6  2  0
  5  7  2  0
  5  8  1  0
  8  9  2  0
  9 10  1  0
 10 11  2  0
 11 12  1  0
 11 13  1  0
 13 14  2  0
  2 15  1  0
 15 16  1  0
 16 17  1  0
 17 18  1  0
 17 19  1  0
 15 20  1  0
 20 21  1  0
 21 22  2  0
 22 23  1  0
 23 24  2  0
 24 25  1  0
 25 26  2  0
 20 27  1  0
 27 28  2  0
 28 29  1  0
 28 30  1  0
 30 31  2  0
 31 32  1  0
 32 33  2  0
 33 34  1  0
 34 35  2  0
 35 36  1  0
 36 37  1  0
 37 38  2  0
 14  8  1  0
 26 21  1  0
 37 27  1  0
 35 30  1  0
  1 39  1  0
  1 40  1  0
  1 41  1  0
  4 42  1  0
  9 43  1  0
 10 44  1  0
 12 45  1  0
 12 46  1  0
 12 47  1  0
 13 48  1  0
 14 49  1  0
 15 50  1  1
 16 51  1  0
 16 52  1  0
 17 53  1  0
 18 54  1  0
 18 55  1  0
 18 56  1  0
 19 57  1  0
 19 58  1  0
 19 59  1  0
 20 60  1  1
 22 61  1  0
 23 62  1  0
 24 63  1  0
 25 64  1  0
 26 65  1  0
 31 66  1  0
 32 67  1  0
 33 68  1  0
 34 69  1  0
M  CHG  2  17   1  29  -1
M  END
>  <Binding energies>  (1) 
[-7.73]

>  <Ligand effiencies>  (1) 
[-0.19325]

>  <Interactions>  (1) 
["V-B:PRO:540:CA:9855, V-B:GLU:543:CB:9878, V-B:ASP:366:CG:8184, V-B:ALA:541:CB:9864, H-A:ARG:545:NH1:4927, V-B:TYR:539:CE2:9848, V-A:LEU:475:CG:4257, V-B:GLU:543:CG:9879, V-B:TYR:539:C:9839, V-A:ASP:366:CG:3213, V-B:TYR:539:CZ:9849, H-B:GLU:543:OE1:9881, H-B:ALA:541:N:9863, V-A:GLU:543:CD:4908, V-A:TYR:484:CZ:4347, H-A:GLY:454:N:4050, V-A:HIS:456:CE1:4070, V-B:TYR:539:CD2:9846, V-A:SER:385:CB:3409, V-B:GLU:543:CD:9880, V-A:LEU:475:CD2:4259, H-A:ARG:545:NH2:4928, V-A:ARG:545:CZ:4926, H-B:GLU:543:OE2:9882, H-A:ARG:545:NE:4924, V-B:PRO:540:C:9853, V-B:ALA:541:CA:9862, H-A:TYR:484:OH:4348"]

$$$$
ZINC584571166
     RDKit          3D

130132  0  0  0  0  0  0  0  0999 V2000
  131.9220  120.2860   60.1910 C   0  0  0  0  0  0  0  0  0  0  0  0
  130.9340  120.3970   61.3650 C   0  0  0  0  0  0  0  0  0  0  0  0
  130.1010  121.7010   61.3750 C   0  0  1  0  0  0  0  0  0  0  0  0
  129.7940  122.2050   59.9710 C   0  0  0  0  0  0  0  0  0  0  0  0
  128.9120  123.1790   59.6890 C   0  0  0  0  0  0  0  0  0  0  0  0
  128.5650  123.5680   58.3340 C   0  0  0  0  0  0  0  0  0  0  0  0
  127.9160  124.6970   57.9930 C   0  0  0  0  0  0  0  0  0  0  0  0
  127.5010  125.8390   58.9120 C   0  0  0  0  0  0  0  0  0  0  0  0
  127.6220  127.2600   58.2950 C   0  0  1  0  0  0  0  0  0  0  0  0
  126.5700  128.1870   58.9610 C   0  0  0  0  0  0  0  0  0  0  0  0
  129.1030  127.8000   58.3490 C   0  0  2  0  0  0  0  0  0  0  0  0
  129.8420  127.2230   59.4170 O   0  0  0  0  0  0  0  0  0  0  0  0
  129.2960  129.3700   58.3590 C   0  0  1  0  0  0  0  0  0  0  0  0
  130.5460  129.8030   57.5490 C   0  0  0  0  0  0  0  0  0  0  0  0
  128.2190  129.9520   57.6380 O   0  0  0  0  0  0  0  0  0  0  0  0
  129.3100  130.0090   59.7880 C   0  0  0  0  0  0  0  0  0  0  0  0
  129.9250  129.4920   60.7240 O   0  0  0  0  0  0  0  0  0  0  0  0
  128.4700  131.2850   60.0420 C   0  0  1  0  0  0  0  0  0  0  0  0
  126.9600  130.9590   60.0230 C   0  0  0  0  0  0  0  0  0  0  0  0
  128.9000  132.1850   61.2470 C   0  0  2  0  0  0  0  0  0  0  0  0
  129.6860  133.2800   60.8220 O   0  0  0  0  0  0  0  0  0  0  0  0
  129.5250  131.4960   62.5120 C   0  0  1  0  0  0  0  0  0  0  0  0
  130.8150  132.1540   63.0570 C   0  0  0  0  0  0  0  0  0  0  0  0
  128.4580  131.2030   63.6050 C   0  0  0  0  0  0  0  0  0  0  0  0
  128.3690  131.9790   64.5550 O   0  0  0  0  0  0  0  0  0  0  0  0
  127.5270  129.9590   63.5760 C   0  0  1  0  0  0  0  0  0  0  0  0
  126.0400  130.3530   63.3990 C   0  0  0  0  0  0  0  0  0  0  0  0
  128.0170  128.7770   62.6790 C   0  0  2  0  0  0  0  0  0  0  0  0
  127.2500  128.7070   61.4880 O   0  0  0  0  0  0  0  0  0  0  0  0
  128.0300  127.3720   63.3750 C   0  0  1  0  0  0  0  0  0  0  0  0
  128.0990  126.1880   62.3880 C   0  0  0  0  0  0  0  0  0  0  0  0
  129.0310  127.2040   64.5180 C   0  0  0  0  0  0  0  0  0  0  0  0
  128.7530  126.9840   65.8200 C   0  0  0  0  0  0  0  0  0  0  0  0
  129.7930  126.7780   66.8180 C   0  0  0  0  0  0  0  0  0  0  0  0
  129.9340  127.4970   67.8110 O   0  0  0  0  0  0  0  0  0  0  0  0
  130.5880  125.7260   66.5040 O   0  0  0  0  0  0  0  0  0  0  0  0
  130.6670  125.1720   65.1840 C   0  0  2  0  0  0  0  0  0  0  0  0
  129.4780  124.2070   64.9880 C   0  0  2  0  0  0  0  0  0  0  0  0
  129.4210  123.0790   66.0500 C   0  0  0  0  0  0  0  0  0  0  0  0
  129.5670  123.6650   63.5440 C   0  0  2  0  0  0  0  0  0  0  0  0
  128.4090  122.7370   63.0960 C   0  0  0  0  0  0  0  0  0  0  0  0
  128.7920  121.5440   62.1890 C   0  0  0  0  0  0  0  0  0  0  0  0
  130.8020  122.9560   63.4010 O   0  0  0  0  0  0  0  0  0  0  0  0
  131.9800  123.7370   63.4980 C   0  0  1  0  0  0  0  0  0  0  0  0
  133.1550  122.7410   63.3020 C   0  0  0  0  0  0  0  0  0  0  0  0
  133.2420  122.2300   61.8500 C   0  0  0  0  0  0  0  0  0  0  0  0
  133.2550  123.4050   60.8570 C   0  0  2  0  0  0  0  0  0  0  0  0
  134.5580  124.2340   60.9410 C   0  0  0  0  0  0  0  0  0  0  0  0
  131.9770  124.2310   61.1350 C   0  0  2  0  0  0  0  0  0  0  0  0
  131.7440  125.3920   60.1430 C   0  0  0  0  0  0  0  0  0  0  0  0
  131.8750  124.9900   58.6570 C   0  0  1  0  0  0  0  0  0  0  0  0
  131.7240  126.1840   57.7030 C   0  0  0  0  0  0  0  0  0  0  0  0
  133.1350  124.3910   58.4250 O   0  0  0  0  0  0  0  0  0  0  0  0
  132.0140  124.7280   62.4810 O   0  0  0  0  0  0  0  0  0  0  0  0
  132.0300  124.4750   64.8760 C   0  0  1  0  0  0  0  0  0  0  0  0
  133.2190  125.4610   64.9900 C   0  0  0  0  0  0  0  0  0  0  0  0
  132.9440  120.1712   60.5814 H   0  0  0  0  0  0  0  0  0  0  0  0
  131.6640  119.4112   59.5761 H   0  0  0  0  0  0  0  0  0  0  0  0
  131.8645  121.1963   59.5761 H   0  0  0  0  0  0  0  0  0  0  0  0
  130.2399  119.5452   61.3129 H   0  0  0  0  0  0  0  0  0  0  0  0
  131.5371  120.4013   62.2849 H   0  0  0  0  0  0  0  0  0  0  0  0
  130.7272  122.4567   61.8717 H   0  0  0  0  0  0  0  0  0  0  0  0
  130.3306  121.7403   59.1307 H   0  0  0  0  0  0  0  0  0  0  0  0
  128.4298  123.7068   60.5250 H   0  0  0  0  0  0  0  0  0  0  0  0
  128.8555  122.8859   57.5214 H   0  0  0  0  0  0  0  0  0  0  0  0
  127.6557  124.8076   56.9300 H   0  0  0  0  0  0  0  0  0  0  0  0
  126.4510  125.6807   59.1992 H   0  0  0  0  0  0  0  0  0  0  0  0
  128.1970  125.8149   59.7635 H   0  0  0  0  0  0  0  0  0  0  0  0
  127.3928  127.2287   57.2196 H   0  0  0  0  0  0  0  0  0  0  0  0
  126.6554  128.1118   60.0551 H   0  0  0  0  0  0  0  0  0  0  0  0
  126.7484  129.2269   58.6499 H   0  0  0  0  0  0  0  0  0  0  0  0
  125.5608  127.8792   58.6499 H   0  0  0  0  0  0  0  0  0  0  0  0
  129.5016  127.4722   57.3776 H   0  0  0  0  0  0  0  0  0  0  0  0
  129.6370  127.7030   60.2230 H   0  0  0  0  0  0  0  0  0  0  0  0
  131.3532  130.0826   58.2420 H   0  0  0  0  0  0  0  0  0  0  0  0
  130.8796  128.9681   56.9153 H   0  0  0  0  0  0  0  0  0  0  0  0
  130.2916  130.6654   56.9153 H   0  0  0  0  0  0  0  0  0  0  0  0
  127.9160  129.3200   56.9800 H   0  0  0  0  0  0  0  0  0  0  0  0
  128.6993  131.9434   59.1911 H   0  0  0  0  0  0  0  0  0  0  0  0
  126.5892  130.8789   61.0555 H   0  0  0  0  0  0  0  0  0  0  0  0
  126.4183  131.7609   59.5000 H   0  0  0  0  0  0  0  0  0  0  0  0
  126.7974  130.0051   59.5000 H   0  0  0  0  0  0  0  0  0  0  0  0
  127.9265  132.5280   61.6274 H   0  0  0  0  0  0  0  0  0  0  0  0
  129.1250  134.0580   60.7780 H   0  0  0  0  0  0  0  0  0  0  0  0
  129.8862  130.5212   62.1523 H   0  0  0  0  0  0  0  0  0  0  0  0
  130.7953  132.1439   64.1568 H   0  0  0  0  0  0  0  0  0  0  0  0
  131.6915  131.5928   62.7008 H   0  0  0  0  0  0  0  0  0  0  0  0
  130.8753  133.1930   62.7008 H   0  0  0  0  0  0  0  0  0  0  0  0
  127.5984  129.5121   64.5786 H   0  0  0  0  0  0  0  0  0  0  0  0
  125.5733  130.4767   64.3874 H   0  0  0  0  0  0  0  0  0  0  0  0
  125.9752  131.2993   62.8419 H   0  0  0  0  0  0  0  0  0  0  0  0
  125.5151  129.5629   62.8419 H   0  0  0  0  0  0  0  0  0  0  0  0
  129.0686  129.0119   62.4575 H   0  0  0  0  0  0  0  0  0  0  0  0
  127.8460  128.5580   60.7510 H   0  0  0  0  0  0  0  0  0  0  0  0
  127.0409  127.3451   63.8555 H   0  0  0  0  0  0  0  0  0  0  0  0
  128.1540  125.2444   62.9506 H   0  0  0  0  0  0  0  0  0  0  0  0
  127.1995  126.1855   61.7549 H   0  0  0  0  0  0  0  0  0  0  0  0
  128.9927  126.2900   61.7549 H   0  0  0  0  0  0  0  0  0  0  0  0
  130.0957  127.2697   64.2494 H   0  0  0  0  0  0  0  0  0  0  0  0
  127.7007  126.9594   66.1395 H   0  0  0  0  0  0  0  0  0  0  0  0
  130.6095  126.0004   64.4626 H   0  0  0  0  0  0  0  0  0  0  0  0
  128.5322  124.7491   65.1347 H   0  0  0  0  0  0  0  0  0  0  0  0
  129.4434  123.5217   67.0567 H   0  0  0  0  0  0  0  0  0  0  0  0
  128.4926  122.5028   65.9234 H   0  0  0  0  0  0  0  0  0  0  0  0
  130.2866  122.4121   65.9234 H   0  0  0  0  0  0  0  0  0  0  0  0
  129.4976  124.5499   62.8942 H   0  0  0  0  0  0  0  0  0  0  0  0
  127.9374  122.3297   64.0025 H   0  0  0  0  0  0  0  0  0  0  0  0
  127.7500  123.3691   62.4827 H   0  0  0  0  0  0  0  0  0  0  0  0
  128.8984  120.6556   62.8289 H   0  0  0  0  0  0  0  0  0  0  0  0
  127.9869  121.4686   61.4433 H   0  0  0  0  0  0  0  0  0  0  0  0
  134.0971  123.2483   63.5571 H   0  0  0  0  0  0  0  0  0  0  0  0
  132.9797  121.8751   63.9573 H   0  0  0  0  0  0  0  0  0  0  0  0
  134.1655  121.6449   61.7284 H   0  0  0  0  0  0  0  0  0  0  0  0
  132.3617  121.6036   61.6434 H   0  0  0  0  0  0  0  0  0  0  0  0
  133.2457  123.0433   59.8182 H   0  0  0  0  0  0  0  0  0  0  0  0
  134.8194  124.4003   61.9965 H   0  0  0  0  0  0  0  0  0  0  0  0
  135.3728  123.6879   60.4431 H   0  0  0  0  0  0  0  0  0  0  0  0
  134.4086  125.2034   60.4431 H   0  0  0  0  0  0  0  0  0  0  0  0
  131.1268  123.5473   60.9945 H   0  0  0  0  0  0  0  0  0  0  0  0
  130.7302  125.7868   60.3057 H   0  0  0  0  0  0  0  0  0  0  0  0
  132.5280  126.1382   60.3393 H   0  0  0  0  0  0  0  0  0  0  0  0
  131.0585  124.2816   58.4533 H   0  0  0  0  0  0  0  0  0  0  0  0
  131.6071  127.1082   58.2880 H   0  0  0  0  0  0  0  0  0  0  0  0
  132.6194  126.2622   57.0689 H   0  0  0  0  0  0  0  0  0  0  0  0
  130.8373  126.0368   57.0689 H   0  0  0  0  0  0  0  0  0  0  0  0
  133.0250  123.4380   58.4360 H   0  0  0  0  0  0  0  0  0  0  0  0
  132.2025  123.7063   65.6437 H   0  0  0  0  0  0  0  0  0  0  0  0
  133.4417  125.6457   66.0513 H   0  0  0  0  0  0  0  0  0  0  0  0
  134.1032  125.0274   64.4998 H   0  0  0  0  0  0  0  0  0  0  0  0
  132.9565  126.4101   64.4998 H   0  0  0  0  0  0  0  0  0  0  0  0
  1  2  1  0
  2  3  1  0
  3  4  1  0
  4  5  2  0
  5  6  1  0
  6  7  2  0
  7  8  1  0
  8  9  1  0
  9 10  1  0
  9 11  1  0
 11 12  1  0
 11 13  1  0
 13 14  1  0
 13 15  1  6
 13 16  1  0
 16 17  2  0
 16 18  1  0
 18 19  1  0
 18 20  1  0
 20 21  1  0
 20 22  1  0
 22 23  1  0
 22 24  1  0
 24 25  2  0
 24 26  1  0
 26 27  1  0
 26 28  1  0
 28 29  1  0
 28 30  1  0
 30 31  1  0
 30 32  1  0
 32 33  2  0
 33 34  1  0
 34 35  2  0
 34 36  1  0
 36 37  1  0
 37 38  1  0
 38 39  1  0
 38 40  1  0
 40 41  1  0
 41 42  1  0
 40 43  1  0
 44 43  1  1
 44 45  1  0
 45 46  1  0
 46 47  1  0
 47 48  1  0
 47 49  1  0
 49 50  1  0
 50 51  1  0
 51 52  1  0
 51 53  1  0
 49 54  1  0
 44 55  1  0
 55 56  1  0
 42  3  1  0
 54 44  1  0
 55 37  1  0
  1 57  1  0
  1 58  1  0
  1 59  1  0
  2 60  1  0
  2 61  1  0
  3 62  1  1
  4 63  1  0
  5 64  1  0
  6 65  1  0
  7 66  1  0
  8 67  1  0
  8 68  1  0
  9 69  1  6
 10 70  1  0
 10 71  1  0
 10 72  1  0
 11 73  1  6
 12 74  1  0
 14 75  1  0
 14 76  1  0
 14 77  1  0
 15 78  1  0
 18 79  1  6
 19 80  1  0
 19 81  1  0
 19 82  1  0
 20 83  1  1
 21 84  1  0
 22 85  1  6
 23 86  1  0
 23 87  1  0
 23 88  1  0
 26 89  1  1
 27 90  1  0
 27 91  1  0
 27 92  1  0
 28 93  1  6
 29 94  1  0
 30 95  1  1
 31 96  1  0
 31 97  1  0
 31 98  1  0
 32 99  1  0
 33100  1  0
 37101  1  6
 38102  1  6
 39103  1  0
 39104  1  0
 39105  1  0
 40106  1  6
 41107  1  0
 41108  1  0
 42109  1  0
 42110  1  0
 45111  1  0
 45112  1  0
 46113  1  0
 46114  1  0
 47115  1  6
 48116  1  0
 48117  1  0
 48118  1  0
 49119  1  1
 50120  1  0
 50121  1  0
 51122  1  6
 52123  1  0
 52124  1  0
 52125  1  0
 53126  1  0
 55127  1  1
 56128  1  0
 56129  1  0
 56130  1  0
M  END
>  <Binding energies>  (1) 
[-1.74]

>  <Ligand effiencies>  (1) 
[-0.02761904761904762]

>  <Interactions>  (1) 
["V-A:ILE:369:CG2:3237, V-A:ASP:366:CA:3210, V-B:PRO:540:CA:9855, V-A:ALA:541:C:4888, V-A:GLY:454:CA:4049, H-A:ALA:541:N:4891, V-B:GLU:543:CB:9878, V-B:ALA:541:CB:9864, V-B:TYR:539:CE2:9848, V-A:TYR:484:CE2:4346, V-B:GLU:543:CG:9879, V-A:ASP:366:CG:3213, V-B:TYR:539:CZ:9849, H-B:TYR:539:OH:9850, V-A:ALA:541:CB:4892, V-A:GLU:543:CD:4908, V-A:TYR:484:CZ:4347, H-B:TYR:484:OH:9319, V-B:GLU:543:CA:9876, V-A:TYR:484:CD2:4344, V-A:ILE:369:CD1:3239, V-A:ALA:541:CA:4890, V-B:TYR:539:CD2:9846, V-A:TYR:531:CZ:4794, V-A:GLU:543:CG:4907, V-B:GLU:543:CD:9880, H-B:TYR:531:OH:9767, V-A:ARG:545:CD:4923, V-A:LEU:475:CD2:4259, V-A:ASP:366:CB:3212, V-A:ARG:545:CZ:4926, H-A:TYR:539:O:4868, V-B:PRO:540:C:9853, V-B:ALA:541:CA:9862, H-A:TYR:484:OH:4348"]

$$$$
ZINC58482375
     RDKit          3D

 71 75  0  0  0  0  0  0  0  0999 V2000
  134.6120  124.3240   59.8970 C   0  0  0  0  0  0  0  0  0  0  0  0
  133.5950  123.7280   58.9330 C   0  0  0  0  0  0  0  0  0  0  0  0
  133.6210  123.9900   57.7290 O   0  0  0  0  0  0  0  0  0  0  0  0
  132.7160  122.9160   59.5540 O   0  0  0  0  0  0  0  0  0  0  0  0
  132.0720  123.3300   60.7550 C   0  0  0  0  0  0  0  0  0  0  0  0
  130.5550  123.4760   60.5510 C   0  0  0  0  0  0  0  0  0  0  0  0
  129.8720  122.4980   60.2450 O   0  0  0  0  0  0  0  0  0  0  0  0
  129.9100  124.8950   60.7600 C   0  0  1  0  0  0  0  0  0  0  0  0
  128.5030  124.7960   60.3780 O   0  0  0  0  0  0  0  0  0  0  0  0
  127.6730  123.6970   60.3980 C   0  0  0  0  0  0  0  0  0  0  0  0
  127.3700  123.0350   61.3910 O   0  0  0  0  0  0  0  0  0  0  0  0
  127.1860  123.3890   59.0590 C   0  0  0  0  0  0  0  0  0  0  0  0
  126.0230  123.7650   58.3980 C   0  0  0  0  0  0  0  0  0  0  0  0
  126.0700  123.1800   57.1320 C   0  0  0  0  0  0  0  0  0  0  0  0
  127.2590  122.4730   57.0720 C   0  0  0  0  0  0  0  0  0  0  0  0
  127.9370  122.5980   58.2420 O   0  0  0  0  0  0  0  0  0  0  0  0
  129.8930  125.3280   62.2780 C   0  0  2  0  0  0  0  0  0  0  0  0
  128.7330  124.8090   63.1690 C   0  0  0  0  0  0  0  0  0  0  0  0
  129.9610  126.8780   62.2780 C   0  0  0  0  0  0  0  0  0  0  0  0
  129.9640  127.2830   60.7980 C   0  0  1  0  0  0  0  0  0  0  0  0
  130.4910  128.6930   60.3940 C   0  0  2  0  0  0  0  0  0  0  0  0
  129.8170  129.8350   61.1920 C   0  0  0  0  0  0  0  0  0  0  0  0
  130.3700  131.2230   60.8250 C   0  0  0  0  0  0  0  0  0  0  0  0
  130.2560  131.4390   59.3160 C   0  0  0  0  0  0  0  0  0  0  0  0
  129.5610  132.4770   58.7920 C   0  0  0  0  0  0  0  0  0  0  0  0
  129.3900  132.7440   57.3640 C   0  0  0  0  0  0  0  0  0  0  0  0
  128.7580  133.7050   56.9290 O   0  0  0  0  0  0  0  0  0  0  0  0
  130.0380  131.7590   56.5030 C   0  0  0  0  0  0  0  0  0  0  0  0
  130.7420  130.7050   56.9640 C   0  0  0  0  0  0  0  0  0  0  0  0
  130.9800  130.3670   58.4460 C   0  0  1  0  0  0  0  0  0  0  0  0
  132.5090  130.5490   58.6810 C   0  0  0  0  0  0  0  0  0  0  0  0
  130.3910  128.9360   58.8360 C   0  0  2  0  0  0  0  0  0  0  0  0
  128.6310  128.9610   58.4060 Cl  0  0  0  0  0  0  0  0  0  0  0  0
  130.9670  127.7100   58.0190 C   0  0  1  0  0  0  0  0  0  0  0  0
  132.3750  127.6780   57.9000 O   0  0  0  0  0  0  0  0  0  0  0  0
  130.4440  126.3390   58.5460 C   0  0  0  0  0  0  0  0  0  0  0  0
  130.6730  126.1120   60.0730 C   0  0  2  0  0  0  0  0  0  0  0  0
  132.2150  126.0630   60.3890 C   0  0  0  0  0  0  0  0  0  0  0  0
  134.2904  124.1356   60.9319 H   0  0  0  0  0  0  0  0  0  0  0  0
  135.5942  123.8586   59.7277 H   0  0  0  0  0  0  0  0  0  0  0  0
  134.6860  125.4084   59.7277 H   0  0  0  0  0  0  0  0  0  0  0  0
  132.2581  122.5807   61.5385 H   0  0  0  0  0  0  0  0  0  0  0  0
  132.4795  124.3085   61.0491 H   0  0  0  0  0  0  0  0  0  0  0  0
  125.2193  124.4017   58.7964 H   0  0  0  0  0  0  0  0  0  0  0  0
  125.3125  123.2639   56.3388 H   0  0  0  0  0  0  0  0  0  0  0  0
  127.6043  121.8941   56.2027 H   0  0  0  0  0  0  0  0  0  0  0  0
  130.7545  124.8426   62.7599 H   0  0  0  0  0  0  0  0  0  0  0  0
  129.0024  124.9295   64.2287 H   0  0  0  0  0  0  0  0  0  0  0  0
  127.8204  125.3846   62.9549 H   0  0  0  0  0  0  0  0  0  0  0  0
  128.5540  123.7450   62.9549 H   0  0  0  0  0  0  0  0  0  0  0  0
  129.0857  127.3021   62.7918 H   0  0  0  0  0  0  0  0  0  0  0  0
  130.8512  127.2495   62.8067 H   0  0  0  0  0  0  0  0  0  0  0  0
  128.9201  127.4345   60.4860 H   0  0  0  0  0  0  0  0  0  0  0  0
  131.5574  128.7096   60.6632 H   0  0  0  0  0  0  0  0  0  0  0  0
  128.7370  129.8201   60.9835 H   0  0  0  0  0  0  0  0  0  0  0  0
  130.0281  129.6647   62.2580 H   0  0  0  0  0  0  0  0  0  0  0  0
  129.7921  131.9977   61.3502 H   0  0  0  0  0  0  0  0  0  0  0  0
  131.4268  131.2853   61.1237 H   0  0  0  0  0  0  0  0  0  0  0  0
  129.0870  133.1755   59.4973 H   0  0  0  0  0  0  0  0  0  0  0  0
  129.9467  131.8839   55.4139 H   0  0  0  0  0  0  0  0  0  0  0  0
  131.1837  130.0294   56.2167 H   0  0  0  0  0  0  0  0  0  0  0  0
  132.7136  130.5733   59.7615 H   0  0  0  0  0  0  0  0  0  0  0  0
  133.0528  129.7092   58.2237 H   0  0  0  0  0  0  0  0  0  0  0  0
  132.8405  131.4929   58.2237 H   0  0  0  0  0  0  0  0  0  0  0  0
  130.5763  127.8772   57.0044 H   0  0  0  0  0  0  0  0  0  0  0  0
  132.6300  128.2310   57.1580 H   0  0  0  0  0  0  0  0  0  0  0  0
  129.3637  126.2821   58.3468 H   0  0  0  0  0  0  0  0  0  0  0  0
  131.0154  125.5593   58.0210 H   0  0  0  0  0  0  0  0  0  0  0  0
  132.3660  126.0582   61.4786 H   0  0  0  0  0  0  0  0  0  0  0  0
  132.6495  125.1506   59.9546 H   0  0  0  0  0  0  0  0  0  0  0  0
  132.7066  126.9460   59.9546 H   0  0  0  0  0  0  0  0  0  0  0  0
  1  2  1  0
  2  3  2  0
  2  4  1  0
  4  5  1  0
  5  6  1  0
  6  7  2  0
  6  8  1  0
  8  9  1  6
  9 10  1  0
 10 11  2  0
 10 12  1  0
 12 13  2  0
 13 14  1  0
 14 15  2  0
 15 16  1  0
  8 17  1  0
 17 18  1  0
 17 19  1  0
 19 20  1  0
 20 21  1  0
 21 22  1  0
 22 23  1  0
 23 24  1  0
 24 25  2  0
 25 26  1  0
 26 27  2  0
 26 28  1  0
 28 29  2  0
 29 30  1  0
 30 31  1  6
 30 32  1  0
 32 33  1  6
 32 34  1  0
 34 35  1  0
 34 36  1  0
 36 37  1  0
 37 38  1  6
 37  8  1  0
 16 12  1  0
 37 20  1  0
 32 21  1  0
 30 24  1  0
  1 39  1  0
  1 40  1  0
  1 41  1  0
  5 42  1  0
  5 43  1  0
 13 44  1  0
 14 45  1  0
 15 46  1  0
 17 47  1  1
 18 48  1  0
 18 49  1  0
 18 50  1  0
 19 51  1  0
 19 52  1  0
 20 53  1  6
 21 54  1  1
 22 55  1  0
 22 56  1  0
 23 57  1  0
 23 58  1  0
 25 59  1  0
 28 60  1  0
 29 61  1  0
 31 62  1  0
 31 63  1  0
 31 64  1  0
 34 65  1  6
 35 66  1  0
 36 67  1  0
 36 68  1  0
 38 69  1  0
 38 70  1  0
 38 71  1  0
M  END
>  <Binding energies>  (1) 
[-8.75]

>  <Ligand effiencies>  (1) 
[-0.22435897435897437]

>  <Interactions>  (1) 
["V-A:ILE:369:CG2:3237, V-A:ASP:366:CA:3210, V-B:PRO:540:CA:9855, V-B:TYR:539:CA:9841, V-A:ILE:369:CB:3236, H-A:TYR:531:OH:4795, V-B:TYR:539:CE2:9848, V-B:GLU:543:CG:9879, V-B:TYR:539:C:9839, V-A:ASP:366:CG:3213, V-B:TYR:539:CZ:9849, H-A:ASN:370:N:3244, H-B:TYR:539:OH:9850, H-B:ALA:541:N:9863, V-B:PRO:540:CB:9857, V-B:PRO:540:N:9856, V-A:ILE:369:CD1:3239, V-B:TYR:539:CD2:9846, V-B:PRO:540:CD:9859, V-A:MET:535:CE:4835, V-B:GLU:543:CD:9880, V-A:ILE:369:CG1:3238, V-A:ASP:366:CB:3212, V-A:TYR:539:C:4867, V-B:TYR:539:CG:9844, V-B:TYR:539:CD1:9845, V-A:PRO:540:N:4884, H-A:TYR:539:N:4870, V-A:PRO:540:CA:4883, H-A:ASP:366:OD2:3215, V-B:TYR:539:CE1:9847"]

$$$$
ZINC585138842
     RDKit          3D

 94 96  0  0  0  0  0  0  0  0999 V2000
  130.6520  119.3500   61.2410 C   0  0  0  0  0  0  0  0  0  0  0  0
  131.4270  120.3190   60.5460 O   0  0  0  0  0  0  0  0  0  0  0  0
  131.6800  121.5280   61.2630 C   0  0  2  0  0  0  0  0  0  0  0  0
  131.0910  122.7260   60.5270 C   0  0  0  0  0  0  0  0  0  0  0  0
  129.7860  123.0330   60.4020 C   0  0  0  0  0  0  0  0  0  0  0  0
  128.6910  122.2150   60.8890 C   0  0  0  0  0  0  0  0  0  0  0  0
  127.8800  122.5440   61.9130 C   0  0  0  0  0  0  0  0  0  0  0  0
  128.0460  123.7040   62.7730 C   0  0  0  0  0  0  0  0  0  0  0  0
  129.2370  124.0560   63.2930 C   0  0  0  0  0  0  0  0  0  0  0  0
  129.5980  125.2690   64.1530 C   0  0  0  0  0  0  0  0  0  0  0  0
  129.2700  126.7360   63.7180 C   0  0  2  0  0  0  0  0  0  0  0  0
  128.1570  127.3400   64.3810 O   0  0  0  0  0  0  0  0  0  0  0  0
  128.2850  128.0210   65.5530 C   0  0  0  0  0  0  0  0  0  0  0  0
  128.7600  127.5360   66.5840 O   0  0  0  0  0  0  0  0  0  0  0  0
  127.6940  129.4330   65.4990 C   0  0  1  0  0  0  0  0  0  0  0  0
  128.4070  130.4000   66.4700 C   0  0  0  0  0  0  0  0  0  0  0  0
  127.7990  129.9840   64.1370 N   0  0  0  0  0  0  0  0  0  0  0  0
  127.9110  131.2870   63.8130 C   0  0  0  0  0  0  0  0  0  0  0  0
  127.9070  132.1840   64.6560 O   0  0  0  0  0  0  0  0  0  0  0  0
  128.0480  131.6240   62.3130 C   0  0  0  0  0  0  0  0  0  0  0  0
  127.5640  133.0800   62.0990 C   0  0  0  0  0  0  0  0  0  0  0  0
  127.7000  133.4590   60.6100 C   0  0  0  0  0  0  0  0  0  0  0  0
  129.1460  133.2740   60.0990 C   0  0  0  0  0  0  0  0  0  0  0  0
  129.7110  131.8760   60.4310 C   0  0  0  0  0  0  0  0  0  0  0  0
  129.5470  131.5270   61.9250 C   0  0  0  0  0  0  0  0  0  0  0  0
  129.2070  127.0030   62.1780 C   0  0  2  0  0  0  0  0  0  0  0  0
  129.9230  128.3370   61.8600 C   0  0  0  0  0  0  0  0  0  0  0  0
  127.7920  126.9640   61.5150 C   0  0  2  0  0  0  0  0  0  0  0  0
  127.4090  125.6540   61.1700 O   0  0  0  0  0  0  0  0  0  0  0  0
  127.6360  127.8460   60.2640 C   0  0  0  0  0  0  0  0  0  0  0  0
  126.5550  128.9110   60.3750 C   0  0  0  0  0  0  0  0  0  0  0  0
  128.3440  127.7230   59.1150 C   0  0  0  0  0  0  0  0  0  0  0  0
  129.4520  126.7330   58.7820 C   0  0  0  0  0  0  0  0  0  0  0  0
  130.8660  127.1880   59.2000 C   0  0  0  0  0  0  0  0  0  0  0  0
  131.8870  126.0510   59.3150 C   0  0  0  0  0  0  0  0  0  0  0  0
  132.4830  125.5170   58.2160 C   0  0  0  0  0  0  0  0  0  0  0  0
  133.5070  124.4660   58.2390 C   0  0  0  0  0  0  0  0  0  0  0  0
  134.0040  123.9700   57.2310 O   0  0  0  0  0  0  0  0  0  0  0  0
  133.8760  124.0870   59.6060 C   0  0  0  0  0  0  0  0  0  0  0  0
  133.3040  124.6070   60.7270 C   0  0  0  0  0  0  0  0  0  0  0  0
  133.6670  124.1390   61.9600 N   0  0  0  0  0  0  0  0  0  0  0  0
  133.5990  122.8640   62.4050 C   0  0  0  0  0  0  0  0  0  0  0  0
  133.9070  122.6050   63.5670 O   0  0  0  0  0  0  0  0  0  0  0  0
  133.2030  121.7050   61.4650 C   0  0  0  0  0  0  0  0  0  0  0  0
  132.1850  125.5830   60.6990 C   0  0  0  0  0  0  0  0  0  0  0  0
  131.5910  125.9780   61.7060 O   0  0  0  0  0  0  0  0  0  0  0  0
  130.7687  119.4960   62.3250 H   0  0  0  0  0  0  0  0  0  0  0  0
  129.5925  119.4633   60.9678 H   0  0  0  0  0  0  0  0  0  0  0  0
  130.9953  118.3413   60.9678 H   0  0  0  0  0  0  0  0  0  0  0  0
  131.1942  121.4659   62.2480 H   0  0  0  0  0  0  0  0  0  0  0  0
  131.8065  123.4108   60.0483 H   0  0  0  0  0  0  0  0  0  0  0  0
  129.5310  123.9741   59.8927 H   0  0  0  0  0  0  0  0  0  0  0  0
  128.5096  121.2546   60.3844 H   0  0  0  0  0  0  0  0  0  0  0  0
  127.0245  121.8825   62.1143 H   0  0  0  0  0  0  0  0  0  0  0  0
  127.1643  124.3182   63.0081 H   0  0  0  0  0  0  0  0  0  0  0  0
  130.0699  123.3738   63.0672 H   0  0  0  0  0  0  0  0  0  0  0  0
  129.0963  125.1178   65.1202 H   0  0  0  0  0  0  0  0  0  0  0  0
  130.6969  125.2601   64.1052 H   0  0  0  0  0  0  0  0  0  0  0  0
  130.1749  127.2471   64.0784 H   0  0  0  0  0  0  0  0  0  0  0  0
  126.6393  129.3433   65.7984 H   0  0  0  0  0  0  0  0  0  0  0  0
  128.1894  130.1048   67.5071 H   0  0  0  0  0  0  0  0  0  0  0  0
  129.4926  130.3589   66.2972 H   0  0  0  0  0  0  0  0  0  0  0  0
  128.0468  131.4249   66.2972 H   0  0  0  0  0  0  0  0  0  0  0  0
  127.7930  129.3000   63.3950 H   0  0  0  0  0  0  0  0  0  0  0  0
  127.4538  130.9310   61.6993 H   0  0  0  0  0  0  0  0  0  0  0  0
  126.5101  133.1635   62.4029 H   0  0  0  0  0  0  0  0  0  0  0  0
  128.1783  133.7612   62.7061 H   0  0  0  0  0  0  0  0  0  0  0  0
  127.0288  132.8199   60.0175 H   0  0  0  0  0  0  0  0  0  0  0  0
  127.4333  134.5207   60.5024 H   0  0  0  0  0  0  0  0  0  0  0  0
  129.1553  133.4091   59.0074 H   0  0  0  0  0  0  0  0  0  0  0  0
  129.7785  134.0204   60.6018 H   0  0  0  0  0  0  0  0  0  0  0  0
  129.1771  131.1251   59.8301 H   0  0  0  0  0  0  0  0  0  0  0  0
  130.7862  131.8797   60.1987 H   0  0  0  0  0  0  0  0  0  0  0  0
  129.9076  130.5035   62.1049 H   0  0  0  0  0  0  0  0  0  0  0  0
  130.1316  132.2320   62.5343 H   0  0  0  0  0  0  0  0  0  0  0  0
  129.7240  126.1459   61.7219 H   0  0  0  0  0  0  0  0  0  0  0  0
  130.1935  128.8410   62.7996 H   0  0  0  0  0  0  0  0  0  0  0  0
  130.8337  128.1345   61.2772 H   0  0  0  0  0  0  0  0  0  0  0  0
  129.2509  128.9840   61.2772 H   0  0  0  0  0  0  0  0  0  0  0  0
  127.1360  127.3740   62.2971 H   0  0  0  0  0  0  0  0  0  0  0  0
  126.8220  125.3220   61.8530 H   0  0  0  0  0  0  0  0  0  0  0  0
  126.3484  129.1145   61.4361 H   0  0  0  0  0  0  0  0  0  0  0  0
  126.8979  129.8340   59.8846 H   0  0  0  0  0  0  0  0  0  0  0  0
  125.6372  128.5544   59.8846 H   0  0  0  0  0  0  0  0  0  0  0  0
  128.0835  128.4331   58.3163 H   0  0  0  0  0  0  0  0  0  0  0  0
  129.2309  125.7852   59.2946 H   0  0  0  0  0  0  0  0  0  0  0  0
  129.4661  126.6374   57.6863 H   0  0  0  0  0  0  0  0  0  0  0  0
  131.2324  127.9053   58.4509 H   0  0  0  0  0  0  0  0  0  0  0  0
  130.7710  127.6283   60.2036 H   0  0  0  0  0  0  0  0  0  0  0  0
  132.1737  125.9026   57.2333 H   0  0  0  0  0  0  0  0  0  0  0  0
  134.6667  123.3332   59.7347 H   0  0  0  0  0  0  0  0  0  0  0  0
  134.0560  124.8250   62.5910 H   0  0  0  0  0  0  0  0  0  0  0  0
  133.6598  121.8901   60.4816 H   0  0  0  0  0  0  0  0  0  0  0  0
  133.5624  120.7814   61.9423 H   0  0  0  0  0  0  0  0  0  0  0  0
  1  2  1  0
  2  3  1  0
  3  4  1  0
  4  5  2  0
  5  6  1  0
  6  7  2  0
  7  8  1  0
  8  9  2  0
  9 10  1  0
 10 11  1  0
 11 12  1  0
 12 13  1  0
 13 14  2  0
 13 15  1  0
 15 16  1  0
 15 17  1  0
 17 18  1  0
 18 19  2  0
 18 20  1  0
 20 21  1  0
 21 22  1  0
 22 23  1  0
 23 24  1  0
 24 25  1  0
 11 26  1  0
 26 27  1  0
 26 28  1  0
 28 29  1  0
 28 30  1  0
 30 31  1  0
 30 32  2  0
 32 33  1  0
 33 34  1  0
 34 35  1  0
 35 36  2  0
 36 37  1  0
 37 38  2  0
 37 39  1  0
 39 40  2  0
 40 41  1  0
 41 42  1  0
 42 43  2  0
 42 44  1  0
 40 45  1  0
 45 46  2  0
 44  3  1  0
 25 20  1  0
 45 35  1  0
  1 47  1  0
  1 48  1  0
  1 49  1  0
  3 50  1  1
  4 51  1  0
  5 52  1  0
  6 53  1  0
  7 54  1  0
  8 55  1  0
  9 56  1  0
 10 57  1  0
 10 58  1  0
 11 59  1  1
 15 60  1  1
 16 61  1  0
 16 62  1  0
 16 63  1  0
 17 64  1  0
 20 65  1  0
 21 66  1  0
 21 67  1  0
 22 68  1  0
 22 69  1  0
 23 70  1  0
 23 71  1  0
 24 72  1  0
 24 73  1  0
 25 74  1  0
 25 75  1  0
 26 76  1  6
 27 77  1  0
 27 78  1  0
 27 79  1  0
 28 80  1  1
 29 81  1  0
 31 82  1  0
 31 83  1  0
 31 84  1  0
 32 85  1  0
 33 86  1  0
 33 87  1  0
 34 88  1  0
 34 89  1  0
 36 90  1  0
 39 91  1  0
 41 92  1  0
 44 93  1  0
 44 94  1  0
M  END
>  <Binding energies>  (1) 
[-5.58]

>  <Ligand effiencies>  (1) 
[-0.10941176470588236]

>  <Interactions>  (1) 
["V-A:ILE:369:CG2:3237, V-A:ASP:366:CA:3210, V-B:PRO:540:CA:9855, V-A:GLU:543:CA:4904, V-A:GLY:454:CA:4049, V-A:ILE:369:CB:3236, V-A:PRO:540:C:4881, V-B:ALA:541:CB:9864, V-B:TYR:539:CE2:9848, V-B:GLU:543:CG:9879, V-B:LEU:475:CD2:9230, V-A:ASP:366:CG:3213, V-A:TYR:539:CD1:4873, V-B:TYR:484:CE2:9317, V-B:TYR:539:CZ:9849, H-A:ASN:370:N:3244, H-B:GLU:543:OE1:9881, H-B:TYR:539:OH:9850, V-A:GLU:543:CD:4908, H-B:TYR:484:OH:9319, H-B:ASP:366:OD1:8185, H-A:GLY:454:N:4050, V-A:ILE:369:CD1:3239, V-B:TYR:484:CZ:9318, V-A:ASP:366:C:3208, V-B:TYR:539:CD2:9846, V-A:GLU:543:CG:4907, H-A:SER:385:OG:3410, V-B:GLU:543:CD:9880, V-A:TYR:539:C:4867, V-A:ASP:366:CB:3212, V-A:LEU:475:CD2:4259, H-A:ARG:545:NH2:4928, H-A:GLU:543:OE1:4909, V-A:GLU:543:CB:4906, H-A:ASP:366:OD1:3214, V-A:PRO:540:N:4884, V-A:PRO:540:CA:4883, V-B:PRO:540:C:9853, V-B:ALA:541:CA:9862, V-A:TYR:539:CE1:4875, H-A:TYR:484:OH:4348"]

$$$$
ZINC585139016
     RDKit          3D

 70 76  0  0  0  0  0  0  0  0999 V2000
  126.9310  119.1070   75.0400 C   0  0  0  0  0  0  0  0  0  0  0  0
  127.5050  120.0830   74.0280 C   0  0  0  0  0  0  0  0  0  0  0  0
  128.2130  121.2130   74.4590 C   0  0  0  0  0  0  0  0  0  0  0  0
  128.7480  122.1070   73.5280 C   0  0  0  0  0  0  0  0  0  0  0  0
  128.5730  121.8630   72.1650 C   0  0  0  0  0  0  0  0  0  0  0  0
  127.8770  120.7450   71.7360 C   0  0  0  0  0  0  0  0  0  0  0  0
  127.3410  119.8480   72.6590 C   0  0  0  0  0  0  0  0  0  0  0  0
  127.8080  120.6790   69.9830 S   0  0  0  0  0  0  0  0  0  0  0  0
  128.7310  122.2150   69.8260 C   0  0  0  0  0  0  0  0  0  0  0  0
  129.0670  122.8400   68.6720 C   0  0  0  0  0  0  0  0  0  0  0  0
  128.6830  122.2940   67.3730 C   0  0  0  0  0  0  0  0  0  0  0  0
  128.9790  122.9000   66.2110 C   0  0  0  0  0  0  0  0  0  0  0  0
  129.7100  124.1670   66.1290 C   0  0  0  0  0  0  0  0  0  0  0  0
  129.9380  124.8490   64.9760 N   0  0  0  0  0  0  0  0  0  0  0  0
  128.9170  125.0050   64.2370 N   0  0  0  0  0  0  0  0  0  0  0  0
  129.1380  125.6940   63.0810 C   0  0  0  0  0  0  0  0  0  0  0  0
  129.6630  125.1420   61.8970 C   0  0  0  0  0  0  0  0  0  0  0  0
  130.0950  123.7180   61.6210 C   0  0  0  0  0  0  0  0  0  0  0  0
  129.7750  126.0350   60.9360 N   0  0  0  0  0  0  0  0  0  0  0  0
  129.3370  127.1990   61.4410 N   0  0  0  0  0  0  0  0  0  0  0  0
  129.3320  128.4160   60.6950 C   0  0  0  0  0  0  0  0  0  0  0  0
  129.6420  128.3690   59.5040 O   0  0  0  0  0  0  0  0  0  0  0  0
  128.9230  129.6310   61.5150 C   0  0  0  0  0  0  0  0  0  0  0  0
  129.0210  130.9600   61.0210 C   0  0  0  0  0  0  0  0  0  0  0  0
  129.7280  131.4430   59.4210 S   0  0  0  0  0  0  0  0  0  0  0  0
  128.6370  131.4770   58.4420 O   0  0  0  0  0  0  0  0  0  0  0  0
  130.5920  132.6150   59.6150 O   0  0  0  0  0  0  0  0  0  0  0  0
  130.6990  130.1130   59.1020 O   0  0  0  0  0  0  0  0  0  0  0  0
  131.5400  129.5890   60.1250 C   0  0  0  0  0  0  0  0  0  0  0  0
  132.0790  130.7130   60.9860 C   0  0  0  0  0  0  0  0  0  0  0  0
  133.0760  131.5020   60.6490 N   0  0  0  0  0  0  0  0  0  0  0  0
  133.3000  132.2830   61.6970 C   0  0  0  0  0  0  0  0  0  0  0  0
  134.4200  133.2970   61.6650 C   0  0  0  0  0  0  0  0  0  0  0  0
  132.4060  131.9990   62.7220 C   0  0  0  0  0  0  0  0  0  0  0  0
  131.6260  130.9820   62.2490 N   0  0  0  0  0  0  0  0  0  0  0  0
  128.5640  132.0180   61.8220 C   0  0  0  0  0  0  0  0  0  0  0  0
  128.0620  131.7950   63.0990 C   0  0  0  0  0  0  0  0  0  0  0  0
  128.0160  130.5050   63.6110 C   0  0  0  0  0  0  0  0  0  0  0  0
  128.4490  129.4310   62.8360 C   0  0  0  0  0  0  0  0  0  0  0  0
  128.4320  128.1440   63.4120 N   0  0  0  0  0  0  0  0  0  0  0  0
  128.9280  127.0380   62.7470 C   0  0  0  0  0  0  0  0  0  0  0  0
  130.0880  124.7430   67.2940 C   0  0  0  0  0  0  0  0  0  0  0  0
  129.8580  124.1660   68.6970 C   0  0  0  0  0  0  0  0  0  0  0  0
  129.0270  122.6350   71.1040 N   0  0  0  0  0  0  0  0  0  0  0  0
  127.1428  119.4671   76.0576 H   0  0  0  0  0  0  0  0  0  0  0  0
  125.8430  119.0288   74.8977 H   0  0  0  0  0  0  0  0  0  0  0  0
  127.3914  118.1182   74.8977 H   0  0  0  0  0  0  0  0  0  0  0  0
  128.3481  121.3970   75.5351 H   0  0  0  0  0  0  0  0  0  0  0  0
  129.3021  122.9950   73.8662 H   0  0  0  0  0  0  0  0  0  0  0  0
  126.7920  118.9601   72.3124 H   0  0  0  0  0  0  0  0  0  0  0  0
  128.1272  121.3452   67.3448 H   0  0  0  0  0  0  0  0  0  0  0  0
  128.6565  122.4211   65.2747 H   0  0  0  0  0  0  0  0  0  0  0  0
  130.2546  123.1920   62.5738 H   0  0  0  0  0  0  0  0  0  0  0  0
  129.3127  123.2028   61.0443 H   0  0  0  0  0  0  0  0  0  0  0  0
  131.0317  123.7242   61.0443 H   0  0  0  0  0  0  0  0  0  0  0  0
  130.9602  128.8964   60.7528 H   0  0  0  0  0  0  0  0  0  0  0  0
  132.3831  129.0576   59.6594 H   0  0  0  0  0  0  0  0  0  0  0  0
  134.7080  133.5578   62.6941 H   0  0  0  0  0  0  0  0  0  0  0  0
  135.2864  132.8699   61.1388 H   0  0  0  0  0  0  0  0  0  0  0  0
  134.0808  134.2015   61.1388 H   0  0  0  0  0  0  0  0  0  0  0  0
  132.3403  132.4886   63.7048 H   0  0  0  0  0  0  0  0  0  0  0  0
  130.8790  130.5100   62.7380 H   0  0  0  0  0  0  0  0  0  0  0  0
  128.6039  133.0454   61.4310 H   0  0  0  0  0  0  0  0  0  0  0  0
  127.7013  132.6401   63.7037 H   0  0  0  0  0  0  0  0  0  0  0  0
  127.6375  130.3309   64.6290 H   0  0  0  0  0  0  0  0  0  0  0  0
  128.0950  128.0460   64.3600 H   0  0  0  0  0  0  0  0  0  0  0  0
  130.6063  125.7111   67.2292 H   0  0  0  0  0  0  0  0  0  0  0  0
  130.8355  123.9842   69.1676 H   0  0  0  0  0  0  0  0  0  0  0  0
  129.2639  124.8974   69.2645 H   0  0  0  0  0  0  0  0  0  0  0  0
  129.5520  123.4820   71.2640 H   0  0  0  0  0  0  0  0  0  0  0  0
  1  2  1  0
  2  3  2  0
  3  4  1  0
  4  5  2  0
  5  6  1  0
  6  7  2  0
  6  8  1  0
  8  9  1  0
  9 10  2  0
 10 11  1  0
 11 12  2  0
 12 13  1  0
 13 14  1  0
 14 15  2  0
 15 16  1  0
 16 17  1  0
 17 18  1  0
 17 19  2  0
 19 20  1  0
 20 21  1  0
 21 22  2  0
 21 23  1  0
 23 24  2  0
 24 25  1  0
 25 26  2  0
 25 27  2  0
 25 28  1  0
 28 29  1  0
 29 30  1  0
 30 31  2  0
 31 32  1  0
 32 33  1  0
 32 34  2  0
 34 35  1  0
 24 36  1  0
 36 37  2  0
 37 38  1  0
 38 39  2  0
 39 40  1  0
 40 41  1  0
 13 42  2  0
 42 43  1  0
  9 44  1  0
  7  2  1  0
 43 10  1  0
 44  5  1  0
 41 16  2  0
 41 20  1  0
 39 23  1  0
 35 30  1  0
  1 45  1  0
  1 46  1  0
  1 47  1  0
  3 48  1  0
  4 49  1  0
  7 50  1  0
 11 51  1  0
 12 52  1  0
 18 53  1  0
 18 54  1  0
 18 55  1  0
 29 56  1  0
 29 57  1  0
 33 58  1  0
 33 59  1  0
 33 60  1  0
 34 61  1  0
 35 62  1  0
 36 63  1  0
 37 64  1  0
 38 65  1  0
 40 66  1  0
 42 67  1  0
 43 68  1  0
 43 69  1  0
 44 70  1  0
M  END
>  <Binding energies>  (1) 
[31.42]

>  <Ligand effiencies>  (1) 
[0.6685106382978724]

>  <Interactions>  (1) 
["V-A:ASN:359:CA:3149, V-A:ALA:541:C:4888, V-A:PRO:540:CG:4886, V-B:GLU:543:C:9874, H-B:GLU:543:O:9875, V-B:GLU:543:CB:9878, V-A:PRO:540:C:4881, V-A:TYR:484:CE2:4346, V-B:GLU:543:CG:9879, V-A:HIS:456:CD2:4068, V-A:ASP:366:CG:3213, V-A:ASN:362:CB:3176, V-A:LEU:363:CB:3187, H-B:GLU:543:OE1:9881, V-B:LYS:547:CE:9922, V-A:GLU:543:CD:4908, V-A:TYR:484:CZ:4347, V-B:GLU:543:CA:9876, H-B:GLY:544:N:9887, V-A:TYR:484:CD2:4344, V-A:HIS:456:CE1:4070, V-A:ALA:541:CA:4890, V-A:TYR:484:CG:4342, V-B:GLY:544:CA:9886, V-A:GLU:543:CG:4907, H-A:TYR:484:N:4340, V-B:GLU:543:CD:9880, V-A:ASN:362:C:3172, H-A:GLU:543:OE1:4909, V-A:TYR:484:CB:4341, V-B:VAL:542:C:9866, H-B:GLU:543:OE2:9882, V-A:PRO:540:CA:4883, V-A:PRO:540:CB:4885, V-A:LEU:363:CA:3185, H-B:GLU:543:N:9877, H-A:HIS:456:NE2:4071, V-A:ASN:359:C:3147, V-A:ASN:359:CB:3151"]

$$$$
ZINC585139016-again1
     RDKit          3D

 70 76  0  0  0  0  0  0  0  0999 V2000
  127.6470  119.9030   75.2180 C   0  0  0  0  0  0  0  0  0  0  0  0
  128.0970  120.7580   74.0480 C   0  0  0  0  0  0  0  0  0  0  0  0
  128.8400  121.9220   74.2790 C   0  0  0  0  0  0  0  0  0  0  0  0
  129.2670  122.7110   73.2090 C   0  0  0  0  0  0  0  0  0  0  0  0
  128.9470  122.3290   71.9060 C   0  0  0  0  0  0  0  0  0  0  0  0
  128.2160  121.1770   71.6710 C   0  0  0  0  0  0  0  0  0  0  0  0
  127.7870  120.3830   72.7350 C   0  0  0  0  0  0  0  0  0  0  0  0
  127.9560  120.9300   69.9540 S   0  0  0  0  0  0  0  0  0  0  0  0
  128.8660  122.4260   69.5390 C   0  0  0  0  0  0  0  0  0  0  0  0
  129.1000  122.9100   68.2950 C   0  0  0  0  0  0  0  0  0  0  0  0
  128.6050  122.2200   67.1060 C   0  0  0  0  0  0  0  0  0  0  0  0
  128.8510  122.6510   65.8580 C   0  0  0  0  0  0  0  0  0  0  0  0
  129.6400  123.8500   65.5600 C   0  0  0  0  0  0  0  0  0  0  0  0
  129.9130  124.3280   64.3130 N   0  0  0  0  0  0  0  0  0  0  0  0
  128.9660  124.9430   63.7350 N   0  0  0  0  0  0  0  0  0  0  0  0
  129.2540  125.4050   62.4850 C   0  0  0  0  0  0  0  0  0  0  0  0
  129.9790  124.6990   61.5180 C   0  0  0  0  0  0  0  0  0  0  0  0
  130.5850  123.3150   61.6150 C   0  0  0  0  0  0  0  0  0  0  0  0
  130.1310  125.3670   60.3940 N   0  0  0  0  0  0  0  0  0  0  0  0
  129.4990  126.5700   60.5560 N   0  0  0  0  0  0  0  0  0  0  0  0
  129.3820  127.6180   59.6490 C   0  0  0  0  0  0  0  0  0  0  0  0
  129.9880  127.4710   58.5310 O   0  0  0  0  0  0  0  0  0  0  0  0
  128.6420  128.8060   60.0250 C   0  0  0  0  0  0  0  0  0  0  0  0
  128.3620  129.9910   59.2210 C   0  0  0  0  0  0  0  0  0  0  0  0
  128.7600  130.1490   57.4520 S   0  0  0  0  0  0  0  0  0  0  0  0
  129.0070  128.7950   56.9430 O   0  0  0  0  0  0  0  0  0  0  0  0
  127.7710  131.0350   56.8260 O   0  0  0  0  0  0  0  0  0  0  0  0
  130.2250  130.9570   57.5000 O   0  0  0  0  0  0  0  0  0  0  0  0
  130.4060  131.9430   58.5060 C   0  0  0  0  0  0  0  0  0  0  0  0
  131.8210  131.8580   59.0300 C   0  0  0  0  0  0  0  0  0  0  0  0
  132.9810  131.9770   58.2990 N   0  0  0  0  0  0  0  0  0  0  0  0
  134.0690  131.7700   59.1280 C   0  0  0  0  0  0  0  0  0  0  0  0
  133.5930  131.4890   60.4070 C   0  0  0  0  0  0  0  0  0  0  0  0
  134.2940  131.1690   61.7050 C   0  0  0  0  0  0  0  0  0  0  0  0
  132.2090  131.5350   60.3120 N   0  0  0  0  0  0  0  0  0  0  0  0
  127.7220  131.0840   59.8210 C   0  0  0  0  0  0  0  0  0  0  0  0
  127.2860  131.0520   61.1340 C   0  0  0  0  0  0  0  0  0  0  0  0
  127.4730  129.9190   61.9050 C   0  0  0  0  0  0  0  0  0  0  0  0
  128.1460  128.7990   61.3720 C   0  0  0  0  0  0  0  0  0  0  0  0
  128.3000  127.7430   62.2090 N   0  0  0  0  0  0  0  0  0  0  0  0
  128.9450  126.6440   61.8340 C   0  0  0  0  0  0  0  0  0  0  0  0
  130.1080  124.5590   66.6130 C   0  0  0  0  0  0  0  0  0  0  0  0
  129.9070  124.2090   68.0940 C   0  0  0  0  0  0  0  0  0  0  0  0
  129.2820  122.9830   70.7270 N   0  0  0  0  0  0  0  0  0  0  0  0
  127.9107  120.4040   76.1611 H   0  0  0  0  0  0  0  0  0  0  0  0
  126.5573  119.7609   75.1705 H   0  0  0  0  0  0  0  0  0  0  0  0
  128.1468  118.9243   75.1705 H   0  0  0  0  0  0  0  0  0  0  0  0
  129.0888  122.2166   75.3092 H   0  0  0  0  0  0  0  0  0  0  0  0
  129.8504  123.6254   73.3918 H   0  0  0  0  0  0  0  0  0  0  0  0
  127.2083  119.4673   72.5434 H   0  0  0  0  0  0  0  0  0  0  0  0
  128.0047  121.3078   67.2388 H   0  0  0  0  0  0  0  0  0  0  0  0
  128.4393  122.0747   65.0163 H   0  0  0  0  0  0  0  0  0  0  0  0
  130.7051  123.0407   62.6735 H   0  0  0  0  0  0  0  0  0  0  0  0
  129.9224  122.5891   61.1210 H   0  0  0  0  0  0  0  0  0  0  0  0
  131.5678  123.3096   61.1210 H   0  0  0  0  0  0  0  0  0  0  0  0
  130.2301  132.9416   58.0795 H   0  0  0  0  0  0  0  0  0  0  0  0
  129.6948  131.7706   59.3273 H   0  0  0  0  0  0  0  0  0  0  0  0
  133.0280  132.1820   57.3110 H   0  0  0  0  0  0  0  0  0  0  0  0
  135.1265  131.8188   58.8292 H   0  0  0  0  0  0  0  0  0  0  0  0
  133.6530  131.4616   62.5497 H   0  0  0  0  0  0  0  0  0  0  0  0
  134.4969  130.0891   61.7556 H   0  0  0  0  0  0  0  0  0  0  0  0
  135.2429  131.7231   61.7556 H   0  0  0  0  0  0  0  0  0  0  0  0
  131.5740  131.3570   61.0780 H   0  0  0  0  0  0  0  0  0  0  0  0
  127.5610  131.9970   59.2290 H   0  0  0  0  0  0  0  0  0  0  0  0
  126.7881  131.9322   61.5668 H   0  0  0  0  0  0  0  0  0  0  0  0
  127.0956  129.8909   62.9378 H   0  0  0  0  0  0  0  0  0  0  0  0
  130.6845  125.4683   66.3875 H   0  0  0  0  0  0  0  0  0  0  0  0
  130.8941  124.0861   68.5636 H   0  0  0  0  0  0  0  0  0  0  0  0
  129.3364  125.0290   68.5545 H   0  0  0  0  0  0  0  0  0  0  0  0
  129.8170  123.8400   70.7400 H   0  0  0  0  0  0  0  0  0  0  0  0
  1  2  1  0
  2  3  2  0
  3  4  1  0
  4  5  2  0
  5  6  1  0
  6  7  2  0
  6  8  1  0
  8  9  1  0
  9 10  2  0
 10 11  1  0
 11 12  2  0
 12 13  1  0
 13 14  1  0
 14 15  2  0
 15 16  1  0
 16 17  1  0
 17 18  1  0
 17 19  2  0
 19 20  1  0
 20 21  1  0
 21 22  1  0
 21 23  2  0
 23 24  1  0
 24 25  1  0
 25 26  2  0
 25 27  2  0
 25 28  1  0
 28 29  1  0
 29 30  1  0
 30 31  1  0
 31 32  1  0
 32 33  2  0
 33 34  1  0
 33 35  1  0
 24 36  2  0
 36 37  1  0
 37 38  2  0
 38 39  1  0
 39 40  2  0
 40 41  1  0
 13 42  2  0
 42 43  1  0
  9 44  1  0
  7  2  1  0
 43 10  1  0
 44  5  1  0
 41 16  2  0
 41 20  1  0
 39 23  1  0
 35 30  2  0
  1 45  1  0
  1 46  1  0
  1 47  1  0
  3 48  1  0
  4 49  1  0
  7 50  1  0
 11 51  1  0
 12 52  1  0
 18 53  1  0
 18 54  1  0
 18 55  1  0
 29 56  1  0
 29 57  1  0
 31 58  1  0
 32 59  1  0
 34 60  1  0
 34 61  1  0
 34 62  1  0
 35 63  1  0
 36 64  1  0
 37 65  1  0
 38 66  1  0
 42 67  1  0
 43 68  1  0
 43 69  1  0
 44 70  1  0
M  CHG  2  22  -1  35   1
M  END
>  <Binding energies>  (1) 
[35.27]

>  <Ligand effiencies>  (1) 
[0.7504255319148937]

>  <Interactions>  (1) 
["V-A:PRO:540:CG:4886, V-B:GLU:543:C:9874, H-B:GLU:543:O:9875, V-B:GLU:543:CB:9878, V-B:ALA:541:CB:9864, H-A:TYR:531:OH:4795, V-A:TYR:484:CE2:4346, V-B:GLU:543:CG:9879, V-A:HIS:456:CD2:4068, V-A:ASP:366:CG:3213, V-A:ASN:362:CB:3176, V-A:LEU:363:CB:3187, V-A:LEU:363:CD1:3189, V-A:LEU:363:CG:3188, V-B:LYS:547:CE:9922, V-A:TYR:484:CZ:4347, V-A:ASN:362:CG:3177, V-B:GLU:543:CA:9876, H-B:GLY:544:N:9887, V-A:TYR:484:CD2:4344, V-A:HIS:456:CE1:4070, V-A:TYR:484:CG:4342, V-B:GLY:544:CA:9886, H-A:TYR:484:N:4340, V-A:MET:535:CE:4835, V-B:GLU:543:CD:9880, V-A:ASN:362:C:3172, H-A:GLU:543:OE1:4909, V-A:TYR:484:CB:4341, V-B:VAL:542:C:9866, V-A:PRO:540:CB:4885, V-A:PRO:540:CA:4883, V-A:LEU:363:CA:3185, V-A:ASN:362:CA:3174, H-A:ASP:366:OD2:3215, H-B:GLU:543:N:9877, H-A:HIS:456:NE2:4071, V-A:LEU:363:C:3183"]

$$$$
ZINC585639622
     RDKit          3D

 32 34  0  0  0  0  0  0  0  0999 V2000
  126.3120  134.0300   60.8820 N   0  0  0  0  0  0  0  0  0  0  0  0
  127.2930  133.5030   61.1930 C   0  0  0  0  0  0  0  0  0  0  0  0
  128.5260  132.8410   61.5840 C   0  0  0  0  0  0  0  0  0  0  0  0
  129.2270  132.9550   62.7920 C   0  0  0  0  0  0  0  0  0  0  0  0
  130.3200  132.2280   62.8260 N   0  0  0  0  0  0  0  0  0  0  0  0
  130.3500  131.5970   61.6410 N   0  0  0  0  0  0  0  0  0  0  0  0
  131.4720  130.7110   61.2900 C   0  0  2  0  0  0  0  0  0  0  0  0
  132.7810  131.4770   61.0510 C   0  0  0  0  0  0  0  0  0  0  0  0
  132.8800  131.6200   59.5370 C   0  0  0  0  0  0  0  0  0  0  0  0
  132.3280  130.2770   59.0230 N   0  0  2  0  0  0  0  0  0  0  0  0
  131.8810  130.3020   57.5450 C   0  0  0  0  0  0  0  0  0  0  0  0
  131.2160  131.6280   57.2490 C   0  0  0  0  0  0  0  0  0  0  0  0
  129.9200  132.0490   57.5540 C   0  0  0  0  0  0  0  0  0  0  0  0
  129.6440  133.2690   57.1510 N   0  0  0  0  0  0  0  0  0  0  0  0
  130.8020  133.7160   56.5210 O   0  0  0  0  0  0  0  0  0  0  0  0
  131.7260  132.7260   56.5820 C   0  0  0  0  0  0  0  0  0  0  0  0
  131.1980  129.8980   60.0060 C   0  0  0  0  0  0  0  0  0  0  0  0
  129.2900  131.9530   60.8450 C   0  0  0  0  0  0  0  0  0  0  0  0
  128.8953  133.5893   63.6272 H   0  0  0  0  0  0  0  0  0  0  0  0
  131.5730  130.0443   62.1591 H   0  0  0  0  0  0  0  0  0  0  0  0
  132.7442  132.4657   61.5317 H   0  0  0  0  0  0  0  0  0  0  0  0
  133.6506  130.9540   61.4756 H   0  0  0  0  0  0  0  0  0  0  0  0
  132.2686  132.4614   59.1789 H   0  0  0  0  0  0  0  0  0  0  0  0
  133.9019  131.8296   59.1882 H   0  0  0  0  0  0  0  0  0  0  0  0
  133.0730  129.6010   59.1150 H   0  0  0  0  0  0  0  0  0  0  0  0
  132.7581  130.1767   56.8932 H   0  0  0  0  0  0  0  0  0  0  0  0
  131.1707  129.4828   57.3598 H   0  0  0  0  0  0  0  0  0  0  0  0
  129.1942  131.4154   58.0847 H   0  0  0  0  0  0  0  0  0  0  0  0
  132.7398  132.7878   56.1598 H   0  0  0  0  0  0  0  0  0  0  0  0
  130.2175  130.1649   59.5848 H   0  0  0  0  0  0  0  0  0  0  0  0
  131.1793  128.8165   60.2061 H   0  0  0  0  0  0  0  0  0  0  0  0
  129.0873  131.6024   59.8223 H   0  0  0  0  0  0  0  0  0  0  0  0
  1  2  3  0
  2  3  1  0
  3  4  1  0
  4  5  2  0
  5  6  1  0
  6  7  1  0
  7  8  1  0
  8  9  1  0
  9 10  1  0
 10 11  1  0
 11 12  1  0
 12 13  1  0
 13 14  2  0
 14 15  1  0
 15 16  1  0
 10 17  1  0
  6 18  1  0
 18  3  2  0
 17  7  1  0
 16 12  2  0
  4 19  1  0
  7 20  1  1
  8 21  1  0
  8 22  1  0
  9 23  1  0
  9 24  1  0
 10 25  1  6
 11 26  1  0
 11 27  1  0
 13 28  1  0
 16 29  1  0
 17 30  1  0
 17 31  1  0
 18 32  1  0
M  CHG  1  10   1
M  END
>  <Binding energies>  (1) 
[-7.14]

>  <Ligand effiencies>  (1) 
[-0.3757894736842105]

>  <Interactions>  (1) 
["V-A:LEU:363:CD1:3189, V-A:TYR:539:CD1:4873, H-A:TYR:539:N:4870, V-A:PRO:540:CB:4885, V-A:PRO:540:CA:4883, V-A:LEU:363:CA:3185, V-A:TYR:531:CE2:4793, H-A:ALA:541:N:4891, V-A:ALA:541:CA:4890, V-A:ALA:541:CB:4892, V-A:PRO:540:C:4881, V-A:TYR:531:CZ:4794, V-A:ILE:538:CB:4862, H-A:ASP:366:OD2:3215, V-A:ASP:366:CB:3212, V-A:PRO:540:CD:4887, V-A:ASP:366:CG:3213, V-A:ILE:538:CG2:4863"]

$$$$
ZINC585660724
     RDKit          3D

 60 61  0  0  0  0  0  0  0  0999 V2000
  133.6440  124.3630   58.8670 C   0  0  0  0  0  0  0  0  0  0  0  0
  133.0030  123.9390   59.9730 C   0  0  0  0  0  0  0  0  0  0  0  0
  133.7010  123.6640   61.2170 C   0  0  0  0  0  0  0  0  0  0  0  0
  134.8990  123.8150   61.4580 O   0  0  0  0  0  0  0  0  0  0  0  0
  132.8140  123.1880   62.1050 O   0  0  0  0  0  0  0  0  0  0  0  0
  131.5120  123.0330   61.5670 C   0  0  2  0  0  0  0  0  0  0  0  0
  131.0860  121.5680   61.5620 C   0  0  0  0  0  0  0  0  0  0  0  0
  129.8260  121.0820   61.6050 C   0  0  0  0  0  0  0  0  0  0  0  0
  129.5730  119.5730   61.6120 C   0  0  0  0  0  0  0  0  0  0  0  0
  130.7530  118.8070   61.4070 O   0  0  0  0  0  0  0  0  0  0  0  0
  130.9760  118.7190   59.9370 O   0  0  0  0  0  0  0  0  0  0  0  0
  128.5800  121.9640   61.7050 C   0  0  0  0  0  0  0  0  0  0  0  0
  128.3540  122.7270   63.0310 C   0  0  0  0  0  0  0  0  0  0  0  0
  129.2520  123.9200   63.3460 C   0  0  0  0  0  0  0  0  0  0  0  0
  129.7320  124.8640   62.5070 C   0  0  0  0  0  0  0  0  0  0  0  0
  130.7510  125.8750   63.0190 C   0  0  0  0  0  0  0  0  0  0  0  0
  132.0410  125.2900   63.1420 O   0  0  0  0  0  0  0  0  0  0  0  0
  132.5590  125.0110   64.3530 C   0  0  0  0  0  0  0  0  0  0  0  0
  131.5310  125.1630   65.4660 C   0  0  0  0  0  0  0  0  0  0  0  0
  133.7200  124.6790   64.5930 O   0  0  0  0  0  0  0  0  0  0  0  0
  129.4060  124.9320   61.0100 C   0  0  0  0  0  0  0  0  0  0  0  0
  130.6040  124.8920   60.0110 C   0  0  2  0  0  0  0  0  0  0  0  0
  130.1390  124.9590   58.6600 O   0  0  0  0  0  0  0  0  0  0  0  0
  128.8240  124.9830   58.3450 C   0  0  0  0  0  0  0  0  0  0  0  0
  128.1560  125.9910   58.1060 O   0  0  0  0  0  0  0  0  0  0  0  0
  128.2120  123.5720   58.2980 C   0  0  1  0  0  0  0  0  0  0  0  0
  126.9660  123.4880   59.2030 C   0  0  0  0  0  0  0  0  0  0  0  0
  127.9130  123.1000   56.8530 C   0  0  0  0  0  0  0  0  0  0  0  0
  126.5080  122.5020   56.6520 C   0  0  0  0  0  0  0  0  0  0  0  0
  131.5290  123.6460   60.1590 C   0  0  1  0  0  0  0  0  0  0  0  0
  133.0779  124.5600   57.9447 H   0  0  0  0  0  0  0  0  0  0  0  0
  134.7337  124.5123   58.8860 H   0  0  0  0  0  0  0  0  0  0  0  0
  130.7657  123.5512   62.1871 H   0  0  0  0  0  0  0  0  0  0  0  0
  131.8952  120.8242   61.5185 H   0  0  0  0  0  0  0  0  0  0  0  0
  129.1404  119.2954   62.5845 H   0  0  0  0  0  0  0  0  0  0  0  0
  128.8904  119.3518   60.7783 H   0  0  0  0  0  0  0  0  0  0  0  0
  130.0680  118.6620   59.6310 H   0  0  0  0  0  0  0  0  0  0  0  0
  128.6390  122.7113   60.9000 H   0  0  0  0  0  0  0  0  0  0  0  0
  127.7336  121.2650   61.6343 H   0  0  0  0  0  0  0  0  0  0  0  0
  127.3172  123.0943   63.0218 H   0  0  0  0  0  0  0  0  0  0  0  0
  128.5999  121.9911   63.8108 H   0  0  0  0  0  0  0  0  0  0  0  0
  129.5490  124.0258   64.3999 H   0  0  0  0  0  0  0  0  0  0  0  0
  130.8053  126.7177   62.3141 H   0  0  0  0  0  0  0  0  0  0  0  0
  130.4295  126.2197   64.0129 H   0  0  0  0  0  0  0  0  0  0  0  0
  132.0334  125.0887   66.4418 H   0  0  0  0  0  0  0  0  0  0  0  0
  131.0399  126.1435   65.3801 H   0  0  0  0  0  0  0  0  0  0  0  0
  130.7771  124.3666   65.3801 H   0  0  0  0  0  0  0  0  0  0  0  0
  128.7525  124.0787   60.7757 H   0  0  0  0  0  0  0  0  0  0  0  0
  128.9529  125.9239   60.8659 H   0  0  0  0  0  0  0  0  0  0  0  0
  131.2101  125.7741   60.2651 H   0  0  0  0  0  0  0  0  0  0  0  0
  128.9659  122.8747   58.6922 H   0  0  0  0  0  0  0  0  0  0  0  0
  127.2770  123.5090   60.2579 H   0  0  0  0  0  0  0  0  0  0  0  0
  126.3058  124.3437   58.9983 H   0  0  0  0  0  0  0  0  0  0  0  0
  126.4266  122.5515   58.9983 H   0  0  0  0  0  0  0  0  0  0  0  0
  128.0173  123.9647   56.1811 H   0  0  0  0  0  0  0  0  0  0  0  0
  128.6292  122.2944   56.6336 H   0  0  0  0  0  0  0  0  0  0  0  0
  126.0490  122.3066   57.6324 H   0  0  0  0  0  0  0  0  0  0  0  0
  125.8840  123.2125   56.0900 H   0  0  0  0  0  0  0  0  0  0  0  0
  126.5875  121.5597   56.0900 H   0  0  0  0  0  0  0  0  0  0  0  0
  131.1185  122.9854   59.3811 H   0  0  0  0  0  0  0  0  0  0  0  0
  1  2  2  0
  2  3  1  0
  3  4  2  0
  3  5  1  0
  5  6  1  0
  6  7  1  0
  7  8  2  0
  8  9  1  0
  9 10  1  0
 10 11  1  0
  8 12  1  0
 12 13  1  0
 13 14  1  0
 14 15  2  0
 15 16  1  0
 16 17  1  0
 17 18  1  0
 18 19  1  0
 18 20  2  0
 15 21  1  0
 21 22  1  0
 22 23  1  0
 23 24  1  0
 24 25  2  0
 24 26  1  0
 26 27  1  0
 26 28  1  0
 28 29  1  0
 22 30  1  0
 30  2  1  0
 30  6  1  0
  1 31  1  0
  1 32  1  0
  6 33  1  1
  7 34  1  0
  9 35  1  0
  9 36  1  0
 11 37  1  0
 12 38  1  0
 12 39  1  0
 13 40  1  0
 13 41  1  0
 14 42  1  0
 16 43  1  0
 16 44  1  0
 19 45  1  0
 19 46  1  0
 19 47  1  0
 21 48  1  0
 21 49  1  0
 22 50  1  1
 26 51  1  1
 27 52  1  0
 27 53  1  0
 27 54  1  0
 28 55  1  0
 28 56  1  0
 29 57  1  0
 29 58  1  0
 29 59  1  0
 30 60  1  6
M  END
>  <Binding energies>  (1) 
[-4.47]

>  <Ligand effiencies>  (1) 
[-0.13545454545454544]

>  <Interactions>  (1) 
["V-A:ILE:369:CG2:3237, V-A:ASP:366:CA:3210, V-B:PRO:540:CA:9855, V-A:ILE:369:CB:3236, V-B:ALA:541:CB:9864, V-B:TYR:539:CE2:9848, V-B:GLU:543:CG:9879, V-B:TYR:539:C:9839, V-A:ASP:366:CG:3213, V-B:TYR:539:CZ:9849, H-B:TYR:539:OH:9850, V-B:PRO:540:CB:9857, H-A:GLY:454:N:4050, V-B:PRO:540:N:9856, V-A:ILE:369:CD1:3239, V-A:ASP:366:C:3208, V-B:TYR:539:CD2:9846, V-B:PRO:540:CD:9859, H-A:SER:385:OG:3410, V-B:GLU:543:CD:9880, V-A:ASP:366:CB:3212, V-A:LEU:475:CD2:4259, H-A:ARG:545:NH2:4928, V-A:ARG:545:CZ:4926, V-B:TYR:539:CG:9844, H-A:HIS:383:HE2:3395, V-B:TYR:539:CD1:9845, H-B:TYR:539:O:9840, H-A:ARG:545:NE:4924, V-B:PRO:540:C:9853, V-B:ALA:541:CA:9862, V-B:TYR:539:CE1:9847, H-A:TYR:484:OH:4348"]

$$$$
ZINC586206330
     RDKit          3D

 45 47  0  0  0  0  0  0  0  0999 V2000
  128.7300  122.4630   62.5290 C   0  0  0  0  0  0  0  0  0  0  0  0
  129.9160  121.7250   61.9210 C   0  0  0  0  0  0  0  0  0  0  0  0
  129.7690  120.3620   61.6420 C   0  0  0  0  0  0  0  0  0  0  0  0
  130.8260  119.6250   61.1110 C   0  0  0  0  0  0  0  0  0  0  0  0
  130.6260  117.9440   60.7770 Cl  0  0  0  0  0  0  0  0  0  0  0  0
  132.0440  120.2470   60.8510 C   0  0  0  0  0  0  0  0  0  0  0  0
  132.2050  121.6030   61.1270 C   0  0  0  0  0  0  0  0  0  0  0  0
  131.1530  122.3560   61.6650 C   0  0  0  0  0  0  0  0  0  0  0  0
  131.3890  123.7230   61.9140 N   0  0  0  0  0  0  0  0  0  0  0  0
  130.7800  124.7160   61.0200 C   0  0  0  0  0  0  0  0  0  0  0  0
  131.6220  125.0160   59.7780 C   0  0  0  0  0  0  0  0  0  0  0  0
  132.8240  124.3210   59.6060 C   0  0  0  0  0  0  0  0  0  0  0  0
  133.6230  124.5450   58.4860 C   0  0  0  0  0  0  0  0  0  0  0  0
  133.2330  125.4790   57.5300 C   0  0  0  0  0  0  0  0  0  0  0  0
  132.0520  126.1970   57.7010 C   0  0  0  0  0  0  0  0  0  0  0  0
  131.2470  125.9800   58.8230 C   0  0  0  0  0  0  0  0  0  0  0  0
  129.8230  126.9440   58.9980 Cl  0  0  0  0  0  0  0  0  0  0  0  0
  132.6990  124.2690   63.0010 S   0  0  0  0  0  0  0  0  0  0  0  0
  133.5590  123.1140   63.2860 O   0  0  0  0  0  0  0  0  0  0  0  0
  133.2800  125.4750   62.3970 O   0  0  0  0  0  0  0  0  0  0  0  0
  131.8950  124.7650   64.5430 C   0  0  0  0  0  0  0  0  0  0  0  0
  130.4960  124.8530   64.5380 C   0  0  0  0  0  0  0  0  0  0  0  0
  129.8020  125.2840   65.6660 C   0  0  0  0  0  0  0  0  0  0  0  0
  130.5000  125.6390   66.8160 C   0  0  0  0  0  0  0  0  0  0  0  0
  131.8880  125.5490   66.8400 C   0  0  0  0  0  0  0  0  0  0  0  0
  132.6050  125.0980   65.7220 C   0  0  0  0  0  0  0  0  0  0  0  0
  134.0730  124.9930   65.8350 N   0  0  0  0  0  0  0  0  0  0  0  0
  134.5650  124.8550   66.9490 O   0  0  0  0  0  0  0  0  0  0  0  0
  134.7370  125.1080   64.8090 O   0  0  0  0  0  0  0  0  0  0  0  0
  128.7960  122.4219   63.6263 H   0  0  0  0  0  0  0  0  0  0  0  0
  128.7434  123.5125   62.1999 H   0  0  0  0  0  0  0  0  0  0  0  0
  127.7943  121.9874   62.1999 H   0  0  0  0  0  0  0  0  0  0  0  0
  128.8081  119.8663   61.8441 H   0  0  0  0  0  0  0  0  0  0  0  0
  132.8785  119.6684   60.4281 H   0  0  0  0  0  0  0  0  0  0  0  0
  133.1701  122.0886   60.9200 H   0  0  0  0  0  0  0  0  0  0  0  0
  129.8006  124.3363   60.6934 H   0  0  0  0  0  0  0  0  0  0  0  0
  130.6952  125.6542   61.5880 H   0  0  0  0  0  0  0  0  0  0  0  0
  133.1422  123.5894   60.3633 H   0  0  0  0  0  0  0  0  0  0  0  0
  134.5607  123.9844   58.3576 H   0  0  0  0  0  0  0  0  0  0  0  0
  133.8571  125.6497   56.6404 H   0  0  0  0  0  0  0  0  0  0  0  0
  131.7506  126.9400   56.9479 H   0  0  0  0  0  0  0  0  0  0  0  0
  129.9385  124.5778   63.6305 H   0  0  0  0  0  0  0  0  0  0  0  0
  128.7038  125.3436   65.6477 H   0  0  0  0  0  0  0  0  0  0  0  0
  129.9552  125.9902   67.7047 H   0  0  0  0  0  0  0  0  0  0  0  0
  132.4326  125.8365   67.7515 H   0  0  0  0  0  0  0  0  0  0  0  0
  1  2  1  0
  2  3  2  0
  3  4  1  0
  4  5  1  0
  4  6  2  0
  6  7  1  0
  7  8  2  0
  8  9  1  0
  9 10  1  0
 10 11  1  0
 11 12  2  0
 12 13  1  0
 13 14  2  0
 14 15  1  0
 15 16  2  0
 16 17  1  0
  9 18  1  0
 18 19  2  0
 18 20  2  0
 18 21  1  0
 21 22  2  0
 22 23  1  0
 23 24  2  0
 24 25  1  0
 25 26  2  0
 26 27  1  0
 27 28  2  0
 27 29  1  0
  8  2  1  0
 16 11  1  0
 26 21  1  0
  1 30  1  0
  1 31  1  0
  1 32  1  0
  3 33  1  0
  6 34  1  0
  7 35  1  0
 10 36  1  0
 10 37  1  0
 12 38  1  0
 13 39  1  0
 14 40  1  0
 15 41  1  0
 22 42  1  0
 23 43  1  0
 24 44  1  0
 25 45  1  0
M  CHG  2  27   1  29  -1
M  END
>  <Binding energies>  (1) 
[-8.91]

>  <Ligand effiencies>  (1) 
[-0.30724137931034484]

>  <Interactions>  (1) 
["V-A:ILE:369:CG2:3237, V-A:ASP:366:CA:3210, V-A:GLY:454:CA:4049, V-A:ILE:369:CB:3236, V-B:GLU:543:CB:9878, V-B:ALA:541:CB:9864, H-A:ARG:545:NH1:4927, V-B:TYR:539:CE2:9848, V-B:GLU:543:CG:9879, V-A:ASP:366:CG:3213, V-A:TYR:484:CZ:4347, V-A:ARG:545:CG:4922, H-A:GLY:454:N:4050, V-A:GLY:453:C:4042, V-A:HIS:456:CE1:4070, V-A:ASP:366:C:3208, V-B:TYR:539:CD2:9846, V-A:TYR:531:CZ:4794, V-A:SER:385:CB:3409, V-B:GLU:543:CD:9880, V-A:ASP:366:CB:3212, V-A:ARG:545:CD:4923, V-A:LEU:475:CD2:4259, H-A:ARG:545:NH2:4928, H-A:ILE:455:N:4055, V-A:ARG:545:CZ:4926, V-A:GLY:453:CA:4044, H-A:ARG:545:NE:4924, V-A:HIS:383:NE2:3394, H-A:TYR:484:OH:4348"]

$$$$
ZINC586206527
     RDKit          3D

 45 48  0  0  0  0  0  0  0  0999 V2000
  130.8140  119.1720   60.8920 C   0  0  0  0  0  0  0  0  0  0  0  0
  129.8640  120.1190   61.6390 C   0  0  0  0  0  0  0  0  0  0  0  0
  130.0140  121.5160   61.2340 N   0  0  0  0  0  0  0  0  0  0  0  0
  131.2330  122.1660   61.4930 C   0  0  0  0  0  0  0  0  0  0  0  0
  132.2070  122.0250   60.5020 C   0  0  0  0  0  0  0  0  0  0  0  0
  133.4520  122.6150   60.6400 C   0  0  0  0  0  0  0  0  0  0  0  0
  133.7350  123.3630   61.7730 C   0  0  0  0  0  0  0  0  0  0  0  0
  132.7810  123.5410   62.7880 C   0  0  0  0  0  0  0  0  0  0  0  0
  131.4970  122.9400   62.6590 C   0  0  0  0  0  0  0  0  0  0  0  0
  130.4590  123.1510   63.7470 C   0  0  0  0  0  0  0  0  0  0  0  0
  129.3400  122.6380   63.7020 O   0  0  0  0  0  0  0  0  0  0  0  0
  130.8250  124.0520   64.8930 C   0  0  0  0  0  0  0  0  0  0  0  0
  129.8680  124.3310   65.8840 C   0  0  0  0  0  0  0  0  0  0  0  0
  130.1660  125.1620   66.9610 C   0  0  0  0  0  0  0  0  0  0  0  0
  131.4280  125.7320   67.0660 C   0  0  0  0  0  0  0  0  0  0  0  0
  132.3900  125.4700   66.0940 C   0  0  0  0  0  0  0  0  0  0  0  0
  132.1080  124.6320   65.0020 C   0  0  0  0  0  0  0  0  0  0  0  0
  133.1690  124.3780   63.9760 C   0  0  0  0  0  0  0  0  0  0  0  0
  134.2990  124.8610   64.0900 O   0  0  0  0  0  0  0  0  0  0  0  0
  128.6070  122.3840   60.5650 S   0  0  0  0  0  0  0  0  0  0  0  0
  128.2850  121.7490   59.2820 O   0  0  0  0  0  0  0  0  0  0  0  0
  127.6080  122.4830   61.6360 O   0  0  0  0  0  0  0  0  0  0  0  0
  129.2120  124.0330   60.2210 C   0  0  0  0  0  0  0  0  0  0  0  0
  129.6770  124.3430   58.9410 C   0  0  0  0  0  0  0  0  0  0  0  0
  130.1020  125.6370   58.6540 C   0  0  0  0  0  0  0  0  0  0  0  0
  130.0470  126.6180   59.6440 C   0  0  0  0  0  0  0  0  0  0  0  0
  130.6250  128.3880   59.2500 Br  0  0  0  0  0  0  0  0  0  0  0  0
  129.5690  126.3150   60.9170 C   0  0  0  0  0  0  0  0  0  0  0  0
  129.1450  125.0210   61.2060 C   0  0  0  0  0  0  0  0  0  0  0  0
  131.3982  118.5896   61.6197 H   0  0  0  0  0  0  0  0  0  0  0  0
  130.2281  118.4879   60.2606 H   0  0  0  0  0  0  0  0  0  0  0  0
  131.4963  119.7600   60.2606 H   0  0  0  0  0  0  0  0  0  0  0  0
  128.8286  119.8056   61.4398 H   0  0  0  0  0  0  0  0  0  0  0  0
  130.1131  120.0582   62.7087 H   0  0  0  0  0  0  0  0  0  0  0  0
  131.9820  121.4373   59.5998 H   0  0  0  0  0  0  0  0  0  0  0  0
  134.2126  122.4911   59.8551 H   0  0  0  0  0  0  0  0  0  0  0  0
  134.7270  123.8263   61.8788 H   0  0  0  0  0  0  0  0  0  0  0  0
  128.8655  123.8848   65.8074 H   0  0  0  0  0  0  0  0  0  0  0  0
  129.4034  125.3665   67.7269 H   0  0  0  0  0  0  0  0  0  0  0  0
  131.6671  126.3890   67.9152 H   0  0  0  0  0  0  0  0  0  0  0  0
  133.3869  125.9265   66.1825 H   0  0  0  0  0  0  0  0  0  0  0  0
  129.7073  123.5669   58.1621 H   0  0  0  0  0  0  0  0  0  0  0  0
  130.4795  125.8848   57.6510 H   0  0  0  0  0  0  0  0  0  0  0  0
  129.5268  127.0955   61.6910 H   0  0  0  0  0  0  0  0  0  0  0  0
  128.7585  124.7774   62.2066 H   0  0  0  0  0  0  0  0  0  0  0  0
  1  2  1  0
  2  3  1  0
  3  4  1  0
  4  5  2  0
  5  6  1  0
  6  7  2  0
  7  8  1  0
  8  9  2  0
  9 10  1  0
 10 11  2  0
 10 12  1  0
 12 13  2  0
 13 14  1  0
 14 15  2  0
 15 16  1  0
 16 17  2  0
 17 18  1  0
 18 19  2  0
  3 20  1  0
 20 21  2  0
 20 22  2  0
 20 23  1  0
 23 24  2  0
 24 25  1  0
 25 26  2  0
 26 27  1  0
 26 28  1  0
 28 29  2  0
  9  4  1  0
 17 12  1  0
 29 23  1  0
 18  8  1  0
  1 30  1  0
  1 31  1  0
  1 32  1  0
  2 33  1  0
  2 34  1  0
  5 35  1  0
  6 36  1  0
  7 37  1  0
 13 38  1  0
 14 39  1  0
 15 40  1  0
 16 41  1  0
 24 42  1  0
 25 43  1  0
 28 44  1  0
 29 45  1  0
M  END
>  <Binding energies>  (1) 
[-8.05]

>  <Ligand effiencies>  (1) 
[-0.2775862068965517]

>  <Interactions>  (1) 
["V-A:ILE:369:CG2:3237, V-B:PRO:540:CA:9855, V-A:GLY:454:CA:4049, V-B:GLU:543:CB:9878, V-B:ALA:541:CB:9864, H-A:ARG:545:NH1:4927, V-B:TYR:539:CE2:9848, V-A:TYR:484:CE2:4346, V-B:GLU:543:CG:9879, V-B:TYR:539:CZ:9849, H-B:ALA:541:N:9863, V-A:TYR:484:CZ:4347, H-A:GLY:454:N:4050, V-A:ILE:369:CD1:3239, V-A:HIS:456:CE1:4070, V-B:TYR:539:CD2:9846, V-B:GLU:543:CD:9880, V-A:ARG:545:CD:4923, V-A:LEU:475:CD2:4259, H-A:ARG:545:NH2:4928, V-A:ARG:545:CZ:4926, H-A:ARG:545:NE:4924"]

$$$$
ZINC586210387
     RDKit          3D

 53 55  0  0  0  0  0  0  0  0999 V2000
  131.9050  125.6960   58.7300 C   0  0  0  0  0  0  0  0  0  0  0  0
  130.5680  125.0070   58.9030 C   0  0  0  0  0  0  0  0  0  0  0  0
  129.8590  124.7260   57.8330 N   0  0  0  0  0  0  0  0  0  0  0  0
  128.7110  124.0850   58.2850 O   0  0  0  0  0  0  0  0  0  0  0  0
  128.7670  124.0080   59.6370 C   0  0  0  0  0  0  0  0  0  0  0  0
  127.6060  123.3150   60.3090 C   0  0  0  0  0  0  0  0  0  0  0  0
  129.9290  124.6080   60.0880 C   0  0  0  0  0  0  0  0  0  0  0  0
  130.4080  124.7540   61.5210 C   0  0  0  0  0  0  0  0  0  0  0  0
  131.3880  123.7460   61.9460 N   0  0  0  0  0  0  0  0  0  0  0  0
  131.1730  122.3970   61.5970 C   0  0  0  0  0  0  0  0  0  0  0  0
  132.1550  121.7050   60.8800 C   0  0  0  0  0  0  0  0  0  0  0  0
  131.9650  120.3720   60.5290 C   0  0  0  0  0  0  0  0  0  0  0  0
  130.7880  119.7110   60.8910 C   0  0  0  0  0  0  0  0  0  0  0  0
  130.5860  118.2450   60.5040 C   0  0  0  0  0  0  0  0  0  0  0  0
  130.9290  117.2930   61.6660 C   0  0  0  0  0  0  0  0  0  0  0  0
  131.3550  117.8750   59.2200 C   0  0  0  0  0  0  0  0  0  0  0  0
  129.8030  120.3990   61.6060 C   0  0  0  0  0  0  0  0  0  0  0  0
  129.9930  121.7320   61.9570 C   0  0  0  0  0  0  0  0  0  0  0  0
  132.7020  124.2410   63.0690 S   0  0  0  0  0  0  0  0  0  0  0  0
  133.5250  123.0620   63.3650 O   0  0  0  0  0  0  0  0  0  0  0  0
  133.3320  125.4300   62.4800 O   0  0  0  0  0  0  0  0  0  0  0  0
  131.9050  124.7520   64.6100 C   0  0  0  0  0  0  0  0  0  0  0  0
  130.5080  124.8470   64.6090 C   0  0  0  0  0  0  0  0  0  0  0  0
  129.8180  125.2920   65.7340 C   0  0  0  0  0  0  0  0  0  0  0  0
  130.5190  125.6570   66.8780 C   0  0  0  0  0  0  0  0  0  0  0  0
  131.9090  125.5670   66.8950 C   0  0  0  0  0  0  0  0  0  0  0  0
  132.6210  125.1050   65.7790 C   0  0  0  0  0  0  0  0  0  0  0  0
  134.0900  125.0190   65.8840 N   0  0  0  0  0  0  0  0  0  0  0  0
  134.7560  125.1020   64.8590 O   0  0  0  0  0  0  0  0  0  0  0  0
  134.5750  124.8110   66.9920 O   0  0  0  0  0  0  0  0  0  0  0  0
  132.3341  125.9171   59.7184 H   0  0  0  0  0  0  0  0  0  0  0  0
  132.5876  125.0374   58.1730 H   0  0  0  0  0  0  0  0  0  0  0  0
  131.7647  126.6341   58.1730 H   0  0  0  0  0  0  0  0  0  0  0  0
  127.7204  123.3833   61.4009 H   0  0  0  0  0  0  0  0  0  0  0  0
  126.6656  123.7996   60.0078 H   0  0  0  0  0  0  0  0  0  0  0  0
  127.5862  122.2572   60.0078 H   0  0  0  0  0  0  0  0  0  0  0  0
  130.8690  125.7469   61.6287 H   0  0  0  0  0  0  0  0  0  0  0  0
  129.5233  124.6161   62.1600 H   0  0  0  0  0  0  0  0  0  0  0  0
  133.0841  122.2184   60.5916 H   0  0  0  0  0  0  0  0  0  0  0  0
  132.7433  119.8370   59.9651 H   0  0  0  0  0  0  0  0  0  0  0  0
  129.5154  118.1188   60.2853 H   0  0  0  0  0  0  0  0  0  0  0  0
  130.7455  117.8023   62.6236 H   0  0  0  0  0  0  0  0  0  0  0  0
  130.2982  116.3941   61.6020 H   0  0  0  0  0  0  0  0  0  0  0  0
  131.9881  117.0030   61.6020 H   0  0  0  0  0  0  0  0  0  0  0  0
  132.3162  117.4125   59.4887 H   0  0  0  0  0  0  0  0  0  0  0  0
  130.7593  117.1649   58.6276 H   0  0  0  0  0  0  0  0  0  0  0  0
  131.5381  118.7836   58.6276 H   0  0  0  0  0  0  0  0  0  0  0  0
  128.8739  119.8843   61.8923 H   0  0  0  0  0  0  0  0  0  0  0  0
  129.2134  122.2664   62.5197 H   0  0  0  0  0  0  0  0  0  0  0  0
  129.9468  124.5658   63.7057 H   0  0  0  0  0  0  0  0  0  0  0  0
  128.7199  125.3546   65.7175 H   0  0  0  0  0  0  0  0  0  0  0  0
  129.9780  126.0154   67.7662 H   0  0  0  0  0  0  0  0  0  0  0  0
  132.4582  125.8639   67.8007 H   0  0  0  0  0  0  0  0  0  0  0  0
  1  2  1  0
  2  3  2  0
  3  4  1  0
  4  5  1  0
  5  6  1  0
  5  7  2  0
  7  8  1  0
  8  9  1  0
  9 10  1  0
 10 11  2  0
 11 12  1  0
 12 13  2  0
 13 14  1  0
 14 15  1  0
 14 16  1  0
 13 17  1  0
 17 18  2  0
  9 19  1  0
 19 20  2  0
 19 21  2  0
 19 22  1  0
 22 23  2  0
 23 24  1  0
 24 25  2  0
 25 26  1  0
 26 27  2  0
 27 28  1  0
 28 29  2  0
 28 30  1  0
  7  2  1  0
 18 10  1  0
 27 22  1  0
  1 31  1  0
  1 32  1  0
  1 33  1  0
  6 34  1  0
  6 35  1  0
  6 36  1  0
  8 37  1  0
  8 38  1  0
 11 39  1  0
 12 40  1  0
 14 41  1  0
 15 42  1  0
 15 43  1  0
 15 44  1  0
 16 45  1  0
 16 46  1  0
 16 47  1  0
 17 48  1  0
 18 49  1  0
 23 50  1  0
 24 51  1  0
 25 52  1  0
 26 53  1  0
M  CHG  2  28   1  30  -1
M  END
>  <Binding energies>  (1) 
[-8.29]

>  <Ligand effiencies>  (1) 
[-0.2763333333333333]

>  <Interactions>  (1) 
["V-B:PRO:540:CA:9855, V-A:GLY:454:CA:4049, V-B:GLU:543:CB:9878, V-B:ALA:541:CB:9864, H-A:ARG:545:NH1:4927, V-B:TYR:539:CE2:9848, V-A:LEU:475:CG:4257, V-B:GLU:543:CG:9879, V-B:TYR:539:C:9839, V-A:ASP:366:CG:3213, V-B:TYR:539:CZ:9849, H-B:TYR:539:OH:9850, V-A:LEU:475:CD1:4258, V-B:TYR:539:CB:9843, V-A:HIS:383:CE1:3393, V-A:TYR:484:CZ:4347, V-A:ARG:545:CG:4922, H-A:GLY:454:N:4050, V-A:GLY:453:C:4042, V-A:HIS:456:CE1:4070, V-A:PRO:482:CB:4326, V-B:TYR:539:CD2:9846, V-B:GLU:543:CD:9880, V-A:ASP:366:CB:3212, V-A:ARG:545:CD:4923, V-A:LEU:475:CD2:4259, H-A:ARG:545:NH2:4928, H-A:ILE:455:N:4055, V-A:ARG:545:CZ:4926, V-B:TYR:539:CG:9844, V-A:HIS:383:CD2:3392, V-A:GLY:453:CA:4044, H-A:ARG:545:NE:4924, V-A:HIS:383:NE2:3394, H-A:TYR:484:OH:4348"]

$$$$
ZINC586231052
     RDKit          3D

 52 54  0  0  0  0  0  0  0  0999 V2000
  129.4870  122.2500   64.5510 C   0  0  0  0  0  0  0  0  0  0  0  0
  130.4830  123.3550   64.8540 C   0  0  0  0  0  0  0  0  0  0  0  0
  130.1400  124.3920   65.7240 C   0  0  0  0  0  0  0  0  0  0  0  0
  131.0610  125.3990   66.0090 C   0  0  0  0  0  0  0  0  0  0  0  0
  132.3290  125.3690   65.4290 C   0  0  0  0  0  0  0  0  0  0  0  0
  132.6930  124.3390   64.5580 C   0  0  0  0  0  0  0  0  0  0  0  0
  133.9680  124.3920   64.0320 O   0  0  0  0  0  0  0  0  0  0  0  0
  134.1470  124.7720   62.6690 C   0  0  0  0  0  0  0  0  0  0  0  0
  132.8490  125.4100   62.1510 C   0  0  0  0  0  0  0  0  0  0  0  0
  132.7020  125.3210   60.6990 N   0  0  0  0  0  0  0  0  0  0  0  0
  131.7800  126.2040   60.1120 C   0  0  0  0  0  0  0  0  0  0  0  0
  132.0620  126.7510   58.8560 C   0  0  0  0  0  0  0  0  0  0  0  0
  131.1610  127.6250   58.2480 C   0  0  0  0  0  0  0  0  0  0  0  0
  129.9710  127.9680   58.8930 C   0  0  0  0  0  0  0  0  0  0  0  0
  128.9810  128.9060   58.2270 C   0  0  0  0  0  0  0  0  0  0  0  0
  129.6860  127.4250   60.1490 C   0  0  0  0  0  0  0  0  0  0  0  0
  130.5860  126.5510   60.7600 C   0  0  0  0  0  0  0  0  0  0  0  0
  130.2890  126.0480   61.9820 F   0  0  0  0  0  0  0  0  0  0  0  0
  133.0330  123.7380   59.9530 S   0  0  0  0  0  0  0  0  0  0  0  0
  132.8850  123.9160   58.5030 O   0  0  0  0  0  0  0  0  0  0  0  0
  134.2990  123.2410   60.5040 O   0  0  0  0  0  0  0  0  0  0  0  0
  131.7070  122.6440   60.5160 C   0  0  0  0  0  0  0  0  0  0  0  0
  130.4300  123.2030   60.6610 C   0  0  0  0  0  0  0  0  0  0  0  0
  129.3430  122.4160   61.0330 C   0  0  0  0  0  0  0  0  0  0  0  0
  129.5180  121.0560   61.2630 C   0  0  0  0  0  0  0  0  0  0  0  0
  130.7810  120.4890   61.1330 C   0  0  0  0  0  0  0  0  0  0  0  0
  131.8930  121.2670   60.7820 C   0  0  0  0  0  0  0  0  0  0  0  0
  133.2110  120.6040   60.7180 N   0  0  0  0  0  0  0  0  0  0  0  0
  133.9800  120.7360   61.6620 O   0  0  0  0  0  0  0  0  0  0  0  0
  133.4520  119.9000   59.7420 O   0  0  0  0  0  0  0  0  0  0  0  0
  131.7560  123.3280   64.2770 C   0  0  0  0  0  0  0  0  0  0  0  0
  129.1079  121.8294   65.4940 H   0  0  0  0  0  0  0  0  0  0  0  0
  128.6486  122.6613   63.9697 H   0  0  0  0  0  0  0  0  0  0  0  0
  129.9829  121.4587   63.9697 H   0  0  0  0  0  0  0  0  0  0  0  0
  129.1416  124.4144   66.1852 H   0  0  0  0  0  0  0  0  0  0  0  0
  130.7876  126.2173   66.6914 H   0  0  0  0  0  0  0  0  0  0  0  0
  133.0512  126.1659   65.6601 H   0  0  0  0  0  0  0  0  0  0  0  0
  134.9699  125.4981   62.5939 H   0  0  0  0  0  0  0  0  0  0  0  0
  134.3907  123.8851   62.0657 H   0  0  0  0  0  0  0  0  0  0  0  0
  131.9963  124.8978   62.6206 H   0  0  0  0  0  0  0  0  0  0  0  0
  132.8840  126.4783   62.4108 H   0  0  0  0  0  0  0  0  0  0  0  0
  133.0003  126.4903   58.3445 H   0  0  0  0  0  0  0  0  0  0  0  0
  131.3886  128.0454   57.2573 H   0  0  0  0  0  0  0  0  0  0  0  0
  128.4115  129.4456   58.9980 H   0  0  0  0  0  0  0  0  0  0  0  0
  129.5247  129.6281   57.6001 H   0  0  0  0  0  0  0  0  0  0  0  0
  128.2893  128.3241   57.6001 H   0  0  0  0  0  0  0  0  0  0  0  0
  128.7473  127.6880   60.6585 H   0  0  0  0  0  0  0  0  0  0  0  0
  130.2844  124.2779   60.4785 H   0  0  0  0  0  0  0  0  0  0  0  0
  128.3472  122.8698   61.1447 H   0  0  0  0  0  0  0  0  0  0  0  0
  128.6593  120.4300   61.5472 H   0  0  0  0  0  0  0  0  0  0  0  0
  130.9098  119.4108   61.3087 H   0  0  0  0  0  0  0  0  0  0  0  0
  132.0278  122.5078   63.5963 H   0  0  0  0  0  0  0  0  0  0  0  0
  1  2  1  0
  2  3  2  0
  3  4  1  0
  4  5  2  0
  5  6  1  0
  6  7  1  0
  7  8  1  0
  8  9  1  0
  9 10  1  0
 10 11  1  0
 11 12  2  0
 12 13  1  0
 13 14  2  0
 14 15  1  0
 14 16  1  0
 16 17  2  0
 17 18  1  0
 10 19  1  0
 19 20  2  0
 19 21  2  0
 19 22  1  0
 22 23  2  0
 23 24  1  0
 24 25  2  0
 25 26  1  0
 26 27  2  0
 27 28  1  0
 28 29  2  0
 28 30  1  0
  6 31  2  0
 31  2  1  0
 17 11  1  0
 27 22  1  0
  1 32  1  0
  1 33  1  0
  1 34  1  0
  3 35  1  0
  4 36  1  0
  5 37  1  0
  8 38  1  0
  8 39  1  0
  9 40  1  0
  9 41  1  0
 12 42  1  0
 13 43  1  0
 15 44  1  0
 15 45  1  0
 15 46  1  0
 16 47  1  0
 23 48  1  0
 24 49  1  0
 25 50  1  0
 26 51  1  0
 31 52  1  0
M  CHG  2  28   1  30  -1
M  END
>  <Binding energies>  (1) 
[-7.18]

>  <Ligand effiencies>  (1) 
[-0.23161290322580644]

>  <Interactions>  (1) 
["V-A:ILE:369:CG2:3237, V-B:GLU:543:CB:9878, V-B:ALA:541:CB:9864, V-B:TYR:539:CE2:9848, V-A:TYR:484:CE2:4346, V-B:GLU:543:CG:9879, V-A:ASP:366:CG:3213, H-B:TYR:539:OH:9850, V-A:TYR:484:CZ:4347, H-A:GLY:454:N:4050, V-B:TYR:539:CD2:9846, V-A:SER:385:CB:3409, H-A:SER:385:OG:3410, V-A:ASP:366:CB:3212, V-A:LEU:475:CD2:4259, H-A:ARG:545:NH2:4928, V-A:ARG:545:CZ:4926, V-A:GLY:453:CA:4044, V-A:SER:385:CA:3407, V-B:PRO:540:C:9853, H-A:TYR:484:OH:4348"]

$$$$
ZINC58632442
     RDKit          3D

 38 42  0  0  0  0  0  0  0  0999 V2000
  128.4610  126.6190   68.7700 O   0  0  0  0  0  0  0  0  0  0  0  0
  128.9100  126.4570   67.4830 C   0  0  0  0  0  0  0  0  0  0  0  0
  128.6520  127.4570   66.5470 C   0  0  0  0  0  0  0  0  0  0  0  0
  129.1070  127.3230   65.2370 C   0  0  0  0  0  0  0  0  0  0  0  0
  129.8030  126.1750   64.8560 C   0  0  0  0  0  0  0  0  0  0  0  0
  130.0630  125.1500   65.7810 C   0  0  0  0  0  0  0  0  0  0  0  0
  129.6190  125.3080   67.1040 C   0  0  0  0  0  0  0  0  0  0  0  0
  129.8660  124.3240   68.0300 O   0  0  0  0  0  0  0  0  0  0  0  0
  130.8300  123.9110   65.2840 C   0  0  0  0  0  0  0  0  0  0  0  0
  131.8070  124.3110   64.2510 N   0  0  0  0  0  0  0  0  0  0  0  0
  132.8280  123.4120   64.0040 C   0  0  0  0  0  0  0  0  0  0  0  0
  133.3970  123.3010   62.7910 C   0  0  0  0  0  0  0  0  0  0  0  0
  132.9810  124.1360   61.6660 C   0  0  0  0  0  0  0  0  0  0  0  0
  131.9900  125.0760   61.8710 C   0  0  0  0  0  0  0  0  0  0  0  0
  131.4880  126.0110   60.7430 C   0  0  0  0  0  0  0  0  0  0  0  0
  132.2160  125.7400   59.4470 C   0  0  0  0  0  0  0  0  0  0  0  0
  133.1540  124.8400   59.2650 C   0  0  0  0  0  0  0  0  0  0  0  0
  133.6920  123.9010   60.3180 C   0  0  0  0  0  0  0  0  0  0  0  0
  133.6020  124.8450   58.0080 O   0  0  0  0  0  0  0  0  0  0  0  0
  132.8440  125.8540   57.3830 C   0  0  0  0  0  0  0  0  0  0  0  0
  131.9620  126.4150   58.3240 O   0  0  0  0  0  0  0  0  0  0  0  0
  131.3890  125.1830   63.2280 C   0  0  0  0  0  0  0  0  0  0  0  0
  130.4090  126.0720   63.5210 C   0  0  0  0  0  0  0  0  0  0  0  0
  128.5920  125.8390   69.3130 H   0  0  0  0  0  0  0  0  0  0  0  0
  128.0880  128.3538   66.8432 H   0  0  0  0  0  0  0  0  0  0  0  0
  128.9179  128.1211   64.5040 H   0  0  0  0  0  0  0  0  0  0  0  0
  129.2690  124.3730   68.7810 H   0  0  0  0  0  0  0  0  0  0  0  0
  131.3603  123.4463   66.1283 H   0  0  0  0  0  0  0  0  0  0  0  0
  130.1187  123.1911   64.8530 H   0  0  0  0  0  0  0  0  0  0  0  0
  133.1847  122.7697   64.8227 H   0  0  0  0  0  0  0  0  0  0  0  0
  134.1975  122.5616   62.6412 H   0  0  0  0  0  0  0  0  0  0  0  0
  130.4112  125.8451   60.5916 H   0  0  0  0  0  0  0  0  0  0  0  0
  131.6809  127.0522   61.0408 H   0  0  0  0  0  0  0  0  0  0  0  0
  133.5242  122.8625   59.9966 H   0  0  0  0  0  0  0  0  0  0  0  0
  134.7681  124.0895   60.4460 H   0  0  0  0  0  0  0  0  0  0  0  0
  133.5163  126.6344   56.9970 H   0  0  0  0  0  0  0  0  0  0  0  0
  132.2714  125.4245   56.5477 H   0  0  0  0  0  0  0  0  0  0  0  0
  130.0523  126.7443   62.7268 H   0  0  0  0  0  0  0  0  0  0  0  0
  1  2  1  0
  2  3  2  0
  3  4  1  0
  4  5  2  0
  5  6  1  0
  6  7  2  0
  7  8  1  0
  6  9  1  0
  9 10  1  0
 10 11  1  0
 11 12  2  0
 12 13  1  0
 13 14  2  0
 14 15  1  0
 15 16  1  0
 16 17  2  0
 17 18  1  0
 17 19  1  0
 19 20  1  0
 20 21  1  0
 14 22  1  0
 22 23  2  0
  7  2  1  0
 22 10  1  0
 23  5  1  0
 18 13  1  0
 21 16  1  0
  1 24  1  0
  3 25  1  0
  4 26  1  0
  8 27  1  0
  9 28  1  0
  9 29  1  0
 11 30  1  0
 12 31  1  0
 15 32  1  0
 15 33  1  0
 18 34  1  0
 18 35  1  0
 20 36  1  0
 20 37  1  0
 23 38  1  0
M  END
>  <Binding energies>  (1) 
[-6.2]

>  <Ligand effiencies>  (1) 
[-0.248]

>  <Interactions>  (1) 
["V-A:ILE:369:CG2:3237, V-A:ASP:366:CA:3210, V-A:GLY:454:CA:4049, H-B:GLU:543:O:9875, V-B:GLU:543:CB:9878, H-A:TYR:531:OH:4795, V-A:TYR:484:CE2:4346, V-B:GLU:543:CG:9879, V-A:ASP:366:CG:3213, H-B:TYR:539:OH:9850, V-A:GLU:543:CD:4908, V-A:TYR:484:CZ:4347, V-B:GLU:543:CA:9876, V-A:HIS:456:CE1:4070, V-A:ILE:369:CD1:3239, V-A:ASP:366:C:3208, V-A:TYR:531:CZ:4794, V-B:GLU:543:CD:9880, V-A:ASP:366:CB:3212, V-A:LEU:475:CD2:4259, H-A:HIS:456:NE2:4071, H-A:TYR:484:OH:4348"]

$$$$
ZINC586913368
     RDKit          3D

 96103  0  0  0  0  0  0  0  0999 V2000
  131.9210  130.4670   57.5230 C   0  0  0  0  0  0  0  0  0  0  0  0
  130.4200  130.2050   57.7570 C   0  0  2  0  0  0  0  0  0  0  0  0
  130.1790  128.9070   57.2420 O   0  0  0  0  0  0  0  0  0  0  0  0
  129.4430  131.2270   57.0840 C   0  0  2  0  0  0  0  0  0  0  0  0
  129.9680  132.6770   57.0650 C   0  0  0  0  0  0  0  0  0  0  0  0
  129.5200  133.2710   58.3940 C   0  0  0  0  0  0  0  0  0  0  0  0
  128.1850  132.5800   58.7500 C   0  0  2  0  0  0  0  0  0  0  0  0
  128.0890  132.1480   60.2420 C   0  0  1  0  0  0  0  0  0  0  0  0
  128.4100  133.2820   61.2640 C   0  0  0  0  0  0  0  0  0  0  0  0
  127.9590  132.9510   62.7050 C   0  0  0  0  0  0  0  0  0  0  0  0
  127.9700  131.4260   62.9210 C   0  0  1  0  0  0  0  0  0  0  0  0
  127.9070  130.9680   64.3980 C   0  0  0  0  0  0  0  0  0  0  0  0
  128.1580  129.4440   64.4960 C   0  0  1  0  0  0  0  0  0  0  0  0
  128.0610  129.0610   65.8690 O   0  0  0  0  0  0  0  0  0  0  0  0
  128.9280  128.0640   66.3290 C   0  0  2  0  0  0  0  0  0  0  0  0
  128.8570  126.9240   65.5100 O   0  0  0  0  0  0  0  0  0  0  0  0
  129.8060  125.9070   65.8540 C   0  0  2  0  0  0  0  0  0  0  0  0
  129.7710  124.8440   64.7640 C   0  0  0  0  0  0  0  0  0  0  0  0
  130.2630  123.6310   64.8600 N   0  0  0  0  0  0  0  0  0  0  0  0
  129.9530  123.0300   63.6680 C   0  0  0  0  0  0  0  0  0  0  0  0
  130.2430  121.7320   63.2300 C   0  0  0  0  0  0  0  0  0  0  0  0
  129.8120  121.3450   61.9510 C   0  0  0  0  0  0  0  0  0  0  0  0
  130.1040  120.0380   61.4940 N   0  0  0  0  0  0  0  0  0  0  0  0
  131.0150  119.6620   60.5330 C   0  0  0  0  0  0  0  0  0  0  0  0
  130.9290  118.2860   60.4430 C   0  0  0  0  0  0  0  0  0  0  0  0
  129.9540  117.9300   61.3770 C   0  0  0  0  0  0  0  0  0  0  0  0
  129.4620  118.9710   62.0090 N   0  0  0  0  0  0  0  0  0  0  0  0
  129.1030  122.2410   61.1320 C   0  0  0  0  0  0  0  0  0  0  0  0
  128.6710  121.8560   59.9070 F   0  0  0  0  0  0  0  0  0  0  0  0
  128.8020  123.5410   61.5490 C   0  0  0  0  0  0  0  0  0  0  0  0
  129.2400  123.9120   62.8210 C   0  0  0  0  0  0  0  0  0  0  0  0
  129.1360  125.0660   63.5630 N   0  0  0  0  0  0  0  0  0  0  0  0
  129.5310  125.3910   67.2940 C   0  0  1  0  0  0  0  0  0  0  0  0
  130.5280  124.4700   67.7060 O   0  0  0  0  0  0  0  0  0  0  0  0
  129.4250  126.5760   68.2840 C   0  0  2  0  0  0  0  0  0  0  0  0
  129.0640  126.1580   69.5900 O   0  0  0  0  0  0  0  0  0  0  0  0
  128.4800  127.6770   67.7480 C   0  0  2  0  0  0  0  0  0  0  0  0
  127.1160  127.2860   67.7880 O   0  0  0  0  0  0  0  0  0  0  0  0
  127.2440  128.6330   63.5320 C   0  0  0  0  0  0  0  0  0  0  0  0
  127.2200  129.2350   62.1020 C   0  0  0  0  0  0  0  0  0  0  0  0
  126.8290  130.7520   62.0690 C   0  0  1  0  0  0  0  0  0  0  0  0
  125.4060  130.9550   62.6790 C   0  0  0  0  0  0  0  0  0  0  0  0
  126.7660  131.3950   60.6050 C   0  0  2  0  0  0  0  0  0  0  0  0
  126.3390  130.4170   59.4690 C   0  0  0  0  0  0  0  0  0  0  0  0
  127.4170  130.1120   58.4110 C   0  0  0  0  0  0  0  0  0  0  0  0
  128.0150  131.3920   57.7320 C   0  0  2  0  0  0  0  0  0  0  0  0
  127.0160  131.8080   56.6110 C   0  0  0  0  0  0  0  0  0  0  0  0
  132.4331  130.5564   58.4924 H   0  0  0  0  0  0  0  0  0  0  0  0
  132.3549  129.6310   56.9548 H   0  0  0  0  0  0  0  0  0  0  0  0
  132.0460  131.4006   56.9548 H   0  0  0  0  0  0  0  0  0  0  0  0
  130.2155  130.3112   58.8326 H   0  0  0  0  0  0  0  0  0  0  0  0
  131.0240  128.4720   57.1070 H   0  0  0  0  0  0  0  0  0  0  0  0
  129.3727  130.7573   56.0918 H   0  0  0  0  0  0  0  0  0  0  0  0
  131.0650  132.6908   56.9846 H   0  0  0  0  0  0  0  0  0  0  0  0
  129.5840  133.2462   56.2056 H   0  0  0  0  0  0  0  0  0  0  0  0
  130.2712  133.0722   59.1725 H   0  0  0  0  0  0  0  0  0  0  0  0
  129.3990  134.3621   58.3236 H   0  0  0  0  0  0  0  0  0  0  0  0
  127.3472  133.2860   58.6518 H   0  0  0  0  0  0  0  0  0  0  0  0
  128.9009  131.4127   60.3426 H   0  0  0  0  0  0  0  0  0  0  0  0
  129.4969  133.4509   61.2683 H   0  0  0  0  0  0  0  0  0  0  0  0
  127.8533  134.1756   60.9452 H   0  0  0  0  0  0  0  0  0  0  0  0
  128.6467  133.4256   63.4204 H   0  0  0  0  0  0  0  0  0  0  0  0
  126.9388  133.3314   62.8613 H   0  0  0  0  0  0  0  0  0  0  0  0
  128.9561  131.0858   62.5719 H   0  0  0  0  0  0  0  0  0  0  0  0
  128.6758  131.5009   64.9768 H   0  0  0  0  0  0  0  0  0  0  0  0
  126.9091  131.1942   64.8017 H   0  0  0  0  0  0  0  0  0  0  0  0
  129.1736  129.2010   64.1502 H   0  0  0  0  0  0  0  0  0  0  0  0
  129.9615  128.4404   66.3168 H   0  0  0  0  0  0  0  0  0  0  0  0
  130.8366  126.2898   65.8890 H   0  0  0  0  0  0  0  0  0  0  0  0
  130.7958  121.0316   63.8732 H   0  0  0  0  0  0  0  0  0  0  0  0
  131.6770  120.3229   59.9542 H   0  0  0  0  0  0  0  0  0  0  0  0
  131.5017  117.6188   59.7820 H   0  0  0  0  0  0  0  0  0  0  0  0
  129.6339  116.8941   61.5626 H   0  0  0  0  0  0  0  0  0  0  0  0
  128.2462  124.2384   60.9050 H   0  0  0  0  0  0  0  0  0  0  0  0
  128.6860  125.9380   63.3230 H   0  0  0  0  0  0  0  0  0  0  0  0
  128.5682  124.8590   67.2898 H   0  0  0  0  0  0  0  0  0  0  0  0
  130.9100  124.0660   66.9230 H   0  0  0  0  0  0  0  0  0  0  0  0
  130.4300  127.0156   68.3661 H   0  0  0  0  0  0  0  0  0  0  0  0
  129.2120  125.2120   69.6560 H   0  0  0  0  0  0  0  0  0  0  0  0
  128.5501  128.5572   68.4040 H   0  0  0  0  0  0  0  0  0  0  0  0
  126.7490  127.3770   66.9060 H   0  0  0  0  0  0  0  0  0  0  0  0
  127.6174  127.5999   63.4752 H   0  0  0  0  0  0  0  0  0  0  0  0
  126.2191  128.6670   63.9300 H   0  0  0  0  0  0  0  0  0  0  0  0
  128.2214  129.1239   61.6606 H   0  0  0  0  0  0  0  0  0  0  0  0
  126.4511  128.6903   61.5345 H   0  0  0  0  0  0  0  0  0  0  0  0
  125.4729  130.9455   63.7769 H   0  0  0  0  0  0  0  0  0  0  0  0
  124.9982  131.9204   62.3449 H   0  0  0  0  0  0  0  0  0  0  0  0
  124.7445  130.1421   62.3449 H   0  0  0  0  0  0  0  0  0  0  0  0
  125.9486  132.1285   60.6665 H   0  0  0  0  0  0  0  0  0  0  0  0
  126.0439  129.4654   59.9352 H   0  0  0  0  0  0  0  0  0  0  0  0
  125.5232  130.9208   58.9299 H   0  0  0  0  0  0  0  0  0  0  0  0
  128.2361  129.5628   58.8984 H   0  0  0  0  0  0  0  0  0  0  0  0
  126.9311  129.5250   57.6176 H   0  0  0  0  0  0  0  0  0  0  0  0
  126.0921  132.1927   57.0675 H   0  0  0  0  0  0  0  0  0  0  0  0
  127.4706  132.5916   55.9870 H   0  0  0  0  0  0  0  0  0  0  0  0
  126.7800  130.9333   55.9870 H   0  0  0  0  0  0  0  0  0  0  0  0
  1  2  1  0
  2  3  1  0
  2  4  1  0
  4  5  1  0
  5  6  1  0
  6  7  1  0
  7  8  1  0
  8  9  1  0
  9 10  1  0
 10 11  1  0
 11 12  1  0
 12 13  1  0
 13 14  1  0
 14 15  1  0
 15 16  1  0
 16 17  1  0
 17 18  1  0
 18 19  2  0
 19 20  1  0
 20 21  2  0
 21 22  1  0
 22 23  1  0
 23 24  1  0
 24 25  2  0
 25 26  1  0
 26 27  2  0
 22 28  2  0
 28 29  1  0
 28 30  1  0
 30 31  2  0
 31 32  1  0
 17 33  1  0
 33 34  1  0
 33 35  1  0
 35 36  1  0
 35 37  1  0
 37 38  1  0
 13 39  1  0
 39 40  1  0
 40 41  1  0
 41 42  1  1
 41 43  1  0
 43 44  1  0
 44 45  1  0
 45 46  1  0
 46 47  1  6
 46  4  1  0
 46  7  1  0
 43  8  1  0
 41 11  1  0
 37 15  1  0
 32 18  1  0
 31 20  1  0
 27 23  1  0
  1 48  1  0
  1 49  1  0
  1 50  1  0
  2 51  1  1
  3 52  1  0
  4 53  1  6
  5 54  1  0
  5 55  1  0
  6 56  1  0
  6 57  1  0
  7 58  1  6
  8 59  1  6
  9 60  1  0
  9 61  1  0
 10 62  1  0
 10 63  1  0
 11 64  1  6
 12 65  1  0
 12 66  1  0
 13 67  1  6
 15 68  1  1
 17 69  1  1
 21 70  1  0
 24 71  1  0
 25 72  1  0
 26 73  1  0
 30 74  1  0
 32 75  1  0
 33 76  1  6
 34 77  1  0
 35 78  1  1
 36 79  1  0
 37 80  1  1
 38 81  1  0
 39 82  1  0
 39 83  1  0
 40 84  1  0
 40 85  1  0
 42 86  1  0
 42 87  1  0
 42 88  1  0
 43 89  1  1
 44 90  1  0
 44 91  1  0
 45 92  1  0
 45 93  1  0
 47 94  1  0
 47 95  1  0
 47 96  1  0
M  END
>  <Binding energies>  (1) 
[-11.2]

>  <Ligand effiencies>  (1) 
[-0.21538461538461537]

>  <Interactions>  (1) 
["V-B:PRO:540:CA:9855, H-B:GLU:543:O:9875, V-B:GLU:543:CB:9878, V-B:ALA:541:CB:9864, H-A:TYR:531:OH:4795, V-B:TYR:539:CE2:9848, V-B:LEU:475:CD2:9230, V-B:GLU:543:CG:9879, V-B:TYR:539:C:9839, V-A:TYR:539:CD1:4873, H-B:GLU:543:OE1:9881, V-A:TYR:539:CZ:4877, V-A:TYR:531:CE2:4793, V-A:ALA:541:CB:4892, H-B:ALA:541:N:9863, V-A:TYR:539:CA:4869, V-B:TYR:539:CB:9843, V-A:GLU:543:CD:4908, H-B:TYR:484:OH:9319, V-B:HIS:456:CE1:9041, V-B:GLU:543:CA:9876, V-A:HIS:383:NE2:3394, V-B:PRO:540:N:9856, V-A:HIS:456:CE1:4070, V-A:PRO:482:CB:4326, V-B:TYR:539:CD2:9846, V-A:GLU:543:CG:4907, V-A:TYR:531:CZ:4794, V-A:MET:535:CE:4835, V-B:GLU:543:CD:9880, V-A:TYR:539:C:4867, V-A:LEU:475:CD2:4259, V-A:GLU:543:CB:4906, V-A:PRO:540:N:4884, H-B:GLU:543:OE2:9882, V-A:PRO:540:CA:4883, V-B:PRO:540:C:9853, V-A:TYR:539:CE1:4875, H-A:HIS:456:NE2:4071, H-A:TYR:484:OH:4348"]

$$$$
ZINC586923241-again1
     RDKit          3D

 24 25  0  0  0  0  0  0  0  0999 V2000
  125.9530  120.5830   72.6310 C   0  0  0  0  0  0  0  0  0  0  0  0
  127.6810  120.2410   71.9570 S   0  0  0  0  0  0  0  0  0  0  0  0
  128.4320  119.5030   72.9780 O   0  0  0  0  0  0  0  0  0  0  0  0
  127.5430  119.6930   70.6020 O   0  0  0  0  0  0  0  0  0  0  0  0
  128.4010  121.8760   71.8180 C   0  0  0  0  0  0  0  0  0  0  0  0
  128.2240  122.7650   72.8150 C   0  0  0  0  0  0  0  0  0  0  0  0
  128.7230  124.1320   72.8930 C   0  0  0  0  0  0  0  0  0  0  0  0
  128.1690  125.1000   72.1830 N   0  0  0  0  0  0  0  0  0  0  0  0
  128.8830  126.2040   72.5080 C   0  0  0  0  0  0  0  0  0  0  0  0
  128.7210  127.4550   72.0580 N   0  0  0  0  0  0  0  0  0  0  0  0
  129.6010  128.3570   72.5740 C   0  0  0  0  0  0  0  0  0  0  0  0
  129.4750  129.6720   72.1380 N   0  0  0  0  0  0  0  0  0  0  0  0
  130.5920  128.1070   73.4720 N   0  0  0  0  0  0  0  0  0  0  0  0
  130.7300  126.8260   73.9100 C   0  0  0  0  0  0  0  0  0  0  0  0
  131.9710  126.4490   75.0500 Cl  0  0  0  0  0  0  0  0  0  0  0  0
  129.8640  125.8290   73.4290 C   0  0  0  0  0  0  0  0  0  0  0  0
  129.7400  124.4990   73.6580 N   0  0  0  0  0  0  0  0  0  0  0  0
  125.9806  120.5775   73.7306 H   0  0  0  0  0  0  0  0  0  0  0  0
  125.6097  121.5665   72.2777 H   0  0  0  0  0  0  0  0  0  0  0  0
  125.2609  119.8044   72.2777 H   0  0  0  0  0  0  0  0  0  0  0  0
  128.9827  122.1517   70.9260 H   0  0  0  0  0  0  0  0  0  0  0  0
  127.6313  122.4169   73.6738 H   0  0  0  0  0  0  0  0  0  0  0  0
  130.1180  130.3710   72.4820 H   0  0  0  0  0  0  0  0  0  0  0  0
  128.7430  129.9080   71.4840 H   0  0  0  0  0  0  0  0  0  0  0  0
  1  2  1  0
  2  3  2  0
  2  4  2  0
  2  5  1  0
  5  6  2  0
  6  7  1  0
  7  8  2  0
  8  9  1  0
  9 10  2  0
 10 11  1  0
 11 12  1  0
 11 13  2  0
 13 14  1  0
 14 15  1  0
 14 16  2  0
 16 17  1  0
 17  7  1  0
 16  9  1  0
  1 18  1  0
  1 19  1  0
  1 20  1  0
  5 21  1  0
  6 22  1  0
 12 23  1  0
 12 24  1  0
M  CHG  1  17  -1
M  END
>  <Binding energies>  (1) 
[-5.23]

>  <Ligand effiencies>  (1) 
[-0.2752631578947369]

>  <Interactions>  (1) 
["V-A:TYR:484:CD2:4344, V-B:GLU:543:C:9874, V-B:HIS:456:CD2:9039, V-A:GLU:543:C:4902, H-B:HIS:456:NE2:9042, V-A:TYR:484:CG:4342, H-B:LYS:547:NZ:9923, V-B:GLY:544:CA:9886, V-B:LYS:547:CE:9922, H-A:TYR:484:N:4340, H-A:LYS:547:NZ:4951, V-B:VAL:542:CG1:9871, H-A:GLY:544:O:4913, V-A:HIS:456:CD2:4068, V-A:TYR:484:CB:4341, H-A:GLU:543:O:4903"]

$$$$
ZINC586924330
     RDKit          3D

 31 33  0  0  0  0  0  0  0  0999 V2000
  128.0090  128.7340   61.7570 C   0  0  0  0  0  0  0  0  0  0  0  0
  129.2530  129.4270   61.7640 O   0  0  0  0  0  0  0  0  0  0  0  0
  129.8250  129.8490   60.5760 C   0  0  0  0  0  0  0  0  0  0  0  0
  129.4460  131.0460   59.9420 C   0  0  0  0  0  0  0  0  0  0  0  0
  130.0370  131.4590   58.7460 C   0  0  0  0  0  0  0  0  0  0  0  0
  129.4910  133.0020   57.9970 S   0  0  0  0  0  0  0  0  0  0  0  0
  128.6140  133.7240   58.9260 O   0  0  0  0  0  0  0  0  0  0  0  0
  130.6250  133.6500   57.3300 O   0  0  0  0  0  0  0  0  0  0  0  0
  128.2010  132.3080   56.4340 Cl  0  0  0  0  0  0  0  0  0  0  0  0
  131.0280  130.6610   58.1630 C   0  0  0  0  0  0  0  0  0  0  0  0
  131.8100  131.0920   56.6800 Cl  0  0  0  0  0  0  0  0  0  0  0  0
  131.4070  129.4720   58.7820 C   0  0  0  0  0  0  0  0  0  0  0  0
  130.8230  129.0440   59.9840 C   0  0  0  0  0  0  0  0  0  0  0  0
  131.3020  127.7380   60.5780 C   0  0  0  0  0  0  0  0  0  0  0  0
  131.9380  126.7940   59.9180 N   0  0  0  0  0  0  0  0  0  0  0  0
  132.1780  125.8000   60.8300 C   0  0  0  0  0  0  0  0  0  0  0  0
  132.8200  124.5580   60.6880 C   0  0  0  0  0  0  0  0  0  0  0  0
  133.5280  124.0330   59.0000 Br  0  0  0  0  0  0  0  0  0  0  0  0
  132.9480  123.7140   61.7440 N   0  0  0  0  0  0  0  0  0  0  0  0
  132.4480  124.0810   62.9520 C   0  0  0  0  0  0  0  0  0  0  0  0
  131.7930  125.2920   63.2010 C   0  0  0  0  0  0  0  0  0  0  0  0
  131.3140  125.6040   64.4270 F   0  0  0  0  0  0  0  0  0  0  0  0
  131.6710  126.1470   62.1020 C   0  0  0  0  0  0  0  0  0  0  0  0
  131.1200  127.3910   61.9050 N   0  0  0  0  0  0  0  0  0  0  0  0
  127.6842  128.5531   62.7923 H   0  0  0  0  0  0  0  0  0  0  0  0
  127.2538  129.3414   61.2367 H   0  0  0  0  0  0  0  0  0  0  0  0
  128.1280  127.7722   61.2367 H   0  0  0  0  0  0  0  0  0  0  0  0
  128.6654  131.6718   60.3992 H   0  0  0  0  0  0  0  0  0  0  0  0
  132.1860  128.8512   58.3154 H   0  0  0  0  0  0  0  0  0  0  0  0
  132.5658  123.3793   63.7909 H   0  0  0  0  0  0  0  0  0  0  0  0
  130.6520  127.9850   62.5740 H   0  0  0  0  0  0  0  0  0  0  0  0
  1  2  1  0
  2  3  1  0
  3  4  2  0
  4  5  1  0
  5  6  1  0
  6  7  2  0
  6  8  2  0
  6  9  1  0
  5 10  2  0
 10 11  1  0
 10 12  1  0
 12 13  2  0
 13 14  1  0
 14 15  2  0
 15 16  1  0
 16 17  2  0
 17 18  1  0
 17 19  1  0
 19 20  2  0
 20 21  1  0
 21 22  1  0
 21 23  2  0
 23 24  1  0
 13  3  1  0
 24 14  1  0
 23 16  1  0
  1 25  1  0
  1 26  1  0
  1 27  1  0
  4 28  1  0
 12 29  1  0
 20 30  1  0
 24 31  1  0
M  END
>  <Binding energies>  (1) 
[-6.1]

>  <Ligand effiencies>  (1) 
[-0.244]

>  <Interactions>  (1) 
["V-A:ILE:369:CG2:3237, V-A:ASP:366:CA:3210, H-A:GLU:543:OE2:4910, V-A:ILE:369:CB:3236, V-B:TYR:539:CE2:9848, V-A:ASP:366:CG:3213, V-A:LEU:363:CD1:3189, V-A:TYR:539:CD1:4873, V-A:TYR:539:CZ:4877, V-A:TYR:531:CE2:4793, V-A:GLU:543:CD:4908, V-A:TYR:531:CZ:4794, V-A:MET:535:CE:4835, V-A:TYR:539:C:4867, H-A:GLU:543:OE1:4909, V-A:PRO:540:N:4884, H-A:TYR:539:N:4870, V-A:PRO:540:CA:4883, V-A:TYR:539:CE1:4875"]

$$$$
ZINC586927321
     RDKit          3D

 29 31  0  0  0  0  0  0  0  0999 V2000
  127.2480  122.4760   62.0710 O   0  0  0  0  0  0  0  0  0  0  0  0
  128.5640  122.0990   61.5420 S   0  0  0  0  0  0  0  0  0  0  0  0
  128.9540  120.7050   61.3070 O   0  0  0  0  0  0  0  0  0  0  0  0
  128.7270  123.0760   59.6450 Cl  0  0  0  0  0  0  0  0  0  0  0  0
  129.8440  122.9310   62.4740 C   0  0  0  0  0  0  0  0  0  0  0  0
  131.1840  122.7470   62.1380 C   0  0  0  0  0  0  0  0  0  0  0  0
  132.1820  123.3970   62.8610 C   0  0  0  0  0  0  0  0  0  0  0  0
  133.9970  123.1160   62.3420 Br  0  0  0  0  0  0  0  0  0  0  0  0
  131.8470  124.2370   63.9340 C   0  0  0  0  0  0  0  0  0  0  0  0
  133.1170  125.0630   64.7800 Cl  0  0  0  0  0  0  0  0  0  0  0  0
  130.4930  124.4220   64.2860 C   0  0  0  0  0  0  0  0  0  0  0  0
  130.0300  125.2810   65.4260 C   0  0  0  0  0  0  0  0  0  0  0  0
  129.2660  126.3460   65.2980 N   0  0  0  0  0  0  0  0  0  0  0  0
  129.1070  126.8210   66.5710 C   0  0  0  0  0  0  0  0  0  0  0  0
  128.4060  127.9170   67.0950 C   0  0  0  0  0  0  0  0  0  0  0  0
  128.4160  128.1700   68.4310 N   0  0  0  0  0  0  0  0  0  0  0  0
  129.1310  127.3170   69.2250 C   0  0  0  0  0  0  0  0  0  0  0  0
  129.1240  127.6380   70.7190 C   0  0  0  0  0  0  0  0  0  0  0  0
  130.1280  127.0500   71.3760 F   0  0  0  0  0  0  0  0  0  0  0  0
  129.2320  128.9560   70.8910 F   0  0  0  0  0  0  0  0  0  0  0  0
  127.9790  127.2290   71.2700 F   0  0  0  0  0  0  0  0  0  0  0  0
  129.8510  126.2250   68.8250 N   0  0  0  0  0  0  0  0  0  0  0  0
  129.8040  126.0250   67.5040 C   0  0  0  0  0  0  0  0  0  0  0  0
  130.3910  125.0460   66.7400 N   0  0  0  0  0  0  0  0  0  0  0  0
  129.5050  123.7620   63.5410 C   0  0  0  0  0  0  0  0  0  0  0  0
  131.4542  122.0873   61.3003 H   0  0  0  0  0  0  0  0  0  0  0  0
  127.8432  128.5777   66.4192 H   0  0  0  0  0  0  0  0  0  0  0  0
  130.9780  124.2780   67.0320 H   0  0  0  0  0  0  0  0  0  0  0  0
  128.4458  123.9022   63.8026 H   0  0  0  0  0  0  0  0  0  0  0  0
  1  2  2  0
  2  3  2  0
  2  4  1  0
  2  5  1  0
  5  6  2  0
  6  7  1  0
  7  8  1  0
  7  9  2  0
  9 10  1  0
  9 11  1  0
 11 12  1  0
 12 13  2  0
 13 14  1  0
 14 15  2  0
 15 16  1  0
 16 17  2  0
 17 18  1  0
 18 19  1  0
 18 20  1  0
 18 21  1  0
 17 22  1  0
 22 23  2  0
 23 24  1  0
 11 25  2  0
 25  5  1  0
 24 12  1  0
 23 14  1  0
  6 26  1  0
 15 27  1  0
 24 28  1  0
 25 29  1  0
M  END
>  <Binding energies>  (1) 
[-7.18]

>  <Ligand effiencies>  (1) 
[-0.27615384615384614]

>  <Interactions>  (1) 
["V-B:PRO:540:CA:9855, V-A:GLY:454:CA:4049, V-B:HIS:456:CD2:9039, V-A:GLU:543:C:4902, V-B:GLU:543:CB:9878, V-B:ALA:541:CB:9864, V-B:TYR:539:CE2:9848, V-A:TYR:484:CE2:4346, V-B:GLU:543:CG:9879, V-A:HIS:456:CD2:4068, H-B:ALA:541:N:9863, V-A:GLU:543:CD:4908, V-A:TYR:484:CZ:4347, V-B:HIS:456:CE1:9041, V-A:HIS:456:CE1:4070, V-A:ILE:369:CD1:3239, V-B:TYR:539:CD2:9846, V-B:GLU:543:CD:9880, V-A:LEU:475:CD2:4259, V-A:ARG:545:CZ:4926, V-A:GLU:543:CB:4906, V-B:PRO:540:C:9853, H-A:TYR:484:OH:4348"]

$$$$
ZINC586932810-again1
     RDKit          3D

 75 77  0  0  0  0  0  0  0  0999 V2000
  130.6500  126.9720   73.8320 C   0  0  0  0  0  0  0  0  0  0  0  0
  130.1410  127.2170   72.4230 C   0  0  0  0  0  0  0  0  0  0  0  0
  128.7960  127.0430   72.1170 C   0  0  0  0  0  0  0  0  0  0  0  0
  128.3160  127.2580   70.8210 C   0  0  0  0  0  0  0  0  0  0  0  0
  126.8440  126.9420   70.5830 C   0  0  0  0  0  0  0  0  0  0  0  0
  129.2000  127.6890   69.7990 C   0  0  0  0  0  0  0  0  0  0  0  0
  128.5740  128.0380   68.1150 S   0  0  0  0  0  0  0  0  0  0  0  0
  127.2120  127.4940   68.0930 O   0  0  0  0  0  0  0  0  0  0  0  0
  128.6210  129.4960   67.9610 O   0  0  0  0  0  0  0  0  0  0  0  0
  129.8180  127.0800   67.3120 N   0  0  0  0  0  0  0  0  0  0  0  0
  129.9140  125.8360   67.5630 C   0  0  0  0  0  0  0  0  0  0  0  0
  129.1110  125.1060   68.4730 N   0  0  0  0  0  0  0  0  0  0  0  0
  130.8840  124.9790   66.9680 N   0  0  0  0  0  0  0  0  0  0  0  0
  131.8820  125.4870   66.0240 C   0  0  0  0  0  0  0  0  0  0  0  0
  131.7830  124.8680   64.6110 C   0  0  0  0  0  0  0  0  0  0  0  0
  131.2370  125.8180   63.5210 C   0  0  0  0  0  0  0  0  0  0  0  0
  131.8220  125.5610   62.1120 C   0  0  2  0  0  0  0  0  0  0  0  0
  133.2870  125.3810   62.1650 N   0  0  0  0  0  0  0  0  0  0  0  0
  133.9560  124.1640   62.3100 C   0  0  0  0  0  0  0  0  0  0  0  0
  135.1740  124.0710   62.4590 O   0  0  0  0  0  0  0  0  0  0  0  0
  133.0950  123.1030   62.2580 O   0  0  0  0  0  0  0  0  0  0  0  0
  132.7560  122.3540   61.0790 C   0  0  0  0  0  0  0  0  0  0  0  0
  133.5260  121.0110   61.0290 C   0  0  0  0  0  0  0  0  0  0  0  0
  131.2280  122.1270   60.9730 C   0  0  0  0  0  0  0  0  0  0  0  0
  133.2280  123.2520   59.9170 C   0  0  0  0  0  0  0  0  0  0  0  0
  131.3660  126.6470   61.1340 C   0  0  0  0  0  0  0  0  0  0  0  0
  130.9900  126.4480   59.8940 N   0  0  0  0  0  0  0  0  0  0  0  0
  130.6380  127.6850   59.4120 C   0  0  0  0  0  0  0  0  0  0  0  0
  130.1270  128.0550   58.1460 C   0  0  0  0  0  0  0  0  0  0  0  0
  129.8530  127.0690   57.0710 N   0  0  0  0  0  0  0  0  0  0  0  0
  128.7880  127.1490   56.4660 O   0  0  0  0  0  0  0  0  0  0  0  0
  130.6920  126.2060   56.8320 O   0  0  0  0  0  0  0  0  0  0  0  0
  129.8770  129.4200   57.9390 C   0  0  0  0  0  0  0  0  0  0  0  0
  130.1100  130.3770   58.9260 C   0  0  0  0  0  0  0  0  0  0  0  0
  129.7350  132.2060   58.5520 Br  0  0  0  0  0  0  0  0  0  0  0  0
  130.6040  130.0320   60.1830 C   0  0  0  0  0  0  0  0  0  0  0  0
  130.8610  128.6780   60.4030 C   0  0  0  0  0  0  0  0  0  0  0  0
  131.3340  127.9750   61.4860 N   0  0  0  0  0  0  0  0  0  0  0  0
  130.5790  127.8010   70.1070 C   0  0  0  0  0  0  0  0  0  0  0  0
  131.6540  128.0960   69.0660 C   0  0  0  0  0  0  0  0  0  0  0  0
  131.0260  127.5780   71.4120 C   0  0  0  0  0  0  0  0  0  0  0  0
  129.9056  127.3303   74.5583 H   0  0  0  0  0  0  0  0  0  0  0  0
  130.8171  125.8948   73.9794 H   0  0  0  0  0  0  0  0  0  0  0  0
  131.5962  127.5134   73.9794 H   0  0  0  0  0  0  0  0  0  0  0  0
  128.0976  126.7310   72.9075 H   0  0  0  0  0  0  0  0  0  0  0  0
  126.3316  126.8320   71.5501 H   0  0  0  0  0  0  0  0  0  0  0  0
  126.3805  127.7611   70.0136 H   0  0  0  0  0  0  0  0  0  0  0  0
  126.7576  126.0048   70.0136 H   0  0  0  0  0  0  0  0  0  0  0  0
  128.3570  125.5370   68.9900 H   0  0  0  0  0  0  0  0  0  0  0  0
  129.2230  124.1140   68.6230 H   0  0  0  0  0  0  0  0  0  0  0  0
  131.2070  124.2000   67.5240 H   0  0  0  0  0  0  0  0  0  0  0  0
  131.7512  126.5755   65.9347 H   0  0  0  0  0  0  0  0  0  0  0  0
  132.8686  125.2104   66.4243 H   0  0  0  0  0  0  0  0  0  0  0  0
  132.7897  124.5439   64.3087 H   0  0  0  0  0  0  0  0  0  0  0  0
  131.0632  124.0396   64.6869 H   0  0  0  0  0  0  0  0  0  0  0  0
  130.1451  125.6947   63.4700 H   0  0  0  0  0  0  0  0  0  0  0  0
  131.5351  126.8371   63.8084 H   0  0  0  0  0  0  0  0  0  0  0  0
  131.4240  124.6116   61.7243 H   0  0  0  0  0  0  0  0  0  0  0  0
  133.8280  126.2060   62.3730 H   0  0  0  0  0  0  0  0  0  0  0  0
  133.7249  120.6640   62.0537 H   0  0  0  0  0  0  0  0  0  0  0  0
  132.9208  120.2609   60.4989 H   0  0  0  0  0  0  0  0  0  0  0  0
  134.4791  121.1543   60.4989 H   0  0  0  0  0  0  0  0  0  0  0  0
  130.7959  122.0628   61.9826 H   0  0  0  0  0  0  0  0  0  0  0  0
  130.7693  122.9669   60.4306 H   0  0  0  0  0  0  0  0  0  0  0  0
  131.0333  121.1901   60.4306 H   0  0  0  0  0  0  0  0  0  0  0  0
  133.7037  124.1570   60.3229 H   0  0  0  0  0  0  0  0  0  0  0  0
  133.9535  122.7018   59.2998 H   0  0  0  0  0  0  0  0  0  0  0  0
  132.3634  123.5376   59.2998 H   0  0  0  0  0  0  0  0  0  0  0  0
  129.4838  129.7463   56.9649 H   0  0  0  0  0  0  0  0  0  0  0  0
  130.7821  130.7883   60.9617 H   0  0  0  0  0  0  0  0  0  0  0  0
  131.6000  128.3160   62.3990 H   0  0  0  0  0  0  0  0  0  0  0  0
  132.5950  128.3542   69.5737 H   0  0  0  0  0  0  0  0  0  0  0  0
  131.8088  127.2071   68.4368 H   0  0  0  0  0  0  0  0  0  0  0  0
  131.3335  128.9394   68.4368 H   0  0  0  0  0  0  0  0  0  0  0  0
  132.0955  127.6897   71.6438 H   0  0  0  0  0  0  0  0  0  0  0  0
  1  2  1  0
  2  3  2  0
  3  4  1  0
  4  5  1  0
  4  6  2  0
  6  7  1  0
  7  8  2  0
  7  9  2  0
  7 10  1  0
 10 11  2  0
 11 12  1  0
 11 13  1  0
 13 14  1  0
 14 15  1  0
 15 16  1  0
 16 17  1  0
 17 18  1  0
 18 19  1  0
 19 20  2  0
 19 21  1  0
 21 22  1  0
 22 23  1  0
 22 24  1  0
 22 25  1  0
 17 26  1  0
 26 27  2  0
 27 28  1  0
 28 29  2  0
 29 30  1  0
 30 31  2  0
 30 32  1  0
 29 33  1  0
 33 34  2  0
 34 35  1  0
 34 36  1  0
 36 37  2  0
 37 38  1  0
  6 39  1  0
 39 40  1  0
 39 41  2  0
 41  2  1  0
 38 26  1  0
 37 28  1  0
  1 42  1  0
  1 43  1  0
  1 44  1  0
  3 45  1  0
  5 46  1  0
  5 47  1  0
  5 48  1  0
 12 49  1  0
 12 50  1  0
 13 51  1  0
 14 52  1  0
 14 53  1  0
 15 54  1  0
 15 55  1  0
 16 56  1  0
 16 57  1  0
 17 58  1  6
 18 59  1  0
 23 60  1  0
 23 61  1  0
 23 62  1  0
 24 63  1  0
 24 64  1  0
 24 65  1  0
 25 66  1  0
 25 67  1  0
 25 68  1  0
 33 69  1  0
 36 70  1  0
 38 71  1  0
 40 72  1  0
 40 73  1  0
 40 74  1  0
 41 75  1  0
M  CHG  2  30   1  32  -1
M  END
>  <Binding energies>  (1) 
[-9.84]

>  <Ligand effiencies>  (1) 
[-0.21391304347826087]

>  <Interactions>  (1) 
["V-A:ILE:369:CG2:3237, V-A:ARG:545:CA:4919, V-A:GLU:543:CA:4904, V-B:GLU:543:C:9874, H-A:GLU:543:OE2:4910, H-B:GLU:543:O:9875, V-A:GLU:543:C:4902, V-B:HIS:456:CD2:9039, V-B:GLU:543:CB:9878, H-A:TYR:531:OH:4795, V-A:TYR:484:CE2:4346, V-B:TYR:539:CE2:9848, V-B:GLU:543:CG:9879, V-A:GLY:544:C:4912, V-A:HIS:456:CD2:4068, V-A:ASP:366:CG:3213, H-B:TYR:539:OH:9850, V-A:GLU:543:CD:4908, V-A:TYR:484:CZ:4347, V-B:GLU:543:CA:9876, H-A:GLY:454:N:4050, V-B:HIS:456:CE1:9041, V-A:ARG:545:CG:4922, V-A:HIS:456:CE1:4070, V-A:ILE:369:CD1:3239, V-B:GLY:544:C:9884, V-B:GLY:544:CA:9886, V-A:GLU:543:CG:4907, V-A:SER:385:CB:3409, V-B:TYR:539:CD2:9846, V-B:HIS:456:CG:9037, V-A:LEU:475:CD2:4259, V-A:ARG:545:CZ:4926, H-A:GLU:543:OE1:4909, V-A:GLU:543:CB:4906, H-A:ASP:366:OD1:3214, V-A:PRO:540:CA:4883, V-A:SER:385:CA:3407, H-A:ASP:366:OD2:3215, H-A:HIS:456:NE2:4071, H-A:TYR:484:OH:4348"]

$$$$
ZINC586956480
     RDKit          3D

 73 80  0  0  0  0  0  0  0  0999 V2000
  127.3490  128.7080   63.9040 C   0  0  0  0  0  0  0  0  0  0  0  0
  128.7190  128.3450   64.0440 O   0  0  0  0  0  0  0  0  0  0  0  0
  129.1140  127.0300   63.8640 C   0  0  0  0  0  0  0  0  0  0  0  0
  129.1900  126.4390   62.5890 C   0  0  0  0  0  0  0  0  0  0  0  0
  129.5960  125.1180   62.4300 C   0  0  0  0  0  0  0  0  0  0  0  0
  129.9410  124.3580   63.5450 C   0  0  0  0  0  0  0  0  0  0  0  0
  130.4390  122.6500   63.3470 S   0  0  0  0  0  0  0  0  0  0  0  0
  130.6620  122.1060   64.6910 O   0  0  0  0  0  0  0  0  0  0  0  0
  129.5000  122.0050   62.4200 O   0  0  0  0  0  0  0  0  0  0  0  0
  132.0170  122.7240   62.5240 N   0  0  0  0  0  0  0  0  0  0  0  0
  133.2070  122.9030   63.3530 C   0  0  0  0  0  0  0  0  0  0  0  0
  134.3400  123.2460   62.3910 C   0  0  0  0  0  0  0  0  0  0  0  0
  133.5920  123.7710   61.2030 C   0  0  0  0  0  0  0  0  0  0  0  0
  134.0640  124.3970   60.0480 C   0  0  0  0  0  0  0  0  0  0  0  0
  133.1730  124.6990   59.0170 C   0  0  0  0  0  0  0  0  0  0  0  0
  131.8280  124.3460   59.1290 C   0  0  0  0  0  0  0  0  0  0  0  0
  131.3670  123.6910   60.2720 C   0  0  0  0  0  0  0  0  0  0  0  0
  132.2510  123.4120   61.3200 C   0  0  0  0  0  0  0  0  0  0  0  0
  129.8620  124.9240   64.8160 C   0  0  0  0  0  0  0  0  0  0  0  0
  129.4540  126.2560   65.0000 C   0  0  0  0  0  0  0  0  0  0  0  0
  129.3950  126.7900   66.3740 C   0  0  0  0  0  0  0  0  0  0  0  0
  129.1080  128.0300   66.7240 N   0  0  0  0  0  0  0  0  0  0  0  0
  129.1690  128.0770   68.0650 C   0  0  0  0  0  0  0  0  0  0  0  0
  128.9640  129.1250   68.9870 C   0  0  0  0  0  0  0  0  0  0  0  0
  128.6270  130.4220   68.6050 N   0  0  0  0  0  0  0  0  0  0  0  0
  129.1080  128.8480   70.3120 N   0  0  0  0  0  0  0  0  0  0  0  0
  129.4350  127.5940   70.6870 C   0  0  0  0  0  0  0  0  0  0  0  0
  129.5970  127.3480   72.1310 C   0  0  0  0  0  0  0  0  0  0  0  0
  130.0860  126.2140   72.5950 N   0  0  0  0  0  0  0  0  0  0  0  0
  130.1260  126.2770   73.9400 N   0  0  0  0  0  0  0  0  0  0  0  0
  130.5410  125.1070   74.7080 C   0  0  0  0  0  0  0  0  0  0  0  0
  132.0270  125.1150   75.0520 C   0  0  0  0  0  0  0  0  0  0  0  0
  132.6270  123.9620   75.5730 C   0  0  0  0  0  0  0  0  0  0  0  0
  133.9880  123.9540   75.8810 C   0  0  0  0  0  0  0  0  0  0  0  0
  134.7570  125.0990   75.6760 C   0  0  0  0  0  0  0  0  0  0  0  0
  134.1640  126.2530   75.1640 C   0  0  0  0  0  0  0  0  0  0  0  0
  132.8030  126.2650   74.8550 C   0  0  0  0  0  0  0  0  0  0  0  0
  132.2460  127.3970   74.3690 F   0  0  0  0  0  0  0  0  0  0  0  0
  129.6160  127.4740   74.3960 C   0  0  0  0  0  0  0  0  0  0  0  0
  129.4660  127.8770   75.6640 N   0  0  0  0  0  0  0  0  0  0  0  0
  128.9390  129.1210   75.8060 C   0  0  0  0  0  0  0  0  0  0  0  0
  128.5650  129.9490   74.7450 C   0  0  0  0  0  0  0  0  0  0  0  0
  128.7290  129.4980   73.4320 C   0  0  0  0  0  0  0  0  0  0  0  0
  129.2710  128.2130   73.2370 C   0  0  0  0  0  0  0  0  0  0  0  0
  129.6450  126.5310   69.8830 N   0  0  0  0  0  0  0  0  0  0  0  0
  129.4960  126.8430   68.5760 C   0  0  0  0  0  0  0  0  0  0  0  0
  129.6310  126.0490   67.4830 N   0  0  0  0  0  0  0  0  0  0  0  0
  126.8977  128.8276   64.9000 H   0  0  0  0  0  0  0  0  0  0  0  0
  127.2756  129.6566   63.3519 H   0  0  0  0  0  0  0  0  0  0  0  0
  126.8155  127.9202   63.3519 H   0  0  0  0  0  0  0  0  0  0  0  0
  128.9235  127.0325   61.7020 H   0  0  0  0  0  0  0  0  0  0  0  0
  129.6445  124.6741   61.4247 H   0  0  0  0  0  0  0  0  0  0  0  0
  133.0534  123.7223   64.0707 H   0  0  0  0  0  0  0  0  0  0  0  0
  133.4326  121.9978   63.9358 H   0  0  0  0  0  0  0  0  0  0  0  0
  135.0058  124.0123   62.8147 H   0  0  0  0  0  0  0  0  0  0  0  0
  134.9985  122.3956   62.1601 H   0  0  0  0  0  0  0  0  0  0  0  0
  135.1300  124.6503   59.9512 H   0  0  0  0  0  0  0  0  0  0  0  0
  133.5318  125.2161   58.1149 H   0  0  0  0  0  0  0  0  0  0  0  0
  131.1287  124.5846   58.3141 H   0  0  0  0  0  0  0  0  0  0  0  0
  130.3105  123.3946   60.3488 H   0  0  0  0  0  0  0  0  0  0  0  0
  130.1246  124.3152   65.6937 H   0  0  0  0  0  0  0  0  0  0  0  0
  128.8200  131.1890   69.2340 H   0  0  0  0  0  0  0  0  0  0  0  0
  128.1950  130.5760   67.7060 H   0  0  0  0  0  0  0  0  0  0  0  0
  129.9647  125.0803   75.6446 H   0  0  0  0  0  0  0  0  0  0  0  0
  130.3529  124.2208   74.0841 H   0  0  0  0  0  0  0  0  0  0  0  0
  132.0226  123.0583   75.7403 H   0  0  0  0  0  0  0  0  0  0  0  0
  134.4546  123.0438   76.2858 H   0  0  0  0  0  0  0  0  0  0  0  0
  135.8301  125.0922   75.9178 H   0  0  0  0  0  0  0  0  0  0  0  0
  134.7708  127.1563   75.0033 H   0  0  0  0  0  0  0  0  0  0  0  0
  128.7969  129.5029   76.8277 H   0  0  0  0  0  0  0  0  0  0  0  0
  128.1453  130.9467   74.9408 H   0  0  0  0  0  0  0  0  0  0  0  0
  128.4432  130.1280   72.5768 H   0  0  0  0  0  0  0  0  0  0  0  0
  129.8710  125.0690   67.4910 H   0  0  0  0  0  0  0  0  0  0  0  0
  1  2  1  0
  2  3  1  0
  3  4  2  0
  4  5  1  0
  5  6  2  0
  6  7  1  0
  7  8  2  0
  7  9  2  0
  7 10  1  0
 10 11  1  0
 11 12  1  0
 12 13  1  0
 13 14  2  0
 14 15  1  0
 15 16  2  0
 16 17  1  0
 17 18  2  0
  6 19  1  0
 19 20  2  0
 20 21  1  0
 21 22  2  0
 22 23  1  0
 23 24  2  0
 24 25  1  0
 24 26  1  0
 26 27  2  0
 27 28  1  0
 28 29  2  0
 29 30  1  0
 30 31  1  0
 31 32  1  0
 32 33  2  0
 33 34  1  0
 34 35  2  0
 35 36  1  0
 36 37  2  0
 37 38  1  0
 30 39  1  0
 39 40  2  0
 40 41  1  0
 41 42  2  0
 42 43  1  0
 43 44  2  0
 27 45  1  0
 45 46  2  0
 46 47  1  0
 20  3  1  0
 47 21  1  0
 18 10  1  0
 46 23  1  0
 18 13  1  0
 44 28  1  0
 37 32  1  0
 44 39  1  0
  1 48  1  0
  1 49  1  0
  1 50  1  0
  4 51  1  0
  5 52  1  0
 11 53  1  0
 11 54  1  0
 12 55  1  0
 12 56  1  0
 14 57  1  0
 15 58  1  0
 16 59  1  0
 17 60  1  0
 19 61  1  0
 25 62  1  0
 25 63  1  0
 31 64  1  0
 31 65  1  0
 33 66  1  0
 34 67  1  0
 35 68  1  0
 36 69  1  0
 41 70  1  0
 42 71  1  0
 43 72  1  0
 47 73  1  0
M  END
>  <Binding energies>  (1) 
[-7.81]

>  <Ligand effiencies>  (1) 
[-0.1562]

>  <Interactions>  (1) 
["V-A:ILE:369:CG2:3237, V-A:ASP:366:CA:3210, V-A:GLU:543:CA:4904, V-A:GLY:454:CA:4049, V-B:HIS:456:CD2:9039, V-A:ILE:369:CB:3236, H-B:GLU:543:O:9875, V-A:GLU:543:C:4902, V-B:GLU:543:CB:9878, H-B:LYS:547:NZ:9923, V-B:TYR:539:CE2:9848, V-A:VAL:457:CA:4075, V-B:GLU:543:CG:9879, V-A:GLY:544:C:4912, V-A:ASP:366:CG:3213, V-A:HIS:456:CD2:4068, V-A:VAL:457:C:4073, V-B:TYR:484:CE2:9317, V-B:TYR:539:CZ:9849, V-A:LYS:547:CG:4948, V-A:HIS:456:CB:4065, V-A:ASP:473:CG:4240, V-A:GLU:543:CD:4908, H-B:TYR:484:OH:9319, V-B:HIS:456:CE1:9041, V-A:GLY:453:C:4042, V-A:HIS:456:CE1:4070, V-A:ILE:369:CD1:3239, V-B:TYR:484:CZ:9318, H-B:HIS:456:NE2:9042, V-A:HIS:456:CA:4063, V-B:TYR:484:CD2:9315, V-A:GLU:543:CG:4907, V-B:GLU:543:CD:9880, V-A:ASP:366:CB:3212, H-A:LYS:547:NZ:4951, V-A:LEU:475:CD2:4259, V-A:HIS:456:C:4061, V-A:GLU:543:CB:4906, V-A:HIS:456:CG:4066, V-A:LYS:547:CE:4950, V-A:VAL:458:CG2:4087, H-A:TYR:484:OH:4348, H-A:GLU:543:O:4903"]

$$$$
ZINC586959189
     RDKit          3D

 35 37  0  0  0  0  0  0  0  0999 V2000
  133.7120  124.5890   65.0290 O   0  0  0  0  0  0  0  0  0  0  0  0
  132.4450  125.4160   64.8050 S   0  0  0  0  0  4  0  0  0  0  0  0
  131.3470  125.1140   66.2710 C   0  0  0  0  0  0  0  0  0  0  0  0
  129.8730  125.2330   65.8520 C   0  0  0  0  0  0  0  0  0  0  0  0
  129.2510  126.5960   66.2200 C   0  0  0  0  0  0  0  0  0  0  0  0
  129.3210  126.9440   67.6990 C   0  0  0  0  0  0  0  0  0  0  0  0
  128.3370  126.8240   68.5630 N   0  0  0  0  0  0  0  0  0  0  0  0
  128.8680  127.2490   69.7530 C   0  0  0  0  0  0  0  0  0  0  0  0
  128.2340  127.3070   70.9290 N   0  0  0  0  0  0  0  0  0  0  0  0
  128.9540  127.7620   71.9910 C   0  0  0  0  0  0  0  0  0  0  0  0
  128.1610  127.8470   73.5210 Cl  0  0  0  0  0  0  0  0  0  0  0  0
  130.2920  128.1610   71.9060 C   0  0  0  0  0  0  0  0  0  0  0  0
  130.9720  128.1060   70.6850 C   0  0  0  0  0  0  0  0  0  0  0  0
  130.2250  127.6360   69.6020 C   0  0  0  0  0  0  0  0  0  0  0  0
  130.4800  127.4230   68.2670 N   0  0  0  0  0  0  0  0  0  0  0  0
  131.4190  124.4920   63.6150 C   0  0  0  0  0  0  0  0  0  0  0  0
  131.2840  123.1120   63.7640 C   0  0  0  0  0  0  0  0  0  0  0  0
  130.4940  122.3980   62.8680 C   0  0  0  0  0  0  0  0  0  0  0  0
  129.8420  123.0690   61.8340 C   0  0  0  0  0  0  0  0  0  0  0  0
  128.7610  122.0900   60.6100 Br  0  0  0  0  0  0  0  0  0  0  0  0
  129.9740  124.4490   61.6880 C   0  0  0  0  0  0  0  0  0  0  0  0
  130.7640  125.1660   62.5830 C   0  0  0  0  0  0  0  0  0  0  0  0
  131.5340  124.1043   66.6653 H   0  0  0  0  0  0  0  0  0  0  0  0
  131.5649  125.8619   67.0477 H   0  0  0  0  0  0  0  0  0  0  0  0
  129.8063  125.0999   64.7621 H   0  0  0  0  0  0  0  0  0  0  0  0
  129.3125  124.4577   66.3949 H   0  0  0  0  0  0  0  0  0  0  0  0
  129.7815  127.3785   65.6577 H   0  0  0  0  0  0  0  0  0  0  0  0
  128.1830  126.5310   65.9647 H   0  0  0  0  0  0  0  0  0  0  0  0
  130.8130  128.5205   72.8056 H   0  0  0  0  0  0  0  0  0  0  0  0
  132.0237  128.4121   70.5843 H   0  0  0  0  0  0  0  0  0  0  0  0
  131.3340  127.5740   67.7510 H   0  0  0  0  0  0  0  0  0  0  0  0
  131.7988  122.5910   64.5847 H   0  0  0  0  0  0  0  0  0  0  0  0
  130.3843  121.3087   62.9750 H   0  0  0  0  0  0  0  0  0  0  0  0
  129.4561  124.9696   60.8690 H   0  0  0  0  0  0  0  0  0  0  0  0
  130.8711  126.2557   62.4775 H   0  0  0  0  0  0  0  0  0  0  0  0
  1  2  2  0
  2  3  1  1
  3  4  1  0
  4  5  1  0
  5  6  1  0
  6  7  2  0
  7  8  1  0
  8  9  2  0
  9 10  1  0
 10 11  1  0
 10 12  2  0
 12 13  1  0
 13 14  2  0
 14 15  1  0
  2 16  1  0
 16 17  2  0
 17 18  1  0
 18 19  2  0
 19 20  1  0
 19 21  1  0
 21 22  2  0
 15  6  1  0
 22 16  1  0
 14  8  1  0
  3 23  1  0
  3 24  1  0
  4 25  1  0
  4 26  1  0
  5 27  1  0
  5 28  1  0
 12 29  1  0
 13 30  1  0
 15 31  1  0
 17 32  1  0
 18 33  1  0
 21 34  1  0
 22 35  1  0
M  END
>  <Binding energies>  (1) 
[-7.2]

>  <Ligand effiencies>  (1) 
[-0.3130434782608696]

>  <Interactions>  (1) 
["V-B:PRO:540:CA:9855, V-B:HIS:456:CD2:9039, H-A:GLU:543:OE2:4910, V-A:GLU:543:C:4902, V-B:GLU:543:CB:9878, V-B:TYR:539:CE2:9848, V-A:TYR:484:CE2:4346, V-B:GLU:543:CG:9879, V-A:GLY:544:C:4912, V-B:TYR:539:C:9839, V-A:TYR:484:CZ:4347, V-A:GLU:543:CD:4908, V-B:HIS:456:CE1:9041, H-A:GLY:454:N:4050, V-A:HIS:456:CE1:4070, V-B:TYR:539:CD2:9846, V-A:GLU:543:CG:4907, V-B:GLU:543:CD:9880, V-A:LEU:475:CD2:4259, V-A:ARG:545:CZ:4926, V-A:GLU:543:CB:4906, H-A:ARG:545:NE:4924, V-B:PRO:540:C:9853, H-A:TYR:484:OH:4348"]

$$$$
ZINC586970873
     RDKit          3D

 38 39  0  0  0  0  0  0  0  0999 V2000
  134.1260  122.3870   61.4210 C   0  0  0  0  0  0  0  0  0  0  0  0
  132.9910  121.3640   61.2780 C   0  0  0  0  0  0  0  0  0  0  0  0
  131.7640  121.9340   60.5300 C   0  0  0  0  0  0  0  0  0  0  0  0
  130.4470  122.0210   61.3560 C   0  0  0  0  0  0  0  0  0  0  0  0
  129.0450  122.7330   60.1140 Br  0  0  0  0  0  0  0  0  0  0  0  0
  130.0070  120.5900   61.7730 C   0  0  0  0  0  0  0  0  0  0  0  0
  130.6080  119.4290   60.9480 C   0  0  0  0  0  0  0  0  0  0  0  0
  130.2070  118.0490   61.4850 C   0  0  0  0  0  0  0  0  0  0  0  0
  130.6130  122.9170   62.5880 C   0  0  0  0  0  0  0  0  0  0  0  0
  131.7610  123.3850   63.0170 N   0  0  0  0  0  0  0  0  0  0  0  0
  131.4680  124.1110   64.1460 C   0  0  0  0  0  0  0  0  0  0  0  0
  132.3240  124.8410   65.0050 C   0  0  0  0  0  0  0  0  0  0  0  0
  133.7860  124.9500   64.7810 N   0  0  0  0  0  0  0  0  0  0  0  0
  134.2050  124.8810   63.6290 O   0  0  0  0  0  0  0  0  0  0  0  0
  134.5270  125.0960   65.7490 O   0  0  0  0  0  0  0  0  0  0  0  0
  131.7250  125.4730   66.1050 C   0  0  0  0  0  0  0  0  0  0  0  0
  130.3540  125.3990   66.3520 C   0  0  0  0  0  0  0  0  0  0  0  0
  129.6350  126.2930   67.8710 Br  0  0  0  0  0  0  0  0  0  0  0  0
  129.4940  124.6870   65.5160 C   0  0  0  0  0  0  0  0  0  0  0  0
  130.0750  124.0500   64.4190 C   0  0  0  0  0  0  0  0  0  0  0  0
  129.5650  123.2770   63.4040 N   0  0  0  0  0  0  0  0  0  0  0  0
  134.3254  122.5667   62.4877 H   0  0  0  0  0  0  0  0  0  0  0  0
  135.0344  121.9966   60.9389 H   0  0  0  0  0  0  0  0  0  0  0  0
  133.8318  123.3309   60.9389 H   0  0  0  0  0  0  0  0  0  0  0  0
  133.3695  120.4941   60.7213 H   0  0  0  0  0  0  0  0  0  0  0  0
  132.6634  121.0878   62.2911 H   0  0  0  0  0  0  0  0  0  0  0  0
  132.0173  122.9493   60.1907 H   0  0  0  0  0  0  0  0  0  0  0  0
  131.5578  121.2275   59.7125 H   0  0  0  0  0  0  0  0  0  0  0  0
  130.2968  120.4415   62.8237 H   0  0  0  0  0  0  0  0  0  0  0  0
  128.9222  120.5496   61.5953 H   0  0  0  0  0  0  0  0  0  0  0  0
  130.2573  119.5175   59.9092 H   0  0  0  0  0  0  0  0  0  0  0  0
  131.7032  119.5059   61.0166 H   0  0  0  0  0  0  0  0  0  0  0  0
  130.2125  118.0678   62.5848 H   0  0  0  0  0  0  0  0  0  0  0  0
  129.1980  117.7955   61.1276 H   0  0  0  0  0  0  0  0  0  0  0  0
  130.9230  117.2943   61.1276 H   0  0  0  0  0  0  0  0  0  0  0  0
  132.3587  126.0471   66.7970 H   0  0  0  0  0  0  0  0  0  0  0  0
  128.4130  124.6306   65.7115 H   0  0  0  0  0  0  0  0  0  0  0  0
  128.6100  122.9970   63.2360 H   0  0  0  0  0  0  0  0  0  0  0  0
  1  2  1  0
  2  3  1  0
  3  4  1  0
  4  5  1  0
  4  6  1  0
  6  7  1  0
  7  8  1  0
  4  9  1  0
  9 10  2  0
 10 11  1  0
 11 12  2  0
 12 13  1  0
 13 14  2  0
 13 15  1  0
 12 16  1  0
 16 17  2  0
 17 18  1  0
 17 19  1  0
 19 20  2  0
 20 21  1  0
 21  9  1  0
 20 11  1  0
  1 22  1  0
  1 23  1  0
  1 24  1  0
  2 25  1  0
  2 26  1  0
  3 27  1  0
  3 28  1  0
  6 29  1  0
  6 30  1  0
  7 31  1  0
  7 32  1  0
  8 33  1  0
  8 34  1  0
  8 35  1  0
 16 36  1  0
 19 37  1  0
 21 38  1  0
M  CHG  2  13   1  15  -1
M  END
>  <Binding energies>  (1) 
[-6.79]

>  <Ligand effiencies>  (1) 
[-0.30863636363636365]

>  <Interactions>  (1) 
["V-A:ILE:369:CG2:3237, V-A:GLY:454:CA:4049, V-B:GLU:543:CB:9878, V-B:ALA:541:CB:9864, H-A:ARG:545:NH1:4927, V-B:TYR:539:CE2:9848, V-A:LEU:475:CG:4257, V-B:GLU:543:CG:9879, H-B:GLU:543:OE1:9881, V-A:LEU:475:CD1:4258, V-A:GLU:543:CD:4908, H-A:GLY:454:N:4050, V-A:GLY:453:C:4042, V-A:ILE:369:CD1:3239, V-A:HIS:456:CE1:4070, V-A:PRO:482:CB:4326, V-B:TYR:539:CD2:9846, V-B:GLU:543:CD:9880, V-A:ARG:545:CD:4923, V-A:LEU:475:CD2:4259, H-A:ARG:545:NH2:4928, V-A:ARG:545:CZ:4926, V-A:GLY:453:CA:4044, H-A:ARG:545:NE:4924, H-A:TYR:484:OH:4348"]

$$$$
ZINC587018515
     RDKit          3D

 54 58  0  0  0  0  0  0  0  0999 V2000
  125.3920  131.3770   63.4170 C   0  0  0  0  0  0  0  0  0  0  0  0
  126.5050  130.6470   62.6180 C   0  0  0  0  0  0  0  0  0  0  0  0
  125.8240  129.8770   61.4600 C   0  0  0  0  0  0  0  0  0  0  0  0
  127.4980  131.6940   62.0740 C   0  0  0  0  0  0  0  0  0  0  0  0
  127.5550  133.0680   62.3330 C   0  0  0  0  0  0  0  0  0  0  0  0
  128.8550  133.7940   61.4370 S   0  0  0  0  0  0  0  0  0  0  0  0
  129.2250  132.2170   60.8210 C   0  0  0  0  0  0  0  0  0  0  0  0
  130.3190  132.0080   59.8280 C   0  0  0  0  0  0  0  0  0  0  0  0
  131.6160  131.6600   60.2460 C   0  0  0  0  0  0  0  0  0  0  0  0
  132.0060  131.4400   61.9190 Cl  0  0  0  0  0  0  0  0  0  0  0  0
  132.6270  131.4650   59.3030 C   0  0  0  0  0  0  0  0  0  0  0  0
  132.3590  131.6070   57.9440 C   0  0  0  0  0  0  0  0  0  0  0  0
  131.0760  131.9440   57.5210 C   0  0  0  0  0  0  0  0  0  0  0  0
  130.0560  132.1440   58.4520 C   0  0  0  0  0  0  0  0  0  0  0  0
  128.4820  132.5690   57.8640 Cl  0  0  0  0  0  0  0  0  0  0  0  0
  128.4430  131.2600   61.2510 N   0  0  0  0  0  0  0  0  0  0  0  0
  127.2450  129.6230   63.4980 C   0  0  0  0  0  0  0  0  0  0  0  0
  127.3330  129.6690   64.8080 N   0  0  0  0  0  0  0  0  0  0  0  0
  128.0440  128.5510   65.1610 C   0  0  0  0  0  0  0  0  0  0  0  0
  128.4400  128.1160   66.4330 C   0  0  0  0  0  0  0  0  0  0  0  0
  129.1660  126.9230   66.5340 C   0  0  0  0  0  0  0  0  0  0  0  0
  129.6850  126.3340   68.1520 S   0  0  0  0  0  0  0  0  0  0  0  0
  129.7800  124.8740   68.0210 O   0  0  0  0  0  0  0  0  0  0  0  0
  130.9200  127.0690   68.4470 O   0  0  0  0  0  0  0  0  0  0  0  0
  128.4520  126.8150   68.9930 N   0  0  0  0  0  0  0  0  0  0  0  0
  128.5550  127.2460   70.2930 C   0  0  0  0  0  0  0  0  0  0  0  0
  127.5010  126.9410   71.1630 C   0  0  0  0  0  0  0  0  0  0  0  0
  127.5200  127.3420   72.4960 C   0  0  0  0  0  0  0  0  0  0  0  0
  128.6070  128.0590   72.9830 C   0  0  0  0  0  0  0  0  0  0  0  0
  128.6370  128.5590   74.6350 Cl  0  0  0  0  0  0  0  0  0  0  0  0
  129.6710  128.3780   72.1440 C   0  0  0  0  0  0  0  0  0  0  0  0
  129.6420  127.9740   70.8120 C   0  0  0  0  0  0  0  0  0  0  0  0
  129.4810  126.1800   65.3880 C   0  0  0  0  0  0  0  0  0  0  0  0
  129.1010  126.5880   64.1070 C   0  0  0  0  0  0  0  0  0  0  0  0
  128.3820  127.7830   64.0210 C   0  0  0  0  0  0  0  0  0  0  0  0
  127.8430  128.4940   62.9770 N   0  0  0  0  0  0  0  0  0  0  0  0
  125.5755  131.2567   64.4949 H   0  0  0  0  0  0  0  0  0  0  0  0
  125.3985  132.4468   63.1611 H   0  0  0  0  0  0  0  0  0  0  0  0
  124.4134  130.9448   63.1611 H   0  0  0  0  0  0  0  0  0  0  0  0
  125.1489  129.1137   61.8743 H   0  0  0  0  0  0  0  0  0  0  0  0
  125.2469  130.5802   60.8415 H   0  0  0  0  0  0  0  0  0  0  0  0
  126.5924  129.3901   60.8415 H   0  0  0  0  0  0  0  0  0  0  0  0
  126.8751  133.6102   63.0065 H   0  0  0  0  0  0  0  0  0  0  0  0
  133.6409  131.1977   59.6355 H   0  0  0  0  0  0  0  0  0  0  0  0
  133.1597  131.4532   57.2057 H   0  0  0  0  0  0  0  0  0  0  0  0
  130.8653  132.0532   56.4469 H   0  0  0  0  0  0  0  0  0  0  0  0
  128.1864  128.6982   67.3311 H   0  0  0  0  0  0  0  0  0  0  0  0
  126.6389  126.3720   70.7848 H   0  0  0  0  0  0  0  0  0  0  0  0
  126.6795  127.0929   73.1604 H   0  0  0  0  0  0  0  0  0  0  0  0
  130.5297  128.9460   72.5312 H   0  0  0  0  0  0  0  0  0  0  0  0
  130.4848  128.2287   70.1526 H   0  0  0  0  0  0  0  0  0  0  0  0
  130.0468  125.2435   65.5011 H   0  0  0  0  0  0  0  0  0  0  0  0
  129.3545  125.9994   63.2130 H   0  0  0  0  0  0  0  0  0  0  0  0
  127.8640  128.2820   61.9890 H   0  0  0  0  0  0  0  0  0  0  0  0
  1  2  1  0
  2  3  1  0
  2  4  1  0
  4  5  2  0
  5  6  1  0
  6  7  1  0
  7  8  1  0
  8  9  2  0
  9 10  1  0
  9 11  1  0
 11 12  2  0
 12 13  1  0
 13 14  2  0
 14 15  1  0
  7 16  2  0
  2 17  1  0
 17 18  2  0
 18 19  1  0
 19 20  2  0
 20 21  1  0
 21 22  1  0
 22 23  2  0
 22 24  2  0
 22 25  1  0
 25 26  1  0
 26 27  2  0
 27 28  1  0
 28 29  2  0
 29 30  1  0
 29 31  1  0
 31 32  2  0
 21 33  2  0
 33 34  1  0
 34 35  2  0
 35 36  1  0
 16  4  1  0
 36 17  1  0
 14  8  1  0
 35 19  1  0
 32 26  1  0
  1 37  1  0
  1 38  1  0
  1 39  1  0
  3 40  1  0
  3 41  1  0
  3 42  1  0
  5 43  1  0
 11 44  1  0
 12 45  1  0
 13 46  1  0
 20 47  1  0
 27 48  1  0
 28 49  1  0
 31 50  1  0
 32 51  1  0
 33 52  1  0
 34 53  1  0
 36 54  1  0
M  CHG  1  25  -1
M  END
>  <Binding energies>  (1) 
[-8.65]

>  <Ligand effiencies>  (1) 
[-0.23378378378378378]

>  <Interactions>  (1) 
["V-B:HIS:456:CD2:9039, V-B:GLU:543:C:9874, V-B:GLU:543:CB:9878, V-A:PRO:540:C:4881, V-B:LEU:475:CD2:9230, V-B:GLU:543:CG:9879, V-A:LEU:363:CD1:3189, V-A:TYR:539:CD1:4873, V-A:ALA:541:CB:4892, V-B:LYS:547:CE:9922, V-A:GLU:543:CD:4908, H-B:TYR:484:OH:9319, V-B:HIS:456:CE1:9041, V-A:HIS:456:CE1:4070, V-B:GLY:544:C:9884, V-B:GLY:544:CA:9886, V-A:GLU:543:CG:4907, V-B:GLU:543:CD:9880, V-B:HIS:456:CG:9037, V-A:TYR:539:C:4867, V-A:GLU:543:CB:4906, V-A:PRO:540:N:4884, V-A:PRO:540:CB:4885, V-A:PRO:540:CA:4883, V-A:TYR:539:CE1:4875"]

$$$$
ZINC587035865
     RDKit          3D

 39 43  0  0  0  0  0  0  0  0999 V2000
  126.4860  127.3980   71.7850 O   0  0  0  0  0  0  0  0  0  0  0  0
  127.5190  126.7400   71.7770 N   0  0  0  0  0  0  0  0  0  0  0  0
  127.6600  125.7740   72.5220 O   0  0  0  0  0  0  0  0  0  0  0  0
  128.6500  127.1060   70.8690 C   0  0  0  0  0  0  0  0  0  0  0  0
  128.4070  127.1270   69.4820 C   0  0  0  0  0  0  0  0  0  0  0  0
  129.4000  127.4420   68.5470 C   0  0  0  0  0  0  0  0  0  0  0  0
  129.1030  127.4440   67.0760 C   0  0  0  0  0  0  0  0  0  0  0  0
  128.3710  128.3510   66.4670 N   0  0  0  0  0  0  0  0  0  0  0  0
  128.3590  127.9800   65.1470 C   0  0  0  0  0  0  0  0  0  0  0  0
  127.7430  128.5710   64.0300 C   0  0  0  0  0  0  0  0  0  0  0  0
  126.8090  130.0120   64.2070 Cl  0  0  0  0  0  0  0  0  0  0  0  0
  127.8670  128.0230   62.7930 N   0  0  0  0  0  0  0  0  0  0  0  0
  128.5990  126.8900   62.6380 C   0  0  0  0  0  0  0  0  0  0  0  0
  129.2520  126.2240   63.6770 C   0  0  0  0  0  0  0  0  0  0  0  0
  130.2610  124.6380   63.3740 Br  0  0  0  0  0  0  0  0  0  0  0  0
  129.1130  126.8000   64.9440 C   0  0  0  0  0  0  0  0  0  0  0  0
  129.5720  126.4850   66.2000 N   0  0  0  0  0  0  0  0  0  0  0  0
  130.6790  127.7530   69.0150 C   0  0  0  0  0  0  0  0  0  0  0  0
  130.9510  127.7500   70.3780 C   0  0  0  0  0  0  0  0  0  0  0  0
  129.9570  127.4390   71.3080 C   0  0  0  0  0  0  0  0  0  0  0  0
  130.4510  127.4970   73.0120 S   0  0  0  0  0  0  0  0  0  0  0  0
  129.4810  128.8650   73.5300 C   0  0  0  0  0  0  0  0  0  0  0  0
  129.7360  130.1000   73.1960 N   0  0  0  0  0  0  0  0  0  0  0  0
  128.8370  130.9650   73.7360 C   0  0  0  0  0  0  0  0  0  0  0  0
  128.8490  132.3570   73.5550 C   0  0  0  0  0  0  0  0  0  0  0  0
  127.8570  133.1160   74.1770 C   0  0  0  0  0  0  0  0  0  0  0  0
  126.8700  132.5160   74.9610 C   0  0  0  0  0  0  0  0  0  0  0  0
  126.8370  131.1350   75.1560 C   0  0  0  0  0  0  0  0  0  0  0  0
  127.8300  130.3630   74.5370 C   0  0  0  0  0  0  0  0  0  0  0  0
  128.0910  128.6250   74.5650 S   0  0  0  0  0  0  0  0  0  0  0  0
  127.3969  126.8863   69.1190 H   0  0  0  0  0  0  0  0  0  0  0  0
  128.6833  126.4683   61.6255 H   0  0  0  0  0  0  0  0  0  0  0  0
  130.1510  125.7070   66.4850 H   0  0  0  0  0  0  0  0  0  0  0  0
  131.4766  128.0021   68.2996 H   0  0  0  0  0  0  0  0  0  0  0  0
  131.9640  127.9962   70.7291 H   0  0  0  0  0  0  0  0  0  0  0  0
  129.6220  132.8380   72.9376 H   0  0  0  0  0  0  0  0  0  0  0  0
  127.8526  134.2083   74.0471 H   0  0  0  0  0  0  0  0  0  0  0  0
  126.1023  133.1453   75.4349 H   0  0  0  0  0  0  0  0  0  0  0  0
  126.0574  130.6672   75.7752 H   0  0  0  0  0  0  0  0  0  0  0  0
  1  2  2  0
  2  3  1  0
  2  4  1  0
  4  5  2  0
  5  6  1  0
  6  7  1  0
  7  8  2  0
  8  9  1  0
  9 10  2  0
 10 11  1  0
 10 12  1  0
 12 13  2  0
 13 14  1  0
 14 15  1  0
 14 16  2  0
 16 17  1  0
  6 18  2  0
 18 19  1  0
 19 20  2  0
 20 21  1  0
 21 22  1  0
 22 23  2  0
 23 24  1  0
 24 25  2  0
 25 26  1  0
 26 27  2  0
 27 28  1  0
 28 29  2  0
 29 30  1  0
 20  4  1  0
 30 22  1  0
 17  7  1  0
 29 24  1  0
 16  9  1  0
  5 31  1  0
 13 32  1  0
 17 33  1  0
 18 34  1  0
 19 35  1  0
 25 36  1  0
 26 37  1  0
 27 38  1  0
 28 39  1  0
M  CHG  2   2   1   3  -1
M  END
>  <Binding energies>  (1) 
[-8.34]

>  <Ligand effiencies>  (1) 
[-0.26903225806451614]

>  <Interactions>  (1) 
["V-B:GLU:543:C:9874, H-A:GLU:543:OE2:4910, V-A:GLU:543:C:4902, V-B:HIS:456:CD2:9039, V-B:GLU:543:CB:9878, H-B:LYS:547:NZ:9923, V-B:HIS:456:CB:9036, V-A:GLY:544:C:4912, V-B:GLU:543:CG:9879, V-A:HIS:456:CD2:4068, H-B:HIS:456:ND1:9038, V-B:TYR:484:CB:9312, V-A:GLU:543:CD:4908, V-B:HIS:456:CE1:9041, V-A:HIS:456:CE1:4070, V-B:GLY:544:C:9884, V-B:GLY:544:CA:9886, V-B:GLU:543:CD:9880, V-B:HIS:456:CG:9037, H-A:LYS:547:NZ:4951, V-A:GLU:543:CB:4906, V-B:ASP:473:CB:9210, V-B:ASP:473:CG:9211"]

$$$$
ZINC587035865-again1
     RDKit          3D

 38 42  0  0  0  0  0  0  0  0999 V2000
  133.7290  124.0750   58.0410 O   0  0  0  0  0  0  0  0  0  0  0  0
  133.1680  125.0980   57.6690 N   0  0  0  0  0  0  0  0  0  0  0  0
  133.2310  125.4660   56.4990 O   0  0  0  0  0  0  0  0  0  0  0  0
  132.4120  125.9470   58.6400 C   0  0  0  0  0  0  0  0  0  0  0  0
  131.8040  127.1230   58.1620 C   0  0  0  0  0  0  0  0  0  0  0  0
  131.0930  128.0000   58.9930 C   0  0  0  0  0  0  0  0  0  0  0  0
  130.4590  129.2520   58.4430 C   0  0  0  0  0  0  0  0  0  0  0  0
  131.1810  130.2730   58.0190 N   0  0  0  0  0  0  0  0  0  0  0  0
  130.2570  131.1800   57.6130 C   0  0  0  0  0  0  0  0  0  0  0  0
  130.3670  132.4690   57.0620 C   0  0  0  0  0  0  0  0  0  0  0  0
  131.9190  133.1770   56.7910 Cl  0  0  0  0  0  0  0  0  0  0  0  0
  129.2570  133.1810   56.7350 N   0  0  0  0  0  0  0  0  0  0  0  0
  128.0330  132.6310   56.9460 C   0  0  0  0  0  0  0  0  0  0  0  0
  127.8320  131.3590   57.4860 C   0  0  0  0  0  0  0  0  0  0  0  0
  126.0780  130.6670   57.7470 Br  0  0  0  0  0  0  0  0  0  0  0  0
  128.9860  130.6290   57.8220 C   0  0  0  0  0  0  0  0  0  0  0  0
  129.1490  129.3920   58.3560 N   0  0  0  0  0  0  0  0  0  0  0  0
  130.9890  127.6840   60.3500 C   0  0  0  0  0  0  0  0  0  0  0  0
  131.5690  126.5260   60.8540 C   0  0  0  0  0  0  0  0  0  0  0  0
  132.2660  125.6500   60.0200 C   0  0  0  0  0  0  0  0  0  0  0  0
  132.9020  124.1850   60.7960 S   0  0  0  0  0  0  0  0  0  0  0  0
  132.2900  124.4450   62.4230 C   0  0  0  0  0  0  0  0  0  0  0  0
  133.0210  124.8880   63.4080 N   0  0  0  0  0  0  0  0  0  0  0  0
  132.3030  125.0110   64.5550 C   0  0  0  0  0  0  0  0  0  0  0  0
  132.8130  125.4670   65.7800 C   0  0  0  0  0  0  0  0  0  0  0  0
  131.9490  125.5390   66.8740 C   0  0  0  0  0  0  0  0  0  0  0  0
  130.6080  125.1700   66.7630 C   0  0  0  0  0  0  0  0  0  0  0  0
  130.0770  124.7140   65.5570 C   0  0  0  0  0  0  0  0  0  0  0  0
  130.9370  124.6360   64.4510 C   0  0  0  0  0  0  0  0  0  0  0  0
  130.6150  124.1130   62.8050 S   0  0  0  0  0  0  0  0  0  0  0  0
  131.8903  127.3639   57.0922 H   0  0  0  0  0  0  0  0  0  0  0  0
  127.1466  133.2234   56.6751 H   0  0  0  0  0  0  0  0  0  0  0  0
  130.4428  128.3583   61.0260 H   0  0  0  0  0  0  0  0  0  0  0  0
  131.4775  126.2963   61.9259 H   0  0  0  0  0  0  0  0  0  0  0  0
  133.8687  125.7608   65.8760 H   0  0  0  0  0  0  0  0  0  0  0  0
  132.3327  125.8934   67.8421 H   0  0  0  0  0  0  0  0  0  0  0  0
  129.9556  125.2403   67.6459 H   0  0  0  0  0  0  0  0  0  0  0  0
  129.0188  124.4249   65.4753 H   0  0  0  0  0  0  0  0  0  0  0  0
  1  2  2  0
  2  3  1  0
  2  4  1  0
  4  5  2  0
  5  6  1  0
  6  7  1  0
  7  8  2  0
  8  9  1  0
  9 10  2  0
 10 11  1  0
 10 12  1  0
 12 13  2  0
 13 14  1  0
 14 15  1  0
 14 16  2  0
 16 17  1  0
  6 18  2  0
 18 19  1  0
 19 20  2  0
 20 21  1  0
 21 22  1  0
 22 23  2  0
 23 24  1  0
 24 25  2  0
 25 26  1  0
 26 27  2  0
 27 28  1  0
 28 29  2  0
 29 30  1  0
 20  4  1  0
 30 22  1  0
 17  7  1  0
 29 24  1  0
 16  9  1  0
  5 31  1  0
 13 32  1  0
 18 33  1  0
 19 34  1  0
 25 35  1  0
 26 36  1  0
 27 37  1  0
 28 38  1  0
M  CHG  3   2   1   3  -1  17  -1
M  END
>  <Binding energies>  (1) 
[-8.52]

>  <Ligand effiencies>  (1) 
[-0.284]

>  <Interactions>  (1) 
["V-A:ASP:366:CA:3210, V-A:PRO:540:CG:4886, V-B:GLU:543:CB:9878, V-A:ILE:538:CB:4862, H-A:TYR:531:OH:4795, V-B:TYR:539:CE2:9848, V-A:TYR:484:CE2:4346, V-B:GLU:543:CG:9879, V-A:TYR:539:CE2:4876, V-A:ASP:366:CG:3213, V-A:ILE:538:CG2:4863, V-A:TYR:539:CD1:4873, V-A:LEU:363:CD1:3189, V-B:TYR:539:CZ:9849, V-A:TYR:539:CZ:4877, H-B:TYR:539:OH:9850, V-A:TYR:484:CZ:4347, V-A:ARG:545:CG:4922, V-A:HIS:456:CE1:4070, V-A:ASP:366:C:3208, V-A:TYR:531:CZ:4794, V-B:GLU:543:CD:9880, V-A:ASP:366:CB:3212, V-A:ARG:545:CD:4923, H-A:ARG:545:NH2:4928, V-A:ARG:545:CZ:4926, V-A:PRO:540:N:4884, V-A:TYR:539:CG:4872, H-A:TYR:539:N:4870, V-A:PRO:540:CB:4885, V-A:PRO:540:CA:4883, V-A:PRO:540:CD:4887, V-A:TYR:539:CE1:4875"]

$$$$
ZINC587044158
     RDKit          3D

 27 29  0  0  0  0  0  0  0  0999 V2000
  134.3040  121.5580   62.1890 N   0  0  0  0  0  0  0  0  0  0  0  0
  133.0190  122.0890   62.1620 C   0  0  0  0  0  0  0  0  0  0  0  0
  132.6800  122.9170   63.1840 N   0  0  0  0  0  0  0  0  0  0  0  0
  131.4300  123.4520   63.1870 C   0  0  0  0  0  0  0  0  0  0  0  0
  130.9400  124.5120   64.4580 Cl  0  0  0  0  0  0  0  0  0  0  0  0
  130.5600  123.1230   62.1440 C   0  0  0  0  0  0  0  0  0  0  0  0
  129.2670  123.4330   61.7910 N   0  0  0  0  0  0  0  0  0  0  0  0
  128.9990  122.7610   60.6170 C   0  0  0  0  0  0  0  0  0  0  0  0
  127.6530  122.8450   59.9200 C   0  0  1  0  0  0  0  0  0  0  0  0
  126.8900  124.1640   60.2060 C   0  0  0  0  0  0  0  0  0  0  0  0
  125.3640  124.3380   59.2450 S   0  0  0  0  0  0  0  0  0  0  0  0
  126.2120  124.1820   57.6570 C   0  0  0  0  0  0  0  0  0  0  0  0
  126.8510  122.7910   57.5410 C   0  0  0  0  0  0  0  0  0  0  0  0
  126.6160  122.0100   56.6220 O   0  0  0  0  0  0  0  0  0  0  0  0
  127.7900  122.5370   58.4780 N   0  0  0  0  0  0  0  0  0  0  0  0
  130.0140  122.0410   60.1890 N   0  0  0  0  0  0  0  0  0  0  0  0
  130.9990  122.2480   61.1180 C   0  0  0  0  0  0  0  0  0  0  0  0
  132.2300  121.7230   61.1150 N   0  0  0  0  0  0  0  0  0  0  0  0
  135.0850  122.1640   62.3970 H   0  0  0  0  0  0  0  0  0  0  0  0
  134.4380  120.5760   62.0010 H   0  0  0  0  0  0  0  0  0  0  0  0
  128.6000  124.0280   62.2610 H   0  0  0  0  0  0  0  0  0  0  0  0
  127.0087  122.0678   60.3568 H   0  0  0  0  0  0  0  0  0  0  0  0
  126.6335  124.1932   61.2753 H   0  0  0  0  0  0  0  0  0  0  0  0
  127.5530  124.9916   59.9137 H   0  0  0  0  0  0  0  0  0  0  0  0
  125.4871  124.3197   56.8412 H   0  0  0  0  0  0  0  0  0  0  0  0
  126.9979  124.9486   57.5890 H   0  0  0  0  0  0  0  0  0  0  0  0
  128.3040  121.6870   58.3000 H   0  0  0  0  0  0  0  0  0  0  0  0
  1  2  1  0
  2  3  2  0
  3  4  1  0
  4  5  1  0
  4  6  2  0
  6  7  1  0
  7  8  1  0
  8  9  1  0
  9 10  1  0
 10 11  1  0
 11 12  1  0
 12 13  1  0
 13 14  2  0
 13 15  1  0
  8 16  2  0
 16 17  1  0
 17 18  2  0
 18  2  1  0
 17  6  1  0
 15  9  1  0
  1 19  1  0
  1 20  1  0
  7 21  1  0
  9 22  1  1
 10 23  1  0
 10 24  1  0
 12 25  1  0
 12 26  1  0
 15 27  1  0
M  END
>  <Binding energies>  (1) 
[-5.58]

>  <Ligand effiencies>  (1) 
[-0.25363636363636366]

>  <Interactions>  (1) 
["V-A:ILE:369:CG2:3237, V-B:PRO:540:CA:9855, V-A:GLY:454:CA:4049, V-B:TYR:539:CE2:9848, H-B:TYR:539:N:9842, V-B:TYR:539:C:9839, H-B:GLU:543:OE1:9881, V-B:PRO:540:CB:9857, V-A:SER:385:C:3405, V-B:PRO:540:N:9856, V-A:ILE:369:CD1:3239, V-B:TYR:539:CD2:9846, V-B:PRO:540:CD:9859, V-A:SER:385:CB:3409, H-A:SER:385:OG:3410, V-A:LEU:475:CD2:4259, V-B:TYR:539:CG:9844, H-B:TYR:539:O:9840, H-A:SER:385:O:3406, V-A:SER:385:CA:3407"]

$$$$
ZINC587044158-again1
     RDKit          3D

 27 29  0  0  0  0  0  0  0  0999 V2000
  130.6070  129.1910   72.1450 N   0  0  0  0  0  0  0  0  0  0  0  0
  130.1250  128.4290   71.0860 C   0  0  0  0  0  0  0  0  0  0  0  0
  128.8080  128.0930   71.1340 N   0  0  0  0  0  0  0  0  0  0  0  0
  128.3070  127.3470   70.1130 C   0  0  0  0  0  0  0  0  0  0  0  0
  126.6410  126.8970   70.1360 Cl  0  0  0  0  0  0  0  0  0  0  0  0
  129.1430  126.9520   69.0550 C   0  0  0  0  0  0  0  0  0  0  0  0
  128.9220  126.2180   67.9190 N   0  0  0  0  0  0  0  0  0  0  0  0
  130.0920  126.1830   67.3160 C   0  0  0  0  0  0  0  0  0  0  0  0
  130.3540  125.4840   65.9930 C   0  0  1  0  0  0  0  0  0  0  0  0
  129.7230  126.2110   64.7770 C   0  0  0  0  0  0  0  0  0  0  0  0
  130.1740  125.4730   63.1850 S   0  0  0  0  0  0  0  0  0  0  0  0
  131.9470  125.6790   63.4630 C   0  0  0  0  0  0  0  0  0  0  0  0
  132.3860  124.8380   64.6700 C   0  0  0  0  0  0  0  0  0  0  0  0
  133.2690  123.9830   64.6200 O   0  0  0  0  0  0  0  0  0  0  0  0
  131.7960  125.1950   65.8310 N   0  0  0  0  0  0  0  0  0  0  0  0
  131.0750  126.8650   68.0010 N   0  0  0  0  0  0  0  0  0  0  0  0
  130.4900  127.3730   69.1330 C   0  0  0  0  0  0  0  0  0  0  0  0
  131.0240  128.1040   70.1170 N   0  0  0  0  0  0  0  0  0  0  0  0
  130.2380  130.1190   72.2950 H   0  0  0  0  0  0  0  0  0  0  0  0
  131.3160  128.8040   72.7500 H   0  0  0  0  0  0  0  0  0  0  0  0
  129.8324  124.5160   66.0228 H   0  0  0  0  0  0  0  0  0  0  0  0
  128.6283  126.1768   64.8797 H   0  0  0  0  0  0  0  0  0  0  0  0
  130.1084  127.2413   64.7785 H   0  0  0  0  0  0  0  0  0  0  0  0
  132.4973  125.3499   62.5692 H   0  0  0  0  0  0  0  0  0  0  0  0
  132.1624  126.7392   63.6618 H   0  0  0  0  0  0  0  0  0  0  0  0
  132.2020  124.7380   66.6340 H   0  0  0  0  0  0  0  0  0  0  0  0
  132.0310  126.9460   67.6850 H   0  0  0  0  0  0  0  0  0  0  0  0
  1  2  1  0
  2  3  2  0
  3  4  1  0
  4  5  1  0
  4  6  2  0
  6  7  1  0
  7  8  2  0
  8  9  1  0
  9 10  1  0
 10 11  1  0
 11 12  1  0
 12 13  1  0
 13 14  2  0
 13 15  1  0
  8 16  1  0
 16 17  1  0
 17 18  2  0
 18  2  1  0
 17  6  1  0
 15  9  1  0
  1 19  1  0
  1 20  1  0
  9 21  1  1
 10 22  1  0
 10 23  1  0
 12 24  1  0
 12 25  1  0
 15 26  1  0
 16 27  1  0
M  END
>  <Binding energies>  (1) 
[-5.9]

>  <Ligand effiencies>  (1) 
[-0.2681818181818182]

>  <Interactions>  (1) 
["V-B:GLU:543:C:9874, H-A:GLU:543:OE2:4910, V-A:GLU:543:C:4902, V-B:GLU:543:CB:9878, V-A:GLY:544:CA:4914, V-B:GLU:543:CG:9879, V-A:GLY:544:C:4912, H-A:ARG:545:N:4920, V-A:GLU:543:CD:4908, V-A:TYR:484:CZ:4347, V-A:ARG:545:CG:4922, V-B:HIS:456:CE1:9041, H-A:GLY:454:N:4050, V-A:HIS:456:CE1:4070, V-B:GLY:544:C:9884, V-B:GLY:544:CA:9886, V-B:GLU:543:CD:9880, V-A:ARG:545:CZ:4926, V-A:GLU:543:CB:4906, H-A:GLY:544:O:4913, H-A:TYR:484:OH:4348, H-A:GLU:543:O:4903"]

$$$$
ZINC587047535
     RDKit          3D

 37 39  0  0  0  0  0  0  0  0999 V2000
  133.4610  123.6470   61.0530 C   0  0  0  0  0  0  0  0  0  0  0  0
  132.4790  124.3620   61.9820 C   0  0  0  0  0  0  0  0  0  0  0  0
  131.6850  125.4060   61.4640 C   0  0  0  0  0  0  0  0  0  0  0  0
  131.7450  125.8970   59.6190 Br  0  0  0  0  0  0  0  0  0  0  0  0
  130.8080  126.1240   62.2750 C   0  0  0  0  0  0  0  0  0  0  0  0
  130.7240  125.7900   63.6280 C   0  0  0  0  0  0  0  0  0  0  0  0
  129.9500  126.3500   64.6090 N   0  0  0  0  0  0  0  0  0  0  0  0
  130.2360  125.6740   65.6960 C   0  0  0  0  0  0  0  0  0  0  0  0
  129.6940  125.8500   67.0320 C   0  0  0  0  0  0  0  0  0  0  0  0
  129.7850  126.9610   67.7890 C   0  0  0  0  0  0  0  0  0  0  0  0
  129.2390  127.1610   69.1500 C   0  0  0  0  0  0  0  0  0  0  0  0
  127.9090  126.8150   69.3950 C   0  0  0  0  0  0  0  0  0  0  0  0
  127.3530  126.9770   70.6620 C   0  0  0  0  0  0  0  0  0  0  0  0
  128.1160  127.4930   71.7090 C   0  0  0  0  0  0  0  0  0  0  0  0
  127.3720  127.6160   73.2670 Cl  0  0  0  0  0  0  0  0  0  0  0  0
  129.4550  127.8660   71.4830 C   0  0  0  0  0  0  0  0  0  0  0  0
  130.3130  128.4050   72.5590 N   0  0  0  0  0  0  0  0  0  0  0  0
  130.2380  129.6060   72.8040 O   0  0  0  0  0  0  0  0  0  0  0  0
  131.0330  127.6300   73.1810 O   0  0  0  0  0  0  0  0  0  0  0  0
  130.0020  127.6810   70.2050 C   0  0  0  0  0  0  0  0  0  0  0  0
  131.1710  124.6900   65.4670 N   0  0  0  0  0  0  0  0  0  0  0  0
  131.5140  124.7330   64.1330 C   0  0  0  0  0  0  0  0  0  0  0  0
  132.3950  123.9820   63.3430 C   0  0  0  0  0  0  0  0  0  0  0  0
  133.2340  122.8370   63.8980 C   0  0  0  0  0  0  0  0  0  0  0  0
  134.2058  123.1047   61.6540 H   0  0  0  0  0  0  0  0  0  0  0  0
  132.9131  122.9349   60.4184 H   0  0  0  0  0  0  0  0  0  0  0  0
  133.9705  124.3871   60.4184 H   0  0  0  0  0  0  0  0  0  0  0  0
  130.1950  126.9366   61.8579 H   0  0  0  0  0  0  0  0  0  0  0  0
  129.1577  124.9941   67.4677 H   0  0  0  0  0  0  0  0  0  0  0  0
  130.3239  127.8122   67.3472 H   0  0  0  0  0  0  0  0  0  0  0  0
  127.2931  126.4099   68.5785 H   0  0  0  0  0  0  0  0  0  0  0  0
  126.3042  126.6958   70.8379 H   0  0  0  0  0  0  0  0  0  0  0  0
  131.0535  127.9500   70.0263 H   0  0  0  0  0  0  0  0  0  0  0  0
  131.5110  124.0700   66.1860 H   0  0  0  0  0  0  0  0  0  0  0  0
  133.2126  122.8662   64.9974 H   0  0  0  0  0  0  0  0  0  0  0  0
  132.8230  121.8784   63.5486 H   0  0  0  0  0  0  0  0  0  0  0  0
  134.2719  122.9401   63.5486 H   0  0  0  0  0  0  0  0  0  0  0  0
  1  2  1  0
  2  3  2  0
  3  4  1  0
  3  5  1  0
  5  6  2  0
  6  7  1  0
  7  8  2  0
  8  9  1  0
  9 10  2  0
 10 11  1  0
 11 12  2  0
 12 13  1  0
 13 14  2  0
 14 15  1  0
 14 16  1  0
 16 17  1  0
 17 18  2  0
 17 19  1  0
 16 20  2  0
  8 21  1  0
 21 22  1  0
 22 23  2  0
 23 24  1  0
 23  2  1  0
 22  6  1  0
 20 11  1  0
  1 25  1  0
  1 26  1  0
  1 27  1  0
  5 28  1  0
  9 29  1  0
 10 30  1  0
 12 31  1  0
 13 32  1  0
 20 33  1  0
 21 34  1  0
 24 35  1  0
 24 36  1  0
 24 37  1  0
M  CHG  2  17   1  19  -1
M  END
>  <Binding energies>  (1) 
[-8.43]

>  <Ligand effiencies>  (1) 
[-0.3372]

>  <Interactions>  (1) 
["V-A:GLY:454:CA:4049, V-B:GLU:543:C:9874, V-B:HIS:456:CD2:9039, V-B:GLU:543:CB:9878, V-A:TYR:484:CE2:4346, V-B:GLU:543:CG:9879, V-A:GLY:544:C:4912, V-A:ASP:366:CG:3213, V-B:LYS:547:CE:9922, V-A:GLU:543:CD:4908, V-A:TYR:484:CZ:4347, V-B:HIS:456:CE1:9041, V-A:HIS:456:CE1:4070, V-A:ILE:369:CD1:3239, V-B:GLY:544:C:9884, V-B:GLY:544:CA:9886, V-B:HIS:456:CG:9037, V-A:ASP:366:CB:3212, H-A:LYS:547:NZ:4951, V-A:LEU:475:CD2:4259, V-A:GLU:543:CB:4906, H-A:TYR:484:OH:4348"]

$$$$
ZINC587063569
     RDKit          3D

 38 41  0  0  0  0  0  0  0  0999 V2000
  133.6270  123.0010   60.8960 C   0  0  0  0  0  0  0  0  0  0  0  0
  133.1120  123.6070   62.1800 C   0  0  0  0  0  0  0  0  0  0  0  0
  133.9000  123.4490   63.2690 O   0  0  0  0  0  0  0  0  0  0  0  0
  133.2830  124.0650   64.3540 N   0  0  0  0  0  0  0  0  0  0  0  0
  132.1530  124.5670   63.9020 C   0  0  0  0  0  0  0  0  0  0  0  0
  131.2330  125.2740   64.8100 C   0  0  0  0  0  0  0  0  0  0  0  0
  130.3840  126.2010   64.4330 N   0  0  0  0  0  0  0  0  0  0  0  0
  129.7140  126.5680   65.5690 C   0  0  0  0  0  0  0  0  0  0  0  0
  128.6890  127.5140   65.7340 C   0  0  0  0  0  0  0  0  0  0  0  0
  128.0230  128.5070   64.2480 Br  0  0  0  0  0  0  0  0  0  0  0  0
  128.1710  127.7050   67.0170 C   0  0  0  0  0  0  0  0  0  0  0  0
  127.1830  128.6090   67.2160 F   0  0  0  0  0  0  0  0  0  0  0  0
  128.6530  126.9750   68.1060 C   0  0  0  0  0  0  0  0  0  0  0  0
  129.6680  126.0240   67.9750 C   0  0  0  0  0  0  0  0  0  0  0  0
  130.1840  125.8380   66.6890 C   0  0  0  0  0  0  0  0  0  0  0  0
  131.1550  125.0180   66.1640 N   0  0  0  0  0  0  0  0  0  0  0  0
  131.9790  124.3250   62.5250 C   0  0  0  0  0  0  0  0  0  0  0  0
  130.8400  124.7550   61.6250 C   0  0  0  0  0  0  0  0  0  0  0  0
  130.2620  123.5870   61.0490 O   0  0  0  0  0  0  0  0  0  0  0  0
  128.9320  123.5960   60.6710 C   0  0  0  0  0  0  0  0  0  0  0  0
  128.4880  123.9290   59.3790 C   0  0  0  0  0  0  0  0  0  0  0  0
  127.1270  123.9310   59.0740 C   0  0  0  0  0  0  0  0  0  0  0  0
  126.1930  123.5980   60.0500 C   0  0  0  0  0  0  0  0  0  0  0  0
  126.6180  123.2620   61.3340 C   0  0  0  0  0  0  0  0  0  0  0  0
  127.9800  123.2600   61.6440 C   0  0  0  0  0  0  0  0  0  0  0  0
  128.4700  122.8570   63.2520 Cl  0  0  0  0  0  0  0  0  0  0  0  0
  134.3230  122.1820   61.1304 H   0  0  0  0  0  0  0  0  0  0  0  0
  132.7822  122.6082   60.3112 H   0  0  0  0  0  0  0  0  0  0  0  0
  134.1509  123.7714   60.3112 H   0  0  0  0  0  0  0  0  0  0  0  0
  128.2187  127.1550   69.1005 H   0  0  0  0  0  0  0  0  0  0  0  0
  130.0412  125.4522   68.8374 H   0  0  0  0  0  0  0  0  0  0  0  0
  131.7320  124.3330   66.6320 H   0  0  0  0  0  0  0  0  0  0  0  0
  130.0829  125.2933   62.2141 H   0  0  0  0  0  0  0  0  0  0  0  0
  131.2120  125.4239   60.8349 H   0  0  0  0  0  0  0  0  0  0  0  0
  129.2209  124.1904   58.6015 H   0  0  0  0  0  0  0  0  0  0  0  0
  126.7916  124.1962   58.0605 H   0  0  0  0  0  0  0  0  0  0  0  0
  125.1199  123.5999   59.8083 H   0  0  0  0  0  0  0  0  0  0  0  0
  125.8793  122.9978   62.1050 H   0  0  0  0  0  0  0  0  0  0  0  0
  1  2  1  0
  2  3  1  0
  3  4  1  0
  4  5  2  0
  5  6  1  0
  6  7  2  0
  7  8  1  0
  8  9  2  0
  9 10  1  0
  9 11  1  0
 11 12  1  0
 11 13  2  0
 13 14  1  0
 14 15  2  0
 15 16  1  0
  5 17  1  0
 17 18  1  0
 18 19  1  0
 19 20  1  0
 20 21  2  0
 21 22  1  0
 22 23  2  0
 23 24  1  0
 24 25  2  0
 25 26  1  0
 17  2  2  0
 25 20  1  0
 16  6  1  0
 15  8  1  0
  1 27  1  0
  1 28  1  0
  1 29  1  0
 13 30  1  0
 14 31  1  0
 16 32  1  0
 18 33  1  0
 18 34  1  0
 21 35  1  0
 22 36  1  0
 23 37  1  0
 24 38  1  0
M  END
>  <Binding energies>  (1) 
[-6.68]

>  <Ligand effiencies>  (1) 
[-0.2474074074074074]

>  <Interactions>  (1) 
["V-A:ILE:369:CG2:3237, V-A:ILE:369:CD1:3239, V-A:HIS:456:CE1:4070, V-B:PRO:540:CA:9855, V-B:GLU:543:CB:9878, V-B:GLU:543:CD:9880, V-B:PRO:540:C:9853, V-B:ALA:541:CB:9864, V-A:TYR:484:CZ:4347, V-A:TYR:484:CE2:4346, V-A:GLU:543:CD:4908, V-B:TYR:539:CE2:9848, V-B:PRO:540:CB:9857, V-B:GLU:543:CG:9879, V-B:HIS:456:CE1:9041, H-A:GLY:454:N:4050, H-A:TYR:484:OH:4348"]

$$$$
ZINC587077501
     RDKit          3D

 34 37  0  0  0  0  0  0  0  0999 V2000
  129.4760  126.5570   66.9600 Cl  0  0  0  0  0  0  0  0  0  0  0  0
  129.3980  126.9710   68.6340 C   0  0  0  0  0  0  0  0  0  0  0  0
  130.4790  127.6090   69.2400 C   0  0  0  0  0  0  0  0  0  0  0  0
  130.4150  127.9440   70.5900 C   0  0  0  0  0  0  0  0  0  0  0  0
  129.2730  127.6370   71.3360 C   0  0  0  0  0  0  0  0  0  0  0  0
  129.2000  128.0170   72.8150 C   0  0  0  0  0  0  0  0  0  0  0  0
  130.1060  127.0300   73.5650 C   0  0  0  0  0  0  0  0  0  0  0  0
  129.7210  125.8540   74.0070 N   0  0  0  0  0  0  0  0  0  0  0  0
  130.8450  125.3010   74.5620 C   0  0  0  0  0  0  0  0  0  0  0  0
  131.0420  124.0630   75.1960 C   0  0  0  0  0  0  0  0  0  0  0  0
  129.5890  122.8480   75.3940 Br  0  0  0  0  0  0  0  0  0  0  0  0
  132.2620  123.7100   75.6790 N   0  0  0  0  0  0  0  0  0  0  0  0
  133.3050  124.5700   75.5410 C   0  0  0  0  0  0  0  0  0  0  0  0
  133.2200  125.8210   74.9260 C   0  0  0  0  0  0  0  0  0  0  0  0
  134.7330  126.9670   74.7700 Br  0  0  0  0  0  0  0  0  0  0  0  0
  131.9570  126.1690   74.4380 C   0  0  0  0  0  0  0  0  0  0  0  0
  131.4450  127.2670   73.7860 N   0  0  0  0  0  0  0  0  0  0  0  0
  129.4220  129.4990   73.2340 C   0  0  0  0  0  0  0  0  0  0  0  0
  128.3330  129.3700   74.2970 C   0  0  0  0  0  0  0  0  0  0  0  0
  127.8040  128.1930   73.4790 C   0  0  0  0  0  0  0  0  0  0  0  0
  128.1910  126.9990   70.7200 C   0  0  0  0  0  0  0  0  0  0  0  0
  128.2540  126.6660   69.3680 C   0  0  0  0  0  0  0  0  0  0  0  0
  131.3791  127.8469   68.6541 H   0  0  0  0  0  0  0  0  0  0  0  0
  131.2646  128.4512   71.0706 H   0  0  0  0  0  0  0  0  0  0  0  0
  134.2819  124.2600   75.9405 H   0  0  0  0  0  0  0  0  0  0  0  0
  131.9170  128.1120   73.5010 H   0  0  0  0  0  0  0  0  0  0  0  0
  130.4231  129.7042   73.6410 H   0  0  0  0  0  0  0  0  0  0  0  0
  129.3707  130.3008   72.4827 H   0  0  0  0  0  0  0  0  0  0  0  0
  128.6962  129.1087   75.3019 H   0  0  0  0  0  0  0  0  0  0  0  0
  127.6940  130.2166   74.5884 H   0  0  0  0  0  0  0  0  0  0  0  0
  127.4851  127.3329   74.0861 H   0  0  0  0  0  0  0  0  0  0  0  0
  126.9049  128.3105   72.8562 H   0  0  0  0  0  0  0  0  0  0  0  0
  127.2896  126.7599   71.3033 H   0  0  0  0  0  0  0  0  0  0  0  0
  127.4038  126.1644   68.8826 H   0  0  0  0  0  0  0  0  0  0  0  0
  1  2  1  0
  2  3  2  0
  3  4  1  0
  4  5  2  0
  5  6  1  0
  6  7  1  0
  7  8  2  0
  8  9  1  0
  9 10  2  0
 10 11  1  0
 10 12  1  0
 12 13  2  0
 13 14  1  0
 14 15  1  0
 14 16  2  0
 16 17  1  0
  6 18  1  0
 18 19  1  0
 19 20  1  0
  5 21  1  0
 21 22  2  0
 22  2  1  0
 20  6  1  0
 17  7  1  0
 16  9  1  0
  3 23  1  0
  4 24  1  0
 13 25  1  0
 17 26  1  0
 18 27  1  0
 18 28  1  0
 19 29  1  0
 19 30  1  0
 20 31  1  0
 20 32  1  0
 21 33  1  0
 22 34  1  0
M  END
>  <Binding energies>  (1) 
[-7.48]

>  <Ligand effiencies>  (1) 
[-0.32521739130434785]

>  <Interactions>  (1) 
["V-B:HIS:456:CD2:9039, V-B:GLU:543:C:9874, V-A:GLU:543:C:4902, V-B:GLU:543:CB:9878, H-B:LYS:547:NZ:9923, V-B:GLU:543:CG:9879, V-A:GLY:544:C:4912, V-A:HIS:456:CD2:4068, V-A:VAL:457:C:4073, V-A:LYS:547:CG:4948, V-A:LYS:547:CB:4947, V-A:HIS:456:CB:4065, V-B:LYS:547:CE:9922, V-A:GLU:543:CD:4908, V-B:HIS:456:CE1:9041, V-A:HIS:456:CE1:4070, V-B:GLU:543:CD:9880, V-B:HIS:456:CG:9037, V-A:ARG:545:C:4917, V-A:HIS:456:CG:4066, V-A:GLU:543:CB:4906, H-A:GLY:544:O:4913"]

$$$$
ZINC587079762-again1
     RDKit          3D

 38 42  0  0  0  0  0  0  0  0999 V2000
  131.1520  132.6060   56.4490 S   0  0  0  0  0  0  0  0  0  0  0  0
  131.0830  131.5700   57.7420 C   0  0  0  0  0  0  0  0  0  0  0  0
  130.8900  132.0270   59.0550 N   0  0  0  0  0  0  0  0  0  0  0  0
  130.8350  131.2290   60.0670 C   0  0  0  0  0  0  0  0  0  0  0  0
  130.5850  131.9390   61.7010 S   0  0  0  0  0  0  0  0  0  0  0  0
  130.9750  129.7790   59.8760 C   0  0  0  0  0  0  0  0  0  0  0  0
  130.9740  128.6640   60.6660 N   0  0  0  0  0  0  0  0  0  0  0  0
  131.1600  127.6060   59.8040 C   0  0  0  0  0  0  0  0  0  0  0  0
  131.2350  126.1680   60.2930 C   0  0  1  0  0  0  0  0  0  0  0  0
  130.1150  125.3500   59.8300 N   0  0  0  0  0  0  0  0  0  0  0  0
  130.1040  123.9900   60.1920 C   0  0  0  0  0  0  0  0  0  0  0  0
  128.8670  123.3450   60.2740 C   0  0  0  0  0  0  0  0  0  0  0  0
  128.7910  122.0240   60.7110 C   0  0  0  0  0  0  0  0  0  0  0  0
  129.9500  121.3520   61.0880 C   0  0  0  0  0  0  0  0  0  0  0  0
  129.8620  119.7190   61.6390 Cl  0  0  0  0  0  0  0  0  0  0  0  0
  131.1820  122.0020   61.0260 C   0  0  0  0  0  0  0  0  0  0  0  0
  131.2880  123.3260   60.5800 C   0  0  0  0  0  0  0  0  0  0  0  0
  132.6540  124.0220   60.5100 C   0  0  1  0  0  0  0  0  0  0  0  0
  133.6030  123.3590   59.5300 C   0  0  0  0  0  0  0  0  0  0  0  0
  133.7670  124.0970   58.4190 C   0  0  0  0  0  0  0  0  0  0  0  0
  132.9840  125.3870   58.4930 C   0  0  0  0  0  0  0  0  0  0  0  0
  132.5790  125.4640   59.9730 C   0  0  1  0  0  0  0  0  0  0  0  0
  131.2770  127.9930   58.5420 N   0  0  0  0  0  0  0  0  0  0  0  0
  131.1640  129.3100   58.5800 C   0  0  0  0  0  0  0  0  0  0  0  0
  131.2170  130.2150   57.5190 N   0  0  0  0  0  0  0  0  0  0  0  0
  130.8620  128.6270   61.6690 H   0  0  0  0  0  0  0  0  0  0  0  0
  131.1683  126.2559   61.3875 H   0  0  0  0  0  0  0  0  0  0  0  0
  129.2720  125.8460   59.5840 H   0  0  0  0  0  0  0  0  0  0  0  0
  127.9494  123.8824   59.9924 H   0  0  0  0  0  0  0  0  0  0  0  0
  127.8176  121.5137   60.7579 H   0  0  0  0  0  0  0  0  0  0  0  0
  132.0905  121.4636   61.3339 H   0  0  0  0  0  0  0  0  0  0  0  0
  132.9983  123.9721   61.5535 H   0  0  0  0  0  0  0  0  0  0  0  0
  134.0967  122.3921   59.7071 H   0  0  0  0  0  0  0  0  0  0  0  0
  134.3921  123.7996   57.5641 H   0  0  0  0  0  0  0  0  0  0  0  0
  133.6102  126.2459   58.2097 H   0  0  0  0  0  0  0  0  0  0  0  0
  132.1241  125.4109   57.8075 H   0  0  0  0  0  0  0  0  0  0  0  0
  133.2798  126.1366   60.4892 H   0  0  0  0  0  0  0  0  0  0  0  0
  131.3530  129.9530   56.5520 H   0  0  0  0  0  0  0  0  0  0  0  0
  1  2  2  0
  2  3  1  0
  3  4  2  0
  4  5  1  0
  4  6  1  0
  6  7  1  0
  7  8  1  0
  8  9  1  0
  9 10  1  0
 10 11  1  0
 11 12  2  0
 12 13  1  0
 13 14  2  0
 14 15  1  0
 14 16  1  0
 16 17  2  0
 17 18  1  0
 18 19  1  0
 19 20  2  0
 20 21  1  0
 21 22  1  0
  8 23  2  0
 23 24  1  0
 24 25  1  0
 25  2  1  0
 24  6  2  0
 22  9  1  0
 17 11  1  0
 22 18  1  0
  7 26  1  0
  9 27  1  1
 10 28  1  0
 12 29  1  0
 13 30  1  0
 16 31  1  0
 18 32  1  1
 19 33  1  0
 20 34  1  0
 21 35  1  0
 21 36  1  0
 22 37  1  1
 25 38  1  0
M  CHG  1   5  -1
M  END
>  <Binding energies>  (1) 
[-6.33]

>  <Ligand effiencies>  (1) 
[-0.22607142857142856]

>  <Interactions>  (1) 
["V-A:ILE:369:CG2:3237, V-A:ASP:366:CA:3210, V-B:PRO:540:CA:9855, V-A:ILE:369:CB:3236, V-A:ILE:538:CB:4862, V-B:ALA:541:CB:9864, H-A:TYR:531:OH:4795, V-B:TYR:539:CE2:9848, V-B:TYR:539:C:9839, V-A:ASP:366:CG:3213, V-A:ILE:538:CG2:4863, V-A:LEU:363:CD1:3189, V-B:TYR:539:CZ:9849, V-A:ILE:538:CA:4860, V-A:ILE:369:CD1:3239, V-A:ASP:366:C:3208, V-B:TYR:539:CD2:9846, V-A:TYR:531:CZ:4794, V-A:ASP:366:CB:3212, V-A:LEU:475:CD2:4259, H-A:GLU:543:OE1:4909, V-A:PRO:540:CA:4883, V-B:PRO:540:C:9853, H-A:ASP:366:OD2:3215"]

$$$$
ZINC587089083
     RDKit          3D

 17 18  0  0  0  0  0  0  0  0999 V2000
  130.9890  127.1650   75.8940 F   0  0  0  0  0  0  0  0  0  0  0  0
  131.3450  126.3390   74.9090 C   0  0  0  0  0  0  0  0  0  0  0  0
  133.2970  126.5960   74.6100 Br  0  0  0  0  0  0  0  0  0  0  0  0
  131.0000  124.4850   75.5490 Br  0  0  0  0  0  0  0  0  0  0  0  0
  130.5680  126.6170   73.6350 C   0  0  0  0  0  0  0  0  0  0  0  0
  129.2690  126.4820   73.5010 N   0  0  0  0  0  0  0  0  0  0  0  0
  129.0140  126.8380   72.2040 C   0  0  0  0  0  0  0  0  0  0  0  0
  127.8180  126.8550   71.6080 N   0  0  0  0  0  0  0  0  0  0  0  0
  127.7960  127.2460   70.3050 C   0  0  0  0  0  0  0  0  0  0  0  0
  128.9260  127.6200   69.5720 C   0  0  0  0  0  0  0  0  0  0  0  0
  128.7400  128.0930   67.9190 Cl  0  0  0  0  0  0  0  0  0  0  0  0
  130.1880  127.6060   70.1850 C   0  0  0  0  0  0  0  0  0  0  0  0
  131.6390  128.0530   69.3560 Cl  0  0  0  0  0  0  0  0  0  0  0  0
  130.2060  127.2040   71.5260 C   0  0  0  0  0  0  0  0  0  0  0  0
  131.1850  127.0490   72.4810 N   0  0  0  0  0  0  0  0  0  0  0  0
  126.8225  127.2694   69.7934 H   0  0  0  0  0  0  0  0  0  0  0  0
  132.1800  127.2080   72.4030 H   0  0  0  0  0  0  0  0  0  0  0  0
  1  2  1  0
  2  3  1  0
  2  4  1  0
  2  5  1  0
  5  6  2  0
  6  7  1  0
  7  8  2  0
  8  9  1  0
  9 10  2  0
 10 11  1  0
 10 12  1  0
 12 13  1  0
 12 14  2  0
 14 15  1  0
 15  5  1  0
 14  7  1  0
  9 16  1  0
 15 17  1  0
M  END
>  <Binding energies>  (1) 
[-5.61]

>  <Ligand effiencies>  (1) 
[-0.350625]

>  <Interactions>  (1) 
["V-A:HIS:456:CE1:4070, V-A:GLU:543:CA:4904, V-A:ARG:545:CG:4922, V-A:ARG:545:CA:4919, V-B:HIS:456:CE1:9041, V-A:GLU:543:C:4902, V-B:GLU:543:C:9874, V-B:HIS:456:CD2:9039, V-A:LYS:547:CG:4948, H-B:LYS:547:NZ:9923, V-A:HIS:456:CB:4065, V-A:GLU:543:CB:4906, V-A:GLU:543:CD:4908, V-A:GLY:544:C:4912, H-A:GLY:544:O:4913, H-A:HIS:456:NE2:4071, V-A:HIS:456:CD2:4068, V-A:HIS:456:CG:4066"]

$$$$
ZINC587089083-again1
     RDKit          3D

 16 17  0  0  0  0  0  0  0  0999 V2000
  131.0920  127.2710   75.8890 F   0  0  0  0  0  0  0  0  0  0  0  0
  131.3660  126.3800   74.9330 C   0  0  0  0  0  0  0  0  0  0  0  0
  133.3040  126.5690   74.5100 Br  0  0  0  0  0  0  0  0  0  0  0  0
  131.0200  124.5780   75.7090 Br  0  0  0  0  0  0  0  0  0  0  0  0
  130.5180  126.6020   73.6870 C   0  0  0  0  0  0  0  0  0  0  0  0
  129.2260  126.3400   73.6620 N   0  0  0  0  0  0  0  0  0  0  0  0
  128.8650  126.6700   72.3970 C   0  0  0  0  0  0  0  0  0  0  0  0
  127.6480  126.5900   71.8540 N   0  0  0  0  0  0  0  0  0  0  0  0
  127.5520  126.9860   70.5550 C   0  0  0  0  0  0  0  0  0  0  0  0
  128.6260  127.4550   69.7900 C   0  0  0  0  0  0  0  0  0  0  0  0
  128.3540  127.9240   68.1490 Cl  0  0  0  0  0  0  0  0  0  0  0  0
  129.8980  127.5340   70.3750 C   0  0  0  0  0  0  0  0  0  0  0  0
  131.2780  128.1030   69.5010 Cl  0  0  0  0  0  0  0  0  0  0  0  0
  130.0050  127.1260   71.7170 C   0  0  0  0  0  0  0  0  0  0  0  0
  131.0550  127.0700   72.5770 N   0  0  0  0  0  0  0  0  0  0  0  0
  126.5639  126.9338   70.0744 H   0  0  0  0  0  0  0  0  0  0  0  0
  1  2  1  0
  2  3  1  0
  2  4  1  0
  2  5  1  0
  5  6  2  0
  6  7  1  0
  7  8  2  0
  8  9  1  0
  9 10  2  0
 10 11  1  0
 10 12  1  0
 12 13  1  0
 12 14  2  0
 14 15  1  0
 15  5  1  0
 14  7  1  0
  9 16  1  0
M  CHG  1  15  -1
M  END
>  <Binding energies>  (1) 
[-6.24]

>  <Ligand effiencies>  (1) 
[-0.41600000000000004]

>  <Interactions>  (1) 
["V-A:HIS:456:CE1:4070, V-A:GLU:543:CA:4904, V-B:HIS:456:CE1:9041, V-B:GLU:543:C:9874, V-A:GLU:543:C:4902, V-B:GLY:544:C:9884, V-A:LYS:547:CG:4948, V-A:HIS:456:CB:4065, H-B:LYS:547:NZ:9923, V-A:HIS:456:CG:4066, V-A:GLY:544:C:4912, V-A:ARG:545:CG:4922, V-A:HIS:456:CD2:4068, V-A:GLU:543:CB:4906"]

$$$$
ZINC587093448
     RDKit          3D

 88 93  0  0  0  0  0  0  0  0999 V2000
  130.8200  128.0900   70.2650 C   0  0  0  0  0  0  0  0  0  0  0  0
  129.3320  128.3360   69.9650 C   0  0  0  0  0  0  0  0  0  0  0  0
  128.6560  127.1900   69.3440 N   0  0  0  0  0  0  0  0  0  0  0  0
  127.2700  126.9570   69.7730 C   0  0  0  0  0  0  0  0  0  0  0  0
  127.0530  127.0450   71.2940 C   0  0  0  0  0  0  0  0  0  0  0  0
  129.0530  126.8890   68.0130 C   0  0  0  0  0  0  0  0  0  0  0  0
  130.0420  125.9350   67.7240 C   0  0  0  0  0  0  0  0  0  0  0  0
  130.4110  125.6550   66.4080 C   0  0  0  0  0  0  0  0  0  0  0  0
  129.8050  126.3100   65.3290 C   0  0  0  0  0  0  0  0  0  0  0  0
  128.8130  127.2580   65.6220 C   0  0  0  0  0  0  0  0  0  0  0  0
  128.4500  127.5540   66.9350 C   0  0  0  0  0  0  0  0  0  0  0  0
  128.1760  127.9640   64.6260 O   0  0  0  0  0  0  0  0  0  0  0  0
  128.8310  128.1710   63.4320 C   0  0  0  0  0  0  0  0  0  0  0  0
  128.4850  129.3160   62.7150 C   0  0  0  0  0  0  0  0  0  0  0  0
  129.0990  129.6130   61.4870 C   0  0  0  0  0  0  0  0  0  0  0  0
  128.7380  130.7700   60.7390 N   0  0  0  0  0  0  0  0  0  0  0  0
  129.6000  131.9560   60.6960 C   0  0  0  0  0  0  0  0  0  0  0  0
  129.2030  132.9540   59.6000 C   0  0  0  0  0  0  0  0  0  0  0  0
  127.4930  130.8280   59.9670 C   0  0  0  0  0  0  0  0  0  0  0  0
  126.9080  129.4410   59.6560 C   0  0  0  0  0  0  0  0  0  0  0  0
  130.0830  128.7200   61.0260 C   0  0  0  0  0  0  0  0  0  0  0  0
  130.4370  127.5880   61.7580 C   0  0  0  0  0  0  0  0  0  0  0  0
  129.8200  127.2880   62.9770 C   0  0  0  0  0  0  0  0  0  0  0  0
  130.2050  126.0880   63.8600 C   0  0  0  0  0  0  0  0  0  0  0  0
  131.6230  125.9260   63.8020 O   0  0  0  0  0  0  0  0  0  0  0  0
  131.9790  124.7090   63.3070 C   0  0  0  0  0  0  0  0  0  0  0  0
  133.1510  124.3620   63.1770 O   0  0  0  0  0  0  0  0  0  0  0  0
  130.7300  123.9830   62.9980 C   0  0  0  0  0  0  0  0  0  0  0  0
  129.6540  124.7930   63.3230 C   0  0  0  0  0  0  0  0  0  0  0  0
  128.3380  124.3620   63.1380 C   0  0  0  0  0  0  0  0  0  0  0  0
  128.0670  123.0940   62.6170 C   0  0  0  0  0  0  0  0  0  0  0  0
  129.1560  122.2690   62.2870 C   0  0  0  0  0  0  0  0  0  0  0  0
  129.1940  121.0150   61.7740 N   0  0  0  0  0  0  0  0  0  0  0  0
  130.4860  120.7540   61.6890 C   0  0  0  0  0  0  0  0  0  0  0  0
  131.0030  119.4320   61.1290 C   0  0  0  0  0  0  0  0  0  0  0  0
  130.6250  118.4020   61.8930 F   0  0  0  0  0  0  0  0  0  0  0  0
  130.5090  119.2320   59.9060 F   0  0  0  0  0  0  0  0  0  0  0  0
  132.4350  119.4860   61.0750 O   0  0  0  0  0  0  0  0  0  0  0  0
  133.0650  120.5010   60.2840 C   0  0  0  0  0  0  0  0  0  0  0  0
  133.8990  119.9390   59.4060 F   0  0  0  0  0  0  0  0  0  0  0  0
  132.1510  121.2000   59.6050 F   0  0  0  0  0  0  0  0  0  0  0  0
  133.8400  121.4180   61.2530 C   0  0  0  0  0  0  0  0  0  0  0  0
  133.7850  120.9460   62.5020 F   0  0  0  0  0  0  0  0  0  0  0  0
  135.1230  121.4970   60.8950 F   0  0  0  0  0  0  0  0  0  0  0  0
  133.2420  122.7170   61.1790 O   0  0  0  0  0  0  0  0  0  0  0  0
  133.5440  123.5630   60.0640 C   0  0  0  0  0  0  0  0  0  0  0  0
  134.7760  124.0550   60.2150 F   0  0  0  0  0  0  0  0  0  0  0  0
  133.5220  122.8600   58.9280 F   0  0  0  0  0  0  0  0  0  0  0  0
  132.5070  124.7180   60.0390 C   0  0  0  0  0  0  0  0  0  0  0  0
  131.3210  124.2490   60.4360 F   0  0  0  0  0  0  0  0  0  0  0  0
  132.8620  125.6310   60.9470 F   0  0  0  0  0  0  0  0  0  0  0  0
  132.3600  125.4070   58.6450 C   0  0  0  0  0  0  0  0  0  0  0  0
  132.8530  126.6480   58.6980 F   0  0  0  0  0  0  0  0  0  0  0  0
  133.0990  124.7660   57.7360 F   0  0  0  0  0  0  0  0  0  0  0  0
  130.8980  125.4750   58.1340 C   0  0  0  0  0  0  0  0  0  0  0  0
  130.8500  125.8340   56.8500 F   0  0  0  0  0  0  0  0  0  0  0  0
  130.2770  124.3000   58.2390 F   0  0  0  0  0  0  0  0  0  0  0  0
  130.1710  126.3590   58.8180 F   0  0  0  0  0  0  0  0  0  0  0  0
  131.3080  121.7130   62.0700 N   0  0  0  0  0  0  0  0  0  0  0  0
  130.4770  122.7050   62.4730 C   0  0  0  0  0  0  0  0  0  0  0  0
  130.9752  128.0643   71.3537 H   0  0  0  0  0  0  0  0  0  0  0  0
  131.1281  127.1287   69.8280 H   0  0  0  0  0  0  0  0  0  0  0  0
  131.4211  128.9010   69.8280 H   0  0  0  0  0  0  0  0  0  0  0  0
  128.8213  128.5692   70.9109 H   0  0  0  0  0  0  0  0  0  0  0  0
  129.2830  129.1660   69.2448 H   0  0  0  0  0  0  0  0  0  0  0  0
  126.6290  127.7091   69.2898 H   0  0  0  0  0  0  0  0  0  0  0  0
  127.0187  125.9273   69.4787 H   0  0  0  0  0  0  0  0  0  0  0  0
  127.9512  126.6808   71.8142 H   0  0  0  0  0  0  0  0  0  0  0  0
  126.8639  128.0909   71.5775 H   0  0  0  0  0  0  0  0  0  0  0  0
  126.1888  126.4263   71.5775 H   0  0  0  0  0  0  0  0  0  0  0  0
  130.5341  125.3994   68.5492 H   0  0  0  0  0  0  0  0  0  0  0  0
  131.1927  124.9056   66.2145 H   0  0  0  0  0  0  0  0  0  0  0  0
  127.6821  128.3176   67.1279 H   0  0  0  0  0  0  0  0  0  0  0  0
  127.7200  129.9966   63.1170 H   0  0  0  0  0  0  0  0  0  0  0  0
  129.5427  132.4650   61.6694 H   0  0  0  0  0  0  0  0  0  0  0  0
  130.6194  131.6105   60.4690 H   0  0  0  0  0  0  0  0  0  0  0  0
  128.8344  133.8807   60.0640 H   0  0  0  0  0  0  0  0  0  0  0  0
  130.0796  133.1803   58.9752 H   0  0  0  0  0  0  0  0  0  0  0  0
  128.4105  132.5164   58.9752 H   0  0  0  0  0  0  0  0  0  0  0  0
  126.7505  131.3993   60.5435 H   0  0  0  0  0  0  0  0  0  0  0  0
  127.7270  131.3072   59.0049 H   0  0  0  0  0  0  0  0  0  0  0  0
  126.6869  128.9168   60.5975 H   0  0  0  0  0  0  0  0  0  0  0  0
  125.9817  129.5558   59.0740 H   0  0  0  0  0  0  0  0  0  0  0  0
  127.6368  128.8578   59.0740 H   0  0  0  0  0  0  0  0  0  0  0  0
  130.5839  128.9193   60.0672 H   0  0  0  0  0  0  0  0  0  0  0  0
  131.2172  126.9171   61.3693 H   0  0  0  0  0  0  0  0  0  0  0  0
  127.5051  125.0288   63.4057 H   0  0  0  0  0  0  0  0  0  0  0  0
  127.0321  122.7517   62.4695 H   0  0  0  0  0  0  0  0  0  0  0  0
  1  2  1  0
  2  3  1  0
  3  4  1  0
  4  5  1  0
  3  6  1  0
  6  7  2  0
  7  8  1  0
  8  9  2  0
  9 10  1  0
 10 11  2  0
 10 12  1  0
 12 13  1  0
 13 14  2  0
 14 15  1  0
 15 16  1  0
 16 17  1  0
 17 18  1  0
 16 19  1  0
 19 20  1  0
 15 21  2  0
 21 22  1  0
 22 23  2  0
 23 24  1  0
 24 25  1  0
 25 26  1  0
 26 27  2  0
 26 28  1  0
 28 29  2  0
 29 30  1  0
 30 31  2  0
 31 32  1  0
 32 33  1  0
 33 34  2  0
 34 35  1  0
 35 36  1  0
 35 37  1  0
 35 38  1  0
 38 39  1  0
 39 40  1  0
 39 41  1  0
 39 42  1  0
 42 43  1  0
 42 44  1  0
 42 45  1  0
 45 46  1  0
 46 47  1  0
 46 48  1  0
 46 49  1  0
 49 50  1  0
 49 51  1  0
 49 52  1  0
 52 53  1  0
 52 54  1  0
 52 55  1  0
 55 56  1  0
 55 57  1  0
 55 58  1  0
 34 59  1  0
 59 60  1  0
 11  6  1  0
 23 13  1  0
 29 24  1  0
 60 32  2  0
 24  9  1  0
 60 28  1  0
  1 61  1  0
  1 62  1  0
  1 63  1  0
  2 64  1  0
  2 65  1  0
  4 66  1  0
  4 67  1  0
  5 68  1  0
  5 69  1  0
  5 70  1  0
  7 71  1  0
  8 72  1  0
 11 73  1  0
 14 74  1  0
 17 75  1  0
 17 76  1  0
 18 77  1  0
 18 78  1  0
 18 79  1  0
 19 80  1  0
 19 81  1  0
 20 82  1  0
 20 83  1  0
 20 84  1  0
 21 85  1  0
 22 86  1  0
 30 87  1  0
 31 88  1  0
M  CHG  1  59  -1
M  END
>  <Binding energies>  (1) 
[-1.82]

>  <Ligand effiencies>  (1) 
[-0.030333333333333334]

>  <Interactions>  (1) 
["V-A:ILE:369:CG2:3237, V-A:ASP:366:CA:3210, V-A:GLY:454:CA:4049, V-B:GLU:543:C:9874, V-A:ILE:369:CB:3236, V-A:GLU:543:C:4902, V-B:HIS:456:CD2:9039, V-B:GLU:543:CB:9878, V-B:ALA:541:CB:9864, V-B:TYR:539:CE2:9848, V-A:LEU:475:CG:4257, V-B:GLU:543:CG:9879, V-A:GLY:544:C:4912, V-B:TYR:539:C:9839, V-A:ASP:366:CG:3213, V-B:TYR:539:CZ:9849, H-B:ALA:541:N:9863, V-A:LEU:475:CD1:4258, V-B:TYR:539:CB:9843, V-A:GLU:543:CD:4908, V-B:HIS:456:CE1:9041, H-A:GLY:454:N:4050, V-A:SER:385:C:3405, V-A:HIS:456:CE1:4070, V-A:ILE:369:CD1:3239, V-B:GLY:544:C:9884, V-A:ASP:366:C:3208, V-B:TYR:539:CD2:9846, V-B:GLY:544:CA:9886, V-A:SER:385:CB:3409, H-A:SER:385:OG:3410, V-B:GLU:543:CD:9880, V-B:HIS:456:CG:9037, V-A:TYR:531:CZ:4794, V-A:TYR:539:C:4867, V-A:ILE:369:CG1:3238, V-A:ASP:366:CB:3212, V-A:LEU:475:CD2:4259, H-A:ARG:545:NH2:4928, V-B:TYR:539:CG:9844, V-A:GLU:543:CB:4906, H-A:HIS:383:HE2:3395, V-A:PRO:540:N:4884, V-A:PRO:540:CA:4883, V-A:SER:385:CA:3407"]

$$$$
ZINC587116799
     RDKit          3D

 48 52  0  0  0  0  0  0  0  0999 V2000
  129.4590  122.2200   65.2830 C   0  0  0  0  0  0  0  0  0  0  0  0
  130.5070  123.1080   64.6410 C   0  0  0  0  0  0  0  0  0  0  0  0
  131.3060  122.4960   63.7850 N   0  0  0  0  0  0  0  0  0  0  0  0
  132.1970  123.2870   63.2390 C   0  0  0  0  0  0  0  0  0  0  0  0
  133.2230  122.8200   62.2160 C   0  0  2  0  0  0  0  0  0  0  0  0
  134.3650  123.8500   62.0930 C   0  0  0  0  0  0  0  0  0  0  0  0
  132.5480  122.4920   60.8580 C   0  0  0  0  0  0  0  0  0  0  0  0
  131.4710  121.5100   60.9940 N   0  0  0  0  0  0  0  0  0  0  0  0
  131.7700  120.2050   60.9210 N   0  0  0  0  0  0  0  0  0  0  0  0
  130.6320  119.5640   61.0910 C   0  0  0  0  0  0  0  0  0  0  0  0
  130.5670  118.0470   61.0730 C   0  0  0  0  0  0  0  0  0  0  0  0
  130.9760  117.5700   59.8980 F   0  0  0  0  0  0  0  0  0  0  0  0
  131.3550  117.5290   62.0140 F   0  0  0  0  0  0  0  0  0  0  0  0
  129.3320  117.5850   61.2850 F   0  0  0  0  0  0  0  0  0  0  0  0
  129.5870  120.4780   61.2820 C   0  0  0  0  0  0  0  0  0  0  0  0
  130.1360  121.7480   61.2210 C   0  0  0  0  0  0  0  0  0  0  0  0
  129.5360  123.1350   61.3490 C   0  0  0  0  0  0  0  0  0  0  0  0
  128.2570  123.4730   60.6290 C   0  0  0  0  0  0  0  0  0  0  0  0
  128.2760  123.3630   62.1440 C   0  0  0  0  0  0  0  0  0  0  0  0
  132.0690  124.9260   63.7810 S   0  0  0  0  0  0  0  0  0  0  0  0
  130.7430  124.4800   64.8270 C   0  0  0  0  0  0  0  0  0  0  0  0
  130.0970  125.4710   65.7040 C   0  0  0  0  0  0  0  0  0  0  0  0
  130.1250  125.3570   67.0170 N   0  0  0  0  0  0  0  0  0  0  0  0
  129.4510  126.4520   67.4510 C   0  0  0  0  0  0  0  0  0  0  0  0
  129.1370  126.9060   68.7420 C   0  0  0  0  0  0  0  0  0  0  0  0
  129.5110  126.2320   69.8540 F   0  0  0  0  0  0  0  0  0  0  0  0
  128.4140  128.0980   68.8290 C   0  0  0  0  0  0  0  0  0  0  0  0
  128.0120  128.8200   67.7500 N   0  0  0  0  0  0  0  0  0  0  0  0
  128.3220  128.3760   66.5040 C   0  0  0  0  0  0  0  0  0  0  0  0
  127.7580  129.3920   64.9950 Br  0  0  0  0  0  0  0  0  0  0  0  0
  129.0470  127.1840   66.3270 C   0  0  0  0  0  0  0  0  0  0  0  0
  129.4800  126.5330   65.2190 N   0  0  0  0  0  0  0  0  0  0  0  0
  129.5406  122.2891   66.3778 H   0  0  0  0  0  0  0  0  0  0  0  0
  128.4574  122.5486   64.9685 H   0  0  0  0  0  0  0  0  0  0  0  0
  129.6187  121.1781   64.9685 H   0  0  0  0  0  0  0  0  0  0  0  0
  133.6771  121.8806   62.5644 H   0  0  0  0  0  0  0  0  0  0  0  0
  134.6978  124.1502   63.0976 H   0  0  0  0  0  0  0  0  0  0  0  0
  135.2073  123.4002   61.5469 H   0  0  0  0  0  0  0  0  0  0  0  0
  134.0042  124.7341   61.5469 H   0  0  0  0  0  0  0  0  0  0  0  0
  132.1302  123.4189   60.4380 H   0  0  0  0  0  0  0  0  0  0  0  0
  133.3145  122.0604   60.1976 H   0  0  0  0  0  0  0  0  0  0  0  0
  128.5279  120.2324   61.4492 H   0  0  0  0  0  0  0  0  0  0  0  0
  130.5506  123.5590   61.3765 H   0  0  0  0  0  0  0  0  0  0  0  0
  128.1381  124.4559   60.1497 H   0  0  0  0  0  0  0  0  0  0  0  0
  127.6715  123.0094   59.8213 H   0  0  0  0  0  0  0  0  0  0  0  0
  128.1712  124.2661   62.7632 H   0  0  0  0  0  0  0  0  0  0  0  0
  127.7105  122.7867   62.8910 H   0  0  0  0  0  0  0  0  0  0  0  0
  128.1548  128.4744   69.8296 H   0  0  0  0  0  0  0  0  0  0  0  0
  1  2  1  0
  2  3  1  0
  3  4  2  0
  4  5  1  0
  5  6  1  0
  5  7  1  0
  7  8  1  0
  8  9  1  0
  9 10  2  0
 10 11  1  0
 11 12  1  0
 11 13  1  0
 11 14  1  0
 10 15  1  0
 15 16  2  0
 16 17  1  0
 17 18  1  0
 18 19  1  0
  4 20  1  0
 20 21  1  0
 21 22  1  0
 22 23  2  0
 23 24  1  0
 24 25  2  0
 25 26  1  0
 25 27  1  0
 27 28  2  0
 28 29  1  0
 29 30  1  0
 29 31  2  0
 31 32  1  0
 21  2  2  0
 32 22  1  0
 16  8  1  0
 19 17  1  0
 31 24  1  0
  1 33  1  0
  1 34  1  0
  1 35  1  0
  5 36  1  1
  6 37  1  0
  6 38  1  0
  6 39  1  0
  7 40  1  0
  7 41  1  0
 15 42  1  0
 17 43  1  0
 18 44  1  0
 18 45  1  0
 19 46  1  0
 19 47  1  0
 27 48  1  0
M  CHG  1  32  -1
M  END
>  <Binding energies>  (1) 
[-6.37]

>  <Ligand effiencies>  (1) 
[-0.1990625]

>  <Interactions>  (1) 
["V-B:GLU:543:C:9874, V-B:GLU:543:CB:9878, V-B:ALA:541:CB:9864, V-B:TYR:539:CE2:9848, V-A:TYR:484:CE2:4346, V-A:LEU:475:CG:4257, V-B:GLU:543:CG:9879, V-B:TYR:539:C:9839, V-A:HIS:456:CD2:4068, V-A:LEU:475:CD1:4258, V-B:TYR:539:CB:9843, V-A:HIS:383:CE1:3393, V-A:TYR:484:CZ:4347, V-A:GLU:543:CD:4908, V-B:HIS:456:CE1:9041, V-A:ILE:369:CD1:3239, V-A:HIS:456:CE1:4070, V-A:PRO:482:CB:4326, V-B:TYR:539:CD2:9846, V-A:GLU:543:CG:4907, V-A:SER:385:CB:3409, H-A:SER:385:OG:3410, V-B:GLU:543:CD:9880, V-A:LEU:475:CD2:4259, V-A:GLU:543:CB:4906, V-A:HIS:383:CD2:3392, V-A:PRO:482:CG:4327, V-B:PRO:540:C:9853, V-A:HIS:383:NE2:3394, H-A:TYR:484:OH:4348"]

$$$$
ZINC587136275
     RDKit          3D

 24 26  0  0  0  0  0  0  0  0999 V2000
  128.7250  121.8800   61.5020 F   0  0  0  0  0  0  0  0  0  0  0  0
  128.7980  122.7170   60.4390 C   0  0  0  0  0  0  0  0  0  0  0  0
  127.9680  122.4660   59.3460 C   0  0  0  0  0  0  0  0  0  0  0  0
  128.0000  123.2940   58.2260 C   0  0  0  0  0  0  0  0  0  0  0  0
  126.8450  122.9060   56.7580 Br  0  0  0  0  0  0  0  0  0  0  0  0
  128.8730  124.3850   58.1990 C   0  0  0  0  0  0  0  0  0  0  0  0
  128.9490  125.4410   56.8320 Cl  0  0  0  0  0  0  0  0  0  0  0  0
  129.7020  124.6360   59.2930 C   0  0  0  0  0  0  0  0  0  0  0  0
  129.6820  123.8120   60.4300 C   0  0  0  0  0  0  0  0  0  0  0  0
  130.5980  124.1270   61.5830 C   0  0  0  0  0  0  0  0  0  0  0  0
  131.9120  124.1190   61.5230 N   0  0  0  0  0  0  0  0  0  0  0  0
  132.3390  124.4600   62.7800 C   0  0  0  0  0  0  0  0  0  0  0  0
  133.6340  124.6080   63.3060 C   0  0  0  0  0  0  0  0  0  0  0  0
  135.0180  124.3470   62.3060 Cl  0  0  0  0  0  0  0  0  0  0  0  0
  133.8270  124.9590   64.6030 N   0  0  0  0  0  0  0  0  0  0  0  0
  132.7480  125.1680   65.4020 C   0  0  0  0  0  0  0  0  0  0  0  0
  131.4210  125.0480   64.9840 C   0  0  0  0  0  0  0  0  0  0  0  0
  129.9620  125.3580   66.1670 Br  0  0  0  0  0  0  0  0  0  0  0  0
  131.2410  124.6860   63.6440 C   0  0  0  0  0  0  0  0  0  0  0  0
  130.1460  124.4640   62.8440 N   0  0  0  0  0  0  0  0  0  0  0  0
  127.2820  121.6064   59.3688 H   0  0  0  0  0  0  0  0  0  0  0  0
  130.3855  125.4974   59.2642 H   0  0  0  0  0  0  0  0  0  0  0  0
  132.9323  125.4509   66.4489 H   0  0  0  0  0  0  0  0  0  0  0  0
  129.1670  124.5240   63.0860 H   0  0  0  0  0  0  0  0  0  0  0  0
  1  2  1  0
  2  3  2  0
  3  4  1  0
  4  5  1  0
  4  6  2  0
  6  7  1  0
  6  8  1  0
  8  9  2  0
  9 10  1  0
 10 11  2  0
 11 12  1  0
 12 13  2  0
 13 14  1  0
 13 15  1  0
 15 16  2  0
 16 17  1  0
 17 18  1  0
 17 19  2  0
 19 20  1  0
  9  2  1  0
 20 10  1  0
 19 12  1  0
  3 21  1  0
  8 22  1  0
 16 23  1  0
 20 24  1  0
M  END
>  <Binding energies>  (1) 
[-6.59]

>  <Ligand effiencies>  (1) 
[-0.3138095238095238]

>  <Interactions>  (1) 
["V-B:PRO:540:CA:9855, V-B:GLU:543:CB:9878, V-B:ALA:541:CB:9864, H-A:ARG:545:NH1:4927, V-B:TYR:539:CE2:9848, V-B:GLU:543:CG:9879, V-B:TYR:539:C:9839, V-B:TYR:539:CZ:9849, H-B:GLU:543:OE1:9881, V-B:PRO:540:CB:9857, H-A:GLY:454:N:4050, V-A:GLY:453:C:4042, V-B:PRO:540:N:9856, V-A:ILE:369:CD1:3239, V-B:TYR:539:CD2:9846, V-B:GLU:543:CD:9880, H-A:ARG:545:NH2:4928, V-A:ARG:545:CZ:4926, V-A:GLY:453:CA:4044, H-A:ARG:545:NE:4924, V-B:PRO:540:C:9853, H-A:TYR:484:OH:4348"]

$$$$
ZINC587198962
     RDKit          3D

 36 37  0  0  0  0  0  0  0  0999 V2000
  129.1880  126.8720   65.2050 C   0  0  0  0  0  0  0  0  0  0  0  0
  128.7260  127.1060   66.6600 C   0  0  0  0  0  0  0  0  0  0  0  0
  128.0590  128.4950   66.7630 C   0  0  0  0  0  0  0  0  0  0  0  0
  129.8810  126.9360   67.7040 C   0  0  1  0  0  0  0  0  0  0  0  0
  129.4640  127.2480   69.1260 C   0  0  0  0  0  0  0  0  0  0  0  0
  130.1380  128.0020   69.9710 N   0  0  0  0  0  0  0  0  0  0  0  0
  129.3780  128.0260   71.0780 C   0  0  0  0  0  0  0  0  0  0  0  0
  129.6230  128.7030   72.3370 C   0  0  0  0  0  0  0  0  0  0  0  0
  130.5870  129.3960   72.6550 O   0  0  0  0  0  0  0  0  0  0  0  0
  128.5720  128.4590   73.1860 N   0  0  0  0  0  0  0  0  0  0  0  0
  127.4380  127.6970   72.9380 C   0  0  0  0  0  0  0  0  0  0  0  0
  126.5530  127.6140   73.9400 N   0  0  0  0  0  0  0  0  0  0  0  0
  127.2290  127.0960   71.8110 N   0  0  0  0  0  0  0  0  0  0  0  0
  128.2350  127.2950   70.9140 C   0  0  0  0  0  0  0  0  0  0  0  0
  128.3030  126.8050   69.6500 N   0  0  0  0  0  0  0  0  0  0  0  0
  130.5070  125.5940   67.6410 N   0  0  0  0  0  0  0  0  0  0  0  0
  131.6810  125.4720   66.7740 C   0  0  0  0  0  0  0  0  0  0  0  0
  129.5660  124.5040   67.3990 C   0  0  0  0  0  0  0  0  0  0  0  0
  130.1693  126.3750   65.2073 H   0  0  0  0  0  0  0  0  0  0  0  0
  128.4561  126.2359   64.6857 H   0  0  0  0  0  0  0  0  0  0  0  0
  129.2677  127.8384   64.6857 H   0  0  0  0  0  0  0  0  0  0  0  0
  127.9906  126.3284   66.9139 H   0  0  0  0  0  0  0  0  0  0  0  0
  127.9306  128.7624   67.8222 H   0  0  0  0  0  0  0  0  0  0  0  0
  128.6953  129.2448   66.2701 H   0  0  0  0  0  0  0  0  0  0  0  0
  127.0760  128.4672   66.2701 H   0  0  0  0  0  0  0  0  0  0  0  0
  130.6307  127.6862   67.4121 H   0  0  0  0  0  0  0  0  0  0  0  0
  128.6490  128.8940   74.0940 H   0  0  0  0  0  0  0  0  0  0  0  0
  125.7600  126.9930   73.8650 H   0  0  0  0  0  0  0  0  0  0  0  0
  126.6630  128.1710   74.7740 H   0  0  0  0  0  0  0  0  0  0  0  0
  127.6200  126.2260   69.1840 H   0  0  0  0  0  0  0  0  0  0  0  0
  132.5856  125.3780   67.3928 H   0  0  0  0  0  0  0  0  0  0  0  0
  131.5768  124.5799   66.1390 H   0  0  0  0  0  0  0  0  0  0  0  0
  131.7624  126.3665   66.1390 H   0  0  0  0  0  0  0  0  0  0  0  0
  129.2174  124.1002   68.3610 H   0  0  0  0  0  0  0  0  0  0  0  0
  128.7060  124.8823   66.8269 H   0  0  0  0  0  0  0  0  0  0  0  0
  130.0657  123.7084   66.8269 H   0  0  0  0  0  0  0  0  0  0  0  0
  1  2  1  0
  2  3  1  0
  2  4  1  0
  4  5  1  0
  5  6  2  0
  6  7  1  0
  7  8  1  0
  8  9  2  0
  8 10  1  0
 10 11  1  0
 11 12  1  0
 11 13  2  0
 13 14  1  0
 14 15  1  0
  4 16  1  0
 16 17  1  0
 16 18  1  0
 15  5  1  0
 14  7  2  0
  1 19  1  0
  1 20  1  0
  1 21  1  0
  2 22  1  0
  3 23  1  0
  3 24  1  0
  3 25  1  0
  4 26  1  6
 10 27  1  0
 12 28  1  0
 12 29  1  0
 15 30  1  0
 17 31  1  0
 17 32  1  0
 17 33  1  0
 18 34  1  0
 18 35  1  0
 18 36  1  0
M  END
>  <Binding energies>  (1) 
[-4.86]

>  <Ligand effiencies>  (1) 
[-0.22090909090909092]

>  <Interactions>  (1) 
["V-B:GLU:543:C:9874, V-B:HIS:456:CD2:9039, H-B:GLU:543:O:9875, V-B:GLU:543:CB:9878, V-B:HIS:456:CB:9036, V-A:TYR:484:CE2:4346, V-B:GLU:543:CG:9879, V-B:LYS:547:CE:9922, V-A:GLU:543:CD:4908, V-A:TYR:484:CZ:4347, V-B:HIS:456:CE1:9041, V-B:GLU:543:CA:9876, V-A:HIS:456:CE1:4070, V-A:GLU:543:CG:4907, V-B:GLU:543:CD:9880, V-B:HIS:456:CG:9037, H-A:LYS:547:NZ:4951, V-A:GLU:543:CB:4906, H-B:GLY:544:O:9885, H-A:TYR:484:OH:4348"]

$$$$
ZINC587198962-again1
     RDKit          3D

 36 37  0  0  0  0  0  0  0  0999 V2000
  130.3870  125.6830   65.8860 C   0  0  0  0  0  0  0  0  0  0  0  0
  130.0450  125.8420   67.3810 C   0  0  0  0  0  0  0  0  0  0  0  0
  129.8320  124.4580   68.0360 C   0  0  0  0  0  0  0  0  0  0  0  0
  128.8690  126.8490   67.6090 C   0  0  1  0  0  0  0  0  0  0  0  0
  128.6280  127.1580   69.0920 C   0  0  0  0  0  0  0  0  0  0  0  0
  127.4900  126.8780   69.7000 N   0  0  0  0  0  0  0  0  0  0  0  0
  127.7010  127.3030   70.9690 C   0  0  0  0  0  0  0  0  0  0  0  0
  126.8480  127.2510   72.0020 N   0  0  0  0  0  0  0  0  0  0  0  0
  127.3230  127.7520   73.1760 C   0  0  0  0  0  0  0  0  0  0  0  0
  126.4870  127.7270   74.2870 N   0  0  0  0  0  0  0  0  0  0  0  0
  128.5600  128.2680   73.3200 N   0  0  0  0  0  0  0  0  0  0  0  0
  129.4330  128.3300   72.2960 C   0  0  0  0  0  0  0  0  0  0  0  0
  130.5780  128.8310   72.5240 O   0  0  0  0  0  0  0  0  0  0  0  0
  129.0040  127.8280   71.0500 C   0  0  0  0  0  0  0  0  0  0  0  0
  129.5760  127.7140   69.8200 N   0  0  0  0  0  0  0  0  0  0  0  0
  129.0470  128.1770   66.8040 N   0  0  0  0  0  0  0  0  0  0  0  0
  128.5550  128.1150   65.3410 C   0  0  0  0  0  0  0  0  0  0  0  0
  128.3870  129.3890   67.5050 C   0  0  0  0  0  0  0  0  0  0  0  0
  131.3802  125.2213   65.7842 H   0  0  0  0  0  0  0  0  0  0  0  0
  129.6338  125.0427   65.4036 H   0  0  0  0  0  0  0  0  0  0  0  0
  130.3910  126.6716   65.4036 H   0  0  0  0  0  0  0  0  0  0  0  0
  130.9033  126.2984   67.8957 H   0  0  0  0  0  0  0  0  0  0  0  0
  129.8483  124.5640   69.1308 H   0  0  0  0  0  0  0  0  0  0  0  0
  128.8604  124.0492   67.7217 H   0  0  0  0  0  0  0  0  0  0  0  0
  130.6358  123.7760   67.7217 H   0  0  0  0  0  0  0  0  0  0  0  0
  127.9762  126.3352   67.2231 H   0  0  0  0  0  0  0  0  0  0  0  0
  125.6210  127.2100   74.2350 H   0  0  0  0  0  0  0  0  0  0  0  0
  126.7550  128.2190   75.1250 H   0  0  0  0  0  0  0  0  0  0  0  0
  128.8450  128.6220   74.2200 H   0  0  0  0  0  0  0  0  0  0  0  0
  130.0400  128.3610   66.7760 H   0  0  0  0  0  0  0  0  0  0  0  0
  127.4637  127.9775   65.3267 H   0  0  0  0  0  0  0  0  0  0  0  0
  128.8132  129.0528   64.8273 H   0  0  0  0  0  0  0  0  0  0  0  0
  129.0378  127.2706   64.8273 H   0  0  0  0  0  0  0  0  0  0  0  0
  128.4553  129.2636   68.5957 H   0  0  0  0  0  0  0  0  0  0  0  0
  128.9071  130.3119   67.2087 H   0  0  0  0  0  0  0  0  0  0  0  0
  127.3296  129.4528   67.2087 H   0  0  0  0  0  0  0  0  0  0  0  0
  1  2  1  0
  2  3  1  0
  2  4  1  0
  4  5  1  0
  5  6  1  0
  6  7  2  0
  7  8  1  0
  8  9  2  0
  9 10  1  0
  9 11  1  0
 11 12  1  0
 12 13  1  0
 12 14  2  0
 14 15  1  0
  4 16  1  0
 16 17  1  0
 16 18  1  0
 15  5  2  0
 14  7  1  0
  1 19  1  0
  1 20  1  0
  1 21  1  0
  2 22  1  0
  3 23  1  0
  3 24  1  0
  3 25  1  0
  4 26  1  6
 10 27  1  0
 10 28  1  0
 11 29  1  0
 16 30  1  0
 17 31  1  0
 17 32  1  0
 17 33  1  0
 18 34  1  0
 18 35  1  0
 18 36  1  0
M  CHG  2  13  -1  16   1
M  END
>  <Binding energies>  (1) 
[-5.5]

>  <Ligand effiencies>  (1) 
[-0.25]

>  <Interactions>  (1) 
["V-A:GLU:543:CA:4904, V-B:HIS:456:CD2:9039, H-A:GLU:543:OE2:4910, V-B:GLU:543:C:9874, V-B:GLU:543:CB:9878, V-B:HIS:456:CB:9036, V-A:TYR:484:CE2:4346, V-B:GLU:543:CG:9879, H-B:HIS:456:ND1:9038, V-B:LYS:547:CE:9922, V-A:GLU:543:CD:4908, V-A:TYR:484:CZ:4347, V-B:HIS:456:CE1:9041, V-B:GLU:543:CA:9876, V-A:TYR:484:CD2:4344, V-A:HIS:456:CE1:4070, V-B:TYR:484:CZ:9318, V-B:GLY:544:C:9884, V-A:GLU:543:CG:4907, V-B:GLU:543:CD:9880, V-B:HIS:456:CG:9037, V-B:LYS:547:CD:9921, H-A:LYS:547:NZ:4951, H-A:GLU:543:OE1:4909, V-A:GLU:543:CB:4906, H-B:GLY:544:O:9885"]

$$$$
ZINC587209318
     RDKit          3D

140150  0  0  0  0  0  0  0  0999 V2000
  131.9270  128.3830   69.6430 C   0  0  0  0  0  0  0  0  0  0  0  0
  130.8310  127.6000   69.5390 C   0  0  0  0  0  0  0  0  0  0  0  0
  130.5820  126.6190   68.3830 C   0  0  2  0  0  0  0  0  0  0  0  0
  131.6350  126.5650   67.4350 O   0  0  0  0  0  0  0  0  0  0  0  0
  129.2280  126.9510   67.7150 C   0  0  2  0  0  0  0  0  0  0  0  0
  129.3240  128.2410   67.0850 O   0  0  0  0  0  0  0  0  0  0  0  0
  128.1750  128.6300   66.3670 C   0  0  1  0  0  0  0  0  0  0  0  0
  126.9880  128.7380   67.3440 C   0  0  0  0  0  0  0  0  0  0  0  0
  126.7930  127.4290   68.1300 C   0  0  0  0  0  0  0  0  0  0  0  0
  128.1050  126.9640   68.7760 C   0  0  2  0  0  0  0  0  0  0  0  0
  128.4550  127.8990   69.7970 O   0  0  0  0  0  0  0  0  0  0  0  0
  129.6450  127.5850   70.5300 C   0  0  2  0  0  0  0  0  0  0  0  0
  129.7690  128.5430   71.7520 C   0  0  2  0  0  0  0  0  0  0  0  0
  131.0260  129.1960   71.7070 O   0  0  0  0  0  0  0  0  0  0  0  0
  129.6160  127.8010   73.1110 C   0  0  0  0  0  0  0  0  0  0  0  0
  128.8820  128.5360   74.2770 C   0  0  2  0  0  0  0  0  0  0  0  0
  128.8170  127.6570   75.5440 C   0  0  0  0  0  0  0  0  0  0  0  0
  127.5380  129.1970   73.8010 C   0  0  2  0  0  0  0  0  0  0  0  0
  127.6180  130.6430   73.8090 O   0  0  0  0  0  0  0  0  0  0  0  0
  127.4770  131.3550   75.0420 C   0  0  2  0  0  0  0  0  0  0  0  0
  127.2640  132.8410   74.6720 C   0  0  0  0  0  0  0  0  0  0  0  0
  128.5150  133.4590   74.0320 C   0  0  0  0  0  0  0  0  0  0  0  0
  129.7090  133.2770   74.9640 C   0  0  0  0  0  0  0  0  0  0  0  0
  129.8430  131.8030   75.3650 C   0  0  0  0  0  0  0  0  0  0  0  0
  128.6240  131.2310   75.8600 O   0  0  0  0  0  0  0  0  0  0  0  0
  126.2800  130.8320   75.8760 C   0  0  0  0  0  0  0  0  0  0  0  0
  126.1840  129.3000   75.8900 C   0  0  0  0  0  0  0  0  0  0  0  0
  126.1830  128.8060   74.4480 C   0  0  2  0  0  0  0  0  0  0  0  0
  125.7200  127.3480   74.2570 C   0  0  0  0  0  0  0  0  0  0  0  0
  128.4470  129.9660   65.6520 C   0  0  0  0  0  0  0  0  0  0  0  0
  128.4680  129.5500   64.1840 C   0  0  0  0  0  0  0  0  0  0  0  0
  128.7040  128.0420   64.2190 C   0  0  2  0  0  0  0  0  0  0  0  0
  128.2830  127.2530   62.9890 C   0  0  0  0  0  0  0  0  0  0  0  0
  128.7560  126.0480   62.6130 C   0  0  0  0  0  0  0  0  0  0  0  0
  128.3310  125.2410   61.3890 C   0  0  2  0  0  0  0  0  0  0  0  0
  126.8000  125.1900   61.1690 C   0  0  0  0  0  0  0  0  0  0  0  0
  128.9720  123.8220   61.2910 C   0  0  2  0  0  0  0  0  0  0  0  0
  128.8800  122.9520   62.5660 C   0  0  0  0  0  0  0  0  0  0  0  0
  130.0180  123.2940   63.5040 C   0  0  0  0  0  0  0  0  0  0  0  0
  129.8170  123.0090   64.9800 C   0  0  0  0  0  0  0  0  0  0  0  0
  131.1870  123.7440   63.0160 C   0  0  0  0  0  0  0  0  0  0  0  0
  131.4470  123.9950   61.5310 C   0  0  1  0  0  0  0  0  0  0  0  0
  131.8840  125.3370   61.4420 O   0  0  0  0  0  0  0  0  0  0  0  0
  132.3820  125.8310   60.1830 C   0  0  2  0  0  0  0  0  0  0  0  0
  131.2270  126.1770   59.2080 C   0  0  0  0  0  0  0  0  0  0  0  0
  130.9300  127.6670   59.1090 C   0  0  0  0  0  0  0  0  0  0  0  0
  129.7820  128.2060   59.6890 C   0  0  0  0  0  0  0  0  0  0  0  0
  129.5100  129.5780   59.5780 C   0  0  0  0  0  0  0  0  0  0  0  0
  130.4630  130.3670   58.8490 C   0  0  0  0  0  0  0  0  0  0  0  0
  130.2520  131.7740   58.6880 C   0  0  0  0  0  0  0  0  0  0  0  0
  131.2140  132.5010   57.9710 C   0  0  0  0  0  0  0  0  0  0  0  0
  132.3390  131.8880   57.4270 C   0  0  0  0  0  0  0  0  0  0  0  0
  132.5490  130.5230   57.5770 C   0  0  0  0  0  0  0  0  0  0  0  0
  131.6150  129.7380   58.2900 C   0  0  0  0  0  0  0  0  0  0  0  0
  131.8360  128.4040   58.4220 N   0  0  0  0  0  0  0  0  0  0  0  0
  129.0540  132.4650   59.2510 C   0  0  0  0  0  0  0  0  0  0  0  0
  128.8780  133.6780   59.1000 O   0  0  0  0  0  0  0  0  0  0  0  0
  128.0820  131.6190   60.0090 C   0  0  0  0  0  0  0  0  0  0  0  0
  126.9380  132.2150   60.5670 C   0  0  0  0  0  0  0  0  0  0  0  0
  126.0130  131.4610   61.2810 C   0  0  0  0  0  0  0  0  0  0  0  0
  126.2160  130.0990   61.4500 C   0  0  0  0  0  0  0  0  0  0  0  0
  127.3430  129.4910   60.9040 C   0  0  0  0  0  0  0  0  0  0  0  0
  128.2920  130.2300   60.1760 C   0  0  0  0  0  0  0  0  0  0  0  0
  133.4560  124.8960   59.5870 C   0  0  0  0  0  0  0  0  0  0  0  0
  133.0110  123.4340   59.6090 C   0  0  0  0  0  0  0  0  0  0  0  0
  132.5590  123.0440   61.0240 C   0  0  2  0  0  0  0  0  0  0  0  0
  132.1850  121.6770   61.0700 O   0  0  0  0  0  0  0  0  0  0  0  0
  130.2940  123.7820   60.7270 O   0  0  0  0  0  0  0  0  0  0  0  0
  127.8740  127.7440   65.3250 O   0  0  0  0  0  0  0  0  0  0  0  0
  132.0378  129.0629   70.5006 H   0  0  0  0  0  0  0  0  0  0  0  0
  132.7086  128.3406   68.8701 H   0  0  0  0  0  0  0  0  0  0  0  0
  130.5462  125.6080   68.8150 H   0  0  0  0  0  0  0  0  0  0  0  0
  131.2650  126.7150   66.5610 H   0  0  0  0  0  0  0  0  0  0  0  0
  128.9891  126.1867   66.9609 H   0  0  0  0  0  0  0  0  0  0  0  0
  127.1801  129.5569   68.0529 H   0  0  0  0  0  0  0  0  0  0  0  0
  126.0751  128.9344   66.7626 H   0  0  0  0  0  0  0  0  0  0  0  0
  126.0440  127.5932   68.9187 H   0  0  0  0  0  0  0  0  0  0  0  0
  126.4569  126.6507   67.4291 H   0  0  0  0  0  0  0  0  0  0  0  0
  127.9805  125.9541   69.1938 H   0  0  0  0  0  0  0  0  0  0  0  0
  129.6256  126.5770   70.9700 H   0  0  0  0  0  0  0  0  0  0  0  0
  128.9489  129.2731   71.6858 H   0  0  0  0  0  0  0  0  0  0  0  0
  130.9460  130.0410   72.1550 H   0  0  0  0  0  0  0  0  0  0  0  0
  129.0636  126.8704   72.9136 H   0  0  0  0  0  0  0  0  0  0  0  0
  130.6479  127.6810   73.4726 H   0  0  0  0  0  0  0  0  0  0  0  0
  129.4795  129.4025   74.5968 H   0  0  0  0  0  0  0  0  0  0  0  0
  128.8643  128.2972   76.4372 H   0  0  0  0  0  0  0  0  0  0  0  0
  127.8745  127.0899   75.5489 H   0  0  0  0  0  0  0  0  0  0  0  0
  129.6659  126.9574   75.5489 H   0  0  0  0  0  0  0  0  0  0  0  0
  127.4867  128.7467   72.7987 H   0  0  0  0  0  0  0  0  0  0  0  0
  126.4283  132.9136   73.9605 H   0  0  0  0  0  0  0  0  0  0  0  0
  127.0473  133.3941   75.5978 H   0  0  0  0  0  0  0  0  0  0  0  0
  128.7198  132.9608   73.0729 H   0  0  0  0  0  0  0  0  0  0  0  0
  128.3455  134.5322   73.8603 H   0  0  0  0  0  0  0  0  0  0  0  0
  130.6258  133.5988   74.4482 H   0  0  0  0  0  0  0  0  0  0  0  0
  129.5563  133.8843   75.8684 H   0  0  0  0  0  0  0  0  0  0  0  0
  130.1632  131.2299   74.4824 H   0  0  0  0  0  0  0  0  0  0  0  0
  130.5776  131.7558   76.1824 H   0  0  0  0  0  0  0  0  0  0  0  0
  126.3927  131.1858   76.9114 H   0  0  0  0  0  0  0  0  0  0  0  0
  125.3607  131.2155   75.4094 H   0  0  0  0  0  0  0  0  0  0  0  0
  127.0466  128.8784   76.4268 H   0  0  0  0  0  0  0  0  0  0  0  0
  125.2618  128.9832   76.3992 H   0  0  0  0  0  0  0  0  0  0  0  0
  125.3879  129.3184   73.8864 H   0  0  0  0  0  0  0  0  0  0  0  0
  125.5710  126.8788   75.2407 H   0  0  0  0  0  0  0  0  0  0  0  0
  124.7733  127.3343   73.6970 H   0  0  0  0  0  0  0  0  0  0  0  0
  126.4853  126.7906   73.6970 H   0  0  0  0  0  0  0  0  0  0  0  0
  127.6457  130.6935   65.8486 H   0  0  0  0  0  0  0  0  0  0  0  0
  129.3711  130.4627   65.9826 H   0  0  0  0  0  0  0  0  0  0  0  0
  127.5080  129.7824   63.7000 H   0  0  0  0  0  0  0  0  0  0  0  0
  129.2404  130.0817   63.6089 H   0  0  0  0  0  0  0  0  0  0  0  0
  129.7690  127.7719   64.2712 H   0  0  0  0  0  0  0  0  0  0  0  0
  127.5184  127.7099   62.3436 H   0  0  0  0  0  0  0  0  0  0  0  0
  129.5286  125.5996   63.2550 H   0  0  0  0  0  0  0  0  0  0  0  0
  128.7510  125.8203   60.5535 H   0  0  0  0  0  0  0  0  0  0  0  0
  126.2899  125.1730   62.1434 H   0  0  0  0  0  0  0  0  0  0  0  0
  126.4810  126.0780   60.6036 H   0  0  0  0  0  0  0  0  0  0  0  0
  126.5408  124.2827   60.6036 H   0  0  0  0  0  0  0  0  0  0  0  0
  128.3051  123.3481   60.5557 H   0  0  0  0  0  0  0  0  0  0  0  0
  127.9213  123.1434   63.0702 H   0  0  0  0  0  0  0  0  0  0  0  0
  128.9466  121.8902   62.2865 H   0  0  0  0  0  0  0  0  0  0  0  0
  130.3501  123.7649   65.5753 H   0  0  0  0  0  0  0  0  0  0  0  0
  128.7436  123.0453   65.2176 H   0  0  0  0  0  0  0  0  0  0  0  0
  130.2115  122.0101   65.2176 H   0  0  0  0  0  0  0  0  0  0  0  0
  132.0031  123.9430   63.7262 H   0  0  0  0  0  0  0  0  0  0  0  0
  132.9002  126.7834   60.3686 H   0  0  0  0  0  0  0  0  0  0  0  0
  131.4971  125.8102   58.2067 H   0  0  0  0  0  0  0  0  0  0  0  0
  130.3201  125.6958   59.6030 H   0  0  0  0  0  0  0  0  0  0  0  0
  129.0865  127.5525   60.2360 H   0  0  0  0  0  0  0  0  0  0  0  0
  131.0756  133.5838   57.8352 H   0  0  0  0  0  0  0  0  0  0  0  0
  133.0712  132.4921   56.8712 H   0  0  0  0  0  0  0  0  0  0  0  0
  133.4427  130.0530   57.1406 H   0  0  0  0  0  0  0  0  0  0  0  0
  126.7717  133.2946   60.4369 H   0  0  0  0  0  0  0  0  0  0  0  0
  125.1226  131.9433   61.7107 H   0  0  0  0  0  0  0  0  0  0  0  0
  125.4868  129.4999   62.0151 H   0  0  0  0  0  0  0  0  0  0  0  0
  127.4941  128.4106   61.0450 H   0  0  0  0  0  0  0  0  0  0  0  0
  133.6493  125.1938   58.5459 H   0  0  0  0  0  0  0  0  0  0  0  0
  134.3655  124.9859   60.1992 H   0  0  0  0  0  0  0  0  0  0  0  0
  132.1739  123.2974   58.9085 H   0  0  0  0  0  0  0  0  0  0  0  0
  133.8551  122.7950   59.3105 H   0  0  0  0  0  0  0  0  0  0  0  0
  133.4060  123.1622   61.7158 H   0  0  0  0  0  0  0  0  0  0  0  0
  131.2320  121.6210   60.9700 H   0  0  0  0  0  0  0  0  0  0  0  0
  1  2  2  0
  2  3  1  0
  3  4  1  0
  3  5  1  0
  5  6  1  0
  7  6  1  1
  7  8  1  0
  8  9  1  0
  9 10  1  0
 10 11  1  0
 11 12  1  0
 12 13  1  0
 13 14  1  0
 13 15  1  0
 15 16  1  0
 16 17  1  0
 16 18  1  0
 18 19  1  0
 20 19  1  6
 20 21  1  0
 21 22  1  0
 22 23  1  0
 23 24  1  0
 24 25  1  0
 20 26  1  0
 26 27  1  0
 27 28  1  0
 28 29  1  0
  7 30  1  0
 30 31  1  0
 31 32  1  0
 32 33  1  0
 33 34  2  0
 34 35  1  0
 35 36  1  0
 35 37  1  0
 37 38  1  0
 38 39  1  0
 39 40  1  0
 39 41  2  0
 41 42  1  0
 42 43  1  1
 43 44  1  0
 44 45  1  0
 45 46  1  0
 46 47  2  0
 47 48  1  0
 48 49  2  0
 49 50  1  0
 50 51  2  0
 51 52  1  0
 52 53  2  0
 53 54  1  0
 54 55  2  0
 50 56  1  0
 56 57  2  0
 56 58  1  0
 58 59  2  0
 59 60  1  0
 60 61  2  0
 61 62  1  0
 62 63  2  0
 44 64  1  0
 64 65  1  0
 65 66  1  0
 66 67  1  0
 42 68  1  0
 32 69  1  0
 12  2  1  0
 28 18  1  0
 68 37  1  0
 10  5  1  0
 25 20  1  0
 66 42  1  0
 69  7  1  0
 55 46  1  0
 63 58  1  0
 63 48  1  0
 54 49  1  0
  1 70  1  0
  1 71  1  0
  3 72  1  1
  4 73  1  0
  5 74  1  6
  8 75  1  0
  8 76  1  0
  9 77  1  0
  9 78  1  0
 10 79  1  1
 12 80  1  1
 13 81  1  6
 14 82  1  0
 15 83  1  0
 15 84  1  0
 16 85  1  1
 17 86  1  0
 17 87  1  0
 17 88  1  0
 18 89  1  6
 21 90  1  0
 21 91  1  0
 22 92  1  0
 22 93  1  0
 23 94  1  0
 23 95  1  0
 24 96  1  0
 24 97  1  0
 26 98  1  0
 26 99  1  0
 27100  1  0
 27101  1  0
 28102  1  6
 29103  1  0
 29104  1  0
 29105  1  0
 30106  1  0
 30107  1  0
 31108  1  0
 31109  1  0
 32110  1  1
 33111  1  0
 34112  1  0
 35113  1  6
 36114  1  0
 36115  1  0
 36116  1  0
 37117  1  6
 38118  1  0
 38119  1  0
 40120  1  0
 40121  1  0
 40122  1  0
 41123  1  0
 44124  1  1
 45125  1  0
 45126  1  0
 47127  1  0
 51128  1  0
 52129  1  0
 53130  1  0
 59131  1  0
 60132  1  0
 61133  1  0
 62134  1  0
 64135  1  0
 64136  1  0
 65137  1  0
 65138  1  0
 66139  1  1
 67140  1  0
M  END
>  <Binding energies>  (1) 
[-6.8]

>  <Ligand effiencies>  (1) 
[-0.09444444444444444]

>  <Interactions>  (1) 
["V-A:ILE:369:CG2:3237, V-A:ASP:366:CA:3210, V-A:ARG:545:CA:4919, V-A:GLU:543:CA:4904, V-B:GLU:543:C:9874, H-A:GLU:543:OE2:4910, V-A:GLU:543:C:4902, V-B:HIS:456:CD2:9039, V-B:GLU:543:CB:9878, V-B:HIS:456:CB:9036, V-B:ALA:541:CB:9864, H-A:TYR:531:OH:4795, V-B:TYR:539:CE2:9848, V-A:TYR:484:CE2:4346, V-A:GLY:544:CA:4914, V-A:GLY:544:C:4912, V-B:GLU:543:CG:9879, V-A:ASP:366:CG:3213, H-A:ARG:545:N:4920, V-A:LEU:363:CD1:3189, V-A:TYR:531:CE2:4793, V-B:ARG:545:CG:9894, V-B:LYS:547:CE:9922, V-A:GLU:543:CD:4908, V-B:TYR:484:CB:9312, V-A:TYR:484:CZ:4347, V-A:ARG:545:CG:4922, V-B:HIS:456:CE1:9041, V-A:HIS:456:CE1:4070, V-B:GLY:544:C:9884, V-A:GLU:543:CG:4907, V-A:TYR:531:CZ:4794, V-B:GLU:543:CD:9880, V-B:HIS:456:CG:9037, V-B:LYS:547:CD:9921, V-A:ARG:545:CB:4921, H-A:LYS:547:NZ:4951, V-A:ASP:366:CB:3212, H-A:GLU:543:OE1:4909, V-A:GLU:543:CB:4906, V-A:PRO:540:N:4884, V-A:PRO:540:CB:4885, V-A:PRO:540:CA:4883, V-B:ASP:473:CB:9210, V-A:LYS:547:CE:4950, H-A:ARG:545:NE:4924, V-B:ASP:473:CG:9211, V-B:LYS:471:CE:9191, H-A:GLY:544:N:4915, V-A:PRO:540:CD:4887, H-A:GLY:544:O:4913, H-A:GLU:543:O:4903"]

$$$$
ZINC587259567
     RDKit          3D

 35 36  0  0  0  0  0  0  0  0999 V2000
  129.1690  131.5680   72.9480 N   0  0  0  0  0  0  0  0  0  0  0  0
  129.4650  130.4690   72.9060 N   0  0  0  0  0  0  0  0  0  0  0  0
  129.9230  129.3260   72.9000 N   0  0  0  0  0  0  0  0  0  0  0  0
  129.4910  128.4890   71.8030 C   0  0  0  0  0  0  0  0  0  0  0  0
  130.6900  127.7800   71.1360 C   0  0  0  0  0  0  0  0  0  0  0  0
  130.5930  127.7700   69.5990 C   0  0  0  0  0  0  0  0  0  0  0  0
  129.1840  127.4180   69.0910 C   0  0  0  0  0  0  0  0  0  0  0  0
  129.1440  127.1320   67.5800 C   0  0  0  0  0  0  0  0  0  0  0  0
  129.5510  125.6840   67.2380 C   0  0  0  0  0  0  0  0  0  0  0  0
  130.4510  125.6180   66.0130 C   0  0  0  0  0  0  0  0  0  0  0  0
  130.2210  126.1350   64.8660 N   0  0  0  0  0  0  0  0  0  0  0  0
  131.2910  125.8220   64.0930 C   0  0  0  0  0  0  0  0  0  0  0  0
  131.6320  126.0830   62.8040 C   0  0  0  0  0  0  0  0  0  0  0  0
  130.6090  127.0230   61.6830 S   0  0  0  0  0  0  0  0  0  0  0  0
  132.8170  125.6230   62.2750 N   0  0  0  0  0  0  0  0  0  0  0  0
  133.6960  124.8840   63.0420 C   0  0  0  0  0  0  0  0  0  0  0  0
  135.1140  124.3470   62.3740 S   0  0  0  0  0  0  0  0  0  0  0  0
  133.3360  124.6190   64.3760 N   0  0  0  0  0  0  0  0  0  0  0  0
  132.2200  125.0540   64.8650 C   0  0  0  0  0  0  0  0  0  0  0  0
  131.6490  124.9400   66.0900 N   0  0  0  0  0  0  0  0  0  0  0  0
  128.7921  127.7300   72.1844 H   0  0  0  0  0  0  0  0  0  0  0  0
  129.0004  129.1251   71.0516 H   0  0  0  0  0  0  0  0  0  0  0  0
  131.6138  128.3013   71.4272 H   0  0  0  0  0  0  0  0  0  0  0  0
  130.6894  126.7340   71.4763 H   0  0  0  0  0  0  0  0  0  0  0  0
  130.8623  128.7683   69.2237 H   0  0  0  0  0  0  0  0  0  0  0  0
  131.2806  126.9949   69.2296 H   0  0  0  0  0  0  0  0  0  0  0  0
  128.8315  126.5241   69.6264 H   0  0  0  0  0  0  0  0  0  0  0  0
  128.5394  128.2895   69.2781 H   0  0  0  0  0  0  0  0  0  0  0  0
  128.1206  127.3054   67.2159 H   0  0  0  0  0  0  0  0  0  0  0  0
  129.8673  127.8041   67.0950 H   0  0  0  0  0  0  0  0  0  0  0  0
  130.0879  125.2540   68.0964 H   0  0  0  0  0  0  0  0  0  0  0  0
  128.6346  125.1172   67.0167 H   0  0  0  0  0  0  0  0  0  0  0  0
  130.6100  128.1600   62.3840 H   0  0  0  0  0  0  0  0  0  0  0  0
  133.1100  125.7920   61.3250 H   0  0  0  0  0  0  0  0  0  0  0  0
  132.0280  124.4570   66.8900 H   0  0  0  0  0  0  0  0  0  0  0  0
  1  2  2  0
  2  3  2  0
  3  4  1  0
  4  5  1  0
  5  6  1  0
  6  7  1  0
  7  8  1  0
  8  9  1  0
  9 10  1  0
 10 11  2  0
 11 12  1  0
 12 13  2  0
 13 14  1  0
 13 15  1  0
 15 16  1  0
 16 17  2  0
 16 18  1  0
 18 19  2  0
 19 20  1  0
 20 10  1  0
 19 12  1  0
  4 21  1  0
  4 22  1  0
  5 23  1  0
  5 24  1  0
  6 25  1  0
  6 26  1  0
  7 27  1  0
  7 28  1  0
  8 29  1  0
  8 30  1  0
  9 31  1  0
  9 32  1  0
 14 33  1  0
 15 34  1  0
 20 35  1  0
M  CHG  2   1  -1   2   1
M  END
>  <Binding energies>  (1) 
[-6.27]

>  <Ligand effiencies>  (1) 
[-0.2726086956521739]

>  <Interactions>  (1) 
["V-B:HIS:456:CD2:9039, H-A:GLU:543:OE2:4910, V-A:GLU:543:C:4902, V-B:GLU:543:CB:9878, V-A:TYR:484:CE2:4346, V-A:GLY:544:CA:4914, V-B:GLU:543:CG:9879, V-A:GLY:544:C:4912, V-A:ASP:366:CG:3213, V-A:GLU:543:CD:4908, V-A:TYR:484:CZ:4347, V-B:HIS:456:CE1:9041, H-A:GLY:454:N:4050, V-B:GLU:543:CA:9876, V-A:GLY:453:C:4042, V-A:HIS:456:CE1:4070, V-A:ILE:369:CD1:3239, H-A:LYS:547:NZ:4951, H-A:ARG:545:NH2:4928, V-A:ARG:545:CZ:4926, H-A:GLU:543:OE1:4909, V-A:GLU:543:CB:4906, H-A:ASP:366:OD1:3214, V-A:GLY:453:CA:4044, H-A:ASP:366:OD2:3215, H-A:TYR:484:OH:4348"]

$$$$
ZINC587259567-again1
     RDKit          3D

 34 35  0  0  0  0  0  0  0  0999 V2000
  135.1880  124.7470   66.9390 N   0  0  0  0  0  0  0  0  0  0  0  0
  134.3770  124.7280   66.1400 N   0  0  0  0  0  0  0  0  0  0  0  0
  133.6120  124.7050   65.1750 N   0  0  0  0  0  0  0  0  0  0  0  0
  132.4300  125.5280   65.3000 C   0  0  0  0  0  0  0  0  0  0  0  0
  131.1470  124.6690   65.2750 C   0  0  0  0  0  0  0  0  0  0  0  0
  130.3210  124.7980   66.5680 C   0  0  0  0  0  0  0  0  0  0  0  0
  129.4650  126.0770   66.6050 C   0  0  0  0  0  0  0  0  0  0  0  0
  129.7790  126.9750   67.8130 C   0  0  0  0  0  0  0  0  0  0  0  0
  128.5300  127.2820   68.6670 C   0  0  0  0  0  0  0  0  0  0  0  0
  128.8610  127.3770   70.1490 C   0  0  0  0  0  0  0  0  0  0  0  0
  128.9410  128.4440   70.8490 N   0  0  0  0  0  0  0  0  0  0  0  0
  129.2560  128.0540   72.1110 C   0  0  0  0  0  0  0  0  0  0  0  0
  129.4710  128.7310   73.2780 C   0  0  0  0  0  0  0  0  0  0  0  0
  129.4330  130.4350   73.6560 S   0  0  0  0  0  0  0  0  0  0  0  0
  129.7820  128.0120   74.4160 N   0  0  0  0  0  0  0  0  0  0  0  0
  129.8820  126.6340   74.4180 C   0  0  0  0  0  0  0  0  0  0  0  0
  130.2560  125.8390   75.8230 S   0  0  0  0  0  0  0  0  0  0  0  0
  129.6550  125.9670   73.2050 N   0  0  0  0  0  0  0  0  0  0  0  0
  129.3640  126.6240   72.1330 C   0  0  0  0  0  0  0  0  0  0  0  0
  129.1060  126.2240   70.8640 N   0  0  0  0  0  0  0  0  0  0  0  0
  132.4749  126.0785   66.2513 H   0  0  0  0  0  0  0  0  0  0  0  0
  132.3993  126.2253   64.4498 H   0  0  0  0  0  0  0  0  0  0  0  0
  130.5250  124.9899   64.4264 H   0  0  0  0  0  0  0  0  0  0  0  0
  131.4531  123.6168   65.1796 H   0  0  0  0  0  0  0  0  0  0  0  0
  129.6543  123.9267   66.6473 H   0  0  0  0  0  0  0  0  0  0  0  0
  131.0285  124.8490   67.4088 H   0  0  0  0  0  0  0  0  0  0  0  0
  129.6508  126.6499   65.6846 H   0  0  0  0  0  0  0  0  0  0  0  0
  128.4131  125.7667   66.6901 H   0  0  0  0  0  0  0  0  0  0  0  0
  130.5218  126.4670   68.4456 H   0  0  0  0  0  0  0  0  0  0  0  0
  130.1606  127.9314   67.4261 H   0  0  0  0  0  0  0  0  0  0  0  0
  128.1010  128.2396   68.3370 H   0  0  0  0  0  0  0  0  0  0  0  0
  127.8149  126.4573   68.5312 H   0  0  0  0  0  0  0  0  0  0  0  0
  129.9520  128.4490   75.3090 H   0  0  0  0  0  0  0  0  0  0  0  0
  129.0950  125.2760   70.5210 H   0  0  0  0  0  0  0  0  0  0  0  0
  1  2  2  0
  2  3  2  0
  3  4  1  0
  4  5  1  0
  5  6  1  0
  6  7  1  0
  7  8  1  0
  8  9  1  0
  9 10  1  0
 10 11  2  0
 11 12  1  0
 12 13  2  0
 13 14  1  0
 13 15  1  0
 15 16  1  0
 16 17  2  0
 16 18  1  0
 18 19  2  0
 19 20  1  0
 20 10  1  0
 19 12  1  0
  4 21  1  0
  4 22  1  0
  5 23  1  0
  5 24  1  0
  6 25  1  0
  6 26  1  0
  7 27  1  0
  7 28  1  0
  8 29  1  0
  8 30  1  0
  9 31  1  0
  9 32  1  0
 15 33  1  0
 20 34  1  0
M  CHG  3   1  -1   2   1  14  -1
M  END
>  <Binding energies>  (1) 
[-6.58]

>  <Ligand effiencies>  (1) 
[-0.2990909090909091]

>  <Interactions>  (1) 
["V-A:GLY:454:CA:4049, V-B:GLU:543:C:9874, V-B:HIS:456:CD2:9039, H-B:GLU:543:O:9875, V-B:GLU:543:CB:9878, H-B:LYS:547:NZ:9923, V-A:TYR:484:CE2:4346, V-B:GLU:543:CG:9879, V-A:HIS:456:CD2:4068, V-A:TYR:484:CZ:4347, V-A:GLU:543:CD:4908, V-A:ARG:545:CG:4922, H-A:GLY:454:N:4050, V-B:HIS:456:CE1:9041, V-A:GLY:453:C:4042, V-A:HIS:456:CE1:4070, V-B:GLU:543:CD:9880, V-A:ARG:545:CD:4923, H-A:ILE:455:N:4055, V-A:ARG:545:CZ:4926, V-A:GLU:543:CB:4906, V-A:GLY:453:CA:4044, V-A:LYS:547:CE:4950, H-A:ARG:545:NE:4924, V-A:GLY:454:C:4047, H-A:HIS:456:NE2:4071, H-A:TYR:484:OH:4348"]

$$$$
ZINC587259567-again2
     RDKit          3D

 34 35  0  0  0  0  0  0  0  0999 V2000
  135.1790  124.7950   66.9160 N   0  0  0  0  0  0  0  0  0  0  0  0
  134.3560  124.7450   66.1290 N   0  0  0  0  0  0  0  0  0  0  0  0
  133.5760  124.7040   65.1780 N   0  0  0  0  0  0  0  0  0  0  0  0
  132.3910  125.5220   65.3090 C   0  0  0  0  0  0  0  0  0  0  0  0
  131.1560  124.6640   65.6530 C   0  0  0  0  0  0  0  0  0  0  0  0
  129.9080  125.5130   65.9550 C   0  0  0  0  0  0  0  0  0  0  0  0
  129.9690  126.1990   67.3310 C   0  0  0  0  0  0  0  0  0  0  0  0
  128.6820  126.9720   67.6740 C   0  0  0  0  0  0  0  0  0  0  0  0
  128.9580  128.2470   68.5000 C   0  0  0  0  0  0  0  0  0  0  0  0
  129.5330  127.9250   69.8730 C   0  0  0  0  0  0  0  0  0  0  0  0
  130.7060  127.5000   70.1260 N   0  0  0  0  0  0  0  0  0  0  0  0
  130.7430  127.3710   71.5010 C   0  0  0  0  0  0  0  0  0  0  0  0
  131.6990  126.9760   72.2840 N   0  0  0  0  0  0  0  0  0  0  0  0
  131.5560  126.9090   73.6800 C   0  0  0  0  0  0  0  0  0  0  0  0
  132.7730  126.4080   74.6850 S   0  0  0  0  0  0  0  0  0  0  0  0
  130.3370  127.2830   74.2070 N   0  0  0  0  0  0  0  0  0  0  0  0
  129.2870  127.7100   73.4240 C   0  0  0  0  0  0  0  0  0  0  0  0
  127.9060  128.1020   74.4150 S   0  0  0  0  0  0  0  0  0  0  0  0
  129.4830  127.7550   72.0780 C   0  0  0  0  0  0  0  0  0  0  0  0
  128.7450  128.1010   70.9890 N   0  0  0  0  0  0  0  0  0  0  0  0
  132.5504  126.2588   66.1101 H   0  0  0  0  0  0  0  0  0  0  0  0
  132.2081  126.0265   64.3487 H   0  0  0  0  0  0  0  0  0  0  0  0
  130.9358  124.0060   64.7994 H   0  0  0  0  0  0  0  0  0  0  0  0
  131.3936  124.0884   66.5598 H   0  0  0  0  0  0  0  0  0  0  0  0
  129.8150  126.2882   65.1802 H   0  0  0  0  0  0  0  0  0  0  0  0
  129.0416  124.8353   65.9622 H   0  0  0  0  0  0  0  0  0  0  0  0
  130.1313  125.4292   68.0998 H   0  0  0  0  0  0  0  0  0  0  0  0
  130.7927  126.9274   67.3000 H   0  0  0  0  0  0  0  0  0  0  0  0
  128.1837  127.2604   66.7367 H   0  0  0  0  0  0  0  0  0  0  0  0
  128.0483  126.3108   68.2833 H   0  0  0  0  0  0  0  0  0  0  0  0
  129.6760  128.8758   67.9530 H   0  0  0  0  0  0  0  0  0  0  0  0
  128.0015  128.7700   68.6468 H   0  0  0  0  0  0  0  0  0  0  0  0
  130.2760  127.2200   75.2140 H   0  0  0  0  0  0  0  0  0  0  0  0
  127.7940  128.4190   71.1080 H   0  0  0  0  0  0  0  0  0  0  0  0
  1  2  2  0
  2  3  2  0
  3  4  1  0
  4  5  1  0
  5  6  1  0
  6  7  1  0
  7  8  1  0
  8  9  1  0
  9 10  1  0
 10 11  2  0
 11 12  1  0
 12 13  2  0
 13 14  1  0
 14 15  2  0
 14 16  1  0
 16 17  1  0
 17 18  1  0
 17 19  2  0
 19 20  1  0
 20 10  1  0
 19 12  1  0
  4 21  1  0
  4 22  1  0
  5 23  1  0
  5 24  1  0
  6 25  1  0
  6 26  1  0
  7 27  1  0
  7 28  1  0
  8 29  1  0
  8 30  1  0
  9 31  1  0
  9 32  1  0
 16 33  1  0
 20 34  1  0
M  CHG  3   1  -1   2   1  18  -1
M  END
>  <Binding energies>  (1) 
[-6.58]

>  <Ligand effiencies>  (1) 
[-0.2990909090909091]

>  <Interactions>  (1) 
["V-A:GLY:454:CA:4049, V-B:HIS:456:CD2:9039, V-B:GLU:543:CB:9878, V-A:TYR:484:CE2:4346, V-B:GLU:543:CG:9879, V-A:GLY:544:C:4912, V-A:HIS:456:CD2:4068, V-A:HIS:456:CB:4065, V-B:LYS:547:CE:9922, V-A:TYR:484:CZ:4347, V-A:GLU:543:CD:4908, V-A:ARG:545:CG:4922, H-A:GLY:454:N:4050, V-B:HIS:456:CE1:9041, V-A:GLY:453:C:4042, V-A:HIS:456:CE1:4070, H-B:HIS:456:NE2:9042, V-B:GLU:543:CD:9880, V-A:ARG:545:CD:4923, H-A:ILE:455:N:4055, V-A:ARG:545:CZ:4926, V-A:GLU:543:CB:4906, V-A:HIS:456:CG:4066, V-A:GLY:453:CA:4044, H-A:ARG:545:NE:4924, V-A:GLY:454:C:4047, H-A:HIS:456:ND1:4067, H-A:TYR:484:OH:4348"]

$$$$
ZINC587263008
     RDKit          3D

 43 45  0  0  0  0  0  0  0  0999 V2000
  129.7260  127.6920   59.1280 C   0  0  0  0  0  0  0  0  0  0  0  0
  129.5410  127.4300   60.6250 C   0  0  0  0  0  0  0  0  0  0  0  0
  128.7040  128.4500   61.1600 O   0  0  0  0  0  0  0  0  0  0  0  0
  129.2670  129.6050   61.6730 C   0  0  0  0  0  0  0  0  0  0  0  0
  130.5330  130.0870   61.3070 C   0  0  0  0  0  0  0  0  0  0  0  0
  131.0370  131.2690   61.8590 C   0  0  0  0  0  0  0  0  0  0  0  0
  132.3710  131.7930   61.4710 C   0  0  0  0  0  0  0  0  0  0  0  0
  133.0300  132.5920   62.1360 O   0  0  0  0  0  0  0  0  0  0  0  0
  130.2730  131.9660   62.7960 C   0  0  0  0  0  0  0  0  0  0  0  0
  129.0120  131.5010   63.1880 C   0  0  0  0  0  0  0  0  0  0  0  0
  128.2510  132.2510   64.2110 N   0  0  0  0  0  0  0  0  0  0  0  0
  128.6630  132.2290   65.3670 O   0  0  0  0  0  0  0  0  0  0  0  0
  127.2360  132.8480   63.8670 O   0  0  0  0  0  0  0  0  0  0  0  0
  128.5040  130.3260   62.6020 C   0  0  0  0  0  0  0  0  0  0  0  0
  127.2580  129.8450   62.9360 O   0  0  0  0  0  0  0  0  0  0  0  0
  126.9350  129.8130   64.3300 C   0  0  1  0  0  0  0  0  0  0  0  0
  125.4170  129.6290   64.5600 C   0  0  0  0  0  0  0  0  0  0  0  0
  127.7830  128.7260   64.9730 C   0  0  0  0  0  0  0  0  0  0  0  0
  127.9300  128.5290   66.2630 N   0  0  0  0  0  0  0  0  0  0  0  0
  128.7490  127.4330   66.3630 C   0  0  0  0  0  0  0  0  0  0  0  0
  129.2380  126.7840   67.5090 C   0  0  0  0  0  0  0  0  0  0  0  0
  128.7960  127.3880   69.2610 Br  0  0  0  0  0  0  0  0  0  0  0  0
  130.0640  125.6720   67.3350 C   0  0  0  0  0  0  0  0  0  0  0  0
  130.4010  125.2090   66.0630 C   0  0  0  0  0  0  0  0  0  0  0  0
  129.9310  125.8330   64.9040 C   0  0  0  0  0  0  0  0  0  0  0  0
  130.4000  125.1850   63.1750 Br  0  0  0  0  0  0  0  0  0  0  0  0
  129.1050  126.9460   65.0790 C   0  0  0  0  0  0  0  0  0  0  0  0
  128.4600  127.8000   64.2140 N   0  0  0  0  0  0  0  0  0  0  0  0
  130.3552  128.5831   58.9867 H   0  0  0  0  0  0  0  0  0  0  0  0
  130.2115  126.8225   58.6608 H   0  0  0  0  0  0  0  0  0  0  0  0
  128.7442  127.8586   58.6608 H   0  0  0  0  0  0  0  0  0  0  0  0
  129.0706  126.4470   60.7747 H   0  0  0  0  0  0  0  0  0  0  0  0
  130.5166  127.4367   61.1331 H   0  0  0  0  0  0  0  0  0  0  0  0
  131.1366  129.5281   60.5767 H   0  0  0  0  0  0  0  0  0  0  0  0
  132.8011  131.4420   60.5213 H   0  0  0  0  0  0  0  0  0  0  0  0
  130.6676  132.8950   63.2333 H   0  0  0  0  0  0  0  0  0  0  0  0
  127.1706  130.7755   64.8076 H   0  0  0  0  0  0  0  0  0  0  0  0
  125.2102  129.6039   65.6401 H   0  0  0  0  0  0  0  0  0  0  0  0
  124.8724  130.4677   64.1018 H   0  0  0  0  0  0  0  0  0  0  0  0
  125.0886  128.6845   64.1018 H   0  0  0  0  0  0  0  0  0  0  0  0
  130.4574  125.1499   68.2197 H   0  0  0  0  0  0  0  0  0  0  0  0
  131.0543  124.3290   65.9696 H   0  0  0  0  0  0  0  0  0  0  0  0
  128.4490  127.7900   63.2050 H   0  0  0  0  0  0  0  0  0  0  0  0
  1  2  1  0
  2  3  1  0
  3  4  1  0
  4  5  2  0
  5  6  1  0
  6  7  1  0
  7  8  2  0
  6  9  2  0
  9 10  1  0
 10 11  1  0
 11 12  2  0
 11 13  1  0
 10 14  2  0
 14 15  1  0
 15 16  1  0
 16 17  1  0
 16 18  1  0
 18 19  2  0
 19 20  1  0
 20 21  2  0
 21 22  1  0
 21 23  1  0
 23 24  2  0
 24 25  1  0
 25 26  1  0
 25 27  2  0
 27 28  1  0
 14  4  1  0
 28 18  1  0
 27 20  1  0
  1 29  1  0
  1 30  1  0
  1 31  1  0
  2 32  1  0
  2 33  1  0
  5 34  1  0
  7 35  1  0
  9 36  1  0
 16 37  1  1
 17 38  1  0
 17 39  1  0
 17 40  1  0
 23 41  1  0
 24 42  1  0
 28 43  1  0
M  CHG  2  11   1  13  -1
M  END
>  <Binding energies>  (1) 
[-6.31]

>  <Ligand effiencies>  (1) 
[-0.2175862068965517]

>  <Interactions>  (1) 
["V-A:HIS:456:CE1:4070, V-B:TYR:484:CE2:9317, H-B:GLU:543:OE2:9882, V-A:PRO:540:CA:4883, H-B:GLU:543:OE1:9881, V-A:PRO:540:CB:4885, H-A:ALA:541:N:4891, V-A:ALA:541:CA:4890, V-A:ALA:541:CB:4892, V-B:GLU:543:CB:9878, V-A:GLU:543:CG:4907, V-B:GLU:543:CD:9880, V-B:ARG:545:CZ:9898, V-A:GLU:543:CD:4908, H-B:TYR:484:OH:9319, V-B:GLU:543:CG:9879, H-A:GLU:543:OE1:4909, V-B:HIS:456:CE1:9041"]

$$$$
ZINC587264770
     RDKit          3D

 55 57  0  0  0  0  0  0  0  0999 V2000
  129.5280  122.5210   64.4720 C   0  0  0  0  0  0  0  0  0  0  0  0
  128.5280  122.8950   63.3750 C   0  0  0  0  0  0  0  0  0  0  0  0
  129.2510  123.4070   62.2600 O   0  0  0  0  0  0  0  0  0  0  0  0
  130.5380  122.9660   62.0140 C   0  0  0  0  0  0  0  0  0  0  0  0
  130.8430  121.8150   61.2700 C   0  0  0  0  0  0  0  0  0  0  0  0
  132.1700  121.4280   61.0620 C   0  0  0  0  0  0  0  0  0  0  0  0
  132.5040  120.2100   60.2790 C   0  0  0  0  0  0  0  0  0  0  0  0
  133.5970  119.9910   59.7590 O   0  0  0  0  0  0  0  0  0  0  0  0
  133.2030  122.2040   61.5930 C   0  0  0  0  0  0  0  0  0  0  0  0
  132.9270  123.3620   62.3300 C   0  0  0  0  0  0  0  0  0  0  0  0
  134.0490  124.1810   62.8400 N   0  0  0  0  0  0  0  0  0  0  0  0
  133.9470  124.6610   63.9660 O   0  0  0  0  0  0  0  0  0  0  0  0
  135.0370  124.3350   62.1290 O   0  0  0  0  0  0  0  0  0  0  0  0
  131.5840  123.7250   62.5570 C   0  0  0  0  0  0  0  0  0  0  0  0
  131.2630  124.8400   63.3000 O   0  0  0  0  0  0  0  0  0  0  0  0
  130.4950  125.8550   62.6430 C   0  0  2  0  0  0  0  0  0  0  0  0
  131.3630  126.7420   61.7210 C   0  0  0  0  0  0  0  0  0  0  0  0
  129.7630  126.6400   63.7220 C   0  0  0  0  0  0  0  0  0  0  0  0
  129.8620  126.4400   65.0130 N   0  0  0  0  0  0  0  0  0  0  0  0
  129.0080  127.3450   65.5970 C   0  0  0  0  0  0  0  0  0  0  0  0
  128.7270  127.5650   66.9710 C   0  0  0  0  0  0  0  0  0  0  0  0
  129.3910  126.7550   68.1200 C   0  0  0  0  0  0  0  0  0  0  0  0
  128.5520  126.7270   69.4260 C   0  0  0  0  0  0  0  0  0  0  0  0
  129.5910  125.2830   67.6810 C   0  0  0  0  0  0  0  0  0  0  0  0
  130.7620  127.3810   68.4770 C   0  0  0  0  0  0  0  0  0  0  0  0
  127.7910  128.5820   67.2430 C   0  0  0  0  0  0  0  0  0  0  0  0
  127.1720  129.3280   66.2410 C   0  0  0  0  0  0  0  0  0  0  0  0
  127.4400  129.1190   64.8910 C   0  0  0  0  0  0  0  0  0  0  0  0
  128.3650  128.1200   64.5930 C   0  0  0  0  0  0  0  0  0  0  0  0
  128.8700  127.6350   63.4110 N   0  0  0  0  0  0  0  0  0  0  0  0
  129.0714  122.6918   65.4581 H   0  0  0  0  0  0  0  0  0  0  0  0
  129.8010  121.4600   64.3731 H   0  0  0  0  0  0  0  0  0  0  0  0
  130.4302  123.1425   64.3731 H   0  0  0  0  0  0  0  0  0  0  0  0
  127.9599  122.0034   63.0711 H   0  0  0  0  0  0  0  0  0  0  0  0
  127.8247  123.6537   63.7488 H   0  0  0  0  0  0  0  0  0  0  0  0
  130.0278  121.2105   60.8457 H   0  0  0  0  0  0  0  0  0  0  0  0
  131.7181  119.4503   60.1557 H   0  0  0  0  0  0  0  0  0  0  0  0
  134.2478  121.9011   61.4299 H   0  0  0  0  0  0  0  0  0  0  0  0
  129.7600  125.4010   61.9621 H   0  0  0  0  0  0  0  0  0  0  0  0
  132.0014  127.3944   62.3348 H   0  0  0  0  0  0  0  0  0  0  0  0
  131.9945  126.1032   61.0861 H   0  0  0  0  0  0  0  0  0  0  0  0
  130.7107  127.3595   61.0861 H   0  0  0  0  0  0  0  0  0  0  0  0
  129.2258  126.7495   70.2952 H   0  0  0  0  0  0  0  0  0  0  0  0
  127.8879  127.6035   69.4541 H   0  0  0  0  0  0  0  0  0  0  0  0
  127.9478  125.8082   69.4541 H   0  0  0  0  0  0  0  0  0  0  0  0
  129.6779  124.6433   68.5717 H   0  0  0  0  0  0  0  0  0  0  0  0
  128.7286  124.9593   67.0798 H   0  0  0  0  0  0  0  0  0  0  0  0
  130.5085  125.2011   67.0798 H   0  0  0  0  0  0  0  0  0  0  0  0
  130.8691  127.4299   69.5707 H   0  0  0  0  0  0  0  0  0  0  0  0
  131.5683  126.7618   68.0569 H   0  0  0  0  0  0  0  0  0  0  0  0
  130.8222  128.3958   68.0569 H   0  0  0  0  0  0  0  0  0  0  0  0
  127.5375  128.7969   68.2916 H   0  0  0  0  0  0  0  0  0  0  0  0
  126.4490  130.1064   66.5262 H   0  0  0  0  0  0  0  0  0  0  0  0
  126.9491  129.7094   64.1034 H   0  0  0  0  0  0  0  0  0  0  0  0
  128.6580  127.9170   62.4630 H   0  0  0  0  0  0  0  0  0  0  0  0
  1  2  1  0
  2  3  1  0
  3  4  1  0
  4  5  2  0
  5  6  1  0
  6  7  1  0
  7  8  2  0
  6  9  2  0
  9 10  1  0
 10 11  1  0
 11 12  2  0
 11 13  1  0
 10 14  2  0
 14 15  1  0
 15 16  1  0
 16 17  1  0
 16 18  1  0
 18 19  2  0
 19 20  1  0
 20 21  2  0
 21 22  1  0
 22 23  1  0
 22 24  1  0
 22 25  1  0
 21 26  1  0
 26 27  2  0
 27 28  1  0
 28 29  2  0
 29 30  1  0
 14  4  1  0
 30 18  1  0
 29 20  1  0
  1 31  1  0
  1 32  1  0
  1 33  1  0
  2 34  1  0
  2 35  1  0
  5 36  1  0
  7 37  1  0
  9 38  1  0
 16 39  1  6
 17 40  1  0
 17 41  1  0
 17 42  1  0
 23 43  1  0
 23 44  1  0
 23 45  1  0
 24 46  1  0
 24 47  1  0
 24 48  1  0
 25 49  1  0
 25 50  1  0
 25 51  1  0
 26 52  1  0
 27 53  1  0
 28 54  1  0
 30 55  1  0
M  CHG  2  11   1  13  -1
M  END
>  <Binding energies>  (1) 
[-6.53]

>  <Ligand effiencies>  (1) 
[-0.2106451612903226]

>  <Interactions>  (1) 
["V-A:ILE:369:CG2:3237, V-A:GLY:454:CA:4049, V-B:GLU:543:C:9874, V-B:GLU:543:CB:9878, V-B:ALA:541:CB:9864, H-A:ARG:545:NH1:4927, V-B:TYR:539:CE2:9848, V-A:TYR:484:CE2:4346, V-B:GLU:543:CG:9879, V-A:ASP:366:CG:3213, V-A:GLU:543:CD:4908, V-B:HIS:456:CE1:9041, H-A:GLY:454:N:4050, V-B:GLU:543:CA:9876, V-A:GLY:453:C:4042, V-B:TYR:484:CZ:9318, V-A:HIS:456:CE1:4070, V-B:TYR:539:CD2:9846, V-A:SER:385:CB:3409, H-A:SER:385:OG:3410, V-B:GLU:543:CD:9880, V-A:LEU:475:CD2:4259, H-A:ARG:545:NH2:4928, H-A:GLU:543:OE1:4909, V-A:GLU:543:CB:4906, V-A:GLY:453:CA:4044"]

$$$$
ZINC587267149-again1
     RDKit          3D

 56 59  0  0  0  0  0  0  0  0999 V2000
  129.0060  125.6650   63.4960 C   0  0  0  0  0  0  0  0  0  0  0  0
  129.7530  126.1200   64.7630 C   0  0  2  0  0  0  0  0  0  0  0  0
  131.1050  126.3330   64.3970 O   0  0  0  0  0  0  0  0  0  0  0  0
  129.6570  125.1160   65.9490 C   0  0  1  0  0  0  0  0  0  0  0  0
  130.6490  124.0420   65.8160 N   0  0  0  0  0  0  0  0  0  0  0  0
  131.3220  123.6630   64.6340 C   0  0  0  0  0  0  0  0  0  0  0  0
  130.6800  122.8500   63.6870 C   0  0  0  0  0  0  0  0  0  0  0  0
  131.3170  122.4600   62.5160 C   0  0  0  0  0  0  0  0  0  0  0  0
  132.6220  122.8740   62.2450 C   0  0  0  0  0  0  0  0  0  0  0  0
  133.3080  122.4560   60.9970 N   0  0  0  0  0  0  0  0  0  0  0  0
  133.5950  123.3150   60.1670 O   0  0  0  0  0  0  0  0  0  0  0  0
  133.5630  121.2660   60.8370 O   0  0  0  0  0  0  0  0  0  0  0  0
  133.2640  123.6960   63.1800 C   0  0  0  0  0  0  0  0  0  0  0  0
  132.6450  124.1080   64.3740 C   0  0  0  0  0  0  0  0  0  0  0  0
  133.4240  124.9890   65.3030 N   0  0  0  0  0  0  0  0  0  0  0  0
  134.6370  125.1150   65.1720 O   0  0  0  0  0  0  0  0  0  0  0  0
  132.8180  125.5760   66.1950 O   0  0  0  0  0  0  0  0  0  0  0  0
  129.7740  125.8460   67.2820 C   0  0  0  0  0  0  0  0  0  0  0  0
  130.7680  126.7200   67.6460 N   0  0  0  0  0  0  0  0  0  0  0  0
  130.5470  127.1650   68.9430 C   0  0  0  0  0  0  0  0  0  0  0  0
  131.2550  128.0560   69.7530 C   0  0  0  0  0  0  0  0  0  0  0  0
  130.7470  128.2760   71.0340 C   0  0  0  0  0  0  0  0  0  0  0  0
  129.5880  127.6400   71.4980 C   0  0  0  0  0  0  0  0  0  0  0  0
  129.0140  127.9860   73.1710 S   0  0  0  0  0  0  0  0  0  0  0  0
  129.8380  129.1240   73.5890 O   0  0  0  0  0  0  0  0  0  0  0  0
  127.5680  128.2150   73.0710 O   0  0  0  0  0  0  0  0  0  0  0  0
  129.4210  126.6470   73.8950 N   0  0  0  0  0  0  0  0  0  0  0  0
  130.6920  126.3050   74.2960 C   0  0  0  0  0  0  0  0  0  0  0  0
  130.8100  125.2400   75.1980 C   0  0  0  0  0  0  0  0  0  0  0  0
  132.0500  124.8240   75.6750 C   0  0  0  0  0  0  0  0  0  0  0  0
  133.2030  125.4770   75.2530 C   0  0  0  0  0  0  0  0  0  0  0  0
  134.7450  124.9670   75.8400 Cl  0  0  0  0  0  0  0  0  0  0  0  0
  133.1190  126.5390   74.3590 C   0  0  0  0  0  0  0  0  0  0  0  0
  131.8750  126.9480   73.8880 C   0  0  0  0  0  0  0  0  0  0  0  0
  128.8720  126.7530   70.6810 C   0  0  0  0  0  0  0  0  0  0  0  0
  129.3780  126.5270   69.3980 C   0  0  0  0  0  0  0  0  0  0  0  0
  128.9330  125.7190   68.3610 N   0  0  0  0  0  0  0  0  0  0  0  0
  128.0992  125.1127   63.7834 H   0  0  0  0  0  0  0  0  0  0  0  0
  128.7253  126.5457   62.8997 H   0  0  0  0  0  0  0  0  0  0  0  0
  129.6598  125.0116   62.8997 H   0  0  0  0  0  0  0  0  0  0  0  0
  129.2786  127.0400   65.1351 H   0  0  0  0  0  0  0  0  0  0  0  0
  131.3460  127.2360   64.6170 H   0  0  0  0  0  0  0  0  0  0  0  0
  128.6663  124.6387   65.9221 H   0  0  0  0  0  0  0  0  0  0  0  0
  131.0290  123.6770   66.6790 H   0  0  0  0  0  0  0  0  0  0  0  0
  129.6497  122.5143   63.8764 H   0  0  0  0  0  0  0  0  0  0  0  0
  130.7880  121.8189   61.7955 H   0  0  0  0  0  0  0  0  0  0  0  0
  134.2907  124.0319   62.9727 H   0  0  0  0  0  0  0  0  0  0  0  0
  131.5250  126.9740   67.0280 H   0  0  0  0  0  0  0  0  0  0  0  0
  132.1670  128.5589   69.3990 H   0  0  0  0  0  0  0  0  0  0  0  0
  131.2745  128.9725   71.7023 H   0  0  0  0  0  0  0  0  0  0  0  0
  129.9019  124.7202   75.5374 H   0  0  0  0  0  0  0  0  0  0  0  0
  132.1173  123.9837   76.3816 H   0  0  0  0  0  0  0  0  0  0  0  0
  134.0322  127.0536   74.0255 H   0  0  0  0  0  0  0  0  0  0  0  0
  131.8155  127.7903   73.1831 H   0  0  0  0  0  0  0  0  0  0  0  0
  127.9550  126.2583   71.0336 H   0  0  0  0  0  0  0  0  0  0  0  0
  128.1200  125.1200   68.3480 H   0  0  0  0  0  0  0  0  0  0  0  0
  1  2  1  0
  2  3  1  0
  2  4  1  0
  4  5  1  0
  5  6  1  0
  6  7  2  0
  7  8  1  0
  8  9  2  0
  9 10  1  0
 10 11  2  0
 10 12  1  0
  9 13  1  0
 13 14  2  0
 14 15  1  0
 15 16  2  0
 15 17  1  0
  4 18  1  0
 18 19  1  0
 19 20  1  0
 20 21  2  0
 21 22  1  0
 22 23  2  0
 23 24  1  0
 24 25  2  0
 24 26  2  0
 24 27  1  0
 27 28  1  0
 28 29  2  0
 29 30  1  0
 30 31  2  0
 31 32  1  0
 31 33  1  0
 33 34  2  0
 23 35  1  0
 35 36  2  0
 36 37  1  0
 14  6  1  0
 37 18  2  0
 36 20  1  0
 34 28  1  0
  1 38  1  0
  1 39  1  0
  1 40  1  0
  2 41  1  1
  3 42  1  0
  4 43  1  1
  5 44  1  0
  7 45  1  0
  8 46  1  0
 13 47  1  0
 19 48  1  0
 21 49  1  0
 22 50  1  0
 29 51  1  0
 30 52  1  0
 33 53  1  0
 34 54  1  0
 35 55  1  0
 37 56  1  0
M  CHG  6  10   1  12  -1  15   1  17  -1  27  -1  37   1
M  END
>  <Binding energies>  (1) 
[-11.36]

>  <Ligand effiencies>  (1) 
[-0.2770731707317073]

>  <Interactions>  (1) 
["V-A:ILE:369:CG2:3237, V-A:ARG:545:CA:4919, V-A:GLU:543:CA:4904, V-A:GLY:454:CA:4049, V-B:GLU:543:C:9874, H-A:GLU:543:OE2:4910, H-B:GLU:543:O:9875, V-A:GLU:543:C:4902, V-B:HIS:456:CD2:9039, V-B:GLU:543:CB:9878, H-B:LYS:547:NZ:9923, H-A:ARG:545:NH1:4927, V-A:TYR:484:CE2:4346, V-A:GLY:544:CA:4914, V-A:GLY:544:C:4912, V-B:GLU:543:CG:9879, V-A:VAL:457:CA:4075, V-A:HIS:456:CD2:4068, V-A:VAL:457:C:4073, V-A:LYS:547:CG:4948, V-A:HIS:456:CB:4065, V-A:GLU:543:CD:4908, V-A:TYR:484:CZ:4347, V-B:GLU:543:CA:9876, H-A:GLY:454:N:4050, V-A:ARG:545:CG:4922, V-A:HIS:456:CE1:4070, H-A:SER:385:OG:3410, V-B:GLU:543:CD:9880, V-A:ARG:545:CD:4923, H-A:LYS:547:NZ:4951, H-A:ARG:545:NH2:4928, V-A:LEU:475:CD2:4259, H-A:GLU:543:OE1:4909, V-A:ARG:545:CZ:4926, V-A:HIS:456:C:4061, V-A:GLU:543:CB:4906, V-A:HIS:456:CG:4066, H-A:ARG:545:NE:4924, V-A:VAL:458:CG2:4087, H-A:TYR:484:OH:4348"]

$$$$
ZINC587276084
     RDKit          3D

 25 26  0  0  0  0  0  0  0  0999 V2000
  133.6200  124.4110   63.8960 O   0  0  0  0  0  0  0  0  0  0  0  0
  132.4060  124.2200   63.8830 C   0  0  0  0  0  0  0  0  0  0  0  0
  131.2130  125.5220   64.3000 Cl  0  0  0  0  0  0  0  0  0  0  0  0
  131.7470  122.8880   63.5270 C   0  0  0  0  0  0  0  0  0  0  0  0
  131.3880  122.7980   62.0260 C   0  0  0  0  0  0  0  0  0  0  0  0
  130.2300  121.8420   61.6920 C   0  0  0  0  0  0  0  0  0  0  0  0
  130.4500  120.6520   61.4560 O   0  0  0  0  0  0  0  0  0  0  0  0
  128.8810  122.3970   61.6670 C   0  0  0  0  0  0  0  0  0  0  0  0
  128.0750  122.7080   62.7590 C   0  0  0  0  0  0  0  0  0  0  0  0
  126.8650  123.2100   62.3870 O   0  0  0  0  0  0  0  0  0  0  0  0
  126.8720  123.2300   61.0230 C   0  0  0  0  0  0  0  0  0  0  0  0
  125.8240  123.6730   60.2090 C   0  0  0  0  0  0  0  0  0  0  0  0
  126.0270  123.6140   58.8300 C   0  0  0  0  0  0  0  0  0  0  0  0
  127.2230  123.1340   58.2910 C   0  0  0  0  0  0  0  0  0  0  0  0
  127.4200  123.0830   56.5770 Cl  0  0  0  0  0  0  0  0  0  0  0  0
  128.2640  122.6930   59.1140 C   0  0  0  0  0  0  0  0  0  0  0  0
  128.0970  122.7370   60.5100 C   0  0  0  0  0  0  0  0  0  0  0  0
  132.4413  122.0716   63.7749 H   0  0  0  0  0  0  0  0  0  0  0  0
  130.8135  122.8079   64.1033 H   0  0  0  0  0  0  0  0  0  0  0  0
  131.1102  123.8047   61.6804 H   0  0  0  0  0  0  0  0  0  0  0  0
  132.2771  122.3932   61.5204 H   0  0  0  0  0  0  0  0  0  0  0  0
  128.3815  122.5642   63.8056 H   0  0  0  0  0  0  0  0  0  0  0  0
  124.8834  124.0504   60.6365 H   0  0  0  0  0  0  0  0  0  0  0  0
  125.2287  123.9525   58.1531 H   0  0  0  0  0  0  0  0  0  0  0  0
  129.2003  122.3170   58.6759 H   0  0  0  0  0  0  0  0  0  0  0  0
  1  2  2  0
  2  3  1  0
  2  4  1  0
  4  5  1  0
  5  6  1  0
  6  7  2  0
  6  8  1  0
  8  9  2  0
  9 10  1  0
 10 11  1  0
 11 12  2  0
 12 13  1  0
 13 14  2  0
 14 15  1  0
 14 16  1  0
 16 17  2  0
 17  8  1  0
 17 11  1  0
  4 18  1  0
  4 19  1  0
  5 20  1  0
  5 21  1  0
  9 22  1  0
 12 23  1  0
 13 24  1  0
 16 25  1  0
M  END
>  <Binding energies>  (1) 
[-5.59]

>  <Ligand effiencies>  (1) 
[-0.3288235294117647]

>  <Interactions>  (1) 
["V-B:PRO:540:CA:9855, V-B:ALA:541:CB:9864, V-B:TYR:539:CE2:9848, V-B:GLU:543:CG:9879, V-B:TYR:539:C:9839, V-B:TYR:539:CZ:9849, H-B:ALA:541:N:9863, V-A:GLU:543:CD:4908, V-B:PRO:540:CB:9857, H-A:GLY:454:N:4050, V-B:PRO:540:N:9856, V-B:TYR:539:CD2:9846, V-B:GLU:543:CD:9880, V-A:LEU:475:CD2:4259, H-A:ARG:545:NH2:4928, V-B:TYR:539:CD1:9845, V-B:PRO:540:C:9853, V-B:ALA:541:CA:9862, V-B:TYR:539:CE1:9847, H-A:TYR:484:OH:4348"]

$$$$
ZINC587288013
     RDKit          3D

 77 83  0  0  0  0  0  0  0  0999 V2000
  130.4450  127.0300   62.3290 C   0  0  0  0  0  0  0  0  0  0  0  0
  129.4130  126.0170   62.8910 C   0  0  1  0  0  0  0  0  0  0  0  0
  129.5930  125.8700   64.4150 C   0  0  0  0  0  0  0  0  0  0  0  0
  130.0820  124.7930   65.1630 C   0  0  0  0  0  0  0  0  0  0  0  0
  130.0990  124.9860   66.5460 C   0  0  0  0  0  0  0  0  0  0  0  0
  129.6100  126.2210   66.9410 C   0  0  0  0  0  0  0  0  0  0  0  0
  129.4610  126.7830   68.3210 C   0  0  0  0  0  0  0  0  0  0  0  0
  130.5040  127.4710   68.9520 C   0  0  0  0  0  0  0  0  0  0  0  0
  130.3390  127.9740   70.2390 C   0  0  0  0  0  0  0  0  0  0  0  0
  129.1300  127.7940   70.9170 C   0  0  0  0  0  0  0  0  0  0  0  0
  128.9320  128.3370   72.3320 C   0  0  0  0  0  0  0  0  0  0  0  0
  129.8060  127.7500   73.1480 F   0  0  0  0  0  0  0  0  0  0  0  0
  129.1390  129.6550   72.3620 F   0  0  0  0  0  0  0  0  0  0  0  0
  127.7030  128.1020   72.7960 F   0  0  0  0  0  0  0  0  0  0  0  0
  128.0880  127.1030   70.2910 C   0  0  0  0  0  0  0  0  0  0  0  0
  128.2540  126.6000   69.0030 C   0  0  0  0  0  0  0  0  0  0  0  0
  129.1080  127.1230   65.5410 S   0  0  0  0  0  0  0  0  0  0  0  0
  128.1020  126.6780   62.7070 O   0  0  0  0  0  0  0  0  0  0  0  0
  127.4620  126.3600   61.5200 C   0  0  0  0  0  0  0  0  0  0  0  0
  127.1100  127.4050   60.6620 C   0  0  0  0  0  0  0  0  0  0  0  0
  127.2050  127.2040   59.2680 C   0  0  0  0  0  0  0  0  0  0  0  0
  126.9190  128.1600   58.3110 O   0  0  0  0  0  0  0  0  0  0  0  0
  127.9430  128.9470   57.7720 C   0  0  2  0  0  0  0  0  0  0  0  0
  129.0340  128.9900   58.6600 O   0  0  0  0  0  0  0  0  0  0  0  0
  130.1570  129.7130   58.1450 C   0  0  2  0  0  0  0  0  0  0  0  0
  131.3570  129.4780   59.0880 C   0  0  0  0  0  0  0  0  0  0  0  0
  132.5280  130.1370   58.6460 O   0  0  0  0  0  0  0  0  0  0  0  0
  129.7690  131.2040   57.9600 C   0  0  1  0  0  0  0  0  0  0  0  0
  130.8350  131.9470   57.3920 O   0  0  0  0  0  0  0  0  0  0  0  0
  128.4900  131.3260   57.1010 C   0  0  2  0  0  0  0  0  0  0  0  0
  128.0300  132.6660   57.0470 O   0  0  0  0  0  0  0  0  0  0  0  0
  127.3780  130.3680   57.5980 C   0  0  1  0  0  0  0  0  0  0  0  0
  126.2620  130.3730   56.7240 O   0  0  0  0  0  0  0  0  0  0  0  0
  127.7920  126.0140   58.8170 C   0  0  0  0  0  0  0  0  0  0  0  0
  128.1110  125.0230   59.7470 C   0  0  0  0  0  0  0  0  0  0  0  0
  127.6030  125.0610   61.0430 C   0  0  0  0  0  0  0  0  0  0  0  0
  128.1550  124.0930   61.9890 C   0  0  0  0  0  0  0  0  0  0  0  0
  127.5800  123.1310   62.4950 O   0  0  0  0  0  0  0  0  0  0  0  0
  129.5790  124.5750   62.1590 C   0  0  1  0  0  0  0  0  0  0  0  0
  130.2110  124.4320   60.6800 C   0  0  1  0  0  0  0  0  0  0  0  0
  131.2420  123.3080   60.6280 C   0  0  0  0  0  0  0  0  0  0  0  0
  132.5880  123.5900   60.3720 C   0  0  0  0  0  0  0  0  0  0  0  0
  133.5230  122.5580   60.3420 C   0  0  0  0  0  0  0  0  0  0  0  0
  133.1130  121.2460   60.5670 C   0  0  0  0  0  0  0  0  0  0  0  0
  134.0330  120.2320   60.5380 O   0  0  0  0  0  0  0  0  0  0  0  0
  131.7740  120.9570   60.8240 C   0  0  0  0  0  0  0  0  0  0  0  0
  130.8380  121.9880   60.8550 C   0  0  0  0  0  0  0  0  0  0  0  0
  129.2680  124.2870   59.5540 O   0  0  0  0  0  0  0  0  0  0  0  0
  130.9570  127.5326   63.1628 H   0  0  0  0  0  0  0  0  0  0  0  0
  131.1840  126.4969   61.7128 H   0  0  0  0  0  0  0  0  0  0  0  0
  129.9257  127.7788   61.7128 H   0  0  0  0  0  0  0  0  0  0  0  0
  130.4286  123.8601   64.6945 H   0  0  0  0  0  0  0  0  0  0  0  0
  130.4659  124.2291   67.2549 H   0  0  0  0  0  0  0  0  0  0  0  0
  131.4600  127.6150   68.4273 H   0  0  0  0  0  0  0  0  0  0  0  0
  131.1638  128.5157   70.7250 H   0  0  0  0  0  0  0  0  0  0  0  0
  127.1336  126.9561   70.8178 H   0  0  0  0  0  0  0  0  0  0  0  0
  127.4301  126.0551   68.5189 H   0  0  0  0  0  0  0  0  0  0  0  0
  126.7647  128.3681   61.0659 H   0  0  0  0  0  0  0  0  0  0  0  0
  128.2866  128.5314   56.8132 H   0  0  0  0  0  0  0  0  0  0  0  0
  130.4584  129.3576   57.1486 H   0  0  0  0  0  0  0  0  0  0  0  0
  131.0978  129.8522   60.0894 H   0  0  0  0  0  0  0  0  0  0  0  0
  131.5654  128.3980   59.1024 H   0  0  0  0  0  0  0  0  0  0  0  0
  133.2290  129.9780   59.2820 H   0  0  0  0  0  0  0  0  0  0  0  0
  129.5623  131.6288   58.9534 H   0  0  0  0  0  0  0  0  0  0  0  0
  131.6600  131.5020   57.5930 H   0  0  0  0  0  0  0  0  0  0  0  0
  128.7521  131.0230   56.0765 H   0  0  0  0  0  0  0  0  0  0  0  0
  128.7840  133.2510   57.1600 H   0  0  0  0  0  0  0  0  0  0  0  0
  127.0250  130.7259   58.5764 H   0  0  0  0  0  0  0  0  0  0  0  0
  125.8780  129.4940   56.7120 H   0  0  0  0  0  0  0  0  0  0  0  0
  127.9981  125.8632   57.7471 H   0  0  0  0  0  0  0  0  0  0  0  0
  130.2999  124.0443   62.7982 H   0  0  0  0  0  0  0  0  0  0  0  0
  130.6785  125.4153   60.5233 H   0  0  0  0  0  0  0  0  0  0  0  0
  132.9082  124.6273   60.1943 H   0  0  0  0  0  0  0  0  0  0  0  0
  134.5818  122.7784   60.1413 H   0  0  0  0  0  0  0  0  0  0  0  0
  134.7400  120.3490   61.1770 H   0  0  0  0  0  0  0  0  0  0  0  0
  131.4576  119.9186   61.0017 H   0  0  0  0  0  0  0  0  0  0  0  0
  129.7803  121.7642   61.0581 H   0  0  0  0  0  0  0  0  0  0  0  0
  2  1  1  6
  2  3  1  0
  3  4  2  0
  4  5  1  0
  5  6  2  0
  6  7  1  0
  7  8  2  0
  8  9  1  0
  9 10  2  0
 10 11  1  0
 11 12  1  0
 11 13  1  0
 11 14  1  0
 10 15  1  0
 15 16  2  0
  6 17  1  0
  2 18  1  0
 18 19  1  0
 19 20  2  0
 20 21  1  0
 21 22  1  0
 22 23  1  0
 23 24  1  0
 24 25  1  0
 25 26  1  0
 26 27  1  0
 25 28  1  0
 28 29  1  0
 28 30  1  0
 30 31  1  0
 30 32  1  0
 32 33  1  0
 21 34  2  0
 34 35  1  0
 35 36  2  0
 36 37  1  0
 37 38  2  0
 37 39  1  0
 39 40  1  0
 40 41  1  0
 41 42  2  0
 42 43  1  0
 43 44  2  0
 44 45  1  0
 44 46  1  0
 46 47  2  0
 40 48  1  0
 39  2  1  0
 47 41  1  0
 17  3  1  0
 36 19  1  0
 16  7  1  0
 32 23  1  0
 48 35  1  0
  1 49  1  0
  1 50  1  0
  1 51  1  0
  4 52  1  0
  5 53  1  0
  8 54  1  0
  9 55  1  0
 15 56  1  0
 16 57  1  0
 20 58  1  0
 23 59  1  6
 25 60  1  6
 26 61  1  0
 26 62  1  0
 27 63  1  0
 28 64  1  1
 29 65  1  0
 30 66  1  6
 31 67  1  0
 32 68  1  1
 33 69  1  0
 34 70  1  0
 39 71  1  1
 40 72  1  6
 42 73  1  0
 43 74  1  0
 45 75  1  0
 46 76  1  0
 47 77  1  0
M  END
>  <Binding energies>  (1) 
[-7.7]

>  <Ligand effiencies>  (1) 
[-0.14528301886792452]

>  <Interactions>  (1) 
["V-A:ILE:369:CG2:3237, V-B:GLU:543:C:9874, V-B:HIS:456:CD2:9039, V-A:GLU:543:C:4902, V-A:ILE:369:CB:3236, V-B:GLU:543:CB:9878, V-B:TYR:539:CE2:9848, V-A:TYR:484:CE2:4346, V-B:GLU:543:CG:9879, V-A:ASP:366:CG:3213, H-B:ALA:541:N:9863, V-A:GLU:543:CD:4908, V-A:TYR:484:CZ:4347, V-B:HIS:456:CE1:9041, V-B:GLU:543:CA:9876, V-A:HIS:456:CE1:4070, V-A:ILE:369:CD1:3239, V-B:TYR:539:CD2:9846, H-A:SER:385:OG:3410, V-B:GLU:543:CD:9880, V-B:HIS:456:CG:9037, V-A:MET:535:CE:4835, H-B:TYR:531:OH:9767, V-A:LEU:475:CD2:4259, V-A:GLU:543:CB:4906, H-A:SER:385:O:3406, H-A:ASP:366:OD2:3215"]

$$$$
ZINC587319737
     RDKit          3D

 59 62  0  0  0  0  0  0  0  0999 V2000
  128.0820  124.3940   56.9290 C   0  0  0  0  0  0  0  0  0  0  0  0
  127.1960  123.3760   57.6890 C   0  0  0  0  0  0  0  0  0  0  0  0
  128.0530  122.4960   58.6320 C   0  0  0  0  0  0  0  0  0  0  0  0
  126.4650  122.4800   56.6690 C   0  0  0  0  0  0  0  0  0  0  0  0
  126.1350  124.0120   58.4210 O   0  0  0  0  0  0  0  0  0  0  0  0
  126.0260  125.3540   58.6640 C   0  0  0  0  0  0  0  0  0  0  0  0
  125.5760  126.1750   57.8650 O   0  0  0  0  0  0  0  0  0  0  0  0
  126.4480  125.6880   59.9500 N   0  0  0  0  0  0  0  0  0  0  0  0
  127.1420  124.9050   60.8940 C   0  0  0  0  0  0  0  0  0  0  0  0
  126.5800  123.6960   61.3330 C   0  0  0  0  0  0  0  0  0  0  0  0
  127.2690  122.8680   62.2120 C   0  0  0  0  0  0  0  0  0  0  0  0
  128.5380  123.2300   62.6480 C   0  0  0  0  0  0  0  0  0  0  0  0
  129.4930  122.0950   63.8400 Br  0  0  0  0  0  0  0  0  0  0  0  0
  129.1140  124.4180   62.2070 C   0  0  0  0  0  0  0  0  0  0  0  0
  128.4360  125.2880   61.3320 C   0  0  0  0  0  0  0  0  0  0  0  0
  129.1120  126.6190   60.8530 C   0  0  1  0  0  0  0  0  0  0  0  0
  128.1080  127.7710   61.1160 C   0  0  0  0  0  0  0  0  0  0  0  0
  130.2920  126.8970   61.6340 O   0  0  0  0  0  0  0  0  0  0  0  0
  131.3400  126.0090   61.4640 C   0  0  0  0  0  0  0  0  0  0  0  0
  132.1670  125.7980   62.5670 C   0  0  0  0  0  0  0  0  0  0  0  0
  133.2510  124.9220   62.4670 C   0  0  0  0  0  0  0  0  0  0  0  0
  134.0100  124.7240   63.4670 O   0  0  0  0  0  0  0  0  0  0  0  0
  133.5020  124.2650   61.2580 C   0  0  0  0  0  0  0  0  0  0  0  0
  132.6790  124.4900   60.1540 C   0  0  0  0  0  0  0  0  0  0  0  0
  131.5920  125.3690   60.2390 C   0  0  0  0  0  0  0  0  0  0  0  0
  130.7130  125.6340   59.0640 C   0  0  0  0  0  0  0  0  0  0  0  0
  130.8920  125.0910   57.9720 O   0  0  0  0  0  0  0  0  0  0  0  0
  129.5630  126.6310   59.3350 C   0  0  2  0  0  0  0  0  0  0  0  0
  129.9510  128.0130   58.7700 C   0  0  0  0  0  0  0  0  0  0  0  0
  129.3450  128.5500   57.6240 C   0  0  0  0  0  0  0  0  0  0  0  0
  129.7460  129.7890   57.1310 C   0  0  0  0  0  0  0  0  0  0  0  0
  130.7590  130.4940   57.7750 C   0  0  0  0  0  0  0  0  0  0  0  0
  131.1510  131.6960   57.2950 F   0  0  0  0  0  0  0  0  0  0  0  0
  131.3750  129.9690   58.9090 C   0  0  0  0  0  0  0  0  0  0  0  0
  130.9730  128.7310   59.4010 C   0  0  0  0  0  0  0  0  0  0  0  0
  128.6258  125.0189   57.6527 H   0  0  0  0  0  0  0  0  0  0  0  0
  128.8022  123.8534   56.2973 H   0  0  0  0  0  0  0  0  0  0  0  0
  127.4472  125.0327   56.2973 H   0  0  0  0  0  0  0  0  0  0  0  0
  127.8153  122.7401   59.6779 H   0  0  0  0  0  0  0  0  0  0  0  0
  127.8328  121.4348   58.4440 H   0  0  0  0  0  0  0  0  0  0  0  0
  129.1197  122.6880   58.4440 H   0  0  0  0  0  0  0  0  0  0  0  0
  125.8575  121.7354   57.2042 H   0  0  0  0  0  0  0  0  0  0  0  0
  125.8121  123.1005   56.0376 H   0  0  0  0  0  0  0  0  0  0  0  0
  127.2039  121.9650   56.0376 H   0  0  0  0  0  0  0  0  0  0  0  0
  126.1820  126.6070   60.2720 H   0  0  0  0  0  0  0  0  0  0  0  0
  125.5821  123.4000   60.9772 H   0  0  0  0  0  0  0  0  0  0  0  0
  126.8117  121.9304   62.5609 H   0  0  0  0  0  0  0  0  0  0  0  0
  130.1245  124.6838   62.5509 H   0  0  0  0  0  0  0  0  0  0  0  0
  127.9862  127.9108   62.2003 H   0  0  0  0  0  0  0  0  0  0  0  0
  128.4899  128.6998   60.6672 H   0  0  0  0  0  0  0  0  0  0  0  0
  127.1357  127.5196   60.6672 H   0  0  0  0  0  0  0  0  0  0  0  0
  131.9663  126.3203   63.5141 H   0  0  0  0  0  0  0  0  0  0  0  0
  134.3502  123.5693   61.1774 H   0  0  0  0  0  0  0  0  0  0  0  0
  132.8862  123.9713   59.2064 H   0  0  0  0  0  0  0  0  0  0  0  0
  128.6532  126.3194   58.8011 H   0  0  0  0  0  0  0  0  0  0  0  0
  128.5489  127.9892   57.1123 H   0  0  0  0  0  0  0  0  0  0  0  0
  129.2641  130.2092   56.2359 H   0  0  0  0  0  0  0  0  0  0  0  0
  132.1754  130.5305   59.4131 H   0  0  0  0  0  0  0  0  0  0  0  0
  131.4625  128.3134   60.2932 H   0  0  0  0  0  0  0  0  0  0  0  0
  1  2  1  0
  2  3  1  0
  2  4  1  0
  2  5  1  0
  5  6  1  0
  6  7  2  0
  6  8  1  0
  8  9  1  0
  9 10  2  0
 10 11  1  0
 11 12  2  0
 12 13  1  0
 12 14  1  0
 14 15  2  0
 15 16  1  0
 16 17  1  6
 16 18  1  0
 18 19  1  0
 19 20  2  0
 20 21  1  0
 21 22  1  0
 21 23  2  0
 23 24  1  0
 24 25  2  0
 25 26  1  0
 26 27  2  0
 26 28  1  0
 28 29  1  0
 29 30  2  0
 30 31  1  0
 31 32  2  0
 32 33  1  0
 32 34  1  0
 34 35  2  0
 15  9  1  0
 28 16  1  0
 35 29  1  0
 25 19  1  0
  1 36  1  0
  1 37  1  0
  1 38  1  0
  3 39  1  0
  3 40  1  0
  3 41  1  0
  4 42  1  0
  4 43  1  0
  4 44  1  0
  8 45  1  0
 10 46  1  0
 11 47  1  0
 14 48  1  0
 17 49  1  0
 17 50  1  0
 17 51  1  0
 20 52  1  0
 23 53  1  0
 24 54  1  0
 28 55  1  6
 30 56  1  0
 31 57  1  0
 34 58  1  0
 35 59  1  0
M  CHG  1  22  -1
M  END
>  <Binding energies>  (1) 
[-6.43]

>  <Ligand effiencies>  (1) 
[-0.1786111111111111]

>  <Interactions>  (1) 
["V-B:PRO:540:CA:9855, V-B:ALA:541:CB:9864, V-B:TYR:539:CE2:9848, H-A:ARG:545:NH1:4927, V-B:GLU:543:CG:9879, V-B:TYR:539:C:9839, V-A:ASP:366:CG:3213, V-B:TYR:539:CZ:9849, H-B:GLU:543:OE1:9881, H-B:TYR:539:OH:9850, V-B:PRO:540:CB:9857, H-B:ASP:366:OD1:8185, H-A:GLY:454:N:4050, V-B:PRO:540:N:9856, V-B:TYR:539:CD2:9846, V-B:PRO:540:CD:9859, V-B:GLU:543:CD:9880, V-A:MET:535:CE:4835, H-B:TYR:531:OH:9767, V-A:LEU:475:CD2:4259, H-A:ARG:545:NH2:4928, V-A:ARG:545:CZ:4926, V-B:TYR:539:CG:9844, V-B:PRO:540:C:9853, V-B:ALA:541:CA:9862"]

$$$$
ZINC587319737-again1
     RDKit          3D

 60 63  0  0  0  0  0  0  0  0999 V2000
  125.9570  125.0790   57.3510 C   0  0  0  0  0  0  0  0  0  0  0  0
  127.4670  125.3150   57.6030 C   0  0  0  0  0  0  0  0  0  0  0  0
  127.9500  126.6170   56.9210 C   0  0  0  0  0  0  0  0  0  0  0  0
  128.2680  124.1180   57.0490 C   0  0  0  0  0  0  0  0  0  0  0  0
  127.7620  125.3170   59.0110 O   0  0  0  0  0  0  0  0  0  0  0  0
  127.2760  124.4240   59.9290 C   0  0  0  0  0  0  0  0  0  0  0  0
  126.9830  123.2550   59.6830 O   0  0  0  0  0  0  0  0  0  0  0  0
  127.1990  124.9860   61.2040 N   0  0  0  0  0  0  0  0  0  0  0  0
  127.5090  126.3030   61.5820 C   0  0  0  0  0  0  0  0  0  0  0  0
  126.4750  127.2500   61.6170 C   0  0  0  0  0  0  0  0  0  0  0  0
  126.7360  128.5670   61.9760 C   0  0  0  0  0  0  0  0  0  0  0  0
  128.0300  128.9490   62.3100 C   0  0  0  0  0  0  0  0  0  0  0  0
  128.3970  130.7540   62.7840 Br  0  0  0  0  0  0  0  0  0  0  0  0
  129.0610  128.0100   62.2930 C   0  0  0  0  0  0  0  0  0  0  0  0
  128.8290  126.6670   61.9430 C   0  0  0  0  0  0  0  0  0  0  0  0
  130.0040  125.6430   61.8880 C   0  0  1  0  0  0  0  0  0  0  0  0
  129.5030  124.1620   61.9150 C   0  0  0  0  0  0  0  0  0  0  0  0
  130.6570  125.8010   60.6130 O   0  0  0  0  0  0  0  0  0  0  0  0
  131.8850  125.1880   60.4470 C   0  0  0  0  0  0  0  0  0  0  0  0
  132.2430  124.8970   59.1300 C   0  0  0  0  0  0  0  0  0  0  0  0
  133.4600  124.2750   58.8610 C   0  0  0  0  0  0  0  0  0  0  0  0
  133.8100  123.9830   57.5700 O   0  0  0  0  0  0  0  0  0  0  0  0
  134.3200  123.9480   59.9090 C   0  0  0  0  0  0  0  0  0  0  0  0
  133.9660  124.2460   61.2240 C   0  0  0  0  0  0  0  0  0  0  0  0
  132.7480  124.8800   61.5130 C   0  0  0  0  0  0  0  0  0  0  0  0
  132.3590  125.1920   62.9180 C   0  0  0  0  0  0  0  0  0  0  0  0
  133.0790  124.8780   63.8700 O   0  0  0  0  0  0  0  0  0  0  0  0
  131.0210  125.9570   63.0480 C   0  0  2  0  0  0  0  0  0  0  0  0
  130.4300  125.8930   64.4700 C   0  0  0  0  0  0  0  0  0  0  0  0
  129.4970  126.8330   64.9320 C   0  0  0  0  0  0  0  0  0  0  0  0
  129.0120  126.7580   66.2350 C   0  0  0  0  0  0  0  0  0  0  0  0
  129.4600  125.7480   67.0830 C   0  0  0  0  0  0  0  0  0  0  0  0
  128.9910  125.6760   68.3480 F   0  0  0  0  0  0  0  0  0  0  0  0
  130.3930  124.8140   66.6380 C   0  0  0  0  0  0  0  0  0  0  0  0
  130.8780  124.8900   65.3360 C   0  0  0  0  0  0  0  0  0  0  0  0
  125.4329  124.9971   58.3146 H   0  0  0  0  0  0  0  0  0  0  0  0
  125.5442  125.9235   56.7797 H   0  0  0  0  0  0  0  0  0  0  0  0
  125.8216  124.1488   56.7797 H   0  0  0  0  0  0  0  0  0  0  0  0
  128.2235  127.3542   57.6903 H   0  0  0  0  0  0  0  0  0  0  0  0
  128.8270  126.3989   56.2939 H   0  0  0  0  0  0  0  0  0  0  0  0
  127.1429  127.0236   56.2939 H   0  0  0  0  0  0  0  0  0  0  0  0
  128.6654  123.5242   57.8853 H   0  0  0  0  0  0  0  0  0  0  0  0
  127.6084  123.4888   56.4334 H   0  0  0  0  0  0  0  0  0  0  0  0
  129.1012  124.4878   56.4334 H   0  0  0  0  0  0  0  0  0  0  0  0
  127.0140  124.3440   61.9610 H   0  0  0  0  0  0  0  0  0  0  0  0
  125.4494  126.9479   61.3583 H   0  0  0  0  0  0  0  0  0  0  0  0
  125.9207  129.3051   61.9958 H   0  0  0  0  0  0  0  0  0  0  0  0
  130.0801  128.3269   62.5596 H   0  0  0  0  0  0  0  0  0  0  0  0
  129.3913  123.8317   62.9583 H   0  0  0  0  0  0  0  0  0  0  0  0
  128.5319  124.0940   61.4029 H   0  0  0  0  0  0  0  0  0  0  0  0
  130.2334  123.5184   61.4029 H   0  0  0  0  0  0  0  0  0  0  0  0
  131.5645  125.1587   58.3047 H   0  0  0  0  0  0  0  0  0  0  0  0
  134.6530  124.3660   57.3160 H   0  0  0  0  0  0  0  0  0  0  0  0
  135.2797  123.4539   59.6975 H   0  0  0  0  0  0  0  0  0  0  0  0
  134.6492  123.9811   62.0444 H   0  0  0  0  0  0  0  0  0  0  0  0
  131.2588  127.0209   62.9008 H   0  0  0  0  0  0  0  0  0  0  0  0
  129.1472  127.6325   64.2623 H   0  0  0  0  0  0  0  0  0  0  0  0
  128.2774  127.4941   66.5935 H   0  0  0  0  0  0  0  0  0  0  0  0
  130.7448  124.0199   67.3130 H   0  0  0  0  0  0  0  0  0  0  0  0
  131.6188  124.1563   64.9853 H   0  0  0  0  0  0  0  0  0  0  0  0
  1  2  1  0
  2  3  1  0
  2  4  1  0
  2  5  1  0
  5  6  1  0
  6  7  2  0
  6  8  1  0
  8  9  1  0
  9 10  2  0
 10 11  1  0
 11 12  2  0
 12 13  1  0
 12 14  1  0
 14 15  2  0
 15 16  1  0
 16 17  1  1
 16 18  1  0
 18 19  1  0
 19 20  2  0
 20 21  1  0
 21 22  1  0
 21 23  2  0
 23 24  1  0
 24 25  2  0
 25 26  1  0
 26 27  2  0
 26 28  1  0
 28 29  1  0
 29 30  2  0
 30 31  1  0
 31 32  2  0
 32 33  1  0
 32 34  1  0
 34 35  2  0
 15  9  1  0
 28 16  1  0
 35 29  1  0
 25 19  1  0
  1 36  1  0
  1 37  1  0
  1 38  1  0
  3 39  1  0
  3 40  1  0
  3 41  1  0
  4 42  1  0
  4 43  1  0
  4 44  1  0
  8 45  1  0
 10 46  1  0
 11 47  1  0
 14 48  1  0
 17 49  1  0
 17 50  1  0
 17 51  1  0
 20 52  1  0
 22 53  1  0
 23 54  1  0
 24 55  1  0
 28 56  1  6
 30 57  1  0
 31 58  1  0
 34 59  1  0
 35 60  1  0
M  END
>  <Binding energies>  (1) 
[-7.9]

>  <Ligand effiencies>  (1) 
[-0.21351351351351353]

>  <Interactions>  (1) 
["V-A:ILE:369:CG2:3237, V-A:ASP:366:CA:3210, V-B:GLU:543:C:9874, V-A:ILE:369:CB:3236, V-B:GLU:543:CB:9878, V-B:ASP:366:CG:8184, V-B:TYR:539:CE2:9848, V-A:TYR:484:CE2:4346, V-B:GLU:543:CG:9879, V-A:ASP:366:CG:3213, V-B:TYR:539:CZ:9849, H-A:ASN:370:N:3244, H-B:GLU:543:OE1:9881, H-B:TYR:539:OH:9850, V-B:TYR:531:CE2:9765, V-A:GLU:543:CD:4908, V-A:TYR:484:CZ:4347, V-B:GLU:543:CA:9876, V-A:ILE:369:CD1:3239, V-A:HIS:456:CE1:4070, V-B:GLU:543:CD:9880, V-A:ILE:369:CG1:3238, V-A:ASP:366:CB:3212, H-A:ARG:545:NH2:4928, V-A:ARG:545:CZ:4926, H-A:ASP:366:O:3209, V-B:TYR:539:CE1:9847"]

$$$$
ZINC587320452
     RDKit          3D

 46 49  0  0  0  0  0  0  0  0999 V2000
  126.0310  123.6020   61.0900 C   0  0  0  0  0  0  0  0  0  0  0  0
  127.3080  123.8050   61.9280 C   0  0  0  0  0  0  0  0  0  0  0  0
  128.6450  123.3780   61.2480 C   0  0  2  0  0  0  0  0  0  0  0  0
  128.4560  123.4480   59.7050 C   0  0  0  0  0  0  0  0  0  0  0  0
  127.9460  122.3570   58.9840 C   0  0  0  0  0  0  0  0  0  0  0  0
  127.7990  122.4200   57.5980 C   0  0  0  0  0  0  0  0  0  0  0  0
  128.1770  123.5690   56.9070 C   0  0  0  0  0  0  0  0  0  0  0  0
  128.7130  124.6500   57.6020 C   0  0  0  0  0  0  0  0  0  0  0  0
  129.2510  126.2160   56.6620 Br  0  0  0  0  0  0  0  0  0  0  0  0
  128.8600  124.5860   58.9870 C   0  0  0  0  0  0  0  0  0  0  0  0
  128.9070  122.0270   61.6860 O   0  0  0  0  0  0  0  0  0  0  0  0
  130.1130  121.4820   61.2840 C   0  0  0  0  0  0  0  0  0  0  0  0
  130.1420  120.0970   61.1170 C   0  0  0  0  0  0  0  0  0  0  0  0
  131.3210  119.4740   60.7080 C   0  0  0  0  0  0  0  0  0  0  0  0
  131.3530  118.1160   60.5340 O   0  0  0  0  0  0  0  0  0  0  0  0
  132.4660  120.2330   60.4740 C   0  0  0  0  0  0  0  0  0  0  0  0
  132.4380  121.6170   60.6530 C   0  0  0  0  0  0  0  0  0  0  0  0
  131.2630  122.2610   61.0660 C   0  0  0  0  0  0  0  0  0  0  0  0
  131.2140  123.7370   61.2690 C   0  0  0  0  0  0  0  0  0  0  0  0
  132.1930  124.4580   61.0710 O   0  0  0  0  0  0  0  0  0  0  0  0
  129.8480  124.2760   61.7470 C   0  0  2  0  0  0  0  0  0  0  0  0
  129.9060  124.5260   63.2680 C   0  0  0  0  0  0  0  0  0  0  0  0
  130.1320  123.4370   64.1170 C   0  0  0  0  0  0  0  0  0  0  0  0
  130.2160  123.6230   65.4950 C   0  0  0  0  0  0  0  0  0  0  0  0
  130.0820  124.9030   66.0290 C   0  0  0  0  0  0  0  0  0  0  0  0
  130.1660  125.0850   67.3650 F   0  0  0  0  0  0  0  0  0  0  0  0
  129.8670  125.9970   65.1950 C   0  0  0  0  0  0  0  0  0  0  0  0
  129.7830  125.8110   63.8180 C   0  0  0  0  0  0  0  0  0  0  0  0
  125.1701  123.4651   61.7609 H   0  0  0  0  0  0  0  0  0  0  0  0
  125.8646  124.4850   60.4554 H   0  0  0  0  0  0  0  0  0  0  0  0
  126.1466  122.7110   60.4554 H   0  0  0  0  0  0  0  0  0  0  0  0
  127.3823  124.8743   62.1752 H   0  0  0  0  0  0  0  0  0  0  0  0
  127.1967  123.1483   62.8034 H   0  0  0  0  0  0  0  0  0  0  0  0
  127.6583  121.4399   59.5190 H   0  0  0  0  0  0  0  0  0  0  0  0
  127.3840  121.5612   57.0501 H   0  0  0  0  0  0  0  0  0  0  0  0
  128.0524  123.6222   55.8154 H   0  0  0  0  0  0  0  0  0  0  0  0
  129.2987  125.4390   59.5254 H   0  0  0  0  0  0  0  0  0  0  0  0
  129.2386  119.4989   61.3071 H   0  0  0  0  0  0  0  0  0  0  0  0
  131.9310  117.6720   61.1580 H   0  0  0  0  0  0  0  0  0  0  0  0
  133.3938  119.7404   60.1476 H   0  0  0  0  0  0  0  0  0  0  0  0
  133.3469  122.2084   60.4682 H   0  0  0  0  0  0  0  0  0  0  0  0
  129.6393  125.2502   61.2808 H   0  0  0  0  0  0  0  0  0  0  0  0
  130.2440  122.4279   63.6938 H   0  0  0  0  0  0  0  0  0  0  0  0
  130.3874  122.7628   66.1589 H   0  0  0  0  0  0  0  0  0  0  0  0
  129.7638  127.0051   65.6229 H   0  0  0  0  0  0  0  0  0  0  0  0
  129.6194  126.6756   63.1579 H   0  0  0  0  0  0  0  0  0  0  0  0
  1  2  1  0
  3  2  1  1
  3  4  1  0
  4  5  2  0
  5  6  1  0
  6  7  2  0
  7  8  1  0
  8  9  1  0
  8 10  2  0
  3 11  1  0
 11 12  1  0
 12 13  2  0
 13 14  1  0
 14 15  1  0
 14 16  2  0
 16 17  1  0
 17 18  2  0
 18 19  1  0
 19 20  2  0
 19 21  1  0
 21 22  1  0
 22 23  2  0
 23 24  1  0
 24 25  2  0
 25 26  1  0
 25 27  1  0
 27 28  2  0
 21  3  1  0
 28 22  1  0
 10  4  1  0
 18 12  1  0
  1 29  1  0
  1 30  1  0
  1 31  1  0
  2 32  1  0
  2 33  1  0
  5 34  1  0
  6 35  1  0
  7 36  1  0
 10 37  1  0
 13 38  1  0
 15 39  1  0
 16 40  1  0
 17 41  1  0
 21 42  1  6
 23 43  1  0
 24 44  1  0
 27 45  1  0
 28 46  1  0
M  END
>  <Binding energies>  (1) 
[-7.08]

>  <Ligand effiencies>  (1) 
[-0.24413793103448275]

>  <Interactions>  (1) 
["V-A:ILE:369:CG2:3237, V-B:TYR:539:CA:9841, V-B:PRO:540:CA:9855, V-B:GLU:543:CB:9878, V-B:ALA:541:CB:9864, V-B:TYR:539:CE2:9848, V-A:TYR:484:CE2:4346, V-B:GLU:543:CG:9879, V-B:TYR:539:C:9839, V-B:TYR:539:CZ:9849, H-B:ALA:541:N:9863, V-A:TYR:484:CZ:4347, V-B:PRO:540:CB:9857, V-A:GLU:543:CD:4908, V-B:PRO:540:N:9856, V-A:HIS:456:CE1:4070, V-B:TYR:539:CD2:9846, V-A:SER:385:CB:3409, H-A:SER:385:OG:3410, V-B:GLU:543:CD:9880, V-A:LEU:475:CD2:4259, V-B:TYR:539:CG:9844, H-A:HIS:383:HE2:3395, V-B:TYR:539:CD1:9845, V-B:TYR:539:CE1:9847"]

$$$$
ZINC587324707
     RDKit          3D

 44 47  0  0  0  0  0  0  0  0999 V2000
  128.0450  123.9320   60.8790 C   0  0  0  0  0  0  0  0  0  0  0  0
  129.0710  124.4000   59.8690 C   0  0  0  0  0  0  0  0  0  0  0  0
  130.3450  124.9880   60.1220 C   0  0  0  0  0  0  0  0  0  0  0  0
  130.9960  125.3300   61.4740 C   0  0  1  0  0  0  0  0  0  0  0  0
  131.4190  126.8290   61.4550 C   0  0  0  0  0  0  0  0  0  0  0  0
  130.0060  125.1900   62.5080 O   0  0  0  0  0  0  0  0  0  0  0  0
  130.4430  125.2890   63.8160 C   0  0  0  0  0  0  0  0  0  0  0  0
  129.4850  125.6930   64.7470 C   0  0  0  0  0  0  0  0  0  0  0  0
  129.8320  125.8140   66.0920 C   0  0  0  0  0  0  0  0  0  0  0  0
  128.8960  126.2150   67.0060 O   0  0  0  0  0  0  0  0  0  0  0  0
  131.1340  125.5290   66.5030 C   0  0  0  0  0  0  0  0  0  0  0  0
  132.0880  125.1170   65.5720 C   0  0  0  0  0  0  0  0  0  0  0  0
  131.7540  124.9840   64.2150 C   0  0  0  0  0  0  0  0  0  0  0  0
  132.7660  124.5430   63.2130 C   0  0  0  0  0  0  0  0  0  0  0  0
  133.9330  124.2990   63.5270 O   0  0  0  0  0  0  0  0  0  0  0  0
  132.2390  124.4110   61.7670 C   0  0  1  0  0  0  0  0  0  0  0  0
  132.0420  122.9210   61.4220 C   0  0  0  0  0  0  0  0  0  0  0  0
  133.1020  122.2260   60.8270 C   0  0  0  0  0  0  0  0  0  0  0  0
  132.9540  120.8910   60.4640 C   0  0  0  0  0  0  0  0  0  0  0  0
  131.7430  120.2430   60.6910 C   0  0  0  0  0  0  0  0  0  0  0  0
  131.5980  118.9460   60.3370 F   0  0  0  0  0  0  0  0  0  0  0  0
  130.6770  120.9220   61.2770 C   0  0  0  0  0  0  0  0  0  0  0  0
  130.8240  122.2570   61.6390 C   0  0  0  0  0  0  0  0  0  0  0  0
  130.9210  125.1920   58.8670 C   0  0  0  0  0  0  0  0  0  0  0  0
  130.0830  124.7360   57.8940 N   0  0  0  0  0  0  0  0  0  0  0  0
  128.9620  124.2380   58.4890 C   0  0  0  0  0  0  0  0  0  0  0  0
  127.5680  123.4860   57.4330 Br  0  0  0  0  0  0  0  0  0  0  0  0
  128.4260  124.1058   61.8962 H   0  0  0  0  0  0  0  0  0  0  0  0
  127.1090  124.4922   60.7374 H   0  0  0  0  0  0  0  0  0  0  0  0
  127.8545  122.8579   60.7374 H   0  0  0  0  0  0  0  0  0  0  0  0
  131.5220  127.1940   62.4875 H   0  0  0  0  0  0  0  0  0  0  0  0
  132.3812  126.9319   60.9320 H   0  0  0  0  0  0  0  0  0  0  0  0
  130.6525  127.4197   60.9320 H   0  0  0  0  0  0  0  0  0  0  0  0
  128.4584  125.9155   64.4204 H   0  0  0  0  0  0  0  0  0  0  0  0
  128.0830  126.5240   66.5990 H   0  0  0  0  0  0  0  0  0  0  0  0
  131.4093  125.6293   67.5633 H   0  0  0  0  0  0  0  0  0  0  0  0
  133.1125  124.8941   65.9048 H   0  0  0  0  0  0  0  0  0  0  0  0
  132.9985  124.8018   61.0739 H   0  0  0  0  0  0  0  0  0  0  0  0
  134.0580  122.7388   60.6454 H   0  0  0  0  0  0  0  0  0  0  0  0
  133.7911  120.3494   59.9992 H   0  0  0  0  0  0  0  0  0  0  0  0
  129.7225  120.4043   61.4528 H   0  0  0  0  0  0  0  0  0  0  0  0
  129.9816  122.7954   62.0977 H   0  0  0  0  0  0  0  0  0  0  0  0
  131.9043  125.6521   58.6899 H   0  0  0  0  0  0  0  0  0  0  0  0
  130.2650  124.7520   56.9010 H   0  0  0  0  0  0  0  0  0  0  0  0
  1  2  1  0
  2  3  1  0
  3  4  1  0
  4  5  1  6
  4  6  1  0
  6  7  1  0
  7  8  2  0
  8  9  1  0
  9 10  1  0
  9 11  2  0
 11 12  1  0
 12 13  2  0
 13 14  1  0
 14 15  2  0
 14 16  1  0
 16 17  1  0
 17 18  2  0
 18 19  1  0
 19 20  2  0
 20 21  1  0
 20 22  1  0
 22 23  2  0
  3 24  2  0
 24 25  1  0
 25 26  1  0
 26 27  1  0
 26  2  2  0
 16  4  1  0
 23 17  1  0
 13  7  1  0
  1 28  1  0
  1 29  1  0
  1 30  1  0
  5 31  1  0
  5 32  1  0
  5 33  1  0
  8 34  1  0
 10 35  1  0
 11 36  1  0
 12 37  1  0
 16 38  1  6
 18 39  1  0
 19 40  1  0
 22 41  1  0
 23 42  1  0
 24 43  1  0
 25 44  1  0
M  END
>  <Binding energies>  (1) 
[-7.24]

>  <Ligand effiencies>  (1) 
[-0.24965517241379312]

>  <Interactions>  (1) 
["V-A:ILE:369:CG2:3237, V-A:HIS:456:CE1:4070, H-B:GLU:543:OE2:9882, V-B:TYR:539:CZ:9849, H-B:TYR:539:OH:9850, V-B:GLU:543:CB:9878, V-B:TYR:539:CD2:9846, V-A:SER:385:CB:3409, V-B:GLU:543:CD:9880, V-A:GLU:543:CD:4908, V-A:TYR:484:CZ:4347, V-B:TYR:539:CE2:9848, V-A:LEU:475:CD2:4259, V-B:GLU:543:CG:9879, V-A:HIS:383:NE2:3394, H-A:GLY:454:N:4050, V-A:ASP:366:CG:3213"]

$$$$
ZINC587331338
     RDKit          3D

 61 65  0  0  0  0  0  0  0  0999 V2000
  131.0170  124.2360   62.7640 C   0  0  0  0  0  0  0  0  0  0  0  0
  130.4080  124.3570   61.3340 C   0  0  1  0  0  0  0  0  0  0  0  0
  130.3100  125.8590   60.9860 C   0  0  0  0  0  0  0  0  0  0  0  0
  130.9960  126.4010   59.8900 C   0  0  0  0  0  0  0  0  0  0  0  0
  130.8790  127.7550   59.5760 C   0  0  0  0  0  0  0  0  0  0  0  0
  130.0730  128.6000   60.3480 C   0  0  0  0  0  0  0  0  0  0  0  0
  129.9530  129.9440   60.0350 N   0  0  0  0  0  0  0  0  0  0  0  0
  131.1480  130.6450   59.5480 C   0  0  0  0  0  0  0  0  0  0  0  0
  131.0070  132.1800   59.4460 C   0  0  0  0  0  0  0  0  0  0  0  0
  129.7750  132.4980   58.7090 N   0  0  0  0  0  0  0  0  0  0  0  0
  129.8140  133.1990   57.5430 C   0  0  0  0  0  0  0  0  0  0  0  0
  130.8690  133.6210   57.0640 O   0  0  0  0  0  0  0  0  0  0  0  0
  128.4920  133.5240   56.8200 C   0  0  0  0  0  0  0  0  0  0  0  0
  127.5160  132.0840   56.4010 Cl  0  0  0  0  0  0  0  0  0  0  0  0
  128.5440  131.9160   59.2650 C   0  0  0  0  0  0  0  0  0  0  0  0
  128.7190  130.3830   59.3700 C   0  0  0  0  0  0  0  0  0  0  0  0
  129.3820  128.0640   61.4410 C   0  0  0  0  0  0  0  0  0  0  0  0
  128.5880  128.8490   62.2080 F   0  0  0  0  0  0  0  0  0  0  0  0
  129.5000  126.7100   61.7520 C   0  0  0  0  0  0  0  0  0  0  0  0
  131.3110  123.7010   60.4190 O   0  0  0  0  0  0  0  0  0  0  0  0
  131.3990  122.3250   60.5120 C   0  0  0  0  0  0  0  0  0  0  0  0
  132.6080  121.7610   60.1020 C   0  0  0  0  0  0  0  0  0  0  0  0
  132.7820  120.3760   60.1500 C   0  0  0  0  0  0  0  0  0  0  0  0
  133.8840  119.8560   59.7840 O   0  0  0  0  0  0  0  0  0  0  0  0
  131.7400  119.5630   60.6060 C   0  0  0  0  0  0  0  0  0  0  0  0
  130.5290  120.1320   61.0040 C   0  0  0  0  0  0  0  0  0  0  0  0
  130.3390  121.5200   60.9570 C   0  0  0  0  0  0  0  0  0  0  0  0
  129.0490  122.1380   61.3800 C   0  0  0  0  0  0  0  0  0  0  0  0
  128.1070  121.4630   61.7990 O   0  0  0  0  0  0  0  0  0  0  0  0
  128.9920  123.6750   61.2520 C   0  0  2  0  0  0  0  0  0  0  0  0
  128.1680  124.0390   60.0020 C   0  0  0  0  0  0  0  0  0  0  0  0
  127.2690  125.1160   60.0000 C   0  0  0  0  0  0  0  0  0  0  0  0
  126.5150  125.3980   58.8640 C   0  0  0  0  0  0  0  0  0  0  0  0
  126.6500  124.6010   57.7290 C   0  0  0  0  0  0  0  0  0  0  0  0
  125.9160  124.8730   56.6270 F   0  0  0  0  0  0  0  0  0  0  0  0
  127.5330  123.5240   57.7230 C   0  0  0  0  0  0  0  0  0  0  0  0
  128.2880  123.2420   58.8580 C   0  0  0  0  0  0  0  0  0  0  0  0
  130.2272  124.3929   63.5134 H   0  0  0  0  0  0  0  0  0  0  0  0
  131.4517  123.2339   62.8938 H   0  0  0  0  0  0  0  0  0  0  0  0
  131.8018  124.9958   62.8938 H   0  0  0  0  0  0  0  0  0  0  0  0
  131.6330  125.7518   59.2714 H   0  0  0  0  0  0  0  0  0  0  0  0
  131.4256  128.1629   58.7130 H   0  0  0  0  0  0  0  0  0  0  0  0
  131.9777  130.4233   60.2353 H   0  0  0  0  0  0  0  0  0  0  0  0
  131.3213  130.2830   58.5238 H   0  0  0  0  0  0  0  0  0  0  0  0
  130.9556  132.6138   60.4555 H   0  0  0  0  0  0  0  0  0  0  0  0
  131.8758  132.5994   58.9175 H   0  0  0  0  0  0  0  0  0  0  0  0
  127.8899  134.1709   57.4750 H   0  0  0  0  0  0  0  0  0  0  0  0
  128.7606  134.0123   55.8716 H   0  0  0  0  0  0  0  0  0  0  0  0
  128.3555  132.3356   60.2642 H   0  0  0  0  0  0  0  0  0  0  0  0
  127.6917  132.1503   58.6103 H   0  0  0  0  0  0  0  0  0  0  0  0
  127.8651  129.9798   59.9342 H   0  0  0  0  0  0  0  0  0  0  0  0
  128.7757  130.0082   58.3374 H   0  0  0  0  0  0  0  0  0  0  0  0
  128.9488  126.3025   62.6123 H   0  0  0  0  0  0  0  0  0  0  0  0
  133.4227  122.4063   59.7416 H   0  0  0  0  0  0  0  0  0  0  0  0
  131.8748  118.4722   60.6513 H   0  0  0  0  0  0  0  0  0  0  0  0
  129.7143  119.4836   61.3587 H   0  0  0  0  0  0  0  0  0  0  0  0
  128.4729  124.0964   62.1255 H   0  0  0  0  0  0  0  0  0  0  0  0
  127.1594  125.7400   60.8992 H   0  0  0  0  0  0  0  0  0  0  0  0
  125.8153  126.2468   58.8625 H   0  0  0  0  0  0  0  0  0  0  0  0
  127.6335  122.8981   56.8241 H   0  0  0  0  0  0  0  0  0  0  0  0
  128.9822  122.3887   58.8556 H   0  0  0  0  0  0  0  0  0  0  0  0
  2  1  1  1
  2  3  1  0
  3  4  2  0
  4  5  1  0
  5  6  2  0
  6  7  1  0
  7  8  1  0
  8  9  1  0
  9 10  1  0
 10 11  1  0
 11 12  2  0
 11 13  1  0
 13 14  1  0
 10 15  1  0
 15 16  1  0
  6 17  1  0
 17 18  1  0
 17 19  2  0
  2 20  1  0
 20 21  1  0
 21 22  2  0
 22 23  1  0
 23 24  1  0
 23 25  2  0
 25 26  1  0
 26 27  2  0
 27 28  1  0
 28 29  2  0
 28 30  1  0
 30 31  1  0
 31 32  2  0
 32 33  1  0
 33 34  2  0
 34 35  1  0
 34 36  1  0
 36 37  2  0
 30  2  1  0
 37 31  1  0
 19  3  1  0
 27 21  1  0
 16  7  1  0
  1 38  1  0
  1 39  1  0
  1 40  1  0
  4 41  1  0
  5 42  1  0
  8 43  1  0
  8 44  1  0
  9 45  1  0
  9 46  1  0
 13 47  1  0
 13 48  1  0
 15 49  1  0
 15 50  1  0
 16 51  1  0
 16 52  1  0
 19 53  1  0
 22 54  1  0
 25 55  1  0
 26 56  1  0
 30 57  1  1
 32 58  1  0
 33 59  1  0
 36 60  1  0
 37 61  1  0
M  CHG  1  24  -1
M  END
>  <Binding energies>  (1) 
[-7.06]

>  <Ligand effiencies>  (1) 
[-0.1908108108108108]

>  <Interactions>  (1) 
["V-A:ILE:369:CG2:3237, V-B:PRO:540:CA:9855, V-A:ILE:538:C:4858, V-B:ALA:541:CB:9864, V-B:TYR:539:CE2:9848, V-A:TYR:539:CE2:4876, V-A:ASP:366:CG:3213, V-A:TYR:539:CD1:4873, V-B:TYR:539:CZ:9849, V-A:ILE:538:CA:4860, V-A:TYR:539:CZ:4877, V-B:TYR:531:CZ:9766, H-B:ALA:541:N:9863, V-B:TYR:531:CE2:9765, V-A:TYR:539:CA:4869, V-B:TYR:539:CD2:9846, V-A:SER:385:CB:3409, H-A:SER:385:OG:3410, V-A:MET:535:CE:4835, V-A:TYR:539:C:4867, V-A:LEU:475:CD2:4259, V-A:PRO:540:N:4884, V-A:TYR:539:CG:4872, H-A:TYR:539:N:4870, V-A:PRO:540:CB:4885, V-A:PRO:540:CA:4883, V-A:TYR:539:CD2:4874, V-B:MET:535:CE:9807, V-A:TYR:539:CE1:4875"]

$$$$
ZINC587331338-again1
     RDKit          3D

 62 66  0  0  0  0  0  0  0  0999 V2000
  129.8470  128.2000   62.0070 C   0  0  0  0  0  0  0  0  0  0  0  0
  129.4140  126.8230   62.5920 C   0  0  1  0  0  0  0  0  0  0  0  0
  129.1920  127.0000   64.1120 C   0  0  0  0  0  0  0  0  0  0  0  0
  128.4180  128.0660   64.5920 C   0  0  0  0  0  0  0  0  0  0  0  0
  128.2290  128.2530   65.9600 C   0  0  0  0  0  0  0  0  0  0  0  0
  128.8150  127.3810   66.8850 C   0  0  0  0  0  0  0  0  0  0  0  0
  128.6380  127.5670   68.2450 N   0  0  0  0  0  0  0  0  0  0  0  0
  127.8150  126.5890   68.9700 C   0  0  0  0  0  0  0  0  0  0  0  0
  127.4690  126.9770   70.4250 C   0  0  0  0  0  0  0  0  0  0  0  0
  128.7060  127.3610   71.1190 N   0  0  0  0  0  0  0  0  0  0  0  0
  129.1750  126.6340   72.1700 C   0  0  0  0  0  0  0  0  0  0  0  0
  128.5740  125.6520   72.6110 O   0  0  0  0  0  0  0  0  0  0  0  0
  130.4570  127.1010   72.8880 C   0  0  0  0  0  0  0  0  0  0  0  0
  130.5810  126.5550   74.5870 Cl  0  0  0  0  0  0  0  0  0  0  0  0
  129.4640  128.4480   70.4840 C   0  0  0  0  0  0  0  0  0  0  0  0
  129.7880  128.0430   69.0280 C   0  0  0  0  0  0  0  0  0  0  0  0
  129.5910  126.3140   66.4140 C   0  0  0  0  0  0  0  0  0  0  0  0
  130.1750  125.4520   67.2800 F   0  0  0  0  0  0  0  0  0  0  0  0
  129.7760  126.1290   65.0430 C   0  0  0  0  0  0  0  0  0  0  0  0
  128.1720  126.4550   61.9580 O   0  0  0  0  0  0  0  0  0  0  0  0
  128.2320  126.1130   60.6200 C   0  0  0  0  0  0  0  0  0  0  0  0
  127.0680  126.3240   59.8810 C   0  0  0  0  0  0  0  0  0  0  0  0
  127.0360  125.9930   58.5270 C   0  0  0  0  0  0  0  0  0  0  0  0
  125.8970  126.2030   57.7970 O   0  0  0  0  0  0  0  0  0  0  0  0
  128.1650  125.4470   57.9180 C   0  0  0  0  0  0  0  0  0  0  0  0
  129.3260  125.2290   58.6600 C   0  0  0  0  0  0  0  0  0  0  0  0
  129.3750  125.5540   60.0240 C   0  0  0  0  0  0  0  0  0  0  0  0
  130.6080  125.3240   60.8280 C   0  0  0  0  0  0  0  0  0  0  0  0
  131.6340  124.8560   60.3320 O   0  0  0  0  0  0  0  0  0  0  0  0
  130.4970  125.7140   62.3180 C   0  0  2  0  0  0  0  0  0  0  0  0
  130.3400  124.4310   63.1550 C   0  0  0  0  0  0  0  0  0  0  0  0
  131.3990  123.9160   63.9150 C   0  0  0  0  0  0  0  0  0  0  0  0
  131.2360  122.7350   64.6350 C   0  0  0  0  0  0  0  0  0  0  0  0
  130.0160  122.0640   64.5940 C   0  0  0  0  0  0  0  0  0  0  0  0
  129.8580  120.9180   65.2930 F   0  0  0  0  0  0  0  0  0  0  0  0
  128.9590  122.5630   63.8370 C   0  0  0  0  0  0  0  0  0  0  0  0
  129.1220  123.7440   63.1170 C   0  0  0  0  0  0  0  0  0  0  0  0
  130.0658  128.8958   62.8304 H   0  0  0  0  0  0  0  0  0  0  0  0
  130.7473  128.0690   61.3887 H   0  0  0  0  0  0  0  0  0  0  0  0
  129.0337  128.6078   61.3887 H   0  0  0  0  0  0  0  0  0  0  0  0
  127.9539  128.7638   63.8795 H   0  0  0  0  0  0  0  0  0  0  0  0
  127.6142  129.0929   66.3159 H   0  0  0  0  0  0  0  0  0  0  0  0
  126.8723  126.4604   68.4179 H   0  0  0  0  0  0  0  0  0  0  0  0
  128.4144  125.6687   69.0317 H   0  0  0  0  0  0  0  0  0  0  0  0
  126.7669  127.8238   70.4249 H   0  0  0  0  0  0  0  0  0  0  0  0
  127.0015  126.1239   70.9385 H   0  0  0  0  0  0  0  0  0  0  0  0
  131.3244  126.7108   72.3353 H   0  0  0  0  0  0  0  0  0  0  0  0
  130.4269  128.2004   72.9090 H   0  0  0  0  0  0  0  0  0  0  0  0
  128.8626  129.3690   70.4867 H   0  0  0  0  0  0  0  0  0  0  0  0
  130.3966  128.6278   71.0389 H   0  0  0  0  0  0  0  0  0  0  0  0
  130.2101  128.9201   68.5157 H   0  0  0  0  0  0  0  0  0  0  0  0
  130.4875  127.1965   69.0927 H   0  0  0  0  0  0  0  0  0  0  0  0
  130.3889  125.2876   64.6876 H   0  0  0  0  0  0  0  0  0  0  0  0
  126.1773  126.7506   60.3654 H   0  0  0  0  0  0  0  0  0  0  0  0
  126.0770  126.4360   56.8840 H   0  0  0  0  0  0  0  0  0  0  0  0
  128.1402  125.1874   56.8494 H   0  0  0  0  0  0  0  0  0  0  0  0
  130.2119  124.7980   58.1708 H   0  0  0  0  0  0  0  0  0  0  0  0
  131.4265  126.2075   62.6381 H   0  0  0  0  0  0  0  0  0  0  0  0
  132.3623  124.4464   63.9429 H   0  0  0  0  0  0  0  0  0  0  0  0
  132.0672  122.3338   65.2335 H   0  0  0  0  0  0  0  0  0  0  0  0
  127.9991  122.0265   63.8078 H   0  0  0  0  0  0  0  0  0  0  0  0
  128.2894  124.1383   62.5159 H   0  0  0  0  0  0  0  0  0  0  0  0
  2  1  1  6
  2  3  1  0
  3  4  2  0
  4  5  1  0
  5  6  2  0
  6  7  1  0
  7  8  1  0
  8  9  1  0
  9 10  1  0
 10 11  1  0
 11 12  2  0
 11 13  1  0
 13 14  1  0
 10 15  1  0
 15 16  1  0
  6 17  1  0
 17 18  1  0
 17 19  2  0
  2 20  1  0
 20 21  1  0
 21 22  2  0
 22 23  1  0
 23 24  1  0
 23 25  2  0
 25 26  1  0
 26 27  2  0
 27 28  1  0
 28 29  2  0
 28 30  1  0
 30 31  1  0
 31 32  2  0
 32 33  1  0
 33 34  2  0
 34 35  1  0
 34 36  1  0
 36 37  2  0
 30  2  1  0
 37 31  1  0
 19  3  1  0
 27 21  1  0
 16  7  1  0
  1 38  1  0
  1 39  1  0
  1 40  1  0
  4 41  1  0
  5 42  1  0
  8 43  1  0
  8 44  1  0
  9 45  1  0
  9 46  1  0
 13 47  1  0
 13 48  1  0
 15 49  1  0
 15 50  1  0
 16 51  1  0
 16 52  1  0
 19 53  1  0
 22 54  1  0
 24 55  1  0
 25 56  1  0
 26 57  1  0
 30 58  1  1
 32 59  1  0
 33 60  1  0
 36 61  1  0
 37 62  1  0
M  END
>  <Binding energies>  (1) 
[-7.02]

>  <Ligand effiencies>  (1) 
[-0.18473684210526314]

>  <Interactions>  (1) 
["V-B:GLU:543:C:9874, V-B:HIS:456:CD2:9039, V-A:GLU:543:C:4902, V-B:GLU:543:CB:9878, H-B:LYS:547:NZ:9923, V-B:ALA:541:CB:9864, V-A:TYR:484:CE2:4346, V-A:LEU:475:CG:4257, V-B:GLU:543:CG:9879, V-A:HIS:456:CD2:4068, V-A:LEU:475:CD1:4258, V-A:GLU:543:CD:4908, V-A:TYR:484:CZ:4347, V-A:LEU:475:CB:4256, V-B:HIS:456:CE1:9041, V-B:GLU:543:CA:9876, V-A:TYR:484:CD2:4344, V-A:HIS:456:CE1:4070, V-B:GLY:544:C:9884, V-A:GLU:543:CG:4907, V-B:GLU:543:CD:9880, H-B:TYR:531:OH:9767, V-A:LEU:475:CD2:4259, V-A:GLU:543:CB:4906"]

$$$$
ZINC587331911
     RDKit          3D

 89 96  0  0  0  0  0  0  0  0999 V2000
  128.6810  128.6090   56.6950 C   0  0  0  0  0  0  0  0  0  0  0  0
  129.4690  127.5420   57.4460 C   0  0  0  0  0  0  0  0  0  0  0  0
  129.8310  126.3720   56.5320 C   0  0  0  0  0  0  0  0  0  0  0  0
  130.6310  128.1060   57.9370 O   0  0  0  0  0  0  0  0  0  0  0  0
  130.7220  127.8570   59.3230 C   0  0  2  0  0  0  0  0  0  0  0  0
  131.6400  126.6390   59.5840 C   0  0  0  0  0  0  0  0  0  0  0  0
  130.6690  125.5450   60.0260 C   0  0  1  0  0  0  0  0  0  0  0  0
  131.2210  124.2630   60.7210 C   0  0  2  0  0  0  0  0  0  0  0  0
  132.2760  123.5510   59.8460 C   0  0  0  0  0  0  0  0  0  0  0  0
  132.8480  122.3070   60.5360 C   0  0  0  0  0  0  0  0  0  0  0  0
  131.7200  121.3330   60.8920 C   0  0  0  0  0  0  0  0  0  0  0  0
  131.7790  120.0320   60.5230 C   0  0  0  0  0  0  0  0  0  0  0  0
  130.8020  119.0200   60.8960 C   0  0  0  0  0  0  0  0  0  0  0  0
  130.8340  117.8830   60.4300 O   0  0  0  0  0  0  0  0  0  0  0  0
  129.8300  119.4190   62.0100 C   0  0  0  0  0  0  0  0  0  0  0  0
  129.3970  120.8900   61.8580 C   0  0  0  0  0  0  0  0  0  0  0  0
  130.5700  121.9280   61.7590 C   0  0  1  0  0  0  0  0  0  0  0  0
  131.1640  122.1310   63.1850 C   0  0  0  0  0  0  0  0  0  0  0  0
  130.0560  123.2710   61.0710 C   0  0  2  0  0  0  0  0  0  0  0  0
  129.5450  122.9010   59.8860 F   0  0  0  0  0  0  0  0  0  0  0  0
  128.8460  123.9930   61.7760 C   0  0  1  0  0  0  0  0  0  0  0  0
  129.0400  124.2390   63.1550 O   0  0  0  0  0  0  0  0  0  0  0  0
  128.4210  125.2970   61.0400 C   0  0  0  0  0  0  0  0  0  0  0  0
  129.5790  126.3120   60.8170 C   0  0  1  0  0  0  0  0  0  0  0  0
  130.1560  126.8260   62.1850 C   0  0  0  0  0  0  0  0  0  0  0  0
  129.2730  127.5200   59.8150 C   0  0  1  0  0  0  0  0  0  0  0  0
  128.2070  128.6590   60.3050 C   0  0  1  0  0  0  0  0  0  0  0  0
  126.7300  128.4090   59.7640 C   0  0  0  0  0  0  0  0  0  0  0  0
  126.2570  129.4400   58.3850 Cl  0  0  0  0  0  0  0  0  0  0  0  0
  128.0960  128.5680   61.7400 O   0  0  0  0  0  0  0  0  0  0  0  0
  127.2790  129.4690   62.4010 C   0  0  0  0  0  0  0  0  0  0  0  0
  126.7410  129.0350   63.6120 C   0  0  0  0  0  0  0  0  0  0  0  0
  125.9100  129.8820   64.3430 C   0  0  0  0  0  0  0  0  0  0  0  0
  125.3740  129.4600   65.5300 O   0  0  0  0  0  0  0  0  0  0  0  0
  125.6220  131.1590   63.8630 C   0  0  0  0  0  0  0  0  0  0  0  0
  126.1680  131.5950   62.6540 C   0  0  0  0  0  0  0  0  0  0  0  0
  127.0170  130.7600   61.9140 C   0  0  0  0  0  0  0  0  0  0  0  0
  127.6000  131.1980   60.6140 C   0  0  0  0  0  0  0  0  0  0  0  0
  127.3260  132.2880   60.1060 O   0  0  0  0  0  0  0  0  0  0  0  0
  128.5800  130.1810   59.9780 C   0  0  1  0  0  0  0  0  0  0  0  0
  129.9700  130.7280   60.3550 C   0  0  0  0  0  0  0  0  0  0  0  0
  130.8920  130.9760   59.3290 C   0  0  0  0  0  0  0  0  0  0  0  0
  132.1590  131.4700   59.6260 C   0  0  0  0  0  0  0  0  0  0  0  0
  132.5090  131.7270   60.9490 C   0  0  0  0  0  0  0  0  0  0  0  0
  133.7390  132.2060   61.2360 F   0  0  0  0  0  0  0  0  0  0  0  0
  131.5990  131.4960   61.9780 C   0  0  0  0  0  0  0  0  0  0  0  0
  130.3310  131.0020   61.6820 C   0  0  0  0  0  0  0  0  0  0  0  0
  128.7670  127.0460   58.5550 O   0  0  0  0  0  0  0  0  0  0  0  0
  128.1879  129.2767   57.4168 H   0  0  0  0  0  0  0  0  0  0  0  0
  129.3657  129.1937   56.0631 H   0  0  0  0  0  0  0  0  0  0  0  0
  127.9207  128.1266   56.0631 H   0  0  0  0  0  0  0  0  0  0  0  0
  130.1012  125.4987   57.1439 H   0  0  0  0  0  0  0  0  0  0  0  0
  128.9682  126.1221   55.8971 H   0  0  0  0  0  0  0  0  0  0  0  0
  130.6842  126.6530   55.8971 H   0  0  0  0  0  0  0  0  0  0  0  0
  131.1395  128.7277   59.8497 H   0  0  0  0  0  0  0  0  0  0  0  0
  132.1722  126.3448   58.6674 H   0  0  0  0  0  0  0  0  0  0  0  0
  132.4208  126.8447   60.3311 H   0  0  0  0  0  0  0  0  0  0  0  0
  130.2866  125.0257   59.1349 H   0  0  0  0  0  0  0  0  0  0  0  0
  131.7091  124.5829   61.6534 H   0  0  0  0  0  0  0  0  0  0  0  0
  131.8059  123.2475   58.8989 H   0  0  0  0  0  0  0  0  0  0  0  0
  133.1038  124.2541   59.6713 H   0  0  0  0  0  0  0  0  0  0  0  0
  133.5572  121.8094   59.8582 H   0  0  0  0  0  0  0  0  0  0  0  0
  133.3621  122.6132   61.4590 H   0  0  0  0  0  0  0  0  0  0  0  0
  132.6263  119.7171   59.8962 H   0  0  0  0  0  0  0  0  0  0  0  0
  128.9402  118.7742   61.9602 H   0  0  0  0  0  0  0  0  0  0  0  0
  130.3363  119.2990   62.9792 H   0  0  0  0  0  0  0  0  0  0  0  0
  128.7916  120.9732   60.9434 H   0  0  0  0  0  0  0  0  0  0  0  0
  128.8456  121.1410   62.7761 H   0  0  0  0  0  0  0  0  0  0  0  0
  130.4056  121.8718   63.9384 H   0  0  0  0  0  0  0  0  0  0  0  0
  132.0433  121.4824   63.3117 H   0  0  0  0  0  0  0  0  0  0  0  0
  131.4624  123.1821   63.3117 H   0  0  0  0  0  0  0  0  0  0  0  0
  128.0202  123.2699   61.7044 H   0  0  0  0  0  0  0  0  0  0  0  0
  128.2290  124.6030   63.5170 H   0  0  0  0  0  0  0  0  0  0  0  0
  128.0113  125.0202   60.0574 H   0  0  0  0  0  0  0  0  0  0  0  0
  127.6833  125.7969   61.6849 H   0  0  0  0  0  0  0  0  0  0  0  0
  129.6164  126.3453   63.0143 H   0  0  0  0  0  0  0  0  0  0  0  0
  131.2252  126.5756   62.2492 H   0  0  0  0  0  0  0  0  0  0  0  0
  130.0304  127.9169   62.2492 H   0  0  0  0  0  0  0  0  0  0  0  0
  126.6539  127.3581   59.4482 H   0  0  0  0  0  0  0  0  0  0  0  0
  126.0492  128.6627   60.5899 H   0  0  0  0  0  0  0  0  0  0  0  0
  126.9717  128.0277   63.9890 H   0  0  0  0  0  0  0  0  0  0  0  0
  125.4120  128.5070   65.6400 H   0  0  0  0  0  0  0  0  0  0  0  0
  124.9625  131.8252   64.4386 H   0  0  0  0  0  0  0  0  0  0  0  0
  125.9301  132.6015   62.2793 H   0  0  0  0  0  0  0  0  0  0  0  0
  128.5334  130.1034   58.8817 H   0  0  0  0  0  0  0  0  0  0  0  0
  130.6129  130.7792   58.2834 H   0  0  0  0  0  0  0  0  0  0  0  0
  132.8816  131.6568   58.8180 H   0  0  0  0  0  0  0  0  0  0  0  0
  131.8810  131.7031   63.0209 H   0  0  0  0  0  0  0  0  0  0  0  0
  129.6091  130.8259   62.4931 H   0  0  0  0  0  0  0  0  0  0  0  0
  1  2  1  0
  2  3  1  0
  2  4  1  0
  4  5  1  0
  5  6  1  0
  6  7  1  0
  7  8  1  0
  8  9  1  0
  9 10  1  0
 10 11  1  0
 11 12  2  0
 12 13  1  0
 13 14  2  0
 13 15  1  0
 15 16  1  0
 16 17  1  0
 17 18  1  1
 17 19  1  0
 19 20  1  6
 19 21  1  0
 21 22  1  0
 21 23  1  0
 23 24  1  0
 24 25  1  1
 24 26  1  0
 26 27  1  0
 27 28  1  6
 28 29  1  0
 27 30  1  0
 30 31  1  0
 31 32  2  0
 32 33  1  0
 33 34  1  0
 33 35  2  0
 35 36  1  0
 36 37  2  0
 37 38  1  0
 38 39  2  0
 38 40  1  0
 40 41  1  0
 41 42  2  0
 42 43  1  0
 43 44  2  0
 44 45  1  0
 44 46  1  0
 46 47  2  0
 26 48  1  6
 48  2  1  0
 26  5  1  0
 40 27  1  0
 47 41  1  0
 24  7  1  0
 37 31  1  0
 19  8  1  0
 17 11  1  0
  1 49  1  0
  1 50  1  0
  1 51  1  0
  3 52  1  0
  3 53  1  0
  3 54  1  0
  5 55  1  1
  6 56  1  0
  6 57  1  0
  7 58  1  6
  8 59  1  1
  9 60  1  0
  9 61  1  0
 10 62  1  0
 10 63  1  0
 12 64  1  0
 15 65  1  0
 15 66  1  0
 16 67  1  0
 16 68  1  0
 18 69  1  0
 18 70  1  0
 18 71  1  0
 21 72  1  1
 22 73  1  0
 23 74  1  0
 23 75  1  0
 25 76  1  0
 25 77  1  0
 25 78  1  0
 28 79  1  0
 28 80  1  0
 32 81  1  0
 34 82  1  0
 35 83  1  0
 36 84  1  0
 40 85  1  6
 42 86  1  0
 43 87  1  0
 46 88  1  0
 47 89  1  0
M  END
>  <Binding energies>  (1) 
[-8.89]

>  <Ligand effiencies>  (1) 
[-0.1778]

>  <Interactions>  (1) 
["V-A:ILE:369:CG2:3237, V-B:ALA:541:CB:9864, H-A:TYR:531:OH:4795, V-B:TYR:539:CE2:9848, V-A:LEU:475:CG:4257, V-A:ASP:366:CG:3213, V-A:ASN:362:CB:3176, H-B:GLU:543:OE1:9881, H-B:ARG:545:NE:9896, V-A:LEU:475:CD1:4258, V-A:GLU:543:CD:4908, H-B:TYR:484:OH:9319, V-B:TYR:539:CD2:9846, H-A:SER:385:OG:3410, V-A:MET:535:CE:4835, V-B:GLU:543:CD:9880, V-A:ASP:366:CB:3212, V-A:LEU:475:CD2:4259, V-A:ASN:362:C:3172, H-A:HIS:383:HE2:3395, H-B:GLU:543:OE2:9882, V-A:PRO:540:CA:4883, V-A:PRO:540:CB:4885, V-A:LEU:363:CA:3185, V-B:PRO:540:C:9853, V-B:ALA:541:CA:9862"]

$$$$
ZINC587334608
     RDKit          3D

 52 56  0  0  0  0  0  0  0  0999 V2000
  132.8540  129.1200   57.8440 O   0  0  0  0  0  0  0  0  0  0  0  0
  131.6270  129.1650   57.9700 C   0  0  0  0  0  0  0  0  0  0  0  0
  130.8580  130.3920   57.6360 C   0  0  0  0  0  0  0  0  0  0  0  0
  131.4950  131.5300   57.1190 C   0  0  0  0  0  0  0  0  0  0  0  0
  130.7700  132.6850   56.8270 C   0  0  0  0  0  0  0  0  0  0  0  0
  129.3910  132.7230   57.0500 C   0  0  0  0  0  0  0  0  0  0  0  0
  128.7290  133.7770   56.7870 O   0  0  0  0  0  0  0  0  0  0  0  0
  128.7440  131.5990   57.5690 C   0  0  0  0  0  0  0  0  0  0  0  0
  129.4770  130.4520   57.8740 C   0  0  0  0  0  0  0  0  0  0  0  0
  128.7500  129.4130   58.4280 O   0  0  0  0  0  0  0  0  0  0  0  0
  129.4490  128.4270   59.2180 C   0  0  1  0  0  0  0  0  0  0  0  0
  129.7570  129.0840   60.6390 C   0  0  0  0  0  0  0  0  0  0  0  0
  129.2780  130.5220   60.8880 C   0  0  0  0  0  0  0  0  0  0  0  0
  127.9030  130.7960   60.8340 C   0  0  0  0  0  0  0  0  0  0  0  0
  127.0170  129.8040   60.5830 F   0  0  0  0  0  0  0  0  0  0  0  0
  127.4290  132.0930   61.0290 C   0  0  0  0  0  0  0  0  0  0  0  0
  128.3210  133.1310   61.2840 C   0  0  0  0  0  0  0  0  0  0  0  0
  129.6890  132.8710   61.3540 C   0  0  0  0  0  0  0  0  0  0  0  0
  130.1730  131.5750   61.1630 C   0  0  0  0  0  0  0  0  0  0  0  0
  131.8820  131.3260   61.2740 Cl  0  0  0  0  0  0  0  0  0  0  0  0
  128.5230  127.1710   59.3370 C   0  0  0  0  0  0  0  0  0  0  0  0
  128.2900  126.5820   60.5960 C   0  0  0  0  0  0  0  0  0  0  0  0
  127.4720  125.4660   60.7480 C   0  0  0  0  0  0  0  0  0  0  0  0
  126.8780  124.8850   59.6350 C   0  0  0  0  0  0  0  0  0  0  0  0
  127.1340  125.4050   58.3720 C   0  0  0  0  0  0  0  0  0  0  0  0
  127.9610  126.5180   58.2080 C   0  0  0  0  0  0  0  0  0  0  0  0
  128.3210  127.0090   56.3960 Br  0  0  0  0  0  0  0  0  0  0  0  0
  130.7450  127.9830   58.4330 C   0  0  2  0  0  0  0  0  0  0  0  0
  131.5650  126.8390   59.0690 C   0  0  0  0  0  0  0  0  0  0  0  0
  132.2740  125.9770   58.2230 C   0  0  0  0  0  0  0  0  0  0  0  0
  133.0020  124.9130   58.7480 C   0  0  0  0  0  0  0  0  0  0  0  0
  133.0270  124.7060   60.1240 C   0  0  0  0  0  0  0  0  0  0  0  0
  133.7340  123.6720   60.6350 F   0  0  0  0  0  0  0  0  0  0  0  0
  132.3280  125.5540   60.9790 C   0  0  0  0  0  0  0  0  0  0  0  0
  131.5980  126.6160   60.4540 C   0  0  0  0  0  0  0  0  0  0  0  0
  132.5804  131.5110   56.9416 H   0  0  0  0  0  0  0  0  0  0  0  0
  131.2847  133.5680   56.4203 H   0  0  0  0  0  0  0  0  0  0  0  0
  127.6571  131.6184   57.7371 H   0  0  0  0  0  0  0  0  0  0  0  0
  129.2880  128.4462   61.4027 H   0  0  0  0  0  0  0  0  0  0  0  0
  130.8543  129.1493   60.6793 H   0  0  0  0  0  0  0  0  0  0  0  0
  126.3490  132.2961   60.9813 H   0  0  0  0  0  0  0  0  0  0  0  0
  127.9469  134.1551   61.4301 H   0  0  0  0  0  0  0  0  0  0  0  0
  130.3915  133.6918   61.5610 H   0  0  0  0  0  0  0  0  0  0  0  0
  128.7690  127.0173   61.4854 H   0  0  0  0  0  0  0  0  0  0  0  0
  127.2962  125.0446   61.7487 H   0  0  0  0  0  0  0  0  0  0  0  0
  126.2096  124.0193   59.7525 H   0  0  0  0  0  0  0  0  0  0  0  0
  126.6786  124.9331   57.4889 H   0  0  0  0  0  0  0  0  0  0  0  0
  130.3261  127.5275   57.5235 H   0  0  0  0  0  0  0  0  0  0  0  0
  132.2554  126.1420   57.1356 H   0  0  0  0  0  0  0  0  0  0  0  0
  133.5553  124.2385   58.0780 H   0  0  0  0  0  0  0  0  0  0  0  0
  132.3528  125.3850   62.0657 H   0  0  0  0  0  0  0  0  0  0  0  0
  131.0435  127.2847   61.1288 H   0  0  0  0  0  0  0  0  0  0  0  0
  1  2  2  0
  2  3  1  0
  3  4  2  0
  4  5  1  0
  5  6  2  0
  6  7  1  0
  6  8  1  0
  8  9  2  0
  9 10  1  0
 10 11  1  0
 11 12  1  1
 12 13  1  0
 13 14  2  0
 14 15  1  0
 14 16  1  0
 16 17  2  0
 17 18  1  0
 18 19  2  0
 19 20  1  0
 11 21  1  0
 21 22  2  0
 22 23  1  0
 23 24  2  0
 24 25  1  0
 25 26  2  0
 26 27  1  0
 11 28  1  0
 28 29  1  0
 29 30  2  0
 30 31  1  0
 31 32  2  0
 32 33  1  0
 32 34  1  0
 34 35  2  0
 28  2  1  0
 35 29  1  0
  9  3  1  0
 19 13  1  0
 26 21  1  0
  4 36  1  0
  5 37  1  0
  8 38  1  0
 12 39  1  0
 12 40  1  0
 16 41  1  0
 17 42  1  0
 18 43  1  0
 22 44  1  0
 23 45  1  0
 24 46  1  0
 25 47  1  0
 28 48  1  6
 30 49  1  0
 31 50  1  0
 34 51  1  0
 35 52  1  0
M  CHG  1   7  -1
M  END
>  <Binding energies>  (1) 
[-6.86]

>  <Ligand effiencies>  (1) 
[-0.196]

>  <Interactions>  (1) 
["V-A:ILE:369:CG2:3237, V-A:LEU:363:CD1:3189, V-A:PRO:540:N:4884, H-A:TYR:539:N:4870, V-A:ASP:366:CA:3210, V-A:ILE:369:CD1:3239, V-A:PRO:540:CA:4883, V-A:PRO:540:CB:4885, V-A:PRO:540:C:4881, V-A:ILE:538:CB:4862, V-A:TYR:531:CZ:4794, H-A:TYR:531:OH:4795, V-B:TYR:539:CE2:9848, V-A:ASP:366:CB:3212, V-A:ASP:366:CG:3213"]

$$$$
ZINC587338095
     RDKit          3D

 43 46  0  0  0  0  0  0  0  0999 V2000
  129.2780  122.7390   63.1600 C   0  0  0  0  0  0  0  0  0  0  0  0
  129.6700  123.7720   62.0770 C   0  0  2  0  0  0  0  0  0  0  0  0
  128.6150  123.6650   60.9380 C   0  0  0  0  0  0  0  0  0  0  0  0
  127.5580  124.5860   60.8180 C   0  0  0  0  0  0  0  0  0  0  0  0
  126.6190  124.4750   59.7940 C   0  0  0  0  0  0  0  0  0  0  0  0
  126.7080  123.4330   58.8760 C   0  0  0  0  0  0  0  0  0  0  0  0
  125.4250  123.2790   57.4780 Br  0  0  0  0  0  0  0  0  0  0  0  0
  127.7330  122.4980   58.9880 C   0  0  0  0  0  0  0  0  0  0  0  0
  128.6750  122.6060   60.0110 C   0  0  0  0  0  0  0  0  0  0  0  0
  129.6410  121.6620   60.0960 F   0  0  0  0  0  0  0  0  0  0  0  0
  130.9720  123.3820   61.6010 O   0  0  0  0  0  0  0  0  0  0  0  0
  131.5370  124.2260   60.6600 C   0  0  0  0  0  0  0  0  0  0  0  0
  132.3810  123.6340   59.7200 C   0  0  0  0  0  0  0  0  0  0  0  0
  132.9890  124.4220   58.7440 C   0  0  0  0  0  0  0  0  0  0  0  0
  133.8100  123.8440   57.8140 O   0  0  0  0  0  0  0  0  0  0  0  0
  132.7610  125.7980   58.7170 C   0  0  0  0  0  0  0  0  0  0  0  0
  131.9250  126.3890   59.6660 C   0  0  0  0  0  0  0  0  0  0  0  0
  131.3060  125.6120   60.6550 C   0  0  0  0  0  0  0  0  0  0  0  0
  130.4140  126.2230   61.6840 C   0  0  0  0  0  0  0  0  0  0  0  0
  130.1740  127.4310   61.7090 O   0  0  0  0  0  0  0  0  0  0  0  0
  129.8190  125.2180   62.6990 C   0  0  2  0  0  0  0  0  0  0  0  0
  130.6220  125.2870   64.0140 C   0  0  0  0  0  0  0  0  0  0  0  0
  129.9980  125.3880   65.2670 C   0  0  0  0  0  0  0  0  0  0  0  0
  130.7610  125.4780   66.4280 C   0  0  0  0  0  0  0  0  0  0  0  0
  132.1510  125.4770   66.3430 C   0  0  0  0  0  0  0  0  0  0  0  0
  132.8920  125.5670   67.4710 F   0  0  0  0  0  0  0  0  0  0  0  0
  132.7830  125.3880   65.1060 C   0  0  0  0  0  0  0  0  0  0  0  0
  132.0200  125.2970   63.9440 C   0  0  0  0  0  0  0  0  0  0  0  0
  129.4427  123.1729   64.1573 H   0  0  0  0  0  0  0  0  0  0  0  0
  128.2166  122.4735   63.0464 H   0  0  0  0  0  0  0  0  0  0  0  0
  129.8960  121.8362   63.0464 H   0  0  0  0  0  0  0  0  0  0  0  0
  127.4713  125.4074   61.5445 H   0  0  0  0  0  0  0  0  0  0  0  0
  125.8066  125.2120   59.7114 H   0  0  0  0  0  0  0  0  0  0  0  0
  127.8004  121.6703   58.2666 H   0  0  0  0  0  0  0  0  0  0  0  0
  132.5659  122.5500   59.7489 H   0  0  0  0  0  0  0  0  0  0  0  0
  134.4640  124.4540   57.4630 H   0  0  0  0  0  0  0  0  0  0  0  0
  133.2411  126.4187   57.9461 H   0  0  0  0  0  0  0  0  0  0  0  0
  131.7503  127.4747   59.6374 H   0  0  0  0  0  0  0  0  0  0  0  0
  128.7854  125.4988   62.9498 H   0  0  0  0  0  0  0  0  0  0  0  0
  128.9000  125.3961   65.3321 H   0  0  0  0  0  0  0  0  0  0  0  0
  130.2678  125.5496   67.4086 H   0  0  0  0  0  0  0  0  0  0  0  0
  133.8814  125.3895   65.0462 H   0  0  0  0  0  0  0  0  0  0  0  0
  132.5190  125.2326   62.9658 H   0  0  0  0  0  0  0  0  0  0  0  0
  2  1  1  1
  2  3  1  0
  3  4  2  0
  4  5  1  0
  5  6  2  0
  6  7  1  0
  6  8  1  0
  8  9  2  0
  9 10  1  0
  2 11  1  0
 11 12  1  0
 12 13  2  0
 13 14  1  0
 14 15  1  0
 14 16  2  0
 16 17  1  0
 17 18  2  0
 18 19  1  0
 19 20  2  0
 19 21  1  0
 21 22  1  0
 22 23  2  0
 23 24  1  0
 24 25  2  0
 25 26  1  0
 25 27  1  0
 27 28  2  0
 21  2  1  0
 28 22  1  0
  9  3  1  0
 18 12  1  0
  1 29  1  0
  1 30  1  0
  1 31  1  0
  4 32  1  0
  5 33  1  0
  8 34  1  0
 13 35  1  0
 15 36  1  0
 16 37  1  0
 17 38  1  0
 21 39  1  1
 23 40  1  0
 24 41  1  0
 27 42  1  0
 28 43  1  0
M  END
>  <Binding energies>  (1) 
[-7.44]

>  <Ligand effiencies>  (1) 
[-0.25655172413793104]

>  <Interactions>  (1) 
["V-A:ASP:366:CA:3210, V-B:PRO:540:CA:9855, V-B:ALA:541:CB:9864, V-B:TYR:539:CE2:9848, V-B:GLU:543:CG:9879, V-B:TYR:539:C:9839, V-A:ASP:366:CG:3213, V-B:TYR:539:CZ:9849, H-A:ASN:370:N:3244, H-B:TYR:539:OH:9850, V-A:TYR:484:CZ:4347, V-B:PRO:540:CB:9857, V-A:ARG:545:CG:4922, V-B:PRO:540:N:9856, V-A:HIS:456:CE1:4070, V-B:TYR:539:CD2:9846, V-B:PRO:540:CD:9859, V-B:GLU:543:CD:9880, V-A:ASP:366:CB:3212, V-A:ARG:545:CD:4923, V-A:ARG:545:CZ:4926, V-B:TYR:539:CG:9844, H-A:ASP:366:O:3209, V-B:LEU:363:CD1:8160"]

$$$$
ZINC587346789
     RDKit          3D

 83 89  0  0  0  0  0  0  0  0999 V2000
  130.1330  120.5510   61.1470 C   0  0  0  0  0  0  0  0  0  0  0  0
  130.4260  122.0510   61.3770 C   0  0  1  0  0  0  0  0  0  0  0  0
  129.5560  122.9300   60.4560 C   0  0  0  0  0  0  0  0  0  0  0  0
  129.8600  124.4390   60.5830 C   0  0  2  0  0  0  0  0  0  0  0  0
  129.7220  124.8980   62.0750 C   0  0  2  0  0  0  0  0  0  0  0  0
  129.8350  126.4590   62.2360 C   0  0  1  0  0  0  0  0  0  0  0  0
  131.1570  126.9540   62.1580 O   0  0  0  0  0  0  0  0  0  0  0  0
  128.9040  127.2110   61.2410 C   0  0  0  0  0  0  0  0  0  0  0  0
  129.1220  126.8140   59.7480 C   0  0  1  0  0  0  0  0  0  0  0  0
  130.5650  127.2090   59.2630 C   0  0  0  0  0  0  0  0  0  0  0  0
  128.8960  125.2740   59.6920 C   0  0  1  0  0  0  0  0  0  0  0  0
  128.7380  124.9480   58.2030 C   0  0  0  0  0  0  0  0  0  0  0  0
  128.2420  126.2660   57.5690 C   0  0  0  0  0  0  0  0  0  0  0  0
  128.0130  127.3170   58.7180 C   0  0  1  0  0  0  0  0  0  0  0  0
  126.7180  126.9740   59.1980 O   0  0  0  0  0  0  0  0  0  0  0  0
  127.9870  128.8980   58.3010 C   0  0  2  0  0  0  0  0  0  0  0  0
  127.5550  129.0420   56.7830 C   0  0  0  0  0  0  0  0  0  0  0  0
  126.5620  129.9740   56.3980 O   0  0  0  0  0  0  0  0  0  0  0  0
  129.3450  129.3690   58.4360 O   0  0  0  0  0  0  0  0  0  0  0  0
  129.6110  130.7040   58.2020 C   0  0  0  0  0  0  0  0  0  0  0  0
  130.8860  131.0030   57.7220 C   0  0  0  0  0  0  0  0  0  0  0  0
  131.2430  132.3290   57.4810 C   0  0  0  0  0  0  0  0  0  0  0  0
  132.4910  132.6270   57.0050 O   0  0  0  0  0  0  0  0  0  0  0  0
  130.3260  133.3520   57.7260 C   0  0  0  0  0  0  0  0  0  0  0  0
  129.0550  133.0510   58.2150 C   0  0  0  0  0  0  0  0  0  0  0  0
  128.6840  131.7230   58.4690 C   0  0  0  0  0  0  0  0  0  0  0  0
  127.3250  131.3770   58.9730 C   0  0  0  0  0  0  0  0  0  0  0  0
  126.4580  132.2330   59.1610 O   0  0  0  0  0  0  0  0  0  0  0  0
  127.1060  129.8690   59.2400 C   0  0  2  0  0  0  0  0  0  0  0  0
  127.2400  129.7400   60.7760 C   0  0  0  0  0  0  0  0  0  0  0  0
  128.3240  130.3580   61.4130 C   0  0  0  0  0  0  0  0  0  0  0  0
  128.4730  130.2740   62.7940 C   0  0  0  0  0  0  0  0  0  0  0  0
  127.5410  129.5650   63.5470 C   0  0  0  0  0  0  0  0  0  0  0  0
  127.6840  129.4830   64.8900 F   0  0  0  0  0  0  0  0  0  0  0  0
  126.4640  128.9360   62.9280 C   0  0  0  0  0  0  0  0  0  0  0  0
  126.3160  129.0200   61.5480 C   0  0  0  0  0  0  0  0  0  0  0  0
  130.6100  124.0340   63.0550 C   0  0  1  0  0  0  0  0  0  0  0  0
  132.1450  124.1860   62.8560 C   0  0  0  0  0  0  0  0  0  0  0  0
  130.3270  124.4020   64.5200 C   0  0  0  0  0  0  0  0  0  0  0  0
  129.8470  123.5680   65.4610 C   0  0  0  0  0  0  0  0  0  0  0  0
  129.5220  122.1690   65.2130 C   0  0  0  0  0  0  0  0  0  0  0  0
  129.0910  121.4150   66.0840 O   0  0  0  0  0  0  0  0  0  0  0  0
  129.7500  121.7500   63.8310 C   0  0  0  0  0  0  0  0  0  0  0  0
  130.2310  122.5360   62.8310 C   0  0  0  0  0  0  0  0  0  0  0  0
  130.0339  120.0437   62.1180 H   0  0  0  0  0  0  0  0  0  0  0  0
  129.1968  120.4431   60.5797 H   0  0  0  0  0  0  0  0  0  0  0  0
  130.9598  120.0987   60.5797 H   0  0  0  0  0  0  0  0  0  0  0  0
  131.4950  122.1562   61.1402 H   0  0  0  0  0  0  0  0  0  0  0  0
  129.7328  122.6251   59.4140 H   0  0  0  0  0  0  0  0  0  0  0  0
  128.5092  122.7827   60.7601 H   0  0  0  0  0  0  0  0  0  0  0  0
  130.8928  124.6073   60.2437 H   0  0  0  0  0  0  0  0  0  0  0  0
  128.6942  124.6812   62.4015 H   0  0  0  0  0  0  0  0  0  0  0  0
  129.4938  126.6635   63.2616 H   0  0  0  0  0  0  0  0  0  0  0  0
  131.2240  127.7350   62.7120 H   0  0  0  0  0  0  0  0  0  0  0  0
  127.8602  126.9904   61.5092 H   0  0  0  0  0  0  0  0  0  0  0  0
  129.1446  128.2811   61.3252 H   0  0  0  0  0  0  0  0  0  0  0  0
  131.2099  127.3855   60.1365 H   0  0  0  0  0  0  0  0  0  0  0  0
  130.9843  126.3926   58.6567 H   0  0  0  0  0  0  0  0  0  0  0  0
  130.5101  128.1251   58.6567 H   0  0  0  0  0  0  0  0  0  0  0  0
  127.9767  124.9415   60.1963 H   0  0  0  0  0  0  0  0  0  0  0  0
  129.7014  124.6452   57.7669 H   0  0  0  0  0  0  0  0  0  0  0  0
  128.0435  124.1129   58.0291 H   0  0  0  0  0  0  0  0  0  0  0  0
  128.9961  126.6455   56.8638 H   0  0  0  0  0  0  0  0  0  0  0  0
  127.3024  126.0922   57.0241 H   0  0  0  0  0  0  0  0  0  0  0  0
  126.7370  126.9800   60.1570 H   0  0  0  0  0  0  0  0  0  0  0  0
  128.4643  129.3022   56.2213 H   0  0  0  0  0  0  0  0  0  0  0  0
  127.0766  128.0742   56.5722 H   0  0  0  0  0  0  0  0  0  0  0  0
  125.7010  129.5590   56.4880 H   0  0  0  0  0  0  0  0  0  0  0  0
  131.6080  130.1947   57.5341 H   0  0  0  0  0  0  0  0  0  0  0  0
  133.1900  132.1920   57.4980 H   0  0  0  0  0  0  0  0  0  0  0  0
  130.6062  134.3981   57.5330 H   0  0  0  0  0  0  0  0  0  0  0  0
  128.3371  133.8629   58.4031 H   0  0  0  0  0  0  0  0  0  0  0  0
  126.1157  129.4991   58.9358 H   0  0  0  0  0  0  0  0  0  0  0  0
  129.0629  130.9138   60.8170 H   0  0  0  0  0  0  0  0  0  0  0  0
  129.3236  130.7657   63.2887 H   0  0  0  0  0  0  0  0  0  0  0  0
  125.7330  128.3747   63.5285 H   0  0  0  0  0  0  0  0  0  0  0  0
  125.4684  128.5184   61.0581 H   0  0  0  0  0  0  0  0  0  0  0  0
  132.6389  124.2349   63.8377 H   0  0  0  0  0  0  0  0  0  0  0  0
  132.5294  123.3215   62.2948 H   0  0  0  0  0  0  0  0  0  0  0  0
  132.3524  125.1091   62.2948 H   0  0  0  0  0  0  0  0  0  0  0  0
  130.5350  125.4378   64.8264 H   0  0  0  0  0  0  0  0  0  0  0  0
  129.6911  123.9648   66.4750 H   0  0  0  0  0  0  0  0  0  0  0  0
  129.5113  120.7065   63.5777 H   0  0  0  0  0  0  0  0  0  0  0  0
  1  2  1  0
  2  3  1  0
  3  4  1  0
  4  5  1  0
  5  6  1  0
  6  7  1  0
  6  8  1  0
  8  9  1  0
  9 10  1  6
  9 11  1  0
 11 12  1  0
 12 13  1  0
 13 14  1  0
 14 15  1  1
 14 16  1  0
 16 17  1  6
 17 18  1  0
 16 19  1  0
 19 20  1  0
 20 21  2  0
 21 22  1  0
 22 23  1  0
 22 24  2  0
 24 25  1  0
 25 26  2  0
 26 27  1  0
 27 28  2  0
 27 29  1  0
 29 30  1  0
 30 31  2  0
 31 32  1  0
 32 33  2  0
 33 34  1  0
 33 35  1  0
 35 36  2  0
  5 37  1  0
 37 38  1  6
 37 39  1  0
 39 40  2  0
 40 41  1  0
 41 42  2  0
 41 43  1  0
 43 44  2  0
 44  2  1  0
 11  4  1  0
 29 16  1  0
 36 30  1  0
 44 37  1  0
 14  9  1  0
 26 20  1  0
  1 45  1  0
  1 46  1  0
  1 47  1  0
  2 48  1  6
  3 49  1  0
  3 50  1  0
  4 51  1  6
  5 52  1  1
  6 53  1  1
  7 54  1  0
  8 55  1  0
  8 56  1  0
 10 57  1  0
 10 58  1  0
 10 59  1  0
 11 60  1  1
 12 61  1  0
 12 62  1  0
 13 63  1  0
 13 64  1  0
 15 65  1  0
 17 66  1  0
 17 67  1  0
 18 68  1  0
 21 69  1  0
 23 70  1  0
 24 71  1  0
 25 72  1  0
 29 73  1  1
 31 74  1  0
 32 75  1  0
 35 76  1  0
 36 77  1  0
 38 78  1  0
 38 79  1  0
 38 80  1  0
 39 81  1  0
 40 82  1  0
 43 83  1  0
M  END
>  <Binding energies>  (1) 
[-7.4]

>  <Ligand effiencies>  (1) 
[-0.15416666666666667]

>  <Interactions>  (1) 
["H-A:GLU:543:OE2:4910, V-B:GLU:543:CB:9878, V-B:ALA:541:CB:9864, V-B:TYR:539:CE2:9848, V-A:TYR:484:CE2:4346, V-B:GLU:543:CG:9879, V-A:TYR:539:CD1:4873, V-A:TYR:539:CA:4869, V-A:TYR:484:CZ:4347, V-A:GLU:543:CD:4908, H-B:ASP:366:OD1:8185, V-B:TYR:539:CD2:9846, V-A:GLU:543:CG:4907, V-A:MET:535:CE:4835, V-A:TYR:539:C:4867, H-B:TYR:531:OH:9767, V-A:LEU:475:CD2:4259, H-A:ARG:545:NH2:4928, H-A:GLU:543:OE1:4909, V-A:PRO:540:N:4884, V-A:PRO:540:CB:4885, V-A:PRO:540:CA:4883, H-A:ASP:366:OD2:3215, V-A:PRO:540:CD:4887, V-A:TYR:539:CE1:4875"]

$$$$
ZINC587346840
     RDKit          3D

 62 67  0  0  0  0  0  0  0  0999 V2000
  128.2130  123.2510   63.0420 C   0  0  0  0  0  0  0  0  0  0  0  0
  129.7200  123.4290   62.7140 C   0  0  2  0  0  0  0  0  0  0  0  0
  129.9170  124.4730   61.5620 C   0  0  0  0  0  0  0  0  0  0  0  0
  130.6540  125.6480   61.7820 C   0  0  0  0  0  0  0  0  0  0  0  0
  130.8410  126.6030   60.7890 C   0  0  0  0  0  0  0  0  0  0  0  0
  130.3020  126.4220   59.5110 C   0  0  0  0  0  0  0  0  0  0  0  0
  130.4460  127.3360   58.4800 O   0  0  0  0  0  0  0  0  0  0  0  0
  131.6850  128.0170   58.3070 C   0  0  0  0  0  0  0  0  0  0  0  0
  131.4060  129.4760   57.9880 C   0  0  0  0  0  0  0  0  0  0  0  0
  132.3910  130.4430   58.2090 C   0  0  0  0  0  0  0  0  0  0  0  0
  132.1290  131.7790   57.9160 C   0  0  0  0  0  0  0  0  0  0  0  0
  130.8840  132.1430   57.4070 C   0  0  0  0  0  0  0  0  0  0  0  0
  129.8980  131.1840   57.1880 C   0  0  0  0  0  0  0  0  0  0  0  0
  130.1590  129.8480   57.4810 C   0  0  0  0  0  0  0  0  0  0  0  0
  129.5860  125.2490   59.2560 C   0  0  0  0  0  0  0  0  0  0  0  0
  129.0390  125.0380   57.9690 N   0  0  0  0  0  0  0  0  0  0  0  0
  128.3320  123.9650   57.5440 C   0  0  0  0  0  0  0  0  0  0  0  0
  127.8690  123.8850   56.4090 O   0  0  0  0  0  0  0  0  0  0  0  0
  128.1720  122.9410   58.5610 C   0  0  0  0  0  0  0  0  0  0  0  0
  128.6470  123.0640   59.8200 C   0  0  0  0  0  0  0  0  0  0  0  0
  129.3970  124.2710   60.2600 C   0  0  0  0  0  0  0  0  0  0  0  0
  130.1540  122.1260   62.2700 O   0  0  0  0  0  0  0  0  0  0  0  0
  131.5080  121.9950   62.0200 C   0  0  0  0  0  0  0  0  0  0  0  0
  131.8690  121.1140   60.9990 C   0  0  0  0  0  0  0  0  0  0  0  0
  133.2180  120.9330   60.6850 C   0  0  0  0  0  0  0  0  0  0  0  0
  133.5550  120.1380   59.7520 O   0  0  0  0  0  0  0  0  0  0  0  0
  134.1960  121.6310   61.4000 C   0  0  0  0  0  0  0  0  0  0  0  0
  133.8290  122.5040   62.4260 C   0  0  0  0  0  0  0  0  0  0  0  0
  132.4800  122.6910   62.7560 C   0  0  0  0  0  0  0  0  0  0  0  0
  132.0620  123.6280   63.8390 C   0  0  0  0  0  0  0  0  0  0  0  0
  132.8800  124.3060   64.4640 O   0  0  0  0  0  0  0  0  0  0  0  0
  130.5280  123.6560   64.0600 C   0  0  1  0  0  0  0  0  0  0  0  0
  130.0860  124.7150   65.1010 C   0  0  0  0  0  0  0  0  0  0  0  0
  130.2420  124.4140   66.4620 C   0  0  0  0  0  0  0  0  0  0  0  0
  129.8480  125.3200   67.4430 C   0  0  0  0  0  0  0  0  0  0  0  0
  129.2850  126.5370   67.0700 C   0  0  0  0  0  0  0  0  0  0  0  0
  128.9020  127.4190   68.0210 F   0  0  0  0  0  0  0  0  0  0  0  0
  129.1090  126.8490   65.7260 C   0  0  0  0  0  0  0  0  0  0  0  0
  129.5030  125.9400   64.7470 C   0  0  0  0  0  0  0  0  0  0  0  0
  128.0747  123.2347   64.1331 H   0  0  0  0  0  0  0  0  0  0  0  0
  127.6429  124.0881   62.6126 H   0  0  0  0  0  0  0  0  0  0  0  0
  127.8536  122.3042   62.6126 H   0  0  0  0  0  0  0  0  0  0  0  0
  131.0984  125.8186   62.7737 H   0  0  0  0  0  0  0  0  0  0  0  0
  131.4197  127.5117   61.0110 H   0  0  0  0  0  0  0  0  0  0  0  0
  132.2762  127.9481   59.2320 H   0  0  0  0  0  0  0  0  0  0  0  0
  132.2502  127.5574   57.4828 H   0  0  0  0  0  0  0  0  0  0  0  0
  133.3709  130.1493   58.6134 H   0  0  0  0  0  0  0  0  0  0  0  0
  132.9015  132.5435   58.0856 H   0  0  0  0  0  0  0  0  0  0  0  0
  130.6778  133.1985   57.1758 H   0  0  0  0  0  0  0  0  0  0  0  0
  128.9181  131.4805   56.7856 H   0  0  0  0  0  0  0  0  0  0  0  0
  129.3835  129.0861   57.3132 H   0  0  0  0  0  0  0  0  0  0  0  0
  129.1690  125.7600   57.2750 H   0  0  0  0  0  0  0  0  0  0  0  0
  127.6368  122.0181   58.2928 H   0  0  0  0  0  0  0  0  0  0  0  0
  128.4744  122.2496   60.5390 H   0  0  0  0  0  0  0  0  0  0  0  0
  131.0943  120.5646   60.4440 H   0  0  0  0  0  0  0  0  0  0  0  0
  135.2589  121.4918   61.1532 H   0  0  0  0  0  0  0  0  0  0  0  0
  134.6062  123.0502   62.9806 H   0  0  0  0  0  0  0  0  0  0  0  0
  130.1942  122.7617   64.6066 H   0  0  0  0  0  0  0  0  0  0  0  0
  130.6812  123.4499   66.7581 H   0  0  0  0  0  0  0  0  0  0  0  0
  129.9810  125.0753   68.5072 H   0  0  0  0  0  0  0  0  0  0  0  0
  128.6600  127.8107   65.4372 H   0  0  0  0  0  0  0  0  0  0  0  0
  129.3552  126.1857   63.6850 H   0  0  0  0  0  0  0  0  0  0  0  0
  2  1  1  1
  2  3  1  0
  3  4  2  0
  4  5  1  0
  5  6  2  0
  6  7  1  0
  7  8  1  0
  8  9  1  0
  9 10  2  0
 10 11  1  0
 11 12  2  0
 12 13  1  0
 13 14  2  0
  6 15  1  0
 15 16  1  0
 16 17  1  0
 17 18  2  0
 17 19  1  0
 19 20  2  0
 20 21  1  0
  2 22  1  0
 22 23  1  0
 23 24  2  0
 24 25  1  0
 25 26  1  0
 25 27  2  0
 27 28  1  0
 28 29  2  0
 29 30  1  0
 30 31  2  0
 30 32  1  0
 32 33  1  0
 33 34  2  0
 34 35  1  0
 35 36  2  0
 36 37  1  0
 36 38  1  0
 38 39  2  0
 32  2  1  0
 39 33  1  0
 21  3  1  0
 29 23  1  0
 14  9  1  0
 21 15  2  0
  1 40  1  0
  1 41  1  0
  1 42  1  0
  4 43  1  0
  5 44  1  0
  8 45  1  0
  8 46  1  0
 10 47  1  0
 11 48  1  0
 12 49  1  0
 13 50  1  0
 14 51  1  0
 16 52  1  0
 19 53  1  0
 20 54  1  0
 24 55  1  0
 27 56  1  0
 28 57  1  0
 32 58  1  1
 34 59  1  0
 35 60  1  0
 38 61  1  0
 39 62  1  0
M  CHG  1  26  -1
M  END
>  <Binding energies>  (1) 
[-8.5]

>  <Ligand effiencies>  (1) 
[-0.2125]

>  <Interactions>  (1) 
["V-A:ILE:369:CG2:3237, V-B:PRO:540:CA:9855, V-A:GLY:454:CA:4049, V-B:GLU:543:CB:9878, V-B:ALA:541:CB:9864, H-A:TYR:531:OH:4795, V-B:TYR:539:CE2:9848, V-A:TYR:484:CE2:4346, V-B:GLU:543:CG:9879, V-B:TYR:539:C:9839, V-A:ASP:366:CG:3213, V-A:LEU:363:CD1:3189, V-B:TYR:539:CZ:9849, H-B:TYR:539:OH:9850, V-A:TYR:484:CZ:4347, V-A:GLU:543:CD:4908, V-B:GLU:543:CA:9876, H-A:GLY:454:N:4050, V-A:SER:385:C:3405, V-B:PRO:540:N:9856, V-A:ILE:369:CD1:3239, V-A:HIS:456:CE1:4070, V-B:TYR:539:CD2:9846, V-A:TYR:531:CZ:4794, V-A:SER:385:CB:3409, H-A:SER:385:OG:3410, V-B:GLU:543:CD:9880, V-A:MET:535:CE:4835, V-A:ASP:366:CB:3212, V-A:LEU:475:CD2:4259, V-A:GLU:543:CB:4906, V-A:PRO:540:CB:4885, V-A:SER:385:CA:3407, V-B:TYR:539:CE1:9847, H-A:TYR:484:OH:4348"]

$$$$
ZINC587346840-again1
     RDKit          3D

 63 68  0  0  0  0  0  0  0  0999 V2000
  126.5910  130.3740   58.9360 C   0  0  0  0  0  0  0  0  0  0  0  0
  128.1270  130.1290   59.0040 C   0  0  2  0  0  0  0  0  0  0  0  0
  128.3680  128.7210   58.3810 C   0  0  0  0  0  0  0  0  0  0  0  0
  127.6650  128.3540   57.2230 C   0  0  0  0  0  0  0  0  0  0  0  0
  127.8750  127.1330   56.5900 C   0  0  0  0  0  0  0  0  0  0  0  0
  128.7900  126.2070   57.1030 C   0  0  0  0  0  0  0  0  0  0  0  0
  129.0630  124.9860   56.5100 O   0  0  0  0  0  0  0  0  0  0  0  0
  128.0800  123.9550   56.5320 C   0  0  0  0  0  0  0  0  0  0  0  0
  127.5350  123.8260   57.9450 C   0  0  0  0  0  0  0  0  0  0  0  0
  128.3090  123.2160   58.9360 C   0  0  0  0  0  0  0  0  0  0  0  0
  127.8080  123.0930   60.2290 C   0  0  0  0  0  0  0  0  0  0  0  0
  126.5360  123.5770   60.5260 C   0  0  0  0  0  0  0  0  0  0  0  0
  125.7580  124.1820   59.5410 C   0  0  0  0  0  0  0  0  0  0  0  0
  126.2580  124.3060   58.2470 C   0  0  0  0  0  0  0  0  0  0  0  0
  129.4570  126.5240   58.2930 C   0  0  0  0  0  0  0  0  0  0  0  0
  130.3770  125.6020   58.8400 N   0  0  0  0  0  0  0  0  0  0  0  0
  131.0920  125.7360   59.9840 C   0  0  0  0  0  0  0  0  0  0  0  0
  131.9180  124.9040   60.3500 O   0  0  0  0  0  0  0  0  0  0  0  0
  130.7890  126.9560   60.7100 C   0  0  0  0  0  0  0  0  0  0  0  0
  129.9440  127.9050   60.2490 C   0  0  0  0  0  0  0  0  0  0  0  0
  129.2310  127.7540   58.9530 C   0  0  0  0  0  0  0  0  0  0  0  0
  128.5640  130.1280   60.3780 O   0  0  0  0  0  0  0  0  0  0  0  0
  128.4320  131.3120   61.0770 C   0  0  0  0  0  0  0  0  0  0  0  0
  128.2100  131.1990   62.4490 C   0  0  0  0  0  0  0  0  0  0  0  0
  128.0820  132.3500   63.2250 C   0  0  0  0  0  0  0  0  0  0  0  0
  127.8570  132.2450   64.5720 O   0  0  0  0  0  0  0  0  0  0  0  0
  128.1830  133.6060   62.6290 C   0  0  0  0  0  0  0  0  0  0  0  0
  128.4160  133.7160   61.2580 C   0  0  0  0  0  0  0  0  0  0  0  0
  128.5480  132.5680   60.4620 C   0  0  0  0  0  0  0  0  0  0  0  0
  128.7990  132.6580   58.9970 C   0  0  0  0  0  0  0  0  0  0  0  0
  128.8960  133.7400   58.4160 O   0  0  0  0  0  0  0  0  0  0  0  0
  128.9140  131.2970   58.2750 C   0  0  1  0  0  0  0  0  0  0  0  0
  130.4110  131.0500   57.9990 C   0  0  0  0  0  0  0  0  0  0  0  0
  130.9470  131.4450   56.7670 C   0  0  0  0  0  0  0  0  0  0  0  0
  132.2900  131.2240   56.4800 C   0  0  0  0  0  0  0  0  0  0  0  0
  133.1060  130.6070   57.4240 C   0  0  0  0  0  0  0  0  0  0  0  0
  134.4110  130.3900   57.1440 F   0  0  0  0  0  0  0  0  0  0  0  0
  132.5880  130.2130   58.6550 C   0  0  0  0  0  0  0  0  0  0  0  0
  131.2460  130.4350   58.9440 C   0  0  0  0  0  0  0  0  0  0  0  0
  126.1845  130.4388   59.9561 H   0  0  0  0  0  0  0  0  0  0  0  0
  126.3931  131.3151   58.4019 H   0  0  0  0  0  0  0  0  0  0  0  0
  126.1101  129.5412   58.4019 H   0  0  0  0  0  0  0  0  0  0  0  0
  126.9260  129.0525   56.8034 H   0  0  0  0  0  0  0  0  0  0  0  0
  127.3146  126.8925   55.6745 H   0  0  0  0  0  0  0  0  0  0  0  0
  127.2619  124.2098   55.8423 H   0  0  0  0  0  0  0  0  0  0  0  0
  128.5313  123.0024   56.2177 H   0  0  0  0  0  0  0  0  0  0  0  0
  129.3119  122.8339   58.6948 H   0  0  0  0  0  0  0  0  0  0  0  0
  128.4141  122.6155   61.0130 H   0  0  0  0  0  0  0  0  0  0  0  0
  126.1418  123.4806   61.5484 H   0  0  0  0  0  0  0  0  0  0  0  0
  124.7539  124.5598   59.7842 H   0  0  0  0  0  0  0  0  0  0  0  0
  125.6486  124.7810   57.4641 H   0  0  0  0  0  0  0  0  0  0  0  0
  130.5570  124.7500   58.3290 H   0  0  0  0  0  0  0  0  0  0  0  0
  131.2718  127.1164   61.6853 H   0  0  0  0  0  0  0  0  0  0  0  0
  129.7796  128.8127   60.8483 H   0  0  0  0  0  0  0  0  0  0  0  0
  128.1362  130.2062   62.9168 H   0  0  0  0  0  0  0  0  0  0  0  0
  128.5160  131.7120   65.0220 H   0  0  0  0  0  0  0  0  0  0  0  0
  128.0786  134.5135   63.2418 H   0  0  0  0  0  0  0  0  0  0  0  0
  128.4970  134.7114   60.7969 H   0  0  0  0  0  0  0  0  0  0  0  0
  128.3953  131.3174   57.3052 H   0  0  0  0  0  0  0  0  0  0  0  0
  130.3019  131.9331   56.0216 H   0  0  0  0  0  0  0  0  0  0  0  0
  132.7058  131.5357   55.5105 H   0  0  0  0  0  0  0  0  0  0  0  0
  133.2388  129.7273   59.3970 H   0  0  0  0  0  0  0  0  0  0  0  0
  130.8373  130.1271   59.9177 H   0  0  0  0  0  0  0  0  0  0  0  0
  2  1  1  1
  2  3  1  0
  3  4  2  0
  4  5  1  0
  5  6  2  0
  6  7  1  0
  7  8  1  0
  8  9  1  0
  9 10  2  0
 10 11  1  0
 11 12  2  0
 12 13  1  0
 13 14  2  0
  6 15  1  0
 15 16  1  0
 16 17  1  0
 17 18  2  0
 17 19  1  0
 19 20  2  0
 20 21  1  0
  2 22  1  0
 22 23  1  0
 23 24  2  0
 24 25  1  0
 25 26  1  0
 25 27  2  0
 27 28  1  0
 28 29  2  0
 29 30  1  0
 30 31  2  0
 30 32  1  0
 32 33  1  0
 33 34  2  0
 34 35  1  0
 35 36  2  0
 36 37  1  0
 36 38  1  0
 38 39  2  0
 32  2  1  0
 39 33  1  0
 21  3  1  0
 29 23  1  0
 14  9  1  0
 21 15  2  0
  1 40  1  0
  1 41  1  0
  1 42  1  0
  4 43  1  0
  5 44  1  0
  8 45  1  0
  8 46  1  0
 10 47  1  0
 11 48  1  0
 12 49  1  0
 13 50  1  0
 14 51  1  0
 16 52  1  0
 19 53  1  0
 20 54  1  0
 24 55  1  0
 26 56  1  0
 27 57  1  0
 28 58  1  0
 32 59  1  6
 34 60  1  0
 35 61  1  0
 38 62  1  0
 39 63  1  0
M  END
>  <Binding energies>  (1) 
[-7.23]

>  <Ligand effiencies>  (1) 
[-0.17634146341463416]

>  <Interactions>  (1) 
["V-B:PRO:540:CA:9855, V-A:PRO:540:C:4881, V-B:TYR:539:CE2:9848, V-B:LEU:475:CD2:9230, V-A:ASP:366:CG:3213, V-A:TYR:539:CD1:4873, V-A:LEU:363:CD1:3189, V-A:LEU:363:CG:3188, V-A:LEU:363:CB:3187, V-B:TYR:539:CZ:9849, V-A:TYR:531:CE2:4793, H-B:TYR:539:OH:9850, V-A:ALA:541:CB:4892, V-A:TYR:531:CD2:4791, V-B:PRO:540:CB:9857, H-B:TYR:484:OH:9319, V-B:TYR:539:CD2:9846, V-A:TYR:531:CZ:4794, V-A:MET:535:CE:4835, V-A:TYR:539:C:4867, V-A:ASP:366:CB:3212, H-A:TYR:539:N:4870, V-A:LEU:363:CA:3185, V-A:PRO:540:CA:4883, V-B:TYR:539:CE1:9847, V-A:LEU:363:C:3183"]

$$$$
ZINC587353810
     RDKit          3D

 57 62  0  0  0  0  0  0  0  0999 V2000
  133.2450  123.6610   61.1090 O   0  0  0  0  0  0  0  0  0  0  0  0
  132.2610  123.7820   61.8400 C   0  0  0  0  0  0  0  0  0  0  0  0
  132.3710  124.2940   63.2380 C   0  0  0  0  0  0  0  0  0  0  0  0
  133.6090  124.6630   63.7830 C   0  0  0  0  0  0  0  0  0  0  0  0
  133.6950  125.1450   65.0900 C   0  0  0  0  0  0  0  0  0  0  0  0
  132.5450  125.2610   65.8700 C   0  0  0  0  0  0  0  0  0  0  0  0
  132.6310  125.7330   67.1530 O   0  0  0  0  0  0  0  0  0  0  0  0
  131.3070  124.8970   65.3440 C   0  0  0  0  0  0  0  0  0  0  0  0
  131.2230  124.4230   64.0350 C   0  0  0  0  0  0  0  0  0  0  0  0
  129.9640  124.0680   63.5920 O   0  0  0  0  0  0  0  0  0  0  0  0
  129.7230  124.2430   62.1820 C   0  0  1  0  0  0  0  0  0  0  0  0
  128.3040  123.6680   61.8820 C   0  0  0  0  0  0  0  0  0  0  0  0
  127.8060  122.7590   62.5470 O   0  0  0  0  0  0  0  0  0  0  0  0
  127.5640  124.3150   60.7370 C   0  0  0  0  0  0  0  0  0  0  0  0
  126.2840  123.9030   60.3030 C   0  0  0  0  0  0  0  0  0  0  0  0
  125.6110  122.8500   60.8720 O   0  0  0  0  0  0  0  0  0  0  0  0
  125.6460  124.5600   59.2490 C   0  0  0  0  0  0  0  0  0  0  0  0
  126.2570  125.6370   58.6110 C   0  0  0  0  0  0  0  0  0  0  0  0
  125.6210  126.2700   57.5770 O   0  0  0  0  0  0  0  0  0  0  0  0
  127.5120  126.0660   59.0270 C   0  0  0  0  0  0  0  0  0  0  0  0
  128.1490  125.4190   60.0850 C   0  0  0  0  0  0  0  0  0  0  0  0
  129.3970  125.9040   60.4150 O   0  0  0  0  0  0  0  0  0  0  0  0
  129.7250  125.7740   61.8010 C   0  0  1  0  0  0  0  0  0  0  0  0
  128.9460  126.7850   62.6720 C   0  0  0  0  0  0  0  0  0  0  0  0
  127.9110  127.5920   62.1800 C   0  0  0  0  0  0  0  0  0  0  0  0
  127.2510  128.4850   63.0220 C   0  0  0  0  0  0  0  0  0  0  0  0
  127.6240  128.5760   64.3600 C   0  0  0  0  0  0  0  0  0  0  0  0
  126.9750  129.4540   65.1870 O   0  0  0  0  0  0  0  0  0  0  0  0
  128.6500  127.7810   64.8630 C   0  0  0  0  0  0  0  0  0  0  0  0
  129.3080  126.8900   64.0190 C   0  0  0  0  0  0  0  0  0  0  0  0
  130.8250  123.4290   61.3900 C   0  0  2  0  0  0  0  0  0  0  0  0
  130.6740  121.8940   61.3780 C   0  0  0  0  0  0  0  0  0  0  0  0
  131.5660  121.1340   60.6150 C   0  0  0  0  0  0  0  0  0  0  0  0
  131.4370  119.7490   60.5540 C   0  0  0  0  0  0  0  0  0  0  0  0
  130.4090  119.1200   61.2520 C   0  0  0  0  0  0  0  0  0  0  0  0
  130.2840  117.7740   61.1910 F   0  0  0  0  0  0  0  0  0  0  0  0
  129.5080  119.8650   62.0080 C   0  0  0  0  0  0  0  0  0  0  0  0
  129.6370  121.2500   62.0690 C   0  0  0  0  0  0  0  0  0  0  0  0
  134.5210  124.5718   63.1748 H   0  0  0  0  0  0  0  0  0  0  0  0
  134.6717  125.4339   65.5055 H   0  0  0  0  0  0  0  0  0  0  0  0
  132.2440  126.6060   67.2550 H   0  0  0  0  0  0  0  0  0  0  0  0
  130.3991  124.9832   65.9591 H   0  0  0  0  0  0  0  0  0  0  0  0
  125.7740  122.7700   61.8140 H   0  0  0  0  0  0  0  0  0  0  0  0
  124.6518  124.2240   58.9195 H   0  0  0  0  0  0  0  0  0  0  0  0
  126.1820  126.3870   56.8070 H   0  0  0  0  0  0  0  0  0  0  0  0
  128.0008  126.9129   58.5233 H   0  0  0  0  0  0  0  0  0  0  0  0
  130.7536  126.0893   62.0305 H   0  0  0  0  0  0  0  0  0  0  0  0
  127.6178  127.5200   61.1223 H   0  0  0  0  0  0  0  0  0  0  0  0
  126.4387  129.1153   62.6310 H   0  0  0  0  0  0  0  0  0  0  0  0
  126.2470  129.0490   65.6650 H   0  0  0  0  0  0  0  0  0  0  0  0
  128.9395  127.8562   65.9216 H   0  0  0  0  0  0  0  0  0  0  0  0
  130.1201  126.2628   64.4154 H   0  0  0  0  0  0  0  0  0  0  0  0
  130.6474  123.7617   60.3567 H   0  0  0  0  0  0  0  0  0  0  0  0
  132.3740  121.6331   60.0600 H   0  0  0  0  0  0  0  0  0  0  0  0
  132.1440  119.1542   59.9571 H   0  0  0  0  0  0  0  0  0  0  0  0
  128.6974  119.3614   62.5550 H   0  0  0  0  0  0  0  0  0  0  0  0
  128.9231  121.8413   62.6612 H   0  0  0  0  0  0  0  0  0  0  0  0
  1  2  2  0
  2  3  1  0
  3  4  2  0
  4  5  1  0
  5  6  2  0
  6  7  1  0
  6  8  1  0
  8  9  2  0
  9 10  1  0
 11 10  1  1
 11 12  1  0
 12 13  2  0
 12 14  1  0
 14 15  2  0
 15 16  1  0
 15 17  1  0
 17 18  2  0
 18 19  1  0
 18 20  1  0
 20 21  2  0
 21 22  1  0
 22 23  1  0
 23 24  1  0
 24 25  2  0
 25 26  1  0
 26 27  2  0
 27 28  1  0
 27 29  1  0
 29 30  2  0
 11 31  1  0
 31 32  1  0
 32 33  2  0
 33 34  1  0
 34 35  2  0
 35 36  1  0
 35 37  1  0
 37 38  2  0
 31  2  1  0
 38 32  1  0
  9  3  1  0
 23 11  1  0
 30 24  1  0
 21 14  1  0
  4 39  1  0
  5 40  1  0
  7 41  1  0
  8 42  1  0
 16 43  1  0
 17 44  1  0
 19 45  1  0
 20 46  1  0
 23 47  1  6
 25 48  1  0
 26 49  1  0
 28 50  1  0
 29 51  1  0
 30 52  1  0
 31 53  1  6
 33 54  1  0
 34 55  1  0
 37 56  1  0
 38 57  1  0
M  END
>  <Binding energies>  (1) 
[-6.36]

>  <Ligand effiencies>  (1) 
[-0.15142857142857144]

>  <Interactions>  (1) 
["H-B:MET:535:SD:9806, V-B:PRO:540:CA:9855, V-A:GLY:454:CA:4049, H-A:GLU:543:OE2:4910, V-B:ALA:541:CB:9864, V-B:TYR:539:CE2:9848, H-B:ALA:541:O:9861, H-B:GLU:543:OE1:9881, H-B:ALA:541:N:9863, V-A:LEU:475:CD1:4258, V-A:TYR:484:CZ:4347, V-B:PRO:540:CB:9857, V-A:GLU:543:CD:4908, H-B:TYR:484:OH:9319, V-A:PRO:482:CB:4326, V-B:TYR:539:CD2:9846, V-B:GLU:543:CD:9880, H-B:TYR:531:OH:9767, V-A:ARG:545:CD:4923, V-A:LEU:475:CD2:4259, V-A:ARG:545:CZ:4926, H-B:GLU:543:OE2:9882, H-A:ARG:545:NE:4924, V-B:PRO:540:C:9853, V-B:ALA:541:CA:9862, V-A:HIS:383:NE2:3394, H-A:HIS:456:ND1:4067, H-A:TYR:484:OH:4348"]

$$$$
ZINC587354313
     RDKit          3D

 89 94  0  0  0  0  0  0  0  0999 V2000
  132.7540  125.4940   58.2660 C   0  0  0  0  0  0  0  0  0  0  0  0
  132.2380  126.6670   58.6710 C   0  0  0  0  0  0  0  0  0  0  0  0
  130.7520  127.0260   58.8000 C   0  0  1  0  0  0  0  0  0  0  0  0
  130.1040  126.5570   57.4750 C   0  0  0  0  0  0  0  0  0  0  0  0
  130.1960  126.2860   60.0310 C   0  0  0  0  0  0  0  0  0  0  0  0
  128.8720  126.8020   60.7240 C   0  0  1  0  0  0  0  0  0  0  0  0
  127.7520  126.6310   59.8410 O   0  0  0  0  0  0  0  0  0  0  0  0
  127.3860  125.3540   59.4660 C   0  0  0  0  0  0  0  0  0  0  0  0
  126.7460  125.2350   58.2330 C   0  0  0  0  0  0  0  0  0  0  0  0
  126.3320  123.9830   57.7830 C   0  0  0  0  0  0  0  0  0  0  0  0
  125.7090  123.8600   56.5690 O   0  0  0  0  0  0  0  0  0  0  0  0
  126.5500  122.8550   58.5710 C   0  0  0  0  0  0  0  0  0  0  0  0
  127.1730  122.9800   59.8130 C   0  0  0  0  0  0  0  0  0  0  0  0
  127.5900  124.2350   60.2830 C   0  0  0  0  0  0  0  0  0  0  0  0
  128.2440  124.3880   61.6090 C   0  0  0  0  0  0  0  0  0  0  0  0
  128.4530  123.4050   62.3270 O   0  0  0  0  0  0  0  0  0  0  0  0
  128.5950  125.8540   61.9920 C   0  0  1  0  0  0  0  0  0  0  0  0
  129.6050  125.8220   63.1690 C   0  0  0  0  0  0  0  0  0  0  0  0
  129.1420  126.0510   64.4700 C   0  0  0  0  0  0  0  0  0  0  0  0
  130.0110  126.0140   65.5560 C   0  0  0  0  0  0  0  0  0  0  0  0
  131.3540  125.7110   65.3560 C   0  0  0  0  0  0  0  0  0  0  0  0
  132.2000  125.6740   66.4090 F   0  0  0  0  0  0  0  0  0  0  0  0
  131.8260  125.4250   64.0790 C   0  0  0  0  0  0  0  0  0  0  0  0
  130.9530  125.4650   62.9960 C   0  0  0  0  0  0  0  0  0  0  0  0
  128.9730  128.4190   60.8860 C   0  0  2  0  0  0  0  0  0  0  0  0
  130.0580  128.5550   61.7880 O   0  0  0  0  0  0  0  0  0  0  0  0
  127.7780  129.3430   61.5320 C   0  0  2  0  0  0  0  0  0  0  0  0
  126.4780  129.2420   60.6500 C   0  0  0  0  0  0  0  0  0  0  0  0
  128.2100  130.9000   61.6140 C   0  0  2  0  0  0  0  0  0  0  0  0
  128.8590  131.4810   60.3200 C   0  0  2  0  0  0  0  0  0  0  0  0
  127.8240  131.8940   59.4170 O   0  0  0  0  0  0  0  0  0  0  0  0
  128.0840  132.4540   58.2140 C   0  0  0  0  0  0  0  0  0  0  0  0
  127.2040  131.8760   57.1130 C   0  0  0  0  0  0  0  0  0  0  0  0
  128.9200  133.3270   57.9770 O   0  0  0  0  0  0  0  0  0  0  0  0
  129.9250  130.5480   59.6890 C   0  0  2  0  0  0  0  0  0  0  0  0
  130.4950  131.1450   58.5310 O   0  0  0  0  0  0  0  0  0  0  0  0
  129.4580  129.0710   59.4800 C   0  0  2  0  0  0  0  0  0  0  0  0
  128.4990  129.0380   58.2360 C   0  0  0  0  0  0  0  0  0  0  0  0
  130.6780  128.4330   59.0640 O   0  0  0  0  0  0  0  0  0  0  0  0
  128.8480  131.5500   62.9390 C   0  0  0  0  0  0  0  0  0  0  0  0
  130.4040  131.5150   62.9540 C   0  0  0  0  0  0  0  0  0  0  0  0
  128.3460  133.0180   63.0560 C   0  0  0  0  0  0  0  0  0  0  0  0
  128.4220  130.8360   64.2570 C   0  0  0  0  0  0  0  0  0  0  0  0
  128.1760  129.3340   64.1460 C   0  0  0  0  0  0  0  0  0  0  0  0
  127.2300  129.0210   62.9790 C   0  0  2  0  0  0  0  0  0  0  0  0
  126.4670  127.8520   63.1730 O   0  0  0  0  0  0  0  0  0  0  0  0
  133.8448  125.3609   58.2161 H   0  0  0  0  0  0  0  0  0  0  0  0
  132.0856  124.6670   57.9844 H   0  0  0  0  0  0  0  0  0  0  0  0
  132.9583  127.4541   58.9387 H   0  0  0  0  0  0  0  0  0  0  0  0
  129.2313  125.9253   57.6971 H   0  0  0  0  0  0  0  0  0  0  0  0
  129.7835  127.4337   56.8931 H   0  0  0  0  0  0  0  0  0  0  0  0
  130.8367  125.9786   56.8931 H   0  0  0  0  0  0  0  0  0  0  0  0
  130.0097  125.2471   59.7213 H   0  0  0  0  0  0  0  0  0  0  0  0
  130.9671  126.4503   60.7981 H   0  0  0  0  0  0  0  0  0  0  0  0
  126.5682  126.1284   57.6163 H   0  0  0  0  0  0  0  0  0  0  0  0
  125.3600  122.9800   56.4150 H   0  0  0  0  0  0  0  0  0  0  0  0
  126.2306  121.8649   58.2136 H   0  0  0  0  0  0  0  0  0  0  0  0
  127.3392  122.0851   60.4307 H   0  0  0  0  0  0  0  0  0  0  0  0
  127.7265  126.3965   62.3937 H   0  0  0  0  0  0  0  0  0  0  0  0
  128.0756  126.2633   64.6362 H   0  0  0  0  0  0  0  0  0  0  0  0
  129.6374  126.2236   66.5692 H   0  0  0  0  0  0  0  0  0  0  0  0
  132.8846  125.1684   63.9260 H   0  0  0  0  0  0  0  0  0  0  0  0
  131.3231  125.2138   61.9911 H   0  0  0  0  0  0  0  0  0  0  0  0
  130.8560  128.7140   61.2780 H   0  0  0  0  0  0  0  0  0  0  0  0
  125.5959  129.1735   61.3036 H   0  0  0  0  0  0  0  0  0  0  0  0
  126.3953  130.1364   60.0150 H   0  0  0  0  0  0  0  0  0  0  0  0
  126.5344  128.3455   60.0150 H   0  0  0  0  0  0  0  0  0  0  0  0
  127.1735  131.2525   61.7206 H   0  0  0  0  0  0  0  0  0  0  0  0
  129.4442  132.3727   60.5889 H   0  0  0  0  0  0  0  0  0  0  0  0
  126.3657  131.3254   57.5648 H   0  0  0  0  0  0  0  0  0  0  0  0
  126.8124  132.6933   56.4896 H   0  0  0  0  0  0  0  0  0  0  0  0
  127.7985  131.1919   56.4896 H   0  0  0  0  0  0  0  0  0  0  0  0
  130.7290  130.4429   60.4323 H   0  0  0  0  0  0  0  0  0  0  0  0
  130.4030  132.0970   58.6020 H   0  0  0  0  0  0  0  0  0  0  0  0
  127.4545  129.0021   58.5791 H   0  0  0  0  0  0  0  0  0  0  0  0
  128.6546  129.9420   57.6290 H   0  0  0  0  0  0  0  0  0  0  0  0
  128.7164  128.1468   57.6290 H   0  0  0  0  0  0  0  0  0  0  0  0
  130.7606  131.5070   63.9946 H   0  0  0  0  0  0  0  0  0  0  0  0
  130.7554  130.6087   62.4390 H   0  0  0  0  0  0  0  0  0  0  0  0
  130.7958  132.4046   62.4390 H   0  0  0  0  0  0  0  0  0  0  0  0
  128.2529  133.2902   64.1177 H   0  0  0  0  0  0  0  0  0  0  0  0
  129.0649  133.6915   62.5665 H   0  0  0  0  0  0  0  0  0  0  0  0
  127.3652  133.1102   62.5665 H   0  0  0  0  0  0  0  0  0  0  0  0
  129.2180  130.9942   64.9996 H   0  0  0  0  0  0  0  0  0  0  0  0
  127.4550  131.2783   64.5387 H   0  0  0  0  0  0  0  0  0  0  0  0
  129.1356  128.8228   63.9793 H   0  0  0  0  0  0  0  0  0  0  0  0
  127.7120  128.9830   65.0796 H   0  0  0  0  0  0  0  0  0  0  0  0
  126.4524  129.7984   63.0111 H   0  0  0  0  0  0  0  0  0  0  0  0
  125.7960  128.0320   63.8360 H   0  0  0  0  0  0  0  0  0  0  0  0
  1  2  2  0
  2  3  1  0
  3  4  1  6
  3  5  1  0
  5  6  1  0
  6  7  1  6
  7  8  1  0
  8  9  2  0
  9 10  1  0
 10 11  1  0
 10 12  2  0
 12 13  1  0
 13 14  2  0
 14 15  1  0
 15 16  2  0
 15 17  1  0
 17 18  1  0
 18 19  2  0
 19 20  1  0
 20 21  2  0
 21 22  1  0
 21 23  1  0
 23 24  2  0
  6 25  1  0
 25 26  1  1
 25 27  1  0
 27 28  1  6
 27 29  1  0
 29 30  1  0
 30 31  1  0
 31 32  1  0
 32 33  1  0
 32 34  2  0
 30 35  1  0
 35 36  1  0
 35 37  1  0
 37 38  1  6
 37 39  1  0
 29 40  1  0
 40 41  1  0
 40 42  1  0
 40 43  1  0
 43 44  1  0
 44 45  1  0
 45 46  1  0
 39  3  1  0
 17  6  1  0
 24 18  1  0
 37 25  1  0
 14  8  1  0
 45 27  1  0
  1 47  1  0
  1 48  1  0
  2 49  1  0
  4 50  1  0
  4 51  1  0
  4 52  1  0
  5 53  1  0
  5 54  1  0
  9 55  1  0
 11 56  1  0
 12 57  1  0
 13 58  1  0
 17 59  1  1
 19 60  1  0
 20 61  1  0
 23 62  1  0
 24 63  1  0
 26 64  1  0
 28 65  1  0
 28 66  1  0
 28 67  1  0
 29 68  1  6
 30 69  1  1
 33 70  1  0
 33 71  1  0
 33 72  1  0
 35 73  1  1
 36 74  1  0
 38 75  1  0
 38 76  1  0
 38 77  1  0
 41 78  1  0
 41 79  1  0
 41 80  1  0
 42 81  1  0
 42 82  1  0
 42 83  1  0
 43 84  1  0
 43 85  1  0
 44 86  1  0
 44 87  1  0
 45 88  1  1
 46 89  1  0
M  END
>  <Binding energies>  (1) 
[-5.55]

>  <Ligand effiencies>  (1) 
[-0.111]

>  <Interactions>  (1) 
["H-B:MET:535:SD:9806, V-B:PRO:540:CA:9855, V-A:ASP:366:CA:3210, V-B:LEU:475:CD2:9230, V-B:GLU:543:CG:9879, V-B:TYR:539:C:9839, V-A:ASP:366:CG:3213, V-A:TYR:539:CD1:4873, H-B:GLU:543:OE1:9881, V-A:TYR:539:CZ:4877, V-A:ALA:541:CB:4892, V-A:GLU:543:CD:4908, V-B:PRO:540:CB:9857, V-A:ARG:545:CG:4922, V-B:PRO:540:N:9856, V-A:HIS:456:CE1:4070, V-A:ASP:366:C:3208, V-B:PRO:540:CD:9859, V-A:GLU:543:CG:4907, V-B:GLU:543:CD:9880, V-A:ASP:366:CB:3212, V-A:ARG:545:CD:4923, V-A:ARG:545:CZ:4926, H-A:GLU:543:OE1:4909, H-B:ARG:545:NH2:9900, H-A:TYR:539:N:4870, H-B:GLU:543:OE2:9882, V-B:PRO:540:C:9853, H-A:ASP:366:OD2:3215, V-A:TYR:539:CE1:4875"]

$$$$
ZINC587355286
     RDKit          3D

 95101  0  0  0  0  0  0  0  0999 V2000
  128.1240  123.8710   59.0980 C   0  0  0  0  0  0  0  0  0  0  0  0
  126.9110  124.7210   59.5070 C   0  0  0  0  0  0  0  0  0  0  0  0
  127.2990  125.8890   60.4150 C   0  0  0  0  0  0  0  0  0  0  0  0
  127.0370  127.0400   60.0820 O   0  0  0  0  0  0  0  0  0  0  0  0
  127.8960  125.4590   61.5620 O   0  0  0  0  0  0  0  0  0  0  0  0
  129.2870  125.5370   61.9870 C   0  0  2  0  0  0  0  0  0  0  0  0
  129.9280  124.0530   62.1760 C   0  0  1  0  0  0  0  0  0  0  0  0
  128.9230  122.8580   62.2540 C   0  0  0  0  0  0  0  0  0  0  0  0
  129.0060  121.8880   61.2220 O   0  0  0  0  0  0  0  0  0  0  0  0
  129.7410  120.7690   61.3800 C   0  0  0  0  0  0  0  0  0  0  0  0
  131.1700  120.9450   60.8790 C   0  0  0  0  0  0  0  0  0  0  0  0
  129.3580  119.7060   61.8680 O   0  0  0  0  0  0  0  0  0  0  0  0
  130.5140  123.5990   60.9310 O   0  0  0  0  0  0  0  0  0  0  0  0
  131.8000  123.9520   60.5740 C   0  0  0  0  0  0  0  0  0  0  0  0
  132.0920  123.8670   59.2110 C   0  0  0  0  0  0  0  0  0  0  0  0
  133.3590  124.2250   58.7440 C   0  0  0  0  0  0  0  0  0  0  0  0
  133.6220  124.1610   57.5010 O   0  0  0  0  0  0  0  0  0  0  0  0
  134.3320  124.6570   59.6490 C   0  0  0  0  0  0  0  0  0  0  0  0
  134.0400  124.7210   61.0110 C   0  0  0  0  0  0  0  0  0  0  0  0
  132.7760  124.3520   61.4940 C   0  0  0  0  0  0  0  0  0  0  0  0
  132.4530  124.4210   62.9380 C   0  0  0  0  0  0  0  0  0  0  0  0
  133.2730  124.8530   63.7520 O   0  0  0  0  0  0  0  0  0  0  0  0
  131.0530  123.8630   63.3000 C   0  0  1  0  0  0  0  0  0  0  0  0
  130.7150  124.1260   64.7870 C   0  0  0  0  0  0  0  0  0  0  0  0
  131.3330  125.1970   65.4460 C   0  0  0  0  0  0  0  0  0  0  0  0
  131.0340  125.4830   66.7740 C   0  0  0  0  0  0  0  0  0  0  0  0
  130.0940  124.7120   67.4510 C   0  0  0  0  0  0  0  0  0  0  0  0
  129.8020  124.9890   68.7420 F   0  0  0  0  0  0  0  0  0  0  0  0
  129.4470  123.6630   66.8060 C   0  0  0  0  0  0  0  0  0  0  0  0
  129.7580  123.3690   65.4810 C   0  0  0  0  0  0  0  0  0  0  0  0
  129.0080  126.2810   63.3410 C   0  0  0  0  0  0  0  0  0  0  0  0
  128.9070  127.7930   63.0750 C   0  0  0  0  0  0  0  0  0  0  0  0
  129.2690  127.9580   61.5960 C   0  0  1  0  0  0  0  0  0  0  0  0
  129.8820  129.3090   61.1180 C   0  0  2  0  0  0  0  0  0  0  0  0
  128.9880  130.4990   61.5370 C   0  0  0  0  0  0  0  0  0  0  0  0
  129.5140  131.8650   61.0530 C   0  0  2  0  0  0  0  0  0  0  0  0
  128.6190  133.0160   61.5670 C   0  0  0  0  0  0  0  0  0  0  0  0
  129.6790  131.8060   59.5170 C   0  0  0  0  0  0  0  0  0  0  0  0
  129.0330  132.6360   58.6560 C   0  0  0  0  0  0  0  0  0  0  0  0
  129.1340  132.6020   57.1980 C   0  0  0  0  0  0  0  0  0  0  0  0
  128.5320  133.3820   56.4620 O   0  0  0  0  0  0  0  0  0  0  0  0
  130.0120  131.5540   56.6980 C   0  0  0  0  0  0  0  0  0  0  0  0
  130.6830  130.6980   57.4920 C   0  0  0  0  0  0  0  0  0  0  0  0
  130.6420  130.6800   59.0280 C   0  0  1  0  0  0  0  0  0  0  0  0
  132.0830  131.0190   59.5060 C   0  0  0  0  0  0  0  0  0  0  0  0
  130.0690  129.3080   59.5610 C   0  0  1  0  0  0  0  0  0  0  0  0
  130.7730  128.0070   59.0250 C   0  0  1  0  0  0  0  0  0  0  0  0
  132.1840  127.9970   59.1110 O   0  0  0  0  0  0  0  0  0  0  0  0
  130.1440  126.7290   59.6490 C   0  0  0  0  0  0  0  0  0  0  0  0
  130.1030  126.7000   61.2170 C   0  0  2  0  0  0  0  0  0  0  0  0
  131.5640  126.7900   61.7740 C   0  0  0  0  0  0  0  0  0  0  0  0
  128.6395  123.5098   60.0001 H   0  0  0  0  0  0  0  0  0  0  0  0
  127.7850  123.0118   58.5006 H   0  0  0  0  0  0  0  0  0  0  0  0
  128.8158  124.4829   58.5006 H   0  0  0  0  0  0  0  0  0  0  0  0
  126.4375  125.1216   58.5985 H   0  0  0  0  0  0  0  0  0  0  0  0
  126.2210  124.0738   60.0683 H   0  0  0  0  0  0  0  0  0  0  0  0
  129.0919  122.3422   63.2108 H   0  0  0  0  0  0  0  0  0  0  0  0
  127.9263  123.3107   62.1462 H   0  0  0  0  0  0  0  0  0  0  0  0
  131.8520  121.0290   61.7380 H   0  0  0  0  0  0  0  0  0  0  0  0
  131.4544  120.0751   60.2688 H   0  0  0  0  0  0  0  0  0  0  0  0
  131.2348  121.8579   60.2688 H   0  0  0  0  0  0  0  0  0  0  0  0
  131.3241  123.5180   58.5049 H   0  0  0  0  0  0  0  0  0  0  0  0
  135.3293  124.9469   59.2867 H   0  0  0  0  0  0  0  0  0  0  0  0
  134.8111  125.0654   61.7158 H   0  0  0  0  0  0  0  0  0  0  0  0
  131.0828  122.7643   63.2567 H   0  0  0  0  0  0  0  0  0  0  0  0
  132.0630  125.8188   64.9070 H   0  0  0  0  0  0  0  0  0  0  0  0
  131.5385  126.3151   67.2869 H   0  0  0  0  0  0  0  0  0  0  0  0
  128.6923  123.0678   67.3409 H   0  0  0  0  0  0  0  0  0  0  0  0
  129.2492  122.5361   64.9736 H   0  0  0  0  0  0  0  0  0  0  0  0
  128.0628  125.9191   63.7718 H   0  0  0  0  0  0  0  0  0  0  0  0
  129.8279  126.0836   64.0473 H   0  0  0  0  0  0  0  0  0  0  0  0
  127.8849  128.1521   63.2656 H   0  0  0  0  0  0  0  0  0  0  0  0
  129.5715  128.3742   63.7313 H   0  0  0  0  0  0  0  0  0  0  0  0
  128.3274  128.0251   61.0314 H   0  0  0  0  0  0  0  0  0  0  0  0
  130.8657  129.4219   61.5973 H   0  0  0  0  0  0  0  0  0  0  0  0
  127.9833  130.3443   61.1168 H   0  0  0  0  0  0  0  0  0  0  0  0
  128.9812  130.5266   62.6366 H   0  0  0  0  0  0  0  0  0  0  0  0
  130.5055  132.0840   61.4761 H   0  0  0  0  0  0  0  0  0  0  0  0
  128.6184  133.0168   62.6670 H   0  0  0  0  0  0  0  0  0  0  0  0
  129.0099  133.9764   61.1999 H   0  0  0  0  0  0  0  0  0  0  0  0
  127.5919  132.8738   61.1999 H   0  0  0  0  0  0  0  0  0  0  0  0
  128.3760  133.4011   59.0952 H   0  0  0  0  0  0  0  0  0  0  0  0
  130.1343  131.4557   55.6093 H   0  0  0  0  0  0  0  0  0  0  0  0
  131.3157  129.9460   56.9979 H   0  0  0  0  0  0  0  0  0  0  0  0
  132.1124  131.0259   60.6056 H   0  0  0  0  0  0  0  0  0  0  0  0
  132.7834  130.2611   59.1252 H   0  0  0  0  0  0  0  0  0  0  0  0
  132.3721  132.0097   59.1252 H   0  0  0  0  0  0  0  0  0  0  0  0
  129.0695  129.2467   59.1057 H   0  0  0  0  0  0  0  0  0  0  0  0
  130.5759  128.0097   57.9428 H   0  0  0  0  0  0  0  0  0  0  0  0
  132.5170  128.8140   58.7310 H   0  0  0  0  0  0  0  0  0  0  0  0
  129.1112  126.6436   59.2803 H   0  0  0  0  0  0  0  0  0  0  0  0
  130.7904  125.8922   59.3457 H   0  0  0  0  0  0  0  0  0  0  0  0
  131.5379  126.7884   62.8737 H   0  0  0  0  0  0  0  0  0  0  0  0
  132.1453  125.9260   61.4198 H   0  0  0  0  0  0  0  0  0  0  0  0
  132.0349  127.7189   61.4198 H   0  0  0  0  0  0  0  0  0  0  0  0
  1  2  1  0
  2  3  1  0
  3  4  2  0
  3  5  1  0
  6  5  1  6
  6  7  1  0
  7  8  1  1
  8  9  1  0
  9 10  1  0
 10 11  1  0
 10 12  2  0
  7 13  1  0
 13 14  1  0
 14 15  2  0
 15 16  1  0
 16 17  1  0
 16 18  2  0
 18 19  1  0
 19 20  2  0
 20 21  1  0
 21 22  2  0
 21 23  1  0
 23 24  1  0
 24 25  2  0
 25 26  1  0
 26 27  2  0
 27 28  1  0
 27 29  1  0
 29 30  2  0
  6 31  1  0
 31 32  1  0
 32 33  1  0
 33 34  1  0
 34 35  1  0
 35 36  1  0
 36 37  1  0
 36 38  1  0
 38 39  2  0
 39 40  1  0
 40 41  2  0
 40 42  1  0
 42 43  2  0
 43 44  1  0
 44 45  1  1
 44 46  1  0
 46 47  1  0
 47 48  1  0
 47 49  1  0
 49 50  1  0
 50 51  1  1
 50  6  1  0
 23  7  1  0
 30 24  1  0
 50 33  1  0
 20 14  1  0
 46 34  1  0
 44 38  1  0
  1 52  1  0
  1 53  1  0
  1 54  1  0
  2 55  1  0
  2 56  1  0
  8 57  1  0
  8 58  1  0
 11 59  1  0
 11 60  1  0
 11 61  1  0
 15 62  1  0
 18 63  1  0
 19 64  1  0
 23 65  1  1
 25 66  1  0
 26 67  1  0
 29 68  1  0
 30 69  1  0
 31 70  1  0
 31 71  1  0
 32 72  1  0
 32 73  1  0
 33 74  1  6
 34 75  1  1
 35 76  1  0
 35 77  1  0
 36 78  1  1
 37 79  1  0
 37 80  1  0
 37 81  1  0
 39 82  1  0
 42 83  1  0
 43 84  1  0
 45 85  1  0
 45 86  1  0
 45 87  1  0
 46 88  1  6
 47 89  1  6
 48 90  1  0
 49 91  1  0
 49 92  1  0
 51 93  1  0
 51 94  1  0
 51 95  1  0
M  CHG  1  17  -1
M  END
>  <Binding energies>  (1) 
[-8.76]

>  <Ligand effiencies>  (1) 
[-0.16846153846153847]

>  <Interactions>  (1) 
["V-A:ILE:369:CG2:3237, V-A:ASP:366:CA:3210, V-B:GLU:543:C:9874, V-A:ILE:369:CB:3236, V-B:GLU:543:CB:9878, V-B:ALA:541:CB:9864, H-A:TYR:531:OH:4795, V-B:TYR:539:CE2:9848, V-A:TYR:484:CE2:4346, V-B:GLU:543:CG:9879, V-A:ASP:366:CG:3213, V-A:HIS:456:CD2:4068, V-A:TYR:539:CD1:4873, V-B:TYR:539:CZ:9849, H-A:ASN:370:N:3244, H-B:TYR:539:OH:9850, H-B:ALA:541:N:9863, V-A:GLU:543:CD:4908, V-A:TYR:484:CZ:4347, V-B:GLU:543:CA:9876, H-A:GLY:454:N:4050, V-A:TYR:484:CD2:4344, V-A:ILE:369:CD1:3239, V-A:HIS:456:CE1:4070, V-A:ASP:366:C:3208, V-B:TYR:539:CD2:9846, V-B:GLU:543:CD:9880, V-A:MET:535:CE:4835, V-A:TYR:539:C:4867, V-A:ASP:366:CB:3212, V-A:LEU:475:CD2:4259, H-A:ARG:545:NH2:4928, V-A:PRO:540:N:4884, H-A:TYR:539:N:4870, V-A:PRO:540:CB:4885, V-A:PRO:540:CA:4883, H-A:ASP:366:OD2:3215"]

$$$$
ZINC587356021
     RDKit          3D

 41 44  0  0  0  0  0  0  0  0999 V2000
  132.1060  121.6900   61.7080 O   0  0  0  0  0  0  0  0  0  0  0  0
  131.2780  122.5070   61.3020 C   0  0  0  0  0  0  0  0  0  0  0  0
  131.6160  123.5270   60.2640 C   0  0  0  0  0  0  0  0  0  0  0  0
  132.9060  123.6080   59.7190 C   0  0  0  0  0  0  0  0  0  0  0  0
  133.2100  124.5630   58.7490 C   0  0  0  0  0  0  0  0  0  0  0  0
  132.2290  125.4520   58.3090 C   0  0  0  0  0  0  0  0  0  0  0  0
  132.5310  126.3920   57.3610 O   0  0  0  0  0  0  0  0  0  0  0  0
  130.9410  125.3810   58.8360 C   0  0  0  0  0  0  0  0  0  0  0  0
  130.6360  124.4200   59.8000 C   0  0  0  0  0  0  0  0  0  0  0  0
  129.3390  124.4270   60.2760 O   0  0  0  0  0  0  0  0  0  0  0  0
  128.8290  123.1610   60.7390 C   0  0  2  0  0  0  0  0  0  0  0  0
  128.6510  122.1940   59.5100 C   0  0  0  0  0  0  0  0  0  0  0  0
  127.9850  122.7460   58.2460 C   0  0  0  0  0  0  0  0  0  0  0  0
  127.0320  123.6980   58.1650 C   0  0  0  0  0  0  0  0  0  0  0  0
  126.3200  124.3840   59.2330 C   0  0  0  0  0  0  0  0  0  0  0  0
  126.4620  124.2220   60.5610 C   0  0  0  0  0  0  0  0  0  0  0  0
  127.4010  123.4060   61.3090 C   0  0  0  0  0  0  0  0  0  0  0  0
  127.0250  122.9420   62.3870 O   0  0  0  0  0  0  0  0  0  0  0  0
  129.8220  122.5610   61.8160 C   0  0  2  0  0  0  0  0  0  0  0  0
  129.8520  123.2430   63.1990 C   0  0  0  0  0  0  0  0  0  0  0  0
  130.2390  124.5860   63.2830 C   0  0  0  0  0  0  0  0  0  0  0  0
  130.2880  125.2270   64.5180 C   0  0  0  0  0  0  0  0  0  0  0  0
  129.9520  124.5270   65.6740 C   0  0  0  0  0  0  0  0  0  0  0  0
  130.0000  125.1500   66.8730 F   0  0  0  0  0  0  0  0  0  0  0  0
  129.5710  123.1900   65.6040 C   0  0  0  0  0  0  0  0  0  0  0  0
  129.5220  122.5470   64.3710 C   0  0  0  0  0  0  0  0  0  0  0  0
  133.6858  122.9112   60.0601 H   0  0  0  0  0  0  0  0  0  0  0  0
  134.2257  124.6153   58.3299 H   0  0  0  0  0  0  0  0  0  0  0  0
  132.1160  127.2400   57.5300 H   0  0  0  0  0  0  0  0  0  0  0  0
  130.1659  126.0818   58.4923 H   0  0  0  0  0  0  0  0  0  0  0  0
  129.6532  121.8423   59.2237 H   0  0  0  0  0  0  0  0  0  0  0  0
  127.9557  121.4211   59.8694 H   0  0  0  0  0  0  0  0  0  0  0  0
  128.3234  122.3157   57.2919 H   0  0  0  0  0  0  0  0  0  0  0  0
  126.7530  123.9990   57.1444 H   0  0  0  0  0  0  0  0  0  0  0  0
  125.5735  125.1267   58.9151 H   0  0  0  0  0  0  0  0  0  0  0  0
  125.7557  124.7984   61.1766 H   0  0  0  0  0  0  0  0  0  0  0  0
  129.3952  121.5581   61.9644 H   0  0  0  0  0  0  0  0  0  0  0  0
  130.5055  125.1372   62.3691 H   0  0  0  0  0  0  0  0  0  0  0  0
  130.5910  126.2826   64.5804 H   0  0  0  0  0  0  0  0  0  0  0  0
  129.3092  122.6428   66.5216 H   0  0  0  0  0  0  0  0  0  0  0  0
  129.2236  121.4897   64.3153 H   0  0  0  0  0  0  0  0  0  0  0  0
  1  2  2  0
  2  3  1  0
  3  4  2  0
  4  5  1  0
  5  6  2  0
  6  7  1  0
  6  8  1  0
  8  9  2  0
  9 10  1  0
 11 10  1  6
 11 12  1  0
 12 13  1  0
 13 14  2  0
 14 15  1  0
 15 16  2  0
 16 17  1  0
 17 18  2  0
 11 19  1  0
 19 20  1  0
 20 21  2  0
 21 22  1  0
 22 23  2  0
 23 24  1  0
 23 25  1  0
 25 26  2  0
 19  2  1  0
 26 20  1  0
  9  3  1  0
 17 11  1  0
  4 27  1  0
  5 28  1  0
  7 29  1  0
  8 30  1  0
 12 31  1  0
 12 32  1  0
 13 33  1  0
 14 34  1  0
 15 35  1  0
 16 36  1  0
 19 37  1  1
 21 38  1  0
 22 39  1  0
 25 40  1  0
 26 41  1  0
M  END
>  <Binding energies>  (1) 
[-5.67]

>  <Ligand effiencies>  (1) 
[-0.19551724137931034]

>  <Interactions>  (1) 
["V-A:ILE:369:CG2:3237, V-A:ASP:366:CA:3210, V-B:PRO:540:CA:9855, V-B:GLU:543:CB:9878, V-B:ALA:541:CB:9864, H-A:TYR:531:OH:4795, V-B:TYR:539:CE2:9848, V-A:TYR:484:CE2:4346, V-B:GLU:543:CG:9879, V-B:TYR:539:C:9839, V-B:TYR:539:CZ:9849, H-B:TYR:539:OH:9850, H-B:ALA:541:N:9863, V-A:TYR:484:CZ:4347, V-B:GLU:543:CA:9876, V-B:PRO:540:N:9856, V-A:HIS:456:CE1:4070, V-B:TYR:539:CD2:9846, V-B:GLU:543:CD:9880, V-A:ASP:366:CB:3212, V-A:LEU:475:CD2:4259, V-B:TYR:539:CG:9844"]

$$$$
ZINC587359378
     RDKit          3D

 45 48  0  0  0  0  0  0  0  0999 V2000
  133.1590  123.6690   62.7470 C   0  0  0  0  0  0  0  0  0  0  0  0
  131.8170  124.1210   62.0960 C   0  0  2  0  0  0  0  0  0  0  0  0
  132.1310  124.6500   60.6790 C   0  0  0  0  0  0  0  0  0  0  0  0
  131.6570  125.9060   60.2740 C   0  0  0  0  0  0  0  0  0  0  0  0
  131.9510  126.4090   59.0080 C   0  0  0  0  0  0  0  0  0  0  0  0
  132.7300  125.6650   58.1210 C   0  0  0  0  0  0  0  0  0  0  0  0
  133.0090  126.1810   56.8800 O   0  0  0  0  0  0  0  0  0  0  0  0
  133.2150  124.4100   58.5090 C   0  0  0  0  0  0  0  0  0  0  0  0
  133.9890  123.6580   57.6620 O   0  0  0  0  0  0  0  0  0  0  0  0
  132.9150  123.9120   59.7790 C   0  0  0  0  0  0  0  0  0  0  0  0
  131.2800  125.1850   62.9080 O   0  0  0  0  0  0  0  0  0  0  0  0
  130.8130  124.8390   64.1620 C   0  0  0  0  0  0  0  0  0  0  0  0
  130.8490  125.8440   65.1290 C   0  0  0  0  0  0  0  0  0  0  0  0
  130.3860  125.5830   66.4180 C   0  0  0  0  0  0  0  0  0  0  0  0
  130.4220  126.5650   67.3710 O   0  0  0  0  0  0  0  0  0  0  0  0
  129.8830  124.3210   66.7350 C   0  0  0  0  0  0  0  0  0  0  0  0
  129.8400  123.3200   65.7640 C   0  0  0  0  0  0  0  0  0  0  0  0
  130.2990  123.5660   64.4620 C   0  0  0  0  0  0  0  0  0  0  0  0
  130.2570  122.5050   63.4150 C   0  0  0  0  0  0  0  0  0  0  0  0
  129.8330  121.3720   63.6490 O   0  0  0  0  0  0  0  0  0  0  0  0
  130.7790  122.9380   62.0280 C   0  0  1  0  0  0  0  0  0  0  0  0
  129.5790  123.1860   61.0970 C   0  0  0  0  0  0  0  0  0  0  0  0
  128.8310  124.3580   61.2550 C   0  0  0  0  0  0  0  0  0  0  0  0
  127.7170  124.5940   60.4550 C   0  0  0  0  0  0  0  0  0  0  0  0
  127.3430  123.6570   59.4950 C   0  0  0  0  0  0  0  0  0  0  0  0
  126.2600  123.8860   58.7200 F   0  0  0  0  0  0  0  0  0  0  0  0
  128.0760  122.4840   59.3290 C   0  0  0  0  0  0  0  0  0  0  0  0
  129.1890  122.2460   60.1300 C   0  0  0  0  0  0  0  0  0  0  0  0
  133.0642  123.7009   63.8424 H   0  0  0  0  0  0  0  0  0  0  0  0
  133.3933  122.6424   62.4290 H   0  0  0  0  0  0  0  0  0  0  0  0
  133.9667  124.3447   62.4290 H   0  0  0  0  0  0  0  0  0  0  0  0
  131.0442  126.5029   60.9656 H   0  0  0  0  0  0  0  0  0  0  0  0
  131.5679  127.3953   58.7071 H   0  0  0  0  0  0  0  0  0  0  0  0
  132.8430  127.1240   56.8180 H   0  0  0  0  0  0  0  0  0  0  0  0
  134.3550  124.1660   56.9350 H   0  0  0  0  0  0  0  0  0  0  0  0
  133.2993  122.9258   60.0784 H   0  0  0  0  0  0  0  0  0  0  0  0
  131.2416  126.8397   64.8752 H   0  0  0  0  0  0  0  0  0  0  0  0
  131.1690  127.1600   67.2660 H   0  0  0  0  0  0  0  0  0  0  0  0
  129.5196  124.1147   67.7525 H   0  0  0  0  0  0  0  0  0  0  0  0
  129.4420  122.3276   66.0225 H   0  0  0  0  0  0  0  0  0  0  0  0
  131.3728  122.1208   61.5926 H   0  0  0  0  0  0  0  0  0  0  0  0
  129.1250  125.0965   62.0154 H   0  0  0  0  0  0  0  0  0  0  0  0
  127.1335  125.5180   60.5806 H   0  0  0  0  0  0  0  0  0  0  0  0
  127.7762  121.7487   58.5678 H   0  0  0  0  0  0  0  0  0  0  0  0
  129.7655  121.3175   60.0049 H   0  0  0  0  0  0  0  0  0  0  0  0
  2  1  1  1
  2  3  1  0
  3  4  2  0
  4  5  1  0
  5  6  2  0
  6  7  1  0
  6  8  1  0
  8  9  1  0
  8 10  2  0
  2 11  1  0
 11 12  1  0
 12 13  2  0
 13 14  1  0
 14 15  1  0
 14 16  2  0
 16 17  1  0
 17 18  2  0
 18 19  1  0
 19 20  2  0
 19 21  1  0
 21 22  1  0
 22 23  2  0
 23 24  1  0
 24 25  2  0
 25 26  1  0
 25 27  1  0
 27 28  2  0
 21  2  1  0
 28 22  1  0
 10  3  1  0
 18 12  1  0
  1 29  1  0
  1 30  1  0
  1 31  1  0
  4 32  1  0
  5 33  1  0
  7 34  1  0
  9 35  1  0
 10 36  1  0
 13 37  1  0
 15 38  1  0
 16 39  1  0
 17 40  1  0
 21 41  1  6
 23 42  1  0
 24 43  1  0
 27 44  1  0
 28 45  1  0
M  END
>  <Binding energies>  (1) 
[-6.85]

>  <Ligand effiencies>  (1) 
[-0.22096774193548385]

>  <Interactions>  (1) 
["V-A:ILE:369:CG2:3237, V-A:ASP:366:CA:3210, V-B:PRO:540:CA:9855, H-A:GLU:543:OE2:4910, V-B:GLU:543:CB:9878, V-B:ALA:541:CB:9864, H-A:TYR:531:OH:4795, V-A:TYR:484:CE2:4346, V-B:TYR:539:CE2:9848, V-B:GLU:543:CG:9879, V-B:TYR:539:C:9839, V-A:ASP:366:CG:3213, V-B:TYR:539:CZ:9849, H-A:ASN:370:N:3244, H-B:TYR:539:OH:9850, V-A:GLU:543:CD:4908, V-A:TYR:484:CZ:4347, V-B:PRO:540:CB:9857, V-B:GLU:543:CA:9876, V-B:PRO:540:N:9856, V-A:HIS:456:CE1:4070, V-A:ASP:366:C:3208, V-B:TYR:539:CD2:9846, V-A:ASP:366:CB:3212, V-A:LEU:475:CD2:4259, H-A:ASP:366:O:3209"]

$$$$
ZINC587359551-again1
     RDKit          3D

 49 52  0  0  0  0  0  0  0  0999 V2000
  128.6490  126.8830   62.8120 C   0  0  0  0  0  0  0  0  0  0  0  0
  129.3050  127.1620   61.0680 S   0  0  0  0  0  0  0  0  0  0  0  0
  128.2550  126.7440   60.1320 O   0  0  0  0  0  0  0  0  0  0  0  0
  129.8330  128.5290   61.0090 O   0  0  0  0  0  0  0  0  0  0  0  0
  130.7600  125.9400   60.9410 C   0  0  2  0  0  0  0  0  0  0  0  0
  131.6130  126.0830   59.1400 Br  0  0  0  0  0  0  0  0  0  0  0  0
  130.3550  124.4600   61.3110 C   0  0  2  0  0  0  0  0  0  0  0  0
  129.0650  124.0590   60.5490 C   0  0  0  0  0  0  0  0  0  0  0  0
  127.8340  123.9580   61.2160 C   0  0  0  0  0  0  0  0  0  0  0  0
  126.6820  123.5860   60.5300 C   0  0  0  0  0  0  0  0  0  0  0  0
  126.7500  123.3040   59.1690 C   0  0  0  0  0  0  0  0  0  0  0  0
  127.9620  123.3860   58.4910 C   0  0  0  0  0  0  0  0  0  0  0  0
  129.1130  123.7600   59.1780 C   0  0  0  0  0  0  0  0  0  0  0  0
  130.0860  124.4090   62.7300 O   0  0  0  0  0  0  0  0  0  0  0  0
  131.1510  124.6240   63.5830 C   0  0  0  0  0  0  0  0  0  0  0  0
  130.8470  125.1900   64.8210 C   0  0  0  0  0  0  0  0  0  0  0  0
  131.8660  125.4320   65.7410 C   0  0  0  0  0  0  0  0  0  0  0  0
  131.5740  125.9960   66.9540 O   0  0  0  0  0  0  0  0  0  0  0  0
  133.1820  125.0990   65.4240 C   0  0  0  0  0  0  0  0  0  0  0  0
  133.4830  124.5220   64.1900 C   0  0  0  0  0  0  0  0  0  0  0  0
  132.4700  124.2730   63.2520 C   0  0  0  0  0  0  0  0  0  0  0  0
  132.7690  123.6650   61.9250 C   0  0  0  0  0  0  0  0  0  0  0  0
  133.9160  123.3670   61.5870 O   0  0  0  0  0  0  0  0  0  0  0  0
  131.5370  123.4470   61.0210 C   0  0  1  0  0  0  0  0  0  0  0  0
  131.1690  121.9510   61.0720 C   0  0  0  0  0  0  0  0  0  0  0  0
  132.0490  121.0170   60.5160 C   0  0  0  0  0  0  0  0  0  0  0  0
  131.7380  119.6610   60.5290 C   0  0  0  0  0  0  0  0  0  0  0  0
  130.5410  119.2330   61.0990 C   0  0  0  0  0  0  0  0  0  0  0  0
  130.2370  117.9150   61.1110 F   0  0  0  0  0  0  0  0  0  0  0  0
  129.6550  120.1510   61.6560 C   0  0  0  0  0  0  0  0  0  0  0  0
  129.9670  121.5080   61.6430 C   0  0  0  0  0  0  0  0  0  0  0  0
  129.4047  127.2044   63.5438 H   0  0  0  0  0  0  0  0  0  0  0  0
  127.7281  127.4673   62.9552 H   0  0  0  0  0  0  0  0  0  0  0  0
  128.4311  125.8143   62.9552 H   0  0  0  0  0  0  0  0  0  0  0  0
  131.5075  126.2225   61.6969 H   0  0  0  0  0  0  0  0  0  0  0  0
  127.7795  124.1753   62.2929 H   0  0  0  0  0  0  0  0  0  0  0  0
  125.7215  123.5151   61.0613 H   0  0  0  0  0  0  0  0  0  0  0  0
  125.8388  123.0141   58.6253 H   0  0  0  0  0  0  0  0  0  0  0  0
  128.0103  123.1562   57.4164 H   0  0  0  0  0  0  0  0  0  0  0  0
  130.0710  123.8221   58.6410 H   0  0  0  0  0  0  0  0  0  0  0  0
  129.8064  125.4446   65.0706 H   0  0  0  0  0  0  0  0  0  0  0  0
  131.4820  126.9500   66.9100 H   0  0  0  0  0  0  0  0  0  0  0  0
  133.9860  125.2919   66.1495 H   0  0  0  0  0  0  0  0  0  0  0  0
  134.5241  124.2599   63.9503 H   0  0  0  0  0  0  0  0  0  0  0  0
  131.7805  123.6938   59.9771 H   0  0  0  0  0  0  0  0  0  0  0  0
  132.9932  121.3567   60.0654 H   0  0  0  0  0  0  0  0  0  0  0  0
  132.4340  118.9302   60.0913 H   0  0  0  0  0  0  0  0  0  0  0  0
  128.7119  119.8057   62.1047 H   0  0  0  0  0  0  0  0  0  0  0  0
  129.2682  122.2352   62.0822 H   0  0  0  0  0  0  0  0  0  0  0  0
  1  2  1  0
  2  3  2  0
  2  4  2  0
  2  5  1  0
  5  6  1  0
  5  7  1  0
  7  8  1  6
  8  9  2  0
  9 10  1  0
 10 11  2  0
 11 12  1  0
 12 13  2  0
  7 14  1  0
 14 15  1  0
 15 16  2  0
 16 17  1  0
 17 18  1  0
 17 19  2  0
 19 20  1  0
 20 21  2  0
 21 22  1  0
 22 23  2  0
 22 24  1  0
 24 25  1  0
 25 26  2  0
 26 27  1  0
 27 28  2  0
 28 29  1  0
 28 30  1  0
 30 31  2  0
 24  7  1  0
 31 25  1  0
 13  8  1  0
 21 15  1  0
  1 32  1  0
  1 33  1  0
  1 34  1  0
  5 35  1  1
  9 36  1  0
 10 37  1  0
 11 38  1  0
 12 39  1  0
 13 40  1  0
 16 41  1  0
 18 42  1  0
 19 43  1  0
 20 44  1  0
 24 45  1  6
 26 46  1  0
 27 47  1  0
 30 48  1  0
 31 49  1  0
M  END
>  <Binding energies>  (1) 
[-6.72]

>  <Ligand effiencies>  (1) 
[-0.21]

>  <Interactions>  (1) 
["V-B:PRO:540:CA:9855, V-A:GLY:454:CA:4049, H-A:GLU:543:OE2:4910, V-B:ALA:541:CB:9864, V-B:TYR:539:CE2:9848, V-A:ASP:366:CG:3213, V-B:TYR:539:CZ:9849, V-A:GLU:543:CD:4908, V-B:PRO:540:CB:9857, V-B:PRO:540:N:9856, V-A:PRO:482:CB:4326, V-B:TYR:539:CD2:9846, V-A:SER:385:CB:3409, V-B:GLU:543:CD:9880, V-A:ASP:366:CB:3212, V-A:ARG:545:CD:4923, V-A:LEU:475:CD2:4259, V-A:ARG:545:CZ:4926, V-B:PRO:540:C:9853, V-A:HIS:383:NE2:3394, H-A:TYR:484:OH:4348"]

$$$$
ZINC587366035
     RDKit          3D

 92 98  0  0  0  0  0  0  0  0999 V2000
  130.7130  132.7520   56.6650 C   0  0  0  0  0  0  0  0  0  0  0  0
  129.3910  133.2330   56.4500 O   0  0  0  0  0  0  0  0  0  0  0  0
  128.3300  132.5640   57.0290 C   0  0  0  0  0  0  0  0  0  0  0  0
  127.0230  132.5480   56.5140 C   0  0  0  0  0  0  0  0  0  0  0  0
  126.0180  131.8330   57.1620 C   0  0  0  0  0  0  0  0  0  0  0  0
  126.3030  131.1330   58.3320 C   0  0  0  0  0  0  0  0  0  0  0  0
  127.5920  131.1520   58.8750 C   0  0  0  0  0  0  0  0  0  0  0  0
  127.8940  130.3830   60.1060 C   0  0  0  0  0  0  0  0  0  0  0  0
  128.1200  128.9850   60.1700 C   0  0  0  0  0  0  0  0  0  0  0  0
  128.0690  128.0840   58.9080 C   0  0  0  0  0  0  0  0  0  0  0  0
  129.4420  127.7990   58.2670 C   0  0  0  0  0  0  0  0  0  0  0  0
  127.0110  128.5280   57.8820 C   0  0  0  0  0  0  0  0  0  0  0  0
  128.4030  128.4100   61.4360 C   0  0  0  0  0  0  0  0  0  0  0  0
  128.6620  126.9450   61.6400 C   0  0  0  0  0  0  0  0  0  0  0  0
  127.5580  126.0800   61.7160 C   0  0  0  0  0  0  0  0  0  0  0  0
  126.2740  126.5460   61.5830 O   0  0  0  0  0  0  0  0  0  0  0  0
  127.7360  124.7190   61.9170 C   0  0  0  0  0  0  0  0  0  0  0  0
  129.0150  124.2080   62.0810 C   0  0  0  0  0  0  0  0  0  0  0  0
  130.1540  125.0260   62.0700 C   0  0  0  0  0  0  0  0  0  0  0  0
  129.9670  126.4070   61.7980 C   0  0  0  0  0  0  0  0  0  0  0  0
  130.9910  127.1680   61.6800 O   0  0  0  0  0  0  0  0  0  0  0  0
  131.5150  124.3370   62.3600 C   0  0  1  0  0  0  0  0  0  0  0  0
  131.8470  124.3280   63.8840 C   0  0  0  0  0  0  0  0  0  0  0  0
  132.7340  125.4750   64.4280 C   0  0  0  0  0  0  0  0  0  0  0  0
  134.2290  125.1000   64.4610 C   0  0  0  0  0  0  0  0  0  0  0  0
  132.2620  125.9220   65.8240 C   0  0  0  0  0  0  0  0  0  0  0  0
  131.4530  122.8750   61.8640 C   0  0  0  0  0  0  0  0  0  0  0  0
  130.2680  122.2230   61.8620 C   0  0  0  0  0  0  0  0  0  0  0  0
  129.1010  122.8380   62.1970 O   0  0  0  0  0  0  0  0  0  0  0  0
  130.0420  120.7450   61.5180 C   0  0  0  0  0  0  0  0  0  0  0  0
  129.7680  119.9950   62.8450 C   0  0  0  0  0  0  0  0  0  0  0  0
  128.8660  120.6530   60.5010 C   0  0  0  0  0  0  0  0  0  0  0  0
  131.2700  120.0490   60.8650 C   0  0  0  0  0  0  0  0  0  0  0  0
  131.1460  118.9800   60.2590 O   0  0  0  0  0  0  0  0  0  0  0  0
  132.6700  120.7250   60.9970 C   0  0  0  0  0  0  0  0  0  0  0  0
  133.2950  120.7730   59.5730 C   0  0  0  0  0  0  0  0  0  0  0  0
  133.4840  119.8480   61.9900 C   0  0  0  0  0  0  0  0  0  0  0  0
  132.7110  122.1870   61.5350 C   0  0  0  0  0  0  0  0  0  0  0  0
  133.7920  122.7400   61.7540 O   0  0  0  0  0  0  0  0  0  0  0  0
  128.4770  129.1100   62.6020 N   0  0  0  0  0  0  0  0  0  0  0  0
  128.2660  130.4220   62.5400 C   0  0  0  0  0  0  0  0  0  0  0  0
  127.9800  131.0720   61.3250 C   0  0  0  0  0  0  0  0  0  0  0  0
  127.8070  132.4210   61.5360 O   0  0  0  0  0  0  0  0  0  0  0  0
  127.9810  132.6270   62.8810 C   0  0  0  0  0  0  0  0  0  0  0  0
  127.8950  133.8500   63.5560 C   0  0  0  0  0  0  0  0  0  0  0  0
  128.1080  133.8230   64.9350 C   0  0  0  0  0  0  0  0  0  0  0  0
  128.3900  132.6310   65.6060 C   0  0  0  0  0  0  0  0  0  0  0  0
  128.4740  131.4120   64.9240 C   0  0  0  0  0  0  0  0  0  0  0  0
  128.2660  131.4070   63.5350 C   0  0  0  0  0  0  0  0  0  0  0  0
  128.5970  131.8570   58.2040 C   0  0  0  0  0  0  0  0  0  0  0  0
  130.9064  132.6816   57.7456 H   0  0  0  0  0  0  0  0  0  0  0  0
  130.8201  131.7573   56.2078 H   0  0  0  0  0  0  0  0  0  0  0  0
  131.4343  133.4453   56.2078 H   0  0  0  0  0  0  0  0  0  0  0  0
  126.7916  133.1036   55.5932 H   0  0  0  0  0  0  0  0  0  0  0  0
  124.9985  131.8213   56.7492 H   0  0  0  0  0  0  0  0  0  0  0  0
  125.5082  130.5608   58.8329 H   0  0  0  0  0  0  0  0  0  0  0  0
  127.7328  127.1092   59.2910 H   0  0  0  0  0  0  0  0  0  0  0  0
  130.1907  127.6436   59.0578 H   0  0  0  0  0  0  0  0  0  0  0  0
  129.3749  126.8956   57.6430 H   0  0  0  0  0  0  0  0  0  0  0  0
  129.7400  128.6544   57.6430 H   0  0  0  0  0  0  0  0  0  0  0  0
  126.1215  128.9013   58.4107 H   0  0  0  0  0  0  0  0  0  0  0  0
  127.4252  129.3282   57.2510 H   0  0  0  0  0  0  0  0  0  0  0  0
  126.7301  127.6718   57.2510 H   0  0  0  0  0  0  0  0  0  0  0  0
  125.6210  125.9300   61.9210 H   0  0  0  0  0  0  0  0  0  0  0  0
  126.8655  124.0471   61.9462 H   0  0  0  0  0  0  0  0  0  0  0  0
  132.2995  124.9036   61.8369 H   0  0  0  0  0  0  0  0  0  0  0  0
  130.8925  124.3622   64.4296 H   0  0  0  0  0  0  0  0  0  0  0  0
  132.4428  123.4159   64.0362 H   0  0  0  0  0  0  0  0  0  0  0  0
  132.6242  126.3166   63.7283 H   0  0  0  0  0  0  0  0  0  0  0  0
  134.5630  125.0162   65.5057 H   0  0  0  0  0  0  0  0  0  0  0  0
  134.3768  124.1370   63.9504 H   0  0  0  0  0  0  0  0  0  0  0  0
  134.8139  125.8793   63.9504 H   0  0  0  0  0  0  0  0  0  0  0  0
  132.8322  125.3820   66.5942 H   0  0  0  0  0  0  0  0  0  0  0  0
  132.4259  127.0038   65.9375 H   0  0  0  0  0  0  0  0  0  0  0  0
  131.1907  125.6995   65.9375 H   0  0  0  0  0  0  0  0  0  0  0  0
  130.0081  120.6521   63.6939 H   0  0  0  0  0  0  0  0  0  0  0  0
  128.7071  119.7083   62.8918 H   0  0  0  0  0  0  0  0  0  0  0  0
  130.3943  119.0919   62.8918 H   0  0  0  0  0  0  0  0  0  0  0  0
  127.9140  120.5785   61.0470 H   0  0  0  0  0  0  0  0  0  0  0  0
  128.8567  121.5532   59.8688 H   0  0  0  0  0  0  0  0  0  0  0  0
  128.9968  119.7623   59.8688 H   0  0  0  0  0  0  0  0  0  0  0  0
  134.3887  120.8570   59.6552 H   0  0  0  0  0  0  0  0  0  0  0  0
  133.0379  119.8525   59.0285 H   0  0  0  0  0  0  0  0  0  0  0  0
  132.9003  121.6435   59.0285 H   0  0  0  0  0  0  0  0  0  0  0  0
  133.2254  120.1266   63.0222 H   0  0  0  0  0  0  0  0  0  0  0  0
  133.2429  118.7875   61.8251 H   0  0  0  0  0  0  0  0  0  0  0  0
  134.5595  120.0095   61.8251 H   0  0  0  0  0  0  0  0  0  0  0  0
  127.6704  134.7870   63.0254 H   0  0  0  0  0  0  0  0  0  0  0  0
  128.0525  134.7615   65.5062 H   0  0  0  0  0  0  0  0  0  0  0  0
  128.5495  132.6509   66.6942 H   0  0  0  0  0  0  0  0  0  0  0  0
  128.6977  130.4796   65.4631 H   0  0  0  0  0  0  0  0  0  0  0  0
  129.6192  131.8546   58.6103 H   0  0  0  0  0  0  0  0  0  0  0  0
  1  2  1  0
  2  3  1  0
  3  4  2  0
  4  5  1  0
  5  6  2  0
  6  7  1  0
  7  8  1  0
  8  9  2  0
  9 10  1  0
 10 11  1  0
 10 12  1  0
  9 13  1  0
 13 14  1  0
 14 15  2  0
 15 16  1  0
 15 17  1  0
 17 18  2  0
 18 19  1  0
 19 20  2  0
 20 21  1  0
 19 22  1  0
 22 23  1  0
 23 24  1  0
 24 25  1  0
 24 26  1  0
 22 27  1  0
 27 28  2  0
 28 29  1  0
 28 30  1  0
 30 31  1  0
 30 32  1  0
 30 33  1  0
 33 34  2  0
 33 35  1  0
 35 36  1  0
 35 37  1  0
 35 38  1  0
 38 39  2  0
 13 40  2  0
 40 41  1  0
 41 42  2  0
 42 43  1  0
 43 44  1  0
 44 45  2  0
 45 46  1  0
 46 47  2  0
 47 48  1  0
 48 49  2  0
  7 50  2  0
 50  3  1  0
 42  8  1  0
 49 44  1  0
 20 14  1  0
 38 27  1  0
 49 41  1  0
 29 18  1  0
  1 51  1  0
  1 52  1  0
  1 53  1  0
  4 54  1  0
  5 55  1  0
  6 56  1  0
 10 57  1  0
 11 58  1  0
 11 59  1  0
 11 60  1  0
 12 61  1  0
 12 62  1  0
 12 63  1  0
 16 64  1  0
 17 65  1  0
 22 66  1  6
 23 67  1  0
 23 68  1  0
 24 69  1  0
 25 70  1  0
 25 71  1  0
 25 72  1  0
 26 73  1  0
 26 74  1  0
 26 75  1  0
 31 76  1  0
 31 77  1  0
 31 78  1  0
 32 79  1  0
 32 80  1  0
 32 81  1  0
 36 82  1  0
 36 83  1  0
 36 84  1  0
 37 85  1  0
 37 86  1  0
 37 87  1  0
 45 88  1  0
 46 89  1  0
 47 90  1  0
 48 91  1  0
 50 92  1  0
M  CHG  1  21  -1
M  END
>  <Binding energies>  (1) 
[25.49]

>  <Ligand effiencies>  (1) 
[0.4998039215686274]

>  <Interactions>  (1) 
["V-A:ILE:369:CG2:3237, V-B:PRO:540:CA:9855, V-A:GLY:454:CA:4049, V-A:ILE:538:CB:4862, V-B:LEU:475:CD1:9229, V-B:ALA:541:CB:9864, V-B:TYR:539:CE2:9848, V-A:LEU:475:CG:4257, V-B:LEU:475:CD2:9230, V-B:TYR:539:C:9839, V-A:TYR:539:CE2:4876, V-A:TYR:539:CD1:4873, V-B:TYR:484:CE2:9317, V-A:ILE:538:CA:4860, H-B:GLU:543:OE1:9881, V-A:TYR:539:CZ:4877, V-A:ALA:541:CB:4892, V-A:LEU:475:CD1:4258, V-A:GLU:543:CD:4908, H-B:ASP:366:OD1:8185, V-A:ARG:545:CG:4922, V-A:SER:385:C:3405, V-A:GLY:453:C:4042, V-B:PRO:540:N:9856, V-B:TYR:484:CZ:9318, V-A:ALA:541:CA:4890, V-B:TYR:484:CD2:9315, V-B:TYR:539:CD2:9846, V-A:GLU:543:CG:4907, V-A:SER:385:CB:3409, H-A:SER:385:OG:3410, V-B:GLU:543:CD:9880, V-B:LEU:475:CG:9228, V-A:ARG:545:CD:4923, V-A:LEU:475:CD2:4259, H-A:ARG:545:NH2:4928, V-A:ARG:545:CZ:4926, H-B:ARG:545:NH2:9900, H-A:HIS:383:HE2:3395, V-A:TYR:539:CG:4872, H-A:TYR:539:N:4870, H-B:GLU:543:OE2:9882, V-A:GLY:453:CA:4044, V-A:TYR:539:CD2:4874, V-A:SER:385:CA:3407, V-B:PRO:540:C:9853, V-B:ALA:541:CA:9862, V-A:TYR:539:CE1:4875"]

$$$$
ZINC587366035-again1
     RDKit          3D

 93 99  0  0  0  0  0  0  0  0999 V2000
  128.4340  133.5760   61.7320 C   0  0  0  0  0  0  0  0  0  0  0  0
  128.4380  133.0960   63.0720 O   0  0  0  0  0  0  0  0  0  0  0  0
  127.6500  132.0110   63.4010 C   0  0  0  0  0  0  0  0  0  0  0  0
  126.2490  132.0440   63.4900 C   0  0  0  0  0  0  0  0  0  0  0  0
  125.5370  130.8970   63.8360 C   0  0  0  0  0  0  0  0  0  0  0  0
  126.2130  129.7060   64.0910 C   0  0  0  0  0  0  0  0  0  0  0  0
  127.6080  129.6450   63.9960 C   0  0  0  0  0  0  0  0  0  0  0  0
  128.3330  128.3770   64.2820 C   0  0  0  0  0  0  0  0  0  0  0  0
  128.8990  127.5250   63.2980 C   0  0  0  0  0  0  0  0  0  0  0  0
  128.8840  127.9510   61.8080 C   0  0  0  0  0  0  0  0  0  0  0  0
  128.1950  126.9460   60.8680 C   0  0  0  0  0  0  0  0  0  0  0  0
  130.2530  128.4140   61.2750 C   0  0  0  0  0  0  0  0  0  0  0  0
  129.5000  126.3110   63.7300 C   0  0  0  0  0  0  0  0  0  0  0  0
  130.0790  125.2770   62.8240 C   0  0  0  0  0  0  0  0  0  0  0  0
  131.3630  125.4430   62.2800 C   0  0  0  0  0  0  0  0  0  0  0  0
  132.1130  126.5590   62.5580 O   0  0  0  0  0  0  0  0  0  0  0  0
  131.9110  124.4660   61.4570 C   0  0  0  0  0  0  0  0  0  0  0  0
  131.1870  123.3140   61.1740 C   0  0  0  0  0  0  0  0  0  0  0  0
  129.8970  123.1060   61.6860 C   0  0  0  0  0  0  0  0  0  0  0  0
  129.3710  124.0900   62.5420 C   0  0  0  0  0  0  0  0  0  0  0  0
  128.1510  123.8810   63.1390 O   0  0  0  0  0  0  0  0  0  0  0  0
  129.1560  121.8060   61.3050 C   0  0  1  0  0  0  0  0  0  0  0  0
  128.1870  122.0080   60.1000 C   0  0  0  0  0  0  0  0  0  0  0  0
  127.9070  123.4620   59.6460 C   0  0  0  0  0  0  0  0  0  0  0  0
  126.4860  123.9360   60.0100 C   0  0  0  0  0  0  0  0  0  0  0  0
  128.1640  123.6280   58.1370 C   0  0  0  0  0  0  0  0  0  0  0  0
  130.1880  120.7170   60.9300 C   0  0  0  0  0  0  0  0  0  0  0  0
  131.4130  121.0680   60.4750 C   0  0  0  0  0  0  0  0  0  0  0  0
  131.8360  122.3620   60.4210 O   0  0  0  0  0  0  0  0  0  0  0  0
  132.5100  120.1190   59.9750 C   0  0  0  0  0  0  0  0  0  0  0  0
  132.8570  120.5250   58.5150 C   0  0  0  0  0  0  0  0  0  0  0  0
  133.7110  120.2280   60.9500 C   0  0  0  0  0  0  0  0  0  0  0  0
  132.1080  118.6180   59.9440 C   0  0  0  0  0  0  0  0  0  0  0  0
  132.8360  117.7860   59.3920 O   0  0  0  0  0  0  0  0  0  0  0  0
  130.7790  118.1810   60.6290 C   0  0  0  0  0  0  0  0  0  0  0  0
  131.1880  117.4740   61.9500 C   0  0  0  0  0  0  0  0  0  0  0  0
  130.0340  117.2360   59.6380 C   0  0  0  0  0  0  0  0  0  0  0  0
  129.7780  119.3060   61.0270 C   0  0  0  0  0  0  0  0  0  0  0  0
  128.6430  119.0220   61.4200 O   0  0  0  0  0  0  0  0  0  0  0  0
  129.6010  125.9290   65.0360 N   0  0  0  0  0  0  0  0  0  0  0  0
  129.1040  126.7480   65.9590 C   0  0  0  0  0  0  0  0  0  0  0  0
  128.4730  127.9570   65.6130 C   0  0  0  0  0  0  0  0  0  0  0  0
  128.0350  128.6040   66.7440 O   0  0  0  0  0  0  0  0  0  0  0  0
  128.3960  127.8140   67.8070 C   0  0  0  0  0  0  0  0  0  0  0  0
  128.1600  128.0770   69.1610 C   0  0  0  0  0  0  0  0  0  0  0  0
  128.6150  127.1260   70.0750 C   0  0  0  0  0  0  0  0  0  0  0  0
  129.2730  125.9680   69.6530 C   0  0  0  0  0  0  0  0  0  0  0  0
  129.5050  125.7110   68.2970 C   0  0  0  0  0  0  0  0  0  0  0  0
  129.0600  126.6510   67.3530 C   0  0  0  0  0  0  0  0  0  0  0  0
  128.3110  130.8080   63.6590 C   0  0  0  0  0  0  0  0  0  0  0  0
  128.4248  134.6760   61.7366 H   0  0  0  0  0  0  0  0  0  0  0  0
  129.3352  133.2190   61.2119 H   0  0  0  0  0  0  0  0  0  0  0  0
  127.5389  133.2040   61.2119 H   0  0  0  0  0  0  0  0  0  0  0  0
  125.7102  132.9809   63.2854 H   0  0  0  0  0  0  0  0  0  0  0  0
  124.4399  130.9322   63.9078 H   0  0  0  0  0  0  0  0  0  0  0  0
  125.6455  128.8057   64.3694 H   0  0  0  0  0  0  0  0  0  0  0  0
  128.2422  128.8443   61.8015 H   0  0  0  0  0  0  0  0  0  0  0  0
  127.6726  126.1841   61.4652 H   0  0  0  0  0  0  0  0  0  0  0  0
  127.4692  127.4756   60.2335 H   0  0  0  0  0  0  0  0  0  0  0  0
  128.9507  126.4599   60.2335 H   0  0  0  0  0  0  0  0  0  0  0  0
  130.9188  128.6392   62.1211 H   0  0  0  0  0  0  0  0  0  0  0  0
  130.6967  127.6159   60.6616 H   0  0  0  0  0  0  0  0  0  0  0  0
  130.1212  129.3175   60.6616 H   0  0  0  0  0  0  0  0  0  0  0  0
  132.9570  126.5650   62.1020 H   0  0  0  0  0  0  0  0  0  0  0  0
  132.9155  124.6044   61.0306 H   0  0  0  0  0  0  0  0  0  0  0  0
  127.8040  124.6690   63.5610 H   0  0  0  0  0  0  0  0  0  0  0  0
  128.5589  121.5025   62.1776 H   0  0  0  0  0  0  0  0  0  0  0  0
  128.6132  121.4703   59.2402 H   0  0  0  0  0  0  0  0  0  0  0  0
  127.2158  121.6322   60.4542 H   0  0  0  0  0  0  0  0  0  0  0  0
  128.6100  124.1031   60.1980 H   0  0  0  0  0  0  0  0  0  0  0  0
  126.3803  123.9713   61.1043 H   0  0  0  0  0  0  0  0  0  0  0  0
  126.3161  124.9395   59.5927 H   0  0  0  0  0  0  0  0  0  0  0  0
  125.7477  123.2355   59.5927 H   0  0  0  0  0  0  0  0  0  0  0  0
  129.0790  124.2190   57.9837 H   0  0  0  0  0  0  0  0  0  0  0  0
  128.2856  122.6373   57.6746 H   0  0  0  0  0  0  0  0  0  0  0  0
  127.3110  124.1462   57.6746 H   0  0  0  0  0  0  0  0  0  0  0  0
  133.5716  121.3611   58.5269 H   0  0  0  0  0  0  0  0  0  0  0  0
  133.3052  119.6670   57.9925 H   0  0  0  0  0  0  0  0  0  0  0  0
  131.9397  120.8341   57.9925 H   0  0  0  0  0  0  0  0  0  0  0  0
  133.3456  120.1948   61.9870 H   0  0  0  0  0  0  0  0  0  0  0  0
  134.4008  119.3888   60.7773 H   0  0  0  0  0  0  0  0  0  0  0  0
  134.2385  121.1777   60.7773 H   0  0  0  0  0  0  0  0  0  0  0  0
  130.8429  118.0706   62.8073 H   0  0  0  0  0  0  0  0  0  0  0  0
  130.7280  116.4756   61.9892 H   0  0  0  0  0  0  0  0  0  0  0  0
  132.2828  117.3751   61.9892 H   0  0  0  0  0  0  0  0  0  0  0  0
  129.4506  116.4960   60.2055 H   0  0  0  0  0  0  0  0  0  0  0  0
  129.3575  117.8286   59.0046 H   0  0  0  0  0  0  0  0  0  0  0  0
  130.7682  116.7166   59.0046 H   0  0  0  0  0  0  0  0  0  0  0  0
  127.6408  128.9896   69.4890 H   0  0  0  0  0  0  0  0  0  0  0  0
  128.4523  127.2914   71.1502 H   0  0  0  0  0  0  0  0  0  0  0  0
  129.6167  125.2414   70.4040 H   0  0  0  0  0  0  0  0  0  0  0  0
  130.0235  124.7947   67.9781 H   0  0  0  0  0  0  0  0  0  0  0  0
  129.4087  130.7735   63.5960 H   0  0  0  0  0  0  0  0  0  0  0  0
  1  2  1  0
  2  3  1  0
  3  4  2  0
  4  5  1  0
  5  6  2  0
  6  7  1  0
  7  8  1  0
  8  9  2  0
  9 10  1  0
 10 11  1  0
 10 12  1  0
  9 13  1  0
 13 14  1  0
 14 15  2  0
 15 16  1  0
 15 17  1  0
 17 18  2  0
 18 19  1  0
 19 20  2  0
 20 21  1  0
 19 22  1  0
 22 23  1  0
 23 24  1  0
 24 25  1  0
 24 26  1  0
 22 27  1  0
 27 28  2  0
 28 29  1  0
 28 30  1  0
 30 31  1  0
 30 32  1  0
 30 33  1  0
 33 34  2  0
 33 35  1  0
 35 36  1  0
 35 37  1  0
 35 38  1  0
 38 39  2  0
 13 40  2  0
 40 41  1  0
 41 42  2  0
 42 43  1  0
 43 44  1  0
 44 45  2  0
 45 46  1  0
 46 47  2  0
 47 48  1  0
 48 49  2  0
  7 50  2  0
 50  3  1  0
 42  8  1  0
 49 44  1  0
 20 14  1  0
 38 27  1  0
 49 41  1  0
 29 18  1  0
  1 51  1  0
  1 52  1  0
  1 53  1  0
  4 54  1  0
  5 55  1  0
  6 56  1  0
 10 57  1  0
 11 58  1  0
 11 59  1  0
 11 60  1  0
 12 61  1  0
 12 62  1  0
 12 63  1  0
 16 64  1  0
 17 65  1  0
 21 66  1  0
 22 67  1  1
 23 68  1  0
 23 69  1  0
 24 70  1  0
 25 71  1  0
 25 72  1  0
 25 73  1  0
 26 74  1  0
 26 75  1  0
 26 76  1  0
 31 77  1  0
 31 78  1  0
 31 79  1  0
 32 80  1  0
 32 81  1  0
 32 82  1  0
 36 83  1  0
 36 84  1  0
 36 85  1  0
 37 86  1  0
 37 87  1  0
 37 88  1  0
 45 89  1  0
 46 90  1  0
 47 91  1  0
 48 92  1  0
 50 93  1  0
M  END
>  <Binding energies>  (1) 
[6.75]

>  <Ligand effiencies>  (1) 
[0.12980769230769232]

>  <Interactions>  (1) 
["V-B:TYR:539:CA:9841, V-A:ILE:369:CG2:3237, V-B:PRO:540:CA:9855, V-B:GLU:543:C:9874, V-B:GLU:543:CB:9878, V-A:PRO:540:C:4881, V-B:ALA:541:CB:9864, V-B:TYR:539:CE2:9848, V-A:LEU:475:CG:4257, V-B:GLU:543:CG:9879, V-B:LEU:475:CD2:9230, V-B:TYR:539:C:9839, V-A:HIS:456:CD2:4068, V-B:TYR:539:CZ:9849, H-B:GLU:543:OE1:9881, V-A:ALA:541:CB:4892, V-B:VAL:344:CG1:7972, H-B:ALA:541:N:9863, V-A:LEU:475:CD1:4258, V-B:TYR:539:CB:9843, V-A:HIS:383:CE1:3393, V-A:GLU:543:CD:4908, V-B:PRO:540:CB:9857, V-B:HIS:456:CE1:9041, V-B:GLU:543:CA:9876, V-A:SER:385:C:3405, V-B:PRO:540:N:9856, V-A:HIS:456:CE1:4070, V-A:PRO:482:CB:4326, V-B:TYR:539:CD2:9846, V-A:GLU:543:CG:4907, V-A:SER:385:CB:3409, H-A:SER:385:OG:3410, V-B:GLU:543:CD:9880, V-A:LEU:475:CD2:4259, H-A:ARG:545:NH2:4928, V-B:TYR:539:CG:9844, H-A:ASP:366:OD1:3214, H-A:HIS:383:HE2:3395, V-A:HIS:383:CD2:3392, H-B:GLU:543:OE2:9882, V-A:PRO:540:CA:4883, V-A:SER:385:CA:3407, V-B:PRO:540:C:9853, H-A:ASP:366:OD2:3215, V-A:HIS:383:NE2:3394"]

$$$$
ZINC587369714
     RDKit          3D

 57 61  0  0  0  0  0  0  0  0999 V2000
  129.9400  130.3480   57.5110 C   0  0  0  0  0  0  0  0  0  0  0  0
  131.1620  130.1430   58.4320 C   0  0  2  0  0  0  0  0  0  0  0  0
  131.7490  128.7280   58.2960 C   0  0  0  0  0  0  0  0  0  0  0  0
  131.1960  128.0060   59.4900 C   0  0  0  0  0  0  0  0  0  0  0  0
  131.2410  126.6540   59.8310 C   0  0  0  0  0  0  0  0  0  0  0  0
  130.7430  126.2200   61.0700 C   0  0  0  0  0  0  0  0  0  0  0  0
  130.7130  124.7200   61.4460 C   0  0  2  0  0  0  0  0  0  0  0  0
  131.3770  124.5300   62.8510 C   0  0  0  0  0  0  0  0  0  0  0  0
  133.1550  124.7070   62.7920 Cl  0  0  0  0  0  0  0  0  0  0  0  0
  131.4790  123.9600   60.4870 O   0  0  0  0  0  0  0  0  0  0  0  0
  131.4250  122.5830   60.5980 C   0  0  0  0  0  0  0  0  0  0  0  0
  132.5420  121.8860   60.1360 C   0  0  0  0  0  0  0  0  0  0  0  0
  132.5660  120.4900   60.1980 C   0  0  0  0  0  0  0  0  0  0  0  0
  133.5830  119.8500   59.7830 O   0  0  0  0  0  0  0  0  0  0  0  0
  131.4660  119.8010   60.7200 C   0  0  0  0  0  0  0  0  0  0  0  0
  130.3480  120.5030   61.1720 C   0  0  0  0  0  0  0  0  0  0  0  0
  130.3080  121.9040   61.1120 C   0  0  0  0  0  0  0  0  0  0  0  0
  129.1200  122.6650   61.5920 C   0  0  0  0  0  0  0  0  0  0  0  0
  128.1330  122.1030   62.0710 O   0  0  0  0  0  0  0  0  0  0  0  0
  129.2270  124.1980   61.4430 C   0  0  2  0  0  0  0  0  0  0  0  0
  128.3860  124.6400   60.2300 C   0  0  0  0  0  0  0  0  0  0  0  0
  127.3240  125.5460   60.3620 C   0  0  0  0  0  0  0  0  0  0  0  0
  126.5560  125.8930   59.2540 C   0  0  0  0  0  0  0  0  0  0  0  0
  126.8430  125.3330   58.0110 C   0  0  0  0  0  0  0  0  0  0  0  0
  126.0950  125.6690   56.9360 F   0  0  0  0  0  0  0  0  0  0  0  0
  127.8910  124.4270   57.8690 C   0  0  0  0  0  0  0  0  0  0  0  0
  128.6580  124.0790   58.9780 C   0  0  0  0  0  0  0  0  0  0  0  0
  130.2410  127.1800   61.9650 C   0  0  0  0  0  0  0  0  0  0  0  0
  130.2350  128.5340   61.6350 C   0  0  0  0  0  0  0  0  0  0  0  0
  130.7060  128.9450   60.3870 C   0  0  0  0  0  0  0  0  0  0  0  0
  130.8120  130.2360   59.8520 N   0  0  0  0  0  0  0  0  0  0  0  0
  130.1150  131.7150   60.5650 S   0  0  0  0  0  0  0  0  0  0  0  0
  128.4710  131.1070   61.2670 C   0  0  0  0  0  0  0  0  0  0  0  0
  130.9770  132.1010   61.6870 O   0  0  0  0  0  0  0  0  0  0  0  0
  129.8530  132.6530   59.4670 O   0  0  0  0  0  0  0  0  0  0  0  0
  129.0396  130.4990   58.1246 H   0  0  0  0  0  0  0  0  0  0  0  0
  130.1034  131.2313   56.8761 H   0  0  0  0  0  0  0  0  0  0  0  0
  129.8063  129.4597   56.8761 H   0  0  0  0  0  0  0  0  0  0  0  0
  131.8667  130.9293   58.1235 H   0  0  0  0  0  0  0  0  0  0  0  0
  131.4183  128.2528   57.3607 H   0  0  0  0  0  0  0  0  0  0  0  0
  132.8484  128.7206   58.2608 H   0  0  0  0  0  0  0  0  0  0  0  0
  131.6683  125.9252   59.1265 H   0  0  0  0  0  0  0  0  0  0  0  0
  130.9692  125.2846   63.5397 H   0  0  0  0  0  0  0  0  0  0  0  0
  131.1521  123.5092   63.1937 H   0  0  0  0  0  0  0  0  0  0  0  0
  133.4020  122.4342   59.7238 H   0  0  0  0  0  0  0  0  0  0  0  0
  131.4825  118.7025   60.7743 H   0  0  0  0  0  0  0  0  0  0  0  0
  129.4881  119.9515   61.5801 H   0  0  0  0  0  0  0  0  0  0  0  0
  128.8021  124.6828   62.3343 H   0  0  0  0  0  0  0  0  0  0  0  0
  127.0968  125.9843   61.3450 H   0  0  0  0  0  0  0  0  0  0  0  0
  125.7256  126.6067   59.3595 H   0  0  0  0  0  0  0  0  0  0  0  0
  128.1120  123.9881   56.8849 H   0  0  0  0  0  0  0  0  0  0  0  0
  129.4823  123.3589   58.8687 H   0  0  0  0  0  0  0  0  0  0  0  0
  129.8470  126.8581   62.9403 H   0  0  0  0  0  0  0  0  0  0  0  0
  129.8604  129.2761   62.3554 H   0  0  0  0  0  0  0  0  0  0  0  0
  128.5134  131.1227   62.3661 H   0  0  0  0  0  0  0  0  0  0  0  0
  127.6594  131.7644   60.9219 H   0  0  0  0  0  0  0  0  0  0  0  0
  128.2825  130.0797   60.9219 H   0  0  0  0  0  0  0  0  0  0  0  0
  1  2  1  0
  2  3  1  0
  3  4  1  0
  4  5  2  0
  5  6  1  0
  6  7  1  0
  7  8  1  1
  8  9  1  0
  7 10  1  0
 10 11  1  0
 11 12  2  0
 12 13  1  0
 13 14  1  0
 13 15  2  0
 15 16  1  0
 16 17  2  0
 17 18  1  0
 18 19  2  0
 18 20  1  0
 20 21  1  0
 21 22  2  0
 22 23  1  0
 23 24  2  0
 24 25  1  0
 24 26  1  0
 26 27  2  0
  6 28  2  0
 28 29  1  0
 29 30  2  0
 30 31  1  0
 31 32  1  0
 32 33  1  0
 32 34  2  0
 32 35  2  0
 31  2  1  0
 30  4  1  0
 20  7  1  0
 27 21  1  0
 17 11  1  0
  1 36  1  0
  1 37  1  0
  1 38  1  0
  2 39  1  6
  3 40  1  0
  3 41  1  0
  5 42  1  0
  8 43  1  0
  8 44  1  0
 12 45  1  0
 15 46  1  0
 16 47  1  0
 20 48  1  1
 22 49  1  0
 23 50  1  0
 26 51  1  0
 27 52  1  0
 28 53  1  0
 29 54  1  0
 33 55  1  0
 33 56  1  0
 33 57  1  0
M  CHG  1  14  -1
M  END
>  <Binding energies>  (1) 
[-7.28]

>  <Ligand effiencies>  (1) 
[-0.20800000000000002]

>  <Interactions>  (1) 
["V-A:ILE:369:CG2:3237, V-A:PRO:540:CA:4883, H-A:ALA:541:N:4891, V-B:TYR:531:CZ:9766, V-B:TYR:539:CD2:9846, V-A:TYR:531:CZ:4794, H-B:ALA:541:N:9863, H-A:SER:385:OG:3410, V-A:MET:535:CE:4835, V-B:TYR:531:CE2:9765, V-B:TYR:539:CE2:9848, V-A:GLU:543:CD:4908, V-A:ASP:366:CB:3212, V-A:LEU:475:CD2:4259, V-A:ARG:545:CZ:4926, V-A:ASP:366:CG:3213"]

$$$$
ZINC587371911
     RDKit          3D

 41 45  0  0  0  0  0  0  0  0999 V2000
  130.7040  127.5230   61.9960 O   0  0  0  0  0  0  0  0  0  0  0  0
  131.0260  127.7950   60.8370 C   0  0  0  0  0  0  0  0  0  0  0  0
  131.7140  126.7970   59.9680 C   0  0  0  0  0  0  0  0  0  0  0  0
  132.0400  125.5230   60.4600 C   0  0  0  0  0  0  0  0  0  0  0  0
  132.6720  124.5820   59.6470 C   0  0  0  0  0  0  0  0  0  0  0  0
  132.9850  124.8970   58.3260 C   0  0  0  0  0  0  0  0  0  0  0  0
  133.6070  123.9730   57.5290 O   0  0  0  0  0  0  0  0  0  0  0  0
  132.6620  126.1530   57.8160 C   0  0  0  0  0  0  0  0  0  0  0  0
  132.0240  127.0920   58.6270 C   0  0  0  0  0  0  0  0  0  0  0  0
  131.7460  128.3050   58.0220 O   0  0  0  0  0  0  0  0  0  0  0  0
  130.7100  129.1160   58.6050 C   0  0  2  0  0  0  0  0  0  0  0  0
  129.3790  128.5400   58.0690 C   0  0  0  0  0  0  0  0  0  0  0  0
  128.9240  127.4180   58.2880 O   0  0  0  0  0  0  0  0  0  0  0  0
  128.4920  129.7960   57.0930 S   0  0  0  0  0  0  0  0  0  0  0  0
  129.8180  130.9470   57.2020 C   0  0  0  0  0  0  0  0  0  0  0  0
  129.8680  132.2010   56.5920 C   0  0  0  0  0  0  0  0  0  0  0  0
  130.9920  133.0100   56.7520 C   0  0  0  0  0  0  0  0  0  0  0  0
  132.0670  132.5650   57.5190 C   0  0  0  0  0  0  0  0  0  0  0  0
  132.0170  131.3110   58.1290 C   0  0  0  0  0  0  0  0  0  0  0  0
  130.8900  130.4920   57.9790 C   0  0  0  0  0  0  0  0  0  0  0  0
  130.7970  129.1770   60.1730 C   0  0  1  0  0  0  0  0  0  0  0  0
  129.6730  129.9890   60.8540 C   0  0  0  0  0  0  0  0  0  0  0  0
  128.4260  129.4230   61.1600 C   0  0  0  0  0  0  0  0  0  0  0  0
  127.4270  130.1980   61.7440 C   0  0  0  0  0  0  0  0  0  0  0  0
  127.6650  131.5430   62.0140 C   0  0  0  0  0  0  0  0  0  0  0  0
  126.6950  132.2960   62.5790 F   0  0  0  0  0  0  0  0  0  0  0  0
  128.8940  132.1190   61.7040 C   0  0  0  0  0  0  0  0  0  0  0  0
  129.8940  131.3440   61.1220 C   0  0  0  0  0  0  0  0  0  0  0  0
  131.7938  125.2635   61.5002 H   0  0  0  0  0  0  0  0  0  0  0  0
  132.9238  123.5896   60.0493 H   0  0  0  0  0  0  0  0  0  0  0  0
  134.3790  124.3270   57.0820 H   0  0  0  0  0  0  0  0  0  0  0  0
  132.9100  126.4041   56.7741 H   0  0  0  0  0  0  0  0  0  0  0  0
  129.0203  132.5513   55.9847 H   0  0  0  0  0  0  0  0  0  0  0  0
  131.0303  133.9994   56.2729 H   0  0  0  0  0  0  0  0  0  0  0  0
  132.9549  133.2022   57.6436 H   0  0  0  0  0  0  0  0  0  0  0  0
  132.8686  130.9629   58.7320 H   0  0  0  0  0  0  0  0  0  0  0  0
  131.7115  129.7596   60.3581 H   0  0  0  0  0  0  0  0  0  0  0  0
  128.2366  128.3625   60.9376 H   0  0  0  0  0  0  0  0  0  0  0  0
  126.4536  129.7492   61.9910 H   0  0  0  0  0  0  0  0  0  0  0  0
  129.0745  133.1828   61.9181 H   0  0  0  0  0  0  0  0  0  0  0  0
  130.8632  131.8000   60.8716 H   0  0  0  0  0  0  0  0  0  0  0  0
  1  2  2  0
  2  3  1  0
  3  4  2  0
  4  5  1  0
  5  6  2  0
  6  7  1  0
  6  8  1  0
  8  9  2  0
  9 10  1  0
 11 10  1  6
 11 12  1  0
 12 13  2  0
 12 14  1  0
 14 15  1  0
 15 16  2  0
 16 17  1  0
 17 18  2  0
 18 19  1  0
 19 20  2  0
 11 21  1  0
 21 22  1  0
 22 23  2  0
 23 24  1  0
 24 25  2  0
 25 26  1  0
 25 27  1  0
 27 28  2  0
 21  2  1  0
 28 22  1  0
  9  3  1  0
 20 11  1  0
 20 15  1  0
  4 29  1  0
  5 30  1  0
  7 31  1  0
  8 32  1  0
 16 33  1  0
 17 34  1  0
 18 35  1  0
 19 36  1  0
 21 37  1  6
 23 38  1  0
 24 39  1  0
 27 40  1  0
 28 41  1  0
M  END
>  <Binding energies>  (1) 
[-6.49]

>  <Ligand effiencies>  (1) 
[-0.22379310344827588]

>  <Interactions>  (1) 
["V-A:ASP:366:CA:3210, V-A:PRO:540:CG:4886, V-A:ILE:538:CB:4862, H-A:TYR:531:OH:4795, V-B:TYR:539:CE2:9848, V-A:ASP:366:CG:3213, V-A:ILE:538:CG2:4863, V-A:LEU:363:CD1:3189, V-B:TYR:539:CZ:9849, V-A:ILE:538:CA:4860, H-A:ASN:370:N:3244, H-B:TYR:539:OH:9850, V-A:ASP:366:C:3208, V-A:TYR:531:CZ:4794, V-A:MET:535:CE:4835, V-A:ASP:366:CB:3212, H-A:ARG:545:NH2:4928, H-A:ASP:366:O:3209, V-A:PRO:540:N:4884, V-A:PRO:540:CB:4885, V-A:PRO:540:CA:4883, V-A:PRO:540:CD:4887"]

$$$$
ZINC587377739
     RDKit          3D

 51 55  0  0  0  0  0  0  0  0999 V2000
  134.5860  122.6670   62.3270 C   0  0  0  0  0  0  0  0  0  0  0  0
  133.2930  122.9120   61.5710 C   0  0  0  0  0  0  0  0  0  0  0  0
  133.2930  123.7400   60.4470 C   0  0  0  0  0  0  0  0  0  0  0  0
  132.1110  123.9800   59.7460 C   0  0  0  0  0  0  0  0  0  0  0  0
  132.1380  124.8330   58.6390 N   0  0  0  0  0  0  0  0  0  0  0  0
  130.9180  123.3770   60.1690 C   0  0  0  0  0  0  0  0  0  0  0  0
  130.9110  122.5060   61.2770 C   0  0  0  0  0  0  0  0  0  0  0  0
  132.1050  122.3090   61.9870 C   0  0  0  0  0  0  0  0  0  0  0  0
  129.6280  121.9210   61.7530 C   0  0  0  0  0  0  0  0  0  0  0  0
  129.5040  121.3740   62.8480 O   0  0  0  0  0  0  0  0  0  0  0  0
  128.4920  122.0720   60.7380 C   0  0  0  0  0  0  0  0  0  0  0  0
  128.4960  123.4940   60.0930 C   0  0  2  0  0  0  0  0  0  0  0  0
  128.2940  124.6200   61.1550 C   0  0  0  0  0  0  0  0  0  0  0  0
  128.1880  126.0040   60.5210 C   0  0  0  0  0  0  0  0  0  0  0  0
  126.9370  126.0990   59.6350 C   0  0  1  0  0  0  0  0  0  0  0  0
  126.8930  127.4530   58.9140 C   0  0  0  0  0  0  0  0  0  0  0  0
  125.7270  128.2240   58.9280 C   0  0  0  0  0  0  0  0  0  0  0  0
  125.6890  129.4570   58.2780 C   0  0  0  0  0  0  0  0  0  0  0  0
  126.8170  129.9370   57.6120 C   0  0  0  0  0  0  0  0  0  0  0  0
  126.7280  131.4720   56.8160 Cl  0  0  0  0  0  0  0  0  0  0  0  0
  127.9920  129.1750   57.5970 C   0  0  0  0  0  0  0  0  0  0  0  0
  129.4150  129.7300   56.7860 Cl  0  0  0  0  0  0  0  0  0  0  0  0
  128.0260  127.9420   58.2480 C   0  0  0  0  0  0  0  0  0  0  0  0
  126.7770  124.8790   58.7040 C   0  0  0  0  0  0  0  0  0  0  0  0
  125.8660  124.9420   57.6370 C   0  0  0  0  0  0  0  0  0  0  0  0
  125.6730  123.8740   56.7700 C   0  0  0  0  0  0  0  0  0  0  0  0
  126.3900  122.7040   56.9590 C   0  0  0  0  0  0  0  0  0  0  0  0
  127.2800  122.6070   58.0240 C   0  0  0  0  0  0  0  0  0  0  0  0
  127.4820  123.6630   58.9310 C   0  0  0  0  0  0  0  0  0  0  0  0
  129.7710  123.6740   59.4420 O   0  0  0  0  0  0  0  0  0  0  0  0
  134.3908  122.7040   63.4089 H   0  0  0  0  0  0  0  0  0  0  0  0
  134.9850  121.6773   62.0600 H   0  0  0  0  0  0  0  0  0  0  0  0
  135.3194  123.4422   62.0600 H   0  0  0  0  0  0  0  0  0  0  0  0
  134.2312  124.2063   60.1119 H   0  0  0  0  0  0  0  0  0  0  0  0
  131.2890  124.9850   58.1140 H   0  0  0  0  0  0  0  0  0  0  0  0
  133.0050  125.2780   58.3710 H   0  0  0  0  0  0  0  0  0  0  0  0
  132.1048  121.6710   62.8831 H   0  0  0  0  0  0  0  0  0  0  0  0
  128.6159  121.3186   59.9462 H   0  0  0  0  0  0  0  0  0  0  0  0
  127.5355  121.9302   61.2623 H   0  0  0  0  0  0  0  0  0  0  0  0
  127.3694  124.4160   61.7149 H   0  0  0  0  0  0  0  0  0  0  0  0
  129.1733  124.6199   61.8160 H   0  0  0  0  0  0  0  0  0  0  0  0
  128.1263  126.7619   61.3159 H   0  0  0  0  0  0  0  0  0  0  0  0
  129.0777  126.1774   59.8978 H   0  0  0  0  0  0  0  0  0  0  0  0
  126.0481  126.0602   60.2818 H   0  0  0  0  0  0  0  0  0  0  0  0
  124.8343  127.8558   59.4548 H   0  0  0  0  0  0  0  0  0  0  0  0
  124.7652  130.0541   58.2904 H   0  0  0  0  0  0  0  0  0  0  0  0
  128.9511  127.3470   58.2389 H   0  0  0  0  0  0  0  0  0  0  0  0
  125.2878  125.8650   57.4832 H   0  0  0  0  0  0  0  0  0  0  0  0
  124.9563  123.9568   55.9397 H   0  0  0  0  0  0  0  0  0  0  0  0
  126.2565  121.8563   56.2709 H   0  0  0  0  0  0  0  0  0  0  0  0
  127.8447  121.6731   58.1614 H   0  0  0  0  0  0  0  0  0  0  0  0
  1  2  1  0
  2  3  2  0
  3  4  1  0
  4  5  1  0
  4  6  2  0
  6  7  1  0
  7  8  2  0
  7  9  1  0
  9 10  2  0
  9 11  1  0
 11 12  1  0
 12 13  1  0
 13 14  1  0
 14 15  1  0
 15 16  1  0
 16 17  2  0
 17 18  1  0
 18 19  2  0
 19 20  1  0
 19 21  1  0
 21 22  1  0
 21 23  2  0
 15 24  1  0
 24 25  2  0
 25 26  1  0
 26 27  2  0
 27 28  1  0
 28 29  2  0
 12 30  1  6
  8  2  1  0
 29 12  1  0
 30  6  1  0
 23 16  1  0
 29 24  1  0
  1 31  1  0
  1 32  1  0
  1 33  1  0
  3 34  1  0
  5 35  1  0
  5 36  1  0
  8 37  1  0
 11 38  1  0
 11 39  1  0
 13 40  1  0
 13 41  1  0
 14 42  1  0
 14 43  1  0
 15 44  1  1
 17 45  1  0
 18 46  1  0
 23 47  1  0
 25 48  1  0
 26 49  1  0
 27 50  1  0
 28 51  1  0
M  END
>  <Binding energies>  (1) 
[-7.28]

>  <Ligand effiencies>  (1) 
[-0.2275]

>  <Interactions>  (1) 
["V-A:ILE:369:CG2:3237, V-B:PRO:540:CA:9855, V-A:GLY:454:CA:4049, V-B:ALA:541:CB:9864, V-B:ASP:366:CG:8184, V-B:TYR:539:CE2:9848, V-B:TYR:539:C:9839, V-B:TYR:539:CZ:9849, V-A:TYR:539:CZ:4877, H-B:TYR:539:OH:9850, V-B:ASP:366:CB:8183, V-B:PRO:540:CB:9857, V-A:GLY:453:C:4042, V-B:PRO:540:N:9856, V-A:ILE:369:CD1:3239, V-B:TYR:539:CD2:9846, V-B:PRO:540:CD:9859, V-A:MET:535:CE:4835, V-A:LEU:475:CD2:4259, H-A:ASP:366:O:3209, V-B:LEU:363:CD1:8160, V-B:PRO:540:C:9853, V-B:MET:535:CE:9807, V-A:TYR:539:CE1:4875"]

$$$$
ZINC587408528
     RDKit          3D

 51 53  0  0  0  0  0  0  0  0999 V2000
  126.4740  126.6850   69.8060 C   0  0  0  0  0  0  0  0  0  0  0  0
  127.2650  127.3310   68.6550 C   0  0  0  0  0  0  0  0  0  0  0  0
  128.7040  127.0460   68.6830 N   0  0  0  0  0  0  0  0  0  0  0  0
  129.2590  126.4230   67.5460 C   0  0  0  0  0  0  0  0  0  0  0  0
  130.0670  125.2840   67.6380 C   0  0  0  0  0  0  0  0  0  0  0  0
  130.5880  124.7010   66.4870 C   0  0  0  0  0  0  0  0  0  0  0  0
  130.3100  125.2410   65.2240 C   0  0  0  0  0  0  0  0  0  0  0  0
  130.8980  124.5800   63.9590 C   0  0  2  0  0  0  0  0  0  0  0  0
  129.9410  123.4480   63.4620 C   0  0  0  0  0  0  0  0  0  0  0  0
  129.8230  122.1040   64.6330 Cl  0  0  0  0  0  0  0  0  0  0  0  0
  132.3350  124.0770   64.2920 C   0  0  0  0  0  0  0  0  0  0  0  0
  133.0150  123.4740   63.0620 C   0  0  0  0  0  0  0  0  0  0  0  0
  133.6820  122.4380   63.0850 O   0  0  0  0  0  0  0  0  0  0  0  0
  132.7900  124.2630   61.8220 C   0  0  0  0  0  0  0  0  0  0  0  0
  133.4740  123.9630   60.6360 C   0  0  0  0  0  0  0  0  0  0  0  0
  133.2100  124.6700   59.4600 C   0  0  0  0  0  0  0  0  0  0  0  0
  133.9840  124.3610   58.1900 C   0  0  0  0  0  0  0  0  0  0  0  0
  132.2400  125.6730   59.4580 C   0  0  0  0  0  0  0  0  0  0  0  0
  131.5200  125.9630   60.6180 C   0  0  0  0  0  0  0  0  0  0  0  0
  130.5390  126.9560   60.5780 N   0  0  0  0  0  0  0  0  0  0  0  0
  131.7840  125.2470   61.7940 C   0  0  0  0  0  0  0  0  0  0  0  0
  131.0240  125.5700   62.9120 O   0  0  0  0  0  0  0  0  0  0  0  0
  129.4970  126.3790   65.1400 C   0  0  0  0  0  0  0  0  0  0  0  0
  128.9760  126.9610   66.2900 C   0  0  0  0  0  0  0  0  0  0  0  0
  129.6960  128.2880   69.5030 S   0  0  0  0  0  0  0  0  0  0  0  0
  129.4060  127.9090   71.3290 C   0  0  0  0  0  0  0  0  0  0  0  0
  131.1020  128.0180   69.1820 O   0  0  0  0  0  0  0  0  0  0  0  0
  129.1030  129.5950   69.2010 O   0  0  0  0  0  0  0  0  0  0  0  0
  126.8864  127.0218   70.7686 H   0  0  0  0  0  0  0  0  0  0  0  0
  125.4170  126.9814   69.7361 H   0  0  0  0  0  0  0  0  0  0  0  0
  126.5532  125.5901   69.7361 H   0  0  0  0  0  0  0  0  0  0  0  0
  126.8574  126.9580   67.7038 H   0  0  0  0  0  0  0  0  0  0  0  0
  127.1551  128.4198   68.7665 H   0  0  0  0  0  0  0  0  0  0  0  0
  130.2908  124.8484   68.6230 H   0  0  0  0  0  0  0  0  0  0  0  0
  131.2243  123.8075   66.5692 H   0  0  0  0  0  0  0  0  0  0  0  0
  128.9383  123.8735   63.3084 H   0  0  0  0  0  0  0  0  0  0  0  0
  130.3519  123.0449   62.5246 H   0  0  0  0  0  0  0  0  0  0  0  0
  132.9359  124.9245   64.6535 H   0  0  0  0  0  0  0  0  0  0  0  0
  132.2581  123.2957   65.0625 H   0  0  0  0  0  0  0  0  0  0  0  0
  134.2275  123.1616   60.6309 H   0  0  0  0  0  0  0  0  0  0  0  0
  134.9761  123.9649   58.4524 H   0  0  0  0  0  0  0  0  0  0  0  0
  133.4352  123.6130   57.5989 H   0  0  0  0  0  0  0  0  0  0  0  0
  134.1012  125.2813   57.5989 H   0  0  0  0  0  0  0  0  0  0  0  0
  132.0414  126.2390   58.5359 H   0  0  0  0  0  0  0  0  0  0  0  0
  130.0250  127.1740   61.4210 H   0  0  0  0  0  0  0  0  0  0  0  0
  130.3190  127.4080   59.7030 H   0  0  0  0  0  0  0  0  0  0  0  0
  129.2691  126.8154   64.1563 H   0  0  0  0  0  0  0  0  0  0  0  0
  128.3361  127.8520   66.2092 H   0  0  0  0  0  0  0  0  0  0  0  0
  129.9594  128.6322   71.9460 H   0  0  0  0  0  0  0  0  0  0  0  0
  128.3315  127.9827   71.5526 H   0  0  0  0  0  0  0  0  0  0  0  0
  129.7581  126.8911   71.5526 H   0  0  0  0  0  0  0  0  0  0  0  0
  1  2  1  0
  2  3  1  0
  3  4  1  0
  4  5  2  0
  5  6  1  0
  6  7  2  0
  7  8  1  0
  8  9  1  6
  9 10  1  0
  8 11  1  0
 11 12  1  0
 12 13  2  0
 12 14  1  0
 14 15  2  0
 15 16  1  0
 16 17  1  0
 16 18  2  0
 18 19  1  0
 19 20  1  0
 19 21  2  0
 21 22  1  0
  7 23  1  0
 23 24  2  0
  3 25  1  0
 25 26  1  0
 25 27  2  0
 25 28  2  0
 24  4  1  0
 22  8  1  0
 21 14  1  0
  1 29  1  0
  1 30  1  0
  1 31  1  0
  2 32  1  0
  2 33  1  0
  5 34  1  0
  6 35  1  0
  9 36  1  0
  9 37  1  0
 11 38  1  0
 11 39  1  0
 15 40  1  0
 17 41  1  0
 17 42  1  0
 17 43  1  0
 18 44  1  0
 20 45  1  0
 20 46  1  0
 23 47  1  0
 24 48  1  0
 26 49  1  0
 26 50  1  0
 26 51  1  0
M  END
>  <Binding energies>  (1) 
[-6.38]

>  <Ligand effiencies>  (1) 
[-0.21266666666666667]

>  <Interactions>  (1) 
["V-A:ILE:369:CG2:3237, V-A:ASP:366:CA:3210, V-A:GLY:454:CA:4049, V-B:GLU:543:C:9874, V-A:ILE:369:CB:3236, V-A:GLU:543:C:4902, V-B:GLU:543:CB:9878, V-B:ALA:541:CB:9864, V-B:TYR:539:CE2:9848, V-A:TYR:484:CE2:4346, V-B:GLU:543:CG:9879, V-A:ASP:366:CG:3213, V-B:ARG:545:CG:9894, V-A:TYR:484:CZ:4347, V-A:GLU:543:CD:4908, V-B:HIS:456:CE1:9041, V-B:GLU:543:CA:9876, H-A:GLY:454:N:4050, V-A:HIS:456:CE1:4070, V-A:ILE:369:CD1:3239, V-B:GLY:544:C:9884, V-A:ASP:366:C:3208, V-B:GLY:544:CA:9886, V-B:GLU:543:CD:9880, V-A:ASP:366:CB:3212, V-A:LEU:475:CD2:4259, H-A:GLU:543:OE1:4909, V-A:GLU:543:CB:4906, V-B:ARG:545:CA:9891"]

$$$$
ZINC587410355
     RDKit          3D

 48 50  0  0  0  0  0  0  0  0999 V2000
  130.2840  125.5220   67.2150 C   0  0  0  0  0  0  0  0  0  0  0  0
  130.4550  125.5330   65.7070 C   0  0  0  0  0  0  0  0  0  0  0  0
  129.4500  126.0560   64.8890 C   0  0  0  0  0  0  0  0  0  0  0  0
  129.5980  126.0590   63.5020 C   0  0  0  0  0  0  0  0  0  0  0  0
  128.5650  126.5670   62.7090 N   0  0  0  0  0  0  0  0  0  0  0  0
  130.7700  125.5450   62.9280 C   0  0  0  0  0  0  0  0  0  0  0  0
  131.8130  125.0640   63.7440 C   0  0  0  0  0  0  0  0  0  0  0  0
  131.6260  125.0350   65.1320 C   0  0  0  0  0  0  0  0  0  0  0  0
  133.0280  124.4780   63.1170 C   0  0  0  0  0  0  0  0  0  0  0  0
  133.8500  123.8060   63.7400 O   0  0  0  0  0  0  0  0  0  0  0  0
  133.1340  124.7910   61.6220 C   0  0  0  0  0  0  0  0  0  0  0  0
  131.7500  124.5950   60.9190 C   0  0  2  0  0  0  0  0  0  0  0  0
  131.2320  123.1350   61.0150 C   0  0  0  0  0  0  0  0  0  0  0  0
  129.8570  122.8700   60.9450 C   0  0  0  0  0  0  0  0  0  0  0  0
  129.3820  121.5660   61.0390 C   0  0  0  0  0  0  0  0  0  0  0  0
  130.2760  120.5090   61.2070 C   0  0  0  0  0  0  0  0  0  0  0  0
  129.7770  119.2080   61.3120 N   0  0  0  0  0  0  0  0  0  0  0  0
  130.6230  117.8900   60.4800 S   0  0  0  0  0  0  0  0  0  0  0  0
  131.2560  116.8600   61.9250 C   0  0  0  0  0  0  0  0  0  0  0  0
  129.6010  117.1250   59.7590 O   0  0  0  0  0  0  0  0  0  0  0  0
  131.7700  118.4680   59.7700 O   0  0  0  0  0  0  0  0  0  0  0  0
  131.6460  120.7630   61.3050 C   0  0  0  0  0  0  0  0  0  0  0  0
  132.1190  122.0670   61.2090 C   0  0  0  0  0  0  0  0  0  0  0  0
  131.8470  125.0050   59.4130 C   0  0  1  0  0  0  0  0  0  0  0  0
  131.8550  126.5250   59.1540 C   0  0  0  0  0  0  0  0  0  0  0  0
  133.3100  124.3220   58.6380 Cl  0  0  0  0  0  0  0  0  0  0  0  0
  130.8430  125.5380   61.5390 O   0  0  0  0  0  0  0  0  0  0  0  0
  131.2710  125.5855   67.6964 H   0  0  0  0  0  0  0  0  0  0  0  0
  129.6709  126.3826   67.5208 H   0  0  0  0  0  0  0  0  0  0  0  0
  129.7862  124.5900   67.5208 H   0  0  0  0  0  0  0  0  0  0  0  0
  128.5361  126.4680   65.3419 H   0  0  0  0  0  0  0  0  0  0  0  0
  128.7450  126.7680   61.7360 H   0  0  0  0  0  0  0  0  0  0  0  0
  127.6720  126.7800   63.1300 H   0  0  0  0  0  0  0  0  0  0  0  0
  132.4116  124.6146   65.7771 H   0  0  0  0  0  0  0  0  0  0  0  0
  133.4605  125.8335   61.4931 H   0  0  0  0  0  0  0  0  0  0  0  0
  133.8634  124.1048   61.1668 H   0  0  0  0  0  0  0  0  0  0  0  0
  129.1477  123.7006   60.8146 H   0  0  0  0  0  0  0  0  0  0  0  0
  128.3014  121.3686   60.9808 H   0  0  0  0  0  0  0  0  0  0  0  0
  128.7990  119.1900   61.0620 H   0  0  0  0  0  0  0  0  0  0  0  0
  130.9627  117.3372   62.8717 H   0  0  0  0  0  0  0  0  0  0  0  0
  130.8222  115.8504   61.8735 H   0  0  0  0  0  0  0  0  0  0  0  0
  132.3526  116.7910   61.8735 H   0  0  0  0  0  0  0  0  0  0  0  0
  132.3502  119.9320   61.4580 H   0  0  0  0  0  0  0  0  0  0  0  0
  133.1988  122.2623   61.2860 H   0  0  0  0  0  0  0  0  0  0  0  0
  130.9271  124.5908   58.9745 H   0  0  0  0  0  0  0  0  0  0  0  0
  131.8578  127.0606   60.1148 H   0  0  0  0  0  0  0  0  0  0  0  0
  132.7546  126.7946   58.5812 H   0  0  0  0  0  0  0  0  0  0  0  0
  130.9583  126.8041   58.5812 H   0  0  0  0  0  0  0  0  0  0  0  0
  1  2  1  0
  2  3  2  0
  3  4  1  0
  4  5  1  0
  4  6  2  0
  6  7  1  0
  7  8  2  0
  7  9  1  0
  9 10  2  0
  9 11  1  0
 11 12  1  0
 12 13  1  6
 13 14  2  0
 14 15  1  0
 15 16  2  0
 16 17  1  0
 17 18  1  0
 18 19  1  0
 18 20  2  0
 18 21  2  0
 16 22  1  0
 22 23  2  0
 12 24  1  0
 24 25  1  0
 24 26  1  0
 12 27  1  0
  8  2  1  0
 23 13  1  0
 27  6  1  0
  1 28  1  0
  1 29  1  0
  1 30  1  0
  3 31  1  0
  5 32  1  0
  5 33  1  0
  8 34  1  0
 11 35  1  0
 11 36  1  0
 14 37  1  0
 15 38  1  0
 17 39  1  0
 19 40  1  0
 19 41  1  0
 19 42  1  0
 22 43  1  0
 23 44  1  0
 24 45  1  6
 25 46  1  0
 25 47  1  0
 25 48  1  0
M  END
>  <Binding energies>  (1) 
[-7.67]

>  <Ligand effiencies>  (1) 
[-0.25566666666666665]

>  <Interactions>  (1) 
["V-A:ILE:369:CG2:3237, V-A:ASP:366:CA:3210, V-B:PRO:540:CA:9855, V-B:GLU:543:CB:9878, V-B:ALA:541:CB:9864, V-B:TYR:539:CE2:9848, V-A:LEU:475:CG:4257, V-B:GLU:543:CG:9879, V-B:TYR:539:C:9839, V-A:ASP:366:CG:3213, V-B:TYR:539:CZ:9849, H-B:GLU:543:OE1:9881, V-A:LEU:475:CD1:4258, V-B:TYR:539:CB:9843, V-A:HIS:383:CE1:3393, V-A:GLU:543:CD:4908, H-A:GLY:454:N:4050, V-A:HIS:456:CE1:4070, V-A:PRO:482:CB:4326, V-B:TYR:539:CD2:9846, V-A:SER:385:CB:3409, H-A:SER:385:OG:3410, V-B:GLU:543:CD:9880, V-A:ASP:366:CB:3212, V-A:LEU:475:CD2:4259, H-A:HIS:383:HE2:3395, H-B:GLU:543:OE2:9882, H-B:TYR:539:O:9840, V-B:PRO:540:C:9853, V-A:HIS:383:NE2:3394, H-A:TYR:484:OH:4348, H-B:PRO:540:O:9854"]

$$$$
ZINC587437421
     RDKit          3D

146152  0  0  0  0  0  0  0  0999 V2000
  126.1220  127.0300   61.5370 C   0  0  0  0  0  0  0  0  0  0  0  0
  126.6360  127.9550   62.3620 C   0  0  0  0  0  0  0  0  0  0  0  0
  127.8740  127.7600   63.2230 C   0  0  0  0  0  0  0  0  0  0  0  0
  127.9300  128.6930   64.4540 C   0  0  2  0  0  0  0  0  0  0  0  0
  128.0420  127.9340   65.7750 C   0  0  0  0  0  0  0  0  0  0  0  0
  128.2550  128.4230   67.0150 C   0  0  0  0  0  0  0  0  0  0  0  0
  128.3230  129.9070   67.3550 C   0  0  0  0  0  0  0  0  0  0  0  0
  128.3670  127.4770   68.2110 C   0  0  0  0  0  0  0  0  0  0  0  0
  129.8010  127.2200   68.7470 C   0  0  2  0  0  0  0  0  0  0  0  0
  130.4010  128.4740   69.4160 C   0  0  0  0  0  0  0  0  0  0  0  0
  130.7130  126.5850   67.6630 C   0  0  0  0  0  0  0  0  0  0  0  0
  129.9980  125.9120   66.4640 C   0  0  2  0  0  0  0  0  0  0  0  0
  129.0880  124.9470   66.9940 O   0  0  0  0  0  0  0  0  0  0  0  0
  129.5340  124.2200   68.1320 C   0  0  0  0  0  0  0  0  0  0  0  0
  130.9800  125.2770   65.4360 C   0  0  1  0  0  0  0  0  0  0  0  0
  130.4390  125.4640   64.1190 O   0  0  0  0  0  0  0  0  0  0  0  0
  131.1000  124.8130   63.0470 C   0  0  2  0  0  0  0  0  0  0  0  0
  131.1070  123.4450   63.2350 O   0  0  0  0  0  0  0  0  0  0  0  0
  132.6070  125.2750   63.0100 C   0  0  2  0  0  0  0  0  0  0  0  0
  133.4960  124.5970   61.9400 C   0  0  0  0  0  0  0  0  0  0  0  0
  133.2600  125.1220   64.4040 C   0  0  0  0  0  0  0  0  0  0  0  0
  132.4260  125.8250   65.4850 C   0  0  2  0  0  0  0  0  0  0  0  0
  132.9730  125.6470   66.7920 O   0  0  0  0  0  0  0  0  0  0  0  0
  134.2790  125.0870   66.8420 C   0  0  0  0  0  0  0  0  0  0  0  0
  130.2130  125.0980   61.7640 C   0  0  1  0  0  0  0  0  0  0  0  0
  130.8010  124.3550   60.6260 O   0  0  0  0  0  0  0  0  0  0  0  0
  130.1080  123.2270   60.2120 C   0  0  0  0  0  0  0  0  0  0  0  0
  130.7770  121.9940   60.2530 C   0  0  0  0  0  0  0  0  0  0  0  0
  130.1400  120.9190   60.9020 C   0  0  0  0  0  0  0  0  0  0  0  0
  130.8210  119.7190   60.9540 O   0  0  0  0  0  0  0  0  0  0  0  0
  130.1100  118.5420   61.3230 C   0  0  0  0  0  0  0  0  0  0  0  0
  128.9550  121.2000   61.6260 C   0  0  0  0  0  0  0  0  0  0  0  0
  128.4540  122.5020   61.5150 C   0  0  0  0  0  0  0  0  0  0  0  0
  128.7260  123.2470   60.3770 C   0  0  0  0  0  0  0  0  0  0  0  0
  128.0770  124.5460   60.5720 C   0  0  0  0  0  0  0  0  0  0  0  0
  127.3900  125.2380   59.8230 O   0  0  0  0  0  0  0  0  0  0  0  0
  128.6050  124.8310   61.9550 C   0  0  1  0  0  0  0  0  0  0  0  0
  128.0960  123.4950   62.6010 C   0  0  0  0  0  0  0  0  0  0  0  0
  130.3300  126.6540   61.4400 C   0  0  0  0  0  0  0  0  0  0  0  0
  130.1950  127.3990   62.4160 O   0  0  0  0  0  0  0  0  0  0  0  0
  130.7090  127.1920   60.2210 N   0  0  0  0  0  0  0  0  0  0  0  0
  132.0390  126.9640   59.6090 C   0  0  0  0  0  0  0  0  0  0  0  0
  132.0070  125.5720   58.9440 C   0  0  0  0  0  0  0  0  0  0  0  0
  130.9200  125.5160   57.8530 C   0  0  0  0  0  0  0  0  0  0  0  0
  129.5720  126.1300   58.3010 C   0  0  0  0  0  0  0  0  0  0  0  0
  129.7370  127.4650   59.1020 C   0  0  1  0  0  0  0  0  0  0  0  0
  128.3960  128.1600   59.4800 C   0  0  0  0  0  0  0  0  0  0  0  0
  127.3080  127.6210   59.2580 O   0  0  0  0  0  0  0  0  0  0  0  0
  128.5620  129.3650   60.0870 O   0  0  0  0  0  0  0  0  0  0  0  0
  127.7550  130.4990   59.7620 C   0  0  2  0  0  0  0  0  0  0  0  0
  128.4040  131.2050   58.5640 C   0  0  0  0  0  0  0  0  0  0  0  0
  127.4250  131.6870   57.5050 C   0  0  0  0  0  0  0  0  0  0  0  0
  129.7340  131.3930   58.4070 C   0  0  0  0  0  0  0  0  0  0  0  0
  130.8550  130.9390   59.3350 C   0  0  2  0  0  0  0  0  0  0  0  0
  130.3730  130.9690   60.8010 C   0  0  0  0  0  0  0  0  0  0  0  0
  131.4930  130.4970   61.7500 C   0  0  0  0  0  0  0  0  0  0  0  0
  132.8140  131.2850   61.5560 C   0  0  1  0  0  0  0  0  0  0  0  0
  133.8370  130.6930   62.3340 O   0  0  0  0  0  0  0  0  0  0  0  0
  133.2360  131.4030   60.0660 C   0  0  2  0  0  0  0  0  0  0  0  0
  134.3670  132.2700   59.9720 O   0  0  0  0  0  0  0  0  0  0  0  0
  134.7120  132.9700   61.1600 C   0  0  0  0  0  0  0  0  0  0  0  0
  132.0530  131.9040   59.2010 C   0  0  0  0  0  0  0  0  0  0  0  0
  127.4410  131.4330   60.9920 C   0  0  2  0  0  0  0  0  0  0  0  0
  127.9990  132.8700   60.8520 C   0  0  0  0  0  0  0  0  0  0  0  0
  127.8630  130.8220   62.3630 C   0  0  1  0  0  0  0  0  0  0  0  0
  129.0010  131.5090   62.8570 O   0  0  0  0  0  0  0  0  0  0  0  0
  126.6870  130.7620   63.3820 C   0  0  0  0  0  0  0  0  0  0  0  0
  126.7480  129.6790   64.4760 C   0  0  0  0  0  0  0  0  0  0  0  0
  125.8780  129.5960   65.3430 O   0  0  0  0  0  0  0  0  0  0  0  0
  125.2203  127.2573   60.9495 H   0  0  0  0  0  0  0  0  0  0  0  0
  126.6024  126.0444   61.4482 H   0  0  0  0  0  0  0  0  0  0  0  0
  126.1236  128.9267   62.4197 H   0  0  0  0  0  0  0  0  0  0  0  0
  127.8905  126.7183   63.5761 H   0  0  0  0  0  0  0  0  0  0  0  0
  128.7433  128.0050   62.5950 H   0  0  0  0  0  0  0  0  0  0  0  0
  128.8567  129.2763   64.3493 H   0  0  0  0  0  0  0  0  0  0  0  0
  127.9346  126.8414   65.7065 H   0  0  0  0  0  0  0  0  0  0  0  0
  128.3288  130.0329   68.4478 H   0  0  0  0  0  0  0  0  0  0  0  0
  129.2419  130.3385   66.9313 H   0  0  0  0  0  0  0  0  0  0  0  0
  127.4475  130.4207   66.9313 H   0  0  0  0  0  0  0  0  0  0  0  0
  127.7724  127.9025   69.0328 H   0  0  0  0  0  0  0  0  0  0  0  0
  128.0072  126.5019   67.8509 H   0  0  0  0  0  0  0  0  0  0  0  0
  129.7318  126.4709   69.5495 H   0  0  0  0  0  0  0  0  0  0  0  0
  130.3495  128.3664   70.5095 H   0  0  0  0  0  0  0  0  0  0  0  0
  131.4508  128.5872   69.1077 H   0  0  0  0  0  0  0  0  0  0  0  0
  129.8305  129.3625   69.1077 H   0  0  0  0  0  0  0  0  0  0  0  0
  131.3596  127.3799   67.2630 H   0  0  0  0  0  0  0  0  0  0  0  0
  131.2500  125.7726   68.1745 H   0  0  0  0  0  0  0  0  0  0  0  0
  129.4593  126.6806   65.8904 H   0  0  0  0  0  0  0  0  0  0  0  0
  129.2150  124.7399   69.0474 H   0  0  0  0  0  0  0  0  0  0  0  0
  129.1004  123.2092   68.1144 H   0  0  0  0  0  0  0  0  0  0  0  0
  130.6315  124.1485   68.1144 H   0  0  0  0  0  0  0  0  0  0  0  0
  131.0667  124.2138   65.7044 H   0  0  0  0  0  0  0  0  0  0  0  0
  131.0670  123.0300   62.3700 H   0  0  0  0  0  0  0  0  0  0  0  0
  132.5551  126.3328   62.7128 H   0  0  0  0  0  0  0  0  0  0  0  0
  134.2768  124.0015   62.4357 H   0  0  0  0  0  0  0  0  0  0  0  0
  132.8769  123.9396   61.3119 H   0  0  0  0  0  0  0  0  0  0  0  0
  133.9662  125.3679   61.3119 H   0  0  0  0  0  0  0  0  0  0  0  0
  133.3376  124.0524   64.6490 H   0  0  0  0  0  0  0  0  0  0  0  0
  134.2573  125.5853   64.3756 H   0  0  0  0  0  0  0  0  0  0  0  0
  132.4358  126.9053   65.2778 H   0  0  0  0  0  0  0  0  0  0  0  0
  134.5823  124.9570   67.8913 H   0  0  0  0  0  0  0  0  0  0  0  0
  134.2786  124.1099   66.3367 H   0  0  0  0  0  0  0  0  0  0  0  0
  134.9865  125.7609   66.3367 H   0  0  0  0  0  0  0  0  0  0  0  0
  131.7683  121.8712   59.7924 H   0  0  0  0  0  0  0  0  0  0  0  0
  130.0659  118.4690   62.4197 H   0  0  0  0  0  0  0  0  0  0  0  0
  129.0886  118.5882   60.9172 H   0  0  0  0  0  0  0  0  0  0  0  0
  130.6262  117.6594   60.9172 H   0  0  0  0  0  0  0  0  0  0  0  0
  128.4562  120.4368   62.2415 H   0  0  0  0  0  0  0  0  0  0  0  0
  128.3049  125.6945   62.5668 H   0  0  0  0  0  0  0  0  0  0  0  0
  128.6218  123.2738   63.5415 H   0  0  0  0  0  0  0  0  0  0  0  0
  127.0323  123.5003   62.8814 H   0  0  0  0  0  0  0  0  0  0  0  0
  132.2431  127.7372   58.8537 H   0  0  0  0  0  0  0  0  0  0  0  0
  132.8311  127.0130   60.3706 H   0  0  0  0  0  0  0  0  0  0  0  0
  132.9870  125.3665   58.4886 H   0  0  0  0  0  0  0  0  0  0  0  0
  131.7779  124.8179   59.7114 H   0  0  0  0  0  0  0  0  0  0  0  0
  131.2800  126.0685   56.9726 H   0  0  0  0  0  0  0  0  0  0  0  0
  130.7367  124.4547   57.6294 H   0  0  0  0  0  0  0  0  0  0  0  0
  128.9655  126.3323   57.4059 H   0  0  0  0  0  0  0  0  0  0  0  0
  129.0897  125.4041   58.9722 H   0  0  0  0  0  0  0  0  0  0  0  0
  130.1684  128.2528   58.4669 H   0  0  0  0  0  0  0  0  0  0  0  0
  126.7471  130.1675   59.4716 H   0  0  0  0  0  0  0  0  0  0  0  0
  126.5409  132.1223   57.9939 H   0  0  0  0  0  0  0  0  0  0  0  0
  127.9096  132.4495   56.8775 H   0  0  0  0  0  0  0  0  0  0  0  0
  127.1162  130.8379   56.8775 H   0  0  0  0  0  0  0  0  0  0  0  0
  130.0435  131.9379   57.5029 H   0  0  0  0  0  0  0  0  0  0  0  0
  131.1501  129.9159   59.0589 H   0  0  0  0  0  0  0  0  0  0  0  0
  130.0841  131.9969   61.0657 H   0  0  0  0  0  0  0  0  0  0  0  0
  129.5115  130.2930   60.9051 H   0  0  0  0  0  0  0  0  0  0  0  0
  131.1536  130.6293   62.7879 H   0  0  0  0  0  0  0  0  0  0  0  0
  131.6995  129.4412   61.5206 H   0  0  0  0  0  0  0  0  0  0  0  0
  132.6413  132.3153   61.9005 H   0  0  0  0  0  0  0  0  0  0  0  0
  134.2880  130.0370   61.7970 H   0  0  0  0  0  0  0  0  0  0  0  0
  133.5182  130.4132   59.6779 H   0  0  0  0  0  0  0  0  0  0  0  0
  134.4178  132.3731   62.0359 H   0  0  0  0  0  0  0  0  0  0  0  0
  135.7982  133.1423   61.1818 H   0  0  0  0  0  0  0  0  0  0  0  0
  134.1870  133.9364   61.1818 H   0  0  0  0  0  0  0  0  0  0  0  0
  131.7529  132.9065   59.5399 H   0  0  0  0  0  0  0  0  0  0  0  0
  132.3677  131.9449   58.1478 H   0  0  0  0  0  0  0  0  0  0  0  0
  126.3436  131.5072   60.9809 H   0  0  0  0  0  0  0  0  0  0  0  0
  128.1651  133.2978   61.8517 H   0  0  0  0  0  0  0  0  0  0  0  0
  128.9514  132.8416   60.3024 H   0  0  0  0  0  0  0  0  0  0  0  0
  127.2770  133.4918   60.3024 H   0  0  0  0  0  0  0  0  0  0  0  0
  128.1436  129.7697   62.2080 H   0  0  0  0  0  0  0  0  0  0  0  0
  129.6510  130.8610   63.1390 H   0  0  0  0  0  0  0  0  0  0  0  0
  126.6386  131.7380   63.8870 H   0  0  0  0  0  0  0  0  0  0  0  0
  125.8058  130.5004   62.7777 H   0  0  0  0  0  0  0  0  0  0  0  0
  1  2  2  0
  2  3  1  0
  3  4  1  0
  4  5  1  0
  5  6  2  0
  6  7  1  0
  6  8  1  0
  8  9  1  0
  9 10  1  0
  9 11  1  0
 11 12  1  0
 12 13  1  0
 13 14  1  0
 12 15  1  0
 15 16  1  0
 16 17  1  0
 17 18  1  1
 17 19  1  0
 19 20  1  0
 19 21  1  0
 21 22  1  0
 22 23  1  0
 23 24  1  0
 17 25  1  0
 25 26  1  6
 26 27  1  0
 27 28  2  0
 28 29  1  0
 29 30  1  0
 30 31  1  0
 29 32  2  0
 32 33  1  0
 33 34  2  0
 34 35  1  0
 35 36  2  0
 35 37  1  0
 37 38  1  0
 25 39  1  0
 39 40  2  0
 39 41  1  0
 41 42  1  0
 42 43  1  0
 43 44  1  0
 44 45  1  0
 45 46  1  0
 46 47  1  0
 47 48  2  0
 47 49  1  0
 49 50  1  0
 50 51  1  0
 51 52  1  0
 51 53  2  0
 53 54  1  0
 54 55  1  0
 55 56  1  0
 56 57  1  0
 57 58  1  0
 57 59  1  0
 59 60  1  0
 60 61  1  0
 59 62  1  0
 50 63  1  0
 63 64  1  0
 63 65  1  0
 65 66  1  0
 65 67  1  0
 67 68  1  0
 68 69  2  0
 68  4  1  0
 22 15  1  0
 37 25  1  0
 46 41  1  0
 62 54  1  0
 34 27  1  0
 38 33  1  0
  1 70  1  0
  1 71  1  0
  2 72  1  0
  3 73  1  0
  3 74  1  0
  4 75  1  6
  5 76  1  0
  7 77  1  0
  7 78  1  0
  7 79  1  0
  8 80  1  0
  8 81  1  0
  9 82  1  1
 10 83  1  0
 10 84  1  0
 10 85  1  0
 11 86  1  0
 11 87  1  0
 12 88  1  6
 14 89  1  0
 14 90  1  0
 14 91  1  0
 15 92  1  1
 18 93  1  0
 19 94  1  6
 20 95  1  0
 20 96  1  0
 20 97  1  0
 21 98  1  0
 21 99  1  0
 22100  1  6
 24101  1  0
 24102  1  0
 24103  1  0
 28104  1  0
 31105  1  0
 31106  1  0
 31107  1  0
 32108  1  0
 37109  1  1
 38110  1  0
 38111  1  0
 42112  1  0
 42113  1  0
 43114  1  0
 43115  1  0
 44116  1  0
 44117  1  0
 45118  1  0
 45119  1  0
 46120  1  6
 50121  1  6
 52122  1  0
 52123  1  0
 52124  1  0
 53125  1  0
 54126  1  6
 55127  1  0
 55128  1  0
 56129  1  0
 56130  1  0
 57131  1  1
 58132  1  0
 59133  1  6
 61134  1  0
 61135  1  0
 61136  1  0
 62137  1  0
 62138  1  0
 63139  1  1
 64140  1  0
 64141  1  0
 64142  1  0
 65143  1  6
 66144  1  0
 67145  1  0
 67146  1  0
M  END
>  <Binding energies>  (1) 
[-1.94]

>  <Ligand effiencies>  (1) 
[-0.026216216216216216]

>  <Interactions>  (1) 
["V-A:ASN:359:CA:3149, V-A:PRO:540:CG:4886, V-B:PRO:540:CA:9855, V-A:GLU:543:CA:4904, V-B:GLU:543:C:9874, V-A:GLU:543:C:4902, V-A:GLY:454:CA:4049, V-B:GLU:543:CB:9878, H-A:ASN:362:O:3173, V-B:ASP:366:CG:8184, V-B:ALA:541:CB:9864, V-B:TYR:539:CE2:9848, V-A:TYR:484:CE2:4346, V-B:GLU:543:CG:9879, V-B:TYR:539:C:9839, V-A:ASP:366:CG:3213, V-A:ASN:362:CB:3176, V-A:TYR:539:CD1:4873, V-A:LEU:363:CB:3187, V-B:TYR:484:CE2:9317, V-B:TYR:539:CZ:9849, V-A:TYR:539:CZ:4877, V-A:GLU:543:CD:4908, V-A:TYR:484:CZ:4347, H-B:TYR:484:OH:9319, V-B:HIS:456:CE1:9041, V-B:GLU:543:CA:9876, V-A:ARG:545:CG:4922, V-A:TYR:484:CD2:4344, V-A:HIS:456:CE1:4070, V-B:TYR:484:CZ:9318, V-B:TYR:539:CD2:9846, V-A:GLU:543:CG:4907, H-A:SER:385:OG:3410, V-B:GLU:543:CD:9880, V-A:ASP:366:CB:3212, V-A:ARG:545:CD:4923, V-A:LEU:475:CD2:4259, H-A:ARG:545:NH2:4928, H-A:LEU:363:N:3186, H-A:GLU:543:OE1:4909, V-A:ASN:362:C:3172, V-A:ARG:545:CZ:4926, V-A:GLU:543:CB:4906, H-A:ASP:366:OD1:3214, V-A:PRO:540:CB:4885, V-A:PRO:540:CA:4883, V-A:LEU:363:CA:3185, V-A:ASN:362:CA:3174, H-A:ARG:545:NE:4924, V-B:PRO:540:C:9853, H-A:ASP:366:OD2:3215, V-B:ALA:541:CA:9862, V-A:TYR:539:CE1:4875, V-A:ASN:359:C:3147, H-A:TYR:484:OH:4348"]

$$$$
ZINC587456836
     RDKit          3D

 54 56  0  0  0  0  0  0  0  0999 V2000
  125.6530  123.9770   60.8980 C   0  0  0  0  0  0  0  0  0  0  0  0
  127.1070  123.7920   60.4470 C   0  0  0  0  0  0  0  0  0  0  0  0
  127.9670  123.0490   61.4840 C   0  0  0  0  0  0  0  0  0  0  0  0
  129.4340  123.5120   61.4900 C   0  0  0  0  0  0  0  0  0  0  0  0
  129.8540  124.1500   62.8320 C   0  0  0  0  0  0  0  0  0  0  0  0
  130.4330  125.6030   62.7340 C   0  0  1  0  0  0  0  0  0  0  0  0
  129.2840  126.6140   62.9520 C   0  0  0  0  0  0  0  0  0  0  0  0
  129.0910  127.2810   64.1720 C   0  0  0  0  0  0  0  0  0  0  0  0
  128.0310  128.1690   64.3320 C   0  0  0  0  0  0  0  0  0  0  0  0
  127.1510  128.3960   63.2780 C   0  0  0  0  0  0  0  0  0  0  0  0
  125.7030  129.6090   63.4990 Br  0  0  0  0  0  0  0  0  0  0  0  0
  127.3230  127.7370   62.0630 C   0  0  0  0  0  0  0  0  0  0  0  0
  128.3830  126.8490   61.9040 C   0  0  0  0  0  0  0  0  0  0  0  0
  131.6420  125.8630   63.6940 C   0  0  0  0  0  0  0  0  0  0  0  0
  132.8060  124.9150   63.3950 C   0  0  0  0  0  0  0  0  0  0  0  0
  133.4630  124.3410   64.2620 O   0  0  0  0  0  0  0  0  0  0  0  0
  133.0570  124.7420   61.9390 C   0  0  0  0  0  0  0  0  0  0  0  0
  134.1740  124.0370   61.4750 C   0  0  0  0  0  0  0  0  0  0  0  0
  134.3560  123.8200   60.1120 C   0  0  0  0  0  0  0  0  0  0  0  0
  133.4160  124.2810   59.1920 C   0  0  0  0  0  0  0  0  0  0  0  0
  133.6330  124.0350   57.8600 O   0  0  0  0  0  0  0  0  0  0  0  0
  132.2730  124.9670   59.6330 C   0  0  0  0  0  0  0  0  0  0  0  0
  131.2170  125.4560   58.6370 C   0  0  0  0  0  0  0  0  0  0  0  0
  131.4100  126.9340   58.2560 C   0  0  0  0  0  0  0  0  0  0  0  0
  130.7210  127.8960   59.2310 C   0  0  0  0  0  0  0  0  0  0  0  0
  132.0940  125.1760   61.0100 C   0  0  0  0  0  0  0  0  0  0  0  0
  130.9340  125.8310   61.3980 O   0  0  0  0  0  0  0  0  0  0  0  0
  125.6079  123.9827   61.9971 H   0  0  0  0  0  0  0  0  0  0  0  0
  125.2674  124.9314   60.5102 H   0  0  0  0  0  0  0  0  0  0  0  0
  125.0407  123.1495   60.5102 H   0  0  0  0  0  0  0  0  0  0  0  0
  127.1129  123.2166   59.5095 H   0  0  0  0  0  0  0  0  0  0  0  0
  127.5414  124.7941   60.3159 H   0  0  0  0  0  0  0  0  0  0  0  0
  127.5403  123.2231   62.4828 H   0  0  0  0  0  0  0  0  0  0  0  0
  127.9594  121.9825   61.2147 H   0  0  0  0  0  0  0  0  0  0  0  0
  130.0782  122.6414   61.2978 H   0  0  0  0  0  0  0  0  0  0  0  0
  129.5425  124.2797   60.7097 H   0  0  0  0  0  0  0  0  0  0  0  0
  128.9691  124.1807   63.4847 H   0  0  0  0  0  0  0  0  0  0  0  0
  130.6702  123.5244   63.2225 H   0  0  0  0  0  0  0  0  0  0  0  0
  129.7827  127.1006   65.0080 H   0  0  0  0  0  0  0  0  0  0  0  0
  127.8891  128.6905   65.2901 H   0  0  0  0  0  0  0  0  0  0  0  0
  126.6243  127.9175   61.2328 H   0  0  0  0  0  0  0  0  0  0  0  0
  128.5152  126.3258   60.9454 H   0  0  0  0  0  0  0  0  0  0  0  0
  131.9837  126.9008   63.5664 H   0  0  0  0  0  0  0  0  0  0  0  0
  131.3081  125.6864   64.7271 H   0  0  0  0  0  0  0  0  0  0  0  0
  134.9132  123.6517   62.1927 H   0  0  0  0  0  0  0  0  0  0  0  0
  135.2476  123.2812   59.7588 H   0  0  0  0  0  0  0  0  0  0  0  0
  134.4030  124.4950   57.5180 H   0  0  0  0  0  0  0  0  0  0  0  0
  131.2819  124.8447   57.7248 H   0  0  0  0  0  0  0  0  0  0  0  0
  130.2324  125.3594   59.1178 H   0  0  0  0  0  0  0  0  0  0  0  0
  132.4873  127.1562   58.2460 H   0  0  0  0  0  0  0  0  0  0  0  0
  130.9524  127.0825   57.2668 H   0  0  0  0  0  0  0  0  0  0  0  0
  130.9402  127.5899   60.2646 H   0  0  0  0  0  0  0  0  0  0  0  0
  131.0944  128.9171   59.0640 H   0  0  0  0  0  0  0  0  0  0  0  0
  129.6340  127.8712   59.0640 H   0  0  0  0  0  0  0  0  0  0  0  0
  1  2  1  0
  2  3  1  0
  3  4  1  0
  4  5  1  0
  6  5  1  6
  6  7  1  0
  7  8  2  0
  8  9  1  0
  9 10  2  0
 10 11  1  0
 10 12  1  0
 12 13  2  0
  6 14  1  0
 14 15  1  0
 15 16  2  0
 15 17  1  0
 17 18  2  0
 18 19  1  0
 19 20  2  0
 20 21  1  0
 20 22  1  0
 22 23  1  0
 23 24  1  0
 24 25  1  0
 22 26  2  0
 26 27  1  0
 27  6  1  0
 13  7  1  0
 26 17  1  0
  1 28  1  0
  1 29  1  0
  1 30  1  0
  2 31  1  0
  2 32  1  0
  3 33  1  0
  3 34  1  0
  4 35  1  0
  4 36  1  0
  5 37  1  0
  5 38  1  0
  8 39  1  0
  9 40  1  0
 12 41  1  0
 13 42  1  0
 14 43  1  0
 14 44  1  0
 18 45  1  0
 19 46  1  0
 21 47  1  0
 23 48  1  0
 23 49  1  0
 24 50  1  0
 24 51  1  0
 25 52  1  0
 25 53  1  0
 25 54  1  0
M  END
>  <Binding energies>  (1) 
[-6.84]

>  <Ligand effiencies>  (1) 
[-0.24428571428571427]

>  <Interactions>  (1) 
["V-A:ILE:369:CG2:3237, V-A:ASP:366:CA:3210, V-B:PRO:540:CA:9855, V-A:ILE:369:CB:3236, V-B:TYR:539:CE2:9848, V-A:ASP:366:CG:3213, V-B:TYR:539:CZ:9849, H-B:TYR:539:OH:9850, V-A:GLU:543:CD:4908, V-B:PRO:540:CB:9857, H-A:GLY:454:N:4050, V-A:ILE:369:CD1:3239, V-B:GLU:543:CD:9880, V-B:ARG:545:CZ:9898, V-A:ILE:369:CG1:3238, V-A:ASP:366:CB:3212, V-A:ARG:545:CZ:4926, H-A:ASP:366:O:3209, H-A:TYR:484:OH:4348"]

$$$$
ZINC587472312
     RDKit          3D

 50 53  0  0  0  0  0  0  0  0999 V2000
  134.0560  124.3350   61.2090 C   0  0  0  0  0  0  0  0  0  0  0  0
  134.1360  124.1120   62.7250 C   0  0  0  0  0  0  0  0  0  0  0  0
  133.7580  122.6780   63.1370 C   0  0  0  0  0  0  0  0  0  0  0  0
  132.5570  122.1380   62.3540 C   0  0  0  0  0  0  0  0  0  0  0  0
  132.7400  121.2980   61.2440 C   0  0  0  0  0  0  0  0  0  0  0  0
  133.9920  120.9220   60.8290 O   0  0  0  0  0  0  0  0  0  0  0  0
  131.6370  120.8230   60.5340 C   0  0  0  0  0  0  0  0  0  0  0  0
  130.3450  121.1680   60.9250 C   0  0  0  0  0  0  0  0  0  0  0  0
  130.1320  121.9750   62.0470 C   0  0  0  0  0  0  0  0  0  0  0  0
  131.2500  122.4800   62.7400 C   0  0  0  0  0  0  0  0  0  0  0  0
  131.1150  123.2920   63.8530 O   0  0  0  0  0  0  0  0  0  0  0  0
  129.9120  124.0700   63.9140 C   0  0  2  0  0  0  0  0  0  0  0  0
  129.8750  124.8710   65.2120 C   0  0  0  0  0  0  0  0  0  0  0  0
  129.4710  126.2060   65.2050 C   0  0  0  0  0  0  0  0  0  0  0  0
  129.4350  126.9300   66.3940 C   0  0  0  0  0  0  0  0  0  0  0  0
  129.7960  126.3300   67.6050 C   0  0  0  0  0  0  0  0  0  0  0  0
  129.7450  127.0980   68.8800 C   0  0  0  0  0  0  0  0  0  0  0  0
  130.9670  127.4670   69.3590 N   0  0  0  0  0  0  0  0  0  0  0  0
  131.0330  128.1230   70.5430 C   0  0  0  0  0  0  0  0  0  0  0  0
  129.9050  128.4390   71.2940 C   0  0  0  0  0  0  0  0  0  0  0  0
  128.6540  128.0750   70.7970 C   0  0  0  0  0  0  0  0  0  0  0  0
  128.5510  127.4040   69.5710 C   0  0  0  0  0  0  0  0  0  0  0  0
  127.2150  127.0640   69.0410 N   0  0  0  0  0  0  0  0  0  0  0  0
  126.9460  127.3800   67.8860 O   0  0  0  0  0  0  0  0  0  0  0  0
  126.4250  126.5040   69.7950 O   0  0  0  0  0  0  0  0  0  0  0  0
  130.2070  124.9910   67.6020 C   0  0  0  0  0  0  0  0  0  0  0  0
  130.2470  124.2660   66.4160 C   0  0  0  0  0  0  0  0  0  0  0  0
  128.6850  123.1400   63.7790 C   0  0  0  0  0  0  0  0  0  0  0  0
  128.7570  122.3980   62.4420 C   0  0  0  0  0  0  0  0  0  0  0  0
  127.7700  122.1690   61.7420 O   0  0  0  0  0  0  0  0  0  0  0  0
  133.6909  125.3528   61.0069 H   0  0  0  0  0  0  0  0  0  0  0  0
  135.0553  124.2093   60.7667 H   0  0  0  0  0  0  0  0  0  0  0  0
  133.3645  123.6028   60.7667 H   0  0  0  0  0  0  0  0  0  0  0  0
  135.1655  124.3131   63.0561 H   0  0  0  0  0  0  0  0  0  0  0  0
  133.4147  124.7941   63.1989 H   0  0  0  0  0  0  0  0  0  0  0  0
  134.6210  122.0203   62.9564 H   0  0  0  0  0  0  0  0  0  0  0  0
  133.4801  122.6991   64.2011 H   0  0  0  0  0  0  0  0  0  0  0  0
  134.6340  120.9100   61.5430 H   0  0  0  0  0  0  0  0  0  0  0  0
  131.7883  120.1722   59.6602 H   0  0  0  0  0  0  0  0  0  0  0  0
  129.4844  120.8022   60.3457 H   0  0  0  0  0  0  0  0  0  0  0  0
  129.8879  124.7866   63.0798 H   0  0  0  0  0  0  0  0  0  0  0  0
  129.1806  126.6873   64.2595 H   0  0  0  0  0  0  0  0  0  0  0  0
  129.1197  127.9838   66.3808 H   0  0  0  0  0  0  0  0  0  0  0  0
  132.0206  128.4183   70.9268 H   0  0  0  0  0  0  0  0  0  0  0  0
  129.9979  128.9633   72.2565 H   0  0  0  0  0  0  0  0  0  0  0  0
  127.7455  128.3152   71.3688 H   0  0  0  0  0  0  0  0  0  0  0  0
  130.5007  124.5087   68.5460 H   0  0  0  0  0  0  0  0  0  0  0  0
  130.5718  123.2151   66.4253 H   0  0  0  0  0  0  0  0  0  0  0  0
  128.6833  122.4120   64.6036 H   0  0  0  0  0  0  0  0  0  0  0  0
  127.7629  123.7385   63.8190 H   0  0  0  0  0  0  0  0  0  0  0  0
  1  2  1  0
  2  3  1  0
  3  4  1  0
  4  5  2  0
  5  6  1  0
  5  7  1  0
  7  8  2  0
  8  9  1  0
  9 10  2  0
 10 11  1  0
 11 12  1  0
 12 13  1  0
 13 14  2  0
 14 15  1  0
 15 16  2  0
 16 17  1  0
 17 18  2  0
 18 19  1  0
 19 20  2  0
 20 21  1  0
 21 22  2  0
 22 23  1  0
 23 24  2  0
 23 25  1  0
 16 26  1  0
 26 27  2  0
 12 28  1  0
 28 29  1  0
 29 30  2  0
 10  4  1  0
 27 13  1  0
 29  9  1  0
 22 17  1  0
  1 31  1  0
  1 32  1  0
  1 33  1  0
  2 34  1  0
  2 35  1  0
  3 36  1  0
  3 37  1  0
  6 38  1  0
  7 39  1  0
  8 40  1  0
 12 41  1  6
 14 42  1  0
 15 43  1  0
 19 44  1  0
 20 45  1  0
 21 46  1  0
 26 47  1  0
 27 48  1  0
 28 49  1  0
 28 50  1  0
M  CHG  2  23   1  25  -1
M  END
>  <Binding energies>  (1) 
[-7.28]

>  <Ligand effiencies>  (1) 
[-0.23483870967741935]

>  <Interactions>  (1) 
["V-A:GLY:454:CA:4049, V-B:HIS:456:CD2:9039, V-B:GLU:543:C:9874, V-A:GLU:543:C:4902, V-B:GLU:543:CB:9878, V-B:ALA:541:CB:9864, V-B:TYR:539:CE2:9848, V-A:TYR:484:CE2:4346, V-A:GLY:544:CA:4914, V-B:GLU:543:CG:9879, V-A:GLY:544:C:4912, V-A:ASP:366:CG:3213, H-B:HIS:456:ND1:9038, H-B:ARG:545:N:9892, H-B:ALA:541:N:9863, V-A:GLU:543:CD:4908, V-A:TYR:484:CZ:4347, V-B:GLU:543:CA:9876, H-B:GLY:544:N:9887, V-B:HIS:456:CE1:9041, V-A:GLY:453:C:4042, V-A:ILE:369:CD1:3239, V-A:HIS:456:CE1:4070, V-B:TYR:539:CD2:9846, H-A:SER:385:OG:3410, V-B:GLU:543:CD:9880, V-A:LEU:475:CD2:4259, V-A:GLU:543:CB:4906, V-A:GLY:453:CA:4044, H-A:SER:385:O:3406, H-A:TYR:484:OH:4348"]

$$$$
ZINC587478525
     RDKit          3D

 41 43  0  0  0  0  0  0  0  0999 V2000
  125.4420  123.2250   61.6750 C   0  0  0  0  0  0  0  0  0  0  0  0
  126.9720  123.2470   61.5610 C   0  0  0  0  0  0  0  0  0  0  0  0
  127.6740  122.8550   62.8720 C   0  0  0  0  0  0  0  0  0  0  0  0
  129.1930  122.7440   62.7120 C   0  0  0  0  0  0  0  0  0  0  0  0
  129.7560  121.8990   61.7410 C   0  0  0  0  0  0  0  0  0  0  0  0
  128.9690  121.1500   60.9020 O   0  0  0  0  0  0  0  0  0  0  0  0
  131.1410  121.8140   61.6030 C   0  0  0  0  0  0  0  0  0  0  0  0
  131.9780  122.5600   62.4280 C   0  0  0  0  0  0  0  0  0  0  0  0
  131.4470  123.3950   63.4180 C   0  0  0  0  0  0  0  0  0  0  0  0
  130.0470  123.5030   63.5300 C   0  0  0  0  0  0  0  0  0  0  0  0
  129.4500  124.3320   64.4640 O   0  0  0  0  0  0  0  0  0  0  0  0
  130.2250  125.4680   64.8790 C   0  0  1  0  0  0  0  0  0  0  0  0
  129.4850  126.2800   65.9450 C   0  0  0  0  0  0  0  0  0  0  0  0
  128.8270  127.4620   65.5790 C   0  0  0  0  0  0  0  0  0  0  0  0
  128.1400  128.2170   66.5280 C   0  0  0  0  0  0  0  0  0  0  0  0
  128.0970  127.7950   67.8550 C   0  0  0  0  0  0  0  0  0  0  0  0
  128.7380  126.6170   68.2370 C   0  0  0  0  0  0  0  0  0  0  0  0
  128.6750  126.2220   69.5500 O   0  0  0  0  0  0  0  0  0  0  0  0
  129.4320  125.8540   67.2850 C   0  0  0  0  0  0  0  0  0  0  0  0
  130.0480  124.6890   67.6740 O   0  0  0  0  0  0  0  0  0  0  0  0
  131.6030  124.9890   65.3880 C   0  0  0  0  0  0  0  0  0  0  0  0
  132.3310  124.2510   64.2600 C   0  0  0  0  0  0  0  0  0  0  0  0
  133.5390  124.3590   64.0520 O   0  0  0  0  0  0  0  0  0  0  0  0
  125.1534  123.2209   62.7365 H   0  0  0  0  0  0  0  0  0  0  0  0
  125.0249  124.1172   61.1851 H   0  0  0  0  0  0  0  0  0  0  0  0
  125.0508  122.3211   61.1851 H   0  0  0  0  0  0  0  0  0  0  0  0
  127.2759  122.5401   60.7749 H   0  0  0  0  0  0  0  0  0  0  0  0
  127.2710  124.2781   61.3212 H   0  0  0  0  0  0  0  0  0  0  0  0
  127.4540  123.6189   63.6323 H   0  0  0  0  0  0  0  0  0  0  0  0
  127.2958  121.8665   63.1716 H   0  0  0  0  0  0  0  0  0  0  0  0
  129.2190  120.2230   60.8870 H   0  0  0  0  0  0  0  0  0  0  0  0
  131.5747  121.1535   60.8377 H   0  0  0  0  0  0  0  0  0  0  0  0
  133.0685  122.4926   62.3006 H   0  0  0  0  0  0  0  0  0  0  0  0
  130.3783  126.1348   64.0176 H   0  0  0  0  0  0  0  0  0  0  0  0
  128.8530  127.7974   64.5317 H   0  0  0  0  0  0  0  0  0  0  0  0
  127.6319  129.1458   66.2293 H   0  0  0  0  0  0  0  0  0  0  0  0
  127.5560  128.3926   68.6034 H   0  0  0  0  0  0  0  0  0  0  0  0
  129.0480  125.3500   69.6960 H   0  0  0  0  0  0  0  0  0  0  0  0
  129.7500  124.3880   68.5350 H   0  0  0  0  0  0  0  0  0  0  0  0
  132.1999  125.8571   65.7043 H   0  0  0  0  0  0  0  0  0  0  0  0
  131.4646  124.3107   66.2428 H   0  0  0  0  0  0  0  0  0  0  0  0
  1  2  1  0
  2  3  1  0
  3  4  1  0
  4  5  2  0
  5  6  1  0
  5  7  1  0
  7  8  2  0
  8  9  1  0
  9 10  2  0
 10 11  1  0
 11 12  1  0
 12 13  1  0
 13 14  2  0
 14 15  1  0
 15 16  2  0
 16 17  1  0
 17 18  1  0
 17 19  2  0
 19 20  1  0
 12 21  1  0
 21 22  1  0
 22 23  2  0
 10  4  1  0
 19 13  1  0
 22  9  1  0
  1 24  1  0
  1 25  1  0
  1 26  1  0
  2 27  1  0
  2 28  1  0
  3 29  1  0
  3 30  1  0
  6 31  1  0
  7 32  1  0
  8 33  1  0
 12 34  1  6
 14 35  1  0
 15 36  1  0
 16 37  1  0
 18 38  1  0
 20 39  1  0
 21 40  1  0
 21 41  1  0
M  END
>  <Binding energies>  (1) 
[-5.92]

>  <Ligand effiencies>  (1) 
[-0.2276923076923077]

>  <Interactions>  (1) 
["V-B:PRO:540:CA:9855, V-B:GLU:543:C:9874, H-B:GLU:543:O:9875, V-B:GLU:543:CB:9878, V-B:ALA:541:CB:9864, V-B:GLU:543:CG:9879, H-B:ALA:541:N:9863, V-A:GLU:543:CD:4908, V-B:PRO:540:CB:9857, V-B:GLU:543:CA:9876, H-A:GLY:454:N:4050, V-B:HIS:456:CE1:9041, V-A:HIS:456:CE1:4070, V-B:GLU:543:CD:9880, V-A:LEU:475:CD2:4259, H-A:ARG:545:NH2:4928, H-B:TYR:539:O:9840, V-B:PRO:540:C:9853, V-B:ALA:541:CA:9862, H-A:HIS:456:NE2:4071, H-A:TYR:484:OH:4348"]

$$$$
ZINC587486139
     RDKit          3D

 46 49  0  0  0  0  0  0  0  0999 V2000
  127.0830  133.9830   60.9140 C   0  0  0  0  0  0  0  0  0  0  0  0
  128.5760  133.8410   61.2440 C   0  0  0  0  0  0  0  0  0  0  0  0
  129.0140  132.3760   61.4130 C   0  0  0  0  0  0  0  0  0  0  0  0
  130.3090  132.0590   60.6590 C   0  0  0  0  0  0  0  0  0  0  0  0
  131.5020  131.8050   61.3540 C   0  0  0  0  0  0  0  0  0  0  0  0
  131.5550  131.8500   62.7240 O   0  0  0  0  0  0  0  0  0  0  0  0
  132.6670  131.4920   60.6550 C   0  0  0  0  0  0  0  0  0  0  0  0
  132.6640  131.4450   59.2640 C   0  0  0  0  0  0  0  0  0  0  0  0
  131.4980  131.7340   58.5440 C   0  0  0  0  0  0  0  0  0  0  0  0
  130.3170  132.0150   59.2560 C   0  0  0  0  0  0  0  0  0  0  0  0
  129.1160  132.2820   58.6130 O   0  0  0  0  0  0  0  0  0  0  0  0
  128.9300  131.7040   57.3050 C   0  0  2  0  0  0  0  0  0  0  0  0
  127.6150  132.3250   56.8240 C   0  0  0  0  0  0  0  0  0  0  0  0
  126.5120  131.4590   57.4350 C   0  0  0  0  0  0  0  0  0  0  0  0
  127.1780  130.1060   57.5810 C   0  0  0  0  0  0  0  0  0  0  0  0
  126.6050  128.8660   57.8580 C   0  0  0  0  0  0  0  0  0  0  0  0
  127.4020  127.7220   57.9400 C   0  0  0  0  0  0  0  0  0  0  0  0
  126.6110  126.2070   58.2070 Cl  0  0  0  0  0  0  0  0  0  0  0  0
  128.7950  127.8270   57.7760 C   0  0  0  0  0  0  0  0  0  0  0  0
  129.8860  126.3960   57.8510 S   0  0  0  0  0  0  0  0  0  0  0  0
  129.4470  125.4790   58.9080 O   0  0  0  0  0  0  0  0  0  0  0  0
  130.1660  125.9510   56.4820 O   0  0  0  0  0  0  0  0  0  0  0  0
  131.7320  127.2140   58.5830 Cl  0  0  0  0  0  0  0  0  0  0  0  0
  129.3630  129.0800   57.5160 C   0  0  0  0  0  0  0  0  0  0  0  0
  128.5670  130.2280   57.4750 C   0  0  0  0  0  0  0  0  0  0  0  0
  130.1540  132.1170   56.4410 C   0  0  0  0  0  0  0  0  0  0  0  0
  131.4640  131.6210   57.0600 C   0  0  0  0  0  0  0  0  0  0  0  0
  132.3950  131.1530   56.4040 O   0  0  0  0  0  0  0  0  0  0  0  0
  126.5046  134.0380   61.8481 H   0  0  0  0  0  0  0  0  0  0  0  0
  126.9225  134.9005   60.3288 H   0  0  0  0  0  0  0  0  0  0  0  0
  126.7524  133.1122   60.3288 H   0  0  0  0  0  0  0  0  0  0  0  0
  129.1604  134.2903   60.4275 H   0  0  0  0  0  0  0  0  0  0  0  0
  128.7527  134.3515   62.2022 H   0  0  0  0  0  0  0  0  0  0  0  0
  129.1713  132.1763   62.4832 H   0  0  0  0  0  0  0  0  0  0  0  0
  128.2200  131.7399   60.9946 H   0  0  0  0  0  0  0  0  0  0  0  0
  131.3430  131.0080   63.1330 H   0  0  0  0  0  0  0  0  0  0  0  0
  133.5949  131.2807   61.2067 H   0  0  0  0  0  0  0  0  0  0  0  0
  133.5854  131.1786   58.7255 H   0  0  0  0  0  0  0  0  0  0  0  0
  127.5283  133.3638   57.1753 H   0  0  0  0  0  0  0  0  0  0  0  0
  127.5527  132.3539   55.7261 H   0  0  0  0  0  0  0  0  0  0  0  0
  126.1978  131.8520   58.4132 H   0  0  0  0  0  0  0  0  0  0  0  0
  125.5985  131.4273   56.8230 H   0  0  0  0  0  0  0  0  0  0  0  0
  125.5188  128.7879   58.0129 H   0  0  0  0  0  0  0  0  0  0  0  0
  130.4461  129.1617   57.3423 H   0  0  0  0  0  0  0  0  0  0  0  0
  130.0458  131.6835   55.4358 H   0  0  0  0  0  0  0  0  0  0  0  0
  130.1881  133.2153   56.3893 H   0  0  0  0  0  0  0  0  0  0  0  0
  1  2  1  0
  2  3  1  0
  3  4  1  0
  4  5  2  0
  5  6  1  0
  5  7  1  0
  7  8  2  0
  8  9  1  0
  9 10  2  0
 10 11  1  0
 12 11  1  1
 12 13  1  0
 13 14  1  0
 14 15  1  0
 15 16  2  0
 16 17  1  0
 17 18  1  0
 17 19  2  0
 19 20  1  0
 20 21  2  0
 20 22  2  0
 20 23  1  0
 19 24  1  0
 24 25  2  0
 12 26  1  0
 26 27  1  0
 27 28  2  0
 10  4  1  0
 25 12  1  0
 27  9  1  0
 25 15  1  0
  1 29  1  0
  1 30  1  0
  1 31  1  0
  2 32  1  0
  2 33  1  0
  3 34  1  0
  3 35  1  0
  6 36  1  0
  7 37  1  0
  8 38  1  0
 13 39  1  0
 13 40  1  0
 14 41  1  0
 14 42  1  0
 16 43  1  0
 24 44  1  0
 26 45  1  0
 26 46  1  0
M  END
>  <Binding energies>  (1) 
[-7.78]

>  <Ligand effiencies>  (1) 
[-0.26827586206896553]

>  <Interactions>  (1) 
["V-A:LEU:363:CD1:3189, V-A:PRO:540:N:4884, V-A:TYR:539:CD1:4873, V-A:PRO:540:CB:4885, V-A:PRO:540:CA:4883, V-A:TYR:539:CZ:4877, H-A:ALA:541:N:4891, H-B:TYR:539:OH:9850, V-A:PRO:540:C:4881, V-A:ALA:541:CB:4892, V-A:MET:535:CE:4835, H-A:TYR:531:OH:4795, V-A:TYR:539:C:4867, V-A:ASP:366:CB:3212, V-A:TYR:539:CE1:4875, H-A:GLU:543:OE1:4909, V-A:TYR:539:CE2:4876, V-A:ASP:366:CG:3213"]

$$$$
ZINC587492848
     RDKit          3D

 48 50  0  0  0  0  0  0  0  0999 V2000
  134.2570  124.3280   61.2250 C   0  0  0  0  0  0  0  0  0  0  0  0
  134.2060  124.1990   62.7520 C   0  0  0  0  0  0  0  0  0  0  0  0
  133.7900  122.7930   63.2200 C   0  0  0  0  0  0  0  0  0  0  0  0
  132.6340  122.2190   62.3950 C   0  0  0  0  0  0  0  0  0  0  0  0
  132.8780  121.3970   61.2830 C   0  0  0  0  0  0  0  0  0  0  0  0
  134.1540  121.0750   60.8990 O   0  0  0  0  0  0  0  0  0  0  0  0
  131.8140  120.8900   60.5380 C   0  0  0  0  0  0  0  0  0  0  0  0
  130.4990  121.1810   60.8980 C   0  0  0  0  0  0  0  0  0  0  0  0
  130.2260  121.9690   62.0230 C   0  0  0  0  0  0  0  0  0  0  0  0
  131.3050  122.5080   62.7480 C   0  0  0  0  0  0  0  0  0  0  0  0
  131.1100  123.3070   63.8610 O   0  0  0  0  0  0  0  0  0  0  0  0
  129.8810  124.0470   63.8940 C   0  0  2  0  0  0  0  0  0  0  0  0
  129.7580  124.8790   65.1710 C   0  0  0  0  0  0  0  0  0  0  0  0
  129.3400  126.2150   65.1320 C   0  0  0  0  0  0  0  0  0  0  0  0
  129.2270  126.9480   66.3110 C   0  0  0  0  0  0  0  0  0  0  0  0
  129.5310  126.3480   67.5340 C   0  0  0  0  0  0  0  0  0  0  0  0
  129.4090  127.1120   68.7670 C   0  0  0  0  0  0  0  0  0  0  0  0
  129.2970  127.7430   69.8070 C   0  0  0  0  0  0  0  0  0  0  0  0
  129.1510  128.5110   71.0580 C   0  0  0  0  0  0  0  0  0  0  0  0
  130.2960  128.3400   72.0780 C   0  0  0  0  0  0  0  0  0  0  0  0
  130.5460  129.5240   72.8120 O   0  0  0  0  0  0  0  0  0  0  0  0
  129.9500  125.0170   67.5790 C   0  0  0  0  0  0  0  0  0  0  0  0
  130.0620  124.2860   66.4000 C   0  0  0  0  0  0  0  0  0  0  0  0
  128.6940  123.0700   63.7240 C   0  0  0  0  0  0  0  0  0  0  0  0
  128.8270  122.3360   62.3850 C   0  0  0  0  0  0  0  0  0  0  0  0
  127.8670  122.0760   61.6600 O   0  0  0  0  0  0  0  0  0  0  0  0
  134.6489  125.3193   60.9537 H   0  0  0  0  0  0  0  0  0  0  0  0
  134.9146  123.5484   60.8129 H   0  0  0  0  0  0  0  0  0  0  0  0
  133.2441  124.2088   60.8129 H   0  0  0  0  0  0  0  0  0  0  0  0
  135.2040  124.4228   63.1568 H   0  0  0  0  0  0  0  0  0  0  0  0
  133.4479  124.9069   63.1183 H   0  0  0  0  0  0  0  0  0  0  0  0
  134.6558  122.1205   63.1299 H   0  0  0  0  0  0  0  0  0  0  0  0
  133.4487  122.8748   64.2625 H   0  0  0  0  0  0  0  0  0  0  0  0
  134.7610  121.0050   61.6400 H   0  0  0  0  0  0  0  0  0  0  0  0
  132.0134  120.2567   59.6610 H   0  0  0  0  0  0  0  0  0  0  0  0
  129.6685  120.7882   60.2930 H   0  0  0  0  0  0  0  0  0  0  0  0
  129.8708  124.7637   63.0596 H   0  0  0  0  0  0  0  0  0  0  0  0
  129.1003  126.6868   64.1677 H   0  0  0  0  0  0  0  0  0  0  0  0
  128.8989  127.9974   66.2783 H   0  0  0  0  0  0  0  0  0  0  0  0
  129.0867  129.5774   70.7958 H   0  0  0  0  0  0  0  0  0  0  0  0
  128.2474  128.1208   71.5491 H   0  0  0  0  0  0  0  0  0  0  0  0
  130.0257  127.5387   72.7815 H   0  0  0  0  0  0  0  0  0  0  0  0
  131.2100  128.0933   71.5179 H   0  0  0  0  0  0  0  0  0  0  0  0
  130.3870  130.2790   72.2400 H   0  0  0  0  0  0  0  0  0  0  0  0
  130.1910  124.5472   68.5440 H   0  0  0  0  0  0  0  0  0  0  0  0
  130.3912  123.2370   66.4353 H   0  0  0  0  0  0  0  0  0  0  0  0
  128.7000  122.3387   64.5457 H   0  0  0  0  0  0  0  0  0  0  0  0
  127.7491  123.6329   63.7424 H   0  0  0  0  0  0  0  0  0  0  0  0
  1  2  1  0
  2  3  1  0
  3  4  1  0
  4  5  2  0
  5  6  1  0
  5  7  1  0
  7  8  2  0
  8  9  1  0
  9 10  2  0
 10 11  1  0
 11 12  1  0
 12 13  1  0
 13 14  2  0
 14 15  1  0
 15 16  2  0
 16 17  1  0
 17 18  3  0
 18 19  1  0
 19 20  1  0
 20 21  1  0
 16 22  1  0
 22 23  2  0
 12 24  1  0
 24 25  1  0
 25 26  2  0
 10  4  1  0
 23 13  1  0
 25  9  1  0
  1 27  1  0
  1 28  1  0
  1 29  1  0
  2 30  1  0
  2 31  1  0
  3 32  1  0
  3 33  1  0
  6 34  1  0
  7 35  1  0
  8 36  1  0
 12 37  1  6
 14 38  1  0
 15 39  1  0
 19 40  1  0
 19 41  1  0
 20 42  1  0
 20 43  1  0
 21 44  1  0
 22 45  1  0
 23 46  1  0
 24 47  1  0
 24 48  1  0
M  END
>  <Binding energies>  (1) 
[-7.42]

>  <Ligand effiencies>  (1) 
[-0.265]

>  <Interactions>  (1) 
["V-A:ILE:369:CG2:3237, V-A:GLY:454:CA:4049, V-B:HIS:456:CD2:9039, V-B:GLU:543:CB:9878, V-B:ALA:541:CB:9864, V-B:TYR:539:CE2:9848, V-A:TYR:484:CE2:4346, V-B:GLU:543:CG:9879, V-A:GLY:544:C:4912, V-A:ASP:366:CG:3213, H-B:ALA:541:N:9863, V-A:GLU:543:CD:4908, V-A:TYR:484:CZ:4347, V-B:GLU:543:CA:9876, V-B:HIS:456:CE1:9041, V-A:GLY:453:C:4042, V-A:HIS:456:CE1:4070, V-A:ILE:369:CD1:3239, V-B:TYR:539:CD2:9846, H-A:SER:385:OG:3410, V-B:GLU:543:CD:9880, H-A:LYS:547:NZ:4951, V-A:LEU:475:CD2:4259, V-A:GLY:453:CA:4044, H-A:SER:385:O:3406, H-A:GLY:544:O:4913, H-A:TYR:484:OH:4348, H-A:GLU:543:O:4903"]

$$$$
ZINC587506647
     RDKit          3D

 54 59  0  0  0  0  0  0  0  0999 V2000
  127.2200  126.4950   57.6260 O   0  0  0  0  0  0  0  0  0  0  0  0
  128.3540  126.9570   57.5010 C   0  0  0  0  0  0  0  0  0  0  0  0
  129.6220  126.1090   57.5150 C   0  0  0  0  0  0  0  0  0  0  0  0
  130.7280  126.8140   58.3450 C   0  0  2  0  0  0  0  0  0  0  0  0
  130.9930  128.1520   57.8940 O   0  0  0  0  0  0  0  0  0  0  0  0
  129.9080  128.9360   57.5180 C   0  0  0  0  0  0  0  0  0  0  0  0
  128.6190  128.4090   57.3060 C   0  0  0  0  0  0  0  0  0  0  0  0
  127.5710  129.2960   57.0550 C   0  0  0  0  0  0  0  0  0  0  0  0
  127.8170  130.6580   56.9300 C   0  0  0  0  0  0  0  0  0  0  0  0
  129.1030  131.1830   57.0780 C   0  0  0  0  0  0  0  0  0  0  0  0
  130.1690  130.3120   57.3990 C   0  0  0  0  0  0  0  0  0  0  0  0
  131.5720  130.8670   57.6970 C   0  0  0  0  0  0  0  0  0  0  0  0
  131.7960  132.2950   57.1700 C   0  0  0  0  0  0  0  0  0  0  0  0
  130.6100  133.1970   57.5270 C   0  0  0  0  0  0  0  0  0  0  0  0
  129.3320  132.6800   56.8490 C   0  0  0  0  0  0  0  0  0  0  0  0
  132.0440  126.0380   58.1750 C   0  0  0  0  0  0  0  0  0  0  0  0
  132.6170  125.8270   57.1040 O   0  0  0  0  0  0  0  0  0  0  0  0
  132.4330  125.6560   59.4180 N   0  0  0  0  0  0  0  0  0  0  0  0
  133.6800  124.9130   59.6370 C   0  0  0  0  0  0  0  0  0  0  0  0
  133.5640  123.5590   60.3510 C   0  0  0  0  0  0  0  0  0  0  0  0
  132.8850  122.4760   59.7720 C   0  0  0  0  0  0  0  0  0  0  0  0
  132.7900  121.2550   60.4390 C   0  0  0  0  0  0  0  0  0  0  0  0
  133.3740  121.1010   61.6950 C   0  0  0  0  0  0  0  0  0  0  0  0
  134.0480  122.1680   62.2830 C   0  0  0  0  0  0  0  0  0  0  0  0
  134.1440  123.3930   61.6200 C   0  0  0  0  0  0  0  0  0  0  0  0
  134.9910  124.6870   62.4010 Cl  0  0  0  0  0  0  0  0  0  0  0  0
  131.5650  126.1120   60.4120 C   0  0  0  0  0  0  0  0  0  0  0  0
  131.6450  125.9450   61.7970 C   0  0  0  0  0  0  0  0  0  0  0  0
  130.6590  126.5130   62.6080 C   0  0  0  0  0  0  0  0  0  0  0  0
  129.6110  127.2370   62.0360 C   0  0  0  0  0  0  0  0  0  0  0  0
  129.5410  127.3980   60.6500 C   0  0  0  0  0  0  0  0  0  0  0  0
  130.5260  126.8230   59.8380 C   0  0  0  0  0  0  0  0  0  0  0  0
  129.3994  125.1296   57.9637 H   0  0  0  0  0  0  0  0  0  0  0  0
  129.9771  125.9765   56.4824 H   0  0  0  0  0  0  0  0  0  0  0  0
  126.5440  128.9146   56.9555 H   0  0  0  0  0  0  0  0  0  0  0  0
  126.9806  131.3377   56.7097 H   0  0  0  0  0  0  0  0  0  0  0  0
  131.7194  130.8718   58.7871 H   0  0  0  0  0  0  0  0  0  0  0  0
  132.2922  130.2163   57.1794 H   0  0  0  0  0  0  0  0  0  0  0  0
  132.7111  132.7067   57.6207 H   0  0  0  0  0  0  0  0  0  0  0  0
  131.8935  132.2563   56.0750 H   0  0  0  0  0  0  0  0  0  0  0  0
  130.4686  133.1976   58.6179 H   0  0  0  0  0  0  0  0  0  0  0  0
  130.8160  134.2190   57.1762 H   0  0  0  0  0  0  0  0  0  0  0  0
  128.4713  133.2331   57.2531 H   0  0  0  0  0  0  0  0  0  0  0  0
  129.4451  132.8360   55.7660 H   0  0  0  0  0  0  0  0  0  0  0  0
  134.1364  124.7319   58.6527 H   0  0  0  0  0  0  0  0  0  0  0  0
  134.2756  125.5442   60.3129 H   0  0  0  0  0  0  0  0  0  0  0  0
  132.4224  122.5915   58.7807 H   0  0  0  0  0  0  0  0  0  0  0  0
  132.2545  120.4141   59.9741 H   0  0  0  0  0  0  0  0  0  0  0  0
  133.3025  120.1376   62.2211 H   0  0  0  0  0  0  0  0  0  0  0  0
  134.5072  122.0453   63.2750 H   0  0  0  0  0  0  0  0  0  0  0  0
  132.4729  125.3742   62.2428 H   0  0  0  0  0  0  0  0  0  0  0  0
  130.7085  126.3894   63.6999 H   0  0  0  0  0  0  0  0  0  0  0  0
  128.8376  127.6823   62.6791 H   0  0  0  0  0  0  0  0  0  0  0  0
  128.7179  127.9724   60.1999 H   0  0  0  0  0  0  0  0  0  0  0  0
  1  2  2  0
  2  3  1  0
  3  4  1  0
  4  5  1  6
  5  6  1  0
  6  7  2  0
  7  8  1  0
  8  9  2  0
  9 10  1  0
 10 11  2  0
 11 12  1  0
 12 13  1  0
 13 14  1  0
 14 15  1  0
  4 16  1  0
 16 17  2  0
 16 18  1  0
 18 19  1  0
 19 20  1  0
 20 21  2  0
 21 22  1  0
 22 23  2  0
 23 24  1  0
 24 25  2  0
 25 26  1  0
 18 27  1  0
 27 28  2  0
 28 29  1  0
 29 30  2  0
 30 31  1  0
 31 32  2  0
  7  2  1  0
 15 10  1  0
 25 20  1  0
 32 27  1  0
 32  4  1  0
 11  6  1  0
  3 33  1  0
  3 34  1  0
  8 35  1  0
  9 36  1  0
 12 37  1  0
 12 38  1  0
 13 39  1  0
 13 40  1  0
 14 41  1  0
 14 42  1  0
 15 43  1  0
 15 44  1  0
 19 45  1  0
 19 46  1  0
 21 47  1  0
 22 48  1  0
 23 49  1  0
 24 50  1  0
 28 51  1  0
 29 52  1  0
 30 53  1  0
 31 54  1  0
M  END
>  <Binding energies>  (1) 
[-7.86]

>  <Ligand effiencies>  (1) 
[-0.245625]

>  <Interactions>  (1) 
["V-A:ILE:369:CG2:3237, V-A:ASP:366:CA:3210, V-A:GLY:454:CA:4049, H-A:TYR:531:OH:4795, V-B:TYR:539:CE2:9848, V-A:ASP:366:CG:3213, V-A:LEU:363:CD1:3189, H-B:TYR:539:OH:9850, V-A:TYR:539:CA:4869, V-A:GLU:543:CD:4908, V-A:GLY:453:C:4042, V-A:ILE:369:CD1:3239, V-B:TYR:539:CD2:9846, V-A:SER:385:CB:3409, V-A:MET:535:CE:4835, V-A:TYR:539:C:4867, H-B:TYR:531:OH:9767, V-A:ASP:366:CB:3212, V-A:LEU:475:CD2:4259, V-A:ARG:545:CZ:4926, V-A:PRO:540:N:4884, V-A:GLY:453:CA:4044, V-A:PRO:540:CB:4885, V-A:PRO:540:CA:4883, V-A:SER:385:CA:3407, V-A:PRO:540:CD:4887"]

$$$$
ZINC587517411
     RDKit          3D

 58 61  0  0  0  0  0  0  0  0999 V2000
  132.5970  124.1090   63.6690 C   0  0  0  0  0  0  0  0  0  0  0  0
  131.1400  123.6060   63.5860 C   0  0  2  0  0  0  0  0  0  0  0  0
  130.9600  122.6510   62.3860 C   0  0  0  0  0  0  0  0  0  0  0  0
  129.5550  122.4040   61.8960 N   0  0  0  0  0  0  0  0  0  0  0  0
  129.4170  121.5460   60.8120 C   0  0  0  0  0  0  0  0  0  0  0  0
  130.2180  120.6550   60.5080 O   0  0  0  0  0  0  0  0  0  0  0  0
  128.2350  121.8210   60.0890 O   0  0  0  0  0  0  0  0  0  0  0  0
  128.1460  122.9230   59.1630 C   0  0  0  0  0  0  0  0  0  0  0  0
  129.3540  123.8850   59.2880 C   0  0  0  0  0  0  0  0  0  0  0  0
  127.9440  122.4430   57.7030 C   0  0  0  0  0  0  0  0  0  0  0  0
  126.8740  123.6690   59.6180 C   0  0  0  0  0  0  0  0  0  0  0  0
  128.4550  123.0130   62.4880 C   0  0  0  0  0  0  0  0  0  0  0  0
  127.2780  122.8420   62.1530 O   0  0  0  0  0  0  0  0  0  0  0  0
  128.7250  123.9490   63.6860 C   0  0  0  0  0  0  0  0  0  0  0  0
  130.0720  124.7080   63.6030 C   0  0  2  0  0  0  0  0  0  0  0  0
  130.2330  125.7390   62.4440 C   0  0  0  0  0  0  0  0  0  0  0  0
  129.1400  126.8040   62.5440 C   0  0  0  0  0  0  0  0  0  0  0  0
  128.4790  127.2080   61.5890 O   0  0  0  0  0  0  0  0  0  0  0  0
  128.9420  127.2900   63.9400 C   0  0  0  0  0  0  0  0  0  0  0  0
  128.1000  128.3680   64.2190 C   0  0  0  0  0  0  0  0  0  0  0  0
  127.8870  128.7690   65.5330 C   0  0  0  0  0  0  0  0  0  0  0  0
  128.4820  128.1020   66.6070 C   0  0  0  0  0  0  0  0  0  0  0  0
  129.2890  126.9680   66.3520 C   0  0  0  0  0  0  0  0  0  0  0  0
  129.4980  126.5760   65.0200 C   0  0  0  0  0  0  0  0  0  0  0  0
  130.2820  125.4440   64.8260 O   0  0  0  0  0  0  0  0  0  0  0  0
  129.8620  126.1360   67.5090 C   0  0  0  0  0  0  0  0  0  0  0  0
  129.8950  126.8890   68.8500 C   0  0  0  0  0  0  0  0  0  0  0  0
  128.5540  127.5840   69.1110 C   0  0  0  0  0  0  0  0  0  0  0  0
  128.2840  128.6390   68.0280 C   0  0  0  0  0  0  0  0  0  0  0  0
  132.8904  124.2103   64.7243 H   0  0  0  0  0  0  0  0  0  0  0  0
  133.2625  123.3886   63.1709 H   0  0  0  0  0  0  0  0  0  0  0  0
  132.6764  125.0866   63.1709 H   0  0  0  0  0  0  0  0  0  0  0  0
  130.9679  123.0489   64.5187 H   0  0  0  0  0  0  0  0  0  0  0  0
  131.5337  123.0674   61.5449 H   0  0  0  0  0  0  0  0  0  0  0  0
  131.3044  121.6728   62.7528 H   0  0  0  0  0  0  0  0  0  0  0  0
  129.5744  124.0605   60.3513 H   0  0  0  0  0  0  0  0  0  0  0  0
  130.2321  123.4362   58.8007 H   0  0  0  0  0  0  0  0  0  0  0  0
  129.1131  124.8413   58.8007 H   0  0  0  0  0  0  0  0  0  0  0  0
  127.5173  121.4291   57.7061 H   0  0  0  0  0  0  0  0  0  0  0  0
  127.2578  123.1280   57.1834 H   0  0  0  0  0  0  0  0  0  0  0  0
  128.9135  122.4312   57.1834 H   0  0  0  0  0  0  0  0  0  0  0  0
  126.8355  123.6916   60.7171 H   0  0  0  0  0  0  0  0  0  0  0  0
  126.8943  124.6983   59.2306 H   0  0  0  0  0  0  0  0  0  0  0  0
  125.9855  123.1489   59.2306 H   0  0  0  0  0  0  0  0  0  0  0  0
  127.9134  124.6898   63.7356 H   0  0  0  0  0  0  0  0  0  0  0  0
  128.7738  123.3124   64.5817 H   0  0  0  0  0  0  0  0  0  0  0  0
  131.2196  126.2199   62.5172 H   0  0  0  0  0  0  0  0  0  0  0  0
  130.1459  125.2180   61.4791 H   0  0  0  0  0  0  0  0  0  0  0  0
  127.6031  128.9023   63.3958 H   0  0  0  0  0  0  0  0  0  0  0  0
  127.2345  129.6319   65.7319 H   0  0  0  0  0  0  0  0  0  0  0  0
  129.2419  125.2356   67.6306 H   0  0  0  0  0  0  0  0  0  0  0  0
  130.9030  125.8941   67.2485 H   0  0  0  0  0  0  0  0  0  0  0  0
  130.0956  126.1739   69.6614 H   0  0  0  0  0  0  0  0  0  0  0  0
  130.6876  127.6507   68.8098 H   0  0  0  0  0  0  0  0  0  0  0  0
  127.7481  126.8354   69.0980 H   0  0  0  0  0  0  0  0  0  0  0  0
  128.5911  128.0787   70.0928 H   0  0  0  0  0  0  0  0  0  0  0  0
  127.2457  128.9878   68.1295 H   0  0  0  0  0  0  0  0  0  0  0  0
  129.0073  129.4546   68.1754 H   0  0  0  0  0  0  0  0  0  0  0  0
  1  2  1  0
  2  3  1  0
  3  4  1  0
  4  5  1  0
  5  6  2  0
  5  7  1  0
  7  8  1  0
  8  9  1  0
  8 10  1  0
  8 11  1  0
  4 12  1  0
 12 13  2  0
 12 14  1  0
 14 15  1  0
 15 16  1  0
 16 17  1  0
 17 18  2  0
 17 19  1  0
 19 20  2  0
 20 21  1  0
 21 22  2  0
 22 23  1  0
 23 24  2  0
 24 25  1  0
 23 26  1  0
 26 27  1  0
 27 28  1  0
 28 29  1  0
 15  2  1  0
 24 19  1  0
 15 25  1  1
 29 22  1  0
  1 30  1  0
  1 31  1  0
  1 32  1  0
  2 33  1  1
  3 34  1  0
  3 35  1  0
  9 36  1  0
  9 37  1  0
  9 38  1  0
 10 39  1  0
 10 40  1  0
 10 41  1  0
 11 42  1  0
 11 43  1  0
 11 44  1  0
 14 45  1  0
 14 46  1  0
 16 47  1  0
 16 48  1  0
 20 49  1  0
 21 50  1  0
 26 51  1  0
 26 52  1  0
 27 53  1  0
 27 54  1  0
 28 55  1  0
 28 56  1  0
 29 57  1  0
 29 58  1  0
M  END
>  <Binding energies>  (1) 
[-7.09]

>  <Ligand effiencies>  (1) 
[-0.24448275862068966]

>  <Interactions>  (1) 
["V-B:TYR:539:CA:9841, V-B:PRO:540:CA:9855, V-B:GLU:543:CB:9878, V-B:ALA:541:CB:9864, V-B:TYR:539:CE2:9848, V-B:GLU:543:CG:9879, V-B:TYR:539:C:9839, V-B:TYR:539:CZ:9849, H-B:ALA:541:N:9863, V-A:GLU:543:CD:4908, V-B:PRO:540:CB:9857, V-B:HIS:456:CE1:9041, V-B:PRO:540:N:9856, V-A:HIS:456:CE1:4070, V-B:TYR:539:CD2:9846, V-A:GLU:543:CG:4907, V-B:GLU:543:CD:9880, V-A:LEU:475:CD2:4259, V-B:TYR:539:CG:9844, V-A:GLU:543:CB:4906, V-B:TYR:539:CD1:9845, V-B:TYR:539:CE1:9847"]

$$$$
ZINC587531297
     RDKit          3D

 79 85  0  0  0  0  0  0  0  0999 V2000
  130.8670  129.4130   60.2890 C   0  0  0  0  0  0  0  0  0  0  0  0
  130.8280  129.2870   58.7390 C   0  0  2  0  0  0  0  0  0  0  0  0
  132.2900  129.5110   58.2100 C   0  0  0  0  0  0  0  0  0  0  0  0
  132.7870  130.9640   58.0980 C   0  0  0  0  0  0  0  0  0  0  0  0
  131.8080  131.8140   57.2960 C   0  0  0  0  0  0  0  0  0  0  0  0
  132.1760  132.7330   56.5660 O   0  0  0  0  0  0  0  0  0  0  0  0
  130.4100  131.5590   57.5740 C   0  0  0  0  0  0  0  0  0  0  0  0
  129.9370  130.4660   58.2170 C   0  0  0  0  0  0  0  0  0  0  0  0
  128.4470  130.3540   58.5230 C   0  0  0  0  0  0  0  0  0  0  0  0
  127.9310  129.0510   57.9250 C   0  0  0  0  0  0  0  0  0  0  0  0
  128.6470  127.8380   58.5490 C   0  0  2  0  0  0  0  0  0  0  0  0
  130.1970  127.8910   58.2280 C   0  0  2  0  0  0  0  0  0  0  0  0
  130.9670  126.5210   58.5820 C   0  0  1  0  0  0  0  0  0  0  0  0
  132.3660  126.4090   57.8920 C   0  0  0  0  0  0  0  0  0  0  0  0
  133.0670  125.1050   58.2700 C   0  0  0  0  0  0  0  0  0  0  0  0
  133.6190  124.3500   57.4710 O   0  0  0  0  0  0  0  0  0  0  0  0
  132.9850  124.8410   59.7340 C   0  0  0  0  0  0  0  0  0  0  0  0
  133.7180  123.8080   60.3160 C   0  0  0  0  0  0  0  0  0  0  0  0
  133.6220  123.5630   61.6810 C   0  0  0  0  0  0  0  0  0  0  0  0
  132.7830  124.3220   62.5000 C   0  0  0  0  0  0  0  0  0  0  0  0
  131.9680  125.3210   61.9170 C   0  0  0  0  0  0  0  0  0  0  0  0
  132.0670  125.5530   60.5310 C   0  0  0  0  0  0  0  0  0  0  0  0
  131.2220  126.5290   60.0040 O   0  0  0  0  0  0  0  0  0  0  0  0
  130.9620  126.0980   62.7790 C   0  0  0  0  0  0  0  0  0  0  0  0
  131.3300  126.1140   64.2690 C   0  0  0  0  0  0  0  0  0  0  0  0
  131.6080  124.6860   64.7540 C   0  0  0  0  0  0  0  0  0  0  0  0
  132.8190  124.0940   64.0150 C   0  0  0  0  0  0  0  0  0  0  0  0
  130.0870  125.2730   58.1730 C   0  0  0  0  0  0  0  0  0  0  0  0
  128.6150  125.2710   58.6520 C   0  0  1  0  0  0  0  0  0  0  0  0
  128.5320  125.2420   60.2160 C   0  0  0  0  0  0  0  0  0  0  0  0
  127.9910  126.5330   58.0300 C   0  0  1  0  0  0  0  0  0  0  0  0
  126.4710  126.3300   58.1640 C   0  0  0  0  0  0  0  0  0  0  0  0
  126.2640  124.8000   58.1440 C   0  0  0  0  0  0  0  0  0  0  0  0
  127.6840  124.1760   57.9980 C   0  0  1  0  0  0  0  0  0  0  0  0
  127.9500  123.9500   56.6160 O   0  0  0  0  0  0  0  0  0  0  0  0
  127.8060  122.7780   58.6880 C   0  0  0  0  0  0  0  0  0  0  0  0
  127.9830  121.7560   58.0180 O   0  0  0  0  0  0  0  0  0  0  0  0
  127.6920  122.7090   60.2290 C   0  0  0  0  0  0  0  0  0  0  0  0
  128.3540  121.5620   60.7350 O   0  0  0  0  0  0  0  0  0  0  0  0
  130.5706  128.4555   60.7423 H   0  0  0  0  0  0  0  0  0  0  0  0
  131.8870  129.6707   60.6104 H   0  0  0  0  0  0  0  0  0  0  0  0
  130.1710  130.2018   60.6104 H   0  0  0  0  0  0  0  0  0  0  0  0
  132.9722  128.9802   58.8903 H   0  0  0  0  0  0  0  0  0  0  0  0
  132.2756  129.1376   57.1754 H   0  0  0  0  0  0  0  0  0  0  0  0
  132.8891  131.3885   59.1077 H   0  0  0  0  0  0  0  0  0  0  0  0
  133.7579  130.9643   57.5809 H   0  0  0  0  0  0  0  0  0  0  0  0
  129.6786  132.3087   57.2379 H   0  0  0  0  0  0  0  0  0  0  0  0
  128.2903  130.3510   59.6118 H   0  0  0  0  0  0  0  0  0  0  0  0
  127.9066  131.2090   58.0906 H   0  0  0  0  0  0  0  0  0  0  0  0
  126.8509  128.9695   58.1169 H   0  0  0  0  0  0  0  0  0  0  0  0
  128.1297  129.0580   56.8431 H   0  0  0  0  0  0  0  0  0  0  0  0
  128.5417  127.8625   59.6437 H   0  0  0  0  0  0  0  0  0  0  0  0
  130.3589  127.9197   57.1404 H   0  0  0  0  0  0  0  0  0  0  0  0
  132.2312  126.4404   56.8007 H   0  0  0  0  0  0  0  0  0  0  0  0
  132.9892  127.2498   58.2307 H   0  0  0  0  0  0  0  0  0  0  0  0
  134.3752  123.1840   59.6925 H   0  0  0  0  0  0  0  0  0  0  0  0
  134.2198  122.7538   62.1258 H   0  0  0  0  0  0  0  0  0  0  0  0
  130.9202  127.1362   62.4178 H   0  0  0  0  0  0  0  0  0  0  0  0
  129.9908  125.5898   62.6870 H   0  0  0  0  0  0  0  0  0  0  0  0
  132.2291  126.7305   64.4159 H   0  0  0  0  0  0  0  0  0  0  0  0
  130.4921  126.5349   64.8442 H   0  0  0  0  0  0  0  0  0  0  0  0
  131.8162  124.7043   65.8340 H   0  0  0  0  0  0  0  0  0  0  0  0
  130.7256  124.0620   64.5491 H   0  0  0  0  0  0  0  0  0  0  0  0
  133.7322  124.5587   64.4153 H   0  0  0  0  0  0  0  0  0  0  0  0
  132.7975  123.0065   64.1787 H   0  0  0  0  0  0  0  0  0  0  0  0
  130.0797  125.2164   57.0745 H   0  0  0  0  0  0  0  0  0  0  0  0
  130.5547  124.4134   58.6753 H   0  0  0  0  0  0  0  0  0  0  0  0
  129.4901  125.5768   60.6403 H   0  0  0  0  0  0  0  0  0  0  0  0
  127.7276  125.9123   60.5530 H   0  0  0  0  0  0  0  0  0  0  0  0
  128.3201  124.2166   60.5530 H   0  0  0  0  0  0  0  0  0  0  0  0
  128.1969  126.6755   56.9589 H   0  0  0  0  0  0  0  0  0  0  0  0
  126.1068  126.7563   59.1104 H   0  0  0  0  0  0  0  0  0  0  0  0
  125.9164  126.8307   57.3566 H   0  0  0  0  0  0  0  0  0  0  0  0
  125.7942  124.4657   59.0807 H   0  0  0  0  0  0  0  0  0  0  0  0
  125.6029  124.4938   57.3199 H   0  0  0  0  0  0  0  0  0  0  0  0
  128.0730  123.0080   56.4810 H   0  0  0  0  0  0  0  0  0  0  0  0
  128.1489  123.6099   60.6645 H   0  0  0  0  0  0  0  0  0  0  0  0
  126.6276  122.6483   60.5000 H   0  0  0  0  0  0  0  0  0  0  0  0
  128.5040  120.9520   60.0090 H   0  0  0  0  0  0  0  0  0  0  0  0
  2  1  1  1
  2  3  1  0
  3  4  1  0
  4  5  1  0
  5  6  2  0
  5  7  1  0
  7  8  2  0
  8  9  1  0
  9 10  1  0
 10 11  1  0
 11 12  1  0
 12 13  1  0
 13 14  1  0
 14 15  1  0
 15 16  2  0
 15 17  1  0
 17 18  2  0
 18 19  1  0
 19 20  2  0
 20 21  1  0
 21 22  2  0
 22 23  1  0
 21 24  1  0
 24 25  1  0
 25 26  1  0
 26 27  1  0
 13 28  1  0
 28 29  1  0
 29 30  1  1
 29 31  1  0
 31 32  1  0
 32 33  1  0
 33 34  1  0
 34 35  1  6
 34 36  1  0
 36 37  2  0
 36 38  1  0
 38 39  1  0
  8  2  1  0
 31 11  1  0
 12  2  1  0
 13 23  1  1
 34 29  1  0
 22 17  1  0
 27 20  1  0
  1 40  1  0
  1 41  1  0
  1 42  1  0
  3 43  1  0
  3 44  1  0
  4 45  1  0
  4 46  1  0
  7 47  1  0
  9 48  1  0
  9 49  1  0
 10 50  1  0
 10 51  1  0
 11 52  1  1
 12 53  1  6
 14 54  1  0
 14 55  1  0
 18 56  1  0
 19 57  1  0
 24 58  1  0
 24 59  1  0
 25 60  1  0
 25 61  1  0
 26 62  1  0
 26 63  1  0
 27 64  1  0
 27 65  1  0
 28 66  1  0
 28 67  1  0
 30 68  1  0
 30 69  1  0
 30 70  1  0
 31 71  1  6
 32 72  1  0
 32 73  1  0
 33 74  1  0
 33 75  1  0
 35 76  1  0
 38 77  1  0
 38 78  1  0
 39 79  1  0
M  END
>  <Binding energies>  (1) 
[-10.46]

>  <Ligand effiencies>  (1) 
[-0.2551219512195122]

>  <Interactions>  (1) 
["V-A:ILE:369:CG2:3237, V-A:ASP:366:CA:3210, V-B:PRO:540:CA:9855, V-A:GLY:454:CA:4049, V-B:TYR:539:CE2:9848, H-B:TYR:539:N:9842, V-B:TYR:539:C:9839, V-A:ASP:366:CG:3213, V-A:LEU:363:CD1:3189, V-B:TYR:539:CZ:9849, H-A:ASN:370:N:3244, V-A:TYR:531:CE2:4793, H-B:TYR:539:OH:9850, H-B:ALA:541:N:9863, V-A:GLU:543:CD:4908, V-B:PRO:540:CB:9857, V-B:PRO:540:N:9856, V-A:ILE:369:CD1:3239, V-A:ASP:366:C:3208, V-B:TYR:539:CD2:9846, V-A:TYR:531:CZ:4794, V-A:ASP:366:CB:3212, V-A:ARG:545:CZ:4926, H-B:TYR:539:O:9840, V-B:PRO:540:C:9853"]

$$$$
ZINC587533859
     RDKit          3D

 51 54  0  0  0  0  0  0  0  0999 V2000
  125.8920  125.4640   57.8460 C   0  0  0  0  0  0  0  0  0  0  0  0
  127.2310  125.9430   58.4540 C   0  0  0  0  0  0  0  0  0  0  0  0
  128.3330  125.8640   57.3690 C   0  0  0  0  0  0  0  0  0  0  0  0
  127.6240  125.2160   59.7900 C   0  0  1  0  0  0  0  0  0  0  0  0
  127.5970  126.2400   60.9570 C   0  0  0  0  0  0  0  0  0  0  0  0
  128.6740  126.3470   61.8490 C   0  0  0  0  0  0  0  0  0  0  0  0
  128.6480  127.2790   62.8820 C   0  0  0  0  0  0  0  0  0  0  0  0
  127.5440  128.1200   63.0280 C   0  0  0  0  0  0  0  0  0  0  0  0
  127.5120  129.3220   64.3510 S   0  0  0  0  0  0  0  0  0  0  0  0
  127.9900  128.7030   65.5930 O   0  0  0  0  0  0  0  0  0  0  0  0
  128.0220  130.6080   63.8610 O   0  0  0  0  0  0  0  0  0  0  0  0
  125.4060  129.5970   64.6150 Cl  0  0  0  0  0  0  0  0  0  0  0  0
  126.4710  128.0330   62.1420 C   0  0  0  0  0  0  0  0  0  0  0  0
  126.5010  127.1000   61.1090 C   0  0  0  0  0  0  0  0  0  0  0  0
  126.6890  123.9900   60.0540 C   0  0  0  0  0  0  0  0  0  0  0  0
  127.1340  123.2360   61.3090 C   0  0  0  0  0  0  0  0  0  0  0  0
  126.3670  122.8480   62.1910 O   0  0  0  0  0  0  0  0  0  0  0  0
  128.6070  123.0350   61.3640 C   0  0  0  0  0  0  0  0  0  0  0  0
  129.1920  122.2310   62.3430 C   0  0  0  0  0  0  0  0  0  0  0  0
  130.5740  122.0980   62.4070 C   0  0  0  0  0  0  0  0  0  0  0  0
  131.4150  122.7720   61.5180 C   0  0  0  0  0  0  0  0  0  0  0  0
  130.8460  123.6440   60.5580 C   0  0  0  0  0  0  0  0  0  0  0  0
  129.4470  123.7690   60.5070 C   0  0  0  0  0  0  0  0  0  0  0  0
  128.9480  124.6700   59.5730 O   0  0  0  0  0  0  0  0  0  0  0  0
  131.7390  124.4920   59.6410 C   0  0  0  0  0  0  0  0  0  0  0  0
  133.1760  123.9580   59.5230 C   0  0  0  0  0  0  0  0  0  0  0  0
  133.7450  123.6330   60.9090 C   0  0  0  0  0  0  0  0  0  0  0  0
  132.9230  122.5190   61.5720 C   0  0  0  0  0  0  0  0  0  0  0  0
  125.1907  125.2131   58.6555 H   0  0  0  0  0  0  0  0  0  0  0  0
  125.4640  126.2648   57.2251 H   0  0  0  0  0  0  0  0  0  0  0  0
  126.0690  124.5734   57.2251 H   0  0  0  0  0  0  0  0  0  0  0  0
  127.1087  126.9914   58.7638 H   0  0  0  0  0  0  0  0  0  0  0  0
  129.3187  125.7933   57.8520 H   0  0  0  0  0  0  0  0  0  0  0  0
  128.1673  124.9754   56.7421 H   0  0  0  0  0  0  0  0  0  0  0  0
  128.2958  126.7671   56.7421 H   0  0  0  0  0  0  0  0  0  0  0  0
  129.5470  125.6883   61.7310 H   0  0  0  0  0  0  0  0  0  0  0  0
  129.4944  127.3525   63.5808 H   0  0  0  0  0  0  0  0  0  0  0  0
  125.6036  128.6993   62.2587 H   0  0  0  0  0  0  0  0  0  0  0  0
  125.6572  127.0374   60.4061 H   0  0  0  0  0  0  0  0  0  0  0  0
  125.6571  124.3450   60.1920 H   0  0  0  0  0  0  0  0  0  0  0  0
  126.7440  123.3089   59.1920 H   0  0  0  0  0  0  0  0  0  0  0  0
  128.5566  121.7002   63.0672 H   0  0  0  0  0  0  0  0  0  0  0  0
  131.0159  121.4469   63.1756 H   0  0  0  0  0  0  0  0  0  0  0  0
  131.2902  124.5098   58.6369 H   0  0  0  0  0  0  0  0  0  0  0  0
  131.8015  125.4957   60.0868 H   0  0  0  0  0  0  0  0  0  0  0  0
  133.1733  123.0448   58.9098 H   0  0  0  0  0  0  0  0  0  0  0  0
  133.8040  124.7292   59.0531 H   0  0  0  0  0  0  0  0  0  0  0  0
  134.7886  123.3014   60.8046 H   0  0  0  0  0  0  0  0  0  0  0  0
  133.6984  124.5352   61.5365 H   0  0  0  0  0  0  0  0  0  0  0  0
  133.1376  121.5714   61.0562 H   0  0  0  0  0  0  0  0  0  0  0  0
  133.2120  122.4854   62.6328 H   0  0  0  0  0  0  0  0  0  0  0  0
  1  2  1  0
  2  3  1  0
  4  2  1  6
  4  5  1  0
  5  6  2  0
  6  7  1  0
  7  8  2  0
  8  9  1  0
  9 10  2  0
  9 11  2  0
  9 12  1  0
  8 13  1  0
 13 14  2  0
  4 15  1  0
 15 16  1  0
 16 17  2  0
 16 18  1  0
 18 19  2  0
 19 20  1  0
 20 21  2  0
 21 22  1  0
 22 23  2  0
 23 24  1  0
 22 25  1  0
 25 26  1  0
 26 27  1  0
 27 28  1  0
 24  4  1  0
 14  5  1  0
 23 18  1  0
 28 21  1  0
  1 29  1  0
  1 30  1  0
  1 31  1  0
  2 32  1  0
  3 33  1  0
  3 34  1  0
  3 35  1  0
  6 36  1  0
  7 37  1  0
 13 38  1  0
 14 39  1  0
 15 40  1  0
 15 41  1  0
 19 42  1  0
 20 43  1  0
 25 44  1  0
 25 45  1  0
 26 46  1  0
 26 47  1  0
 27 48  1  0
 27 49  1  0
 28 50  1  0
 28 51  1  0
M  END
>  <Binding energies>  (1) 
[-7.37]

>  <Ligand effiencies>  (1) 
[-0.26321428571428573]

>  <Interactions>  (1) 
["V-A:ILE:369:CG2:3237, V-B:PRO:540:CA:9855, V-A:ILE:369:CD1:3239, H-B:ALA:541:N:9863, V-B:PRO:540:C:9853, V-B:ALA:541:CB:9864, V-B:ASP:366:CG:8184, V-B:TYR:539:CE2:9848, V-B:PRO:540:CB:9857, V-B:GLU:543:CD:9880, V-B:ARG:545:CZ:9898, H-B:TYR:484:OH:9319, V-A:LEU:475:CD2:4259"]

$$$$
ZINC587544936
     RDKit          3D

 51 55  0  0  0  0  0  0  0  0999 V2000
  126.9870  122.9040   61.4980 O   0  0  0  0  0  0  0  0  0  0  0  0
  127.6020  123.0880   60.3970 C   0  0  0  0  0  0  0  0  0  0  0  0
  129.0190  123.1920   60.3090 C   0  0  0  0  0  0  0  0  0  0  0  0
  129.7120  124.0440   59.3970 C   0  0  0  0  0  0  0  0  0  0  0  0
  129.0550  124.8100   58.6120 O   0  0  0  0  0  0  0  0  0  0  0  0
  131.1380  124.0980   59.4290 C   0  0  0  0  0  0  0  0  0  0  0  0
  131.8960  125.0930   58.7830 C   0  0  0  0  0  0  0  0  0  0  0  0
  133.2900  125.0950   58.8590 C   0  0  0  0  0  0  0  0  0  0  0  0
  133.9530  124.1010   59.5750 C   0  0  0  0  0  0  0  0  0  0  0  0
  133.2240  123.1010   60.2150 C   0  0  0  0  0  0  0  0  0  0  0  0
  131.8310  123.1050   60.1450 C   0  0  0  0  0  0  0  0  0  0  0  0
  131.1850  122.0570   60.7700 O   0  0  0  0  0  0  0  0  0  0  0  0
  129.8560  122.3130   61.2510 C   0  0  1  0  0  0  0  0  0  0  0  0
  129.8830  122.8340   62.6930 C   0  0  0  0  0  0  0  0  0  0  0  0
  129.7290  121.9610   63.7760 C   0  0  0  0  0  0  0  0  0  0  0  0
  129.7590  122.4430   65.0820 C   0  0  0  0  0  0  0  0  0  0  0  0
  129.9360  123.8060   65.3160 C   0  0  0  0  0  0  0  0  0  0  0  0
  130.0830  124.7010   64.2540 C   0  0  0  0  0  0  0  0  0  0  0  0
  130.2430  126.0330   64.5840 O   0  0  0  0  0  0  0  0  0  0  0  0
  129.0990  126.8050   64.9420 C   0  0  0  0  0  0  0  0  0  0  0  0
  129.1020  127.0310   66.4450 C   0  0  0  0  0  0  0  0  0  0  0  0
  128.7060  128.2620   66.9720 C   0  0  0  0  0  0  0  0  0  0  0  0
  128.7100  128.4620   68.3500 C   0  0  0  0  0  0  0  0  0  0  0  0
  129.1110  127.4290   69.1980 C   0  0  0  0  0  0  0  0  0  0  0  0
  129.1170  127.7030   71.0810 Br  0  0  0  0  0  0  0  0  0  0  0  0
  129.5060  126.1980   68.6760 C   0  0  0  0  0  0  0  0  0  0  0  0
  129.5000  125.9980   67.2980 C   0  0  0  0  0  0  0  0  0  0  0  0
  130.0570  124.2010   62.9400 C   0  0  0  0  0  0  0  0  0  0  0  0
  126.8510  123.2470   59.1470 C   0  0  0  0  0  0  0  0  0  0  0  0
  125.8150  124.1020   58.7760 C   0  0  0  0  0  0  0  0  0  0  0  0
  125.4840  123.7990   57.4560 C   0  0  0  0  0  0  0  0  0  0  0  0
  126.3260  122.7710   57.0720 C   0  0  0  0  0  0  0  0  0  0  0  0
  127.1540  122.4350   58.0950 O   0  0  0  0  0  0  0  0  0  0  0  0
  131.3828  125.8797   58.2105 H   0  0  0  0  0  0  0  0  0  0  0  0
  133.8661  125.8833   58.3523 H   0  0  0  0  0  0  0  0  0  0  0  0
  135.0513  124.1056   59.6351 H   0  0  0  0  0  0  0  0  0  0  0  0
  133.7457  122.3103   60.7741 H   0  0  0  0  0  0  0  0  0  0  0  0
  129.3314  121.3462   61.2611 H   0  0  0  0  0  0  0  0  0  0  0  0
  129.5832  120.8860   63.5941 H   0  0  0  0  0  0  0  0  0  0  0  0
  129.6432  121.7494   65.9279 H   0  0  0  0  0  0  0  0  0  0  0  0
  129.9602  124.1811   66.3498 H   0  0  0  0  0  0  0  0  0  0  0  0
  129.1321  127.7746   64.4236 H   0  0  0  0  0  0  0  0  0  0  0  0
  128.1840  126.2690   64.6497 H   0  0  0  0  0  0  0  0  0  0  0  0
  128.3911  129.0731   66.2990 H   0  0  0  0  0  0  0  0  0  0  0  0
  128.3983  129.4304   68.7684 H   0  0  0  0  0  0  0  0  0  0  0  0
  129.8212  125.3879   69.3501 H   0  0  0  0  0  0  0  0  0  0  0  0
  129.8082  125.0278   66.8812 H   0  0  0  0  0  0  0  0  0  0  0  0
  130.1751  124.8940   62.0939 H   0  0  0  0  0  0  0  0  0  0  0  0
  125.3462  124.8718   59.4065 H   0  0  0  0  0  0  0  0  0  0  0  0
  124.7084  124.2810   56.8427 H   0  0  0  0  0  0  0  0  0  0  0  0
  126.3252  122.2942   56.0807 H   0  0  0  0  0  0  0  0  0  0  0  0
  1  2  2  0
  2  3  1  0
  3  4  2  0
  4  5  1  0
  4  6  1  0
  6  7  2  0
  7  8  1  0
  8  9  2  0
  9 10  1  0
 10 11  2  0
 11 12  1  0
 12 13  1  0
 13 14  1  0
 14 15  2  0
 15 16  1  0
 16 17  2  0
 17 18  1  0
 18 19  1  0
 19 20  1  0
 20 21  1  0
 21 22  2  0
 22 23  1  0
 23 24  2  0
 24 25  1  0
 24 26  1  0
 26 27  2  0
 18 28  2  0
  2 29  1  0
 29 30  2  0
 30 31  1  0
 31 32  2  0
 32 33  1  0
 13  3  1  0
 28 14  1  0
 33 29  1  0
 11  6  1  0
 27 21  1  0
  7 34  1  0
  8 35  1  0
  9 36  1  0
 10 37  1  0
 13 38  1  1
 15 39  1  0
 16 40  1  0
 17 41  1  0
 20 42  1  0
 20 43  1  0
 22 44  1  0
 23 45  1  0
 26 46  1  0
 27 47  1  0
 28 48  1  0
 30 49  1  0
 31 50  1  0
 32 51  1  0
M  CHG  1   5  -1
M  END
>  <Binding energies>  (1) 
[-7.84]

>  <Ligand effiencies>  (1) 
[-0.23757575757575758]

>  <Interactions>  (1) 
["V-A:ILE:369:CG2:3237, V-A:ASP:366:CA:3210, V-B:PRO:540:CA:9855, V-A:ILE:369:CB:3236, V-B:GLU:543:CB:9878, V-B:ALA:541:CB:9864, V-B:TYR:539:CE2:9848, V-A:TYR:484:CE2:4346, V-B:GLU:543:CG:9879, V-A:ASP:366:CG:3213, V-B:TYR:539:CZ:9849, H-B:ALA:541:N:9863, V-A:TYR:484:CZ:4347, V-B:PRO:540:CB:9857, V-A:GLU:543:CD:4908, V-B:HIS:456:CE1:9041, V-B:PRO:540:N:9856, V-A:ILE:369:CD1:3239, V-A:HIS:456:CE1:4070, V-A:ASP:366:C:3208, V-B:TYR:539:CD2:9846, V-B:PRO:540:CD:9859, V-A:GLU:543:CG:4907, V-B:GLU:543:CD:9880, V-A:ASP:366:CB:3212, V-A:LEU:475:CD2:4259, V-A:GLU:543:CB:4906, V-B:LEU:363:CD1:8160"]

$$$$
ZINC587553456
     RDKit          3D

 59 63  0  0  0  0  0  0  0  0999 V2000
  128.7170  128.7140   63.2880 C   0  0  0  0  0  0  0  0  0  0  0  0
  129.0550  127.3280   62.7740 C   0  0  0  0  0  0  0  0  0  0  0  0
  129.0600  126.8400   61.4860 C   0  0  0  0  0  0  0  0  0  0  0  0
  129.4190  125.4870   61.4630 C   0  0  0  0  0  0  0  0  0  0  0  0
  129.5480  124.6250   60.1960 C   0  0  1  0  0  0  0  0  0  0  0  0
  128.9180  125.2850   58.9410 C   0  0  0  0  0  0  0  0  0  0  0  0
  129.8820  125.6150   57.8770 C   0  0  0  0  0  0  0  0  0  0  0  0
  130.6400  125.8750   57.0410 N   0  0  0  0  0  0  0  0  0  0  0  0
  130.9390  124.5800   59.8110 O   0  0  0  0  0  0  0  0  0  0  0  0
  131.7410  123.5930   60.3470 C   0  0  0  0  0  0  0  0  0  0  0  0
  133.1070  123.8740   60.3890 C   0  0  0  0  0  0  0  0  0  0  0  0
  133.9960  122.9240   60.8830 C   0  0  0  0  0  0  0  0  0  0  0  0
  133.5200  121.6910   61.3260 C   0  0  0  0  0  0  0  0  0  0  0  0
  132.1540  121.4100   61.2760 C   0  0  0  0  0  0  0  0  0  0  0  0
  131.2350  122.3580   60.7870 C   0  0  0  0  0  0  0  0  0  0  0  0
  129.8290  122.1350   60.7190 C   0  0  0  0  0  0  0  0  0  0  0  0
  129.3470  120.9840   61.0020 O   0  0  0  0  0  0  0  0  0  0  0  0
  128.9480  123.2210   60.4390 C   0  0  0  0  0  0  0  0  0  0  0  0
  127.5270  123.0880   60.4460 C   0  0  0  0  0  0  0  0  0  0  0  0
  126.8490  122.8870   61.5040 O   0  0  0  0  0  0  0  0  0  0  0  0
  126.8460  123.1860   59.1510 C   0  0  0  0  0  0  0  0  0  0  0  0
  125.7160  123.8900   58.7460 C   0  0  0  0  0  0  0  0  0  0  0  0
  125.5070  123.5880   57.3990 C   0  0  0  0  0  0  0  0  0  0  0  0
  126.5220  122.7220   57.0330 C   0  0  0  0  0  0  0  0  0  0  0  0
  127.3380  122.4830   58.0910 O   0  0  0  0  0  0  0  0  0  0  0  0
  129.6600  125.1600   62.8090 C   0  0  0  0  0  0  0  0  0  0  0  0
  130.1600  123.8590   63.4250 C   0  0  0  0  0  0  0  0  0  0  0  0
  129.4230  126.2810   63.5960 N   0  0  0  0  0  0  0  0  0  0  0  0
  129.5430  126.3600   65.0000 C   0  0  0  0  0  0  0  0  0  0  0  0
  128.7310  127.2450   65.7170 C   0  0  0  0  0  0  0  0  0  0  0  0
  128.8500  127.3180   67.1020 C   0  0  0  0  0  0  0  0  0  0  0  0
  129.7700  126.5060   67.7650 C   0  0  0  0  0  0  0  0  0  0  0  0
  129.8940  126.5880   69.1290 O   0  0  0  0  0  0  0  0  0  0  0  0
  130.2840  127.8710   69.6080 C   0  0  0  0  0  0  0  0  0  0  0  0
  129.9300  128.0310   70.8840 F   0  0  0  0  0  0  0  0  0  0  0  0
  131.6070  127.9870   69.5060 F   0  0  0  0  0  0  0  0  0  0  0  0
  130.5860  125.6310   67.0480 C   0  0  0  0  0  0  0  0  0  0  0  0
  130.4730  125.5540   65.6630 C   0  0  0  0  0  0  0  0  0  0  0  0
  128.7186  128.7076   64.3880 H   0  0  0  0  0  0  0  0  0  0  0  0
  129.4662  129.4327   62.9244 H   0  0  0  0  0  0  0  0  0  0  0  0
  127.7211  129.0071   62.9244 H   0  0  0  0  0  0  0  0  0  0  0  0
  128.8145  127.4345   60.5937 H   0  0  0  0  0  0  0  0  0  0  0  0
  128.1717  124.5916   58.5259 H   0  0  0  0  0  0  0  0  0  0  0  0
  128.4805  126.2377   59.2741 H   0  0  0  0  0  0  0  0  0  0  0  0
  133.4808  124.8451   60.0322 H   0  0  0  0  0  0  0  0  0  0  0  0
  135.0726  123.1458   60.9238 H   0  0  0  0  0  0  0  0  0  0  0  0
  134.2218  120.9388   61.7154 H   0  0  0  0  0  0  0  0  0  0  0  0
  131.7894  120.4323   61.6242 H   0  0  0  0  0  0  0  0  0  0  0  0
  125.1034  124.5580   59.3692 H   0  0  0  0  0  0  0  0  0  0  0  0
  124.6968  123.9637   56.7568 H   0  0  0  0  0  0  0  0  0  0  0  0
  126.6493  122.2896   56.0296 H   0  0  0  0  0  0  0  0  0  0  0  0
  130.1299  123.9373   64.5218 H   0  0  0  0  0  0  0  0  0  0  0  0
  129.5171  123.0281   63.0989 H   0  0  0  0  0  0  0  0  0  0  0  0
  131.1939  123.6725   63.0989 H   0  0  0  0  0  0  0  0  0  0  0  0
  128.0031  127.8792   65.1898 H   0  0  0  0  0  0  0  0  0  0  0  0
  128.2192  128.0153   67.6729 H   0  0  0  0  0  0  0  0  0  0  0  0
  129.7804  128.6408   69.0049 H   0  0  0  0  0  0  0  0  0  0  0  0
  131.3179  125.0026   67.5766 H   0  0  0  0  0  0  0  0  0  0  0  0
  131.1117  124.8630   65.0934 H   0  0  0  0  0  0  0  0  0  0  0  0
  1  2  1  0
  2  3  2  0
  3  4  1  0
  4  5  1  0
  5  6  1  6
  6  7  1  0
  7  8  3  0
  5  9  1  0
  9 10  1  0
 10 11  2  0
 11 12  1  0
 12 13  2  0
 13 14  1  0
 14 15  2  0
 15 16  1  0
 16 17  1  0
 16 18  2  0
 18 19  1  0
 19 20  2  0
 19 21  1  0
 21 22  2  0
 22 23  1  0
 23 24  2  0
 24 25  1  0
  4 26  2  0
 26 27  1  0
 26 28  1  0
 28 29  1  0
 29 30  2  0
 30 31  1  0
 31 32  2  0
 32 33  1  0
 33 34  1  0
 34 35  1  0
 34 36  1  0
 32 37  1  0
 37 38  2  0
 28  2  1  0
 38 29  1  0
 18  5  1  0
 25 21  1  0
 15 10  1  0
  1 39  1  0
  1 40  1  0
  1 41  1  0
  3 42  1  0
  6 43  1  0
  6 44  1  0
 11 45  1  0
 12 46  1  0
 13 47  1  0
 14 48  1  0
 22 49  1  0
 23 50  1  0
 24 51  1  0
 27 52  1  0
 27 53  1  0
 27 54  1  0
 30 55  1  0
 31 56  1  0
 34 57  1  0
 37 58  1  0
 38 59  1  0
M  CHG  1  17  -1
M  END
>  <Binding energies>  (1) 
[-6.83]

>  <Ligand effiencies>  (1) 
[-0.17973684210526317]

>  <Interactions>  (1) 
["V-A:ILE:369:CG2:3237, V-B:PRO:540:CA:9855, V-A:GLU:543:CA:4904, V-A:ARG:545:CA:4919, V-A:ILE:369:CB:3236, V-A:GLU:543:C:4902, V-B:GLU:543:CB:9878, H-A:TYR:531:OH:4795, V-B:TYR:539:CE2:9848, V-B:GLU:543:CG:9879, V-A:GLY:544:C:4912, V-B:TYR:539:C:9839, V-B:TYR:539:CZ:9849, H-B:TYR:539:OH:9850, H-B:ALA:541:N:9863, V-A:GLU:543:CD:4908, V-B:PRO:540:CB:9857, V-A:ARG:545:CG:4922, V-B:PRO:540:N:9856, V-A:HIS:456:CE1:4070, V-A:ILE:369:CD1:3239, V-B:TYR:539:CD2:9846, V-B:PRO:540:CD:9859, V-B:GLU:543:CD:9880, V-A:LEU:475:CD2:4259, V-A:GLU:543:CB:4906, V-B:LEU:363:CD1:8160"]

$$$$
ZINC587556101
     RDKit          3D

 50 53  0  0  0  0  0  0  0  0999 V2000
  128.5080  127.3720   62.6280 C   0  0  0  0  0  0  0  0  0  0  0  0
  128.3270  126.8590   61.3130 O   0  0  0  0  0  0  0  0  0  0  0  0
  128.6640  125.5450   61.0410 C   0  0  0  0  0  0  0  0  0  0  0  0
  129.5450  124.7880   61.8290 C   0  0  0  0  0  0  0  0  0  0  0  0
  129.8220  123.4550   61.5220 C   0  0  0  0  0  0  0  0  0  0  0  0
  130.7820  122.6450   62.4000 C   0  0  2  0  0  0  0  0  0  0  0  0
  130.3130  122.5680   63.7570 O   0  0  0  0  0  0  0  0  0  0  0  0
  130.7390  123.5580   64.6210 C   0  0  0  0  0  0  0  0  0  0  0  0
  129.8920  123.8440   65.6920 C   0  0  0  0  0  0  0  0  0  0  0  0
  130.2640  124.8030   66.6310 C   0  0  0  0  0  0  0  0  0  0  0  0
  131.4820  125.4670   66.5040 C   0  0  0  0  0  0  0  0  0  0  0  0
  132.3310  125.1740   65.4350 C   0  0  0  0  0  0  0  0  0  0  0  0
  131.9740  124.2140   64.4690 C   0  0  0  0  0  0  0  0  0  0  0  0
  132.7900  123.8800   63.3480 C   0  0  0  0  0  0  0  0  0  0  0  0
  133.9850  124.3270   63.2600 O   0  0  0  0  0  0  0  0  0  0  0  0
  132.2350  123.1220   62.2740 C   0  0  0  0  0  0  0  0  0  0  0  0
  132.9320  122.7850   61.0810 C   0  0  0  0  0  0  0  0  0  0  0  0
  133.4850  121.6530   60.8950 O   0  0  0  0  0  0  0  0  0  0  0  0
  132.9510  123.8060   60.0260 C   0  0  0  0  0  0  0  0  0  0  0  0
  132.2430  124.9950   59.8610 C   0  0  0  0  0  0  0  0  0  0  0  0
  132.6600  125.5540   58.6520 C   0  0  0  0  0  0  0  0  0  0  0  0
  133.6040  124.6880   58.1290 C   0  0  0  0  0  0  0  0  0  0  0  0
  133.7820  123.6290   58.9600 O   0  0  0  0  0  0  0  0  0  0  0  0
  129.2010  122.8720   60.4160 C   0  0  0  0  0  0  0  0  0  0  0  0
  128.3110  123.5960   59.6170 C   0  0  0  0  0  0  0  0  0  0  0  0
  127.6290  122.9130   58.4940 N   0  0  0  0  0  0  0  0  0  0  0  0
  128.3250  122.4120   57.6150 O   0  0  0  0  0  0  0  0  0  0  0  0
  126.4030  122.8580   58.4980 O   0  0  0  0  0  0  0  0  0  0  0  0
  128.0750  124.9540   59.9130 C   0  0  0  0  0  0  0  0  0  0  0  0
  127.2310  125.7100   59.1340 O   0  0  0  0  0  0  0  0  0  0  0  0
  127.6860  126.1210   57.5700 S   0  0  0  0  0  0  0  0  0  0  0  0
  129.0880  125.7370   57.3610 O   0  0  0  0  0  0  0  0  0  0  0  0
  126.6410  125.6330   56.6640 O   0  0  0  0  0  0  0  0  0  0  0  0
  127.5680  128.0140   57.6700 C   0  0  0  0  0  0  0  0  0  0  0  0
  126.3760  128.3210   58.1790 F   0  0  0  0  0  0  0  0  0  0  0  0
  128.5400  128.4550   58.4670 F   0  0  0  0  0  0  0  0  0  0  0  0
  127.6860  128.5170   56.4420 F   0  0  0  0  0  0  0  0  0  0  0  0
  128.2358  126.6005   63.3633 H   0  0  0  0  0  0  0  0  0  0  0  0
  129.5610  127.6572   62.7686 H   0  0  0  0  0  0  0  0  0  0  0  0
  127.8671  128.2549   62.7686 H   0  0  0  0  0  0  0  0  0  0  0  0
  130.0249  125.2530   62.7028 H   0  0  0  0  0  0  0  0  0  0  0  0
  130.7895  121.6125   62.0206 H   0  0  0  0  0  0  0  0  0  0  0  0
  128.9336  123.3139   65.7945 H   0  0  0  0  0  0  0  0  0  0  0  0
  129.5958  125.0362   67.4731 H   0  0  0  0  0  0  0  0  0  0  0  0
  131.7753  126.2233   67.2470 H   0  0  0  0  0  0  0  0  0  0  0  0
  133.2926  125.7008   65.3463 H   0  0  0  0  0  0  0  0  0  0  0  0
  131.4969  125.4136   60.5525 H   0  0  0  0  0  0  0  0  0  0  0  0
  132.3084  126.4952   58.2043 H   0  0  0  0  0  0  0  0  0  0  0  0
  134.1342  124.8362   57.1767 H   0  0  0  0  0  0  0  0  0  0  0  0
  129.4162  121.8221   60.1682 H   0  0  0  0  0  0  0  0  0  0  0  0
  1  2  1  0
  2  3  1  0
  3  4  2  0
  4  5  1  0
  5  6  1  0
  6  7  1  0
  7  8  1  0
  8  9  2  0
  9 10  1  0
 10 11  2  0
 11 12  1  0
 12 13  2  0
 13 14  1  0
 14 15  1  0
 14 16  2  0
 16 17  1  0
 17 18  2  0
 17 19  1  0
 19 20  2  0
 20 21  1  0
 21 22  2  0
 22 23  1  0
  5 24  2  0
 24 25  1  0
 25 26  1  0
 26 27  2  0
 26 28  1  0
 25 29  2  0
 29 30  1  0
 30 31  1  0
 31 32  2  0
 31 33  2  0
 31 34  1  0
 34 35  1  0
 34 36  1  0
 34 37  1  0
 29  3  1  0
 16  6  1  0
 23 19  1  0
 13  8  1  0
  1 38  1  0
  1 39  1  0
  1 40  1  0
  4 41  1  0
  6 42  1  6
  9 43  1  0
 10 44  1  0
 11 45  1  0
 12 46  1  0
 20 47  1  0
 21 48  1  0
 22 49  1  0
 24 50  1  0
M  CHG  3  15  -1  26   1  28  -1
M  END
>  <Binding energies>  (1) 
[-5.55]

>  <Ligand effiencies>  (1) 
[-0.15]

>  <Interactions>  (1) 
["V-A:ILE:369:CG2:3237, V-A:ASP:366:CA:3210, V-B:PRO:540:CA:9855, V-B:GLU:543:CB:9878, V-B:TYR:539:CE2:9848, V-A:TYR:484:CE2:4346, V-B:GLU:543:CG:9879, V-B:TYR:539:C:9839, V-A:ASP:366:CG:3213, V-B:TYR:539:CZ:9849, H-B:TYR:539:OH:9850, V-A:TYR:484:CZ:4347, H-A:GLY:454:N:4050, V-B:PRO:540:N:9856, V-A:HIS:456:CE1:4070, V-A:ASP:366:C:3208, V-B:TYR:539:CD2:9846, V-B:GLU:543:CD:9880, V-A:MET:535:CE:4835, H-B:TYR:531:OH:9767, V-A:ASP:366:CB:3212, V-A:LEU:475:CD2:4259, H-A:ARG:545:NH2:4928, V-A:ARG:545:CZ:4926"]

$$$$
ZINC587605891
     RDKit          3D

 57 60  0  0  0  0  0  0  0  0999 V2000
  127.9730  128.8040   66.0880 C   0  0  0  0  0  0  0  0  0  0  0  0
  128.7400  127.4850   65.9140 C   0  0  0  0  0  0  0  0  0  0  0  0
  128.6560  126.6070   67.1110 N   0  0  0  0  0  0  0  0  0  0  0  0
  128.0500  127.1900   68.3360 C   0  0  0  0  0  0  0  0  0  0  0  0
  129.0480  128.0360   69.1410 C   0  0  0  0  0  0  0  0  0  0  0  0
  129.9400  125.4010   67.3580 S   0  0  0  0  0  0  0  0  0  0  0  0
  131.2100  126.1200   67.5210 O   0  0  0  0  0  0  0  0  0  0  0  0
  129.4970  124.4410   68.3760 O   0  0  0  0  0  0  0  0  0  0  0  0
  130.0250  124.5220   65.7990 C   0  0  0  0  0  0  0  0  0  0  0  0
  130.6090  125.1280   64.6880 C   0  0  0  0  0  0  0  0  0  0  0  0
  130.6880  124.4370   63.4820 C   0  0  0  0  0  0  0  0  0  0  0  0
  130.1870  123.1320   63.3690 C   0  0  0  0  0  0  0  0  0  0  0  0
  130.2620  122.3720   62.0210 C   0  0  2  0  0  0  0  0  0  0  0  0
  129.8440  120.8810   62.1870 C   0  0  0  0  0  0  0  0  0  0  0  0
  130.8020  119.7000   60.8920 Br  0  0  0  0  0  0  0  0  0  0  0  0
  131.6420  122.2070   61.6240 O   0  0  0  0  0  0  0  0  0  0  0  0
  132.2090  123.0980   60.7360 C   0  0  0  0  0  0  0  0  0  0  0  0
  133.6040  123.1300   60.7310 C   0  0  0  0  0  0  0  0  0  0  0  0
  134.2780  123.9700   59.8470 C   0  0  0  0  0  0  0  0  0  0  0  0
  133.5550  124.7670   58.9630 C   0  0  0  0  0  0  0  0  0  0  0  0
  132.1600  124.7270   58.9650 C   0  0  0  0  0  0  0  0  0  0  0  0
  131.4580  123.8890   59.8540 C   0  0  0  0  0  0  0  0  0  0  0  0
  130.0370  123.8130   59.9070 C   0  0  0  0  0  0  0  0  0  0  0  0
  129.3330  124.4510   59.0490 O   0  0  0  0  0  0  0  0  0  0  0  0
  129.3920  123.1000   60.9630 C   0  0  0  0  0  0  0  0  0  0  0  0
  127.9720  123.0920   61.1160 C   0  0  0  0  0  0  0  0  0  0  0  0
  127.3850  122.9440   62.2370 O   0  0  0  0  0  0  0  0  0  0  0  0
  127.1890  123.2550   59.8850 C   0  0  0  0  0  0  0  0  0  0  0  0
  126.1210  124.0870   59.5580 C   0  0  0  0  0  0  0  0  0  0  0  0
  125.7590  123.7910   58.2430 C   0  0  0  0  0  0  0  0  0  0  0  0
  126.6220  122.7970   57.8180 C   0  0  0  0  0  0  0  0  0  0  0  0
  127.4900  122.4710   58.8100 O   0  0  0  0  0  0  0  0  0  0  0  0
  129.6180  122.5310   64.5030 C   0  0  0  0  0  0  0  0  0  0  0  0
  129.5360  123.2190   65.7090 C   0  0  0  0  0  0  0  0  0  0  0  0
  127.8489  129.0173   67.1600 H   0  0  0  0  0  0  0  0  0  0  0  0
  128.5367  129.6212   65.6143 H   0  0  0  0  0  0  0  0  0  0  0  0
  126.9839  128.7182   65.6143 H   0  0  0  0  0  0  0  0  0  0  0  0
  128.3201  126.9454   65.0523 H   0  0  0  0  0  0  0  0  0  0  0  0
  129.8000  127.7361   65.7614 H   0  0  0  0  0  0  0  0  0  0  0  0
  127.2038  127.8281   68.0415 H   0  0  0  0  0  0  0  0  0  0  0  0
  127.7249  126.3571   68.9768 H   0  0  0  0  0  0  0  0  0  0  0  0
  128.8716  127.8865   70.2164 H   0  0  0  0  0  0  0  0  0  0  0  0
  130.0743  127.7285   68.8915 H   0  0  0  0  0  0  0  0  0  0  0  0
  128.9127  129.0988   68.8915 H   0  0  0  0  0  0  0  0  0  0  0  0
  131.0069  126.1507   64.7640 H   0  0  0  0  0  0  0  0  0  0  0  0
  131.1487  124.9201   62.6077 H   0  0  0  0  0  0  0  0  0  0  0  0
  130.0819  120.5554   63.2104 H   0  0  0  0  0  0  0  0  0  0  0  0
  128.7645  120.8025   61.9906 H   0  0  0  0  0  0  0  0  0  0  0  0
  134.1714  122.4922   61.4248 H   0  0  0  0  0  0  0  0  0  0  0  0
  135.3775  124.0035   59.8473 H   0  0  0  0  0  0  0  0  0  0  0  0
  134.0843  125.4291   58.2620 H   0  0  0  0  0  0  0  0  0  0  0  0
  131.5995  125.3599   58.2612 H   0  0  0  0  0  0  0  0  0  0  0  0
  125.6514  124.8360   60.2126 H   0  0  0  0  0  0  0  0  0  0  0  0
  124.9493  124.2553   57.6609 H   0  0  0  0  0  0  0  0  0  0  0  0
  126.6072  122.3365   56.8192 H   0  0  0  0  0  0  0  0  0  0  0  0
  129.2322  121.5030   64.4369 H   0  0  0  0  0  0  0  0  0  0  0  0
  129.0866  122.7366   66.5896 H   0  0  0  0  0  0  0  0  0  0  0  0
  1  2  1  0
  2  3  1  0
  3  4  1  0
  4  5  1  0
  3  6  1  0
  6  7  2  0
  6  8  2  0
  6  9  1  0
  9 10  2  0
 10 11  1  0
 11 12  2  0
 12 13  1  0
 13 14  1  1
 14 15  1  0
 13 16  1  0
 16 17  1  0
 17 18  2  0
 18 19  1  0
 19 20  2  0
 20 21  1  0
 21 22  2  0
 22 23  1  0
 23 24  1  0
 23 25  2  0
 25 26  1  0
 26 27  2  0
 26 28  1  0
 28 29  2  0
 29 30  1  0
 30 31  2  0
 31 32  1  0
 12 33  1  0
 33 34  2  0
 34  9  1  0
 25 13  1  0
 32 28  1  0
 22 17  1  0
  1 35  1  0
  1 36  1  0
  1 37  1  0
  2 38  1  0
  2 39  1  0
  4 40  1  0
  4 41  1  0
  5 42  1  0
  5 43  1  0
  5 44  1  0
 10 45  1  0
 11 46  1  0
 14 47  1  0
 14 48  1  0
 18 49  1  0
 19 50  1  0
 20 51  1  0
 21 52  1  0
 29 53  1  0
 30 54  1  0
 31 55  1  0
 33 56  1  0
 34 57  1  0
M  CHG  1  24  -1
M  END
>  <Binding energies>  (1) 
[-7.79]

>  <Ligand effiencies>  (1) 
[-0.22911764705882354]

>  <Interactions>  (1) 
["V-A:ILE:369:CG2:3237, V-A:ASP:366:CA:3210, V-B:PRO:540:CA:9855, V-A:ILE:369:CB:3236, V-B:GLU:543:CB:9878, V-B:ALA:541:CB:9864, V-B:TYR:539:CE2:9848, V-A:TYR:484:CE2:4346, V-B:GLU:543:CG:9879, V-B:TYR:539:C:9839, V-A:ASP:366:CG:3213, V-B:TYR:539:CZ:9849, H-B:ALA:541:N:9863, V-A:TYR:484:CZ:4347, V-A:GLU:543:CD:4908, V-B:PRO:540:CB:9857, V-B:HIS:456:CE1:9041, V-B:GLU:543:CA:9876, V-B:PRO:540:N:9856, V-A:HIS:456:CE1:4070, V-A:ILE:369:CD1:3239, V-A:ASP:366:C:3208, V-B:TYR:539:CD2:9846, V-A:GLU:543:CG:4907, V-B:PRO:540:CD:9859, V-B:GLU:543:CD:9880, V-A:ILE:369:CG1:3238, V-A:ASP:366:CB:3212, V-A:LEU:475:CD2:4259, V-A:GLU:543:CB:4906, H-A:TYR:484:OH:4348"]

$$$$
ZINC587617697
     RDKit          3D

 55 58  0  0  0  0  0  0  0  0999 V2000
  126.2610  131.0590   57.5540 C   0  0  0  0  0  0  0  0  0  0  0  0
  127.1630  130.2060   56.6440 C   0  0  0  0  0  0  0  0  0  0  0  0
  128.4870  130.0240   57.2280 N   0  0  0  0  0  0  0  0  0  0  0  0
  129.5840  130.8290   57.0900 C   0  0  0  0  0  0  0  0  0  0  0  0
  130.5970  130.2140   57.8000 C   0  0  0  0  0  0  0  0  0  0  0  0
  132.2180  130.7700   57.9660 Cl  0  0  0  0  0  0  0  0  0  0  0  0
  130.0090  129.0450   58.3300 C   0  0  0  0  0  0  0  0  0  0  0  0
  130.6500  128.0100   59.1530 C   0  0  0  0  0  0  0  0  0  0  0  0
  131.4610  127.0940   58.5340 N   0  0  0  0  0  0  0  0  0  0  0  0
  132.0120  126.2000   59.4240 C   0  0  0  0  0  0  0  0  0  0  0  0
  132.8880  125.1150   59.2230 C   0  0  0  0  0  0  0  0  0  0  0  0
  133.4110  124.7300   57.8890 N   0  0  0  0  0  0  0  0  0  0  0  0
  133.2370  125.4910   56.9420 O   0  0  0  0  0  0  0  0  0  0  0  0
  133.9990  123.6590   57.7750 O   0  0  0  0  0  0  0  0  0  0  0  0
  133.2470  124.3980   60.3720 C   0  0  0  0  0  0  0  0  0  0  0  0
  132.7660  124.7210   61.6400 C   0  0  0  0  0  0  0  0  0  0  0  0
  133.2690  123.7480   63.0660 S   0  0  0  0  0  0  0  0  0  0  0  0
  134.1450  122.7040   62.5220 O   0  0  0  0  0  0  0  0  0  0  0  0
  133.8610  124.7100   64.0030 O   0  0  0  0  0  0  0  0  0  0  0  0
  131.8590  123.2210   63.5050 N   0  0  0  0  0  0  0  0  0  0  0  0
  130.8280  122.9660   62.6230 C   0  0  0  0  0  0  0  0  0  0  0  0
  129.6040  123.6640   62.6480 C   0  0  0  0  0  0  0  0  0  0  0  0
  128.5810  123.3850   61.7460 C   0  0  0  0  0  0  0  0  0  0  0  0
  128.7550  122.3940   60.7910 C   0  0  0  0  0  0  0  0  0  0  0  0
  129.9480  121.6830   60.7410 C   0  0  0  0  0  0  0  0  0  0  0  0
  130.9910  121.9560   61.6470 C   0  0  0  0  0  0  0  0  0  0  0  0
  132.1950  121.2650   61.6240 O   0  0  0  0  0  0  0  0  0  0  0  0
  132.8050  120.9390   60.3790 C   0  0  0  0  0  0  0  0  0  0  0  0
  131.9040  125.8020   61.8170 C   0  0  0  0  0  0  0  0  0  0  0  0
  131.5090  126.5730   60.7080 C   0  0  0  0  0  0  0  0  0  0  0  0
  130.6460  127.7250   60.5220 C   0  0  0  0  0  0  0  0  0  0  0  0
  129.8950  128.4370   61.5660 C   0  0  0  0  0  0  0  0  0  0  0  0
  129.8320  129.6660   61.6450 O   0  0  0  0  0  0  0  0  0  0  0  0
  129.3160  127.5780   62.4330 O   0  0  0  0  0  0  0  0  0  0  0  0
  128.4630  128.0520   63.4650 C   0  0  0  0  0  0  0  0  0  0  0  0
  128.7410  128.9480   57.9820 N   0  0  0  0  0  0  0  0  0  0  0  0
  126.4916  130.8409   58.6072 H   0  0  0  0  0  0  0  0  0  0  0  0
  126.4405  132.1254   57.3526 H   0  0  0  0  0  0  0  0  0  0  0  0
  125.2063  130.8203   57.3526 H   0  0  0  0  0  0  0  0  0  0  0  0
  126.6966  129.2202   56.5001 H   0  0  0  0  0  0  0  0  0  0  0  0
  127.2772  130.7275   55.6822 H   0  0  0  0  0  0  0  0  0  0  0  0
  129.6468  131.7729   56.5286 H   0  0  0  0  0  0  0  0  0  0  0  0
  131.6130  127.1120   57.5350 H   0  0  0  0  0  0  0  0  0  0  0  0
  133.9357  123.5464   60.2695 H   0  0  0  0  0  0  0  0  0  0  0  0
  129.4527  124.4512   63.4012 H   0  0  0  0  0  0  0  0  0  0  0  0
  127.6375  123.9487   61.7904 H   0  0  0  0  0  0  0  0  0  0  0  0
  127.9503  122.1714   60.0748 H   0  0  0  0  0  0  0  0  0  0  0  0
  130.0794  120.8963   59.9835 H   0  0  0  0  0  0  0  0  0  0  0  0
  133.7616  120.4278   60.5621 H   0  0  0  0  0  0  0  0  0  0  0  0
  132.1389  120.2766   59.8066 H   0  0  0  0  0  0  0  0  0  0  0  0
  132.9856  121.8608   59.8066 H   0  0  0  0  0  0  0  0  0  0  0  0
  131.5331  126.0520   62.8219 H   0  0  0  0  0  0  0  0  0  0  0  0
  128.9015  127.8083   64.4440 H   0  0  0  0  0  0  0  0  0  0  0  0
  128.3497  129.1425   63.3751 H   0  0  0  0  0  0  0  0  0  0  0  0
  127.4772  127.5723   63.3751 H   0  0  0  0  0  0  0  0  0  0  0  0
  1  2  1  0
  2  3  1  0
  3  4  1  0
  4  5  2  0
  5  6  1  0
  5  7  1  0
  7  8  1  0
  8  9  1  0
  9 10  1  0
 10 11  2  0
 11 12  1  0
 12 13  2  0
 12 14  1  0
 11 15  1  0
 15 16  2  0
 16 17  1  0
 17 18  2  0
 17 19  2  0
 17 20  1  0
 20 21  1  0
 21 22  2  0
 22 23  1  0
 23 24  2  0
 24 25  1  0
 25 26  2  0
 26 27  1  0
 27 28  1  0
 16 29  1  0
 29 30  2  0
 30 31  1  0
 31 32  1  0
 32 33  2  0
 32 34  1  0
 34 35  1  0
  7 36  2  0
 36  3  1  0
 31  8  2  0
 30 10  1  0
 26 21  1  0
  1 37  1  0
  1 38  1  0
  1 39  1  0
  2 40  1  0
  2 41  1  0
  4 42  1  0
  9 43  1  0
 15 44  1  0
 22 45  1  0
 23 46  1  0
 24 47  1  0
 25 48  1  0
 28 49  1  0
 28 50  1  0
 28 51  1  0
 29 52  1  0
 35 53  1  0
 35 54  1  0
 35 55  1  0
M  CHG  3  12   1  14  -1  20  -1
M  END
>  <Binding energies>  (1) 
[-7.04]

>  <Ligand effiencies>  (1) 
[-0.19027027027027027]

>  <Interactions>  (1) 
["V-A:ILE:369:CG2:3237, V-A:ASP:366:CA:3210, V-B:PRO:540:CA:9855, V-A:GLY:454:CA:4049, H-A:TYR:531:OH:4795, H-A:ARG:545:NH1:4927, V-B:TYR:539:CE2:9848, V-A:ASP:366:CG:3213, V-A:LEU:363:CD1:3189, V-B:TYR:539:CZ:9849, H-A:ASN:370:N:3244, V-A:TYR:539:CZ:4877, H-B:TYR:539:OH:9850, V-A:GLU:543:CD:4908, H-A:GLY:454:N:4050, V-A:ASP:366:C:3208, V-B:TYR:539:CD2:9846, V-A:MET:535:CE:4835, V-B:GLU:543:CD:9880, V-A:ASP:366:CB:3212, V-A:LEU:475:CD2:4259, H-A:ARG:545:NH2:4928, H-A:ARG:545:NE:4924, V-A:TYR:539:CE1:4875, H-A:TYR:484:OH:4348"]

$$$$
ZINC587620271-again1
     RDKit          3D

 71 76  0  0  0  0  0  0  0  0999 V2000
  131.4650  131.2760   61.6420 C   0  0  0  0  0  0  0  0  0  0  0  0
  130.7780  132.2240   62.4510 O   0  0  0  0  0  0  0  0  0  0  0  0
  129.4520  132.5180   62.1900 C   0  0  0  0  0  0  0  0  0  0  0  0
  129.0390  133.7100   61.5630 C   0  0  0  0  0  0  0  0  0  0  0  0
  127.6870  133.9730   61.3470 C   0  0  0  0  0  0  0  0  0  0  0  0
  126.7260  133.0540   61.7530 C   0  0  0  0  0  0  0  0  0  0  0  0
  127.1170  131.8690   62.3710 C   0  0  0  0  0  0  0  0  0  0  0  0
  128.4700  131.5890   62.5820 C   0  0  0  0  0  0  0  0  0  0  0  0
  128.7760  130.3720   63.2080 N   0  0  0  0  0  0  0  0  0  0  0  0
  127.5270  129.3220   63.9070 S   0  0  0  0  0  0  0  0  0  0  0  0
  127.1630  129.8870   65.2110 O   0  0  0  0  0  0  0  0  0  0  0  0
  126.5090  129.1020   62.8730 O   0  0  0  0  0  0  0  0  0  0  0  0
  128.3730  127.7710   64.1890 C   0  0  0  0  0  0  0  0  0  0  0  0
  128.7980  127.4260   65.4710 C   0  0  0  0  0  0  0  0  0  0  0  0
  129.4220  126.2020   65.7570 C   0  0  0  0  0  0  0  0  0  0  0  0
  129.8570  125.8690   67.1360 N   0  0  0  0  0  0  0  0  0  0  0  0
  130.3390  124.7630   67.3540 O   0  0  0  0  0  0  0  0  0  0  0  0
  129.7150  126.7160   68.0140 O   0  0  0  0  0  0  0  0  0  0  0  0
  129.5870  125.3250   64.6650 C   0  0  0  0  0  0  0  0  0  0  0  0
  130.1290  124.0550   64.5770 N   0  0  0  0  0  0  0  0  0  0  0  0
  130.0640  123.5600   63.2980 C   0  0  0  0  0  0  0  0  0  0  0  0
  130.5920  122.1800   62.9800 C   0  0  0  0  0  0  0  0  0  0  0  0
  129.4710  124.5300   62.5030 C   0  0  0  0  0  0  0  0  0  0  0  0
  129.2020  124.4710   61.1330 N   0  0  0  0  0  0  0  0  0  0  0  0
  130.0500  125.1980   60.2930 C   0  0  0  0  0  0  0  0  0  0  0  0
  131.1660  126.1070   60.8690 C   0  0  0  0  0  0  0  0  0  0  0  0
  132.5160  125.5250   60.8940 N   0  0  0  0  0  0  0  0  0  0  0  0
  132.6950  124.5160   59.8390 C   0  0  0  0  0  0  0  0  0  0  0  0
  134.1020  123.8860   59.8980 C   0  0  0  0  0  0  0  0  0  0  0  0
  134.3430  123.3550   61.1980 O   0  0  0  0  0  0  0  0  0  0  0  0
  134.2700  124.3520   62.2130 C   0  0  0  0  0  0  0  0  0  0  0  0
  132.8680  125.0000   62.2200 C   0  0  0  0  0  0  0  0  0  0  0  0
  129.8730  125.1460   59.0160 N   0  0  0  0  0  0  0  0  0  0  0  0
  128.8530  124.3590   58.4590 C   0  0  0  0  0  0  0  0  0  0  0  0
  128.7160  124.3370   57.0700 C   0  0  0  0  0  0  0  0  0  0  0  0
  127.7070  123.5690   56.4860 C   0  0  0  0  0  0  0  0  0  0  0  0
  126.8380  122.8250   57.2860 C   0  0  0  0  0  0  0  0  0  0  0  0
  126.9700  122.8410   58.6750 C   0  0  0  0  0  0  0  0  0  0  0  0
  127.9800  123.6120   59.2620 C   0  0  0  0  0  0  0  0  0  0  0  0
  128.1580  123.6430   60.7680 C   0  0  0  0  0  0  0  0  0  0  0  0
  127.4480  123.0000   61.5490 O   0  0  0  0  0  0  0  0  0  0  0  0
  129.1630  125.6570   63.3450 C   0  0  0  0  0  0  0  0  0  0  0  0
  128.5580  126.9000   63.1180 C   0  0  0  0  0  0  0  0  0  0  0  0
  131.9880  130.5543   62.2868 H   0  0  0  0  0  0  0  0  0  0  0  0
  130.7418  130.7434   61.0070 H   0  0  0  0  0  0  0  0  0  0  0  0
  132.1963  131.7975   61.0070 H   0  0  0  0  0  0  0  0  0  0  0  0
  129.7930  134.4427   61.2396 H   0  0  0  0  0  0  0  0  0  0  0  0
  127.3805  134.9080   60.8552 H   0  0  0  0  0  0  0  0  0  0  0  0
  125.6589  133.2626   61.5864 H   0  0  0  0  0  0  0  0  0  0  0  0
  126.3539  131.1465   62.6962 H   0  0  0  0  0  0  0  0  0  0  0  0
  129.7060  130.2770   63.5880 H   0  0  0  0  0  0  0  0  0  0  0  0
  128.6379  128.1416   66.2910 H   0  0  0  0  0  0  0  0  0  0  0  0
  130.5270  123.5190   65.3360 H   0  0  0  0  0  0  0  0  0  0  0  0
  130.7981  121.6414   63.9167 H   0  0  0  0  0  0  0  0  0  0  0  0
  129.8423  121.6262   62.3959 H   0  0  0  0  0  0  0  0  0  0  0  0
  131.5199  122.2681   62.3959 H   0  0  0  0  0  0  0  0  0  0  0  0
  131.2041  127.0220   60.2596 H   0  0  0  0  0  0  0  0  0  0  0  0
  130.8962  126.2811   61.9211 H   0  0  0  0  0  0  0  0  0  0  0  0
  131.9423  123.7244   59.9690 H   0  0  0  0  0  0  0  0  0  0  0  0
  132.5765  125.0096   58.8631 H   0  0  0  0  0  0  0  0  0  0  0  0
  134.1706  123.0773   59.1555 H   0  0  0  0  0  0  0  0  0  0  0  0
  134.8535  124.6585   59.6780 H   0  0  0  0  0  0  0  0  0  0  0  0
  134.4618  123.8891   63.1922 H   0  0  0  0  0  0  0  0  0  0  0  0
  135.0241  125.1271   62.0115 H   0  0  0  0  0  0  0  0  0  0  0  0
  132.1253  124.2440   62.5148 H   0  0  0  0  0  0  0  0  0  0  0  0
  132.8759  125.8369   62.9338 H   0  0  0  0  0  0  0  0  0  0  0  0
  129.4002  124.9224   56.4382 H   0  0  0  0  0  0  0  0  0  0  0  0
  127.5964  123.5501   55.3917 H   0  0  0  0  0  0  0  0  0  0  0  0
  126.0448  122.2228   56.8188 H   0  0  0  0  0  0  0  0  0  0  0  0
  126.2857  122.2524   59.3037 H   0  0  0  0  0  0  0  0  0  0  0  0
  128.2331  127.1846   62.1064 H   0  0  0  0  0  0  0  0  0  0  0  0
  1  2  1  0
  2  3  1  0
  3  4  2  0
  4  5  1  0
  5  6  2  0
  6  7  1  0
  7  8  2  0
  8  9  1  0
  9 10  1  0
 10 11  2  0
 10 12  2  0
 10 13  1  0
 13 14  2  0
 14 15  1  0
 15 16  1  0
 16 17  2  0
 16 18  1  0
 15 19  2  0
 19 20  1  0
 20 21  1  0
 21 22  1  0
 21 23  2  0
 23 24  1  0
 24 25  1  0
 25 26  1  0
 26 27  1  0
 27 28  1  0
 28 29  1  0
 29 30  1  0
 30 31  1  0
 31 32  1  0
 25 33  2  0
 33 34  1  0
 34 35  2  0
 35 36  1  0
 36 37  2  0
 37 38  1  0
 38 39  2  0
 39 40  1  0
 40 41  2  0
 23 42  1  0
 42 43  2  0
  8  3  1  0
 43 13  1  0
 42 19  1  0
 40 24  1  0
 32 27  1  0
 39 34  1  0
  1 44  1  0
  1 45  1  0
  1 46  1  0
  4 47  1  0
  5 48  1  0
  6 49  1  0
  7 50  1  0
  9 51  1  0
 14 52  1  0
 20 53  1  0
 22 54  1  0
 22 55  1  0
 22 56  1  0
 26 57  1  0
 26 58  1  0
 28 59  1  0
 28 60  1  0
 29 61  1  0
 29 62  1  0
 31 63  1  0
 31 64  1  0
 32 65  1  0
 32 66  1  0
 35 67  1  0
 36 68  1  0
 37 69  1  0
 38 70  1  0
 43 71  1  0
M  CHG  2  16   1  18  -1
M  END
>  <Binding energies>  (1) 
[-9.39]

>  <Ligand effiencies>  (1) 
[-0.20866666666666667]

>  <Interactions>  (1) 
["V-A:ILE:369:CG2:3237, V-A:ASP:366:CA:3210, V-B:PRO:540:CA:9855, H-A:GLU:543:OE2:4910, V-A:ILE:369:CB:3236, H-A:ALA:541:N:4891, V-A:PRO:540:C:4881, V-B:GLU:543:CB:9878, V-B:TYR:539:CE2:9848, V-B:GLU:543:CG:9879, V-B:LEU:475:CD2:9230, V-B:TYR:539:C:9839, V-A:ASP:366:CG:3213, V-A:TYR:539:CD1:4873, V-B:TYR:539:CZ:9849, V-A:ALA:541:CB:4892, H-B:ALA:541:N:9863, V-A:GLU:543:CD:4908, V-B:PRO:540:CB:9857, H-B:TYR:484:OH:9319, V-B:PRO:540:N:9856, V-A:HIS:456:CE1:4070, V-A:ILE:369:CD1:3239, V-A:ALA:541:CA:4890, V-B:PRO:540:CD:9859, V-A:GLU:543:CG:4907, V-B:GLU:543:CD:9880, V-A:TYR:539:C:4867, V-A:LEU:475:CD2:4259, H-A:GLU:543:OE1:4909, H-B:ARG:545:NH2:9900, V-B:TYR:539:CD1:9845, V-A:PRO:540:N:4884, V-A:PRO:540:CA:4883, V-B:TYR:539:CE1:9847, H-A:TYR:484:OH:4348"]

$$$$
ZINC587620680
     RDKit          3D

 56 60  0  0  0  0  0  0  0  0999 V2000
  128.5160  122.8500   61.3460 C   0  0  0  0  0  0  0  0  0  0  0  0
  129.2390  121.8180   62.0090 O   0  0  0  0  0  0  0  0  0  0  0  0
  130.5630  121.5730   61.6740 C   0  0  0  0  0  0  0  0  0  0  0  0
  130.9500  120.4700   60.8900 C   0  0  0  0  0  0  0  0  0  0  0  0
  132.2860  120.2540   60.5690 C   0  0  0  0  0  0  0  0  0  0  0  0
  133.2560  121.1340   61.0270 C   0  0  0  0  0  0  0  0  0  0  0  0
  132.8870  122.2290   61.8030 C   0  0  0  0  0  0  0  0  0  0  0  0
  131.5440  122.4780   62.1450 C   0  0  0  0  0  0  0  0  0  0  0  0
  131.1490  123.5530   62.9140 N   0  0  0  0  0  0  0  0  0  0  0  0
  132.0950  124.7410   63.3030 S   0  0  0  0  0  0  0  0  0  0  0  0
  131.5490  125.6100   64.3510 O   0  0  0  0  0  0  0  0  0  0  0  0
  133.5110  124.3650   63.4010 O   0  0  0  0  0  0  0  0  0  0  0  0
  131.9690  125.6940   61.7850 C   0  0  0  0  0  0  0  0  0  0  0  0
  132.4390  125.1540   60.5870 C   0  0  0  0  0  0  0  0  0  0  0  0
  132.3640  125.8390   59.3650 C   0  0  0  0  0  0  0  0  0  0  0  0
  132.8790  125.2280   58.1150 N   0  0  0  0  0  0  0  0  0  0  0  0
  133.4190  124.1290   58.1790 O   0  0  0  0  0  0  0  0  0  0  0  0
  132.7460  125.8410   57.0590 O   0  0  0  0  0  0  0  0  0  0  0  0
  131.7760  127.1190   59.4120 C   0  0  0  0  0  0  0  0  0  0  0  0
  131.5460  128.0600   58.4280 N   0  0  0  0  0  0  0  0  0  0  0  0
  130.9380  129.1920   58.9220 C   0  0  0  0  0  0  0  0  0  0  0  0
  130.5850  130.3500   58.0430 C   0  0  0  0  0  0  0  0  0  0  0  0
  129.2470  130.7520   57.9450 C   0  0  0  0  0  0  0  0  0  0  0  0
  128.8860  131.8290   57.1360 C   0  0  0  0  0  0  0  0  0  0  0  0
  129.8610  132.5160   56.4150 C   0  0  0  0  0  0  0  0  0  0  0  0
  131.1950  132.1260   56.5050 C   0  0  0  0  0  0  0  0  0  0  0  0
  131.5600  131.0480   57.3130 C   0  0  0  0  0  0  0  0  0  0  0  0
  132.8660  130.6970   57.3880 F   0  0  0  0  0  0  0  0  0  0  0  0
  130.7540  128.9910   60.2870 C   0  0  0  0  0  0  0  0  0  0  0  0
  130.2020  129.8640   61.2130 N   0  0  0  0  0  0  0  0  0  0  0  0
  129.0880  129.5720   61.9350 C   0  0  0  0  0  0  0  0  0  0  0  0
  128.3970  128.5540   61.8740 O   0  0  0  0  0  0  0  0  0  0  0  0
  128.8020  130.7390   62.8610 C   0  0  0  0  0  0  0  0  0  0  0  0
  129.8940  131.7310   62.5740 C   0  0  0  0  0  0  0  0  0  0  0  0
  130.7440  131.0750   61.5030 C   0  0  0  0  0  0  0  0  0  0  0  0
  131.7470  131.5900   61.0060 O   0  0  0  0  0  0  0  0  0  0  0  0
  131.2810  127.6930   60.6200 C   0  0  0  0  0  0  0  0  0  0  0  0
  131.3850  126.9600   61.8100 C   0  0  0  0  0  0  0  0  0  0  0  0
  128.0527  123.5113   62.0931 H   0  0  0  0  0  0  0  0  0  0  0  0
  129.2039  123.4333   60.7164 H   0  0  0  0  0  0  0  0  0  0  0  0
  127.7328  122.4027   60.7164 H   0  0  0  0  0  0  0  0  0  0  0  0
  130.1848  119.7687   60.5259 H   0  0  0  0  0  0  0  0  0  0  0  0
  132.5727  119.3882   59.9540 H   0  0  0  0  0  0  0  0  0  0  0  0
  134.3142  120.9667   60.7774 H   0  0  0  0  0  0  0  0  0  0  0  0
  133.6662  122.9190   62.1590 H   0  0  0  0  0  0  0  0  0  0  0  0
  132.8869  124.1494   60.6015 H   0  0  0  0  0  0  0  0  0  0  0  0
  131.7800  127.9700   57.4490 H   0  0  0  0  0  0  0  0  0  0  0  0
  128.4734  130.2130   58.5116 H   0  0  0  0  0  0  0  0  0  0  0  0
  127.8320  132.1362   57.0669 H   0  0  0  0  0  0  0  0  0  0  0  0
  129.5773  133.3651   55.7758 H   0  0  0  0  0  0  0  0  0  0  0  0
  131.9641  132.6698   55.9369 H   0  0  0  0  0  0  0  0  0  0  0  0
  127.8156  131.1743   62.6431 H   0  0  0  0  0  0  0  0  0  0  0  0
  128.7826  130.4360   63.9183 H   0  0  0  0  0  0  0  0  0  0  0  0
  129.4706  132.6774   62.2065 H   0  0  0  0  0  0  0  0  0  0  0  0
  130.4775  131.9769   63.4735 H   0  0  0  0  0  0  0  0  0  0  0  0
  131.0094  127.3795   62.7550 H   0  0  0  0  0  0  0  0  0  0  0  0
  1  2  1  0
  2  3  1  0
  3  4  2  0
  4  5  1  0
  5  6  2  0
  6  7  1  0
  7  8  2  0
  8  9  1  0
  9 10  1  0
 10 11  2  0
 10 12  2  0
 10 13  1  0
 13 14  2  0
 14 15  1  0
 15 16  1  0
 16 17  2  0
 16 18  1  0
 15 19  2  0
 19 20  1  0
 20 21  1  0
 21 22  1  0
 22 23  2  0
 23 24  1  0
 24 25  2  0
 25 26  1  0
 26 27  2  0
 27 28  1  0
 21 29  2  0
 29 30  1  0
 30 31  1  0
 31 32  2  0
 31 33  1  0
 33 34  1  0
 34 35  1  0
 35 36  2  0
 29 37  1  0
 37 38  2  0
  8  3  1  0
 38 13  1  0
 37 19  1  0
 27 22  1  0
 35 30  1  0
  1 39  1  0
  1 40  1  0
  1 41  1  0
  4 42  1  0
  5 43  1  0
  6 44  1  0
  7 45  1  0
 14 46  1  0
 20 47  1  0
 23 48  1  0
 24 49  1  0
 25 50  1  0
 26 51  1  0
 33 52  1  0
 33 53  1  0
 34 54  1  0
 34 55  1  0
 38 56  1  0
M  CHG  3   9  -1  16   1  18  -1
M  END
>  <Binding energies>  (1) 
[-8.22]

>  <Ligand effiencies>  (1) 
[-0.2107692307692308]

>  <Interactions>  (1) 
["V-A:ILE:369:CG2:3237, V-A:ASP:366:CA:3210, V-B:PRO:540:CA:9855, H-A:TYR:531:OH:4795, V-B:TYR:539:CE2:9848, V-A:ASP:366:CG:3213, V-A:LEU:363:CD1:3189, V-B:TYR:539:CZ:9849, V-A:ILE:538:CA:4860, V-A:TYR:531:CE2:4793, H-B:TYR:539:OH:9850, H-B:ALA:541:N:9863, V-A:GLU:543:CD:4908, H-A:GLY:454:N:4050, V-A:ASP:366:C:3208, V-B:TYR:539:CD2:9846, V-A:GLU:543:CG:4907, V-A:SER:385:CB:3409, V-A:TYR:531:CZ:4794, V-A:MET:535:CE:4835, V-A:ASP:366:CB:3212, V-A:LEU:475:CD2:4259, H-A:ARG:545:NH2:4928"]

$$$$
ZINC587620770
     RDKit          3D

 55 59  0  0  0  0  0  0  0  0999 V2000
  133.9960  125.0740   62.4990 C   0  0  0  0  0  0  0  0  0  0  0  0
  133.9690  124.6490   63.8570 O   0  0  0  0  0  0  0  0  0  0  0  0
  132.7840  124.7080   64.5800 C   0  0  0  0  0  0  0  0  0  0  0  0
  132.6700  125.4340   65.7810 C   0  0  0  0  0  0  0  0  0  0  0  0
  131.4690  125.4730   66.4810 C   0  0  0  0  0  0  0  0  0  0  0  0
  130.3640  124.7910   65.9930 C   0  0  0  0  0  0  0  0  0  0  0  0
  130.4630  124.0710   64.8060 C   0  0  0  0  0  0  0  0  0  0  0  0
  131.6650  124.0090   64.0720 C   0  0  0  0  0  0  0  0  0  0  0  0
  131.7920  123.3050   62.8930 N   0  0  0  0  0  0  0  0  0  0  0  0
  130.6320  123.1340   61.8520 S   0  0  0  0  0  0  0  0  0  0  0  0
  130.7610  121.9380   61.0100 O   0  0  0  0  0  0  0  0  0  0  0  0
  129.3020  123.4400   62.3950 O   0  0  0  0  0  0  0  0  0  0  0  0
  131.0280  124.5120   60.7710 C   0  0  0  0  0  0  0  0  0  0  0  0
  131.9150  124.3260   59.7110 C   0  0  0  0  0  0  0  0  0  0  0  0
  132.2660  125.3560   58.8250 C   0  0  0  0  0  0  0  0  0  0  0  0
  133.2080  125.1140   57.7060 N   0  0  0  0  0  0  0  0  0  0  0  0
  133.2770  125.9400   56.8000 O   0  0  0  0  0  0  0  0  0  0  0  0
  133.8890  124.0930   57.7220 O   0  0  0  0  0  0  0  0  0  0  0  0
  131.6690  126.6090   59.0720 C   0  0  0  0  0  0  0  0  0  0  0  0
  131.7730  127.8180   58.4140 N   0  0  0  0  0  0  0  0  0  0  0  0
  131.0030  128.7970   58.9990 C   0  0  0  0  0  0  0  0  0  0  0  0
  130.9610  130.1900   58.4610 C   0  0  0  0  0  0  0  0  0  0  0  0
  129.7390  130.7660   58.0930 C   0  0  0  0  0  0  0  0  0  0  0  0
  129.6980  132.0660   57.5960 C   0  0  0  0  0  0  0  0  0  0  0  0
  130.8790  132.7910   57.4640 C   0  0  0  0  0  0  0  0  0  0  0  0
  132.1010  132.2270   57.8230 C   0  0  0  0  0  0  0  0  0  0  0  0
  132.1420  130.9280   58.3210 C   0  0  0  0  0  0  0  0  0  0  0  0
  130.3670  128.2140   60.0930 C   0  0  0  0  0  0  0  0  0  0  0  0
  129.4630  128.8020   60.9720 N   0  0  0  0  0  0  0  0  0  0  0  0
  128.2540  128.1640   61.1260 C   0  0  0  0  0  0  0  0  0  0  0  0
  127.2930  128.6680   61.9270 C   0  0  0  0  0  0  0  0  0  0  0  0
  127.5830  129.9000   62.6190 C   0  0  0  0  0  0  0  0  0  0  0  0
  128.7250  130.4960   62.4650 N   0  0  0  0  0  0  0  0  0  0  0  0
  129.7490  130.0000   61.6110 C   0  0  0  0  0  0  0  0  0  0  0  0
  130.8320  130.5510   61.4030 O   0  0  0  0  0  0  0  0  0  0  0  0
  130.7670  126.8320   60.1530 C   0  0  0  0  0  0  0  0  0  0  0  0
  130.4540  125.7620   61.0040 C   0  0  0  0  0  0  0  0  0  0  0  0
  134.0657  126.1711   62.4595 H   0  0  0  0  0  0  0  0  0  0  0  0
  134.8679  124.6328   61.9940 H   0  0  0  0  0  0  0  0  0  0  0  0
  133.0752  124.7466   61.9940 H   0  0  0  0  0  0  0  0  0  0  0  0
  133.5430  125.9779   66.1710 H   0  0  0  0  0  0  0  0  0  0  0  0
  131.3955  126.0430   67.4189 H   0  0  0  0  0  0  0  0  0  0  0  0
  129.4117  124.8192   66.5429 H   0  0  0  0  0  0  0  0  0  0  0  0
  129.5787  123.5354   64.4301 H   0  0  0  0  0  0  0  0  0  0  0  0
  132.3581  123.3301   59.5633 H   0  0  0  0  0  0  0  0  0  0  0  0
  132.3390  128.0070   57.5980 H   0  0  0  0  0  0  0  0  0  0  0  0
  128.8080  130.1894   58.1969 H   0  0  0  0  0  0  0  0  0  0  0  0
  128.7371  132.5179   57.3091 H   0  0  0  0  0  0  0  0  0  0  0  0
  130.8469  133.8185   57.0727 H   0  0  0  0  0  0  0  0  0  0  0  0
  133.0299  132.8059   57.7134 H   0  0  0  0  0  0  0  0  0  0  0  0
  133.1055  130.4800   58.6054 H   0  0  0  0  0  0  0  0  0  0  0  0
  128.0674  127.2244   60.5853 H   0  0  0  0  0  0  0  0  0  0  0  0
  126.3253  128.1591   62.0479 H   0  0  0  0  0  0  0  0  0  0  0  0
  126.8264  130.3396   63.2856 H   0  0  0  0  0  0  0  0  0  0  0  0
  129.7625  125.9070   61.8471 H   0  0  0  0  0  0  0  0  0  0  0  0
  1  2  1  0
  2  3  1  0
  3  4  2  0
  4  5  1  0
  5  6  2  0
  6  7  1  0
  7  8  2  0
  8  9  1  0
  9 10  1  0
 10 11  2  0
 10 12  2  0
 10 13  1  0
 13 14  2  0
 14 15  1  0
 15 16  1  0
 16 17  2  0
 16 18  1  0
 15 19  2  0
 19 20  1  0
 20 21  1  0
 21 22  1  0
 22 23  2  0
 23 24  1  0
 24 25  2  0
 25 26  1  0
 26 27  2  0
 21 28  2  0
 28 29  1  0
 29 30  1  0
 30 31  2  0
 31 32  1  0
 32 33  2  0
 33 34  1  0
 34 35  2  0
 28 36  1  0
 36 37  2  0
  8  3  1  0
 37 13  1  0
 36 19  1  0
 27 22  1  0
 34 29  1  0
  1 38  1  0
  1 39  1  0
  1 40  1  0
  4 41  1  0
  5 42  1  0
  6 43  1  0
  7 44  1  0
 14 45  1  0
 20 46  1  0
 23 47  1  0
 24 48  1  0
 25 49  1  0
 26 50  1  0
 27 51  1  0
 30 52  1  0
 31 53  1  0
 32 54  1  0
 37 55  1  0
M  CHG  3   9  -1  16   1  18  -1
M  END
>  <Binding energies>  (1) 
[-7.96]

>  <Ligand effiencies>  (1) 
[-0.2094736842105263]

>  <Interactions>  (1) 
["V-A:ASP:366:CA:3210, V-B:TYR:539:CE2:9848, H-A:TYR:531:OH:4795, H-A:ARG:545:NH1:4927, V-A:TYR:484:CE2:4346, V-B:GLU:543:CG:9879, V-A:ASP:366:CG:3213, V-A:LEU:363:CD1:3189, V-B:TYR:539:CZ:9849, H-A:ASN:370:N:3244, H-B:TYR:539:OH:9850, V-A:TYR:484:CZ:4347, H-A:GLY:454:N:4050, V-A:HIS:456:CE1:4070, V-A:ASP:366:C:3208, V-A:TYR:539:C:4867, V-A:ASP:366:CB:3212, V-A:ARG:545:CD:4923, H-A:ARG:545:NH2:4928, V-A:ARG:545:CZ:4926, V-A:PRO:540:N:4884, V-A:PRO:540:CB:4885, V-A:PRO:540:CA:4883, H-A:ASP:366:OD2:3215, V-A:PRO:540:CD:4887"]

$$$$
ZINC587620925-again1
     RDKit          3D

 66 68  0  0  0  0  0  0  0  0999 V2000
  132.3620  131.4330   61.9680 C   0  0  0  0  0  0  0  0  0  0  0  0
  132.0830  131.1810   60.4820 C   0  0  0  0  0  0  0  0  0  0  0  0
  130.8360  130.5130   60.3580 O   0  0  0  0  0  0  0  0  0  0  0  0
  130.1690  130.4940   59.1840 C   0  0  0  0  0  0  0  0  0  0  0  0
  129.8570  131.4760   58.5100 O   0  0  0  0  0  0  0  0  0  0  0  0
  129.8510  129.0730   58.7060 C   0  0  0  0  0  0  0  0  0  0  0  0
  130.6410  128.0140   59.4520 C   0  0  0  0  0  0  0  0  0  0  0  0
  131.4410  127.1240   58.7750 N   0  0  0  0  0  0  0  0  0  0  0  0
  132.0480  126.2250   59.6310 C   0  0  0  0  0  0  0  0  0  0  0  0
  132.9300  125.1500   59.3910 C   0  0  0  0  0  0  0  0  0  0  0  0
  133.3970  124.7740   58.0330 N   0  0  0  0  0  0  0  0  0  0  0  0
  133.1980  125.5500   57.1040 O   0  0  0  0  0  0  0  0  0  0  0  0
  133.9700  123.6980   57.8880 O   0  0  0  0  0  0  0  0  0  0  0  0
  133.3430  124.4280   60.5220 C   0  0  0  0  0  0  0  0  0  0  0  0
  132.9300  124.7620   61.8110 C   0  0  0  0  0  0  0  0  0  0  0  0
  133.4290  123.7920   63.2240 S   0  0  0  0  0  0  0  0  0  0  0  0
  134.2060  122.6380   62.7570 O   0  0  0  0  0  0  0  0  0  0  0  0
  133.9820  124.7110   64.2260 O   0  0  0  0  0  0  0  0  0  0  0  0
  131.9030  123.1680   63.8790 N   0  0  0  0  0  0  0  0  0  0  0  0
  130.7660  122.8990   63.1000 C   0  0  0  0  0  0  0  0  0  0  0  0
  130.8580  122.1580   61.9140 C   0  0  0  0  0  0  0  0  0  0  0  0
  129.7150  121.8760   61.1700 C   0  0  0  0  0  0  0  0  0  0  0  0
  128.4720  122.3240   61.6060 C   0  0  0  0  0  0  0  0  0  0  0  0
  128.3710  123.0550   62.7880 C   0  0  0  0  0  0  0  0  0  0  0  0
  129.5140  123.3500   63.5530 C   0  0  0  0  0  0  0  0  0  0  0  0
  129.4760  124.0660   64.7390 O   0  0  0  0  0  0  0  0  0  0  0  0
  129.8410  125.4410   64.7430 C   0  0  0  0  0  0  0  0  0  0  0  0
  132.0860  125.8450   62.0340 C   0  0  0  0  0  0  0  0  0  0  0  0
  131.6050  126.5800   60.9410 C   0  0  0  0  0  0  0  0  0  0  0  0
  130.6970  127.6920   60.7970 C   0  0  0  0  0  0  0  0  0  0  0  0
  130.0180  128.3390   61.8140 N   0  0  0  0  0  0  0  0  0  0  0  0
  128.8830  127.8020   62.4140 C   0  0  0  0  0  0  0  0  0  0  0  0
  128.3310  126.7360   62.1250 O   0  0  0  0  0  0  0  0  0  0  0  0
  128.4690  128.6520   63.3910 O   0  0  0  0  0  0  0  0  0  0  0  0
  127.4460  129.6570   63.2410 C   0  0  0  0  0  0  0  0  0  0  0  0
  128.0550  131.0750   63.0990 C   0  0  0  0  0  0  0  0  0  0  0  0
  126.5120  129.3330   62.0480 C   0  0  0  0  0  0  0  0  0  0  0  0
  126.6380  129.5790   64.5520 C   0  0  0  0  0  0  0  0  0  0  0  0
  131.6826  130.8194   62.5778 H   0  0  0  0  0  0  0  0  0  0  0  0
  133.4038  131.1637   62.1963 H   0  0  0  0  0  0  0  0  0  0  0  0
  132.1998  132.4968   62.1963 H   0  0  0  0  0  0  0  0  0  0  0  0
  132.0436  132.1403   59.9452 H   0  0  0  0  0  0  0  0  0  0  0  0
  132.8835  130.5618   60.0509 H   0  0  0  0  0  0  0  0  0  0  0  0
  128.7781  128.8829   58.8565 H   0  0  0  0  0  0  0  0  0  0  0  0
  130.1302  129.0093   57.6439 H   0  0  0  0  0  0  0  0  0  0  0  0
  131.5390  127.1570   57.7700 H   0  0  0  0  0  0  0  0  0  0  0  0
  134.0161  123.5686   60.3864 H   0  0  0  0  0  0  0  0  0  0  0  0
  131.8900  122.8660   64.8420 H   0  0  0  0  0  0  0  0  0  0  0  0
  131.8382  121.7972   61.5690 H   0  0  0  0  0  0  0  0  0  0  0  0
  129.7950  121.2987   60.2371 H   0  0  0  0  0  0  0  0  0  0  0  0
  127.5695  122.1012   61.0179 H   0  0  0  0  0  0  0  0  0  0  0  0
  127.3851  123.4058   63.1271 H   0  0  0  0  0  0  0  0  0  0  0  0
  129.9343  125.7926   65.7811 H   0  0  0  0  0  0  0  0  0  0  0  0
  130.8035  125.5664   64.2255 H   0  0  0  0  0  0  0  0  0  0  0  0
  129.0674  126.0272   64.2255 H   0  0  0  0  0  0  0  0  0  0  0  0
  131.7984  126.1224   63.0589 H   0  0  0  0  0  0  0  0  0  0  0  0
  130.2750  129.2870   62.0490 H   0  0  0  0  0  0  0  0  0  0  0  0
  128.2366  131.4978   64.0981 H   0  0  0  0  0  0  0  0  0  0  0  0
  129.0056  131.0124   62.5490 H   0  0  0  0  0  0  0  0  0  0  0  0
  127.3551  131.7213   62.5490 H   0  0  0  0  0  0  0  0  0  0  0  0
  125.5365  128.9946   62.4274 H   0  0  0  0  0  0  0  0  0  0  0  0
  126.3738  130.2357   61.4348 H   0  0  0  0  0  0  0  0  0  0  0  0
  126.9625  128.5386   61.4348 H   0  0  0  0  0  0  0  0  0  0  0  0
  127.3235  129.6452   65.4097 H   0  0  0  0  0  0  0  0  0  0  0  0
  125.9207  130.4121   64.5908 H   0  0  0  0  0  0  0  0  0  0  0  0
  126.0933  128.6241   64.5908 H   0  0  0  0  0  0  0  0  0  0  0  0
  1  2  1  0
  2  3  1  0
  3  4  1  0
  4  5  2  0
  4  6  1  0
  6  7  1  0
  7  8  1  0
  8  9  1  0
  9 10  2  0
 10 11  1  0
 11 12  2  0
 11 13  1  0
 10 14  1  0
 14 15  2  0
 15 16  1  0
 16 17  2  0
 16 18  2  0
 16 19  1  0
 19 20  1  0
 20 21  2  0
 21 22  1  0
 22 23  2  0
 23 24  1  0
 24 25  2  0
 25 26  1  0
 26 27  1  0
 15 28  1  0
 28 29  2  0
 29 30  1  0
 30 31  1  0
 31 32  1  0
 32 33  2  0
 32 34  1  0
 34 35  1  0
 35 36  1  0
 35 37  1  0
 35 38  1  0
 30  7  2  0
 29  9  1  0
 25 20  1  0
  1 39  1  0
  1 40  1  0
  1 41  1  0
  2 42  1  0
  2 43  1  0
  6 44  1  0
  6 45  1  0
  8 46  1  0
 14 47  1  0
 19 48  1  0
 21 49  1  0
 22 50  1  0
 23 51  1  0
 24 52  1  0
 27 53  1  0
 27 54  1  0
 27 55  1  0
 28 56  1  0
 31 57  1  0
 36 58  1  0
 36 59  1  0
 36 60  1  0
 37 61  1  0
 37 62  1  0
 37 63  1  0
 38 64  1  0
 38 65  1  0
 38 66  1  0
M  CHG  2  11   1  13  -1
M  END
>  <Binding energies>  (1) 
[-7.75]

>  <Ligand effiencies>  (1) 
[-0.18902439024390244]

>  <Interactions>  (1) 
["V-A:ASP:366:CA:3210, V-B:PRO:540:CA:9855, V-A:GLY:454:CA:4049, V-B:ALA:541:CB:9864, H-A:TYR:531:OH:4795, H-A:ARG:545:NH1:4927, V-B:TYR:539:CE2:9848, V-B:GLU:543:CG:9879, V-A:ASP:366:CG:3213, V-B:TYR:539:CZ:9849, H-A:ASN:370:N:3244, H-B:TYR:539:OH:9850, V-A:GLU:543:CD:4908, H-A:GLY:454:N:4050, V-A:ASP:366:C:3208, V-B:TYR:539:CD2:9846, V-B:GLU:543:CD:9880, V-A:ASP:366:CB:3212, V-A:LEU:475:CD2:4259, H-A:ARG:545:NH2:4928, H-A:GLU:543:OE1:4909, V-A:PRO:540:CB:4885, V-A:PRO:540:CA:4883, H-A:ARG:545:NE:4924, V-B:PRO:540:C:9853, H-A:TYR:484:OH:4348"]

$$$$
ZINC587621117-again1
     RDKit          3D

 60 63  0  0  0  0  0  0  0  0999 V2000
  127.1350  127.7720   67.6580 C   0  0  0  0  0  0  0  0  0  0  0  0
  127.6440  127.0260   68.7600 O   0  0  0  0  0  0  0  0  0  0  0  0
  128.8540  127.3880   69.3350 C   0  0  0  0  0  0  0  0  0  0  0  0
  128.9760  127.8050   70.6730 C   0  0  0  0  0  0  0  0  0  0  0  0
  130.2160  128.1600   71.2230 C   0  0  0  0  0  0  0  0  0  0  0  0
  130.3260  128.5920   72.6390 N   0  0  0  0  0  0  0  0  0  0  0  0
  130.6140  127.7530   73.4890 O   0  0  0  0  0  0  0  0  0  0  0  0
  130.1280  129.7720   72.9100 O   0  0  0  0  0  0  0  0  0  0  0  0
  131.3480  128.1020   70.4020 C   0  0  0  0  0  0  0  0  0  0  0  0
  131.2480  127.6970   69.0750 C   0  0  0  0  0  0  0  0  0  0  0  0
  130.0060  127.3270   68.5320 C   0  0  0  0  0  0  0  0  0  0  0  0
  129.8410  126.9160   67.1920 N   0  0  0  0  0  0  0  0  0  0  0  0
  129.7610  125.6690   66.6780 C   0  0  0  0  0  0  0  0  0  0  0  0
  129.7900  124.6350   67.3470 O   0  0  0  0  0  0  0  0  0  0  0  0
  129.6240  125.6310   65.2310 C   0  0  0  0  0  0  0  0  0  0  0  0
  129.9280  124.5060   64.4550 C   0  0  0  0  0  0  0  0  0  0  0  0
  130.4390  123.1220   64.8090 C   0  0  0  0  0  0  0  0  0  0  0  0
  129.6930  124.7960   63.1360 N   0  0  0  0  0  0  0  0  0  0  0  0
  129.2340  126.0810   62.9720 C   0  0  0  0  0  0  0  0  0  0  0  0
  128.8690  126.7910   61.8100 C   0  0  0  0  0  0  0  0  0  0  0  0
  128.9320  126.2060   60.4470 N   0  0  0  0  0  0  0  0  0  0  0  0
  129.2890  125.0400   60.3190 O   0  0  0  0  0  0  0  0  0  0  0  0
  128.6230  126.9140   59.4920 O   0  0  0  0  0  0  0  0  0  0  0  0
  128.4320  128.1070   62.0090 C   0  0  0  0  0  0  0  0  0  0  0  0
  128.3590  128.6880   63.2710 C   0  0  0  0  0  0  0  0  0  0  0  0
  127.7960  130.3800   63.4300 S   0  0  0  0  0  0  0  0  0  0  0  0
  127.6590  130.6870   64.8590 O   0  0  0  0  0  0  0  0  0  0  0  0
  126.6620  130.5790   62.5190 O   0  0  0  0  0  0  0  0  0  0  0  0
  129.1320  131.3710   62.8140 N   0  0  0  0  0  0  0  0  0  0  0  0
  129.5320  131.4060   61.4660 C   0  0  0  0  0  0  0  0  0  0  0  0
  128.6700  131.0000   60.4360 C   0  0  0  0  0  0  0  0  0  0  0  0
  129.0940  131.0180   59.1100 C   0  0  0  0  0  0  0  0  0  0  0  0
  130.3830  131.4340   58.7980 C   0  0  0  0  0  0  0  0  0  0  0  0
  131.2520  131.8310   59.8130 C   0  0  0  0  0  0  0  0  0  0  0  0
  130.8410  131.8180   61.1570 C   0  0  0  0  0  0  0  0  0  0  0  0
  131.6620  132.1970   62.2080 O   0  0  0  0  0  0  0  0  0  0  0  0
  132.8830  131.4990   62.4300 C   0  0  0  0  0  0  0  0  0  0  0  0
  128.7310  127.9740   64.4080 C   0  0  0  0  0  0  0  0  0  0  0  0
  129.1760  126.6430   64.2860 C   0  0  0  0  0  0  0  0  0  0  0  0
  126.5519  128.6266   68.0318 H   0  0  0  0  0  0  0  0  0  0  0  0
  127.9720  128.1389   67.0457 H   0  0  0  0  0  0  0  0  0  0  0  0
  126.4882  127.1265   67.0457 H   0  0  0  0  0  0  0  0  0  0  0  0
  128.0760  127.8538   71.3036 H   0  0  0  0  0  0  0  0  0  0  0  0
  132.3301  128.3805   70.8117 H   0  0  0  0  0  0  0  0  0  0  0  0
  132.1493  127.6661   68.4451 H   0  0  0  0  0  0  0  0  0  0  0  0
  129.7340  127.6770   66.5380 H   0  0  0  0  0  0  0  0  0  0  0  0
  130.4787  123.0145   65.9030 H   0  0  0  0  0  0  0  0  0  0  0  0
  129.7619  122.3629   64.3903 H   0  0  0  0  0  0  0  0  0  0  0  0
  131.4470  122.9851   64.3903 H   0  0  0  0  0  0  0  0  0  0  0  0
  129.8520  124.1170   62.4060 H   0  0  0  0  0  0  0  0  0  0  0  0
  128.1352  128.7038   61.1339 H   0  0  0  0  0  0  0  0  0  0  0  0
  129.6310  131.9560   63.4680 H   0  0  0  0  0  0  0  0  0  0  0  0
  127.6507  130.6647   60.6782 H   0  0  0  0  0  0  0  0  0  0  0  0
  128.4088  130.7030   58.3092 H   0  0  0  0  0  0  0  0  0  0  0  0
  130.7173  131.4499   57.7502 H   0  0  0  0  0  0  0  0  0  0  0  0
  132.2711  132.1582   59.5592 H   0  0  0  0  0  0  0  0  0  0  0  0
  133.0570  131.3995   63.5116 H   0  0  0  0  0  0  0  0  0  0  0  0
  132.8219  130.4994   61.9750 H   0  0  0  0  0  0  0  0  0  0  0  0
  133.7134  132.0589   61.9750 H   0  0  0  0  0  0  0  0  0  0  0  0
  128.6773  128.4486   65.3989 H   0  0  0  0  0  0  0  0  0  0  0  0
  1  2  1  0
  2  3  1  0
  3  4  2  0
  4  5  1  0
  5  6  1  0
  6  7  2  0
  6  8  1  0
  5  9  2  0
  9 10  1  0
 10 11  2  0
 11 12  1  0
 12 13  1  0
 13 14  2  0
 13 15  1  0
 15 16  2  0
 16 17  1  0
 16 18  1  0
 18 19  1  0
 19 20  2  0
 20 21  1  0
 21 22  2  0
 21 23  1  0
 20 24  1  0
 24 25  2  0
 25 26  1  0
 26 27  2  0
 26 28  2  0
 26 29  1  0
 29 30  1  0
 30 31  2  0
 31 32  1  0
 32 33  2  0
 33 34  1  0
 34 35  2  0
 35 36  1  0
 36 37  1  0
 25 38  1  0
 38 39  2  0
 11  3  1  0
 39 15  1  0
 39 19  1  0
 35 30  1  0
  1 40  1  0
  1 41  1  0
  1 42  1  0
  4 43  1  0
  9 44  1  0
 10 45  1  0
 12 46  1  0
 17 47  1  0
 17 48  1  0
 17 49  1  0
 18 50  1  0
 24 51  1  0
 29 52  1  0
 31 53  1  0
 32 54  1  0
 33 55  1  0
 34 56  1  0
 37 57  1  0
 37 58  1  0
 37 59  1  0
 38 60  1  0
M  CHG  4   6   1   8  -1  21   1  23  -1
M  END
>  <Binding energies>  (1) 
[-8.23]

>  <Ligand effiencies>  (1) 
[-0.19595238095238096]

>  <Interactions>  (1) 
["V-A:ARG:545:CA:4919, V-B:HIS:456:CD2:9039, H-A:GLU:543:OE2:4910, V-A:GLU:543:C:4902, H-A:ALA:541:N:4891, V-B:GLU:543:CB:9878, V-A:TYR:484:CE2:4346, V-A:GLY:544:CA:4914, V-B:GLU:543:CG:9879, V-A:GLY:544:C:4912, V-A:ASN:362:CB:3176, V-A:GLU:543:CD:4908, V-A:TYR:484:CZ:4347, H-B:TYR:484:OH:9319, V-A:ARG:545:CG:4922, V-B:HIS:456:CE1:9041, V-A:HIS:456:CE1:4070, V-A:GLU:543:CG:4907, V-B:GLU:543:CD:9880, H-A:LYS:547:NZ:4951, V-A:LEU:475:CD2:4259, H-A:GLU:543:OE1:4909, V-A:GLU:543:CB:4906, V-A:PRO:540:CB:4885, V-A:PRO:540:CA:4883, H-A:TYR:484:OH:4348"]

$$$$
ZINC587621752-again1
     RDKit          3D

 61 65  0  0  0  0  0  0  0  0999 V2000
  127.9860  129.9940   65.3830 C   0  0  0  0  0  0  0  0  0  0  0  0
  127.8220  129.0440   66.5760 C   0  0  0  0  0  0  0  0  0  0  0  0
  128.6860  127.8020   66.4400 C   0  0  0  0  0  0  0  0  0  0  0  0
  129.3940  127.1330   67.4340 C   0  0  0  0  0  0  0  0  0  0  0  0
  129.5370  127.4270   68.8920 C   0  0  0  0  0  0  0  0  0  0  0  0
  128.3790  127.3850   69.6800 C   0  0  0  0  0  0  0  0  0  0  0  0
  128.4460  127.6490   71.0460 C   0  0  0  0  0  0  0  0  0  0  0  0
  129.6730  127.9800   71.6380 C   0  0  0  0  0  0  0  0  0  0  0  0
  130.8320  128.0190   70.8670 C   0  0  0  0  0  0  0  0  0  0  0  0
  130.7710  127.7450   69.4970 C   0  0  0  0  0  0  0  0  0  0  0  0
  131.9610  127.7790   68.7650 N   0  0  0  0  0  0  0  0  0  0  0  0
  129.7940  128.2070   72.9940 O   0  0  0  0  0  0  0  0  0  0  0  0
  128.5590  128.5160   73.6480 C   0  0  0  0  0  0  0  0  0  0  0  0
  127.4420  127.5530   73.1790 C   0  0  0  0  0  0  0  0  0  0  0  0
  127.2650  127.6410   71.7610 O   0  0  0  0  0  0  0  0  0  0  0  0
  130.0210  126.0510   66.8640 N   0  0  0  0  0  0  0  0  0  0  0  0
  129.7550  125.9620   65.5160 C   0  0  0  0  0  0  0  0  0  0  0  0
  130.1690  125.0350   64.5390 C   0  0  0  0  0  0  0  0  0  0  0  0
  131.0590  123.8860   64.8380 N   0  0  0  0  0  0  0  0  0  0  0  0
  130.5550  122.8510   65.2660 O   0  0  0  0  0  0  0  0  0  0  0  0
  132.2660  124.0060   64.6500 O   0  0  0  0  0  0  0  0  0  0  0  0
  129.6850  125.2550   63.2410 C   0  0  0  0  0  0  0  0  0  0  0  0
  128.8470  126.3220   62.9250 C   0  0  0  0  0  0  0  0  0  0  0  0
  128.2820  126.5220   61.2390 S   0  0  0  0  0  0  0  0  0  0  0  0
  127.5680  127.8010   61.1390 O   0  0  0  0  0  0  0  0  0  0  0  0
  129.4030  126.2260   60.3380 O   0  0  0  0  0  0  0  0  0  0  0  0
  127.0770  125.2410   61.0060 N   0  0  0  0  0  0  0  0  0  0  0  0
  126.9270  124.5090   59.8150 C   0  0  0  0  0  0  0  0  0  0  0  0
  125.8950  124.7910   58.9090 C   0  0  0  0  0  0  0  0  0  0  0  0
  125.7460  124.0360   57.7480 C   0  0  0  0  0  0  0  0  0  0  0  0
  126.6210  122.9870   57.4840 C   0  0  0  0  0  0  0  0  0  0  0  0
  127.6450  122.6920   58.3820 C   0  0  0  0  0  0  0  0  0  0  0  0
  127.8100  123.4450   59.5580 C   0  0  0  0  0  0  0  0  0  0  0  0
  128.8050  123.1930   60.4900 O   0  0  0  0  0  0  0  0  0  0  0  0
  128.5680  122.2600   61.5380 C   0  0  0  0  0  0  0  0  0  0  0  0
  128.4560  127.2370   63.9020 C   0  0  0  0  0  0  0  0  0  0  0  0
  128.9040  127.0680   65.2200 C   0  0  0  0  0  0  0  0  0  0  0  0
  128.1624  131.0160   65.7497 H   0  0  0  0  0  0  0  0  0  0  0  0
  128.8416  129.6709   64.7719 H   0  0  0  0  0  0  0  0  0  0  0  0
  127.0715  129.9764   64.7719 H   0  0  0  0  0  0  0  0  0  0  0  0
  128.1080  129.5762   67.4952 H   0  0  0  0  0  0  0  0  0  0  0  0
  126.7705  128.7231   66.6116 H   0  0  0  0  0  0  0  0  0  0  0  0
  127.4112  127.1421   69.2170 H   0  0  0  0  0  0  0  0  0  0  0  0
  131.7961  128.2655   71.3359 H   0  0  0  0  0  0  0  0  0  0  0  0
  132.8370  127.5960   69.2340 H   0  0  0  0  0  0  0  0  0  0  0  0
  131.9220  127.8860   67.7620 H   0  0  0  0  0  0  0  0  0  0  0  0
  128.6903  128.4159   74.7355 H   0  0  0  0  0  0  0  0  0  0  0  0
  128.2701  129.5466   73.3944 H   0  0  0  0  0  0  0  0  0  0  0  0
  127.7176  126.5221   73.4459 H   0  0  0  0  0  0  0  0  0  0  0  0
  126.5001  127.8343   73.6726 H   0  0  0  0  0  0  0  0  0  0  0  0
  130.5970  125.4240   67.4070 H   0  0  0  0  0  0  0  0  0  0  0  0
  129.9784  124.5583   62.4420 H   0  0  0  0  0  0  0  0  0  0  0  0
  126.4410  125.0410   61.7630 H   0  0  0  0  0  0  0  0  0  0  0  0
  125.1971  125.6154   59.1167 H   0  0  0  0  0  0  0  0  0  0  0  0
  124.9369  124.2690   57.0402 H   0  0  0  0  0  0  0  0  0  0  0  0
  126.5046  122.3908   56.5669 H   0  0  0  0  0  0  0  0  0  0  0  0
  128.3324  121.8602   58.1683 H   0  0  0  0  0  0  0  0  0  0  0  0
  128.6950  122.7599   62.5096 H   0  0  0  0  0  0  0  0  0  0  0  0
  127.5424  121.8706   61.4573 H   0  0  0  0  0  0  0  0  0  0  0  0
  129.2834  121.4283   61.4573 H   0  0  0  0  0  0  0  0  0  0  0  0
  127.8027  128.0828   63.6414 H   0  0  0  0  0  0  0  0  0  0  0  0
  1  2  1  0
  2  3  1  0
  3  4  2  0
  4  5  1  0
  5  6  2  0
  6  7  1  0
  7  8  2  0
  8  9  1  0
  9 10  2  0
 10 11  1  0
  8 12  1  0
 12 13  1  0
 13 14  1  0
 14 15  1  0
  4 16  1  0
 16 17  1  0
 17 18  2  0
 18 19  1  0
 19 20  2  0
 19 21  1  0
 18 22  1  0
 22 23  2  0
 23 24  1  0
 24 25  2  0
 24 26  2  0
 24 27  1  0
 27 28  1  0
 28 29  2  0
 29 30  1  0
 30 31  2  0
 31 32  1  0
 32 33  2  0
 33 34  1  0
 34 35  1  0
 23 36  1  0
 36 37  2  0
 37  3  1  0
 10  5  1  0
 37 17  1  0
 15  7  1  0
 33 28  1  0
  1 38  1  0
  1 39  1  0
  1 40  1  0
  2 41  1  0
  2 42  1  0
  6 43  1  0
  9 44  1  0
 11 45  1  0
 11 46  1  0
 13 47  1  0
 13 48  1  0
 14 49  1  0
 14 50  1  0
 16 51  1  0
 22 52  1  0
 27 53  1  0
 29 54  1  0
 30 55  1  0
 31 56  1  0
 32 57  1  0
 35 58  1  0
 35 59  1  0
 35 60  1  0
 36 61  1  0
M  CHG  2  19   1  21  -1
M  END
>  <Binding energies>  (1) 
[-8.08]

>  <Ligand effiencies>  (1) 
[-0.19707317073170733]

>  <Interactions>  (1) 
["V-A:ARG:545:CA:4919, V-B:PRO:540:CA:9855, V-B:HIS:456:CD2:9039, H-A:GLU:543:OE2:4910, V-A:GLU:543:C:4902, V-B:GLU:543:CB:9878, V-B:ALA:541:CB:9864, V-B:TYR:539:CE2:9848, V-A:TYR:484:CE2:4346, V-B:GLU:543:CG:9879, V-A:GLY:544:C:4912, V-B:TYR:539:C:9839, H-B:HIS:456:ND1:9038, H-B:GLU:543:OE1:9881, V-B:LYS:547:CE:9922, V-A:GLU:543:CD:4908, V-A:TYR:484:CZ:4347, V-B:PRO:540:CB:9857, H-B:ASP:366:OD1:8185, V-B:HIS:456:CE1:9041, V-A:ARG:545:CG:4922, V-B:PRO:540:N:9856, V-A:HIS:456:CE1:4070, V-B:TYR:484:CZ:9318, V-B:TYR:539:CD2:9846, V-A:GLU:543:CG:4907, V-B:PRO:540:CD:9859, V-B:GLU:543:CD:9880, V-B:HIS:456:CG:9037, V-A:ARG:545:CB:4921, H-A:LYS:547:NZ:4951, V-A:GLU:543:CB:4906, V-B:PRO:540:C:9853, H-A:HIS:456:NE2:4071, H-A:TYR:484:OH:4348"]

$$$$
ZINC587646376
     RDKit          3D

 72 77  0  0  0  0  0  0  0  0999 V2000
  126.2380  123.2330   61.9040 C   0  0  0  0  0  0  0  0  0  0  0  0
  127.4670  122.8340   61.1010 C   0  0  0  0  0  0  0  0  0  0  0  0
  127.4030  122.6620   59.8810 O   0  0  0  0  0  0  0  0  0  0  0  0
  128.5690  122.7130   61.8900 O   0  0  0  0  0  0  0  0  0  0  0  0
  129.7940  122.9570   61.3280 C   0  0  0  0  0  0  0  0  0  0  0  0
  130.2800  124.2100   60.9470 C   0  0  0  0  0  0  0  0  0  0  0  0
  129.6630  125.6230   61.0050 C   0  0  1  0  0  0  0  0  0  0  0  0
  128.3970  125.4540   60.3840 O   0  0  0  0  0  0  0  0  0  0  0  0
  129.4230  126.1530   62.4570 C   0  0  0  0  0  0  0  0  0  0  0  0
  129.5250  127.6880   62.4110 C   0  0  0  0  0  0  0  0  0  0  0  0
  129.7890  128.0110   60.9370 C   0  0  1  0  0  0  0  0  0  0  0  0
  130.4520  129.3650   60.5540 C   0  0  2  0  0  0  0  0  0  0  0  0
  129.7640  130.5720   61.2410 C   0  0  0  0  0  0  0  0  0  0  0  0
  130.3560  131.9300   60.8220 C   0  0  0  0  0  0  0  0  0  0  0  0
  130.2990  132.0250   59.2990 C   0  0  0  0  0  0  0  0  0  0  0  0
  129.4950  132.9180   58.6760 C   0  0  0  0  0  0  0  0  0  0  0  0
  129.2780  132.9720   57.2400 C   0  0  0  0  0  0  0  0  0  0  0  0
  128.6620  133.8930   56.7080 O   0  0  0  0  0  0  0  0  0  0  0  0
  129.7270  131.7320   56.4620 C   0  0  0  0  0  0  0  0  0  0  0  0
  131.0650  131.2000   57.0090 C   0  0  0  0  0  0  0  0  0  0  0  0
  131.1270  130.9360   58.5570 C   0  0  1  0  0  0  0  0  0  0  0  0
  132.6230  131.1040   58.9680 C   0  0  0  0  0  0  0  0  0  0  0  0
  130.5020  129.5360   58.9860 C   0  0  2  0  0  0  0  0  0  0  0  0
  129.2250  129.5660   58.5810 F   0  0  0  0  0  0  0  0  0  0  0  0
  131.0760  128.2560   58.2700 C   0  0  1  0  0  0  0  0  0  0  0  0
  132.4880  128.1800   58.2550 O   0  0  0  0  0  0  0  0  0  0  0  0
  130.4540  126.9330   58.8090 C   0  0  0  0  0  0  0  0  0  0  0  0
  130.5270  126.7730   60.3610 C   0  0  2  0  0  0  0  0  0  0  0  0
  132.0100  126.6430   60.8450 C   0  0  0  0  0  0  0  0  0  0  0  0
  131.5660  124.0060   60.5020 N   0  0  0  0  0  0  0  0  0  0  0  0
  131.9220  122.6770   60.5280 C   0  0  0  0  0  0  0  0  0  0  0  0
  133.1160  122.0490   60.1630 C   0  0  0  0  0  0  0  0  0  0  0  0
  133.1740  120.6650   60.3130 C   0  0  0  0  0  0  0  0  0  0  0  0
  132.0920  119.9360   60.7930 C   0  0  0  0  0  0  0  0  0  0  0  0
  130.8880  120.5550   61.1490 C   0  0  0  0  0  0  0  0  0  0  0  0
  129.7650  119.7330   61.6310 N   0  0  0  0  0  0  0  0  0  0  0  0
  128.6510  120.2460   61.6790 O   0  0  0  0  0  0  0  0  0  0  0  0
  129.9940  118.5670   61.9330 O   0  0  0  0  0  0  0  0  0  0  0  0
  130.7970  121.9620   61.0290 C   0  0  0  0  0  0  0  0  0  0  0  0
  126.4624  123.1601   62.9784 H   0  0  0  0  0  0  0  0  0  0  0  0
  125.9588  124.2679   61.6571 H   0  0  0  0  0  0  0  0  0  0  0  0
  125.4041  122.5594   61.6571 H   0  0  0  0  0  0  0  0  0  0  0  0
  128.2580  124.5170   60.2270 H   0  0  0  0  0  0  0  0  0  0  0  0
  128.4239  125.8531   62.8061 H   0  0  0  0  0  0  0  0  0  0  0  0
  130.1680  125.7355   63.1503 H   0  0  0  0  0  0  0  0  0  0  0  0
  128.5855  128.1503   62.7481 H   0  0  0  0  0  0  0  0  0  0  0  0
  130.3148  128.0747   63.0718 H   0  0  0  0  0  0  0  0  0  0  0  0
  128.8088  128.1965   60.4735 H   0  0  0  0  0  0  0  0  0  0  0  0
  131.4859  129.3445   60.9290 H   0  0  0  0  0  0  0  0  0  0  0  0
  128.6958  130.5609   60.9785 H   0  0  0  0  0  0  0  0  0  0  0  0
  129.9259  130.4662   62.3239 H   0  0  0  0  0  0  0  0  0  0  0  0
  129.7687  132.7460   61.2684 H   0  0  0  0  0  0  0  0  0  0  0  0
  131.3962  132.0149   61.1696 H   0  0  0  0  0  0  0  0  0  0  0  0
  128.9687  133.6548   59.3006 H   0  0  0  0  0  0  0  0  0  0  0  0
  128.9608  130.9486   56.5580 H   0  0  0  0  0  0  0  0  0  0  0  0
  129.8616  132.0073   55.4056 H   0  0  0  0  0  0  0  0  0  0  0  0
  131.2826  130.2506   56.4978 H   0  0  0  0  0  0  0  0  0  0  0  0
  131.7987  131.9968   56.8171 H   0  0  0  0  0  0  0  0  0  0  0  0
  132.7031  131.1130   60.0650 H   0  0  0  0  0  0  0  0  0  0  0  0
  133.2105  130.2662   58.5643 H   0  0  0  0  0  0  0  0  0  0  0  0
  133.0100  132.0513   58.5643 H   0  0  0  0  0  0  0  0  0  0  0  0
  130.7644  128.3756   57.2219 H   0  0  0  0  0  0  0  0  0  0  0  0
  132.8100  128.6440   57.4790 H   0  0  0  0  0  0  0  0  0  0  0  0
  129.3961  126.9026   58.5091 H   0  0  0  0  0  0  0  0  0  0  0  0
  131.0443  126.1100   58.3797 H   0  0  0  0  0  0  0  0  0  0  0  0
  132.0379  126.6406   61.9446 H   0  0  0  0  0  0  0  0  0  0  0  0
  132.4387  125.7038   60.4652 H   0  0  0  0  0  0  0  0  0  0  0  0
  132.5955  127.4933   60.4652 H   0  0  0  0  0  0  0  0  0  0  0  0
  132.1450  124.7740   60.1940 H   0  0  0  0  0  0  0  0  0  0  0  0
  133.9713  122.6215   59.7748 H   0  0  0  0  0  0  0  0  0  0  0  0
  134.1000  120.1354   60.0446 H   0  0  0  0  0  0  0  0  0  0  0  0
  132.1843  118.8447   60.8957 H   0  0  0  0  0  0  0  0  0  0  0  0
  1  2  1  0
  2  3  2  0
  2  4  1  0
  4  5  1  0
  5  6  2  0
  6  7  1  0
  7  8  1  6
  7  9  1  0
  9 10  1  0
 10 11  1  0
 11 12  1  0
 12 13  1  0
 13 14  1  0
 14 15  1  0
 15 16  2  0
 16 17  1  0
 17 18  2  0
 17 19  1  0
 19 20  1  0
 20 21  1  0
 21 22  1  1
 21 23  1  0
 23 24  1  6
 23 25  1  0
 25 26  1  0
 25 27  1  0
 27 28  1  0
 28 29  1  1
  6 30  1  0
 30 31  1  0
 31 32  2  0
 32 33  1  0
 33 34  2  0
 34 35  1  0
 35 36  1  0
 36 37  2  0
 36 38  1  0
 35 39  2  0
 39  5  1  0
 28  7  1  0
 39 31  1  0
 28 11  1  0
 23 12  1  0
 21 15  1  0
  1 40  1  0
  1 41  1  0
  1 42  1  0
  8 43  1  0
  9 44  1  0
  9 45  1  0
 10 46  1  0
 10 47  1  0
 11 48  1  6
 12 49  1  1
 13 50  1  0
 13 51  1  0
 14 52  1  0
 14 53  1  0
 16 54  1  0
 19 55  1  0
 19 56  1  0
 20 57  1  0
 20 58  1  0
 22 59  1  0
 22 60  1  0
 22 61  1  0
 25 62  1  6
 26 63  1  0
 27 64  1  0
 27 65  1  0
 29 66  1  0
 29 67  1  0
 29 68  1  0
 30 69  1  0
 32 70  1  0
 33 71  1  0
 34 72  1  0
M  CHG  2  36   1  38  -1
M  END
>  <Binding energies>  (1) 
[-7.5]

>  <Ligand effiencies>  (1) 
[-0.17857142857142858]

>  <Interactions>  (1) 
["V-A:ILE:369:CG2:3237, V-B:PRO:540:CA:9855, V-B:ALA:541:CB:9864, H-A:TYR:531:OH:4795, V-B:TYR:539:CE2:9848, V-A:ASP:366:CG:3213, V-A:TYR:539:CD1:4873, V-A:LEU:363:CD1:3189, H-B:ALA:541:N:9863, V-A:GLU:543:CD:4908, V-B:PRO:540:CB:9857, V-B:TYR:539:CD2:9846, V-A:SER:385:CB:3409, V-B:GLU:543:CD:9880, V-A:MET:535:CE:4835, V-A:TYR:539:C:4867, V-A:ASP:366:CB:3212, V-A:LEU:475:CD2:4259, V-A:PRO:540:N:4884, H-A:TYR:539:N:4870, V-A:PRO:540:CB:4885, V-A:PRO:540:CA:4883, V-A:SER:385:CA:3407, V-B:PRO:540:C:9853, H-A:ASP:366:OD2:3215"]

$$$$
ZINC587663974
     RDKit          3D

 73 77  0  0  0  0  0  0  0  0999 V2000
  129.8870  118.1140   61.6650 C   0  0  0  0  0  0  0  0  0  0  0  0
  130.6840  119.1730   60.8920 C   0  0  0  0  0  0  0  0  0  0  0  0
  130.2840  120.6110   61.2620 C   0  0  0  0  0  0  0  0  0  0  0  0
  131.4370  121.6240   61.0910 C   0  0  0  0  0  0  0  0  0  0  0  0
  131.9700  122.1780   62.3430 N   0  0  0  0  0  0  0  0  0  0  0  0
  133.4230  122.3960   62.3090 C   0  0  0  0  0  0  0  0  0  0  0  0
  134.0430  122.5610   60.9030 C   0  0  0  0  0  0  0  0  0  0  0  0
  134.2290  124.0260   60.4600 C   0  0  0  0  0  0  0  0  0  0  0  0
  133.6290  124.3140   59.0770 C   0  0  0  0  0  0  0  0  0  0  0  0
  131.2800  123.3220   62.8060 C   0  0  0  0  0  0  0  0  0  0  0  0
  130.1970  123.2330   63.6920 C   0  0  0  0  0  0  0  0  0  0  0  0
  129.5410  124.3830   64.1280 C   0  0  0  0  0  0  0  0  0  0  0  0
  129.9510  125.6440   63.6800 C   0  0  0  0  0  0  0  0  0  0  0  0
  129.2330  126.8310   64.1660 C   0  0  0  0  0  0  0  0  0  0  0  0
  128.7400  127.6670   63.3260 N   0  0  0  0  0  0  0  0  0  0  0  0
  128.0250  128.7930   63.7390 N   0  0  0  0  0  0  0  0  0  0  0  0
  127.5240  129.4780   62.6610 C   0  0  0  0  0  0  0  0  0  0  0  0
  126.4330  129.2090   62.1430 O   0  0  0  0  0  0  0  0  0  0  0  0
  128.3000  130.5930   62.1250 C   0  0  0  0  0  0  0  0  0  0  0  0
  129.4530  131.1310   62.7310 C   0  0  0  0  0  0  0  0  0  0  0  0
  129.8840  132.1560   61.9110 C   0  0  0  0  0  0  0  0  0  0  0  0
  129.0190  132.1440   60.8510 N   0  0  0  0  0  0  0  0  0  0  0  0
  128.9610  133.0740   59.7300 C   0  0  0  0  0  0  0  0  0  0  0  0
  129.9780  132.7910   58.7230 N   0  0  0  0  0  0  0  0  0  0  0  0
  130.9900  131.8670   58.7920 C   0  0  0  0  0  0  0  0  0  0  0  0
  131.6210  131.9240   57.5650 C   0  0  0  0  0  0  0  0  0  0  0  0
  130.9090  132.8840   56.8390 C   0  0  0  0  0  0  0  0  0  0  0  0
  129.9120  133.3960   57.5270 N   0  0  0  0  0  0  0  0  0  0  0  0
  128.0750  131.2010   60.9720 N   0  0  0  0  0  0  0  0  0  0  0  0
  127.8810  129.2260   65.0510 C   0  0  0  0  0  0  0  0  0  0  0  0
  127.4130  130.3200   65.3870 O   0  0  0  0  0  0  0  0  0  0  0  0
  128.4210  128.2110   66.0490 C   0  0  0  0  0  0  0  0  0  0  0  0
  128.2790  128.4740   67.4180 C   0  0  0  0  0  0  0  0  0  0  0  0
  128.7830  127.5780   68.3600 C   0  0  0  0  0  0  0  0  0  0  0  0
  129.4400  126.4220   67.9440 C   0  0  0  0  0  0  0  0  0  0  0  0
  129.5960  126.1580   66.5850 C   0  0  0  0  0  0  0  0  0  0  0  0
  129.0920  127.0470   65.6210 C   0  0  0  0  0  0  0  0  0  0  0  0
  131.0370  125.7420   62.7910 C   0  0  0  0  0  0  0  0  0  0  0  0
  131.4880  126.9520   62.3230 O   0  0  0  0  0  0  0  0  0  0  0  0
  131.6900  124.5850   62.3650 C   0  0  0  0  0  0  0  0  0  0  0  0
  130.0107  118.2784   62.7456 H   0  0  0  0  0  0  0  0  0  0  0  0
  128.8218  118.1923   61.4018 H   0  0  0  0  0  0  0  0  0  0  0  0
  130.2571  117.1121   61.4018 H   0  0  0  0  0  0  0  0  0  0  0  0
  131.7531  119.0382   61.1129 H   0  0  0  0  0  0  0  0  0  0  0  0
  130.4664  119.0346   59.8227 H   0  0  0  0  0  0  0  0  0  0  0  0
  129.4487  120.9191   60.6160 H   0  0  0  0  0  0  0  0  0  0  0  0
  130.0037  120.6099   62.3257 H   0  0  0  0  0  0  0  0  0  0  0  0
  132.2598  121.1182   60.5645 H   0  0  0  0  0  0  0  0  0  0  0  0
  131.0177  122.4745   60.5334 H   0  0  0  0  0  0  0  0  0  0  0  0
  133.6415  123.3080   62.8839 H   0  0  0  0  0  0  0  0  0  0  0  0
  133.8729  121.4848   62.7301 H   0  0  0  0  0  0  0  0  0  0  0  0
  135.0287  122.0728   60.9016 H   0  0  0  0  0  0  0  0  0  0  0  0
  133.3388  122.1038   60.1924 H   0  0  0  0  0  0  0  0  0  0  0  0
  133.7406  124.6801   61.1973 H   0  0  0  0  0  0  0  0  0  0  0  0
  135.3106  124.2161   60.3960 H   0  0  0  0  0  0  0  0  0  0  0  0
  132.6432  124.7872   59.1963 H   0  0  0  0  0  0  0  0  0  0  0  0
  134.2956  124.9903   58.5217 H   0  0  0  0  0  0  0  0  0  0  0  0
  133.5182  123.3709   58.5217 H   0  0  0  0  0  0  0  0  0  0  0  0
  129.8621  122.2469   64.0462 H   0  0  0  0  0  0  0  0  0  0  0  0
  128.6966  124.2990   64.8279 H   0  0  0  0  0  0  0  0  0  0  0  0
  129.9180  130.8001   63.6713 H   0  0  0  0  0  0  0  0  0  0  0  0
  130.7355  132.8330   62.0744 H   0  0  0  0  0  0  0  0  0  0  0  0
  127.9687  133.0012   59.2609 H   0  0  0  0  0  0  0  0  0  0  0  0
  129.1470  134.0851   60.1214 H   0  0  0  0  0  0  0  0  0  0  0  0
  131.2445  131.2188   59.6435 H   0  0  0  0  0  0  0  0  0  0  0  0
  132.4927  131.3418   57.2317 H   0  0  0  0  0  0  0  0  0  0  0  0
  131.1553  133.1779   55.8080 H   0  0  0  0  0  0  0  0  0  0  0  0
  127.7685  129.3899   67.7505 H   0  0  0  0  0  0  0  0  0  0  0  0
  128.6616  127.7843   69.4337 H   0  0  0  0  0  0  0  0  0  0  0  0
  129.8361  125.7168   68.6895 H   0  0  0  0  0  0  0  0  0  0  0  0
  130.1187  125.2450   66.2638 H   0  0  0  0  0  0  0  0  0  0  0  0
  130.9870  127.6960   62.6650 H   0  0  0  0  0  0  0  0  0  0  0  0
  132.5402  124.6670   61.6718 H   0  0  0  0  0  0  0  0  0  0  0  0
  1  2  1  0
  2  3  1  0
  3  4  1  0
  4  5  1  0
  5  6  1  0
  6  7  1  0
  7  8  1  0
  8  9  1  0
  5 10  1  0
 10 11  2  0
 11 12  1  0
 12 13  2  0
 13 14  1  0
 14 15  2  0
 15 16  1  0
 16 17  1  0
 17 18  2  0
 17 19  1  0
 19 20  1  0
 20 21  2  0
 21 22  1  0
 22 23  1  0
 23 24  1  0
 24 25  1  0
 25 26  2  0
 26 27  1  0
 27 28  2  0
 22 29  1  0
 16 30  1  0
 30 31  2  0
 30 32  1  0
 32 33  2  0
 33 34  1  0
 34 35  2  0
 35 36  1  0
 36 37  2  0
 13 38  1  0
 38 39  1  0
 38 40  2  0
 40 10  1  0
 37 14  1  0
 29 19  2  0
 37 32  1  0
 28 24  1  0
  1 41  1  0
  1 42  1  0
  1 43  1  0
  2 44  1  0
  2 45  1  0
  3 46  1  0
  3 47  1  0
  4 48  1  0
  4 49  1  0
  6 50  1  0
  6 51  1  0
  7 52  1  0
  7 53  1  0
  8 54  1  0
  8 55  1  0
  9 56  1  0
  9 57  1  0
  9 58  1  0
 11 59  1  0
 12 60  1  0
 20 61  1  0
 21 62  1  0
 23 63  1  0
 23 64  1  0
 25 65  1  0
 26 66  1  0
 27 67  1  0
 33 68  1  0
 34 69  1  0
 35 70  1  0
 36 71  1  0
 39 72  1  0
 40 73  1  0
M  END
>  <Binding energies>  (1) 
[-8.82]

>  <Ligand effiencies>  (1) 
[-0.2151219512195122]

>  <Interactions>  (1) 
["V-A:ILE:369:CG2:3237, V-A:ASP:366:CA:3210, V-A:GLY:454:CA:4049, H-A:GLU:543:OE2:4910, V-A:ILE:369:CB:3236, V-B:GLU:543:CB:9878, V-A:ILE:538:CB:4862, V-B:ALA:541:CB:9864, V-B:TYR:539:CE2:9848, V-A:LEU:475:CG:4257, V-B:GLU:543:CG:9879, V-A:ASP:366:CG:3213, V-A:TYR:539:CD1:4873, V-A:LEU:363:CD1:3189, V-A:ILE:538:CA:4860, V-A:LEU:475:CD1:4258, V-A:GLU:543:CD:4908, H-B:TYR:484:OH:9319, V-B:HIS:456:CE1:9041, V-A:ILE:369:CD1:3239, V-A:HIS:456:CE1:4070, V-A:PRO:482:CB:4326, V-B:TYR:539:CD2:9846, V-A:GLU:543:CG:4907, V-B:GLU:543:CD:9880, V-A:TYR:539:C:4867, V-A:ASP:366:CB:3212, V-A:LEU:475:CD2:4259, H-A:ARG:545:NH2:4928, H-A:GLU:543:OE1:4909, V-A:GLU:543:CB:4906, V-A:PRO:540:N:4884, H-A:TYR:539:N:4870, V-A:PRO:540:CB:4885, V-A:PRO:540:CA:4883, V-A:PRO:540:CD:4887"]

$$$$
ZINC587666914
     RDKit          3D

 66 70  0  0  0  0  0  0  0  0999 V2000
  130.6100  126.5740   73.7880 C   0  0  0  0  0  0  0  0  0  0  0  0
  129.8570  127.8920   73.5460 C   0  0  0  0  0  0  0  0  0  0  0  0
  128.6910  127.7630   72.6610 N   0  0  0  0  0  0  0  0  0  0  0  0
  127.3720  127.7090   73.3040 C   0  0  0  0  0  0  0  0  0  0  0  0
  127.2000  128.7000   74.4670 C   0  0  0  0  0  0  0  0  0  0  0  0
  128.8470  127.5000   71.2670 C   0  0  0  0  0  0  0  0  0  0  0  0
  127.7810  127.0110   70.4910 C   0  0  0  0  0  0  0  0  0  0  0  0
  127.9290  126.7510   69.1310 C   0  0  0  0  0  0  0  0  0  0  0  0
  129.1560  126.9630   68.4950 C   0  0  0  0  0  0  0  0  0  0  0  0
  129.2590  126.6910   67.0500 C   0  0  0  0  0  0  0  0  0  0  0  0
  129.8160  125.6080   66.6470 N   0  0  0  0  0  0  0  0  0  0  0  0
  129.9710  125.3230   65.2930 N   0  0  0  0  0  0  0  0  0  0  0  0
  130.5580  124.1040   65.1180 C   0  0  0  0  0  0  0  0  0  0  0  0
  130.1150  123.0720   65.6300 O   0  0  0  0  0  0  0  0  0  0  0  0
  131.7670  124.0560   64.3040 C   0  0  0  0  0  0  0  0  0  0  0  0
  132.9780  124.7470   64.4880 C   0  0  0  0  0  0  0  0  0  0  0  0
  133.8810  124.4550   63.5850 N   0  0  0  0  0  0  0  0  0  0  0  0
  133.3110  123.5370   62.7910 N   0  0  0  0  0  0  0  0  0  0  0  0
  132.0050  123.2720   63.1750 C   0  0  0  0  0  0  0  0  0  0  0  0
  131.2570  122.3030   62.5230 N   0  0  0  0  0  0  0  0  0  0  0  0
  131.7240  121.8520   61.2080 C   0  0  2  0  0  0  0  0  0  0  0  0
  131.0430  120.5100   60.8910 C   0  0  0  0  0  0  0  0  0  0  0  0
  133.2660  121.7440   61.1670 C   0  0  0  0  0  0  0  0  0  0  0  0
  133.9800  123.0570   61.5760 C   0  0  1  0  0  0  0  0  0  0  0  0
  134.0230  124.1190   60.4450 C   0  0  0  0  0  0  0  0  0  0  0  0
  133.1290  125.0860   60.6570 F   0  0  0  0  0  0  0  0  0  0  0  0
  135.2150  124.7070   60.3420 F   0  0  0  0  0  0  0  0  0  0  0  0
  133.7410  123.5840   59.2570 F   0  0  0  0  0  0  0  0  0  0  0  0
  129.5310  126.0950   64.2320 C   0  0  0  0  0  0  0  0  0  0  0  0
  129.6420  125.7880   63.0380 O   0  0  0  0  0  0  0  0  0  0  0  0
  128.8630  127.3790   64.7060 C   0  0  0  0  0  0  0  0  0  0  0  0
  128.3700  128.2720   63.7440 C   0  0  0  0  0  0  0  0  0  0  0  0
  127.7280  129.4450   64.1390 C   0  0  0  0  0  0  0  0  0  0  0  0
  127.5690  129.7310   65.4940 C   0  0  0  0  0  0  0  0  0  0  0  0
  128.0570  128.8500   66.4570 C   0  0  0  0  0  0  0  0  0  0  0  0
  128.7170  127.6690   66.0790 C   0  0  0  0  0  0  0  0  0  0  0  0
  130.2350  127.4530   69.2490 C   0  0  0  0  0  0  0  0  0  0  0  0
  131.4690  127.6840   68.6890 O   0  0  0  0  0  0  0  0  0  0  0  0
  130.0730  127.7130   70.6110 C   0  0  0  0  0  0  0  0  0  0  0  0
  130.7086  126.4014   74.8699 H   0  0  0  0  0  0  0  0  0  0  0  0
  130.0503  125.7432   73.3336 H   0  0  0  0  0  0  0  0  0  0  0  0
  131.6100  126.6343   73.3336 H   0  0  0  0  0  0  0  0  0  0  0  0
  129.5126  128.2764   74.5174 H   0  0  0  0  0  0  0  0  0  0  0  0
  130.5615  128.5725   73.0454 H   0  0  0  0  0  0  0  0  0  0  0  0
  126.6080  127.9316   72.5445 H   0  0  0  0  0  0  0  0  0  0  0  0
  127.2671  126.6998   73.7288 H   0  0  0  0  0  0  0  0  0  0  0  0
  127.2931  128.1634   75.4227 H   0  0  0  0  0  0  0  0  0  0  0  0
  127.9768  129.4763   74.4051 H   0  0  0  0  0  0  0  0  0  0  0  0
  126.2070  129.1692   74.4051 H   0  0  0  0  0  0  0  0  0  0  0  0
  126.8073  126.8296   70.9696 H   0  0  0  0  0  0  0  0  0  0  0  0
  127.0727  126.3754   68.5517 H   0  0  0  0  0  0  0  0  0  0  0  0
  133.1496  125.4606   65.3074 H   0  0  0  0  0  0  0  0  0  0  0  0
  130.2510  122.3790   62.5590 H   0  0  0  0  0  0  0  0  0  0  0  0
  131.4504  122.5883   60.4379 H   0  0  0  0  0  0  0  0  0  0  0  0
  130.7839  119.9994   61.8302 H   0  0  0  0  0  0  0  0  0  0  0  0
  130.1281  120.6918   60.3080 H   0  0  0  0  0  0  0  0  0  0  0  0
  131.7299  119.8789   60.3080 H   0  0  0  0  0  0  0  0  0  0  0  0
  133.5792  120.9461   61.8564 H   0  0  0  0  0  0  0  0  0  0  0  0
  133.5513  121.5265   60.1272 H   0  0  0  0  0  0  0  0  0  0  0  0
  135.0442  122.8607   61.7734 H   0  0  0  0  0  0  0  0  0  0  0  0
  128.4901  128.0464   62.6741 H   0  0  0  0  0  0  0  0  0  0  0  0
  127.3468  130.1451   63.3810 H   0  0  0  0  0  0  0  0  0  0  0  0
  127.0572  130.6541   65.8037 H   0  0  0  0  0  0  0  0  0  0  0  0
  127.9241  129.0817   67.5241 H   0  0  0  0  0  0  0  0  0  0  0  0
  131.4560  127.6630   67.7300 H   0  0  0  0  0  0  0  0  0  0  0  0
  130.9283  128.0953   71.1875 H   0  0  0  0  0  0  0  0  0  0  0  0
  1  2  1  0
  2  3  1  0
  3  4  1  0
  4  5  1  0
  3  6  1  0
  6  7  2  0
  7  8  1  0
  8  9  2  0
  9 10  1  0
 10 11  2  0
 11 12  1  0
 12 13  1  0
 13 14  2  0
 13 15  1  0
 15 16  1  0
 16 17  2  0
 17 18  1  0
 18 19  1  0
 19 20  1  0
 20 21  1  0
 21 22  1  0
 21 23  1  0
 23 24  1  0
 24 25  1  0
 25 26  1  0
 25 27  1  0
 25 28  1  0
 12 29  1  0
 29 30  2  0
 29 31  1  0
 31 32  2  0
 32 33  1  0
 33 34  2  0
 34 35  1  0
 35 36  2  0
  9 37  1  0
 37 38  1  0
 37 39  2  0
 39  6  1  0
 36 10  1  0
 19 15  2  0
 36 31  1  0
 24 18  1  0
  1 40  1  0
  1 41  1  0
  1 42  1  0
  2 43  1  0
  2 44  1  0
  4 45  1  0
  4 46  1  0
  5 47  1  0
  5 48  1  0
  5 49  1  0
  7 50  1  0
  8 51  1  0
 16 52  1  0
 20 53  1  0
 21 54  1  6
 22 55  1  0
 22 56  1  0
 22 57  1  0
 23 58  1  0
 23 59  1  0
 24 60  1  1
 32 61  1  0
 33 62  1  0
 34 63  1  0
 35 64  1  0
 38 65  1  0
 39 66  1  0
M  END
>  <Binding energies>  (1) 
[-9.15]

>  <Ligand effiencies>  (1) 
[-0.22317073170731708]

>  <Interactions>  (1) 
["V-A:ILE:369:CG2:3237, V-A:ASP:366:CA:3210, V-A:GLY:454:CA:4049, V-B:GLU:543:C:9874, H-A:GLU:543:OE2:4910, V-B:HIS:456:CD2:9039, V-A:ILE:369:CB:3236, V-B:GLU:543:CB:9878, V-B:HIS:456:CB:9036, V-B:TYR:539:CE2:9848, V-A:TYR:484:CE2:4346, V-B:GLU:543:CG:9879, V-A:HIS:456:CD2:4068, V-A:ASP:366:CG:3213, V-B:LYS:547:CE:9922, V-A:GLU:543:CD:4908, V-A:TYR:484:CZ:4347, V-B:HIS:456:CE1:9041, H-A:GLY:454:N:4050, V-B:GLU:543:CA:9876, V-B:TYR:484:CZ:9318, V-A:HIS:456:CE1:4070, V-A:ILE:369:CD1:3239, V-B:GLY:544:C:9884, V-A:ASP:366:C:3208, V-B:TYR:539:CD2:9846, V-A:GLU:543:CG:4907, V-B:GLU:543:CD:9880, V-B:HIS:456:CG:9037, V-A:ILE:369:CG1:3238, V-A:ASP:366:CB:3212, V-A:LEU:475:CD2:4259, H-A:ARG:545:NH2:4928, V-A:ARG:545:CZ:4926, V-A:GLU:543:CB:4906, V-A:CYS:365:C:3204, H-A:TYR:484:OH:4348"]

$$$$
ZINC587680703
     RDKit          3D

 40 42  0  0  0  0  0  0  0  0999 V2000
  128.8470  132.5830   63.2690 C   0  0  0  0  0  0  0  0  0  0  0  0
  129.0430  132.5950   61.7380 C   0  0  0  0  0  0  0  0  0  0  0  0
  129.6710  131.3300   61.0290 C   0  0  2  0  0  0  0  0  0  0  0  0
  128.7210  130.0850   61.1040 C   0  0  0  0  0  0  0  0  0  0  0  0
  127.5040  130.1490   61.8190 C   0  0  0  0  0  0  0  0  0  0  0  0
  126.6370  129.0620   61.8990 C   0  0  0  0  0  0  0  0  0  0  0  0
  126.9630  127.8650   61.2750 C   0  0  0  0  0  0  0  0  0  0  0  0
  128.1620  127.7590   60.5820 C   0  0  0  0  0  0  0  0  0  0  0  0
  129.0400  128.8410   60.4980 C   0  0  0  0  0  0  0  0  0  0  0  0
  130.6660  128.5070   59.5560 Br  0  0  0  0  0  0  0  0  0  0  0  0
  130.8670  130.9230   61.7870 N   0  0  0  0  0  0  0  0  0  0  0  0
  132.1280  131.6070   61.5170 C   0  0  1  0  0  0  0  0  0  0  0  0
  133.2650  131.0700   62.4000 C   0  0  0  0  0  0  0  0  0  0  0  0
  132.4740  131.4780   60.0270 C   0  0  0  0  0  0  0  0  0  0  0  0
  131.3170  131.8540   59.1110 C   0  0  0  0  0  0  0  0  0  0  0  0
  131.6050  132.2980   57.8180 C   0  0  0  0  0  0  0  0  0  0  0  0
  130.5950  132.5870   56.9150 C   0  0  0  0  0  0  0  0  0  0  0  0
  129.2720  132.4310   57.2970 C   0  0  0  0  0  0  0  0  0  0  0  0
  128.2930  132.7070   56.4030 F   0  0  0  0  0  0  0  0  0  0  0  0
  128.9540  132.0040   58.5890 C   0  0  0  0  0  0  0  0  0  0  0  0
  127.0890  131.8470   58.9840 Br  0  0  0  0  0  0  0  0  0  0  0  0
  129.9700  131.7160   59.5390 C   0  0  0  0  0  0  0  0  0  0  0  0
  129.8272  132.6430   63.7646 H   0  0  0  0  0  0  0  0  0  0  0  0
  128.2322  133.4452   63.5667 H   0  0  0  0  0  0  0  0  0  0  0  0
  128.3420  131.6523   63.5667 H   0  0  0  0  0  0  0  0  0  0  0  0
  128.0518  132.7556   61.2888 H   0  0  0  0  0  0  0  0  0  0  0  0
  129.7935  133.3831   61.5775 H   0  0  0  0  0  0  0  0  0  0  0  0
  127.2331  131.0858   62.3279 H   0  0  0  0  0  0  0  0  0  0  0  0
  125.6932  129.1517   62.4569 H   0  0  0  0  0  0  0  0  0  0  0  0
  126.2767  127.0071   61.3292 H   0  0  0  0  0  0  0  0  0  0  0  0
  128.4234  126.8092   60.0925 H   0  0  0  0  0  0  0  0  0  0  0  0
  130.6550  130.9880   62.7720 H   0  0  0  0  0  0  0  0  0  0  0  0
  132.0082  132.6717   61.7660 H   0  0  0  0  0  0  0  0  0  0  0  0
  132.9974  131.1964   63.4594 H   0  0  0  0  0  0  0  0  0  0  0  0
  133.4222  130.0025   62.1864 H   0  0  0  0  0  0  0  0  0  0  0  0
  134.1894  131.6267   62.1864 H   0  0  0  0  0  0  0  0  0  0  0  0
  133.3246  132.1397   59.8064 H   0  0  0  0  0  0  0  0  0  0  0  0
  132.7140  130.4216   59.8360 H   0  0  0  0  0  0  0  0  0  0  0  0
  132.6542  132.4205   57.5110 H   0  0  0  0  0  0  0  0  0  0  0  0
  130.8414  132.9378   55.9020 H   0  0  0  0  0  0  0  0  0  0  0  0
  1  2  1  0
  3  2  1  1
  3  4  1  0
  4  5  2  0
  5  6  1  0
  6  7  2  0
  7  8  1  0
  8  9  2  0
  9 10  1  0
  3 11  1  0
 11 12  1  0
 12 13  1  0
 12 14  1  0
 14 15  1  0
 15 16  2  0
 16 17  1  0
 17 18  2  0
 18 19  1  0
 18 20  1  0
 20 21  1  0
 20 22  2  0
 22  3  1  0
  9  4  1  0
 22 15  1  0
  1 23  1  0
  1 24  1  0
  1 25  1  0
  2 26  1  0
  2 27  1  0
  5 28  1  0
  6 29  1  0
  7 30  1  0
  8 31  1  0
 11 32  1  0
 12 33  1  1
 13 34  1  0
 13 35  1  0
 13 36  1  0
 14 37  1  0
 14 38  1  0
 16 39  1  0
 17 40  1  0
M  END
>  <Binding energies>  (1) 
[-6.43]

>  <Ligand effiencies>  (1) 
[-0.27956521739130435]

>  <Interactions>  (1) 
["V-A:PRO:540:N:4884, V-A:LEU:363:CD1:3189, V-A:TYR:539:CG:4872, V-A:PRO:540:CB:4885, V-A:PRO:540:CA:4883, V-A:TYR:539:CZ:4877, V-A:TYR:539:CD1:4873, V-A:ALA:541:CB:4892, V-A:TYR:539:CD2:4874, V-A:MET:535:CE:4835, V-A:GLU:543:CD:4908, V-A:ASN:362:CG:3177, V-A:TYR:539:CE1:4875, H-A:GLU:543:OE1:4909, V-A:TYR:539:CE2:4876, V-A:ASN:362:CB:3176"]

$$$$
ZINC587681192
     RDKit          3D

 38 40  0  0  0  0  0  0  0  0999 V2000
  134.3560  123.9390   60.5600 C   0  0  0  0  0  0  0  0  0  0  0  0
  133.1860  124.0670   61.5470 C   0  0  2  0  0  0  0  0  0  0  0  0
  133.6410  124.6950   62.8850 C   0  0  0  0  0  0  0  0  0  0  0  0
  132.5630  124.6710   63.9650 C   0  0  0  0  0  0  0  0  0  0  0  0
  132.6620  125.5230   65.0700 C   0  0  0  0  0  0  0  0  0  0  0  0
  131.7340  125.4710   66.1020 C   0  0  0  0  0  0  0  0  0  0  0  0
  130.6890  124.5570   66.0440 C   0  0  0  0  0  0  0  0  0  0  0  0
  129.7980  124.5020   67.0610 F   0  0  0  0  0  0  0  0  0  0  0  0
  130.5630  123.7070   64.9450 C   0  0  0  0  0  0  0  0  0  0  0  0
  129.1100  122.4660   64.9240 Br  0  0  0  0  0  0  0  0  0  0  0  0
  131.4840  123.7620   63.8790 C   0  0  0  0  0  0  0  0  0  0  0  0
  131.3210  122.8920   62.6200 C   0  0  1  0  0  0  0  0  0  0  0  0
  130.1610  123.3520   61.7470 C   0  0  0  0  0  0  0  0  0  0  0  0
  129.1460  122.5610   61.3490 C   0  0  0  0  0  0  0  0  0  0  0  0
  127.9910  122.9600   60.5190 C   0  0  0  0  0  0  0  0  0  0  0  0
  126.8980  123.5800   61.1360 C   0  0  0  0  0  0  0  0  0  0  0  0
  125.7850  123.9690   60.3910 C   0  0  0  0  0  0  0  0  0  0  0  0
  125.7510  123.7400   59.0170 C   0  0  0  0  0  0  0  0  0  0  0  0
  126.8310  123.1220   58.3880 C   0  0  0  0  0  0  0  0  0  0  0  0
  126.7880  122.8100   56.5110 Br  0  0  0  0  0  0  0  0  0  0  0  0
  127.9450  122.7330   59.1340 C   0  0  0  0  0  0  0  0  0  0  0  0
  132.5390  122.7840   61.8130 N   0  0  0  0  0  0  0  0  0  0  0  0
  135.2977  123.8360   61.1191 H   0  0  0  0  0  0  0  0  0  0  0  0
  134.2064  123.0519   59.9271 H   0  0  0  0  0  0  0  0  0  0  0  0
  134.4017  124.8375   59.9271 H   0  0  0  0  0  0  0  0  0  0  0  0
  132.4536  124.7302   61.0636 H   0  0  0  0  0  0  0  0  0  0  0  0
  134.5148  124.1370   63.2525 H   0  0  0  0  0  0  0  0  0  0  0  0
  133.8753  125.7509   62.6844 H   0  0  0  0  0  0  0  0  0  0  0  0
  133.4889  126.2465   65.1225 H   0  0  0  0  0  0  0  0  0  0  0  0
  131.8259  126.1507   66.9619 H   0  0  0  0  0  0  0  0  0  0  0  0
  131.0986  121.8868   63.0076 H   0  0  0  0  0  0  0  0  0  0  0  0
  130.1514  124.4019   61.4191 H   0  0  0  0  0  0  0  0  0  0  0  0
  129.1807  121.5111   61.6752 H   0  0  0  0  0  0  0  0  0  0  0  0
  126.9172  123.7624   62.2206 H   0  0  0  0  0  0  0  0  0  0  0  0
  124.9337  124.4568   60.8883 H   0  0  0  0  0  0  0  0  0  0  0  0
  124.8731  124.0464   58.4292 H   0  0  0  0  0  0  0  0  0  0  0  0
  128.7937  122.2447   58.6328 H   0  0  0  0  0  0  0  0  0  0  0  0
  133.1930  122.1450   62.2400 H   0  0  0  0  0  0  0  0  0  0  0  0
  1  2  1  0
  2  3  1  0
  3  4  1  0
  4  5  2  0
  5  6  1  0
  6  7  2  0
  7  8  1  0
  7  9  1  0
  9 10  1  0
  9 11  2  0
 11 12  1  0
 12 13  1  0
 13 14  2  0
 14 15  1  0
 15 16  2  0
 16 17  1  0
 17 18  2  0
 18 19  1  0
 19 20  1  0
 19 21  2  0
 12 22  1  0
 22  2  1  0
 11  4  1  0
 21 15  1  0
  1 23  1  0
  1 24  1  0
  1 25  1  0
  2 26  1  6
  3 27  1  0
  3 28  1  0
  5 29  1  0
  6 30  1  0
 12 31  1  1
 13 32  1  0
 14 33  1  0
 16 34  1  0
 17 35  1  0
 18 36  1  0
 21 37  1  0
 22 38  1  0
M  END
>  <Binding energies>  (1) 
[-7.5]

>  <Ligand effiencies>  (1) 
[-0.32608695652173914]

>  <Interactions>  (1) 
["V-A:ILE:369:CG2:3237, V-A:ASP:366:CA:3210, V-B:PRO:540:CA:9855, V-A:ILE:369:CB:3236, V-B:GLU:543:CB:9878, V-B:ALA:541:CB:9864, V-B:TYR:539:CE2:9848, V-A:TYR:484:CE2:4346, V-B:GLU:543:CG:9879, V-B:TYR:539:C:9839, V-A:GLU:543:CD:4908, V-A:TYR:484:CZ:4347, V-B:PRO:540:CB:9857, V-B:GLU:543:CA:9876, V-B:PRO:540:N:9856, V-A:HIS:456:CE1:4070, V-A:ILE:369:CD1:3239, V-B:TYR:539:CD2:9846, V-A:LEU:475:CD2:4259, V-A:ARG:545:CZ:4926"]

$$$$
ZINC587683556
     RDKit          3D

 36 38  0  0  0  0  0  0  0  0999 V2000
  130.6070  125.2850   66.1490 C   0  0  0  0  0  0  0  0  0  0  0  0
  130.9930  125.0850   64.6760 C   0  0  2  0  0  0  0  0  0  0  0  0
  132.4770  124.7180   64.5180 C   0  0  0  0  0  0  0  0  0  0  0  0
  132.8610  124.5440   63.0550 C   0  0  0  0  0  0  0  0  0  0  0  0
  133.9570  123.7380   62.7360 C   0  0  0  0  0  0  0  0  0  0  0  0
  134.3500  123.5470   61.4200 C   0  0  0  0  0  0  0  0  0  0  0  0
  133.6350  124.1520   60.3990 C   0  0  0  0  0  0  0  0  0  0  0  0
  134.0170  123.9430   59.1170 F   0  0  0  0  0  0  0  0  0  0  0  0
  132.5270  124.9530   60.6880 C   0  0  0  0  0  0  0  0  0  0  0  0
  131.5840  125.6590   59.1810 Br  0  0  0  0  0  0  0  0  0  0  0  0
  132.1160  125.1850   62.0290 C   0  0  0  0  0  0  0  0  0  0  0  0
  130.8680  126.0690   62.4160 C   0  0  1  0  0  0  0  0  0  0  0  0
  131.0810  127.4910   61.8090 C   0  0  0  0  0  0  0  0  0  0  0  0
  129.5140  125.4480   61.9360 C   0  0  0  0  0  0  0  0  0  0  0  0
  128.6360  126.3090   61.3390 N   0  0  0  0  0  0  0  0  0  0  0  0
  127.4480  125.8490   60.8810 C   0  0  0  0  0  0  0  0  0  0  0  0
  127.0780  124.5120   60.9730 C   0  0  0  0  0  0  0  0  0  0  0  0
  125.3960  123.9190   60.3070 Br  0  0  0  0  0  0  0  0  0  0  0  0
  127.9710  123.6160   61.5540 C   0  0  0  0  0  0  0  0  0  0  0  0
  129.2030  124.0690   62.0350 C   0  0  0  0  0  0  0  0  0  0  0  0
  130.2800  122.8810   62.6870 Cl  0  0  0  0  0  0  0  0  0  0  0  0
  130.7860  126.2800   63.8710 N   0  0  0  0  0  0  0  0  0  0  0  0
  131.3980  124.8751   66.7942 H   0  0  0  0  0  0  0  0  0  0  0  0
  130.4865  126.3590   66.3539 H   0  0  0  0  0  0  0  0  0  0  0  0
  129.6601  124.7641   66.3539 H   0  0  0  0  0  0  0  0  0  0  0  0
  130.3393  124.2710   64.3295 H   0  0  0  0  0  0  0  0  0  0  0  0
  133.0909  125.5194   64.9549 H   0  0  0  0  0  0  0  0  0  0  0  0
  132.6509  123.7624   65.0343 H   0  0  0  0  0  0  0  0  0  0  0  0
  134.5184  123.2459   63.5438 H   0  0  0  0  0  0  0  0  0  0  0  0
  135.2233  122.9196   61.1883 H   0  0  0  0  0  0  0  0  0  0  0  0
  131.1908  128.2240   62.6218 H   0  0  0  0  0  0  0  0  0  0  0  0
  131.9894  127.4926   61.1887 H   0  0  0  0  0  0  0  0  0  0  0  0
  130.2129  127.7587   61.1887 H   0  0  0  0  0  0  0  0  0  0  0  0
  126.7484  126.5606   60.4182 H   0  0  0  0  0  0  0  0  0  0  0  0
  127.7072  122.5512   61.6347 H   0  0  0  0  0  0  0  0  0  0  0  0
  131.4690  126.9730   64.1400 H   0  0  0  0  0  0  0  0  0  0  0  0
  1  2  1  0
  2  3  1  0
  3  4  1  0
  4  5  2  0
  5  6  1  0
  6  7  2  0
  7  8  1  0
  7  9  1  0
  9 10  1  0
  9 11  2  0
 11 12  1  0
 12 13  1  6
 12 14  1  0
 14 15  2  0
 15 16  1  0
 16 17  2  0
 17 18  1  0
 17 19  1  0
 19 20  2  0
 20 21  1  0
 12 22  1  0
 22  2  1  0
 11  4  1  0
 20 14  1  0
  1 23  1  0
  1 24  1  0
  1 25  1  0
  2 26  1  6
  3 27  1  0
  3 28  1  0
  5 29  1  0
  6 30  1  0
 13 31  1  0
 13 32  1  0
 13 33  1  0
 16 34  1  0
 19 35  1  0
 22 36  1  0
M  END
>  <Binding energies>  (1) 
[-6.7]

>  <Ligand effiencies>  (1) 
[-0.29130434782608694]

>  <Interactions>  (1) 
["V-A:ILE:369:CG2:3237, V-A:ASP:366:CA:3210, V-A:ILE:369:CD1:3239, V-B:PRO:540:CA:9855, V-A:GLY:454:CA:4049, H-A:GLU:543:OE2:4910, V-A:ILE:369:CB:3236, V-B:TYR:539:CE2:9848, V-A:GLU:543:CD:4908, V-A:ASP:366:CB:3212, V-B:PRO:540:CB:9857, V-A:LEU:475:CD2:4259, H-A:ARG:545:NH2:4928, V-A:ARG:545:CZ:4926, H-A:GLU:543:OE1:4909, V-A:ASP:366:CG:3213"]

$$$$
ZINC587683556-again1
     RDKit          3D

 37 39  0  0  0  0  0  0  0  0999 V2000
  130.2550  125.7930   65.9450 C   0  0  0  0  0  0  0  0  0  0  0  0
  130.7590  125.3850   64.5500 C   0  0  2  0  0  0  0  0  0  0  0  0
  132.2770  125.2000   64.4730 C   0  0  0  0  0  0  0  0  0  0  0  0
  132.7350  124.9040   63.0510 C   0  0  0  0  0  0  0  0  0  0  0  0
  133.8730  124.1120   62.8700 C   0  0  0  0  0  0  0  0  0  0  0  0
  134.3560  123.8210   61.6050 C   0  0  0  0  0  0  0  0  0  0  0  0
  133.6990  124.3200   60.4920 C   0  0  0  0  0  0  0  0  0  0  0  0
  134.1770  124.0290   59.2600 F   0  0  0  0  0  0  0  0  0  0  0  0
  132.5540  125.1050   60.6420 C   0  0  0  0  0  0  0  0  0  0  0  0
  131.7150  125.6920   59.0250 Br  0  0  0  0  0  0  0  0  0  0  0  0
  132.0340  125.4190   61.9250 C   0  0  0  0  0  0  0  0  0  0  0  0
  130.7260  126.2810   62.0980 C   0  0  1  0  0  0  0  0  0  0  0  0
  130.9820  127.7130   61.5380 C   0  0  0  0  0  0  0  0  0  0  0  0
  129.4300  125.6020   61.5440 C   0  0  0  0  0  0  0  0  0  0  0  0
  128.5830  126.4310   60.8630 N   0  0  0  0  0  0  0  0  0  0  0  0
  127.4280  125.9430   60.3530 C   0  0  0  0  0  0  0  0  0  0  0  0
  127.0620  124.6080   60.4760 C   0  0  0  0  0  0  0  0  0  0  0  0
  125.4260  123.9740   59.7390 Br  0  0  0  0  0  0  0  0  0  0  0  0
  127.9260  123.7430   61.1430 C   0  0  0  0  0  0  0  0  0  0  0  0
  129.1240  124.2240   61.6780 C   0  0  0  0  0  0  0  0  0  0  0  0
  130.1660  123.0680   62.4340 Cl  0  0  0  0  0  0  0  0  0  0  0  0
  130.4220  126.5360   63.5960 N   0  0  0  0  0  0  0  0  0  0  0  0
  130.8658  125.2985   66.7147 H   0  0  0  0  0  0  0  0  0  0  0  0
  130.3345  126.8842   66.0589 H   0  0  0  0  0  0  0  0  0  0  0  0
  129.2043  125.4880   66.0589 H   0  0  0  0  0  0  0  0  0  0  0  0
  130.2833  124.4254   64.2992 H   0  0  0  0  0  0  0  0  0  0  0  0
  132.7669  126.1213   64.8212 H   0  0  0  0  0  0  0  0  0  0  0  0
  132.5517  124.3446   65.1077 H   0  0  0  0  0  0  0  0  0  0  0  0
  134.3958  123.7115   63.7511 H   0  0  0  0  0  0  0  0  0  0  0  0
  135.2547  123.1982   61.4849 H   0  0  0  0  0  0  0  0  0  0  0  0
  131.1078  128.4166   62.3741 H   0  0  0  0  0  0  0  0  0  0  0  0
  131.8936  127.7084   60.9223 H   0  0  0  0  0  0  0  0  0  0  0  0
  130.1253  128.0245   60.9223 H   0  0  0  0  0  0  0  0  0  0  0  0
  126.7532  126.6295   59.8207 H   0  0  0  0  0  0  0  0  0  0  0  0
  127.6650  122.6797   61.2488 H   0  0  0  0  0  0  0  0  0  0  0  0
  130.9210  127.3620   63.8970 H   0  0  0  0  0  0  0  0  0  0  0  0
  129.4400  126.7530   63.6800 H   0  0  0  0  0  0  0  0  0  0  0  0
  1  2  1  0
  2  3  1  0
  3  4  1  0
  4  5  2  0
  5  6  1  0
  6  7  2  0
  7  8  1  0
  7  9  1  0
  9 10  1  0
  9 11  2  0
 11 12  1  0
 12 13  1  6
 12 14  1  0
 14 15  2  0
 15 16  1  0
 16 17  2  0
 17 18  1  0
 17 19  1  0
 19 20  2  0
 20 21  1  0
 12 22  1  0
 22  2  1  0
 11  4  1  0
 20 14  1  0
  1 23  1  0
  1 24  1  0
  1 25  1  0
  2 26  1  6
  3 27  1  0
  3 28  1  0
  5 29  1  0
  6 30  1  0
 13 31  1  0
 13 32  1  0
 13 33  1  0
 16 34  1  0
 19 35  1  0
 22 36  1  0
 22 37  1  0
M  CHG  1  22   1
M  END
>  <Binding energies>  (1) 
[-7.64]

>  <Ligand effiencies>  (1) 
[-0.3183333333333333]

>  <Interactions>  (1) 
["V-A:ILE:369:CG2:3237, V-A:ASP:366:CA:3210, V-A:ILE:369:CD1:3239, V-B:PRO:540:CA:9855, V-A:GLY:454:CA:4049, H-B:GLU:543:OE1:9881, H-A:GLU:543:OE2:4910, V-A:ILE:369:CB:3236, V-A:ARG:545:CZ:4926, V-A:GLU:543:CD:4908, V-B:PRO:540:CB:9857, V-A:ASP:366:CB:3212, V-B:GLU:543:CG:9879, H-A:GLU:543:OE1:4909, V-A:ASP:366:CG:3213"]

$$$$
ZINC587685589
     RDKit          3D

 37 40  0  0  0  0  0  0  0  0999 V2000
  127.2390  123.2160   59.3850 C   0  0  0  0  0  0  0  0  0  0  0  0
  128.6510  123.3170   59.9820 C   0  0  2  0  0  0  0  0  0  0  0  0
  129.2350  121.9240   60.3020 C   0  0  0  0  0  0  0  0  0  0  0  0
  130.6350  122.0200   60.8980 C   0  0  0  0  0  0  0  0  0  0  0  0
  131.5290  120.9540   60.7590 C   0  0  0  0  0  0  0  0  0  0  0  0
  132.8110  121.0210   61.2880 C   0  0  0  0  0  0  0  0  0  0  0  0
  133.2240  122.1710   61.9480 C   0  0  0  0  0  0  0  0  0  0  0  0
  134.4840  122.2360   62.4390 F   0  0  0  0  0  0  0  0  0  0  0  0
  132.3510  123.2520   62.0880 C   0  0  0  0  0  0  0  0  0  0  0  0
  133.0330  124.8300   62.9230 Br  0  0  0  0  0  0  0  0  0  0  0  0
  131.0300  123.1870   61.5910 C   0  0  0  0  0  0  0  0  0  0  0  0
  130.0410  124.3740   61.6880 C   0  0  2  0  0  0  0  0  0  0  0  0
  129.8540  124.9470   63.0830 C   0  0  0  0  0  0  0  0  0  0  0  0
  129.3660  126.1620   63.5500 C   0  0  0  0  0  0  0  0  0  0  0  0
  129.4290  126.1080   64.9760 C   0  0  0  0  0  0  0  0  0  0  0  0
  129.1140  126.9660   66.0410 C   0  0  0  0  0  0  0  0  0  0  0  0
  129.3280  126.5210   67.3490 C   0  0  0  0  0  0  0  0  0  0  0  0
  128.9070  127.6710   68.8070 Br  0  0  0  0  0  0  0  0  0  0  0  0
  129.8440  125.2490   67.6080 C   0  0  0  0  0  0  0  0  0  0  0  0
  130.1660  124.3710   66.5710 C   0  0  0  0  0  0  0  0  0  0  0  0
  129.9490  124.8280   65.2660 C   0  0  0  0  0  0  0  0  0  0  0  0
  130.1960  124.1270   64.1220 O   0  0  0  0  0  0  0  0  0  0  0  0
  128.6820  124.0950   61.2140 N   0  0  0  0  0  0  0  0  0  0  0  0
  126.5000  123.1631   60.1981 H   0  0  0  0  0  0  0  0  0  0  0  0
  127.0389  124.1021   58.7647 H   0  0  0  0  0  0  0  0  0  0  0  0
  127.1671  122.3104   58.7647 H   0  0  0  0  0  0  0  0  0  0  0  0
  129.2537  123.8206   59.2118 H   0  0  0  0  0  0  0  0  0  0  0  0
  128.5753  121.4183   61.0225 H   0  0  0  0  0  0  0  0  0  0  0  0
  129.3020  121.3572   59.3616 H   0  0  0  0  0  0  0  0  0  0  0  0
  131.2117  120.0479   60.2221 H   0  0  0  0  0  0  0  0  0  0  0  0
  133.4965  120.1669   61.1848 H   0  0  0  0  0  0  0  0  0  0  0  0
  130.5503  125.0925   61.0290 H   0  0  0  0  0  0  0  0  0  0  0  0
  129.0020  127.0018   62.9399 H   0  0  0  0  0  0  0  0  0  0  0  0
  128.7064  127.9697   65.8502 H   0  0  0  0  0  0  0  0  0  0  0  0
  129.9998  124.9326   68.6499 H   0  0  0  0  0  0  0  0  0  0  0  0
  130.5710  123.3679   66.7703 H   0  0  0  0  0  0  0  0  0  0  0  0
  128.1910  123.5740   61.9280 H   0  0  0  0  0  0  0  0  0  0  0  0
  1  2  1  0
  2  3  1  0
  3  4  1  0
  4  5  2  0
  5  6  1  0
  6  7  2  0
  7  8  1  0
  7  9  1  0
  9 10  1  0
  9 11  2  0
 11 12  1  0
 12 13  1  0
 13 14  2  0
 14 15  1  0
 15 16  2  0
 16 17  1  0
 17 18  1  0
 17 19  2  0
 19 20  1  0
 20 21  2  0
 21 22  1  0
 12 23  1  0
 23  2  1  0
 11  4  1  0
 22 13  1  0
 21 15  1  0
  1 24  1  0
  1 25  1  0
  1 26  1  0
  2 27  1  6
  3 28  1  0
  3 29  1  0
  5 30  1  0
  6 31  1  0
 12 32  1  6
 14 33  1  0
 16 34  1  0
 19 35  1  0
 20 36  1  0
 23 37  1  0
M  END
>  <Binding energies>  (1) 
[-6.7]

>  <Ligand effiencies>  (1) 
[-0.2791666666666667]

>  <Interactions>  (1) 
["V-B:PRO:540:CA:9855, V-A:GLY:454:CA:4049, V-B:GLU:543:CB:9878, V-B:TYR:539:CE2:9848, V-A:TYR:484:CE2:4346, V-B:GLU:543:CG:9879, V-B:TYR:539:C:9839, H-B:GLU:543:OE1:9881, V-A:GLU:543:CD:4908, V-B:PRO:540:CB:9857, V-A:TYR:484:CZ:4347, V-B:GLU:543:CA:9876, V-B:HIS:456:CE1:9041, V-A:SER:385:C:3405, V-A:GLY:453:C:4042, V-B:PRO:540:N:9856, V-A:ILE:369:CD1:3239, V-A:HIS:456:CE1:4070, V-B:TYR:539:CD2:9846, V-A:SER:385:CB:3409, V-B:GLU:543:CD:9880, V-A:LEU:475:CD2:4259, V-A:ARG:545:CZ:4926, V-A:GLU:543:CB:4906"]

$$$$
ZINC587691236
     RDKit          3D

 85 91  0  0  0  0  0  0  0  0999 V2000
  133.8730  123.6270   59.5450 C   0  0  0  0  0  0  0  0  0  0  0  0
  132.5940  124.4420   59.8000 C   0  0  2  0  0  0  0  0  0  0  0  0
  132.7440  125.3940   61.0000 C   0  0  0  0  0  0  0  0  0  0  0  0
  131.9880  124.9470   62.2440 C   0  0  0  0  0  0  0  0  0  0  0  0
  132.5410  125.2780   63.4830 C   0  0  0  0  0  0  0  0  0  0  0  0
  131.9290  124.9120   64.6650 C   0  0  0  0  0  0  0  0  0  0  0  0
  130.7510  124.1940   64.6220 C   0  0  0  0  0  0  0  0  0  0  0  0
  130.1680  123.8400   65.7910 F   0  0  0  0  0  0  0  0  0  0  0  0
  130.1700  123.8380   63.3990 C   0  0  0  0  0  0  0  0  0  0  0  0
  128.5420  122.8410   63.5960 Br  0  0  0  0  0  0  0  0  0  0  0  0
  130.7670  124.2190   62.1490 C   0  0  0  0  0  0  0  0  0  0  0  0
  130.2350  123.8370   60.7020 C   0  0  1  0  0  0  0  0  0  0  0  0
  129.6160  122.3790   60.7820 C   0  0  0  0  0  0  0  0  0  0  0  0
  130.7100  120.9490   60.8850 Cl  0  0  0  0  0  0  0  0  0  0  0  0
  129.2120  124.9550   60.0610 C   0  0  1  0  0  0  0  0  0  0  0  0
  129.3400  124.9350   58.6030 O   0  0  0  0  0  0  0  0  0  0  0  0
  128.4590  125.2900   57.6170 C   0  0  0  0  0  0  0  0  0  0  0  0
  128.3130  126.4000   57.1110 O   0  0  0  0  0  0  0  0  0  0  0  0
  127.6120  124.1600   57.2530 C   0  0  0  0  0  0  0  0  0  0  0  0
  127.8540  122.7990   57.0930 C   0  0  0  0  0  0  0  0  0  0  0  0
  126.6390  122.2080   56.7400 C   0  0  0  0  0  0  0  0  0  0  0  0
  125.7080  123.2310   56.7000 C   0  0  0  0  0  0  0  0  0  0  0  0
  126.2980  124.4140   57.0090 O   0  0  0  0  0  0  0  0  0  0  0  0
  127.6860  124.9690   60.5520 C   0  0  2  0  0  0  0  0  0  0  0  0
  126.6350  123.9540   60.0430 C   0  0  0  0  0  0  0  0  0  0  0  0
  127.1320  126.4060   60.4070 C   0  0  0  0  0  0  0  0  0  0  0  0
  128.2760  127.2180   59.8220 C   0  0  1  0  0  0  0  0  0  0  0  0
  128.2480  128.7700   59.9820 C   0  0  2  0  0  0  0  0  0  0  0  0
  126.9000  129.3950   59.5450 C   0  0  0  0  0  0  0  0  0  0  0  0
  126.8610  130.9200   59.7340 C   0  0  0  0  0  0  0  0  0  0  0  0
  128.0450  131.5570   59.0070 C   0  0  0  0  0  0  0  0  0  0  0  0
  127.8740  132.4850   58.0330 C   0  0  0  0  0  0  0  0  0  0  0  0
  128.9530  133.1250   57.2790 C   0  0  0  0  0  0  0  0  0  0  0  0
  128.7550  133.9700   56.4080 O   0  0  0  0  0  0  0  0  0  0  0  0
  130.2860  132.6650   57.6600 C   0  0  0  0  0  0  0  0  0  0  0  0
  130.5180  131.7450   58.6160 C   0  0  0  0  0  0  0  0  0  0  0  0
  129.4420  131.0360   59.4600 C   0  0  1  0  0  0  0  0  0  0  0  0
  129.6600  131.5260   60.9220 C   0  0  0  0  0  0  0  0  0  0  0  0
  129.4660  129.4550   59.2530 C   0  0  2  0  0  0  0  0  0  0  0  0
  129.2730  129.1590   57.4770 Cl  0  0  0  0  0  0  0  0  0  0  0  0
  130.8210  128.7340   59.6210 C   0  0  1  0  0  0  0  0  0  0  0  0
  131.3870  129.1110   60.8590 O   0  0  0  0  0  0  0  0  0  0  0  0
  130.7300  127.1810   59.5260 C   0  0  0  0  0  0  0  0  0  0  0  0
  129.5640  126.5140   60.3500 C   0  0  2  0  0  0  0  0  0  0  0  0
  129.7620  126.7980   61.8800 C   0  0  0  0  0  0  0  0  0  0  0  0
  131.4340  123.5620   59.8800 N   0  0  0  0  0  0  0  0  0  0  0  0
  134.3230  123.3403   60.5069 H   0  0  0  0  0  0  0  0  0  0  0  0
  133.6228  122.7215   58.9728 H   0  0  0  0  0  0  0  0  0  0  0  0
  134.5881  124.2363   58.9728 H   0  0  0  0  0  0  0  0  0  0  0  0
  132.4220  125.1048   58.9391 H   0  0  0  0  0  0  0  0  0  0  0  0
  133.8122  125.4670   61.2521 H   0  0  0  0  0  0  0  0  0  0  0  0
  132.3134  126.3594   60.6959 H   0  0  0  0  0  0  0  0  0  0  0  0
  133.4845  125.8425   63.5177 H   0  0  0  0  0  0  0  0  0  0  0  0
  132.3755  125.1897   65.6312 H   0  0  0  0  0  0  0  0  0  0  0  0
  128.9730  122.3538   61.6742 H   0  0  0  0  0  0  0  0  0  0  0  0
  129.1238  122.2555   59.8060 H   0  0  0  0  0  0  0  0  0  0  0  0
  128.8188  122.2862   57.2204 H   0  0  0  0  0  0  0  0  0  0  0  0
  126.4582  121.1425   56.5348 H   0  0  0  0  0  0  0  0  0  0  0  0
  124.6435  123.1040   56.4534 H   0  0  0  0  0  0  0  0  0  0  0  0
  127.8066  124.5964   61.5799 H   0  0  0  0  0  0  0  0  0  0  0  0
  126.1405  123.4765   60.9017 H   0  0  0  0  0  0  0  0  0  0  0  0
  125.8847  124.4780   59.4327 H   0  0  0  0  0  0  0  0  0  0  0  0
  127.1326  123.1859   59.4327 H   0  0  0  0  0  0  0  0  0  0  0  0
  126.2648  126.4185   59.7303 H   0  0  0  0  0  0  0  0  0  0  0  0
  126.7895  126.8133   61.3697 H   0  0  0  0  0  0  0  0  0  0  0  0
  128.2028  127.2060   58.7245 H   0  0  0  0  0  0  0  0  0  0  0  0
  128.3493  128.9689   61.0591 H   0  0  0  0  0  0  0  0  0  0  0  0
  126.7361  129.1685   58.4811 H   0  0  0  0  0  0  0  0  0  0  0  0
  126.1131  128.9625   60.1804 H   0  0  0  0  0  0  0  0  0  0  0  0
  125.9216  131.3162   59.3210 H   0  0  0  0  0  0  0  0  0  0  0  0
  126.9204  131.1569   60.8065 H   0  0  0  0  0  0  0  0  0  0  0  0
  126.8425  132.7802   57.7904 H   0  0  0  0  0  0  0  0  0  0  0  0
  131.1516  133.0954   57.1351 H   0  0  0  0  0  0  0  0  0  0  0  0
  131.5668  131.4767   58.8110 H   0  0  0  0  0  0  0  0  0  0  0  0
  129.3156  130.7518   61.6234 H   0  0  0  0  0  0  0  0  0  0  0  0
  130.7298  131.7211   61.0877 H   0  0  0  0  0  0  0  0  0  0  0  0
  129.0886  132.4512   61.0877 H   0  0  0  0  0  0  0  0  0  0  0  0
  131.5095  129.0978   58.8441 H   0  0  0  0  0  0  0  0  0  0  0  0
  132.1950  129.5990   60.6890 H   0  0  0  0  0  0  0  0  0  0  0  0
  130.5916  126.9145   58.4678 H   0  0  0  0  0  0  0  0  0  0  0  0
  131.6639  126.7982   59.9635 H   0  0  0  0  0  0  0  0  0  0  0  0
  129.2298  126.0346   62.4665 H   0  0  0  0  0  0  0  0  0  0  0  0
  130.8343  126.7656   62.1232 H   0  0  0  0  0  0  0  0  0  0  0  0
  129.3608  127.7929   62.1232 H   0  0  0  0  0  0  0  0  0  0  0  0
  131.7570  122.6310   60.1000 H   0  0  0  0  0  0  0  0  0  0  0  0
  1  2  1  0
  2  3  1  0
  3  4  1  0
  4  5  2  0
  5  6  1  0
  6  7  2  0
  7  8  1  0
  7  9  1  0
  9 10  1  0
  9 11  2  0
 11 12  1  0
 12 13  1  1
 13 14  1  0
 12 15  1  0
 15 16  1  6
 16 17  1  0
 17 18  2  0
 17 19  1  0
 19 20  2  0
 20 21  1  0
 21 22  2  0
 22 23  1  0
 15 24  1  0
 24 25  1  0
 24 26  1  0
 26 27  1  0
 27 28  1  0
 28 29  1  0
 29 30  1  0
 30 31  1  0
 31 32  2  0
 32 33  1  0
 33 34  2  0
 33 35  1  0
 35 36  2  0
 36 37  1  0
 37 38  1  1
 37 39  1  0
 39 40  1  6
 39 41  1  0
 41 42  1  0
 41 43  1  0
 43 44  1  0
 44 45  1  1
 12 46  1  0
 46  2  1  0
 11  4  1  0
 44 15  1  0
 23 19  1  0
 44 27  1  0
 39 28  1  0
 37 31  1  0
  1 47  1  0
  1 48  1  0
  1 49  1  0
  2 50  1  6
  3 51  1  0
  3 52  1  0
  5 53  1  0
  6 54  1  0
 13 55  1  0
 13 56  1  0
 20 57  1  0
 21 58  1  0
 22 59  1  0
 24 60  1  1
 25 61  1  0
 25 62  1  0
 25 63  1  0
 26 64  1  0
 26 65  1  0
 27 66  1  6
 28 67  1  1
 29 68  1  0
 29 69  1  0
 30 70  1  0
 30 71  1  0
 32 72  1  0
 35 73  1  0
 36 74  1  0
 38 75  1  0
 38 76  1  0
 38 77  1  0
 41 78  1  6
 42 79  1  0
 43 80  1  0
 43 81  1  0
 45 82  1  0
 45 83  1  0
 45 84  1  0
 46 85  1  0
M  END
>  <Binding energies>  (1) 
[-9.82]

>  <Ligand effiencies>  (1) 
[-0.20458333333333334]

>  <Interactions>  (1) 
["V-A:ILE:369:CG2:3237, V-B:TYR:539:CA:9841, V-B:PRO:540:CA:9855, V-A:ILE:369:CB:3236, V-B:TYR:539:CE1:9847, V-B:ALA:541:CB:9864, V-B:TYR:539:CE2:9848, V-A:TYR:484:CE2:4346, V-B:GLU:543:CG:9879, V-B:TYR:539:C:9839, V-A:ASP:366:CG:3213, V-A:TYR:539:CD1:4873, V-B:TYR:539:CZ:9849, V-A:TYR:539:CZ:4877, V-A:TYR:539:CA:4869, V-A:TYR:484:CZ:4347, V-B:PRO:540:CB:9857, V-B:PRO:540:N:9856, V-A:ILE:369:CD1:3239, V-B:TYR:539:CD2:9846, V-B:PRO:540:CD:9859, V-A:MET:535:CE:4835, V-B:GLU:543:CD:9880, V-A:TYR:539:C:4867, V-A:ASP:366:CB:3212, V-A:LEU:475:CD2:4259, V-A:ARG:545:CZ:4926, H-A:GLU:543:OE1:4909, V-B:TYR:539:CG:9844, V-B:TYR:539:CD1:9845, V-A:PRO:540:N:4884, V-A:TYR:539:CG:4872, H-A:TYR:539:N:4870, V-B:LEU:363:CD1:8160, V-A:PRO:540:CA:4883, V-B:MET:535:CE:9807, H-A:ASP:366:OD2:3215, V-A:TYR:539:CE1:4875"]

$$$$
ZINC587693145
     RDKit          3D

 36 38  0  0  0  0  0  0  0  0999 V2000
  129.0050  122.2730   65.2260 C   0  0  0  0  0  0  0  0  0  0  0  0
  129.1350  122.5630   63.7230 C   0  0  2  0  0  0  0  0  0  0  0  0
  127.7560  122.8720   63.0880 C   0  0  0  0  0  0  0  0  0  0  0  0
  127.8030  122.9890   61.5670 C   0  0  0  0  0  0  0  0  0  0  0  0
  126.7830  123.6420   60.8670 C   0  0  0  0  0  0  0  0  0  0  0  0
  126.7970  123.7160   59.4760 C   0  0  0  0  0  0  0  0  0  0  0  0
  125.3830  124.6100   58.5640 Br  0  0  0  0  0  0  0  0  0  0  0  0
  127.8440  123.1340   58.7650 C   0  0  0  0  0  0  0  0  0  0  0  0
  127.8760  123.1990   57.4140 F   0  0  0  0  0  0  0  0  0  0  0  0
  128.8700  122.4900   59.4510 C   0  0  0  0  0  0  0  0  0  0  0  0
  128.8690  122.4060   60.8500 C   0  0  0  0  0  0  0  0  0  0  0  0
  130.0560  121.7840   61.6010 C   0  0  1  0  0  0  0  0  0  0  0  0
  131.3640  122.5670   61.4350 C   0  0  0  0  0  0  0  0  0  0  0  0
  132.0730  122.9720   62.5700 C   0  0  0  0  0  0  0  0  0  0  0  0
  133.2670  123.6860   62.4470 C   0  0  0  0  0  0  0  0  0  0  0  0
  133.9330  124.0700   63.5840 O   0  0  0  0  0  0  0  0  0  0  0  0
  133.7680  124.0000   61.1770 C   0  0  0  0  0  0  0  0  0  0  0  0
  134.9430  124.7010   61.0550 O   0  0  0  0  0  0  0  0  0  0  0  0
  133.0650  123.5950   60.0350 C   0  0  0  0  0  0  0  0  0  0  0  0
  133.6480  123.9590   58.4480 Cl  0  0  0  0  0  0  0  0  0  0  0  0
  131.8720  122.8830   60.1680 C   0  0  0  0  0  0  0  0  0  0  0  0
  129.7620  121.4600   63.0000 N   0  0  0  0  0  0  0  0  0  0  0  0
  129.3890  123.1297   65.7993 H   0  0  0  0  0  0  0  0  0  0  0  0
  127.9469  122.1082   65.4775 H   0  0  0  0  0  0  0  0  0  0  0  0
  129.5860  121.3734   65.4775 H   0  0  0  0  0  0  0  0  0  0  0  0
  129.7829  123.4477   63.6358 H   0  0  0  0  0  0  0  0  0  0  0  0
  127.0600  122.0629   63.3544 H   0  0  0  0  0  0  0  0  0  0  0  0
  127.4288  123.8466   63.4792 H   0  0  0  0  0  0  0  0  0  0  0  0
  125.9556  124.1051   61.4246 H   0  0  0  0  0  0  0  0  0  0  0  0
  129.6974  122.0384   58.8841 H   0  0  0  0  0  0  0  0  0  0  0  0
  130.2235  120.8173   61.1036 H   0  0  0  0  0  0  0  0  0  0  0  0
  131.6865  122.7258   63.5700 H   0  0  0  0  0  0  0  0  0  0  0  0
  134.6730  124.6560   63.4080 H   0  0  0  0  0  0  0  0  0  0  0  0
  135.0710  125.3340   61.7660 H   0  0  0  0  0  0  0  0  0  0  0  0
  131.3244  122.5664   59.2681 H   0  0  0  0  0  0  0  0  0  0  0  0
  130.6200  121.1810   63.4540 H   0  0  0  0  0  0  0  0  0  0  0  0
  1  2  1  0
  2  3  1  0
  3  4  1  0
  4  5  2  0
  5  6  1  0
  6  7  1  0
  6  8  2  0
  8  9  1  0
  8 10  1  0
 10 11  2  0
 11 12  1  0
 12 13  1  0
 13 14  2  0
 14 15  1  0
 15 16  1  0
 15 17  2  0
 17 18  1  0
 17 19  1  0
 19 20  1  0
 19 21  2  0
 12 22  1  0
 22  2  1  0
 11  4  1  0
 21 13  1  0
  1 23  1  0
  1 24  1  0
  1 25  1  0
  2 26  1  1
  3 27  1  0
  3 28  1  0
  5 29  1  0
 10 30  1  0
 12 31  1  6
 14 32  1  0
 16 33  1  0
 18 34  1  0
 21 35  1  0
 22 36  1  0
M  END
>  <Binding energies>  (1) 
[-6.13]

>  <Ligand effiencies>  (1) 
[-0.2452]

>  <Interactions>  (1) 
["V-A:ILE:369:CG2:3237, V-A:ASP:366:CA:3210, V-B:PRO:540:CA:9855, V-A:ILE:369:CB:3236, V-B:GLU:543:CB:9878, V-B:ALA:541:CB:9864, V-B:TYR:539:CE2:9848, V-A:TYR:484:CE2:4346, V-B:GLU:543:CG:9879, V-B:TYR:539:C:9839, V-B:TYR:539:CZ:9849, V-B:PRO:540:CB:9857, V-B:GLU:543:CA:9876, H-A:GLY:454:N:4050, V-B:PRO:540:N:9856, V-A:ILE:369:CD1:3239, V-B:TYR:539:CD2:9846, V-B:GLU:543:CD:9880, V-A:LEU:475:CD2:4259, V-B:TYR:539:CG:9844, H-A:ASP:366:OD1:3214, V-B:ALA:541:CA:9862, V-B:TYR:539:CE1:9847"]

$$$$
ZINC587703072
     RDKit          3D

 43 45  0  0  0  0  0  0  0  0999 V2000
  128.7560  127.3580   62.6690 C   0  0  0  0  0  0  0  0  0  0  0  0
  129.2960  126.0120   62.1660 C   0  0  1  0  0  0  0  0  0  0  0  0
  130.8180  125.9280   62.3020 C   0  0  0  0  0  0  0  0  0  0  0  0
  131.3180  124.6320   61.6940 C   0  0  0  0  0  0  0  0  0  0  0  0
  132.5270  124.6350   60.9940 C   0  0  0  0  0  0  0  0  0  0  0  0
  133.0240  123.4800   60.4180 C   0  0  0  0  0  0  0  0  0  0  0  0
  132.3080  122.3000   60.5340 C   0  0  0  0  0  0  0  0  0  0  0  0
  132.8070  121.1780   59.9640 F   0  0  0  0  0  0  0  0  0  0  0  0
  131.0920  122.2680   61.2240 C   0  0  0  0  0  0  0  0  0  0  0  0
  130.2450  120.5540   61.2690 Br  0  0  0  0  0  0  0  0  0  0  0  0
  130.5520  123.4420   61.8270 C   0  0  0  0  0  0  0  0  0  0  0  0
  129.1850  123.5070   62.6160 C   0  0  1  0  0  0  0  0  0  0  0  0
  128.0070  122.8720   61.7990 C   0  0  0  0  0  0  0  0  0  0  0  0
  127.0630  123.8460   61.0540 C   0  0  0  0  0  0  0  0  0  0  0  0
  126.8890  123.4800   59.5880 C   0  0  0  0  0  0  0  0  0  0  0  0
  125.7060  123.8160   58.9240 C   0  0  0  0  0  0  0  0  0  0  0  0
  125.5430  123.4850   57.5820 C   0  0  0  0  0  0  0  0  0  0  0  0
  126.5650  122.8180   56.9080 C   0  0  0  0  0  0  0  0  0  0  0  0
  127.7470  122.4810   57.5640 C   0  0  0  0  0  0  0  0  0  0  0  0
  127.9110  122.8120   58.9060 C   0  0  0  0  0  0  0  0  0  0  0  0
  129.4060  122.8410   64.0240 C   0  0  0  0  0  0  0  0  0  0  0  0
  128.2750  122.4740   64.6220 F   0  0  0  0  0  0  0  0  0  0  0  0
  130.1570  121.7410   63.9350 F   0  0  0  0  0  0  0  0  0  0  0  0
  130.2310  123.9570   65.1590 Cl  0  0  0  0  0  0  0  0  0  0  0  0
  128.7290  124.8890   62.8990 N   0  0  0  0  0  0  0  0  0  0  0  0
  128.7535  127.3641   63.7690 H   0  0  0  0  0  0  0  0  0  0  0  0
  129.3973  128.1716   62.2992 H   0  0  0  0  0  0  0  0  0  0  0  0
  127.7302  127.5028   62.2992 H   0  0  0  0  0  0  0  0  0  0  0  0
  129.0044  125.9537   61.1070 H   0  0  0  0  0  0  0  0  0  0  0  0
  131.2788  126.7786   61.7783 H   0  0  0  0  0  0  0  0  0  0  0  0
  131.0893  125.9573   63.3676 H   0  0  0  0  0  0  0  0  0  0  0  0
  133.0939  125.5729   60.8992 H   0  0  0  0  0  0  0  0  0  0  0  0
  133.9792  123.4983   59.8727 H   0  0  0  0  0  0  0  0  0  0  0  0
  128.4483  122.1990   61.0491 H   0  0  0  0  0  0  0  0  0  0  0  0
  127.3727  122.3779   62.5497 H   0  0  0  0  0  0  0  0  0  0  0  0
  126.0776  123.8252   61.5423 H   0  0  0  0  0  0  0  0  0  0  0  0
  127.5143  124.8482   61.0974 H   0  0  0  0  0  0  0  0  0  0  0  0
  124.9037  124.3421   59.4621 H   0  0  0  0  0  0  0  0  0  0  0  0
  124.6133  123.7481   57.0563 H   0  0  0  0  0  0  0  0  0  0  0  0
  126.4368  122.5552   55.8476 H   0  0  0  0  0  0  0  0  0  0  0  0
  128.5478  121.9552   57.0233 H   0  0  0  0  0  0  0  0  0  0  0  0
  128.8423  122.5488   59.4289 H   0  0  0  0  0  0  0  0  0  0  0  0
  127.7190  124.9210   62.8960 H   0  0  0  0  0  0  0  0  0  0  0  0
  1  2  1  0
  2  3  1  0
  3  4  1  0
  4  5  2  0
  5  6  1  0
  6  7  2  0
  7  8  1  0
  7  9  1  0
  9 10  1  0
  9 11  2  0
 11 12  1  0
 12 13  1  6
 13 14  1  0
 14 15  1  0
 15 16  2  0
 16 17  1  0
 17 18  2  0
 18 19  1  0
 19 20  2  0
 12 21  1  0
 21 22  1  0
 21 23  1  0
 21 24  1  0
 12 25  1  0
 25  2  1  0
 11  4  1  0
 20 15  1  0
  1 26  1  0
  1 27  1  0
  1 28  1  0
  2 29  1  6
  3 30  1  0
  3 31  1  0
  5 32  1  0
  6 33  1  0
 13 34  1  0
 13 35  1  0
 14 36  1  0
 14 37  1  0
 16 38  1  0
 17 39  1  0
 18 40  1  0
 19 41  1  0
 20 42  1  0
 25 43  1  0
M  END
>  <Binding energies>  (1) 
[-6.76]

>  <Ligand effiencies>  (1) 
[-0.26]

>  <Interactions>  (1) 
["V-A:ILE:369:CG2:3237, V-B:TYR:539:CA:9841, V-B:PRO:540:CA:9855, V-B:GLU:543:CB:9878, V-B:ALA:541:CB:9864, V-B:TYR:539:CE2:9848, V-A:TYR:484:CE2:4346, V-A:LEU:475:CG:4257, V-B:GLU:543:CG:9879, V-B:TYR:539:C:9839, V-B:TYR:539:CZ:9849, H-B:GLU:543:OE1:9881, V-A:LEU:475:CD1:4258, V-A:TYR:484:CZ:4347, V-B:PRO:540:CB:9857, V-B:GLU:543:CA:9876, V-B:PRO:540:N:9856, V-B:ALA:541:C:9860, V-B:TYR:539:CD2:9846, V-B:PRO:540:CD:9859, V-B:GLU:543:CD:9880, V-A:LEU:475:CD2:4259, V-B:TYR:539:CG:9844, V-B:TYR:539:CD1:9845, V-B:LEU:363:CD1:8160, H-B:GLU:543:OE2:9882, V-B:ALA:541:CA:9862, V-B:TYR:539:CE1:9847"]

$$$$
ZINC587709669-again1
     RDKit          3D

 41 43  0  0  0  0  0  0  0  0999 V2000
  131.0930  130.2760   58.4120 C   0  0  0  0  0  0  0  0  0  0  0  0
  130.6050  128.8250   58.5610 C   0  0  1  0  0  0  0  0  0  0  0  0
  129.5640  128.4120   57.5100 C   0  0  0  0  0  0  0  0  0  0  0  0
  129.1670  126.9560   57.6840 C   0  0  0  0  0  0  0  0  0  0  0  0
  127.8490  126.5500   57.4420 C   0  0  0  0  0  0  0  0  0  0  0  0
  127.4670  125.2190   57.5780 C   0  0  0  0  0  0  0  0  0  0  0  0
  125.6630  124.7120   57.2320 Br  0  0  0  0  0  0  0  0  0  0  0  0
  128.4090  124.2700   57.9610 C   0  0  0  0  0  0  0  0  0  0  0  0
  128.0600  122.9700   58.0950 F   0  0  0  0  0  0  0  0  0  0  0  0
  129.7210  124.6650   58.2090 C   0  0  0  0  0  0  0  0  0  0  0  0
  130.1300  126.0030   58.0880 C   0  0  0  0  0  0  0  0  0  0  0  0
  131.6010  126.3830   58.4130 C   0  0  2  0  0  0  0  0  0  0  0  0
  132.5200  125.8490   57.2830 C   0  0  0  0  0  0  0  0  0  0  0  0
  132.0170  125.9380   59.8390 C   0  0  0  0  0  0  0  0  0  0  0  0
  131.2800  126.3670   60.9520 C   0  0  0  0  0  0  0  0  0  0  0  0
  131.6190  125.9660   62.2440 C   0  0  0  0  0  0  0  0  0  0  0  0
  130.8680  126.4010   63.2820 F   0  0  0  0  0  0  0  0  0  0  0  0
  132.7150  125.1210   62.4620 C   0  0  0  0  0  0  0  0  0  0  0  0
  133.0620  124.6920   63.8920 C   0  0  0  0  0  0  0  0  0  0  0  0
  132.2360  125.1900   64.8120 F   0  0  0  0  0  0  0  0  0  0  0  0
  133.0180  123.3620   63.9960 F   0  0  0  0  0  0  0  0  0  0  0  0
  134.2980  125.1000   64.1810 F   0  0  0  0  0  0  0  0  0  0  0  0
  133.4520  124.6760   61.3540 C   0  0  0  0  0  0  0  0  0  0  0  0
  134.5070  123.8430   61.5020 F   0  0  0  0  0  0  0  0  0  0  0  0
  133.1050  125.0810   60.0640 C   0  0  0  0  0  0  0  0  0  0  0  0
  131.8340  127.9180   58.3830 N   0  0  0  0  0  0  0  0  0  0  0  0
  131.2414  130.7171   59.4087 H   0  0  0  0  0  0  0  0  0  0  0  0
  132.0446  130.2880   57.8604 H   0  0  0  0  0  0  0  0  0  0  0  0
  130.3420  130.8606   57.8604 H   0  0  0  0  0  0  0  0  0  0  0  0
  130.1234  128.7321   59.5456 H   0  0  0  0  0  0  0  0  0  0  0  0
  128.6708  129.0445   57.6197 H   0  0  0  0  0  0  0  0  0  0  0  0
  130.0042  128.5394   56.5100 H   0  0  0  0  0  0  0  0  0  0  0  0
  127.1013  127.2976   57.1386 H   0  0  0  0  0  0  0  0  0  0  0  0
  130.4591  123.9064   58.5086 H   0  0  0  0  0  0  0  0  0  0  0  0
  133.3904  125.3433   57.7265 H   0  0  0  0  0  0  0  0  0  0  0  0
  131.9594  125.1360   56.6606 H   0  0  0  0  0  0  0  0  0  0  0  0
  132.8619  126.6891   56.6606 H   0  0  0  0  0  0  0  0  0  0  0  0
  130.4173  127.0331   60.8032 H   0  0  0  0  0  0  0  0  0  0  0  0
  133.6953  124.7217   59.2082 H   0  0  0  0  0  0  0  0  0  0  0  0
  132.5110  128.1460   59.0970 H   0  0  0  0  0  0  0  0  0  0  0  0
  132.2710  128.1540   57.5040 H   0  0  0  0  0  0  0  0  0  0  0  0
  1  2  1  0
  2  3  1  0
  3  4  1  0
  4  5  2  0
  5  6  1  0
  6  7  1  0
  6  8  2  0
  8  9  1  0
  8 10  1  0
 10 11  2  0
 11 12  1  0
 12 13  1  6
 12 14  1  0
 14 15  2  0
 15 16  1  0
 16 17  1  0
 16 18  2  0
 18 19  1  0
 19 20  1  0
 19 21  1  0
 19 22  1  0
 18 23  1  0
 23 24  1  0
 23 25  2  0
 12 26  1  0
 26  2  1  0
 11  4  1  0
 25 14  1  0
  1 27  1  0
  1 28  1  0
  1 29  1  0
  2 30  1  1
  3 31  1  0
  3 32  1  0
  5 33  1  0
 10 34  1  0
 13 35  1  0
 13 36  1  0
 13 37  1  0
 15 38  1  0
 25 39  1  0
 26 40  1  0
 26 41  1  0
M  CHG  1  26   1
M  END
>  <Binding energies>  (1) 
[-6.59]

>  <Ligand effiencies>  (1) 
[-0.23535714285714285]

>  <Interactions>  (1) 
["V-A:ASP:366:CA:3210, V-B:PRO:540:CA:9855, V-A:GLY:454:CA:4049, H-A:TYR:531:OH:4795, V-B:TYR:539:CE2:9848, V-B:TYR:539:C:9839, V-A:ASP:366:CG:3213, V-B:TYR:539:CZ:9849, V-B:TYR:531:CE2:9765, V-A:GLU:543:CD:4908, V-A:GLY:453:C:4042, V-B:PRO:540:N:9856, V-A:ILE:369:CD1:3239, V-A:ASP:366:C:3208, V-B:TYR:539:CD2:9846, V-A:TYR:531:CZ:4794, V-A:ASP:366:CB:3212, V-A:ARG:545:CD:4923, V-A:LEU:475:CD2:4259, V-A:ARG:545:CZ:4926, V-B:TYR:539:CG:9844, H-A:ASP:366:OD1:3214, V-A:GLY:453:CA:4044, V-B:MET:535:CE:9807, H-A:ASP:366:OD2:3215"]

$$$$
ZINC587713062-again1
     RDKit          3D

 82 87  0  0  0  0  0  0  0  0999 V2000
  126.7660  123.2320   59.5780 C   0  0  0  0  0  0  0  0  0  0  0  0
  127.2600  122.8510   60.9690 C   0  0  0  0  0  0  0  0  0  0  0  0
  126.5960  123.1060   61.9730 O   0  0  0  0  0  0  0  0  0  0  0  0
  128.4580  122.2310   60.9420 O   0  0  0  0  0  0  0  0  0  0  0  0
  129.6450  122.9520   60.6050 C   0  0  0  0  0  0  0  0  0  0  0  0
  130.0830  123.9530   61.7250 C   0  0  1  0  0  0  0  0  0  0  0  0
  129.4850  125.4600   61.6720 C   0  0  1  0  0  0  0  0  0  0  0  0
  128.1870  125.3340   61.0860 O   0  0  0  0  0  0  0  0  0  0  0  0
  129.2720  126.1090   63.0750 C   0  0  0  0  0  0  0  0  0  0  0  0
  129.2730  127.6400   62.9250 C   0  0  0  0  0  0  0  0  0  0  0  0
  129.4770  127.8770   61.4300 C   0  0  1  0  0  0  0  0  0  0  0  0
  130.0410  129.2460   60.9460 C   0  0  2  0  0  0  0  0  0  0  0  0
  129.2340  130.4340   61.5170 C   0  0  0  0  0  0  0  0  0  0  0  0
  129.8040  131.7850   61.0670 C   0  0  0  0  0  0  0  0  0  0  0  0
  129.8410  131.8630   59.5380 C   0  0  0  0  0  0  0  0  0  0  0  0
  129.2900  132.9070   58.8780 C   0  0  0  0  0  0  0  0  0  0  0  0
  129.3590  133.1060   57.4390 C   0  0  0  0  0  0  0  0  0  0  0  0
  128.7290  133.9990   56.8750 O   0  0  0  0  0  0  0  0  0  0  0  0
  130.3760  132.2320   56.7000 C   0  0  0  0  0  0  0  0  0  0  0  0
  130.3920  130.8050   57.2780 C   0  0  0  0  0  0  0  0  0  0  0  0
  130.6150  130.7090   58.8290 C   0  0  1  0  0  0  0  0  0  0  0  0
  132.1250  130.9590   59.1220 C   0  0  0  0  0  0  0  0  0  0  0  0
  130.0660  129.3170   59.3770 C   0  0  2  0  0  0  0  0  0  0  0  0
  128.7780  129.2600   59.0070 F   0  0  0  0  0  0  0  0  0  0  0  0
  130.6830  128.0220   58.7240 C   0  0  1  0  0  0  0  0  0  0  0  0
  132.0950  127.9950   58.6770 O   0  0  0  0  0  0  0  0  0  0  0  0
  130.1300  126.7100   59.3570 C   0  0  0  0  0  0  0  0  0  0  0  0
  130.2640  126.6350   60.9170 C   0  0  2  0  0  0  0  0  0  0  0  0
  131.7660  126.6600   61.3490 C   0  0  0  0  0  0  0  0  0  0  0  0
  129.4080  123.2820   62.9570 N   0  0  0  0  0  0  0  0  0  0  0  0
  130.0090  123.5280   64.3450 C   0  0  1  0  0  0  0  0  0  0  0  0
  129.1300  122.7720   65.3560 C   0  0  0  0  0  0  0  0  0  0  0  0
  131.4440  123.0190   64.3080 C   0  0  0  0  0  0  0  0  0  0  0  0
  132.2540  123.6020   63.1600 C   0  0  0  0  0  0  0  0  0  0  0  0
  133.6290  123.7520   63.3610 C   0  0  0  0  0  0  0  0  0  0  0  0
  134.4690  124.1460   62.3370 C   0  0  0  0  0  0  0  0  0  0  0  0
  133.9440  124.3560   61.0760 C   0  0  0  0  0  0  0  0  0  0  0  0
  134.7850  124.6790   60.0650 F   0  0  0  0  0  0  0  0  0  0  0  0
  132.5710  124.2270   60.8470 C   0  0  0  0  0  0  0  0  0  0  0  0
  132.0520  124.4290   59.0180 Br  0  0  0  0  0  0  0  0  0  0  0  0
  131.6630  123.9190   61.9010 C   0  0  0  0  0  0  0  0  0  0  0  0
  125.8979  123.9015   59.6678 H   0  0  0  0  0  0  0  0  0  0  0  0
  127.5704  123.7459   59.0312 H   0  0  0  0  0  0  0  0  0  0  0  0
  126.4733  122.3235   59.0312 H   0  0  0  0  0  0  0  0  0  0  0  0
  130.4593  122.2312   60.4393 H   0  0  0  0  0  0  0  0  0  0  0  0
  129.4308  123.5395   59.7000 H   0  0  0  0  0  0  0  0  0  0  0  0
  127.5730  125.0510   61.7680 H   0  0  0  0  0  0  0  0  0  0  0  0
  128.3083  125.7800   63.4909 H   0  0  0  0  0  0  0  0  0  0  0  0
  130.0820  125.8019   63.7530 H   0  0  0  0  0  0  0  0  0  0  0  0
  128.3145  128.0641   63.2588 H   0  0  0  0  0  0  0  0  0  0  0  0
  130.0525  128.1198   63.5350 H   0  0  0  0  0  0  0  0  0  0  0  0
  128.4824  127.9771   60.9710 H   0  0  0  0  0  0  0  0  0  0  0  0
  131.0711  129.3231   61.3241 H   0  0  0  0  0  0  0  0  0  0  0  0
  128.1928  130.3549   61.1712 H   0  0  0  0  0  0  0  0  0  0  0  0
  129.2933  130.3888   62.6145 H   0  0  0  0  0  0  0  0  0  0  0  0
  129.1693  132.5946   61.4565 H   0  0  0  0  0  0  0  0  0  0  0  0
  130.8278  131.8890   61.4557 H   0  0  0  0  0  0  0  0  0  0  0  0
  128.7510  133.6596   59.4722 H   0  0  0  0  0  0  0  0  0  0  0  0
  130.1060  132.1867   55.6346 H   0  0  0  0  0  0  0  0  0  0  0  0
  131.3759  132.6736   56.8228 H   0  0  0  0  0  0  0  0  0  0  0  0
  129.4261  130.3333   57.0442 H   0  0  0  0  0  0  0  0  0  0  0  0
  131.2536  130.3007   56.8162 H   0  0  0  0  0  0  0  0  0  0  0  0
  132.2879  130.9860   60.2095 H   0  0  0  0  0  0  0  0  0  0  0  0
  132.7232  130.1477   58.6816 H   0  0  0  0  0  0  0  0  0  0  0  0
  132.4298  131.9198   58.6816 H   0  0  0  0  0  0  0  0  0  0  0  0
  130.3470  128.0745   57.6779 H   0  0  0  0  0  0  0  0  0  0  0  0
  132.4340  128.5690   59.3680 H   0  0  0  0  0  0  0  0  0  0  0  0
  129.0639  126.6268   59.0992 H   0  0  0  0  0  0  0  0  0  0  0  0
  130.7359  125.8867   58.9507 H   0  0  0  0  0  0  0  0  0  0  0  0
  131.8317  126.6611   62.4470 H   0  0  0  0  0  0  0  0  0  0  0  0
  132.2766  125.7702   60.9520 H   0  0  0  0  0  0  0  0  0  0  0  0
  132.2467  127.5663   60.9520 H   0  0  0  0  0  0  0  0  0  0  0  0
  128.4430  123.5780   62.9730 H   0  0  0  0  0  0  0  0  0  0  0  0
  129.3900  122.2850   62.7990 H   0  0  0  0  0  0  0  0  0  0  0  0
  130.0320  124.5879   64.6382 H   0  0  0  0  0  0  0  0  0  0  0  0
  129.4372  123.0363   66.3786 H   0  0  0  0  0  0  0  0  0  0  0  0
  128.0764  123.0505   65.2062 H   0  0  0  0  0  0  0  0  0  0  0  0
  129.2477  121.6886   65.2062 H   0  0  0  0  0  0  0  0  0  0  0  0
  131.9353  123.2874   65.2549 H   0  0  0  0  0  0  0  0  0  0  0  0
  131.4022  121.9298   64.1602 H   0  0  0  0  0  0  0  0  0  0  0  0
  134.0519  123.5519   64.3566 H   0  0  0  0  0  0  0  0  0  0  0  0
  135.5434  124.2908   62.5234 H   0  0  0  0  0  0  0  0  0  0  0  0
  1  2  1  0
  2  3  2  0
  2  4  1  0
  4  5  1  0
  6  5  1  6
  6  7  1  0
  7  8  1  6
  7  9  1  0
  9 10  1  0
 10 11  1  0
 11 12  1  0
 12 13  1  0
 13 14  1  0
 14 15  1  0
 15 16  2  0
 16 17  1  0
 17 18  2  0
 17 19  1  0
 19 20  1  0
 20 21  1  0
 21 22  1  6
 21 23  1  0
 23 24  1  6
 23 25  1  0
 25 26  1  0
 25 27  1  0
 27 28  1  0
 28 29  1  6
  6 30  1  0
 30 31  1  0
 31 32  1  0
 31 33  1  0
 33 34  1  0
 34 35  2  0
 35 36  1  0
 36 37  2  0
 37 38  1  0
 37 39  1  0
 39 40  1  0
 39 41  2  0
 41  6  1  0
 28  7  1  0
 41 34  1  0
 28 11  1  0
 23 12  1  0
 21 15  1  0
  1 42  1  0
  1 43  1  0
  1 44  1  0
  5 45  1  0
  5 46  1  0
  8 47  1  0
  9 48  1  0
  9 49  1  0
 10 50  1  0
 10 51  1  0
 11 52  1  6
 12 53  1  1
 13 54  1  0
 13 55  1  0
 14 56  1  0
 14 57  1  0
 16 58  1  0
 19 59  1  0
 19 60  1  0
 20 61  1  0
 20 62  1  0
 22 63  1  0
 22 64  1  0
 22 65  1  0
 25 66  1  6
 26 67  1  0
 27 68  1  0
 27 69  1  0
 29 70  1  0
 29 71  1  0
 29 72  1  0
 30 73  1  0
 30 74  1  0
 31 75  1  1
 32 76  1  0
 32 77  1  0
 32 78  1  0
 33 79  1  0
 33 80  1  0
 35 81  1  0
 36 82  1  0
M  CHG  1  30   1
M  END
>  <Binding energies>  (1) 
[-9.36]

>  <Ligand effiencies>  (1) 
[-0.208]

>  <Interactions>  (1) 
["V-A:ILE:369:CG2:3237, V-A:ASP:366:CA:3210, V-B:PRO:540:CA:9855, V-A:GLY:454:CA:4049, V-A:ILE:369:CB:3236, V-B:GLU:543:CB:9878, V-B:ALA:541:CB:9864, H-A:TYR:531:OH:4795, V-A:TYR:484:CE2:4346, V-B:TYR:539:CE2:9848, V-B:GLU:543:CG:9879, V-A:ASP:366:CG:3213, V-A:TYR:539:CD1:4873, V-B:TYR:539:CZ:9849, H-B:GLU:543:OE1:9881, H-B:ALA:541:N:9863, V-A:TYR:539:CA:4869, V-A:TYR:484:CZ:4347, V-B:PRO:540:CB:9857, V-A:GLU:543:CD:4908, V-B:GLU:543:CA:9876, V-A:GLY:453:C:4042, V-B:PRO:540:N:9856, V-A:ILE:369:CD1:3239, V-A:ASP:366:C:3208, V-B:TYR:539:CD2:9846, V-B:GLU:543:CD:9880, V-A:MET:535:CE:4835, V-A:ILE:369:CG1:3238, V-A:ASP:366:CB:3212, V-A:TYR:539:C:4867, V-A:LEU:475:CD2:4259, H-A:ASP:366:OD1:3214, V-A:PRO:540:N:4884, V-A:TYR:539:CG:4872, H-A:TYR:539:N:4870, V-A:GLY:453:CA:4044, V-A:PRO:540:CA:4883, V-A:PRO:540:CB:4885, V-B:PRO:540:C:9853, H-A:ASP:366:OD2:3215"]

$$$$
ZINC587724676-again1
     RDKit          3D

 46 49  0  0  0  0  0  0  0  0999 V2000
  130.9910  129.5100   60.2680 C   0  0  0  0  0  0  0  0  0  0  0  0
  130.0540  128.3410   60.6180 C   0  0  1  0  0  0  0  0  0  0  0  0
  130.1680  127.1500   59.6470 C   0  0  0  0  0  0  0  0  0  0  0  0
  129.3730  125.9330   60.1120 C   0  0  0  0  0  0  0  0  0  0  0  0
  128.9150  124.9980   59.1760 C   0  0  0  0  0  0  0  0  0  0  0  0
  128.2190  123.8600   59.5700 C   0  0  0  0  0  0  0  0  0  0  0  0
  127.6240  122.6130   58.2590 Br  0  0  0  0  0  0  0  0  0  0  0  0
  127.9640  123.6430   60.9200 C   0  0  0  0  0  0  0  0  0  0  0  0
  127.2870  122.5450   61.3260 F   0  0  0  0  0  0  0  0  0  0  0  0
  128.4050  124.5710   61.8610 C   0  0  0  0  0  0  0  0  0  0  0  0
  129.1090  125.7240   61.4860 C   0  0  0  0  0  0  0  0  0  0  0  0
  129.5060  126.7590   62.5610 C   0  0  1  0  0  0  0  0  0  0  0  0
  130.1490  126.1740   63.8260 C   0  0  0  0  0  0  0  0  0  0  0  0
  129.4530  126.2220   65.0420 C   0  0  0  0  0  0  0  0  0  0  0  0
  130.0150  125.6970   66.2050 C   0  0  0  0  0  0  0  0  0  0  0  0
  131.2810  125.1170   66.1660 C   0  0  0  0  0  0  0  0  0  0  0  0
  131.9870  125.0690   64.9650 C   0  0  0  0  0  0  0  0  0  0  0  0
  131.4350  125.6030   63.7980 C   0  0  0  0  0  0  0  0  0  0  0  0
  132.1730  125.5420   62.6380 O   0  0  0  0  0  0  0  0  0  0  0  0
  132.5860  124.3250   62.1320 C   0  0  0  0  0  0  0  0  0  0  0  0
  133.9230  123.8880   62.1430 C   0  0  0  0  0  0  0  0  0  0  0  0
  134.2650  122.6460   61.6100 C   0  0  0  0  0  0  0  0  0  0  0  0
  133.2780  121.8210   61.0700 C   0  0  0  0  0  0  0  0  0  0  0  0
  133.6130  120.6160   60.5550 F   0  0  0  0  0  0  0  0  0  0  0  0
  131.9480  122.2410   61.0660 C   0  0  0  0  0  0  0  0  0  0  0  0
  130.9860  121.4430   60.5470 F   0  0  0  0  0  0  0  0  0  0  0  0
  131.6060  123.4850   61.5970 C   0  0  0  0  0  0  0  0  0  0  0  0
  130.4630  127.8360   62.0100 N   0  0  0  0  0  0  0  0  0  0  0  0
  131.3619  129.9727   61.1945 H   0  0  0  0  0  0  0  0  0  0  0  0
  131.8413  129.1348   59.6796 H   0  0  0  0  0  0  0  0  0  0  0  0
  130.4397  130.2583   59.6796 H   0  0  0  0  0  0  0  0  0  0  0  0
  129.0203  128.7133   60.5652 H   0  0  0  0  0  0  0  0  0  0  0  0
  129.7904  127.4616   58.6619 H   0  0  0  0  0  0  0  0  0  0  0  0
  131.2275  126.8577   59.6026 H   0  0  0  0  0  0  0  0  0  0  0  0
  129.1096  125.1669   58.1066 H   0  0  0  0  0  0  0  0  0  0  0  0
  128.1953  124.3944   62.9263 H   0  0  0  0  0  0  0  0  0  0  0  0
  128.5374  127.1963   62.8448 H   0  0  0  0  0  0  0  0  0  0  0  0
  128.4530  126.6787   65.0790 H   0  0  0  0  0  0  0  0  0  0  0  0
  129.4589  125.7408   67.1531 H   0  0  0  0  0  0  0  0  0  0  0  0
  131.7230  124.6974   67.0818 H   0  0  0  0  0  0  0  0  0  0  0  0
  132.9852  124.6077   64.9359 H   0  0  0  0  0  0  0  0  0  0  0  0
  134.7041  124.5307   62.5752 H   0  0  0  0  0  0  0  0  0  0  0  0
  135.3144  122.3161   61.6152 H   0  0  0  0  0  0  0  0  0  0  0  0
  130.5544  123.8077   61.5944 H   0  0  0  0  0  0  0  0  0  0  0  0
  130.4890  128.6110   62.6560 H   0  0  0  0  0  0  0  0  0  0  0  0
  131.3970  127.4560   61.9480 H   0  0  0  0  0  0  0  0  0  0  0  0
  1  2  1  0
  2  3  1  0
  3  4  1  0
  4  5  2  0
  5  6  1  0
  6  7  1  0
  6  8  2  0
  8  9  1  0
  8 10  1  0
 10 11  2  0
 11 12  1  0
 12 13  1  0
 13 14  2  0
 14 15  1  0
 15 16  2  0
 16 17  1  0
 17 18  2  0
 18 19  1  0
 19 20  1  0
 20 21  2  0
 21 22  1  0
 22 23  2  0
 23 24  1  0
 23 25  1  0
 25 26  1  0
 25 27  2  0
 12 28  1  0
 28  2  1  0
 11  4  1  0
 18 13  1  0
 27 20  1  0
  1 29  1  0
  1 30  1  0
  1 31  1  0
  2 32  1  1
  3 33  1  0
  3 34  1  0
  5 35  1  0
 10 36  1  0
 12 37  1  1
 14 38  1  0
 15 39  1  0
 16 40  1  0
 17 41  1  0
 21 42  1  0
 22 43  1  0
 27 44  1  0
 28 45  1  0
 28 46  1  0
M  CHG  1  28   1
M  END
>  <Binding energies>  (1) 
[-7.2]

>  <Ligand effiencies>  (1) 
[-0.24000000000000002]

>  <Interactions>  (1) 
["V-A:ILE:369:CG2:3237, V-B:PRO:540:CA:9855, H-A:GLU:543:OE2:4910, V-B:GLU:543:CB:9878, V-B:ALA:541:CB:9864, V-B:TYR:539:CE2:9848, V-A:TYR:484:CE2:4346, V-B:GLU:543:CG:9879, V-B:TYR:539:C:9839, V-A:GLU:543:CD:4908, V-A:TYR:484:CZ:4347, V-B:PRO:540:CB:9857, V-A:SER:385:C:3405, V-B:PRO:540:N:9856, V-A:HIS:456:CE1:4070, V-A:ILE:369:CD1:3239, V-B:TYR:539:CD2:9846, V-A:SER:385:CB:3409, V-B:GLU:543:CD:9880, V-A:LEU:475:CD2:4259, H-A:ARG:545:NH2:4928, H-A:GLU:543:OE1:4909, V-B:TYR:539:CG:9844, V-A:SER:385:CA:3407, V-B:PRO:540:C:9853, H-A:ASP:366:OD2:3215, V-B:ALA:541:CA:9862"]

$$$$
ZINC587726252
     RDKit          3D

 42 44  0  0  0  0  0  0  0  0999 V2000
  130.9510  118.0640   60.3260 C   0  0  0  0  0  0  0  0  0  0  0  0
  131.1300  119.4090   61.0480 C   0  0  1  0  0  0  0  0  0  0  0  0
  132.3320  120.1970   60.4850 C   0  0  0  0  0  0  0  0  0  0  0  0
  132.5310  121.5030   61.2380 C   0  0  0  0  0  0  0  0  0  0  0  0
  133.8120  122.0440   61.3850 C   0  0  0  0  0  0  0  0  0  0  0  0
  134.0140  123.2200   62.0950 C   0  0  0  0  0  0  0  0  0  0  0  0
  132.9340  123.8600   62.6890 C   0  0  0  0  0  0  0  0  0  0  0  0
  133.1440  124.9900   63.4020 F   0  0  0  0  0  0  0  0  0  0  0  0
  131.6480  123.3300   62.5620 C   0  0  0  0  0  0  0  0  0  0  0  0
  130.2290  124.2240   63.4790 Br  0  0  0  0  0  0  0  0  0  0  0  0
  131.4170  122.1570   61.8090 C   0  0  0  0  0  0  0  0  0  0  0  0
  130.0070  121.5290   61.6590 C   0  0  1  0  0  0  0  0  0  0  0  0
  128.9790  122.4840   61.0490 C   0  0  0  0  0  0  0  0  0  0  0  0
  127.8040  122.7880   61.7440 C   0  0  0  0  0  0  0  0  0  0  0  0
  126.8620  123.6560   61.1940 C   0  0  0  0  0  0  0  0  0  0  0  0
  127.0730  124.2350   59.9390 C   0  0  0  0  0  0  0  0  0  0  0  0
  126.0830  125.1030   59.4380 N   0  0  0  0  0  0  0  0  0  0  0  0
  126.5030  126.4990   59.3840 C   0  0  0  0  0  0  0  0  0  0  0  0
  125.4370  124.6170   58.2230 C   0  0  0  0  0  0  0  0  0  0  0  0
  128.2520  123.9280   59.2350 C   0  0  0  0  0  0  0  0  0  0  0  0
  128.4980  124.4630   58.0160 F   0  0  0  0  0  0  0  0  0  0  0  0
  129.1920  123.0570   59.7900 C   0  0  0  0  0  0  0  0  0  0  0  0
  129.9500  120.2550   60.9300 N   0  0  0  0  0  0  0  0  0  0  0  0
  130.8440  117.2602   61.0693 H   0  0  0  0  0  0  0  0  0  0  0  0
  130.0501  118.1031   59.6960 H   0  0  0  0  0  0  0  0  0  0  0  0
  131.8307  117.8661   59.6960 H   0  0  0  0  0  0  0  0  0  0  0  0
  131.3007  119.1593   62.1056 H   0  0  0  0  0  0  0  0  0  0  0  0
  133.2405  119.5844   60.5819 H   0  0  0  0  0  0  0  0  0  0  0  0
  132.1335  120.4295   59.4283 H   0  0  0  0  0  0  0  0  0  0  0  0
  134.6725  121.5303   60.9314 H   0  0  0  0  0  0  0  0  0  0  0  0
  135.0253  123.6430   62.1866 H   0  0  0  0  0  0  0  0  0  0  0  0
  129.7465  121.3166   62.7064 H   0  0  0  0  0  0  0  0  0  0  0  0
  127.6219  122.3390   62.7315 H   0  0  0  0  0  0  0  0  0  0  0  0
  125.9434  123.8877   61.7530 H   0  0  0  0  0  0  0  0  0  0  0  0
  126.6196  126.8866   60.4068 H   0  0  0  0  0  0  0  0  0  0  0  0
  127.4631  126.5727   58.8522 H   0  0  0  0  0  0  0  0  0  0  0  0
  125.7430  127.0903   58.8522 H   0  0  0  0  0  0  0  0  0  0  0  0
  124.5847  123.9758   58.4922 H   0  0  0  0  0  0  0  0  0  0  0  0
  125.0797  125.4721   57.6305 H   0  0  0  0  0  0  0  0  0  0  0  0
  126.1596  124.0367   57.6305 H   0  0  0  0  0  0  0  0  0  0  0  0
  130.1094  122.8188   59.2318 H   0  0  0  0  0  0  0  0  0  0  0  0
  129.1210  119.7520   61.2100 H   0  0  0  0  0  0  0  0  0  0  0  0
  1  2  1  0
  2  3  1  0
  3  4  1  0
  4  5  2  0
  5  6  1  0
  6  7  2  0
  7  8  1  0
  7  9  1  0
  9 10  1  0
  9 11  2  0
 11 12  1  0
 12 13  1  0
 13 14  2  0
 14 15  1  0
 15 16  2  0
 16 17  1  0
 17 18  1  0
 17 19  1  0
 16 20  1  0
 20 21  1  0
 20 22  2  0
 12 23  1  0
 23  2  1  0
 11  4  1  0
 22 13  1  0
  1 24  1  0
  1 25  1  0
  1 26  1  0
  2 27  1  1
  3 28  1  0
  3 29  1  0
  5 30  1  0
  6 31  1  0
 12 32  1  1
 14 33  1  0
 15 34  1  0
 18 35  1  0
 18 36  1  0
 18 37  1  0
 19 38  1  0
 19 39  1  0
 19 40  1  0
 22 41  1  0
 23 42  1  0
M  END
>  <Binding energies>  (1) 
[-6.62]

>  <Ligand effiencies>  (1) 
[-0.2758333333333333]

>  <Interactions>  (1) 
["V-A:ILE:369:CG2:3237, V-B:PRO:540:CA:9855, V-A:ILE:369:CD1:3239, V-B:TYR:539:CZ:9849, V-A:GLY:454:CA:4049, V-B:TYR:539:CD2:9846, H-B:TYR:539:O:9840, V-A:SER:385:CB:3409, V-B:PRO:540:C:9853, V-B:ALA:541:CB:9864, V-B:TYR:539:CB:9843, V-B:TYR:539:CE2:9848, V-B:ASP:366:CG:8184, V-A:LEU:475:CD2:4259, V-A:ARG:545:CZ:4926, V-A:HIS:383:NE2:3394"]

$$$$
ZINC587726252-again1
     RDKit          3D

 43 45  0  0  0  0  0  0  0  0999 V2000
  132.5290  131.8160   62.4320 C   0  0  0  0  0  0  0  0  0  0  0  0
  131.4600  131.3520   61.4290 C   0  0  1  0  0  0  0  0  0  0  0  0
  131.7130  131.8350   59.9910 C   0  0  0  0  0  0  0  0  0  0  0  0
  130.6480  131.3050   59.0400 C   0  0  0  0  0  0  0  0  0  0  0  0
  130.2220  132.0920   57.9660 C   0  0  0  0  0  0  0  0  0  0  0  0
  129.2450  131.6440   57.0880 C   0  0  0  0  0  0  0  0  0  0  0  0
  128.6670  130.3970   57.2830 C   0  0  0  0  0  0  0  0  0  0  0  0
  127.7030  129.9710   56.4330 F   0  0  0  0  0  0  0  0  0  0  0  0
  129.0700  129.5970   58.3540 C   0  0  0  0  0  0  0  0  0  0  0  0
  128.1850  127.9200   58.5920 Br  0  0  0  0  0  0  0  0  0  0  0  0
  130.0810  130.0230   59.2430 C   0  0  0  0  0  0  0  0  0  0  0  0
  130.5030  129.1380   60.4440 C   0  0  1  0  0  0  0  0  0  0  0  0
  131.1240  127.7880   60.0740 C   0  0  0  0  0  0  0  0  0  0  0  0
  131.2950  126.8040   61.0540 C   0  0  0  0  0  0  0  0  0  0  0  0
  131.8380  125.5640   60.7230 C   0  0  0  0  0  0  0  0  0  0  0  0
  132.2150  125.2780   59.4070 C   0  0  0  0  0  0  0  0  0  0  0  0
  132.7580  124.0080   59.1360 N   0  0  0  0  0  0  0  0  0  0  0  0
  133.9960  124.0550   58.3660 C   0  0  0  0  0  0  0  0  0  0  0  0
  132.7970  123.1250   60.2980 C   0  0  0  0  0  0  0  0  0  0  0  0
  132.0340  126.2630   58.4180 C   0  0  0  0  0  0  0  0  0  0  0  0
  132.3800  126.0300   57.1290 F   0  0  0  0  0  0  0  0  0  0  0  0
  131.4910  127.5030   58.7540 C   0  0  0  0  0  0  0  0  0  0  0  0
  131.5090  129.8190   61.4000 N   0  0  0  0  0  0  0  0  0  0  0  0
  132.1633  131.6573   63.4572 H   0  0  0  0  0  0  0  0  0  0  0  0
  133.4518  131.2375   62.2782 H   0  0  0  0  0  0  0  0  0  0  0  0
  132.7366  132.8852   62.2782 H   0  0  0  0  0  0  0  0  0  0  0  0
  130.4950  131.7670   61.7554 H   0  0  0  0  0  0  0  0  0  0  0  0
  131.6958  132.9347   59.9730 H   0  0  0  0  0  0  0  0  0  0  0  0
  132.6932  131.4586   59.6631 H   0  0  0  0  0  0  0  0  0  0  0  0
  130.6697  133.0852   57.8139 H   0  0  0  0  0  0  0  0  0  0  0  0
  128.9305  132.2734   56.2425 H   0  0  0  0  0  0  0  0  0  0  0  0
  129.5326  128.9774   60.9364 H   0  0  0  0  0  0  0  0  0  0  0  0
  130.9987  127.0107   62.0930 H   0  0  0  0  0  0  0  0  0  0  0  0
  131.9715  124.8021   61.5051 H   0  0  0  0  0  0  0  0  0  0  0  0
  134.8543  124.0876   59.0533 H   0  0  0  0  0  0  0  0  0  0  0  0
  134.0677  123.1589   57.7320 H   0  0  0  0  0  0  0  0  0  0  0  0
  133.9996  124.9539   57.7320 H   0  0  0  0  0  0  0  0  0  0  0  0
  132.7704  123.7279   61.2177 H   0  0  0  0  0  0  0  0  0  0  0  0
  131.9277  122.4513   60.2759 H   0  0  0  0  0  0  0  0  0  0  0  0
  133.7223  122.5305   60.2759 H   0  0  0  0  0  0  0  0  0  0  0  0
  131.3498  128.2649   57.9732 H   0  0  0  0  0  0  0  0  0  0  0  0
  131.3620  129.4610   62.3340 H   0  0  0  0  0  0  0  0  0  0  0  0
  132.4430  129.5480   61.1280 H   0  0  0  0  0  0  0  0  0  0  0  0
  1  2  1  0
  2  3  1  0
  3  4  1  0
  4  5  2  0
  5  6  1  0
  6  7  2  0
  7  8  1  0
  7  9  1  0
  9 10  1  0
  9 11  2  0
 11 12  1  0
 12 13  1  0
 13 14  2  0
 14 15  1  0
 15 16  2  0
 16 17  1  0
 17 18  1  0
 17 19  1  0
 16 20  1  0
 20 21  1  0
 20 22  2  0
 12 23  1  0
 23  2  1  0
 11  4  1  0
 22 13  1  0
  1 24  1  0
  1 25  1  0
  1 26  1  0
  2 27  1  1
  3 28  1  0
  3 29  1  0
  5 30  1  0
  6 31  1  0
 12 32  1  1
 14 33  1  0
 15 34  1  0
 18 35  1  0
 18 36  1  0
 18 37  1  0
 19 38  1  0
 19 39  1  0
 19 40  1  0
 22 41  1  0
 23 42  1  0
 23 43  1  0
M  CHG  1  23   1
M  END
>  <Binding energies>  (1) 
[-7.2]

>  <Ligand effiencies>  (1) 
[-0.28800000000000003]

>  <Interactions>  (1) 
["V-A:ILE:369:CG2:3237, V-A:ASP:366:CA:3210, V-A:ALA:541:C:4888, V-A:ILE:369:CB:3236, V-B:TYR:539:CE2:9848, V-A:ASP:366:CG:3213, V-A:ASN:362:CB:3176, V-B:TYR:539:CZ:9849, V-A:GLU:543:CD:4908, V-A:ASP:366:C:3208, V-A:TYR:531:CZ:4794, V-A:GLU:543:CG:4907, V-A:MET:535:CE:4835, V-A:ASP:366:CB:3212, H-A:GLU:543:OE1:4909, H-A:ASP:366:OD1:3214, V-A:PRO:540:CB:4885, V-A:PRO:540:CA:4883, H-A:ASP:366:OD2:3215"]

$$$$
ZINC587728132
     RDKit          3D

 50 52  0  0  0  0  0  0  0  0999 V2000
  129.8770  119.7310   61.6420 C   0  0  0  0  0  0  0  0  0  0  0  0
  129.5190  121.2060   61.8760 C   0  0  1  0  0  0  0  0  0  0  0  0
  130.1290  121.7220   63.1970 C   0  0  0  0  0  0  0  0  0  0  0  0
  129.9140  123.2150   63.4020 C   0  0  0  0  0  0  0  0  0  0  0  0
  129.9480  123.7620   64.6890 C   0  0  0  0  0  0  0  0  0  0  0  0
  129.8060  125.1300   64.8960 C   0  0  0  0  0  0  0  0  0  0  0  0
  129.8680  125.8320   66.6660 Br  0  0  0  0  0  0  0  0  0  0  0  0
  129.6220  125.9740   63.8040 C   0  0  0  0  0  0  0  0  0  0  0  0
  129.4830  127.3090   63.9820 F   0  0  0  0  0  0  0  0  0  0  0  0
  129.5750  125.4390   62.5200 C   0  0  0  0  0  0  0  0  0  0  0  0
  129.7140  124.0600   62.2880 C   0  0  0  0  0  0  0  0  0  0  0  0
  129.5930  123.4790   60.8540 C   0  0  1  0  0  0  0  0  0  0  0  0
  128.0830  123.5830   60.4770 C   0  0  0  0  0  0  0  0  0  0  0  0
  130.5190  124.2780   59.8760 C   0  0  0  0  0  0  0  0  0  0  0  0
  129.9580  125.1450   58.9160 C   0  0  0  0  0  0  0  0  0  0  0  0
  130.7480  125.9070   58.0600 C   0  0  0  0  0  0  0  0  0  0  0  0
  130.1690  126.7290   57.1560 F   0  0  0  0  0  0  0  0  0  0  0  0
  132.1320  125.8300   58.1400 C   0  0  0  0  0  0  0  0  0  0  0  0
  132.7210  124.9760   59.0640 C   0  0  0  0  0  0  0  0  0  0  0  0
  131.9390  124.1860   59.9120 C   0  0  0  0  0  0  0  0  0  0  0  0
  132.8100  123.1080   61.0290 S   0  0  0  0  0  0  0  0  0  0  0  0
  133.4660  124.0820   62.4340 C   0  0  0  0  0  0  0  0  0  0  0  0
  132.7320  125.4350   62.5570 C   0  0  0  0  0  0  0  0  0  0  0  0
  133.2110  123.2690   63.7220 C   0  0  0  0  0  0  0  0  0  0  0  0
  134.9820  124.3400   62.3070 C   0  0  0  0  0  0  0  0  0  0  0  0
  129.9620  122.0560   60.7710 N   0  0  0  0  0  0  0  0  0  0  0  0
  129.9997  119.2253   62.6111 H   0  0  0  0  0  0  0  0  0  0  0  0
  129.0710  119.2438   61.0736 H   0  0  0  0  0  0  0  0  0  0  0  0
  130.8166  119.6675   61.0736 H   0  0  0  0  0  0  0  0  0  0  0  0
  128.4220  121.2592   61.9374 H   0  0  0  0  0  0  0  0  0  0  0  0
  129.6630  121.1815   64.0341 H   0  0  0  0  0  0  0  0  0  0  0  0
  131.2140  121.5466   63.1518 H   0  0  0  0  0  0  0  0  0  0  0  0
  130.0898  123.0974   65.5540 H   0  0  0  0  0  0  0  0  0  0  0  0
  129.4251  126.1135   61.6641 H   0  0  0  0  0  0  0  0  0  0  0  0
  127.4780  123.6247   61.3947 H   0  0  0  0  0  0  0  0  0  0  0  0
  127.9148  124.4949   59.8852 H   0  0  0  0  0  0  0  0  0  0  0  0
  127.7914  122.7028   59.8852 H   0  0  0  0  0  0  0  0  0  0  0  0
  128.8632  125.2215   58.8413 H   0  0  0  0  0  0  0  0  0  0  0  0
  132.7590  126.4422   57.4751 H   0  0  0  0  0  0  0  0  0  0  0  0
  133.8177  124.9206   59.1293 H   0  0  0  0  0  0  0  0  0  0  0  0
  132.5971  125.6837   63.6200 H   0  0  0  0  0  0  0  0  0  0  0  0
  133.3275  126.2209   62.0693 H   0  0  0  0  0  0  0  0  0  0  0  0
  131.7486  125.3643   62.0693 H   0  0  0  0  0  0  0  0  0  0  0  0
  133.4093  123.9013   64.6000 H   0  0  0  0  0  0  0  0  0  0  0  0
  132.1640  122.9321   63.7417 H   0  0  0  0  0  0  0  0  0  0  0  0
  133.8780  122.3945   63.7417 H   0  0  0  0  0  0  0  0  0  0  0  0
  135.4264  124.4156   63.3104 H   0  0  0  0  0  0  0  0  0  0  0  0
  135.4509  123.5087   61.7600 H   0  0  0  0  0  0  0  0  0  0  0  0
  135.1495  125.2796   61.7600 H   0  0  0  0  0  0  0  0  0  0  0  0
  129.6010  121.6870   59.9040 H   0  0  0  0  0  0  0  0  0  0  0  0
  1  2  1  0
  2  3  1  0
  3  4  1  0
  4  5  2  0
  5  6  1  0
  6  7  1  0
  6  8  2  0
  8  9  1  0
  8 10  1  0
 10 11  2  0
 11 12  1  0
 12 13  1  6
 12 14  1  0
 14 15  2  0
 15 16  1  0
 16 17  1  0
 16 18  2  0
 18 19  1  0
 19 20  2  0
 20 21  1  0
 21 22  1  0
 22 23  1  0
 22 24  1  0
 22 25  1  0
 12 26  1  0
 26  2  1  0
 11  4  1  0
 20 14  1  0
  1 27  1  0
  1 28  1  0
  1 29  1  0
  2 30  1  1
  3 31  1  0
  3 32  1  0
  5 33  1  0
 10 34  1  0
 13 35  1  0
 13 36  1  0
 13 37  1  0
 15 38  1  0
 18 39  1  0
 19 40  1  0
 23 41  1  0
 23 42  1  0
 23 43  1  0
 24 44  1  0
 24 45  1  0
 24 46  1  0
 25 47  1  0
 25 48  1  0
 25 49  1  0
 26 50  1  0
M  END
>  <Binding energies>  (1) 
[-6.5]

>  <Ligand effiencies>  (1) 
[-0.24074074074074073]

>  <Interactions>  (1) 
["V-A:ASP:366:CA:3210, V-A:ILE:369:CD1:3239, V-A:GLY:454:CA:4049, V-A:GLY:453:CA:4044, V-B:GLU:543:CB:9878, H-B:TYR:539:O:9840, V-B:GLU:543:CD:9880, V-B:ALA:541:CB:9864, V-A:ARG:545:CZ:4926, V-B:TYR:539:CE2:9848, V-A:GLU:543:CD:4908, V-A:ASP:366:CB:3212, V-A:LEU:475:CD2:4259, V-B:GLU:543:CG:9879, V-A:ASP:366:CG:3213, V-A:GLY:453:C:4042"]

$$$$
ZINC587733221-again1
     RDKit          3D

 38 40  0  0  0  0  0  0  0  0999 V2000
  128.6690  129.9460   62.5230 C   0  0  0  0  0  0  0  0  0  0  0  0
  128.7610  128.5440   61.8940 C   0  0  2  0  0  0  0  0  0  0  0  0
  127.3930  127.8870   61.6580 C   0  0  0  0  0  0  0  0  0  0  0  0
  127.5420  126.4710   61.1220 C   0  0  0  0  0  0  0  0  0  0  0  0
  126.5900  125.9540   60.2360 C   0  0  0  0  0  0  0  0  0  0  0  0
  126.6800  124.6500   59.7580 C   0  0  0  0  0  0  0  0  0  0  0  0
  125.3570  123.9870   58.5600 Br  0  0  0  0  0  0  0  0  0  0  0  0
  127.7370  123.8430   60.1650 C   0  0  0  0  0  0  0  0  0  0  0  0
  127.8440  122.5700   59.7160 F   0  0  0  0  0  0  0  0  0  0  0  0
  128.6950  124.3510   61.0380 C   0  0  0  0  0  0  0  0  0  0  0  0
  128.6300  125.6640   61.5300 C   0  0  0  0  0  0  0  0  0  0  0  0
  129.7620  126.1840   62.4580 C   0  0  2  0  0  0  0  0  0  0  0  0
  131.1050  126.2250   61.6760 C   0  0  0  0  0  0  0  0  0  0  0  0
  129.8150  125.3830   63.7800 C   0  0  0  0  0  0  0  0  0  0  0  0
  129.8590  123.9780   63.8080 C   0  0  0  0  0  0  0  0  0  0  0  0
  129.8890  123.2860   65.0190 C   0  0  0  0  0  0  0  0  0  0  0  0
  129.9340  121.9360   65.0240 F   0  0  0  0  0  0  0  0  0  0  0  0
  129.8710  123.9860   66.2240 C   0  0  0  0  0  0  0  0  0  0  0  0
  129.8220  125.3790   66.2180 C   0  0  0  0  0  0  0  0  0  0  0  0
  129.7940  126.3390   67.8590 Br  0  0  0  0  0  0  0  0  0  0  0  0
  129.7920  126.0680   65.0050 C   0  0  0  0  0  0  0  0  0  0  0  0
  129.5340  127.6580   62.8850 N   0  0  0  0  0  0  0  0  0  0  0  0
  128.6748  129.8571   63.6194 H   0  0  0  0  0  0  0  0  0  0  0  0
  129.5294  130.5502   62.1995 H   0  0  0  0  0  0  0  0  0  0  0  0
  127.7370  130.4326   62.1995 H   0  0  0  0  0  0  0  0  0  0  0  0
  129.2492  128.6456   60.9135 H   0  0  0  0  0  0  0  0  0  0  0  0
  126.8432  127.8532   62.6102 H   0  0  0  0  0  0  0  0  0  0  0  0
  126.8466  128.4835   60.9126 H   0  0  0  0  0  0  0  0  0  0  0  0
  125.7541  126.5909   59.9110 H   0  0  0  0  0  0  0  0  0  0  0  0
  129.5277  123.7042   61.3516 H   0  0  0  0  0  0  0  0  0  0  0  0
  131.9432  126.2506   62.3879 H   0  0  0  0  0  0  0  0  0  0  0  0
  131.1884  125.3290   61.0434 H   0  0  0  0  0  0  0  0  0  0  0  0
  131.1336  127.1244   61.0434 H   0  0  0  0  0  0  0  0  0  0  0  0
  129.8699  123.4167   62.8621 H   0  0  0  0  0  0  0  0  0  0  0  0
  129.8954  123.4399   67.1786 H   0  0  0  0  0  0  0  0  0  0  0  0
  129.7496  127.1672   65.0088 H   0  0  0  0  0  0  0  0  0  0  0  0
  129.0420  127.6660   63.7670 H   0  0  0  0  0  0  0  0  0  0  0  0
  130.4360  128.0780   63.0560 H   0  0  0  0  0  0  0  0  0  0  0  0
  1  2  1  0
  2  3  1  0
  3  4  1  0
  4  5  2  0
  5  6  1  0
  6  7  1  0
  6  8  2  0
  8  9  1  0
  8 10  1  0
 10 11  2  0
 11 12  1  0
 12 13  1  6
 12 14  1  0
 14 15  2  0
 15 16  1  0
 16 17  1  0
 16 18  2  0
 18 19  1  0
 19 20  1  0
 19 21  2  0
 12 22  1  0
 22  2  1  0
 11  4  1  0
 21 14  1  0
  1 23  1  0
  1 24  1  0
  1 25  1  0
  2 26  1  6
  3 27  1  0
  3 28  1  0
  5 29  1  0
 10 30  1  0
 13 31  1  0
 13 32  1  0
 13 33  1  0
 15 34  1  0
 18 35  1  0
 21 36  1  0
 22 37  1  0
 22 38  1  0
M  CHG  1  22   1
M  END
>  <Binding energies>  (1) 
[-7.26]

>  <Ligand effiencies>  (1) 
[-0.3025]

>  <Interactions>  (1) 
["V-B:PRO:540:CA:9855, H-A:GLU:543:OE2:4910, V-B:GLU:543:CB:9878, V-B:ALA:541:CB:9864, V-A:TYR:484:CE2:4346, V-B:GLU:543:CG:9879, V-B:TYR:539:C:9839, V-A:LEU:475:CD1:4258, V-A:GLU:543:CD:4908, V-B:PRO:540:CB:9857, V-A:TYR:484:CZ:4347, V-B:GLU:543:CA:9876, V-B:PRO:540:N:9856, V-A:HIS:456:CE1:4070, V-B:TYR:539:CD2:9846, V-B:GLU:543:CD:9880, V-A:LEU:475:CD2:4259, H-A:GLU:543:OE1:4909, H-B:GLU:543:OE2:9882, V-B:PRO:540:C:9853"]

$$$$
ZINC587734322-again1
     RDKit          3D

 39 42  0  0  0  0  0  0  0  0999 V2000
  131.3570  127.3290   59.6880 C   0  0  0  0  0  0  0  0  0  0  0  0
  130.4300  128.1220   60.6330 C   0  0  1  0  0  0  0  0  0  0  0  0
  128.9240  127.9520   60.3870 C   0  0  0  0  0  0  0  0  0  0  0  0
  128.4340  126.5470   60.7150 C   0  0  0  0  0  0  0  0  0  0  0  0
  127.3620  126.0030   59.9980 C   0  0  0  0  0  0  0  0  0  0  0  0
  126.8640  124.7380   60.2900 C   0  0  0  0  0  0  0  0  0  0  0  0
  125.3990  124.0420   59.2910 Br  0  0  0  0  0  0  0  0  0  0  0  0
  127.4390  123.9950   61.3140 C   0  0  0  0  0  0  0  0  0  0  0  0
  126.9700  122.7630   61.6190 F   0  0  0  0  0  0  0  0  0  0  0  0
  128.5100  124.5230   62.0290 C   0  0  0  0  0  0  0  0  0  0  0  0
  129.0410  125.7940   61.7500 C   0  0  0  0  0  0  0  0  0  0  0  0
  130.2740  126.3030   62.5480 C   0  0  2  0  0  0  0  0  0  0  0  0
  131.4980  125.3640   62.3930 C   0  0  0  0  0  0  0  0  0  0  0  0
  131.6300  124.5590   63.6860 C   0  0  0  0  0  0  0  0  0  0  0  0
  130.7910  125.3190   64.6860 C   0  0  0  0  0  0  0  0  0  0  0  0
  130.6670  125.0950   66.0570 C   0  0  0  0  0  0  0  0  0  0  0  0
  129.7880  125.8660   66.8130 C   0  0  0  0  0  0  0  0  0  0  0  0
  129.6770  125.6570   68.1440 F   0  0  0  0  0  0  0  0  0  0  0  0
  129.0160  126.8500   66.1950 C   0  0  0  0  0  0  0  0  0  0  0  0
  129.1140  127.0610   64.8190 C   0  0  0  0  0  0  0  0  0  0  0  0
  127.9970  128.3820   64.0200 Br  0  0  0  0  0  0  0  0  0  0  0  0
  130.0080  126.2950   64.0530 C   0  0  0  0  0  0  0  0  0  0  0  0
  130.7200  127.7190   62.0900 N   0  0  0  0  0  0  0  0  0  0  0  0
  132.0599  126.7277   60.2833 H   0  0  0  0  0  0  0  0  0  0  0  0
  130.7521  126.6645   59.0535 H   0  0  0  0  0  0  0  0  0  0  0  0
  131.9198  128.0295   59.0535 H   0  0  0  0  0  0  0  0  0  0  0  0
  130.6584  129.1779   60.4258 H   0  0  0  0  0  0  0  0  0  0  0  0
  128.3803  128.6713   61.0171 H   0  0  0  0  0  0  0  0  0  0  0  0
  128.7379  128.1296   59.3175 H   0  0  0  0  0  0  0  0  0  0  0  0
  126.9041  126.5882   59.1869 H   0  0  0  0  0  0  0  0  0  0  0  0
  128.9553  123.9262   62.8387 H   0  0  0  0  0  0  0  0  0  0  0  0
  131.3438  124.6842   61.5421 H   0  0  0  0  0  0  0  0  0  0  0  0
  132.4115  125.9478   62.2065 H   0  0  0  0  0  0  0  0  0  0  0  0
  131.2446  123.5377   63.5503 H   0  0  0  0  0  0  0  0  0  0  0  0
  132.6759  124.4523   64.0097 H   0  0  0  0  0  0  0  0  0  0  0  0
  131.2642  124.3085   66.5415 H   0  0  0  0  0  0  0  0  0  0  0  0
  128.3269  127.4624   66.7951 H   0  0  0  0  0  0  0  0  0  0  0  0
  130.2630  128.3940   62.6870 H   0  0  0  0  0  0  0  0  0  0  0  0
  131.7090  127.8220   62.2640 H   0  0  0  0  0  0  0  0  0  0  0  0
  1  2  1  0
  2  3  1  0
  3  4  1  0
  4  5  2  0
  5  6  1  0
  6  7  1  0
  6  8  2  0
  8  9  1  0
  8 10  1  0
 10 11  2  0
 11 12  1  0
 12 13  1  1
 13 14  1  0
 14 15  1  0
 15 16  2  0
 16 17  1  0
 17 18  1  0
 17 19  2  0
 19 20  1  0
 20 21  1  0
 20 22  2  0
 12 23  1  0
 23  2  1  0
 11  4  1  0
 22 12  1  0
 22 15  1  0
  1 24  1  0
  1 25  1  0
  1 26  1  0
  2 27  1  1
  3 28  1  0
  3 29  1  0
  5 30  1  0
 10 31  1  0
 13 32  1  0
 13 33  1  0
 14 34  1  0
 14 35  1  0
 16 36  1  0
 19 37  1  0
 23 38  1  0
 23 39  1  0
M  CHG  1  23   1
M  END
>  <Binding energies>  (1) 
[-7.38]

>  <Ligand effiencies>  (1) 
[-0.2952]

>  <Interactions>  (1) 
["V-B:PRO:540:CA:9855, V-A:HIS:456:CE1:4070, V-B:GLU:543:C:9874, H-A:GLU:543:OE2:4910, V-B:GLU:543:CB:9878, V-B:PRO:540:C:9853, V-B:GLU:543:CD:9880, V-A:TYR:484:CZ:4347, H-A:ASP:366:OD2:3215, V-A:ASP:366:CB:3212, V-B:PRO:540:CB:9857, V-B:ALA:541:CA:9862, V-A:GLU:543:CD:4908, V-B:GLU:543:CG:9879, H-A:GLU:543:OE1:4909, V-B:GLU:543:CA:9876, V-A:ASP:366:CG:3213, H-A:ASP:366:OD1:3214"]

$$$$
ZINC587740589-again1
     RDKit          3D

 94 99  0  0  0  0  0  0  0  0999 V2000
  132.2560  126.5090   61.2570 C   0  0  0  0  0  0  0  0  0  0  0  0
  130.9360  126.6910   61.4600 C   0  0  0  0  0  0  0  0  0  0  0  0
  130.4130  127.1070   62.6640 N   0  0  0  0  0  0  0  0  0  0  0  0
  129.4280  126.4370   63.5010 C   0  0  0  0  0  0  0  0  0  0  0  0
  128.3120  127.3790   63.9900 C   0  0  0  0  0  0  0  0  0  0  0  0
  128.5660  128.8660   63.6740 C   0  0  0  0  0  0  0  0  0  0  0  0
  127.8590  129.8190   64.6580 C   0  0  0  0  0  0  0  0  0  0  0  0
  127.5940  131.2440   64.0910 C   0  0  1  0  0  0  0  0  0  0  0  0
  128.6370  131.6470   63.1220 N   0  0  0  0  0  0  0  0  0  0  0  0
  128.6370  132.8990   62.5200 C   0  0  0  0  0  0  0  0  0  0  0  0
  127.8180  133.8050   62.7010 O   0  0  0  0  0  0  0  0  0  0  0  0
  129.6870  132.9720   61.6840 O   0  0  0  0  0  0  0  0  0  0  0  0
  130.5320  131.8480   61.4680 C   0  0  0  0  0  0  0  0  0  0  0  0
  130.0960  131.0820   60.2030 C   0  0  0  0  0  0  0  0  0  0  0  0
  128.6060  131.1370   59.9130 C   0  0  0  0  0  0  0  0  0  0  0  0
  127.5260  130.7180   60.6970 C   0  0  0  0  0  0  0  0  0  0  0  0
  126.2210  130.8720   60.2280 C   0  0  0  0  0  0  0  0  0  0  0  0
  125.9910  131.4400   58.9740 C   0  0  0  0  0  0  0  0  0  0  0  0
  127.0660  131.8510   58.1840 C   0  0  0  0  0  0  0  0  0  0  0  0
  128.3700  131.6960   58.6570 C   0  0  0  0  0  0  0  0  0  0  0  0
  129.6660  132.0240   58.0420 C   0  0  0  0  0  0  0  0  0  0  0  0
  129.9760  132.5880   56.8030 C   0  0  0  0  0  0  0  0  0  0  0  0
  131.3120  132.7980   56.4540 C   0  0  0  0  0  0  0  0  0  0  0  0
  132.3290  132.4460   57.3420 C   0  0  0  0  0  0  0  0  0  0  0  0
  132.0160  131.8830   58.5800 C   0  0  0  0  0  0  0  0  0  0  0  0
  130.6800  131.6680   58.9310 C   0  0  0  0  0  0  0  0  0  0  0  0
  126.1420  131.3540   63.4700 C   0  0  0  0  0  0  0  0  0  0  0  0
  125.6580  130.2550   63.1120 O   0  0  0  0  0  0  0  0  0  0  0  0
  125.6150  132.4910   63.3890 O   0  0  0  0  0  0  0  0  0  0  0  0
  130.0340  126.4090   60.3330 C   0  0  0  0  0  0  0  0  0  0  0  0
  129.6100  127.3890   59.4810 C   0  0  0  0  0  0  0  0  0  0  0  0
  130.0100  128.6180   59.4940 O   0  0  0  0  0  0  0  0  0  0  0  0
  128.5760  127.1450   58.3780 C   0  0  0  0  0  0  0  0  0  0  0  0
  128.9430  125.8590   57.5950 C   0  0  0  0  0  0  0  0  0  0  0  0
  127.7610  125.4920   56.6670 C   0  0  0  0  0  0  0  0  0  0  0  0
  130.2270  126.1300   56.7730 C   0  0  0  0  0  0  0  0  0  0  0  0
  129.2200  124.6640   58.5800 C   0  0  0  0  0  0  0  0  0  0  0  0
  129.5250  124.9560   60.1090 C   0  0  2  0  0  0  0  0  0  0  0  0
  128.1530  125.1080   60.8340 N   0  0  0  0  0  0  0  0  0  0  0  0
  127.6060  123.9440   61.6730 C   0  0  1  0  0  0  0  0  0  0  0  0
  127.1100  122.8240   60.7360 C   0  0  0  0  0  0  0  0  0  0  0  0
  128.6980  123.5490   62.6650 C   0  0  0  0  0  0  0  0  0  0  0  0
  129.9880  123.1670   61.9600 C   0  0  0  0  0  0  0  0  0  0  0  0
  130.7640  122.1350   62.4980 C   0  0  0  0  0  0  0  0  0  0  0  0
  131.9800  121.7830   61.9370 C   0  0  0  0  0  0  0  0  0  0  0  0
  132.4470  122.4730   60.8300 C   0  0  0  0  0  0  0  0  0  0  0  0
  133.6510  122.1420   60.3080 F   0  0  0  0  0  0  0  0  0  0  0  0
  131.6860  123.4990   60.2670 C   0  0  0  0  0  0  0  0  0  0  0  0
  132.4740  124.4110   58.7810 Br  0  0  0  0  0  0  0  0  0  0  0  0
  130.4170  123.8560   60.7930 C   0  0  0  0  0  0  0  0  0  0  0  0
  132.6204  126.1751   60.2743 H   0  0  0  0  0  0  0  0  0  0  0  0
  132.9688  126.6943   62.0740 H   0  0  0  0  0  0  0  0  0  0  0  0
  130.5590  128.0700   62.9310 H   0  0  0  0  0  0  0  0  0  0  0  0
  128.9699  125.6231   62.9198 H   0  0  0  0  0  0  0  0  0  0  0  0
  129.9541  126.0610   64.3909 H   0  0  0  0  0  0  0  0  0  0  0  0
  127.3697  127.0787   63.5084 H   0  0  0  0  0  0  0  0  0  0  0  0
  128.2746  127.2875   65.0856 H   0  0  0  0  0  0  0  0  0  0  0  0
  129.6488  129.0544   63.7201 H   0  0  0  0  0  0  0  0  0  0  0  0
  128.1575  129.0644   62.6721 H   0  0  0  0  0  0  0  0  0  0  0  0
  126.8923  129.3731   64.9349 H   0  0  0  0  0  0  0  0  0  0  0  0
  128.5346  129.9425   65.5172 H   0  0  0  0  0  0  0  0  0  0  0  0
  127.6458  131.9508   64.9323 H   0  0  0  0  0  0  0  0  0  0  0  0
  129.3640  130.9850   62.8940 H   0  0  0  0  0  0  0  0  0  0  0  0
  131.5690  132.1930   61.3432 H   0  0  0  0  0  0  0  0  0  0  0  0
  130.4588  131.1751   62.3351 H   0  0  0  0  0  0  0  0  0  0  0  0
  130.4429  130.0640   60.4341 H   0  0  0  0  0  0  0  0  0  0  0  0
  127.7057  130.2668   61.6840 H   0  0  0  0  0  0  0  0  0  0  0  0
  125.3725  130.5454   60.8472 H   0  0  0  0  0  0  0  0  0  0  0  0
  124.9612  131.5640   58.6077 H   0  0  0  0  0  0  0  0  0  0  0  0
  126.8863  132.2948   57.1937 H   0  0  0  0  0  0  0  0  0  0  0  0
  129.1722  132.8655   56.1053 H   0  0  0  0  0  0  0  0  0  0  0  0
  131.5625  133.2410   55.4788 H   0  0  0  0  0  0  0  0  0  0  0  0
  133.3805  132.6127   57.0655 H   0  0  0  0  0  0  0  0  0  0  0  0
  132.8198  131.6087   59.2790 H   0  0  0  0  0  0  0  0  0  0  0  0
  127.5801  127.0266   58.8298 H   0  0  0  0  0  0  0  0  0  0  0  0
  128.5687  128.0022   57.6887 H   0  0  0  0  0  0  0  0  0  0  0  0
  126.8867  125.2205   57.2768 H   0  0  0  0  0  0  0  0  0  0  0  0
  127.5116  126.3550   56.0322 H   0  0  0  0  0  0  0  0  0  0  0  0
  128.0442  124.6395   56.0322 H   0  0  0  0  0  0  0  0  0  0  0  0
  131.0697  126.3079   57.4573 H   0  0  0  0  0  0  0  0  0  0  0  0
  130.4472  125.2585   56.1389 H   0  0  0  0  0  0  0  0  0  0  0  0
  130.0762  127.0161   56.1389 H   0  0  0  0  0  0  0  0  0  0  0  0
  128.3323  124.0151   58.5508 H   0  0  0  0  0  0  0  0  0  0  0  0
  130.1650  124.2413   58.2081 H   0  0  0  0  0  0  0  0  0  0  0  0
  128.2300  125.9100   61.4450 H   0  0  0  0  0  0  0  0  0  0  0  0
  127.4580  125.3600   60.1460 H   0  0  0  0  0  0  0  0  0  0  0  0
  126.7209  124.2119   62.2686 H   0  0  0  0  0  0  0  0  0  0  0  0
  126.7369  121.9816   61.3369 H   0  0  0  0  0  0  0  0  0  0  0  0
  126.2984  123.2095   60.1014 H   0  0  0  0  0  0  0  0  0  0  0  0
  127.9409  122.4821   60.1014 H   0  0  0  0  0  0  0  0  0  0  0  0
  128.8960  124.3994   63.3340 H   0  0  0  0  0  0  0  0  0  0  0  0
  128.3457  122.6744   63.2316 H   0  0  0  0  0  0  0  0  0  0  0  0
  130.4013  121.5927   63.3837 H   0  0  0  0  0  0  0  0  0  0  0  0
  132.5712  120.9612   62.3673 H   0  0  0  0  0  0  0  0  0  0  0  0
  1  2  2  0
  2  3  1  0
  3  4  1  0
  4  5  1  0
  5  6  1  0
  6  7  1  0
  7  8  1  0
  8  9  1  0
  9 10  1  0
 10 11  2  0
 10 12  1  0
 12 13  1  0
 13 14  1  0
 14 15  1  0
 15 16  2  0
 16 17  1  0
 17 18  2  0
 18 19  1  0
 19 20  2  0
 20 21  1  0
 21 22  2  0
 22 23  1  0
 23 24  2  0
 24 25  1  0
 25 26  2  0
  8 27  1  0
 27 28  2  0
 27 29  1  0
  2 30  1  0
 30 31  2  0
 31 32  1  0
 31 33  1  0
 33 34  1  0
 34 35  1  0
 34 36  1  0
 34 37  1  0
 38 37  1  6
 38 39  1  0
 39 40  1  0
 40 41  1  0
 40 42  1  0
 42 43  1  0
 43 44  2  0
 44 45  1  0
 45 46  2  0
 46 47  1  0
 46 48  1  0
 48 49  1  0
 48 50  2  0
 26 14  1  0
 38 30  1  0
 50 43  1  0
 20 15  1  0
 26 21  1  0
 50 38  1  0
  1 51  1  0
  1 52  1  0
  3 53  1  0
  4 54  1  0
  4 55  1  0
  5 56  1  0
  5 57  1  0
  6 58  1  0
  6 59  1  0
  7 60  1  0
  7 61  1  0
  8 62  1  1
  9 63  1  0
 13 64  1  0
 13 65  1  0
 14 66  1  0
 16 67  1  0
 17 68  1  0
 18 69  1  0
 19 70  1  0
 22 71  1  0
 23 72  1  0
 24 73  1  0
 25 74  1  0
 33 75  1  0
 33 76  1  0
 35 77  1  0
 35 78  1  0
 35 79  1  0
 36 80  1  0
 36 81  1  0
 36 82  1  0
 37 83  1  0
 37 84  1  0
 39 85  1  0
 39 86  1  0
 40 87  1  1
 41 88  1  0
 41 89  1  0
 41 90  1  0
 42 91  1  0
 42 92  1  0
 44 93  1  0
 45 94  1  0
M  CHG  3  29  -1  32  -1  39   1
M  END
>  <Binding energies>  (1) 
[-6.12]

>  <Ligand effiencies>  (1) 
[-0.11333333333333334]

>  <Interactions>  (1) 
["V-A:ILE:369:CG2:3237, V-B:PRO:540:CA:9855, V-A:PRO:540:CG:4886, H-A:GLU:543:OE2:4910, V-A:ILE:369:CB:3236, H-A:ALA:541:N:4891, V-A:ILE:538:CB:4862, V-B:TYR:539:CE2:9848, V-B:GLU:543:CG:9879, V-A:ASP:366:CG:3213, V-A:ILE:538:CG2:4863, V-A:LEU:363:CD1:3189, V-A:TYR:539:CD1:4873, V-B:TYR:539:CZ:9849, V-A:ILE:538:CA:4860, H-B:GLU:543:OE1:9881, V-A:TYR:539:CZ:4877, V-A:ALA:541:CB:4892, V-A:GLU:543:CD:4908, V-B:PRO:540:CB:9857, H-B:TYR:484:OH:9319, V-B:PRO:540:N:9856, V-A:ILE:369:CD1:3239, V-A:GLU:543:CG:4907, V-B:GLU:543:CD:9880, V-A:ASP:366:CB:3212, V-A:LEU:475:CD2:4259, H-A:GLU:543:OE1:4909, V-A:PRO:540:CB:4885, V-A:PRO:540:CA:4883, V-B:PRO:540:C:9853, V-A:PRO:540:CD:4887, V-A:TYR:539:CE1:4875"]

$$$$
ZINC587740589-again2
     RDKit          3D

 95100  0  0  0  0  0  0  0  0999 V2000
  130.1170  123.8740   64.8020 C   0  0  0  0  0  0  0  0  0  0  0  0
  130.6900  125.0460   64.4530 C   0  0  0  0  0  0  0  0  0  0  0  0
  130.3670  126.2330   65.1140 N   0  0  0  0  0  0  0  0  0  0  0  0
  129.1140  126.9490   64.9220 C   0  0  0  0  0  0  0  0  0  0  0  0
  128.4050  127.1370   66.2750 C   0  0  0  0  0  0  0  0  0  0  0  0
  129.2190  127.9930   67.2580 C   0  0  0  0  0  0  0  0  0  0  0  0
  128.5330  129.3330   67.6000 C   0  0  0  0  0  0  0  0  0  0  0  0
  127.6420  129.9180   66.4530 C   0  0  1  0  0  0  0  0  0  0  0  0
  128.4020  130.0020   65.1840 N   0  0  0  0  0  0  0  0  0  0  0  0
  128.1310  130.9580   64.2100 C   0  0  0  0  0  0  0  0  0  0  0  0
  127.2910  131.8580   64.2760 O   0  0  0  0  0  0  0  0  0  0  0  0
  128.9150  130.7220   63.1370 O   0  0  0  0  0  0  0  0  0  0  0  0
  128.5150  131.1160   61.8250 C   0  0  0  0  0  0  0  0  0  0  0  0
  129.4360  132.2120   61.2370 C   0  0  0  0  0  0  0  0  0  0  0  0
  130.9040  131.9570   61.5130 C   0  0  0  0  0  0  0  0  0  0  0  0
  131.5690  131.8270   62.7360 C   0  0  0  0  0  0  0  0  0  0  0  0
  132.9440  131.5890   62.7570 C   0  0  0  0  0  0  0  0  0  0  0  0
  133.6550  131.4810   61.5610 C   0  0  0  0  0  0  0  0  0  0  0  0
  132.9940  131.6150   60.3380 C   0  0  0  0  0  0  0  0  0  0  0  0
  131.6190  131.8560   60.3200 C   0  0  0  0  0  0  0  0  0  0  0  0
  130.6860  132.0560   59.1990 C   0  0  0  0  0  0  0  0  0  0  0  0
  130.8960  132.0570   57.8190 C   0  0  0  0  0  0  0  0  0  0  0  0
  129.8230  132.2930   56.9580 C   0  0  0  0  0  0  0  0  0  0  0  0
  128.5480  132.5300   57.4750 C   0  0  0  0  0  0  0  0  0  0  0  0
  128.3420  132.5260   58.8560 C   0  0  0  0  0  0  0  0  0  0  0  0
  129.4120  132.2820   59.7210 C   0  0  0  0  0  0  0  0  0  0  0  0
  126.2260  129.2230   66.2710 C   0  0  0  0  0  0  0  0  0  0  0  0
  125.7200  129.3680   65.1330 O   0  0  0  0  0  0  0  0  0  0  0  0
  125.7370  128.6410   67.2680 O   0  0  0  0  0  0  0  0  0  0  0  0
  131.6760  125.0910   63.3550 C   0  0  0  0  0  0  0  0  0  0  0  0
  132.9960  124.7730   63.5360 C   0  0  0  0  0  0  0  0  0  0  0  0
  133.5370  124.4090   64.6530 O   0  0  0  0  0  0  0  0  0  0  0  0
  134.0330  124.8280   62.4090 C   0  0  0  0  0  0  0  0  0  0  0  0
  133.4580  124.1130   61.1570 C   0  0  0  0  0  0  0  0  0  0  0  0
  134.4040  124.3760   59.9620 C   0  0  0  0  0  0  0  0  0  0  0  0
  133.3470  122.5950   61.4560 C   0  0  0  0  0  0  0  0  0  0  0  0
  132.0230  124.6610   60.8160 C   0  0  0  0  0  0  0  0  0  0  0  0
  131.2070  125.4670   61.9130 C   0  0  2  0  0  0  0  0  0  0  0  0
  131.7180  126.9400   61.8860 N   0  0  0  0  0  0  0  0  0  0  0  0
  130.9140  128.0080   61.1260 C   0  0  1  0  0  0  0  0  0  0  0  0
  131.0650  127.7980   59.6060 C   0  0  0  0  0  0  0  0  0  0  0  0
  129.4840  127.9660   61.6580 C   0  0  0  0  0  0  0  0  0  0  0  0
  128.8690  126.5820   61.5300 C   0  0  0  0  0  0  0  0  0  0  0  0
  127.5000  126.4890   61.2690 C   0  0  0  0  0  0  0  0  0  0  0  0
  126.8580  125.2630   61.2090 C   0  0  0  0  0  0  0  0  0  0  0  0
  127.5850  124.1040   61.4180 C   0  0  0  0  0  0  0  0  0  0  0  0
  126.9480  122.9110   61.3800 F   0  0  0  0  0  0  0  0  0  0  0  0
  128.9590  124.1670   61.6630 C   0  0  0  0  0  0  0  0  0  0  0  0
  129.8360  122.4940   61.9590 Br  0  0  0  0  0  0  0  0  0  0  0  0
  129.6500  125.4060   61.7030 C   0  0  0  0  0  0  0  0  0  0  0  0
  130.3853  122.9502   64.2685 H   0  0  0  0  0  0  0  0  0  0  0  0
  129.3819  123.8432   65.6198 H   0  0  0  0  0  0  0  0  0  0  0  0
  130.3880  126.0720   66.1110 H   0  0  0  0  0  0  0  0  0  0  0  0
  131.0910  126.9230   64.9780 H   0  0  0  0  0  0  0  0  0  0  0  0
  129.3212  127.9342   64.4789 H   0  0  0  0  0  0  0  0  0  0  0  0
  128.4644  126.3683   64.2506 H   0  0  0  0  0  0  0  0  0  0  0  0
  127.4365  127.6281   66.0994 H   0  0  0  0  0  0  0  0  0  0  0  0
  128.2808  126.1414   66.7259 H   0  0  0  0  0  0  0  0  0  0  0  0
  129.3578  127.4225   68.1882 H   0  0  0  0  0  0  0  0  0  0  0  0
  130.1785  128.2280   66.7742 H   0  0  0  0  0  0  0  0  0  0  0  0
  127.8968  129.1775   68.4838 H   0  0  0  0  0  0  0  0  0  0  0  0
  129.3387  130.0617   67.7726 H   0  0  0  0  0  0  0  0  0  0  0  0
  127.3849  130.9378   66.7755 H   0  0  0  0  0  0  0  0  0  0  0  0
  129.1350  129.3270   65.0230 H   0  0  0  0  0  0  0  0  0  0  0  0
  128.5464  130.2359   61.1659 H   0  0  0  0  0  0  0  0  0  0  0  0
  127.4981  131.5300   61.8922 H   0  0  0  0  0  0  0  0  0  0  0  0
  129.0440  133.1216   61.7154 H   0  0  0  0  0  0  0  0  0  0  0  0
  131.0098  131.9121   63.6794 H   0  0  0  0  0  0  0  0  0  0  0  0
  133.4685  131.4863   63.7184 H   0  0  0  0  0  0  0  0  0  0  0  0
  134.7381  131.2900   61.5816 H   0  0  0  0  0  0  0  0  0  0  0  0
  133.5534  131.5312   59.3946 H   0  0  0  0  0  0  0  0  0  0  0  0
  131.9014  131.8729   57.4124 H   0  0  0  0  0  0  0  0  0  0  0  0
  129.9824  132.2922   55.8696 H   0  0  0  0  0  0  0  0  0  0  0  0
  127.7053  132.7200   56.7940 H   0  0  0  0  0  0  0  0  0  0  0  0
  127.3376  132.7149   59.2629 H   0  0  0  0  0  0  0  0  0  0  0  0
  134.2564  125.8769   62.1644 H   0  0  0  0  0  0  0  0  0  0  0  0
  134.9580  124.3271   62.7307 H   0  0  0  0  0  0  0  0  0  0  0  0
  135.4003  124.6530   60.3371 H   0  0  0  0  0  0  0  0  0  0  0  0
  134.4828  123.4657   59.3495 H   0  0  0  0  0  0  0  0  0  0  0  0
  134.0017  125.1964   59.3495 H   0  0  0  0  0  0  0  0  0  0  0  0
  133.3353  122.4356   62.5443 H   0  0  0  0  0  0  0  0  0  0  0  0
  132.4177  122.2020   61.0179 H   0  0  0  0  0  0  0  0  0  0  0  0
  134.2092  122.0710   61.0179 H   0  0  0  0  0  0  0  0  0  0  0  0
  132.1342  125.3273   59.9479 H   0  0  0  0  0  0  0  0  0  0  0  0
  131.4273  123.7472   60.6743 H   0  0  0  0  0  0  0  0  0  0  0  0
  131.8100  127.2480   62.8430 H   0  0  0  0  0  0  0  0  0  0  0  0
  132.6580  126.9350   61.5160 H   0  0  0  0  0  0  0  0  0  0  0  0
  131.2896  129.0278   61.2960 H   0  0  0  0  0  0  0  0  0  0  0  0
  131.6978  126.9180   59.4185 H   0  0  0  0  0  0  0  0  0  0  0  0
  130.0733  127.6388   59.1575 H   0  0  0  0  0  0  0  0  0  0  0  0
  131.5317  128.6874   59.1575 H   0  0  0  0  0  0  0  0  0  0  0  0
  129.4914  128.2545   62.7195 H   0  0  0  0  0  0  0  0  0  0  0  0
  128.8786  128.6633   61.0602 H   0  0  0  0  0  0  0  0  0  0  0  0
  126.9192  127.4091   61.1076 H   0  0  0  0  0  0  0  0  0  0  0  0
  125.7799  125.2111   60.9971 H   0  0  0  0  0  0  0  0  0  0  0  0
  1  2  2  0
  2  3  1  0
  3  4  1  0
  4  5  1  0
  5  6  1  0
  6  7  1  0
  7  8  1  0
  8  9  1  0
  9 10  1  0
 10 11  2  0
 10 12  1  0
 12 13  1  0
 13 14  1  0
 14 15  1  0
 15 16  2  0
 16 17  1  0
 17 18  2  0
 18 19  1  0
 19 20  2  0
 20 21  1  0
 21 22  2  0
 22 23  1  0
 23 24  2  0
 24 25  1  0
 25 26  2  0
  8 27  1  0
 27 28  2  0
 27 29  1  0
  2 30  1  0
 30 31  2  0
 31 32  1  0
 31 33  1  0
 33 34  1  0
 34 35  1  0
 34 36  1  0
 34 37  1  0
 38 37  1  6
 38 39  1  0
 39 40  1  0
 40 41  1  0
 40 42  1  0
 42 43  1  0
 43 44  2  0
 44 45  1  0
 45 46  2  0
 46 47  1  0
 46 48  1  0
 48 49  1  0
 48 50  2  0
 26 14  1  0
 38 30  1  0
 50 43  1  0
 20 15  1  0
 26 21  1  0
 50 38  1  0
  1 51  1  0
  1 52  1  0
  3 53  1  0
  3 54  1  0
  4 55  1  0
  4 56  1  0
  5 57  1  0
  5 58  1  0
  6 59  1  0
  6 60  1  0
  7 61  1  0
  7 62  1  0
  8 63  1  1
  9 64  1  0
 13 65  1  0
 13 66  1  0
 14 67  1  0
 16 68  1  0
 17 69  1  0
 18 70  1  0
 19 71  1  0
 22 72  1  0
 23 73  1  0
 24 74  1  0
 25 75  1  0
 33 76  1  0
 33 77  1  0
 35 78  1  0
 35 79  1  0
 35 80  1  0
 36 81  1  0
 36 82  1  0
 36 83  1  0
 37 84  1  0
 37 85  1  0
 39 86  1  0
 39 87  1  0
 40 88  1  6
 41 89  1  0
 41 90  1  0
 41 91  1  0
 42 92  1  0
 42 93  1  0
 44 94  1  0
 45 95  1  0
M  CHG  4   3   1  29  -1  32  -1  39   1
M  END
>  <Binding energies>  (1) 
[-11.17]

>  <Ligand effiencies>  (1) 
[-0.2030909090909091]

>  <Interactions>  (1) 
["V-A:ILE:369:CG2:3237, V-A:ASP:366:CA:3210, V-B:PRO:540:CA:9855, V-A:GLU:543:CA:4904, V-A:ALA:541:C:4888, H-A:GLU:543:OE2:4910, V-A:ILE:369:CB:3236, V-B:GLU:543:CB:9878, V-A:PRO:540:C:4881, V-A:TYR:484:CE2:4346, V-B:GLU:543:CG:9879, V-A:ASP:366:CG:3213, V-A:ASN:362:CB:3176, H-B:HIS:456:ND1:9038, V-B:TYR:484:CE2:9317, V-A:TYR:539:CD1:4873, H-B:ARG:545:NE:9896, V-A:GLU:543:CD:4908, V-B:PRO:540:CB:9857, H-B:TYR:484:OH:9319, V-B:HIS:456:CE1:9041, H-A:GLY:454:N:4050, V-A:ILE:369:CD1:3239, V-B:TYR:484:CZ:9318, V-A:ALA:541:CA:4890, V-A:GLU:543:CG:4907, V-B:GLU:543:CD:9880, V-A:MET:535:CE:4835, V-A:ASP:366:CB:3212, V-A:ASN:362:C:3172, V-A:ARG:545:CZ:4926, H-A:GLU:543:OE1:4909, V-A:GLU:543:CB:4906, H-A:ASP:366:OD1:3214, V-A:PRO:540:N:4884, V-A:PRO:540:CB:4885, V-A:PRO:540:CA:4883, V-B:PRO:540:C:9853, H-A:ASP:366:OD2:3215, V-A:TYR:539:CE1:4875, H-A:TYR:484:OH:4348"]

$$$$
ZINC587751474
     RDKit          3D

 50 54  0  0  0  0  0  0  0  0999 V2000
  132.4170  131.2400   59.7610 C   0  0  0  0  0  0  0  0  0  0  0  0
  131.5640  130.0330   59.3440 C   0  0  2  0  0  0  0  0  0  0  0  0
  130.3450  130.4720   58.5130 C   0  0  0  0  0  0  0  0  0  0  0  0
  129.4590  129.2960   58.1330 C   0  0  0  0  0  0  0  0  0  0  0  0
  128.7120  129.3420   56.9530 C   0  0  0  0  0  0  0  0  0  0  0  0
  127.8740  128.2960   56.5930 C   0  0  0  0  0  0  0  0  0  0  0  0
  127.7730  127.1820   57.4140 C   0  0  0  0  0  0  0  0  0  0  0  0
  126.9510  126.1680   57.0560 F   0  0  0  0  0  0  0  0  0  0  0  0
  128.5180  127.1090   58.5930 C   0  0  0  0  0  0  0  0  0  0  0  0
  128.3280  125.5290   59.6550 Br  0  0  0  0  0  0  0  0  0  0  0  0
  129.3830  128.1610   58.9760 C   0  0  0  0  0  0  0  0  0  0  0  0
  130.2640  128.0800   60.2680 C   0  0  1  0  0  0  0  0  0  0  0  0
  131.0820  129.2850   60.4980 N   0  0  0  0  0  0  0  0  0  0  0  0
  129.3320  128.0820   61.5150 C   0  0  0  0  0  0  0  0  0  0  0  0
  128.1040  128.7740   61.5160 C   0  0  0  0  0  0  0  0  0  0  0  0
  127.2560  128.7800   62.6190 C   0  0  0  0  0  0  0  0  0  0  0  0
  127.6200  128.0960   63.7700 C   0  0  0  0  0  0  0  0  0  0  0  0
  128.8310  127.4150   63.8100 C   0  0  0  0  0  0  0  0  0  0  0  0
  129.6880  127.4030   62.6960 C   0  0  0  0  0  0  0  0  0  0  0  0
  130.9790  126.6850   62.7770 C   0  0  0  0  0  0  0  0  0  0  0  0
  131.4620  126.3900   63.8730 O   0  0  0  0  0  0  0  0  0  0  0  0
  131.5400  126.1650   61.4840 C   0  0  0  0  0  0  0  0  0  0  0  0
  132.3460  124.9980   61.4770 C   0  0  0  0  0  0  0  0  0  0  0  0
  132.5640  124.1510   62.6650 N   0  0  0  0  0  0  0  0  0  0  0  0
  131.7220  123.2940   62.9200 O   0  0  0  0  0  0  0  0  0  0  0  0
  133.5910  124.3280   63.3120 O   0  0  0  0  0  0  0  0  0  0  0  0
  132.9510  124.5770   60.3040 C   0  0  0  0  0  0  0  0  0  0  0  0
  132.7770  125.2650   59.1120 C   0  0  0  0  0  0  0  0  0  0  0  0
  133.4910  124.7460   57.9000 C   0  0  0  0  0  0  0  0  0  0  0  0
  133.9880  123.5980   57.9750 O   0  0  0  0  0  0  0  0  0  0  0  0
  133.5390  125.4950   56.8970 O   0  0  0  0  0  0  0  0  0  0  0  0
  131.9370  126.3980   59.0910 C   0  0  0  0  0  0  0  0  0  0  0  0
  131.7810  127.0720   57.8680 N   0  0  0  0  0  0  0  0  0  0  0  0
  131.2740  126.8610   60.2680 C   0  0  0  0  0  0  0  0  0  0  0  0
  132.4581  131.2982   60.8587 H   0  0  0  0  0  0  0  0  0  0  0  0
  133.4354  131.1248   59.3615 H   0  0  0  0  0  0  0  0  0  0  0  0
  131.9685  132.1615   59.3615 H   0  0  0  0  0  0  0  0  0  0  0  0
  132.2192  129.3887   58.7393 H   0  0  0  0  0  0  0  0  0  0  0  0
  129.7523  131.1867   59.1028 H   0  0  0  0  0  0  0  0  0  0  0  0
  130.7153  130.9314   57.5846 H   0  0  0  0  0  0  0  0  0  0  0  0
  128.7895  130.2224   56.2982 H   0  0  0  0  0  0  0  0  0  0  0  0
  127.2924  128.3498   55.6609 H   0  0  0  0  0  0  0  0  0  0  0  0
  131.8510  129.0410   61.1060 H   0  0  0  0  0  0  0  0  0  0  0  0
  127.8059  129.3283   60.6138 H   0  0  0  0  0  0  0  0  0  0  0  0
  126.3011  129.3246   62.5787 H   0  0  0  0  0  0  0  0  0  0  0  0
  126.9542  128.0927   64.6456 H   0  0  0  0  0  0  0  0  0  0  0  0
  129.1224  126.8786   64.7251 H   0  0  0  0  0  0  0  0  0  0  0  0
  133.5835  123.6771   60.3181 H   0  0  0  0  0  0  0  0  0  0  0  0
  132.0240  126.6020   57.0080 H   0  0  0  0  0  0  0  0  0  0  0  0
  131.4930  128.0400   57.8730 H   0  0  0  0  0  0  0  0  0  0  0  0
  1  2  1  0
  2  3  1  0
  3  4  1  0
  4  5  2  0
  5  6  1  0
  6  7  2  0
  7  8  1  0
  7  9  1  0
  9 10  1  0
  9 11  2  0
 11 12  1  0
 12 13  1  1
 12 14  1  0
 14 15  2  0
 15 16  1  0
 16 17  2  0
 17 18  1  0
 18 19  2  0
 19 20  1  0
 20 21  2  0
 20 22  1  0
 22 23  2  0
 23 24  1  0
 24 25  2  0
 24 26  1  0
 23 27  1  0
 27 28  2  0
 28 29  1  0
 29 30  2  0
 29 31  1  0
 28 32  1  0
 32 33  1  0
 32 34  2  0
 13  2  1  0
 19 14  1  0
 34 22  1  0
 11  4  1  0
 34 12  1  0
  1 35  1  0
  1 36  1  0
  1 37  1  0
  2 38  1  6
  3 39  1  0
  3 40  1  0
  5 41  1  0
  6 42  1  0
 13 43  1  0
 15 44  1  0
 16 45  1  0
 17 46  1  0
 18 47  1  0
 27 48  1  0
 33 49  1  0
 33 50  1  0
M  CHG  3  24   1  26  -1  31  -1
M  END
>  <Binding energies>  (1) 
[-6.83]

>  <Ligand effiencies>  (1) 
[-0.1845945945945946]

>  <Interactions>  (1) 
["V-A:ASP:366:CA:3210, H-A:TYR:531:OH:4795, V-B:TYR:539:CE2:9848, V-A:ASP:366:CG:3213, V-B:TYR:539:CZ:9849, H-A:ASN:370:N:3244, V-B:TYR:531:CZ:9766, H-B:TYR:539:OH:9850, V-A:GLU:543:CD:4908, H-A:GLY:454:N:4050, V-A:ASP:366:C:3208, V-A:TYR:531:CZ:4794, V-A:MET:535:CE:4835, V-B:GLU:543:CD:9880, V-A:ASP:366:CB:3212, H-A:ARG:545:NH2:4928, H-A:GLU:543:OE1:4909, V-A:PRO:540:CB:4885, V-A:PRO:540:CA:4883, H-A:ASP:366:OD2:3215"]

$$$$
ZINC587754227
     RDKit          3D

 39 41  0  0  0  0  0  0  0  0999 V2000
  132.1300  129.8320   57.8970 C   0  0  0  0  0  0  0  0  0  0  0  0
  131.0700  130.2830   58.9120 C   0  0  1  0  0  0  0  0  0  0  0  0
  131.6210  131.3200   59.9010 C   0  0  0  0  0  0  0  0  0  0  0  0
  130.5480  131.6960   60.9070 C   0  0  0  0  0  0  0  0  0  0  0  0
  130.8590  131.8260   62.2630 C   0  0  0  0  0  0  0  0  0  0  0  0
  129.8970  132.2310   63.1770 C   0  0  0  0  0  0  0  0  0  0  0  0
  128.6190  132.5410   62.7370 C   0  0  0  0  0  0  0  0  0  0  0  0
  127.7030  132.9820   63.6300 F   0  0  0  0  0  0  0  0  0  0  0  0
  128.2870  132.4140   61.3850 C   0  0  0  0  0  0  0  0  0  0  0  0
  126.5340  132.9870   60.8790 Br  0  0  0  0  0  0  0  0  0  0  0  0
  129.2310  131.9240   60.4480 C   0  0  0  0  0  0  0  0  0  0  0  0
  128.9420  131.7090   58.9320 C   0  0  2  0  0  0  0  0  0  0  0  0
  129.0830  133.1100   58.2710 C   0  0  0  0  0  0  0  0  0  0  0  0
  130.1130  133.2400   57.2230 C   0  0  0  0  0  0  0  0  0  0  0  0
  130.9220  133.3430   56.4010 N   0  0  0  0  0  0  0  0  0  0  0  0
  127.5620  131.0860   58.6250 C   0  0  0  0  0  0  0  0  0  0  0  0
  126.5810  131.4860   57.7110 C   0  0  0  0  0  0  0  0  0  0  0  0
  125.5020  130.6120   57.7680 C   0  0  0  0  0  0  0  0  0  0  0  0
  125.8160  129.6640   58.7160 C   0  0  0  0  0  0  0  0  0  0  0  0
  127.0560  129.9440   59.2450 N   0  0  0  0  0  0  0  0  0  0  0  0
  127.6950  129.1190   60.2620 C   0  0  0  0  0  0  0  0  0  0  0  0
  129.8500  130.7580   58.2600 N   0  0  0  0  0  0  0  0  0  0  0  0
  133.0140  129.4559   58.4327 H   0  0  0  0  0  0  0  0  0  0  0  0
  131.7161  129.0321   57.2655 H   0  0  0  0  0  0  0  0  0  0  0  0
  132.4193  130.6850   57.2655 H   0  0  0  0  0  0  0  0  0  0  0  0
  130.7984  129.3913   59.4960 H   0  0  0  0  0  0  0  0  0  0  0  0
  132.4854  130.8945   60.4317 H   0  0  0  0  0  0  0  0  0  0  0  0
  131.9299  132.2193   59.3480 H   0  0  0  0  0  0  0  0  0  0  0  0
  131.8790  131.6045   62.6101 H   0  0  0  0  0  0  0  0  0  0  0  0
  130.1469  132.3058   64.2456 H   0  0  0  0  0  0  0  0  0  0  0  0
  128.1129  133.3667   57.8205 H   0  0  0  0  0  0  0  0  0  0  0  0
  129.4022  133.7839   59.0797 H   0  0  0  0  0  0  0  0  0  0  0  0
  126.6530  132.3604   57.0474 H   0  0  0  0  0  0  0  0  0  0  0  0
  124.5786  130.6668   57.1728 H   0  0  0  0  0  0  0  0  0  0  0  0
  125.1770  128.8166   59.0051 H   0  0  0  0  0  0  0  0  0  0  0  0
  127.4126  129.4837   61.2606 H   0  0  0  0  0  0  0  0  0  0  0  0
  127.3674  128.0753   60.1466 H   0  0  0  0  0  0  0  0  0  0  0  0
  128.7875  129.1752   60.1466 H   0  0  0  0  0  0  0  0  0  0  0  0
  129.3340  129.9990   57.8370 H   0  0  0  0  0  0  0  0  0  0  0  0
  1  2  1  0
  2  3  1  0
  3  4  1  0
  4  5  2  0
  5  6  1  0
  6  7  2  0
  7  8  1  0
  7  9  1  0
  9 10  1  0
  9 11  2  0
 11 12  1  0
 12 13  1  6
 13 14  1  0
 14 15  3  0
 12 16  1  0
 16 17  2  0
 17 18  1  0
 18 19  2  0
 19 20  1  0
 20 21  1  0
 12 22  1  0
 22  2  1  0
 11  4  1  0
 20 16  1  0
  1 23  1  0
  1 24  1  0
  1 25  1  0
  2 26  1  1
  3 27  1  0
  3 28  1  0
  5 29  1  0
  6 30  1  0
 13 31  1  0
 13 32  1  0
 17 33  1  0
 18 34  1  0
 19 35  1  0
 21 36  1  0
 21 37  1  0
 21 38  1  0
 22 39  1  0
M  END
>  <Binding energies>  (1) 
[-6.02]

>  <Ligand effiencies>  (1) 
[-0.2617391304347826]

>  <Interactions>  (1) 
["V-B:ASP:366:CG:8184, V-B:LEU:475:CD2:9230, V-A:ASP:366:CG:3213, V-A:TYR:539:CD1:4873, V-A:ILE:538:CA:4860, V-A:TYR:539:CZ:4877, V-A:TYR:531:CE2:4793, V-A:ALA:541:CB:4892, V-A:TYR:539:CA:4869, V-A:GLU:543:CD:4908, V-B:ASP:366:CB:8183, V-A:ALA:541:CA:4890, V-A:TYR:531:CZ:4794, V-A:GLU:543:CG:4907, V-A:TYR:539:C:4867, V-A:ASP:366:CB:3212, V-A:PRO:540:N:4884, V-A:TYR:539:CG:4872, H-A:TYR:539:N:4870, V-A:PRO:540:CB:4885, V-A:PRO:540:CA:4883, V-A:PRO:540:CD:4887, V-A:TYR:539:CE1:4875"]

$$$$
ZINC587784674
     RDKit          3D

 33 35  0  0  0  0  0  0  0  0999 V2000
  129.2600  130.7530   73.2060 C   0  0  0  0  0  0  0  0  0  0  0  0
  130.2140  129.7430   72.8990 O   0  0  0  0  0  0  0  0  0  0  0  0
  129.8420  128.6710   72.1040 C   0  0  0  0  0  0  0  0  0  0  0  0
  130.3120  128.4680   70.7950 C   0  0  0  0  0  0  0  0  0  0  0  0
  129.8980  127.3660   70.0340 C   0  0  0  0  0  0  0  0  0  0  0  0
  130.3710  127.1220   68.6530 C   0  0  0  0  0  0  0  0  0  0  0  0
  130.1620  126.0190   67.9070 C   0  0  0  0  0  0  0  0  0  0  0  0
  130.6480  125.7930   66.5570 C   0  0  0  0  0  0  0  0  0  0  0  0
  130.0570  126.1110   65.4230 N   0  0  0  0  0  0  0  0  0  0  0  0
  130.9240  125.6940   64.4490 C   0  0  0  0  0  0  0  0  0  0  0  0
  130.7850  125.7910   63.1200 N   0  0  0  0  0  0  0  0  0  0  0  0
  131.8130  125.2860   62.3780 C   0  0  0  0  0  0  0  0  0  0  0  0
  131.7150  125.3720   60.6570 Cl  0  0  0  0  0  0  0  0  0  0  0  0
  132.9420  124.7040   62.9720 C   0  0  0  0  0  0  0  0  0  0  0  0
  133.1030  124.5950   64.3220 N   0  0  0  0  0  0  0  0  0  0  0  0
  132.0770  125.0990   65.0140 C   0  0  0  0  0  0  0  0  0  0  0  0
  131.8700  125.1780   66.3710 N   0  0  0  0  0  0  0  0  0  0  0  0
  129.0020  126.4560   70.6040 C   0  0  0  0  0  0  0  0  0  0  0  0
  128.5260  126.6370   71.9010 C   0  0  0  0  0  0  0  0  0  0  0  0
  127.6500  125.7180   72.4220 O   0  0  0  0  0  0  0  0  0  0  0  0
  128.9440  127.7430   72.6510 C   0  0  0  0  0  0  0  0  0  0  0  0
  128.4770  127.9240   73.9300 O   0  0  0  0  0  0  0  0  0  0  0  0
  129.1678  130.8506   74.2978 H   0  0  0  0  0  0  0  0  0  0  0  0
  129.5903  131.7113   72.7788 H   0  0  0  0  0  0  0  0  0  0  0  0
  128.2844  130.4779   72.7788 H   0  0  0  0  0  0  0  0  0  0  0  0
  131.0193  129.1887   70.3588 H   0  0  0  0  0  0  0  0  0  0  0  0
  130.9561  127.9274   68.1851 H   0  0  0  0  0  0  0  0  0  0  0  0
  129.5673  125.2141   68.3636 H   0  0  0  0  0  0  0  0  0  0  0  0
  133.7365  124.3165   62.3173 H   0  0  0  0  0  0  0  0  0  0  0  0
  132.4620  124.8650   67.1270 H   0  0  0  0  0  0  0  0  0  0  0  0
  128.6684  125.5853   70.0204 H   0  0  0  0  0  0  0  0  0  0  0  0
  127.6030  124.9090   71.9070 H   0  0  0  0  0  0  0  0  0  0  0  0
  128.8420  128.7060   74.3530 H   0  0  0  0  0  0  0  0  0  0  0  0
  1  2  1  0
  2  3  1  0
  3  4  2  0
  4  5  1  0
  5  6  1  0
  6  7  2  0
  7  8  1  0
  8  9  2  0
  9 10  1  0
 10 11  2  0
 11 12  1  0
 12 13  1  0
 12 14  2  0
 14 15  1  0
 15 16  2  0
 16 17  1  0
  5 18  2  0
 18 19  1  0
 19 20  1  0
 19 21  2  0
 21 22  1  0
 21  3  1  0
 17  8  1  0
 16 10  1  0
  1 23  1  0
  1 24  1  0
  1 25  1  0
  4 26  1  0
  6 27  1  0
  7 28  1  0
 14 29  1  0
 17 30  1  0
 18 31  1  0
 20 32  1  0
 22 33  1  0
M  END
>  <Binding energies>  (1) 
[-6.15]

>  <Ligand effiencies>  (1) 
[-0.24600000000000002]

>  <Interactions>  (1) 
["V-B:HIS:456:CD2:9039, H-A:GLU:543:OE2:4910, H-B:GLU:543:O:9875, V-A:GLU:543:C:4902, V-B:GLU:543:C:9874, H-B:LYS:547:NZ:9923, V-A:GLY:544:C:4912, V-A:ASP:366:CG:3213, V-A:HIS:456:CD2:4068, V-A:GLU:543:CD:4908, V-A:TYR:484:CZ:4347, H-A:GLY:454:N:4050, V-A:HIS:456:CE1:4070, H-A:LYS:547:NZ:4951, H-A:ARG:545:NH2:4928, V-A:ARG:545:CZ:4926, V-A:GLU:543:CB:4906, H-B:GLY:544:O:9885, H-A:TYR:484:OH:4348"]

$$$$
ZINC587784956
     RDKit          3D

 38 40  0  0  0  0  0  0  0  0999 V2000
  131.3590  126.8620   60.0550 C   0  0  0  0  0  0  0  0  0  0  0  0
  130.9130  125.6590   60.6790 O   0  0  0  0  0  0  0  0  0  0  0  0
  131.1000  125.4830   62.0380 C   0  0  0  0  0  0  0  0  0  0  0  0
  130.1690  126.0650   62.9030 C   0  0  0  0  0  0  0  0  0  0  0  0
  130.3630  125.8760   64.2810 C   0  0  0  0  0  0  0  0  0  0  0  0
  129.6190  126.3210   65.3420 N   0  0  0  0  0  0  0  0  0  0  0  0
  130.2340  125.8590   66.4080 C   0  0  0  0  0  0  0  0  0  0  0  0
  129.8560  126.0300   67.8000 C   0  0  0  0  0  0  0  0  0  0  0  0
  130.2010  127.0620   68.5980 C   0  0  0  0  0  0  0  0  0  0  0  0
  129.8180  127.2630   70.0130 C   0  0  0  0  0  0  0  0  0  0  0  0
  129.0080  126.3050   70.6270 C   0  0  0  0  0  0  0  0  0  0  0  0
  128.6160  126.4440   71.9580 C   0  0  0  0  0  0  0  0  0  0  0  0
  127.8200  125.4780   72.5210 O   0  0  0  0  0  0  0  0  0  0  0  0
  129.0360  127.5570   72.6960 C   0  0  0  0  0  0  0  0  0  0  0  0
  128.6550  127.6960   74.0100 O   0  0  0  0  0  0  0  0  0  0  0  0
  129.8480  128.5340   72.1040 C   0  0  0  0  0  0  0  0  0  0  0  0
  130.2270  129.6080   72.8920 O   0  0  0  0  0  0  0  0  0  0  0  0
  129.2590  130.5850   73.2590 C   0  0  0  0  0  0  0  0  0  0  0  0
  130.2310  128.3740   70.7610 C   0  0  0  0  0  0  0  0  0  0  0  0
  131.3600  125.1310   66.0940 N   0  0  0  0  0  0  0  0  0  0  0  0
  131.4720  125.1210   64.7240 C   0  0  0  0  0  0  0  0  0  0  0  0
  132.3680  124.5690   63.8060 C   0  0  0  0  0  0  0  0  0  0  0  0
  132.1720  124.7540   62.4750 N   0  0  0  0  0  0  0  0  0  0  0  0
  131.6313  127.5965   60.8273 H   0  0  0  0  0  0  0  0  0  0  0  0
  132.2369  126.6463   59.4283 H   0  0  0  0  0  0  0  0  0  0  0  0
  130.5527  127.2707   59.4283 H   0  0  0  0  0  0  0  0  0  0  0  0
  129.3184  126.6477   62.5197 H   0  0  0  0  0  0  0  0  0  0  0  0
  129.2291  125.2437   68.2459 H   0  0  0  0  0  0  0  0  0  0  0  0
  130.8364  127.8387   68.1473 H   0  0  0  0  0  0  0  0  0  0  0  0
  128.6745  125.4283   70.0524 H   0  0  0  0  0  0  0  0  0  0  0  0
  127.6740  124.7260   71.9440 H   0  0  0  0  0  0  0  0  0  0  0  0
  129.0250  128.4830   74.4190 H   0  0  0  0  0  0  0  0  0  0  0  0
  129.1979  130.6467   74.3556 H   0  0  0  0  0  0  0  0  0  0  0  0
  129.5536  131.5638   72.8525 H   0  0  0  0  0  0  0  0  0  0  0  0
  128.2775  130.2995   72.8525 H   0  0  0  0  0  0  0  0  0  0  0  0
  130.8676  129.1360   70.2876 H   0  0  0  0  0  0  0  0  0  0  0  0
  131.9570  124.7000   66.7850 H   0  0  0  0  0  0  0  0  0  0  0  0
  133.2306  123.9856   64.1603 H   0  0  0  0  0  0  0  0  0  0  0  0
  1  2  1  0
  2  3  1  0
  3  4  2  0
  4  5  1  0
  5  6  1  0
  6  7  2  0
  7  8  1  0
  8  9  2  0
  9 10  1  0
 10 11  2  0
 11 12  1  0
 12 13  1  0
 12 14  2  0
 14 15  1  0
 14 16  1  0
 16 17  1  0
 17 18  1  0
 16 19  2  0
  7 20  1  0
 20 21  1  0
 21 22  1  0
 22 23  2  0
 23  3  1  0
 21  5  2  0
 19 10  1  0
  1 24  1  0
  1 25  1  0
  1 26  1  0
  4 27  1  0
  8 28  1  0
  9 29  1  0
 11 30  1  0
 13 31  1  0
 15 32  1  0
 18 33  1  0
 18 34  1  0
 18 35  1  0
 19 36  1  0
 20 37  1  0
 22 38  1  0
M  END
>  <Binding energies>  (1) 
[-5.76]

>  <Ligand effiencies>  (1) 
[-0.22153846153846152]

>  <Interactions>  (1) 
["V-B:GLU:543:C:9874, H-A:GLU:543:OE2:4910, H-B:GLU:543:O:9875, V-A:GLU:543:C:4902, V-B:HIS:456:CD2:9039, V-B:GLU:543:CB:9878, H-B:LYS:547:NZ:9923, V-B:GLU:543:CG:9879, V-A:GLY:544:C:4912, V-A:ASP:366:CG:3213, V-A:HIS:456:CD2:4068, V-A:GLU:543:CD:4908, V-A:TYR:484:CZ:4347, V-A:HIS:456:CE1:4070, H-A:LYS:547:NZ:4951, V-A:GLU:543:CB:4906, H-B:GLY:544:O:9885, H-A:HIS:456:NE2:4071, H-A:TYR:484:OH:4348"]

$$$$
ZINC587785461
     RDKit          3D

 35 37  0  0  0  0  0  0  0  0999 V2000
  130.9770  127.7200   60.8980 C   0  0  0  0  0  0  0  0  0  0  0  0
  131.4000  127.1460   59.6650 O   0  0  0  0  0  0  0  0  0  0  0  0
  132.1210  125.9640   59.6780 C   0  0  0  0  0  0  0  0  0  0  0  0
  132.3120  125.1810   60.8280 C   0  0  0  0  0  0  0  0  0  0  0  0
  133.0280  123.9800   60.7820 C   0  0  0  0  0  0  0  0  0  0  0  0
  133.2210  123.1320   61.9770 C   0  0  0  0  0  0  0  0  0  0  0  0
  132.6960  123.2790   63.2120 C   0  0  0  0  0  0  0  0  0  0  0  0
  131.7320  124.2500   63.7060 C   0  0  0  0  0  0  0  0  0  0  0  0
  130.9930  125.0880   63.0160 N   0  0  0  0  0  0  0  0  0  0  0  0
  130.2770  125.7860   63.9510 C   0  0  0  0  0  0  0  0  0  0  0  0
  129.3460  126.8180   63.7660 C   0  0  0  0  0  0  0  0  0  0  0  0
  128.7430  127.3740   64.8960 C   0  0  0  0  0  0  0  0  0  0  0  0
  127.8440  128.3720   64.7420 F   0  0  0  0  0  0  0  0  0  0  0  0
  129.0530  126.9170   66.1810 C   0  0  0  0  0  0  0  0  0  0  0  0
  128.4440  127.4830   67.2480 F   0  0  0  0  0  0  0  0  0  0  0  0
  129.9760  125.8890   66.3970 C   0  0  0  0  0  0  0  0  0  0  0  0
  130.5770  125.3390   65.2620 C   0  0  0  0  0  0  0  0  0  0  0  0
  131.5100  124.3480   65.0620 N   0  0  0  0  0  0  0  0  0  0  0  0
  133.5860  123.5740   59.5680 C   0  0  0  0  0  0  0  0  0  0  0  0
  133.4230  124.3430   58.4160 C   0  0  0  0  0  0  0  0  0  0  0  0
  133.9850  123.9090   57.2420 O   0  0  0  0  0  0  0  0  0  0  0  0
  132.6890  125.5360   58.4700 C   0  0  0  0  0  0  0  0  0  0  0  0
  132.5200  126.2940   57.3360 O   0  0  0  0  0  0  0  0  0  0  0  0
  131.4007  127.1450   61.7346 H   0  0  0  0  0  0  0  0  0  0  0  0
  131.3248  128.7620   60.9558 H   0  0  0  0  0  0  0  0  0  0  0  0
  129.8788  127.6963   60.9558 H   0  0  0  0  0  0  0  0  0  0  0  0
  131.8895  125.5193   61.7856 H   0  0  0  0  0  0  0  0  0  0  0  0
  133.8821  122.2633   61.8418 H   0  0  0  0  0  0  0  0  0  0  0  0
  133.0514  122.5538   63.9588 H   0  0  0  0  0  0  0  0  0  0  0  0
  129.0973  127.1800   62.7575 H   0  0  0  0  0  0  0  0  0  0  0  0
  130.2166  125.5315   67.4091 H   0  0  0  0  0  0  0  0  0  0  0  0
  131.9850  123.7770   65.7450 H   0  0  0  0  0  0  0  0  0  0  0  0
  134.1605  122.6372   59.5198 H   0  0  0  0  0  0  0  0  0  0  0  0
  134.0460  124.5960   56.5770 H   0  0  0  0  0  0  0  0  0  0  0  0
  132.0880  127.1320   57.5160 H   0  0  0  0  0  0  0  0  0  0  0  0
  1  2  1  0
  2  3  1  0
  3  4  2  0
  4  5  1  0
  5  6  1  0
  6  7  2  0
  7  8  1  0
  8  9  2  0
  9 10  1  0
 10 11  2  0
 11 12  1  0
 12 13  1  0
 12 14  2  0
 14 15  1  0
 14 16  1  0
 16 17  2  0
 17 18  1  0
  5 19  2  0
 19 20  1  0
 20 21  1  0
 20 22  2  0
 22 23  1  0
 22  3  1  0
 18  8  1  0
 17 10  1  0
  1 24  1  0
  1 25  1  0
  1 26  1  0
  4 27  1  0
  6 28  1  0
  7 29  1  0
 11 30  1  0
 16 31  1  0
 18 32  1  0
 19 33  1  0
 21 34  1  0
 23 35  1  0
M  END
>  <Binding energies>  (1) 
[-5.34]

>  <Ligand effiencies>  (1) 
[-0.2053846153846154]

>  <Interactions>  (1) 
["V-A:ILE:369:CG2:3237, V-A:ASP:366:CA:3210, V-A:ILE:369:CB:3236, V-B:GLU:543:CB:9878, H-A:TYR:531:OH:4795, V-B:TYR:539:CE2:9848, V-B:GLU:543:CG:9879, V-A:ASP:366:CG:3213, V-B:TYR:539:CZ:9849, H-A:ASN:370:N:3244, H-B:TYR:539:OH:9850, V-A:TYR:484:CZ:4347, V-A:GLU:543:CD:4908, V-A:ILE:369:CD1:3239, V-A:ASP:366:C:3208, V-B:GLU:543:CD:9880, V-A:ASP:366:CB:3212, V-A:LEU:475:CD2:4259, H-A:ASP:366:O:3209, H-A:TYR:484:OH:4348"]

$$$$
ZINC587786009
     RDKit          3D

 33 35  0  0  0  0  0  0  0  0999 V2000
  129.4410  130.7500   73.2710 C   0  0  0  0  0  0  0  0  0  0  0  0
  130.3470  129.7220   72.8870 O   0  0  0  0  0  0  0  0  0  0  0  0
  129.9060  128.6910   72.0730 C   0  0  0  0  0  0  0  0  0  0  0  0
  130.3830  128.4630   70.7700 C   0  0  0  0  0  0  0  0  0  0  0  0
  129.8960  127.4060   69.9900 C   0  0  0  0  0  0  0  0  0  0  0  0
  130.3750  127.1380   68.6160 C   0  0  0  0  0  0  0  0  0  0  0  0
  130.2050  126.0070   67.9000 C   0  0  0  0  0  0  0  0  0  0  0  0
  130.6920  125.7610   66.5540 C   0  0  0  0  0  0  0  0  0  0  0  0
  130.0780  126.0060   65.4140 N   0  0  0  0  0  0  0  0  0  0  0  0
  130.9620  125.6020   64.4500 C   0  0  0  0  0  0  0  0  0  0  0  0
  130.9040  125.6020   63.0500 C   0  0  0  0  0  0  0  0  0  0  0  0
  131.9500  125.1320   62.3180 N   0  0  0  0  0  0  0  0  0  0  0  0
  133.0380  124.6690   62.9950 C   0  0  0  0  0  0  0  0  0  0  0  0
  134.3480  124.0790   62.0400 Cl  0  0  0  0  0  0  0  0  0  0  0  0
  133.2010  124.6220   64.3490 N   0  0  0  0  0  0  0  0  0  0  0  0
  132.1470  125.0950   65.0230 C   0  0  0  0  0  0  0  0  0  0  0  0
  131.9440  125.2090   66.3770 N   0  0  0  0  0  0  0  0  0  0  0  0
  128.9190  126.5680   70.5320 C   0  0  0  0  0  0  0  0  0  0  0  0
  128.4340  126.7740   71.8220 C   0  0  0  0  0  0  0  0  0  0  0  0
  127.4750  125.9260   72.3150 O   0  0  0  0  0  0  0  0  0  0  0  0
  128.9260  127.8350   72.5920 C   0  0  0  0  0  0  0  0  0  0  0  0
  128.4500  128.0420   73.8650 O   0  0  0  0  0  0  0  0  0  0  0  0
  129.3926  130.8049   74.3686 H   0  0  0  0  0  0  0  0  0  0  0  0
  129.7888  131.7137   72.8706 H   0  0  0  0  0  0  0  0  0  0  0  0
  128.4412  130.5260   72.8706 H   0  0  0  0  0  0  0  0  0  0  0  0
  131.1543  129.1282   70.3546 H   0  0  0  0  0  0  0  0  0  0  0  0
  130.9307  127.9499   68.1242 H   0  0  0  0  0  0  0  0  0  0  0  0
  129.6436  125.1931   68.3821 H   0  0  0  0  0  0  0  0  0  0  0  0
  130.0075  125.9842   62.5399 H   0  0  0  0  0  0  0  0  0  0  0  0
  132.5600  124.9570   67.1360 H   0  0  0  0  0  0  0  0  0  0  0  0
  128.5268  125.7336   69.9321 H   0  0  0  0  0  0  0  0  0  0  0  0
  127.3420  125.1480   71.7680 H   0  0  0  0  0  0  0  0  0  0  0  0
  127.6670  127.5180   74.0550 H   0  0  0  0  0  0  0  0  0  0  0  0
  1  2  1  0
  2  3  1  0
  3  4  2  0
  4  5  1  0
  5  6  1  0
  6  7  2  0
  7  8  1  0
  8  9  2  0
  9 10  1  0
 10 11  2  0
 11 12  1  0
 12 13  2  0
 13 14  1  0
 13 15  1  0
 15 16  2  0
 16 17  1  0
  5 18  2  0
 18 19  1  0
 19 20  1  0
 19 21  2  0
 21 22  1  0
 21  3  1  0
 17  8  1  0
 16 10  1  0
  1 23  1  0
  1 24  1  0
  1 25  1  0
  4 26  1  0
  6 27  1  0
  7 28  1  0
 11 29  1  0
 17 30  1  0
 18 31  1  0
 20 32  1  0
 22 33  1  0
M  END
>  <Binding energies>  (1) 
[-6.43]

>  <Ligand effiencies>  (1) 
[-0.2572]

>  <Interactions>  (1) 
["V-B:GLU:543:C:9874, H-A:GLU:543:OE2:4910, H-B:GLU:543:O:9875, V-A:GLU:543:C:4902, V-B:HIS:456:CD2:9039, H-B:LYS:547:NZ:9923, V-A:GLY:544:C:4912, V-A:GLU:543:CD:4908, V-A:TYR:484:CZ:4347, H-A:GLY:454:N:4050, V-A:HIS:456:CE1:4070, V-A:ILE:369:CD1:3239, H-A:LYS:547:NZ:4951, H-A:ARG:545:NH2:4928, V-A:ARG:545:CZ:4926, V-A:GLU:543:CB:4906, H-B:GLY:544:O:9885, V-A:LYS:547:CE:4950, H-A:TYR:484:OH:4348"]

$$$$
ZINC587786009-again1
     RDKit          3D

 33 35  0  0  0  0  0  0  0  0999 V2000
  128.7300  123.8480   72.6710 C   0  0  0  0  0  0  0  0  0  0  0  0
  129.1530  125.0720   73.2620 O   0  0  0  0  0  0  0  0  0  0  0  0
  129.2410  126.2110   72.4800 C   0  0  0  0  0  0  0  0  0  0  0  0
  128.7850  126.2880   71.1520 C   0  0  0  0  0  0  0  0  0  0  0  0
  128.8990  127.4700   70.4090 C   0  0  0  0  0  0  0  0  0  0  0  0
  128.4320  127.5820   69.0090 C   0  0  0  0  0  0  0  0  0  0  0  0
  128.7330  128.5590   68.1300 C   0  0  0  0  0  0  0  0  0  0  0  0
  128.2770  128.6470   66.7540 C   0  0  0  0  0  0  0  0  0  0  0  0
  128.7360  127.9960   65.7070 N   0  0  0  0  0  0  0  0  0  0  0  0
  127.9740  128.4370   64.6570 C   0  0  0  0  0  0  0  0  0  0  0  0
  128.0690  128.0590   63.3750 N   0  0  0  0  0  0  0  0  0  0  0  0
  127.1860  128.6530   62.5230 C   0  0  0  0  0  0  0  0  0  0  0  0
  127.2770  128.1920   60.8630 Cl  0  0  0  0  0  0  0  0  0  0  0  0
  126.2400  129.5740   62.8540 N   0  0  0  0  0  0  0  0  0  0  0  0
  126.1460  129.9550   64.1550 C   0  0  0  0  0  0  0  0  0  0  0  0
  127.0180  129.3890   65.0870 C   0  0  0  0  0  0  0  0  0  0  0  0
  127.2390  129.5010   66.4380 N   0  0  0  0  0  0  0  0  0  0  0  0
  129.4820  128.5880   71.0120 C   0  0  0  0  0  0  0  0  0  0  0  0
  129.9420  128.5340   72.3260 C   0  0  0  0  0  0  0  0  0  0  0  0
  130.5090  129.6560   72.8790 O   0  0  0  0  0  0  0  0  0  0  0  0
  129.8220  127.3480   73.0610 C   0  0  0  0  0  0  0  0  0  0  0  0
  130.2740  127.2930   74.3580 O   0  0  0  0  0  0  0  0  0  0  0  0
  128.4804  123.1258   73.4623 H   0  0  0  0  0  0  0  0  0  0  0  0
  127.8425  124.0296   72.0470 H   0  0  0  0  0  0  0  0  0  0  0  0
  129.5402  123.4428   72.0470 H   0  0  0  0  0  0  0  0  0  0  0  0
  128.3292  125.4015   70.6869 H   0  0  0  0  0  0  0  0  0  0  0  0
  127.7685  126.7828   68.6470 H   0  0  0  0  0  0  0  0  0  0  0  0
  129.3868  129.3672   68.4897 H   0  0  0  0  0  0  0  0  0  0  0  0
  125.3961  130.6963   64.4683 H   0  0  0  0  0  0  0  0  0  0  0  0
  126.7660  130.0790   67.1160 H   0  0  0  0  0  0  0  0  0  0  0  0
  129.5790  129.5234   70.4413 H   0  0  0  0  0  0  0  0  0  0  0  0
  130.5120  130.4100   72.2850 H   0  0  0  0  0  0  0  0  0  0  0  0
  130.2190  126.4100   74.7330 H   0  0  0  0  0  0  0  0  0  0  0  0
  1  2  1  0
  2  3  1  0
  3  4  2  0
  4  5  1  0
  5  6  1  0
  6  7  2  0
  7  8  1  0
  8  9  2  0
  9 10  1  0
 10 11  2  0
 11 12  1  0
 12 13  1  0
 12 14  2  0
 14 15  1  0
 15 16  2  0
 16 17  1  0
  5 18  2  0
 18 19  1  0
 19 20  1  0
 19 21  2  0
 21 22  1  0
 21  3  1  0
 17  8  1  0
 16 10  1  0
  1 23  1  0
  1 24  1  0
  1 25  1  0
  4 26  1  0
  6 27  1  0
  7 28  1  0
 15 29  1  0
 17 30  1  0
 18 31  1  0
 20 32  1  0
 22 33  1  0
M  END
>  <Binding energies>  (1) 
[-5.91]

>  <Ligand effiencies>  (1) 
[-0.2364]

>  <Interactions>  (1) 
["V-B:GLU:543:C:9874, V-B:HIS:456:CD2:9039, V-A:GLU:543:C:4902, H-B:LYS:547:NZ:9923, V-A:GLY:544:C:4912, V-A:HIS:456:CD2:4068, V-B:LYS:547:CE:9922, V-A:GLU:543:CD:4908, H-B:TYR:484:OH:9319, V-B:HIS:456:CE1:9041, V-A:HIS:456:CE1:4070, V-B:TYR:484:CZ:9318, H-B:HIS:456:NE2:9042, V-B:GLY:544:CA:9886, V-A:GLU:543:CG:4907, V-B:GLU:543:CD:9880, H-A:LYS:547:NZ:4951, V-A:GLU:543:CB:4906, H-A:GLY:544:O:4913, H-A:GLU:543:O:4903"]

$$$$
ZINC587809759-again1
     RDKit          3D

 95100  0  0  0  0  0  0  0  0999 V2000
  133.2470  125.7860   56.9040 C   0  0  0  0  0  0  0  0  0  0  0  0
  132.0710  126.4840   57.5990 C   0  0  0  0  0  0  0  0  0  0  0  0
  131.7920  125.9080   59.0030 C   0  0  0  0  0  0  0  0  0  0  0  0
  132.7890  124.8400   59.4670 C   0  0  0  0  0  0  0  0  0  0  0  0
  133.9440  125.1130   59.8030 O   0  0  0  0  0  0  0  0  0  0  0  0
  132.2310  123.6050   59.4610 O   0  0  0  0  0  0  0  0  0  0  0  0
  131.1340  123.2330   60.3070 C   0  0  2  0  0  0  0  0  0  0  0  0
  130.2230  124.4640   60.6380 C   0  0  1  0  0  0  0  0  0  0  0  0
  129.2800  124.6950   59.4290 C   0  0  0  0  0  0  0  0  0  0  0  0
  129.5270  124.3660   62.0560 C   0  0  1  0  0  0  0  0  0  0  0  0
  128.6790  123.2220   62.0560 O   0  0  0  0  0  0  0  0  0  0  0  0
  130.6780  124.1600   63.0950 C   0  0  1  0  0  0  0  0  0  0  0  0
  130.2420  124.3010   64.5500 C   0  0  0  0  0  0  0  0  0  0  0  0
  129.8880  125.4630   65.1510 C   0  0  0  0  0  0  0  0  0  0  0  0
  129.5520  125.4070   66.5850 C   0  0  0  0  0  0  0  0  0  0  0  0
  129.7510  124.4380   67.3200 O   0  0  0  0  0  0  0  0  0  0  0  0
  129.6860  126.8440   64.4970 C   0  0  0  0  0  0  0  0  0  0  0  0
  129.2190  126.9000   62.9860 C   0  0  1  0  0  0  0  0  0  0  0  0
  130.4420  127.1490   62.3100 O   0  0  0  0  0  0  0  0  0  0  0  0
  128.5760  125.5740   62.4770 C   0  0  1  0  0  0  0  0  0  0  0  0
  127.5290  126.0400   61.4840 C   0  0  0  0  0  0  0  0  0  0  0  0
  127.3330  127.3730   61.4930 C   0  0  0  0  0  0  0  0  0  0  0  0
  126.3360  128.1620   60.6560 C   0  0  0  0  0  0  0  0  0  0  0  0
  128.1530  128.0180   62.6190 C   0  0  1  0  0  0  0  0  0  0  0  0
  127.0610  128.0940   63.7360 N   0  0  0  0  0  0  0  0  0  0  0  0
  126.7900  129.4120   64.4820 C   0  0  2  0  0  0  0  0  0  0  0  0
  125.6990  130.1850   63.7130 C   0  0  0  0  0  0  0  0  0  0  0  0
  128.1160  130.1610   64.6630 C   0  0  0  0  0  0  0  0  0  0  0  0
  128.7550  130.4390   63.3150 C   0  0  0  0  0  0  0  0  0  0  0  0
  129.2970  131.7040   63.0680 C   0  0  0  0  0  0  0  0  0  0  0  0
  129.8820  132.0080   61.8510 C   0  0  0  0  0  0  0  0  0  0  0  0
  129.9370  131.0410   60.8610 C   0  0  0  0  0  0  0  0  0  0  0  0
  130.5240  131.3460   59.6800 F   0  0  0  0  0  0  0  0  0  0  0  0
  129.4020  129.7690   61.0810 C   0  0  0  0  0  0  0  0  0  0  0  0
  129.6070  128.5300   59.6340 Br  0  0  0  0  0  0  0  0  0  0  0  0
  128.7750  129.4330   62.3150 C   0  0  0  0  0  0  0  0  0  0  0  0
  131.4430  122.8230   62.9030 C   0  0  2  0  0  0  0  0  0  0  0  0
  132.8600  122.7880   62.3670 C   0  0  0  0  0  0  0  0  0  0  0  0
  133.6460  124.0820   62.0490 C   0  0  0  0  0  0  0  0  0  0  0  0
  133.7870  121.7230   62.9910 C   0  0  0  0  0  0  0  0  0  0  0  0
  131.7150  122.3420   61.4590 C   0  0  2  0  0  0  0  0  0  0  0  0
  131.5050  120.9430   61.2520 O   0  0  0  0  0  0  0  0  0  0  0  0
  130.2660  120.3990   61.1970 C   0  0  0  0  0  0  0  0  0  0  0  0
  129.2330  120.9870   60.8690 O   0  0  0  0  0  0  0  0  0  0  0  0
  130.2850  118.9140   61.5750 C   0  0  0  0  0  0  0  0  0  0  0  0
  130.4830  117.9490   60.3870 C   0  0  0  0  0  0  0  0  0  0  0  0
  131.6660  118.3520   59.4970 C   0  0  0  0  0  0  0  0  0  0  0  0
  133.9321  125.3793   57.6624 H   0  0  0  0  0  0  0  0  0  0  0  0
  132.8677  124.9667   56.2756 H   0  0  0  0  0  0  0  0  0  0  0  0
  133.7845  126.5114   56.2756 H   0  0  0  0  0  0  0  0  0  0  0  0
  132.3031  127.5548   57.6962 H   0  0  0  0  0  0  0  0  0  0  0  0
  131.1732  126.3204   56.9848 H   0  0  0  0  0  0  0  0  0  0  0  0
  131.8178  126.7375   59.7250 H   0  0  0  0  0  0  0  0  0  0  0  0
  130.8110  125.4136   58.9466 H   0  0  0  0  0  0  0  0  0  0  0  0
  130.3846  122.5879   59.8251 H   0  0  0  0  0  0  0  0  0  0  0  0
  130.8300  125.3730   60.7616 H   0  0  0  0  0  0  0  0  0  0  0  0
  128.2716  124.9420   59.7925 H   0  0  0  0  0  0  0  0  0  0  0  0
  129.6634  125.5258   58.8184 H   0  0  0  0  0  0  0  0  0  0  0  0
  129.2360  123.7811   58.8184 H   0  0  0  0  0  0  0  0  0  0  0  0
  129.1790  122.4710   61.7290 H   0  0  0  0  0  0  0  0  0  0  0  0
  131.3668  124.9899   62.8789 H   0  0  0  0  0  0  0  0  0  0  0  0
  130.2126  123.3863   65.1603 H   0  0  0  0  0  0  0  0  0  0  0  0
  129.0883  126.2980   67.0334 H   0  0  0  0  0  0  0  0  0  0  0  0
  128.9296  127.3777   65.0912 H   0  0  0  0  0  0  0  0  0  0  0  0
  130.6925  127.2876   64.4856 H   0  0  0  0  0  0  0  0  0  0  0  0
  130.8470  127.9340   62.6870 H   0  0  0  0  0  0  0  0  0  0  0  0
  128.1283  125.0118   63.3098 H   0  0  0  0  0  0  0  0  0  0  0  0
  126.9817  125.3551   60.8197 H   0  0  0  0  0  0  0  0  0  0  0  0
  125.6487  128.7059   61.3206 H   0  0  0  0  0  0  0  0  0  0  0  0
  126.8768  128.8794   60.0213 H   0  0  0  0  0  0  0  0  0  0  0  0
  125.7621  127.4708   60.0213 H   0  0  0  0  0  0  0  0  0  0  0  0
  126.1870  127.7620   63.3520 H   0  0  0  0  0  0  0  0  0  0  0  0
  127.3190  127.4120   64.4340 H   0  0  0  0  0  0  0  0  0  0  0  0
  126.3985  129.2560   65.4981 H   0  0  0  0  0  0  0  0  0  0  0  0
  125.0178  130.6677   64.4292 H   0  0  0  0  0  0  0  0  0  0  0  0
  126.1698  130.9521   63.0807 H   0  0  0  0  0  0  0  0  0  0  0  0
  125.1314  129.4865   63.0807 H   0  0  0  0  0  0  0  0  0  0  0  0
  127.9263  131.1145   65.1777 H   0  0  0  0  0  0  0  0  0  0  0  0
  128.7988  129.5384   65.2599 H   0  0  0  0  0  0  0  0  0  0  0  0
  129.2578  132.4714   63.8551 H   0  0  0  0  0  0  0  0  0  0  0  0
  130.2999  133.0096   61.6715 H   0  0  0  0  0  0  0  0  0  0  0  0
  130.9639  122.4145   63.8050 H   0  0  0  0  0  0  0  0  0  0  0  0
  133.9430  124.5709   62.9886 H   0  0  0  0  0  0  0  0  0  0  0  0
  134.5446  123.8313   61.4662 H   0  0  0  0  0  0  0  0  0  0  0  0
  133.0093  124.7639   61.4662 H   0  0  0  0  0  0  0  0  0  0  0  0
  133.7319  121.7862   64.0878 H   0  0  0  0  0  0  0  0  0  0  0  0
  133.4674  120.7222   62.6649 H   0  0  0  0  0  0  0  0  0  0  0  0
  134.8223  121.9016   62.6649 H   0  0  0  0  0  0  0  0  0  0  0  0
  131.1066  118.7524   62.2884 H   0  0  0  0  0  0  0  0  0  0  0  0
  129.2947  118.6881   61.9973 H   0  0  0  0  0  0  0  0  0  0  0  0
  130.6649  116.9378   60.7798 H   0  0  0  0  0  0  0  0  0  0  0  0
  129.5724  117.9843   59.7708 H   0  0  0  0  0  0  0  0  0  0  0  0
  132.5182  118.6423   60.1291 H   0  0  0  0  0  0  0  0  0  0  0  0
  131.9536  117.5011   58.8619 H   0  0  0  0  0  0  0  0  0  0  0  0
  131.3744  119.2015   58.8619 H   0  0  0  0  0  0  0  0  0  0  0  0
  1  2  1  0
  2  3  1  0
  3  4  1  0
  4  5  2  0
  4  6  1  0
  6  7  1  0
  7  8  1  0
  8  9  1  0
  8 10  1  0
 10 11  1  6
 10 12  1  0
 12 13  1  0
 13 14  2  0
 14 15  1  0
 15 16  2  0
 14 17  1  0
 17 18  1  0
 18 19  1  6
 18 20  1  0
 20 21  1  0
 21 22  2  0
 22 23  1  0
 22 24  1  0
 24 25  1  1
 25 26  1  0
 26 27  1  0
 26 28  1  0
 28 29  1  0
 29 30  2  0
 30 31  1  0
 31 32  2  0
 32 33  1  0
 32 34  1  0
 34 35  1  0
 34 36  2  0
 12 37  1  0
 37 38  1  0
 38 39  1  0
 38 40  1  0
 38 41  1  0
 41 42  1  1
 42 43  1  0
 43 44  2  0
 43 45  1  0
 45 46  1  0
 46 47  1  0
 41  7  1  0
 20 10  1  0
 36 24  1  0
 41 37  1  0
 24 18  1  0
 36 29  1  0
  1 48  1  0
  1 49  1  0
  1 50  1  0
  2 51  1  0
  2 52  1  0
  3 53  1  0
  3 54  1  0
  7 55  1  6
  8 56  1  1
  9 57  1  0
  9 58  1  0
  9 59  1  0
 11 60  1  0
 12 61  1  6
 13 62  1  0
 15 63  1  0
 17 64  1  0
 17 65  1  0
 19 66  1  0
 20 67  1  1
 21 68  1  0
 23 69  1  0
 23 70  1  0
 23 71  1  0
 25 72  1  0
 25 73  1  0
 26 74  1  1
 27 75  1  0
 27 76  1  0
 27 77  1  0
 28 78  1  0
 28 79  1  0
 30 80  1  0
 31 81  1  0
 37 82  1  1
 39 83  1  0
 39 84  1  0
 39 85  1  0
 40 86  1  0
 40 87  1  0
 40 88  1  0
 45 89  1  0
 45 90  1  0
 46 91  1  0
 46 92  1  0
 47 93  1  0
 47 94  1  0
 47 95  1  0
M  CHG  1  25   1
M  END
>  <Binding energies>  (1) 
[-8.15]

>  <Ligand effiencies>  (1) 
[-0.15377358490566037]

>  <Interactions>  (1) 
["V-A:ASP:366:CA:3210, V-A:GLY:454:CA:4049, H-A:GLU:543:OE2:4910, V-B:GLU:543:CB:9878, V-B:ALA:541:CB:9864, V-B:ASP:366:CG:8184, V-B:TYR:539:CE2:9848, V-A:ASN:370:CB:3245, V-A:LEU:475:CG:4257, V-B:GLU:543:CG:9879, V-B:TYR:539:C:9839, V-A:ASP:366:CG:3213, H-B:GLU:543:OE1:9881, V-A:TYR:531:CE2:4793, H-B:TYR:539:OH:9850, V-A:ALA:541:CB:4892, H-B:ALA:541:N:9863, V-A:LEU:475:CD1:4258, V-B:TYR:539:CB:9843, V-A:GLU:543:CD:4908, V-B:GLU:543:CA:9876, V-A:ASP:366:C:3208, V-B:TYR:539:CD2:9846, V-A:TYR:531:CZ:4794, V-A:GLU:543:CG:4907, V-B:GLU:543:CD:9880, V-A:ASP:366:CB:3212, V-A:LEU:475:CD2:4259, H-A:ARG:545:NH2:4928, H-A:GLU:543:OE1:4909, V-B:TYR:539:CG:9844, V-A:HIS:383:CD2:3392, H-B:GLU:543:OE2:9882, V-A:PRO:540:CA:4883, V-A:HIS:383:NE2:3394, H-A:TYR:484:OH:4348"]

$$$$
ZINC587810444
     RDKit          3D

 43 46  0  0  0  0  0  0  0  0999 V2000
  126.2590  129.2190   66.2400 C   0  0  0  0  0  0  0  0  0  0  0  0
  125.8720  129.6220   64.9300 O   0  0  0  0  0  0  0  0  0  0  0  0
  126.8210  130.1640   64.0850 C   0  0  0  0  0  0  0  0  0  0  0  0
  127.6430  129.2620   63.4060 C   0  0  0  0  0  0  0  0  0  0  0  0
  128.6390  129.7120   62.5390 C   0  0  0  0  0  0  0  0  0  0  0  0
  129.4520  128.8020   61.9160 O   0  0  0  0  0  0  0  0  0  0  0  0
  128.8130  131.0850   62.3210 C   0  0  0  0  0  0  0  0  0  0  0  0
  127.9770  131.9930   62.9800 C   0  0  0  0  0  0  0  0  0  0  0  0
  127.0070  131.5400   63.8750 C   0  0  0  0  0  0  0  0  0  0  0  0
  128.3540  133.4160   62.6390 C   0  0  0  0  0  0  0  0  0  0  0  0
  129.2990  133.2710   61.4450 C   0  0  0  0  0  0  0  0  0  0  0  0
  129.8450  131.8220   61.4660 C   0  0  1  0  0  0  0  0  0  0  0  0
  131.0980  131.7670   62.2360 N   0  0  0  0  0  0  0  0  0  0  0  0
  132.2790  132.1880   61.4940 C   0  0  1  0  0  0  0  0  0  0  0  0
  133.5160  132.3320   62.3930 C   0  0  0  0  0  0  0  0  0  0  0  0
  132.5050  131.1540   60.3770 C   0  0  0  0  0  0  0  0  0  0  0  0
  131.2670  130.9650   59.5070 C   0  0  0  0  0  0  0  0  0  0  0  0
  131.4200  130.4980   58.2000 C   0  0  0  0  0  0  0  0  0  0  0  0
  130.3230  130.2790   57.3820 C   0  0  0  0  0  0  0  0  0  0  0  0
  129.0480  130.5350   57.8630 C   0  0  0  0  0  0  0  0  0  0  0  0
  127.9840  130.3190   57.0540 F   0  0  0  0  0  0  0  0  0  0  0  0
  128.8660  131.0150   59.1620 C   0  0  0  0  0  0  0  0  0  0  0  0
  127.0590  131.3590   59.6910 Br  0  0  0  0  0  0  0  0  0  0  0  0
  129.9740  131.2430   60.0190 C   0  0  0  0  0  0  0  0  0  0  0  0
  125.6979  129.8033   66.9841 H   0  0  0  0  0  0  0  0  0  0  0  0
  126.0412  128.1491   66.3738 H   0  0  0  0  0  0  0  0  0  0  0  0
  127.3368  129.3933   66.3738 H   0  0  0  0  0  0  0  0  0  0  0  0
  127.5031  128.1814   63.5569 H   0  0  0  0  0  0  0  0  0  0  0  0
  130.2600  128.6290   62.4040 H   0  0  0  0  0  0  0  0  0  0  0  0
  126.3842  132.2651   64.4194 H   0  0  0  0  0  0  0  0  0  0  0  0
  127.4641  134.0015   62.3647 H   0  0  0  0  0  0  0  0  0  0  0  0
  128.8172  133.9460   63.4843 H   0  0  0  0  0  0  0  0  0  0  0  0
  128.7530  133.4544   60.5079 H   0  0  0  0  0  0  0  0  0  0  0  0
  130.1213  133.9989   61.5074 H   0  0  0  0  0  0  0  0  0  0  0  0
  131.2380  130.8110   62.5320 H   0  0  0  0  0  0  0  0  0  0  0  0
  132.1155  133.1890   61.0684 H   0  0  0  0  0  0  0  0  0  0  0  0
  133.2084  132.2962   63.4485 H   0  0  0  0  0  0  0  0  0  0  0  0
  134.2166  131.5094   62.1872 H   0  0  0  0  0  0  0  0  0  0  0  0
  134.0089  133.2936   62.1872 H   0  0  0  0  0  0  0  0  0  0  0  0
  133.3357  131.4950   59.7416 H   0  0  0  0  0  0  0  0  0  0  0  0
  132.7341  130.1887   60.8521 H   0  0  0  0  0  0  0  0  0  0  0  0
  132.4303  130.3002   57.8124 H   0  0  0  0  0  0  0  0  0  0  0  0
  130.4629  129.9043   56.3573 H   0  0  0  0  0  0  0  0  0  0  0  0
  1  2  1  0
  2  3  1  0
  3  4  2  0
  4  5  1  0
  5  6  1  0
  5  7  2  0
  7  8  1  0
  8  9  2  0
  8 10  1  0
 10 11  1  0
 11 12  1  0
 12 13  1  1
 13 14  1  0
 14 15  1  0
 14 16  1  0
 16 17  1  0
 17 18  2  0
 18 19  1  0
 19 20  2  0
 20 21  1  0
 20 22  1  0
 22 23  1  0
 22 24  2  0
  9  3  1  0
 24 12  1  0
 12  7  1  0
 24 17  1  0
  1 25  1  0
  1 26  1  0
  1 27  1  0
  4 28  1  0
  6 29  1  0
  9 30  1  0
 10 31  1  0
 10 32  1  0
 11 33  1  0
 11 34  1  0
 13 35  1  0
 14 36  1  6
 15 37  1  0
 15 38  1  0
 15 39  1  0
 16 40  1  0
 16 41  1  0
 18 42  1  0
 19 43  1  0
M  END
>  <Binding energies>  (1) 
[-6.21]

>  <Ligand effiencies>  (1) 
[-0.23884615384615385]

>  <Interactions>  (1) 
["V-B:TYR:484:CZ:9318, V-A:ALA:541:C:4888, V-A:PRO:540:CB:4885, V-A:PRO:540:CA:4883, H-A:ALA:541:N:4891, V-A:ALA:541:CB:4892, V-A:PRO:540:C:4881, V-A:MET:535:CE:4835, V-B:GLU:543:CD:9880, V-A:GLU:543:CD:4908, V-A:TYR:539:C:4867, H-B:TYR:484:OH:9319, V-A:ASN:362:CG:3177, V-B:LEU:475:CD2:9230, H-A:GLU:543:OE1:4909, V-B:HIS:456:CE1:9041, V-A:ASP:366:CG:3213, V-A:ASN:362:CB:3176"]

$$$$
ZINC587810444-again1
     RDKit          3D

 44 47  0  0  0  0  0  0  0  0999 V2000
  133.8200  124.0590   58.6590 C   0  0  0  0  0  0  0  0  0  0  0  0
  132.4440  124.3460   58.4360 O   0  0  0  0  0  0  0  0  0  0  0  0
  131.9090  125.5170   58.9350 C   0  0  0  0  0  0  0  0  0  0  0  0
  132.1470  126.6810   58.2010 C   0  0  0  0  0  0  0  0  0  0  0  0
  131.6620  127.9150   58.6340 C   0  0  0  0  0  0  0  0  0  0  0  0
  131.9440  129.0440   57.9100 O   0  0  0  0  0  0  0  0  0  0  0  0
  130.9110  127.9990   59.8130 C   0  0  0  0  0  0  0  0  0  0  0  0
  130.6390  126.8330   60.5360 C   0  0  0  0  0  0  0  0  0  0  0  0
  131.1570  125.6070   60.1190 C   0  0  0  0  0  0  0  0  0  0  0  0
  129.8360  127.1440   61.7810 C   0  0  0  0  0  0  0  0  0  0  0  0
  129.3710  128.5880   61.5750 C   0  0  0  0  0  0  0  0  0  0  0  0
  130.3020  129.2130   60.5090 C   0  0  1  0  0  0  0  0  0  0  0  0
  131.4510  129.9100   61.2810 N   0  0  0  0  0  0  0  0  0  0  0  0
  131.1770  131.3610   61.6900 C   0  0  1  0  0  0  0  0  0  0  0  0
  132.3820  131.8280   62.5250 C   0  0  0  0  0  0  0  0  0  0  0  0
  130.9830  132.1510   60.3920 C   0  0  0  0  0  0  0  0  0  0  0  0
  129.8480  131.5860   59.5480 C   0  0  0  0  0  0  0  0  0  0  0  0
  129.1180  132.4640   58.7430 C   0  0  0  0  0  0  0  0  0  0  0  0
  128.1020  132.0100   57.9170 C   0  0  0  0  0  0  0  0  0  0  0  0
  127.8020  130.6590   57.8840 C   0  0  0  0  0  0  0  0  0  0  0  0
  126.8140  130.2240   57.0680 F   0  0  0  0  0  0  0  0  0  0  0  0
  128.5070  129.7580   58.6870 C   0  0  0  0  0  0  0  0  0  0  0  0
  127.9840  127.9220   58.5470 Br  0  0  0  0  0  0  0  0  0  0  0  0
  129.5440  130.1970   59.5540 C   0  0  0  0  0  0  0  0  0  0  0  0
  134.0154  124.0182   59.7407 H   0  0  0  0  0  0  0  0  0  0  0  0
  134.0707  123.0892   58.2043 H   0  0  0  0  0  0  0  0  0  0  0  0
  134.4374  124.8477   58.2043 H   0  0  0  0  0  0  0  0  0  0  0  0
  132.7257  126.6238   57.2673 H   0  0  0  0  0  0  0  0  0  0  0  0
  132.4860  128.8680   57.1380 H   0  0  0  0  0  0  0  0  0  0  0  0
  130.9757  124.7043   60.7209 H   0  0  0  0  0  0  0  0  0  0  0  0
  128.9748  126.4654   61.8697 H   0  0  0  0  0  0  0  0  0  0  0  0
  130.4215  127.0168   62.7035 H   0  0  0  0  0  0  0  0  0  0  0  0
  128.3291  128.6031   61.2227 H   0  0  0  0  0  0  0  0  0  0  0  0
  129.4160  129.1540   62.5171 H   0  0  0  0  0  0  0  0  0  0  0  0
  131.6460  129.3700   62.1120 H   0  0  0  0  0  0  0  0  0  0  0  0
  132.2860  129.8890   60.7140 H   0  0  0  0  0  0  0  0  0  0  0  0
  130.2763  131.4987   62.3063 H   0  0  0  0  0  0  0  0  0  0  0  0
  132.1444  131.7359   63.5951 H   0  0  0  0  0  0  0  0  0  0  0  0
  133.2561  131.2035   62.2884 H   0  0  0  0  0  0  0  0  0  0  0  0
  132.6070  132.8784   62.2884 H   0  0  0  0  0  0  0  0  0  0  0  0
  130.7529  133.1969   60.6432 H   0  0  0  0  0  0  0  0  0  0  0  0
  131.9117  132.0790   59.8069 H   0  0  0  0  0  0  0  0  0  0  0  0
  129.3546  133.5380   58.7653 H   0  0  0  0  0  0  0  0  0  0  0  0
  127.5380  132.7181   57.2921 H   0  0  0  0  0  0  0  0  0  0  0  0
  1  2  1  0
  2  3  1  0
  3  4  2  0
  4  5  1  0
  5  6  1  0
  5  7  2  0
  7  8  1  0
  8  9  2  0
  8 10  1  0
 10 11  1  0
 12 11  1  1
 12 13  1  0
 13 14  1  0
 14 15  1  0
 14 16  1  0
 16 17  1  0
 17 18  2  0
 18 19  1  0
 19 20  2  0
 20 21  1  0
 20 22  1  0
 22 23  1  0
 22 24  2  0
  9  3  1  0
 24 12  1  0
 12  7  1  0
 24 17  1  0
  1 25  1  0
  1 26  1  0
  1 27  1  0
  4 28  1  0
  6 29  1  0
  9 30  1  0
 10 31  1  0
 10 32  1  0
 11 33  1  0
 11 34  1  0
 13 35  1  0
 13 36  1  0
 14 37  1  1
 15 38  1  0
 15 39  1  0
 15 40  1  0
 16 41  1  0
 16 42  1  0
 18 43  1  0
 19 44  1  0
M  CHG  1  13   1
M  END
>  <Binding energies>  (1) 
[-6.95]

>  <Ligand effiencies>  (1) 
[-0.2574074074074074]

>  <Interactions>  (1) 
["V-A:ILE:369:CG2:3237, V-A:ASP:366:CA:3210, V-A:ALA:541:C:4888, V-A:ILE:369:CB:3236, V-A:PRO:540:C:4881, H-A:TYR:531:OH:4795, V-B:TYR:539:CE2:9848, V-A:ASP:366:CG:3213, V-A:ASN:362:CB:3176, V-A:TYR:539:CD1:4873, H-B:TYR:539:OH:9850, V-A:GLU:543:CD:4908, V-A:ASP:366:C:3208, V-A:GLU:543:CG:4907, V-A:MET:535:CE:4835, V-A:ASP:366:CB:3212, H-A:GLU:543:OE1:4909, V-A:PRO:540:N:4884, V-A:PRO:540:CB:4885, V-A:PRO:540:CA:4883, H-A:ASP:366:OD2:3215, V-A:TYR:539:CE1:4875"]

$$$$
ZINC587811609
     RDKit          3D

120125  0  0  0  0  0  0  0  0999 V2000
  130.1850  126.8790   73.4570 C   0  0  0  0  0  0  0  0  0  0  0  0
  128.9820  127.0560   72.5220 C   0  0  0  0  0  0  0  0  0  0  0  0
  129.2140  128.1260   71.4390 C   0  0  0  0  0  0  0  0  0  0  0  0
  130.3940  127.7920   70.5080 C   0  0  0  0  0  0  0  0  0  0  0  0
  129.9430  127.3530   69.1030 C   0  0  0  0  0  0  0  0  0  0  0  0
  128.4160  127.1820   68.9910 C   0  0  0  0  0  0  0  0  0  0  0  0
  127.7870  127.8690   67.7630 C   0  0  0  0  0  0  0  0  0  0  0  0
  128.7220  128.8580   67.0410 C   0  0  0  0  0  0  0  0  0  0  0  0
  127.9600  129.9550   66.2750 C   0  0  0  0  0  0  0  0  0  0  0  0
  127.9850  129.7480   64.7510 C   0  0  0  0  0  0  0  0  0  0  0  0
  127.5050  130.9840   63.9660 C   0  0  0  0  0  0  0  0  0  0  0  0
  127.5340  130.8060   62.4370 C   0  0  0  0  0  0  0  0  0  0  0  0
  127.6530  132.1350   61.6590 C   0  0  0  0  0  0  0  0  0  0  0  0
  128.7630  132.1320   60.6050 C   0  0  0  0  0  0  0  0  0  0  0  0
  129.0780  133.1640   60.0110 O   0  0  0  0  0  0  0  0  0  0  0  0
  129.3220  130.9100   60.4480 O   0  0  0  0  0  0  0  0  0  0  0  0
  129.0870  130.0650   59.3160 C   0  0  2  0  0  0  0  0  0  0  0  0
  128.8710  128.5640   59.7330 C   0  0  1  0  0  0  0  0  0  0  0  0
  127.3380  128.3450   59.8750 C   0  0  0  0  0  0  0  0  0  0  0  0
  129.6380  127.5120   58.8340 C   0  0  1  0  0  0  0  0  0  0  0  0
  129.0080  127.4700   57.5560 O   0  0  0  0  0  0  0  0  0  0  0  0
  131.1050  128.0360   58.6820 C   0  0  1  0  0  0  0  0  0  0  0  0
  132.1170  127.0500   58.1030 C   0  0  0  0  0  0  0  0  0  0  0  0
  132.5160  125.8570   58.6010 C   0  0  0  0  0  0  0  0  0  0  0  0
  133.6240  125.1310   57.8350 C   0  0  0  0  0  0  0  0  0  0  0  0
  133.5740  123.7510   58.1310 O   0  0  0  0  0  0  0  0  0  0  0  0
  131.9250  125.0960   59.8000 C   0  0  0  0  0  0  0  0  0  0  0  0
  130.5710  125.5400   60.4690 C   0  0  1  0  0  0  0  0  0  0  0  0
  131.0310  126.5870   61.3110 O   0  0  0  0  0  0  0  0  0  0  0  0
  129.5940  126.0040   59.3470 C   0  0  1  0  0  0  0  0  0  0  0  0
  128.2630  125.4230   59.7700 C   0  0  0  0  0  0  0  0  0  0  0  0
  128.3280  124.6340   60.8580 C   0  0  0  0  0  0  0  0  0  0  0  0
  127.1790  123.8870   61.5200 C   0  0  0  0  0  0  0  0  0  0  0  0
  129.7800  124.4190   61.2980 C   0  0  1  0  0  0  0  0  0  0  0  0
  130.0560  123.0550   60.8000 N   0  0  0  0  0  0  0  0  0  0  0  0
  131.2150  122.3640   61.3580 C   0  0  2  0  0  0  0  0  0  0  0  0
  131.4910  121.0330   60.6420 C   0  0  0  0  0  0  0  0  0  0  0  0
  130.9750  122.1600   62.8530 C   0  0  0  0  0  0  0  0  0  0  0  0
  130.6110  123.4550   63.5590 C   0  0  0  0  0  0  0  0  0  0  0  0
  130.8900  123.5600   64.9250 C   0  0  0  0  0  0  0  0  0  0  0  0
  130.4770  124.6570   65.6600 C   0  0  0  0  0  0  0  0  0  0  0  0
  129.7510  125.6580   65.0360 C   0  0  0  0  0  0  0  0  0  0  0  0
  129.3130  126.7040   65.7740 F   0  0  0  0  0  0  0  0  0  0  0  0
  129.4730  125.5860   63.6690 C   0  0  0  0  0  0  0  0  0  0  0  0
  128.4120  127.0170   62.9780 Br  0  0  0  0  0  0  0  0  0  0  0  0
  129.9450  124.5050   62.8690 C   0  0  0  0  0  0  0  0  0  0  0  0
  131.1690  129.3550   57.8680 C   0  0  2  0  0  0  0  0  0  0  0  0
  131.6350  130.6550   58.4900 C   0  0  0  0  0  0  0  0  0  0  0  0
  132.1880  130.7240   59.9360 C   0  0  0  0  0  0  0  0  0  0  0  0
  132.4360  131.5890   57.5600 C   0  0  0  0  0  0  0  0  0  0  0  0
  130.1400  130.4500   58.2190 C   0  0  2  0  0  0  0  0  0  0  0  0
  129.5640  131.1210   57.0950 O   0  0  0  0  0  0  0  0  0  0  0  0
  128.9820  132.3370   57.2150 C   0  0  0  0  0  0  0  0  0  0  0  0
  127.4670  132.2400   57.3460 C   0  0  0  0  0  0  0  0  0  0  0  0
  129.5560  133.4260   57.2100 O   0  0  0  0  0  0  0  0  0  0  0  0
  129.8471  126.9287   74.5026 H   0  0  0  0  0  0  0  0  0  0  0  0
  130.6546  125.9021   73.2694 H   0  0  0  0  0  0  0  0  0  0  0  0
  130.9160  127.6793   73.2694 H   0  0  0  0  0  0  0  0  0  0  0  0
  128.7782  126.0949   72.0272 H   0  0  0  0  0  0  0  0  0  0  0  0
  128.1332  127.3892   73.1373 H   0  0  0  0  0  0  0  0  0  0  0  0
  128.3014  128.2134   70.8311 H   0  0  0  0  0  0  0  0  0  0  0  0
  129.4561  129.0680   71.9529 H   0  0  0  0  0  0  0  0  0  0  0  0
  131.0276  128.6858   70.4099 H   0  0  0  0  0  0  0  0  0  0  0  0
  130.9408  126.9499   70.9573 H   0  0  0  0  0  0  0  0  0  0  0  0
  130.2654  128.1139   68.3769 H   0  0  0  0  0  0  0  0  0  0  0  0
  130.4011  126.3739   68.8996 H   0  0  0  0  0  0  0  0  0  0  0  0
  128.1934  126.1062   68.9350 H   0  0  0  0  0  0  0  0  0  0  0  0
  127.9801  127.6644   69.8783 H   0  0  0  0  0  0  0  0  0  0  0  0
  127.4909  127.0891   67.0461 H   0  0  0  0  0  0  0  0  0  0  0  0
  126.9335  128.4559   68.1334 H   0  0  0  0  0  0  0  0  0  0  0  0
  129.3697  129.3382   67.7892 H   0  0  0  0  0  0  0  0  0  0  0  0
  129.3026  128.2841   66.3037 H   0  0  0  0  0  0  0  0  0  0  0  0
  126.9129  129.9557   66.6120 H   0  0  0  0  0  0  0  0  0  0  0  0
  128.4586  130.9124   66.4864 H   0  0  0  0  0  0  0  0  0  0  0  0
  129.0164  129.5180   64.4457 H   0  0  0  0  0  0  0  0  0  0  0  0
  127.2941  128.9238   64.5202 H   0  0  0  0  0  0  0  0  0  0  0  0
  126.4710  131.2057   64.2687 H   0  0  0  0  0  0  0  0  0  0  0  0
  128.2011  131.8018   64.2040 H   0  0  0  0  0  0  0  0  0  0  0  0
  128.3956  130.1733   62.1774 H   0  0  0  0  0  0  0  0  0  0  0  0
  126.5757  130.3494   62.1484 H   0  0  0  0  0  0  0  0  0  0  0  0
  126.6951  132.3293   61.1544 H   0  0  0  0  0  0  0  0  0  0  0  0
  127.9065  132.9155   62.3915 H   0  0  0  0  0  0  0  0  0  0  0  0
  128.1183  130.2299   58.8216 H   0  0  0  0  0  0  0  0  0  0  0  0
  129.3475  128.3693   60.7051 H   0  0  0  0  0  0  0  0  0  0  0  0
  127.0703  128.3068   60.9412 H   0  0  0  0  0  0  0  0  0  0  0  0
  126.8026  129.1758   59.3921 H   0  0  0  0  0  0  0  0  0  0  0  0
  127.0567  127.3975   59.3921 H   0  0  0  0  0  0  0  0  0  0  0  0
  129.0180  128.3540   57.1840 H   0  0  0  0  0  0  0  0  0  0  0  0
  131.4069  128.2046   59.7262 H   0  0  0  0  0  0  0  0  0  0  0  0
  132.5844  127.3499   57.1535 H   0  0  0  0  0  0  0  0  0  0  0  0
  133.4810  125.2797   56.7545 H   0  0  0  0  0  0  0  0  0  0  0  0
  134.6023  125.5352   58.1342 H   0  0  0  0  0  0  0  0  0  0  0  0
  134.3770  123.3380   57.8040 H   0  0  0  0  0  0  0  0  0  0  0  0
  131.7812  124.0572   59.4680 H   0  0  0  0  0  0  0  0  0  0  0  0
  132.6589  125.2987   60.5940 H   0  0  0  0  0  0  0  0  0  0  0  0
  131.8680  126.9060   60.9650 H   0  0  0  0  0  0  0  0  0  0  0  0
  129.9196  125.6219   58.3682 H   0  0  0  0  0  0  0  0  0  0  0  0
  127.3240  125.6276   59.2349 H   0  0  0  0  0  0  0  0  0  0  0  0
  127.2804  123.9529   62.6133 H   0  0  0  0  0  0  0  0  0  0  0  0
  126.2235  124.3371   61.2126 H   0  0  0  0  0  0  0  0  0  0  0  0
  127.2026  122.8311   61.2126 H   0  0  0  0  0  0  0  0  0  0  0  0
  130.1500  123.1110   59.7970 H   0  0  0  0  0  0  0  0  0  0  0  0
  132.1147  122.9784   61.2059 H   0  0  0  0  0  0  0  0  0  0  0  0
  131.6550  120.2421   61.3887 H   0  0  0  0  0  0  0  0  0  0  0  0
  130.6284  120.7696   60.0123 H   0  0  0  0  0  0  0  0  0  0  0  0
  132.3872  121.1343   60.0123 H   0  0  0  0  0  0  0  0  0  0  0  0
  130.1524  121.4417   62.9847 H   0  0  0  0  0  0  0  0  0  0  0  0
  131.9094  121.7854   63.2964 H   0  0  0  0  0  0  0  0  0  0  0  0
  131.4486  122.7550   65.4249 H   0  0  0  0  0  0  0  0  0  0  0  0
  130.7228  124.7335   66.7295 H   0  0  0  0  0  0  0  0  0  0  0  0
  131.4783  128.8006   56.9697 H   0  0  0  0  0  0  0  0  0  0  0  0
  131.3586  130.6205   60.6511 H   0  0  0  0  0  0  0  0  0  0  0  0
  132.9102  129.9090   60.0917 H   0  0  0  0  0  0  0  0  0  0  0  0
  132.6878  131.6915   60.0917 H   0  0  0  0  0  0  0  0  0  0  0  0
  133.0335  132.2857   58.1663 H   0  0  0  0  0  0  0  0  0  0  0  0
  133.1046  130.9890   56.9252 H   0  0  0  0  0  0  0  0  0  0  0  0
  131.7411  132.1584   56.9252 H   0  0  0  0  0  0  0  0  0  0  0  0
  127.1914  132.2224   58.4108 H   0  0  0  0  0  0  0  0  0  0  0  0
  127.0006  133.1101   56.8609 H   0  0  0  0  0  0  0  0  0  0  0  0
  127.1153  131.3175   56.8609 H   0  0  0  0  0  0  0  0  0  0  0  0
  1  2  1  0
  2  3  1  0
  3  4  1  0
  4  5  1  0
  5  6  1  0
  6  7  1  0
  7  8  1  0
  8  9  1  0
  9 10  1  0
 10 11  1  0
 11 12  1  0
 12 13  1  0
 13 14  1  0
 14 15  2  0
 14 16  1  0
 16 17  1  0
 17 18  1  0
 18 19  1  0
 18 20  1  0
 20 21  1  6
 20 22  1  0
 22 23  1  0
 23 24  2  0
 24 25  1  0
 25 26  1  0
 24 27  1  0
 27 28  1  0
 28 29  1  1
 28 30  1  0
 30 31  1  0
 31 32  2  0
 32 33  1  0
 32 34  1  0
 34 35  1  6
 35 36  1  0
 36 37  1  0
 36 38  1  0
 38 39  1  0
 39 40  2  0
 40 41  1  0
 41 42  2  0
 42 43  1  0
 42 44  1  0
 44 45  1  0
 44 46  2  0
 22 47  1  0
 47 48  1  0
 48 49  1  0
 48 50  1  0
 48 51  1  0
 51 52  1  6
 52 53  1  0
 53 54  1  0
 53 55  2  0
 51 17  1  0
 30 20  1  0
 46 34  1  0
 51 47  1  0
 34 28  1  0
 46 39  1  0
  1 56  1  0
  1 57  1  0
  1 58  1  0
  2 59  1  0
  2 60  1  0
  3 61  1  0
  3 62  1  0
  4 63  1  0
  4 64  1  0
  5 65  1  0
  5 66  1  0
  6 67  1  0
  6 68  1  0
  7 69  1  0
  7 70  1  0
  8 71  1  0
  8 72  1  0
  9 73  1  0
  9 74  1  0
 10 75  1  0
 10 76  1  0
 11 77  1  0
 11 78  1  0
 12 79  1  0
 12 80  1  0
 13 81  1  0
 13 82  1  0
 17 83  1  6
 18 84  1  1
 19 85  1  0
 19 86  1  0
 19 87  1  0
 21 88  1  0
 22 89  1  1
 23 90  1  0
 25 91  1  0
 25 92  1  0
 26 93  1  0
 27 94  1  0
 27 95  1  0
 29 96  1  0
 30 97  1  6
 31 98  1  0
 33 99  1  0
 33100  1  0
 33101  1  0
 35102  1  0
 36103  1  1
 37104  1  0
 37105  1  0
 37106  1  0
 38107  1  0
 38108  1  0
 40109  1  0
 41110  1  0
 47111  1  6
 49112  1  0
 49113  1  0
 49114  1  0
 50115  1  0
 50116  1  0
 50117  1  0
 54118  1  0
 54119  1  0
 54120  1  0
M  END
>  <Binding energies>  (1) 
[-7.19]

>  <Ligand effiencies>  (1) 
[-0.1178688524590164]

>  <Interactions>  (1) 
["V-A:ASP:366:CA:3210, V-B:HIS:456:CD2:9039, V-A:GLU:543:C:4902, V-B:GLU:543:CB:9878, H-A:TYR:531:OH:4795, V-B:TYR:539:CE2:9848, V-A:TYR:484:CE2:4346, V-B:GLU:543:CG:9879, V-A:ASP:366:CG:3213, V-A:HIS:456:CD2:4068, V-A:LEU:363:CD1:3189, V-B:TYR:484:CE2:9317, V-A:TYR:539:CD1:4873, V-A:TYR:539:CZ:4877, H-B:TYR:539:OH:9850, V-A:GLU:543:CD:4908, V-A:TYR:484:CZ:4347, V-B:HIS:456:CE1:9041, V-B:TYR:484:CZ:9318, V-A:HIS:456:CE1:4070, V-A:ASP:366:C:3208, V-B:TYR:539:CD2:9846, V-A:GLU:543:CG:4907, V-A:TYR:531:CZ:4794, V-B:GLU:543:CD:9880, V-A:ASP:366:CB:3212, V-A:LEU:475:CD2:4259, H-A:ASP:366:O:3209, V-A:GLU:543:CB:4906, H-A:ASP:366:OD1:3214, H-A:TYR:539:N:4870, V-A:PRO:540:CB:4885, H-A:ASP:366:OD2:3215, V-A:TYR:539:CE1:4875"]

$$$$
ZINC587812711
     RDKit          3D

 51 54  0  0  0  0  0  0  0  0999 V2000
  125.4950  123.6200   61.2730 C   0  0  0  0  0  0  0  0  0  0  0  0
  126.6220  123.8420   60.2820 C   0  0  0  0  0  0  0  0  0  0  0  0
  126.5940  123.2230   59.0310 C   0  0  0  0  0  0  0  0  0  0  0  0
  127.6360  123.4200   58.1220 C   0  0  0  0  0  0  0  0  0  0  0  0
  127.6090  122.7330   56.7690 C   0  0  0  0  0  0  0  0  0  0  0  0
  128.7170  124.2280   58.4780 C   0  0  0  0  0  0  0  0  0  0  0  0
  128.7710  124.8410   59.7320 C   0  0  0  0  0  0  0  0  0  0  0  0
  129.8830  125.6110   60.0060 O   0  0  0  0  0  0  0  0  0  0  0  0
  131.1340  125.2430   59.5670 C   0  0  0  0  0  0  0  0  0  0  0  0
  131.6170  125.8340   58.3960 C   0  0  0  0  0  0  0  0  0  0  0  0
  132.8680  125.4840   57.8910 C   0  0  0  0  0  0  0  0  0  0  0  0
  133.6410  124.5330   58.5510 C   0  0  0  0  0  0  0  0  0  0  0  0
  133.1650  123.9320   59.7150 C   0  0  0  0  0  0  0  0  0  0  0  0
  131.9110  124.2740   60.2380 C   0  0  0  0  0  0  0  0  0  0  0  0
  131.4420  123.5790   61.5260 C   0  0  1  0  0  0  0  0  0  0  0  0
  130.3820  124.3580   62.1720 N   0  0  0  0  0  0  0  0  0  0  0  0
  129.7930  123.7100   63.3410 C   0  0  2  0  0  0  0  0  0  0  0  0
  130.7510  123.4800   64.5280 C   0  0  0  0  0  0  0  0  0  0  0  0
  129.0870  122.4190   62.8660 C   0  0  0  0  0  0  0  0  0  0  0  0
  130.0090  121.5200   62.0450 C   0  0  0  0  0  0  0  0  0  0  0  0
  129.7550  120.1490   61.9370 C   0  0  0  0  0  0  0  0  0  0  0  0
  130.5710  119.3240   61.1680 C   0  0  0  0  0  0  0  0  0  0  0  0
  130.1820  117.4640   61.0400 Br  0  0  0  0  0  0  0  0  0  0  0  0
  131.6660  119.8680   60.5010 C   0  0  0  0  0  0  0  0  0  0  0  0
  132.4750  119.0820   59.7530 F   0  0  0  0  0  0  0  0  0  0  0  0
  131.9340  121.2300   60.6100 C   0  0  0  0  0  0  0  0  0  0  0  0
  131.1150  122.0790   61.3680 C   0  0  0  0  0  0  0  0  0  0  0  0
  127.7080  124.6500   60.6290 C   0  0  0  0  0  0  0  0  0  0  0  0
  125.8873  123.6973   62.2978 H   0  0  0  0  0  0  0  0  0  0  0  0
  124.7167  124.3821   61.1199 H   0  0  0  0  0  0  0  0  0  0  0  0
  125.0638  122.6197   61.1199 H   0  0  0  0  0  0  0  0  0  0  0  0
  125.7465  122.5764   58.7596 H   0  0  0  0  0  0  0  0  0  0  0  0
  127.5662  121.6432   56.9119 H   0  0  0  0  0  0  0  0  0  0  0  0
  126.7232  123.0642   56.2072 H   0  0  0  0  0  0  0  0  0  0  0  0
  128.5181  122.9937   56.2072 H   0  0  0  0  0  0  0  0  0  0  0  0
  129.5371  124.3841   57.7617 H   0  0  0  0  0  0  0  0  0  0  0  0
  131.0051  126.5810   57.8691 H   0  0  0  0  0  0  0  0  0  0  0  0
  133.2438  125.9585   56.9725 H   0  0  0  0  0  0  0  0  0  0  0  0
  134.6284  124.2555   58.1536 H   0  0  0  0  0  0  0  0  0  0  0  0
  133.7814  123.1800   60.2293 H   0  0  0  0  0  0  0  0  0  0  0  0
  132.3038  123.5628   62.2095 H   0  0  0  0  0  0  0  0  0  0  0  0
  130.7140  125.2840   62.4050 H   0  0  0  0  0  0  0  0  0  0  0  0
  129.0614  124.4064   63.7767 H   0  0  0  0  0  0  0  0  0  0  0  0
  130.2027  123.6116   65.4725 H   0  0  0  0  0  0  0  0  0  0  0  0
  131.1570  122.4589   64.4790 H   0  0  0  0  0  0  0  0  0  0  0  0
  131.5764  124.2055   64.4790 H   0  0  0  0  0  0  0  0  0  0  0  0
  128.7421  121.8598   63.7483 H   0  0  0  0  0  0  0  0  0  0  0  0
  128.2456  122.7143   62.2219 H   0  0  0  0  0  0  0  0  0  0  0  0
  128.8955  119.7150   62.4689 H   0  0  0  0  0  0  0  0  0  0  0  0
  132.8078  121.6494   60.0898 H   0  0  0  0  0  0  0  0  0  0  0  0
  127.7302  125.1406   61.6133 H   0  0  0  0  0  0  0  0  0  0  0  0
  1  2  1  0
  2  3  2  0
  3  4  1  0
  4  5  1  0
  4  6  2  0
  6  7  1  0
  7  8  1  0
  8  9  1  0
  9 10  2  0
 10 11  1  0
 11 12  2  0
 12 13  1  0
 13 14  2  0
 14 15  1  0
 15 16  1  0
 16 17  1  0
 17 18  1  0
 17 19  1  0
 19 20  1  0
 20 21  2  0
 21 22  1  0
 22 23  1  0
 22 24  2  0
 24 25  1  0
 24 26  1  0
 26 27  2  0
  7 28  2  0
 28  2  1  0
 14  9  1  0
 27 15  1  0
 27 20  1  0
  1 29  1  0
  1 30  1  0
  1 31  1  0
  3 32  1  0
  5 33  1  0
  5 34  1  0
  5 35  1  0
  6 36  1  0
 10 37  1  0
 11 38  1  0
 12 39  1  0
 13 40  1  0
 15 41  1  1
 16 42  1  0
 17 43  1  1
 18 44  1  0
 18 45  1  0
 18 46  1  0
 19 47  1  0
 19 48  1  0
 21 49  1  0
 26 50  1  0
 28 51  1  0
M  END
>  <Binding energies>  (1) 
[-7.86]

>  <Ligand effiencies>  (1) 
[-0.2710344827586207]

>  <Interactions>  (1) 
["V-A:ILE:369:CG2:3237, V-A:ASP:366:CA:3210, V-B:PRO:540:CA:9855, V-A:ILE:369:CB:3236, V-B:ALA:541:CB:9864, V-B:TYR:539:CE2:9848, V-A:TYR:484:CE2:4346, V-B:GLU:543:CG:9879, V-B:TYR:539:C:9839, V-A:ASP:366:CG:3213, V-B:TYR:539:CZ:9849, V-B:PRO:540:CB:9857, V-A:HIS:383:NE2:3394, V-B:PRO:540:N:9856, V-A:ASP:366:C:3208, V-A:PRO:482:CB:4326, V-B:TYR:539:CD2:9846, V-A:SER:385:CB:3409, V-A:ASP:366:CB:3212, V-A:LEU:475:CD2:4259, V-B:TYR:539:CG:9844, V-B:TYR:539:CD1:9845, V-A:PRO:482:CG:4327, V-B:TYR:539:CE1:9847"]

$$$$
ZINC587822029-again1
     RDKit          3D

100105  0  0  0  0  0  0  0  0999 V2000
  130.1780  128.0970   71.5020 C   0  0  0  0  0  0  0  0  0  0  0  0
  129.2310  126.8910   71.4530 C   0  0  0  0  0  0  0  0  0  0  0  0
  128.0750  127.0770   70.4550 C   0  0  0  0  0  0  0  0  0  0  0  0
  128.5530  127.5020   69.0530 C   0  0  0  0  0  0  0  0  0  0  0  0
  129.7050  126.6450   68.4810 C   0  0  0  0  0  0  0  0  0  0  0  0
  129.7310  126.5010   66.9450 C   0  0  0  0  0  0  0  0  0  0  0  0
  130.7510  125.4620   66.4340 C   0  0  0  0  0  0  0  0  0  0  0  0
  130.1320  124.3870   65.5360 C   0  0  0  0  0  0  0  0  0  0  0  0
  129.6260  123.3600   65.9940 O   0  0  0  0  0  0  0  0  0  0  0  0
  130.2640  124.6930   64.2310 O   0  0  0  0  0  0  0  0  0  0  0  0
  130.0060  123.7270   63.2120 C   0  0  0  0  0  0  0  0  0  0  0  0
  131.0420  123.8180   62.0420 C   0  0  1  0  0  0  0  0  0  0  0  0
  130.6660  124.7420   60.7650 C   0  0  1  0  0  0  0  0  0  0  0  0
  131.8910  124.9210   60.0480 O   0  0  0  0  0  0  0  0  0  0  0  0
  129.6710  124.0750   59.7660 C   0  0  0  0  0  0  0  0  0  0  0  0
  128.9660  125.1740   58.9520 C   0  0  0  0  0  0  0  0  0  0  0  0
  129.5420  126.4820   59.4940 C   0  0  1  0  0  0  0  0  0  0  0  0
  128.7370  127.8050   59.3230 C   0  0  2  0  0  0  0  0  0  0  0  0
  128.3580  128.0250   57.8420 C   0  0  0  0  0  0  0  0  0  0  0  0
  127.5660  129.3210   57.6450 C   0  0  0  0  0  0  0  0  0  0  0  0
  128.3980  130.5100   58.1310 C   0  0  0  0  0  0  0  0  0  0  0  0
  128.6240  131.5800   57.3340 C   0  0  0  0  0  0  0  0  0  0  0  0
  129.3360  132.7810   57.7410 C   0  0  0  0  0  0  0  0  0  0  0  0
  129.6170  133.6730   56.9420 O   0  0  0  0  0  0  0  0  0  0  0  0
  129.5870  132.9240   59.2440 C   0  0  0  0  0  0  0  0  0  0  0  0
  129.9270  131.5600   59.8760 C   0  0  0  0  0  0  0  0  0  0  0  0
  128.8880  130.4190   59.6070 C   0  0  1  0  0  0  0  0  0  0  0  0
  127.6390  130.6480   60.5040 C   0  0  0  0  0  0  0  0  0  0  0  0
  129.5990  129.0160   59.8160 C   0  0  1  0  0  0  0  0  0  0  0  0
  130.2220  128.7730   61.2400 C   0  0  1  0  0  0  0  0  0  0  0  0
  129.3330  128.9740   62.3210 O   0  0  0  0  0  0  0  0  0  0  0  0
  130.9020  127.3780   61.3450 C   0  0  0  0  0  0  0  0  0  0  0  0
  129.9760  126.1730   60.9570 C   0  0  2  0  0  0  0  0  0  0  0  0
  128.7570  126.0660   61.9280 C   0  0  0  0  0  0  0  0  0  0  0  0
  132.1960  124.5670   62.7740 N   0  0  0  0  0  0  0  0  0  0  0  0
  133.6290  124.3820   62.2590 C   0  0  1  0  0  0  0  0  0  0  0  0
  134.5380  125.2540   63.1440 C   0  0  0  0  0  0  0  0  0  0  0  0
  133.9510  122.8960   62.3540 C   0  0  0  0  0  0  0  0  0  0  0  0
  132.9150  122.0120   61.6770 C   0  0  0  0  0  0  0  0  0  0  0  0
  133.3590  120.7930   61.1580 C   0  0  0  0  0  0  0  0  0  0  0  0
  132.4760  119.8590   60.6530 C   0  0  0  0  0  0  0  0  0  0  0  0
  131.1190  120.1200   60.6950 C   0  0  0  0  0  0  0  0  0  0  0  0
  130.2580  119.1720   60.2570 F   0  0  0  0  0  0  0  0  0  0  0  0
  130.6440  121.3370   61.1920 C   0  0  0  0  0  0  0  0  0  0  0  0
  128.7380  121.4620   61.2860 Br  0  0  0  0  0  0  0  0  0  0  0  0
  131.5320  122.3620   61.6350 C   0  0  0  0  0  0  0  0  0  0  0  0
  130.3839  128.3592   72.5503 H   0  0  0  0  0  0  0  0  0  0  0  0
  131.1210  127.8436   70.9954 H   0  0  0  0  0  0  0  0  0  0  0  0
  129.7082  128.9529   70.9954 H   0  0  0  0  0  0  0  0  0  0  0  0
  129.8091  126.0026   71.1587 H   0  0  0  0  0  0  0  0  0  0  0  0
  128.7881  126.7785   72.4536 H   0  0  0  0  0  0  0  0  0  0  0  0
  127.5316  126.1247   70.3664 H   0  0  0  0  0  0  0  0  0  0  0  0
  127.4325  127.8817   70.8417 H   0  0  0  0  0  0  0  0  0  0  0  0
  127.6987  127.4334   68.3634 H   0  0  0  0  0  0  0  0  0  0  0  0
  128.9443  128.5252   69.1529 H   0  0  0  0  0  0  0  0  0  0  0  0
  130.6549  127.1030   68.7939 H   0  0  0  0  0  0  0  0  0  0  0  0
  129.5488  125.6300   68.8753 H   0  0  0  0  0  0  0  0  0  0  0  0
  128.7287  126.1978   66.6081 H   0  0  0  0  0  0  0  0  0  0  0  0
  130.0353  127.4761   66.5369 H   0  0  0  0  0  0  0  0  0  0  0  0
  131.5275  125.9895   65.8606 H   0  0  0  0  0  0  0  0  0  0  0  0
  131.1597  124.9491   67.3171 H   0  0  0  0  0  0  0  0  0  0  0  0
  130.0577  122.7213   63.6547 H   0  0  0  0  0  0  0  0  0  0  0  0
  129.0071  123.9285   62.7978 H   0  0  0  0  0  0  0  0  0  0  0  0
  131.7200  124.7780   59.1140 H   0  0  0  0  0  0  0  0  0  0  0  0
  130.2222  123.4087   59.0861 H   0  0  0  0  0  0  0  0  0  0  0  0
  128.9250  123.4875   60.3212 H   0  0  0  0  0  0  0  0  0  0  0  0
  129.1878  125.0664   57.8800 H   0  0  0  0  0  0  0  0  0  0  0  0
  127.8712  125.1279   59.0480 H   0  0  0  0  0  0  0  0  0  0  0  0
  130.3834  126.7627   58.8434 H   0  0  0  0  0  0  0  0  0  0  0  0
  127.8170  127.7304   59.9213 H   0  0  0  0  0  0  0  0  0  0  0  0
  129.2788  128.0756   57.2424 H   0  0  0  0  0  0  0  0  0  0  0  0
  127.7243  127.1846   57.5224 H   0  0  0  0  0  0  0  0  0  0  0  0
  127.3331  129.4491   56.5776 H   0  0  0  0  0  0  0  0  0  0  0  0
  126.6311  129.2691   58.2222 H   0  0  0  0  0  0  0  0  0  0  0  0
  128.2414  131.5384   56.3035 H   0  0  0  0  0  0  0  0  0  0  0  0
  130.4275  133.6152   59.4048 H   0  0  0  0  0  0  0  0  0  0  0  0
  128.6739  133.3135   59.7178 H   0  0  0  0  0  0  0  0  0  0  0  0
  130.8996  131.2344   59.4784 H   0  0  0  0  0  0  0  0  0  0  0  0
  129.9267  131.7208   60.9642 H   0  0  0  0  0  0  0  0  0  0  0  0
  127.9330  130.5941   61.5626 H   0  0  0  0  0  0  0  0  0  0  0  0
  127.2121  131.6394   60.2920 H   0  0  0  0  0  0  0  0  0  0  0  0
  126.8882  129.8725   60.2920 H   0  0  0  0  0  0  0  0  0  0  0  0
  130.4728  129.0791   59.1508 H   0  0  0  0  0  0  0  0  0  0  0  0
  130.9886  129.5561   61.3354 H   0  0  0  0  0  0  0  0  0  0  0  0
  129.8450  129.0160   63.1320 H   0  0  0  0  0  0  0  0  0  0  0  0
  131.7750  127.3700   60.6758 H   0  0  0  0  0  0  0  0  0  0  0  0
  131.1700  127.2391   62.4028 H   0  0  0  0  0  0  0  0  0  0  0  0
  129.1131  126.0973   62.9683 H   0  0  0  0  0  0  0  0  0  0  0  0
  128.0713  126.9074   61.7497 H   0  0  0  0  0  0  0  0  0  0  0  0
  128.2283  125.1180   61.7497 H   0  0  0  0  0  0  0  0  0  0  0  0
  131.9780  125.5520   62.7570 H   0  0  0  0  0  0  0  0  0  0  0  0
  132.1780  124.2930   63.7460 H   0  0  0  0  0  0  0  0  0  0  0  0
  133.7713  124.6920   61.2132 H   0  0  0  0  0  0  0  0  0  0  0  0
  134.3243  125.0490   64.2034 H   0  0  0  0  0  0  0  0  0  0  0  0
  135.5914  125.0199   62.9305 H   0  0  0  0  0  0  0  0  0  0  0  0
  134.3479  126.3162   62.9305 H   0  0  0  0  0  0  0  0  0  0  0  0
  134.9264  122.7188   61.8773 H   0  0  0  0  0  0  0  0  0  0  0  0
  133.9576  122.6315   63.4217 H   0  0  0  0  0  0  0  0  0  0  0  0
  134.4366  120.5723   61.1515 H   0  0  0  0  0  0  0  0  0  0  0  0
  132.8482  118.9178   60.2221 H   0  0  0  0  0  0  0  0  0  0  0  0
  1  2  1  0
  2  3  1  0
  3  4  1  0
  4  5  1  0
  5  6  1  0
  6  7  1  0
  7  8  1  0
  8  9  2  0
  8 10  1  0
 10 11  1  0
 12 11  1  1
 12 13  1  0
 13 14  1  6
 13 15  1  0
 15 16  1  0
 16 17  1  0
 17 18  1  0
 18 19  1  0
 19 20  1  0
 20 21  1  0
 21 22  2  0
 22 23  1  0
 23 24  2  0
 23 25  1  0
 25 26  1  0
 26 27  1  0
 27 28  1  1
 27 29  1  0
 29 30  1  0
 30 31  1  0
 30 32  1  0
 32 33  1  0
 33 34  1  1
 12 35  1  0
 35 36  1  0
 36 37  1  0
 36 38  1  0
 38 39  1  0
 39 40  2  0
 40 41  1  0
 41 42  2  0
 42 43  1  0
 42 44  1  0
 44 45  1  0
 44 46  2  0
 46 12  1  0
 33 13  1  0
 46 39  1  0
 33 17  1  0
 29 18  1  0
 27 21  1  0
  1 47  1  0
  1 48  1  0
  1 49  1  0
  2 50  1  0
  2 51  1  0
  3 52  1  0
  3 53  1  0
  4 54  1  0
  4 55  1  0
  5 56  1  0
  5 57  1  0
  6 58  1  0
  6 59  1  0
  7 60  1  0
  7 61  1  0
 11 62  1  0
 11 63  1  0
 14 64  1  0
 15 65  1  0
 15 66  1  0
 16 67  1  0
 16 68  1  0
 17 69  1  6
 18 70  1  1
 19 71  1  0
 19 72  1  0
 20 73  1  0
 20 74  1  0
 22 75  1  0
 25 76  1  0
 25 77  1  0
 26 78  1  0
 26 79  1  0
 28 80  1  0
 28 81  1  0
 28 82  1  0
 29 83  1  6
 30 84  1  1
 31 85  1  0
 32 86  1  0
 32 87  1  0
 34 88  1  0
 34 89  1  0
 34 90  1  0
 35 91  1  0
 35 92  1  0
 36 93  1  6
 37 94  1  0
 37 95  1  0
 37 96  1  0
 38 97  1  0
 38 98  1  0
 40 99  1  0
 41100  1  0
M  CHG  1  35   1
M  END
>  <Binding energies>  (1) 
[-8.04]

>  <Ligand effiencies>  (1) 
[-0.16079999999999997]

>  <Interactions>  (1) 
["V-A:ILE:369:CG2:3237, V-B:PRO:540:CA:9855, V-A:GLY:454:CA:4049, V-B:GLU:543:C:9874, H-A:GLU:543:OE2:4910, V-B:GLU:543:CB:9878, V-B:ALA:541:CB:9864, V-B:TYR:539:CE2:9848, V-A:TYR:484:CE2:4346, V-A:GLY:544:C:4912, V-B:GLU:543:CG:9879, V-B:TYR:539:C:9839, V-A:HIS:456:CD2:4068, V-A:ASP:366:CG:3213, V-A:TYR:539:CD1:4873, H-B:TYR:539:OH:9850, V-B:TYR:539:CB:9843, V-A:GLU:543:CD:4908, V-B:HIS:456:CE1:9041, V-A:GLY:453:C:4042, V-A:HIS:456:CE1:4070, V-A:ILE:369:CD1:3239, V-B:TYR:539:CD2:9846, V-A:SER:385:CB:3409, V-A:MET:535:CE:4835, V-B:GLU:543:CD:9880, V-A:TYR:539:C:4867, V-A:LEU:475:CD2:4259, V-A:ARG:545:CZ:4926, H-A:GLU:543:OE1:4909, V-B:TYR:539:CG:9844, V-A:PRO:540:N:4884, H-A:TYR:539:N:4870, V-A:GLY:453:CA:4044, V-A:PRO:540:CA:4883, V-A:PRO:540:CB:4885, V-A:SER:385:CA:3407, V-B:PRO:540:C:9853, V-B:ALA:541:CA:9862, H-A:TYR:484:OH:4348"]

$$$$
ZINC587830450
     RDKit          3D

 54 58  0  0  0  0  0  0  0  0999 V2000
  131.7250  131.8350   58.6740 C   0  0  0  0  0  0  0  0  0  0  0  0
  130.8360  131.7470   59.7820 O   0  0  0  0  0  0  0  0  0  0  0  0
  130.2900  130.5220   60.1100 C   0  0  0  0  0  0  0  0  0  0  0  0
  129.0060  130.0960   59.7380 C   0  0  0  0  0  0  0  0  0  0  0  0
  128.5240  128.8410   60.1160 C   0  0  0  0  0  0  0  0  0  0  0  0
  127.2560  128.5220   59.7010 O   0  0  0  0  0  0  0  0  0  0  0  0
  129.3230  127.9630   60.8840 C   0  0  0  0  0  0  0  0  0  0  0  0
  130.6120  128.4050   61.2380 C   0  0  0  0  0  0  0  0  0  0  0  0
  131.0810  129.6620   60.8640 C   0  0  0  0  0  0  0  0  0  0  0  0
  131.4860  127.6570   61.9950 O   0  0  0  0  0  0  0  0  0  0  0  0
  131.3300  126.2360   61.8970 C   0  0  2  0  0  0  0  0  0  0  0  0
  132.0300  125.6120   60.6720 C   0  0  0  0  0  0  0  0  0  0  0  0
  132.8400  124.4850   60.8630 C   0  0  0  0  0  0  0  0  0  0  0  0
  133.4840  123.8830   59.7860 C   0  0  0  0  0  0  0  0  0  0  0  0
  133.3280  124.4110   58.5070 C   0  0  0  0  0  0  0  0  0  0  0  0
  133.9590  123.8180   57.4460 O   0  0  0  0  0  0  0  0  0  0  0  0
  132.5360  125.5380   58.3010 C   0  0  0  0  0  0  0  0  0  0  0  0
  131.8900  126.1370   59.3800 C   0  0  0  0  0  0  0  0  0  0  0  0
  129.8570  125.7660   62.1950 C   0  0  2  0  0  0  0  0  0  0  0  0
  129.4740  126.2750   63.5340 N   0  0  0  0  0  0  0  0  0  0  0  0
  129.5100  125.4280   64.7250 C   0  0  2  0  0  0  0  0  0  0  0  0
  129.8550  126.2180   65.9960 C   0  0  0  0  0  0  0  0  0  0  0  0
  130.4130  124.2030   64.5360 C   0  0  0  0  0  0  0  0  0  0  0  0
  129.9830  123.4620   63.2840 C   0  0  0  0  0  0  0  0  0  0  0  0
  129.8570  122.0710   63.3030 C   0  0  0  0  0  0  0  0  0  0  0  0
  129.4930  121.3730   62.1640 C   0  0  0  0  0  0  0  0  0  0  0  0
  129.2790  122.0620   60.9810 C   0  0  0  0  0  0  0  0  0  0  0  0
  128.9700  121.3630   59.8640 F   0  0  0  0  0  0  0  0  0  0  0  0
  129.3990  123.4540   60.9360 C   0  0  0  0  0  0  0  0  0  0  0  0
  129.2060  124.2350   59.1990 Br  0  0  0  0  0  0  0  0  0  0  0  0
  129.7020  124.2020   62.1100 C   0  0  0  0  0  0  0  0  0  0  0  0
  128.8560  126.6010   61.3430 C   0  0  0  0  0  0  0  0  0  0  0  0
  127.7190  126.1970   61.0860 O   0  0  0  0  0  0  0  0  0  0  0  0
  132.7575  131.9372   59.0395 H   0  0  0  0  0  0  0  0  0  0  0  0
  131.6408  130.9241   58.0631 H   0  0  0  0  0  0  0  0  0  0  0  0
  131.4638  132.7117   58.0631 H   0  0  0  0  0  0  0  0  0  0  0  0
  128.3681  130.7619   59.1383 H   0  0  0  0  0  0  0  0  0  0  0  0
  126.8160  127.9010   60.2850 H   0  0  0  0  0  0  0  0  0  0  0  0
  132.0895  129.9784   61.1688 H   0  0  0  0  0  0  0  0  0  0  0  0
  131.9042  125.7913   62.7231 H   0  0  0  0  0  0  0  0  0  0  0  0
  132.9683  124.0718   61.8743 H   0  0  0  0  0  0  0  0  0  0  0  0
  134.1130  122.9946   59.9444 H   0  0  0  0  0  0  0  0  0  0  0  0
  134.6770  124.3500   57.0950 H   0  0  0  0  0  0  0  0  0  0  0  0
  132.4210  125.9539   57.2892 H   0  0  0  0  0  0  0  0  0  0  0  0
  131.2658  127.0280   59.2170 H   0  0  0  0  0  0  0  0  0  0  0  0
  129.9340  127.1580   63.7070 H   0  0  0  0  0  0  0  0  0  0  0  0
  128.4884  125.0460   64.8679 H   0  0  0  0  0  0  0  0  0  0  0  0
  129.5939  125.6200   66.8816 H   0  0  0  0  0  0  0  0  0  0  0  0
  130.9322  126.4405   66.0084 H   0  0  0  0  0  0  0  0  0  0  0  0
  129.2860  127.1593   66.0084 H   0  0  0  0  0  0  0  0  0  0  0  0
  131.4587  124.5280   64.4316 H   0  0  0  0  0  0  0  0  0  0  0  0
  130.3272  123.5393   65.4090 H   0  0  0  0  0  0  0  0  0  0  0  0
  130.0498  121.5221   64.2366 H   0  0  0  0  0  0  0  0  0  0  0  0
  129.3746  120.2799   62.1980 H   0  0  0  0  0  0  0  0  0  0  0  0
  1  2  1  0
  2  3  1  0
  3  4  2  0
  4  5  1  0
  5  6  1  0
  5  7  2  0
  7  8  1  0
  8  9  2  0
  8 10  1  0
 10 11  1  0
 11 12  1  0
 12 13  2  0
 13 14  1  0
 14 15  2  0
 15 16  1  0
 15 17  1  0
 17 18  2  0
 11 19  1  0
 19 20  1  1
 20 21  1  0
 21 22  1  0
 21 23  1  0
 23 24  1  0
 24 25  2  0
 25 26  1  0
 26 27  2  0
 27 28  1  0
 27 29  1  0
 29 30  1  0
 29 31  2  0
 19 32  1  0
 32 33  2  0
  9  3  1  0
 18 12  1  0
 31 19  1  0
 32  7  1  0
 31 24  1  0
  1 34  1  0
  1 35  1  0
  1 36  1  0
  4 37  1  0
  6 38  1  0
  9 39  1  0
 11 40  1  1
 13 41  1  0
 14 42  1  0
 16 43  1  0
 17 44  1  0
 18 45  1  0
 20 46  1  0
 21 47  1  1
 22 48  1  0
 22 49  1  0
 22 50  1  0
 23 51  1  0
 23 52  1  0
 25 53  1  0
 26 54  1  0
M  END
>  <Binding energies>  (1) 
[-6.4]

>  <Ligand effiencies>  (1) 
[-0.17777777777777778]

>  <Interactions>  (1) 
["V-A:ILE:369:CG2:3237, V-A:ASP:366:CA:3210, V-B:PRO:540:CA:9855, H-A:GLU:543:OE2:4910, V-B:ALA:541:CB:9864, V-B:TYR:539:CE2:9848, V-B:GLU:543:CG:9879, V-B:TYR:539:C:9839, V-A:ASP:366:CG:3213, V-B:TYR:539:CZ:9849, H-A:ASN:370:N:3244, H-B:TYR:539:OH:9850, V-A:GLU:543:CD:4908, H-B:ASP:366:OD1:8185, V-B:PRO:540:N:9856, V-B:TYR:539:CD2:9846, V-B:GLU:543:CD:9880, V-A:ASP:366:CB:3212, V-A:LEU:475:CD2:4259, H-A:ARG:545:NH2:4928, H-A:GLU:543:OE1:4909, V-B:TYR:539:CG:9844, H-A:ASP:366:O:3209, V-A:PRO:540:CB:4885, V-A:PRO:540:CA:4883, V-B:PRO:540:C:9853"]

$$$$
ZINC587830814
     RDKit          3D

 85 90  0  0  0  0  0  0  0  0999 V2000
  129.4910  126.1980   68.8280 C   0  0  0  0  0  0  0  0  0  0  0  0
  129.3400  126.5770   67.3490 C   0  0  0  0  0  0  0  0  0  0  0  0
  128.3480  127.4790   66.9460 C   0  0  0  0  0  0  0  0  0  0  0  0
  127.5020  128.0240   67.8810 O   0  0  0  0  0  0  0  0  0  0  0  0
  128.2030  127.8210   65.5960 C   0  0  0  0  0  0  0  0  0  0  0  0
  127.1390  128.8580   65.1740 C   0  0  0  0  0  0  0  0  0  0  0  0
  127.4680  129.6090   63.8360 C   0  0  0  0  0  0  0  0  0  0  0  0
  128.0900  130.8860   63.8500 C   0  0  0  0  0  0  0  0  0  0  0  0
  128.3200  131.4940   64.9570 O   0  0  0  0  0  0  0  0  0  0  0  0
  128.4610  131.5110   62.6400 C   0  0  0  0  0  0  0  0  0  0  0  0
  128.1870  130.8780   61.4200 C   0  0  0  0  0  0  0  0  0  0  0  0
  127.5520  129.6280   61.3570 C   0  0  0  0  0  0  0  0  0  0  0  0
  127.3190  129.0210   59.9820 C   0  0  0  0  0  0  0  0  0  0  0  0
  127.0140  129.7160   59.0070 O   0  0  0  0  0  0  0  0  0  0  0  0
  127.6200  127.5950   59.8260 C   0  0  0  0  0  0  0  0  0  0  0  0
  127.0640  126.8100   58.8790 C   0  0  0  0  0  0  0  0  0  0  0  0
  127.3000  125.3610   58.7210 C   0  0  0  0  0  0  0  0  0  0  0  0
  127.2970  124.7420   57.4620 C   0  0  0  0  0  0  0  0  0  0  0  0
  127.5260  123.3720   57.3520 C   0  0  0  0  0  0  0  0  0  0  0  0
  127.7530  122.6160   58.4980 C   0  0  0  0  0  0  0  0  0  0  0  0
  127.7540  123.2180   59.7550 C   0  0  0  0  0  0  0  0  0  0  0  0
  127.5280  124.5880   59.8640 C   0  0  0  0  0  0  0  0  0  0  0  0
  127.1370  129.0220   62.5790 C   0  0  0  0  0  0  0  0  0  0  0  0
  126.4240  127.9510   62.5590 O   0  0  0  0  0  0  0  0  0  0  0  0
  128.6110  131.4750   60.2320 O   0  0  0  0  0  0  0  0  0  0  0  0
  128.4910  132.9120   60.1410 C   0  0  0  0  0  0  0  0  0  0  0  0
  129.2920  133.3240   58.8940 C   0  0  0  0  0  0  0  0  0  0  0  0
  126.9970  133.3080   60.0890 C   0  0  0  0  0  0  0  0  0  0  0  0
  129.1470  133.5200   61.3760 C   0  0  0  0  0  0  0  0  0  0  0  0
  129.0930  132.8550   62.5390 C   0  0  0  0  0  0  0  0  0  0  0  0
  129.0390  127.2120   64.6460 C   0  0  0  0  0  0  0  0  0  0  0  0
  128.8110  127.4780   63.3150 O   0  0  0  0  0  0  0  0  0  0  0  0
  130.1070  126.3610   65.0230 C   0  0  0  0  0  0  0  0  0  0  0  0
  131.1120  125.8630   63.9160 C   0  0  2  0  0  0  0  0  0  0  0  0
  132.6250  125.8420   64.2630 C   0  0  0  0  0  0  0  0  0  0  0  0
  131.0480  126.9640   62.8140 N   0  0  0  0  0  0  0  0  0  0  0  0
  130.7420  126.5670   61.3560 C   0  0  1  0  0  0  0  0  0  0  0  0
  131.2180  127.7310   60.4690 C   0  0  0  0  0  0  0  0  0  0  0  0
  131.4050  125.2170   61.0400 C   0  0  0  0  0  0  0  0  0  0  0  0
  130.8820  124.1520   61.9900 C   0  0  0  0  0  0  0  0  0  0  0  0
  130.5230  122.8830   61.5230 C   0  0  0  0  0  0  0  0  0  0  0  0
  130.0510  121.9030   62.3920 C   0  0  0  0  0  0  0  0  0  0  0  0
  129.5780  120.1870   61.7150 Br  0  0  0  0  0  0  0  0  0  0  0  0
  129.9320  122.1880   63.7490 C   0  0  0  0  0  0  0  0  0  0  0  0
  129.4810  121.2490   64.6120 F   0  0  0  0  0  0  0  0  0  0  0  0
  130.2810  123.4510   64.2210 C   0  0  0  0  0  0  0  0  0  0  0  0
  130.7490  124.4590   63.3620 C   0  0  0  0  0  0  0  0  0  0  0  0
  130.2150  126.0290   66.3970 C   0  0  0  0  0  0  0  0  0  0  0  0
  131.1590  125.1510   66.8620 O   0  0  0  0  0  0  0  0  0  0  0  0
  129.1571  127.0362   69.4572 H   0  0  0  0  0  0  0  0  0  0  0  0
  128.8777  125.3106   69.0436 H   0  0  0  0  0  0  0  0  0  0  0  0
  130.5465  125.9755   69.0436 H   0  0  0  0  0  0  0  0  0  0  0  0
  126.5920  127.7420   67.7760 H   0  0  0  0  0  0  0  0  0  0  0  0
  126.1788  128.3360   65.0495 H   0  0  0  0  0  0  0  0  0  0  0  0
  127.1097  129.6210   65.9658 H   0  0  0  0  0  0  0  0  0  0  0  0
  128.3404  127.1383   60.5206 H   0  0  0  0  0  0  0  0  0  0  0  0
  126.3779  127.2898   58.1655 H   0  0  0  0  0  0  0  0  0  0  0  0
  127.1131  125.3408   56.5578 H   0  0  0  0  0  0  0  0  0  0  0  0
  127.5273  122.8900   56.3632 H   0  0  0  0  0  0  0  0  0  0  0  0
  127.9331  121.5343   58.4111 H   0  0  0  0  0  0  0  0  0  0  0  0
  127.9325  122.6139   60.6568 H   0  0  0  0  0  0  0  0  0  0  0  0
  127.5288  125.0650   60.8552 H   0  0  0  0  0  0  0  0  0  0  0  0
  130.2305  133.8067   59.2040 H   0  0  0  0  0  0  0  0  0  0  0  0
  129.5199  132.4312   58.2931 H   0  0  0  0  0  0  0  0  0  0  0  0
  128.6983  134.0286   58.2931 H   0  0  0  0  0  0  0  0  0  0  0  0
  126.6091  133.4108   61.1132 H   0  0  0  0  0  0  0  0  0  0  0  0
  126.8897  134.2656   59.5584 H   0  0  0  0  0  0  0  0  0  0  0  0
  126.4295  132.5293   59.5584 H   0  0  0  0  0  0  0  0  0  0  0  0
  129.6581  134.4920   61.3135 H   0  0  0  0  0  0  0  0  0  0  0  0
  129.5261  133.3136   63.4402 H   0  0  0  0  0  0  0  0  0  0  0  0
  127.9380  127.1940   63.0330 H   0  0  0  0  0  0  0  0  0  0  0  0
  132.7506  125.8403   65.3558 H   0  0  0  0  0  0  0  0  0  0  0  0
  133.0858  124.9374   63.8395 H   0  0  0  0  0  0  0  0  0  0  0  0
  133.1107  126.7335   63.8395 H   0  0  0  0  0  0  0  0  0  0  0  0
  130.3560  127.6440   63.0970 H   0  0  0  0  0  0  0  0  0  0  0  0
  131.9320  127.4520   62.8250 H   0  0  0  0  0  0  0  0  0  0  0  0
  129.6691  126.4123   61.1690 H   0  0  0  0  0  0  0  0  0  0  0  0
  131.5577  128.5616   61.1052 H   0  0  0  0  0  0  0  0  0  0  0  0
  132.0496  127.3917   59.8339 H   0  0  0  0  0  0  0  0  0  0  0  0
  130.3870  128.0717   59.8339 H   0  0  0  0  0  0  0  0  0  0  0  0
  131.1716  124.9290   60.0043 H   0  0  0  0  0  0  0  0  0  0  0  0
  132.4942  125.3097   61.1623 H   0  0  0  0  0  0  0  0  0  0  0  0
  130.6153  122.6556   60.4507 H   0  0  0  0  0  0  0  0  0  0  0  0
  130.1876  123.6650   65.2959 H   0  0  0  0  0  0  0  0  0  0  0  0
  131.1990  124.3440   66.3440 H   0  0  0  0  0  0  0  0  0  0  0  0
  1  2  1  0
  2  3  2  0
  3  4  1  0
  3  5  1  0
  5  6  1  0
  6  7  1  0
  7  8  2  0
  8  9  1  0
  8 10  1  0
 10 11  2  0
 11 12  1  0
 12 13  1  0
 13 14  2  0
 13 15  1  0
 15 16  2  0
 16 17  1  0
 17 18  2  0
 18 19  1  0
 19 20  2  0
 20 21  1  0
 21 22  2  0
 12 23  2  0
 23 24  1  0
 11 25  1  0
 25 26  1  0
 26 27  1  0
 26 28  1  0
 26 29  1  0
 29 30  2  0
  5 31  2  0
 31 32  1  0
 31 33  1  0
 33 34  1  0
 34 35  1  1
 34 36  1  0
 36 37  1  0
 37 38  1  0
 37 39  1  0
 39 40  1  0
 40 41  2  0
 41 42  1  0
 42 43  1  0
 42 44  2  0
 44 45  1  0
 44 46  1  0
 46 47  2  0
 33 48  2  0
 48 49  1  0
 48  2  1  0
 23  7  1  0
 47 34  1  0
 30 10  1  0
 47 40  1  0
 22 17  1  0
  1 50  1  0
  1 51  1  0
  1 52  1  0
  4 53  1  0
  6 54  1  0
  6 55  1  0
 15 56  1  0
 16 57  1  0
 18 58  1  0
 19 59  1  0
 20 60  1  0
 21 61  1  0
 22 62  1  0
 27 63  1  0
 27 64  1  0
 27 65  1  0
 28 66  1  0
 28 67  1  0
 28 68  1  0
 29 69  1  0
 30 70  1  0
 32 71  1  0
 35 72  1  0
 35 73  1  0
 35 74  1  0
 36 75  1  0
 36 76  1  0
 37 77  1  1
 38 78  1  0
 38 79  1  0
 38 80  1  0
 39 81  1  0
 39 82  1  0
 41 83  1  0
 46 84  1  0
 49 85  1  0
M  CHG  3   9  -1  24  -1  36   1
M  END
>  <Binding energies>  (1) 
[-5.91]

>  <Ligand effiencies>  (1) 
[-0.10944444444444444]

>  <Interactions>  (1) 
["V-B:PRO:540:CA:9855, V-B:GLU:543:C:9874, H-A:GLU:543:OE2:4910, V-A:PRO:540:C:4881, V-B:GLU:543:CB:9878, V-B:ALA:541:CB:9864, V-B:TYR:539:CE2:9848, V-A:TYR:484:CE2:4346, V-A:LEU:475:CG:4257, V-B:GLU:543:CG:9879, V-B:TYR:539:C:9839, V-A:ASP:366:CG:3213, V-A:TYR:539:CD1:4873, V-B:TYR:539:CZ:9849, H-B:GLU:543:OE1:9881, V-A:ALA:541:CB:4892, V-A:TYR:539:CA:4869, V-A:LEU:475:CD1:4258, V-A:GLU:543:CD:4908, H-B:TYR:484:OH:9319, V-B:PRO:540:N:9856, V-A:HIS:456:CE1:4070, V-A:ALA:541:CA:4890, V-B:TYR:539:CD2:9846, V-A:GLU:543:CG:4907, V-B:GLU:543:CD:9880, V-A:TYR:539:C:4867, V-A:LEU:475:CD2:4259, V-A:ARG:545:CZ:4926, H-A:GLU:543:OE1:4909, V-B:TYR:539:CG:9844, H-B:ARG:545:NH2:9900, H-A:ASP:366:OD1:3214, V-A:PRO:540:N:4884, H-B:GLU:543:OE2:9882, V-A:PRO:540:CA:4883, V-B:PRO:540:C:9853, H-A:ASP:366:OD2:3215, V-B:ALA:541:CA:9862, V-A:TYR:539:CE1:4875, H-A:TYR:484:OH:4348"]

$$$$
ZINC587842631
     RDKit          3D

 68 71  0  0  0  0  0  0  0  0999 V2000
  126.8740  127.8170   73.2840 C   0  0  0  0  0  0  0  0  0  0  0  0
  128.1720  128.1470   74.0370 C   0  0  0  0  0  0  0  0  0  0  0  0
  129.3310  128.3550   73.1310 N   0  0  0  0  0  0  0  0  0  0  0  0
  129.5060  129.7000   72.5260 C   0  0  0  0  0  0  0  0  0  0  0  0
  129.2710  130.8120   73.5580 C   0  0  0  0  0  0  0  0  0  0  0  0
  129.8950  126.9610   72.1880 S   0  0  0  0  0  0  0  0  0  0  0  0
  131.3620  126.9810   72.1630 O   0  0  0  0  0  0  0  0  0  0  0  0
  129.1810  125.7730   72.6700 O   0  0  0  0  0  0  0  0  0  0  0  0
  129.3430  127.2870   70.5160 C   0  0  0  0  0  0  0  0  0  0  0  0
  130.2580  127.6730   69.5360 C   0  0  0  0  0  0  0  0  0  0  0  0
  129.8250  127.9000   68.2320 C   0  0  0  0  0  0  0  0  0  0  0  0
  128.4760  127.7470   67.8920 C   0  0  0  0  0  0  0  0  0  0  0  0
  128.0730  127.9780   66.5970 O   0  0  0  0  0  0  0  0  0  0  0  0
  128.7760  127.3640   65.5880 C   0  0  0  0  0  0  0  0  0  0  0  0
  129.4740  126.1850   65.8620 C   0  0  0  0  0  0  0  0  0  0  0  0
  130.1820  125.5360   64.8540 C   0  0  0  0  0  0  0  0  0  0  0  0
  130.1970  126.0550   63.5560 C   0  0  0  0  0  0  0  0  0  0  0  0
  130.9700  125.3440   62.4430 C   0  0  1  0  0  0  0  0  0  0  0  0
  132.3960  125.3320   62.7920 N   0  0  0  0  0  0  0  0  0  0  0  0
  133.1980  124.2980   62.1480 C   0  0  1  0  0  0  0  0  0  0  0  0
  134.6850  124.4040   62.5170 C   0  0  0  0  0  0  0  0  0  0  0  0
  132.6120  122.9290   62.5530 C   0  0  0  0  0  0  0  0  0  0  0  0
  131.1580  122.8120   62.1220 C   0  0  0  0  0  0  0  0  0  0  0  0
  130.6230  121.5720   61.7650 C   0  0  0  0  0  0  0  0  0  0  0  0
  129.3060  121.4560   61.3380 C   0  0  0  0  0  0  0  0  0  0  0  0
  128.5120  122.5920   61.2430 C   0  0  0  0  0  0  0  0  0  0  0  0
  127.2380  122.4750   60.8000 F   0  0  0  0  0  0  0  0  0  0  0  0
  129.0310  123.8420   61.5870 C   0  0  0  0  0  0  0  0  0  0  0  0
  127.9000  125.3650   61.3500 Br  0  0  0  0  0  0  0  0  0  0  0  0
  130.3540  123.9730   62.0630 C   0  0  0  0  0  0  0  0  0  0  0  0
  129.5000  127.2380   63.2850 C   0  0  0  0  0  0  0  0  0  0  0  0
  128.7730  127.8990   64.2920 C   0  0  0  0  0  0  0  0  0  0  0  0
  128.0430  129.0550   64.0870 O   0  0  0  0  0  0  0  0  0  0  0  0
  126.6490  128.9620   63.8180 C   0  0  0  0  0  0  0  0  0  0  0  0
  127.5440  127.3680   68.8770 C   0  0  0  0  0  0  0  0  0  0  0  0
  126.1060  127.2030   68.5630 N   0  0  0  0  0  0  0  0  0  0  0  0
  125.4690  126.3280   69.1430 O   0  0  0  0  0  0  0  0  0  0  0  0
  125.6110  127.9410   67.7170 O   0  0  0  0  0  0  0  0  0  0  0  0
  127.9960  127.1340   70.1830 C   0  0  0  0  0  0  0  0  0  0  0  0
  126.0716  127.6130   74.0083 H   0  0  0  0  0  0  0  0  0  0  0  0
  126.5892  128.6713   72.6523 H   0  0  0  0  0  0  0  0  0  0  0  0
  127.0318  126.9304   72.6523 H   0  0  0  0  0  0  0  0  0  0  0  0
  128.0145  129.0655   74.6215 H   0  0  0  0  0  0  0  0  0  0  0  0
  128.4073  127.2865   74.6806 H   0  0  0  0  0  0  0  0  0  0  0  0
  130.5302  129.7858   72.1340 H   0  0  0  0  0  0  0  0  0  0  0  0
  128.7685  129.8153   71.7180 H   0  0  0  0  0  0  0  0  0  0  0  0
  129.3590  130.3955   74.5723 H   0  0  0  0  0  0  0  0  0  0  0  0
  130.0215  131.6043   73.4206 H   0  0  0  0  0  0  0  0  0  0  0  0
  128.2641  131.2329   73.4206 H   0  0  0  0  0  0  0  0  0  0  0  0
  131.3202  127.7979   69.7931 H   0  0  0  0  0  0  0  0  0  0  0  0
  130.5500  128.2024   67.4620 H   0  0  0  0  0  0  0  0  0  0  0  0
  129.4641  125.7673   66.8796 H   0  0  0  0  0  0  0  0  0  0  0  0
  130.7321  124.6106   65.0800 H   0  0  0  0  0  0  0  0  0  0  0  0
  130.8799  125.9041   61.5006 H   0  0  0  0  0  0  0  0  0  0  0  0
  132.7860  126.2470   62.6150 H   0  0  0  0  0  0  0  0  0  0  0  0
  133.1533  124.4242   61.0562 H   0  0  0  0  0  0  0  0  0  0  0  0
  134.7915  124.4116   63.6118 H   0  0  0  0  0  0  0  0  0  0  0  0
  135.2282  123.5423   62.1017 H   0  0  0  0  0  0  0  0  0  0  0  0
  135.1004  125.3340   62.1017 H   0  0  0  0  0  0  0  0  0  0  0  0
  133.1957  122.1307   62.0714 H   0  0  0  0  0  0  0  0  0  0  0  0
  132.6627  122.8350   63.6478 H   0  0  0  0  0  0  0  0  0  0  0  0
  131.2544  120.6731   61.8229 H   0  0  0  0  0  0  0  0  0  0  0  0
  128.8942  120.4701   61.0766 H   0  0  0  0  0  0  0  0  0  0  0  0
  129.5209  127.6577   62.2684 H   0  0  0  0  0  0  0  0  0  0  0  0
  126.0941  128.9250   64.7671 H   0  0  0  0  0  0  0  0  0  0  0  0
  126.3278  129.8407   63.2395 H   0  0  0  0  0  0  0  0  0  0  0  0
  126.4474  128.0484   63.2395 H   0  0  0  0  0  0  0  0  0  0  0  0
  127.2784  126.8251   70.9573 H   0  0  0  0  0  0  0  0  0  0  0  0
  1  2  1  0
  2  3  1  0
  3  4  1  0
  4  5  1  0
  3  6  1  0
  6  7  2  0
  6  8  2  0
  6  9  1  0
  9 10  2  0
 10 11  1  0
 11 12  2  0
 12 13  1  0
 13 14  1  0
 14 15  2  0
 15 16  1  0
 16 17  2  0
 17 18  1  0
 18 19  1  0
 19 20  1  0
 20 21  1  0
 20 22  1  0
 22 23  1  0
 23 24  2  0
 24 25  1  0
 25 26  2  0
 26 27  1  0
 26 28  1  0
 28 29  1  0
 28 30  2  0
 17 31  1  0
 31 32  2  0
 32 33  1  0
 33 34  1  0
 12 35  1  0
 35 36  1  0
 36 37  2  0
 36 38  1  0
 35 39  2  0
 39  9  1  0
 32 14  1  0
 30 18  1  0
 30 23  1  0
  1 40  1  0
  1 41  1  0
  1 42  1  0
  2 43  1  0
  2 44  1  0
  4 45  1  0
  4 46  1  0
  5 47  1  0
  5 48  1  0
  5 49  1  0
 10 50  1  0
 11 51  1  0
 15 52  1  0
 16 53  1  0
 18 54  1  6
 19 55  1  0
 20 56  1  6
 21 57  1  0
 21 58  1  0
 21 59  1  0
 22 60  1  0
 22 61  1  0
 24 62  1  0
 25 63  1  0
 31 64  1  0
 34 65  1  0
 34 66  1  0
 34 67  1  0
 39 68  1  0
M  CHG  2  36   1  38  -1
M  END
>  <Binding energies>  (1) 
[-7.46]

>  <Ligand effiencies>  (1) 
[-0.1865]

>  <Interactions>  (1) 
["V-B:PRO:540:CA:9855, V-B:GLU:543:C:9874, V-B:HIS:456:CD2:9039, V-A:GLU:543:C:4902, V-B:GLU:543:CB:9878, H-B:LYS:547:NZ:9923, V-B:HIS:456:CB:9036, V-B:ALA:541:CB:9864, V-B:GLU:543:CG:9879, V-A:HIS:456:CD2:4068, H-B:HIS:456:ND1:9038, H-B:ARG:545:N:9892, H-B:ARG:545:NE:9896, V-B:LYS:547:CE:9922, V-B:ARG:545:CG:9894, V-A:GLU:543:CD:4908, V-B:PRO:540:CB:9857, V-B:HIS:456:CE1:9041, H-B:GLY:544:N:9887, V-A:GLY:453:C:4042, V-B:PRO:540:N:9856, V-A:HIS:456:CE1:4070, V-A:ILE:369:CD1:3239, V-B:GLY:544:C:9884, V-B:TYR:539:CD2:9846, V-A:GLU:543:CG:4907, V-B:GLU:543:CD:9880, V-B:HIS:456:CG:9037, H-A:LYS:547:NZ:4951, H-A:ARG:545:NH2:4928, V-A:LEU:475:CD2:4259, H-A:GLU:543:OE1:4909, V-A:ARG:545:CZ:4926, V-A:GLU:543:CB:4906, H-A:ASP:366:OD1:3214, V-A:GLY:453:CA:4044, V-A:LYS:547:CE:4950, V-B:PRO:540:C:9853, H-A:ASP:366:OD2:3215, H-A:HIS:456:ND1:4067"]

$$$$
ZINC587850422
     RDKit          3D

 38 41  0  0  0  0  0  0  0  0999 V2000
  130.0090  129.4050   57.3060 C   0  0  0  0  0  0  0  0  0  0  0  0
  129.6520  128.0180   57.8600 C   0  0  1  0  0  0  0  0  0  0  0  0
  129.3950  126.9870   56.7390 C   0  0  0  0  0  0  0  0  0  0  0  0
  129.0180  125.6550   57.3650 C   0  0  0  0  0  0  0  0  0  0  0  0
  127.9690  124.8740   56.8700 C   0  0  0  0  0  0  0  0  0  0  0  0
  127.6340  123.6630   57.4720 C   0  0  0  0  0  0  0  0  0  0  0  0
  126.2050  122.6220   56.7660 Br  0  0  0  0  0  0  0  0  0  0  0  0
  128.3510  123.2260   58.5840 C   0  0  0  0  0  0  0  0  0  0  0  0
  128.0430  122.0510   59.1790 F   0  0  0  0  0  0  0  0  0  0  0  0
  129.3920  124.0030   59.0840 C   0  0  0  0  0  0  0  0  0  0  0  0
  129.7390  125.2310   58.4970 C   0  0  0  0  0  0  0  0  0  0  0  0
  130.9080  126.1080   59.0090 C   0  0  2  0  0  0  0  0  0  0  0  0
  132.2190  125.8200   58.2150 C   0  0  0  0  0  0  0  0  0  0  0  0
  132.9370  124.5490   58.6700 C   0  0  0  0  0  0  0  0  0  0  0  0
  133.4700  124.7200   60.0970 C   0  0  0  0  0  0  0  0  0  0  0  0
  132.3750  125.2530   61.0150 C   0  0  0  0  0  0  0  0  0  0  0  0
  132.3850  125.1880   62.4080 C   0  0  0  0  0  0  0  0  0  0  0  0
  133.6090  124.5120   63.4090 Cl  0  0  0  0  0  0  0  0  0  0  0  0
  130.9880  125.8690   63.1460 S   0  0  0  0  0  0  0  0  0  0  0  0
  130.3570  126.2590   61.5890 C   0  0  0  0  0  0  0  0  0  0  0  0
  128.8050  127.0010   61.5070 Cl  0  0  0  0  0  0  0  0  0  0  0  0
  131.2000  125.9070   60.5220 C   0  0  0  0  0  0  0  0  0  0  0  0
  130.6100  127.5490   58.8690 N   0  0  0  0  0  0  0  0  0  0  0  0
  130.1875  130.0985   58.1410 H   0  0  0  0  0  0  0  0  0  0  0  0
  130.9174  129.3311   56.6901 H   0  0  0  0  0  0  0  0  0  0  0  0
  129.1778  129.7789   56.6901 H   0  0  0  0  0  0  0  0  0  0  0  0
  128.6955  128.1294   58.3916 H   0  0  0  0  0  0  0  0  0  0  0  0
  128.5735  127.3379   56.0972 H   0  0  0  0  0  0  0  0  0  0  0  0
  130.3038  126.8666   56.1310 H   0  0  0  0  0  0  0  0  0  0  0  0
  127.4009  125.2202   55.9940 H   0  0  0  0  0  0  0  0  0  0  0  0
  129.9559  123.6472   59.9589 H   0  0  0  0  0  0  0  0  0  0  0  0
  131.9657  125.7152   57.1497 H   0  0  0  0  0  0  0  0  0  0  0  0
  132.9019  126.6625   58.3987 H   0  0  0  0  0  0  0  0  0  0  0  0
  132.2317  123.7052   58.6449 H   0  0  0  0  0  0  0  0  0  0  0  0
  133.7823  124.3543   57.9936 H   0  0  0  0  0  0  0  0  0  0  0  0
  133.8159  123.7461   60.4735 H   0  0  0  0  0  0  0  0  0  0  0  0
  134.3032  125.4381   60.0823 H   0  0  0  0  0  0  0  0  0  0  0  0
  130.4020  127.9630   59.7660 H   0  0  0  0  0  0  0  0  0  0  0  0
  1  2  1  0
  2  3  1  0
  3  4  1  0
  4  5  2  0
  5  6  1  0
  6  7  1  0
  6  8  2  0
  8  9  1  0
  8 10  1  0
 10 11  2  0
 11 12  1  0
 12 13  1  0
 13 14  1  0
 14 15  1  0
 15 16  1  0
 16 17  2  0
 17 18  1  0
 17 19  1  0
 19 20  1  0
 20 21  1  0
 20 22  2  0
 12 23  1  1
 23  2  1  0
 11  4  1  0
 22 12  1  0
 22 16  1  0
  1 24  1  0
  1 25  1  0
  1 26  1  0
  2 27  1  1
  3 28  1  0
  3 29  1  0
  5 30  1  0
 10 31  1  0
 13 32  1  0
 13 33  1  0
 14 34  1  0
 14 35  1  0
 15 36  1  0
 15 37  1  0
 23 38  1  0
M  END
>  <Binding energies>  (1) 
[-6.97]

>  <Ligand effiencies>  (1) 
[-0.29041666666666666]

>  <Interactions>  (1) 
["V-A:ASP:366:CA:3210, V-B:PRO:540:CA:9855, V-B:TYR:539:CZ:9849, V-B:PRO:540:CD:9859, V-B:TYR:539:CD2:9846, V-A:MET:535:CE:4835, V-B:PRO:540:C:9853, H-A:TYR:531:OH:4795, H-A:ASP:366:OD2:3215, V-B:TYR:539:CE2:9848, V-B:PRO:540:CB:9857, V-A:ASP:366:CB:3212, V-A:ARG:545:CZ:4926, V-B:TYR:539:CG:9844, V-B:TYR:539:C:9839, V-A:ASP:366:CG:3213, V-B:PRO:540:N:9856"]

$$$$
ZINC587850422-again1
     RDKit          3D

 39 42  0  0  0  0  0  0  0  0999 V2000
  126.4000  124.0100   60.7370 C   0  0  0  0  0  0  0  0  0  0  0  0
  127.8930  124.1470   61.0740 C   0  0  1  0  0  0  0  0  0  0  0  0
  128.7380  124.8050   59.9690 C   0  0  0  0  0  0  0  0  0  0  0  0
  130.1800  124.8890   60.4360 C   0  0  0  0  0  0  0  0  0  0  0  0
  131.2400  124.5030   59.6080 C   0  0  0  0  0  0  0  0  0  0  0  0
  132.5570  124.5640   60.0540 C   0  0  0  0  0  0  0  0  0  0  0  0
  133.9740  124.0280   58.8990 Br  0  0  0  0  0  0  0  0  0  0  0  0
  132.8260  125.0180   61.3430 C   0  0  0  0  0  0  0  0  0  0  0  0
  134.0990  125.0930   61.7930 F   0  0  0  0  0  0  0  0  0  0  0  0
  131.7750  125.4010   62.1730 C   0  0  0  0  0  0  0  0  0  0  0  0
  130.4390  125.3330   61.7490 C   0  0  0  0  0  0  0  0  0  0  0  0
  129.2830  125.7890   62.6730 C   0  0  2  0  0  0  0  0  0  0  0  0
  128.9480  127.2910   62.4440 C   0  0  0  0  0  0  0  0  0  0  0  0
  128.0350  127.9130   63.5060 C   0  0  0  0  0  0  0  0  0  0  0  0
  128.7220  127.8970   64.8760 C   0  0  0  0  0  0  0  0  0  0  0  0
  129.2140  126.4910   65.2010 C   0  0  0  0  0  0  0  0  0  0  0  0
  129.4710  125.9950   66.4780 C   0  0  0  0  0  0  0  0  0  0  0  0
  129.2960  126.8270   67.9730 Cl  0  0  0  0  0  0  0  0  0  0  0  0
  130.0180  124.3640   66.4920 S   0  0  0  0  0  0  0  0  0  0  0  0
  129.9110  124.3130   64.7720 C   0  0  0  0  0  0  0  0  0  0  0  0
  130.3050  122.8370   63.9790 Cl  0  0  0  0  0  0  0  0  0  0  0  0
  129.4870  125.5170   64.1870 C   0  0  0  0  0  0  0  0  0  0  0  0
  127.9910  124.9700   62.3760 N   0  0  0  0  0  0  0  0  0  0  0  0
  125.8173  123.9565   61.6684 H   0  0  0  0  0  0  0  0  0  0  0  0
  126.0749  124.8821   60.1507 H   0  0  0  0  0  0  0  0  0  0  0  0
  126.2391  123.0933   60.1507 H   0  0  0  0  0  0  0  0  0  0  0  0
  128.3098  123.1349   61.1829 H   0  0  0  0  0  0  0  0  0  0  0  0
  128.6817  124.2004   59.0518 H   0  0  0  0  0  0  0  0  0  0  0  0
  128.3552  125.8146   59.7589 H   0  0  0  0  0  0  0  0  0  0  0  0
  131.0292  124.1459   58.5892 H   0  0  0  0  0  0  0  0  0  0  0  0
  131.9979  125.7660   63.1865 H   0  0  0  0  0  0  0  0  0  0  0  0
  129.8926  127.8546   62.4316 H   0  0  0  0  0  0  0  0  0  0  0  0
  128.3990  127.3451   61.4923 H   0  0  0  0  0  0  0  0  0  0  0  0
  127.8088  128.9524   63.2259 H   0  0  0  0  0  0  0  0  0  0  0  0
  127.1059  127.3272   63.5656 H   0  0  0  0  0  0  0  0  0  0  0  0
  129.5782  128.5874   64.8614 H   0  0  0  0  0  0  0  0  0  0  0  0
  127.9997  128.2113   65.6438 H   0  0  0  0  0  0  0  0  0  0  0  0
  127.8350  124.3380   63.1490 H   0  0  0  0  0  0  0  0  0  0  0  0
  127.2190  125.6210   62.3940 H   0  0  0  0  0  0  0  0  0  0  0  0
  1  2  1  0
  2  3  1  0
  3  4  1  0
  4  5  2  0
  5  6  1  0
  6  7  1  0
  6  8  2  0
  8  9  1  0
  8 10  1  0
 10 11  2  0
 11 12  1  0
 12 13  1  1
 13 14  1  0
 14 15  1  0
 15 16  1  0
 16 17  2  0
 17 18  1  0
 17 19  1  0
 19 20  1  0
 20 21  1  0
 20 22  2  0
 12 23  1  0
 23  2  1  0
 11  4  1  0
 22 12  1  0
 22 16  1  0
  1 24  1  0
  1 25  1  0
  1 26  1  0
  2 27  1  1
  3 28  1  0
  3 29  1  0
  5 30  1  0
 10 31  1  0
 13 32  1  0
 13 33  1  0
 14 34  1  0
 14 35  1  0
 15 36  1  0
 15 37  1  0
 23 38  1  0
 23 39  1  0
M  CHG  1  23   1
M  END
>  <Binding energies>  (1) 
[-7.63]

>  <Ligand effiencies>  (1) 
[-0.30519999999999997]

>  <Interactions>  (1) 
["V-A:ILE:369:CG2:3237, V-A:ASP:366:CA:3210, V-B:PRO:540:CA:9855, V-A:ILE:369:CB:3236, V-B:GLU:543:CB:9878, V-B:TYR:539:CE2:9848, V-A:TYR:484:CE2:4346, V-B:GLU:543:CG:9879, V-A:ASP:366:CG:3213, H-B:GLU:543:OE1:9881, V-A:GLU:543:CD:4908, V-B:PRO:540:CB:9857, V-A:TYR:484:CZ:4347, V-B:GLU:543:CA:9876, V-A:ILE:369:CD1:3239, V-A:HIS:456:CE1:4070, V-A:ASP:366:C:3208, V-A:GLU:543:CG:4907, V-B:GLU:543:CD:9880, V-A:ASP:366:CB:3212, V-A:LEU:475:CD2:4259, V-A:ARG:545:CZ:4926, H-B:GLU:543:OE2:9882"]

$$$$
ZINC587851008
     RDKit          3D

 43 45  0  0  0  0  0  0  0  0999 V2000
  132.9480  125.8510   57.1630 C   0  0  0  0  0  0  0  0  0  0  0  0
  132.2840  125.3020   58.4420 C   0  0  0  0  0  0  0  0  0  0  0  0
  131.1520  126.1910   59.0640 C   0  0  1  0  0  0  0  0  0  0  0  0
  131.2470  126.1060   60.6170 C   0  0  0  0  0  0  0  0  0  0  0  0
  130.2250  126.6600   61.4090 C   0  0  0  0  0  0  0  0  0  0  0  0
  130.2680  126.5920   62.8010 C   0  0  0  0  0  0  0  0  0  0  0  0
  131.3320  125.9580   63.4360 C   0  0  0  0  0  0  0  0  0  0  0  0
  132.3530  125.3880   62.6750 C   0  0  0  0  0  0  0  0  0  0  0  0
  133.7160  124.5560   63.4790 S   0  0  0  0  0  0  0  0  0  0  0  0
  134.9570  124.8200   62.7420 O   0  0  0  0  0  0  0  0  0  0  0  0
  133.6070  124.7240   64.9330 O   0  0  0  0  0  0  0  0  0  0  0  0
  133.2370  122.5060   63.0940 Cl  0  0  0  0  0  0  0  0  0  0  0  0
  132.3080  125.4620   61.2810 C   0  0  0  0  0  0  0  0  0  0  0  0
  131.4130  127.5820   58.6550 N   0  0  0  0  0  0  0  0  0  0  0  0
  130.3080  128.5050   58.8940 C   0  0  1  0  0  0  0  0  0  0  0  0
  130.7140  129.9720   58.6820 C   0  0  0  0  0  0  0  0  0  0  0  0
  129.1420  128.1030   57.9670 C   0  0  0  0  0  0  0  0  0  0  0  0
  128.8040  126.6210   58.0600 C   0  0  0  0  0  0  0  0  0  0  0  0
  127.5470  126.1640   57.6520 C   0  0  0  0  0  0  0  0  0  0  0  0
  127.2220  124.8110   57.6910 C   0  0  0  0  0  0  0  0  0  0  0  0
  125.5000  124.2330   57.1160 Br  0  0  0  0  0  0  0  0  0  0  0  0
  128.1620  123.8930   58.1470 C   0  0  0  0  0  0  0  0  0  0  0  0
  127.8680  122.5730   58.1960 F   0  0  0  0  0  0  0  0  0  0  0  0
  129.4130  124.3380   58.5650 C   0  0  0  0  0  0  0  0  0  0  0  0
  129.7650  125.7010   58.5400 C   0  0  0  0  0  0  0  0  0  0  0  0
  133.7688  126.5296   57.4383 H   0  0  0  0  0  0  0  0  0  0  0  0
  133.3467  125.0153   56.5692 H   0  0  0  0  0  0  0  0  0  0  0  0
  132.2021  126.3997   56.5692 H   0  0  0  0  0  0  0  0  0  0  0  0
  131.8477  124.3215   58.2005 H   0  0  0  0  0  0  0  0  0  0  0  0
  133.0819  125.2653   59.1983 H   0  0  0  0  0  0  0  0  0  0  0  0
  129.3743  127.1572   60.9201 H   0  0  0  0  0  0  0  0  0  0  0  0
  129.4600  127.0400   63.3981 H   0  0  0  0  0  0  0  0  0  0  0  0
  131.3678  125.9065   64.5342 H   0  0  0  0  0  0  0  0  0  0  0  0
  133.1175  125.0082   60.6905 H   0  0  0  0  0  0  0  0  0  0  0  0
  132.2510  127.9040   59.1160 H   0  0  0  0  0  0  0  0  0  0  0  0
  129.9981  128.4331   59.9470 H   0  0  0  0  0  0  0  0  0  0  0  0
  130.8490  130.4599   59.6586 H   0  0  0  0  0  0  0  0  0  0  0  0
  131.6574  130.0135   58.1178 H   0  0  0  0  0  0  0  0  0  0  0  0
  129.9262  130.4926   58.1178 H   0  0  0  0  0  0  0  0  0  0  0  0
  128.2521  128.6856   58.2474 H   0  0  0  0  0  0  0  0  0  0  0  0
  129.4527  128.3095   56.9322 H   0  0  0  0  0  0  0  0  0  0  0  0
  126.8004  126.8878   57.2932 H   0  0  0  0  0  0  0  0  0  0  0  0
  130.1480  123.6033   58.9254 H   0  0  0  0  0  0  0  0  0  0  0  0
  1  2  1  0
  3  2  1  6
  3  4  1  0
  4  5  2  0
  5  6  1  0
  6  7  2  0
  7  8  1  0
  8  9  1  0
  9 10  2  0
  9 11  2  0
  9 12  1  0
  8 13  2  0
  3 14  1  0
 14 15  1  0
 15 16  1  0
 15 17  1  0
 17 18  1  0
 18 19  2  0
 19 20  1  0
 20 21  1  0
 20 22  2  0
 22 23  1  0
 22 24  1  0
 24 25  2  0
 25  3  1  0
 13  4  1  0
 25 18  1  0
  1 26  1  0
  1 27  1  0
  1 28  1  0
  2 29  1  0
  2 30  1  0
  5 31  1  0
  6 32  1  0
  7 33  1  0
 13 34  1  0
 14 35  1  0
 15 36  1  1
 16 37  1  0
 16 38  1  0
 16 39  1  0
 17 40  1  0
 17 41  1  0
 19 42  1  0
 24 43  1  0
M  END
>  <Binding energies>  (1) 
[-7.13]

>  <Ligand effiencies>  (1) 
[-0.2742307692307692]

>  <Interactions>  (1) 
["V-A:ASP:366:CA:3210, V-B:PRO:540:CA:9855, V-A:GLY:454:CA:4049, H-A:TYR:531:OH:4795, H-A:ARG:545:NH1:4927, V-B:TYR:539:CE2:9848, V-B:TYR:539:C:9839, V-A:ASP:366:CG:3213, V-B:TYR:539:CZ:9849, V-B:TYR:531:CE2:9765, V-A:GLU:543:CD:4908, H-A:GLY:454:N:4050, V-B:PRO:540:N:9856, V-A:ASP:366:C:3208, V-B:TYR:539:CD2:9846, V-A:TYR:531:CZ:4794, V-A:ASP:366:CB:3212, V-A:LEU:475:CD2:4259, H-A:ARG:545:NH2:4928, V-A:ARG:545:CZ:4926, V-B:TYR:539:CG:9844, H-A:ASP:366:OD1:3214, V-B:LEU:363:CD1:8160, H-A:ARG:545:NE:4924, V-B:MET:535:CE:9807, H-A:ASP:366:OD2:3215, H-A:TYR:484:OH:4348"]

$$$$
ZINC587853093
     RDKit          3D

 45 48  0  0  0  0  0  0  0  0999 V2000
  131.0150  118.2220   60.0020 C   0  0  0  0  0  0  0  0  0  0  0  0
  131.2460  119.4650   60.8750 C   0  0  1  0  0  0  0  0  0  0  0  0
  132.4230  120.3140   60.3490 C   0  0  0  0  0  0  0  0  0  0  0  0
  132.6780  121.5120   61.2520 C   0  0  0  0  0  0  0  0  0  0  0  0
  133.9690  122.0250   61.4000 C   0  0  0  0  0  0  0  0  0  0  0  0
  134.2220  123.0960   62.2470 C   0  0  0  0  0  0  0  0  0  0  0  0
  133.1810  123.6560   62.9770 C   0  0  0  0  0  0  0  0  0  0  0  0
  133.4390  124.6810   63.8220 F   0  0  0  0  0  0  0  0  0  0  0  0
  131.8840  123.1520   62.8500 C   0  0  0  0  0  0  0  0  0  0  0  0
  130.5210  123.9190   63.9500 Br  0  0  0  0  0  0  0  0  0  0  0  0
  131.6020  122.0910   61.9610 C   0  0  0  0  0  0  0  0  0  0  0  0
  130.1780  121.4970   61.8060 C   0  0  1  0  0  0  0  0  0  0  0  0
  129.1200  122.5210   61.3850 C   0  0  0  0  0  0  0  0  0  0  0  0
  127.8590  122.5550   61.9920 C   0  0  0  0  0  0  0  0  0  0  0  0
  126.9110  123.4960   61.5950 C   0  0  0  0  0  0  0  0  0  0  0  0
  127.2190  124.4130   60.5910 C   0  0  0  0  0  0  0  0  0  0  0  0
  128.4710  124.4060   59.9750 C   0  0  0  0  0  0  0  0  0  0  0  0
  128.6880  125.3550   58.9940 O   0  0  0  0  0  0  0  0  0  0  0  0
  127.6440  125.6580   58.0730 C   0  0  0  0  0  0  0  0  0  0  0  0
  127.0860  124.3690   57.5100 C   0  0  0  0  0  0  0  0  0  0  0  0
  127.7660  123.3030   56.9180 C   0  0  0  0  0  0  0  0  0  0  0  0
  126.9450  122.2480   56.5080 C   0  0  0  0  0  0  0  0  0  0  0  0
  125.6100  122.4820   56.7820 C   0  0  0  0  0  0  0  0  0  0  0  0
  125.3770  124.0150   57.5490 S   0  0  0  0  0  0  0  0  0  0  0  0
  129.4200  123.4510   60.3830 C   0  0  0  0  0  0  0  0  0  0  0  0
  130.0690  120.3220   60.9320 N   0  0  0  0  0  0  0  0  0  0  0  0
  130.8522  117.3460   60.6471 H   0  0  0  0  0  0  0  0  0  0  0  0
  130.1307  118.3791   59.3670 H   0  0  0  0  0  0  0  0  0  0  0  0
  131.8967  118.0509   59.3670 H   0  0  0  0  0  0  0  0  0  0  0  0
  131.4725  119.0840   61.8818 H   0  0  0  0  0  0  0  0  0  0  0  0
  133.3287  119.6907   60.3141 H   0  0  0  0  0  0  0  0  0  0  0  0
  132.1685  120.6809   59.3437 H   0  0  0  0  0  0  0  0  0  0  0  0
  134.7986  121.5732   60.8364 H   0  0  0  0  0  0  0  0  0  0  0  0
  135.2414  123.4989   62.3395 H   0  0  0  0  0  0  0  0  0  0  0  0
  129.9736  121.1614   62.8334 H   0  0  0  0  0  0  0  0  0  0  0  0
  127.6151  121.8348   62.7869 H   0  0  0  0  0  0  0  0  0  0  0  0
  125.9206  123.5153   62.0733 H   0  0  0  0  0  0  0  0  0  0  0  0
  126.4653  125.1516   60.2805 H   0  0  0  0  0  0  0  0  0  0  0  0
  126.8453  126.2092   58.5909 H   0  0  0  0  0  0  0  0  0  0  0  0
  128.0416  126.2765   57.2549 H   0  0  0  0  0  0  0  0  0  0  0  0
  128.8579  123.2938   56.7850 H   0  0  0  0  0  0  0  0  0  0  0  0
  127.3190  121.3347   56.0222 H   0  0  0  0  0  0  0  0  0  0  0  0
  124.7973  121.7806   56.5421 H   0  0  0  0  0  0  0  0  0  0  0  0
  130.4119  123.4350   59.9078 H   0  0  0  0  0  0  0  0  0  0  0  0
  129.2520  119.7900   61.1960 H   0  0  0  0  0  0  0  0  0  0  0  0
  1  2  1  0
  2  3  1  0
  3  4  1  0
  4  5  2  0
  5  6  1  0
  6  7  2  0
  7  8  1  0
  7  9  1  0
  9 10  1  0
  9 11  2  0
 11 12  1  0
 12 13  1  0
 13 14  2  0
 14 15  1  0
 15 16  2  0
 16 17  1  0
 17 18  1  0
 18 19  1  0
 19 20  1  0
 20 21  2  0
 21 22  1  0
 22 23  2  0
 23 24  1  0
 17 25  2  0
 12 26  1  0
 26  2  1  0
 11  4  1  0
 25 13  1  0
 24 20  1  0
  1 27  1  0
  1 28  1  0
  1 29  1  0
  2 30  1  1
  3 31  1  0
  3 32  1  0
  5 33  1  0
  6 34  1  0
 12 35  1  1
 14 36  1  0
 15 37  1  0
 16 38  1  0
 19 39  1  0
 19 40  1  0
 21 41  1  0
 22 42  1  0
 23 43  1  0
 25 44  1  0
 26 45  1  0
M  END
>  <Binding energies>  (1) 
[-8.0]

>  <Ligand effiencies>  (1) 
[-0.2962962962962963]

>  <Interactions>  (1) 
["V-A:ILE:369:CG2:3237, V-B:TYR:539:CA:9841, V-B:PRO:540:CA:9855, V-A:GLY:454:CA:4049, V-B:TYR:539:CE1:9847, V-B:ALA:541:CB:9864, V-B:TYR:539:CE2:9848, V-B:TYR:539:C:9839, V-B:TYR:539:CZ:9849, V-B:TYR:539:CB:9843, V-B:PRO:540:CB:9857, V-B:PRO:540:N:9856, V-A:ILE:369:CD1:3239, V-B:TYR:539:CD2:9846, V-B:PRO:540:CD:9859, V-A:SER:385:CB:3409, V-B:GLU:543:CD:9880, V-A:LEU:475:CD2:4259, V-A:ARG:545:CZ:4926, V-B:TYR:539:CG:9844, V-B:TYR:539:CD1:9845, V-B:PRO:540:CG:9858, V-B:LEU:363:CD1:8160, H-B:TYR:539:O:9840, V-B:PRO:540:C:9853, V-B:MET:535:CE:9807, V-B:ALA:541:CA:9862, V-A:HIS:383:NE2:3394"]

$$$$
ZINC587854244
     RDKit          3D

 64 68  0  0  0  0  0  0  0  0999 V2000
  126.8610  123.4130   60.9780 C   0  0  0  0  0  0  0  0  0  0  0  0
  127.6910  122.3060   61.6530 C   0  0  2  0  0  0  0  0  0  0  0  0
  127.9670  122.5640   63.1490 C   0  0  0  0  0  0  0  0  0  0  0  0
  129.2700  123.3100   63.4190 C   0  0  0  0  0  0  0  0  0  0  0  0
  129.4850  123.8800   64.6790 C   0  0  0  0  0  0  0  0  0  0  0  0
  130.6850  124.5090   64.9960 C   0  0  0  0  0  0  0  0  0  0  0  0
  130.9280  125.2620   66.7280 Br  0  0  0  0  0  0  0  0  0  0  0  0
  131.6960  124.5770   64.0450 C   0  0  0  0  0  0  0  0  0  0  0  0
  132.8710  125.1830   64.3310 F   0  0  0  0  0  0  0  0  0  0  0  0
  131.4920  124.0250   62.7830 C   0  0  0  0  0  0  0  0  0  0  0  0
  130.2820  123.3970   62.4300 C   0  0  0  0  0  0  0  0  0  0  0  0
  130.0630  122.8390   60.9940 C   0  0  2  0  0  0  0  0  0  0  0  0
  131.3370  122.0130   60.6670 C   0  0  0  0  0  0  0  0  0  0  0  0
  131.5540  120.6780   60.6370 C   0  0  0  0  0  0  0  0  0  0  0  0
  130.6940  119.5470   60.9410 C   0  0  0  0  0  0  0  0  0  0  0  0
  130.6670  118.2490   60.4410 C   0  0  0  0  0  0  0  0  0  0  0  0
  129.6640  117.5540   61.1160 C   0  0  0  0  0  0  0  0  0  0  0  0
  129.1250  118.4490   62.0190 C   0  0  0  0  0  0  0  0  0  0  0  0
  129.7550  119.6450   61.9190 O   0  0  0  0  0  0  0  0  0  0  0  0
  129.8220  123.9040   59.8290 C   0  0  0  0  0  0  0  0  0  0  0  0
  130.6400  125.1440   60.0220 C   0  0  0  0  0  0  0  0  0  0  0  0
  130.3440  125.9720   60.8850 O   0  0  0  0  0  0  0  0  0  0  0  0
  131.7550  125.3520   59.0900 C   0  0  0  0  0  0  0  0  0  0  0  0
  133.0450  125.0010   59.2920 C   0  0  0  0  0  0  0  0  0  0  0  0
  133.6780  124.3070   60.4020 C   0  0  0  0  0  0  0  0  0  0  0  0
  134.2210  124.7250   61.6140 C   0  0  0  0  0  0  0  0  0  0  0  0
  134.6660  123.5880   62.2900 C   0  0  0  0  0  0  0  0  0  0  0  0
  134.3630  122.5150   61.4730 C   0  0  0  0  0  0  0  0  0  0  0  0
  133.7600  122.9510   60.3380 O   0  0  0  0  0  0  0  0  0  0  0  0
  129.0070  123.8380   58.7070 C   0  0  0  0  0  0  0  0  0  0  0  0
  128.0170  122.3810   58.3270 S   0  0  0  0  0  0  0  0  0  0  0  0
  126.5890  123.0100   57.3820 C   0  0  0  0  0  0  0  0  0  0  0  0
  125.8090  124.1630   58.0520 C   0  0  0  0  0  0  0  0  0  0  0  0
  126.1420  125.6090   57.6180 C   0  0  0  0  0  0  0  0  0  0  0  0
  127.5270  126.1530   58.0200 C   0  0  0  0  0  0  0  0  0  0  0  0
  128.9780  125.1850   57.4940 S   0  0  0  0  0  0  0  0  0  0  0  0
  128.9270  121.8950   60.9940 N   0  0  0  0  0  0  0  0  0  0  0  0
  126.3905  124.0405   61.7493 H   0  0  0  0  0  0  0  0  0  0  0  0
  127.5183  124.0335   60.3512 H   0  0  0  0  0  0  0  0  0  0  0  0
  126.0811  122.9560   60.3512 H   0  0  0  0  0  0  0  0  0  0  0  0
  127.0051  121.4534   61.5407 H   0  0  0  0  0  0  0  0  0  0  0  0
  127.1366  123.1593   63.5565 H   0  0  0  0  0  0  0  0  0  0  0  0
  128.0579  121.5793   63.6307 H   0  0  0  0  0  0  0  0  0  0  0  0
  128.6878  123.8296   65.4353 H   0  0  0  0  0  0  0  0  0  0  0  0
  132.3005  124.0812   62.0393 H   0  0  0  0  0  0  0  0  0  0  0  0
  132.2186  122.6209   60.4153 H   0  0  0  0  0  0  0  0  0  0  0  0
  132.5704  120.3964   60.3244 H   0  0  0  0  0  0  0  0  0  0  0  0
  131.3199  117.8435   59.6541 H   0  0  0  0  0  0  0  0  0  0  0  0
  129.3637  116.5072   60.9609 H   0  0  0  0  0  0  0  0  0  0  0  0
  128.3049  118.2244   62.7169 H   0  0  0  0  0  0  0  0  0  0  0  0
  131.5178  125.8413   58.1338 H   0  0  0  0  0  0  0  0  0  0  0  0
  133.7303  125.2885   58.4810 H   0  0  0  0  0  0  0  0  0  0  0  0
  134.2872  125.7625   61.9733 H   0  0  0  0  0  0  0  0  0  0  0  0
  135.1579  123.5529   63.2732 H   0  0  0  0  0  0  0  0  0  0  0  0
  134.5789  121.4624   61.7082 H   0  0  0  0  0  0  0  0  0  0  0  0
  126.9568  123.3689   56.4094 H   0  0  0  0  0  0  0  0  0  0  0  0
  125.8826  122.1704   57.3041 H   0  0  0  0  0  0  0  0  0  0  0  0
  124.7407  123.9976   57.8485 H   0  0  0  0  0  0  0  0  0  0  0  0
  126.1043  124.1175   59.1106 H   0  0  0  0  0  0  0  0  0  0  0  0
  126.0732  125.6515   56.5210 H   0  0  0  0  0  0  0  0  0  0  0  0
  125.4177  126.2435   58.1499 H   0  0  0  0  0  0  0  0  0  0  0  0
  127.6259  127.1604   57.5895 H   0  0  0  0  0  0  0  0  0  0  0  0
  127.5412  126.1161   59.1193 H   0  0  0  0  0  0  0  0  0  0  0  0
  128.7470  121.5550   60.0590 H   0  0  0  0  0  0  0  0  0  0  0  0
  1  2  1  0
  2  3  1  0
  3  4  1  0
  4  5  2  0
  5  6  1  0
  6  7  1  0
  6  8  2  0
  8  9  1  0
  8 10  1  0
 10 11  2  0
 11 12  1  0
 12 13  1  0
 13 14  2  0
 14 15  1  0
 15 16  2  0
 16 17  1  0
 17 18  2  0
 18 19  1  0
 12 20  1  6
 20 21  1  0
 21 22  2  0
 21 23  1  0
 23 24  2  0
 24 25  1  0
 25 26  2  0
 26 27  1  0
 27 28  2  0
 28 29  1  0
 20 30  2  3
 30 31  1  0
 31 32  1  0
 32 33  1  0
 33 34  1  0
 34 35  1  0
 35 36  1  0
 12 37  1  0
 37  2  1  0
 11  4  1  0
 19 15  1  0
 29 25  1  0
 36 30  1  0
  1 38  1  0
  1 39  1  0
  1 40  1  0
  2 41  1  1
  3 42  1  0
  3 43  1  0
  5 44  1  0
 10 45  1  0
 13 46  1  0
 14 47  1  0
 16 48  1  0
 17 49  1  0
 18 50  1  0
 23 51  1  0
 24 52  1  0
 26 53  1  0
 27 54  1  0
 28 55  1  0
 32 56  1  0
 32 57  1  0
 33 58  1  0
 33 59  1  0
 34 60  1  0
 34 61  1  0
 35 62  1  0
 35 63  1  0
 37 64  1  0
M  END
>  <Binding energies>  (1) 
[-6.85]

>  <Ligand effiencies>  (1) 
[-0.17124999999999999]

>  <Interactions>  (1) 
["V-A:ILE:369:CG2:3237, V-A:ASP:366:CA:3210, V-B:PRO:540:CA:9855, V-A:GLY:454:CA:4049, V-B:GLU:543:CB:9878, V-B:ALA:541:CB:9864, V-B:TYR:539:CE2:9848, V-A:TYR:484:CE2:4346, V-B:GLU:543:CG:9879, V-B:TYR:539:C:9839, V-A:ASP:366:CG:3213, V-B:TYR:539:CZ:9849, V-B:TYR:531:CZ:9766, H-B:TYR:539:OH:9850, H-B:ALA:541:N:9863, V-A:LEU:475:CD1:4258, V-B:TYR:539:CB:9843, V-A:TYR:484:CZ:4347, V-B:PRO:540:CB:9857, V-A:GLY:453:C:4042, V-B:PRO:540:N:9856, V-A:HIS:456:CE1:4070, V-A:ILE:369:CD1:3239, V-A:PRO:482:CB:4326, V-B:TYR:539:CD2:9846, V-B:GLU:543:CD:9880, V-A:ASP:366:CB:3212, V-A:LEU:475:CD2:4259, V-A:ARG:545:CZ:4926, V-A:PRO:482:CG:4327, V-A:GLY:453:CA:4044, H-B:TYR:539:O:9840, V-B:PRO:540:C:9853, V-B:ALA:541:CA:9862, V-A:HIS:383:NE2:3394"]

$$$$
ZINC587873036
     RDKit          3D

 32 35  0  0  0  0  0  0  0  0999 V2000
  134.0080  125.0260   63.9000 O   0  0  0  0  0  0  0  0  0  0  0  0
  133.0340  124.6900   63.2210 C   0  0  0  0  0  0  0  0  0  0  0  0
  133.1560  124.5980   61.7150 C   0  0  0  0  0  0  0  0  0  0  0  0
  134.3980  124.2960   61.1380 C   0  0  0  0  0  0  0  0  0  0  0  0
  134.5410  124.2160   59.7540 C   0  0  0  0  0  0  0  0  0  0  0  0
  133.4460  124.4480   58.9190 C   0  0  0  0  0  0  0  0  0  0  0  0
  133.6120  124.3650   57.5600 O   0  0  0  0  0  0  0  0  0  0  0  0
  132.2040  124.7690   59.4790 C   0  0  0  0  0  0  0  0  0  0  0  0
  131.1120  125.0140   58.6840 O   0  0  0  0  0  0  0  0  0  0  0  0
  132.0650  124.8460   60.8670 C   0  0  0  0  0  0  0  0  0  0  0  0
  131.7930  124.3650   63.8530 N   0  0  0  0  0  0  0  0  0  0  0  0
  131.1840  123.1330   63.6500 N   0  0  0  0  0  0  0  0  0  0  0  0
  129.8870  123.2980   64.1320 C   0  0  0  0  0  0  0  0  0  0  0  0
  130.1650  124.2330   65.0950 C   0  0  0  0  0  0  0  0  0  0  0  0
  130.8400  125.2240   64.4380 C   0  0  0  0  0  0  0  0  0  0  0  0
  130.1560  125.8490   63.4410 O   0  0  0  0  0  0  0  0  0  0  0  0
  129.2260  125.1550   62.7420 C   0  0  0  0  0  0  0  0  0  0  0  0
  128.4880  125.7530   61.7030 C   0  0  0  0  0  0  0  0  0  0  0  0
  127.5880  124.9570   60.9900 C   0  0  0  0  0  0  0  0  0  0  0  0
  127.4280  123.5990   61.2870 C   0  0  0  0  0  0  0  0  0  0  0  0
  126.5540  122.8590   60.5690 F   0  0  0  0  0  0  0  0  0  0  0  0
  128.1590  122.9940   62.3140 C   0  0  0  0  0  0  0  0  0  0  0  0
  129.0620  123.7780   63.0670 C   0  0  0  0  0  0  0  0  0  0  0  0
  135.2697  124.1202   61.7855 H   0  0  0  0  0  0  0  0  0  0  0  0
  135.5201  123.9692   59.3177 H   0  0  0  0  0  0  0  0  0  0  0  0
  134.5340  124.3460   57.2930 H   0  0  0  0  0  0  0  0  0  0  0  0
  131.3260  125.0520   57.7500 H   0  0  0  0  0  0  0  0  0  0  0  0
  131.0879  125.1043   61.3011 H   0  0  0  0  0  0  0  0  0  0  0  0
  129.9025  124.1945   66.1625 H   0  0  0  0  0  0  0  0  0  0  0  0
  128.6164  126.8179   61.4592 H   0  0  0  0  0  0  0  0  0  0  0  0
  126.9942  125.4061   60.1802 H   0  0  0  0  0  0  0  0  0  0  0  0
  128.0330  121.9233   62.5326 H   0  0  0  0  0  0  0  0  0  0  0  0
  1  2  2  0
  2  3  1  0
  3  4  2  0
  4  5  1  0
  5  6  2  0
  6  7  1  0
  6  8  1  0
  8  9  1  0
  8 10  2  0
  2 11  1  0
 11 12  1  0
 12 13  2  0
 13 14  1  0
 14 15  2  0
 15 16  1  0
 16 17  1  0
 17 18  2  0
 18 19  1  0
 19 20  2  0
 20 21  1  0
 20 22  1  0
 22 23  2  0
 10  3  1  0
 15 11  1  0
 23 17  1  0
 23 13  1  0
  4 24  1  0
  5 25  1  0
  7 26  1  0
  9 27  1  0
 10 28  1  0
 14 29  1  0
 18 30  1  0
 19 31  1  0
 22 32  1  0
M  END
>  <Binding energies>  (1) 
[-5.92]

>  <Ligand effiencies>  (1) 
[-0.2368]

>  <Interactions>  (1) 
["V-A:ILE:369:CG2:3237, V-A:ASP:366:CA:3210, V-B:PRO:540:CA:9855, V-A:ILE:369:CB:3236, V-B:ALA:541:CB:9864, H-A:ARG:545:NH1:4927, V-B:TYR:539:CE2:9848, V-A:TYR:484:CE2:4346, V-B:GLU:543:CG:9879, V-A:ASP:366:CG:3213, H-A:ASN:370:N:3244, H-B:TYR:539:OH:9850, V-B:PRO:540:CB:9857, H-A:GLY:454:N:4050, V-B:PRO:540:N:9856, V-A:ILE:369:CD1:3239, V-B:GLU:543:CD:9880, V-A:ILE:369:CG1:3238, V-A:ASP:366:CB:3212, H-A:ARG:545:NH2:4928, V-A:ARG:545:CZ:4926, H-A:ASP:366:O:3209, H-A:ARG:545:NE:4924, V-B:PRO:540:C:9853"]

$$$$
ZINC587873036-again1
     RDKit          3D

 31 34  0  0  0  0  0  0  0  0999 V2000
  131.8540  128.0900   68.4010 O   0  0  0  0  0  0  0  0  0  0  0  0
  130.9560  127.2930   68.6870 C   0  0  0  0  0  0  0  0  0  0  0  0
  130.1590  127.4690   69.9590 C   0  0  0  0  0  0  0  0  0  0  0  0
  129.0530  126.6460   70.2030 C   0  0  0  0  0  0  0  0  0  0  0  0
  128.2980  126.7970   71.3650 C   0  0  0  0  0  0  0  0  0  0  0  0
  128.6260  127.7800   72.3050 C   0  0  0  0  0  0  0  0  0  0  0  0
  127.9060  127.8800   73.3560 O   0  0  0  0  0  0  0  0  0  0  0  0
  129.7300  128.6250   72.0610 C   0  0  0  0  0  0  0  0  0  0  0  0
  130.1170  129.6240   72.9300 O   0  0  0  0  0  0  0  0  0  0  0  0
  130.4790  128.4620   70.8930 C   0  0  0  0  0  0  0  0  0  0  0  0
  130.6430  126.2060   67.8100 N   0  0  0  0  0  0  0  0  0  0  0  0
  131.5810  125.7090   66.9160 N   0  0  0  0  0  0  0  0  0  0  0  0
  130.8410  124.9120   66.0410 C   0  0  0  0  0  0  0  0  0  0  0  0
  129.8630  124.5300   66.9230 C   0  0  0  0  0  0  0  0  0  0  0  0
  129.3800  125.7000   67.4410 C   0  0  0  0  0  0  0  0  0  0  0  0
  128.8200  126.5590   66.5470 O   0  0  0  0  0  0  0  0  0  0  0  0
  129.2800  126.5810   65.2730 C   0  0  0  0  0  0  0  0  0  0  0  0
  128.7340  127.4500   64.3080 C   0  0  0  0  0  0  0  0  0  0  0  0
  129.3030  127.4580   63.0320 C   0  0  0  0  0  0  0  0  0  0  0  0
  130.3910  126.6360   62.7180 C   0  0  0  0  0  0  0  0  0  0  0  0
  130.9200  126.6800   61.4740 F   0  0  0  0  0  0  0  0  0  0  0  0
  130.9430  125.7730   63.6690 C   0  0  0  0  0  0  0  0  0  0  0  0
  130.3770  125.7280   64.9620 C   0  0  0  0  0  0  0  0  0  0  0  0
  128.7772  125.8729   69.4708 H   0  0  0  0  0  0  0  0  0  0  0  0
  127.4364  126.1372   71.5446 H   0  0  0  0  0  0  0  0  0  0  0  0
  130.1620  130.4860   72.5110 H   0  0  0  0  0  0  0  0  0  0  0  0
  131.3356  129.1257   70.7037 H   0  0  0  0  0  0  0  0  0  0  0  0
  129.5381  123.5066   67.1617 H   0  0  0  0  0  0  0  0  0  0  0  0
  127.8837  128.1038   64.5522 H   0  0  0  0  0  0  0  0  0  0  0  0
  128.8881  128.1227   62.2600 H   0  0  0  0  0  0  0  0  0  0  0  0
  131.8049  125.1388   63.4142 H   0  0  0  0  0  0  0  0  0  0  0  0
  1  2  2  0
  2  3  1  0
  3  4  2  0
  4  5  1  0
  5  6  2  0
  6  7  1  0
  6  8  1  0
  8  9  1  0
  8 10  2  0
  2 11  1  0
 11 12  1  0
 12 13  2  0
 13 14  1  0
 14 15  2  0
 15 16  1  0
 16 17  1  0
 17 18  2  0
 18 19  1  0
 19 20  2  0
 20 21  1  0
 20 22  1  0
 22 23  2  0
 10  3  1  0
 15 11  1  0
 23 17  1  0
 23 13  1  0
  4 24  1  0
  5 25  1  0
  9 26  1  0
 10 27  1  0
 14 28  1  0
 18 29  1  0
 19 30  1  0
 22 31  1  0
M  CHG  1   7  -1
M  END
>  <Binding energies>  (1) 
[-6.02]

>  <Ligand effiencies>  (1) 
[-0.2508333333333333]

>  <Interactions>  (1) 
["V-B:GLU:543:C:9874, V-B:HIS:456:CD2:9039, V-A:GLU:543:C:4902, V-B:GLU:543:CB:9878, H-B:LYS:547:NZ:9923, V-A:TYR:484:CE2:4346, V-A:GLY:544:CA:4914, V-B:GLU:543:CG:9879, V-A:GLY:544:C:4912, H-A:ARG:545:N:4920, V-A:TYR:484:CZ:4347, V-A:GLU:543:CD:4908, V-A:ARG:545:CG:4922, V-B:GLU:543:CA:9876, V-A:HIS:456:CE1:4070, V-B:GLU:543:CD:9880, H-A:LYS:547:NZ:4951, V-A:GLU:543:CB:4906, H-A:GLY:544:O:4913, H-A:TYR:484:OH:4348, H-A:GLU:543:O:4903"]

$$$$
ZINC587896886
     RDKit          3D

 39 40  0  0  0  0  0  0  0  0999 V2000
  130.2730  132.8900   57.2330 O   0  0  0  0  0  0  0  0  0  0  0  0
  129.7000  132.2680   58.1290 C   0  0  0  0  0  0  0  0  0  0  0  0
  128.8460  133.0210   59.1600 C   0  0  0  0  0  0  0  0  0  0  0  0
  128.5950  132.1950   60.4250 C   0  0  0  0  0  0  0  0  0  0  0  0
  129.5140  132.2780   61.4780 C   0  0  0  0  0  0  0  0  0  0  0  0
  129.3250  131.5450   62.6490 C   0  0  0  0  0  0  0  0  0  0  0  0
  128.2050  130.7250   62.7840 C   0  0  0  0  0  0  0  0  0  0  0  0
  127.9700  129.8170   64.2340 Cl  0  0  0  0  0  0  0  0  0  0  0  0
  127.2740  130.6440   61.7500 C   0  0  0  0  0  0  0  0  0  0  0  0
  127.4570  131.3760   60.5750 C   0  0  0  0  0  0  0  0  0  0  0  0
  126.2490  131.2490   59.3400 Cl  0  0  0  0  0  0  0  0  0  0  0  0
  129.7930  130.9330   58.2820 N   0  0  0  0  0  0  0  0  0  0  0  0
  130.6520  130.0410   57.5000 C   0  0  0  0  0  0  0  0  0  0  0  0
  131.0420  128.8380   58.2600 C   0  0  0  0  0  0  0  0  0  0  0  0
  131.3320  127.8810   58.9590 C   0  0  0  0  0  0  0  0  0  0  0  0
  131.6370  126.7620   59.8540 C   0  0  0  0  0  0  0  0  0  0  0  0
  131.1910  126.8710   61.1740 C   0  0  0  0  0  0  0  0  0  0  0  0
  131.4220  125.8570   62.1020 C   0  0  0  0  0  0  0  0  0  0  0  0
  130.7570  126.1090   63.8720 Br  0  0  0  0  0  0  0  0  0  0  0  0
  132.1190  124.7040   61.7120 C   0  0  0  0  0  0  0  0  0  0  0  0
  132.4490  123.3550   62.8540 S   0  0  0  0  0  0  0  0  0  0  0  0
  133.3980  123.7960   63.8840 O   0  0  0  0  0  0  0  0  0  0  0  0
  131.1910  122.6780   63.1920 O   0  0  0  0  0  0  0  0  0  0  0  0
  133.5490  121.9870   61.6280 Cl  0  0  0  0  0  0  0  0  0  0  0  0
  132.5650  124.5880   60.3920 C   0  0  0  0  0  0  0  0  0  0  0  0
  132.3380  125.6010   59.4500 C   0  0  0  0  0  0  0  0  0  0  0  0
  132.8500  125.3970   58.0580 C   0  0  0  0  0  0  0  0  0  0  0  0
  132.4780  126.2170   57.1880 O   0  0  0  0  0  0  0  0  0  0  0  0
  133.6190  124.4280   57.8690 O   0  0  0  0  0  0  0  0  0  0  0  0
  129.3672  133.9480   59.4410 H   0  0  0  0  0  0  0  0  0  0  0  0
  127.8703  133.2315   58.6978 H   0  0  0  0  0  0  0  0  0  0  0  0
  130.3953  132.9290   61.3804 H   0  0  0  0  0  0  0  0  0  0  0  0
  130.0587  131.6135   63.4657 H   0  0  0  0  0  0  0  0  0  0  0  0
  126.3895  129.9994   61.8602 H   0  0  0  0  0  0  0  0  0  0  0  0
  129.2950  130.5050   59.0490 H   0  0  0  0  0  0  0  0  0  0  0  0
  130.1090  129.7286   56.5958 H   0  0  0  0  0  0  0  0  0  0  0  0
  131.5691  130.5922   57.2448 H   0  0  0  0  0  0  0  0  0  0  0  0
  130.6471  127.7746   61.4866 H   0  0  0  0  0  0  0  0  0  0  0  0
  133.1065  123.6809   60.0856 H   0  0  0  0  0  0  0  0  0  0  0  0
  1  2  2  0
  2  3  1  0
  3  4  1  0
  4  5  2  0
  5  6  1  0
  6  7  2  0
  7  8  1  0
  7  9  1  0
  9 10  2  0
 10 11  1  0
  2 12  1  0
 12 13  1  0
 13 14  1  0
 14 15  3  0
 15 16  1  0
 16 17  2  0
 17 18  1  0
 18 19  1  0
 18 20  2  0
 20 21  1  0
 21 22  2  0
 21 23  2  0
 21 24  1  0
 20 25  1  0
 25 26  2  0
 26 27  1  0
 27 28  2  0
 27 29  1  0
 10  4  1  0
 26 16  1  0
  3 30  1  0
  3 31  1  0
  5 32  1  0
  6 33  1  0
  9 34  1  0
 12 35  1  0
 13 36  1  0
 13 37  1  0
 17 38  1  0
 25 39  1  0
M  CHG  1  29  -1
M  END
>  <Binding energies>  (1) 
[-6.78]

>  <Ligand effiencies>  (1) 
[-0.226]

>  <Interactions>  (1) 
["V-A:ILE:369:CG2:3237, V-A:ASP:366:CA:3210, H-A:TYR:531:OH:4795, V-A:ASP:366:CG:3213, V-A:TYR:539:CD1:4873, V-B:TYR:539:CZ:9849, H-B:TYR:539:OH:9850, V-A:GLU:543:CD:4908, H-A:GLY:454:N:4050, V-A:ILE:369:CD1:3239, V-A:ASP:366:C:3208, V-A:GLU:543:CG:4907, V-A:TYR:539:C:4867, V-A:ASP:366:CB:3212, V-A:LEU:475:CD2:4259, V-A:PRO:540:N:4884, H-A:TYR:539:N:4870, V-A:PRO:540:CA:4883, V-A:TYR:539:CE1:4875, H-A:TYR:484:OH:4348"]

$$$$
ZINC587935520
     RDKit          3D

100106  0  0  0  0  0  0  0  0999 V2000
  129.8180  126.4010   59.3530 C   0  0  0  0  0  0  0  0  0  0  0  0
  130.0160  127.6960   60.1870 C   0  0  0  0  0  0  0  0  0  0  0  0
  131.3530  128.3830   59.7930 C   0  0  0  0  0  0  0  0  0  0  0  0
  128.8770  128.7240   59.8760 C   0  0  1  0  0  0  0  0  0  0  0  0
  128.8100  128.9560   58.4650 O   0  0  0  0  0  0  0  0  0  0  0  0
  128.2800  130.1230   58.0060 C   0  0  0  0  0  0  0  0  0  0  0  0
  127.0320  130.4510   57.6510 C   0  0  0  0  0  0  0  0  0  0  0  0
  127.0720  131.8850   57.2390 C   0  0  0  0  0  0  0  0  0  0  0  0
  128.5390  132.2610   57.4180 C   0  0  0  0  0  0  0  0  0  0  0  0
  129.0230  133.3670   57.1790 O   0  0  0  0  0  0  0  0  0  0  0  0
  129.1650  131.1500   57.8780 N   0  0  0  0  0  0  0  0  0  0  0  0
  130.5390  131.0760   58.1660 C   0  0  0  0  0  0  0  0  0  0  0  0
  131.4060  130.6180   57.1690 C   0  0  0  0  0  0  0  0  0  0  0  0
  132.7720  130.5120   57.4260 C   0  0  0  0  0  0  0  0  0  0  0  0
  133.2760  130.8550   58.6780 C   0  0  0  0  0  0  0  0  0  0  0  0
  132.4180  131.3070   59.6820 C   0  0  0  0  0  0  0  0  0  0  0  0
  133.1530  131.7500   61.3860 Br  0  0  0  0  0  0  0  0  0  0  0  0
  131.0420  131.4230   59.4350 C   0  0  0  0  0  0  0  0  0  0  0  0
  130.1410  131.8820   60.5030 N   0  0  0  0  0  0  0  0  0  0  0  0
  129.8760  131.0920   61.4020 O   0  0  0  0  0  0  0  0  0  0  0  0
  129.7080  133.0270   60.4270 O   0  0  0  0  0  0  0  0  0  0  0  0
  127.4830  128.2700   60.3700 C   0  0  0  0  0  0  0  0  0  0  0  0
  127.4910  128.0010   61.8930 C   0  0  0  0  0  0  0  0  0  0  0  0
  128.6120  127.0040   62.3840 C   0  0  1  0  0  0  0  0  0  0  0  0
  128.1170  125.6040   61.8920 C   0  0  0  0  0  0  0  0  0  0  0  0
  130.0000  127.4460   61.7500 C   0  0  1  0  0  0  0  0  0  0  0  0
  131.2120  126.6490   62.3230 C   0  0  0  0  0  0  0  0  0  0  0  0
  131.2510  126.6050   63.8750 C   0  0  0  0  0  0  0  0  0  0  0  0
  129.9420  126.0410   64.5530 C   0  0  2  0  0  0  0  0  0  0  0  0
  129.8330  124.5410   64.1070 C   0  0  0  0  0  0  0  0  0  0  0  0
  128.7770  126.9810   63.9860 C   0  0  1  0  0  0  0  0  0  0  0  0
  128.9530  128.3920   64.6410 C   0  0  0  0  0  0  0  0  0  0  0  0
  129.0120  129.4700   64.0540 O   0  0  0  0  0  0  0  0  0  0  0  0
  129.0250  128.3970   66.0700 C   0  0  0  0  0  0  0  0  0  0  0  0
  129.4790  127.3750   66.8170 C   0  0  0  0  0  0  0  0  0  0  0  0
  129.3110  127.4560   68.3570 C   0  0  2  0  0  0  0  0  0  0  0  0
  130.6200  127.6000   69.1880 C   0  0  0  0  0  0  0  0  0  0  0  0
  130.3530  127.8740   70.7040 C   0  0  1  0  0  0  0  0  0  0  0  0
  131.7070  127.9350   71.4570 C   0  0  0  0  0  0  0  0  0  0  0  0
  129.5740  129.2220   70.9460 C   0  0  0  0  0  0  0  0  0  0  0  0
  129.5320  129.7020   72.1040 O   0  0  0  0  0  0  0  0  0  0  0  0
  129.0870  129.8150   69.9540 O   0  0  0  0  0  0  0  0  0  0  0  0
  129.5560  126.6140   71.1910 C   0  0  0  0  0  0  0  0  0  0  0  0
  128.2320  126.3480   70.4210 C   0  0  0  0  0  0  0  0  0  0  0  0
  128.3360  126.3390   68.8560 C   0  0  1  0  0  0  0  0  0  0  0  0
  126.9000  126.5930   68.3070 C   0  0  0  0  0  0  0  0  0  0  0  0
  128.8740  124.9770   68.3560 C   0  0  0  0  0  0  0  0  0  0  0  0
  129.0410  124.9230   66.8170 C   0  0  0  0  0  0  0  0  0  0  0  0
  129.9820  126.0260   66.1890 C   0  0  1  0  0  0  0  0  0  0  0  0
  131.4450  125.7350   66.6530 C   0  0  0  0  0  0  0  0  0  0  0  0
  129.6871  125.5447   60.0309 H   0  0  0  0  0  0  0  0  0  0  0  0
  128.9255  126.5063   58.7187 H   0  0  0  0  0  0  0  0  0  0  0  0
  130.7012  126.2348   58.7187 H   0  0  0  0  0  0  0  0  0  0  0  0
  131.9024  128.6653   60.7032 H   0  0  0  0  0  0  0  0  0  0  0  0
  131.9620  127.6862   59.1984 H   0  0  0  0  0  0  0  0  0  0  0  0
  131.1411  129.2839   59.1984 H   0  0  0  0  0  0  0  0  0  0  0  0
  129.1341  129.6437   60.4219 H   0  0  0  0  0  0  0  0  0  0  0  0
  126.1504  129.7933   57.6609 H   0  0  0  0  0  0  0  0  0  0  0  0
  126.7602  132.0026   56.1907 H   0  0  0  0  0  0  0  0  0  0  0  0
  126.3905  132.5200   57.8241 H   0  0  0  0  0  0  0  0  0  0  0  0
  131.0097  130.3411   56.1809 H   0  0  0  0  0  0  0  0  0  0  0  0
  133.4529  130.1568   56.6385 H   0  0  0  0  0  0  0  0  0  0  0  0
  134.3545  130.7694   58.8766 H   0  0  0  0  0  0  0  0  0  0  0  0
  126.7491  129.0590   60.1486 H   0  0  0  0  0  0  0  0  0  0  0  0
  127.2163  127.3368   59.8523 H   0  0  0  0  0  0  0  0  0  0  0  0
  127.6373  128.9613   62.4092 H   0  0  0  0  0  0  0  0  0  0  0  0
  126.5281  127.5238   62.1279 H   0  0  0  0  0  0  0  0  0  0  0  0
  127.8922  124.9683   62.7611 H   0  0  0  0  0  0  0  0  0  0  0  0
  127.2086  125.7290   61.2844 H   0  0  0  0  0  0  0  0  0  0  0  0
  128.9021  125.1302   61.2844 H   0  0  0  0  0  0  0  0  0  0  0  0
  130.1411  128.4757   62.1103 H   0  0  0  0  0  0  0  0  0  0  0  0
  131.1579  125.6166   61.9473 H   0  0  0  0  0  0  0  0  0  0  0  0
  132.1239  127.1679   61.9925 H   0  0  0  0  0  0  0  0  0  0  0  0
  132.0953  125.9685   64.1784 H   0  0  0  0  0  0  0  0  0  0  0  0
  131.3508  127.6472   64.2125 H   0  0  0  0  0  0  0  0  0  0  0  0
  129.7862  123.8963   64.9970 H   0  0  0  0  0  0  0  0  0  0  0  0
  128.9224  124.4025   63.5056 H   0  0  0  0  0  0  0  0  0  0  0  0
  130.7140  124.2723   63.5056 H   0  0  0  0  0  0  0  0  0  0  0  0
  127.8080  126.5498   64.2776 H   0  0  0  0  0  0  0  0  0  0  0  0
  128.6846  129.3016   66.5952 H   0  0  0  0  0  0  0  0  0  0  0  0
  128.8405  128.4295   68.5594 H   0  0  0  0  0  0  0  0  0  0  0  0
  131.1978  126.6685   69.0964 H   0  0  0  0  0  0  0  0  0  0  0  0
  131.1702  128.4648   68.7888 H   0  0  0  0  0  0  0  0  0  0  0  0
  131.5240  127.9268   72.5416 H   0  0  0  0  0  0  0  0  0  0  0  0
  132.3192  127.0635   71.1818 H   0  0  0  0  0  0  0  0  0  0  0  0
  132.2384  128.8580   71.1818 H   0  0  0  0  0  0  0  0  0  0  0  0
  130.2035  125.7324   71.0747 H   0  0  0  0  0  0  0  0  0  0  0  0
  129.2748  126.8081   72.2366 H   0  0  0  0  0  0  0  0  0  0  0  0
  127.8495  125.3667   70.7384 H   0  0  0  0  0  0  0  0  0  0  0  0
  127.5704  127.1910   70.6691 H   0  0  0  0  0  0  0  0  0  0  0  0
  126.2023  126.7164   69.1484 H   0  0  0  0  0  0  0  0  0  0  0  0
  126.8984  127.5054   67.6925 H   0  0  0  0  0  0  0  0  0  0  0  0
  126.5856  125.7365   67.6925 H   0  0  0  0  0  0  0  0  0  0  0  0
  129.8535  124.7941   68.8219 H   0  0  0  0  0  0  0  0  0  0  0  0
  128.1379  124.2087   68.6353 H   0  0  0  0  0  0  0  0  0  0  0  0
  129.4552  123.9378   66.5567 H   0  0  0  0  0  0  0  0  0  0  0  0
  128.0403  125.1114   66.4008 H   0  0  0  0  0  0  0  0  0  0  0  0
  131.4863  125.7268   67.7522 H   0  0  0  0  0  0  0  0  0  0  0  0
  131.7642  124.7558   66.2668 H   0  0  0  0  0  0  0  0  0  0  0  0
  132.1147  126.5175   66.2668 H   0  0  0  0  0  0  0  0  0  0  0  0
  1  2  1  0
  2  3  1  0
  2  4  1  0
  4  5  1  0
  5  6  1  0
  6  7  2  0
  7  8  1  0
  8  9  1  0
  9 10  2  0
  9 11  1  0
 11 12  1  0
 12 13  2  0
 13 14  1  0
 14 15  2  0
 15 16  1  0
 16 17  1  0
 16 18  2  0
 18 19  1  0
 19 20  2  0
 19 21  1  0
  4 22  1  0
 22 23  1  0
 23 24  1  0
 24 25  1  6
 24 26  1  0
 26 27  1  0
 27 28  1  0
 28 29  1  0
 29 30  1  6
 29 31  1  0
 31 32  1  0
 32 33  2  0
 32 34  1  0
 34 35  2  0
 35 36  1  0
 36 37  1  0
 37 38  1  0
 38 39  1  1
 38 40  1  0
 40 41  2  0
 40 42  1  0
 38 43  1  0
 43 44  1  0
 44 45  1  0
 45 46  1  6
 45 47  1  0
 47 48  1  0
 48 49  1  0
 49 50  1  6
 26  2  1  0
 49 29  1  0
 11  6  1  0
 18 12  1  0
 31 24  1  0
 49 35  1  0
 45 36  1  0
  1 51  1  0
  1 52  1  0
  1 53  1  0
  3 54  1  0
  3 55  1  0
  3 56  1  0
  4 57  1  1
  7 58  1  0
  8 59  1  0
  8 60  1  0
 13 61  1  0
 14 62  1  0
 15 63  1  0
 22 64  1  0
 22 65  1  0
 23 66  1  0
 23 67  1  0
 25 68  1  0
 25 69  1  0
 25 70  1  0
 26 71  1  1
 27 72  1  0
 27 73  1  0
 28 74  1  0
 28 75  1  0
 30 76  1  0
 30 77  1  0
 30 78  1  0
 31 79  1  1
 34 80  1  0
 36 81  1  6
 37 82  1  0
 37 83  1  0
 39 84  1  0
 39 85  1  0
 39 86  1  0
 43 87  1  0
 43 88  1  0
 44 89  1  0
 44 90  1  0
 46 91  1  0
 46 92  1  0
 46 93  1  0
 47 94  1  0
 47 95  1  0
 48 96  1  0
 48 97  1  0
 50 98  1  0
 50 99  1  0
 50100  1  0
M  CHG  3  19   1  21  -1  42  -1
M  END
>  <Binding energies>  (1) 
[7.33]

>  <Ligand effiencies>  (1) 
[0.1466]

>  <Interactions>  (1) 
["V-A:ARG:545:CA:4919, V-B:GLU:543:C:9874, V-B:HIS:456:CD2:9039, V-A:GLU:543:C:4902, H-A:ALA:541:N:4891, V-B:GLU:543:CB:9878, V-A:TYR:484:CE2:4346, V-A:GLY:544:CA:4914, V-B:GLU:543:CG:9879, V-A:GLY:544:C:4912, V-A:HIS:456:CD2:4068, V-A:ASP:366:CG:3213, V-A:ASN:362:CB:3176, V-A:TYR:539:CD1:4873, V-A:LEU:363:CD1:3189, V-A:TYR:539:CZ:4877, V-A:TYR:531:CE2:4793, V-B:ARG:545:CG:9894, V-A:GLU:543:CD:4908, V-B:GLU:543:CA:9876, V-B:HIS:456:CE1:9041, V-A:HIS:456:CE1:4070, V-A:GLU:543:CG:4907, V-A:TYR:531:CZ:4794, V-B:GLU:543:CD:9880, V-A:ASP:366:CB:3212, V-A:ARG:545:CZ:4926, V-A:GLU:543:CB:4906, H-A:TYR:539:N:4870, V-A:PRO:540:CB:4885, V-A:PRO:540:CA:4883, V-A:LEU:363:CA:3185, V-A:TYR:539:CE1:4875"]

$$$$
ZINC587941976
     RDKit          3D

103109  0  0  0  0  0  0  0  0999 V2000
  129.5880  122.3920   59.7180 C   0  0  0  0  0  0  0  0  0  0  0  0
  128.8820  122.9200   60.9970 C   0  0  0  0  0  0  0  0  0  0  0  0
  127.4750  122.2730   61.1330 C   0  0  0  0  0  0  0  0  0  0  0  0
  129.6910  122.5170   62.2770 C   0  0  1  0  0  0  0  0  0  0  0  0
  129.9030  121.1020   62.3210 O   0  0  0  0  0  0  0  0  0  0  0  0
  129.5000  120.3550   61.2080 C   0  0  2  0  0  0  0  0  0  0  0  0
  128.7610  119.1210   61.6130 C   0  0  0  0  0  0  0  0  0  0  0  0
  129.4750  118.0250   61.3120 C   0  0  0  0  0  0  0  0  0  0  0  0
  130.7140  118.4240   60.6890 C   0  0  0  0  0  0  0  0  0  0  0  0
  131.6350  117.6940   60.3170 O   0  0  0  0  0  0  0  0  0  0  0  0
  130.6280  119.7660   60.5890 N   0  0  0  0  0  0  0  0  0  0  0  0
  131.7110  120.5330   60.1160 N   0  0  0  0  0  0  0  0  0  0  0  0
  132.1930  121.4990   61.1020 C   0  0  0  0  0  0  0  0  0  0  0  0
  133.0420  122.6140   60.4930 C   0  0  0  0  0  0  0  0  0  0  0  0
  132.9930  122.8250   59.1110 C   0  0  0  0  0  0  0  0  0  0  0  0
  133.7620  123.8260   58.5190 C   0  0  0  0  0  0  0  0  0  0  0  0
  134.5870  124.6260   59.3080 C   0  0  0  0  0  0  0  0  0  0  0  0
  134.6410  124.4260   60.6860 C   0  0  0  0  0  0  0  0  0  0  0  0
  133.8710  123.4270   61.2850 C   0  0  0  0  0  0  0  0  0  0  0  0
  133.9850  123.2000   63.1750 Br  0  0  0  0  0  0  0  0  0  0  0  0
  131.0680  123.2110   62.3770 C   0  0  0  0  0  0  0  0  0  0  0  0
  130.9170  124.7490   62.3760 C   0  0  0  0  0  0  0  0  0  0  0  0
  130.0800  125.3330   61.1710 C   0  0  1  0  0  0  0  0  0  0  0  0
  131.0380  125.1900   59.9430 C   0  0  0  0  0  0  0  0  0  0  0  0
  128.7360  124.4970   61.0270 C   0  0  1  0  0  0  0  0  0  0  0  0
  127.7550  125.1130   59.9830 C   0  0  0  0  0  0  0  0  0  0  0  0
  127.4930  126.6300   60.1920 C   0  0  0  0  0  0  0  0  0  0  0  0
  128.7900  127.5290   60.2120 C   0  0  2  0  0  0  0  0  0  0  0  0
  129.4160  127.4230   58.7780 C   0  0  0  0  0  0  0  0  0  0  0  0
  129.6880  126.8830   61.3700 C   0  0  1  0  0  0  0  0  0  0  0  0
  128.9970  127.2080   62.7360 C   0  0  0  0  0  0  0  0  0  0  0  0
  128.7110  126.4030   63.6210 O   0  0  0  0  0  0  0  0  0  0  0  0
  128.7060  128.5900   62.9640 C   0  0  0  0  0  0  0  0  0  0  0  0
  128.4730  129.4920   61.9930 C   0  0  0  0  0  0  0  0  0  0  0  0
  128.3660  130.9880   62.3870 C   0  0  2  0  0  0  0  0  0  0  0  0
  126.9610  131.6430   62.2390 C   0  0  0  0  0  0  0  0  0  0  0  0
  126.8940  133.0840   62.8420 C   0  0  1  0  0  0  0  0  0  0  0  0
  125.4820  133.6770   62.5930 C   0  0  0  0  0  0  0  0  0  0  0  0
  127.1870  133.1040   64.3900 C   0  0  0  0  0  0  0  0  0  0  0  0
  126.4010  133.7150   65.1520 O   0  0  0  0  0  0  0  0  0  0  0  0
  128.1580  132.4370   64.8200 O   0  0  0  0  0  0  0  0  0  0  0  0
  127.9440  133.9000   62.0110 C   0  0  0  0  0  0  0  0  0  0  0  0
  129.3900  133.3350   62.0590 C   0  0  0  0  0  0  0  0  0  0  0  0
  129.5420  131.8030   61.7550 C   0  0  1  0  0  0  0  0  0  0  0  0
  130.8990  131.3520   62.3730 C   0  0  0  0  0  0  0  0  0  0  0  0
  129.5320  131.5540   60.2290 C   0  0  0  0  0  0  0  0  0  0  0  0
  129.6290  130.0510   59.8610 C   0  0  0  0  0  0  0  0  0  0  0  0
  128.5060  129.1200   60.4670 C   0  0  1  0  0  0  0  0  0  0  0  0
  127.1480  129.5010   59.7950 C   0  0  0  0  0  0  0  0  0  0  0  0
  130.4385  121.7560   60.0047 H   0  0  0  0  0  0  0  0  0  0  0  0
  128.8748  121.8038   59.1218 H   0  0  0  0  0  0  0  0  0  0  0  0
  129.9506  123.2423   59.1218 H   0  0  0  0  0  0  0  0  0  0  0  0
  127.2256  122.1583   62.1982 H   0  0  0  0  0  0  0  0  0  0  0  0
  126.7267  122.9174   60.6485 H   0  0  0  0  0  0  0  0  0  0  0  0
  127.4772  121.2854   60.6485 H   0  0  0  0  0  0  0  0  0  0  0  0
  129.0755  122.8491   63.1261 H   0  0  0  0  0  0  0  0  0  0  0  0
  128.9181  121.0531   60.5883 H   0  0  0  0  0  0  0  0  0  0  0  0
  127.7703  119.1121   62.0910 H   0  0  0  0  0  0  0  0  0  0  0  0
  129.1651  116.9881   61.5088 H   0  0  0  0  0  0  0  0  0  0  0  0
  132.4380  119.8880   59.8420 H   0  0  0  0  0  0  0  0  0  0  0  0
  131.3233  121.9542   61.5984 H   0  0  0  0  0  0  0  0  0  0  0  0
  132.8342  120.9507   61.8079 H   0  0  0  0  0  0  0  0  0  0  0  0
  132.3422  122.1958   58.4860 H   0  0  0  0  0  0  0  0  0  0  0  0
  133.7178  123.9842   57.4313 H   0  0  0  0  0  0  0  0  0  0  0  0
  135.1956  125.4154   58.8427 H   0  0  0  0  0  0  0  0  0  0  0  0
  135.2938  125.0586   61.3053 H   0  0  0  0  0  0  0  0  0  0  0  0
  131.5607  122.8990   63.3097 H   0  0  0  0  0  0  0  0  0  0  0  0
  131.6710  122.9185   61.5047 H   0  0  0  0  0  0  0  0  0  0  0  0
  130.4205  125.0444   63.3121 H   0  0  0  0  0  0  0  0  0  0  0  0
  131.9326  125.1591   62.2742 H   0  0  0  0  0  0  0  0  0  0  0  0
  132.0679  125.0363   60.2974 H   0  0  0  0  0  0  0  0  0  0  0  0
  130.7273  124.3283   59.3340 H   0  0  0  0  0  0  0  0  0  0  0  0
  130.9925  126.1049   59.3340 H   0  0  0  0  0  0  0  0  0  0  0  0
  128.2343  124.6181   61.9984 H   0  0  0  0  0  0  0  0  0  0  0  0
  128.1809  124.9692   58.9791 H   0  0  0  0  0  0  0  0  0  0  0  0
  126.7899  124.5999   60.1067 H   0  0  0  0  0  0  0  0  0  0  0  0
  126.8457  126.9812   59.3749 H   0  0  0  0  0  0  0  0  0  0  0  0
  127.0312  126.7305   61.1853 H   0  0  0  0  0  0  0  0  0  0  0  0
  130.4973  127.2399   58.8626 H   0  0  0  0  0  0  0  0  0  0  0  0
  128.9449  126.5918   58.2328 H   0  0  0  0  0  0  0  0  0  0  0  0
  129.2448  128.3629   58.2328 H   0  0  0  0  0  0  0  0  0  0  0  0
  130.6859  127.3445   61.3355 H   0  0  0  0  0  0  0  0  0  0  0  0
  128.6702  128.9399   64.0063 H   0  0  0  0  0  0  0  0  0  0  0  0
  128.4842  131.0215   63.4801 H   0  0  0  0  0  0  0  0  0  0  0  0
  126.7106  131.6983   61.1693 H   0  0  0  0  0  0  0  0  0  0  0  0
  126.2461  131.0191   62.7955 H   0  0  0  0  0  0  0  0  0  0  0  0
  124.9949  133.8816   63.5578 H   0  0  0  0  0  0  0  0  0  0  0  0
  125.5728  134.6130   62.0223 H   0  0  0  0  0  0  0  0  0  0  0  0
  124.8773  132.9568   62.0223 H   0  0  0  0  0  0  0  0  0  0  0  0
  127.6155  133.9122   60.9613 H   0  0  0  0  0  0  0  0  0  0  0  0
  127.9868  134.9021   62.4626 H   0  0  0  0  0  0  0  0  0  0  0  0
  129.9909  133.8856   61.3203 H   0  0  0  0  0  0  0  0  0  0  0  0
  129.7240  133.4649   63.0990 H   0  0  0  0  0  0  0  0  0  0  0  0
  130.8280  131.3756   63.4705 H   0  0  0  0  0  0  0  0  0  0  0  0
  131.1304  130.3287   62.0425 H   0  0  0  0  0  0  0  0  0  0  0  0
  131.6969  132.0333   62.0425 H   0  0  0  0  0  0  0  0  0  0  0  0
  128.5964  131.9571   59.8140 H   0  0  0  0  0  0  0  0  0  0  0  0
  130.4165  132.0542   59.8077 H   0  0  0  0  0  0  0  0  0  0  0  0
  129.5807  129.9682   58.7652 H   0  0  0  0  0  0  0  0  0  0  0  0
  130.5758  129.6980   60.2956 H   0  0  0  0  0  0  0  0  0  0  0  0
  126.3998  129.7109   60.5735 H   0  0  0  0  0  0  0  0  0  0  0  0
  127.2867  130.3949   59.1692 H   0  0  0  0  0  0  0  0  0  0  0  0
  126.8014  128.6654   59.1692 H   0  0  0  0  0  0  0  0  0  0  0  0
  1  2  1  0
  2  3  1  0
  2  4  1  0
  4  5  1  0
  5  6  1  0
  6  7  1  0
  7  8  2  0
  8  9  1  0
  9 10  2  0
  9 11  1  0
 11 12  1  0
 12 13  1  0
 13 14  1  0
 14 15  2  0
 15 16  1  0
 16 17  2  0
 17 18  1  0
 18 19  2  0
 19 20  1  0
  4 21  1  0
 21 22  1  0
 22 23  1  0
 23 24  1  6
 23 25  1  0
 25 26  1  0
 26 27  1  0
 27 28  1  0
 28 29  1  6
 28 30  1  0
 30 31  1  0
 31 32  2  0
 31 33  1  0
 33 34  2  0
 34 35  1  0
 35 36  1  0
 36 37  1  0
 37 38  1  1
 37 39  1  0
 39 40  2  0
 39 41  1  0
 37 42  1  0
 42 43  1  0
 43 44  1  0
 44 45  1  1
 44 46  1  0
 46 47  1  0
 47 48  1  0
 48 49  1  6
 25  2  1  0
 48 28  1  0
 11  6  1  0
 19 14  1  0
 30 23  1  0
 48 34  1  0
 44 35  1  0
  1 50  1  0
  1 51  1  0
  1 52  1  0
  3 53  1  0
  3 54  1  0
  3 55  1  0
  4 56  1  1
  6 57  1  6
  7 58  1  0
  8 59  1  0
 12 60  1  0
 13 61  1  0
 13 62  1  0
 15 63  1  0
 16 64  1  0
 17 65  1  0
 18 66  1  0
 21 67  1  0
 21 68  1  0
 22 69  1  0
 22 70  1  0
 24 71  1  0
 24 72  1  0
 24 73  1  0
 25 74  1  1
 26 75  1  0
 26 76  1  0
 27 77  1  0
 27 78  1  0
 29 79  1  0
 29 80  1  0
 29 81  1  0
 30 82  1  1
 33 83  1  0
 35 84  1  1
 36 85  1  0
 36 86  1  0
 38 87  1  0
 38 88  1  0
 38 89  1  0
 42 90  1  0
 42 91  1  0
 43 92  1  0
 43 93  1  0
 45 94  1  0
 45 95  1  0
 45 96  1  0
 46 97  1  0
 46 98  1  0
 47 99  1  0
 47100  1  0
 49101  1  0
 49102  1  0
 49103  1  0
M  CHG  1  41  -1
M  END
>  <Binding energies>  (1) 
[-0.69]

>  <Ligand effiencies>  (1) 
[-0.0138]

>  <Interactions>  (1) 
["V-A:ILE:369:CG2:3237, V-A:ASP:366:CA:3210, V-B:PRO:540:CA:9855, V-A:GLY:454:CA:4049, V-A:ILE:369:CB:3236, V-A:PRO:540:C:4881, V-B:ALA:541:CB:9864, V-B:TYR:539:CE2:9848, V-B:LEU:475:CD2:9230, V-B:TYR:539:C:9839, V-A:ASP:366:CG:3213, V-B:TYR:484:CE2:9317, V-B:TYR:539:CZ:9849, V-A:ALA:541:CB:4892, V-A:GLU:543:CD:4908, V-B:PRO:540:CB:9857, H-B:TYR:484:OH:9319, V-A:GLY:453:C:4042, V-B:PRO:540:N:9856, V-B:TYR:484:CZ:9318, V-A:ILE:369:CD1:3239, V-A:ASP:366:C:3208, V-A:ALA:541:CA:4890, V-A:PRO:482:CB:4326, V-B:TYR:539:CD2:9846, V-A:GLU:543:CG:4907, H-A:SER:385:OG:3410, V-B:GLU:543:CD:9880, V-A:ASP:366:CB:3212, V-A:LEU:475:CD2:4259, H-A:HIS:383:HE2:3395, V-A:PRO:482:CG:4327, V-A:PRO:540:CA:4883, V-B:PRO:540:C:9853, V-B:ALA:541:CA:9862, V-A:HIS:383:NE2:3394"]

$$$$
ZINC587946210
     RDKit          3D

 75 79  0  0  0  0  0  0  0  0999 V2000
  133.1770  124.7760   58.6300 C   0  0  0  0  0  0  0  0  0  0  0  0
  131.8380  125.4650   58.3250 C   0  0  0  0  0  0  0  0  0  0  0  0
  130.9660  125.4230   59.4520 O   0  0  0  0  0  0  0  0  0  0  0  0
  129.8300  124.6550   59.3400 C   0  0  0  0  0  0  0  0  0  0  0  0
  129.0590  124.3270   58.2280 C   0  0  0  0  0  0  0  0  0  0  0  0
  127.9640  123.5620   58.6500 C   0  0  0  0  0  0  0  0  0  0  0  0
  126.8910  123.0240   57.8170 C   0  0  0  0  0  0  0  0  0  0  0  0
  125.5060  123.6620   57.9180 C   0  0  0  0  0  0  0  0  0  0  0  0
  127.0600  122.0850   57.0400 O   0  0  0  0  0  0  0  0  0  0  0  0
  128.1100  123.4210   60.0300 C   0  0  0  0  0  0  0  0  0  0  0  0
  127.2620  122.7900   60.9020 O   0  0  0  0  0  0  0  0  0  0  0  0
  126.1330  123.5740   61.2670 C   0  0  0  0  0  0  0  0  0  0  0  0
  126.4080  125.0300   60.8830 C   0  0  0  0  0  0  0  0  0  0  0  0
  129.2540  124.0780   60.4540 N   0  0  0  0  0  0  0  0  0  0  0  0
  129.7150  124.1750   61.7860 C   0  0  0  0  0  0  0  0  0  0  0  0
  129.2380  125.2540   62.4640 N   0  0  0  0  0  0  0  0  0  0  0  0
  129.6340  125.3940   63.7560 C   0  0  0  0  0  0  0  0  0  0  0  0
  129.1060  126.5680   64.5250 C   0  0  0  0  0  0  0  0  0  0  0  0
  128.4980  127.5740   63.9280 N   0  0  0  0  0  0  0  0  0  0  0  0
  128.1350  128.4710   64.8650 N   0  0  0  0  0  0  0  0  0  0  0  0
  127.3990  129.6700   64.4740 C   0  0  0  0  0  0  0  0  0  0  0  0
  128.1710  130.5830   63.5250 C   0  0  0  0  0  0  0  0  0  0  0  0
  128.2950  130.2350   62.1750 C   0  0  0  0  0  0  0  0  0  0  0  0
  128.9950  131.0610   61.2940 C   0  0  0  0  0  0  0  0  0  0  0  0
  129.5740  132.2420   61.7560 C   0  0  0  0  0  0  0  0  0  0  0  0
  129.4510  132.5990   63.0990 C   0  0  0  0  0  0  0  0  0  0  0  0
  128.7510  131.7760   63.9820 C   0  0  0  0  0  0  0  0  0  0  0  0
  128.6360  132.1470   65.2780 F   0  0  0  0  0  0  0  0  0  0  0  0
  128.4910  128.0430   66.1280 C   0  0  0  0  0  0  0  0  0  0  0  0
  128.2810  128.6590   67.2980 N   0  0  0  0  0  0  0  0  0  0  0  0
  128.7500  127.9890   68.3830 C   0  0  0  0  0  0  0  0  0  0  0  0
  129.4050  126.7570   68.3330 C   0  0  0  0  0  0  0  0  0  0  0  0
  129.6090  126.1380   67.0970 C   0  0  0  0  0  0  0  0  0  0  0  0
  129.1370  126.7970   65.9460 C   0  0  0  0  0  0  0  0  0  0  0  0
  130.4670  124.5470   64.4160 N   0  0  0  0  0  0  0  0  0  0  0  0
  130.9290  123.4710   63.7310 C   0  0  0  0  0  0  0  0  0  0  0  0
  131.7470  122.6020   64.4570 N   0  0  0  0  0  0  0  0  0  0  0  0
  130.5820  123.2330   62.3820 C   0  0  0  0  0  0  0  0  0  0  0  0
  131.0280  122.0760   61.6940 N   0  0  0  0  0  0  0  0  0  0  0  0
  130.0380  121.0230   61.4440 C   0  0  0  0  0  0  0  0  0  0  0  0
  132.3450  121.8950   61.2220 C   0  0  0  0  0  0  0  0  0  0  0  0
  132.6510  121.3410   60.1610 O   0  0  0  0  0  0  0  0  0  0  0  0
  133.2640  122.4260   62.0730 O   0  0  0  0  0  0  0  0  0  0  0  0
  133.9100  123.6570   61.7820 C   0  0  0  0  0  0  0  0  0  0  0  0
  133.3135  124.7058   59.7192 H   0  0  0  0  0  0  0  0  0  0  0  0
  133.1771  123.7659   58.1946 H   0  0  0  0  0  0  0  0  0  0  0  0
  133.9990  125.3631   58.1946 H   0  0  0  0  0  0  0  0  0  0  0  0
  132.0279  126.5150   58.0577 H   0  0  0  0  0  0  0  0  0  0  0  0
  131.3552  124.9329   57.4921 H   0  0  0  0  0  0  0  0  0  0  0  0
  129.2741  124.6201   57.1898 H   0  0  0  0  0  0  0  0  0  0  0  0
  125.2360  123.7864   58.9771 H   0  0  0  0  0  0  0  0  0  0  0  0
  125.5183  124.6452   57.4248 H   0  0  0  0  0  0  0  0  0  0  0  0
  124.7668  123.0137   57.4248 H   0  0  0  0  0  0  0  0  0  0  0  0
  125.2417  123.2117   60.7339 H   0  0  0  0  0  0  0  0  0  0  0  0
  125.9549  123.4970   62.3498 H   0  0  0  0  0  0  0  0  0  0  0  0
  126.5222  125.6344   61.7949 H   0  0  0  0  0  0  0  0  0  0  0  0
  127.3323  125.0843   60.2891 H   0  0  0  0  0  0  0  0  0  0  0  0
  125.5672  125.4176   60.2891 H   0  0  0  0  0  0  0  0  0  0  0  0
  126.4685  129.3592   63.9764 H   0  0  0  0  0  0  0  0  0  0  0  0
  127.2123  130.2458   65.3925 H   0  0  0  0  0  0  0  0  0  0  0  0
  127.8380  129.3049   61.8060 H   0  0  0  0  0  0  0  0  0  0  0  0
  129.0898  130.7799   60.2347 H   0  0  0  0  0  0  0  0  0  0  0  0
  130.1274  132.8919   61.0622 H   0  0  0  0  0  0  0  0  0  0  0  0
  129.9070  133.5316   63.4628 H   0  0  0  0  0  0  0  0  0  0  0  0
  128.6032  128.4499   69.3709 H   0  0  0  0  0  0  0  0  0  0  0  0
  129.7573  126.2779   69.2584 H   0  0  0  0  0  0  0  0  0  0  0  0
  130.1217  125.1674   67.0257 H   0  0  0  0  0  0  0  0  0  0  0  0
  131.5790  122.4670   65.4430 H   0  0  0  0  0  0  0  0  0  0  0  0
  132.4880  122.1080   63.9790 H   0  0  0  0  0  0  0  0  0  0  0  0
  129.6694  120.6310   62.4034 H   0  0  0  0  0  0  0  0  0  0  0  0
  129.1967  121.4394   60.8705 H   0  0  0  0  0  0  0  0  0  0  0  0
  130.5054  120.2090   60.8705 H   0  0  0  0  0  0  0  0  0  0  0  0
  134.1755  124.1629   62.7220 H   0  0  0  0  0  0  0  0  0  0  0  0
  134.8227  123.4634   61.1993 H   0  0  0  0  0  0  0  0  0  0  0  0
  133.2321  124.2981   61.1993 H   0  0  0  0  0  0  0  0  0  0  0  0
  1  2  1  0
  2  3  1  0
  3  4  1  0
  4  5  2  0
  5  6  1  0
  6  7  1  0
  7  8  1  0
  7  9  2  0
  6 10  2  0
 10 11  1  0
 11 12  1  0
 12 13  1  0
 10 14  1  0
 14 15  1  0
 15 16  2  0
 16 17  1  0
 17 18  1  0
 18 19  2  0
 19 20  1  0
 20 21  1  0
 21 22  1  0
 22 23  2  0
 23 24  1  0
 24 25  2  0
 25 26  1  0
 26 27  2  0
 27 28  1  0
 20 29  1  0
 29 30  2  0
 30 31  1  0
 31 32  2  0
 32 33  1  0
 33 34  2  0
 17 35  2  0
 35 36  1  0
 36 37  1  0
 36 38  2  0
 38 39  1  0
 39 40  1  0
 39 41  1  0
 41 42  2  0
 41 43  1  0
 43 44  1  0
 14  4  1  0
 38 15  1  0
 34 18  1  0
 27 22  1  0
 34 29  1  0
  1 45  1  0
  1 46  1  0
  1 47  1  0
  2 48  1  0
  2 49  1  0
  5 50  1  0
  8 51  1  0
  8 52  1  0
  8 53  1  0
 12 54  1  0
 12 55  1  0
 13 56  1  0
 13 57  1  0
 13 58  1  0
 21 59  1  0
 21 60  1  0
 23 61  1  0
 24 62  1  0
 25 63  1  0
 26 64  1  0
 31 65  1  0
 32 66  1  0
 33 67  1  0
 37 68  1  0
 37 69  1  0
 40 70  1  0
 40 71  1  0
 40 72  1  0
 44 73  1  0
 44 74  1  0
 44 75  1  0
M  END
>  <Binding energies>  (1) 
[-7.54]

>  <Ligand effiencies>  (1) 
[-0.16391304347826088]

>  <Interactions>  (1) 
["V-A:ASP:366:CA:3210, V-B:PRO:540:CA:9855, V-B:GLU:543:CB:9878, V-B:ALA:541:CB:9864, V-B:TYR:539:CE2:9848, V-A:TYR:484:CE2:4346, H-B:TYR:539:N:9842, V-B:GLU:543:CG:9879, V-B:TYR:539:C:9839, V-A:ASP:366:CG:3213, V-B:TYR:484:CE2:9317, V-B:TYR:539:CZ:9849, V-A:ALA:541:CB:4892, H-B:ALA:541:N:9863, V-A:GLU:543:CD:4908, V-B:PRO:540:CB:9857, V-A:TYR:484:CZ:4347, V-B:HIS:456:CE1:9041, V-B:PRO:540:N:9856, V-A:ILE:369:CD1:3239, V-A:HIS:456:CE1:4070, V-B:TYR:484:CZ:9318, V-A:ASP:366:C:3208, V-A:ALA:541:CA:4890, V-B:TYR:539:CD2:9846, V-A:GLU:543:CG:4907, V-B:GLU:543:CD:9880, V-A:ASP:366:CB:3212, V-A:LEU:475:CD2:4259, V-A:GLU:543:CB:4906, V-A:PRO:540:CA:4883, H-A:TYR:484:OH:4348"]

$$$$
ZINC587948712
     RDKit          3D

101107  0  0  0  0  0  0  0  0999 V2000
  128.1080  122.4190   63.4590 C   0  0  0  0  0  0  0  0  0  0  0  0
  129.4510  123.1190   63.1140 C   0  0  0  0  0  0  0  0  0  0  0  0
  130.4140  123.0710   64.3340 C   0  0  0  0  0  0  0  0  0  0  0  0
  130.1810  122.3670   61.9500 C   0  0  1  0  0  0  0  0  0  0  0  0
  130.3820  120.9830   62.2590 O   0  0  0  0  0  0  0  0  0  0  0  0
  130.7380  120.0800   61.3140 C   0  0  0  0  0  0  0  0  0  0  0  0
  130.0780  119.0980   60.9680 O   0  0  0  0  0  0  0  0  0  0  0  0
  132.1010  120.4180   60.6960 C   0  0  0  0  0  0  0  0  0  0  0  0
  132.8870  121.5130   61.4570 C   0  0  0  0  0  0  0  0  0  0  0  0
  132.6620  122.9180   60.9220 C   0  0  0  0  0  0  0  0  0  0  0  0
  132.5540  123.2510   59.6540 N   0  0  0  0  0  0  0  0  0  0  0  0
  132.3680  124.6080   59.6630 C   0  0  0  0  0  0  0  0  0  0  0  0
  132.1930  125.5000   58.5930 C   0  0  0  0  0  0  0  0  0  0  0  0
  132.0240  126.8520   58.9140 C   0  0  0  0  0  0  0  0  0  0  0  0
  131.8490  127.7800   57.8920 N   0  0  0  0  0  0  0  0  0  0  0  0
  132.0200  127.3290   60.1860 N   0  0  0  0  0  0  0  0  0  0  0  0
  132.1870  126.4740   61.2290 C   0  0  0  0  0  0  0  0  0  0  0  0
  132.3640  125.1110   60.9860 C   0  0  0  0  0  0  0  0  0  0  0  0
  132.5570  123.9980   61.7690 N   0  0  0  0  0  0  0  0  0  0  0  0
  129.4580  122.5070   60.5910 C   0  0  0  0  0  0  0  0  0  0  0  0
  129.2860  123.9930   60.2190 C   0  0  0  0  0  0  0  0  0  0  0  0
  128.5190  124.8620   61.2780 C   0  0  2  0  0  0  0  0  0  0  0  0
  127.0150  124.4300   61.3160 C   0  0  0  0  0  0  0  0  0  0  0  0
  128.6780  126.4120   60.8960 C   0  0  1  0  0  0  0  0  0  0  0  0
  128.0500  126.8540   59.5380 C   0  0  0  0  0  0  0  0  0  0  0  0
  127.5990  126.0760   58.6980 O   0  0  0  0  0  0  0  0  0  0  0  0
  127.9950  128.2830   59.2760 C   0  0  0  0  0  0  0  0  0  0  0  0
  128.3780  129.2610   60.1290 C   0  0  0  0  0  0  0  0  0  0  0  0
  128.2910  130.7400   59.6790 C   0  0  2  0  0  0  0  0  0  0  0  0
  129.5710  131.2380   58.9410 C   0  0  0  0  0  0  0  0  0  0  0  0
  129.4040  132.6550   58.3010 C   0  0  1  0  0  0  0  0  0  0  0  0
  130.7430  133.0800   57.6460 C   0  0  0  0  0  0  0  0  0  0  0  0
  128.2670  132.6910   57.2100 C   0  0  0  0  0  0  0  0  0  0  0  0
  127.3740  131.8120   57.2340 O   0  0  0  0  0  0  0  0  0  0  0  0
  128.2470  133.6500   56.4010 O   0  0  0  0  0  0  0  0  0  0  0  0
  129.1070  133.5960   59.5190 C   0  0  0  0  0  0  0  0  0  0  0  0
  127.8560  133.1920   60.3440 C   0  0  0  0  0  0  0  0  0  0  0  0
  127.8110  131.6970   60.8170 C   0  0  1  0  0  0  0  0  0  0  0  0
  126.3260  131.3970   61.1800 C   0  0  0  0  0  0  0  0  0  0  0  0
  128.7520  131.4930   62.0280 C   0  0  0  0  0  0  0  0  0  0  0  0
  128.6520  130.0630   62.5860 C   0  0  0  0  0  0  0  0  0  0  0  0
  128.9680  128.9250   61.5420 C   0  0  2  0  0  0  0  0  0  0  0  0
  130.5220  128.9040   61.3600 C   0  0  0  0  0  0  0  0  0  0  0  0
  128.3800  127.4980   62.0200 C   0  0  1  0  0  0  0  0  0  0  0  0
  126.8360  127.5880   62.2940 C   0  0  0  0  0  0  0  0  0  0  0  0
  129.0390  127.0490   63.3610 C   0  0  0  0  0  0  0  0  0  0  0  0
  128.7480  125.5930   63.7440 C   0  0  0  0  0  0  0  0  0  0  0  0
  129.2770  124.6280   62.6510 C   0  0  1  0  0  0  0  0  0  0  0  0
  127.9952  122.3602   64.5516 H   0  0  0  0  0  0  0  0  0  0  0  0
  127.2737  122.9970   63.0348 H   0  0  0  0  0  0  0  0  0  0  0  0
  128.1040  121.4041   63.0348 H   0  0  0  0  0  0  0  0  0  0  0  0
  129.8284  123.1002   65.2647 H   0  0  0  0  0  0  0  0  0  0  0  0
  131.0027  122.1424   64.3001 H   0  0  0  0  0  0  0  0  0  0  0  0
  131.0921  123.9365   64.3001 H   0  0  0  0  0  0  0  0  0  0  0  0
  131.1615  122.8559   61.8515 H   0  0  0  0  0  0  0  0  0  0  0  0
  132.7103  119.5023   60.6820 H   0  0  0  0  0  0  0  0  0  0  0  0
  131.9029  120.8126   59.6885 H   0  0  0  0  0  0  0  0  0  0  0  0
  132.5779  121.4908   62.5124 H   0  0  0  0  0  0  0  0  0  0  0  0
  133.9557  121.2887   61.3248 H   0  0  0  0  0  0  0  0  0  0  0  0
  132.1889  125.1521   57.5495 H   0  0  0  0  0  0  0  0  0  0  0  0
  132.6540  128.2420   57.4940 H   0  0  0  0  0  0  0  0  0  0  0  0
  130.9150  127.9850   57.5680 H   0  0  0  0  0  0  0  0  0  0  0  0
  132.1827  126.8547   62.2610 H   0  0  0  0  0  0  0  0  0  0  0  0
  132.6170  123.9270   62.7750 H   0  0  0  0  0  0  0  0  0  0  0  0
  130.0516  122.0057   59.8123 H   0  0  0  0  0  0  0  0  0  0  0  0
  128.4635  122.0433   60.6687 H   0  0  0  0  0  0  0  0  0  0  0  0
  130.2871  124.4279   60.0825 H   0  0  0  0  0  0  0  0  0  0  0  0
  128.6717  124.0105   59.3067 H   0  0  0  0  0  0  0  0  0  0  0  0
  126.6869  124.3358   62.3617 H   0  0  0  0  0  0  0  0  0  0  0  0
  126.4026  125.1886   60.8065 H   0  0  0  0  0  0  0  0  0  0  0  0
  126.8985  123.4621   60.8065 H   0  0  0  0  0  0  0  0  0  0  0  0
  129.7717  126.4125   60.7784 H   0  0  0  0  0  0  0  0  0  0  0  0
  127.6070  128.5975   58.2959 H   0  0  0  0  0  0  0  0  0  0  0  0
  127.4968  130.7725   58.9186 H   0  0  0  0  0  0  0  0  0  0  0  0
  130.3984  131.2771   59.6648 H   0  0  0  0  0  0  0  0  0  0  0  0
  129.7702  130.5318   58.1215 H   0  0  0  0  0  0  0  0  0  0  0  0
  131.4775  133.3131   58.4310 H   0  0  0  0  0  0  0  0  0  0  0  0
  131.1226  132.2582   57.0211 H   0  0  0  0  0  0  0  0  0  0  0  0
  130.5792  133.9703   57.0211 H   0  0  0  0  0  0  0  0  0  0  0  0
  129.9806  133.5815   60.1873 H   0  0  0  0  0  0  0  0  0  0  0  0
  128.9040  134.5947   59.1051 H   0  0  0  0  0  0  0  0  0  0  0  0
  127.8192  133.8314   61.2384 H   0  0  0  0  0  0  0  0  0  0  0  0
  126.9962  133.3209   59.6701 H   0  0  0  0  0  0  0  0  0  0  0  0
  126.2134  131.3742   62.2740 H   0  0  0  0  0  0  0  0  0  0  0  0
  125.6802  132.1828   60.7612 H   0  0  0  0  0  0  0  0  0  0  0  0
  126.0359  130.4221   60.7612 H   0  0  0  0  0  0  0  0  0  0  0  0
  129.7884  131.6811   61.7109 H   0  0  0  0  0  0  0  0  0  0  0  0
  128.4512  132.1941   62.8204 H   0  0  0  0  0  0  0  0  0  0  0  0
  129.3633  129.9701   63.4199 H   0  0  0  0  0  0  0  0  0  0  0  0
  127.6050  129.9216   62.8924 H   0  0  0  0  0  0  0  0  0  0  0  0
  131.0068  128.8974   62.3474 H   0  0  0  0  0  0  0  0  0  0  0  0
  130.8137  128.0018   60.8023 H   0  0  0  0  0  0  0  0  0  0  0  0
  130.8380  129.7980   60.8023 H   0  0  0  0  0  0  0  0  0  0  0  0
  126.6562  127.5985   63.3792 H   0  0  0  0  0  0  0  0  0  0  0  0
  126.4375  128.5109   61.8474 H   0  0  0  0  0  0  0  0  0  0  0  0
  126.3330  126.7177   61.8474 H   0  0  0  0  0  0  0  0  0  0  0  0
  130.1283  127.1709   63.2686 H   0  0  0  0  0  0  0  0  0  0  0  0
  128.6072  127.6781   64.1533 H   0  0  0  0  0  0  0  0  0  0  0  0
  129.2429  125.3641   64.6994 H   0  0  0  0  0  0  0  0  0  0  0  0
  127.6602  125.4607   63.8393 H   0  0  0  0  0  0  0  0  0  0  0  0
  130.3265  124.8950   62.4581 H   0  0  0  0  0  0  0  0  0  0  0  0
  1  2  1  0
  2  3  1  0
  2  4  1  0
  4  5  1  0
  5  6  1  0
  6  7  2  0
  6  8  1  0
  8  9  1  0
  9 10  1  0
 10 11  2  0
 11 12  1  0
 12 13  2  0
 13 14  1  0
 14 15  1  0
 14 16  2  0
 16 17  1  0
 17 18  2  0
 18 19  1  0
  4 20  1  0
 20 21  1  0
 21 22  1  0
 22 23  1  1
 22 24  1  0
 24 25  1  0
 25 26  2  0
 25 27  1  0
 27 28  2  0
 28 29  1  0
 29 30  1  0
 30 31  1  0
 31 32  1  6
 31 33  1  0
 33 34  2  0
 33 35  1  0
 31 36  1  0
 36 37  1  0
 37 38  1  0
 38 39  1  1
 38 40  1  0
 40 41  1  0
 41 42  1  0
 42 43  1  6
 42 44  1  0
 44 45  1  1
 44 46  1  0
 46 47  1  0
 47 48  1  0
 48  2  1  0
 19 10  1  0
 48 22  1  0
 18 12  1  0
 44 24  1  0
 42 28  1  0
 38 29  1  0
  1 49  1  0
  1 50  1  0
  1 51  1  0
  3 52  1  0
  3 53  1  0
  3 54  1  0
  4 55  1  6
  8 56  1  0
  8 57  1  0
  9 58  1  0
  9 59  1  0
 13 60  1  0
 15 61  1  0
 15 62  1  0
 17 63  1  0
 19 64  1  0
 20 65  1  0
 20 66  1  0
 21 67  1  0
 21 68  1  0
 23 69  1  0
 23 70  1  0
 23 71  1  0
 24 72  1  6
 27 73  1  0
 29 74  1  6
 30 75  1  0
 30 76  1  0
 32 77  1  0
 32 78  1  0
 32 79  1  0
 36 80  1  0
 36 81  1  0
 37 82  1  0
 37 83  1  0
 39 84  1  0
 39 85  1  0
 39 86  1  0
 40 87  1  0
 40 88  1  0
 41 89  1  0
 41 90  1  0
 43 91  1  0
 43 92  1  0
 43 93  1  0
 45 94  1  0
 45 95  1  0
 45 96  1  0
 46 97  1  0
 46 98  1  0
 47 99  1  0
 47100  1  0
 48101  1  6
M  CHG  1  35  -1
M  END
>  <Binding energies>  (1) 
[-6.26]

>  <Ligand effiencies>  (1) 
[-0.12274509803921568]

>  <Interactions>  (1) 
["V-B:ALA:541:CB:9864, H-A:TYR:531:OH:4795, V-B:TYR:539:CE2:9848, V-A:TYR:484:CE2:4346, V-B:GLU:543:CG:9879, V-A:ASP:366:CG:3213, V-A:TYR:539:CD1:4873, V-A:TYR:539:CZ:4877, V-A:TYR:539:CA:4869, V-A:GLU:543:CD:4908, V-B:ALA:541:C:9860, V-B:TYR:539:CD2:9846, V-A:TYR:531:CZ:4794, V-B:GLU:543:CD:9880, V-A:TYR:539:C:4867, V-A:ASP:366:CB:3212, V-A:LEU:475:CD2:4259, V-A:PRO:540:N:4884, V-A:TYR:539:CG:4872, H-A:TYR:539:N:4870, V-A:PRO:540:CB:4885, V-A:PRO:540:CA:4883, H-A:ASP:366:OD2:3215, V-B:ALA:541:CA:9862, V-A:PRO:540:CD:4887, V-A:TYR:539:CE1:4875"]

$$$$
ZINC587948759-again1
     RDKit          3D

104110  0  0  0  0  0  0  0  0999 V2000
  129.9070  126.5490   71.2950 C   0  0  0  0  0  0  0  0  0  0  0  0
  128.7190  126.9010   70.3570 C   0  0  0  0  0  0  0  0  0  0  0  0
  127.4190  126.2010   70.8470 C   0  0  0  0  0  0  0  0  0  0  0  0
  128.4350  128.4430   70.3890 C   0  0  1  0  0  0  0  0  0  0  0  0
  128.2030  128.8960   71.7280 O   0  0  0  0  0  0  0  0  0  0  0  0
  128.3660  128.0890   72.8030 C   0  0  0  0  0  0  0  0  0  0  0  0
  127.6580  127.1270   73.1030 O   0  0  0  0  0  0  0  0  0  0  0  0
  129.5600  128.4960   73.6710 C   0  0  0  0  0  0  0  0  0  0  0  0
  130.5800  127.3430   73.8850 C   0  0  0  0  0  0  0  0  0  0  0  0
  129.9900  126.0830   74.5610 C   0  0  0  0  0  0  0  0  0  0  0  0
  129.5830  125.1850   73.7890 O   0  0  0  0  0  0  0  0  0  0  0  0
  129.9460  126.0000   75.8110 O   0  0  0  0  0  0  0  0  0  0  0  0
  129.5550  129.2970   69.7470 C   0  0  0  0  0  0  0  0  0  0  0  0
  129.8050  128.8710   68.2820 C   0  0  0  0  0  0  0  0  0  0  0  0
  130.0970  127.3340   68.0790 C   0  0  1  0  0  0  0  0  0  0  0  0
  131.5360  127.1360   68.6610 C   0  0  0  0  0  0  0  0  0  0  0  0
  128.9780  126.5070   68.8450 C   0  0  1  0  0  0  0  0  0  0  0  0
  129.0410  124.9770   68.5440 C   0  0  0  0  0  0  0  0  0  0  0  0
  129.1130  124.6370   67.0300 C   0  0  0  0  0  0  0  0  0  0  0  0
  130.3020  125.3260   66.2540 C   0  0  2  0  0  0  0  0  0  0  0  0
  131.6210  124.7380   66.8660 C   0  0  0  0  0  0  0  0  0  0  0  0
  130.0860  126.8870   66.5310 C   0  0  1  0  0  0  0  0  0  0  0  0
  128.8150  127.3320   65.7330 C   0  0  0  0  0  0  0  0  0  0  0  0
  127.8410  127.9330   66.1820 O   0  0  0  0  0  0  0  0  0  0  0  0
  128.8250  127.0130   64.3380 C   0  0  0  0  0  0  0  0  0  0  0  0
  129.4890  125.9740   63.7980 C   0  0  0  0  0  0  0  0  0  0  0  0
  129.5640  125.8700   62.2520 C   0  0  2  0  0  0  0  0  0  0  0  0
  128.7950  124.6890   61.5990 C   0  0  0  0  0  0  0  0  0  0  0  0
  128.7390  124.8240   60.0510 C   0  0  1  0  0  0  0  0  0  0  0  0
  127.9740  123.6120   59.4700 C   0  0  0  0  0  0  0  0  0  0  0  0
  128.0360  126.1110   59.5870 C   0  0  0  0  0  0  0  0  0  0  0  0
  126.7830  126.4060   59.8550 N   0  0  0  0  0  0  0  0  0  0  0  0
  126.5560  127.6040   59.2290 C   0  0  0  0  0  0  0  0  0  0  0  0
  125.3930  128.3830   59.2040 C   0  0  0  0  0  0  0  0  0  0  0  0
  125.4160  129.5760   58.4790 C   0  0  0  0  0  0  0  0  0  0  0  0
  126.5610  129.9950   57.7920 C   0  0  0  0  0  0  0  0  0  0  0  0
  126.5320  131.3020   57.0140 C   0  0  0  0  0  0  0  0  0  0  0  0
  127.7610  131.9960   57.0780 O   0  0  0  0  0  0  0  0  0  0  0  0
  127.7370  129.2330   57.8040 C   0  0  0  0  0  0  0  0  0  0  0  0
  127.7070  128.0400   58.5310 C   0  0  0  0  0  0  0  0  0  0  0  0
  128.6310  127.0500   58.7710 N   0  0  0  0  0  0  0  0  0  0  0  0
  130.2330  124.7330   59.6090 C   0  0  0  0  0  0  0  0  0  0  0  0
  131.1410  125.8350   60.2150 C   0  0  0  0  0  0  0  0  0  0  0  0
  131.0410  126.0370   61.7670 C   0  0  1  0  0  0  0  0  0  0  0  0
  131.5480  127.4770   62.0730 C   0  0  0  0  0  0  0  0  0  0  0  0
  131.9060  124.9880   62.5040 C   0  0  0  0  0  0  0  0  0  0  0  0
  131.8080  125.1010   64.0470 C   0  0  0  0  0  0  0  0  0  0  0  0
  130.3530  124.9830   64.6540 C   0  0  1  0  0  0  0  0  0  0  0  0
  129.8560  123.5190   64.4360 C   0  0  0  0  0  0  0  0  0  0  0  0
  129.5871  126.6438   72.3432 H   0  0  0  0  0  0  0  0  0  0  0  0
  130.2322  125.5159   71.1029 H   0  0  0  0  0  0  0  0  0  0  0  0
  130.7425  127.2382   71.1029 H   0  0  0  0  0  0  0  0  0  0  0  0
  127.4002  126.1909   71.9468 H   0  0  0  0  0  0  0  0  0  0  0  0
  126.5430  126.7494   70.4703 H   0  0  0  0  0  0  0  0  0  0  0  0
  127.3946  125.1678   70.4703 H   0  0  0  0  0  0  0  0  0  0  0  0
  127.5297  128.5835   69.7801 H   0  0  0  0  0  0  0  0  0  0  0  0
  130.0776  129.3351   73.1830 H   0  0  0  0  0  0  0  0  0  0  0  0
  129.1667  128.7735   74.6601 H   0  0  0  0  0  0  0  0  0  0  0  0
  130.9796  127.0508   72.9027 H   0  0  0  0  0  0  0  0  0  0  0  0
  131.3527  127.7306   74.5652 H   0  0  0  0  0  0  0  0  0  0  0  0
  129.2571  130.3557   69.7680 H   0  0  0  0  0  0  0  0  0  0  0  0
  130.4824  129.1465   70.3191 H   0  0  0  0  0  0  0  0  0  0  0  0
  128.9125  129.1301   67.6935 H   0  0  0  0  0  0  0  0  0  0  0  0
  130.7106  129.4033   67.9557 H   0  0  0  0  0  0  0  0  0  0  0  0
  131.4911  127.1422   69.7601 H   0  0  0  0  0  0  0  0  0  0  0  0
  131.9418  126.1736   68.3160 H   0  0  0  0  0  0  0  0  0  0  0  0
  132.1867  127.9531   68.3160 H   0  0  0  0  0  0  0  0  0  0  0  0
  128.0358  126.8489   68.3919 H   0  0  0  0  0  0  0  0  0  0  0  0
  129.9344  124.5637   69.0349 H   0  0  0  0  0  0  0  0  0  0  0  0
  128.1082  124.5371   68.9265 H   0  0  0  0  0  0  0  0  0  0  0  0
  129.2238  123.5473   66.9287 H   0  0  0  0  0  0  0  0  0  0  0  0
  128.1854  125.0219   66.5812 H   0  0  0  0  0  0  0  0  0  0  0  0
  131.5597  124.7653   67.9640 H   0  0  0  0  0  0  0  0  0  0  0  0
  131.7485  123.6978   66.5316 H   0  0  0  0  0  0  0  0  0  0  0  0
  132.4798  125.3385   66.5316 H   0  0  0  0  0  0  0  0  0  0  0  0
  130.9686  127.4321   66.1651 H   0  0  0  0  0  0  0  0  0  0  0  0
  128.2505  127.6615   63.6603 H   0  0  0  0  0  0  0  0  0  0  0  0
  128.9823  126.7203   61.8664 H   0  0  0  0  0  0  0  0  0  0  0  0
  129.3024  123.7476   61.8565 H   0  0  0  0  0  0  0  0  0  0  0  0
  127.7636  124.6987   61.9813 H   0  0  0  0  0  0  0  0  0  0  0  0
  127.5847  122.9952   60.2934 H   0  0  0  0  0  0  0  0  0  0  0  0
  127.1371  123.9688   58.8517 H   0  0  0  0  0  0  0  0  0  0  0  0
  128.6561  123.0100   58.8517 H   0  0  0  0  0  0  0  0  0  0  0  0
  124.4870  128.0643   59.7402 H   0  0  0  0  0  0  0  0  0  0  0  0
  124.5120  130.2019   58.4470 H   0  0  0  0  0  0  0  0  0  0  0  0
  126.3061  131.0807   55.9604 H   0  0  0  0  0  0  0  0  0  0  0  0
  125.7614  131.9436   57.4662 H   0  0  0  0  0  0  0  0  0  0  0  0
  127.9510  132.1930   57.9980 H   0  0  0  0  0  0  0  0  0  0  0  0
  128.6402  129.5583   57.2670 H   0  0  0  0  0  0  0  0  0  0  0  0
  129.5850  126.9810   58.4490 H   0  0  0  0  0  0  0  0  0  0  0  0
  130.6257  123.7531   59.9183 H   0  0  0  0  0  0  0  0  0  0  0  0
  130.2501  124.8724   58.5180 H   0  0  0  0  0  0  0  0  0  0  0  0
  132.1840  125.5797   59.9761 H   0  0  0  0  0  0  0  0  0  0  0  0
  130.7938  126.7799   59.7717 H   0  0  0  0  0  0  0  0  0  0  0  0
  131.5997  127.6239   63.1619 H   0  0  0  0  0  0  0  0  0  0  0  0
  132.5484  127.6140   61.6366 H   0  0  0  0  0  0  0  0  0  0  0  0
  130.8541  128.2105   61.6366 H   0  0  0  0  0  0  0  0  0  0  0  0
  131.5716  123.9840   62.2038 H   0  0  0  0  0  0  0  0  0  0  0  0
  132.9544  125.1708   62.2258 H   0  0  0  0  0  0  0  0  0  0  0  0
  132.4220  124.2997   64.4839 H   0  0  0  0  0  0  0  0  0  0  0  0
  132.1541  126.1152   64.2951 H   0  0  0  0  0  0  0  0  0  0  0  0
  129.6927  123.0381   65.4117 H   0  0  0  0  0  0  0  0  0  0  0  0
  128.9121  123.5325   63.8713 H   0  0  0  0  0  0  0  0  0  0  0  0
  130.6130  122.9550   63.8713 H   0  0  0  0  0  0  0  0  0  0  0  0
  1  2  1  0
  2  3  1  0
  2  4  1  0
  4  5  1  0
  5  6  1  0
  6  7  2  0
  6  8  1  0
  8  9  1  0
  9 10  1  0
 10 11  2  0
 10 12  1  0
  4 13  1  0
 13 14  1  0
 14 15  1  0
 15 16  1  1
 15 17  1  0
 17 18  1  0
 18 19  1  0
 19 20  1  0
 20 21  1  1
 20 22  1  0
 22 23  1  0
 23 24  2  0
 23 25  1  0
 25 26  2  0
 26 27  1  0
 27 28  1  0
 28 29  1  0
 29 30  1  6
 29 31  1  0
 31 32  2  0
 32 33  1  0
 33 34  2  0
 34 35  1  0
 35 36  2  0
 36 37  1  0
 37 38  1  0
 36 39  1  0
 39 40  2  0
 40 41  1  0
 29 42  1  0
 42 43  1  0
 43 44  1  0
 44 45  1  6
 44 46  1  0
 46 47  1  0
 47 48  1  0
 48 49  1  1
 17  2  1  0
 48 20  1  0
 22 15  1  0
 48 26  1  0
 44 27  1  0
 41 31  1  0
 40 33  1  0
  1 50  1  0
  1 51  1  0
  1 52  1  0
  3 53  1  0
  3 54  1  0
  3 55  1  0
  4 56  1  6
  8 57  1  0
  8 58  1  0
  9 59  1  0
  9 60  1  0
 13 61  1  0
 13 62  1  0
 14 63  1  0
 14 64  1  0
 16 65  1  0
 16 66  1  0
 16 67  1  0
 17 68  1  6
 18 69  1  0
 18 70  1  0
 19 71  1  0
 19 72  1  0
 21 73  1  0
 21 74  1  0
 21 75  1  0
 22 76  1  6
 25 77  1  0
 27 78  1  6
 28 79  1  0
 28 80  1  0
 30 81  1  0
 30 82  1  0
 30 83  1  0
 34 84  1  0
 35 85  1  0
 37 86  1  0
 37 87  1  0
 38 88  1  0
 39 89  1  0
 41 90  1  0
 42 91  1  0
 42 92  1  0
 43 93  1  0
 43 94  1  0
 45 95  1  0
 45 96  1  0
 45 97  1  0
 46 98  1  0
 46 99  1  0
 47100  1  0
 47101  1  0
 49102  1  0
 49103  1  0
 49104  1  0
M  CHG  1  12  -1
M  END
>  <Binding energies>  (1) 
[12.5]

>  <Ligand effiencies>  (1) 
[0.24509803921568626]

>  <Interactions>  (1) 
["V-B:PRO:540:CA:9855, V-A:GLU:543:CA:4904, V-B:HIS:456:CD2:9039, V-B:GLU:543:C:9874, V-A:GLU:543:C:4902, V-B:GLU:543:CB:9878, H-B:LYS:547:NZ:9923, V-B:ASP:366:CG:8184, V-B:TYR:539:CE2:9848, V-A:TYR:484:CE2:4346, V-B:GLU:543:CG:9879, V-A:HIS:456:CD2:4068, V-A:ASP:366:CG:3213, H-B:HIS:456:ND1:9038, V-A:TYR:539:CZ:4877, V-A:GLU:543:CD:4908, V-A:TYR:484:CZ:4347, V-B:ASP:366:CB:8183, V-B:HIS:456:CE1:9041, V-B:GLU:543:CA:9876, V-A:ARG:545:CG:4922, V-A:HIS:456:CE1:4070, V-B:GLY:544:C:9884, V-B:GLY:544:CA:9886, V-A:GLU:543:CG:4907, V-B:GLU:543:CD:9880, V-A:ARG:545:CZ:4926, V-A:GLU:543:CB:4906, V-A:TYR:539:CE1:4875"]

$$$$
ZINC587948924-again1
     RDKit          3D

113120  0  0  0  0  0  0  0  0999 V2000
  130.1060  124.3080   60.8450 C   0  0  0  0  0  0  0  0  0  0  0  0
  128.7780  124.8430   61.4500 C   0  0  0  0  0  0  0  0  0  0  0  0
  128.2130  125.9950   60.5700 C   0  0  0  0  0  0  0  0  0  0  0  0
  127.6870  123.7210   61.4610 C   0  0  1  0  0  0  0  0  0  0  0  0
  127.4750  123.1760   60.1530 O   0  0  0  0  0  0  0  0  0  0  0  0
  126.5780  123.7090   59.2920 C   0  0  0  0  0  0  0  0  0  0  0  0
  125.3630  123.4950   59.2870 O   0  0  0  0  0  0  0  0  0  0  0  0
  127.2460  124.6630   58.2900 C   0  0  0  0  0  0  0  0  0  0  0  0
  128.6550  124.2410   57.7860 C   0  0  0  0  0  0  0  0  0  0  0  0
  129.5500  125.3930   57.2620 C   0  0  0  0  0  0  0  0  0  0  0  0
  129.0880  126.1940   56.4180 O   0  0  0  0  0  0  0  0  0  0  0  0
  130.6970  125.4780   57.7590 O   0  0  0  0  0  0  0  0  0  0  0  0
  127.9940  122.5850   62.4630 C   0  0  0  0  0  0  0  0  0  0  0  0
  128.1650  123.1510   63.8860 C   0  0  0  0  0  0  0  0  0  0  0  0
  129.2690  124.2580   64.0380 C   0  0  2  0  0  0  0  0  0  0  0  0
  130.6830  123.6120   63.8460 C   0  0  0  0  0  0  0  0  0  0  0  0
  129.1250  124.9470   65.4780 C   0  0  1  0  0  0  0  0  0  0  0  0
  129.3680  124.0190   66.7100 C   0  0  0  0  0  0  0  0  0  0  0  0
  129.4930  122.7970   66.6450 O   0  0  0  0  0  0  0  0  0  0  0  0
  129.4650  124.6670   68.0100 C   0  0  0  0  0  0  0  0  0  0  0  0
  129.4240  126.0000   68.2370 C   0  0  0  0  0  0  0  0  0  0  0  0
  129.5010  126.5260   69.6920 C   0  0  2  0  0  0  0  0  0  0  0  0
  128.1090  126.6390   70.3810 C   0  0  0  0  0  0  0  0  0  0  0  0
  128.2260  126.9490   71.9010 C   0  0  1  0  0  0  0  0  0  0  0  0
  126.8050  127.0810   72.4960 C   0  0  0  0  0  0  0  0  0  0  0  0
  128.9830  125.8640   72.6880 C   0  0  0  0  0  0  0  0  0  0  0  0
  129.9680  126.1000   73.5250 N   0  0  0  0  0  0  0  0  0  0  0  0
  130.2950  124.8770   74.0470 C   0  0  0  0  0  0  0  0  0  0  0  0
  131.2860  124.5480   74.9810 C   0  0  0  0  0  0  0  0  0  0  0  0
  131.4130  123.2110   75.3620 C   0  0  0  0  0  0  0  0  0  0  0  0
  130.5760  122.2130   74.8400 C   0  0  0  0  0  0  0  0  0  0  0  0
  130.7160  120.8930   75.2070 O   0  0  0  0  0  0  0  0  0  0  0  0
  129.6860  120.0040   74.9900 C   0  0  0  0  0  0  0  0  0  0  0  0
  128.4020  120.5060   74.7820 C   0  0  0  0  0  0  0  0  0  0  0  0
  127.3360  119.6340   74.5770 C   0  0  0  0  0  0  0  0  0  0  0  0
  127.5570  118.2560   74.5890 C   0  0  0  0  0  0  0  0  0  0  0  0
  126.4910  117.3820   74.3870 N   0  0  0  0  0  0  0  0  0  0  0  0
  128.8370  117.7480   74.8070 C   0  0  0  0  0  0  0  0  0  0  0  0
  129.9020  118.6210   75.0110 C   0  0  0  0  0  0  0  0  0  0  0  0
  129.5910  122.5180   73.8930 C   0  0  0  0  0  0  0  0  0  0  0  0
  129.4650  123.8590   73.5190 C   0  0  0  0  0  0  0  0  0  0  0  0
  128.6290  124.5310   72.6600 N   0  0  0  0  0  0  0  0  0  0  0  0
  128.9220  128.3430   71.9580 C   0  0  0  0  0  0  0  0  0  0  0  0
  130.3210  128.3560   71.2930 C   0  0  0  0  0  0  0  0  0  0  0  0
  130.3700  127.8150   69.8230 C   0  0  1  0  0  0  0  0  0  0  0  0
  131.8640  127.4920   69.5250 C   0  0  0  0  0  0  0  0  0  0  0  0
  129.7990  128.8650   68.8420 C   0  0  0  0  0  0  0  0  0  0  0  0
  129.9290  128.4020   67.3810 C   0  0  0  0  0  0  0  0  0  0  0  0
  129.2380  127.0210   67.0630 C   0  0  2  0  0  0  0  0  0  0  0  0
  127.7000  127.3000   66.9840 C   0  0  0  0  0  0  0  0  0  0  0  0
  129.8190  126.3610   65.7080 C   0  0  1  0  0  0  0  0  0  0  0  0
  131.3780  126.1940   65.7860 C   0  0  0  0  0  0  0  0  0  0  0  0
  129.5340  127.2790   64.4790 C   0  0  0  0  0  0  0  0  0  0  0  0
  129.8120  126.6130   63.1240 C   0  0  0  0  0  0  0  0  0  0  0  0
  128.9230  125.3550   62.9450 C   0  0  1  0  0  0  0  0  0  0  0  0
  130.7937  124.0309   61.6576 H   0  0  0  0  0  0  0  0  0  0  0  0
  129.8964  123.4241   60.2246 H   0  0  0  0  0  0  0  0  0  0  0  0
  130.5677  125.0903   60.2246 H   0  0  0  0  0  0  0  0  0  0  0  0
  127.8216  126.7931   61.2179 H   0  0  0  0  0  0  0  0  0  0  0  0
  129.0154  126.3987   59.9350 H   0  0  0  0  0  0  0  0  0  0  0  0
  127.4026  125.6077   59.9350 H   0  0  0  0  0  0  0  0  0  0  0  0
  126.7626  124.2136   61.7968 H   0  0  0  0  0  0  0  0  0  0  0  0
  126.5861  124.7476   57.4140 H   0  0  0  0  0  0  0  0  0  0  0  0
  127.3949  125.6081   58.8328 H   0  0  0  0  0  0  0  0  0  0  0  0
  129.1819  123.7555   58.6207 H   0  0  0  0  0  0  0  0  0  0  0  0
  128.4814  123.5785   56.9252 H   0  0  0  0  0  0  0  0  0  0  0  0
  127.1635  121.8637   62.4579 H   0  0  0  0  0  0  0  0  0  0  0  0
  128.9291  122.0894   62.1629 H   0  0  0  0  0  0  0  0  0  0  0  0
  127.2033  123.5847   64.1974 H   0  0  0  0  0  0  0  0  0  0  0  0
  128.4906  122.3076   64.5126 H   0  0  0  0  0  0  0  0  0  0  0  0
  131.1296  123.4080   64.8303 H   0  0  0  0  0  0  0  0  0  0  0  0
  130.5830  122.6703   63.2864 H   0  0  0  0  0  0  0  0  0  0  0  0
  131.3294  124.3041   63.2864 H   0  0  0  0  0  0  0  0  0  0  0  0
  128.0476  125.1619   65.4225 H   0  0  0  0  0  0  0  0  0  0  0  0
  129.5822  124.0136   68.8871 H   0  0  0  0  0  0  0  0  0  0  0  0
  130.0356  125.7526   70.2630 H   0  0  0  0  0  0  0  0  0  0  0  0
  127.5398  127.4469   69.8980 H   0  0  0  0  0  0  0  0  0  0  0  0
  127.6006  125.6695   70.2734 H   0  0  0  0  0  0  0  0  0  0  0  0
  126.8654  127.0754   73.5943 H   0  0  0  0  0  0  0  0  0  0  0  0
  126.3524  128.0251   72.1585 H   0  0  0  0  0  0  0  0  0  0  0  0
  126.1863  126.2365   72.1585 H   0  0  0  0  0  0  0  0  0  0  0  0
  131.9453  125.3212   75.4022 H   0  0  0  0  0  0  0  0  0  0  0  0
  132.1891  122.9327   76.0901 H   0  0  0  0  0  0  0  0  0  0  0  0
  128.2309  121.5926   74.7798 H   0  0  0  0  0  0  0  0  0  0  0  0
  126.3239  120.0296   74.4063 H   0  0  0  0  0  0  0  0  0  0  0  0
  125.9020  117.1500   75.1750 H   0  0  0  0  0  0  0  0  0  0  0  0
  126.1610  117.2330   73.4450 H   0  0  0  0  0  0  0  0  0  0  0  0
  129.0048  116.6609   74.8178 H   0  0  0  0  0  0  0  0  0  0  0  0
  130.9125  118.2244   75.1886 H   0  0  0  0  0  0  0  0  0  0  0  0
  128.9456  121.7379   73.4629 H   0  0  0  0  0  0  0  0  0  0  0  0
  127.8810  124.1660   72.0890 H   0  0  0  0  0  0  0  0  0  0  0  0
  128.2828  129.0740   71.4412 H   0  0  0  0  0  0  0  0  0  0  0  0
  129.0631  128.5940   73.0197 H   0  0  0  0  0  0  0  0  0  0  0  0
  130.6836  129.3945   71.2850 H   0  0  0  0  0  0  0  0  0  0  0  0
  130.9466  127.6747   71.8884 H   0  0  0  0  0  0  0  0  0  0  0  0
  132.4097  127.3740   70.4728 H   0  0  0  0  0  0  0  0  0  0  0  0
  131.9290  126.5591   68.9459 H   0  0  0  0  0  0  0  0  0  0  0  0
  132.3086  128.3148   68.9459 H   0  0  0  0  0  0  0  0  0  0  0  0
  128.7357  129.0278   69.0720 H   0  0  0  0  0  0  0  0  0  0  0  0
  130.3728  129.7959   68.9610 H   0  0  0  0  0  0  0  0  0  0  0  0
  129.4742  129.1690   66.7369 H   0  0  0  0  0  0  0  0  0  0  0  0
  131.0039  128.2616   67.1943 H   0  0  0  0  0  0  0  0  0  0  0  0
  127.2882  127.3747   68.0013 H   0  0  0  0  0  0  0  0  0  0  0  0
  127.5257  128.2444   66.4476 H   0  0  0  0  0  0  0  0  0  0  0  0
  127.2051  126.4770   66.4476 H   0  0  0  0  0  0  0  0  0  0  0  0
  131.6909  126.1605   66.8400 H   0  0  0  0  0  0  0  0  0  0  0  0
  131.6721  125.2592   65.2863 H   0  0  0  0  0  0  0  0  0  0  0  0
  131.8634  127.0453   65.2863 H   0  0  0  0  0  0  0  0  0  0  0  0
  128.4753  127.5763   64.5075 H   0  0  0  0  0  0  0  0  0  0  0  0
  130.2174  128.1373   64.5578 H   0  0  0  0  0  0  0  0  0  0  0  0
  129.5937  127.3284   62.3174 H   0  0  0  0  0  0  0  0  0  0  0  0
  130.8688  126.3103   63.0864 H   0  0  0  0  0  0  0  0  0  0  0  0
  127.8849  125.6558   63.1494 H   0  0  0  0  0  0  0  0  0  0  0  0
  1  2  1  0
  2  3  1  0
  2  4  1  0
  4  5  1  0
  5  6  1  0
  6  7  2  0
  6  8  1  0
  8  9  1  0
  9 10  1  0
 10 11  2  0
 10 12  1  0
  4 13  1  0
 13 14  1  0
 14 15  1  0
 15 16  1  6
 15 17  1  0
 17 18  1  0
 18 19  2  0
 18 20  1  0
 20 21  2  0
 21 22  1  0
 22 23  1  0
 23 24  1  0
 24 25  1  1
 24 26  1  0
 26 27  2  0
 27 28  1  0
 28 29  2  0
 29 30  1  0
 30 31  2  0
 31 32  1  0
 32 33  1  0
 33 34  2  0
 34 35  1  0
 35 36  2  0
 36 37  1  0
 36 38  1  0
 38 39  2  0
 31 40  1  0
 40 41  2  0
 41 42  1  0
 24 43  1  0
 43 44  1  0
 44 45  1  0
 45 46  1  6
 45 47  1  0
 47 48  1  0
 48 49  1  0
 49 50  1  6
 49 51  1  0
 51 52  1  1
 51 53  1  0
 53 54  1  0
 54 55  1  0
 55  2  1  0
 55 15  1  0
 51 17  1  0
 49 21  1  0
 45 22  1  0
 42 26  1  0
 41 28  1  0
 39 33  1  0
  1 56  1  0
  1 57  1  0
  1 58  1  0
  3 59  1  0
  3 60  1  0
  3 61  1  0
  4 62  1  1
  8 63  1  0
  8 64  1  0
  9 65  1  0
  9 66  1  0
 13 67  1  0
 13 68  1  0
 14 69  1  0
 14 70  1  0
 16 71  1  0
 16 72  1  0
 16 73  1  0
 17 74  1  1
 20 75  1  0
 22 76  1  1
 23 77  1  0
 23 78  1  0
 25 79  1  0
 25 80  1  0
 25 81  1  0
 29 82  1  0
 30 83  1  0
 34 84  1  0
 35 85  1  0
 37 86  1  0
 37 87  1  0
 38 88  1  0
 39 89  1  0
 40 90  1  0
 42 91  1  0
 43 92  1  0
 43 93  1  0
 44 94  1  0
 44 95  1  0
 46 96  1  0
 46 97  1  0
 46 98  1  0
 47 99  1  0
 47100  1  0
 48101  1  0
 48102  1  0
 50103  1  0
 50104  1  0
 50105  1  0
 52106  1  0
 52107  1  0
 52108  1  0
 53109  1  0
 53110  1  0
 54111  1  0
 54112  1  0
 55113  1  1
M  CHG  1  12  -1
M  END
>  <Binding energies>  (1) 
[10.57]

>  <Ligand effiencies>  (1) 
[0.18224137931034484]

>  <Interactions>  (1) 
["V-A:ARG:545:CA:4919, V-A:GLU:543:CA:4904, V-B:PRO:540:CA:9855, H-A:TYR:484:O:4338, V-B:GLU:543:C:9874, H-B:GLU:543:O:9875, V-B:HIS:456:CD2:9039, V-A:GLU:543:C:4902, V-B:GLU:543:CB:9878, H-B:LYS:547:NZ:9923, V-B:ALA:541:CB:9864, H-A:TYR:531:OH:4795, V-A:TYR:484:CE2:4346, V-B:TYR:539:CE2:9848, V-B:GLU:543:CG:9879, V-A:GLY:544:C:4912, V-A:HIS:456:CD2:4068, V-B:TYR:539:CZ:9849, H-B:TYR:539:OH:9850, V-A:HIS:456:CB:4065, V-B:LYS:547:CE:9922, V-A:ASP:473:CG:4240, V-A:GLU:543:CD:4908, V-A:TYR:484:CZ:4347, V-B:PRO:540:CB:9857, V-B:GLU:543:CA:9876, V-B:HIS:456:CE1:9041, V-A:ARG:545:CG:4922, V-A:HIS:456:CE1:4070, V-B:GLY:544:C:9884, V-B:GLY:544:CA:9886, V-A:GLU:543:CG:4907, V-B:GLU:543:CD:9880, V-B:HIS:456:CG:9037, V-A:ARG:545:CB:4921, V-A:GLU:543:CB:4906, V-A:HIS:456:CG:4066, V-B:PRO:540:C:9853, V-A:TYR:484:C:4337, V-B:ALA:541:CA:9862, H-A:SER:483:OG:4334, H-A:LYS:471:NZ:4221, H-A:HIS:456:NE2:4071, H-A:TYR:484:OH:4348"]

$$$$
ZINC5884200
     RDKit          3D

 28 29  0  0  0  0  0  0  0  0999 V2000
  128.0120  127.7180   67.0800 N   0  0  0  0  0  0  0  0  0  0  0  0
  128.4960  127.7250   68.1320 C   0  0  0  0  0  0  0  0  0  0  0  0
  129.1060  127.7350   69.4540 C   0  0  0  0  0  0  0  0  0  0  0  0
  128.3480  127.3950   70.5730 C   0  0  0  0  0  0  0  0  0  0  0  0
  128.9380  127.4060   71.8350 C   0  0  0  0  0  0  0  0  0  0  0  0
  130.2830  127.7510   72.0090 C   0  0  0  0  0  0  0  0  0  0  0  0
  130.7800  127.7350   73.2910 N   0  0  0  0  0  0  0  0  0  0  0  0
  130.4630  126.6010   74.3220 S   0  0  0  0  0  0  0  0  0  0  0  0
  129.8600  127.1060   75.5610 O   0  0  0  0  0  0  0  0  0  0  0  0
  129.8230  125.4340   73.7020 O   0  0  0  0  0  0  0  0  0  0  0  0
  132.0840  125.9530   74.8720 C   0  0  0  0  0  0  0  0  0  0  0  0
  133.1190  126.8840   74.6910 C   0  0  0  0  0  0  0  0  0  0  0  0
  134.4340  126.5960   75.0450 C   0  0  0  0  0  0  0  0  0  0  0  0
  134.7460  125.3590   75.5930 C   0  0  0  0  0  0  0  0  0  0  0  0
  133.7430  124.4140   75.7830 C   0  0  0  0  0  0  0  0  0  0  0  0
  132.4130  124.6860   75.4320 C   0  0  0  0  0  0  0  0  0  0  0  0
  131.4720  123.6010   75.6880 C   0  0  0  0  0  0  0  0  0  0  0  0
  130.7300  122.7350   75.8940 N   0  0  0  0  0  0  0  0  0  0  0  0
  131.0270  128.0910   70.8670 C   0  0  0  0  0  0  0  0  0  0  0  0
  130.4470  128.0840   69.6000 C   0  0  0  0  0  0  0  0  0  0  0  0
  127.2891  127.1193   70.4603 H   0  0  0  0  0  0  0  0  0  0  0  0
  128.3334  127.1376   72.7139 H   0  0  0  0  0  0  0  0  0  0  0  0
  132.8845  127.8675   74.2578 H   0  0  0  0  0  0  0  0  0  0  0  0
  135.2237  127.3462   74.8911 H   0  0  0  0  0  0  0  0  0  0  0  0
  135.7833  125.1269   75.8761 H   0  0  0  0  0  0  0  0  0  0  0  0
  133.9979  123.4357   76.2164 H   0  0  0  0  0  0  0  0  0  0  0  0
  132.0862  128.3677   70.9748 H   0  0  0  0  0  0  0  0  0  0  0  0
  131.0461  128.3532   68.7176 H   0  0  0  0  0  0  0  0  0  0  0  0
  1  2  3  0
  2  3  1  0
  3  4  2  0
  4  5  1  0
  5  6  2  0
  6  7  1  0
  7  8  1  0
  8  9  2  0
  8 10  2  0
  8 11  1  0
 11 12  2  0
 12 13  1  0
 13 14  2  0
 14 15  1  0
 15 16  2  0
 16 17  1  0
 17 18  3  0
  6 19  1  0
 19 20  2  0
 20  3  1  0
 16 11  1  0
  4 21  1  0
  5 22  1  0
 12 23  1  0
 13 24  1  0
 14 25  1  0
 15 26  1  0
 19 27  1  0
 20 28  1  0
M  CHG  1   7  -1
M  END
>  <Binding energies>  (1) 
[-7.37]

>  <Ligand effiencies>  (1) 
[-0.3685]

>  <Interactions>  (1) 
["V-B:HIS:456:CD2:9039, V-A:GLU:543:C:4902, V-B:GLU:543:CB:9878, H-B:LYS:547:NZ:9923, V-A:VAL:457:CA:4075, V-A:GLY:544:CA:4914, V-A:GLY:544:C:4912, V-A:HIS:456:CD2:4068, V-A:VAL:457:C:4073, V-A:LYS:547:CG:4948, V-A:HIS:456:CB:4065, V-B:HIS:456:CE1:9041, V-A:HIS:456:CE1:4070, V-A:HIS:456:CA:4063, H-A:LYS:547:NZ:4951, V-A:HIS:456:C:4061, V-A:HIS:456:CG:4066, V-A:GLU:543:CB:4906, V-A:VAL:458:CG2:4087"]

$$$$
ZINC59019812
     RDKit          3D

 80 84  0  0  0  0  0  0  0  0999 V2000
  126.2300  132.2790   60.9410 C   0  0  0  0  0  0  0  0  0  0  0  0
  126.7090  132.3370   62.4180 C   0  0  0  0  0  0  0  0  0  0  0  0
  125.4990  132.7860   63.2750 C   0  0  0  0  0  0  0  0  0  0  0  0
  127.8220  133.4110   62.4990 C   0  0  0  0  0  0  0  0  0  0  0  0
  127.2490  130.9800   62.9430 C   0  0  0  0  0  0  0  0  0  0  0  0
  127.4600  130.7380   64.3040 C   0  0  0  0  0  0  0  0  0  0  0  0
  127.9520  129.4950   64.7570 C   0  0  0  0  0  0  0  0  0  0  0  0
  128.1640  129.2520   66.1320 C   0  0  0  0  0  0  0  0  0  0  0  0
  128.6520  128.0210   66.5810 C   0  0  0  0  0  0  0  0  0  0  0  0
  128.8940  127.7270   68.0860 C   0  0  0  0  0  0  0  0  0  0  0  0
  127.7160  126.9800   68.7660 C   0  0  0  0  0  0  0  0  0  0  0  0
  130.1560  126.8430   68.2500 C   0  0  0  0  0  0  0  0  0  0  0  0
  129.1000  129.0580   68.8520 C   0  0  0  0  0  0  0  0  0  0  0  0
  128.9260  127.0290   65.6340 C   0  0  0  0  0  0  0  0  0  0  0  0
  128.7380  127.2050   64.2540 C   0  0  0  0  0  0  0  0  0  0  0  0
  129.0420  126.1220   63.2550 C   0  0  0  0  0  0  0  0  0  0  0  0
  129.5330  124.8630   63.6390 C   0  0  0  0  0  0  0  0  0  0  0  0
  129.8230  123.8400   62.7290 C   0  0  0  0  0  0  0  0  0  0  0  0
  130.3620  122.4830   63.2540 C   0  0  0  0  0  0  0  0  0  0  0  0
  131.9120  122.5060   63.2700 C   0  0  0  0  0  0  0  0  0  0  0  0
  129.8900  122.1470   64.6950 C   0  0  0  0  0  0  0  0  0  0  0  0
  129.8780  121.3360   62.3320 C   0  0  0  0  0  0  0  0  0  0  0  0
  129.6120  124.0820   61.3690 C   0  0  0  0  0  0  0  0  0  0  0  0
  129.1190  125.3250   60.9150 C   0  0  0  0  0  0  0  0  0  0  0  0
  128.9070  125.5680   59.5410 C   0  0  0  0  0  0  0  0  0  0  0  0
  128.4200  126.7990   59.0910 C   0  0  0  0  0  0  0  0  0  0  0  0
  128.1770  127.0930   57.5860 C   0  0  0  0  0  0  0  0  0  0  0  0
  129.5070  126.9530   56.8050 C   0  0  0  0  0  0  0  0  0  0  0  0
  127.1520  126.1300   56.9300 C   0  0  0  0  0  0  0  0  0  0  0  0
  127.6310  128.5330   57.4150 C   0  0  0  0  0  0  0  0  0  0  0  0
  128.1440  127.7910   60.0390 C   0  0  0  0  0  0  0  0  0  0  0  0
  128.3330  127.6160   61.4190 C   0  0  0  0  0  0  0  0  0  0  0  0
  128.0300  128.6990   62.4170 C   0  0  0  0  0  0  0  0  0  0  0  0
  127.5380  129.9570   62.0340 C   0  0  0  0  0  0  0  0  0  0  0  0
  128.2380  128.4700   63.8130 C   0  0  0  0  0  0  0  0  0  0  0  0
  128.8320  126.3500   61.8600 C   0  0  0  0  0  0  0  0  0  0  0  0
  125.1383  132.1468   60.9145 H   0  0  0  0  0  0  0  0  0  0  0  0
  126.4983  133.2162   60.4314 H   0  0  0  0  0  0  0  0  0  0  0  0
  126.7143  131.4329   60.4314 H   0  0  0  0  0  0  0  0  0  0  0  0
  125.7505  132.6927   64.3418 H   0  0  0  0  0  0  0  0  0  0  0  0
  125.2562  133.8341   63.0458 H   0  0  0  0  0  0  0  0  0  0  0  0
  124.6312  132.1500   63.0458 H   0  0  0  0  0  0  0  0  0  0  0  0
  128.0465  133.6276   63.5538 H   0  0  0  0  0  0  0  0  0  0  0  0
  128.7287  133.0378   62.0003 H   0  0  0  0  0  0  0  0  0  0  0  0
  127.4813  134.3304   62.0003 H   0  0  0  0  0  0  0  0  0  0  0  0
  127.2387  131.5302   65.0344 H   0  0  0  0  0  0  0  0  0  0  0  0
  127.9415  130.0443   66.8619 H   0  0  0  0  0  0  0  0  0  0  0  0
  127.8215  127.0469   69.8589 H   0  0  0  0  0  0  0  0  0  0  0  0
  126.7648  127.4403   68.4606 H   0  0  0  0  0  0  0  0  0  0  0  0
  127.7267  125.9233   68.4606 H   0  0  0  0  0  0  0  0  0  0  0  0
  130.3647  126.6968   69.3201 H   0  0  0  0  0  0  0  0  0  0  0  0
  129.9843  125.8667   67.7732 H   0  0  0  0  0  0  0  0  0  0  0  0
  131.0149  127.3380   67.7732 H   0  0  0  0  0  0  0  0  0  0  0  0
  129.0703  128.8663   69.9348 H   0  0  0  0  0  0  0  0  0  0  0  0
  130.0755  129.4889   68.5825 H   0  0  0  0  0  0  0  0  0  0  0  0
  128.3004  129.7637   68.5825 H   0  0  0  0  0  0  0  0  0  0  0  0
  129.3086  126.0607   65.9889 H   0  0  0  0  0  0  0  0  0  0  0  0
  129.6979  124.6715   64.7096 H   0  0  0  0  0  0  0  0  0  0  0  0
  132.2679  122.5113   64.3108 H   0  0  0  0  0  0  0  0  0  0  0  0
  132.2973  121.6135   62.7553 H   0  0  0  0  0  0  0  0  0  0  0  0
  132.2706  123.4096   62.7553 H   0  0  0  0  0  0  0  0  0  0  0  0
  130.5625  122.6257   65.4221 H   0  0  0  0  0  0  0  0  0  0  0  0
  128.8658  122.5203   64.8418 H   0  0  0  0  0  0  0  0  0  0  0  0
  129.9075  121.0570   64.8418 H   0  0  0  0  0  0  0  0  0  0  0  0
  129.5235  120.4959   62.9472 H   0  0  0  0  0  0  0  0  0  0  0  0
  129.0559  121.6980   61.6971 H   0  0  0  0  0  0  0  0  0  0  0  0
  130.7109  120.9997   61.6971 H   0  0  0  0  0  0  0  0  0  0  0  0
  129.8340  123.2898   60.6388 H   0  0  0  0  0  0  0  0  0  0  0  0
  129.1287  124.7752   58.8114 H   0  0  0  0  0  0  0  0  0  0  0  0
  130.3420  126.8651   57.5157 H   0  0  0  0  0  0  0  0  0  0  0  0
  129.4678  126.0540   56.1723 H   0  0  0  0  0  0  0  0  0  0  0  0
  129.6558  127.8404   56.1723 H   0  0  0  0  0  0  0  0  0  0  0  0
  126.5903  125.6023   57.7149 H   0  0  0  0  0  0  0  0  0  0  0  0
  126.4546  126.7071   56.3051 H   0  0  0  0  0  0  0  0  0  0  0  0
  127.6845  125.3980   56.3051 H   0  0  0  0  0  0  0  0  0  0  0  0
  127.4612  128.9808   58.4053 H   0  0  0  0  0  0  0  0  0  0  0  0
  128.3619  129.1387   56.8592 H   0  0  0  0  0  0  0  0  0  0  0  0
  126.6823  128.5018   56.8592 H   0  0  0  0  0  0  0  0  0  0  0  0
  127.7588  128.7583   59.6842 H   0  0  0  0  0  0  0  0  0  0  0  0
  127.3712  130.1479   60.9636 H   0  0  0  0  0  0  0  0  0  0  0  0
  1  2  1  0
  2  3  1  0
  2  4  1  0
  2  5  1  0
  5  6  2  0
  6  7  1  0
  7  8  2  0
  8  9  1  0
  9 10  1  0
 10 11  1  0
 10 12  1  0
 10 13  1  0
  9 14  2  0
 14 15  1  0
 15 16  1  0
 16 17  1  0
 17 18  2  0
 18 19  1  0
 19 20  1  0
 19 21  1  0
 19 22  1  0
 18 23  1  0
 23 24  2  0
 24 25  1  0
 25 26  2  0
 26 27  1  0
 27 28  1  0
 27 29  1  0
 27 30  1  0
 26 31  1  0
 31 32  2  0
 32 33  1  0
 33 34  2  0
 33 35  1  0
 32 36  1  0
 34  5  1  0
 35  7  1  0
 35 15  2  0
 36 16  2  0
 36 24  1  0
  1 37  1  0
  1 38  1  0
  1 39  1  0
  3 40  1  0
  3 41  1  0
  3 42  1  0
  4 43  1  0
  4 44  1  0
  4 45  1  0
  6 46  1  0
  8 47  1  0
 11 48  1  0
 11 49  1  0
 11 50  1  0
 12 51  1  0
 12 52  1  0
 12 53  1  0
 13 54  1  0
 13 55  1  0
 13 56  1  0
 14 57  1  0
 17 58  1  0
 20 59  1  0
 20 60  1  0
 20 61  1  0
 21 62  1  0
 21 63  1  0
 21 64  1  0
 22 65  1  0
 22 66  1  0
 22 67  1  0
 23 68  1  0
 25 69  1  0
 28 70  1  0
 28 71  1  0
 28 72  1  0
 29 73  1  0
 29 74  1  0
 29 75  1  0
 30 76  1  0
 30 77  1  0
 30 78  1  0
 31 79  1  0
 34 80  1  0
M  END
>  <Binding energies>  (1) 
[-7.37]

>  <Ligand effiencies>  (1) 
[-0.20472222222222222]

>  <Interactions>  (1) 
["V-A:HIS:456:CE1:4070, V-A:GLU:543:CA:4904, V-B:GLU:543:C:9874, V-A:GLU:543:C:4902, V-B:TYR:531:CZ:9766, V-B:GLU:543:CB:9878, V-A:ALA:541:CB:4892, V-A:GLU:543:CG:4907, V-B:GLU:543:CD:9880, V-B:ALA:541:CB:9864, V-B:LEU:475:CD2:9230, V-A:GLU:543:CD:4908, V-A:TYR:484:CE2:4346, V-A:LEU:475:CD2:4259, V-B:GLU:543:CG:9879, V-B:HIS:456:CE1:9041, V-A:GLU:543:CB:4906"]

$$$$
ZINC59068756
     RDKit          3D

 46 48  0  0  0  0  0  0  0  0999 V2000
  132.4610  131.4990   58.1200 C   0  0  0  0  0  0  0  0  0  0  0  0
  131.1320  130.8370   57.7760 C   0  0  0  0  0  0  0  0  0  0  0  0
  131.0130  129.4550   57.9490 C   0  0  0  0  0  0  0  0  0  0  0  0
  129.8090  128.7790   57.7080 C   0  0  0  0  0  0  0  0  0  0  0  0
  129.7810  127.3950   57.8640 N   0  0  0  0  0  0  0  0  0  0  0  0
  128.8570  126.6070   57.0290 C   0  0  0  0  0  0  0  0  0  0  0  0
  129.1150  125.0810   56.9690 C   0  0  0  0  0  0  0  0  0  0  0  0
  129.3740  124.5700   58.3290 N   0  0  0  0  0  0  0  0  0  0  0  0
  128.7270  123.5010   58.8720 C   0  0  0  0  0  0  0  0  0  0  0  0
  128.0220  122.7280   58.2180 O   0  0  0  0  0  0  0  0  0  0  0  0
  128.8800  123.2370   60.3480 C   0  0  0  0  0  0  0  0  0  0  0  0
  129.7530  122.2250   60.7730 C   0  0  0  0  0  0  0  0  0  0  0  0
  129.9300  121.9650   62.1310 C   0  0  0  0  0  0  0  0  0  0  0  0
  129.2390  122.7160   63.0790 C   0  0  0  0  0  0  0  0  0  0  0  0
  129.4600  122.3970   64.7610 Cl  0  0  0  0  0  0  0  0  0  0  0  0
  128.3710  123.7280   62.6700 C   0  0  0  0  0  0  0  0  0  0  0  0
  128.1880  123.9970   61.3100 C   0  0  0  0  0  0  0  0  0  0  0  0
  127.1070  125.2810   60.8740 Cl  0  0  0  0  0  0  0  0  0  0  0  0
  130.4490  125.2610   59.0650 C   0  0  1  0  0  0  0  0  0  0  0  0
  131.8600  125.0720   58.4730 C   0  0  0  0  0  0  0  0  0  0  0  0
  130.0180  126.7430   59.1610 C   0  0  0  0  0  0  0  0  0  0  0  0
  128.7120  129.5290   57.2470 C   0  0  0  0  0  0  0  0  0  0  0  0
  127.5300  128.9430   56.9430 F   0  0  0  0  0  0  0  0  0  0  0  0
  128.8220  130.9080   57.0720 C   0  0  0  0  0  0  0  0  0  0  0  0
  130.0220  131.5790   57.3300 C   0  0  0  0  0  0  0  0  0  0  0  0
  130.0820  133.0400   57.1150 N   0  0  0  0  0  0  0  0  0  0  0  0
  131.0170  133.5010   56.4680 O   0  0  0  0  0  0  0  0  0  0  0  0
  129.1720  133.7240   57.5750 O   0  0  0  0  0  0  0  0  0  0  0  0
  132.5712  131.5539   59.2131 H   0  0  0  0  0  0  0  0  0  0  0  0
  133.2860  130.9065   57.6976 H   0  0  0  0  0  0  0  0  0  0  0  0
  132.4850  132.5144   57.6976 H   0  0  0  0  0  0  0  0  0  0  0  0
  131.8897  128.8813   58.2840 H   0  0  0  0  0  0  0  0  0  0  0  0
  127.8401  126.7595   57.4196 H   0  0  0  0  0  0  0  0  0  0  0  0
  129.0093  126.9699   56.0018 H   0  0  0  0  0  0  0  0  0  0  0  0
  128.2319  124.5764   56.5501 H   0  0  0  0  0  0  0  0  0  0  0  0
  129.9889  124.8826   56.3311 H   0  0  0  0  0  0  0  0  0  0  0  0
  130.3029  121.6311   60.0281 H   0  0  0  0  0  0  0  0  0  0  0  0
  130.6150  121.1672   62.4538 H   0  0  0  0  0  0  0  0  0  0  0  0
  127.8269  124.3183   63.4219 H   0  0  0  0  0  0  0  0  0  0  0  0
  130.5615  124.8142   60.0639 H   0  0  0  0  0  0  0  0  0  0  0  0
  132.5902  124.9742   59.2898 H   0  0  0  0  0  0  0  0  0  0  0  0
  131.8790  124.1633   57.8534 H   0  0  0  0  0  0  0  0  0  0  0  0
  132.1175  125.9437   57.8534 H   0  0  0  0  0  0  0  0  0  0  0  0
  129.0876  126.7929   59.7456 H   0  0  0  0  0  0  0  0  0  0  0  0
  130.8527  127.2814   59.6337 H   0  0  0  0  0  0  0  0  0  0  0  0
  127.9485  131.4791   56.7244 H   0  0  0  0  0  0  0  0  0  0  0  0
  1  2  1  0
  2  3  2  0
  3  4  1  0
  4  5  1  0
  5  6  1  0
  6  7  1  0
  7  8  1  0
  8  9  1  0
  9 10  2  0
  9 11  1  0
 11 12  2  0
 12 13  1  0
 13 14  2  0
 14 15  1  0
 14 16  1  0
 16 17  2  0
 17 18  1  0
  8 19  1  0
 19 20  1  0
 19 21  1  0
  4 22  2  0
 22 23  1  0
 22 24  1  0
 24 25  2  0
 25 26  1  0
 26 27  2  0
 26 28  1  0
 25  2  1  0
 21  5  1  0
 17 11  1  0
  1 29  1  0
  1 30  1  0
  1 31  1  0
  3 32  1  0
  6 33  1  0
  6 34  1  0
  7 35  1  0
  7 36  1  0
 12 37  1  0
 13 38  1  0
 16 39  1  0
 19 40  1  1
 20 41  1  0
 20 42  1  0
 20 43  1  0
 21 44  1  0
 21 45  1  0
 24 46  1  0
M  CHG  2  26   1  28  -1
M  END
>  <Binding energies>  (1) 
[-7.4]

>  <Ligand effiencies>  (1) 
[-0.2642857142857143]

>  <Interactions>  (1) 
["V-A:LEU:363:CD1:3189, V-A:PRO:540:N:4884, H-A:TYR:539:N:4870, V-A:PRO:540:CB:4885, V-B:TYR:539:CZ:9849, V-B:TYR:539:CD2:9846, V-A:MET:535:CE:4835, V-B:ALA:541:CB:9864, V-B:GLU:543:CD:9880, V-B:TYR:539:CE2:9848, V-A:TYR:539:C:4867, V-A:TYR:484:CE2:4346, V-A:LEU:475:CD2:4259, V-B:GLU:543:CG:9879"]

$$$$
ZINC59353705
     RDKit          3D

 78 81  0  0  0  0  0  0  0  0999 V2000
  132.6060  125.4470   65.5050 C   0  0  0  0  0  0  0  0  0  0  0  0
  133.2500  124.5790   64.4320 C   0  0  0  0  0  0  0  0  0  0  0  0
  134.2790  124.9310   63.8540 O   0  0  0  0  0  0  0  0  0  0  0  0
  132.5630  123.4400   64.2190 O   0  0  0  0  0  0  0  0  0  0  0  0
  132.2870  122.9940   62.8960 C   0  0  0  0  0  0  0  0  0  0  0  0
  131.3260  123.9570   62.1720 C   0  0  1  0  0  0  0  0  0  0  0  0
  130.8580  124.9090   63.1240 O   0  0  0  0  0  0  0  0  0  0  0  0
  129.8330  125.7830   62.6480 C   0  0  1  0  0  0  0  0  0  0  0  0
  129.3100  126.6560   63.7890 C   0  0  0  0  0  0  0  0  0  0  0  0
  129.4430  126.2540   65.1210 C   0  0  0  0  0  0  0  0  0  0  0  0
  128.9730  127.0660   66.1500 C   0  0  0  0  0  0  0  0  0  0  0  0
  128.3710  128.2920   65.8640 C   0  0  0  0  0  0  0  0  0  0  0  0
  127.8070  129.2560   67.1860 Cl  0  0  0  0  0  0  0  0  0  0  0  0
  128.2340  128.7190   64.5320 C   0  0  0  0  0  0  0  0  0  0  0  0
  127.5870  130.0750   64.2220 C   0  0  0  0  0  0  0  0  0  0  0  0
  128.0690  130.8030   62.9720 C   0  0  0  0  0  0  0  0  0  0  0  0
  129.4030  131.1990   62.8660 C   0  0  0  0  0  0  0  0  0  0  0  0
  129.8400  131.8710   61.7270 C   0  0  0  0  0  0  0  0  0  0  0  0
  128.9540  132.1570   60.6880 C   0  0  0  0  0  0  0  0  0  0  0  0
  129.4840  132.8240   59.5970 O   0  0  0  0  0  0  0  0  0  0  0  0
  129.7550  132.1250   58.3780 C   0  0  1  0  0  0  0  0  0  0  0  0
  128.4370  131.8440   57.6710 C   0  0  0  0  0  0  0  0  0  0  0  0
  128.3910  132.8250   56.4970 C   0  0  0  0  0  0  0  0  0  0  0  0
  129.4770  133.7210   56.6980 O   0  0  0  0  0  0  0  0  0  0  0  0
  130.5050  133.0230   57.3850 C   0  0  0  0  0  0  0  0  0  0  0  0
  127.6100  131.7710   60.8070 C   0  0  0  0  0  0  0  0  0  0  0  0
  127.1710  131.1010   61.9460 C   0  0  0  0  0  0  0  0  0  0  0  0
  128.7020  127.8840   63.5060 C   0  0  0  0  0  0  0  0  0  0  0  0
  130.3810  126.6310   61.4650 C   0  0  2  0  0  0  0  0  0  0  0  0
  129.3340  127.3960   60.8600 O   0  0  0  0  0  0  0  0  0  0  0  0
  128.2080  126.8250   60.3730 C   0  0  0  0  0  0  0  0  0  0  0  0
  127.1480  127.8580   60.0160 C   0  0  0  0  0  0  0  0  0  0  0  0
  128.0100  125.6200   60.2120 O   0  0  0  0  0  0  0  0  0  0  0  0
  131.0360  125.7400   60.3770 C   0  0  1  0  0  0  0  0  0  0  0  0
  131.7660  126.5420   59.4420 O   0  0  0  0  0  0  0  0  0  0  0  0
  131.2220  126.9730   58.2830 C   0  0  0  0  0  0  0  0  0  0  0  0
  130.9560  128.4720   58.2970 C   0  0  0  0  0  0  0  0  0  0  0  0
  130.9530  126.2820   57.2980 O   0  0  0  0  0  0  0  0  0  0  0  0
  132.0010  124.7030   60.9970 C   0  0  2  0  0  0  0  0  0  0  0  0
  132.4230  123.7500   60.0170 O   0  0  0  0  0  0  0  0  0  0  0  0
  133.5220  123.9430   59.2540 C   0  0  0  0  0  0  0  0  0  0  0  0
  134.7210  124.4010   60.0740 C   0  0  0  0  0  0  0  0  0  0  0  0
  133.6030  123.7840   58.0350 O   0  0  0  0  0  0  0  0  0  0  0  0
  132.8863  125.0692   66.4993 H   0  0  0  0  0  0  0  0  0  0  0  0
  132.9546  126.4845   65.3953 H   0  0  0  0  0  0  0  0  0  0  0  0
  131.5120  125.4142   65.3953 H   0  0  0  0  0  0  0  0  0  0  0  0
  133.2300  122.9373   62.3325 H   0  0  0  0  0  0  0  0  0  0  0  0
  131.8098  122.0046   62.9545 H   0  0  0  0  0  0  0  0  0  0  0  0
  130.5021  123.3654   61.7462 H   0  0  0  0  0  0  0  0  0  0  0  0
  128.9824  125.1934   62.2753 H   0  0  0  0  0  0  0  0  0  0  0  0
  129.9210  125.2920   65.3575 H   0  0  0  0  0  0  0  0  0  0  0  0
  129.0769  126.7389   67.1951 H   0  0  0  0  0  0  0  0  0  0  0  0
  126.5051  129.9091   64.1128 H   0  0  0  0  0  0  0  0  0  0  0  0
  127.8743  130.7266   65.0604 H   0  0  0  0  0  0  0  0  0  0  0  0
  130.1086  130.9806   63.6811 H   0  0  0  0  0  0  0  0  0  0  0  0
  130.8929  132.1789   61.6460 H   0  0  0  0  0  0  0  0  0  0  0  0
  130.3291  131.2244   58.6413 H   0  0  0  0  0  0  0  0  0  0  0  0
  128.4085  130.8063   57.3073 H   0  0  0  0  0  0  0  0  0  0  0  0
  127.5759  131.9692   58.3439 H   0  0  0  0  0  0  0  0  0  0  0  0
  128.5088  132.2880   55.5442 H   0  0  0  0  0  0  0  0  0  0  0  0
  127.4296  133.3577   56.4519 H   0  0  0  0  0  0  0  0  0  0  0  0
  131.1002  132.4180   56.6852 H   0  0  0  0  0  0  0  0  0  0  0  0
  131.2130  133.7014   57.8836 H   0  0  0  0  0  0  0  0  0  0  0  0
  126.9008  131.9986   59.9976 H   0  0  0  0  0  0  0  0  0  0  0  0
  126.1152  130.8062   62.0372 H   0  0  0  0  0  0  0  0  0  0  0  0
  128.5887  128.2010   62.4588 H   0  0  0  0  0  0  0  0  0  0  0  0
  131.1432  127.3046   61.8836 H   0  0  0  0  0  0  0  0  0  0  0  0
  126.7186  128.2765   60.9382 H   0  0  0  0  0  0  0  0  0  0  0  0
  127.6066  128.6651   59.4259 H   0  0  0  0  0  0  0  0  0  0  0  0
  126.3530  127.3787   59.4259 H   0  0  0  0  0  0  0  0  0  0  0  0
  130.2214  125.2091   59.8627 H   0  0  0  0  0  0  0  0  0  0  0  0
  130.8936  128.8236   59.3374 H   0  0  0  0  0  0  0  0  0  0  0  0
  131.7754  128.9946   57.7818 H   0  0  0  0  0  0  0  0  0  0  0  0
  130.0068  128.6808   57.7818 H   0  0  0  0  0  0  0  0  0  0  0  0
  132.8785  125.2507   61.3711 H   0  0  0  0  0  0  0  0  0  0  0  0
  134.4881  124.3120   61.1454 H   0  0  0  0  0  0  0  0  0  0  0  0
  135.5909  123.7719   59.8344 H   0  0  0  0  0  0  0  0  0  0  0  0
  134.9500  125.4499   59.8344 H   0  0  0  0  0  0  0  0  0  0  0  0
  1  2  1  0
  2  3  2  0
  2  4  1  0
  4  5  1  0
  5  6  1  0
  6  7  1  0
  7  8  1  0
  8  9  1  0
  9 10  2  0
 10 11  1  0
 11 12  2  0
 12 13  1  0
 12 14  1  0
 14 15  1  0
 15 16  1  0
 16 17  2  0
 17 18  1  0
 18 19  2  0
 19 20  1  0
 20 21  1  0
 21 22  1  0
 22 23  1  0
 23 24  1  0
 24 25  1  0
 19 26  1  0
 26 27  2  0
 14 28  2  0
  8 29  1  0
 29 30  1  0
 30 31  1  0
 31 32  1  0
 31 33  2  0
 29 34  1  0
 34 35  1  0
 35 36  1  0
 36 37  1  0
 36 38  2  0
 34 39  1  0
 39 40  1  0
 40 41  1  0
 41 42  1  0
 41 43  2  0
 39  6  1  0
 28  9  1  0
 27 16  1  0
 25 21  1  0
  1 44  1  0
  1 45  1  0
  1 46  1  0
  5 47  1  0
  5 48  1  0
  6 49  1  6
  8 50  1  6
 10 51  1  0
 11 52  1  0
 15 53  1  0
 15 54  1  0
 17 55  1  0
 18 56  1  0
 21 57  1  1
 22 58  1  0
 22 59  1  0
 23 60  1  0
 23 61  1  0
 25 62  1  0
 25 63  1  0
 26 64  1  0
 27 65  1  0
 28 66  1  0
 29 67  1  1
 32 68  1  0
 32 69  1  0
 32 70  1  0
 34 71  1  6
 37 72  1  0
 37 73  1  0
 37 74  1  0
 39 75  1  1
 42 76  1  0
 42 77  1  0
 42 78  1  0
M  END
>  <Binding energies>  (1) 
[-6.99]

>  <Ligand effiencies>  (1) 
[-0.16255813953488374]

>  <Interactions>  (1) 
["V-A:ILE:369:CG2:3237, V-A:ASP:366:CA:3210, V-A:GLY:454:CA:4049, V-A:ILE:369:CB:3236, V-B:GLU:543:CB:9878, H-A:ARG:545:NH1:4927, H-A:TYR:531:OH:4795, V-B:TYR:539:CE2:9848, V-B:GLU:543:CG:9879, V-A:TYR:539:CE2:4876, V-A:ASP:366:CG:3213, V-A:TYR:539:CD1:4873, V-A:TYR:539:CZ:4877, H-B:TYR:539:OH:9850, V-A:GLU:543:CD:4908, V-B:HIS:456:CE1:9041, H-A:GLY:454:N:4050, V-A:ILE:369:CD1:3239, V-B:TYR:484:CZ:9318, V-A:GLU:543:CG:4907, V-B:GLU:543:CD:9880, V-A:MET:535:CE:4835, V-A:ILE:369:CG1:3238, V-A:ASP:366:CB:3212, V-A:ARG:545:CD:4923, V-A:LEU:475:CD2:4259, H-A:ARG:545:NH2:4928, V-A:ARG:545:CZ:4926, V-A:TYR:539:C:4867, V-A:GLU:543:CB:4906, V-A:PRO:540:N:4884, V-A:TYR:539:CG:4872, H-A:TYR:539:N:4870, V-A:PRO:540:CB:4885, V-A:PRO:540:CA:4883, H-A:ARG:545:NE:4924, V-A:TYR:539:CD2:4874, V-A:PRO:540:CD:4887, V-A:TYR:539:CE1:4875, H-A:TYR:484:OH:4348"]

$$$$
ZINC595010388
     RDKit          3D

 36 37  0  0  0  0  0  0  0  0999 V2000
  133.7270  123.9880   57.7050 N   0  0  0  0  0  0  0  0  0  0  0  0
  133.6360  124.3150   58.8110 C   0  0  0  0  0  0  0  0  0  0  0  0
  133.5200  124.7300   60.2170 C   0  0  0  0  0  0  0  0  0  0  0  0
  132.1030  125.1920   60.5880 C   0  0  0  0  0  0  0  0  0  0  0  0
  131.7270  126.5310   59.9340 C   0  0  0  0  0  0  0  0  0  0  0  0
  130.6920  127.3150   60.7540 C   0  0  0  0  0  0  0  0  0  0  0  0
  131.3480  128.5850   61.3180 N   0  0  0  0  0  0  0  0  0  0  0  0
  130.9790  129.8760   60.5700 C   0  0  1  0  0  0  0  0  0  0  0  0
  131.6440  131.1650   61.0430 C   0  0  0  0  0  0  0  0  0  0  0  0
  131.3750  132.0940   59.9970 O   0  0  0  0  0  0  0  0  0  0  0  0
  131.2020  131.4150   58.7470 C   0  0  0  0  0  0  0  0  0  0  0  0
  130.0110  131.9140   57.9100 C   0  0  0  0  0  0  0  0  0  0  0  0
  130.9860  132.9020   57.2500 C   0  0  0  0  0  0  0  0  0  0  0  0
  132.1000  131.9030   57.5990 C   0  0  0  0  0  0  0  0  0  0  0  0
  131.2430  129.9170   59.0780 C   0  0  0  0  0  0  0  0  0  0  0  0
  133.7907  123.8781   60.8580 H   0  0  0  0  0  0  0  0  0  0  0  0
  134.1959  125.5849   60.3660 H   0  0  0  0  0  0  0  0  0  0  0  0
  131.3854  124.4258   60.2594 H   0  0  0  0  0  0  0  0  0  0  0  0
  132.0741  125.3344   61.6784 H   0  0  0  0  0  0  0  0  0  0  0  0
  132.6357  127.1429   59.8351 H   0  0  0  0  0  0  0  0  0  0  0  0
  131.2796  126.3105   58.9536 H   0  0  0  0  0  0  0  0  0  0  0  0
  129.8463  127.5939   60.1082 H   0  0  0  0  0  0  0  0  0  0  0  0
  130.3273  126.6895   61.5821 H   0  0  0  0  0  0  0  0  0  0  0  0
  131.0710  128.6870   62.2840 H   0  0  0  0  0  0  0  0  0  0  0  0
  132.3530  128.4730   61.2970 H   0  0  0  0  0  0  0  0  0  0  0  0
  129.9056  129.8356   60.8069 H   0  0  0  0  0  0  0  0  0  0  0  0
  131.2048  131.5064   61.9920 H   0  0  0  0  0  0  0  0  0  0  0  0
  132.7203  131.0414   61.2338 H   0  0  0  0  0  0  0  0  0  0  0  0
  129.5827  131.1652   57.2275 H   0  0  0  0  0  0  0  0  0  0  0  0
  129.0722  132.2477   58.3762 H   0  0  0  0  0  0  0  0  0  0  0  0
  130.8266  133.0575   56.1728 H   0  0  0  0  0  0  0  0  0  0  0  0
  131.0359  133.9601   57.5465 H   0  0  0  0  0  0  0  0  0  0  0  0
  132.3027  131.1508   56.8224 H   0  0  0  0  0  0  0  0  0  0  0  0
  133.1372  132.2267   57.7707 H   0  0  0  0  0  0  0  0  0  0  0  0
  130.4639  129.3710   58.5259 H   0  0  0  0  0  0  0  0  0  0  0  0
  132.1954  129.4428   58.7986 H   0  0  0  0  0  0  0  0  0  0  0  0
  1  2  3  0
  2  3  1  0
  3  4  1  0
  4  5  1  0
  5  6  1  0
  6  7  1  0
  7  8  1  0
  8  9  1  0
  9 10  1  0
 10 11  1  0
 11 12  1  0
 12 13  1  0
 13 14  1  0
 11 15  1  0
 15  8  1  0
 14 11  1  0
  3 16  1  0
  3 17  1  0
  4 18  1  0
  4 19  1  0
  5 20  1  0
  5 21  1  0
  6 22  1  0
  6 23  1  0
  7 24  1  0
  7 25  1  0
  8 26  1  6
  9 27  1  0
  9 28  1  0
 12 29  1  0
 12 30  1  0
 13 31  1  0
 13 32  1  0
 14 33  1  0
 14 34  1  0
 15 35  1  0
 15 36  1  0
M  CHG  1   7   1
M  END
>  <Binding energies>  (1) 
[-6.47]

>  <Ligand effiencies>  (1) 
[-0.3805882352941176]

>  <Interactions>  (1) 
["V-A:ILE:369:CG2:3237, V-A:ASP:366:CA:3210, V-A:LEU:363:CD1:3189, V-A:PRO:540:N:4884, V-A:PRO:540:CB:4885, V-A:ASP:366:C:3208, H-A:GLU:543:OE2:4910, H-A:ASN:370:N:3244, V-A:ILE:369:CB:3236, V-A:PRO:540:CA:4883, H-B:TYR:539:OH:9850, V-B:TYR:539:CE2:9848, H-A:ASP:366:OD2:3215, V-A:ASP:366:CB:3212, V-A:PRO:540:CD:4887, H-A:GLU:543:OE1:4909, V-A:ASP:366:CG:3213, H-A:ASP:366:OD1:3214"]

$$$$
ZINC59513128
     RDKit          3D

 52 54  0  0  0  0  0  0  0  0999 V2000
  128.9260  121.7310   61.6160 C   0  0  0  0  0  0  0  0  0  0  0  0
  130.3390  121.2570   61.2550 C   0  0  0  0  0  0  0  0  0  0  0  0
  131.2990  122.4160   60.9350 C   0  0  0  0  0  0  0  0  0  0  0  0
  132.7360  122.1590   61.4200 C   0  0  0  0  0  0  0  0  0  0  0  0
  133.0240  122.8210   62.7870 C   0  0  0  0  0  0  0  0  0  0  0  0
  133.7040  124.2190   62.6840 C   0  0  0  0  0  0  0  0  0  0  0  0
  135.0560  124.2310   61.9730 C   0  0  0  0  0  0  0  0  0  0  0  0
  132.8840  125.0900   61.9240 O   0  0  0  0  0  0  0  0  0  0  0  0
  131.7430  125.6050   62.4970 C   0  0  0  0  0  0  0  0  0  0  0  0
  130.9320  126.0880   61.7070 O   0  0  0  0  0  0  0  0  0  0  0  0
  131.6550  125.5190   63.9720 C   0  0  0  0  0  0  0  0  0  0  0  0
  130.4330  125.7180   64.5420 C   0  0  0  0  0  0  0  0  0  0  0  0
  129.9410  125.6710   65.9160 C   0  0  0  0  0  0  0  0  0  0  0  0
  130.0980  124.7190   66.9200 C   0  0  0  0  0  0  0  0  0  0  0  0
  129.4810  125.2070   68.0740 C   0  0  0  0  0  0  0  0  0  0  0  0
  128.9490  126.4330   67.7300 C   0  0  0  0  0  0  0  0  0  0  0  0
  128.0640  127.6690   68.6170 S   0  0  0  0  0  0  0  0  0  0  0  0
  128.7470  127.4840   70.2470 C   0  0  0  0  0  0  0  0  0  0  0  0
  130.0690  127.8680   70.4630 C   0  0  0  0  0  0  0  0  0  0  0  0
  130.6440  127.7010   71.7200 C   0  0  0  0  0  0  0  0  0  0  0  0
  129.8940  127.1550   72.7640 C   0  0  0  0  0  0  0  0  0  0  0  0
  130.5180  126.9730   74.1350 C   0  0  0  0  0  0  0  0  0  0  0  0
  128.5640  126.7900   72.5530 C   0  0  0  0  0  0  0  0  0  0  0  0
  127.9870  126.9580   71.2970 C   0  0  0  0  0  0  0  0  0  0  0  0
  129.2010  126.6880   66.4230 O   0  0  0  0  0  0  0  0  0  0  0  0
  132.9030  125.2210   64.7220 C   0  0  0  0  0  0  0  0  0  0  0  0
  133.1760  125.3820   65.9080 O   0  0  0  0  0  0  0  0  0  0  0  0
  133.9540  124.7490   63.9730 O   0  0  0  0  0  0  0  0  0  0  0  0
  128.8196  121.7667   62.7103 H   0  0  0  0  0  0  0  0  0  0  0  0
  128.7581  122.7347   61.1983 H   0  0  0  0  0  0  0  0  0  0  0  0
  128.1868  121.0316   61.1983 H   0  0  0  0  0  0  0  0  0  0  0  0
  130.7460  120.6893   62.1048 H   0  0  0  0  0  0  0  0  0  0  0  0
  130.2569  120.6384   60.3492 H   0  0  0  0  0  0  0  0  0  0  0  0
  131.3183  122.5642   59.8452 H   0  0  0  0  0  0  0  0  0  0  0  0
  130.9277  123.3059   61.4645 H   0  0  0  0  0  0  0  0  0  0  0  0
  132.8883  121.0737   61.5141 H   0  0  0  0  0  0  0  0  0  0  0  0
  133.4227  122.6000   60.6825 H   0  0  0  0  0  0  0  0  0  0  0  0
  132.0701  122.9390   63.3219 H   0  0  0  0  0  0  0  0  0  0  0  0
  133.7285  122.1630   63.3169 H   0  0  0  0  0  0  0  0  0  0  0  0
  135.8632  124.2382   62.7203 H   0  0  0  0  0  0  0  0  0  0  0  0
  135.1472  123.3336   61.3434 H   0  0  0  0  0  0  0  0  0  0  0  0
  135.1312  125.1298   61.3434 H   0  0  0  0  0  0  0  0  0  0  0  0
  129.6501  125.9673   63.8106 H   0  0  0  0  0  0  0  0  0  0  0  0
  130.6162  123.7537   66.8216 H   0  0  0  0  0  0  0  0  0  0  0  0
  129.4296  124.7147   69.0564 H   0  0  0  0  0  0  0  0  0  0  0  0
  130.6575  128.3025   69.6415 H   0  0  0  0  0  0  0  0  0  0  0  0
  131.6890  127.9991   71.8908 H   0  0  0  0  0  0  0  0  0  0  0  0
  129.7692  127.1914   74.9106 H   0  0  0  0  0  0  0  0  0  0  0  0
  130.8671  125.9356   74.2442 H   0  0  0  0  0  0  0  0  0  0  0  0
  131.3701  127.6600   74.2442 H   0  0  0  0  0  0  0  0  0  0  0  0
  127.9713  126.3696   73.3788 H   0  0  0  0  0  0  0  0  0  0  0  0
  126.9363  126.6778   71.1309 H   0  0  0  0  0  0  0  0  0  0  0  0
  1  2  1  0
  2  3  1  0
  3  4  1  0
  4  5  1  0
  5  6  1  0
  6  7  1  0
  6  8  1  0
  8  9  1  0
  9 10  2  0
  9 11  1  0
 11 12  2  3
 12 13  1  0
 13 14  2  0
 14 15  1  0
 15 16  2  0
 16 17  1  0
 17 18  1  0
 18 19  2  0
 19 20  1  0
 20 21  2  0
 21 22  1  0
 21 23  1  0
 23 24  2  0
 16 25  1  0
 11 26  1  0
 26 27  2  0
 26 28  1  0
 28  6  1  0
 25 13  1  0
 24 18  1  0
  1 29  1  0
  1 30  1  0
  1 31  1  0
  2 32  1  0
  2 33  1  0
  3 34  1  0
  3 35  1  0
  4 36  1  0
  4 37  1  0
  5 38  1  0
  5 39  1  0
  7 40  1  0
  7 41  1  0
  7 42  1  0
 12 43  1  0
 14 44  1  0
 15 45  1  0
 19 46  1  0
 20 47  1  0
 22 48  1  0
 22 49  1  0
 22 50  1  0
 23 51  1  0
 24 52  1  0
M  END
>  <Binding energies>  (1) 
[-7.32]

>  <Ligand effiencies>  (1) 
[-0.26142857142857145]

>  <Interactions>  (1) 
["V-B:PRO:540:CA:9855, V-A:GLY:454:CA:4049, V-B:GLU:543:C:9874, V-A:GLU:543:C:4902, V-B:GLU:543:CB:9878, V-B:ALA:541:CB:9864, H-A:ARG:545:NH1:4927, V-B:TYR:539:CE2:9848, V-A:TYR:484:CE2:4346, V-B:GLU:543:CG:9879, V-A:GLY:544:C:4912, V-A:HIS:456:CD2:4068, V-A:GLU:543:CD:4908, V-A:TYR:484:CZ:4347, V-B:GLU:543:CA:9876, H-A:GLY:454:N:4050, V-B:HIS:456:CE1:9041, V-A:GLY:453:C:4042, V-A:ILE:369:CD1:3239, V-A:HIS:456:CE1:4070, V-B:GLY:544:C:9884, V-B:TYR:539:CD2:9846, V-B:GLU:543:CD:9880, V-A:LEU:475:CD2:4259, H-A:ARG:545:NH2:4928, V-A:ARG:545:CZ:4926, V-A:GLY:453:CA:4044, H-A:ARG:545:NE:4924, V-B:PRO:540:C:9853, H-A:TYR:484:OH:4348"]

$$$$
ZINC5956516
     RDKit          3D

 78 80  0  0  0  0  0  0  0  0999 V2000
  130.2550  125.6090   67.2440 C   0  0  0  0  0  0  0  0  0  0  0  0
  130.6750  124.4010   66.6200 O   0  0  0  0  0  0  0  0  0  0  0  0
  130.3620  124.1840   65.2920 C   0  0  0  0  0  0  0  0  0  0  0  0
  129.4870  123.1330   65.0230 C   0  0  0  0  0  0  0  0  0  0  0  0
  129.0990  122.8480   63.7190 C   0  0  0  0  0  0  0  0  0  0  0  0
  129.6030  123.5990   62.6510 C   0  0  0  0  0  0  0  0  0  0  0  0
  129.2160  123.2850   61.1910 C   0  0  1  0  0  0  0  0  0  0  0  0
  128.0800  124.1460   60.6170 C   0  0  0  0  0  0  0  0  0  0  0  0
  126.6890  123.7510   60.9680 C   0  0  0  0  0  0  0  0  0  0  0  0
  125.5590  123.9580   59.9590 C   0  0  0  0  0  0  0  0  0  0  0  0
  126.3890  123.2170   62.0370 O   0  0  0  0  0  0  0  0  0  0  0  0
  128.4140  125.2770   59.9240 C   0  0  0  0  0  0  0  0  0  0  0  0
  127.3880  126.0920   59.1130 C   0  0  0  0  0  0  0  0  0  0  0  0
  129.7420  125.6990   59.7840 N   0  0  0  0  0  0  0  0  0  0  0  0
  129.9910  127.1600   59.8550 C   0  0  2  0  0  0  0  0  0  0  0  0
  130.9610  127.6590   58.9560 O   0  0  0  0  0  0  0  0  0  0  0  0
  131.0230  129.0950   58.8700 C   0  0  1  0  0  0  0  0  0  0  0  0
  129.8220  129.7240   58.1180 C   0  0  0  0  0  0  0  0  0  0  0  0
  130.2350  130.7770   57.2540 O   0  0  0  0  0  0  0  0  0  0  0  0
  129.6900  132.0070   57.3920 C   0  0  0  0  0  0  0  0  0  0  0  0
  128.2690  131.9680   57.9380 C   0  0  0  0  0  0  0  0  0  0  0  0
  130.2340  133.0780   57.1170 O   0  0  0  0  0  0  0  0  0  0  0  0
  131.2870  129.7110   60.2710 C   0  0  1  0  0  0  0  0  0  0  0  0
  131.3670  131.1370   60.2130 O   0  0  0  0  0  0  0  0  0  0  0  0
  131.7410  131.8770   61.2830 C   0  0  0  0  0  0  0  0  0  0  0  0
  133.2270  131.7390   61.5870 C   0  0  0  0  0  0  0  0  0  0  0  0
  131.0090  132.5940   61.9660 O   0  0  0  0  0  0  0  0  0  0  0  0
  130.2830  129.1960   61.3300 C   0  0  1  0  0  0  0  0  0  0  0  0
  128.9780  129.7340   61.0930 O   0  0  0  0  0  0  0  0  0  0  0  0
  128.5930  130.9380   61.5690 C   0  0  0  0  0  0  0  0  0  0  0  0
  128.7700  131.0420   63.0780 C   0  0  0  0  0  0  0  0  0  0  0  0
  128.1430  131.8760   60.9100 O   0  0  0  0  0  0  0  0  0  0  0  0
  130.2970  127.6500   61.2960 C   0  0  1  0  0  0  0  0  0  0  0  0
  129.4710  127.0610   62.3030 O   0  0  0  0  0  0  0  0  0  0  0  0
  128.2310  127.5240   62.5720 C   0  0  0  0  0  0  0  0  0  0  0  0
  128.1200  128.0820   63.9850 C   0  0  0  0  0  0  0  0  0  0  0  0
  127.2660  127.5180   61.8060 O   0  0  0  0  0  0  0  0  0  0  0  0
  130.8050  124.7940   59.8440 C   0  0  0  0  0  0  0  0  0  0  0  0
  132.4130  125.1940   59.5120 S   0  0  0  0  0  0  0  0  0  0  0  0
  130.3900  123.3350   60.1600 C   0  0  1  0  0  0  0  0  0  0  0  0
  131.4870  122.4260   60.5700 C   0  0  0  0  0  0  0  0  0  0  0  0
  132.3410  121.7120   60.8880 N   0  0  0  0  0  0  0  0  0  0  0  0
  130.4900  124.6470   62.9160 C   0  0  0  0  0  0  0  0  0  0  0  0
  130.8630  124.9440   64.2240 C   0  0  0  0  0  0  0  0  0  0  0  0
  130.2961  125.4907   68.3368 H   0  0  0  0  0  0  0  0  0  0  0  0
  130.9204  126.4300   66.9387 H   0  0  0  0  0  0  0  0  0  0  0  0
  129.2238  125.8401   66.9387 H   0  0  0  0  0  0  0  0  0  0  0  0
  129.0992  122.5224   65.8517 H   0  0  0  0  0  0  0  0  0  0  0  0
  128.3920  122.0278   63.5255 H   0  0  0  0  0  0  0  0  0  0  0  0
  128.8732  122.2459   61.3042 H   0  0  0  0  0  0  0  0  0  0  0  0
  124.6148  124.1310   60.4962 H   0  0  0  0  0  0  0  0  0  0  0  0
  125.7864  124.8294   59.3274 H   0  0  0  0  0  0  0  0  0  0  0  0
  125.4628  123.0625   59.3274 H   0  0  0  0  0  0  0  0  0  0  0  0
  126.7165  126.6254   59.8019 H   0  0  0  0  0  0  0  0  0  0  0  0
  127.9162  126.8194   58.4791 H   0  0  0  0  0  0  0  0  0  0  0  0
  126.7989  125.4129   58.4791 H   0  0  0  0  0  0  0  0  0  0  0  0
  129.0305  127.5842   59.5270 H   0  0  0  0  0  0  0  0  0  0  0  0
  131.8840  129.3541   58.2363 H   0  0  0  0  0  0  0  0  0  0  0  0
  129.3284  128.9444   57.5192 H   0  0  0  0  0  0  0  0  0  0  0  0
  129.1317  130.1437   58.8645 H   0  0  0  0  0  0  0  0  0  0  0  0
  128.2986  131.9688   59.0376 H   0  0  0  0  0  0  0  0  0  0  0  0
  127.7163  132.8513   57.5854 H   0  0  0  0  0  0  0  0  0  0  0  0
  127.7656  131.0557   57.5854 H   0  0  0  0  0  0  0  0  0  0  0  0
  132.2755  129.3635   60.6058 H   0  0  0  0  0  0  0  0  0  0  0  0
  133.3786  131.7249   62.6764 H   0  0  0  0  0  0  0  0  0  0  0  0
  133.6048  130.8019   61.1521 H   0  0  0  0  0  0  0  0  0  0  0  0
  133.7709  132.5905   61.1521 H   0  0  0  0  0  0  0  0  0  0  0  0
  130.5759  129.5317   62.3357 H   0  0  0  0  0  0  0  0  0  0  0  0
  127.9266  130.5465   63.5811 H   0  0  0  0  0  0  0  0  0  0  0  0
  129.7106  130.5530   63.3714 H   0  0  0  0  0  0  0  0  0  0  0  0
  128.8006  132.1017   63.3714 H   0  0  0  0  0  0  0  0  0  0  0  0
  131.3068  127.2996   61.5558 H   0  0  0  0  0  0  0  0  0  0  0  0
  128.2810  127.2728   64.7125 H   0  0  0  0  0  0  0  0  0  0  0  0
  128.8803  128.8633   64.1315 H   0  0  0  0  0  0  0  0  0  0  0  0
  127.1185  128.5129   64.1315 H   0  0  0  0  0  0  0  0  0  0  0  0
  130.0499  122.9423   59.1904 H   0  0  0  0  0  0  0  0  0  0  0  0
  130.8963  125.2415   62.0844 H   0  0  0  0  0  0  0  0  0  0  0  0
  131.5531  125.7776   64.4211 H   0  0  0  0  0  0  0  0  0  0  0  0
  1  2  1  0
  2  3  1  0
  3  4  2  0
  4  5  1  0
  5  6  2  0
  6  7  1  0
  7  8  1  0
  8  9  1  0
  9 10  1  0
  9 11  2  0
  8 12  2  0
 12 13  1  0
 12 14  1  0
 14 15  1  0
 15 16  1  0
 16 17  1  0
 17 18  1  0
 18 19  1  0
 19 20  1  0
 20 21  1  0
 20 22  2  0
 17 23  1  0
 23 24  1  0
 24 25  1  0
 25 26  1  0
 25 27  2  0
 23 28  1  0
 28 29  1  0
 29 30  1  0
 30 31  1  0
 30 32  2  0
 28 33  1  0
 33 34  1  0
 34 35  1  0
 35 36  1  0
 35 37  2  0
 14 38  1  0
 38 39  2  0
 38 40  1  0
 40 41  1  0
 41 42  3  0
  6 43  1  0
 43 44  2  0
 44  3  1  0
 40  7  1  0
 33 15  1  0
  1 45  1  0
  1 46  1  0
  1 47  1  0
  4 48  1  0
  5 49  1  0
  7 50  1  1
 10 51  1  0
 10 52  1  0
 10 53  1  0
 13 54  1  0
 13 55  1  0
 13 56  1  0
 15 57  1  6
 17 58  1  6
 18 59  1  0
 18 60  1  0
 21 61  1  0
 21 62  1  0
 21 63  1  0
 23 64  1  1
 26 65  1  0
 26 66  1  0
 26 67  1  0
 28 68  1  1
 31 69  1  0
 31 70  1  0
 31 71  1  0
 33 72  1  1
 36 73  1  0
 36 74  1  0
 36 75  1  0
 40 76  1  6
 43 77  1  0
 44 78  1  0
M  END
>  <Binding energies>  (1) 
[-6.94]

>  <Ligand effiencies>  (1) 
[-0.15772727272727274]

>  <Interactions>  (1) 
["V-B:PRO:540:CA:9855, H-A:ALA:541:N:4891, V-B:GLU:543:CB:9878, V-A:PRO:540:C:4881, V-B:ALA:541:CB:9864, H-A:TYR:531:OH:4795, V-B:TYR:539:CE2:9848, V-A:TYR:484:CE2:4346, V-B:GLU:543:CG:9879, V-A:ASP:366:CG:3213, V-A:ASN:362:CB:3176, V-A:TYR:539:CD1:4873, H-B:ALA:541:N:9863, V-A:TYR:484:CZ:4347, V-B:PRO:540:CB:9857, V-A:GLU:543:CD:4908, V-A:HIS:456:CE1:4070, V-B:TYR:539:CD2:9846, V-A:GLU:543:CG:4907, V-B:GLU:543:CD:9880, V-A:ASP:366:CB:3212, H-A:TYR:539:N:4870, V-A:PRO:540:CB:4885, V-A:PRO:540:CA:4883, V-A:TYR:539:CE1:4875, H-A:TYR:484:OH:4348"]

$$$$
ZINC59778197
     RDKit          3D

 55 58  0  0  0  0  0  0  0  0999 V2000
  128.4640  127.0310   71.4820 C   0  0  0  0  0  0  0  0  0  0  0  0
  129.5890  127.5290   70.5840 C   0  0  0  0  0  0  0  0  0  0  0  0
  130.5740  128.4460   71.2890 C   0  0  0  0  0  0  0  0  0  0  0  0
  129.7430  127.2120   69.2800 C   0  0  0  0  0  0  0  0  0  0  0  0
  128.8670  126.3220   68.4120 C   0  0  0  0  0  0  0  0  0  0  0  0
  129.1470  126.5100   66.9170 C   0  0  0  0  0  0  0  0  0  0  0  0
  128.4810  127.5120   66.1950 C   0  0  0  0  0  0  0  0  0  0  0  0
  127.5820  128.3550   66.7990 O   0  0  0  0  0  0  0  0  0  0  0  0
  128.7270  127.6790   64.8380 C   0  0  0  0  0  0  0  0  0  0  0  0
  129.6360  126.8550   64.1840 C   0  0  0  0  0  0  0  0  0  0  0  0
  129.7960  127.1200   62.8340 O   0  0  0  0  0  0  0  0  0  0  0  0
  130.6890  126.3280   62.1670 C   0  0  0  0  0  0  0  0  0  0  0  0
  130.9150  126.5110   60.8380 O   0  0  0  0  0  0  0  0  0  0  0  0
  131.8460  125.5660   60.4980 C   0  0  0  0  0  0  0  0  0  0  0  0
  132.3850  125.3750   59.2140 C   0  0  0  0  0  0  0  0  0  0  0  0
  131.9790  126.2260   58.0160 C   0  0  0  0  0  0  0  0  0  0  0  0
  130.6000  125.8570   57.4890 C   0  0  0  0  0  0  0  0  0  0  0  0
  129.5410  126.6680   57.2730 C   0  0  0  0  0  0  0  0  0  0  0  0
  128.2330  126.1180   56.7270 C   0  0  0  0  0  0  0  0  0  0  0  0
  129.5140  128.1670   57.5400 C   0  0  0  0  0  0  0  0  0  0  0  0
  133.3350  124.3460   59.0920 C   0  0  0  0  0  0  0  0  0  0  0  0
  133.9310  124.0850   57.8850 O   0  0  0  0  0  0  0  0  0  0  0  0
  133.7080  123.5640   60.1880 C   0  0  0  0  0  0  0  0  0  0  0  0
  133.1610  123.7650   61.4560 C   0  0  0  0  0  0  0  0  0  0  0  0
  132.2120  124.7830   61.6250 C   0  0  0  0  0  0  0  0  0  0  0  0
  131.4350  125.3050   62.7090 C   0  0  0  0  0  0  0  0  0  0  0  0
  131.3270  124.9590   64.1190 C   0  0  0  0  0  0  0  0  0  0  0  0
  131.9750  124.0520   64.6400 O   0  0  0  0  0  0  0  0  0  0  0  0
  130.3360  125.8340   64.8740 C   0  0  0  0  0  0  0  0  0  0  0  0
  130.0730  125.6780   66.2550 C   0  0  0  0  0  0  0  0  0  0  0  0
  130.7210  124.7160   66.9960 O   0  0  0  0  0  0  0  0  0  0  0  0
  128.7523  127.1586   72.5359 H   0  0  0  0  0  0  0  0  0  0  0  0
  127.5501  127.6086   71.2793 H   0  0  0  0  0  0  0  0  0  0  0  0
  128.2772  125.9661   71.2793 H   0  0  0  0  0  0  0  0  0  0  0  0
  130.4595  128.3394   72.3778 H   0  0  0  0  0  0  0  0  0  0  0  0
  131.5998  128.1739   70.9998 H   0  0  0  0  0  0  0  0  0  0  0  0
  130.3759  129.4886   70.9998 H   0  0  0  0  0  0  0  0  0  0  0  0
  130.6167  127.6558   68.7803 H   0  0  0  0  0  0  0  0  0  0  0  0
  129.0566  125.2716   68.6780 H   0  0  0  0  0  0  0  0  0  0  0  0
  127.8187  126.6001   68.5955 H   0  0  0  0  0  0  0  0  0  0  0  0
  126.6720  128.0720   66.6910 H   0  0  0  0  0  0  0  0  0  0  0  0
  128.2005  128.4664   64.2787 H   0  0  0  0  0  0  0  0  0  0  0  0
  131.9710  127.2834   58.3192 H   0  0  0  0  0  0  0  0  0  0  0  0
  132.7071  126.0454   57.2115 H   0  0  0  0  0  0  0  0  0  0  0  0
  130.4454  124.7936   57.2537 H   0  0  0  0  0  0  0  0  0  0  0  0
  127.5742  125.8410   57.5632 H   0  0  0  0  0  0  0  0  0  0  0  0
  127.7411  126.8855   56.1114 H   0  0  0  0  0  0  0  0  0  0  0  0
  128.4373  125.2296   56.1114 H   0  0  0  0  0  0  0  0  0  0  0  0
  129.5108  128.3461   58.6253 H   0  0  0  0  0  0  0  0  0  0  0  0
  130.4039  128.6350   57.0938 H   0  0  0  0  0  0  0  0  0  0  0  0
  128.6079  128.6027   57.0938 H   0  0  0  0  0  0  0  0  0  0  0  0
  134.6170  124.7200   57.6650 H   0  0  0  0  0  0  0  0  0  0  0  0
  134.4537  122.7676   60.0475 H   0  0  0  0  0  0  0  0  0  0  0  0
  133.4682  123.1375   62.3056 H   0  0  0  0  0  0  0  0  0  0  0  0
  131.4600  124.3260   66.5260 H   0  0  0  0  0  0  0  0  0  0  0  0
  1  2  1  0
  2  3  1  0
  2  4  2  3
  4  5  1  0
  5  6  1  0
  6  7  2  0
  7  8  1  0
  7  9  1  0
  9 10  2  0
 10 11  1  0
 11 12  1  0
 12 13  1  0
 13 14  1  0
 14 15  2  0
 15 16  1  0
 16 17  1  0
 17 18  2  3
 18 19  1  0
 18 20  1  0
 15 21  1  0
 21 22  1  0
 21 23  2  0
 23 24  1  0
 24 25  2  0
 25 26  1  0
 26 27  1  0
 27 28  2  0
 27 29  1  0
 29 30  2  0
 30 31  1  0
 30  6  1  0
 29 10  1  0
 26 12  2  0
 25 14  1  0
  1 32  1  0
  1 33  1  0
  1 34  1  0
  3 35  1  0
  3 36  1  0
  3 37  1  0
  4 38  1  0
  5 39  1  0
  5 40  1  0
  8 41  1  0
  9 42  1  0
 16 43  1  0
 16 44  1  0
 17 45  1  0
 19 46  1  0
 19 47  1  0
 19 48  1  0
 20 49  1  0
 20 50  1  0
 20 51  1  0
 22 52  1  0
 23 53  1  0
 24 54  1  0
 31 55  1  0
M  END
>  <Binding energies>  (1) 
[-7.83]

>  <Ligand effiencies>  (1) 
[-0.23029411764705882]

>  <Interactions>  (1) 
["V-A:ILE:369:CG2:3237, V-A:ASP:366:CA:3210, V-B:GLU:543:C:9874, V-A:ILE:369:CB:3236, V-A:GLU:543:C:4902, V-B:GLU:543:CB:9878, V-B:TYR:539:CE2:9848, V-A:GLY:544:CA:4914, V-B:GLU:543:CG:9879, V-A:GLY:544:C:4912, V-A:ASP:366:CG:3213, V-B:TYR:539:CZ:9849, H-A:ASN:370:N:3244, H-B:TYR:539:OH:9850, V-A:GLU:543:CD:4908, V-B:GLU:543:CA:9876, V-A:ILE:369:CD1:3239, V-A:HIS:456:CE1:4070, V-B:GLU:543:CD:9880, V-A:ASP:366:CB:3212, H-A:ASP:366:O:3209, H-B:GLU:543:OE2:9882, H-A:TYR:484:OH:4348"]

$$$$
ZINC59778197-again1
     RDKit          3D

 54 57  0  0  0  0  0  0  0  0999 V2000
  128.4610  127.0410   71.5520 C   0  0  0  0  0  0  0  0  0  0  0  0
  129.5620  127.5550   70.6340 C   0  0  0  0  0  0  0  0  0  0  0  0
  130.5720  128.4510   71.3320 C   0  0  0  0  0  0  0  0  0  0  0  0
  129.6710  127.2750   69.3170 C   0  0  0  0  0  0  0  0  0  0  0  0
  128.7710  126.3980   68.4580 C   0  0  0  0  0  0  0  0  0  0  0  0
  129.1150  126.4890   66.9530 C   0  0  0  0  0  0  0  0  0  0  0  0
  128.4740  127.4810   66.1980 C   0  0  0  0  0  0  0  0  0  0  0  0
  127.5570  128.3370   66.7550 O   0  0  0  0  0  0  0  0  0  0  0  0
  128.7430  127.6260   64.8470 C   0  0  0  0  0  0  0  0  0  0  0  0
  129.6520  126.7910   64.2180 C   0  0  0  0  0  0  0  0  0  0  0  0
  129.8140  127.0650   62.8720 O   0  0  0  0  0  0  0  0  0  0  0  0
  130.7000  126.2800   62.1950 C   0  0  0  0  0  0  0  0  0  0  0  0
  130.9270  126.4840   60.8700 O   0  0  0  0  0  0  0  0  0  0  0  0
  131.8560  125.5430   60.5170 C   0  0  0  0  0  0  0  0  0  0  0  0
  132.3950  125.3720   59.2300 C   0  0  0  0  0  0  0  0  0  0  0  0
  131.9830  126.2510   58.0540 C   0  0  0  0  0  0  0  0  0  0  0  0
  130.6410  125.8390   57.4670 C   0  0  0  0  0  0  0  0  0  0  0  0
  129.5670  126.6180   57.2110 C   0  0  0  0  0  0  0  0  0  0  0  0
  128.3020  126.0360   56.6080 C   0  0  0  0  0  0  0  0  0  0  0  0
  129.4840  128.1130   57.4910 C   0  0  0  0  0  0  0  0  0  0  0  0
  133.3390  124.3390   59.0920 C   0  0  0  0  0  0  0  0  0  0  0  0
  133.9260  124.0800   57.8800 O   0  0  0  0  0  0  0  0  0  0  0  0
  133.7110  123.5400   60.1770 C   0  0  0  0  0  0  0  0  0  0  0  0
  133.1650  123.7240   61.4480 C   0  0  0  0  0  0  0  0  0  0  0  0
  132.2170  124.7420   61.6310 C   0  0  0  0  0  0  0  0  0  0  0  0
  131.4390  125.2500   62.7220 C   0  0  0  0  0  0  0  0  0  0  0  0
  131.3280  124.8870   64.1260 C   0  0  0  0  0  0  0  0  0  0  0  0
  131.9800  123.9640   64.6130 O   0  0  0  0  0  0  0  0  0  0  0  0
  130.3370  125.7600   64.9180 C   0  0  0  0  0  0  0  0  0  0  0  0
  130.0460  125.6190   66.3140 C   0  0  0  0  0  0  0  0  0  0  0  0
  130.6050  124.7090   67.0280 O   0  0  0  0  0  0  0  0  0  0  0  0
  128.7624  127.1817   72.6005 H   0  0  0  0  0  0  0  0  0  0  0  0
  127.5327  127.5988   71.3593 H   0  0  0  0  0  0  0  0  0  0  0  0
  128.2926  125.9712   71.3593 H   0  0  0  0  0  0  0  0  0  0  0  0
  130.4594  128.3511   72.4216 H   0  0  0  0  0  0  0  0  0  0  0  0
  131.5898  128.1533   71.0398 H   0  0  0  0  0  0  0  0  0  0  0  0
  130.3978  129.4971   71.0398 H   0  0  0  0  0  0  0  0  0  0  0  0
  130.5210  127.7416   68.7976 H   0  0  0  0  0  0  0  0  0  0  0  0
  128.8831  125.3530   68.7827 H   0  0  0  0  0  0  0  0  0  0  0  0
  127.7379  126.7534   68.5862 H   0  0  0  0  0  0  0  0  0  0  0  0
  126.6510  128.0740   66.5840 H   0  0  0  0  0  0  0  0  0  0  0  0
  128.2312  128.4098   64.2694 H   0  0  0  0  0  0  0  0  0  0  0  0
  131.9132  127.2932   58.3988 H   0  0  0  0  0  0  0  0  0  0  0  0
  132.7433  126.1381   57.2671 H   0  0  0  0  0  0  0  0  0  0  0  0
  130.5313  124.7727   57.2199 H   0  0  0  0  0  0  0  0  0  0  0  0
  127.6219  125.7231   57.4140 H   0  0  0  0  0  0  0  0  0  0  0  0
  127.8081  126.7974   55.9864 H   0  0  0  0  0  0  0  0  0  0  0  0
  128.5589  125.1656   55.9864 H   0  0  0  0  0  0  0  0  0  0  0  0
  129.4746  128.2825   58.5778 H   0  0  0  0  0  0  0  0  0  0  0  0
  130.3555  128.6178   57.0487 H   0  0  0  0  0  0  0  0  0  0  0  0
  128.5620  128.5183   57.0487 H   0  0  0  0  0  0  0  0  0  0  0  0
  134.6390  124.6870   57.6740 H   0  0  0  0  0  0  0  0  0  0  0  0
  134.4548  122.7441   60.0247 H   0  0  0  0  0  0  0  0  0  0  0  0
  133.4714  123.0843   62.2888 H   0  0  0  0  0  0  0  0  0  0  0  0
  1  2  1  0
  2  3  1  0
  2  4  2  3
  4  5  1  0
  5  6  1  0
  6  7  2  0
  7  8  1  0
  7  9  1  0
  9 10  2  0
 10 11  1  0
 11 12  1  0
 12 13  1  0
 13 14  1  0
 14 15  2  0
 15 16  1  0
 16 17  1  0
 17 18  2  3
 18 19  1  0
 18 20  1  0
 15 21  1  0
 21 22  1  0
 21 23  2  0
 23 24  1  0
 24 25  2  0
 25 26  1  0
 26 27  1  0
 27 28  2  0
 27 29  1  0
 29 30  2  0
 30 31  1  0
 30  6  1  0
 29 10  1  0
 26 12  2  0
 25 14  1  0
  1 32  1  0
  1 33  1  0
  1 34  1  0
  3 35  1  0
  3 36  1  0
  3 37  1  0
  4 38  1  0
  5 39  1  0
  5 40  1  0
  8 41  1  0
  9 42  1  0
 16 43  1  0
 16 44  1  0
 17 45  1  0
 19 46  1  0
 19 47  1  0
 19 48  1  0
 20 49  1  0
 20 50  1  0
 20 51  1  0
 22 52  1  0
 23 53  1  0
 24 54  1  0
M  CHG  1  31  -1
M  END
>  <Binding energies>  (1) 
[-6.51]

>  <Ligand effiencies>  (1) 
[-0.19727272727272727]

>  <Interactions>  (1) 
["V-A:ILE:369:CG2:3237, V-A:ASP:366:CA:3210, V-B:GLU:543:C:9874, V-A:ILE:369:CB:3236, V-A:GLU:543:C:4902, V-B:GLU:543:CB:9878, V-B:TYR:539:CE2:9848, V-A:GLY:544:CA:4914, V-B:GLU:543:CG:9879, V-A:GLY:544:C:4912, V-A:ASP:366:CG:3213, V-B:TYR:539:CZ:9849, H-A:ASN:370:N:3244, H-B:TYR:539:OH:9850, V-A:GLU:543:CD:4908, V-B:GLU:543:CA:9876, V-A:ILE:369:CD1:3239, V-A:HIS:456:CE1:4070, V-B:GLU:543:CD:9880, V-A:ASP:366:CB:3212, H-A:ASP:366:O:3209, H-B:GLU:543:OE2:9882, H-A:TYR:484:OH:4348"]

$$$$
ZINC59778392
     RDKit          3D

 50 52  0  0  0  0  0  0  0  0999 V2000
  130.2440  120.4470   61.2700 C   0  0  0  0  0  0  0  0  0  0  0  0
  129.1630  121.5250   61.4010 C   0  0  0  0  0  0  0  0  0  0  0  0
  129.7620  122.7970   61.1810 O   0  0  0  0  0  0  0  0  0  0  0  0
  130.5640  123.3540   62.1610 C   0  0  0  0  0  0  0  0  0  0  0  0
  130.1010  123.7310   63.4340 C   0  0  0  0  0  0  0  0  0  0  0  0
  130.9630  124.2930   64.3780 C   0  0  0  0  0  0  0  0  0  0  0  0
  130.4420  124.6510   65.7130 C   0  0  0  0  0  0  0  0  0  0  0  0
  129.6860  125.7180   66.1240 C   0  0  0  0  0  0  0  0  0  0  0  0
  129.4510  125.8550   67.5730 C   0  0  0  0  0  0  0  0  0  0  0  0
  129.6220  124.9200   68.3680 O   0  0  0  0  0  0  0  0  0  0  0  0
  129.0250  127.1130   67.9690 N   0  0  0  0  0  0  0  0  0  0  0  0
  128.9090  127.3340   69.3660 C   0  0  0  0  0  0  0  0  0  0  0  0
  129.9710  127.9150   70.0690 C   0  0  0  0  0  0  0  0  0  0  0  0
  129.8560  128.1320   71.4390 C   0  0  0  0  0  0  0  0  0  0  0  0
  128.6840  127.7680   72.1010 C   0  0  0  0  0  0  0  0  0  0  0  0
  128.5440  128.0380   73.8010 Cl  0  0  0  0  0  0  0  0  0  0  0  0
  127.6250  127.1870   71.4050 C   0  0  0  0  0  0  0  0  0  0  0  0
  127.7340  126.9690   70.0350 C   0  0  0  0  0  0  0  0  0  0  0  0
  128.7000  128.1600   67.1100 C   0  0  0  0  0  0  0  0  0  0  0  0
  128.4690  129.2760   67.5830 O   0  0  0  0  0  0  0  0  0  0  0  0
  128.6370  127.8640   65.7370 N   0  0  0  0  0  0  0  0  0  0  0  0
  129.1080  126.7690   65.2700 C   0  0  0  0  0  0  0  0  0  0  0  0
  128.9170  126.5970   64.0550 O   0  0  0  0  0  0  0  0  0  0  0  0
  132.3130  124.4570   64.0550 C   0  0  0  0  0  0  0  0  0  0  0  0
  132.7900  124.0880   62.8000 C   0  0  0  0  0  0  0  0  0  0  0  0
  134.6350  124.3360   62.3940 Br  0  0  0  0  0  0  0  0  0  0  0  0
  131.9190  123.5430   61.8510 C   0  0  0  0  0  0  0  0  0  0  0  0
  132.4040  123.1780   60.6200 O   0  0  0  0  0  0  0  0  0  0  0  0
  132.3350  124.2130   59.6450 C   0  0  0  0  0  0  0  0  0  0  0  0
  133.6460  124.2990   58.8590 C   0  0  0  0  0  0  0  0  0  0  0  0
  134.7340  123.9980   59.3570 O   0  0  0  0  0  0  0  0  0  0  0  0
  133.4460  124.7330   57.5980 O   0  0  0  0  0  0  0  0  0  0  0  0
  132.6570  125.8880   57.3500 C   0  0  0  0  0  0  0  0  0  0  0  0
  130.5655  120.1264   62.2719 H   0  0  0  0  0  0  0  0  0  0  0  0
  129.8371  119.5844   60.7220 H   0  0  0  0  0  0  0  0  0  0  0  0
  131.1055  120.8563   60.7220 H   0  0  0  0  0  0  0  0  0  0  0  0
  128.3747  121.3522   60.6535 H   0  0  0  0  0  0  0  0  0  0  0  0
  128.7155  121.4887   62.4052 H   0  0  0  0  0  0  0  0  0  0  0  0
  129.0420  123.5807   63.6906 H   0  0  0  0  0  0  0  0  0  0  0  0
  130.7050  123.9420   66.5118 H   0  0  0  0  0  0  0  0  0  0  0  0
  130.8930  128.1990   69.5406 H   0  0  0  0  0  0  0  0  0  0  0  0
  130.6864  128.5889   71.9973 H   0  0  0  0  0  0  0  0  0  0  0  0
  126.7057  126.9017   71.9374 H   0  0  0  0  0  0  0  0  0  0  0  0
  126.9013  126.5122   69.4801 H   0  0  0  0  0  0  0  0  0  0  0  0
  133.0042  124.8810   64.7983 H   0  0  0  0  0  0  0  0  0  0  0  0
  131.5096  124.0006   58.9497 H   0  0  0  0  0  0  0  0  0  0  0  0
  132.1637  125.1718   60.1562 H   0  0  0  0  0  0  0  0  0  0  0  0
  132.3512  126.3356   58.3072 H   0  0  0  0  0  0  0  0  0  0  0  0
  133.2460  126.6180   56.7754 H   0  0  0  0  0  0  0  0  0  0  0  0
  131.7628  125.6048   56.7754 H   0  0  0  0  0  0  0  0  0  0  0  0
  1  2  1  0
  2  3  1  0
  3  4  1  0
  4  5  2  0
  5  6  1  0
  6  7  1  0
  7  8  2  0
  8  9  1  0
  9 10  2  0
  9 11  1  0
 11 12  1  0
 12 13  2  0
 13 14  1  0
 14 15  2  0
 15 16  1  0
 15 17  1  0
 17 18  2  0
 11 19  1  0
 19 20  2  0
 19 21  1  0
 21 22  2  0
 22 23  1  0
  6 24  2  0
 24 25  1  0
 25 26  1  0
 25 27  2  0
 27 28  1  0
 28 29  1  0
 29 30  1  0
 30 31  2  0
 30 32  1  0
 32 33  1  0
 27  4  1  0
 22  8  1  0
 18 12  1  0
  1 34  1  0
  1 35  1  0
  1 36  1  0
  2 37  1  0
  2 38  1  0
  5 39  1  0
  7 40  1  0
 13 41  1  0
 14 42  1  0
 17 43  1  0
 18 44  1  0
 24 45  1  0
 29 46  1  0
 29 47  1  0
 33 48  1  0
 33 49  1  0
 33 50  1  0
M  CHG  1  23  -1
M  END
>  <Binding energies>  (1) 
[-6.65]

>  <Ligand effiencies>  (1) 
[-0.20151515151515154]

>  <Interactions>  (1) 
["V-A:ILE:369:CG2:3237, V-A:ASP:366:CA:3210, V-B:PRO:540:CA:9855, V-B:GLU:543:C:9874, V-B:HIS:456:CD2:9039, V-A:GLU:543:C:4902, V-A:ILE:369:CB:3236, V-B:GLU:543:CB:9878, V-B:ALA:541:CB:9864, V-B:TYR:539:CE2:9848, V-A:TYR:484:CE2:4346, V-B:GLU:543:CG:9879, H-B:TYR:539:OH:9850, V-A:TYR:484:CZ:4347, V-A:GLU:543:CD:4908, V-B:GLU:543:CA:9876, V-B:HIS:456:CE1:9041, V-A:GLY:453:C:4042, V-A:ILE:369:CD1:3239, V-A:HIS:456:CE1:4070, V-B:GLY:544:C:9884, V-A:ASP:366:C:3208, V-B:TYR:539:CD2:9846, V-A:GLU:543:CG:4907, V-A:TYR:531:CZ:4794, V-B:GLU:543:CD:9880, V-A:ASP:366:CB:3212, V-A:LEU:475:CD2:4259, V-A:GLU:543:CB:4906, V-A:GLY:453:CA:4044, V-B:PRO:540:C:9853"]

$$$$
ZINC6009015-again1
     RDKit          3D

 35 37  0  0  0  0  0  0  0  0999 V2000
  133.0330  125.1060   65.3270 C   0  0  0  0  0  0  0  0  0  0  0  0
  133.5790  124.7170   64.0710 O   0  0  0  0  0  0  0  0  0  0  0  0
  132.7380  124.2050   63.1010 C   0  0  0  0  0  0  0  0  0  0  0  0
  132.1420  122.9740   63.3800 C   0  0  0  0  0  0  0  0  0  0  0  0
  131.2820  122.3790   62.4620 C   0  0  0  0  0  0  0  0  0  0  0  0
  130.9970  123.0210   61.2560 C   0  0  0  0  0  0  0  0  0  0  0  0
  130.0920  122.3550   60.2300 C   0  0  0  0  0  0  0  0  0  0  0  0
  128.6980  122.8130   60.2950 N   0  0  0  0  0  0  0  0  0  0  0  0
  127.9560  122.6940   61.4210 C   0  0  0  0  0  0  0  0  0  0  0  0
  128.3410  122.2540   62.5070 O   0  0  0  0  0  0  0  0  0  0  0  0
  126.6010  123.1920   61.0860 C   0  0  0  0  0  0  0  0  0  0  0  0
  125.5630  123.2790   61.8370 N   0  0  0  0  0  0  0  0  0  0  0  0
  125.7080  122.8470   63.1700 O   0  0  0  0  0  0  0  0  0  0  0  0
  126.6690  123.5750   59.6910 C   0  0  0  0  0  0  0  0  0  0  0  0
  125.7240  124.1080   58.8070 C   0  0  0  0  0  0  0  0  0  0  0  0
  126.0870  124.3830   57.4870 C   0  0  0  0  0  0  0  0  0  0  0  0
  127.3900  124.1290   57.0510 C   0  0  0  0  0  0  0  0  0  0  0  0
  128.3330  123.5990   57.9330 C   0  0  0  0  0  0  0  0  0  0  0  0
  127.9520  123.3220   59.2500 C   0  0  0  0  0  0  0  0  0  0  0  0
  131.6040  124.2420   60.9580 C   0  0  0  0  0  0  0  0  0  0  0  0
  132.4640  124.8370   61.8760 C   0  0  0  0  0  0  0  0  0  0  0  0
  133.6375  124.6753   66.1388 H   0  0  0  0  0  0  0  0  0  0  0  0
  133.0410  126.2031   65.4063 H   0  0  0  0  0  0  0  0  0  0  0  0
  131.9987  124.7401   65.4063 H   0  0  0  0  0  0  0  0  0  0  0  0
  132.3541  122.4696   64.3343 H   0  0  0  0  0  0  0  0  0  0  0  0
  130.8270  121.4031   62.6868 H   0  0  0  0  0  0  0  0  0  0  0  0
  130.4840  122.5735   59.2257 H   0  0  0  0  0  0  0  0  0  0  0  0
  130.0897  121.2774   60.4510 H   0  0  0  0  0  0  0  0  0  0  0  0
  126.5540  123.2310   63.4140 H   0  0  0  0  0  0  0  0  0  0  0  0
  124.6988  124.3096   59.1509 H   0  0  0  0  0  0  0  0  0  0  0  0
  125.3460  124.8003   56.7893 H   0  0  0  0  0  0  0  0  0  0  0  0
  127.6731  124.3472   56.0107 H   0  0  0  0  0  0  0  0  0  0  0  0
  129.3617  123.4018   57.5970 H   0  0  0  0  0  0  0  0  0  0  0  0
  131.4022  124.7349   59.9956 H   0  0  0  0  0  0  0  0  0  0  0  0
  132.9309  125.8052   61.6421 H   0  0  0  0  0  0  0  0  0  0  0  0
  1  2  1  0
  2  3  1  0
  3  4  2  0
  4  5  1  0
  5  6  2  0
  6  7  1  0
  7  8  1  0
  8  9  1  0
  9 10  2  0
  9 11  1  0
 11 12  2  0
 12 13  1  0
 11 14  1  0
 14 15  2  0
 15 16  1  0
 16 17  2  0
 17 18  1  0
 18 19  2  0
  6 20  1  0
 20 21  2  0
 21  3  1  0
 19  8  1  0
 19 14  1  0
  1 22  1  0
  1 23  1  0
  1 24  1  0
  4 25  1  0
  5 26  1  0
  7 27  1  0
  7 28  1  0
 13 29  1  0
 15 30  1  0
 16 31  1  0
 17 32  1  0
 18 33  1  0
 20 34  1  0
 21 35  1  0
M  END
>  <Binding energies>  (1) 
[-6.59]

>  <Ligand effiencies>  (1) 
[-0.29954545454545456]

>  <Interactions>  (1) 
["V-B:PRO:540:CA:9855, V-B:TYR:539:CZ:9849, H-B:GLU:543:OE1:9881, V-B:TYR:539:CD2:9846, H-A:ARG:545:NE:4924, H-B:ALA:541:N:9863, V-A:ARG:545:CZ:4926, V-B:PRO:540:C:9853, V-B:TYR:539:CE2:9848, V-B:PRO:540:CB:9857, V-A:ARG:545:CD:4923, V-A:LEU:475:CD2:4259, H-A:ARG:545:NH2:4928, H-B:ALA:541:O:9861, H-A:GLY:454:N:4050, H-A:TYR:484:OH:4348"]

$$$$
ZINC604404847
     RDKit          3D

 64 67  0  0  0  0  0  0  0  0999 V2000
  126.8540  134.0770   61.0520 C   0  0  0  0  0  0  0  0  0  0  0  0
  127.9700  133.5740   61.8410 N   0  0  0  0  0  0  0  0  0  0  0  0
  128.7550  132.4680   61.4460 C   0  0  0  0  0  0  0  0  0  0  0  0
  129.5140  132.5300   60.2640 C   0  0  0  0  0  0  0  0  0  0  0  0
  130.3170  131.4660   59.8660 C   0  0  0  0  0  0  0  0  0  0  0  0
  130.3910  130.3120   60.6390 C   0  0  0  0  0  0  0  0  0  0  0  0
  131.2000  129.2550   60.1900 N   0  0  0  0  0  0  0  0  0  0  0  0
  131.0320  127.8910   60.3630 C   0  0  0  0  0  0  0  0  0  0  0  0
  130.9890  127.0760   59.2860 C   0  0  0  0  0  0  0  0  0  0  0  0
  130.9580  125.6180   59.3560 C   0  0  0  0  0  0  0  0  0  0  0  0
  130.9180  124.9460   58.3240 O   0  0  0  0  0  0  0  0  0  0  0  0
  131.0060  124.9890   60.7760 C   0  0  2  0  0  0  0  0  0  0  0  0
  131.7670  123.7870   60.6340 O   0  0  0  0  0  0  0  0  0  0  0  0
  130.9470  122.7340   60.9480 C   0  0  0  0  0  0  0  0  0  0  0  0
  131.3460  121.4000   60.9270 C   0  0  0  0  0  0  0  0  0  0  0  0
  132.9660  120.9890   60.4770 Cl  0  0  0  0  0  0  0  0  0  0  0  0
  130.4220  120.4030   61.2760 C   0  0  0  0  0  0  0  0  0  0  0  0
  130.8620  119.0910   61.2420 O   0  0  0  0  0  0  0  0  0  0  0  0
  129.9710  118.0440   61.6110 C   0  0  0  0  0  0  0  0  0  0  0  0
  129.1130  120.7830   61.6390 C   0  0  0  0  0  0  0  0  0  0  0  0
  128.7220  122.1350   61.6580 C   0  0  0  0  0  0  0  0  0  0  0  0
  127.4620  122.5890   62.0010 O   0  0  0  0  0  0  0  0  0  0  0  0
  126.6590  123.2170   61.0090 C   0  0  0  0  0  0  0  0  0  0  0  0
  129.6640  123.1040   61.3040 C   0  0  0  0  0  0  0  0  0  0  0  0
  129.5920  124.5670   61.2170 C   0  0  0  0  0  0  0  0  0  0  0  0
  128.6280  125.2950   61.4540 O   0  0  0  0  0  0  0  0  0  0  0  0
  131.7250  125.9130   61.8160 C   0  0  2  0  0  0  0  0  0  0  0  0
  131.8260  125.4000   63.2690 C   0  0  0  0  0  0  0  0  0  0  0  0
  131.1540  127.3560   61.7990 C   0  0  0  0  0  0  0  0  0  0  0  0
  129.6230  130.2290   61.8050 C   0  0  0  0  0  0  0  0  0  0  0  0
  128.8170  131.2940   62.2400 C   0  0  0  0  0  0  0  0  0  0  0  0
  127.9820  131.1170   63.5040 C   0  0  0  0  0  0  0  0  0  0  0  0
  127.9710  132.0250   64.3400 O   0  0  0  0  0  0  0  0  0  0  0  0
  127.2350  129.9910   63.6630 N   0  0  0  0  0  0  0  0  0  0  0  0
  127.4820  128.7110   62.9910 C   0  0  0  0  0  0  0  0  0  0  0  0
  126.1390  129.9210   64.6330 C   0  0  0  0  0  0  0  0  0  0  0  0
  126.0608  134.4345   61.7251 H   0  0  0  0  0  0  0  0  0  0  0  0
  127.1982  134.9070   60.4175 H   0  0  0  0  0  0  0  0  0  0  0  0
  126.4601  133.2694   60.4175 H   0  0  0  0  0  0  0  0  0  0  0  0
  128.0460  133.8880   62.7980 H   0  0  0  0  0  0  0  0  0  0  0  0
  129.4721  133.4366   59.6425 H   0  0  0  0  0  0  0  0  0  0  0  0
  130.8971  131.5378   58.9341 H   0  0  0  0  0  0  0  0  0  0  0  0
  132.0190  129.5680   59.6910 H   0  0  0  0  0  0  0  0  0  0  0  0
  130.9765  127.5423   58.2898 H   0  0  0  0  0  0  0  0  0  0  0  0
  129.9157  117.9790   62.7077 H   0  0  0  0  0  0  0  0  0  0  0  0
  128.9704  118.2540   61.2052 H   0  0  0  0  0  0  0  0  0  0  0  0
  130.3384  117.0899   61.2052 H   0  0  0  0  0  0  0  0  0  0  0  0
  128.3830  120.0070   61.9128 H   0  0  0  0  0  0  0  0  0  0  0  0
  125.8823  123.8245   61.4965 H   0  0  0  0  0  0  0  0  0  0  0  0
  127.2902  123.8636   60.3817 H   0  0  0  0  0  0  0  0  0  0  0  0
  126.1836  122.4486   60.3817 H   0  0  0  0  0  0  0  0  0  0  0  0
  132.7635  125.9027   61.4535 H   0  0  0  0  0  0  0  0  0  0  0  0
  131.6615  126.2356   63.9652 H   0  0  0  0  0  0  0  0  0  0  0  0
  131.0630  124.6260   63.4384 H   0  0  0  0  0  0  0  0  0  0  0  0
  132.8255  124.9730   63.4384 H   0  0  0  0  0  0  0  0  0  0  0  0
  130.1581  127.3529   62.2661 H   0  0  0  0  0  0  0  0  0  0  0  0
  131.8426  128.0087   62.3556 H   0  0  0  0  0  0  0  0  0  0  0  0
  129.6510  129.3032   62.3984 H   0  0  0  0  0  0  0  0  0  0  0  0
  127.6338  127.9244   63.7448 H   0  0  0  0  0  0  0  0  0  0  0  0
  126.6169  128.4541   62.3621 H   0  0  0  0  0  0  0  0  0  0  0  0
  128.3806  128.7945   62.3621 H   0  0  0  0  0  0  0  0  0  0  0  0
  126.5499  129.9472   65.6530 H   0  0  0  0  0  0  0  0  0  0  0  0
  125.4649  130.7779   64.4871 H   0  0  0  0  0  0  0  0  0  0  0  0
  125.5794  128.9853   64.4871 H   0  0  0  0  0  0  0  0  0  0  0  0
  1  2  1  0
  2  3  1  0
  3  4  2  0
  4  5  1  0
  5  6  2  0
  6  7  1  0
  7  8  1  0
  8  9  2  0
  9 10  1  0
 10 11  2  0
 10 12  1  0
 12 13  1  6
 13 14  1  0
 14 15  2  0
 15 16  1  0
 15 17  1  0
 17 18  1  0
 18 19  1  0
 17 20  2  0
 20 21  1  0
 21 22  1  0
 22 23  1  0
 21 24  2  0
 24 25  1  0
 25 26  2  0
 12 27  1  0
 27 28  1  0
 27 29  1  0
  6 30  1  0
 30 31  2  0
 31 32  1  0
 32 33  2  0
 32 34  1  0
 34 35  1  0
 34 36  1  0
 31  3  1  0
 29  8  1  0
 25 12  1  0
 24 14  1  0
  1 37  1  0
  1 38  1  0
  1 39  1  0
  2 40  1  0
  4 41  1  0
  5 42  1  0
  7 43  1  0
  9 44  1  0
 19 45  1  0
 19 46  1  0
 19 47  1  0
 20 48  1  0
 23 49  1  0
 23 50  1  0
 23 51  1  0
 27 52  1  6
 28 53  1  0
 28 54  1  0
 28 55  1  0
 29 56  1  0
 29 57  1  0
 30 58  1  0
 35 59  1  0
 35 60  1  0
 35 61  1  0
 36 62  1  0
 36 63  1  0
 36 64  1  0
M  END
>  <Binding energies>  (1) 
[-6.99]

>  <Ligand effiencies>  (1) 
[-0.18394736842105264]

>  <Interactions>  (1) 
["V-A:ILE:369:CG2:3237, V-B:PRO:540:CA:9855, V-B:ALA:541:CB:9864, V-B:TYR:539:CE2:9848, V-A:LEU:475:CG:4257, V-B:LEU:475:CD2:9230, V-B:TYR:539:C:9839, V-A:ASP:366:CG:3213, V-A:TYR:539:CD1:4873, H-B:TYR:539:OH:9850, V-A:ALA:541:CB:4892, H-B:ALA:541:N:9863, V-A:LEU:475:CD1:4258, V-A:GLU:543:CD:4908, V-B:PRO:540:CB:9857, H-B:TYR:484:OH:9319, V-A:PRO:482:CB:4326, V-B:TYR:539:CD2:9846, H-A:SER:385:OG:3410, V-B:GLU:543:CD:9880, V-A:LEU:475:CD2:4259, V-A:ARG:545:CZ:4926, H-A:HIS:383:HE2:3395, V-A:PRO:540:N:4884, V-A:PRO:540:CA:4883, V-B:PRO:540:C:9853, H-A:ASP:366:OD2:3215, V-B:ALA:541:CA:9862, V-A:TYR:539:CE1:4875"]

$$$$
ZINC6052080
     RDKit          3D

 57 58  0  0  0  0  0  0  0  0999 V2000
  129.9910  126.9470   61.6430 C   0  0  0  0  0  0  0  0  0  0  0  0
  131.4410  126.5900   62.0050 C   0  0  0  0  0  0  0  0  0  0  0  0
  131.7590  125.0720   61.9400 C   0  0  1  0  0  0  0  0  0  0  0  0
  133.0830  124.7490   61.2050 C   0  0  0  0  0  0  0  0  0  0  0  0
  131.6280  124.3880   63.2580 N   0  0  0  0  0  0  0  0  0  0  0  0
  132.5070  124.6130   64.2820 C   0  0  0  0  0  0  0  0  0  0  0  0
  133.7110  124.3660   64.1770 O   0  0  0  0  0  0  0  0  0  0  0  0
  131.9880  125.2090   65.6130 C   0  0  0  0  0  0  0  0  0  0  0  0
  130.5580  125.1230   65.6860 O   0  0  0  0  0  0  0  0  0  0  0  0
  129.8240  125.6550   66.7100 C   0  0  0  0  0  0  0  0  0  0  0  0
  129.7600  125.1270   67.8240 O   0  0  0  0  0  0  0  0  0  0  0  0
  129.0670  126.9090   66.3140 C   0  0  0  0  0  0  0  0  0  0  0  0
  129.0010  127.2390   64.9440 C   0  0  0  0  0  0  0  0  0  0  0  0
  128.3480  128.3810   64.5010 C   0  0  0  0  0  0  0  0  0  0  0  0
  127.7440  129.2280   65.4160 C   0  0  0  0  0  0  0  0  0  0  0  0
  127.7970  128.9270   66.7720 C   0  0  0  0  0  0  0  0  0  0  0  0
  128.4480  127.7730   67.2650 C   0  0  0  0  0  0  0  0  0  0  0  0
  128.4840  127.4610   68.6460 N   0  0  0  0  0  0  0  0  0  0  0  0
  129.5310  127.7780   69.2940 N   0  0  0  0  0  0  0  0  0  0  0  0
  129.5420  127.4560   70.6740 N   0  0  0  0  0  0  0  0  0  0  0  0
  128.3490  126.9990   71.3900 C   0  0  0  0  0  0  0  0  0  0  0  0
  130.5790  128.0810   71.4800 C   0  0  0  0  0  0  0  0  0  0  0  0
  130.5310  123.3940   63.3650 C   0  0  2  0  0  0  0  0  0  0  0  0
  130.6330  122.2780   62.2850 C   0  0  0  0  0  0  0  0  0  0  0  0
  129.2550  121.6700   61.9990 C   0  0  0  0  0  0  0  0  0  0  0  0
  128.1530  123.1790   61.9510 S   0  0  0  0  0  0  0  0  0  0  0  0
  128.3550  123.8840   60.6820 O   0  0  0  0  0  0  0  0  0  0  0  0
  126.8020  122.8480   62.4150 O   0  0  0  0  0  0  0  0  0  0  0  0
  129.1220  124.0460   63.3030 C   0  0  0  0  0  0  0  0  0  0  0  0
  129.4077  127.0906   62.5645 H   0  0  0  0  0  0  0  0  0  0  0  0
  129.9783  127.8751   61.0527 H   0  0  0  0  0  0  0  0  0  0  0  0
  129.5489  126.1309   61.0527 H   0  0  0  0  0  0  0  0  0  0  0  0
  132.1097  127.1126   61.3052 H   0  0  0  0  0  0  0  0  0  0  0  0
  131.5907  126.8993   63.0499 H   0  0  0  0  0  0  0  0  0  0  0  0
  130.9711  124.6370   61.3076 H   0  0  0  0  0  0  0  0  0  0  0  0
  133.8748  124.5558   61.9438 H   0  0  0  0  0  0  0  0  0  0  0  0
  132.9445  123.8583   60.5745 H   0  0  0  0  0  0  0  0  0  0  0  0
  133.3703  125.6034   60.5745 H   0  0  0  0  0  0  0  0  0  0  0  0
  132.4263  124.6507   66.4534 H   0  0  0  0  0  0  0  0  0  0  0  0
  132.2807  126.2682   65.6630 H   0  0  0  0  0  0  0  0  0  0  0  0
  129.4788  126.5749   64.2087 H   0  0  0  0  0  0  0  0  0  0  0  0
  128.3102  128.6129   63.4264 H   0  0  0  0  0  0  0  0  0  0  0  0
  127.2250  130.1344   65.0710 H   0  0  0  0  0  0  0  0  0  0  0  0
  127.3155  129.6107   67.4866 H   0  0  0  0  0  0  0  0  0  0  0  0
  128.5238  127.0660   72.4740 H   0  0  0  0  0  0  0  0  0  0  0  0
  127.4923  127.6326   71.1169 H   0  0  0  0  0  0  0  0  0  0  0  0
  128.1348  125.9552   71.1169 H   0  0  0  0  0  0  0  0  0  0  0  0
  130.3482  127.9419   72.5465 H   0  0  0  0  0  0  0  0  0  0  0  0
  131.5501  127.6176   71.2515 H   0  0  0  0  0  0  0  0  0  0  0  0
  130.6229  129.1561   71.2515 H   0  0  0  0  0  0  0  0  0  0  0  0
  130.6568  122.9357   64.3571 H   0  0  0  0  0  0  0  0  0  0  0  0
  131.0363  122.7098   61.3572 H   0  0  0  0  0  0  0  0  0  0  0  0
  131.2976  121.4852   62.6588 H   0  0  0  0  0  0  0  0  0  0  0  0
  129.2461  121.1399   61.0352 H   0  0  0  0  0  0  0  0  0  0  0  0
  128.9424  120.9208   62.7413 H   0  0  0  0  0  0  0  0  0  0  0  0
  129.2145  125.1170   63.0699 H   0  0  0  0  0  0  0  0  0  0  0  0
  128.6080  123.9465   64.2704 H   0  0  0  0  0  0  0  0  0  0  0  0
  1  2  1  0
  2  3  1  0
  3  4  1  0
  3  5  1  0
  5  6  1  0
  6  7  2  0
  6  8  1  0
  8  9  1  0
  9 10  1  0
 10 11  2  0
 10 12  1  0
 12 13  2  0
 13 14  1  0
 14 15  2  0
 15 16  1  0
 16 17  2  0
 17 18  1  0
 18 19  2  0
 19 20  1  0
 20 21  1  0
 20 22  1  0
  5 23  1  0
 23 24  1  0
 24 25  1  0
 25 26  1  0
 26 27  2  0
 26 28  2  0
 26 29  1  0
 17 12  1  0
 29 23  1  0
  1 30  1  0
  1 31  1  0
  1 32  1  0
  2 33  1  0
  2 34  1  0
  3 35  1  6
  4 36  1  0
  4 37  1  0
  4 38  1  0
  8 39  1  0
  8 40  1  0
 13 41  1  0
 14 42  1  0
 15 43  1  0
 16 44  1  0
 21 45  1  0
 21 46  1  0
 21 47  1  0
 22 48  1  0
 22 49  1  0
 22 50  1  0
 23 51  1  1
 24 52  1  0
 24 53  1  0
 25 54  1  0
 25 55  1  0
 29 56  1  0
 29 57  1  0
M  END
>  <Binding energies>  (1) 
[-6.55]

>  <Ligand effiencies>  (1) 
[-0.22586206896551725]

>  <Interactions>  (1) 
["V-A:HIS:456:CE1:4070, V-A:GLU:543:C:4902, V-B:GLU:543:CB:9878, V-A:GLU:543:CG:4907, H-B:ALA:541:N:9863, V-B:GLU:543:CD:9880, V-B:ALA:541:CB:9864, V-A:GLU:543:CB:4906, V-A:GLU:543:CD:4908, V-B:GLU:543:CG:9879, V-A:LEU:475:CD2:4259, H-A:ARG:545:NH2:4928, V-A:ARG:545:CZ:4926, V-A:GLY:544:C:4912, V-B:HIS:456:CE1:9041, H-A:GLY:454:N:4050, V-A:ASP:366:CG:3213, H-A:TYR:484:OH:4348"]

$$$$
ZINC605700370
     RDKit          3D

 91 96  0  0  0  0  0  0  0  0999 V2000
  132.5580  125.5030   58.2340 C   0  0  0  0  0  0  0  0  0  0  0  0
  132.3240  125.3550   59.7350 C   0  0  0  0  0  0  0  0  0  0  0  0
  131.5350  126.2180   60.4390 C   0  0  0  0  0  0  0  0  0  0  0  0
  130.7430  127.3550   59.7600 C   0  0  2  0  0  0  0  0  0  0  0  0
  130.5690  128.5670   60.6700 C   0  0  0  0  0  0  0  0  0  0  0  0
  129.3860  128.9720   61.1770 C   0  0  0  0  0  0  0  0  0  0  0  0
  128.0990  128.2250   60.8300 C   0  0  1  0  0  0  0  0  0  0  0  0
  127.2480  129.1730   59.9650 C   0  0  0  0  0  0  0  0  0  0  0  0
  126.9560  130.5130   60.6640 C   0  0  0  0  0  0  0  0  0  0  0  0
  128.1620  131.2340   61.3650 C   0  0  1  0  0  0  0  0  0  0  0  0
  127.5680  132.1720   62.4600 C   0  0  0  0  0  0  0  0  0  0  0  0
  129.1510  130.2220   62.0480 C   0  0  2  0  0  0  0  0  0  0  0  0
  130.3890  131.0830   62.3370 C   0  0  0  0  0  0  0  0  0  0  0  0
  130.4840  132.0520   61.1550 C   0  0  0  0  0  0  0  0  0  0  0  0
  129.1230  132.0170   60.4000 C   0  0  2  0  0  0  0  0  0  0  0  0
  128.7080  133.4370   59.8680 C   0  0  2  0  0  0  0  0  0  0  0  0
  127.3170  133.9120   60.3430 C   0  0  0  0  0  0  0  0  0  0  0  0
  128.7880  133.5000   58.3130 C   0  0  0  0  0  0  0  0  0  0  0  0
  128.4540  132.1820   57.5830 C   0  0  0  0  0  0  0  0  0  0  0  0
  129.7070  131.4880   57.0090 C   0  0  0  0  0  0  0  0  0  0  0  0
  131.0540  132.0520   57.5200 C   0  0  0  0  0  0  0  0  0  0  0  0
  131.7960  132.8040   56.3990 C   0  0  0  0  0  0  0  0  0  0  0  0
  131.9600  130.9710   58.1430 C   0  0  0  0  0  0  0  0  0  0  0  0
  128.4000  126.9120   60.2020 N   0  0  0  0  0  0  0  0  0  0  0  0
  127.4950  125.9910   59.8390 C   0  0  0  0  0  0  0  0  0  0  0  0
  126.4150  125.7640   60.3890 O   0  0  0  0  0  0  0  0  0  0  0  0
  128.0130  125.3940   58.7450 N   0  0  0  0  0  0  0  0  0  0  0  0
  127.4080  124.3030   58.0820 C   0  0  0  0  0  0  0  0  0  0  0  0
  126.0620  124.3740   57.6950 C   0  0  0  0  0  0  0  0  0  0  0  0
  125.4690  123.2980   57.0400 C   0  0  0  0  0  0  0  0  0  0  0  0
  126.2170  122.1530   56.7740 C   0  0  0  0  0  0  0  0  0  0  0  0
  127.5530  122.0730   57.1560 C   0  0  0  0  0  0  0  0  0  0  0  0
  128.1510  123.1460   57.8100 C   0  0  0  0  0  0  0  0  0  0  0  0
  129.1850  125.9470   58.3700 C   0  0  0  0  0  0  0  0  0  0  0  0
  129.9250  125.6040   57.4450 O   0  0  0  0  0  0  0  0  0  0  0  0
  129.4090  126.9380   59.2470 N   0  0  0  0  0  0  0  0  0  0  0  0
  131.2990  126.0460   61.9490 C   0  0  0  0  0  0  0  0  0  0  0  0
  132.3710  125.1740   62.6260 C   0  0  1  0  0  0  0  0  0  0  0  0
  132.0280  124.8940   63.9670 O   0  0  0  0  0  0  0  0  0  0  0  0
  132.5940  123.8880   61.8260 C   0  0  0  0  0  0  0  0  0  0  0  0
  133.0720  124.1810   60.3880 C   0  0  2  0  0  0  0  0  0  0  0  0
  134.4670  124.4160   60.3580 O   0  0  0  0  0  0  0  0  0  0  0  0
  133.4762  126.0837   58.0615 H   0  0  0  0  0  0  0  0  0  0  0  0
  132.6633  124.5069   57.7794 H   0  0  0  0  0  0  0  0  0  0  0  0
  131.7031  126.0250   57.7794 H   0  0  0  0  0  0  0  0  0  0  0  0
  131.3637  127.6329   58.8954 H   0  0  0  0  0  0  0  0  0  0  0  0
  131.4660  129.1483   60.9296 H   0  0  0  0  0  0  0  0  0  0  0  0
  127.5167  127.9634   61.7258 H   0  0  0  0  0  0  0  0  0  0  0  0
  127.7882  129.3750   59.0283 H   0  0  0  0  0  0  0  0  0  0  0  0
  126.2835  128.6778   59.7794 H   0  0  0  0  0  0  0  0  0  0  0  0
  126.5543  131.2012   59.9057 H   0  0  0  0  0  0  0  0  0  0  0  0
  126.2623  130.2621   61.4800 H   0  0  0  0  0  0  0  0  0  0  0  0
  127.8179  131.7773   63.4559 H   0  0  0  0  0  0  0  0  0  0  0  0
  127.9923  133.1807   62.3483 H   0  0  0  0  0  0  0  0  0  0  0  0
  126.4747  132.2197   62.3483 H   0  0  0  0  0  0  0  0  0  0  0  0
  128.7738  129.7707   62.9775 H   0  0  0  0  0  0  0  0  0  0  0  0
  130.2641  131.6351   63.2802 H   0  0  0  0  0  0  0  0  0  0  0  0
  131.2988  130.4743   62.4458 H   0  0  0  0  0  0  0  0  0  0  0  0
  130.6828  133.0701   61.5209 H   0  0  0  0  0  0  0  0  0  0  0  0
  131.3038  131.7587   60.4828 H   0  0  0  0  0  0  0  0  0  0  0  0
  129.1249  131.4784   59.4409 H   0  0  0  0  0  0  0  0  0  0  0  0
  129.4394  134.1310   60.3079 H   0  0  0  0  0  0  0  0  0  0  0  0
  127.2886  133.9217   61.4426 H   0  0  0  0  0  0  0  0  0  0  0  0
  127.1262  134.9262   59.9623 H   0  0  0  0  0  0  0  0  0  0  0  0
  126.5457  133.2263   59.9623 H   0  0  0  0  0  0  0  0  0  0  0  0
  128.0816  134.2689   57.9670 H   0  0  0  0  0  0  0  0  0  0  0  0
  129.8370  133.7253   58.0706 H   0  0  0  0  0  0  0  0  0  0  0  0
  127.9675  131.4986   58.2945 H   0  0  0  0  0  0  0  0  0  0  0  0
  127.7925  132.4269   56.7389 H   0  0  0  0  0  0  0  0  0  0  0  0
  129.6596  130.4218   57.2754 H   0  0  0  0  0  0  0  0  0  0  0  0
  129.6891  131.6661   55.9237 H   0  0  0  0  0  0  0  0  0  0  0  0
  130.8098  132.7619   58.3240 H   0  0  0  0  0  0  0  0  0  0  0  0
  132.5027  133.5202   56.8434 H   0  0  0  0  0  0  0  0  0  0  0  0
  132.3469  132.0836   55.7765 H   0  0  0  0  0  0  0  0  0  0  0  0
  131.0683  133.3452   55.7765 H   0  0  0  0  0  0  0  0  0  0  0  0
  131.9063  131.0351   59.2398 H   0  0  0  0  0  0  0  0  0  0  0  0
  131.6217  129.9764   57.8168 H   0  0  0  0  0  0  0  0  0  0  0  0
  132.9984  131.1303   57.8168 H   0  0  0  0  0  0  0  0  0  0  0  0
  125.4750  125.2794   57.9088 H   0  0  0  0  0  0  0  0  0  0  0  0
  124.4139  123.3517   56.7337 H   0  0  0  0  0  0  0  0  0  0  0  0
  125.7469  121.3036   56.2568 H   0  0  0  0  0  0  0  0  0  0  0  0
  128.1345  121.1642   56.9416 H   0  0  0  0  0  0  0  0  0  0  0  0
  129.2066  123.0862   58.1134 H   0  0  0  0  0  0  0  0  0  0  0  0
  131.3052  127.0396   62.4208 H   0  0  0  0  0  0  0  0  0  0  0  0
  130.3313  125.5388   62.0767 H   0  0  0  0  0  0  0  0  0  0  0  0
  133.3166  125.7358   62.6414 H   0  0  0  0  0  0  0  0  0  0  0  0
  131.3280  125.4930   64.2350 H   0  0  0  0  0  0  0  0  0  0  0  0
  133.3545  123.2789   62.3365 H   0  0  0  0  0  0  0  0  0  0  0  0
  131.6344  123.3539   61.7643 H   0  0  0  0  0  0  0  0  0  0  0  0
  132.8414  123.2820   59.7976 H   0  0  0  0  0  0  0  0  0  0  0  0
  134.6390  125.2720   60.7560 H   0  0  0  0  0  0  0  0  0  0  0  0
  1  2  1  0
  2  3  2  0
  3  4  1  0
  4  5  1  0
  5  6  2  0
  6  7  1  0
  7  8  1  0
  8  9  1  0
  9 10  1  0
 10 11  1  1
 10 12  1  0
 12 13  1  0
 13 14  1  0
 14 15  1  0
 15 16  1  0
 16 17  1  0
 16 18  1  0
 18 19  1  0
 19 20  1  0
 20 21  1  0
 21 22  1  0
 21 23  1  0
  7 24  1  0
 24 25  1  0
 25 26  2  0
 25 27  1  0
 27 28  1  0
 28 29  2  0
 29 30  1  0
 30 31  2  0
 31 32  1  0
 32 33  2  0
 27 34  1  0
 34 35  2  0
 34 36  1  0
  3 37  1  0
 37 38  1  0
 38 39  1  0
 38 40  1  0
 40 41  1  0
 41 42  1  0
 41  2  1  0
 36  4  1  0
 12  6  1  0
 36 24  1  0
 15 10  1  0
 33 28  1  0
  1 43  1  0
  1 44  1  0
  1 45  1  0
  4 46  1  6
  5 47  1  0
  7 48  1  1
  8 49  1  0
  8 50  1  0
  9 51  1  0
  9 52  1  0
 11 53  1  0
 11 54  1  0
 11 55  1  0
 12 56  1  1
 13 57  1  0
 13 58  1  0
 14 59  1  0
 14 60  1  0
 15 61  1  6
 16 62  1  1
 17 63  1  0
 17 64  1  0
 17 65  1  0
 18 66  1  0
 18 67  1  0
 19 68  1  0
 19 69  1  0
 20 70  1  0
 20 71  1  0
 21 72  1  0
 22 73  1  0
 22 74  1  0
 22 75  1  0
 23 76  1  0
 23 77  1  0
 23 78  1  0
 29 79  1  0
 30 80  1  0
 31 81  1  0
 32 82  1  0
 33 83  1  0
 37 84  1  0
 37 85  1  0
 38 86  1  1
 39 87  1  0
 40 88  1  0
 40 89  1  0
 41 90  1  6
 42 91  1  0
M  END
>  <Binding energies>  (1) 
[-8.28]

>  <Ligand effiencies>  (1) 
[-0.18818181818181817]

>  <Interactions>  (1) 
["V-B:TYR:539:CA:9841, V-A:ASP:366:CA:3210, V-B:PRO:540:CA:9855, H-A:GLU:543:OE2:4910, V-B:TYR:539:CE1:9847, V-A:PRO:540:C:4881, V-A:ILE:538:CB:4862, V-B:TYR:539:CE2:9848, V-B:TYR:539:C:9839, V-A:ASP:366:CG:3213, V-A:ILE:538:CG2:4863, V-A:TYR:539:CD1:4873, V-A:LEU:363:CD1:3189, V-B:TYR:539:CZ:9849, V-A:ILE:538:CA:4860, H-B:TYR:539:OH:9850, V-A:TYR:539:CA:4869, V-B:TYR:539:CB:9843, V-A:GLU:543:CD:4908, V-B:PRO:540:CB:9857, V-B:PRO:540:N:9856, V-B:TYR:539:CD2:9846, V-A:GLU:543:CG:4907, V-B:PRO:540:CD:9859, V-A:MET:535:CE:4835, V-A:TYR:539:C:4867, V-A:ASP:366:CB:3212, H-A:ARG:545:NH2:4928, V-A:ARG:545:CZ:4926, V-B:TYR:539:CG:9844, H-A:ASP:366:OD1:3214, V-B:TYR:539:CD1:9845, V-A:PRO:540:N:4884, V-A:TYR:539:CG:4872, V-B:LEU:363:CD1:8160, V-A:PRO:540:CB:4885, V-A:PRO:540:CA:4883, V-B:MET:535:CE:9807, H-A:ASP:366:OD2:3215, V-A:PRO:540:CD:4887, V-A:TYR:539:CE1:4875"]

$$$$
ZINC605705449
     RDKit          3D

 86 92  0  0  0  0  0  0  0  0999 V2000
  130.8770  124.1130   64.0850 C   0  0  0  0  0  0  0  0  0  0  0  0
  130.9140  125.2220   63.1170 N   0  0  0  0  0  0  0  0  0  0  0  0
  131.5270  124.9590   61.8480 C   0  0  0  0  0  0  0  0  0  0  0  0
  132.8690  125.3390   61.6240 C   0  0  0  0  0  0  0  0  0  0  0  0
  133.5250  125.0700   60.4270 C   0  0  0  0  0  0  0  0  0  0  0  0
  132.8570  124.4100   59.4060 C   0  0  0  0  0  0  0  0  0  0  0  0
  131.5330  124.0320   59.5840 C   0  0  0  0  0  0  0  0  0  0  0  0
  130.8500  124.3110   60.7750 C   0  0  0  0  0  0  0  0  0  0  0  0
  129.3860  123.8500   60.8060 C   0  0  0  0  0  0  0  0  0  0  0  0
  129.2040  122.4170   61.0860 N   0  0  0  0  0  0  0  0  0  0  0  0
  130.4950  121.7160   61.1570 C   0  0  0  0  0  0  0  0  0  0  0  0
  130.4150  120.1930   61.0480 C   0  0  0  0  0  0  0  0  0  0  0  0
  131.3250  119.5010   60.2430 C   0  0  0  0  0  0  0  0  0  0  0  0
  131.2360  118.1090   60.1730 C   0  0  0  0  0  0  0  0  0  0  0  0
  130.2520  117.4450   60.9080 C   0  0  0  0  0  0  0  0  0  0  0  0
  129.3870  118.2030   61.6990 C   0  0  0  0  0  0  0  0  0  0  0  0
  129.4590  119.5560   61.7810 N   0  0  0  0  0  0  0  0  0  0  0  0
  128.3660  121.8090   60.0360 C   0  0  0  0  0  0  0  0  0  0  0  0
  127.7200  122.8330   59.1090 C   0  0  0  0  0  0  0  0  0  0  0  0
  126.6000  123.5680   59.5110 C   0  0  0  0  0  0  0  0  0  0  0  0
  126.0790  124.5200   58.6330 C   0  0  0  0  0  0  0  0  0  0  0  0
  126.6850  124.7150   57.3890 C   0  0  0  0  0  0  0  0  0  0  0  0
  127.7990  123.9390   57.0620 C   0  0  0  0  0  0  0  0  0  0  0  0
  128.3210  123.0080   57.9010 N   0  0  0  0  0  0  0  0  0  0  0  0
  129.9430  126.2160   63.4200 C   0  0  0  0  0  0  0  0  0  0  0  0
  129.6370  126.5350   64.7610 C   0  0  0  0  0  0  0  0  0  0  0  0
  130.2540  125.9190   65.8230 O   0  0  0  0  0  0  0  0  0  0  0  0
  128.7140  127.5340   65.0540 C   0  0  0  0  0  0  0  0  0  0  0  0
  128.1110  128.2540   64.0320 C   0  0  0  0  0  0  0  0  0  0  0  0
  128.4100  128.0050   62.6890 C   0  0  0  0  0  0  0  0  0  0  0  0
  129.2910  126.9410   62.3950 C   0  0  0  0  0  0  0  0  0  0  0  0
  129.6320  126.6070   61.0930 O   0  0  0  0  0  0  0  0  0  0  0  0
  128.7740  127.0700   60.0490 C   0  0  2  0  0  0  0  0  0  0  0  0
  129.4490  126.7280   58.7000 C   0  0  0  0  0  0  0  0  0  0  0  0
  130.7090  127.5690   58.4360 C   0  0  0  0  0  0  0  0  0  0  0  0
  131.7650  127.0550   58.0680 O   0  0  0  0  0  0  0  0  0  0  0  0
  130.5220  129.0830   58.6780 C   0  0  2  0  0  0  0  0  0  0  0  0
  132.1060  129.9140   58.6380 Cl  0  0  0  0  0  0  0  0  0  0  0  0
  129.8290  129.3660   60.0280 C   0  0  0  0  0  0  0  0  0  0  0  0
  128.5000  128.5830   60.2050 C   0  0  2  0  0  0  0  0  0  0  0  0
  127.7530  128.8070   61.5500 C   0  0  2  0  0  0  0  0  0  0  0  0
  127.4750  130.3010   61.8620 C   0  0  0  0  0  0  0  0  0  0  0  0
  128.1320  130.8620   62.9720 C   0  0  0  0  0  0  0  0  0  0  0  0
  127.9010  132.1750   63.3670 C   0  0  0  0  0  0  0  0  0  0  0  0
  126.9980  132.9580   62.6610 C   0  0  0  0  0  0  0  0  0  0  0  0
  126.3400  132.4300   61.5540 C   0  0  0  0  0  0  0  0  0  0  0  0
  126.5660  131.1090   61.1210 C   0  0  0  0  0  0  0  0  0  0  0  0
  125.8370  130.6380   59.8880 C   0  0  0  0  0  0  0  0  0  0  0  0
  125.7830  131.4150   58.9060 O   0  0  0  0  0  0  0  0  0  0  0  0
  125.3580  129.4800   59.8860 O   0  0  0  0  0  0  0  0  0  0  0  0
  130.8905  124.5182   65.1075 H   0  0  0  0  0  0  0  0  0  0  0  0
  129.9588  123.5261   63.9353 H   0  0  0  0  0  0  0  0  0  0  0  0
  131.7541  123.4662   63.9353 H   0  0  0  0  0  0  0  0  0  0  0  0
  133.4132  125.8649   62.4223 H   0  0  0  0  0  0  0  0  0  0  0  0
  134.5715  125.3801   60.2904 H   0  0  0  0  0  0  0  0  0  0  0  0
  133.3734  124.1874   58.4606 H   0  0  0  0  0  0  0  0  0  0  0  0
  131.0099  123.5029   58.7738 H   0  0  0  0  0  0  0  0  0  0  0  0
  128.8620  124.4219   61.5860 H   0  0  0  0  0  0  0  0  0  0  0  0
  128.9808  124.0261   59.7986 H   0  0  0  0  0  0  0  0  0  0  0  0
  131.1275  122.0833   60.3354 H   0  0  0  0  0  0  0  0  0  0  0  0
  130.9042  121.9298   62.1554 H   0  0  0  0  0  0  0  0  0  0  0  0
  132.0962  120.0426   59.6757 H   0  0  0  0  0  0  0  0  0  0  0  0
  131.9359  117.5400   59.5435 H   0  0  0  0  0  0  0  0  0  0  0  0
  130.1605  116.3497   60.8647 H   0  0  0  0  0  0  0  0  0  0  0  0
  128.6133  117.6811   62.2813 H   0  0  0  0  0  0  0  0  0  0  0  0
  128.9955  121.1395   59.4315 H   0  0  0  0  0  0  0  0  0  0  0  0
  127.5518  121.2694   60.5419 H   0  0  0  0  0  0  0  0  0  0  0  0
  126.1404  123.3998   60.4961 H   0  0  0  0  0  0  0  0  0  0  0  0
  125.1974  125.1127   58.9184 H   0  0  0  0  0  0  0  0  0  0  0  0
  126.2935  125.4626   56.6835 H   0  0  0  0  0  0  0  0  0  0  0  0
  128.2745  124.0887   56.0814 H   0  0  0  0  0  0  0  0  0  0  0  0
  130.9940  126.4230   66.1670 H   0  0  0  0  0  0  0  0  0  0  0  0
  128.4607  127.7545   66.1015 H   0  0  0  0  0  0  0  0  0  0  0  0
  127.3817  129.0379   64.2842 H   0  0  0  0  0  0  0  0  0  0  0  0
  127.7928  126.5750   60.0951 H   0  0  0  0  0  0  0  0  0  0  0  0
  129.7309  125.6648   58.7073 H   0  0  0  0  0  0  0  0  0  0  0  0
  128.7268  126.9523   57.9012 H   0  0  0  0  0  0  0  0  0  0  0  0
  129.8774  129.4674   57.8738 H   0  0  0  0  0  0  0  0  0  0  0  0
  130.5142  129.0812   60.8400 H   0  0  0  0  0  0  0  0  0  0  0  0
  129.5845  130.4382   60.0533 H   0  0  0  0  0  0  0  0  0  0  0  0
  127.8356  128.9803   59.4235 H   0  0  0  0  0  0  0  0  0  0  0  0
  126.7398  128.3918   61.4448 H   0  0  0  0  0  0  0  0  0  0  0  0
  128.8453  130.2476   63.5409 H   0  0  0  0  0  0  0  0  0  0  0  0
  128.4318  132.5917   64.2357 H   0  0  0  0  0  0  0  0  0  0  0  0
  126.8028  133.9938   62.9758 H   0  0  0  0  0  0  0  0  0  0  0  0
  125.6258  133.0601   61.0037 H   0  0  0  0  0  0  0  0  0  0  0  0
  1  2  1  0
  2  3  1  0
  3  4  2  0
  4  5  1  0
  5  6  2  0
  6  7  1  0
  7  8  2  0
  8  9  1  0
  9 10  1  0
 10 11  1  0
 11 12  1  0
 12 13  2  0
 13 14  1  0
 14 15  2  0
 15 16  1  0
 16 17  2  0
 10 18  1  0
 18 19  1  0
 19 20  2  0
 20 21  1  0
 21 22  2  0
 22 23  1  0
 23 24  2  0
  2 25  1  0
 25 26  2  0
 26 27  1  0
 26 28  1  0
 28 29  2  0
 29 30  1  0
 30 31  2  0
 31 32  1  0
 32 33  1  0
 33 34  1  0
 34 35  1  0
 35 36  2  0
 35 37  1  0
 37 38  1  0
 37 39  1  0
 39 40  1  0
 40 41  1  0
 41 42  1  0
 42 43  2  0
 43 44  1  0
 44 45  2  0
 45 46  1  0
 46 47  2  0
 47 48  1  0
 48 49  2  0
 48 50  1  0
  8  3  1  0
 17 12  1  0
 24 19  1  0
 31 25  1  0
 40 33  1  0
 47 42  1  0
 41 30  1  0
  1 51  1  0
  1 52  1  0
  1 53  1  0
  4 54  1  0
  5 55  1  0
  6 56  1  0
  7 57  1  0
  9 58  1  0
  9 59  1  0
 11 60  1  0
 11 61  1  0
 13 62  1  0
 14 63  1  0
 15 64  1  0
 16 65  1  0
 18 66  1  0
 18 67  1  0
 20 68  1  0
 21 69  1  0
 22 70  1  0
 23 71  1  0
 27 72  1  0
 28 73  1  0
 29 74  1  0
 33 75  1  6
 34 76  1  0
 34 77  1  0
 37 78  1  6
 39 79  1  0
 39 80  1  0
 40 81  1  6
 41 82  1  6
 43 83  1  0
 44 84  1  0
 45 85  1  0
 46 86  1  0
M  CHG  1  50  -1
M  END
>  <Binding energies>  (1) 
[-6.74]

>  <Ligand effiencies>  (1) 
[-0.13215686274509805]

>  <Interactions>  (1) 
["V-A:ASP:366:CA:3210, V-B:PRO:540:CA:9855, H-A:GLU:543:OE2:4910, V-B:ALA:541:CB:9864, H-A:TYR:531:OH:4795, V-B:TYR:539:CE2:9848, V-B:LEU:475:CD2:9230, V-B:GLU:543:CG:9879, V-B:TYR:539:C:9839, V-A:ASP:366:CG:3213, V-B:TYR:539:CZ:9849, H-B:ALA:541:N:9863, V-A:LEU:475:CD1:4258, V-B:TYR:539:CB:9843, V-A:GLU:543:CD:4908, V-B:PRO:540:CB:9857, V-B:PRO:540:N:9856, V-A:PRO:482:CB:4326, V-B:TYR:539:CD2:9846, V-B:GLU:543:CD:9880, V-A:ASP:366:CB:3212, V-A:LEU:475:CD2:4259, H-A:GLU:543:OE1:4909, V-B:TYR:539:CG:9844, V-A:HIS:383:CD2:3392, V-A:PRO:482:CG:4327, V-B:PRO:540:C:9853, V-B:ALA:541:CA:9862, V-A:HIS:383:NE2:3394"]

$$$$
ZINC605705580
     RDKit          3D

117123  0  0  0  0  0  0  0  0999 V2000
  133.3930  120.1550   58.8870 C   0  0  0  0  0  0  0  0  0  0  0  0
  132.3750  120.6060   59.9300 C   0  0  0  0  0  0  0  0  0  0  0  0
  132.3490  121.8590   60.4650 C   0  0  0  0  0  0  0  0  0  0  0  0
  133.4920  122.8530   60.2450 C   0  0  0  0  0  0  0  0  0  0  0  0
  131.2450  122.3280   61.4480 C   0  0  1  0  0  0  0  0  0  0  0  0
  130.8240  123.8200   61.3140 C   0  0  0  0  0  0  0  0  0  0  0  0
  131.4320  124.7460   62.0840 C   0  0  0  0  0  0  0  0  0  0  0  0
  131.2570  126.2490   62.0160 C   0  0  0  0  0  0  0  0  0  0  0  0
  130.3430  126.7060   60.8420 C   0  0  2  0  0  0  0  0  0  0  0  0
  130.0100  128.2690   60.8580 C   0  0  1  0  0  0  0  0  0  0  0  0
  129.2180  128.7040   62.1370 C   0  0  0  0  0  0  0  0  0  0  0  0
  131.3570  129.0660   60.8020 C   0  0  0  0  0  0  0  0  0  0  0  0
  131.2130  130.5710   60.4910 C   0  0  0  0  0  0  0  0  0  0  0  0
  130.4510  130.7900   59.1650 C   0  0  2  0  0  0  0  0  0  0  0  0
  130.3460  132.1990   58.9030 O   0  0  0  0  0  0  0  0  0  0  0  0
  129.6350  133.0170   59.7960 C   0  0  2  0  0  0  0  0  0  0  0  0
  129.8160  132.5870   61.1250 O   0  0  0  0  0  0  0  0  0  0  0  0
  129.2090  133.4360   62.1030 C   0  0  0  0  0  0  0  0  0  0  0  0
  127.6930  133.5890   61.8760 C   0  0  2  0  0  0  0  0  0  0  0  0
  127.0020  132.4280   62.3060 O   0  0  0  0  0  0  0  0  0  0  0  0
  127.3960  134.0070   60.4230 C   0  0  2  0  0  0  0  0  0  0  0  0
  126.0030  134.0840   60.1650 O   0  0  0  0  0  0  0  0  0  0  0  0
  128.1360  133.0880   59.4210 C   0  0  1  0  0  0  0  0  0  0  0  0
  127.9700  133.5460   58.0890 O   0  0  0  0  0  0  0  0  0  0  0  0
  129.0320  130.1220   59.1670 C   0  0  0  0  0  0  0  0  0  0  0  0
  128.0860  130.8610   60.1550 C   0  0  0  0  0  0  0  0  0  0  0  0
  128.4790  130.2420   57.7170 C   0  0  0  0  0  0  0  0  0  0  0  0
  129.2360  128.5870   59.5140 C   0  0  2  0  0  0  0  0  0  0  0  0
  127.9590  127.7070   59.4170 C   0  0  0  0  0  0  0  0  0  0  0  0
  128.3130  126.2130   59.3580 C   0  0  0  0  0  0  0  0  0  0  0  0
  129.1600  125.6850   60.5630 C   0  0  2  0  0  0  0  0  0  0  0  0
  128.2060  125.6310   61.8010 C   0  0  0  0  0  0  0  0  0  0  0  0
  129.7680  124.2180   60.2340 C   0  0  1  0  0  0  0  0  0  0  0  0
  130.4970  124.1540   58.8530 C   0  0  0  0  0  0  0  0  0  0  0  0
  128.6300  123.1360   60.1840 C   0  0  0  0  0  0  0  0  0  0  0  0
  129.0880  121.6710   60.2500 C   0  0  0  0  0  0  0  0  0  0  0  0
  129.9950  121.3700   61.4830 C   0  0  2  0  0  0  0  0  0  0  0  0
  129.1540  121.5270   62.7980 C   0  0  0  0  0  0  0  0  0  0  0  0
  127.9180  121.5440   62.7630 O   0  0  0  0  0  0  0  0  0  0  0  0
  129.9110  121.6490   63.9310 O   0  0  0  0  0  0  0  0  0  0  0  0
  129.8850  122.8820   64.5990 C   0  0  2  0  0  0  0  0  0  0  0  0
  131.1820  123.4190   64.6490 O   0  0  0  0  0  0  0  0  0  0  0  0
  131.2260  124.7280   65.2210 C   0  0  2  0  0  0  0  0  0  0  0  0
  132.6500  125.2820   64.9990 C   0  0  0  0  0  0  0  0  0  0  0  0
  133.5750  124.2250   64.8450 O   0  0  0  0  0  0  0  0  0  0  0  0
  130.8500  124.6120   66.7170 C   0  0  1  0  0  0  0  0  0  0  0  0
  130.8540  125.8770   67.3560 O   0  0  0  0  0  0  0  0  0  0  0  0
  129.4780  123.9180   66.8740 C   0  0  2  0  0  0  0  0  0  0  0  0
  129.1770  123.6680   68.2370 O   0  0  0  0  0  0  0  0  0  0  0  0
  129.3960  122.6170   66.0360 C   0  0  1  0  0  0  0  0  0  0  0  0
  128.0820  122.0850   66.0480 O   0  0  0  0  0  0  0  0  0  0  0  0
  130.4970  119.9010   61.4910 C   0  0  0  0  0  0  0  0  0  0  0  0
  131.2970  119.5620   60.2220 C   0  0  0  0  0  0  0  0  0  0  0  0
  134.2859  119.7594   59.3932 H   0  0  0  0  0  0  0  0  0  0  0  0
  132.9497  119.3690   58.2579 H   0  0  0  0  0  0  0  0  0  0  0  0
  133.6773  121.0114   58.2579 H   0  0  0  0  0  0  0  0  0  0  0  0
  133.8783  123.1889   61.2186 H   0  0  0  0  0  0  0  0  0  0  0  0
  134.2989  122.3645   59.6791 H   0  0  0  0  0  0  0  0  0  0  0  0
  133.1202  123.7199   59.6791 H   0  0  0  0  0  0  0  0  0  0  0  0
  131.7397  122.2602   62.4281 H   0  0  0  0  0  0  0  0  0  0  0  0
  132.1313  124.3682   62.8444 H   0  0  0  0  0  0  0  0  0  0  0  0
  130.8107  126.5924   62.9609 H   0  0  0  0  0  0  0  0  0  0  0  0
  132.2516  126.6871   61.8464 H   0  0  0  0  0  0  0  0  0  0  0  0
  130.9233  126.6408   59.9098 H   0  0  0  0  0  0  0  0  0  0  0  0
  129.7750  128.3981   63.0349 H   0  0  0  0  0  0  0  0  0  0  0  0
  129.0937  129.7970   62.1373 H   0  0  0  0  0  0  0  0  0  0  0  0
  128.2290  128.2225   62.1373 H   0  0  0  0  0  0  0  0  0  0  0  0
  131.8536  128.9655   61.7783 H   0  0  0  0  0  0  0  0  0  0  0  0
  131.9347  128.6347   59.9712 H   0  0  0  0  0  0  0  0  0  0  0  0
  130.6598  131.0563   61.3086 H   0  0  0  0  0  0  0  0  0  0  0  0
  132.2181  131.0075   60.3948 H   0  0  0  0  0  0  0  0  0  0  0  0
  131.0245  130.3014   58.3635 H   0  0  0  0  0  0  0  0  0  0  0  0
  130.0399  134.0367   59.7170 H   0  0  0  0  0  0  0  0  0  0  0  0
  129.3765  133.0042   63.1007 H   0  0  0  0  0  0  0  0  0  0  0  0
  129.6668  134.4326   62.0177 H   0  0  0  0  0  0  0  0  0  0  0  0
  127.3077  134.4089   62.5000 H   0  0  0  0  0  0  0  0  0  0  0  0
  127.6110  131.6860   62.2860 H   0  0  0  0  0  0  0  0  0  0  0  0
  127.7867  135.0253   60.2800 H   0  0  0  0  0  0  0  0  0  0  0  0
  125.5900  133.2720   60.4640 H   0  0  0  0  0  0  0  0  0  0  0  0
  127.7025  132.0787   59.4783 H   0  0  0  0  0  0  0  0  0  0  0  0
  128.7520  133.3120   57.5850 H   0  0  0  0  0  0  0  0  0  0  0  0
  128.3823  130.6296   61.1888 H   0  0  0  0  0  0  0  0  0  0  0  0
  128.1561  131.9459   59.9876 H   0  0  0  0  0  0  0  0  0  0  0  0
  127.0503  130.5304   59.9876 H   0  0  0  0  0  0  0  0  0  0  0  0
  127.4046  130.4751   57.7525 H   0  0  0  0  0  0  0  0  0  0  0  0
  129.0113  131.0455   57.1869 H   0  0  0  0  0  0  0  0  0  0  0  0
  128.6303  129.2901   57.1869 H   0  0  0  0  0  0  0  0  0  0  0  0
  129.9052  128.2968   58.6906 H   0  0  0  0  0  0  0  0  0  0  0  0
  127.3291  127.8913   60.2997 H   0  0  0  0  0  0  0  0  0  0  0  0
  127.4234  127.9734   58.4939 H   0  0  0  0  0  0  0  0  0  0  0  0
  127.3740  125.6411   59.3246 H   0  0  0  0  0  0  0  0  0  0  0  0
  128.9377  126.0807   58.4623 H   0  0  0  0  0  0  0  0  0  0  0  0
  128.8020  125.6647   62.7249 H   0  0  0  0  0  0  0  0  0  0  0  0
  127.5217  126.4919   61.7744 H   0  0  0  0  0  0  0  0  0  0  0  0
  127.6232  124.6984   61.7744 H   0  0  0  0  0  0  0  0  0  0  0  0
  131.5809  124.0588   59.0146 H   0  0  0  0  0  0  0  0  0  0  0  0
  130.1330  123.2844   58.2862 H   0  0  0  0  0  0  0  0  0  0  0  0
  130.2901  125.0738   58.2862 H   0  0  0  0  0  0  0  0  0  0  0  0
  127.9568  123.3165   61.0350 H   0  0  0  0  0  0  0  0  0  0  0  0
  128.1537  123.2530   59.1994 H   0  0  0  0  0  0  0  0  0  0  0  0
  128.1975  121.0276   60.3047 H   0  0  0  0  0  0  0  0  0  0  0  0
  129.6840  121.4720   59.3471 H   0  0  0  0  0  0  0  0  0  0  0  0
  129.2237  123.5901   64.0782 H   0  0  0  0  0  0  0  0  0  0  0  0
  130.5124  125.4236   64.7554 H   0  0  0  0  0  0  0  0  0  0  0  0
  132.6585  125.9051   64.0926 H   0  0  0  0  0  0  0  0  0  0  0  0
  132.9384  125.8817   65.8749 H   0  0  0  0  0  0  0  0  0  0  0  0
  133.1380  123.4020   65.0770 H   0  0  0  0  0  0  0  0  0  0  0  0
  131.6145  123.9943   67.2109 H   0  0  0  0  0  0  0  0  0  0  0  0
  131.0280  126.5540   66.6970 H   0  0  0  0  0  0  0  0  0  0  0  0
  128.7173  124.6105   66.4844 H   0  0  0  0  0  0  0  0  0  0  0  0
  129.1190  124.5100   68.6940 H   0  0  0  0  0  0  0  0  0  0  0  0
  130.0556  121.8630   66.4903 H   0  0  0  0  0  0  0  0  0  0  0  0
  127.8770  121.7670   65.1650 H   0  0  0  0  0  0  0  0  0  0  0  0
  131.1422  119.7503   62.3691 H   0  0  0  0  0  0  0  0  0  0  0  0
  129.6182  119.2404   61.5269 H   0  0  0  0  0  0  0  0  0  0  0  0
  131.7784  118.5822   60.3566 H   0  0  0  0  0  0  0  0  0  0  0  0
  130.5980  119.5479   59.3727 H   0  0  0  0  0  0  0  0  0  0  0  0
  1  2  1  0
  2  3  2  0
  3  4  1  0
  3  5  1  0
  5  6  1  0
  6  7  2  0
  7  8  1  0
  8  9  1  0
  9 10  1  0
 10 11  1  1
 10 12  1  0
 12 13  1  0
 13 14  1  0
 14 15  1  0
 15 16  1  0
 16 17  1  0
 17 18  1  0
 18 19  1  0
 19 20  1  0
 19 21  1  0
 21 22  1  0
 21 23  1  0
 23 24  1  0
 14 25  1  0
 25 26  1  0
 25 27  1  0
 25 28  1  0
 28 29  1  0
 29 30  1  0
 30 31  1  0
 31 32  1  1
 31 33  1  0
 33 34  1  6
 33 35  1  0
 35 36  1  0
 36 37  1  0
 37 38  1  1
 38 39  2  0
 38 40  1  0
 40 41  1  0
 41 42  1  0
 42 43  1  0
 43 44  1  0
 44 45  1  0
 43 46  1  0
 46 47  1  0
 46 48  1  0
 48 49  1  0
 48 50  1  0
 50 51  1  0
 37 52  1  0
 52 53  1  0
 53  2  1  0
 37  5  1  0
 50 41  1  0
 33  6  1  0
 31  9  1  0
 28 10  1  0
 23 16  1  0
  1 54  1  0
  1 55  1  0
  1 56  1  0
  4 57  1  0
  4 58  1  0
  4 59  1  0
  5 60  1  1
  7 61  1  0
  8 62  1  0
  8 63  1  0
  9 64  1  6
 11 65  1  0
 11 66  1  0
 11 67  1  0
 12 68  1  0
 12 69  1  0
 13 70  1  0
 13 71  1  0
 14 72  1  6
 16 73  1  1
 18 74  1  0
 18 75  1  0
 19 76  1  1
 20 77  1  0
 21 78  1  1
 22 79  1  0
 23 80  1  6
 24 81  1  0
 26 82  1  0
 26 83  1  0
 26 84  1  0
 27 85  1  0
 27 86  1  0
 27 87  1  0
 28 88  1  6
 29 89  1  0
 29 90  1  0
 30 91  1  0
 30 92  1  0
 32 93  1  0
 32 94  1  0
 32 95  1  0
 34 96  1  0
 34 97  1  0
 34 98  1  0
 35 99  1  0
 35100  1  0
 36101  1  0
 36102  1  0
 41103  1  6
 43104  1  6
 44105  1  0
 44106  1  0
 45107  1  0
 46108  1  1
 47109  1  0
 48110  1  6
 49111  1  0
 50112  1  1
 51113  1  0
 52114  1  0
 52115  1  0
 53116  1  0
 53117  1  0
M  END
>  <Binding energies>  (1) 
[1.58]

>  <Ligand effiencies>  (1) 
[0.026333333333333334]

>  <Interactions>  (1) 
["V-A:ILE:369:CG2:3237, V-B:PRO:540:CA:9855, V-B:GLU:543:C:9874, H-A:GLU:543:OE2:4910, H-B:GLU:543:O:9875, H-A:ALA:541:N:4891, V-A:ILE:369:CB:3236, V-A:PRO:540:C:4881, V-B:GLU:543:CB:9878, V-B:ALA:541:CB:9864, V-B:TYR:539:CE2:9848, V-A:TYR:484:CE2:4346, H-B:ALA:541:O:9861, V-B:LEU:475:CD2:9230, V-B:GLU:543:CG:9879, V-B:TYR:539:C:9839, V-A:ASP:366:CG:3213, V-A:TYR:539:CD1:4873, V-B:TYR:539:CZ:9849, V-A:ALA:541:CB:4892, H-B:ALA:541:N:9863, V-A:GLU:543:CD:4908, V-A:TYR:484:CZ:4347, V-B:GLU:543:CA:9876, H-A:GLY:454:N:4050, V-B:PRO:540:N:9856, V-A:TYR:484:CD2:4344, V-A:ILE:369:CD1:3239, V-A:HIS:456:CE1:4070, V-A:ALA:541:CA:4890, V-B:TYR:539:CD2:9846, V-B:GLU:543:CD:9880, V-A:TYR:539:C:4867, V-A:LEU:475:CD2:4259, V-A:ARG:545:CZ:4926, V-B:TYR:539:CG:9844, V-A:PRO:540:N:4884, H-A:TYR:539:N:4870, V-A:PRO:540:CB:4885, V-A:PRO:540:CA:4883, H-B:VAL:542:O:9867, V-B:ALA:541:CA:9862, H-B:GLU:543:N:9877, V-A:TYR:539:CE1:4875, H-A:HIS:456:NE2:4071, H-A:TYR:484:OH:4348"]

$$$$
ZINC607715899
     RDKit          3D

119123  0  0  0  0  0  0  0  0999 V2000
  129.5430  125.9680   66.0520 C   0  0  0  0  0  0  0  0  0  0  0  0
  129.1500  125.0470   65.0430 O   0  0  0  0  0  0  0  0  0  0  0  0
  130.0750  124.9030   63.9630 C   0  0  1  0  0  0  0  0  0  0  0  0
  131.1600  123.8540   64.3170 C   0  0  0  0  0  0  0  0  0  0  0  0
  131.0540  123.2680   65.4000 O   0  0  0  0  0  0  0  0  0  0  0  0
  132.3910  123.5670   63.3660 C   0  0  2  0  0  0  0  0  0  0  0  0
  133.1180  122.2970   63.9350 C   0  0  0  0  0  0  0  0  0  0  0  0
  133.3120  124.8260   63.5750 C   0  0  1  0  0  0  0  0  0  0  0  0
  133.6650  125.0050   64.9520 O   0  0  0  0  0  0  0  0  0  0  0  0
  132.7630  125.7860   65.7250 C   0  0  0  0  0  0  0  0  0  0  0  0
  134.6050  124.7850   62.7410 C   0  0  0  0  0  0  0  0  0  0  0  0
  134.2830  124.6760   61.2480 C   0  0  1  0  0  0  0  0  0  0  0  0
  135.4900  124.7210   60.5040 O   0  0  0  0  0  0  0  0  0  0  0  0
  133.3680  123.4380   60.8850 C   0  0  2  0  0  0  0  0  0  0  0  0
  134.2340  122.1310   60.9550 C   0  0  0  0  0  0  0  0  0  0  0  0
  133.0530  123.4650   59.4690 O   0  0  0  0  0  0  0  0  0  0  0  0
  133.6130  124.2710   58.5250 C   0  0  0  0  0  0  0  0  0  0  0  0
  132.7950  125.5340   58.2880 C   0  0  0  0  0  0  0  0  0  0  0  0
  134.6590  124.0760   57.9110 O   0  0  0  0  0  0  0  0  0  0  0  0
  132.0430  123.3730   61.8010 C   0  0  1  0  0  0  0  0  0  0  0  0
  130.9640  122.2120   61.4540 C   0  0  2  0  0  0  0  0  0  0  0  0
  131.4260  121.4540   60.3170 O   0  0  0  0  0  0  0  0  0  0  0  0
  132.0020  120.2160   60.4090 C   0  0  0  0  0  0  0  0  0  0  0  0
  133.2120  120.0140   60.2790 O   0  0  0  0  0  0  0  0  0  0  0  0
  131.0000  119.1210   60.6220 C   0  0  0  0  0  0  0  0  0  0  0  0
  130.1100  119.1380   61.7090 C   0  0  0  0  0  0  0  0  0  0  0  0
  129.1910  118.1080   61.8860 C   0  0  0  0  0  0  0  0  0  0  0  0
  129.1560  117.0530   60.9790 C   0  0  0  0  0  0  0  0  0  0  0  0
  130.0330  117.0180   59.8990 C   0  0  0  0  0  0  0  0  0  0  0  0
  130.9530  118.0480   59.7220 C   0  0  0  0  0  0  0  0  0  0  0  0
  129.4010  122.5760   61.2050 C   0  0  2  0  0  0  0  0  0  0  0  0
  128.8100  121.3220   60.8730 O   0  0  0  0  0  0  0  0  0  0  0  0
  129.2770  123.5110   59.9480 C   0  0  0  0  0  0  0  0  0  0  0  0
  128.8680  124.9960   60.2190 C   0  0  2  0  0  0  0  0  0  0  0  0
  129.3250  125.8680   59.1820 O   0  0  0  0  0  0  0  0  0  0  0  0
  128.6570  127.0070   58.8560 C   0  0  0  0  0  0  0  0  0  0  0  0
  127.4710  127.2310   59.1100 O   0  0  0  0  0  0  0  0  0  0  0  0
  129.5160  128.0920   58.1710 C   0  0  2  0  0  0  0  0  0  0  0  0
  130.7720  128.2310   58.8240 O   0  0  0  0  0  0  0  0  0  0  0  0
  128.7870  129.4680   58.0530 C   0  0  1  0  0  0  0  0  0  0  0  0
  128.1340  129.9040   59.3070 N   0  0  0  0  0  0  0  0  0  0  0  0
  128.6960  130.6800   60.3200 C   0  0  0  0  0  0  0  0  0  0  0  0
  128.1000  130.9700   61.3560 O   0  0  0  0  0  0  0  0  0  0  0  0
  129.9740  131.0710   60.0260 O   0  0  0  0  0  0  0  0  0  0  0  0
  131.0880  131.0450   60.9390 C   0  0  0  0  0  0  0  0  0  0  0  0
  132.3980  131.5620   60.2910 C   0  0  0  0  0  0  0  0  0  0  0  0
  130.7600  131.8460   62.2230 C   0  0  0  0  0  0  0  0  0  0  0  0
  131.2550  129.5530   61.2940 C   0  0  0  0  0  0  0  0  0  0  0  0
  129.7570  130.5290   57.5130 C   0  0  0  0  0  0  0  0  0  0  0  0
  129.2960  131.8370   57.3190 C   0  0  0  0  0  0  0  0  0  0  0  0
  130.1560  132.8230   56.8420 C   0  0  0  0  0  0  0  0  0  0  0  0
  131.4820  132.5040   56.5590 C   0  0  0  0  0  0  0  0  0  0  0  0
  131.9550  131.2080   56.7490 C   0  0  0  0  0  0  0  0  0  0  0  0
  131.0950  130.2220   57.2270 C   0  0  0  0  0  0  0  0  0  0  0  0
  129.3550  125.4510   61.6040 C   0  0  0  0  0  0  0  0  0  0  0  0
  129.8660  126.8910   61.7050 C   0  0  0  0  0  0  0  0  0  0  0  0
  129.3400  124.5730   62.6530 C   0  0  0  0  0  0  0  0  0  0  0  0
  128.6740  123.1770   62.4640 C   0  0  0  0  0  0  0  0  0  0  0  0
  127.1400  123.3960   62.2190 C   0  0  0  0  0  0  0  0  0  0  0  0
  128.7400  122.1920   63.6810 C   0  0  0  0  0  0  0  0  0  0  0  0
  129.3555  125.5285   67.0428 H   0  0  0  0  0  0  0  0  0  0  0  0
  130.6149  126.1916   65.9470 H   0  0  0  0  0  0  0  0  0  0  0  0
  128.9627  126.8966   65.9470 H   0  0  0  0  0  0  0  0  0  0  0  0
  130.5905  125.8614   63.8027 H   0  0  0  0  0  0  0  0  0  0  0  0
  133.1011  122.3266   65.0345 H   0  0  0  0  0  0  0  0  0  0  0  0
  132.6017  121.3911   63.5846 H   0  0  0  0  0  0  0  0  0  0  0  0
  134.1606  122.2835   63.5846 H   0  0  0  0  0  0  0  0  0  0  0  0
  132.7052  125.6754   63.2282 H   0  0  0  0  0  0  0  0  0  0  0  0
  132.9567  125.6183   66.7948 H   0  0  0  0  0  0  0  0  0  0  0  0
  132.9051  126.8510   65.4892 H   0  0  0  0  0  0  0  0  0  0  0  0
  131.7293  125.4930   65.4892 H   0  0  0  0  0  0  0  0  0  0  0  0
  135.1796  125.7057   62.9202 H   0  0  0  0  0  0  0  0  0  0  0  0
  135.1917  123.9044   63.0414 H   0  0  0  0  0  0  0  0  0  0  0  0
  133.6675  125.5430   60.9661 H   0  0  0  0  0  0  0  0  0  0  0  0
  135.4330  124.0800   59.7910 H   0  0  0  0  0  0  0  0  0  0  0  0
  134.4108  121.8642   62.0074 H   0  0  0  0  0  0  0  0  0  0  0  0
  133.7004  121.3103   60.4533 H   0  0  0  0  0  0  0  0  0  0  0  0
  135.1978  122.3024   60.4533 H   0  0  0  0  0  0  0  0  0  0  0  0
  132.5104  125.9734   59.2554 H   0  0  0  0  0  0  0  0  0  0  0  0
  133.3958  126.2585   57.7187 H   0  0  0  0  0  0  0  0  0  0  0  0
  131.8881  125.2821   57.7187 H   0  0  0  0  0  0  0  0  0  0  0  0
  131.4529  124.2527   61.5046 H   0  0  0  0  0  0  0  0  0  0  0  0
  130.9340  121.6680   62.4096 H   0  0  0  0  0  0  0  0  0  0  0  0
  130.1398  119.9719   62.4257 H   0  0  0  0  0  0  0  0  0  0  0  0
  128.4959  118.1276   62.7383 H   0  0  0  0  0  0  0  0  0  0  0  0
  128.4286  116.2395   61.1170 H   0  0  0  0  0  0  0  0  0  0  0  0
  129.9995  116.1796   59.1877 H   0  0  0  0  0  0  0  0  0  0  0  0
  131.6478  118.0192   58.8697 H   0  0  0  0  0  0  0  0  0  0  0  0
  129.3250  120.9180   60.1700 H   0  0  0  0  0  0  0  0  0  0  0  0
  130.2533  123.5206   59.4413 H   0  0  0  0  0  0  0  0  0  0  0  0
  128.4558  123.0878   59.3509 H   0  0  0  0  0  0  0  0  0  0  0  0
  127.7693  125.0494   60.2158 H   0  0  0  0  0  0  0  0  0  0  0  0
  129.6905  127.7480   57.1408 H   0  0  0  0  0  0  0  0  0  0  0  0
  130.9380  127.4410   59.3430 H   0  0  0  0  0  0  0  0  0  0  0  0
  127.9629  129.3370   57.3363 H   0  0  0  0  0  0  0  0  0  0  0  0
  127.1830  129.5960   59.4430 H   0  0  0  0  0  0  0  0  0  0  0  0
  133.1111  131.8434   61.0799 H   0  0  0  0  0  0  0  0  0  0  0  0
  132.8359  130.7693   59.6667 H   0  0  0  0  0  0  0  0  0  0  0  0
  132.1765  132.4401   59.6667 H   0  0  0  0  0  0  0  0  0  0  0  0
  131.0082  131.2399   63.1067 H   0  0  0  0  0  0  0  0  0  0  0  0
  131.3506  132.7739   62.2372 H   0  0  0  0  0  0  0  0  0  0  0  0
  129.6882  132.0932   62.2372 H   0  0  0  0  0  0  0  0  0  0  0  0
  131.2681  129.4356   62.3876 H   0  0  0  0  0  0  0  0  0  0  0  0
  130.4154  128.9799   60.8737 H   0  0  0  0  0  0  0  0  0  0  0  0
  132.2005  129.1797   60.8737 H   0  0  0  0  0  0  0  0  0  0  0  0
  128.2488  132.0870   57.5446 H   0  0  0  0  0  0  0  0  0  0  0  0
  129.7898  133.8490   56.6894 H   0  0  0  0  0  0  0  0  0  0  0  0
  132.1615  133.2826   56.1821 H   0  0  0  0  0  0  0  0  0  0  0  0
  133.0034  130.9640   56.5225 H   0  0  0  0  0  0  0  0  0  0  0  0
  131.4670  129.1983   57.3808 H   0  0  0  0  0  0  0  0  0  0  0  0
  129.9655  127.1713   62.7640 H   0  0  0  0  0  0  0  0  0  0  0  0
  130.8462  126.9677   61.2118 H   0  0  0  0  0  0  0  0  0  0  0  0
  129.1534  127.5684   61.2118 H   0  0  0  0  0  0  0  0  0  0  0  0
  126.6211  123.4701   63.1861 H   0  0  0  0  0  0  0  0  0  0  0  0
  126.9886  124.3249   61.6496 H   0  0  0  0  0  0  0  0  0  0  0  0
  126.7347  122.5466   61.6496 H   0  0  0  0  0  0  0  0  0  0  0  0
  128.7016  122.7651   64.6191 H   0  0  0  0  0  0  0  0  0  0  0  0
  127.8862  121.4997   63.6391 H   0  0  0  0  0  0  0  0  0  0  0  0
  129.6785  121.6198   63.6391 H   0  0  0  0  0  0  0  0  0  0  0  0
  1  2  1  0
  2  3  1  0
  3  4  1  0
  4  5  2  0
  4  6  1  0
  6  7  1  1
  6  8  1  0
  8  9  1  0
  9 10  1  0
  8 11  1  0
 11 12  1  0
 12 13  1  0
 12 14  1  0
 14 15  1  0
 14 16  1  6
 16 17  1  0
 17 18  1  0
 17 19  2  0
 14 20  1  0
 20 21  1  0
 21 22  1  0
 22 23  1  0
 23 24  2  0
 23 25  1  0
 25 26  2  0
 26 27  1  0
 27 28  2  0
 28 29  1  0
 29 30  2  0
 21 31  1  0
 31 32  1  6
 31 33  1  0
 33 34  1  0
 34 35  1  0
 35 36  1  0
 36 37  2  0
 36 38  1  0
 38 39  1  0
 38 40  1  0
 40 41  1  0
 41 42  1  0
 42 43  2  0
 42 44  1  0
 44 45  1  0
 45 46  1  0
 45 47  1  0
 45 48  1  0
 40 49  1  0
 49 50  2  0
 50 51  1  0
 51 52  2  0
 52 53  1  0
 53 54  2  0
 34 55  1  0
 55 56  1  0
 55 57  2  0
 57 58  1  0
 58 59  1  0
 58 60  1  0
 57  3  1  0
 20  6  1  0
 30 25  1  0
 58 31  1  0
 54 49  1  0
  1 61  1  0
  1 62  1  0
  1 63  1  0
  3 64  1  6
  7 65  1  0
  7 66  1  0
  7 67  1  0
  8 68  1  6
 10 69  1  0
 10 70  1  0
 10 71  1  0
 11 72  1  0
 11 73  1  0
 12 74  1  6
 13 75  1  0
 15 76  1  0
 15 77  1  0
 15 78  1  0
 18 79  1  0
 18 80  1  0
 18 81  1  0
 20 82  1  6
 21 83  1  1
 26 84  1  0
 27 85  1  0
 28 86  1  0
 29 87  1  0
 30 88  1  0
 32 89  1  0
 33 90  1  0
 33 91  1  0
 34 92  1  1
 38 93  1  6
 39 94  1  0
 40 95  1  6
 41 96  1  0
 46 97  1  0
 46 98  1  0
 46 99  1  0
 47100  1  0
 47101  1  0
 47102  1  0
 48103  1  0
 48104  1  0
 48105  1  0
 50106  1  0
 51107  1  0
 52108  1  0
 53109  1  0
 54110  1  0
 56111  1  0
 56112  1  0
 56113  1  0
 59114  1  0
 59115  1  0
 59116  1  0
 60117  1  0
 60118  1  0
 60119  1  0
M  END
>  <Binding energies>  (1) 
[-5.85]

>  <Ligand effiencies>  (1) 
[-0.08863636363636362]

>  <Interactions>  (1) 
["V-A:ILE:369:CG2:3237, V-A:ASP:366:CA:3210, V-B:TYR:539:CA:9841, V-A:GLY:454:CA:4049, V-A:ILE:369:CB:3236, H-A:CYS:365:O:3206, V-B:GLU:543:CB:9878, V-A:ILE:538:CB:4862, V-B:ALA:541:CB:9864, H-A:TYR:531:OH:4795, V-B:TYR:539:CE2:9848, V-A:LEU:475:CG:4257, V-B:GLU:543:CG:9879, V-B:TYR:539:C:9839, V-A:ASP:366:CG:3213, V-A:ILE:538:CG2:4863, V-A:LEU:363:CD1:3189, V-B:TYR:539:CZ:9849, V-A:ILE:538:CA:4860, H-A:ASN:370:N:3244, V-A:TYR:531:CE2:4793, H-B:TYR:539:OH:9850, V-B:VAL:344:CG1:7972, H-B:ALA:541:N:9863, V-A:LEU:475:CD1:4258, V-B:TYR:539:CB:9843, V-A:HIS:383:CE1:3393, V-A:GLU:543:CD:4908, V-A:ARG:545:CG:4922, H-A:GLY:454:N:4050, V-A:GLY:453:C:4042, H-A:ASP:366:N:3211, V-A:ILE:369:CD1:3239, V-A:ASP:366:C:3208, V-A:PRO:482:CB:4326, V-B:TYR:539:CD2:9846, V-A:TYR:531:CZ:4794, H-A:SER:385:OG:3410, V-B:GLU:543:CD:9880, V-A:MET:535:CE:4835, V-A:ILE:369:CG1:3238, V-A:ASP:366:CB:3212, V-A:ARG:545:CD:4923, V-A:LEU:475:CD2:4259, H-A:ARG:545:NH2:4928, V-A:ARG:545:CZ:4926, V-B:TYR:539:CG:9844, H-A:ASP:366:O:3209, H-A:ASP:366:OD1:3214, V-A:HIS:383:CD2:3392, V-A:PRO:540:N:4884, V-A:GLY:453:CA:4044, V-A:PRO:482:CG:4327, V-A:PRO:540:CA:4883, V-A:PRO:540:CB:4885, H-B:TYR:539:O:9840, H-A:ARG:545:NE:4924, V-B:PRO:540:C:9853, H-A:ASP:366:OD2:3215, V-B:ALA:541:CA:9862, V-A:HIS:383:NE2:3394, H-A:TYR:484:OH:4348"]

$$$$
ZINC6088396-again1
     RDKit          3D

 55 59  0  0  0  0  0  0  0  0999 V2000
  126.6260  129.2210   66.7060 C   0  0  0  0  0  0  0  0  0  0  0  0
  127.9860  128.7560   66.1680 C   0  0  0  0  0  0  0  0  0  0  0  0
  128.8860  128.1840   66.8770 N   0  0  0  0  0  0  0  0  0  0  0  0
  128.7310  127.9400   68.2460 C   0  0  0  0  0  0  0  0  0  0  0  0
  129.7400  128.3020   69.1450 C   0  0  0  0  0  0  0  0  0  0  0  0
  129.6190  128.0140   70.5020 C   0  0  0  0  0  0  0  0  0  0  0  0
  128.4880  127.3480   70.9760 C   0  0  0  0  0  0  0  0  0  0  0  0
  128.3500  126.9680   72.7310 S   0  0  0  0  0  0  0  0  0  0  0  0
  128.7430  125.5590   72.8730 O   0  0  0  0  0  0  0  0  0  0  0  0
  126.9610  127.3020   73.0630 O   0  0  0  0  0  0  0  0  0  0  0  0
  129.3800  128.0030   73.3200 N   0  0  0  0  0  0  0  0  0  0  0  0
  129.0620  129.2750   73.7370 C   0  0  0  0  0  0  0  0  0  0  0  0
  128.0340  129.3640   74.6270 N   0  0  0  0  0  0  0  0  0  0  0  0
  127.6650  130.5970   75.0650 C   0  0  0  0  0  0  0  0  0  0  0  0
  128.3000  131.7600   74.6340 C   0  0  0  0  0  0  0  0  0  0  0  0
  129.3430  131.5980   73.7220 C   0  0  0  0  0  0  0  0  0  0  0  0
  130.1110  132.7800   73.1660 C   0  0  0  0  0  0  0  0  0  0  0  0
  129.7270  130.3760   73.2760 N   0  0  0  0  0  0  0  0  0  0  0  0
  127.4790  126.9720   70.0850 C   0  0  0  0  0  0  0  0  0  0  0  0
  127.6080  127.2590   68.7300 C   0  0  0  0  0  0  0  0  0  0  0  0
  128.2620  128.9800   64.7280 C   0  0  0  0  0  0  0  0  0  0  0  0
  128.7570  128.0350   63.7740 C   0  0  0  0  0  0  0  0  0  0  0  0
  129.1260  126.5620   63.9590 C   0  0  0  0  0  0  0  0  0  0  0  0
  128.3640  125.7780   63.1970 F   0  0  0  0  0  0  0  0  0  0  0  0
  130.4000  126.3400   63.6310 F   0  0  0  0  0  0  0  0  0  0  0  0
  128.9770  126.1460   65.2200 F   0  0  0  0  0  0  0  0  0  0  0  0
  128.8890  128.5580   62.5730 N   0  0  0  0  0  0  0  0  0  0  0  0
  128.4810  129.8240   62.6660 N   0  0  0  0  0  0  0  0  0  0  0  0
  128.5350  130.5970   61.5220 C   0  0  0  0  0  0  0  0  0  0  0  0
  127.8240  130.3410   60.4550 N   0  0  0  0  0  0  0  0  0  0  0  0
  128.0670  131.2470   59.4710 C   0  0  0  0  0  0  0  0  0  0  0  0
  127.4570  131.2400   58.2070 C   0  0  0  0  0  0  0  0  0  0  0  0
  127.8080  132.2370   57.2950 C   0  0  0  0  0  0  0  0  0  0  0  0
  128.7400  133.2220   57.6200 C   0  0  0  0  0  0  0  0  0  0  0  0
  129.3600  133.2500   58.8690 C   0  0  0  0  0  0  0  0  0  0  0  0
  129.0170  132.2540   59.7940 C   0  0  0  0  0  0  0  0  0  0  0  0
  129.5960  131.9900   61.4340 S   0  0  0  0  0  0  0  0  0  0  0  0
  128.0830  130.1420   63.9480 C   0  0  0  0  0  0  0  0  0  0  0  0
  127.6610  131.3070   64.2730 O   0  0  0  0  0  0  0  0  0  0  0  0
  126.6451  129.2145   67.8058 H   0  0  0  0  0  0  0  0  0  0  0  0
  126.4196  130.2408   66.3489 H   0  0  0  0  0  0  0  0  0  0  0  0
  125.8385  128.5411   66.3489 H   0  0  0  0  0  0  0  0  0  0  0  0
  130.6380  128.8193   68.7762 H   0  0  0  0  0  0  0  0  0  0  0  0
  130.4150  128.3115   71.2004 H   0  0  0  0  0  0  0  0  0  0  0  0
  126.8368  130.6793   75.7842 H   0  0  0  0  0  0  0  0  0  0  0  0
  127.9949  132.7536   74.9940 H   0  0  0  0  0  0  0  0  0  0  0  0
  130.5042  133.3851   73.9962 H   0  0  0  0  0  0  0  0  0  0  0  0
  130.9463  132.4171   72.5491 H   0  0  0  0  0  0  0  0  0  0  0  0
  129.4400  133.3958   72.5491 H   0  0  0  0  0  0  0  0  0  0  0  0
  126.5842  126.4499   70.4547 H   0  0  0  0  0  0  0  0  0  0  0  0
  126.8182  126.9471   68.0307 H   0  0  0  0  0  0  0  0  0  0  0  0
  126.7202  130.4676   57.9414 H   0  0  0  0  0  0  0  0  0  0  0  0
  127.3398  132.2457   56.2997 H   0  0  0  0  0  0  0  0  0  0  0  0
  128.9913  133.9925   56.8762 H   0  0  0  0  0  0  0  0  0  0  0  0
  130.0949  134.0290   59.1203 H   0  0  0  0  0  0  0  0  0  0  0  0
  1  2  1  0
  2  3  2  0
  3  4  1  0
  4  5  2  0
  5  6  1  0
  6  7  2  0
  7  8  1  0
  8  9  2  0
  8 10  2  0
  8 11  1  0
 11 12  1  0
 12 13  2  0
 13 14  1  0
 14 15  2  0
 15 16  1  0
 16 17  1  0
 16 18  2  0
  7 19  1  0
 19 20  2  0
  2 21  1  0
 21 22  1  0
 22 23  1  0
 23 24  1  0
 23 25  1  0
 23 26  1  0
 22 27  2  0
 27 28  1  0
 28 29  1  0
 29 30  2  0
 30 31  1  0
 31 32  2  0
 32 33  1  0
 33 34  2  0
 34 35  1  0
 35 36  2  0
 36 37  1  0
 28 38  1  0
 38 39  1  0
 20  4  1  0
 38 21  2  0
 18 12  1  0
 37 29  1  0
 36 31  1  0
  1 40  1  0
  1 41  1  0
  1 42  1  0
  5 43  1  0
  6 44  1  0
 14 45  1  0
 15 46  1  0
 17 47  1  0
 17 48  1  0
 17 49  1  0
 19 50  1  0
 20 51  1  0
 32 52  1  0
 33 53  1  0
 34 54  1  0
 35 55  1  0
M  CHG  2  11  -1  39  -1
M  END
>  <Binding energies>  (1) 
[-8.64]

>  <Ligand effiencies>  (1) 
[-0.22153846153846155]

>  <Interactions>  (1) 
["V-A:GLU:543:CA:4904, V-B:HIS:456:CD2:9039, V-B:GLU:543:C:9874, V-A:GLU:543:C:4902, V-B:GLU:543:CB:9878, H-B:LYS:547:NZ:9923, V-A:GLY:544:CA:4914, V-B:GLU:543:CG:9879, V-A:TYR:539:CD1:4873, V-A:TYR:539:CZ:4877, V-B:LYS:547:CE:9922, V-A:TYR:539:CA:4869, V-A:GLU:543:CD:4908, H-B:TYR:484:OH:9319, V-B:HIS:456:CE1:9041, V-A:HIS:456:CE1:4070, V-B:TYR:484:CZ:9318, V-B:GLY:544:C:9884, V-A:GLU:543:CG:4907, V-B:GLU:543:CD:9880, V-A:TYR:539:C:4867, H-A:LYS:547:NZ:4951, V-A:GLU:543:CB:4906, V-A:PRO:540:N:4884, V-A:TYR:539:CG:4872, V-A:PRO:540:CA:4883, V-A:LYS:547:CE:4950, V-A:TYR:539:CE1:4875"]

$$$$
ZINC6089377
     RDKit          3D

 67 67  0  0  0  0  0  0  0  0999 V2000
  130.7790  125.8870   57.6570 C   0  0  0  0  0  0  0  0  0  0  0  0
  131.9500  126.1730   58.6030 C   0  0  0  0  0  0  0  0  0  0  0  0
  132.3610  124.9620   59.2230 O   0  0  0  0  0  0  0  0  0  0  0  0
  133.5010  124.3470   58.8470 C   0  0  0  0  0  0  0  0  0  0  0  0
  133.8380  124.0940   57.6890 O   0  0  0  0  0  0  0  0  0  0  0  0
  134.3630  123.9590   60.0590 C   0  0  0  0  0  0  0  0  0  0  0  0
  133.6130  123.2880   61.2510 C   0  0  1  0  0  0  0  0  0  0  0  0
  132.6220  124.1580   61.9140 N   0  0  0  0  0  0  0  0  0  0  0  0
  132.7240  124.7900   63.1010 C   0  0  0  0  0  0  0  0  0  0  0  0
  133.6340  124.6190   63.9150 O   0  0  0  0  0  0  0  0  0  0  0  0
  131.6020  125.7920   63.4280 C   0  0  1  0  0  0  0  0  0  0  0  0
  130.4120  125.6090   62.4490 C   0  0  0  0  0  0  0  0  0  0  0  0
  130.1480  126.8490   61.5990 C   0  0  0  0  0  0  0  0  0  0  0  0
  131.1220  127.8430   61.4960 C   0  0  0  0  0  0  0  0  0  0  0  0
  130.9710  128.8880   60.5890 C   0  0  0  0  0  0  0  0  0  0  0  0
  129.8690  128.9410   59.7190 C   0  0  0  0  0  0  0  0  0  0  0  0
  129.7160  130.0100   58.7900 N   0  0  0  0  0  0  0  0  0  0  0  0
  128.8070  131.1300   59.0520 C   0  0  0  0  0  0  0  0  0  0  0  0
  129.5310  132.3910   59.5540 C   0  0  0  0  0  0  0  0  0  0  0  0
  129.8730  132.2510   61.2970 Cl  0  0  0  0  0  0  0  0  0  0  0  0
  130.4650  130.0480   57.5290 C   0  0  0  0  0  0  0  0  0  0  0  0
  131.8010  130.8000   57.6410 C   0  0  0  0  0  0  0  0  0  0  0  0
  131.7240  132.3270   56.7270 Cl  0  0  0  0  0  0  0  0  0  0  0  0
  128.9340  127.8930   59.7860 C   0  0  0  0  0  0  0  0  0  0  0  0
  129.0870  126.8490   60.6940 C   0  0  0  0  0  0  0  0  0  0  0  0
  131.1980  125.6820   64.8350 N   0  0  0  0  0  0  0  0  0  0  0  0
  130.5800  124.6250   65.3900 C   0  0  0  0  0  0  0  0  0  0  0  0
  130.2250  124.7420   66.8680 C   0  0  0  0  0  0  0  0  0  0  0  0
  130.3010  123.5960   64.7750 O   0  0  0  0  0  0  0  0  0  0  0  0
  132.9100  121.9830   60.8810 C   0  0  0  0  0  0  0  0  0  0  0  0
  133.5140  120.9110   60.8080 O   0  0  0  0  0  0  0  0  0  0  0  0
  131.5860  122.1470   60.6410 O   0  0  0  0  0  0  0  0  0  0  0  0
  130.6130  121.4480   61.4020 C   0  0  0  0  0  0  0  0  0  0  0  0
  129.2860  122.2100   61.3340 C   0  0  0  0  0  0  0  0  0  0  0  0
  129.8768  125.6667   58.2465 H   0  0  0  0  0  0  0  0  0  0  0  0
  130.5967  126.7670   57.0227 H   0  0  0  0  0  0  0  0  0  0  0  0
  131.0229  125.0220   57.0227 H   0  0  0  0  0  0  0  0  0  0  0  0
  132.7891  126.5960   58.0312 H   0  0  0  0  0  0  0  0  0  0  0  0
  131.6337  126.8918   59.3732 H   0  0  0  0  0  0  0  0  0  0  0  0
  135.1353  123.2574   59.7107 H   0  0  0  0  0  0  0  0  0  0  0  0
  134.7574  124.9064   60.4552 H   0  0  0  0  0  0  0  0  0  0  0  0
  134.4335  123.0795   61.9534 H   0  0  0  0  0  0  0  0  0  0  0  0
  131.8160  124.3710   61.3440 H   0  0  0  0  0  0  0  0  0  0  0  0
  131.9817  126.8149   63.2884 H   0  0  0  0  0  0  0  0  0  0  0  0
  130.6345  124.7651   61.7795 H   0  0  0  0  0  0  0  0  0  0  0  0
  129.5117  125.4246   63.0535 H   0  0  0  0  0  0  0  0  0  0  0  0
  132.0155  127.8004   62.1362 H   0  0  0  0  0  0  0  0  0  0  0  0
  131.7273  129.6859   60.5527 H   0  0  0  0  0  0  0  0  0  0  0  0
  128.2789  131.3776   58.1194 H   0  0  0  0  0  0  0  0  0  0  0  0
  128.1150  130.8117   59.8456 H   0  0  0  0  0  0  0  0  0  0  0  0
  130.4776  132.5089   59.0063 H   0  0  0  0  0  0  0  0  0  0  0  0
  128.8872  133.2665   59.3836 H   0  0  0  0  0  0  0  0  0  0  0  0
  130.6708  129.0146   57.2133 H   0  0  0  0  0  0  0  0  0  0  0  0
  129.8462  130.5880   56.7972 H   0  0  0  0  0  0  0  0  0  0  0  0
  132.0071  131.0195   58.6990 H   0  0  0  0  0  0  0  0  0  0  0  0
  132.6029  130.1722   57.2253 H   0  0  0  0  0  0  0  0  0  0  0  0
  128.0668  127.8982   59.1093 H   0  0  0  0  0  0  0  0  0  0  0  0
  128.3660  126.0183   60.6977 H   0  0  0  0  0  0  0  0  0  0  0  0
  131.3930  126.4910   65.4060 H   0  0  0  0  0  0  0  0  0  0  0  0
  131.0945  124.4554   67.4777 H   0  0  0  0  0  0  0  0  0  0  0  0
  129.9433  125.7805   67.0963 H   0  0  0  0  0  0  0  0  0  0  0  0
  129.3810  124.0745   67.0963 H   0  0  0  0  0  0  0  0  0  0  0  0
  130.4793  120.4368   60.9902 H   0  0  0  0  0  0  0  0  0  0  0  0
  130.9442  121.3706   62.4481 H   0  0  0  0  0  0  0  0  0  0  0  0
  128.9284  122.4153   62.3538 H   0  0  0  0  0  0  0  0  0  0  0  0
  129.4356  123.1598   60.7997 H   0  0  0  0  0  0  0  0  0  0  0  0
  128.5411  121.6021   60.7997 H   0  0  0  0  0  0  0  0  0  0  0  0
  1  2  1  0
  2  3  1  0
  3  4  1  0
  4  5  2  0
  4  6  1  0
  6  7  1  0
  7  8  1  0
  8  9  1  0
  9 10  2  0
  9 11  1  0
 11 12  1  0
 12 13  1  0
 13 14  2  0
 14 15  1  0
 15 16  2  0
 16 17  1  0
 17 18  1  0
 18 19  1  0
 19 20  1  0
 17 21  1  0
 21 22  1  0
 22 23  1  0
 16 24  1  0
 24 25  2  0
 11 26  1  0
 26 27  1  0
 27 28  1  0
 27 29  2  0
  7 30  1  0
 30 31  2  0
 30 32  1  0
 32 33  1  0
 33 34  1  0
 25 13  1  0
  1 35  1  0
  1 36  1  0
  1 37  1  0
  2 38  1  0
  2 39  1  0
  6 40  1  0
  6 41  1  0
  7 42  1  1
  8 43  1  0
 11 44  1  1
 12 45  1  0
 12 46  1  0
 14 47  1  0
 15 48  1  0
 18 49  1  0
 18 50  1  0
 19 51  1  0
 19 52  1  0
 21 53  1  0
 21 54  1  0
 22 55  1  0
 22 56  1  0
 24 57  1  0
 25 58  1  0
 26 59  1  0
 28 60  1  0
 28 61  1  0
 28 62  1  0
 33 63  1  0
 33 64  1  0
 34 65  1  0
 34 66  1  0
 34 67  1  0
M  END
>  <Binding energies>  (1) 
[-5.36]

>  <Ligand effiencies>  (1) 
[-0.1488888888888889]

>  <Interactions>  (1) 
["V-A:ILE:369:CG2:3237, V-A:ASP:366:CA:3210, H-A:GLU:543:OE2:4910, V-A:ILE:369:CB:3236, V-B:GLU:543:CB:9878, V-A:ILE:538:CB:4862, V-B:TYR:539:CE2:9848, V-A:TYR:484:CE2:4346, V-B:GLU:543:CG:9879, V-A:ASP:366:CG:3213, V-A:LEU:363:CD1:3189, V-B:TYR:539:CZ:9849, H-A:ASN:370:N:3244, H-B:TYR:539:OH:9850, V-A:GLU:543:CD:4908, V-A:TYR:484:CZ:4347, H-A:GLY:454:N:4050, V-A:ILE:369:CD1:3239, V-A:HIS:456:CE1:4070, V-B:TYR:539:CD2:9846, H-A:SER:385:OG:3410, V-A:ILE:369:CG1:3238, V-A:ASP:366:CB:3212, V-A:LEU:475:CD2:4259, H-A:ARG:545:NH2:4928, V-A:ARG:545:CZ:4926, H-A:GLU:543:OE1:4909, V-A:PRO:540:N:4884, V-A:PRO:540:CA:4883, H-A:TYR:484:OH:4348"]

$$$$
ZINC6092126
     RDKit          3D

 28 29  0  0  0  0  0  0  0  0999 V2000
  128.4630  127.4810   73.7330 O   0  0  0  0  0  0  0  0  0  0  0  0
  128.5530  127.5770   72.3670 C   0  0  0  0  0  0  0  0  0  0  0  0
  127.6630  126.8510   71.5750 C   0  0  0  0  0  0  0  0  0  0  0  0
  127.7330  126.9320   70.1850 C   0  0  0  0  0  0  0  0  0  0  0  0
  128.6960  127.7390   69.5700 C   0  0  0  0  0  0  0  0  0  0  0  0
  128.7440  127.8260   68.0440 C   0  0  2  0  0  0  0  0  0  0  0  0
  127.5080  128.2020   67.4570 O   0  0  0  0  0  0  0  0  0  0  0  0
  129.2530  126.5510   67.4140 C   0  0  0  0  0  0  0  0  0  0  0  0
  129.1990  125.3230   67.9400 N   0  0  0  0  0  0  0  0  0  0  0  0
  129.9350  124.3490   67.1460 C   0  0  0  0  0  0  0  0  0  0  0  0
  130.0350  125.0720   65.8120 C   0  0  0  0  0  0  0  0  0  0  0  0
  129.8580  126.4560   66.2270 N   0  0  0  0  0  0  0  0  0  0  0  0
  129.5850  128.4700   70.3670 C   0  0  0  0  0  0  0  0  0  0  0  0
  129.5200  128.3900   71.7610 C   0  0  0  0  0  0  0  0  0  0  0  0
  130.4100  129.1140   72.5150 O   0  0  0  0  0  0  0  0  0  0  0  0
  129.1010  128.0300   74.1940 H   0  0  0  0  0  0  0  0  0  0  0  0
  126.9032  126.2123   72.0491 H   0  0  0  0  0  0  0  0  0  0  0  0
  127.0264  126.3576   69.5679 H   0  0  0  0  0  0  0  0  0  0  0  0
  129.4612  128.6327   67.8320 H   0  0  0  0  0  0  0  0  0  0  0  0
  127.2100  127.4880   66.8870 H   0  0  0  0  0  0  0  0  0  0  0  0
  128.8000  125.1070   68.8430 H   0  0  0  0  0  0  0  0  0  0  0  0
  130.9293  124.1498   67.5723 H   0  0  0  0  0  0  0  0  0  0  0  0
  129.4580  123.3594   67.0890 H   0  0  0  0  0  0  0  0  0  0  0  0
  131.0164  124.9148   65.3408 H   0  0  0  0  0  0  0  0  0  0  0  0
  129.3107  124.7305   65.0578 H   0  0  0  0  0  0  0  0  0  0  0  0
  130.0500  127.2400   65.6200 H   0  0  0  0  0  0  0  0  0  0  0  0
  130.3410  129.1127   69.8923 H   0  0  0  0  0  0  0  0  0  0  0  0
  130.6140  129.9730   72.1410 H   0  0  0  0  0  0  0  0  0  0  0  0
  1  2  1  0
  2  3  2  0
  3  4  1  0
  4  5  2  0
  5  6  1  0
  6  7  1  0
  6  8  1  0
  8  9  2  0
  9 10  1  0
 10 11  1  0
 11 12  1  0
  5 13  1  0
 13 14  2  0
 14 15  1  0
 14  2  1  0
 12  8  1  0
  1 16  1  0
  3 17  1  0
  4 18  1  0
  6 19  1  1
  7 20  1  0
  9 21  1  0
 10 22  1  0
 10 23  1  0
 11 24  1  0
 11 25  1  0
 12 26  1  0
 13 27  1  0
 15 28  1  0
M  CHG  1   9   1
M  END
>  <Binding energies>  (1) 
[-5.85]

>  <Ligand effiencies>  (1) 
[-0.2925]

>  <Interactions>  (1) 
["V-B:HIS:456:CD2:9039, H-A:GLU:543:OE2:4910, H-B:GLU:543:O:9875, V-B:GLU:543:C:9874, V-A:GLU:543:C:4902, V-B:GLU:543:CB:9878, H-B:LYS:547:NZ:9923, V-A:TYR:484:CE2:4346, V-B:GLU:543:CG:9879, V-A:GLU:543:CD:4908, V-A:TYR:484:CZ:4347, V-B:HIS:456:CE1:9041, V-B:GLU:543:CA:9876, V-A:HIS:456:CE1:4070, V-B:GLY:544:C:9884, V-B:GLY:544:CA:9886, V-B:GLU:543:CD:9880, H-A:LYS:547:NZ:4951, H-A:GLU:543:OE1:4909, V-A:GLU:543:CB:4906, H-B:GLU:543:OE2:9882, H-A:GLY:544:O:4913, H-A:HIS:456:NE2:4071, H-A:GLU:543:O:4903"]

$$$$
ZINC6134505
     RDKit          3D

 46 49  0  0  0  0  0  0  0  0999 V2000
  130.6800  116.9140   62.2280 C   0  0  0  0  0  0  0  0  0  0  0  0
  130.0870  117.0260   60.8210 C   0  0  0  0  0  0  0  0  0  0  0  0
  130.9840  118.1800   59.7340 S   0  0  0  0  0  0  0  0  0  0  0  0
  131.0050  119.6410   60.7280 C   0  0  0  0  0  0  0  0  0  0  0  0
  129.9650  120.0600   61.4460 N   0  0  0  0  0  0  0  0  0  0  0  0
  130.4240  121.1480   62.0010 C   0  0  0  0  0  0  0  0  0  0  0  0
  131.7220  121.3710   61.6220 N   0  0  0  0  0  0  0  0  0  0  0  0
  132.0930  120.3840   60.8020 N   0  0  0  0  0  0  0  0  0  0  0  0
  132.5410  122.5440   61.9560 C   0  0  1  0  0  0  0  0  0  0  0  0
  132.7210  123.4620   60.7380 C   0  0  0  0  0  0  0  0  0  0  0  0
  131.6440  124.1850   60.2080 C   0  0  0  0  0  0  0  0  0  0  0  0
  131.8670  125.0090   59.1030 C   0  0  0  0  0  0  0  0  0  0  0  0
  133.1490  125.0930   58.5560 C   0  0  0  0  0  0  0  0  0  0  0  0
  134.1720  124.3430   59.1390 C   0  0  0  0  0  0  0  0  0  0  0  0
  133.9750  123.5350   60.2120 N   0  0  0  0  0  0  0  0  0  0  0  0
  131.8790  123.2550   63.1660 C   0  0  0  0  0  0  0  0  0  0  0  0
  130.6270  122.9200   63.6000 C   0  0  0  0  0  0  0  0  0  0  0  0
  129.8970  123.6900   64.7050 C   0  0  0  0  0  0  0  0  0  0  0  0
  130.3870  125.1650   64.7900 C   0  0  0  0  0  0  0  0  0  0  0  0
  129.8200  125.7880   66.0820 C   0  0  0  0  0  0  0  0  0  0  0  0
  129.9680  125.9610   63.5230 C   0  0  0  0  0  0  0  0  0  0  0  0
  131.9360  125.1370   64.9220 C   0  0  0  0  0  0  0  0  0  0  0  0
  132.6480  124.3430   63.8100 C   0  0  0  0  0  0  0  0  0  0  0  0
  133.8440  124.5240   63.5870 O   0  0  0  0  0  0  0  0  0  0  0  0
  129.8610  121.9440   62.9760 N   0  0  0  0  0  0  0  0  0  0  0  0
  129.8855  117.0641   62.9738 H   0  0  0  0  0  0  0  0  0  0  0  0
  131.1236  115.9162   62.3606 H   0  0  0  0  0  0  0  0  0  0  0  0
  131.4570  117.6813   62.3606 H   0  0  0  0  0  0  0  0  0  0  0  0
  130.1040  116.0287   60.3572 H   0  0  0  0  0  0  0  0  0  0  0  0
  129.0665  117.4207   60.9342 H   0  0  0  0  0  0  0  0  0  0  0  0
  133.5600  122.2413   62.2389 H   0  0  0  0  0  0  0  0  0  0  0  0
  130.6417  124.1049   60.6541 H   0  0  0  0  0  0  0  0  0  0  0  0
  131.0392  125.5874   58.6668 H   0  0  0  0  0  0  0  0  0  0  0  0
  133.3483  125.7354   57.6856 H   0  0  0  0  0  0  0  0  0  0  0  0
  135.1826  124.4097   58.7099 H   0  0  0  0  0  0  0  0  0  0  0  0
  128.8177  123.6833   64.4925 H   0  0  0  0  0  0  0  0  0  0  0  0
  130.1092  123.1993   65.6663 H   0  0  0  0  0  0  0  0  0  0  0  0
  130.2699  125.2936   66.9556 H   0  0  0  0  0  0  0  0  0  0  0  0
  130.0571  126.8619   66.1059 H   0  0  0  0  0  0  0  0  0  0  0  0
  128.7286  125.6528   66.1059 H   0  0  0  0  0  0  0  0  0  0  0  0
  129.4752  126.8971   63.8244 H   0  0  0  0  0  0  0  0  0  0  0  0
  130.8608  126.1930   62.9238 H   0  0  0  0  0  0  0  0  0  0  0  0
  129.2713  125.3563   62.9238 H   0  0  0  0  0  0  0  0  0  0  0  0
  132.3037  126.1734   64.8960 H   0  0  0  0  0  0  0  0  0  0  0  0
  132.1643  124.6288   65.8705 H   0  0  0  0  0  0  0  0  0  0  0  0
  128.9880  121.6710   63.4060 H   0  0  0  0  0  0  0  0  0  0  0  0
  1  2  1  0
  2  3  1  0
  3  4  1  0
  4  5  1  0
  5  6  2  0
  6  7  1  0
  7  8  1  0
  7  9  1  0
  9 10  1  0
 10 11  2  0
 11 12  1  0
 12 13  2  0
 13 14  1  0
 14 15  2  0
  9 16  1  0
 16 17  2  0
 17 18  1  0
 18 19  1  0
 19 20  1  0
 19 21  1  0
 19 22  1  0
 22 23  1  0
 23 24  2  0
 17 25  1  0
  8  4  2  0
 15 10  1  0
 23 16  1  0
 25  6  1  0
  1 26  1  0
  1 27  1  0
  1 28  1  0
  2 29  1  0
  2 30  1  0
  9 31  1  1
 11 32  1  0
 12 33  1  0
 13 34  1  0
 14 35  1  0
 18 36  1  0
 18 37  1  0
 20 38  1  0
 20 39  1  0
 20 40  1  0
 21 41  1  0
 21 42  1  0
 21 43  1  0
 22 44  1  0
 22 45  1  0
 25 46  1  0
M  END
>  <Binding energies>  (1) 
[-7.81]

>  <Ligand effiencies>  (1) 
[-0.30038461538461536]

>  <Interactions>  (1) 
["V-A:ILE:369:CG2:3237, V-A:ASP:366:CA:3210, V-A:ILE:369:CB:3236, V-B:GLU:543:CB:9878, V-B:ALA:541:CB:9864, V-B:TYR:539:CE2:9848, V-A:TYR:484:CE2:4346, V-A:LEU:475:CG:4257, V-B:GLU:543:CG:9879, V-A:ASP:366:CG:3213, V-B:VAL:344:CG1:7972, V-A:LEU:475:CD1:4258, V-A:HIS:383:CE1:3393, V-A:GLU:543:CD:4908, H-A:GLY:454:N:4050, V-A:ILE:369:CD1:3239, V-A:ASP:366:C:3208, V-A:PRO:482:CB:4326, V-B:TYR:539:CD2:9846, H-A:SER:385:OG:3410, V-B:GLU:543:CD:9880, V-A:ASP:366:CB:3212, V-A:LEU:475:CD2:4259, H-A:ARG:545:NH2:4928, V-A:ARG:545:CZ:4926, H-A:HIS:383:HE2:3395, V-A:PRO:482:CG:4327, V-A:HIS:383:NE2:3394"]

$$$$
ZINC61442
     RDKit          3D

 32 33  0  0  0  0  0  0  0  0999 V2000
  129.8570  126.5690   69.2050 C   0  0  0  0  0  0  0  0  0  0  0  0
  128.7410  127.6310   69.3850 C   0  0  0  0  0  0  0  0  0  0  0  0
  128.2100  128.1570   68.0340 C   0  0  0  0  0  0  0  0  0  0  0  0
  127.5380  127.0150   70.1590 C   0  0  0  0  0  0  0  0  0  0  0  0
  127.8170  126.7220   71.6480 C   0  0  0  0  0  0  0  0  0  0  0  0
  127.3460  125.7130   72.1820 O   0  0  0  0  0  0  0  0  0  0  0  0
  128.6460  127.6720   72.4210 C   0  0  0  0  0  0  0  0  0  0  0  0
  128.4390  127.6540   73.7000 N   0  0  0  0  0  0  0  0  0  0  0  0
  129.0510  128.4960   74.5180 N   0  0  0  0  0  0  0  0  0  0  0  0
  128.4330  129.7340   74.6150 C   0  0  0  0  0  0  0  0  0  0  0  0
  128.9580  130.9620   74.1400 C   0  0  0  0  0  0  0  0  0  0  0  0
  128.2600  132.1580   74.2870 C   0  0  0  0  0  0  0  0  0  0  0  0
  127.0230  132.1250   74.9180 C   0  0  0  0  0  0  0  0  0  0  0  0
  126.4760  130.9800   75.3890 N   0  0  0  0  0  0  0  0  0  0  0  0
  127.1660  129.8200   75.2390 C   0  0  0  0  0  0  0  0  0  0  0  0
  126.3770  128.4130   75.8790 Cl  0  0  0  0  0  0  0  0  0  0  0  0
  129.5950  128.5410   71.6610 C   0  0  0  0  0  0  0  0  0  0  0  0
  130.6160  128.9850   72.1900 O   0  0  0  0  0  0  0  0  0  0  0  0
  129.2850  128.8520   70.1850 C   0  0  0  0  0  0  0  0  0  0  0  0
  130.2080  126.2350   70.1925 H   0  0  0  0  0  0  0  0  0  0  0  0
  129.4581  125.7088   68.6474 H   0  0  0  0  0  0  0  0  0  0  0  0
  130.6964  127.0101   68.6474 H   0  0  0  0  0  0  0  0  0  0  0  0
  127.4392  128.9206   68.2152 H   0  0  0  0  0  0  0  0  0  0  0  0
  129.0383  128.6007   67.4621 H   0  0  0  0  0  0  0  0  0  0  0  0
  127.7742  127.3245   67.4621 H   0  0  0  0  0  0  0  0  0  0  0  0
  126.6947  127.7188   70.0996 H   0  0  0  0  0  0  0  0  0  0  0  0
  127.3241  126.0460   69.6844 H   0  0  0  0  0  0  0  0  0  0  0  0
  129.9396  130.9704   73.6437 H   0  0  0  0  0  0  0  0  0  0  0  0
  128.6775  133.1045   73.9130 H   0  0  0  0  0  0  0  0  0  0  0  0
  126.4663  133.0659   75.0396 H   0  0  0  0  0  0  0  0  0  0  0  0
  128.5315  129.6527   70.1503 H   0  0  0  0  0  0  0  0  0  0  0  0
  130.2345  129.1460   69.7137 H   0  0  0  0  0  0  0  0  0  0  0  0
  1  2  1  0
  2  3  1  0
  2  4  1  0
  4  5  1  0
  5  6  2  0
  5  7  1  0
  7  8  2  3
  8  9  1  0
  9 10  1  0
 10 11  2  0
 11 12  1  0
 12 13  2  0
 13 14  1  0
 14 15  2  0
 15 16  1  0
  7 17  1  0
 17 18  2  0
 17 19  1  0
 19  2  1  0
 15 10  1  0
  1 20  1  0
  1 21  1  0
  1 22  1  0
  3 23  1  0
  3 24  1  0
  3 25  1  0
  4 26  1  0
  4 27  1  0
 11 28  1  0
 12 29  1  0
 13 30  1  0
 19 31  1  0
 19 32  1  0
M  CHG  1   9  -1
M  END
>  <Binding energies>  (1) 
[-6.88]

>  <Ligand effiencies>  (1) 
[-0.3621052631578947]

>  <Interactions>  (1) 
["V-A:HIS:456:CE1:4070, V-B:GLU:543:C:9874, V-B:GLY:544:C:9884, V-B:HIS:456:CD2:9039, V-A:GLU:543:C:4902, V-A:LYS:547:CE:4950, V-B:ASP:473:CB:9210, H-B:LYS:547:NZ:9923, H-B:LYS:471:NZ:9192, V-B:GLY:544:CA:9886, V-B:ASP:473:CG:9211, V-B:HIS:456:CB:9036, V-B:LYS:547:CE:9922, H-A:LYS:547:NZ:4951, V-B:HIS:456:CE1:9041, H-B:GLY:544:N:9887, V-A:GLU:543:CB:4906"]

$$$$
ZINC61442-again1
     RDKit          3D

 33 34  0  0  0  0  0  0  0  0999 V2000
  134.1610  122.0590   62.1510 C   0  0  0  0  0  0  0  0  0  0  0  0
  133.4670  123.3410   61.6200 C   0  0  0  0  0  0  0  0  0  0  0  0
  133.9940  123.7600   60.2330 C   0  0  0  0  0  0  0  0  0  0  0  0
  131.9320  123.1060   61.4920 C   0  0  0  0  0  0  0  0  0  0  0  0
  131.1860  122.9820   62.8360 C   0  0  0  0  0  0  0  0  0  0  0  0
  130.2250  122.2140   62.9420 O   0  0  0  0  0  0  0  0  0  0  0  0
  131.6310  123.8010   63.9840 C   0  0  0  0  0  0  0  0  0  0  0  0
  130.7650  123.9510   64.9290 N   0  0  0  0  0  0  0  0  0  0  0  0
  131.0030  124.7380   66.0740 N   0  0  0  0  0  0  0  0  0  0  0  0
  130.0990  125.6510   66.6370 C   0  0  0  0  0  0  0  0  0  0  0  0
  129.8620  125.6970   68.0200 C   0  0  0  0  0  0  0  0  0  0  0  0
  128.9590  126.6210   68.5460 C   0  0  0  0  0  0  0  0  0  0  0  0
  128.3070  127.4840   67.6680 C   0  0  0  0  0  0  0  0  0  0  0  0
  128.5150  127.4620   66.3290 N   0  0  0  0  0  0  0  0  0  0  0  0
  129.3970  126.5600   65.8250 C   0  0  0  0  0  0  0  0  0  0  0  0
  129.6270  126.5770   64.1080 Cl  0  0  0  0  0  0  0  0  0  0  0  0
  133.0020  124.3830   63.9560 C   0  0  0  0  0  0  0  0  0  0  0  0
  133.5710  124.7300   64.9920 O   0  0  0  0  0  0  0  0  0  0  0  0
  133.7120  124.5290   62.5960 C   0  0  0  0  0  0  0  0  0  0  0  0
  134.1560  122.0682   63.2510 H   0  0  0  0  0  0  0  0  0  0  0  0
  133.6197  121.1724   61.7893 H   0  0  0  0  0  0  0  0  0  0  0  0
  135.1993  122.0275   61.7893 H   0  0  0  0  0  0  0  0  0  0  0  0
  134.8496  124.4403   60.3560 H   0  0  0  0  0  0  0  0  0  0  0  0
  134.3131  122.8663   59.6767 H   0  0  0  0  0  0  0  0  0  0  0  0
  133.1952  124.2724   59.6767 H   0  0  0  0  0  0  0  0  0  0  0  0
  131.5007  123.9523   60.9373 H   0  0  0  0  0  0  0  0  0  0  0  0
  131.8066  122.1424   60.9764 H   0  0  0  0  0  0  0  0  0  0  0  0
  131.8840  124.5490   66.5340 H   0  0  0  0  0  0  0  0  0  0  0  0
  130.3897  125.0027   68.6905 H   0  0  0  0  0  0  0  0  0  0  0  0
  128.7664  126.6671   69.6280 H   0  0  0  0  0  0  0  0  0  0  0  0
  127.5936  128.2137   68.0787 H   0  0  0  0  0  0  0  0  0  0  0  0
  133.3519  125.4507   62.1155 H   0  0  0  0  0  0  0  0  0  0  0  0
  134.7921  124.5518   62.8030 H   0  0  0  0  0  0  0  0  0  0  0  0
  1  2  1  0
  2  3  1  0
  2  4  1  0
  4  5  1  0
  5  6  2  0
  5  7  1  0
  7  8  2  3
  8  9  1  0
  9 10  1  0
 10 11  2  0
 11 12  1  0
 12 13  2  0
 13 14  1  0
 14 15  2  0
 15 16  1  0
  7 17  1  0
 17 18  2  0
 17 19  1  0
 19  2  1  0
 15 10  1  0
  1 20  1  0
  1 21  1  0
  1 22  1  0
  3 23  1  0
  3 24  1  0
  3 25  1  0
  4 26  1  0
  4 27  1  0
  9 28  1  0
 11 29  1  0
 12 30  1  0
 13 31  1  0
 19 32  1  0
 19 33  1  0
M  END
>  <Binding energies>  (1) 
[-6.23]

>  <Ligand effiencies>  (1) 
[-0.3115]

>  <Interactions>  (1) 
["V-A:ILE:369:CG2:3237, V-A:ILE:369:CD1:3239, V-A:HIS:456:CE1:4070, V-A:GLY:454:CA:4049, V-A:ILE:369:CB:3236, V-B:GLU:543:CB:9878, H-A:ARG:545:NE:4924, V-B:GLU:543:CD:9880, V-A:TYR:484:CZ:4347, V-A:TYR:484:CE2:4346, V-A:GLU:543:CD:4908, V-B:GLU:543:CG:9879, V-A:LEU:475:CD2:4259, H-A:ARG:545:NH2:4928, V-A:ARG:545:CZ:4926, V-B:HIS:456:CE1:9041, H-A:GLY:454:N:4050, H-A:TYR:484:OH:4348"]

$$$$
ZINC616924391
     RDKit          3D

 40 40  0  0  0  0  0  0  0  0999 V2000
  130.6680  119.0450   60.9380 C   0  0  0  0  0  0  0  0  0  0  0  0
  129.8570  120.1740   61.5980 C   0  0  0  0  0  0  0  0  0  0  0  0
  130.3380  121.6140   61.2570 C   0  0  2  0  0  0  0  0  0  0  0  0
  131.4260  122.1040   62.2650 C   0  0  0  0  0  0  0  0  0  0  0  0
  132.8790  122.1780   61.7360 C   0  0  0  0  0  0  0  0  0  0  0  0
  133.6250  121.2110   61.9080 O   0  0  0  0  0  0  0  0  0  0  0  0
  133.3000  123.3070   61.1020 N   0  0  0  0  0  0  0  0  0  0  0  0
  133.1990  123.5220   59.6540 C   0  0  0  0  0  0  0  0  0  0  0  0
  134.0680  124.3490   61.8070 C   0  0  0  0  0  0  0  0  0  0  0  0
  133.4120  124.8220   63.0950 C   0  0  0  0  0  0  0  0  0  0  0  0
  132.2260  125.5320   63.2480 C   0  0  0  0  0  0  0  0  0  0  0  0
  132.0650  125.6970   64.5950 N   0  0  0  0  0  0  0  0  0  0  0  0
  133.1430  125.0850   65.1690 C   0  0  0  0  0  0  0  0  0  0  0  0
  133.9500  124.5550   64.2820 N   0  0  0  0  0  0  0  0  0  0  0  0
  129.1480  122.6200   61.0890 C   0  0  0  0  0  0  0  0  0  0  0  0
  128.1550  122.6260   62.2710 C   0  0  0  0  0  0  0  0  0  0  0  0
  128.4040  122.4470   59.7490 C   0  0  0  0  0  0  0  0  0  0  0  0
  131.1207  118.4147   61.7176 H   0  0  0  0  0  0  0  0  0  0  0  0
  130.0020  118.4326   60.3123 H   0  0  0  0  0  0  0  0  0  0  0  0
  131.4609  119.4806   60.3123 H   0  0  0  0  0  0  0  0  0  0  0  0
  128.8106  120.0777   61.2729 H   0  0  0  0  0  0  0  0  0  0  0  0
  129.9895  120.0542   62.6834 H   0  0  0  0  0  0  0  0  0  0  0  0
  130.8225  121.5747   60.2703 H   0  0  0  0  0  0  0  0  0  0  0  0
  131.1410  123.1124   62.5994 H   0  0  0  0  0  0  0  0  0  0  0  0
  131.4459  121.3453   63.0612 H   0  0  0  0  0  0  0  0  0  0  0  0
  132.7386  124.5020   59.4601 H   0  0  0  0  0  0  0  0  0  0  0  0
  134.2042  123.4945   59.2082 H   0  0  0  0  0  0  0  0  0  0  0  0
  132.5784  122.7307   59.2082 H   0  0  0  0  0  0  0  0  0  0  0  0
  135.0612  123.9439   62.0509 H   0  0  0  0  0  0  0  0  0  0  0  0
  134.1243  125.2184   61.1354 H   0  0  0  0  0  0  0  0  0  0  0  0
  131.5566  125.8870   62.4505 H   0  0  0  0  0  0  0  0  0  0  0  0
  131.3070  126.1690   65.0670 H   0  0  0  0  0  0  0  0  0  0  0  0
  133.3149  125.0417   66.2546 H   0  0  0  0  0  0  0  0  0  0  0  0
  129.6307  123.6084   61.0836 H   0  0  0  0  0  0  0  0  0  0  0  0
  128.7132  122.6226   63.2188 H   0  0  0  0  0  0  0  0  0  0  0  0
  127.5276  123.5280   62.2182 H   0  0  0  0  0  0  0  0  0  0  0  0
  127.5167  121.7317   62.2182 H   0  0  0  0  0  0  0  0  0  0  0  0
  127.3496  122.2018   59.9441 H   0  0  0  0  0  0  0  0  0  0  0  0
  128.4625  123.3827   59.1737 H   0  0  0  0  0  0  0  0  0  0  0  0
  128.8693  121.6331   59.1737 H   0  0  0  0  0  0  0  0  0  0  0  0
  1  2  1  0
  2  3  1  0
  3  4  1  0
  4  5  1  0
  5  6  2  0
  5  7  1  0
  7  8  1  0
  7  9  1  0
  9 10  1  0
 10 11  2  0
 11 12  1  0
 12 13  1  0
 13 14  2  0
  3 15  1  0
 15 16  1  0
 15 17  1  0
 14 10  1  0
  1 18  1  0
  1 19  1  0
  1 20  1  0
  2 21  1  0
  2 22  1  0
  3 23  1  6
  4 24  1  0
  4 25  1  0
  8 26  1  0
  8 27  1  0
  8 28  1  0
  9 29  1  0
  9 30  1  0
 11 31  1  0
 12 32  1  0
 13 33  1  0
 15 34  1  0
 16 35  1  0
 16 36  1  0
 16 37  1  0
 17 38  1  0
 17 39  1  0
 17 40  1  0
M  END
>  <Binding energies>  (1) 
[-4.56]

>  <Ligand effiencies>  (1) 
[-0.2533333333333333]

>  <Interactions>  (1) 
["V-A:ILE:369:CG2:3237, V-B:PRO:540:CA:9855, H-A:GLU:543:OE2:4910, V-B:ALA:541:CB:9864, V-B:TYR:539:CE2:9848, V-B:TYR:539:C:9839, V-A:ASP:366:CG:3213, V-A:GLU:543:CD:4908, H-A:GLY:454:N:4050, V-B:PRO:540:N:9856, V-A:ILE:369:CD1:3239, V-B:TYR:539:CD2:9846, H-A:SER:385:OG:3410, V-A:ARG:545:CD:4923, V-A:LEU:475:CD2:4259, H-A:ARG:545:NH2:4928, V-A:ARG:545:CZ:4926, H-A:GLU:543:OE1:4909, H-A:ARG:545:NE:4924, V-B:ALA:541:CA:9862, H-A:TYR:484:OH:4348"]

$$$$
ZINC616924391-again1
     RDKit          3D

 40 40  0  0  0  0  0  0  0  0999 V2000
  127.5800  122.5130   58.0150 C   0  0  0  0  0  0  0  0  0  0  0  0
  128.5610  123.2170   58.9690 C   0  0  0  0  0  0  0  0  0  0  0  0
  128.6520  122.5990   60.3930 C   0  0  2  0  0  0  0  0  0  0  0  0
  128.4850  123.6900   61.4990 C   0  0  0  0  0  0  0  0  0  0  0  0
  128.1990  123.1850   62.9330 C   0  0  0  0  0  0  0  0  0  0  0  0
  127.1270  122.6200   63.1600 O   0  0  0  0  0  0  0  0  0  0  0  0
  129.1310  123.3750   63.9060 N   0  0  0  0  0  0  0  0  0  0  0  0
  129.4640  122.3800   64.9320 C   0  0  0  0  0  0  0  0  0  0  0  0
  129.7560  124.6890   64.1300 C   0  0  0  0  0  0  0  0  0  0  0  0
  131.2590  124.5910   64.3040 C   0  0  0  0  0  0  0  0  0  0  0  0
  132.2130  123.6780   63.8650 C   0  0  0  0  0  0  0  0  0  0  0  0
  133.4390  123.9830   64.2600 N   0  0  0  0  0  0  0  0  0  0  0  0
  133.2980  125.0880   64.9480 C   0  0  0  0  0  0  0  0  0  0  0  0
  131.9970  125.5050   65.0090 N   0  0  0  0  0  0  0  0  0  0  0  0
  129.9310  121.7130   60.5840 C   0  0  0  0  0  0  0  0  0  0  0  0
  129.7690  120.5880   61.6280 C   0  0  0  0  0  0  0  0  0  0  0  0
  131.1980  122.5470   60.8700 C   0  0  0  0  0  0  0  0  0  0  0  0
  126.8239  121.9704   58.6014 H   0  0  0  0  0  0  0  0  0  0  0  0
  127.0838  123.2624   57.3808 H   0  0  0  0  0  0  0  0  0  0  0  0
  128.1311  121.8030   57.3808 H   0  0  0  0  0  0  0  0  0  0  0  0
  129.5629  123.1798   58.5164 H   0  0  0  0  0  0  0  0  0  0  0  0
  128.1791  124.2399   59.1021 H   0  0  0  0  0  0  0  0  0  0  0  0
  127.8040  121.9074   60.5052 H   0  0  0  0  0  0  0  0  0  0  0  0
  129.4145  124.2774   61.5313 H   0  0  0  0  0  0  0  0  0  0  0  0
  127.5911  124.2619   61.2094 H   0  0  0  0  0  0  0  0  0  0  0  0
  129.3171  122.8190   65.9299 H   0  0  0  0  0  0  0  0  0  0  0  0
  128.8105  121.5026   64.8176 H   0  0  0  0  0  0  0  0  0  0  0  0
  130.5140  122.0726   64.8176 H   0  0  0  0  0  0  0  0  0  0  0  0
  129.5416  125.3343   63.2654 H   0  0  0  0  0  0  0  0  0  0  0  0
  129.3371  125.1064   65.0575 H   0  0  0  0  0  0  0  0  0  0  0  0
  131.9734  122.7954   63.2538 H   0  0  0  0  0  0  0  0  0  0  0  0
  134.1336  125.6219   65.4243 H   0  0  0  0  0  0  0  0  0  0  0  0
  131.6450  126.3270   65.4810 H   0  0  0  0  0  0  0  0  0  0  0  0
  130.0626  121.2177   59.6107 H   0  0  0  0  0  0  0  0  0  0  0  0
  129.8305  121.0151   62.6398 H   0  0  0  0  0  0  0  0  0  0  0  0
  128.7915  120.1015   61.4941 H   0  0  0  0  0  0  0  0  0  0  0  0
  130.5695  119.8455   61.4941 H   0  0  0  0  0  0  0  0  0  0  0  0
  131.3385  122.6395   61.9571 H   0  0  0  0  0  0  0  0  0  0  0  0
  132.0730  122.0477   60.4284 H   0  0  0  0  0  0  0  0  0  0  0  0
  131.0854  123.5481   60.4284 H   0  0  0  0  0  0  0  0  0  0  0  0
  1  2  1  0
  2  3  1  0
  3  4  1  0
  4  5  1  0
  5  6  2  0
  5  7  1  0
  7  8  1  0
  7  9  1  0
  9 10  1  0
 10 11  2  0
 11 12  1  0
 12 13  2  0
 13 14  1  0
  3 15  1  0
 15 16  1  0
 15 17  1  0
 14 10  1  0
  1 18  1  0
  1 19  1  0
  1 20  1  0
  2 21  1  0
  2 22  1  0
  3 23  1  6
  4 24  1  0
  4 25  1  0
  8 26  1  0
  8 27  1  0
  8 28  1  0
  9 29  1  0
  9 30  1  0
 11 31  1  0
 13 32  1  0
 14 33  1  0
 15 34  1  0
 16 35  1  0
 16 36  1  0
 16 37  1  0
 17 38  1  0
 17 39  1  0
 17 40  1  0
M  END
>  <Binding energies>  (1) 
[-4.69]

>  <Ligand effiencies>  (1) 
[-0.2605555555555556]

>  <Interactions>  (1) 
["V-B:PRO:540:CA:9855, H-A:GLU:543:OE2:4910, V-B:ALA:541:CB:9864, V-B:TYR:539:CE2:9848, V-A:TYR:484:CE2:4346, V-B:GLU:543:CG:9879, V-B:TYR:539:C:9839, V-B:TYR:539:CZ:9849, H-B:ALA:541:N:9863, V-A:GLU:543:CD:4908, H-A:GLY:454:N:4050, V-B:PRO:540:N:9856, V-B:TYR:539:CD2:9846, V-B:GLU:543:CD:9880, V-A:ARG:545:CD:4923, V-A:LEU:475:CD2:4259, V-A:ARG:545:CZ:4926, H-A:GLU:543:OE1:4909, V-B:TYR:539:CG:9844, H-A:TYR:484:OH:4348"]

$$$$
ZINC6173057
     RDKit          3D

 47 49  0  0  0  0  0  0  0  0999 V2000
  130.8400  132.9800   57.0800 C   0  0  0  0  0  0  0  0  0  0  0  0
  129.4940  133.1050   57.8060 C   0  0  0  0  0  0  0  0  0  0  0  0
  129.5440  132.5780   59.2560 C   0  0  0  0  0  0  0  0  0  0  0  0
  130.8440  131.8230   59.6360 C   0  0  2  0  0  0  0  0  0  0  0  0
  130.9250  130.2300   58.7970 S   0  0  0  0  0  0  0  0  0  0  0  0
  130.9950  129.3060   60.3310 C   0  0  0  0  0  0  0  0  0  0  0  0
  131.0310  128.0280   60.2770 N   0  0  0  0  0  0  0  0  0  0  0  0
  131.0790  127.4370   61.4110 N   0  0  0  0  0  0  0  0  0  0  0  0
  131.1720  126.1690   61.3060 C   0  0  0  0  0  0  0  0  0  0  0  0
  131.2390  125.2620   62.4610 C   0  0  0  0  0  0  0  0  0  0  0  0
  132.2330  124.2750   62.5040 C   0  0  0  0  0  0  0  0  0  0  0  0
  132.3260  123.3960   63.5840 C   0  0  0  0  0  0  0  0  0  0  0  0
  131.4230  123.4920   64.6400 C   0  0  0  0  0  0  0  0  0  0  0  0
  130.4230  124.4640   64.6150 C   0  0  0  0  0  0  0  0  0  0  0  0
  129.5380  124.5600   65.6540 O   0  0  0  0  0  0  0  0  0  0  0  0
  130.0440  125.4030   67.0050 S   0  0  0  0  0  0  0  0  0  0  0  0
  129.4530  124.7800   68.1940 O   0  0  0  0  0  0  0  0  0  0  0  0
  131.4870  125.6430   66.8940 O   0  0  0  0  0  0  0  0  0  0  0  0
  129.2090  126.9750   66.7410 C   0  0  0  0  0  0  0  0  0  0  0  0
  128.7690  127.3450   65.4630 C   0  0  0  0  0  0  0  0  0  0  0  0
  128.1240  128.5660   65.2640 C   0  0  0  0  0  0  0  0  0  0  0  0
  127.5340  129.0560   63.5230 Br  0  0  0  0  0  0  0  0  0  0  0  0
  127.9110  129.4260   66.3400 C   0  0  0  0  0  0  0  0  0  0  0  0
  128.3430  129.0650   67.6150 C   0  0  0  0  0  0  0  0  0  0  0  0
  128.9900  127.8450   67.8220 C   0  0  0  0  0  0  0  0  0  0  0  0
  129.5530  127.4140   69.5940 Br  0  0  0  0  0  0  0  0  0  0  0  0
  130.3360  125.3440   63.5350 C   0  0  0  0  0  0  0  0  0  0  0  0
  131.0030  130.2040   61.3470 N   0  0  0  0  0  0  0  0  0  0  0  0
  130.9480  131.5220   61.1280 C   0  0  0  0  0  0  0  0  0  0  0  0
  130.9950  132.3800   62.0080 O   0  0  0  0  0  0  0  0  0  0  0  0
  131.6502  132.9048   57.8202 H   0  0  0  0  0  0  0  0  0  0  0  0
  130.8343  132.0785   56.4497 H   0  0  0  0  0  0  0  0  0  0  0  0
  131.0004  133.8671   56.4497 H   0  0  0  0  0  0  0  0  0  0  0  0
  129.2038  134.1658   57.8276 H   0  0  0  0  0  0  0  0  0  0  0  0
  128.7638  132.4927   57.2566 H   0  0  0  0  0  0  0  0  0  0  0  0
  129.4378  133.4370   59.9348 H   0  0  0  0  0  0  0  0  0  0  0  0
  128.7273  131.8465   59.3448 H   0  0  0  0  0  0  0  0  0  0  0  0
  131.6622  132.4935   59.3343 H   0  0  0  0  0  0  0  0  0  0  0  0
  131.2037  125.7310   60.2975 H   0  0  0  0  0  0  0  0  0  0  0  0
  132.9504  124.1919   61.6743 H   0  0  0  0  0  0  0  0  0  0  0  0
  133.1126  122.6273   63.6012 H   0  0  0  0  0  0  0  0  0  0  0  0
  131.4984  122.8017   65.4931 H   0  0  0  0  0  0  0  0  0  0  0  0
  128.9332  126.6685   64.6113 H   0  0  0  0  0  0  0  0  0  0  0  0
  127.4025  130.3887   66.1831 H   0  0  0  0  0  0  0  0  0  0  0  0
  128.1733  129.7449   68.4629 H   0  0  0  0  0  0  0  0  0  0  0  0
  129.5493  126.1128   63.5243 H   0  0  0  0  0  0  0  0  0  0  0  0
  131.0440  129.8700   62.3000 H   0  0  0  0  0  0  0  0  0  0  0  0
  1  2  1  0
  2  3  1  0
  3  4  1  0
  4  5  1  0
  5  6  1  0
  6  7  2  0
  7  8  1  0
  8  9  2  0
  9 10  1  0
 10 11  2  0
 11 12  1  0
 12 13  2  0
 13 14  1  0
 14 15  1  0
 15 16  1  0
 16 17  2  0
 16 18  2  0
 16 19  1  0
 19 20  2  0
 20 21  1  0
 21 22  1  0
 21 23  2  0
 23 24  1  0
 24 25  2  0
 25 26  1  0
 14 27  2  0
  6 28  1  0
 28 29  1  0
 29 30  2  0
 29  4  1  0
 27 10  1  0
 25 19  1  0
  1 31  1  0
  1 32  1  0
  1 33  1  0
  2 34  1  0
  2 35  1  0
  3 36  1  0
  3 37  1  0
  4 38  1  6
  9 39  1  0
 11 40  1  0
 12 41  1  0
 13 42  1  0
 20 43  1  0
 23 44  1  0
 24 45  1  0
 27 46  1  0
 28 47  1  0
M  END
>  <Binding energies>  (1) 
[-8.8]

>  <Ligand effiencies>  (1) 
[-0.2838709677419355]

>  <Interactions>  (1) 
["H-A:ALA:541:N:4891, V-B:GLU:543:CB:9878, V-A:ILE:538:CB:4862, V-A:TYR:484:CE2:4346, V-B:GLU:543:CG:9879, V-A:ASP:366:CG:3213, V-A:TYR:539:CD1:4873, V-A:TYR:539:CA:4869, V-A:TYR:484:CZ:4347, V-A:GLU:543:CD:4908, V-B:HIS:456:CE1:9041, V-A:HIS:456:CE1:4070, V-B:TYR:484:CZ:9318, V-A:GLU:543:CG:4907, V-B:GLU:543:CD:9880, V-A:TYR:539:C:4867, V-A:LEU:475:CD2:4259, H-A:ARG:545:NH2:4928, H-A:GLU:543:OE1:4909, V-A:GLU:543:CB:4906, V-A:PRO:540:N:4884, V-A:PRO:540:CB:4885, V-A:PRO:540:CA:4883, H-A:ASP:366:OD2:3215, V-A:PRO:540:CD:4887, H-A:TYR:484:OH:4348"]

$$$$
ZINC61959340
     RDKit          3D

 31 33  0  0  0  0  0  0  0  0999 V2000
  133.6400  131.4070   59.1690 C   0  0  0  0  0  0  0  0  0  0  0  0
  132.1650  131.6960   58.9100 C   0  0  0  0  0  0  0  0  0  0  0  0
  131.9060  132.3990   57.8780 N   0  0  0  0  0  0  0  0  0  0  0  0
  130.6270  132.6670   57.5050 C   0  0  0  0  0  0  0  0  0  0  0  0
  130.2480  133.3340   56.4440 N   0  0  0  0  0  0  0  0  0  0  0  0
  128.8560  133.3180   56.4690 N   0  0  0  0  0  0  0  0  0  0  0  0
  128.4100  132.6150   57.5700 N   0  0  0  0  0  0  0  0  0  0  0  0
  129.5240  132.2270   58.2070 N   0  0  0  0  0  0  0  0  0  0  0  0
  129.5640  131.4290   59.4430 C   0  0  2  0  0  0  0  0  0  0  0  0
  128.6370  132.0110   60.5240 C   0  0  0  0  0  0  0  0  0  0  0  0
  128.1290  133.6860   60.4750 S   0  0  0  0  0  0  0  0  0  0  0  0
  127.2410  133.5250   61.9400 C   0  0  0  0  0  0  0  0  0  0  0  0
  127.3250  132.2400   62.4370 C   0  0  0  0  0  0  0  0  0  0  0  0
  128.0820  131.3640   61.6420 C   0  0  0  0  0  0  0  0  0  0  0  0
  128.3510  129.9240   62.0190 C   0  0  0  0  0  0  0  0  0  0  0  0
  131.0780  131.0950   59.8520 C   0  0  2  0  0  0  0  0  0  0  0  0
  131.3960  131.3900   61.3450 C   0  0  0  0  0  0  0  0  0  0  0  0
  132.1130  130.4770   62.0090 N   0  0  0  0  0  0  0  0  0  0  0  0
  130.9890  132.4080   61.9040 O   0  0  0  0  0  0  0  0  0  0  0  0
  133.8218  131.3714   60.2533 H   0  0  0  0  0  0  0  0  0  0  0  0
  133.9083  130.4392   58.7203 H   0  0  0  0  0  0  0  0  0  0  0  0
  134.2537  132.2020   58.7203 H   0  0  0  0  0  0  0  0  0  0  0  0
  129.1247  130.4341   59.2782 H   0  0  0  0  0  0  0  0  0  0  0  0
  126.6791  134.3406   62.4186 H   0  0  0  0  0  0  0  0  0  0  0  0
  126.8410  131.9290   63.3745 H   0  0  0  0  0  0  0  0  0  0  0  0
  128.3687  129.8290   63.1147 H   0  0  0  0  0  0  0  0  0  0  0  0
  127.5571  129.2830   61.6082 H   0  0  0  0  0  0  0  0  0  0  0  0
  129.3228  129.6128   61.6082 H   0  0  0  0  0  0  0  0  0  0  0  0
  131.1369  130.0056   59.7117 H   0  0  0  0  0  0  0  0  0  0  0  0
  132.4330  129.6390   61.5460 H   0  0  0  0  0  0  0  0  0  0  0  0
  132.3360  130.6240   62.9830 H   0  0  0  0  0  0  0  0  0  0  0  0
  1  2  1  0
  2  3  2  0
  3  4  1  0
  4  5  2  0
  5  6  1  0
  6  7  2  0
  7  8  1  0
  8  9  1  0
  9 10  1  0
 10 11  1  0
 11 12  1  0
 12 13  2  0
 13 14  1  0
 14 15  1  0
  9 16  1  0
 16 17  1  0
 17 18  1  0
 17 19  2  0
 16  2  1  0
  8  4  1  0
 14 10  2  0
  1 20  1  0
  1 21  1  0
  1 22  1  0
  9 23  1  6
 12 24  1  0
 13 25  1  0
 15 26  1  0
 15 27  1  0
 15 28  1  0
 16 29  1  1
 18 30  1  0
 18 31  1  0
M  END
>  <Binding energies>  (1) 
[-7.57]

>  <Ligand effiencies>  (1) 
[-0.3604761904761905]

>  <Interactions>  (1) 
["V-A:LEU:363:CD1:3189, V-A:LEU:363:CB:3187, H-A:TYR:539:N:4870, V-A:PRO:540:CB:4885, V-A:LEU:363:CA:3185, V-A:PRO:540:CA:4883, V-A:PRO:540:N:4884, H-A:ALA:541:N:4891, V-A:TYR:539:CD1:4873, V-A:GLU:543:CD:4908, H-A:ASP:366:OD2:3215, V-A:ASP:366:CB:3212, V-A:TYR:539:C:4867, V-B:LEU:475:CD2:9230, H-A:GLU:543:OE1:4909, V-A:ASP:366:CG:3213, H-A:ASP:366:OD1:3214"]

$$$$
ZINC621164540
     RDKit          3D

 39 42  0  0  0  0  0  0  0  0999 V2000
  134.9160  125.0870   63.1580 O   0  0  0  0  0  0  0  0  0  0  0  0
  133.8430  124.4880   63.2290 C   0  0  0  0  0  0  0  0  0  0  0  0
  132.8520  124.8490   64.3080 C   0  0  0  0  0  0  0  0  0  0  0  0
  131.4820  124.8190   64.0110 C   0  0  0  0  0  0  0  0  0  0  0  0
  130.5350  125.1440   64.9810 C   0  0  0  0  0  0  0  0  0  0  0  0
  130.9460  125.4770   66.2710 C   0  0  0  0  0  0  0  0  0  0  0  0
  129.6560  125.9290   67.5960 Br  0  0  0  0  0  0  0  0  0  0  0  0
  132.3030  125.4690   66.5920 C   0  0  0  0  0  0  0  0  0  0  0  0
  133.2540  125.1430   65.6230 C   0  0  0  0  0  0  0  0  0  0  0  0
  134.5560  125.0970   65.9890 F   0  0  0  0  0  0  0  0  0  0  0  0
  133.5400  123.4650   62.3990 N   0  0  0  0  0  0  0  0  0  0  0  0
  132.9890  122.1230   62.7020 C   0  0  0  0  0  0  0  0  0  0  0  0
  132.8160  121.9540   61.1800 C   0  0  0  0  0  0  0  0  0  0  0  0
  133.2490  120.6290   60.5320 C   0  0  0  0  0  0  0  0  0  0  0  0
  131.7810  120.1840   60.5920 C   0  0  0  0  0  0  0  0  0  0  0  0
  131.4030  121.6720   60.6360 C   0  0  0  0  0  0  0  0  0  0  0  0
  133.5630  123.2810   60.9140 C   0  0  1  0  0  0  0  0  0  0  0  0
  132.9680  124.3880   60.0460 C   0  0  0  0  0  0  0  0  0  0  0  0
  133.3570  124.4980   58.7070 C   0  0  0  0  0  0  0  0  0  0  0  0
  132.8370  125.5420   57.9400 C   0  0  0  0  0  0  0  0  0  0  0  0
  131.9690  126.4600   58.4360 N   0  0  0  0  0  0  0  0  0  0  0  0
  131.6000  126.3440   59.7370 C   0  0  0  0  0  0  0  0  0  0  0  0
  132.0750  125.3310   60.5710 C   0  0  0  0  0  0  0  0  0  0  0  0
  131.1507  124.5358   63.0010 H   0  0  0  0  0  0  0  0  0  0  0  0
  129.4643  125.1377   64.7288 H   0  0  0  0  0  0  0  0  0  0  0  0
  132.6257  125.7206   67.6131 H   0  0  0  0  0  0  0  0  0  0  0  0
  133.7007  121.4250   63.1670 H   0  0  0  0  0  0  0  0  0  0  0  0
  132.1579  121.9752   63.4073 H   0  0  0  0  0  0  0  0  0  0  0  0
  133.6551  120.7290   59.5146 H   0  0  0  0  0  0  0  0  0  0  0  0
  134.0538  120.0148   60.9621 H   0  0  0  0  0  0  0  0  0  0  0  0
  131.4274  119.6469   59.6995 H   0  0  0  0  0  0  0  0  0  0  0  0
  131.4222  119.4728   61.3506 H   0  0  0  0  0  0  0  0  0  0  0  0
  131.1931  122.1200   59.6536 H   0  0  0  0  0  0  0  0  0  0  0  0
  130.5028  122.0222   61.1622 H   0  0  0  0  0  0  0  0  0  0  0  0
  134.4763  123.2920   60.3010 H   0  0  0  0  0  0  0  0  0  0  0  0
  134.0596  123.7753   58.2665 H   0  0  0  0  0  0  0  0  0  0  0  0
  133.1443  125.6243   56.8870 H   0  0  0  0  0  0  0  0  0  0  0  0
  130.8960  127.0804   60.1519 H   0  0  0  0  0  0  0  0  0  0  0  0
  131.7540  125.2740   61.6216 H   0  0  0  0  0  0  0  0  0  0  0  0
  1  2  2  0
  2  3  1  0
  3  4  2  0
  4  5  1  0
  5  6  2  0
  6  7  1  0
  6  8  1  0
  8  9  2  0
  9 10  1  0
  2 11  1  0
 11 12  1  0
 12 13  1  0
 13 14  1  0
 14 15  1  0
 15 16  1  0
 13 17  1  0
 17 18  1  0
 18 19  2  0
 19 20  1  0
 20 21  2  0
 21 22  1  0
 22 23  2  0
  9  3  1  0
 17 11  1  0
 23 18  1  0
 16 13  1  0
  4 24  1  0
  5 25  1  0
  8 26  1  0
 12 27  1  0
 12 28  1  0
 14 29  1  0
 14 30  1  0
 15 31  1  0
 15 32  1  0
 16 33  1  0
 16 34  1  0
 17 35  1  6
 19 36  1  0
 20 37  1  0
 22 38  1  0
 23 39  1  0
M  END
>  <Binding energies>  (1) 
[-7.16]

>  <Ligand effiencies>  (1) 
[-0.31130434782608696]

>  <Interactions>  (1) 
["V-A:ILE:369:CG2:3237, V-A:ASP:366:CA:3210, V-A:GLY:454:CA:4049, V-B:GLU:543:CB:9878, H-A:TYR:531:OH:4795, H-A:ARG:545:NH1:4927, V-B:TYR:539:CE2:9848, V-B:GLU:543:CG:9879, V-A:ASP:366:CG:3213, V-A:TYR:484:CZ:4347, V-A:GLU:543:CD:4908, V-A:ARG:545:CG:4922, H-A:GLY:454:N:4050, V-A:GLY:453:C:4042, V-A:HIS:456:CE1:4070, V-A:ILE:369:CD1:3239, V-A:ASP:366:C:3208, V-B:TYR:539:CD2:9846, V-A:SER:385:CB:3409, V-A:ASP:366:CB:3212, V-A:ARG:545:CD:4923, V-A:LEU:475:CD2:4259, H-A:ARG:545:NH2:4928, V-A:ARG:545:CZ:4926, V-A:GLY:453:CA:4044, V-A:SER:385:CA:3407"]

$$$$
ZINC6234193
     RDKit          3D

 74 79  0  0  0  0  0  0  0  0999 V2000
  127.1830  128.8050   74.3860 C   0  0  0  0  0  0  0  0  0  0  0  0
  128.6910  129.0590   74.4690 C   0  0  0  0  0  0  0  0  0  0  0  0
  129.3720  127.9950   73.8090 O   0  0  0  0  0  0  0  0  0  0  0  0
  129.1970  127.8200   72.4490 C   0  0  0  0  0  0  0  0  0  0  0  0
  130.0180  128.5770   71.6140 C   0  0  0  0  0  0  0  0  0  0  0  0
  129.9150  128.4670   70.2300 C   0  0  0  0  0  0  0  0  0  0  0  0
  128.9880  127.5870   69.6600 C   0  0  0  0  0  0  0  0  0  0  0  0
  128.8410  127.4510   68.1960 C   0  0  0  0  0  0  0  0  0  0  0  0
  129.3010  126.4610   67.3830 C   0  0  0  0  0  0  0  0  0  0  0  0
  129.9950  125.2200   67.9610 C   0  0  0  0  0  0  0  0  0  0  0  0
  129.5560  123.9670   67.1900 C   0  0  0  0  0  0  0  0  0  0  0  0
  129.8820  124.0930   65.6940 C   0  0  0  0  0  0  0  0  0  0  0  0
  129.3850  125.4190   65.1200 C   0  0  0  0  0  0  0  0  0  0  0  0
  129.1270  126.5080   65.9100 C   0  0  0  0  0  0  0  0  0  0  0  0
  128.7160  127.7000   65.3700 N   0  0  0  0  0  0  0  0  0  0  0  0
  128.5120  127.8450   64.1160 C   0  0  0  0  0  0  0  0  0  0  0  0
  127.9010  129.3160   63.3660 S   0  0  0  0  0  0  0  0  0  0  0  0
  127.9860  128.5440   61.7810 C   0  0  0  0  0  0  0  0  0  0  0  0
  127.6960  129.1670   60.6130 C   0  0  0  0  0  0  0  0  0  0  0  0
  127.8170  128.6920   59.2190 C   0  0  0  0  0  0  0  0  0  0  0  0
  128.5510  129.4410   58.2980 C   0  0  0  0  0  0  0  0  0  0  0  0
  128.6910  129.0010   56.9830 C   0  0  0  0  0  0  0  0  0  0  0  0
  128.1030  127.8030   56.5810 C   0  0  0  0  0  0  0  0  0  0  0  0
  127.3700  127.0250   57.4890 C   0  0  0  0  0  0  0  0  0  0  0  0
  126.7410  125.7500   57.0640 N   0  0  0  0  0  0  0  0  0  0  0  0
  127.4150  124.9450   56.4240 O   0  0  0  0  0  0  0  0  0  0  0  0
  125.5690  125.5430   57.3660 O   0  0  0  0  0  0  0  0  0  0  0  0
  127.2450  127.4810   58.8090 C   0  0  0  0  0  0  0  0  0  0  0  0
  128.4090  127.1550   61.9090 C   0  0  0  0  0  0  0  0  0  0  0  0
  128.4820  126.3330   60.9930 O   0  0  0  0  0  0  0  0  0  0  0  0
  128.7220  126.8690   63.2000 N   0  0  0  0  0  0  0  0  0  0  0  0
  129.2880  125.5310   63.5780 C   0  0  1  0  0  0  0  0  0  0  0  0
  130.6350  125.2510   62.9010 C   0  0  0  0  0  0  0  0  0  0  0  0
  131.2070  123.9830   63.0060 C   0  0  0  0  0  0  0  0  0  0  0  0
  132.4160  123.7100   62.3720 C   0  0  0  0  0  0  0  0  0  0  0  0
  133.0630  124.6920   61.6220 C   0  0  0  0  0  0  0  0  0  0  0  0
  134.2550  124.3210   61.0260 O   0  0  0  0  0  0  0  0  0  0  0  0
  134.3660  124.2530   59.6040 C   0  0  0  0  0  0  0  0  0  0  0  0
  132.9900  124.2190   58.9150 C   0  0  0  0  0  0  0  0  0  0  0  0
  132.4900  125.9690   61.5260 C   0  0  0  0  0  0  0  0  0  0  0  0
  131.2820  126.2450   62.1610 C   0  0  0  0  0  0  0  0  0  0  0  0
  128.1570  126.8360   70.4930 C   0  0  0  0  0  0  0  0  0  0  0  0
  128.2610  126.9440   71.8770 C   0  0  0  0  0  0  0  0  0  0  0  0
  126.7665  128.7349   75.4017 H   0  0  0  0  0  0  0  0  0  0  0  0
  126.7005  129.6345   73.8483 H   0  0  0  0  0  0  0  0  0  0  0  0
  126.9988  127.8632   73.8483 H   0  0  0  0  0  0  0  0  0  0  0  0
  128.9329  130.0135   73.9786 H   0  0  0  0  0  0  0  0  0  0  0  0
  129.0048  129.1078   75.5222 H   0  0  0  0  0  0  0  0  0  0  0  0
  130.7536  129.2672   72.0527 H   0  0  0  0  0  0  0  0  0  0  0  0
  130.5646  129.0739   69.5822 H   0  0  0  0  0  0  0  0  0  0  0  0
  128.2853  128.2581   67.6961 H   0  0  0  0  0  0  0  0  0  0  0  0
  131.0851  125.3383   67.8737 H   0  0  0  0  0  0  0  0  0  0  0  0
  129.7156  125.1096   69.0192 H   0  0  0  0  0  0  0  0  0  0  0  0
  130.0813  123.0914   67.5992 H   0  0  0  0  0  0  0  0  0  0  0  0
  128.4676  123.8530   67.3011 H   0  0  0  0  0  0  0  0  0  0  0  0
  130.9721  124.0321   65.5598 H   0  0  0  0  0  0  0  0  0  0  0  0
  129.3744  123.2755   65.1611 H   0  0  0  0  0  0  0  0  0  0  0  0
  127.3082  130.1908   60.7198 H   0  0  0  0  0  0  0  0  0  0  0  0
  129.0218  130.3843   58.6119 H   0  0  0  0  0  0  0  0  0  0  0  0
  129.2662  129.5999   56.2616 H   0  0  0  0  0  0  0  0  0  0  0  0
  128.2150  127.4641   55.5405 H   0  0  0  0  0  0  0  0  0  0  0  0
  126.6862  126.8752   59.5376 H   0  0  0  0  0  0  0  0  0  0  0  0
  128.6005  124.7553   63.2098 H   0  0  0  0  0  0  0  0  0  0  0  0
  130.7027  123.1988   63.5898 H   0  0  0  0  0  0  0  0  0  0  0  0
  132.8654  122.7101   62.4634 H   0  0  0  0  0  0  0  0  0  0  0  0
  134.9183  125.1356   59.2491 H   0  0  0  0  0  0  0  0  0  0  0  0
  134.8941  123.3220   59.3504 H   0  0  0  0  0  0  0  0  0  0  0  0
  132.1981  124.1994   59.6783 H   0  0  0  0  0  0  0  0  0  0  0  0
  132.8721  125.1145   58.2872 H   0  0  0  0  0  0  0  0  0  0  0  0
  132.9164  123.3188   58.2872 H   0  0  0  0  0  0  0  0  0  0  0  0
  132.9969  126.7550   60.9470 H   0  0  0  0  0  0  0  0  0  0  0  0
  130.8359  127.2472   62.0802 H   0  0  0  0  0  0  0  0  0  0  0  0
  127.4147  126.1540   70.0527 H   0  0  0  0  0  0  0  0  0  0  0  0
  127.6076  126.3409   72.5245 H   0  0  0  0  0  0  0  0  0  0  0  0
  1  2  1  0
  2  3  1  0
  3  4  1  0
  4  5  2  0
  5  6  1  0
  6  7  2  0
  7  8  1  0
  8  9  2  0
  9 10  1  0
 10 11  1  0
 11 12  1  0
 12 13  1  0
 13 14  2  0
 14 15  1  0
 15 16  2  0
 16 17  1  0
 17 18  1  0
 18 19  2  0
 19 20  1  0
 20 21  2  0
 21 22  1  0
 22 23  2  0
 23 24  1  0
 24 25  1  0
 25 26  2  0
 25 27  1  0
 24 28  2  0
 18 29  1  0
 29 30  2  0
 29 31  1  0
 31 32  1  0
 32 33  1  0
 33 34  2  0
 34 35  1  0
 35 36  2  0
 36 37  1  0
 37 38  1  0
 38 39  1  0
 36 40  1  0
 40 41  2  0
  7 42  1  0
 42 43  2  0
 43  4  1  0
 14  9  1  0
 31 16  1  0
 41 33  1  0
 32 13  1  0
 28 20  1  0
  1 44  1  0
  1 45  1  0
  1 46  1  0
  2 47  1  0
  2 48  1  0
  5 49  1  0
  6 50  1  0
  8 51  1  0
 10 52  1  0
 10 53  1  0
 11 54  1  0
 11 55  1  0
 12 56  1  0
 12 57  1  0
 19 58  1  0
 21 59  1  0
 22 60  1  0
 23 61  1  0
 28 62  1  0
 32 63  1  6
 34 64  1  0
 35 65  1  0
 38 66  1  0
 38 67  1  0
 39 68  1  0
 39 69  1  0
 39 70  1  0
 40 71  1  0
 41 72  1  0
 42 73  1  0
 43 74  1  0
M  CHG  2  25   1  27  -1
M  END
>  <Binding energies>  (1) 
[-7.19]

>  <Ligand effiencies>  (1) 
[-0.1672093023255814]

>  <Interactions>  (1) 
["V-A:ILE:369:CG2:3237, V-A:ASP:366:CA:3210, V-B:GLU:543:C:9874, V-B:HIS:456:CD2:9039, V-A:GLU:543:C:4902, V-A:ILE:369:CB:3236, V-B:GLU:543:CB:9878, H-B:LYS:547:NZ:9923, V-B:HIS:456:CB:9036, V-B:TYR:539:CE2:9848, V-A:TYR:484:CE2:4346, V-B:GLU:543:CG:9879, V-A:GLY:544:C:4912, V-A:ASP:366:CG:3213, V-B:TYR:539:CZ:9849, V-B:TYR:531:CZ:9766, V-A:TYR:484:CZ:4347, V-A:GLU:543:CD:4908, V-B:HIS:456:CE1:9041, V-B:GLU:543:CA:9876, V-A:TYR:484:CD2:4344, V-A:HIS:456:CE1:4070, V-A:ILE:369:CD1:3239, V-A:ASP:366:C:3208, V-B:GLU:543:CD:9880, V-B:HIS:456:CG:9037, V-A:MET:535:CE:4835, H-B:TYR:531:OH:9767, V-A:ASP:366:CB:3212, H-A:LYS:547:NZ:4951, V-A:GLU:543:CB:4906"]

$$$$
ZINC626271748
     RDKit          3D

 39 39  0  0  0  0  0  0  0  0999 V2000
  127.4230  130.5670   63.8920 C   0  0  0  0  0  0  0  0  0  0  0  0
  127.9300  131.9730   63.5460 C   0  0  0  0  0  0  0  0  0  0  0  0
  129.4670  132.0730   63.5350 C   0  0  0  0  0  0  0  0  0  0  0  0
  130.0910  131.7950   62.1470 C   0  0  2  0  0  0  0  0  0  0  0  0
  131.4560  132.2230   62.2090 O   0  0  0  0  0  0  0  0  0  0  0  0
  132.4390  131.2080   62.0230 C   0  0  0  0  0  0  0  0  0  0  0  0
  133.6930  131.8470   61.4190 C   0  0  0  0  0  0  0  0  0  0  0  0
  129.3320  132.5640   61.0300 C   0  0  0  0  0  0  0  0  0  0  0  0
  129.1530  133.7760   61.1890 O   0  0  0  0  0  0  0  0  0  0  0  0
  128.9090  131.9090   59.9110 N   0  0  0  0  0  0  0  0  0  0  0  0
  127.5980  131.2360   59.9040 C   0  0  0  0  0  0  0  0  0  0  0  0
  129.7100  131.8280   58.6640 C   0  0  2  0  0  0  0  0  0  0  0  0
  131.2220  131.8300   58.9650 C   0  0  0  0  0  0  0  0  0  0  0  0
  131.9690  131.9690   57.6350 C   0  0  0  0  0  0  0  0  0  0  0  0
  130.9310  132.9870   56.5600 S   0  0  0  0  0  0  0  0  0  0  0  0
  129.4800  132.9600   57.6400 C   0  0  0  0  0  0  0  0  0  0  0  0
  127.3812  130.4510   64.9851 H   0  0  0  0  0  0  0  0  0  0  0  0
  126.4173  130.4256   63.4695 H   0  0  0  0  0  0  0  0  0  0  0  0
  128.1070  129.8163   63.4695 H   0  0  0  0  0  0  0  0  0  0  0  0
  127.5539  132.2457   62.5489 H   0  0  0  0  0  0  0  0  0  0  0  0
  127.5615  132.6565   64.3251 H   0  0  0  0  0  0  0  0  0  0  0  0
  129.7526  133.0879   63.8487 H   0  0  0  0  0  0  0  0  0  0  0  0
  129.8474  131.3028   64.2221 H   0  0  0  0  0  0  0  0  0  0  0  0
  130.0233  130.7245   61.9031 H   0  0  0  0  0  0  0  0  0  0  0  0
  132.6866  130.7499   62.9919 H   0  0  0  0  0  0  0  0  0  0  0  0
  132.0523  130.4293   61.3491 H   0  0  0  0  0  0  0  0  0  0  0  0
  134.3576  132.1857   62.2274 H   0  0  0  0  0  0  0  0  0  0  0  0
  134.2188  131.1069   60.7979 H   0  0  0  0  0  0  0  0  0  0  0  0
  133.4032  132.7074   60.7979 H   0  0  0  0  0  0  0  0  0  0  0  0
  127.2674  131.0663   60.9393 H   0  0  0  0  0  0  0  0  0  0  0  0
  126.8638  131.8687   59.3837 H   0  0  0  0  0  0  0  0  0  0  0  0
  127.6842  130.2707   59.3837 H   0  0  0  0  0  0  0  0  0  0  0  0
  129.3608  130.8845   58.2192 H   0  0  0  0  0  0  0  0  0  0  0  0
  131.4706  132.6758   59.6230 H   0  0  0  0  0  0  0  0  0  0  0  0
  131.5123  130.8973   59.4707 H   0  0  0  0  0  0  0  0  0  0  0  0
  132.9416  132.4571   57.7957 H   0  0  0  0  0  0  0  0  0  0  0  0
  132.1599  130.9842   57.1836 H   0  0  0  0  0  0  0  0  0  0  0  0
  129.3753  133.9245   58.1584 H   0  0  0  0  0  0  0  0  0  0  0  0
  128.5597  132.7896   57.0620 H   0  0  0  0  0  0  0  0  0  0  0  0
  1  2  1  0
  2  3  1  0
  3  4  1  0
  4  5  1  0
  5  6  1  0
  6  7  1  0
  4  8  1  0
  8  9  2  0
  8 10  1  0
 10 11  1  0
 10 12  1  0
 12 13  1  0
 13 14  1  0
 14 15  1  0
 15 16  1  0
 16 12  1  0
  1 17  1  0
  1 18  1  0
  1 19  1  0
  2 20  1  0
  2 21  1  0
  3 22  1  0
  3 23  1  0
  4 24  1  6
  6 25  1  0
  6 26  1  0
  7 27  1  0
  7 28  1  0
  7 29  1  0
 11 30  1  0
 11 31  1  0
 11 32  1  0
 12 33  1  6
 13 34  1  0
 13 35  1  0
 14 36  1  0
 14 37  1  0
 16 38  1  0
 16 39  1  0
M  END
>  <Binding energies>  (1) 
[-4.67]

>  <Ligand effiencies>  (1) 
[-0.291875]

>  <Interactions>  (1) 
["V-A:PRO:540:N:4884, V-A:TYR:539:CD1:4873, H-A:TYR:539:N:4870, V-A:LEU:363:CA:3185, V-A:PRO:540:CB:4885, V-A:PRO:540:CA:4883, V-A:LEU:363:CD1:3189, H-A:ALA:541:N:4891, V-A:ALA:541:CB:4892, V-A:GLU:543:CG:4907, V-A:GLU:543:CD:4908, V-A:TYR:539:C:4867, V-A:ASN:362:C:3172, V-A:ASN:362:CB:3176"]

$$$$
ZINC6264733
     RDKit          3D

 46 48  0  0  0  0  0  0  0  0999 V2000
  125.5990  122.4260   56.4280 C   0  0  0  0  0  0  0  0  0  0  0  0
  125.4580  123.5070   57.5090 C   0  0  0  0  0  0  0  0  0  0  0  0
  126.7840  123.8100   58.2290 C   0  0  0  0  0  0  0  0  0  0  0  0
  127.6600  122.5600   58.4210 C   0  0  0  0  0  0  0  0  0  0  0  0
  128.6710  122.7200   59.5470 C   0  0  0  0  0  0  0  0  0  0  0  0
  128.7680  121.7390   60.5380 C   0  0  0  0  0  0  0  0  0  0  0  0
  129.6860  121.8850   61.5740 C   0  0  0  0  0  0  0  0  0  0  0  0
  130.5100  123.0130   61.6230 C   0  0  0  0  0  0  0  0  0  0  0  0
  131.5120  123.1770   62.7600 C   0  0  0  0  0  0  0  0  0  0  0  0
  131.5300  124.6020   63.3700 C   0  0  1  0  0  0  0  0  0  0  0  0
  129.8970  125.1880   63.8620 S   0  0  0  0  0  0  0  0  0  0  0  0
  130.3900  125.4430   65.5660 C   0  0  0  0  0  0  0  0  0  0  0  0
  129.5210  125.8800   66.3990 N   0  0  0  0  0  0  0  0  0  0  0  0
  129.9360  126.0280   67.6020 N   0  0  0  0  0  0  0  0  0  0  0  0
  129.4340  127.0530   68.1710 C   0  0  0  0  0  0  0  0  0  0  0  0
  129.7820  127.3840   69.5460 C   0  0  0  0  0  0  0  0  0  0  0  0
  130.8350  128.0690   70.1440 C   0  0  0  0  0  0  0  0  0  0  0  0
  130.6100  128.0570   71.5210 C   0  0  0  0  0  0  0  0  0  0  0  0
  129.4290  127.3650   71.7120 C   0  0  0  0  0  0  0  0  0  0  0  0
  128.9300  126.9580   70.5170 O   0  0  0  0  0  0  0  0  0  0  0  0
  131.7000  125.0980   65.6700 N   0  0  0  0  0  0  0  0  0  0  0  0
  132.4010  124.6560   64.6190 C   0  0  0  0  0  0  0  0  0  0  0  0
  133.5890  124.3440   64.6460 O   0  0  0  0  0  0  0  0  0  0  0  0
  130.4140  123.9920   60.6320 C   0  0  0  0  0  0  0  0  0  0  0  0
  129.4950  123.8460   59.5960 C   0  0  0  0  0  0  0  0  0  0  0  0
  125.7271  121.4437   56.9062 H   0  0  0  0  0  0  0  0  0  0  0  0
  124.6949  122.4137   55.8016 H   0  0  0  0  0  0  0  0  0  0  0  0
  126.4761  122.6460   55.8016 H   0  0  0  0  0  0  0  0  0  0  0  0
  125.0963  124.4317   57.0357 H   0  0  0  0  0  0  0  0  0  0  0  0
  124.7515  123.1298   58.2630 H   0  0  0  0  0  0  0  0  0  0  0  0
  127.3464  124.5448   57.6343 H   0  0  0  0  0  0  0  0  0  0  0  0
  126.5361  124.1962   59.2287 H   0  0  0  0  0  0  0  0  0  0  0  0
  127.0077  121.7050   58.6523 H   0  0  0  0  0  0  0  0  0  0  0  0
  128.2223  122.4014   57.4890 H   0  0  0  0  0  0  0  0  0  0  0  0
  128.1189  120.8518   60.4991 H   0  0  0  0  0  0  0  0  0  0  0  0
  129.7630  121.1130   62.3538 H   0  0  0  0  0  0  0  0  0  0  0  0
  131.2559  122.4614   63.5552 H   0  0  0  0  0  0  0  0  0  0  0  0
  132.5114  122.9937   62.3385 H   0  0  0  0  0  0  0  0  0  0  0  0
  131.9261  125.2428   62.5685 H   0  0  0  0  0  0  0  0  0  0  0  0
  128.7312  127.6934   67.6179 H   0  0  0  0  0  0  0  0  0  0  0  0
  131.6873  128.5340   69.6269 H   0  0  0  0  0  0  0  0  0  0  0  0
  131.2448  128.5076   72.2981 H   0  0  0  0  0  0  0  0  0  0  0  0
  128.9619  127.1723   72.6891 H   0  0  0  0  0  0  0  0  0  0  0  0
  132.1590  125.1770   66.5650 H   0  0  0  0  0  0  0  0  0  0  0  0
  131.0642  124.8784   60.6697 H   0  0  0  0  0  0  0  0  0  0  0  0
  129.4183  124.6179   58.8161 H   0  0  0  0  0  0  0  0  0  0  0  0
  1  2  1  0
  2  3  1  0
  3  4  1  0
  4  5  1  0
  5  6  2  0
  6  7  1  0
  7  8  2  0
  8  9  1  0
  9 10  1  0
 10 11  1  0
 11 12  1  0
 12 13  2  0
 13 14  1  0
 14 15  2  0
 15 16  1  0
 16 17  2  0
 17 18  1  0
 18 19  2  0
 19 20  1  0
 12 21  1  0
 21 22  1  0
 22 23  2  0
  8 24  1  0
 24 25  2  0
 25  5  1  0
 22 10  1  0
 20 16  1  0
  1 26  1  0
  1 27  1  0
  1 28  1  0
  2 29  1  0
  2 30  1  0
  3 31  1  0
  3 32  1  0
  4 33  1  0
  4 34  1  0
  6 35  1  0
  7 36  1  0
  9 37  1  0
  9 38  1  0
 10 39  1  6
 15 40  1  0
 17 41  1  0
 18 42  1  0
 19 43  1  0
 21 44  1  0
 24 45  1  0
 25 46  1  0
M  END
>  <Binding energies>  (1) 
[-7.23]

>  <Ligand effiencies>  (1) 
[-0.2780769230769231]

>  <Interactions>  (1) 
["V-B:PRO:540:CA:9855, H-A:GLU:543:OE2:4910, V-A:GLU:543:C:4902, V-B:ALA:541:CB:9864, V-B:TYR:539:CE2:9848, V-B:GLU:543:CG:9879, V-A:GLY:544:C:4912, V-B:TYR:539:C:9839, V-B:ILE:538:CG2:9835, V-A:TYR:484:CZ:4347, V-B:PRO:540:CB:9857, H-A:GLY:454:N:4050, V-B:PRO:540:N:9856, V-A:HIS:456:CE1:4070, V-B:TYR:539:CD2:9846, V-B:PRO:540:CD:9859, V-A:LEU:475:CD2:4259, V-B:TYR:539:CG:9844, V-A:GLU:543:CB:4906, V-B:LEU:363:CD1:8160, V-B:PRO:540:C:9853, V-B:MET:535:CE:9807, H-A:TYR:484:OH:4348"]

$$$$
ZINC627036
     RDKit          3D

 58 61  0  0  0  0  0  0  0  0999 V2000
  125.9660  129.0060   62.2790 C   0  0  0  0  0  0  0  0  0  0  0  0
  126.2920  128.1280   61.2070 O   0  0  0  0  0  0  0  0  0  0  0  0
  127.2310  127.1300   61.4080 C   0  0  0  0  0  0  0  0  0  0  0  0
  128.2900  127.2290   62.3270 C   0  0  0  0  0  0  0  0  0  0  0  0
  129.2060  126.1840   62.4940 C   0  0  0  0  0  0  0  0  0  0  0  0
  130.3440  126.3280   63.5200 C   0  0  0  0  0  0  0  0  0  0  0  0
  129.8500  126.2410   64.9940 C   0  0  0  0  0  0  0  0  0  0  0  0
  130.2760  125.2460   65.8190 C   0  0  0  0  0  0  0  0  0  0  0  0
  129.8350  125.0990   67.2780 C   0  0  0  0  0  0  0  0  0  0  0  0
  129.4370  126.4770   67.8850 C   0  0  0  0  0  0  0  0  0  0  0  0
  128.7340  126.2210   69.2350 C   0  0  0  0  0  0  0  0  0  0  0  0
  130.6820  127.3930   68.0340 C   0  0  0  0  0  0  0  0  0  0  0  0
  128.4000  127.1330   66.9300 C   0  0  0  0  0  0  0  0  0  0  0  0
  128.8680  127.2460   65.4670 C   0  0  0  0  0  0  0  0  0  0  0  0
  128.3700  128.0870   64.7180 O   0  0  0  0  0  0  0  0  0  0  0  0
  131.2720  124.3890   65.4140 N   0  0  0  0  0  0  0  0  0  0  0  0
  131.9150  124.4480   64.1990 C   0  0  0  0  0  0  0  0  0  0  0  0
  131.5110  125.3360   63.2500 C   0  0  0  0  0  0  0  0  0  0  0  0
  132.1800  125.3840   61.9290 C   0  0  0  0  0  0  0  0  0  0  0  0
  132.0320  126.3260   61.1520 O   0  0  0  0  0  0  0  0  0  0  0  0
  133.2440  124.3050   61.6440 C   0  0  0  0  0  0  0  0  0  0  0  0
  133.0550  122.9910   62.4530 C   0  0  0  0  0  0  0  0  0  0  0  0
  131.7580  122.2630   62.0030 C   0  0  0  0  0  0  0  0  0  0  0  0
  134.3140  122.1230   62.2400 C   0  0  0  0  0  0  0  0  0  0  0  0
  132.9820  123.3760   63.9610 C   0  0  0  0  0  0  0  0  0  0  0  0
  129.0590  125.0240   61.7270 C   0  0  0  0  0  0  0  0  0  0  0  0
  128.0180  124.9080   60.8080 C   0  0  0  0  0  0  0  0  0  0  0  0
  127.8630  123.3050   59.7870 Br  0  0  0  0  0  0  0  0  0  0  0  0
  127.1060  125.9580   60.6490 C   0  0  0  0  0  0  0  0  0  0  0  0
  126.0810  125.8420   59.7440 O   0  0  0  0  0  0  0  0  0  0  0  0
  126.1539  128.5000   63.2375 H   0  0  0  0  0  0  0  0  0  0  0  0
  126.5881  129.9109   62.2140 H   0  0  0  0  0  0  0  0  0  0  0  0
  124.9041  129.2856   62.2140 H   0  0  0  0  0  0  0  0  0  0  0  0
  128.4009  128.1448   62.9261 H   0  0  0  0  0  0  0  0  0  0  0  0
  130.7398  127.3451   63.3825 H   0  0  0  0  0  0  0  0  0  0  0  0
  128.9692  124.4221   67.3252 H   0  0  0  0  0  0  0  0  0  0  0  0
  130.6763  124.6916   67.8579 H   0  0  0  0  0  0  0  0  0  0  0  0
  129.4193  126.4706   70.0584 H   0  0  0  0  0  0  0  0  0  0  0  0
  127.8335  126.8489   69.3044 H   0  0  0  0  0  0  0  0  0  0  0  0
  128.4481  125.1611   69.3044 H   0  0  0  0  0  0  0  0  0  0  0  0
  130.8958  127.5503   69.1015 H   0  0  0  0  0  0  0  0  0  0  0  0
  131.5483  126.9153   67.5530 H   0  0  0  0  0  0  0  0  0  0  0  0
  130.4838  128.3622   67.5530 H   0  0  0  0  0  0  0  0  0  0  0  0
  127.4811  126.5288   66.9520 H   0  0  0  0  0  0  0  0  0  0  0  0
  128.2451  128.1604   67.2913 H   0  0  0  0  0  0  0  0  0  0  0  0
  131.5380  123.6490   66.0480 H   0  0  0  0  0  0  0  0  0  0  0  0
  133.2063  124.0584   60.5727 H   0  0  0  0  0  0  0  0  0  0  0  0
  134.2118  124.7279   61.9515 H   0  0  0  0  0  0  0  0  0  0  0  0
  131.1901  121.9442   62.8895 H   0  0  0  0  0  0  0  0  0  0  0  0
  131.1433  122.9479   61.4005 H   0  0  0  0  0  0  0  0  0  0  0  0
  132.0225  121.3815   61.4005 H   0  0  0  0  0  0  0  0  0  0  0  0
  134.7308  121.8357   63.2166 H   0  0  0  0  0  0  0  0  0  0  0  0
  134.0443  121.2180   61.6758 H   0  0  0  0  0  0  0  0  0  0  0  0
  135.0639  122.6969   61.6758 H   0  0  0  0  0  0  0  0  0  0  0  0
  132.7314  122.4812   64.5496 H   0  0  0  0  0  0  0  0  0  0  0  0
  133.9587  123.7770   64.2695 H   0  0  0  0  0  0  0  0  0  0  0  0
  129.7718  124.1953   61.8503 H   0  0  0  0  0  0  0  0  0  0  0  0
  125.4300  126.5420   59.8350 H   0  0  0  0  0  0  0  0  0  0  0  0
  1  2  1  0
  2  3  1  0
  3  4  2  0
  4  5  1  0
  5  6  1  0
  6  7  1  0
  7  8  2  0
  8  9  1  0
  9 10  1  0
 10 11  1  0
 10 12  1  0
 10 13  1  0
 13 14  1  0
 14 15  2  0
  8 16  1  0
 16 17  1  0
 17 18  2  0
 18 19  1  0
 19 20  2  0
 19 21  1  0
 21 22  1  0
 22 23  1  0
 22 24  1  0
 22 25  1  0
  5 26  2  0
 26 27  1  0
 27 28  1  0
 27 29  2  0
 29 30  1  0
 29  3  1  0
 18  6  1  0
 14  7  1  0
 25 17  1  0
  1 31  1  0
  1 32  1  0
  1 33  1  0
  4 34  1  0
  6 35  1  0
  9 36  1  0
  9 37  1  0
 11 38  1  0
 11 39  1  0
 11 40  1  0
 12 41  1  0
 12 42  1  0
 12 43  1  0
 13 44  1  0
 13 45  1  0
 16 46  1  0
 21 47  1  0
 21 48  1  0
 23 49  1  0
 23 50  1  0
 23 51  1  0
 24 52  1  0
 24 53  1  0
 24 54  1  0
 25 55  1  0
 25 56  1  0
 26 57  1  0
 30 58  1  0
M  END
>  <Binding energies>  (1) 
[-7.34]

>  <Ligand effiencies>  (1) 
[-0.229375]

>  <Interactions>  (1) 
["V-B:PRO:540:CA:9855, V-A:GLY:454:CA:4049, V-B:GLU:543:C:9874, V-B:GLU:543:CB:9878, V-A:TYR:484:CE2:4346, V-B:GLU:543:CG:9879, V-A:ASP:366:CG:3213, V-A:GLU:543:CD:4908, V-A:TYR:484:CZ:4347, H-B:ASP:366:OD1:8185, V-B:GLU:543:CA:9876, V-A:SER:385:C:3405, V-A:HIS:456:CE1:4070, V-A:ILE:369:CD1:3239, V-A:GLU:543:CG:4907, V-B:GLU:543:CD:9880, V-A:LEU:475:CD2:4259, H-A:ARG:545:NH2:4928, H-B:ARG:545:NH2:9900, V-A:GLU:543:CB:4906, H-A:TYR:484:OH:4348"]

$$$$
ZINC627036-again1
     RDKit          3D

 58 61  0  0  0  0  0  0  0  0999 V2000
  130.8000  118.1540   60.5460 C   0  0  0  0  0  0  0  0  0  0  0  0
  131.7070  119.1880   60.1760 O   0  0  0  0  0  0  0  0  0  0  0  0
  131.6430  120.4120   60.8190 C   0  0  0  0  0  0  0  0  0  0  0  0
  130.4450  121.0040   61.2510 C   0  0  0  0  0  0  0  0  0  0  0  0
  130.4400  122.2470   61.8960 C   0  0  0  0  0  0  0  0  0  0  0  0
  129.1150  122.8750   62.3610 C   0  0  1  0  0  0  0  0  0  0  0  0
  129.2720  123.6950   63.6610 C   0  0  0  0  0  0  0  0  0  0  0  0
  129.5650  123.1300   64.8550 C   0  0  0  0  0  0  0  0  0  0  0  0
  129.7030  121.7970   65.0890 O   0  0  0  0  0  0  0  0  0  0  0  0
  129.7990  123.9290   66.1390 C   0  0  0  0  0  0  0  0  0  0  0  0
  130.2690  125.4030   65.8630 C   0  0  0  0  0  0  0  0  0  0  0  0
  131.7910  125.4230   65.6060 C   0  0  0  0  0  0  0  0  0  0  0  0
  129.8400  126.2970   67.0460 C   0  0  0  0  0  0  0  0  0  0  0  0
  129.5920  125.9390   64.5950 C   0  0  0  0  0  0  0  0  0  0  0  0
  129.1350  125.1490   63.6020 C   0  0  0  0  0  0  0  0  0  0  0  0
  128.5160  125.7120   62.5160 N   0  0  0  0  0  0  0  0  0  0  0  0
  128.0830  125.0160   61.4100 C   0  0  0  0  0  0  0  0  0  0  0  0
  128.3680  123.6900   61.2620 C   0  0  0  0  0  0  0  0  0  0  0  0
  127.9570  122.9640   60.0350 C   0  0  0  0  0  0  0  0  0  0  0  0
  128.0070  121.7370   59.9500 O   0  0  0  0  0  0  0  0  0  0  0  0
  127.2870  123.7900   58.9200 C   0  0  0  0  0  0  0  0  0  0  0  0
  127.6860  125.2920   58.9060 C   0  0  0  0  0  0  0  0  0  0  0  0
  129.1810  125.4470   58.5210 C   0  0  0  0  0  0  0  0  0  0  0  0
  126.7520  126.0130   57.9090 C   0  0  0  0  0  0  0  0  0  0  0  0
  127.4140  125.8670   60.3260 C   0  0  0  0  0  0  0  0  0  0  0  0
  131.6530  122.9070   62.1030 C   0  0  0  0  0  0  0  0  0  0  0  0
  132.8530  122.3370   61.6810 C   0  0  0  0  0  0  0  0  0  0  0  0
  134.4820  123.2810   61.9910 Br  0  0  0  0  0  0  0  0  0  0  0  0
  132.8480  121.0930   61.0400 C   0  0  0  0  0  0  0  0  0  0  0  0
  134.0300  120.5340   60.6220 O   0  0  0  0  0  0  0  0  0  0  0  0
  130.7442  118.0903   61.6427 H   0  0  0  0  0  0  0  0  0  0  0  0
  129.8025  118.3788   60.1405 H   0  0  0  0  0  0  0  0  0  0  0  0
  131.1529  117.1943   60.1405 H   0  0  0  0  0  0  0  0  0  0  0  0
  129.4924  120.4814   61.0795 H   0  0  0  0  0  0  0  0  0  0  0  0
  128.4687  122.0129   62.5826 H   0  0  0  0  0  0  0  0  0  0  0  0
  130.5670  121.6280   65.4700 H   0  0  0  0  0  0  0  0  0  0  0  0
  128.8588  123.9610   66.7091 H   0  0  0  0  0  0  0  0  0  0  0  0
  130.6002  123.4259   66.7003 H   0  0  0  0  0  0  0  0  0  0  0  0
  132.3252  125.4300   66.5676 H   0  0  0  0  0  0  0  0  0  0  0  0
  132.0780  124.5285   65.0336 H   0  0  0  0  0  0  0  0  0  0  0  0
  132.0544  126.3247   65.0336 H   0  0  0  0  0  0  0  0  0  0  0  0
  130.0820  125.7928   67.9932 H   0  0  0  0  0  0  0  0  0  0  0  0
  130.3759  127.2562   66.9939 H   0  0  0  0  0  0  0  0  0  0  0  0
  128.7564  126.4791   66.9939 H   0  0  0  0  0  0  0  0  0  0  0  0
  129.4727  127.0275   64.4899 H   0  0  0  0  0  0  0  0  0  0  0  0
  128.3840  126.7130   62.5200 H   0  0  0  0  0  0  0  0  0  0  0  0
  127.5666  123.3507   57.9511 H   0  0  0  0  0  0  0  0  0  0  0  0
  126.2042  123.7545   59.1104 H   0  0  0  0  0  0  0  0  0  0  0  0
  129.7903  125.5102   59.4347 H   0  0  0  0  0  0  0  0  0  0  0  0
  129.4989  124.5770   57.9277 H   0  0  0  0  0  0  0  0  0  0  0  0
  129.3137  126.3637   57.9277 H   0  0  0  0  0  0  0  0  0  0  0  0
  126.0005  126.5932   58.4645 H   0  0  0  0  0  0  0  0  0  0  0  0
  127.3440  126.6906   57.2763 H   0  0  0  0  0  0  0  0  0  0  0  0
  126.2464  125.2687   57.2763 H   0  0  0  0  0  0  0  0  0  0  0  0
  127.8107  126.8916   60.3795 H   0  0  0  0  0  0  0  0  0  0  0  0
  126.3280  125.8599   60.5007 H   0  0  0  0  0  0  0  0  0  0  0  0
  131.6617  123.8863   62.6040 H   0  0  0  0  0  0  0  0  0  0  0  0
  134.7200  120.5990   61.2860 H   0  0  0  0  0  0  0  0  0  0  0  0
  1  2  1  0
  2  3  1  0
  3  4  2  0
  4  5  1  0
  5  6  1  0
  6  7  1  0
  7  8  2  0
  8  9  1  0
  8 10  1  0
 10 11  1  0
 11 12  1  0
 11 13  1  0
 11 14  1  0
 14 15  2  0
 15 16  1  0
 16 17  1  0
 17 18  2  0
 18 19  1  0
 19 20  2  0
 19 21  1  0
 21 22  1  0
 22 23  1  0
 22 24  1  0
 22 25  1  0
  5 26  2  0
 26 27  1  0
 27 28  1  0
 27 29  2  0
 29 30  1  0
 29  3  1  0
 18  6  1  0
 15  7  1  0
 25 17  1  0
  1 31  1  0
  1 32  1  0
  1 33  1  0
  4 34  1  0
  6 35  1  1
  9 36  1  0
 10 37  1  0
 10 38  1  0
 12 39  1  0
 12 40  1  0
 12 41  1  0
 13 42  1  0
 13 43  1  0
 13 44  1  0
 14 45  1  0
 16 46  1  0
 21 47  1  0
 21 48  1  0
 23 49  1  0
 23 50  1  0
 23 51  1  0
 24 52  1  0
 24 53  1  0
 24 54  1  0
 25 55  1  0
 25 56  1  0
 26 57  1  0
 30 58  1  0
M  END
>  <Binding energies>  (1) 
[-7.47]

>  <Ligand effiencies>  (1) 
[-0.22636363636363635]

>  <Interactions>  (1) 
["V-A:ILE:369:CG2:3237, V-B:PRO:540:CA:9855, V-A:GLY:454:CA:4049, V-B:GLU:543:CB:9878, V-B:ALA:541:CB:9864, V-B:TYR:539:CE2:9848, V-A:TYR:484:CE2:4346, V-B:GLU:543:CG:9879, H-B:GLU:543:OE1:9881, H-B:ALA:541:N:9863, V-A:GLU:543:CD:4908, V-A:TYR:484:CZ:4347, V-B:GLU:543:CA:9876, V-A:HIS:456:CE1:4070, V-A:ILE:369:CD1:3239, V-B:TYR:539:CD2:9846, H-A:SER:385:OG:3410, V-B:GLU:543:CD:9880, V-A:LEU:475:CD2:4259, H-A:HIS:383:HE2:3395, H-A:SER:385:O:3406, V-A:HIS:383:NE2:3394, H-A:TYR:484:OH:4348"]

$$$$
ZINC63311439
     RDKit          3D

 52 52  0  0  0  0  0  0  0  0999 V2000
  129.7430  126.2440   67.7850 C   0  0  0  0  0  0  0  0  0  0  0  0
  129.8570  125.7180   66.3500 C   0  0  0  0  0  0  0  0  0  0  0  0
  131.3020  125.3360   65.9760 C   0  0  0  0  0  0  0  0  0  0  0  0
  131.3850  124.6550   64.6600 N   0  0  0  0  0  0  0  0  0  0  0  0
  130.2050  124.6690   63.7600 C   0  0  0  0  0  0  0  0  0  0  0  0
  129.3660  123.3850   63.8890 C   0  0  0  0  0  0  0  0  0  0  0  0
  130.1010  122.2830   64.6610 C   0  0  0  0  0  0  0  0  0  0  0  0
  132.9930  124.3590   63.9780 S   0  0  0  0  0  0  0  0  0  0  0  0
  134.0140  124.7930   64.9370 O   0  0  0  0  0  0  0  0  0  0  0  0
  133.0060  122.9910   63.4450 O   0  0  0  0  0  0  0  0  0  0  0  0
  133.0420  125.4650   62.6080 N   0  0  0  0  0  0  0  0  0  0  0  0
  132.2330  125.1530   61.4090 C   0  0  0  0  0  0  0  0  0  0  0  0
  132.9050  124.0960   60.4810 C   0  0  0  0  0  0  0  0  0  0  0  0
  132.8610  124.6410   59.0260 C   0  0  0  0  0  0  0  0  0  0  0  0
  134.3940  123.9740   60.8820 C   0  0  0  0  0  0  0  0  0  0  0  0
  132.2240  122.7110   60.6360 C   0  0  0  0  0  0  0  0  0  0  0  0
  132.9300  121.5030   60.4980 C   0  0  0  0  0  0  0  0  0  0  0  0
  132.2800  120.2750   60.6230 C   0  0  0  0  0  0  0  0  0  0  0  0
  130.9130  120.2310   60.8810 C   0  0  0  0  0  0  0  0  0  0  0  0
  130.1910  121.4160   61.0260 C   0  0  0  0  0  0  0  0  0  0  0  0
  128.6970  121.3780   61.2890 C   0  0  0  0  0  0  0  0  0  0  0  0
  130.8480  122.6430   60.9050 C   0  0  0  0  0  0  0  0  0  0  0  0
  129.9214  125.4208   68.4925 H   0  0  0  0  0  0  0  0  0  0  0  0
  130.4907  127.0346   67.9462 H   0  0  0  0  0  0  0  0  0  0  0  0
  128.7351  126.6541   67.9462 H   0  0  0  0  0  0  0  0  0  0  0  0
  129.2190  124.8277   66.2487 H   0  0  0  0  0  0  0  0  0  0  0  0
  129.5374  126.5231   65.6720 H   0  0  0  0  0  0  0  0  0  0  0  0
  131.9110  126.2513   65.9391 H   0  0  0  0  0  0  0  0  0  0  0  0
  131.6720  124.6360   66.7396 H   0  0  0  0  0  0  0  0  0  0  0  0
  129.5737  125.5328   64.0155 H   0  0  0  0  0  0  0  0  0  0  0  0
  130.5687  124.7345   62.7239 H   0  0  0  0  0  0  0  0  0  0  0  0
  128.4321  123.6247   64.4184 H   0  0  0  0  0  0  0  0  0  0  0  0
  129.1684  123.0095   62.8741 H   0  0  0  0  0  0  0  0  0  0  0  0
  129.9870  122.4539   65.7416 H   0  0  0  0  0  0  0  0  0  0  0  0
  129.6745  121.3039   64.3976 H   0  0  0  0  0  0  0  0  0  0  0  0
  131.1689  122.3006   64.3976 H   0  0  0  0  0  0  0  0  0  0  0  0
  133.9670  125.8490   62.3980 H   0  0  0  0  0  0  0  0  0  0  0  0
  131.2575  124.7635   61.7356 H   0  0  0  0  0  0  0  0  0  0  0  0
  132.1300  126.0824   60.8297 H   0  0  0  0  0  0  0  0  0  0  0  0
  132.7725  125.7372   59.0476 H   0  0  0  0  0  0  0  0  0  0  0  0
  133.7849  124.3580   58.5004 H   0  0  0  0  0  0  0  0  0  0  0  0
  131.9944  124.2135   58.5004 H   0  0  0  0  0  0  0  0  0  0  0  0
  134.4790  123.9670   61.9787 H   0  0  0  0  0  0  0  0  0  0  0  0
  134.8076  123.0390   60.4762 H   0  0  0  0  0  0  0  0  0  0  0  0
  134.9543  124.8292   60.4762 H   0  0  0  0  0  0  0  0  0  0  0  0
  134.0096  121.5265   60.2886 H   0  0  0  0  0  0  0  0  0  0  0  0
  132.8490  119.3395   60.5174 H   0  0  0  0  0  0  0  0  0  0  0  0
  130.4015  119.2613   60.9706 H   0  0  0  0  0  0  0  0  0  0  0  0
  128.5157  121.3734   62.3739 H   0  0  0  0  0  0  0  0  0  0  0  0
  128.2233  122.2644   60.8419 H   0  0  0  0  0  0  0  0  0  0  0  0
  128.2690  120.4687   60.8419 H   0  0  0  0  0  0  0  0  0  0  0  0
  130.2754  123.5748   61.0229 H   0  0  0  0  0  0  0  0  0  0  0  0
  1  2  1  0
  2  3  1  0
  3  4  1  0
  4  5  1  0
  5  6  1  0
  6  7  1  0
  4  8  1  0
  8  9  2  0
  8 10  2  0
  8 11  1  0
 11 12  1  0
 12 13  1  0
 13 14  1  0
 13 15  1  0
 13 16  1  0
 16 17  2  0
 17 18  1  0
 18 19  2  0
 19 20  1  0
 20 21  1  0
 20 22  2  0
 22 16  1  0
  1 23  1  0
  1 24  1  0
  1 25  1  0
  2 26  1  0
  2 27  1  0
  3 28  1  0
  3 29  1  0
  5 30  1  0
  5 31  1  0
  6 32  1  0
  6 33  1  0
  7 34  1  0
  7 35  1  0
  7 36  1  0
 11 37  1  0
 12 38  1  0
 12 39  1  0
 14 40  1  0
 14 41  1  0
 14 42  1  0
 15 43  1  0
 15 44  1  0
 15 45  1  0
 17 46  1  0
 18 47  1  0
 19 48  1  0
 21 49  1  0
 21 50  1  0
 21 51  1  0
 22 52  1  0
M  END
>  <Binding energies>  (1) 
[-6.36]

>  <Ligand effiencies>  (1) 
[-0.2765217391304348]

>  <Interactions>  (1) 
["V-A:ILE:369:CG2:3237, V-A:ASP:366:CA:3210, V-B:PRO:540:CA:9855, V-A:ILE:369:CB:3236, V-B:GLU:543:CB:9878, V-B:ALA:541:CB:9864, V-B:TYR:539:CE2:9848, V-A:TYR:484:CE2:4346, V-B:GLU:543:CG:9879, V-B:TYR:539:C:9839, V-A:ASP:366:CG:3213, V-A:TYR:484:CZ:4347, H-A:GLY:454:N:4050, V-A:HIS:456:CE1:4070, V-A:ILE:369:CD1:3239, V-B:TYR:539:CD2:9846, V-A:SER:385:CB:3409, V-B:GLU:543:CD:9880, V-A:ASP:366:CB:3212, V-A:LEU:475:CD2:4259, H-A:ARG:545:NH2:4928, V-A:ARG:545:CZ:4926, H-A:ASP:366:OD1:3214, H-A:ARG:545:NE:4924, V-B:PRO:540:C:9853, H-A:ASP:366:OD2:3215, V-B:ALA:541:CA:9862, H-A:TYR:484:OH:4348"]

$$$$
ZINC6387336
     RDKit          3D

 36 35  0  0  0  0  0  0  0  0999 V2000
  125.5090  124.2740   60.3510 C   0  0  0  0  0  0  0  0  0  0  0  0
  126.4570  125.3550   60.8810 C   0  0  0  0  0  0  0  0  0  0  0  0
  127.6560  124.7580   61.3460 O   0  0  0  0  0  0  0  0  0  0  0  0
  127.6730  123.2380   61.9410 P   0  0  0  0  0  0  0  0  0  0  0  0
  126.4390  122.8490   62.6820 O   0  0  0  0  0  0  0  0  0  0  0  0
  128.0050  122.3130   60.6370 O   0  0  0  0  0  0  0  0  0  0  0  0
  128.5130  122.8830   59.4410 C   0  0  0  0  0  0  0  0  0  0  0  0
  127.6050  122.5160   58.2610 C   0  0  0  0  0  0  0  0  0  0  0  0
  129.2970  123.1990   62.8580 C   0  0  0  0  0  0  0  0  0  0  0  0
  129.0960  122.4750   64.2090 C   0  0  0  0  0  0  0  0  0  0  0  0
  130.3700  122.4470   62.0330 C   0  0  0  0  0  0  0  0  0  0  0  0
  129.6220  124.5920   63.2070 N   0  0  0  0  0  0  0  0  0  0  0  0
  130.8470  125.0520   63.7770 C   0  0  0  0  0  0  0  0  0  0  0  0
  130.8060  126.4690   63.8760 N   0  0  0  0  0  0  0  0  0  0  0  0
  131.8160  124.2950   64.1260 N   0  0  0  0  0  0  0  0  0  0  0  0
  132.9640  124.7310   64.6450 C   0  0  0  0  0  0  0  0  0  0  0  0
  133.9640  125.0660   65.1210 N   0  0  0  0  0  0  0  0  0  0  0  0
  125.0457  123.7457   61.1973 H   0  0  0  0  0  0  0  0  0  0  0  0
  124.7251  124.7424   59.7376 H   0  0  0  0  0  0  0  0  0  0  0  0
  126.0757  123.5580   59.7376 H   0  0  0  0  0  0  0  0  0  0  0  0
  126.6915  126.0630   60.0725 H   0  0  0  0  0  0  0  0  0  0  0  0
  125.9712  125.8878   61.7118 H   0  0  0  0  0  0  0  0  0  0  0  0
  128.5504  123.9774   59.5458 H   0  0  0  0  0  0  0  0  0  0  0  0
  129.5243  122.4924   59.2548 H   0  0  0  0  0  0  0  0  0  0  0  0
  126.6480  122.1292   58.6412 H   0  0  0  0  0  0  0  0  0  0  0  0
  127.4213  123.4105   57.6477 H   0  0  0  0  0  0  0  0  0  0  0  0
  128.0944  121.7451   57.6477 H   0  0  0  0  0  0  0  0  0  0  0  0
  129.2908  123.1766   65.0335 H   0  0  0  0  0  0  0  0  0  0  0  0
  128.0617  122.1069   64.2774 H   0  0  0  0  0  0  0  0  0  0  0  0
  129.7925  121.6264   64.2774 H   0  0  0  0  0  0  0  0  0  0  0  0
  131.0766  121.9518   62.7153 H   0  0  0  0  0  0  0  0  0  0  0  0
  129.8824  121.6920   61.3988 H   0  0  0  0  0  0  0  0  0  0  0  0
  130.9133  123.1630   61.3988 H   0  0  0  0  0  0  0  0  0  0  0  0
  129.1220  125.2580   62.6350 H   0  0  0  0  0  0  0  0  0  0  0  0
  131.5740  127.0050   64.2520 H   0  0  0  0  0  0  0  0  0  0  0  0
  130.0060  127.0100   63.5820 H   0  0  0  0  0  0  0  0  0  0  0  0
  1  2  1  0
  2  3  1  0
  3  4  1  0
  4  5  2  0
  4  6  1  0
  6  7  1  0
  7  8  1  0
  4  9  1  0
  9 10  1  0
  9 11  1  0
  9 12  1  0
 12 13  1  0
 13 14  1  0
 13 15  2  0
 15 16  1  0
 16 17  3  0
  1 18  1  0
  1 19  1  0
  1 20  1  0
  2 21  1  0
  2 22  1  0
  7 23  1  0
  7 24  1  0
  8 25  1  0
  8 26  1  0
  8 27  1  0
 10 28  1  0
 10 29  1  0
 10 30  1  0
 11 31  1  0
 11 32  1  0
 11 33  1  0
 12 34  1  0
 14 35  1  0
 14 36  1  0
M  END
>  <Binding energies>  (1) 
[-4.59]

>  <Ligand effiencies>  (1) 
[-0.22949999999999998]

>  <Interactions>  (1) 
["V-B:PRO:540:CA:9855, H-A:GLU:543:OE2:4910, V-B:ALA:541:CB:9864, H-A:ARG:545:NH1:4927, V-B:TYR:539:CE2:9848, V-B:GLU:543:CG:9879, V-B:TYR:539:C:9839, H-B:GLU:543:OE1:9881, H-B:ALA:541:N:9863, V-A:GLU:543:CD:4908, V-B:PRO:540:CB:9857, H-A:GLY:454:N:4050, V-B:PRO:540:N:9856, V-B:TYR:539:CD2:9846, V-B:GLU:543:CD:9880, V-A:LEU:475:CD2:4259, H-A:ARG:545:NH2:4928, V-A:ARG:545:CZ:4926, H-A:GLU:543:OE1:4909, V-B:TYR:539:CG:9844, H-A:ARG:545:NE:4924, H-A:TYR:484:OH:4348"]

$$$$
ZINC648912
     RDKit          3D

 70 73  0  0  0  0  0  0  0  0999 V2000
  127.9800  126.8590   61.8670 C   0  0  0  0  0  0  0  0  0  0  0  0
  127.7660  125.7620   60.9860 O   0  0  0  0  0  0  0  0  0  0  0  0
  128.3850  124.5510   61.2460 C   0  0  0  0  0  0  0  0  0  0  0  0
  129.5050  124.4080   62.0840 C   0  0  0  0  0  0  0  0  0  0  0  0
  130.0870  123.1550   62.3100 C   0  0  0  0  0  0  0  0  0  0  0  0
  131.3090  122.9950   63.2370 C   0  0  1  0  0  0  0  0  0  0  0  0
  132.6770  123.3100   62.5520 C   0  0  0  0  0  0  0  0  0  0  0  0
  132.9770  122.5900   61.2800 C   0  0  0  0  0  0  0  0  0  0  0  0
  133.6640  121.5670   61.2120 O   0  0  0  0  0  0  0  0  0  0  0  0
  132.4370  123.1860   60.1810 O   0  0  0  0  0  0  0  0  0  0  0  0
  132.8510  124.4730   59.7220 C   0  0  0  0  0  0  0  0  0  0  0  0
  131.6010  125.2190   59.2300 C   0  0  0  0  0  0  0  0  0  0  0  0
  133.9150  124.3440   58.6150 C   0  0  0  0  0  0  0  0  0  0  0  0
  133.5090  124.2710   63.0510 C   0  0  0  0  0  0  0  0  0  0  0  0
  134.8770  124.7070   62.5270 C   0  0  0  0  0  0  0  0  0  0  0  0
  133.1900  124.9110   64.2280 N   0  0  0  0  0  0  0  0  0  0  0  0
  132.0910  124.6370   65.0080 C   0  0  0  0  0  0  0  0  0  0  0  0
  131.1490  123.7510   64.5860 C   0  0  0  0  0  0  0  0  0  0  0  0
  129.9570  123.4550   65.4190 C   0  0  0  0  0  0  0  0  0  0  0  0
  129.2680  122.4520   65.2390 O   0  0  0  0  0  0  0  0  0  0  0  0
  129.7200  124.3240   66.6700 C   0  0  0  0  0  0  0  0  0  0  0  0
  130.4590  125.6790   66.6050 C   0  0  1  0  0  0  0  0  0  0  0  0
  130.2480  126.4920   67.8840 C   0  0  0  0  0  0  0  0  0  0  0  0
  131.2670  127.3140   68.3720 C   0  0  0  0  0  0  0  0  0  0  0  0
  131.0760  128.0620   69.5300 C   0  0  0  0  0  0  0  0  0  0  0  0
  129.8580  128.0090   70.2280 C   0  0  0  0  0  0  0  0  0  0  0  0
  129.6030  128.7320   71.3800 O   0  0  0  0  0  0  0  0  0  0  0  0
  130.2610  128.3750   72.5910 C   0  0  0  0  0  0  0  0  0  0  0  0
  128.8280  127.1870   69.7460 C   0  0  0  0  0  0  0  0  0  0  0  0
  127.6470  127.1710   70.4690 O   0  0  0  0  0  0  0  0  0  0  0  0
  127.6280  126.5940   71.7710 C   0  0  0  0  0  0  0  0  0  0  0  0
  129.0340  126.4350   68.5760 C   0  0  0  0  0  0  0  0  0  0  0  0
  131.9580  125.4740   66.2780 C   0  0  0  0  0  0  0  0  0  0  0  0
  129.5420  122.0300   61.6850 C   0  0  0  0  0  0  0  0  0  0  0  0
  128.4320  122.1540   60.8530 C   0  0  0  0  0  0  0  0  0  0  0  0
  127.8550  123.4050   60.6350 C   0  0  0  0  0  0  0  0  0  0  0  0
  126.7610  123.4950   59.8120 O   0  0  0  0  0  0  0  0  0  0  0  0
  127.9122  126.5115   62.9085 H   0  0  0  0  0  0  0  0  0  0  0  0
  128.9781  127.2847   61.6867 H   0  0  0  0  0  0  0  0  0  0  0  0
  127.2151  127.6287   61.6867 H   0  0  0  0  0  0  0  0  0  0  0  0
  129.9318  125.2972   62.5710 H   0  0  0  0  0  0  0  0  0  0  0  0
  131.3355  121.9204   63.4704 H   0  0  0  0  0  0  0  0  0  0  0  0
  133.3209  125.0416   60.5381 H   0  0  0  0  0  0  0  0  0  0  0  0
  131.0176  125.5672   60.0951 H   0  0  0  0  0  0  0  0  0  0  0  0
  131.9056  126.0832   58.6214 H   0  0  0  0  0  0  0  0  0  0  0  0
  130.9850  124.5407   58.6214 H   0  0  0  0  0  0  0  0  0  0  0  0
  134.9079  124.2236   59.0730 H   0  0  0  0  0  0  0  0  0  0  0  0
  133.6903  123.4665   57.9909 H   0  0  0  0  0  0  0  0  0  0  0  0
  133.9065  125.2498   57.9909 H   0  0  0  0  0  0  0  0  0  0  0  0
  135.5439  124.9196   63.3755 H   0  0  0  0  0  0  0  0  0  0  0  0
  135.3085  123.9019   61.9142 H   0  0  0  0  0  0  0  0  0  0  0  0
  134.7631  125.6133   61.9142 H   0  0  0  0  0  0  0  0  0  0  0  0
  133.8050  125.6490   64.5360 H   0  0  0  0  0  0  0  0  0  0  0  0
  128.6411  124.5161   66.7655 H   0  0  0  0  0  0  0  0  0  0  0  0
  130.1140  123.7725   67.5364 H   0  0  0  0  0  0  0  0  0  0  0  0
  130.0252  126.2682   65.7836 H   0  0  0  0  0  0  0  0  0  0  0  0
  132.2267  127.3703   67.8373 H   0  0  0  0  0  0  0  0  0  0  0  0
  131.8887  128.7025   69.9033 H   0  0  0  0  0  0  0  0  0  0  0  0
  129.6551  128.7037   73.4482 H   0  0  0  0  0  0  0  0  0  0  0  0
  130.3898  127.2833   72.6302 H   0  0  0  0  0  0  0  0  0  0  0  0
  131.2465  128.8622   72.6302 H   0  0  0  0  0  0  0  0  0  0  0  0
  127.6543  127.3930   72.5266 H   0  0  0  0  0  0  0  0  0  0  0  0
  126.7098  126.0012   71.8960 H   0  0  0  0  0  0  0  0  0  0  0  0
  128.5052  125.9421   71.8960 H   0  0  0  0  0  0  0  0  0  0  0  0
  128.2264  125.7907   68.1984 H   0  0  0  0  0  0  0  0  0  0  0  0
  132.4371  126.4522   66.1245 H   0  0  0  0  0  0  0  0  0  0  0  0
  132.4482  124.9533   67.1138 H   0  0  0  0  0  0  0  0  0  0  0  0
  129.9926  121.0404   61.8513 H   0  0  0  0  0  0  0  0  0  0  0  0
  128.0091  121.2627   60.3664 H   0  0  0  0  0  0  0  0  0  0  0  0
  126.4110  124.3860   59.7500 H   0  0  0  0  0  0  0  0  0  0  0  0
  1  2  1  0
  2  3  1  0
  3  4  2  0
  4  5  1  0
  5  6  1  0
  6  7  1  0
  7  8  1  0
  8  9  2  0
  8 10  1  0
 10 11  1  0
 11 12  1  0
 11 13  1  0
  7 14  2  0
 14 15  1  0
 14 16  1  0
 16 17  1  0
 17 18  2  0
 18 19  1  0
 19 20  2  0
 19 21  1  0
 21 22  1  0
 22 23  1  0
 23 24  2  0
 24 25  1  0
 25 26  2  0
 26 27  1  0
 27 28  1  0
 26 29  1  0
 29 30  1  0
 30 31  1  0
 29 32  2  0
 22 33  1  0
  5 34  2  0
 34 35  1  0
 35 36  2  0
 36 37  1  0
 36  3  1  0
 18  6  1  0
 32 23  1  0
 33 17  1  0
  1 38  1  0
  1 39  1  0
  1 40  1  0
  4 41  1  0
  6 42  1  1
 11 43  1  0
 12 44  1  0
 12 45  1  0
 12 46  1  0
 13 47  1  0
 13 48  1  0
 13 49  1  0
 15 50  1  0
 15 51  1  0
 15 52  1  0
 16 53  1  0
 21 54  1  0
 21 55  1  0
 22 56  1  6
 24 57  1  0
 25 58  1  0
 28 59  1  0
 28 60  1  0
 28 61  1  0
 31 62  1  0
 31 63  1  0
 31 64  1  0
 32 65  1  0
 33 66  1  0
 33 67  1  0
 34 68  1  0
 35 69  1  0
 37 70  1  0
M  END
>  <Binding energies>  (1) 
[-7.25]

>  <Ligand effiencies>  (1) 
[-0.1858974358974359]

>  <Interactions>  (1) 
["V-A:ILE:369:CG2:3237, V-A:ASP:366:CA:3210, V-B:PRO:540:CA:9855, V-A:GLU:543:CA:4904, V-B:GLU:543:C:9874, H-A:GLU:543:OE2:4910, V-A:ILE:369:CB:3236, V-A:GLU:543:C:4902, V-B:GLU:543:CB:9878, V-B:ALA:541:CB:9864, V-B:TYR:539:CE2:9848, V-A:TYR:484:CE2:4346, V-B:GLU:543:CG:9879, V-A:GLY:544:C:4912, V-B:TYR:539:C:9839, V-A:ASP:366:CG:3213, V-A:TYR:484:CZ:4347, V-A:GLU:543:CD:4908, H-B:ASP:366:OD1:8185, V-B:GLU:543:CA:9876, V-A:ARG:545:CG:4922, V-B:HIS:456:CE1:9041, V-A:GLY:453:C:4042, V-A:ILE:369:CD1:3239, V-A:HIS:456:CE1:4070, V-A:ASP:366:C:3208, V-B:GLY:544:C:9884, V-B:GLY:544:CA:9886, V-B:GLU:543:CD:9880, V-A:ASP:366:CB:3212, V-A:LEU:475:CD2:4259, V-A:ARG:545:CZ:4926, V-A:GLU:543:CB:4906, V-A:GLY:453:CA:4044, V-B:PRO:540:C:9853"]

$$$$
ZINC648912-again1
     RDKit          3D

 69 72  0  0  0  0  0  0  0  0999 V2000
  128.4260  123.6060   58.0300 C   0  0  0  0  0  0  0  0  0  0  0  0
  128.7040  122.5330   58.9230 O   0  0  0  0  0  0  0  0  0  0  0  0
  128.6260  122.7490   60.2890 C   0  0  0  0  0  0  0  0  0  0  0  0
  129.7310  122.6790   61.1560 C   0  0  0  0  0  0  0  0  0  0  0  0
  129.5890  122.9090   62.5300 C   0  0  0  0  0  0  0  0  0  0  0  0
  130.8040  122.8480   63.4710 C   0  0  2  0  0  0  0  0  0  0  0  0
  130.6070  123.6810   64.7680 C   0  0  0  0  0  0  0  0  0  0  0  0
  129.6880  123.3940   65.7320 C   0  0  0  0  0  0  0  0  0  0  0  0
  128.9360  122.3450   65.7400 O   0  0  0  0  0  0  0  0  0  0  0  0
  129.5010  124.2270   67.0100 C   0  0  0  0  0  0  0  0  0  0  0  0
  129.9130  125.7160   66.8030 C   0  0  1  0  0  0  0  0  0  0  0  0
  130.0840  126.4290   68.1480 C   0  0  0  0  0  0  0  0  0  0  0  0
  131.1730  127.2710   68.3900 C   0  0  0  0  0  0  0  0  0  0  0  0
  131.3230  127.8940   69.6250 C   0  0  0  0  0  0  0  0  0  0  0  0
  130.3890  127.6850   70.6530 C   0  0  0  0  0  0  0  0  0  0  0  0
  130.4810  128.2710   71.9050 O   0  0  0  0  0  0  0  0  0  0  0  0
  130.7760  127.4610   73.0370 C   0  0  0  0  0  0  0  0  0  0  0  0
  129.2950  126.8350   70.4240 C   0  0  0  0  0  0  0  0  0  0  0  0
  128.4050  126.6590   71.4700 O   0  0  0  0  0  0  0  0  0  0  0  0
  127.1440  127.3190   71.4370 C   0  0  0  0  0  0  0  0  0  0  0  0
  129.1570  126.2130   69.1710 C   0  0  0  0  0  0  0  0  0  0  0  0
  131.1130  125.8250   65.8610 C   0  0  0  0  0  0  0  0  0  0  0  0
  131.4230  124.8840   64.9460 C   0  0  0  0  0  0  0  0  0  0  0  0
  132.5380  125.0600   64.1680 N   0  0  0  0  0  0  0  0  0  0  0  0
  132.9250  124.2400   63.1320 C   0  0  0  0  0  0  0  0  0  0  0  0
  134.2810  124.6680   62.5680 C   0  0  0  0  0  0  0  0  0  0  0  0
  132.1650  123.1630   62.7720 C   0  0  0  0  0  0  0  0  0  0  0  0
  132.5300  122.3020   61.6060 C   0  0  0  0  0  0  0  0  0  0  0  0
  133.0650  121.1940   61.7090 O   0  0  0  0  0  0  0  0  0  0  0  0
  132.2470  122.8680   60.4010 O   0  0  0  0  0  0  0  0  0  0  0  0
  132.8000  124.1190   59.9890 C   0  0  0  0  0  0  0  0  0  0  0  0
  131.6380  125.1120   59.8330 C   0  0  0  0  0  0  0  0  0  0  0  0
  133.6040  123.9630   58.6840 C   0  0  0  0  0  0  0  0  0  0  0  0
  128.3240  123.2080   63.0430 C   0  0  0  0  0  0  0  0  0  0  0  0
  127.2210  123.2820   62.1970 C   0  0  0  0  0  0  0  0  0  0  0  0
  127.3690  123.0560   60.8290 C   0  0  0  0  0  0  0  0  0  0  0  0
  126.2630  123.1400   60.0200 O   0  0  0  0  0  0  0  0  0  0  0  0
  128.1912  124.5122   58.6076 H   0  0  0  0  0  0  0  0  0  0  0  0
  129.3054  123.7927   57.3962 H   0  0  0  0  0  0  0  0  0  0  0  0
  127.5665  123.3422   57.3962 H   0  0  0  0  0  0  0  0  0  0  0  0
  130.7240  122.4394   60.7478 H   0  0  0  0  0  0  0  0  0  0  0  0
  130.8657  121.7929   63.7760 H   0  0  0  0  0  0  0  0  0  0  0  0
  128.4424  124.1895   67.3064 H   0  0  0  0  0  0  0  0  0  0  0  0
  130.1485  123.8010   67.7906 H   0  0  0  0  0  0  0  0  0  0  0  0
  129.0997  126.2547   66.2947 H   0  0  0  0  0  0  0  0  0  0  0  0
  131.9170  127.4424   67.5982 H   0  0  0  0  0  0  0  0  0  0  0  0
  132.1829  128.5578   69.7983 H   0  0  0  0  0  0  0  0  0  0  0  0
  130.5697  128.0275   73.9570 H   0  0  0  0  0  0  0  0  0  0  0  0
  130.1493  126.5573   73.0146 H   0  0  0  0  0  0  0  0  0  0  0  0
  131.8371  127.1720   73.0146 H   0  0  0  0  0  0  0  0  0  0  0  0
  126.7979  127.5001   72.4653 H   0  0  0  0  0  0  0  0  0  0  0  0
  127.2464  128.2792   70.9101 H   0  0  0  0  0  0  0  0  0  0  0  0
  126.4134  126.6877   70.9101 H   0  0  0  0  0  0  0  0  0  0  0  0
  128.3028  125.5433   68.9924 H   0  0  0  0  0  0  0  0  0  0  0  0
  131.7551  126.7152   65.9334 H   0  0  0  0  0  0  0  0  0  0  0  0
  133.0900  125.8880   64.3350 H   0  0  0  0  0  0  0  0  0  0  0  0
  134.9707  124.8857   63.3968 H   0  0  0  0  0  0  0  0  0  0  0  0
  134.6940  123.8566   61.9508 H   0  0  0  0  0  0  0  0  0  0  0  0
  134.1534  125.5695   61.9508 H   0  0  0  0  0  0  0  0  0  0  0  0
  133.5084  124.4959   60.7414 H   0  0  0  0  0  0  0  0  0  0  0  0
  131.2806  125.4174   60.8275 H   0  0  0  0  0  0  0  0  0  0  0  0
  131.9842  125.9976   59.2799 H   0  0  0  0  0  0  0  0  0  0  0  0
  130.8172  124.6320   59.2799 H   0  0  0  0  0  0  0  0  0  0  0  0
  134.6577  123.7586   58.9247 H   0  0  0  0  0  0  0  0  0  0  0  0
  133.1931  123.1278   58.0978 H   0  0  0  0  0  0  0  0  0  0  0  0
  133.5352  124.8912   58.0978 H   0  0  0  0  0  0  0  0  0  0  0  0
  128.1991  123.3859   64.1213 H   0  0  0  0  0  0  0  0  0  0  0  0
  126.2292  123.5196   62.6091 H   0  0  0  0  0  0  0  0  0  0  0  0
  126.4560  122.9340   59.1040 H   0  0  0  0  0  0  0  0  0  0  0  0
  1  2  1  0
  2  3  1  0
  3  4  2  0
  4  5  1  0
  5  6  1  0
  6  7  1  0
  7  8  2  0
  8  9  1  0
  8 10  1  0
 10 11  1  0
 11 12  1  0
 12 13  2  0
 13 14  1  0
 14 15  2  0
 15 16  1  0
 16 17  1  0
 15 18  1  0
 18 19  1  0
 19 20  1  0
 18 21  2  0
 11 22  1  0
 22 23  2  0
 23 24  1  0
 24 25  1  0
 25 26  1  0
 25 27  2  0
 27 28  1  0
 28 29  2  0
 28 30  1  0
 30 31  1  0
 31 32  1  0
 31 33  1  0
  5 34  2  0
 34 35  1  0
 35 36  2  0
 36 37  1  0
 36  3  1  0
 27  6  1  0
 23  7  1  0
 21 12  1  0
  1 38  1  0
  1 39  1  0
  1 40  1  0
  4 41  1  0
  6 42  1  1
 10 43  1  0
 10 44  1  0
 11 45  1  6
 13 46  1  0
 14 47  1  0
 17 48  1  0
 17 49  1  0
 17 50  1  0
 20 51  1  0
 20 52  1  0
 20 53  1  0
 21 54  1  0
 22 55  1  0
 24 56  1  0
 26 57  1  0
 26 58  1  0
 26 59  1  0
 31 60  1  0
 32 61  1  0
 32 62  1  0
 32 63  1  0
 33 64  1  0
 33 65  1  0
 33 66  1  0
 34 67  1  0
 35 68  1  0
 37 69  1  0
M  CHG  1   9  -1
M  END
>  <Binding energies>  (1) 
[-5.64]

>  <Ligand effiencies>  (1) 
[-0.14461538461538462]

>  <Interactions>  (1) 
["V-A:ILE:369:CG2:3237, V-A:ASP:366:CA:3210, V-B:PRO:540:CA:9855, V-A:ARG:545:CA:4919, V-B:GLU:543:C:9874, H-A:GLU:543:OE2:4910, V-A:ILE:369:CB:3236, V-A:GLU:543:C:4902, V-B:HIS:456:CD2:9039, V-B:GLU:543:CB:9878, V-B:ALA:541:CB:9864, V-B:TYR:539:CE2:9848, V-A:TYR:484:CE2:4346, V-B:GLU:543:CG:9879, V-A:GLY:544:C:4912, V-A:HIS:456:CD2:4068, V-B:TYR:539:CZ:9849, V-A:TYR:484:CZ:4347, V-A:GLU:543:CD:4908, V-B:PRO:540:CB:9857, V-B:GLU:543:CA:9876, V-A:ARG:545:CG:4922, V-B:HIS:456:CE1:9041, V-A:ILE:369:CD1:3239, V-A:HIS:456:CE1:4070, V-B:GLY:544:C:9884, V-B:TYR:539:CD2:9846, H-A:SER:385:OG:3410, V-B:GLU:543:CD:9880, V-B:HIS:456:CG:9037, V-A:LEU:475:CD2:4259, V-A:ARG:545:CZ:4926, V-A:GLU:543:CB:4906, V-A:GLY:453:CA:4044, V-B:PRO:540:C:9853"]

$$$$
ZINC6500537-again1
     RDKit          3D

 31 33  0  0  0  0  0  0  0  0999 V2000
  129.3620  131.6150   73.8010 C   0  0  0  0  0  0  0  0  0  0  0  0
  128.7090  130.2670   74.0650 C   0  0  0  0  0  0  0  0  0  0  0  0
  127.6110  130.1320   74.9150 C   0  0  0  0  0  0  0  0  0  0  0  0
  127.0770  128.8550   75.1010 C   0  0  0  0  0  0  0  0  0  0  0  0
  126.0800  128.6700   75.8630 O   0  0  0  0  0  0  0  0  0  0  0  0
  127.5610  127.7330   74.5040 N   0  0  0  0  0  0  0  0  0  0  0  0
  128.6180  127.8690   73.6880 C   0  0  0  0  0  0  0  0  0  0  0  0
  129.3950  126.9570   72.9000 C   0  0  0  0  0  0  0  0  0  0  0  0
  129.3020  125.6080   72.7290 N   0  0  0  0  0  0  0  0  0  0  0  0
  129.4990  124.9240   73.7760 N   0  0  0  0  0  0  0  0  0  0  0  0
  129.4180  123.5230   73.6400 C   0  0  0  0  0  0  0  0  0  0  0  0
  128.6770  122.8630   72.6360 C   0  0  0  0  0  0  0  0  0  0  0  0
  128.6360  121.4740   72.5500 C   0  0  0  0  0  0  0  0  0  0  0  0
  129.3350  120.7000   73.4700 C   0  0  0  0  0  0  0  0  0  0  0  0
  130.0720  121.3210   74.4730 C   0  0  0  0  0  0  0  0  0  0  0  0
  130.1160  122.7150   74.5600 C   0  0  0  0  0  0  0  0  0  0  0  0
  131.0570  123.4130   75.8370 Cl  0  0  0  0  0  0  0  0  0  0  0  0
  130.3550  127.7840   72.2940 C   0  0  0  0  0  0  0  0  0  0  0  0
  131.3480  127.4120   71.4360 N   0  0  0  0  0  0  0  0  0  0  0  0
  130.2440  129.0550   72.6170 N   0  0  0  0  0  0  0  0  0  0  0  0
  129.1950  129.1300   73.4640 N   0  0  0  0  0  0  0  0  0  0  0  0
  129.5979  132.1020   74.7587 H   0  0  0  0  0  0  0  0  0  0  0  0
  130.2885  131.4674   73.2267 H   0  0  0  0  0  0  0  0  0  0  0  0
  128.6719  132.2505   73.2267 H   0  0  0  0  0  0  0  0  0  0  0  0
  127.1784  131.0060   75.4239 H   0  0  0  0  0  0  0  0  0  0  0  0
  128.1173  123.4618   71.9024 H   0  0  0  0  0  0  0  0  0  0  0  0
  128.0510  120.9890   71.7547 H   0  0  0  0  0  0  0  0  0  0  0  0
  129.3052  119.6023   73.4048 H   0  0  0  0  0  0  0  0  0  0  0  0
  130.6240  120.7105   75.2028 H   0  0  0  0  0  0  0  0  0  0  0  0
  132.3100  127.3510   71.7380 H   0  0  0  0  0  0  0  0  0  0  0  0
  131.1530  127.1860   70.4720 H   0  0  0  0  0  0  0  0  0  0  0  0
  1  2  1  0
  2  3  2  0
  3  4  1  0
  4  5  1  0
  4  6  2  0
  6  7  1  0
  7  8  2  0
  8  9  1  0
  9 10  2  0
 10 11  1  0
 11 12  2  0
 12 13  1  0
 13 14  2  0
 14 15  1  0
 15 16  2  0
 16 17  1  0
  8 18  1  0
 18 19  1  0
 18 20  2  0
 20 21  1  0
 21  2  1  0
 21  7  1  0
 16 11  1  0
  1 22  1  0
  1 23  1  0
  1 24  1  0
  3 25  1  0
 12 26  1  0
 13 27  1  0
 14 28  1  0
 15 29  1  0
 19 30  1  0
 19 31  1  0
M  CHG  1   5  -1
M  END
>  <Binding energies>  (1) 
[-6.34]

>  <Ligand effiencies>  (1) 
[-0.2756521739130435]

>  <Interactions>  (1) 
["V-A:HIS:456:CE1:4070, V-A:ARG:545:CA:4919, V-B:HIS:456:CD2:9039, V-B:GLU:543:C:9874, V-A:LYS:547:CE:4950, V-A:TYR:484:CG:4342, H-B:LYS:547:NZ:9923, V-B:GLY:544:CA:9886, V-B:LYS:547:CE:9922, H-A:LYS:547:NZ:4951, V-A:GLY:544:C:4912, H-A:GLY:544:O:4913, H-A:HIS:456:NE2:4071, V-A:HIS:456:CD2:4068, V-A:TYR:484:CB:4341, V-A:HIS:456:CG:4066"]

$$$$
ZINC6530403
     RDKit          3D

 31 33  0  0  0  0  0  0  0  0999 V2000
  128.3910  122.8370   63.7800 O   0  0  0  0  0  0  0  0  0  0  0  0
  129.2010  122.7700   64.6980 N   0  0  0  0  0  0  0  0  0  0  0  0
  128.9960  122.1860   65.7580 O   0  0  0  0  0  0  0  0  0  0  0  0
  130.4920  123.4690   64.5270 C   0  0  0  0  0  0  0  0  0  0  0  0
  131.4340  122.8810   63.6640 C   0  0  0  0  0  0  0  0  0  0  0  0
  132.6430  123.5300   63.4640 C   0  0  0  0  0  0  0  0  0  0  0  0
  132.9360  124.7030   64.0890 C   0  0  0  0  0  0  0  0  0  0  0  0
  132.0420  125.3080   64.9620 C   0  0  0  0  0  0  0  0  0  0  0  0
  130.7920  124.6920   65.1960 C   0  0  0  0  0  0  0  0  0  0  0  0
  129.8490  125.3090   66.1510 C   0  0  0  0  0  0  0  0  0  0  0  0
  129.4180  126.5000   66.0540 N   0  0  0  0  0  0  0  0  0  0  0  0
  128.5320  126.9260   67.0490 N   0  0  0  0  0  0  0  0  0  0  0  0
  128.9210  127.2190   68.3650 C   0  0  0  0  0  0  0  0  0  0  0  0
  130.2460  127.4520   68.5840 N   0  0  0  0  0  0  0  0  0  0  0  0
  130.6550  127.7350   69.8460 C   0  0  0  0  0  0  0  0  0  0  0  0
  129.7760  127.7980   70.9270 C   0  0  0  0  0  0  0  0  0  0  0  0
  130.3530  128.1640   72.5110 Cl  0  0  0  0  0  0  0  0  0  0  0  0
  128.4200  127.5590   70.6980 C   0  0  0  0  0  0  0  0  0  0  0  0
  127.9790  127.2650   69.4050 C   0  0  0  0  0  0  0  0  0  0  0  0
  126.2950  126.9670   69.1330 Cl  0  0  0  0  0  0  0  0  0  0  0  0
  134.1880  125.0990   63.7440 O   0  0  0  0  0  0  0  0  0  0  0  0
  134.5840  124.2390   62.7090 C   0  0  0  0  0  0  0  0  0  0  0  0
  133.7010  123.1480   62.7010 O   0  0  0  0  0  0  0  0  0  0  0  0
  131.2167  121.9281   63.1592 H   0  0  0  0  0  0  0  0  0  0  0  0
  132.3025  126.2517   65.4635 H   0  0  0  0  0  0  0  0  0  0  0  0
  129.4987  124.7002   66.9975 H   0  0  0  0  0  0  0  0  0  0  0  0
  127.5820  126.6200   66.8900 H   0  0  0  0  0  0  0  0  0  0  0  0
  131.7241  127.9226   70.0242 H   0  0  0  0  0  0  0  0  0  0  0  0
  127.7025  127.6018   71.5307 H   0  0  0  0  0  0  0  0  0  0  0  0
  134.5370  124.7663   61.7448 H   0  0  0  0  0  0  0  0  0  0  0  0
  135.6179  123.8974   62.8655 H   0  0  0  0  0  0  0  0  0  0  0  0
  1  2  2  0
  2  3  1  0
  2  4  1  0
  4  5  2  0
  5  6  1  0
  6  7  2  0
  7  8  1  0
  8  9  2  0
  9 10  1  0
 10 11  2  0
 11 12  1  0
 12 13  1  0
 13 14  2  0
 14 15  1  0
 15 16  2  0
 16 17  1  0
 16 18  1  0
 18 19  2  0
 19 20  1  0
  7 21  1  0
 21 22  1  0
 22 23  1  0
  9  4  1  0
 19 13  1  0
 23  6  1  0
  5 24  1  0
  8 25  1  0
 10 26  1  0
 12 27  1  0
 15 28  1  0
 18 29  1  0
 22 30  1  0
 22 31  1  0
M  CHG  2   2   1   3  -1
M  END
>  <Binding energies>  (1) 
[-6.55]

>  <Ligand effiencies>  (1) 
[-0.27291666666666664]

>  <Interactions>  (1) 
["V-A:GLY:454:CA:4049, V-B:GLU:543:C:9874, V-B:HIS:456:CD2:9039, V-A:GLU:543:C:4902, V-B:GLU:543:CB:9878, V-B:ALA:541:CB:9864, H-A:ARG:545:NH1:4927, V-A:TYR:484:CE2:4346, V-B:GLU:543:CG:9879, V-A:GLY:544:C:4912, V-B:ARG:545:CG:9894, V-B:HIS:456:CE1:9041, H-A:GLY:454:N:4050, V-B:GLU:543:CA:9876, V-A:GLY:453:C:4042, V-A:ILE:369:CD1:3239, V-A:HIS:456:CE1:4070, V-B:GLY:544:C:9884, V-B:GLU:543:CD:9880, V-A:LEU:475:CD2:4259, H-A:ARG:545:NH2:4928, V-A:ARG:545:CZ:4926, V-A:GLU:543:CB:4906, H-B:GLU:543:OE2:9882, V-A:GLY:453:CA:4044, V-B:ARG:545:CA:9891, H-A:ARG:545:NE:4924"]

$$$$
ZINC653825253
     RDKit          3D

 75 79  0  0  0  0  0  0  0  0999 V2000
  130.4930  126.9820   73.4810 C   0  0  0  0  0  0  0  0  0  0  0  0
  130.0700  127.0440   71.9950 C   0  0  0  0  0  0  0  0  0  0  0  0
  130.4420  128.4260   71.4160 C   0  0  0  0  0  0  0  0  0  0  0  0
  128.5700  126.6740   71.7860 C   0  0  1  0  0  0  0  0  0  0  0  0
  127.6040  127.5780   72.5800 C   0  0  0  0  0  0  0  0  0  0  0  0
  128.1740  126.6620   70.3160 C   0  0  0  0  0  0  0  0  0  0  0  0
  129.0280  126.4850   69.2910 C   0  0  0  0  0  0  0  0  0  0  0  0
  128.6410  126.4800   67.8180 C   0  0  1  0  0  0  0  0  0  0  0  0
  127.5690  127.5580   67.5670 C   0  0  0  0  0  0  0  0  0  0  0  0
  129.8990  126.6120   66.9010 C   0  0  1  0  0  0  0  0  0  0  0  0
  131.2280  126.2950   67.6420 C   0  0  0  0  0  0  0  0  0  0  0  0
  132.1600  125.6050   66.6340 C   0  0  0  0  0  0  0  0  0  0  0  0
  131.4820  125.8430   65.2800 C   0  0  1  0  0  0  0  0  0  0  0  0
  131.8850  125.0990   63.9790 C   0  0  0  0  0  0  0  0  0  0  0  0
  130.9890  125.0200   62.9430 C   0  0  0  0  0  0  0  0  0  0  0  0
  129.5310  125.5270   63.1060 C   0  0  0  0  0  0  0  0  0  0  0  0
  129.2890  126.3770   64.3680 C   0  0  0  0  0  0  0  0  0  0  0  0
  129.9720  125.7470   65.5980 C   0  0  2  0  0  0  0  0  0  0  0  0
  129.4960  124.2820   65.8620 C   0  0  0  0  0  0  0  0  0  0  0  0
  131.3490  124.4570   61.5370 C   0  0  1  0  0  0  0  0  0  0  0  0
  130.1710  123.5760   61.0280 C   0  0  0  0  0  0  0  0  0  0  0  0
  131.5740  125.6570   60.5700 C   0  0  0  0  0  0  0  0  0  0  0  0
  132.0240  125.2630   59.1490 C   0  0  0  0  0  0  0  0  0  0  0  0
  133.3130  124.4160   59.1650 C   0  0  2  0  0  0  0  0  0  0  0  0
  133.6310  123.9670   57.8630 O   0  0  0  0  0  0  0  0  0  0  0  0
  133.2390  123.2310   60.1510 C   0  0  0  0  0  0  0  0  0  0  0  0
  132.6680  123.6310   61.5350 C   0  0  2  0  0  0  0  0  0  0  0  0
  132.8090  122.6190   62.4940 O   0  0  0  0  0  0  0  0  0  0  0  0
  133.6550  123.7390   62.6460 C   0  0  2  0  0  0  0  0  0  0  0  0
  133.3550  124.6710   63.8250 C   0  0  2  0  0  0  0  0  0  0  0  0
  133.8320  123.9510   64.9430 O   0  0  0  0  0  0  0  0  0  0  0  0
  129.6072  127.1118   74.1201 H   0  0  0  0  0  0  0  0  0  0  0  0
  130.9561  126.0064   73.6900 H   0  0  0  0  0  0  0  0  0  0  0  0
  131.2166  127.7837   73.6900 H   0  0  0  0  0  0  0  0  0  0  0  0
  130.6253  126.2777   71.4343 H   0  0  0  0  0  0  0  0  0  0  0  0
  130.6314  129.1298   72.2399 H   0  0  0  0  0  0  0  0  0  0  0  0
  131.3471  128.3330   70.7978 H   0  0  0  0  0  0  0  0  0  0  0  0
  129.6125  128.7999   70.7978 H   0  0  0  0  0  0  0  0  0  0  0  0
  128.4748  125.6526   72.1830 H   0  0  0  0  0  0  0  0  0  0  0  0
  127.7641  127.4282   73.6579 H   0  0  0  0  0  0  0  0  0  0  0  0
  127.7933  128.6309   72.3241 H   0  0  0  0  0  0  0  0  0  0  0  0
  126.5659  127.3194   72.3241 H   0  0  0  0  0  0  0  0  0  0  0  0
  127.1111  126.8089   70.0737 H   0  0  0  0  0  0  0  0  0  0  0  0
  130.0893  126.3319   69.5365 H   0  0  0  0  0  0  0  0  0  0  0  0
  128.1937  125.5113   67.5506 H   0  0  0  0  0  0  0  0  0  0  0  0
  127.1948  127.9343   68.5305 H   0  0  0  0  0  0  0  0  0  0  0  0
  128.0103  128.3879   66.9957 H   0  0  0  0  0  0  0  0  0  0  0  0
  126.7366  127.1213   66.9957 H   0  0  0  0  0  0  0  0  0  0  0  0
  129.7781  127.6661   66.6108 H   0  0  0  0  0  0  0  0  0  0  0  0
  131.6884  127.2261   68.0041 H   0  0  0  0  0  0  0  0  0  0  0  0
  131.0442  125.6452   68.5104 H   0  0  0  0  0  0  0  0  0  0  0  0
  133.1622  126.0579   66.6545 H   0  0  0  0  0  0  0  0  0  0  0  0
  132.3048  124.5369   66.8533 H   0  0  0  0  0  0  0  0  0  0  0  0
  131.8645  126.8134   64.9308 H   0  0  0  0  0  0  0  0  0  0  0  0
  129.2790  126.1378   62.2265 H   0  0  0  0  0  0  0  0  0  0  0  0
  128.8974  124.6332   63.2038 H   0  0  0  0  0  0  0  0  0  0  0  0
  129.6981  127.3852   64.2065 H   0  0  0  0  0  0  0  0  0  0  0  0
  128.2061  126.4258   64.5552 H   0  0  0  0  0  0  0  0  0  0  0  0
  129.4385  124.1049   66.9461 H   0  0  0  0  0  0  0  0  0  0  0  0
  128.5031  124.1325   65.4128 H   0  0  0  0  0  0  0  0  0  0  0  0
  130.2114  123.5774   65.4128 H   0  0  0  0  0  0  0  0  0  0  0  0
  129.6219  123.1654   61.8882 H   0  0  0  0  0  0  0  0  0  0  0  0
  129.4914  124.1893   60.4181 H   0  0  0  0  0  0  0  0  0  0  0  0
  130.5672  122.7508   60.4181 H   0  0  0  0  0  0  0  0  0  0  0  0
  130.6285  126.2132   60.4882 H   0  0  0  0  0  0  0  0  0  0  0  0
  132.3913  126.2542   61.0005 H   0  0  0  0  0  0  0  0  0  0  0  0
  131.2223  124.6807   58.6713 H   0  0  0  0  0  0  0  0  0  0  0  0
  132.2318  126.1873   58.5899 H   0  0  0  0  0  0  0  0  0  0  0  0
  134.1195  125.0727   59.5233 H   0  0  0  0  0  0  0  0  0  0  0  0
  134.3390  124.5150   57.5180 H   0  0  0  0  0  0  0  0  0  0  0  0
  132.5936  122.4532   59.7168 H   0  0  0  0  0  0  0  0  0  0  0  0
  134.2659  122.8701   60.3100 H   0  0  0  0  0  0  0  0  0  0  0  0
  134.7365  123.9302   62.7083 H   0  0  0  0  0  0  0  0  0  0  0  0
  133.8448  125.6457   63.6832 H   0  0  0  0  0  0  0  0  0  0  0  0
  133.4250  123.0810   64.9340 H   0  0  0  0  0  0  0  0  0  0  0  0
  1  2  1  0
  2  3  1  0
  2  4  1  0
  4  5  1  0
  4  6  1  0
  6  7  2  0
  7  8  1  0
  8  9  1  0
  8 10  1  0
 10 11  1  0
 11 12  1  0
 12 13  1  0
 13 14  1  0
 14 15  2  0
 15 16  1  0
 16 17  1  0
 17 18  1  0
 18 19  1  1
 15 20  1  0
 20 21  1  6
 20 22  1  0
 22 23  1  0
 23 24  1  0
 24 25  1  0
 24 26  1  0
 26 27  1  0
 27 28  1  1
 28 29  1  0
 29 30  1  0
 30 31  1  0
 18 10  1  0
 27 20  1  0
 18 13  1  0
 29 27  1  0
 30 14  1  0
  1 32  1  0
  1 33  1  0
  1 34  1  0
  2 35  1  0
  3 36  1  0
  3 37  1  0
  3 38  1  0
  4 39  1  1
  5 40  1  0
  5 41  1  0
  5 42  1  0
  6 43  1  0
  7 44  1  0
  8 45  1  6
  9 46  1  0
  9 47  1  0
  9 48  1  0
 10 49  1  6
 11 50  1  0
 11 51  1  0
 12 52  1  0
 12 53  1  0
 13 54  1  6
 16 55  1  0
 16 56  1  0
 17 57  1  0
 17 58  1  0
 19 59  1  0
 19 60  1  0
 19 61  1  0
 21 62  1  0
 21 63  1  0
 21 64  1  0
 22 65  1  0
 22 66  1  0
 23 67  1  0
 23 68  1  0
 24 69  1  1
 25 70  1  0
 26 71  1  0
 26 72  1  0
 29 73  1  6
 30 74  1  6
 31 75  1  0
M  END
>  <Binding energies>  (1) 
[-8.46]

>  <Ligand effiencies>  (1) 
[-0.2563636363636364]

>  <Interactions>  (1) 
["V-A:ILE:369:CG2:3237, V-A:ASP:366:CA:3210, V-A:GLY:454:CA:4049, V-B:GLU:543:C:9874, V-B:HIS:456:CD2:9039, V-A:GLU:543:C:4902, V-B:GLU:543:CB:9878, V-B:TYR:539:CE2:9848, V-A:TYR:484:CE2:4346, V-A:GLY:544:CA:4914, V-B:GLU:543:CG:9879, V-A:GLY:544:C:4912, V-A:HIS:456:CD2:4068, V-A:ASP:366:CG:3213, H-B:TYR:539:OH:9850, V-A:GLU:543:CD:4908, V-A:TYR:484:CZ:4347, V-A:ARG:545:CG:4922, V-B:GLU:543:CA:9876, V-B:HIS:456:CE1:9041, H-A:GLY:454:N:4050, V-A:HIS:456:CE1:4070, V-B:GLU:543:CD:9880, V-B:HIS:456:CG:9037, V-A:ASP:366:CB:3212, V-A:ARG:545:CZ:4926, H-A:ASP:366:O:3209, H-A:TYR:484:OH:4348"]

$$$$
ZINC653895465
     RDKit          3D

 64 67  0  0  0  0  0  0  0  0999 V2000
  133.8300  124.0030   61.9910 C   0  0  0  0  0  0  0  0  0  0  0  0
  132.8060  123.0420   62.6010 C   0  0  0  0  0  0  0  0  0  0  0  0
  131.7930  123.7910   63.2600 O   0  0  0  0  0  0  0  0  0  0  0  0
  132.0640  124.4810   64.3950 C   0  0  0  0  0  0  0  0  0  0  0  0
  133.1420  124.4330   64.9920 O   0  0  0  0  0  0  0  0  0  0  0  0
  130.9440  125.3500   64.8340 C   0  0  0  0  0  0  0  0  0  0  0  0
  130.2260  126.1790   63.8470 C   0  0  0  0  0  0  0  0  0  0  0  0
  130.5070  126.0800   62.3880 C   0  0  0  0  0  0  0  0  0  0  0  0
  131.4230  126.9680   61.8070 C   0  0  0  0  0  0  0  0  0  0  0  0
  131.7010  126.9090   60.4420 C   0  0  0  0  0  0  0  0  0  0  0  0
  131.0630  125.9630   59.6410 C   0  0  0  0  0  0  0  0  0  0  0  0
  130.1430  125.0810   60.2050 C   0  0  0  0  0  0  0  0  0  0  0  0
  129.8600  125.1360   61.5710 C   0  0  0  0  0  0  0  0  0  0  0  0
  128.7000  124.0270   62.2220 Cl  0  0  0  0  0  0  0  0  0  0  0  0
  129.2360  127.0120   64.2830 C   0  0  0  0  0  0  0  0  0  0  0  0
  128.5090  127.8020   63.3330 C   0  0  0  0  0  0  0  0  0  0  0  0
  127.9270  128.4260   62.5500 N   0  0  0  0  0  0  0  0  0  0  0  0
  128.8560  127.1310   65.6920 C   0  0  0  0  0  0  0  0  0  0  0  0
  127.9980  127.9530   66.0340 O   0  0  0  0  0  0  0  0  0  0  0  0
  129.5030  126.2650   66.5570 N   0  0  0  0  0  0  0  0  0  0  0  0
  129.1070  126.3540   67.8840 N   0  0  0  0  0  0  0  0  0  0  0  0
  129.8720  126.9290   68.7510 C   0  0  0  0  0  0  0  0  0  0  0  0
  131.2690  127.4990   68.4310 C   0  0  0  0  0  0  0  0  0  0  0  0
  129.4150  127.0730   70.1630 C   0  0  0  0  0  0  0  0  0  0  0  0
  128.0900  126.8120   70.5490 C   0  0  0  0  0  0  0  0  0  0  0  0
  127.6830  126.9410   71.8740 C   0  0  0  0  0  0  0  0  0  0  0  0
  128.5720  127.3410   72.8740 C   0  0  0  0  0  0  0  0  0  0  0  0
  128.0900  127.4250   74.1590 N   0  0  0  0  0  0  0  0  0  0  0  0
  126.7320  128.1150   74.5400 S   0  0  0  0  0  0  0  0  0  0  0  0
  125.7510  128.1060   73.4490 O   0  0  0  0  0  0  0  0  0  0  0  0
  126.2490  127.8130   75.8930 O   0  0  0  0  0  0  0  0  0  0  0  0
  127.3120  129.8130   74.6330 C   0  0  0  0  0  0  0  0  0  0  0  0
  128.6550  130.1040   74.3770 C   0  0  0  0  0  0  0  0  0  0  0  0
  129.0990  131.4230   74.4220 C   0  0  0  0  0  0  0  0  0  0  0  0
  128.1990  132.4470   74.7120 C   0  0  0  0  0  0  0  0  0  0  0  0
  128.7500  134.0820   74.7660 Cl  0  0  0  0  0  0  0  0  0  0  0  0
  126.8560  132.1630   74.9540 C   0  0  0  0  0  0  0  0  0  0  0  0
  126.4100  130.8440   74.9100 C   0  0  0  0  0  0  0  0  0  0  0  0
  129.8980  127.5960   72.4960 C   0  0  0  0  0  0  0  0  0  0  0  0
  130.3080  127.4690   71.1730 C   0  0  0  0  0  0  0  0  0  0  0  0
  130.5570  125.4380   66.1400 C   0  0  0  0  0  0  0  0  0  0  0  0
  131.1860  124.7580   67.1730 N   0  0  0  0  0  0  0  0  0  0  0  0
  134.3765  124.5159   62.7961 H   0  0  0  0  0  0  0  0  0  0  0  0
  134.5392  123.4369   61.3693 H   0  0  0  0  0  0  0  0  0  0  0  0
  133.3100  124.7467   61.3693 H   0  0  0  0  0  0  0  0  0  0  0  0
  132.3534  122.4332   61.8044 H   0  0  0  0  0  0  0  0  0  0  0  0
  133.3060  122.3818   63.3250 H   0  0  0  0  0  0  0  0  0  0  0  0
  131.9271  127.7183   62.4338 H   0  0  0  0  0  0  0  0  0  0  0  0
  132.4237  127.6088   59.9971 H   0  0  0  0  0  0  0  0  0  0  0  0
  131.2855  125.9128   58.5649 H   0  0  0  0  0  0  0  0  0  0  0  0
  129.6374  124.3379   59.5708 H   0  0  0  0  0  0  0  0  0  0  0  0
  131.8003  127.7158   69.3695 H   0  0  0  0  0  0  0  0  0  0  0  0
  131.8408  126.7623   67.8477 H   0  0  0  0  0  0  0  0  0  0  0  0
  131.1622  128.4255   67.8477 H   0  0  0  0  0  0  0  0  0  0  0  0
  127.3590  126.4993   69.7888 H   0  0  0  0  0  0  0  0  0  0  0  0
  126.6379  126.7230   72.1392 H   0  0  0  0  0  0  0  0  0  0  0  0
  129.3595  129.2929   74.1405 H   0  0  0  0  0  0  0  0  0  0  0  0
  130.1566  131.6561   74.2293 H   0  0  0  0  0  0  0  0  0  0  0  0
  126.1512  132.9771   75.1788 H   0  0  0  0  0  0  0  0  0  0  0  0
  125.3499  130.6144   75.0929 H   0  0  0  0  0  0  0  0  0  0  0  0
  130.6276  127.9022   73.2601 H   0  0  0  0  0  0  0  0  0  0  0  0
  131.3547  127.6834   70.9115 H   0  0  0  0  0  0  0  0  0  0  0  0
  130.7400  124.6420   68.0720 H   0  0  0  0  0  0  0  0  0  0  0  0
  132.1070  124.3620   67.0470 H   0  0  0  0  0  0  0  0  0  0  0  0
  1  2  1  0
  2  3  1  0
  3  4  1  0
  4  5  2  0
  4  6  1  0
  6  7  1  0
  7  8  1  0
  8  9  2  0
  9 10  1  0
 10 11  2  0
 11 12  1  0
 12 13  2  0
 13 14  1  0
  7 15  2  0
 15 16  1  0
 16 17  3  0
 15 18  1  0
 18 19  2  0
 18 20  1  0
 20 21  1  0
 21 22  2  0
 22 23  1  0
 22 24  1  0
 24 25  2  0
 25 26  1  0
 26 27  2  0
 27 28  1  0
 28 29  1  0
 29 30  2  0
 29 31  2  0
 29 32  1  0
 32 33  2  0
 33 34  1  0
 34 35  2  0
 35 36  1  0
 35 37  1  0
 37 38  2  0
 27 39  1  0
 39 40  2  0
 20 41  1  0
 41 42  1  0
 41  6  2  0
 13  8  1  0
 40 24  1  0
 38 32  1  0
  1 43  1  0
  1 44  1  0
  1 45  1  0
  2 46  1  0
  2 47  1  0
  9 48  1  0
 10 49  1  0
 11 50  1  0
 12 51  1  0
 23 52  1  0
 23 53  1  0
 23 54  1  0
 25 55  1  0
 26 56  1  0
 33 57  1  0
 34 58  1  0
 37 59  1  0
 38 60  1  0
 39 61  1  0
 40 62  1  0
 42 63  1  0
 42 64  1  0
M  CHG  1  28  -1
M  END
>  <Binding energies>  (1) 
[-9.2]

>  <Ligand effiencies>  (1) 
[-0.20909090909090908]

>  <Interactions>  (1) 
["V-B:GLU:543:C:9874, V-B:HIS:456:CD2:9039, V-B:GLU:543:CB:9878, H-B:LYS:547:NZ:9923, V-B:HIS:456:CB:9036, V-A:TYR:484:CE2:4346, V-B:GLU:543:CG:9879, V-A:ASP:366:CG:3213, V-A:HIS:456:CD2:4068, H-B:HIS:456:ND1:9038, V-B:LYS:547:CE:9922, V-A:GLU:543:CD:4908, V-A:TYR:484:CZ:4347, V-A:ARG:545:CG:4922, H-A:GLY:454:N:4050, V-B:HIS:456:CE1:9041, V-A:HIS:456:CE1:4070, V-A:ILE:369:CD1:3239, V-B:GLY:544:C:9884, V-A:GLU:543:CG:4907, V-B:GLU:543:CD:9880, V-B:HIS:456:CG:9037, V-A:ASP:366:CB:3212, V-A:LEU:475:CD2:4259, V-A:GLU:543:CB:4906, V-A:LYS:547:CE:4950, V-B:ASP:473:CB:9210, V-B:ASP:473:CG:9211, H-A:HIS:456:NE2:4071, H-A:TYR:484:OH:4348"]

$$$$
ZINC653895465-again1
     RDKit          3D

 65 68  0  0  0  0  0  0  0  0999 V2000
  133.3460  124.3510   58.8360 C   0  0  0  0  0  0  0  0  0  0  0  0
  133.2460  125.0800   60.1790 C   0  0  0  0  0  0  0  0  0  0  0  0
  131.9150  124.9850   60.6690 O   0  0  0  0  0  0  0  0  0  0  0  0
  131.6690  124.7650   61.9840 C   0  0  0  0  0  0  0  0  0  0  0  0
  132.3310  124.0020   62.6910 O   0  0  0  0  0  0  0  0  0  0  0  0
  130.5450  125.5770   62.5140 C   0  0  0  0  0  0  0  0  0  0  0  0
  129.4070  125.9180   61.6380 C   0  0  0  0  0  0  0  0  0  0  0  0
  129.2810  125.3580   60.2640 C   0  0  0  0  0  0  0  0  0  0  0  0
  129.6830  126.1350   59.1680 C   0  0  0  0  0  0  0  0  0  0  0  0
  129.5660  125.6430   57.8690 C   0  0  0  0  0  0  0  0  0  0  0  0
  129.0390  124.3720   57.6500 C   0  0  0  0  0  0  0  0  0  0  0  0
  128.6280  123.5940   58.7300 C   0  0  0  0  0  0  0  0  0  0  0  0
  128.7420  124.0800   60.0340 C   0  0  0  0  0  0  0  0  0  0  0  0
  128.2060  123.0790   61.3410 Cl  0  0  0  0  0  0  0  0  0  0  0  0
  128.4130  126.7130   62.1300 C   0  0  0  0  0  0  0  0  0  0  0  0
  127.2850  127.0260   61.3020 C   0  0  0  0  0  0  0  0  0  0  0  0
  126.3780  127.2620   60.6220 N   0  0  0  0  0  0  0  0  0  0  0  0
  128.4240  127.2530   63.4900 C   0  0  0  0  0  0  0  0  0  0  0  0
  127.5310  128.0260   63.8580 O   0  0  0  0  0  0  0  0  0  0  0  0
  129.4650  126.8200   64.2940 N   0  0  0  0  0  0  0  0  0  0  0  0
  129.4380  127.2870   65.6010 N   0  0  0  0  0  0  0  0  0  0  0  0
  129.5100  126.4440   66.5750 C   0  0  0  0  0  0  0  0  0  0  0  0
  129.5380  124.9150   66.4110 C   0  0  0  0  0  0  0  0  0  0  0  0
  129.4900  126.9330   67.9680 C   0  0  0  0  0  0  0  0  0  0  0  0
  130.6690  127.3260   68.6180 C   0  0  0  0  0  0  0  0  0  0  0  0
  130.6380  127.7970   69.9270 C   0  0  0  0  0  0  0  0  0  0  0  0
  129.4290  127.8870   70.6140 C   0  0  0  0  0  0  0  0  0  0  0  0
  129.4550  128.3790   71.9270 N   0  0  0  0  0  0  0  0  0  0  0  0
  129.0680  127.4030   73.3570 S   0  0  0  0  0  0  0  0  0  0  0  0
  128.4040  128.2990   74.3120 O   0  0  0  0  0  0  0  0  0  0  0  0
  128.3930  126.1930   72.8750 O   0  0  0  0  0  0  0  0  0  0  0  0
  130.6560  126.9330   74.0330 C   0  0  0  0  0  0  0  0  0  0  0  0
  130.7460  126.4960   75.3560 C   0  0  0  0  0  0  0  0  0  0  0  0
  131.9800  126.1110   75.8730 C   0  0  0  0  0  0  0  0  0  0  0  0
  133.1160  126.1590   75.0650 C   0  0  0  0  0  0  0  0  0  0  0  0
  134.6440  125.6800   75.7070 Cl  0  0  0  0  0  0  0  0  0  0  0  0
  133.0260  126.5870   73.7410 C   0  0  0  0  0  0  0  0  0  0  0  0
  131.7930  126.9720   73.2210 C   0  0  0  0  0  0  0  0  0  0  0  0
  128.2470  127.4900   69.9830 C   0  0  0  0  0  0  0  0  0  0  0  0
  128.2800  127.0170   68.6740 C   0  0  0  0  0  0  0  0  0  0  0  0
  130.5260  126.0500   63.7940 C   0  0  0  0  0  0  0  0  0  0  0  0
  131.5570  125.8510   64.7000 N   0  0  0  0  0  0  0  0  0  0  0  0
  133.4935  123.2754   59.0128 H   0  0  0  0  0  0  0  0  0  0  0  0
  132.4183  124.5049   58.2653 H   0  0  0  0  0  0  0  0  0  0  0  0
  134.1980  124.7491   58.2653 H   0  0  0  0  0  0  0  0  0  0  0  0
  133.9365  124.6179   60.8999 H   0  0  0  0  0  0  0  0  0  0  0  0
  133.5134  126.1384   60.0437 H   0  0  0  0  0  0  0  0  0  0  0  0
  130.0942  127.1415   59.3348 H   0  0  0  0  0  0  0  0  0  0  0  0
  129.8898  126.2584   57.0167 H   0  0  0  0  0  0  0  0  0  0  0  0
  128.9475  123.9832   56.6251 H   0  0  0  0  0  0  0  0  0  0  0  0
  128.2113  122.5912   58.5545 H   0  0  0  0  0  0  0  0  0  0  0  0
  129.5467  124.4399   67.4031 H   0  0  0  0  0  0  0  0  0  0  0  0
  128.6457  124.5893   65.8563 H   0  0  0  0  0  0  0  0  0  0  0  0
  130.4417  124.6222   65.8563 H   0  0  0  0  0  0  0  0  0  0  0  0
  131.6299  127.2611   68.0866 H   0  0  0  0  0  0  0  0  0  0  0  0
  131.5725  128.0998   70.4219 H   0  0  0  0  0  0  0  0  0  0  0  0
  129.6050  129.3680   72.0570 H   0  0  0  0  0  0  0  0  0  0  0  0
  129.8459  126.4561   75.9870 H   0  0  0  0  0  0  0  0  0  0  0  0
  132.0589  125.7699   76.9158 H   0  0  0  0  0  0  0  0  0  0  0  0
  133.9260  126.6204   73.1094 H   0  0  0  0  0  0  0  0  0  0  0  0
  131.7141  127.3054   72.1757 H   0  0  0  0  0  0  0  0  0  0  0  0
  127.2896  127.5513   70.5211 H   0  0  0  0  0  0  0  0  0  0  0  0
  127.3447  126.7048   68.1864 H   0  0  0  0  0  0  0  0  0  0  0  0
  132.2780  125.1650   64.5300 H   0  0  0  0  0  0  0  0  0  0  0  0
  131.6110  126.3910   65.5520 H   0  0  0  0  0  0  0  0  0  0  0  0
  1  2  1  0
  2  3  1  0
  3  4  1  0
  4  5  2  0
  4  6  1  0
  6  7  1  0
  7  8  1  0
  8  9  2  0
  9 10  1  0
 10 11  2  0
 11 12  1  0
 12 13  2  0
 13 14  1  0
  7 15  2  0
 15 16  1  0
 16 17  3  0
 15 18  1  0
 18 19  2  0
 18 20  1  0
 20 21  1  0
 21 22  2  0
 22 23  1  0
 22 24  1  0
 24 25  2  0
 25 26  1  0
 26 27  2  0
 27 28  1  0
 28 29  1  0
 29 30  2  0
 29 31  2  0
 29 32  1  0
 32 33  2  0
 33 34  1  0
 34 35  2  0
 35 36  1  0
 35 37  1  0
 37 38  2  0
 27 39  1  0
 39 40  2  0
 20 41  1  0
 41 42  1  0
 41  6  2  0
 13  8  1  0
 40 24  1  0
 38 32  1  0
  1 43  1  0
  1 44  1  0
  1 45  1  0
  2 46  1  0
  2 47  1  0
  9 48  1  0
 10 49  1  0
 11 50  1  0
 12 51  1  0
 23 52  1  0
 23 53  1  0
 23 54  1  0
 25 55  1  0
 26 56  1  0
 28 57  1  0
 33 58  1  0
 34 59  1  0
 37 60  1  0
 38 61  1  0
 39 62  1  0
 40 63  1  0
 42 64  1  0
 42 65  1  0
M  END
>  <Binding energies>  (1) 
[-8.04]

>  <Ligand effiencies>  (1) 
[-0.17866666666666664]

>  <Interactions>  (1) 
["V-A:ILE:369:CG2:3237, V-A:ASP:366:CA:3210, V-B:PRO:540:CA:9855, V-B:GLU:543:C:9874, H-A:GLU:543:OE2:4910, V-A:GLU:543:C:4902, V-B:HIS:456:CD2:9039, V-B:GLU:543:CB:9878, H-B:LYS:547:NZ:9923, V-B:TYR:539:CE2:9848, V-A:TYR:484:CE2:4346, V-B:GLU:543:CG:9879, V-A:GLY:544:C:4912, V-A:ASP:366:CG:3213, V-A:HIS:456:CD2:4068, V-A:VAL:457:C:4073, V-B:TYR:539:CZ:9849, V-A:LYS:547:CG:4948, V-A:HIS:456:CB:4065, V-A:GLU:543:CD:4908, V-B:GLU:543:CA:9876, V-B:HIS:456:CE1:9041, V-A:HIS:456:CE1:4070, H-B:HIS:456:NE2:9042, V-B:TYR:539:CD2:9846, V-B:GLU:543:CD:9880, V-A:ASP:366:CB:3212, V-A:HIS:456:C:4061, V-A:ARG:545:CZ:4926, H-A:GLU:543:OE1:4909, V-A:GLU:543:CB:4906, V-A:HIS:456:CG:4066, V-A:VAL:458:CG2:4087, V-B:TYR:539:CE1:9847, H-A:TYR:484:OH:4348, H-A:GLU:543:O:4903"]

$$$$
ZINC65416166
     RDKit          3D

 35 37  0  0  0  0  0  0  0  0999 V2000
  131.0120  125.7030   75.3250 O   0  0  0  0  0  0  0  0  0  0  0  0
  130.2330  125.4180   74.4000 C   0  0  0  0  0  0  0  0  0  0  0  0
  129.6170  126.1290   73.5240 N   0  0  0  0  0  0  0  0  0  0  0  0
  129.6740  127.4920   73.3960 C   0  0  0  0  0  0  0  0  0  0  0  0
  130.5220  128.2640   72.7450 N   0  0  0  0  0  0  0  0  0  0  0  0
  130.2380  129.6180   72.8600 N   0  0  0  0  0  0  0  0  0  0  0  0
  129.1780  129.8600   73.5960 C   0  0  0  0  0  0  0  0  0  0  0  0
  128.6680  131.2090   73.8680 C   0  0  0  0  0  0  0  0  0  0  0  0
  129.1340  132.3930   73.2660 C   0  0  0  0  0  0  0  0  0  0  0  0
  128.4780  133.5360   73.7050 C   0  0  0  0  0  0  0  0  0  0  0  0
  127.2590  133.1780   74.8790 S   0  0  0  0  0  0  0  0  0  0  0  0
  127.6420  131.4910   74.7710 C   0  0  0  0  0  0  0  0  0  0  0  0
  128.4400  128.4050   74.2140 S   0  0  0  0  0  0  0  0  0  0  0  0
  130.1590  124.0430   74.5060 N   0  0  0  0  0  0  0  0  0  0  0  0
  129.3240  123.2140   73.6450 C   0  0  0  0  0  0  0  0  0  0  0  0
  129.4120  121.7260   74.0180 C   0  0  0  0  0  0  0  0  0  0  0  0
  128.5260  120.8460   73.1410 C   0  0  0  0  0  0  0  0  0  0  0  0
  128.0600  121.3510   71.9210 C   0  0  0  0  0  0  0  0  0  0  0  0
  127.2460  120.5750   71.0980 C   0  0  0  0  0  0  0  0  0  0  0  0
  126.8880  119.2860   71.4880 C   0  0  0  0  0  0  0  0  0  0  0  0
  127.3440  118.7740   72.7010 C   0  0  0  0  0  0  0  0  0  0  0  0
  128.1610  119.5450   73.5310 C   0  0  0  0  0  0  0  0  0  0  0  0
  128.6980  118.8600   75.0270 Cl  0  0  0  0  0  0  0  0  0  0  0  0
  129.9411  132.4114   72.5188 H   0  0  0  0  0  0  0  0  0  0  0  0
  128.7070  134.5508   73.3477 H   0  0  0  0  0  0  0  0  0  0  0  0
  127.1259  130.7169   75.3579 H   0  0  0  0  0  0  0  0  0  0  0  0
  130.4570  123.6160   75.3700 H   0  0  0  0  0  0  0  0  0  0  0  0
  128.2787  123.5429   73.7406 H   0  0  0  0  0  0  0  0  0  0  0  0
  129.6837  123.3272   72.6117 H   0  0  0  0  0  0  0  0  0  0  0  0
  130.4556  121.3964   73.9069 H   0  0  0  0  0  0  0  0  0  0  0  0
  129.0610  121.6220   75.0553 H   0  0  0  0  0  0  0  0  0  0  0  0
  128.3387  122.3685   71.6096 H   0  0  0  0  0  0  0  0  0  0  0  0
  126.8861  120.9800   70.1407 H   0  0  0  0  0  0  0  0  0  0  0  0
  126.2457  118.6730   70.8386 H   0  0  0  0  0  0  0  0  0  0  0  0
  127.0589  117.7565   73.0068 H   0  0  0  0  0  0  0  0  0  0  0  0
  1  2  1  0
  2  3  2  0
  3  4  1  0
  4  5  2  0
  5  6  1  0
  6  7  2  0
  7  8  1  0
  8  9  1  0
  9 10  2  0
 10 11  1  0
 11 12  1  0
  7 13  1  0
  2 14  1  0
 14 15  1  0
 15 16  1  0
 16 17  1  0
 17 18  2  0
 18 19  1  0
 19 20  2  0
 20 21  1  0
 21 22  2  0
 22 23  1  0
 13  4  1  0
 22 17  1  0
 12  8  2  0
  9 24  1  0
 10 25  1  0
 12 26  1  0
 14 27  1  0
 15 28  1  0
 15 29  1  0
 16 30  1  0
 16 31  1  0
 18 32  1  0
 19 33  1  0
 20 34  1  0
 21 35  1  0
M  CHG  1   1  -1
M  END
>  <Binding energies>  (1) 
[-6.8]

>  <Ligand effiencies>  (1) 
[-0.2833333333333333]

>  <Interactions>  (1) 
["V-A:TYR:484:CD2:4344, V-B:HIS:456:CD2:9039, V-B:GLU:543:C:9874, V-B:ASP:473:CB:9210, H-B:LYS:547:NZ:9923, V-B:GLY:544:CA:9886, V-B:LYS:547:CE:9922, V-B:ASP:473:CG:9211, V-B:GLU:543:CA:9876, V-B:TYR:484:CB:9312, V-A:TYR:484:C:4337, H-A:ASP:473:OD1:4241, H-A:LYS:547:NZ:4951, V-B:VAL:542:CG1:9871, V-A:TYR:484:CB:4341, V-A:HIS:456:CD2:4068, V-B:VAL:542:C:9866"]

$$$$
ZINC65416166-again1
     RDKit          3D

 36 38  0  0  0  0  0  0  0  0999 V2000
  130.2800  124.3260   65.8330 O   0  0  0  0  0  0  0  0  0  0  0  0
  130.9410  125.2800   66.2500 C   0  0  0  0  0  0  0  0  0  0  0  0
  130.6340  125.9670   67.3620 N   0  0  0  0  0  0  0  0  0  0  0  0
  129.4760  125.7000   68.2140 C   0  0  0  0  0  0  0  0  0  0  0  0
  128.6740  126.9590   68.5970 C   0  0  0  0  0  0  0  0  0  0  0  0
  128.7150  127.2530   70.0930 C   0  0  0  0  0  0  0  0  0  0  0  0
  127.5800  126.9970   70.8700 C   0  0  0  0  0  0  0  0  0  0  0  0
  127.5890  127.2470   72.2420 C   0  0  0  0  0  0  0  0  0  0  0  0
  128.7340  127.7580   72.8490 C   0  0  0  0  0  0  0  0  0  0  0  0
  129.8710  128.0170   72.0850 C   0  0  0  0  0  0  0  0  0  0  0  0
  129.8690  127.7670   70.7110 C   0  0  0  0  0  0  0  0  0  0  0  0
  131.3080  128.1040   69.8110 Cl  0  0  0  0  0  0  0  0  0  0  0  0
  132.0500  125.7800   65.6650 N   0  0  0  0  0  0  0  0  0  0  0  0
  132.6310  125.3340   64.4870 C   0  0  0  0  0  0  0  0  0  0  0  0
  133.7100  124.5970   64.3390 N   0  0  0  0  0  0  0  0  0  0  0  0
  133.9950  124.3370   63.0050 N   0  0  0  0  0  0  0  0  0  0  0  0
  133.1310  124.8790   62.1750 C   0  0  0  0  0  0  0  0  0  0  0  0
  133.2130  124.7420   60.7160 C   0  0  0  0  0  0  0  0  0  0  0  0
  132.3430  125.3750   59.8080 C   0  0  0  0  0  0  0  0  0  0  0  0
  132.6220  125.0930   58.4780 C   0  0  0  0  0  0  0  0  0  0  0  0
  133.9760  124.0290   58.3100 S   0  0  0  0  0  0  0  0  0  0  0  0
  134.1560  123.9720   60.0320 C   0  0  0  0  0  0  0  0  0  0  0  0
  131.8720  125.7750   62.9900 S   0  0  0  0  0  0  0  0  0  0  0  0
  131.2240  126.7380   67.6380 H   0  0  0  0  0  0  0  0  0  0  0  0
  128.8047  125.0121   67.6791 H   0  0  0  0  0  0  0  0  0  0  0  0
  129.8629  125.2727   69.1509 H   0  0  0  0  0  0  0  0  0  0  0  0
  129.0940  127.8209   68.0577 H   0  0  0  0  0  0  0  0  0  0  0  0
  127.6239  126.7789   68.3234 H   0  0  0  0  0  0  0  0  0  0  0  0
  126.6730  126.5952   70.3948 H   0  0  0  0  0  0  0  0  0  0  0  0
  126.6922  127.0407   72.8447 H   0  0  0  0  0  0  0  0  0  0  0  0
  128.7410  127.9571   73.9308 H   0  0  0  0  0  0  0  0  0  0  0  0
  130.7740  128.4202   72.5667 H   0  0  0  0  0  0  0  0  0  0  0  0
  132.5000  126.5660   66.1120 H   0  0  0  0  0  0  0  0  0  0  0  0
  131.5189  126.0319   60.1233 H   0  0  0  0  0  0  0  0  0  0  0  0
  132.0497  125.4982   57.6305 H   0  0  0  0  0  0  0  0  0  0  0  0
  134.9375  123.3859   60.5377 H   0  0  0  0  0  0  0  0  0  0  0  0
  1  2  2  0
  2  3  1  0
  3  4  1  0
  4  5  1  0
  5  6  1  0
  6  7  2  0
  7  8  1  0
  8  9  2  0
  9 10  1  0
 10 11  2  0
 11 12  1  0
  2 13  1  0
 13 14  1  0
 14 15  2  0
 15 16  1  0
 16 17  2  0
 17 18  1  0
 18 19  1  0
 19 20  2  0
 20 21  1  0
 21 22  1  0
 17 23  1  0
 11  6  1  0
 23 14  1  0
 22 18  2  0
  3 24  1  0
  4 25  1  0
  4 26  1  0
  5 27  1  0
  5 28  1  0
  7 29  1  0
  8 30  1  0
  9 31  1  0
 10 32  1  0
 13 33  1  0
 19 34  1  0
 20 35  1  0
 22 36  1  0
M  END
>  <Binding energies>  (1) 
[-8.42]

>  <Ligand effiencies>  (1) 
[-0.3368]

>  <Interactions>  (1) 
["V-A:ILE:369:CG2:3237, V-A:ASP:366:CA:3210, V-A:ARG:545:CA:4919, V-A:GLU:543:CA:4904, V-B:GLU:543:C:9874, H-A:GLU:543:OE2:4910, V-A:ILE:369:CB:3236, V-B:HIS:456:CD2:9039, V-A:GLU:543:C:4902, V-B:GLU:543:CB:9878, V-B:TYR:539:CE2:9848, V-B:GLU:543:CG:9879, V-A:GLY:544:C:4912, V-A:ASP:366:CG:3213, V-B:TYR:539:CZ:9849, V-A:TYR:484:CZ:4347, V-A:GLU:543:CD:4908, V-B:GLU:543:CA:9876, H-A:GLY:454:N:4050, V-B:HIS:456:CE1:9041, V-A:ARG:545:CG:4922, V-A:HIS:456:CE1:4070, V-A:ILE:369:CD1:3239, V-A:ASP:366:C:3208, V-B:GLY:544:C:9884, V-B:HIS:456:CG:9037, V-A:ASP:366:CB:3212, H-A:ARG:545:NH2:4928, V-A:ARG:545:CZ:4926, H-A:GLU:543:OE1:4909, V-A:GLU:543:CB:4906, H-A:ARG:545:NE:4924, H-A:TYR:484:OH:4348"]

$$$$
ZINC6569638
     RDKit          3D

 53 57  0  0  0  0  0  0  0  0999 V2000
  127.6160  122.2610   57.2270 C   0  0  0  0  0  0  0  0  0  0  0  0
  127.0840  123.5720   57.8690 C   0  0  0  0  0  0  0  0  0  0  0  0
  125.8170  124.0940   57.1610 C   0  0  0  0  0  0  0  0  0  0  0  0
  126.7250  123.3330   59.3610 C   0  0  0  0  0  0  0  0  0  0  0  0
  127.9380  123.0420   60.2670 C   0  0  0  0  0  0  0  0  0  0  0  0
  127.7810  122.4890   61.3550 O   0  0  0  0  0  0  0  0  0  0  0  0
  129.2490  123.5770   59.8330 C   0  0  0  0  0  0  0  0  0  0  0  0
  129.3580  124.3550   58.7150 C   0  0  0  0  0  0  0  0  0  0  0  0
  128.1650  124.6920   57.8150 C   0  0  0  0  0  0  0  0  0  0  0  0
  130.5790  124.8280   58.2500 N   0  0  0  0  0  0  0  0  0  0  0  0
  131.7460  124.4760   58.8940 C   0  0  0  0  0  0  0  0  0  0  0  0
  132.9860  124.6860   58.5350 N   0  0  0  0  0  0  0  0  0  0  0  0
  133.7490  123.9640   59.4490 N   0  0  0  0  0  0  0  0  0  0  0  0
  132.9270  123.3120   60.3530 N   0  0  0  0  0  0  0  0  0  0  0  0
  131.6820  123.6500   59.9960 N   0  0  0  0  0  0  0  0  0  0  0  0
  130.4700  123.2860   60.7410 C   0  0  1  0  0  0  0  0  0  0  0  0
  130.4110  124.0070   62.0970 C   0  0  0  0  0  0  0  0  0  0  0  0
  129.2210  124.5760   62.5450 C   0  0  0  0  0  0  0  0  0  0  0  0
  129.1670  125.2110   63.7800 C   0  0  0  0  0  0  0  0  0  0  0  0
  130.2920  125.2900   64.6200 C   0  0  0  0  0  0  0  0  0  0  0  0
  130.1420  125.8490   65.9090 N   0  0  0  0  0  0  0  0  0  0  0  0
  129.1770  126.8980   66.2680 C   0  0  0  0  0  0  0  0  0  0  0  0
  129.2030  127.0640   67.7790 C   0  0  0  0  0  0  0  0  0  0  0  0
  129.4440  125.6400   68.2200 C   0  0  0  0  0  0  0  0  0  0  0  0
  130.4290  125.1350   67.1640 C   0  0  0  0  0  0  0  0  0  0  0  0
  131.5200  124.7710   64.1350 C   0  0  0  0  0  0  0  0  0  0  0  0
  132.8120  124.9700   64.8310 N   0  0  0  0  0  0  0  0  0  0  0  0
  132.8180  125.5900   65.8890 O   0  0  0  0  0  0  0  0  0  0  0  0
  133.8340  124.5800   64.2730 O   0  0  0  0  0  0  0  0  0  0  0  0
  131.5520  124.1200   62.8930 C   0  0  0  0  0  0  0  0  0  0  0  0
  127.9027  121.5545   58.0199 H   0  0  0  0  0  0  0  0  0  0  0  0
  126.8288  121.8124   56.6033 H   0  0  0  0  0  0  0  0  0  0  0  0
  128.4932  122.4879   56.6033 H   0  0  0  0  0  0  0  0  0  0  0  0
  125.0757  124.3994   57.9141 H   0  0  0  0  0  0  0  0  0  0  0  0
  126.0780  124.9578   56.5320 H   0  0  0  0  0  0  0  0  0  0  0  0
  125.3937  123.2970   56.5320 H   0  0  0  0  0  0  0  0  0  0  0  0
  126.2186  124.2322   59.7417 H   0  0  0  0  0  0  0  0  0  0  0  0
  126.0870  122.4375   59.3918 H   0  0  0  0  0  0  0  0  0  0  0  0
  127.7177  125.6388   58.1519 H   0  0  0  0  0  0  0  0  0  0  0  0
  128.5242  124.7794   56.7790 H   0  0  0  0  0  0  0  0  0  0  0  0
  130.6140  125.2840   57.3500 H   0  0  0  0  0  0  0  0  0  0  0  0
  130.4714  122.2148   60.9910 H   0  0  0  0  0  0  0  0  0  0  0  0
  128.3190  124.5224   61.9177 H   0  0  0  0  0  0  0  0  0  0  0  0
  128.2199  125.6635   64.1089 H   0  0  0  0  0  0  0  0  0  0  0  0
  129.4577  127.8449   65.7837 H   0  0  0  0  0  0  0  0  0  0  0  0
  128.1674  126.6194   65.9318 H   0  0  0  0  0  0  0  0  0  0  0  0
  130.0185  127.7296   68.0985 H   0  0  0  0  0  0  0  0  0  0  0  0
  128.2965  127.5226   68.2009 H   0  0  0  0  0  0  0  0  0  0  0  0
  129.8858  125.6039   69.2267 H   0  0  0  0  0  0  0  0  0  0  0  0
  128.5256  125.0386   68.2896 H   0  0  0  0  0  0  0  0  0  0  0  0
  131.4608  125.3407   67.4849 H   0  0  0  0  0  0  0  0  0  0  0  0
  130.3215  124.0493   67.0237 H   0  0  0  0  0  0  0  0  0  0  0  0
  132.4992  123.6881   62.5377 H   0  0  0  0  0  0  0  0  0  0  0  0
  1  2  1  0
  2  3  1  0
  2  4  1  0
  4  5  1  0
  5  6  2  0
  5  7  1  0
  7  8  2  0
  8  9  1  0
  8 10  1  0
 10 11  1  0
 11 12  2  0
 12 13  1  0
 13 14  2  0
 14 15  1  0
 15 16  1  0
 16 17  1  0
 17 18  2  0
 18 19  1  0
 19 20  2  0
 20 21  1  0
 21 22  1  0
 22 23  1  0
 23 24  1  0
 24 25  1  0
 20 26  1  0
 26 27  1  0
 27 28  2  0
 27 29  1  0
 26 30  2  0
  9  2  1  0
 15 11  1  0
 30 17  1  0
 16  7  1  0
 25 21  1  0
  1 31  1  0
  1 32  1  0
  1 33  1  0
  3 34  1  0
  3 35  1  0
  3 36  1  0
  4 37  1  0
  4 38  1  0
  9 39  1  0
  9 40  1  0
 10 41  1  0
 16 42  1  1
 18 43  1  0
 19 44  1  0
 22 45  1  0
 22 46  1  0
 23 47  1  0
 23 48  1  0
 24 49  1  0
 24 50  1  0
 25 51  1  0
 25 52  1  0
 30 53  1  0
M  CHG  2  27   1  29  -1
M  END
>  <Binding energies>  (1) 
[-9.17]

>  <Ligand effiencies>  (1) 
[-0.2958064516129032]

>  <Interactions>  (1) 
["V-B:TYR:539:CA:9841, V-B:PRO:540:CA:9855, V-B:GLU:543:C:9874, V-B:GLU:543:CB:9878, H-A:TYR:531:OH:4795, V-B:TYR:539:CE2:9848, V-A:TYR:484:CE2:4346, V-B:GLU:543:CG:9879, V-B:TYR:539:C:9839, V-B:TYR:539:CZ:9849, H-B:TYR:539:OH:9850, H-B:ALA:541:N:9863, V-A:GLU:543:CD:4908, V-B:PRO:540:CB:9857, V-A:TYR:484:CZ:4347, V-B:GLU:543:CA:9876, H-A:GLY:454:N:4050, V-B:PRO:540:N:9856, V-A:HIS:456:CE1:4070, V-B:TYR:539:CD2:9846, V-B:PRO:540:CD:9859, V-B:GLU:543:CD:9880, H-A:ARG:545:NH2:4928, V-A:ARG:545:CZ:4926, V-B:TYR:539:CG:9844, V-B:TYR:539:CD1:9845, H-A:ARG:545:NE:4924, V-B:MET:535:CE:9807, V-B:TYR:539:CE1:9847, H-A:TYR:484:OH:4348"]

$$$$
ZINC6569638-again1
     RDKit          3D

 52 56  0  0  0  0  0  0  0  0999 V2000
  127.3120  123.5830   57.4830 C   0  0  0  0  0  0  0  0  0  0  0  0
  127.9570  123.5850   58.8860 C   0  0  0  0  0  0  0  0  0  0  0  0
  127.0430  124.1920   59.9740 C   0  0  0  0  0  0  0  0  0  0  0  0
  129.2290  124.4430   58.8180 C   0  0  0  0  0  0  0  0  0  0  0  0
  130.3440  124.1830   59.5360 C   0  0  0  0  0  0  0  0  0  0  0  0
  131.4510  125.0020   59.3670 N   0  0  0  0  0  0  0  0  0  0  0  0
  132.6350  124.6720   60.0010 C   0  0  0  0  0  0  0  0  0  0  0  0
  133.8530  125.0700   59.7400 N   0  0  0  0  0  0  0  0  0  0  0  0
  134.6660  124.2880   60.5560 N   0  0  0  0  0  0  0  0  0  0  0  0
  133.9000  123.4120   61.3070 N   0  0  0  0  0  0  0  0  0  0  0  0
  132.6350  123.6660   60.9470 N   0  0  0  0  0  0  0  0  0  0  0  0
  131.4500  123.0970   61.6000 C   0  0  1  0  0  0  0  0  0  0  0  0
  131.0650  123.8820   62.8620 C   0  0  0  0  0  0  0  0  0  0  0  0
  129.7370  124.1340   63.2050 C   0  0  0  0  0  0  0  0  0  0  0  0
  129.4280  124.8620   64.3480 C   0  0  0  0  0  0  0  0  0  0  0  0
  130.4280  125.3800   65.1880 C   0  0  0  0  0  0  0  0  0  0  0  0
  130.0470  126.1950   66.2770 N   0  0  0  0  0  0  0  0  0  0  0  0
  130.0350  125.7710   67.6850 C   0  0  0  0  0  0  0  0  0  0  0  0
  129.3830  126.8740   68.5050 C   0  0  0  0  0  0  0  0  0  0  0  0
  128.3410  127.3750   67.5310 C   0  0  0  0  0  0  0  0  0  0  0  0
  129.0840  127.3050   66.1960 C   0  0  0  0  0  0  0  0  0  0  0  0
  131.7780  125.0770   64.8750 C   0  0  0  0  0  0  0  0  0  0  0  0
  132.9080  125.3930   65.7780 N   0  0  0  0  0  0  0  0  0  0  0  0
  132.6600  125.8390   66.8930 O   0  0  0  0  0  0  0  0  0  0  0  0
  134.0430  125.1140   65.4020 O   0  0  0  0  0  0  0  0  0  0  0  0
  132.0710  124.3570   63.7070 C   0  0  0  0  0  0  0  0  0  0  0  0
  130.3730  123.0570   60.4890 C   0  0  0  0  0  0  0  0  0  0  0  0
  129.4210  122.0960   60.3690 C   0  0  0  0  0  0  0  0  0  0  0  0
  129.3090  121.0700   61.1440 O   0  0  0  0  0  0  0  0  0  0  0  0
  128.3530  122.1140   59.2640 C   0  0  0  0  0  0  0  0  0  0  0  0
  126.2166  123.5796   57.5831 H   0  0  0  0  0  0  0  0  0  0  0  0
  127.6272  124.4821   56.9333 H   0  0  0  0  0  0  0  0  0  0  0  0
  127.6328  122.6858   56.9333 H   0  0  0  0  0  0  0  0  0  0  0  0
  127.4344  123.9320   60.9686 H   0  0  0  0  0  0  0  0  0  0  0  0
  127.0188  125.2862   59.8640 H   0  0  0  0  0  0  0  0  0  0  0  0
  126.0251  123.7899   59.8640 H   0  0  0  0  0  0  0  0  0  0  0  0
  129.2327  125.3161   58.1489 H   0  0  0  0  0  0  0  0  0  0  0  0
  131.4680  125.6070   58.5590 H   0  0  0  0  0  0  0  0  0  0  0  0
  131.6116  122.0834   61.9955 H   0  0  0  0  0  0  0  0  0  0  0  0
  128.9270  123.7533   62.5654 H   0  0  0  0  0  0  0  0  0  0  0  0
  128.3721  125.0373   64.6017 H   0  0  0  0  0  0  0  0  0  0  0  0
  129.4596  124.8393   67.7890 H   0  0  0  0  0  0  0  0  0  0  0  0
  131.0612  125.5900   68.0373 H   0  0  0  0  0  0  0  0  0  0  0  0
  128.9223  126.4779   69.4220 H   0  0  0  0  0  0  0  0  0  0  0  0
  130.0793  127.6465   68.8634 H   0  0  0  0  0  0  0  0  0  0  0  0
  127.4534  126.7252   67.5277 H   0  0  0  0  0  0  0  0  0  0  0  0
  127.9593  128.3783   67.7711 H   0  0  0  0  0  0  0  0  0  0  0  0
  128.3702  127.1227   65.3792 H   0  0  0  0  0  0  0  0  0  0  0  0
  129.6049  128.2528   65.9951 H   0  0  0  0  0  0  0  0  0  0  0  0
  133.1223  124.1610   63.4494 H   0  0  0  0  0  0  0  0  0  0  0  0
  128.7505  121.6082   58.3717 H   0  0  0  0  0  0  0  0  0  0  0  0
  127.4570  121.5950   59.6351 H   0  0  0  0  0  0  0  0  0  0  0  0
  1  2  1  0
  2  3  1  0
  2  4  1  0
  4  5  2  0
  5  6  1  0
  6  7  1  0
  7  8  2  0
  8  9  1  0
  9 10  2  0
 10 11  1  0
 11 12  1  0
 12 13  1  0
 13 14  2  0
 14 15  1  0
 15 16  2  0
 16 17  1  0
 17 18  1  0
 18 19  1  0
 19 20  1  0
 20 21  1  0
 16 22  1  0
 22 23  1  0
 23 24  2  0
 23 25  1  0
 22 26  2  0
 12 27  1  0
 27 28  2  0
 28 29  1  0
 28 30  1  0
 30  2  1  0
 27  5  1  0
 11  7  1  0
 26 13  1  0
 21 17  1  0
  1 31  1  0
  1 32  1  0
  1 33  1  0
  3 34  1  0
  3 35  1  0
  3 36  1  0
  4 37  1  0
  6 38  1  0
 12 39  1  1
 14 40  1  0
 15 41  1  0
 18 42  1  0
 18 43  1  0
 19 44  1  0
 19 45  1  0
 20 46  1  0
 20 47  1  0
 21 48  1  0
 21 49  1  0
 26 50  1  0
 30 51  1  0
 30 52  1  0
M  CHG  3  23   1  25  -1  29  -1
M  END
>  <Binding energies>  (1) 
[-7.55]

>  <Ligand effiencies>  (1) 
[-0.24354838709677418]

>  <Interactions>  (1) 
["V-B:PRO:540:CA:9855, V-B:GLU:543:CB:9878, H-A:ARG:545:NH1:4927, V-B:TYR:539:CE2:9848, V-B:GLU:543:CG:9879, V-B:TYR:539:C:9839, V-A:ASP:366:CG:3213, V-B:TYR:539:CZ:9849, H-B:TYR:539:OH:9850, H-B:ALA:541:N:9863, V-A:GLU:543:CD:4908, V-A:ARG:545:CG:4922, H-A:GLY:454:N:4050, V-B:HIS:456:CE1:9041, V-B:PRO:540:N:9856, V-A:HIS:456:CE1:4070, V-B:TYR:539:CD2:9846, V-B:GLU:543:CD:9880, V-A:ARG:545:CD:4923, H-A:ARG:545:NH2:4928, V-A:ARG:545:CZ:4926, V-B:TYR:539:CG:9844, H-A:ARG:545:NE:4924, H-A:TYR:484:OH:4348"]

$$$$
ZINC66099216
     RDKit          3D

 36 39  0  0  0  0  0  0  0  0999 V2000
  134.7270  124.3060   59.4760 C   0  0  0  0  0  0  0  0  0  0  0  0
  133.7040  124.6840   60.5320 C   0  0  0  0  0  0  0  0  0  0  0  0
  133.8500  124.2560   61.8430 C   0  0  0  0  0  0  0  0  0  0  0  0
  132.9220  124.5920   62.8260 C   0  0  0  0  0  0  0  0  0  0  0  0
  133.2550  124.2100   64.0990 O   0  0  0  0  0  0  0  0  0  0  0  0
  131.7400  125.3620   62.5020 C   0  0  0  0  0  0  0  0  0  0  0  0
  130.6530  125.6970   63.4160 C   0  0  0  0  0  0  0  0  0  0  0  0
  129.6920  126.6630   63.0200 C   0  0  0  0  0  0  0  0  0  0  0  0
  129.6900  127.1510   61.7140 C   0  0  0  0  0  0  0  0  0  0  0  0
  130.6200  126.7300   60.7850 C   0  0  0  0  0  0  0  0  0  0  0  0
  131.6600  125.8580   61.1560 C   0  0  0  0  0  0  0  0  0  0  0  0
  132.6290  125.4910   60.1910 C   0  0  0  0  0  0  0  0  0  0  0  0
  128.6750  127.2150   63.9870 C   0  0  0  0  0  0  0  0  0  0  0  0
  127.7450  127.9300   63.6070 O   0  0  0  0  0  0  0  0  0  0  0  0
  128.9810  126.9910   65.4540 C   0  0  0  0  0  0  0  0  0  0  0  0
  128.4270  127.8120   66.4640 C   0  0  0  0  0  0  0  0  0  0  0  0
  127.6000  128.8740   66.1930 O   0  0  0  0  0  0  0  0  0  0  0  0
  128.7140  127.5740   67.8050 C   0  0  0  0  0  0  0  0  0  0  0  0
  129.5530  126.5320   68.1710 C   0  0  0  0  0  0  0  0  0  0  0  0
  130.1240  125.7140   67.2000 C   0  0  0  0  0  0  0  0  0  0  0  0
  130.9610  124.7180   67.6440 O   0  0  0  0  0  0  0  0  0  0  0  0
  129.8510  125.9310   65.8310 C   0  0  0  0  0  0  0  0  0  0  0  0
  130.4420  125.0470   64.7630 C   0  0  0  0  0  0  0  0  0  0  0  0
  130.7460  123.8740   64.9840 O   0  0  0  0  0  0  0  0  0  0  0  0
  135.6508  123.9647   59.9660 H   0  0  0  0  0  0  0  0  0  0  0  0
  134.3244  123.4972   58.8484 H   0  0  0  0  0  0  0  0  0  0  0  0
  134.9470  125.1822   58.8484 H   0  0  0  0  0  0  0  0  0  0  0  0
  134.7184  123.6371   62.1128 H   0  0  0  0  0  0  0  0  0  0  0  0
  132.5300  123.7860   64.5640 H   0  0  0  0  0  0  0  0  0  0  0  0
  128.9298  127.8885   61.4171 H   0  0  0  0  0  0  0  0  0  0  0  0
  130.5474  127.0796   59.7446 H   0  0  0  0  0  0  0  0  0  0  0  0
  132.5277  125.8510   59.1565 H   0  0  0  0  0  0  0  0  0  0  0  0
  126.9660  128.6860   65.4970 H   0  0  0  0  0  0  0  0  0  0  0  0
  128.2721  128.2171   68.5803 H   0  0  0  0  0  0  0  0  0  0  0  0
  129.7684  126.3509   69.2344 H   0  0  0  0  0  0  0  0  0  0  0  0
  131.5000  124.3420   66.9440 H   0  0  0  0  0  0  0  0  0  0  0  0
  1  2  1  0
  2  3  2  0
  3  4  1  0
  4  5  1  0
  4  6  2  0
  6  7  1  0
  7  8  2  0
  8  9  1  0
  9 10  2  0
 10 11  1  0
 11 12  2  0
  8 13  1  0
 13 14  2  0
 13 15  1  0
 15 16  2  0
 16 17  1  0
 16 18  1  0
 18 19  2  0
 19 20  1  0
 20 21  1  0
 20 22  2  0
 22 23  1  0
 23 24  2  0
 12  2  1  0
 22 15  1  0
 11  6  1  0
 23  7  1  0
  1 25  1  0
  1 26  1  0
  1 27  1  0
  3 28  1  0
  5 29  1  0
  9 30  1  0
 10 31  1  0
 12 32  1  0
 17 33  1  0
 18 34  1  0
 19 35  1  0
 21 36  1  0
M  END
>  <Binding energies>  (1) 
[-5.54]

>  <Ligand effiencies>  (1) 
[-0.2051851851851852]

>  <Interactions>  (1) 
["V-A:ILE:369:CG2:3237, V-A:ASP:366:CA:3210, V-A:ILE:369:CB:3236, V-B:GLU:543:CB:9878, V-B:GLU:543:CG:9879, V-A:ASP:366:CG:3213, V-A:GLU:543:CD:4908, H-B:TYR:484:OH:9319, V-B:HIS:456:CE1:9041, H-A:GLY:454:N:4050, V-A:ILE:369:CD1:3239, V-A:HIS:456:CE1:4070, V-A:ASP:366:C:3208, V-B:GLU:543:CD:9880, V-A:ILE:369:CG1:3238, V-A:ASP:366:CB:3212, V-A:GLU:543:CB:4906, H-B:GLU:543:OE2:9882, H-A:HIS:456:ND1:4067, H-A:TYR:484:OH:4348"]

$$$$
ZINC6627073
     RDKit          3D

 48 51  0  0  0  0  0  0  0  0999 V2000
  129.4650  126.9080   73.4820 C   0  0  0  0  0  0  0  0  0  0  0  0
  128.7180  125.8660   72.8740 O   0  0  0  0  0  0  0  0  0  0  0  0
  127.6580  126.3330   72.0520 C   0  0  0  0  0  0  0  0  0  0  0  0
  128.0600  127.6490   71.3600 C   0  0  0  0  0  0  0  0  0  0  0  0
  128.7780  127.4630   70.0750 N   0  0  0  0  0  0  0  0  0  0  0  0
  128.1030  127.1150   68.9470 C   0  0  0  0  0  0  0  0  0  0  0  0
  126.8820  126.9410   68.8860 O   0  0  0  0  0  0  0  0  0  0  0  0
  129.0250  126.9690   67.8430 C   0  0  0  0  0  0  0  0  0  0  0  0
  128.6040  126.5930   66.6140 C   0  0  0  0  0  0  0  0  0  0  0  0
  129.4800  126.3720   65.4620 C   0  0  0  0  0  0  0  0  0  0  0  0
  129.2740  126.9560   64.2430 C   0  0  0  0  0  0  0  0  0  0  0  0
  128.2070  127.7980   63.9890 N   0  0  0  0  0  0  0  0  0  0  0  0
  127.6470  128.0130   62.6580 C   0  0  0  0  0  0  0  0  0  0  0  0
  126.4160  128.8800   62.9200 C   0  0  0  0  0  0  0  0  0  0  0  0
  126.7110  129.6020   64.2330 C   0  0  0  0  0  0  0  0  0  0  0  0
  128.0730  129.0710   64.6850 C   0  0  0  0  0  0  0  0  0  0  0  0
  130.0900  126.7360   63.1680 N   0  0  0  0  0  0  0  0  0  0  0  0
  131.1060  125.9570   63.2820 C   0  0  0  0  0  0  0  0  0  0  0  0
  131.9940  125.7020   62.1590 C   0  0  0  0  0  0  0  0  0  0  0  0
  133.0690  124.8870   62.2640 C   0  0  0  0  0  0  0  0  0  0  0  0
  133.3570  124.2380   63.5330 C   0  0  0  0  0  0  0  0  0  0  0  0
  132.5190  124.4870   64.5630 C   0  0  0  0  0  0  0  0  0  0  0  0
  131.4010  125.3190   64.5020 N   0  0  0  0  0  0  0  0  0  0  0  0
  130.6330  125.4820   65.6410 C   0  0  0  0  0  0  0  0  0  0  0  0
  130.8640  124.9420   66.7280 O   0  0  0  0  0  0  0  0  0  0  0  0
  130.6640  127.3410   68.3730 S   0  0  0  0  0  0  0  0  0  0  0  0
  130.1340  127.6350   70.0040 C   0  0  0  0  0  0  0  0  0  0  0  0
  131.2520  128.0570   71.1700 S   0  0  0  0  0  0  0  0  0  0  0  0
  129.3991  126.8161   74.5762 H   0  0  0  0  0  0  0  0  0  0  0  0
  130.5174  126.8345   73.1706 H   0  0  0  0  0  0  0  0  0  0  0  0
  129.0575  127.8811   73.1706 H   0  0  0  0  0  0  0  0  0  0  0  0
  127.4305  125.5755   71.2875 H   0  0  0  0  0  0  0  0  0  0  0  0
  126.7718  126.5135   72.6781 H   0  0  0  0  0  0  0  0  0  0  0  0
  127.1464  128.2295   71.1643 H   0  0  0  0  0  0  0  0  0  0  0  0
  128.7541  128.1654   72.0393 H   0  0  0  0  0  0  0  0  0  0  0  0
  127.5240  126.4421   66.4693 H   0  0  0  0  0  0  0  0  0  0  0  0
  128.3652  128.5367   62.0100 H   0  0  0  0  0  0  0  0  0  0  0  0
  127.4048  127.0733   62.1400 H   0  0  0  0  0  0  0  0  0  0  0  0
  126.2729  129.6043   62.1045 H   0  0  0  0  0  0  0  0  0  0  0  0
  125.4946  128.2818   62.9762 H   0  0  0  0  0  0  0  0  0  0  0  0
  126.7543  130.6896   64.0740 H   0  0  0  0  0  0  0  0  0  0  0  0
  125.9292  129.4226   64.9857 H   0  0  0  0  0  0  0  0  0  0  0  0
  128.8778  129.7620   64.3936 H   0  0  0  0  0  0  0  0  0  0  0  0
  128.1430  128.9642   65.7776 H   0  0  0  0  0  0  0  0  0  0  0  0
  131.7853  126.1869   61.1939 H   0  0  0  0  0  0  0  0  0  0  0  0
  133.7211  124.7164   61.3947 H   0  0  0  0  0  0  0  0  0  0  0  0
  134.2234  123.5704   63.6497 H   0  0  0  0  0  0  0  0  0  0  0  0
  132.7348  123.9960   65.5234 H   0  0  0  0  0  0  0  0  0  0  0  0
  1  2  1  0
  2  3  1  0
  3  4  1  0
  4  5  1  0
  5  6  1  0
  6  7  2  0
  6  8  1  0
  8  9  2  0
  9 10  1  0
 10 11  2  0
 11 12  1  0
 12 13  1  0
 13 14  1  0
 14 15  1  0
 15 16  1  0
 11 17  1  0
 17 18  2  0
 18 19  1  0
 19 20  2  0
 20 21  1  0
 21 22  2  0
 22 23  1  0
 23 24  1  0
 24 25  2  0
  8 26  1  0
 26 27  1  0
 27 28  2  0
 27  5  1  0
 24 10  1  0
 16 12  1  0
 23 18  1  0
  1 29  1  0
  1 30  1  0
  1 31  1  0
  3 32  1  0
  3 33  1  0
  4 34  1  0
  4 35  1  0
  9 36  1  0
 13 37  1  0
 13 38  1  0
 14 39  1  0
 14 40  1  0
 15 41  1  0
 15 42  1  0
 16 43  1  0
 16 44  1  0
 19 45  1  0
 20 46  1  0
 21 47  1  0
 22 48  1  0
M  END
>  <Binding energies>  (1) 
[-6.46]

>  <Ligand effiencies>  (1) 
[-0.2307142857142857]

>  <Interactions>  (1) 
["V-A:ARG:545:CA:4919, V-A:GLY:454:CA:4049, V-B:HIS:456:CD2:9039, V-B:GLU:543:C:9874, V-A:GLU:543:C:4902, V-B:GLU:543:CB:9878, H-B:LYS:547:NZ:9923, V-A:GLY:544:CA:4914, V-B:GLU:543:CG:9879, V-A:GLY:544:C:4912, V-A:ASP:366:CG:3213, V-B:LYS:547:CE:9922, V-A:GLU:543:CD:4908, V-B:HIS:456:CE1:9041, V-A:HIS:456:CE1:4070, V-B:GLY:544:C:9884, V-B:GLY:544:CA:9886, V-A:GLU:543:CG:4907, V-B:GLU:543:CD:9880, V-B:HIS:456:CG:9037, V-A:ARG:545:CZ:4926, V-A:GLU:543:CB:4906, H-A:TYR:484:OH:4348"]

$$$$
ZINC6645195
     RDKit          3D

 63 66  0  0  0  0  0  0  0  0999 V2000
  129.4620  126.5030   66.8550 C   0  0  0  0  0  0  0  0  0  0  0  0
  130.5590  125.6090   66.7030 O   0  0  0  0  0  0  0  0  0  0  0  0
  131.0370  125.3370   65.4360 C   0  0  0  0  0  0  0  0  0  0  0  0
  130.0900  125.2920   64.4120 C   0  0  0  0  0  0  0  0  0  0  0  0
  130.4740  125.0250   63.1010 C   0  0  0  0  0  0  0  0  0  0  0  0
  131.8240  124.8040   62.8060 C   0  0  0  0  0  0  0  0  0  0  0  0
  132.2250  124.5360   61.4650 N   0  0  0  0  0  0  0  0  0  0  0  0
  132.1790  125.6130   60.5970 C   0  0  0  0  0  0  0  0  0  0  0  0
  131.8790  126.7570   60.9590 O   0  0  0  0  0  0  0  0  0  0  0  0
  132.5450  125.3040   59.2000 C   0  0  0  0  0  0  0  0  0  0  0  0
  132.1840  126.1030   58.1510 C   0  0  0  0  0  0  0  0  0  0  0  0
  131.3330  127.3110   58.1210 C   0  0  0  0  0  0  0  0  0  0  0  0
  131.9230  128.5680   58.2670 C   0  0  0  0  0  0  0  0  0  0  0  0
  131.1430  129.7230   58.2400 C   0  0  0  0  0  0  0  0  0  0  0  0
  131.9830  131.4200   58.4560 Br  0  0  0  0  0  0  0  0  0  0  0  0
  129.7580  129.6310   58.0610 C   0  0  0  0  0  0  0  0  0  0  0  0
  129.0000  130.7770   58.0450 O   0  0  0  0  0  0  0  0  0  0  0  0
  128.5720  131.2170   59.3290 C   0  0  0  0  0  0  0  0  0  0  0  0
  128.3180  132.7260   59.2800 C   0  0  0  0  0  0  0  0  0  0  0  0
  129.0410  133.3500   60.3380 O   0  0  0  0  0  0  0  0  0  0  0  0
  128.8070  132.9690   61.6480 C   0  0  0  0  0  0  0  0  0  0  0  0
  127.5700  133.1310   62.2950 C   0  0  0  0  0  0  0  0  0  0  0  0
  127.4010  132.7220   63.6160 C   0  0  0  0  0  0  0  0  0  0  0  0
  128.4630  132.1510   64.3090 C   0  0  0  0  0  0  0  0  0  0  0  0
  129.6940  131.9850   63.6800 C   0  0  0  0  0  0  0  0  0  0  0  0
  129.8800  132.3910   62.3460 C   0  0  0  0  0  0  0  0  0  0  0  0
  131.0760  132.2530   61.6630 O   0  0  0  0  0  0  0  0  0  0  0  0
  132.1250  131.4800   62.2370 C   0  0  0  0  0  0  0  0  0  0  0  0
  129.1490  128.3800   57.8870 C   0  0  0  0  0  0  0  0  0  0  0  0
  127.7790  128.3610   57.6950 O   0  0  0  0  0  0  0  0  0  0  0  0
  126.9310  127.9420   58.7590 C   0  0  0  0  0  0  0  0  0  0  0  0
  129.9530  127.2280   57.9130 C   0  0  0  0  0  0  0  0  0  0  0  0
  133.3000  124.0670   58.9160 C   0  0  0  0  0  0  0  0  0  0  0  0
  133.9690  123.9840   57.8840 O   0  0  0  0  0  0  0  0  0  0  0  0
  133.1620  123.0630   59.8820 N   0  0  0  0  0  0  0  0  0  0  0  0
  132.6760  123.2820   61.0520 C   0  0  0  0  0  0  0  0  0  0  0  0
  132.6340  122.2590   61.7600 O   0  0  0  0  0  0  0  0  0  0  0  0
  132.7820  124.8430   63.8250 C   0  0  0  0  0  0  0  0  0  0  0  0
  132.3890  125.1080   65.1330 C   0  0  0  0  0  0  0  0  0  0  0  0
  129.2653  126.6633   67.9253 H   0  0  0  0  0  0  0  0  0  0  0  0
  129.7039  127.4645   66.3786 H   0  0  0  0  0  0  0  0  0  0  0  0
  128.5691  126.0721   66.3786 H   0  0  0  0  0  0  0  0  0  0  0  0
  129.0293  125.4693   64.6432 H   0  0  0  0  0  0  0  0  0  0  0  0
  129.7201  124.9879   62.3009 H   0  0  0  0  0  0  0  0  0  0  0  0
  132.5911  125.7988   57.1754 H   0  0  0  0  0  0  0  0  0  0  0  0
  133.0115  128.6475   58.4044 H   0  0  0  0  0  0  0  0  0  0  0  0
  127.6441  130.6957   59.6071 H   0  0  0  0  0  0  0  0  0  0  0  0
  129.3486  130.9950   60.0757 H   0  0  0  0  0  0  0  0  0  0  0  0
  128.6582  133.1266   58.3137 H   0  0  0  0  0  0  0  0  0  0  0  0
  127.2425  132.9270   59.3940 H   0  0  0  0  0  0  0  0  0  0  0  0
  126.7272  133.5851   61.7532 H   0  0  0  0  0  0  0  0  0  0  0  0
  126.4272  132.8507   64.1111 H   0  0  0  0  0  0  0  0  0  0  0  0
  128.3306  131.8308   65.3530 H   0  0  0  0  0  0  0  0  0  0  0  0
  130.5303  131.5314   64.2322 H   0  0  0  0  0  0  0  0  0  0  0  0
  132.0586  131.5290   63.3339 H   0  0  0  0  0  0  0  0  0  0  0  0
  132.0306  130.4339   61.9103 H   0  0  0  0  0  0  0  0  0  0  0  0
  133.0962  131.8800   61.9103 H   0  0  0  0  0  0  0  0  0  0  0  0
  127.4075  128.1774   59.7221 H   0  0  0  0  0  0  0  0  0  0  0  0
  125.9673  128.4676   58.6885 H   0  0  0  0  0  0  0  0  0  0  0  0
  126.7630  126.8572   58.6885 H   0  0  0  0  0  0  0  0  0  0  0  0
  129.4878  126.2420   57.7669 H   0  0  0  0  0  0  0  0  0  0  0  0
  133.8423  124.6647   63.5927 H   0  0  0  0  0  0  0  0  0  0  0  0
  133.1417  125.1383   65.9346 H   0  0  0  0  0  0  0  0  0  0  0  0
  1  2  1  0
  2  3  1  0
  3  4  2  0
  4  5  1  0
  5  6  2  0
  6  7  1  0
  7  8  1  0
  8  9  2  0
  8 10  1  0
 10 11  2  0
 11 12  1  0
 12 13  2  0
 13 14  1  0
 14 15  1  0
 14 16  2  0
 16 17  1  0
 17 18  1  0
 18 19  1  0
 19 20  1  0
 20 21  1  0
 21 22  2  0
 22 23  1  0
 23 24  2  0
 24 25  1  0
 25 26  2  0
 26 27  1  0
 27 28  1  0
 16 29  1  0
 29 30  1  0
 30 31  1  0
 29 32  2  0
 10 33  1  0
 33 34  2  0
 33 35  1  0
 35 36  2  0
 36 37  1  0
  6 38  1  0
 38 39  2  0
 39  3  1  0
 36  7  1  0
 32 12  1  0
 26 21  1  0
  1 40  1  0
  1 41  1  0
  1 42  1  0
  4 43  1  0
  5 44  1  0
 11 45  1  0
 13 46  1  0
 18 47  1  0
 18 48  1  0
 19 49  1  0
 19 50  1  0
 22 51  1  0
 23 52  1  0
 24 53  1  0
 25 54  1  0
 28 55  1  0
 28 56  1  0
 28 57  1  0
 31 58  1  0
 31 59  1  0
 31 60  1  0
 32 61  1  0
 38 62  1  0
 39 63  1  0
M  CHG  1  37  -1
M  END
>  <Binding energies>  (1) 
[-7.03]

>  <Ligand effiencies>  (1) 
[-0.18025641025641026]

>  <Interactions>  (1) 
["V-A:ILE:369:CG2:3237, V-A:ASP:366:CA:3210, V-A:ILE:369:CB:3236, H-A:ALA:541:N:4891, V-B:GLU:543:CB:9878, V-A:PRO:540:C:4881, V-B:TYR:539:CE2:9848, V-B:GLU:543:CG:9879, V-B:LEU:475:CD2:9230, V-A:ASP:366:CG:3213, V-A:LEU:363:CD1:3189, V-A:TYR:539:CD1:4873, V-B:TYR:484:CE2:9317, V-B:TYR:539:CZ:9849, H-A:ASN:370:N:3244, H-B:TYR:539:OH:9850, V-A:ALA:541:CB:4892, V-A:GLU:543:CD:4908, V-A:ALA:541:CA:4890, V-A:TYR:531:CZ:4794, V-A:GLU:543:CG:4907, V-B:GLU:543:CD:9880, H-B:TYR:531:OH:9767, V-A:ASP:366:CB:3212, H-A:ARG:545:NH2:4928, V-A:ARG:545:CZ:4926, V-A:PRO:540:CB:4885, V-A:PRO:540:CA:4883, V-A:TYR:539:CE1:4875, H-A:TYR:484:OH:4348"]

$$$$
ZINC66797070
     RDKit          3D

 33 36  0  0  0  0  0  0  0  0999 V2000
  133.9870  124.3380   63.5170 N   0  0  0  0  0  0  0  0  0  0  0  0
  133.0000  124.4540   64.1100 C   0  0  0  0  0  0  0  0  0  0  0  0
  131.7600  124.6000   64.8560 C   0  0  0  0  0  0  0  0  0  0  0  0
  130.9160  123.5930   65.0210 N   0  0  0  0  0  0  0  0  0  0  0  0
  129.9610  124.1380   65.7270 C   0  0  0  0  0  0  0  0  0  0  0  0
  130.2370  125.4580   65.9900 N   0  0  0  0  0  0  0  0  0  0  0  0
  129.4670  126.4160   66.7000 C   0  0  0  0  0  0  0  0  0  0  0  0
  129.4950  126.3080   68.0600 N   0  0  0  0  0  0  0  0  0  0  0  0
  128.7630  127.2000   68.7870 C   0  0  0  0  0  0  0  0  0  0  0  0
  128.8000  127.0820   70.2860 C   0  0  0  0  0  0  0  0  0  0  0  0
  129.9710  127.3490   71.0180 C   0  0  0  0  0  0  0  0  0  0  0  0
  129.9650  127.2260   72.4090 C   0  0  0  0  0  0  0  0  0  0  0  0
  128.8680  126.8550   73.1120 N   0  0  0  0  0  0  0  0  0  0  0  0
  127.7360  126.5970   72.4130 C   0  0  0  0  0  0  0  0  0  0  0  0
  127.6620  126.6970   71.0230 C   0  0  0  0  0  0  0  0  0  0  0  0
  127.9980  128.1910   68.2460 N   0  0  0  0  0  0  0  0  0  0  0  0
  127.9970  128.2840   66.8930 C   0  0  0  0  0  0  0  0  0  0  0  0
  128.7360  127.4390   66.0660 C   0  0  0  0  0  0  0  0  0  0  0  0
  128.5000  127.7980   64.6120 C   0  0  0  0  0  0  0  0  0  0  0  0
  127.7730  129.1470   64.6840 C   0  0  0  0  0  0  0  0  0  0  0  0
  127.1700  129.2560   66.0870 C   0  0  0  0  0  0  0  0  0  0  0  0
  131.4100  125.7440   65.4070 N   0  0  0  0  0  0  0  0  0  0  0  0
  129.0570  123.6105   66.0655 H   0  0  0  0  0  0  0  0  0  0  0  0
  130.8898  127.6541   70.4957 H   0  0  0  0  0  0  0  0  0  0  0  0
  130.8933  127.4401   72.9589 H   0  0  0  0  0  0  0  0  0  0  0  0
  126.8346  126.2951   72.9664 H   0  0  0  0  0  0  0  0  0  0  0  0
  126.7178  126.4759   70.5038 H   0  0  0  0  0  0  0  0  0  0  0  0
  129.4535  127.8946   64.0720 H   0  0  0  0  0  0  0  0  0  0  0  0
  127.9246  127.0319   64.0717 H   0  0  0  0  0  0  0  0  0  0  0  0
  128.4839  129.9689   64.5134 H   0  0  0  0  0  0  0  0  0  0  0  0
  126.9902  129.2127   63.9140 H   0  0  0  0  0  0  0  0  0  0  0  0
  127.2681  130.2786   66.4804 H   0  0  0  0  0  0  0  0  0  0  0  0
  126.0933  129.0321   66.1129 H   0  0  0  0  0  0  0  0  0  0  0  0
  1  2  3  0
  2  3  1  0
  3  4  1  0
  4  5  2  0
  5  6  1  0
  6  7  1  0
  7  8  2  0
  8  9  1  0
  9 10  1  0
 10 11  2  0
 11 12  1  0
 12 13  2  0
 13 14  1  0
 14 15  2  0
  9 16  2  0
 16 17  1  0
 17 18  2  0
 18 19  1  0
 19 20  1  0
 20 21  1  0
  6 22  1  0
 22  3  2  0
 18  7  1  0
 15 10  1  0
 21 17  1  0
  5 23  1  0
 11 24  1  0
 12 25  1  0
 14 26  1  0
 15 27  1  0
 19 28  1  0
 19 29  1  0
 20 30  1  0
 20 31  1  0
 21 32  1  0
 21 33  1  0
M  END
>  <Binding energies>  (1) 
[-6.68]

>  <Ligand effiencies>  (1) 
[-0.30363636363636365]

>  <Interactions>  (1) 
["V-B:GLU:543:C:9874, V-B:GLU:543:CB:9878, H-B:LYS:547:NZ:9923, V-A:TYR:484:CE2:4346, V-B:GLU:543:CG:9879, V-A:HIS:456:CD2:4068, V-B:LYS:547:CE:9922, V-A:GLU:543:CD:4908, V-A:TYR:484:CZ:4347, V-B:HIS:456:CE1:9041, H-A:GLY:454:N:4050, V-B:TYR:484:CZ:9318, V-A:HIS:456:CE1:4070, V-B:GLY:544:C:9884, V-B:GLY:544:CA:9886, V-B:GLU:543:CD:9880, H-A:ARG:545:NH2:4928, V-A:ARG:545:CZ:4926, H-A:TYR:484:OH:4348"]

$$$$
ZINC6761473-again1
     RDKit          3D

 35 36  0  0  0  0  0  0  0  0999 V2000
  133.9270  125.0060   62.0220 C   0  0  0  0  0  0  0  0  0  0  0  0
  134.3540  124.3650   63.2130 O   0  0  0  0  0  0  0  0  0  0  0  0
  133.5180  124.7670   64.2690 N   0  0  0  0  0  0  0  0  0  0  0  0
  132.4370  124.0920   64.2950 C   0  0  0  0  0  0  0  0  0  0  0  0
  132.0000  122.9490   63.3420 C   0  0  0  0  0  0  0  0  0  0  0  0
  130.4510  122.8690   63.1160 C   0  0  0  0  0  0  0  0  0  0  0  0
  129.9180  124.1670   62.4500 C   0  0  0  0  0  0  0  0  0  0  0  0
  130.1730  121.6290   62.2360 C   0  0  0  0  0  0  0  0  0  0  0  0
  129.7510  122.6410   64.4910 C   0  0  0  0  0  0  0  0  0  0  0  0
  130.2270  123.6970   65.4800 C   0  0  0  0  0  0  0  0  0  0  0  0
  129.4670  124.0720   66.4930 N   0  0  0  0  0  0  0  0  0  0  0  0
  130.0430  124.9950   67.2300 C   0  0  0  0  0  0  0  0  0  0  0  0
  129.5410  125.6120   68.3670 N   0  0  0  0  0  0  0  0  0  0  0  0
  129.3380  126.9370   68.5410 C   0  0  0  0  0  0  0  0  0  0  0  0
  128.7710  127.3490   69.8970 C   0  0  0  0  0  0  0  0  0  0  0  0
  129.5730  127.8080   67.7040 O   0  0  0  0  0  0  0  0  0  0  0  0
  131.6160  125.4810   66.6930 S   0  0  0  0  0  0  0  0  0  0  0  0
  131.4680  124.3440   65.3750 C   0  0  0  0  0  0  0  0  0  0  0  0
  133.3338  125.8965   62.2773 H   0  0  0  0  0  0  0  0  0  0  0  0
  134.8055  125.3073   61.4325 H   0  0  0  0  0  0  0  0  0  0  0  0
  133.3105  124.3114   61.4325 H   0  0  0  0  0  0  0  0  0  0  0  0
  132.4847  123.1063   62.3672 H   0  0  0  0  0  0  0  0  0  0  0  0
  132.3031  122.0039   63.8163 H   0  0  0  0  0  0  0  0  0  0  0  0
  129.6233  124.8848   63.2297 H   0  0  0  0  0  0  0  0  0  0  0  0
  130.7075  124.6089   61.8243 H   0  0  0  0  0  0  0  0  0  0  0  0
  129.0458  123.9266   61.8243 H   0  0  0  0  0  0  0  0  0  0  0  0
  129.9779  120.7587   62.8799 H   0  0  0  0  0  0  0  0  0  0  0  0
  129.2952  121.8194   61.6009 H   0  0  0  0  0  0  0  0  0  0  0  0
  131.0480  121.4264   61.6009 H   0  0  0  0  0  0  0  0  0  0  0  0
  128.6610  122.7197   64.3658 H   0  0  0  0  0  0  0  0  0  0  0  0
  130.0032  121.6401   64.8712 H   0  0  0  0  0  0  0  0  0  0  0  0
  129.3150  125.0000   69.1370 H   0  0  0  0  0  0  0  0  0  0  0  0
  129.3801  126.9064   70.6989 H   0  0  0  0  0  0  0  0  0  0  0  0
  128.7901  128.4453   69.9846 H   0  0  0  0  0  0  0  0  0  0  0  0
  127.7342  126.9922   69.9846 H   0  0  0  0  0  0  0  0  0  0  0  0
  1  2  1  0
  2  3  1  0
  3  4  2  0
  4  5  1  0
  5  6  1  0
  6  7  1  0
  6  8  1  0
  6  9  1  0
  9 10  1  0
 10 11  1  0
 11 12  2  0
 12 13  1  0
 13 14  1  0
 14 15  1  0
 14 16  2  0
 12 17  1  0
 17 18  1  0
 18  4  1  0
 18 10  2  0
  1 19  1  0
  1 20  1  0
  1 21  1  0
  5 22  1  0
  5 23  1  0
  7 24  1  0
  7 25  1  0
  7 26  1  0
  8 27  1  0
  8 28  1  0
  8 29  1  0
  9 30  1  0
  9 31  1  0
 13 32  1  0
 15 33  1  0
 15 34  1  0
 15 35  1  0
M  END
>  <Binding energies>  (1) 
[-5.87]

>  <Ligand effiencies>  (1) 
[-0.30894736842105264]

>  <Interactions>  (1) 
["V-A:HIS:456:CE1:4070, V-B:GLU:543:C:9874, V-B:HIS:456:CE1:9041, H-B:GLU:543:O:9875, V-B:GLU:543:CB:9878, H-A:HIS:456:NE2:4071, H-A:ARG:545:NE:4924, V-A:ARG:545:CZ:4926, V-B:ALA:541:CB:9864, V-A:TYR:484:CZ:4347, V-A:TYR:484:CE2:4346, V-A:LEU:475:CD2:4259, H-A:ARG:545:NH2:4928, V-B:GLU:543:CG:9879, V-B:GLU:543:CA:9876, H-A:GLY:454:N:4050, V-A:ASP:366:CG:3213, H-A:TYR:484:OH:4348"]

$$$$
ZINC677485
     RDKit          3D

 60 66  0  0  0  0  0  0  0  0999 V2000
  134.0680  123.6420   61.1180 C   0  0  0  0  0  0  0  0  0  0  0  0
  133.2690  124.4670   60.1260 C   0  0  0  0  0  0  0  0  0  0  0  0
  133.7630  124.6840   58.8390 C   0  0  0  0  0  0  0  0  0  0  0  0
  133.0420  125.4680   57.9430 C   0  0  0  0  0  0  0  0  0  0  0  0
  131.8250  126.0270   58.3270 C   0  0  0  0  0  0  0  0  0  0  0  0
  131.2880  125.8000   59.6050 C   0  0  0  0  0  0  0  0  0  0  0  0
  129.9400  126.4670   60.0050 C   0  0  1  0  0  0  0  0  0  0  0  0
  129.3710  126.2590   61.4610 C   0  0  2  0  0  0  0  0  0  0  0  0
  128.6130  127.4360   61.7570 O   0  0  0  0  0  0  0  0  0  0  0  0
  128.3720  128.2120   60.5840 C   0  0  1  0  0  0  0  0  0  0  0  0
  127.9470  129.6550   60.8920 C   0  0  0  0  0  0  0  0  0  0  0  0
  127.4880  130.4760   59.8560 C   0  0  0  0  0  0  0  0  0  0  0  0
  127.1170  131.7920   60.1200 C   0  0  0  0  0  0  0  0  0  0  0  0
  127.2020  132.2850   61.4200 C   0  0  0  0  0  0  0  0  0  0  0  0
  126.6980  134.0850   61.7790 Br  0  0  0  0  0  0  0  0  0  0  0  0
  127.6530  131.4750   62.4580 C   0  0  0  0  0  0  0  0  0  0  0  0
  128.0250  130.1590   62.1940 C   0  0  0  0  0  0  0  0  0  0  0  0
  129.6470  127.9770   59.7200 C   0  0  1  0  0  0  0  0  0  0  0  0
  130.7800  128.9640   60.0890 C   0  0  0  0  0  0  0  0  0  0  0  0
  131.3560  129.0650   61.1690 O   0  0  0  0  0  0  0  0  0  0  0  0
  131.0270  129.7900   58.8920 C   0  0  0  0  0  0  0  0  0  0  0  0
  131.9340  130.8380   58.7240 C   0  0  0  0  0  0  0  0  0  0  0  0
  132.0170  131.4880   57.4910 C   0  0  0  0  0  0  0  0  0  0  0  0
  131.1980  131.0900   56.4320 C   0  0  0  0  0  0  0  0  0  0  0  0
  130.2920  130.0410   56.6010 C   0  0  0  0  0  0  0  0  0  0  0  0
  130.2100  129.3930   57.8360 C   0  0  0  0  0  0  0  0  0  0  0  0
  129.3450  128.2690   58.2350 C   0  0  0  0  0  0  0  0  0  0  0  0
  128.5290  127.6810   57.5230 O   0  0  0  0  0  0  0  0  0  0  0  0
  130.3900  126.0800   62.6020 C   0  0  0  0  0  0  0  0  0  0  0  0
  131.3460  126.8060   62.8660 O   0  0  0  0  0  0  0  0  0  0  0  0
  130.0150  124.8410   63.3060 C   0  0  0  0  0  0  0  0  0  0  0  0
  130.6330  124.2370   64.4050 C   0  0  0  0  0  0  0  0  0  0  0  0
  130.1110  123.0480   64.9220 C   0  0  0  0  0  0  0  0  0  0  0  0
  128.9790  122.4700   64.3450 C   0  0  0  0  0  0  0  0  0  0  0  0
  128.3620  123.0740   63.2480 C   0  0  0  0  0  0  0  0  0  0  0  0
  128.8860  124.2630   62.7300 C   0  0  0  0  0  0  0  0  0  0  0  0
  128.4100  125.0650   61.5920 C   0  0  0  0  0  0  0  0  0  0  0  0
  127.4410  124.8230   60.8720 O   0  0  0  0  0  0  0  0  0  0  0  0
  132.0490  125.0350   60.5030 C   0  0  0  0  0  0  0  0  0  0  0  0
  133.7894  123.9296   62.1425 H   0  0  0  0  0  0  0  0  0  0  0  0
  133.8517  122.5743   60.9653 H   0  0  0  0  0  0  0  0  0  0  0  0
  135.1420  123.8240   60.9653 H   0  0  0  0  0  0  0  0  0  0  0  0
  134.7202  124.2364   58.5333 H   0  0  0  0  0  0  0  0  0  0  0  0
  133.4335  125.6464   56.9306 H   0  0  0  0  0  0  0  0  0  0  0  0
  131.2736  126.6588   57.6151 H   0  0  0  0  0  0  0  0  0  0  0  0
  129.4449  125.8369   59.2515 H   0  0  0  0  0  0  0  0  0  0  0  0
  127.4893  127.9075   60.0025 H   0  0  0  0  0  0  0  0  0  0  0  0
  127.4201  130.0813   58.8315 H   0  0  0  0  0  0  0  0  0  0  0  0
  126.7586  132.4391   59.3059 H   0  0  0  0  0  0  0  0  0  0  0  0
  127.7154  131.8722   63.4819 H   0  0  0  0  0  0  0  0  0  0  0  0
  128.3809  129.5148   63.0115 H   0  0  0  0  0  0  0  0  0  0  0  0
  132.5796  131.1499   59.5582 H   0  0  0  0  0  0  0  0  0  0  0  0
  132.7289  132.3152   57.3534 H   0  0  0  0  0  0  0  0  0  0  0  0
  131.2669  131.6043   55.4621 H   0  0  0  0  0  0  0  0  0  0  0  0
  129.6470  129.7269   55.7671 H   0  0  0  0  0  0  0  0  0  0  0  0
  131.5240  124.6944   64.8597 H   0  0  0  0  0  0  0  0  0  0  0  0
  130.5933  122.5666   65.7855 H   0  0  0  0  0  0  0  0  0  0  0  0
  128.5714  121.5348   64.7564 H   0  0  0  0  0  0  0  0  0  0  0  0
  127.4698  122.6180   62.7941 H   0  0  0  0  0  0  0  0  0  0  0  0
  131.6767  124.8791   61.5263 H   0  0  0  0  0  0  0  0  0  0  0  0
  1  2  1  0
  2  3  2  0
  3  4  1  0
  4  5  2  0
  5  6  1  0
  6  7  1  0
  7  8  1  0
  8  9  1  1
  9 10  1  0
 10 11  1  0
 11 12  2  0
 12 13  1  0
 13 14  2  0
 14 15  1  0
 14 16  1  0
 16 17  2  0
 10 18  1  0
 18 19  1  1
 19 20  2  0
 19 21  1  0
 21 22  2  0
 22 23  1  0
 23 24  2  0
 24 25  1  0
 25 26  2  0
 26 27  1  0
 27 28  2  0
  8 29  1  0
 29 30  2  0
 29 31  1  0
 31 32  2  0
 32 33  1  0
 33 34  2  0
 34 35  1  0
 35 36  2  0
 36 37  1  0
 37 38  2  0
  6 39  2  0
 39  2  1  0
 18  7  1  0
 26 21  1  0
 36 31  1  0
 37  8  1  0
 17 11  1  0
 27 18  1  0
  1 40  1  0
  1 41  1  0
  1 42  1  0
  3 43  1  0
  4 44  1  0
  5 45  1  0
  7 46  1  6
 10 47  1  6
 12 48  1  0
 13 49  1  0
 16 50  1  0
 17 51  1  0
 22 52  1  0
 23 53  1  0
 24 54  1  0
 25 55  1  0
 32 56  1  0
 33 57  1  0
 34 58  1  0
 35 59  1  0
 39 60  1  0
M  END
>  <Binding energies>  (1) 
[-7.76]

>  <Ligand effiencies>  (1) 
[-0.19897435897435897]

>  <Interactions>  (1) 
["V-A:ILE:369:CG2:3237, V-A:LEU:363:CD1:3189, V-A:ASP:366:CA:3210, V-A:ILE:369:CD1:3239, V-A:ASP:366:C:3208, V-A:ILE:369:CB:3236, V-A:TYR:531:CE2:4793, V-A:TYR:531:CZ:4794, V-A:MET:535:CE:4835, V-B:GLU:543:CD:9880, V-B:ALA:541:CB:9864, V-A:TYR:484:CZ:4347, V-A:TYR:484:CE2:4346, V-A:ASP:366:CB:3212, V-B:LEU:475:CD2:9230, H-A:ARG:545:NH2:4928, V-B:GLU:543:CG:9879, V-A:ASP:366:CG:3213"]

$$$$
ZINC68151111
     RDKit          3D

110113  0  0  0  0  0  0  0  0999 V2000
  128.4440  127.5060   67.3850 C   0  0  0  0  0  0  0  0  0  0  0  0
  128.3210  128.8760   66.7030 C   0  0  0  0  0  0  0  0  0  0  0  0
  128.3100  128.7850   65.1670 C   0  0  0  0  0  0  0  0  0  0  0  0
  127.2440  129.6980   64.5220 C   0  0  0  0  0  0  0  0  0  0  0  0
  127.7960  130.6010   63.3860 C   0  0  2  0  0  0  0  0  0  0  0  0
  128.5650  129.8330   62.3970 N   0  0  0  0  0  0  0  0  0  0  0  0
  128.1780  129.5850   61.1330 C   0  0  0  0  0  0  0  0  0  0  0  0
  127.1760  130.0930   60.6240 O   0  0  0  0  0  0  0  0  0  0  0  0
  129.1200  128.7030   60.2870 C   0  0  2  0  0  0  0  0  0  0  0  0
  130.1710  129.5060   59.4950 C   0  0  2  0  0  0  0  0  0  0  0  0
  129.8390  129.3480   58.0330 C   0  0  2  0  0  0  0  0  0  0  0  0
  128.5570  128.4990   57.9460 C   0  0  0  0  0  0  0  0  0  0  0  0
  128.3530  127.9450   59.2850 N   0  0  0  0  0  0  0  0  0  0  0  0
  127.6760  126.8000   59.5700 C   0  0  0  0  0  0  0  0  0  0  0  0
  126.4970  126.8070   59.9340 O   0  0  0  0  0  0  0  0  0  0  0  0
  128.3590  125.4170   59.3300 C   0  0  1  0  0  0  0  0  0  0  0  0
  129.4480  125.2250   60.2990 N   0  0  0  0  0  0  0  0  0  0  0  0
  129.3710  125.4190   61.6250 C   0  0  0  0  0  0  0  0  0  0  0  0
  128.3870  125.8770   62.2050 O   0  0  0  0  0  0  0  0  0  0  0  0
  130.4900  124.9970   62.2370 N   0  0  0  0  0  0  0  0  0  0  0  0
  130.6580  124.6030   63.6440 C   0  0  0  0  0  0  0  0  0  0  0  0
  132.0670  123.9150   63.6780 C   0  0  0  0  0  0  0  0  0  0  0  0
  133.3810  124.6900   62.5240 S   0  0  0  0  0  0  0  0  0  0  0  0
  132.8320  125.9350   61.9740 O   0  0  0  0  0  0  0  0  0  0  0  0
  134.6620  124.7270   63.2390 O   0  0  0  0  0  0  0  0  0  0  0  0
  133.5680  123.4550   61.0710 C   0  0  0  0  0  0  0  0  0  0  0  0
  134.3460  122.2380   61.6120 C   0  0  0  0  0  0  0  0  0  0  0  0
  132.1670  123.0220   60.5890 C   0  0  0  0  0  0  0  0  0  0  0  0
  134.3590  124.1310   59.9300 C   0  0  0  0  0  0  0  0  0  0  0  0
  130.6610  125.8240   64.6170 C   0  0  0  0  0  0  0  0  0  0  0  0
  130.9070  125.4290   66.0930 C   0  0  0  0  0  0  0  0  0  0  0  0
  129.8880  124.3720   66.5740 C   0  0  0  0  0  0  0  0  0  0  0  0
  129.7420  123.1770   65.6050 C   0  0  0  0  0  0  0  0  0  0  0  0
  129.5260  123.6550   64.1520 C   0  0  0  0  0  0  0  0  0  0  0  0
  127.3590  124.1950   59.3140 C   0  0  0  0  0  0  0  0  0  0  0  0
  126.2950  124.3460   58.1920 C   0  0  0  0  0  0  0  0  0  0  0  0
  128.1470  122.8910   59.0250 C   0  0  0  0  0  0  0  0  0  0  0  0
  126.6240  123.9980   60.6680 C   0  0  0  0  0  0  0  0  0  0  0  0
  131.1520  128.7930   58.5640 C   0  0  0  0  0  0  0  0  0  0  0  0
  132.4210  129.5760   58.1860 C   0  0  0  0  0  0  0  0  0  0  0  0
  131.4010  127.2690   58.6660 C   0  0  0  0  0  0  0  0  0  0  0  0
  128.7550  131.6750   63.9010 C   0  0  0  0  0  0  0  0  0  0  0  0
  128.7150  132.1340   65.0460 O   0  0  0  0  0  0  0  0  0  0  0  0
  129.8060  132.2380   62.8460 C   0  0  0  0  0  0  0  0  0  0  0  0
  129.4600  132.9670   61.9150 O   0  0  0  0  0  0  0  0  0  0  0  0
  131.0630  131.8310   63.1020 N   0  0  0  0  0  0  0  0  0  0  0  0
  132.2050  132.1080   62.2370 C   0  0  0  0  0  0  0  0  0  0  0  0
  133.3390  131.1060   62.1590 C   0  0  0  0  0  0  0  0  0  0  0  0
  132.3910  131.2670   60.9950 C   0  0  0  0  0  0  0  0  0  0  0  0
  128.4322  127.6377   68.4770 H   0  0  0  0  0  0  0  0  0  0  0  0
  127.5994  126.8691   67.0833 H   0  0  0  0  0  0  0  0  0  0  0  0
  129.3885  127.0297   67.0833 H   0  0  0  0  0  0  0  0  0  0  0  0
  127.3841  129.3487   67.0327 H   0  0  0  0  0  0  0  0  0  0  0  0
  129.2030  129.4669   66.9910 H   0  0  0  0  0  0  0  0  0  0  0  0
  129.3004  129.0802   64.7901 H   0  0  0  0  0  0  0  0  0  0  0  0
  128.0644  127.7471   64.8980 H   0  0  0  0  0  0  0  0  0  0  0  0
  126.4496  129.0620   64.1043 H   0  0  0  0  0  0  0  0  0  0  0  0
  126.8753  130.3678   65.3128 H   0  0  0  0  0  0  0  0  0  0  0  0
  126.8988  131.0546   62.9397 H   0  0  0  0  0  0  0  0  0  0  0  0
  129.3920  129.3730   62.7500 H   0  0  0  0  0  0  0  0  0  0  0  0
  129.6267  128.0524   61.0150 H   0  0  0  0  0  0  0  0  0  0  0  0
  130.3561  130.2823   60.2521 H   0  0  0  0  0  0  0  0  0  0  0  0
  129.6576  129.9346   57.1203 H   0  0  0  0  0  0  0  0  0  0  0  0
  127.7011  129.1265   57.6568 H   0  0  0  0  0  0  0  0  0  0  0  0
  128.6478  127.7056   57.1895 H   0  0  0  0  0  0  0  0  0  0  0  0
  128.7773  125.4404   58.3129 H   0  0  0  0  0  0  0  0  0  0  0  0
  130.3110  124.8770   59.9090 H   0  0  0  0  0  0  0  0  0  0  0  0
  131.3000  124.8430   61.6560 H   0  0  0  0  0  0  0  0  0  0  0  0
  132.4464  123.9676   64.7092 H   0  0  0  0  0  0  0  0  0  0  0  0
  131.9131  122.8871   63.3178 H   0  0  0  0  0  0  0  0  0  0  0  0
  134.3350  122.2552   62.7118 H   0  0  0  0  0  0  0  0  0  0  0  0
  133.8722  121.3117   61.2550 H   0  0  0  0  0  0  0  0  0  0  0  0
  135.3856  122.2792   61.2550 H   0  0  0  0  0  0  0  0  0  0  0  0
  131.5248  122.8235   61.4597 H   0  0  0  0  0  0  0  0  0  0  0  0
  131.7237  123.8251   59.9819 H   0  0  0  0  0  0  0  0  0  0  0  0
  132.2541  122.1089   59.9819 H   0  0  0  0  0  0  0  0  0  0  0  0
  135.1294  124.7894   60.3579 H   0  0  0  0  0  0  0  0  0  0  0  0
  134.8391  123.3598   59.3097 H   0  0  0  0  0  0  0  0  0  0  0  0
  133.6720  124.7254   59.3097 H   0  0  0  0  0  0  0  0  0  0  0  0
  131.4551  126.5180   64.3041 H   0  0  0  0  0  0  0  0  0  0  0  0
  129.6637  126.2851   64.5647 H   0  0  0  0  0  0  0  0  0  0  0  0
  131.9221  125.0160   66.1880 H   0  0  0  0  0  0  0  0  0  0  0  0
  130.7903  126.3288   66.7150 H   0  0  0  0  0  0  0  0  0  0  0  0
  130.2165  123.9902   67.5519 H   0  0  0  0  0  0  0  0  0  0  0  0
  128.9074  124.8672   66.6300 H   0  0  0  0  0  0  0  0  0  0  0  0
  130.6559  122.5663   65.6491 H   0  0  0  0  0  0  0  0  0  0  0  0
  128.8648  122.5878   65.9104 H   0  0  0  0  0  0  0  0  0  0  0  0
  129.4871  122.7732   63.4956 H   0  0  0  0  0  0  0  0  0  0  0  0
  128.5861  124.2261   64.1310 H   0  0  0  0  0  0  0  0  0  0  0  0
  125.3024  124.4869   58.6446 H   0  0  0  0  0  0  0  0  0  0  0  0
  126.5409  125.2183   57.5685 H   0  0  0  0  0  0  0  0  0  0  0  0
  126.2885  123.4398   57.5685 H   0  0  0  0  0  0  0  0  0  0  0  0
  128.4333  122.4173   59.9756 H   0  0  0  0  0  0  0  0  0  0  0  0
  127.5146  122.2009   58.4472 H   0  0  0  0  0  0  0  0  0  0  0  0
  129.0520  123.1299   58.4472 H   0  0  0  0  0  0  0  0  0  0  0  0
  127.3238  124.1856   61.4957 H   0  0  0  0  0  0  0  0  0  0  0  0
  125.7813  124.7020   60.7336 H   0  0  0  0  0  0  0  0  0  0  0  0
  126.2464  122.9669   60.7336 H   0  0  0  0  0  0  0  0  0  0  0  0
  132.9404  129.8965   59.1012 H   0  0  0  0  0  0  0  0  0  0  0  0
  133.0867  128.9314   57.5933 H   0  0  0  0  0  0  0  0  0  0  0  0
  132.1434  130.4601   57.5933 H   0  0  0  0  0  0  0  0  0  0  0  0
  131.4490  126.9754   59.7250 H   0  0  0  0  0  0  0  0  0  0  0  0
  130.5791  126.7294   58.1727 H   0  0  0  0  0  0  0  0  0  0  0  0
  132.3519  127.0190   58.1727 H   0  0  0  0  0  0  0  0  0  0  0  0
  131.2150  131.1880   63.8650 H   0  0  0  0  0  0  0  0  0  0  0  0
  132.1371  133.1847   62.4515 H   0  0  0  0  0  0  0  0  0  0  0  0
  134.3782  131.4567   62.0747 H   0  0  0  0  0  0  0  0  0  0  0  0
  133.6746  130.2609   62.7781 H   0  0  0  0  0  0  0  0  0  0  0  0
  132.7404  131.7341   60.0624 H   0  0  0  0  0  0  0  0  0  0  0  0
  131.7506  130.5862   60.4150 H   0  0  0  0  0  0  0  0  0  0  0  0
  1  2  1  0
  2  3  1  0
  3  4  1  0
  4  5  1  0
  5  6  1  0
  6  7  1  0
  7  8  2  0
  7  9  1  0
  9 10  1  0
 10 11  1  0
 11 12  1  0
 12 13  1  0
 13 14  1  0
 14 15  2  0
 14 16  1  0
 16 17  1  0
 17 18  1  0
 18 19  2  0
 18 20  1  0
 20 21  1  0
 21 22  1  0
 22 23  1  0
 23 24  2  0
 23 25  2  0
 23 26  1  0
 26 27  1  0
 26 28  1  0
 26 29  1  0
 21 30  1  0
 30 31  1  0
 31 32  1  0
 32 33  1  0
 33 34  1  0
 16 35  1  0
 35 36  1  0
 35 37  1  0
 35 38  1  0
 11 39  1  0
 39 40  1  0
 39 41  1  0
  5 42  1  0
 42 43  2  0
 42 44  1  0
 44 45  2  0
 44 46  1  0
 46 47  1  0
 47 48  1  0
 48 49  1  0
 13  9  1  0
 34 21  1  0
 49 47  1  0
 39 10  1  0
  1 50  1  0
  1 51  1  0
  1 52  1  0
  2 53  1  0
  2 54  1  0
  3 55  1  0
  3 56  1  0
  4 57  1  0
  4 58  1  0
  5 59  1  6
  6 60  1  0
  9 61  1  1
 10 62  1  1
 11 63  1  6
 12 64  1  0
 12 65  1  0
 16 66  1  6
 17 67  1  0
 20 68  1  0
 22 69  1  0
 22 70  1  0
 27 71  1  0
 27 72  1  0
 27 73  1  0
 28 74  1  0
 28 75  1  0
 28 76  1  0
 29 77  1  0
 29 78  1  0
 29 79  1  0
 30 80  1  0
 30 81  1  0
 31 82  1  0
 31 83  1  0
 32 84  1  0
 32 85  1  0
 33 86  1  0
 33 87  1  0
 34 88  1  0
 34 89  1  0
 36 90  1  0
 36 91  1  0
 36 92  1  0
 37 93  1  0
 37 94  1  0
 37 95  1  0
 38 96  1  0
 38 97  1  0
 38 98  1  0
 40 99  1  0
 40100  1  0
 40101  1  0
 41102  1  0
 41103  1  0
 41104  1  0
 46105  1  0
 47106  1  0
 48107  1  0
 48108  1  0
 49109  1  0
 49110  1  0
M  END
>  <Binding energies>  (1) 
[-9.67]

>  <Ligand effiencies>  (1) 
[-0.18245283018867925]

>  <Interactions>  (1) 
["V-A:ILE:369:CG2:3237, V-A:ASP:366:CA:3210, V-B:PRO:540:CA:9855, V-A:ALA:541:C:4888, H-A:GLU:543:OE2:4910, V-A:ILE:369:CB:3236, H-A:ALA:541:N:4891, V-B:GLU:543:CB:9878, V-A:PRO:540:C:4881, H-A:ALA:541:O:4889, H-A:ARG:545:NH1:4927, V-A:TYR:484:CE2:4346, V-B:TYR:539:CE2:9848, V-B:GLU:543:CG:9879, V-B:TYR:539:C:9839, V-A:ASP:366:CG:3213, V-A:ASN:362:CB:3176, V-A:TYR:531:CE2:4793, V-A:ALA:541:CB:4892, V-A:GLU:543:CD:4908, V-A:TYR:484:CZ:4347, H-B:TYR:484:OH:9319, V-B:HIS:456:CE1:9041, H-A:GLY:454:N:4050, V-B:GLU:543:CA:9876, V-B:PRO:540:N:9856, V-A:ILE:369:CD1:3239, V-A:ALA:541:CA:4890, V-B:TYR:539:CD2:9846, V-A:TYR:531:CZ:4794, V-A:GLU:543:CG:4907, V-B:GLU:543:CD:9880, V-A:ILE:369:CG1:3238, V-A:ASP:366:CB:3212, H-A:ARG:545:NH2:4928, V-A:ARG:545:CZ:4926, H-A:GLU:543:OE1:4909, V-A:GLU:543:CB:4906, V-A:PRO:540:CB:4885, V-A:PRO:540:CA:4883"]

$$$$
ZINC68244650
     RDKit          3D

 74 78  0  0  0  0  0  0  0  0999 V2000
  128.9060  132.4760   57.2570 C   0  0  0  0  0  0  0  0  0  0  0  0
  128.1220  131.2070   57.6180 C   0  0  0  0  0  0  0  0  0  0  0  0
  129.0150  129.9800   57.7340 C   0  0  0  0  0  0  0  0  0  0  0  0
  130.3130  130.1040   58.2310 C   0  0  0  0  0  0  0  0  0  0  0  0
  131.1270  128.9790   58.3390 C   0  0  0  0  0  0  0  0  0  0  0  0
  130.6530  127.7230   57.9490 C   0  0  0  0  0  0  0  0  0  0  0  0
  131.5520  126.5590   58.0840 C   0  0  0  0  0  0  0  0  0  0  0  0
  132.0480  126.0170   59.2230 C   0  0  0  0  0  0  0  0  0  0  0  0
  131.7310  126.4740   60.9010 S   0  0  0  0  0  0  0  0  0  0  0  0
  132.8250  125.1960   61.5000 C   0  0  0  0  0  0  0  0  0  0  0  0
  133.0490  125.0060   62.6960 O   0  0  0  0  0  0  0  0  0  0  0  0
  133.3230  124.5350   60.4370 N   0  0  0  0  0  0  0  0  0  0  0  0
  134.2660  123.4140   60.6460 C   0  0  0  0  0  0  0  0  0  0  0  0
  133.8880  122.4630   61.8050 C   0  0  0  0  0  0  0  0  0  0  0  0
  133.6080  121.0110   61.3740 C   0  0  0  0  0  0  0  0  0  0  0  0
  132.4420  120.8990   60.3760 C   0  0  0  0  0  0  0  0  0  0  0  0
  131.4130  122.0380   60.5260 C   0  0  0  0  0  0  0  0  0  0  0  0
  130.3010  121.7530   61.5590 C   0  0  0  0  0  0  0  0  0  0  0  0
  130.0850  122.8400   62.5140 N   0  0  0  0  0  0  0  0  0  0  0  0
  130.8540  123.0970   63.5900 C   0  0  0  0  0  0  0  0  0  0  0  0
  131.8760  122.4560   63.8460 O   0  0  0  0  0  0  0  0  0  0  0  0
  130.4050  124.2320   64.4880 C   0  0  0  0  0  0  0  0  0  0  0  0
  130.5010  124.0980   65.8800 C   0  0  0  0  0  0  0  0  0  0  0  0
  130.0820  125.1250   66.7220 C   0  0  0  0  0  0  0  0  0  0  0  0
  129.5710  126.3080   66.1900 C   0  0  0  0  0  0  0  0  0  0  0  0
  129.1360  127.3030   67.0810 N   0  0  0  0  0  0  0  0  0  0  0  0
  129.1810  127.3910   68.4840 C   0  0  0  0  0  0  0  0  0  0  0  0
  130.4020  127.7190   69.0750 C   0  0  0  0  0  0  0  0  0  0  0  0
  130.5470  127.8220   70.4550 C   0  0  0  0  0  0  0  0  0  0  0  0
  129.4740  127.6270   71.3350 C   0  0  0  0  0  0  0  0  0  0  0  0
  129.6790  127.7440   72.8000 N   0  0  0  0  0  0  0  0  0  0  0  0
  130.1610  128.7780   73.2520 O   0  0  0  0  0  0  0  0  0  0  0  0
  129.3630  126.7940   73.5100 O   0  0  0  0  0  0  0  0  0  0  0  0
  128.2190  127.3310   70.7530 C   0  0  0  0  0  0  0  0  0  0  0  0
  127.0160  127.1110   71.3550 N   0  0  0  0  0  0  0  0  0  0  0  0
  126.1430  126.9040   70.2860 O   0  0  0  0  0  0  0  0  0  0  0  0
  126.7630  126.9810   69.0380 N   0  0  0  0  0  0  0  0  0  0  0  0
  128.0700  127.2210   69.3420 C   0  0  0  0  0  0  0  0  0  0  0  0
  129.4490  126.4430   64.8050 C   0  0  0  0  0  0  0  0  0  0  0  0
  129.8680  125.4180   63.9600 C   0  0  0  0  0  0  0  0  0  0  0  0
  132.9530  124.8880   59.1800 C   0  0  0  0  0  0  0  0  0  0  0  0
  133.3450  124.3230   58.1540 O   0  0  0  0  0  0  0  0  0  0  0  0
  129.3480  127.6040   57.4590 C   0  0  0  0  0  0  0  0  0  0  0  0
  128.5330  128.7270   57.3490 C   0  0  0  0  0  0  0  0  0  0  0  0
  129.2215  132.9867   58.1787 H   0  0  0  0  0  0  0  0  0  0  0  0
  129.7933  132.2034   56.6668 H   0  0  0  0  0  0  0  0  0  0  0  0
  128.2651  133.1475   56.6668 H   0  0  0  0  0  0  0  0  0  0  0  0
  127.6168  131.3673   58.5819 H   0  0  0  0  0  0  0  0  0  0  0  0
  127.4015  131.0191   56.8084 H   0  0  0  0  0  0  0  0  0  0  0  0
  130.6931  131.0897   58.5373 H   0  0  0  0  0  0  0  0  0  0  0  0
  132.1489  129.0794   58.7335 H   0  0  0  0  0  0  0  0  0  0  0  0
  131.8562  126.0725   57.1455 H   0  0  0  0  0  0  0  0  0  0  0  0
  134.3091  122.8243   59.7184 H   0  0  0  0  0  0  0  0  0  0  0  0
  135.2323  123.8654   60.9154 H   0  0  0  0  0  0  0  0  0  0  0  0
  134.7185  122.4533   62.5263 H   0  0  0  0  0  0  0  0  0  0  0  0
  132.9510  122.8486   62.2333 H   0  0  0  0  0  0  0  0  0  0  0  0
  134.5144  120.6034   60.9025 H   0  0  0  0  0  0  0  0  0  0  0  0
  133.3275  120.4464   62.2754 H   0  0  0  0  0  0  0  0  0  0  0  0
  132.8500  120.9266   59.3548 H   0  0  0  0  0  0  0  0  0  0  0  0
  131.9201  119.9530   60.5825 H   0  0  0  0  0  0  0  0  0  0  0  0
  131.9478  122.9477   60.8367 H   0  0  0  0  0  0  0  0  0  0  0  0
  130.9178  122.1478   59.5499 H   0  0  0  0  0  0  0  0  0  0  0  0
  129.3607  121.5775   61.0158 H   0  0  0  0  0  0  0  0  0  0  0  0
  130.6232  120.8768   62.1408 H   0  0  0  0  0  0  0  0  0  0  0  0
  129.2850  123.4310   62.3430 H   0  0  0  0  0  0  0  0  0  0  0  0
  130.9112  123.1729   66.3113 H   0  0  0  0  0  0  0  0  0  0  0  0
  130.1546  125.0022   67.8127 H   0  0  0  0  0  0  0  0  0  0  0  0
  128.7560  128.1210   66.6260 H   0  0  0  0  0  0  0  0  0  0  0  0
  131.2751  127.9014   68.4312 H   0  0  0  0  0  0  0  0  0  0  0  0
  131.5368  128.0646   70.8690 H   0  0  0  0  0  0  0  0  0  0  0  0
  129.0203  127.3625   64.3799 H   0  0  0  0  0  0  0  0  0  0  0  0
  129.7777  125.5381   62.8703 H   0  0  0  0  0  0  0  0  0  0  0  0
  128.9640  126.6178   57.1591 H   0  0  0  0  0  0  0  0  0  0  0  0
  127.5093  128.6276   56.9589 H   0  0  0  0  0  0  0  0  0  0  0  0
  1  2  1  0
  2  3  1  0
  3  4  2  0
  4  5  1  0
  5  6  2  0
  6  7  1  0
  7  8  2  0
  8  9  1  0
  9 10  1  0
 10 11  2  0
 10 12  1  0
 12 13  1  0
 13 14  1  0
 14 15  1  0
 15 16  1  0
 16 17  1  0
 17 18  1  0
 18 19  1  0
 19 20  1  0
 20 21  2  0
 20 22  1  0
 22 23  2  0
 23 24  1  0
 24 25  2  0
 25 26  1  0
 26 27  1  0
 27 28  2  0
 28 29  1  0
 29 30  2  0
 30 31  1  0
 31 32  2  0
 31 33  1  0
 30 34  1  0
 34 35  2  0
 35 36  1  0
 36 37  1  0
 37 38  2  0
 25 39  1  0
 39 40  2  0
 12 41  1  0
 41 42  2  0
  6 43  1  0
 43 44  2  0
 44  3  1  0
 41  8  1  0
 40 22  1  0
 38 27  1  0
 38 34  1  0
  1 45  1  0
  1 46  1  0
  1 47  1  0
  2 48  1  0
  2 49  1  0
  4 50  1  0
  5 51  1  0
  7 52  1  0
 13 53  1  0
 13 54  1  0
 14 55  1  0
 14 56  1  0
 15 57  1  0
 15 58  1  0
 16 59  1  0
 16 60  1  0
 17 61  1  0
 17 62  1  0
 18 63  1  0
 18 64  1  0
 19 65  1  0
 23 66  1  0
 24 67  1  0
 26 68  1  0
 28 69  1  0
 29 70  1  0
 39 71  1  0
 40 72  1  0
 43 73  1  0
 44 74  1  0
M  CHG  2  31   1  33  -1
M  END
>  <Binding energies>  (1) 
[-10.5]

>  <Ligand effiencies>  (1) 
[-0.22826086956521738]

>  <Interactions>  (1) 
["V-A:ILE:369:CG2:3237, V-A:ASP:366:CA:3210, V-B:GLU:543:C:9874, H-A:GLU:543:OE2:4910, V-A:ILE:369:CB:3236, V-A:GLU:543:C:4902, V-B:HIS:456:CD2:9039, V-B:GLU:543:CB:9878, H-B:LYS:547:NZ:9923, V-B:TYR:539:CE2:9848, V-A:TYR:484:CE2:4346, V-B:GLU:543:CG:9879, V-A:GLY:544:C:4912, V-A:ASP:366:CG:3213, H-B:HIS:456:ND1:9038, V-A:TYR:539:CD1:4873, H-B:TYR:539:OH:9850, H-B:ARG:545:N:9892, V-A:TYR:484:CZ:4347, V-A:GLU:543:CD:4908, V-B:HIS:456:CE1:9041, H-B:GLY:544:N:9887, V-A:SER:385:C:3405, V-A:ILE:369:CD1:3239, V-A:HIS:456:CE1:4070, V-B:TYR:539:CD2:9846, V-A:SER:385:CB:3409, V-A:MET:535:CE:4835, V-B:GLU:543:CD:9880, V-A:ILE:369:CG1:3238, V-A:ASP:366:CB:3212, H-A:LYS:547:NZ:4951, H-A:ARG:545:NH2:4928, V-A:LEU:475:CD2:4259, V-A:GLU:543:CB:4906, H-B:GLU:543:OE2:9882, V-A:SER:385:CA:3407, H-A:TYR:484:OH:4348"]

$$$$
ZINC68516183
     RDKit          3D

 39 39  0  0  0  0  0  0  0  0999 V2000
  129.8120  127.8140   71.8770 C   0  0  0  0  0  0  0  0  0  0  0  0
  128.4250  127.3190   71.4430 C   0  0  0  0  0  0  0  0  0  0  0  0
  128.3450  126.9970   69.9410 C   0  0  0  0  0  0  0  0  0  0  0  0
  129.5910  127.4640   69.1610 C   0  0  0  0  0  0  0  0  0  0  0  0
  129.4710  127.3110   67.6210 C   0  0  2  0  0  0  0  0  0  0  0  0
  128.1560  127.7630   67.1340 N   0  0  0  0  0  0  0  0  0  0  0  0
  127.7130  129.0310   67.1440 C   0  0  0  0  0  0  0  0  0  0  0  0
  126.4930  129.1480   66.6200 N   0  0  0  0  0  0  0  0  0  0  0  0
  128.3440  129.9940   67.5770 O   0  0  0  0  0  0  0  0  0  0  0  0
  129.8730  125.8770   67.1780 C   0  0  0  0  0  0  0  0  0  0  0  0
  129.5600  124.9400   67.9160 O   0  0  0  0  0  0  0  0  0  0  0  0
  130.5490  125.7360   66.0150 N   0  0  0  0  0  0  0  0  0  0  0  0
  131.0340  124.4960   65.5500 N   0  0  0  0  0  0  0  0  0  0  0  0
  131.7230  124.4560   64.3250 C   0  0  0  0  0  0  0  0  0  0  0  0
  133.1040  124.7160   64.2870 C   0  0  0  0  0  0  0  0  0  0  0  0
  134.0000  125.0760   65.7250 Cl  0  0  0  0  0  0  0  0  0  0  0  0
  133.7940  124.6830   63.0740 C   0  0  0  0  0  0  0  0  0  0  0  0
  133.1230  124.3830   61.8910 C   0  0  0  0  0  0  0  0  0  0  0  0
  133.9810  124.3440   60.3950 Cl  0  0  0  0  0  0  0  0  0  0  0  0
  131.7580  124.1060   61.9200 C   0  0  0  0  0  0  0  0  0  0  0  0
  131.0570  124.1360   63.1260 C   0  0  0  0  0  0  0  0  0  0  0  0
  129.3650  123.7640   63.0920 Cl  0  0  0  0  0  0  0  0  0  0  0  0
  129.8671  127.8337   72.9754 H   0  0  0  0  0  0  0  0  0  0  0  0
  130.5832  127.1356   71.4833 H   0  0  0  0  0  0  0  0  0  0  0  0
  129.9794  128.8274   71.4833 H   0  0  0  0  0  0  0  0  0  0  0  0
  128.1847  126.4077   72.0102 H   0  0  0  0  0  0  0  0  0  0  0  0
  127.7085  128.1289   71.6447 H   0  0  0  0  0  0  0  0  0  0  0  0
  128.2426  125.9085   69.8202 H   0  0  0  0  0  0  0  0  0  0  0  0
  127.4779  127.5370   69.5329 H   0  0  0  0  0  0  0  0  0  0  0  0
  129.7635  128.5260   69.3899 H   0  0  0  0  0  0  0  0  0  0  0  0
  130.4235  126.8192   69.4791 H   0  0  0  0  0  0  0  0  0  0  0  0
  130.1928  127.9823   67.1327 H   0  0  0  0  0  0  0  0  0  0  0  0
  127.5550  127.0380   66.7710 H   0  0  0  0  0  0  0  0  0  0  0  0
  126.0020  128.3360   66.2730 H   0  0  0  0  0  0  0  0  0  0  0  0
  126.0500  130.0540   66.5710 H   0  0  0  0  0  0  0  0  0  0  0  0
  130.7870  126.5120   65.4150 H   0  0  0  0  0  0  0  0  0  0  0  0
  131.5240  124.0600   66.3180 H   0  0  0  0  0  0  0  0  0  0  0  0
  134.8732  124.8950   63.0524 H   0  0  0  0  0  0  0  0  0  0  0  0
  131.2297  123.8622   60.9865 H   0  0  0  0  0  0  0  0  0  0  0  0
  1  2  1  0
  2  3  1  0
  3  4  1  0
  4  5  1  0
  5  6  1  0
  6  7  1  0
  7  8  1  0
  7  9  2  0
  5 10  1  0
 10 11  2  0
 10 12  1  0
 12 13  1  0
 13 14  1  0
 14 15  2  0
 15 16  1  0
 15 17  1  0
 17 18  2  0
 18 19  1  0
 18 20  1  0
 20 21  2  0
 21 22  1  0
 21 14  1  0
  1 23  1  0
  1 24  1  0
  1 25  1  0
  2 26  1  0
  2 27  1  0
  3 28  1  0
  3 29  1  0
  4 30  1  0
  4 31  1  0
  5 32  1  6
  6 33  1  0
  8 34  1  0
  8 35  1  0
 12 36  1  0
 13 37  1  0
 17 38  1  0
 20 39  1  0
M  END
>  <Binding energies>  (1) 
[-7.88]

>  <Ligand effiencies>  (1) 
[-0.29185185185185186]

>  <Interactions>  (1) 
["V-A:ILE:369:CG2:3237, V-A:ASP:366:CA:3210, V-A:GLY:454:CA:4049, V-B:GLU:543:C:9874, H-A:GLU:543:OE2:4910, V-B:HIS:456:CD2:9039, V-B:GLU:543:CB:9878, V-A:TYR:484:CE2:4346, V-B:GLU:543:CG:9879, V-A:ASP:366:CG:3213, V-A:GLU:543:CD:4908, V-A:TYR:484:CZ:4347, H-B:TYR:484:OH:9319, V-B:HIS:456:CE1:9041, V-A:ARG:545:CG:4922, V-A:GLY:453:C:4042, V-A:HIS:456:CE1:4070, V-B:TYR:484:CZ:9318, V-A:ILE:369:CD1:3239, V-B:GLU:543:CD:9880, V-A:ASP:366:CB:3212, V-A:ARG:545:CD:4923, V-A:ARG:545:CZ:4926, H-A:GLU:543:OE1:4909, V-A:GLU:543:CB:4906, H-B:GLU:543:OE2:9882, V-A:GLY:453:CA:4044, H-A:TYR:484:OH:4348"]

$$$$
ZINC68601843
     RDKit          3D

 58 60  0  0  0  0  0  0  0  0999 V2000
  131.3900  126.1870   57.8990 C   0  0  0  0  0  0  0  0  0  0  0  0
  130.2580  125.1700   57.9460 C   0  0  0  0  0  0  0  0  0  0  0  0
  130.1500  124.3710   58.8770 O   0  0  0  0  0  0  0  0  0  0  0  0
  129.4370  125.2710   56.8750 O   0  0  0  0  0  0  0  0  0  0  0  0
  128.1360  125.8720   56.9640 C   0  0  2  0  0  0  0  0  0  0  0  0
  128.2140  127.2400   57.6590 C   0  0  0  0  0  0  0  0  0  0  0  0
  128.6850  127.0910   59.1140 C   0  0  0  0  0  0  0  0  0  0  0  0
  127.8330  126.1580   60.0490 C   0  0  2  0  0  0  0  0  0  0  0  0
  126.5520  126.9380   60.4640 C   0  0  0  0  0  0  0  0  0  0  0  0
  128.5970  125.6950   61.3570 C   0  0  0  0  0  0  0  0  0  0  0  0
  129.6090  126.4650   61.9860 C   0  0  0  0  0  0  0  0  0  0  0  0
  129.9120  127.7320   61.5510 O   0  0  0  0  0  0  0  0  0  0  0  0
  130.3150  125.9990   63.1010 C   0  0  0  0  0  0  0  0  0  0  0  0
  131.3150  126.7810   63.6390 O   0  0  0  0  0  0  0  0  0  0  0  0
  130.0150  124.7580   63.6730 C   0  0  0  0  0  0  0  0  0  0  0  0
  130.8210  124.2280   64.8910 C   0  0  2  0  0  0  0  0  0  0  0  0
  130.2520  124.7250   66.2370 C   0  0  0  0  0  0  0  0  0  0  0  0
  132.3500  124.4500   64.7800 C   0  0  0  0  0  0  0  0  0  0  0  0
  132.7690  125.5790   65.5230 O   0  0  0  0  0  0  0  0  0  0  0  0
  128.9570  124.0130   63.1290 C   0  0  0  0  0  0  0  0  0  0  0  0
  128.6470  122.8060   63.7170 O   0  0  0  0  0  0  0  0  0  0  0  0
  128.2380  124.4710   61.9960 C   0  0  0  0  0  0  0  0  0  0  0  0
  127.0450  123.6870   61.5060 C   0  0  0  0  0  0  0  0  0  0  0  0
  126.4200  122.8580   62.1740 O   0  0  0  0  0  0  0  0  0  0  0  0
  126.6220  123.8560   60.0270 C   0  0  0  0  0  0  0  0  0  0  0  0
  125.6390  123.2220   59.6370 O   0  0  0  0  0  0  0  0  0  0  0  0
  127.5040  124.8300   59.2120 C   0  0  1  0  0  0  0  0  0  0  0  0
  127.1130  124.9290   57.6700 C   0  0  0  0  0  0  0  0  0  0  0  0
  125.6740  125.4700   57.4250 C   0  0  0  0  0  0  0  0  0  0  0  0
  127.2460  123.5300   56.9920 C   0  0  0  0  0  0  0  0  0  0  0  0
  131.6864  126.4533   58.9243 H   0  0  0  0  0  0  0  0  0  0  0  0
  132.2510  125.7531   57.3694 H   0  0  0  0  0  0  0  0  0  0  0  0
  131.0505  127.0893   57.3694 H   0  0  0  0  0  0  0  0  0  0  0  0
  127.7699  126.0332   55.9393 H   0  0  0  0  0  0  0  0  0  0  0  0
  128.9237  127.8803   57.1147 H   0  0  0  0  0  0  0  0  0  0  0  0
  127.2108  127.6912   57.6593 H   0  0  0  0  0  0  0  0  0  0  0  0
  129.7097  126.6915   59.0916 H   0  0  0  0  0  0  0  0  0  0  0  0
  128.5880  128.0964   59.5495 H   0  0  0  0  0  0  0  0  0  0  0  0
  126.4864  126.9779   61.5613 H   0  0  0  0  0  0  0  0  0  0  0  0
  126.5991  127.9608   60.0620 H   0  0  0  0  0  0  0  0  0  0  0  0
  125.6649  126.4266   60.0620 H   0  0  0  0  0  0  0  0  0  0  0  0
  130.4770  128.2240   62.1490 H   0  0  0  0  0  0  0  0  0  0  0  0
  131.3060  127.6890   63.3320 H   0  0  0  0  0  0  0  0  0  0  0  0
  130.6861  123.1365   64.8687 H   0  0  0  0  0  0  0  0  0  0  0  0
  130.7980  124.2481   67.0644 H   0  0  0  0  0  0  0  0  0  0  0  0
  130.3671  125.8170   66.3029 H   0  0  0  0  0  0  0  0  0  0  0  0
  129.1854  124.4641   66.3029 H   0  0  0  0  0  0  0  0  0  0  0  0
  132.8686  123.5586   65.1627 H   0  0  0  0  0  0  0  0  0  0  0  0
  132.5958  124.6245   63.7221 H   0  0  0  0  0  0  0  0  0  0  0  0
  132.1190  126.2780   65.4100 H   0  0  0  0  0  0  0  0  0  0  0  0
  127.7000  122.6550   63.7790 H   0  0  0  0  0  0  0  0  0  0  0  0
  128.5084  124.4020   59.0779 H   0  0  0  0  0  0  0  0  0  0  0  0
  125.1823  125.6549   58.3915 H   0  0  0  0  0  0  0  0  0  0  0  0
  125.7275  126.4094   56.8552 H   0  0  0  0  0  0  0  0  0  0  0  0
  125.0954  124.7280   56.8552 H   0  0  0  0  0  0  0  0  0  0  0  0
  127.3199  122.7526   57.7667 H   0  0  0  0  0  0  0  0  0  0  0  0
  126.3618  123.3405   56.3656 H   0  0  0  0  0  0  0  0  0  0  0  0
  128.1500  123.5106   56.3656 H   0  0  0  0  0  0  0  0  0  0  0  0
  1  2  1  0
  2  3  2  0
  2  4  1  0
  4  5  1  0
  5  6  1  0
  6  7  1  0
  7  8  1  0
  8  9  1  1
  8 10  1  0
 10 11  2  0
 11 12  1  0
 11 13  1  0
 13 14  1  0
 13 15  2  0
 15 16  1  0
 16 17  1  0
 16 18  1  0
 18 19  1  0
 15 20  1  0
 20 21  1  0
 20 22  2  0
 22 23  1  0
 23 24  2  0
 23 25  1  0
 25 26  2  0
 25 27  1  0
 27 28  1  0
 28 29  1  0
 28 30  1  0
 28  5  1  0
 27  8  1  0
 22 10  1  0
  1 31  1  0
  1 32  1  0
  1 33  1  0
  5 34  1  6
  6 35  1  0
  6 36  1  0
  7 37  1  0
  7 38  1  0
  9 39  1  0
  9 40  1  0
  9 41  1  0
 12 42  1  0
 14 43  1  0
 16 44  1  1
 17 45  1  0
 17 46  1  0
 17 47  1  0
 18 48  1  0
 18 49  1  0
 19 50  1  0
 21 51  1  0
 27 52  1  6
 29 53  1  0
 29 54  1  0
 29 55  1  0
 30 56  1  0
 30 57  1  0
 30 58  1  0
M  END
>  <Binding energies>  (1) 
[-6.24]

>  <Ligand effiencies>  (1) 
[-0.18352941176470589]

>  <Interactions>  (1) 
["V-B:PRO:540:CA:9855, H-A:GLU:543:OE2:4910, V-B:GLU:543:CB:9878, V-B:ASP:366:CG:8184, V-B:TYR:539:CE2:9848, V-A:TYR:484:CE2:4346, H-B:ALA:541:O:9861, V-B:GLU:543:CG:9879, V-B:TYR:539:CZ:9849, H-B:GLU:543:OE1:9881, V-B:TYR:531:CZ:9766, H-B:TYR:539:OH:9850, H-B:ALA:541:N:9863, V-B:TYR:531:CE2:9765, V-A:TYR:484:CZ:4347, V-B:PRO:540:CB:9857, V-B:GLU:543:CD:9880, H-A:ARG:545:NH2:4928, H-A:GLU:543:OE1:4909, H-A:ARG:545:NE:4924, H-A:TYR:484:OH:4348"]

$$$$
ZINC686703191
     RDKit          3D

 37 36  0  0  0  0  0  0  0  0999 V2000
  129.0690  133.3100   57.3350 C   0  0  0  0  0  0  0  0  0  0  0  0
  130.1110  132.7360   57.0590 C   0  0  0  0  0  0  0  0  0  0  0  0
  131.3790  132.0560   56.7320 C   0  0  0  0  0  0  0  0  0  0  0  0
  131.5450  130.6410   57.3280 C   0  0  0  0  0  0  0  0  0  0  0  0
  132.8470  130.4280   58.1300 C   0  0  0  0  0  0  0  0  0  0  0  0
  133.0180  131.4440   59.2760 C   0  0  0  0  0  0  0  0  0  0  0  0
  131.6960  131.8310   59.9840 C   0  0  0  0  0  0  0  0  0  0  0  0
  130.8060  130.6700   60.5210 C   0  0  1  0  0  0  0  0  0  0  0  0
  131.5660  129.9350   61.6430 N   0  0  0  0  0  0  0  0  0  0  0  0
  129.3900  131.0990   61.0280 C   0  0  1  0  0  0  0  0  0  0  0  0
  128.5530  129.9140   61.5580 C   0  0  0  0  0  0  0  0  0  0  0  0
  129.5290  132.4000   62.4310 S   0  0  0  0  0  0  0  0  0  0  0  0
  128.2430  131.8880   63.7150 C   0  0  0  0  0  0  0  0  0  0  0  0
  130.8550  132.2670   63.0430 O   0  0  0  0  0  0  0  0  0  0  0  0
  129.1070  133.7020   61.9030 O   0  0  0  0  0  0  0  0  0  0  0  0
  128.1304  133.8270   57.5836 H   0  0  0  0  0  0  0  0  0  0  0  0
  131.4471  131.9732   55.6372 H   0  0  0  0  0  0  0  0  0  0  0  0
  132.1755  132.6686   57.1796 H   0  0  0  0  0  0  0  0  0  0  0  0
  130.6942  130.4495   57.9985 H   0  0  0  0  0  0  0  0  0  0  0  0
  131.5882  129.9475   56.4752 H   0  0  0  0  0  0  0  0  0  0  0  0
  132.8338  129.4148   58.5581 H   0  0  0  0  0  0  0  0  0  0  0  0
  133.6890  130.5681   57.4361 H   0  0  0  0  0  0  0  0  0  0  0  0
  133.6957  131.0084   60.0250 H   0  0  0  0  0  0  0  0  0  0  0  0
  133.4164  132.3649   58.8251 H   0  0  0  0  0  0  0  0  0  0  0  0
  131.9549  132.4718   60.8398 H   0  0  0  0  0  0  0  0  0  0  0  0
  131.0892  132.3143   59.2041 H   0  0  0  0  0  0  0  0  0  0  0  0
  130.6132  130.0109   59.6617 H   0  0  0  0  0  0  0  0  0  0  0  0
  132.4510  129.5930   61.2980 H   0  0  0  0  0  0  0  0  0  0  0  0
  131.0230  129.1530   61.9770 H   0  0  0  0  0  0  0  0  0  0  0  0
  131.7410  130.5640   62.4140 H   0  0  0  0  0  0  0  0  0  0  0  0
  128.8803  131.5238   60.1507 H   0  0  0  0  0  0  0  0  0  0  0  0
  128.5596  129.9234   62.6579 H   0  0  0  0  0  0  0  0  0  0  0  0
  127.5180  130.0055   61.1968 H   0  0  0  0  0  0  0  0  0  0  0  0
  128.9852  128.9692   61.1968 H   0  0  0  0  0  0  0  0  0  0  0  0
  128.6485  132.0495   64.7247 H   0  0  0  0  0  0  0  0  0  0  0  0
  127.3334  132.4926   63.5842 H   0  0  0  0  0  0  0  0  0  0  0  0
  127.9978  130.8237   63.5842 H   0  0  0  0  0  0  0  0  0  0  0  0
  1  2  3  0
  2  3  1  0
  3  4  1  0
  4  5  1  0
  5  6  1  0
  6  7  1  0
  7  8  1  0
  8  9  1  0
  8 10  1  0
 10 11  1  0
 10 12  1  0
 12 13  1  0
 12 14  2  0
 12 15  2  0
  1 16  1  0
  3 17  1  0
  3 18  1  0
  4 19  1  0
  4 20  1  0
  5 21  1  0
  5 22  1  0
  6 23  1  0
  6 24  1  0
  7 25  1  0
  7 26  1  0
  8 27  1  6
  9 28  1  0
  9 29  1  0
  9 30  1  0
 10 31  1  6
 11 32  1  0
 11 33  1  0
 11 34  1  0
 13 35  1  0
 13 36  1  0
 13 37  1  0
M  CHG  1   9   1
M  END
>  <Binding energies>  (1) 
[-6.27]

>  <Ligand effiencies>  (1) 
[-0.34833333333333333]

>  <Interactions>  (1) 
["H-A:ALA:541:N:4891, V-A:ASP:366:CG:3213, V-A:LEU:363:CD1:3189, V-A:TYR:539:CD1:4873, V-A:TYR:531:CE2:4793, V-A:ALA:541:CB:4892, V-A:TYR:539:CA:4869, V-A:GLU:543:CD:4908, V-A:TYR:531:CZ:4794, V-A:TYR:539:C:4867, V-A:ASP:366:CB:3212, H-A:GLU:543:OE1:4909, H-A:ASP:366:OD1:3214, V-A:PRO:540:N:4884, V-A:TYR:539:CG:4872, V-A:PRO:540:CB:4885, V-A:LEU:363:CA:3185, V-A:PRO:540:CA:4883, H-A:ASP:366:OD2:3215, V-A:TYR:539:CE1:4875"]

$$$$
ZINC687793088
     RDKit          3D

 30 31  0  0  0  0  0  0  0  0999 V2000
  130.1640  126.9680   64.0930 N   0  0  0  0  0  0  0  0  0  0  0  0
  128.7420  127.4130   64.4670 C   0  0  2  0  0  0  0  0  0  0  0  0
  128.3550  128.6410   63.6080 C   0  0  0  0  0  0  0  0  0  0  0  0
  126.6090  129.0710   63.8610 S   0  0  0  0  0  0  0  0  0  0  0  0
  128.7050  127.6670   65.9670 C   0  0  0  0  0  0  0  0  0  0  0  0
  129.1730  126.9180   66.9310 N   0  0  0  0  0  0  0  0  0  0  0  0
  128.8710  127.6270   68.0020 C   0  0  0  0  0  0  0  0  0  0  0  0
  129.2350  127.1650   69.4070 C   0  0  1  0  0  0  0  0  0  0  0  0
  130.2350  128.0740   70.1590 C   0  0  0  0  0  0  0  0  0  0  0  0
  129.7430  128.1900   71.6120 C   0  0  0  0  0  0  0  0  0  0  0  0
  128.6210  127.1580   71.7540 C   0  0  0  0  0  0  0  0  0  0  0  0
  129.1360  125.9910   72.1500 F   0  0  0  0  0  0  0  0  0  0  0  0
  127.6970  127.5380   72.6370 F   0  0  0  0  0  0  0  0  0  0  0  0
  128.0330  126.9930   70.3530 C   0  0  0  0  0  0  0  0  0  0  0  0
  128.2380  128.7630   67.7910 N   0  0  0  0  0  0  0  0  0  0  0  0
  128.1140  128.8060   66.4050 O   0  0  0  0  0  0  0  0  0  0  0  0
  130.1320  126.1100   63.5600 H   0  0  0  0  0  0  0  0  0  0  0  0
  130.7110  126.8130   64.9280 H   0  0  0  0  0  0  0  0  0  0  0  0
  130.6160  127.6780   63.5350 H   0  0  0  0  0  0  0  0  0  0  0  0
  127.9906  126.6393   64.2510 H   0  0  0  0  0  0  0  0  0  0  0  0
  128.9837  129.4965   63.8959 H   0  0  0  0  0  0  0  0  0  0  0  0
  128.5103  128.3956   62.5470 H   0  0  0  0  0  0  0  0  0  0  0  0
  126.4790  128.4690   65.0460 H   0  0  0  0  0  0  0  0  0  0  0  0
  129.7004  126.1934   69.1846 H   0  0  0  0  0  0  0  0  0  0  0  0
  131.2402  127.6277   70.1363 H   0  0  0  0  0  0  0  0  0  0  0  0
  130.2919  129.0657   69.6864 H   0  0  0  0  0  0  0  0  0  0  0  0
  130.5608  127.9661   72.3127 H   0  0  0  0  0  0  0  0  0  0  0  0
  129.3905  129.2065   71.8410 H   0  0  0  0  0  0  0  0  0  0  0  0
  127.5848  125.9955   70.2346 H   0  0  0  0  0  0  0  0  0  0  0  0
  127.2323  127.7187   70.1476 H   0  0  0  0  0  0  0  0  0  0  0  0
  1  2  1  0
  2  3  1  0
  3  4  1  0
  2  5  1  0
  5  6  2  0
  6  7  1  0
  7  8  1  0
  8  9  1  0
  9 10  1  0
 10 11  1  0
 11 12  1  0
 11 13  1  0
 11 14  1  0
  7 15  2  0
 15 16  1  0
 16  5  1  0
 14  8  1  0
  1 17  1  0
  1 18  1  0
  1 19  1  0
  2 20  1  1
  3 21  1  0
  3 22  1  0
  4 23  1  0
  8 24  1  6
  9 25  1  0
  9 26  1  0
 10 27  1  0
 10 28  1  0
 14 29  1  0
 14 30  1  0
M  CHG  1   1   1
M  END
>  <Binding energies>  (1) 
[-6.01]

>  <Ligand effiencies>  (1) 
[-0.3005]

>  <Interactions>  (1) 
["V-A:HIS:456:CE1:4070, H-B:GLU:543:OE2:9882, V-B:GLU:543:C:9874, H-B:GLU:543:OE1:9881, H-A:GLU:543:OE2:4910, V-A:GLU:543:C:4902, V-B:HIS:456:CD2:9039, V-A:GLU:543:CG:4907, V-B:GLU:543:CD:9880, V-B:HIS:456:CG:9037, V-A:GLU:543:CD:4908, V-B:GLU:543:CG:9879, H-A:GLU:543:OE1:4909, V-B:HIS:456:CE1:9041, V-A:HIS:456:CD2:4068, V-A:GLU:543:CB:4906"]

$$$$
ZINC687793088-again1
     RDKit          3D

 29 30  0  0  0  0  0  0  0  0999 V2000
  131.7580  125.6310   66.9060 N   0  0  0  0  0  0  0  0  0  0  0  0
  131.2010  125.4660   65.5750 C   0  0  2  0  0  0  0  0  0  0  0  0
  130.0840  124.3970   65.6300 C   0  0  0  0  0  0  0  0  0  0  0  0
  130.6610  122.8100   64.9580 S   0  0  0  0  0  0  0  0  0  0  0  0
  132.3110  125.1370   64.5880 C   0  0  0  0  0  0  0  0  0  0  0  0
  132.2110  124.8460   63.3170 N   0  0  0  0  0  0  0  0  0  0  0  0
  133.4670  124.6170   62.9880 C   0  0  0  0  0  0  0  0  0  0  0  0
  133.8770  124.2510   61.5670 C   0  0  1  0  0  0  0  0  0  0  0  0
  133.6970  122.7600   61.1970 C   0  0  0  0  0  0  0  0  0  0  0  0
  133.1320  122.7120   59.7660 C   0  0  0  0  0  0  0  0  0  0  0  0
  133.2240  124.1460   59.2350 C   0  0  0  0  0  0  0  0  0  0  0  0
  134.4020  124.3240   58.6350 F   0  0  0  0  0  0  0  0  0  0  0  0
  132.2540  124.4190   58.3620 F   0  0  0  0  0  0  0  0  0  0  0  0
  133.1500  125.0460   60.4680 C   0  0  0  0  0  0  0  0  0  0  0  0
  134.3540  124.7210   63.9560 N   0  0  0  0  0  0  0  0  0  0  0  0
  133.5790  125.0650   65.0600 O   0  0  0  0  0  0  0  0  0  0  0  0
  132.5670  125.0330   67.0030 H   0  0  0  0  0  0  0  0  0  0  0  0
  132.1010  126.5750   67.0110 H   0  0  0  0  0  0  0  0  0  0  0  0
  130.7410  126.3994   65.2183 H   0  0  0  0  0  0  0  0  0  0  0  0
  129.7760  124.2531   66.6762 H   0  0  0  0  0  0  0  0  0  0  0  0
  129.2369  124.7461   65.0213 H   0  0  0  0  0  0  0  0  0  0  0  0
  131.9650  123.0960   65.0220 H   0  0  0  0  0  0  0  0  0  0  0  0
  134.9460  124.5091   61.5928 H   0  0  0  0  0  0  0  0  0  0  0  0
  134.6665  122.2419   61.2371 H   0  0  0  0  0  0  0  0  0  0  0  0
  133.0163  122.2616   61.9029 H   0  0  0  0  0  0  0  0  0  0  0  0
  133.7294  122.0324   59.1405 H   0  0  0  0  0  0  0  0  0  0  0  0
  132.0972  122.3393   59.7506 H   0  0  0  0  0  0  0  0  0  0  0  0
  133.6566  126.0044   60.2812 H   0  0  0  0  0  0  0  0  0  0  0  0
  132.1145  125.2931   60.7449 H   0  0  0  0  0  0  0  0  0  0  0  0
  1  2  1  0
  2  3  1  0
  3  4  1  0
  2  5  1  0
  5  6  2  0
  6  7  1  0
  7  8  1  0
  8  9  1  0
  9 10  1  0
 10 11  1  0
 11 12  1  0
 11 13  1  0
 11 14  1  0
  7 15  2  0
 15 16  1  0
 16  5  1  0
 14  8  1  0
  1 17  1  0
  1 18  1  0
  2 19  1  6
  3 20  1  0
  3 21  1  0
  4 22  1  0
  8 23  1  1
  9 24  1  0
  9 25  1  0
 10 26  1  0
 10 27  1  0
 14 28  1  0
 14 29  1  0
M  END
>  <Binding energies>  (1) 
[-5.63]

>  <Ligand effiencies>  (1) 
[-0.2963157894736842]

>  <Interactions>  (1) 
["V-A:ILE:369:CG2:3237, V-A:ASP:366:CA:3210, H-A:GLU:543:OE2:4910, V-A:ILE:369:CB:3236, V-B:GLU:543:CB:9878, H-A:ARG:545:NH1:4927, V-A:TYR:484:CE2:4346, V-B:TYR:539:CE2:9848, V-B:GLU:543:CG:9879, V-A:ASP:366:CG:3213, V-B:TYR:539:CZ:9849, V-A:GLU:543:CD:4908, H-A:GLY:454:N:4050, V-A:ILE:369:CD1:3239, V-A:ASP:366:C:3208, V-B:TYR:539:CD2:9846, V-A:ASP:366:CB:3212, H-A:ARG:545:NH2:4928, V-A:ARG:545:CZ:4926, H-A:ARG:545:NE:4924, H-A:TYR:484:OH:4348"]

$$$$
ZINC68870114
     RDKit          3D

 49 51  0  0  0  0  0  0  0  0999 V2000
  127.5470  129.2710   66.5410 C   0  0  0  0  0  0  0  0  0  0  0  0
  128.3780  128.0350   66.2360 C   0  0  0  0  0  0  0  0  0  0  0  0
  128.7390  127.6700   65.0920 N   0  0  0  0  0  0  0  0  0  0  0  0
  129.4620  126.5700   65.2650 N   0  0  0  0  0  0  0  0  0  0  0  0
  130.0280  125.9120   64.0770 C   0  0  0  0  0  0  0  0  0  0  0  0
  130.5710  124.5550   64.2660 N   0  0  0  0  0  0  0  0  0  0  0  0
  131.6150  124.1960   63.2930 C   0  0  0  0  0  0  0  0  0  0  0  0
  133.0660  124.2240   63.8370 C   0  0  0  0  0  0  0  0  0  0  0  0
  133.1430  125.0980   65.1010 C   0  0  0  0  0  0  0  0  0  0  0  0
  134.0970  124.6940   62.7920 C   0  0  0  0  0  0  0  0  0  0  0  0
  129.4750  123.5950   64.1540 C   0  0  0  0  0  0  0  0  0  0  0  0
  129.7710  122.2480   63.5340 C   0  0  0  0  0  0  0  0  0  0  0  0
  129.5180  122.3580   65.0220 C   0  0  0  0  0  0  0  0  0  0  0  0
  129.5240  126.1890   66.5760 C   0  0  0  0  0  0  0  0  0  0  0  0
  130.2850  124.8500   67.2370 S   0  0  0  0  0  0  0  0  0  0  0  0
  128.8010  127.1750   67.1940 N   0  0  0  0  0  0  0  0  0  0  0  0
  128.4920  127.2740   68.6370 C   0  0  0  0  0  0  0  0  0  0  0  0
  129.6970  127.6370   69.5360 C   0  0  0  0  0  0  0  0  0  0  0  0
  129.3330  127.7860   70.9980 C   0  0  0  0  0  0  0  0  0  0  0  0
  130.0470  128.4110   72.0200 C   0  0  0  0  0  0  0  0  0  0  0  0
  129.4130  128.3900   73.2650 C   0  0  0  0  0  0  0  0  0  0  0  0
  128.1940  127.7390   73.2250 C   0  0  0  0  0  0  0  0  0  0  0  0
  127.8360  127.1540   71.6350 S   0  0  0  0  0  0  0  0  0  0  0  0
  127.4627  129.3964   67.6306 H   0  0  0  0  0  0  0  0  0  0  0  0
  128.0339  130.1566   66.1066 H   0  0  0  0  0  0  0  0  0  0  0  0
  126.5432  129.1543   66.1066 H   0  0  0  0  0  0  0  0  0  0  0  0
  129.2324  125.8499   63.3199 H   0  0  0  0  0  0  0  0  0  0  0  0
  130.8908  126.5303   63.7883 H   0  0  0  0  0  0  0  0  0  0  0  0
  131.4072  123.1780   62.9318 H   0  0  0  0  0  0  0  0  0  0  0  0
  131.5714  124.9614   62.5041 H   0  0  0  0  0  0  0  0  0  0  0  0
  133.3298  123.1862   64.0889 H   0  0  0  0  0  0  0  0  0  0  0  0
  133.0866  124.4576   65.9936 H   0  0  0  0  0  0  0  0  0  0  0  0
  134.0934  125.6518   65.1065 H   0  0  0  0  0  0  0  0  0  0  0  0
  132.3041  125.8094   65.1065 H   0  0  0  0  0  0  0  0  0  0  0  0
  134.9820  125.0975   63.3058 H   0  0  0  0  0  0  0  0  0  0  0  0
  134.3949  123.8427   62.1622 H   0  0  0  0  0  0  0  0  0  0  0  0
  133.6498  125.4772   62.1622 H   0  0  0  0  0  0  0  0  0  0  0  0
  128.7380  124.3910   63.9718 H   0  0  0  0  0  0  0  0  0  0  0  0
  129.0262  121.7662   62.8835 H   0  0  0  0  0  0  0  0  0  0  0  0
  130.5798  121.8393   62.9104 H   0  0  0  0  0  0  0  0  0  0  0  0
  128.5893  121.9561   65.4532 H   0  0  0  0  0  0  0  0  0  0  0  0
  130.0667  122.0623   65.9284 H   0  0  0  0  0  0  0  0  0  0  0  0
  127.7212  128.0476   68.7694 H   0  0  0  0  0  0  0  0  0  0  0  0
  128.1618  126.2731   68.9519 H   0  0  0  0  0  0  0  0  0  0  0  0
  130.4525  126.8428   69.4439 H   0  0  0  0  0  0  0  0  0  0  0  0
  130.0750  128.6119   69.1944 H   0  0  0  0  0  0  0  0  0  0  0  0
  131.0282  128.8816   71.8593 H   0  0  0  0  0  0  0  0  0  0  0  0
  129.8362  128.8408   74.1747 H   0  0  0  0  0  0  0  0  0  0  0  0
  127.5336  127.6088   74.0950 H   0  0  0  0  0  0  0  0  0  0  0  0
  1  2  1  0
  2  3  2  0
  3  4  1  0
  4  5  1  0
  5  6  1  0
  6  7  1  0
  7  8  1  0
  8  9  1  0
  8 10  1  0
  6 11  1  0
 11 12  1  0
 12 13  1  0
  4 14  1  0
 14 15  2  0
 14 16  1  0
 16 17  1  0
 17 18  1  0
 18 19  1  0
 19 20  2  0
 20 21  1  0
 21 22  2  0
 22 23  1  0
 16  2  1  0
 23 19  1  0
 13 11  1  0
  1 24  1  0
  1 25  1  0
  1 26  1  0
  5 27  1  0
  5 28  1  0
  7 29  1  0
  7 30  1  0
  8 31  1  0
  9 32  1  0
  9 33  1  0
  9 34  1  0
 10 35  1  0
 10 36  1  0
 10 37  1  0
 11 38  1  0
 12 39  1  0
 12 40  1  0
 13 41  1  0
 13 42  1  0
 17 43  1  0
 17 44  1  0
 18 45  1  0
 18 46  1  0
 20 47  1  0
 21 48  1  0
 22 49  1  0
M  END
>  <Binding energies>  (1) 
[-5.67]

>  <Ligand effiencies>  (1) 
[-0.2465217391304348]

>  <Interactions>  (1) 
["V-A:GLY:454:CA:4049, V-B:HIS:456:CD2:9039, V-B:GLU:543:CB:9878, V-B:ALA:541:CB:9864, V-A:TYR:484:CE2:4346, V-B:GLU:543:CG:9879, V-A:GLY:544:C:4912, V-A:GLU:543:CD:4908, V-A:TYR:484:CZ:4347, V-B:HIS:456:CE1:9041, V-A:HIS:456:CE1:4070, V-B:TYR:484:CZ:9318, V-B:GLY:544:C:9884, V-A:GLU:543:CG:4907, V-B:GLU:543:CD:9880, V-A:ARG:545:CD:4923, V-A:LEU:475:CD2:4259, V-A:ARG:545:CZ:4926, V-A:GLU:543:CB:4906, V-A:GLY:453:CA:4044"]

$$$$
ZINC688807204
     RDKit          3D

 36 37  0  0  0  0  0  0  0  0999 V2000
  129.4330  129.3550   72.7960 C   0  0  0  0  0  0  0  0  0  0  0  0
  129.7670  128.6310   71.8710 C   0  0  0  0  0  0  0  0  0  0  0  0
  130.1530  127.7570   70.7460 C   0  0  0  0  0  0  0  0  0  0  0  0
  129.0040  127.2610   69.9720 N   0  0  0  0  0  0  0  0  0  0  0  0
  129.1400  127.0130   68.5700 C   0  0  0  0  0  0  0  0  0  0  0  0
  128.6180  127.9180   67.6190 C   0  0  0  0  0  0  0  0  0  0  0  0
  128.7390  127.6990   66.2450 C   0  0  0  0  0  0  0  0  0  0  0  0
  129.4040  126.5610   65.7930 C   0  0  0  0  0  0  0  0  0  0  0  0
  129.9130  125.6580   66.7020 C   0  0  0  0  0  0  0  0  0  0  0  0
  129.7940  125.8680   68.0750 C   0  0  0  0  0  0  0  0  0  0  0  0
  130.5360  124.6170   66.0260 N   0  0  0  0  0  0  0  0  0  0  0  0
  130.5180  124.7690   64.6860 C   0  0  0  0  0  0  0  0  0  0  0  0
  131.0700  124.0590   63.8460 O   0  0  0  0  0  0  0  0  0  0  0  0
  129.6520  126.0100   64.4230 C   0  0  2  0  0  0  0  0  0  0  0  0
  130.4620  126.9720   63.5400 N   0  0  0  0  0  0  0  0  0  0  0  0
  127.7460  127.0740   70.7270 C   0  0  0  0  0  0  0  0  0  0  0  0
  127.9100  126.2240   72.0040 C   0  0  0  0  0  0  0  0  0  0  0  0
  126.5270  126.6870   69.8630 C   0  0  0  0  0  0  0  0  0  0  0  0
  129.1322  130.0071   73.6292 H   0  0  0  0  0  0  0  0  0  0  0  0
  130.8088  128.3264   70.0709 H   0  0  0  0  0  0  0  0  0  0  0  0
  130.6596  126.8797   71.1746 H   0  0  0  0  0  0  0  0  0  0  0  0
  128.1006  128.8225   67.9714 H   0  0  0  0  0  0  0  0  0  0  0  0
  128.3142  128.4167   65.5278 H   0  0  0  0  0  0  0  0  0  0  0  0
  130.2143  125.1334   68.7776 H   0  0  0  0  0  0  0  0  0  0  0  0
  131.0280  123.8640   66.4860 H   0  0  0  0  0  0  0  0  0  0  0  0
  128.7039  125.8193   63.8988 H   0  0  0  0  0  0  0  0  0  0  0  0
  130.8070  126.4890   62.7230 H   0  0  0  0  0  0  0  0  0  0  0  0
  131.2460  127.3400   64.0590 H   0  0  0  0  0  0  0  0  0  0  0  0
  129.8810  127.7450   63.2470 H   0  0  0  0  0  0  0  0  0  0  0  0
  127.4965  128.0823   71.0891 H   0  0  0  0  0  0  0  0  0  0  0  0
  127.7863  126.8649   72.8894 H   0  0  0  0  0  0  0  0  0  0  0  0
  127.1484  125.4304   72.0165 H   0  0  0  0  0  0  0  0  0  0  0  0
  128.9122  125.7707   72.0165 H   0  0  0  0  0  0  0  0  0  0  0  0
  125.6841  126.4194   70.5171 H   0  0  0  0  0  0  0  0  0  0  0  0
  126.2423  127.5389   69.2281 H   0  0  0  0  0  0  0  0  0  0  0  0
  126.7858  125.8269   69.2281 H   0  0  0  0  0  0  0  0  0  0  0  0
  1  2  3  0
  2  3  1  0
  3  4  1  0
  4  5  1  0
  5  6  2  0
  6  7  1  0
  7  8  2  0
  8  9  1  0
  9 10  2  0
  9 11  1  0
 11 12  1  0
 12 13  2  0
 12 14  1  0
 14 15  1  0
  4 16  1  0
 16 17  1  0
 16 18  1  0
 10  5  1  0
 14  8  1  0
  1 19  1  0
  3 20  1  0
  3 21  1  0
  6 22  1  0
  7 23  1  0
 10 24  1  0
 11 25  1  0
 14 26  1  6
 15 27  1  0
 15 28  1  0
 15 29  1  0
 16 30  1  0
 17 31  1  0
 17 32  1  0
 17 33  1  0
 18 34  1  0
 18 35  1  0
 18 36  1  0
M  CHG  1  15   1
M  END
>  <Binding energies>  (1) 
[-6.63]

>  <Ligand effiencies>  (1) 
[-0.30136363636363633]

>  <Interactions>  (1) 
["V-B:HIS:456:CD2:9039, H-A:GLU:543:OE2:4910, V-A:GLU:543:C:4902, V-B:GLU:543:C:9874, V-B:GLU:543:CB:9878, V-A:TYR:484:CE2:4346, V-B:GLU:543:CG:9879, V-B:LYS:547:CE:9922, V-A:GLU:543:CD:4908, V-A:TYR:484:CZ:4347, V-B:HIS:456:CE1:9041, V-B:GLU:543:CA:9876, V-A:HIS:456:CE1:4070, V-B:GLY:544:C:9884, V-B:GLY:544:CA:9886, V-A:GLU:543:CG:4907, V-B:GLU:543:CD:9880, H-A:GLU:543:OE1:4909, V-A:GLU:543:CB:4906, V-B:ARG:545:CA:9891, H-A:TYR:484:OH:4348"]

$$$$
ZINC688984932
     RDKit          3D

 39 40  0  0  0  0  0  0  0  0999 V2000
  129.4770  126.2750   67.3400 C   0  0  0  0  0  0  0  0  0  0  0  0
  130.2490  125.3550   66.7420 C   0  0  0  0  0  0  0  0  0  0  0  0
  129.8760  123.9780   66.2480 C   0  0  0  0  0  0  0  0  0  0  0  0
  130.5630  123.9210   64.8810 C   0  0  0  0  0  0  0  0  0  0  0  0
  131.7770  124.7100   65.0800 N   0  0  0  0  0  0  0  0  0  0  0  0
  132.8150  124.8080   64.2120 C   0  0  0  0  0  0  0  0  0  0  0  0
  133.9850  124.7880   64.5990 O   0  0  0  0  0  0  0  0  0  0  0  0
  132.5370  124.9210   62.6810 C   0  0  2  0  0  0  0  0  0  0  0  0
  133.8620  124.6490   61.9080 C   0  0  0  0  0  0  0  0  0  0  0  0
  133.6690  124.2880   60.4220 C   0  0  0  0  0  0  0  0  0  0  0  0
  132.7710  125.2330   59.6020 C   0  0  0  0  0  0  0  0  0  0  0  0
  131.2620  125.2010   59.9090 C   0  0  0  0  0  0  0  0  0  0  0  0
  130.7830  126.1120   61.0550 C   0  0  0  0  0  0  0  0  0  0  0  0
  131.7730  126.2260   62.2450 C   0  0  1  0  0  0  0  0  0  0  0  0
  131.0120  126.8480   63.4360 N   0  0  0  0  0  0  0  0  0  0  0  0
  131.7000  125.4640   66.3300 C   0  0  0  0  0  0  0  0  0  0  0  0
  129.9070  127.2412   67.6425 H   0  0  0  0  0  0  0  0  0  0  0  0
  128.4141  126.0631   67.5278 H   0  0  0  0  0  0  0  0  0  0  0  0
  130.2611  123.1966   66.9196 H   0  0  0  0  0  0  0  0  0  0  0  0
  128.7903  123.8073   66.2014 H   0  0  0  0  0  0  0  0  0  0  0  0
  130.8077  122.8844   64.6062 H   0  0  0  0  0  0  0  0  0  0  0  0
  129.9308  124.3031   64.0659 H   0  0  0  0  0  0  0  0  0  0  0  0
  131.8109  124.1429   62.4028 H   0  0  0  0  0  0  0  0  0  0  0  0
  134.4852  125.5537   61.9642 H   0  0  0  0  0  0  0  0  0  0  0  0
  134.3305  123.7756   62.3852 H   0  0  0  0  0  0  0  0  0  0  0  0
  134.6618  124.2743   59.9486 H   0  0  0  0  0  0  0  0  0  0  0  0
  133.1521  123.3170   60.4205 H   0  0  0  0  0  0  0  0  0  0  0  0
  133.1237  126.2604   59.7756 H   0  0  0  0  0  0  0  0  0  0  0  0
  132.8597  124.8831   58.5629 H   0  0  0  0  0  0  0  0  0  0  0  0
  130.7270  125.5007   58.9958 H   0  0  0  0  0  0  0  0  0  0  0  0
  131.0502  124.1738   60.2406 H   0  0  0  0  0  0  0  0  0  0  0  0
  130.6195  127.1202   60.6466 H   0  0  0  0  0  0  0  0  0  0  0  0
  129.8657  125.6550   61.4546 H   0  0  0  0  0  0  0  0  0  0  0  0
  132.5950  126.8628   61.8862 H   0  0  0  0  0  0  0  0  0  0  0  0
  130.6070  127.7340   63.1690 H   0  0  0  0  0  0  0  0  0  0  0  0
  131.6420  126.9980   64.2120 H   0  0  0  0  0  0  0  0  0  0  0  0
  130.2720  126.2270   63.7340 H   0  0  0  0  0  0  0  0  0  0  0  0
  132.3564  125.0211   67.0935 H   0  0  0  0  0  0  0  0  0  0  0  0
  132.0267  126.5078   66.2126 H   0  0  0  0  0  0  0  0  0  0  0  0
  1  2  2  0
  2  3  1  0
  3  4  1  0
  4  5  1  0
  5  6  1  0
  6  7  2  0
  6  8  1  0
  8  9  1  0
  9 10  1  0
 10 11  1  0
 11 12  1  0
 12 13  1  0
 13 14  1  0
 14 15  1  0
  5 16  1  0
 16  2  1  0
 14  8  1  0
  1 17  1  0
  1 18  1  0
  3 19  1  0
  3 20  1  0
  4 21  1  0
  4 22  1  0
  8 23  1  6
  9 24  1  0
  9 25  1  0
 10 26  1  0
 10 27  1  0
 11 28  1  0
 11 29  1  0
 12 30  1  0
 12 31  1  0
 13 32  1  0
 13 33  1  0
 14 34  1  6
 15 35  1  0
 15 36  1  0
 15 37  1  0
 16 38  1  0
 16 39  1  0
M  CHG  1  15   1
M  END
>  <Binding energies>  (1) 
[-4.7]

>  <Ligand effiencies>  (1) 
[-0.22380952380952382]

>  <Interactions>  (1) 
["V-A:ASP:366:CA:3210, H-A:GLU:543:OE2:4910, V-B:GLU:543:CB:9878, H-A:ARG:545:NH1:4927, V-A:TYR:484:CE2:4346, V-B:GLU:543:CG:9879, V-A:ASP:366:CG:3213, V-A:TYR:484:CZ:4347, V-A:GLU:543:CD:4908, V-B:GLU:543:CA:9876, H-A:GLY:454:N:4050, V-A:HIS:456:CE1:4070, V-A:ILE:369:CD1:3239, V-A:ASP:366:CB:3212, H-A:ARG:545:NH2:4928, V-A:ARG:545:CZ:4926, H-A:GLU:543:OE1:4909, H-A:ARG:545:NE:4924, H-A:TYR:484:OH:4348"]

$$$$
ZINC690899145
     RDKit          3D

 42 42  0  0  0  0  0  0  0  0999 V2000
  128.2120  128.8030   67.0510 C   0  0  0  0  0  0  0  0  0  0  0  0
  128.8200  127.6080   66.9290 C   0  0  0  0  0  0  0  0  0  0  0  0
  129.5130  126.7930   68.0310 C   0  0  2  0  0  0  0  0  0  0  0  0
  130.8300  127.4520   68.5370 C   0  0  0  0  0  0  0  0  0  0  0  0
  129.8330  125.3630   67.4940 C   0  0  0  0  0  0  0  0  0  0  0  0
  131.0430  125.3490   66.5330 N   0  0  0  0  0  0  0  0  0  0  0  0
  130.7570  124.8710   65.0950 C   0  0  0  0  0  0  0  0  0  0  0  0
  129.9810  123.5460   65.1810 C   0  0  0  0  0  0  0  0  0  0  0  0
  132.0710  124.7410   64.3010 C   0  0  0  0  0  0  0  0  0  0  0  0
  128.5430  126.6010   69.2400 C   0  0  0  0  0  0  0  0  0  0  0  0
  129.1180  126.7840   70.6690 C   0  0  2  0  0  0  0  0  0  0  0  0
  128.1360  126.2550   71.7440 C   0  0  0  0  0  0  0  0  0  0  0  0
  128.7340  126.4260   73.0270 O   0  0  0  0  0  0  0  0  0  0  0  0
  129.0140  127.7930   73.3280 C   0  0  0  0  0  0  0  0  0  0  0  0
  129.9320  128.3840   72.2360 C   0  0  0  0  0  0  0  0  0  0  0  0
  129.3380  128.1640   70.9590 O   0  0  0  0  0  0  0  0  0  0  0  0
  127.7523  129.2785   66.1720 H   0  0  0  0  0  0  0  0  0  0  0  0
  128.1750  129.3039   68.0296 H   0  0  0  0  0  0  0  0  0  0  0  0
  128.8205  127.1635   65.9228 H   0  0  0  0  0  0  0  0  0  0  0  0
  130.8387  127.4564   69.6370 H   0  0  0  0  0  0  0  0  0  0  0  0
  131.6927  126.8794   68.1657 H   0  0  0  0  0  0  0  0  0  0  0  0
  130.8889  128.4858   68.1657 H   0  0  0  0  0  0  0  0  0  0  0  0
  130.0536  124.7064   68.3486 H   0  0  0  0  0  0  0  0  0  0  0  0
  128.9551  125.0130   66.9312 H   0  0  0  0  0  0  0  0  0  0  0  0
  131.4460  126.2750   66.4960 H   0  0  0  0  0  0  0  0  0  0  0  0
  131.7360  124.7310   66.9290 H   0  0  0  0  0  0  0  0  0  0  0  0
  130.1426  125.6031   64.5504 H   0  0  0  0  0  0  0  0  0  0  0  0
  129.8253  123.2801   66.2370 H   0  0  0  0  0  0  0  0  0  0  0  0
  129.0063  123.6590   64.6838 H   0  0  0  0  0  0  0  0  0  0  0  0
  130.5563  122.7512   64.6838 H   0  0  0  0  0  0  0  0  0  0  0  0
  132.9155  124.6574   65.0008 H   0  0  0  0  0  0  0  0  0  0  0  0
  132.0294  123.8426   63.6677 H   0  0  0  0  0  0  0  0  0  0  0  0
  132.2062  125.6302   63.6677 H   0  0  0  0  0  0  0  0  0  0  0  0
  127.7242  127.3259   69.1212 H   0  0  0  0  0  0  0  0  0  0  0  0
  128.2517  125.5413   69.1939 H   0  0  0  0  0  0  0  0  0  0  0  0
  130.0623  126.2205   70.6958 H   0  0  0  0  0  0  0  0  0  0  0  0
  127.1935  126.8201   71.6957 H   0  0  0  0  0  0  0  0  0  0  0  0
  127.9215  125.1907   71.5672 H   0  0  0  0  0  0  0  0  0  0  0  0
  128.0726  128.3610   73.3622 H   0  0  0  0  0  0  0  0  0  0  0  0
  129.5174  127.8574   74.3039 H   0  0  0  0  0  0  0  0  0  0  0  0
  130.0559  129.4641   72.4036 H   0  0  0  0  0  0  0  0  0  0  0  0
  130.9172  127.8963   72.2758 H   0  0  0  0  0  0  0  0  0  0  0  0
  1  2  2  0
  2  3  1  0
  3  4  1  1
  3  5  1  0
  5  6  1  0
  6  7  1  0
  7  8  1  0
  7  9  1  0
  3 10  1  0
 10 11  1  0
 11 12  1  0
 12 13  1  0
 13 14  1  0
 14 15  1  0
 15 16  1  0
 16 11  1  0
  1 17  1  0
  1 18  1  0
  2 19  1  0
  4 20  1  0
  4 21  1  0
  4 22  1  0
  5 23  1  0
  5 24  1  0
  6 25  1  0
  6 26  1  0
  7 27  1  0
  8 28  1  0
  8 29  1  0
  8 30  1  0
  9 31  1  0
  9 32  1  0
  9 33  1  0
 10 34  1  0
 10 35  1  0
 11 36  1  6
 12 37  1  0
 12 38  1  0
 14 39  1  0
 14 40  1  0
 15 41  1  0
 15 42  1  0
M  CHG  1   6   1
M  END
>  <Binding energies>  (1) 
[-5.87]

>  <Ligand effiencies>  (1) 
[-0.32611111111111113]

>  <Interactions>  (1) 
["V-A:HIS:456:CE1:4070, V-B:HIS:456:CE1:9041, H-A:GLU:543:OE2:4910, V-B:GLU:543:C:9874, V-B:GLY:544:C:9884, V-B:GLU:543:CB:9878, H-B:LYS:547:NZ:9923, V-A:GLU:543:CG:4907, V-B:GLY:544:CA:9886, V-B:GLU:543:CD:9880, V-A:GLU:543:CB:4906, V-A:GLU:543:CD:4908, V-A:TYR:484:CE2:4346, V-A:TYR:484:CZ:4347, V-B:GLU:543:CG:9879, V-B:GLU:543:CA:9876, H-A:TYR:484:OH:4348"]

$$$$
ZINC691412202
     RDKit          3D

 28 29  0  0  0  0  0  0  0  0999 V2000
  130.4250  129.6830   72.8860 O   0  0  0  0  0  0  0  0  0  0  0  0
  129.2860  128.9250   72.9850 C   0  0  0  0  0  0  0  0  0  0  0  0
  128.3580  129.2310   73.9840 C   0  0  0  0  0  0  0  0  0  0  0  0
  127.1900  128.4810   74.1100 C   0  0  0  0  0  0  0  0  0  0  0  0
  125.9300  128.9040   75.4730 Br  0  0  0  0  0  0  0  0  0  0  0  0
  126.9430  127.4220   73.2370 C   0  0  0  0  0  0  0  0  0  0  0  0
  127.8670  127.1120   72.2390 C   0  0  0  0  0  0  0  0  0  0  0  0
  129.0440  127.8560   72.1070 C   0  0  0  0  0  0  0  0  0  0  0  0
  130.0280  127.4990   71.0010 C   0  0  0  0  0  0  0  0  0  0  0  0
  129.4060  126.5820   70.0530 N   0  0  0  0  0  0  0  0  0  0  0  0
  129.1860  126.9440   68.7140 C   0  0  0  0  0  0  0  0  0  0  0  0
  128.5090  128.1400   68.4640 C   0  0  0  0  0  0  0  0  0  0  0  0
  128.2600  128.5580   67.1570 C   0  0  0  0  0  0  0  0  0  0  0  0
  127.6030  129.7200   66.9440 F   0  0  0  0  0  0  0  0  0  0  0  0
  128.6840  127.7790   66.0770 C   0  0  0  0  0  0  0  0  0  0  0  0
  128.3310  128.3710   64.2970 Br  0  0  0  0  0  0  0  0  0  0  0  0
  129.3610  126.5760   66.3170 C   0  0  0  0  0  0  0  0  0  0  0  0
  129.9050  125.5780   65.0130 Cl  0  0  0  0  0  0  0  0  0  0  0  0
  129.6080  126.1640   67.6270 C   0  0  0  0  0  0  0  0  0  0  0  0
  130.6130  129.9580   71.9860 H   0  0  0  0  0  0  0  0  0  0  0  0
  128.5500  130.0666   74.6732 H   0  0  0  0  0  0  0  0  0  0  0  0
  126.0202  126.8315   73.3353 H   0  0  0  0  0  0  0  0  0  0  0  0
  127.6686  126.2768   71.5512 H   0  0  0  0  0  0  0  0  0  0  0  0
  130.3317  128.4158   70.4744 H   0  0  0  0  0  0  0  0  0  0  0  0
  130.9090  127.0135   71.4461 H   0  0  0  0  0  0  0  0  0  0  0  0
  128.8510  125.8300   70.4330 H   0  0  0  0  0  0  0  0  0  0  0  0
  128.1686  128.7589   69.3072 H   0  0  0  0  0  0  0  0  0  0  0  0
  130.1390  125.2180   67.8093 H   0  0  0  0  0  0  0  0  0  0  0  0
  1  2  1  0
  2  3  2  0
  3  4  1  0
  4  5  1  0
  4  6  2  0
  6  7  1  0
  7  8  2  0
  8  9  1  0
  9 10  1  0
 10 11  1  0
 11 12  2  0
 12 13  1  0
 13 14  1  0
 13 15  2  0
 15 16  1  0
 15 17  1  0
 17 18  1  0
 17 19  2  0
  8  2  1  0
 19 11  1  0
  1 20  1  0
  3 21  1  0
  6 22  1  0
  7 23  1  0
  9 24  1  0
  9 25  1  0
 10 26  1  0
 12 27  1  0
 19 28  1  0
M  END
>  <Binding energies>  (1) 
[-6.52]

>  <Ligand effiencies>  (1) 
[-0.31047619047619046]

>  <Interactions>  (1) 
["V-B:HIS:456:CD2:9039, H-B:GLU:543:O:9875, V-B:GLU:543:CB:9878, V-B:HIS:456:CB:9036, V-B:GLU:543:CG:9879, V-B:TYR:484:CE2:9317, V-B:LYS:547:CE:9922, V-A:GLU:543:CD:4908, V-B:HIS:456:CE1:9041, V-A:HIS:456:CE1:4070, V-B:TYR:484:CZ:9318, V-B:GLY:544:C:9884, V-A:GLU:543:CG:4907, V-B:GLU:543:CD:9880, V-B:HIS:456:CG:9037, H-A:LYS:547:NZ:4951, V-A:GLU:543:CB:4906, H-A:GLY:544:O:4913, H-A:HIS:456:NE2:4071, H-A:GLU:543:O:4903"]

$$$$
ZINC692432135
     RDKit          3D

 38 37  0  0  0  0  0  0  0  0999 V2000
  133.2730  124.5170   63.7690 C   0  0  0  0  0  0  0  0  0  0  0  0
  133.9930  125.0730   62.7840 C   0  0  0  0  0  0  0  0  0  0  0  0
  134.5710  124.3140   61.6000 C   0  0  0  0  0  0  0  0  0  0  0  0
  133.5340  123.6930   60.7330 N   0  0  0  0  0  0  0  0  0  0  0  0
  133.1900  124.2670   59.5290 C   0  0  0  0  0  0  0  0  0  0  0  0
  133.6130  123.8720   58.4420 O   0  0  0  0  0  0  0  0  0  0  0  0
  132.2820  125.3980   59.5280 C   0  0  0  0  0  0  0  0  0  0  0  0
  132.0040  125.9630   58.1370 C   0  0  0  0  0  0  0  0  0  0  0  0
  131.7900  125.8530   60.7040 C   0  0  0  0  0  0  0  0  0  0  0  0
  130.8230  127.0050   60.9090 C   0  0  0  0  0  0  0  0  0  0  0  0
  131.3840  128.0660   61.8590 N   0  0  0  0  0  0  0  0  0  0  0  0
  132.9450  122.3770   61.1930 C   0  0  0  0  0  0  0  0  0  0  0  0
  133.7880  121.7330   62.3350 C   0  0  0  0  0  0  0  0  0  0  0  0
  131.4920  122.5890   61.7010 C   0  0  0  0  0  0  0  0  0  0  0  0
  132.8640  121.2810   60.0880 C   0  0  0  0  0  0  0  0  0  0  0  0
  132.8914  125.1407   64.5908 H   0  0  0  0  0  0  0  0  0  0  0  0
  133.0640  123.4371   63.7553 H   0  0  0  0  0  0  0  0  0  0  0  0
  134.1789  126.1559   62.8362 H   0  0  0  0  0  0  0  0  0  0  0  0
  135.1607  125.0148   60.9909 H   0  0  0  0  0  0  0  0  0  0  0  0
  135.1857  123.4974   62.0066 H   0  0  0  0  0  0  0  0  0  0  0  0
  131.5201  126.9464   58.2307 H   0  0  0  0  0  0  0  0  0  0  0  0
  132.9517  126.0713   57.5891 H   0  0  0  0  0  0  0  0  0  0  0  0
  131.3399  125.2783   57.5891 H   0  0  0  0  0  0  0  0  0  0  0  0
  132.1281  125.3305   61.6110 H   0  0  0  0  0  0  0  0  0  0  0  0
  130.6182  127.4737   59.9351 H   0  0  0  0  0  0  0  0  0  0  0  0
  129.9043  126.6000   61.3583 H   0  0  0  0  0  0  0  0  0  0  0  0
  130.6960  128.7880   62.0200 H   0  0  0  0  0  0  0  0  0  0  0  0
  132.2090  128.4890   61.4600 H   0  0  0  0  0  0  0  0  0  0  0  0
  131.6260  127.6470   62.7460 H   0  0  0  0  0  0  0  0  0  0  0  0
  133.3825  122.0428   63.3095 H   0  0  0  0  0  0  0  0  0  0  0  0
  133.7430  120.6372   62.2507 H   0  0  0  0  0  0  0  0  0  0  0  0
  134.8334  122.0646   62.2507 H   0  0  0  0  0  0  0  0  0  0  0  0
  131.4846  122.5901   62.8010 H   0  0  0  0  0  0  0  0  0  0  0  0
  131.1110  123.5522   61.3308 H   0  0  0  0  0  0  0  0  0  0  0  0
  130.8517  121.7748   61.3308 H   0  0  0  0  0  0  0  0  0  0  0  0
  132.7907  120.2898   60.5594 H   0  0  0  0  0  0  0  0  0  0  0  0
  131.9763  121.4560   59.4624 H   0  0  0  0  0  0  0  0  0  0  0  0
  133.7677  121.3236   59.4624 H   0  0  0  0  0  0  0  0  0  0  0  0
  1  2  2  0
  2  3  1  0
  3  4  1  0
  4  5  1  0
  5  6  2  0
  5  7  1  0
  7  8  1  0
  7  9  2  0
  9 10  1  0
 10 11  1  0
  4 12  1  0
 12 13  1  0
 12 14  1  0
 12 15  1  0
  1 16  1  0
  1 17  1  0
  2 18  1  0
  3 19  1  0
  3 20  1  0
  8 21  1  0
  8 22  1  0
  8 23  1  0
  9 24  1  0
 10 25  1  0
 10 26  1  0
 11 27  1  0
 11 28  1  0
 11 29  1  0
 13 30  1  0
 13 31  1  0
 13 32  1  0
 14 33  1  0
 14 34  1  0
 14 35  1  0
 15 36  1  0
 15 37  1  0
 15 38  1  0
M  CHG  1  11   1
M  END
>  <Binding energies>  (1) 
[-5.69]

>  <Ligand effiencies>  (1) 
[-0.3161111111111111]

>  <Interactions>  (1) 
["V-A:ILE:369:CG2:3237, V-A:ILE:369:CD1:3239, V-A:GLY:454:CA:4049, H-A:GLU:543:OE2:4910, H-B:TYR:539:OH:9850, V-B:TYR:539:CD2:9846, V-B:TYR:539:CE2:9848, H-A:ASP:366:OD2:3215, V-A:ASP:366:CB:3212, V-A:GLU:543:CD:4908, V-A:LEU:475:CD2:4259, V-A:ARG:545:CZ:4926, H-A:GLU:543:OE1:4909, V-A:ASP:366:CG:3213, H-A:ASP:366:OD1:3214"]

$$$$
ZINC693120327
     RDKit          3D

 29 30  0  0  0  0  0  0  0  0999 V2000
  125.7260  124.5640   60.8730 C   0  0  0  0  0  0  0  0  0  0  0  0
  126.1690  123.2120   60.8610 O   0  0  0  0  0  0  0  0  0  0  0  0
  127.4640  122.9180   61.2480 C   0  0  0  0  0  0  0  0  0  0  0  0
  127.8820  122.8290   62.5860 C   0  0  0  0  0  0  0  0  0  0  0  0
  129.2070  122.5320   62.9110 C   0  0  0  0  0  0  0  0  0  0  0  0
  129.6390  122.4730   64.5860 Cl  0  0  0  0  0  0  0  0  0  0  0  0
  130.1480  122.3070   61.8930 C   0  0  0  0  0  0  0  0  0  0  0  0
  131.6180  121.9970   62.2080 C   0  0  1  0  0  0  0  0  0  0  0  0
  132.5510  121.0790   60.7020 Br  0  0  0  0  0  0  0  0  0  0  0  0
  132.3970  123.2200   62.6640 C   0  0  0  0  0  0  0  0  0  0  0  0
  132.6070  123.4410   63.9490 N   0  0  0  0  0  0  0  0  0  0  0  0
  133.3220  124.5690   64.0080 N   0  0  0  0  0  0  0  0  0  0  0  0
  133.7190  125.0930   65.3030 C   0  0  0  0  0  0  0  0  0  0  0  0
  133.5730  125.0950   62.7720 C   0  0  0  0  0  0  0  0  0  0  0  0
  132.9770  124.2290   61.8740 C   0  0  0  0  0  0  0  0  0  0  0  0
  132.9580  124.3790   59.9770 Br  0  0  0  0  0  0  0  0  0  0  0  0
  129.7340  122.4090   60.5590 C   0  0  0  0  0  0  0  0  0  0  0  0
  128.4100  122.7050   60.2390 C   0  0  0  0  0  0  0  0  0  0  0  0
  127.9590  122.8110   58.5720 Cl  0  0  0  0  0  0  0  0  0  0  0  0
  125.6146  124.9041   61.9131 H   0  0  0  0  0  0  0  0  0  0  0  0
  126.4640  125.1962   60.3576 H   0  0  0  0  0  0  0  0  0  0  0  0
  124.7570  124.6369   60.3576 H   0  0  0  0  0  0  0  0  0  0  0  0
  127.1525  122.9963   63.3921 H   0  0  0  0  0  0  0  0  0  0  0  0
  131.5892  121.2957   63.0550 H   0  0  0  0  0  0  0  0  0  0  0  0
  133.2608  124.4882   66.0994 H   0  0  0  0  0  0  0  0  0  0  0  0
  134.8143  125.0515   65.3952 H   0  0  0  0  0  0  0  0  0  0  0  0
  133.3826  126.1362   65.3952 H   0  0  0  0  0  0  0  0  0  0  0  0
  134.1316  126.0139   62.5403 H   0  0  0  0  0  0  0  0  0  0  0  0
  130.4646  122.2532   59.7516 H   0  0  0  0  0  0  0  0  0  0  0  0
  1  2  1  0
  2  3  1  0
  3  4  2  0
  4  5  1  0
  5  6  1  0
  5  7  2  0
  7  8  1  0
  8  9  1  0
  8 10  1  0
 10 11  2  0
 11 12  1  0
 12 13  1  0
 12 14  1  0
 14 15  2  0
 15 16  1  0
  7 17  1  0
 17 18  2  0
 18 19  1  0
 18  3  1  0
 15 10  1  0
  1 20  1  0
  1 21  1  0
  1 22  1  0
  4 23  1  0
  8 24  1  1
 13 25  1  0
 13 26  1  0
 13 27  1  0
 14 28  1  0
 17 29  1  0
M  END
>  <Binding energies>  (1) 
[-5.98]

>  <Ligand effiencies>  (1) 
[-0.3147368421052632]

>  <Interactions>  (1) 
["V-A:ILE:369:CG2:3237, V-B:PRO:540:CA:9855, V-A:GLY:454:CA:4049, V-B:ALA:541:CB:9864, V-B:TYR:539:CE2:9848, V-A:TYR:484:CE2:4346, V-B:GLU:543:CG:9879, V-B:TYR:539:C:9839, V-A:ASP:366:CG:3213, V-B:TYR:539:CZ:9849, H-B:ALA:541:N:9863, H-A:GLY:454:N:4050, V-B:PRO:540:N:9856, V-B:TYR:539:CD2:9846, V-B:GLU:543:CD:9880, V-A:ARG:545:CD:4923, V-A:LEU:475:CD2:4259, V-A:ARG:545:CZ:4926, V-B:PRO:540:C:9853, V-B:ALA:541:CA:9862, H-A:TYR:484:OH:4348"]

$$$$
ZINC698834197
     RDKit          3D

 34 34  0  0  0  0  0  0  0  0999 V2000
  131.7020  132.6570   57.3200 C   0  0  0  0  0  0  0  0  0  0  0  0
  131.6550  131.5220   58.0350 C   0  0  0  0  0  0  0  0  0  0  0  0
  131.9910  131.4130   59.5160 C   0  0  0  0  0  0  0  0  0  0  0  0
  130.9450  130.6640   60.3790 C   0  0  1  0  0  0  0  0  0  0  0  0
  131.6190  130.0920   61.6430 N   0  0  0  0  0  0  0  0  0  0  0  0
  129.7430  131.5690   60.7710 C   0  0  0  0  0  0  0  0  0  0  0  0
  129.4250  131.6290   62.2070 N   0  0  0  0  0  0  0  0  0  0  0  0
  128.7210  132.8810   62.5210 C   0  0  0  0  0  0  0  0  0  0  0  0
  128.3270  132.9570   64.0130 C   0  0  0  0  0  0  0  0  0  0  0  0
  127.6080  131.7870   64.3880 O   0  0  0  0  0  0  0  0  0  0  0  0
  128.3680  130.5960   64.1930 C   0  0  1  0  0  0  0  0  0  0  0  0
  127.5760  129.3900   64.7380 C   0  0  0  0  0  0  0  0  0  0  0  0
  127.6120  129.3520   66.0710 F   0  0  0  0  0  0  0  0  0  0  0  0
  126.2940  129.4520   64.3780 F   0  0  0  0  0  0  0  0  0  0  0  0
  128.0660  128.2310   64.2940 F   0  0  0  0  0  0  0  0  0  0  0  0
  128.6650  130.4600   62.6790 C   0  0  0  0  0  0  0  0  0  0  0  0
  131.4420  132.6449   56.2512 H   0  0  0  0  0  0  0  0  0  0  0  0
  132.0005  133.5992   57.8028 H   0  0  0  0  0  0  0  0  0  0  0  0
  131.3514  130.6029   57.5125 H   0  0  0  0  0  0  0  0  0  0  0  0
  132.9503  130.8828   59.6087 H   0  0  0  0  0  0  0  0  0  0  0  0
  132.0184  132.4441   59.8983 H   0  0  0  0  0  0  0  0  0  0  0  0
  130.5433  129.8411   59.7695 H   0  0  0  0  0  0  0  0  0  0  0  0
  132.6200  130.0440   61.5120 H   0  0  0  0  0  0  0  0  0  0  0  0
  131.2700  129.1630   61.8340 H   0  0  0  0  0  0  0  0  0  0  0  0
  131.4250  130.6850   62.4370 H   0  0  0  0  0  0  0  0  0  0  0  0
  129.9663  132.5914   60.4322 H   0  0  0  0  0  0  0  0  0  0  0  0
  128.8622  131.1191   60.2896 H   0  0  0  0  0  0  0  0  0  0  0  0
  129.3793  133.7294   62.2826 H   0  0  0  0  0  0  0  0  0  0  0  0
  127.7996  132.9158   61.9211 H   0  0  0  0  0  0  0  0  0  0  0  0
  129.2367  133.0374   64.6261 H   0  0  0  0  0  0  0  0  0  0  0  0
  127.6893  133.8389   64.1731 H   0  0  0  0  0  0  0  0  0  0  0  0
  129.3229  130.6347   64.7376 H   0  0  0  0  0  0  0  0  0  0  0  0
  129.2543  129.5478   62.5041 H   0  0  0  0  0  0  0  0  0  0  0  0
  127.7143  130.4018   62.1288 H   0  0  0  0  0  0  0  0  0  0  0  0
  1  2  2  0
  2  3  1  0
  3  4  1  0
  4  5  1  0
  4  6  1  0
  6  7  1  0
  7  8  1  0
  8  9  1  0
  9 10  1  0
 10 11  1  0
 11 12  1  0
 12 13  1  0
 12 14  1  0
 12 15  1  0
 11 16  1  0
 16  7  1  0
  1 17  1  0
  1 18  1  0
  2 19  1  0
  3 20  1  0
  3 21  1  0
  4 22  1  6
  5 23  1  0
  5 24  1  0
  5 25  1  0
  6 26  1  0
  6 27  1  0
  8 28  1  0
  8 29  1  0
  9 30  1  0
  9 31  1  0
 11 32  1  1
 16 33  1  0
 16 34  1  0
M  CHG  1   5   1
M  END
>  <Binding energies>  (1) 
[-4.91]

>  <Ligand effiencies>  (1) 
[-0.25842105263157894]

>  <Interactions>  (1) 
["V-A:LEU:363:CD1:3189, V-A:PRO:540:N:4884, V-B:TYR:484:CE2:9317, V-A:PRO:540:CB:4885, V-A:PRO:540:CA:4883, V-B:TYR:484:CZ:9318, V-A:ALA:541:CB:4892, V-A:GLU:543:CG:4907, V-B:GLU:543:CD:9880, V-A:GLU:543:CD:4908, H-A:ASP:366:OD2:3215, H-B:TYR:484:OH:9319, V-A:PRO:540:CD:4887, V-B:LEU:475:CD2:9230, H-A:GLU:543:OE1:4909, V-A:ASP:366:CG:3213"]

$$$$
ZINC702600230
     RDKit          3D

 33 34  0  0  0  0  0  0  0  0999 V2000
  130.9130  127.8840   71.0320 F   0  0  0  0  0  0  0  0  0  0  0  0
  130.7960  128.0910   69.7200 C   0  0  0  0  0  0  0  0  0  0  0  0
  129.4350  127.6640   69.1590 C   0  0  0  0  0  0  0  0  0  0  0  0
  129.6350  126.9880   67.9240 O   0  0  0  0  0  0  0  0  0  0  0  0
  129.4840  125.5750   68.0110 C   0  0  0  0  0  0  0  0  0  0  0  0
  130.1890  124.8970   66.8250 C   0  0  0  0  0  0  0  0  0  0  0  0
  130.7950  125.8430   65.8820 N   0  0  0  0  0  0  0  0  0  0  0  0
  131.2240  125.5030   64.6690 C   0  0  0  0  0  0  0  0  0  0  0  0
  131.3200  126.3940   63.6900 N   0  0  0  0  0  0  0  0  0  0  0  0
  131.6810  125.8930   62.3750 C   0  0  0  0  0  0  0  0  0  0  0  0
  132.1360  124.4410   62.5420 C   0  0  1  0  0  0  0  0  0  0  0  0
  133.6110  124.2110   62.1590 C   0  0  0  0  0  0  0  0  0  0  0  0
  134.0780  122.8420   61.7320 C   0  0  0  0  0  0  0  0  0  0  0  0
  133.9840  123.9700   60.7180 C   0  0  0  0  0  0  0  0  0  0  0  0
  131.8490  123.9280   64.2600 S   0  0  0  0  0  0  0  0  0  0  0  0
  130.9344  129.1641   69.5219 H   0  0  0  0  0  0  0  0  0  0  0  0
  131.5611  127.4764   69.2232 H   0  0  0  0  0  0  0  0  0  0  0  0
  128.9372  126.9902   69.8719 H   0  0  0  0  0  0  0  0  0  0  0  0
  128.8039  128.5507   68.9995 H   0  0  0  0  0  0  0  0  0  0  0  0
  129.9290  125.2183   68.9516 H   0  0  0  0  0  0  0  0  0  0  0  0
  128.4133  125.3240   67.9861 H   0  0  0  0  0  0  0  0  0  0  0  0
  130.9812  124.2434   67.2190 H   0  0  0  0  0  0  0  0  0  0  0  0
  129.4211  124.3372   66.2710 H   0  0  0  0  0  0  0  0  0  0  0  0
  130.6040  126.8230   66.0410 H   0  0  0  0  0  0  0  0  0  0  0  0
  131.0490  127.3620   63.7900 H   0  0  0  0  0  0  0  0  0  0  0  0
  130.8104  125.9385   61.7042 H   0  0  0  0  0  0  0  0  0  0  0  0
  132.4855  126.5021   61.9369 H   0  0  0  0  0  0  0  0  0  0  0  0
  131.5426  123.8299   61.8460 H   0  0  0  0  0  0  0  0  0  0  0  0
  133.9234  124.9282   62.9324 H   0  0  0  0  0  0  0  0  0  0  0  0
  135.0624  122.4709   62.0533 H   0  0  0  0  0  0  0  0  0  0  0  0
  133.6714  121.8224   61.8035 H   0  0  0  0  0  0  0  0  0  0  0  0
  134.9003  124.4164   60.3043 H   0  0  0  0  0  0  0  0  0  0  0  0
  133.4810  124.1072   59.7494 H   0  0  0  0  0  0  0  0  0  0  0  0
  1  2  1  0
  2  3  1  0
  3  4  1  0
  4  5  1  0
  5  6  1  0
  6  7  1  0
  7  8  1  0
  8  9  2  0
  9 10  1  0
 10 11  1  0
 11 12  1  0
 12 13  1  0
 13 14  1  0
 11 15  1  0
 15  8  1  0
 14 12  1  0
  2 16  1  0
  2 17  1  0
  3 18  1  0
  3 19  1  0
  5 20  1  0
  5 21  1  0
  6 22  1  0
  6 23  1  0
  7 24  1  0
  9 25  1  0
 10 26  1  0
 10 27  1  0
 11 28  1  6
 12 29  1  0
 13 30  1  0
 13 31  1  0
 14 32  1  0
 14 33  1  0
M  CHG  1   9   1
M  END
>  <Binding energies>  (1) 
[-4.81]

>  <Ligand effiencies>  (1) 
[-0.2829411764705882]

>  <Interactions>  (1) 
["V-A:ILE:369:CG2:3237, H-A:TYR:484:OH:4348, V-A:HIS:456:CE1:4070, V-A:GLU:543:CA:4904, V-B:GLU:543:C:9874, H-A:GLU:543:OE2:4910, V-A:GLU:543:C:4902, V-A:ILE:369:CD1:3239, V-B:GLU:543:CB:9878, V-A:ARG:545:CZ:4926, V-A:TYR:484:CZ:4347, V-A:TYR:484:CE2:4346, V-A:GLU:543:CD:4908, V-B:GLU:543:CG:9879, V-A:GLY:544:C:4912, H-A:GLU:543:OE1:4909, V-B:GLU:543:CA:9876, V-A:GLU:543:CB:4906"]

$$$$
ZINC70462322
     RDKit          3D

 30 31  0  0  0  0  0  0  0  0999 V2000
  131.5350  132.4690   57.3860 C   0  0  0  0  0  0  0  0  0  0  0  0
  131.4080  131.7190   58.7240 C   0  0  0  0  0  0  0  0  0  0  0  0
  130.6320  130.4110   58.6420 C   0  0  0  0  0  0  0  0  0  0  0  0
  129.3570  130.2520   58.9130 N   0  0  0  0  0  0  0  0  0  0  0  0
  129.0540  128.9100   58.7110 N   0  0  0  0  0  0  0  0  0  0  0  0
  130.1560  128.3110   58.3280 C   0  0  0  0  0  0  0  0  0  0  0  0
  130.2700  126.5930   57.9530 S   0  0  0  0  0  0  0  0  0  0  0  0
  131.2740  126.0780   59.3230 C   0  0  0  0  0  0  0  0  0  0  0  0
  130.7380  126.3200   60.5920 C   0  0  0  0  0  0  0  0  0  0  0  0
  131.4250  125.9490   61.7420 C   0  0  0  0  0  0  0  0  0  0  0  0
  132.6670  125.3290   61.6360 C   0  0  0  0  0  0  0  0  0  0  0  0
  133.3900  124.9330   62.8360 C   0  0  0  0  0  0  0  0  0  0  0  0
  133.9630  124.6180   63.7900 N   0  0  0  0  0  0  0  0  0  0  0  0
  133.2140  125.0890   60.3740 C   0  0  0  0  0  0  0  0  0  0  0  0
  132.5440  125.4550   59.1890 C   0  0  0  0  0  0  0  0  0  0  0  0
  133.2080  125.1600   57.8830 N   0  0  0  0  0  0  0  0  0  0  0  0
  133.7250  124.0680   57.6760 O   0  0  0  0  0  0  0  0  0  0  0  0
  133.2140  126.0350   57.0220 O   0  0  0  0  0  0  0  0  0  0  0  0
  131.1940  129.2130   58.2630 N   0  0  0  0  0  0  0  0  0  0  0  0
  132.5100  128.9700   57.9040 N   0  0  0  0  0  0  0  0  0  0  0  0
  131.7158  133.5366   57.5798 H   0  0  0  0  0  0  0  0  0  0  0  0
  132.3755  132.0533   56.8110 H   0  0  0  0  0  0  0  0  0  0  0  0
  130.6045  132.3532   56.8110 H   0  0  0  0  0  0  0  0  0  0  0  0
  132.4208  131.4955   59.0904 H   0  0  0  0  0  0  0  0  0  0  0  0
  130.8424  132.3772   59.3999 H   0  0  0  0  0  0  0  0  0  0  0  0
  129.7579  126.8114   60.6813 H   0  0  0  0  0  0  0  0  0  0  0  0
  130.9887  126.1447   62.7327 H   0  0  0  0  0  0  0  0  0  0  0  0
  134.1967  124.5999   60.3023 H   0  0  0  0  0  0  0  0  0  0  0  0
  133.1080  129.0000   58.7170 H   0  0  0  0  0  0  0  0  0  0  0  0
  132.5870  128.0770   57.4380 H   0  0  0  0  0  0  0  0  0  0  0  0
  1  2  1  0
  2  3  1  0
  3  4  2  0
  4  5  1  0
  5  6  2  0
  6  7  1  0
  7  8  1  0
  8  9  2  0
  9 10  1  0
 10 11  2  0
 11 12  1  0
 12 13  3  0
 11 14  1  0
 14 15  2  0
 15 16  1  0
 16 17  2  0
 16 18  1  0
  6 19  1  0
 19 20  1  0
 19  3  1  0
 15  8  1  0
  1 21  1  0
  1 22  1  0
  1 23  1  0
  2 24  1  0
  2 25  1  0
  9 26  1  0
 10 27  1  0
 14 28  1  0
 20 29  1  0
 20 30  1  0
M  CHG  2  16   1  18  -1
M  END
>  <Binding energies>  (1) 
[-6.02]

>  <Ligand effiencies>  (1) 
[-0.2736363636363636]

>  <Interactions>  (1) 
["V-A:ASP:366:CA:3210, H-A:TYR:531:OH:4795, V-B:TYR:539:CE2:9848, V-A:ASP:366:CG:3213, V-A:LEU:363:CD1:3189, V-B:TYR:539:CZ:9849, H-A:ASN:370:N:3244, V-A:TYR:531:CE2:4793, H-B:TYR:539:OH:9850, H-A:GLY:454:N:4050, V-A:ASP:366:C:3208, V-A:TYR:531:CZ:4794, V-A:ASP:366:CB:3212, H-A:ARG:545:NH2:4928, V-A:ARG:545:CZ:4926, H-A:ASP:366:OD1:3214, V-A:PRO:540:N:4884, V-A:PRO:540:CB:4885, V-A:PRO:540:CA:4883, H-A:ASP:366:OD2:3215, V-A:PRO:540:CD:4887"]

$$$$
ZINC706031271
     RDKit          3D

 41 42  0  0  0  0  0  0  0  0999 V2000
  132.8680  123.3400   63.8370 C   0  0  0  0  0  0  0  0  0  0  0  0
  131.6810  123.7930   64.2670 C   0  0  0  0  0  0  0  0  0  0  0  0
  131.4720  125.0990   65.0210 C   0  0  2  0  0  0  0  0  0  0  0  0
  132.6920  125.4710   65.8730 C   0  0  0  0  0  0  0  0  0  0  0  0
  130.3570  125.0260   65.9130 O   0  0  0  0  0  0  0  0  0  0  0  0
  129.9390  126.2190   66.5910 C   0  0  2  0  0  0  0  0  0  0  0  0
  129.4200  125.9460   68.0280 C   0  0  0  0  0  0  0  0  0  0  0  0
  128.9880  127.2620   68.6930 C   0  0  0  0  0  0  0  0  0  0  0  0
  127.8790  127.9470   67.8910 C   0  0  0  0  0  0  0  0  0  0  0  0
  128.3530  128.2210   66.4460 C   0  0  0  0  0  0  0  0  0  0  0  0
  128.8470  126.9280   65.7420 C   0  0  1  0  0  0  0  0  0  0  0  0
  129.4850  127.2840   64.3820 N   0  0  0  0  0  0  0  0  0  0  0  0
  128.8390  126.6240   63.1550 C   0  0  0  0  0  0  0  0  0  0  0  0
  128.5660  127.0110   69.9930 O   0  0  0  0  0  0  0  0  0  0  0  0
  129.5160  127.4650   70.9330 C   0  0  0  0  0  0  0  0  0  0  0  0
  130.6520  128.0200   70.0820 C   0  0  0  0  0  0  0  0  0  0  0  0
  130.0880  128.1110   68.7940 O   0  0  0  0  0  0  0  0  0  0  0  0
  132.9291  122.3829   63.2983 H   0  0  0  0  0  0  0  0  0  0  0  0
  133.7804  123.9256   64.0230 H   0  0  0  0  0  0  0  0  0  0  0  0
  130.7941  123.1761   64.0598 H   0  0  0  0  0  0  0  0  0  0  0  0
  131.2982  125.8569   64.2429 H   0  0  0  0  0  0  0  0  0  0  0  0
  132.4326  125.3919   66.9391 H   0  0  0  0  0  0  0  0  0  0  0  0
  133.5211  124.7848   65.6455 H   0  0  0  0  0  0  0  0  0  0  0  0
  132.9972  126.5030   65.6455 H   0  0  0  0  0  0  0  0  0  0  0  0
  130.8190  126.8698   66.7008 H   0  0  0  0  0  0  0  0  0  0  0  0
  128.5591  125.2630   67.9801 H   0  0  0  0  0  0  0  0  0  0  0  0
  130.2267  125.4909   68.6214 H   0  0  0  0  0  0  0  0  0  0  0  0
  126.9939  127.2943   67.8649 H   0  0  0  0  0  0  0  0  0  0  0  0
  127.6278  128.9036   68.3726 H   0  0  0  0  0  0  0  0  0  0  0  0
  127.5147  128.6408   65.8706 H   0  0  0  0  0  0  0  0  0  0  0  0
  129.1958  128.9264   66.4924 H   0  0  0  0  0  0  0  0  0  0  0  0
  127.9777  126.2664   65.6127 H   0  0  0  0  0  0  0  0  0  0  0  0
  129.4560  128.2880   64.2730 H   0  0  0  0  0  0  0  0  0  0  0  0
  130.4650  127.0390   64.4270 H   0  0  0  0  0  0  0  0  0  0  0  0
  128.1052  125.8743   63.4857 H   0  0  0  0  0  0  0  0  0  0  0  0
  128.3327  127.3907   62.5502 H   0  0  0  0  0  0  0  0  0  0  0  0
  129.6164  126.1343   62.5502 H   0  0  0  0  0  0  0  0  0  0  0  0
  129.0873  128.2514   71.5716 H   0  0  0  0  0  0  0  0  0  0  0  0
  129.8506  126.6666   71.6117 H   0  0  0  0  0  0  0  0  0  0  0  0
  130.9661  129.0101   70.4439 H   0  0  0  0  0  0  0  0  0  0  0  0
  131.5536  127.3905   70.1100 H   0  0  0  0  0  0  0  0  0  0  0  0
  1  2  2  0
  2  3  1  0
  3  4  1  0
  3  5  1  0
  5  6  1  0
  6  7  1  0
  7  8  1  0
  8  9  1  0
  9 10  1  0
 10 11  1  0
 11 12  1  0
 12 13  1  0
  8 14  1  0
 14 15  1  0
 15 16  1  0
 16 17  1  0
 11  6  1  0
 17  8  1  0
  1 18  1  0
  1 19  1  0
  2 20  1  0
  3 21  1  6
  4 22  1  0
  4 23  1  0
  4 24  1  0
  6 25  1  1
  7 26  1  0
  7 27  1  0
  9 28  1  0
  9 29  1  0
 10 30  1  0
 10 31  1  0
 11 32  1  6
 12 33  1  0
 12 34  1  0
 13 35  1  0
 13 36  1  0
 13 37  1  0
 15 38  1  0
 15 39  1  0
 16 40  1  0
 16 41  1  0
M  CHG  1  12   1
M  END
>  <Binding energies>  (1) 
[-5.91]

>  <Ligand effiencies>  (1) 
[-0.31105263157894736]

>  <Interactions>  (1) 
["V-A:GLY:454:CA:4049, V-B:GLU:543:C:9874, H-A:GLU:543:OE2:4910, V-A:GLU:543:C:4902, V-B:GLU:543:CB:9878, V-A:GLY:544:C:4912, V-B:GLU:543:CG:9879, V-A:GLU:543:CD:4908, V-A:ARG:545:CG:4922, V-B:HIS:456:CE1:9041, V-B:GLU:543:CA:9876, V-A:HIS:456:CE1:4070, V-A:GLU:543:CG:4907, V-B:GLU:543:CD:9880, V-A:ARG:545:CD:4923, V-A:LEU:475:CD2:4259, V-A:ARG:545:CZ:4926, H-A:GLU:543:OE1:4909, V-A:GLU:543:CB:4906, H-A:TYR:484:OH:4348"]

$$$$
ZINC70698916
     RDKit          3D

 81 86  0  0  0  0  0  0  0  0999 V2000
  130.6300  119.1770   60.6060 C   0  0  0  0  0  0  0  0  0  0  0  0
  131.2900  120.3990   61.2760 C   0  0  1  0  0  0  0  0  0  0  0  0
  132.3860  121.0180   60.3680 C   0  0  0  0  0  0  0  0  0  0  0  0
  133.7450  121.3420   61.0300 C   0  0  0  0  0  0  0  0  0  0  0  0
  133.7860  122.6880   61.7220 C   0  0  0  0  0  0  0  0  0  0  0  0
  134.1210  123.9720   61.3140 C   0  0  0  0  0  0  0  0  0  0  0  0
  133.9590  124.8070   62.4210 C   0  0  0  0  0  0  0  0  0  0  0  0
  133.5320  123.9970   63.4580 C   0  0  0  0  0  0  0  0  0  0  0  0
  133.4260  122.7130   63.0330 O   0  0  0  0  0  0  0  0  0  0  0  0
  130.2570  121.3880   61.5560 N   0  0  0  0  0  0  0  0  0  0  0  0
  129.8940  122.1560   60.6050 C   0  0  0  0  0  0  0  0  0  0  0  0
  128.7790  123.2510   60.6740 C   0  0  2  0  0  0  0  0  0  0  0  0
  127.4290  122.4590   60.8370 C   0  0  0  0  0  0  0  0  0  0  0  0
  126.1560  123.3240   60.7310 C   0  0  0  0  0  0  0  0  0  0  0  0
  126.1020  124.1290   59.4200 C   0  0  2  0  0  0  0  0  0  0  0  0
  125.8180  123.2870   58.3190 O   0  0  0  0  0  0  0  0  0  0  0  0
  127.4190  124.9130   59.2230 C   0  0  0  0  0  0  0  0  0  0  0  0
  128.7430  124.0760   59.3030 C   0  0  2  0  0  0  0  0  0  0  0  0
  128.7280  123.1970   58.1820 O   0  0  0  0  0  0  0  0  0  0  0  0
  130.0140  124.9650   59.1790 C   0  0  0  0  0  0  0  0  0  0  0  0
  130.1620  125.9490   60.3520 C   0  0  0  0  0  0  0  0  0  0  0  0
  130.2250  125.2300   61.7300 C   0  0  2  0  0  0  0  0  0  0  0  0
  129.0050  124.2550   61.8950 C   0  0  2  0  0  0  0  0  0  0  0  0
  128.9510  123.5780   63.3030 C   0  0  0  0  0  0  0  0  0  0  0  0
  130.1040  123.9890   64.2400 C   0  0  0  0  0  0  0  0  0  0  0  0
  130.3310  125.5240   64.3740 C   0  0  2  0  0  0  0  0  0  0  0  0
  131.6720  125.7080   65.1560 C   0  0  0  0  0  0  0  0  0  0  0  0
  129.1480  126.2290   65.1260 C   0  0  1  0  0  0  0  0  0  0  0  0
  129.2080  126.2660   66.6550 C   0  0  0  0  0  0  0  0  0  0  0  0
  128.9640  127.2590   67.5210 C   0  0  0  0  0  0  0  0  0  0  0  0
  129.1390  126.7770   68.8720 C   0  0  0  0  0  0  0  0  0  0  0  0
  129.0040  127.4200   69.9110 O   0  0  0  0  0  0  0  0  0  0  0  0
  129.4780  125.4860   68.8140 O   0  0  0  0  0  0  0  0  0  0  0  0
  129.5560  125.0500   67.4730 C   0  0  0  0  0  0  0  0  0  0  0  0
  129.0350  127.6080   64.4720 C   0  0  0  0  0  0  0  0  0  0  0  0
  129.2560  127.3140   62.9960 C   0  0  0  0  0  0  0  0  0  0  0  0
  130.3620  126.2280   62.9410 C   0  0  2  0  0  0  0  0  0  0  0  0
  131.6000  126.8920   62.6980 O   0  0  0  0  0  0  0  0  0  0  0  0
  130.2589  118.4899   61.3808 H   0  0  0  0  0  0  0  0  0  0  0  0
  129.7899  119.5115   59.9796 H   0  0  0  0  0  0  0  0  0  0  0  0
  131.3704  118.6579   59.9796 H   0  0  0  0  0  0  0  0  0  0  0  0
  131.7758  120.0776   62.2091 H   0  0  0  0  0  0  0  0  0  0  0  0
  132.5767  120.3099   59.5481 H   0  0  0  0  0  0  0  0  0  0  0  0
  131.9813  121.9917   60.0549 H   0  0  0  0  0  0  0  0  0  0  0  0
  133.9614  120.5627   61.7756 H   0  0  0  0  0  0  0  0  0  0  0  0
  134.4926  121.3751   60.2238 H   0  0  0  0  0  0  0  0  0  0  0  0
  134.4514  124.2741   60.3092 H   0  0  0  0  0  0  0  0  0  0  0  0
  134.1356  125.8920   62.4607 H   0  0  0  0  0  0  0  0  0  0  0  0
  133.3107  124.3435   64.4783 H   0  0  0  0  0  0  0  0  0  0  0  0
  130.4151  122.0371   59.6436 H   0  0  0  0  0  0  0  0  0  0  0  0
  127.3865  121.6895   60.0521 H   0  0  0  0  0  0  0  0  0  0  0  0
  127.4358  122.0405   61.8542 H   0  0  0  0  0  0  0  0  0  0  0  0
  125.2762  122.6653   60.7778 H   0  0  0  0  0  0  0  0  0  0  0  0
  126.1669  124.0411   61.5651 H   0  0  0  0  0  0  0  0  0  0  0  0
  125.2815  124.8588   59.4845 H   0  0  0  0  0  0  0  0  0  0  0  0
  126.5910  123.2570   57.7510 H   0  0  0  0  0  0  0  0  0  0  0  0
  127.3817  125.3876   58.2314 H   0  0  0  0  0  0  0  0  0  0  0  0
  127.4679  125.6213   60.0632 H   0  0  0  0  0  0  0  0  0  0  0  0
  127.9040  122.7050   58.1940 H   0  0  0  0  0  0  0  0  0  0  0  0
  130.8993  124.3127   59.1520 H   0  0  0  0  0  0  0  0  0  0  0  0
  129.9190  125.5567   58.2566 H   0  0  0  0  0  0  0  0  0  0  0  0
  131.0878  126.5265   60.2130 H   0  0  0  0  0  0  0  0  0  0  0  0
  129.2753  126.5999   60.3555 H   0  0  0  0  0  0  0  0  0  0  0  0
  131.1471  124.6304   61.7451 H   0  0  0  0  0  0  0  0  0  0  0  0
  128.1190  124.9053   61.8493 H   0  0  0  0  0  0  0  0  0  0  0  0
  128.0002  123.8530   63.7830 H   0  0  0  0  0  0  0  0  0  0  0  0
  129.0444  122.4943   63.1393 H   0  0  0  0  0  0  0  0  0  0  0  0
  129.8890  123.5876   65.2413 H   0  0  0  0  0  0  0  0  0  0  0  0
  131.0225  123.5813   63.7927 H   0  0  0  0  0  0  0  0  0  0  0  0
  131.4726  125.6806   66.2374 H   0  0  0  0  0  0  0  0  0  0  0  0
  132.3656  124.8966   64.8904 H   0  0  0  0  0  0  0  0  0  0  0  0
  132.1214  126.6762   64.8904 H   0  0  0  0  0  0  0  0  0  0  0  0
  128.2358  125.6255   65.0089 H   0  0  0  0  0  0  0  0  0  0  0  0
  128.6748  128.2840   67.2457 H   0  0  0  0  0  0  0  0  0  0  0  0
  130.5722  124.7014   67.2369 H   0  0  0  0  0  0  0  0  0  0  0  0
  128.8817  124.2049   67.2701 H   0  0  0  0  0  0  0  0  0  0  0  0
  128.0398  128.0446   64.6422 H   0  0  0  0  0  0  0  0  0  0  0  0
  129.7517  128.3371   64.8779 H   0  0  0  0  0  0  0  0  0  0  0  0
  128.3289  126.9398   62.5372 H   0  0  0  0  0  0  0  0  0  0  0  0
  129.5496  128.2185   62.4431 H   0  0  0  0  0  0  0  0  0  0  0  0
  131.4460  127.8380   62.7330 H   0  0  0  0  0  0  0  0  0  0  0  0
  1  2  1  0
  2  3  1  0
  3  4  1  0
  4  5  1  0
  5  6  2  0
  6  7  1  0
  7  8  2  0
  8  9  1  0
  2 10  1  0
 10 11  2  0
 12 11  1  6
 12 13  1  0
 13 14  1  0
 14 15  1  0
 15 16  1  0
 15 17  1  0
 17 18  1  0
 18 19  1  6
 18 20  1  0
 20 21  1  0
 21 22  1  0
 22 23  1  0
 23 24  1  0
 24 25  1  0
 25 26  1  0
 26 27  1  1
 26 28  1  0
 28 29  1  0
 29 30  2  0
 30 31  1  0
 31 32  2  0
 31 33  1  0
 33 34  1  0
 28 35  1  0
 35 36  1  0
 36 37  1  0
 37 38  1  6
  9  5  1  0
 18 12  1  0
 37 22  1  0
 23 12  1  0
 37 26  1  0
 34 29  1  0
  1 39  1  0
  1 40  1  0
  1 41  1  0
  2 42  1  1
  3 43  1  0
  3 44  1  0
  4 45  1  0
  4 46  1  0
  6 47  1  0
  7 48  1  0
  8 49  1  0
 11 50  1  0
 13 51  1  0
 13 52  1  0
 14 53  1  0
 14 54  1  0
 15 55  1  1
 16 56  1  0
 17 57  1  0
 17 58  1  0
 19 59  1  0
 20 60  1  0
 20 61  1  0
 21 62  1  0
 21 63  1  0
 22 64  1  6
 23 65  1  1
 24 66  1  0
 24 67  1  0
 25 68  1  0
 25 69  1  0
 27 70  1  0
 27 71  1  0
 27 72  1  0
 28 73  1  1
 30 74  1  0
 34 75  1  0
 34 76  1  0
 35 77  1  0
 35 78  1  0
 36 79  1  0
 36 80  1  0
 38 81  1  0
M  END
>  <Binding energies>  (1) 
[-7.24]

>  <Ligand effiencies>  (1) 
[-0.17658536585365855]

>  <Interactions>  (1) 
["V-A:ILE:369:CG2:3237, V-B:PRO:540:CA:9855, V-A:GLY:454:CA:4049, V-B:GLU:543:C:9874, H-A:GLU:543:OE2:4910, V-B:GLU:543:CB:9878, V-B:TYR:539:CE2:9848, V-A:TYR:484:CE2:4346, V-B:GLU:543:CG:9879, V-B:TYR:539:C:9839, V-A:ASP:366:CG:3213, H-B:TYR:539:OH:9850, V-A:GLU:543:CD:4908, V-B:PRO:540:CB:9857, V-B:GLU:543:CA:9876, H-A:GLY:454:N:4050, V-B:PRO:540:N:9856, V-A:ILE:369:CD1:3239, V-A:HIS:456:CE1:4070, V-B:TYR:539:CD2:9846, V-A:SER:385:CB:3409, V-B:GLU:543:CD:9880, V-A:LEU:475:CD2:4259, H-A:ARG:545:NH2:4928, V-A:ARG:545:CZ:4926, H-A:GLU:543:OE1:4909, V-A:SER:385:CA:3407, V-B:PRO:540:C:9853, H-A:ASP:366:OD2:3215"]

$$$$
ZINC70698916-again1
     RDKit          3D

 82 87  0  0  0  0  0  0  0  0999 V2000
  127.5710  127.7380   62.7520 C   0  0  0  0  0  0  0  0  0  0  0  0
  127.6810  129.2610   62.5650 C   0  0  1  0  0  0  0  0  0  0  0  0
  128.0210  129.9930   63.8830 C   0  0  0  0  0  0  0  0  0  0  0  0
  127.1540  129.5700   65.0870 C   0  0  0  0  0  0  0  0  0  0  0  0
  127.9530  128.8510   66.1500 C   0  0  0  0  0  0  0  0  0  0  0  0
  128.6950  127.6780   66.1690 C   0  0  0  0  0  0  0  0  0  0  0  0
  129.2090  127.5410   67.4590 C   0  0  0  0  0  0  0  0  0  0  0  0
  128.7590  128.6370   68.1740 C   0  0  0  0  0  0  0  0  0  0  0  0
  127.9980  129.4320   67.3800 O   0  0  0  0  0  0  0  0  0  0  0  0
  128.7350  129.5370   61.5460 N   0  0  0  0  0  0  0  0  0  0  0  0
  128.4770  129.7000   60.2550 C   0  0  0  0  0  0  0  0  0  0  0  0
  129.5700  130.0270   59.2300 C   0  0  2  0  0  0  0  0  0  0  0  0
  130.3110  131.3280   59.7310 C   0  0  0  0  0  0  0  0  0  0  0  0
  131.3390  131.9080   58.7400 C   0  0  0  0  0  0  0  0  0  0  0  0
  130.7160  132.2190   57.3700 C   0  0  2  0  0  0  0  0  0  0  0  0
  129.8800  133.3580   57.4390 O   0  0  0  0  0  0  0  0  0  0  0  0
  129.9590  130.9790   56.8480 C   0  0  0  0  0  0  0  0  0  0  0  0
  128.8900  130.3490   57.8140 C   0  0  2  0  0  0  0  0  0  0  0  0
  127.8690  131.3350   57.9280 O   0  0  0  0  0  0  0  0  0  0  0  0
  128.2710  129.0900   57.1400 C   0  0  0  0  0  0  0  0  0  0  0  0
  129.2670  127.9180   57.0670 C   0  0  0  0  0  0  0  0  0  0  0  0
  129.8100  127.5470   58.4720 C   0  0  2  0  0  0  0  0  0  0  0  0
  130.5670  128.7890   59.0680 C   0  0  2  0  0  0  0  0  0  0  0  0
  131.3530  128.3950   60.3600 C   0  0  0  0  0  0  0  0  0  0  0  0
  131.0510  127.0130   60.9710 C   0  0  0  0  0  0  0  0  0  0  0  0
  131.1010  125.8070   59.9770 C   0  0  2  0  0  0  0  0  0  0  0  0
  130.1700  124.7050   60.5720 C   0  0  0  0  0  0  0  0  0  0  0  0
  132.5930  125.3340   59.8140 C   0  0  1  0  0  0  0  0  0  0  0  0
  133.0600  124.1440   60.6510 C   0  0  0  0  0  0  0  0  0  0  0  0
  133.0400  122.8370   60.3590 C   0  0  0  0  0  0  0  0  0  0  0  0
  133.5640  122.0830   61.4750 C   0  0  0  0  0  0  0  0  0  0  0  0
  133.6980  120.8640   61.5460 O   0  0  0  0  0  0  0  0  0  0  0  0
  133.8840  122.9430   62.4460 O   0  0  0  0  0  0  0  0  0  0  0  0
  133.6040  124.2680   62.0540 C   0  0  0  0  0  0  0  0  0  0  0  0
  132.8590  125.1930   58.3110 C   0  0  0  0  0  0  0  0  0  0  0  0
  131.9980  126.2950   57.7060 C   0  0  0  0  0  0  0  0  0  0  0  0
  130.6770  126.2370   58.5080 C   0  0  2  0  0  0  0  0  0  0  0  0
  129.8700  125.2370   57.8890 O   0  0  0  0  0  0  0  0  0  0  0  0
  127.5539  127.5007   63.8260 H   0  0  0  0  0  0  0  0  0  0  0  0
  126.6444  127.3768   62.2819 H   0  0  0  0  0  0  0  0  0  0  0  0
  128.4361  127.2474   62.2819 H   0  0  0  0  0  0  0  0  0  0  0  0
  126.7035  129.6398   62.2320 H   0  0  0  0  0  0  0  0  0  0  0  0
  129.0738  129.7893   64.1283 H   0  0  0  0  0  0  0  0  0  0  0  0
  127.8206  131.0608   63.7106 H   0  0  0  0  0  0  0  0  0  0  0  0
  126.7044  130.4700   65.5317 H   0  0  0  0  0  0  0  0  0  0  0  0
  126.3855  128.8747   64.7183 H   0  0  0  0  0  0  0  0  0  0  0  0
  128.8487  126.9874   65.3267 H   0  0  0  0  0  0  0  0  0  0  0  0
  129.8448  126.7249   67.8328 H   0  0  0  0  0  0  0  0  0  0  0  0
  128.9853  128.8350   69.2321 H   0  0  0  0  0  0  0  0  0  0  0  0
  129.6940  129.6220   61.8730 H   0  0  0  0  0  0  0  0  0  0  0  0
  127.4389  129.5966   59.9061 H   0  0  0  0  0  0  0  0  0  0  0  0
  129.5522  132.0997   59.9279 H   0  0  0  0  0  0  0  0  0  0  0  0
  130.8762  131.0364   60.6285 H   0  0  0  0  0  0  0  0  0  0  0  0
  131.7508  132.8372   59.1607 H   0  0  0  0  0  0  0  0  0  0  0  0
  132.1247  131.1530   58.5892 H   0  0  0  0  0  0  0  0  0  0  0  0
  131.5180  132.4568   56.6557 H   0  0  0  0  0  0  0  0  0  0  0  0
  129.0970  133.1290   57.9450 H   0  0  0  0  0  0  0  0  0  0  0  0
  129.4418  131.2691   55.9215 H   0  0  0  0  0  0  0  0  0  0  0  0
  130.7275  130.2025   56.7196 H   0  0  0  0  0  0  0  0  0  0  0  0
  128.1200  132.0970   57.4010 H   0  0  0  0  0  0  0  0  0  0  0  0
  127.3931  128.7726   57.7219 H   0  0  0  0  0  0  0  0  0  0  0  0
  127.9936  129.3610   56.1106 H   0  0  0  0  0  0  0  0  0  0  0  0
  128.7582  127.0424   56.6375 H   0  0  0  0  0  0  0  0  0  0  0  0
  130.1159  128.2243   56.4380 H   0  0  0  0  0  0  0  0  0  0  0  0
  128.9471  127.3000   59.1080 H   0  0  0  0  0  0  0  0  0  0  0  0
  131.3397  129.1319   58.3641 H   0  0  0  0  0  0  0  0  0  0  0  0
  132.4254  128.4227   60.1169 H   0  0  0  0  0  0  0  0  0  0  0  0
  131.0301  129.1198   61.1218 H   0  0  0  0  0  0  0  0  0  0  0  0
  131.7880  126.8265   61.7660 H   0  0  0  0  0  0  0  0  0  0  0  0
  130.0121  127.0638   61.3290 H   0  0  0  0  0  0  0  0  0  0  0  0
  130.2064  124.7481   61.6705 H   0  0  0  0  0  0  0  0  0  0  0  0
  129.1376  124.8747   60.2324 H   0  0  0  0  0  0  0  0  0  0  0  0
  130.5097  123.7154   60.2324 H   0  0  0  0  0  0  0  0  0  0  0  0
  133.2312  126.1100   60.2619 H   0  0  0  0  0  0  0  0  0  0  0  0
  132.6798  122.4038   59.4142 H   0  0  0  0  0  0  0  0  0  0  0  0
  132.8561  124.7206   62.7217 H   0  0  0  0  0  0  0  0  0  0  0  0
  134.4936  124.9133   62.1006 H   0  0  0  0  0  0  0  0  0  0  0  0
  133.9230  125.3514   58.0812 H   0  0  0  0  0  0  0  0  0  0  0  0
  132.6205  124.1927   57.9204 H   0  0  0  0  0  0  0  0  0  0  0  0
  132.4820  127.2758   57.8240 H   0  0  0  0  0  0  0  0  0  0  0  0
  131.8388  126.1569   56.6264 H   0  0  0  0  0  0  0  0  0  0  0  0
  130.3420  124.8960   57.1260 H   0  0  0  0  0  0  0  0  0  0  0  0
  1  2  1  0
  2  3  1  0
  3  4  1  0
  4  5  1  0
  5  6  2  0
  6  7  1  0
  7  8  2  0
  8  9  1  0
  2 10  1  0
 10 11  2  0
 12 11  1  1
 12 13  1  0
 13 14  1  0
 14 15  1  0
 15 16  1  0
 15 17  1  0
 17 18  1  0
 18 19  1  1
 18 20  1  0
 20 21  1  0
 21 22  1  0
 22 23  1  0
 23 24  1  0
 24 25  1  0
 25 26  1  0
 26 27  1  1
 26 28  1  0
 28 29  1  0
 29 30  2  0
 30 31  1  0
 31 32  2  0
 31 33  1  0
 33 34  1  0
 28 35  1  0
 35 36  1  0
 36 37  1  0
 37 38  1  6
  9  5  1  0
 18 12  1  0
 37 22  1  0
 23 12  1  0
 37 26  1  0
 34 29  1  0
  1 39  1  0
  1 40  1  0
  1 41  1  0
  2 42  1  6
  3 43  1  0
  3 44  1  0
  4 45  1  0
  4 46  1  0
  6 47  1  0
  7 48  1  0
  8 49  1  0
 10 50  1  0
 11 51  1  0
 13 52  1  0
 13 53  1  0
 14 54  1  0
 14 55  1  0
 15 56  1  6
 16 57  1  0
 17 58  1  0
 17 59  1  0
 19 60  1  0
 20 61  1  0
 20 62  1  0
 21 63  1  0
 21 64  1  0
 22 65  1  1
 23 66  1  6
 24 67  1  0
 24 68  1  0
 25 69  1  0
 25 70  1  0
 27 71  1  0
 27 72  1  0
 27 73  1  0
 28 74  1  1
 30 75  1  0
 34 76  1  0
 34 77  1  0
 35 78  1  0
 35 79  1  0
 36 80  1  0
 36 81  1  0
 38 82  1  0
M  CHG  1  10   1
M  END
>  <Binding energies>  (1) 
[-8.48]

>  <Ligand effiencies>  (1) 
[-0.20190476190476192]

>  <Interactions>  (1) 
["V-A:ILE:369:CG2:3237, V-A:ASP:366:CA:3210, V-B:TYR:539:CE2:9848, V-B:GLU:543:CG:9879, V-A:ASP:366:CG:3213, V-B:TYR:539:CZ:9849, H-B:TYR:539:OH:9850, V-A:GLU:543:CD:4908, H-B:TYR:484:OH:9319, V-B:HIS:456:CE1:9041, H-A:GLY:454:N:4050, V-A:ILE:369:CD1:3239, V-A:ASP:366:C:3208, V-A:GLU:543:CG:4907, V-A:TYR:531:CZ:4794, H-A:SER:385:OG:3410, V-B:GLU:543:CD:9880, V-A:MET:535:CE:4835, V-A:ASP:366:CB:3212, V-A:LEU:475:CD2:4259, H-A:GLU:543:OE1:4909, V-A:GLU:543:CB:4906, H-A:TYR:539:O:4868, H-A:TYR:539:N:4870, V-A:PRO:540:CB:4885, V-A:PRO:540:CA:4883"]

$$$$
ZINC70701466
     RDKit          3D

 69 74  0  0  0  0  0  0  0  0999 V2000
  129.0530  132.9200   60.3600 C   0  0  0  0  0  0  0  0  0  0  0  0
  130.1650  132.6150   59.5240 O   0  0  0  0  0  0  0  0  0  0  0  0
  130.4930  131.2920   59.2810 C   0  0  0  0  0  0  0  0  0  0  0  0
  129.8650  130.2070   59.9170 C   0  0  0  0  0  0  0  0  0  0  0  0
  130.2440  128.8980   59.6290 C   0  0  0  0  0  0  0  0  0  0  0  0
  131.2540  128.6480   58.7000 C   0  0  0  0  0  0  0  0  0  0  0  0
  131.6660  127.2190   58.3870 C   0  0  0  0  0  0  0  0  0  0  0  0
  132.1280  126.4580   59.6450 C   0  0  0  0  0  0  0  0  0  0  0  0
  131.0020  125.8850   60.3970 N   0  0  0  0  0  0  0  0  0  0  0  0
  130.6280  126.3440   61.6170 C   0  0  0  0  0  0  0  0  0  0  0  0
  131.1600  127.2300   62.2860 O   0  0  0  0  0  0  0  0  0  0  0  0
  129.3200  125.6310   61.9590 C   0  0  2  0  0  0  0  0  0  0  0  0
  129.1780  124.9930   63.3550 C   0  0  2  0  0  0  0  0  0  0  0  0
  129.5630  125.8530   64.5810 C   0  0  0  0  0  0  0  0  0  0  0  0
  130.9860  125.6100   65.0660 C   0  0  0  0  0  0  0  0  0  0  0  0
  131.2930  125.6920   66.4270 C   0  0  0  0  0  0  0  0  0  0  0  0
  132.5980  125.4720   66.8680 C   0  0  0  0  0  0  0  0  0  0  0  0
  133.6060  125.1700   65.9520 C   0  0  0  0  0  0  0  0  0  0  0  0
  134.8830  124.9580   66.4070 O   0  0  0  0  0  0  0  0  0  0  0  0
  133.3070  125.0880   64.5860 C   0  0  0  0  0  0  0  0  0  0  0  0
  134.2800  124.7940   63.6650 O   0  0  0  0  0  0  0  0  0  0  0  0
  131.9980  125.3080   64.1490 C   0  0  0  0  0  0  0  0  0  0  0  0
  129.8530  123.7030   63.2640 N   0  0  0  0  0  0  0  0  0  0  0  0
  129.6480  123.2050   61.9020 C   0  0  2  0  0  0  0  0  0  0  0  0
  128.4420  122.2240   61.9090 C   0  0  0  0  0  0  0  0  0  0  0  0
  127.3070  122.4640   62.3240 O   0  0  0  0  0  0  0  0  0  0  0  0
  128.8580  121.0740   61.3470 N   0  0  0  0  0  0  0  0  0  0  0  0
  130.2080  121.0740   61.0540 C   0  0  0  0  0  0  0  0  0  0  0  0
  130.9950  120.0510   60.5270 C   0  0  0  0  0  0  0  0  0  0  0  0
  132.3680  120.2620   60.3830 C   0  0  0  0  0  0  0  0  0  0  0  0
  132.9360  121.4770   60.7750 C   0  0  0  0  0  0  0  0  0  0  0  0
  132.1320  122.4900   61.3030 C   0  0  0  0  0  0  0  0  0  0  0  0
  130.7530  122.2890   61.4240 C   0  0  0  0  0  0  0  0  0  0  0  0
  129.2730  124.4610   61.0240 C   0  0  2  0  0  0  0  0  0  0  0  0
  130.2500  124.8600   59.9200 C   0  0  0  0  0  0  0  0  0  0  0  0
  130.3330  124.3080   58.8220 O   0  0  0  0  0  0  0  0  0  0  0  0
  131.8810  129.7210   58.0630 C   0  0  0  0  0  0  0  0  0  0  0  0
  131.5100  131.0480   58.3470 C   0  0  0  0  0  0  0  0  0  0  0  0
  132.0970  132.1510   57.7510 O   0  0  0  0  0  0  0  0  0  0  0  0
  131.7500  132.4930   56.4130 C   0  0  0  0  0  0  0  0  0  0  0  0
  129.3538  132.8375   61.4149 H   0  0  0  0  0  0  0  0  0  0  0  0
  128.7108  133.9452   60.1554 H   0  0  0  0  0  0  0  0  0  0  0  0
  128.2356  132.2129   60.1554 H   0  0  0  0  0  0  0  0  0  0  0  0
  129.0660  130.3937   60.6497 H   0  0  0  0  0  0  0  0  0  0  0  0
  129.7452  128.0587   60.1358 H   0  0  0  0  0  0  0  0  0  0  0  0
  130.8066  126.6904   57.9487 H   0  0  0  0  0  0  0  0  0  0  0  0
  132.5124  127.2573   57.6854 H   0  0  0  0  0  0  0  0  0  0  0  0
  132.7996  125.6426   59.3382 H   0  0  0  0  0  0  0  0  0  0  0  0
  132.6406  127.1757   60.3025 H   0  0  0  0  0  0  0  0  0  0  0  0
  128.5413  126.4054   61.8974 H   0  0  0  0  0  0  0  0  0  0  0  0
  128.1090  124.8789   63.5879 H   0  0  0  0  0  0  0  0  0  0  0  0
  129.4639  126.9139   64.3079 H   0  0  0  0  0  0  0  0  0  0  0  0
  128.8871  125.5705   65.4016 H   0  0  0  0  0  0  0  0  0  0  0  0
  130.5023  125.9310   67.1534 H   0  0  0  0  0  0  0  0  0  0  0  0
  132.8329  125.5368   67.9407 H   0  0  0  0  0  0  0  0  0  0  0  0
  134.9030  124.6770   67.3250 H   0  0  0  0  0  0  0  0  0  0  0  0
  134.3930  125.4810   63.0040 H   0  0  0  0  0  0  0  0  0  0  0  0
  131.7619  125.2432   63.0766 H   0  0  0  0  0  0  0  0  0  0  0  0
  130.8420  123.8250   63.4270 H   0  0  0  0  0  0  0  0  0  0  0  0
  128.2570  120.2710   61.2320 H   0  0  0  0  0  0  0  0  0  0  0  0
  130.5421  119.0937   60.2296 H   0  0  0  0  0  0  0  0  0  0  0  0
  133.0036  119.4701   59.9601 H   0  0  0  0  0  0  0  0  0  0  0  0
  134.0191  121.6362   60.6675 H   0  0  0  0  0  0  0  0  0  0  0  0
  132.5815  123.4418   61.6223 H   0  0  0  0  0  0  0  0  0  0  0  0
  128.3180  124.2025   60.5431 H   0  0  0  0  0  0  0  0  0  0  0  0
  132.6764  129.5258   57.3286 H   0  0  0  0  0  0  0  0  0  0  0  0
  130.9666  133.2651   56.4233 H   0  0  0  0  0  0  0  0  0  0  0  0
  132.6381  132.8787   55.8910 H   0  0  0  0  0  0  0  0  0  0  0  0
  131.3772  131.5994   55.8910 H   0  0  0  0  0  0  0  0  0  0  0  0
  1  2  1  0
  2  3  1  0
  3  4  2  0
  4  5  1  0
  5  6  2  0
  6  7  1  0
  7  8  1  0
  8  9  1  0
  9 10  1  0
 10 11  2  0
 10 12  1  0
 12 13  1  0
 13 14  1  0
 14 15  1  0
 15 16  2  0
 16 17  1  0
 17 18  2  0
 18 19  1  0
 18 20  1  0
 20 21  1  0
 20 22  2  0
 13 23  1  0
 24 23  1  1
 24 25  1  0
 25 26  2  0
 25 27  1  0
 27 28  1  0
 28 29  2  0
 29 30  1  0
 30 31  2  0
 31 32  1  0
 32 33  2  0
 24 34  1  0
 34 35  1  0
 35 36  2  0
  6 37  1  0
 37 38  2  0
 38 39  1  0
 39 40  1  0
 38  3  1  0
 35  9  1  0
 34 12  1  0
 22 15  1  0
 33 24  1  0
 33 28  1  0
  1 41  1  0
  1 42  1  0
  1 43  1  0
  4 44  1  0
  5 45  1  0
  7 46  1  0
  7 47  1  0
  8 48  1  0
  8 49  1  0
 12 50  1  6
 13 51  1  1
 14 52  1  0
 14 53  1  0
 16 54  1  0
 17 55  1  0
 19 56  1  0
 21 57  1  0
 22 58  1  0
 23 59  1  0
 27 60  1  0
 29 61  1  0
 30 62  1  0
 31 63  1  0
 32 64  1  0
 34 65  1  6
 37 66  1  0
 40 67  1  0
 40 68  1  0
 40 69  1  0
M  END
>  <Binding energies>  (1) 
[-7.64]

>  <Ligand effiencies>  (1) 
[-0.17363636363636362]

>  <Interactions>  (1) 
["V-A:ILE:369:CG2:3237, V-B:PRO:540:CA:9855, V-A:ILE:538:CB:4862, V-B:ALA:541:CB:9864, H-A:ARG:545:NH1:4927, V-B:TYR:539:CE2:9848, V-B:GLU:543:CG:9879, V-B:TYR:539:C:9839, V-A:ASP:366:CG:3213, V-A:ILE:538:CG2:4863, V-A:LEU:363:CD1:3189, H-B:TYR:539:OH:9850, H-B:ALA:541:N:9863, H-A:ILE:455:O:4053, V-A:GLU:543:CD:4908, V-A:TYR:484:CZ:4347, V-A:ARG:545:CG:4922, H-A:GLY:454:N:4050, V-A:HIS:456:CE1:4070, V-B:TYR:539:CD2:9846, V-A:TYR:531:CZ:4794, V-A:SER:385:CB:3409, V-B:GLU:543:CD:9880, V-A:TYR:539:C:4867, V-A:ASP:366:CB:3212, V-A:ARG:545:CD:4923, V-A:LEU:475:CD2:4259, H-A:ILE:455:N:4055, H-A:ARG:545:NH2:4928, V-A:ARG:545:CZ:4926, H-A:ASP:366:OD1:3214, V-A:PRO:540:N:4884, V-A:PRO:540:CA:4883, H-B:TYR:539:O:9840, H-A:ARG:545:NE:4924, V-B:PRO:540:C:9853, V-B:ALA:541:CA:9862, H-A:TYR:484:OH:4348, H-B:PRO:540:O:9854"]

$$$$
ZINC708797
     RDKit          3D

 41 44  0  0  0  0  0  0  0  0999 V2000
  131.9760  124.7650   75.1420 C   0  0  0  0  0  0  0  0  0  0  0  0
  131.7610  126.2290   74.7780 C   0  0  0  0  0  0  0  0  0  0  0  0
  132.7070  127.0190   74.7340 O   0  0  0  0  0  0  0  0  0  0  0  0
  130.4520  126.5070   74.5310 O   0  0  0  0  0  0  0  0  0  0  0  0
  130.0570  126.8680   73.2620 C   0  0  0  0  0  0  0  0  0  0  0  0
  128.7330  126.6970   72.8440 C   0  0  0  0  0  0  0  0  0  0  0  0
  128.3510  127.0910   71.5650 C   0  0  0  0  0  0  0  0  0  0  0  0
  129.2810  127.6720   70.6940 C   0  0  0  0  0  0  0  0  0  0  0  0
  128.9290  128.1010   69.3230 C   0  0  0  0  0  0  0  0  0  0  0  0
  129.1210  127.4240   68.1690 C   0  0  0  0  0  0  0  0  0  0  0  0
  129.7290  126.2120   68.0860 O   0  0  0  0  0  0  0  0  0  0  0  0
  129.7520  125.8420   66.7740 C   0  0  0  0  0  0  0  0  0  0  0  0
  130.2900  124.6580   66.2780 C   0  0  0  0  0  0  0  0  0  0  0  0
  130.2330  124.4280   64.9010 C   0  0  0  0  0  0  0  0  0  0  0  0
  129.6450  125.3730   64.0390 C   0  0  0  0  0  0  0  0  0  0  0  0
  129.5410  125.1990   62.5730 C   0  0  0  0  0  0  0  0  0  0  0  0
  130.0990  123.9270   61.9490 C   0  0  0  0  0  0  0  0  0  0  0  0
  128.9610  126.1600   61.8220 C   0  0  0  0  0  0  0  0  0  0  0  0
  128.4160  127.3930   62.4070 C   0  0  0  0  0  0  0  0  0  0  0  0
  127.8760  128.3190   61.8050 O   0  0  0  0  0  0  0  0  0  0  0  0
  128.5220  127.5330   63.7800 O   0  0  0  0  0  0  0  0  0  0  0  0
  129.1130  126.5610   64.5780 C   0  0  0  0  0  0  0  0  0  0  0  0
  129.1730  126.7830   65.9560 C   0  0  0  0  0  0  0  0  0  0  0  0
  128.7320  127.8720   66.8300 C   0  0  0  0  0  0  0  0  0  0  0  0
  128.1660  128.9290   66.5550 O   0  0  0  0  0  0  0  0  0  0  0  0
  130.5980  127.8560   71.1270 C   0  0  0  0  0  0  0  0  0  0  0  0
  130.9850  127.4610   72.4040 C   0  0  0  0  0  0  0  0  0  0  0  0
  131.9917  124.6578   76.2367 H   0  0  0  0  0  0  0  0  0  0  0  0
  131.1571  124.1597   74.7261 H   0  0  0  0  0  0  0  0  0  0  0  0
  132.9343  124.4207   74.7261 H   0  0  0  0  0  0  0  0  0  0  0  0
  127.9940  126.2512   73.5260 H   0  0  0  0  0  0  0  0  0  0  0  0
  127.3115  126.9450   71.2361 H   0  0  0  0  0  0  0  0  0  0  0  0
  128.4542  129.0891   69.2316 H   0  0  0  0  0  0  0  0  0  0  0  0
  130.7489  123.9212   66.9537 H   0  0  0  0  0  0  0  0  0  0  0  0
  130.6518  123.4992   64.4863 H   0  0  0  0  0  0  0  0  0  0  0  0
  130.4041  123.2315   62.7448 H   0  0  0  0  0  0  0  0  0  0  0  0
  129.3255  123.4545   61.3257 H   0  0  0  0  0  0  0  0  0  0  0  0
  130.9705  124.1761   61.3257 H   0  0  0  0  0  0  0  0  0  0  0  0
  128.8942  126.0146   60.7337 H   0  0  0  0  0  0  0  0  0  0  0  0
  131.3344  128.3170   70.4523 H   0  0  0  0  0  0  0  0  0  0  0  0
  132.0218  127.6160   72.7373 H   0  0  0  0  0  0  0  0  0  0  0  0
  1  2  1  0
  2  3  2  0
  2  4  1  0
  4  5  1  0
  5  6  2  0
  6  7  1  0
  7  8  2  0
  8  9  1  0
  9 10  2  0
 10 11  1  0
 11 12  1  0
 12 13  2  0
 13 14  1  0
 14 15  2  0
 15 16  1  0
 16 17  1  0
 16 18  2  0
 18 19  1  0
 19 20  2  0
 19 21  1  0
 21 22  1  0
 22 23  2  0
 23 24  1  0
 24 25  2  0
  8 26  1  0
 26 27  2  0
 27  5  1  0
 24 10  1  0
 23 12  1  0
 22 15  1  0
  1 28  1  0
  1 29  1  0
  1 30  1  0
  6 31  1  0
  7 32  1  0
  9 33  1  0
 13 34  1  0
 14 35  1  0
 17 36  1  0
 17 37  1  0
 17 38  1  0
 18 39  1  0
 26 40  1  0
 27 41  1  0
M  END
>  <Binding energies>  (1) 
[-6.66]

>  <Ligand effiencies>  (1) 
[-0.24666666666666667]

>  <Interactions>  (1) 
["V-A:GLU:543:C:4902, V-B:GLU:543:CB:9878, H-B:LYS:547:NZ:9923, V-A:TYR:484:CE2:4346, V-B:GLU:543:CG:9879, V-A:GLY:544:C:4912, V-A:HIS:456:CD2:4068, V-A:HIS:456:CB:4065, V-B:LYS:547:CE:9922, V-A:GLU:543:CD:4908, V-A:TYR:484:CZ:4347, H-B:TYR:484:OH:9319, V-B:HIS:456:CE1:9041, V-A:HIS:456:CE1:4070, V-A:GLU:543:CG:4907, V-B:GLU:543:CD:9880, H-A:LYS:547:NZ:4951, V-A:GLU:543:CB:4906, V-A:HIS:456:CG:4066"]

$$$$
ZINC709326899
     RDKit          3D

 38 38  0  0  0  0  0  0  0  0999 V2000
  125.5490  133.8980   60.9060 C   0  0  0  0  0  0  0  0  0  0  0  0
  126.5780  133.9670   61.5600 C   0  0  0  0  0  0  0  0  0  0  0  0
  127.8240  134.0360   62.3460 C   0  0  0  0  0  0  0  0  0  0  0  0
  128.6470  132.7280   62.3680 C   0  0  2  0  0  0  0  0  0  0  0  0
  128.9260  132.2600   63.8110 C   0  0  0  0  0  0  0  0  0  0  0  0
  129.8790  132.9360   61.6690 O   0  0  0  0  0  0  0  0  0  0  0  0
  130.9630  132.1220   61.8440 C   0  0  0  0  0  0  0  0  0  0  0  0
  131.7020  132.1650   62.8310 O   0  0  0  0  0  0  0  0  0  0  0  0
  131.2350  131.0900   60.6980 C   0  0  0  0  0  0  0  0  0  0  0  0
  131.4230  129.6480   61.2340 N   0  0  0  0  0  0  0  0  0  0  0  0
  129.9920  131.0290   59.7440 C   0  0  0  0  0  0  0  0  0  0  0  0
  129.8400  132.1640   58.7060 C   0  0  0  0  0  0  0  0  0  0  0  0
  130.9850  132.2250   57.6740 C   0  0  0  0  0  0  0  0  0  0  0  0
  131.8570  130.9610   57.5510 C   0  0  0  0  0  0  0  0  0  0  0  0
  132.9110  130.7570   58.6590 C   0  0  0  0  0  0  0  0  0  0  0  0
  132.5770  131.4750   59.9870 C   0  0  0  0  0  0  0  0  0  0  0  0
  124.6221  133.8358   60.3169 H   0  0  0  0  0  0  0  0  0  0  0  0
  128.4544  134.8303   61.9198 H   0  0  0  0  0  0  0  0  0  0  0  0
  127.5247  134.2323   63.3861 H   0  0  0  0  0  0  0  0  0  0  0  0
  128.0634  131.9388   61.8714 H   0  0  0  0  0  0  0  0  0  0  0  0
  128.4955  132.9821   64.5204 H   0  0  0  0  0  0  0  0  0  0  0  0
  128.4693  131.2721   63.9709 H   0  0  0  0  0  0  0  0  0  0  0  0
  130.0122  132.1920   63.9709 H   0  0  0  0  0  0  0  0  0  0  0  0
  132.4050  129.4120   61.2470 H   0  0  0  0  0  0  0  0  0  0  0  0
  130.9420  128.9890   60.6380 H   0  0  0  0  0  0  0  0  0  0  0  0
  131.0620  129.5740   62.1740 H   0  0  0  0  0  0  0  0  0  0  0  0
  130.0463  130.0799   59.1906 H   0  0  0  0  0  0  0  0  0  0  0  0
  129.1209  131.1339   60.4074 H   0  0  0  0  0  0  0  0  0  0  0  0
  128.8939  132.0142   58.1651 H   0  0  0  0  0  0  0  0  0  0  0  0
  129.8622  133.1118   59.2638 H   0  0  0  0  0  0  0  0  0  0  0  0
  130.5384  132.4220   56.6882 H   0  0  0  0  0  0  0  0  0  0  0  0
  131.6612  133.0159   58.0306 H   0  0  0  0  0  0  0  0  0  0  0  0
  131.1876  130.0881   57.5582 H   0  0  0  0  0  0  0  0  0  0  0  0
  132.4268  131.0830   56.6180 H   0  0  0  0  0  0  0  0  0  0  0  0
  132.9960  129.6790   58.8609 H   0  0  0  0  0  0  0  0  0  0  0  0
  133.8497  131.1948   58.2887 H   0  0  0  0  0  0  0  0  0  0  0  0
  133.3955  131.2640   60.6909 H   0  0  0  0  0  0  0  0  0  0  0  0
  132.4555  132.5330   59.7115 H   0  0  0  0  0  0  0  0  0  0  0  0
  1  2  3  0
  2  3  1  0
  3  4  1  0
  4  5  1  0
  4  6  1  0
  6  7  1  0
  7  8  2  0
  7  9  1  0
  9 10  1  0
  9 11  1  0
 11 12  1  0
 12 13  1  0
 13 14  1  0
 14 15  1  0
 15 16  1  0
 16  9  1  0
  1 17  1  0
  3 18  1  0
  3 19  1  0
  4 20  1  6
  5 21  1  0
  5 22  1  0
  5 23  1  0
 10 24  1  0
 10 25  1  0
 10 26  1  0
 11 27  1  0
 11 28  1  0
 12 29  1  0
 12 30  1  0
 13 31  1  0
 13 32  1  0
 14 33  1  0
 14 34  1  0
 15 35  1  0
 15 36  1  0
 16 37  1  0
 16 38  1  0
M  CHG  1  10   1
M  END
>  <Binding energies>  (1) 
[-4.58]

>  <Ligand effiencies>  (1) 
[-0.2180952380952381]

>  <Interactions>  (1) 
["V-A:TYR:539:CD1:4873, V-A:PRO:540:N:4884, V-A:LEU:363:CD1:3189, V-A:PRO:540:CB:4885, V-A:PRO:540:CA:4883, H-A:ALA:541:N:4891, V-A:PRO:540:C:4881, V-A:ALA:541:CB:4892, V-A:GLU:543:CG:4907, H-A:ASP:366:OD2:3215, V-A:ASP:366:CB:3212, V-B:LEU:475:CD2:9230, H-A:GLU:543:OE1:4909, V-A:TYR:539:CE1:4875, V-A:ASP:366:CG:3213, H-A:ASP:366:OD1:3214"]

$$$$
ZINC709374398
     RDKit          3D

 41 43  0  0  0  0  0  0  0  0999 V2000
  126.9970  122.7720   63.0920 N   0  0  0  0  0  0  0  0  0  0  0  0
  127.6270  123.0320   62.1570 C   0  0  0  0  0  0  0  0  0  0  0  0
  128.4340  123.3670   60.9590 C   0  0  1  0  0  0  0  0  0  0  0  0
  129.7550  122.6900   61.0740 N   0  0  0  0  0  0  0  0  0  0  0  0
  130.8450  123.5560   61.5590 C   0  0  0  0  0  0  0  0  0  0  0  0
  132.2370  123.1370   61.0430 C   0  0  0  0  0  0  0  0  0  0  0  0
  132.6620  121.6850   61.3320 C   0  0  0  0  0  0  0  0  0  0  0  0
  131.9050  120.5980   60.5500 C   0  0  0  0  0  0  0  0  0  0  0  0
  130.5710  120.2020   61.2010 C   0  0  0  0  0  0  0  0  0  0  0  0
  129.7060  121.3680   61.7290 C   0  0  0  0  0  0  0  0  0  0  0  0
  127.6160  122.8720   59.7020 C   0  0  0  0  0  0  0  0  0  0  0  0
  126.5390  123.8430   59.1420 C   0  0  1  0  0  0  0  0  0  0  0  0
  125.4460  124.2020   60.1630 C   0  0  0  0  0  0  0  0  0  0  0  0
  126.0080  125.4270   60.9100 N   0  0  0  0  0  0  0  0  0  0  0  0
  127.3860  125.6960   60.2780 C   0  0  2  0  0  0  0  0  0  0  0  0
  127.1800  125.1940   58.8530 C   0  0  0  0  0  0  0  0  0  0  0  0
  128.5650  124.9370   60.9330 C   0  0  0  0  0  0  0  0  0  0  0  0
  130.6458  124.5857   61.2274 H   0  0  0  0  0  0  0  0  0  0  0  0
  130.8655  123.4684   62.6553 H   0  0  0  0  0  0  0  0  0  0  0  0
  132.2469  123.2785   59.9522 H   0  0  0  0  0  0  0  0  0  0  0  0
  132.9546  123.7673   61.5886 H   0  0  0  0  0  0  0  0  0  0  0  0
  133.7311  121.5918   61.0906 H   0  0  0  0  0  0  0  0  0  0  0  0
  132.4259  121.5098   62.3920 H   0  0  0  0  0  0  0  0  0  0  0  0
  131.7014  120.9742   59.5366 H   0  0  0  0  0  0  0  0  0  0  0  0
  132.5416  119.7010   60.5377 H   0  0  0  0  0  0  0  0  0  0  0  0
  129.9793  119.6557   60.4517 H   0  0  0  0  0  0  0  0  0  0  0  0
  130.8369  119.6042   62.0853 H   0  0  0  0  0  0  0  0  0  0  0  0
  128.6598  121.0312   61.6826 H   0  0  0  0  0  0  0  0  0  0  0  0
  130.1355  121.5664   62.7221 H   0  0  0  0  0  0  0  0  0  0  0  0
  128.3354  122.6710   58.8945 H   0  0  0  0  0  0  0  0  0  0  0  0
  127.0571  121.9909   60.0501 H   0  0  0  0  0  0  0  0  0  0  0  0
  126.1170  123.3240   58.2687 H   0  0  0  0  0  0  0  0  0  0  0  0
  124.5048  124.4550   59.6530 H   0  0  0  0  0  0  0  0  0  0  0  0
  125.2144  123.3671   60.8408 H   0  0  0  0  0  0  0  0  0  0  0  0
  125.3970  126.2200   60.7770 H   0  0  0  0  0  0  0  0  0  0  0  0
  126.0840  125.2600   61.9040 H   0  0  0  0  0  0  0  0  0  0  0  0
  127.6712  126.7530   60.3852 H   0  0  0  0  0  0  0  0  0  0  0  0
  126.5083  125.8512   58.2812 H   0  0  0  0  0  0  0  0  0  0  0  0
  128.0914  125.1537   58.2384 H   0  0  0  0  0  0  0  0  0  0  0  0
  129.4806  125.1910   60.3788 H   0  0  0  0  0  0  0  0  0  0  0  0
  128.5796  125.2551   61.9859 H   0  0  0  0  0  0  0  0  0  0  0  0
  1  2  3  0
  3  2  1  1
  3  4  1  0
  4  5  1  0
  5  6  1  0
  6  7  1  0
  7  8  1  0
  8  9  1  0
  9 10  1  0
  3 11  1  0
 11 12  1  0
 12 13  1  0
 13 14  1  0
 14 15  1  0
 15 16  1  0
 15 17  1  0
 17  3  1  0
 10  4  1  0
 16 12  1  0
  5 18  1  0
  5 19  1  0
  6 20  1  0
  6 21  1  0
  7 22  1  0
  7 23  1  0
  8 24  1  0
  8 25  1  0
  9 26  1  0
  9 27  1  0
 10 28  1  0
 10 29  1  0
 11 30  1  0
 11 31  1  0
 12 32  1  6
 13 33  1  0
 13 34  1  0
 14 35  1  0
 14 36  1  0
 15 37  1  6
 16 38  1  0
 16 39  1  0
 17 40  1  0
 17 41  1  0
M  CHG  1  14   1
M  END
>  <Binding energies>  (1) 
[-5.23]

>  <Ligand effiencies>  (1) 
[-0.24904761904761907]

>  <Interactions>  (1) 
["V-B:PRO:540:CA:9855, H-B:GLU:543:OE1:9881, V-B:TYR:539:CD2:9846, H-B:ALA:541:N:9863, V-B:GLU:543:CD:9880, V-B:ALA:541:CB:9864, V-B:ASP:366:CG:8184, V-B:TYR:539:CE2:9848, V-B:PRO:540:CB:9857, V-B:GLU:543:CG:9879, V-A:LEU:475:CD2:4259, H-B:ASP:366:OD1:8185, V-B:TYR:539:C:9839, H-B:ASP:366:OD2:8186, V-B:PRO:540:N:9856"]

$$$$
ZINC709374398-again1
     RDKit          3D

 42 44  0  0  0  0  0  0  0  0999 V2000
  133.0900  125.4560   66.6530 N   0  0  0  0  0  0  0  0  0  0  0  0
  131.9790  125.4540   66.3270 C   0  0  0  0  0  0  0  0  0  0  0  0
  130.5590  125.4520   65.9130 C   0  0  1  0  0  0  0  0  0  0  0  0
  129.8370  126.5130   66.8190 N   0  0  0  0  0  0  0  0  0  0  0  0
  129.3770  125.9680   68.1990 C   0  0  0  0  0  0  0  0  0  0  0  0
  129.6630  126.9770   69.3240 C   0  0  0  0  0  0  0  0  0  0  0  0
  128.7940  128.2470   69.3330 C   0  0  0  0  0  0  0  0  0  0  0  0
  128.7710  129.0540   68.0230 C   0  0  0  0  0  0  0  0  0  0  0  0
  127.9760  128.3750   66.8950 C   0  0  0  0  0  0  0  0  0  0  0  0
  128.7280  127.3090   66.0730 C   0  0  0  0  0  0  0  0  0  0  0  0
  130.4210  125.8850   64.4090 C   0  0  0  0  0  0  0  0  0  0  0  0
  130.6050  124.7230   63.3900 C   0  0  1  0  0  0  0  0  0  0  0  0
  131.9510  123.9870   63.5290 C   0  0  0  0  0  0  0  0  0  0  0  0
  131.6880  122.8890   64.5810 N   0  0  0  0  0  0  0  0  0  0  0  0
  130.2090  123.0470   64.9810 C   0  0  2  0  0  0  0  0  0  0  0  0
  129.6060  123.6110   63.6950 C   0  0  0  0  0  0  0  0  0  0  0  0
  129.9360  124.0320   66.1450 C   0  0  0  0  0  0  0  0  0  0  0  0
  130.5520  127.1910   67.0380 H   0  0  0  0  0  0  0  0  0  0  0  0
  128.2957  125.7690   68.1629 H   0  0  0  0  0  0  0  0  0  0  0  0
  129.9367  125.0450   68.4110 H   0  0  0  0  0  0  0  0  0  0  0  0
  129.5136  126.4610   70.2839 H   0  0  0  0  0  0  0  0  0  0  0  0
  130.6924  127.3252   69.1533 H   0  0  0  0  0  0  0  0  0  0  0  0
  127.7609  127.9470   69.5624 H   0  0  0  0  0  0  0  0  0  0  0  0
  129.2452  128.9115   70.0845 H   0  0  0  0  0  0  0  0  0  0  0  0
  128.3167  130.0349   68.2268 H   0  0  0  0  0  0  0  0  0  0  0  0
  129.8121  129.1385   67.6780 H   0  0  0  0  0  0  0  0  0  0  0  0
  127.0986  127.8907   67.3484 H   0  0  0  0  0  0  0  0  0  0  0  0
  127.7353  129.1778   66.1825 H   0  0  0  0  0  0  0  0  0  0  0  0
  127.9858  126.5847   65.7063 H   0  0  0  0  0  0  0  0  0  0  0  0
  129.2513  127.8665   65.2822 H   0  0  0  0  0  0  0  0  0  0  0  0
  129.4188  126.3148   64.2645 H   0  0  0  0  0  0  0  0  0  0  0  0
  131.2273  126.6072   64.2132 H   0  0  0  0  0  0  0  0  0  0  0  0
  130.5000  125.2024   62.4055 H   0  0  0  0  0  0  0  0  0  0  0  0
  132.2507  123.5412   62.5691 H   0  0  0  0  0  0  0  0  0  0  0  0
  132.7668  124.6624   63.8262 H   0  0  0  0  0  0  0  0  0  0  0  0
  131.8480  121.9790   64.1740 H   0  0  0  0  0  0  0  0  0  0  0  0
  132.2990  122.9760   65.3820 H   0  0  0  0  0  0  0  0  0  0  0  0
  129.7984  122.0955   65.3498 H   0  0  0  0  0  0  0  0  0  0  0  0
  129.5785  122.8577   62.8939 H   0  0  0  0  0  0  0  0  0  0  0  0
  128.5609  123.9426   63.7834 H   0  0  0  0  0  0  0  0  0  0  0  0
  128.8478  124.1426   66.2611 H   0  0  0  0  0  0  0  0  0  0  0  0
  130.4076  123.6118   67.0456 H   0  0  0  0  0  0  0  0  0  0  0  0
  1  2  3  0
  3  2  1  1
  3  4  1  0
  4  5  1  0
  5  6  1  0
  6  7  1  0
  7  8  1  0
  8  9  1  0
  9 10  1  0
  3 11  1  0
 11 12  1  0
 12 13  1  0
 13 14  1  0
 14 15  1  0
 15 16  1  0
 15 17  1  0
 17  3  1  0
 10  4  1  0
 16 12  1  0
  4 18  1  0
  5 19  1  0
  5 20  1  0
  6 21  1  0
  6 22  1  0
  7 23  1  0
  7 24  1  0
  8 25  1  0
  8 26  1  0
  9 27  1  0
  9 28  1  0
 10 29  1  0
 10 30  1  0
 11 31  1  0
 11 32  1  0
 12 33  1  6
 13 34  1  0
 13 35  1  0
 14 36  1  0
 14 37  1  0
 15 38  1  1
 16 39  1  0
 16 40  1  0
 17 41  1  0
 17 42  1  0
M  CHG  2   4   1  14   1
M  END
>  <Binding energies>  (1) 
[-4.99]

>  <Ligand effiencies>  (1) 
[-0.22681818181818184]

>  <Interactions>  (1) 
["V-A:HIS:456:CE1:4070, V-A:GLU:543:CA:4904, V-B:GLU:543:C:9874, H-A:GLU:543:OE2:4910, V-B:HIS:456:CE1:9041, V-B:GLU:543:CB:9878, V-A:GLU:543:CG:4907, H-A:ARG:545:NE:4924, V-B:GLU:543:CD:9880, V-A:GLU:543:CB:4906, V-A:GLU:543:CD:4908, V-A:TYR:484:CZ:4347, V-A:TYR:484:CE2:4346, V-A:LEU:475:CD2:4259, V-B:GLU:543:CG:9879, V-B:GLU:543:CA:9876, H-A:TYR:484:OH:4348"]

$$$$
ZINC712097312
     RDKit          3D

 32 33  0  0  0  0  0  0  0  0999 V2000
  125.9870  134.0900   61.0520 C   0  0  0  0  0  0  0  0  0  0  0  0
  127.1110  133.6580   61.2540 C   0  0  0  0  0  0  0  0  0  0  0  0
  128.4760  133.1520   61.4960 C   0  0  0  0  0  0  0  0  0  0  0  0
  128.6120  131.7560   61.0680 N   0  0  0  0  0  0  0  0  0  0  0  0
  128.3490  130.7450   62.0870 C   0  0  0  0  0  0  0  0  0  0  0  0
  128.8290  129.4550   61.4350 C   0  0  0  0  0  0  0  0  0  0  0  0
  130.0850  129.8840   60.6630 C   0  0  2  0  0  0  0  0  0  0  0  0
  131.4220  129.4300   61.2700 N   0  0  0  0  0  0  0  0  0  0  0  0
  129.9370  131.4260   60.5320 C   0  0  1  0  0  0  0  0  0  0  0  0
  130.1460  131.9700   59.1150 C   0  0  0  0  0  0  0  0  0  0  0  0
  131.4440  132.0990   58.6010 C   0  0  0  0  0  0  0  0  0  0  0  0
  132.5170  131.7430   59.3460 F   0  0  0  0  0  0  0  0  0  0  0  0
  131.6470  132.5980   57.3140 C   0  0  0  0  0  0  0  0  0  0  0  0
  130.5590  132.9710   56.5280 C   0  0  0  0  0  0  0  0  0  0  0  0
  129.2640  132.8450   57.0280 C   0  0  0  0  0  0  0  0  0  0  0  0
  129.0550  132.3460   58.3140 C   0  0  0  0  0  0  0  0  0  0  0  0
  127.7890  132.2280   58.7760 F   0  0  0  0  0  0  0  0  0  0  0  0
  124.9744  134.4792   60.8700 H   0  0  0  0  0  0  0  0  0  0  0  0
  129.1918  133.7701   60.9342 H   0  0  0  0  0  0  0  0  0  0  0  0
  128.6788  133.2047   62.5759 H   0  0  0  0  0  0  0  0  0  0  0  0
  128.9150  130.9559   63.0063 H   0  0  0  0  0  0  0  0  0  0  0  0
  127.2926  130.7058   62.3910 H   0  0  0  0  0  0  0  0  0  0  0  0
  129.0748  128.6989   62.1952 H   0  0  0  0  0  0  0  0  0  0  0  0
  128.0673  128.9946   60.7886 H   0  0  0  0  0  0  0  0  0  0  0  0
  130.1370  129.3827   59.6853 H   0  0  0  0  0  0  0  0  0  0  0  0
  131.3690  129.4470   62.2790 H   0  0  0  0  0  0  0  0  0  0  0  0
  132.1640  130.0460   60.9740 H   0  0  0  0  0  0  0  0  0  0  0  0
  131.6390  128.4900   60.9710 H   0  0  0  0  0  0  0  0  0  0  0  0
  130.7400  131.9184   61.1001 H   0  0  0  0  0  0  0  0  0  0  0  0
  132.6688  132.6972   56.9189 H   0  0  0  0  0  0  0  0  0  0  0  0
  130.7217  133.3646   55.5138 H   0  0  0  0  0  0  0  0  0  0  0  0
  128.4050  133.1396   56.4073 H   0  0  0  0  0  0  0  0  0  0  0  0
  1  2  3  0
  2  3  1  0
  3  4  1  0
  4  5  1  0
  5  6  1  0
  6  7  1  0
  7  8  1  0
  7  9  1  0
  9 10  1  0
 10 11  2  0
 11 12  1  0
 11 13  1  0
 13 14  2  0
 14 15  1  0
 15 16  2  0
 16 17  1  0
  9  4  1  0
 16 10  1  0
  1 18  1  0
  3 19  1  0
  3 20  1  0
  5 21  1  0
  5 22  1  0
  6 23  1  0
  6 24  1  0
  7 25  1  6
  8 26  1  0
  8 27  1  0
  8 28  1  0
  9 29  1  1
 13 30  1  0
 14 31  1  0
 15 32  1  0
M  CHG  1   8   1
M  END
>  <Binding energies>  (1) 
[-5.95]

>  <Ligand effiencies>  (1) 
[-0.2975]

>  <Interactions>  (1) 
["V-A:TYR:539:CD1:4873, V-A:PRO:540:N:4884, V-A:LEU:363:CD1:3189, V-A:PRO:540:CB:4885, V-A:PRO:540:CA:4883, V-A:ILE:538:CA:4860, V-A:ILE:538:CB:4862, V-A:GLU:543:CD:4908, H-A:ASP:366:OD2:3215, V-A:PRO:540:CD:4887, V-B:LEU:475:CD2:9230, H-A:GLU:543:OE1:4909, V-A:TYR:539:CE1:4875, V-A:ASP:366:CG:3213, V-A:ILE:538:CG2:4863"]

$$$$
ZINC71317040
     RDKit          3D

 47 48  0  0  0  0  0  0  0  0999 V2000
  129.4000  122.4730   65.1000 C   0  0  0  0  0  0  0  0  0  0  0  0
  129.9600  122.2000   63.7020 C   0  0  0  0  0  0  0  0  0  0  0  0
  131.3520  122.4670   63.7030 O   0  0  0  0  0  0  0  0  0  0  0  0
  132.1450  122.7520   62.3070 P   0  0  0  0  0  0  0  0  0  0  0  0
  133.6130  122.5050   62.3620 O   0  0  0  0  0  0  0  0  0  0  0  0
  131.3540  121.8090   61.2340 O   0  0  0  0  0  0  0  0  0  0  0  0
  131.9680  120.6510   60.6930 C   0  0  0  0  0  0  0  0  0  0  0  0
  131.0220  119.4510   60.8180 C   0  0  0  0  0  0  0  0  0  0  0  0
  131.5510  124.4380   61.8250 C   0  0  1  0  0  0  0  0  0  0  0  0
  132.0370  125.3400   62.8720 N   0  0  0  0  0  0  0  0  0  0  0  0
  131.4570  125.4970   64.1470 C   0  0  0  0  0  0  0  0  0  0  0  0
  130.0840  125.7710   64.2640 C   0  0  0  0  0  0  0  0  0  0  0  0
  129.4810  125.9280   65.5070 C   0  0  0  0  0  0  0  0  0  0  0  0
  130.2430  125.8120   66.6620 C   0  0  0  0  0  0  0  0  0  0  0  0
  129.5020  126.0030   68.2090 Cl  0  0  0  0  0  0  0  0  0  0  0  0
  131.6050  125.5370   66.5690 C   0  0  0  0  0  0  0  0  0  0  0  0
  132.2430  125.3720   65.3250 C   0  0  0  0  0  0  0  0  0  0  0  0
  133.7110  125.0780   65.3180 N   0  0  0  0  0  0  0  0  0  0  0  0
  134.3000  125.0870   64.2400 O   0  0  0  0  0  0  0  0  0  0  0  0
  134.3030  124.8350   66.3640 O   0  0  0  0  0  0  0  0  0  0  0  0
  131.9670  124.8310   60.4020 C   0  0  0  0  0  0  0  0  0  0  0  0
  133.1750  124.3380   59.9030 C   0  0  0  0  0  0  0  0  0  0  0  0
  133.5990  124.6810   58.6220 C   0  0  0  0  0  0  0  0  0  0  0  0
  132.8120  125.5210   57.8360 C   0  0  0  0  0  0  0  0  0  0  0  0
  133.2300  125.8590   56.5760 O   0  0  0  0  0  0  0  0  0  0  0  0
  131.6070  126.0220   58.3230 C   0  0  0  0  0  0  0  0  0  0  0  0
  131.1840  125.6790   59.6040 C   0  0  0  0  0  0  0  0  0  0  0  0
  130.1173  122.1233   65.8571 H   0  0  0  0  0  0  0  0  0  0  0  0
  129.2337  123.5533   65.2238 H   0  0  0  0  0  0  0  0  0  0  0  0
  128.4465  121.9386   65.2238 H   0  0  0  0  0  0  0  0  0  0  0  0
  129.7865  121.1473   63.4341 H   0  0  0  0  0  0  0  0  0  0  0  0
  129.4578  122.8466   62.9674 H   0  0  0  0  0  0  0  0  0  0  0  0
  132.1999  120.8234   59.6316 H   0  0  0  0  0  0  0  0  0  0  0  0
  132.8946  120.4405   61.2471 H   0  0  0  0  0  0  0  0  0  0  0  0
  130.8481  119.2304   61.8815 H   0  0  0  0  0  0  0  0  0  0  0  0
  130.0643  119.6868   60.3311 H   0  0  0  0  0  0  0  0  0  0  0  0
  131.4749  118.5748   60.3311 H   0  0  0  0  0  0  0  0  0  0  0  0
  130.4534  124.4840   61.7688 H   0  0  0  0  0  0  0  0  0  0  0  0
  132.8610  125.8850   62.6600 H   0  0  0  0  0  0  0  0  0  0  0  0
  129.4736  125.8632   63.3536 H   0  0  0  0  0  0  0  0  0  0  0  0
  128.4044  126.1433   65.5751 H   0  0  0  0  0  0  0  0  0  0  0  0
  132.1976  125.4464   67.4913 H   0  0  0  0  0  0  0  0  0  0  0  0
  133.7944  123.6754   60.5253 H   0  0  0  0  0  0  0  0  0  0  0  0
  134.5507  124.2909   58.2320 H   0  0  0  0  0  0  0  0  0  0  0  0
  133.1970  126.8040   56.4120 H   0  0  0  0  0  0  0  0  0  0  0  0
  130.9921  126.6861   57.6978 H   0  0  0  0  0  0  0  0  0  0  0  0
  130.2333  126.0738   59.9918 H   0  0  0  0  0  0  0  0  0  0  0  0
  1  2  1  0
  2  3  1  0
  3  4  1  0
  4  5  2  0
  4  6  1  0
  6  7  1  0
  7  8  1  0
  4  9  1  0
  9 10  1  0
 10 11  1  0
 11 12  2  0
 12 13  1  0
 13 14  2  0
 14 15  1  0
 14 16  1  0
 16 17  2  0
 17 18  1  0
 18 19  2  0
 18 20  1  0
  9 21  1  0
 21 22  2  0
 22 23  1  0
 23 24  2  0
 24 25  1  0
 24 26  1  0
 26 27  2  0
 17 11  1  0
 27 21  1  0
  1 28  1  0
  1 29  1  0
  1 30  1  0
  2 31  1  0
  2 32  1  0
  7 33  1  0
  7 34  1  0
  8 35  1  0
  8 36  1  0
  8 37  1  0
  9 38  1  6
 10 39  1  0
 12 40  1  0
 13 41  1  0
 16 42  1  0
 22 43  1  0
 23 44  1  0
 25 45  1  0
 26 46  1  0
 27 47  1  0
M  CHG  2  18   1  20  -1
M  END
>  <Binding energies>  (1) 
[-6.89]

>  <Ligand effiencies>  (1) 
[-0.23758620689655172]

>  <Interactions>  (1) 
["V-A:ILE:369:CG2:3237, V-A:ASP:366:CA:3210, V-A:GLY:454:CA:4049, V-B:GLU:543:CB:9878, V-B:ALA:541:CB:9864, H-A:ARG:545:NH1:4927, H-A:TYR:531:OH:4795, V-A:TYR:484:CE2:4346, V-B:TYR:539:CE2:9848, V-B:GLU:543:CG:9879, V-A:ASP:366:CG:3213, V-B:TYR:539:CZ:9849, H-B:TYR:539:OH:9850, V-A:GLU:543:CD:4908, V-A:TYR:484:CZ:4347, V-B:GLU:543:CA:9876, H-A:GLY:454:N:4050, V-A:HIS:456:CE1:4070, V-A:ASP:366:C:3208, V-B:TYR:539:CD2:9846, V-B:GLU:543:CD:9880, V-A:ASP:366:CB:3212, V-A:ARG:545:CD:4923, V-A:LEU:475:CD2:4259, H-A:ILE:455:N:4055, V-A:ARG:545:CZ:4926, H-A:ARG:545:NH2:4928, H-A:ASP:366:O:3209, H-A:ASP:366:OD1:3214, H-A:ARG:545:NE:4924, H-A:TYR:484:OH:4348"]

$$$$
ZINC713406739
     RDKit          3D

 40 41  0  0  0  0  0  0  0  0999 V2000
  126.3200  122.3560   56.7940 C   0  0  0  0  0  0  0  0  0  0  0  0
  126.6700  123.5920   57.6540 C   0  0  0  0  0  0  0  0  0  0  0  0
  125.3650  124.2890   58.1050 C   0  0  0  0  0  0  0  0  0  0  0  0
  127.5140  124.5780   56.8130 C   0  0  0  0  0  0  0  0  0  0  0  0
  127.4440  123.1680   58.8420 C   0  0  0  0  0  0  0  0  0  0  0  0
  128.0940  122.8290   59.8190 C   0  0  0  0  0  0  0  0  0  0  0  0
  128.8870  122.4360   61.0020 C   0  0  0  0  0  0  0  0  0  0  0  0
  128.1600  122.5340   62.3650 C   0  0  2  0  0  0  0  0  0  0  0  0
  126.9070  123.1840   62.2080 O   0  0  0  0  0  0  0  0  0  0  0  0
  129.0350  123.2250   63.4480 C   0  0  2  0  0  0  0  0  0  0  0  0
  129.0820  124.7720   63.4170 C   0  0  0  0  0  0  0  0  0  0  0  0
  130.3780  125.1930   64.1240 C   0  0  2  0  0  0  0  0  0  0  0  0
  130.9110  126.6120   63.9030 N   0  0  0  0  0  0  0  0  0  0  0  0
  131.3360  124.0070   63.9460 C   0  0  0  0  0  0  0  0  0  0  0  0
  130.4470  122.7710   63.7240 C   0  0  1  0  0  0  0  0  0  0  0  0
  129.3680  122.5260   64.7650 C   0  0  0  0  0  0  0  0  0  0  0  0
  126.0798  121.5077   57.4518 H   0  0  0  0  0  0  0  0  0  0  0  0
  125.4514  122.5851   56.1591 H   0  0  0  0  0  0  0  0  0  0  0  0
  127.1797  122.0957   56.1591 H   0  0  0  0  0  0  0  0  0  0  0  0
  125.3224  124.3118   59.2039 H   0  0  0  0  0  0  0  0  0  0  0  0
  125.3454  125.3177   57.7159 H   0  0  0  0  0  0  0  0  0  0  0  0
  124.4991  123.7332   57.7159 H   0  0  0  0  0  0  0  0  0  0  0  0
  128.0808  125.2402   57.4840 H   0  0  0  0  0  0  0  0  0  0  0  0
  128.2130  124.0135   56.1784 H   0  0  0  0  0  0  0  0  0  0  0  0
  126.8484  125.1816   56.1784 H   0  0  0  0  0  0  0  0  0  0  0  0
  129.2045  121.3920   60.8635 H   0  0  0  0  0  0  0  0  0  0  0  0
  129.7186  123.1541   61.0554 H   0  0  0  0  0  0  0  0  0  0  0  0
  127.9765  121.5106   62.7241 H   0  0  0  0  0  0  0  0  0  0  0  0
  126.8010  123.8180   62.9220 H   0  0  0  0  0  0  0  0  0  0  0  0
  129.0852  125.1296   62.3767 H   0  0  0  0  0  0  0  0  0  0  0  0
  128.2025  125.2028   63.9178 H   0  0  0  0  0  0  0  0  0  0  0  0
  130.1884  125.3718   65.1927 H   0  0  0  0  0  0  0  0  0  0  0  0
  131.5540  126.8600   64.6420 H   0  0  0  0  0  0  0  0  0  0  0  0
  130.1490  127.2740   63.9000 H   0  0  0  0  0  0  0  0  0  0  0  0
  131.3950  126.6680   63.0190 H   0  0  0  0  0  0  0  0  0  0  0  0
  131.9878  124.1700   63.0751 H   0  0  0  0  0  0  0  0  0  0  0  0
  131.9878  123.8813   64.8232 H   0  0  0  0  0  0  0  0  0  0  0  0
  131.1980  122.1081   63.2695 H   0  0  0  0  0  0  0  0  0  0  0  0
  129.0059  121.5047   64.9546 H   0  0  0  0  0  0  0  0  0  0  0  0
  129.2415  122.7660   65.8310 H   0  0  0  0  0  0  0  0  0  0  0  0
  1  2  1  0
  2  3  1  0
  2  4  1  0
  2  5  1  0
  5  6  3  0
  6  7  1  0
  7  8  1  0
  8  9  1  0
  8 10  1  0
 10 11  1  1
 11 12  1  0
 12 13  1  0
 12 14  1  0
 14 15  1  0
 15 16  1  0
 15 10  1  0
 16 10  1  0
  1 17  1  0
  1 18  1  0
  1 19  1  0
  3 20  1  0
  3 21  1  0
  3 22  1  0
  4 23  1  0
  4 24  1  0
  4 25  1  0
  7 26  1  0
  7 27  1  0
  8 28  1  1
  9 29  1  0
 11 30  1  0
 11 31  1  0
 12 32  1  1
 13 33  1  0
 13 34  1  0
 13 35  1  0
 14 36  1  0
 14 37  1  0
 15 38  1  6
 16 39  1  0
 16 40  1  0
M  CHG  1  13   1
M  END
>  <Binding energies>  (1) 
[-7.49]

>  <Ligand effiencies>  (1) 
[-0.3745]

>  <Interactions>  (1) 
["V-B:PRO:540:CA:9855, H-B:GLU:543:OE1:9881, H-A:GLU:543:OE2:4910, V-B:TYR:539:CD2:9846, V-B:PRO:540:CD:9859, H-B:ALA:541:N:9863, V-B:GLU:543:CD:9880, V-B:ALA:541:CB:9864, V-A:GLU:543:CD:4908, V-B:PRO:540:CB:9857, V-B:ALA:541:CA:9862, V-A:TYR:484:CE2:4346, V-A:LEU:475:CD2:4259, V-B:GLU:543:CG:9879, H-A:GLU:543:OE1:4909, V-B:TYR:539:C:9839, V-B:PRO:540:N:9856"]

$$$$
ZINC713785
     RDKit          3D

 48 51  0  0  0  0  0  0  0  0999 V2000
  126.2810  122.8260   57.4530 C   0  0  0  0  0  0  0  0  0  0  0  0
  125.9700  124.0990   58.2460 C   0  0  0  0  0  0  0  0  0  0  0  0
  125.7680  123.8290   60.0310 S   0  0  0  0  0  0  0  0  0  0  0  0
  127.3630  123.4660   60.7010 C   0  0  0  0  0  0  0  0  0  0  0  0
  128.0490  122.4520   60.1240 N   0  0  0  0  0  0  0  0  0  0  0  0
  129.2750  122.1730   60.5950 N   0  0  0  0  0  0  0  0  0  0  0  0
  129.8280  122.8760   61.6350 C   0  0  0  0  0  0  0  0  0  0  0  0
  129.0380  123.8850   62.2280 C   0  0  0  0  0  0  0  0  0  0  0  0
  127.8110  124.2040   61.7430 N   0  0  0  0  0  0  0  0  0  0  0  0
  129.3980  124.6160   63.3240 O   0  0  0  0  0  0  0  0  0  0  0  0
  130.0070  123.9440   64.3680 C   0  0  2  0  0  0  0  0  0  0  0  0
  129.8250  124.8620   65.5920 C   0  0  0  0  0  0  0  0  0  0  0  0
  129.4430  126.1980   65.4450 C   0  0  0  0  0  0  0  0  0  0  0  0
  129.2720  127.0050   66.5660 C   0  0  0  0  0  0  0  0  0  0  0  0
  129.4680  126.5000   67.8640 C   0  0  0  0  0  0  0  0  0  0  0  0
  129.2970  127.3290   69.0100 N   0  0  0  0  0  0  0  0  0  0  0  0
  130.4350  128.0630   69.5610 C   0  0  0  0  0  0  0  0  0  0  0  0
  128.1660  127.1030   69.9120 C   0  0  0  0  0  0  0  0  0  0  0  0
  129.8470  125.1520   67.9900 C   0  0  0  0  0  0  0  0  0  0  0  0
  130.0190  124.3420   66.8700 C   0  0  0  0  0  0  0  0  0  0  0  0
  131.3900  123.6710   64.2210 N   0  0  0  0  0  0  0  0  0  0  0  0
  131.9590  122.9290   63.1750 C   0  0  0  0  0  0  0  0  0  0  0  0
  133.2990  122.5540   63.3350 C   0  0  0  0  0  0  0  0  0  0  0  0
  133.9880  121.8310   62.3710 C   0  0  0  0  0  0  0  0  0  0  0  0
  133.3390  121.4680   61.2050 C   0  0  0  0  0  0  0  0  0  0  0  0
  132.0090  121.8230   61.0170 C   0  0  0  0  0  0  0  0  0  0  0  0
  131.2720  122.5480   61.9830 C   0  0  0  0  0  0  0  0  0  0  0  0
  126.4829  121.9997   58.1504 H   0  0  0  0  0  0  0  0  0  0  0  0
  125.4193  122.5689   56.8195 H   0  0  0  0  0  0  0  0  0  0  0  0
  127.1642  122.9952   56.8195 H   0  0  0  0  0  0  0  0  0  0  0  0
  126.7954  124.8103   58.0953 H   0  0  0  0  0  0  0  0  0  0  0  0
  125.0082  124.4794   57.8715 H   0  0  0  0  0  0  0  0  0  0  0  0
  129.5407  122.9503   64.4398 H   0  0  0  0  0  0  0  0  0  0  0  0
  129.2769  126.6133   64.4400 H   0  0  0  0  0  0  0  0  0  0  0  0
  128.9782  128.0569   66.4344 H   0  0  0  0  0  0  0  0  0  0  0  0
  130.3919  128.0352   70.6598 H   0  0  0  0  0  0  0  0  0  0  0  0
  131.3715  127.5983   69.2189 H   0  0  0  0  0  0  0  0  0  0  0  0
  130.3978  129.1078   69.2189 H   0  0  0  0  0  0  0  0  0  0  0  0
  128.5093  127.1716   70.9548 H   0  0  0  0  0  0  0  0  0  0  0  0
  127.3935  127.8645   69.7294 H   0  0  0  0  0  0  0  0  0  0  0  0
  127.7455  126.1031   69.7294 H   0  0  0  0  0  0  0  0  0  0  0  0
  130.0108  124.7290   68.9921 H   0  0  0  0  0  0  0  0  0  0  0  0
  130.3090  123.2883   66.9949 H   0  0  0  0  0  0  0  0  0  0  0  0
  131.9160  123.5700   65.0770 H   0  0  0  0  0  0  0  0  0  0  0  0
  133.8241  122.8427   64.2575 H   0  0  0  0  0  0  0  0  0  0  0  0
  135.0391  121.5498   62.5328 H   0  0  0  0  0  0  0  0  0  0  0  0
  133.8738  120.9003   60.4293 H   0  0  0  0  0  0  0  0  0  0  0  0
  131.5100  121.5293   60.0817 H   0  0  0  0  0  0  0  0  0  0  0  0
  1  2  1  0
  2  3  1  0
  3  4  1  0
  4  5  2  0
  5  6  1  0
  6  7  2  0
  7  8  1  0
  8  9  2  0
  8 10  1  0
 10 11  1  0
 11 12  1  0
 12 13  2  0
 13 14  1  0
 14 15  2  0
 15 16  1  0
 16 17  1  0
 16 18  1  0
 15 19  1  0
 19 20  2  0
 11 21  1  0
 21 22  1  0
 22 23  2  0
 23 24  1  0
 24 25  2  0
 25 26  1  0
 26 27  2  0
  9  4  1  0
 20 12  1  0
 27 22  1  0
 27  7  1  0
  1 28  1  0
  1 29  1  0
  1 30  1  0
  2 31  1  0
  2 32  1  0
 11 33  1  1
 13 34  1  0
 14 35  1  0
 17 36  1  0
 17 37  1  0
 17 38  1  0
 18 39  1  0
 18 40  1  0
 18 41  1  0
 19 42  1  0
 20 43  1  0
 21 44  1  0
 23 45  1  0
 24 46  1  0
 25 47  1  0
 26 48  1  0
M  END
>  <Binding energies>  (1) 
[-6.99]

>  <Ligand effiencies>  (1) 
[-0.24964285714285714]

>  <Interactions>  (1) 
["V-A:ILE:369:CG2:3237, V-B:PRO:540:CA:9855, V-A:GLY:454:CA:4049, V-B:GLU:543:C:9874, V-A:GLU:543:C:4902, V-B:GLU:543:CB:9878, V-B:TYR:539:CE2:9848, V-A:TYR:484:CE2:4346, V-B:GLU:543:CG:9879, V-B:TYR:539:C:9839, V-A:GLU:543:CD:4908, V-B:PRO:540:CB:9857, V-A:TYR:484:CZ:4347, V-B:GLU:543:CA:9876, V-B:HIS:456:CE1:9041, V-A:SER:385:C:3405, V-B:PRO:540:N:9856, V-A:ILE:369:CD1:3239, V-A:HIS:456:CE1:4070, V-B:TYR:539:CD2:9846, V-B:PRO:540:CD:9859, V-B:GLU:543:CD:9880, V-A:LEU:475:CD2:4259, V-A:GLU:543:CB:4906, H-A:TYR:484:OH:4348"]

$$$$
ZINC715757120-again1
     RDKit          3D

 39 38  0  0  0  0  0  0  0  0999 V2000
  128.4970  132.9630   56.8850 C   0  0  0  0  0  0  0  0  0  0  0  0
  129.6810  132.3310   56.8980 C   0  0  0  0  0  0  0  0  0  0  0  0
  130.1280  131.3490   57.9680 C   0  0  0  0  0  0  0  0  0  0  0  0
  131.5870  131.5490   58.4710 C   0  0  2  0  0  0  0  0  0  0  0  0
  132.5640  130.7250   57.5970 C   0  0  0  0  0  0  0  0  0  0  0  0
  131.7300  131.2420   60.0020 C   0  0  2  0  0  0  0  0  0  0  0  0
  131.3720  129.8350   60.2250 N   0  0  0  0  0  0  0  0  0  0  0  0
  131.5150  129.4220   61.6250 N   0  0  0  0  0  0  0  0  0  0  0  0
  130.9190  132.2050   60.9430 C   0  0  1  0  0  0  0  0  0  0  0  0
  129.4040  131.8920   61.0140 C   0  0  0  0  0  0  0  0  0  0  0  0
  128.5040  133.0930   60.6680 C   0  0  0  0  0  0  0  0  0  0  0  0
  128.2810  134.0360   61.8580 C   0  0  0  0  0  0  0  0  0  0  0  0
  131.4220  132.2070   62.2820 O   0  0  0  0  0  0  0  0  0  0  0  0
  132.8250  132.0080   62.4130 C   0  0  0  0  0  0  0  0  0  0  0  0
  128.2545  133.6600   56.0692 H   0  0  0  0  0  0  0  0  0  0  0  0
  127.7691  132.7840   57.6901 H   0  0  0  0  0  0  0  0  0  0  0  0
  130.3789  132.5392   56.0737 H   0  0  0  0  0  0  0  0  0  0  0  0
  129.4522  131.4514   58.8298 H   0  0  0  0  0  0  0  0  0  0  0  0
  130.0947  130.3516   57.5053 H   0  0  0  0  0  0  0  0  0  0  0  0
  131.8539  132.6105   58.3611 H   0  0  0  0  0  0  0  0  0  0  0  0
  133.2429  130.1524   58.2461 H   0  0  0  0  0  0  0  0  0  0  0  0
  131.9926  130.0320   56.9620 H   0  0  0  0  0  0  0  0  0  0  0  0
  133.1507  131.4051   56.9620 H   0  0  0  0  0  0  0  0  0  0  0  0
  132.7782  131.4261   60.2803 H   0  0  0  0  0  0  0  0  0  0  0  0
  132.0230  129.2430   59.7300 H   0  0  0  0  0  0  0  0  0  0  0  0
  132.4820  129.2150   61.8300 H   0  0  0  0  0  0  0  0  0  0  0  0
  130.9640  128.5930   61.7990 H   0  0  0  0  0  0  0  0  0  0  0  0
  131.2010  130.1570   62.2410 H   0  0  0  0  0  0  0  0  0  0  0  0
  131.0534  133.1926   60.4776 H   0  0  0  0  0  0  0  0  0  0  0  0
  129.1844  131.0789   60.3065 H   0  0  0  0  0  0  0  0  0  0  0  0
  129.1826  131.6154   62.0554 H   0  0  0  0  0  0  0  0  0  0  0  0
  128.9760  133.6618   59.8533 H   0  0  0  0  0  0  0  0  0  0  0  0
  127.5215  132.6948   60.3743 H   0  0  0  0  0  0  0  0  0  0  0  0
  128.4128  133.4787   62.7972 H   0  0  0  0  0  0  0  0  0  0  0  0
  129.0092  134.8593   61.8149 H   0  0  0  0  0  0  0  0  0  0  0  0
  127.2611  134.4459   61.8149 H   0  0  0  0  0  0  0  0  0  0  0  0
  133.0920  131.9701   63.4794 H   0  0  0  0  0  0  0  0  0  0  0  0
  133.1076  131.0608   61.9304 H   0  0  0  0  0  0  0  0  0  0  0  0
  133.3599  132.8393   61.9304 H   0  0  0  0  0  0  0  0  0  0  0  0
  1  2  2  0
  2  3  1  0
  3  4  1  0
  4  5  1  0
  4  6  1  0
  6  7  1  0
  7  8  1  0
  6  9  1  0
  9 10  1  0
 10 11  1  0
 11 12  1  0
  9 13  1  0
 13 14  1  0
  1 15  1  0
  1 16  1  0
  2 17  1  0
  3 18  1  0
  3 19  1  0
  4 20  1  1
  5 21  1  0
  5 22  1  0
  5 23  1  0
  6 24  1  1
  7 25  1  0
  8 26  1  0
  8 27  1  0
  8 28  1  0
  9 29  1  6
 10 30  1  0
 10 31  1  0
 11 32  1  0
 11 33  1  0
 12 34  1  0
 12 35  1  0
 12 36  1  0
 14 37  1  0
 14 38  1  0
 14 39  1  0
M  CHG  1   8   1
M  END
>  <Binding energies>  (1) 
[-5.94]

>  <Ligand effiencies>  (1) 
[-0.33]

>  <Interactions>  (1) 
["V-A:ALA:541:C:4888, H-A:ALA:541:N:4891, V-A:PRO:540:C:4881, V-B:LEU:475:CD2:9230, V-A:TYR:539:CE2:4876, V-A:ASP:366:CG:3213, V-A:ASN:362:CB:3176, V-A:LEU:363:CD1:3189, V-A:TYR:539:CD1:4873, V-A:TYR:539:CZ:4877, V-A:TYR:531:CE2:4793, V-A:ALA:541:CB:4892, V-A:GLU:543:CD:4908, V-A:TYR:531:CZ:4794, V-A:MET:535:CE:4835, V-A:TYR:539:C:4867, H-A:GLU:543:OE1:4909, H-A:ASP:366:OD1:3214, V-A:TYR:539:CG:4872, V-A:PRO:540:CB:4885, V-A:PRO:540:CA:4883, V-A:TYR:539:CD2:4874, H-A:ASP:366:OD2:3215, V-A:TYR:539:CE1:4875"]

$$$$
ZINC715757120-again2
     RDKit          3D

 38 37  0  0  0  0  0  0  0  0999 V2000
  129.3970  122.4520   64.8800 C   0  0  0  0  0  0  0  0  0  0  0  0
  130.3190  122.9400   64.0360 C   0  0  0  0  0  0  0  0  0  0  0  0
  130.1270  123.0950   62.5370 C   0  0  0  0  0  0  0  0  0  0  0  0
  128.9440  122.2810   61.9400 C   0  0  2  0  0  0  0  0  0  0  0  0
  129.4730  120.9940   61.2590 C   0  0  0  0  0  0  0  0  0  0  0  0
  128.0580  123.1530   60.9840 C   0  0  2  0  0  0  0  0  0  0  0  0
  126.6480  122.8510   61.2560 N   0  0  0  0  0  0  0  0  0  0  0  0
  126.2060  123.2190   62.5740 N   0  0  0  0  0  0  0  0  0  0  0  0
  128.3980  123.0070   59.4550 C   0  0  1  0  0  0  0  0  0  0  0  0
  127.1970  123.2710   58.5140 C   0  0  0  0  0  0  0  0  0  0  0  0
  127.2630  122.4880   57.1890 C   0  0  0  0  0  0  0  0  0  0  0  0
  125.9310  122.4900   56.4260 C   0  0  0  0  0  0  0  0  0  0  0  0
  129.4630  123.8680   59.0400 O   0  0  0  0  0  0  0  0  0  0  0  0
  129.0690  125.1350   58.5250 C   0  0  0  0  0  0  0  0  0  0  0  0
  129.6209  122.3745   65.9542 H   0  0  0  0  0  0  0  0  0  0  0  0
  128.4173  122.1295   64.4977 H   0  0  0  0  0  0  0  0  0  0  0  0
  131.2849  123.2507   64.4608 H   0  0  0  0  0  0  0  0  0  0  0  0
  129.9512  124.1597   62.3235 H   0  0  0  0  0  0  0  0  0  0  0  0
  131.0403  122.7012   62.0670 H   0  0  0  0  0  0  0  0  0  0  0  0
  128.2805  121.9738   62.7618 H   0  0  0  0  0  0  0  0  0  0  0  0
  129.7715  120.2677   62.0293 H   0  0  0  0  0  0  0  0  0  0  0  0
  128.6808  120.5588   60.6321 H   0  0  0  0  0  0  0  0  0  0  0  0
  130.3423  121.2417   60.6321 H   0  0  0  0  0  0  0  0  0  0  0  0
  128.2799  124.2080   61.2025 H   0  0  0  0  0  0  0  0  0  0  0  0
  125.9830  123.2000   60.5790 H   0  0  0  0  0  0  0  0  0  0  0  0
  126.9900  123.6250   63.0630 H   0  0  0  0  0  0  0  0  0  0  0  0
  125.4540  123.8870   62.4710 H   0  0  0  0  0  0  0  0  0  0  0  0
  128.6996  121.9530   59.3646 H   0  0  0  0  0  0  0  0  0  0  0  0
  126.2744  122.9853   59.0404 H   0  0  0  0  0  0  0  0  0  0  0  0
  127.2201  124.3402   58.2564 H   0  0  0  0  0  0  0  0  0  0  0  0
  128.0339  122.9437   56.5502 H   0  0  0  0  0  0  0  0  0  0  0  0
  127.5004  121.4425   57.4353 H   0  0  0  0  0  0  0  0  0  0  0  0
  125.0974  122.4913   57.1437 H   0  0  0  0  0  0  0  0  0  0  0  0
  125.8719  123.3882   55.7938 H   0  0  0  0  0  0  0  0  0  0  0  0
  125.8692  121.5919   55.7938 H   0  0  0  0  0  0  0  0  0  0  0  0
  128.8561  125.8197   59.3591 H   0  0  0  0  0  0  0  0  0  0  0  0
  129.8808  125.5489   57.9089 H   0  0  0  0  0  0  0  0  0  0  0  0
  128.1656  125.0155   57.9089 H   0  0  0  0  0  0  0  0  0  0  0  0
  1  2  2  0
  2  3  1  0
  3  4  1  0
  4  5  1  0
  4  6  1  0
  6  7  1  0
  7  8  1  0
  6  9  1  0
  9 10  1  0
 10 11  1  0
 11 12  1  0
  9 13  1  0
 13 14  1  0
  1 15  1  0
  1 16  1  0
  2 17  1  0
  3 18  1  0
  3 19  1  0
  4 20  1  1
  5 21  1  0
  5 22  1  0
  5 23  1  0
  6 24  1  1
  7 25  1  0
  8 26  1  0
  8 27  1  0
  9 28  1  1
 10 29  1  0
 10 30  1  0
 11 31  1  0
 11 32  1  0
 12 33  1  0
 12 34  1  0
 12 35  1  0
 14 36  1  0
 14 37  1  0
 14 38  1  0
M  END
>  <Binding energies>  (1) 
[-4.47]

>  <Ligand effiencies>  (1) 
[-0.26294117647058823]

>  <Interactions>  (1) 
["V-B:TYR:539:CA:9841, V-B:PRO:540:CA:9855, V-B:ALA:541:CB:9864, V-B:TYR:539:CE2:9848, V-A:TYR:484:CE2:4346, H-B:ALA:541:O:9861, V-B:GLU:543:CG:9879, V-B:TYR:539:C:9839, V-B:TYR:539:CZ:9849, H-B:GLU:543:OE1:9881, V-B:ILE:538:CG2:9835, H-B:ALA:541:N:9863, V-B:PRO:540:CB:9857, V-B:PRO:540:N:9856, V-B:TYR:539:CD2:9846, V-B:PRO:540:CD:9859, V-A:LEU:475:CD2:4259, V-B:TYR:539:CG:9844, V-B:TYR:539:CD1:9845, V-B:PRO:540:C:9853, V-B:MET:535:CE:9807, V-B:TYR:539:CE1:9847"]

$$$$
ZINC71786965
     RDKit          3D

 40 40  0  0  0  0  0  0  0  0999 V2000
  128.4620  122.7580   63.4960 C   0  0  0  0  0  0  0  0  0  0  0  0
  128.9180  123.4480   62.1840 N   0  0  0  0  0  0  0  0  0  0  0  0
  127.9550  123.0210   61.0440 C   0  0  0  0  0  0  0  0  0  0  0  0
  128.7070  124.9780   62.3600 C   0  0  0  0  0  0  0  0  0  0  0  0
  130.4160  123.1150   61.8150 C   0  0  2  0  0  0  0  0  0  0  0  0
  130.5960  121.6460   61.2990 C   0  0  0  0  0  0  0  0  0  0  0  0
  131.9560  121.3660   60.6270 C   0  0  0  0  0  0  0  0  0  0  0  0
  133.1440  122.1980   61.1570 C   0  0  0  0  0  0  0  0  0  0  0  0
  133.4390  123.5000   60.3710 C   0  0  0  0  0  0  0  0  0  0  0  0
  134.6510  124.3270   60.8600 C   0  0  0  0  0  0  0  0  0  0  0  0
  134.7000  124.5240   62.3080 N   0  0  0  0  0  0  0  0  0  0  0  0
  133.6910  124.7270   63.1740 C   0  0  0  0  0  0  0  0  0  0  0  0
  133.9320  124.8670   64.3710 O   0  0  0  0  0  0  0  0  0  0  0  0
  132.2270  124.7960   62.6990 C   0  0  0  0  0  0  0  0  0  0  0  0
  131.4120  123.5000   62.9550 C   0  0  0  0  0  0  0  0  0  0  0  0
  128.8379  123.3268   64.3592 H   0  0  0  0  0  0  0  0  0  0  0  0
  127.3630  122.7241   63.5297 H   0  0  0  0  0  0  0  0  0  0  0  0
  128.8616  121.7337   63.5297 H   0  0  0  0  0  0  0  0  0  0  0  0
  127.0312  122.6114   61.4785 H   0  0  0  0  0  0  0  0  0  0  0  0
  127.7116  123.8956   60.4228 H   0  0  0  0  0  0  0  0  0  0  0  0
  128.4397  122.2535   60.4228 H   0  0  0  0  0  0  0  0  0  0  0  0
  128.6733  125.2226   63.4319 H   0  0  0  0  0  0  0  0  0  0  0  0
  129.5389  125.5198   61.8863 H   0  0  0  0  0  0  0  0  0  0  0  0
  127.7595  125.2744   61.8863 H   0  0  0  0  0  0  0  0  0  0  0  0
  130.6800  123.7591   60.9633 H   0  0  0  0  0  0  0  0  0  0  0  0
  130.4899  120.9653   62.1565 H   0  0  0  0  0  0  0  0  0  0  0  0
  129.8277  121.4891   60.5275 H   0  0  0  0  0  0  0  0  0  0  0  0
  132.1945  120.3024   60.7751 H   0  0  0  0  0  0  0  0  0  0  0  0
  131.8353  121.6509   59.5714 H   0  0  0  0  0  0  0  0  0  0  0  0
  132.9294  122.4715   62.2006 H   0  0  0  0  0  0  0  0  0  0  0  0
  134.0358  121.5640   61.0439 H   0  0  0  0  0  0  0  0  0  0  0  0
  133.6202  123.2257   59.3213 H   0  0  0  0  0  0  0  0  0  0  0  0
  132.5600  124.1437   60.5227 H   0  0  0  0  0  0  0  0  0  0  0  0
  135.5699  123.8068   60.5518 H   0  0  0  0  0  0  0  0  0  0  0  0
  134.5535  125.3257   60.4093 H   0  0  0  0  0  0  0  0  0  0  0  0
  135.6300  124.5100   62.7010 H   0  0  0  0  0  0  0  0  0  0  0  0
  131.7320  125.6245   63.2268 H   0  0  0  0  0  0  0  0  0  0  0  0
  132.2554  124.9408   61.6089 H   0  0  0  0  0  0  0  0  0  0  0  0
  132.1218  122.6696   63.0839 H   0  0  0  0  0  0  0  0  0  0  0  0
  130.7998  123.6913   63.8487 H   0  0  0  0  0  0  0  0  0  0  0  0
  1  2  1  0
  2  3  1  0
  2  4  1  0
  2  5  1  0
  5  6  1  0
  6  7  1  0
  7  8  1  0
  8  9  1  0
  9 10  1  0
 10 11  1  0
 11 12  1  0
 12 13  2  0
 12 14  1  0
 14 15  1  0
 15  5  1  0
  1 16  1  0
  1 17  1  0
  1 18  1  0
  3 19  1  0
  3 20  1  0
  3 21  1  0
  4 22  1  0
  4 23  1  0
  4 24  1  0
  5 25  1  6
  6 26  1  0
  6 27  1  0
  7 28  1  0
  7 29  1  0
  8 30  1  0
  8 31  1  0
  9 32  1  0
  9 33  1  0
 10 34  1  0
 10 35  1  0
 11 36  1  0
 14 37  1  0
 14 38  1  0
 15 39  1  0
 15 40  1  0
M  CHG  1   2   1
M  END
>  <Binding energies>  (1) 
[-2.19]

>  <Ligand effiencies>  (1) 
[-0.12166666666666666]

>  <Interactions>  (1) 
["V-A:ILE:369:CG2:3237, V-A:ASP:366:CA:3210, V-B:PRO:540:CA:9855, V-A:ILE:369:CB:3236, V-B:ALA:541:CB:9864, H-A:ARG:545:NH1:4927, V-B:TYR:539:CE2:9848, V-B:GLU:543:CG:9879, V-A:ASP:366:CG:3213, H-A:GLY:454:N:4050, V-A:GLY:453:C:4042, V-A:ILE:369:CD1:3239, V-B:TYR:539:CD2:9846, V-B:GLU:543:CD:9880, V-A:LEU:475:CD2:4259, H-A:ARG:545:NH2:4928, V-A:ARG:545:CZ:4926, H-A:ASP:366:OD1:3214, V-A:GLY:453:CA:4044, H-A:ARG:545:NE:4924, V-B:ALA:541:CA:9862, H-A:TYR:484:OH:4348"]

$$$$
ZINC72028408
     RDKit          3D

 55 57  0  0  0  0  0  0  0  0999 V2000
  128.6670  122.5010   60.1190 C   0  0  0  0  0  0  0  0  0  0  0  0
  128.6160  122.1040   61.6000 C   0  0  0  0  0  0  0  0  0  0  0  0
  127.8890  123.1400   62.4730 C   0  0  0  0  0  0  0  0  0  0  0  0
  128.7460  123.6020   63.6680 C   0  0  0  0  0  0  0  0  0  0  0  0
  129.5710  124.7940   63.3770 N   0  0  0  0  0  0  0  0  0  0  0  0
  129.0670  126.0670   63.2960 C   0  0  0  0  0  0  0  0  0  0  0  0
  128.7020  126.5960   62.2460 O   0  0  0  0  0  0  0  0  0  0  0  0
  128.9500  126.8330   64.5130 C   0  0  0  0  0  0  0  0  0  0  0  0
  128.3230  128.0730   64.6610 C   0  0  0  0  0  0  0  0  0  0  0  0
  128.4100  128.4700   65.9830 C   0  0  0  0  0  0  0  0  0  0  0  0
  127.8700  129.7130   66.6600 C   0  0  0  0  0  0  0  0  0  0  0  0
  129.1040  127.4830   66.6630 N   0  0  0  0  0  0  0  0  0  0  0  0
  129.4050  127.4960   68.0400 C   0  0  0  0  0  0  0  0  0  0  0  0
  130.7170  127.7260   68.4690 C   0  0  0  0  0  0  0  0  0  0  0  0
  131.0100  127.7390   69.8340 C   0  0  0  0  0  0  0  0  0  0  0  0
  129.9960  127.5240   70.7690 C   0  0  0  0  0  0  0  0  0  0  0  0
  128.6880  127.2960   70.3420 C   0  0  0  0  0  0  0  0  0  0  0  0
  127.3060  127.0050   71.6190 Br  0  0  0  0  0  0  0  0  0  0  0  0
  128.3900  127.2820   68.9790 C   0  0  0  0  0  0  0  0  0  0  0  0
  129.4460  126.4760   65.7680 C   0  0  0  0  0  0  0  0  0  0  0  0
  130.2240  125.2460   66.2100 C   0  0  0  0  0  0  0  0  0  0  0  0
  131.0140  124.4560   63.2520 C   0  0  2  0  0  0  0  0  0  0  0  0
  131.4010  123.1770   64.0470 C   0  0  0  0  0  0  0  0  0  0  0  0
  132.9180  122.9890   63.9750 C   0  0  0  0  0  0  0  0  0  0  0  0
  133.6040  124.7290   64.1220 S   0  0  0  0  0  0  0  0  0  0  0  0
  133.9640  125.0190   65.5150 O   0  0  0  0  0  0  0  0  0  0  0  0
  134.5750  124.9510   63.0450 O   0  0  0  0  0  0  0  0  0  0  0  0
  131.9760  125.5790   63.7150 C   0  0  0  0  0  0  0  0  0  0  0  0
  128.8068  123.5889   60.0356 H   0  0  0  0  0  0  0  0  0  0  0  0
  129.5062  121.9849   59.6297 H   0  0  0  0  0  0  0  0  0  0  0  0
  127.7246  122.2138   59.6297 H   0  0  0  0  0  0  0  0  0  0  0  0
  128.0911  121.1413   61.6873 H   0  0  0  0  0  0  0  0  0  0  0  0
  129.6534  122.0390   61.9600 H   0  0  0  0  0  0  0  0  0  0  0  0
  127.6445  124.0155   61.8535 H   0  0  0  0  0  0  0  0  0  0  0  0
  126.9811  122.6652   62.8734 H   0  0  0  0  0  0  0  0  0  0  0  0
  128.0748  123.8395   64.5065 H   0  0  0  0  0  0  0  0  0  0  0  0
  129.4376  122.7806   63.9066 H   0  0  0  0  0  0  0  0  0  0  0  0
  127.8377  128.6425   63.8547 H   0  0  0  0  0  0  0  0  0  0  0  0
  127.9240  129.5888   67.7516 H   0  0  0  0  0  0  0  0  0  0  0  0
  128.4707  130.5843   66.3600 H   0  0  0  0  0  0  0  0  0  0  0  0
  126.8232  129.8685   66.3600 H   0  0  0  0  0  0  0  0  0  0  0  0
  131.5159  127.8962   67.7322 H   0  0  0  0  0  0  0  0  0  0  0  0
  132.0409  127.9188   70.1730 H   0  0  0  0  0  0  0  0  0  0  0  0
  130.2289  127.5344   71.8440 H   0  0  0  0  0  0  0  0  0  0  0  0
  127.3580  127.1029   68.6429 H   0  0  0  0  0  0  0  0  0  0  0  0
  130.2504  125.2042   67.3089 H   0  0  0  0  0  0  0  0  0  0  0  0
  129.7331  124.3420   65.8204 H   0  0  0  0  0  0  0  0  0  0  0  0
  131.2511  125.3023   65.8204 H   0  0  0  0  0  0  0  0  0  0  0  0
  131.1356  124.2994   62.1700 H   0  0  0  0  0  0  0  0  0  0  0  0
  131.0919  123.2871   65.0969 H   0  0  0  0  0  0  0  0  0  0  0  0
  130.8958  122.3014   63.6133 H   0  0  0  0  0  0  0  0  0  0  0  0
  133.2728  122.3583   64.8035 H   0  0  0  0  0  0  0  0  0  0  0  0
  133.2372  122.4867   63.0499 H   0  0  0  0  0  0  0  0  0  0  0  0
  131.5745  126.0833   64.6063 H   0  0  0  0  0  0  0  0  0  0  0  0
  132.1047  126.3463   62.9374 H   0  0  0  0  0  0  0  0  0  0  0  0
  1  2  1  0
  2  3  1  0
  3  4  1  0
  4  5  1  0
  5  6  1  0
  6  7  2  0
  6  8  1  0
  8  9  1  0
  9 10  2  0
 10 11  1  0
 10 12  1  0
 12 13  1  0
 13 14  2  0
 14 15  1  0
 15 16  2  0
 16 17  1  0
 17 18  1  0
 17 19  2  0
 12 20  1  0
 20 21  1  0
  5 22  1  0
 22 23  1  0
 23 24  1  0
 24 25  1  0
 25 26  2  0
 25 27  2  0
 25 28  1  0
 20  8  2  0
 28 22  1  0
 19 13  1  0
  1 29  1  0
  1 30  1  0
  1 31  1  0
  2 32  1  0
  2 33  1  0
  3 34  1  0
  3 35  1  0
  4 36  1  0
  4 37  1  0
  9 38  1  0
 11 39  1  0
 11 40  1  0
 11 41  1  0
 14 42  1  0
 15 43  1  0
 16 44  1  0
 19 45  1  0
 21 46  1  0
 21 47  1  0
 21 48  1  0
 22 49  1  6
 23 50  1  0
 23 51  1  0
 24 52  1  0
 24 53  1  0
 28 54  1  0
 28 55  1  0
M  END
>  <Binding energies>  (1) 
[-7.32]

>  <Ligand effiencies>  (1) 
[-0.26142857142857145]

>  <Interactions>  (1) 
["V-B:PRO:540:CA:9855, V-A:GLY:454:CA:4049, V-B:HIS:456:CD2:9039, V-A:GLU:543:C:4902, V-B:GLU:543:CB:9878, V-B:ALA:541:CB:9864, H-A:ARG:545:NH1:4927, V-B:TYR:539:CE2:9848, V-B:GLU:543:CG:9879, V-A:GLY:544:C:4912, V-B:TYR:539:C:9839, V-B:TYR:484:CE2:9317, V-A:GLU:543:CD:4908, V-B:HIS:456:CE1:9041, H-A:GLY:454:N:4050, V-B:TYR:484:CZ:9318, V-A:HIS:456:CE1:4070, V-B:GLY:544:C:9884, V-B:TYR:539:CD2:9846, V-A:GLU:543:CG:4907, V-B:GLY:544:CA:9886, V-B:GLU:543:CD:9880, V-B:HIS:456:CG:9037, V-A:LEU:475:CD2:4259, H-A:ARG:545:NH2:4928, V-A:ARG:545:CZ:4926, V-A:GLU:543:CB:4906, H-A:ARG:545:NE:4924, V-B:PRO:540:C:9853, H-A:TYR:484:OH:4348"]

$$$$
ZINC72104621
     RDKit          3D

 29 29  0  0  0  0  0  0  0  0999 V2000
  134.6470  126.6270   74.7330 C   0  0  0  0  0  0  0  0  0  0  0  0
  133.4250  126.5860   74.1790 C   0  0  0  0  0  0  0  0  0  0  0  0
  132.1260  126.5160   74.9570 C   0  0  0  0  0  0  0  0  0  0  0  0
  130.6730  126.6250   73.8380 P   0  0  0  0  0  0  0  0  0  0  0  0
  129.8610  125.3830   73.7080 O   0  0  0  0  0  0  0  0  0  0  0  0
  129.8060  127.9090   74.3700 O   0  0  0  0  0  0  0  0  0  0  0  0
  128.9890  128.6670   73.4740 C   0  0  2  0  0  0  0  0  0  0  0  0
  127.6300  128.0120   73.2350 C   0  0  0  0  0  0  0  0  0  0  0  0
  127.2480  127.3500   72.1300 C   0  0  0  0  0  0  0  0  0  0  0  0
  129.7190  128.9690   72.1430 C   0  0  0  0  0  0  0  0  0  0  0  0
  130.3410  127.7170   71.4900 C   0  0  1  0  0  0  0  0  0  0  0  0
  131.0960  128.0930   70.2290 C   0  0  0  0  0  0  0  0  0  0  0  0
  130.7430  127.7220   68.9880 C   0  0  0  0  0  0  0  0  0  0  0  0
  131.2560  127.1440   72.4080 O   0  0  0  0  0  0  0  0  0  0  0  0
  135.5399  126.6772   74.0925 H   0  0  0  0  0  0  0  0  0  0  0  0
  134.7555  126.6104   75.8275 H   0  0  0  0  0  0  0  0  0  0  0  0
  133.3617  126.6045   73.0810 H   0  0  0  0  0  0  0  0  0  0  0  0
  132.0866  125.5625   75.5040 H   0  0  0  0  0  0  0  0  0  0  0  0
  132.0922  127.3658   75.6547 H   0  0  0  0  0  0  0  0  0  0  0  0
  128.7955  129.6315   73.9663 H   0  0  0  0  0  0  0  0  0  0  0  0
  126.8919  128.0899   74.0469 H   0  0  0  0  0  0  0  0  0  0  0  0
  126.2385  126.9173   72.0695 H   0  0  0  0  0  0  0  0  0  0  0  0
  127.9448  127.2407   71.2859 H   0  0  0  0  0  0  0  0  0  0  0  0
  128.9954  129.4067   71.4395 H   0  0  0  0  0  0  0  0  0  0  0  0
  130.5434  129.6599   72.3732 H   0  0  0  0  0  0  0  0  0  0  0  0
  129.5404  127.0086   71.2307 H   0  0  0  0  0  0  0  0  0  0  0  0
  131.9972  128.7141   70.3394 H   0  0  0  0  0  0  0  0  0  0  0  0
  131.3482  128.0393   68.1260 H   0  0  0  0  0  0  0  0  0  0  0  0
  129.8485  127.1007   68.8332 H   0  0  0  0  0  0  0  0  0  0  0  0
  1  2  2  0
  2  3  1  0
  3  4  1  0
  4  5  2  0
  4  6  1  0
  6  7  1  0
  7  8  1  0
  8  9  2  0
  7 10  1  0
 10 11  1  0
 11 12  1  0
 12 13  2  0
 11 14  1  0
 14  4  1  0
  1 15  1  0
  1 16  1  0
  2 17  1  0
  3 18  1  0
  3 19  1  0
  7 20  1  1
  8 21  1  0
  9 22  1  0
  9 23  1  0
 10 24  1  0
 10 25  1  0
 11 26  1  6
 12 27  1  0
 13 28  1  0
 13 29  1  0
M  END
>  <Binding energies>  (1) 
[-4.71]

>  <Ligand effiencies>  (1) 
[-0.3364285714285714]

>  <Interactions>  (1) 
["V-A:HIS:456:CE1:4070, V-B:HIS:456:CD2:9039, V-A:LYS:547:CG:4948, V-A:GLU:543:C:4902, V-B:GLY:544:C:9884, V-A:HIS:456:CA:4063, V-A:HIS:456:CB:4065, H-B:LYS:547:NZ:9923, V-A:VAL:457:C:4073, V-B:HIS:456:CG:9037, V-A:GLU:543:CB:4906, H-A:LYS:547:NZ:4951, V-A:HIS:456:C:4061, V-A:GLY:544:C:4912, V-B:HIS:456:CE1:9041, V-A:HIS:456:CD2:4068, V-A:ARG:545:C:4917, V-A:HIS:456:CG:4066"]

$$$$
ZINC72112686
     RDKit          3D

 84 87  0  0  0  0  0  0  0  0999 V2000
  129.1100  133.2540   57.5870 C   0  0  0  0  0  0  0  0  0  0  0  0
  129.6530  131.8830   57.9520 C   0  0  0  0  0  0  0  0  0  0  0  0
  130.9120  131.4160   57.7570 C   0  0  0  0  0  0  0  0  0  0  0  0
  132.0580  132.2340   57.1610 C   0  0  0  0  0  0  0  0  0  0  0  0
  131.2880  130.0530   58.1810 C   0  0  0  0  0  0  0  0  0  0  0  0
  132.4530  129.6500   58.1620 O   0  0  0  0  0  0  0  0  0  0  0  0
  130.2410  129.3080   58.6420 O   0  0  0  0  0  0  0  0  0  0  0  0
  130.1140  128.9410   60.0180 C   0  0  1  0  0  0  0  0  0  0  0  0
  131.1360  127.8230   60.3550 C   0  0  0  0  0  0  0  0  0  0  0  0
  130.6770  126.2990   60.2820 C   0  0  1  0  0  0  0  0  0  0  0  0
  129.3530  126.0200   59.5010 C   0  0  0  0  0  0  0  0  0  0  0  0
  131.8660  125.5200   59.5830 C   0  0  2  0  0  0  0  0  0  0  0  0
  132.0780  125.8680   58.0900 C   0  0  0  0  0  0  0  0  0  0  0  0
  131.7850  123.9910   59.7570 C   0  0  0  0  0  0  0  0  0  0  0  0
  131.9010  123.6390   61.2510 C   0  0  2  0  0  0  0  0  0  0  0  0
  132.0510  122.2250   61.4190 O   0  0  0  0  0  0  0  0  0  0  0  0
  133.2400  121.6020   61.2550 C   0  0  0  0  0  0  0  0  0  0  0  0
  134.3590  122.2830   62.0310 C   0  0  0  0  0  0  0  0  0  0  0  0
  133.4520  120.6010   60.5680 O   0  0  0  0  0  0  0  0  0  0  0  0
  130.7200  124.2040   62.1150 C   0  0  2  0  0  0  0  0  0  0  0  0
  129.4370  123.3180   61.9120 C   0  0  0  0  0  0  0  0  0  0  0  0
  128.4610  123.7950   61.0040 O   0  0  0  0  0  0  0  0  0  0  0  0
  127.1510  123.7590   61.3140 C   0  0  0  0  0  0  0  0  0  0  0  0
  126.3930  124.9480   60.7400 C   0  0  0  0  0  0  0  0  0  0  0  0
  126.5800  122.8940   61.9790 O   0  0  0  0  0  0  0  0  0  0  0  0
  130.5290  125.7580   61.7860 C   0  0  2  0  0  0  0  0  0  0  0  0
  129.3220  126.3140   62.6250 C   0  0  2  0  0  0  0  0  0  0  0  0
  128.8990  127.6370   62.2860 O   0  0  0  0  0  0  0  0  0  0  0  0
  127.8900  128.2510   62.9520 C   0  0  0  0  0  0  0  0  0  0  0  0
  126.5480  128.0990   62.2500 C   0  0  0  0  0  0  0  0  0  0  0  0
  127.9880  128.8770   64.0090 O   0  0  0  0  0  0  0  0  0  0  0  0
  129.6660  126.2510   64.1320 C   0  0  0  0  0  0  0  0  0  0  0  0
  130.0040  124.8170   64.5720 C   0  0  0  0  0  0  0  0  0  0  0  0
  131.0630  124.1430   63.6620 C   0  0  2  0  0  0  0  0  0  0  0  0
  132.4660  124.0540   64.2030 C   0  0  0  0  0  0  0  0  0  0  0  0
  131.6030  122.9440   64.1540 O   0  0  0  0  0  0  0  0  0  0  0  0
  130.2940  130.1760   60.8930 C   0  0  0  0  0  0  0  0  0  0  0  0
  129.3890  131.0050   61.4250 C   0  0  0  0  0  0  0  0  0  0  0  0
  130.0670  132.0460   62.1650 C   0  0  0  0  0  0  0  0  0  0  0  0
  129.5470  132.9700   62.7860 O   0  0  0  0  0  0  0  0  0  0  0  0
  131.3850  131.8390   62.0640 O   0  0  0  0  0  0  0  0  0  0  0  0
  131.6540  130.6950   61.2840 C   0  0  0  0  0  0  0  0  0  0  0  0
  128.8872  133.8166   58.5056 H   0  0  0  0  0  0  0  0  0  0  0  0
  129.8599  133.7998   56.9955 H   0  0  0  0  0  0  0  0  0  0  0  0
  128.1898  133.1384   56.9955 H   0  0  0  0  0  0  0  0  0  0  0  0
  128.9446  131.1896   58.4289 H   0  0  0  0  0  0  0  0  0  0  0  0
  132.6619  132.6650   57.9731 H   0  0  0  0  0  0  0  0  0  0  0  0
  132.6901  131.5817   56.5405 H   0  0  0  0  0  0  0  0  0  0  0  0
  131.6465  133.0438   56.5405 H   0  0  0  0  0  0  0  0  0  0  0  0
  129.1096  128.5389   60.2166 H   0  0  0  0  0  0  0  0  0  0  0  0
  131.9789  127.9380   59.6577 H   0  0  0  0  0  0  0  0  0  0  0  0
  131.3507  127.9795   61.4224 H   0  0  0  0  0  0  0  0  0  0  0  0
  128.5350  125.8476   60.2159 H   0  0  0  0  0  0  0  0  0  0  0  0
  129.1107  126.8868   58.8686 H   0  0  0  0  0  0  0  0  0  0  0  0
  129.4811  125.1291   58.8686 H   0  0  0  0  0  0  0  0  0  0  0  0
  132.7493  125.8854   60.1273 H   0  0  0  0  0  0  0  0  0  0  0  0
  132.6487  126.8049   58.0093 H   0  0  0  0  0  0  0  0  0  0  0  0
  132.6350  125.0560   57.5997 H   0  0  0  0  0  0  0  0  0  0  0  0
  131.1009  125.9905   57.5997 H   0  0  0  0  0  0  0  0  0  0  0  0
  130.8221  123.6280   59.3682 H   0  0  0  0  0  0  0  0  0  0  0  0
  132.6068  123.5143   59.2026 H   0  0  0  0  0  0  0  0  0  0  0  0
  132.8057  124.1375   61.6292 H   0  0  0  0  0  0  0  0  0  0  0  0
  134.1769  122.1722   63.1102 H   0  0  0  0  0  0  0  0  0  0  0  0
  135.3212  121.8172   61.7717 H   0  0  0  0  0  0  0  0  0  0  0  0
  134.3873  123.3516   61.7717 H   0  0  0  0  0  0  0  0  0  0  0  0
  129.7684  122.3319   61.5545 H   0  0  0  0  0  0  0  0  0  0  0  0
  128.9364  123.3134   62.8915 H   0  0  0  0  0  0  0  0  0  0  0  0
  126.0002  125.5641   61.5623 H   0  0  0  0  0  0  0  0  0  0  0  0
  127.0729  125.5523   60.1215 H   0  0  0  0  0  0  0  0  0  0  0  0
  125.5582  124.5867   60.1215 H   0  0  0  0  0  0  0  0  0  0  0  0
  131.4654  126.2300   62.1183 H   0  0  0  0  0  0  0  0  0  0  0  0
  128.4707  125.6634   62.3760 H   0  0  0  0  0  0  0  0  0  0  0  0
  125.7495  128.0086   63.0011 H   0  0  0  0  0  0  0  0  0  0  0  0
  126.3613  128.9817   61.6208 H   0  0  0  0  0  0  0  0  0  0  0  0
  126.5634  127.1969   61.6208 H   0  0  0  0  0  0  0  0  0  0  0  0
  130.5328  126.8991   64.3284 H   0  0  0  0  0  0  0  0  0  0  0  0
  128.7879  126.5894   64.7015 H   0  0  0  0  0  0  0  0  0  0  0  0
  130.3927  124.8474   65.6006 H   0  0  0  0  0  0  0  0  0  0  0  0
  129.0809  124.2229   64.5019 H   0  0  0  0  0  0  0  0  0  0  0  0
  133.3295  124.1183   63.5246 H   0  0  0  0  0  0  0  0  0  0  0  0
  133.0498  124.5699   64.9796 H   0  0  0  0  0  0  0  0  0  0  0  0
  128.2985  130.9096   61.3164 H   0  0  0  0  0  0  0  0  0  0  0  0
  132.2396  130.9617   60.3918 H   0  0  0  0  0  0  0  0  0  0  0  0
  132.2461  129.9461   61.8305 H   0  0  0  0  0  0  0  0  0  0  0  0
  1  2  1  0
  2  3  2  0
  3  4  1  0
  3  5  1  0
  5  6  2  0
  5  7  1  0
  7  8  1  0
  8  9  1  0
 10  9  1  1
 10 11  1  0
 10 12  1  0
 12 13  1  0
 12 14  1  0
 14 15  1  0
 15 16  1  0
 16 17  1  0
 17 18  1  0
 17 19  2  0
 15 20  1  0
 20 21  1  1
 21 22  1  0
 22 23  1  0
 23 24  1  0
 23 25  2  0
 20 26  1  0
 26 27  1  0
 27 28  1  0
 28 29  1  0
 29 30  1  0
 29 31  2  0
 27 32  1  0
 32 33  1  0
 33 34  1  0
 34 35  1  0
 35 36  1  0
  8 37  1  0
 37 38  2  0
 38 39  1  0
 39 40  2  0
 39 41  1  0
 41 42  1  0
 26 10  1  0
 34 36  1  1
 42 37  1  0
 34 20  1  0
  1 43  1  0
  1 44  1  0
  1 45  1  0
  2 46  1  0
  4 47  1  0
  4 48  1  0
  4 49  1  0
  8 50  1  6
  9 51  1  0
  9 52  1  0
 11 53  1  0
 11 54  1  0
 11 55  1  0
 12 56  1  1
 13 57  1  0
 13 58  1  0
 13 59  1  0
 14 60  1  0
 14 61  1  0
 15 62  1  1
 18 63  1  0
 18 64  1  0
 18 65  1  0
 21 66  1  0
 21 67  1  0
 24 68  1  0
 24 69  1  0
 24 70  1  0
 26 71  1  1
 27 72  1  1
 30 73  1  0
 30 74  1  0
 30 75  1  0
 32 76  1  0
 32 77  1  0
 33 78  1  0
 33 79  1  0
 35 80  1  0
 35 81  1  0
 38 82  1  0
 42 83  1  0
 42 84  1  0
M  END
>  <Binding energies>  (1) 
[-7.57]

>  <Ligand effiencies>  (1) 
[-0.18023809523809525]

>  <Interactions>  (1) 
["V-A:ILE:369:CG2:3237, V-B:PRO:540:CA:9855, V-A:GLY:454:CA:4049, H-A:ALA:541:N:4891, H-A:TYR:531:OH:4795, V-B:TYR:539:CE2:9848, V-B:GLU:543:CG:9879, V-A:ASP:366:CG:3213, V-A:TYR:539:CD1:4873, V-A:LEU:363:CD1:3189, H-B:ALA:541:N:9863, V-A:TYR:539:CA:4869, V-A:GLU:543:CD:4908, V-A:ILE:369:CD1:3239, H-A:SER:385:OG:3410, V-B:GLU:543:CD:9880, V-A:TYR:539:C:4867, V-A:ASP:366:CB:3212, V-A:LEU:475:CD2:4259, V-A:PRO:540:N:4884, V-A:TYR:539:CG:4872, V-A:PRO:540:CB:4885, V-A:PRO:540:CA:4883, V-A:TYR:539:CE1:4875, H-A:TYR:484:OH:4348"]

$$$$
ZINC72132573
     RDKit          3D

 86 89  0  0  0  0  0  0  0  0999 V2000
  135.1930  124.5400   62.2010 O   0  0  0  0  0  0  0  0  0  0  0  0
  134.3540  124.6340   63.1270 C   0  0  0  0  0  0  0  0  0  0  0  0
  134.5750  125.1150   64.2620 O   0  0  0  0  0  0  0  0  0  0  0  0
  132.9700  124.1440   62.8450 C   0  0  0  0  0  0  0  0  0  0  0  0
  131.8890  124.9250   63.2540 C   0  0  0  0  0  0  0  0  0  0  0  0
  130.5710  124.5540   62.9990 C   0  0  0  0  0  0  0  0  0  0  0  0
  129.4380  125.4810   63.4520 C   0  0  0  0  0  0  0  0  0  0  0  0
  129.4850  125.8450   64.9380 C   0  0  0  0  0  0  0  0  0  0  0  0
  129.0810  127.1260   65.3360 C   0  0  0  0  0  0  0  0  0  0  0  0
  129.0770  127.5020   66.6820 C   0  0  0  0  0  0  0  0  0  0  0  0
  128.5850  128.9010   67.0600 C   0  0  2  0  0  0  0  0  0  0  0  0
  128.9050  129.2680   68.3940 O   0  0  0  0  0  0  0  0  0  0  0  0
  127.0670  129.0340   66.7960 C   0  0  0  0  0  0  0  0  0  0  0  0
  126.7400  128.8460   65.3030 N   0  0  0  0  0  0  0  0  0  0  0  0
  127.0410  130.0850   64.4480 C   0  0  0  0  0  0  0  0  0  0  0  0
  126.1700  130.0530   63.1840 C   0  0  0  0  0  0  0  0  0  0  0  0
  126.9580  130.4310   61.9180 C   0  0  0  0  0  0  0  0  0  0  0  0
  128.4250  130.7930   62.2100 C   0  0  0  0  0  0  0  0  0  0  0  0
  129.1770  131.2970   60.9650 C   0  0  0  0  0  0  0  0  0  0  0  0
  130.0170  132.5520   61.2410 C   0  0  0  0  0  0  0  0  0  0  0  0
  131.1490  132.1820   62.0140 O   0  0  0  0  0  0  0  0  0  0  0  0
  131.8520  131.0590   61.4990 C   0  0  0  0  0  0  0  0  0  0  0  0
  132.8750  131.5230   60.4500 C   0  0  0  0  0  0  0  0  0  0  0  0
  132.6590  130.8980   59.0560 C   0  0  0  0  0  0  0  0  0  0  0  0
  132.2480  131.9090   57.9680 C   0  0  0  0  0  0  0  0  0  0  0  0
  130.7600  131.8860   57.6360 C   0  0  0  0  0  0  0  0  0  0  0  0
  130.0600  130.6750   57.6390 C   0  0  0  0  0  0  0  0  0  0  0  0
  128.7010  130.6580   57.3390 C   0  0  0  0  0  0  0  0  0  0  0  0
  128.0460  131.8500   57.0360 C   0  0  0  0  0  0  0  0  0  0  0  0
  128.7380  133.0600   57.0300 C   0  0  0  0  0  0  0  0  0  0  0  0
  130.0970  133.0770   57.3300 C   0  0  0  0  0  0  0  0  0  0  0  0
  129.4980  126.5760   67.6450 C   0  0  0  0  0  0  0  0  0  0  0  0
  129.9180  125.3040   67.2610 C   0  0  0  0  0  0  0  0  0  0  0  0
  129.9140  124.9330   65.9160 C   0  0  0  0  0  0  0  0  0  0  0  0
  130.3340  123.6700   65.5860 O   0  0  0  0  0  0  0  0  0  0  0  0
  130.2950  123.3270   62.3220 C   0  0  0  0  0  0  0  0  0  0  0  0
  128.9700  122.8860   62.0350 C   0  0  0  0  0  0  0  0  0  0  0  0
  128.7430  121.6880   61.3690 C   0  0  0  0  0  0  0  0  0  0  0  0
  129.8050  120.8930   60.9670 C   0  0  0  0  0  0  0  0  0  0  0  0
  131.1140  121.2850   61.2250 C   0  0  0  0  0  0  0  0  0  0  0  0
  131.3940  122.5070   61.9050 C   0  0  0  0  0  0  0  0  0  0  0  0
  132.7320  122.9310   62.1710 C   0  0  0  0  0  0  0  0  0  0  0  0
  133.7850  122.1490   61.7470 O   0  0  0  0  0  0  0  0  0  0  0  0
  132.0835  125.8630   63.7947 H   0  0  0  0  0  0  0  0  0  0  0  0
  129.4971  126.4104   62.8666 H   0  0  0  0  0  0  0  0  0  0  0  0
  128.4970  124.9352   63.2886 H   0  0  0  0  0  0  0  0  0  0  0  0
  128.7603  127.8509   64.5733 H   0  0  0  0  0  0  0  0  0  0  0  0
  129.1245  129.6080   66.4126 H   0  0  0  0  0  0  0  0  0  0  0  0
  129.1090  130.2050   68.4200 H   0  0  0  0  0  0  0  0  0  0  0  0
  126.5336  128.2686   67.3788 H   0  0  0  0  0  0  0  0  0  0  0  0
  126.7495  130.0434   67.0965 H   0  0  0  0  0  0  0  0  0  0  0  0
  127.2840  128.0730   64.9470 H   0  0  0  0  0  0  0  0  0  0  0  0
  125.7610  128.6130   65.2070 H   0  0  0  0  0  0  0  0  0  0  0  0
  126.8166  130.9936   65.0260 H   0  0  0  0  0  0  0  0  0  0  0  0
  128.1035  130.0871   64.1634 H   0  0  0  0  0  0  0  0  0  0  0  0
  125.7667  129.0373   63.0587 H   0  0  0  0  0  0  0  0  0  0  0  0
  125.3665  130.7933   63.3120 H   0  0  0  0  0  0  0  0  0  0  0  0
  126.9387  129.5771   61.2248 H   0  0  0  0  0  0  0  0  0  0  0  0
  126.4787  131.3214   61.4851 H   0  0  0  0  0  0  0  0  0  0  0  0
  128.4460  131.5821   62.9760 H   0  0  0  0  0  0  0  0  0  0  0  0
  128.9292  129.8771   62.5518 H   0  0  0  0  0  0  0  0  0  0  0  0
  129.8455  130.4981   60.6115 H   0  0  0  0  0  0  0  0  0  0  0  0
  128.4230  131.5643   60.2100 H   0  0  0  0  0  0  0  0  0  0  0  0
  130.3472  132.9930   60.2889 H   0  0  0  0  0  0  0  0  0  0  0  0
  129.4153  133.2924   61.7886 H   0  0  0  0  0  0  0  0  0  0  0  0
  132.3765  130.5483   62.3200 H   0  0  0  0  0  0  0  0  0  0  0  0
  131.1377  130.3669   61.0291 H   0  0  0  0  0  0  0  0  0  0  0  0
  132.8040  132.6166   60.3553 H   0  0  0  0  0  0  0  0  0  0  0  0
  133.8654  131.1961   60.7995 H   0  0  0  0  0  0  0  0  0  0  0  0
  133.5981  130.4178   58.7438 H   0  0  0  0  0  0  0  0  0  0  0  0
  131.8280  130.1841   59.1547 H   0  0  0  0  0  0  0  0  0  0  0  0
  132.5098  132.9189   58.3165 H   0  0  0  0  0  0  0  0  0  0  0  0
  132.7851  131.6275   57.0502 H   0  0  0  0  0  0  0  0  0  0  0  0
  130.5829  129.7373   57.8782 H   0  0  0  0  0  0  0  0  0  0  0  0
  128.1466  129.7080   57.3411 H   0  0  0  0  0  0  0  0  0  0  0  0
  126.9719  131.8360   56.7991 H   0  0  0  0  0  0  0  0  0  0  0  0
  128.2130  133.9962   56.7895 H   0  0  0  0  0  0  0  0  0  0  0  0
  130.6491  134.0284   57.3262 H   0  0  0  0  0  0  0  0  0  0  0  0
  129.4971  126.8542   68.7092 H   0  0  0  0  0  0  0  0  0  0  0  0
  130.2552  124.5870   68.0240 H   0  0  0  0  0  0  0  0  0  0  0  0
  131.2120  123.4680   65.9180 H   0  0  0  0  0  0  0  0  0  0  0  0
  128.1144  123.5036   62.3456 H   0  0  0  0  0  0  0  0  0  0  0  0
  127.7119  121.3677   61.1589 H   0  0  0  0  0  0  0  0  0  0  0  0
  129.6112  119.9466   60.4409 H   0  0  0  0  0  0  0  0  0  0  0  0
  131.9459  120.6430   60.8998 H   0  0  0  0  0  0  0  0  0  0  0  0
  134.6380  122.5670   61.8790 H   0  0  0  0  0  0  0  0  0  0  0  0
  1  2  2  0
  2  3  1  0
  2  4  1  0
  4  5  2  0
  5  6  1  0
  6  7  1  0
  7  8  1  0
  8  9  2  0
  9 10  1  0
 10 11  1  0
 11 12  1  0
 11 13  1  0
 13 14  1  0
 14 15  1  0
 15 16  1  0
 16 17  1  0
 17 18  1  0
 18 19  1  0
 19 20  1  0
 20 21  1  0
 21 22  1  0
 22 23  1  0
 23 24  1  0
 24 25  1  0
 25 26  1  0
 26 27  2  0
 27 28  1  0
 28 29  2  0
 29 30  1  0
 30 31  2  0
 10 32  2  0
 32 33  1  0
 33 34  2  0
 34 35  1  0
  6 36  2  0
 36 37  1  0
 37 38  2  0
 38 39  1  0
 39 40  2  0
 40 41  1  0
 41 42  2  0
 42 43  1  0
 42  4  1  0
 34  8  1  0
 41 36  1  0
 31 26  1  0
  5 44  1  0
  7 45  1  0
  7 46  1  0
  9 47  1  0
 11 48  1  6
 12 49  1  0
 13 50  1  0
 13 51  1  0
 14 52  1  0
 14 53  1  0
 15 54  1  0
 15 55  1  0
 16 56  1  0
 16 57  1  0
 17 58  1  0
 17 59  1  0
 18 60  1  0
 18 61  1  0
 19 62  1  0
 19 63  1  0
 20 64  1  0
 20 65  1  0
 22 66  1  0
 22 67  1  0
 23 68  1  0
 23 69  1  0
 24 70  1  0
 24 71  1  0
 25 72  1  0
 25 73  1  0
 27 74  1  0
 28 75  1  0
 29 76  1  0
 30 77  1  0
 31 78  1  0
 32 79  1  0
 33 80  1  0
 35 81  1  0
 37 82  1  0
 38 83  1  0
 39 84  1  0
 40 85  1  0
 43 86  1  0
M  CHG  2   3  -1  14   1
M  END
>  <Binding energies>  (1) 
[-8.38]

>  <Ligand effiencies>  (1) 
[-0.17458333333333334]

>  <Interactions>  (1) 
["V-B:PRO:540:CA:9855, V-A:GLY:454:CA:4049, H-A:ALA:541:N:4891, V-B:GLU:543:CB:9878, V-A:PRO:540:C:4881, V-B:ALA:541:CB:9864, H-A:ARG:545:NH1:4927, V-A:TYR:484:CE2:4346, V-B:TYR:539:CE2:9848, V-B:GLU:543:CG:9879, V-B:TYR:539:C:9839, V-A:ASP:366:CG:3213, V-A:LEU:363:CD1:3189, V-A:TYR:539:CD1:4873, H-B:GLU:543:OE1:9881, V-A:GLU:543:CD:4908, H-B:TYR:484:OH:9319, V-B:HIS:456:CE1:9041, H-A:GLY:454:N:4050, V-B:GLU:543:CA:9876, V-A:GLY:453:C:4042, V-B:TYR:484:CZ:9318, V-A:HIS:456:CE1:4070, H-B:HIS:456:NE2:9042, V-B:TYR:539:CD2:9846, V-A:GLU:543:CG:4907, V-B:GLU:543:CD:9880, V-A:MET:535:CE:4835, V-A:TYR:539:C:4867, V-A:ASP:366:CB:3212, V-A:LEU:475:CD2:4259, H-A:ARG:545:NH2:4928, V-A:ARG:545:CZ:4926, V-A:GLU:543:CB:4906, V-A:PRO:540:N:4884, V-A:TYR:539:CG:4872, H-B:GLU:543:OE2:9882, V-A:GLY:453:CA:4044, V-A:PRO:540:CA:4883, V-A:PRO:540:CB:4885, H-A:ARG:545:NE:4924, H-A:SER:385:O:3406, V-B:PRO:540:C:9853, V-A:PRO:540:CD:4887, V-A:TYR:539:CE1:4875, H-A:TYR:484:OH:4348, H-A:GLU:543:O:4903"]

$$$$
ZINC72266828
     RDKit          3D

 87 92  0  0  0  0  0  0  0  0999 V2000
  129.3620  126.5260   65.1220 C   0  0  0  0  0  0  0  0  0  0  0  0
  130.3800  125.7530   65.9930 C   0  0  1  0  0  0  0  0  0  0  0  0
  129.6700  124.8300   67.0240 C   0  0  0  0  0  0  0  0  0  0  0  0
  129.4620  125.4280   68.3490 N   0  0  0  0  0  0  0  0  0  0  0  0
  129.2190  126.7330   68.5940 C   0  0  0  0  0  0  0  0  0  0  0  0
  129.1260  127.5760   67.6980 O   0  0  0  0  0  0  0  0  0  0  0  0
  129.1070  127.1380   70.0470 C   0  0  0  0  0  0  0  0  0  0  0  0
  127.8910  126.9590   70.7240 C   0  0  0  0  0  0  0  0  0  0  0  0
  127.7640  127.3220   72.0620 C   0  0  0  0  0  0  0  0  0  0  0  0
  128.8550  127.8670   72.7340 C   0  0  0  0  0  0  0  0  0  0  0  0
  130.0710  128.0470   72.0810 C   0  0  0  0  0  0  0  0  0  0  0  0
  130.1980  127.6850   70.7440 C   0  0  0  0  0  0  0  0  0  0  0  0
  131.4390  125.0070   65.1520 C   0  0  0  0  0  0  0  0  0  0  0  0
  132.6320  125.3240   65.1570 O   0  0  0  0  0  0  0  0  0  0  0  0
  130.8980  124.0100   64.4190 O   0  0  0  0  0  0  0  0  0  0  0  0
  130.5150  124.2320   63.0670 C   0  0  0  0  0  0  0  0  0  0  0  0
  131.6690  124.8500   62.2630 C   0  0  0  0  0  0  0  0  0  0  0  0
  132.8200  124.8620   62.7030 O   0  0  0  0  0  0  0  0  0  0  0  0
  131.3080  125.4980   60.8960 C   0  0  1  0  0  0  0  0  0  0  0  0
  132.5070  125.7450   60.1680 O   0  0  0  0  0  0  0  0  0  0  0  0
  132.7430  124.7390   59.2340 C   0  0  0  0  0  0  0  0  0  0  0  0
  133.2390  125.3840   57.9480 C   0  0  0  0  0  0  0  0  0  0  0  0
  133.7140  123.7060   59.8030 C   0  0  0  0  0  0  0  0  0  0  0  0
  131.5210  124.1300   58.9880 O   0  0  0  0  0  0  0  0  0  0  0  0
  130.5420  124.5690   59.9140 C   0  0  2  0  0  0  0  0  0  0  0  0
  129.4780  125.4390   59.2060 C   0  0  0  0  0  0  0  0  0  0  0  0
  129.8840  126.8720   59.5770 C   0  0  1  0  0  0  0  0  0  0  0  0
  128.9040  128.0560   59.3370 C   0  0  2  0  0  0  0  0  0  0  0  0
  128.3880  128.0870   57.8780 C   0  0  0  0  0  0  0  0  0  0  0  0
  127.4430  129.2690   57.6080 C   0  0  0  0  0  0  0  0  0  0  0  0
  128.1570  130.5720   57.9670 C   0  0  0  0  0  0  0  0  0  0  0  0
  128.3720  131.5470   57.0520 C   0  0  0  0  0  0  0  0  0  0  0  0
  129.0710  132.8060   57.3080 C   0  0  0  0  0  0  0  0  0  0  0  0
  129.2350  133.6720   56.4510 O   0  0  0  0  0  0  0  0  0  0  0  0
  129.5590  132.9350   58.6780 C   0  0  0  0  0  0  0  0  0  0  0  0
  129.3770  132.0000   59.6320 C   0  0  0  0  0  0  0  0  0  0  0  0
  128.6350  130.6640   59.4460 C   0  0  1  0  0  0  0  0  0  0  0  0
  127.3690  130.7370   60.3460 C   0  0  0  0  0  0  0  0  0  0  0  0
  129.5810  129.4220   59.7290 C   0  0  2  0  0  0  0  0  0  0  0  0
  130.6170  129.5680   58.8880 F   0  0  0  0  0  0  0  0  0  0  0  0
  130.2700  129.3720   61.1490 C   0  0  1  0  0  0  0  0  0  0  0  0
  129.3810  129.5380   62.2350 O   0  0  0  0  0  0  0  0  0  0  0  0
  131.1410  128.0960   61.3470 C   0  0  0  0  0  0  0  0  0  0  0  0
  130.3880  126.7680   61.0360 C   0  0  2  0  0  0  0  0  0  0  0  0
  129.2170  126.5220   62.0510 C   0  0  0  0  0  0  0  0  0  0  0  0
  128.6556  127.0624   65.7726 H   0  0  0  0  0  0  0  0  0  0  0  0
  129.8964  127.2480   64.4870 H   0  0  0  0  0  0  0  0  0  0  0  0
  128.8101  125.8174   64.4870 H   0  0  0  0  0  0  0  0  0  0  0  0
  130.9383  126.5036   66.5718 H   0  0  0  0  0  0  0  0  0  0  0  0
  128.6866  124.5543   66.6154 H   0  0  0  0  0  0  0  0  0  0  0  0
  130.3358  123.9677   67.1759 H   0  0  0  0  0  0  0  0  0  0  0  0
  129.4850  124.7920   69.1320 H   0  0  0  0  0  0  0  0  0  0  0  0
  127.0299  126.5278   70.1924 H   0  0  0  0  0  0  0  0  0  0  0  0
  126.8071  127.1791   72.5854 H   0  0  0  0  0  0  0  0  0  0  0  0
  128.7550  128.1578   73.7901 H   0  0  0  0  0  0  0  0  0  0  0  0
  130.9290  128.4743   72.6207 H   0  0  0  0  0  0  0  0  0  0  0  0
  131.1592  127.8279   70.2285 H   0  0  0  0  0  0  0  0  0  0  0  0
  130.2323  123.2718   62.6108 H   0  0  0  0  0  0  0  0  0  0  0  0
  129.6648  124.9299   63.0534 H   0  0  0  0  0  0  0  0  0  0  0  0
  133.8928  126.2341   58.1927 H   0  0  0  0  0  0  0  0  0  0  0  0
  133.8034  124.6445   57.3609 H   0  0  0  0  0  0  0  0  0  0  0  0
  132.3794  125.7395   57.3609 H   0  0  0  0  0  0  0  0  0  0  0  0
  133.6825  123.7395   60.9020 H   0  0  0  0  0  0  0  0  0  0  0  0
  133.4249  122.7022   59.4583 H   0  0  0  0  0  0  0  0  0  0  0  0
  134.7338  123.9325   59.4583 H   0  0  0  0  0  0  0  0  0  0  0  0
  130.0442  123.7143   60.3954 H   0  0  0  0  0  0  0  0  0  0  0  0
  129.5100  125.2906   58.1165 H   0  0  0  0  0  0  0  0  0  0  0  0
  128.4502  125.1920   59.5104 H   0  0  0  0  0  0  0  0  0  0  0  0
  130.6425  127.1917   58.8473 H   0  0  0  0  0  0  0  0  0  0  0  0
  128.0292  127.9035   59.9862 H   0  0  0  0  0  0  0  0  0  0  0  0
  129.2514  128.1650   57.2009 H   0  0  0  0  0  0  0  0  0  0  0  0
  127.8193  127.1611   57.7070 H   0  0  0  0  0  0  0  0  0  0  0  0
  127.1647  129.2825   56.5439 H   0  0  0  0  0  0  0  0  0  0  0  0
  126.5341  129.1639   58.2187 H   0  0  0  0  0  0  0  0  0  0  0  0
  127.9902  131.3785   56.0343 H   0  0  0  0  0  0  0  0  0  0  0  0
  130.1077  133.8494   58.9478 H   0  0  0  0  0  0  0  0  0  0  0  0
  129.7942  132.2095   60.6280 H   0  0  0  0  0  0  0  0  0  0  0  0
  127.6697  130.7197   61.4040 H   0  0  0  0  0  0  0  0  0  0  0  0
  126.8226  131.6681   60.1353 H   0  0  0  0  0  0  0  0  0  0  0  0
  126.7192  129.8748   60.1353 H   0  0  0  0  0  0  0  0  0  0  0  0
  130.9330  130.2497   61.1538 H   0  0  0  0  0  0  0  0  0  0  0  0
  129.8600  129.3730   63.0510 H   0  0  0  0  0  0  0  0  0  0  0  0
  132.0135  128.1645   60.6807 H   0  0  0  0  0  0  0  0  0  0  0  0
  131.4250  128.0628   62.4092 H   0  0  0  0  0  0  0  0  0  0  0  0
  129.5999  126.6024   63.0791 H   0  0  0  0  0  0  0  0  0  0  0  0
  128.4304  127.2745   61.8928 H   0  0  0  0  0  0  0  0  0  0  0  0
  128.7997  125.5166   61.8928 H   0  0  0  0  0  0  0  0  0  0  0  0
  1  2  1  0
  2  3  1  0
  3  4  1  0
  4  5  1  0
  5  6  2  0
  5  7  1  0
  7  8  2  0
  8  9  1  0
  9 10  2  0
 10 11  1  0
 11 12  2  0
  2 13  1  0
 13 14  2  0
 13 15  1  0
 15 16  1  0
 16 17  1  0
 17 18  2  0
 19 17  1  1
 19 20  1  0
 20 21  1  0
 21 22  1  0
 21 23  1  0
 21 24  1  0
 24 25  1  0
 25 26  1  0
 26 27  1  0
 27 28  1  0
 28 29  1  0
 29 30  1  0
 30 31  1  0
 31 32  2  0
 32 33  1  0
 33 34  2  0
 33 35  1  0
 35 36  2  0
 36 37  1  0
 37 38  1  1
 37 39  1  0
 39 40  1  6
 39 41  1  0
 41 42  1  0
 41 43  1  0
 43 44  1  0
 44 45  1  1
 12  7  1  0
 25 19  1  0
 44 27  1  0
 44 19  1  0
 39 28  1  0
 37 31  1  0
  1 46  1  0
  1 47  1  0
  1 48  1  0
  2 49  1  1
  3 50  1  0
  3 51  1  0
  4 52  1  0
  8 53  1  0
  9 54  1  0
 10 55  1  0
 11 56  1  0
 12 57  1  0
 16 58  1  0
 16 59  1  0
 22 60  1  0
 22 61  1  0
 22 62  1  0
 23 63  1  0
 23 64  1  0
 23 65  1  0
 25 66  1  1
 26 67  1  0
 26 68  1  0
 27 69  1  6
 28 70  1  1
 29 71  1  0
 29 72  1  0
 30 73  1  0
 30 74  1  0
 32 75  1  0
 35 76  1  0
 36 77  1  0
 38 78  1  0
 38 79  1  0
 38 80  1  0
 41 81  1  6
 42 82  1  0
 43 83  1  0
 43 84  1  0
 45 85  1  0
 45 86  1  0
 45 87  1  0
M  END
>  <Binding energies>  (1) 
[-9.45]

>  <Ligand effiencies>  (1) 
[-0.20106382978723403]

>  <Interactions>  (1) 
["V-A:ILE:369:CG2:3237, V-A:ASP:366:CA:3210, V-B:GLU:543:C:9874, H-A:GLU:543:OE2:4910, H-B:GLU:543:O:9875, V-B:HIS:456:CD2:9039, V-A:ILE:369:CB:3236, V-B:GLU:543:CB:9878, V-B:TYR:539:CE2:9848, V-A:TYR:484:CE2:4346, V-B:GLU:543:CG:9879, V-A:ASP:366:CG:3213, V-A:TYR:539:CD1:4873, H-B:TYR:539:OH:9850, V-A:GLU:543:CD:4908, V-A:TYR:484:CZ:4347, V-B:HIS:456:CE1:9041, V-B:GLU:543:CA:9876, V-A:HIS:456:CE1:4070, V-A:ILE:369:CD1:3239, V-B:GLY:544:C:9884, V-A:ASP:366:C:3208, V-B:GLU:543:CD:9880, V-A:MET:535:CE:4835, V-A:TYR:539:C:4867, V-A:ASP:366:CB:3212, H-A:ARG:545:NH2:4928, H-A:GLU:543:OE1:4909, V-A:PRO:540:N:4884, H-A:TYR:539:N:4870, V-A:PRO:540:CA:4883, H-A:ARG:545:NE:4924, H-A:HIS:456:NE2:4071, H-A:TYR:484:OH:4348"]

$$$$
ZINC725383104
     RDKit          3D

 64 67  0  0  0  0  0  0  0  0999 V2000
  126.1270  122.9030   56.7040 C   0  0  0  0  0  0  0  0  0  0  0  0
  127.1370  123.7710   57.4740 C   0  0  2  0  0  0  0  0  0  0  0  0
  128.3430  123.7690   56.7150 O   0  0  0  0  0  0  0  0  0  0  0  0
  129.0340  125.0160   56.6690 C   0  0  0  0  0  0  0  0  0  0  0  0
  129.5560  125.3980   58.0560 C   0  0  0  0  0  0  0  0  0  0  0  0
  130.1170  124.5680   58.7730 O   0  0  0  0  0  0  0  0  0  0  0  0
  129.3390  126.6970   58.3640 O   0  0  0  0  0  0  0  0  0  0  0  0
  128.6850  127.0650   59.5740 C   0  0  0  0  0  0  0  0  0  0  0  0
  127.2050  127.3610   59.3170 C   0  0  0  0  0  0  0  0  0  0  0  0
  126.6690  127.1530   58.2230 O   0  0  0  0  0  0  0  0  0  0  0  0
  126.6000  127.8800   60.4220 O   0  0  0  0  0  0  0  0  0  0  0  0
  127.1990  128.9050   61.1290 C   0  0  0  0  0  0  0  0  0  0  0  0
  127.4280  128.6970   62.4870 C   0  0  0  0  0  0  0  0  0  0  0  0
  128.0150  129.6740   63.2770 C   0  0  0  0  0  0  0  0  0  0  0  0
  128.3830  130.9130   62.7500 C   0  0  0  0  0  0  0  0  0  0  0  0
  128.9860  131.9140   63.6510 N   0  0  0  0  0  0  0  0  0  0  0  0
  130.0690  132.3970   63.3380 O   0  0  0  0  0  0  0  0  0  0  0  0
  128.3530  132.2350   64.6510 O   0  0  0  0  0  0  0  0  0  0  0  0
  128.1530  131.1780   61.3620 C   0  0  0  0  0  0  0  0  0  0  0  0
  128.5100  132.4020   60.7270 C   0  0  0  0  0  0  0  0  0  0  0  0
  128.2360  132.5930   59.3760 C   0  0  0  0  0  0  0  0  0  0  0  0
  127.6130  131.5730   58.6710 C   0  0  0  0  0  0  0  0  0  0  0  0
  127.2670  130.3890   59.2270 N   0  0  0  0  0  0  0  0  0  0  0  0
  127.5390  130.1690   60.5480 C   0  0  0  0  0  0  0  0  0  0  0  0
  127.3580  123.2240   58.9000 C   0  0  0  0  0  0  0  0  0  0  0  0
  128.0290  122.2120   59.1150 O   0  0  0  0  0  0  0  0  0  0  0  0
  126.7410  123.9760   59.8370 O   0  0  0  0  0  0  0  0  0  0  0  0
  127.4080  124.3160   61.0500 C   0  0  0  0  0  0  0  0  0  0  0  0
  127.6190  123.0930   61.9540 C   0  0  0  0  0  0  0  0  0  0  0  0
  126.7990  122.8360   62.8380 O   0  0  0  0  0  0  0  0  0  0  0  0
  128.7560  122.3790   61.6830 O   0  0  0  0  0  0  0  0  0  0  0  0
  129.9800  122.8000   62.1660 C   0  0  0  0  0  0  0  0  0  0  0  0
  129.9830  123.8900   63.0330 C   0  0  0  0  0  0  0  0  0  0  0  0
  131.1670  124.3900   63.5590 C   0  0  0  0  0  0  0  0  0  0  0  0
  132.4020  123.8360   63.2230 C   0  0  0  0  0  0  0  0  0  0  0  0
  133.6220  124.4280   63.8050 N   0  0  0  0  0  0  0  0  0  0  0  0
  134.5260  124.7570   63.0440 O   0  0  0  0  0  0  0  0  0  0  0  0
  133.6540  124.5880   65.0210 O   0  0  0  0  0  0  0  0  0  0  0  0
  132.4490  122.7260   62.3220 C   0  0  0  0  0  0  0  0  0  0  0  0
  133.6600  122.0810   61.9320 C   0  0  0  0  0  0  0  0  0  0  0  0
  133.6260  121.0190   61.0350 C   0  0  0  0  0  0  0  0  0  0  0  0
  132.4000  120.6060   60.5350 C   0  0  0  0  0  0  0  0  0  0  0  0
  131.2230  121.1760   60.8840 N   0  0  0  0  0  0  0  0  0  0  0  0
  131.2250  122.2130   61.7760 C   0  0  0  0  0  0  0  0  0  0  0  0
  125.4926  122.3578   57.4183 H   0  0  0  0  0  0  0  0  0  0  0  0
  125.4977  123.5464   56.0716 H   0  0  0  0  0  0  0  0  0  0  0  0
  126.6685  122.1841   56.0716 H   0  0  0  0  0  0  0  0  0  0  0  0
  126.7650  124.7990   57.5959 H   0  0  0  0  0  0  0  0  0  0  0  0
  129.8828  124.9328   55.9743 H   0  0  0  0  0  0  0  0  0  0  0  0
  128.3356  125.7944   56.3278 H   0  0  0  0  0  0  0  0  0  0  0  0
  128.7686  126.2393   60.2959 H   0  0  0  0  0  0  0  0  0  0  0  0
  129.1637  127.9705   59.9751 H   0  0  0  0  0  0  0  0  0  0  0  0
  127.1374  127.7386   62.9420 H   0  0  0  0  0  0  0  0  0  0  0  0
  128.1946  129.4680   64.3425 H   0  0  0  0  0  0  0  0  0  0  0  0
  129.0029  133.1974   61.3053 H   0  0  0  0  0  0  0  0  0  0  0  0
  128.5081  133.5346   58.8766 H   0  0  0  0  0  0  0  0  0  0  0  0
  127.3891  131.7352   57.6063 H   0  0  0  0  0  0  0  0  0  0  0  0
  128.3887  124.7505   60.8061 H   0  0  0  0  0  0  0  0  0  0  0  0
  126.7777  125.0351   61.5937 H   0  0  0  0  0  0  0  0  0  0  0  0
  129.0288  124.3641   63.3065 H   0  0  0  0  0  0  0  0  0  0  0  0
  131.1300  125.2408   64.2552 H   0  0  0  0  0  0  0  0  0  0  0  0
  134.6217  122.4240   62.3412 H   0  0  0  0  0  0  0  0  0  0  0  0
  134.5545  120.5156   60.7276 H   0  0  0  0  0  0  0  0  0  0  0  0
  132.3833  119.7721   59.8178 H   0  0  0  0  0  0  0  0  0  0  0  0
  1  2  1  0
  2  3  1  0
  3  4  1  0
  4  5  1  0
  5  6  2  0
  5  7  1  0
  7  8  1  0
  8  9  1  0
  9 10  2  0
  9 11  1  0
 11 12  1  0
 12 13  2  0
 13 14  1  0
 14 15  2  0
 15 16  1  0
 16 17  2  0
 16 18  1  0
 15 19  1  0
 19 20  2  0
 20 21  1  0
 21 22  2  0
 22 23  1  0
 23 24  2  0
  2 25  1  0
 25 26  2  0
 25 27  1  0
 27 28  1  0
 28 29  1  0
 29 30  2  0
 29 31  1  0
 31 32  1  0
 32 33  2  0
 33 34  1  0
 34 35  2  0
 35 36  1  0
 36 37  2  0
 36 38  1  0
 35 39  1  0
 39 40  2  0
 40 41  1  0
 41 42  2  0
 42 43  1  0
 43 44  2  0
 24 12  1  0
 44 32  1  0
 24 19  1  0
 44 39  1  0
  1 45  1  0
  1 46  1  0
  1 47  1  0
  2 48  1  1
  4 49  1  0
  4 50  1  0
  8 51  1  0
  8 52  1  0
 13 53  1  0
 14 54  1  0
 20 55  1  0
 21 56  1  0
 22 57  1  0
 28 58  1  0
 28 59  1  0
 33 60  1  0
 34 61  1  0
 40 62  1  0
 41 63  1  0
 42 64  1  0
M  CHG  4  16   1  18  -1  36   1  38  -1
M  END
>  <Binding energies>  (1) 
[-7.33]

>  <Ligand effiencies>  (1) 
[-0.1665909090909091]

>  <Interactions>  (1) 
["V-A:ILE:369:CG2:3237, V-B:PRO:540:CA:9855, V-A:GLY:454:CA:4049, H-A:ALA:541:N:4891, H-A:ARG:545:NH1:4927, V-B:TYR:539:CE2:9848, V-A:TYR:539:CE1:4875, V-A:TYR:539:CD1:4873, V-B:TYR:539:CZ:9849, H-B:TYR:539:OH:9850, V-A:ALA:541:CB:4892, H-B:ALA:541:N:9863, V-A:GLU:543:CD:4908, V-B:PRO:540:CB:9857, H-B:TYR:484:OH:9319, H-A:GLY:454:N:4050, V-A:SER:385:C:3405, V-B:PRO:540:N:9856, V-A:ILE:369:CD1:3239, V-B:PRO:540:CD:9859, V-B:TYR:539:CD2:9846, V-A:SER:385:CB:3409, V-A:GLU:543:CG:4907, H-B:TYR:531:OH:9767, V-A:LEU:475:CD2:4259, H-A:ARG:545:NH2:4928, V-A:ARG:545:CZ:4926, H-A:ARG:545:NE:4924, V-A:SER:385:CA:3407, V-B:MET:535:CE:9807, V-B:TYR:539:CE1:9847, H-A:TYR:484:OH:4348"]

$$$$
ZINC727884625
     RDKit          3D

 42 41  0  0  0  0  0  0  0  0999 V2000
  130.6170  118.6690   61.1110 C   0  0  0  0  0  0  0  0  0  0  0  0
  130.6360  120.1980   60.9170 C   0  0  0  0  0  0  0  0  0  0  0  0
  132.0840  120.7190   60.8440 C   0  0  0  0  0  0  0  0  0  0  0  0
  129.8310  120.9590   62.0040 C   0  0  0  0  0  0  0  0  0  0  0  0
  129.4520  122.4300   61.6930 C   0  0  1  0  0  0  0  0  0  0  0  0
  128.2050  122.4760   60.7810 C   0  0  0  0  0  0  0  0  0  0  0  0
  129.2740  123.2740   62.9850 C   0  0  0  0  0  0  0  0  0  0  0  0
  129.9000  122.6480   64.2330 C   0  0  0  0  0  0  0  0  0  0  0  0
  129.2670  121.8700   64.9480 O   0  0  0  0  0  0  0  0  0  0  0  0
  131.1850  123.0530   64.4290 O   0  0  0  0  0  0  0  0  0  0  0  0
  131.6140  124.4140   64.2510 C   0  0  1  0  0  0  0  0  0  0  0  0
  131.4130  125.1040   65.6150 C   0  0  0  0  0  0  0  0  0  0  0  0
  133.1050  124.4960   63.8040 C   0  0  0  0  0  0  0  0  0  0  0  0
  133.9620  124.7620   64.6530 O   0  0  0  0  0  0  0  0  0  0  0  0
  133.4300  124.3150   62.4950 N   0  0  0  0  0  0  0  0  0  0  0  0
  134.8140  124.3860   62.0190 C   0  0  0  0  0  0  0  0  0  0  0  0
  132.4810  124.0070   61.4220 C   0  0  0  0  0  0  0  0  0  0  0  0
  130.6141  118.4358   62.1860 H   0  0  0  0  0  0  0  0  0  0  0  0
  129.7136  118.2512   60.6427 H   0  0  0  0  0  0  0  0  0  0  0  0
  131.5097  118.2289   60.6427 H   0  0  0  0  0  0  0  0  0  0  0  0
  130.1333  120.3990   59.9594 H   0  0  0  0  0  0  0  0  0  0  0  0
  132.4749  120.8596   61.8626 H   0  0  0  0  0  0  0  0  0  0  0  0
  132.7096  119.9896   60.3087 H   0  0  0  0  0  0  0  0  0  0  0  0
  132.1014  121.6798   60.3087 H   0  0  0  0  0  0  0  0  0  0  0  0
  128.8969  120.4040   62.1756 H   0  0  0  0  0  0  0  0  0  0  0  0
  130.5023  121.0129   62.8738 H   0  0  0  0  0  0  0  0  0  0  0  0
  130.2872  122.8934   61.1474 H   0  0  0  0  0  0  0  0  0  0  0  0
  127.2976  122.5095   61.4019 H   0  0  0  0  0  0  0  0  0  0  0  0
  128.2480  123.3732   60.1460 H   0  0  0  0  0  0  0  0  0  0  0  0
  128.1818  121.5781   60.1460 H   0  0  0  0  0  0  0  0  0  0  0  0
  129.7391  124.2574   62.8217 H   0  0  0  0  0  0  0  0  0  0  0  0
  128.1922  123.3408   63.1730 H   0  0  0  0  0  0  0  0  0  0  0  0
  131.0330  124.9052   63.4566 H   0  0  0  0  0  0  0  0  0  0  0  0
  131.6218  124.3872   66.4228 H   0  0  0  0  0  0  0  0  0  0  0  0
  132.0992  125.9597   65.6977 H   0  0  0  0  0  0  0  0  0  0  0  0
  130.3746  125.4574   65.6977 H   0  0  0  0  0  0  0  0  0  0  0  0
  135.4968  124.4210   62.8807 H   0  0  0  0  0  0  0  0  0  0  0  0
  135.0381  123.4982   61.4095 H   0  0  0  0  0  0  0  0  0  0  0  0
  134.9461  125.2921   61.4095 H   0  0  0  0  0  0  0  0  0  0  0  0
  131.5211  123.6955   61.8597 H   0  0  0  0  0  0  0  0  0  0  0  0
  132.3274  124.9014   60.8004 H   0  0  0  0  0  0  0  0  0  0  0  0
  132.8820  123.1929   60.8004 H   0  0  0  0  0  0  0  0  0  0  0  0
  1  2  1  0
  2  3  1  0
  2  4  1  0
  4  5  1  0
  5  6  1  0
  5  7  1  0
  7  8  1  0
  8  9  2  0
  8 10  1  0
 10 11  1  0
 11 12  1  0
 11 13  1  0
 13 14  2  0
 13 15  1  0
 15 16  1  0
 15 17  1  0
  1 18  1  0
  1 19  1  0
  1 20  1  0
  2 21  1  0
  3 22  1  0
  3 23  1  0
  3 24  1  0
  4 25  1  0
  4 26  1  0
  5 27  1  6
  6 28  1  0
  6 29  1  0
  6 30  1  0
  7 31  1  0
  7 32  1  0
 11 33  1  6
 12 34  1  0
 12 35  1  0
 12 36  1  0
 16 37  1  0
 16 38  1  0
 16 39  1  0
 17 40  1  0
 17 41  1  0
 17 42  1  0
M  END
>  <Binding energies>  (1) 
[-4.43]

>  <Ligand effiencies>  (1) 
[-0.2605882352941176]

>  <Interactions>  (1) 
["V-B:PRO:540:CA:9855, V-A:ILE:369:CD1:3239, V-A:GLY:453:CA:4044, V-B:TYR:539:CD2:9846, H-A:ARG:545:NE:4924, V-B:PRO:540:C:9853, V-B:ALA:541:CB:9864, V-A:ARG:545:CZ:4926, H-A:ARG:545:NH1:4927, V-A:TYR:484:CE2:4346, V-B:TYR:539:CE2:9848, V-A:LEU:475:CD2:4259, H-A:ARG:545:NH2:4928, V-B:GLU:543:CG:9879, H-A:GLY:454:N:4050, V-A:ASP:366:CG:3213, V-A:GLY:453:C:4042, H-A:TYR:484:OH:4348"]

$$$$
ZINC728839402
     RDKit          3D

 60 61  0  0  0  0  0  0  0  0999 V2000
  127.9150  134.0350   61.7960 C   0  0  0  0  0  0  0  0  0  0  0  0
  128.4080  132.6360   61.3960 C   0  0  0  0  0  0  0  0  0  0  0  0
  128.9040  131.8520   62.5560 N   0  0  0  0  0  0  0  0  0  0  0  0
  130.3260  132.0070   62.9470 C   0  0  0  0  0  0  0  0  0  0  0  0
  131.2910  131.4890   61.8690 C   0  0  0  0  0  0  0  0  0  0  0  0
  127.7590  131.4110   63.8390 S   0  0  0  0  0  0  0  0  0  0  0  0
  128.0820  132.2230   65.0180 O   0  0  0  0  0  0  0  0  0  0  0  0
  126.3970  131.4190   63.2940 O   0  0  0  0  0  0  0  0  0  0  0  0
  128.1410  129.7020   64.2280 C   0  0  0  0  0  0  0  0  0  0  0  0
  128.1050  129.2560   65.5520 C   0  0  0  0  0  0  0  0  0  0  0  0
  128.3910  127.9220   65.8640 C   0  0  0  0  0  0  0  0  0  0  0  0
  128.3540  127.4640   67.3010 C   0  0  0  0  0  0  0  0  0  0  0  0
  127.3480  127.7240   67.9650 O   0  0  0  0  0  0  0  0  0  0  0  0
  129.4330  126.8090   67.8170 N   0  0  0  0  0  0  0  0  0  0  0  0
  129.5970  125.3560   67.6330 C   0  0  0  0  0  0  0  0  0  0  0  0
  130.5280  124.9700   66.4890 C   0  0  0  0  0  0  0  0  0  0  0  0
  131.8280  125.4730   66.4560 C   0  0  0  0  0  0  0  0  0  0  0  0
  132.6860  125.1210   65.4190 C   0  0  0  0  0  0  0  0  0  0  0  0
  132.2680  124.2630   64.3860 C   0  0  0  0  0  0  0  0  0  0  0  0
  133.1510  123.8980   63.3300 N   0  0  0  0  0  0  0  0  0  0  0  0
  133.2550  122.5030   62.9050 C   0  0  0  0  0  0  0  0  0  0  0  0
  133.5950  124.9080   62.3680 C   0  0  0  0  0  0  0  0  0  0  0  0
  130.9510  123.7700   64.4380 C   0  0  0  0  0  0  0  0  0  0  0  0
  130.0900  124.1200   65.4730 C   0  0  0  0  0  0  0  0  0  0  0  0
  130.5530  127.4580   68.5310 C   0  0  0  0  0  0  0  0  0  0  0  0
  130.2690  127.7660   70.0150 C   0  0  0  0  0  0  0  0  0  0  0  0
  131.3860  127.9990   70.7050 F   0  0  0  0  0  0  0  0  0  0  0  0
  129.5000  128.8480   70.1240 F   0  0  0  0  0  0  0  0  0  0  0  0
  129.6320  126.7590   70.6130 F   0  0  0  0  0  0  0  0  0  0  0  0
  128.7620  127.0460   64.8350 C   0  0  0  0  0  0  0  0  0  0  0  0
  128.8140  127.4900   63.5160 C   0  0  0  0  0  0  0  0  0  0  0  0
  128.5030  128.8140   63.2080 C   0  0  0  0  0  0  0  0  0  0  0  0
  128.5650  129.2270   61.9200 F   0  0  0  0  0  0  0  0  0  0  0  0
  127.8871  134.1142   62.8928 H   0  0  0  0  0  0  0  0  0  0  0  0
  128.5996  134.7947   61.3908 H   0  0  0  0  0  0  0  0  0  0  0  0
  126.9054  134.1977   61.3908 H   0  0  0  0  0  0  0  0  0  0  0  0
  127.5749  132.0885   60.9310 H   0  0  0  0  0  0  0  0  0  0  0  0
  129.2481  132.7657   60.6978 H   0  0  0  0  0  0  0  0  0  0  0  0
  130.5302  133.0739   63.1204 H   0  0  0  0  0  0  0  0  0  0  0  0
  130.4899  131.4115   63.8572 H   0  0  0  0  0  0  0  0  0  0  0  0
  132.1622  131.0213   62.3509 H   0  0  0  0  0  0  0  0  0  0  0  0
  130.7760  130.7461   61.2422 H   0  0  0  0  0  0  0  0  0  0  0  0
  131.6255  132.3288   61.2422 H   0  0  0  0  0  0  0  0  0  0  0  0
  127.8493  129.9606   66.3571 H   0  0  0  0  0  0  0  0  0  0  0  0
  130.0025  124.9343   68.5645 H   0  0  0  0  0  0  0  0  0  0  0  0
  128.6040  124.9563   67.3798 H   0  0  0  0  0  0  0  0  0  0  0  0
  132.1757  126.1491   67.2510 H   0  0  0  0  0  0  0  0  0  0  0  0
  133.7105  125.5212   65.4068 H   0  0  0  0  0  0  0  0  0  0  0  0
  133.3035  121.8525   63.7907 H   0  0  0  0  0  0  0  0  0  0  0  0
  132.3742  122.2367   62.3023 H   0  0  0  0  0  0  0  0  0  0  0  0
  134.1655  122.3702   62.3023 H   0  0  0  0  0  0  0  0  0  0  0  0
  133.9805  125.7849   62.9087 H   0  0  0  0  0  0  0  0  0  0  0  0
  134.3913  124.4876   61.7362 H   0  0  0  0  0  0  0  0  0  0  0  0
  132.7469  125.2105   61.7362 H   0  0  0  0  0  0  0  0  0  0  0  0
  130.5957  123.0952   63.6453 H   0  0  0  0  0  0  0  0  0  0  0  0
  129.0630  123.7263   65.4904 H   0  0  0  0  0  0  0  0  0  0  0  0
  131.4265  126.7915   68.4790 H   0  0  0  0  0  0  0  0  0  0  0  0
  130.7221  128.4258   68.0362 H   0  0  0  0  0  0  0  0  0  0  0  0
  129.0137  126.0014   65.0705 H   0  0  0  0  0  0  0  0  0  0  0  0
  129.1014  126.7938   62.7143 H   0  0  0  0  0  0  0  0  0  0  0  0
  1  2  1  0
  2  3  1  0
  3  4  1  0
  4  5  1  0
  3  6  1  0
  6  7  2  0
  6  8  2  0
  6  9  1  0
  9 10  2  0
 10 11  1  0
 11 12  1  0
 12 13  2  0
 12 14  1  0
 14 15  1  0
 15 16  1  0
 16 17  2  0
 17 18  1  0
 18 19  2  0
 19 20  1  0
 20 21  1  0
 20 22  1  0
 19 23  1  0
 23 24  2  0
 14 25  1  0
 25 26  1  0
 26 27  1  0
 26 28  1  0
 26 29  1  0
 11 30  2  0
 30 31  1  0
 31 32  2  0
 32 33  1  0
 32  9  1  0
 24 16  1  0
  1 34  1  0
  1 35  1  0
  1 36  1  0
  2 37  1  0
  2 38  1  0
  4 39  1  0
  4 40  1  0
  5 41  1  0
  5 42  1  0
  5 43  1  0
 10 44  1  0
 15 45  1  0
 15 46  1  0
 17 47  1  0
 18 48  1  0
 21 49  1  0
 21 50  1  0
 21 51  1  0
 22 52  1  0
 22 53  1  0
 22 54  1  0
 23 55  1  0
 24 56  1  0
 25 57  1  0
 25 58  1  0
 30 59  1  0
 31 60  1  0
M  END
>  <Binding energies>  (1) 
[-6.18]

>  <Ligand effiencies>  (1) 
[-0.18727272727272726]

>  <Interactions>  (1) 
["V-A:ARG:545:CA:4919, V-A:GLU:543:CA:4904, V-A:GLY:454:CA:4049, V-B:GLU:543:C:9874, V-B:HIS:456:CD2:9039, V-A:GLU:543:C:4902, V-B:GLU:543:CB:9878, V-A:TYR:484:CE2:4346, V-A:GLY:544:CA:4914, V-B:LEU:475:CD2:9230, V-B:GLU:543:CG:9879, V-A:GLY:544:C:4912, V-A:ASP:366:CG:3213, V-A:HIS:456:CD2:4068, V-A:ALA:541:CB:4892, V-A:GLU:543:CD:4908, V-A:TYR:484:CZ:4347, H-B:TYR:484:OH:9319, V-B:GLU:543:CA:9876, V-B:HIS:456:CE1:9041, V-A:HIS:456:CE1:4070, V-A:ALA:541:CA:4890, V-A:GLU:543:CG:4907, V-B:GLU:543:CD:9880, V-A:LEU:475:CD2:4259, V-A:ARG:545:CZ:4926, V-A:GLU:543:CB:4906, V-A:PRO:540:CA:4883"]

$$$$
ZINC728840140
     RDKit          3D

 49 51  0  0  0  0  0  0  0  0999 V2000
  131.6990  118.3300   59.3420 C   0  0  0  0  0  0  0  0  0  0  0  0
  130.9860  118.9420   60.4640 N   0  0  0  0  0  0  0  0  0  0  0  0
  130.1930  118.0410   61.3030 C   0  0  0  0  0  0  0  0  0  0  0  0
  131.4010  120.2070   60.9690 C   0  0  0  0  0  0  0  0  0  0  0  0
  132.7510  120.6010   60.9200 C   0  0  0  0  0  0  0  0  0  0  0  0
  133.1600  121.8370   61.4130 C   0  0  0  0  0  0  0  0  0  0  0  0
  132.2190  122.7070   61.9640 C   0  0  0  0  0  0  0  0  0  0  0  0
  132.6190  123.9540   62.4690 N   0  0  0  0  0  0  0  0  0  0  0  0
  132.9610  124.9830   61.4800 C   0  0  0  0  0  0  0  0  0  0  0  0
  132.5310  124.2540   63.7940 C   0  0  0  0  0  0  0  0  0  0  0  0
  133.4830  124.7300   64.4220 O   0  0  0  0  0  0  0  0  0  0  0  0
  131.1980  123.9410   64.5340 C   0  0  0  0  0  0  0  0  0  0  0  0
  130.3150  125.1350   64.6460 N   0  0  0  0  0  0  0  0  0  0  0  0
  130.0880  125.7020   65.8610 C   0  0  0  0  0  0  0  0  0  0  0  0
  130.5910  125.2960   66.9130 O   0  0  0  0  0  0  0  0  0  0  0  0
  129.1940  126.8370   65.7230 C   0  0  0  0  0  0  0  0  0  0  0  0
  128.7420  127.6110   66.7400 C   0  0  0  0  0  0  0  0  0  0  0  0
  128.9300  127.4780   68.1970 C   0  0  0  0  0  0  0  0  0  0  0  0
  127.8830  127.0740   69.0320 C   0  0  0  0  0  0  0  0  0  0  0  0
  128.0820  126.9720   70.4060 C   0  0  0  0  0  0  0  0  0  0  0  0
  129.3270  127.2840   70.9490 C   0  0  0  0  0  0  0  0  0  0  0  0
  129.6000  127.1430   72.8260 Br  0  0  0  0  0  0  0  0  0  0  0  0
  130.3710  127.7020   70.1270 C   0  0  0  0  0  0  0  0  0  0  0  0
  130.1710  127.8030   68.7530 C   0  0  0  0  0  0  0  0  0  0  0  0
  128.8120  127.0880   64.0250 S   0  0  0  0  0  0  0  0  0  0  0  0
  129.7470  125.7050   63.5370 C   0  0  0  0  0  0  0  0  0  0  0  0
  129.8270  125.2880   61.9230 S   0  0  0  0  0  0  0  0  0  0  0  0
  130.8780  122.3350   62.0390 C   0  0  0  0  0  0  0  0  0  0  0  0
  130.4760  121.0980   61.5430 C   0  0  0  0  0  0  0  0  0  0  0  0
  132.4810  117.6588   59.7268 H   0  0  0  0  0  0  0  0  0  0  0  0
  130.9910  117.7541   58.7280 H   0  0  0  0  0  0  0  0  0  0  0  0
  132.1610  119.1171   58.7280 H   0  0  0  0  0  0  0  0  0  0  0  0
  130.3870  118.2614   62.3631 H   0  0  0  0  0  0  0  0  0  0  0  0
  129.1240  118.1858   61.0881 H   0  0  0  0  0  0  0  0  0  0  0  0
  130.4724  116.9990   61.0881 H   0  0  0  0  0  0  0  0  0  0  0  0
  133.4968  119.9199   60.4842 H   0  0  0  0  0  0  0  0  0  0  0  0
  134.2203  122.1263   61.3683 H   0  0  0  0  0  0  0  0  0  0  0  0
  133.2669  125.9033   61.9992 H   0  0  0  0  0  0  0  0  0  0  0  0
  133.7885  124.6252   60.8498 H   0  0  0  0  0  0  0  0  0  0  0  0
  132.0839  125.1918   60.8498 H   0  0  0  0  0  0  0  0  0  0  0  0
  130.6622  123.1566   63.9794 H   0  0  0  0  0  0  0  0  0  0  0  0
  131.4500  123.6143   65.5537 H   0  0  0  0  0  0  0  0  0  0  0  0
  128.1386  128.4766   66.4290 H   0  0  0  0  0  0  0  0  0  0  0  0
  126.8991  126.8361   68.6015 H   0  0  0  0  0  0  0  0  0  0  0  0
  127.2600  126.6465   71.0604 H   0  0  0  0  0  0  0  0  0  0  0  0
  131.3501  127.9514   70.5620 H   0  0  0  0  0  0  0  0  0  0  0  0
  130.9919  128.1396   68.1027 H   0  0  0  0  0  0  0  0  0  0  0  0
  130.1403  123.0161   62.4883 H   0  0  0  0  0  0  0  0  0  0  0  0
  129.4154  120.8119   61.6010 H   0  0  0  0  0  0  0  0  0  0  0  0
  1  2  1  0
  2  3  1  0
  2  4  1  0
  4  5  2  0
  5  6  1  0
  6  7  2  0
  7  8  1  0
  8  9  1  0
  8 10  1  0
 10 11  2  0
 10 12  1  0
 12 13  1  0
 13 14  1  0
 14 15  2  0
 14 16  1  0
 16 17  2  0
 17 18  1  0
 18 19  2  0
 19 20  1  0
 20 21  2  0
 21 22  1  0
 21 23  1  0
 23 24  2  0
 16 25  1  0
 25 26  1  0
 26 27  2  0
  7 28  1  0
 28 29  2  0
 29  4  1  0
 26 13  1  0
 24 18  1  0
  1 30  1  0
  1 31  1  0
  1 32  1  0
  3 33  1  0
  3 34  1  0
  3 35  1  0
  5 36  1  0
  6 37  1  0
  9 38  1  0
  9 39  1  0
  9 40  1  0
 12 41  1  0
 12 42  1  0
 17 43  1  0
 19 44  1  0
 20 45  1  0
 23 46  1  0
 24 47  1  0
 28 48  1  0
 29 49  1  0
M  END
>  <Binding energies>  (1) 
[-8.34]

>  <Ligand effiencies>  (1) 
[-0.28758620689655173]

>  <Interactions>  (1) 
["V-A:ILE:369:CG2:3237, V-B:GLU:543:C:9874, V-B:GLU:543:CB:9878, V-B:TYR:539:CE2:9848, V-B:GLU:543:CG:9879, V-A:ASP:366:CG:3213, V-A:HIS:456:CD2:4068, V-B:TYR:539:CB:9843, V-A:GLU:543:CD:4908, V-B:HIS:456:CE1:9041, H-A:GLY:454:N:4050, V-A:HIS:456:CE1:4070, V-A:PRO:482:CB:4326, V-B:TYR:539:CD2:9846, V-A:SER:385:CB:3409, V-B:GLU:543:CD:9880, V-A:LEU:475:CD2:4259, H-A:ARG:545:NH2:4928, V-B:TYR:539:CG:9844, V-A:GLU:543:CB:4906, V-A:HIS:383:CD2:3392, H-A:ARG:545:NE:4924, V-A:HIS:383:NE2:3394, H-A:TYR:484:OH:4348"]

$$$$
ZINC731562022
     RDKit          3D

 46 47  0  0  0  0  0  0  0  0999 V2000
  133.6430  124.8660   63.2450 C   0  0  0  0  0  0  0  0  0  0  0  0
  132.2870  124.3770   63.7350 C   0  0  0  0  0  0  0  0  0  0  0  0
  131.8440  124.7620   65.0020 C   0  0  0  0  0  0  0  0  0  0  0  0
  130.6210  124.3080   65.5160 C   0  0  0  0  0  0  0  0  0  0  0  0
  130.1290  124.7010   66.8440 C   0  0  0  0  0  0  0  0  0  0  0  0
  129.5760  125.8220   67.0870 N   0  0  0  0  0  0  0  0  0  0  0  0
  129.2060  125.9580   68.3750 N   0  0  0  0  0  0  0  0  0  0  0  0
  129.4780  127.0660   69.0960 C   0  0  0  0  0  0  0  0  0  0  0  0
  130.0770  128.0470   68.6440 O   0  0  0  0  0  0  0  0  0  0  0  0
  128.9880  127.0630   70.5280 C   0  0  0  0  0  0  0  0  0  0  0  0
  127.6230  126.9710   70.8410 C   0  0  0  0  0  0  0  0  0  0  0  0
  127.2370  126.9680   72.1790 C   0  0  0  0  0  0  0  0  0  0  0  0
  128.1240  127.0500   73.1990 N   0  0  0  0  0  0  0  0  0  0  0  0
  129.4580  127.1360   72.9230 C   0  0  0  0  0  0  0  0  0  0  0  0
  130.3640  127.2250   74.0160 N   0  0  0  0  0  0  0  0  0  0  0  0
  131.7340  126.7340   73.8750 C   0  0  0  0  0  0  0  0  0  0  0  0
  129.8470  127.3370   75.3810 C   0  0  0  0  0  0  0  0  0  0  0  0
  129.9060  127.1450   71.5880 C   0  0  0  0  0  0  0  0  0  0  0  0
  129.8500  123.4470   64.7270 C   0  0  0  0  0  0  0  0  0  0  0  0
  130.2750  123.0510   63.4550 C   0  0  0  0  0  0  0  0  0  0  0  0
  129.4150  122.0940   62.6450 C   0  0  0  0  0  0  0  0  0  0  0  0
  131.4950  123.5250   62.9500 C   0  0  0  0  0  0  0  0  0  0  0  0
  131.9180  123.1250   61.7030 O   0  0  0  0  0  0  0  0  0  0  0  0
  132.7310  121.9570   61.6890 C   0  0  0  0  0  0  0  0  0  0  0  0
  132.6890  121.4130   60.4730 F   0  0  0  0  0  0  0  0  0  0  0  0
  133.9950  122.2540   61.9900 F   0  0  0  0  0  0  0  0  0  0  0  0
  134.2836  125.0970   64.1089 H   0  0  0  0  0  0  0  0  0  0  0  0
  134.1173  124.0823   62.6360 H   0  0  0  0  0  0  0  0  0  0  0  0
  133.5079  125.7720   62.6360 H   0  0  0  0  0  0  0  0  0  0  0  0
  132.4671  125.4351   65.6092 H   0  0  0  0  0  0  0  0  0  0  0  0
  130.2448  123.9878   67.6734 H   0  0  0  0  0  0  0  0  0  0  0  0
  128.7070  125.1750   68.7720 H   0  0  0  0  0  0  0  0  0  0  0  0
  126.8700  126.9024   70.0421 H   0  0  0  0  0  0  0  0  0  0  0  0
  126.1656  126.8959   72.4176 H   0  0  0  0  0  0  0  0  0  0  0  0
  132.1717  126.5771   74.8719 H   0  0  0  0  0  0  0  0  0  0  0  0
  131.7275  125.7823   73.3235 H   0  0  0  0  0  0  0  0  0  0  0  0
  132.3335  127.4732   73.3235 H   0  0  0  0  0  0  0  0  0  0  0  0
  130.6626  127.1603   76.0976 H   0  0  0  0  0  0  0  0  0  0  0  0
  129.4351  128.3452   75.5355 H   0  0  0  0  0  0  0  0  0  0  0  0
  129.0548  126.5896   75.5355 H   0  0  0  0  0  0  0  0  0  0  0  0
  130.9825  127.2168   71.3737 H   0  0  0  0  0  0  0  0  0  0  0  0
  128.8906  123.0743   65.1151 H   0  0  0  0  0  0  0  0  0  0  0  0
  128.8383  121.4522   63.3273 H   0  0  0  0  0  0  0  0  0  0  0  0
  128.7242  122.6690   62.0108 H   0  0  0  0  0  0  0  0  0  0  0  0
  130.0603  121.4684   62.0108 H   0  0  0  0  0  0  0  0  0  0  0  0
  132.3472  121.2514   62.4405 H   0  0  0  0  0  0  0  0  0  0  0  0
  1  2  1  0
  2  3  2  0
  3  4  1  0
  4  5  1  0
  5  6  2  0
  6  7  1  0
  7  8  1  0
  8  9  2  0
  8 10  1  0
 10 11  2  0
 11 12  1  0
 12 13  2  0
 13 14  1  0
 14 15  1  0
 15 16  1  0
 15 17  1  0
 14 18  2  0
  4 19  2  0
 19 20  1  0
 20 21  1  0
 20 22  2  0
 22 23  1  0
 23 24  1  0
 24 25  1  0
 24 26  1  0
 22  2  1  0
 18 10  1  0
  1 27  1  0
  1 28  1  0
  1 29  1  0
  3 30  1  0
  5 31  1  0
  7 32  1  0
 11 33  1  0
 12 34  1  0
 16 35  1  0
 16 36  1  0
 16 37  1  0
 17 38  1  0
 17 39  1  0
 17 40  1  0
 18 41  1  0
 19 42  1  0
 21 43  1  0
 21 44  1  0
 21 45  1  0
 24 46  1  0
M  END
>  <Binding energies>  (1) 
[-5.76]

>  <Ligand effiencies>  (1) 
[-0.21333333333333332]

>  <Interactions>  (1) 
["V-A:ILE:369:CG2:3237, V-A:GLY:454:CA:4049, V-B:GLU:543:C:9874, V-B:HIS:456:CD2:9039, H-B:GLU:543:O:9875, V-B:GLU:543:CB:9878, H-B:LYS:547:NZ:9923, V-B:ALA:541:CB:9864, V-B:TYR:539:CE2:9848, V-A:TYR:484:CE2:4346, V-B:GLU:543:CG:9879, V-A:HIS:456:CD2:4068, V-B:LYS:547:CE:9922, V-A:TYR:484:CZ:4347, V-B:HIS:456:CE1:9041, V-B:GLU:543:CA:9876, V-A:HIS:456:CE1:4070, V-A:ILE:369:CD1:3239, V-B:GLY:544:C:9884, V-B:TYR:539:CD2:9846, V-B:GLY:544:CA:9886, V-B:HIS:456:CG:9037, V-A:LEU:475:CD2:4259, V-A:ARG:545:CZ:4926, V-A:HIS:456:CG:4066, H-A:HIS:456:NE2:4071"]

$$$$
ZINC73242957
     RDKit          3D

 79 86  0  0  0  0  0  0  0  0999 V2000
  132.8820  131.0450   62.0330 C   0  0  0  0  0  0  0  0  0  0  0  0
  131.6910  130.7780   61.4670 C   0  0  0  0  0  0  0  0  0  0  0  0
  131.3520  129.4210   60.8720 C   0  0  1  0  0  0  0  0  0  0  0  0
  130.3710  128.7980   61.6470 O   0  0  0  0  0  0  0  0  0  0  0  0
  130.1500  127.4480   61.3710 C   0  0  1  0  0  0  0  0  0  0  0  0
  131.0090  126.6090   62.0950 O   0  0  0  0  0  0  0  0  0  0  0  0
  130.8690  126.5750   63.4990 C   0  0  2  0  0  0  0  0  0  0  0  0
  131.5450  125.4210   63.8810 O   0  0  0  0  0  0  0  0  0  0  0  0
  130.6010  124.4040   64.0710 C   0  0  1  0  0  0  0  0  0  0  0  0
  130.9840  123.1780   63.2580 C   0  0  0  0  0  0  0  0  0  0  0  0
  130.4590  124.1450   65.5780 C   0  0  0  0  0  0  0  0  0  0  0  0
  130.1250  125.4560   66.3190 C   0  0  0  0  0  0  0  0  0  0  0  0
  129.1630  126.3560   65.5050 C   0  0  1  0  0  0  0  0  0  0  0  0
  128.9760  127.8050   66.0320 C   0  0  2  0  0  0  0  0  0  0  0  0
  128.7130  127.8810   67.5500 C   0  0  0  0  0  0  0  0  0  0  0  0
  127.8430  128.4900   65.2350 C   0  0  0  0  0  0  0  0  0  0  0  0
  128.1690  128.5260   63.7350 C   0  0  0  0  0  0  0  0  0  0  0  0
  128.3550  127.0960   63.1610 C   0  0  1  0  0  0  0  0  0  0  0  0
  128.7040  127.0910   61.6760 C   0  0  0  0  0  0  0  0  0  0  0  0
  127.8180  126.7680   60.7180 C   0  0  0  0  0  0  0  0  0  0  0  0
  129.4290  126.2950   63.9520 C   0  0  1  0  0  0  0  0  0  0  0  0
  129.3930  124.9260   63.5940 O   0  0  0  0  0  0  0  0  0  0  0  0
  130.9570  129.5740   59.5350 O   0  0  0  0  0  0  0  0  0  0  0  0
  129.8760  130.4390   59.2620 C   0  0  2  0  0  0  0  0  0  0  0  0
  129.9710  130.6840   57.8960 O   0  0  0  0  0  0  0  0  0  0  0  0
  130.6040  131.9190   57.7170 C   0  0  1  0  0  0  0  0  0  0  0  0
  131.7880  131.7670   56.7740 C   0  0  0  0  0  0  0  0  0  0  0  0
  129.5570  132.9430   57.2550 C   0  0  0  0  0  0  0  0  0  0  0  0
  128.3740  132.9820   58.2450 C   0  0  0  0  0  0  0  0  0  0  0  0
  128.8390  132.8260   59.7130 C   0  0  1  0  0  0  0  0  0  0  0  0
  127.7170  132.5860   60.7620 C   0  0  2  0  0  0  0  0  0  0  0  0
  126.5220  133.5500   60.6190 C   0  0  0  0  0  0  0  0  0  0  0  0
  128.3270  132.6590   62.1800 C   0  0  0  0  0  0  0  0  0  0  0  0
  129.4330  131.6080   62.3590 C   0  0  0  0  0  0  0  0  0  0  0  0
  130.5830  131.8170   61.3370 C   0  0  2  0  0  0  0  0  0  0  0  0
  130.0540  131.8360   59.8750 C   0  0  1  0  0  0  0  0  0  0  0  0
  131.0600  132.2910   58.9880 O   0  0  0  0  0  0  0  0  0  0  0  0
  133.0811  132.0430   62.4506 H   0  0  0  0  0  0  0  0  0  0  0  0
  133.6566  130.2653   62.0782 H   0  0  0  0  0  0  0  0  0  0  0  0
  132.2402  128.7722   60.8802 H   0  0  0  0  0  0  0  0  0  0  0  0
  130.3603  127.2913   60.3027 H   0  0  0  0  0  0  0  0  0  0  0  0
  131.2118  127.5351   63.9121 H   0  0  0  0  0  0  0  0  0  0  0  0
  131.2418  122.3528   63.9382 H   0  0  0  0  0  0  0  0  0  0  0  0
  130.1364  122.8792   62.6237 H   0  0  0  0  0  0  0  0  0  0  0  0
  131.8510  123.4148   62.6237 H   0  0  0  0  0  0  0  0  0  0  0  0
  129.6513  123.4175   65.7463 H   0  0  0  0  0  0  0  0  0  0  0  0
  131.4102  123.7492   65.9635 H   0  0  0  0  0  0  0  0  0  0  0  0
  129.6514  125.2092   67.2807 H   0  0  0  0  0  0  0  0  0  0  0  0
  131.0636  126.0101   66.4671 H   0  0  0  0  0  0  0  0  0  0  0  0
  128.1794  125.8961   65.6812 H   0  0  0  0  0  0  0  0  0  0  0  0
  129.9251  128.3386   65.8756 H   0  0  0  0  0  0  0  0  0  0  0  0
  129.6310  127.6157   68.0949 H   0  0  0  0  0  0  0  0  0  0  0  0
  128.4096  128.9036   67.8188 H   0  0  0  0  0  0  0  0  0  0  0  0
  127.9109  127.1779   67.8188 H   0  0  0  0  0  0  0  0  0  0  0  0
  126.9079  127.9309   65.3865 H   0  0  0  0  0  0  0  0  0  0  0  0
  127.7368  129.5239   65.5953 H   0  0  0  0  0  0  0  0  0  0  0  0
  127.3444  129.0213   63.2014 H   0  0  0  0  0  0  0  0  0  0  0  0
  129.1102  129.0787   63.5986 H   0  0  0  0  0  0  0  0  0  0  0  0
  127.3784  126.6033   63.2774 H   0  0  0  0  0  0  0  0  0  0  0  0
  128.1220  126.7804   59.6609 H   0  0  0  0  0  0  0  0  0  0  0  0
  126.7890  126.4913   60.9912 H   0  0  0  0  0  0  0  0  0  0  0  0
  128.9514  129.9791   59.6409 H   0  0  0  0  0  0  0  0  0  0  0  0
  132.7110  131.6485   57.3605 H   0  0  0  0  0  0  0  0  0  0  0  0
  131.6402  130.8805   56.1398 H   0  0  0  0  0  0  0  0  0  0  0  0
  131.8689  132.6621   56.1398 H   0  0  0  0  0  0  0  0  0  0  0  0
  130.0210  133.9390   57.2044 H   0  0  0  0  0  0  0  0  0  0  0  0
  129.1838  132.6507   56.2624 H   0  0  0  0  0  0  0  0  0  0  0  0
  127.8534  133.9451   58.1381 H   0  0  0  0  0  0  0  0  0  0  0  0
  127.7067  132.1398   58.0094 H   0  0  0  0  0  0  0  0  0  0  0  0
  129.2089  133.8309   59.9648 H   0  0  0  0  0  0  0  0  0  0  0  0
  127.3029  131.5833   60.5800 H   0  0  0  0  0  0  0  0  0  0  0  0
  126.1630  133.8396   61.6176 H   0  0  0  0  0  0  0  0  0  0  0  0
  126.8392  134.4481   60.0687 H   0  0  0  0  0  0  0  0  0  0  0  0
  125.7114  133.0500   60.0687 H   0  0  0  0  0  0  0  0  0  0  0  0
  128.7540  133.6606   62.3367 H   0  0  0  0  0  0  0  0  0  0  0  0
  127.5322  132.4594   62.9138 H   0  0  0  0  0  0  0  0  0  0  0  0
  129.8405  131.6871   63.3776 H   0  0  0  0  0  0  0  0  0  0  0  0
  128.9959  130.6128   62.1900 H   0  0  0  0  0  0  0  0  0  0  0  0
  131.0157  132.7993   61.5774 H   0  0  0  0  0  0  0  0  0  0  0  0
  1  2  2  0
  2  3  1  0
  3  4  1  0
  4  5  1  0
  5  6  1  0
  6  7  1  0
  7  8  1  0
  8  9  1  0
  9 10  1  6
  9 11  1  0
 11 12  1  0
 12 13  1  0
 13 14  1  0
 14 15  1  0
 14 16  1  0
 16 17  1  0
 17 18  1  0
 18 19  1  0
 19 20  2  0
 18 21  1  0
 21 22  1  6
  3 23  1  0
 23 24  1  0
 24 25  1  0
 25 26  1  0
 26 27  1  6
 26 28  1  0
 28 29  1  0
 29 30  1  0
 30 31  1  0
 31 32  1  0
 31 33  1  0
 33 34  1  0
 34 35  1  0
 35 36  1  0
 36 37  1  6
 35  2  1  0
 19  5  1  0
 36 24  1  0
 21  7  1  0
 37 26  1  0
 22  9  1  0
 36 30  1  0
 21 13  1  0
  1 38  1  0
  1 39  1  0
  3 40  1  6
  5 41  1  6
  7 42  1  1
 10 43  1  0
 10 44  1  0
 10 45  1  0
 11 46  1  0
 11 47  1  0
 12 48  1  0
 12 49  1  0
 13 50  1  6
 14 51  1  1
 15 52  1  0
 15 53  1  0
 15 54  1  0
 16 55  1  0
 16 56  1  0
 17 57  1  0
 17 58  1  0
 18 59  1  6
 20 60  1  0
 20 61  1  0
 24 62  1  6
 27 63  1  0
 27 64  1  0
 27 65  1  0
 28 66  1  0
 28 67  1  0
 29 68  1  0
 29 69  1  0
 30 70  1  1
 31 71  1  6
 32 72  1  0
 32 73  1  0
 32 74  1  0
 33 75  1  0
 33 76  1  0
 34 77  1  0
 34 78  1  0
 35 79  1  1
M  END
>  <Binding energies>  (1) 
[-8.58]

>  <Ligand effiencies>  (1) 
[-0.23189189189189188]

>  <Interactions>  (1) 
["V-B:GLU:543:CB:9878, V-A:TYR:484:CE2:4346, V-B:GLU:543:CG:9879, V-A:ASP:366:CG:3213, V-A:ASN:362:CB:3176, V-A:TYR:539:CD1:4873, V-A:LEU:363:CD1:3189, V-A:ALA:541:CB:4892, V-A:GLU:543:CD:4908, V-A:TYR:484:CZ:4347, V-B:HIS:456:CE1:9041, V-A:GLU:543:CG:4907, V-B:GLU:543:CD:9880, V-A:TYR:539:C:4867, V-A:LEU:475:CD2:4259, H-A:ARG:545:NH2:4928, V-A:GLU:543:CB:4906, V-A:PRO:540:N:4884, V-A:TYR:539:CG:4872, V-A:PRO:540:CA:4883, V-A:TYR:539:CE1:4875"]

$$$$
ZINC73311282
     RDKit          3D

 50 51  0  0  0  0  0  0  0  0999 V2000
  130.2870  125.1520   65.5150 C   0  0  0  0  0  0  0  0  0  0  0  0
  129.8410  126.2300   64.5170 C   0  0  0  0  0  0  0  0  0  0  0  0
  130.0000  125.7540   63.1900 O   0  0  0  0  0  0  0  0  0  0  0  0
  131.4510  125.8160   62.4430 P   0  0  2  0  0  5  0  0  0  0  0  0
  132.5560  125.4800   63.3850 O   0  0  0  0  0  0  0  0  0  0  0  0
  131.4120  127.3050   61.5940 N   0  0  0  0  0  0  0  0  0  0  0  0
  131.0000  127.1180   60.4040 C   0  0  0  0  0  0  0  0  0  0  0  0
  130.7970  128.1070   59.3950 N   0  0  0  0  0  0  0  0  0  0  0  0
  130.9970  129.5140   59.4710 C   0  0  0  0  0  0  0  0  0  0  0  0
  130.5920  130.2690   58.5350 N   0  0  0  0  0  0  0  0  0  0  0  0
  130.8960  131.6940   58.5910 C   0  0  0  0  0  0  0  0  0  0  0  0
  132.0430  131.9680   57.5680 C   0  0  0  0  0  0  0  0  0  0  0  0
  132.1890  133.2700   57.3100 F   0  0  0  0  0  0  0  0  0  0  0  0
  133.2200  131.5390   58.0250 F   0  0  0  0  0  0  0  0  0  0  0  0
  131.8380  131.3630   56.3960 F   0  0  0  0  0  0  0  0  0  0  0  0
  129.5770  132.4750   58.2950 C   0  0  0  0  0  0  0  0  0  0  0  0
  129.3190  133.3880   59.2340 F   0  0  0  0  0  0  0  0  0  0  0  0
  129.6000  133.1210   57.1300 F   0  0  0  0  0  0  0  0  0  0  0  0
  128.5250  131.6570   58.2640 F   0  0  0  0  0  0  0  0  0  0  0  0
  131.3890  132.2060   59.8440 O   0  0  0  0  0  0  0  0  0  0  0  0
  131.5990  131.3310   60.9340 C   0  0  0  0  0  0  0  0  0  0  0  0
  132.9910  131.7010   61.4840 C   0  0  0  0  0  0  0  0  0  0  0  0
  133.4010  130.7910   62.3680 F   0  0  0  0  0  0  0  0  0  0  0  0
  133.8820  131.7640   60.4920 F   0  0  0  0  0  0  0  0  0  0  0  0
  132.9540  132.8890   62.0920 F   0  0  0  0  0  0  0  0  0  0  0  0
  130.4160  131.4930   61.9200 C   0  0  0  0  0  0  0  0  0  0  0  0
  129.7340  130.3570   62.0630 F   0  0  0  0  0  0  0  0  0  0  0  0
  130.8650  131.8530   63.1230 F   0  0  0  0  0  0  0  0  0  0  0  0
  129.5790  132.4380   61.4870 F   0  0  0  0  0  0  0  0  0  0  0  0
  131.6760  129.9640   60.5820 O   0  0  0  0  0  0  0  0  0  0  0  0
  130.6630  125.7690   60.0590 N   0  0  0  0  0  0  0  0  0  0  0  0
  130.3610  125.3280   58.6950 C   0  0  0  0  0  0  0  0  0  0  0  0
  131.2540  124.7710   60.9490 C   0  0  0  0  0  0  0  0  0  0  0  0
  132.6470  124.2900   60.4730 C   0  0  0  0  0  0  0  0  0  0  0  0
  130.3200  123.5770   61.2530 C   0  0  0  0  0  0  0  0  0  0  0  0
  130.1358  125.5175   66.5414 H   0  0  0  0  0  0  0  0  0  0  0  0
  129.6925  124.2397   65.3593 H   0  0  0  0  0  0  0  0  0  0  0  0
  131.3523  124.9264   65.3593 H   0  0  0  0  0  0  0  0  0  0  0  0
  128.7830  126.4745   64.6926 H   0  0  0  0  0  0  0  0  0  0  0  0
  130.4582  127.1299   64.6557 H   0  0  0  0  0  0  0  0  0  0  0  0
  130.3680  127.7780   58.5430 H   0  0  0  0  0  0  0  0  0  0  0  0
  129.7398  124.4209   58.7320 H   0  0  0  0  0  0  0  0  0  0  0  0
  129.8172  126.1234   58.1644 H   0  0  0  0  0  0  0  0  0  0  0  0
  131.2992  125.1085   58.1644 H   0  0  0  0  0  0  0  0  0  0  0  0
  133.2781  124.0721   61.3472 H   0  0  0  0  0  0  0  0  0  0  0  0
  132.5330  123.3792   59.8669 H   0  0  0  0  0  0  0  0  0  0  0  0
  133.1193  125.0771   59.8669 H   0  0  0  0  0  0  0  0  0  0  0  0
  130.2241  123.4545   62.3419 H   0  0  0  0  0  0  0  0  0  0  0  0
  129.3283  123.7669   60.8167 H   0  0  0  0  0  0  0  0  0  0  0  0
  130.7431  122.6602   60.8167 H   0  0  0  0  0  0  0  0  0  0  0  0
  1  2  1  0
  2  3  1  0
  4  3  1  1
  4  5  2  0
  4  6  1  0
  6  7  2  0
  7  8  1  0
  8  9  1  0
  9 10  2  0
 10 11  1  0
 11 12  1  0
 12 13  1  0
 12 14  1  0
 12 15  1  0
 11 16  1  0
 16 17  1  0
 16 18  1  0
 16 19  1  0
 11 20  1  0
 20 21  1  0
 21 22  1  0
 22 23  1  0
 22 24  1  0
 22 25  1  0
 21 26  1  0
 26 27  1  0
 26 28  1  0
 26 29  1  0
 21 30  1  0
  7 31  1  0
 31 32  1  0
 31 33  1  0
 33 34  1  0
 33 35  1  0
 33  4  1  0
 30  9  1  0
  1 36  1  0
  1 37  1  0
  1 38  1  0
  2 39  1  0
  2 40  1  0
  8 41  1  0
 32 42  1  0
 32 43  1  0
 32 44  1  0
 34 45  1  0
 34 46  1  0
 34 47  1  0
 35 48  1  0
 35 49  1  0
 35 50  1  0
M  END
>  <Binding energies>  (1) 
[-3.73]

>  <Ligand effiencies>  (1) 
[-0.10361111111111111]

>  <Interactions>  (1) 
["V-A:PRO:540:CG:4886, V-A:ALA:541:C:4888, V-A:PRO:540:C:4881, V-A:ILE:538:CB:4862, H-A:TYR:531:OH:4795, V-B:TYR:539:CE2:9848, V-B:GLU:543:CG:9879, V-A:ASP:366:CG:3213, V-A:ASN:362:CB:3176, V-A:LEU:363:CD1:3189, V-A:LEU:363:CB:3187, V-A:LEU:363:CG:3188, V-B:TYR:539:CZ:9849, V-A:TYR:539:CD1:4873, V-A:TYR:531:CE2:4793, V-A:ALA:541:CB:4892, V-A:TYR:539:CA:4869, V-A:GLU:543:CD:4908, V-A:ASN:362:CG:3177, V-A:ALA:541:CA:4890, V-A:TYR:531:CZ:4794, V-A:GLU:543:CG:4907, V-B:GLU:543:CD:9880, V-A:TYR:539:C:4867, H-A:ARG:545:NH2:4928, V-A:ARG:545:CZ:4926, V-A:ASN:362:C:3172, V-A:PRO:540:N:4884, V-A:PRO:540:CB:4885, V-A:PRO:540:CA:4883, V-A:LEU:363:CA:3185, V-A:PRO:540:CD:4887"]

$$$$
ZINC73351290
     RDKit          3D

 83 88  0  0  0  0  0  0  0  0999 V2000
  127.8290  131.1440   63.6810 C   0  0  0  0  0  0  0  0  0  0  0  0
  128.2680  131.0800   62.3310 O   0  0  0  0  0  0  0  0  0  0  0  0
  128.7530  132.3020   61.7670 C   0  0  2  0  0  0  0  0  0  0  0  0
  128.3870  132.4660   60.2750 C   0  0  0  0  0  0  0  0  0  0  0  0
  129.1080  131.4380   59.3870 C   0  0  2  0  0  0  0  0  0  0  0  0
  128.5650  130.1750   59.6460 O   0  0  0  0  0  0  0  0  0  0  0  0
  129.4740  129.1190   59.9570 C   0  0  1  0  0  0  0  0  0  0  0  0
  129.4200  128.6300   61.4250 C   0  0  0  0  0  0  0  0  0  0  0  0
  128.0930  127.9070   61.7480 C   0  0  0  0  0  0  0  0  0  0  0  0
  127.7720  126.6830   60.8060 C   0  0  2  0  0  0  0  0  0  0  0  0
  126.3250  126.1860   61.1300 C   0  0  0  0  0  0  0  0  0  0  0  0
  125.8950  125.0830   60.7880 O   0  0  0  0  0  0  0  0  0  0  0  0
  128.7800  125.4650   61.0180 C   0  0  1  0  0  0  0  0  0  0  0  0
  128.7510  124.8590   62.4520 C   0  0  0  0  0  0  0  0  0  0  0  0
  129.8140  123.7660   62.6310 C   0  0  0  0  0  0  0  0  0  0  0  0
  129.6440  122.5680   61.6430 C   0  0  2  0  0  0  0  0  0  0  0  0
  128.3730  121.7640   62.0560 C   0  0  0  0  0  0  0  0  0  0  0  0
  130.9670  121.7220   61.6500 C   0  0  1  0  0  0  0  0  0  0  0  0
  130.8170  120.2510   61.2450 C   0  0  0  0  0  0  0  0  0  0  0  0
  129.9350  119.3130   61.6200 C   0  0  0  0  0  0  0  0  0  0  0  0
  130.2050  118.0810   60.9140 C   0  0  0  0  0  0  0  0  0  0  0  0
  129.5980  117.0180   61.0210 O   0  0  0  0  0  0  0  0  0  0  0  0
  131.2450  118.2880   60.1000 O   0  0  0  0  0  0  0  0  0  0  0  0
  131.7110  119.6150   60.2100 C   0  0  0  0  0  0  0  0  0  0  0  0
  131.9280  122.5010   60.7210 C   0  0  0  0  0  0  0  0  0  0  0  0
  131.0720  123.3990   59.8170 C   0  0  0  0  0  0  0  0  0  0  0  0
  129.5910  123.1150   60.1710 C   0  0  1  0  0  0  0  0  0  0  0  0
  129.0990  122.0990   59.3000 O   0  0  0  0  0  0  0  0  0  0  0  0
  128.5840  124.3120   59.9690 C   0  0  2  0  0  0  0  0  0  0  0  0
  128.6630  124.8910   58.5280 C   0  0  0  0  0  0  0  0  0  0  0  0
  127.6550  126.0260   58.2860 C   0  0  0  0  0  0  0  0  0  0  0  0
  127.8250  127.1970   59.3000 C   0  0  1  0  0  0  0  0  0  0  0  0
  126.7960  128.1280   58.9880 O   0  0  0  0  0  0  0  0  0  0  0  0
  129.1860  127.9220   59.0270 C   0  0  0  0  0  0  0  0  0  0  0  0
  130.5000  131.4630   59.6160 O   0  0  0  0  0  0  0  0  0  0  0  0
  130.9100  131.2710   60.9790 C   0  0  1  0  0  0  0  0  0  0  0  0
  132.4480  131.2760   60.9940 C   0  0  0  0  0  0  0  0  0  0  0  0
  130.2850  132.3510   61.8930 C   0  0  2  0  0  0  0  0  0  0  0  0
  130.6860  132.2440   63.2470 O   0  0  0  0  0  0  0  0  0  0  0  0
  128.6907  131.0184   64.3531 H   0  0  0  0  0  0  0  0  0  0  0  0
  127.3578  132.1203   63.8675 H   0  0  0  0  0  0  0  0  0  0  0  0
  127.0987  130.3428   63.8675 H   0  0  0  0  0  0  0  0  0  0  0  0
  128.2735  133.1193   62.3257 H   0  0  0  0  0  0  0  0  0  0  0  0
  127.3010  132.3349   60.1596 H   0  0  0  0  0  0  0  0  0  0  0  0
  128.7034  133.4703   59.9566 H   0  0  0  0  0  0  0  0  0  0  0  0
  128.9593  131.6866   58.3258 H   0  0  0  0  0  0  0  0  0  0  0  0
  130.4823  129.5325   59.8071 H   0  0  0  0  0  0  0  0  0  0  0  0
  130.2543  127.9343   61.5981 H   0  0  0  0  0  0  0  0  0  0  0  0
  129.4935  129.5116   62.0788 H   0  0  0  0  0  0  0  0  0  0  0  0
  128.1444  127.5399   62.7837 H   0  0  0  0  0  0  0  0  0  0  0  0
  127.2892  128.6418   61.5930 H   0  0  0  0  0  0  0  0  0  0  0  0
  125.6569  126.8553   61.6919 H   0  0  0  0  0  0  0  0  0  0  0  0
  129.7682  125.9233   60.8646 H   0  0  0  0  0  0  0  0  0  0  0  0
  128.9386  125.6609   63.1812 H   0  0  0  0  0  0  0  0  0  0  0  0
  127.7624  124.4035   62.6106 H   0  0  0  0  0  0  0  0  0  0  0  0
  130.8055  124.2139   62.4687 H   0  0  0  0  0  0  0  0  0  0  0  0
  129.7003  123.3659   63.6493 H   0  0  0  0  0  0  0  0  0  0  0  0
  128.3063  121.7218   63.1532 H   0  0  0  0  0  0  0  0  0  0  0  0
  127.4780  122.2606   61.6531 H   0  0  0  0  0  0  0  0  0  0  0  0
  128.4383  120.7425   61.6531 H   0  0  0  0  0  0  0  0  0  0  0  0
  131.3447  121.6241   62.6785 H   0  0  0  0  0  0  0  0  0  0  0  0
  129.1284  119.4590   62.3536 H   0  0  0  0  0  0  0  0  0  0  0  0
  132.7599  119.6315   60.5408 H   0  0  0  0  0  0  0  0  0  0  0  0
  131.6787  120.1482   59.2484 H   0  0  0  0  0  0  0  0  0  0  0  0
  132.6131  123.1173   61.3216 H   0  0  0  0  0  0  0  0  0  0  0  0
  132.5300  121.8061   60.1172 H   0  0  0  0  0  0  0  0  0  0  0  0
  131.3087  124.4572   60.0021 H   0  0  0  0  0  0  0  0  0  0  0  0
  131.2694  123.1904   58.7552 H   0  0  0  0  0  0  0  0  0  0  0  0
  128.8540  121.3370   59.8290 H   0  0  0  0  0  0  0  0  0  0  0  0
  127.5831  123.8850   60.1300 H   0  0  0  0  0  0  0  0  0  0  0  0
  129.6780  125.2808   58.3610 H   0  0  0  0  0  0  0  0  0  0  0  0
  128.4187  124.0767   57.8300 H   0  0  0  0  0  0  0  0  0  0  0  0
  127.8001  126.4163   57.2679 H   0  0  0  0  0  0  0  0  0  0  0  0
  126.6447  125.6115   58.4183 H   0  0  0  0  0  0  0  0  0  0  0  0
  127.0910  129.0040   59.2460 H   0  0  0  0  0  0  0  0  0  0  0  0
  129.9964  127.1885   59.1509 H   0  0  0  0  0  0  0  0  0  0  0  0
  129.1238  128.3280   58.0066 H   0  0  0  0  0  0  0  0  0  0  0  0
  130.5531  130.3107   61.3795 H   0  0  0  0  0  0  0  0  0  0  0  0
  132.8045  131.2772   62.0346 H   0  0  0  0  0  0  0  0  0  0  0  0
  132.8226  130.3791   60.4791 H   0  0  0  0  0  0  0  0  0  0  0  0
  132.8168  132.1753   60.4791 H   0  0  0  0  0  0  0  0  0  0  0  0
  130.6592  133.3269   61.5499 H   0  0  0  0  0  0  0  0  0  0  0  0
  130.5320  131.3420   63.5370 H   0  0  0  0  0  0  0  0  0  0  0  0
  1  2  1  0
  2  3  1  0
  3  4  1  0
  4  5  1  0
  5  6  1  0
  6  7  1  0
  7  8  1  0
  8  9  1  0
  9 10  1  0
 10 11  1  1
 11 12  2  0
 10 13  1  0
 13 14  1  0
 14 15  1  0
 15 16  1  0
 16 17  1  1
 16 18  1  0
 18 19  1  0
 19 20  2  0
 20 21  1  0
 21 22  2  0
 21 23  1  0
 23 24  1  0
 18 25  1  0
 25 26  1  0
 26 27  1  0
 27 28  1  6
 27 29  1  0
 29 30  1  0
 30 31  1  0
 31 32  1  0
 32 33  1  1
 32 34  1  0
  5 35  1  0
 35 36  1  0
 36 37  1  0
 36 38  1  0
 38 39  1  0
 38  3  1  0
 34  7  1  0
 32 10  1  0
 29 13  1  0
 27 16  1  0
 24 19  1  0
  1 40  1  0
  1 41  1  0
  1 42  1  0
  3 43  1  1
  4 44  1  0
  4 45  1  0
  5 46  1  6
  7 47  1  6
  8 48  1  0
  8 49  1  0
  9 50  1  0
  9 51  1  0
 11 52  1  0
 13 53  1  6
 14 54  1  0
 14 55  1  0
 15 56  1  0
 15 57  1  0
 17 58  1  0
 17 59  1  0
 17 60  1  0
 18 61  1  1
 20 62  1  0
 24 63  1  0
 24 64  1  0
 25 65  1  0
 25 66  1  0
 26 67  1  0
 26 68  1  0
 28 69  1  0
 29 70  1  1
 30 71  1  0
 30 72  1  0
 31 73  1  0
 31 74  1  0
 33 75  1  0
 34 76  1  0
 34 77  1  0
 36 78  1  1
 37 79  1  0
 37 80  1  0
 37 81  1  0
 38 82  1  6
 39 83  1  0
M  END
>  <Binding energies>  (1) 
[-6.18]

>  <Ligand effiencies>  (1) 
[-0.14714285714285713]

>  <Interactions>  (1) 
["V-B:PRO:540:CA:9855, H-A:ALA:541:N:4891, V-A:PRO:540:C:4881, V-B:ALA:541:CB:9864, V-B:ASP:366:CG:8184, V-B:TYR:539:CE2:9848, V-B:GLU:543:CG:9879, V-B:TYR:539:C:9839, V-B:TYR:539:CZ:9849, V-A:ALA:541:CB:4892, V-B:TYR:539:CD2:9846, H-A:SER:385:OG:3410, V-B:GLU:543:CD:9880, H-B:TYR:531:OH:9767, V-A:LEU:475:CD2:4259, H-A:GLU:543:OE1:4909, H-A:HIS:383:HE2:3395, V-A:PRO:540:CB:4885, V-A:PRO:540:CA:4883, H-B:TYR:539:O:9840, V-B:PRO:540:C:9853, V-B:ALA:541:CA:9862, V-A:HIS:383:NE2:3394"]

$$$$
ZINC745255159
     RDKit          3D

 42 41  0  0  0  0  0  0  0  0999 V2000
  128.4060  128.8240   67.6700 C   0  0  0  0  0  0  0  0  0  0  0  0
  128.3200  127.3500   67.2520 C   0  0  0  0  0  0  0  0  0  0  0  0
  129.1720  126.4240   68.1380 C   0  0  0  0  0  0  0  0  0  0  0  0
  130.5520  126.1150   67.5310 C   0  0  0  0  0  0  0  0  0  0  0  0
  130.4950  125.0540   66.4180 C   0  0  0  0  0  0  0  0  0  0  0  0
  131.2900  125.4610   65.1610 C   0  0  0  0  0  0  0  0  0  0  0  0
  131.6880  124.2750   64.2440 C   0  0  2  0  0  0  0  0  0  0  0  0
  130.9740  122.9580   64.6320 C   0  0  0  0  0  0  0  0  0  0  0  0
  133.2200  124.1150   64.2100 C   0  0  0  0  0  0  0  0  0  0  0  0
  133.9800  124.8920   64.7930 O   0  0  0  0  0  0  0  0  0  0  0  0
  133.6030  123.0350   63.4760 O   0  0  0  0  0  0  0  0  0  0  0  0
  133.4280  122.9530   62.0510 C   0  0  2  0  0  0  0  0  0  0  0  0
  133.8540  121.5300   61.6150 C   0  0  0  0  0  0  0  0  0  0  0  0
  132.9180  120.8930   60.5740 C   0  0  0  0  0  0  0  0  0  0  0  0
  134.2860  124.0110   61.3140 C   0  0  0  0  0  0  0  0  0  0  0  0
  135.1370  124.7260   62.0540 N   0  0  0  0  0  0  0  0  0  0  0  0
  134.2150  124.1570   60.0940 O   0  0  0  0  0  0  0  0  0  0  0  0
  128.4101  128.8942   68.7678 H   0  0  0  0  0  0  0  0  0  0  0  0
  129.3314  129.2649   67.2709 H   0  0  0  0  0  0  0  0  0  0  0  0
  127.5382  129.3695   67.2709 H   0  0  0  0  0  0  0  0  0  0  0  0
  127.2701  127.0280   67.3159 H   0  0  0  0  0  0  0  0  0  0  0  0
  128.7102  127.2751   66.2263 H   0  0  0  0  0  0  0  0  0  0  0  0
  129.3190  126.9100   69.1138 H   0  0  0  0  0  0  0  0  0  0  0  0
  128.6324  125.4701   68.2320 H   0  0  0  0  0  0  0  0  0  0  0  0
  130.9655  127.0432   67.1097 H   0  0  0  0  0  0  0  0  0  0  0  0
  131.1836  125.7130   68.3369 H   0  0  0  0  0  0  0  0  0  0  0  0
  130.9116  124.1135   66.8077 H   0  0  0  0  0  0  0  0  0  0  0  0
  129.4417  124.9426   66.1212 H   0  0  0  0  0  0  0  0  0  0  0  0
  130.6734  126.1579   64.5744 H   0  0  0  0  0  0  0  0  0  0  0  0
  132.2281  125.9132   65.5151 H   0  0  0  0  0  0  0  0  0  0  0  0
  131.3448  124.5113   63.2260 H   0  0  0  0  0  0  0  0  0  0  0  0
  130.9288  122.8745   65.7279 H   0  0  0  0  0  0  0  0  0  0  0  0
  129.9533  122.9597   64.2219 H   0  0  0  0  0  0  0  0  0  0  0  0
  131.5324  122.1036   64.2219 H   0  0  0  0  0  0  0  0  0  0  0  0
  132.3771  123.1509   61.7930 H   0  0  0  0  0  0  0  0  0  0  0  0
  134.8643  121.5874   61.1838 H   0  0  0  0  0  0  0  0  0  0  0  0
  133.8144  120.8949   62.5123 H   0  0  0  0  0  0  0  0  0  0  0  0
  132.1146  120.3462   61.0893 H   0  0  0  0  0  0  0  0  0  0  0  0
  132.4797  121.6811   59.9441 H   0  0  0  0  0  0  0  0  0  0  0  0
  133.4903  120.1961   59.9441 H   0  0  0  0  0  0  0  0  0  0  0  0
  135.1990  124.5780   63.0510 H   0  0  0  0  0  0  0  0  0  0  0  0
  135.7310  125.4150   61.6160 H   0  0  0  0  0  0  0  0  0  0  0  0
  1  2  1  0
  2  3  1  0
  3  4  1  0
  4  5  1  0
  5  6  1  0
  6  7  1  0
  7  8  1  0
  7  9  1  0
  9 10  2  0
  9 11  1  0
 11 12  1  0
 12 13  1  0
 13 14  1  0
 12 15  1  0
 15 16  1  0
 15 17  2  0
  1 18  1  0
  1 19  1  0
  1 20  1  0
  2 21  1  0
  2 22  1  0
  3 23  1  0
  3 24  1  0
  4 25  1  0
  4 26  1  0
  5 27  1  0
  5 28  1  0
  6 29  1  0
  6 30  1  0
  7 31  1  6
  8 32  1  0
  8 33  1  0
  8 34  1  0
 12 35  1  1
 13 36  1  0
 13 37  1  0
 14 38  1  0
 14 39  1  0
 14 40  1  0
 16 41  1  0
 16 42  1  0
M  END
>  <Binding energies>  (1) 
[-4.49]

>  <Ligand effiencies>  (1) 
[-0.23631578947368423]

>  <Interactions>  (1) 
["V-A:ILE:369:CG2:3237, V-A:GLY:454:CA:4049, V-B:GLU:543:CB:9878, H-A:ARG:545:NH1:4927, V-A:TYR:484:CE2:4346, V-B:TYR:539:CE2:9848, V-B:GLU:543:CG:9879, V-A:ASP:366:CG:3213, V-A:GLU:543:CD:4908, V-A:TYR:484:CZ:4347, V-B:HIS:456:CE1:9041, H-A:GLY:454:N:4050, V-A:SER:385:C:3405, V-A:GLY:453:C:4042, V-A:HIS:456:CE1:4070, V-A:ILE:369:CD1:3239, V-B:TYR:539:CD2:9846, V-A:GLU:543:CG:4907, V-A:SER:385:CB:3409, V-B:GLU:543:CD:9880, V-A:LEU:475:CD2:4259, H-A:ARG:545:NH2:4928, V-A:ARG:545:CZ:4926, V-A:GLU:543:CB:4906, H-A:ASP:366:OD1:3214, V-A:GLY:453:CA:4044, H-A:ARG:545:NE:4924, H-A:TYR:484:OH:4348"]

$$$$
ZINC745485009
     RDKit          3D

 62 64  0  0  0  0  0  0  0  0999 V2000
  134.3500  124.3590   61.5330 C   0  0  0  0  0  0  0  0  0  0  0  0
  133.2940  123.3590   61.7250 N   0  0  0  0  0  0  0  0  0  0  0  0
  133.2320  122.8100   63.0960 C   0  0  0  0  0  0  0  0  0  0  0  0
  132.2650  123.5170   64.0370 C   0  0  0  0  0  0  0  0  0  0  0  0
  132.5840  124.7800   64.5320 C   0  0  0  0  0  0  0  0  0  0  0  0
  131.6990  125.4470   65.3730 C   0  0  0  0  0  0  0  0  0  0  0  0
  130.4790  124.8610   65.7560 C   0  0  0  0  0  0  0  0  0  0  0  0
  129.5690  125.5500   66.6080 N   0  0  0  0  0  0  0  0  0  0  0  0
  129.0790  126.8760   66.2310 C   0  0  0  0  0  0  0  0  0  0  0  0
  129.5230  125.2250   68.0340 C   0  0  0  0  0  0  0  0  0  0  0  0
  130.1960  123.5680   65.2800 C   0  0  0  0  0  0  0  0  0  0  0  0
  131.0790  122.9020   64.4360 C   0  0  0  0  0  0  0  0  0  0  0  0
  132.5110  122.9720   60.6760 C   0  0  0  0  0  0  0  0  0  0  0  0
  132.5430  123.4980   59.5620 O   0  0  0  0  0  0  0  0  0  0  0  0
  131.6170  121.8670   60.8810 C   0  0  0  0  0  0  0  0  0  0  0  0
  132.1750  120.2570   60.5320 S   0  0  0  0  0  0  0  0  0  0  0  0
  130.6210  119.6070   60.9340 C   0  0  0  0  0  0  0  0  0  0  0  0
  129.7250  120.5950   61.3150 C   0  0  0  0  0  0  0  0  0  0  0  0
  130.2740  121.8860   61.2800 C   0  0  0  0  0  0  0  0  0  0  0  0
  129.3330  123.3660   61.7630 S   0  0  0  0  0  0  0  0  0  0  0  0
  128.3900  122.9870   62.8200 O   0  0  0  0  0  0  0  0  0  0  0  0
  130.3080  124.4470   61.9540 O   0  0  0  0  0  0  0  0  0  0  0  0
  128.4470  123.6390   60.2550 N   0  0  0  0  0  0  0  0  0  0  0  0
  127.9600  122.4880   59.4500 C   0  0  0  0  0  0  0  0  0  0  0  0
  127.9870  122.8070   57.9360 C   0  0  0  0  0  0  0  0  0  0  0  0
  127.3960  124.1950   57.5900 C   0  0  0  0  0  0  0  0  0  0  0  0
  128.0020  125.2990   58.4840 C   0  0  0  0  0  0  0  0  0  0  0  0
  127.8410  124.9700   59.9860 C   0  0  1  0  0  0  0  0  0  0  0  0
  126.3820  124.9730   60.5210 C   0  0  0  0  0  0  0  0  0  0  0  0
  125.7880  123.5780   60.7920 C   0  0  0  0  0  0  0  0  0  0  0  0
  125.9800  123.1920   62.1380 O   0  0  0  0  0  0  0  0  0  0  0  0
  134.7125  124.7023   62.5132 H   0  0  0  0  0  0  0  0  0  0  0  0
  135.1822  123.9101   60.9709 H   0  0  0  0  0  0  0  0  0  0  0  0
  133.9471  125.2144   60.9709 H   0  0  0  0  0  0  0  0  0  0  0  0
  132.9282  121.7551   63.0263 H   0  0  0  0  0  0  0  0  0  0  0  0
  134.2342  122.9524   63.5264 H   0  0  0  0  0  0  0  0  0  0  0  0
  133.5391  125.2513   64.2568 H   0  0  0  0  0  0  0  0  0  0  0  0
  131.9577  126.4495   65.7447 H   0  0  0  0  0  0  0  0  0  0  0  0
  128.8636  127.4590   67.1386 H   0  0  0  0  0  0  0  0  0  0  0  0
  129.8450  127.3943   65.6355 H   0  0  0  0  0  0  0  0  0  0  0  0
  128.1600  126.7717   65.6355 H   0  0  0  0  0  0  0  0  0  0  0  0
  129.6531  126.1443   68.6240 H   0  0  0  0  0  0  0  0  0  0  0  0
  128.5514  124.7691   68.2750 H   0  0  0  0  0  0  0  0  0  0  0  0
  130.3299  124.5174   68.2750 H   0  0  0  0  0  0  0  0  0  0  0  0
  129.2599  123.0746   65.5804 H   0  0  0  0  0  0  0  0  0  0  0  0
  130.8409  121.8879   64.0827 H   0  0  0  0  0  0  0  0  0  0  0  0
  130.3734  118.5360   60.8921 H   0  0  0  0  0  0  0  0  0  0  0  0
  128.6872  120.3872   61.6148 H   0  0  0  0  0  0  0  0  0  0  0  0
  128.6039  121.6175   59.6440 H   0  0  0  0  0  0  0  0  0  0  0  0
  126.9204  122.2768   59.7411 H   0  0  0  0  0  0  0  0  0  0  0  0
  129.0313  122.7770   57.5918 H   0  0  0  0  0  0  0  0  0  0  0  0
  127.3622  122.0536   57.4340 H   0  0  0  0  0  0  0  0  0  0  0  0
  127.6148  124.4257   56.5370 H   0  0  0  0  0  0  0  0  0  0  0  0
  126.3101  124.1640   57.7628 H   0  0  0  0  0  0  0  0  0  0  0  0
  129.0730  125.3969   58.2532 H   0  0  0  0  0  0  0  0  0  0  0  0
  127.4675  126.2384   58.2792 H   0  0  0  0  0  0  0  0  0  0  0  0
  128.3523  125.7843   60.5202 H   0  0  0  0  0  0  0  0  0  0  0  0
  126.3646  125.5407   61.4630 H   0  0  0  0  0  0  0  0  0  0  0  0
  125.7642  125.4231   59.7300 H   0  0  0  0  0  0  0  0  0  0  0  0
  124.7097  123.5992   60.5754 H   0  0  0  0  0  0  0  0  0  0  0  0
  126.3000  122.8504   60.1452 H   0  0  0  0  0  0  0  0  0  0  0  0
  126.4400  123.8990   62.5970 H   0  0  0  0  0  0  0  0  0  0  0  0
  1  2  1  0
  2  3  1  0
  3  4  1  0
  4  5  2  0
  5  6  1  0
  6  7  2  0
  7  8  1  0
  8  9  1  0
  8 10  1  0
  7 11  1  0
 11 12  2  0
  2 13  1  0
 13 14  2  0
 13 15  1  0
 15 16  1  0
 16 17  1  0
 17 18  2  0
 18 19  1  0
 19 20  1  0
 20 21  2  0
 20 22  2  0
 20 23  1  0
 23 24  1  0
 24 25  1  0
 25 26  1  0
 26 27  1  0
 27 28  1  0
 28 29  1  0
 29 30  1  0
 30 31  1  0
 12  4  1  0
 19 15  2  0
 28 23  1  0
  1 32  1  0
  1 33  1  0
  1 34  1  0
  3 35  1  0
  3 36  1  0
  5 37  1  0
  6 38  1  0
  9 39  1  0
  9 40  1  0
  9 41  1  0
 10 42  1  0
 10 43  1  0
 10 44  1  0
 11 45  1  0
 12 46  1  0
 17 47  1  0
 18 48  1  0
 24 49  1  0
 24 50  1  0
 25 51  1  0
 25 52  1  0
 26 53  1  0
 26 54  1  0
 27 55  1  0
 27 56  1  0
 28 57  1  1
 29 58  1  0
 29 59  1  0
 30 60  1  0
 30 61  1  0
 31 62  1  0
M  END
>  <Binding energies>  (1) 
[-7.48]

>  <Ligand effiencies>  (1) 
[-0.23375]

>  <Interactions>  (1) 
["V-B:PRO:540:CA:9855, V-A:GLY:454:CA:4049, V-B:GLU:543:C:9874, V-B:GLU:543:CB:9878, V-B:ALA:541:CB:9864, V-B:TYR:539:CE2:9848, V-A:TYR:484:CE2:4346, V-B:GLU:543:CG:9879, V-B:TYR:539:C:9839, V-A:ASP:366:CG:3213, V-B:TYR:539:CZ:9849, H-B:GLU:543:OE1:9881, H-B:ALA:541:N:9863, V-A:GLU:543:CD:4908, V-A:TYR:484:CZ:4347, V-B:PRO:540:CB:9857, V-B:GLU:543:CA:9876, V-B:PRO:540:N:9856, V-A:ILE:369:CD1:3239, V-A:HIS:456:CE1:4070, V-B:TYR:539:CD2:9846, V-A:SER:385:CB:3409, V-B:GLU:543:CD:9880, V-A:LEU:475:CD2:4259, V-A:ARG:545:CZ:4926, V-B:TYR:539:CG:9844, V-B:TYR:539:CE1:9847"]

$$$$
ZINC75717306
     RDKit          3D

 47 48  0  0  0  0  0  0  0  0999 V2000
  127.3160  122.4850   56.6400 C   0  0  0  0  0  0  0  0  0  0  0  0
  126.9080  122.9020   58.0630 C   0  0  0  0  0  0  0  0  0  0  0  0
  128.0660  122.8880   59.0940 C   0  0  1  0  0  0  0  0  0  0  0  0
  129.0960  124.0140   58.8330 C   0  0  0  0  0  0  0  0  0  0  0  0
  127.5500  122.8460   60.5760 C   0  0  2  0  0  0  0  0  0  0  0  0
  126.6990  124.1030   60.9130 C   0  0  0  0  0  0  0  0  0  0  0  0
  128.6780  122.6230   61.5160 N   0  0  0  0  0  0  0  0  0  0  0  0
  129.2470  121.2660   61.3980 C   0  0  0  0  0  0  0  0  0  0  0  0
  130.7560  121.2870   61.2300 C   0  0  0  0  0  0  0  0  0  0  0  0
  131.5860  120.2420   60.8370 C   0  0  0  0  0  0  0  0  0  0  0  0
  133.2290  120.8010   60.7750 S   0  0  0  0  0  0  0  0  0  0  0  0
  132.6730  122.3660   61.2820 C   0  0  0  0  0  0  0  0  0  0  0  0
  133.5700  123.5660   61.4700 C   0  0  0  0  0  0  0  0  0  0  0  0
  133.5120  124.2960   63.2100 S   0  0  0  0  0  0  0  0  0  0  0  0
  132.0330  125.4620   63.1600 C   0  0  0  0  0  0  0  0  0  0  0  0
  133.2050  123.2090   64.1470 O   0  0  0  0  0  0  0  0  0  0  0  0
  134.7220  125.1010   63.4060 O   0  0  0  0  0  0  0  0  0  0  0  0
  131.3770  122.4310   61.4580 N   0  0  0  0  0  0  0  0  0  0  0  0
  128.3970  122.9000   62.9280 C   0  0  0  0  0  0  0  0  0  0  0  0
  129.4130  122.4720   63.9640 C   0  0  0  0  0  0  0  0  0  0  0  0
  129.2450  123.9340   63.6360 C   0  0  0  0  0  0  0  0  0  0  0  0
  128.0844  121.6997   56.6941 H   0  0  0  0  0  0  0  0  0  0  0  0
  126.4358  122.1004   56.1040 H   0  0  0  0  0  0  0  0  0  0  0  0
  127.7197  123.3566   56.1040 H   0  0  0  0  0  0  0  0  0  0  0  0
  126.5001  123.9226   58.0183 H   0  0  0  0  0  0  0  0  0  0  0  0
  126.1730  122.1598   58.4079 H   0  0  0  0  0  0  0  0  0  0  0  0
  128.6116  121.9443   58.9470 H   0  0  0  0  0  0  0  0  0  0  0  0
  129.4579  124.4097   59.7934 H   0  0  0  0  0  0  0  0  0  0  0  0
  129.9436  123.6100   58.2601 H   0  0  0  0  0  0  0  0  0  0  0  0
  128.6182  124.8224   58.2601 H   0  0  0  0  0  0  0  0  0  0  0  0
  126.8722  121.9877   60.6943 H   0  0  0  0  0  0  0  0  0  0  0  0
  126.6243  124.2133   62.0049 H   0  0  0  0  0  0  0  0  0  0  0  0
  127.1791  124.9960   60.4862 H   0  0  0  0  0  0  0  0  0  0  0  0
  125.6916  123.9890   60.4862 H   0  0  0  0  0  0  0  0  0  0  0  0
  129.0001  120.6985   62.3074 H   0  0  0  0  0  0  0  0  0  0  0  0
  128.8149  120.7964   60.5020 H   0  0  0  0  0  0  0  0  0  0  0  0
  131.2532  119.2202   60.6020 H   0  0  0  0  0  0  0  0  0  0  0  0
  134.6052  123.2620   61.2558 H   0  0  0  0  0  0  0  0  0  0  0  0
  133.2094  124.3460   60.7833 H   0  0  0  0  0  0  0  0  0  0  0  0
  131.7235  125.7060   64.1870 H   0  0  0  0  0  0  0  0  0  0  0  0
  132.3120  126.3857   62.6319 H   0  0  0  0  0  0  0  0  0  0  0  0
  131.1999  124.9751   62.6319 H   0  0  0  0  0  0  0  0  0  0  0  0
  127.3183  122.7397   62.7843 H   0  0  0  0  0  0  0  0  0  0  0  0
  129.0762  122.0847   64.9369 H   0  0  0  0  0  0  0  0  0  0  0  0
  130.2607  121.7711   63.9779 H   0  0  0  0  0  0  0  0  0  0  0  0
  128.7857  124.6127   64.3697 H   0  0  0  0  0  0  0  0  0  0  0  0
  129.9194  124.7403   63.3117 H   0  0  0  0  0  0  0  0  0  0  0  0
  1  2  1  0
  2  3  1  0
  3  4  1  0
  3  5  1  0
  5  6  1  0
  5  7  1  0
  7  8  1  0
  8  9  1  0
  9 10  2  0
 10 11  1  0
 11 12  1  0
 12 13  1  0
 13 14  1  0
 14 15  1  0
 14 16  2  0
 14 17  2  0
 12 18  2  0
  7 19  1  0
 19 20  1  0
 20 21  1  0
 18  9  1  0
 21 19  1  0
  1 22  1  0
  1 23  1  0
  1 24  1  0
  2 25  1  0
  2 26  1  0
  3 27  1  6
  4 28  1  0
  4 29  1  0
  4 30  1  0
  5 31  1  6
  6 32  1  0
  6 33  1  0
  6 34  1  0
  8 35  1  0
  8 36  1  0
 10 37  1  0
 13 38  1  0
 13 39  1  0
 15 40  1  0
 15 41  1  0
 15 42  1  0
 19 43  1  0
 20 44  1  0
 20 45  1  0
 21 46  1  0
 21 47  1  0
M  END
>  <Binding energies>  (1) 
[-6.07]

>  <Ligand effiencies>  (1) 
[-0.28904761904761905]

>  <Interactions>  (1) 
["V-A:ILE:369:CG2:3237, V-B:PRO:540:CA:9855, V-B:ALA:541:CB:9864, H-A:ARG:545:NH1:4927, V-B:TYR:539:CE2:9848, V-B:GLU:543:CG:9879, V-B:TYR:539:C:9839, V-B:TYR:539:CZ:9849, V-B:PRO:540:CB:9857, H-A:GLY:454:N:4050, V-B:PRO:540:N:9856, V-A:ILE:369:CD1:3239, V-B:TYR:539:CD2:9846, V-A:SER:385:CB:3409, V-B:GLU:543:CD:9880, V-A:LEU:475:CD2:4259, H-A:ARG:545:NH2:4928, V-A:ARG:545:CZ:4926, V-B:TYR:539:CG:9844, V-B:TYR:539:CD1:9845, H-A:ARG:545:NE:4924, V-A:SER:385:CA:3407, V-B:PRO:540:C:9853, V-B:TYR:539:CE1:9847, H-A:TYR:484:OH:4348"]

$$$$
ZINC762260399
     RDKit          3D

 41 42  0  0  0  0  0  0  0  0999 V2000
  127.8270  128.7090   66.9250 C   0  0  0  0  0  0  0  0  0  0  0  0
  127.3690  127.7150   68.0050 C   0  0  0  0  0  0  0  0  0  0  0  0
  128.5140  126.9370   68.7240 C   0  0  0  0  0  0  0  0  0  0  0  0
  128.7090  127.4070   70.1950 C   0  0  0  0  0  0  0  0  0  0  0  0
  127.6160  126.9630   71.1820 C   0  0  0  0  0  0  0  0  0  0  0  0
  129.8500  126.9190   67.8950 C   0  0  1  0  0  0  0  0  0  0  0  0
  131.0880  127.3820   68.7010 C   0  0  0  0  0  0  0  0  0  0  0  0
  130.1580  125.5370   67.2770 C   0  0  0  0  0  0  0  0  0  0  0  0
  129.8630  124.5100   67.8940 O   0  0  0  0  0  0  0  0  0  0  0  0
  130.7630  125.5410   66.0700 N   0  0  0  0  0  0  0  0  0  0  0  0
  131.2870  124.3620   65.4990 N   0  0  0  0  0  0  0  0  0  0  0  0
  131.3400  124.1400   64.1110 C   0  0  0  0  0  0  0  0  0  0  0  0
  130.2260  123.6860   63.4710 N   0  0  0  0  0  0  0  0  0  0  0  0
  130.2740  123.4400   62.1380 C   0  0  0  0  0  0  0  0  0  0  0  0
  128.6980  122.8360   61.2600 Br  0  0  0  0  0  0  0  0  0  0  0  0
  131.4390  123.6130   61.3940 C   0  0  0  0  0  0  0  0  0  0  0  0
  132.5620  124.0450   62.0480 N   0  0  0  0  0  0  0  0  0  0  0  0
  133.8380  124.3010   61.6190 C   0  0  0  0  0  0  0  0  0  0  0  0
  134.5320  124.7100   62.7550 C   0  0  0  0  0  0  0  0  0  0  0  0
  133.7920  124.7290   63.8440 N   0  0  0  0  0  0  0  0  0  0  0  0
  132.5620  124.3210   63.4270 C   0  0  0  0  0  0  0  0  0  0  0  0
  128.2411  129.6076   67.4056 H   0  0  0  0  0  0  0  0  0  0  0  0
  128.5995  128.2394   66.2984 H   0  0  0  0  0  0  0  0  0  0  0  0
  126.9681  128.9911   66.2984 H   0  0  0  0  0  0  0  0  0  0  0  0
  126.8085  128.2760   68.7674 H   0  0  0  0  0  0  0  0  0  0  0  0
  126.7664  126.9564   67.4841 H   0  0  0  0  0  0  0  0  0  0  0  0
  128.1933  125.8864   68.7814 H   0  0  0  0  0  0  0  0  0  0  0  0
  129.6705  127.0103   70.5530 H   0  0  0  0  0  0  0  0  0  0  0  0
  128.6649  128.5058   70.1695 H   0  0  0  0  0  0  0  0  0  0  0  0
  127.9720  127.1076   72.2127 H   0  0  0  0  0  0  0  0  0  0  0  0
  126.7092  127.5640   71.0196 H   0  0  0  0  0  0  0  0  0  0  0  0
  127.3852  125.8998   71.0196 H   0  0  0  0  0  0  0  0  0  0  0  0
  129.6643  127.6450   67.0897 H   0  0  0  0  0  0  0  0  0  0  0  0
  130.8755  127.3025   69.7773 H   0  0  0  0  0  0  0  0  0  0  0  0
  131.9487  126.7450   68.4492 H   0  0  0  0  0  0  0  0  0  0  0  0
  131.3195  128.4275   68.4492 H   0  0  0  0  0  0  0  0  0  0  0  0
  131.0430  126.3850   65.5900 H   0  0  0  0  0  0  0  0  0  0  0  0
  132.0270  123.9890   66.0760 H   0  0  0  0  0  0  0  0  0  0  0  0
  131.4564  123.4087   60.3133 H   0  0  0  0  0  0  0  0  0  0  0  0
  134.2303  124.2041   60.5959 H   0  0  0  0  0  0  0  0  0  0  0  0
  135.5957  124.9901   62.7437 H   0  0  0  0  0  0  0  0  0  0  0  0
  1  2  1  0
  2  3  1  0
  3  4  1  0
  4  5  1  0
  3  6  1  0
  6  7  1  0
  6  8  1  0
  8  9  2  0
  8 10  1  0
 10 11  1  0
 11 12  1  0
 12 13  2  0
 13 14  1  0
 14 15  1  0
 14 16  2  0
 16 17  1  0
 17 18  1  0
 18 19  2  0
 19 20  1  0
 20 21  2  0
 21 12  1  0
 21 17  1  0
  1 22  1  0
  1 23  1  0
  1 24  1  0
  2 25  1  0
  2 26  1  0
  3 27  1  0
  4 28  1  0
  4 29  1  0
  5 30  1  0
  5 31  1  0
  5 32  1  0
  6 33  1  6
  7 34  1  0
  7 35  1  0
  7 36  1  0
 10 37  1  0
 11 38  1  0
 16 39  1  0
 18 40  1  0
 19 41  1  0
M  END
>  <Binding energies>  (1) 
[-6.62]

>  <Ligand effiencies>  (1) 
[-0.28782608695652173]

>  <Interactions>  (1) 
["V-B:GLU:543:C:9874, H-A:GLU:543:OE2:4910, V-B:HIS:456:CD2:9039, V-B:GLU:543:CB:9878, V-A:TYR:484:CE2:4346, V-B:GLU:543:CG:9879, V-A:ASP:366:CG:3213, V-A:GLU:543:CD:4908, V-A:TYR:484:CZ:4347, V-B:HIS:456:CE1:9041, V-A:ARG:545:CG:4922, H-A:GLY:454:N:4050, V-A:GLY:453:C:4042, V-A:HIS:456:CE1:4070, V-A:ILE:369:CD1:3239, V-B:GLY:544:C:9884, V-B:GLU:543:CD:9880, H-A:ARG:545:NH2:4928, V-A:ARG:545:CZ:4926, H-A:GLU:543:OE1:4909, V-A:GLU:543:CB:4906, V-A:GLY:453:CA:4044, H-A:TYR:484:OH:4348"]

$$$$
ZINC762912556
     RDKit          3D

 33 33  0  0  0  0  0  0  0  0999 V2000
  132.4690  125.7620   58.4720 C   0  0  0  0  0  0  0  0  0  0  0  0
  133.4450  124.5930   58.5340 C   0  0  0  0  0  0  0  0  0  0  0  0
  133.7350  123.9600   57.5190 O   0  0  0  0  0  0  0  0  0  0  0  0
  134.0310  124.2600   59.9130 C   0  0  0  0  0  0  0  0  0  0  0  0
  132.9920  123.8110   60.9630 C   0  0  0  0  0  0  0  0  0  0  0  0
  133.5290  122.6930   61.8750 C   0  0  0  0  0  0  0  0  0  0  0  0
  133.2160  122.9090   63.3650 C   0  0  0  0  0  0  0  0  0  0  0  0
  133.6890  124.1810   63.7910 O   0  0  0  0  0  0  0  0  0  0  0  0
  133.2760  124.7130   64.9610 C   0  0  0  0  0  0  0  0  0  0  0  0
  134.0100  125.0990   65.8750 O   0  0  0  0  0  0  0  0  0  0  0  0
  131.7450  124.7550   65.0680 C   0  0  1  0  0  0  0  0  0  0  0  0
  131.1680  125.4130   66.3310 C   0  0  0  0  0  0  0  0  0  0  0  0
  129.6960  125.6970   66.0060 C   0  0  0  0  0  0  0  0  0  0  0  0
  129.6390  126.3240   64.6040 C   0  0  0  0  0  0  0  0  0  0  0  0
  131.1280  125.7890   63.7180 S   0  0  0  0  0  0  0  0  0  0  0  0
  132.2072  126.0756   59.4933 H   0  0  0  0  0  0  0  0  0  0  0  0
  132.9372  126.6027   57.9390 H   0  0  0  0  0  0  0  0  0  0  0  0
  131.5583  125.4514   57.9390 H   0  0  0  0  0  0  0  0  0  0  0  0
  134.7638  123.4493   59.7874 H   0  0  0  0  0  0  0  0  0  0  0  0
  134.4768  125.1904   60.2945 H   0  0  0  0  0  0  0  0  0  0  0  0
  132.7217  124.6765   61.5859 H   0  0  0  0  0  0  0  0  0  0  0  0
  132.1183  123.4154   60.4243 H   0  0  0  0  0  0  0  0  0  0  0  0
  133.0780  121.7405   61.5596 H   0  0  0  0  0  0  0  0  0  0  0  0
  134.6242  122.6921   61.7728 H   0  0  0  0  0  0  0  0  0  0  0  0
  132.1280  122.8568   63.5182 H   0  0  0  0  0  0  0  0  0  0  0  0
  133.7180  122.1262   63.9525 H   0  0  0  0  0  0  0  0  0  0  0  0
  131.4400  123.6981   65.0615 H   0  0  0  0  0  0  0  0  0  0  0  0
  131.2478  124.7315   67.1907 H   0  0  0  0  0  0  0  0  0  0  0  0
  131.7121  126.3306   66.5993 H   0  0  0  0  0  0  0  0  0  0  0  0
  129.1215  124.7590   66.0205 H   0  0  0  0  0  0  0  0  0  0  0  0
  129.2620  126.3799   66.7511 H   0  0  0  0  0  0  0  0  0  0  0  0
  128.7397  125.9789   64.0728 H   0  0  0  0  0  0  0  0  0  0  0  0
  129.5951  127.4213   64.6679 H   0  0  0  0  0  0  0  0  0  0  0  0
  1  2  1  0
  2  3  2  0
  2  4  1  0
  4  5  1  0
  5  6  1  0
  6  7  1  0
  7  8  1  0
  8  9  1  0
  9 10  2  0
  9 11  1  0
 11 12  1  0
 12 13  1  0
 13 14  1  0
 14 15  1  0
 15 11  1  0
  1 16  1  0
  1 17  1  0
  1 18  1  0
  4 19  1  0
  4 20  1  0
  5 21  1  0
  5 22  1  0
  6 23  1  0
  6 24  1  0
  7 25  1  0
  7 26  1  0
 11 27  1  6
 12 28  1  0
 12 29  1  0
 13 30  1  0
 13 31  1  0
 14 32  1  0
 14 33  1  0
M  END
>  <Binding energies>  (1) 
[-4.97]

>  <Ligand effiencies>  (1) 
[-0.3313333333333333]

>  <Interactions>  (1) 
["V-A:ILE:369:CG2:3237, V-A:ASP:366:CA:3210, V-A:GLY:454:CA:4049, V-A:ILE:369:CB:3236, V-B:GLU:543:CB:9878, V-B:TYR:539:CE2:9848, V-B:GLU:543:CG:9879, V-A:ASP:366:CG:3213, H-A:ASN:370:N:3244, H-B:TYR:539:OH:9850, V-A:TYR:484:CZ:4347, V-A:GLU:543:CD:4908, H-A:GLY:454:N:4050, V-A:ILE:369:CD1:3239, V-A:HIS:456:CE1:4070, V-A:ASP:366:C:3208, V-B:GLU:543:CD:9880, V-A:ASP:366:CB:3212, V-A:LEU:475:CD2:4259, H-A:ARG:545:NH2:4928, V-A:ARG:545:CZ:4926, H-A:ARG:545:NE:4924, H-A:TYR:484:OH:4348"]

$$$$
ZINC765198177
     RDKit          3D

 37 38  0  0  0  0  0  0  0  0999 V2000
  131.0440  126.1330   60.0900 C   0  0  0  0  0  0  0  0  0  0  0  0
  132.2590  125.4300   60.7070 C   0  0  0  0  0  0  0  0  0  0  0  0
  132.3810  125.3290   62.1110 C   0  0  0  0  0  0  0  0  0  0  0  0
  131.4310  125.9430   62.9520 N   0  0  0  0  0  0  0  0  0  0  0  0
  131.4880  125.8300   64.3530 N   0  0  0  0  0  0  0  0  0  0  0  0
  130.6340  125.0330   65.0280 C   0  0  0  0  0  0  0  0  0  0  0  0
  129.8410  124.2640   64.4730 O   0  0  0  0  0  0  0  0  0  0  0  0
  130.6840  125.1530   66.5720 C   0  0  1  0  0  0  0  0  0  0  0  0
  131.9980  125.4870   66.9920 O   0  0  0  0  0  0  0  0  0  0  0  0
  129.6400  126.1460   67.0920 C   0  0  0  0  0  0  0  0  0  0  0  0
  129.1100  127.1180   66.2320 C   0  0  0  0  0  0  0  0  0  0  0  0
  128.1710  128.0390   66.6990 C   0  0  0  0  0  0  0  0  0  0  0  0
  127.5260  129.2300   65.6290 Cl  0  0  0  0  0  0  0  0  0  0  0  0
  127.7560  127.9980   68.0300 C   0  0  0  0  0  0  0  0  0  0  0  0
  128.2800  127.0380   68.8960 C   0  0  0  0  0  0  0  0  0  0  0  0
  127.7710  126.9920   70.5430 Cl  0  0  0  0  0  0  0  0  0  0  0  0
  129.2190  126.1180   68.4290 C   0  0  0  0  0  0  0  0  0  0  0  0
  133.4680  124.6270   62.6520 C   0  0  0  0  0  0  0  0  0  0  0  0
  134.4120  124.0260   61.8300 C   0  0  0  0  0  0  0  0  0  0  0  0
  134.2950  124.1300   60.4510 C   0  0  0  0  0  0  0  0  0  0  0  0
  133.2370  124.8380   59.8700 C   0  0  0  0  0  0  0  0  0  0  0  0
  133.1950  124.9440   58.3920 N   0  0  0  0  0  0  0  0  0  0  0  0
  133.6190  124.0080   57.7200 O   0  0  0  0  0  0  0  0  0  0  0  0
  132.6990  125.9540   57.9030 O   0  0  0  0  0  0  0  0  0  0  0  0
  130.3923  126.5101   60.8919 H   0  0  0  0  0  0  0  0  0  0  0  0
  131.3839  126.9740   59.4677 H   0  0  0  0  0  0  0  0  0  0  0  0
  130.4843  125.4192   59.4677 H   0  0  0  0  0  0  0  0  0  0  0  0
  130.4680  125.8890   62.6540 H   0  0  0  0  0  0  0  0  0  0  0  0
  132.0970  126.5020   64.7950 H   0  0  0  0  0  0  0  0  0  0  0  0
  130.4273  124.1768   67.0093 H   0  0  0  0  0  0  0  0  0  0  0  0
  132.4600  124.6760   67.2240 H   0  0  0  0  0  0  0  0  0  0  0  0
  129.4363  127.1551   65.1822 H   0  0  0  0  0  0  0  0  0  0  0  0
  127.0149  128.7232   68.3971 H   0  0  0  0  0  0  0  0  0  0  0  0
  129.6325  125.3644   69.1154 H   0  0  0  0  0  0  0  0  0  0  0  0
  133.5743  124.5514   63.7442 H   0  0  0  0  0  0  0  0  0  0  0  0
  135.2513  123.4683   62.2711 H   0  0  0  0  0  0  0  0  0  0  0  0
  135.0447  123.6490   59.8055 H   0  0  0  0  0  0  0  0  0  0  0  0
  1  2  1  0
  2  3  2  0
  3  4  1  0
  4  5  1  0
  5  6  1  0
  6  7  2  0
  6  8  1  0
  8  9  1  0
  8 10  1  0
 10 11  2  0
 11 12  1  0
 12 13  1  0
 12 14  2  0
 14 15  1  0
 15 16  1  0
 15 17  2  0
  3 18  1  0
 18 19  2  0
 19 20  1  0
 20 21  2  0
 21 22  1  0
 22 23  2  0
 22 24  1  0
 21  2  1  0
 17 10  1  0
  1 25  1  0
  1 26  1  0
  1 27  1  0
  4 28  1  0
  5 29  1  0
  8 30  1  1
  9 31  1  0
 11 32  1  0
 14 33  1  0
 17 34  1  0
 18 35  1  0
 19 36  1  0
 20 37  1  0
M  CHG  2  22   1  24  -1
M  END
>  <Binding energies>  (1) 
[-7.87]

>  <Ligand effiencies>  (1) 
[-0.2914814814814815]

>  <Interactions>  (1) 
["V-A:ILE:369:CG2:3237, V-A:ASP:366:CA:3210, V-B:GLU:543:C:9874, H-A:GLU:543:OE2:4910, V-A:ILE:369:CB:3236, V-B:GLU:543:CB:9878, H-A:TYR:531:OH:4795, V-B:TYR:539:CE2:9848, V-A:TYR:484:CE2:4346, V-B:GLU:543:CG:9879, V-A:ASP:366:CG:3213, V-B:TYR:539:CZ:9849, H-A:ASN:370:N:3244, H-B:TYR:539:OH:9850, V-A:GLU:543:CD:4908, V-A:TYR:484:CZ:4347, V-B:GLU:543:CA:9876, V-B:HIS:456:CE1:9041, V-A:ILE:369:CD1:3239, V-A:HIS:456:CE1:4070, V-A:ASP:366:C:3208, V-B:GLY:544:C:9884, V-B:GLU:543:CD:9880, V-A:ASP:366:CB:3212, V-A:ARG:545:CZ:4926, H-A:GLU:543:OE1:4909, H-A:TYR:484:OH:4348"]

$$$$
ZINC783842774
     RDKit          3D

 39 41  0  0  0  0  0  0  0  0999 V2000
  130.8720  127.1380   62.0360 C   0  0  0  0  0  0  0  0  0  0  0  0
  131.7280  125.8950   62.3400 C   0  0  0  0  0  0  0  0  0  0  0  0
  131.8180  125.3090   63.4750 N   0  0  0  0  0  0  0  0  0  0  0  0
  131.1440  125.8660   64.5030 N   0  0  0  0  0  0  0  0  0  0  0  0
  130.3760  125.1440   65.3440 C   0  0  0  0  0  0  0  0  0  0  0  0
  130.2210  123.9230   65.2650 O   0  0  0  0  0  0  0  0  0  0  0  0
  129.6710  125.9470   66.4160 C   0  0  0  0  0  0  0  0  0  0  0  0
  129.7570  125.5240   67.7490 C   0  0  0  0  0  0  0  0  0  0  0  0
  129.1580  126.2340   68.7820 C   0  0  0  0  0  0  0  0  0  0  0  0
  128.4500  127.3980   68.5200 C   0  0  0  0  0  0  0  0  0  0  0  0
  128.3210  127.8710   67.1950 C   0  0  0  0  0  0  0  0  0  0  0  0
  127.6050  129.0140   67.0000 N   0  0  0  0  0  0  0  0  0  0  0  0
  127.4550  129.4760   65.7380 C   0  0  0  0  0  0  0  0  0  0  0  0
  127.9900  128.8430   64.6240 C   0  0  0  0  0  0  0  0  0  0  0  0
  128.7260  127.6760   64.8050 C   0  0  0  0  0  0  0  0  0  0  0  0
  128.9280  127.1460   66.1170 C   0  0  0  0  0  0  0  0  0  0  0  0
  132.4130  125.3090   61.1700 C   0  0  0  0  0  0  0  0  0  0  0  0
  131.9750  125.7050   59.8940 C   0  0  0  0  0  0  0  0  0  0  0  0
  132.5130  125.1520   58.7350 C   0  0  0  0  0  0  0  0  0  0  0  0
  133.5020  124.1820   58.8270 C   0  0  0  0  0  0  0  0  0  0  0  0
  134.0210  123.6360   57.7040 F   0  0  0  0  0  0  0  0  0  0  0  0
  133.9610  123.7780   60.0760 C   0  0  0  0  0  0  0  0  0  0  0  0
  133.4460  124.3350   61.2580 C   0  0  0  0  0  0  0  0  0  0  0  0
  134.0370  123.8870   62.5470 N   0  0  0  0  0  0  0  0  0  0  0  0
  133.9760  122.7000   62.8520 O   0  0  0  0  0  0  0  0  0  0  0  0
  134.5230  124.7400   63.2860 O   0  0  0  0  0  0  0  0  0  0  0  0
  130.5520  127.6027   62.9803 H   0  0  0  0  0  0  0  0  0  0  0  0
  131.4659  127.8591   61.4553 H   0  0  0  0  0  0  0  0  0  0  0  0
  129.9865  126.8403   61.4553 H   0  0  0  0  0  0  0  0  0  0  0  0
  131.2520  126.8650   64.6040 H   0  0  0  0  0  0  0  0  0  0  0  0
  130.3138  124.6049   67.9839 H   0  0  0  0  0  0  0  0  0  0  0  0
  129.2458  125.8702   69.8164 H   0  0  0  0  0  0  0  0  0  0  0  0
  127.9870  127.9552   69.3477 H   0  0  0  0  0  0  0  0  0  0  0  0
  126.8794  130.4010   65.5861 H   0  0  0  0  0  0  0  0  0  0  0  0
  127.8348  129.2566   63.6166 H   0  0  0  0  0  0  0  0  0  0  0  0
  129.1545  127.1587   63.9339 H   0  0  0  0  0  0  0  0  0  0  0  0
  131.1888  126.4697   59.8094 H   0  0  0  0  0  0  0  0  0  0  0  0
  132.1553  125.4829   57.7488 H   0  0  0  0  0  0  0  0  0  0  0  0
  134.7429  123.0069   60.1395 H   0  0  0  0  0  0  0  0  0  0  0  0
  1  2  1  0
  2  3  2  0
  3  4  1  0
  4  5  1  0
  5  6  2  0
  5  7  1  0
  7  8  2  0
  8  9  1  0
  9 10  2  0
 10 11  1  0
 11 12  2  0
 12 13  1  0
 13 14  2  0
 14 15  1  0
 15 16  2  0
  2 17  1  0
 17 18  2  0
 18 19  1  0
 19 20  2  0
 20 21  1  0
 20 22  1  0
 22 23  2  0
 23 24  1  0
 24 25  2  0
 24 26  1  0
 16  7  1  0
 23 17  1  0
 16 11  1  0
  1 27  1  0
  1 28  1  0
  1 29  1  0
  4 30  1  0
  8 31  1  0
  9 32  1  0
 10 33  1  0
 13 34  1  0
 14 35  1  0
 15 36  1  0
 18 37  1  0
 19 38  1  0
 22 39  1  0
M  CHG  2  24   1  26  -1
M  END
>  <Binding energies>  (1) 
[-7.85]

>  <Ligand effiencies>  (1) 
[-0.29074074074074074]

>  <Interactions>  (1) 
["V-A:ILE:369:CG2:3237, V-A:ASP:366:CA:3210, V-A:ILE:369:C:3232, V-B:GLU:543:C:9874, H-A:GLU:543:OE2:4910, V-A:ILE:369:CB:3236, V-A:GLY:454:CA:4049, V-B:GLU:543:CB:9878, H-A:ARG:545:NH1:4927, V-B:TYR:539:CE2:9848, V-A:ASN:370:CB:3245, V-B:GLU:543:CG:9879, V-A:ASP:366:CG:3213, V-B:TYR:539:CZ:9849, V-A:GLU:543:CD:4908, H-B:TYR:484:OH:9319, V-B:GLU:543:CA:9876, H-A:GLY:454:N:4050, V-B:HIS:456:CE1:9041, V-A:ILE:369:CD1:3239, V-A:HIS:456:CE1:4070, V-B:TYR:484:CZ:9318, V-A:ASP:366:C:3208, V-A:ASN:370:CA:3243, V-A:ILE:369:CA:3234, V-B:GLU:543:CD:9880, V-A:ASP:366:CB:3212, H-A:ARG:545:NH2:4928, H-A:GLU:543:OE1:4909, H-A:TYR:484:OH:4348"]

$$$$
ZINC78546413
     RDKit          3D

 24 27  0  0  0  0  0  0  0  0999 V2000
  132.1620  131.6290   56.4470 C   0  0  0  0  0  0  0  0  0  0  0  0
  130.9080  132.0140   57.2190 C   0  0  0  0  0  0  0  0  0  0  0  0
  129.7660  132.3910   56.5090 C   0  0  0  0  0  0  0  0  0  0  0  0
  128.5790  132.7570   57.1410 C   0  0  0  0  0  0  0  0  0  0  0  0
  128.5670  132.7350   58.5390 C   0  0  0  0  0  0  0  0  0  0  0  0
  127.5500  133.0420   59.4290 N   0  0  0  0  0  0  0  0  0  0  0  0
  128.0060  132.8730   60.7170 C   0  0  0  0  0  0  0  0  0  0  0  0
  127.3470  133.0610   61.8670 N   0  0  0  0  0  0  0  0  0  0  0  0
  128.0300  132.8230   62.9900 C   0  0  0  0  0  0  0  0  0  0  0  0
  127.6020  132.9350   64.2740 N   0  0  0  0  0  0  0  0  0  0  0  0
  128.7410  132.5590   65.0020 O   0  0  0  0  0  0  0  0  0  0  0  0
  129.8530  132.2200   64.2170 N   0  0  0  0  0  0  0  0  0  0  0  0
  129.3790  132.3940   62.9570 C   0  0  0  0  0  0  0  0  0  0  0  0
  130.0200  132.2120   61.7980 N   0  0  0  0  0  0  0  0  0  0  0  0
  129.3560  132.4440   60.6550 C   0  0  0  0  0  0  0  0  0  0  0  0
  129.7170  132.3550   59.2940 C   0  0  0  0  0  0  0  0  0  0  0  0
  130.8980  131.9910   58.6210 C   0  0  0  0  0  0  0  0  0  0  0  0
  132.4510  131.4780   59.6100 Br  0  0  0  0  0  0  0  0  0  0  0  0
  132.9669  131.3819   57.1548 H   0  0  0  0  0  0  0  0  0  0  0  0
  131.9491  130.7549   55.8141 H   0  0  0  0  0  0  0  0  0  0  0  0
  132.4763  132.4720   55.8141 H   0  0  0  0  0  0  0  0  0  0  0  0
  129.8048  132.3994   55.4097 H   0  0  0  0  0  0  0  0  0  0  0  0
  127.6894  133.0507   56.5645 H   0  0  0  0  0  0  0  0  0  0  0  0
  126.6200  133.3430   59.1750 H   0  0  0  0  0  0  0  0  0  0  0  0
  1  2  1  0
  2  3  2  0
  3  4  1  0
  4  5  2  0
  5  6  1  0
  6  7  1  0
  7  8  2  0
  8  9  1  0
  9 10  2  0
 10 11  1  0
 11 12  1  0
 12 13  2  0
 13 14  1  0
 14 15  2  0
 15 16  1  0
 16 17  2  0
 17 18  1  0
 17  2  1  0
 16  5  1  0
 15  7  1  0
 13  9  1  0
  1 19  1  0
  1 20  1  0
  1 21  1  0
  3 22  1  0
  4 23  1  0
  6 24  1  0
M  END
>  <Binding energies>  (1) 
[-6.9]

>  <Ligand effiencies>  (1) 
[-0.3631578947368421]

>  <Interactions>  (1) 
["V-A:LEU:363:CD1:3189, V-A:PRO:540:N:4884, V-A:TYR:539:CD1:4873, V-A:PRO:540:CB:4885, V-A:PRO:540:CA:4883, V-A:TYR:539:CG:4872, V-A:TYR:531:CE2:4793, H-A:ALA:541:N:4891, V-A:ALA:541:CA:4890, V-A:ALA:541:CB:4892, V-A:TYR:531:CZ:4794, V-A:MET:535:CE:4835, V-A:TYR:539:C:4867, H-B:TYR:484:OH:9319, V-B:LEU:475:CD2:9230, V-A:TYR:539:CE1:4875"]

$$$$
ZINC788366249
     RDKit          3D

 63 65  0  0  0  0  0  0  0  0999 V2000
  132.1450  126.6290   73.9540 C   0  0  0  0  0  0  0  0  0  0  0  0
  130.9650  126.7240   73.6540 C   0  0  0  0  0  0  0  0  0  0  0  0
  129.5450  126.8570   73.2760 C   0  0  0  0  0  0  0  0  0  0  0  0
  129.3730  127.3020   71.8970 N   0  0  0  0  0  0  0  0  0  0  0  0
  130.0060  128.3390   71.2660 C   0  0  0  0  0  0  0  0  0  0  0  0
  129.4410  128.3900   70.0080 C   0  0  0  0  0  0  0  0  0  0  0  0
  128.4670  127.3810   69.9760 C   0  0  0  0  0  0  0  0  0  0  0  0
  127.5260  127.0300   68.8300 C   0  0  0  0  0  0  0  0  0  0  0  0
  128.0090  127.4650   67.5060 N   0  0  0  0  0  0  0  0  0  0  0  0
  127.7470  128.8870   67.2190 C   0  0  0  0  0  0  0  0  0  0  0  0
  127.5310  129.2140   65.7270 C   0  0  0  0  0  0  0  0  0  0  0  0
  128.0060  130.5180   65.4190 O   0  0  0  0  0  0  0  0  0  0  0  0
  128.3280  130.6930   64.0490 C   0  0  0  0  0  0  0  0  0  0  0  0
  129.4330  127.1430   67.3190 C   0  0  0  0  0  0  0  0  0  0  0  0
  129.7090  126.0130   66.4050 N   0  0  0  0  0  0  0  0  0  0  0  0
  130.0500  124.7750   66.8500 C   0  0  0  0  0  0  0  0  0  0  0  0
  129.8100  124.2690   67.9440 O   0  0  0  0  0  0  0  0  0  0  0  0
  130.4440  124.1110   65.7570 N   0  0  0  0  0  0  0  0  0  0  0  0
  130.2520  124.8230   64.5250 C   0  0  1  0  0  0  0  0  0  0  0  0
  131.5560  125.0890   63.7130 C   0  0  0  0  0  0  0  0  0  0  0  0
  132.0990  123.7970   63.0570 C   0  0  2  0  0  0  0  0  0  0  0  0
  133.4370  124.0520   62.3400 C   0  0  0  0  0  0  0  0  0  0  0  0
  131.0070  123.2900   62.0800 C   0  0  0  0  0  0  0  0  0  0  0  0
  129.6760  122.9210   62.8030 C   0  0  0  0  0  0  0  0  0  0  0  0
  128.6290  122.5990   61.7110 C   0  0  0  0  0  0  0  0  0  0  0  0
  129.8480  121.7180   63.7670 C   0  0  0  0  0  0  0  0  0  0  0  0
  129.2000  124.2170   63.5360 C   0  0  0  0  0  0  0  0  0  0  0  0
  129.7410  126.1540   65.0610 C   0  0  0  0  0  0  0  0  0  0  0  0
  129.4560  127.1480   64.3890 O   0  0  0  0  0  0  0  0  0  0  0  0
  128.4490  126.7200   71.1190 N   0  0  0  0  0  0  0  0  0  0  0  0
  133.2079  126.5434   74.2242 H   0  0  0  0  0  0  0  0  0  0  0  0
  129.0553  125.8792   73.3948 H   0  0  0  0  0  0  0  0  0  0  0  0
  129.0946  127.6172   73.9311 H   0  0  0  0  0  0  0  0  0  0  0  0
  130.7937  128.9900   71.6732 H   0  0  0  0  0  0  0  0  0  0  0  0
  129.7019  129.0825   69.1941 H   0  0  0  0  0  0  0  0  0  0  0  0
  127.3968  125.9378   68.8100 H   0  0  0  0  0  0  0  0  0  0  0  0
  126.5822  127.5633   69.0168 H   0  0  0  0  0  0  0  0  0  0  0  0
  126.8434  129.1869   67.7699 H   0  0  0  0  0  0  0  0  0  0  0  0
  128.6466  129.4379   67.5309 H   0  0  0  0  0  0  0  0  0  0  0  0
  128.0744  128.4790   65.1150 H   0  0  0  0  0  0  0  0  0  0  0  0
  126.4532  129.1727   65.5108 H   0  0  0  0  0  0  0  0  0  0  0  0
  129.2915  131.2166   63.9628 H   0  0  0  0  0  0  0  0  0  0  0  0
  128.4000  129.7099   63.5608 H   0  0  0  0  0  0  0  0  0  0  0  0
  127.5422  131.2882   63.5608 H   0  0  0  0  0  0  0  0  0  0  0  0
  129.9338  128.0360   66.9168 H   0  0  0  0  0  0  0  0  0  0  0  0
  129.8084  126.8355   68.3062 H   0  0  0  0  0  0  0  0  0  0  0  0
  131.0220  123.2850   65.7910 H   0  0  0  0  0  0  0  0  0  0  0  0
  131.3404  125.8250   62.9245 H   0  0  0  0  0  0  0  0  0  0  0  0
  132.3204  125.4663   64.4083 H   0  0  0  0  0  0  0  0  0  0  0  0
  132.3100  123.0327   63.8194 H   0  0  0  0  0  0  0  0  0  0  0  0
  134.2303  124.2032   63.0869 H   0  0  0  0  0  0  0  0  0  0  0  0
  133.6866  123.1853   61.7103 H   0  0  0  0  0  0  0  0  0  0  0  0
  133.3503  124.9498   61.7103 H   0  0  0  0  0  0  0  0  0  0  0  0
  130.7998  124.0802   61.3433 H   0  0  0  0  0  0  0  0  0  0  0  0
  131.3887  122.3764   61.6008 H   0  0  0  0  0  0  0  0  0  0  0  0
  127.6810  122.3074   62.1866 H   0  0  0  0  0  0  0  0  0  0  0  0
  128.4667  123.4887   61.0849 H   0  0  0  0  0  0  0  0  0  0  0  0
  128.9947  121.7718   61.0849 H   0  0  0  0  0  0  0  0  0  0  0  0
  129.7974  122.0717   64.8074 H   0  0  0  0  0  0  0  0  0  0  0  0
  129.0452  120.9875   63.5886 H   0  0  0  0  0  0  0  0  0  0  0  0
  130.8234  121.2417   63.5886 H   0  0  0  0  0  0  0  0  0  0  0  0
  128.9654  124.9762   62.7754 H   0  0  0  0  0  0  0  0  0  0  0  0
  128.3266  123.9330   64.1413 H   0  0  0  0  0  0  0  0  0  0  0  0
  1  2  3  0
  2  3  1  0
  3  4  1  0
  4  5  1  0
  5  6  2  0
  6  7  1  0
  7  8  1  0
  8  9  1  0
  9 10  1  0
 10 11  1  0
 11 12  1  0
 12 13  1  0
  9 14  1  0
 14 15  1  0
 15 16  1  0
 16 17  2  0
 16 18  1  0
 19 18  1  1
 19 20  1  0
 20 21  1  0
 21 22  1  0
 21 23  1  0
 23 24  1  0
 24 25  1  0
 24 26  1  0
 24 27  1  0
 19 28  1  0
 28 29  2  0
  7 30  2  0
 30  4  1  0
 28 15  1  0
 27 19  1  0
  1 31  1  0
  3 32  1  0
  3 33  1  0
  5 34  1  0
  6 35  1  0
  8 36  1  0
  8 37  1  0
 10 38  1  0
 10 39  1  0
 11 40  1  0
 11 41  1  0
 13 42  1  0
 13 43  1  0
 13 44  1  0
 14 45  1  0
 14 46  1  0
 18 47  1  0
 20 48  1  0
 20 49  1  0
 21 50  1  1
 22 51  1  0
 22 52  1  0
 22 53  1  0
 23 54  1  0
 23 55  1  0
 25 56  1  0
 25 57  1  0
 25 58  1  0
 26 59  1  0
 26 60  1  0
 26 61  1  0
 27 62  1  0
 27 63  1  0
M  END
>  <Binding energies>  (1) 
[-6.91]

>  <Ligand effiencies>  (1) 
[-0.2229032258064516]

>  <Interactions>  (1) 
["V-B:GLU:543:C:9874, V-A:GLU:543:C:4902, V-B:GLU:543:CB:9878, V-B:ALA:541:CB:9864, V-A:TYR:484:CE2:4346, V-B:GLU:543:CG:9879, V-A:GLY:544:C:4912, V-A:HIS:456:CD2:4068, V-A:HIS:456:CB:4065, V-A:LEU:475:CD1:4258, V-A:GLU:543:CD:4908, V-A:TYR:484:CZ:4347, H-B:TYR:484:OH:9319, V-B:GLU:543:CA:9876, V-B:HIS:456:CE1:9041, V-A:HIS:456:CE1:4070, V-A:GLU:543:CG:4907, V-B:GLU:543:CD:9880, V-A:LEU:475:CD2:4259, V-A:GLU:543:CB:4906, V-A:HIS:456:CG:4066, H-A:TYR:484:OH:4348"]

$$$$
ZINC7891042
     RDKit          3D

 37 38  0  0  0  0  0  0  0  0999 V2000
  133.9760  123.9430   57.5290 N   0  0  0  0  0  0  0  0  0  0  0  0
  133.7570  124.1810   58.6400 C   0  0  0  0  0  0  0  0  0  0  0  0
  133.4760  124.4830   60.0530 C   0  0  0  0  0  0  0  0  0  0  0  0
  132.3900  123.5870   60.6770 C   0  0  0  0  0  0  0  0  0  0  0  0
  132.9080  122.3690   61.3260 N   0  0  0  0  0  0  0  0  0  0  0  0
  133.7800  122.6190   62.4870 C   0  0  0  0  0  0  0  0  0  0  0  0
  133.1390  123.5220   63.5240 C   0  0  0  0  0  0  0  0  0  0  0  0
  131.8410  123.7250   63.9840 C   0  0  0  0  0  0  0  0  0  0  0  0
  131.9030  124.7150   64.9640 C   0  0  0  0  0  0  0  0  0  0  0  0
  133.2340  125.0770   65.0630 C   0  0  0  0  0  0  0  0  0  0  0  0
  133.9820  124.3550   64.1900 O   0  0  0  0  0  0  0  0  0  0  0  0
  132.7010  121.1390   60.7840 C   0  0  0  0  0  0  0  0  0  0  0  0
  133.5940  120.5230   60.1940 O   0  0  0  0  0  0  0  0  0  0  0  0
  131.3070  120.4940   60.9090 C   0  0  0  0  0  0  0  0  0  0  0  0
  130.5140  121.2280   61.8430 O   0  0  0  0  0  0  0  0  0  0  0  0
  129.4170  121.9410   61.3950 C   0  0  0  0  0  0  0  0  0  0  0  0
  129.0600  122.0590   60.0390 C   0  0  0  0  0  0  0  0  0  0  0  0
  127.9350  122.7900   59.6620 C   0  0  0  0  0  0  0  0  0  0  0  0
  127.1500  123.4160   60.6290 C   0  0  0  0  0  0  0  0  0  0  0  0
  125.7570  124.3200   60.1620 Cl  0  0  0  0  0  0  0  0  0  0  0  0
  127.4940  123.3090   61.9760 C   0  0  0  0  0  0  0  0  0  0  0  0
  128.6200  122.5760   62.3580 C   0  0  0  0  0  0  0  0  0  0  0  0
  129.0120  122.4630   64.0390 Cl  0  0  0  0  0  0  0  0  0  0  0  0
  134.4053  124.3521   60.6269 H   0  0  0  0  0  0  0  0  0  0  0  0
  133.0993  125.5158   60.0907 H   0  0  0  0  0  0  0  0  0  0  0  0
  131.8491  124.1763   61.4321 H   0  0  0  0  0  0  0  0  0  0  0  0
  131.7438  123.2537   59.8516 H   0  0  0  0  0  0  0  0  0  0  0  0
  134.0187  121.6552   62.9605 H   0  0  0  0  0  0  0  0  0  0  0  0
  134.6822  123.1289   62.1181 H   0  0  0  0  0  0  0  0  0  0  0  0
  130.9364  123.2026   63.6392 H   0  0  0  0  0  0  0  0  0  0  0  0
  131.0621  125.1256   65.5422 H   0  0  0  0  0  0  0  0  0  0  0  0
  133.6295  125.8398   65.7499 H   0  0  0  0  0  0  0  0  0  0  0  0
  130.8126  120.5005   59.9264 H   0  0  0  0  0  0  0  0  0  0  0  0
  131.4175  119.4583   61.2627 H   0  0  0  0  0  0  0  0  0  0  0  0
  129.6748  121.5696   59.2692 H   0  0  0  0  0  0  0  0  0  0  0  0
  127.6658  122.8732   58.5987 H   0  0  0  0  0  0  0  0  0  0  0  0
  126.8766  123.8035   62.7404 H   0  0  0  0  0  0  0  0  0  0  0  0
  1  2  3  0
  2  3  1  0
  3  4  1  0
  4  5  1  0
  5  6  1  0
  6  7  1  0
  7  8  2  0
  8  9  1  0
  9 10  2  0
 10 11  1  0
  5 12  1  0
 12 13  2  0
 12 14  1  0
 14 15  1  0
 15 16  1  0
 16 17  2  0
 17 18  1  0
 18 19  2  0
 19 20  1  0
 19 21  1  0
 21 22  2  0
 22 23  1  0
 11  7  1  0
 22 16  1  0
  3 24  1  0
  3 25  1  0
  4 26  1  0
  4 27  1  0
  6 28  1  0
  6 29  1  0
  8 30  1  0
  9 31  1  0
 10 32  1  0
 14 33  1  0
 14 34  1  0
 17 35  1  0
 18 36  1  0
 21 37  1  0
M  END
>  <Binding energies>  (1) 
[-6.51]

>  <Ligand effiencies>  (1) 
[-0.28304347826086956]

>  <Interactions>  (1) 
["V-A:ILE:369:CG2:3237, V-A:ASP:366:CA:3210, V-B:PRO:540:CA:9855, V-A:GLY:454:CA:4049, V-A:ILE:369:CB:3236, V-B:ALA:541:CB:9864, V-B:TYR:539:CE2:9848, V-B:GLU:543:CG:9879, V-B:TYR:539:C:9839, V-A:ASP:366:CG:3213, H-A:ASN:370:N:3244, H-B:TYR:539:OH:9850, V-B:PRO:540:CB:9857, H-A:GLY:454:N:4050, V-B:PRO:540:N:9856, V-A:ILE:369:CD1:3239, V-A:ASP:366:C:3208, V-B:TYR:539:CD2:9846, H-A:SER:385:OG:3410, V-B:GLU:543:CD:9880, V-A:ASP:366:CB:3212, V-A:ARG:545:CD:4923, V-A:LEU:475:CD2:4259, V-A:ARG:545:CZ:4926, H-A:TYR:484:OH:4348"]

$$$$
ZINC79037139
     RDKit          3D

 32 32  0  0  0  0  0  0  0  0999 V2000
  130.2400  126.1310   67.6460 C   0  0  0  0  0  0  0  0  0  0  0  0
  130.1330  127.2730   68.6720 C   0  0  0  0  0  0  0  0  0  0  0  0
  129.3360  126.9350   69.9620 C   0  0  0  0  0  0  0  0  0  0  0  0
  127.8020  126.9870   69.7270 C   0  0  0  0  0  0  0  0  0  0  0  0
  127.3620  127.3510   68.2980 C   0  0  0  0  0  0  0  0  0  0  0  0
  129.7850  127.8260   71.1550 C   0  0  0  0  0  0  0  0  0  0  0  0
  129.2970  127.1340   72.8600 S   0  0  0  0  0  0  0  0  0  0  0  0
  128.7190  128.2820   73.5680 O   0  0  0  0  0  0  0  0  0  0  0  0
  128.3690  126.0380   72.5580 O   0  0  0  0  0  0  0  0  0  0  0  0
  130.9270  126.6650   73.3450 N   0  0  0  0  0  0  0  0  0  0  0  0
  131.2780  126.8470   74.5580 C   0  0  0  0  0  0  0  0  0  0  0  0
  130.7440  127.3300   75.5750 O   0  0  0  0  0  0  0  0  0  0  0  0
  132.6540  126.4570   74.9040 C   0  0  0  0  0  0  0  0  0  0  0  0
  132.9890  125.2230   75.4750 C   0  0  0  0  0  0  0  0  0  0  0  0
  134.7000  125.1760   75.7810 S   0  0  0  0  0  0  0  0  0  0  0  0
  134.7960  126.7870   75.1510 C   0  0  0  0  0  0  0  0  0  0  0  0
  133.6630  127.3090   74.7550 N   0  0  0  0  0  0  0  0  0  0  0  0
  130.3300  125.1705   68.1745 H   0  0  0  0  0  0  0  0  0  0  0  0
  129.3390  126.1193   67.0151 H   0  0  0  0  0  0  0  0  0  0  0  0
  131.1275  126.2869   67.0151 H   0  0  0  0  0  0  0  0  0  0  0  0
  131.1527  127.5602   68.9682 H   0  0  0  0  0  0  0  0  0  0  0  0
  129.5752  128.0789   68.1726 H   0  0  0  0  0  0  0  0  0  0  0  0
  129.5710  125.8951   70.2328 H   0  0  0  0  0  0  0  0  0  0  0  0
  127.3888  125.9961   69.9667 H   0  0  0  0  0  0  0  0  0  0  0  0
  127.4249  127.7932   70.3734 H   0  0  0  0  0  0  0  0  0  0  0  0
  126.5151  128.0516   68.3424 H   0  0  0  0  0  0  0  0  0  0  0  0
  128.2007  127.8228   67.7651 H   0  0  0  0  0  0  0  0  0  0  0  0
  127.0557  126.4388   67.7651 H   0  0  0  0  0  0  0  0  0  0  0  0
  130.8801  127.9239   71.1214 H   0  0  0  0  0  0  0  0  0  0  0  0
  129.2713  128.7922   71.0433 H   0  0  0  0  0  0  0  0  0  0  0  0
  132.2807  124.4107   75.6954 H   0  0  0  0  0  0  0  0  0  0  0  0
  135.7474  127.3355   75.0879 H   0  0  0  0  0  0  0  0  0  0  0  0
  1  2  1  0
  2  3  1  0
  3  4  1  0
  4  5  1  0
  3  6  1  0
  6  7  1  0
  7  8  2  0
  7  9  2  0
  7 10  1  0
 10 11  2  0
 11 12  1  0
 11 13  1  0
 13 14  2  0
 14 15  1  0
 15 16  1  0
 16 17  2  0
 17 13  1  0
  1 18  1  0
  1 19  1  0
  1 20  1  0
  2 21  1  0
  2 22  1  0
  3 23  1  0
  4 24  1  0
  4 25  1  0
  5 26  1  0
  5 27  1  0
  5 28  1  0
  6 29  1  0
  6 30  1  0
 14 31  1  0
 16 32  1  0
M  CHG  1  12  -1
M  END
>  <Binding energies>  (1) 
[-7.02]

>  <Ligand effiencies>  (1) 
[-0.4129411764705882]

>  <Interactions>  (1) 
["V-A:VAL:457:CA:4075, V-A:HIS:456:CE1:4070, V-B:GLU:543:C:9874, V-A:LYS:547:CG:4948, V-A:HIS:456:C:4061, V-A:LYS:547:CB:4947, V-B:GLU:543:CB:9878, H-B:LYS:547:NZ:9923, V-A:HIS:456:CB:4065, V-B:GLU:543:CD:9880, V-A:VAL:457:C:4073, V-A:HIS:456:CG:4066, H-A:LYS:547:NZ:4951, V-A:VAL:458:CG2:4087, V-B:HIS:456:CE1:9041, V-A:HIS:456:CD2:4068, V-A:ARG:545:C:4917, V-A:GLU:543:CB:4906"]

$$$$
ZINC79238260
     RDKit          3D

 67 74  0  0  0  0  0  0  0  0999 V2000
  128.5210  133.7060   58.1220 O   0  0  0  0  0  0  0  0  0  0  0  0
  128.9650  133.1090   59.1070 C   0  0  0  0  0  0  0  0  0  0  0  0
  130.3090  132.4520   59.0780 C   0  0  0  0  0  0  0  0  0  0  0  0
  131.1320  132.6090   57.9510 C   0  0  0  0  0  0  0  0  0  0  0  0
  132.3920  132.0190   57.8940 C   0  0  0  0  0  0  0  0  0  0  0  0
  132.8510  131.2640   58.9670 C   0  0  0  0  0  0  0  0  0  0  0  0
  132.0490  131.0990   60.0930 C   0  0  0  0  0  0  0  0  0  0  0  0
  130.7720  131.6830   60.1680 C   0  0  0  0  0  0  0  0  0  0  0  0
  129.9360  131.4810   61.4010 C   0  0  0  0  0  0  0  0  0  0  0  0
  130.3220  130.7100   62.2840 O   0  0  0  0  0  0  0  0  0  0  0  0
  128.6700  132.3200   61.5380 C   0  0  0  0  0  0  0  0  0  0  0  0
  127.9160  132.3820   62.7500 C   0  0  0  0  0  0  0  0  0  0  0  0
  128.3060  131.6480   63.8940 N   0  0  0  0  0  0  0  0  0  0  0  0
  128.2910  130.2950   64.2670 C   0  0  0  0  0  0  0  0  0  0  0  0
  128.2900  129.4150   63.2340 N   0  0  0  0  0  0  0  0  0  0  0  0
  128.3060  128.0970   63.5720 C   0  0  0  0  0  0  0  0  0  0  0  0
  128.2750  127.0960   62.5880 N   0  0  0  0  0  0  0  0  0  0  0  0
  128.8490  125.8140   62.4230 C   0  0  0  0  0  0  0  0  0  0  0  0
  129.8470  125.3810   63.3070 C   0  0  0  0  0  0  0  0  0  0  0  0
  130.4360  124.1340   63.1750 C   0  0  0  0  0  0  0  0  0  0  0  0
  130.0360  123.2880   62.1560 C   0  0  0  0  0  0  0  0  0  0  0  0
  129.0300  123.6630   61.2550 C   0  0  0  0  0  0  0  0  0  0  0  0
  128.4110  124.9400   61.3810 C   0  0  0  0  0  0  0  0  0  0  0  0
  127.3180  125.3250   60.3900 C   0  0  0  0  0  0  0  0  0  0  0  0
  126.6440  126.3520   60.5080 O   0  0  0  0  0  0  0  0  0  0  0  0
  127.1470  124.4540   59.1780 C   0  0  0  0  0  0  0  0  0  0  0  0
  126.3410  124.8960   58.1140 C   0  0  0  0  0  0  0  0  0  0  0  0
  126.1620  124.1150   56.9750 C   0  0  0  0  0  0  0  0  0  0  0  0
  126.7880  122.8780   56.8770 C   0  0  0  0  0  0  0  0  0  0  0  0
  127.5930  122.4240   57.9180 C   0  0  0  0  0  0  0  0  0  0  0  0
  127.7830  123.1980   59.0750 C   0  0  0  0  0  0  0  0  0  0  0  0
  128.6630  122.6850   60.1710 C   0  0  0  0  0  0  0  0  0  0  0  0
  129.1350  121.5430   60.1360 O   0  0  0  0  0  0  0  0  0  0  0  0
  128.3170  127.6400   64.8510 N   0  0  0  0  0  0  0  0  0  0  0  0
  128.3280  128.5920   65.8270 C   0  0  0  0  0  0  0  0  0  0  0  0
  128.3490  128.1390   67.2610 C   0  0  0  0  0  0  0  0  0  0  0  0
  127.2770  127.4150   67.8120 C   0  0  0  0  0  0  0  0  0  0  0  0
  127.2960  126.9940   69.1380 C   0  0  0  0  0  0  0  0  0  0  0  0
  128.3910  127.2930   69.9410 C   0  0  0  0  0  0  0  0  0  0  0  0
  129.4660  128.0090   69.4250 C   0  0  0  0  0  0  0  0  0  0  0  0
  129.4440  128.4260   68.0970 C   0  0  0  0  0  0  0  0  0  0  0  0
  128.3200  129.9330   65.5770 N   0  0  0  0  0  0  0  0  0  0  0  0
  126.7510  133.1600   62.7950 C   0  0  0  0  0  0  0  0  0  0  0  0
  126.3310  133.8930   61.6980 C   0  0  0  0  0  0  0  0  0  0  0  0
  127.0660  133.8600   60.5260 C   0  0  0  0  0  0  0  0  0  0  0  0
  128.2280  133.0830   60.4200 C   0  0  0  0  0  0  0  0  0  0  0  0
  130.7756  133.2076   57.0997 H   0  0  0  0  0  0  0  0  0  0  0  0
  133.0225  132.1501   57.0022 H   0  0  0  0  0  0  0  0  0  0  0  0
  133.8464  130.7976   58.9266 H   0  0  0  0  0  0  0  0  0  0  0  0
  132.4207  130.5015   60.9385 H   0  0  0  0  0  0  0  0  0  0  0  0
  128.6830  132.2390   64.6220 H   0  0  0  0  0  0  0  0  0  0  0  0
  127.7010  127.3620   61.8000 H   0  0  0  0  0  0  0  0  0  0  0  0
  130.1692  126.0452   64.1225 H   0  0  0  0  0  0  0  0  0  0  0  0
  131.2199  123.8173   63.8787 H   0  0  0  0  0  0  0  0  0  0  0  0
  130.5159  122.3038   62.0511 H   0  0  0  0  0  0  0  0  0  0  0  0
  125.8437  125.8748   58.1824 H   0  0  0  0  0  0  0  0  0  0  0  0
  125.5258  124.4767   56.1538 H   0  0  0  0  0  0  0  0  0  0  0  0
  126.6476  122.2589   55.9786 H   0  0  0  0  0  0  0  0  0  0  0  0
  128.0875  121.4451   57.8335 H   0  0  0  0  0  0  0  0  0  0  0  0
  126.4067  127.1769   67.1828 H   0  0  0  0  0  0  0  0  0  0  0  0
  126.4480  126.4268   69.5494 H   0  0  0  0  0  0  0  0  0  0  0  0
  128.4072  126.9616   70.9898 H   0  0  0  0  0  0  0  0  0  0  0  0
  130.3300  128.2448   70.0636 H   0  0  0  0  0  0  0  0  0  0  0  0
  130.2980  128.9900   67.6938 H   0  0  0  0  0  0  0  0  0  0  0  0
  126.1581  133.1888   63.7211 H   0  0  0  0  0  0  0  0  0  0  0  0
  125.4155  134.4999   61.7580 H   0  0  0  0  0  0  0  0  0  0  0  0
  126.7326  134.4540   59.6623 H   0  0  0  0  0  0  0  0  0  0  0  0
  1  2  2  0
  2  3  1  0
  3  4  2  0
  4  5  1  0
  5  6  2  0
  6  7  1  0
  7  8  2  0
  8  9  1  0
  9 10  2  0
  9 11  1  0
 11 12  2  0
 12 13  1  0
 13 14  1  0
 14 15  2  0
 15 16  1  0
 16 17  1  0
 17 18  1  0
 18 19  2  0
 19 20  1  0
 20 21  2  0
 21 22  1  0
 22 23  2  0
 23 24  1  0
 24 25  2  0
 24 26  1  0
 26 27  2  0
 27 28  1  0
 28 29  2  0
 29 30  1  0
 30 31  2  0
 31 32  1  0
 32 33  2  0
 16 34  2  0
 34 35  1  0
 35 36  1  0
 36 37  2  0
 37 38  1  0
 38 39  2  0
 39 40  1  0
 40 41  2  0
 35 42  2  0
 12 43  1  0
 43 44  2  0
 44 45  1  0
 45 46  2  0
 46  2  1  0
  8  3  1  0
 46 11  1  0
 42 14  1  0
 23 18  1  0
 31 26  1  0
 41 36  1  0
 32 22  1  0
  4 47  1  0
  5 48  1  0
  6 49  1  0
  7 50  1  0
 13 51  1  0
 17 52  1  0
 19 53  1  0
 20 54  1  0
 21 55  1  0
 27 56  1  0
 28 57  1  0
 29 58  1  0
 30 59  1  0
 37 60  1  0
 38 61  1  0
 39 62  1  0
 40 63  1  0
 41 64  1  0
 43 65  1  0
 44 66  1  0
 45 67  1  0
M  END
>  <Binding energies>  (1) 
[-10.32]

>  <Ligand effiencies>  (1) 
[-0.215]

>  <Interactions>  (1) 
["V-B:TYR:539:CA:9841, V-B:PRO:540:CA:9855, V-A:GLU:543:CA:4904, V-B:GLU:543:C:9874, V-B:GLU:543:CB:9878, V-B:TYR:539:CE2:9848, V-B:LEU:475:CD2:9230, V-B:GLU:543:CG:9879, V-B:TYR:539:C:9839, V-A:TYR:539:CD1:4873, V-A:LEU:363:CD1:3189, V-B:TYR:539:CZ:9849, H-B:GLU:543:OE1:9881, V-A:GLU:543:CD:4908, H-B:TYR:484:OH:9319, V-B:HIS:456:CE1:9041, V-B:PRO:540:N:9856, V-B:TYR:539:CD2:9846, V-A:GLU:543:CG:4907, V-B:GLU:543:CD:9880, V-A:TYR:539:C:4867, V-B:TYR:539:CG:9844, V-A:GLU:543:CB:4906, V-B:TYR:539:CD1:9845, V-A:PRO:540:N:4884, H-A:TYR:539:N:4870, V-A:PRO:540:CB:4885, V-A:PRO:540:CA:4883, V-A:LEU:363:CA:3185, V-B:MET:535:CE:9807, V-A:PRO:540:CD:4887, V-A:TYR:539:CE1:4875"]

$$$$
ZINC814274069
     RDKit          3D

 39 41  0  0  0  0  0  0  0  0999 V2000
  132.4270  125.8320   61.2300 C   0  0  0  0  0  0  0  0  0  0  0  0
  133.1620  124.5530   61.2870 N   0  0  0  0  0  0  0  0  0  0  0  0
  134.1430  124.3450   60.2010 C   0  0  0  0  0  0  0  0  0  0  0  0
  133.6630  124.0210   62.9020 S   0  0  0  0  0  0  0  0  0  0  0  0
  134.2130  122.6660   62.7740 O   0  0  0  0  0  0  0  0  0  0  0  0
  134.4640  125.0940   63.5030 O   0  0  0  0  0  0  0  0  0  0  0  0
  132.1450  123.9120   63.8440 C   0  0  0  0  0  0  0  0  0  0  0  0
  131.6450  122.6630   64.2240 C   0  0  0  0  0  0  0  0  0  0  0  0
  130.4750  122.5750   64.9780 C   0  0  0  0  0  0  0  0  0  0  0  0
  129.8030  123.7340   65.3650 C   0  0  0  0  0  0  0  0  0  0  0  0
  130.3070  124.9890   65.0010 C   0  0  0  0  0  0  0  0  0  0  0  0
  129.6340  126.1690   65.3940 N   0  0  0  0  0  0  0  0  0  0  0  0
  129.4930  126.4630   66.7160 C   0  0  0  0  0  0  0  0  0  0  0  0
  129.9490  125.7680   67.6290 O   0  0  0  0  0  0  0  0  0  0  0  0
  128.7530  127.7000   66.8800 C   0  0  0  0  0  0  0  0  0  0  0  0
  128.4230  128.2650   68.0650 C   0  0  0  0  0  0  0  0  0  0  0  0
  128.6070  127.8180   69.4380 C   0  0  0  0  0  0  0  0  0  0  0  0
  129.7560  127.9130   70.2230 C   0  0  0  0  0  0  0  0  0  0  0  0
  129.6050  127.3520   71.4960 C   0  0  0  0  0  0  0  0  0  0  0  0
  130.9750  127.3370   72.8160 Br  0  0  0  0  0  0  0  0  0  0  0  0
  128.3460  126.8010   71.6810 C   0  0  0  0  0  0  0  0  0  0  0  0
  127.3430  126.9710   70.2770 S   0  0  0  0  0  0  0  0  0  0  0  0
  128.3750  128.3800   65.3050 S   0  0  0  0  0  0  0  0  0  0  0  0
  129.1130  127.0430   64.4750 C   0  0  0  0  0  0  0  0  0  0  0  0
  129.1000  127.0010   62.8030 S   0  0  0  0  0  0  0  0  0  0  0  0
  131.4760  125.0750   64.2340 C   0  0  0  0  0  0  0  0  0  0  0  0
  132.2245  126.1844   62.2522 H   0  0  0  0  0  0  0  0  0  0  0  0
  133.0331  126.5798   60.6977 H   0  0  0  0  0  0  0  0  0  0  0  0
  131.4757  125.6848   60.6977 H   0  0  0  0  0  0  0  0  0  0  0  0
  135.1317  124.1354   60.6352 H   0  0  0  0  0  0  0  0  0  0  0  0
  133.8274  123.4938   59.5798 H   0  0  0  0  0  0  0  0  0  0  0  0
  134.1999  125.2510   59.5798 H   0  0  0  0  0  0  0  0  0  0  0  0
  132.1762  121.7466   63.9273 H   0  0  0  0  0  0  0  0  0  0  0  0
  130.0816  121.5895   65.2680 H   0  0  0  0  0  0  0  0  0  0  0  0
  128.8778  123.6626   65.9557 H   0  0  0  0  0  0  0  0  0  0  0  0
  127.9242  129.2411   67.9736 H   0  0  0  0  0  0  0  0  0  0  0  0
  130.6883  128.3823   69.8758 H   0  0  0  0  0  0  0  0  0  0  0  0
  128.0210  126.3123   72.6114 H   0  0  0  0  0  0  0  0  0  0  0  0
  131.8678  126.0594   63.9384 H   0  0  0  0  0  0  0  0  0  0  0  0
  1  2  1  0
  2  3  1  0
  2  4  1  0
  4  5  2  0
  4  6  2  0
  4  7  1  0
  7  8  2  0
  8  9  1  0
  9 10  2  0
 10 11  1  0
 11 12  1  0
 12 13  1  0
 13 14  2  0
 13 15  1  0
 15 16  2  0
 16 17  1  0
 17 18  2  0
 18 19  1  0
 19 20  1  0
 19 21  2  0
 21 22  1  0
 15 23  1  0
 23 24  1  0
 24 25  2  0
 11 26  2  0
 26  7  1  0
 24 12  1  0
 22 17  1  0
  1 27  1  0
  1 28  1  0
  1 29  1  0
  3 30  1  0
  3 31  1  0
  3 32  1  0
  8 33  1  0
  9 34  1  0
 10 35  1  0
 16 36  1  0
 18 37  1  0
 21 38  1  0
 26 39  1  0
M  END
>  <Binding energies>  (1) 
[-8.28]

>  <Ligand effiencies>  (1) 
[-0.31846153846153846]

>  <Interactions>  (1) 
["V-A:ILE:369:CG2:3237, V-A:ASP:366:CA:3210, V-A:GLY:454:CA:4049, V-B:GLU:543:C:9874, V-A:ILE:369:CB:3236, V-B:GLU:543:CB:9878, H-A:ARG:545:NH1:4927, V-A:TYR:484:CE2:4346, V-B:GLU:543:CG:9879, V-A:GLY:544:C:4912, V-A:ASP:366:CG:3213, V-A:HIS:456:CD2:4068, V-A:TYR:484:CZ:4347, V-A:GLU:543:CD:4908, V-B:HIS:456:CE1:9041, H-A:GLY:454:N:4050, V-A:ILE:369:CD1:3239, V-A:HIS:456:CE1:4070, V-B:GLY:544:C:9884, V-A:GLU:543:CG:4907, V-B:GLU:543:CD:9880, V-A:ASP:366:CB:3212, V-A:LEU:475:CD2:4259, H-A:ARG:545:NH2:4928, V-A:GLU:543:CB:4906, H-A:ARG:545:NE:4924"]

$$$$
ZINC82139922
     RDKit          3D

 87 92  0  0  0  0  0  0  0  0999 V2000
  129.0610  129.4660   73.7450 C   0  0  0  0  0  0  0  0  0  0  0  0
  130.1580  128.7920   73.1310 O   0  0  0  0  0  0  0  0  0  0  0  0
  130.0160  128.2770   71.8550 C   0  0  0  0  0  0  0  0  0  0  0  0
  128.8410  127.5950   71.5410 C   0  0  0  0  0  0  0  0  0  0  0  0
  128.6890  127.0690   70.2570 C   0  0  0  0  0  0  0  0  0  0  0  0
  129.7020  127.2240   69.2980 C   0  0  0  0  0  0  0  0  0  0  0  0
  129.5700  126.6660   67.9190 C   0  0  0  0  0  0  0  0  0  0  0  0
  129.9110  125.3340   67.6480 C   0  0  0  0  0  0  0  0  0  0  0  0
  129.7990  124.8150   66.3620 C   0  0  0  0  0  0  0  0  0  0  0  0
  129.3460  125.6240   65.3180 C   0  0  0  0  0  0  0  0  0  0  0  0
  129.2320  125.0470   63.9080 C   0  0  0  0  0  0  0  0  0  0  0  0
  129.6250  125.9870   62.8500 N   0  0  0  0  0  0  0  0  0  0  0  0
  130.6910  125.8540   61.9670 C   0  0  0  0  0  0  0  0  0  0  0  0
  131.7290  124.7310   62.0920 C   0  0  0  0  0  0  0  0  0  0  0  0
  132.5340  124.6570   63.4400 C   0  0  0  0  0  0  0  0  0  0  0  0
  132.1600  125.8270   64.4020 C   0  0  0  0  0  0  0  0  0  0  0  0
  132.1360  123.3380   64.1680 C   0  0  0  0  0  0  0  0  0  0  0  0
  134.0820  124.6500   63.1300 C   0  0  0  0  0  0  0  0  0  0  0  0
  134.4670  124.2250   62.0150 O   0  0  0  0  0  0  0  0  0  0  0  0
  134.8810  125.1100   63.9820 O   0  0  0  0  0  0  0  0  0  0  0  0
  130.5840  126.8520   61.0010 C   0  0  0  0  0  0  0  0  0  0  0  0
  131.6120  127.0850   59.5850 S   0  0  0  0  0  0  0  0  0  0  0  0
  131.2460  125.5760   58.6090 C   0  0  0  0  0  0  0  0  0  0  0  0
  132.5130  124.6960   58.6360 C   0  0  0  0  0  0  0  0  0  0  0  0
  130.0790  124.7640   59.2120 C   0  0  0  0  0  0  0  0  0  0  0  0
  130.9200  125.9130   57.1370 C   0  0  0  0  0  0  0  0  0  0  0  0
  129.4860  127.6910   61.3770 C   0  0  0  0  0  0  0  0  0  0  0  0
  128.9250  128.8600   60.8380 C   0  0  0  0  0  0  0  0  0  0  0  0
  127.7900  129.4240   61.4160 C   0  0  0  0  0  0  0  0  0  0  0  0
  127.2960  130.5600   60.8050 O   0  0  0  0  0  0  0  0  0  0  0  0
  127.6920  131.8430   61.2820 C   0  0  0  0  0  0  0  0  0  0  0  0
  129.1940  131.8440   61.4970 C   0  0  0  0  0  0  0  0  0  0  0  0
  129.7530  132.0670   62.7560 C   0  0  0  0  0  0  0  0  0  0  0  0
  131.0960  132.0890   62.9490 N   0  0  0  0  0  0  0  0  0  0  0  0
  131.8910  131.8870   61.8610 C   0  0  0  0  0  0  0  0  0  0  0  0
  133.2980  131.9030   62.0030 C   0  0  0  0  0  0  0  0  0  0  0  0
  134.1120  131.6960   60.8900 C   0  0  0  0  0  0  0  0  0  0  0  0
  133.5550  131.4720   59.6330 C   0  0  0  0  0  0  0  0  0  0  0  0
  132.1730  131.4500   59.4590 C   0  0  0  0  0  0  0  0  0  0  0  0
  131.3190  131.6580   60.5690 C   0  0  0  0  0  0  0  0  0  0  0  0
  129.9670  131.6380   60.3980 N   0  0  0  0  0  0  0  0  0  0  0  0
  127.2180  128.8230   62.5450 C   0  0  0  0  0  0  0  0  0  0  0  0
  127.7440  127.6660   63.1190 C   0  0  0  0  0  0  0  0  0  0  0  0
  128.8860  127.1120   62.5250 C   0  0  0  0  0  0  0  0  0  0  0  0
  128.9890  126.9490   65.5780 C   0  0  0  0  0  0  0  0  0  0  0  0
  129.1040  127.4640   66.8650 C   0  0  0  0  0  0  0  0  0  0  0  0
  130.8480  127.9260   69.7010 C   0  0  0  0  0  0  0  0  0  0  0  0
  131.0170  128.4460   70.9440 N   0  0  0  0  0  0  0  0  0  0  0  0
  129.1594  129.4056   74.8389 H   0  0  0  0  0  0  0  0  0  0  0  0
  129.0590  130.5213   73.4348 H   0  0  0  0  0  0  0  0  0  0  0  0
  128.1187  128.9909   73.4348 H   0  0  0  0  0  0  0  0  0  0  0  0
  128.0471  127.4735   72.2926 H   0  0  0  0  0  0  0  0  0  0  0  0
  127.7676  126.5285   69.9946 H   0  0  0  0  0  0  0  0  0  0  0  0
  130.2722  124.6899   68.4633 H   0  0  0  0  0  0  0  0  0  0  0  0
  130.0676  123.7662   66.1675 H   0  0  0  0  0  0  0  0  0  0  0  0
  129.8798  124.1604   63.8425 H   0  0  0  0  0  0  0  0  0  0  0  0
  128.1712  124.8059   63.7450 H   0  0  0  0  0  0  0  0  0  0  0  0
  131.2009  123.7742   61.9668 H   0  0  0  0  0  0  0  0  0  0  0  0
  132.4812  124.9469   61.3190 H   0  0  0  0  0  0  0  0  0  0  0  0
  132.2668  125.4929   65.4446 H   0  0  0  0  0  0  0  0  0  0  0  0
  132.8303  126.6800   64.2198 H   0  0  0  0  0  0  0  0  0  0  0  0
  131.1193  126.1330   64.2198 H   0  0  0  0  0  0  0  0  0  0  0  0
  132.1823  123.4915   65.2563 H   0  0  0  0  0  0  0  0  0  0  0  0
  131.1125  123.0552   63.8808 H   0  0  0  0  0  0  0  0  0  0  0  0
  132.8322  122.5362   63.8808 H   0  0  0  0  0  0  0  0  0  0  0  0
  132.7992  124.4972   59.6793 H   0  0  0  0  0  0  0  0  0  0  0  0
  132.3092  123.7440   58.1240 H   0  0  0  0  0  0  0  0  0  0  0  0
  133.3339  125.2194   58.1240 H   0  0  0  0  0  0  0  0  0  0  0  0
  130.1343  124.8025   60.3099 H   0  0  0  0  0  0  0  0  0  0  0  0
  129.1227  125.1928   58.8778 H   0  0  0  0  0  0  0  0  0  0  0  0
  130.1487  123.7183   58.8778 H   0  0  0  0  0  0  0  0  0  0  0  0
  130.1556  126.7032   57.1024 H   0  0  0  0  0  0  0  0  0  0  0  0
  131.8317  126.2623   56.6302 H   0  0  0  0  0  0  0  0  0  0  0  0
  130.5406  125.0134   56.6302 H   0  0  0  0  0  0  0  0  0  0  0  0
  129.3833  129.3319   59.9564 H   0  0  0  0  0  0  0  0  0  0  0  0
  127.4242  132.6112   60.5416 H   0  0  0  0  0  0  0  0  0  0  0  0
  127.1792  132.0634   62.2299 H   0  0  0  0  0  0  0  0  0  0  0  0
  129.0865  132.2295   63.6159 H   0  0  0  0  0  0  0  0  0  0  0  0
  133.7497  132.0786   62.9905 H   0  0  0  0  0  0  0  0  0  0  0  0
  135.2058  131.7097   61.0058 H   0  0  0  0  0  0  0  0  0  0  0  0
  134.2143  131.3106   58.7674 H   0  0  0  0  0  0  0  0  0  0  0  0
  131.7460  131.2714   58.4611 H   0  0  0  0  0  0  0  0  0  0  0  0
  126.3235  129.2794   62.9940 H   0  0  0  0  0  0  0  0  0  0  0  0
  127.2803  127.2059   64.0040 H   0  0  0  0  0  0  0  0  0  0  0  0
  128.6160  127.5868   64.7631 H   0  0  0  0  0  0  0  0  0  0  0  0
  128.8258  128.5106   67.0581 H   0  0  0  0  0  0  0  0  0  0  0  0
  131.6563  128.0631   68.9676 H   0  0  0  0  0  0  0  0  0  0  0  0
  1  2  1  0
  2  3  1  0
  3  4  2  0
  4  5  1  0
  5  6  2  0
  6  7  1  0
  7  8  2  0
  8  9  1  0
  9 10  2  0
 10 11  1  0
 11 12  1  0
 12 13  1  0
 13 14  1  0
 14 15  1  0
 15 16  1  0
 15 17  1  0
 15 18  1  0
 18 19  2  0
 18 20  1  0
 13 21  2  0
 21 22  1  0
 22 23  1  0
 23 24  1  0
 23 25  1  0
 23 26  1  0
 21 27  1  0
 27 28  2  0
 28 29  1  0
 29 30  1  0
 30 31  1  0
 31 32  1  0
 32 33  2  0
 33 34  1  0
 34 35  2  0
 35 36  1  0
 36 37  2  0
 37 38  1  0
 38 39  2  0
 39 40  1  0
 40 41  2  0
 29 42  2  0
 42 43  1  0
 43 44  2  0
 10 45  1  0
 45 46  2  0
  6 47  1  0
 47 48  2  0
 48  3  1  0
 46  7  1  0
 44 12  1  0
 44 27  1  0
 41 32  1  0
 40 35  1  0
  1 49  1  0
  1 50  1  0
  1 51  1  0
  4 52  1  0
  5 53  1  0
  8 54  1  0
  9 55  1  0
 11 56  1  0
 11 57  1  0
 14 58  1  0
 14 59  1  0
 16 60  1  0
 16 61  1  0
 16 62  1  0
 17 63  1  0
 17 64  1  0
 17 65  1  0
 24 66  1  0
 24 67  1  0
 24 68  1  0
 25 69  1  0
 25 70  1  0
 25 71  1  0
 26 72  1  0
 26 73  1  0
 26 74  1  0
 28 75  1  0
 31 76  1  0
 31 77  1  0
 33 78  1  0
 36 79  1  0
 37 80  1  0
 38 81  1  0
 39 82  1  0
 42 83  1  0
 43 84  1  0
 45 85  1  0
 46 86  1  0
 47 87  1  0
M  CHG  1  20  -1
M  END
>  <Binding energies>  (1) 
[-9.26]

>  <Ligand effiencies>  (1) 
[-0.19291666666666665]

>  <Interactions>  (1) 
["V-B:HIS:456:CD2:9039, V-A:GLU:543:C:4902, H-A:ALA:541:N:4891, V-B:GLU:543:CB:9878, V-A:PRO:540:C:4881, H-A:ARG:545:NH1:4927, V-A:TYR:484:CE2:4346, V-B:TYR:539:CE2:9848, V-B:GLU:543:CG:9879, V-A:GLY:544:C:4912, V-A:ASP:366:CG:3213, H-A:ARG:545:N:4920, V-A:ASN:362:CB:3176, V-A:LEU:363:CB:3187, V-A:LEU:363:CD1:3189, V-B:TYR:539:CZ:9849, V-A:ALA:541:CB:4892, V-A:GLU:543:CD:4908, V-B:HIS:456:CE1:9041, V-B:GLU:543:CA:9876, H-A:GLY:454:N:4050, V-A:GLY:453:C:4042, V-A:HIS:456:CE1:4070, V-A:GLU:543:CG:4907, V-B:GLU:543:CD:9880, V-A:ASP:366:CB:3212, H-A:LYS:547:NZ:4951, H-A:ARG:545:NH2:4928, V-A:ARG:545:CZ:4926, V-A:LEU:475:CD2:4259, V-A:ASN:362:C:3172, V-A:GLU:543:CB:4906, V-A:GLY:453:CA:4044, V-A:PRO:540:CA:4883, V-A:PRO:540:CB:4885, V-A:LEU:363:CA:3185, V-A:ASN:362:CA:3174, H-A:ARG:545:NE:4924"]

$$$$
ZINC823242499
     RDKit          3D

 40 39  0  0  0  0  0  0  0  0999 V2000
  133.6170  124.3560   58.7830 C   0  0  0  0  0  0  0  0  0  0  0  0
  134.3050  124.3510   60.1550 C   0  0  0  0  0  0  0  0  0  0  0  0
  133.3430  124.7230   61.3060 C   0  0  0  0  0  0  0  0  0  0  0  0
  133.0420  123.6060   62.3460 C   0  0  1  0  0  0  0  0  0  0  0  0
  134.0740  122.4450   62.2600 C   0  0  0  0  0  0  0  0  0  0  0  0
  133.6160  121.2440   61.4120 C   0  0  0  0  0  0  0  0  0  0  0  0
  132.8810  124.1820   63.7840 C   0  0  0  0  0  0  0  0  0  0  0  0
  133.8660  124.7260   64.2910 O   0  0  0  0  0  0  0  0  0  0  0  0
  131.6940  124.0750   64.4510 N   0  0  0  0  0  0  0  0  0  0  0  0
  130.9120  122.8270   64.3580 C   0  0  0  0  0  0  0  0  0  0  0  0
  131.0590  125.1910   65.2010 C   0  0  2  0  0  0  0  0  0  0  0  0
  130.2730  124.7200   66.4560 C   0  0  0  0  0  0  0  0  0  0  0  0
  129.8540  125.8550   67.4040 C   0  0  0  0  0  0  0  0  0  0  0  0
  130.2340  126.1330   64.2790 C   0  0  0  0  0  0  0  0  0  0  0  0
  131.0090  126.7790   63.2900 O   0  0  0  0  0  0  0  0  0  0  0  0
  132.5256  124.3639   58.9201 H   0  0  0  0  0  0  0  0  0  0  0  0
  133.9227  125.2519   58.2228 H   0  0  0  0  0  0  0  0  0  0  0  0
  133.9096  123.4557   58.2228 H   0  0  0  0  0  0  0  0  0  0  0  0
  134.7068  123.3445   60.3435 H   0  0  0  0  0  0  0  0  0  0  0  0
  135.1018  125.1089   60.1299 H   0  0  0  0  0  0  0  0  0  0  0  0
  133.7822  125.5741   61.8470 H   0  0  0  0  0  0  0  0  0  0  0  0
  132.3789  124.9384   60.8221 H   0  0  0  0  0  0  0  0  0  0  0  0
  132.0681  123.1644   62.0881 H   0  0  0  0  0  0  0  0  0  0  0  0
  135.0013  122.8416   61.8210 H   0  0  0  0  0  0  0  0  0  0  0  0
  134.2090  122.0702   63.2854 H   0  0  0  0  0  0  0  0  0  0  0  0
  133.3034  120.4244   62.0758 H   0  0  0  0  0  0  0  0  0  0  0  0
  132.7695  121.5449   60.7772 H   0  0  0  0  0  0  0  0  0  0  0  0
  134.4479  120.9048   60.7772 H   0  0  0  0  0  0  0  0  0  0  0  0
  130.6830  122.4615   65.3699 H   0  0  0  0  0  0  0  0  0  0  0  0
  129.9740  123.0215   63.8174 H   0  0  0  0  0  0  0  0  0  0  0  0
  131.4961  122.0677   63.8174 H   0  0  0  0  0  0  0  0  0  0  0  0
  131.8867  125.7993   65.5945 H   0  0  0  0  0  0  0  0  0  0  0  0
  129.3642  124.2004   66.1181 H   0  0  0  0  0  0  0  0  0  0  0  0
  130.9517  124.0685   67.0260 H   0  0  0  0  0  0  0  0  0  0  0  0
  129.9756  125.5257   68.4465 H   0  0  0  0  0  0  0  0  0  0  0  0
  130.4858  126.7368   67.2220 H   0  0  0  0  0  0  0  0  0  0  0  0
  128.8007  126.1147   67.2220 H   0  0  0  0  0  0  0  0  0  0  0  0
  129.4579  125.5362   63.7775 H   0  0  0  0  0  0  0  0  0  0  0  0
  129.8089  126.9196   64.9198 H   0  0  0  0  0  0  0  0  0  0  0  0
  131.0190  127.7210   63.4750 H   0  0  0  0  0  0  0  0  0  0  0  0
  1  2  1  0
  2  3  1  0
  3  4  1  0
  4  5  1  0
  5  6  1  0
  4  7  1  0
  7  8  2  0
  7  9  1  0
  9 10  1  0
  9 11  1  0
 11 12  1  0
 12 13  1  0
 11 14  1  0
 14 15  1  0
  1 16  1  0
  1 17  1  0
  1 18  1  0
  2 19  1  0
  2 20  1  0
  3 21  1  0
  3 22  1  0
  4 23  1  6
  5 24  1  0
  5 25  1  0
  6 26  1  0
  6 27  1  0
  6 28  1  0
 10 29  1  0
 10 30  1  0
 10 31  1  0
 11 32  1  1
 12 33  1  0
 12 34  1  0
 13 35  1  0
 13 36  1  0
 13 37  1  0
 14 38  1  0
 14 39  1  0
 15 40  1  0
M  END
>  <Binding energies>  (1) 
[-4.43]

>  <Ligand effiencies>  (1) 
[-0.276875]

>  <Interactions>  (1) 
["V-A:ILE:369:CG2:3237, V-A:ASP:366:CA:3210, V-A:GLY:454:CA:4049, H-A:GLU:543:OE2:4910, V-A:ILE:369:CB:3236, V-B:GLU:543:CB:9878, V-B:TYR:539:CE2:9848, V-A:TYR:484:CE2:4346, V-B:GLU:543:CG:9879, V-A:ASP:366:CG:3213, V-A:TYR:484:CZ:4347, V-A:GLU:543:CD:4908, H-A:GLY:454:N:4050, V-A:SER:385:C:3405, V-A:ILE:369:CD1:3239, V-A:HIS:456:CE1:4070, V-A:ASP:366:C:3208, V-A:SER:385:CB:3409, V-A:ASP:366:CB:3212, V-A:LEU:475:CD2:4259, H-A:ARG:545:NH2:4928, H-A:GLU:543:OE1:4909, H-A:ARG:545:NE:4924, V-A:SER:385:CA:3407, H-A:TYR:484:OH:4348"]

$$$$
ZINC824567080
     RDKit          3D

 69 75  0  0  0  0  0  0  0  0999 V2000
  131.4710  133.3540   57.0980 C   0  0  0  0  0  0  0  0  0  0  0  0
  130.0890  133.2640   57.4320 O   0  0  0  0  0  0  0  0  0  0  0  0
  129.6940  132.4590   58.4860 C   0  0  0  0  0  0  0  0  0  0  0  0
  129.0720  132.9450   59.6550 C   0  0  0  0  0  0  0  0  0  0  0  0
  128.6920  132.0780   60.6970 C   0  0  0  0  0  0  0  0  0  0  0  0
  128.0790  132.4730   61.8700 O   0  0  0  0  0  0  0  0  0  0  0  0
  128.8450  132.5270   63.0680 C   0  0  0  0  0  0  0  0  0  0  0  0
  128.9450  130.7120   60.5480 C   0  0  0  0  0  0  0  0  0  0  0  0
  129.5520  130.2330   59.4020 C   0  0  0  0  0  0  0  0  0  0  0  0
  129.9320  131.0830   58.3650 C   0  0  0  0  0  0  0  0  0  0  0  0
  130.6860  130.4330   56.9500 Cl  0  0  0  0  0  0  0  0  0  0  0  0
  129.7300  128.8750   59.3840 O   0  0  0  0  0  0  0  0  0  0  0  0
  129.2240  128.3540   60.6220 C   0  0  2  0  0  0  0  0  0  0  0  0
  128.6880  129.5620   61.4210 C   0  0  0  0  0  0  0  0  0  0  0  0
  128.1540  129.5520   62.5310 O   0  0  0  0  0  0  0  0  0  0  0  0
  130.3220  127.5850   61.4110 C   0  0  0  0  0  0  0  0  0  0  0  0
  131.5050  128.1150   61.3910 O   0  0  0  0  0  0  0  0  0  0  0  0
  130.0840  126.4300   62.1150 C   0  0  0  0  0  0  0  0  0  0  0  0
  128.7110  125.8740   62.1890 C   0  0  0  0  0  0  0  0  0  0  0  0
  128.4150  124.8390   62.8850 N   0  0  0  0  0  0  0  0  0  0  0  0
  129.3210  124.1750   63.6460 C   0  0  0  0  0  0  0  0  0  0  0  0
  129.0760  123.1560   64.4530 N   0  0  0  0  0  0  0  0  0  0  0  0
  130.2600  122.8960   64.9770 C   0  0  0  0  0  0  0  0  0  0  0  0
  131.2430  123.7430   64.5180 N   0  0  0  0  0  0  0  0  0  0  0  0
  130.6450  124.5660   63.6610 N   0  0  0  0  0  0  0  0  0  0  0  0
  131.2310  125.6560   62.8810 C   0  0  1  0  0  0  0  0  0  0  0  0
  132.3740  125.1240   61.9980 C   0  0  0  0  0  0  0  0  0  0  0  0
  133.6080  124.8240   62.5890 C   0  0  0  0  0  0  0  0  0  0  0  0
  134.6650  124.3420   61.8230 C   0  0  0  0  0  0  0  0  0  0  0  0
  134.5000  124.1520   60.4540 C   0  0  0  0  0  0  0  0  0  0  0  0
  133.2770  124.4430   59.8510 C   0  0  0  0  0  0  0  0  0  0  0  0
  132.2020  124.9310   60.6140 C   0  0  0  0  0  0  0  0  0  0  0  0
  130.9650  125.2290   60.0770 O   0  0  0  0  0  0  0  0  0  0  0  0
  130.2790  124.2810   59.2700 C   0  0  0  0  0  0  0  0  0  0  0  0
  129.9390  123.0760   60.1300 C   0  0  0  0  0  0  0  0  0  0  0  0
  128.6220  122.8070   60.5170 C   0  0  0  0  0  0  0  0  0  0  0  0
  128.3820  121.7100   61.3470 C   0  0  0  0  0  0  0  0  0  0  0  0
  129.4510  120.9150   61.7630 C   0  0  0  0  0  0  0  0  0  0  0  0
  130.7360  121.2460   61.3280 C   0  0  0  0  0  0  0  0  0  0  0  0
  130.9900  122.3070   60.5220 N   0  0  0  0  0  0  0  0  0  0  0  0
  127.5710  126.5260   61.4030 C   0  0  0  0  0  0  0  0  0  0  0  0
  128.0870  127.3650   60.2110 C   0  0  1  0  0  0  0  0  0  0  0  0
  126.8910  127.9290   59.4120 C   0  0  0  0  0  0  0  0  0  0  0  0
  132.0693  133.3930   58.0202 H   0  0  0  0  0  0  0  0  0  0  0  0
  131.7637  132.4730   56.5079 H   0  0  0  0  0  0  0  0  0  0  0  0
  131.6470  134.2655   56.5079 H   0  0  0  0  0  0  0  0  0  0  0  0
  128.8799  134.0235   59.7545 H   0  0  0  0  0  0  0  0  0  0  0  0
  128.1714  132.4795   63.9363 H   0  0  0  0  0  0  0  0  0  0  0  0
  129.5410  131.6757   63.0969 H   0  0  0  0  0  0  0  0  0  0  0  0
  129.4147  133.4675   63.0969 H   0  0  0  0  0  0  0  0  0  0  0  0
  130.4411  122.0892   65.7024 H   0  0  0  0  0  0  0  0  0  0  0  0
  132.2300  123.8050   64.7180 H   0  0  0  0  0  0  0  0  0  0  0  0
  131.7071  126.4032   63.5330 H   0  0  0  0  0  0  0  0  0  0  0  0
  133.7430  124.9711   63.6707 H   0  0  0  0  0  0  0  0  0  0  0  0
  135.6296  124.1114   62.2987 H   0  0  0  0  0  0  0  0  0  0  0  0
  135.3352  123.7719   59.8473 H   0  0  0  0  0  0  0  0  0  0  0  0
  133.1523  124.2894   58.7689 H   0  0  0  0  0  0  0  0  0  0  0  0
  129.3548  124.7285   58.8755 H   0  0  0  0  0  0  0  0  0  0  0  0
  130.9129  123.9752   58.4246 H   0  0  0  0  0  0  0  0  0  0  0  0
  127.7939  123.4453   60.1752 H   0  0  0  0  0  0  0  0  0  0  0  0
  127.3575  121.4741   61.6707 H   0  0  0  0  0  0  0  0  0  0  0  0
  129.2851  120.0474   62.4186 H   0  0  0  0  0  0  0  0  0  0  0  0
  131.5792  120.6188   61.6532 H   0  0  0  0  0  0  0  0  0  0  0  0
  126.9084  125.7362   61.0195 H   0  0  0  0  0  0  0  0  0  0  0  0
  127.0352  127.2028   62.0849 H   0  0  0  0  0  0  0  0  0  0  0  0
  128.6181  126.7280   59.4884 H   0  0  0  0  0  0  0  0  0  0  0  0
  126.1220  128.2916   60.1100 H   0  0  0  0  0  0  0  0  0  0  0  0
  127.2328  128.7608   58.7786 H   0  0  0  0  0  0  0  0  0  0  0  0
  126.4666  127.1361   58.7786 H   0  0  0  0  0  0  0  0  0  0  0  0
  1  2  1  0
  2  3  1  0
  3  4  2  0
  4  5  1  0
  5  6  1  0
  6  7  1  0
  5  8  2  0
  8  9  1  0
  9 10  2  0
 10 11  1  0
  9 12  1  0
 13 12  1  6
 13 14  1  0
 14 15  2  0
 13 16  1  0
 16 17  1  0
 16 18  2  0
 18 19  1  0
 19 20  2  0
 20 21  1  0
 21 22  2  0
 22 23  1  0
 23 24  2  0
 24 25  1  0
 25 26  1  0
 26 27  1  0
 27 28  2  0
 28 29  1  0
 29 30  2  0
 30 31  1  0
 31 32  2  0
 32 33  1  0
 33 34  1  0
 34 35  1  0
 35 36  2  0
 36 37  1  0
 37 38  2  0
 38 39  1  0
 39 40  2  0
 19 41  1  0
 41 42  1  0
 42 43  1  0
 10  3  1  0
 42 13  1  0
 14  8  1  0
 26 18  1  0
 32 27  1  0
 40 35  1  0
 25 21  1  0
  1 44  1  0
  1 45  1  0
  1 46  1  0
  4 47  1  0
  7 48  1  0
  7 49  1  0
  7 50  1  0
 23 51  1  0
 24 52  1  0
 26 53  1  1
 28 54  1  0
 29 55  1  0
 30 56  1  0
 31 57  1  0
 34 58  1  0
 34 59  1  0
 36 60  1  0
 37 61  1  0
 38 62  1  0
 39 63  1  0
 41 64  1  0
 41 65  1  0
 42 66  1  6
 43 67  1  0
 43 68  1  0
 43 69  1  0
M  CHG  2  17  -1  24   1
M  END
>  <Binding energies>  (1) 
[-5.69]

>  <Ligand effiencies>  (1) 
[-0.12931818181818183]

>  <Interactions>  (1) 
["V-A:ILE:369:CG2:3237, V-A:ASP:366:CA:3210, V-B:PRO:540:CA:9855, V-A:PRO:540:CG:4886, V-A:ILE:369:CB:3236, V-A:ILE:538:CB:4862, V-B:ALA:541:CB:9864, V-B:TYR:539:CE2:9848, V-A:TYR:484:CE2:4346, V-B:GLU:543:CG:9879, V-B:TYR:539:C:9839, V-A:ASP:366:CG:3213, V-A:TYR:539:CD1:4873, V-A:LEU:363:CD1:3189, V-B:TYR:539:CZ:9849, V-A:ILE:538:CA:4860, V-A:ALA:541:CB:4892, V-A:TYR:484:CZ:4347, V-A:ILE:369:CD1:3239, V-B:TYR:539:CD2:9846, V-A:TYR:531:CZ:4794, V-B:GLU:543:CD:9880, V-A:MET:535:CE:4835, V-A:ILE:369:CG1:3238, V-A:ASP:366:CB:3212, V-A:TYR:539:C:4867, V-A:LEU:475:CD2:4259, H-A:ARG:545:NH2:4928, V-A:ARG:545:CZ:4926, V-A:PRO:540:N:4884, H-A:TYR:539:N:4870, V-A:GLY:453:CA:4044, V-A:PRO:540:CA:4883, V-A:PRO:540:CB:4885, V-B:PRO:540:C:9853, V-B:ALA:541:CA:9862, V-A:PRO:540:CD:4887, H-A:TYR:484:OH:4348"]

$$$$
ZINC824567080-again1
     RDKit          3D

 68 74  0  0  0  0  0  0  0  0999 V2000
  132.8320  120.5730   60.1150 C   0  0  0  0  0  0  0  0  0  0  0  0
  132.4480  121.2600   61.3020 O   0  0  0  0  0  0  0  0  0  0  0  0
  131.4920  122.2570   61.2350 C   0  0  0  0  0  0  0  0  0  0  0  0
  130.2090  122.0770   60.6750 C   0  0  0  0  0  0  0  0  0  0  0  0
  129.2750  123.1290   60.6300 C   0  0  0  0  0  0  0  0  0  0  0  0
  128.0020  123.0360   60.1000 O   0  0  0  0  0  0  0  0  0  0  0  0
  127.8390  123.0360   58.6860 C   0  0  0  0  0  0  0  0  0  0  0  0
  129.6460  124.3690   61.1560 C   0  0  0  0  0  0  0  0  0  0  0  0
  130.9030  124.5480   61.7040 C   0  0  0  0  0  0  0  0  0  0  0  0
  131.8350  123.5140   61.7560 C   0  0  0  0  0  0  0  0  0  0  0  0
  133.3920  123.7880   62.4580 Cl  0  0  0  0  0  0  0  0  0  0  0  0
  131.1310  125.8110   62.1900 O   0  0  0  0  0  0  0  0  0  0  0  0
  129.9500  126.5890   61.9450 C   0  0  2  0  0  0  0  0  0  0  0  0
  128.9330  125.6450   61.2660 C   0  0  0  0  0  0  0  0  0  0  0  0
  127.7830  125.9060   60.9130 O   0  0  0  0  0  0  0  0  0  0  0  0
  130.2540  127.8300   61.0580 C   0  0  0  0  0  0  0  0  0  0  0  0
  131.1130  127.6520   60.1040 O   0  0  0  0  0  0  0  0  0  0  0  0
  129.6500  129.0490   61.2340 C   0  0  0  0  0  0  0  0  0  0  0  0
  128.6380  129.2380   62.3000 C   0  0  0  0  0  0  0  0  0  0  0  0
  127.9980  130.3380   62.4580 N   0  0  0  0  0  0  0  0  0  0  0  0
  128.1040  131.3730   61.5830 C   0  0  0  0  0  0  0  0  0  0  0  0
  127.3200  132.4150   61.4750 N   0  0  0  0  0  0  0  0  0  0  0  0
  127.7800  132.9950   60.3750 C   0  0  0  0  0  0  0  0  0  0  0  0
  128.7740  132.4020   59.7470 N   0  0  0  0  0  0  0  0  0  0  0  0
  128.9930  131.3500   60.5420 N   0  0  0  0  0  0  0  0  0  0  0  0
  129.9990  130.3040   60.3420 C   0  0  1  0  0  0  0  0  0  0  0  0
  131.4220  130.8720   60.5160 C   0  0  0  0  0  0  0  0  0  0  0  0
  131.8260  131.2930   61.7900 C   0  0  0  0  0  0  0  0  0  0  0  0
  133.1030  131.8040   62.0010 C   0  0  0  0  0  0  0  0  0  0  0  0
  133.9970  131.8970   60.9390 C   0  0  0  0  0  0  0  0  0  0  0  0
  133.6130  131.4800   59.6680 C   0  0  0  0  0  0  0  0  0  0  0  0
  132.3250  130.9650   59.4380 C   0  0  0  0  0  0  0  0  0  0  0  0
  131.8940  130.5360   58.1970 O   0  0  0  0  0  0  0  0  0  0  0  0
  131.7720  131.4570   57.1190 C   0  0  0  0  0  0  0  0  0  0  0  0
  130.2970  131.7320   56.8910 C   0  0  0  0  0  0  0  0  0  0  0  0
  129.3480  130.7150   57.0350 C   0  0  0  0  0  0  0  0  0  0  0  0
  127.9990  131.0310   56.8570 C   0  0  0  0  0  0  0  0  0  0  0  0
  127.6360  132.3420   56.5420 C   0  0  0  0  0  0  0  0  0  0  0  0
  128.6430  133.3010   56.4170 C   0  0  0  0  0  0  0  0  0  0  0  0
  129.9590  133.0150   56.5880 N   0  0  0  0  0  0  0  0  0  0  0  0
  128.3320  128.1050   63.2820 C   0  0  0  0  0  0  0  0  0  0  0  0
  129.4740  127.0630   63.3550 C   0  0  1  0  0  0  0  0  0  0  0  0
  129.1230  125.9810   64.4010 C   0  0  0  0  0  0  0  0  0  0  0  0
  133.3526  119.6416   60.3825 H   0  0  0  0  0  0  0  0  0  0  0  0
  131.9360  120.3352   59.5229 H   0  0  0  0  0  0  0  0  0  0  0  0
  133.5040  121.2116   59.5229 H   0  0  0  0  0  0  0  0  0  0  0  0
  129.9333  121.0941   60.2652 H   0  0  0  0  0  0  0  0  0  0  0  0
  127.7970  121.9989   58.3217 H   0  0  0  0  0  0  0  0  0  0  0  0
  126.9048  123.5545   58.4246 H   0  0  0  0  0  0  0  0  0  0  0  0
  128.6892  123.5545   58.2189 H   0  0  0  0  0  0  0  0  0  0  0  0
  127.3480  133.9351   60.0015 H   0  0  0  0  0  0  0  0  0  0  0  0
  129.9798  129.9379   59.3049 H   0  0  0  0  0  0  0  0  0  0  0  0
  131.1247  131.2186   62.6342 H   0  0  0  0  0  0  0  0  0  0  0  0
  133.4052  132.1339   63.0059 H   0  0  0  0  0  0  0  0  0  0  0  0
  135.0071  132.3000   61.1039 H   0  0  0  0  0  0  0  0  0  0  0  0
  134.3256  131.5542   58.8333 H   0  0  0  0  0  0  0  0  0  0  0  0
  132.2905  132.3941   57.3701 H   0  0  0  0  0  0  0  0  0  0  0  0
  132.2240  131.0365   56.2086 H   0  0  0  0  0  0  0  0  0  0  0  0
  129.6570  129.6888   57.2830 H   0  0  0  0  0  0  0  0  0  0  0  0
  127.2287  130.2531   56.9642 H   0  0  0  0  0  0  0  0  0  0  0  0
  126.5801  132.6132   56.3956 H   0  0  0  0  0  0  0  0  0  0  0  0
  128.3574  134.3339   56.1690 H   0  0  0  0  0  0  0  0  0  0  0  0
  128.1824  128.5359   64.2830 H   0  0  0  0  0  0  0  0  0  0  0  0
  127.4285  127.5880   62.9266 H   0  0  0  0  0  0  0  0  0  0  0  0
  130.3966  127.5247   63.7366 H   0  0  0  0  0  0  0  0  0  0  0  0
  129.2563  126.3920   65.4126 H   0  0  0  0  0  0  0  0  0  0  0  0
  128.0771  125.6675   64.2675 H   0  0  0  0  0  0  0  0  0  0  0  0
  129.7857  125.1133   64.2675 H   0  0  0  0  0  0  0  0  0  0  0  0
  1  2  1  0
  2  3  1  0
  3  4  2  0
  4  5  1  0
  5  6  1  0
  6  7  1  0
  5  8  2  0
  8  9  1  0
  9 10  2  0
 10 11  1  0
  9 12  1  0
 13 12  1  1
 13 14  1  0
 14 15  2  0
 13 16  1  0
 16 17  1  0
 16 18  2  0
 18 19  1  0
 19 20  2  0
 20 21  1  0
 21 22  2  0
 22 23  1  0
 23 24  2  0
 24 25  1  0
 25 26  1  0
 26 27  1  0
 27 28  2  0
 28 29  1  0
 29 30  2  0
 30 31  1  0
 31 32  2  0
 32 33  1  0
 33 34  1  0
 34 35  1  0
 35 36  2  0
 36 37  1  0
 37 38  2  0
 38 39  1  0
 39 40  2  0
 19 41  1  0
 41 42  1  0
 42 43  1  0
 10  3  1  0
 42 13  1  0
 14  8  1  0
 26 18  1  0
 32 27  1  0
 40 35  1  0
 25 21  1  0
  1 44  1  0
  1 45  1  0
  1 46  1  0
  4 47  1  0
  7 48  1  0
  7 49  1  0
  7 50  1  0
 23 51  1  0
 26 52  1  6
 28 53  1  0
 29 54  1  0
 30 55  1  0
 31 56  1  0
 34 57  1  0
 34 58  1  0
 36 59  1  0
 37 60  1  0
 38 61  1  0
 39 62  1  0
 41 63  1  0
 41 64  1  0
 42 65  1  1
 43 66  1  0
 43 67  1  0
 43 68  1  0
M  CHG  1  17  -1
M  END
>  <Binding energies>  (1) 
[-6.57]

>  <Ligand effiencies>  (1) 
[-0.1527906976744186]

>  <Interactions>  (1) 
["V-A:ILE:369:CG2:3237, V-B:PRO:540:CA:9855, V-A:ILE:538:C:4858, H-A:TYR:531:OH:4795, V-B:TYR:539:CE2:9848, V-B:GLU:543:CG:9879, V-B:TYR:539:C:9839, V-A:TYR:539:CE2:4876, V-A:ASP:366:CG:3213, V-A:ASN:362:CB:3176, V-A:LEU:363:CB:3187, V-A:LEU:363:CD1:3189, V-A:TYR:539:CD1:4873, V-A:ILE:538:CA:4860, V-A:TYR:539:CZ:4877, V-A:GLU:543:CD:4908, V-B:PRO:540:N:9856, V-B:TYR:539:CD2:9846, V-A:SER:385:CB:3409, V-B:GLU:543:CD:9880, V-A:MET:535:CE:4835, V-A:LEU:475:CD2:4259, H-A:ARG:545:NH2:4928, V-A:ASN:362:C:3172, V-A:TYR:539:CG:4872, H-A:TYR:539:N:4870, V-A:PRO:540:CB:4885, V-A:PRO:540:CA:4883, V-A:LEU:363:CA:3185, V-A:TYR:539:CD2:4874, V-A:TYR:539:CE1:4875"]

$$$$
ZINC824567433
     RDKit          3D

 72 77  0  0  0  0  0  0  0  0999 V2000
  129.8530  119.6930   61.9430 C   0  0  0  0  0  0  0  0  0  0  0  0
  129.5650  120.8260   62.7540 O   0  0  0  0  0  0  0  0  0  0  0  0
  130.1390  122.0480   62.4490 C   0  0  0  0  0  0  0  0  0  0  0  0
  131.0280  122.7330   63.3030 C   0  0  0  0  0  0  0  0  0  0  0  0
  131.5830  123.9740   62.9390 C   0  0  0  0  0  0  0  0  0  0  0  0
  132.4570  124.7100   63.7170 O   0  0  0  0  0  0  0  0  0  0  0  0
  132.0500  125.1140   65.0190 C   0  0  0  0  0  0  0  0  0  0  0  0
  131.2320  124.5210   61.7020 C   0  0  0  0  0  0  0  0  0  0  0  0
  130.3580  123.8530   60.8650 C   0  0  0  0  0  0  0  0  0  0  0  0
  129.8050  122.6230   61.2140 C   0  0  0  0  0  0  0  0  0  0  0  0
  128.7200  121.8250   60.1270 Cl  0  0  0  0  0  0  0  0  0  0  0  0
  130.1070  124.5020   59.6840 O   0  0  0  0  0  0  0  0  0  0  0  0
  130.8300  125.7370   59.7030 C   0  0  2  0  0  0  0  0  0  0  0  0
  129.7610  126.8610   59.7070 C   0  0  0  0  0  0  0  0  0  0  0  0
  128.5890  126.6410   60.0260 O   0  0  0  0  0  0  0  0  0  0  0  0
  130.1690  128.1780   59.1580 C   0  0  0  0  0  0  0  0  0  0  0  0
  131.3500  128.3250   58.4920 C   0  0  0  0  0  0  0  0  0  0  0  0
  132.3630  127.2040   58.2530 C   0  0  0  0  0  0  0  0  0  0  0  0
  131.7370  125.8000   58.4360 C   0  0  1  0  0  0  0  0  0  0  0  0
  132.8190  124.7100   58.2870 C   0  0  0  0  0  0  0  0  0  0  0  0
  131.6560  129.5150   57.8730 N   0  0  0  0  0  0  0  0  0  0  0  0
  130.8390  130.6130   57.8980 C   0  0  0  0  0  0  0  0  0  0  0  0
  131.3190  131.6780   57.1920 N   0  0  0  0  0  0  0  0  0  0  0  0
  130.6350  132.8530   57.1050 C   0  0  0  0  0  0  0  0  0  0  0  0
  131.0630  133.8340   56.5010 O   0  0  0  0  0  0  0  0  0  0  0  0
  129.4320  132.8400   57.7580 N   0  0  0  0  0  0  0  0  0  0  0  0
  128.8400  131.8360   58.4720 C   0  0  0  0  0  0  0  0  0  0  0  0
  127.7180  131.9850   58.9500 O   0  0  0  0  0  0  0  0  0  0  0  0
  129.6570  130.6190   58.5630 C   0  0  0  0  0  0  0  0  0  0  0  0
  129.1690  129.3680   59.3400 C   0  0  2  0  0  0  0  0  0  0  0  0
  128.7990  129.6400   60.8120 C   0  0  0  0  0  0  0  0  0  0  0  0
  128.9120  128.6270   61.7710 C   0  0  0  0  0  0  0  0  0  0  0  0
  128.5580  128.8510   63.1090 C   0  0  0  0  0  0  0  0  0  0  0  0
  128.6420  127.8910   64.1020 O   0  0  0  0  0  0  0  0  0  0  0  0
  129.2430  126.6350   63.8110 C   0  0  0  0  0  0  0  0  0  0  0  0
  128.0880  130.1170   63.4810 C   0  0  0  0  0  0  0  0  0  0  0  0
  127.7550  130.3580   64.7930 O   0  0  0  0  0  0  0  0  0  0  0  0
  126.6660  129.5770   65.2650 C   0  0  0  0  0  0  0  0  0  0  0  0
  127.9720  131.1490   62.5410 C   0  0  0  0  0  0  0  0  0  0  0  0
  127.5090  132.3710   62.9960 O   0  0  0  0  0  0  0  0  0  0  0  0
  127.9940  133.5680   62.3970 C   0  0  0  0  0  0  0  0  0  0  0  0
  128.3220  130.8930   61.2060 C   0  0  0  0  0  0  0  0  0  0  0  0
  131.6170  125.7640   61.0280 C   0  0  0  0  0  0  0  0  0  0  0  0
  132.3940  126.6340   61.4250 O   0  0  0  0  0  0  0  0  0  0  0  0
  130.0729  118.8281   62.5861 H   0  0  0  0  0  0  0  0  0  0  0  0
  128.9839  119.4662   61.3079 H   0  0  0  0  0  0  0  0  0  0  0  0
  130.7249  119.9087   61.3079 H   0  0  0  0  0  0  0  0  0  0  0  0
  131.2930  122.2882   64.2735 H   0  0  0  0  0  0  0  0  0  0  0  0
  132.6187  124.5495   65.7726 H   0  0  0  0  0  0  0  0  0  0  0  0
  132.2410  126.1899   65.1455 H   0  0  0  0  0  0  0  0  0  0  0  0
  130.9756  124.9150   65.1455 H   0  0  0  0  0  0  0  0  0  0  0  0
  132.7490  127.2885   57.2264 H   0  0  0  0  0  0  0  0  0  0  0  0
  133.1683  127.3134   58.9943 H   0  0  0  0  0  0  0  0  0  0  0  0
  131.0262  125.5827   57.6251 H   0  0  0  0  0  0  0  0  0  0  0  0
  133.1467  124.3799   59.2838 H   0  0  0  0  0  0  0  0  0  0  0  0
  132.4034  123.8538   57.7355 H   0  0  0  0  0  0  0  0  0  0  0  0
  133.6783  125.1193   57.7355 H   0  0  0  0  0  0  0  0  0  0  0  0
  132.5360  129.5830   57.3830 H   0  0  0  0  0  0  0  0  0  0  0  0
  132.2000  131.6220   56.7030 H   0  0  0  0  0  0  0  0  0  0  0  0
  128.8960  133.6930   57.6930 H   0  0  0  0  0  0  0  0  0  0  0  0
  128.2119  129.0697   58.8873 H   0  0  0  0  0  0  0  0  0  0  0  0
  129.2853  127.6372   61.4696 H   0  0  0  0  0  0  0  0  0  0  0  0
  129.4895  126.1199   64.7511 H   0  0  0  0  0  0  0  0  0  0  0  0
  128.5420  126.0193   63.2284 H   0  0  0  0  0  0  0  0  0  0  0  0
  130.1623  126.7946   63.2284 H   0  0  0  0  0  0  0  0  0  0  0  0
  126.6649  129.5762   66.3650 H   0  0  0  0  0  0  0  0  0  0  0  0
  125.7215  130.0049   64.8977 H   0  0  0  0  0  0  0  0  0  0  0  0
  126.7684  128.5452   64.8977 H   0  0  0  0  0  0  0  0  0  0  0  0
  128.2828  134.2807   63.1836 H   0  0  0  0  0  0  0  0  0  0  0  0
  128.8694  133.3368   61.7723 H   0  0  0  0  0  0  0  0  0  0  0  0
  127.2046  134.0114   61.7723 H   0  0  0  0  0  0  0  0  0  0  0  0
  128.2191  131.6922   60.4573 H   0  0  0  0  0  0  0  0  0  0  0  0
  1  2  1  0
  2  3  1  0
  3  4  2  0
  4  5  1  0
  5  6  1  0
  6  7  1  0
  5  8  2  0
  8  9  1  0
  9 10  2  0
 10 11  1  0
  9 12  1  0
 13 12  1  6
 13 14  1  0
 14 15  2  0
 14 16  1  0
 16 17  2  0
 17 18  1  0
 18 19  1  0
 19 20  1  0
 17 21  1  0
 21 22  1  0
 22 23  1  0
 23 24  1  0
 24 25  2  0
 24 26  1  0
 26 27  1  0
 27 28  2  0
 27 29  1  0
 29 30  1  0
 30 31  1  0
 31 32  2  0
 32 33  1  0
 33 34  1  0
 34 35  1  0
 33 36  2  0
 36 37  1  0
 37 38  1  0
 36 39  1  0
 39 40  1  0
 40 41  1  0
 39 42  2  0
 13 43  1  0
 43 44  2  0
 10  3  1  0
 19 13  1  0
 29 22  2  0
 42 31  1  0
 43  8  1  0
 30 16  1  0
  1 45  1  0
  1 46  1  0
  1 47  1  0
  4 48  1  0
  7 49  1  0
  7 50  1  0
  7 51  1  0
 18 52  1  0
 18 53  1  0
 19 54  1  6
 20 55  1  0
 20 56  1  0
 20 57  1  0
 21 58  1  0
 23 59  1  0
 26 60  1  0
 30 61  1  6
 32 62  1  0
 35 63  1  0
 35 64  1  0
 35 65  1  0
 38 66  1  0
 38 67  1  0
 38 68  1  0
 41 69  1  0
 41 70  1  0
 41 71  1  0
 42 72  1  0
M  END
>  <Binding energies>  (1) 
[-4.99]

>  <Ligand effiencies>  (1) 
[-0.10617021276595745]

>  <Interactions>  (1) 
["V-A:ASP:366:CA:3210, V-B:PRO:540:CA:9855, V-B:ALA:541:CB:9864, H-A:TYR:531:OH:4795, V-B:TYR:539:CE2:9848, V-A:LEU:475:CG:4257, V-B:GLU:543:CG:9879, V-B:LEU:475:CD2:9230, V-B:TYR:539:C:9839, V-A:ASP:366:CG:3213, V-A:TYR:539:CD1:4873, V-B:TYR:539:CZ:9849, V-A:ALA:541:CB:4892, H-B:ALA:541:N:9863, V-A:LEU:475:CD1:4258, V-A:GLU:543:CD:4908, H-B:TYR:484:OH:9319, V-B:PRO:540:N:9856, V-B:TYR:484:CZ:9318, V-B:TYR:539:CD2:9846, V-A:TYR:531:CZ:4794, V-B:GLU:543:CD:9880, V-A:TYR:539:C:4867, V-A:ASP:366:CB:3212, V-A:LEU:475:CD2:4259, H-A:ARG:545:NH2:4928, V-A:ARG:545:CZ:4926, H-A:TYR:539:O:4868, V-A:PRO:540:N:4884, H-A:TYR:539:N:4870, V-A:PRO:540:CA:4883, V-B:PRO:540:C:9853, H-A:ASP:366:OD2:3215, V-A:PRO:540:CD:4887"]

$$$$
ZINC824595846
     RDKit          3D

 97103  0  0  0  0  0  0  0  0999 V2000
  130.4180  119.5190   61.1910 C   0  0  0  0  0  0  0  0  0  0  0  0
  131.4690  120.0820   60.4140 O   0  0  0  0  0  0  0  0  0  0  0  0
  131.9590  121.3340   60.7410 C   0  0  0  0  0  0  0  0  0  0  0  0
  131.2450  122.5300   60.5460 C   0  0  0  0  0  0  0  0  0  0  0  0
  131.7880  123.7680   60.9090 C   0  0  0  0  0  0  0  0  0  0  0  0
  130.9530  125.0510   60.7100 C   0  0  1  0  0  0  0  0  0  0  0  0
  130.9760  125.4870   59.2080 C   0  0  0  0  0  0  0  0  0  0  0  0
  130.2550  126.8090   58.8990 C   0  0  0  0  0  0  0  0  0  0  0  0
  129.0900  126.7990   58.5030 O   0  0  0  0  0  0  0  0  0  0  0  0
  130.9680  127.9320   59.0760 N   0  0  0  0  0  0  0  0  0  0  0  0
  130.4650  129.2710   58.7980 C   0  0  0  0  0  0  0  0  0  0  0  0
  128.9410  129.4890   58.9470 C   0  0  0  0  0  0  0  0  0  0  0  0
  128.4240  129.6000   60.3980 C   0  0  0  0  0  0  0  0  0  0  0  0
  128.5560  128.6130   61.1250 O   0  0  0  0  0  0  0  0  0  0  0  0
  127.8630  130.7570   60.8480 N   0  0  0  0  0  0  0  0  0  0  0  0
  127.1840  131.6760   59.9080 C   0  0  0  0  0  0  0  0  0  0  0  0
  128.0530  132.9630   59.7310 C   0  0  1  0  0  0  0  0  0  0  0  0
  128.2480  133.6190   61.0970 C   0  0  0  0  0  0  0  0  0  0  0  0
  128.9440  132.6100   62.0190 C   0  0  1  0  0  0  0  0  0  0  0  0
  128.0750  131.3320   62.1950 C   0  0  0  0  0  0  0  0  0  0  0  0
  130.3490  132.2650   61.5000 C   0  0  0  0  0  0  0  0  0  0  0  0
  131.2660  131.7050   62.3230 C   0  0  0  0  0  0  0  0  0  0  0  0
  132.5450  131.3090   61.7750 C   0  0  0  0  0  0  0  0  0  0  0  0
  132.7560  131.4450   60.4520 C   0  0  0  0  0  0  0  0  0  0  0  0
  131.7230  131.8840   59.5210 C   0  0  0  0  0  0  0  0  0  0  0  0
  131.9200  131.7930   58.3060 O   0  0  0  0  0  0  0  0  0  0  0  0
  130.5460  132.3280   60.1030 N   0  0  0  0  0  0  0  0  0  0  0  0
  129.4590  132.6700   59.1280 C   0  0  0  0  0  0  0  0  0  0  0  0
  129.5310  125.0260   61.3950 C   0  0  1  0  0  0  0  0  0  0  0  0
  128.9110  123.6110   61.3870 C   0  0  0  0  0  0  0  0  0  0  0  0
  128.1200  123.2420   60.5210 O   0  0  0  0  0  0  0  0  0  0  0  0
  129.3430  122.6920   62.5350 C   0  0  0  0  0  0  0  0  0  0  0  0
  129.1240  123.3590   63.9130 C   0  0  1  0  0  0  0  0  0  0  0  0
  129.4250  122.3420   65.0350 C   0  0  0  0  0  0  0  0  0  0  0  0
  129.7730  124.7800   64.0280 C   0  0  1  0  0  0  0  0  0  0  0  0
  129.1480  125.4460   65.1300 O   0  0  0  0  0  0  0  0  0  0  0  0
  130.1280  125.8370   66.0060 C   0  0  0  0  0  0  0  0  0  0  0  0
  129.8890  126.5350   67.1850 C   0  0  0  0  0  0  0  0  0  0  0  0
  128.2730  126.9810   67.6150 Cl  0  0  0  0  0  0  0  0  0  0  0  0
  130.9720  126.8680   68.0140 C   0  0  0  0  0  0  0  0  0  0  0  0
  130.6890  127.5600   69.1780 O   0  0  0  0  0  0  0  0  0  0  0  0
  131.7550  128.1030   69.9480 C   0  0  0  0  0  0  0  0  0  0  0  0
  132.2720  126.4810   67.6260 C   0  0  0  0  0  0  0  0  0  0  0  0
  132.4990  125.7720   66.4320 C   0  0  0  0  0  0  0  0  0  0  0  0
  133.7380  125.3560   65.9820 O   0  0  0  0  0  0  0  0  0  0  0  0
  134.6970  124.8930   66.9250 C   0  0  0  0  0  0  0  0  0  0  0  0
  131.4010  125.4590   65.6270 C   0  0  0  0  0  0  0  0  0  0  0  0
  131.2800  124.7390   64.3540 C   0  0  0  0  0  0  0  0  0  0  0  0
  132.1800  124.2020   63.7090 O   0  0  0  0  0  0  0  0  0  0  0  0
  129.4990  125.6940   62.7960 C   0  0  0  0  0  0  0  0  0  0  0  0
  129.2560  126.8970   62.9120 O   0  0  0  0  0  0  0  0  0  0  0  0
  133.0640  123.8040   61.4850 C   0  0  0  0  0  0  0  0  0  0  0  0
  133.7840  122.6290   61.6830 C   0  0  0  0  0  0  0  0  0  0  0  0
  133.2360  121.4020   61.3120 C   0  0  0  0  0  0  0  0  0  0  0  0
  133.9640  120.2590   61.5290 O   0  0  0  0  0  0  0  0  0  0  0  0
  130.6463  119.6413   62.2601 H   0  0  0  0  0  0  0  0  0  0  0  0
  129.4735  120.0320   60.9568 H   0  0  0  0  0  0  0  0  0  0  0  0
  130.3217  118.4485   60.9568 H   0  0  0  0  0  0  0  0  0  0  0  0
  130.2404  122.4917   60.0996 H   0  0  0  0  0  0  0  0  0  0  0  0
  131.4432  125.8580   61.2744 H   0  0  0  0  0  0  0  0  0  0  0  0
  132.0268  125.5925   58.9004 H   0  0  0  0  0  0  0  0  0  0  0  0
  130.4325  124.7065   58.6553 H   0  0  0  0  0  0  0  0  0  0  0  0
  131.9330  127.8610   59.3640 H   0  0  0  0  0  0  0  0  0  0  0  0
  130.9692  129.9653   59.4863 H   0  0  0  0  0  0  0  0  0  0  0  0
  130.6772  129.4424   57.7323 H   0  0  0  0  0  0  0  0  0  0  0  0
  128.6788  130.4192   58.4217 H   0  0  0  0  0  0  0  0  0  0  0  0
  128.4649  128.5919   58.5246 H   0  0  0  0  0  0  0  0  0  0  0  0
  127.0585  131.1799   58.9343 H   0  0  0  0  0  0  0  0  0  0  0  0
  126.1957  131.9489   60.3064 H   0  0  0  0  0  0  0  0  0  0  0  0
  127.5173  133.6205   59.0305 H   0  0  0  0  0  0  0  0  0  0  0  0
  128.8715  134.5191   60.9921 H   0  0  0  0  0  0  0  0  0  0  0  0
  127.2757  133.9118   61.5198 H   0  0  0  0  0  0  0  0  0  0  0  0
  129.0619  133.0754   63.0087 H   0  0  0  0  0  0  0  0  0  0  0  0
  128.5972  130.6067   62.8363 H   0  0  0  0  0  0  0  0  0  0  0  0
  127.1137  131.5764   62.6706 H   0  0  0  0  0  0  0  0  0  0  0  0
  131.0428  131.5537   63.3894 H   0  0  0  0  0  0  0  0  0  0  0  0
  133.3319  130.9036   62.4281 H   0  0  0  0  0  0  0  0  0  0  0  0
  133.7553  131.2139   60.0546 H   0  0  0  0  0  0  0  0  0  0  0  0
  129.7775  133.5642   58.5722 H   0  0  0  0  0  0  0  0  0  0  0  0
  129.3290  131.7702   58.5088 H   0  0  0  0  0  0  0  0  0  0  0  0
  128.8849  125.6598   60.7699 H   0  0  0  0  0  0  0  0  0  0  0  0
  128.7540  121.7641   62.4901 H   0  0  0  0  0  0  0  0  0  0  0  0
  130.4168  122.4822   62.4216 H   0  0  0  0  0  0  0  0  0  0  0  0
  128.0625  123.6174   64.0415 H   0  0  0  0  0  0  0  0  0  0  0  0
  129.2826  122.8232   66.0139 H   0  0  0  0  0  0  0  0  0  0  0  0
  128.7422  121.4842   64.9452 H   0  0  0  0  0  0  0  0  0  0  0  0
  130.4646  121.9940   64.9452 H   0  0  0  0  0  0  0  0  0  0  0  0
  131.5296  127.9882   71.0185 H   0  0  0  0  0  0  0  0  0  0  0  0
  132.6875  127.5700   69.7104 H   0  0  0  0  0  0  0  0  0  0  0  0
  131.8722  129.1706   69.7104 H   0  0  0  0  0  0  0  0  0  0  0  0
  133.1256  126.7388   68.2701 H   0  0  0  0  0  0  0  0  0  0  0  0
  134.3250  125.0726   67.9445 H   0  0  0  0  0  0  0  0  0  0  0  0
  134.8633  123.8154   66.7799 H   0  0  0  0  0  0  0  0  0  0  0  0
  135.6443  125.4330   66.7799 H   0  0  0  0  0  0  0  0  0  0  0  0
  133.5009  124.7684   61.7834 H   0  0  0  0  0  0  0  0  0  0  0  0
  134.7870  122.6688   62.1329 H   0  0  0  0  0  0  0  0  0  0  0  0
  134.6320  120.3700   62.2100 H   0  0  0  0  0  0  0  0  0  0  0  0
  1  2  1  0
  2  3  1  0
  3  4  2  0
  4  5  1  0
  5  6  1  0
  6  7  1  0
  7  8  1  0
  8  9  2  0
  8 10  1  0
 10 11  1  0
 11 12  1  0
 12 13  1  0
 13 14  2  0
 13 15  1  0
 15 16  1  0
 16 17  1  0
 17 18  1  0
 18 19  1  0
 19 20  1  0
 19 21  1  0
 21 22  2  0
 22 23  1  0
 23 24  2  0
 24 25  1  0
 25 26  2  0
 25 27  1  0
 27 28  1  0
  6 29  1  0
 29 30  1  0
 30 31  2  0
 30 32  1  0
 32 33  1  0
 33 34  1  0
 33 35  1  0
 35 36  1  1
 36 37  1  0
 37 38  2  0
 38 39  1  0
 38 40  1  0
 40 41  1  0
 41 42  1  0
 40 43  2  0
 43 44  1  0
 44 45  1  0
 45 46  1  0
 44 47  2  0
 47 48  1  0
 48 49  2  0
 35 50  1  0
 50 51  2  0
  5 52  2  0
 52 53  1  0
 53 54  2  0
 54 55  1  0
 54  3  1  0
 20 15  1  0
 27 21  1  0
 50 29  1  0
 28 17  1  0
 48 35  1  0
 47 37  1  0
  1 56  1  0
  1 57  1  0
  1 58  1  0
  4 59  1  0
  6 60  1  1
  7 61  1  0
  7 62  1  0
 10 63  1  0
 11 64  1  0
 11 65  1  0
 12 66  1  0
 12 67  1  0
 16 68  1  0
 16 69  1  0
 17 70  1  6
 18 71  1  0
 18 72  1  0
 19 73  1  1
 20 74  1  0
 20 75  1  0
 22 76  1  0
 23 77  1  0
 24 78  1  0
 28 79  1  0
 28 80  1  0
 29 81  1  6
 32 82  1  0
 32 83  1  0
 33 84  1  6
 34 85  1  0
 34 86  1  0
 34 87  1  0
 42 88  1  0
 42 89  1  0
 42 90  1  0
 43 91  1  0
 46 92  1  0
 46 93  1  0
 46 94  1  0
 52 95  1  0
 53 96  1  0
 55 97  1  0
M  END
>  <Binding energies>  (1) 
[-7.45]

>  <Ligand effiencies>  (1) 
[-0.1307017543859649]

>  <Interactions>  (1) 
["V-A:ILE:369:CG2:3237, V-A:ARG:545:CA:4919, V-A:GLY:454:CA:4049, V-A:GLU:543:C:4902, V-B:GLU:543:CB:9878, V-A:PRO:540:C:4881, V-B:ALA:541:CB:9864, V-B:TYR:539:CE2:9848, V-A:TYR:484:CE2:4346, V-A:GLY:544:CA:4914, V-B:GLU:543:CG:9879, V-A:GLY:544:C:4912, V-A:ASP:366:CG:3213, V-A:TYR:539:CD1:4873, V-A:ALA:541:CB:4892, V-A:GLU:543:CD:4908, V-A:TYR:484:CZ:4347, V-A:ILE:455:C:4052, V-A:ARG:545:CG:4922, H-A:GLY:454:N:4050, V-A:GLY:453:C:4042, V-A:ILE:369:CD1:3239, V-A:HIS:456:CE1:4070, V-B:TYR:539:CD2:9846, V-A:GLU:543:CG:4907, H-A:SER:385:OG:3410, V-B:GLU:543:CD:9880, V-A:TYR:539:C:4867, V-A:ARG:545:CD:4923, V-A:LEU:475:CD2:4259, H-A:ARG:545:NH2:4928, V-A:ARG:545:CZ:4926, V-A:GLU:543:CB:4906, V-A:PRO:540:N:4884, V-A:GLY:453:CA:4044, V-A:PRO:540:CA:4883, V-A:PRO:540:CB:4885, H-A:ARG:545:NE:4924, H-A:SER:385:O:3406, H-A:ASP:366:OD2:3215, V-A:GLY:454:C:4047, V-A:TYR:539:CE1:4875, H-A:TYR:484:OH:4348"]

$$$$
ZINC824596205
     RDKit          3D

 82 87  0  0  0  0  0  0  0  0999 V2000
  130.8710  119.5250   60.8860 C   0  0  0  0  0  0  0  0  0  0  0  0
  131.8250  120.2640   60.1320 O   0  0  0  0  0  0  0  0  0  0  0  0
  132.2950  121.4700   60.6240 C   0  0  0  0  0  0  0  0  0  0  0  0
  131.6030  122.6880   60.4990 C   0  0  0  0  0  0  0  0  0  0  0  0
  132.1320  123.8770   61.0130 C   0  0  0  0  0  0  0  0  0  0  0  0
  131.3690  125.2040   60.8410 C   0  0  1  0  0  0  0  0  0  0  0  0
  131.4710  125.7350   59.3720 C   0  0  0  0  0  0  0  0  0  0  0  0
  130.6310  126.9890   59.0840 C   0  0  0  0  0  0  0  0  0  0  0  0
  129.5380  126.8760   58.5280 O   0  0  0  0  0  0  0  0  0  0  0  0
  131.1510  128.1620   59.4870 N   0  0  0  0  0  0  0  0  0  0  0  0
  130.4850  129.4660   59.3930 C   0  0  1  0  0  0  0  0  0  0  0  0
  131.2400  130.4860   60.3200 C   0  0  0  0  0  0  0  0  0  0  0  0
  131.7300  131.7020   59.6370 N   0  0  0  0  0  0  0  0  0  0  0  0
  130.5670  132.3850   59.0440 C   0  0  0  0  0  0  0  0  0  0  0  0
  129.7790  131.4780   58.0600 C   0  0  0  0  0  0  0  0  0  0  0  0
  130.4020  130.0600   57.9490 C   0  0  0  0  0  0  0  0  0  0  0  0
  131.8650  130.3330   57.5010 C   0  0  0  0  0  0  0  0  0  0  0  0
  132.5980  131.2590   58.5230 C   0  0  0  0  0  0  0  0  0  0  0  0
  129.8990  125.1100   61.4010 C   0  0  1  0  0  0  0  0  0  0  0  0
  129.3300  123.6790   61.2840 C   0  0  0  0  0  0  0  0  0  0  0  0
  128.7080  123.3020   60.2920 O   0  0  0  0  0  0  0  0  0  0  0  0
  129.5920  122.7480   62.4740 C   0  0  0  0  0  0  0  0  0  0  0  0
  129.2380  123.4060   63.8310 C   0  0  1  0  0  0  0  0  0  0  0  0
  129.4050  122.3770   64.9690 C   0  0  0  0  0  0  0  0  0  0  0  0
  129.8990  124.8090   64.0310 C   0  0  1  0  0  0  0  0  0  0  0  0
  129.2240  125.4680   65.1080 O   0  0  0  0  0  0  0  0  0  0  0  0
  130.1670  125.8660   66.0200 C   0  0  0  0  0  0  0  0  0  0  0  0
  129.8840  126.5860   67.1770 C   0  0  0  0  0  0  0  0  0  0  0  0
  128.2540  127.0500   67.5280 Cl  0  0  0  0  0  0  0  0  0  0  0  0
  130.9310  126.9260   68.0450 C   0  0  0  0  0  0  0  0  0  0  0  0
  130.6040  127.6440   69.1820 O   0  0  0  0  0  0  0  0  0  0  0  0
  131.6320  128.0360   70.0850 C   0  0  0  0  0  0  0  0  0  0  0  0
  132.2440  126.5250   67.7210 C   0  0  0  0  0  0  0  0  0  0  0  0
  132.5180  125.7940   66.5510 C   0  0  0  0  0  0  0  0  0  0  0  0
  133.7720  125.3620   66.1610 O   0  0  0  0  0  0  0  0  0  0  0  0
  134.6660  124.8540   67.1440 C   0  0  0  0  0  0  0  0  0  0  0  0
  131.4530  125.4740   65.7040 C   0  0  0  0  0  0  0  0  0  0  0  0
  131.3850  124.7350   64.4400 C   0  0  0  0  0  0  0  0  0  0  0  0
  132.3050  124.1690   63.8510 O   0  0  0  0  0  0  0  0  0  0  0  0
  129.7120  125.7460   62.8030 C   0  0  0  0  0  0  0  0  0  0  0  0
  129.4260  126.9400   62.9140 O   0  0  0  0  0  0  0  0  0  0  0  0
  133.3700  123.8490   61.6620 C   0  0  0  0  0  0  0  0  0  0  0  0
  134.0660  122.6500   61.7930 C   0  0  0  0  0  0  0  0  0  0  0  0
  133.5350  121.4680   61.2770 C   0  0  0  0  0  0  0  0  0  0  0  0
  134.2480  120.3040   61.4180 O   0  0  0  0  0  0  0  0  0  0  0  0
  131.0596  119.6711   61.9598 H   0  0  0  0  0  0  0  0  0  0  0  0
  129.8579  119.8763   60.6405 H   0  0  0  0  0  0  0  0  0  0  0  0
  130.9580  118.4563   60.6405 H   0  0  0  0  0  0  0  0  0  0  0  0
  130.6289  122.7062   59.9883 H   0  0  0  0  0  0  0  0  0  0  0  0
  131.8587  125.9694   61.4610 H   0  0  0  0  0  0  0  0  0  0  0  0
  132.5249  125.9735   59.1661 H   0  0  0  0  0  0  0  0  0  0  0  0
  131.0737  124.9390   58.7251 H   0  0  0  0  0  0  0  0  0  0  0  0
  131.9190  128.1110   60.1400 H   0  0  0  0  0  0  0  0  0  0  0  0
  129.4451  129.3006   59.7111 H   0  0  0  0  0  0  0  0  0  0  0  0
  130.5507  130.7969   61.1188 H   0  0  0  0  0  0  0  0  0  0  0  0
  132.1316  129.9616   60.6944 H   0  0  0  0  0  0  0  0  0  0  0  0
  129.8910  132.6968   59.8538 H   0  0  0  0  0  0  0  0  0  0  0  0
  130.9424  133.2476   58.4739 H   0  0  0  0  0  0  0  0  0  0  0  0
  128.7427  131.3835   58.4166 H   0  0  0  0  0  0  0  0  0  0  0  0
  129.8166  131.9442   57.0644 H   0  0  0  0  0  0  0  0  0  0  0  0
  129.8412  129.3898   57.2809 H   0  0  0  0  0  0  0  0  0  0  0  0
  132.4043  129.3769   57.4304 H   0  0  0  0  0  0  0  0  0  0  0  0
  131.8447  130.8362   56.5230 H   0  0  0  0  0  0  0  0  0  0  0  0
  133.4522  130.7080   58.9435 H   0  0  0  0  0  0  0  0  0  0  0  0
  132.9148  132.1603   57.9778 H   0  0  0  0  0  0  0  0  0  0  0  0
  129.2836  125.7434   60.7452 H   0  0  0  0  0  0  0  0  0  0  0  0
  128.9828  121.8402   62.3525 H   0  0  0  0  0  0  0  0  0  0  0  0
  130.6670  122.5150   62.4858 H   0  0  0  0  0  0  0  0  0  0  0  0
  128.1724  123.6786   63.8460 H   0  0  0  0  0  0  0  0  0  0  0  0
  129.3222  122.8874   65.9399 H   0  0  0  0  0  0  0  0  0  0  0  0
  128.6194  121.6112   64.8891 H   0  0  0  0  0  0  0  0  0  0  0  0
  130.3925  121.8990   64.8891 H   0  0  0  0  0  0  0  0  0  0  0  0
  131.2820  127.9026   71.1193 H   0  0  0  0  0  0  0  0  0  0  0  0
  132.5242  127.4150   69.9168 H   0  0  0  0  0  0  0  0  0  0  0  0
  131.8842  129.0934   69.9168 H   0  0  0  0  0  0  0  0  0  0  0  0
  133.0704  126.7894   68.3971 H   0  0  0  0  0  0  0  0  0  0  0  0
  134.2733  125.0771   68.1470 H   0  0  0  0  0  0  0  0  0  0  0  0
  134.7643  123.7651   67.0226 H   0  0  0  0  0  0  0  0  0  0  0  0
  135.6517  125.3269   67.0226 H   0  0  0  0  0  0  0  0  0  0  0  0
  133.7958  124.7773   62.0706 H   0  0  0  0  0  0  0  0  0  0  0  0
  135.0390  122.6350   62.3058 H   0  0  0  0  0  0  0  0  0  0  0  0
  134.7120  120.2500   62.2560 H   0  0  0  0  0  0  0  0  0  0  0  0
  1  2  1  0
  2  3  1  0
  3  4  2  0
  4  5  1  0
  5  6  1  0
  6  7  1  0
  7  8  1  0
  8  9  2  0
  8 10  1  0
 10 11  1  0
 11 12  1  0
 12 13  1  0
 13 14  1  0
 14 15  1  0
 15 16  1  0
 16 17  1  0
 17 18  1  0
  6 19  1  0
 19 20  1  0
 20 21  2  0
 20 22  1  0
 22 23  1  0
 23 24  1  0
 23 25  1  0
 25 26  1  1
 26 27  1  0
 27 28  2  0
 28 29  1  0
 28 30  1  0
 30 31  1  0
 31 32  1  0
 30 33  2  0
 33 34  1  0
 34 35  1  0
 35 36  1  0
 34 37  2  0
 37 38  1  0
 38 39  2  0
 25 40  1  0
 40 41  2  0
  5 42  2  0
 42 43  1  0
 43 44  2  0
 44 45  1  0
 44  3  1  0
 16 11  1  0
 40 19  1  0
 18 13  1  0
 38 25  1  0
 37 27  1  0
  1 46  1  0
  1 47  1  0
  1 48  1  0
  4 49  1  0
  6 50  1  1
  7 51  1  0
  7 52  1  0
 10 53  1  0
 11 54  1  1
 12 55  1  0
 12 56  1  0
 14 57  1  0
 14 58  1  0
 15 59  1  0
 15 60  1  0
 16 61  1  0
 17 62  1  0
 17 63  1  0
 18 64  1  0
 18 65  1  0
 19 66  1  6
 22 67  1  0
 22 68  1  0
 23 69  1  6
 24 70  1  0
 24 71  1  0
 24 72  1  0
 32 73  1  0
 32 74  1  0
 32 75  1  0
 33 76  1  0
 36 77  1  0
 36 78  1  0
 36 79  1  0
 42 80  1  0
 43 81  1  0
 45 82  1  0
M  END
>  <Binding energies>  (1) 
[-6.66]

>  <Ligand effiencies>  (1) 
[-0.14170212765957446]

>  <Interactions>  (1) 
["V-A:ILE:369:CG2:3237, V-A:ARG:545:CA:4919, V-A:GLY:454:CA:4049, V-A:GLU:543:C:4902, V-B:GLU:543:CB:9878, V-B:ALA:541:CB:9864, V-B:TYR:539:CE2:9848, V-A:TYR:484:CE2:4346, V-A:GLY:544:CA:4914, V-B:GLU:543:CG:9879, V-A:GLY:544:C:4912, V-A:ASP:366:CG:3213, V-A:LEU:363:CD1:3189, V-A:TYR:531:CE2:4793, V-A:GLU:543:CD:4908, V-A:TYR:484:CZ:4347, V-A:ILE:455:C:4052, V-A:ARG:545:CG:4922, H-A:GLY:454:N:4050, V-A:GLY:453:C:4042, V-A:ILE:369:CD1:3239, V-A:HIS:456:CE1:4070, V-B:TYR:539:CD2:9846, V-A:TYR:531:CZ:4794, H-A:SER:385:OG:3410, V-B:GLU:543:CD:9880, V-A:ARG:545:CD:4923, V-A:LEU:475:CD2:4259, V-A:ARG:545:CB:4921, V-A:ARG:545:CZ:4926, V-A:GLU:543:CB:4906, H-A:ASP:366:OD1:3214, V-A:PRO:540:N:4884, V-A:PRO:540:CB:4885, V-A:PRO:540:CA:4883, H-A:ARG:545:NE:4924, H-A:SER:385:O:3406, H-A:ASP:366:OD2:3215, V-A:GLY:454:C:4047, H-A:TYR:484:OH:4348"]

$$$$
ZINC824596205-again1
     RDKit          3D

 82 87  0  0  0  0  0  0  0  0999 V2000
  129.4730  123.6230   62.2210 C   0  0  0  0  0  0  0  0  0  0  0  0
  128.6170  124.7600   62.2390 O   0  0  0  0  0  0  0  0  0  0  0  0
  127.6670  124.9070   61.2430 C   0  0  0  0  0  0  0  0  0  0  0  0
  127.6440  125.9800   60.3340 C   0  0  0  0  0  0  0  0  0  0  0  0
  126.6470  126.0890   59.3570 C   0  0  0  0  0  0  0  0  0  0  0  0
  126.6770  127.2970   58.4030 C   0  0  1  0  0  0  0  0  0  0  0  0
  125.6100  128.4090   58.6350 C   0  0  0  0  0  0  0  0  0  0  0  0
  125.7290  129.1490   59.9780 C   0  0  0  0  0  0  0  0  0  0  0  0
  125.3880  130.3280   60.0700 O   0  0  0  0  0  0  0  0  0  0  0  0
  126.2290  128.4410   61.0070 N   0  0  0  0  0  0  0  0  0  0  0  0
  126.4320  128.9490   62.3690 C   0  0  1  0  0  0  0  0  0  0  0  0
  127.8210  128.4630   62.8980 C   0  0  0  0  0  0  0  0  0  0  0  0
  128.7620  129.6760   63.1160 N   0  0  2  0  0  0  0  0  0  0  0  0
  128.2020  130.5260   64.2760 C   0  0  0  0  0  0  0  0  0  0  0  0
  126.7640  130.9590   63.9040 C   0  0  0  0  0  0  0  0  0  0  0  0
  126.3280  130.5090   62.4760 C   0  0  1  0  0  0  0  0  0  0  0  0
  127.4110  131.1060   61.5280 C   0  0  0  0  0  0  0  0  0  0  0  0
  128.8290  130.5490   61.8360 C   0  0  0  0  0  0  0  0  0  0  0  0
  128.1080  127.8690   58.2290 C   0  0  0  0  0  0  0  0  0  0  0  0
  128.3510  129.2840   58.2030 C   0  0  0  0  0  0  0  0  0  0  0  0
  127.3900  130.1210   58.2540 O   0  0  0  0  0  0  0  0  0  0  0  0
  129.7740  129.8790   58.2110 C   0  0  0  0  0  0  0  0  0  0  0  0
  130.9150  128.8330   58.1060 C   0  0  1  0  0  0  0  0  0  0  0  0
  132.2650  129.4700   58.4960 C   0  0  0  0  0  0  0  0  0  0  0  0
  130.5400  127.4800   58.7730 C   0  0  1  0  0  0  0  0  0  0  0  0
  131.5510  126.5160   58.4570 O   0  0  0  0  0  0  0  0  0  0  0  0
  131.9920  125.9760   59.6360 C   0  0  0  0  0  0  0  0  0  0  0  0
  132.9470  124.9660   59.7220 C   0  0  0  0  0  0  0  0  0  0  0  0
  133.6410  124.3060   58.2800 Cl  0  0  0  0  0  0  0  0  0  0  0  0
  133.3330  124.4960   60.9860 C   0  0  0  0  0  0  0  0  0  0  0  0
  134.2820  123.4880   61.0240 O   0  0  0  0  0  0  0  0  0  0  0  0
  133.9720  122.2580   61.6700 C   0  0  0  0  0  0  0  0  0  0  0  0
  132.7460  125.0640   62.1350 C   0  0  0  0  0  0  0  0  0  0  0  0
  131.7840  126.0860   62.0360 C   0  0  0  0  0  0  0  0  0  0  0  0
  131.1630  126.6960   63.1100 O   0  0  0  0  0  0  0  0  0  0  0  0
  130.7070  125.8940   64.1930 C   0  0  0  0  0  0  0  0  0  0  0  0
  131.4140  126.5290   60.7630 C   0  0  0  0  0  0  0  0  0  0  0  0
  130.4610  127.5460   60.3130 C   0  0  0  0  0  0  0  0  0  0  0  0
  129.7540  128.2800   61.0050 O   0  0  0  0  0  0  0  0  0  0  0  0
  129.2100  126.9580   58.1600 C   0  0  0  0  0  0  0  0  0  0  0  0
  129.0900  125.8280   57.5780 O   0  0  0  0  0  0  0  0  0  0  0  0
  125.6640  125.0950   59.2830 C   0  0  0  0  0  0  0  0  0  0  0  0
  125.6780  124.0210   60.1680 C   0  0  0  0  0  0  0  0  0  0  0  0
  126.6720  123.9260   61.1430 C   0  0  0  0  0  0  0  0  0  0  0  0
  126.6580  122.8600   62.0060 O   0  0  0  0  0  0  0  0  0  0  0  0
  129.7014  123.3196   63.2534 H   0  0  0  0  0  0  0  0  0  0  0  0
  128.9720  122.7951   61.6979 H   0  0  0  0  0  0  0  0  0  0  0  0
  130.4071  123.8755   61.6979 H   0  0  0  0  0  0  0  0  0  0  0  0
  128.4267  126.7507   60.3919 H   0  0  0  0  0  0  0  0  0  0  0  0
  126.3577  126.8622   57.4444 H   0  0  0  0  0  0  0  0  0  0  0  0
  125.7064  129.1492   57.8270 H   0  0  0  0  0  0  0  0  0  0  0  0
  124.6335  127.9027   58.6467 H   0  0  0  0  0  0  0  0  0  0  0  0
  126.5010  127.4830   60.8390 H   0  0  0  0  0  0  0  0  0  0  0  0
  125.6182  128.5459   62.9897 H   0  0  0  0  0  0  0  0  0  0  0  0
  127.6821  127.9341   63.8524 H   0  0  0  0  0  0  0  0  0  0  0  0
  128.2717  127.7861   62.1573 H   0  0  0  0  0  0  0  0  0  0  0  0
  129.6870  129.3470   63.3540 H   0  0  0  0  0  0  0  0  0  0  0  0
  128.1846  129.9300   65.2004 H   0  0  0  0  0  0  0  0  0  0  0  0
  128.8355  131.4100   64.4411 H   0  0  0  0  0  0  0  0  0  0  0  0
  126.0684  130.5204   64.6347 H   0  0  0  0  0  0  0  0  0  0  0  0
  126.7441  132.0587   63.9166 H   0  0  0  0  0  0  0  0  0  0  0  0
  125.3020  130.8281   62.2404 H   0  0  0  0  0  0  0  0  0  0  0  0
  127.1497  130.8561   60.4891 H   0  0  0  0  0  0  0  0  0  0  0  0
  127.4338  132.1948   61.6830 H   0  0  0  0  0  0  0  0  0  0  0  0
  129.1766  129.9374   60.9903 H   0  0  0  0  0  0  0  0  0  0  0  0
  129.5299  131.3825   61.9911 H   0  0  0  0  0  0  0  0  0  0  0  0
  129.8618  130.5685   57.3584 H   0  0  0  0  0  0  0  0  0  0  0  0
  129.8972  130.3763   59.1844 H   0  0  0  0  0  0  0  0  0  0  0  0
  131.0572  128.5301   57.0581 H   0  0  0  0  0  0  0  0  0  0  0  0
  132.3487  129.5095   59.5921 H   0  0  0  0  0  0  0  0  0  0  0  0
  133.0876  128.8651   58.0870 H   0  0  0  0  0  0  0  0  0  0  0  0
  132.3211  130.4896   58.0870 H   0  0  0  0  0  0  0  0  0  0  0  0
  134.0072  122.3976   62.7605 H   0  0  0  0  0  0  0  0  0  0  0  0
  132.9637  121.9325   61.3743 H   0  0  0  0  0  0  0  0  0  0  0  0
  134.7055  121.4935   61.3743 H   0  0  0  0  0  0  0  0  0  0  0  0
  133.0461  124.7009   63.1290 H   0  0  0  0  0  0  0  0  0  0  0  0
  130.9797  126.3736   65.1446 H   0  0  0  0  0  0  0  0  0  0  0  0
  129.6136  125.7881   64.1359 H   0  0  0  0  0  0  0  0  0  0  0  0
  131.1751  124.9002   64.1359 H   0  0  0  0  0  0  0  0  0  0  0  0
  124.8748  125.1633   58.5198 H   0  0  0  0  0  0  0  0  0  0  0  0
  124.9025  123.2439   60.0987 H   0  0  0  0  0  0  0  0  0  0  0  0
  127.0150  123.0850   62.8690 H   0  0  0  0  0  0  0  0  0  0  0  0
  1  2  1  0
  2  3  1  0
  3  4  2  0
  4  5  1  0
  5  6  1  0
  6  7  1  0
  7  8  1  0
  8  9  2  0
  8 10  1  0
 10 11  1  0
 11 12  1  0
 12 13  1  0
 13 14  1  0
 14 15  1  0
 15 16  1  0
 16 17  1  0
 17 18  1  0
  6 19  1  0
 19 20  2  0
 20 21  1  0
 20 22  1  0
 22 23  1  0
 23 24  1  0
 23 25  1  0
 25 26  1  1
 26 27  1  0
 27 28  2  0
 28 29  1  0
 28 30  1  0
 30 31  1  0
 31 32  1  0
 30 33  2  0
 33 34  1  0
 34 35  1  0
 35 36  1  0
 34 37  2  0
 37 38  1  0
 38 39  2  0
 25 40  1  0
 40 41  2  0
  5 42  2  0
 42 43  1  0
 43 44  2  0
 44 45  1  0
 44  3  1  0
 16 11  1  0
 40 19  1  0
 18 13  1  0
 38 25  1  0
 37 27  1  0
  1 46  1  0
  1 47  1  0
  1 48  1  0
  4 49  1  0
  6 50  1  6
  7 51  1  0
  7 52  1  0
 10 53  1  0
 11 54  1  1
 12 55  1  0
 12 56  1  0
 13 57  1  6
 14 58  1  0
 14 59  1  0
 15 60  1  0
 15 61  1  0
 16 62  1  1
 17 63  1  0
 17 64  1  0
 18 65  1  0
 18 66  1  0
 22 67  1  0
 22 68  1  0
 23 69  1  6
 24 70  1  0
 24 71  1  0
 24 72  1  0
 32 73  1  0
 32 74  1  0
 32 75  1  0
 33 76  1  0
 36 77  1  0
 36 78  1  0
 36 79  1  0
 42 80  1  0
 43 81  1  0
 45 82  1  0
M  CHG  2  13   1  21  -1
M  END
>  <Binding energies>  (1) 
[-6.05]

>  <Ligand effiencies>  (1) 
[-0.12604166666666666]

>  <Interactions>  (1) 
["V-A:ILE:369:CG2:3237, V-A:ASP:366:CA:3210, V-B:PRO:540:CA:9855, H-A:GLU:543:OE2:4910, V-A:ILE:369:CB:3236, V-B:ASP:366:CG:8184, H-A:TYR:531:OH:4795, V-B:TYR:539:CE2:9848, H-B:ALA:541:O:9861, V-A:ASP:366:CG:3213, V-B:TYR:539:CZ:9849, H-B:GLU:543:OE1:9881, H-B:ALA:541:N:9863, V-B:ASP:366:CB:8183, V-B:PRO:540:CB:9857, V-A:GLU:543:CD:4908, H-B:ASP:366:OD1:8185, V-A:ILE:369:CD1:3239, V-A:ASP:366:C:3208, V-A:GLU:543:CG:4907, V-B:GLU:543:CD:9880, V-A:ASP:366:CB:3212, H-A:ARG:545:NH2:4928, H-A:GLU:543:OE1:4909"]

$$$$
ZINC824596551
     RDKit          3D

 81 85  0  0  0  0  0  0  0  0999 V2000
  127.4700  127.2940   61.6190 C   0  0  0  0  0  0  0  0  0  0  0  0
  126.9740  126.0110   61.2540 O   0  0  0  0  0  0  0  0  0  0  0  0
  127.6580  124.8780   61.6600 C   0  0  0  0  0  0  0  0  0  0  0  0
  128.6990  124.8890   62.6060 C   0  0  0  0  0  0  0  0  0  0  0  0
  129.3390  123.7060   62.9920 C   0  0  0  0  0  0  0  0  0  0  0  0
  130.4520  123.7360   64.0580 C   0  0  2  0  0  0  0  0  0  0  0  0
  129.8640  123.7470   65.5110 C   0  0  0  0  0  0  0  0  0  0  0  0
  130.1090  125.0520   66.2870 C   0  0  0  0  0  0  0  0  0  0  0  0
  130.9470  125.0790   67.1890 O   0  0  0  0  0  0  0  0  0  0  0  0
  129.3350  126.1050   65.9510 N   0  0  0  0  0  0  0  0  0  0  0  0
  129.1770  127.3840   66.6740 C   0  0  1  0  0  0  0  0  0  0  0  0
  128.3130  128.3430   65.8100 C   0  0  0  0  0  0  0  0  0  0  0  0
  128.6010  128.4080   64.5070 N   0  0  0  0  0  0  0  0  0  0  0  0
  127.4140  129.0080   66.3230 O   0  0  0  0  0  0  0  0  0  0  0  0
  128.7610  127.2130   68.1430 C   0  0  0  0  0  0  0  0  0  0  0  0
  127.4230  127.0120   68.5220 C   0  0  0  0  0  0  0  0  0  0  0  0
  127.0710  126.8900   69.8640 C   0  0  0  0  0  0  0  0  0  0  0  0
  128.0500  126.9840   70.8480 C   0  0  0  0  0  0  0  0  0  0  0  0
  127.7040  126.8640   72.1670 O   0  0  0  0  0  0  0  0  0  0  0  0
  129.3790  127.2090   70.4970 C   0  0  0  0  0  0  0  0  0  0  0  0
  129.7270  127.3310   69.1550 C   0  0  0  0  0  0  0  0  0  0  0  0
  131.5100  124.8780   63.8130 C   0  0  1  0  0  0  0  0  0  0  0  0
  132.9630  124.3620   63.8820 C   0  0  0  0  0  0  0  0  0  0  0  0
  133.5990  124.3420   64.9350 O   0  0  0  0  0  0  0  0  0  0  0  0
  133.5750  123.8730   62.5620 C   0  0  0  0  0  0  0  0  0  0  0  0
  133.3680  124.8800   61.4030 C   0  0  1  0  0  0  0  0  0  0  0  0
  134.1150  124.3870   60.1460 C   0  0  0  0  0  0  0  0  0  0  0  0
  131.8770  125.3170   61.2260 C   0  0  1  0  0  0  0  0  0  0  0  0
  131.8470  126.4850   60.3980 O   0  0  0  0  0  0  0  0  0  0  0  0
  130.9610  126.2590   59.3770 C   0  0  0  0  0  0  0  0  0  0  0  0
  130.6220  127.2000   58.4090 C   0  0  0  0  0  0  0  0  0  0  0  0
  131.3190  128.7830   58.4620 Cl  0  0  0  0  0  0  0  0  0  0  0  0
  129.7150  126.8460   57.3990 C   0  0  0  0  0  0  0  0  0  0  0  0
  129.4060  127.8120   56.4580 O   0  0  0  0  0  0  0  0  0  0  0  0
  128.1110  128.4030   56.4570 C   0  0  0  0  0  0  0  0  0  0  0  0
  129.1740  125.5430   57.3920 C   0  0  0  0  0  0  0  0  0  0  0  0
  129.5280  124.6000   58.3750 C   0  0  0  0  0  0  0  0  0  0  0  0
  129.0470  123.3050   58.4400 O   0  0  0  0  0  0  0  0  0  0  0  0
  127.9260  122.9430   57.6410 C   0  0  0  0  0  0  0  0  0  0  0  0
  130.4300  124.9840   59.3690 C   0  0  0  0  0  0  0  0  0  0  0  0
  131.0140  124.2630   60.5040 C   0  0  0  0  0  0  0  0  0  0  0  0
  130.8680  123.0760   60.7950 O   0  0  0  0  0  0  0  0  0  0  0  0
  131.2140  125.7520   62.5650 C   0  0  0  0  0  0  0  0  0  0  0  0
  130.4880  126.7460   62.6540 O   0  0  0  0  0  0  0  0  0  0  0  0
  128.9410  122.4960   62.4170 C   0  0  0  0  0  0  0  0  0  0  0  0
  127.9180  122.4700   61.4720 C   0  0  0  0  0  0  0  0  0  0  0  0
  127.2780  123.6510   61.0970 C   0  0  0  0  0  0  0  0  0  0  0  0
  126.2630  123.5920   60.1760 O   0  0  0  0  0  0  0  0  0  0  0  0
  127.5019  127.3765   62.7154 H   0  0  0  0  0  0  0  0  0  0  0  0
  128.4835  127.4247   61.2118 H   0  0  0  0  0  0  0  0  0  0  0  0
  126.8080  128.0725   61.2118 H   0  0  0  0  0  0  0  0  0  0  0  0
  129.0155  125.8443   63.0501 H   0  0  0  0  0  0  0  0  0  0  0  0
  131.0139  122.7962   63.9525 H   0  0  0  0  0  0  0  0  0  0  0  0
  128.7780  123.5858   65.4436 H   0  0  0  0  0  0  0  0  0  0  0  0
  130.3828  122.9508   66.0650 H   0  0  0  0  0  0  0  0  0  0  0  0
  128.6410  125.9500   65.2350 H   0  0  0  0  0  0  0  0  0  0  0  0
  130.1552  127.8723   66.7954 H   0  0  0  0  0  0  0  0  0  0  0  0
  129.3460  127.8490   64.1180 H   0  0  0  0  0  0  0  0  0  0  0  0
  128.0660  129.0120   63.9010 H   0  0  0  0  0  0  0  0  0  0  0  0
  126.6432  126.9502   67.7486 H   0  0  0  0  0  0  0  0  0  0  0  0
  126.0213  126.7197   70.1453 H   0  0  0  0  0  0  0  0  0  0  0  0
  126.8100  126.5380   72.2900 H   0  0  0  0  0  0  0  0  0  0  0  0
  130.1502  127.2899   71.2772 H   0  0  0  0  0  0  0  0  0  0  0  0
  130.7754  127.5229   68.8829 H   0  0  0  0  0  0  0  0  0  0  0  0
  131.3989  125.5725   64.6588 H   0  0  0  0  0  0  0  0  0  0  0  0
  134.6545  123.7210   62.7086 H   0  0  0  0  0  0  0  0  0  0  0  0
  133.0685  122.9365   62.2855 H   0  0  0  0  0  0  0  0  0  0  0  0
  133.8366  125.8431   61.6538 H   0  0  0  0  0  0  0  0  0  0  0  0
  134.9976  123.8045   60.4488 H   0  0  0  0  0  0  0  0  0  0  0  0
  133.4452  123.7529   59.5465 H   0  0  0  0  0  0  0  0  0  0  0  0
  134.4347  125.2521   59.5465 H   0  0  0  0  0  0  0  0  0  0  0  0
  127.7768  128.5555   57.4938 H   0  0  0  0  0  0  0  0  0  0  0  0
  128.1506  129.3722   55.9382 H   0  0  0  0  0  0  0  0  0  0  0  0
  127.4049  127.7380   55.9382 H   0  0  0  0  0  0  0  0  0  0  0  0
  128.4620  125.2587   56.6032 H   0  0  0  0  0  0  0  0  0  0  0  0
  127.0833  122.6709   58.2935 H   0  0  0  0  0  0  0  0  0  0  0  0
  127.6382  123.7939   57.0060 H   0  0  0  0  0  0  0  0  0  0  0  0
  128.1902  122.0845   57.0060 H   0  0  0  0  0  0  0  0  0  0  0  0
  129.4378  121.5600   62.7120 H   0  0  0  0  0  0  0  0  0  0  0  0
  127.6138  121.5145   61.0199 H   0  0  0  0  0  0  0  0  0  0  0  0
  125.8390  124.4410   60.0310 H   0  0  0  0  0  0  0  0  0  0  0  0
  1  2  1  0
  2  3  1  0
  3  4  2  0
  4  5  1  0
  5  6  1  0
  6  7  1  0
  7  8  1  0
  8  9  2  0
  8 10  1  0
 10 11  1  0
 11 12  1  0
 12 13  1  0
 12 14  2  0
 11 15  1  0
 15 16  2  0
 16 17  1  0
 17 18  2  0
 18 19  1  0
 18 20  1  0
 20 21  2  0
  6 22  1  0
 22 23  1  0
 23 24  2  0
 23 25  1  0
 25 26  1  0
 26 27  1  0
 26 28  1  0
 28 29  1  6
 29 30  1  0
 30 31  2  0
 31 32  1  0
 31 33  1  0
 33 34  1  0
 34 35  1  0
 33 36  2  0
 36 37  1  0
 37 38  1  0
 38 39  1  0
 37 40  2  0
 40 41  1  0
 41 42  2  0
 28 43  1  0
 43 44  2  0
  5 45  2  0
 45 46  1  0
 46 47  2  0
 47 48  1  0
 47  3  1  0
 21 15  1  0
 43 22  1  0
 41 28  1  0
 40 30  1  0
  1 49  1  0
  1 50  1  0
  1 51  1  0
  4 52  1  0
  6 53  1  1
  7 54  1  0
  7 55  1  0
 10 56  1  0
 11 57  1  1
 13 58  1  0
 13 59  1  0
 16 60  1  0
 17 61  1  0
 19 62  1  0
 20 63  1  0
 21 64  1  0
 22 65  1  1
 25 66  1  0
 25 67  1  0
 26 68  1  1
 27 69  1  0
 27 70  1  0
 27 71  1  0
 35 72  1  0
 35 73  1  0
 35 74  1  0
 36 75  1  0
 39 76  1  0
 39 77  1  0
 39 78  1  0
 45 79  1  0
 46 80  1  0
 48 81  1  0
M  END
>  <Binding energies>  (1) 
[-7.6]

>  <Ligand effiencies>  (1) 
[-0.14339622641509434]

>  <Interactions>  (1) 
["V-A:ILE:369:CG2:3237, V-A:ASP:366:CA:3210, V-B:PRO:540:CA:9855, V-B:GLU:543:C:9874, H-A:GLU:543:OE2:4910, H-B:GLU:543:O:9875, V-A:ILE:369:CB:3236, V-B:GLU:543:CB:9878, H-B:LYS:547:NZ:9923, V-B:ALA:541:CB:9864, H-A:TYR:531:OH:4795, V-A:TYR:484:CE2:4346, V-B:TYR:539:CE2:9848, V-B:GLU:543:CG:9879, V-B:TYR:539:C:9839, V-A:ASP:366:CG:3213, V-B:TYR:539:CZ:9849, H-B:GLU:543:OE1:9881, H-B:TYR:539:OH:9850, V-A:GLU:543:CD:4908, V-A:TYR:484:CZ:4347, H-B:TYR:484:OH:9319, H-B:ASP:366:OD1:8185, V-B:HIS:456:CE1:9041, H-A:GLY:454:N:4050, V-B:GLU:543:CA:9876, V-B:PRO:540:N:9856, V-A:ILE:369:CD1:3239, V-A:HIS:456:CE1:4070, V-B:GLY:544:C:9884, V-B:TYR:539:CD2:9846, V-A:GLU:543:CG:4907, V-B:GLU:543:CD:9880, V-A:MET:535:CE:4835, V-A:ASP:366:CB:3212, H-A:ARG:545:NH2:4928, V-A:ARG:545:CZ:4926, H-A:GLU:543:OE1:4909, V-B:TYR:539:CG:9844, V-A:GLU:543:CB:4906, H-B:GLY:544:O:9885, V-B:TYR:539:CD1:9845, H-B:GLU:543:OE2:9882, V-B:PRO:540:C:9853, V-B:TYR:539:CE1:9847, H-A:TYR:484:OH:4348"]

$$$$
ZINC824596551-again1
     RDKit          3D

 80 84  0  0  0  0  0  0  0  0999 V2000
  128.9130  132.6060   58.2150 C   0  0  0  0  0  0  0  0  0  0  0  0
  129.4890  131.8400   57.1630 O   0  0  0  0  0  0  0  0  0  0  0  0
  130.5720  131.0210   57.4340 C   0  0  0  0  0  0  0  0  0  0  0  0
  130.4600  129.7330   57.9870 C   0  0  0  0  0  0  0  0  0  0  0  0
  131.5910  128.9430   58.2300 C   0  0  0  0  0  0  0  0  0  0  0  0
  131.4850  127.5170   58.8030 C   0  0  2  0  0  0  0  0  0  0  0  0
  132.0830  126.3650   57.9360 C   0  0  0  0  0  0  0  0  0  0  0  0
  132.8570  125.2980   58.7260 C   0  0  0  0  0  0  0  0  0  0  0  0
  133.5240  124.4500   58.1320 O   0  0  0  0  0  0  0  0  0  0  0  0
  132.7520  125.3540   60.0690 N   0  0  0  0  0  0  0  0  0  0  0  0
  133.3040  124.4050   61.0540 C   0  0  1  0  0  0  0  0  0  0  0  0
  133.4430  124.9850   62.4920 C   0  0  0  0  0  0  0  0  0  0  0  0
  132.3110  125.3100   63.1250 N   0  0  0  0  0  0  0  0  0  0  0  0
  134.5450  125.0910   63.0310 O   0  0  0  0  0  0  0  0  0  0  0  0
  132.6350  123.0410   60.9200 C   0  0  0  0  0  0  0  0  0  0  0  0
  133.4420  121.8960   60.9260 C   0  0  0  0  0  0  0  0  0  0  0  0
  132.8770  120.6310   60.7970 C   0  0  0  0  0  0  0  0  0  0  0  0
  131.4970  120.5010   60.6540 C   0  0  0  0  0  0  0  0  0  0  0  0
  130.9420  119.2560   60.5230 O   0  0  0  0  0  0  0  0  0  0  0  0
  130.6800  121.6290   60.6390 C   0  0  0  0  0  0  0  0  0  0  0  0
  131.2470  122.8930   60.7700 C   0  0  0  0  0  0  0  0  0  0  0  0
  130.0650  127.1670   59.3250 C   0  0  0  0  0  0  0  0  0  0  0  0
  129.2830  126.1250   58.7220 C   0  0  0  0  0  0  0  0  0  0  0  0
  129.7030  125.4850   57.7030 O   0  0  0  0  0  0  0  0  0  0  0  0
  127.9430  125.6450   59.3150 C   0  0  0  0  0  0  0  0  0  0  0  0
  127.4360  126.4770   60.5210 C   0  0  1  0  0  0  0  0  0  0  0  0
  126.3120  125.7190   61.2600 C   0  0  0  0  0  0  0  0  0  0  0  0
  128.6010  127.0460   61.3780 C   0  0  1  0  0  0  0  0  0  0  0  0
  128.0530  127.9530   62.3400 O   0  0  0  0  0  0  0  0  0  0  0  0
  128.4710  127.5440   63.5800 C   0  0  0  0  0  0  0  0  0  0  0  0
  128.1520  128.2010   64.7660 C   0  0  0  0  0  0  0  0  0  0  0  0
  127.1820  129.6330   64.7270 Cl  0  0  0  0  0  0  0  0  0  0  0  0
  128.6260  127.6860   65.9820 C   0  0  0  0  0  0  0  0  0  0  0  0
  128.2850  128.3700   67.1360 O   0  0  0  0  0  0  0  0  0  0  0  0
  128.8160  127.9460   68.3860 C   0  0  0  0  0  0  0  0  0  0  0  0
  129.4130  126.5150   65.9680 C   0  0  0  0  0  0  0  0  0  0  0  0
  129.7250  125.8580   64.7620 C   0  0  0  0  0  0  0  0  0  0  0  0
  130.4890  124.7110   64.6610 O   0  0  0  0  0  0  0  0  0  0  0  0
  129.8360  123.4510   64.5610 C   0  0  0  0  0  0  0  0  0  0  0  0
  129.2380  126.3950   63.5680 C   0  0  0  0  0  0  0  0  0  0  0  0
  129.3740  125.9730   62.1710 C   0  0  0  0  0  0  0  0  0  0  0  0
  129.9740  124.9900   61.7320 O   0  0  0  0  0  0  0  0  0  0  0  0
  129.5560  127.8680   60.4670 C   0  0  0  0  0  0  0  0  0  0  0  0
  129.8400  129.0970   60.6680 O   0  0  0  0  0  0  0  0  0  0  0  0
  132.8520  129.4550   57.9100 C   0  0  0  0  0  0  0  0  0  0  0  0
  132.9810  130.7320   57.3700 C   0  0  0  0  0  0  0  0  0  0  0  0
  131.8490  131.5120   57.1320 C   0  0  0  0  0  0  0  0  0  0  0  0
  132.0090  132.7640   56.5970 O   0  0  0  0  0  0  0  0  0  0  0  0
  129.2253  132.1906   59.1845 H   0  0  0  0  0  0  0  0  0  0  0  0
  129.2521  133.6495   58.1368 H   0  0  0  0  0  0  0  0  0  0  0  0
  127.8164  132.5699   58.1368 H   0  0  0  0  0  0  0  0  0  0  0  0
  129.4637  129.3376   58.2339 H   0  0  0  0  0  0  0  0  0  0  0  0
  132.1619  127.5722   59.6683 H   0  0  0  0  0  0  0  0  0  0  0  0
  131.2548  125.8675   57.4100 H   0  0  0  0  0  0  0  0  0  0  0  0
  132.8096  126.8344   57.2565 H   0  0  0  0  0  0  0  0  0  0  0  0
  132.1280  126.0460   60.4570 H   0  0  0  0  0  0  0  0  0  0  0  0
  134.3614  124.2273   60.8085 H   0  0  0  0  0  0  0  0  0  0  0  0
  131.4200  125.1960   62.6670 H   0  0  0  0  0  0  0  0  0  0  0  0
  132.3470  125.6730   64.0660 H   0  0  0  0  0  0  0  0  0  0  0  0
  134.5320  121.9978   61.0336 H   0  0  0  0  0  0  0  0  0  0  0  0
  133.5174  119.7367   60.8079 H   0  0  0  0  0  0  0  0  0  0  0  0
  130.0680  119.2770   60.1260 H   0  0  0  0  0  0  0  0  0  0  0  0
  129.5914  121.5211   60.5241 H   0  0  0  0  0  0  0  0  0  0  0  0
  130.6021  123.7840   60.7559 H   0  0  0  0  0  0  0  0  0  0  0  0
  127.1814  125.6901   58.5226 H   0  0  0  0  0  0  0  0  0  0  0  0
  128.1155  124.6254   59.6901 H   0  0  0  0  0  0  0  0  0  0  0  0
  126.9500  127.3991   60.1695 H   0  0  0  0  0  0  0  0  0  0  0  0
  126.4566  125.8165   62.3461 H   0  0  0  0  0  0  0  0  0  0  0  0
  125.3371  126.1449   60.9802 H   0  0  0  0  0  0  0  0  0  0  0  0
  126.3415  124.6556   60.9802 H   0  0  0  0  0  0  0  0  0  0  0  0
  128.2408  128.4053   69.2035 H   0  0  0  0  0  0  0  0  0  0  0  0
  128.7484  126.8506   68.4605 H   0  0  0  0  0  0  0  0  0  0  0  0
  129.8693  128.2543   68.4605 H   0  0  0  0  0  0  0  0  0  0  0  0
  129.7902  126.1073   66.9175 H   0  0  0  0  0  0  0  0  0  0  0  0
  129.6342  123.0615   65.5698 H   0  0  0  0  0  0  0  0  0  0  0  0
  128.8871  123.5719   64.0180 H   0  0  0  0  0  0  0  0  0  0  0  0
  130.4819  122.7454   64.0180 H   0  0  0  0  0  0  0  0  0  0  0  0
  133.7496  128.8440   58.0863 H   0  0  0  0  0  0  0  0  0  0  0  0
  133.9791  131.1273   57.1302 H   0  0  0  0  0  0  0  0  0  0  0  0
  131.1750  133.2220   56.4660 H   0  0  0  0  0  0  0  0  0  0  0  0
  1  2  1  0
  2  3  1  0
  3  4  2  0
  4  5  1  0
  5  6  1  0
  6  7  1  0
  7  8  1  0
  8  9  2  0
  8 10  1  0
 10 11  1  0
 11 12  1  0
 12 13  1  0
 12 14  2  0
 11 15  1  0
 15 16  2  0
 16 17  1  0
 17 18  2  0
 18 19  1  0
 18 20  1  0
 20 21  2  0
  6 22  1  0
 22 23  2  0
 23 24  1  0
 23 25  1  0
 25 26  1  0
 26 27  1  0
 26 28  1  0
 28 29  1  1
 29 30  1  0
 30 31  2  0
 31 32  1  0
 31 33  1  0
 33 34  1  0
 34 35  1  0
 33 36  2  0
 36 37  1  0
 37 38  1  0
 38 39  1  0
 37 40  2  0
 40 41  1  0
 41 42  2  0
 28 43  1  0
 43 44  2  0
  5 45  2  0
 45 46  1  0
 46 47  2  0
 47 48  1  0
 47  3  1  0
 21 15  1  0
 43 22  1  0
 41 28  1  0
 40 30  1  0
  1 49  1  0
  1 50  1  0
  1 51  1  0
  4 52  1  0
  6 53  1  1
  7 54  1  0
  7 55  1  0
 10 56  1  0
 11 57  1  6
 13 58  1  0
 13 59  1  0
 16 60  1  0
 17 61  1  0
 19 62  1  0
 20 63  1  0
 21 64  1  0
 25 65  1  0
 25 66  1  0
 26 67  1  6
 27 68  1  0
 27 69  1  0
 27 70  1  0
 35 71  1  0
 35 72  1  0
 35 73  1  0
 36 74  1  0
 39 75  1  0
 39 76  1  0
 39 77  1  0
 45 78  1  0
 46 79  1  0
 48 80  1  0
M  CHG  1  24  -1
M  END
>  <Binding energies>  (1) 
[-6.2]

>  <Ligand effiencies>  (1) 
[-0.1169811320754717]

>  <Interactions>  (1) 
["V-A:ILE:369:CG2:3237, V-A:ASP:366:CA:3210, H-A:GLU:543:OE2:4910, V-B:GLU:543:CB:9878, H-A:ARG:545:NH1:4927, V-A:TYR:484:CE2:4346, V-B:TYR:539:CE2:9848, V-B:GLU:543:CG:9879, V-A:ASP:366:CG:3213, V-A:LEU:363:CD1:3189, V-A:TYR:539:CD1:4873, V-A:TYR:531:CE2:4793, H-B:TYR:539:OH:9850, V-A:GLU:543:CD:4908, V-B:HIS:456:CE1:9041, H-A:GLY:454:N:4050, V-B:TYR:539:CD2:9846, V-A:TYR:531:CZ:4794, V-A:GLU:543:CG:4907, H-A:SER:385:OG:3410, V-B:GLU:543:CD:9880, V-A:SER:385:CB:3409, V-A:TYR:539:C:4867, V-A:ASP:366:CB:3212, V-A:LEU:475:CD2:4259, H-A:ARG:545:NH2:4928, V-A:ARG:545:CZ:4926, V-A:GLU:543:CB:4906, H-A:HIS:383:HE2:3395, H-A:ASP:366:OD1:3214, H-B:TYR:539:O:9840, H-A:ASP:366:OD2:3215"]

$$$$
ZINC825426661
     RDKit          3D

 46 47  0  0  0  0  0  0  0  0999 V2000
  130.4740  122.7660   62.0170 C   0  0  0  0  0  0  0  0  0  0  0  0
  131.4690  123.9480   62.0180 C   0  0  2  0  0  0  0  0  0  0  0  0
  131.8740  124.3080   60.5500 C   0  0  0  0  0  0  0  0  0  0  0  0
  133.2970  123.8800   60.0840 C   0  0  1  0  0  0  0  0  0  0  0  0
  133.6440  124.3710   58.6670 C   0  0  0  0  0  0  0  0  0  0  0  0
  134.3510  124.2460   61.1280 C   0  0  0  0  0  0  0  0  0  0  0  0
  134.0190  123.2340   62.2150 C   0  0  2  0  0  0  0  0  0  0  0  0
  133.7880  122.0140   61.3220 C   0  0  0  0  0  0  0  0  0  0  0  0
  133.9320  120.8240   61.5870 O   0  0  0  0  0  0  0  0  0  0  0  0
  133.3920  122.4530   60.1010 O   0  0  0  0  0  0  0  0  0  0  0  0
  132.6850  123.5740   62.9600 C   0  0  1  0  0  0  0  0  0  0  0  0
  132.9060  124.6590   64.0410 C   0  0  0  0  0  0  0  0  0  0  0  0
  133.9700  124.7860   64.6540 O   0  0  0  0  0  0  0  0  0  0  0  0
  131.8000  125.4080   64.2360 O   0  0  0  0  0  0  0  0  0  0  0  0
  130.7790  124.9840   65.1320 C   0  0  0  0  0  0  0  0  0  0  0  0
  131.0910  125.4690   66.5570 C   0  0  0  0  0  0  0  0  0  0  0  0
  129.8740  125.4470   67.5010 C   0  0  0  0  0  0  0  0  0  0  0  0
  129.3270  126.8530   67.8030 C   0  0  0  0  0  0  0  0  0  0  0  0
  129.1780  127.1310   69.3090 C   0  0  0  0  0  0  0  0  0  0  0  0
  130.2560  128.0850   69.8450 C   0  0  0  0  0  0  0  0  0  0  0  0
  130.2450  128.0950   71.6280 Cl  0  0  0  0  0  0  0  0  0  0  0  0
  130.2374  122.4850   63.0539 H   0  0  0  0  0  0  0  0  0  0  0  0
  129.5510  123.0641   61.4982 H   0  0  0  0  0  0  0  0  0  0  0  0
  130.9252  121.9073   61.4982 H   0  0  0  0  0  0  0  0  0  0  0  0
  131.0146  124.8630   62.4258 H   0  0  0  0  0  0  0  0  0  0  0  0
  131.1467  123.8288   59.8781 H   0  0  0  0  0  0  0  0  0  0  0  0
  131.8813  125.4075   60.5172 H   0  0  0  0  0  0  0  0  0  0  0  0
  134.2777  125.2676   58.7346 H   0  0  0  0  0  0  0  0  0  0  0  0
  134.1846  123.5798   58.1269 H   0  0  0  0  0  0  0  0  0  0  0  0
  132.7177  124.6165   58.1269 H   0  0  0  0  0  0  0  0  0  0  0  0
  135.3717  124.1083   60.7416 H   0  0  0  0  0  0  0  0  0  0  0  0
  134.3307  125.2962   61.4546 H   0  0  0  0  0  0  0  0  0  0  0  0
  134.7766  123.1524   63.0084 H   0  0  0  0  0  0  0  0  0  0  0  0
  132.3886  122.6331   63.4466 H   0  0  0  0  0  0  0  0  0  0  0  0
  129.8144  125.4023   64.8085 H   0  0  0  0  0  0  0  0  0  0  0  0
  130.7308  123.8851   65.1285 H   0  0  0  0  0  0  0  0  0  0  0  0
  131.8710  124.8198   66.9814 H   0  0  0  0  0  0  0  0  0  0  0  0
  131.4145  126.5172   66.4753 H   0  0  0  0  0  0  0  0  0  0  0  0
  129.0760  124.8530   67.0316 H   0  0  0  0  0  0  0  0  0  0  0  0
  130.2029  125.0082   68.4545 H   0  0  0  0  0  0  0  0  0  0  0  0
  130.0165  127.5962   67.3762 H   0  0  0  0  0  0  0  0  0  0  0  0
  128.3239  126.9181   67.3562 H   0  0  0  0  0  0  0  0  0  0  0  0
  128.1900  127.5802   69.4879 H   0  0  0  0  0  0  0  0  0  0  0  0
  129.2905  126.1724   69.8366 H   0  0  0  0  0  0  0  0  0  0  0  0
  131.2429  127.7529   69.4904 H   0  0  0  0  0  0  0  0  0  0  0  0
  130.0463  129.1016   69.4808 H   0  0  0  0  0  0  0  0  0  0  0  0
  1  2  1  0
  2  3  1  0
  3  4  1  0
  4  5  1  6
  4  6  1  0
  6  7  1  0
  7  8  1  0
  8  9  2  0
  8 10  1  0
  7 11  1  0
 11 12  1  0
 12 13  2  0
 12 14  1  0
 14 15  1  0
 15 16  1  0
 16 17  1  0
 17 18  1  0
 18 19  1  0
 19 20  1  0
 20 21  1  0
 11  2  1  0
 10  4  1  0
  1 22  1  0
  1 23  1  0
  1 24  1  0
  2 25  1  1
  3 26  1  0
  3 27  1  0
  5 28  1  0
  5 29  1  0
  5 30  1  0
  6 31  1  0
  6 32  1  0
  7 33  1  1
 11 34  1  1
 15 35  1  0
 15 36  1  0
 16 37  1  0
 16 38  1  0
 17 39  1  0
 17 40  1  0
 18 41  1  0
 18 42  1  0
 19 43  1  0
 19 44  1  0
 20 45  1  0
 20 46  1  0
M  END
>  <Binding energies>  (1) 
[-6.15]

>  <Ligand effiencies>  (1) 
[-0.29285714285714287]

>  <Interactions>  (1) 
["V-A:ILE:369:CG2:3237, V-A:ASP:366:CA:3210, V-A:GLY:454:CA:4049, V-A:ILE:369:CB:3236, V-A:GLU:543:C:4902, V-B:GLU:543:CB:9878, H-A:ARG:545:NH1:4927, V-B:TYR:539:CE2:9848, V-B:GLU:543:CG:9879, V-A:GLY:544:C:4912, V-A:ASP:366:CG:3213, V-A:TYR:484:CZ:4347, V-B:GLU:543:CA:9876, H-A:GLY:454:N:4050, V-A:HIS:456:CE1:4070, V-A:ILE:369:CD1:3239, V-A:ASP:366:C:3208, H-A:SER:385:OG:3410, V-A:ASP:366:CB:3212, V-A:LEU:475:CD2:4259, H-A:ARG:545:NH2:4928, V-A:ARG:545:CZ:4926, V-A:GLU:543:CB:4906, H-A:ARG:545:NE:4924, H-A:TYR:484:OH:4348"]

$$$$
ZINC826618
     RDKit          3D

 49 54  0  0  0  0  0  0  0  0999 V2000
  131.2910  123.8460   59.3850 O   0  0  0  0  0  0  0  0  0  0  0  0
  130.4100  124.1000   60.2080 C   0  0  0  0  0  0  0  0  0  0  0  0
  129.7520  125.4610   60.3790 C   0  0  2  0  0  0  0  0  0  0  0  0
  130.7000  126.6730   60.5300 C   0  0  1  0  0  0  0  0  0  0  0  0
  130.5640  127.7150   59.4270 C   0  0  0  0  0  0  0  0  0  0  0  0
  129.6330  127.5320   58.3970 C   0  0  0  0  0  0  0  0  0  0  0  0
  129.4980  128.4910   57.3920 C   0  0  0  0  0  0  0  0  0  0  0  0
  130.2890  129.6390   57.4120 C   0  0  0  0  0  0  0  0  0  0  0  0
  131.2170  129.8310   58.4360 C   0  0  0  0  0  0  0  0  0  0  0  0
  132.1930  131.2530   58.4640 Cl  0  0  0  0  0  0  0  0  0  0  0  0
  131.3520  128.8710   59.4420 C   0  0  0  0  0  0  0  0  0  0  0  0
  130.4180  127.2100   61.8300 O   0  0  0  0  0  0  0  0  0  0  0  0
  129.7960  126.2370   62.6710 C   0  0  0  0  0  0  0  0  0  0  0  0
  130.8850  125.5660   63.5360 C   0  0  0  0  0  0  0  0  0  0  0  0
  131.8570  124.9260   63.1330 O   0  0  0  0  0  0  0  0  0  0  0  0
  130.5090  125.8180   64.9370 C   0  0  0  0  0  0  0  0  0  0  0  0
  131.1390  125.3840   66.1070 C   0  0  0  0  0  0  0  0  0  0  0  0
  130.6150  125.7500   67.3490 C   0  0  0  0  0  0  0  0  0  0  0  0
  129.4730  126.5490   67.4210 C   0  0  0  0  0  0  0  0  0  0  0  0
  128.8460  126.9860   66.2530 C   0  0  0  0  0  0  0  0  0  0  0  0
  129.3670  126.6140   65.0100 C   0  0  0  0  0  0  0  0  0  0  0  0
  128.8820  126.9640   63.6630 C   0  0  0  0  0  0  0  0  0  0  0  0
  127.9160  127.6760   63.3830 O   0  0  0  0  0  0  0  0  0  0  0  0
  128.9990  125.3630   61.6520 C   0  0  2  0  0  0  0  0  0  0  0  0
  128.9030  123.8590   61.9010 C   0  0  0  0  0  0  0  0  0  0  0  0
  128.1520  123.3390   62.7270 O   0  0  0  0  0  0  0  0  0  0  0  0
  129.7960  123.2450   61.0730 N   0  0  0  0  0  0  0  0  0  0  0  0
  130.0720  121.8660   61.1260 C   0  0  0  0  0  0  0  0  0  0  0  0
  129.0980  120.9770   61.5970 C   0  0  0  0  0  0  0  0  0  0  0  0
  129.3700  119.6130   61.6430 C   0  0  0  0  0  0  0  0  0  0  0  0
  130.6120  119.1390   61.2220 C   0  0  0  0  0  0  0  0  0  0  0  0
  130.9800  117.2740   61.2860 Br  0  0  0  0  0  0  0  0  0  0  0  0
  131.5860  120.0200   60.7540 C   0  0  0  0  0  0  0  0  0  0  0  0
  131.3180  121.3860   60.7040 C   0  0  0  0  0  0  0  0  0  0  0  0
  129.1700  125.6524   59.4654 H   0  0  0  0  0  0  0  0  0  0  0  0
  131.7479  126.3532   60.4315 H   0  0  0  0  0  0  0  0  0  0  0  0
  129.0055  126.6287   58.3800 H   0  0  0  0  0  0  0  0  0  0  0  0
  128.7671  128.3410   56.5837 H   0  0  0  0  0  0  0  0  0  0  0  0
  130.1813  130.3942   56.6195 H   0  0  0  0  0  0  0  0  0  0  0  0
  132.0819  129.0249   60.2504 H   0  0  0  0  0  0  0  0  0  0  0  0
  132.0418  124.7581   66.0499 H   0  0  0  0  0  0  0  0  0  0  0  0
  131.1038  125.4075   68.2730 H   0  0  0  0  0  0  0  0  0  0  0  0
  129.0655  126.8354   68.4018 H   0  0  0  0  0  0  0  0  0  0  0  0
  127.9480  127.6188   66.3101 H   0  0  0  0  0  0  0  0  0  0  0  0
  127.9701  125.7492   61.6984 H   0  0  0  0  0  0  0  0  0  0  0  0
  128.1204  121.3558   61.9298 H   0  0  0  0  0  0  0  0  0  0  0  0
  128.6073  118.9106   62.0105 H   0  0  0  0  0  0  0  0  0  0  0  0
  132.5635  119.6374   60.4251 H   0  0  0  0  0  0  0  0  0  0  0  0
  132.0825  122.0852   60.3343 H   0  0  0  0  0  0  0  0  0  0  0  0
  1  2  2  0
  2  3  1  0
  3  4  1  0
  4  5  1  0
  5  6  2  0
  6  7  1  0
  7  8  2  0
  8  9  1  0
  9 10  1  0
  9 11  2  0
  4 12  1  0
 12 13  1  0
 13 14  1  0
 14 15  2  0
 14 16  1  0
 16 17  2  0
 17 18  1  0
 18 19  2  0
 19 20  1  0
 20 21  2  0
 21 22  1  0
 22 23  2  0
 13 24  1  0
 24 25  1  0
 25 26  2  0
 25 27  1  0
 27 28  1  0
 28 29  2  0
 29 30  1  0
 30 31  2  0
 31 32  1  0
 31 33  1  0
 33 34  2  0
 27  2  1  0
 34 28  1  0
 24  3  1  0
 11  5  1  0
 22 13  1  0
 21 16  1  0
  3 35  1  6
  4 36  1  1
  6 37  1  0
  7 38  1  0
  8 39  1  0
 11 40  1  0
 17 41  1  0
 18 42  1  0
 19 43  1  0
 20 44  1  0
 24 45  1  6
 29 46  1  0
 30 47  1  0
 33 48  1  0
 34 49  1  0
M  END
>  <Binding energies>  (1) 
[-7.28]

>  <Ligand effiencies>  (1) 
[-0.21411764705882352]

>  <Interactions>  (1) 
["V-B:PRO:540:CA:9855, V-B:GLU:543:CB:9878, V-B:ALA:541:CB:9864, V-B:TYR:539:CE2:9848, V-A:LEU:475:CG:4257, V-B:GLU:543:CG:9879, V-B:TYR:539:C:9839, V-A:ASP:366:CG:3213, V-A:LEU:363:CD1:3189, H-B:TYR:539:OH:9850, V-A:HIS:383:CE1:3393, V-A:GLU:543:CD:4908, V-A:HIS:456:CE1:4070, V-A:PRO:482:CB:4326, V-B:TYR:539:CD2:9846, V-B:GLU:543:CD:9880, V-A:ASP:366:CB:3212, V-A:LEU:475:CD2:4259, H-A:ARG:545:NH2:4928, V-A:PRO:540:CB:4885, V-B:PRO:540:C:9853, V-B:ALA:541:CA:9862, V-A:HIS:383:NE2:3394"]

$$$$
ZINC82797271-again1
     RDKit          3D

 32 32  0  0  0  0  0  0  0  0999 V2000
  133.6070  130.3470   57.6240 C   0  0  0  0  0  0  0  0  0  0  0  0
  132.2980  131.0160   58.0000 C   0  0  0  0  0  0  0  0  0  0  0  0
  132.0030  131.3440   59.3270 C   0  0  0  0  0  0  0  0  0  0  0  0
  130.8370  131.9420   59.6890 N   0  0  0  0  0  0  0  0  0  0  0  0
  129.9580  132.2130   58.6880 C   0  0  0  0  0  0  0  0  0  0  0  0
  128.4420  132.9850   59.1750 S   0  0  0  0  0  0  0  0  0  0  0  0
  127.6070  131.9370   60.4150 C   0  0  2  0  0  0  0  0  0  0  0  0
  126.4720  132.7100   61.1130 C   0  0  0  0  0  0  0  0  0  0  0  0
  128.5580  131.2990   61.4660 C   0  0  0  0  0  0  0  0  0  0  0  0
  129.2540  132.2460   62.4860 C   0  0  2  0  0  0  0  0  0  0  0  0
  129.1060  133.7180   62.0550 C   0  0  0  0  0  0  0  0  0  0  0  0
  130.6800  131.9680   62.5370 N   0  0  0  0  0  0  0  0  0  0  0  0
  128.7300  132.0680   63.8550 C   0  0  0  0  0  0  0  0  0  0  0  0
  128.3180  131.9300   64.9280 N   0  0  0  0  0  0  0  0  0  0  0  0
  130.1520  131.9320   57.3720 N   0  0  0  0  0  0  0  0  0  0  0  0
  131.3270  131.3320   57.0450 C   0  0  0  0  0  0  0  0  0  0  0  0
  134.1521  130.0684   58.5379 H   0  0  0  0  0  0  0  0  0  0  0  0
  133.4002  129.4441   57.0308 H   0  0  0  0  0  0  0  0  0  0  0  0
  134.2176  131.0436   57.0308 H   0  0  0  0  0  0  0  0  0  0  0  0
  132.7421  131.1094   60.1072 H   0  0  0  0  0  0  0  0  0  0  0  0
  127.1864  131.0951   59.8455 H   0  0  0  0  0  0  0  0  0  0  0  0
  126.5902  132.6295   62.2037 H   0  0  0  0  0  0  0  0  0  0  0  0
  126.5132  133.7686   60.8169 H   0  0  0  0  0  0  0  0  0  0  0  0
  125.5021  132.2839   60.8169 H   0  0  0  0  0  0  0  0  0  0  0  0
  127.9680  130.5720   62.0434 H   0  0  0  0  0  0  0  0  0  0  0  0
  129.3828  130.8776   60.8727 H   0  0  0  0  0  0  0  0  0  0  0  0
  129.0418  134.3569   62.9481 H   0  0  0  0  0  0  0  0  0  0  0  0
  129.9789  134.0138   61.4546 H   0  0  0  0  0  0  0  0  0  0  0  0
  128.1917  133.8341   61.4546 H   0  0  0  0  0  0  0  0  0  0  0  0
  130.8380  131.0990   63.0270 H   0  0  0  0  0  0  0  0  0  0  0  0
  131.0320  131.8330   61.6000 H   0  0  0  0  0  0  0  0  0  0  0  0
  131.5210  131.0861   55.9905 H   0  0  0  0  0  0  0  0  0  0  0  0
  1  2  1  0
  2  3  2  0
  3  4  1  0
  4  5  2  0
  5  6  1  0
  6  7  1  0
  7  8  1  0
  7  9  1  0
  9 10  1  0
 10 11  1  0
 10 12  1  0
 10 13  1  1
 13 14  3  0
  5 15  1  0
 15 16  2  0
 16  2  1  0
  1 17  1  0
  1 18  1  0
  1 19  1  0
  3 20  1  0
  7 21  1  6
  8 22  1  0
  8 23  1  0
  8 24  1  0
  9 25  1  0
  9 26  1  0
 11 27  1  0
 11 28  1  0
 11 29  1  0
 12 30  1  0
 12 31  1  0
 16 32  1  0
M  END
>  <Binding energies>  (1) 
[-4.99]

>  <Ligand effiencies>  (1) 
[-0.27722222222222226]

>  <Interactions>  (1) 
["V-A:PRO:540:N:4884, V-A:LEU:363:CD1:3189, V-A:PRO:540:CB:4885, V-A:PRO:540:CA:4883, V-A:LEU:363:CA:3185, V-A:TYR:531:CE2:4793, H-A:ALA:541:N:4891, V-A:ALA:541:CA:4890, V-A:ALA:541:CB:4892, V-A:PRO:540:C:4881, V-A:TYR:531:CZ:4794, V-A:GLU:543:CG:4907, V-A:ASP:366:CB:3212, H-B:TYR:484:OH:9319, H-A:GLU:543:OE1:4909, V-A:ASP:366:CG:3213"]

$$$$
ZINC834921237
     RDKit          3D

 54 55  0  0  0  0  0  0  0  0999 V2000
  128.6080  130.2650   74.4420 C   0  0  0  0  0  0  0  0  0  0  0  0
  129.4830  130.7400   73.2790 C   0  0  0  0  0  0  0  0  0  0  0  0
  130.3400  129.6720   72.8890 O   0  0  0  0  0  0  0  0  0  0  0  0
  129.8110  128.5620   72.2540 C   0  0  0  0  0  0  0  0  0  0  0  0
  129.3770  128.5520   70.9200 C   0  0  0  0  0  0  0  0  0  0  0  0
  128.8520  127.3910   70.3310 C   0  0  0  0  0  0  0  0  0  0  0  0
  128.3780  127.3710   68.8900 C   0  0  0  0  0  0  0  0  0  0  0  0
  127.1770  127.2680   68.6250 O   0  0  0  0  0  0  0  0  0  0  0  0
  129.3380  127.4990   67.9510 N   0  0  0  0  0  0  0  0  0  0  0  0
  129.0790  127.5380   66.6300 N   0  0  0  0  0  0  0  0  0  0  0  0
  129.4740  126.5130   65.9810 C   0  0  0  0  0  0  0  0  0  0  0  0
  129.2490  126.2940   64.5080 C   0  0  0  0  0  0  0  0  0  0  0  0
  130.2710  125.2230   64.1310 C   0  0  2  0  0  0  0  0  0  0  0  0
  129.8640  124.3280   62.9510 C   0  0  0  0  0  0  0  0  0  0  0  0
  130.3430  124.4250   65.2970 O   0  0  0  0  0  0  0  0  0  0  0  0
  130.2410  125.2650   66.4400 C   0  0  1  0  0  0  0  0  0  0  0  0
  131.6640  125.5030   66.9840 C   0  0  0  0  0  0  0  0  0  0  0  0
  128.7760  126.2270   71.1080 C   0  0  0  0  0  0  0  0  0  0  0  0
  129.1980  126.2110   72.4460 C   0  0  0  0  0  0  0  0  0  0  0  0
  129.1420  125.0950   73.2630 O   0  0  0  0  0  0  0  0  0  0  0  0
  128.7420  123.8420   72.7180 C   0  0  0  0  0  0  0  0  0  0  0  0
  129.1270  122.7340   73.7030 C   0  0  0  0  0  0  0  0  0  0  0  0
  129.7080  127.3870   73.0080 C   0  0  0  0  0  0  0  0  0  0  0  0
  130.1370  127.3840   74.3150 O   0  0  0  0  0  0  0  0  0  0  0  0
  131.0400  126.3310   74.6310 C   0  0  0  0  0  0  0  0  0  0  0  0
  132.4080  126.6540   74.0200 C   0  0  0  0  0  0  0  0  0  0  0  0
  129.0908  130.5271   75.3950 H   0  0  0  0  0  0  0  0  0  0  0  0
  127.6237  130.7526   74.3833 H   0  0  0  0  0  0  0  0  0  0  0  0
  128.4807  129.1740   74.3833 H   0  0  0  0  0  0  0  0  0  0  0  0
  128.8458  131.0322   72.4313 H   0  0  0  0  0  0  0  0  0  0  0  0
  130.0825  131.6081   73.5902 H   0  0  0  0  0  0  0  0  0  0  0  0
  129.4496  129.4731   70.3231 H   0  0  0  0  0  0  0  0  0  0  0  0
  130.3110  127.5920   68.2040 H   0  0  0  0  0  0  0  0  0  0  0  0
  128.2248  125.9409   64.3176 H   0  0  0  0  0  0  0  0  0  0  0  0
  129.3676  127.2165   63.9207 H   0  0  0  0  0  0  0  0  0  0  0  0
  131.2100  125.6969   63.8091 H   0  0  0  0  0  0  0  0  0  0  0  0
  129.4370  123.3891   63.3332 H   0  0  0  0  0  0  0  0  0  0  0  0
  129.1142  124.8488   62.3374 H   0  0  0  0  0  0  0  0  0  0  0  0
  130.7493  124.1052   62.3374 H   0  0  0  0  0  0  0  0  0  0  0  0
  129.6822  124.8397   67.2867 H   0  0  0  0  0  0  0  0  0  0  0  0
  131.6415  125.4992   68.0838 H   0  0  0  0  0  0  0  0  0  0  0  0
  132.3310  124.7039   66.6282 H   0  0  0  0  0  0  0  0  0  0  0  0
  132.0347  126.4756   66.6282 H   0  0  0  0  0  0  0  0  0  0  0  0
  128.3767  125.3057   70.6589 H   0  0  0  0  0  0  0  0  0  0  0  0
  127.6532  123.8367   72.5617 H   0  0  0  0  0  0  0  0  0  0  0  0
  129.2419  123.6760   71.7523 H   0  0  0  0  0  0  0  0  0  0  0  0
  129.0003  123.0987   74.7330 H   0  0  0  0  0  0  0  0  0  0  0  0
  128.4802  121.8590   73.5417 H   0  0  0  0  0  0  0  0  0  0  0  0
  130.1770  122.4486   73.5417 H   0  0  0  0  0  0  0  0  0  0  0  0
  131.1349  126.2405   75.7232 H   0  0  0  0  0  0  0  0  0  0  0  0
  130.6636  125.3809   74.2240 H   0  0  0  0  0  0  0  0  0  0  0  0
  133.1376  126.8263   74.8249 H   0  0  0  0  0  0  0  0  0  0  0  0
  132.7405  125.8097   73.3983 H   0  0  0  0  0  0  0  0  0  0  0  0
  132.3277  127.5579   73.3983 H   0  0  0  0  0  0  0  0  0  0  0  0
  1  2  1  0
  2  3  1  0
  3  4  1  0
  4  5  2  0
  5  6  1  0
  6  7  1  0
  7  8  2  0
  7  9  1  0
  9 10  1  0
 10 11  2  0
 11 12  1  0
 12 13  1  0
 13 14  1  0
 13 15  1  0
 15 16  1  0
 16 17  1  0
  6 18  2  0
 18 19  1  0
 19 20  1  0
 20 21  1  0
 21 22  1  0
 19 23  2  0
 23 24  1  0
 24 25  1  0
 25 26  1  0
 23  4  1  0
 16 11  1  0
  1 27  1  0
  1 28  1  0
  1 29  1  0
  2 30  1  0
  2 31  1  0
  5 32  1  0
  9 33  1  0
 12 34  1  0
 12 35  1  0
 13 36  1  6
 14 37  1  0
 14 38  1  0
 14 39  1  0
 16 40  1  1
 17 41  1  0
 17 42  1  0
 17 43  1  0
 18 44  1  0
 21 45  1  0
 21 46  1  0
 22 47  1  0
 22 48  1  0
 22 49  1  0
 25 50  1  0
 25 51  1  0
 26 52  1  0
 26 53  1  0
 26 54  1  0
M  END
>  <Binding energies>  (1) 
[-5.76]

>  <Ligand effiencies>  (1) 
[-0.21333333333333332]

>  <Interactions>  (1) 
["V-B:HIS:456:CD2:9039, H-A:GLU:543:OE2:4910, V-A:GLU:543:C:4902, V-B:GLU:543:C:9874, V-B:GLU:543:CB:9878, H-B:LYS:547:NZ:9923, V-B:GLU:543:CG:9879, V-A:HIS:456:CD2:4068, V-A:HIS:456:CB:4065, V-B:LYS:547:CE:9922, V-A:GLU:543:CD:4908, V-A:TYR:484:CZ:4347, V-B:HIS:456:CE1:9041, V-A:HIS:456:CE1:4070, V-B:GLY:544:CA:9886, V-B:GLU:543:CD:9880, H-A:LYS:547:NZ:4951, V-A:HIS:456:CG:4066, V-A:GLU:543:CB:4906, V-A:LYS:547:CE:4950, H-A:TYR:484:OH:4348"]

$$$$
ZINC835098247
     RDKit          3D

 35 36  0  0  0  0  0  0  0  0999 V2000
  128.2030  133.0700   60.4460 C   0  0  0  0  0  0  0  0  0  0  0  0
  129.0840  133.2940   61.6870 C   0  0  0  0  0  0  0  0  0  0  0  0
  129.6330  131.9890   62.2970 C   0  0  2  0  0  0  0  0  0  0  0  0
  128.7640  131.4940   63.4710 C   0  0  0  0  0  0  0  0  0  0  0  0
  130.9730  132.2220   62.7320 O   0  0  0  0  0  0  0  0  0  0  0  0
  132.0400  131.9130   61.9600 C   0  0  0  0  0  0  0  0  0  0  0  0
  133.2150  132.2080   62.1910 O   0  0  0  0  0  0  0  0  0  0  0  0
  131.6480  131.0810   60.7340 C   0  0  0  0  0  0  0  0  0  0  0  0
  131.8730  131.8060   59.3850 C   0  0  1  0  0  0  0  0  0  0  0  0
  132.8970  131.1200   58.4630 C   0  0  0  0  0  0  0  0  0  0  0  0
  132.0770  130.8360   57.1950 C   0  0  2  0  0  0  0  0  0  0  0  0
  131.7130  132.0960   56.3960 C   0  0  0  0  0  0  0  0  0  0  0  0
  130.6870  132.7720   57.3040 C   0  0  0  0  0  0  0  0  0  0  0  0
  130.6140  131.8010   58.4950 C   0  0  1  0  0  0  0  0  0  0  0  0
  130.8170  130.5780   57.8000 O   0  0  0  0  0  0  0  0  0  0  0  0
  127.1822  132.8104   60.7630 H   0  0  0  0  0  0  0  0  0  0  0  0
  128.1771  133.9901   59.8438 H   0  0  0  0  0  0  0  0  0  0  0  0
  128.6197  132.2492   59.8438 H   0  0  0  0  0  0  0  0  0  0  0  0
  129.9352  133.9286   61.3994 H   0  0  0  0  0  0  0  0  0  0  0  0
  128.4501  133.7663   62.4520 H   0  0  0  0  0  0  0  0  0  0  0  0
  129.6115  131.2008   61.5300 H   0  0  0  0  0  0  0  0  0  0  0  0
  129.2434  131.7671   64.4226 H   0  0  0  0  0  0  0  0  0  0  0  0
  127.7699  131.9614   63.4139 H   0  0  0  0  0  0  0  0  0  0  0  0
  128.6589  130.4005   63.4139 H   0  0  0  0  0  0  0  0  0  0  0  0
  132.2474  130.1586   60.7355 H   0  0  0  0  0  0  0  0  0  0  0  0
  130.5688  130.8840   60.8141 H   0  0  0  0  0  0  0  0  0  0  0  0
  132.1957  132.8040   59.7165 H   0  0  0  0  0  0  0  0  0  0  0  0
  133.7441  131.7873   58.2458 H   0  0  0  0  0  0  0  0  0  0  0  0
  133.3436  130.2167   58.9042 H   0  0  0  0  0  0  0  0  0  0  0  0
  132.5964  130.1106   56.5516 H   0  0  0  0  0  0  0  0  0  0  0  0
  132.5928  132.7380   56.2419 H   0  0  0  0  0  0  0  0  0  0  0  0
  131.3342  131.8827   55.3855 H   0  0  0  0  0  0  0  0  0  0  0  0
  131.0308  133.7674   57.6219 H   0  0  0  0  0  0  0  0  0  0  0  0
  129.7159  132.9470   56.8179 H   0  0  0  0  0  0  0  0  0  0  0  0
  129.7202  132.0017   59.1039 H   0  0  0  0  0  0  0  0  0  0  0  0
  1  2  1  0
  2  3  1  0
  3  4  1  0
  3  5  1  0
  5  6  1  0
  6  7  2  0
  6  8  1  0
  8  9  1  0
  9 10  1  0
 10 11  1  0
 11 12  1  0
 12 13  1  0
 13 14  1  0
 14 15  1  0
 14  9  1  0
 15 11  1  0
  1 16  1  0
  1 17  1  0
  1 18  1  0
  2 19  1  0
  2 20  1  0
  3 21  1  6
  4 22  1  0
  4 23  1  0
  4 24  1  0
  8 25  1  0
  8 26  1  0
  9 27  1  1
 10 28  1  0
 10 29  1  0
 11 30  1  6
 12 31  1  0
 12 32  1  0
 13 33  1  0
 13 34  1  0
 14 35  1  1
M  END
>  <Binding energies>  (1) 
[-4.86]

>  <Ligand effiencies>  (1) 
[-0.324]

>  <Interactions>  (1) 
["V-A:TYR:539:CD1:4873, V-A:LEU:363:CD1:3189, V-A:PRO:540:N:4884, V-A:PRO:540:CB:4885, V-A:PRO:540:CA:4883, V-A:LEU:363:CA:3185, V-A:TYR:531:CE2:4793, H-A:ALA:541:N:4891, V-A:ALA:541:CB:4892, V-A:PRO:540:C:4881, V-A:GLU:543:CG:4907, V-A:TYR:531:CZ:4794, V-A:ILE:538:CB:4862, H-A:TYR:531:OH:4795, V-A:GLU:543:CD:4908, V-A:PRO:540:CD:4887, V-A:ILE:538:CG2:4863"]

$$$$
ZINC837540967
     RDKit          3D

 42 41  0  0  0  0  0  0  0  0999 V2000
  128.7380  124.5540   57.5330 C   0  0  0  0  0  0  0  0  0  0  0  0
  127.6360  123.9870   56.6200 C   0  0  0  0  0  0  0  0  0  0  0  0
  126.7450  122.9180   57.2780 C   0  0  0  0  0  0  0  0  0  0  0  0
  126.4900  121.8510   56.7180 O   0  0  0  0  0  0  0  0  0  0  0  0
  126.1280  123.2320   58.6510 C   0  0  2  0  0  0  0  0  0  0  0  0
  125.4370  124.6130   58.6460 C   0  0  0  0  0  0  0  0  0  0  0  0
  127.1310  123.1710   59.6670 O   0  0  0  0  0  0  0  0  0  0  0  0
  126.8270  123.2230   60.9870 C   0  0  0  0  0  0  0  0  0  0  0  0
  125.7580  122.8590   61.4840 O   0  0  0  0  0  0  0  0  0  0  0  0
  127.9870  123.7960   61.8000 C   0  0  2  0  0  0  0  0  0  0  0  0
  128.5920  125.0430   61.0940 C   0  0  0  0  0  0  0  0  0  0  0  0
  127.5920  126.1980   60.9220 C   0  0  0  0  0  0  0  0  0  0  0  0
  128.9970  122.7520   62.1900 N   0  0  0  0  0  0  0  0  0  0  0  0
  129.0730  122.4730   63.6370 C   0  0  0  0  0  0  0  0  0  0  0  0
  130.4100  122.8840   64.2800 C   0  0  0  0  0  0  0  0  0  0  0  0
  128.9010  121.4980   61.4200 C   0  0  0  0  0  0  0  0  0  0  0  0
  130.2520  120.7770   61.2610 C   0  0  0  0  0  0  0  0  0  0  0  0
  128.4535  124.4076   58.5854 H   0  0  0  0  0  0  0  0  0  0  0  0
  129.6849  124.0311   57.3330 H   0  0  0  0  0  0  0  0  0  0  0  0
  128.8631  125.6284   57.3330 H   0  0  0  0  0  0  0  0  0  0  0  0
  126.9929  124.8203   56.3005 H   0  0  0  0  0  0  0  0  0  0  0  0
  128.1494  123.4921   55.7825 H   0  0  0  0  0  0  0  0  0  0  0  0
  125.3606  122.4743   58.8677 H   0  0  0  0  0  0  0  0  0  0  0  0
  125.2714  124.9439   59.6819 H   0  0  0  0  0  0  0  0  0  0  0  0
  126.0769  125.3413   58.1263 H   0  0  0  0  0  0  0  0  0  0  0  0
  124.4705  124.5375   58.1263 H   0  0  0  0  0  0  0  0  0  0  0  0
  127.5881  124.1501   62.7620 H   0  0  0  0  0  0  0  0  0  0  0  0
  129.4409  125.4042   61.6931 H   0  0  0  0  0  0  0  0  0  0  0  0
  128.8965  124.7268   60.0854 H   0  0  0  0  0  0  0  0  0  0  0  0
  127.2776  126.5612   61.9116 H   0  0  0  0  0  0  0  0  0  0  0  0
  128.0705  127.0175   60.3657 H   0  0  0  0  0  0  0  0  0  0  0  0
  126.7125  125.8417   60.3657 H   0  0  0  0  0  0  0  0  0  0  0  0
  128.2633  123.0227   64.1391 H   0  0  0  0  0  0  0  0  0  0  0  0
  128.9808  121.3836   63.7583 H   0  0  0  0  0  0  0  0  0  0  0  0
  130.3144  122.8546   65.3754 H   0  0  0  0  0  0  0  0  0  0  0  0
  131.1994  122.1870   63.9620 H   0  0  0  0  0  0  0  0  0  0  0  0
  130.6716  123.9040   63.9620 H   0  0  0  0  0  0  0  0  0  0  0  0
  128.2036  120.8229   61.9375 H   0  0  0  0  0  0  0  0  0  0  0  0
  128.5509  121.7609   60.4109 H   0  0  0  0  0  0  0  0  0  0  0  0
  130.6682  120.5549   62.2547 H   0  0  0  0  0  0  0  0  0  0  0  0
  130.1036  119.8381   60.7074 H   0  0  0  0  0  0  0  0  0  0  0  0
  130.9494  121.4229   60.7074 H   0  0  0  0  0  0  0  0  0  0  0  0
  1  2  1  0
  2  3  1  0
  3  4  2  0
  3  5  1  0
  5  6  1  0
  5  7  1  0
  7  8  1  0
  8  9  2  0
  8 10  1  0
 10 11  1  0
 11 12  1  0
 10 13  1  0
 13 14  1  0
 14 15  1  0
 13 16  1  0
 16 17  1  0
  1 18  1  0
  1 19  1  0
  1 20  1  0
  2 21  1  0
  2 22  1  0
  5 23  1  1
  6 24  1  0
  6 25  1  0
  6 26  1  0
 10 27  1  1
 11 28  1  0
 11 29  1  0
 12 30  1  0
 12 31  1  0
 12 32  1  0
 14 33  1  0
 14 34  1  0
 15 35  1  0
 15 36  1  0
 15 37  1  0
 16 38  1  0
 16 39  1  0
 17 40  1  0
 17 41  1  0
 17 42  1  0
M  END
>  <Binding energies>  (1) 
[-4.06]

>  <Ligand effiencies>  (1) 
[-0.23882352941176468]

>  <Interactions>  (1) 
["V-B:PRO:540:CA:9855, V-B:TYR:539:CZ:9849, V-B:TYR:539:CD2:9846, H-B:ALA:541:N:9863, V-B:PRO:540:C:9853, V-B:GLU:543:CD:9880, V-B:ALA:541:CB:9864, V-B:TYR:539:CE2:9848, V-B:PRO:540:CB:9857, V-A:TYR:484:CE2:4346, H-B:TYR:539:N:9842, V-A:LEU:475:CD2:4259, V-B:GLU:543:CG:9879, V-B:TYR:539:CE1:9847, V-B:PRO:540:N:9856"]

$$$$
ZINC837540967-again1
     RDKit          3D

 43 42  0  0  0  0  0  0  0  0999 V2000
  133.4390  124.3550   58.9400 C   0  0  0  0  0  0  0  0  0  0  0  0
  134.2780  124.3460   60.2300 C   0  0  0  0  0  0  0  0  0  0  0  0
  133.4570  124.4460   61.5250 C   0  0  0  0  0  0  0  0  0  0  0  0
  132.4390  125.1380   61.5970 O   0  0  0  0  0  0  0  0  0  0  0  0
  133.9730  123.6280   62.7350 C   0  0  2  0  0  0  0  0  0  0  0  0
  134.0440  122.1260   62.4070 C   0  0  0  0  0  0  0  0  0  0  0  0
  133.1480  123.7460   63.9070 O   0  0  0  0  0  0  0  0  0  0  0  0
  133.2550  124.7670   64.8050 C   0  0  0  0  0  0  0  0  0  0  0  0
  134.3110  125.0990   65.3510 O   0  0  0  0  0  0  0  0  0  0  0  0
  131.8810  125.4000   65.0620 C   0  0  2  0  0  0  0  0  0  0  0  0
  131.5590  125.4610   66.5830 C   0  0  0  0  0  0  0  0  0  0  0  0
  130.1020  125.8420   66.8960 C   0  0  0  0  0  0  0  0  0  0  0  0
  130.8120  124.7300   64.1900 N   0  0  0  0  0  0  0  0  0  0  0  0
  129.6620  125.6530   63.6940 C   0  0  0  0  0  0  0  0  0  0  0  0
  130.1970  126.7400   62.7480 C   0  0  0  0  0  0  0  0  0  0  0  0
  130.2850  123.3490   64.6770 C   0  0  0  0  0  0  0  0  0  0  0  0
  129.8600  122.4350   63.5140 C   0  0  0  0  0  0  0  0  0  0  0  0
  132.3698  124.3665   59.1981 H   0  0  0  0  0  0  0  0  0  0  0  0
  133.6834  125.2506   58.3499 H   0  0  0  0  0  0  0  0  0  0  0  0
  133.6641  123.4544   58.3499 H   0  0  0  0  0  0  0  0  0  0  0  0
  134.8530  123.4087   60.2593 H   0  0  0  0  0  0  0  0  0  0  0  0
  134.9161  125.2413   60.1943 H   0  0  0  0  0  0  0  0  0  0  0  0
  134.9672  124.0506   62.9421 H   0  0  0  0  0  0  0  0  0  0  0  0
  134.0714  121.5474   63.3421 H   0  0  0  0  0  0  0  0  0  0  0  0
  133.1586  121.8361   61.8222 H   0  0  0  0  0  0  0  0  0  0  0  0
  134.9528  121.9210   61.8222 H   0  0  0  0  0  0  0  0  0  0  0  0
  131.8921  126.4541   64.7478 H   0  0  0  0  0  0  0  0  0  0  0  0
  131.7599  124.4716   67.0197 H   0  0  0  0  0  0  0  0  0  0  0  0
  132.1949  126.2489   67.0130 H   0  0  0  0  0  0  0  0  0  0  0  0
  129.9589  125.8794   67.9860 H   0  0  0  0  0  0  0  0  0  0  0  0
  129.8798  126.8284   66.4629 H   0  0  0  0  0  0  0  0  0  0  0  0
  129.4254  125.0906   66.4629 H   0  0  0  0  0  0  0  0  0  0  0  0
  131.3490  124.5290   63.3590 H   0  0  0  0  0  0  0  0  0  0  0  0
  128.9180  125.0447   63.1587 H   0  0  0  0  0  0  0  0  0  0  0  0
  129.2043  126.1421   64.5665 H   0  0  0  0  0  0  0  0  0  0  0  0
  130.6065  127.5720   63.3398 H   0  0  0  0  0  0  0  0  0  0  0  0
  130.9895  126.3164   62.1136 H   0  0  0  0  0  0  0  0  0  0  0  0
  129.3779  127.1096   62.1136 H   0  0  0  0  0  0  0  0  0  0  0  0
  131.0823  122.8481   65.2457 H   0  0  0  0  0  0  0  0  0  0  0  0
  129.3966  123.5317   65.2994 H   0  0  0  0  0  0  0  0  0  0  0  0
  129.4283  121.5066   63.9162 H   0  0  0  0  0  0  0  0  0  0  0  0
  129.1096  122.9512   62.8973 H   0  0  0  0  0  0  0  0  0  0  0  0
  130.7384  122.1939   62.8973 H   0  0  0  0  0  0  0  0  0  0  0  0
  1  2  1  0
  2  3  1  0
  3  4  2  0
  3  5  1  0
  5  6  1  0
  5  7  1  0
  7  8  1  0
  8  9  2  0
  8 10  1  0
 10 11  1  0
 11 12  1  0
 10 13  1  0
 13 14  1  0
 14 15  1  0
 13 16  1  0
 16 17  1  0
  1 18  1  0
  1 19  1  0
  1 20  1  0
  2 21  1  0
  2 22  1  0
  5 23  1  1
  6 24  1  0
  6 25  1  0
  6 26  1  0
 10 27  1  6
 11 28  1  0
 11 29  1  0
 12 30  1  0
 12 31  1  0
 12 32  1  0
 13 33  1  0
 14 34  1  0
 14 35  1  0
 15 36  1  0
 15 37  1  0
 15 38  1  0
 16 39  1  0
 16 40  1  0
 17 41  1  0
 17 42  1  0
 17 43  1  0
M  CHG  1  13   1
M  END
>  <Binding energies>  (1) 
[-3.94]

>  <Ligand effiencies>  (1) 
[-0.21888888888888888]

>  <Interactions>  (1) 
["V-A:ILE:369:CG2:3237, V-A:ASP:366:CA:3210, V-A:GLY:454:CA:4049, V-A:ILE:369:CB:3236, V-B:GLU:543:CB:9878, V-B:ALA:541:CB:9864, H-A:ARG:545:NH1:4927, V-B:TYR:539:CE2:9848, V-A:TYR:484:CE2:4346, V-B:GLU:543:CG:9879, V-A:ASP:366:CG:3213, V-A:GLU:543:CD:4908, V-A:TYR:484:CZ:4347, H-A:GLY:454:N:4050, V-A:GLY:453:C:4042, V-A:ILE:369:CD1:3239, V-A:HIS:456:CE1:4070, V-B:GLU:543:CD:9880, V-A:ASP:366:CB:3212, V-A:LEU:475:CD2:4259, H-A:ARG:545:NH2:4928, V-A:ARG:545:CZ:4926, H-A:ARG:545:NE:4924, H-A:TYR:484:OH:4348"]

$$$$
ZINC83856034
     RDKit          3D

 42 42  0  0  0  0  0  0  0  0999 V2000
  133.5800  124.5540   58.4260 C   0  0  0  0  0  0  0  0  0  0  0  0
  132.2650  124.8860   59.1530 C   0  0  0  0  0  0  0  0  0  0  0  0
  132.0560  126.3940   59.4820 C   0  0  2  0  0  0  0  0  0  0  0  0
  131.2690  126.5640   60.8040 C   0  0  0  0  0  0  0  0  0  0  0  0
  131.3950  127.1840   58.3050 C   0  0  1  0  0  0  0  0  0  0  0  0
  129.8530  127.2740   58.3620 C   0  0  0  0  0  0  0  0  0  0  0  0
  131.9700  128.6180   58.2700 N   0  0  0  0  0  0  0  0  0  0  0  0
  130.9400  129.7610   58.2120 C   0  0  0  0  0  0  0  0  0  0  0  0
  131.6600  131.1210   58.3850 C   0  0  0  0  0  0  0  0  0  0  0  0
  132.5740  131.2870   59.6390 C   0  0  0  0  0  0  0  0  0  0  0  0
  131.8820  131.1710   61.0090 C   0  0  0  0  0  0  0  0  0  0  0  0
  131.5600  129.8590   61.3060 N   0  0  0  0  0  0  0  0  0  0  0  0
  131.6810  132.2300   61.6920 N   0  0  0  0  0  0  0  0  0  0  0  0
  131.0460  131.9980   62.9260 O   0  0  0  0  0  0  0  0  0  0  0  0
  132.0790  131.8460   57.1160 C   0  0  0  0  0  0  0  0  0  0  0  0
  130.9090  132.3560   57.9120 C   0  0  0  0  0  0  0  0  0  0  0  0
  134.3684  124.3550   59.1668 H   0  0  0  0  0  0  0  0  0  0  0  0
  133.4360  123.6640   57.7957 H   0  0  0  0  0  0  0  0  0  0  0  0
  133.8757  125.4057   57.7957 H   0  0  0  0  0  0  0  0  0  0  0  0
  131.4307  124.5571   58.5160 H   0  0  0  0  0  0  0  0  0  0  0  0
  132.3088  124.3640   60.1203 H   0  0  0  0  0  0  0  0  0  0  0  0
  133.0537  126.8363   59.6193 H   0  0  0  0  0  0  0  0  0  0  0  0
  131.9484  126.4173   61.6566 H   0  0  0  0  0  0  0  0  0  0  0  0
  130.8393  127.5757   60.8474 H   0  0  0  0  0  0  0  0  0  0  0  0
  130.4600  125.8199   60.8474 H   0  0  0  0  0  0  0  0  0  0  0  0
  131.6356  126.6135   57.3958 H   0  0  0  0  0  0  0  0  0  0  0  0
  129.5254  127.2931   59.4119 H   0  0  0  0  0  0  0  0  0  0  0  0
  129.5204  128.1931   57.8573 H   0  0  0  0  0  0  0  0  0  0  0  0
  129.4158  126.3998   57.8573 H   0  0  0  0  0  0  0  0  0  0  0  0
  132.5810  128.7530   59.0620 H   0  0  0  0  0  0  0  0  0  0  0  0
  132.5340  128.6890   57.4350 H   0  0  0  0  0  0  0  0  0  0  0  0
  130.4254  129.7406   57.2400 H   0  0  0  0  0  0  0  0  0  0  0  0
  130.2060  129.6316   59.0210 H   0  0  0  0  0  0  0  0  0  0  0  0
  133.3530  130.5119   59.5906 H   0  0  0  0  0  0  0  0  0  0  0  0
  132.9544  132.3179   59.5896 H   0  0  0  0  0  0  0  0  0  0  0  0
  131.0940  129.6360   62.1730 H   0  0  0  0  0  0  0  0  0  0  0  0
  131.7510  129.1160   60.6490 H   0  0  0  0  0  0  0  0  0  0  0  0
  131.3190  131.1000   63.1280 H   0  0  0  0  0  0  0  0  0  0  0  0
  133.0191  132.4167   57.0948 H   0  0  0  0  0  0  0  0  0  0  0  0
  132.2339  131.5491   56.0682 H   0  0  0  0  0  0  0  0  0  0  0  0
  130.9951  133.2989   58.4719 H   0  0  0  0  0  0  0  0  0  0  0  0
  129.8572  132.5850   57.6854 H   0  0  0  0  0  0  0  0  0  0  0  0
  1  2  1  0
  2  3  1  0
  3  4  1  0
  3  5  1  0
  5  6  1  0
  5  7  1  0
  7  8  1  0
  8  9  1  0
  9 10  1  0
 10 11  1  0
 11 12  1  0
 11 13  2  0
 13 14  1  0
  9 15  1  0
 15 16  1  0
 16  9  1  0
  1 17  1  0
  1 18  1  0
  1 19  1  0
  2 20  1  0
  2 21  1  0
  3 22  1  1
  4 23  1  0
  4 24  1  0
  4 25  1  0
  5 26  1  6
  6 27  1  0
  6 28  1  0
  6 29  1  0
  7 30  1  0
  7 31  1  0
  8 32  1  0
  8 33  1  0
 10 34  1  0
 10 35  1  0
 12 36  1  0
 12 37  1  0
 14 38  1  0
 15 39  1  0
 15 40  1  0
 16 41  1  0
 16 42  1  0
M  CHG  1   7   1
M  END
>  <Binding energies>  (1) 
[-6.88]

>  <Ligand effiencies>  (1) 
[-0.3276190476190476]

>  <Interactions>  (1) 
["V-A:ILE:369:CG2:3237, V-A:ASP:366:CA:3210, V-A:ILE:369:CB:3236, H-A:ALA:541:N:4891, H-A:ALA:541:O:4889, H-A:TYR:531:OH:4795, V-B:TYR:539:CE2:9848, V-A:ASP:366:CG:3213, V-A:LEU:363:CD1:3189, V-A:GLU:543:CD:4908, V-A:ASP:366:C:3208, V-A:TYR:531:CZ:4794, V-A:ASP:366:CB:3212, H-A:GLU:543:OE1:4909, H-A:ASP:366:OD1:3214, V-A:PRO:540:N:4884, V-A:PRO:540:CB:4885, V-A:PRO:540:CA:4883, H-A:ASP:366:OD2:3215"]

$$$$
ZINC83922141
     RDKit          3D

 61 67  0  0  0  0  0  0  0  0999 V2000
  131.4960  126.5880   74.2540 C   0  0  0  0  0  0  0  0  0  0  0  0
  130.2240  127.1870   74.0340 O   0  0  0  0  0  0  0  0  0  0  0  0
  129.8270  127.4940   72.7440 C   0  0  0  0  0  0  0  0  0  0  0  0
  129.6140  126.5260   71.7470 C   0  0  0  0  0  0  0  0  0  0  0  0
  129.2040  126.9090   70.4740 C   0  0  0  0  0  0  0  0  0  0  0  0
  129.0110  125.9170   69.5390 O   0  0  0  0  0  0  0  0  0  0  0  0
  129.1160  126.2270   68.1930 C   0  0  0  0  0  0  0  0  0  0  0  0
  129.5190  125.1990   67.3490 C   0  0  0  0  0  0  0  0  0  0  0  0
  129.8130  123.9670   67.8890 O   0  0  0  0  0  0  0  0  0  0  0  0
  129.6270  125.4290   65.9510 C   0  0  0  0  0  0  0  0  0  0  0  0
  130.1520  124.4350   65.0960 C   0  0  0  0  0  0  0  0  0  0  0  0
  130.3280  124.6800   63.7480 C   0  0  0  0  0  0  0  0  0  0  0  0
  129.8260  125.8530   63.1600 C   0  0  0  0  0  0  0  0  0  0  0  0
  129.9800  126.0440   61.7770 C   0  0  0  0  0  0  0  0  0  0  0  0
  129.4330  127.1360   61.1230 C   0  0  0  0  0  0  0  0  0  0  0  0
  128.5900  128.0210   61.8180 C   0  0  0  0  0  0  0  0  0  0  0  0
  128.3650  127.8200   63.2180 C   0  0  0  0  0  0  0  0  0  0  0  0
  127.3490  128.3610   63.7940 O   0  0  0  0  0  0  0  0  0  0  0  0
  129.1440  126.8270   63.9520 C   0  0  0  0  0  0  0  0  0  0  0  0
  129.2350  126.6920   65.3950 C   0  0  0  0  0  0  0  0  0  0  0  0
  129.0370  127.7760   66.3350 C   0  0  0  0  0  0  0  0  0  0  0  0
  129.1000  129.0810   65.9000 O   0  0  0  0  0  0  0  0  0  0  0  0
  128.9210  127.5330   67.7190 C   0  0  0  0  0  0  0  0  0  0  0  0
  128.6670  128.6100   68.7470 C   0  0  0  0  0  0  0  0  0  0  0  0
  128.3330  129.7570   68.4440 O   0  0  0  0  0  0  0  0  0  0  0  0
  129.0290  128.2560   70.1480 C   0  0  0  0  0  0  0  0  0  0  0  0
  129.2400  129.2210   71.1420 C   0  0  0  0  0  0  0  0  0  0  0  0
  129.6340  128.8510   72.4410 C   0  0  0  0  0  0  0  0  0  0  0  0
  129.8570  129.7590   73.4610 O   0  0  0  0  0  0  0  0  0  0  0  0
  129.2330  131.0380   73.4120 C   0  0  0  0  0  0  0  0  0  0  0  0
  128.0110  129.2370   61.0620 C   0  0  0  0  0  0  0  0  0  0  0  0
  127.5430  130.2480   61.5920 O   0  0  0  0  0  0  0  0  0  0  0  0
  128.1220  129.1890   59.7050 N   0  0  0  0  0  0  0  0  0  0  0  0
  127.6270  130.1870   58.7740 C   0  0  0  0  0  0  0  0  0  0  0  0
  128.2300  129.7610   57.4360 C   0  0  0  0  0  0  0  0  0  0  0  0
  128.9350  128.5660   57.7360 O   0  0  0  0  0  0  0  0  0  0  0  0
  128.5170  128.0290   58.9530 C   0  0  2  0  0  0  0  0  0  0  0  0
  127.3660  127.0490   58.6700 C   0  0  0  0  0  0  0  0  0  0  0  0
  129.6980  127.3340   59.6370 C   0  0  0  0  0  0  0  0  0  0  0  0
  131.6787  126.5020   75.3353 H   0  0  0  0  0  0  0  0  0  0  0  0
  131.5136  125.5870   73.7984 H   0  0  0  0  0  0  0  0  0  0  0  0
  132.2789  127.2121   73.7984 H   0  0  0  0  0  0  0  0  0  0  0  0
  129.7722  125.4614   71.9744 H   0  0  0  0  0  0  0  0  0  0  0  0
  129.5010  123.8810   68.7930 H   0  0  0  0  0  0  0  0  0  0  0  0
  130.4244  123.4526   65.5091 H   0  0  0  0  0  0  0  0  0  0  0  0
  130.8672  123.9486   63.1281 H   0  0  0  0  0  0  0  0  0  0  0  0
  130.5516  125.3050   61.1963 H   0  0  0  0  0  0  0  0  0  0  0  0
  128.5910  129.2260   65.0980 H   0  0  0  0  0  0  0  0  0  0  0  0
  129.0953  130.2849   70.9028 H   0  0  0  0  0  0  0  0  0  0  0  0
  129.0567  131.3994   74.4359 H   0  0  0  0  0  0  0  0  0  0  0  0
  129.8873  131.7451   72.8811 H   0  0  0  0  0  0  0  0  0  0  0  0
  128.2729  130.9575   72.8811 H   0  0  0  0  0  0  0  0  0  0  0  0
  126.5279  130.1735   58.7315 H   0  0  0  0  0  0  0  0  0  0  0  0
  127.9033  131.2126   59.0601 H   0  0  0  0  0  0  0  0  0  0  0  0
  127.4397  129.5720   56.6945 H   0  0  0  0  0  0  0  0  0  0  0  0
  128.8793  130.5352   57.0011 H   0  0  0  0  0  0  0  0  0  0  0  0
  126.9463  126.6916   59.6219 H   0  0  0  0  0  0  0  0  0  0  0  0
  126.5820  127.5611   58.0928 H   0  0  0  0  0  0  0  0  0  0  0  0
  127.7465  126.1934   58.0928 H   0  0  0  0  0  0  0  0  0  0  0  0
  129.8583  126.3525   59.1670 H   0  0  0  0  0  0  0  0  0  0  0  0
  130.5896  127.9681   59.5230 H   0  0  0  0  0  0  0  0  0  0  0  0
  1  2  1  0
  2  3  1  0
  3  4  2  0
  4  5  1  0
  5  6  1  0
  6  7  1  0
  7  8  2  0
  8  9  1  0
  8 10  1  0
 10 11  2  0
 11 12  1  0
 12 13  2  0
 13 14  1  0
 14 15  2  0
 15 16  1  0
 16 17  2  0
 17 18  1  0
 17 19  1  0
 19 20  2  0
 20 21  1  0
 21 22  1  0
 21 23  2  0
 23 24  1  0
 24 25  2  0
 24 26  1  0
 26 27  1  0
 27 28  2  0
 28 29  1  0
 29 30  1  0
 16 31  1  0
 31 32  2  0
 31 33  1  0
 33 34  1  0
 34 35  1  0
 35 36  1  0
 36 37  1  0
 37 38  1  6
 37 39  1  0
 28  3  1  0
 37 33  1  0
 26  5  2  0
 23  7  1  0
 20 10  1  0
 19 13  1  0
 39 15  1  0
  1 40  1  0
  1 41  1  0
  1 42  1  0
  4 43  1  0
  9 44  1  0
 11 45  1  0
 12 46  1  0
 14 47  1  0
 22 48  1  0
 27 49  1  0
 30 50  1  0
 30 51  1  0
 30 52  1  0
 34 53  1  0
 34 54  1  0
 35 55  1  0
 35 56  1  0
 38 57  1  0
 38 58  1  0
 38 59  1  0
 39 60  1  0
 39 61  1  0
M  CHG  1  18  -1
M  END
>  <Binding energies>  (1) 
[-1.58]

>  <Ligand effiencies>  (1) 
[-0.03853658536585366]

>  <Interactions>  (1) 
["V-B:HIS:456:CD2:9039, H-A:GLU:543:OE2:4910, H-B:GLU:543:O:9875, V-A:GLU:543:C:4902, V-B:GLU:543:C:9874, V-B:GLU:543:CB:9878, H-B:LYS:547:NZ:9923, V-A:TYR:484:CE2:4346, V-B:GLU:543:CG:9879, V-A:HIS:456:CD2:4068, V-A:GLU:543:CD:4908, H-B:TYR:484:OH:9319, V-B:HIS:456:CE1:9041, V-B:GLU:543:CA:9876, V-A:HIS:456:CE1:4070, V-A:GLU:543:CG:4907, V-B:GLU:543:CD:9880, V-A:MET:535:CE:4835, H-A:LYS:547:NZ:4951, H-A:GLU:543:OE1:4909, V-A:GLU:543:CB:4906, V-A:HIS:456:CG:4066, V-A:LYS:547:CE:4950, H-A:HIS:456:NE2:4071, H-A:TYR:484:OH:4348"]

$$$$
ZINC840384451
     RDKit          3D

 51 53  0  0  0  0  0  0  0  0999 V2000
  129.5580  124.0620   63.2710 C   0  0  0  0  0  0  0  0  0  0  0  0
  130.6900  123.0530   63.5470 C   0  0  0  0  0  0  0  0  0  0  0  0
  130.5860  122.3860   64.9330 C   0  0  0  0  0  0  0  0  0  0  0  0
  132.0940  123.6250   63.2430 C   0  0  0  0  0  0  0  0  0  0  0  0
  132.8050  123.3160   62.0590 C   0  0  0  0  0  0  0  0  0  0  0  0
  132.1720  122.2720   60.8360 Cl  0  0  0  0  0  0  0  0  0  0  0  0
  134.0440  123.8110   61.8040 N   0  0  0  0  0  0  0  0  0  0  0  0
  134.5820  124.6180   62.7440 C   0  0  0  0  0  0  0  0  0  0  0  0
  134.0040  124.9680   63.9150 N   0  0  0  0  0  0  0  0  0  0  0  0
  132.7590  124.4710   64.1600 C   0  0  0  0  0  0  0  0  0  0  0  0
  132.1830  124.8570   65.3850 N   0  0  0  0  0  0  0  0  0  0  0  0
  131.0600  125.7090   65.3910 N   0  0  0  0  0  0  0  0  0  0  0  0
  130.0580  125.5200   66.2700 C   0  0  0  0  0  0  0  0  0  0  0  0
  129.8510  124.4630   66.8740 O   0  0  0  0  0  0  0  0  0  0  0  0
  129.4340  126.6740   66.5600 N   0  0  0  0  0  0  0  0  0  0  0  0
  128.6410  126.9310   67.7660 C   0  0  0  0  0  0  0  0  0  0  0  0
  129.4580  127.0100   69.0810 C   0  0  1  0  0  0  0  0  0  0  0  0
  130.8140  127.7130   68.8570 C   0  0  0  0  0  0  0  0  0  0  0  0
  131.6430  127.7470   70.1550 C   0  0  0  0  0  0  0  0  0  0  0  0
  130.9220  128.4030   71.2010 O   0  0  0  0  0  0  0  0  0  0  0  0
  129.6290  127.8520   71.4910 C   0  0  0  0  0  0  0  0  0  0  0  0
  128.9890  128.5760   72.6860 C   0  0  0  0  0  0  0  0  0  0  0  0
  129.6780  127.5500   73.6000 C   0  0  0  0  0  0  0  0  0  0  0  0
  129.7170  126.6030   72.3910 C   0  0  0  0  0  0  0  0  0  0  0  0
  128.7310  127.7370   70.2370 C   0  0  0  0  0  0  0  0  0  0  0  0
  129.1501  124.4256   64.2257 H   0  0  0  0  0  0  0  0  0  0  0  0
  129.9556  124.9107   62.6952 H   0  0  0  0  0  0  0  0  0  0  0  0
  128.7604  123.5698   62.6952 H   0  0  0  0  0  0  0  0  0  0  0  0
  130.5436  122.2363   62.8249 H   0  0  0  0  0  0  0  0  0  0  0  0
  130.7049  123.1486   65.7168 H   0  0  0  0  0  0  0  0  0  0  0  0
  129.6020  121.9051   65.0356 H   0  0  0  0  0  0  0  0  0  0  0  0
  131.3769  121.6284   65.0356 H   0  0  0  0  0  0  0  0  0  0  0  0
  135.5818  125.0279   62.5380 H   0  0  0  0  0  0  0  0  0  0  0  0
  132.8300  125.1900   66.0850 H   0  0  0  0  0  0  0  0  0  0  0  0
  131.1450  126.5100   64.7830 H   0  0  0  0  0  0  0  0  0  0  0  0
  129.5260  127.4460   65.9170 H   0  0  0  0  0  0  0  0  0  0  0  0
  128.1161  127.8884   67.6320 H   0  0  0  0  0  0  0  0  0  0  0  0
  127.9615  126.0730   67.8765 H   0  0  0  0  0  0  0  0  0  0  0  0
  129.6004  125.9601   69.3766 H   0  0  0  0  0  0  0  0  0  0  0  0
  131.3776  127.1685   68.0851 H   0  0  0  0  0  0  0  0  0  0  0  0
  130.6221  128.7481   68.5382 H   0  0  0  0  0  0  0  0  0  0  0  0
  131.8700  126.7163   70.4650 H   0  0  0  0  0  0  0  0  0  0  0  0
  132.5727  128.3034   69.9650 H   0  0  0  0  0  0  0  0  0  0  0  0
  129.3263  129.6135   72.8267 H   0  0  0  0  0  0  0  0  0  0  0  0
  127.9052  128.7568   72.7370 H   0  0  0  0  0  0  0  0  0  0  0  0
  130.6656  127.8583   73.9737 H   0  0  0  0  0  0  0  0  0  0  0  0
  129.2397  127.2443   74.5615 H   0  0  0  0  0  0  0  0  0  0  0  0
  130.6497  126.0290   72.2884 H   0  0  0  0  0  0  0  0  0  0  0  0
  129.0095  125.7669   72.2893 H   0  0  0  0  0  0  0  0  0  0  0  0
  127.8233  127.1734   70.4984 H   0  0  0  0  0  0  0  0  0  0  0  0
  128.4788  128.7533   69.8999 H   0  0  0  0  0  0  0  0  0  0  0  0
  1  2  1  0
  2  3  1  0
  2  4  1  0
  4  5  2  0
  5  6  1  0
  5  7  1  0
  7  8  2  0
  8  9  1  0
  9 10  2  0
 10 11  1  0
 11 12  1  0
 12 13  1  0
 13 14  2  0
 13 15  1  0
 15 16  1  0
 16 17  1  0
 17 18  1  0
 18 19  1  0
 19 20  1  0
 20 21  1  0
 21 22  1  0
 22 23  1  0
 23 24  1  0
 21 25  1  0
 10  4  1  0
 25 17  1  0
 24 21  1  0
  1 26  1  0
  1 27  1  0
  1 28  1  0
  2 29  1  0
  3 30  1  0
  3 31  1  0
  3 32  1  0
  8 33  1  0
 11 34  1  0
 12 35  1  0
 15 36  1  0
 16 37  1  0
 16 38  1  0
 17 39  1  1
 18 40  1  0
 18 41  1  0
 19 42  1  0
 19 43  1  0
 22 44  1  0
 22 45  1  0
 23 46  1  0
 23 47  1  0
 24 48  1  0
 24 49  1  0
 25 50  1  0
 25 51  1  0
M  END
>  <Binding energies>  (1) 
[-7.5]

>  <Ligand effiencies>  (1) 
[-0.26785714285714285]

>  <Interactions>  (1) 
["V-A:ARG:545:CA:4919, V-B:HIS:456:CD2:9039, H-A:GLU:543:OE2:4910, V-A:GLU:543:C:4902, V-B:GLU:543:CB:9878, H-A:ARG:545:NH1:4927, V-B:TYR:539:CE2:9848, V-A:TYR:484:CE2:4346, V-B:GLU:543:CG:9879, V-A:GLY:544:C:4912, V-A:HIS:456:CD2:4068, H-A:ARG:545:N:4920, V-A:TYR:484:CZ:4347, V-A:GLU:543:CD:4908, V-B:HIS:456:CE1:9041, H-A:GLY:454:N:4050, V-A:ARG:545:CG:4922, V-A:GLY:453:C:4042, V-A:ILE:369:CD1:3239, V-A:HIS:456:CE1:4070, V-B:TYR:539:CD2:9846, V-B:GLU:543:CD:9880, V-A:LEU:475:CD2:4259, H-A:ARG:545:NH2:4928, V-A:ARG:545:CZ:4926, H-A:GLU:543:OE1:4909, V-A:GLU:543:CB:4906, H-B:GLU:543:OE2:9882, V-A:GLY:453:CA:4044, H-A:ARG:545:NE:4924, H-A:TYR:484:OH:4348"]

$$$$
ZINC84214672
     RDKit          3D

 41 41  0  0  0  0  0  0  0  0999 V2000
  127.9060  132.9170   63.6170 C   0  0  0  0  0  0  0  0  0  0  0  0
  127.9230  132.7140   62.2900 C   0  0  0  0  0  0  0  0  0  0  0  0
  128.7760  133.4930   61.3060 C   0  0  0  0  0  0  0  0  0  0  0  0
  129.8070  132.6140   60.5620 C   0  0  0  0  0  0  0  0  0  0  0  0
  130.9600  132.0770   61.4400 C   0  0  0  0  0  0  0  0  0  0  0  0
  130.8180  132.0900   62.6620 O   0  0  0  0  0  0  0  0  0  0  0  0
  132.0930  131.6080   60.8460 N   0  0  0  0  0  0  0  0  0  0  0  0
  133.4360  131.8350   61.4070 C   0  0  0  0  0  0  0  0  0  0  0  0
  132.1090  130.8890   59.5430 C   0  0  2  0  0  0  0  0  0  0  0  0
  132.5600  131.7180   58.3110 C   0  0  0  0  0  0  0  0  0  0  0  0
  131.4040  132.2960   57.4720 C   0  0  0  0  0  0  0  0  0  0  0  0
  130.3700  131.2230   57.0970 C   0  0  0  0  0  0  0  0  0  0  0  0
  129.8280  130.4840   58.3340 C   0  0  0  0  0  0  0  0  0  0  0  0
  130.9520  129.8790   59.2230 C   0  0  2  0  0  0  0  0  0  0  0  0
  130.4370  129.1350   60.4860 C   0  0  0  0  0  0  0  0  0  0  0  0
  131.4460  129.1860   61.6420 N   0  0  0  0  0  0  0  0  0  0  0  0
  127.2554  132.3047   64.2588 H   0  0  0  0  0  0  0  0  0  0  0  0
  128.5426  133.6956   64.0625 H   0  0  0  0  0  0  0  0  0  0  0  0
  127.2709  131.9253   61.8865 H   0  0  0  0  0  0  0  0  0  0  0  0
  128.1133  133.9594   60.5622 H   0  0  0  0  0  0  0  0  0  0  0  0
  129.3406  134.2397   61.8837 H   0  0  0  0  0  0  0  0  0  0  0  0
  129.2747  131.7523   60.1329 H   0  0  0  0  0  0  0  0  0  0  0  0
  130.2727  133.2605   59.8036 H   0  0  0  0  0  0  0  0  0  0  0  0
  133.3808  131.8257   62.5056 H   0  0  0  0  0  0  0  0  0  0  0  0
  134.1147  131.0388   61.0672 H   0  0  0  0  0  0  0  0  0  0  0  0
  133.8153  132.8100   61.0672 H   0  0  0  0  0  0  0  0  0  0  0  0
  132.9435  130.2080   59.7661 H   0  0  0  0  0  0  0  0  0  0  0  0
  133.1777  132.5553   58.6678 H   0  0  0  0  0  0  0  0  0  0  0  0
  133.1092  131.0280   57.6536 H   0  0  0  0  0  0  0  0  0  0  0  0
  130.9028  133.0838   58.0536 H   0  0  0  0  0  0  0  0  0  0  0  0
  131.8291  132.6974   56.5403 H   0  0  0  0  0  0  0  0  0  0  0  0
  129.5302  131.7063   56.5763 H   0  0  0  0  0  0  0  0  0  0  0  0
  130.8674  130.4839   56.4517 H   0  0  0  0  0  0  0  0  0  0  0  0
  129.2466  131.1946   58.9398 H   0  0  0  0  0  0  0  0  0  0  0  0
  129.2095  129.6491   57.9730 H   0  0  0  0  0  0  0  0  0  0  0  0
  131.3995  129.0959   58.5933 H   0  0  0  0  0  0  0  0  0  0  0  0
  129.4978  129.6039   60.8148 H   0  0  0  0  0  0  0  0  0  0  0  0
  130.2852  128.0792   60.2171 H   0  0  0  0  0  0  0  0  0  0  0  0
  131.2710  129.9930   62.2220 H   0  0  0  0  0  0  0  0  0  0  0  0
  132.3890  129.2440   61.2800 H   0  0  0  0  0  0  0  0  0  0  0  0
  131.3650  128.3530   62.2080 H   0  0  0  0  0  0  0  0  0  0  0  0
  1  2  2  0
  2  3  1  0
  3  4  1  0
  4  5  1  0
  5  6  2  0
  5  7  1  0
  7  8  1  0
  7  9  1  0
  9 10  1  0
 10 11  1  0
 11 12  1  0
 12 13  1  0
 13 14  1  0
 14 15  1  0
 15 16  1  0
 14  9  1  0
  1 17  1  0
  1 18  1  0
  2 19  1  0
  3 20  1  0
  3 21  1  0
  4 22  1  0
  4 23  1  0
  8 24  1  0
  8 25  1  0
  8 26  1  0
  9 27  1  1
 10 28  1  0
 10 29  1  0
 11 30  1  0
 11 31  1  0
 12 32  1  0
 12 33  1  0
 13 34  1  0
 13 35  1  0
 14 36  1  6
 15 37  1  0
 15 38  1  0
 16 39  1  0
 16 40  1  0
 16 41  1  0
M  CHG  1  16   1
M  END
>  <Binding energies>  (1) 
[-6.26]

>  <Ligand effiencies>  (1) 
[-0.3294736842105263]

>  <Interactions>  (1) 
["V-A:PRO:540:N:4884, V-A:LEU:363:CD1:3189, V-A:PRO:540:CB:4885, V-A:PRO:540:CA:4883, H-A:GLU:543:OE2:4910, H-A:ALA:541:N:4891, V-A:PRO:540:C:4881, V-A:ALA:541:CB:4892, V-A:MET:535:CE:4835, V-A:GLU:543:CD:4908, H-A:ASP:366:OD2:3215, V-A:TYR:539:C:4867, V-A:ASN:362:C:3172, V-B:LEU:475:CD2:9230, H-A:GLU:543:OE1:4909, V-A:ASP:366:CG:3213, V-A:ASN:362:CB:3176, H-A:ASP:366:OD1:3214"]

$$$$
ZINC84254659
     RDKit          3D

 42 43  0  0  0  0  0  0  0  0999 V2000
  129.5870  125.7960   66.8100 C   0  0  0  0  0  0  0  0  0  0  0  0
  129.8440  126.4370   68.1860 C   0  0  0  0  0  0  0  0  0  0  0  0
  128.7160  127.3810   68.7060 C   0  0  0  0  0  0  0  0  0  0  0  0
  128.1820  126.9580   70.1040 C   0  0  0  0  0  0  0  0  0  0  0  0
  128.8960  127.5800   71.2230 N   0  0  0  0  0  0  0  0  0  0  0  0
  129.1290  127.0120   72.4190 C   0  0  0  0  0  0  0  0  0  0  0  0
  128.7470  125.8800   72.7210 O   0  0  0  0  0  0  0  0  0  0  0  0
  129.9150  127.8670   73.4370 C   0  0  2  0  0  0  0  0  0  0  0  0
  129.1000  128.0600   74.7270 C   0  0  0  0  0  0  0  0  0  0  0  0
  130.1700  129.1770   72.9140 O   0  0  0  0  0  0  0  0  0  0  0  0
  129.1040  130.1310   72.9500 C   0  0  0  0  0  0  0  0  0  0  0  0
  129.5590  131.4910   73.5140 C   0  0  0  0  0  0  0  0  0  0  0  0
  129.1110  132.7720   72.8560 C   0  0  0  0  0  0  0  0  0  0  0  0
  128.5640  132.3790   74.2190 C   0  0  0  0  0  0  0  0  0  0  0  0
  129.0980  128.8760   68.6120 C   0  0  0  0  0  0  0  0  0  0  0  0
  128.3590  128.9500   67.2700 C   0  0  0  0  0  0  0  0  0  0  0  0
  127.6120  127.6690   67.6640 C   0  0  0  0  0  0  0  0  0  0  0  0
  129.1809  124.7830   66.9475 H   0  0  0  0  0  0  0  0  0  0  0  0
  128.8646  126.4077   66.2497 H   0  0  0  0  0  0  0  0  0  0  0  0
  130.5319  125.7393   66.2497 H   0  0  0  0  0  0  0  0  0  0  0  0
  129.9732  125.6269   68.9189 H   0  0  0  0  0  0  0  0  0  0  0  0
  130.7358  127.0693   68.0639 H   0  0  0  0  0  0  0  0  0  0  0  0
  127.1209  127.2402   70.1699 H   0  0  0  0  0  0  0  0  0  0  0  0
  128.3350  125.8721   70.1903 H   0  0  0  0  0  0  0  0  0  0  0  0
  129.2140  128.5260   71.0730 H   0  0  0  0  0  0  0  0  0  0  0  0
  130.8566  127.3357   73.6397 H   0  0  0  0  0  0  0  0  0  0  0  0
  129.7521  127.9056   75.5993 H   0  0  0  0  0  0  0  0  0  0  0  0
  128.6895  129.0802   74.7522 H   0  0  0  0  0  0  0  0  0  0  0  0
  128.2755  127.3323   74.7522 H   0  0  0  0  0  0  0  0  0  0  0  0
  128.7270  130.2798   71.9274 H   0  0  0  0  0  0  0  0  0  0  0  0
  128.3195  129.7361   73.6123 H   0  0  0  0  0  0  0  0  0  0  0  0
  130.5357  131.0576   73.7753 H   0  0  0  0  0  0  0  0  0  0  0  0
  129.8084  133.6178   72.7655 H   0  0  0  0  0  0  0  0  0  0  0  0
  128.6672  133.0353   71.8846 H   0  0  0  0  0  0  0  0  0  0  0  0
  128.8652  132.9400   75.1160 H   0  0  0  0  0  0  0  0  0  0  0  0
  127.5595  132.2393   74.6450 H   0  0  0  0  0  0  0  0  0  0  0  0
  128.6648  129.5053   69.4034 H   0  0  0  0  0  0  0  0  0  0  0  0
  130.1456  129.1996   68.7003 H   0  0  0  0  0  0  0  0  0  0  0  0
  127.7160  129.8346   67.1519 H   0  0  0  0  0  0  0  0  0  0  0  0
  128.9065  129.0233   66.3188 H   0  0  0  0  0  0  0  0  0  0  0  0
  126.6148  127.8403   68.0956 H   0  0  0  0  0  0  0  0  0  0  0  0
  127.3369  126.9186   66.9082 H   0  0  0  0  0  0  0  0  0  0  0  0
  1  2  1  0
  2  3  1  0
  3  4  1  0
  4  5  1  0
  5  6  1  0
  6  7  2  0
  6  8  1  0
  8  9  1  0
  8 10  1  0
 10 11  1  0
 11 12  1  0
 12 13  1  0
 13 14  1  0
  3 15  1  0
 15 16  1  0
 16 17  1  0
 17  3  1  0
 14 12  1  0
  1 18  1  0
  1 19  1  0
  1 20  1  0
  2 21  1  0
  2 22  1  0
  4 23  1  0
  4 24  1  0
  5 25  1  0
  8 26  1  1
  9 27  1  0
  9 28  1  0
  9 29  1  0
 11 30  1  0
 11 31  1  0
 12 32  1  0
 13 33  1  0
 13 34  1  0
 14 35  1  0
 14 36  1  0
 15 37  1  0
 15 38  1  0
 16 39  1  0
 16 40  1  0
 17 41  1  0
 17 42  1  0
M  END
>  <Binding energies>  (1) 
[-5.0]

>  <Ligand effiencies>  (1) 
[-0.2777777777777778]

>  <Interactions>  (1) 
["V-A:HIS:456:CE1:4070, V-A:GLU:543:CA:4904, V-B:HIS:456:CD2:9039, V-B:GLU:543:C:9874, V-A:GLU:543:C:4902, H-B:HIS:456:NE2:9042, V-A:LYS:547:CE:4950, V-B:GLU:543:CB:9878, H-B:LYS:547:NZ:9923, V-A:GLU:543:CG:4907, V-B:GLU:543:CD:9880, V-A:GLU:543:CD:4908, V-B:TYR:484:CB:9312, H-A:LYS:547:NZ:4951, V-B:GLU:543:CG:9879, V-B:HIS:456:CE1:9041, V-A:GLU:543:CB:4906, H-A:GLU:543:O:4903"]

$$$$
ZINC8430582-again1
     RDKit          3D

 55 59  0  0  0  0  0  0  0  0999 V2000
  133.5180  124.0750   59.8460 C   0  0  0  0  0  0  0  0  0  0  0  0
  133.9440  123.9310   61.3100 C   0  0  0  0  0  0  0  0  0  0  0  0
  133.8980  122.5520   61.6670 O   0  0  0  0  0  0  0  0  0  0  0  0
  132.7260  121.8370   61.4830 C   0  0  0  0  0  0  0  0  0  0  0  0
  131.4840  122.2310   62.0070 C   0  0  0  0  0  0  0  0  0  0  0  0
  130.3290  121.4760   61.7790 C   0  0  0  0  0  0  0  0  0  0  0  0
  128.9770  121.9210   62.3490 C   0  0  2  0  0  0  0  0  0  0  0  0
  127.9710  122.0000   61.2880 N   0  0  0  0  0  0  0  0  0  0  0  0
  128.0820  122.9780   60.2850 C   0  0  0  0  0  0  0  0  0  0  0  0
  128.0550  122.5930   58.9390 C   0  0  0  0  0  0  0  0  0  0  0  0
  128.2210  123.5170   57.9110 C   0  0  0  0  0  0  0  0  0  0  0  0
  128.3970  124.8600   58.2180 C   0  0  0  0  0  0  0  0  0  0  0  0
  128.3800  125.2680   59.5490 C   0  0  0  0  0  0  0  0  0  0  0  0
  128.2030  124.3550   60.5950 C   0  0  0  0  0  0  0  0  0  0  0  0
  128.0810  124.8210   61.9120 N   0  0  0  0  0  0  0  0  0  0  0  0
  128.7880  124.4660   63.0380 C   0  0  0  0  0  0  0  0  0  0  0  0
  129.1660  125.4560   63.8760 C   0  0  0  0  0  0  0  0  0  0  0  0
  129.8950  125.2490   65.2020 C   0  0  1  0  0  0  0  0  0  0  0  0
  129.5040  126.2920   66.2410 C   0  0  0  0  0  0  0  0  0  0  0  0
  128.7480  127.4630   66.1100 C   0  0  0  0  0  0  0  0  0  0  0  0
  128.5800  128.1850   67.2940 C   0  0  0  0  0  0  0  0  0  0  0  0
  129.1980  127.5810   68.3710 C   0  0  0  0  0  0  0  0  0  0  0  0
  129.9880  126.1120   67.9100 S   0  0  0  0  0  0  0  0  0  0  0  0
  129.7210  123.7960   65.7370 C   0  0  0  0  0  0  0  0  0  0  0  0
  129.5050  122.7720   64.6270 C   0  0  0  0  0  0  0  0  0  0  0  0
  129.8130  121.5260   65.0850 O   0  0  0  0  0  0  0  0  0  0  0  0
  129.0910  123.0680   63.3700 C   0  0  0  0  0  0  0  0  0  0  0  0
  130.4200  120.3040   61.0240 C   0  0  0  0  0  0  0  0  0  0  0  0
  131.6440  119.8920   60.5020 C   0  0  0  0  0  0  0  0  0  0  0  0
  131.7080  118.4320   59.5750 Cl  0  0  0  0  0  0  0  0  0  0  0  0
  132.7960  120.6570   60.7290 C   0  0  0  0  0  0  0  0  0  0  0  0
  134.0030  120.2540   60.2140 O   0  0  0  0  0  0  0  0  0  0  0  0
  132.4768  124.4269   59.8000 H   0  0  0  0  0  0  0  0  0  0  0  0
  134.1732  124.8016   59.3432 H   0  0  0  0  0  0  0  0  0  0  0  0
  133.5980  123.0999   59.3432 H   0  0  0  0  0  0  0  0  0  0  0  0
  134.9682  124.3119   61.4364 H   0  0  0  0  0  0  0  0  0  0  0  0
  133.2653  124.5076   61.9557 H   0  0  0  0  0  0  0  0  0  0  0  0
  131.4184  123.1502   62.6077 H   0  0  0  0  0  0  0  0  0  0  0  0
  128.5665  121.1442   63.0108 H   0  0  0  0  0  0  0  0  0  0  0  0
  127.9180  121.1040   60.8270 H   0  0  0  0  0  0  0  0  0  0  0  0
  127.8987  121.5336   58.6875 H   0  0  0  0  0  0  0  0  0  0  0  0
  128.2128  123.1855   56.8622 H   0  0  0  0  0  0  0  0  0  0  0  0
  128.5488  125.5963   57.4150 H   0  0  0  0  0  0  0  0  0  0  0  0
  128.5089  126.3347   59.7845 H   0  0  0  0  0  0  0  0  0  0  0  0
  127.8180  125.7940   61.9270 H   0  0  0  0  0  0  0  0  0  0  0  0
  128.9309  126.4893   63.5810 H   0  0  0  0  0  0  0  0  0  0  0  0
  130.9674  125.3914   65.0026 H   0  0  0  0  0  0  0  0  0  0  0  0
  128.3201  127.7888   65.1505 H   0  0  0  0  0  0  0  0  0  0  0  0
  128.0186  129.1286   67.3609 H   0  0  0  0  0  0  0  0  0  0  0  0
  129.1892  127.9835   69.3947 H   0  0  0  0  0  0  0  0  0  0  0  0
  130.6256  123.5187   66.2980 H   0  0  0  0  0  0  0  0  0  0  0  0
  128.8232  123.7855   66.3725 H   0  0  0  0  0  0  0  0  0  0  0  0
  130.7170  121.5180   65.4080 H   0  0  0  0  0  0  0  0  0  0  0  0
  129.5180  119.7018   60.8403 H   0  0  0  0  0  0  0  0  0  0  0  0
  134.7490  120.6640   60.6580 H   0  0  0  0  0  0  0  0  0  0  0  0
  1  2  1  0
  2  3  1  0
  3  4  1  0
  4  5  2  0
  5  6  1  0
  6  7  1  0
  7  8  1  0
  8  9  1  0
  9 10  2  0
 10 11  1  0
 11 12  2  0
 12 13  1  0
 13 14  2  0
 14 15  1  0
 15 16  1  0
 16 17  2  0
 17 18  1  0
 18 19  1  0
 19 20  2  0
 20 21  1  0
 21 22  2  0
 22 23  1  0
 18 24  1  0
 24 25  1  0
 25 26  1  0
 25 27  2  0
  6 28  2  0
 28 29  1  0
 29 30  1  0
 29 31  2  0
 31 32  1  0
 31  4  1  0
 27  7  1  0
 14  9  1  0
 27 16  1  0
 23 19  1  0
  1 33  1  0
  1 34  1  0
  1 35  1  0
  2 36  1  0
  2 37  1  0
  5 38  1  0
  7 39  1  1
  8 40  1  0
 10 41  1  0
 11 42  1  0
 12 43  1  0
 13 44  1  0
 15 45  1  0
 17 46  1  0
 18 47  1  6
 20 48  1  0
 21 49  1  0
 22 50  1  0
 24 51  1  0
 24 52  1  0
 26 53  1  0
 28 54  1  0
 32 55  1  0
M  END
>  <Binding energies>  (1) 
[-5.93]

>  <Ligand effiencies>  (1) 
[-0.15605263157894736]

>  <Interactions>  (1) 
["V-A:ILE:369:CG2:3237, V-B:PRO:540:CA:9855, V-B:GLU:543:CB:9878, V-B:ALA:541:CB:9864, V-B:TYR:539:CE2:9848, V-A:TYR:484:CE2:4346, V-B:GLU:543:CG:9879, V-B:TYR:539:C:9839, V-B:TYR:539:CZ:9849, H-B:GLU:543:OE1:9881, V-B:TYR:539:CB:9843, V-A:TYR:484:CZ:4347, V-A:GLU:543:CD:4908, V-B:GLU:543:CA:9876, V-B:HIS:456:CE1:9041, V-B:PRO:540:N:9856, V-A:ILE:369:CD1:3239, V-A:HIS:456:CE1:4070, V-B:TYR:539:CD2:9846, V-A:GLU:543:CG:4907, V-A:SER:385:CB:3409, H-A:SER:385:OG:3410, V-B:GLU:543:CD:9880, V-A:LEU:475:CD2:4259, V-B:TYR:539:CG:9844, V-A:GLU:543:CB:4906, V-A:HIS:383:CD2:3392, H-B:TYR:539:O:9840, H-A:SER:385:O:3406, V-B:PRO:540:C:9853, V-B:ALA:541:CA:9862, V-A:HIS:383:NE2:3394, H-A:TYR:484:OH:4348, H-B:PRO:540:O:9854"]

$$$$
ZINC8435123
     RDKit          3D

 46 50  0  0  0  0  0  0  0  0999 V2000
  130.9260  125.1720   65.7340 C   0  0  0  0  0  0  0  0  0  0  0  0
  130.0720  126.0920   66.5850 C   0  0  0  0  0  0  0  0  0  0  0  0
  130.1180  126.1780   67.8410 N   0  0  0  0  0  0  0  0  0  0  0  0
  129.2220  127.0970   68.2570 N   0  0  0  0  0  0  0  0  0  0  0  0
  129.0970  127.3580   69.6570 C   0  0  0  0  0  0  0  0  0  0  0  0
  127.9340  126.9760   70.3510 C   0  0  0  0  0  0  0  0  0  0  0  0
  127.8000  127.2250   71.7130 C   0  0  0  0  0  0  0  0  0  0  0  0
  128.8260  127.8620   72.4040 C   0  0  0  0  0  0  0  0  0  0  0  0
  128.6610  128.1710   74.0940 Cl  0  0  0  0  0  0  0  0  0  0  0  0
  129.9840  128.2530   71.7400 C   0  0  0  0  0  0  0  0  0  0  0  0
  130.1190  128.0040   70.3760 C   0  0  0  0  0  0  0  0  0  0  0  0
  128.5480  127.6580   67.2260 C   0  0  0  0  0  0  0  0  0  0  0  0
  127.6870  128.5400   67.2590 O   0  0  0  0  0  0  0  0  0  0  0  0
  129.0960  126.9870   66.0740 C   0  0  0  0  0  0  0  0  0  0  0  0
  128.7450  127.1950   64.7840 C   0  0  0  0  0  0  0  0  0  0  0  0
  127.7700  128.0780   64.3110 N   0  0  0  0  0  0  0  0  0  0  0  0
  128.1330  129.0480   63.3340 N   0  0  0  0  0  0  0  0  0  0  0  0
  128.0080  130.3640   63.7210 C   0  0  0  0  0  0  0  0  0  0  0  0
  127.5840  130.7050   64.8320 O   0  0  0  0  0  0  0  0  0  0  0  0
  128.4300  131.3740   62.6710 C   0  0  0  0  0  0  0  0  0  0  0  0
  128.3220  132.7410   62.9570 C   0  0  0  0  0  0  0  0  0  0  0  0
  128.7000  133.6990   62.0200 C   0  0  0  0  0  0  0  0  0  0  0  0
  129.1950  133.3250   60.7720 C   0  0  0  0  0  0  0  0  0  0  0  0
  129.3260  131.9530   60.4330 C   0  0  0  0  0  0  0  0  0  0  0  0
  129.8260  131.4910   59.1830 C   0  0  0  0  0  0  0  0  0  0  0  0
  130.3820  132.7030   57.8180 Br  0  0  0  0  0  0  0  0  0  0  0  0
  129.9210  130.1220   58.9380 C   0  0  0  0  0  0  0  0  0  0  0  0
  129.5320  129.1870   59.8930 C   0  0  0  0  0  0  0  0  0  0  0  0
  129.0340  129.5940   61.1360 C   0  0  0  0  0  0  0  0  0  0  0  0
  128.9330  130.9850   61.4020 C   0  0  0  0  0  0  0  0  0  0  0  0
  128.6240  128.5430   62.1490 C   0  0  0  0  0  0  0  0  0  0  0  0
  128.7270  127.3310   61.9220 O   0  0  0  0  0  0  0  0  0  0  0  0
  131.5284  124.5230   66.3867 H   0  0  0  0  0  0  0  0  0  0  0  0
  130.2763  124.5518   65.0990 H   0  0  0  0  0  0  0  0  0  0  0  0
  131.5928  125.7739   65.0990 H   0  0  0  0  0  0  0  0  0  0  0  0
  127.1194  126.4734   69.8089 H   0  0  0  0  0  0  0  0  0  0  0  0
  126.8855  126.9192   72.2422 H   0  0  0  0  0  0  0  0  0  0  0  0
  130.7914  128.7577   72.2907 H   0  0  0  0  0  0  0  0  0  0  0  0
  131.0360  128.3164   69.8549 H   0  0  0  0  0  0  0  0  0  0  0  0
  129.2842  126.6067   64.0269 H   0  0  0  0  0  0  0  0  0  0  0  0
  127.2240  128.5560   65.0150 H   0  0  0  0  0  0  0  0  0  0  0  0
  127.9334  133.0619   63.9348 H   0  0  0  0  0  0  0  0  0  0  0  0
  128.6066  134.7665   62.2683 H   0  0  0  0  0  0  0  0  0  0  0  0
  129.4859  134.0978   60.0453 H   0  0  0  0  0  0  0  0  0  0  0  0
  130.3113  129.7735   57.9704 H   0  0  0  0  0  0  0  0  0  0  0  0
  129.6172  128.1137   59.6677 H   0  0  0  0  0  0  0  0  0  0  0  0
  1  2  1  0
  2  3  2  0
  3  4  1  0
  4  5  1  0
  5  6  2  0
  6  7  1  0
  7  8  2  0
  8  9  1  0
  8 10  1  0
 10 11  2  0
  4 12  1  0
 12 13  2  0
 12 14  1  0
 14 15  2  0
 15 16  1  0
 16 17  1  0
 17 18  1  0
 18 19  2  0
 18 20  1  0
 20 21  2  0
 21 22  1  0
 22 23  2  0
 23 24  1  0
 24 25  2  0
 25 26  1  0
 25 27  1  0
 27 28  2  0
 28 29  1  0
 29 30  2  0
 29 31  1  0
 31 32  2  0
 14  2  1  0
 31 17  1  0
 11  5  1  0
 30 20  1  0
 30 24  1  0
  1 33  1  0
  1 34  1  0
  1 35  1  0
  6 36  1  0
  7 37  1  0
 10 38  1  0
 11 39  1  0
 15 40  1  0
 16 41  1  0
 21 42  1  0
 22 43  1  0
 23 44  1  0
 27 45  1  0
 28 46  1  0
M  END
>  <Binding energies>  (1) 
[-8.53]

>  <Ligand effiencies>  (1) 
[-0.2584848484848485]

>  <Interactions>  (1) 
["V-B:GLU:543:C:9874, V-B:HIS:456:CD2:9039, V-A:GLU:543:C:4902, V-B:GLU:543:CB:9878, V-A:PRO:540:C:4881, V-B:GLU:543:CG:9879, V-A:GLY:544:C:4912, H-B:GLU:543:OE1:9881, V-A:ALA:541:CB:4892, V-A:GLU:543:CD:4908, H-B:TYR:484:OH:9319, V-B:HIS:456:CE1:9041, V-A:HIS:456:CE1:4070, V-B:GLY:544:C:9884, V-A:ALA:541:CA:4890, V-B:GLU:543:CD:9880, V-A:TYR:539:C:4867, V-A:GLU:543:CB:4906, V-A:PRO:540:N:4884, H-B:GLU:543:OE2:9882, V-A:PRO:540:CA:4883, V-A:PRO:540:CB:4885"]

$$$$
ZINC8437823
     RDKit          3D

 54 56  0  0  0  0  0  0  0  0999 V2000
  130.9140  118.6760   60.5550 C   0  0  0  0  0  0  0  0  0  0  0  0
  131.7480  119.5660   60.5060 C   0  0  0  0  0  0  0  0  0  0  0  0
  132.7420  120.6490   60.4530 C   0  0  0  0  0  0  0  0  0  0  0  0
  132.1250  121.9310   60.4450 O   0  0  0  0  0  0  0  0  0  0  0  0
  131.6540  122.3430   61.6670 C   0  0  0  0  0  0  0  0  0  0  0  0
  132.4990  123.0550   62.5250 C   0  0  0  0  0  0  0  0  0  0  0  0
  134.2940  123.4450   62.0160 Br  0  0  0  0  0  0  0  0  0  0  0  0
  132.0330  123.4860   63.7660 C   0  0  0  0  0  0  0  0  0  0  0  0
  130.7270  123.2100   64.1680 C   0  0  0  0  0  0  0  0  0  0  0  0
  130.2580  123.7010   65.4800 C   0  0  0  0  0  0  0  0  0  0  0  0
  129.8610  124.9380   65.8650 C   0  0  0  0  0  0  0  0  0  0  0  0
  129.4080  125.3860   67.5080 S   0  0  0  0  0  0  0  0  0  0  0  0
  129.1010  127.0900   67.0370 C   0  0  0  0  0  0  0  0  0  0  0  0
  128.7450  128.0270   67.8280 N   0  0  0  0  0  0  0  0  0  0  0  0
  128.5700  127.8100   69.2000 C   0  0  0  0  0  0  0  0  0  0  0  0
  127.5580  126.9640   69.6650 C   0  0  0  0  0  0  0  0  0  0  0  0
  127.4110  126.7040   71.0260 C   0  0  0  0  0  0  0  0  0  0  0  0
  128.2880  127.2760   71.9430 C   0  0  0  0  0  0  0  0  0  0  0  0
  129.3250  128.1150   71.5140 C   0  0  0  0  0  0  0  0  0  0  0  0
  130.2680  128.7020   72.5220 C   0  0  0  0  0  0  0  0  0  0  0  0
  130.2250  129.8810   72.8870 O   0  0  0  0  0  0  0  0  0  0  0  0
  131.1800  127.8040   72.9880 O   0  0  0  0  0  0  0  0  0  0  0  0
  130.8300  126.7610   73.8990 C   0  0  0  0  0  0  0  0  0  0  0  0
  129.8770  127.3580   74.9450 C   0  0  0  0  0  0  0  0  0  0  0  0
  132.0880  126.1550   74.5520 C   0  0  0  0  0  0  0  0  0  0  0  0
  129.4510  128.3700   70.1370 C   0  0  0  0  0  0  0  0  0  0  0  0
  129.3240  127.1500   65.7130 N   0  0  0  0  0  0  0  0  0  0  0  0
  129.7090  126.0850   64.9960 C   0  0  0  0  0  0  0  0  0  0  0  0
  129.8850  126.1380   63.7790 O   0  0  0  0  0  0  0  0  0  0  0  0
  129.8790  122.5160   63.2980 C   0  0  0  0  0  0  0  0  0  0  0  0
  130.3300  122.0710   62.0430 C   0  0  0  0  0  0  0  0  0  0  0  0
  129.5430  121.3810   61.1400 O   0  0  0  0  0  0  0  0  0  0  0  0
  128.7740  122.1070   60.1860 C   0  0  0  0  0  0  0  0  0  0  0  0
  130.1625  117.8740   60.5992 H   0  0  0  0  0  0  0  0  0  0  0  0
  133.3974  120.5745   61.3333 H   0  0  0  0  0  0  0  0  0  0  0  0
  133.3177  120.5402   59.5220 H   0  0  0  0  0  0  0  0  0  0  0  0
  132.7016  124.0488   64.4340 H   0  0  0  0  0  0  0  0  0  0  0  0
  130.2259  122.9390   66.2727 H   0  0  0  0  0  0  0  0  0  0  0  0
  126.8684  126.4973   68.9462 H   0  0  0  0  0  0  0  0  0  0  0  0
  126.6015  126.0464   71.3758 H   0  0  0  0  0  0  0  0  0  0  0  0
  128.1657  127.0672   73.0160 H   0  0  0  0  0  0  0  0  0  0  0  0
  130.3298  125.9371   73.3690 H   0  0  0  0  0  0  0  0  0  0  0  0
  130.2481  127.1256   75.9541 H   0  0  0  0  0  0  0  0  0  0  0  0
  129.8270  128.4492   74.8150 H   0  0  0  0  0  0  0  0  0  0  0  0
  128.8734  126.9269   74.8150 H   0  0  0  0  0  0  0  0  0  0  0  0
  131.9914  126.2015   75.6468 H   0  0  0  0  0  0  0  0  0  0  0  0
  132.1953  125.1064   74.2376 H   0  0  0  0  0  0  0  0  0  0  0  0
  132.9749  126.7247   74.2376 H   0  0  0  0  0  0  0  0  0  0  0  0
  130.2613  129.0255   69.7854 H   0  0  0  0  0  0  0  0  0  0  0  0
  129.1910  128.0300   65.2370 H   0  0  0  0  0  0  0  0  0  0  0  0
  128.8409  122.3150   63.6014 H   0  0  0  0  0  0  0  0  0  0  0  0
  128.0709  122.7708   60.7105 H   0  0  0  0  0  0  0  0  0  0  0  0
  129.4451  122.7085   59.5554 H   0  0  0  0  0  0  0  0  0  0  0  0
  128.2120  121.4024   59.5554 H   0  0  0  0  0  0  0  0  0  0  0  0
  1  2  3  0
  2  3  1  0
  3  4  1  0
  4  5  1  0
  5  6  2  0
  6  7  1  0
  6  8  1  0
  8  9  2  0
  9 10  1  0
 10 11  2  0
 11 12  1  0
 12 13  1  0
 13 14  2  0
 14 15  1  0
 15 16  2  0
 16 17  1  0
 17 18  2  0
 18 19  1  0
 19 20  1  0
 20 21  2  0
 20 22  1  0
 22 23  1  0
 23 24  1  0
 23 25  1  0
 19 26  2  0
 13 27  1  0
 27 28  1  0
 28 29  2  0
  9 30  1  0
 30 31  2  0
 31 32  1  0
 32 33  1  0
 31  5  1  0
 28 11  1  0
 26 15  1  0
  1 34  1  0
  3 35  1  0
  3 36  1  0
  8 37  1  0
 10 38  1  0
 16 39  1  0
 17 40  1  0
 18 41  1  0
 23 42  1  0
 24 43  1  0
 24 44  1  0
 24 45  1  0
 25 46  1  0
 25 47  1  0
 25 48  1  0
 26 49  1  0
 27 50  1  0
 30 51  1  0
 33 52  1  0
 33 53  1  0
 33 54  1  0
M  END
>  <Binding energies>  (1) 
[-8.1]

>  <Ligand effiencies>  (1) 
[-0.23823529411764705]

>  <Interactions>  (1) 
["V-A:ILE:369:CG2:3237, V-B:PRO:540:CA:9855, V-B:GLU:543:C:9874, H-A:GLU:543:OE2:4910, V-A:GLU:543:C:4902, V-B:HIS:456:CD2:9039, V-B:GLU:543:CB:9878, V-B:ALA:541:CB:9864, V-B:TYR:539:CE2:9848, V-A:TYR:484:CE2:4346, V-A:GLY:544:CA:4914, V-B:GLU:543:CG:9879, V-A:GLY:544:C:4912, V-B:TYR:539:C:9839, V-A:HIS:456:CD2:4068, V-A:HIS:456:CB:4065, V-A:TYR:484:CZ:4347, V-A:GLU:543:CD:4908, V-B:HIS:456:CE1:9041, V-B:PRO:540:N:9856, V-A:ILE:369:CD1:3239, V-B:GLY:544:C:9884, V-B:TYR:539:CD2:9846, V-B:GLY:544:CA:9886, V-A:SER:385:CB:3409, V-B:GLU:543:CD:9880, H-A:LYS:547:NZ:4951, V-A:LEU:475:CD2:4259, H-A:GLU:543:OE1:4909, V-A:GLU:543:CB:4906, V-A:HIS:456:CG:4066, H-B:GLU:543:OE2:9882, V-A:HIS:383:NE2:3394"]

$$$$
ZINC8443146
     RDKit          3D

 77 81  0  0  0  0  0  0  0  0999 V2000
  128.4640  132.0640   59.8170 C   0  0  0  0  0  0  0  0  0  0  0  0
  128.3870  130.5270   59.9220 C   0  0  2  0  0  0  0  0  0  0  0  0
  127.9740  130.1780   61.2710 N   0  0  0  0  0  0  0  0  0  0  0  0
  128.9460  129.9650   62.0600 N   0  0  0  0  0  0  0  0  0  0  0  0
  128.6370  129.6300   63.3960 C   0  0  0  0  0  0  0  0  0  0  0  0
  128.5860  128.2920   63.8410 C   0  0  0  0  0  0  0  0  0  0  0  0
  128.2780  127.9560   65.1530 C   0  0  0  0  0  0  0  0  0  0  0  0
  128.0010  128.9480   66.0920 C   0  0  0  0  0  0  0  0  0  0  0  0
  127.6740  128.5970   67.4960 N   0  0  0  0  0  0  0  0  0  0  0  0
  126.6810  127.9100   67.7160 O   0  0  0  0  0  0  0  0  0  0  0  0
  128.4100  129.0070   68.3910 O   0  0  0  0  0  0  0  0  0  0  0  0
  128.0400  130.2810   65.6710 C   0  0  0  0  0  0  0  0  0  0  0  0
  128.3470  130.6490   64.3470 C   0  0  0  0  0  0  0  0  0  0  0  0
  128.3520  132.1110   64.0150 N   0  0  0  0  0  0  0  0  0  0  0  0
  127.6300  132.8930   64.6230 O   0  0  0  0  0  0  0  0  0  0  0  0
  129.0970  132.5050   63.1200 O   0  0  0  0  0  0  0  0  0  0  0  0
  129.7330  129.8120   59.5430 C   0  0  1  0  0  0  0  0  0  0  0  0
  130.9070  130.1760   60.5030 C   0  0  2  0  0  0  0  0  0  0  0  0
  132.1390  130.8120   59.8140 C   0  0  0  0  0  0  0  0  0  0  0  0
  132.9510  131.6920   60.7170 N   0  0  0  0  0  0  0  0  0  0  0  0
  132.3780  132.2290   61.6580 O   0  0  0  0  0  0  0  0  0  0  0  0
  134.1440  131.8180   60.4640 O   0  0  0  0  0  0  0  0  0  0  0  0
  131.2620  128.8840   61.2570 C   0  0  0  0  0  0  0  0  0  0  0  0
  130.2390  127.8050   60.8490 C   0  0  2  0  0  0  0  0  0  0  0  0
  130.7990  126.3490   60.9460 C   0  0  1  0  0  0  0  0  0  0  0  0
  129.7060  125.2660   61.1220 C   0  0  0  0  0  0  0  0  0  0  0  0
  130.3010  123.8730   61.0750 C   0  0  0  0  0  0  0  0  0  0  0  0
  131.5330  123.5570   60.6250 C   0  0  0  0  0  0  0  0  0  0  0  0
  132.1210  122.1590   60.8240 C   0  0  0  0  0  0  0  0  0  0  0  0
  133.3310  122.2600   61.7840 C   0  0  1  0  0  0  0  0  0  0  0  0
  133.9590  121.0030   61.9230 O   0  0  0  0  0  0  0  0  0  0  0  0
  134.3560  123.3460   61.3820 C   0  0  0  0  0  0  0  0  0  0  0  0
  133.6910  124.6960   61.0200 C   0  0  0  0  0  0  0  0  0  0  0  0
  132.5080  124.5910   60.0070 C   0  0  1  0  0  0  0  0  0  0  0  0
  133.0540  124.0680   58.6430 C   0  0  0  0  0  0  0  0  0  0  0  0
  131.8120  126.0020   59.8170 C   0  0  1  0  0  0  0  0  0  0  0  0
  131.1230  126.2840   58.4530 C   0  0  0  0  0  0  0  0  0  0  0  0
  130.6960  127.7620   58.3260 C   0  0  0  0  0  0  0  0  0  0  0  0
  129.7150  128.2400   59.4430 C   0  0  2  0  0  0  0  0  0  0  0  0
  128.3090  127.6700   59.1010 C   0  0  0  0  0  0  0  0  0  0  0  0
  128.4858  132.4999   60.8267 H   0  0  0  0  0  0  0  0  0  0  0  0
  129.3776  132.3492   59.2747 H   0  0  0  0  0  0  0  0  0  0  0  0
  127.5835  132.4390   59.2747 H   0  0  0  0  0  0  0  0  0  0  0  0
  127.6489  130.1702   59.1886 H   0  0  0  0  0  0  0  0  0  0  0  0
  128.7978  127.4860   63.1230 H   0  0  0  0  0  0  0  0  0  0  0  0
  128.2525  126.8981   65.4535 H   0  0  0  0  0  0  0  0  0  0  0  0
  127.8223  131.0730   66.4027 H   0  0  0  0  0  0  0  0  0  0  0  0
  129.8811  130.2079   58.5274 H   0  0  0  0  0  0  0  0  0  0  0  0
  130.5782  130.9719   61.1875 H   0  0  0  0  0  0  0  0  0  0  0  0
  132.7861  130.0027   59.4450 H   0  0  0  0  0  0  0  0  0  0  0  0
  131.7583  131.4500   59.0028 H   0  0  0  0  0  0  0  0  0  0  0  0
  132.2772  128.5590   60.9855 H   0  0  0  0  0  0  0  0  0  0  0  0
  131.2310  129.0520   62.3437 H   0  0  0  0  0  0  0  0  0  0  0  0
  129.3959  127.7476   61.5532 H   0  0  0  0  0  0  0  0  0  0  0  0
  131.3737  126.3361   61.8838 H   0  0  0  0  0  0  0  0  0  0  0  0
  129.2099  125.4115   62.0930 H   0  0  0  0  0  0  0  0  0  0  0  0
  128.9835  125.3637   60.2983 H   0  0  0  0  0  0  0  0  0  0  0  0
  129.6731  123.0468   61.4399 H   0  0  0  0  0  0  0  0  0  0  0  0
  131.3587  121.4955   61.2583 H   0  0  0  0  0  0  0  0  0  0  0  0
  132.4444  121.7478   59.8563 H   0  0  0  0  0  0  0  0  0  0  0  0
  132.9255  122.5751   62.7568 H   0  0  0  0  0  0  0  0  0  0  0  0
  134.9050  121.1210   61.8110 H   0  0  0  0  0  0  0  0  0  0  0  0
  135.0443  123.5083   62.2246 H   0  0  0  0  0  0  0  0  0  0  0  0
  134.8839  122.9869   60.4862 H   0  0  0  0  0  0  0  0  0  0  0  0
  133.3090  125.1489   61.9468 H   0  0  0  0  0  0  0  0  0  0  0  0
  134.4667  125.3020   60.5291 H   0  0  0  0  0  0  0  0  0  0  0  0
  133.8374  123.3176   58.8251 H   0  0  0  0  0  0  0  0  0  0  0  0
  132.2336  123.6102   58.0709 H   0  0  0  0  0  0  0  0  0  0  0  0
  133.4761  124.9074   58.0709 H   0  0  0  0  0  0  0  0  0  0  0  0
  132.6949  126.6567   59.8605 H   0  0  0  0  0  0  0  0  0  0  0  0
  131.8263  126.0448   57.6418 H   0  0  0  0  0  0  0  0  0  0  0  0
  130.2204  125.6587   58.3881 H   0  0  0  0  0  0  0  0  0  0  0  0
  131.5997  128.3877   58.3689 H   0  0  0  0  0  0  0  0  0  0  0  0
  130.1592  127.8563   57.3705 H   0  0  0  0  0  0  0  0  0  0  0  0
  127.7662  127.4499   60.0321 H   0  0  0  0  0  0  0  0  0  0  0  0
  127.7458  128.4108   58.5145 H   0  0  0  0  0  0  0  0  0  0  0  0
  128.4206  126.7461   58.5145 H   0  0  0  0  0  0  0  0  0  0  0  0
  1  2  1  0
  2  3  1  0
  3  4  2  0
  4  5  1  0
  5  6  2  0
  6  7  1  0
  7  8  2  0
  8  9  1  0
  9 10  2  0
  9 11  1  0
  8 12  1  0
 12 13  2  0
 13 14  1  0
 14 15  2  0
 14 16  1  0
  2 17  1  0
 17 18  1  0
 18 19  1  0
 19 20  1  0
 20 21  2  0
 20 22  1  0
 18 23  1  0
 23 24  1  0
 24 25  1  0
 25 26  1  0
 26 27  1  0
 27 28  2  0
 28 29  1  0
 29 30  1  0
 30 31  1  0
 30 32  1  0
 32 33  1  0
 33 34  1  0
 34 35  1  6
 34 36  1  0
 36 37  1  0
 37 38  1  0
 38 39  1  0
 39 40  1  6
 13  5  1  0
 39 17  1  0
 39 24  1  0
 36 25  1  0
 34 28  1  0
  1 41  1  0
  1 42  1  0
  1 43  1  0
  2 44  1  6
  6 45  1  0
  7 46  1  0
 12 47  1  0
 17 48  1  6
 18 49  1  1
 19 50  1  0
 19 51  1  0
 23 52  1  0
 23 53  1  0
 24 54  1  1
 25 55  1  1
 26 56  1  0
 26 57  1  0
 27 58  1  0
 29 59  1  0
 29 60  1  0
 30 61  1  1
 31 62  1  0
 32 63  1  0
 32 64  1  0
 33 65  1  0
 33 66  1  0
 35 67  1  0
 35 68  1  0
 35 69  1  0
 36 70  1  1
 37 71  1  0
 37 72  1  0
 38 73  1  0
 38 74  1  0
 40 75  1  0
 40 76  1  0
 40 77  1  0
M  CHG  6   9   1  11  -1  14   1  16  -1  20   1  22  -1
M  END
>  <Binding energies>  (1) 
[-8.49]

>  <Ligand effiencies>  (1) 
[-0.20707317073170733]

>  <Interactions>  (1) 
["V-A:ILE:369:CG2:3237, H-A:ALA:541:N:4891, V-B:TYR:539:CE2:9848, V-A:ASP:366:CG:3213, V-B:TYR:484:CE2:9317, V-B:TYR:539:CZ:9849, V-A:ALA:541:CB:4892, V-A:GLU:543:CD:4908, H-B:TYR:484:OH:9319, V-B:HIS:456:CE1:9041, V-B:TYR:484:CZ:9318, V-A:ILE:369:CD1:3239, V-B:TYR:539:CD2:9846, V-A:GLU:543:CG:4907, H-A:SER:385:OG:3410, V-B:GLU:543:CD:9880, V-A:ASP:366:CB:3212, V-A:LEU:475:CD2:4259, H-A:LEU:363:N:3186, V-A:GLU:543:CB:4906, V-A:PRO:540:CB:4885, V-A:PRO:540:CA:4883, H-A:SER:385:O:3406"]

$$$$
ZINC8443306
     RDKit          3D

 35 36  0  0  0  0  0  0  0  0999 V2000
  134.1880  125.0960   67.4840 C   0  0  0  0  0  0  0  0  0  0  0  0
  134.4840  125.0800   66.1740 C   0  0  0  0  0  0  0  0  0  0  0  0
  133.4850  125.0820   65.0300 C   0  0  0  0  0  0  0  0  0  0  0  0
  133.1140  123.7590   64.6460 O   0  0  0  0  0  0  0  0  0  0  0  0
  131.9030  123.6630   64.0030 C   0  0  0  0  0  0  0  0  0  0  0  0
  131.8270  123.0050   62.7680 C   0  0  0  0  0  0  0  0  0  0  0  0
  133.5340  122.1780   61.8770 I   0  0  0  0  0  0  0  0  0  0  0  0
  130.6040  122.8960   62.1070 C   0  0  0  0  0  0  0  0  0  0  0  0
  129.4560  123.4450   62.6710 C   0  0  0  0  0  0  0  0  0  0  0  0
  127.6230  123.2800   61.6770 I   0  0  0  0  0  0  0  0  0  0  0  0
  129.5280  124.1110   63.8940 C   0  0  0  0  0  0  0  0  0  0  0  0
  130.7500  124.2340   64.5700 C   0  0  0  0  0  0  0  0  0  0  0  0
  130.8390  124.9440   65.8650 C   0  0  0  0  0  0  0  0  0  0  0  0
  130.0230  125.9260   66.2960 C   0  0  0  0  0  0  0  0  0  0  0  0
  130.1250  126.6330   67.5620 C   0  0  0  0  0  0  0  0  0  0  0  0
  131.3650  126.8650   68.0630 O   0  0  0  0  0  0  0  0  0  0  0  0
  131.2590  127.5660   69.2580 N   0  0  0  0  0  0  0  0  0  0  0  0
  129.9750  127.7390   69.4720 C   0  0  0  0  0  0  0  0  0  0  0  0
  129.5470  128.4640   70.7330 C   0  0  0  0  0  0  0  0  0  0  0  0
  129.1930  127.1850   68.4410 C   0  0  0  0  0  0  0  0  0  0  0  0
  127.7650  127.1910   68.3210 N   0  0  0  0  0  0  0  0  0  0  0  0
  127.2670  127.7790   67.3670 O   0  0  0  0  0  0  0  0  0  0  0  0
  127.1140  126.6100   69.1810 O   0  0  0  0  0  0  0  0  0  0  0  0
  134.9959  125.0927   68.2305 H   0  0  0  0  0  0  0  0  0  0  0  0
  133.1377  125.1124   67.8104 H   0  0  0  0  0  0  0  0  0  0  0  0
  135.5503  125.0639   65.9043 H   0  0  0  0  0  0  0  0  0  0  0  0
  132.5832  125.6267   65.3462 H   0  0  0  0  0  0  0  0  0  0  0  0
  133.9586  125.5683   64.1644 H   0  0  0  0  0  0  0  0  0  0  0  0
  130.5465  122.3759   61.1394 H   0  0  0  0  0  0  0  0  0  0  0  0
  128.6170  124.5441   64.3327 H   0  0  0  0  0  0  0  0  0  0  0  0
  131.6508  124.6405   66.5424 H   0  0  0  0  0  0  0  0  0  0  0  0
  129.2017  126.2206   65.6262 H   0  0  0  0  0  0  0  0  0  0  0  0
  129.8820  127.8966   71.6138 H   0  0  0  0  0  0  0  0  0  0  0  0
  129.9977  129.4673   70.7500 H   0  0  0  0  0  0  0  0  0  0  0  0
  128.4508  128.5541   70.7500 H   0  0  0  0  0  0  0  0  0  0  0  0
  1  2  2  0
  2  3  1  0
  3  4  1  0
  4  5  1  0
  5  6  2  0
  6  7  1  0
  6  8  1  0
  8  9  2  0
  9 10  1  0
  9 11  1  0
 11 12  2  0
 12 13  1  0
 13 14  2  0
 14 15  1  0
 15 16  1  0
 16 17  1  0
 17 18  2  0
 18 19  1  0
 18 20  1  0
 20 21  1  0
 21 22  2  0
 21 23  1  0
 12  5  1  0
 20 15  2  0
  1 24  1  0
  1 25  1  0
  2 26  1  0
  3 27  1  0
  3 28  1  0
  8 29  1  0
 11 30  1  0
 13 31  1  0
 14 32  1  0
 19 33  1  0
 19 34  1  0
 19 35  1  0
M  CHG  2  21   1  23  -1
M  END
>  <Binding energies>  (1) 
[-6.58]

>  <Ligand effiencies>  (1) 
[-0.28608695652173916]

>  <Interactions>  (1) 
["V-B:PRO:540:CA:9855, V-A:GLY:454:CA:4049, V-B:HIS:456:CD2:9039, V-A:GLU:543:C:4902, V-B:GLU:543:CB:9878, V-A:TYR:484:CE2:4346, V-B:GLU:543:CG:9879, V-A:TYR:484:CZ:4347, V-A:ILE:455:C:4052, V-A:GLU:543:CD:4908, V-A:ARG:545:CG:4922, H-A:GLY:454:N:4050, V-B:HIS:456:CE1:9041, V-A:GLY:453:C:4042, V-A:HIS:456:CE1:4070, V-B:GLU:543:CD:9880, V-A:ARG:545:CD:4923, V-A:LEU:475:CD2:4259, V-A:ARG:545:CB:4921, V-A:ARG:545:CZ:4926, V-A:GLU:543:CB:4906, V-A:GLY:453:CA:4044, H-A:TYR:484:OH:4348"]

$$$$
ZINC844338041
     RDKit          3D

 57 58  0  0  0  0  0  0  0  0999 V2000
  129.5570  122.5360   64.6600 C   0  0  0  0  0  0  0  0  0  0  0  0
  129.7880  123.9360   64.7020 O   0  0  0  0  0  0  0  0  0  0  0  0
  130.3520  124.3790   65.9290 C   0  0  0  0  0  0  0  0  0  0  0  0
  131.5370  125.3140   65.6440 C   0  0  0  0  0  0  0  0  0  0  0  0
  132.2910  124.9300   64.3880 C   0  0  0  0  0  0  0  0  0  0  0  0
  131.8050  124.7440   63.1910 N   0  0  0  0  0  0  0  0  0  0  0  0
  132.8790  124.3980   62.5100 C   0  0  0  0  0  0  0  0  0  0  0  0
  132.7720  124.0760   61.0210 C   0  0  0  0  0  0  0  0  0  0  0  0
  131.8550  122.9760   60.6940 N   0  0  0  0  0  0  0  0  0  0  0  0
  132.3400  121.7010   61.2480 C   0  0  0  0  0  0  0  0  0  0  0  0
  131.4010  120.5200   60.9020 C   0  0  0  0  0  0  0  0  0  0  0  0
  129.9390  120.8010   61.2970 C   0  0  0  0  0  0  0  0  0  0  0  0
  129.5170  122.1500   60.6970 C   0  0  1  0  0  0  0  0  0  0  0  0
  128.1940  122.4660   61.0890 O   0  0  0  0  0  0  0  0  0  0  0  0
  127.3200  123.8130   60.5910 Si  0  0  0  0  0  4  0  0  0  0  0  0
  125.5310  123.5850   61.1480 C   0  0  0  0  0  0  0  0  0  0  0  0
  128.0820  125.3270   61.4200 C   0  0  0  0  0  0  0  0  0  0  0  0
  127.4580  123.9100   58.6950 C   0  0  0  0  0  0  0  0  0  0  0  0
  127.5380  122.4890   58.0970 C   0  0  0  0  0  0  0  0  0  0  0  0
  126.2240  124.6320   58.1160 C   0  0  0  0  0  0  0  0  0  0  0  0
  128.7290  124.6920   58.3020 C   0  0  0  0  0  0  0  0  0  0  0  0
  130.4860  123.2600   61.1530 C   0  0  0  0  0  0  0  0  0  0  0  0
  134.0070  124.3330   63.1930 N   0  0  0  0  0  0  0  0  0  0  0  0
  133.6210  124.6930   64.4820 O   0  0  0  0  0  0  0  0  0  0  0  0
  129.4923  122.1441   65.6858 H   0  0  0  0  0  0  0  0  0  0  0  0
  128.6137  122.3357   64.1308 H   0  0  0  0  0  0  0  0  0  0  0  0
  130.3860  122.0433   64.1308 H   0  0  0  0  0  0  0  0  0  0  0  0
  129.5894  124.9206   66.5079 H   0  0  0  0  0  0  0  0  0  0  0  0
  130.7029  123.5097   66.5045 H   0  0  0  0  0  0  0  0  0  0  0  0
  131.1568  126.3396   65.5273 H   0  0  0  0  0  0  0  0  0  0  0  0
  132.2356  125.2349   66.4900 H   0  0  0  0  0  0  0  0  0  0  0  0
  132.4227  124.9794   60.4996 H   0  0  0  0  0  0  0  0  0  0  0  0
  133.7730  123.7507   60.7013 H   0  0  0  0  0  0  0  0  0  0  0  0
  133.3385  121.4925   60.8362 H   0  0  0  0  0  0  0  0  0  0  0  0
  132.3718  121.7983   62.3432 H   0  0  0  0  0  0  0  0  0  0  0  0
  131.4459  120.3381   59.8181 H   0  0  0  0  0  0  0  0  0  0  0  0
  131.7407  119.6420   61.4709 H   0  0  0  0  0  0  0  0  0  0  0  0
  129.2903  120.0031   60.9065 H   0  0  0  0  0  0  0  0  0  0  0  0
  129.8465  120.8330   62.3926 H   0  0  0  0  0  0  0  0  0  0  0  0
  129.5529  122.0767   59.6000 H   0  0  0  0  0  0  0  0  0  0  0  0
  125.4871  123.5794   62.2471 H   0  0  0  0  0  0  0  0  0  0  0  0
  124.9181  124.4123   60.7607 H   0  0  0  0  0  0  0  0  0  0  0  0
  125.1452  122.6304   60.7607 H   0  0  0  0  0  0  0  0  0  0  0  0
  128.0252  125.2142   62.5127 H   0  0  0  0  0  0  0  0  0  0  0  0
  129.1348  125.4209   61.1153 H   0  0  0  0  0  0  0  0  0  0  0  0
  127.5302  126.2285   61.1153 H   0  0  0  0  0  0  0  0  0  0  0  0
  127.5796  121.7504   58.9111 H   0  0  0  0  0  0  0  0  0  0  0  0
  126.6490  122.3016   57.4769 H   0  0  0  0  0  0  0  0  0  0  0  0
  128.4424  122.4025   57.4769 H   0  0  0  0  0  0  0  0  0  0  0  0
  125.5947  125.0002   58.9396 H   0  0  0  0  0  0  0  0  0  0  0  0
  126.5522  125.4805   57.4977 H   0  0  0  0  0  0  0  0  0  0  0  0
  125.6451  123.9301   57.4977 H   0  0  0  0  0  0  0  0  0  0  0  0
  129.2559  125.0162   59.2115 H   0  0  0  0  0  0  0  0  0  0  0  0
  129.3892  124.0437   57.7072 H   0  0  0  0  0  0  0  0  0  0  0  0
  128.4479  125.5736   57.7072 H   0  0  0  0  0  0  0  0  0  0  0  0
  130.1566  124.2219   60.7331 H   0  0  0  0  0  0  0  0  0  0  0  0
  130.4831  123.3025   62.2522 H   0  0  0  0  0  0  0  0  0  0  0  0
  1  2  1  0
  2  3  1  0
  3  4  1  0
  4  5  1  0
  5  6  2  0
  6  7  1  0
  7  8  1  0
  8  9  1  0
  9 10  1  0
 10 11  1  0
 11 12  1  0
 12 13  1  0
 13 14  1  0
 14 15  1  0
 15 16  1  0
 15 17  1  0
 15 18  1  0
 18 19  1  0
 18 20  1  0
 18 21  1  0
 13 22  1  0
  7 23  2  0
 23 24  1  0
 24  5  1  0
 22  9  1  0
  1 25  1  0
  1 26  1  0
  1 27  1  0
  3 28  1  0
  3 29  1  0
  4 30  1  0
  4 31  1  0
  8 32  1  0
  8 33  1  0
 10 34  1  0
 10 35  1  0
 11 36  1  0
 11 37  1  0
 12 38  1  0
 12 39  1  0
 13 40  1  6
 16 41  1  0
 16 42  1  0
 16 43  1  0
 17 44  1  0
 17 45  1  0
 17 46  1  0
 19 47  1  0
 19 48  1  0
 19 49  1  0
 20 50  1  0
 20 51  1  0
 20 52  1  0
 21 53  1  0
 21 54  1  0
 21 55  1  0
 22 56  1  0
 22 57  1  0
M  END
>  <Binding energies>  (1) 
[-6.35]

>  <Ligand effiencies>  (1) 
[-0.26458333333333334]

>  <Interactions>  (1) 
["V-B:PRO:540:CA:9855, V-B:ALA:541:CB:9864, V-B:TYR:539:CE2:9848, V-A:TYR:484:CE2:4346, V-B:GLU:543:CG:9879, V-B:TYR:539:C:9839, V-B:TYR:539:CZ:9849, H-B:ALA:541:N:9863, V-A:TYR:484:CZ:4347, V-B:PRO:540:CB:9857, H-A:GLY:454:N:4050, V-B:PRO:540:N:9856, V-B:TYR:539:CD2:9846, V-A:LEU:475:CD2:4259, H-A:ARG:545:NH2:4928, V-A:ARG:545:CZ:4926, V-B:TYR:539:CG:9844, H-A:ARG:545:NE:4924, H-A:TYR:484:OH:4348"]

$$$$
ZINC844338041-again1
     RDKit          3D

 58 59  0  0  0  0  0  0  0  0999 V2000
  132.8450  125.3650   58.2420 C   0  0  0  0  0  0  0  0  0  0  0  0
  133.5340  124.1450   58.4670 O   0  0  0  0  0  0  0  0  0  0  0  0
  133.3200  123.6040   59.7640 C   0  0  0  0  0  0  0  0  0  0  0  0
  134.1510  124.3870   60.7980 C   0  0  0  0  0  0  0  0  0  0  0  0
  133.5670  124.3970   62.2000 C   0  0  0  0  0  0  0  0  0  0  0  0
  132.3590  124.0860   62.5890 N   0  0  0  0  0  0  0  0  0  0  0  0
  132.4310  124.2810   63.8890 C   0  0  0  0  0  0  0  0  0  0  0  0
  131.2380  124.0390   64.7970 C   0  0  0  0  0  0  0  0  0  0  0  0
  130.7440  125.3710   65.4180 N   0  0  1  0  0  0  0  0  0  0  0  0
  129.4990  125.8740   64.6470 C   0  0  0  0  0  0  0  0  0  0  0  0
  129.0400  127.2210   65.2390 C   0  0  0  0  0  0  0  0  0  0  0  0
  128.7350  127.1110   66.7410 C   0  0  0  0  0  0  0  0  0  0  0  0
  129.9580  126.5700   67.5040 C   0  0  1  0  0  0  0  0  0  0  0  0
  129.6310  126.4110   68.8720 O   0  0  0  0  0  0  0  0  0  0  0  0
  129.5890  127.6390   70.0200 Si  0  0  0  0  0  4  0  0  0  0  0  0
  131.3260  127.8090   70.7370 C   0  0  0  0  0  0  0  0  0  0  0  0
  129.0750  129.2270   69.1410 C   0  0  0  0  0  0  0  0  0  0  0  0
  128.3280  127.1330   71.3520 C   0  0  0  0  0  0  0  0  0  0  0  0
  128.2400  128.2240   72.4390 C   0  0  0  0  0  0  0  0  0  0  0  0
  126.9360  126.9480   70.7120 C   0  0  0  0  0  0  0  0  0  0  0  0
  128.7620  125.8050   72.0060 C   0  0  0  0  0  0  0  0  0  0  0  0
  130.4540  125.2240   66.9360 C   0  0  0  0  0  0  0  0  0  0  0  0
  133.5930  124.6750   64.3630 N   0  0  0  0  0  0  0  0  0  0  0  0
  134.3830  124.7640   63.2190 O   0  0  0  0  0  0  0  0  0  0  0  0
  132.5861  125.8234   59.2078 H   0  0  0  0  0  0  0  0  0  0  0  0
  133.4894  126.0503   57.6719 H   0  0  0  0  0  0  0  0  0  0  0  0
  131.9254  125.1670   57.6719 H   0  0  0  0  0  0  0  0  0  0  0  0
  132.2529  123.6796   60.0200 H   0  0  0  0  0  0  0  0  0  0  0  0
  133.6288  122.5483   59.7733 H   0  0  0  0  0  0  0  0  0  0  0  0
  135.1527  123.9351   60.8466 H   0  0  0  0  0  0  0  0  0  0  0  0
  134.1663  125.4332   60.4586 H   0  0  0  0  0  0  0  0  0  0  0  0
  130.4230  123.5896   64.2106 H   0  0  0  0  0  0  0  0  0  0  0  0
  131.5423  123.3615   65.6084 H   0  0  0  0  0  0  0  0  0  0  0  0
  131.4690  126.0650   65.3050 H   0  0  0  0  0  0  0  0  0  0  0  0
  129.7540  126.0075   63.5853 H   0  0  0  0  0  0  0  0  0  0  0  0
  128.6876  125.1369   64.7384 H   0  0  0  0  0  0  0  0  0  0  0  0
  129.8369  127.9647   65.0912 H   0  0  0  0  0  0  0  0  0  0  0  0
  128.1161  127.5232   64.7242 H   0  0  0  0  0  0  0  0  0  0  0  0
  128.4767  128.1065   67.1313 H   0  0  0  0  0  0  0  0  0  0  0  0
  127.8934  126.4169   66.8821 H   0  0  0  0  0  0  0  0  0  0  0  0
  130.7709  127.3015   67.3854 H   0  0  0  0  0  0  0  0  0  0  0  0
  131.2713  127.8036   71.8356 H   0  0  0  0  0  0  0  0  0  0  0  0
  131.9471  126.9674   70.3967 H   0  0  0  0  0  0  0  0  0  0  0  0
  131.7722  128.7551   70.3967 H   0  0  0  0  0  0  0  0  0  0  0  0
  128.8263  129.9954   69.8878 H   0  0  0  0  0  0  0  0  0  0  0  0
  129.9040  129.5824   68.5113 H   0  0  0  0  0  0  0  0  0  0  0  0
  128.1950  129.0292   68.5113 H   0  0  0  0  0  0  0  0  0  0  0  0
  128.2778  127.7549   73.4332 H   0  0  0  0  0  0  0  0  0  0  0  0
  129.0849  128.9198   72.3294 H   0  0  0  0  0  0  0  0  0  0  0  0
  127.2945  128.7753   72.3294 H   0  0  0  0  0  0  0  0  0  0  0  0
  126.1789  126.8474   71.5036 H   0  0  0  0  0  0  0  0  0  0  0  0
  126.7001  127.8227   70.0881 H   0  0  0  0  0  0  0  0  0  0  0  0
  126.9368  126.0421   70.0881 H   0  0  0  0  0  0  0  0  0  0  0  0
  128.7286  125.9073   73.1007 H   0  0  0  0  0  0  0  0  0  0  0  0
  128.0797  125.0014   71.6918 H   0  0  0  0  0  0  0  0  0  0  0  0
  129.7872  125.5594   71.6918 H   0  0  0  0  0  0  0  0  0  0  0  0
  131.3755  124.9248   67.4569 H   0  0  0  0  0  0  0  0  0  0  0  0
  129.6791  124.4579   67.0861 H   0  0  0  0  0  0  0  0  0  0  0  0
  1  2  1  0
  2  3  1  0
  3  4  1  0
  4  5  1  0
  5  6  2  0
  6  7  1  0
  7  8  1  0
  8  9  1  0
  9 10  1  0
 10 11  1  0
 11 12  1  0
 12 13  1  0
 13 14  1  0
 14 15  1  0
 15 16  1  0
 15 17  1  0
 15 18  1  0
 18 19  1  0
 18 20  1  0
 18 21  1  0
 13 22  1  0
  7 23  2  0
 23 24  1  0
 24  5  1  0
 22  9  1  0
  1 25  1  0
  1 26  1  0
  1 27  1  0
  3 28  1  0
  3 29  1  0
  4 30  1  0
  4 31  1  0
  8 32  1  0
  8 33  1  0
  9 34  1  1
 10 35  1  0
 10 36  1  0
 11 37  1  0
 11 38  1  0
 12 39  1  0
 12 40  1  0
 13 41  1  1
 16 42  1  0
 16 43  1  0
 16 44  1  0
 17 45  1  0
 17 46  1  0
 17 47  1  0
 19 48  1  0
 19 49  1  0
 19 50  1  0
 20 51  1  0
 20 52  1  0
 20 53  1  0
 21 54  1  0
 21 55  1  0
 21 56  1  0
 22 57  1  0
 22 58  1  0
M  CHG  1   9   1
M  END
>  <Binding energies>  (1) 
[-7.42]

>  <Ligand effiencies>  (1) 
[-0.2968]

>  <Interactions>  (1) 
["V-A:ILE:369:CG2:3237, V-A:ASP:366:CA:3210, V-A:ARG:545:CA:4919, V-A:GLU:543:CA:4904, V-B:HIS:456:CD2:9039, H-A:GLU:543:OE2:4910, V-A:GLU:543:C:4902, V-B:GLU:543:C:9874, V-B:GLU:543:CB:9878, H-A:ARG:545:NH1:4927, V-A:TYR:484:CE2:4346, V-B:TYR:539:CE2:9848, V-B:GLU:543:CG:9879, V-A:GLY:544:C:4912, V-A:ASP:366:CG:3213, V-A:HIS:456:CD2:4068, H-B:TYR:539:OH:9850, V-A:TYR:484:CZ:4347, V-A:GLU:543:CD:4908, V-B:HIS:456:CE1:9041, H-A:GLY:454:N:4050, V-A:ILE:369:CD1:3239, V-A:HIS:456:CE1:4070, V-A:ASP:366:C:3208, V-B:GLY:544:C:9884, V-B:GLY:544:CA:9886, V-B:GLU:543:CD:9880, V-B:HIS:456:CG:9037, V-A:ASP:366:CB:3212, H-A:ARG:545:NH2:4928, H-A:GLU:543:OE1:4909, V-A:GLU:543:CB:4906, H-A:ARG:545:NE:4924, H-A:TYR:484:OH:4348"]

$$$$
ZINC844344554-again1
     RDKit          3D

 59 60  0  0  0  0  0  0  0  0999 V2000
  134.1250  122.3860   61.8370 C   0  0  0  0  0  0  0  0  0  0  0  0
  133.7970  123.8800   61.6290 C   0  0  0  0  0  0  0  0  0  0  0  0
  134.3550  124.3230   60.2600 C   0  0  0  0  0  0  0  0  0  0  0  0
  134.4810  124.7030   62.7400 C   0  0  0  0  0  0  0  0  0  0  0  0
  131.9100  124.1390   61.7010 Si  0  0  0  0  0  4  0  0  0  0  0  0
  131.3590  125.5850   60.6180 C   0  0  0  0  0  0  0  0  0  0  0  0
  130.9900  122.5730   61.1920 C   0  0  0  0  0  0  0  0  0  0  0  0
  131.4690  124.4640   63.2900 O   0  0  0  0  0  0  0  0  0  0  0  0
  130.5530  123.7100   64.0620 C   0  0  0  0  0  0  0  0  0  0  0  0
  129.8690  124.6150   65.1070 C   0  0  2  0  0  0  0  0  0  0  0  0
  129.8340  126.0930   64.6640 C   0  0  0  0  0  0  0  0  0  0  0  0
  129.0850  126.9720   65.6830 C   0  0  0  0  0  0  0  0  0  0  0  0
  129.7810  126.8430   67.0620 N   0  0  1  0  0  0  0  0  0  0  0  0
  129.0930  127.7120   68.1460 C   0  0  0  0  0  0  0  0  0  0  0  0
  129.4460  127.2600   69.5860 C   0  0  2  0  0  0  0  0  0  0  0  0
  128.2460  127.2930   70.5650 C   0  0  0  0  0  0  0  0  0  0  0  0
  128.7580  127.0640   71.9930 C   0  0  0  0  0  0  0  0  0  0  0  0
  130.4220  127.9330   72.0540 S   0  0  0  0  0  0  0  0  0  0  0  0
  130.2820  129.2540   72.6750 O   0  0  0  0  0  0  0  0  0  0  0  0
  131.4370  126.9900   72.5340 O   0  0  0  0  0  0  0  0  0  0  0  0
  130.5570  128.1420   70.1910 C   0  0  0  0  0  0  0  0  0  0  0  0
  129.8490  125.3700   67.5370 C   0  0  0  0  0  0  0  0  0  0  0  0
  130.5840  124.5370   66.4720 C   0  0  0  0  0  0  0  0  0  0  0  0
  134.1729  122.1676   62.9140 H   0  0  0  0  0  0  0  0  0  0  0  0
  133.3406  121.7703   61.3726 H   0  0  0  0  0  0  0  0  0  0  0  0
  135.0951  122.1555   61.3726 H   0  0  0  0  0  0  0  0  0  0  0  0
  135.2081  125.0003   60.4135 H   0  0  0  0  0  0  0  0  0  0  0  0
  134.6858  123.4388   59.6954 H   0  0  0  0  0  0  0  0  0  0  0  0
  133.5689  124.8457   59.6954 H   0  0  0  0  0  0  0  0  0  0  0  0
  134.1662  124.3242   63.7235 H   0  0  0  0  0  0  0  0  0  0  0  0
  135.5730  124.6118   62.6444 H   0  0  0  0  0  0  0  0  0  0  0  0
  134.1916  125.7599   62.6444 H   0  0  0  0  0  0  0  0  0  0  0  0
  131.0403  126.4214   61.2574 H   0  0  0  0  0  0  0  0  0  0  0  0
  132.1972  125.9077   59.9829 H   0  0  0  0  0  0  0  0  0  0  0  0
  130.5186  125.2681   59.9829 H   0  0  0  0  0  0  0  0  0  0  0  0
  130.6694  122.0273   62.0917 H   0  0  0  0  0  0  0  0  0  0  0  0
  130.1076  122.8442   60.5937 H   0  0  0  0  0  0  0  0  0  0  0  0
  131.6564  121.9343   60.5937 H   0  0  0  0  0  0  0  0  0  0  0  0
  129.7888  123.2774   63.3996 H   0  0  0  0  0  0  0  0  0  0  0  0
  131.0961  122.9070   64.5818 H   0  0  0  0  0  0  0  0  0  0  0  0
  128.8385  124.2417   65.2001 H   0  0  0  0  0  0  0  0  0  0  0  0
  130.8660  126.4608   64.5655 H   0  0  0  0  0  0  0  0  0  0  0  0
  129.3029  126.1518   63.7025 H   0  0  0  0  0  0  0  0  0  0  0  0
  129.1087  128.0213   65.3538 H   0  0  0  0  0  0  0  0  0  0  0  0
  128.0380  126.6438   65.7610 H   0  0  0  0  0  0  0  0  0  0  0  0
  130.7340  127.1640   66.9580 H   0  0  0  0  0  0  0  0  0  0  0  0
  129.4137  128.7562   68.0161 H   0  0  0  0  0  0  0  0  0  0  0  0
  128.0058  127.6024   68.0199 H   0  0  0  0  0  0  0  0  0  0  0  0
  129.7783  126.2174   69.4737 H   0  0  0  0  0  0  0  0  0  0  0  0
  127.7479  128.2719   70.5046 H   0  0  0  0  0  0  0  0  0  0  0  0
  127.5273  126.5044   70.2976 H   0  0  0  0  0  0  0  0  0  0  0  0
  128.0656  127.5015   72.7273 H   0  0  0  0  0  0  0  0  0  0  0  0
  128.8398  125.9946   72.2374 H   0  0  0  0  0  0  0  0  0  0  0  0
  130.4043  129.1950   69.9119 H   0  0  0  0  0  0  0  0  0  0  0  0
  131.5512  127.8492   69.8224 H   0  0  0  0  0  0  0  0  0  0  0  0
  130.3943  125.3142   68.4907 H   0  0  0  0  0  0  0  0  0  0  0  0
  128.8317  124.9772   67.6811 H   0  0  0  0  0  0  0  0  0  0  0  0
  131.6091  124.9204   66.3619 H   0  0  0  0  0  0  0  0  0  0  0  0
  130.5941  123.4868   66.7990 H   0  0  0  0  0  0  0  0  0  0  0  0
  1  2  1  0
  2  3  1  0
  2  4  1  0
  2  5  1  0
  5  6  1  0
  5  7  1  0
  5  8  1  0
  8  9  1  0
  9 10  1  0
 10 11  1  0
 11 12  1  0
 12 13  1  0
 13 14  1  0
 14 15  1  0
 15 16  1  0
 16 17  1  0
 17 18  1  0
 18 19  2  0
 18 20  2  0
 18 21  1  0
 13 22  1  0
 22 23  1  0
 23 10  1  0
 21 15  1  0
  1 24  1  0
  1 25  1  0
  1 26  1  0
  3 27  1  0
  3 28  1  0
  3 29  1  0
  4 30  1  0
  4 31  1  0
  4 32  1  0
  6 33  1  0
  6 34  1  0
  6 35  1  0
  7 36  1  0
  7 37  1  0
  7 38  1  0
  9 39  1  0
  9 40  1  0
 10 41  1  6
 11 42  1  0
 11 43  1  0
 12 44  1  0
 12 45  1  0
 13 46  1  1
 14 47  1  0
 14 48  1  0
 15 49  1  6
 16 50  1  0
 16 51  1  0
 17 52  1  0
 17 53  1  0
 21 54  1  0
 21 55  1  0
 22 56  1  0
 22 57  1  0
 23 58  1  0
 23 59  1  0
M  CHG  1  13   1
M  END
>  <Binding energies>  (1) 
[-8.32]

>  <Ligand effiencies>  (1) 
[-0.3466666666666667]

>  <Interactions>  (1) 
["V-A:ILE:369:CG2:3237, V-A:ASP:366:CA:3210, V-A:GLY:454:CA:4049, H-A:GLU:543:OE2:4910, V-A:ILE:369:CB:3236, V-A:GLU:543:C:4902, V-B:GLU:543:CB:9878, V-B:TYR:539:CE2:9848, V-A:TYR:484:CE2:4346, V-B:GLU:543:CG:9879, V-A:GLY:544:C:4912, V-A:ASP:366:CG:3213, V-A:TYR:484:CZ:4347, V-A:GLU:543:CD:4908, V-B:GLU:543:CA:9876, V-B:HIS:456:CE1:9041, V-A:GLY:453:C:4042, V-A:ILE:369:CD1:3239, V-A:HIS:456:CE1:4070, V-B:GLU:543:CD:9880, V-A:ASP:366:CB:3212, H-A:LYS:547:NZ:4951, V-A:ARG:545:CZ:4926, H-A:GLU:543:OE1:4909, V-A:GLU:543:CB:4906, V-A:GLY:453:CA:4044, H-A:HIS:456:ND1:4067"]

$$$$
ZINC8443538
     RDKit          3D

 61 64  0  0  0  0  0  0  0  0999 V2000
  130.1240  132.9350   56.9010 C   0  0  0  0  0  0  0  0  0  0  0  0
  129.8270  132.8780   58.2100 C   0  0  0  0  0  0  0  0  0  0  0  0
  128.4360  132.7860   58.8090 C   0  0  0  0  0  0  0  0  0  0  0  0
  128.2960  131.6430   59.6520 O   0  0  0  0  0  0  0  0  0  0  0  0
  129.1780  130.6250   59.3820 C   0  0  0  0  0  0  0  0  0  0  0  0
  130.3410  130.4720   60.1470 C   0  0  0  0  0  0  0  0  0  0  0  0
  130.7740  131.7800   61.7260 I   0  0  0  0  0  0  0  0  0  0  0  0
  131.2380  129.4420   59.8580 C   0  0  0  0  0  0  0  0  0  0  0  0
  130.9990  128.5700   58.7940 C   0  0  0  0  0  0  0  0  0  0  0  0
  131.9610  127.4870   58.5080 C   0  0  0  0  0  0  0  0  0  0  0  0
  131.9930  126.2100   58.9640 C   0  0  0  0  0  0  0  0  0  0  0  0
  133.2940  125.0630   58.6210 S   0  0  0  0  0  0  0  0  0  0  0  0
  132.4680  123.8370   59.5790 C   0  0  0  0  0  0  0  0  0  0  0  0
  131.3130  124.3210   60.1160 N   0  0  0  0  0  0  0  0  0  0  0  0
  130.9690  125.5950   59.7980 C   0  0  0  0  0  0  0  0  0  0  0  0
  129.9240  126.1290   60.1770 O   0  0  0  0  0  0  0  0  0  0  0  0
  130.5070  123.5350   61.1110 C   0  0  2  0  0  0  0  0  0  0  0  0
  130.7590  124.1120   62.5180 C   0  0  0  0  0  0  0  0  0  0  0  0
  129.7170  124.2710   63.4350 C   0  0  0  0  0  0  0  0  0  0  0  0
  129.9700  124.7860   64.7030 C   0  0  0  0  0  0  0  0  0  0  0  0
  131.2680  125.1550   65.0920 C   0  0  0  0  0  0  0  0  0  0  0  0
  131.5270  125.6660   66.3940 N   0  0  0  0  0  0  0  0  0  0  0  0
  132.8680  125.5540   66.9710 C   0  0  0  0  0  0  0  0  0  0  0  0
  130.4270  125.8940   67.3310 C   0  0  0  0  0  0  0  0  0  0  0  0
  132.3040  124.9940   64.1550 C   0  0  0  0  0  0  0  0  0  0  0  0
  132.0520  124.4850   62.8850 C   0  0  0  0  0  0  0  0  0  0  0  0
  130.9110  122.0420   60.9780 C   0  0  0  0  0  0  0  0  0  0  0  0
  130.0090  121.0420   61.5760 C   0  0  0  0  0  0  0  0  0  0  0  0
  130.2180  119.5580   61.2730 C   0  0  0  0  0  0  0  0  0  0  0  0
  129.0920  121.3510   62.3360 O   0  0  0  0  0  0  0  0  0  0  0  0
  132.0920  121.7100   60.3720 C   0  0  0  0  0  0  0  0  0  0  0  0
  132.7140  120.3200   60.2430 C   0  0  0  0  0  0  0  0  0  0  0  0
  132.8860  122.6360   59.7560 N   0  0  0  0  0  0  0  0  0  0  0  0
  129.8320  128.7220   58.0370 C   0  0  0  0  0  0  0  0  0  0  0  0
  128.9320  129.7490   58.3180 C   0  0  0  0  0  0  0  0  0  0  0  0
  127.2300  129.9570   57.1140 I   0  0  0  0  0  0  0  0  0  0  0  0
  131.1733  133.0003   56.5774 H   0  0  0  0  0  0  0  0  0  0  0  0
  129.3179  132.9163   56.1528 H   0  0  0  0  0  0  0  0  0  0  0  0
  130.6720  132.9001   58.9139 H   0  0  0  0  0  0  0  0  0  0  0  0
  128.2434  133.6918   59.4026 H   0  0  0  0  0  0  0  0  0  0  0  0
  127.7143  132.6927   57.9841 H   0  0  0  0  0  0  0  0  0  0  0  0
  132.1408  129.3163   60.4738 H   0  0  0  0  0  0  0  0  0  0  0  0
  132.7760  127.7570   57.8203 H   0  0  0  0  0  0  0  0  0  0  0  0
  129.4252  123.6074   60.9253 H   0  0  0  0  0  0  0  0  0  0  0  0
  128.6920  123.9879   63.1535 H   0  0  0  0  0  0  0  0  0  0  0  0
  129.1385  124.9061   65.4131 H   0  0  0  0  0  0  0  0  0  0  0  0
  132.7965  125.5600   68.0687 H   0  0  0  0  0  0  0  0  0  0  0  0
  133.3327  124.6139   66.6389 H   0  0  0  0  0  0  0  0  0  0  0  0
  133.4822  126.4040   66.6389 H   0  0  0  0  0  0  0  0  0  0  0  0
  130.8017  125.8163   68.3623 H   0  0  0  0  0  0  0  0  0  0  0  0
  130.0083  126.8980   67.1677 H   0  0  0  0  0  0  0  0  0  0  0  0
  129.6438  125.1391   67.1677 H   0  0  0  0  0  0  0  0  0  0  0  0
  133.3310  125.2753   64.4308 H   0  0  0  0  0  0  0  0  0  0  0  0
  132.8773  124.3760   62.1660 H   0  0  0  0  0  0  0  0  0  0  0  0
  130.2968  118.9986   62.2169 H   0  0  0  0  0  0  0  0  0  0  0  0
  129.3644  119.1786   60.6921 H   0  0  0  0  0  0  0  0  0  0  0  0
  131.1432  119.4291   60.6921 H   0  0  0  0  0  0  0  0  0  0  0  0
  132.8990  119.9066   61.2454 H   0  0  0  0  0  0  0  0  0  0  0  0
  132.0255  119.6596   59.6954 H   0  0  0  0  0  0  0  0  0  0  0  0
  133.6652  120.3933   59.6954 H   0  0  0  0  0  0  0  0  0  0  0  0
  129.6227  128.0246   57.2125 H   0  0  0  0  0  0  0  0  0  0  0  0
  1  2  2  0
  2  3  1  0
  3  4  1  0
  4  5  1  0
  5  6  2  0
  6  7  1  0
  6  8  1  0
  8  9  2  0
  9 10  1  0
 10 11  2  0
 11 12  1  0
 12 13  1  0
 13 14  1  0
 14 15  1  0
 15 16  2  0
 14 17  1  0
 17 18  1  0
 18 19  2  0
 19 20  1  0
 20 21  2  0
 21 22  1  0
 22 23  1  0
 22 24  1  0
 21 25  1  0
 25 26  2  0
 17 27  1  0
 27 28  1  0
 28 29  1  0
 28 30  2  0
 27 31  2  0
 31 32  1  0
 31 33  1  0
  9 34  1  0
 34 35  2  0
 35 36  1  0
 35  5  1  0
 15 11  1  0
 26 18  1  0
 33 13  2  0
  1 37  1  0
  1 38  1  0
  2 39  1  0
  3 40  1  0
  3 41  1  0
  8 42  1  0
 10 43  1  0
 17 44  1  6
 19 45  1  0
 20 46  1  0
 23 47  1  0
 23 48  1  0
 23 49  1  0
 24 50  1  0
 24 51  1  0
 24 52  1  0
 25 53  1  0
 26 54  1  0
 29 55  1  0
 29 56  1  0
 29 57  1  0
 32 58  1  0
 32 59  1  0
 32 60  1  0
 34 61  1  0
M  END
>  <Binding energies>  (1) 
[-7.23]

>  <Ligand effiencies>  (1) 
[-0.20083333333333334]

>  <Interactions>  (1) 
["V-A:ILE:369:CG2:3237, V-A:ASP:366:CA:3210, V-B:ALA:541:CB:9864, V-B:TYR:539:CE2:9848, V-B:GLU:543:CG:9879, V-A:ASP:366:CG:3213, V-A:TYR:539:CD1:4873, V-B:TYR:539:CZ:9849, V-A:ILE:538:CA:4860, H-B:ALA:541:N:9863, V-A:GLU:543:CD:4908, V-A:TYR:484:CZ:4347, V-A:ARG:545:CG:4922, V-A:HIS:456:CE1:4070, V-A:ASP:366:C:3208, V-B:TYR:539:CD2:9846, V-A:SER:385:CB:3409, V-A:MET:535:CE:4835, V-B:GLU:543:CD:9880, V-A:TYR:539:C:4867, V-A:ASP:366:CB:3212, V-A:ARG:545:CD:4923, V-A:LEU:475:CD2:4259, V-A:ARG:545:CZ:4926, V-A:PRO:540:N:4884, V-A:PRO:540:CA:4883, V-A:TYR:539:CE1:4875"]

$$$$
ZINC8443633
     RDKit          3D

 57 59  0  0  0  0  0  0  0  0999 V2000
  128.6580  133.0420   56.7350 C   0  0  0  0  0  0  0  0  0  0  0  0
  129.6210  133.3180   57.8990 C   0  0  0  0  0  0  0  0  0  0  0  0
  128.9830  133.0650   59.2760 C   0  0  0  0  0  0  0  0  0  0  0  0
  129.0900  131.6010   59.7270 C   0  0  0  0  0  0  0  0  0  0  0  0
  128.8210  130.7600   58.6110 O   0  0  0  0  0  0  0  0  0  0  0  0
  129.6440  129.6650   58.5120 C   0  0  0  0  0  0  0  0  0  0  0  0
  129.0930  128.3780   58.5100 C   0  0  0  0  0  0  0  0  0  0  0  0
  127.0230  128.0960   58.6650 I   0  0  0  0  0  0  0  0  0  0  0  0
  129.9210  127.2620   58.4030 C   0  0  0  0  0  0  0  0  0  0  0  0
  131.3050  127.4130   58.2990 C   0  0  0  0  0  0  0  0  0  0  0  0
  132.1590  126.2120   58.1720 C   0  0  0  0  0  0  0  0  0  0  0  0
  132.4680  125.2360   59.0870 C   0  0  0  0  0  0  0  0  0  0  0  0
  131.8390  125.2110   60.4210 C   0  0  0  0  0  0  0  0  0  0  0  0
  130.7540  125.7550   60.6620 O   0  0  0  0  0  0  0  0  0  0  0  0
  132.5400  124.4850   61.3690 N   0  0  0  0  0  0  0  0  0  0  0  0
  132.0770  124.5760   62.7080 C   0  0  0  0  0  0  0  0  0  0  0  0
  132.9120  125.1030   63.6990 C   0  0  0  0  0  0  0  0  0  0  0  0
  132.4510  125.2110   65.0080 C   0  0  0  0  0  0  0  0  0  0  0  0
  131.1530  124.7910   65.3390 C   0  0  0  0  0  0  0  0  0  0  0  0
  130.6110  124.8670   66.6080 O   0  0  0  0  0  0  0  0  0  0  0  0
  129.8560  126.0180   66.9720 C   0  0  0  0  0  0  0  0  0  0  0  0
  130.3300  124.2600   64.3430 C   0  0  0  0  0  0  0  0  0  0  0  0
  130.7840  124.1510   63.0330 C   0  0  0  0  0  0  0  0  0  0  0  0
  133.6280  123.6580   61.0990 C   0  0  0  0  0  0  0  0  0  0  0  0
  134.2470  123.1570   62.0420 O   0  0  0  0  0  0  0  0  0  0  0  0
  133.9450  123.4370   59.7470 N   0  0  0  0  0  0  0  0  0  0  0  0
  133.4540  124.1770   58.8240 C   0  0  0  0  0  0  0  0  0  0  0  0
  133.8190  123.8960   57.6680 O   0  0  0  0  0  0  0  0  0  0  0  0
  131.8480  128.7030   58.2770 C   0  0  0  0  0  0  0  0  0  0  0  0
  131.0310  129.8390   58.3910 C   0  0  0  0  0  0  0  0  0  0  0  0
  131.5080  131.1370   58.3880 O   0  0  0  0  0  0  0  0  0  0  0  0
  132.7280  131.4380   59.0580 C   0  0  0  0  0  0  0  0  0  0  0  0
  132.4650  131.4650   60.5670 C   0  0  0  0  0  0  0  0  0  0  0  0
  127.6724  132.7595   57.1336 H   0  0  0  0  0  0  0  0  0  0  0  0
  128.5584  133.9478   56.1188 H   0  0  0  0  0  0  0  0  0  0  0  0
  129.0533  132.2210   56.1188 H   0  0  0  0  0  0  0  0  0  0  0  0
  130.4977  132.6622   57.7924 H   0  0  0  0  0  0  0  0  0  0  0  0
  129.8978  134.3816   57.8536 H   0  0  0  0  0  0  0  0  0  0  0  0
  129.4897  133.6986   60.0188 H   0  0  0  0  0  0  0  0  0  0  0  0
  127.9130  133.3061   59.1922 H   0  0  0  0  0  0  0  0  0  0  0  0
  130.1042  131.4028   60.1041 H   0  0  0  0  0  0  0  0  0  0  0  0
  128.3653  131.4019   60.5302 H   0  0  0  0  0  0  0  0  0  0  0  0
  129.4805  126.2541   58.4005 H   0  0  0  0  0  0  0  0  0  0  0  0
  132.6221  126.0791   57.1831 H   0  0  0  0  0  0  0  0  0  0  0  0
  133.9305  125.4313   63.4444 H   0  0  0  0  0  0  0  0  0  0  0  0
  133.1069  125.6274   65.7867 H   0  0  0  0  0  0  0  0  0  0  0  0
  129.8070  126.0927   68.0684 H   0  0  0  0  0  0  0  0  0  0  0  0
  130.3399  126.9179   66.5644 H   0  0  0  0  0  0  0  0  0  0  0  0
  128.8379  125.9326   66.5644 H   0  0  0  0  0  0  0  0  0  0  0  0
  129.3135  123.9250   64.5972 H   0  0  0  0  0  0  0  0  0  0  0  0
  130.1289  123.7321   62.2550 H   0  0  0  0  0  0  0  0  0  0  0  0
  132.9353  128.8290   58.1683 H   0  0  0  0  0  0  0  0  0  0  0  0
  133.4776  130.6669   58.8265 H   0  0  0  0  0  0  0  0  0  0  0  0
  133.1071  132.4157   58.7257 H   0  0  0  0  0  0  0  0  0  0  0  0
  133.4182  131.3671   61.1071 H   0  0  0  0  0  0  0  0  0  0  0  0
  131.9857  132.4171   60.8387 H   0  0  0  0  0  0  0  0  0  0  0  0
  131.8022  130.6302   60.8387 H   0  0  0  0  0  0  0  0  0  0  0  0
  1  2  1  0
  2  3  1  0
  3  4  1  0
  4  5  1  0
  5  6  1  0
  6  7  2  0
  7  8  1  0
  7  9  1  0
  9 10  2  0
 10 11  1  0
 11 12  2  0
 12 13  1  0
 13 14  2  0
 13 15  1  0
 15 16  1  0
 16 17  2  0
 17 18  1  0
 18 19  2  0
 19 20  1  0
 20 21  1  0
 19 22  1  0
 22 23  2  0
 15 24  1  0
 24 25  2  0
 24 26  1  0
 26 27  2  0
 27 28  1  0
 10 29  1  0
 29 30  2  0
 30 31  1  0
 31 32  1  0
 32 33  1  0
 30  6  1  0
 27 12  1  0
 23 16  1  0
  1 34  1  0
  1 35  1  0
  1 36  1  0
  2 37  1  0
  2 38  1  0
  3 39  1  0
  3 40  1  0
  4 41  1  0
  4 42  1  0
  9 43  1  0
 11 44  1  0
 17 45  1  0
 18 46  1  0
 21 47  1  0
 21 48  1  0
 21 49  1  0
 22 50  1  0
 23 51  1  0
 29 52  1  0
 32 53  1  0
 32 54  1  0
 33 55  1  0
 33 56  1  0
 33 57  1  0
M  CHG  1  28  -1
M  END
>  <Binding energies>  (1) 
[-6.45]

>  <Ligand effiencies>  (1) 
[-0.19545454545454546]

>  <Interactions>  (1) 
["V-A:ILE:369:CG2:3237, V-A:ASP:366:CA:3210, V-A:ILE:369:CB:3236, V-B:GLU:543:CB:9878, V-B:TYR:539:CE2:9848, V-B:GLU:543:CG:9879, V-A:ASP:366:CG:3213, V-A:TYR:539:CD1:4873, V-A:LEU:363:CD1:3189, V-B:TYR:539:CZ:9849, H-A:ASN:370:N:3244, V-A:TYR:539:CZ:4877, H-B:TYR:539:OH:9850, V-A:TYR:539:CA:4869, V-A:TYR:484:CZ:4347, H-A:GLY:454:N:4050, V-A:ILE:369:CD1:3239, V-A:HIS:456:CE1:4070, V-A:TYR:531:CZ:4794, V-A:TYR:539:C:4867, V-A:ASP:366:CB:3212, V-A:ARG:545:CZ:4926, V-A:PRO:540:N:4884, V-A:TYR:539:CG:4872, V-A:PRO:540:CB:4885, V-A:PRO:540:CA:4883, V-A:TYR:539:CD2:4874, V-A:TYR:539:CE1:4875, H-A:TYR:484:OH:4348"]

$$$$
ZINC8452715
     RDKit          3D

 44 47  0  0  0  0  0  0  0  0999 V2000
  133.5980  123.6470   62.8940 C   0  0  0  0  0  0  0  0  0  0  0  0
  132.4230  123.1460   64.1840 S   0  0  0  0  0  0  0  0  0  0  0  0
  131.3280  124.5060   64.4610 C   0  0  0  0  0  0  0  0  0  0  0  0
  131.1350  125.3540   63.4230 N   0  0  0  0  0  0  0  0  0  0  0  0
  130.2940  126.3860   63.5980 N   0  0  0  0  0  0  0  0  0  0  0  0
  129.6490  126.5960   64.7900 C   0  0  0  0  0  0  0  0  0  0  0  0
  129.9310  125.7020   65.8480 C   0  0  0  0  0  0  0  0  0  0  0  0
  130.7530  124.6360   65.6800 N   0  0  0  0  0  0  0  0  0  0  0  0
  129.4530  125.8370   67.1210 O   0  0  0  0  0  0  0  0  0  0  0  0
  129.4530  127.1170   67.6470 C   0  0  2  0  0  0  0  0  0  0  0  0
  129.6490  126.9820   69.1700 C   0  0  1  0  0  0  0  0  0  0  0  0
  130.6100  128.0660   69.7410 C   0  0  0  0  0  0  0  0  0  0  0  0
  130.5860  128.1110   71.2660 C   0  0  0  0  0  0  0  0  0  0  0  0
  129.6600  127.5150   72.0470 C   0  0  0  0  0  0  0  0  0  0  0  0
  129.7500  127.5520   73.5620 C   0  0  0  0  0  0  0  0  0  0  0  0
  128.5320  126.6750   71.4500 C   0  0  0  0  0  0  0  0  0  0  0  0
  128.3130  126.9930   69.9560 C   0  0  0  0  0  0  0  0  0  0  0  0
  128.3160  127.8820   67.2980 N   0  0  0  0  0  0  0  0  0  0  0  0
  127.9980  128.2640   65.9860 C   0  0  0  0  0  0  0  0  0  0  0  0
  126.9960  129.2310   65.8370 C   0  0  0  0  0  0  0  0  0  0  0  0
  126.6050  129.7040   64.5920 C   0  0  0  0  0  0  0  0  0  0  0  0
  127.2090  129.2020   63.4530 C   0  0  0  0  0  0  0  0  0  0  0  0
  126.6850  129.8340   61.7360 Br  0  0  0  0  0  0  0  0  0  0  0  0
  128.1930  128.2260   63.5680 C   0  0  0  0  0  0  0  0  0  0  0  0
  128.6190  127.7200   64.8190 C   0  0  0  0  0  0  0  0  0  0  0  0
  134.5132  124.0372   63.3632 H   0  0  0  0  0  0  0  0  0  0  0  0
  133.8486  122.7775   62.2686 H   0  0  0  0  0  0  0  0  0  0  0  0
  133.1441  124.4298   62.2686 H   0  0  0  0  0  0  0  0  0  0  0  0
  130.2798  127.6930   67.2059 H   0  0  0  0  0  0  0  0  0  0  0  0
  130.1131  125.9950   69.3126 H   0  0  0  0  0  0  0  0  0  0  0  0
  131.6345  127.8416   69.4092 H   0  0  0  0  0  0  0  0  0  0  0  0
  130.2744  129.0451   69.3687 H   0  0  0  0  0  0  0  0  0  0  0  0
  131.3865  128.6735   71.7688 H   0  0  0  0  0  0  0  0  0  0  0  0
  128.8145  127.1674   73.9944 H   0  0  0  0  0  0  0  0  0  0  0  0
  130.5919  126.9270   73.8947 H   0  0  0  0  0  0  0  0  0  0  0  0
  129.9088  128.5884   73.8947 H   0  0  0  0  0  0  0  0  0  0  0  0
  128.7870  125.6101   71.5542 H   0  0  0  0  0  0  0  0  0  0  0  0
  127.6041  126.9128   71.9908 H   0  0  0  0  0  0  0  0  0  0  0  0
  127.6388  126.2381   69.5252 H   0  0  0  0  0  0  0  0  0  0  0  0
  127.8756  127.9993   69.8783 H   0  0  0  0  0  0  0  0  0  0  0  0
  127.5020  127.7960   67.8900 H   0  0  0  0  0  0  0  0  0  0  0  0
  126.5026  129.6287   66.7361 H   0  0  0  0  0  0  0  0  0  0  0  0
  125.8213  130.4717   64.5116 H   0  0  0  0  0  0  0  0  0  0  0  0
  128.6577  127.8325   62.6519 H   0  0  0  0  0  0  0  0  0  0  0  0
  1  2  1  0
  2  3  1  0
  3  4  2  0
  4  5  1  0
  5  6  2  0
  6  7  1  0
  7  8  2  0
  7  9  1  0
  9 10  1  0
 10 11  1  0
 11 12  1  0
 12 13  1  0
 13 14  2  0
 14 15  1  0
 14 16  1  0
 16 17  1  0
 10 18  1  0
 18 19  1  0
 19 20  2  0
 20 21  1  0
 21 22  2  0
 22 23  1  0
 22 24  1  0
 24 25  2  0
  8  3  1  0
 17 11  1  0
 25 19  1  0
 25  6  1  0
  1 26  1  0
  1 27  1  0
  1 28  1  0
 10 29  1  6
 11 30  1  6
 12 31  1  0
 12 32  1  0
 13 33  1  0
 15 34  1  0
 15 35  1  0
 15 36  1  0
 16 37  1  0
 16 38  1  0
 17 39  1  0
 17 40  1  0
 18 41  1  0
 20 42  1  0
 21 43  1  0
 24 44  1  0
M  END
>  <Binding energies>  (1) 
[-6.88]

>  <Ligand effiencies>  (1) 
[-0.2646153846153846]

>  <Interactions>  (1) 
["V-B:TYR:484:CZ:9318, V-A:HIS:456:CE1:4070, H-B:GLU:543:OE2:9882, V-A:GLY:454:CA:4049, V-B:GLU:543:C:9874, V-A:GLU:543:C:4902, V-B:GLU:543:CB:9878, V-B:GLU:543:CD:9880, V-A:GLU:543:CB:4906, V-A:GLU:543:CD:4908, V-B:GLU:543:CG:9879, V-A:GLY:544:C:4912, V-B:HIS:456:CE1:9041, H-A:TYR:484:OH:4348"]

$$$$
ZINC8455408
     RDKit          3D

 53 57  0  0  0  0  0  0  0  0999 V2000
  127.0520  122.7200   56.6480 C   0  0  0  0  0  0  0  0  0  0  0  0
  127.5750  123.8920   57.4960 C   0  0  0  0  0  0  0  0  0  0  0  0
  127.6850  123.5210   58.9020 N   0  0  0  0  0  0  0  0  0  0  0  0
  126.7280  123.6210   59.8720 C   0  0  0  0  0  0  0  0  0  0  0  0
  127.3130  123.1710   61.0500 C   0  0  0  0  0  0  0  0  0  0  0  0
  126.6660  123.0760   62.3280 N   0  0  0  0  0  0  0  0  0  0  0  0
  127.3790  122.8690   63.3060 O   0  0  0  0  0  0  0  0  0  0  0  0
  125.4500  123.2210   62.3860 O   0  0  0  0  0  0  0  0  0  0  0  0
  128.6470  122.8490   60.6690 C   0  0  0  0  0  0  0  0  0  0  0  0
  129.7090  122.3720   61.5250 C   0  0  0  0  0  0  0  0  0  0  0  0
  129.9510  121.1650   61.5580 O   0  0  0  0  0  0  0  0  0  0  0  0
  130.4090  123.2960   62.2470 N   0  0  0  0  0  0  0  0  0  0  0  0
  129.8760  124.0080   63.2840 N   0  0  0  0  0  0  0  0  0  0  0  0
  130.7950  124.6000   63.9360 C   0  0  0  0  0  0  0  0  0  0  0  0
  130.6880  125.3140   65.1980 C   0  0  0  0  0  0  0  0  0  0  0  0
  129.4840  125.8270   65.5550 C   0  0  0  0  0  0  0  0  0  0  0  0
  129.1060  126.5150   66.7800 C   0  0  0  0  0  0  0  0  0  0  0  0
  128.5170  127.7710   66.9160 C   0  0  0  0  0  0  0  0  0  0  0  0
  128.3140  128.1440   68.2500 C   0  0  0  0  0  0  0  0  0  0  0  0
  128.7650  127.1850   69.1440 C   0  0  0  0  0  0  0  0  0  0  0  0
  129.4490  125.8130   68.3340 S   0  0  0  0  0  0  0  0  0  0  0  0
  131.9570  125.4190   66.0690 C   0  0  0  0  0  0  0  0  0  0  0  0
  133.2790  125.4280   65.2700 C   0  0  0  0  0  0  0  0  0  0  0  0
  133.2930  124.3490   64.1770 C   0  0  0  0  0  0  0  0  0  0  0  0
  132.1160  124.5620   63.2050 C   0  0  1  0  0  0  0  0  0  0  0  0
  131.8680  123.4720   62.1700 C   0  0  2  0  0  0  0  0  0  0  0  0
  132.4290  123.8430   60.8010 C   0  0  0  0  0  0  0  0  0  0  0  0
  131.8630  124.6200   59.7870 C   0  0  0  0  0  0  0  0  0  0  0  0
  132.6590  124.7530   58.6470 C   0  0  0  0  0  0  0  0  0  0  0  0
  133.8590  124.0780   58.7600 C   0  0  0  0  0  0  0  0  0  0  0  0
  133.9980  123.2770   60.2880 S   0  0  0  0  0  0  0  0  0  0  0  0
  128.8460  123.0630   59.3820 N   0  0  0  0  0  0  0  0  0  0  0  0
  126.6944  121.9185   57.3111 H   0  0  0  0  0  0  0  0  0  0  0  0
  126.2236  123.0677   56.0132 H   0  0  0  0  0  0  0  0  0  0  0  0
  127.8640  122.3357   56.0132 H   0  0  0  0  0  0  0  0  0  0  0  0
  128.5673  124.1881   57.1248 H   0  0  0  0  0  0  0  0  0  0  0  0
  126.8631  124.7263   57.4117 H   0  0  0  0  0  0  0  0  0  0  0  0
  125.6979  123.9856   59.7457 H   0  0  0  0  0  0  0  0  0  0  0  0
  128.6802  125.7057   64.8139 H   0  0  0  0  0  0  0  0  0  0  0  0
  128.2396  128.4053   66.0612 H   0  0  0  0  0  0  0  0  0  0  0  0
  127.8483  129.0927   68.5551 H   0  0  0  0  0  0  0  0  0  0  0  0
  128.6969  127.2830   70.2375 H   0  0  0  0  0  0  0  0  0  0  0  0
  131.8996  126.3513   66.6500 H   0  0  0  0  0  0  0  0  0  0  0  0
  131.9787  124.5201   66.7027 H   0  0  0  0  0  0  0  0  0  0  0  0
  133.4032  126.4140   64.7984 H   0  0  0  0  0  0  0  0  0  0  0  0
  134.1020  125.2171   65.9688 H   0  0  0  0  0  0  0  0  0  0  0  0
  134.2397  124.4081   63.6200 H   0  0  0  0  0  0  0  0  0  0  0  0
  133.1958  123.3595   64.6476 H   0  0  0  0  0  0  0  0  0  0  0  0
  132.4249  125.4966   62.7140 H   0  0  0  0  0  0  0  0  0  0  0  0
  132.3898  122.5220   62.3577 H   0  0  0  0  0  0  0  0  0  0  0  0
  130.8720  125.0885   59.8790 H   0  0  0  0  0  0  0  0  0  0  0  0
  132.3635  125.3306   57.7587 H   0  0  0  0  0  0  0  0  0  0  0  0
  134.6304  124.0527   57.9762 H   0  0  0  0  0  0  0  0  0  0  0  0
  1  2  1  0
  2  3  1  0
  3  4  1  0
  4  5  2  0
  5  6  1  0
  6  7  2  0
  6  8  1  0
  5  9  1  0
  9 10  1  0
 10 11  2  0
 10 12  1  0
 12 13  1  0
 13 14  2  0
 14 15  1  0
 15 16  2  0
 16 17  1  0
 17 18  2  0
 18 19  1  0
 19 20  2  0
 20 21  1  0
 15 22  1  0
 22 23  1  0
 23 24  1  0
 24 25  1  0
 25 26  1  0
 26 27  1  0
 27 28  2  0
 28 29  1  0
 29 30  2  0
 30 31  1  0
  9 32  2  0
 32  3  1  0
 26 12  1  0
 31 27  1  0
 25 14  1  0
 21 17  1  0
  1 33  1  0
  1 34  1  0
  1 35  1  0
  2 36  1  0
  2 37  1  0
  4 38  1  0
 16 39  1  0
 18 40  1  0
 19 41  1  0
 20 42  1  0
 22 43  1  0
 22 44  1  0
 23 45  1  0
 23 46  1  0
 24 47  1  0
 24 48  1  0
 25 49  1  6
 26 50  1  1
 28 51  1  0
 29 52  1  0
 30 53  1  0
M  CHG  2   6   1   8  -1
M  END
>  <Binding energies>  (1) 
[-8.95]

>  <Ligand effiencies>  (1) 
[-0.2796875]

>  <Interactions>  (1) 
["V-A:ILE:369:CG2:3237, V-A:ASP:366:CA:3210, V-B:PRO:540:CA:9855, V-A:GLY:454:CA:4049, V-B:GLU:543:C:9874, V-A:ILE:369:CB:3236, V-B:GLU:543:CB:9878, V-B:ALA:541:CB:9864, V-B:TYR:539:CE2:9848, V-B:GLU:543:CG:9879, V-B:TYR:539:CZ:9849, H-B:ALA:541:N:9863, V-A:GLU:543:CD:4908, V-B:PRO:540:CB:9857, V-A:TYR:484:CZ:4347, V-B:GLU:543:CA:9876, V-B:HIS:456:CE1:9041, V-B:PRO:540:N:9856, V-A:HIS:456:CE1:4070, V-A:ILE:369:CD1:3239, V-A:ASP:366:C:3208, V-B:GLU:543:CD:9880, V-A:ASP:366:CB:3212, V-A:ARG:545:CD:4923, V-A:ARG:545:CZ:4926, V-A:GLU:543:CB:4906, V-B:TYR:539:CD1:9845, V-B:PRO:540:C:9853, V-B:ALA:541:CA:9862, V-B:TYR:539:CE1:9847"]

$$$$
ZINC84615635
     RDKit          3D

 44 47  0  0  0  0  0  0  0  0999 V2000
  133.5950  125.0970   65.3380 C   0  0  0  0  0  0  0  0  0  0  0  0
  132.8050  124.2820   64.3320 C   0  0  0  0  0  0  0  0  0  0  0  0
  133.2500  123.3240   63.4310 C   0  0  0  0  0  0  0  0  0  0  0  0
  132.1550  122.8290   62.7240 C   0  0  0  0  0  0  0  0  0  0  0  0
  131.0320  123.4790   63.2200 C   0  0  0  0  0  0  0  0  0  0  0  0
  131.4290  124.3930   64.1810 N   0  0  0  0  0  0  0  0  0  0  0  0
  130.5740  125.2690   64.8850 C   0  0  0  0  0  0  0  0  0  0  0  0
  129.8070  126.2030   64.1840 C   0  0  0  0  0  0  0  0  0  0  0  0
  128.9580  127.0770   64.8560 C   0  0  0  0  0  0  0  0  0  0  0  0
  128.8620  127.0290   66.2730 C   0  0  0  0  0  0  0  0  0  0  0  0
  128.0270  127.8700   67.0690 C   0  0  0  0  0  0  0  0  0  0  0  0
  127.2010  128.8420   66.5040 N   0  0  0  0  0  0  0  0  0  0  0  0
  127.9760  127.7840   68.4190 N   0  0  0  0  0  0  0  0  0  0  0  0
  128.7670  126.8450   68.9900 C   0  0  0  0  0  0  0  0  0  0  0  0
  129.6010  125.9860   68.3520 N   0  0  0  0  0  0  0  0  0  0  0  0
  129.6490  126.0770   66.9920 C   0  0  0  0  0  0  0  0  0  0  0  0
  130.5030  125.2030   66.2790 C   0  0  0  0  0  0  0  0  0  0  0  0
  129.6150  123.3110   62.6690 C   0  0  0  0  0  0  0  0  0  0  0  0
  129.6800  122.7360   61.2150 C   0  0  0  0  0  0  0  0  0  0  0  0
  128.2820  122.1910   60.8560 C   0  0  0  0  0  0  0  0  0  0  0  0
  130.1380  123.8530   60.2400 C   0  0  0  0  0  0  0  0  0  0  0  0
  130.6770  121.5330   61.1530 C   0  0  0  0  0  0  0  0  0  0  0  0
  132.1050  121.8410   61.6510 C   0  0  0  0  0  0  0  0  0  0  0  0
  133.1080  121.3350   61.1490 O   0  0  0  0  0  0  0  0  0  0  0  0
  133.3072  124.8001   66.3573 H   0  0  0  0  0  0  0  0  0  0  0  0
  134.6703  124.9159   65.1931 H   0  0  0  0  0  0  0  0  0  0  0  0
  133.3805  126.1661   65.1931 H   0  0  0  0  0  0  0  0  0  0  0  0
  134.2949  123.0075   63.2970 H   0  0  0  0  0  0  0  0  0  0  0  0
  129.8751  126.2480   63.0870 H   0  0  0  0  0  0  0  0  0  0  0  0
  128.3602  127.8062   64.2895 H   0  0  0  0  0  0  0  0  0  0  0  0
  127.2350  129.7900   66.8480 H   0  0  0  0  0  0  0  0  0  0  0  0
  126.5890  128.5840   65.7430 H   0  0  0  0  0  0  0  0  0  0  0  0
  128.7294  126.7709   70.0869 H   0  0  0  0  0  0  0  0  0  0  0  0
  131.1137  124.4684   66.8243 H   0  0  0  0  0  0  0  0  0  0  0  0
  129.0524  122.6178   63.3117 H   0  0  0  0  0  0  0  0  0  0  0  0
  129.1120  124.2891   62.6521 H   0  0  0  0  0  0  0  0  0  0  0  0
  127.7249  121.9738   61.7793 H   0  0  0  0  0  0  0  0  0  0  0  0
  127.7359  122.9421   60.2664 H   0  0  0  0  0  0  0  0  0  0  0  0
  128.3884  121.2685   60.2664 H   0  0  0  0  0  0  0  0  0  0  0  0
  130.4934  124.7198   60.8164 H   0  0  0  0  0  0  0  0  0  0  0  0
  130.9536  123.4748   59.6062 H   0  0  0  0  0  0  0  0  0  0  0  0
  129.2916  124.1562   59.6062 H   0  0  0  0  0  0  0  0  0  0  0  0
  130.2686  120.7195   61.7706 H   0  0  0  0  0  0  0  0  0  0  0  0
  130.7733  121.2689   60.0895 H   0  0  0  0  0  0  0  0  0  0  0  0
  1  2  1  0
  2  3  2  0
  3  4  1  0
  4  5  2  0
  5  6  1  0
  6  7  1  0
  7  8  2  0
  8  9  1  0
  9 10  2  0
 10 11  1  0
 11 12  1  0
 11 13  2  0
 13 14  1  0
 14 15  2  0
 15 16  1  0
 16 17  2  0
  5 18  1  0
 18 19  1  0
 19 20  1  0
 19 21  1  0
 19 22  1  0
 22 23  1  0
 23 24  2  0
  6  2  1  0
 17  7  1  0
 23  4  1  0
 16 10  1  0
  1 25  1  0
  1 26  1  0
  1 27  1  0
  3 28  1  0
  8 29  1  0
  9 30  1  0
 12 31  1  0
 12 32  1  0
 14 33  1  0
 17 34  1  0
 18 35  1  0
 18 36  1  0
 20 37  1  0
 20 38  1  0
 20 39  1  0
 21 40  1  0
 21 41  1  0
 21 42  1  0
 22 43  1  0
 22 44  1  0
M  END
>  <Binding energies>  (1) 
[-6.77]

>  <Ligand effiencies>  (1) 
[-0.2603846153846154]

>  <Interactions>  (1) 
["V-B:PRO:540:CA:9855, V-A:GLY:454:CA:4049, V-B:GLU:543:C:9874, V-B:GLU:543:CB:9878, V-B:TYR:539:CE2:9848, V-B:GLU:543:CG:9879, V-B:TYR:539:C:9839, V-A:GLU:543:CD:4908, H-B:TYR:484:OH:9319, V-B:HIS:456:CE1:9041, V-B:PRO:540:N:9856, V-A:HIS:456:CE1:4070, V-B:TYR:539:CD2:9846, H-A:SER:385:OG:3410, V-B:GLU:543:CD:9880, V-A:ARG:545:CD:4923, V-A:LEU:475:CD2:4259, V-A:ARG:545:CZ:4926, H-B:GLU:543:OE2:9882, V-B:PRO:540:C:9853"]

$$$$
ZINC84738816
     RDKit          3D

 67 69  0  0  0  0  0  0  0  0999 V2000
  133.2790  121.3920   61.2290 C   0  0  0  0  0  0  0  0  0  0  0  0
  133.9960  122.1660   62.3410 C   0  0  0  0  0  0  0  0  0  0  0  0
  134.0410  123.6830   62.0900 C   0  0  0  0  0  0  0  0  0  0  0  0
  132.6990  124.3890   62.3460 C   0  0  0  0  0  0  0  0  0  0  0  0
  132.8850  125.4710   63.2720 O   0  0  0  0  0  0  0  0  0  0  0  0
  132.8460  125.1140   64.6010 C   0  0  0  0  0  0  0  0  0  0  0  0
  133.9090  124.6400   65.0270 O   0  0  0  0  0  0  0  0  0  0  0  0
  131.7700  125.2930   65.2580 N   0  0  0  0  0  0  0  0  0  0  0  0
  130.3000  125.8080   64.4220 S   0  0  0  0  0  0  0  0  0  0  0  0
  130.4490  126.9220   63.4790 O   0  0  0  0  0  0  0  0  0  0  0  0
  129.3240  124.7780   64.0440 O   0  0  0  0  0  0  0  0  0  0  0  0
  129.4850  126.5910   65.8670 C   0  0  0  0  0  0  0  0  0  0  0  0
  129.6420  125.9790   67.4900 S   0  0  0  0  0  0  0  0  0  0  0  0
  128.6700  127.2530   68.1590 C   0  0  0  0  0  0  0  0  0  0  0  0
  128.4000  127.3140   69.6540 C   0  0  0  0  0  0  0  0  0  0  0  0
  129.4310  128.1250   70.4800 C   0  0  0  0  0  0  0  0  0  0  0  0
  130.8430  128.0950   69.8580 C   0  0  0  0  0  0  0  0  0  0  0  0
  129.4750  127.6370   71.9390 C   0  0  0  0  0  0  0  0  0  0  0  0
  128.2310  128.0750   67.1220 C   0  0  0  0  0  0  0  0  0  0  0  0
  128.6570  127.7180   65.8330 C   0  0  0  0  0  0  0  0  0  0  0  0
  128.2480  128.4870   64.6250 C   0  0  0  0  0  0  0  0  0  0  0  0
  127.7710  127.8150   63.4940 C   0  0  0  0  0  0  0  0  0  0  0  0
  127.3900  128.5310   62.3600 C   0  0  0  0  0  0  0  0  0  0  0  0
  127.4870  129.9220   62.3460 C   0  0  0  0  0  0  0  0  0  0  0  0
  127.9620  130.6040   63.4700 C   0  0  0  0  0  0  0  0  0  0  0  0
  128.0950  132.1200   63.4440 C   0  0  0  0  0  0  0  0  0  0  0  0
  129.0530  132.6040   62.4370 N   0  0  0  0  0  0  0  0  0  0  0  0
  128.5170  133.6940   61.6150 C   0  0  0  0  0  0  0  0  0  0  0  0
  130.2880  132.0350   62.3140 C   0  0  0  0  0  0  0  0  0  0  0  0
  131.1850  132.2350   63.1390 O   0  0  0  0  0  0  0  0  0  0  0  0
  130.5620  131.1550   61.1870 C   0  0  0  0  0  0  0  0  0  0  0  0
  130.6610  129.7590   61.1250 C   0  0  0  0  0  0  0  0  0  0  0  0
  130.9260  129.2750   59.8390 C   0  0  0  0  0  0  0  0  0  0  0  0
  131.0570  130.2870   58.9010 C   0  0  0  0  0  0  0  0  0  0  0  0
  130.8660  131.8540   59.6190 S   0  0  0  0  0  0  0  0  0  0  0  0
  128.3510  129.8810   64.6020 C   0  0  0  0  0  0  0  0  0  0  0  0
  132.5962  120.6549   61.6768 H   0  0  0  0  0  0  0  0  0  0  0  0
  132.7042  122.0932   60.6061 H   0  0  0  0  0  0  0  0  0  0  0  0
  134.0220  120.8725   60.6061 H   0  0  0  0  0  0  0  0  0  0  0  0
  133.4695  121.9838   63.2895 H   0  0  0  0  0  0  0  0  0  0  0  0
  135.0357  121.8082   62.3709 H   0  0  0  0  0  0  0  0  0  0  0  0
  134.7982  124.1234   62.7554 H   0  0  0  0  0  0  0  0  0  0  0  0
  134.2839  123.8272   61.0269 H   0  0  0  0  0  0  0  0  0  0  0  0
  132.3079  124.7843   61.3969 H   0  0  0  0  0  0  0  0  0  0  0  0
  131.9853  123.6676   62.7704 H   0  0  0  0  0  0  0  0  0  0  0  0
  127.4105  127.7710   69.8024 H   0  0  0  0  0  0  0  0  0  0  0  0
  128.4656  126.2780   70.0178 H   0  0  0  0  0  0  0  0  0  0  0  0
  129.0921  129.1714   70.4653 H   0  0  0  0  0  0  0  0  0  0  0  0
  131.5964  128.0790   70.6593 H   0  0  0  0  0  0  0  0  0  0  0  0
  130.9505  127.1944   69.2357 H   0  0  0  0  0  0  0  0  0  0  0  0
  130.9886  128.9903   69.2357 H   0  0  0  0  0  0  0  0  0  0  0  0
  129.3972  128.4999   72.6168 H   0  0  0  0  0  0  0  0  0  0  0  0
  128.6351  126.9505   72.1215 H   0  0  0  0  0  0  0  0  0  0  0  0
  130.4241  127.1118   72.1215 H   0  0  0  0  0  0  0  0  0  0  0  0
  127.5897  128.9502   67.3029 H   0  0  0  0  0  0  0  0  0  0  0  0
  127.6964  126.7176   63.4997 H   0  0  0  0  0  0  0  0  0  0  0  0
  127.0123  127.9979   61.4751 H   0  0  0  0  0  0  0  0  0  0  0  0
  127.1891  130.4839   61.4485 H   0  0  0  0  0  0  0  0  0  0  0  0
  127.1082  132.5532   63.2235 H   0  0  0  0  0  0  0  0  0  0  0  0
  128.4737  132.4304   64.4290 H   0  0  0  0  0  0  0  0  0  0  0  0
  128.1265  134.4881   62.2684 H   0  0  0  0  0  0  0  0  0  0  0  0
  129.3172  134.1020   60.9800 H   0  0  0  0  0  0  0  0  0  0  0  0
  127.7053  133.3094   60.9800 H   0  0  0  0  0  0  0  0  0  0  0  0
  130.5419  129.1063   62.0024 H   0  0  0  0  0  0  0  0  0  0  0  0
  131.0203  128.2058   59.5983 H   0  0  0  0  0  0  0  0  0  0  0  0
  131.2574  130.1171   57.8328 H   0  0  0  0  0  0  0  0  0  0  0  0
  128.7413  130.4136   65.4818 H   0  0  0  0  0  0  0  0  0  0  0  0
  1  2  1  0
  2  3  1  0
  3  4  1  0
  4  5  1  0
  5  6  1  0
  6  7  1  0
  6  8  2  0
  8  9  1  0
  9 10  2  0
  9 11  2  0
  9 12  1  0
 12 13  1  0
 13 14  1  0
 14 15  1  0
 15 16  1  0
 16 17  1  0
 16 18  1  0
 14 19  2  0
 19 20  1  0
 20 21  1  0
 21 22  2  0
 22 23  1  0
 23 24  2  0
 24 25  1  0
 25 26  1  0
 26 27  1  0
 27 28  1  0
 27 29  1  0
 29 30  2  0
 29 31  1  0
 31 32  2  0
 32 33  1  0
 33 34  2  0
 34 35  1  0
 25 36  2  0
 20 12  2  0
 36 21  1  0
 35 31  1  0
  1 37  1  0
  1 38  1  0
  1 39  1  0
  2 40  1  0
  2 41  1  0
  3 42  1  0
  3 43  1  0
  4 44  1  0
  4 45  1  0
 15 46  1  0
 15 47  1  0
 16 48  1  0
 17 49  1  0
 17 50  1  0
 17 51  1  0
 18 52  1  0
 18 53  1  0
 18 54  1  0
 19 55  1  0
 22 56  1  0
 23 57  1  0
 24 58  1  0
 26 59  1  0
 26 60  1  0
 28 61  1  0
 28 62  1  0
 28 63  1  0
 32 64  1  0
 33 65  1  0
 34 66  1  0
 36 67  1  0
M  CHG  1   7  -1
M  END
>  <Binding energies>  (1) 
[-7.61]

>  <Ligand effiencies>  (1) 
[-0.2113888888888889]

>  <Interactions>  (1) 
["V-A:ILE:369:CG2:3237, V-A:GLY:454:CA:4049, V-A:GLU:543:C:4902, H-A:ALA:541:N:4891, V-B:GLU:543:CB:9878, V-A:PRO:540:C:4881, V-B:GLU:543:CG:9879, V-A:GLY:544:C:4912, V-A:ALA:541:CB:4892, V-A:GLU:543:CD:4908, V-B:HIS:456:CE1:9041, H-A:GLY:454:N:4050, V-A:ILE:369:CD1:3239, V-A:HIS:456:CE1:4070, V-A:GLU:543:CG:4907, V-B:GLU:543:CD:9880, V-A:LEU:475:CD2:4259, H-A:ARG:545:NH2:4928, V-A:ARG:545:CZ:4926, V-A:GLU:543:CB:4906, V-A:PRO:540:CB:4885, V-A:PRO:540:CA:4883, H-A:ARG:545:NE:4924, H-A:TYR:484:OH:4348"]

$$$$
ZINC852855
     RDKit          3D

 39 41  0  0  0  0  0  0  0  0999 V2000
  126.2950  123.6030   61.2700 C   0  0  0  0  0  0  0  0  0  0  0  0
  127.1560  122.4750   61.3920 O   0  0  0  0  0  0  0  0  0  0  0  0
  128.3920  122.6240   61.9970 C   0  0  0  0  0  0  0  0  0  0  0  0
  128.5860  123.2840   63.2230 C   0  0  0  0  0  0  0  0  0  0  0  0
  129.8630  123.4190   63.7800 C   0  0  0  0  0  0  0  0  0  0  0  0
  130.0790  124.0970   65.0760 C   0  0  0  0  0  0  0  0  0  0  0  0
  129.7270  125.3500   65.4960 C   0  0  0  0  0  0  0  0  0  0  0  0
  129.0980  126.3240   64.5890 C   0  0  0  0  0  0  0  0  0  0  0  0
  128.9710  126.2200   63.3700 O   0  0  0  0  0  0  0  0  0  0  0  0
  128.6490  127.4490   65.1900 N   0  0  0  0  0  0  0  0  0  0  0  0
  128.7940  127.8120   66.4990 C   0  0  0  0  0  0  0  0  0  0  0  0
  128.1200  129.2870   66.9260 S   0  0  0  0  0  0  0  0  0  0  0  0
  129.4960  126.9350   67.3290 N   0  0  0  0  0  0  0  0  0  0  0  0
  129.7380  127.2600   68.6920 C   0  0  0  0  0  0  0  0  0  0  0  0
  130.9940  127.7360   69.0910 C   0  0  0  0  0  0  0  0  0  0  0  0
  131.2300  128.0460   70.4310 C   0  0  0  0  0  0  0  0  0  0  0  0
  130.2160  127.8840   71.3750 C   0  0  0  0  0  0  0  0  0  0  0  0
  128.9640  127.4060   70.9830 C   0  0  0  0  0  0  0  0  0  0  0  0
  127.5840  127.1830   72.2750 Br  0  0  0  0  0  0  0  0  0  0  0  0
  128.7240  127.0920   69.6450 C   0  0  0  0  0  0  0  0  0  0  0  0
  130.0050  125.7180   66.9000 C   0  0  0  0  0  0  0  0  0  0  0  0
  130.6540  124.9710   67.6460 O   0  0  0  0  0  0  0  0  0  0  0  0
  130.9540  122.8560   63.1170 C   0  0  0  0  0  0  0  0  0  0  0  0
  130.7840  122.1930   61.9030 C   0  0  0  0  0  0  0  0  0  0  0  0
  132.1700  121.5210   61.1160 Cl  0  0  0  0  0  0  0  0  0  0  0  0
  129.5050  122.0800   61.3420 C   0  0  0  0  0  0  0  0  0  0  0  0
  129.3340  121.4310   60.1440 O   0  0  0  0  0  0  0  0  0  0  0  0
  126.0194  123.9640   62.2719 H   0  0  0  0  0  0  0  0  0  0  0  0
  126.8142  124.4030   60.7220 H   0  0  0  0  0  0  0  0  0  0  0  0
  125.3864  123.3131   60.7220 H   0  0  0  0  0  0  0  0  0  0  0  0
  127.7183  123.7020   63.7543 H   0  0  0  0  0  0  0  0  0  0  0  0
  130.6108  123.4938   65.8266 H   0  0  0  0  0  0  0  0  0  0  0  0
  128.1920  128.1440   64.6180 H   0  0  0  0  0  0  0  0  0  0  0  0
  131.7944  127.8654   68.3476 H   0  0  0  0  0  0  0  0  0  0  0  0
  132.2168  128.4185   70.7432 H   0  0  0  0  0  0  0  0  0  0  0  0
  130.4030  128.1332   72.4300 H   0  0  0  0  0  0  0  0  0  0  0  0
  127.7384  126.7123   69.3378 H   0  0  0  0  0  0  0  0  0  0  0  0
  131.9589  122.9363   63.5572 H   0  0  0  0  0  0  0  0  0  0  0  0
  128.4100  121.2640   59.9460 H   0  0  0  0  0  0  0  0  0  0  0  0
  1  2  1  0
  2  3  1  0
  3  4  2  0
  4  5  1  0
  5  6  1  0
  6  7  2  0
  7  8  1  0
  8  9  2  0
  8 10  1  0
 10 11  1  0
 11 12  2  0
 11 13  1  0
 13 14  1  0
 14 15  2  0
 15 16  1  0
 16 17  2  0
 17 18  1  0
 18 19  1  0
 18 20  2  0
 13 21  1  0
 21 22  2  0
  5 23  2  0
 23 24  1  0
 24 25  1  0
 24 26  2  0
 26 27  1  0
 26  3  1  0
 21  7  1  0
 20 14  1  0
  1 28  1  0
  1 29  1  0
  1 30  1  0
  4 31  1  0
  6 32  1  0
 10 33  1  0
 15 34  1  0
 16 35  1  0
 17 36  1  0
 20 37  1  0
 23 38  1  0
 27 39  1  0
M  END
>  <Binding energies>  (1) 
[-7.9]

>  <Ligand effiencies>  (1) 
[-0.27241379310344827]

>  <Interactions>  (1) 
["V-B:PRO:540:CA:9855, V-A:ARG:545:CA:4919, V-B:HIS:456:CD2:9039, V-A:GLU:543:C:4902, V-B:GLU:543:CB:9878, V-B:ALA:541:CB:9864, V-B:TYR:539:CE2:9848, V-A:TYR:484:CE2:4346, V-A:GLY:544:CA:4914, V-B:GLU:543:CG:9879, V-A:GLY:544:C:4912, H-B:GLU:543:OE1:9881, H-B:ALA:541:N:9863, V-A:GLU:543:CD:4908, V-B:PRO:540:CB:9857, V-B:HIS:456:CE1:9041, V-A:ARG:545:CG:4922, V-B:TYR:484:CZ:9318, V-A:HIS:456:CE1:4070, V-B:GLY:544:C:9884, V-B:TYR:539:CD2:9846, V-A:GLU:543:CG:4907, V-B:GLU:543:CD:9880, V-A:LEU:475:CD2:4259, H-A:GLU:543:OE1:4909, V-A:GLU:543:CB:4906, H-B:GLU:543:OE2:9882, H-B:TYR:539:O:9840, H-A:TYR:484:OH:4348"]

$$$$
ZINC852855-again1
     RDKit          3D

 37 39  0  0  0  0  0  0  0  0999 V2000
  126.0970  123.6450   61.2500 C   0  0  0  0  0  0  0  0  0  0  0  0
  126.8660  122.5010   61.6050 O   0  0  0  0  0  0  0  0  0  0  0  0
  128.1800  122.6520   62.0380 C   0  0  0  0  0  0  0  0  0  0  0  0
  128.5070  123.3950   63.1870 C   0  0  0  0  0  0  0  0  0  0  0  0
  129.8280  123.5510   63.6130 C   0  0  0  0  0  0  0  0  0  0  0  0
  130.1850  124.3070   64.8370 C   0  0  0  0  0  0  0  0  0  0  0  0
  129.8690  125.5730   65.2640 C   0  0  0  0  0  0  0  0  0  0  0  0
  130.2290  125.9210   66.6550 C   0  0  0  0  0  0  0  0  0  0  0  0
  131.0710  125.2760   67.2950 O   0  0  0  0  0  0  0  0  0  0  0  0
  129.5630  127.0220   67.1900 N   0  0  0  0  0  0  0  0  0  0  0  0
  129.7830  127.2570   68.5740 C   0  0  0  0  0  0  0  0  0  0  0  0
  131.0300  127.7140   69.0230 C   0  0  0  0  0  0  0  0  0  0  0  0
  131.2440  127.9320   70.3840 C   0  0  0  0  0  0  0  0  0  0  0  0
  130.2190  127.6930   71.3010 C   0  0  0  0  0  0  0  0  0  0  0  0
  128.9780  127.2340   70.8590 C   0  0  0  0  0  0  0  0  0  0  0  0
  127.5820  126.9060   72.1110 Br  0  0  0  0  0  0  0  0  0  0  0  0
  128.7580  127.0130   69.4990 C   0  0  0  0  0  0  0  0  0  0  0  0
  128.7430  127.8650   66.4220 C   0  0  0  0  0  0  0  0  0  0  0  0
  127.8750  129.1730   67.0160 S   0  0  0  0  0  0  0  0  0  0  0  0
  128.6570  127.6390   65.0520 N   0  0  0  0  0  0  0  0  0  0  0  0
  129.1660  126.6120   64.4920 C   0  0  0  0  0  0  0  0  0  0  0  0
  129.1600  126.6250   63.2500 O   0  0  0  0  0  0  0  0  0  0  0  0
  130.8410  122.9190   62.8940 C   0  0  0  0  0  0  0  0  0  0  0  0
  130.5600  122.1730   61.7510 C   0  0  0  0  0  0  0  0  0  0  0  0
  131.9140  121.4460   60.9340 Cl  0  0  0  0  0  0  0  0  0  0  0  0
  129.2260  122.0360   61.3120 C   0  0  0  0  0  0  0  0  0  0  0  0
  128.9600  121.3500   60.2620 O   0  0  0  0  0  0  0  0  0  0  0  0
  125.7546  124.1543   62.1629 H   0  0  0  0  0  0  0  0  0  0  0  0
  126.7164  124.3334   60.6564 H   0  0  0  0  0  0  0  0  0  0  0  0
  125.2257  123.3313   60.6564 H   0  0  0  0  0  0  0  0  0  0  0  0
  127.6994  123.8664   63.7663 H   0  0  0  0  0  0  0  0  0  0  0  0
  130.8244  123.7476   65.5358 H   0  0  0  0  0  0  0  0  0  0  0  0
  131.8396  127.9006   68.3021 H   0  0  0  0  0  0  0  0  0  0  0  0
  132.2220  128.2928   70.7352 H   0  0  0  0  0  0  0  0  0  0  0  0
  130.3901  127.8668   72.3736 H   0  0  0  0  0  0  0  0  0  0  0  0
  127.7802  126.6473   69.1525 H   0  0  0  0  0  0  0  0  0  0  0  0
  131.8826  123.0109   63.2354 H   0  0  0  0  0  0  0  0  0  0  0  0
  1  2  1  0
  2  3  1  0
  3  4  2  0
  4  5  1  0
  5  6  1  0
  6  7  2  0
  7  8  1  0
  8  9  2  0
  8 10  1  0
 10 11  1  0
 11 12  2  0
 12 13  1  0
 13 14  2  0
 14 15  1  0
 15 16  1  0
 15 17  2  0
 10 18  1  0
 18 19  2  0
 18 20  1  0
 20 21  2  0
 21 22  1  0
  5 23  2  0
 23 24  1  0
 24 25  1  0
 24 26  2  0
 26 27  1  0
 26  3  1  0
 21  7  1  0
 17 11  1  0
  1 28  1  0
  1 29  1  0
  1 30  1  0
  4 31  1  0
  6 32  1  0
 12 33  1  0
 13 34  1  0
 14 35  1  0
 17 36  1  0
 23 37  1  0
M  CHG  2  22  -1  27  -1
M  END
>  <Binding energies>  (1) 
[-6.0]

>  <Ligand effiencies>  (1) 
[-0.2222222222222222]

>  <Interactions>  (1) 
["V-B:PRO:540:CA:9855, V-A:ARG:545:CA:4919, V-B:HIS:456:CD2:9039, V-A:GLU:543:C:4902, V-B:ALA:541:CB:9864, V-B:TYR:539:CE2:9848, V-B:GLU:543:CG:9879, V-A:GLY:544:C:4912, V-B:LYS:547:CE:9922, H-B:ALA:541:N:9863, V-A:GLU:543:CD:4908, V-B:PRO:540:CB:9857, V-A:ARG:545:CG:4922, V-B:HIS:456:CE1:9041, V-B:TYR:484:CZ:9318, V-A:HIS:456:CE1:4070, V-B:GLY:544:C:9884, V-B:TYR:539:CD2:9846, V-A:GLU:543:CG:4907, V-B:GLY:544:CA:9886, V-B:GLU:543:CD:9880, V-A:LEU:475:CD2:4259, V-A:GLU:543:CB:4906, H-A:TYR:484:OH:4348"]

$$$$
ZINC85532124-again1
     RDKit          3D

 86 92  0  0  0  0  0  0  0  0999 V2000
  126.8620  127.0070   72.7330 C   0  0  0  0  0  0  0  0  0  0  0  0
  127.6740  126.6220   71.5080 C   0  0  0  0  0  0  0  0  0  0  0  0
  128.8240  125.6710   71.8040 C   0  0  0  0  0  0  0  0  0  0  0  0
  127.3600  127.1000   70.2850 C   0  0  0  0  0  0  0  0  0  0  0  0
  128.0590  126.8240   68.9540 C   0  0  0  0  0  0  0  0  0  0  0  0
  129.1820  127.8830   68.5530 C   0  0  1  0  0  0  0  0  0  0  0  0
  128.8770  129.0280   69.3710 O   0  0  0  0  0  0  0  0  0  0  0  0
  129.5050  128.7470   70.5780 C   0  0  0  0  0  0  0  0  0  0  0  0
  129.1980  129.3370   71.8030 C   0  0  0  0  0  0  0  0  0  0  0  0
  129.8630  128.8740   72.9430 C   0  0  0  0  0  0  0  0  0  0  0  0
  129.5730  129.4180   74.1670 O   0  0  0  0  0  0  0  0  0  0  0  0
  130.8190  127.8540   72.8450 C   0  0  0  0  0  0  0  0  0  0  0  0
  131.1450  127.2960   71.6030 C   0  0  0  0  0  0  0  0  0  0  0  0
  130.4840  127.7570   70.4620 C   0  0  0  0  0  0  0  0  0  0  0  0
  130.6560  127.5460   68.9830 C   0  0  2  0  0  0  0  0  0  0  0  0
  131.6960  128.3810   68.5030 O   0  0  0  0  0  0  0  0  0  0  0  0
  130.8610  126.2080   68.4490 O   0  0  0  0  0  0  0  0  0  0  0  0
  130.5800  126.0210   67.0690 C   0  0  0  0  0  0  0  0  0  0  0  0
  131.2450  124.9520   66.4830 C   0  0  0  0  0  0  0  0  0  0  0  0
  131.0890  124.6710   65.1290 C   0  0  0  0  0  0  0  0  0  0  0  0
  131.7820  123.5950   64.6400 O   0  0  0  0  0  0  0  0  0  0  0  0
  130.2460  125.4610   64.3190 C   0  0  0  0  0  0  0  0  0  0  0  0
  130.0340  125.1570   62.8120 C   0  0  1  0  0  0  0  0  0  0  0  0
  131.2680  125.2030   61.9030 C   0  0  0  0  0  0  0  0  0  0  0  0
  131.4280  124.4950   60.7620 C   0  0  0  0  0  0  0  0  0  0  0  0
  132.7000  124.5970   59.9400 C   0  0  0  0  0  0  0  0  0  0  0  0
  130.3900  123.4770   60.2800 C   0  0  0  0  0  0  0  0  0  0  0  0
  129.0140  123.6500   60.9920 C   0  0  2  0  0  0  0  0  0  0  0  0
  128.0460  124.6340   60.2960 C   0  0  0  0  0  0  0  0  0  0  0  0
  128.5400  125.6740   59.4920 C   0  0  0  0  0  0  0  0  0  0  0  0
  127.6760  126.5710   58.8640 C   0  0  0  0  0  0  0  0  0  0  0  0
  126.2990  126.4460   59.0330 C   0  0  0  0  0  0  0  0  0  0  0  0
  125.4510  127.3250   58.4140 O   0  0  0  0  0  0  0  0  0  0  0  0
  125.7900  125.4260   59.8330 C   0  0  0  0  0  0  0  0  0  0  0  0
  126.6510  124.5270   60.4650 C   0  0  0  0  0  0  0  0  0  0  0  0
  126.0950  123.5480   61.2470 O   0  0  0  0  0  0  0  0  0  0  0  0
  129.1480  123.8960   62.5260 C   0  0  1  0  0  0  0  0  0  0  0  0
  129.6370  122.6180   63.2730 C   0  0  0  0  0  0  0  0  0  0  0  0
  129.3520  122.4570   64.4600 O   0  0  0  0  0  0  0  0  0  0  0  0
  130.2990  121.5480   62.4430 C   0  0  0  0  0  0  0  0  0  0  0  0
  129.4850  120.4840   62.0240 C   0  0  0  0  0  0  0  0  0  0  0  0
  129.9750  119.4810   61.1910 C   0  0  0  0  0  0  0  0  0  0  0  0
  131.2930  119.5270   60.7510 C   0  0  0  0  0  0  0  0  0  0  0  0
  131.7730  118.5390   59.9330 O   0  0  0  0  0  0  0  0  0  0  0  0
  132.1220  120.5730   61.1450 C   0  0  0  0  0  0  0  0  0  0  0  0
  131.6440  121.5920   61.9800 C   0  0  0  0  0  0  0  0  0  0  0  0
  132.4810  122.5090   62.2920 O   0  0  0  0  0  0  0  0  0  0  0  0
  129.5510  126.5390   64.9120 C   0  0  0  0  0  0  0  0  0  0  0  0
  128.6970  127.2990   64.1470 O   0  0  0  0  0  0  0  0  0  0  0  0
  129.6960  126.8220   66.2830 C   0  0  0  0  0  0  0  0  0  0  0  0
  129.0580  128.0060   67.0010 C   0  0  0  0  0  0  0  0  0  0  0  0
  128.4660  128.9180   66.4220 O   0  0  0  0  0  0  0  0  0  0  0  0
  127.4216  126.7417   73.6421 H   0  0  0  0  0  0  0  0  0  0  0  0
  126.6730  128.0906   72.7219 H   0  0  0  0  0  0  0  0  0  0  0  0
  125.9035  126.4675   72.7219 H   0  0  0  0  0  0  0  0  0  0  0  0
  128.9457  125.5704   72.8926 H   0  0  0  0  0  0  0  0  0  0  0  0
  128.6065  124.6854   71.3667 H   0  0  0  0  0  0  0  0  0  0  0  0
  129.7513  126.0696   71.3667 H   0  0  0  0  0  0  0  0  0  0  0  0
  126.4912  127.7732   70.2408 H   0  0  0  0  0  0  0  0  0  0  0  0
  128.5308  125.8322   69.0151 H   0  0  0  0  0  0  0  0  0  0  0  0
  127.2820  126.8896   68.1781 H   0  0  0  0  0  0  0  0  0  0  0  0
  128.4537  130.1440   71.8712 H   0  0  0  0  0  0  0  0  0  0  0  0
  128.8810  130.0820   74.1240 H   0  0  0  0  0  0  0  0  0  0  0  0
  131.3188  127.4877   73.7539 H   0  0  0  0  0  0  0  0  0  0  0  0
  131.9087  126.5080   71.5270 H   0  0  0  0  0  0  0  0  0  0  0  0
  131.9032  124.3195   67.0967 H   0  0  0  0  0  0  0  0  0  0  0  0
  131.4680  122.7610   64.9970 H   0  0  0  0  0  0  0  0  0  0  0  0
  129.4572  126.0442   62.5118 H   0  0  0  0  0  0  0  0  0  0  0  0
  132.0916  125.8671   62.2040 H   0  0  0  0  0  0  0  0  0  0  0  0
  133.5671  124.6665   60.6133 H   0  0  0  0  0  0  0  0  0  0  0  0
  132.7991  123.7039   59.3055 H   0  0  0  0  0  0  0  0  0  0  0  0
  132.6556  125.4945   59.3055 H   0  0  0  0  0  0  0  0  0  0  0  0
  130.2461  123.6048   59.1970 H   0  0  0  0  0  0  0  0  0  0  0  0
  130.7683  122.4724   60.5201 H   0  0  0  0  0  0  0  0  0  0  0  0
  128.5237  122.6715   60.8821 H   0  0  0  0  0  0  0  0  0  0  0  0
  129.6260  125.7830   59.3553 H   0  0  0  0  0  0  0  0  0  0  0  0
  128.0820  127.3771   58.2353 H   0  0  0  0  0  0  0  0  0  0  0  0
  125.8910  128.1280   58.1290 H   0  0  0  0  0  0  0  0  0  0  0  0
  124.7027  125.3281   59.9678 H   0  0  0  0  0  0  0  0  0  0  0  0
  125.8980  123.8540   62.1340 H   0  0  0  0  0  0  0  0  0  0  0  0
  128.1491  124.1140   62.9318 H   0  0  0  0  0  0  0  0  0  0  0  0
  128.4386  120.4414   62.3604 H   0  0  0  0  0  0  0  0  0  0  0  0
  129.3198  118.6533   60.8816 H   0  0  0  0  0  0  0  0  0  0  0  0
  132.1430  117.8030   60.4260 H   0  0  0  0  0  0  0  0  0  0  0  0
  133.1651  120.6003   60.7968 H   0  0  0  0  0  0  0  0  0  0  0  0
  128.7120  128.2260   64.3980 H   0  0  0  0  0  0  0  0  0  0  0  0
  1  2  1  0
  2  3  1  0
  2  4  2  3
  4  5  1  0
  6  5  1  1
  6  7  1  0
  7  8  1  0
  8  9  2  0
  9 10  1  0
 10 11  1  0
 10 12  2  0
 12 13  1  0
 13 14  2  0
 14 15  1  0
 15 16  1  6
 15 17  1  0
 17 18  1  0
 18 19  2  0
 19 20  1  0
 20 21  1  0
 20 22  2  0
 22 23  1  0
 23 24  1  0
 24 25  2  0
 25 26  1  0
 25 27  1  0
 27 28  1  0
 28 29  1  0
 29 30  2  0
 30 31  1  0
 31 32  2  0
 32 33  1  0
 32 34  1  0
 34 35  2  0
 35 36  1  0
 28 37  1  0
 37 38  1  0
 38 39  2  0
 38 40  1  0
 40 41  2  0
 41 42  1  0
 42 43  2  0
 43 44  1  0
 43 45  1  0
 45 46  2  0
 46 47  1  0
 22 48  1  0
 48 49  1  0
 48 50  2  0
 50 51  1  0
 51 52  2  0
 15  6  1  0
 50 18  1  0
 51  6  1  0
 14  8  1  0
 37 23  1  0
 46 40  1  0
 35 29  1  0
  1 53  1  0
  1 54  1  0
  1 55  1  0
  3 56  1  0
  3 57  1  0
  3 58  1  0
  4 59  1  0
  5 60  1  0
  5 61  1  0
  9 62  1  0
 11 63  1  0
 12 64  1  0
 13 65  1  0
 19 66  1  0
 21 67  1  0
 23 68  1  6
 24 69  1  0
 26 70  1  0
 26 71  1  0
 26 72  1  0
 27 73  1  0
 27 74  1  0
 28 75  1  1
 30 76  1  0
 31 77  1  0
 33 78  1  0
 34 79  1  0
 36 80  1  0
 37 81  1  1
 41 82  1  0
 42 83  1  0
 44 84  1  0
 45 85  1  0
 49 86  1  0
M  CHG  2  16  -1  47  -1
M  END
>  <Binding energies>  (1) 
[-0.06]

>  <Ligand effiencies>  (1) 
[-0.0010344827586206897]

>  <Interactions>  (1) 
["V-B:HIS:456:CD2:9039, H-A:GLU:543:OE2:4910, V-A:GLU:543:C:4902, V-B:GLU:543:C:9874, V-B:GLU:543:CB:9878, V-B:ALA:541:CB:9864, V-B:ASP:366:CG:8184, V-B:TYR:539:CE2:9848, V-A:TYR:484:CE2:4346, V-A:GLY:544:C:4912, V-B:GLU:543:CG:9879, V-B:TYR:539:C:9839, V-A:ASP:366:CG:3213, H-A:ARG:545:N:4920, V-A:HIS:456:CD2:4068, H-B:GLU:543:OE1:9881, V-B:LYS:547:CE:9922, H-B:ALA:541:N:9863, V-A:GLU:543:CD:4908, V-A:TYR:484:CZ:4347, H-B:ASP:366:OD1:8185, V-B:HIS:456:CE1:9041, V-B:GLU:543:CA:9876, V-A:HIS:456:CE1:4070, V-B:GLY:544:C:9884, V-B:TYR:539:CD2:9846, V-A:GLU:543:CG:4907, V-B:GLY:544:CA:9886, H-A:SER:385:OG:3410, V-B:GLU:543:CD:9880, V-B:HIS:456:CG:9037, H-B:TYR:531:OH:9767, H-A:LYS:547:NZ:4951, V-A:LEU:475:CD2:4259, H-A:GLU:543:OE1:4909, V-A:GLU:543:CB:4906, H-A:HIS:383:HE2:3395, V-A:HIS:456:CG:4066, H-B:GLU:543:OE2:9882, V-B:PRO:540:C:9853, V-B:ALA:541:CA:9862, H-A:HIS:456:ND1:4067, H-A:TYR:484:OH:4348"]

$$$$
ZINC85593968-again1
     RDKit          3D

 84 91  0  0  0  0  0  0  0  0999 V2000
  131.5590  119.6410   61.2490 C   0  0  0  0  0  0  0  0  0  0  0  0
  130.5810  120.7900   61.1190 C   0  0  0  0  0  0  0  0  0  0  0  0
  129.3500  120.8420   61.6600 C   0  0  0  0  0  0  0  0  0  0  0  0
  128.4760  121.9970   61.4800 C   0  0  0  0  0  0  0  0  0  0  0  0
  127.3490  122.0500   61.9720 O   0  0  0  0  0  0  0  0  0  0  0  0
  129.0820  123.1060   60.6450 C   0  0  0  0  0  0  0  0  0  0  0  0
  128.4130  124.3180   60.3380 C   0  0  0  0  0  0  0  0  0  0  0  0
  127.1280  124.4860   60.7850 O   0  0  0  0  0  0  0  0  0  0  0  0
  129.0300  125.3370   59.5650 C   0  0  0  0  0  0  0  0  0  0  0  0
  130.3320  125.0740   59.1010 C   0  0  0  0  0  0  0  0  0  0  0  0
  130.9990  123.8890   59.3680 C   0  0  0  0  0  0  0  0  0  0  0  0
  130.3810  122.9210   60.1390 C   0  0  0  0  0  0  0  0  0  0  0  0
  131.1250  121.7800   60.3700 O   0  0  0  0  0  0  0  0  0  0  0  0
  131.0470  125.9980   58.3730 O   0  0  0  0  0  0  0  0  0  0  0  0
  131.0140  127.3260   58.9070 C   0  0  0  0  0  0  0  0  0  0  0  0
  131.6350  127.3280   60.3350 C   0  0  0  0  0  0  0  0  0  0  0  0
  131.8340  128.1730   57.9140 C   0  0  0  0  0  0  0  0  0  0  0  0
  129.5280  127.8130   58.9040 C   0  0  2  0  0  0  0  0  0  0  0  0
  129.3570  128.8960   59.8230 O   0  0  0  0  0  0  0  0  0  0  0  0
  129.0160  130.1420   59.4400 C   0  0  0  0  0  0  0  0  0  0  0  0
  129.3060  130.6740   58.3680 O   0  0  0  0  0  0  0  0  0  0  0  0
  128.1060  130.8230   60.4840 C   0  0  1  0  0  0  0  0  0  0  0  0
  128.7410  131.5520   61.5080 O   0  0  0  0  0  0  0  0  0  0  0  0
  128.1300  132.3370   60.5220 C   0  0  2  0  0  0  0  0  0  0  0  0
  126.9440  133.2110   60.9730 C   0  0  0  0  0  0  0  0  0  0  0  0
  126.1790  132.5760   62.1490 C   0  0  0  0  0  0  0  0  0  0  0  0
  127.1020  132.0870   63.2540 C   0  0  0  0  0  0  0  0  0  0  0  0
  128.3420  132.6960   63.4660 C   0  0  0  0  0  0  0  0  0  0  0  0
  129.1580  132.2140   64.4910 C   0  0  0  0  0  0  0  0  0  0  0  0
  130.4020  132.7950   64.7240 N   0  0  0  0  0  0  0  0  0  0  0  0
  128.7920  131.1830   65.2920 N   0  0  0  0  0  0  0  0  0  0  0  0
  127.5800  130.5900   65.0940 C   0  0  0  0  0  0  0  0  0  0  0  0
  127.2360  129.4550   66.0050 C   0  0  0  0  0  0  0  0  0  0  0  0
  125.9190  129.2460   66.4530 C   0  0  0  0  0  0  0  0  0  0  0  0
  125.6230  128.1800   67.3060 C   0  0  0  0  0  0  0  0  0  0  0  0
  126.6130  127.3540   67.6940 N   0  0  0  0  0  0  0  0  0  0  0  0
  127.8910  127.4980   67.3000 C   0  0  0  0  0  0  0  0  0  0  0  0
  128.8610  126.5820   67.7570 N   0  0  0  0  0  0  0  0  0  0  0  0
  128.2250  128.5540   66.4440 C   0  0  0  0  0  0  0  0  0  0  0  0
  126.7170  131.0220   64.0760 C   0  0  0  0  0  0  0  0  0  0  0  0
  126.8160  130.0250   60.9040 C   0  0  2  0  0  0  0  0  0  0  0  0
  127.1590  128.7920   61.7330 C   0  0  0  0  0  0  0  0  0  0  0  0
  127.2500  127.5490   61.2240 C   0  0  0  0  0  0  0  0  0  0  0  0
  127.0650  127.1950   59.7410 C   0  0  1  0  0  0  0  0  0  0  0  0
  126.4060  128.3590   58.9220 C   0  0  0  0  0  0  0  0  0  0  0  0
  125.9060  129.5850   59.7260 C   0  0  0  0  0  0  0  0  0  0  0  0
  128.4210  126.6950   59.1010 C   0  0  2  0  0  0  0  0  0  0  0  0
  131.7381  119.4306   62.3137 H   0  0  0  0  0  0  0  0  0  0  0  0
  131.1407  118.7468   60.7638 H   0  0  0  0  0  0  0  0  0  0  0  0
  132.5086  119.9111   60.7638 H   0  0  0  0  0  0  0  0  0  0  0  0
  128.9919  119.9891   62.2553 H   0  0  0  0  0  0  0  0  0  0  0  0
  127.0500  124.3560   61.7340 H   0  0  0  0  0  0  0  0  0  0  0  0
  132.0106  123.7197   58.9705 H   0  0  0  0  0  0  0  0  0  0  0  0
  130.8302  127.3254   61.0848 H   0  0  0  0  0  0  0  0  0  0  0  0
  132.2596  126.4319   60.4645 H   0  0  0  0  0  0  0  0  0  0  0  0
  132.2539  128.2281   60.4645 H   0  0  0  0  0  0  0  0  0  0  0  0
  132.4938  128.8545   58.4710 H   0  0  0  0  0  0  0  0  0  0  0  0
  132.4420  127.5098   57.2812 H   0  0  0  0  0  0  0  0  0  0  0  0
  131.1514  128.7592   57.2812 H   0  0  0  0  0  0  0  0  0  0  0  0
  129.3506  128.1603   57.8755 H   0  0  0  0  0  0  0  0  0  0  0  0
  128.3983  133.0994   59.7758 H   0  0  0  0  0  0  0  0  0  0  0  0
  127.3252  134.1942   61.2859 H   0  0  0  0  0  0  0  0  0  0  0  0
  126.2491  133.3072   60.1257 H   0  0  0  0  0  0  0  0  0  0  0  0
  125.4938  133.3268   62.5694 H   0  0  0  0  0  0  0  0  0  0  0  0
  125.6359  131.7025   61.7590 H   0  0  0  0  0  0  0  0  0  0  0  0
  128.6683  133.5380   62.8379 H   0  0  0  0  0  0  0  0  0  0  0  0
  131.0440  132.9260   63.9560 H   0  0  0  0  0  0  0  0  0  0  0  0
  130.6480  133.0710   65.6640 H   0  0  0  0  0  0  0  0  0  0  0  0
  125.1172  129.9262   66.1296 H   0  0  0  0  0  0  0  0  0  0  0  0
  124.5931  128.0173   67.6566 H   0  0  0  0  0  0  0  0  0  0  0  0
  126.3850  126.5890   68.3120 H   0  0  0  0  0  0  0  0  0  0  0  0
  128.6020  125.8540   68.4060 H   0  0  0  0  0  0  0  0  0  0  0  0
  129.8170  126.6500   67.4360 H   0  0  0  0  0  0  0  0  0  0  0  0
  129.2661  128.6807   66.1124 H   0  0  0  0  0  0  0  0  0  0  0  0
  125.7459  130.5278   63.9252 H   0  0  0  0  0  0  0  0  0  0  0  0
  126.2469  130.7515   61.5026 H   0  0  0  0  0  0  0  0  0  0  0  0
  127.3427  128.9259   62.8092 H   0  0  0  0  0  0  0  0  0  0  0  0
  127.4730  126.7275   61.9207 H   0  0  0  0  0  0  0  0  0  0  0  0
  126.3531  126.3579   59.6919 H   0  0  0  0  0  0  0  0  0  0  0  0
  127.1509  128.7184   58.1967 H   0  0  0  0  0  0  0  0  0  0  0  0
  125.5014  127.9199   58.4760 H   0  0  0  0  0  0  0  0  0  0  0  0
  125.8167  130.4330   59.0311 H   0  0  0  0  0  0  0  0  0  0  0  0
  124.9503  129.2815   60.1783 H   0  0  0  0  0  0  0  0  0  0  0  0
  128.0245  126.4369   58.1079 H   0  0  0  0  0  0  0  0  0  0  0  0
  1  2  1  0
  2  3  2  0
  3  4  1  0
  4  5  2  0
  4  6  1  0
  6  7  2  0
  7  8  1  0
  7  9  1  0
  9 10  2  0
 10 11  1  0
 11 12  2  0
 12 13  1  0
 10 14  1  0
 14 15  1  0
 15 16  1  0
 15 17  1  0
 15 18  1  0
 18 19  1  0
 19 20  1  0
 20 21  2  0
 20 22  1  0
 22 23  1  1
 23 24  1  0
 24 25  1  0
 25 26  1  0
 26 27  1  0
 27 28  2  0
 28 29  1  0
 29 30  1  0
 29 31  2  0
 31 32  1  0
 32 33  1  0
 33 34  2  0
 34 35  1  0
 35 36  2  0
 36 37  1  0
 37 38  1  0
 37 39  2  0
 32 40  2  0
 22 41  1  0
 41 42  1  0
 42 43  2  0
 43 44  1  0
 44 45  1  0
 45 46  1  0
 44 47  1  0
 13  2  1  0
 47 18  1  0
 12  6  1  0
 24 22  1  0
 40 27  1  0
 46 41  1  0
 47  9  1  0
 39 33  1  0
  1 48  1  0
  1 49  1  0
  1 50  1  0
  3 51  1  0
  8 52  1  0
 11 53  1  0
 16 54  1  0
 16 55  1  0
 16 56  1  0
 17 57  1  0
 17 58  1  0
 17 59  1  0
 18 60  1  6
 24 61  1  6
 25 62  1  0
 25 63  1  0
 26 64  1  0
 26 65  1  0
 28 66  1  0
 30 67  1  0
 30 68  1  0
 34 69  1  0
 35 70  1  0
 36 71  1  0
 38 72  1  0
 38 73  1  0
 39 74  1  0
 40 75  1  0
 41 76  1  1
 42 77  1  0
 43 78  1  0
 44 79  1  1
 45 80  1  0
 45 81  1  0
 46 82  1  0
 46 83  1  0
 47 84  1  6
M  CHG  1  36   1
M  END
>  <Binding energies>  (1) 
[2.34]

>  <Ligand effiencies>  (1) 
[0.042545454545454546]

>  <Interactions>  (1) 
["V-B:PRO:540:CA:9855, V-A:GLU:543:CA:4904, V-A:ALA:541:C:4888, H-A:GLU:543:OE2:4910, H-B:GLU:543:O:9875, V-B:GLU:543:CB:9878, H-A:ALA:541:O:4889, V-B:ALA:541:CB:9864, V-B:ASP:366:CG:8184, H-A:TYR:531:OH:4795, V-B:TYR:539:CE2:9848, V-A:LEU:475:CG:4257, V-B:LEU:475:CD2:9230, V-B:GLU:543:CG:9879, V-A:ASP:366:CG:3213, V-B:ARG:545:CD:9895, V-A:TYR:539:CD1:4873, V-B:TYR:484:CE2:9317, V-B:TYR:539:CZ:9849, H-B:GLU:543:OE1:9881, V-A:TYR:531:CE2:4793, H-B:TYR:539:OH:9850, V-A:ALA:541:CB:4892, V-B:ARG:545:CG:9894, H-B:ALA:541:N:9863, V-A:GLU:543:CD:4908, H-B:TYR:484:OH:9319, V-A:VAL:542:C:4894, V-B:HIS:456:CE1:9041, V-B:TYR:484:CZ:9318, V-A:ALA:541:CA:4890, H-A:VAL:542:O:4895, V-B:TYR:539:CD2:9846, V-A:TYR:531:CZ:4794, V-A:SER:385:CB:3409, V-A:GLU:543:CG:4907, V-B:GLU:543:CD:9880, V-A:ASP:366:CB:3212, V-A:LEU:475:CD2:4259, H-A:GLU:543:OE1:4909, V-A:GLU:543:CB:4906, H-B:GLU:543:OE2:9882, V-B:PRO:540:C:9853, V-B:ALA:541:CA:9862, V-A:TYR:539:CE1:4875"]

$$$$
ZINC85594610-again1
     RDKit          3D

 94101  0  0  0  0  0  0  0  0999 V2000
  132.5550  121.7570   61.6000 C   0  0  0  0  0  0  0  0  0  0  0  0
  131.2470  122.2750   61.0310 C   0  0  0  0  0  0  0  0  0  0  0  0
  130.0510  121.6310   60.9850 C   0  0  0  0  0  0  0  0  0  0  0  0
  129.8020  120.2400   61.5710 C   0  0  0  0  0  0  0  0  0  0  0  0
  128.8550  122.2670   60.3810 C   0  0  0  0  0  0  0  0  0  0  0  0
  127.7230  122.1260   60.8470 O   0  0  0  0  0  0  0  0  0  0  0  0
  129.1290  123.0240   59.2710 O   0  0  0  0  0  0  0  0  0  0  0  0
  128.4020  124.1890   58.8200 C   0  0  2  0  0  0  0  0  0  0  0  0
  126.9230  123.7300   58.6590 C   0  0  0  0  0  0  0  0  0  0  0  0
  128.9500  124.7830   57.4830 C   0  0  0  0  0  0  0  0  0  0  0  0
  128.4730  126.2150   57.2700 C   0  0  0  0  0  0  0  0  0  0  0  0
  127.9350  127.0140   58.2190 C   0  0  0  0  0  0  0  0  0  0  0  0
  127.3250  128.3530   57.8070 C   0  0  0  0  0  0  0  0  0  0  0  0
  126.0060  128.9300   58.9170 S   0  0  0  0  0  0  0  0  0  0  0  0
  125.7620  130.8940   58.4060 S   0  0  0  0  0  0  0  0  0  0  0  0
  126.4170  131.9820   59.7380 C   0  0  0  0  0  0  0  0  0  0  0  0
  126.4160  131.1250   61.0350 C   0  0  0  0  0  0  0  0  0  0  0  0
  126.9160  131.9290   62.2590 C   0  0  0  0  0  0  0  0  0  0  0  0
  126.0920  133.2220   62.4690 C   0  0  0  0  0  0  0  0  0  0  0  0
  125.9010  134.0520   61.1770 C   0  0  0  0  0  0  0  0  0  0  0  0
  125.4340  133.1610   60.0040 C   0  0  0  0  0  0  0  0  0  0  0  0
  127.8640  132.4870   59.3800 C   0  0  1  0  0  0  0  0  0  0  0  0
  128.6770  133.2210   60.4700 C   0  0  0  0  0  0  0  0  0  0  0  0
  129.7370  132.0950   60.4770 C   0  0  0  0  0  0  0  0  0  0  0  0
  128.9440  131.4720   59.3870 N   0  0  0  0  0  0  0  0  0  0  0  0
  129.1870  130.4210   58.5840 C   0  0  0  0  0  0  0  0  0  0  0  0
  129.1750  130.5310   57.3580 O   0  0  0  0  0  0  0  0  0  0  0  0
  129.6000  129.0850   59.2220 C   0  0  0  0  0  0  0  0  0  0  0  0
  128.8290  128.8240   60.5220 C   0  0  0  0  0  0  0  0  0  0  0  0
  128.9290  129.7890   61.5360 C   0  0  0  0  0  0  0  0  0  0  0  0
  128.3160  129.5980   62.7170 N   0  0  0  0  0  0  0  0  0  0  0  0
  127.5910  128.5040   63.0000 C   0  0  0  0  0  0  0  0  0  0  0  0
  126.9880  128.3880   64.2700 N   0  0  0  0  0  0  0  0  0  0  0  0
  127.4510  127.5140   62.0270 C   0  0  0  0  0  0  0  0  0  0  0  0
  128.0560  127.6580   60.7650 C   0  0  0  0  0  0  0  0  0  0  0  0
  127.8210  126.5640   59.6950 C   0  0  2  0  0  0  0  0  0  0  0  0
  128.6590  125.2440   59.9540 C   0  0  2  0  0  0  0  0  0  0  0  0
  130.1790  125.5130   60.2180 C   0  0  0  0  0  0  0  0  0  0  0  0
  130.2780  125.4230   61.7050 C   0  0  0  0  0  0  0  0  0  0  0  0
  131.3310  125.6570   62.5900 C   0  0  0  0  0  0  0  0  0  0  0  0
  131.1450  125.3840   63.9510 C   0  0  0  0  0  0  0  0  0  0  0  0
  132.1820  125.6130   64.9560 C   0  0  0  0  0  0  0  0  0  0  0  0
  131.9760  125.3320   66.2570 C   0  0  0  0  0  0  0  0  0  0  0  0
  130.6920  124.7800   66.7210 C   0  0  0  0  0  0  0  0  0  0  0  0
  130.3890  124.4880   67.8750 O   0  0  0  0  0  0  0  0  0  0  0  0
  129.7120  124.5670   65.7540 O   0  0  0  0  0  0  0  0  0  0  0  0
  129.9260  124.8550   64.4100 C   0  0  0  0  0  0  0  0  0  0  0  0
  128.8840  124.5960   63.5150 C   0  0  0  0  0  0  0  0  0  0  0  0
  129.0890  124.8920   62.1710 C   0  0  0  0  0  0  0  0  0  0  0  0
  128.1560  124.6940   61.1850 O   0  0  0  0  0  0  0  0  0  0  0  0
  132.5095  121.7750   62.6989 H   0  0  0  0  0  0  0  0  0  0  0  0
  132.7211  120.7252   61.2568 H   0  0  0  0  0  0  0  0  0  0  0  0
  133.3825  122.3953   61.2568 H   0  0  0  0  0  0  0  0  0  0  0  0
  131.2695  123.2895   60.6065 H   0  0  0  0  0  0  0  0  0  0  0  0
  129.8123  120.2977   62.6694 H   0  0  0  0  0  0  0  0  0  0  0  0
  128.8232  119.8693   61.2325 H   0  0  0  0  0  0  0  0  0  0  0  0
  130.5914  119.5528   61.2325 H   0  0  0  0  0  0  0  0  0  0  0  0
  126.4723  123.5901   59.6526 H   0  0  0  0  0  0  0  0  0  0  0  0
  126.3597  124.4956   58.1053 H   0  0  0  0  0  0  0  0  0  0  0  0
  126.8921  122.7800   58.1053 H   0  0  0  0  0  0  0  0  0  0  0  0
  130.0496  124.7732   57.5119 H   0  0  0  0  0  0  0  0  0  0  0  0
  128.5742  124.1673   56.6525 H   0  0  0  0  0  0  0  0  0  0  0  0
  128.5751  126.6341   56.2581 H   0  0  0  0  0  0  0  0  0  0  0  0
  128.1238  129.1091   57.7950 H   0  0  0  0  0  0  0  0  0  0  0  0
  126.8694  128.2066   56.8165 H   0  0  0  0  0  0  0  0  0  0  0  0
  125.3905  130.7790   61.2317 H   0  0  0  0  0  0  0  0  0  0  0  0
  127.0989  130.2762   60.8829 H   0  0  0  0  0  0  0  0  0  0  0  0
  126.8292  131.3009   63.1579 H   0  0  0  0  0  0  0  0  0  0  0  0
  127.9627  132.2147   62.0777 H   0  0  0  0  0  0  0  0  0  0  0  0
  125.0996  132.9433   62.8531 H   0  0  0  0  0  0  0  0  0  0  0  0
  126.6531  133.8506   63.1761 H   0  0  0  0  0  0  0  0  0  0  0  0
  125.1455  134.8305   61.3591 H   0  0  0  0  0  0  0  0  0  0  0  0
  126.8669  134.5042   60.9077 H   0  0  0  0  0  0  0  0  0  0  0  0
  124.4426  132.7493   60.2439 H   0  0  0  0  0  0  0  0  0  0  0  0
  125.3982  133.7839   59.0981 H   0  0  0  0  0  0  0  0  0  0  0  0
  127.5370  133.0044   58.4660 H   0  0  0  0  0  0  0  0  0  0  0  0
  129.0681  134.1984   60.1510 H   0  0  0  0  0  0  0  0  0  0  0  0
  128.1888  133.5193   61.4095 H   0  0  0  0  0  0  0  0  0  0  0  0
  130.7506  132.4113   60.1898 H   0  0  0  0  0  0  0  0  0  0  0  0
  130.0098  131.5492   61.3923 H   0  0  0  0  0  0  0  0  0  0  0  0
  129.3921  128.2702   58.5128 H   0  0  0  0  0  0  0  0  0  0  0  0
  130.6731  129.1315   59.4592 H   0  0  0  0  0  0  0  0  0  0  0  0
  129.5117  130.7059   61.3636 H   0  0  0  0  0  0  0  0  0  0  0  0
  128.4140  130.3060   63.4290 H   0  0  0  0  0  0  0  0  0  0  0  0
  126.2600  129.0320   64.5450 H   0  0  0  0  0  0  0  0  0  0  0  0
  127.2780  127.6590   64.9050 H   0  0  0  0  0  0  0  0  0  0  0  0
  126.8618  126.6120   62.2487 H   0  0  0  0  0  0  0  0  0  0  0  0
  126.7551  126.3314   59.8355 H   0  0  0  0  0  0  0  0  0  0  0  0
  130.8063  124.7510   59.7324 H   0  0  0  0  0  0  0  0  0  0  0  0
  130.5268  126.4761   59.8161 H   0  0  0  0  0  0  0  0  0  0  0  0
  132.2915  126.0495   62.2247 H   0  0  0  0  0  0  0  0  0  0  0  0
  133.1528  126.0243   64.6423 H   0  0  0  0  0  0  0  0  0  0  0  0
  132.7797  125.5178   66.9846 H   0  0  0  0  0  0  0  0  0  0  0  0
  127.9308  124.1711   63.8627 H   0  0  0  0  0  0  0  0  0  0  0  0
  1  2  1  0
  2  3  2  0
  3  4  1  0
  3  5  1  0
  5  6  2  0
  5  7  1  0
  8  7  1  1
  8  9  1  0
  8 10  1  0
 10 11  1  0
 11 12  2  0
 12 13  1  0
 13 14  1  0
 14 15  1  0
 15 16  1  0
 16 17  1  0
 17 18  1  0
 18 19  1  0
 19 20  1  0
 20 21  1  0
 16 22  1  0
 22 23  1  0
 23 24  1  0
 24 25  1  0
 25 26  1  0
 26 27  2  0
 26 28  1  0
 28 29  1  0
 29 30  2  0
 30 31  1  0
 31 32  2  0
 32 33  1  0
 32 34  1  0
 34 35  2  0
 35 36  1  0
 36 37  1  0
 37 38  1  0
 38 39  1  0
 39 40  2  0
 40 41  1  0
 41 42  1  0
 42 43  2  0
 43 44  1  0
 44 45  2  0
 44 46  1  0
 46 47  1  0
 47 48  1  0
 48 49  2  0
 49 50  1  0
 37  8  1  0
 49 39  1  0
 36 12  1  0
 37 50  1  1
 21 16  1  0
 25 22  1  0
 35 29  1  0
 47 41  2  0
  1 51  1  0
  1 52  1  0
  1 53  1  0
  2 54  1  0
  4 55  1  0
  4 56  1  0
  4 57  1  0
  9 58  1  0
  9 59  1  0
  9 60  1  0
 10 61  1  0
 10 62  1  0
 11 63  1  0
 13 64  1  0
 13 65  1  0
 17 66  1  0
 17 67  1  0
 18 68  1  0
 18 69  1  0
 19 70  1  0
 19 71  1  0
 20 72  1  0
 20 73  1  0
 21 74  1  0
 21 75  1  0
 22 76  1  6
 23 77  1  0
 23 78  1  0
 24 79  1  0
 24 80  1  0
 28 81  1  0
 28 82  1  0
 30 83  1  0
 31 84  1  0
 33 85  1  0
 33 86  1  0
 34 87  1  0
 36 88  1  6
 38 89  1  0
 38 90  1  0
 40 91  1  0
 42 92  1  0
 43 93  1  0
 48 94  1  0
M  CHG  1  31   1
M  END
>  <Binding energies>  (1) 
[-6.39]

>  <Ligand effiencies>  (1) 
[-0.11618181818181818]

>  <Interactions>  (1) 
["V-B:PRO:540:CA:9855, V-B:ALA:541:CB:9864, V-B:TYR:539:CE2:9848, V-A:TYR:484:CE2:4346, V-B:GLU:543:CG:9879, V-B:LEU:475:CD2:9230, V-B:TYR:539:C:9839, V-A:TYR:539:CD1:4873, V-B:TYR:539:CZ:9849, H-B:GLU:543:OE1:9881, H-B:ALA:541:N:9863, V-A:TYR:484:CZ:4347, V-A:GLU:543:CD:4908, H-B:TYR:484:OH:9319, V-B:ILE:369:CG2:8208, V-A:HIS:456:CE1:4070, V-B:TYR:539:CD2:9846, V-B:GLU:543:CD:9880, V-A:TYR:539:C:4867, H-B:TYR:531:OH:9767, V-A:LEU:475:CD2:4259, V-A:ARG:545:CZ:4926, H-A:GLU:543:OE1:4909, V-A:PRO:540:N:4884, H-B:GLU:543:OE2:9882, V-A:PRO:540:CA:4883, V-A:TYR:539:CE1:4875, H-A:TYR:484:OH:4348"]

$$$$
ZINC85595507
     RDKit          3D

 84 88  0  0  0  0  0  0  0  0999 V2000
  128.6300  122.5340   62.5860 C   0  0  0  0  0  0  0  0  0  0  0  0
  127.8580  122.3980   61.3980 O   0  0  0  0  0  0  0  0  0  0  0  0
  127.5800  123.5200   60.6340 C   0  0  0  0  0  0  0  0  0  0  0  0
  127.1870  124.7570   61.1750 C   0  0  0  0  0  0  0  0  0  0  0  0
  126.9160  125.8580   60.3520 C   0  0  0  0  0  0  0  0  0  0  0  0
  126.4720  127.2070   60.9340 C   0  0  2  0  0  0  0  0  0  0  0  0
  126.7890  128.3880   59.9710 C   0  0  0  0  0  0  0  0  0  0  0  0
  126.1360  129.7620   60.2840 C   0  0  2  0  0  0  0  0  0  0  0  0
  126.7670  130.7780   59.5010 O   0  0  0  0  0  0  0  0  0  0  0  0
  127.6700  130.4930   58.5350 C   0  0  0  0  0  0  0  0  0  0  0  0
  127.9000  129.3810   58.0560 O   0  0  0  0  0  0  0  0  0  0  0  0
  128.4010  131.7430   58.0410 C   0  0  0  0  0  0  0  0  0  0  0  0
  129.8810  131.6380   58.3810 C   0  0  0  0  0  0  0  0  0  0  0  0
  130.8470  131.8620   57.3960 C   0  0  0  0  0  0  0  0  0  0  0  0
  132.2020  131.7760   57.7120 C   0  0  0  0  0  0  0  0  0  0  0  0
  132.5980  131.4710   59.0130 C   0  0  0  0  0  0  0  0  0  0  0  0
  131.6440  131.2480   60.0120 C   0  0  0  0  0  0  0  0  0  0  0  0
  132.1270  130.9220   61.4240 C   0  0  0  0  0  0  0  0  0  0  0  0
  131.7670  131.8560   62.4240 O   0  0  0  0  0  0  0  0  0  0  0  0
  130.2830  131.3360   59.6870 C   0  0  0  0  0  0  0  0  0  0  0  0
  126.2080  130.2470   61.7510 C   0  0  0  0  0  0  0  0  0  0  0  0
  127.6380  130.5720   62.2880 C   0  0  1  0  0  0  0  0  0  0  0  0
  127.6410  131.8090   63.0090 O   0  0  0  0  0  0  0  0  0  0  0  0
  128.7160  132.6330   63.0170 C   0  0  0  0  0  0  0  0  0  0  0  0
  128.6020  133.7390   61.9760 C   0  0  0  0  0  0  0  0  0  0  0  0
  129.6940  132.5510   63.7600 O   0  0  0  0  0  0  0  0  0  0  0  0
  128.2910  129.4930   63.2080 C   0  0  1  0  0  0  0  0  0  0  0  0
  127.7370  129.4690   64.6580 C   0  0  0  0  0  0  0  0  0  0  0  0
  128.3160  128.3430   65.5190 C   0  0  0  0  0  0  0  0  0  0  0  0
  128.1180  128.3650   66.9040 C   0  0  0  0  0  0  0  0  0  0  0  0
  128.5570  127.3220   67.7350 C   0  0  0  0  0  0  0  0  0  0  0  0
  128.3800  127.2980   69.1080 O   0  0  0  0  0  0  0  0  0  0  0  0
  129.4260  127.7600   69.9550 C   0  0  0  0  0  0  0  0  0  0  0  0
  129.2030  126.2340   67.1460 C   0  0  0  0  0  0  0  0  0  0  0  0
  129.6450  125.1860   67.9130 O   0  0  0  0  0  0  0  0  0  0  0  0
  129.4170  126.2020   65.7700 C   0  0  0  0  0  0  0  0  0  0  0  0
  128.9950  127.2470   64.9420 C   0  0  0  0  0  0  0  0  0  0  0  0
  129.3170  127.2120   63.4480 C   0  0  0  0  0  0  0  0  0  0  0  0
  128.3500  128.0640   62.5950 C   0  0  1  0  0  0  0  0  0  0  0  0
  126.9710  127.3620   62.3980 C   0  0  0  0  0  0  0  0  0  0  0  0
  127.0390  125.7110   58.9660 C   0  0  0  0  0  0  0  0  0  0  0  0
  127.4300  124.4940   58.4160 C   0  0  0  0  0  0  0  0  0  0  0  0
  127.7020  123.4040   59.2430 C   0  0  0  0  0  0  0  0  0  0  0  0
  128.0870  122.2180   58.6720 O   0  0  0  0  0  0  0  0  0  0  0  0
  127.9764  122.4189   63.4632 H   0  0  0  0  0  0  0  0  0  0  0  0
  129.4110  121.7596   62.6065 H   0  0  0  0  0  0  0  0  0  0  0  0
  129.0993  123.5287   62.6065 H   0  0  0  0  0  0  0  0  0  0  0  0
  127.0904  124.8623   62.2657 H   0  0  0  0  0  0  0  0  0  0  0  0
  125.3749  127.2346   61.0096 H   0  0  0  0  0  0  0  0  0  0  0  0
  127.8794  128.5327   59.9745 H   0  0  0  0  0  0  0  0  0  0  0  0
  126.3582  128.0860   59.0050 H   0  0  0  0  0  0  0  0  0  0  0  0
  125.0734  129.5987   60.0510 H   0  0  0  0  0  0  0  0  0  0  0  0
  128.2812  131.8302   56.9510 H   0  0  0  0  0  0  0  0  0  0  0  0
  127.9762  132.6316   58.5308 H   0  0  0  0  0  0  0  0  0  0  0  0
  130.5374  132.1067   56.3692 H   0  0  0  0  0  0  0  0  0  0  0  0
  132.9596  131.9491   56.9335 H   0  0  0  0  0  0  0  0  0  0  0  0
  133.6687  131.4051   59.2563 H   0  0  0  0  0  0  0  0  0  0  0  0
  131.7091  129.9447   61.7075 H   0  0  0  0  0  0  0  0  0  0  0  0
  133.2259  130.9392   61.3777 H   0  0  0  0  0  0  0  0  0  0  0  0
  131.3810  131.3770   63.1620 H   0  0  0  0  0  0  0  0  0  0  0  0
  129.5245  131.1662   60.4654 H   0  0  0  0  0  0  0  0  0  0  0  0
  125.5999  131.1598   61.8353 H   0  0  0  0  0  0  0  0  0  0  0  0
  125.8419  129.4087   62.3620 H   0  0  0  0  0  0  0  0  0  0  0  0
  128.2442  130.6152   61.3712 H   0  0  0  0  0  0  0  0  0  0  0  0
  128.5019  134.7103   62.4825 H   0  0  0  0  0  0  0  0  0  0  0  0
  129.5043  133.7448   61.3469 H   0  0  0  0  0  0  0  0  0  0  0  0
  127.7175  133.5606   61.3469 H   0  0  0  0  0  0  0  0  0  0  0  0
  129.3338  129.8362   63.2777 H   0  0  0  0  0  0  0  0  0  0  0  0
  127.9754  130.4302   65.1369 H   0  0  0  0  0  0  0  0  0  0  0  0
  126.6535  129.2939   64.5855 H   0  0  0  0  0  0  0  0  0  0  0  0
  127.6027  129.2256   67.3554 H   0  0  0  0  0  0  0  0  0  0  0  0
  129.1309  127.6296   71.0066 H   0  0  0  0  0  0  0  0  0  0  0  0
  130.3407  127.1822   69.7566 H   0  0  0  0  0  0  0  0  0  0  0  0
  129.6150  128.8253   69.7566 H   0  0  0  0  0  0  0  0  0  0  0  0
  129.1790  125.1240   68.7490 H   0  0  0  0  0  0  0  0  0  0  0  0
  129.9290  125.3361   65.3250 H   0  0  0  0  0  0  0  0  0  0  0  0
  130.3389  127.5920   63.3019 H   0  0  0  0  0  0  0  0  0  0  0  0
  129.2118  126.1686   63.1160 H   0  0  0  0  0  0  0  0  0  0  0  0
  128.7223  128.1682   61.5652 H   0  0  0  0  0  0  0  0  0  0  0  0
  127.0439  126.3548   62.8342 H   0  0  0  0  0  0  0  0  0  0  0  0
  126.2377  128.0207   62.8862 H   0  0  0  0  0  0  0  0  0  0  0  0
  126.8249  126.5644   58.3058 H   0  0  0  0  0  0  0  0  0  0  0  0
  127.5250  124.3911   57.3249 H   0  0  0  0  0  0  0  0  0  0  0  0
  128.1990  121.5120   59.3130 H   0  0  0  0  0  0  0  0  0  0  0  0
  1  2  1  0
  2  3  1  0
  3  4  2  0
  4  5  1  0
  5  6  1  0
  6  7  1  0
  7  8  1  0
  8  9  1  0
  9 10  1  0
 10 11  2  0
 10 12  1  0
 12 13  1  0
 13 14  2  0
 14 15  1  0
 15 16  2  0
 16 17  1  0
 17 18  1  0
 18 19  1  0
 17 20  2  0
  8 21  1  0
 21 22  1  0
 22 23  1  0
 23 24  1  0
 24 25  1  0
 24 26  2  0
 22 27  1  0
 27 28  1  0
 28 29  1  0
 29 30  2  0
 30 31  1  0
 31 32  1  0
 32 33  1  0
 31 34  2  0
 34 35  1  0
 34 36  1  0
 36 37  2  0
 37 38  1  0
 38 39  1  0
 39 40  1  0
  5 41  2  0
 41 42  1  0
 42 43  2  0
 43 44  1  0
 43  3  1  0
 40  6  1  0
 20 13  1  0
 39 27  1  0
 37 29  1  0
  1 45  1  0
  1 46  1  0
  1 47  1  0
  4 48  1  0
  6 49  1  1
  7 50  1  0
  7 51  1  0
  8 52  1  6
 12 53  1  0
 12 54  1  0
 14 55  1  0
 15 56  1  0
 16 57  1  0
 18 58  1  0
 18 59  1  0
 19 60  1  0
 20 61  1  0
 21 62  1  0
 21 63  1  0
 22 64  1  6
 25 65  1  0
 25 66  1  0
 25 67  1  0
 27 68  1  1
 28 69  1  0
 28 70  1  0
 30 71  1  0
 33 72  1  0
 33 73  1  0
 33 74  1  0
 35 75  1  0
 36 76  1  0
 38 77  1  0
 38 78  1  0
 39 79  1  6
 40 80  1  0
 40 81  1  0
 41 82  1  0
 42 83  1  0
 44 84  1  0
M  END
>  <Binding energies>  (1) 
[-5.09]

>  <Ligand effiencies>  (1) 
[-0.10387755102040816]

>  <Interactions>  (1) 
["V-B:PRO:540:CA:9855, H-B:GLU:543:O:9875, H-A:ALA:541:N:4891, V-B:GLU:543:CB:9878, V-A:PRO:540:C:4881, H-A:ALA:541:O:4889, V-B:ASP:366:CG:8184, V-B:ALA:541:CB:9864, V-B:GLU:543:CG:9879, V-A:LEU:363:CD1:3189, V-A:ALA:541:CB:4892, H-B:ALA:541:N:9863, V-A:GLU:543:CD:4908, V-B:HIS:456:CE1:9041, V-A:HIS:456:CE1:4070, V-A:GLU:543:CG:4907, V-B:GLU:543:CD:9880, H-A:GLU:543:OE1:4909, V-A:GLU:543:CB:4906, V-A:PRO:540:CB:4885, V-A:PRO:540:CA:4883, H-B:TYR:539:O:9840, H-A:HIS:456:NE2:4071"]

$$$$
ZINC85596987
     RDKit          3D

105114  0  0  0  0  0  0  0  0999 V2000
  132.8570  133.8540   56.3990 C   0  0  0  0  0  0  0  0  0  0  0  0
  132.0710  132.8170   57.1790 C   0  0  0  0  0  0  0  0  0  0  0  0
  130.9110  133.3850   57.9860 C   0  0  0  0  0  0  0  0  0  0  0  0
  132.3950  131.5070   57.1330 C   0  0  0  0  0  0  0  0  0  0  0  0
  131.6880  130.3950   57.8760 C   0  0  1  0  0  0  0  0  0  0  0  0
  130.9050  130.9690   58.8910 O   0  0  0  0  0  0  0  0  0  0  0  0
  130.2650  129.9570   59.6680 C   0  0  1  0  0  0  0  0  0  0  0  0
  129.4890  130.6130   60.8210 C   0  0  1  0  0  0  0  0  0  0  0  0
  128.1720  131.0220   60.5620 O   0  0  0  0  0  0  0  0  0  0  0  0
  128.2920  129.8400   61.3230 C   0  0  1  0  0  0  0  0  0  0  0  0
  127.9380  128.4780   60.6130 C   0  0  2  0  0  0  0  0  0  0  0  0
  127.8690  127.2160   61.5110 C   0  0  0  0  0  0  0  0  0  0  0  0
  127.3420  127.5160   62.9290 C   0  0  0  0  0  0  0  0  0  0  0  0
  128.0790  128.6980   63.6500 C   0  0  1  0  0  0  0  0  0  0  0  0
  129.6170  128.3810   63.6170 C   0  0  0  0  0  0  0  0  0  0  0  0
  127.7870  130.0180   62.7980 C   0  0  2  0  0  0  0  0  0  0  0  0
  126.3880  130.2010   62.6290 O   0  0  0  0  0  0  0  0  0  0  0  0
  128.2680  131.3090   63.5490 C   0  0  0  0  0  0  0  0  0  0  0  0
  127.7420  131.4270   65.0030 C   0  0  0  0  0  0  0  0  0  0  0  0
  128.1630  130.1580   65.7580 C   0  0  1  0  0  0  0  0  0  0  0  0
  128.0160  130.0370   67.2850 C   0  0  0  0  0  0  0  0  0  0  0  0
  128.2420  128.5440   67.4310 C   0  0  0  0  0  0  0  0  0  0  0  0
  128.0440  127.9250   66.2160 C   0  0  0  0  0  0  0  0  0  0  0  0
  128.2810  126.5810   66.3310 N   0  0  0  0  0  0  0  0  0  0  0  0
  128.6360  126.2920   67.6350 C   0  0  0  0  0  0  0  0  0  0  0  0
  128.9700  125.0800   68.2320 C   0  0  0  0  0  0  0  0  0  0  0  0
  129.2620  125.1060   69.5920 C   0  0  0  0  0  0  0  0  0  0  0  0
  129.2280  126.2780   70.3620 C   0  0  0  0  0  0  0  0  0  0  0  0
  128.9210  127.5180   69.7460 C   0  0  0  0  0  0  0  0  0  0  0  0
  128.6080  127.5200   68.3720 C   0  0  0  0  0  0  0  0  0  0  0  0
  128.9060  128.8260   70.5440 C   0  0  0  0  0  0  0  0  0  0  0  0
  129.7940  128.7020   71.7960 C   0  0  2  0  0  0  0  0  0  0  0  0
  129.4140  127.4960   72.6250 C   0  0  1  0  0  0  0  0  0  0  0  0
  129.5420  126.1770   71.8360 C   0  0  0  0  0  0  0  0  0  0  0  0
  129.8730  125.1120   72.3620 O   0  0  0  0  0  0  0  0  0  0  0  0
  130.2010  127.7270   73.9330 C   0  0  0  0  0  0  0  0  0  0  0  0
  129.4510  127.1940   75.1680 C   0  0  0  0  0  0  0  0  0  0  0  0
  131.6820  127.2810   73.9130 C   0  0  0  0  0  0  0  0  0  0  0  0
  130.2240  129.1610   74.0380 O   0  0  0  0  0  0  0  0  0  0  0  0
  129.7740  129.8280   72.8470 C   0  0  0  0  0  0  0  0  0  0  0  0
  130.7940  130.9410   72.5420 C   0  0  0  0  0  0  0  0  0  0  0  0
  128.3740  130.4010   73.1690 C   0  0  0  0  0  0  0  0  0  0  0  0
  127.5360  128.8740   65.1450 C   0  0  2  0  0  0  0  0  0  0  0  0
  125.9730  128.8620   65.2910 C   0  0  0  0  0  0  0  0  0  0  0  0
  128.7370  128.0990   59.4850 O   0  0  0  0  0  0  0  0  0  0  0  0
  129.3330  129.1540   58.7420 C   0  0  2  0  0  0  0  0  0  0  0  0
  130.1250  128.5990   57.5220 C   0  0  0  0  0  0  0  0  0  0  0  0
  131.0800  127.4360   57.9000 C   0  0  0  0  0  0  0  0  0  0  0  0
  129.1370  128.1940   56.4110 C   0  0  0  0  0  0  0  0  0  0  0  0
  130.8690  129.6980   56.9640 O   0  0  0  0  0  0  0  0  0  0  0  0
  133.3691  134.5296   57.1000 H   0  0  0  0  0  0  0  0  0  0  0  0
  133.6017  133.3496   55.7657 H   0  0  0  0  0  0  0  0  0  0  0  0
  132.1702  134.4347   55.7657 H   0  0  0  0  0  0  0  0  0  0  0  0
  131.1253  133.2801   59.0598 H   0  0  0  0  0  0  0  0  0  0  0  0
  130.7799  134.4492   57.7405 H   0  0  0  0  0  0  0  0  0  0  0  0
  129.9900  132.8359   57.7405 H   0  0  0  0  0  0  0  0  0  0  0  0
  133.2483  131.2234   56.4994 H   0  0  0  0  0  0  0  0  0  0  0  0
  132.4102  129.6960   58.3230 H   0  0  0  0  0  0  0  0  0  0  0  0
  131.0035  129.2715   60.1093 H   0  0  0  0  0  0  0  0  0  0  0  0
  130.3812  131.0839   61.2595 H   0  0  0  0  0  0  0  0  0  0  0  0
  126.9308  128.7707   60.2816 H   0  0  0  0  0  0  0  0  0  0  0  0
  127.2002  126.4833   61.0358 H   0  0  0  0  0  0  0  0  0  0  0  0
  128.8933  126.8286   61.6148 H   0  0  0  0  0  0  0  0  0  0  0  0
  126.2742  127.7692   62.8541 H   0  0  0  0  0  0  0  0  0  0  0  0
  127.5238  126.6142   63.5321 H   0  0  0  0  0  0  0  0  0  0  0  0
  129.9974  128.3026   64.6462 H   0  0  0  0  0  0  0  0  0  0  0  0
  129.7841  127.4295   63.0909 H   0  0  0  0  0  0  0  0  0  0  0  0
  130.1467  129.1889   63.0909 H   0  0  0  0  0  0  0  0  0  0  0  0
  126.2150  130.3850   61.7030 H   0  0  0  0  0  0  0  0  0  0  0  0
  129.3676  131.3022   63.5786 H   0  0  0  0  0  0  0  0  0  0  0  0
  127.8639  132.1686   62.9941 H   0  0  0  0  0  0  0  0  0  0  0  0
  128.1777  132.3130   65.4879 H   0  0  0  0  0  0  0  0  0  0  0  0
  126.6471  131.5323   65.0085 H   0  0  0  0  0  0  0  0  0  0  0  0
  129.2473  130.2674   65.6088 H   0  0  0  0  0  0  0  0  0  0  0  0
  128.7778  130.6232   67.8199 H   0  0  0  0  0  0  0  0  0  0  0  0
  127.0691  130.4136   67.6991 H   0  0  0  0  0  0  0  0  0  0  0  0
  128.1790  125.9410   65.5560 H   0  0  0  0  0  0  0  0  0  0  0  0
  129.0017  124.1441   67.6548 H   0  0  0  0  0  0  0  0  0  0  0  0
  129.5326  124.1619   70.0874 H   0  0  0  0  0  0  0  0  0  0  0  0
  129.2849  129.6414   69.9103 H   0  0  0  0  0  0  0  0  0  0  0  0
  127.8739  129.0398   70.8587 H   0  0  0  0  0  0  0  0  0  0  0  0
  130.7791  128.6858   71.3069 H   0  0  0  0  0  0  0  0  0  0  0  0
  128.3532  127.3803   72.8922 H   0  0  0  0  0  0  0  0  0  0  0  0
  129.9503  127.5489   76.0816 H   0  0  0  0  0  0  0  0  0  0  0  0
  128.4132  127.5583   75.1522 H   0  0  0  0  0  0  0  0  0  0  0  0
  129.4538  126.0941   75.1522 H   0  0  0  0  0  0  0  0  0  0  0  0
  132.0459  127.1714   74.9453 H   0  0  0  0  0  0  0  0  0  0  0  0
  131.7677  126.3172   73.3898 H   0  0  0  0  0  0  0  0  0  0  0  0
  132.2856  128.0372   73.3898 H   0  0  0  0  0  0  0  0  0  0  0  0
  131.1756  131.3574   73.4859 H   0  0  0  0  0  0  0  0  0  0  0  0
  131.6296  130.5234   71.9611 H   0  0  0  0  0  0  0  0  0  0  0  0
  130.3053  131.7371   71.9611 H   0  0  0  0  0  0  0  0  0  0  0  0
  128.2419  130.4551   74.2597 H   0  0  0  0  0  0  0  0  0  0  0  0
  128.2824  131.4090   72.7382 H   0  0  0  0  0  0  0  0  0  0  0  0
  127.6020  129.7465   72.7382 H   0  0  0  0  0  0  0  0  0  0  0  0
  125.7044  128.8599   66.3577 H   0  0  0  0  0  0  0  0  0  0  0  0
  125.5528  129.7569   64.8088 H   0  0  0  0  0  0  0  0  0  0  0  0
  125.5666  127.9607   64.8088 H   0  0  0  0  0  0  0  0  0  0  0  0
  128.5413  129.8118   58.3540 H   0  0  0  0  0  0  0  0  0  0  0  0
  131.1453  127.3564   58.9952 H   0  0  0  0  0  0  0  0  0  0  0  0
  130.6917  126.4936   57.4864 H   0  0  0  0  0  0  0  0  0  0  0  0
  132.0800  127.6335   57.4864 H   0  0  0  0  0  0  0  0  0  0  0  0
  128.2100  127.8140   56.8653 H   0  0  0  0  0  0  0  0  0  0  0  0
  128.9072  129.0705   55.7873 H   0  0  0  0  0  0  0  0  0  0  0  0
  129.5885  127.4084   55.7873 H   0  0  0  0  0  0  0  0  0  0  0  0
  1  2  1  0
  2  3  1  0
  2  4  2  3
  4  5  1  0
  5  6  1  0
  6  7  1  0
  7  8  1  0
  8  9  1  0
 10  9  1  6
 10 11  1  0
 11 12  1  0
 12 13  1  0
 13 14  1  0
 14 15  1  1
 14 16  1  0
 16 17  1  6
 16 18  1  0
 18 19  1  0
 19 20  1  0
 20 21  1  0
 21 22  1  0
 22 23  2  0
 23 24  1  0
 24 25  1  0
 25 26  2  0
 26 27  1  0
 27 28  2  0
 28 29  1  0
 29 30  2  0
 29 31  1  0
 31 32  1  0
 32 33  1  0
 33 34  1  0
 34 35  2  0
 33 36  1  0
 36 37  1  0
 36 38  1  0
 36 39  1  0
 39 40  1  0
 40 41  1  0
 40 42  1  0
 23 43  1  0
 43 44  1  6
 11 45  1  0
 45 46  1  0
 46 47  1  0
 47 48  1  0
 47 49  1  0
 47 50  1  0
 50  5  1  0
 46  7  1  0
 10  8  1  0
 43 14  1  0
 16 10  1  0
 43 20  1  0
 30 22  1  0
 40 32  1  0
 30 25  1  0
 34 28  1  0
  1 51  1  0
  1 52  1  0
  1 53  1  0
  3 54  1  0
  3 55  1  0
  3 56  1  0
  4 57  1  0
  5 58  1  1
  7 59  1  1
  8 60  1  1
 11 61  1  6
 12 62  1  0
 12 63  1  0
 13 64  1  0
 13 65  1  0
 15 66  1  0
 15 67  1  0
 15 68  1  0
 17 69  1  0
 18 70  1  0
 18 71  1  0
 19 72  1  0
 19 73  1  0
 20 74  1  1
 21 75  1  0
 21 76  1  0
 24 77  1  0
 26 78  1  0
 27 79  1  0
 31 80  1  0
 31 81  1  0
 32 82  1  6
 33 83  1  1
 37 84  1  0
 37 85  1  0
 37 86  1  0
 38 87  1  0
 38 88  1  0
 38 89  1  0
 41 90  1  0
 41 91  1  0
 41 92  1  0
 42 93  1  0
 42 94  1  0
 42 95  1  0
 44 96  1  0
 44 97  1  0
 44 98  1  0
 46 99  1  6
 48100  1  0
 48101  1  0
 48102  1  0
 49103  1  0
 49104  1  0
 49105  1  0
M  END
>  <Binding energies>  (1) 
[58.93]

>  <Ligand effiencies>  (1) 
[1.1332692307692307]

>  <Interactions>  (1) 
["V-A:GLU:543:CA:4904, V-A:PRO:540:CG:4886, V-B:HIS:456:CD2:9039, V-B:GLU:543:C:9874, V-A:GLU:543:C:4902, V-B:GLU:543:CB:9878, V-A:ILE:538:CB:4862, H-A:TYR:531:OH:4795, V-A:GLY:544:CA:4914, V-B:GLU:543:CG:9879, V-A:GLY:544:C:4912, V-A:HIS:456:CD2:4068, V-A:ILE:538:CG2:4863, V-A:LEU:363:CD1:3189, V-B:TYR:484:CE2:9317, V-A:LEU:363:CG:3188, V-A:ILE:538:CA:4860, H-B:GLU:543:OE1:9881, V-A:TYR:531:CE2:4793, V-A:TYR:539:CA:4869, V-A:GLU:543:CD:4908, V-B:HIS:456:CE1:9041, V-B:GLU:543:CA:9876, V-B:TYR:484:CZ:9318, V-A:HIS:456:CE1:4070, V-A:ILE:538:CG1:4864, V-A:GLU:543:CG:4907, V-A:TYR:531:CZ:4794, V-B:GLU:543:CD:9880, V-B:HIS:456:CG:9037, V-B:ARG:545:CZ:9898, V-A:MET:535:CE:4835, V-A:TYR:539:C:4867, H-A:LYS:547:NZ:4951, V-A:GLU:543:CB:4906, V-A:ILE:538:CD1:4865, V-A:PRO:540:N:4884, H-B:GLU:543:OE2:9882, V-A:PRO:540:CA:4883, V-A:PRO:540:CB:4885, V-A:LYS:547:CE:4950, V-A:PRO:540:CD:4887"]

$$$$
ZINC85631439
     RDKit          3D

 88 91  0  0  0  0  0  0  0  0999 V2000
  130.2640  132.0390   62.2160 C   0  0  0  0  0  0  0  0  0  0  0  0
  129.0340  131.8680   63.1160 C   0  0  0  0  0  0  0  0  0  0  0  0
  127.8210  132.6830   62.6350 C   0  0  0  0  0  0  0  0  0  0  0  0
  127.1670  132.0950   61.3720 C   0  0  0  0  0  0  0  0  0  0  0  0
  127.3820  132.9680   60.1210 C   0  0  0  0  0  0  0  0  0  0  0  0
  128.2410  132.2990   59.0310 C   0  0  0  0  0  0  0  0  0  0  0  0
  129.6070  132.9840   58.8050 C   0  0  0  0  0  0  0  0  0  0  0  0
  130.3080  132.6030   57.4880 C   0  0  0  0  0  0  0  0  0  0  0  0
  130.0670  133.2040   56.4380 O   0  0  0  0  0  0  0  0  0  0  0  0
  131.3460  131.4590   57.5580 C   0  0  2  0  0  0  0  0  0  0  0  0
  130.9240  130.3640   56.7560 O   0  0  0  0  0  0  0  0  0  0  0  0
  131.5790  130.9600   58.9950 C   0  0  0  0  0  0  0  0  0  0  0  0
  132.0950  131.7070   59.8280 O   0  0  0  0  0  0  0  0  0  0  0  0
  131.1330  129.5300   59.3530 C   0  0  0  0  0  0  0  0  0  0  0  0
  131.7940  128.4220   58.5020 C   0  0  0  0  0  0  0  0  0  0  0  0
  131.0780  127.0810   58.6110 C   0  0  0  0  0  0  0  0  0  0  0  0
  129.9700  126.8070   57.8080 C   0  0  0  0  0  0  0  0  0  0  0  0
  129.2990  125.5780   57.8990 C   0  0  0  0  0  0  0  0  0  0  0  0
  128.1990  125.2490   57.1250 O   0  0  0  0  0  0  0  0  0  0  0  0
  126.8900  125.5550   57.5960 C   0  0  0  0  0  0  0  0  0  0  0  0
  129.7560  124.6190   58.8180 C   0  0  0  0  0  0  0  0  0  0  0  0
  129.0850  123.4230   58.8790 O   0  0  0  0  0  0  0  0  0  0  0  0
  130.8680  124.8820   59.6460 C   0  0  0  0  0  0  0  0  0  0  0  0
  131.4450  123.8740   60.6730 C   0  0  2  0  0  0  0  0  0  0  0  0
  131.0130  124.1720   62.1260 C   0  0  0  0  0  0  0  0  0  0  0  0
  129.6590  124.0790   62.4740 C   0  0  0  0  0  0  0  0  0  0  0  0
  129.2500  124.4130   63.7600 C   0  0  0  0  0  0  0  0  0  0  0  0
  130.1110  124.8340   64.7110 N   0  0  0  0  0  0  0  0  0  0  0  0
  131.4240  124.9230   64.3890 C   0  0  0  0  0  0  0  0  0  0  0  0
  132.2620  125.3510   65.4190 N   0  0  0  0  0  0  0  0  0  0  0  0
  131.9380  124.6030   63.1160 C   0  0  0  0  0  0  0  0  0  0  0  0
  133.4450  124.6810   62.8160 C   0  0  0  0  0  0  0  0  0  0  0  0
  133.7430  124.6520   61.3060 C   0  0  0  0  0  0  0  0  0  0  0  0
  132.9810  123.5230   60.5540 C   0  0  2  0  0  0  0  0  0  0  0  0
  133.4870  123.4890   59.0700 C   0  0  0  0  0  0  0  0  0  0  0  0
  134.5890  124.3290   58.7670 O   0  0  0  0  0  0  0  0  0  0  0  0
  133.2710  122.1370   61.2410 C   0  0  0  0  0  0  0  0  0  0  0  0
  132.1450  121.1190   61.1460 C   0  0  0  0  0  0  0  0  0  0  0  0
  130.8520  121.1150   61.6580 C   0  0  0  0  0  0  0  0  0  0  0  0
  130.2160  119.9330   61.2660 C   0  0  0  0  0  0  0  0  0  0  0  0
  131.1270  119.2080   60.5180 C   0  0  0  0  0  0  0  0  0  0  0  0
  132.2860  119.9360   60.4580 N   0  0  0  0  0  0  0  0  0  0  0  0
  131.5130  126.1190   59.5210 C   0  0  0  0  0  0  0  0  0  0  0  0
  131.1609  132.1637   62.8406 H   0  0  0  0  0  0  0  0  0  0  0  0
  130.3803  131.1484   61.5810 H   0  0  0  0  0  0  0  0  0  0  0  0
  130.1330  132.9276   61.5810 H   0  0  0  0  0  0  0  0  0  0  0  0
  128.7570  130.8036   63.1330 H   0  0  0  0  0  0  0  0  0  0  0  0
  129.3036  132.2374   64.1164 H   0  0  0  0  0  0  0  0  0  0  0  0
  127.0718  132.7056   63.4401 H   0  0  0  0  0  0  0  0  0  0  0  0
  128.1803  133.6913   62.3817 H   0  0  0  0  0  0  0  0  0  0  0  0
  127.5987  131.1008   61.1841 H   0  0  0  0  0  0  0  0  0  0  0  0
  126.0836  132.0441   61.5556 H   0  0  0  0  0  0  0  0  0  0  0  0
  126.3977  133.2034   59.6900 H   0  0  0  0  0  0  0  0  0  0  0  0
  127.9261  133.8660   60.4489 H   0  0  0  0  0  0  0  0  0  0  0  0
  128.4214  131.2543   59.3243 H   0  0  0  0  0  0  0  0  0  0  0  0
  127.6817  132.3811   58.0874 H   0  0  0  0  0  0  0  0  0  0  0  0
  129.4488  134.0726   58.8064 H   0  0  0  0  0  0  0  0  0  0  0  0
  130.2646  132.6411   59.6174 H   0  0  0  0  0  0  0  0  0  0  0  0
  132.2940  131.8708   57.1816 H   0  0  0  0  0  0  0  0  0  0  0  0
  131.7030  129.9020   56.4350 H   0  0  0  0  0  0  0  0  0  0  0  0
  131.3811  129.3467   60.4089 H   0  0  0  0  0  0  0  0  0  0  0  0
  130.0530  129.4785   59.1505 H   0  0  0  0  0  0  0  0  0  0  0  0
  131.7876  128.7383   57.4485 H   0  0  0  0  0  0  0  0  0  0  0  0
  132.8166  128.2810   58.8820 H   0  0  0  0  0  0  0  0  0  0  0  0
  129.6176  127.5654   57.0934 H   0  0  0  0  0  0  0  0  0  0  0  0
  126.8870  125.5557   58.6960 H   0  0  0  0  0  0  0  0  0  0  0  0
  126.5905  126.5474   57.2279 H   0  0  0  0  0  0  0  0  0  0  0  0
  126.1816  124.7982   57.2279 H   0  0  0  0  0  0  0  0  0  0  0  0
  128.3680  123.3710   58.2450 H   0  0  0  0  0  0  0  0  0  0  0  0
  130.9607  122.9352   60.3664 H   0  0  0  0  0  0  0  0  0  0  0  0
  128.9210  123.7423   61.7310 H   0  0  0  0  0  0  0  0  0  0  0  0
  128.1826  124.3310   64.0128 H   0  0  0  0  0  0  0  0  0  0  0  0
  132.4520  126.3360   65.5310 H   0  0  0  0  0  0  0  0  0  0  0  0
  132.6540  124.6660   66.0500 H   0  0  0  0  0  0  0  0  0  0  0  0
  133.8413  125.6169   63.2368 H   0  0  0  0  0  0  0  0  0  0  0  0
  133.9242  123.8012   63.2703 H   0  0  0  0  0  0  0  0  0  0  0  0
  133.4506  125.6200   60.8730 H   0  0  0  0  0  0  0  0  0  0  0  0
  134.8189  124.4557   61.1882 H   0  0  0  0  0  0  0  0  0  0  0  0
  133.7795  122.4542   58.8383 H   0  0  0  0  0  0  0  0  0  0  0  0
  132.6510  123.8683   58.4640 H   0  0  0  0  0  0  0  0  0  0  0  0
  134.7190  124.3320   57.8160 H   0  0  0  0  0  0  0  0  0  0  0  0
  134.1635  121.7024   60.7671 H   0  0  0  0  0  0  0  0  0  0  0  0
  133.4015  122.3488   62.3125 H   0  0  0  0  0  0  0  0  0  0  0  0
  130.4033  121.9108   62.2706 H   0  0  0  0  0  0  0  0  0  0  0  0
  129.1849  119.6353   61.5070 H   0  0  0  0  0  0  0  0  0  0  0  0
  130.9522  118.2254   60.0555 H   0  0  0  0  0  0  0  0  0  0  0  0
  133.1240  119.6490   59.9730 H   0  0  0  0  0  0  0  0  0  0  0  0
  132.3841  126.3366   60.1565 H   0  0  0  0  0  0  0  0  0  0  0  0
  1  2  1  0
  2  3  1  0
  3  4  1  0
  4  5  1  0
  5  6  1  0
  6  7  1  0
  7  8  1  0
  8  9  2  0
  8 10  1  0
 10 11  1  0
 10 12  1  0
 12 13  2  0
 12 14  1  0
 14 15  1  0
 15 16  1  0
 16 17  2  0
 17 18  1  0
 18 19  1  0
 19 20  1  0
 18 21  2  0
 21 22  1  0
 21 23  1  0
 23 24  1  0
 24 25  1  0
 25 26  2  0
 26 27  1  0
 27 28  2  0
 28 29  1  0
 29 30  1  0
 29 31  2  0
 31 32  1  0
 32 33  1  0
 33 34  1  0
 34 35  1  6
 35 36  1  0
 34 37  1  0
 37 38  1  0
 38 39  2  0
 39 40  1  0
 40 41  2  0
 41 42  1  0
 23 43  2  0
 43 16  1  0
 34 24  1  0
 42 38  1  0
 31 25  1  0
  1 44  1  0
  1 45  1  0
  1 46  1  0
  2 47  1  0
  2 48  1  0
  3 49  1  0
  3 50  1  0
  4 51  1  0
  4 52  1  0
  5 53  1  0
  5 54  1  0
  6 55  1  0
  6 56  1  0
  7 57  1  0
  7 58  1  0
 10 59  1  6
 11 60  1  0
 14 61  1  0
 14 62  1  0
 15 63  1  0
 15 64  1  0
 17 65  1  0
 20 66  1  0
 20 67  1  0
 20 68  1  0
 22 69  1  0
 24 70  1  6
 26 71  1  0
 27 72  1  0
 30 73  1  0
 30 74  1  0
 32 75  1  0
 32 76  1  0
 33 77  1  0
 33 78  1  0
 35 79  1  0
 35 80  1  0
 36 81  1  0
 37 82  1  0
 37 83  1  0
 39 84  1  0
 40 85  1  0
 41 86  1  0
 42 87  1  0
 43 88  1  0
M  END
>  <Binding energies>  (1) 
[-7.45]

>  <Ligand effiencies>  (1) 
[-0.1520408163265306]

>  <Interactions>  (1) 
["V-A:ILE:369:CG2:3237, H-A:GLU:543:OE2:4910, V-A:ILE:369:CB:3236, V-B:ALA:541:CB:9864, H-A:TYR:531:OH:4795, V-B:TYR:539:CE2:9848, V-B:LEU:475:CD2:9230, V-B:GLU:543:CG:9879, V-A:ASP:366:CG:3213, V-A:TYR:539:CD1:4873, V-B:TYR:539:CZ:9849, V-A:ALA:541:CB:4892, V-B:TYR:539:CD2:9846, V-A:GLU:543:CG:4907, V-A:SER:385:CB:3409, H-A:SER:385:OG:3410, V-B:GLU:543:CD:9880, V-A:TYR:539:C:4867, V-A:ASP:366:CB:3212, V-A:LEU:475:CD2:4259, V-A:ARG:545:CZ:4926, H-A:GLU:543:OE1:4909, H-A:ASP:366:O:3209, V-A:PRO:540:N:4884, H-A:TYR:539:N:4870, V-A:PRO:540:CA:4883, V-A:TYR:539:CE1:4875, H-A:TYR:484:OH:4348"]

$$$$
ZINC85631439-again1
     RDKit          3D

 89 92  0  0  0  0  0  0  0  0999 V2000
  130.5090  132.6400   56.4170 C   0  0  0  0  0  0  0  0  0  0  0  0
  129.1180  133.2870   56.4010 C   0  0  0  0  0  0  0  0  0  0  0  0
  127.9790  132.2630   56.5500 C   0  0  0  0  0  0  0  0  0  0  0  0
  128.3270  131.1190   57.5190 C   0  0  0  0  0  0  0  0  0  0  0  0
  127.4880  131.1400   58.8100 C   0  0  0  0  0  0  0  0  0  0  0  0
  128.3450  131.3590   60.0730 C   0  0  0  0  0  0  0  0  0  0  0  0
  129.6880  132.0820   59.8320 C   0  0  0  0  0  0  0  0  0  0  0  0
  130.7790  131.8230   60.8870 C   0  0  0  0  0  0  0  0  0  0  0  0
  130.7020  132.3770   61.9850 O   0  0  0  0  0  0  0  0  0  0  0  0
  131.9160  130.8250   60.5470 C   0  0  2  0  0  0  0  0  0  0  0  0
  133.1390  131.2570   61.1230 O   0  0  0  0  0  0  0  0  0  0  0  0
  132.1620  130.5730   59.0440 C   0  0  0  0  0  0  0  0  0  0  0  0
  132.6490  131.4200   58.2910 O   0  0  0  0  0  0  0  0  0  0  0  0
  131.6970  129.2190   58.4820 C   0  0  0  0  0  0  0  0  0  0  0  0
  130.2900  128.7780   58.9490 C   0  0  0  0  0  0  0  0  0  0  0  0
  130.1210  127.2660   59.0370 C   0  0  0  0  0  0  0  0  0  0  0  0
  129.4550  126.5680   58.0310 C   0  0  0  0  0  0  0  0  0  0  0  0
  129.2360  125.1860   58.1380 C   0  0  0  0  0  0  0  0  0  0  0  0
  128.5540  124.4440   57.1880 O   0  0  0  0  0  0  0  0  0  0  0  0
  127.1680  124.1750   57.3710 C   0  0  0  0  0  0  0  0  0  0  0  0
  129.7060  124.5110   59.2740 C   0  0  0  0  0  0  0  0  0  0  0  0
  129.4670  123.1610   59.3760 O   0  0  0  0  0  0  0  0  0  0  0  0
  130.3880  125.2000   60.2970 C   0  0  0  0  0  0  0  0  0  0  0  0
  130.8680  124.4890   61.5890 C   0  0  2  0  0  0  0  0  0  0  0  0
  130.5370  125.2520   62.9070 C   0  0  0  0  0  0  0  0  0  0  0  0
  129.4260  126.1130   62.9760 C   0  0  0  0  0  0  0  0  0  0  0  0
  129.0680  126.7400   64.1620 C   0  0  0  0  0  0  0  0  0  0  0  0
  129.7930  126.5010   65.2630 N   0  0  0  0  0  0  0  0  0  0  0  0
  130.8590  125.6850   65.2860 C   0  0  0  0  0  0  0  0  0  0  0  0
  131.5240  125.5500   66.5290 N   0  0  0  0  0  0  0  0  0  0  0  0
  131.2720  125.0210   64.1070 C   0  0  0  0  0  0  0  0  0  0  0  0
  132.5020  124.0990   64.0990 C   0  0  0  0  0  0  0  0  0  0  0  0
  132.5140  123.1660   62.8800 C   0  0  0  0  0  0  0  0  0  0  0  0
  132.3440  123.9330   61.5350 C   0  0  2  0  0  0  0  0  0  0  0  0
  133.4200  125.0660   61.4270 C   0  0  0  0  0  0  0  0  0  0  0  0
  134.6670  124.7320   62.0040 O   0  0  0  0  0  0  0  0  0  0  0  0
  132.4520  122.8750   60.3810 C   0  0  0  0  0  0  0  0  0  0  0  0
  131.7650  121.5450   60.6470 C   0  0  0  0  0  0  0  0  0  0  0  0
  132.1920  120.2290   60.5000 C   0  0  0  0  0  0  0  0  0  0  0  0
  131.1560  119.3750   60.8960 C   0  0  0  0  0  0  0  0  0  0  0  0
  130.0930  120.1730   61.2790 C   0  0  0  0  0  0  0  0  0  0  0  0
  130.4750  121.4790   61.1200 N   0  0  0  0  0  0  0  0  0  0  0  0
  130.5910  126.5780   60.1540 C   0  0  0  0  0  0  0  0  0  0  0  0
  130.8316  132.4899   57.4579 H   0  0  0  0  0  0  0  0  0  0  0  0
  130.4676  131.6687   55.9023 H   0  0  0  0  0  0  0  0  0  0  0  0
  131.2251  133.2974   55.9023 H   0  0  0  0  0  0  0  0  0  0  0  0
  129.0554  134.0049   57.2321 H   0  0  0  0  0  0  0  0  0  0  0  0
  128.9940  133.7786   55.4248 H   0  0  0  0  0  0  0  0  0  0  0  0
  127.0861  132.7832   56.9269 H   0  0  0  0  0  0  0  0  0  0  0  0
  127.8043  131.8163   55.5601 H   0  0  0  0  0  0  0  0  0  0  0  0
  128.1544  130.1616   57.0056 H   0  0  0  0  0  0  0  0  0  0  0  0
  129.3796  131.2477   57.8115 H   0  0  0  0  0  0  0  0  0  0  0  0
  126.7522  131.9546   58.7383 H   0  0  0  0  0  0  0  0  0  0  0  0
  127.0003  130.1586   58.9054 H   0  0  0  0  0  0  0  0  0  0  0  0
  127.7577  131.9580   60.7845 H   0  0  0  0  0  0  0  0  0  0  0  0
  128.5981  130.3574   60.4507 H   0  0  0  0  0  0  0  0  0  0  0  0
  130.0770  131.7576   58.8556 H   0  0  0  0  0  0  0  0  0  0  0  0
  129.4655  133.1579   59.8856 H   0  0  0  0  0  0  0  0  0  0  0  0
  131.5664  129.8718   60.9703 H   0  0  0  0  0  0  0  0  0  0  0  0
  133.8500  131.0870   60.4980 H   0  0  0  0  0  0  0  0  0  0  0  0
  131.6884  129.2877   57.3842 H   0  0  0  0  0  0  0  0  0  0  0  0
  132.4023  128.4649   58.8612 H   0  0  0  0  0  0  0  0  0  0  0  0
  130.1040  129.2070   59.9447 H   0  0  0  0  0  0  0  0  0  0  0  0
  129.5732  129.1389   58.1967 H   0  0  0  0  0  0  0  0  0  0  0  0
  129.0965  127.1073   57.1418 H   0  0  0  0  0  0  0  0  0  0  0  0
  126.9419  124.1311   58.4466 H   0  0  0  0  0  0  0  0  0  0  0  0
  126.5745  124.9747   56.9039 H   0  0  0  0  0  0  0  0  0  0  0  0
  126.9167  123.2113   56.9039 H   0  0  0  0  0  0  0  0  0  0  0  0
  128.9850  122.8140   58.6220 H   0  0  0  0  0  0  0  0  0  0  0  0
  130.2412  123.5857   61.6218 H   0  0  0  0  0  0  0  0  0  0  0  0
  128.8281  126.2932   62.0705 H   0  0  0  0  0  0  0  0  0  0  0  0
  128.2046  127.4207   64.1970 H   0  0  0  0  0  0  0  0  0  0  0  0
  129.5240  126.9600   66.1210 H   0  0  0  0  0  0  0  0  0  0  0  0
  131.7930  126.3720   67.0500 H   0  0  0  0  0  0  0  0  0  0  0  0
  131.7290  124.6330   66.9000 H   0  0  0  0  0  0  0  0  0  0  0  0
  133.4104  124.7191   64.0805 H   0  0  0  0  0  0  0  0  0  0  0  0
  132.4644  123.4748   65.0040 H   0  0  0  0  0  0  0  0  0  0  0  0
  133.4725  122.6266   62.8589 H   0  0  0  0  0  0  0  0  0  0  0  0
  131.6621  122.4773   62.9800 H   0  0  0  0  0  0  0  0  0  0  0  0
  133.5806  125.2901   60.3621 H   0  0  0  0  0  0  0  0  0  0  0  0
  133.0309  125.9288   61.9876 H   0  0  0  0  0  0  0  0  0  0  0  0
  135.2970  125.4280   61.7990 H   0  0  0  0  0  0  0  0  0  0  0  0
  132.0044  123.3129   59.4766 H   0  0  0  0  0  0  0  0  0  0  0  0
  133.5233  122.6469   60.2792 H   0  0  0  0  0  0  0  0  0  0  0  0
  133.1796  119.9123   60.1335 H   0  0  0  0  0  0  0  0  0  0  0  0
  131.1823  118.2753   60.9016 H   0  0  0  0  0  0  0  0  0  0  0  0
  129.1169  119.8222   61.6452 H   0  0  0  0  0  0  0  0  0  0  0  0
  129.8950  122.2790   61.3230 H   0  0  0  0  0  0  0  0  0  0  0  0
  131.1318  127.1279   60.9383 H   0  0  0  0  0  0  0  0  0  0  0  0
  1  2  1  0
  2  3  1  0
  3  4  1  0
  4  5  1  0
  5  6  1  0
  6  7  1  0
  7  8  1  0
  8  9  2  0
  8 10  1  0
 10 11  1  0
 10 12  1  0
 12 13  2  0
 12 14  1  0
 14 15  1  0
 15 16  1  0
 16 17  2  0
 17 18  1  0
 18 19  1  0
 19 20  1  0
 18 21  2  0
 21 22  1  0
 21 23  1  0
 23 24  1  0
 24 25  1  0
 25 26  2  0
 26 27  1  0
 27 28  2  0
 28 29  1  0
 29 30  1  0
 29 31  2  0
 31 32  1  0
 32 33  1  0
 33 34  1  0
 34 35  1  6
 35 36  1  0
 34 37  1  0
 37 38  1  0
 38 39  2  0
 39 40  1  0
 40 41  2  0
 41 42  1  0
 23 43  2  0
 43 16  1  0
 34 24  1  0
 42 38  1  0
 31 25  1  0
  1 44  1  0
  1 45  1  0
  1 46  1  0
  2 47  1  0
  2 48  1  0
  3 49  1  0
  3 50  1  0
  4 51  1  0
  4 52  1  0
  5 53  1  0
  5 54  1  0
  6 55  1  0
  6 56  1  0
  7 57  1  0
  7 58  1  0
 10 59  1  1
 11 60  1  0
 14 61  1  0
 14 62  1  0
 15 63  1  0
 15 64  1  0
 17 65  1  0
 20 66  1  0
 20 67  1  0
 20 68  1  0
 22 69  1  0
 24 70  1  1
 26 71  1  0
 27 72  1  0
 28 73  1  0
 30 74  1  0
 30 75  1  0
 32 76  1  0
 32 77  1  0
 33 78  1  0
 33 79  1  0
 35 80  1  0
 35 81  1  0
 36 82  1  0
 37 83  1  0
 37 84  1  0
 39 85  1  0
 40 86  1  0
 41 87  1  0
 42 88  1  0
 43 89  1  0
M  CHG  1  28   1
M  END
>  <Binding energies>  (1) 
[-7.47]

>  <Ligand effiencies>  (1) 
[-0.1494]

>  <Interactions>  (1) 
["V-A:ILE:538:C:4858, H-A:GLU:543:OE2:4910, H-A:ALA:541:N:4891, V-A:ILE:538:CB:4862, V-B:ALA:541:CB:9864, V-B:TYR:539:CE2:9848, V-B:GLU:543:CG:9879, V-A:ASP:366:CG:3213, V-A:ILE:538:CG2:4863, V-A:TYR:539:CD1:4873, V-B:TYR:539:CZ:9849, V-A:ILE:538:CA:4860, V-A:TYR:539:CZ:4877, H-B:TYR:539:OH:9850, V-A:TYR:539:CA:4869, V-A:GLU:543:CD:4908, V-A:TYR:484:CZ:4347, H-A:GLY:454:N:4050, V-A:HIS:456:CE1:4070, V-B:TYR:539:CD2:9846, V-A:SER:385:CB:3409, V-A:MET:535:CE:4835, V-B:GLU:543:CD:9880, V-A:ASP:366:CB:3212, V-A:LEU:475:CD2:4259, H-A:ARG:545:NH2:4928, H-A:GLU:543:OE1:4909, H-A:ASP:366:OD1:3214, V-A:TYR:539:CG:4872, H-B:GLU:543:OE2:9882, V-A:PRO:540:CA:4883, V-A:PRO:540:CB:4885, V-A:TYR:539:CD2:4874, H-A:ASP:366:OD2:3215, V-A:TYR:539:CE1:4875, H-A:TYR:484:OH:4348"]

$$$$
ZINC856567
     RDKit          3D

 53 58  0  0  0  0  0  0  0  0999 V2000
  133.3890  124.0610   64.3010 O   0  0  0  0  0  0  0  0  0  0  0  0
  132.2240  124.3160   64.6050 C   0  0  0  0  0  0  0  0  0  0  0  0
  131.9310  125.1750   65.8490 C   0  0  0  0  0  0  0  0  0  0  0  0
  130.4510  125.1090   66.2940 C   0  0  1  0  0  0  0  0  0  0  0  0
  130.2040  126.0360   67.4890 C   0  0  0  0  0  0  0  0  0  0  0  0
  131.2320  126.8420   67.9950 C   0  0  0  0  0  0  0  0  0  0  0  0
  130.9940  127.6800   69.0810 C   0  0  0  0  0  0  0  0  0  0  0  0
  129.7280  127.7160   69.6640 C   0  0  0  0  0  0  0  0  0  0  0  0
  129.4340  128.7550   71.0090 Cl  0  0  0  0  0  0  0  0  0  0  0  0
  128.7000  126.9180   69.1670 C   0  0  0  0  0  0  0  0  0  0  0  0
  128.9370  126.0800   68.0810 C   0  0  0  0  0  0  0  0  0  0  0  0
  129.5540  125.4860   65.0880 C   0  0  0  0  0  0  0  0  0  0  0  0
  129.8660  124.5740   63.9000 C   0  0  0  0  0  0  0  0  0  0  0  0
  131.0800  123.9920   63.7130 C   0  0  0  0  0  0  0  0  0  0  0  0
  131.4210  123.0490   62.5480 C   0  0  2  0  0  0  0  0  0  0  0  0
  132.0700  123.7110   61.3140 C   0  0  0  0  0  0  0  0  0  0  0  0
  131.3440  124.6580   60.5630 C   0  0  0  0  0  0  0  0  0  0  0  0
  131.9530  125.2310   59.4560 C   0  0  0  0  0  0  0  0  0  0  0  0
  133.2240  124.9080   59.0860 C   0  0  0  0  0  0  0  0  0  0  0  0
  133.9800  123.9870   59.8000 C   0  0  0  0  0  0  0  0  0  0  0  0
  133.3930  123.3810   60.9200 C   0  0  0  0  0  0  0  0  0  0  0  0
  134.3370  122.2200   61.7910 Cl  0  0  0  0  0  0  0  0  0  0  0  0
  133.5760  125.6350   57.9950 O   0  0  0  0  0  0  0  0  0  0  0  0
  132.4020  126.2760   57.5710 C   0  0  0  0  0  0  0  0  0  0  0  0
  131.4620  126.1730   58.6070 O   0  0  0  0  0  0  0  0  0  0  0  0
  130.3730  122.1150   62.1360 N   0  0  0  0  0  0  0  0  0  0  0  0
  129.2640  122.6260   61.4380 C   0  0  0  0  0  0  0  0  0  0  0  0
  128.8900  122.0300   60.2270 C   0  0  0  0  0  0  0  0  0  0  0  0
  127.8590  122.5430   59.4460 C   0  0  0  0  0  0  0  0  0  0  0  0
  127.1690  123.6680   59.8750 C   0  0  0  0  0  0  0  0  0  0  0  0
  127.4980  124.2510   61.0950 C   0  0  0  0  0  0  0  0  0  0  0  0
  128.5180  123.7400   61.9060 C   0  0  0  0  0  0  0  0  0  0  0  0
  128.7240  124.2980   63.1790 N   0  0  0  0  0  0  0  0  0  0  0  0
  132.5622  124.8197   66.6769 H   0  0  0  0  0  0  0  0  0  0  0  0
  132.1492  126.2205   65.5858 H   0  0  0  0  0  0  0  0  0  0  0  0
  130.2028  124.0887   66.6217 H   0  0  0  0  0  0  0  0  0  0  0  0
  132.2299  126.8127   67.5331 H   0  0  0  0  0  0  0  0  0  0  0  0
  131.8023  128.3118   69.4779 H   0  0  0  0  0  0  0  0  0  0  0  0
  127.7034  126.9500   69.6316 H   0  0  0  0  0  0  0  0  0  0  0  0
  128.1256  125.4504   67.6870 H   0  0  0  0  0  0  0  0  0  0  0  0
  128.4970  125.3693   65.3694 H   0  0  0  0  0  0  0  0  0  0  0  0
  129.7507  126.5302   64.8036 H   0  0  0  0  0  0  0  0  0  0  0  0
  132.1991  122.4418   63.0338 H   0  0  0  0  0  0  0  0  0  0  0  0
  130.3186  124.9360   60.8482 H   0  0  0  0  0  0  0  0  0  0  0  0
  135.0080  123.7405   59.4960 H   0  0  0  0  0  0  0  0  0  0  0  0
  132.6095  127.3349   57.3573 H   0  0  0  0  0  0  0  0  0  0  0  0
  132.0170  125.8073   56.6534 H   0  0  0  0  0  0  0  0  0  0  0  0
  130.7820  121.4090   61.5420 H   0  0  0  0  0  0  0  0  0  0  0  0
  129.4256  121.1324   59.8842 H   0  0  0  0  0  0  0  0  0  0  0  0
  127.5925  122.0598   58.4944 H   0  0  0  0  0  0  0  0  0  0  0  0
  126.3675  124.0960   59.2550 H   0  0  0  0  0  0  0  0  0  0  0  0
  126.9411  125.1380   61.4313 H   0  0  0  0  0  0  0  0  0  0  0  0
  127.9110  124.7960   63.5120 H   0  0  0  0  0  0  0  0  0  0  0  0
  1  2  2  0
  2  3  1  0
  3  4  1  0
  4  5  1  0
  5  6  2  0
  6  7  1  0
  7  8  2  0
  8  9  1  0
  8 10  1  0
 10 11  2  0
  4 12  1  0
 12 13  1  0
 13 14  2  0
 14 15  1  0
 15 16  1  0
 16 17  2  0
 17 18  1  0
 18 19  2  0
 19 20  1  0
 20 21  2  0
 21 22  1  0
 19 23  1  0
 23 24  1  0
 24 25  1  0
 15 26  1  0
 26 27  1  0
 27 28  2  0
 28 29  1  0
 29 30  2  0
 30 31  1  0
 31 32  2  0
 32 33  1  0
 14  2  1  0
 21 16  1  0
 32 27  1  0
 11  5  1  0
 33 13  1  0
 25 18  1  0
  3 34  1  0
  3 35  1  0
  4 36  1  1
  6 37  1  0
  7 38  1  0
 10 39  1  0
 11 40  1  0
 12 41  1  0
 12 42  1  0
 15 43  1  1
 17 44  1  0
 20 45  1  0
 24 46  1  0
 24 47  1  0
 26 48  1  0
 28 49  1  0
 29 50  1  0
 30 51  1  0
 31 52  1  0
 33 53  1  0
M  END
>  <Binding energies>  (1) 
[-7.15]

>  <Ligand effiencies>  (1) 
[-0.19324324324324324]

>  <Interactions>  (1) 
["V-A:ILE:369:CG2:3237, V-A:ASP:366:CA:3210, V-B:PRO:540:CA:9855, V-A:GLY:454:CA:4049, V-B:GLU:543:C:9874, V-B:HIS:456:CD2:9039, V-A:GLU:543:C:4902, V-A:ILE:369:CB:3236, V-B:GLU:543:CB:9878, H-A:TYR:531:OH:4795, V-B:TYR:539:CE2:9848, V-A:TYR:484:CE2:4346, V-B:GLU:543:CG:9879, V-B:TYR:539:C:9839, V-A:ASP:366:CG:3213, H-B:GLU:543:OE1:9881, H-B:TYR:539:OH:9850, V-A:TYR:484:CZ:4347, V-B:PRO:540:CB:9857, V-A:GLU:543:CD:4908, V-A:ARG:545:CG:4922, H-A:GLY:454:N:4050, V-B:GLU:543:CA:9876, V-B:HIS:456:CE1:9041, V-B:PRO:540:N:9856, V-A:HIS:456:CE1:4070, V-A:ILE:369:CD1:3239, V-B:TYR:539:CD2:9846, V-A:TYR:531:CZ:4794, V-B:GLU:543:CD:9880, V-A:ASP:366:CB:3212, V-A:LEU:475:CD2:4259, V-A:GLU:543:CB:4906, H-B:GLU:543:OE2:9882, H-A:TYR:484:OH:4348"]

$$$$
ZINC85742716-again1
     RDKit          3D

 74 80  0  0  0  0  0  0  0  0999 V2000
  134.8580  124.5110   62.0520 C   0  0  0  0  0  0  0  0  0  0  0  0
  134.1410  123.4720   62.7100 O   0  0  0  0  0  0  0  0  0  0  0  0
  132.8160  123.2560   62.3860 C   0  0  0  0  0  0  0  0  0  0  0  0
  132.5030  122.0210   61.8310 C   0  0  0  0  0  0  0  0  0  0  0  0
  131.2040  121.7190   61.4290 C   0  0  0  0  0  0  0  0  0  0  0  0
  131.0080  120.4940   60.8400 O   0  0  0  0  0  0  0  0  0  0  0  0
  130.1640  122.6570   61.6100 C   0  0  0  0  0  0  0  0  0  0  0  0
  128.7700  122.4170   61.1100 C   0  0  0  0  0  0  0  0  0  0  0  0
  128.3510  121.3100   60.7650 O   0  0  0  0  0  0  0  0  0  0  0  0
  128.0240  123.6750   60.8070 C   0  0  0  0  0  0  0  0  0  0  0  0
  126.9970  123.6480   59.8560 C   0  0  0  0  0  0  0  0  0  0  0  0
  126.3660  124.8180   59.4620 C   0  0  0  0  0  0  0  0  0  0  0  0
  126.7780  126.0480   59.9770 C   0  0  0  0  0  0  0  0  0  0  0  0
  126.1900  127.2300   59.5670 O   0  0  0  0  0  0  0  0  0  0  0  0
  126.9300  128.2020   58.9230 C   0  0  0  0  0  0  0  0  0  0  0  0
  127.4780  127.9100   57.6680 C   0  0  0  0  0  0  0  0  0  0  0  0
  128.2890  128.8290   57.0160 C   0  0  0  0  0  0  0  0  0  0  0  0
  128.6000  130.0330   57.6350 C   0  0  0  0  0  0  0  0  0  0  0  0
  128.0840  130.3390   58.9020 C   0  0  0  0  0  0  0  0  0  0  0  0
  128.5150  131.5850   59.5970 C   0  0  0  0  0  0  0  0  0  0  0  0
  129.0480  132.5100   58.9790 O   0  0  0  0  0  0  0  0  0  0  0  0
  128.4920  131.4730   61.1100 C   0  0  0  0  0  0  0  0  0  0  0  0
  129.3730  132.2000   61.9720 C   0  0  0  0  0  0  0  0  0  0  0  0
  130.2290  133.0670   61.5780 O   0  0  0  0  0  0  0  0  0  0  0  0
  129.3640  131.9620   63.3480 C   0  0  0  0  0  0  0  0  0  0  0  0
  128.5110  131.0050   63.8610 C   0  0  0  0  0  0  0  0  0  0  0  0
  127.6390  130.2880   63.0690 C   0  0  0  0  0  0  0  0  0  0  0  0
  127.5560  130.5560   61.6840 C   0  0  0  0  0  0  0  0  0  0  0  0
  126.7390  129.7860   60.8300 N   0  0  0  0  0  0  0  0  0  0  0  0
  125.4620  129.2580   61.3130 C   0  0  0  0  0  0  0  0  0  0  0  0
  127.1790  129.4550   59.5330 C   0  0  0  0  0  0  0  0  0  0  0  0
  127.0220  129.2440   63.9660 C   0  0  1  0  0  0  0  0  0  0  0  0
  127.5030  127.9500   63.6490 O   0  0  0  0  0  0  0  0  0  0  0  0
  127.4070  129.7550   65.3770 C   0  0  1  0  0  0  0  0  0  0  0  0
  127.7560  128.7090   66.4720 C   0  0  0  0  0  0  0  0  0  0  0  0
  128.3530  129.3740   67.7290 C   0  0  0  0  0  0  0  0  0  0  0  0
  128.7140  127.6190   65.9490 C   0  0  0  0  0  0  0  0  0  0  0  0
  128.5000  130.6480   65.1830 O   0  0  0  0  0  0  0  0  0  0  0  0
  127.7850  126.0880   60.9500 C   0  0  0  0  0  0  0  0  0  0  0  0
  128.1720  127.3340   61.3830 O   0  0  0  0  0  0  0  0  0  0  0  0
  128.3730  124.8940   61.4450 C   0  0  0  0  0  0  0  0  0  0  0  0
  129.4400  124.8620   62.3700 N   0  0  0  0  0  0  0  0  0  0  0  0
  129.6120  125.9330   63.3580 C   0  0  0  0  0  0  0  0  0  0  0  0
  130.4490  123.8860   62.2590 C   0  0  0  0  0  0  0  0  0  0  0  0
  131.7860  124.1880   62.5720 C   0  0  0  0  0  0  0  0  0  0  0  0
  135.3149  125.1731   62.8022 H   0  0  0  0  0  0  0  0  0  0  0  0
  135.6458  124.0712   61.4227 H   0  0  0  0  0  0  0  0  0  0  0  0
  134.1673  125.0915   61.4227 H   0  0  0  0  0  0  0  0  0  0  0  0
  133.2955  121.2683   61.7069 H   0  0  0  0  0  0  0  0  0  0  0  0
  130.0940  120.3450   60.5880 H   0  0  0  0  0  0  0  0  0  0  0  0
  126.6874  122.6883   59.4167 H   0  0  0  0  0  0  0  0  0  0  0  0
  125.5369  124.7766   58.7403 H   0  0  0  0  0  0  0  0  0  0  0  0
  127.2634  126.9412   57.1932 H   0  0  0  0  0  0  0  0  0  0  0  0
  128.6834  128.6048   56.0139 H   0  0  0  0  0  0  0  0  0  0  0  0
  129.2575  130.7532   57.1261 H   0  0  0  0  0  0  0  0  0  0  0  0
  130.0286  132.5302   64.0154 H   0  0  0  0  0  0  0  0  0  0  0  0
  125.4584  129.2565   62.4130 H   0  0  0  0  0  0  0  0  0  0  0  0
  124.6408  129.8904   60.9445 H   0  0  0  0  0  0  0  0  0  0  0  0
  125.3272  128.2304   60.9445 H   0  0  0  0  0  0  0  0  0  0  0  0
  125.9330  129.1256   63.8652 H   0  0  0  0  0  0  0  0  0  0  0  0
  126.8490  127.5070   63.1050 H   0  0  0  0  0  0  0  0  0  0  0  0
  126.4992  130.2144   65.7951 H   0  0  0  0  0  0  0  0  0  0  0  0
  126.8067  128.2273   66.7490 H   0  0  0  0  0  0  0  0  0  0  0  0
  127.9303  128.9031   68.6288 H   0  0  0  0  0  0  0  0  0  0  0  0
  129.4456  129.2466   67.7274 H   0  0  0  0  0  0  0  0  0  0  0  0
  128.1089  130.4466   67.7274 H   0  0  0  0  0  0  0  0  0  0  0  0
  129.1739  127.0958   66.8003 H   0  0  0  0  0  0  0  0  0  0  0  0
  128.1510  126.8990   65.3368 H   0  0  0  0  0  0  0  0  0  0  0  0
  129.5003  128.0849   65.3368 H   0  0  0  0  0  0  0  0  0  0  0  0
  128.2750  127.3780   62.3370 H   0  0  0  0  0  0  0  0  0  0  0  0
  129.5442  125.5111   64.3716 H   0  0  0  0  0  0  0  0  0  0  0  0
  130.5971  126.4030   63.2215 H   0  0  0  0  0  0  0  0  0  0  0  0
  128.8236  126.6878   63.2215 H   0  0  0  0  0  0  0  0  0  0  0  0
  132.0302  125.1825   62.9737 H   0  0  0  0  0  0  0  0  0  0  0  0
  1  2  1  0
  2  3  1  0
  3  4  2  0
  4  5  1  0
  5  6  1  0
  5  7  2  0
  7  8  1  0
  8  9  2  0
  8 10  1  0
 10 11  2  0
 11 12  1  0
 12 13  2  0
 13 14  1  0
 14 15  1  0
 15 16  2  0
 16 17  1  0
 17 18  2  0
 18 19  1  0
 19 20  1  0
 20 21  2  0
 20 22  1  0
 22 23  2  0
 23 24  1  0
 23 25  1  0
 25 26  2  0
 26 27  1  0
 27 28  2  0
 28 29  1  0
 29 30  1  0
 29 31  1  0
 27 32  1  0
 32 33  1  0
 32 34  1  0
 34 35  1  0
 35 36  1  0
 35 37  1  0
 34 38  1  0
 13 39  1  0
 39 40  1  0
 39 41  2  0
 41 42  1  0
 42 43  1  0
 42 44  1  0
 44 45  2  0
 45  3  1  0
 44  7  1  0
 41 10  1  0
 31 15  1  0
 31 19  2  0
 28 22  1  0
 38 26  1  0
  1 46  1  0
  1 47  1  0
  1 48  1  0
  4 49  1  0
  6 50  1  0
 11 51  1  0
 12 52  1  0
 16 53  1  0
 17 54  1  0
 18 55  1  0
 25 56  1  0
 30 57  1  0
 30 58  1  0
 30 59  1  0
 32 60  1  1
 33 61  1  0
 34 62  1  1
 35 63  1  0
 36 64  1  0
 36 65  1  0
 36 66  1  0
 37 67  1  0
 37 68  1  0
 37 69  1  0
 40 70  1  0
 43 71  1  0
 43 72  1  0
 43 73  1  0
 45 74  1  0
M  CHG  1  24  -1
M  END
>  <Binding energies>  (1) 
[-5.98]

>  <Ligand effiencies>  (1) 
[-0.12458333333333334]

>  <Interactions>  (1) 
["V-B:PRO:540:CA:9855, V-A:GLU:543:CA:4904, H-A:ALA:541:N:4891, V-B:ASP:366:CG:8184, V-B:TYR:539:CE2:9848, V-B:GLU:543:CG:9879, V-A:ASP:366:CG:3213, V-B:TYR:484:CE2:9317, H-B:GLU:543:OE1:9881, V-A:ALA:541:CB:4892, H-B:ALA:541:N:9863, V-A:GLU:543:CD:4908, V-B:PRO:540:CB:9857, H-B:TYR:484:OH:9319, V-B:HIS:456:CE1:9041, H-A:GLY:454:N:4050, V-A:GLY:453:C:4042, V-A:ILE:369:CD1:3239, V-B:TYR:484:CZ:9318, V-B:TYR:539:CD2:9846, V-A:GLU:543:CG:4907, V-B:GLU:543:CD:9880, V-A:MET:535:CE:4835, V-A:LEU:475:CD2:4259, V-A:GLU:543:CB:4906, H-B:GLU:543:OE2:9882, V-A:GLY:453:CA:4044, H-B:TYR:539:O:9840"]

$$$$
ZINC85742716-again3
     RDKit          3D

 73 79  0  0  0  0  0  0  0  0999 V2000
  133.8500  125.0780   65.6720 C   0  0  0  0  0  0  0  0  0  0  0  0
  133.5870  124.9360   64.2800 O   0  0  0  0  0  0  0  0  0  0  0  0
  132.3520  124.4720   63.8710 C   0  0  0  0  0  0  0  0  0  0  0  0
  131.5040  123.6790   64.6510 C   0  0  0  0  0  0  0  0  0  0  0  0
  130.2530  123.2890   64.1760 C   0  0  0  0  0  0  0  0  0  0  0  0
  129.4670  122.5570   65.0330 O   0  0  0  0  0  0  0  0  0  0  0  0
  129.8320  123.6620   62.8810 C   0  0  0  0  0  0  0  0  0  0  0  0
  128.4680  123.3400   62.3520 C   0  0  0  0  0  0  0  0  0  0  0  0
  127.7230  122.4970   62.8610 O   0  0  0  0  0  0  0  0  0  0  0  0
  127.9830  124.3160   61.3270 C   0  0  0  0  0  0  0  0  0  0  0  0
  126.6050  124.4850   61.1690 C   0  0  0  0  0  0  0  0  0  0  0  0
  126.1020  125.4570   60.3230 C   0  0  0  0  0  0  0  0  0  0  0  0
  126.9590  126.3270   59.6510 C   0  0  0  0  0  0  0  0  0  0  0  0
  126.4120  127.3130   58.8430 O   0  0  0  0  0  0  0  0  0  0  0  0
  127.2350  128.2720   58.2950 C   0  0  0  0  0  0  0  0  0  0  0  0
  127.8270  127.9960   57.0580 C   0  0  0  0  0  0  0  0  0  0  0  0
  128.7050  128.9010   56.4780 C   0  0  0  0  0  0  0  0  0  0  0  0
  129.0250  130.0770   57.1480 C   0  0  0  0  0  0  0  0  0  0  0  0
  128.4460  130.3730   58.3890 C   0  0  0  0  0  0  0  0  0  0  0  0
  128.8750  131.5860   59.1420 C   0  0  0  0  0  0  0  0  0  0  0  0
  129.4790  132.5040   58.5820 O   0  0  0  0  0  0  0  0  0  0  0  0
  128.7510  131.4410   60.6480 C   0  0  0  0  0  0  0  0  0  0  0  0
  129.5960  132.1210   61.5820 C   0  0  0  0  0  0  0  0  0  0  0  0
  130.4970  132.9730   61.2660 O   0  0  0  0  0  0  0  0  0  0  0  0
  129.4920  131.8500   62.9490 C   0  0  0  0  0  0  0  0  0  0  0  0
  128.5850  130.9040   63.3820 C   0  0  0  0  0  0  0  0  0  0  0  0
  127.7450  130.2330   62.5190 C   0  0  0  0  0  0  0  0  0  0  0  0
  127.7540  130.5410   61.1410 C   0  0  0  0  0  0  0  0  0  0  0  0
  126.9670  129.8190   60.2180 N   0  0  0  0  0  0  0  0  0  0  0  0
  125.6500  129.3100   60.6090 C   0  0  0  0  0  0  0  0  0  0  0  0
  127.4740  129.5080   58.9430 C   0  0  0  0  0  0  0  0  0  0  0  0
  127.0500  129.1800   63.3470 C   0  0  1  0  0  0  0  0  0  0  0  0
  127.5230  127.8850   63.0250 O   0  0  0  0  0  0  0  0  0  0  0  0
  127.3580  129.6440   64.7920 C   0  0  1  0  0  0  0  0  0  0  0  0
  127.6120  128.5600   65.8770 C   0  0  0  0  0  0  0  0  0  0  0  0
  127.9520  129.1850   67.2450 C   0  0  0  0  0  0  0  0  0  0  0  0
  128.7200  127.5720   65.4590 C   0  0  0  0  0  0  0  0  0  0  0  0
  128.4820  130.5140   64.6910 O   0  0  0  0  0  0  0  0  0  0  0  0
  128.3580  126.1660   59.7780 C   0  0  0  0  0  0  0  0  0  0  0  0
  129.0960  127.0340   59.1900 O   0  0  0  0  0  0  0  0  0  0  0  0
  128.8960  125.0860   60.5540 C   0  0  0  0  0  0  0  0  0  0  0  0
  130.2770  124.8400   60.7930 N   0  0  0  0  0  0  0  0  0  0  0  0
  131.3030  125.1650   59.7930 C   0  0  0  0  0  0  0  0  0  0  0  0
  130.7180  124.3890   62.0500 C   0  0  0  0  0  0  0  0  0  0  0  0
  131.9350  124.8330   62.5940 C   0  0  0  0  0  0  0  0  0  0  0  0
  133.0255  124.6328   66.2482 H   0  0  0  0  0  0  0  0  0  0  0  0
  134.7906  124.5651   65.9216 H   0  0  0  0  0  0  0  0  0  0  0  0
  133.9371  126.1457   65.9216 H   0  0  0  0  0  0  0  0  0  0  0  0
  131.8285  123.3590   65.6521 H   0  0  0  0  0  0  0  0  0  0  0  0
  128.5500  122.5190   64.7520 H   0  0  0  0  0  0  0  0  0  0  0  0
  125.9113  123.8368   61.7245 H   0  0  0  0  0  0  0  0  0  0  0  0
  125.0149  125.5442   60.1791 H   0  0  0  0  0  0  0  0  0  0  0  0
  127.5947  127.0536   56.5405 H   0  0  0  0  0  0  0  0  0  0  0  0
  129.1458  128.6891   55.4927 H   0  0  0  0  0  0  0  0  0  0  0  0
  129.7401  130.7820   56.6989 H   0  0  0  0  0  0  0  0  0  0  0  0
  130.1259  132.3846   63.6718 H   0  0  0  0  0  0  0  0  0  0  0  0
  125.5786  129.2824   61.7063 H   0  0  0  0  0  0  0  0  0  0  0  0
  124.8675  129.9705   60.2071 H   0  0  0  0  0  0  0  0  0  0  0  0
  125.5151  128.2950   60.2071 H   0  0  0  0  0  0  0  0  0  0  0  0
  125.9671  129.0899   63.1759 H   0  0  0  0  0  0  0  0  0  0  0  0
  126.8040  127.2600   63.1360 H   0  0  0  0  0  0  0  0  0  0  0  0
  126.4375  130.1161   65.1660 H   0  0  0  0  0  0  0  0  0  0  0  0
  126.6708  127.9993   65.9762 H   0  0  0  0  0  0  0  0  0  0  0  0
  127.5932  128.5254   68.0488 H   0  0  0  0  0  0  0  0  0  0  0  0
  129.0416  129.3085   67.3310 H   0  0  0  0  0  0  0  0  0  0  0  0
  127.4637  130.1669   67.3310 H   0  0  0  0  0  0  0  0  0  0  0  0
  129.1932  127.1500   66.3579 H   0  0  0  0  0  0  0  0  0  0  0  0
  128.2808  126.7603   64.8605 H   0  0  0  0  0  0  0  0  0  0  0  0
  129.4763  128.1010   64.8605 H   0  0  0  0  0  0  0  0  0  0  0  0
  132.2320  125.4593   60.3032 H   0  0  0  0  0  0  0  0  0  0  0  0
  131.4938  124.2833   59.1635 H   0  0  0  0  0  0  0  0  0  0  0  0
  130.9514  125.9957   59.1635 H   0  0  0  0  0  0  0  0  0  0  0  0
  132.5797  125.4881   61.9897 H   0  0  0  0  0  0  0  0  0  0  0  0
  1  2  1  0
  2  3  1  0
  3  4  2  0
  4  5  1  0
  5  6  1  0
  5  7  2  0
  7  8  1  0
  8  9  2  0
  8 10  1  0
 10 11  2  0
 11 12  1  0
 12 13  2  0
 13 14  1  0
 14 15  1  0
 15 16  2  0
 16 17  1  0
 17 18  2  0
 18 19  1  0
 19 20  1  0
 20 21  2  0
 20 22  1  0
 22 23  2  0
 23 24  1  0
 23 25  1  0
 25 26  2  0
 26 27  1  0
 27 28  2  0
 28 29  1  0
 29 30  1  0
 29 31  1  0
 27 32  1  0
 32 33  1  0
 32 34  1  0
 34 35  1  0
 35 36  1  0
 35 37  1  0
 34 38  1  0
 13 39  1  0
 39 40  1  0
 39 41  2  0
 41 42  1  0
 42 43  1  0
 42 44  1  0
 44 45  2  0
 45  3  1  0
 44  7  1  0
 41 10  1  0
 31 15  1  0
 31 19  2  0
 28 22  1  0
 38 26  1  0
  1 46  1  0
  1 47  1  0
  1 48  1  0
  4 49  1  0
  6 50  1  0
 11 51  1  0
 12 52  1  0
 16 53  1  0
 17 54  1  0
 18 55  1  0
 25 56  1  0
 30 57  1  0
 30 58  1  0
 30 59  1  0
 32 60  1  1
 33 61  1  0
 34 62  1  1
 35 63  1  0
 36 64  1  0
 36 65  1  0
 36 66  1  0
 37 67  1  0
 37 68  1  0
 37 69  1  0
 43 70  1  0
 43 71  1  0
 43 72  1  0
 45 73  1  0
M  CHG  2  24  -1  40  -1
M  END
>  <Binding energies>  (1) 
[-5.37]

>  <Ligand effiencies>  (1) 
[-0.11425531914893618]

>  <Interactions>  (1) 
["V-A:GLY:454:CA:4049, H-A:ALA:541:N:4891, V-B:ASP:366:CG:8184, V-A:TYR:484:CE2:4346, V-B:GLU:543:CG:9879, H-B:GLU:543:OE1:9881, V-A:ALA:541:CB:4892, H-B:ALA:541:N:9863, V-A:TYR:484:CZ:4347, V-A:GLU:543:CD:4908, H-B:TYR:484:OH:9319, V-A:ARG:545:CG:4922, H-A:GLY:454:N:4050, V-B:HIS:456:CE1:9041, V-B:TYR:484:CZ:9318, V-A:GLU:543:CG:4907, V-B:GLU:543:CD:9880, V-A:MET:535:CE:4835, H-B:TYR:531:OH:9767, V-A:ARG:545:CD:4923, H-A:ARG:545:NH2:4928, V-A:ARG:545:CZ:4926, V-A:GLU:543:CB:4906, H-B:GLU:543:OE2:9882, V-A:PRO:540:CA:4883, H-A:ARG:545:NE:4924, H-A:TYR:484:OH:4348"]

$$$$
ZINC85742771-again1
     RDKit          3D

 81 88  0  0  0  0  0  0  0  0999 V2000
  127.3650  124.6400   61.4780 C   0  0  0  0  0  0  0  0  0  0  0  0
  126.1240  125.2920   60.8360 C   0  0  0  0  0  0  0  0  0  0  0  0
  126.0070  124.8600   59.3600 C   0  0  0  0  0  0  0  0  0  0  0  0
  126.1360  126.8380   60.9930 C   0  0  1  0  0  0  0  0  0  0  0  0
  126.6080  127.1960   62.2890 O   0  0  0  0  0  0  0  0  0  0  0  0
  127.2980  128.3730   62.1690 C   0  0  0  0  0  0  0  0  0  0  0  0
  127.7890  129.0700   63.2540 C   0  0  0  0  0  0  0  0  0  0  0  0
  128.5680  130.2100   63.0360 C   0  0  0  0  0  0  0  0  0  0  0  0
  129.0250  130.7650   64.0960 O   0  0  0  0  0  0  0  0  0  0  0  0
  128.8320  130.6580   61.7030 C   0  0  0  0  0  0  0  0  0  0  0  0
  129.7650  131.8070   61.3700 C   0  0  0  0  0  0  0  0  0  0  0  0
  130.1390  132.6530   62.1860 O   0  0  0  0  0  0  0  0  0  0  0  0
  130.4250  131.6710   60.0410 C   0  0  0  0  0  0  0  0  0  0  0  0
  131.6960  132.2250   59.8310 C   0  0  0  0  0  0  0  0  0  0  0  0
  132.3650  132.0280   58.6290 C   0  0  0  0  0  0  0  0  0  0  0  0
  131.7810  131.2530   57.6340 C   0  0  0  0  0  0  0  0  0  0  0  0
  130.5140  130.6960   57.8210 C   0  0  0  0  0  0  0  0  0  0  0  0
  130.0160  129.9010   56.8140 O   0  0  0  0  0  0  0  0  0  0  0  0
  129.7840  128.5600   57.0510 C   0  0  0  0  0  0  0  0  0  0  0  0
  128.6980  127.8840   56.4820 C   0  0  0  0  0  0  0  0  0  0  0  0
  128.5010  126.5260   56.7210 C   0  0  0  0  0  0  0  0  0  0  0  0
  129.3930  125.8110   57.5290 C   0  0  0  0  0  0  0  0  0  0  0  0
  129.1400  124.3780   57.8850 C   0  0  0  0  0  0  0  0  0  0  0  0
  128.3190  123.6950   57.2700 O   0  0  0  0  0  0  0  0  0  0  0  0
  129.7910  123.9500   59.1970 C   0  0  0  0  0  0  0  0  0  0  0  0
  129.3300  122.8840   60.0240 C   0  0  0  0  0  0  0  0  0  0  0  0
  128.3550  122.1090   59.7290 O   0  0  0  0  0  0  0  0  0  0  0  0
  129.9420  122.6390   61.2590 C   0  0  0  0  0  0  0  0  0  0  0  0
  130.9890  123.4350   61.6970 C   0  0  0  0  0  0  0  0  0  0  0  0
  131.4570  124.4960   60.9210 C   0  0  0  0  0  0  0  0  0  0  0  0
  130.8930  124.7300   59.6550 C   0  0  0  0  0  0  0  0  0  0  0  0
  131.4220  125.7160   58.8130 N   0  0  0  0  0  0  0  0  0  0  0  0
  132.6450  125.3500   58.1000 C   0  0  0  0  0  0  0  0  0  0  0  0
  130.5120  126.4760   58.0750 C   0  0  0  0  0  0  0  0  0  0  0  0
  130.6960  127.8500   57.8420 C   0  0  0  0  0  0  0  0  0  0  0  0
  131.7710  128.5180   58.3820 O   0  0  0  0  0  0  0  0  0  0  0  0
  132.5880  125.2620   61.4720 C   0  0  0  0  0  0  0  0  0  0  0  0
  133.2740  124.8090   62.5330 C   0  0  0  0  0  0  0  0  0  0  0  0
  132.9320  123.4430   63.1370 C   0  0  0  0  0  0  0  0  0  0  0  0
  133.1570  123.5020   64.6590 C   0  0  0  0  0  0  0  0  0  0  0  0
  133.7510  122.3460   62.4230 C   0  0  0  0  0  0  0  0  0  0  0  0
  131.5200  123.1660   62.9510 O   0  0  0  0  0  0  0  0  0  0  0  0
  129.7790  130.9610   59.0020 C   0  0  0  0  0  0  0  0  0  0  0  0
  128.5350  130.3690   59.2880 N   0  0  0  0  0  0  0  0  0  0  0  0
  127.6060  130.0870   58.1910 C   0  0  0  0  0  0  0  0  0  0  0  0
  128.2230  129.9700   60.6060 C   0  0  0  0  0  0  0  0  0  0  0  0
  127.5130  128.7770   60.8670 C   0  0  0  0  0  0  0  0  0  0  0  0
  126.9750  127.6720   59.9930 C   0  0  1  0  0  0  0  0  0  0  0  0
  128.0270  126.9620   59.3650 O   0  0  0  0  0  0  0  0  0  0  0  0
  127.2778  124.6858   62.5736 H   0  0  0  0  0  0  0  0  0  0  0  0
  127.4335  123.5894   61.1592 H   0  0  0  0  0  0  0  0  0  0  0  0
  128.2690  125.1796   61.1592 H   0  0  0  0  0  0  0  0  0  0  0  0
  125.2297  124.9377   61.3696 H   0  0  0  0  0  0  0  0  0  0  0  0
  125.7197  123.7993   59.3101 H   0  0  0  0  0  0  0  0  0  0  0  0
  125.2420  125.4711   58.8586 H   0  0  0  0  0  0  0  0  0  0  0  0
  126.9758  125.0015   58.8586 H   0  0  0  0  0  0  0  0  0  0  0  0
  125.0832  127.0877   60.7948 H   0  0  0  0  0  0  0  0  0  0  0  0
  127.5701  128.7327   64.2779 H   0  0  0  0  0  0  0  0  0  0  0  0
  132.1681  132.8214   60.6256 H   0  0  0  0  0  0  0  0  0  0  0  0
  133.3528  132.4836   58.4657 H   0  0  0  0  0  0  0  0  0  0  0  0
  132.3209  131.0770   56.6919 H   0  0  0  0  0  0  0  0  0  0  0  0
  127.9927  128.4312   55.8393 H   0  0  0  0  0  0  0  0  0  0  0  0
  127.6386  126.0118   56.2717 H   0  0  0  0  0  0  0  0  0  0  0  0
  129.5891  121.8078   61.8872 H   0  0  0  0  0  0  0  0  0  0  0  0
  133.4362  125.1132   58.8266 H   0  0  0  0  0  0  0  0  0  0  0  0
  132.4519  124.4703   57.4685 H   0  0  0  0  0  0  0  0  0  0  0  0
  132.9669  126.1912   57.4685 H   0  0  0  0  0  0  0  0  0  0  0  0
  132.1090  128.0930   59.1730 H   0  0  0  0  0  0  0  0  0  0  0  0
  132.8741  126.2175   61.0081 H   0  0  0  0  0  0  0  0  0  0  0  0
  134.0805  125.4174   62.9682 H   0  0  0  0  0  0  0  0  0  0  0  0
  132.2189  123.2560   65.1781 H   0  0  0  0  0  0  0  0  0  0  0  0
  133.9342  122.7773   64.9431 H   0  0  0  0  0  0  0  0  0  0  0  0
  133.4786  124.5148   64.9431 H   0  0  0  0  0  0  0  0  0  0  0  0
  134.2324  121.7012   63.1730 H   0  0  0  0  0  0  0  0  0  0  0  0
  133.0823  121.7403   61.7937 H   0  0  0  0  0  0  0  0  0  0  0  0
  134.5217  122.8149   61.7937 H   0  0  0  0  0  0  0  0  0  0  0  0
  126.6303  129.7908   58.6037 H   0  0  0  0  0  0  0  0  0  0  0  0
  127.4842  130.9886   57.5728 H   0  0  0  0  0  0  0  0  0  0  0  0
  128.0059  129.2698   57.5728 H   0  0  0  0  0  0  0  0  0  0  0  0
  126.3662  128.0070   59.1403 H   0  0  0  0  0  0  0  0  0  0  0  0
  128.7690  126.9160   59.9720 H   0  0  0  0  0  0  0  0  0  0  0  0
  1  2  1  0
  2  3  1  0
  2  4  1  0
  4  5  1  0
  5  6  1  0
  6  7  2  0
  7  8  1  0
  8  9  1  0
  8 10  2  0
 10 11  1  0
 11 12  2  0
 11 13  1  0
 13 14  2  0
 14 15  1  0
 15 16  2  0
 16 17  1  0
 17 18  1  0
 18 19  1  0
 19 20  2  0
 20 21  1  0
 21 22  2  0
 22 23  1  0
 23 24  2  0
 23 25  1  0
 25 26  2  0
 26 27  1  0
 26 28  1  0
 28 29  2  0
 29 30  1  0
 30 31  2  0
 31 32  1  0
 32 33  1  0
 32 34  1  0
 34 35  2  0
 35 36  1  0
 30 37  1  0
 37 38  2  0
 38 39  1  0
 39 40  1  0
 39 41  1  0
 39 42  1  0
 17 43  2  0
 43 44  1  0
 44 45  1  0
 44 46  1  0
 46 47  2  0
 47 48  1  0
 48 49  1  0
 48  4  1  0
 47  6  1  0
 46 10  1  0
 43 13  1  0
 35 19  1  0
 34 22  1  0
 31 25  1  0
 42 29  1  0
  1 50  1  0
  1 51  1  0
  1 52  1  0
  2 53  1  0
  3 54  1  0
  3 55  1  0
  3 56  1  0
  4 57  1  1
  7 58  1  0
 14 59  1  0
 15 60  1  0
 16 61  1  0
 20 62  1  0
 21 63  1  0
 28 64  1  0
 33 65  1  0
 33 66  1  0
 33 67  1  0
 36 68  1  0
 37 69  1  0
 38 70  1  0
 40 71  1  0
 40 72  1  0
 40 73  1  0
 41 74  1  0
 41 75  1  0
 41 76  1  0
 45 77  1  0
 45 78  1  0
 45 79  1  0
 48 80  1  6
 49 81  1  0
M  CHG  2   9  -1  27  -1
M  END
>  <Binding energies>  (1) 
[-3.52]

>  <Ligand effiencies>  (1) 
[-0.06901960784313725]

>  <Interactions>  (1) 
["V-A:ASP:366:CA:3210, V-A:PRO:540:CG:4886, V-A:GLY:454:CA:4049, H-A:ALA:541:N:4891, V-A:PRO:540:C:4881, V-B:ASP:366:CG:8184, H-A:TYR:531:OH:4795, V-B:TYR:539:CE2:9848, V-A:ASP:366:CG:3213, V-A:LEU:363:CD1:3189, V-B:TYR:539:CZ:9849, H-B:TYR:539:OH:9850, V-A:GLU:543:CD:4908, V-A:TYR:484:CZ:4347, V-A:ILE:369:CD1:3239, V-B:TYR:539:CD2:9846, V-B:GLU:543:CD:9880, V-A:MET:535:CE:4835, V-A:ASP:366:CB:3212, V-A:LEU:475:CD2:4259, V-A:ARG:545:CZ:4926, H-B:ARG:545:NH2:9900, V-A:PRO:540:N:4884, V-A:PRO:540:CB:4885, V-A:PRO:540:CA:4883, H-A:ASP:366:OD2:3215"]

$$$$
ZINC85772817-again1
     RDKit          3D

 87 92  0  0  0  0  0  0  0  0999 V2000
  129.1140  133.6860   57.8960 C   0  0  0  0  0  0  0  0  0  0  0  0
  129.6590  132.9960   58.9120 C   0  0  0  0  0  0  0  0  0  0  0  0
  129.7680  131.5480   59.0300 C   0  0  0  0  0  0  0  0  0  0  0  0
  130.5650  130.6840   58.2280 C   0  0  0  0  0  0  0  0  0  0  0  0
  131.5010  131.0860   57.1040 C   0  0  0  0  0  0  0  0  0  0  0  0
  130.3420  129.3940   58.6460 C   0  0  0  0  0  0  0  0  0  0  0  0
  130.9490  128.1830   58.2620 C   0  0  0  0  0  0  0  0  0  0  0  0
  130.4230  126.9490   58.6270 C   0  0  0  0  0  0  0  0  0  0  0  0
  131.2650  125.9760   59.0430 N   0  0  0  0  0  0  0  0  0  0  0  0
  130.5080  124.9330   59.4600 C   0  0  0  0  0  0  0  0  0  0  0  0
  130.6890  124.4020   60.7310 C   0  0  0  0  0  0  0  0  0  0  0  0
  130.2830  125.0740   61.8860 C   0  0  0  0  0  0  0  0  0  0  0  0
  129.7640  126.3040   62.1920 N   0  0  0  0  0  0  0  0  0  0  0  0
  129.4710  126.3170   63.5440 C   0  0  0  0  0  0  0  0  0  0  0  0
  128.8390  127.3590   64.2620 C   0  0  0  0  0  0  0  0  0  0  0  0
  128.4470  128.6210   63.7550 C   0  0  0  0  0  0  0  0  0  0  0  0
  128.7020  129.0980   62.4900 N   0  0  0  0  0  0  0  0  0  0  0  0
  128.2520  130.3910   62.3250 C   0  0  0  0  0  0  0  0  0  0  0  0
  128.4870  131.1910   61.1750 C   0  0  0  0  0  0  0  0  0  0  0  0
  129.1930  130.7800   60.0200 C   0  0  0  0  0  0  0  0  0  0  0  0
  129.4610  129.4750   59.6950 N   0  0  0  0  0  0  0  0  0  0  0  0
  127.6210  130.7100   63.5100 C   0  0  0  0  0  0  0  0  0  0  0  0
  126.9400  131.9800   63.7710 C   0  0  0  0  0  0  0  0  0  0  0  0
  127.4420  132.9310   64.3680 O   0  0  0  0  0  0  0  0  0  0  0  0
  127.7640  129.6200   64.4160 C   0  0  0  0  0  0  0  0  0  0  0  0
  127.2730  129.5380   65.8590 C   0  0  0  0  0  0  0  0  0  0  0  0
  128.3750  129.0640   66.8170 C   0  0  0  0  0  0  0  0  0  0  0  0
  129.8870  125.0950   64.0640 C   0  0  0  0  0  0  0  0  0  0  0  0
  129.8000  124.6630   65.5130 C   0  0  0  0  0  0  0  0  0  0  0  0
  130.3710  124.3060   62.9970 C   0  0  0  0  0  0  0  0  0  0  0  0
  130.9250  123.0010   62.6770 C   0  0  0  0  0  0  0  0  0  0  0  0
  131.2430  122.0970   63.4510 O   0  0  0  0  0  0  0  0  0  0  0  0
  131.0030  122.9770   61.1310 C   0  0  1  0  0  0  0  0  0  0  0  0
  130.0300  122.0860   60.5430 O   0  0  0  0  0  0  0  0  0  0  0  0
  128.8240  121.7500   61.2380 C   0  0  0  0  0  0  0  0  0  0  0  0
  132.3740  122.5380   60.5270 C   0  0  0  0  0  0  0  0  0  0  0  0
  132.8380  121.4120   60.7330 O   0  0  0  0  0  0  0  0  0  0  0  0
  132.9600  123.4780   59.7430 O   0  0  0  0  0  0  0  0  0  0  0  0
  133.9960  124.3050   60.2520 C   0  0  0  0  0  0  0  0  0  0  0  0
  129.1450  125.0000   58.8070 C   0  0  2  0  0  0  0  0  0  0  0  0
  129.0820  124.2830   57.4310 C   0  0  0  0  0  0  0  0  0  0  0  0
  127.6410  124.0650   56.9200 C   0  0  0  0  0  0  0  0  0  0  0  0
  126.9420  122.8190   57.4750 C   0  0  0  0  0  0  0  0  0  0  0  0
  126.5120  121.9210   56.7460 O   0  0  0  0  0  0  0  0  0  0  0  0
  126.8680  122.8480   58.8200 O   0  0  0  0  0  0  0  0  0  0  0  0
  126.0670  123.8180   59.4780 C   0  0  0  0  0  0  0  0  0  0  0  0
  128.9750  126.5150   58.7850 C   0  0  2  0  0  0  0  0  0  0  0  0
  127.9880  127.0580   57.7290 C   0  0  0  0  0  0  0  0  0  0  0  0
  129.0930  134.7854   57.9265 H   0  0  0  0  0  0  0  0  0  0  0  0
  128.6889  133.1515   57.0337 H   0  0  0  0  0  0  0  0  0  0  0  0
  130.0668  133.5883   59.7444 H   0  0  0  0  0  0  0  0  0  0  0  0
  132.4333  131.4864   57.5288 H   0  0  0  0  0  0  0  0  0  0  0  0
  131.7286  130.2063   56.4841 H   0  0  0  0  0  0  0  0  0  0  0  0
  131.0198  131.8568   56.4841 H   0  0  0  0  0  0  0  0  0  0  0  0
  131.8662  128.2142   57.6555 H   0  0  0  0  0  0  0  0  0  0  0  0
  129.5780  127.0450   61.5330 H   0  0  0  0  0  0  0  0  0  0  0  0
  128.6304  127.1687   65.3252 H   0  0  0  0  0  0  0  0  0  0  0  0
  129.2240  128.5910   61.7910 H   0  0  0  0  0  0  0  0  0  0  0  0
  128.0866  132.2155   61.1832 H   0  0  0  0  0  0  0  0  0  0  0  0
  129.1410  128.6780   60.2240 H   0  0  0  0  0  0  0  0  0  0  0  0
  125.9076  132.0911   63.4078 H   0  0  0  0  0  0  0  0  0  0  0  0
  126.9326  130.5351   66.1752 H   0  0  0  0  0  0  0  0  0  0  0  0
  126.4527  128.8061   65.8970 H   0  0  0  0  0  0  0  0  0  0  0  0
  128.0437  129.2065   67.8562 H   0  0  0  0  0  0  0  0  0  0  0  0
  128.5806  127.9979   66.6406 H   0  0  0  0  0  0  0  0  0  0  0  0
  129.2903  129.6480   66.6406 H   0  0  0  0  0  0  0  0  0  0  0  0
  129.9748  125.5311   66.1656 H   0  0  0  0  0  0  0  0  0  0  0  0
  128.8005  124.2494   65.7129 H   0  0  0  0  0  0  0  0  0  0  0  0
  130.5615  123.8948   65.7129 H   0  0  0  0  0  0  0  0  0  0  0  0
  129.0001  121.7991   62.3227 H   0  0  0  0  0  0  0  0  0  0  0  0
  128.0317  122.4616   60.9626 H   0  0  0  0  0  0  0  0  0  0  0  0
  128.5138  120.7312   60.9626 H   0  0  0  0  0  0  0  0  0  0  0  0
  133.9730  124.2866   61.3516 H   0  0  0  0  0  0  0  0  0  0  0  0
  134.9691  123.9326   59.8993 H   0  0  0  0  0  0  0  0  0  0  0  0
  133.8485  125.3364   59.8993 H   0  0  0  0  0  0  0  0  0  0  0  0
  128.3287  124.4685   59.3181 H   0  0  0  0  0  0  0  0  0  0  0  0
  129.6249  124.8934   56.6943 H   0  0  0  0  0  0  0  0  0  0  0  0
  129.5350  123.2891   57.5610 H   0  0  0  0  0  0  0  0  0  0  0  0
  127.0428  124.9451   57.1984 H   0  0  0  0  0  0  0  0  0  0  0  0
  127.7179  123.9175   55.8326 H   0  0  0  0  0  0  0  0  0  0  0  0
  126.1662  123.6979   60.5669 H   0  0  0  0  0  0  0  0  0  0  0  0
  126.3996  124.8257   59.1885 H   0  0  0  0  0  0  0  0  0  0  0  0
  125.0145  123.6820   59.1885 H   0  0  0  0  0  0  0  0  0  0  0  0
  128.4838  126.9270   59.6789 H   0  0  0  0  0  0  0  0  0  0  0  0
  127.1322  127.5288   58.2349 H   0  0  0  0  0  0  0  0  0  0  0  0
  128.4973  127.8029   57.0999 H   0  0  0  0  0  0  0  0  0  0  0  0
  127.6314  126.2291   57.0999 H   0  0  0  0  0  0  0  0  0  0  0  0
  1  2  2  0
  2  3  1  0
  3  4  2  0
  4  5  1  0
  4  6  1  0
  6  7  2  0
  7  8  1  0
  8  9  2  0
  9 10  1  0
 10 11  2  0
 11 12  1  0
 12 13  2  0
 13 14  1  0
 14 15  2  0
 15 16  1  0
 16 17  1  0
 17 18  1  0
 18 19  1  0
 19 20  2  0
 20 21  1  0
 18 22  2  0
 22 23  1  0
 23 24  2  0
 22 25  1  0
 25 26  1  0
 26 27  1  0
 14 28  1  0
 28 29  1  0
 28 30  2  0
 30 31  1  0
 31 32  2  0
 31 33  1  0
 33 34  1  6
 34 35  1  0
 33 36  1  0
 36 37  2  0
 36 38  1  0
 38 39  1  0
 10 40  1  0
 40 41  1  0
 41 42  1  0
 42 43  1  0
 43 44  2  0
 43 45  1  0
 45 46  1  0
 40 47  1  0
 47 48  1  0
 20  3  1  0
 21  6  1  0
 47  8  1  0
 33 11  1  0
 30 12  1  0
 25 16  2  0
  1 49  1  0
  1 50  1  0
  2 51  1  0
  5 52  1  0
  5 53  1  0
  5 54  1  0
  7 55  1  0
 13 56  1  0
 15 57  1  0
 17 58  1  0
 19 59  1  0
 21 60  1  0
 23 61  1  0
 26 62  1  0
 26 63  1  0
 27 64  1  0
 27 65  1  0
 27 66  1  0
 29 67  1  0
 29 68  1  0
 29 69  1  0
 35 70  1  0
 35 71  1  0
 35 72  1  0
 39 73  1  0
 39 74  1  0
 39 75  1  0
 40 76  1  1
 41 77  1  0
 41 78  1  0
 42 79  1  0
 42 80  1  0
 46 81  1  0
 46 82  1  0
 46 83  1  0
 47 84  1  1
 48 85  1  0
 48 86  1  0
 48 87  1  0
M  CHG  1  13   1
M  END
>  <Binding energies>  (1) 
[-8.91]

>  <Ligand effiencies>  (1) 
[-0.17470588235294118]

>  <Interactions>  (1) 
["V-A:ILE:369:CG2:3237, V-A:ASP:366:CA:3210, V-B:PRO:540:CA:9855, V-B:TYR:539:CE1:9847, V-A:ILE:369:CB:3236, V-B:GLU:543:CB:9878, V-B:ALA:541:CB:9864, V-B:TYR:539:CE2:9848, H-B:TYR:539:N:9842, V-B:GLU:543:CG:9879, V-B:TYR:539:C:9839, V-A:ASP:366:CG:3213, V-A:TYR:539:CD1:4873, V-B:TYR:539:CZ:9849, V-A:TYR:539:CA:4869, V-A:GLU:543:CD:4908, V-B:PRO:540:CB:9857, H-B:TYR:484:OH:9319, V-B:HIS:456:CE1:9041, V-B:PRO:540:N:9856, V-B:TYR:484:CZ:9318, V-A:ILE:369:CD1:3239, V-A:TYR:539:CB:4871, V-B:TYR:539:CD2:9846, V-A:GLU:543:CG:4907, V-B:PRO:540:CD:9859, V-B:GLU:543:CD:9880, V-A:TYR:539:C:4867, V-A:ASP:366:CB:3212, V-A:LEU:475:CD2:4259, H-A:GLU:543:OE1:4909, V-A:GLU:543:CB:4906, V-A:PRO:540:N:4884, V-A:TYR:539:CG:4872, V-A:PRO:540:CB:4885, V-A:PRO:540:CA:4883, V-B:PRO:540:C:9853, V-A:TYR:539:CE1:4875"]

$$$$
ZINC85798093
     RDKit          3D

 74 80  0  0  0  0  0  0  0  0999 V2000
  125.6160  133.9070   60.8660 C   0  0  0  0  0  0  0  0  0  0  0  0
  126.7690  132.9250   60.9670 C   0  0  0  0  0  0  0  0  0  0  0  0
  126.6250  131.7280   61.5780 C   0  0  0  0  0  0  0  0  0  0  0  0
  127.7340  130.6960   61.8070 C   0  0  1  0  0  0  0  0  0  0  0  0
  127.4010  129.2930   61.2470 C   0  0  0  0  0  0  0  0  0  0  0  0
  126.5980  129.2070   60.1030 C   0  0  0  0  0  0  0  0  0  0  0  0
  126.2060  127.9770   59.5730 C   0  0  0  0  0  0  0  0  0  0  0  0
  125.4220  127.9990   58.4450 O   0  0  0  0  0  0  0  0  0  0  0  0
  126.6060  126.7790   60.1950 C   0  0  0  0  0  0  0  0  0  0  0  0
  126.2560  125.4120   59.6830 C   0  0  0  0  0  0  0  0  0  0  0  0
  125.4240  125.2200   58.7930 O   0  0  0  0  0  0  0  0  0  0  0  0
  127.1240  124.3090   60.1840 C   0  0  0  0  0  0  0  0  0  0  0  0
  127.2120  123.0720   59.5310 C   0  0  0  0  0  0  0  0  0  0  0  0
  128.0860  122.0880   59.9980 C   0  0  0  0  0  0  0  0  0  0  0  0
  128.8860  122.3320   61.1140 C   0  0  0  0  0  0  0  0  0  0  0  0
  128.8100  123.5570   61.7790 C   0  0  0  0  0  0  0  0  0  0  0  0
  129.6020  123.7840   62.8750 O   0  0  0  0  0  0  0  0  0  0  0  0
  127.9170  124.5330   61.3220 C   0  0  0  0  0  0  0  0  0  0  0  0
  127.8610  125.7340   62.0020 O   0  0  0  0  0  0  0  0  0  0  0  0
  127.4170  126.8680   61.3430 C   0  0  0  0  0  0  0  0  0  0  0  0
  127.8310  128.1020   61.8570 C   0  0  0  0  0  0  0  0  0  0  0  0
  128.6430  128.1190   62.9640 O   0  0  0  0  0  0  0  0  0  0  0  0
  129.1750  131.2660   61.4690 C   0  0  1  0  0  0  0  0  0  0  0  0
  129.7310  132.0330   62.7000 C   0  0  0  0  0  0  0  0  0  0  0  0
  130.1590  130.1090   61.2050 C   0  0  0  0  0  0  0  0  0  0  0  0
  129.9680  129.0110   60.4400 C   0  0  0  0  0  0  0  0  0  0  0  0
  130.9040  127.8760   60.2580 C   0  0  0  0  0  0  0  0  0  0  0  0
  131.2560  127.5490   58.9470 C   0  0  0  0  0  0  0  0  0  0  0  0
  132.1110  126.4830   58.6620 C   0  0  0  0  0  0  0  0  0  0  0  0
  132.3800  126.2260   57.3410 O   0  0  0  0  0  0  0  0  0  0  0  0
  132.6510  125.7080   59.7080 C   0  0  0  0  0  0  0  0  0  0  0  0
  133.5210  124.5010   59.4980 C   0  0  0  0  0  0  0  0  0  0  0  0
  134.0110  124.2060   58.4060 O   0  0  0  0  0  0  0  0  0  0  0  0
  133.5850  123.5620   60.6560 C   0  0  0  0  0  0  0  0  0  0  0  0
  133.9880  122.2260   60.5150 C   0  0  0  0  0  0  0  0  0  0  0  0
  133.9670  121.3640   61.6120 C   0  0  0  0  0  0  0  0  0  0  0  0
  133.5350  121.8210   62.8570 C   0  0  0  0  0  0  0  0  0  0  0  0
  133.1320  123.1470   63.0160 C   0  0  0  0  0  0  0  0  0  0  0  0
  132.7040  123.5830   64.2440 O   0  0  0  0  0  0  0  0  0  0  0  0
  133.1790  124.0160   61.9200 C   0  0  0  0  0  0  0  0  0  0  0  0
  132.7810  125.3250   62.1100 O   0  0  0  0  0  0  0  0  0  0  0  0
  132.3070  126.0510   61.0300 C   0  0  0  0  0  0  0  0  0  0  0  0
  131.4370  127.1100   61.3100 C   0  0  0  0  0  0  0  0  0  0  0  0
  131.1010  127.3550   62.6190 O   0  0  0  0  0  0  0  0  0  0  0  0
  129.1000  132.2370   60.2510 C   0  0  0  0  0  0  0  0  0  0  0  0
  128.1190  133.4100   60.4520 C   0  0  0  0  0  0  0  0  0  0  0  0
  125.2849  134.1890   61.8764 H   0  0  0  0  0  0  0  0  0  0  0  0
  125.9461  134.8056   60.3242 H   0  0  0  0  0  0  0  0  0  0  0  0
  124.7814  133.4381   60.3242 H   0  0  0  0  0  0  0  0  0  0  0  0
  125.6200  131.4714   61.9442 H   0  0  0  0  0  0  0  0  0  0  0  0
  127.7797  130.5077   62.8898 H   0  0  0  0  0  0  0  0  0  0  0  0
  126.2677  130.1329   59.6094 H   0  0  0  0  0  0  0  0  0  0  0  0
  125.4750  127.1880   57.9360 H   0  0  0  0  0  0  0  0  0  0  0  0
  126.5893  122.8752   58.6459 H   0  0  0  0  0  0  0  0  0  0  0  0
  128.1436  121.1172   59.4839 H   0  0  0  0  0  0  0  0  0  0  0  0
  129.5793  121.5564   61.4715 H   0  0  0  0  0  0  0  0  0  0  0  0
  129.4910  124.6650   63.2410 H   0  0  0  0  0  0  0  0  0  0  0  0
  129.0270  127.2590   63.1520 H   0  0  0  0  0  0  0  0  0  0  0  0
  129.3799  131.5486   63.6231 H   0  0  0  0  0  0  0  0  0  0  0  0
  130.8306  132.0196   62.6743 H   0  0  0  0  0  0  0  0  0  0  0  0
  129.3763  133.0739   62.6743 H   0  0  0  0  0  0  0  0  0  0  0  0
  131.1380  130.1865   61.7006 H   0  0  0  0  0  0  0  0  0  0  0  0
  129.0151  128.9535   59.8935 H   0  0  0  0  0  0  0  0  0  0  0  0
  130.8493  128.1465   58.1178 H   0  0  0  0  0  0  0  0  0  0  0  0
  132.4300  127.0200   56.8050 H   0  0  0  0  0  0  0  0  0  0  0  0
  134.3223  121.8559   59.5346 H   0  0  0  0  0  0  0  0  0  0  0  0
  134.2924  120.3198   61.4945 H   0  0  0  0  0  0  0  0  0  0  0  0
  133.5120  121.1340   63.7158 H   0  0  0  0  0  0  0  0  0  0  0  0
  132.3570  124.4770   64.2220 H   0  0  0  0  0  0  0  0  0  0  0  0
  131.6960  126.9270   63.2380 H   0  0  0  0  0  0  0  0  0  0  0  0
  130.1039  132.6504   60.0743 H   0  0  0  0  0  0  0  0  0  0  0  0
  128.7302  131.6519   59.3961 H   0  0  0  0  0  0  0  0  0  0  0  0
  128.5477  134.1141   61.1803 H   0  0  0  0  0  0  0  0  0  0  0  0
  127.9624  133.9003   59.4799 H   0  0  0  0  0  0  0  0  0  0  0  0
  1  2  1  0
  2  3  2  0
  3  4  1  0
  4  5  1  0
  5  6  2  0
  6  7  1  0
  7  8  1  0
  7  9  2  0
  9 10  1  0
 10 11  2  0
 10 12  1  0
 12 13  2  0
 13 14  1  0
 14 15  2  0
 15 16  1  0
 16 17  1  0
 16 18  2  0
 18 19  1  0
 19 20  1  0
 20 21  2  0
 21 22  1  0
  4 23  1  0
 23 24  1  1
 23 25  1  0
 25 26  2  0
 26 27  1  0
 27 28  2  0
 28 29  1  0
 29 30  1  0
 29 31  2  0
 31 32  1  0
 32 33  2  0
 32 34  1  0
 34 35  2  0
 35 36  1  0
 36 37  2  0
 37 38  1  0
 38 39  1  0
 38 40  2  0
 40 41  1  0
 41 42  1  0
 42 43  2  0
 43 44  1  0
 23 45  1  0
 45 46  1  0
 46  2  1  0
 21  5  1  0
 43 27  1  0
 20  9  1  0
 42 31  1  0
 18 12  1  0
 40 34  1  0
  1 47  1  0
  1 48  1  0
  1 49  1  0
  3 50  1  0
  4 51  1  1
  6 52  1  0
  8 53  1  0
 13 54  1  0
 14 55  1  0
 15 56  1  0
 17 57  1  0
 22 58  1  0
 24 59  1  0
 24 60  1  0
 24 61  1  0
 25 62  1  0
 26 63  1  0
 28 64  1  0
 30 65  1  0
 35 66  1  0
 36 67  1  0
 37 68  1  0
 39 69  1  0
 44 70  1  0
 45 71  1  0
 45 72  1  0
 46 73  1  0
 46 74  1  0
M  END
>  <Binding energies>  (1) 
[-5.54]

>  <Ligand effiencies>  (1) 
[-0.10653846153846154]

>  <Interactions>  (1) 
["V-A:ILE:369:CG2:3237, V-A:ASP:366:CA:3210, V-B:PRO:540:CA:9855, V-A:GLY:454:CA:4049, H-A:GLU:543:OE2:4910, V-A:ILE:369:CB:3236, V-B:ASP:366:CG:8184, H-A:TYR:531:OH:4795, V-B:TYR:539:C:9839, V-A:ASP:366:CG:3213, V-A:TYR:539:CD1:4873, H-B:GLU:543:OE1:9881, H-B:TYR:539:OH:9850, V-A:ALA:541:CB:4892, V-B:ASP:366:CB:8183, V-B:PRO:540:CB:9857, H-B:ASP:366:OD1:8185, H-A:GLY:454:N:4050, V-A:SER:385:C:3405, V-B:PRO:540:N:9856, V-A:ILE:369:CD1:3239, V-B:TYR:539:CD2:9846, V-A:GLU:543:CG:4907, V-A:SER:385:CB:3409, V-A:TYR:539:C:4867, H-B:TYR:531:OH:9767, V-A:ASP:366:CB:3212, V-A:LEU:475:CD2:4259, H-A:ARG:545:NH2:4928, V-A:ILE:369:CG1:3238, H-A:GLU:543:OE1:4909, V-A:PRO:540:CA:4883, V-A:SER:385:CA:3407, V-B:PRO:540:C:9853, V-A:TYR:539:CE1:4875, H-A:TYR:484:OH:4348"]

$$$$
ZINC85879434
     RDKit          3D

 46 48  0  0  0  0  0  0  0  0999 V2000
  126.5330  127.7540   73.6010 C   0  0  0  0  0  0  0  0  0  0  0  0
  127.7090  128.4760   73.2500 O   0  0  0  0  0  0  0  0  0  0  0  0
  128.4040  128.1320   72.1030 C   0  0  0  0  0  0  0  0  0  0  0  0
  127.8610  127.3440   71.0710 C   0  0  0  0  0  0  0  0  0  0  0  0
  128.6200  127.0350   69.9440 C   0  0  0  0  0  0  0  0  0  0  0  0
  129.9190  127.5040   69.8330 C   0  0  0  0  0  0  0  0  0  0  0  0
  130.4750  128.2900   70.8430 C   0  0  0  0  0  0  0  0  0  0  0  0
  129.7210  128.6100   71.9860 C   0  0  0  0  0  0  0  0  0  0  0  0
  130.2010  129.3850   73.0280 O   0  0  0  0  0  0  0  0  0  0  0  0
  129.6160  130.6580   73.2840 C   0  0  0  0  0  0  0  0  0  0  0  0
  130.5290  127.0580   68.5600 C   0  0  0  0  0  0  0  0  0  0  0  0
  131.6550  127.3170   68.1340 O   0  0  0  0  0  0  0  0  0  0  0  0
  129.5070  126.2420   67.8810 C   0  0  0  0  0  0  0  0  0  0  0  0
  129.6380  125.6200   66.6840 C   0  0  0  0  0  0  0  0  0  0  0  0
  130.8130  125.4960   65.7980 C   0  0  0  0  0  0  0  0  0  0  0  0
  132.0900  125.2430   66.3050 C   0  0  0  0  0  0  0  0  0  0  0  0
  133.1980  125.1140   65.4520 C   0  0  0  0  0  0  0  0  0  0  0  0
  134.4870  124.8790   65.8990 O   0  0  0  0  0  0  0  0  0  0  0  0
  134.7330  124.7500   67.2950 C   0  0  0  0  0  0  0  0  0  0  0  0
  132.9980  125.2250   64.0690 C   0  0  0  0  0  0  0  0  0  0  0  0
  134.0740  125.0970   63.2250 O   0  0  0  0  0  0  0  0  0  0  0  0
  131.7220  125.4600   63.5360 C   0  0  0  0  0  0  0  0  0  0  0  0
  131.6100  125.5490   62.1600 O   0  0  0  0  0  0  0  0  0  0  0  0
  131.3540  126.8130   61.5560 C   0  0  0  0  0  0  0  0  0  0  0  0
  130.6360  125.5890   64.4170 C   0  0  0  0  0  0  0  0  0  0  0  0
  128.2560  126.2290   68.7330 C   0  0  0  0  0  0  0  0  0  0  0  0
  126.4480  127.7018   74.6965 H   0  0  0  0  0  0  0  0  0  0  0  0
  125.6513  128.2666   73.1888 H   0  0  0  0  0  0  0  0  0  0  0  0
  126.5911  126.7358   73.1888 H   0  0  0  0  0  0  0  0  0  0  0  0
  126.8301  126.9694   71.1547 H   0  0  0  0  0  0  0  0  0  0  0  0
  131.5061  128.6604   70.7448 H   0  0  0  0  0  0  0  0  0  0  0  0
  129.5432  130.8164   74.3701 H   0  0  0  0  0  0  0  0  0  0  0  0
  130.2426  131.4455   72.8398 H   0  0  0  0  0  0  0  0  0  0  0  0
  128.6104  130.6954   72.8398 H   0  0  0  0  0  0  0  0  0  0  0  0
  128.7251  125.1303   66.3141 H   0  0  0  0  0  0  0  0  0  0  0  0
  132.2300  125.1431   67.3915 H   0  0  0  0  0  0  0  0  0  0  0  0
  133.8956  125.1891   67.8570 H   0  0  0  0  0  0  0  0  0  0  0  0
  134.8297  123.6852   67.5534 H   0  0  0  0  0  0  0  0  0  0  0  0
  135.6639  125.2760   67.5534 H   0  0  0  0  0  0  0  0  0  0  0  0
  133.9210  125.5050   62.3690 H   0  0  0  0  0  0  0  0  0  0  0  0
  131.2008  127.5696   62.3397 H   0  0  0  0  0  0  0  0  0  0  0  0
  132.2120  127.1012   60.9309 H   0  0  0  0  0  0  0  0  0  0  0  0
  130.4515  126.7446   60.9309 H   0  0  0  0  0  0  0  0  0  0  0  0
  129.6289  125.7663   64.0116 H   0  0  0  0  0  0  0  0  0  0  0  0
  127.4148  126.6917   68.1961 H   0  0  0  0  0  0  0  0  0  0  0  0
  127.9347  125.2088   68.9899 H   0  0  0  0  0  0  0  0  0  0  0  0
  1  2  1  0
  2  3  1  0
  3  4  2  0
  4  5  1  0
  5  6  2  0
  6  7  1  0
  7  8  2  0
  8  9  1  0
  9 10  1  0
  6 11  1  0
 11 12  2  0
 11 13  1  0
 13 14  2  0
 14 15  1  0
 15 16  2  0
 16 17  1  0
 17 18  1  0
 18 19  1  0
 17 20  2  0
 20 21  1  0
 20 22  1  0
 22 23  1  0
 23 24  1  0
 22 25  2  0
 13 26  1  0
  8  3  1  0
 25 15  1  0
 26  5  1  0
  1 27  1  0
  1 28  1  0
  1 29  1  0
  4 30  1  0
  7 31  1  0
 10 32  1  0
 10 33  1  0
 10 34  1  0
 14 35  1  0
 16 36  1  0
 19 37  1  0
 19 38  1  0
 19 39  1  0
 21 40  1  0
 24 41  1  0
 24 42  1  0
 24 43  1  0
 25 44  1  0
 26 45  1  0
 26 46  1  0
M  END
>  <Binding energies>  (1) 
[-5.87]

>  <Ligand effiencies>  (1) 
[-0.2174074074074074]

>  <Interactions>  (1) 
["V-A:GLY:454:CA:4049, V-B:HIS:456:CD2:9039, V-B:GLU:543:C:9874, V-A:GLU:543:C:4902, V-B:GLU:543:CB:9878, V-B:HIS:456:CB:9036, H-A:ARG:545:NH1:4927, V-A:GLY:544:CA:4914, V-B:GLU:543:CG:9879, V-A:GLY:544:C:4912, V-A:ASP:366:CG:3213, V-B:LYS:547:CE:9922, V-A:ILE:455:CA:4054, V-A:GLU:543:CD:4908, V-A:TYR:484:CZ:4347, V-A:ILE:455:C:4052, V-B:HIS:456:CE1:9041, H-A:GLY:454:N:4050, V-B:GLU:543:CA:9876, V-A:GLY:453:C:4042, V-A:ARG:545:CG:4922, V-A:HIS:456:CE1:4070, V-B:GLY:544:C:9884, V-B:GLU:543:CD:9880, V-B:HIS:456:CG:9037, V-A:ARG:545:CD:4923, H-A:LYS:547:NZ:4951, H-A:ARG:545:NH2:4928, H-A:ILE:455:N:4055, V-A:ARG:545:CZ:4926, V-A:ARG:545:CB:4921, V-A:GLU:543:CB:4906, H-A:ASP:366:OD1:3214, V-A:LYS:547:CE:4950, H-A:ARG:545:NE:4924, V-A:GLY:454:C:4047, H-A:TYR:484:OH:4348"]

$$$$
ZINC859467682
     RDKit          3D

 39 41  0  0  0  0  0  0  0  0999 V2000
  129.3050  123.2630   66.5120 O   0  0  0  0  0  0  0  0  0  0  0  0
  129.7980  124.3870   66.6450 C   0  0  0  0  0  0  0  0  0  0  0  0
  130.4100  125.1630   65.4720 C   0  0  0  0  0  0  0  0  0  0  0  0
  131.9330  125.4050   65.5960 C   0  0  0  0  0  0  0  0  0  0  0  0
  132.6930  125.1070   64.3180 C   0  0  0  0  0  0  0  0  0  0  0  0
  132.2620  125.1310   63.0850 N   0  0  0  0  0  0  0  0  0  0  0  0
  133.3350  124.7660   62.4080 C   0  0  0  0  0  0  0  0  0  0  0  0
  133.3390  124.6510   60.9550 C   0  0  0  0  0  0  0  0  0  0  0  0
  134.3060  124.2770   60.0280 C   0  0  0  0  0  0  0  0  0  0  0  0
  133.7200  124.3550   58.7650 C   0  0  0  0  0  0  0  0  0  0  0  0
  132.4170  124.7720   58.9680 C   0  0  0  0  0  0  0  0  0  0  0  0
  132.1860  124.9510   60.2940 O   0  0  0  0  0  0  0  0  0  0  0  0
  134.4130  124.5090   63.1200 N   0  0  0  0  0  0  0  0  0  0  0  0
  133.9910  124.7280   64.4290 O   0  0  0  0  0  0  0  0  0  0  0  0
  129.8730  125.0830   67.7960 O   0  0  0  0  0  0  0  0  0  0  0  0
  129.1240  126.2830   67.9700 C   0  0  0  0  0  0  0  0  0  0  0  0
  129.1010  126.7280   69.4480 C   0  0  2  0  0  0  0  0  0  0  0  0
  127.6720  126.9730   69.9760 C   0  0  0  0  0  0  0  0  0  0  0  0
  127.6300  126.9140   71.9680 Br  0  0  0  0  0  0  0  0  0  0  0  0
  129.9850  127.9730   69.6700 C   0  0  0  0  0  0  0  0  0  0  0  0
  130.8670  128.0690   70.8890 C   0  0  0  0  0  0  0  0  0  0  0  0
  131.4810  127.8740   69.5120 C   0  0  0  0  0  0  0  0  0  0  0  0
  130.2253  124.5944   64.5487 H   0  0  0  0  0  0  0  0  0  0  0  0
  129.9325  126.1539   65.4657 H   0  0  0  0  0  0  0  0  0  0  0  0
  132.0986  126.4592   65.8631 H   0  0  0  0  0  0  0  0  0  0  0  0
  132.3106  124.7181   66.3677 H   0  0  0  0  0  0  0  0  0  0  0  0
  135.3404  123.9758   60.2498 H   0  0  0  0  0  0  0  0  0  0  0  0
  134.1983  124.1299   57.8004 H   0  0  0  0  0  0  0  0  0  0  0  0
  131.6760  124.9349   58.1715 H   0  0  0  0  0  0  0  0  0  0  0  0
  129.5802  127.0798   67.3642 H   0  0  0  0  0  0  0  0  0  0  0  0
  128.0886  126.0921   67.6516 H   0  0  0  0  0  0  0  0  0  0  0  0
  129.5182  125.8926   70.0293 H   0  0  0  0  0  0  0  0  0  0  0  0
  127.3275  127.9613   69.6376 H   0  0  0  0  0  0  0  0  0  0  0  0
  127.0132  126.1826   69.5870 H   0  0  0  0  0  0  0  0  0  0  0  0
  129.1991  128.6059   69.2320 H   0  0  0  0  0  0  0  0  0  0  0  0
  130.9812  129.0300   71.4119 H   0  0  0  0  0  0  0  0  0  0  0  0
  130.9270  127.5395   71.8513 H   0  0  0  0  0  0  0  0  0  0  0  0
  132.0401  128.6937   69.0372 H   0  0  0  0  0  0  0  0  0  0  0  0
  132.1707  127.1445   69.0623 H   0  0  0  0  0  0  0  0  0  0  0  0
  1  2  2  0
  2  3  1  0
  3  4  1  0
  4  5  1  0
  5  6  2  0
  6  7  1  0
  7  8  1  0
  8  9  2  0
  9 10  1  0
 10 11  2  0
 11 12  1  0
  7 13  2  0
 13 14  1  0
  2 15  1  0
 15 16  1  0
 16 17  1  0
 17 18  1  0
 18 19  1  0
 17 20  1  0
 20 21  1  0
 21 22  1  0
 14  5  1  0
 22 20  1  0
 12  8  1  0
  3 23  1  0
  3 24  1  0
  4 25  1  0
  4 26  1  0
  9 27  1  0
 10 28  1  0
 11 29  1  0
 16 30  1  0
 16 31  1  0
 17 32  1  1
 18 33  1  0
 18 34  1  0
 20 35  1  0
 21 36  1  0
 21 37  1  0
 22 38  1  0
 22 39  1  0
M  END
>  <Binding energies>  (1) 
[-6.19]

>  <Ligand effiencies>  (1) 
[-0.28136363636363637]

>  <Interactions>  (1) 
["V-A:ILE:369:CG2:3237, V-A:ASP:366:CA:3210, V-A:ARG:545:CA:4919, V-B:GLU:543:C:9874, V-A:ILE:369:CB:3236, V-B:HIS:456:CD2:9039, V-A:GLU:543:C:4902, V-B:GLU:543:CB:9878, H-A:ARG:545:NH1:4927, V-A:TYR:484:CE2:4346, V-B:TYR:539:CE2:9848, V-B:GLU:543:CG:9879, V-A:GLY:544:C:4912, V-A:ASP:366:CG:3213, V-B:TYR:539:CZ:9849, V-A:TYR:484:CZ:4347, V-A:GLU:543:CD:4908, V-B:GLU:543:CA:9876, H-A:GLY:454:N:4050, V-B:HIS:456:CE1:9041, V-A:ARG:545:CG:4922, V-A:ILE:369:CD1:3239, V-A:HIS:456:CE1:4070, V-A:ASP:366:C:3208, V-B:GLY:544:C:9884, V-B:GLY:544:CA:9886, V-A:ASP:366:CB:3212, H-A:ARG:545:NH2:4928, V-A:ARG:545:CZ:4926, V-A:GLU:543:CB:4906, H-A:ARG:545:NE:4924, H-A:TYR:484:OH:4348"]

$$$$
ZINC85954138
     RDKit          3D

 61 65  0  0  0  0  0  0  0  0999 V2000
  130.6770  128.0890   69.8470 C   0  0  0  0  0  0  0  0  0  0  0  0
  129.2030  127.6780   69.7370 C   0  0  0  0  0  0  0  0  0  0  0  0
  128.8400  127.1110   68.3530 C   0  0  0  0  0  0  0  0  0  0  0  0
  129.7220  125.9200   67.9410 C   0  0  0  0  0  0  0  0  0  0  0  0
  129.8850  125.7950   66.4160 C   0  0  0  0  0  0  0  0  0  0  0  0
  131.2010  125.1030   66.0060 C   0  0  0  0  0  0  0  0  0  0  0  0
  131.2480  124.6580   64.5270 C   0  0  0  0  0  0  0  0  0  0  0  0
  132.6140  124.7920   63.8400 C   0  0  0  0  0  0  0  0  0  0  0  0
  133.6760  124.7630   64.4670 O   0  0  0  0  0  0  0  0  0  0  0  0
  132.4900  124.9180   62.4980 O   0  0  0  0  0  0  0  0  0  0  0  0
  132.1530  123.8050   61.6570 C   0  0  1  0  0  0  0  0  0  0  0  0
  131.7750  124.3220   60.2580 C   0  0  2  0  0  0  0  0  0  0  0  0
  133.1540  124.7030   59.7180 C   0  0  1  0  0  0  0  0  0  0  0  0
  133.9560  123.4210   59.9450 C   0  0  0  0  0  0  0  0  0  0  0  0
  133.4040  122.8860   61.3170 C   0  0  0  0  0  0  0  0  0  0  0  0
  134.5210  122.9210   62.3910 C   0  0  0  0  0  0  0  0  0  0  0  0
  132.9240  121.4230   61.1620 C   0  0  0  0  0  0  0  0  0  0  0  0
  132.7800  125.3370   58.3910 C   0  0  0  0  0  0  0  0  0  0  0  0
  133.2670  125.2710   57.2640 O   0  0  0  0  0  0  0  0  0  0  0  0
  131.5400  126.1380   58.7680 C   0  0  2  0  0  0  0  0  0  0  0  0
  131.0040  127.0930   57.8970 O   0  0  0  0  0  0  0  0  0  0  0  0
  131.7180  127.5960   59.0170 C   0  0  1  0  0  0  0  0  0  0  0  0
  130.9490  127.8180   60.3170 C   0  0  0  0  0  0  0  0  0  0  0  0
  130.9130  128.8960   60.9090 O   0  0  0  0  0  0  0  0  0  0  0  0
  130.3010  126.5340   60.8270 C   0  0  1  0  0  0  0  0  0  0  0  0
  129.8640  126.3160   62.2500 C   0  0  0  0  0  0  0  0  0  0  0  0
  128.9520  126.6040   61.2360 O   0  0  0  0  0  0  0  0  0  0  0  0
  130.7170  125.4110   59.8470 C   0  0  2  0  0  0  0  0  0  0  0  0
  129.4680  124.7580   59.1980 C   0  0  0  0  0  0  0  0  0  0  0  0
  130.9577  128.1673   70.9077 H   0  0  0  0  0  0  0  0  0  0  0  0
  131.3063  127.3321   69.3561 H   0  0  0  0  0  0  0  0  0  0  0  0
  130.8239  129.0624   69.3561 H   0  0  0  0  0  0  0  0  0  0  0  0
  128.9955  126.9097   70.4963 H   0  0  0  0  0  0  0  0  0  0  0  0
  128.5962  128.5822   69.8923 H   0  0  0  0  0  0  0  0  0  0  0  0
  127.7913  126.7798   68.3740 H   0  0  0  0  0  0  0  0  0  0  0  0
  129.0032  127.9115   67.6164 H   0  0  0  0  0  0  0  0  0  0  0  0
  130.7175  126.0482   68.3911 H   0  0  0  0  0  0  0  0  0  0  0  0
  129.2270  125.0042   68.2963 H   0  0  0  0  0  0  0  0  0  0  0  0
  129.0425  125.2089   66.0202 H   0  0  0  0  0  0  0  0  0  0  0  0
  129.9060  126.8141   66.0024 H   0  0  0  0  0  0  0  0  0  0  0  0
  132.0293  125.8052   66.1816 H   0  0  0  0  0  0  0  0  0  0  0  0
  131.2808  124.1897   66.6138 H   0  0  0  0  0  0  0  0  0  0  0  0
  130.9480  123.6007   64.4815 H   0  0  0  0  0  0  0  0  0  0  0  0
  130.5702  125.3348   63.9862 H   0  0  0  0  0  0  0  0  0  0  0  0
  131.3654  123.2641   62.2020 H   0  0  0  0  0  0  0  0  0  0  0  0
  131.1411  123.5137   59.8644 H   0  0  0  0  0  0  0  0  0  0  0  0
  133.8483  125.4485   60.1330 H   0  0  0  0  0  0  0  0  0  0  0  0
  133.7757  122.6955   59.1381 H   0  0  0  0  0  0  0  0  0  0  0  0
  135.0429  123.5897   59.9551 H   0  0  0  0  0  0  0  0  0  0  0  0
  134.0670  122.9068   63.3928 H   0  0  0  0  0  0  0  0  0  0  0  0
  135.1725  122.0428   62.2712 H   0  0  0  0  0  0  0  0  0  0  0  0
  135.1162  123.8382   62.2712 H   0  0  0  0  0  0  0  0  0  0  0  0
  132.7779  120.9777   62.1572 H   0  0  0  0  0  0  0  0  0  0  0  0
  131.9731  121.4057   60.6093 H   0  0  0  0  0  0  0  0  0  0  0  0
  133.6798  120.8457   60.6093 H   0  0  0  0  0  0  0  0  0  0  0  0
  132.4733  128.3926   59.0869 H   0  0  0  0  0  0  0  0  0  0  0  0
  129.9010  125.3103   62.6942 H   0  0  0  0  0  0  0  0  0  0  0  0
  130.1185  126.7497   63.2284 H   0  0  0  0  0  0  0  0  0  0  0  0
  128.7884  124.4027   59.9867 H   0  0  0  0  0  0  0  0  0  0  0  0
  128.9489  125.5001   58.5736 H   0  0  0  0  0  0  0  0  0  0  0  0
  129.7812  123.9082   58.5736 H   0  0  0  0  0  0  0  0  0  0  0  0
  1  2  1  0
  2  3  1  0
  3  4  1  0
  4  5  1  0
  5  6  1  0
  6  7  1  0
  7  8  1  0
  8  9  2  0
  8 10  1  0
 10 11  1  0
 11 12  1  0
 12 13  1  0
 13 14  1  0
 14 15  1  0
 15 16  1  0
 15 17  1  0
 13 18  1  0
 18 19  2  0
 18 20  1  0
 20 21  1  6
 21 22  1  0
 22 23  1  0
 23 24  2  0
 23 25  1  0
 25 26  1  0
 26 27  1  0
 25 28  1  0
 28 29  1  6
 15 11  1  0
 22 20  1  0
 25 27  1  6
 28 12  1  0
 28 20  1  0
  1 30  1  0
  1 31  1  0
  1 32  1  0
  2 33  1  0
  2 34  1  0
  3 35  1  0
  3 36  1  0
  4 37  1  0
  4 38  1  0
  5 39  1  0
  5 40  1  0
  6 41  1  0
  6 42  1  0
  7 43  1  0
  7 44  1  0
 11 45  1  1
 12 46  1  6
 13 47  1  1
 14 48  1  0
 14 49  1  0
 16 50  1  0
 16 51  1  0
 16 52  1  0
 17 53  1  0
 17 54  1  0
 17 55  1  0
 22 56  1  6
 26 57  1  0
 26 58  1  0
 29 59  1  0
 29 60  1  0
 29 61  1  0
M  END
>  <Binding energies>  (1) 
[-7.16]

>  <Ligand effiencies>  (1) 
[-0.24689655172413794]

>  <Interactions>  (1) 
["V-A:ILE:369:CG2:3237, V-A:ASP:366:CA:3210, V-A:GLY:454:CA:4049, V-A:ILE:369:CB:3236, V-A:GLU:543:C:4902, V-B:GLU:543:CB:9878, H-A:TYR:531:OH:4795, V-B:TYR:539:CE2:9848, V-B:GLU:543:CG:9879, V-A:GLY:544:C:4912, V-A:ASP:366:CG:3213, H-B:TYR:539:OH:9850, V-A:TYR:484:CZ:4347, V-B:HIS:456:CE1:9041, H-A:GLY:454:N:4050, V-A:GLY:453:C:4042, V-A:HIS:456:CE1:4070, V-A:ILE:369:CD1:3239, V-B:GLU:543:CD:9880, V-A:ASP:366:CB:3212, V-A:LEU:475:CD2:4259, H-A:ARG:545:NH2:4928, V-A:ARG:545:CZ:4926, V-A:GLU:543:CB:4906, H-A:ARG:545:NE:4924, H-A:TYR:484:OH:4348"]

$$$$
ZINC8648561-again1
     RDKit          3D

 58 61  0  0  0  0  0  0  0  0999 V2000
  130.1970  128.7660   62.0270 N   0  0  0  0  0  0  0  0  0  0  0  0
  129.2150  127.7960   61.9470 C   0  0  0  0  0  0  0  0  0  0  0  0
  129.7340  126.4520   61.4480 C   0  0  0  0  0  0  0  0  0  0  0  0
  131.2620  126.4880   61.2130 C   0  0  0  0  0  0  0  0  0  0  0  0
  131.8770  125.1350   61.2060 N   0  0  0  0  0  0  0  0  0  0  0  0
  133.0310  124.8730   62.1080 C   0  0  0  0  0  0  0  0  0  0  0  0
  132.6520  124.9880   63.5670 C   0  0  0  0  0  0  0  0  0  0  0  0
  131.4440  125.0440   64.2480 C   0  0  0  0  0  0  0  0  0  0  0  0
  131.7470  125.1470   65.6060 C   0  0  0  0  0  0  0  0  0  0  0  0
  133.1280  125.1510   65.6970 C   0  0  0  0  0  0  0  0  0  0  0  0
  133.6770  125.0540   64.4590 O   0  0  0  0  0  0  0  0  0  0  0  0
  131.5460  124.0290   59.8440 S   0  0  0  0  0  0  0  0  0  0  0  0
  131.8810  124.7040   58.5840 O   0  0  0  0  0  0  0  0  0  0  0  0
  132.1510  122.7320   60.1680 O   0  0  0  0  0  0  0  0  0  0  0  0
  129.7650  123.8000   59.8220 C   0  0  0  0  0  0  0  0  0  0  0  0
  129.0450  123.9690   58.6320 C   0  0  0  0  0  0  0  0  0  0  0  0
  127.6630  123.7780   58.5770 C   0  0  0  0  0  0  0  0  0  0  0  0
  126.9330  123.4080   59.7080 C   0  0  0  0  0  0  0  0  0  0  0  0
  127.6380  123.2400   60.9080 C   0  0  0  0  0  0  0  0  0  0  0  0
  127.0490  122.8800   62.0710 N   0  0  0  0  0  0  0  0  0  0  0  0
  128.2980  122.8160   63.1780 S   0  0  0  0  0  0  0  0  0  0  0  0
  129.5780  123.2450   62.1950 N   0  0  0  0  0  0  0  0  0  0  0  0
  129.0340  123.4380   60.9700 C   0  0  0  0  0  0  0  0  0  0  0  0
  127.9770  127.8490   62.2560 N   0  0  0  0  0  0  0  0  0  0  0  0
  127.5930  129.1270   62.7390 O   0  0  0  0  0  0  0  0  0  0  0  0
  128.1370  129.4270   63.9520 C   0  0  0  0  0  0  0  0  0  0  0  0
  128.6770  130.4990   64.2500 O   0  0  0  0  0  0  0  0  0  0  0  0
  127.9530  128.3310   64.7900 N   0  0  0  0  0  0  0  0  0  0  0  0
  128.3690  128.1680   66.1210 C   0  0  0  0  0  0  0  0  0  0  0  0
  128.2770  129.1760   67.0920 C   0  0  0  0  0  0  0  0  0  0  0  0
  128.7300  128.9370   68.3850 C   0  0  0  0  0  0  0  0  0  0  0  0
  129.2860  127.7050   68.7300 C   0  0  0  0  0  0  0  0  0  0  0  0
  129.7070  127.5690   70.0420 O   0  0  0  0  0  0  0  0  0  0  0  0
  128.7710  127.2790   71.0800 C   0  0  0  0  0  0  0  0  0  0  0  0
  129.2180  126.2040   71.7270 F   0  0  0  0  0  0  0  0  0  0  0  0
  128.6910  128.2750   71.9650 F   0  0  0  0  0  0  0  0  0  0  0  0
  127.5660  126.9810   70.5900 F   0  0  0  0  0  0  0  0  0  0  0  0
  129.3870  126.7030   67.7520 C   0  0  0  0  0  0  0  0  0  0  0  0
  128.9350  126.9380   66.4560 C   0  0  0  0  0  0  0  0  0  0  0  0
  129.9740  129.6910   62.3670 H   0  0  0  0  0  0  0  0  0  0  0  0
  131.1580  128.5480   61.8050 H   0  0  0  0  0  0  0  0  0  0  0  0
  129.5054  125.6798   62.1973 H   0  0  0  0  0  0  0  0  0  0  0  0
  129.2422  126.2254   60.4905 H   0  0  0  0  0  0  0  0  0  0  0  0
  131.4568  126.9674   60.2423 H   0  0  0  0  0  0  0  0  0  0  0  0
  131.7112  127.0510   62.0444 H   0  0  0  0  0  0  0  0  0  0  0  0
  133.4055  123.8563   61.9182 H   0  0  0  0  0  0  0  0  0  0  0  0
  133.8022  125.6288   61.8985 H   0  0  0  0  0  0  0  0  0  0  0  0
  130.4390  125.0131   63.8020 H   0  0  0  0  0  0  0  0  0  0  0  0
  131.0309  125.2121   66.4385 H   0  0  0  0  0  0  0  0  0  0  0  0
  133.6976  125.2223   66.6353 H   0  0  0  0  0  0  0  0  0  0  0  0
  129.5825  124.2597   57.7173 H   0  0  0  0  0  0  0  0  0  0  0  0
  127.1378  123.9223   57.6213 H   0  0  0  0  0  0  0  0  0  0  0  0
  125.8449  123.2540   59.6594 H   0  0  0  0  0  0  0  0  0  0  0  0
  127.4080  127.5720   64.4090 H   0  0  0  0  0  0  0  0  0  0  0  0
  127.8471  130.1543   66.8311 H   0  0  0  0  0  0  0  0  0  0  0  0
  128.6489  129.7286   69.1444 H   0  0  0  0  0  0  0  0  0  0  0  0
  129.8252  125.7277   68.0106 H   0  0  0  0  0  0  0  0  0  0  0  0
  129.0247  126.1504   65.6933 H   0  0  0  0  0  0  0  0  0  0  0  0
  1  2  1  0
  2  3  1  0
  3  4  1  0
  4  5  1  0
  5  6  1  0
  6  7  1  0
  7  8  2  0
  8  9  1  0
  9 10  2  0
 10 11  1  0
  5 12  1  0
 12 13  2  0
 12 14  2  0
 12 15  1  0
 15 16  2  0
 16 17  1  0
 17 18  2  0
 18 19  1  0
 19 20  2  0
 20 21  1  0
 21 22  1  0
 22 23  2  0
  2 24  2  0
 24 25  1  0
 25 26  1  0
 26 27  2  0
 26 28  1  0
 28 29  1  0
 29 30  2  0
 30 31  1  0
 31 32  2  0
 32 33  1  0
 33 34  1  0
 34 35  1  0
 34 36  1  0
 34 37  1  0
 32 38  1  0
 38 39  2  0
 11  7  1  0
 23 15  1  0
 39 29  1  0
 23 19  1  0
  1 40  1  0
  1 41  1  0
  3 42  1  0
  3 43  1  0
  4 44  1  0
  4 45  1  0
  6 46  1  0
  6 47  1  0
  8 48  1  0
  9 49  1  0
 10 50  1  0
 16 51  1  0
 17 52  1  0
 18 53  1  0
 28 54  1  0
 30 55  1  0
 31 56  1  0
 38 57  1  0
 39 58  1  0
M  END
>  <Binding energies>  (1) 
[-7.08]

>  <Ligand effiencies>  (1) 
[-0.16857142857142857]

>  <Interactions>  (1) 
["V-B:PRO:540:CA:9855, V-A:GLU:543:CA:4904, V-B:HIS:456:CD2:9039, V-B:GLU:543:C:9874, V-B:GLU:543:CB:9878, V-B:ALA:541:CB:9864, H-A:ARG:545:NH1:4927, V-B:TYR:539:CE2:9848, V-B:GLU:543:CG:9879, V-A:ASP:366:CG:3213, V-A:HIS:456:CD2:4068, V-B:TYR:539:CZ:9849, H-B:GLU:543:OE1:9881, H-B:TYR:539:OH:9850, H-B:ALA:541:N:9863, V-A:GLU:543:CD:4908, V-A:TYR:484:CZ:4347, V-B:PRO:540:CB:9857, V-B:HIS:456:CE1:9041, H-A:GLY:454:N:4050, V-B:PRO:540:N:9856, V-A:HIS:456:CE1:4070, V-B:GLY:544:C:9884, V-B:TYR:539:CD2:9846, V-A:GLU:543:CG:4907, V-B:GLU:543:CD:9880, V-A:ARG:545:CD:4923, H-A:ARG:545:NH2:4928, V-A:ARG:545:CZ:4926, H-A:GLU:543:OE1:4909, V-A:GLU:543:CB:4906, H-B:GLU:543:OE2:9882, H-A:ARG:545:NE:4924, H-A:ASP:366:OD2:3215, V-B:ALA:541:CA:9862, H-A:TYR:484:OH:4348"]

$$$$
ZINC866737663
     RDKit          3D

 34 33  0  0  0  0  0  0  0  0999 V2000
  128.8960  127.4490   65.2380 C   0  0  0  0  0  0  0  0  0  0  0  0
  129.9580  126.6430   64.4760 N   0  0  0  0  0  0  0  0  0  0  0  0
  129.4340  125.2990   63.9380 C   0  0  0  0  0  0  0  0  0  0  0  0
  129.9040  124.1470   64.8460 C   0  0  0  0  0  0  0  0  0  0  0  0
  131.3010  124.3200   65.2940 N   0  0  0  0  0  0  0  0  0  0  0  0
  132.5760  124.7830   64.1720 S   0  0  0  0  0  0  0  0  0  0  0  0
  132.1170  125.9750   63.4500 O   0  0  0  0  0  0  0  0  0  0  0  0
  133.8240  124.8100   64.9400 O   0  0  0  0  0  0  0  0  0  0  0  0
  132.6230  123.3060   62.9720 C   0  0  0  0  0  0  0  0  0  0  0  0
  133.5280  123.4920   61.7150 C   0  0  0  0  0  0  0  0  0  0  0  0
  134.7710  124.3490   62.0630 C   0  0  0  0  0  0  0  0  0  0  0  0
  134.0070  122.0780   61.2980 C   0  0  0  0  0  0  0  0  0  0  0  0
  132.7350  124.1480   60.5490 C   0  0  0  0  0  0  0  0  0  0  0  0
  133.6960  124.3350   59.0510 Cl  0  0  0  0  0  0  0  0  0  0  0  0
  129.0524  127.3303   66.3203 H   0  0  0  0  0  0  0  0  0  0  0  0
  128.9804  128.5124   64.9697 H   0  0  0  0  0  0  0  0  0  0  0  0
  127.8945  127.0816   64.9697 H   0  0  0  0  0  0  0  0  0  0  0  0
  130.2910  127.1950   63.6990 H   0  0  0  0  0  0  0  0  0  0  0  0
  130.7400  126.4680   65.0920 H   0  0  0  0  0  0  0  0  0  0  0  0
  128.3344  125.3196   63.9159 H   0  0  0  0  0  0  0  0  0  0  0  0
  129.8254  125.1401   62.9224 H   0  0  0  0  0  0  0  0  0  0  0  0
  129.2515  124.1052   65.7306 H   0  0  0  0  0  0  0  0  0  0  0  0
  129.8507  123.2158   64.2628 H   0  0  0  0  0  0  0  0  0  0  0  0
  131.4930  124.3540   66.2990 H   0  0  0  0  0  0  0  0  0  0  0  0
  132.9893  122.4297   63.5269 H   0  0  0  0  0  0  0  0  0  0  0  0
  131.5970  123.1922   62.5919 H   0  0  0  0  0  0  0  0  0  0  0  0
  134.8734  124.4196   63.1559 H   0  0  0  0  0  0  0  0  0  0  0  0
  135.6709  123.8785   61.6401 H   0  0  0  0  0  0  0  0  0  0  0  0
  134.6512  125.3574   61.6401 H   0  0  0  0  0  0  0  0  0  0  0  0
  134.2098  121.4793   62.1982 H   0  0  0  0  0  0  0  0  0  0  0  0
  133.2249  121.5875   60.6999 H   0  0  0  0  0  0  0  0  0  0  0  0
  134.9262  122.1638   60.6999 H   0  0  0  0  0  0  0  0  0  0  0  0
  131.8602  123.5197   60.3256 H   0  0  0  0  0  0  0  0  0  0  0  0
  132.4491  125.1576   60.8790 H   0  0  0  0  0  0  0  0  0  0  0  0
  1  2  1  0
  2  3  1  0
  3  4  1  0
  4  5  1  0
  5  6  1  0
  6  7  2  0
  6  8  2  0
  6  9  1  0
  9 10  1  0
 10 11  1  0
 10 12  1  0
 10 13  1  0
 13 14  1  0
  1 15  1  0
  1 16  1  0
  1 17  1  0
  2 18  1  0
  2 19  1  0
  3 20  1  0
  3 21  1  0
  4 22  1  0
  4 23  1  0
  5 24  1  0
  9 25  1  0
  9 26  1  0
 11 27  1  0
 11 28  1  0
 11 29  1  0
 12 30  1  0
 12 31  1  0
 12 32  1  0
 13 33  1  0
 13 34  1  0
M  CHG  1   2   1
M  END
>  <Binding energies>  (1) 
[-5.34]

>  <Ligand effiencies>  (1) 
[-0.3141176470588235]

>  <Interactions>  (1) 
["V-A:ILE:369:CG2:3237, V-A:ASP:366:CA:3210, H-A:GLU:543:OE2:4910, V-A:ILE:369:CB:3236, V-B:TYR:539:CE2:9848, V-B:GLU:543:CG:9879, V-A:ASP:366:CG:3213, V-A:GLU:543:CD:4908, H-A:GLY:454:N:4050, V-A:GLY:453:C:4042, V-A:ILE:369:CD1:3239, V-B:GLU:543:CD:9880, V-A:ASP:366:CB:3212, V-A:LEU:475:CD2:4259, H-A:ARG:545:NH2:4928, V-A:ARG:545:CZ:4926, H-A:GLU:543:OE1:4909, V-A:GLY:453:CA:4044, H-A:ARG:545:NE:4924, H-A:TYR:484:OH:4348"]

$$$$
ZINC87721865
     RDKit          3D

 36 37  0  0  0  0  0  0  0  0999 V2000
  130.8260  122.6980   64.3250 C   0  0  0  0  0  0  0  0  0  0  0  0
  132.2170  123.0720   63.9980 N   0  0  0  0  0  0  0  0  0  0  0  0
  132.7500  122.4800   62.7540 C   0  0  0  0  0  0  0  0  0  0  0  0
  132.6550  124.7610   64.3080 S   0  0  0  0  0  0  0  0  0  0  0  0
  133.8320  124.7660   65.1870 O   0  0  0  0  0  0  0  0  0  0  0  0
  132.6930  125.4640   63.0200 O   0  0  0  0  0  0  0  0  0  0  0  0
  131.2750  125.4400   65.2280 C   0  0  0  0  0  0  0  0  0  0  0  0
  131.2180  125.2970   66.6160 C   0  0  0  0  0  0  0  0  0  0  0  0
  130.1370  125.8180   67.3200 C   0  0  0  0  0  0  0  0  0  0  0  0
  129.1050  126.4790   66.6440 C   0  0  0  0  0  0  0  0  0  0  0  0
  127.9970  127.0150   67.3140 N   0  0  0  0  0  0  0  0  0  0  0  0
  127.6500  126.7530   68.6520 N   0  0  0  0  0  0  0  0  0  0  0  0
  128.3740  127.2070   69.5990 C   0  0  0  0  0  0  0  0  0  0  0  0
  128.0310  126.9410   70.9800 C   0  0  0  0  0  0  0  0  0  0  0  0
  128.7400  127.3800   72.0510 C   0  0  0  0  0  0  0  0  0  0  0  0
  129.9640  128.1950   71.9360 C   0  0  0  0  0  0  0  0  0  0  0  0
  130.6150  128.6000   72.8970 O   0  0  0  0  0  0  0  0  0  0  0  0
  130.3130  128.4660   70.5280 C   0  0  0  0  0  0  0  0  0  0  0  0
  129.5850  128.0120   69.4780 C   0  0  0  0  0  0  0  0  0  0  0  0
  129.1690  126.6130   65.2550 C   0  0  0  0  0  0  0  0  0  0  0  0
  130.2490  126.0950   64.5470 C   0  0  0  0  0  0  0  0  0  0  0  0
  130.7024  122.6648   65.4175 H   0  0  0  0  0  0  0  0  0  0  0  0
  130.1366  123.4427   63.9005 H   0  0  0  0  0  0  0  0  0  0  0  0
  130.6030  121.7080   63.9005 H   0  0  0  0  0  0  0  0  0  0  0  0
  133.4667  121.6840   63.0045 H   0  0  0  0  0  0  0  0  0  0  0  0
  131.9226  122.0566   62.1656 H   0  0  0  0  0  0  0  0  0  0  0  0
  133.2576  123.2585   62.1656 H   0  0  0  0  0  0  0  0  0  0  0  0
  132.0248  124.7744   67.1507 H   0  0  0  0  0  0  0  0  0  0  0  0
  130.0932  125.7098   68.4138 H   0  0  0  0  0  0  0  0  0  0  0  0
  127.3740  127.6500   66.8360 H   0  0  0  0  0  0  0  0  0  0  0  0
  127.1309  126.3397   71.1756 H   0  0  0  0  0  0  0  0  0  0  0  0
  128.3832  127.1141   73.0570 H   0  0  0  0  0  0  0  0  0  0  0  0
  131.2101  129.0674   70.3195 H   0  0  0  0  0  0  0  0  0  0  0  0
  129.9310  128.2681   68.4657 H   0  0  0  0  0  0  0  0  0  0  0  0
  128.3609  127.1311   64.7178 H   0  0  0  0  0  0  0  0  0  0  0  0
  130.2936  126.2018   63.4531 H   0  0  0  0  0  0  0  0  0  0  0  0
  1  2  1  0
  2  3  1  0
  2  4  1  0
  4  5  2  0
  4  6  2  0
  4  7  1  0
  7  8  2  0
  8  9  1  0
  9 10  2  0
 10 11  1  0
 11 12  1  0
 12 13  2  3
 13 14  1  0
 14 15  2  0
 15 16  1  0
 16 17  2  0
 16 18  1  0
 18 19  2  0
 10 20  1  0
 20 21  2  0
 21  7  1  0
 19 13  1  0
  1 22  1  0
  1 23  1  0
  1 24  1  0
  3 25  1  0
  3 26  1  0
  3 27  1  0
  8 28  1  0
  9 29  1  0
 11 30  1  0
 14 31  1  0
 15 32  1  0
 18 33  1  0
 19 34  1  0
 20 35  1  0
 21 36  1  0
M  END
>  <Binding energies>  (1) 
[-7.49]

>  <Ligand effiencies>  (1) 
[-0.34045454545454545]

>  <Interactions>  (1) 
["V-B:GLU:543:C:9874, V-A:GLU:543:C:4902, V-B:GLU:543:CB:9878, V-A:TYR:484:CE2:4346, V-B:GLU:543:CG:9879, V-A:GLY:544:C:4912, V-A:GLU:543:CD:4908, V-A:TYR:484:CZ:4347, V-B:HIS:456:CE1:9041, H-A:GLY:454:N:4050, V-A:HIS:456:CE1:4070, V-B:GLU:543:CD:9880, H-A:LYS:547:NZ:4951, H-A:ARG:545:NH2:4928, V-A:ARG:545:CZ:4926, V-A:LEU:475:CD2:4259, V-A:GLU:543:CB:4906, H-B:GLU:543:OE2:9882, H-A:ARG:545:NE:4924, H-A:TYR:484:OH:4348"]

$$$$
ZINC87829564
     RDKit          3D

 33 34  0  0  0  0  0  0  0  0999 V2000
  128.7610  132.4730   62.9680 C   0  0  0  0  0  0  0  0  0  0  0  0
  129.8630  131.5370   63.1470 N   0  0  0  0  0  0  0  0  0  0  0  0
  130.9900  131.5560   62.3100 C   0  0  0  0  0  0  0  0  0  0  0  0
  132.0860  132.1770   62.8170 N   0  0  0  0  0  0  0  0  0  0  0  0
  133.1900  132.2110   62.0280 C   0  0  0  0  0  0  0  0  0  0  0  0
  133.2180  131.6380   60.7550 C   0  0  0  0  0  0  0  0  0  0  0  0
  134.3400  131.6920   59.9990 F   0  0  0  0  0  0  0  0  0  0  0  0
  132.0480  131.0140   60.3030 C   0  0  0  0  0  0  0  0  0  0  0  0
  132.0360  130.4250   59.0270 N   0  0  0  0  0  0  0  0  0  0  0  0
  131.2840  130.9940   57.9090 C   0  0  2  0  0  0  0  0  0  0  0  0
  132.1700  131.7060   56.8700 C   0  0  0  0  0  0  0  0  0  0  0  0
  131.3860  132.9400   56.3980 C   0  0  0  0  0  0  0  0  0  0  0  0
  130.0240  132.8860   57.0980 C   0  0  0  0  0  0  0  0  0  0  0  0
  130.2520  132.0430   58.3590 C   0  0  1  0  0  0  0  0  0  0  0  0
  128.9630  131.4250   58.9320 C   0  0  0  0  0  0  0  0  0  0  0  0
  130.9270  130.9720   61.0800 N   0  0  0  0  0  0  0  0  0  0  0  0
  128.3865  132.7911   63.9522 H   0  0  0  0  0  0  0  0  0  0  0  0
  129.1136  133.3519   62.4083 H   0  0  0  0  0  0  0  0  0  0  0  0
  127.9508  131.9828   62.4083 H   0  0  0  0  0  0  0  0  0  0  0  0
  129.7630  130.7930   63.8220 H   0  0  0  0  0  0  0  0  0  0  0  0
  134.0958  132.7082   62.4053 H   0  0  0  0  0  0  0  0  0  0  0  0
  132.4430  129.5080   58.9120 H   0  0  0  0  0  0  0  0  0  0  0  0
  130.7960  130.1144   57.4638 H   0  0  0  0  0  0  0  0  0  0  0  0
  133.1213  132.0132   57.3290 H   0  0  0  0  0  0  0  0  0  0  0  0
  132.4072  131.0400   56.0273 H   0  0  0  0  0  0  0  0  0  0  0  0
  131.9207  133.8596   56.6781 H   0  0  0  0  0  0  0  0  0  0  0  0
  131.2705  132.9427   55.3041 H   0  0  0  0  0  0  0  0  0  0  0  0
  129.6881  133.8984   57.3666 H   0  0  0  0  0  0  0  0  0  0  0  0
  129.2463  132.4547   56.4506 H   0  0  0  0  0  0  0  0  0  0  0  0
  130.6103  132.6498   59.2036 H   0  0  0  0  0  0  0  0  0  0  0  0
  129.0041  131.4447   60.0311 H   0  0  0  0  0  0  0  0  0  0  0  0
  128.0938  132.0043   58.5871 H   0  0  0  0  0  0  0  0  0  0  0  0
  128.8704  130.3846   58.5871 H   0  0  0  0  0  0  0  0  0  0  0  0
  1  2  1  0
  2  3  1  0
  3  4  2  0
  4  5  1  0
  5  6  2  0
  6  7  1  0
  6  8  1  0
  8  9  1  0
  9 10  1  0
 10 11  1  0
 11 12  1  0
 12 13  1  0
 13 14  1  0
 14 15  1  0
  8 16  2  0
 16  3  1  0
 14 10  1  0
  1 17  1  0
  1 18  1  0
  1 19  1  0
  2 20  1  0
  5 21  1  0
  9 22  1  0
 10 23  1  6
 11 24  1  0
 11 25  1  0
 12 26  1  0
 12 27  1  0
 13 28  1  0
 13 29  1  0
 14 30  1  1
 15 31  1  0
 15 32  1  0
 15 33  1  0
M  END
>  <Binding energies>  (1) 
[-5.27]

>  <Ligand effiencies>  (1) 
[-0.29277777777777775]

>  <Interactions>  (1) 
["V-A:ALA:541:C:4888, H-A:ALA:541:N:4891, V-A:PRO:540:C:4881, V-A:ILE:538:CB:4862, V-A:ASP:366:CG:3213, V-A:ASN:362:CB:3176, V-A:ILE:538:CG2:4863, V-A:LEU:363:CB:3187, V-A:LEU:363:CD1:3189, V-A:ILE:538:CA:4860, V-A:TYR:531:CE2:4793, V-A:ALA:541:CB:4892, V-A:GLU:543:CD:4908, V-A:GLU:543:CG:4907, V-A:TYR:539:C:4867, V-A:ASN:362:C:3172, H-A:GLU:543:OE1:4909, V-A:PRO:540:N:4884, V-A:PRO:540:CB:4885, V-A:PRO:540:CA:4883, V-A:LEU:363:CA:3185, H-A:ASP:366:OD2:3215, V-A:PRO:540:CD:4887, V-A:LEU:363:C:3183"]

$$$$
ZINC888075850
     RDKit          3D

 48 51  0  0  0  0  0  0  0  0999 V2000
  129.5150  126.9440   63.0800 C   0  0  0  0  0  0  0  0  0  0  0  0
  129.3270  125.6380   62.2470 C   0  0  2  0  0  0  0  0  0  0  0  0
  128.1690  125.9480   61.2270 C   0  0  0  0  0  0  0  0  0  0  0  0
  127.3140  124.7830   60.6620 C   0  0  0  0  0  0  0  0  0  0  0  0
  127.0490  123.6410   61.6430 C   0  0  0  0  0  0  0  0  0  0  0  0
  126.0130  122.9800   61.7140 O   0  0  0  0  0  0  0  0  0  0  0  0
  128.1960  123.2920   62.6240 C   0  0  0  0  0  0  0  0  0  0  0  0
  128.4290  122.0980   62.8180 O   0  0  0  0  0  0  0  0  0  0  0  0
  128.9210  124.4970   63.2590 C   0  0  1  0  0  0  0  0  0  0  0  0
  130.0960  124.0470   64.1750 C   0  0  0  0  0  0  0  0  0  0  0  0
  131.3840  123.7290   63.3930 C   0  0  0  0  0  0  0  0  0  0  0  0
  131.8270  124.9290   62.5080 C   0  0  2  0  0  0  0  0  0  0  0  0
  130.6820  125.2770   61.5050 C   0  0  1  0  0  0  0  0  0  0  0  0
  130.6150  124.1690   60.4230 C   0  0  0  0  0  0  0  0  0  0  0  0
  131.9300  123.9650   59.6550 C   0  0  0  0  0  0  0  0  0  0  0  0
  133.2500  123.9450   60.4790 C   0  0  2  0  0  0  0  0  0  0  0  0
  134.4340  124.3520   59.5540 C   0  0  0  0  0  0  0  0  0  0  0  0
  133.6130  122.5490   61.0370 C   0  0  0  0  0  0  0  0  0  0  0  0
  133.3370  121.4670   60.5210 O   0  0  0  0  0  0  0  0  0  0  0  0
  134.3570  122.7270   62.3650 C   0  0  0  0  0  0  0  0  0  0  0  0
  134.3360  124.2320   62.6420 C   0  0  0  0  0  0  0  0  0  0  0  0
  133.2090  124.8090   61.7760 C   0  0  2  0  0  0  0  0  0  0  0  0
  129.4803  126.7029   64.1527 H   0  0  0  0  0  0  0  0  0  0  0  0
  130.4876  127.3969   62.8373 H   0  0  0  0  0  0  0  0  0  0  0  0
  128.7096  127.6529   62.8373 H   0  0  0  0  0  0  0  0  0  0  0  0
  127.4760  126.6382   61.7304 H   0  0  0  0  0  0  0  0  0  0  0  0
  128.7001  126.3301   60.3427 H   0  0  0  0  0  0  0  0  0  0  0  0
  126.3436  125.1938   60.3464 H   0  0  0  0  0  0  0  0  0  0  0  0
  127.8945  124.3489   59.8346 H   0  0  0  0  0  0  0  0  0  0  0  0
  128.1694  124.9780   63.9022 H   0  0  0  0  0  0  0  0  0  0  0  0
  130.3111  124.8544   64.8905 H   0  0  0  0  0  0  0  0  0  0  0  0
  129.7822  123.1217   64.6803 H   0  0  0  0  0  0  0  0  0  0  0  0
  132.1874  123.4966   64.1075 H   0  0  0  0  0  0  0  0  0  0  0  0
  131.1839  122.8709   62.7344 H   0  0  0  0  0  0  0  0  0  0  0  0
  132.0069  125.7502   63.2175 H   0  0  0  0  0  0  0  0  0  0  0  0
  130.8975  126.2100   60.9636 H   0  0  0  0  0  0  0  0  0  0  0  0
  130.3509  123.2210   60.9146 H   0  0  0  0  0  0  0  0  0  0  0  0
  129.8627  124.4883   59.6867 H   0  0  0  0  0  0  0  0  0  0  0  0
  131.8569  123.0027   59.1272 H   0  0  0  0  0  0  0  0  0  0  0  0
  132.0170  124.8516   59.0097 H   0  0  0  0  0  0  0  0  0  0  0  0
  135.2957  124.6482   60.1702 H   0  0  0  0  0  0  0  0  0  0  0  0
  134.7135  123.4983   58.9191 H   0  0  0  0  0  0  0  0  0  0  0  0
  134.1295  125.1971   58.9191 H   0  0  0  0  0  0  0  0  0  0  0  0
  133.8444  122.1800   63.1700 H   0  0  0  0  0  0  0  0  0  0  0  0
  135.3831  122.3337   62.3158 H   0  0  0  0  0  0  0  0  0  0  0  0
  134.1343  124.4213   63.7066 H   0  0  0  0  0  0  0  0  0  0  0  0
  135.3038  124.6976   62.4041 H   0  0  0  0  0  0  0  0  0  0  0  0
  133.3583  125.8703   61.5283 H   0  0  0  0  0  0  0  0  0  0  0  0
  2  1  1  1
  2  3  1  0
  3  4  1  0
  4  5  1  0
  5  6  2  0
  5  7  1  0
  7  8  2  0
  7  9  1  0
  9 10  1  0
 10 11  1  0
 11 12  1  0
 12 13  1  0
 13 14  1  0
 14 15  1  0
 15 16  1  0
 16 17  1  6
 16 18  1  0
 18 19  2  0
 18 20  1  0
 20 21  1  0
 21 22  1  0
  9  2  1  0
 22 12  1  0
 13  2  1  0
 22 16  1  0
  1 23  1  0
  1 24  1  0
  1 25  1  0
  3 26  1  0
  3 27  1  0
  4 28  1  0
  4 29  1  0
  9 30  1  1
 10 31  1  0
 10 32  1  0
 11 33  1  0
 11 34  1  0
 12 35  1  1
 13 36  1  6
 14 37  1  0
 14 38  1  0
 15 39  1  0
 15 40  1  0
 17 41  1  0
 17 42  1  0
 17 43  1  0
 20 44  1  0
 20 45  1  0
 21 46  1  0
 21 47  1  0
 22 48  1  6
M  END
>  <Binding energies>  (1) 
[-7.25]

>  <Ligand effiencies>  (1) 
[-0.32954545454545453]

>  <Interactions>  (1) 
["V-A:ILE:369:CG2:3237, V-A:ASP:366:CA:3210, V-A:ILE:369:CD1:3239, V-B:PRO:540:CA:9855, V-B:TYR:539:CZ:9849, V-A:ASP:366:C:3208, V-A:ILE:369:CB:3236, V-A:GLY:453:CA:4044, V-A:GLY:454:CA:4049, H-B:ALA:541:N:9863, V-B:GLU:543:CD:9880, V-B:ALA:541:CB:9864, V-B:TYR:539:CE2:9848, V-A:GLU:543:CD:4908, V-A:ASP:366:CB:3212, V-B:GLU:543:CG:9879, V-A:ASP:366:CG:3213, V-A:GLY:453:C:4042"]

$$$$
ZINC888089221-again1
     RDKit          3D

 66 71  0  0  0  0  0  0  0  0999 V2000
  129.4780  127.7630   68.6620 C   0  0  0  0  0  0  0  0  0  0  0  0
  130.1410  126.5030   68.6370 O   0  0  0  0  0  0  0  0  0  0  0  0
  130.6090  126.0120   67.4340 C   0  0  0  0  0  0  0  0  0  0  0  0
  131.9920  126.0100   67.2570 C   0  0  0  0  0  0  0  0  0  0  0  0
  132.5550  125.5310   66.0770 C   0  0  0  0  0  0  0  0  0  0  0  0
  131.7360  125.0390   65.0560 C   0  0  0  0  0  0  0  0  0  0  0  0
  132.3430  124.5110   63.7960 C   0  0  0  0  0  0  0  0  0  0  0  0
  133.5530  123.9910   63.8250 N   0  0  0  0  0  0  0  0  0  0  0  0
  133.8080  123.6320   62.5700 N   0  0  0  0  0  0  0  0  0  0  0  0
  132.7700  123.8980   61.7270 C   0  0  0  0  0  0  0  0  0  0  0  0
  131.7660  124.4700   62.4990 C   0  0  0  0  0  0  0  0  0  0  0  0
  130.3710  124.9170   62.0590 C   0  0  2  0  0  0  0  0  0  0  0  0
  129.2970  123.7880   62.1620 C   0  0  0  0  0  0  0  0  0  0  0  0
  129.3530  122.7430   61.0130 C   0  0  0  0  0  0  0  0  0  0  0  0
  129.0490  121.5610   61.1590 O   0  0  0  0  0  0  0  0  0  0  0  0
  129.7170  123.2490   59.8130 N   0  0  0  0  0  0  0  0  0  0  0  0
  130.1430  124.5170   59.5700 C   0  0  0  0  0  0  0  0  0  0  0  0
  130.3960  124.8450   58.2860 C   0  0  0  0  0  0  0  0  0  0  0  0
  130.9130  126.2170   57.8520 C   0  0  2  0  0  0  0  0  0  0  0  0
  132.4130  126.0590   57.5330 C   0  0  0  0  0  0  0  0  0  0  0  0
  130.5170  127.3280   58.9030 C   0  0  1  0  0  0  0  0  0  0  0  0
  131.4340  128.4150   58.7570 O   0  0  0  0  0  0  0  0  0  0  0  0
  130.7150  129.5320   58.4250 C   0  0  0  0  0  0  0  0  0  0  0  0
  131.2790  130.7860   58.2020 C   0  0  0  0  0  0  0  0  0  0  0  0
  132.9900  131.0010   58.3440 Cl  0  0  0  0  0  0  0  0  0  0  0  0
  130.4440  131.8600   57.8610 C   0  0  0  0  0  0  0  0  0  0  0  0
  131.0460  133.0880   57.6470 O   0  0  0  0  0  0  0  0  0  0  0  0
  131.7260  133.3320   56.4220 C   0  0  0  0  0  0  0  0  0  0  0  0
  129.0560  131.6380   57.7530 C   0  0  0  0  0  0  0  0  0  0  0  0
  128.4980  130.3650   57.9790 C   0  0  0  0  0  0  0  0  0  0  0  0
  127.1520  130.0650   57.8950 O   0  0  0  0  0  0  0  0  0  0  0  0
  126.3730  130.0360   59.0850 C   0  0  0  0  0  0  0  0  0  0  0  0
  129.3550  129.3160   58.3170 C   0  0  0  0  0  0  0  0  0  0  0  0
  129.1160  127.8990   58.6090 C   0  0  0  0  0  0  0  0  0  0  0  0
  128.0450  127.2930   58.6030 O   0  0  0  0  0  0  0  0  0  0  0  0
  130.5510  126.8000   60.3510 C   0  0  0  0  0  0  0  0  0  0  0  0
  130.7450  127.7320   61.3260 O   0  0  0  0  0  0  0  0  0  0  0  0
  130.3640  125.4880   60.6370 C   0  0  0  0  0  0  0  0  0  0  0  0
  130.3480  125.0490   65.2240 C   0  0  0  0  0  0  0  0  0  0  0  0
  129.7870  125.5290   66.4030 C   0  0  0  0  0  0  0  0  0  0  0  0
  129.3158  128.0713   69.7054 H   0  0  0  0  0  0  0  0  0  0  0  0
  130.0979  128.5137   68.1500 H   0  0  0  0  0  0  0  0  0  0  0  0
  128.5082  127.6773   68.1500 H   0  0  0  0  0  0  0  0  0  0  0  0
  132.6443  126.3903   68.0569 H   0  0  0  0  0  0  0  0  0  0  0  0
  133.6473  125.5397   65.9476 H   0  0  0  0  0  0  0  0  0  0  0  0
  134.6800  123.2020   62.2980 H   0  0  0  0  0  0  0  0  0  0  0  0
  132.7342  123.6986   60.6458 H   0  0  0  0  0  0  0  0  0  0  0  0
  130.0992  125.7117   62.7693 H   0  0  0  0  0  0  0  0  0  0  0  0
  129.4436  123.2594   63.1155 H   0  0  0  0  0  0  0  0  0  0  0  0
  128.3158  124.2802   62.0916 H   0  0  0  0  0  0  0  0  0  0  0  0
  129.7190  122.5800   59.0570 H   0  0  0  0  0  0  0  0  0  0  0  0
  130.2211  124.0851   57.5102 H   0  0  0  0  0  0  0  0  0  0  0  0
  130.4364  126.5848   56.9313 H   0  0  0  0  0  0  0  0  0  0  0  0
  132.9832  125.9989   58.4718 H   0  0  0  0  0  0  0  0  0  0  0  0
  132.5690  125.1395   56.9498 H   0  0  0  0  0  0  0  0  0  0  0  0
  132.7571  126.9259   56.9498 H   0  0  0  0  0  0  0  0  0  0  0  0
  132.7421  133.6966   56.6330 H   0  0  0  0  0  0  0  0  0  0  0  0
  131.7842  132.3987   55.8427 H   0  0  0  0  0  0  0  0  0  0  0  0
  131.1776  134.0894   55.8427 H   0  0  0  0  0  0  0  0  0  0  0  0
  128.3954  132.4763   57.4868 H   0  0  0  0  0  0  0  0  0  0  0  0
  127.0391  130.0608   59.9600 H   0  0  0  0  0  0  0  0  0  0  0  0
  125.7053  130.9099   59.1076 H   0  0  0  0  0  0  0  0  0  0  0  0
  125.7722  129.1149   59.1076 H   0  0  0  0  0  0  0  0  0  0  0  0
  131.2700  128.4560   60.9770 H   0  0  0  0  0  0  0  0  0  0  0  0
  129.6966  124.6756   64.4201 H   0  0  0  0  0  0  0  0  0  0  0  0
  128.6942  125.5302   66.5283 H   0  0  0  0  0  0  0  0  0  0  0  0
  1  2  1  0
  2  3  1  0
  3  4  2  0
  4  5  1  0
  5  6  2  0
  6  7  1  0
  7  8  2  0
  8  9  1  0
  9 10  1  0
 10 11  2  0
 11 12  1  0
 12 13  1  0
 13 14  1  0
 14 15  2  0
 14 16  1  0
 16 17  1  0
 17 18  2  0
 18 19  1  0
 19 20  1  0
 19 21  1  0
 21 22  1  1
 22 23  1  0
 23 24  2  0
 24 25  1  0
 24 26  1  0
 26 27  1  0
 27 28  1  0
 26 29  2  0
 29 30  1  0
 30 31  1  0
 31 32  1  0
 30 33  2  0
 33 34  1  0
 34 35  2  0
 21 36  1  0
 36 37  1  0
 36 38  2  0
  6 39  1  0
 39 40  2  0
 40  3  1  0
 11  7  1  0
 38 12  1  0
 38 17  1  0
 34 21  1  0
 33 23  1  0
  1 41  1  0
  1 42  1  0
  1 43  1  0
  4 44  1  0
  5 45  1  0
  9 46  1  0
 10 47  1  0
 12 48  1  1
 13 49  1  0
 13 50  1  0
 16 51  1  0
 18 52  1  0
 19 53  1  6
 20 54  1  0
 20 55  1  0
 20 56  1  0
 28 57  1  0
 28 58  1  0
 28 59  1  0
 29 60  1  0
 32 61  1  0
 32 62  1  0
 32 63  1  0
 37 64  1  0
 39 65  1  0
 40 66  1  0
M  END
>  <Binding energies>  (1) 
[-6.9]

>  <Ligand effiencies>  (1) 
[-0.16046511627906979]

>  <Interactions>  (1) 
["V-A:ASP:366:CA:3210, V-A:ILE:538:C:4858, V-A:GLY:454:CA:4049, V-B:GLU:543:CB:9878, V-A:ILE:538:CB:4862, H-A:TYR:531:OH:4795, V-B:TYR:539:CE2:9848, V-B:GLU:543:CG:9879, V-A:ILE:538:CG2:4863, V-A:LEU:363:CD1:3189, V-B:TYR:539:CZ:9849, V-A:ILE:538:CA:4860, H-B:ALA:541:N:9863, V-A:GLU:543:CD:4908, V-A:ARG:545:CG:4922, H-A:GLY:454:N:4050, V-A:HIS:456:CE1:4070, V-B:TYR:539:CD2:9846, V-A:TYR:531:CZ:4794, V-B:GLU:543:CD:9880, H-B:TYR:531:OH:9767, V-A:ARG:545:CD:4923, V-A:ASP:366:CB:3212, V-A:ARG:545:CZ:4926, H-A:GLU:543:OE1:4909, V-A:GLU:543:CB:4906, V-A:PRO:540:N:4884, H-A:TYR:539:N:4870, V-A:PRO:540:CB:4885, V-A:LEU:363:CA:3185, H-A:SER:385:O:3406, H-A:ASP:366:OD2:3215, V-A:PRO:540:CD:4887, H-A:TYR:484:OH:4348"]

$$$$
ZINC888090325-again1
     RDKit          3D

 65 70  0  0  0  0  0  0  0  0999 V2000
  135.4900  122.4840   62.4020 C   0  0  0  0  0  0  0  0  0  0  0  0
  134.6880  122.3880   61.2300 O   0  0  0  0  0  0  0  0  0  0  0  0
  133.3190  122.5660   61.3240 C   0  0  0  0  0  0  0  0  0  0  0  0
  132.3730  121.6190   60.8800 C   0  0  0  0  0  0  0  0  0  0  0  0
  130.9890  121.8540   61.0020 C   0  0  0  0  0  0  0  0  0  0  0  0
  130.0010  120.9780   60.5930 O   0  0  0  0  0  0  0  0  0  0  0  0
  129.8210  119.7580   61.3030 C   0  0  0  0  0  0  0  0  0  0  0  0
  130.5680  123.0550   61.5760 C   0  0  0  0  0  0  0  0  0  0  0  0
  131.4950  123.9830   62.0140 C   0  0  0  0  0  0  0  0  0  0  0  0
  132.8650  123.7620   61.8990 C   0  0  0  0  0  0  0  0  0  0  0  0
  133.9820  124.9560   62.4650 Cl  0  0  0  0  0  0  0  0  0  0  0  0
  130.9460  125.1060   62.5720 O   0  0  0  0  0  0  0  0  0  0  0  0
  129.5230  124.9960   62.4900 C   0  0  2  0  0  0  0  0  0  0  0  0
  129.2390  123.6090   61.8500 C   0  0  0  0  0  0  0  0  0  0  0  0
  128.1410  123.0900   61.6400 O   0  0  0  0  0  0  0  0  0  0  0  0
  129.0270  126.2540   61.6920 C   0  0  0  0  0  0  0  0  0  0  0  0
  128.9590  126.1610   60.4020 O   0  0  0  0  0  0  0  0  0  0  0  0
  128.7690  127.4520   62.3170 C   0  0  0  0  0  0  0  0  0  0  0  0
  128.8450  127.4900   63.7850 C   0  0  0  0  0  0  0  0  0  0  0  0
  128.9260  126.3790   64.5370 C   0  0  0  0  0  0  0  0  0  0  0  0
  128.9750  124.9740   63.9620 C   0  0  2  0  0  0  0  0  0  0  0  0
  129.6530  124.0300   64.9820 C   0  0  0  0  0  0  0  0  0  0  0  0
  128.7640  128.6820   64.4510 N   0  0  0  0  0  0  0  0  0  0  0  0
  128.3780  129.8740   63.8880 C   0  0  0  0  0  0  0  0  0  0  0  0
  128.1680  129.9780   62.5540 C   0  0  0  0  0  0  0  0  0  0  0  0
  127.6730  131.2560   62.0380 C   0  0  0  0  0  0  0  0  0  0  0  0
  127.3090  131.3950   60.8660 O   0  0  0  0  0  0  0  0  0  0  0  0
  127.6360  132.2640   62.9770 N   0  0  0  0  0  0  0  0  0  0  0  0
  127.1230  133.5710   62.5130 C   0  0  0  0  0  0  0  0  0  0  0  0
  128.0010  132.1960   64.3100 C   0  0  0  0  0  0  0  0  0  0  0  0
  128.2500  133.2060   64.9810 O   0  0  0  0  0  0  0  0  0  0  0  0
  128.2110  130.9160   64.7810 N   0  0  0  0  0  0  0  0  0  0  0  0
  128.3620  130.7800   66.2440 C   0  0  0  0  0  0  0  0  0  0  0  0
  128.4010  128.7910   61.5760 C   0  0  1  0  0  0  0  0  0  0  0  0
  129.3380  129.1710   60.4070 C   0  0  0  0  0  0  0  0  0  0  0  0
  130.5820  129.7530   60.6920 C   0  0  0  0  0  0  0  0  0  0  0  0
  131.4540  130.1140   59.6680 C   0  0  0  0  0  0  0  0  0  0  0  0
  131.0950  129.8980   58.3400 C   0  0  0  0  0  0  0  0  0  0  0  0
  132.1740  130.3470   57.0690 Cl  0  0  0  0  0  0  0  0  0  0  0  0
  129.8650  129.3180   58.0390 C   0  0  0  0  0  0  0  0  0  0  0  0
  128.9860  128.9510   59.0610 C   0  0  0  0  0  0  0  0  0  0  0  0
  127.4790  128.2310   58.6080 Cl  0  0  0  0  0  0  0  0  0  0  0  0
  134.8487  122.4072   63.2924 H   0  0  0  0  0  0  0  0  0  0  0  0
  136.2273  121.6677   62.4097 H   0  0  0  0  0  0  0  0  0  0  0  0
  136.0138  123.4513   62.4097 H   0  0  0  0  0  0  0  0  0  0  0  0
  132.7224  120.6783   60.4295 H   0  0  0  0  0  0  0  0  0  0  0  0
  129.8501  119.9556   62.3847 H   0  0  0  0  0  0  0  0  0  0  0  0
  128.8483  119.3188   61.0366 H   0  0  0  0  0  0  0  0  0  0  0  0
  130.6254  119.0566   61.0366 H   0  0  0  0  0  0  0  0  0  0  0  0
  128.9586  126.4937   65.6305 H   0  0  0  0  0  0  0  0  0  0  0  0
  127.9739  124.5384   63.8279 H   0  0  0  0  0  0  0  0  0  0  0  0
  129.4147  124.3618   66.0033 H   0  0  0  0  0  0  0  0  0  0  0  0
  129.2838  123.0044   64.8341 H   0  0  0  0  0  0  0  0  0  0  0  0
  130.7428  124.0523   64.8341 H   0  0  0  0  0  0  0  0  0  0  0  0
  128.8970  128.6600   65.4510 H   0  0  0  0  0  0  0  0  0  0  0  0
  126.8769  134.1980   63.3827 H   0  0  0  0  0  0  0  0  0  0  0  0
  127.8913  134.0718   61.9056 H   0  0  0  0  0  0  0  0  0  0  0  0
  126.2192  133.4155   61.9056 H   0  0  0  0  0  0  0  0  0  0  0  0
  127.6362  131.4337   66.7499 H   0  0  0  0  0  0  0  0  0  0  0  0
  128.1801  129.7351   66.5358 H   0  0  0  0  0  0  0  0  0  0  0  0
  129.3822  131.0699   66.5358 H   0  0  0  0  0  0  0  0  0  0  0  0
  127.4361  128.5698   61.0963 H   0  0  0  0  0  0  0  0  0  0  0  0
  130.8727  129.9266   61.7386 H   0  0  0  0  0  0  0  0  0  0  0  0
  132.4260  130.5696   59.9081 H   0  0  0  0  0  0  0  0  0  0  0  0
  129.5837  129.1477   56.9893 H   0  0  0  0  0  0  0  0  0  0  0  0
  1  2  1  0
  2  3  1  0
  3  4  2  0
  4  5  1  0
  5  6  1  0
  6  7  1  0
  5  8  2  0
  8  9  1  0
  9 10  2  0
 10 11  1  0
  9 12  1  0
 13 12  1  1
 13 14  1  0
 14 15  2  0
 13 16  1  0
 16 17  1  0
 16 18  2  0
 18 19  1  0
 19 20  2  0
 20 21  1  0
 21 22  1  0
 19 23  1  0
 23 24  1  0
 24 25  2  0
 25 26  1  0
 26 27  2  0
 26 28  1  0
 28 29  1  0
 28 30  1  0
 30 31  2  0
 30 32  1  0
 32 33  1  0
 25 34  1  0
 34 35  1  0
 35 36  2  0
 36 37  1  0
 37 38  2  0
 38 39  1  0
 38 40  1  0
 40 41  2  0
 41 42  1  0
 10  3  1  0
 21 13  1  0
 32 24  1  0
 41 35  1  0
 14  8  1  0
 34 18  1  0
  1 43  1  0
  1 44  1  0
  1 45  1  0
  4 46  1  0
  7 47  1  0
  7 48  1  0
  7 49  1  0
 20 50  1  0
 21 51  1  6
 22 52  1  0
 22 53  1  0
 22 54  1  0
 23 55  1  0
 29 56  1  0
 29 57  1  0
 29 58  1  0
 33 59  1  0
 33 60  1  0
 33 61  1  0
 34 62  1  6
 36 63  1  0
 37 64  1  0
 40 65  1  0
M  CHG  1  17  -1
M  END
>  <Binding energies>  (1) 
[-0.48]

>  <Ligand effiencies>  (1) 
[-0.011162790697674419]

>  <Interactions>  (1) 
["V-A:ILE:369:CG2:3237, V-A:GLU:543:CA:4904, V-A:GLY:454:CA:4049, H-A:GLU:543:OE2:4910, V-B:GLU:543:CB:9878, V-B:ALA:541:CB:9864, V-B:TYR:539:CE2:9848, V-B:LEU:475:CD2:9230, V-B:GLU:543:CG:9879, V-B:TYR:539:C:9839, V-A:ASP:366:CG:3213, V-A:LEU:363:CD1:3189, V-B:TYR:484:CE2:9317, V-A:TYR:531:CE2:4793, V-A:ALA:541:CB:4892, H-B:ALA:541:N:9863, V-A:GLU:543:CD:4908, H-B:TYR:484:OH:9319, V-A:SER:385:C:3405, V-A:GLY:453:C:4042, V-B:TYR:484:CZ:9318, V-A:ILE:369:CD1:3239, V-B:TYR:539:CD2:9846, V-A:GLU:543:CG:4907, V-A:TYR:531:CZ:4794, V-B:GLU:543:CD:9880, V-A:ILE:369:CG1:3238, V-A:LEU:475:CD2:4259, V-A:ARG:545:CZ:4926, H-A:GLU:543:OE1:4909, V-A:GLU:543:CB:4906, H-B:GLU:543:OE2:9882, V-A:GLY:453:CA:4044, V-B:PRO:540:C:9853"]

$$$$
ZINC888090827-again1
     RDKit          3D

 71 74  0  0  0  0  0  0  0  0999 V2000
  127.6170  133.1450   59.7720 C   0  0  0  0  0  0  0  0  0  0  0  0
  128.9900  133.4220   59.5380 O   0  0  0  0  0  0  0  0  0  0  0  0
  129.5650  133.0920   58.3640 C   0  0  0  0  0  0  0  0  0  0  0  0
  129.1140  133.3430   57.2440 O   0  0  0  0  0  0  0  0  0  0  0  0
  130.8970  132.3560   58.5710 C   0  0  0  0  0  0  0  0  0  0  0  0
  130.8280  131.0310   59.3910 C   0  0  2  0  0  0  0  0  0  0  0  0
  130.3690  129.8130   58.5460 C   0  0  0  0  0  0  0  0  0  0  0  0
  129.0400  129.7160   58.0130 C   0  0  0  0  0  0  0  0  0  0  0  0
  128.2000  130.6650   58.1480 O   0  0  0  0  0  0  0  0  0  0  0  0
  128.5080  128.4250   57.3540 C   0  0  0  0  0  0  0  0  0  0  0  0
  129.5260  127.2570   57.2600 C   0  0  2  0  0  0  0  0  0  0  0  0
  128.7680  125.9310   57.0250 C   0  0  0  0  0  0  0  0  0  0  0  0
  130.5640  127.3150   58.4190 C   0  0  1  0  0  0  0  0  0  0  0  0
  129.8730  127.2680   59.6710 O   0  0  0  0  0  0  0  0  0  0  0  0
  130.4360  126.2700   60.4190 C   0  0  0  0  0  0  0  0  0  0  0  0
  130.0600  125.9740   61.7280 C   0  0  0  0  0  0  0  0  0  0  0  0
  128.8280  126.9070   62.5050 Cl  0  0  0  0  0  0  0  0  0  0  0  0
  130.7000  124.9220   62.3990 C   0  0  0  0  0  0  0  0  0  0  0  0
  130.3050  124.6700   63.7010 O   0  0  0  0  0  0  0  0  0  0  0  0
  130.9680  125.3280   64.7760 C   0  0  0  0  0  0  0  0  0  0  0  0
  131.6960  124.1860   61.7250 C   0  0  0  0  0  0  0  0  0  0  0  0
  132.0590  124.4890   60.3990 C   0  0  0  0  0  0  0  0  0  0  0  0
  133.0210  123.8150   59.6680 O   0  0  0  0  0  0  0  0  0  0  0  0
  134.3570  124.3050   59.6660 C   0  0  0  0  0  0  0  0  0  0  0  0
  131.4130  125.5490   59.7600 C   0  0  0  0  0  0  0  0  0  0  0  0
  131.5440  126.1200   58.4150 C   0  0  0  0  0  0  0  0  0  0  0  0
  132.2650  125.7440   57.4920 O   0  0  0  0  0  0  0  0  0  0  0  0
  131.2630  128.7070   58.4020 C   0  0  0  0  0  0  0  0  0  0  0  0
  132.5150  128.9000   58.2270 O   0  0  0  0  0  0  0  0  0  0  0  0
  130.0890  131.0920   60.7450 C   0  0  0  0  0  0  0  0  0  0  0  0
  128.8480  130.4640   60.9060 C   0  0  0  0  0  0  0  0  0  0  0  0
  128.1540  130.5090   62.1230 C   0  0  0  0  0  0  0  0  0  0  0  0
  126.9300  129.8980   62.3310 O   0  0  0  0  0  0  0  0  0  0  0  0
  126.3580  129.1020   61.2980 C   0  0  0  0  0  0  0  0  0  0  0  0
  128.7130  131.2020   63.2030 C   0  0  0  0  0  0  0  0  0  0  0  0
  127.9930  131.2080   64.3860 O   0  0  0  0  0  0  0  0  0  0  0  0
  127.9550  130.0330   65.1910 C   0  0  0  0  0  0  0  0  0  0  0  0
  129.9490  131.8460   63.0410 C   0  0  0  0  0  0  0  0  0  0  0  0
  130.6460  131.8000   61.8230 C   0  0  0  0  0  0  0  0  0  0  0  0
  131.8740  132.4110   61.6300 O   0  0  0  0  0  0  0  0  0  0  0  0
  133.0730  131.7270   61.9770 C   0  0  0  0  0  0  0  0  0  0  0  0
  127.4300  133.1073   60.8553 H   0  0  0  0  0  0  0  0  0  0  0  0
  127.0011  133.9370   59.3210 H   0  0  0  0  0  0  0  0  0  0  0  0
  127.3563  132.1762   59.3210 H   0  0  0  0  0  0  0  0  0  0  0  0
  131.3064  132.1162   57.5786 H   0  0  0  0  0  0  0  0  0  0  0  0
  131.5230  133.0387   59.1644 H   0  0  0  0  0  0  0  0  0  0  0  0
  131.8815  130.8808   59.6696 H   0  0  0  0  0  0  0  0  0  0  0  0
  127.6445  128.0762   57.9394 H   0  0  0  0  0  0  0  0  0  0  0  0
  128.2594  128.6945   56.3169 H   0  0  0  0  0  0  0  0  0  0  0  0
  130.1750  127.3495   56.3767 H   0  0  0  0  0  0  0  0  0  0  0  0
  128.5099  125.4795   57.9943 H   0  0  0  0  0  0  0  0  0  0  0  0
  127.8475  126.1306   56.4567 H   0  0  0  0  0  0  0  0  0  0  0  0
  129.4070  125.2391   56.4567 H   0  0  0  0  0  0  0  0  0  0  0  0
  130.5831  124.9460   65.7330 H   0  0  0  0  0  0  0  0  0  0  0  0
  132.0492  125.1357   64.7127 H   0  0  0  0  0  0  0  0  0  0  0  0
  130.7838  126.4106   64.7127 H   0  0  0  0  0  0  0  0  0  0  0  0
  132.1996  123.3583   62.2458 H   0  0  0  0  0  0  0  0  0  0  0  0
  134.7026  124.4318   60.7026 H   0  0  0  0  0  0  0  0  0  0  0  0
  135.0098  123.5878   59.1469 H   0  0  0  0  0  0  0  0  0  0  0  0
  134.3913  125.2742   59.1469 H   0  0  0  0  0  0  0  0  0  0  0  0
  128.4068  129.9220   60.0566 H   0  0  0  0  0  0  0  0  0  0  0  0
  125.7717  128.2861   61.7459 H   0  0  0  0  0  0  0  0  0  0  0  0
  125.7009  129.7266   60.6751 H   0  0  0  0  0  0  0  0  0  0  0  0
  127.1596  128.6784   60.6751 H   0  0  0  0  0  0  0  0  0  0  0  0
  127.9642  130.3163   66.2539 H   0  0  0  0  0  0  0  0  0  0  0  0
  127.0381  129.4668   64.9703 H   0  0  0  0  0  0  0  0  0  0  0  0
  128.8334  129.4088   64.9703 H   0  0  0  0  0  0  0  0  0  0  0  0
  130.3818  132.3995   63.8874 H   0  0  0  0  0  0  0  0  0  0  0  0
  133.1623  131.6761   63.0722 H   0  0  0  0  0  0  0  0  0  0  0  0
  133.0466  130.7080   61.5635 H   0  0  0  0  0  0  0  0  0  0  0  0
  133.9367  132.2683   61.5635 H   0  0  0  0  0  0  0  0  0  0  0  0
  1  2  1  0
  2  3  1  0
  3  4  2  0
  3  5  1  0
  5  6  1  0
  6  7  1  0
  7  8  2  0
  8  9  1  0
  8 10  1  0
 10 11  1  0
 11 12  1  0
 11 13  1  0
 13 14  1  1
 14 15  1  0
 15 16  2  0
 16 17  1  0
 16 18  1  0
 18 19  1  0
 19 20  1  0
 18 21  2  0
 21 22  1  0
 22 23  1  0
 23 24  1  0
 22 25  2  0
 25 26  1  0
 26 27  2  0
 13 28  1  0
 28 29  2  0
  6 30  1  0
 30 31  2  0
 31 32  1  0
 32 33  1  0
 33 34  1  0
 32 35  2  0
 35 36  1  0
 36 37  1  0
 35 38  1  0
 38 39  2  0
 39 40  1  0
 40 41  1  0
 28  7  1  0
 39 30  1  0
 26 13  1  0
 25 15  1  0
  1 42  1  0
  1 43  1  0
  1 44  1  0
  5 45  1  0
  5 46  1  0
  6 47  1  1
 10 48  1  0
 10 49  1  0
 11 50  1  6
 12 51  1  0
 12 52  1  0
 12 53  1  0
 20 54  1  0
 20 55  1  0
 20 56  1  0
 21 57  1  0
 24 58  1  0
 24 59  1  0
 24 60  1  0
 31 61  1  0
 34 62  1  0
 34 63  1  0
 34 64  1  0
 37 65  1  0
 37 66  1  0
 37 67  1  0
 38 68  1  0
 41 69  1  0
 41 70  1  0
 41 71  1  0
M  CHG  1   9  -1
M  END
>  <Binding energies>  (1) 
[-5.61]

>  <Ligand effiencies>  (1) 
[-0.13682926829268294]

>  <Interactions>  (1) 
["V-A:ILE:369:CG2:3237, V-A:ASP:366:CA:3210, V-A:ILE:369:CB:3236, H-A:ALA:541:N:4891, H-A:TYR:531:OH:4795, V-A:ASP:366:CG:3213, V-A:ASN:362:CB:3176, V-A:TYR:539:CD1:4873, H-B:TYR:539:OH:9850, V-A:ALA:541:CB:4892, V-A:GLU:543:CD:4908, H-B:TYR:484:OH:9319, V-A:ILE:369:CD1:3239, V-A:ASP:366:C:3208, V-A:GLU:543:CG:4907, V-B:GLU:543:CD:9880, V-A:TYR:539:C:4867, V-A:ASP:366:CB:3212, V-A:PRO:540:N:4884, H-A:TYR:539:N:4870, V-A:PRO:540:CB:4885, V-A:PRO:540:CA:4883, V-A:TYR:539:CE1:4875"]

$$$$
ZINC89705287
     RDKit          3D

 27 28  0  0  0  0  0  0  0  0999 V2000
  135.1020  125.8570   75.7000 C   0  0  0  0  0  0  0  0  0  0  0  0
  133.6290  125.7490   75.3850 C   0  0  0  0  0  0  0  0  0  0  0  0
  132.7310  124.7690   75.7940 C   0  0  0  0  0  0  0  0  0  0  0  0
  131.1580  125.1220   75.1450 S   0  0  0  0  0  0  0  0  0  0  0  0
  131.8250  126.5430   74.4040 C   0  0  0  0  0  0  0  0  0  0  0  0
  130.9710  127.3080   73.6570 N   0  0  0  0  0  0  0  0  0  0  0  0
  129.8260  126.9290   73.1970 C   0  0  0  0  0  0  0  0  0  0  0  0
  129.2370  125.8330   73.2700 O   0  0  0  0  0  0  0  0  0  0  0  0
  129.0560  128.0170   72.4040 C   0  0  1  0  0  0  0  0  0  0  0  0
  129.3480  129.3990   72.8420 C   0  0  0  0  0  0  0  0  0  0  0  0
  129.5720  130.4830   73.1840 N   0  0  0  0  0  0  0  0  0  0  0  0
  129.2950  127.8870   70.9000 C   0  0  0  0  0  0  0  0  0  0  0  0
  128.3330  127.7040   70.0210 N   0  0  0  0  0  0  0  0  0  0  0  0
  128.7690  127.6150   68.7790 C   0  0  0  0  0  0  0  0  0  0  0  0
  127.7220  127.4120   67.7070 C   0  0  0  0  0  0  0  0  0  0  0  0
  130.1470  127.7220   68.6270 C   0  0  0  0  0  0  0  0  0  0  0  0
  130.8780  127.9490   70.1850 S   0  0  0  0  0  0  0  0  0  0  0  0
  133.1160  126.6980   74.6230 N   0  0  0  0  0  0  0  0  0  0  0  0
  135.2439  125.8674   76.7908 H   0  0  0  0  0  0  0  0  0  0  0  0
  135.6332  124.9954   75.2693 H   0  0  0  0  0  0  0  0  0  0  0  0
  135.5018  126.7869   75.2693 H   0  0  0  0  0  0  0  0  0  0  0  0
  132.9778  123.9054   76.4290 H   0  0  0  0  0  0  0  0  0  0  0  0
  127.9943  127.8323   72.6245 H   0  0  0  0  0  0  0  0  0  0  0  0
  126.7463  127.2228   68.1785 H   0  0  0  0  0  0  0  0  0  0  0  0
  127.6581  128.3145   67.0813 H   0  0  0  0  0  0  0  0  0  0  0  0
  128.0000  126.5510   67.0813 H   0  0  0  0  0  0  0  0  0  0  0  0
  130.6883  127.6709   67.6708 H   0  0  0  0  0  0  0  0  0  0  0  0
  1  2  1  0
  2  3  2  0
  3  4  1  0
  4  5  1  0
  5  6  1  0
  6  7  2  0
  7  8  1  0
  7  9  1  0
  9 10  1  0
 10 11  3  0
  9 12  1  0
 12 13  2  0
 13 14  1  0
 14 15  1  0
 14 16  2  0
 16 17  1  0
  5 18  2  0
 18  2  1  0
 17 12  1  0
  1 19  1  0
  1 20  1  0
  1 21  1  0
  3 22  1  0
  9 23  1  6
 15 24  1  0
 15 25  1  0
 15 26  1  0
 16 27  1  0
M  CHG  1   8  -1
M  END
>  <Binding energies>  (1) 
[-7.37]

>  <Ligand effiencies>  (1) 
[-0.40944444444444444]

>  <Interactions>  (1) 
["V-B:HIS:456:CD2:9039, V-A:GLU:543:C:4902, V-B:GLU:543:CB:9878, H-B:LYS:547:NZ:9923, V-A:VAL:457:CA:4075, V-B:GLU:543:CG:9879, V-A:GLY:544:C:4912, V-A:HIS:456:CD2:4068, V-A:VAL:457:C:4073, V-A:LYS:547:CG:4948, V-A:HIS:456:CB:4065, V-A:GLU:543:CD:4908, V-B:HIS:456:CE1:9041, V-A:HIS:456:CE1:4070, V-B:GLU:543:CD:9880, H-A:LYS:547:NZ:4951, V-A:HIS:456:C:4061, V-A:GLU:543:CB:4906, V-A:HIS:456:CG:4066, V-A:VAL:458:CG2:4087"]

$$$$
ZINC89705287-again1
     RDKit          3D

 28 29  0  0  0  0  0  0  0  0999 V2000
  135.1370  125.9790   75.8840 C   0  0  0  0  0  0  0  0  0  0  0  0
  133.6830  125.8390   75.4990 C   0  0  0  0  0  0  0  0  0  0  0  0
  132.7840  124.8410   75.8710 C   0  0  0  0  0  0  0  0  0  0  0  0
  131.2320  125.1530   75.1530 S   0  0  0  0  0  0  0  0  0  0  0  0
  131.9170  126.5700   74.4310 C   0  0  0  0  0  0  0  0  0  0  0  0
  131.0830  127.3480   73.6410 N   0  0  0  0  0  0  0  0  0  0  0  0
  129.9010  126.9730   73.0980 C   0  0  0  0  0  0  0  0  0  0  0  0
  129.3880  125.8620   73.2370 O   0  0  0  0  0  0  0  0  0  0  0  0
  129.1880  128.0470   72.2550 C   0  0  1  0  0  0  0  0  0  0  0  0
  129.4480  129.4370   72.6750 C   0  0  0  0  0  0  0  0  0  0  0  0
  129.6490  130.5280   73.0030 N   0  0  0  0  0  0  0  0  0  0  0  0
  129.4730  127.9000   70.7640 C   0  0  0  0  0  0  0  0  0  0  0  0
  128.5360  127.7320   69.8580 N   0  0  0  0  0  0  0  0  0  0  0  0
  129.0080  127.6260   68.6300 C   0  0  0  0  0  0  0  0  0  0  0  0
  127.9940  127.4230   67.5280 C   0  0  0  0  0  0  0  0  0  0  0  0
  130.3910  127.7180   68.5190 C   0  0  0  0  0  0  0  0  0  0  0  0
  131.0780  127.9470   70.0960 S   0  0  0  0  0  0  0  0  0  0  0  0
  133.1860  126.7760   74.7090 N   0  0  0  0  0  0  0  0  0  0  0  0
  135.2268  125.9876   76.9803 H   0  0  0  0  0  0  0  0  0  0  0  0
  135.7076  125.1316   75.4760 H   0  0  0  0  0  0  0  0  0  0  0  0
  135.5354  126.9197   75.4760 H   0  0  0  0  0  0  0  0  0  0  0  0
  133.0208  123.9855   76.5206 H   0  0  0  0  0  0  0  0  0  0  0  0
  131.4020  128.2890   73.4600 H   0  0  0  0  0  0  0  0  0  0  0  0
  128.1213  127.8551   72.4431 H   0  0  0  0  0  0  0  0  0  0  0  0
  127.0064  127.2253   67.9703 H   0  0  0  0  0  0  0  0  0  0  0  0
  127.9424  128.3286   66.9058 H   0  0  0  0  0  0  0  0  0  0  0  0
  128.2951  126.5673   66.9058 H   0  0  0  0  0  0  0  0  0  0  0  0
  130.9599  127.6555   67.5796 H   0  0  0  0  0  0  0  0  0  0  0  0
  1  2  1  0
  2  3  2  0
  3  4  1  0
  4  5  1  0
  5  6  1  0
  6  7  1  0
  7  8  2  0
  7  9  1  0
  9 10  1  0
 10 11  3  0
  9 12  1  0
 12 13  2  0
 13 14  1  0
 14 15  1  0
 14 16  2  0
 16 17  1  0
  5 18  2  0
 18  2  1  0
 17 12  1  0
  1 19  1  0
  1 20  1  0
  1 21  1  0
  3 22  1  0
  6 23  1  0
  9 24  1  6
 15 25  1  0
 15 26  1  0
 15 27  1  0
 16 28  1  0
M  END
>  <Binding energies>  (1) 
[-6.43]

>  <Ligand effiencies>  (1) 
[-0.33842105263157896]

>  <Interactions>  (1) 
["V-B:HIS:456:CD2:9039, V-A:GLU:543:C:4902, V-B:GLU:543:CB:9878, H-B:LYS:547:NZ:9923, V-A:VAL:457:CA:4075, V-A:GLY:544:C:4912, V-B:GLU:543:CG:9879, V-A:HIS:456:CD2:4068, V-A:VAL:457:C:4073, V-A:LYS:547:CG:4948, V-A:HIS:456:CB:4065, V-A:GLU:543:CD:4908, V-B:HIS:456:CE1:9041, V-A:HIS:456:CE1:4070, V-A:GLU:543:CG:4907, V-B:GLU:543:CD:9880, H-A:LYS:547:NZ:4951, V-A:HIS:456:C:4061, V-A:GLU:543:CB:4906, V-A:HIS:456:CG:4066, V-A:VAL:458:CG2:4087, H-A:GLY:544:O:4913"]

$$$$
ZINC902321001
     RDKit          3D

 33 33  0  0  0  0  0  0  0  0999 V2000
  129.5590  126.0240   67.7230 C   0  0  0  0  0  0  0  0  0  0  0  0
  129.2890  127.3100   68.5170 C   0  0  0  0  0  0  0  0  0  0  0  0
  128.5620  128.3650   67.6590 C   0  0  0  0  0  0  0  0  0  0  0  0
  130.5500  127.7910   68.9740 O   0  0  0  0  0  0  0  0  0  0  0  0
  130.6350  128.0910   70.3630 C   0  0  0  0  0  0  0  0  0  0  0  0
  129.2430  127.9460   70.9940 C   0  0  0  0  0  0  0  0  0  0  0  0
  129.2430  127.2480   72.6730 S   0  0  0  0  0  0  0  0  0  0  0  0
  131.0250  127.1140   72.9960 C   0  0  0  0  0  0  0  0  0  0  0  0
  131.3930  126.5760   74.3850 C   0  0  0  0  0  0  0  0  0  0  0  0
  132.6140  127.1720   74.8000 O   0  0  0  0  0  0  0  0  0  0  0  0
  133.7570  126.4190   74.4300 C   0  0  0  0  0  0  0  0  0  0  0  0
  135.1030  126.9820   74.8020 C   0  0  0  0  0  0  0  0  0  0  0  0
  134.5610  125.7630   75.5240 C   0  0  0  0  0  0  0  0  0  0  0  0
  129.7337  125.1920   68.4210 H   0  0  0  0  0  0  0  0  0  0  0  0
  128.6894  125.7948   67.0896 H   0  0  0  0  0  0  0  0  0  0  0  0
  130.4474  126.1639   67.0896 H   0  0  0  0  0  0  0  0  0  0  0  0
  128.6232  127.1020   69.3675 H   0  0  0  0  0  0  0  0  0  0  0  0
  128.0617  129.0910   68.3167 H   0  0  0  0  0  0  0  0  0  0  0  0
  129.2924  128.8879   67.0241 H   0  0  0  0  0  0  0  0  0  0  0  0
  127.8133  127.8687   67.0241 H   0  0  0  0  0  0  0  0  0  0  0  0
  131.3339  127.3939   70.8484 H   0  0  0  0  0  0  0  0  0  0  0  0
  130.9980  129.1205   70.4984 H   0  0  0  0  0  0  0  0  0  0  0  0
  128.7800  128.9429   71.0367 H   0  0  0  0  0  0  0  0  0  0  0  0
  128.6860  127.2387   70.3620 H   0  0  0  0  0  0  0  0  0  0  0  0
  131.4587  126.4397   72.2429 H   0  0  0  0  0  0  0  0  0  0  0  0
  131.4244  128.1377   72.9468 H   0  0  0  0  0  0  0  0  0  0  0  0
  130.5970  126.8275   75.1013 H   0  0  0  0  0  0  0  0  0  0  0  0
  131.5069  125.4827   74.3434 H   0  0  0  0  0  0  0  0  0  0  0  0
  133.2887  126.0647   73.4999 H   0  0  0  0  0  0  0  0  0  0  0  0
  135.9525  126.8798   74.1107 H   0  0  0  0  0  0  0  0  0  0  0  0
  135.4753  127.9694   75.1125 H   0  0  0  0  0  0  0  0  0  0  0  0
  135.0165  124.7758   75.3565 H   0  0  0  0  0  0  0  0  0  0  0  0
  134.3760  125.4980   76.5754 H   0  0  0  0  0  0  0  0  0  0  0  0
  1  2  1  0
  2  3  1  0
  2  4  1  0
  4  5  1  0
  5  6  1  0
  6  7  1  0
  7  8  1  0
  8  9  1  0
  9 10  1  0
 10 11  1  0
 11 12  1  0
 12 13  1  0
 13 11  1  0
  1 14  1  0
  1 15  1  0
  1 16  1  0
  2 17  1  0
  3 18  1  0
  3 19  1  0
  3 20  1  0
  5 21  1  0
  5 22  1  0
  6 23  1  0
  6 24  1  0
  8 25  1  0
  8 26  1  0
  9 27  1  0
  9 28  1  0
 11 29  1  0
 12 30  1  0
 12 31  1  0
 13 32  1  0
 13 33  1  0
M  END
>  <Binding energies>  (1) 
[-3.93]

>  <Ligand effiencies>  (1) 
[-0.30230769230769233]

>  <Interactions>  (1) 
["V-B:HIS:456:CD2:9039, V-A:GLU:543:C:4902, V-B:GLU:543:CB:9878, V-B:GLU:543:CG:9879, V-A:GLY:544:C:4912, V-A:HIS:456:CD2:4068, V-A:VAL:457:C:4073, V-A:LYS:547:CG:4948, V-A:LYS:547:CB:4947, V-A:HIS:456:CB:4065, V-A:GLU:543:CD:4908, V-B:HIS:456:CE1:9041, V-A:HIS:456:CE1:4070, V-A:HIS:456:CA:4063, V-A:GLU:543:CG:4907, H-A:LYS:547:NZ:4951, V-A:HIS:456:C:4061, V-A:ARG:545:C:4917, V-A:HIS:456:CG:4066, V-A:GLU:543:CB:4906, V-A:ILE:546:C:4934, V-A:VAL:458:CG2:4087"]

$$$$
ZINC904217719
     RDKit          3D

 42 42  0  0  0  0  0  0  0  0999 V2000
  133.9360  124.3550   62.7570 C   0  0  0  0  0  0  0  0  0  0  0  0
  133.2270  124.6080   63.8670 C   0  0  0  0  0  0  0  0  0  0  0  0
  131.9110  125.3670   63.9070 C   0  0  0  0  0  0  0  0  0  0  0  0
  130.6960  124.5610   64.4370 C   0  0  1  0  0  0  0  0  0  0  0  0
  130.7070  123.1040   63.9230 C   0  0  0  0  0  0  0  0  0  0  0  0
  130.8940  122.1920   64.9860 O   0  0  0  0  0  0  0  0  0  0  0  0
  130.5930  124.5790   65.8990 N   0  0  0  0  0  0  0  0  0  0  0  0
  129.8750  125.5510   66.6160 C   0  0  0  0  0  0  0  0  0  0  0  0
  129.2990  126.6070   65.9040 C   0  0  0  0  0  0  0  0  0  0  0  0
  128.5850  127.5580   66.6360 C   0  0  0  0  0  0  0  0  0  0  0  0
  128.4370  127.4780   67.9820 N   0  0  0  0  0  0  0  0  0  0  0  0
  129.0240  126.4170   68.6020 C   0  0  0  0  0  0  0  0  0  0  0  0
  128.9120  126.2590   69.9920 N   0  0  0  0  0  0  0  0  0  0  0  0
  128.4800  127.3250   70.9060 C   0  0  1  0  0  0  0  0  0  0  0  0
  128.1040  126.7870   72.3070 C   0  0  0  0  0  0  0  0  0  0  0  0
  128.5360  125.4560   72.5170 O   0  0  0  0  0  0  0  0  0  0  0  0
  129.5130  128.4710   71.0070 C   0  0  0  0  0  0  0  0  0  0  0  0
  130.9590  128.0430   70.8210 C   0  0  0  0  0  0  0  0  0  0  0  0
  131.6200  128.0640   69.6530 C   0  0  0  0  0  0  0  0  0  0  0  0
  129.7420  125.4540   67.9700 N   0  0  0  0  0  0  0  0  0  0  0  0
  134.8812  123.7962   62.8235 H   0  0  0  0  0  0  0  0  0  0  0  0
  133.5723  124.7063   61.7801 H   0  0  0  0  0  0  0  0  0  0  0  0
  133.6289  124.2377   64.8217 H   0  0  0  0  0  0  0  0  0  0  0  0
  132.0450  126.2454   64.5555 H   0  0  0  0  0  0  0  0  0  0  0  0
  131.6750  125.6213   62.8632 H   0  0  0  0  0  0  0  0  0  0  0  0
  129.8060  125.0693   64.0376 H   0  0  0  0  0  0  0  0  0  0  0  0
  129.7474  122.8895   63.4300 H   0  0  0  0  0  0  0  0  0  0  0  0
  131.5397  122.9897   63.2134 H   0  0  0  0  0  0  0  0  0  0  0  0
  131.6420  122.4850   65.5120 H   0  0  0  0  0  0  0  0  0  0  0  0
  131.0040  123.8100   66.4080 H   0  0  0  0  0  0  0  0  0  0  0  0
  129.4039  126.6857   64.8118 H   0  0  0  0  0  0  0  0  0  0  0  0
  128.1259  128.4028   66.1016 H   0  0  0  0  0  0  0  0  0  0  0  0
  129.1270  125.3560   70.3900 H   0  0  0  0  0  0  0  0  0  0  0  0
  127.5660  127.7471   70.4628 H   0  0  0  0  0  0  0  0  0  0  0  0
  128.5689  127.4316   73.0675 H   0  0  0  0  0  0  0  0  0  0  0  0
  127.0065  126.7948   72.3814 H   0  0  0  0  0  0  0  0  0  0  0  0
  128.3510  124.9470   71.7230 H   0  0  0  0  0  0  0  0  0  0  0  0
  129.2744  129.2160   70.2337 H   0  0  0  0  0  0  0  0  0  0  0  0
  129.4365  128.8679   72.0300 H   0  0  0  0  0  0  0  0  0  0  0  0
  131.5042  127.6900   71.7088 H   0  0  0  0  0  0  0  0  0  0  0  0
  132.6688  127.7354   69.6086 H   0  0  0  0  0  0  0  0  0  0  0  0
  131.1129  128.4098   68.7402 H   0  0  0  0  0  0  0  0  0  0  0  0
  1  2  2  0
  2  3  1  0
  3  4  1  0
  4  5  1  0
  5  6  1  0
  4  7  1  0
  7  8  1  0
  8  9  2  0
  9 10  1  0
 10 11  2  0
 11 12  1  0
 12 13  1  0
 13 14  1  0
 14 15  1  0
 15 16  1  0
 14 17  1  0
 17 18  1  0
 18 19  2  0
 12 20  2  0
 20  8  1  0
  1 21  1  0
  1 22  1  0
  2 23  1  0
  3 24  1  0
  3 25  1  0
  4 26  1  6
  5 27  1  0
  5 28  1  0
  6 29  1  0
  7 30  1  0
  9 31  1  0
 10 32  1  0
 13 33  1  0
 14 34  1  6
 15 35  1  0
 15 36  1  0
 16 37  1  0
 17 38  1  0
 17 39  1  0
 18 40  1  0
 19 41  1  0
 19 42  1  0
M  END
>  <Binding energies>  (1) 
[-5.53]

>  <Ligand effiencies>  (1) 
[-0.2304166666666667]

>  <Interactions>  (1) 
["V-A:ARG:545:CA:4919, V-A:GLU:543:CA:4904, V-B:GLU:543:C:9874, V-B:HIS:456:CD2:9039, H-B:GLU:543:O:9875, V-A:GLU:543:C:4902, V-B:GLU:543:CB:9878, H-B:LYS:547:NZ:9923, V-A:TYR:484:CE2:4346, V-B:GLU:543:CG:9879, V-A:GLY:544:C:4912, V-B:LYS:547:CE:9922, V-A:GLU:543:CD:4908, V-A:TYR:484:CZ:4347, V-B:HIS:456:CE1:9041, V-A:ARG:545:CG:4922, V-A:HIS:456:CE1:4070, V-B:GLU:543:CD:9880, V-A:LEU:475:CD2:4259, V-A:ARG:545:CZ:4926, V-A:GLU:543:CB:4906, H-A:HIS:456:NE2:4071, H-A:TYR:484:OH:4348"]

$$$$
ZINC906489144
     RDKit          3D

 56 58  0  0  0  0  0  0  0  0999 V2000
  125.4210  123.6510   57.4000 C   0  0  0  0  0  0  0  0  0  0  0  0
  125.3820  124.7400   58.4890 C   0  0  0  0  0  0  0  0  0  0  0  0
  126.6510  125.0600   59.1730 N   0  0  0  0  0  0  0  0  0  0  0  0
  126.9780  126.4660   59.4680 C   0  0  0  0  0  0  0  0  0  0  0  0
  126.1130  127.4750   58.6930 C   0  0  0  0  0  0  0  0  0  0  0  0
  127.3380  124.0110   59.8620 C   0  0  0  0  0  0  0  0  0  0  0  0
  127.2490  123.8650   61.2600 C   0  0  0  0  0  0  0  0  0  0  0  0
  127.9200  122.8440   61.9280 C   0  0  0  0  0  0  0  0  0  0  0  0
  128.7080  121.9450   61.2160 C   0  0  0  0  0  0  0  0  0  0  0  0
  129.4380  120.8300   61.9490 C   0  0  0  0  0  0  0  0  0  0  0  0
  130.8140  120.6330   61.4300 N   0  0  0  0  0  0  0  0  0  0  0  0
  131.0580  119.4880   60.5280 C   0  0  0  0  0  0  0  0  0  0  0  0
  131.9640  121.9810   61.4390 S   0  0  0  0  0  0  0  0  0  0  0  0
  133.2570  121.4620   61.9030 O   0  0  0  0  0  0  0  0  0  0  0  0
  131.8640  122.6920   60.1590 O   0  0  0  0  0  0  0  0  0  0  0  0
  131.3430  123.0920   62.7000 C   0  0  0  0  0  0  0  0  0  0  0  0
  130.8310  122.5660   63.8880 C   0  0  0  0  0  0  0  0  0  0  0  0
  130.3630  123.4230   64.8800 C   0  0  0  0  0  0  0  0  0  0  0  0
  130.4130  124.8090   64.6820 C   0  0  0  0  0  0  0  0  0  0  0  0
  129.9500  125.6810   65.6840 N   0  0  0  0  0  0  0  0  0  0  0  0
  130.4380  125.3740   66.9580 N   0  0  0  0  0  0  0  0  0  0  0  0
  130.0920  126.0940   67.9670 C   0  0  0  0  0  0  0  0  0  0  0  0
  129.2080  127.2140   67.7780 C   0  0  0  0  0  0  0  0  0  0  0  0
  128.7670  128.1680   69.2010 Cl  0  0  0  0  0  0  0  0  0  0  0  0
  128.7390  127.5140   66.5370 C   0  0  0  0  0  0  0  0  0  0  0  0
  127.6510  128.8900   66.2800 Cl  0  0  0  0  0  0  0  0  0  0  0  0
  129.1040  126.7250   65.3580 C   0  0  0  0  0  0  0  0  0  0  0  0
  128.6990  126.9810   64.2210 O   0  0  0  0  0  0  0  0  0  0  0  0
  130.9340  125.3330   63.4950 C   0  0  0  0  0  0  0  0  0  0  0  0
  131.3980  124.4740   62.5040 C   0  0  0  0  0  0  0  0  0  0  0  0
  128.8130  122.0650   59.8320 C   0  0  0  0  0  0  0  0  0  0  0  0
  128.1380  123.0830   59.1660 C   0  0  0  0  0  0  0  0  0  0  0  0
  125.4565  122.6592   57.8744 H   0  0  0  0  0  0  0  0  0  0  0  0
  124.5196  123.7260   56.7740 H   0  0  0  0  0  0  0  0  0  0  0  0
  126.3147  123.7903   56.7740 H   0  0  0  0  0  0  0  0  0  0  0  0
  125.0181  125.6651   58.0182 H   0  0  0  0  0  0  0  0  0  0  0  0
  124.7330  124.3288   59.2762 H   0  0  0  0  0  0  0  0  0  0  0  0
  126.8329  126.6383   60.5447 H   0  0  0  0  0  0  0  0  0  0  0  0
  128.0202  126.6273   59.1553 H   0  0  0  0  0  0  0  0  0  0  0  0
  125.5668  128.1121   59.4042 H   0  0  0  0  0  0  0  0  0  0  0  0
  126.7587  128.1017   58.0603 H   0  0  0  0  0  0  0  0  0  0  0  0
  125.3950  126.9326   58.0603 H   0  0  0  0  0  0  0  0  0  0  0  0
  126.6359  124.5731   61.8368 H   0  0  0  0  0  0  0  0  0  0  0  0
  127.8270  122.7480   63.0199 H   0  0  0  0  0  0  0  0  0  0  0  0
  129.4943  121.0847   63.0176 H   0  0  0  0  0  0  0  0  0  0  0  0
  128.8782  119.8962   61.7921 H   0  0  0  0  0  0  0  0  0  0  0  0
  131.2505  118.5849   61.1257 H   0  0  0  0  0  0  0  0  0  0  0  0
  130.1742  119.3263   59.8934 H   0  0  0  0  0  0  0  0  0  0  0  0
  131.9310  119.7006   59.8934 H   0  0  0  0  0  0  0  0  0  0  0  0
  130.7976  121.4770   64.0395 H   0  0  0  0  0  0  0  0  0  0  0  0
  129.9554  123.0135   65.8160 H   0  0  0  0  0  0  0  0  0  0  0  0
  130.4709  125.8540   68.9714 H   0  0  0  0  0  0  0  0  0  0  0  0
  130.9769  126.4219   63.3451 H   0  0  0  0  0  0  0  0  0  0  0  0
  131.8073  124.8821   61.5681 H   0  0  0  0  0  0  0  0  0  0  0  0
  129.4309  121.3534   59.2647 H   0  0  0  0  0  0  0  0  0  0  0  0
  128.2308  123.1652   58.0730 H   0  0  0  0  0  0  0  0  0  0  0  0
  1  2  1  0
  2  3  1  0
  3  4  1  0
  4  5  1  0
  3  6  1  0
  6  7  2  0
  7  8  1  0
  8  9  2  0
  9 10  1  0
 10 11  1  0
 11 12  1  0
 11 13  1  0
 13 14  2  0
 13 15  2  0
 13 16  1  0
 16 17  2  0
 17 18  1  0
 18 19  2  0
 19 20  1  0
 20 21  1  0
 21 22  2  0
 22 23  1  0
 23 24  1  0
 23 25  2  0
 25 26  1  0
 25 27  1  0
 27 28  2  0
 19 29  1  0
 29 30  2  0
  9 31  1  0
 31 32  2  0
 32  6  1  0
 30 16  1  0
 27 20  1  0
  1 33  1  0
  1 34  1  0
  1 35  1  0
  2 36  1  0
  2 37  1  0
  4 38  1  0
  4 39  1  0
  5 40  1  0
  5 41  1  0
  5 42  1  0
  7 43  1  0
  8 44  1  0
 10 45  1  0
 10 46  1  0
 12 47  1  0
 12 48  1  0
 12 49  1  0
 17 50  1  0
 18 51  1  0
 22 52  1  0
 29 53  1  0
 30 54  1  0
 31 55  1  0
 32 56  1  0
M  END
>  <Binding energies>  (1) 
[-7.02]

>  <Ligand effiencies>  (1) 
[-0.219375]

>  <Interactions>  (1) 
["V-B:PRO:540:CA:9855, V-B:GLU:543:CB:9878, V-B:ALA:541:CB:9864, V-B:ASP:366:CG:8184, V-B:TYR:539:CE2:9848, V-A:TYR:484:CE2:4346, V-B:GLU:543:CG:9879, V-B:TYR:539:C:9839, V-B:ASP:366:CB:8183, V-B:PRO:540:CB:9857, V-A:TYR:484:CZ:4347, V-A:GLU:543:CD:4908, V-B:HIS:456:CE1:9041, V-B:PRO:540:N:9856, V-A:HIS:456:CE1:4070, V-B:TYR:539:CD2:9846, V-B:GLU:543:CD:9880, V-A:LEU:475:CD2:4259, V-A:GLU:543:CB:4906, V-B:LEU:363:CD1:8160, V-B:PRO:540:C:9853, V-B:ALA:541:CA:9862, H-A:TYR:484:OH:4348"]

$$$$
ZINC9068963
     RDKit          3D

 51 54  0  0  0  0  0  0  0  0999 V2000
  127.4200  122.1650   59.1190 H   0  0  0  0  0  0  0  0  0  0  0  0
  127.6700  123.0700   58.7460 N   0  0  0  0  0  0  0  0  0  0  0  0
  128.8490  123.4150   59.0660 C   0  0  0  0  0  0  0  0  0  0  0  0
  129.5090  124.6830   58.6830 C   0  0  0  0  0  0  0  0  0  0  0  0
  128.7360  125.7420   58.2910 C   0  0  0  0  0  0  0  0  0  0  0  0
  129.1010  127.1430   57.9820 C   0  0  0  0  0  0  0  0  0  0  0  0
  128.4170  127.8780   57.0070 C   0  0  0  0  0  0  0  0  0  0  0  0
  128.7850  129.1930   56.7350 C   0  0  0  0  0  0  0  0  0  0  0  0
  129.8430  129.7730   57.4330 C   0  0  0  0  0  0  0  0  0  0  0  0
  130.1960  131.0680   57.1680 O   0  0  0  0  0  0  0  0  0  0  0  0
  129.5470  132.2450   58.1610 S   0  0  0  0  0  0  0  0  0  0  0  0
  129.8750  133.5610   57.5970 O   0  0  0  0  0  0  0  0  0  0  0  0
  128.1700  131.8650   58.4940 O   0  0  0  0  0  0  0  0  0  0  0  0
  130.5530  132.0090   59.6410 C   0  0  0  0  0  0  0  0  0  0  0  0
  129.9320  132.0940   60.8960 C   0  0  0  0  0  0  0  0  0  0  0  0
  130.6500  131.8600   62.0660 C   0  0  0  0  0  0  0  0  0  0  0  0
  132.0000  131.5380   61.9980 C   0  0  0  0  0  0  0  0  0  0  0  0
  132.6360  131.4680   60.7610 C   0  0  0  0  0  0  0  0  0  0  0  0
  131.9360  131.7170   59.5690 C   0  0  0  0  0  0  0  0  0  0  0  0
  132.6870  131.6690   58.2930 N   0  0  0  0  0  0  0  0  0  0  0  0
  133.4300  130.7180   58.0770 O   0  0  0  0  0  0  0  0  0  0  0  0
  132.4950  132.5680   57.4790 O   0  0  0  0  0  0  0  0  0  0  0  0
  130.5470  129.0390   58.3860 C   0  0  0  0  0  0  0  0  0  0  0  0
  130.1770  127.7250   58.6580 C   0  0  0  0  0  0  0  0  0  0  0  0
  130.9930  124.8000   58.7740 C   0  0  0  0  0  0  0  0  0  0  0  0
  131.5810  125.5560   58.0000 O   0  0  0  0  0  0  0  0  0  0  0  0
  131.6210  123.9700   59.7230 N   0  0  0  0  0  0  0  0  0  0  0  0
  131.0140  122.9430   60.1820 C   0  0  0  0  0  0  0  0  0  0  0  0
  131.6800  121.7530   61.3140 S   0  0  0  0  0  0  0  0  0  0  0  0
  130.0970  120.8850   61.2470 C   0  0  0  0  0  0  0  0  0  0  0  0
  129.8490  119.6050   62.0290 C   0  0  0  0  0  0  0  0  0  0  0  0
  130.3040  118.3570   61.2440 C   0  0  0  0  0  0  0  0  0  0  0  0
  131.2850  118.6940   60.1120 C   0  0  0  0  0  0  0  0  0  0  0  0
  129.2100  121.4060   60.4980 N   0  0  0  0  0  0  0  0  0  0  0  0
  129.6830  122.5750   59.8860 N   0  0  0  0  0  0  0  0  0  0  0  0
  127.6647  125.5142   58.1884 H   0  0  0  0  0  0  0  0  0  0  0  0
  127.5862  127.4154   56.4539 H   0  0  0  0  0  0  0  0  0  0  0  0
  128.2431  129.7717   55.9725 H   0  0  0  0  0  0  0  0  0  0  0  0
  128.8637  132.3489   60.9567 H   0  0  0  0  0  0  0  0  0  0  0  0
  130.1491  131.9300   63.0428 H   0  0  0  0  0  0  0  0  0  0  0  0
  132.5657  131.3386   62.9201 H   0  0  0  0  0  0  0  0  0  0  0  0
  133.7052  131.2133   60.7167 H   0  0  0  0  0  0  0  0  0  0  0  0
  131.3921  129.4965   58.9213 H   0  0  0  0  0  0  0  0  0  0  0  0
  130.7332  127.1428   59.4074 H   0  0  0  0  0  0  0  0  0  0  0  0
  130.4063  119.6527   62.9762 H   0  0  0  0  0  0  0  0  0  0  0  0
  128.7675  119.5193   62.2107 H   0  0  0  0  0  0  0  0  0  0  0  0
  130.7961  117.6629   61.9411 H   0  0  0  0  0  0  0  0  0  0  0  0
  129.4101  117.9083   60.7863 H   0  0  0  0  0  0  0  0  0  0  0  0
  132.2424  119.0229   60.5423 H   0  0  0  0  0  0  0  0  0  0  0  0
  131.4495  117.8008   59.4913 H   0  0  0  0  0  0  0  0  0  0  0  0
  130.8659  119.4997   59.4913 H   0  0  0  0  0  0  0  0  0  0  0  0
  1  2  1  0
  2  3  2  0
  3  4  1  0
  4  5  2  0
  5  6  1  0
  6  7  2  0
  7  8  1  0
  8  9  2  0
  9 10  1  0
 10 11  1  0
 11 12  2  0
 11 13  2  0
 11 14  1  0
 14 15  2  0
 15 16  1  0
 16 17  2  0
 17 18  1  0
 18 19  2  0
 19 20  1  0
 20 21  2  0
 20 22  1  0
  9 23  1  0
 23 24  2  0
  4 25  1  0
 25 26  2  0
 25 27  1  0
 27 28  2  0
 28 29  1  0
 29 30  1  0
 30 31  1  0
 31 32  1  0
 32 33  1  0
 30 34  2  0
 34 35  1  0
 35  3  1  0
 24  6  1  0
 35 28  1  0
 19 14  1  0
  5 36  1  0
  7 37  1  0
  8 38  1  0
 15 39  1  0
 16 40  1  0
 17 41  1  0
 18 42  1  0
 23 43  1  0
 24 44  1  0
 31 45  1  0
 31 46  1  0
 32 47  1  0
 32 48  1  0
 33 49  1  0
 33 50  1  0
 33 51  1  0
M  CHG  2  20   1  22  -1
M  END
>  <Binding energies>  (1) 
[-7.59]

>  <Ligand effiencies>  (1) 
[-0.21685714285714286]

>  <Interactions>  (1) 
["V-B:ALA:541:CB:9864, H-A:TYR:531:OH:4795, V-B:TYR:539:CE2:9848, V-A:LEU:475:CG:4257, V-A:LEU:363:CD1:3189, V-B:TYR:539:CZ:9849, H-B:TYR:539:OH:9850, V-A:LEU:475:CD1:4258, V-B:TYR:539:CB:9843, V-A:GLU:543:CD:4908, V-B:TYR:539:CD2:9846, V-A:MET:535:CE:4835, V-A:LEU:475:CD2:4259, V-B:TYR:539:CG:9844, V-A:PRO:540:N:4884, H-A:TYR:539:N:4870, V-A:PRO:540:CB:4885, V-A:PRO:540:CA:4883, H-B:TYR:539:O:9840, V-A:HIS:383:NE2:3394"]

$$$$
ZINC912755993
     RDKit          3D

 49 52  0  0  0  0  0  0  0  0999 V2000
  127.2730  129.4010   65.3880 O   0  0  0  0  0  0  0  0  0  0  0  0
  128.0100  128.6580   66.0390 C   0  0  0  0  0  0  0  0  0  0  0  0
  128.2230  128.7560   67.3360 O   0  0  0  0  0  0  0  0  0  0  0  0
  129.0890  127.7560   67.6520 C   0  0  0  0  0  0  0  0  0  0  0  0
  129.5140  127.6280   69.0610 C   0  0  0  0  0  0  0  0  0  0  0  0
  130.7610  128.1050   69.4870 C   0  0  0  0  0  0  0  0  0  0  0  0
  131.1540  127.9690   70.8170 C   0  0  0  0  0  0  0  0  0  0  0  0
  130.3110  127.3590   71.7460 C   0  0  0  0  0  0  0  0  0  0  0  0
  130.8920  127.1800   73.3680 Cl  0  0  0  0  0  0  0  0  0  0  0  0
  129.0460  126.8890   71.3470 C   0  0  0  0  0  0  0  0  0  0  0  0
  128.1200  126.2270   72.2880 N   0  0  0  0  0  0  0  0  0  0  0  0
  128.2780  125.0330   72.5240 O   0  0  0  0  0  0  0  0  0  0  0  0
  127.2530  126.9140   72.8180 O   0  0  0  0  0  0  0  0  0  0  0  0
  128.6710  127.0190   70.0020 C   0  0  0  0  0  0  0  0  0  0  0  0
  129.4350  127.0390   66.6660 N   0  0  0  0  0  0  0  0  0  0  0  0
  128.8050  127.5320   65.5750 C   0  0  0  0  0  0  0  0  0  0  0  0
  128.8240  127.1430   64.2780 C   0  0  0  0  0  0  0  0  0  0  0  0
  129.5800  126.0360   63.6410 C   0  0  0  0  0  0  0  0  0  0  0  0
  129.0400  125.1860   62.6710 C   0  0  0  0  0  0  0  0  0  0  0  0
  129.8070  124.1710   62.1110 C   0  0  0  0  0  0  0  0  0  0  0  0
  131.1440  123.9650   62.4900 C   0  0  0  0  0  0  0  0  0  0  0  0
  131.8450  122.8770   61.9690 N   0  0  0  0  0  0  0  0  0  0  0  0
  133.2360  123.0160   61.4950 C   0  0  0  0  0  0  0  0  0  0  0  0
  133.9770  121.6660   61.4120 C   0  0  0  0  0  0  0  0  0  0  0  0
  133.2320  120.6590   60.5300 C   0  0  0  0  0  0  0  0  0  0  0  0
  131.7680  120.5670   60.9740 C   0  0  0  0  0  0  0  0  0  0  0  0
  131.1060  121.9580   61.0810 C   0  0  0  0  0  0  0  0  0  0  0  0
  131.7020  124.8140   63.4780 C   0  0  0  0  0  0  0  0  0  0  0  0
  133.1300  124.7420   63.8900 N   0  0  0  0  0  0  0  0  0  0  0  0
  134.0020  125.1190   63.1110 O   0  0  0  0  0  0  0  0  0  0  0  0
  133.3850  124.3510   65.0250 O   0  0  0  0  0  0  0  0  0  0  0  0
  130.9090  125.8350   64.0240 C   0  0  0  0  0  0  0  0  0  0  0  0
  131.4349  128.5906   68.7658 H   0  0  0  0  0  0  0  0  0  0  0  0
  132.1368  128.3457   71.1368 H   0  0  0  0  0  0  0  0  0  0  0  0
  127.6929  126.6344   69.6775 H   0  0  0  0  0  0  0  0  0  0  0  0
  128.1885  127.7314   63.5999 H   0  0  0  0  0  0  0  0  0  0  0  0
  127.9974  125.3219   62.3477 H   0  0  0  0  0  0  0  0  0  0  0  0
  129.3564  123.5134   61.3530 H   0  0  0  0  0  0  0  0  0  0  0  0
  133.2222  123.4715   60.4938 H   0  0  0  0  0  0  0  0  0  0  0  0
  133.7723  123.6439   62.2217 H   0  0  0  0  0  0  0  0  0  0  0  0
  134.9787  121.8354   60.9902 H   0  0  0  0  0  0  0  0  0  0  0  0
  134.0400  121.2485   62.4278 H   0  0  0  0  0  0  0  0  0  0  0  0
  133.2760  120.9886   59.4815 H   0  0  0  0  0  0  0  0  0  0  0  0
  133.7047  119.6705   60.6268 H   0  0  0  0  0  0  0  0  0  0  0  0
  131.2119  119.9648   60.2405 H   0  0  0  0  0  0  0  0  0  0  0  0
  131.7444  120.1026   61.9709 H   0  0  0  0  0  0  0  0  0  0  0  0
  131.0586  122.4028   60.0761 H   0  0  0  0  0  0  0  0  0  0  0  0
  130.1041  121.8154   61.5121 H   0  0  0  0  0  0  0  0  0  0  0  0
  131.3493  126.5011   64.7807 H   0  0  0  0  0  0  0  0  0  0  0  0
  1  2  2  0
  2  3  1  0
  3  4  1  0
  4  5  1  0
  5  6  2  0
  6  7  1  0
  7  8  2  0
  8  9  1  0
  8 10  1  0
 10 11  1  0
 11 12  2  0
 11 13  1  0
 10 14  2  0
  4 15  2  0
 15 16  1  0
 16 17  2  0
 17 18  1  0
 18 19  2  0
 19 20  1  0
 20 21  2  0
 21 22  1  0
 22 23  1  0
 23 24  1  0
 24 25  1  0
 25 26  1  0
 26 27  1  0
 21 28  1  0
 28 29  1  0
 29 30  2  0
 29 31  1  0
 28 32  2  0
 16  2  1  0
 32 18  1  0
 14  5  1  0
 27 22  1  0
  6 33  1  0
  7 34  1  0
 14 35  1  0
 17 36  1  0
 19 37  1  0
 20 38  1  0
 23 39  1  0
 23 40  1  0
 24 41  1  0
 24 42  1  0
 25 43  1  0
 25 44  1  0
 26 45  1  0
 26 46  1  0
 27 47  1  0
 27 48  1  0
 32 49  1  0
M  CHG  4  11   1  13  -1  29   1  31  -1
M  END
>  <Binding energies>  (1) 
[-9.66]

>  <Ligand effiencies>  (1) 
[-0.301875]

>  <Interactions>  (1) 
["V-A:ILE:369:CG2:3237, V-A:GLU:543:CA:4904, V-A:GLU:543:C:4902, H-B:LYS:547:NZ:9923, H-A:ARG:545:NH1:4927, V-B:TYR:539:CE2:9848, V-A:GLY:544:CA:4914, V-B:GLU:543:CG:9879, V-A:GLY:544:C:4912, V-A:HIS:456:CD2:4068, V-B:LYS:547:CE:9922, V-A:GLU:543:CD:4908, H-B:TYR:484:OH:9319, V-B:HIS:456:CE1:9041, H-A:GLY:454:N:4050, V-A:SER:385:C:3405, V-A:HIS:456:CE1:4070, V-A:ILE:369:CD1:3239, V-B:GLY:544:C:9884, V-B:GLY:544:CA:9886, V-A:GLU:543:CG:4907, V-B:TYR:539:CD2:9846, V-A:SER:385:CB:3409, V-B:GLU:543:CD:9880, V-A:LEU:475:CD2:4259, H-A:ARG:545:NH2:4928, V-A:ARG:545:CZ:4926, V-A:GLU:543:CB:4906, V-A:SER:385:CA:3407, H-A:TYR:484:OH:4348"]

$$$$
ZINC912939480
     RDKit          3D

 39 40  0  0  0  0  0  0  0  0999 V2000
  132.0530  125.6480   58.3450 C   0  0  0  0  0  0  0  0  0  0  0  0
  133.0610  124.5370   58.6450 C   0  0  0  0  0  0  0  0  0  0  0  0
  133.6190  123.9910   57.6930 O   0  0  0  0  0  0  0  0  0  0  0  0
  133.2050  124.0980   60.0770 C   0  0  0  0  0  0  0  0  0  0  0  0
  134.4130  124.3470   60.7500 C   0  0  0  0  0  0  0  0  0  0  0  0
  134.6010  123.9310   62.0650 C   0  0  0  0  0  0  0  0  0  0  0  0
  133.5880  123.2490   62.7280 C   0  0  0  0  0  0  0  0  0  0  0  0
  132.3880  122.9830   62.0770 C   0  0  0  0  0  0  0  0  0  0  0  0
  132.1760  123.3990   60.7490 C   0  0  0  0  0  0  0  0  0  0  0  0
  130.9910  123.1550   60.0760 O   0  0  0  0  0  0  0  0  0  0  0  0
  129.8160  122.7770   60.7850 C   0  0  0  0  0  0  0  0  0  0  0  0
  128.6850  123.7510   60.4240 C   0  0  0  0  0  0  0  0  0  0  0  0
  127.0230  122.9340   60.5840 S   0  0  0  0  0  4  0  0  0  0  0  0
  126.5040  123.1840   62.0010 O   0  0  0  0  0  0  0  0  0  0  0  0
  126.0930  124.0560   59.4360 C   0  0  0  0  0  0  0  0  0  0  0  0
  127.0570  124.7210   58.4570 C   0  0  0  0  0  0  0  0  0  0  0  0
  127.5540  125.9990   58.7460 C   0  0  0  0  0  0  0  0  0  0  0  0
  127.1830  126.6400   59.8790 F   0  0  0  0  0  0  0  0  0  0  0  0
  128.4400  126.6270   57.8710 C   0  0  0  0  0  0  0  0  0  0  0  0
  128.8420  125.9840   56.7020 C   0  0  0  0  0  0  0  0  0  0  0  0
  128.3570  124.7110   56.4070 C   0  0  0  0  0  0  0  0  0  0  0  0
  127.4680  124.0740   57.2770 C   0  0  0  0  0  0  0  0  0  0  0  0
  126.9080  122.4910   56.8590 Cl  0  0  0  0  0  0  0  0  0  0  0  0
  131.6748  126.0649   59.2901 H   0  0  0  0  0  0  0  0  0  0  0  0
  132.5449  126.4425   57.7646 H   0  0  0  0  0  0  0  0  0  0  0  0
  131.2146  125.2355   57.7646 H   0  0  0  0  0  0  0  0  0  0  0  0
  135.2229  124.8791   60.2295 H   0  0  0  0  0  0  0  0  0  0  0  0
  135.5505  124.1419   62.5788 H   0  0  0  0  0  0  0  0  0  0  0  0
  133.7351  122.9196   63.7672 H   0  0  0  0  0  0  0  0  0  0  0  0
  131.5926  122.4394   62.6079 H   0  0  0  0  0  0  0  0  0  0  0  0
  129.5269  121.7539   60.5026 H   0  0  0  0  0  0  0  0  0  0  0  0
  130.0062  122.8101   61.8679 H   0  0  0  0  0  0  0  0  0  0  0  0
  128.7265  124.6168   61.1012 H   0  0  0  0  0  0  0  0  0  0  0  0
  128.8186  124.0705   59.3799 H   0  0  0  0  0  0  0  0  0  0  0  0
  125.3518  123.4685   58.8743 H   0  0  0  0  0  0  0  0  0  0  0  0
  125.5854  124.8336   60.0256 H   0  0  0  0  0  0  0  0  0  0  0  0
  128.8222  127.6318   58.1041 H   0  0  0  0  0  0  0  0  0  0  0  0
  129.5411  126.4804   56.0129 H   0  0  0  0  0  0  0  0  0  0  0  0
  128.6759  124.2048   55.4839 H   0  0  0  0  0  0  0  0  0  0  0  0
  1  2  1  0
  2  3  2  0
  2  4  1  0
  4  5  2  0
  5  6  1  0
  6  7  2  0
  7  8  1  0
  8  9  2  0
  9 10  1  0
 10 11  1  0
 11 12  1  0
 13 12  1  1
 13 14  2  0
 13 15  1  0
 15 16  1  0
 16 17  2  0
 17 18  1  0
 17 19  1  0
 19 20  2  0
 20 21  1  0
 21 22  2  0
 22 23  1  0
  9  4  1  0
 22 16  1  0
  1 24  1  0
  1 25  1  0
  1 26  1  0
  5 27  1  0
  6 28  1  0
  7 29  1  0
  8 30  1  0
 11 31  1  0
 11 32  1  0
 12 33  1  0
 12 34  1  0
 15 35  1  0
 15 36  1  0
 19 37  1  0
 20 38  1  0
 21 39  1  0
M  END
>  <Binding energies>  (1) 
[-6.09]

>  <Ligand effiencies>  (1) 
[-0.2647826086956522]

>  <Interactions>  (1) 
["V-A:ILE:369:CG2:3237, V-A:ASP:366:CA:3210, V-B:PRO:540:CA:9855, V-A:GLY:454:CA:4049, V-B:TYR:539:CE2:9848, V-B:TYR:539:C:9839, V-A:ASP:366:CG:3213, V-B:TYR:539:CZ:9849, H-A:ASN:370:N:3244, H-B:TYR:539:OH:9850, H-B:ALA:541:N:9863, V-B:PRO:540:CB:9857, V-A:GLY:453:C:4042, V-B:PRO:540:N:9856, V-A:ILE:369:CD1:3239, V-B:TYR:539:CD2:9846, V-B:PRO:540:CD:9859, V-A:ASP:366:CB:3212, V-A:LEU:475:CD2:4259, V-B:TYR:539:CD1:9845, V-A:GLY:453:CA:4044, V-B:PRO:540:C:9853, V-B:TYR:539:CE1:9847"]

$$$$
ZINC913359722
     RDKit          3D

 47 49  0  0  0  0  0  0  0  0999 V2000
  128.3840  128.5150   68.1350 O   0  0  0  0  0  0  0  0  0  0  0  0
  128.6080  127.3020   68.1270 C   0  0  0  0  0  0  0  0  0  0  0  0
  129.1660  126.6140   66.8740 C   0  0  0  0  0  0  0  0  0  0  0  0
  130.5180  126.2260   67.1120 O   0  0  0  0  0  0  0  0  0  0  0  0
  131.1910  125.4300   66.2490 C   0  0  0  0  0  0  0  0  0  0  0  0
  132.4000  125.1930   66.2810 O   0  0  0  0  0  0  0  0  0  0  0  0
  130.2960  124.7960   65.1710 C   0  0  0  0  0  0  0  0  0  0  0  0
  129.5240  123.5280   65.6050 C   0  0  0  0  0  0  0  0  0  0  0  0
  129.7750  122.2980   64.7010 C   0  0  0  0  0  0  0  0  0  0  0  0
  129.7820  122.6200   63.2560 N   0  0  0  0  0  0  0  0  0  0  0  0
  128.6080  122.6890   62.5760 C   0  0  0  0  0  0  0  0  0  0  0  0
  127.4990  122.4830   63.0780 O   0  0  0  0  0  0  0  0  0  0  0  0
  128.8510  123.0370   61.1940 C   0  0  0  0  0  0  0  0  0  0  0  0
  127.8270  123.2020   60.3240 C   0  0  0  0  0  0  0  0  0  0  0  0
  127.8660  123.5260   58.9080 C   0  0  0  0  0  0  0  0  0  0  0  0
  128.5600  124.5560   58.2720 C   0  0  0  0  0  0  0  0  0  0  0  0
  128.3880  124.5620   56.8840 C   0  0  0  0  0  0  0  0  0  0  0  0
  127.5750  123.5300   56.4440 C   0  0  0  0  0  0  0  0  0  0  0  0
  127.0200  122.5390   57.7520 S   0  0  0  0  0  0  0  0  0  0  0  0
  130.5840  123.2150   60.9210 S   0  0  0  0  0  0  0  0  0  0  0  0
  130.9500  122.8610   62.5860 C   0  0  0  0  0  0  0  0  0  0  0  0
  132.5350  122.8610   63.1070 S   0  0  0  0  0  0  0  0  0  0  0  0
  128.4460  126.5160   69.2070 N   0  0  0  0  0  0  0  0  0  0  0  0
  127.9250  126.9570   70.5000 C   0  0  0  0  0  0  0  0  0  0  0  0
  129.0230  127.0290   71.5390 C   0  0  0  0  0  0  0  0  0  0  0  0
  130.2440  127.6870   71.6050 C   0  0  0  0  0  0  0  0  0  0  0  0
  130.8220  127.3560   72.8320 C   0  0  0  0  0  0  0  0  0  0  0  0
  129.9270  126.5130   73.4650 C   0  0  0  0  0  0  0  0  0  0  0  0
  128.8340  126.3180   72.6830 O   0  0  0  0  0  0  0  0  0  0  0  0
  128.5630  125.7231   66.6446 H   0  0  0  0  0  0  0  0  0  0  0  0
  129.1266  127.3099   66.0230 H   0  0  0  0  0  0  0  0  0  0  0  0
  129.5592  125.5498   64.8564 H   0  0  0  0  0  0  0  0  0  0  0  0
  130.9745  124.4750   64.3669 H   0  0  0  0  0  0  0  0  0  0  0  0
  129.8287  123.2716   66.6304 H   0  0  0  0  0  0  0  0  0  0  0  0
  128.4528  123.7659   65.5283 H   0  0  0  0  0  0  0  0  0  0  0  0
  130.7505  121.8642   64.9660 H   0  0  0  0  0  0  0  0  0  0  0  0
  128.9462  121.5954   64.8724 H   0  0  0  0  0  0  0  0  0  0  0  0
  126.8212  123.0722   60.7501 H   0  0  0  0  0  0  0  0  0  0  0  0
  129.1800  125.2895   58.8083 H   0  0  0  0  0  0  0  0  0  0  0  0
  128.8477  125.3045   56.2152 H   0  0  0  0  0  0  0  0  0  0  0  0
  127.3130  123.3601   55.3893 H   0  0  0  0  0  0  0  0  0  0  0  0
  128.6930  125.5400   69.1340 H   0  0  0  0  0  0  0  0  0  0  0  0
  127.4753  127.9542   70.3840 H   0  0  0  0  0  0  0  0  0  0  0  0
  127.1735  126.2285   70.8385 H   0  0  0  0  0  0  0  0  0  0  0  0
  130.6746  128.3449   70.8357 H   0  0  0  0  0  0  0  0  0  0  0  0
  131.7940  127.6972   73.2177 H   0  0  0  0  0  0  0  0  0  0  0  0
  130.0785  126.0652   74.4582 H   0  0  0  0  0  0  0  0  0  0  0  0
  1  2  2  0
  2  3  1  0
  3  4  1  0
  4  5  1  0
  5  6  2  0
  5  7  1  0
  7  8  1  0
  8  9  1  0
  9 10  1  0
 10 11  1  0
 11 12  2  0
 11 13  1  0
 13 14  2  0
 14 15  1  0
 15 16  2  0
 16 17  1  0
 17 18  2  0
 18 19  1  0
 13 20  1  0
 20 21  1  0
 21 22  2  0
  2 23  1  0
 23 24  1  0
 24 25  1  0
 25 26  2  0
 26 27  1  0
 27 28  2  0
 28 29  1  0
 21 10  1  0
 29 25  1  0
 19 15  1  0
  3 30  1  0
  3 31  1  0
  7 32  1  0
  7 33  1  0
  8 34  1  0
  8 35  1  0
  9 36  1  0
  9 37  1  0
 14 38  1  0
 16 39  1  0
 17 40  1  0
 18 41  1  0
 23 42  1  0
 24 43  1  0
 24 44  1  0
 26 45  1  0
 27 46  1  0
 28 47  1  0
M  END
>  <Binding energies>  (1) 
[-7.03]

>  <Ligand effiencies>  (1) 
[-0.23433333333333334]

>  <Interactions>  (1) 
["V-B:PRO:540:CA:9855, V-B:GLU:543:C:9874, H-B:GLU:543:O:9875, V-B:GLU:543:CB:9878, H-B:LYS:547:NZ:9923, V-B:ALA:541:CB:9864, V-B:TYR:539:CE2:9848, V-A:TYR:484:CE2:4346, V-B:GLU:543:CG:9879, V-A:GLY:544:C:4912, V-B:TYR:539:C:9839, V-A:HIS:456:CD2:4068, V-B:TYR:539:CZ:9849, H-B:ALA:541:N:9863, V-A:GLU:543:CD:4908, V-A:TYR:484:CZ:4347, V-B:PRO:540:CB:9857, V-B:HIS:456:CE1:9041, V-B:GLU:543:CA:9876, V-B:PRO:540:N:9856, V-A:HIS:456:CE1:4070, V-B:PRO:540:CD:9859, V-B:GLU:543:CD:9880, V-A:LEU:475:CD2:4259, H-A:ARG:545:NE:4924, V-B:TYR:539:CE1:9847, H-A:HIS:456:NE2:4071, H-A:TYR:484:OH:4348"]

$$$$
ZINC914436736
     RDKit          3D

 56 60  0  0  0  0  0  0  0  0999 V2000
  125.5190  123.5850   57.8780 C   0  0  0  0  0  0  0  0  0  0  0  0
  126.1550  124.2620   59.0080 N   0  0  0  0  0  0  0  0  0  0  0  0
  126.2040  125.7230   58.9490 C   0  0  0  0  0  0  0  0  0  0  0  0
  127.0670  123.5540   59.8420 C   0  0  0  0  0  0  0  0  0  0  0  0
  128.1310  122.8160   59.2920 C   0  0  0  0  0  0  0  0  0  0  0  0
  129.0210  122.1230   60.1050 C   0  0  0  0  0  0  0  0  0  0  0  0
  128.8640  122.1430   61.4890 C   0  0  0  0  0  0  0  0  0  0  0  0
  129.8390  121.3830   62.3800 C   0  0  0  0  0  0  0  0  0  0  0  0
  130.6670  122.2680   63.2170 N   0  0  0  0  0  0  0  0  0  0  0  0
  130.1420  122.8810   64.3110 C   0  0  0  0  0  0  0  0  0  0  0  0
  129.0410  122.5660   64.7750 O   0  0  0  0  0  0  0  0  0  0  0  0
  130.9430  124.0370   64.9760 C   0  0  0  0  0  0  0  0  0  0  0  0
  130.1460  125.2880   65.0990 N   0  0  0  0  0  0  0  0  0  0  0  0
  129.7210  125.9090   63.9300 C   0  0  0  0  0  0  0  0  0  0  0  0
  129.0440  127.0010   63.9200 N   0  0  0  0  0  0  0  0  0  0  0  0
  128.7490  127.5370   65.1340 C   0  0  0  0  0  0  0  0  0  0  0  0
  127.8750  129.0230   65.2760 S   0  0  0  0  0  0  0  0  0  0  0  0
  127.9810  128.9210   67.0030 C   0  0  0  0  0  0  0  0  0  0  0  0
  128.6470  127.7840   67.4570 C   0  0  0  0  0  0  0  0  0  0  0  0
  128.8110  127.5340   68.8820 C   0  0  0  0  0  0  0  0  0  0  0  0
  127.8770  126.9880   69.7580 C   0  0  0  0  0  0  0  0  0  0  0  0
  128.3310  126.9110   71.0780 C   0  0  0  0  0  0  0  0  0  0  0  0
  129.6150  127.4120   71.2290 C   0  0  0  0  0  0  0  0  0  0  0  0
  130.2650  127.9880   69.7290 S   0  0  0  0  0  0  0  0  0  0  0  0
  129.1060  126.9930   66.3750 C   0  0  0  0  0  0  0  0  0  0  0  0
  129.8830  125.7420   66.3940 C   0  0  0  0  0  0  0  0  0  0  0  0
  130.2780  125.1510   67.4030 O   0  0  0  0  0  0  0  0  0  0  0  0
  131.9400  122.6730   62.6010 C   0  0  0  0  0  0  0  0  0  0  0  0
  132.3670  122.0900   61.2670 C   0  0  0  0  0  0  0  0  0  0  0  0
  131.9320  123.5340   61.3550 C   0  0  0  0  0  0  0  0  0  0  0  0
  127.8310  122.8840   62.0580 C   0  0  0  0  0  0  0  0  0  0  0  0
  126.9420  123.5790   61.2430 C   0  0  0  0  0  0  0  0  0  0  0  0
  124.8110  122.8314   58.2533 H   0  0  0  0  0  0  0  0  0  0  0  0
  124.9793  124.3222   57.2655 H   0  0  0  0  0  0  0  0  0  0  0  0
  126.2884  123.0923   57.2655 H   0  0  0  0  0  0  0  0  0  0  0  0
  126.2177  126.1310   59.9705 H   0  0  0  0  0  0  0  0  0  0  0  0
  127.1132  126.0382   58.4161 H   0  0  0  0  0  0  0  0  0  0  0  0
  125.3179  126.0984   58.4161 H   0  0  0  0  0  0  0  0  0  0  0  0
  128.2611  122.7867   58.2001 H   0  0  0  0  0  0  0  0  0  0  0  0
  129.8504  121.5580   59.6546 H   0  0  0  0  0  0  0  0  0  0  0  0
  129.2640  120.7155   63.0386 H   0  0  0  0  0  0  0  0  0  0  0  0
  130.5193  120.8246   61.7202 H   0  0  0  0  0  0  0  0  0  0  0  0
  131.2543  123.7172   65.9814 H   0  0  0  0  0  0  0  0  0  0  0  0
  131.8089  124.2552   64.3337 H   0  0  0  0  0  0  0  0  0  0  0  0
  129.9767  125.4429   62.9670 H   0  0  0  0  0  0  0  0  0  0  0  0
  127.5619  129.6823   67.6774 H   0  0  0  0  0  0  0  0  0  0  0  0
  126.8789  126.6500   69.4423 H   0  0  0  0  0  0  0  0  0  0  0  0
  127.7352  126.4984   71.9056 H   0  0  0  0  0  0  0  0  0  0  0  0
  130.1563  127.4405   72.1862 H   0  0  0  0  0  0  0  0  0  0  0  0
  132.3981  122.7438   63.5986 H   0  0  0  0  0  0  0  0  0  0  0  0
  133.4240  121.8441   61.0874 H   0  0  0  0  0  0  0  0  0  0  0  0
  132.0624  121.2214   60.6647 H   0  0  0  0  0  0  0  0  0  0  0  0
  132.6726  124.3390   61.2386 H   0  0  0  0  0  0  0  0  0  0  0  0
  131.1795  124.1511   60.8422 H   0  0  0  0  0  0  0  0  0  0  0  0
  127.7177  122.9200   63.1516 H   0  0  0  0  0  0  0  0  0  0  0  0
  126.1274  124.1580   61.7025 H   0  0  0  0  0  0  0  0  0  0  0  0
  1  2  1  0
  2  3  1  0
  2  4  1  0
  4  5  2  0
  5  6  1  0
  6  7  2  0
  7  8  1  0
  8  9  1  0
  9 10  1  0
 10 11  2  0
 10 12  1  0
 12 13  1  0
 13 14  1  0
 14 15  2  0
 15 16  1  0
 16 17  1  0
 17 18  1  0
 18 19  2  0
 19 20  1  0
 20 21  2  0
 21 22  1  0
 22 23  2  0
 23 24  1  0
 19 25  1  0
 25 26  1  0
 26 27  2  0
  9 28  1  0
 28 29  1  0
 29 30  1  0
  7 31  1  0
 31 32  2  0
 32  4  1  0
 26 13  1  0
 30 28  1  0
 25 16  2  0
 24 20  1  0
  1 33  1  0
  1 34  1  0
  1 35  1  0
  3 36  1  0
  3 37  1  0
  3 38  1  0
  5 39  1  0
  6 40  1  0
  8 41  1  0
  8 42  1  0
 12 43  1  0
 12 44  1  0
 14 45  1  0
 18 46  1  0
 21 47  1  0
 22 48  1  0
 23 49  1  0
 28 50  1  0
 29 51  1  0
 29 52  1  0
 30 53  1  0
 30 54  1  0
 31 55  1  0
 32 56  1  0
M  END
>  <Binding energies>  (1) 
[-7.56]

>  <Ligand effiencies>  (1) 
[-0.23625]

>  <Interactions>  (1) 
["V-B:PRO:540:CA:9855, V-B:GLU:543:C:9874, V-A:GLU:543:C:4902, V-B:GLU:543:CB:9878, V-B:ALA:541:CB:9864, V-B:TYR:539:CE2:9848, V-A:TYR:484:CE2:4346, V-B:GLU:543:CG:9879, V-B:TYR:539:C:9839, V-A:TYR:484:CZ:4347, V-B:PRO:540:CB:9857, V-A:GLU:543:CD:4908, V-B:HIS:456:CE1:9041, V-B:PRO:540:N:9856, V-A:HIS:456:CE1:4070, V-B:TYR:539:CD2:9846, V-A:GLU:543:CG:4907, V-B:GLU:543:CD:9880, V-A:LEU:475:CD2:4259, V-A:GLU:543:CB:4906, H-A:TYR:484:OH:4348"]

$$$$
ZINC914491790
     RDKit          3D

 58 62  0  0  0  0  0  0  0  0999 V2000
  129.5660  127.7360   74.6760 C   0  0  0  0  0  0  0  0  0  0  0  0
  130.3380  127.5040   73.4550 N   0  0  0  0  0  0  0  0  0  0  0  0
  131.6560  126.8910   73.6240 C   0  0  0  0  0  0  0  0  0  0  0  0
  129.6770  127.4340   72.1950 C   0  0  0  0  0  0  0  0  0  0  0  0
  130.3450  127.7650   71.0040 C   0  0  0  0  0  0  0  0  0  0  0  0
  129.7010  127.6990   69.7720 C   0  0  0  0  0  0  0  0  0  0  0  0
  128.3710  127.2900   69.7030 C   0  0  0  0  0  0  0  0  0  0  0  0
  127.6560  127.2380   68.3610 C   0  0  0  0  0  0  0  0  0  0  0  0
  128.4260  127.8450   67.2620 N   0  0  0  0  0  0  0  0  0  0  0  0
  128.3570  129.3160   67.2040 C   0  0  0  0  0  0  0  0  0  0  0  0
  127.9360  129.8250   65.8380 C   0  0  0  0  0  0  0  0  0  0  0  0
  127.0820  129.3680   64.8400 C   0  0  0  0  0  0  0  0  0  0  0  0
  127.1160  130.3060   63.8090 C   0  0  0  0  0  0  0  0  0  0  0  0
  127.9880  131.3000   64.2200 C   0  0  0  0  0  0  0  0  0  0  0  0
  128.4830  131.0080   65.4500 O   0  0  0  0  0  0  0  0  0  0  0  0
  129.1030  127.0840   66.3610 C   0  0  0  0  0  0  0  0  0  0  0  0
  129.1300  127.3600   65.1580 O   0  0  0  0  0  0  0  0  0  0  0  0
  129.8650  125.8330   66.8810 C   0  0  0  0  0  0  0  0  0  0  0  0
  130.4650  125.0240   65.7900 N   0  0  0  0  0  0  0  0  0  0  0  0
  129.6150  124.2360   65.0100 C   0  0  0  0  0  0  0  0  0  0  0  0
  130.0370  123.4970   64.0400 N   0  0  0  0  0  0  0  0  0  0  0  0
  131.3780  123.5130   63.7940 C   0  0  0  0  0  0  0  0  0  0  0  0
  132.2810  124.2740   64.5320 C   0  0  0  0  0  0  0  0  0  0  0  0
  133.5640  124.1220   64.0960 O   0  0  0  0  0  0  0  0  0  0  0  0
  133.4940  123.2430   63.0500 C   0  0  0  0  0  0  0  0  0  0  0  0
  134.5780  122.7900   62.2890 C   0  0  0  0  0  0  0  0  0  0  0  0
  134.2980  121.8900   61.2610 C   0  0  0  0  0  0  0  0  0  0  0  0
  132.9930  121.4640   61.0040 C   0  0  0  0  0  0  0  0  0  0  0  0
  131.9130  121.9190   61.7660 C   0  0  0  0  0  0  0  0  0  0  0  0
  132.1590  122.8260   62.8110 C   0  0  0  0  0  0  0  0  0  0  0  0
  131.8510  125.1180   65.6390 C   0  0  0  0  0  0  0  0  0  0  0  0
  132.5850  125.8140   66.3440 O   0  0  0  0  0  0  0  0  0  0  0  0
  127.6820  126.9740   70.8720 C   0  0  0  0  0  0  0  0  0  0  0  0
  128.3280  127.0430   72.1030 C   0  0  0  0  0  0  0  0  0  0  0  0
  130.2014  127.5451   75.5534 H   0  0  0  0  0  0  0  0  0  0  0  0
  129.2166  128.7788   74.6963 H   0  0  0  0  0  0  0  0  0  0  0  0
  128.6996  127.0585   74.6963 H   0  0  0  0  0  0  0  0  0  0  0  0
  131.8776  126.7879   74.6965 H   0  0  0  0  0  0  0  0  0  0  0  0
  131.6618  125.8978   73.1513 H   0  0  0  0  0  0  0  0  0  0  0  0
  132.4193  127.5265   73.1513 H   0  0  0  0  0  0  0  0  0  0  0  0
  131.3974  128.0824   71.0462 H   0  0  0  0  0  0  0  0  0  0  0  0
  130.2418  127.9696   68.8532 H   0  0  0  0  0  0  0  0  0  0  0  0
  127.4622  126.1847   68.1102 H   0  0  0  0  0  0  0  0  0  0  0  0
  126.7279  127.8191   68.4658 H   0  0  0  0  0  0  0  0  0  0  0  0
  127.6279  129.6646   67.9503 H   0  0  0  0  0  0  0  0  0  0  0  0
  129.3647  129.7060   67.4098 H   0  0  0  0  0  0  0  0  0  0  0  0
  126.4907  128.4406   64.8602 H   0  0  0  0  0  0  0  0  0  0  0  0
  126.5615  130.2647   62.8599 H   0  0  0  0  0  0  0  0  0  0  0  0
  128.2427  132.1960   63.6349 H   0  0  0  0  0  0  0  0  0  0  0  0
  130.6694  126.1668   67.5529 H   0  0  0  0  0  0  0  0  0  0  0  0
  129.1345  125.1951   67.4001 H   0  0  0  0  0  0  0  0  0  0  0  0
  128.5378  124.2460   65.2327 H   0  0  0  0  0  0  0  0  0  0  0  0
  135.6046  123.1286   62.4926 H   0  0  0  0  0  0  0  0  0  0  0  0
  135.1217  121.5080   60.6401 H   0  0  0  0  0  0  0  0  0  0  0  0
  132.8109  120.7544   60.1834 H   0  0  0  0  0  0  0  0  0  0  0  0
  130.8907  121.5739   61.5519 H   0  0  0  0  0  0  0  0  0  0  0  0
  126.6261  126.6696   70.8221 H   0  0  0  0  0  0  0  0  0  0  0  0
  127.7751  126.7877   73.0191 H   0  0  0  0  0  0  0  0  0  0  0  0
  1  2  1  0
  2  3  1  0
  2  4  1  0
  4  5  2  0
  5  6  1  0
  6  7  2  0
  7  8  1  0
  8  9  1  0
  9 10  1  0
 10 11  1  0
 11 12  2  0
 12 13  1  0
 13 14  2  0
 14 15  1  0
  9 16  1  0
 16 17  2  0
 16 18  1  0
 18 19  1  0
 19 20  1  0
 20 21  2  0
 21 22  1  0
 22 23  2  0
 23 24  1  0
 24 25  1  0
 25 26  2  0
 26 27  1  0
 27 28  2  0
 28 29  1  0
 29 30  2  0
 23 31  1  0
 31 32  2  0
  7 33  1  0
 33 34  2  0
 34  4  1  0
 15 11  1  0
 31 19  1  0
 30 22  1  0
 30 25  1  0
  1 35  1  0
  1 36  1  0
  1 37  1  0
  3 38  1  0
  3 39  1  0
  3 40  1  0
  5 41  1  0
  6 42  1  0
  8 43  1  0
  8 44  1  0
 10 45  1  0
 10 46  1  0
 12 47  1  0
 13 48  1  0
 14 49  1  0
 18 50  1  0
 18 51  1  0
 20 52  1  0
 26 53  1  0
 27 54  1  0
 28 55  1  0
 29 56  1  0
 33 57  1  0
 34 58  1  0
M  END
>  <Binding energies>  (1) 
[-7.45]

>  <Ligand effiencies>  (1) 
[-0.21911764705882353]

>  <Interactions>  (1) 
["V-A:ILE:369:CG2:3237, V-A:GLY:454:CA:4049, V-B:GLU:543:C:9874, V-A:ILE:369:CB:3236, V-B:GLU:543:CB:9878, V-B:GLU:543:CG:9879, V-A:GLY:544:C:4912, V-A:HIS:456:CD2:4068, V-A:GLU:543:CD:4908, V-A:TYR:484:CZ:4347, H-B:TYR:484:OH:9319, V-B:HIS:456:CE1:9041, H-A:GLY:454:N:4050, V-A:SER:385:C:3405, V-A:GLY:453:C:4042, V-A:HIS:456:CE1:4070, V-B:TYR:484:CZ:9318, V-A:ILE:369:CD1:3239, V-B:GLY:544:C:9884, V-A:GLU:543:CG:4907, V-B:GLU:543:CD:9880, V-A:ILE:369:CG1:3238, V-A:LEU:475:CD2:4259, V-A:GLU:543:CB:4906, V-A:HIS:456:CG:4066, H-A:ARG:545:NE:4924, H-A:TYR:484:OH:4348"]

$$$$
ZINC914533751
     RDKit          3D

 47 48  0  0  0  0  0  0  0  0999 V2000
  133.0710  125.0960   65.2660 C   0  0  0  0  0  0  0  0  0  0  0  0
  133.3410  124.5330   63.8650 C   0  0  0  0  0  0  0  0  0  0  0  0
  132.2760  123.5150   63.4100 C   0  0  0  0  0  0  0  0  0  0  0  0
  130.8750  123.7340   64.0220 C   0  0  0  0  0  0  0  0  0  0  0  0
  130.0490  124.7140   63.2960 N   0  0  0  0  0  0  0  0  0  0  0  0
  129.0950  124.1190   62.3440 C   0  0  0  0  0  0  0  0  0  0  0  0
  128.2880  122.9620   62.9590 C   0  0  0  0  0  0  0  0  0  0  0  0
  126.9460  123.0100   62.5240 O   0  0  0  0  0  0  0  0  0  0  0  0
  130.1580  126.0520   63.5190 C   0  0  0  0  0  0  0  0  0  0  0  0
  131.2510  126.6260   63.5150 O   0  0  0  0  0  0  0  0  0  0  0  0
  128.8590  126.8690   63.7670 C   0  0  0  0  0  0  0  0  0  0  0  0
  128.7500  127.3450   65.1730 N   0  0  0  0  0  0  0  0  0  0  0  0
  129.1180  126.5310   66.1980 C   0  0  0  0  0  0  0  0  0  0  0  0
  129.5510  125.3830   66.0540 O   0  0  0  0  0  0  0  0  0  0  0  0
  128.9350  127.2040   67.4650 C   0  0  0  0  0  0  0  0  0  0  0  0
  129.2340  126.5910   68.6360 C   0  0  0  0  0  0  0  0  0  0  0  0
  129.1350  127.1550   69.9970 C   0  0  0  0  0  0  0  0  0  0  0  0
  130.1950  127.8550   70.5880 C   0  0  0  0  0  0  0  0  0  0  0  0
  130.0650  128.3700   71.8740 C   0  0  0  0  0  0  0  0  0  0  0  0
  128.8750  128.1860   72.5750 C   0  0  0  0  0  0  0  0  0  0  0  0
  128.6960  128.8900   74.3330 Br  0  0  0  0  0  0  0  0  0  0  0  0
  127.8180  127.4850   72.0000 C   0  0  0  0  0  0  0  0  0  0  0  0
  127.9500  126.9690   70.7130 C   0  0  0  0  0  0  0  0  0  0  0  0
  128.2720  128.8170   67.1920 S   0  0  0  0  0  0  0  0  0  0  0  0
  128.2660  128.5930   65.4660 C   0  0  0  0  0  0  0  0  0  0  0  0
  127.7240  129.8230   64.4760 S   0  0  0  0  0  0  0  0  0  0  0  0
  133.4161  124.3765   66.0231 H   0  0  0  0  0  0  0  0  0  0  0  0
  133.6115  126.0460   65.3898 H   0  0  0  0  0  0  0  0  0  0  0  0
  131.9918  125.2693   65.3898 H   0  0  0  0  0  0  0  0  0  0  0  0
  133.3569  125.3677   63.1487 H   0  0  0  0  0  0  0  0  0  0  0  0
  134.3058  124.0059   63.9022 H   0  0  0  0  0  0  0  0  0  0  0  0
  132.1861  123.5784   62.3155 H   0  0  0  0  0  0  0  0  0  0  0  0
  132.6179  122.5292   63.7582 H   0  0  0  0  0  0  0  0  0  0  0  0
  130.3448  122.7702   64.0254 H   0  0  0  0  0  0  0  0  0  0  0  0
  131.0299  124.1368   65.0338 H   0  0  0  0  0  0  0  0  0  0  0  0
  128.3946  124.8999   62.0128 H   0  0  0  0  0  0  0  0  0  0  0  0
  129.6748  123.7104   61.5032 H   0  0  0  0  0  0  0  0  0  0  0  0
  128.7345  122.0051   62.6508 H   0  0  0  0  0  0  0  0  0  0  0  0
  128.3106  123.0552   64.0548 H   0  0  0  0  0  0  0  0  0  0  0  0
  126.5770  123.8630   62.7650 H   0  0  0  0  0  0  0  0  0  0  0  0
  128.8567  127.7415   63.0971 H   0  0  0  0  0  0  0  0  0  0  0  0
  128.0028  126.2075   63.5687 H   0  0  0  0  0  0  0  0  0  0  0  0
  129.5918  125.5533   68.5643 H   0  0  0  0  0  0  0  0  0  0  0  0
  131.1339  127.9980   70.0330 H   0  0  0  0  0  0  0  0  0  0  0  0
  130.8983  128.9202   72.3354 H   0  0  0  0  0  0  0  0  0  0  0  0
  126.8825  127.3394   72.5600 H   0  0  0  0  0  0  0  0  0  0  0  0
  127.1173  126.4124   70.2583 H   0  0  0  0  0  0  0  0  0  0  0  0
  1  2  1  0
  2  3  1  0
  3  4  1  0
  4  5  1  0
  5  6  1  0
  6  7  1  0
  7  8  1  0
  5  9  1  0
  9 10  2  0
  9 11  1  0
 11 12  1  0
 12 13  1  0
 13 14  2  0
 13 15  1  0
 15 16  2  0
 16 17  1  0
 17 18  2  0
 18 19  1  0
 19 20  2  0
 20 21  1  0
 20 22  1  0
 22 23  2  0
 15 24  1  0
 24 25  1  0
 25 26  2  0
 25 12  1  0
 23 17  1  0
  1 27  1  0
  1 28  1  0
  1 29  1  0
  2 30  1  0
  2 31  1  0
  3 32  1  0
  3 33  1  0
  4 34  1  0
  4 35  1  0
  6 36  1  0
  6 37  1  0
  7 38  1  0
  7 39  1  0
  8 40  1  0
 11 41  1  0
 11 42  1  0
 16 43  1  0
 18 44  1  0
 19 45  1  0
 22 46  1  0
 23 47  1  0
M  END
>  <Binding energies>  (1) 
[-7.02]

>  <Ligand effiencies>  (1) 
[-0.26]

>  <Interactions>  (1) 
["V-B:GLU:543:C:9874, V-B:HIS:456:CD2:9039, V-A:GLU:543:C:4902, V-B:GLU:543:CB:9878, V-B:ALA:541:CB:9864, V-A:GLY:544:C:4912, V-B:GLU:543:CG:9879, H-B:GLU:543:OE1:9881, H-B:ALA:541:N:9863, V-A:GLU:543:CD:4908, V-B:HIS:456:CE1:9041, V-A:HIS:456:CE1:4070, V-A:GLU:543:CG:4907, V-B:GLU:543:CD:9880, V-B:HIS:456:CG:9037, V-A:ARG:545:CD:4923, V-A:LEU:475:CD2:4259, H-A:ARG:545:NH2:4928, V-A:ARG:545:CZ:4926"]

$$$$
ZINC914699056
     RDKit          3D

 50 53  0  0  0  0  0  0  0  0999 V2000
  130.6720  118.1230   60.5110 C   0  0  0  0  0  0  0  0  0  0  0  0
  130.8530  119.5810   60.8920 C   0  0  0  0  0  0  0  0  0  0  0  0
  129.8390  120.2630   61.5630 C   0  0  0  0  0  0  0  0  0  0  0  0
  130.0170  121.5980   61.9160 C   0  0  0  0  0  0  0  0  0  0  0  0
  131.2040  122.2660   61.6000 C   0  0  0  0  0  0  0  0  0  0  0  0
  131.2950  123.6140   61.9970 N   0  0  0  0  0  0  0  0  0  0  0  0
  131.2140  124.1960   63.2420 C   0  0  0  0  0  0  0  0  0  0  0  0
  132.1920  124.4800   64.0660 N   0  0  0  0  0  0  0  0  0  0  0  0
  131.7660  125.0570   65.1740 C   0  0  0  0  0  0  0  0  0  0  0  0
  132.9660  125.4710   66.3390 Cl  0  0  0  0  0  0  0  0  0  0  0  0
  130.3820  125.2660   65.2710 C   0  0  0  0  0  0  0  0  0  0  0  0
  129.5620  125.8630   66.3210 C   0  0  0  0  0  0  0  0  0  0  0  0
  128.8230  126.8680   66.1010 N   0  0  0  0  0  0  0  0  0  0  0  0
  128.0840  127.3460   67.1860 N   0  0  0  0  0  0  0  0  0  0  0  0
  128.5290  127.3700   68.5120 C   0  0  0  0  0  0  0  0  0  0  0  0
  129.7990  127.8340   68.8850 C   0  0  0  0  0  0  0  0  0  0  0  0
  130.1510  127.8200   70.2340 C   0  0  0  0  0  0  0  0  0  0  0  0
  129.2380  127.3450   71.1820 C   0  0  0  0  0  0  0  0  0  0  0  0
  129.6400  127.2960   72.9310 S   0  0  0  0  0  0  0  0  0  0  0  0
  129.5240  125.8880   73.3320 O   0  0  0  0  0  0  0  0  0  0  0  0
  130.9750  127.9000   73.0040 O   0  0  0  0  0  0  0  0  0  0  0  0
  128.5150  128.2400   73.4970 N   0  0  0  0  0  0  0  0  0  0  0  0
  128.6920  129.5720   73.7940 C   0  0  0  0  0  0  0  0  0  0  0  0
  127.8030  130.1500   74.7100 C   0  0  0  0  0  0  0  0  0  0  0  0
  127.9330  131.4960   75.0610 C   0  0  0  0  0  0  0  0  0  0  0  0
  128.9520  132.2560   74.4920 C   0  0  0  0  0  0  0  0  0  0  0  0
  129.8100  131.6350   73.5880 C   0  0  0  0  0  0  0  0  0  0  0  0
  129.6890  130.3280   73.2460 N   0  0  0  0  0  0  0  0  0  0  0  0
  127.9920  126.8990   70.7310 C   0  0  0  0  0  0  0  0  0  0  0  0
  127.6330  126.9080   69.4220 N   0  0  0  0  0  0  0  0  0  0  0  0
  129.6440  124.6560   63.8170 S   0  0  0  0  0  0  0  0  0  0  0  0
  132.2220  121.5700   60.9330 C   0  0  0  0  0  0  0  0  0  0  0  0
  132.0450  120.2350   60.5810 C   0  0  0  0  0  0  0  0  0  0  0  0
  130.5962  117.5124   61.4228 H   0  0  0  0  0  0  0  0  0  0  0  0
  129.7530  118.0106   59.9170 H   0  0  0  0  0  0  0  0  0  0  0  0
  131.5356  117.7893   59.9170 H   0  0  0  0  0  0  0  0  0  0  0  0
  128.9001  119.7474   61.8131 H   0  0  0  0  0  0  0  0  0  0  0  0
  129.2163  122.1322   62.4485 H   0  0  0  0  0  0  0  0  0  0  0  0
  131.5010  124.2140   61.2110 H   0  0  0  0  0  0  0  0  0  0  0  0
  129.5866  125.4281   67.3311 H   0  0  0  0  0  0  0  0  0  0  0  0
  127.1660  127.6990   66.9540 H   0  0  0  0  0  0  0  0  0  0  0  0
  130.5051  128.2026   68.1263 H   0  0  0  0  0  0  0  0  0  0  0  0
  131.1407  128.1803   70.5512 H   0  0  0  0  0  0  0  0  0  0  0  0
  127.0007  129.5424   75.1539 H   0  0  0  0  0  0  0  0  0  0  0  0
  127.2367  131.9515   75.7804 H   0  0  0  0  0  0  0  0  0  0  0  0
  129.0757  133.3182   74.7498 H   0  0  0  0  0  0  0  0  0  0  0  0
  130.6176  132.2276   73.1334 H   0  0  0  0  0  0  0  0  0  0  0  0
  127.2696  126.5237   71.4708 H   0  0  0  0  0  0  0  0  0  0  0  0
  133.1645  122.0810   60.6868 H   0  0  0  0  0  0  0  0  0  0  0  0
  132.8468  119.6947   60.0565 H   0  0  0  0  0  0  0  0  0  0  0  0
  1  2  1  0
  2  3  2  0
  3  4  1  0
  4  5  2  0
  5  6  1  0
  6  7  1  0
  7  8  2  0
  8  9  1  0
  9 10  1  0
  9 11  2  0
 11 12  1  0
 12 13  2  0
 13 14  1  0
 14 15  1  0
 15 16  2  0
 16 17  1  0
 17 18  2  0
 18 19  1  0
 19 20  2  0
 19 21  2  0
 19 22  1  0
 22 23  1  0
 23 24  2  0
 24 25  1  0
 25 26  2  0
 26 27  1  0
 27 28  2  0
 18 29  1  0
 29 30  2  0
 11 31  1  0
  5 32  1  0
 32 33  2  0
 33  2  1  0
 31  7  1  0
 30 15  1  0
 28 23  1  0
  1 34  1  0
  1 35  1  0
  1 36  1  0
  3 37  1  0
  4 38  1  0
  6 39  1  0
 12 40  1  0
 14 41  1  0
 16 42  1  0
 17 43  1  0
 24 44  1  0
 25 45  1  0
 26 46  1  0
 27 47  1  0
 29 48  1  0
 32 49  1  0
 33 50  1  0
M  CHG  1  22  -1
M  END
>  <Binding energies>  (1) 
[-9.76]

>  <Ligand effiencies>  (1) 
[-0.27885714285714286]

>  <Interactions>  (1) 
["V-B:GLU:543:C:9874, V-B:HIS:456:CD2:9039, V-A:GLU:543:C:4902, V-B:GLU:543:CB:9878, H-B:LYS:547:NZ:9923, V-B:ALA:541:CB:9864, V-B:TYR:539:CE2:9848, V-A:GLY:544:CA:4914, V-B:GLU:543:CG:9879, V-B:TYR:539:CB:9843, V-A:TYR:484:CZ:4347, V-B:HIS:456:CE1:9041, V-A:ARG:545:CG:4922, V-A:HIS:456:CE1:4070, V-B:TYR:539:CD2:9846, V-B:GLU:543:CD:9880, V-A:ARG:545:CD:4923, H-A:LYS:547:NZ:4951, V-A:LEU:475:CD2:4259, V-A:ARG:545:CZ:4926, V-A:GLU:543:CB:4906, H-B:GLU:543:OE2:9882, V-A:LYS:547:CE:4950, V-A:HIS:383:NE2:3394, H-A:TYR:484:OH:4348"]

$$$$
ZINC914699056-again1
     RDKit          3D

 51 54  0  0  0  0  0  0  0  0999 V2000
  130.9830  118.3510   60.1750 C   0  0  0  0  0  0  0  0  0  0  0  0
  131.2530  119.7510   60.6970 C   0  0  0  0  0  0  0  0  0  0  0  0
  130.2300  120.4780   61.3050 C   0  0  0  0  0  0  0  0  0  0  0  0
  130.4760  121.7680   61.7680 C   0  0  0  0  0  0  0  0  0  0  0  0
  131.7410  122.3450   61.6290 C   0  0  0  0  0  0  0  0  0  0  0  0
  131.8940  123.6540   62.1250 N   0  0  0  0  0  0  0  0  0  0  0  0
  131.6890  124.1800   63.3810 C   0  0  0  0  0  0  0  0  0  0  0  0
  132.5870  124.5150   64.2740 N   0  0  0  0  0  0  0  0  0  0  0  0
  132.0450  124.9880   65.3790 C   0  0  0  0  0  0  0  0  0  0  0  0
  133.1310  125.4690   66.6270 Cl  0  0  0  0  0  0  0  0  0  0  0  0
  130.6430  125.0420   65.4100 C   0  0  0  0  0  0  0  0  0  0  0  0
  129.7100  125.4990   66.4350 C   0  0  0  0  0  0  0  0  0  0  0  0
  129.1600  126.6380   66.3790 N   0  0  0  0  0  0  0  0  0  0  0  0
  128.2780  126.9540   67.4180 N   0  0  0  0  0  0  0  0  0  0  0  0
  128.6600  127.2440   68.7320 C   0  0  0  0  0  0  0  0  0  0  0  0
  129.8980  127.8110   69.0640 C   0  0  0  0  0  0  0  0  0  0  0  0
  130.1840  128.0650   70.4050 C   0  0  0  0  0  0  0  0  0  0  0  0
  129.2390  127.7470   71.3860 C   0  0  0  0  0  0  0  0  0  0  0  0
  129.5610  128.0780   73.1170 S   0  0  0  0  0  0  0  0  0  0  0  0
  128.3020  127.7170   73.7790 O   0  0  0  0  0  0  0  0  0  0  0  0
  130.7130  127.2210   73.4240 O   0  0  0  0  0  0  0  0  0  0  0  0
  129.8810  129.7980   72.8840 N   0  0  0  0  0  0  0  0  0  0  0  0
  129.1610  130.6560   73.4880 C   0  0  0  0  0  0  0  0  0  0  0  0
  129.3080  132.1060   73.3960 C   0  0  0  0  0  0  0  0  0  0  0  0
  128.5190  132.9900   74.0550 C   0  0  0  0  0  0  0  0  0  0  0  0
  127.4460  132.5110   74.9170 C   0  0  0  0  0  0  0  0  0  0  0  0
  127.2740  131.1780   75.0300 C   0  0  0  0  0  0  0  0  0  0  0  0
  128.0980  130.2970   74.3430 N   0  0  0  0  0  0  0  0  0  0  0  0
  128.0250  127.1890   70.9760 C   0  0  0  0  0  0  0  0  0  0  0  0
  127.7310  126.9360   69.6740 N   0  0  0  0  0  0  0  0  0  0  0  0
  130.0510  124.4340   63.8880 S   0  0  0  0  0  0  0  0  0  0  0  0
  132.7630  121.6090   61.0120 C   0  0  0  0  0  0  0  0  0  0  0  0
  132.5170  120.3190   60.5460 C   0  0  0  0  0  0  0  0  0  0  0  0
  130.8503  117.6628   61.0228 H   0  0  0  0  0  0  0  0  0  0  0  0
  130.0697  118.3580   59.5620 H   0  0  0  0  0  0  0  0  0  0  0  0
  131.8335  118.0179   59.5620 H   0  0  0  0  0  0  0  0  0  0  0  0
  129.2304  120.0331   61.4186 H   0  0  0  0  0  0  0  0  0  0  0  0
  129.6668  122.3382   62.2477 H   0  0  0  0  0  0  0  0  0  0  0  0
  132.1920  124.2870   61.3950 H   0  0  0  0  0  0  0  0  0  0  0  0
  129.4780  124.8347   67.2805 H   0  0  0  0  0  0  0  0  0  0  0  0
  127.3040  126.9780   67.1550 H   0  0  0  0  0  0  0  0  0  0  0  0
  130.6314  128.0515   68.2802 H   0  0  0  0  0  0  0  0  0  0  0  0
  131.1474  128.5130   70.6898 H   0  0  0  0  0  0  0  0  0  0  0  0
  130.1068  132.5049   72.7535 H   0  0  0  0  0  0  0  0  0  0  0  0
  128.6891  134.0705   73.9388 H   0  0  0  0  0  0  0  0  0  0  0  0
  126.7966  133.2146   75.4586 H   0  0  0  0  0  0  0  0  0  0  0  0
  126.4727  130.7850   75.6730 H   0  0  0  0  0  0  0  0  0  0  0  0
  127.9240  129.3080   74.4620 H   0  0  0  0  0  0  0  0  0  0  0  0
  127.2742  126.9438   71.7416 H   0  0  0  0  0  0  0  0  0  0  0  0
  133.7631  122.0520   60.8954 H   0  0  0  0  0  0  0  0  0  0  0  0
  133.3211  119.7483   60.0585 H   0  0  0  0  0  0  0  0  0  0  0  0
  1  2  1  0
  2  3  2  0
  3  4  1  0
  4  5  2  0
  5  6  1  0
  6  7  1  0
  7  8  2  0
  8  9  1  0
  9 10  1  0
  9 11  2  0
 11 12  1  0
 12 13  2  0
 13 14  1  0
 14 15  1  0
 15 16  2  0
 16 17  1  0
 17 18  2  0
 18 19  1  0
 19 20  2  0
 19 21  2  0
 19 22  1  0
 22 23  2  0
 23 24  1  0
 24 25  2  0
 25 26  1  0
 26 27  2  0
 27 28  1  0
 18 29  1  0
 29 30  2  0
 11 31  1  0
  5 32  1  0
 32 33  2  0
 33  2  1  0
 31  7  1  0
 30 15  1  0
 28 23  1  0
  1 34  1  0
  1 35  1  0
  1 36  1  0
  3 37  1  0
  4 38  1  0
  6 39  1  0
 12 40  1  0
 14 41  1  0
 16 42  1  0
 17 43  1  0
 24 44  1  0
 25 45  1  0
 26 46  1  0
 27 47  1  0
 28 48  1  0
 29 49  1  0
 32 50  1  0
 33 51  1  0
M  END
>  <Binding energies>  (1) 
[-9.09]

>  <Ligand effiencies>  (1) 
[-0.2525]

>  <Interactions>  (1) 
["V-A:ILE:369:CG2:3237, V-B:HIS:456:CD2:9039, V-A:GLU:543:C:4902, V-B:GLU:543:CB:9878, H-B:LYS:547:NZ:9923, V-B:HIS:456:CB:9036, V-B:ALA:541:CB:9864, V-B:TYR:539:CE2:9848, V-B:GLU:543:CG:9879, V-B:TYR:539:CB:9843, V-A:TYR:484:CZ:4347, V-B:TYR:484:CB:9312, V-A:ARG:545:CG:4922, V-B:HIS:456:CE1:9041, V-A:HIS:456:CE1:4070, V-B:TYR:539:CD2:9846, V-A:SER:385:CB:3409, V-B:GLU:543:CD:9880, V-A:ARG:545:CD:4923, H-A:LYS:547:NZ:4951, V-A:LEU:475:CD2:4259, V-A:ARG:545:CZ:4926, V-A:GLU:543:CB:4906, H-B:GLU:543:OE2:9882, V-A:LYS:547:CE:4950, V-B:ASP:473:CG:9211, V-A:HIS:383:NE2:3394, H-A:TYR:484:OH:4348"]

$$$$
ZINC917572111
     RDKit          3D

 27 28  0  0  0  0  0  0  0  0999 V2000
  132.6950  125.4630   66.3420 N   0  0  0  0  0  0  0  0  0  0  0  0
  132.7120  125.0430   65.0110 C   0  0  0  0  0  0  0  0  0  0  0  0
  133.9190  125.0660   64.3870 N   0  0  0  0  0  0  0  0  0  0  0  0
  133.9790  124.6260   63.1030 C   0  0  0  0  0  0  0  0  0  0  0  0
  132.8400  124.1590   62.4450 C   0  0  0  0  0  0  0  0  0  0  0  0
  131.6300  124.1360   63.0580 N   0  0  0  0  0  0  0  0  0  0  0  0
  131.5600  124.5910   64.3380 C   0  0  0  0  0  0  0  0  0  0  0  0
  129.9560  124.5390   65.0950 S   0  0  0  0  0  0  0  0  0  0  0  0
  129.8690  125.9160   66.2860 C   0  0  0  0  0  0  0  0  0  0  0  0
  128.8420  126.9730   65.8210 C   0  0  0  0  0  0  0  0  0  0  0  0
  128.7250  128.1630   66.7900 C   0  0  0  0  0  0  0  0  0  0  0  0
  128.1600  127.6580   68.4430 S   0  0  0  0  0  0  0  0  0  0  0  0
  129.4830  126.4540   68.7680 C   0  0  0  0  0  0  0  0  0  0  0  0
  129.5550  125.3590   67.6900 C   0  0  0  0  0  0  0  0  0  0  0  0
  132.9170  124.8020   67.0730 H   0  0  0  0  0  0  0  0  0  0  0  0
  132.5070  126.4330   66.5530 H   0  0  0  0  0  0  0  0  0  0  0  0
  134.9425  124.6380   62.5724 H   0  0  0  0  0  0  0  0  0  0  0  0
  132.9253  123.8022   61.4080 H   0  0  0  0  0  0  0  0  0  0  0  0
  130.8409  126.4285   66.3384 H   0  0  0  0  0  0  0  0  0  0  0  0
  129.1505  127.3521   64.8356 H   0  0  0  0  0  0  0  0  0  0  0  0
  127.8585  126.4820   65.7818 H   0  0  0  0  0  0  0  0  0  0  0  0
  129.7117  128.6400   66.8844 H   0  0  0  0  0  0  0  0  0  0  0  0
  127.9787  128.8585   66.3785 H   0  0  0  0  0  0  0  0  0  0  0  0
  130.4456  126.9856   68.7968 H   0  0  0  0  0  0  0  0  0  0  0  0
  129.2643  125.9656   69.7291 H   0  0  0  0  0  0  0  0  0  0  0  0
  130.3436  124.6444   67.9682 H   0  0  0  0  0  0  0  0  0  0  0  0
  128.5660  124.8799   67.6406 H   0  0  0  0  0  0  0  0  0  0  0  0
  1  2  1  0
  2  3  2  0
  3  4  1  0
  4  5  2  0
  5  6  1  0
  6  7  2  0
  7  8  1  0
  8  9  1  0
  9 10  1  0
 10 11  1  0
 11 12  1  0
 12 13  1  0
 13 14  1  0
  7  2  1  0
 14  9  1  0
  1 15  1  0
  1 16  1  0
  4 17  1  0
  5 18  1  0
  9 19  1  0
 10 20  1  0
 10 21  1  0
 11 22  1  0
 11 23  1  0
 13 24  1  0
 13 25  1  0
 14 26  1  0
 14 27  1  0
M  END
>  <Binding energies>  (1) 
[-5.08]

>  <Ligand effiencies>  (1) 
[-0.3175]

>  <Interactions>  (1) 
["V-B:GLU:543:C:9874, H-A:GLU:543:OE2:4910, V-B:GLU:543:CB:9878, H-A:ARG:545:NH1:4927, V-B:GLU:543:CG:9879, V-A:TYR:484:CZ:4347, V-A:GLU:543:CD:4908, V-A:ARG:545:CG:4922, H-A:GLY:454:N:4050, V-B:GLU:543:CA:9876, V-A:HIS:456:CE1:4070, V-A:GLU:543:CG:4907, V-B:GLU:543:CD:9880, V-A:ARG:545:CD:4923, H-A:ARG:545:NH2:4928, V-A:ARG:545:CZ:4926, V-A:GLU:543:CB:4906, V-A:GLY:453:CA:4044, H-A:ARG:545:NE:4924, H-A:TYR:484:OH:4348"]

$$$$
ZINC917917312
     RDKit          3D

 56 58  0  0  0  0  0  0  0  0999 V2000
  133.1120  122.9030   63.3830 C   0  0  0  0  0  0  0  0  0  0  0  0
  132.6770  124.0470   64.2940 C   0  0  0  0  0  0  0  0  0  0  0  0
  133.5390  124.7900   64.7620 O   0  0  0  0  0  0  0  0  0  0  0  0
  131.3480  124.1470   64.5090 N   0  0  0  0  0  0  0  0  0  0  0  0
  130.6260  125.0690   65.2920 C   0  0  0  0  0  0  0  0  0  0  0  0
  129.8870  126.0220   64.5870 C   0  0  0  0  0  0  0  0  0  0  0  0
  129.1340  126.9810   65.2630 C   0  0  0  0  0  0  0  0  0  0  0  0
  129.1080  127.0000   66.6600 C   0  0  0  0  0  0  0  0  0  0  0  0
  128.1480  128.2410   67.5280 S   0  0  0  0  0  0  0  0  0  0  0  0
  126.7860  127.7180   67.6900 O   0  0  0  0  0  0  0  0  0  0  0  0
  128.9360  128.6410   68.6980 O   0  0  0  0  0  0  0  0  0  0  0  0
  128.0940  129.6180   66.4240 N   0  0  0  0  0  0  0  0  0  0  0  0
  127.2720  129.5670   65.1940 C   0  0  0  0  0  0  0  0  0  0  0  0
  127.9630  130.1230   63.9580 C   0  0  0  0  0  0  0  0  0  0  0  0
  128.2920  129.2680   62.9060 C   0  0  0  0  0  0  0  0  0  0  0  0
  128.9290  129.7650   61.7700 C   0  0  0  0  0  0  0  0  0  0  0  0
  129.2400  131.1300   61.6490 C   0  0  0  0  0  0  0  0  0  0  0  0
  129.9070  131.6240   60.5270 N   0  0  0  0  0  0  0  0  0  0  0  0
  130.9570  130.8540   59.8510 C   0  0  0  0  0  0  0  0  0  0  0  0
  131.8540  131.8210   59.0600 C   0  0  1  0  0  0  0  0  0  0  0  0
  133.1050  131.1250   58.5070 C   0  0  0  0  0  0  0  0  0  0  0  0
  131.1160  132.3110   57.9520 O   0  0  0  0  0  0  0  0  0  0  0  0
  129.8640  132.9150   58.2750 C   0  0  1  0  0  0  0  0  0  0  0  0
  128.9850  133.1560   57.0420 C   0  0  0  0  0  0  0  0  0  0  0  0
  129.1140  132.3680   59.5280 C   0  0  0  0  0  0  0  0  0  0  0  0
  128.9310  131.9760   62.7310 C   0  0  0  0  0  0  0  0  0  0  0  0
  129.2620  133.2890   62.7070 F   0  0  0  0  0  0  0  0  0  0  0  0
  128.2950  131.4760   63.8670 C   0  0  0  0  0  0  0  0  0  0  0  0
  129.8450  126.0500   67.3750 C   0  0  0  0  0  0  0  0  0  0  0  0
  129.8430  126.0530   68.7290 F   0  0  0  0  0  0  0  0  0  0  0  0
  130.5980  125.0910   66.6980 C   0  0  0  0  0  0  0  0  0  0  0  0
  133.4366  122.0493   63.9960 H   0  0  0  0  0  0  0  0  0  0  0  0
  132.2670  122.5983   62.7481 H   0  0  0  0  0  0  0  0  0  0  0  0
  133.9460  123.2367   62.7481 H   0  0  0  0  0  0  0  0  0  0  0  0
  130.7710  123.4680   64.0350 H   0  0  0  0  0  0  0  0  0  0  0  0
  129.8993  126.0157   63.4871 H   0  0  0  0  0  0  0  0  0  0  0  0
  128.5579  127.7258   64.6943 H   0  0  0  0  0  0  0  0  0  0  0  0
  128.9390  130.1940   66.3760 H   0  0  0  0  0  0  0  0  0  0  0  0
  127.0083  128.5171   64.9987 H   0  0  0  0  0  0  0  0  0  0  0  0
  126.3918  130.2011   65.3759 H   0  0  0  0  0  0  0  0  0  0  0  0
  128.0479  128.1975   62.9731 H   0  0  0  0  0  0  0  0  0  0  0  0
  129.1929  129.0764   60.9538 H   0  0  0  0  0  0  0  0  0  0  0  0
  131.5608  130.3181   60.5982 H   0  0  0  0  0  0  0  0  0  0  0  0
  130.5010  130.1242   59.1658 H   0  0  0  0  0  0  0  0  0  0  0  0
  132.1681  132.6238   59.7432 H   0  0  0  0  0  0  0  0  0  0  0  0
  133.7305  130.7770   59.3423 H   0  0  0  0  0  0  0  0  0  0  0  0
  132.8040  130.2647   57.8912 H   0  0  0  0  0  0  0  0  0  0  0  0
  133.6773  131.8344   57.8912 H   0  0  0  0  0  0  0  0  0  0  0  0
  130.1499  133.9118   58.6418 H   0  0  0  0  0  0  0  0  0  0  0  0
  127.9705  133.4341   57.3636 H   0  0  0  0  0  0  0  0  0  0  0  0
  129.4144  133.9696   56.4389 H   0  0  0  0  0  0  0  0  0  0  0  0
  128.9395  132.2372   56.4389 H   0  0  0  0  0  0  0  0  0  0  0  0
  128.6604  133.2283   60.0419 H   0  0  0  0  0  0  0  0  0  0  0  0
  128.4031  131.6297   59.1286 H   0  0  0  0  0  0  0  0  0  0  0  0
  128.0528  132.1538   64.6988 H   0  0  0  0  0  0  0  0  0  0  0  0
  131.1739  124.3467   67.2675 H   0  0  0  0  0  0  0  0  0  0  0  0
  1  2  1  0
  2  3  2  0
  2  4  1  0
  4  5  1  0
  5  6  2  0
  6  7  1  0
  7  8  2  0
  8  9  1  0
  9 10  2  0
  9 11  2  0
  9 12  1  0
 12 13  1  0
 13 14  1  0
 14 15  2  0
 15 16  1  0
 16 17  2  0
 17 18  1  0
 18 19  1  0
 19 20  1  0
 20 21  1  0
 20 22  1  0
 22 23  1  0
 23 24  1  0
 23 25  1  0
 17 26  1  0
 26 27  1  0
 26 28  2  0
  8 29  1  0
 29 30  1  0
 29 31  2  0
 31  5  1  0
 28 14  1  0
 25 18  1  0
  1 32  1  0
  1 33  1  0
  1 34  1  0
  4 35  1  0
  6 36  1  0
  7 37  1  0
 12 38  1  0
 13 39  1  0
 13 40  1  0
 15 41  1  0
 16 42  1  0
 19 43  1  0
 19 44  1  0
 20 45  1  1
 21 46  1  0
 21 47  1  0
 21 48  1  0
 23 49  1  1
 24 50  1  0
 24 51  1  0
 24 52  1  0
 25 53  1  0
 25 54  1  0
 28 55  1  0
 31 56  1  0
M  END
>  <Binding energies>  (1) 
[-7.55]

>  <Ligand effiencies>  (1) 
[-0.2287878787878788]

>  <Interactions>  (1) 
["V-A:GLY:454:CA:4049, H-A:GLU:543:OE2:4910, V-B:GLU:543:CB:9878, V-A:PRO:540:C:4881, V-A:TYR:484:CE2:4346, V-B:GLU:543:CG:9879, V-A:ASP:366:CG:3213, V-A:TYR:539:CD1:4873, V-A:LEU:363:CD1:3189, V-A:ALA:541:CB:4892, V-A:TYR:539:CA:4869, V-A:GLU:543:CD:4908, V-A:TYR:484:CZ:4347, H-B:TYR:484:OH:9319, V-B:HIS:456:CE1:9041, H-A:GLY:454:N:4050, V-A:HIS:456:CE1:4070, V-A:ALA:541:CA:4890, V-A:GLU:543:CG:4907, V-B:GLU:543:CD:9880, V-A:TYR:539:C:4867, V-A:ASP:366:CB:3212, V-A:LEU:475:CD2:4259, H-A:ARG:545:NH2:4928, H-A:GLU:543:OE1:4909, V-A:GLU:543:CB:4906, V-A:PRO:540:N:4884, V-A:TYR:539:CG:4872, V-A:PRO:540:CB:4885, V-A:PRO:540:CA:4883, V-A:LEU:363:CA:3185, H-A:ARG:545:NE:4924, V-A:TYR:539:CE1:4875, H-A:TYR:484:OH:4348"]

$$$$
ZINC918584218
     RDKit          3D

 44 46  0  0  0  0  0  0  0  0999 V2000
  133.5920  121.6890   61.2280 C   0  0  0  0  0  0  0  0  0  0  0  0
  133.7770  122.7400   62.3380 C   0  0  1  0  0  0  0  0  0  0  0  0
  134.1800  124.1340   61.7850 C   0  0  0  0  0  0  0  0  0  0  0  0
  133.6840  124.3430   60.4320 N   0  0  0  0  0  0  0  0  0  0  0  0
  132.4760  124.8650   60.0480 C   0  0  0  0  0  0  0  0  0  0  0  0
  132.4870  124.8360   58.6620 C   0  0  0  0  0  0  0  0  0  0  0  0
  133.6110  124.3300   58.1860 N   0  0  0  0  0  0  0  0  0  0  0  0
  134.3180  124.0380   59.2530 C   0  0  0  0  0  0  0  0  0  0  0  0
  132.5730  122.8040   63.1720 N   0  0  0  0  0  0  0  0  0  0  0  0
  132.4100  123.5910   64.2500 C   0  0  0  0  0  0  0  0  0  0  0  0
  133.2860  124.3550   64.6640 O   0  0  0  0  0  0  0  0  0  0  0  0
  131.0330  123.4780   64.9420 C   0  0  0  0  0  0  0  0  0  0  0  0
  130.3030  124.7780   64.9440 N   0  0  0  0  0  0  0  0  0  0  0  0
  130.0840  125.4320   66.1160 C   0  0  0  0  0  0  0  0  0  0  0  0
  130.4900  125.0320   67.2110 O   0  0  0  0  0  0  0  0  0  0  0  0
  129.3240  126.6450   65.8760 C   0  0  0  0  0  0  0  0  0  0  0  0
  128.8930  127.5040   66.8300 C   0  0  0  0  0  0  0  0  0  0  0  0
  128.9720  127.4170   68.3030 C   0  0  0  0  0  0  0  0  0  0  0  0
  127.8640  127.0410   69.0690 C   0  0  0  0  0  0  0  0  0  0  0  0
  127.9610  126.9800   70.4570 C   0  0  0  0  0  0  0  0  0  0  0  0
  129.1630  127.3080   71.0800 C   0  0  0  0  0  0  0  0  0  0  0  0
  129.2970  127.2260   72.9760 Br  0  0  0  0  0  0  0  0  0  0  0  0
  130.2670  127.6990   70.3250 C   0  0  0  0  0  0  0  0  0  0  0  0
  130.1700  127.7580   68.9370 C   0  0  0  0  0  0  0  0  0  0  0  0
  129.0720  126.8530   64.1480 S   0  0  0  0  0  0  0  0  0  0  0  0
  129.8620  125.3480   63.7790 C   0  0  0  0  0  0  0  0  0  0  0  0
  129.9710  124.8380   62.1940 S   0  0  0  0  0  0  0  0  0  0  0  0
  133.4183  120.7024   61.6824 H   0  0  0  0  0  0  0  0  0  0  0  0
  132.7282  121.9626   60.6043 H   0  0  0  0  0  0  0  0  0  0  0  0
  134.4973  121.6512   60.6043 H   0  0  0  0  0  0  0  0  0  0  0  0
  134.6208  122.4198   62.9668 H   0  0  0  0  0  0  0  0  0  0  0  0
  133.7625  124.9117   62.4414 H   0  0  0  0  0  0  0  0  0  0  0  0
  135.2784  124.1868   61.7585 H   0  0  0  0  0  0  0  0  0  0  0  0
  131.6693  125.2295   60.7009 H   0  0  0  0  0  0  0  0  0  0  0  0
  131.6580  125.1922   58.0328 H   0  0  0  0  0  0  0  0  0  0  0  0
  135.3223  123.5917   59.2068 H   0  0  0  0  0  0  0  0  0  0  0  0
  131.8240  122.1770   62.9170 H   0  0  0  0  0  0  0  0  0  0  0  0
  130.4272  122.7309   64.4084 H   0  0  0  0  0  0  0  0  0  0  0  0
  131.2005  123.1797   65.9874 H   0  0  0  0  0  0  0  0  0  0  0  0
  128.4057  128.4127   66.4468 H   0  0  0  0  0  0  0  0  0  0  0  0
  126.9135  126.7928   68.5740 H   0  0  0  0  0  0  0  0  0  0  0  0
  127.0924  126.6742   71.0586 H   0  0  0  0  0  0  0  0  0  0  0  0
  131.2120  127.9602   70.8237 H   0  0  0  0  0  0  0  0  0  0  0  0
  131.0375  128.0734   68.3388 H   0  0  0  0  0  0  0  0  0  0  0  0
  1  2  1  0
  2  3  1  0
  3  4  1  0
  4  5  1  0
  5  6  2  0
  6  7  1  0
  7  8  2  0
  2  9  1  0
  9 10  1  0
 10 11  2  0
 10 12  1  0
 12 13  1  0
 13 14  1  0
 14 15  2  0
 14 16  1  0
 16 17  2  0
 17 18  1  0
 18 19  2  0
 19 20  1  0
 20 21  2  0
 21 22  1  0
 21 23  1  0
 23 24  2  0
 16 25  1  0
 25 26  1  0
 26 27  2  0
  8  4  1  0
 26 13  1  0
 24 18  1  0
  1 28  1  0
  1 29  1  0
  1 30  1  0
  2 31  1  1
  3 32  1  0
  3 33  1  0
  5 34  1  0
  6 35  1  0
  8 36  1  0
  9 37  1  0
 12 38  1  0
 12 39  1  0
 17 40  1  0
 19 41  1  0
 20 42  1  0
 23 43  1  0
 24 44  1  0
M  END
>  <Binding energies>  (1) 
[-8.06]

>  <Ligand effiencies>  (1) 
[-0.28785714285714287]

>  <Interactions>  (1) 
["V-A:ILE:369:CG2:3237, V-A:ASP:366:CA:3210, V-A:GLY:454:CA:4049, V-B:GLU:543:C:9874, V-A:ILE:369:CB:3236, V-B:GLU:543:CB:9878, V-B:TYR:539:CE2:9848, V-A:TYR:484:CE2:4346, V-B:GLU:543:CG:9879, V-A:ASP:366:CG:3213, V-B:TYR:539:CZ:9849, H-B:TYR:539:OH:9850, V-A:TYR:484:CZ:4347, V-A:GLU:543:CD:4908, V-B:HIS:456:CE1:9041, H-A:GLY:454:N:4050, V-A:ILE:369:CD1:3239, V-A:HIS:456:CE1:4070, V-A:ASP:366:C:3208, V-B:GLU:543:CD:9880, V-A:ILE:369:CG1:3238, V-A:ASP:366:CB:3212, V-A:LEU:475:CD2:4259, V-A:GLU:543:CB:4906, H-A:TYR:484:OH:4348"]

$$$$
ZINC918899887
     RDKit          3D

 40 41  0  0  0  0  0  0  0  0999 V2000
  131.0640  127.8280   69.7680 O   0  0  0  0  0  0  0  0  0  0  0  0
  130.0120  127.7150   69.1330 C   0  0  0  0  0  0  0  0  0  0  0  0
  129.2750  126.4620   68.9770 C   0  0  0  0  0  0  0  0  0  0  0  0
  129.4180  125.5600   67.9790 C   0  0  0  0  0  0  0  0  0  0  0  0
  130.3210  125.5290   66.8370 C   0  0  0  0  0  0  0  0  0  0  0  0
  129.8880  125.5010   65.5010 C   0  0  0  0  0  0  0  0  0  0  0  0
  130.9250  125.4480   64.5800 C   0  0  0  0  0  0  0  0  0  0  0  0
  132.4750  125.4090   65.3480 S   0  0  0  0  0  0  0  0  0  0  0  0
  131.7120  125.4610   66.9030 C   0  0  0  0  0  0  0  0  0  0  0  0
  129.4150  128.7250   68.4630 O   0  0  0  0  0  0  0  0  0  0  0  0
  128.2140  128.5070   67.7250 C   0  0  0  0  0  0  0  0  0  0  0  0
  128.1930  129.2620   66.4060 C   0  0  0  0  0  0  0  0  0  0  0  0
  127.6150  128.8560   65.2610 C   0  0  0  0  0  0  0  0  0  0  0  0
  127.6280  129.6460   63.9690 C   0  0  0  0  0  0  0  0  0  0  0  0
  127.3200  131.0090   64.2250 O   0  0  0  0  0  0  0  0  0  0  0  0
  128.2870  131.9530   64.2070 C   0  0  0  0  0  0  0  0  0  0  0  0
  128.3880  132.8690   65.0280 O   0  0  0  0  0  0  0  0  0  0  0  0
  129.2030  131.7640   63.0890 C   0  0  0  0  0  0  0  0  0  0  0  0
  130.5320  131.9760   63.1870 C   0  0  0  0  0  0  0  0  0  0  0  0
  131.5180  131.8080   62.1320 C   0  0  0  0  0  0  0  0  0  0  0  0
  132.9060  131.8470   62.3450 C   0  0  0  0  0  0  0  0  0  0  0  0
  133.6540  131.6740   61.1880 C   0  0  0  0  0  0  0  0  0  0  0  0
  132.6540  131.4680   59.7920 S   0  0  0  0  0  0  0  0  0  0  0  0
  131.2360  131.6160   60.7790 C   0  0  0  0  0  0  0  0  0  0  0  0
  128.5280  126.2289   69.7500 H   0  0  0  0  0  0  0  0  0  0  0  0
  128.7335  124.7011   68.0409 H   0  0  0  0  0  0  0  0  0  0  0  0
  128.8268  125.5194   65.2119 H   0  0  0  0  0  0  0  0  0  0  0  0
  130.7787  125.4326   63.4899 H   0  0  0  0  0  0  0  0  0  0  0  0
  132.2709  125.4422   67.8502 H   0  0  0  0  0  0  0  0  0  0  0  0
  128.1190  127.4311   67.5166 H   0  0  0  0  0  0  0  0  0  0  0  0
  127.3767  128.8778   68.3344 H   0  0  0  0  0  0  0  0  0  0  0  0
  128.7010  130.2375   66.3856 H   0  0  0  0  0  0  0  0  0  0  0  0
  127.0982  127.8850   65.2634 H   0  0  0  0  0  0  0  0  0  0  0  0
  128.6262  129.5786   63.5118 H   0  0  0  0  0  0  0  0  0  0  0  0
  126.8734  129.2294   63.2856 H   0  0  0  0  0  0  0  0  0  0  0  0
  128.7929  131.4341   62.1231 H   0  0  0  0  0  0  0  0  0  0  0  0
  130.9078  132.3101   64.1653 H   0  0  0  0  0  0  0  0  0  0  0  0
  133.3582  132.0003   63.3360 H   0  0  0  0  0  0  0  0  0  0  0  0
  134.7537  131.6686   61.1623 H   0  0  0  0  0  0  0  0  0  0  0  0
  130.2133  131.5636   60.3774 H   0  0  0  0  0  0  0  0  0  0  0  0
  1  2  2  0
  2  3  1  0
  3  4  2  0
  4  5  1  0
  5  6  1  0
  6  7  2  0
  7  8  1  0
  8  9  1  0
  2 10  1  0
 10 11  1  0
 11 12  1  0
 12 13  2  0
 13 14  1  0
 14 15  1  0
 15 16  1  0
 16 17  2  0
 16 18  1  0
 18 19  2  0
 19 20  1  0
 20 21  1  0
 21 22  2  0
 22 23  1  0
 23 24  1  0
  9  5  2  0
 24 20  2  0
  3 25  1  0
  4 26  1  0
  6 27  1  0
  7 28  1  0
  9 29  1  0
 11 30  1  0
 11 31  1  0
 12 32  1  0
 13 33  1  0
 14 34  1  0
 14 35  1  0
 18 36  1  0
 19 37  1  0
 21 38  1  0
 22 39  1  0
 24 40  1  0
M  END
>  <Binding energies>  (1) 
[-6.14]

>  <Ligand effiencies>  (1) 
[-0.2558333333333333]

>  <Interactions>  (1) 
["V-A:ALA:541:C:4888, V-B:GLU:543:C:9874, V-B:GLU:543:CB:9878, V-B:GLU:543:CG:9879, V-A:ASP:366:CG:3213, V-A:ASN:362:CB:3176, V-B:TYR:484:CE2:9317, V-A:ALA:541:CB:4892, V-A:GLU:543:CD:4908, V-A:TYR:484:CZ:4347, H-B:TYR:484:OH:9319, V-B:HIS:456:CE1:9041, V-B:GLU:543:CA:9876, V-A:HIS:456:CE1:4070, V-A:ALA:541:CA:4890, V-A:GLU:543:CG:4907, V-B:GLU:543:CD:9880, V-A:ASN:362:C:3172, V-A:ARG:545:CZ:4926, V-A:GLU:543:CB:4906, V-A:PRO:540:CB:4885, V-A:PRO:540:CA:4883, V-A:LEU:363:CA:3185"]

$$$$
ZINC919037958
     RDKit          3D

 51 55  0  0  0  0  0  0  0  0999 V2000
  131.8200  125.0940   63.5620 C   0  0  0  0  0  0  0  0  0  0  0  0
  132.8680  124.3590   62.7080 C   0  0  0  0  0  0  0  0  0  0  0  0
  134.0070  124.3240   63.1750 O   0  0  0  0  0  0  0  0  0  0  0  0
  132.5270  123.8120   61.4920 N   0  0  0  0  0  0  0  0  0  0  0  0
  132.0470  122.4660   61.3150 C   0  0  0  0  0  0  0  0  0  0  0  0
  130.7610  122.0500   61.7190 C   0  0  0  0  0  0  0  0  0  0  0  0
  130.3320  120.7420   61.5120 C   0  0  0  0  0  0  0  0  0  0  0  0
  131.1720  119.8260   60.8900 C   0  0  0  0  0  0  0  0  0  0  0  0
  130.6330  118.2080   60.6220 Cl  0  0  0  0  0  0  0  0  0  0  0  0
  132.4430  120.2100   60.4750 C   0  0  0  0  0  0  0  0  0  0  0  0
  132.8740  121.5170   60.6840 C   0  0  0  0  0  0  0  0  0  0  0  0
  132.3710  124.6820   60.4110 C   0  0  0  0  0  0  0  0  0  0  0  0
  131.4080  125.5660   60.3160 N   0  0  0  0  0  0  0  0  0  0  0  0
  131.4590  126.2550   59.1840 C   0  0  0  0  0  0  0  0  0  0  0  0
  130.4230  127.3510   58.9470 C   0  0  0  0  0  0  0  0  0  0  0  0
  130.8000  128.1860   57.8540 O   0  0  0  0  0  0  0  0  0  0  0  0
  130.2820  129.4270   57.6720 C   0  0  0  0  0  0  0  0  0  0  0  0
  129.2130  129.6720   57.1050 O   0  0  0  0  0  0  0  0  0  0  0  0
  131.1660  130.5400   58.3150 C   0  0  1  0  0  0  0  0  0  0  0  0
  132.4770  130.7690   57.5580 C   0  0  0  0  0  0  0  0  0  0  0  0
  132.1110  131.8260   56.5300 C   0  0  0  0  0  0  0  0  0  0  0  0
  130.9470  132.6020   57.1510 C   0  0  0  0  0  0  0  0  0  0  0  0
  130.5740  133.7200   56.8030 O   0  0  0  0  0  0  0  0  0  0  0  0
  130.5050  131.8370   58.1860 N   0  0  0  0  0  0  0  0  0  0  0  0
  129.9060  132.3090   59.3560 C   0  0  0  0  0  0  0  0  0  0  0  0
  128.9800  133.3520   59.4850 C   0  0  0  0  0  0  0  0  0  0  0  0
  128.4210  133.6360   60.7320 C   0  0  0  0  0  0  0  0  0  0  0  0
  128.7680  132.8700   61.8450 C   0  0  0  0  0  0  0  0  0  0  0  0
  129.6630  131.8080   61.7140 C   0  0  0  0  0  0  0  0  0  0  0  0
  130.2170  131.5150   60.4670 C   0  0  0  0  0  0  0  0  0  0  0  0
  131.3310  130.1900   60.0900 S   0  0  0  0  0  0  0  0  0  0  0  0
  132.4890  125.8770   58.3220 C   0  0  0  0  0  0  0  0  0  0  0  0
  133.4230  124.5920   59.0300 S   0  0  0  0  0  0  0  0  0  0  0  0
  132.0415  124.9386   64.6282 H   0  0  0  0  0  0  0  0  0  0  0  0
  131.8504  126.1697   63.3341 H   0  0  0  0  0  0  0  0  0  0  0  0
  130.8190  124.6991   63.3341 H   0  0  0  0  0  0  0  0  0  0  0  0
  130.0867  122.7704   62.2052 H   0  0  0  0  0  0  0  0  0  0  0  0
  129.3286  120.4335   61.8406 H   0  0  0  0  0  0  0  0  0  0  0  0
  133.1057  119.4828   59.9830 H   0  0  0  0  0  0  0  0  0  0  0  0
  133.8791  121.8139   60.3501 H   0  0  0  0  0  0  0  0  0  0  0  0
  129.4516  126.8852   58.7249 H   0  0  0  0  0  0  0  0  0  0  0  0
  130.3563  127.9707   59.8534 H   0  0  0  0  0  0  0  0  0  0  0  0
  133.2635  131.1341   58.2348 H   0  0  0  0  0  0  0  0  0  0  0  0
  132.8770  129.8500   57.1048 H   0  0  0  0  0  0  0  0  0  0  0  0
  132.9644  132.4944   56.3431 H   0  0  0  0  0  0  0  0  0  0  0  0
  131.8390  131.3813   55.5614 H   0  0  0  0  0  0  0  0  0  0  0  0
  128.6938  133.9464   58.6048 H   0  0  0  0  0  0  0  0  0  0  0  0
  127.7058  134.4651   60.8373 H   0  0  0  0  0  0  0  0  0  0  0  0
  128.3347  133.1040   62.8286 H   0  0  0  0  0  0  0  0  0  0  0  0
  129.9317  131.2025   62.5922 H   0  0  0  0  0  0  0  0  0  0  0  0
  132.6824  126.3268   57.3369 H   0  0  0  0  0  0  0  0  0  0  0  0
  1  2  1  0
  2  3  2  0
  2  4  1  0
  4  5  1  0
  5  6  2  0
  6  7  1  0
  7  8  2  0
  8  9  1  0
  8 10  1  0
 10 11  2  0
  4 12  1  0
 12 13  2  0
 13 14  1  0
 14 15  1  0
 15 16  1  0
 16 17  1  0
 17 18  2  0
 19 17  1  6
 19 20  1  0
 20 21  1  0
 21 22  1  0
 22 23  2  0
 22 24  1  0
 24 25  1  0
 25 26  2  0
 26 27  1  0
 27 28  2  0
 28 29  1  0
 29 30  2  0
 30 31  1  0
 14 32  2  0
 32 33  1  0
 11  5  1  0
 33 12  1  0
 24 19  1  0
 30 25  1  0
 31 19  1  0
  1 34  1  0
  1 35  1  0
  1 36  1  0
  6 37  1  0
  7 38  1  0
 10 39  1  0
 11 40  1  0
 15 41  1  0
 15 42  1  0
 20 43  1  0
 20 44  1  0
 21 45  1  0
 21 46  1  0
 26 47  1  0
 27 48  1  0
 28 49  1  0
 29 50  1  0
 32 51  1  0
M  END
>  <Binding energies>  (1) 
[-8.87]

>  <Ligand effiencies>  (1) 
[-0.26878787878787874]

>  <Interactions>  (1) 
["V-A:ILE:369:CG2:3237, V-A:ASP:366:CA:3210, V-B:ALA:541:CB:9864, H-A:TYR:531:OH:4795, V-B:TYR:539:CE2:9848, V-A:ASP:366:CG:3213, V-A:LEU:363:CD1:3189, V-A:TYR:539:CD1:4873, V-A:TYR:531:CE2:4793, V-A:ALA:541:CB:4892, H-A:GLY:454:N:4050, V-B:TYR:539:CD2:9846, V-A:TYR:531:CZ:4794, V-A:SER:385:CB:3409, V-A:TYR:539:C:4867, V-A:ASP:366:CB:3212, V-A:LEU:475:CD2:4259, H-A:ARG:545:NH2:4928, V-A:PRO:540:N:4884, H-A:TYR:539:N:4870, V-A:PRO:540:CB:4885, V-A:PRO:540:CA:4883, V-A:HIS:383:NE2:3394"]

$$$$
ZINC919438130
     RDKit          3D

 52 54  0  0  0  0  0  0  0  0999 V2000
  127.5410  129.3950   66.8080 C   0  0  0  0  0  0  0  0  0  0  0  0
  128.3000  128.1460   66.4020 C   0  0  0  0  0  0  0  0  0  0  0  0
  128.7610  127.7590   65.1590 C   0  0  0  0  0  0  0  0  0  0  0  0
  129.4320  126.5360   65.2650 C   0  0  0  0  0  0  0  0  0  0  0  0
  130.0770  125.8120   64.1670 C   0  0  0  0  0  0  0  0  0  0  0  0
  130.3330  126.3460   63.0860 O   0  0  0  0  0  0  0  0  0  0  0  0
  130.3050  124.3010   64.3410 C   0  0  0  0  0  0  0  0  0  0  0  0
  131.6500  124.0220   64.7220 O   0  0  0  0  0  0  0  0  0  0  0  0
  132.6810  124.5470   64.0310 C   0  0  0  0  0  0  0  0  0  0  0  0
  133.7500  124.9340   64.5110 O   0  0  0  0  0  0  0  0  0  0  0  0
  132.3810  124.6130   62.5300 C   0  0  0  0  0  0  0  0  0  0  0  0
  132.8990  123.3990   61.7320 C   0  0  0  0  0  0  0  0  0  0  0  0
  132.5350  123.4860   60.2990 N   0  0  0  0  0  0  0  0  0  0  0  0
  131.1610  123.7950   59.8680 C   0  0  0  0  0  0  0  0  0  0  0  0
  131.1000  125.3160   59.6020 C   0  0  0  0  0  0  0  0  0  0  0  0
  132.4560  125.8250   59.0590 C   0  0  0  0  0  0  0  0  0  0  0  0
  133.5950  124.3360   59.1980 S   0  0  0  0  0  0  0  0  0  0  0  0
  134.8590  124.7200   59.8350 O   0  0  0  0  0  0  0  0  0  0  0  0
  133.6180  123.6770   57.8870 O   0  0  0  0  0  0  0  0  0  0  0  0
  129.3600  126.1650   66.6160 C   0  0  0  0  0  0  0  0  0  0  0  0
  129.8810  124.9300   67.3370 C   0  0  0  0  0  0  0  0  0  0  0  0
  128.6770  127.1630   67.3020 N   0  0  0  0  0  0  0  0  0  0  0  0
  128.4100  127.1820   68.6890 C   0  0  0  0  0  0  0  0  0  0  0  0
  127.1090  126.9670   69.1570 C   0  0  0  0  0  0  0  0  0  0  0  0
  126.8490  126.9810   70.5270 C   0  0  0  0  0  0  0  0  0  0  0  0
  127.8850  127.2100   71.4330 C   0  0  0  0  0  0  0  0  0  0  0  0
  129.1840  127.4270   70.9700 C   0  0  0  0  0  0  0  0  0  0  0  0
  130.5950  127.7400   72.2060 Br  0  0  0  0  0  0  0  0  0  0  0  0
  129.4480  127.4150   69.5990 C   0  0  0  0  0  0  0  0  0  0  0  0
  127.5017  129.4597   67.9054 H   0  0  0  0  0  0  0  0  0  0  0  0
  128.0530  130.2819   66.4065 H   0  0  0  0  0  0  0  0  0  0  0  0
  126.5179  129.3491   66.4065 H   0  0  0  0  0  0  0  0  0  0  0  0
  128.6217  128.3263   64.2270 H   0  0  0  0  0  0  0  0  0  0  0  0
  129.6260  123.9232   65.1196 H   0  0  0  0  0  0  0  0  0  0  0  0
  130.1063  123.8062   63.3789 H   0  0  0  0  0  0  0  0  0  0  0  0
  131.2907  124.6740   62.3977 H   0  0  0  0  0  0  0  0  0  0  0  0
  132.9056  125.4975   62.1395 H   0  0  0  0  0  0  0  0  0  0  0  0
  133.9948  123.3572   61.8190 H   0  0  0  0  0  0  0  0  0  0  0  0
  132.4341  122.4931   62.1482 H   0  0  0  0  0  0  0  0  0  0  0  0
  130.9203  123.2411   58.9486 H   0  0  0  0  0  0  0  0  0  0  0  0
  130.4334  123.5028   60.6395 H   0  0  0  0  0  0  0  0  0  0  0  0
  130.3129  125.5229   58.8620 H   0  0  0  0  0  0  0  0  0  0  0  0
  130.8776  125.8340   60.5465 H   0  0  0  0  0  0  0  0  0  0  0  0
  132.3609  126.1472   58.0116 H   0  0  0  0  0  0  0  0  0  0  0  0
  132.8321  126.6970   59.6141 H   0  0  0  0  0  0  0  0  0  0  0  0
  129.8156  125.0851   68.4240 H   0  0  0  0  0  0  0  0  0  0  0  0
  129.2745  124.0570   67.0540 H   0  0  0  0  0  0  0  0  0  0  0  0
  130.9295  124.7552   67.0540 H   0  0  0  0  0  0  0  0  0  0  0  0
  126.2910  126.7869   68.4440 H   0  0  0  0  0  0  0  0  0  0  0  0
  125.8259  126.8113   70.8938 H   0  0  0  0  0  0  0  0  0  0  0  0
  127.6780  127.2196   72.5133 H   0  0  0  0  0  0  0  0  0  0  0  0
  130.4711  127.5885   69.2341 H   0  0  0  0  0  0  0  0  0  0  0  0
  1  2  1  0
  2  3  2  0
  3  4  1  0
  4  5  1  0
  5  6  2  0
  5  7  1  0
  7  8  1  0
  8  9  1  0
  9 10  2  0
  9 11  1  0
 11 12  1  0
 12 13  1  0
 13 14  1  0
 14 15  1  0
 15 16  1  0
 16 17  1  0
 17 18  2  0
 17 19  2  0
  4 20  2  0
 20 21  1  0
 20 22  1  0
 22 23  1  0
 23 24  2  0
 24 25  1  0
 25 26  2  0
 26 27  1  0
 27 28  1  0
 27 29  2  0
 22  2  1  0
 29 23  1  0
 17 13  1  0
  1 30  1  0
  1 31  1  0
  1 32  1  0
  3 33  1  0
  7 34  1  0
  7 35  1  0
 11 36  1  0
 11 37  1  0
 12 38  1  0
 12 39  1  0
 14 40  1  0
 14 41  1  0
 15 42  1  0
 15 43  1  0
 16 44  1  0
 16 45  1  0
 21 46  1  0
 21 47  1  0
 21 48  1  0
 24 49  1  0
 25 50  1  0
 26 51  1  0
 29 52  1  0
M  END
>  <Binding energies>  (1) 
[-7.95]

>  <Ligand effiencies>  (1) 
[-0.27413793103448275]

>  <Interactions>  (1) 
["V-A:ILE:369:CG2:3237, V-A:ASP:366:CA:3210, V-B:GLU:543:C:9874, V-B:HIS:456:CD2:9039, V-A:ILE:369:CB:3236, V-B:GLU:543:CB:9878, H-A:ARG:545:NH1:4927, V-A:TYR:484:CE2:4346, V-B:TYR:539:CE2:9848, V-B:GLU:543:CG:9879, V-A:GLY:544:C:4912, V-A:HIS:456:CD2:4068, V-A:ASP:366:CG:3213, V-B:TYR:539:CZ:9849, H-B:TYR:539:OH:9850, V-A:GLU:543:CD:4908, V-A:TYR:484:CZ:4347, V-B:HIS:456:CE1:9041, H-A:GLY:454:N:4050, V-B:GLU:543:CA:9876, H-A:ASP:366:N:3211, V-B:TYR:484:CZ:9318, V-A:HIS:456:CE1:4070, V-B:GLY:544:C:9884, V-B:GLY:544:CA:9886, V-A:GLU:543:CG:4907, V-B:TYR:539:CD2:9846, V-B:GLU:543:CD:9880, V-B:HIS:456:CG:9037, V-A:ASP:366:CB:3212, H-A:ARG:545:NH2:4928, V-A:ARG:545:CZ:4926, H-A:ARG:545:NE:4924, H-A:TYR:484:OH:4348"]

$$$$
ZINC920179986
     RDKit          3D

 65 69  0  0  0  0  0  0  0  0999 V2000
  128.3920  128.6370   67.3900 F   0  0  0  0  0  0  0  0  0  0  0  0
  128.9230  127.4260   67.0970 C   0  0  0  0  0  0  0  0  0  0  0  0
  129.0840  127.0670   65.7560 C   0  0  0  0  0  0  0  0  0  0  0  0
  129.6320  125.8280   65.4170 C   0  0  0  0  0  0  0  0  0  0  0  0
  129.7780  125.4120   63.9580 C   0  0  0  0  0  0  0  0  0  0  0  0
  131.1590  125.0970   63.6140 N   0  0  0  0  0  0  0  0  0  0  0  0
  131.5800  123.7930   64.1110 C   0  0  0  0  0  0  0  0  0  0  0  0
  131.6400  122.7990   62.9590 C   0  0  0  0  0  0  0  0  0  0  0  0
  130.4660  122.1550   62.5530 C   0  0  0  0  0  0  0  0  0  0  0  0
  130.4980  121.2160   61.5250 C   0  0  0  0  0  0  0  0  0  0  0  0
  131.7030  120.9110   60.8990 C   0  0  0  0  0  0  0  0  0  0  0  0
  132.8770  121.5520   61.2940 C   0  0  0  0  0  0  0  0  0  0  0  0
  132.8590  122.5130   62.3210 C   0  0  0  0  0  0  0  0  0  0  0  0
  133.9800  123.2030   62.7450 O   0  0  0  0  0  0  0  0  0  0  0  0
  134.2290  124.5260   62.2710 C   0  0  0  0  0  0  0  0  0  0  0  0
  133.7090  124.6910   60.8480 C   0  0  0  0  0  0  0  0  0  0  0  0
  134.4320  124.1480   59.7800 C   0  0  0  0  0  0  0  0  0  0  0  0
  133.9160  124.2700   58.4870 C   0  0  0  0  0  0  0  0  0  0  0  0
  132.7380  124.8870   58.2170 N   0  0  0  0  0  0  0  0  0  0  0  0
  132.0470  125.4130   59.2610 C   0  0  0  0  0  0  0  0  0  0  0  0
  132.4940  125.3400   60.5810 C   0  0  0  0  0  0  0  0  0  0  0  0
  130.0260  124.9510   66.4320 C   0  0  0  0  0  0  0  0  0  0  0  0
  129.8610  125.3040   67.7700 C   0  0  0  0  0  0  0  0  0  0  0  0
  129.3000  126.5370   68.1180 C   0  0  0  0  0  0  0  0  0  0  0  0
  129.1350  126.8270   69.4630 N   0  0  0  0  0  0  0  0  0  0  0  0
  129.9870  127.8550   70.0600 C   0  0  0  0  0  0  0  0  0  0  0  0
  129.9250  127.9170   71.6010 C   0  0  0  0  0  0  0  0  0  0  0  0
  128.5680  128.0000   72.1650 N   0  0  0  0  0  0  0  0  0  0  0  0
  128.3040  128.5430   73.4280 C   0  0  0  0  0  0  0  0  0  0  0  0
  127.3600  127.9330   74.2030 N   0  0  0  0  0  0  0  0  0  0  0  0
  127.0840  128.4970   75.4080 C   0  0  0  0  0  0  0  0  0  0  0  0
  127.7170  129.6570   75.8530 C   0  0  0  0  0  0  0  0  0  0  0  0
  128.6590  130.2250   74.9950 C   0  0  0  0  0  0  0  0  0  0  0  0
  128.9590  129.6860   73.7840 N   0  0  0  0  0  0  0  0  0  0  0  0
  127.6970  126.9980   71.5280 C   0  0  0  0  0  0  0  0  0  0  0  0
  127.7740  126.9640   69.9860 C   0  0  0  0  0  0  0  0  0  0  0  0
  128.7772  127.7646   64.9627 H   0  0  0  0  0  0  0  0  0  0  0  0
  129.1559  124.5227   63.7786 H   0  0  0  0  0  0  0  0  0  0  0  0
  129.4565  126.2565   63.3308 H   0  0  0  0  0  0  0  0  0  0  0  0
  131.2660  125.1380   62.6110 H   0  0  0  0  0  0  0  0  0  0  0  0
  132.5757  123.8809   64.5702 H   0  0  0  0  0  0  0  0  0  0  0  0
  130.8572  123.4384   64.8605 H   0  0  0  0  0  0  0  0  0  0  0  0
  129.5128  122.3916   63.0484 H   0  0  0  0  0  0  0  0  0  0  0  0
  129.5712  120.7156   61.2079 H   0  0  0  0  0  0  0  0  0  0  0  0
  131.7295  120.1638   60.0921 H   0  0  0  0  0  0  0  0  0  0  0  0
  133.8266  121.3035   60.7974 H   0  0  0  0  0  0  0  0  0  0  0  0
  133.7208  125.2473   62.9278 H   0  0  0  0  0  0  0  0  0  0  0  0
  135.3140  124.7069   62.2760 H   0  0  0  0  0  0  0  0  0  0  0  0
  135.3889  123.6345   59.9550 H   0  0  0  0  0  0  0  0  0  0  0  0
  134.4909  123.8467   57.6502 H   0  0  0  0  0  0  0  0  0  0  0  0
  131.0920  125.9194   59.0571 H   0  0  0  0  0  0  0  0  0  0  0  0
  131.9046  125.7832   61.3972 H   0  0  0  0  0  0  0  0  0  0  0  0
  130.4684  123.9777   66.1732 H   0  0  0  0  0  0  0  0  0  0  0  0
  130.1750  124.6061   68.5601 H   0  0  0  0  0  0  0  0  0  0  0  0
  131.0275  127.6537   69.7652 H   0  0  0  0  0  0  0  0  0  0  0  0
  129.6171  128.8231   69.6912 H   0  0  0  0  0  0  0  0  0  0  0  0
  130.4053  127.0109   71.9988 H   0  0  0  0  0  0  0  0  0  0  0  0
  130.4370  128.8458   71.8927 H   0  0  0  0  0  0  0  0  0  0  0  0
  126.3336  128.0210   76.0563 H   0  0  0  0  0  0  0  0  0  0  0  0
  127.4851  130.1021   76.8319 H   0  0  0  0  0  0  0  0  0  0  0  0
  129.1778  131.1424   75.3101 H   0  0  0  0  0  0  0  0  0  0  0  0
  127.9818  126.0055   71.9074 H   0  0  0  0  0  0  0  0  0  0  0  0
  126.6639  127.2778   71.7817 H   0  0  0  0  0  0  0  0  0  0  0  0
  127.1779  126.1116   69.6281 H   0  0  0  0  0  0  0  0  0  0  0  0
  127.3890  127.9293   69.6256 H   0  0  0  0  0  0  0  0  0  0  0  0
  1  2  1  0
  2  3  2  0
  3  4  1  0
  4  5  1  0
  5  6  1  0
  6  7  1  0
  7  8  1  0
  8  9  2  0
  9 10  1  0
 10 11  2  0
 11 12  1  0
 12 13  2  0
 13 14  1  0
 14 15  1  0
 15 16  1  0
 16 17  2  0
 17 18  1  0
 18 19  2  0
 19 20  1  0
 20 21  2  0
  4 22  2  0
 22 23  1  0
 23 24  2  0
 24 25  1  0
 25 26  1  0
 26 27  1  0
 27 28  1  0
 28 29  1  0
 29 30  2  0
 30 31  1  0
 31 32  2  0
 32 33  1  0
 33 34  2  0
 28 35  1  0
 35 36  1  0
 24  2  1  0
 36 25  1  0
 13  8  1  0
 21 16  1  0
 34 29  1  0
  3 37  1  0
  5 38  1  0
  5 39  1  0
  6 40  1  0
  7 41  1  0
  7 42  1  0
  9 43  1  0
 10 44  1  0
 11 45  1  0
 12 46  1  0
 15 47  1  0
 15 48  1  0
 17 49  1  0
 18 50  1  0
 20 51  1  0
 21 52  1  0
 22 53  1  0
 23 54  1  0
 26 55  1  0
 26 56  1  0
 27 57  1  0
 27 58  1  0
 31 59  1  0
 32 60  1  0
 33 61  1  0
 35 62  1  0
 35 63  1  0
 36 64  1  0
 36 65  1  0
M  END
>  <Binding energies>  (1) 
[-7.68]

>  <Ligand effiencies>  (1) 
[-0.20756756756756756]

>  <Interactions>  (1) 
["V-A:ILE:369:CG2:3237, V-A:ASP:366:CA:3210, V-B:GLU:543:C:9874, V-B:HIS:456:CD2:9039, V-A:GLU:543:C:4902, V-A:ILE:369:CB:3236, V-B:GLU:543:CB:9878, H-B:LYS:547:NZ:9923, V-B:TYR:539:CE2:9848, V-A:TYR:484:CE2:4346, V-B:GLU:543:CG:9879, V-A:ASP:366:CG:3213, H-B:TYR:539:OH:9850, V-A:GLU:543:CD:4908, V-B:HIS:456:CE1:9041, V-B:GLU:543:CA:9876, H-A:GLY:454:N:4050, V-A:HIS:456:CE1:4070, V-A:ILE:369:CD1:3239, V-B:GLY:544:C:9884, V-A:ASP:366:C:3208, V-B:TYR:539:CD2:9846, V-A:GLU:543:CG:4907, V-B:GLU:543:CD:9880, V-A:ILE:369:CG1:3238, V-A:ASP:366:CB:3212, H-A:LYS:547:NZ:4951, V-A:LEU:475:CD2:4259, V-A:ARG:545:CZ:4926, V-A:GLU:543:CB:4906"]

$$$$
ZINC920180113-again1
     RDKit          3D

 60 64  0  0  0  0  0  0  0  0999 V2000
  130.3760  124.7390   67.5930 F   0  0  0  0  0  0  0  0  0  0  0  0
  129.8530  125.7330   66.8360 C   0  0  0  0  0  0  0  0  0  0  0  0
  129.8550  125.5770   65.4490 C   0  0  0  0  0  0  0  0  0  0  0  0
  129.2850  126.5500   64.6260 C   0  0  0  0  0  0  0  0  0  0  0  0
  129.3000  126.3850   63.1160 C   0  0  0  0  0  0  0  0  0  0  0  0
  129.9840  127.5620   62.4030 N   0  0  0  0  0  0  0  0  0  0  0  0
  131.2550  127.1760   61.6310 C   0  0  0  0  0  0  0  0  0  0  0  0
  131.5300  125.7170   61.9050 C   0  0  0  0  0  0  0  0  0  0  0  0
  132.3440  125.1510   62.8950 C   0  0  0  0  0  0  0  0  0  0  0  0
  132.3710  123.8390   62.8670 N   0  0  0  0  0  0  0  0  0  0  0  0
  131.5640  123.4830   61.8520 N   0  0  0  0  0  0  0  0  0  0  0  0
  131.3440  122.1170   61.5260 C   0  0  0  0  0  0  0  0  0  0  0  0
  130.1300  121.5040   61.8660 C   0  0  0  0  0  0  0  0  0  0  0  0
  129.9050  120.1680   61.5460 C   0  0  0  0  0  0  0  0  0  0  0  0
  130.8900  119.4380   60.8840 C   0  0  0  0  0  0  0  0  0  0  0  0
  130.6070  117.7820   60.4860 Cl  0  0  0  0  0  0  0  0  0  0  0  0
  132.0990  120.0340   60.5400 C   0  0  0  0  0  0  0  0  0  0  0  0
  132.3280  121.3710   60.8590 C   0  0  0  0  0  0  0  0  0  0  0  0
  131.0230  124.6010   61.2560 C   0  0  0  0  0  0  0  0  0  0  0  0
  128.7170  127.6860   65.2030 C   0  0  0  0  0  0  0  0  0  0  0  0
  128.7150  127.8430   66.5890 C   0  0  0  0  0  0  0  0  0  0  0  0
  129.2990  126.8820   67.4310 C   0  0  0  0  0  0  0  0  0  0  0  0
  129.2670  127.0180   68.8180 N   0  0  0  0  0  0  0  0  0  0  0  0
  128.0090  126.9910   69.5750 C   0  0  0  0  0  0  0  0  0  0  0  0
  128.1770  126.7680   71.0940 C   0  0  0  0  0  0  0  0  0  0  0  0
  129.1370  127.6660   71.7570 N   0  0  0  0  0  0  0  0  0  0  0  0
  129.0910  127.9420   73.1280 C   0  0  0  0  0  0  0  0  0  0  0  0
  129.6190  127.0200   73.9860 N   0  0  0  0  0  0  0  0  0  0  0  0
  129.6020  127.3210   75.3100 C   0  0  0  0  0  0  0  0  0  0  0  0
  129.0830  128.5210   75.7980 C   0  0  0  0  0  0  0  0  0  0  0  0
  128.5760  129.4140   74.8540 C   0  0  0  0  0  0  0  0  0  0  0  0
  128.5780  129.1440   73.5220 N   0  0  0  0  0  0  0  0  0  0  0  0
  130.3810  127.7370   70.9720 C   0  0  0  0  0  0  0  0  0  0  0  0
  130.1780  127.9740   69.4610 C   0  0  0  0  0  0  0  0  0  0  0  0
  130.3090  124.6808   65.0011 H   0  0  0  0  0  0  0  0  0  0  0  0
  129.8403  125.4597   62.8674 H   0  0  0  0  0  0  0  0  0  0  0  0
  128.2555  126.3475   62.7731 H   0  0  0  0  0  0  0  0  0  0  0  0
  129.3250  127.9770   61.7600 H   0  0  0  0  0  0  0  0  0  0  0  0
  130.2240  128.2600   63.0930 H   0  0  0  0  0  0  0  0  0  0  0  0
  131.1013  127.3328   60.5531 H   0  0  0  0  0  0  0  0  0  0  0  0
  132.1051  127.7962   61.9515 H   0  0  0  0  0  0  0  0  0  0  0  0
  132.9071  125.7494   63.6264 H   0  0  0  0  0  0  0  0  0  0  0  0
  129.3522  122.0809   62.3877 H   0  0  0  0  0  0  0  0  0  0  0  0
  128.9517  119.6897   61.8152 H   0  0  0  0  0  0  0  0  0  0  0  0
  132.8721  119.4514   60.0176 H   0  0  0  0  0  0  0  0  0  0  0  0
  133.2834  121.8434   60.5871 H   0  0  0  0  0  0  0  0  0  0  0  0
  130.3145  124.6075   60.4146 H   0  0  0  0  0  0  0  0  0  0  0  0
  128.2692  128.4605   64.5629 H   0  0  0  0  0  0  0  0  0  0  0  0
  128.2477  128.7355   67.0307 H   0  0  0  0  0  0  0  0  0  0  0  0
  127.4971  127.9529   69.4240 H   0  0  0  0  0  0  0  0  0  0  0  0
  127.4354  126.1325   69.1956 H   0  0  0  0  0  0  0  0  0  0  0  0
  127.1950  126.9089   71.5693 H   0  0  0  0  0  0  0  0  0  0  0  0
  128.5797  125.7510   71.2105 H   0  0  0  0  0  0  0  0  0  0  0  0
  130.0125  126.5921   76.0243 H   0  0  0  0  0  0  0  0  0  0  0  0
  129.0742  128.7512   76.8736 H   0  0  0  0  0  0  0  0  0  0  0  0
  128.1595  130.3714   75.2002 H   0  0  0  0  0  0  0  0  0  0  0  0
  130.9901  128.5623   71.3694 H   0  0  0  0  0  0  0  0  0  0  0  0
  130.8661  126.7546   71.0697 H   0  0  0  0  0  0  0  0  0  0  0  0
  129.7698  128.9860   69.3225 H   0  0  0  0  0  0  0  0  0  0  0  0
  131.1612  127.8419   68.9857 H   0  0  0  0  0  0  0  0  0  0  0  0
  1  2  1  0
  2  3  2  0
  3  4  1  0
  4  5  1  0
  5  6  1  0
  6  7  1  0
  7  8  1  0
  8  9  1  0
  9 10  2  0
 10 11  1  0
 11 12  1  0
 12 13  2  0
 13 14  1  0
 14 15  2  0
 15 16  1  0
 15 17  1  0
 17 18  2  0
 11 19  1  0
  4 20  2  0
 20 21  1  0
 21 22  2  0
 22 23  1  0
 23 24  1  0
 24 25  1  0
 25 26  1  0
 26 27  1  0
 27 28  2  0
 28 29  1  0
 29 30  2  0
 30 31  1  0
 31 32  2  0
 26 33  1  0
 33 34  1  0
 22  2  1  0
 34 23  1  0
 19  8  2  0
 32 27  1  0
 18 12  1  0
  3 35  1  0
  5 36  1  0
  5 37  1  0
  6 38  1  0
  6 39  1  0
  7 40  1  0
  7 41  1  0
  9 42  1  0
 13 43  1  0
 14 44  1  0
 17 45  1  0
 18 46  1  0
 19 47  1  0
 20 48  1  0
 21 49  1  0
 24 50  1  0
 24 51  1  0
 25 52  1  0
 25 53  1  0
 29 54  1  0
 30 55  1  0
 31 56  1  0
 33 57  1  0
 33 58  1  0
 34 59  1  0
 34 60  1  0
M  CHG  1   6   1
M  END
>  <Binding energies>  (1) 
[-8.58]

>  <Ligand effiencies>  (1) 
[-0.23833333333333334]

>  <Interactions>  (1) 
["V-B:GLU:543:C:9874, H-A:GLU:543:OE2:4910, V-A:GLU:543:C:4902, V-B:HIS:456:CD2:9039, V-B:GLU:543:CB:9878, H-B:LYS:547:NZ:9923, V-B:ALA:541:CB:9864, V-B:TYR:539:CE2:9848, V-A:TYR:484:CE2:4346, V-A:GLY:544:C:4912, V-B:GLU:543:CG:9879, V-A:ASP:366:CG:3213, V-B:TYR:539:CB:9843, V-A:GLU:543:CD:4908, V-A:TYR:484:CZ:4347, V-B:HIS:456:CE1:9041, V-A:HIS:456:CE1:4070, V-B:TYR:539:CD2:9846, V-A:GLU:543:CG:4907, V-A:SER:385:CB:3409, V-B:GLU:543:CD:9880, V-A:LEU:475:CD2:4259, V-A:ARG:545:CZ:4926, H-A:GLU:543:OE1:4909, V-A:GLU:543:CB:4906, V-A:HIS:383:NE2:3394"]

$$$$
ZINC920483968
     RDKit          3D

 57 59  0  0  0  0  0  0  0  0999 V2000
  133.3500  125.0290   63.4880 C   0  0  0  0  0  0  0  0  0  0  0  0
  133.3060  124.8490   61.9730 C   0  0  0  0  0  0  0  0  0  0  0  0
  134.3360  124.1330   61.3510 C   0  0  0  0  0  0  0  0  0  0  0  0
  134.3390  123.9590   59.9690 C   0  0  0  0  0  0  0  0  0  0  0  0
  133.3080  124.5130   59.2080 C   0  0  0  0  0  0  0  0  0  0  0  0
  133.2890  124.3770   57.9450 O   0  0  0  0  0  0  0  0  0  0  0  0
  132.2940  125.2230   59.8540 C   0  0  0  0  0  0  0  0  0  0  0  0
  132.2900  125.3730   61.2120 N   0  0  0  0  0  0  0  0  0  0  0  0
  131.1590  126.1360   61.8700 C   0  0  2  0  0  0  0  0  0  0  0  0
  130.1370  125.2360   62.6470 C   0  0  0  0  0  0  0  0  0  0  0  0
  129.5320  124.3400   62.0520 O   0  0  0  0  0  0  0  0  0  0  0  0
  129.9380  125.4510   64.0950 C   0  0  0  0  0  0  0  0  0  0  0  0
  130.4490  124.5710   64.9860 C   0  0  0  0  0  0  0  0  0  0  0  0
  130.3340  124.7640   66.5020 C   0  0  0  0  0  0  0  0  0  0  0  0
  129.6220  126.0580   66.9730 C   0  0  0  0  0  0  0  0  0  0  0  0
  129.5590  126.2420   68.2430 N   0  0  0  0  0  0  0  0  0  0  0  0
  128.9500  127.3590   68.7910 C   0  0  0  0  0  0  0  0  0  0  0  0
  127.8260  127.7380   68.4520 O   0  0  0  0  0  0  0  0  0  0  0  0
  129.7820  128.0820   69.8740 C   0  0  0  0  0  0  0  0  0  0  0  0
  131.2860  128.0800   69.5260 C   0  0  0  0  0  0  0  0  0  0  0  0
  129.5360  127.5030   71.2840 C   0  0  0  0  0  0  0  0  0  0  0  0
  129.1070  126.9040   65.9000 C   0  0  0  0  0  0  0  0  0  0  0  0
  129.2430  126.6340   64.5860 C   0  0  0  0  0  0  0  0  0  0  0  0
  130.5230  127.1580   60.8900 C   0  0  0  0  0  0  0  0  0  0  0  0
  129.3990  126.7720   59.6980 S   0  0  0  0  0  0  0  0  0  0  0  0
  130.9700  128.4180   61.1860 N   0  0  0  0  0  0  0  0  0  0  0  0
  130.6930  129.6470   60.5690 C   0  0  0  0  0  0  0  0  0  0  0  0
  129.8460  130.5440   61.2250 C   0  0  0  0  0  0  0  0  0  0  0  0
  129.5670  131.7850   60.6530 C   0  0  0  0  0  0  0  0  0  0  0  0
  130.1400  132.1420   59.4310 C   0  0  0  0  0  0  0  0  0  0  0  0
  129.8590  133.3480   58.8880 F   0  0  0  0  0  0  0  0  0  0  0  0
  131.0030  131.2540   58.7800 C   0  0  0  0  0  0  0  0  0  0  0  0
  131.7300  131.6820   57.2730 Cl  0  0  0  0  0  0  0  0  0  0  0  0
  131.2830  130.0110   59.3510 C   0  0  0  0  0  0  0  0  0  0  0  0
  133.1161  124.0723   63.9779 H   0  0  0  0  0  0  0  0  0  0  0  0
  134.3552  125.3590   63.7890 H   0  0  0  0  0  0  0  0  0  0  0  0
  132.6103  125.7855   63.7890 H   0  0  0  0  0  0  0  0  0  0  0  0
  135.1479  123.7052   61.9575 H   0  0  0  0  0  0  0  0  0  0  0  0
  135.1454  123.3909   59.4822 H   0  0  0  0  0  0  0  0  0  0  0  0
  131.4838  125.6696   59.2589 H   0  0  0  0  0  0  0  0  0  0  0  0
  131.6061  126.7315   62.6796 H   0  0  0  0  0  0  0  0  0  0  0  0
  130.9691  123.6791   64.6065 H   0  0  0  0  0  0  0  0  0  0  0  0
  129.7770  123.9070   66.9085 H   0  0  0  0  0  0  0  0  0  0  0  0
  131.3679  124.8456   66.8686 H   0  0  0  0  0  0  0  0  0  0  0  0
  129.4396  129.1272   69.8902 H   0  0  0  0  0  0  0  0  0  0  0  0
  131.8770  128.0792   70.4537 H   0  0  0  0  0  0  0  0  0  0  0  0
  131.5251  127.1815   68.9381 H   0  0  0  0  0  0  0  0  0  0  0  0
  131.5275  128.9778   68.9381 H   0  0  0  0  0  0  0  0  0  0  0  0
  129.8479  128.2372   72.0414 H   0  0  0  0  0  0  0  0  0  0  0  0
  128.4658  127.2809   71.4076 H   0  0  0  0  0  0  0  0  0  0  0  0
  130.1190  126.5784   71.4076 H   0  0  0  0  0  0  0  0  0  0  0  0
  128.5724  127.8229   66.1826 H   0  0  0  0  0  0  0  0  0  0  0  0
  128.8122  127.3346   63.8556 H   0  0  0  0  0  0  0  0  0  0  0  0
  131.5280  128.4970   62.0230 H   0  0  0  0  0  0  0  0  0  0  0  0
  129.3993  130.2714   62.1925 H   0  0  0  0  0  0  0  0  0  0  0  0
  128.8925  132.4856   61.1670 H   0  0  0  0  0  0  0  0  0  0  0  0
  131.9682  129.3159   58.8437 H   0  0  0  0  0  0  0  0  0  0  0  0
  1  2  1  0
  2  3  2  0
  3  4  1  0
  4  5  2  0
  5  6  1  0
  5  7  1  0
  7  8  2  0
  8  9  1  0
  9 10  1  0
 10 11  2  0
 10 12  1  0
 12 13  2  0
 13 14  1  0
 14 15  1  0
 15 16  2  0
 16 17  1  0
 17 18  2  0
 17 19  1  0
 19 20  1  0
 19 21  1  0
 15 22  1  0
 22 23  2  0
  9 24  1  0
 24 25  2  0
 24 26  1  0
 26 27  1  0
 27 28  2  0
 28 29  1  0
 29 30  2  0
 30 31  1  0
 30 32  1  0
 32 33  1  0
 32 34  2  0
  8  2  1  0
 23 12  1  0
 34 27  1  0
  1 35  1  0
  1 36  1  0
  1 37  1  0
  3 38  1  0
  4 39  1  0
  7 40  1  0
  9 41  1  1
 13 42  1  0
 14 43  1  0
 14 44  1  0
 19 45  1  0
 20 46  1  0
 20 47  1  0
 20 48  1  0
 21 49  1  0
 21 50  1  0
 21 51  1  0
 22 52  1  0
 23 53  1  0
 26 54  1  0
 28 55  1  0
 29 56  1  0
 34 57  1  0
M  CHG  2   6  -1   8   1
M  END
>  <Binding energies>  (1) 
[-8.91]

>  <Ligand effiencies>  (1) 
[-0.25457142857142856]

>  <Interactions>  (1) 
["V-A:ILE:369:CG2:3237, V-A:ASP:366:CA:3210, V-A:GLU:543:CA:4904, V-A:ILE:369:CB:3236, V-A:GLU:543:C:4902, V-B:GLU:543:CB:9878, V-B:TYR:539:CE2:9848, V-A:TYR:484:CE2:4346, V-B:GLU:543:CG:9879, V-A:GLY:544:C:4912, V-A:ASP:366:CG:3213, V-A:LEU:363:CD1:3189, H-B:TYR:539:OH:9850, V-A:TYR:539:CA:4869, V-A:GLU:543:CD:4908, V-A:TYR:484:CZ:4347, V-B:HIS:456:CE1:9041, V-A:ARG:545:CG:4922, V-A:ILE:369:CD1:3239, V-A:HIS:456:CE1:4070, V-B:GLU:543:CD:9880, V-A:ILE:369:CG1:3238, V-A:ASP:366:CB:3212, V-A:TYR:539:C:4867, V-A:ARG:545:CZ:4926, H-A:GLU:543:OE1:4909, V-A:GLU:543:CB:4906, V-A:PRO:540:N:4884, V-A:PRO:540:CB:4885, V-A:PRO:540:CA:4883, H-A:ASP:366:OD2:3215, V-A:PRO:540:CD:4887"]

$$$$
ZINC920518927
     RDKit          3D

 46 47  0  0  0  0  0  0  0  0999 V2000
  133.0730  122.7630   59.9700 C   0  0  0  0  0  0  0  0  0  0  0  0
  132.7300  121.4740   60.7410 C   0  0  0  0  0  0  0  0  0  0  0  0
  132.8510  120.2570   59.7940 C   0  0  0  0  0  0  0  0  0  0  0  0
  131.3050  121.5780   61.3270 C   0  0  0  0  0  0  0  0  0  0  0  0
  133.7030  121.4110   61.7920 O   0  0  0  0  0  0  0  0  0  0  0  0
  134.1400  122.6240   62.4080 C   0  0  0  0  0  0  0  0  0  0  0  0
  133.2270  122.9530   63.6010 C   0  0  0  0  0  0  0  0  0  0  0  0
  133.5370  124.2280   64.1510 O   0  0  0  0  0  0  0  0  0  0  0  0
  132.7460  124.7880   65.0950 C   0  0  0  0  0  0  0  0  0  0  0  0
  133.1080  125.5860   65.9600 O   0  0  0  0  0  0  0  0  0  0  0  0
  131.2730  124.3440   64.9980 C   0  0  0  0  0  0  0  0  0  0  0  0
  130.3410  125.4930   65.1740 N   0  0  0  0  0  0  0  0  0  0  0  0
  130.0580  125.9530   66.4240 C   0  0  0  0  0  0  0  0  0  0  0  0
  130.5420  125.4760   67.4530 O   0  0  0  0  0  0  0  0  0  0  0  0
  129.1060  127.0450   66.3520 C   0  0  0  0  0  0  0  0  0  0  0  0
  128.5650  127.6870   67.4160 C   0  0  0  0  0  0  0  0  0  0  0  0
  128.8290  127.5260   68.8600 C   0  0  0  0  0  0  0  0  0  0  0  0
  127.8700  126.9810   69.7210 C   0  0  0  0  0  0  0  0  0  0  0  0
  128.1480  126.8400   71.0780 C   0  0  0  0  0  0  0  0  0  0  0  0
  129.3900  127.2340   71.5720 C   0  0  0  0  0  0  0  0  0  0  0  0
  129.7690  127.0460   73.4280 Br  0  0  0  0  0  0  0  0  0  0  0  0
  130.3570  127.7600   70.7190 C   0  0  0  0  0  0  0  0  0  0  0  0
  130.0780  127.8990   69.3630 C   0  0  0  0  0  0  0  0  0  0  0  0
  128.7010  127.3680   64.6720 S   0  0  0  0  0  0  0  0  0  0  0  0
  129.7400  126.0960   64.1020 C   0  0  0  0  0  0  0  0  0  0  0  0
  129.8560  125.7990   62.4630 S   0  0  0  0  0  0  0  0  0  0  0  0
  133.2881  123.5713   60.6844 H   0  0  0  0  0  0  0  0  0  0  0  0
  133.9558  122.5880   59.3376 H   0  0  0  0  0  0  0  0  0  0  0  0
  132.2200  123.0500   59.3376 H   0  0  0  0  0  0  0  0  0  0  0  0
  132.9425  119.3367   60.3895 H   0  0  0  0  0  0  0  0  0  0  0  0
  131.9545  120.1956   59.1595 H   0  0  0  0  0  0  0  0  0  0  0  0
  133.7420  120.3733   59.1595 H   0  0  0  0  0  0  0  0  0  0  0  0
  131.3592  121.5740   62.4257 H   0  0  0  0  0  0  0  0  0  0  0  0
  130.8358  122.5128   60.9864 H   0  0  0  0  0  0  0  0  0  0  0  0
  130.7050  120.7213   60.9864 H   0  0  0  0  0  0  0  0  0  0  0  0
  135.1749  122.5035   62.7609 H   0  0  0  0  0  0  0  0  0  0  0  0
  134.0946  123.4434   61.6755 H   0  0  0  0  0  0  0  0  0  0  0  0
  132.1805  122.9534   63.2623 H   0  0  0  0  0  0  0  0  0  0  0  0
  133.3831  122.1912   64.3790 H   0  0  0  0  0  0  0  0  0  0  0  0
  131.1006  123.8926   64.0098 H   0  0  0  0  0  0  0  0  0  0  0  0
  131.0791  123.6176   65.8010 H   0  0  0  0  0  0  0  0  0  0  0  0
  127.8109  128.4473   67.1645 H   0  0  0  0  0  0  0  0  0  0  0  0
  126.8942  126.6632   69.3249 H   0  0  0  0  0  0  0  0  0  0  0  0
  127.3911  126.4198   71.7566 H   0  0  0  0  0  0  0  0  0  0  0  0
  131.3369  128.0642   71.1155 H   0  0  0  0  0  0  0  0  0  0  0  0
  130.8434  128.3039   68.6846 H   0  0  0  0  0  0  0  0  0  0  0  0
  1  2  1  0
  2  3  1  0
  2  4  1  0
  2  5  1  0
  5  6  1  0
  6  7  1  0
  7  8  1  0
  8  9  1  0
  9 10  2  0
  9 11  1  0
 11 12  1  0
 12 13  1  0
 13 14  2  0
 13 15  1  0
 15 16  2  0
 16 17  1  0
 17 18  2  0
 18 19  1  0
 19 20  2  0
 20 21  1  0
 20 22  1  0
 22 23  2  0
 15 24  1  0
 24 25  1  0
 25 26  2  0
 25 12  1  0
 23 17  1  0
  1 27  1  0
  1 28  1  0
  1 29  1  0
  3 30  1  0
  3 31  1  0
  3 32  1  0
  4 33  1  0
  4 34  1  0
  4 35  1  0
  6 36  1  0
  6 37  1  0
  7 38  1  0
  7 39  1  0
 11 40  1  0
 11 41  1  0
 16 42  1  0
 18 43  1  0
 19 44  1  0
 22 45  1  0
 23 46  1  0
M  END
>  <Binding energies>  (1) 
[-6.94]

>  <Ligand effiencies>  (1) 
[-0.26692307692307693]

>  <Interactions>  (1) 
["V-A:ILE:369:CG2:3237, V-A:GLY:454:CA:4049, V-B:GLU:543:C:9874, V-A:GLU:543:C:4902, V-B:GLU:543:CB:9878, V-B:TYR:539:CE2:9848, V-B:GLU:543:CG:9879, V-A:HIS:456:CD2:4068, V-A:TYR:484:CZ:4347, V-A:GLU:543:CD:4908, V-B:HIS:456:CE1:9041, H-A:GLY:454:N:4050, V-A:ILE:369:CD1:3239, V-A:HIS:456:CE1:4070, V-B:TYR:539:CD2:9846, V-A:SER:385:CB:3409, H-A:SER:385:OG:3410, V-B:GLU:543:CD:9880, V-A:LEU:475:CD2:4259, H-A:ARG:545:NH2:4928, V-A:ARG:545:CZ:4926, V-A:GLU:543:CB:4906, H-A:ARG:545:NE:4924, H-A:TYR:484:OH:4348"]

$$$$
ZINC920519126
     RDKit          3D

 36 38  0  0  0  0  0  0  0  0999 V2000
  128.8690  125.1150   60.6390 C   0  0  0  0  0  0  0  0  0  0  0  0
  128.8980  123.6820   60.0850 C   0  0  1  0  0  0  0  0  0  0  0  0
  128.6580  122.7760   61.1680 O   0  0  0  0  0  0  0  0  0  0  0  0
  129.6060  121.8870   61.6100 C   0  0  0  0  0  0  0  0  0  0  0  0
  129.4940  120.6680   61.4610 O   0  0  0  0  0  0  0  0  0  0  0  0
  130.7690  122.5110   62.2820 C   0  0  0  0  0  0  0  0  0  0  0  0
  130.7100  122.5520   63.5700 N   0  0  0  0  0  0  0  0  0  0  0  0
  131.7030  123.1840   64.2880 N   0  0  0  0  0  0  0  0  0  0  0  0
  132.8090  123.8320   63.8350 C   0  0  0  0  0  0  0  0  0  0  0  0
  133.6040  124.3800   64.5980 O   0  0  0  0  0  0  0  0  0  0  0  0
  132.9120  123.7650   62.3190 C   0  0  0  0  0  0  0  0  0  0  0  0
  134.0200  124.3620   61.7050 C   0  0  0  0  0  0  0  0  0  0  0  0
  134.1770  124.2870   60.3240 C   0  0  0  0  0  0  0  0  0  0  0  0
  133.2360  123.6110   59.5510 C   0  0  0  0  0  0  0  0  0  0  0  0
  132.1270  123.0200   60.1540 C   0  0  0  0  0  0  0  0  0  0  0  0
  131.9290  123.1030   61.5440 C   0  0  0  0  0  0  0  0  0  0  0  0
  127.8810  123.4820   58.9520 C   0  0  0  0  0  0  0  0  0  0  0  0
  128.3390  123.1870   57.6600 C   0  0  0  0  0  0  0  0  0  0  0  0
  127.4410  123.0090   56.6100 C   0  0  0  0  0  0  0  0  0  0  0  0
  126.0720  123.1220   56.8390 C   0  0  0  0  0  0  0  0  0  0  0  0
  125.6030  123.4130   58.1190 C   0  0  0  0  0  0  0  0  0  0  0  0
  126.4970  123.5930   59.1760 C   0  0  0  0  0  0  0  0  0  0  0  0
  125.7810  123.9880   60.9000 Br  0  0  0  0  0  0  0  0  0  0  0  0
  128.8696  125.0831   61.7385 H   0  0  0  0  0  0  0  0  0  0  0  0
  129.7563  125.6620   60.2875 H   0  0  0  0  0  0  0  0  0  0  0  0
  127.9603  125.6257   60.2875 H   0  0  0  0  0  0  0  0  0  0  0  0
  129.8861  123.4844   59.6439 H   0  0  0  0  0  0  0  0  0  0  0  0
  131.5610  123.1640   65.2880 H   0  0  0  0  0  0  0  0  0  0  0  0
  134.7672  124.8909   62.3149 H   0  0  0  0  0  0  0  0  0  0  0  0
  135.0447  124.7619   59.8428 H   0  0  0  0  0  0  0  0  0  0  0  0
  133.3685  123.5433   58.4611 H   0  0  0  0  0  0  0  0  0  0  0  0
  131.3959  122.4808   59.5337 H   0  0  0  0  0  0  0  0  0  0  0  0
  129.4192  123.0951   57.4735 H   0  0  0  0  0  0  0  0  0  0  0  0
  127.8130  122.7793   55.6006 H   0  0  0  0  0  0  0  0  0  0  0  0
  125.3617  122.9818   56.0109 H   0  0  0  0  0  0  0  0  0  0  0  0
  124.5212  123.5014   58.2974 H   0  0  0  0  0  0  0  0  0  0  0  0
  1  2  1  0
  2  3  1  0
  3  4  1  0
  4  5  2  0
  4  6  1  0
  6  7  2  0
  7  8  1  0
  8  9  1  0
  9 10  2  0
  9 11  1  0
 11 12  2  0
 12 13  1  0
 13 14  2  0
 14 15  1  0
 15 16  2  0
  2 17  1  0
 17 18  2  0
 18 19  1  0
 19 20  2  0
 20 21  1  0
 21 22  2  0
 22 23  1  0
 16  6  1  0
 22 17  1  0
 16 11  1  0
  1 24  1  0
  1 25  1  0
  1 26  1  0
  2 27  1  6
  8 28  1  0
 12 29  1  0
 13 30  1  0
 14 31  1  0
 15 32  1  0
 18 33  1  0
 19 34  1  0
 20 35  1  0
 21 36  1  0
M  END
>  <Binding energies>  (1) 
[-7.38]

>  <Ligand effiencies>  (1) 
[-0.3075]

>  <Interactions>  (1) 
["V-A:ILE:369:CG2:3237, V-A:ASP:366:CA:3210, V-B:PRO:540:CA:9855, V-A:GLY:454:CA:4049, V-A:ILE:369:CB:3236, V-B:ALA:541:CB:9864, V-B:TYR:539:CE2:9848, V-A:ASP:366:CG:3213, V-B:TYR:539:CZ:9849, H-B:ALA:541:N:9863, V-A:TYR:484:CZ:4347, V-B:PRO:540:CB:9857, H-A:GLY:454:N:4050, V-B:PRO:540:N:9856, V-A:ILE:369:CD1:3239, V-B:TYR:539:CD2:9846, V-A:ASP:366:CB:3212, V-A:LEU:475:CD2:4259, V-B:TYR:539:CG:9844, V-B:TYR:539:CD1:9845, V-B:MET:535:CE:9807, V-B:TYR:539:CE1:9847, H-A:TYR:484:OH:4348"]

$$$$
ZINC921086371
     RDKit          3D

 56 58  0  0  0  0  0  0  0  0999 V2000
  125.8210  130.1680   75.5780 C   0  0  0  0  0  0  0  0  0  0  0  0
  126.3160  128.8670   74.9410 C   0  0  0  0  0  0  0  0  0  0  0  0
  127.6060  129.0920   74.3810 O   0  0  0  0  0  0  0  0  0  0  0  0
  127.9850  128.4140   73.2350 C   0  0  0  0  0  0  0  0  0  0  0  0
  127.2520  127.3500   72.6830 C   0  0  0  0  0  0  0  0  0  0  0  0
  127.6900  126.7100   71.5260 C   0  0  0  0  0  0  0  0  0  0  0  0
  128.8690  127.1130   70.8940 C   0  0  0  0  0  0  0  0  0  0  0  0
  129.3730  126.4620   69.6660 C   0  0  0  0  0  0  0  0  0  0  0  0
  129.1910  126.8610   68.3840 C   0  0  0  0  0  0  0  0  0  0  0  0
  128.2490  128.2160   67.7660 S   0  0  0  0  0  0  0  0  0  0  0  0
  128.6270  127.8110   66.1180 C   0  0  0  0  0  0  0  0  0  0  0  0
  128.0100  128.7500   64.8800 S   0  0  0  0  0  0  0  0  0  0  0  0
  129.4320  126.7000   66.0930 N   0  0  0  0  0  0  0  0  0  0  0  0
  129.9000  126.1460   64.8790 C   0  0  0  0  0  0  0  0  0  0  0  0
  129.1490  126.2900   63.7030 C   0  0  0  0  0  0  0  0  0  0  0  0
  129.6210  125.7550   62.5050 C   0  0  0  0  0  0  0  0  0  0  0  0
  130.8390  125.0760   62.4730 C   0  0  0  0  0  0  0  0  0  0  0  0
  131.5850  124.9170   63.6450 C   0  0  0  0  0  0  0  0  0  0  0  0
  133.1690  124.0840   63.6140 S   0  0  0  0  0  0  0  0  0  0  0  0
  134.1830  125.0920   63.9490 O   0  0  0  0  0  0  0  0  0  0  0  0
  133.0540  122.8550   64.4070 O   0  0  0  0  0  0  0  0  0  0  0  0
  133.4020  123.6150   61.9200 N   0  0  0  0  0  0  0  0  0  0  0  0
  132.5530  122.5100   61.4310 C   0  0  0  0  0  0  0  0  0  0  0  0
  133.6120  124.7180   60.9610 C   0  0  0  0  0  0  0  0  0  0  0  0
  131.1140  125.4490   64.8470 C   0  0  0  0  0  0  0  0  0  0  0  0
  129.7760  126.1290   67.2800 C   0  0  0  0  0  0  0  0  0  0  0  0
  130.4890  125.1240   67.3920 O   0  0  0  0  0  0  0  0  0  0  0  0
  129.5940  128.1770   71.4370 C   0  0  0  0  0  0  0  0  0  0  0  0
  129.1660  128.8320   72.6060 C   0  0  0  0  0  0  0  0  0  0  0  0
  129.8480  129.8850   73.1900 O   0  0  0  0  0  0  0  0  0  0  0  0
  129.1960  131.1400   73.3640 C   0  0  0  0  0  0  0  0  0  0  0  0
  130.2520  132.2490   73.3340 C   0  0  0  0  0  0  0  0  0  0  0  0
  125.8559  130.0763   76.6736 H   0  0  0  0  0  0  0  0  0  0  0  0
  126.4651  131.0007   75.2591 H   0  0  0  0  0  0  0  0  0  0  0  0
  124.7863  130.3619   75.2591 H   0  0  0  0  0  0  0  0  0  0  0  0
  126.3777  128.0803   75.7073 H   0  0  0  0  0  0  0  0  0  0  0  0
  125.6175  128.5469   74.1538 H   0  0  0  0  0  0  0  0  0  0  0  0
  126.3227  127.0190   73.1696 H   0  0  0  0  0  0  0  0  0  0  0  0
  127.1026  125.8801   71.1063 H   0  0  0  0  0  0  0  0  0  0  0  0
  129.9652  125.5463   69.8100 H   0  0  0  0  0  0  0  0  0  0  0  0
  128.1880  126.8248   63.7259 H   0  0  0  0  0  0  0  0  0  0  0  0
  129.0316  125.8686   61.5832 H   0  0  0  0  0  0  0  0  0  0  0  0
  131.2134  124.6648   61.5239 H   0  0  0  0  0  0  0  0  0  0  0  0
  132.1330  121.9633   62.2882 H   0  0  0  0  0  0  0  0  0  0  0  0
  131.7346  122.9190   60.8203 H   0  0  0  0  0  0  0  0  0  0  0  0
  133.1590  121.8246   60.8203 H   0  0  0  0  0  0  0  0  0  0  0  0
  133.7901  125.6536   61.5115 H   0  0  0  0  0  0  0  0  0  0  0  0
  134.4835  124.4931   60.3286 H   0  0  0  0  0  0  0  0  0  0  0  0
  132.7189  124.8290   60.3286 H   0  0  0  0  0  0  0  0  0  0  0  0
  131.6977  125.3203   65.7704 H   0  0  0  0  0  0  0  0  0  0  0  0
  130.5177  128.5090   70.9405 H   0  0  0  0  0  0  0  0  0  0  0  0
  128.4713  131.2966   72.5515 H   0  0  0  0  0  0  0  0  0  0  0  0
  128.6626  131.1556   74.3259 H   0  0  0  0  0  0  0  0  0  0  0  0
  130.5188  132.5292   74.3637 H   0  0  0  0  0  0  0  0  0  0  0  0
  131.1482  131.8878   72.8084 H   0  0  0  0  0  0  0  0  0  0  0  0
  129.8474  133.1265   72.8084 H   0  0  0  0  0  0  0  0  0  0  0  0
  1  2  1  0
  2  3  1  0
  3  4  1  0
  4  5  2  0
  5  6  1  0
  6  7  2  0
  7  8  1  0
  8  9  2  0
  9 10  1  0
 10 11  1  0
 11 12  2  0
 11 13  1  0
 13 14  1  0
 14 15  2  0
 15 16  1  0
 16 17  2  0
 17 18  1  0
 18 19  1  0
 19 20  2  0
 19 21  2  0
 19 22  1  0
 22 23  1  0
 22 24  1  0
 18 25  2  0
 13 26  1  0
 26 27  2  0
  7 28  1  0
 28 29  2  0
 29 30  1  0
 30 31  1  0
 31 32  1  0
 29  4  1  0
 26  9  1  0
 25 14  1  0
  1 33  1  0
  1 34  1  0
  1 35  1  0
  2 36  1  0
  2 37  1  0
  5 38  1  0
  6 39  1  0
  8 40  1  0
 15 41  1  0
 16 42  1  0
 17 43  1  0
 23 44  1  0
 23 45  1  0
 23 46  1  0
 24 47  1  0
 24 48  1  0
 24 49  1  0
 25 50  1  0
 28 51  1  0
 31 52  1  0
 31 53  1  0
 32 54  1  0
 32 55  1  0
 32 56  1  0
M  END
>  <Binding energies>  (1) 
[-8.45]

>  <Ligand effiencies>  (1) 
[-0.2640625]

>  <Interactions>  (1) 
["V-A:GLY:454:CA:4049, V-B:HIS:456:CD2:9039, V-B:GLU:543:C:9874, V-A:GLU:543:C:4902, V-B:GLU:543:CB:9878, V-B:HIS:456:CB:9036, H-A:ARG:545:NH1:4927, V-A:GLY:544:CA:4914, V-B:GLU:543:CG:9879, V-A:ASP:366:CG:3213, V-B:LYS:547:CE:9922, V-A:GLU:543:CD:4908, V-B:HIS:456:CE1:9041, H-A:GLY:454:N:4050, V-A:HIS:456:CE1:4070, V-B:GLY:544:C:9884, V-B:GLY:544:CA:9886, V-A:GLU:543:CG:4907, V-B:GLU:543:CD:9880, V-B:HIS:456:CG:9037, V-A:ASP:366:CB:3212, H-A:LYS:547:NZ:4951, H-A:ARG:545:NH2:4928, V-A:LEU:475:CD2:4259, V-A:LYS:547:CE:4950, H-A:ARG:545:NE:4924, H-A:TYR:484:OH:4348"]

$$$$
ZINC930862512
     RDKit          3D

 41 41  0  0  0  0  0  0  0  0999 V2000
  130.3230  128.1010   70.5470 C   0  0  0  0  0  0  0  0  0  0  0  0
  129.4670  126.9510   69.9540 C   0  0  1  0  0  0  0  0  0  0  0  0
  128.0110  127.0000   70.5190 C   0  0  0  0  0  0  0  0  0  0  0  0
  127.8620  126.8700   72.0500 C   0  0  0  0  0  0  0  0  0  0  0  0
  128.3590  125.6280   72.5040 O   0  0  0  0  0  0  0  0  0  0  0  0
  129.5270  127.0060   68.4740 N   0  0  0  0  0  0  0  0  0  0  0  0
  128.5180  127.8550   67.8340 C   0  0  0  0  0  0  0  0  0  0  0  0
  129.5080  125.6770   67.8380 C   0  0  0  0  0  0  0  0  0  0  0  0
  130.6670  125.5210   66.8750 C   0  0  0  0  0  0  0  0  0  0  0  0
  132.0080  125.8160   67.0580 C   0  0  0  0  0  0  0  0  0  0  0  0
  132.6610  125.5150   65.9140 O   0  0  0  0  0  0  0  0  0  0  0  0
  131.6800  125.0500   65.0980 C   0  0  0  0  0  0  0  0  0  0  0  0
  132.0730  124.6100   63.6850 C   0  0  0  0  0  0  0  0  0  0  0  0
  131.6460  123.1460   63.4130 C   0  0  0  0  0  0  0  0  0  0  0  0
  131.3810  125.5290   62.6530 C   0  0  0  0  0  0  0  0  0  0  0  0
  133.6060  124.7180   63.5240 C   0  0  0  0  0  0  0  0  0  0  0  0
  130.4870  125.0440   65.6530 N   0  0  0  0  0  0  0  0  0  0  0  0
  130.2886  128.0548   71.6455 H   0  0  0  0  0  0  0  0  0  0  0  0
  131.3641  127.9955   70.2080 H   0  0  0  0  0  0  0  0  0  0  0  0
  129.9232  129.0681   70.2080 H   0  0  0  0  0  0  0  0  0  0  0  0
  129.8756  125.9767   70.2604 H   0  0  0  0  0  0  0  0  0  0  0  0
  127.5688  127.9620   70.2206 H   0  0  0  0  0  0  0  0  0  0  0  0
  127.5065  126.1163   70.1011 H   0  0  0  0  0  0  0  0  0  0  0  0
  128.4235  127.6814   72.5361 H   0  0  0  0  0  0  0  0  0  0  0  0
  126.7938  126.9339   72.3045 H   0  0  0  0  0  0  0  0  0  0  0  0
  128.3760  125.0170   71.7640 H   0  0  0  0  0  0  0  0  0  0  0  0
  127.9191  128.3589   68.6069 H   0  0  0  0  0  0  0  0  0  0  0  0
  129.0171  128.6088   67.2074 H   0  0  0  0  0  0  0  0  0  0  0  0
  127.8606  127.2344   67.2074 H   0  0  0  0  0  0  0  0  0  0  0  0
  129.5808  124.9040   68.6172 H   0  0  0  0  0  0  0  0  0  0  0  0
  128.5682  125.5699   67.2765 H   0  0  0  0  0  0  0  0  0  0  0  0
  132.4615  126.2236   67.9735 H   0  0  0  0  0  0  0  0  0  0  0  0
  131.4939  122.6247   64.3696 H   0  0  0  0  0  0  0  0  0  0  0  0
  130.7082  123.1384   62.8381 H   0  0  0  0  0  0  0  0  0  0  0  0
  132.4326  122.6354   62.8381 H   0  0  0  0  0  0  0  0  0  0  0  0
  130.8002  126.3003   63.1801 H   0  0  0  0  0  0  0  0  0  0  0  0
  132.1426  126.0107   62.0222 H   0  0  0  0  0  0  0  0  0  0  0  0
  130.7076  124.9302   62.0222 H   0  0  0  0  0  0  0  0  0  0  0  0
  134.0776  124.7512   64.5172 H   0  0  0  0  0  0  0  0  0  0  0  0
  133.9790  123.8439   62.9701 H   0  0  0  0  0  0  0  0  0  0  0  0
  133.8528  125.6358   62.9701 H   0  0  0  0  0  0  0  0  0  0  0  0
  1  2  1  0
  2  3  1  0
  3  4  1  0
  4  5  1  0
  2  6  1  0
  6  7  1  0
  6  8  1  0
  8  9  1  0
  9 10  2  0
 10 11  1  0
 11 12  1  0
 12 13  1  0
 13 14  1  0
 13 15  1  0
 13 16  1  0
 12 17  2  0
 17  9  1  0
  1 18  1  0
  1 19  1  0
  1 20  1  0
  2 21  1  1
  3 22  1  0
  3 23  1  0
  4 24  1  0
  4 25  1  0
  5 26  1  0
  7 27  1  0
  7 28  1  0
  7 29  1  0
  8 30  1  0
  8 31  1  0
 10 32  1  0
 14 33  1  0
 14 34  1  0
 14 35  1  0
 15 36  1  0
 15 37  1  0
 15 38  1  0
 16 39  1  0
 16 40  1  0
 16 41  1  0
M  END
>  <Binding energies>  (1) 
[-4.9]

>  <Ligand effiencies>  (1) 
[-0.27222222222222225]

>  <Interactions>  (1) 
["V-B:GLU:543:C:9874, H-B:GLU:543:O:9875, V-A:GLU:543:C:4902, V-B:GLU:543:CB:9878, H-B:LYS:547:NZ:9923, V-B:GLU:543:CG:9879, V-A:GLY:544:C:4912, V-A:GLU:543:CD:4908, V-A:TYR:484:CZ:4347, V-A:ARG:545:CG:4922, V-B:HIS:456:CE1:9041, V-B:GLU:543:CA:9876, V-A:HIS:456:CE1:4070, V-B:GLY:544:C:9884, V-A:LEU:475:CD2:4259, H-A:ARG:545:NH2:4928, V-A:ARG:545:CZ:4926, V-A:GLU:543:CB:4906, H-A:ARG:545:NE:4924, H-A:HIS:456:NE2:4071, H-A:TYR:484:OH:4348"]

$$$$
ZINC932386447
     RDKit          3D

 37 39  0  0  0  0  0  0  0  0999 V2000
  129.2180  128.5910   61.3100 C   0  0  0  0  0  0  0  0  0  0  0  0
  130.4530  128.9330   60.4540 C   0  0  1  0  0  0  0  0  0  0  0  0
  131.2930  129.8420   61.2420 N   0  0  0  0  0  0  0  0  0  0  0  0
  131.2360  131.2540   60.8500 C   0  0  2  0  0  0  0  0  0  0  0  0
  131.4280  131.4710   59.3470 C   0  0  0  0  0  0  0  0  0  0  0  0
  132.3780  130.7520   58.6080 C   0  0  0  0  0  0  0  0  0  0  0  0
  132.4730  130.9820   57.2350 C   0  0  0  0  0  0  0  0  0  0  0  0
  131.6330  131.9220   56.6360 C   0  0  0  0  0  0  0  0  0  0  0  0
  130.7220  132.6090   57.4400 C   0  0  0  0  0  0  0  0  0  0  0  0
  130.6130  132.4000   58.7760 N   0  0  0  0  0  0  0  0  0  0  0  0
  132.3310  131.9930   61.6450 C   0  0  0  0  0  0  0  0  0  0  0  0
  133.2290  131.2220   62.5790 C   0  0  0  0  0  0  0  0  0  0  0  0
  133.7840  131.7990   61.2890 C   0  0  0  0  0  0  0  0  0  0  0  0
  131.1880  127.6640   60.0140 C   0  0  0  0  0  0  0  0  0  0  0  0
  131.4190  127.5370   58.6790 N   0  0  0  0  0  0  0  0  0  0  0  0
  132.1300  126.4440   58.2940 C   0  0  0  0  0  0  0  0  0  0  0  0
  132.5960  125.4970   59.2080 C   0  0  0  0  0  0  0  0  0  0  0  0
  133.6070  123.9870   58.6440 Br  0  0  0  0  0  0  0  0  0  0  0  0
  132.2920  125.7080   60.5550 C   0  0  0  0  0  0  0  0  0  0  0  0
  131.5850  126.7880   60.9810 N   0  0  0  0  0  0  0  0  0  0  0  0
  129.4793  128.6634   62.3761 H   0  0  0  0  0  0  0  0  0  0  0  0
  128.4069  129.2983   61.0825 H   0  0  0  0  0  0  0  0  0  0  0  0
  128.8863  127.5672   61.0825 H   0  0  0  0  0  0  0  0  0  0  0  0
  130.1613  129.4338   59.5190 H   0  0  0  0  0  0  0  0  0  0  0  0
  131.0450  129.7620   62.2180 H   0  0  0  0  0  0  0  0  0  0  0  0
  130.2337  131.6457   61.0781 H   0  0  0  0  0  0  0  0  0  0  0  0
  133.0356  130.0209   59.1009 H   0  0  0  0  0  0  0  0  0  0  0  0
  133.2043  130.4267   56.6294 H   0  0  0  0  0  0  0  0  0  0  0  0
  131.6877  132.1170   55.5548 H   0  0  0  0  0  0  0  0  0  0  0  0
  130.0629  133.3533   56.9692 H   0  0  0  0  0  0  0  0  0  0  0  0
  131.6693  132.8657   61.7480 H   0  0  0  0  0  0  0  0  0  0  0  0
  133.5201  131.6567   63.5466 H   0  0  0  0  0  0  0  0  0  0  0  0
  133.2021  130.2223   63.0371 H   0  0  0  0  0  0  0  0  0  0  0  0
  134.4775  132.6523   61.3209 H   0  0  0  0  0  0  0  0  0  0  0  0
  134.3265  131.3917   60.4231 H   0  0  0  0  0  0  0  0  0  0  0  0
  132.3457  126.3007   57.2249 H   0  0  0  0  0  0  0  0  0  0  0  0
  132.6372  124.9737   61.2977 H   0  0  0  0  0  0  0  0  0  0  0  0
  1  2  1  0
  2  3  1  0
  3  4  1  0
  4  5  1  0
  5  6  2  0
  6  7  1  0
  7  8  2  0
  8  9  1  0
  9 10  2  0
  4 11  1  0
 11 12  1  0
 12 13  1  0
  2 14  1  0
 14 15  2  0
 15 16  1  0
 16 17  2  0
 17 18  1  0
 17 19  1  0
 19 20  2  0
 10  5  1  0
 13 11  1  0
 20 14  1  0
  1 21  1  0
  1 22  1  0
  1 23  1  0
  2 24  1  6
  3 25  1  0
  4 26  1  1
  6 27  1  0
  7 28  1  0
  8 29  1  0
  9 30  1  0
 11 31  1  0
 12 32  1  0
 12 33  1  0
 13 34  1  0
 13 35  1  0
 16 36  1  0
 19 37  1  0
M  END
>  <Binding energies>  (1) 
[-5.78]

>  <Ligand effiencies>  (1) 
[-0.2752380952380952]

>  <Interactions>  (1) 
["V-A:ILE:369:CG2:3237, V-A:ASP:366:CA:3210, V-A:ILE:369:CB:3236, V-A:PRO:540:C:4881, H-A:TYR:531:OH:4795, V-B:TYR:539:CE2:9848, V-A:ASP:366:CG:3213, V-A:ASN:362:CB:3176, V-A:LEU:363:CD1:3189, V-B:TYR:539:CZ:9849, V-A:TYR:531:CE2:4793, V-A:GLU:543:CD:4908, V-A:ASN:362:CG:3177, V-A:TYR:531:CZ:4794, V-A:ASP:366:CB:3212, H-A:ARG:545:NH2:4928, V-A:ASN:362:C:3172, H-A:GLU:543:OE1:4909, V-A:PRO:540:N:4884, V-A:PRO:540:CB:4885, V-A:PRO:540:CA:4883, V-A:LEU:363:CA:3185, H-A:ASP:366:OD2:3215"]

$$$$
ZINC9421830
     RDKit          3D

 27 29  0  0  0  0  0  0  0  0999 V2000
  129.6300  124.9190   61.6250 O   0  0  0  0  0  0  0  0  0  0  0  0
  130.7090  124.9700   62.2250 C   0  0  0  0  0  0  0  0  0  0  0  0
  130.8250  125.2730   63.6870 C   0  0  0  0  0  0  0  0  0  0  0  0
  129.6900  125.4770   64.4040 C   0  0  0  0  0  0  0  0  0  0  0  0
  129.5170  125.8360   65.8080 C   0  0  0  0  0  0  0  0  0  0  0  0
  129.0720  127.0440   66.3480 C   0  0  0  0  0  0  0  0  0  0  0  0
  129.0440  127.0480   67.7460 C   0  0  0  0  0  0  0  0  0  0  0  0
  129.4800  125.8510   68.2900 C   0  0  0  0  0  0  0  0  0  0  0  0
  129.9350  124.7100   67.0670 S   0  0  0  0  0  0  0  0  0  0  0  0
  132.0910  125.5080   64.2270 N   0  0  0  0  0  0  0  0  0  0  0  0
  133.3050  124.5640   63.9210 S   0  0  0  0  0  0  0  0  0  0  0  0
  133.0780  123.1540   64.2580 O   0  0  0  0  0  0  0  0  0  0  0  0
  134.6090  125.1010   64.3280 O   0  0  0  0  0  0  0  0  0  0  0  0
  133.2390  124.6570   62.1350 C   0  0  0  0  0  0  0  0  0  0  0  0
  134.3900  124.3170   61.4150 C   0  0  0  0  0  0  0  0  0  0  0  0
  134.3490  124.1910   60.0300 C   0  0  0  0  0  0  0  0  0  0  0  0
  133.1410  124.3470   59.3580 C   0  0  0  0  0  0  0  0  0  0  0  0
  131.9750  124.6080   60.0760 C   0  0  0  0  0  0  0  0  0  0  0  0
  131.9990  124.7480   61.4750 C   0  0  0  0  0  0  0  0  0  0  0  0
  128.7549  125.3522   63.8383 H   0  0  0  0  0  0  0  0  0  0  0  0
  128.7731  127.9069   65.7347 H   0  0  0  0  0  0  0  0  0  0  0  0
  128.7123  127.9071   68.3476 H   0  0  0  0  0  0  0  0  0  0  0  0
  129.5314  125.6486   69.3700 H   0  0  0  0  0  0  0  0  0  0  0  0
  135.3364  124.1477   61.9494 H   0  0  0  0  0  0  0  0  0  0  0  0
  135.2684  123.9688   59.4684 H   0  0  0  0  0  0  0  0  0  0  0  0
  133.1059  124.2645   58.2617 H   0  0  0  0  0  0  0  0  0  0  0  0
  131.0200  124.7061   59.5391 H   0  0  0  0  0  0  0  0  0  0  0  0
  1  2  2  0
  2  3  1  0
  3  4  2  0
  4  5  1  0
  5  6  2  0
  6  7  1  0
  7  8  2  0
  8  9  1  0
  3 10  1  0
 10 11  1  0
 11 12  2  0
 11 13  2  0
 11 14  1  0
 14 15  2  0
 15 16  1  0
 16 17  2  0
 17 18  1  0
 18 19  2  0
 19  2  1  0
  9  5  1  0
 19 14  1  0
  4 20  1  0
  6 21  1  0
  7 22  1  0
  8 23  1  0
 15 24  1  0
 16 25  1  0
 17 26  1  0
 18 27  1  0
M  CHG  1  10  -1
M  END
>  <Binding energies>  (1) 
[-5.58]

>  <Ligand effiencies>  (1) 
[-0.29368421052631577]

>  <Interactions>  (1) 
["V-A:ILE:369:CG2:3237, V-A:ASP:366:CA:3210, V-B:GLU:543:C:9874, V-A:ILE:369:CB:3236, V-B:GLU:543:CB:9878, H-A:ARG:545:NH1:4927, V-B:TYR:539:CE2:9848, V-A:TYR:484:CE2:4346, V-B:GLU:543:CG:9879, V-A:ASP:366:CG:3213, V-A:GLU:543:CD:4908, V-A:TYR:484:CZ:4347, V-B:GLU:543:CA:9876, H-A:GLY:454:N:4050, V-A:ILE:369:CD1:3239, V-A:HIS:456:CE1:4070, V-B:GLU:543:CD:9880, V-A:ASP:366:CB:3212, H-A:ARG:545:NH2:4928, V-A:ARG:545:CZ:4926, H-A:ARG:545:NE:4924, H-A:TYR:484:OH:4348"]

$$$$
ZINC9477112
     RDKit          3D

 43 45  0  0  0  0  0  0  0  0999 V2000
  130.1780  124.8080   66.7330 C   0  0  0  0  0  0  0  0  0  0  0  0
  129.6330  126.1840   66.3400 C   0  0  0  0  0  0  0  0  0  0  0  0
  129.1060  127.0290   67.2660 C   0  0  0  0  0  0  0  0  0  0  0  0
  129.1030  126.6640   68.6510 C   0  0  0  0  0  0  0  0  0  0  0  0
  129.0950  126.3860   69.7750 N   0  0  0  0  0  0  0  0  0  0  0  0
  128.5530  128.3320   66.9010 C   0  0  0  0  0  0  0  0  0  0  0  0
  128.2780  129.1520   67.7830 O   0  0  0  0  0  0  0  0  0  0  0  0
  128.3580  128.5420   65.5490 N   0  0  0  0  0  0  0  0  0  0  0  0
  127.6440  129.8160   65.1990 C   0  0  2  0  0  0  0  0  0  0  0  0
  126.1880  129.5930   64.6640 C   0  0  0  0  0  0  0  0  0  0  0  0
  126.0080  130.1440   63.2420 C   0  0  0  0  0  0  0  0  0  0  0  0
  127.1780  131.5970   63.1730 S   0  0  0  0  0  0  0  0  0  0  0  0
  127.7040  131.7730   61.8150 O   0  0  0  0  0  0  0  0  0  0  0  0
  126.5850  132.7280   63.8940 O   0  0  0  0  0  0  0  0  0  0  0  0
  128.4510  130.7670   64.2680 C   0  0  0  0  0  0  0  0  0  0  0  0
  128.6920  127.6680   64.5310 C   0  0  0  0  0  0  0  0  0  0  0  0
  128.2450  127.7640   63.3830 O   0  0  0  0  0  0  0  0  0  0  0  0
  129.6120  126.5920   64.9280 C   0  0  0  0  0  0  0  0  0  0  0  0
  130.4250  126.0200   63.9990 C   0  0  0  0  0  0  0  0  0  0  0  0
  130.5680  126.2720   62.6450 N   0  0  0  0  0  0  0  0  0  0  0  0
  131.4800  125.6910   61.7500 C   0  0  0  0  0  0  0  0  0  0  0  0
  132.3540  124.7170   62.2430 C   0  0  0  0  0  0  0  0  0  0  0  0
  133.2800  124.1030   61.3990 C   0  0  0  0  0  0  0  0  0  0  0  0
  134.3570  122.9070   62.0230 Cl  0  0  0  0  0  0  0  0  0  0  0  0
  133.3350  124.4540   60.0510 C   0  0  0  0  0  0  0  0  0  0  0  0
  132.4610  125.4170   59.5460 C   0  0  0  0  0  0  0  0  0  0  0  0
  132.5220  125.8450   57.8750 Cl  0  0  0  0  0  0  0  0  0  0  0  0
  131.5370  126.0340   60.3900 C   0  0  0  0  0  0  0  0  0  0  0  0
  130.2105  124.7260   67.8295 H   0  0  0  0  0  0  0  0  0  0  0  0
  129.5225  124.0240   66.3259 H   0  0  0  0  0  0  0  0  0  0  0  0
  131.1925  124.6855   66.3259 H   0  0  0  0  0  0  0  0  0  0  0  0
  127.5554  130.3349   66.1648 H   0  0  0  0  0  0  0  0  0  0  0  0
  125.9734  128.5142   64.6568 H   0  0  0  0  0  0  0  0  0  0  0  0
  125.4955  130.1315   65.3277 H   0  0  0  0  0  0  0  0  0  0  0  0
  126.2793  129.3869   62.4915 H   0  0  0  0  0  0  0  0  0  0  0  0
  124.9673  130.4263   63.0247 H   0  0  0  0  0  0  0  0  0  0  0  0
  129.1658  130.1936   63.6595 H   0  0  0  0  0  0  0  0  0  0  0  0
  129.0350  131.5010   64.8426 H   0  0  0  0  0  0  0  0  0  0  0  0
  131.0775  125.2247   64.3885 H   0  0  0  0  0  0  0  0  0  0  0  0
  129.7870  126.7130   62.1800 H   0  0  0  0  0  0  0  0  0  0  0  0
  132.3111  124.4326   63.3047 H   0  0  0  0  0  0  0  0  0  0  0  0
  134.0669  123.9721   59.3861 H   0  0  0  0  0  0  0  0  0  0  0  0
  130.8498  126.7929   59.9877 H   0  0  0  0  0  0  0  0  0  0  0  0
  1  2  1  0
  2  3  2  0
  3  4  1  0
  4  5  3  0
  3  6  1  0
  6  7  2  0
  6  8  1  0
  8  9  1  0
  9 10  1  0
 10 11  1  0
 11 12  1  0
 12 13  2  0
 12 14  2  0
 12 15  1  0
  8 16  1  0
 16 17  2  0
 16 18  1  0
 18 19  2  0
 19 20  1  0
 20 21  1  0
 21 22  2  0
 22 23  1  0
 23 24  1  0
 23 25  2  0
 25 26  1  0
 26 27  1  0
 26 28  2  0
 18  2  1  0
 28 21  1  0
 15  9  1  0
  1 29  1  0
  1 30  1  0
  1 31  1  0
  9 32  1  1
 10 33  1  0
 10 34  1  0
 11 35  1  0
 11 36  1  0
 15 37  1  0
 15 38  1  0
 19 39  1  0
 20 40  1  0
 22 41  1  0
 25 42  1  0
 28 43  1  0
M  END
>  <Binding energies>  (1) 
[-7.5]

>  <Ligand effiencies>  (1) 
[-0.25862068965517243]

>  <Interactions>  (1) 
["V-A:ASP:366:CA:3210, V-A:HIS:456:CE1:4070, V-A:ILE:369:CD1:3239, V-A:GLY:454:CA:4049, V-B:GLU:543:CB:9878, V-A:GLU:543:CG:4907, V-B:GLU:543:CD:9880, V-A:GLU:543:CD:4908, V-A:TYR:484:CZ:4347, V-A:TYR:484:CE2:4346, V-A:ASP:366:CB:3212, H-B:TYR:484:OH:9319, V-B:GLU:543:CG:9879, H-A:GLU:543:OE1:4909, V-A:ASP:366:CG:3213, V-A:GLU:543:CB:4906"]

$$$$
ZINC95116737
     RDKit          3D

 50 53  0  0  0  0  0  0  0  0999 V2000
  135.1000  124.7220   62.2850 C   0  0  0  0  0  0  0  0  0  0  0  0
  133.7920  124.2640   62.8990 C   0  0  0  0  0  0  0  0  0  0  0  0
  133.6100  124.4260   64.1910 N   0  0  0  0  0  0  0  0  0  0  0  0
  132.4020  123.9230   64.4400 N   0  0  0  0  0  0  0  0  0  0  0  0
  131.7650  123.4300   63.3330 C   0  0  0  0  0  0  0  0  0  0  0  0
  130.3680  122.8540   63.4150 C   0  0  0  0  0  0  0  0  0  0  0  0
  132.6790  123.6340   62.2980 C   0  0  0  0  0  0  0  0  0  0  0  0
  132.5240  123.2910   60.8850 C   0  0  0  0  0  0  0  0  0  0  0  0
  132.5120  122.1140   60.5210 O   0  0  0  0  0  0  0  0  0  0  0  0
  132.3220  124.3850   59.9260 C   0  0  0  0  0  0  0  0  0  0  0  0
  132.9670  124.6090   58.7700 C   0  0  0  0  0  0  0  0  0  0  0  0
  133.9850  123.9720   58.1300 O   0  0  0  0  0  0  0  0  0  0  0  0
  132.4450  125.7790   58.0910 C   0  0  0  0  0  0  0  0  0  0  0  0
  132.8120  126.2670   57.0200 O   0  0  0  0  0  0  0  0  0  0  0  0
  131.4550  126.2370   58.8910 N   0  0  0  0  0  0  0  0  0  0  0  0
  130.6650  127.4280   58.5730 C   0  0  0  0  0  0  0  0  0  0  0  0
  131.5010  128.7230   58.4970 C   0  0  0  0  0  0  0  0  0  0  0  0
  130.7570  129.9840   58.9840 C   0  0  0  0  0  0  0  0  0  0  0  0
  130.9600  131.1080   58.0820 N   0  0  0  0  0  0  0  0  0  0  0  0
  131.8370  131.1970   57.0300 C   0  0  0  0  0  0  0  0  0  0  0  0
  131.6260  132.4520   56.4800 C   0  0  0  0  0  0  0  0  0  0  0  0
  130.6830  133.1210   57.1210 N   0  0  0  0  0  0  0  0  0  0  0  0
  130.2910  132.3080   58.0730 C   0  0  0  0  0  0  0  0  0  0  0  0
  131.2560  125.4370   60.0850 C   0  0  1  0  0  0  0  0  0  0  0  0
  129.8380  124.9080   60.2640 C   0  0  0  0  0  0  0  0  0  0  0  0
  128.8630  125.2650   61.1990 C   0  0  0  0  0  0  0  0  0  0  0  0
  127.6580  124.5700   61.0730 C   0  0  0  0  0  0  0  0  0  0  0  0
  127.6850  123.6510   60.0400 C   0  0  0  0  0  0  0  0  0  0  0  0
  129.2110  123.6550   59.2230 S   0  0  0  0  0  0  0  0  0  0  0  0
  135.8129  124.9716   63.0847 H   0  0  0  0  0  0  0  0  0  0  0  0
  135.5150  123.9157   61.6624 H   0  0  0  0  0  0  0  0  0  0  0  0
  134.9213  125.6111   61.6624 H   0  0  0  0  0  0  0  0  0  0  0  0
  132.0060  123.9290   65.3680 H   0  0  0  0  0  0  0  0  0  0  0  0
  130.0815  122.7359   64.4704 H   0  0  0  0  0  0  0  0  0  0  0  0
  129.6612  123.5341   62.9171 H   0  0  0  0  0  0  0  0  0  0  0  0
  130.3459  121.8734   62.9171 H   0  0  0  0  0  0  0  0  0  0  0  0
  134.2670  124.4980   57.3780 H   0  0  0  0  0  0  0  0  0  0  0  0
  130.1770  127.2717   57.5996 H   0  0  0  0  0  0  0  0  0  0  0  0
  129.9393  127.5605   59.3890 H   0  0  0  0  0  0  0  0  0  0  0  0
  132.3994  128.5909   59.1178 H   0  0  0  0  0  0  0  0  0  0  0  0
  131.7377  128.8853   57.4351 H   0  0  0  0  0  0  0  0  0  0  0  0
  129.6810  129.7632   59.0426 H   0  0  0  0  0  0  0  0  0  0  0  0
  131.1561  130.2590   59.9715 H   0  0  0  0  0  0  0  0  0  0  0  0
  132.5551  130.4343   56.6944 H   0  0  0  0  0  0  0  0  0  0  0  0
  132.1778  132.8445   55.6131 H   0  0  0  0  0  0  0  0  0  0  0  0
  129.5016  132.5628   58.7955 H   0  0  0  0  0  0  0  0  0  0  0  0
  131.3546  126.0071   61.0205 H   0  0  0  0  0  0  0  0  0  0  0  0
  129.0306  126.0305   61.9709 H   0  0  0  0  0  0  0  0  0  0  0  0
  126.7856  124.7351   61.7224 H   0  0  0  0  0  0  0  0  0  0  0  0
  126.8414  122.9984   59.7709 H   0  0  0  0  0  0  0  0  0  0  0  0
  1  2  1  0
  2  3  2  0
  3  4  1  0
  4  5  1  0
  5  6  1  0
  5  7  2  0
  7  8  1  0
  8  9  2  0
  8 10  1  0
 10 11  2  0
 11 12  1  0
 11 13  1  0
 13 14  2  0
 13 15  1  0
 15 16  1  0
 16 17  1  0
 17 18  1  0
 18 19  1  0
 19 20  1  0
 20 21  2  0
 21 22  1  0
 22 23  2  0
 15 24  1  0
 24 25  1  0
 25 26  2  0
 26 27  1  0
 27 28  2  0
 28 29  1  0
  7  2  1  0
 24 10  1  0
 29 25  1  0
 23 19  1  0
  1 30  1  0
  1 31  1  0
  1 32  1  0
  4 33  1  0
  6 34  1  0
  6 35  1  0
  6 36  1  0
 12 37  1  0
 16 38  1  0
 16 39  1  0
 17 40  1  0
 17 41  1  0
 18 42  1  0
 18 43  1  0
 20 44  1  0
 21 45  1  0
 23 46  1  0
 24 47  1  1
 26 48  1  0
 27 49  1  0
 28 50  1  0
M  END
>  <Binding energies>  (1) 
[-7.52]

>  <Ligand effiencies>  (1) 
[-0.2425806451612903]

>  <Interactions>  (1) 
["V-A:ASP:366:CA:3210, V-B:PRO:540:CA:9855, V-A:ILE:538:CB:4862, H-A:TYR:531:OH:4795, V-B:TYR:539:CE2:9848, V-A:ASP:366:CG:3213, V-A:ILE:538:CG2:4863, V-A:LEU:363:CD1:3189, V-B:TYR:539:CZ:9849, V-A:TYR:531:CE2:4793, H-B:TYR:539:OH:9850, H-A:GLY:454:N:4050, V-A:GLY:453:C:4042, V-A:ILE:369:CD1:3239, V-B:TYR:539:CD2:9846, V-A:ASP:366:CB:3212, V-A:LEU:475:CD2:4259, H-A:ARG:545:NH2:4928, V-A:ARG:545:CZ:4926, H-A:ASP:366:O:3209, V-A:PRO:540:N:4884, H-A:TYR:539:N:4870, V-A:GLY:453:CA:4044, V-A:PRO:540:CA:4883, H-A:TYR:484:OH:4348"]

$$$$
ZINC95116737-again1
     RDKit          3D

 50 53  0  0  0  0  0  0  0  0999 V2000
  131.0350  125.4070   66.8660 C   0  0  0  0  0  0  0  0  0  0  0  0
  130.2670  125.6170   65.5790 C   0  0  0  0  0  0  0  0  0  0  0  0
  129.4250  126.6240   65.5010 N   0  0  0  0  0  0  0  0  0  0  0  0
  128.8800  126.5300   64.2890 N   0  0  0  0  0  0  0  0  0  0  0  0
  129.3480  125.4810   63.5480 C   0  0  0  0  0  0  0  0  0  0  0  0
  128.8610  125.2240   62.1380 C   0  0  0  0  0  0  0  0  0  0  0  0
  130.2750  124.8580   64.3850 C   0  0  0  0  0  0  0  0  0  0  0  0
  131.0780  123.6650   64.0920 C   0  0  0  0  0  0  0  0  0  0  0  0
  130.8000  122.5670   64.6750 O   0  0  0  0  0  0  0  0  0  0  0  0
  132.1180  123.8180   63.1340 C   0  0  0  0  0  0  0  0  0  0  0  0
  133.4230  124.3000   63.3630 C   0  0  0  0  0  0  0  0  0  0  0  0
  133.9770  124.7410   64.4220 O   0  0  0  0  0  0  0  0  0  0  0  0
  134.1600  124.2820   61.9830 C   0  0  0  0  0  0  0  0  0  0  0  0
  135.3070  124.6820   61.7730 O   0  0  0  0  0  0  0  0  0  0  0  0
  133.2750  123.7630   61.1060 N   0  0  0  0  0  0  0  0  0  0  0  0
  133.5360  123.7040   59.6640 C   0  0  0  0  0  0  0  0  0  0  0  0
  133.3770  125.0610   58.9490 C   0  0  0  0  0  0  0  0  0  0  0  0
  131.9120  125.5520   58.8540 C   0  0  0  0  0  0  0  0  0  0  0  0
  131.5690  126.5950   59.8190 N   0  0  0  0  0  0  0  0  0  0  0  0
  130.9870  127.8150   59.4920 C   0  0  0  0  0  0  0  0  0  0  0  0
  130.8150  128.5540   60.6570 C   0  0  0  0  0  0  0  0  0  0  0  0
  131.2980  127.7840   61.6970 N   0  0  0  0  0  0  0  0  0  0  0  0
  131.7620  126.5910   61.1900 C   0  0  0  0  0  0  0  0  0  0  0  0
  131.9720  123.4400   61.6750 C   0  0  1  0  0  0  0  0  0  0  0  0
  131.5230  122.0030   61.4460 C   0  0  0  0  0  0  0  0  0  0  0  0
  132.2550  120.9420   60.9120 C   0  0  0  0  0  0  0  0  0  0  0  0
  131.5490  119.7400   60.8130 C   0  0  0  0  0  0  0  0  0  0  0  0
  130.2510  119.8510   61.2740 C   0  0  0  0  0  0  0  0  0  0  0  0
  129.9080  121.4540   61.8290 S   0  0  0  0  0  0  0  0  0  0  0  0
  130.3703  125.5887   67.7234 H   0  0  0  0  0  0  0  0  0  0  0  0
  131.4096  124.3735   66.9050 H   0  0  0  0  0  0  0  0  0  0  0  0
  131.8833  126.1062   66.9050 H   0  0  0  0  0  0  0  0  0  0  0  0
  128.1920  127.1950   63.9650 H   0  0  0  0  0  0  0  0  0  0  0  0
  127.8887  124.7109   62.1737 H   0  0  0  0  0  0  0  0  0  0  0  0
  128.7510  126.1815   61.6078 H   0  0  0  0  0  0  0  0  0  0  0  0
  129.5894  124.5929   61.6078 H   0  0  0  0  0  0  0  0  0  0  0  0
  134.5663  123.3499   59.5118 H   0  0  0  0  0  0  0  0  0  0  0  0
  132.7895  123.0226   59.2299 H   0  0  0  0  0  0  0  0  0  0  0  0
  133.9594  125.8136   59.5008 H   0  0  0  0  0  0  0  0  0  0  0  0
  133.7349  124.9226   57.9181 H   0  0  0  0  0  0  0  0  0  0  0  0
  131.7457  125.9494   57.8419 H   0  0  0  0  0  0  0  0  0  0  0  0
  131.2718  124.6867   59.0808 H   0  0  0  0  0  0  0  0  0  0  0  0
  130.7087  128.1413   58.4790 H   0  0  0  0  0  0  0  0  0  0  0  0
  130.3776  129.5602   60.7355 H   0  0  0  0  0  0  0  0  0  0  0  0
  131.3110  128.0540   62.6710 H   0  0  0  0  0  0  0  0  0  0  0  0
  132.2098  125.7739   61.7746 H   0  0  0  0  0  0  0  0  0  0  0  0
  131.1593  123.9923   61.1806 H   0  0  0  0  0  0  0  0  0  0  0  0
  133.3033  121.0434   60.5945 H   0  0  0  0  0  0  0  0  0  0  0  0
  131.9784  118.8097   60.4129 H   0  0  0  0  0  0  0  0  0  0  0  0
  129.5262  119.0237   61.2866 H   0  0  0  0  0  0  0  0  0  0  0  0
  1  2  1  0
  2  3  2  0
  3  4  1  0
  4  5  1  0
  5  6  1  0
  5  7  2  0
  7  8  1  0
  8  9  2  0
  8 10  1  0
 10 11  2  0
 11 12  1  0
 11 13  1  0
 13 14  2  0
 13 15  1  0
 15 16  1  0
 16 17  1  0
 17 18  1  0
 18 19  1  0
 19 20  1  0
 20 21  2  0
 21 22  1  0
 22 23  2  0
 15 24  1  0
 24 25  1  0
 25 26  2  0
 26 27  1  0
 27 28  2  0
 28 29  1  0
  7  2  1  0
 24 10  1  0
 29 25  1  0
 23 19  1  0
  1 30  1  0
  1 31  1  0
  1 32  1  0
  4 33  1  0
  6 34  1  0
  6 35  1  0
  6 36  1  0
 16 37  1  0
 16 38  1  0
 17 39  1  0
 17 40  1  0
 18 41  1  0
 18 42  1  0
 20 43  1  0
 21 44  1  0
 22 45  1  0
 23 46  1  0
 24 47  1  6
 26 48  1  0
 27 49  1  0
 28 50  1  0
M  CHG  2  12  -1  22   1
M  END
>  <Binding energies>  (1) 
[-6.85]

>  <Ligand effiencies>  (1) 
[-0.22096774193548385]

>  <Interactions>  (1) 
["V-A:ILE:369:CG2:3237, V-A:ASP:366:CA:3210, H-A:GLU:543:OE2:4910, V-A:ILE:369:CB:3236, V-B:ALA:541:CB:9864, H-A:ARG:545:NH1:4927, V-B:TYR:539:CE2:9848, V-A:TYR:484:CE2:4346, V-B:GLU:543:CG:9879, V-A:ASP:366:CG:3213, H-B:GLU:543:OE1:9881, V-A:GLU:543:CD:4908, V-A:TYR:484:CZ:4347, H-A:GLY:454:N:4050, V-A:ILE:369:CD1:3239, V-A:HIS:456:CE1:4070, V-A:ASP:366:C:3208, V-B:TYR:539:CD2:9846, V-B:GLU:543:CD:9880, V-A:ASP:366:CB:3212, V-A:LEU:475:CD2:4259, H-A:ARG:545:NH2:4928, V-A:ARG:545:CZ:4926, H-A:GLU:543:OE1:4909, H-B:GLU:543:OE2:9882, H-A:ARG:545:NE:4924, H-A:ASP:366:OD2:3215, H-A:TYR:484:OH:4348"]

$$$$
ZINC95201975-again1
     RDKit          3D

 66 69  0  0  0  0  0  0  0  0999 V2000
  129.4880  122.2410   65.0310 C   0  0  0  0  0  0  0  0  0  0  0  0
  130.3660  123.0890   64.1030 C   0  0  0  0  0  0  0  0  0  0  0  0
  131.0470  124.2530   64.8350 C   0  0  0  0  0  0  0  0  0  0  0  0
  131.2050  125.3420   63.9340 O   0  0  0  0  0  0  0  0  0  0  0  0
  130.1550  126.1180   63.5650 C   0  0  0  0  0  0  0  0  0  0  0  0
  129.2200  126.3680   64.3310 O   0  0  0  0  0  0  0  0  0  0  0  0
  130.2340  126.6040   62.1520 C   0  0  0  0  0  0  0  0  0  0  0  0
  131.3350  126.3750   61.3740 C   0  0  0  0  0  0  0  0  0  0  0  0
  132.5580  125.5180   61.7010 C   0  0  0  0  0  0  0  0  0  0  0  0
  131.4180  126.8910   60.1010 N   0  0  0  0  0  0  0  0  0  0  0  0
  130.4410  127.6270   59.4820 C   0  0  0  0  0  0  0  0  0  0  0  0
  130.7090  128.2220   58.3000 C   0  0  0  0  0  0  0  0  0  0  0  0
  129.6630  129.0190   57.5170 C   0  0  2  0  0  0  0  0  0  0  0  0
  129.7920  130.5450   57.6600 C   0  0  0  0  0  0  0  0  0  0  0  0
  128.6580  131.3070   57.9800 C   0  0  0  0  0  0  0  0  0  0  0  0
  128.7350  132.6900   58.1030 C   0  0  0  0  0  0  0  0  0  0  0  0
  129.9510  133.3350   57.9040 C   0  0  0  0  0  0  0  0  0  0  0  0
  131.0870  132.5960   57.5780 C   0  0  0  0  0  0  0  0  0  0  0  0
  131.0240  131.1960   57.4480 C   0  0  0  0  0  0  0  0  0  0  0  0
  132.1200  130.4190   57.1110 O   0  0  0  0  0  0  0  0  0  0  0  0
  133.2500  130.3790   57.9770 C   0  0  0  0  0  0  0  0  0  0  0  0
  128.2270  128.5040   57.8570 C   0  0  0  0  0  0  0  0  0  0  0  0
  128.0960  128.1970   59.3590 C   0  0  0  0  0  0  0  0  0  0  0  0
  126.8840  128.3510   59.7740 O   0  0  0  0  0  0  0  0  0  0  0  0
  129.1330  127.7590   60.1250 C   0  0  0  0  0  0  0  0  0  0  0  0
  129.0480  127.4900   61.6510 C   0  0  2  0  0  0  0  0  0  0  0  0
  128.8370  128.7800   62.4610 C   0  0  0  0  0  0  0  0  0  0  0  0
  128.1230  128.7720   63.6550 C   0  0  0  0  0  0  0  0  0  0  0  0
  127.9220  129.9450   64.3970 C   0  0  0  0  0  0  0  0  0  0  0  0
  127.2140  129.9330   65.5970 O   0  0  0  0  0  0  0  0  0  0  0  0
  127.6170  129.0800   66.6630 C   0  0  0  0  0  0  0  0  0  0  0  0
  128.4590  131.1640   63.9090 C   0  0  0  0  0  0  0  0  0  0  0  0
  128.2650  132.2200   64.6080 O   0  0  0  0  0  0  0  0  0  0  0  0
  129.1830  131.1960   62.6790 C   0  0  0  0  0  0  0  0  0  0  0  0
  129.7750  132.4290   62.0530 N   0  0  0  0  0  0  0  0  0  0  0  0
  130.9900  132.5690   61.9520 O   0  0  0  0  0  0  0  0  0  0  0  0
  129.0100  133.2980   61.6430 O   0  0  0  0  0  0  0  0  0  0  0  0
  129.3540  129.9830   61.9930 C   0  0  0  0  0  0  0  0  0  0  0  0
  129.7295  122.4743   66.0785 H   0  0  0  0  0  0  0  0  0  0  0  0
  128.4284  122.4662   64.8401 H   0  0  0  0  0  0  0  0  0  0  0  0
  129.6763  121.1742   64.8401 H   0  0  0  0  0  0  0  0  0  0  0  0
  131.1433  122.4441   63.6671 H   0  0  0  0  0  0  0  0  0  0  0  0
  129.7137  123.5188   63.3285 H   0  0  0  0  0  0  0  0  0  0  0  0
  130.4251  124.5668   65.6863 H   0  0  0  0  0  0  0  0  0  0  0  0
  132.0323  123.9322   65.2043 H   0  0  0  0  0  0  0  0  0  0  0  0
  132.6697  125.4398   62.7925 H   0  0  0  0  0  0  0  0  0  0  0  0
  132.4268  124.5133   61.2729 H   0  0  0  0  0  0  0  0  0  0  0  0
  133.4576  125.9843   61.2729 H   0  0  0  0  0  0  0  0  0  0  0  0
  132.3000  126.7960   59.6170 H   0  0  0  0  0  0  0  0  0  0  0  0
  131.7223  128.1300   57.8820 H   0  0  0  0  0  0  0  0  0  0  0  0
  129.8595  128.8349   56.4505 H   0  0  0  0  0  0  0  0  0  0  0  0
  127.6931  130.8025   58.1360 H   0  0  0  0  0  0  0  0  0  0  0  0
  127.8368  133.2721   58.3569 H   0  0  0  0  0  0  0  0  0  0  0  0
  130.0163  134.4285   58.0039 H   0  0  0  0  0  0  0  0  0  0  0  0
  132.0448  133.1135   57.4204 H   0  0  0  0  0  0  0  0  0  0  0  0
  132.9107  130.3910   59.0233 H   0  0  0  0  0  0  0  0  0  0  0  0
  133.8242  129.4600   57.7883 H   0  0  0  0  0  0  0  0  0  0  0  0
  133.8878  131.2551   57.7883 H   0  0  0  0  0  0  0  0  0  0  0  0
  127.4929  129.2756   57.5816 H   0  0  0  0  0  0  0  0  0  0  0  0
  128.0420  127.5789   57.2914 H   0  0  0  0  0  0  0  0  0  0  0  0
  128.1419  126.8935   61.8332 H   0  0  0  0  0  0  0  0  0  0  0  0
  127.7065  127.8238   64.0256 H   0  0  0  0  0  0  0  0  0  0  0  0
  127.3890  129.5625   67.6249 H   0  0  0  0  0  0  0  0  0  0  0  0
  127.0746  128.1255   66.5939 H   0  0  0  0  0  0  0  0  0  0  0  0
  128.6988  128.8928   66.5939 H   0  0  0  0  0  0  0  0  0  0  0  0
  129.9187  129.9844   61.0490 H   0  0  0  0  0  0  0  0  0  0  0  0
  1  2  1  0
  2  3  1  0
  3  4  1  0
  4  5  1  0
  5  6  2  0
  5  7  1  0
  7  8  2  0
  8  9  1  0
  8 10  1  0
 10 11  1  0
 11 12  2  0
 12 13  1  0
 13 14  1  0
 14 15  2  0
 15 16  1  0
 16 17  2  0
 17 18  1  0
 18 19  2  0
 19 20  1  0
 20 21  1  0
 13 22  1  0
 22 23  1  0
 23 24  1  0
 23 25  2  0
 25 26  1  0
 26 27  1  0
 27 28  2  0
 28 29  1  0
 29 30  1  0
 30 31  1  0
 29 32  2  0
 32 33  1  0
 32 34  1  0
 34 35  1  0
 35 36  2  0
 35 37  1  0
 34 38  2  0
 26  7  1  0
 38 27  1  0
 25 11  1  0
 19 14  1  0
  1 39  1  0
  1 40  1  0
  1 41  1  0
  2 42  1  0
  2 43  1  0
  3 44  1  0
  3 45  1  0
  9 46  1  0
  9 47  1  0
  9 48  1  0
 10 49  1  0
 12 50  1  0
 13 51  1  6
 15 52  1  0
 16 53  1  0
 17 54  1  0
 18 55  1  0
 21 56  1  0
 21 57  1  0
 21 58  1  0
 22 59  1  0
 22 60  1  0
 26 61  1  6
 28 62  1  0
 31 63  1  0
 31 64  1  0
 31 65  1  0
 38 66  1  0
M  CHG  4  24  -1  33  -1  35   1  37  -1
M  END
>  <Binding energies>  (1) 
[-5.29]

>  <Ligand effiencies>  (1) 
[-0.13564102564102565]

>  <Interactions>  (1) 
["H-A:ALA:541:N:4891, V-A:PRO:540:C:4881, V-B:ALA:541:CB:9864, H-A:TYR:531:OH:4795, V-A:TYR:484:CE2:4346, V-B:GLU:543:CG:9879, V-A:ASP:366:CG:3213, V-A:TYR:539:CD1:4873, V-A:LEU:363:CD1:3189, V-A:TYR:531:CE2:4793, V-A:ALA:541:CB:4892, V-A:TYR:539:CA:4869, V-A:GLU:543:CD:4908, H-B:TYR:484:OH:9319, V-B:HIS:456:CE1:9041, V-B:TYR:484:CZ:9318, V-A:GLU:543:CG:4907, V-A:TYR:539:C:4867, V-A:ASP:366:CB:3212, V-A:LEU:475:CD2:4259, H-A:ASP:366:OD1:3214, V-A:PRO:540:N:4884, V-A:PRO:540:CB:4885, V-A:PRO:540:CA:4883, V-A:LEU:363:CA:3185, H-A:ASP:366:OD2:3215, V-A:PRO:540:CD:4887, V-A:TYR:539:CE1:4875"]

$$$$
ZINC952857628
     RDKit          3D

 71 75  0  0  0  0  0  0  0  0999 V2000
  128.3010  129.2730   63.6840 C   0  0  0  0  0  0  0  0  0  0  0  0
  128.4620  128.9820   62.1850 C   0  0  0  0  0  0  0  0  0  0  0  0
  129.4590  129.9190   61.5030 C   0  0  0  0  0  0  0  0  0  0  0  0
  129.3560  131.2920   61.7560 C   0  0  0  0  0  0  0  0  0  0  0  0
  130.2490  132.1920   61.1760 C   0  0  0  0  0  0  0  0  0  0  0  0
  131.2570  131.7250   60.3370 C   0  0  0  0  0  0  0  0  0  0  0  0
  131.3710  130.3610   60.0770 C   0  0  0  0  0  0  0  0  0  0  0  0
  130.4730  129.4480   60.6450 C   0  0  0  0  0  0  0  0  0  0  0  0
  130.6530  127.9640   60.3330 C   0  0  0  0  0  0  0  0  0  0  0  0
  130.1920  127.5520   58.9170 N   0  0  2  0  0  0  0  0  0  0  0  0
  129.0640  126.5010   58.8800 C   0  0  0  0  0  0  0  0  0  0  0  0
  129.6980  125.1800   58.3870 C   0  0  2  0  0  0  0  0  0  0  0  0
  129.3800  123.8820   59.1950 C   0  0  0  0  0  0  0  0  0  0  0  0
  127.9020  123.4770   59.4040 C   0  0  0  0  0  0  0  0  0  0  0  0
  127.2240  123.0690   58.4650 O   0  0  0  0  0  0  0  0  0  0  0  0
  127.3610  123.5560   60.6320 N   0  0  0  0  0  0  0  0  0  0  0  0
  128.0290  123.9800   61.8590 C   0  0  0  0  0  0  0  0  0  0  0  0
  128.2090  122.8010   62.8400 C   0  0  0  0  0  0  0  0  0  0  0  0
  129.1010  123.1090   63.9710 N   0  0  0  0  0  0  0  0  0  0  0  0
  129.4550  121.9310   64.7710 C   0  0  0  0  0  0  0  0  0  0  0  0
  129.6890  124.3200   64.1960 C   0  0  0  0  0  0  0  0  0  0  0  0
  129.0480  125.3290   64.4980 O   0  0  0  0  0  0  0  0  0  0  0  0
  131.1360  124.3980   64.0910 C   0  0  0  0  0  0  0  0  0  0  0  0
  131.8010  125.0990   65.0500 C   0  0  0  0  0  0  0  0  0  0  0  0
  133.2370  125.2720   64.9730 C   0  0  0  0  0  0  0  0  0  0  0  0
  133.8490  124.7360   63.9040 C   0  0  0  0  0  0  0  0  0  0  0  0
  133.2200  124.0340   62.8990 N   0  0  0  0  0  0  0  0  0  0  0  0
  131.8550  123.8010   62.9430 C   0  0  0  0  0  0  0  0  0  0  0  0
  131.2670  123.1430   62.0770 O   0  0  0  0  0  0  0  0  0  0  0  0
  133.9700  123.5020   61.7470 C   0  0  0  0  0  0  0  0  0  0  0  0
  133.3960  123.9590   60.4180 C   0  0  0  0  0  0  0  0  0  0  0  0
  132.2120  124.6290   60.1460 C   0  0  0  0  0  0  0  0  0  0  0  0
  132.1920  124.8000   58.7850 N   0  0  0  0  0  0  0  0  0  0  0  0
  133.2900  124.2590   58.2440 N   0  0  0  0  0  0  0  0  0  0  0  0
  134.0360  123.7350   59.2840 N   0  0  0  0  0  0  0  0  0  0  0  0
  131.1650  125.4820   57.9800 C   0  0  2  0  0  0  0  0  0  0  0  0
  131.2830  127.0190   57.9660 C   0  0  0  0  0  0  0  0  0  0  0  0
  128.7527  128.4566   64.2666 H   0  0  0  0  0  0  0  0  0  0  0  0
  128.8034  130.2203   63.9297 H   0  0  0  0  0  0  0  0  0  0  0  0
  127.2316  129.3507   63.9297 H   0  0  0  0  0  0  0  0  0  0  0  0
  128.8133  127.9467   62.0638 H   0  0  0  0  0  0  0  0  0  0  0  0
  127.4822  129.1389   61.7102 H   0  0  0  0  0  0  0  0  0  0  0  0
  128.5619  131.6648   62.4196 H   0  0  0  0  0  0  0  0  0  0  0  0
  130.1573  133.2688   61.3809 H   0  0  0  0  0  0  0  0  0  0  0  0
  131.9636  132.4330   59.8793 H   0  0  0  0  0  0  0  0  0  0  0  0
  132.1741  129.9973   59.4192 H   0  0  0  0  0  0  0  0  0  0  0  0
  131.7204  127.7178   60.4331 H   0  0  0  0  0  0  0  0  0  0  0  0
  130.0191  127.4133   61.0436 H   0  0  0  0  0  0  0  0  0  0  0  0
  129.8320  128.3970   58.4950 H   0  0  0  0  0  0  0  0  0  0  0  0
  128.6403  126.3651   59.8860 H   0  0  0  0  0  0  0  0  0  0  0  0
  128.2497  126.8203   58.2129 H   0  0  0  0  0  0  0  0  0  0  0  0
  129.1755  124.8365   57.4820 H   0  0  0  0  0  0  0  0  0  0  0  0
  129.8730  123.0481   58.6740 H   0  0  0  0  0  0  0  0  0  0  0  0
  129.7402  124.1059   60.2099 H   0  0  0  0  0  0  0  0  0  0  0  0
  126.3940  123.2830   60.7320 H   0  0  0  0  0  0  0  0  0  0  0  0
  129.0184  124.3882   61.6050 H   0  0  0  0  0  0  0  0  0  0  0  0
  127.4047  124.7433   62.3465 H   0  0  0  0  0  0  0  0  0  0  0  0
  127.2216  122.5269   63.2399 H   0  0  0  0  0  0  0  0  0  0  0  0
  128.6735  121.9787   62.2760 H   0  0  0  0  0  0  0  0  0  0  0  0
  129.3807  122.1781   65.8403 H   0  0  0  0  0  0  0  0  0  0  0  0
  128.7647  121.1074   64.5362 H   0  0  0  0  0  0  0  0  0  0  0  0
  130.4850  121.6244   64.5362 H   0  0  0  0  0  0  0  0  0  0  0  0
  131.2431  125.5377   65.8904 H   0  0  0  0  0  0  0  0  0  0  0  0
  133.7971  125.8139   65.7493 H   0  0  0  0  0  0  0  0  0  0  0  0
  134.9382  124.8679   63.8247 H   0  0  0  0  0  0  0  0  0  0  0  0
  135.0131  123.8440   61.8169 H   0  0  0  0  0  0  0  0  0  0  0  0
  133.9008  122.4047   61.7812 H   0  0  0  0  0  0  0  0  0  0  0  0
  131.4498  124.9545   60.8693 H   0  0  0  0  0  0  0  0  0  0  0  0
  131.3776  125.0606   56.9864 H   0  0  0  0  0  0  0  0  0  0  0  0
  132.2782  127.3267   58.3193 H   0  0  0  0  0  0  0  0  0  0  0  0
  131.1533  127.4181   56.9492 H   0  0  0  0  0  0  0  0  0  0  0  0
  1  2  1  0
  2  3  1  0
  3  4  2  0
  4  5  1  0
  5  6  2  0
  6  7  1  0
  7  8  2  0
  8  9  1  0
  9 10  1  0
 10 11  1  0
 11 12  1  0
 12 13  1  0
 13 14  1  0
 14 15  2  0
 14 16  1  0
 16 17  1  0
 17 18  1  0
 18 19  1  0
 19 20  1  0
 19 21  1  0
 21 22  2  0
 21 23  1  0
 23 24  2  0
 24 25  1  0
 25 26  2  0
 26 27  1  0
 27 28  1  0
 28 29  2  0
 27 30  1  0
 30 31  1  0
 31 32  2  0
 32 33  1  0
 33 34  1  0
 34 35  2  0
 33 36  1  0
 36 37  1  0
  8  3  1  0
 37 10  1  0
 36 12  1  0
 28 23  1  0
 35 31  1  0
  1 38  1  0
  1 39  1  0
  1 40  1  0
  2 41  1  0
  2 42  1  0
  4 43  1  0
  5 44  1  0
  6 45  1  0
  7 46  1  0
  9 47  1  0
  9 48  1  0
 10 49  1  6
 11 50  1  0
 11 51  1  0
 12 52  1  6
 13 53  1  0
 13 54  1  0
 16 55  1  0
 17 56  1  0
 17 57  1  0
 18 58  1  0
 18 59  1  0
 20 60  1  0
 20 61  1  0
 20 62  1  0
 24 63  1  0
 25 64  1  0
 26 65  1  0
 30 66  1  0
 30 67  1  0
 32 68  1  0
 36 69  1  6
 37 70  1  0
 37 71  1  0
M  CHG  1  10   1
M  END
>  <Binding energies>  (1) 
[-4.14]

>  <Ligand effiencies>  (1) 
[-0.10097560975609755]

>  <Interactions>  (1) 
["V-A:ILE:369:CG2:3237, V-B:PRO:540:CA:9855, V-A:GLY:454:CA:4049, V-A:PRO:540:C:4881, V-B:ALA:541:CB:9864, V-B:TYR:539:CE2:9848, H-A:TYR:531:OH:4795, V-A:TYR:484:CE2:4346, V-B:GLU:543:CG:9879, V-B:TYR:539:CZ:9849, H-B:GLU:543:OE1:9881, H-B:TYR:539:OH:9850, V-A:LEU:475:CD1:4258, V-A:GLU:543:CD:4908, V-A:GLY:453:C:4042, V-A:ILE:369:CD1:3239, V-B:TYR:539:CD2:9846, V-A:TYR:531:CZ:4794, V-B:GLU:543:CD:9880, V-A:ASP:366:CB:3212, V-A:ARG:545:CD:4923, V-A:LEU:475:CD2:4259, V-A:ARG:545:CZ:4926, V-A:PRO:540:CB:4885, V-A:PRO:540:CA:4883, V-A:GLY:453:CA:4044, V-B:ALA:541:CA:9862"]

$$$$
ZINC952862317
     RDKit          3D

 85 89  0  0  0  0  0  0  0  0999 V2000
  126.1100  128.0510   61.1290 O   0  0  0  0  0  0  0  0  0  0  0  0
  127.1710  127.5700   61.5210 C   0  0  0  0  0  0  0  0  0  0  0  0
  128.3920  128.4780   61.7820 C   0  0  0  0  0  0  0  0  0  0  0  0
  128.0490  129.8900   62.0750 N   0  0  0  0  0  0  0  0  0  0  0  0
  128.4820  130.4660   63.3680 C   0  0  0  0  0  0  0  0  0  0  0  0
  128.7400  131.9870   63.3380 C   0  0  0  0  0  0  0  0  0  0  0  0
  130.2200  132.3240   63.5690 C   0  0  0  0  0  0  0  0  0  0  0  0
  131.0150  131.8850   62.4880 O   0  0  0  0  0  0  0  0  0  0  0  0
  127.6650  130.7540   61.0880 C   0  0  0  0  0  0  0  0  0  0  0  0
  126.5040  130.8060   60.6720 O   0  0  0  0  0  0  0  0  0  0  0  0
  128.6660  131.7370   60.4370 C   0  0  0  0  0  0  0  0  0  0  0  0
  128.7980  131.5740   58.9050 C   0  0  0  0  0  0  0  0  0  0  0  0
  129.1740  130.1710   58.4440 C   0  0  0  0  0  0  0  0  0  0  0  0
  128.1680  129.2350   58.1960 C   0  0  0  0  0  0  0  0  0  0  0  0
  128.5000  127.9450   57.7940 C   0  0  0  0  0  0  0  0  0  0  0  0
  129.8430  127.5840   57.6290 C   0  0  0  0  0  0  0  0  0  0  0  0
  130.8470  128.5190   57.8890 C   0  0  0  0  0  0  0  0  0  0  0  0
  130.5150  129.8120   58.2900 C   0  0  0  0  0  0  0  0  0  0  0  0
  130.2180  126.3080   57.2580 O   0  0  0  0  0  0  0  0  0  0  0  0
  129.3810  125.2340   57.4830 C   0  0  0  0  0  0  0  0  0  0  0  0
  128.5150  124.8280   56.4670 C   0  0  0  0  0  0  0  0  0  0  0  0
  127.6480  123.7520   56.6670 C   0  0  0  0  0  0  0  0  0  0  0  0
  127.6390  123.0770   57.8880 C   0  0  0  0  0  0  0  0  0  0  0  0
  128.4940  123.4780   58.9190 C   0  0  0  0  0  0  0  0  0  0  0  0
  129.3500  124.5660   58.7140 C   0  0  0  0  0  0  0  0  0  0  0  0
  128.4780  122.7540   60.2590 C   0  0  0  0  0  0  0  0  0  0  0  0
  127.5830  123.4270   61.1400 O   0  0  0  0  0  0  0  0  0  0  0  0
  128.1370  123.9920   62.3230 C   0  0  1  0  0  0  0  0  0  0  0  0
  129.3690  123.1880   62.7950 C   0  0  0  0  0  0  0  0  0  0  0  0
  130.0510  123.8870   63.9960 C   0  0  0  0  0  0  0  0  0  0  0  0
  130.3910  125.2550   63.5570 N   0  0  0  0  0  0  0  0  0  0  0  0
  131.6250  125.5280   63.0510 C   0  0  0  0  0  0  0  0  0  0  0  0
  131.8070  126.3990   62.1970 O   0  0  0  0  0  0  0  0  0  0  0  0
  132.8030  124.6110   63.4460 C   0  0  0  0  0  0  0  0  0  0  0  0
  133.3590  123.7090   62.3160 C   0  0  0  0  0  0  0  0  0  0  0  0
  134.3740  124.4120   61.3890 C   0  0  0  0  0  0  0  0  0  0  0  0
  133.8410  124.6070   60.0460 N   0  0  0  0  0  0  0  0  0  0  0  0
  132.7280  125.3180   59.6800 C   0  0  0  0  0  0  0  0  0  0  0  0
  132.6350  125.1720   58.3030 C   0  0  0  0  0  0  0  0  0  0  0  0
  133.6090  124.4220   57.8190 N   0  0  0  0  0  0  0  0  0  0  0  0
  134.3240  124.0920   58.8680 C   0  0  0  0  0  0  0  0  0  0  0  0
  129.2110  126.0900   63.2590 C   0  0  0  0  0  0  0  0  0  0  0  0
  128.4870  125.4750   62.0320 C   0  0  2  0  0  0  0  0  0  0  0  0
  127.2990  126.2370   61.6410 N   0  0  0  0  0  0  0  0  0  0  0  0
  128.9459  128.0723   62.6414 H   0  0  0  0  0  0  0  0  0  0  0  0
  128.9853  128.4830   60.8557 H   0  0  0  0  0  0  0  0  0  0  0  0
  127.6979  130.2654   64.1130 H   0  0  0  0  0  0  0  0  0  0  0  0
  129.4429  129.9911   63.6153 H   0  0  0  0  0  0  0  0  0  0  0  0
  128.4354  132.3796   62.3566 H   0  0  0  0  0  0  0  0  0  0  0  0
  128.1563  132.4467   64.1491 H   0  0  0  0  0  0  0  0  0  0  0  0
  130.3282  133.4135   63.6756 H   0  0  0  0  0  0  0  0  0  0  0  0
  130.5571  131.8114   64.4820 H   0  0  0  0  0  0  0  0  0  0  0  0
  131.3420  131.0060   62.6860 H   0  0  0  0  0  0  0  0  0  0  0  0
  128.3309  132.7632   60.6485 H   0  0  0  0  0  0  0  0  0  0  0  0
  129.6543  131.5181   60.8677 H   0  0  0  0  0  0  0  0  0  0  0  0
  127.8328  131.8377   58.4479 H   0  0  0  0  0  0  0  0  0  0  0  0
  129.6199  132.2346   58.5919 H   0  0  0  0  0  0  0  0  0  0  0  0
  127.1120  129.5177   58.3186 H   0  0  0  0  0  0  0  0  0  0  0  0
  127.7061  127.2073   57.6054 H   0  0  0  0  0  0  0  0  0  0  0  0
  131.9036  128.2342   57.7770 H   0  0  0  0  0  0  0  0  0  0  0  0
  131.3082  130.5488   58.4849 H   0  0  0  0  0  0  0  0  0  0  0  0
  128.5154  125.3585   55.5034 H   0  0  0  0  0  0  0  0  0  0  0  0
  126.9705  123.4358   55.8601 H   0  0  0  0  0  0  0  0  0  0  0  0
  126.9574  122.2271   58.0399 H   0  0  0  0  0  0  0  0  0  0  0  0
  130.0071  124.9010   59.5301 H   0  0  0  0  0  0  0  0  0  0  0  0
  128.1418  121.7168   60.1136 H   0  0  0  0  0  0  0  0  0  0  0  0
  129.4899  122.7488   60.6904 H   0  0  0  0  0  0  0  0  0  0  0  0
  127.4070  123.9475   63.1446 H   0  0  0  0  0  0  0  0  0  0  0  0
  129.0482  122.1804   63.0982 H   0  0  0  0  0  0  0  0  0  0  0  0
  130.0895  123.1258   61.9662 H   0  0  0  0  0  0  0  0  0  0  0  0
  129.3625  123.9245   64.8531 H   0  0  0  0  0  0  0  0  0  0  0  0
  130.9508  123.3391   64.3124 H   0  0  0  0  0  0  0  0  0  0  0  0
  133.6239  125.2501   63.8034 H   0  0  0  0  0  0  0  0  0  0  0  0
  132.4070  123.9257   64.2099 H   0  0  0  0  0  0  0  0  0  0  0  0
  133.8556  122.8431   62.7782 H   0  0  0  0  0  0  0  0  0  0  0  0
  132.5021  123.4228   61.6884 H   0  0  0  0  0  0  0  0  0  0  0  0
  134.6261  125.3933   61.8173 H   0  0  0  0  0  0  0  0  0  0  0  0
  135.2650  123.7716   61.3120 H   0  0  0  0  0  0  0  0  0  0  0  0
  132.0521  125.8841   60.3378 H   0  0  0  0  0  0  0  0  0  0  0  0
  131.8445  125.6266   57.6878 H   0  0  0  0  0  0  0  0  0  0  0  0
  135.2244  123.4629   58.8098 H   0  0  0  0  0  0  0  0  0  0  0  0
  128.5333  126.1016   64.1254 H   0  0  0  0  0  0  0  0  0  0  0  0
  129.5187  127.1238   63.0430 H   0  0  0  0  0  0  0  0  0  0  0  0
  129.1744  125.5224   61.1745 H   0  0  0  0  0  0  0  0  0  0  0  0
  126.4560  125.6890   61.5390 H   0  0  0  0  0  0  0  0  0  0  0  0
  1  2  2  0
  2  3  1  0
  3  4  1  0
  4  5  1  0
  5  6  1  0
  6  7  1  0
  7  8  1  0
  4  9  1  0
  9 10  2  0
  9 11  1  0
 11 12  1  0
 12 13  1  0
 13 14  2  0
 14 15  1  0
 15 16  2  0
 16 17  1  0
 17 18  2  0
 16 19  1  0
 19 20  1  0
 20 21  2  0
 21 22  1  0
 22 23  2  0
 23 24  1  0
 24 25  2  0
 24 26  1  0
 26 27  1  0
 27 28  1  0
 28 29  1  0
 29 30  1  0
 30 31  1  0
 31 32  1  0
 32 33  2  0
 32 34  1  0
 34 35  1  0
 35 36  1  0
 36 37  1  0
 37 38  1  0
 38 39  2  0
 39 40  1  0
 40 41  2  0
 31 42  1  0
 42 43  1  0
 43 44  1  0
 44  2  1  0
 18 13  1  0
 25 20  1  0
 43 28  1  0
 41 37  1  0
  3 45  1  0
  3 46  1  0
  5 47  1  0
  5 48  1  0
  6 49  1  0
  6 50  1  0
  7 51  1  0
  7 52  1  0
  8 53  1  0
 11 54  1  0
 11 55  1  0
 12 56  1  0
 12 57  1  0
 14 58  1  0
 15 59  1  0
 17 60  1  0
 18 61  1  0
 21 62  1  0
 22 63  1  0
 23 64  1  0
 25 65  1  0
 26 66  1  0
 26 67  1  0
 28 68  1  1
 29 69  1  0
 29 70  1  0
 30 71  1  0
 30 72  1  0
 34 73  1  0
 34 74  1  0
 35 75  1  0
 35 76  1  0
 36 77  1  0
 36 78  1  0
 38 79  1  0
 39 80  1  0
 41 81  1  0
 42 82  1  0
 42 83  1  0
 43 84  1  6
 44 85  1  0
M  END
>  <Binding energies>  (1) 
[-4.75]

>  <Ligand effiencies>  (1) 
[-0.09895833333333333]

>  <Interactions>  (1) 
["V-A:ILE:369:CG2:3237, V-A:ASP:366:CA:3210, V-B:PRO:540:CA:9855, V-A:ALA:541:C:4888, V-A:ILE:369:CB:3236, H-A:ALA:541:N:4891, H-A:TYR:531:OH:4795, V-B:TYR:539:CE2:9848, V-B:GLU:543:CG:9879, V-B:TYR:539:C:9839, V-A:ASP:366:CG:3213, V-B:TYR:539:CZ:9849, H-B:GLU:543:OE1:9881, H-B:TYR:539:OH:9850, V-A:ALA:541:CB:4892, V-A:GLU:543:CD:4908, H-B:ASP:366:OD1:8185, V-B:PRO:540:N:9856, V-A:ILE:369:CD1:3239, V-A:ASP:366:C:3208, V-A:ALA:541:CA:4890, V-B:TYR:539:CD2:9846, V-A:GLU:543:CG:4907, V-A:TYR:531:CZ:4794, V-B:GLU:543:CD:9880, V-A:ASP:366:CB:3212, H-A:ARG:545:NH2:4928, V-A:ARG:545:CZ:4926, H-A:GLU:543:OE1:4909, H-B:ARG:545:NH2:9900, V-B:TYR:539:CE1:9847"]

$$$$
ZINC952865143
     RDKit          3D

 86 91  0  0  0  0  0  0  0  0999 V2000
  128.9230  131.7840   64.2410 C   0  0  0  0  0  0  0  0  0  0  0  0
  128.2190  132.4780   63.0790 C   0  0  0  0  0  0  0  0  0  0  0  0
  126.9550  132.9400   63.2260 C   0  0  0  0  0  0  0  0  0  0  0  0
  126.3240  133.5860   62.0960 C   0  0  0  0  0  0  0  0  0  0  0  0
  127.0100  133.7060   60.9400 C   0  0  0  0  0  0  0  0  0  0  0  0
  128.3730  133.2120   60.7650 C   0  0  0  0  0  0  0  0  0  0  0  0
  128.9340  133.3560   59.6770 O   0  0  0  0  0  0  0  0  0  0  0  0
  128.9290  132.5980   61.8790 N   0  0  0  0  0  0  0  0  0  0  0  0
  130.3140  132.1070   61.6970 C   0  0  0  0  0  0  0  0  0  0  0  0
  130.3970  130.7250   61.0050 C   0  0  0  0  0  0  0  0  0  0  0  0
  130.5670  130.7630   59.4720 C   0  0  0  0  0  0  0  0  0  0  0  0
  131.1210  131.7400   58.9570 O   0  0  0  0  0  0  0  0  0  0  0  0
  129.9750  129.7900   58.7290 N   0  0  0  0  0  0  0  0  0  0  0  0
  128.6070  129.3210   59.0010 C   0  0  0  0  0  0  0  0  0  0  0  0
  128.7400  128.1200   59.9610 C   0  0  0  0  0  0  0  0  0  0  0  0
  129.6060  126.9780   59.3570 C   0  0  1  0  0  0  0  0  0  0  0  0
  129.0030  126.2680   58.2650 O   0  0  0  0  0  0  0  0  0  0  0  0
  127.6840  125.7310   58.3980 C   0  0  0  0  0  0  0  0  0  0  0  0
  127.4930  124.8460   59.6270 C   0  0  0  0  0  0  0  0  0  0  0  0
  126.1990  124.5640   60.0800 C   0  0  0  0  0  0  0  0  0  0  0  0
  126.0040  123.7290   61.1800 C   0  0  0  0  0  0  0  0  0  0  0  0
  127.1010  123.1680   61.8330 C   0  0  0  0  0  0  0  0  0  0  0  0
  128.3960  123.4460   61.3940 C   0  0  0  0  0  0  0  0  0  0  0  0
  128.5890  124.2790   60.2850 C   0  0  0  0  0  0  0  0  0  0  0  0
  129.4600  122.8760   62.0520 O   0  0  0  0  0  0  0  0  0  0  0  0
  130.1560  123.6750   62.9240 C   0  0  0  0  0  0  0  0  0  0  0  0
  129.4940  124.3370   63.9610 C   0  0  0  0  0  0  0  0  0  0  0  0
  130.2020  125.1710   64.8410 C   0  0  0  0  0  0  0  0  0  0  0  0
  129.6330  125.8680   65.8890 O   0  0  0  0  0  0  0  0  0  0  0  0
  129.7820  125.3770   67.2180 C   0  0  0  0  0  0  0  0  0  0  0  0
  129.1590  126.4010   68.1770 C   0  0  0  0  0  0  0  0  0  0  0  0
  129.5000  127.8630   68.0420 C   0  0  0  0  0  0  0  0  0  0  0  0
  128.1100  127.3620   67.6820 C   0  0  0  0  0  0  0  0  0  0  0  0
  131.5770  125.3290   64.6570 C   0  0  0  0  0  0  0  0  0  0  0  0
  132.2500  124.6800   63.6130 C   0  0  0  0  0  0  0  0  0  0  0  0
  131.5310  123.8310   62.7660 C   0  0  0  0  0  0  0  0  0  0  0  0
  133.7260  124.8860   63.3820 C   0  0  0  0  0  0  0  0  0  0  0  0
  134.4750  125.0900   64.3360 O   0  0  0  0  0  0  0  0  0  0  0  0
  134.2070  124.8150   62.1250 N   0  0  0  0  0  0  0  0  0  0  0  0
  133.4980  124.3540   60.9290 C   0  0  0  0  0  0  0  0  0  0  0  0
  132.4440  125.2890   60.2770 C   0  0  0  0  0  0  0  0  0  0  0  0
  132.5110  125.5220   58.7520 C   0  0  0  0  0  0  0  0  0  0  0  0
  133.1690  124.7670   58.0380 O   0  0  0  0  0  0  0  0  0  0  0  0
  131.8610  126.5630   58.1980 N   0  0  0  0  0  0  0  0  0  0  0  0
  130.9630  127.5390   58.8250 C   0  0  1  0  0  0  0  0  0  0  0  0
  130.7910  128.8240   57.9710 C   0  0  0  0  0  0  0  0  0  0  0  0
  128.5297  132.1717   65.1923 H   0  0  0  0  0  0  0  0  0  0  0  0
  128.7429  130.7003   64.1843 H   0  0  0  0  0  0  0  0  0  0  0  0
  130.0040  131.9795   64.1843 H   0  0  0  0  0  0  0  0  0  0  0  0
  126.4211  132.8269   64.1811 H   0  0  0  0  0  0  0  0  0  0  0  0
  125.2981  133.9745   62.1779 H   0  0  0  0  0  0  0  0  0  0  0  0
  126.5188  134.1997   60.0886 H   0  0  0  0  0  0  0  0  0  0  0  0
  130.8635  132.8363   61.0837 H   0  0  0  0  0  0  0  0  0  0  0  0
  130.7491  131.9912   62.7006 H   0  0  0  0  0  0  0  0  0  0  0  0
  131.2561  130.1841   61.4286 H   0  0  0  0  0  0  0  0  0  0  0  0
  129.4306  130.2337   61.1912 H   0  0  0  0  0  0  0  0  0  0  0  0
  128.0173  130.1211   59.4723 H   0  0  0  0  0  0  0  0  0  0  0  0
  128.0923  129.0336   58.0723 H   0  0  0  0  0  0  0  0  0  0  0  0
  129.2083  128.4634   60.8952 H   0  0  0  0  0  0  0  0  0  0  0  0
  127.7317  127.7194   60.1422 H   0  0  0  0  0  0  0  0  0  0  0  0
  129.7328  126.2753   60.1938 H   0  0  0  0  0  0  0  0  0  0  0  0
  126.9745  126.5692   58.4621 H   0  0  0  0  0  0  0  0  0  0  0  0
  127.5103  125.0941   57.5181 H   0  0  0  0  0  0  0  0  0  0  0  0
  125.3314  125.0032   59.5658 H   0  0  0  0  0  0  0  0  0  0  0  0
  124.9847  123.5129   61.5325 H   0  0  0  0  0  0  0  0  0  0  0  0
  126.9451  122.5046   62.6964 H   0  0  0  0  0  0  0  0  0  0  0  0
  129.6086  124.4886   59.9294 H   0  0  0  0  0  0  0  0  0  0  0  0
  128.4096  124.2038   64.0890 H   0  0  0  0  0  0  0  0  0  0  0  0
  129.2666  124.4104   67.3184 H   0  0  0  0  0  0  0  0  0  0  0  0
  130.8466  125.2324   67.4539 H   0  0  0  0  0  0  0  0  0  0  0  0
  129.2093  125.6649   68.9929 H   0  0  0  0  0  0  0  0  0  0  0  0
  129.6477  128.4796   68.9409 H   0  0  0  0  0  0  0  0  0  0  0  0
  130.2811  128.4367   67.5217 H   0  0  0  0  0  0  0  0  0  0  0  0
  127.2507  127.6159   68.3200 H   0  0  0  0  0  0  0  0  0  0  0  0
  127.4659  127.4224   66.7923 H   0  0  0  0  0  0  0  0  0  0  0  0
  132.1427  125.9751   65.3444 H   0  0  0  0  0  0  0  0  0  0  0  0
  132.0549  123.2825   61.9694 H   0  0  0  0  0  0  0  0  0  0  0  0
  135.1900  125.0050   61.9990 H   0  0  0  0  0  0  0  0  0  0  0  0
  134.2591  124.1417   60.1638 H   0  0  0  0  0  0  0  0  0  0  0  0
  132.9086  123.4956   61.2837 H   0  0  0  0  0  0  0  0  0  0  0  0
  131.4531  124.8656   60.4979 H   0  0  0  0  0  0  0  0  0  0  0  0
  132.6551  126.2776   60.7107 H   0  0  0  0  0  0  0  0  0  0  0  0
  131.9430  126.6550   57.1950 H   0  0  0  0  0  0  0  0  0  0  0  0
  131.4941  127.8234   59.7453 H   0  0  0  0  0  0  0  0  0  0  0  0
  131.7776  129.2607   57.7567 H   0  0  0  0  0  0  0  0  0  0  0  0
  130.2945  128.5785   57.0206 H   0  0  0  0  0  0  0  0  0  0  0  0
  1  2  1  0
  2  3  2  0
  3  4  1  0
  4  5  2  0
  5  6  1  0
  6  7  2  0
  6  8  1  0
  8  9  1  0
  9 10  1  0
 10 11  1  0
 11 12  2  0
 11 13  1  0
 13 14  1  0
 14 15  1  0
 15 16  1  0
 16 17  1  0
 17 18  1  0
 18 19  1  0
 19 20  1  0
 20 21  2  0
 21 22  1  0
 22 23  2  0
 23 24  1  0
 23 25  1  0
 25 26  1  0
 26 27  1  0
 27 28  2  0
 28 29  1  0
 29 30  1  0
 30 31  1  0
 31 32  1  0
 32 33  1  0
 28 34  1  0
 34 35  2  0
 35 36  1  0
 35 37  1  0
 37 38  2  0
 37 39  1  0
 39 40  1  0
 40 41  1  0
 41 42  1  0
 42 43  2  0
 42 44  1  0
 44 45  1  0
 45 46  1  0
  8  2  1  0
 46 13  1  0
 45 16  1  0
 24 19  2  0
 36 26  2  0
 33 31  1  0
  1 47  1  0
  1 48  1  0
  1 49  1  0
  3 50  1  0
  4 51  1  0
  5 52  1  0
  9 53  1  0
  9 54  1  0
 10 55  1  0
 10 56  1  0
 14 57  1  0
 14 58  1  0
 15 59  1  0
 15 60  1  0
 16 61  1  1
 18 62  1  0
 18 63  1  0
 20 64  1  0
 21 65  1  0
 22 66  1  0
 24 67  1  0
 27 68  1  0
 30 69  1  0
 30 70  1  0
 31 71  1  0
 32 72  1  0
 32 73  1  0
 33 74  1  0
 33 75  1  0
 34 76  1  0
 36 77  1  0
 39 78  1  0
 40 79  1  0
 40 80  1  0
 41 81  1  0
 41 82  1  0
 44 83  1  0
 45 84  1  1
 46 85  1  0
 46 86  1  0
M  END
>  <Binding energies>  (1) 
[-7.04]

>  <Ligand effiencies>  (1) 
[-0.1408]

>  <Interactions>  (1) 
["V-A:ASP:366:CA:3210, V-B:PRO:540:CA:9855, V-A:PRO:540:C:4881, V-B:GLU:543:CB:9878, H-A:ARG:545:NH1:4927, H-A:TYR:531:OH:4795, V-B:LEU:475:CD2:9230, V-B:GLU:543:CG:9879, V-A:ASP:366:CG:3213, V-A:TYR:539:CD1:4873, H-B:TYR:539:OH:9850, V-A:ALA:541:CB:4892, V-A:GLU:543:CD:4908, V-B:PRO:540:CB:9857, V-B:GLU:543:CA:9876, H-A:GLY:454:N:4050, V-B:HIS:456:CE1:9041, V-A:HIS:456:CE1:4070, V-A:ILE:369:CD1:3239, V-A:GLU:543:CG:4907, V-B:GLU:543:CD:9880, V-A:TYR:539:C:4867, V-A:ASP:366:CB:3212, H-A:ARG:545:NH2:4928, V-A:ARG:545:CZ:4926, V-A:GLU:543:CB:4906, H-A:ASP:366:OD1:3214, V-A:PRO:540:CA:4883, H-A:ARG:545:NE:4924, V-B:PRO:540:C:9853, V-A:TYR:539:CE1:4875"]

$$$$
ZINC952865726-again1
     RDKit          3D

 80 84  0  0  0  0  0  0  0  0999 V2000
  133.9270  125.0280   64.7450 O   0  0  0  0  0  0  0  0  0  0  0  0
  133.2830  125.0020   63.6980 C   0  0  0  0  0  0  0  0  0  0  0  0
  133.9810  124.5110   62.4160 C   0  0  0  0  0  0  0  0  0  0  0  0
  133.3390  123.2200   61.8430 C   0  0  0  0  0  0  0  0  0  0  0  0
  133.7690  122.8850   60.3980 C   0  0  0  0  0  0  0  0  0  0  0  0
  133.3400  123.9170   59.4560 N   0  0  0  0  0  0  0  0  0  0  0  0
  132.4060  124.9040   59.6330 C   0  0  0  0  0  0  0  0  0  0  0  0
  132.3780  125.5940   58.4300 C   0  0  0  0  0  0  0  0  0  0  0  0
  133.2630  125.0590   57.6030 N   0  0  0  0  0  0  0  0  0  0  0  0
  133.8770  123.9920   58.2350 N   0  0  0  0  0  0  0  0  0  0  0  0
  131.5510  126.7990   58.0350 C   0  0  0  0  0  0  0  0  0  0  0  0
  130.1520  126.6980   58.4480 N   0  0  0  0  0  0  0  0  0  0  0  0
  129.5600  127.1680   59.5630 C   0  0  0  0  0  0  0  0  0  0  0  0
  128.3410  127.0500   59.6830 O   0  0  0  0  0  0  0  0  0  0  0  0
  130.4080  127.7880   60.7150 C   0  0  1  0  0  0  0  0  0  0  0  0
  130.6690  129.3080   60.4940 C   0  0  0  0  0  0  0  0  0  0  0  0
  129.4880  130.1430   60.7120 N   0  0  0  0  0  0  0  0  0  0  0  0
  129.8000  131.5420   60.3930 C   0  0  0  0  0  0  0  0  0  0  0  0
  128.7220  132.2340   59.5300 C   0  0  0  0  0  0  0  0  0  0  0  0
  129.2820  133.1710   58.4380 C   0  0  0  0  0  0  0  0  0  0  0  0
  130.2250  132.4690   57.4350 C   0  0  0  0  0  0  0  0  0  0  0  0
  131.7270  132.7670   57.6680 C   0  0  0  0  0  0  0  0  0  0  0  0
  132.4160  131.4170   57.8900 C   0  0  0  0  0  0  0  0  0  0  0  0
  131.5110  130.4030   57.1970 C   0  0  0  0  0  0  0  0  0  0  0  0
  130.1020  130.9330   57.4670 C   0  0  0  0  0  0  0  0  0  0  0  0
  129.0620  129.9920   62.1060 C   0  0  0  0  0  0  0  0  0  0  0  0
  128.6650  128.5360   62.4290 C   0  0  0  0  0  0  0  0  0  0  0  0
  129.7580  127.5970   62.0480 N   0  0  0  0  0  0  0  0  0  0  0  0
  130.0000  126.5450   62.8900 C   0  0  0  0  0  0  0  0  0  0  0  0
  129.3800  126.3830   63.9460 O   0  0  0  0  0  0  0  0  0  0  0  0
  131.0550  125.4520   62.5580 C   0  0  2  0  0  0  0  0  0  0  0  0
  130.4040  124.0510   62.3580 C   0  0  0  0  0  0  0  0  0  0  0  0
  129.2910  124.0130   61.3250 C   0  0  0  0  0  0  0  0  0  0  0  0
  127.9540  124.2240   61.7220 C   0  0  0  0  0  0  0  0  0  0  0  0
  126.9250  124.0880   60.8020 C   0  0  0  0  0  0  0  0  0  0  0  0
  127.2050  123.7220   59.4910 C   0  0  0  0  0  0  0  0  0  0  0  0
  128.5130  123.4780   59.0920 C   0  0  0  0  0  0  0  0  0  0  0  0
  129.5560  123.6040   60.0010 C   0  0  0  0  0  0  0  0  0  0  0  0
  131.9950  125.3940   63.6840 N   0  0  0  0  0  0  0  0  0  0  0  0
  133.9180  125.3031   61.6553 H   0  0  0  0  0  0  0  0  0  0  0  0
  135.0245  124.2775   62.6739 H   0  0  0  0  0  0  0  0  0  0  0  0
  133.6221  122.3774   62.4910 H   0  0  0  0  0  0  0  0  0  0  0  0
  132.2529  123.3925   61.8170 H   0  0  0  0  0  0  0  0  0  0  0  0
  134.8653  122.8022   60.3619 H   0  0  0  0  0  0  0  0  0  0  0  0
  133.2936  121.9361   60.1088 H   0  0  0  0  0  0  0  0  0  0  0  0
  131.8080  125.1055   60.5340 H   0  0  0  0  0  0  0  0  0  0  0  0
  131.9899  127.6927   58.5026 H   0  0  0  0  0  0  0  0  0  0  0  0
  131.5641  126.8586   56.9367 H   0  0  0  0  0  0  0  0  0  0  0  0
  129.5420  126.2740   57.7640 H   0  0  0  0  0  0  0  0  0  0  0  0
  131.3697  127.2542   60.7023 H   0  0  0  0  0  0  0  0  0  0  0  0
  131.4564  129.6305   61.1911 H   0  0  0  0  0  0  0  0  0  0  0  0
  130.9639  129.4349   59.4419 H   0  0  0  0  0  0  0  0  0  0  0  0
  129.9015  132.0995   61.3358 H   0  0  0  0  0  0  0  0  0  0  0  0
  130.7306  131.5396   59.8065 H   0  0  0  0  0  0  0  0  0  0  0  0
  128.1218  131.4539   59.0389 H   0  0  0  0  0  0  0  0  0  0  0  0
  128.1321  132.8645   60.2116 H   0  0  0  0  0  0  0  0  0  0  0  0
  128.4355  133.5959   57.8786 H   0  0  0  0  0  0  0  0  0  0  0  0
  129.8772  133.9405   58.9515 H   0  0  0  0  0  0  0  0  0  0  0  0
  129.8958  132.8809   56.4696 H   0  0  0  0  0  0  0  0  0  0  0  0
  132.1543  133.2702   56.7881 H   0  0  0  0  0  0  0  0  0  0  0  0
  131.8684  133.4299   58.5344 H   0  0  0  0  0  0  0  0  0  0  0  0
  133.4190  131.4143   57.4385 H   0  0  0  0  0  0  0  0  0  0  0  0
  132.5546  131.1906   58.9575 H   0  0  0  0  0  0  0  0  0  0  0  0
  131.7166  130.3671   56.1170 H   0  0  0  0  0  0  0  0  0  0  0  0
  131.6590  129.3770   57.5651 H   0  0  0  0  0  0  0  0  0  0  0  0
  129.4058  130.5871   56.6888 H   0  0  0  0  0  0  0  0  0  0  0  0
  129.7099  130.5756   58.4306 H   0  0  0  0  0  0  0  0  0  0  0  0
  129.8902  130.2900   62.7658 H   0  0  0  0  0  0  0  0  0  0  0  0
  128.1805  130.6303   62.2654 H   0  0  0  0  0  0  0  0  0  0  0  0
  128.4703  128.4453   63.5078 H   0  0  0  0  0  0  0  0  0  0  0  0
  127.7616  128.2795   61.8562 H   0  0  0  0  0  0  0  0  0  0  0  0
  131.5592  125.7129   61.6158 H   0  0  0  0  0  0  0  0  0  0  0  0
  131.1899  123.3494   62.0416 H   0  0  0  0  0  0  0  0  0  0  0  0
  129.9457  123.7797   63.3205 H   0  0  0  0  0  0  0  0  0  0  0  0
  127.7270  124.4969   62.7632 H   0  0  0  0  0  0  0  0  0  0  0  0
  125.8851  124.2702   61.1108 H   0  0  0  0  0  0  0  0  0  0  0  0
  126.3851  123.6248   58.7641 H   0  0  0  0  0  0  0  0  0  0  0  0
  128.7236  123.1841   58.0531 H   0  0  0  0  0  0  0  0  0  0  0  0
  130.5877  123.3850   59.6887 H   0  0  0  0  0  0  0  0  0  0  0  0
  131.5960  125.6970   64.5620 H   0  0  0  0  0  0  0  0  0  0  0  0
  1  2  2  0
  2  3  1  0
  3  4  1  0
  4  5  1  0
  5  6  1  0
  6  7  1  0
  7  8  2  0
  8  9  1  0
  9 10  2  0
  8 11  1  0
 11 12  1  0
 12 13  1  0
 13 14  2  0
 13 15  1  0
 15 16  1  0
 16 17  1  0
 17 18  1  0
 18 19  1  0
 19 20  1  0
 20 21  1  0
 21 22  1  0
 22 23  1  0
 23 24  1  0
 24 25  1  0
 17 26  1  0
 26 27  1  0
 27 28  1  0
 28 29  1  0
 29 30  2  0
 29 31  1  0
 31 32  1  0
 32 33  1  0
 33 34  2  0
 34 35  1  0
 35 36  2  0
 36 37  1  0
 37 38  2  0
 31 39  1  0
 39  2  1  0
 10  6  1  0
 28 15  1  0
 38 33  1  0
 25 21  1  0
  3 40  1  0
  3 41  1  0
  4 42  1  0
  4 43  1  0
  5 44  1  0
  5 45  1  0
  7 46  1  0
 11 47  1  0
 11 48  1  0
 12 49  1  0
 15 50  1  1
 16 51  1  0
 16 52  1  0
 18 53  1  0
 18 54  1  0
 19 55  1  0
 19 56  1  0
 20 57  1  0
 20 58  1  0
 21 59  1  0
 22 60  1  0
 22 61  1  0
 23 62  1  0
 23 63  1  0
 24 64  1  0
 24 65  1  0
 25 66  1  0
 25 67  1  0
 26 68  1  0
 26 69  1  0
 27 70  1  0
 27 71  1  0
 31 72  1  6
 32 73  1  0
 32 74  1  0
 34 75  1  0
 35 76  1  0
 36 77  1  0
 37 78  1  0
 38 79  1  0
 39 80  1  0
M  END
>  <Binding energies>  (1) 
[-6.48]

>  <Ligand effiencies>  (1) 
[-0.15069767441860465]

>  <Interactions>  (1) 
["V-A:ILE:369:CG2:3237, V-B:PRO:540:CA:9855, V-A:PRO:540:CG:4886, H-A:GLU:543:OE2:4910, V-A:ILE:369:CB:3236, H-A:ARG:545:NH1:4927, V-B:TYR:539:CE2:9848, V-A:ASP:366:CG:3213, V-A:TYR:539:CD1:4873, V-A:LEU:363:CD1:3189, V-A:TYR:531:CE2:4793, H-B:TYR:539:OH:9850, V-A:TYR:539:CA:4869, V-A:GLU:543:CD:4908, H-A:GLY:454:N:4050, V-A:ILE:369:CD1:3239, V-B:TYR:539:CD2:9846, V-A:TYR:531:CZ:4794, V-B:GLU:543:CD:9880, V-A:TYR:539:C:4867, V-A:ASP:366:CB:3212, H-A:ARG:545:NH2:4928, V-A:ARG:545:CZ:4926, H-A:GLU:543:OE1:4909, V-A:PRO:540:N:4884, V-A:PRO:540:CB:4885, V-A:PRO:540:CA:4883, H-A:ARG:545:NE:4924, V-A:PRO:540:CD:4887, H-A:TYR:484:OH:4348"]

$$$$
ZINC952893474-again1
     RDKit          3D

 44 46  0  0  0  0  0  0  0  0999 V2000
  130.8900  132.8300   58.0120 C   0  0  0  0  0  0  0  0  0  0  0  0
  131.3240  131.5080   58.6790 C   0  0  2  0  0  0  0  0  0  0  0  0
  131.5070  130.4010   57.6070 C   0  0  0  0  0  0  0  0  0  0  0  0
  131.9950  129.0880   58.2490 N   0  0  0  0  0  0  0  0  0  0  0  0
  131.0620  128.6030   59.3720 C   0  0  0  0  0  0  0  0  0  0  0  0
  130.9260  129.7170   60.4240 C   0  0  0  0  0  0  0  0  0  0  0  0
  130.3760  131.0380   59.8260 C   0  0  1  0  0  0  0  0  0  0  0  0
  130.1500  132.1320   60.9090 C   0  0  0  0  0  0  0  0  0  0  0  0
  128.9640  131.9260   61.7520 N   0  0  0  0  0  0  0  0  0  0  0  0
  128.5190  133.1540   62.4270 C   0  0  0  0  0  0  0  0  0  0  0  0
  127.2990  132.8880   63.3340 C   0  0  0  0  0  0  0  0  0  0  0  0
  127.5680  131.8450   64.2660 O   0  0  0  0  0  0  0  0  0  0  0  0
  127.9780  130.6290   63.6450 C   0  0  0  0  0  0  0  0  0  0  0  0
  128.1300  129.5140   64.6930 C   0  0  0  0  0  0  0  0  0  0  0  0
  127.2900  128.5910   63.8110 N   0  0  0  0  0  0  0  0  0  0  0  0
  126.7960  129.8280   63.0630 C   0  0  0  0  0  0  0  0  0  0  0  0
  129.2010  130.8440   62.7150 C   0  0  0  0  0  0  0  0  0  0  0  0
  130.6470  133.5701   58.7887 H   0  0  0  0  0  0  0  0  0  0  0  0
  131.7101  133.2113   57.3859 H   0  0  0  0  0  0  0  0  0  0  0  0
  130.0034  132.6510   57.3859 H   0  0  0  0  0  0  0  0  0  0  0  0
  132.2905  131.7058   59.1656 H   0  0  0  0  0  0  0  0  0  0  0  0
  130.5437  130.2211   57.1072 H   0  0  0  0  0  0  0  0  0  0  0  0
  132.2606  130.7376   56.8799 H   0  0  0  0  0  0  0  0  0  0  0  0
  132.0690  128.3720   57.5400 H   0  0  0  0  0  0  0  0  0  0  0  0
  132.9210  129.2280   58.6280 H   0  0  0  0  0  0  0  0  0  0  0  0
  130.0723  128.3676   58.9537 H   0  0  0  0  0  0  0  0  0  0  0  0
  131.4800  127.6990   59.8389 H   0  0  0  0  0  0  0  0  0  0  0  0
  130.2399  129.3748   61.2128 H   0  0  0  0  0  0  0  0  0  0  0  0
  131.9304  129.9241   60.8217 H   0  0  0  0  0  0  0  0  0  0  0  0
  129.3780  130.8517   59.4025 H   0  0  0  0  0  0  0  0  0  0  0  0
  131.0348  132.1554   61.5622 H   0  0  0  0  0  0  0  0  0  0  0  0
  129.9864  133.0756   60.3679 H   0  0  0  0  0  0  0  0  0  0  0  0
  129.3438  133.5434   63.0418 H   0  0  0  0  0  0  0  0  0  0  0  0
  128.2261  133.8846   61.6585 H   0  0  0  0  0  0  0  0  0  0  0  0
  127.0545  133.8078   63.8855 H   0  0  0  0  0  0  0  0  0  0  0  0
  126.4543  132.5797   62.7003 H   0  0  0  0  0  0  0  0  0  0  0  0
  129.1654  129.1746   64.8439 H   0  0  0  0  0  0  0  0  0  0  0  0
  127.8557  129.6896   65.7437 H   0  0  0  0  0  0  0  0  0  0  0  0
  127.8590  127.9910   63.2300 H   0  0  0  0  0  0  0  0  0  0  0  0
  126.5640  128.0950   64.3100 H   0  0  0  0  0  0  0  0  0  0  0  0
  126.8125  129.7301   61.9675 H   0  0  0  0  0  0  0  0  0  0  0  0
  125.7619  130.1830   63.1836 H   0  0  0  0  0  0  0  0  0  0  0  0
  130.0767  131.0990   63.3300 H   0  0  0  0  0  0  0  0  0  0  0  0
  129.3731  129.9145   62.1526 H   0  0  0  0  0  0  0  0  0  0  0  0
  1  2  1  0
  2  3  1  0
  3  4  1  0
  4  5  1  0
  5  6  1  0
  6  7  1  0
  7  8  1  0
  8  9  1  0
  9 10  1  0
 10 11  1  0
 11 12  1  0
 12 13  1  0
 13 14  1  0
 14 15  1  0
 15 16  1  0
 13 17  1  0
  7  2  1  0
 17  9  1  0
 16 13  1  0
  1 18  1  0
  1 19  1  0
  1 20  1  0
  2 21  1  1
  3 22  1  0
  3 23  1  0
  4 24  1  0
  4 25  1  0
  5 26  1  0
  5 27  1  0
  6 28  1  0
  6 29  1  0
  7 30  1  6
  8 31  1  0
  8 32  1  0
 10 33  1  0
 10 34  1  0
 11 35  1  0
 11 36  1  0
 14 37  1  0
 14 38  1  0
 15 39  1  0
 15 40  1  0
 16 41  1  0
 16 42  1  0
 17 43  1  0
 17 44  1  0
M  CHG  2   4   1  15   1
M  END
>  <Binding energies>  (1) 
[-7.0]

>  <Ligand effiencies>  (1) 
[-0.3333333333333333]

>  <Interactions>  (1) 
["V-A:PRO:540:N:4884, H-B:GLU:543:OE2:9882, V-A:PRO:540:CA:4883, H-B:GLU:543:OE1:9881, V-A:PRO:540:CB:4885, V-A:ALA:541:CB:4892, V-A:TYR:531:CZ:4794, V-A:GLU:543:CG:4907, V-B:GLU:543:CD:9880, V-B:LEU:475:CD2:9230, H-A:TYR:531:OH:4795, H-A:ASP:366:OD2:3215, V-A:ASP:366:CB:3212, V-A:TYR:539:C:4867, H-B:TYR:484:OH:9319, V-A:PRO:540:CD:4887, V-A:GLU:543:CD:4908, V-A:ASP:366:CG:3213"]

$$$$
ZINC952991698
     RDKit          3D

 43 44  0  0  0  0  0  0  0  0999 V2000
  130.8340  125.8690   63.5300 C   0  0  0  0  0  0  0  0  0  0  0  0
  131.0340  124.9660   64.7720 C   0  0  0  0  0  0  0  0  0  0  0  0
  132.2500  125.4290   65.6090 C   0  0  0  0  0  0  0  0  0  0  0  0
  131.2520  123.5110   64.3080 C   0  0  0  0  0  0  0  0  0  0  0  0
  129.8390  124.9060   65.5720 O   0  0  0  0  0  0  0  0  0  0  0  0
  129.7270  125.3390   66.8600 C   0  0  0  0  0  0  0  0  0  0  0  0
  130.1330  124.7370   67.8540 O   0  0  0  0  0  0  0  0  0  0  0  0
  129.1280  126.5900   66.8800 N   0  0  0  0  0  0  0  0  0  0  0  0
  128.7330  127.5300   65.8010 C   0  0  0  0  0  0  0  0  0  0  0  0
  128.3170  128.4980   66.9310 C   0  0  0  0  0  0  0  0  0  0  0  0
  128.6850  127.4460   67.9990 C   0  0  2  0  0  0  0  0  0  0  0  0
  129.7410  127.8340   69.0770 C   0  0  0  0  0  0  0  0  0  0  0  0
  129.3430  127.7710   70.4940 N   0  0  0  0  0  0  0  0  0  0  0  0
  128.3180  126.7300   70.6710 C   0  0  0  0  0  0  0  0  0  0  0  0
  127.9070  126.5630   72.1500 C   0  0  0  0  0  0  0  0  0  0  0  0
  129.0550  126.3110   72.9520 O   0  0  0  0  0  0  0  0  0  0  0  0
  129.9980  127.3730   72.8780 C   0  0  1  0  0  0  0  0  0  0  0  0
  131.1450  127.0110   73.7270 C   0  0  0  0  0  0  0  0  0  0  0  0
  132.0470  126.7280   74.3920 N   0  0  0  0  0  0  0  0  0  0  0  0
  130.4670  127.5790   71.4230 C   0  0  0  0  0  0  0  0  0  0  0  0
  130.6068  126.8949   63.8553 H   0  0  0  0  0  0  0  0  0  0  0  0
  131.7535  125.8710   62.9262 H   0  0  0  0  0  0  0  0  0  0  0  0
  129.9997  125.4825   62.9262 H   0  0  0  0  0  0  0  0  0  0  0  0
  132.0138  125.3391   66.6796 H   0  0  0  0  0  0  0  0  0  0  0  0
  133.1200  124.7992   65.3713 H   0  0  0  0  0  0  0  0  0  0  0  0
  132.4808  126.4779   65.3713 H   0  0  0  0  0  0  0  0  0  0  0  0
  131.3500  122.8567   65.1868 H   0  0  0  0  0  0  0  0  0  0  0  0
  130.3925  123.1863   63.7032 H   0  0  0  0  0  0  0  0  0  0  0  0
  132.1689  123.4525   63.7032 H   0  0  0  0  0  0  0  0  0  0  0  0
  129.5610  127.8842   65.1693 H   0  0  0  0  0  0  0  0  0  0  0  0
  128.0466  127.2412   64.9914 H   0  0  0  0  0  0  0  0  0  0  0  0
  128.9244  129.4138   66.9795 H   0  0  0  0  0  0  0  0  0  0  0  0
  127.3134  128.9483   66.9266 H   0  0  0  0  0  0  0  0  0  0  0  0
  127.9558  127.0999   68.7463 H   0  0  0  0  0  0  0  0  0  0  0  0
  130.6008  127.1599   68.9492 H   0  0  0  0  0  0  0  0  0  0  0  0
  129.9371  128.9011   68.8956 H   0  0  0  0  0  0  0  0  0  0  0  0
  127.4287  127.0050   70.0849 H   0  0  0  0  0  0  0  0  0  0  0  0
  128.7432  125.7751   70.3283 H   0  0  0  0  0  0  0  0  0  0  0  0
  127.4159  127.4840   72.4972 H   0  0  0  0  0  0  0  0  0  0  0  0
  127.2140  125.7132   72.2369 H   0  0  0  0  0  0  0  0  0  0  0  0
  129.5390  128.3117   73.2217 H   0  0  0  0  0  0  0  0  0  0  0  0
  131.1143  128.4674   71.3828 H   0  0  0  0  0  0  0  0  0  0  0  0
  131.0075  126.6725   71.1131 H   0  0  0  0  0  0  0  0  0  0  0  0
  1  2  1  0
  2  3  1  0
  2  4  1  0
  2  5  1  0
  5  6  1  0
  6  7  2  0
  6  8  1  0
  8  9  1  0
  9 10  1  0
 10 11  1  0
 11 12  1  0
 12 13  1  0
 13 14  1  0
 14 15  1  0
 15 16  1  0
 16 17  1  0
 17 18  1  0
 18 19  3  0
 17 20  1  0
 11  8  1  0
 20 13  1  0
  1 21  1  0
  1 22  1  0
  1 23  1  0
  3 24  1  0
  3 25  1  0
  3 26  1  0
  4 27  1  0
  4 28  1  0
  4 29  1  0
  9 30  1  0
  9 31  1  0
 10 32  1  0
 10 33  1  0
 11 34  1  1
 12 35  1  0
 12 36  1  0
 14 37  1  0
 14 38  1  0
 15 39  1  0
 15 40  1  0
 17 41  1  1
 20 42  1  0
 20 43  1  0
M  END
>  <Binding energies>  (1) 
[-5.51]

>  <Ligand effiencies>  (1) 
[-0.27549999999999997]

>  <Interactions>  (1) 
["V-B:GLU:543:C:9874, V-B:GLU:543:CB:9878, H-B:LYS:547:NZ:9923, V-B:GLU:543:CG:9879, V-A:GLY:544:C:4912, V-A:HIS:456:CD2:4068, V-B:LYS:547:CE:9922, V-A:GLU:543:CD:4908, V-B:HIS:456:CE1:9041, V-B:GLU:543:CA:9876, V-A:HIS:456:CE1:4070, V-B:GLY:544:C:9884, V-B:GLY:544:CA:9886, V-A:GLU:543:CG:4907, V-B:GLU:543:CD:9880, H-A:LYS:547:NZ:4951, V-A:LEU:475:CD2:4259, V-A:ARG:545:CZ:4926, V-A:GLU:543:CB:4906, H-A:TYR:484:OH:4348"]

$$$$
ZINC95472699
     RDKit          3D

 32 34  0  0  0  0  0  0  0  0999 V2000
  125.8330  123.9890   60.3390 C   0  0  0  0  0  0  0  0  0  0  0  0
  126.9090  123.5920   61.2290 N   0  0  0  0  0  0  0  0  0  0  0  0
  128.2570  123.7480   61.0450 C   0  0  0  0  0  0  0  0  0  0  0  0
  128.8800  123.2280   62.1720 C   0  0  0  0  0  0  0  0  0  0  0  0
  130.2940  123.1570   62.5020 C   0  0  0  0  0  0  0  0  0  0  0  0
  131.0540  123.8730   63.3650 C   0  0  0  0  0  0  0  0  0  0  0  0
  132.7740  123.5200   63.5700 S   0  0  0  0  0  0  0  0  0  0  0  0
  132.9490  124.8210   64.8020 C   0  0  0  0  0  0  0  0  0  0  0  0
  133.9870  125.1070   65.3960 O   0  0  0  0  0  0  0  0  0  0  0  0
  131.7060  125.4060   64.9240 N   0  0  0  0  0  0  0  0  0  0  0  0
  130.6390  124.9870   64.1960 C   0  0  0  0  0  0  0  0  0  0  0  0
  129.4650  125.4990   64.2330 N   0  0  0  0  0  0  0  0  0  0  0  0
  129.1430  126.5740   65.0690 C   0  0  0  0  0  0  0  0  0  0  0  0
  128.6150  127.7600   64.5410 C   0  0  0  0  0  0  0  0  0  0  0  0
  128.2470  128.8170   65.3740 C   0  0  0  0  0  0  0  0  0  0  0  0
  128.3920  128.6960   66.7550 C   0  0  0  0  0  0  0  0  0  0  0  0
  128.8960  127.5170   67.3000 C   0  0  0  0  0  0  0  0  0  0  0  0
  129.0800  127.3410   69.1860 Br  0  0  0  0  0  0  0  0  0  0  0  0
  129.2620  126.4630   66.4620 C   0  0  0  0  0  0  0  0  0  0  0  0
  127.7910  122.8450   62.9720 C   0  0  0  0  0  0  0  0  0  0  0  0
  126.6180  123.0510   62.4150 N   0  0  0  0  0  0  0  0  0  0  0  0
  124.9647  124.3094   60.9335 H   0  0  0  0  0  0  0  0  0  0  0  0
  126.1704  124.8219   59.7045 H   0  0  0  0  0  0  0  0  0  0  0  0
  125.5486  123.1366   59.7045 H   0  0  0  0  0  0  0  0  0  0  0  0
  128.7515  124.1988   60.1719 H   0  0  0  0  0  0  0  0  0  0  0  0
  130.8468  122.3816   61.9513 H   0  0  0  0  0  0  0  0  0  0  0  0
  131.5750  126.1740   65.5640 H   0  0  0  0  0  0  0  0  0  0  0  0
  128.4887  127.8591   63.4528 H   0  0  0  0  0  0  0  0  0  0  0  0
  127.8431  129.7443   64.9416 H   0  0  0  0  0  0  0  0  0  0  0  0
  128.1089  129.5303   67.4137 H   0  0  0  0  0  0  0  0  0  0  0  0
  129.6495  125.5315   66.9003 H   0  0  0  0  0  0  0  0  0  0  0  0
  127.9091  122.4110   63.9759 H   0  0  0  0  0  0  0  0  0  0  0  0
  1  2  1  0
  2  3  1  0
  3  4  2  0
  4  5  1  0
  5  6  2  0
  6  7  1  0
  7  8  1  0
  8  9  2  0
  8 10  1  0
 10 11  1  0
 11 12  2  0
 12 13  1  0
 13 14  2  0
 14 15  1  0
 15 16  2  0
 16 17  1  0
 17 18  1  0
 17 19  2  0
  4 20  1  0
 20 21  2  0
 21  2  1  0
 11  6  1  0
 19 13  1  0
  1 22  1  0
  1 23  1  0
  1 24  1  0
  3 25  1  0
  5 26  1  0
 10 27  1  0
 14 28  1  0
 15 29  1  0
 16 30  1  0
 19 31  1  0
 20 32  1  0
M  END
>  <Binding energies>  (1) 
[-7.57]

>  <Ligand effiencies>  (1) 
[-0.3440909090909091]

>  <Interactions>  (1) 
["V-B:PRO:540:CA:9855, H-A:GLU:543:OE2:4910, V-B:GLU:543:CB:9878, V-B:ALA:541:CB:9864, H-A:ARG:545:NH1:4927, V-B:GLU:543:CG:9879, H-B:ALA:541:N:9863, V-A:GLU:543:CD:4908, V-B:PRO:540:CB:9857, V-B:HIS:456:CE1:9041, H-A:GLY:454:N:4050, V-A:HIS:456:CE1:4070, V-A:GLU:543:CG:4907, V-B:GLU:543:CD:9880, H-A:ARG:545:NH2:4928, V-A:ARG:545:CZ:4926, H-A:GLU:543:OE1:4909, V-A:GLU:543:CB:4906, H-A:ARG:545:NE:4924, V-B:ALA:541:CA:9862, H-A:TYR:484:OH:4348"]

$$$$
ZINC95541858
     RDKit          3D

 85 90  0  0  0  0  0  0  0  0999 V2000
  133.6070  124.8860   57.9030 C   0  0  0  0  0  0  0  0  0  0  0  0
  133.6280  123.5720   58.4470 O   0  0  0  0  0  0  0  0  0  0  0  0
  133.3140  123.4040   59.7820 C   0  0  0  0  0  0  0  0  0  0  0  0
  133.9170  122.4780   60.6590 C   0  0  0  0  0  0  0  0  0  0  0  0
  133.4340  122.3120   61.9690 C   0  0  0  0  0  0  0  0  0  0  0  0
  132.3900  123.1070   62.4600 C   0  0  0  0  0  0  0  0  0  0  0  0
  131.9270  124.1140   61.6110 C   0  0  0  0  0  0  0  0  0  0  0  0
  132.2840  124.1930   60.2910 C   0  0  0  0  0  0  0  0  0  0  0  0
  131.4350  125.0120   59.5760 O   0  0  0  0  0  0  0  0  0  0  0  0
  130.4140  125.5200   60.4710 C   0  0  1  0  0  0  0  0  0  0  0  0
  128.9580  125.0160   60.1560 C   0  0  1  0  0  0  0  0  0  0  0  0
  128.7250  125.3820   58.7880 O   0  0  0  0  0  0  0  0  0  0  0  0
  128.7340  124.3540   57.7980 C   0  0  0  0  0  0  0  0  0  0  0  0
  128.8980  123.4630   60.3230 C   0  0  0  0  0  0  0  0  0  0  0  0
  129.2670  123.0310   61.7620 C   0  0  0  0  0  0  0  0  0  0  0  0
  129.7180  124.2600   62.6320 C   0  0  1  0  0  0  0  0  0  0  0  0
  128.4260  125.1510   62.6760 C   0  0  0  0  0  0  0  0  0  0  0  0
  127.9560  125.6280   61.2310 C   0  0  1  0  0  0  0  0  0  0  0  0
  127.5100  127.1710   61.1490 C   0  0  2  0  0  0  0  0  0  0  0  0
  128.5970  128.1700   61.6440 C   0  0  0  0  0  0  0  0  0  0  0  0
  126.4950  127.3880   62.1180 O   0  0  0  0  0  0  0  0  0  0  0  0
  126.9390  127.6210   59.7220 C   0  0  0  0  0  0  0  0  0  0  0  0
  128.0710  128.1120   58.7750 C   0  0  0  0  0  0  0  0  0  0  0  0
  126.1910  126.4760   58.9880 C   0  0  0  0  0  0  0  0  0  0  0  0
  125.9190  128.7970   59.8330 C   0  0  0  0  0  0  0  0  0  0  0  0
  130.3860  123.7960   64.0000 C   0  0  1  0  0  0  0  0  0  0  0  0
  131.6050  122.8150   63.7540 C   0  0  0  0  0  0  0  0  0  0  0  0
  130.8650  124.9140   64.8440 N   0  0  0  0  0  0  0  0  0  0  0  0
  129.8310  125.5860   65.6320 C   0  0  0  0  0  0  0  0  0  0  0  0
  130.3280  125.8140   66.9400 O   0  0  0  0  0  0  0  0  0  0  0  0
  129.1430  125.8180   67.8300 O   0  0  0  0  0  0  0  0  0  0  0  0
  128.9620  127.1410   68.3620 C   0  0  0  0  0  0  0  0  0  0  0  0
  127.8710  126.9850   69.4420 C   0  0  0  0  0  0  0  0  0  0  0  0
  130.2610  127.6690   69.0220 C   0  0  0  0  0  0  0  0  0  0  0  0
  128.4640  128.1120   67.2630 C   0  0  0  0  0  0  0  0  0  0  0  0
  131.7970  125.8360   64.1740 C   0  0  0  0  0  0  0  0  0  0  0  0
  131.3170  126.2660   62.7760 C   0  0  0  0  0  0  0  0  0  0  0  0
  130.8250  125.0740   61.9000 C   0  0  1  0  0  0  0  0  0  0  0  0
  133.5952  125.6214   58.7210 H   0  0  0  0  0  0  0  0  0  0  0  0
  134.5028  125.0408   57.2836 H   0  0  0  0  0  0  0  0  0  0  0  0
  132.7067  125.0121   57.2836 H   0  0  0  0  0  0  0  0  0  0  0  0
  134.7735  121.8799   60.3145 H   0  0  0  0  0  0  0  0  0  0  0  0
  133.8828  121.5460   62.6185 H   0  0  0  0  0  0  0  0  0  0  0  0
  130.3647  126.6126   60.3537 H   0  0  0  0  0  0  0  0  0  0  0  0
  128.7426  123.3705   58.2907 H   0  0  0  0  0  0  0  0  0  0  0  0
  127.8351  124.4417   57.1701 H   0  0  0  0  0  0  0  0  0  0  0  0
  129.6313  124.4574   57.1701 H   0  0  0  0  0  0  0  0  0  0  0  0
  127.8779  123.1187   60.0973 H   0  0  0  0  0  0  0  0  0  0  0  0
  129.6259  123.0139   59.6313 H   0  0  0  0  0  0  0  0  0  0  0  0
  128.3891  122.5631   62.2314 H   0  0  0  0  0  0  0  0  0  0  0  0
  130.1048  122.3205   61.7060 H   0  0  0  0  0  0  0  0  0  0  0  0
  127.6134  124.5693   63.1357 H   0  0  0  0  0  0  0  0  0  0  0  0
  128.6644  126.0516   63.2609 H   0  0  0  0  0  0  0  0  0  0  0  0
  126.9758  125.2108   60.9568 H   0  0  0  0  0  0  0  0  0  0  0  0
  128.6102  128.1821   62.7439 H   0  0  0  0  0  0  0  0  0  0  0  0
  129.5821  127.8555   61.2689 H   0  0  0  0  0  0  0  0  0  0  0  0
  128.3666  129.1781   61.2689 H   0  0  0  0  0  0  0  0  0  0  0  0
  126.4920  126.6440   62.7250 H   0  0  0  0  0  0  0  0  0  0  0  0
  128.9171  128.4790   59.3745 H   0  0  0  0  0  0  0  0  0  0  0  0
  128.4056  127.2781   58.1404 H   0  0  0  0  0  0  0  0  0  0  0  0
  127.6908  128.9261   58.1404 H   0  0  0  0  0  0  0  0  0  0  0  0
  125.7461  125.7949   59.7284 H   0  0  0  0  0  0  0  0  0  0  0  0
  125.3965  126.9020   58.3577 H   0  0  0  0  0  0  0  0  0  0  0  0
  126.9003  125.9196   58.3577 H   0  0  0  0  0  0  0  0  0  0  0  0
  125.7277  129.0176   60.8935 H   0  0  0  0  0  0  0  0  0  0  0  0
  126.3337  129.6896   59.3418 H   0  0  0  0  0  0  0  0  0  0  0  0
  124.9767  128.5127   59.3418 H   0  0  0  0  0  0  0  0  0  0  0  0
  129.5748  123.2812   64.5357 H   0  0  0  0  0  0  0  0  0  0  0  0
  132.2962  122.9011   64.6054 H   0  0  0  0  0  0  0  0  0  0  0  0
  131.1853  121.8034   63.6516 H   0  0  0  0  0  0  0  0  0  0  0  0
  129.5739  126.5466   65.1617 H   0  0  0  0  0  0  0  0  0  0  0  0
  128.9299  124.9569   65.6794 H   0  0  0  0  0  0  0  0  0  0  0  0
  128.3303  127.0507   70.4394 H   0  0  0  0  0  0  0  0  0  0  0  0
  127.1253  127.7857   69.3283 H   0  0  0  0  0  0  0  0  0  0  0  0
  127.3796  126.0075   69.3283 H   0  0  0  0  0  0  0  0  0  0  0  0
  130.1592  127.6276   70.1165 H   0  0  0  0  0  0  0  0  0  0  0  0
  131.1111  127.0450   68.7090 H   0  0  0  0  0  0  0  0  0  0  0  0
  130.4347  128.7091   68.7090 H   0  0  0  0  0  0  0  0  0  0  0  0
  128.0103  128.9967   67.7336 H   0  0  0  0  0  0  0  0  0  0  0  0
  129.3132  128.4243   66.6374 H   0  0  0  0  0  0  0  0  0  0  0  0
  127.7149  127.6046   66.6374 H   0  0  0  0  0  0  0  0  0  0  0  0
  131.9097  126.7350   64.7978 H   0  0  0  0  0  0  0  0  0  0  0  0
  132.7508  125.3034   64.0449 H   0  0  0  0  0  0  0  0  0  0  0  0
  130.4868  126.9777   62.8954 H   0  0  0  0  0  0  0  0  0  0  0  0
  132.1777  126.7164   62.2600 H   0  0  0  0  0  0  0  0  0  0  0  0
  1  2  1  0
  2  3  1  0
  3  4  2  0
  4  5  1  0
  5  6  2  0
  6  7  1  0
  7  8  2  0
  8  9  1  0
  9 10  1  0
 10 11  1  0
 11 12  1  6
 12 13  1  0
 11 14  1  0
 14 15  1  0
 16 15  1  6
 16 17  1  0
 17 18  1  0
 18 19  1  0
 19 20  1  0
 19 21  1  1
 19 22  1  0
 22 23  1  0
 22 24  1  0
 22 25  1  0
 16 26  1  0
 26 27  1  0
 26 28  1  0
 28 29  1  0
 29 30  1  0
 30 31  1  0
 31 32  1  0
 32 33  1  0
 32 34  1  0
 32 35  1  0
 28 36  1  0
 36 37  1  0
 38 37  1  1
  8  3  1  0
 38 10  1  0
 27  6  1  0
 38  7  1  0
 18 11  1  0
 38 16  1  0
  1 39  1  0
  1 40  1  0
  1 41  1  0
  4 42  1  0
  5 43  1  0
 10 44  1  1
 13 45  1  0
 13 46  1  0
 13 47  1  0
 14 48  1  0
 14 49  1  0
 15 50  1  0
 15 51  1  0
 17 52  1  0
 17 53  1  0
 18 54  1  6
 20 55  1  0
 20 56  1  0
 20 57  1  0
 21 58  1  0
 23 59  1  0
 23 60  1  0
 23 61  1  0
 24 62  1  0
 24 63  1  0
 24 64  1  0
 25 65  1  0
 25 66  1  0
 25 67  1  0
 26 68  1  1
 27 69  1  0
 27 70  1  0
 29 71  1  0
 29 72  1  0
 33 73  1  0
 33 74  1  0
 33 75  1  0
 34 76  1  0
 34 77  1  0
 34 78  1  0
 35 79  1  0
 35 80  1  0
 35 81  1  0
 36 82  1  0
 36 83  1  0
 37 84  1  0
 37 85  1  0
M  END
>  <Binding energies>  (1) 
[-6.95]

>  <Ligand effiencies>  (1) 
[-0.1782051282051282]

>  <Interactions>  (1) 
["V-A:ILE:369:CG2:3237, V-A:ASP:366:CA:3210, V-B:GLU:543:C:9874, V-A:ILE:369:CB:3236, V-B:GLU:543:CB:9878, V-B:ASP:366:CG:8184, V-B:TYR:539:CE2:9848, V-B:GLU:543:CG:9879, V-B:TYR:539:CZ:9849, H-B:GLU:543:OE1:9881, H-B:TYR:539:OH:9850, V-A:GLU:543:CD:4908, V-B:ASP:366:CB:8183, H-B:ASP:366:OD1:8185, V-B:HIS:456:CE1:9041, V-A:ILE:369:CD1:3239, V-A:HIS:456:CE1:4070, V-A:ASP:366:C:3208, V-A:GLU:543:CG:4907, V-B:GLU:543:CD:9880, V-A:ASP:366:CB:3212, V-A:LEU:475:CD2:4259, V-A:ARG:545:CZ:4926, H-B:ARG:545:NH2:9900, V-A:GLU:543:CB:4906, H-B:GLU:543:OE2:9882, H-A:TYR:484:OH:4348"]

$$$$
ZINC95550147
     RDKit          3D

 88 95  0  0  0  0  0  0  0  0999 V2000
  129.0830  132.9540   59.1340 C   0  0  0  0  0  0  0  0  0  0  0  0
  127.8830  132.8870   59.8960 O   0  0  0  0  0  0  0  0  0  0  0  0
  127.9540  132.5760   61.2410 C   0  0  0  0  0  0  0  0  0  0  0  0
  127.9280  133.5250   62.2700 C   0  0  0  0  0  0  0  0  0  0  0  0
  127.9950  133.1390   63.6060 C   0  0  0  0  0  0  0  0  0  0  0  0
  128.1010  131.7730   63.9490 C   0  0  0  0  0  0  0  0  0  0  0  0
  128.1810  131.4430   65.2660 N   0  0  0  0  0  0  0  0  0  0  0  0
  128.3070  130.1480   65.6640 C   0  0  0  0  0  0  0  0  0  0  0  0
  128.4270  129.8790   67.0480 C   0  0  0  0  0  0  0  0  0  0  0  0
  128.5690  128.5690   67.4980 C   0  0  0  0  0  0  0  0  0  0  0  0
  128.7280  128.2580   69.1880 Cl  0  0  0  0  0  0  0  0  0  0  0  0
  128.5870  127.5110   66.5960 C   0  0  0  0  0  0  0  0  0  0  0  0
  128.4660  127.7420   65.2280 C   0  0  0  0  0  0  0  0  0  0  0  0
  128.3300  129.0700   64.7320 C   0  0  0  0  0  0  0  0  0  0  0  0
  128.2310  129.4430   63.3620 C   0  0  0  0  0  0  0  0  0  0  0  0
  128.2590  128.1510   62.1350 S   0  0  0  0  0  0  0  0  0  0  0  0
  129.6170  127.0510   62.6250 C   0  0  0  0  0  0  0  0  0  0  0  0
  130.7220  126.9360   61.5740 C   0  0  0  0  0  0  0  0  0  0  0  0
  131.1190  127.9580   61.0150 O   0  0  0  0  0  0  0  0  0  0  0  0
  131.2000  125.6910   61.3600 N   0  0  0  0  0  0  0  0  0  0  0  0
  132.2200  125.2470   60.4890 C   0  0  0  0  0  0  0  0  0  0  0  0
  133.4350  124.7120   60.9570 C   0  0  0  0  0  0  0  0  0  0  0  0
  134.4210  124.2960   60.0670 C   0  0  0  0  0  0  0  0  0  0  0  0
  134.2150  124.4140   58.6980 C   0  0  0  0  0  0  0  0  0  0  0  0
  133.0240  124.9530   58.2210 C   0  0  0  0  0  0  0  0  0  0  0  0
  132.0130  125.3760   59.0940 C   0  0  0  0  0  0  0  0  0  0  0  0
  130.7720  125.9640   58.4900 C   0  0  0  0  0  0  0  0  0  0  0  0
  130.8570  127.2470   57.9290 C   0  0  0  0  0  0  0  0  0  0  0  0
  129.7550  127.8490   57.3280 C   0  0  0  0  0  0  0  0  0  0  0  0
  128.5390  127.1770   57.2780 C   0  0  0  0  0  0  0  0  0  0  0  0
  128.4260  125.9040   57.8300 C   0  0  0  0  0  0  0  0  0  0  0  0
  129.5340  125.2860   58.4370 C   0  0  0  0  0  0  0  0  0  0  0  0
  129.4500  123.9750   58.9460 N   0  0  0  0  0  0  0  0  0  0  0  0
  128.3880  123.3820   59.5310 C   0  0  0  0  0  0  0  0  0  0  0  0
  127.3050  123.9370   59.7240 O   0  0  0  0  0  0  0  0  0  0  0  0
  128.6390  121.9410   59.9970 C   0  0  0  0  0  0  0  0  0  0  0  0
  128.6910  121.6740   61.8020 S   0  0  0  0  0  0  0  0  0  0  0  0
  130.3280  122.1250   62.3540 C   0  0  0  0  0  0  0  0  0  0  0  0
  130.4470  123.0340   63.4430 C   0  0  0  0  0  0  0  0  0  0  0  0
  129.3710  123.6200   64.1670 C   0  0  0  0  0  0  0  0  0  0  0  0
  129.6220  124.4820   65.2310 C   0  0  0  0  0  0  0  0  0  0  0  0
  130.9270  124.7940   65.5970 C   0  0  0  0  0  0  0  0  0  0  0  0
  131.2130  125.8590   66.9260 Cl  0  0  0  0  0  0  0  0  0  0  0  0
  132.0040  124.2540   64.9000 C   0  0  0  0  0  0  0  0  0  0  0  0
  131.7830  123.3690   63.8190 C   0  0  0  0  0  0  0  0  0  0  0  0
  132.8650  122.8510   63.1790 N   0  0  0  0  0  0  0  0  0  0  0  0
  132.7230  121.9880   62.1380 C   0  0  0  0  0  0  0  0  0  0  0  0
  133.8910  121.4930   61.5140 C   0  0  0  0  0  0  0  0  0  0  0  0
  133.7920  120.6110   60.4430 C   0  0  0  0  0  0  0  0  0  0  0  0
  132.5560  120.1880   59.9620 C   0  0  0  0  0  0  0  0  0  0  0  0
  132.5780  119.2990   58.9050 O   0  0  0  0  0  0  0  0  0  0  0  0
  133.5810  119.4340   57.9050 C   0  0  0  0  0  0  0  0  0  0  0  0
  131.3850  120.6700   60.5650 C   0  0  0  0  0  0  0  0  0  0  0  0
  131.4440  121.5760   61.6620 C   0  0  0  0  0  0  0  0  0  0  0  0
  128.1290  130.7900   62.9180 C   0  0  0  0  0  0  0  0  0  0  0  0
  128.0530  131.2230   61.5620 C   0  0  0  0  0  0  0  0  0  0  0  0
  129.9466  133.0022   59.8136 H   0  0  0  0  0  0  0  0  0  0  0  0
  129.1650  132.0590   58.4997 H   0  0  0  0  0  0  0  0  0  0  0  0
  129.0649  133.8525   58.4997 H   0  0  0  0  0  0  0  0  0  0  0  0
  127.8534  134.5933   62.0188 H   0  0  0  0  0  0  0  0  0  0  0  0
  127.9652  133.9016   64.3982 H   0  0  0  0  0  0  0  0  0  0  0  0
  128.4080  130.7078   67.7710 H   0  0  0  0  0  0  0  0  0  0  0  0
  128.6979  126.4813   66.9666 H   0  0  0  0  0  0  0  0  0  0  0  0
  128.4755  126.8944   64.5270 H   0  0  0  0  0  0  0  0  0  0  0  0
  130.0601  127.4383   63.5543 H   0  0  0  0  0  0  0  0  0  0  0  0
  129.1879  126.0463   62.7528 H   0  0  0  0  0  0  0  0  0  0  0  0
  130.8260  124.9670   61.9560 H   0  0  0  0  0  0  0  0  0  0  0  0
  133.6074  124.6216   62.0396 H   0  0  0  0  0  0  0  0  0  0  0  0
  135.3629  123.8740   60.4473 H   0  0  0  0  0  0  0  0  0  0  0  0
  134.9914  124.0822   57.9930 H   0  0  0  0  0  0  0  0  0  0  0  0
  132.8731  125.0490   57.1356 H   0  0  0  0  0  0  0  0  0  0  0  0
  131.8139  127.7884   57.9647 H   0  0  0  0  0  0  0  0  0  0  0  0
  129.8463  128.8553   56.8932 H   0  0  0  0  0  0  0  0  0  0  0  0
  127.6672  127.6506   56.8029 H   0  0  0  0  0  0  0  0  0  0  0  0
  127.4614  125.3767   57.7911 H   0  0  0  0  0  0  0  0  0  0  0  0
  130.3270  123.4760   58.9820 H   0  0  0  0  0  0  0  0  0  0  0  0
  127.8352  121.3113   59.5878 H   0  0  0  0  0  0  0  0  0  0  0  0
  129.6450  121.6854   59.6329 H   0  0  0  0  0  0  0  0  0  0  0  0
  128.3332  123.3901   63.8838 H   0  0  0  0  0  0  0  0  0  0  0  0
  128.7804  124.9204   65.7874 H   0  0  0  0  0  0  0  0  0  0  0  0
  133.0317  124.5167   65.1912 H   0  0  0  0  0  0  0  0  0  0  0  0
  134.8811  121.8063   61.8766 H   0  0  0  0  0  0  0  0  0  0  0  0
  134.7107  120.2395   59.9655 H   0  0  0  0  0  0  0  0  0  0  0  0
  134.5619  119.5660   58.3850 H   0  0  0  0  0  0  0  0  0  0  0  0
  133.5981  118.5301   57.2784 H   0  0  0  0  0  0  0  0  0  0  0  0
  133.3585  120.3103   57.2784 H   0  0  0  0  0  0  0  0  0  0  0  0
  130.4060  120.3431   60.1847 H   0  0  0  0  0  0  0  0  0  0  0  0
  128.0728  130.4763   60.7545 H   0  0  0  0  0  0  0  0  0  0  0  0
  1  2  1  0
  2  3  1  0
  3  4  2  0
  4  5  1  0
  5  6  2  0
  6  7  1  0
  7  8  2  0
  8  9  1  0
  9 10  2  0
 10 11  1  0
 10 12  1  0
 12 13  2  0
 13 14  1  0
 14 15  2  0
 15 16  1  0
 16 17  1  0
 17 18  1  0
 18 19  2  0
 18 20  1  0
 20 21  1  0
 21 22  2  0
 22 23  1  0
 23 24  2  0
 24 25  1  0
 25 26  2  0
 26 27  1  0
 27 28  2  0
 28 29  1  0
 29 30  2  0
 30 31  1  0
 31 32  2  0
 32 33  1  0
 33 34  1  0
 34 35  2  0
 34 36  1  0
 36 37  1  0
 37 38  1  0
 38 39  1  0
 39 40  2  0
 40 41  1  0
 41 42  2  0
 42 43  1  0
 42 44  1  0
 44 45  2  0
 45 46  1  0
 46 47  2  0
 47 48  1  0
 48 49  2  0
 49 50  1  0
 50 51  1  0
 51 52  1  0
 50 53  2  0
 53 54  1  0
 15 55  1  0
 55 56  2  0
 56  3  1  0
 55  6  1  0
 14  8  1  0
 26 21  1  0
 32 27  1  0
 54 38  2  0
 45 39  1  0
 54 47  1  0
  1 57  1  0
  1 58  1  0
  1 59  1  0
  4 60  1  0
  5 61  1  0
  9 62  1  0
 12 63  1  0
 13 64  1  0
 17 65  1  0
 17 66  1  0
 20 67  1  0
 22 68  1  0
 23 69  1  0
 24 70  1  0
 25 71  1  0
 28 72  1  0
 29 73  1  0
 30 74  1  0
 31 75  1  0
 33 76  1  0
 36 77  1  0
 36 78  1  0
 40 79  1  0
 41 80  1  0
 44 81  1  0
 48 82  1  0
 49 83  1  0
 52 84  1  0
 52 85  1  0
 52 86  1  0
 53 87  1  0
 56 88  1  0
M  END
>  <Binding energies>  (1) 
[-9.01]

>  <Ligand effiencies>  (1) 
[-0.15534482758620688]

>  <Interactions>  (1) 
["V-A:ILE:369:CG2:3237, V-A:ASP:366:CA:3210, V-B:PRO:540:CA:9855, V-A:GLU:543:CA:4904, V-A:ILE:369:CB:3236, V-B:GLU:543:CB:9878, V-B:TYR:539:CE2:9848, V-A:TYR:484:CE2:4346, V-B:LEU:475:CD2:9230, V-B:GLU:543:CG:9879, V-B:TYR:539:C:9839, V-A:ASP:366:CG:3213, V-A:TYR:539:CD1:4873, V-B:TYR:484:CE2:9317, V-B:TYR:539:CZ:9849, H-B:TYR:539:OH:9850, V-A:ALA:541:CB:4892, H-B:ALA:541:N:9863, V-A:GLU:543:CD:4908, V-A:TYR:484:CZ:4347, H-B:TYR:484:OH:9319, V-B:HIS:456:CE1:9041, H-A:GLY:454:N:4050, V-A:SER:385:C:3405, V-B:PRO:540:N:9856, V-A:ILE:369:CD1:3239, V-B:TYR:484:CZ:9318, V-A:HIS:456:CE1:4070, V-A:ASP:366:C:3208, V-B:TYR:539:CD2:9846, V-A:GLU:543:CG:4907, V-A:SER:385:CB:3409, H-A:SER:385:OG:3410, V-B:GLU:543:CD:9880, V-A:TYR:539:C:4867, V-A:ASP:366:CB:3212, V-A:LEU:475:CD2:4259, H-A:ARG:545:NH2:4928, V-B:TYR:539:CG:9844, V-A:GLU:543:CB:4906, H-A:HIS:383:HE2:3395, V-A:PRO:540:N:4884, V-A:LEU:373:CD1:3280, V-A:PRO:540:CA:4883, V-A:SER:385:CA:3407, V-B:PRO:540:C:9853"]

$$$$
ZINC95558380-again1
     RDKit          3D

 84 86  0  0  0  0  0  0  0  0999 V2000
  134.0020  122.4200   62.2080 C   0  0  0  0  0  0  0  0  0  0  0  0
  133.5880  123.7190   63.4050 S   0  0  0  0  0  0  0  0  0  0  0  0
  133.0660  125.0680   62.3050 C   0  0  0  0  0  0  0  0  0  0  0  0
  133.2850  124.7810   60.8080 C   0  0  0  0  0  0  0  0  0  0  0  0
  132.1840  125.2210   59.8010 C   0  0  2  0  0  0  0  0  0  0  0  0
  130.9630  124.4760   60.1590 N   0  0  0  0  0  0  0  0  0  0  0  0
  130.8590  123.1500   60.3760 C   0  0  0  0  0  0  0  0  0  0  0  0
  131.7950  122.3760   60.1690 O   0  0  0  0  0  0  0  0  0  0  0  0
  129.5030  122.6230   60.9290 C   0  0  1  0  0  0  0  0  0  0  0  0
  129.5840  122.1580   62.4090 C   0  0  0  0  0  0  0  0  0  0  0  0
  129.8130  123.3130   63.3730 C   0  0  0  0  0  0  0  0  0  0  0  0
  130.5660  123.1500   64.5410 C   0  0  0  0  0  0  0  0  0  0  0  0
  130.7600  124.2110   65.4220 C   0  0  0  0  0  0  0  0  0  0  0  0
  130.2020  125.4530   65.1390 C   0  0  0  0  0  0  0  0  0  0  0  0
  129.4590  125.6260   63.9730 C   0  0  0  0  0  0  0  0  0  0  0  0
  129.2560  124.5700   63.0780 C   0  0  0  0  0  0  0  0  0  0  0  0
  128.4810  124.8100   61.7810 C   0  0  0  0  0  0  0  0  0  0  0  0
  128.4200  123.6470   60.8580 N   0  0  0  0  0  0  0  0  0  0  0  0
  127.4240  123.6240   59.9240 C   0  0  0  0  0  0  0  0  0  0  0  0
  126.2430  123.8640   60.1940 O   0  0  0  0  0  0  0  0  0  0  0  0
  127.7520  123.3040   58.4410 C   0  0  1  0  0  0  0  0  0  0  0  0
  126.6480  122.4750   57.7670 C   0  0  0  0  0  0  0  0  0  0  0  0
  125.7400  123.5060   57.1160 C   0  0  0  0  0  0  0  0  0  0  0  0
  126.7110  124.5910   56.6630 C   0  0  0  0  0  0  0  0  0  0  0  0
  127.8420  124.5070   57.5910 N   0  0  0  0  0  0  0  0  0  0  0  0
  128.8970  125.3570   57.6650 C   0  0  0  0  0  0  0  0  0  0  0  0
  129.8340  125.3150   56.8630 O   0  0  0  0  0  0  0  0  0  0  0  0
  128.9020  126.4470   58.7700 C   0  0  2  0  0  0  0  0  0  0  0  0
  127.2630  127.2840   58.8060 S   0  0  0  0  0  0  0  0  0  0  0  0
  129.9990  127.3770   58.4950 N   0  0  0  0  0  0  0  0  0  0  0  0
  130.4110  128.3990   59.2650 C   0  0  0  0  0  0  0  0  0  0  0  0
  129.8400  128.7330   60.3100 O   0  0  0  0  0  0  0  0  0  0  0  0
  131.6890  129.1150   58.7380 C   0  0  1  0  0  0  0  0  0  0  0  0
  132.4530  128.1310   57.8910 N   0  0  0  0  0  0  0  0  0  0  0  0
  131.3860  130.4110   57.9340 C   0  0  0  0  0  0  0  0  0  0  0  0
  131.9630  131.7090   58.5360 C   0  0  0  0  0  0  0  0  0  0  0  0
  132.6770  131.4840   59.8760 C   0  0  0  0  0  0  0  0  0  0  0  0
  131.6930  131.4560   61.0550 C   0  0  0  0  0  0  0  0  0  0  0  0
  131.5730  130.1120   61.6460 N   0  0  0  0  0  0  0  0  0  0  0  0
  132.6580  124.9470   58.3170 C   0  0  0  0  0  0  0  0  0  0  0  0
  132.2140  125.7610   57.4760 O   0  0  0  0  0  0  0  0  0  0  0  0
  133.4510  123.9900   58.1360 O   0  0  0  0  0  0  0  0  0  0  0  0
  134.2934  121.5055   62.7454 H   0  0  0  0  0  0  0  0  0  0  0  0
  133.1260  122.2107   61.5764 H   0  0  0  0  0  0  0  0  0  0  0  0
  134.8375  122.7562   61.5764 H   0  0  0  0  0  0  0  0  0  0  0  0
  131.9937  125.2510   62.4681 H   0  0  0  0  0  0  0  0  0  0  0  0
  133.6893  125.9393   62.5548 H   0  0  0  0  0  0  0  0  0  0  0  0
  134.2163  125.2866   60.5129 H   0  0  0  0  0  0  0  0  0  0  0  0
  133.2890  123.6830   60.7412 H   0  0  0  0  0  0  0  0  0  0  0  0
  131.9825  126.3010   59.8550 H   0  0  0  0  0  0  0  0  0  0  0  0
  130.1600  125.0540   60.3580 H   0  0  0  0  0  0  0  0  0  0  0  0
  129.2697  121.7663   60.2797 H   0  0  0  0  0  0  0  0  0  0  0  0
  128.6398  121.6597   62.6740 H   0  0  0  0  0  0  0  0  0  0  0  0
  130.4416  121.4749   62.4974 H   0  0  0  0  0  0  0  0  0  0  0  0
  131.0111  122.1697   64.7666 H   0  0  0  0  0  0  0  0  0  0  0  0
  131.3521  124.0672   66.3378 H   0  0  0  0  0  0  0  0  0  0  0  0
  130.3465  126.2947   65.8323 H   0  0  0  0  0  0  0  0  0  0  0  0
  129.0237  126.6117   63.7520 H   0  0  0  0  0  0  0  0  0  0  0  0
  127.4505  125.0886   62.0465 H   0  0  0  0  0  0  0  0  0  0  0  0
  129.0238  125.6004   61.2419 H   0  0  0  0  0  0  0  0  0  0  0  0
  128.7123  122.7716   58.5065 H   0  0  0  0  0  0  0  0  0  0  0  0
  127.0755  121.8007   57.0103 H   0  0  0  0  0  0  0  0  0  0  0  0
  126.1094  121.8363   58.4825 H   0  0  0  0  0  0  0  0  0  0  0  0
  125.2039  123.0736   56.2583 H   0  0  0  0  0  0  0  0  0  0  0  0
  124.9596  123.8820   57.7939 H   0  0  0  0  0  0  0  0  0  0  0  0
  127.0439  124.4043   55.6314 H   0  0  0  0  0  0  0  0  0  0  0  0
  126.2461  125.5879   56.6710 H   0  0  0  0  0  0  0  0  0  0  0  0
  129.0654  126.0086   59.7655 H   0  0  0  0  0  0  0  0  0  0  0  0
  130.5100  127.1770   57.6470 H   0  0  0  0  0  0  0  0  0  0  0  0
  132.2835  129.4419   59.6039 H   0  0  0  0  0  0  0  0  0  0  0  0
  133.1760  128.6250   57.3870 H   0  0  0  0  0  0  0  0  0  0  0  0
  131.8180  127.6970   57.2360 H   0  0  0  0  0  0  0  0  0  0  0  0
  132.8620  127.4290   58.4900 H   0  0  0  0  0  0  0  0  0  0  0  0
  131.8036  130.2898   56.9236 H   0  0  0  0  0  0  0  0  0  0  0  0
  130.2924  130.5290   57.9470 H   0  0  0  0  0  0  0  0  0  0  0  0
  132.6832  132.1361   57.8226 H   0  0  0  0  0  0  0  0  0  0  0  0
  131.1183  132.3881   58.7237 H   0  0  0  0  0  0  0  0  0  0  0  0
  133.2115  130.5234   59.8367 H   0  0  0  0  0  0  0  0  0  0  0  0
  133.3733  132.3207   60.0345 H   0  0  0  0  0  0  0  0  0  0  0  0
  132.0469  132.1532   61.8287 H   0  0  0  0  0  0  0  0  0  0  0  0
  130.7026  131.7487   60.6761 H   0  0  0  0  0  0  0  0  0  0  0  0
  131.8330  129.4210   60.9560 H   0  0  0  0  0  0  0  0  0  0  0  0
  130.6190  129.9530   61.9370 H   0  0  0  0  0  0  0  0  0  0  0  0
  132.1870  130.0360   62.4440 H   0  0  0  0  0  0  0  0  0  0  0  0
  1  2  1  0
  2  3  1  0
  3  4  1  0
  4  5  1  0
  5  6  1  0
  6  7  1  0
  7  8  2  0
  7  9  1  0
  9 10  1  0
 10 11  1  0
 11 12  2  0
 12 13  1  0
 13 14  2  0
 14 15  1  0
 15 16  2  0
 16 17  1  0
 17 18  1  0
 18 19  1  0
 19 20  2  0
 19 21  1  0
 21 22  1  0
 22 23  1  0
 23 24  1  0
 24 25  1  0
 25 26  1  0
 26 27  2  0
 26 28  1  0
 28 29  1  0
 28 30  1  0
 30 31  1  0
 31 32  2  0
 31 33  1  0
 33 34  1  0
 33 35  1  0
 35 36  1  0
 36 37  1  0
 37 38  1  0
 38 39  1  0
  5 40  1  0
 40 41  2  0
 40 42  1  0
 18  9  1  0
 25 21  1  0
 16 11  1  0
  1 43  1  0
  1 44  1  0
  1 45  1  0
  3 46  1  0
  3 47  1  0
  4 48  1  0
  4 49  1  0
  5 50  1  6
  6 51  1  0
  9 52  1  6
 10 53  1  0
 10 54  1  0
 12 55  1  0
 13 56  1  0
 14 57  1  0
 15 58  1  0
 17 59  1  0
 17 60  1  0
 21 61  1  1
 22 62  1  0
 22 63  1  0
 23 64  1  0
 23 65  1  0
 24 66  1  0
 24 67  1  0
 28 68  1  1
 30 69  1  0
 33 70  1  1
 34 71  1  0
 34 72  1  0
 34 73  1  0
 35 74  1  0
 35 75  1  0
 36 76  1  0
 36 77  1  0
 37 78  1  0
 37 79  1  0
 38 80  1  0
 38 81  1  0
 39 82  1  0
 39 83  1  0
 39 84  1  0
M  CHG  4  29  -1  34   1  39   1  42  -1
M  END
>  <Binding energies>  (1) 
[-7.53]

>  <Ligand effiencies>  (1) 
[-0.1506]

>  <Interactions>  (1) 
["V-A:ASP:366:CA:3210, V-B:PRO:540:CA:9855, V-A:GLY:454:CA:4049, V-B:ALA:541:CB:9864, H-A:TYR:531:OH:4795, V-B:TYR:539:CE2:9848, V-A:TYR:484:CE2:4346, V-B:GLU:543:CG:9879, V-B:TYR:539:C:9839, V-A:ASP:366:CG:3213, V-A:LEU:363:CD1:3189, V-B:TYR:539:CZ:9849, V-A:TYR:531:CE2:4793, H-B:TYR:539:OH:9850, V-A:TYR:484:CZ:4347, V-B:PRO:540:CB:9857, V-A:GLU:543:CD:4908, H-A:GLY:454:N:4050, V-B:PRO:540:N:9856, V-A:ILE:369:CD1:3239, V-B:PRO:540:CD:9859, V-B:TYR:539:CD2:9846, V-A:TYR:531:CZ:4794, V-B:GLU:543:CD:9880, V-A:ASP:366:CB:3212, V-A:LEU:475:CD2:4259, V-A:ARG:545:CZ:4926, H-A:GLU:543:OE1:4909, H-A:ASP:366:OD1:3214, V-A:PRO:540:CB:4885, V-A:PRO:540:CA:4883, V-B:MET:535:CE:9807, H-A:ASP:366:OD2:3215"]

$$$$
ZINC95584768
     RDKit          3D

 58 62  0  0  0  0  0  0  0  0999 V2000
  128.7120  129.8550   75.1790 C   0  0  0  0  0  0  0  0  0  0  0  0
  128.4280  128.7180   74.1660 C   0  0  0  0  0  0  0  0  0  0  0  0
  126.8970  128.5380   73.9950 C   0  0  0  0  0  0  0  0  0  0  0  0
  129.1450  128.9500   72.8190 C   0  0  0  0  0  0  0  0  0  0  0  0
  129.4050  127.5730   72.2880 C   0  0  0  0  0  0  0  0  0  0  0  0
  129.6800  127.1810   70.9910 C   0  0  0  0  0  0  0  0  0  0  0  0
  128.7530  127.1280   70.0110 C   0  0  0  0  0  0  0  0  0  0  0  0
  128.9930  126.7020   68.6100 C   0  0  0  0  0  0  0  0  0  0  0  0
  129.6150  125.4760   68.3650 C   0  0  0  0  0  0  0  0  0  0  0  0
  129.8690  125.0190   67.0820 C   0  0  0  0  0  0  0  0  0  0  0  0
  129.5080  125.7790   65.9530 C   0  0  0  0  0  0  0  0  0  0  0  0
  129.7480  125.3370   64.6380 C   0  0  0  0  0  0  0  0  0  0  0  0
  129.3860  126.1040   63.5440 C   0  0  0  0  0  0  0  0  0  0  0  0
  128.7670  127.3580   63.7070 C   0  0  0  0  0  0  0  0  0  0  0  0
  128.3870  128.1700   62.6130 C   0  0  0  0  0  0  0  0  0  0  0  0
  127.7810  129.4020   62.8110 C   0  0  0  0  0  0  0  0  0  0  0  0
  127.5290  129.8770   64.0910 C   0  0  0  0  0  0  0  0  0  0  0  0
  127.8810  129.1200   65.2330 C   0  0  0  0  0  0  0  0  0  0  0  0
  127.6460  129.5690   66.5430 C   0  0  0  0  0  0  0  0  0  0  0  0
  128.0010  128.8040   67.6410 C   0  0  0  0  0  0  0  0  0  0  0  0
  128.6130  127.5310   67.5030 C   0  0  0  0  0  0  0  0  0  0  0  0
  128.8740  127.0530   66.1650 C   0  0  0  0  0  0  0  0  0  0  0  0
  128.5090  127.8410   65.0390 C   0  0  0  0  0  0  0  0  0  0  0  0
  129.3490  126.7020   73.2850 N   0  0  0  0  0  0  0  0  0  0  0  0
  129.4770  125.4460   73.2820 O   0  0  0  0  0  0  0  0  0  0  0  0
  129.0560  127.3780   74.5920 C   0  0  1  0  0  0  0  0  0  0  0  0
  130.2320  127.5930   75.3250 O   0  0  0  0  0  0  0  0  0  0  0  0
  131.1870  126.5400   75.3220 C   0  0  0  0  0  0  0  0  0  0  0  0
  132.0810  126.6530   74.0730 C   0  0  0  0  0  0  0  0  0  0  0  0
  133.5840  126.4200   74.3260 C   0  0  0  0  0  0  0  0  0  0  0  0
  134.2800  127.6320   74.5320 O   0  0  0  0  0  0  0  0  0  0  0  0
  128.6149  129.4661   76.2034 H   0  0  0  0  0  0  0  0  0  0  0  0
  129.7328  130.2355   75.0265 H   0  0  0  0  0  0  0  0  0  0  0  0
  127.9900  130.6708   75.0265 H   0  0  0  0  0  0  0  0  0  0  0  0
  126.4215  128.4821   74.9853 H   0  0  0  0  0  0  0  0  0  0  0  0
  126.4870  129.3941   73.4392 H   0  0  0  0  0  0  0  0  0  0  0  0
  126.6967  127.6101   73.4392 H   0  0  0  0  0  0  0  0  0  0  0  0
  128.5025  129.5173   72.1296 H   0  0  0  0  0  0  0  0  0  0  0  0
  130.0696  129.5348   72.9335 H   0  0  0  0  0  0  0  0  0  0  0  0
  130.7132  126.8960   70.7434 H   0  0  0  0  0  0  0  0  0  0  0  0
  127.7279  127.4274   70.2747 H   0  0  0  0  0  0  0  0  0  0  0  0
  129.9135  124.8517   69.2200 H   0  0  0  0  0  0  0  0  0  0  0  0
  130.3614  124.0452   66.9429 H   0  0  0  0  0  0  0  0  0  0  0  0
  130.2328  124.3628   64.4767 H   0  0  0  0  0  0  0  0  0  0  0  0
  129.5854  125.7273   62.5299 H   0  0  0  0  0  0  0  0  0  0  0  0
  128.5752  127.8186   61.5878 H   0  0  0  0  0  0  0  0  0  0  0  0
  127.4959  130.0117   61.9409 H   0  0  0  0  0  0  0  0  0  0  0  0
  127.0478  130.8578   64.2192 H   0  0  0  0  0  0  0  0  0  0  0  0
  127.1702  130.5483   66.6997 H   0  0  0  0  0  0  0  0  0  0  0  0
  127.8028  129.1944   68.6501 H   0  0  0  0  0  0  0  0  0  0  0  0
  128.4026  126.7801   75.2443 H   0  0  0  0  0  0  0  0  0  0  0  0
  131.8106  126.6095   76.2255 H   0  0  0  0  0  0  0  0  0  0  0  0
  130.6628  125.5731   75.3083 H   0  0  0  0  0  0  0  0  0  0  0  0
  131.7387  125.9082   73.3395 H   0  0  0  0  0  0  0  0  0  0  0  0
  131.9854  127.6899   73.7185 H   0  0  0  0  0  0  0  0  0  0  0  0
  133.7001  125.7877   75.2186 H   0  0  0  0  0  0  0  0  0  0  0  0
  134.0069  125.9324   73.4353 H   0  0  0  0  0  0  0  0  0  0  0  0
  134.4610  128.0290   73.6770 H   0  0  0  0  0  0  0  0  0  0  0  0
  1  2  1  0
  2  3  1  0
  2  4  1  0
  4  5  1  0
  5  6  1  0
  6  7  2  0
  7  8  1  0
  8  9  2  0
  9 10  1  0
 10 11  2  0
 11 12  1  0
 12 13  2  0
 13 14  1  0
 14 15  2  0
 15 16  1  0
 16 17  2  0
 17 18  1  0
 18 19  2  0
 19 20  1  0
 20 21  2  0
 21 22  1  0
 22 23  2  0
  5 24  2  0
 24 25  1  0
 24 26  1  0
 26 27  1  0
 27 28  1  0
 28 29  1  0
 29 30  1  0
 30 31  1  0
 26  2  1  0
 21  8  1  0
 22 11  1  0
 23 14  1  0
 23 18  1  0
  1 32  1  0
  1 33  1  0
  1 34  1  0
  3 35  1  0
  3 36  1  0
  3 37  1  0
  4 38  1  0
  4 39  1  0
  6 40  1  0
  7 41  1  0
  9 42  1  0
 10 43  1  0
 12 44  1  0
 13 45  1  0
 15 46  1  0
 16 47  1  0
 17 48  1  0
 19 49  1  0
 20 50  1  0
 26 51  1  1
 28 52  1  0
 28 53  1  0
 29 54  1  0
 29 55  1  0
 30 56  1  0
 30 57  1  0
 31 58  1  0
M  CHG  2  24   1  25  -1
M  END
>  <Binding energies>  (1) 
[-7.55]

>  <Ligand effiencies>  (1) 
[-0.2359375]

>  <Interactions>  (1) 
["V-B:HIS:456:CD2:9039, V-B:GLU:543:C:9874, V-B:GLU:543:CB:9878, H-B:LYS:547:NZ:9923, V-B:HIS:456:CB:9036, H-A:ILE:546:O:4935, V-A:TYR:484:CE2:4346, V-B:GLU:543:CG:9879, V-A:HIS:456:CD2:4068, V-B:TYR:484:CE2:9317, V-A:LYS:547:CG:4948, V-A:HIS:456:CB:4065, V-A:TYR:484:CZ:4347, V-A:GLU:543:CD:4908, V-B:GLU:543:CA:9876, V-B:HIS:456:CE1:9041, V-A:HIS:456:CE1:4070, V-B:TYR:484:CZ:9318, V-A:HIS:456:CA:4063, V-A:GLU:543:CG:4907, V-B:GLU:543:CD:9880, V-B:HIS:456:CG:9037, H-A:LYS:547:NZ:4951, V-A:GLU:543:CB:4906, V-A:HIS:456:CG:4066, H-A:ARG:545:O:4918, H-A:GLY:544:O:4913"]

$$$$
ZINC95588074
     RDKit          3D

107110  0  0  0  0  0  0  0  0999 V2000
  126.7680  123.4570   62.0660 N   0  0  0  0  0  0  0  0  0  0  0  0
  127.3570  124.2210   61.1310 C   0  0  0  0  0  0  0  0  0  0  0  0
  126.9980  125.5090   61.0330 N   0  0  0  0  0  0  0  0  0  0  0  0
  128.2890  123.7450   60.2820 N   0  0  0  0  0  0  0  0  0  0  0  0
  128.7820  122.3570   60.1740 C   0  0  0  0  0  0  0  0  0  0  0  0
  128.7300  121.6050   61.5170 C   0  0  0  0  0  0  0  0  0  0  0  0
  130.1110  121.4260   62.1860 C   0  0  0  0  0  0  0  0  0  0  0  0
  130.7330  122.7210   62.7710 C   0  0  1  0  0  0  0  0  0  0  0  0
  131.6590  123.3720   61.8290 N   0  0  0  0  0  0  0  0  0  0  0  0
  132.6320  124.2640   62.1070 C   0  0  0  0  0  0  0  0  0  0  0  0
  132.9020  124.6650   63.2390 O   0  0  0  0  0  0  0  0  0  0  0  0
  133.4050  124.7870   60.8780 C   0  0  1  0  0  0  0  0  0  0  0  0
  134.2810  123.6660   60.2490 C   0  0  0  0  0  0  0  0  0  0  0  0
  133.8810  122.2540   60.6910 C   0  0  0  0  0  0  0  0  0  0  0  0
  134.5810  121.7060   61.6870 N   0  0  0  0  0  0  0  0  0  0  0  0
  132.9460  121.6710   60.1460 O   0  0  0  0  0  0  0  0  0  0  0  0
  132.5420  125.4450   59.8810 N   0  0  0  0  0  0  0  0  0  0  0  0
  132.6170  125.3890   58.5340 C   0  0  0  0  0  0  0  0  0  0  0  0
  133.4710  124.7330   57.9380 O   0  0  0  0  0  0  0  0  0  0  0  0
  131.5930  126.1880   57.7030 C   0  0  0  0  0  0  0  0  0  0  0  0
  131.0750  127.4660   58.3630 C   0  0  0  0  0  0  0  0  0  0  0  0
  129.8670  127.4530   59.0620 C   0  0  0  0  0  0  0  0  0  0  0  0
  129.4150  128.6090   59.6930 C   0  0  0  0  0  0  0  0  0  0  0  0
  130.1630  129.7930   59.6450 C   0  0  0  0  0  0  0  0  0  0  0  0
  129.6760  131.0320   60.3250 C   0  0  0  0  0  0  0  0  0  0  0  0
  128.6940  131.8380   59.7310 C   0  0  0  0  0  0  0  0  0  0  0  0
  128.2410  132.9930   60.3630 C   0  0  0  0  0  0  0  0  0  0  0  0
  128.7630  133.3520   61.6010 C   0  0  0  0  0  0  0  0  0  0  0  0
  129.7370  132.5660   62.2100 C   0  0  0  0  0  0  0  0  0  0  0  0
  130.1900  131.4140   61.5750 C   0  0  0  0  0  0  0  0  0  0  0  0
  131.3790  129.7880   58.9480 C   0  0  0  0  0  0  0  0  0  0  0  0
  131.8350  128.6360   58.3140 C   0  0  0  0  0  0  0  0  0  0  0  0
  129.6320  123.6630   63.2920 C   0  0  0  0  0  0  0  0  0  0  0  0
  128.5700  123.2100   63.7210 O   0  0  0  0  0  0  0  0  0  0  0  0
  129.9340  124.9740   63.2510 N   0  0  0  0  0  0  0  0  0  0  0  0
  129.1000  126.0910   63.7270 C   0  0  2  0  0  0  0  0  0  0  0  0
  129.3150  127.3550   62.8530 C   0  0  0  0  0  0  0  0  0  0  0  0
  128.1950  128.3790   62.9340 C   0  0  0  0  0  0  0  0  0  0  0  0
  128.3490  129.5440   63.7160 C   0  0  0  0  0  0  0  0  0  0  0  0
  127.3660  130.5250   63.7050 C   0  0  0  0  0  0  0  0  0  0  0  0
  126.2380  130.3740   62.9080 C   0  0  0  0  0  0  0  0  0  0  0  0
  126.0880  129.2470   62.1090 C   0  0  0  0  0  0  0  0  0  0  0  0
  127.0600  128.2570   62.1050 C   0  0  0  0  0  0  0  0  0  0  0  0
  129.2400  126.3860   65.2400 C   0  0  0  0  0  0  0  0  0  0  0  0
  130.0760  125.7720   65.9040 O   0  0  0  0  0  0  0  0  0  0  0  0
  128.4220  127.3240   65.7470 N   0  0  0  0  0  0  0  0  0  0  0  0
  128.3020  127.6830   67.1610 C   0  0  1  0  0  0  0  0  0  0  0  0
  129.6990  127.6400   67.8210 C   0  0  0  0  0  0  0  0  0  0  0  0
  129.6760  127.5480   69.3360 C   0  0  0  0  0  0  0  0  0  0  0  0
  130.7580  128.0470   70.0930 C   0  0  0  0  0  0  0  0  0  0  0  0
  130.6880  128.0600   71.4790 C   0  0  0  0  0  0  0  0  0  0  0  0
  129.5460  127.6090   72.1280 C   0  0  0  0  0  0  0  0  0  0  0  0
  128.4570  127.1510   71.3950 C   0  0  0  0  0  0  0  0  0  0  0  0
  128.5080  127.1290   70.0080 C   0  0  0  0  0  0  0  0  0  0  0  0
  127.6780  129.0850   67.2910 C   0  0  0  0  0  0  0  0  0  0  0  0
  126.4180  129.2210   66.8670 N   0  0  0  0  0  0  0  0  0  0  0  0
  128.3140  130.0140   67.7910 O   0  0  0  0  0  0  0  0  0  0  0  0
  126.0610  123.8490   62.6720 H   0  0  0  0  0  0  0  0  0  0  0  0
  127.0230  122.4840   62.1570 H   0  0  0  0  0  0  0  0  0  0  0  0
  126.2870  125.8860   61.6420 H   0  0  0  0  0  0  0  0  0  0  0  0
  127.4160  126.1000   60.3270 H   0  0  0  0  0  0  0  0  0  0  0  0
  128.6530  124.3850   59.5900 H   0  0  0  0  0  0  0  0  0  0  0  0
  128.1604  121.8180   59.4439 H   0  0  0  0  0  0  0  0  0  0  0  0
  129.8343  122.4005   59.8565 H   0  0  0  0  0  0  0  0  0  0  0  0
  128.0820  122.1681   62.2048 H   0  0  0  0  0  0  0  0  0  0  0  0
  128.3441  120.5970   61.3047 H   0  0  0  0  0  0  0  0  0  0  0  0
  130.0009  120.7007   63.0057 H   0  0  0  0  0  0  0  0  0  0  0  0
  130.7942  121.0903   61.3919 H   0  0  0  0  0  0  0  0  0  0  0  0
  131.3536  122.4420   63.6353 H   0  0  0  0  0  0  0  0  0  0  0  0
  131.5330  123.1010   60.8650 H   0  0  0  0  0  0  0  0  0  0  0  0
  134.0785  125.5759   61.2441 H   0  0  0  0  0  0  0  0  0  0  0  0
  134.1901  123.7266   59.1544 H   0  0  0  0  0  0  0  0  0  0  0  0
  135.3126  123.8316   60.5929 H   0  0  0  0  0  0  0  0  0  0  0  0
  135.3410  122.2090   62.1200 H   0  0  0  0  0  0  0  0  0  0  0  0
  134.3510  120.7790   62.0160 H   0  0  0  0  0  0  0  0  0  0  0  0
  131.8020  126.0060   60.2790 H   0  0  0  0  0  0  0  0  0  0  0  0
  132.0694  126.4655   56.7512 H   0  0  0  0  0  0  0  0  0  0  0  0
  130.7191  125.5311   57.5816 H   0  0  0  0  0  0  0  0  0  0  0  0
  129.2719  126.5293   59.1144 H   0  0  0  0  0  0  0  0  0  0  0  0
  128.4586  128.5926   60.2361 H   0  0  0  0  0  0  0  0  0  0  0  0
  128.2765  131.5542   58.7537 H   0  0  0  0  0  0  0  0  0  0  0  0
  127.4732  133.6191   59.8849 H   0  0  0  0  0  0  0  0  0  0  0  0
  128.4038  134.2630   62.1021 H   0  0  0  0  0  0  0  0  0  0  0  0
  130.1468  132.8544   63.1892 H   0  0  0  0  0  0  0  0  0  0  0  0
  130.9602  130.7947   62.0579 H   0  0  0  0  0  0  0  0  0  0  0  0
  131.9813  130.7073   58.9014 H   0  0  0  0  0  0  0  0  0  0  0  0
  132.7936  128.6474   57.7746 H   0  0  0  0  0  0  0  0  0  0  0  0
  130.8340  125.2460   62.8840 H   0  0  0  0  0  0  0  0  0  0  0  0
  128.0557  125.7668   63.6074 H   0  0  0  0  0  0  0  0  0  0  0  0
  130.2477  127.8406   63.1759 H   0  0  0  0  0  0  0  0  0  0  0  0
  129.3467  127.0100   61.8090 H   0  0  0  0  0  0  0  0  0  0  0  0
  129.2488  129.6750   64.3350 H   0  0  0  0  0  0  0  0  0  0  0  0
  127.4807  131.4237   64.3288 H   0  0  0  0  0  0  0  0  0  0  0  0
  125.4593  131.1509   62.9095 H   0  0  0  0  0  0  0  0  0  0  0  0
  125.1944  129.1393   61.4767 H   0  0  0  0  0  0  0  0  0  0  0  0
  126.9457  127.3768   61.4553 H   0  0  0  0  0  0  0  0  0  0  0  0
  127.7700  127.7860   65.1310 H   0  0  0  0  0  0  0  0  0  0  0  0
  127.6467  126.9638   67.6741 H   0  0  0  0  0  0  0  0  0  0  0  0
  130.2363  126.7627   67.4315 H   0  0  0  0  0  0  0  0  0  0  0  0
  130.1922  128.5913   67.5724 H   0  0  0  0  0  0  0  0  0  0  0  0
  131.6568  128.4256   69.5842 H   0  0  0  0  0  0  0  0  0  0  0  0
  131.5414  128.4294   72.0665 H   0  0  0  0  0  0  0  0  0  0  0  0
  129.5029  127.6142   73.2271 H   0  0  0  0  0  0  0  0  0  0  0  0
  127.5520  126.8049   71.9159 H   0  0  0  0  0  0  0  0  0  0  0  0
  127.6366  126.7844   69.4318 H   0  0  0  0  0  0  0  0  0  0  0  0
  125.9250  128.4350   66.4680 H   0  0  0  0  0  0  0  0  0  0  0  0
  125.9550  130.1160   66.9340 H   0  0  0  0  0  0  0  0  0  0  0  0
  1  2  1  0
  2  3  2  0
  2  4  1  0
  4  5  1  0
  5  6  1  0
  6  7  1  0
  7  8  1  0
  8  9  1  0
  9 10  1  0
 10 11  2  0
 10 12  1  0
 12 13  1  0
 13 14  1  0
 14 15  1  0
 14 16  2  0
 12 17  1  0
 17 18  1  0
 18 19  2  0
 18 20  1  0
 20 21  1  0
 21 22  2  0
 22 23  1  0
 23 24  2  0
 24 25  1  0
 25 26  2  0
 26 27  1  0
 27 28  2  0
 28 29  1  0
 29 30  2  0
 24 31  1  0
 31 32  2  0
  8 33  1  0
 33 34  2  0
 33 35  1  0
 35 36  1  0
 36 37  1  0
 37 38  1  0
 38 39  2  0
 39 40  1  0
 40 41  2  0
 41 42  1  0
 42 43  2  0
 36 44  1  0
 44 45  2  0
 44 46  1  0
 46 47  1  0
 47 48  1  0
 48 49  1  0
 49 50  2  0
 50 51  1  0
 51 52  2  0
 52 53  1  0
 53 54  2  0
 47 55  1  0
 55 56  1  0
 55 57  2  0
 32 21  1  0
 43 38  1  0
 54 49  1  0
 30 25  1  0
  1 58  1  0
  1 59  1  0
  3 60  1  0
  3 61  1  0
  4 62  1  0
  5 63  1  0
  5 64  1  0
  6 65  1  0
  6 66  1  0
  7 67  1  0
  7 68  1  0
  8 69  1  1
  9 70  1  0
 12 71  1  1
 13 72  1  0
 13 73  1  0
 15 74  1  0
 15 75  1  0
 17 76  1  0
 20 77  1  0
 20 78  1  0
 22 79  1  0
 23 80  1  0
 26 81  1  0
 27 82  1  0
 28 83  1  0
 29 84  1  0
 30 85  1  0
 31 86  1  0
 32 87  1  0
 35 88  1  0
 36 89  1  1
 37 90  1  0
 37 91  1  0
 39 92  1  0
 40 93  1  0
 41 94  1  0
 42 95  1  0
 43 96  1  0
 46 97  1  0
 47 98  1  1
 48 99  1  0
 48100  1  0
 50101  1  0
 51102  1  0
 52103  1  0
 53104  1  0
 54105  1  0
 56106  1  0
 56107  1  0
M  CHG  1   3   1
M  END
>  <Binding energies>  (1) 
[-10.85]

>  <Ligand effiencies>  (1) 
[-0.155]

>  <Interactions>  (1) 
["V-A:ILE:369:CG2:3237, V-A:ASP:366:CA:3210, V-B:PRO:540:CA:9855, V-A:GLY:454:CA:4049, V-A:ILE:369:CB:3236, V-A:GLU:543:C:4902, V-A:PRO:540:C:4881, V-B:GLU:543:CB:9878, V-B:ALA:541:CB:9864, V-B:TYR:539:CE2:9848, H-B:ALA:541:O:9861, V-B:GLU:543:CG:9879, V-A:GLY:544:C:4912, V-B:TYR:539:C:9839, V-A:ASP:366:CG:3213, V-A:TYR:539:CD1:4873, H-B:GLU:543:OE1:9881, H-B:TYR:539:OH:9850, V-A:ALA:541:CB:4892, V-A:GLU:543:CD:4908, H-B:TYR:484:OH:9319, H-B:ASP:366:OD1:8185, V-B:HIS:456:CE1:9041, V-A:SER:385:C:3405, V-A:ILE:369:CD1:3239, V-A:HIS:456:CE1:4070, V-B:TYR:484:CZ:9318, V-A:ALA:541:CA:4890, V-B:TYR:539:CD2:9846, V-A:TYR:531:CZ:4794, V-A:SER:385:CB:3409, H-A:SER:385:OG:3410, V-B:GLU:543:CD:9880, V-A:GLU:543:CG:4907, V-A:ILE:369:CG1:3238, V-A:ASP:366:CB:3212, V-A:LEU:475:CD2:4259, H-A:ARG:545:NH2:4928, V-A:GLU:543:CB:4906, H-A:ASP:366:OD1:3214, H-B:GLU:543:OE2:9882, V-A:PRO:540:CA:4883, H-A:SER:385:O:3406, V-B:PRO:540:C:9853, V-A:SER:385:CA:3407, H-A:ASP:366:OD2:3215, V-B:ALA:541:CA:9862"]

$$$$
ZINC95608667
     RDKit          3D

114118  0  0  0  0  0  0  0  0999 V2000
  133.2200  125.5380   67.2220 C   0  0  0  0  0  0  0  0  0  0  0  0
  134.2670  125.0810   66.1900 C   0  0  0  0  0  0  0  0  0  0  0  0
  133.7760  125.0450   64.7230 C   0  0  0  0  0  0  0  0  0  0  0  0
  132.2720  125.2990   64.5750 C   0  0  0  0  0  0  0  0  0  0  0  0
  131.8750  126.1810   63.8120 O   0  0  0  0  0  0  0  0  0  0  0  0
  131.4620  124.5060   65.3020 N   0  0  0  0  0  0  0  0  0  0  0  0
  129.9810  124.5160   65.3460 C   0  0  2  0  0  0  0  0  0  0  0  0
  129.4920  125.5140   66.4480 C   0  0  0  0  0  0  0  0  0  0  0  0
  129.3150  125.1080   67.5990 O   0  0  0  0  0  0  0  0  0  0  0  0
  129.3040  126.8060   66.1060 N   0  0  0  0  0  0  0  0  0  0  0  0
  128.7920  127.9100   66.9270 C   0  0  2  0  0  0  0  0  0  0  0  0
  127.9160  127.4090   68.1040 C   0  0  0  0  0  0  0  0  0  0  0  0
  128.5560  127.4920   69.4810 C   0  0  0  0  0  0  0  0  0  0  0  0
  129.8890  127.9340   69.6270 C   0  0  0  0  0  0  0  0  0  0  0  0
  130.4970  127.9080   70.8750 C   0  0  0  0  0  0  0  0  0  0  0  0
  129.8070  127.4240   71.9790 C   0  0  0  0  0  0  0  0  0  0  0  0
  128.5080  126.9500   71.8450 C   0  0  0  0  0  0  0  0  0  0  0  0
  127.8820  126.9680   70.6050 C   0  0  0  0  0  0  0  0  0  0  0  0
  128.1400  129.0350   66.0990 C   0  0  0  0  0  0  0  0  0  0  0  0
  127.9520  130.1430   66.6010 O   0  0  0  0  0  0  0  0  0  0  0  0
  127.8380  128.7250   64.8250 N   0  0  0  0  0  0  0  0  0  0  0  0
  127.1790  129.6270   63.8780 C   0  0  1  0  0  0  0  0  0  0  0  0
  127.5750  131.0800   64.2240 C   0  0  0  0  0  0  0  0  0  0  0  0
  129.0970  131.3500   64.2540 C   0  0  0  0  0  0  0  0  0  0  0  0
  129.6660  131.8920   62.9300 C   0  0  0  0  0  0  0  0  0  0  0  0
  131.1300  132.0670   62.9640 N   0  0  0  0  0  0  0  0  0  0  0  0
  132.0420  131.4230   62.2090 C   0  0  0  0  0  0  0  0  0  0  0  0
  131.6960  130.5020   61.2930 N   0  0  0  0  0  0  0  0  0  0  0  0
  133.3400  131.7120   62.3780 N   0  0  0  0  0  0  0  0  0  0  0  0
  127.5080  129.2600   62.4180 C   0  0  0  0  0  0  0  0  0  0  0  0
  126.7700  129.6450   61.5100 O   0  0  0  0  0  0  0  0  0  0  0  0
  128.6010  128.5040   62.2450 N   0  0  0  0  0  0  0  0  0  0  0  0
  129.0860  128.0240   60.9540 C   0  0  1  0  0  0  0  0  0  0  0  0
  130.4870  127.4020   61.1430 C   0  0  0  0  0  0  0  0  0  0  0  0
  131.1680  126.8880   59.9060 C   0  0  0  0  0  0  0  0  0  0  0  0
  130.8720  127.2590   58.6400 C   0  0  0  0  0  0  0  0  0  0  0  0
  131.6570  126.5510   57.7550 N   0  0  0  0  0  0  0  0  0  0  0  0
  132.4910  125.6660   58.4040 C   0  0  0  0  0  0  0  0  0  0  0  0
  133.4460  124.7350   57.9590 C   0  0  0  0  0  0  0  0  0  0  0  0
  134.1360  123.9540   58.9030 C   0  0  0  0  0  0  0  0  0  0  0  0
  133.8640  124.1120   60.2770 C   0  0  0  0  0  0  0  0  0  0  0  0
  132.9070  125.0500   60.7110 C   0  0  0  0  0  0  0  0  0  0  0  0
  132.1950  125.8550   59.7890 C   0  0  0  0  0  0  0  0  0  0  0  0
  128.0710  127.0320   60.3640 C   0  0  0  0  0  0  0  0  0  0  0  0
  128.0670  126.8070   59.1530 O   0  0  0  0  0  0  0  0  0  0  0  0
  127.2140  126.4820   61.2400 N   0  0  0  0  0  0  0  0  0  0  0  0
  126.1750  125.5150   60.8850 C   0  0  0  0  0  0  0  0  0  0  0  0
  126.7490  124.1030   60.6520 C   0  0  0  0  0  0  0  0  0  0  0  0
  127.4530  123.9290   59.5320 N   0  0  0  0  0  0  0  0  0  0  0  0
  126.5470  123.1760   61.4370 O   0  0  0  0  0  0  0  0  0  0  0  0
  129.4600  123.1200   65.7980 C   0  0  0  0  0  0  0  0  0  0  0  0
  129.9460  121.9810   64.8640 C   0  0  0  0  0  0  0  0  0  0  0  0
  129.9480  122.3620   63.3750 C   0  0  0  0  0  0  0  0  0  0  0  0
  130.2870  121.4050   62.4120 C   0  0  0  0  0  0  0  0  0  0  0  0
  130.3880  121.7400   61.0630 C   0  0  0  0  0  0  0  0  0  0  0  0
  130.1510  123.0490   60.6580 C   0  0  0  0  0  0  0  0  0  0  0  0
  129.7990  124.0120   61.5990 C   0  0  0  0  0  0  0  0  0  0  0  0
  129.6810  123.6860   62.9550 C   0  0  0  0  0  0  0  0  0  0  0  0
  129.2430  124.7300   63.9800 C   0  0  0  0  0  0  0  0  0  0  0  0
  133.6078  125.3687   68.2374 H   0  0  0  0  0  0  0  0  0  0  0  0
  133.0113  126.6090   67.0830 H   0  0  0  0  0  0  0  0  0  0  0  0
  132.2928  124.9628   67.0830 H   0  0  0  0  0  0  0  0  0  0  0  0
  135.1225  125.7702   66.2454 H   0  0  0  0  0  0  0  0  0  0  0  0
  134.5203  124.0431   66.4521 H   0  0  0  0  0  0  0  0  0  0  0  0
  134.3169  125.8169   64.1558 H   0  0  0  0  0  0  0  0  0  0  0  0
  133.9721  124.0322   64.3411 H   0  0  0  0  0  0  0  0  0  0  0  0
  131.9000  124.0280   66.0750 H   0  0  0  0  0  0  0  0  0  0  0  0
  129.4980  127.0630   65.1490 H   0  0  0  0  0  0  0  0  0  0  0  0
  129.6698  128.3843   67.3901 H   0  0  0  0  0  0  0  0  0  0  0  0
  126.9959  128.0116   68.1215 H   0  0  0  0  0  0  0  0  0  0  0  0
  127.7432  126.3390   67.9164 H   0  0  0  0  0  0  0  0  0  0  0  0
  130.4461  128.2991   68.7516 H   0  0  0  0  0  0  0  0  0  0  0  0
  131.5287  128.2720   70.9898 H   0  0  0  0  0  0  0  0  0  0  0  0
  130.2924  127.4159   72.9661 H   0  0  0  0  0  0  0  0  0  0  0  0
  127.9735  126.5593   72.7234 H   0  0  0  0  0  0  0  0  0  0  0  0
  126.8606  126.5737   70.4990 H   0  0  0  0  0  0  0  0  0  0  0  0
  128.0390  127.7970   64.4830 H   0  0  0  0  0  0  0  0  0  0  0  0
  126.0876  129.5247   63.9693 H   0  0  0  0  0  0  0  0  0  0  0  0
  127.1247  131.7451   63.4725 H   0  0  0  0  0  0  0  0  0  0  0  0
  127.2085  131.2651   65.2445 H   0  0  0  0  0  0  0  0  0  0  0  0
  129.3016  132.0865   65.0450 H   0  0  0  0  0  0  0  0  0  0  0  0
  129.5870  130.3824   64.4371 H   0  0  0  0  0  0  0  0  0  0  0  0
  129.4155  131.1856   62.1249 H   0  0  0  0  0  0  0  0  0  0  0  0
  129.2188  132.8824   62.7591 H   0  0  0  0  0  0  0  0  0  0  0  0
  131.4700  132.7460   63.6300 H   0  0  0  0  0  0  0  0  0  0  0  0
  132.4050  130.0390   60.7430 H   0  0  0  0  0  0  0  0  0  0  0  0
  130.7230  130.2740   61.1500 H   0  0  0  0  0  0  0  0  0  0  0  0
  133.6200  132.4030   63.0600 H   0  0  0  0  0  0  0  0  0  0  0  0
  134.0420  131.2430   61.8230 H   0  0  0  0  0  0  0  0  0  0  0  0
  129.1490  128.2260   63.0460 H   0  0  0  0  0  0  0  0  0  0  0  0
  129.1843  128.8524   60.2370 H   0  0  0  0  0  0  0  0  0  0  0  0
  131.1365  128.1712   61.5862 H   0  0  0  0  0  0  0  0  0  0  0  0
  130.3279  126.5162   61.7755 H   0  0  0  0  0  0  0  0  0  0  0  0
  130.1198  128.0108   58.3591 H   0  0  0  0  0  0  0  0  0  0  0  0
  131.5980  126.6800   56.7540 H   0  0  0  0  0  0  0  0  0  0  0  0
  133.6511  124.6189   56.8845 H   0  0  0  0  0  0  0  0  0  0  0  0
  134.8861  123.2216   58.5701 H   0  0  0  0  0  0  0  0  0  0  0  0
  134.4024  123.4990   61.0148 H   0  0  0  0  0  0  0  0  0  0  0  0
  132.7088  125.1593   61.7875 H   0  0  0  0  0  0  0  0  0  0  0  0
  127.2820  126.7330   62.2160 H   0  0  0  0  0  0  0  0  0  0  0  0
  125.4403  125.4683   61.7023 H   0  0  0  0  0  0  0  0  0  0  0  0
  125.7089  125.8493   59.9464 H   0  0  0  0  0  0  0  0  0  0  0  0
  127.6010  124.6970   58.8950 H   0  0  0  0  0  0  0  0  0  0  0  0
  127.8430  123.0230   59.3170 H   0  0  0  0  0  0  0  0  0  0  0  0
  129.8216  122.9203   66.8175 H   0  0  0  0  0  0  0  0  0  0  0  0
  128.3609  123.1417   65.7593 H   0  0  0  0  0  0  0  0  0  0  0  0
  130.9713  121.7077   65.1540 H   0  0  0  0  0  0  0  0  0  0  0  0
  129.2400  121.1456   64.9813 H   0  0  0  0  0  0  0  0  0  0  0  0
  130.4775  120.3681   62.7259 H   0  0  0  0  0  0  0  0  0  0  0  0
  130.6541  120.9721   60.3217 H   0  0  0  0  0  0  0  0  0  0  0  0
  130.2415  123.3226   59.5964 H   0  0  0  0  0  0  0  0  0  0  0  0
  129.6106  125.0453   61.2720 H   0  0  0  0  0  0  0  0  0  0  0  0
  129.4797  125.7333   63.5960 H   0  0  0  0  0  0  0  0  0  0  0  0
  128.1603  124.6277   64.1455 H   0  0  0  0  0  0  0  0  0  0  0  0
  1  2  1  0
  2  3  1  0
  3  4  1  0
  4  5  2  0
  4  6  1  0
  7  6  1  6
  7  8  1  0
  8  9  2  0
  8 10  1  0
 10 11  1  0
 11 12  1  0
 12 13  1  0
 13 14  2  0
 14 15  1  0
 15 16  2  0
 16 17  1  0
 17 18  2  0
 11 19  1  0
 19 20  2  0
 19 21  1  0
 21 22  1  0
 22 23  1  0
 23 24  1  0
 24 25  1  0
 25 26  1  0
 26 27  1  0
 27 28  1  0
 27 29  2  0
 22 30  1  0
 30 31  2  0
 30 32  1  0
 32 33  1  0
 33 34  1  0
 34 35  1  0
 35 36  2  0
 36 37  1  0
 37 38  1  0
 38 39  2  0
 39 40  1  0
 40 41  2  0
 41 42  1  0
 42 43  2  0
 33 44  1  0
 44 45  2  0
 44 46  1  0
 46 47  1  0
 47 48  1  0
 48 49  1  0
 48 50  2  0
  7 51  1  0
 51 52  1  0
 52 53  1  0
 53 54  2  0
 54 55  1  0
 55 56  2  0
 56 57  1  0
 57 58  2  0
 58 59  1  0
 59  7  1  0
 18 13  1  0
 43 35  1  0
 58 53  1  0
 43 38  1  0
  1 60  1  0
  1 61  1  0
  1 62  1  0
  2 63  1  0
  2 64  1  0
  3 65  1  0
  3 66  1  0
  6 67  1  0
 10 68  1  0
 11 69  1  1
 12 70  1  0
 12 71  1  0
 14 72  1  0
 15 73  1  0
 16 74  1  0
 17 75  1  0
 18 76  1  0
 21 77  1  0
 22 78  1  6
 23 79  1  0
 23 80  1  0
 24 81  1  0
 24 82  1  0
 25 83  1  0
 25 84  1  0
 26 85  1  0
 28 86  1  0
 28 87  1  0
 29 88  1  0
 29 89  1  0
 32 90  1  0
 33 91  1  6
 34 92  1  0
 34 93  1  0
 36 94  1  0
 37 95  1  0
 39 96  1  0
 40 97  1  0
 41 98  1  0
 42 99  1  0
 46100  1  0
 47101  1  0
 47102  1  0
 49103  1  0
 49104  1  0
 51105  1  0
 51106  1  0
 52107  1  0
 52108  1  0
 54109  1  0
 55110  1  0
 56111  1  0
 57112  1  0
 59113  1  0
 59114  1  0
M  CHG  1  29   1
M  END
>  <Binding energies>  (1) 
[-11.32]

>  <Ligand effiencies>  (1) 
[-0.15722222222222224]

>  <Interactions>  (1) 
["V-A:ILE:369:CG2:3237, V-A:ASP:366:CA:3210, V-B:PRO:540:CA:9855, V-A:ALA:541:C:4888, V-A:GLY:454:CA:4049, V-B:GLU:543:C:9874, H-A:GLU:543:OE2:4910, V-A:GLU:543:C:4902, V-A:ILE:369:CB:3236, V-B:GLU:543:CB:9878, H-A:ALA:541:O:4889, V-B:ALA:541:CB:9864, V-B:ASP:366:CG:8184, H-A:TYR:531:OH:4795, V-A:TYR:484:CE2:4346, V-B:TYR:539:CE2:9848, V-B:GLU:543:CG:9879, V-A:GLY:544:C:4912, V-A:HIS:456:CD2:4068, V-A:ASN:362:CB:3176, V-A:ASP:366:CG:3213, V-B:TYR:539:CZ:9849, H-B:GLU:543:OE1:9881, H-B:TYR:539:OH:9850, V-A:ALA:541:CB:4892, H-B:ALA:541:N:9863, V-A:LEU:475:CD1:4258, V-A:GLU:543:CD:4908, V-A:TYR:484:CZ:4347, H-B:TYR:484:OH:9319, V-A:ASN:362:CG:3177, V-B:GLU:543:CA:9876, V-A:ARG:545:CG:4922, V-B:HIS:456:CE1:9041, V-A:GLY:453:C:4042, V-A:HIS:456:CE1:4070, V-A:ILE:369:CD1:3239, V-B:GLY:544:C:9884, V-A:ASP:366:C:3208, V-A:ALA:541:CA:4890, V-B:TYR:539:CD2:9846, V-A:GLU:543:CG:4907, V-A:TYR:531:CZ:4794, V-B:GLU:543:CD:9880, V-A:ASP:366:CB:3212, V-A:ARG:545:CD:4923, V-A:LEU:475:CD2:4259, H-A:ARG:545:NH2:4928, V-A:ARG:545:CZ:4926, H-A:GLU:543:OE1:4909, V-A:GLU:543:CB:4906, H-B:GLU:543:OE2:9882, V-A:GLY:453:CA:4044, V-A:PRO:540:CB:4885, H-A:ARG:545:NE:4924, H-A:ASP:366:OD2:3215, H-A:TYR:484:OH:4348"]

$$$$
ZINC95612121-again1
     RDKit          3D

107110  0  0  0  0  0  0  0  0999 V2000
  129.0790  133.2040   58.6110 C   0  0  0  0  0  0  0  0  0  0  0  0
  129.6200  132.7880   57.2370 C   0  0  0  0  0  0  0  0  0  0  0  0
  129.7310  131.2570   57.0770 C   0  0  0  0  0  0  0  0  0  0  0  0
  130.4210  130.5640   58.2630 C   0  0  0  0  0  0  0  0  0  0  0  0
  131.6350  130.3540   58.2450 O   0  0  0  0  0  0  0  0  0  0  0  0
  129.6290  130.2080   59.2880 N   0  0  0  0  0  0  0  0  0  0  0  0
  130.0810  129.5000   60.4890 C   0  0  1  0  0  0  0  0  0  0  0  0
  130.2430  130.5000   61.6500 C   0  0  0  0  0  0  0  0  0  0  0  0
  131.6040  131.1490   61.7640 C   0  0  0  0  0  0  0  0  0  0  0  0
  132.2050  131.8730   62.7720 C   0  0  0  0  0  0  0  0  0  0  0  0
  133.4890  132.2600   62.3800 N   0  0  0  0  0  0  0  0  0  0  0  0
  133.6170  131.7610   61.1560 C   0  0  0  0  0  0  0  0  0  0  0  0
  132.5350  131.0960   60.7420 N   0  0  0  0  0  0  0  0  0  0  0  0
  129.1070  128.3780   60.8730 C   0  0  0  0  0  0  0  0  0  0  0  0
  129.5020  127.4300   61.5520 O   0  0  0  0  0  0  0  0  0  0  0  0
  127.8520  128.5110   60.4110 N   0  0  0  0  0  0  0  0  0  0  0  0
  126.7370  127.6220   60.7470 C   0  0  2  0  0  0  0  0  0  0  0  0
  126.2090  127.8630   62.1890 C   0  0  0  0  0  0  0  0  0  0  0  0
  126.8330  129.0760   62.8850 C   0  0  0  0  0  0  0  0  0  0  0  0
  127.5740  128.8950   64.0580 C   0  0  0  0  0  0  0  0  0  0  0  0
  128.1610  129.9860   64.6990 C   0  0  0  0  0  0  0  0  0  0  0  0
  128.0120  131.2720   64.1790 C   0  0  0  0  0  0  0  0  0  0  0  0
  128.7590  132.5980   64.9990 Cl  0  0  0  0  0  0  0  0  0  0  0  0
  127.2630  131.4650   63.0100 C   0  0  0  0  0  0  0  0  0  0  0  0
  127.0500  133.0410   62.3280 Cl  0  0  0  0  0  0  0  0  0  0  0  0
  126.6750  130.3710   62.3740 C   0  0  0  0  0  0  0  0  0  0  0  0
  127.1910  126.1690   60.5330 C   0  0  0  0  0  0  0  0  0  0  0  0
  126.9530  125.6040   59.4640 O   0  0  0  0  0  0  0  0  0  0  0  0
  127.7790  125.5790   61.5880 N   0  0  0  0  0  0  0  0  0  0  0  0
  128.0230  124.1410   61.6940 C   0  0  1  0  0  0  0  0  0  0  0  0
  128.8110  123.6530   60.4630 C   0  0  0  0  0  0  0  0  0  0  0  0
  130.0780  124.4790   60.1630 C   0  0  0  0  0  0  0  0  0  0  0  0
  130.3950  124.6080   58.6610 C   0  0  0  0  0  0  0  0  0  0  0  0
  130.8870  125.9500   58.3000 N   0  0  0  0  0  0  0  0  0  0  0  0
  131.6080  126.7860   59.0710 C   0  0  0  0  0  0  0  0  0  0  0  0
  131.9670  126.4780   60.3290 N   0  0  0  0  0  0  0  0  0  0  0  0
  131.9820  127.9690   58.5620 N   0  0  0  0  0  0  0  0  0  0  0  0
  128.8100  123.8430   62.9790 C   0  0  0  0  0  0  0  0  0  0  0  0
  128.5380  122.8370   63.6360 O   0  0  0  0  0  0  0  0  0  0  0  0
  129.7490  124.7400   63.3210 N   0  0  0  0  0  0  0  0  0  0  0  0
  130.5640  124.6540   64.5330 C   0  0  1  0  0  0  0  0  0  0  0  0
  131.9000  125.3840   64.2930 C   0  0  0  0  0  0  0  0  0  0  0  0
  132.8800  124.6870   63.3920 C   0  0  0  0  0  0  0  0  0  0  0  0
  134.1440  125.1030   63.1490 C   0  0  0  0  0  0  0  0  0  0  0  0
  134.7330  124.2730   62.2180 N   0  0  0  0  0  0  0  0  0  0  0  0
  133.8710  123.2810   61.7990 C   0  0  0  0  0  0  0  0  0  0  0  0
  133.9910  122.2250   60.8780 C   0  0  0  0  0  0  0  0  0  0  0  0
  132.8900  121.3750   60.6620 C   0  0  0  0  0  0  0  0  0  0  0  0
  131.6890  121.5900   61.3640 C   0  0  0  0  0  0  0  0  0  0  0  0
  131.5830  122.6500   62.2890 C   0  0  0  0  0  0  0  0  0  0  0  0
  132.6700  123.5220   62.5330 C   0  0  0  0  0  0  0  0  0  0  0  0
  129.8160  125.2000   65.7650 C   0  0  0  0  0  0  0  0  0  0  0  0
  129.4480  124.4270   66.6510 O   0  0  0  0  0  0  0  0  0  0  0  0
  129.5900  126.5230   65.7710 N   0  0  0  0  0  0  0  0  0  0  0  0
  128.9190  127.2380   66.8540 C   0  0  0  0  0  0  0  0  0  0  0  0
  129.5530  126.8870   68.2110 C   0  0  0  0  0  0  0  0  0  0  0  0
  129.1040  125.7860   68.8170 N   0  0  0  0  0  0  0  0  0  0  0  0
  130.3970  127.6130   68.7370 O   0  0  0  0  0  0  0  0  0  0  0  0
  129.6860  132.7372   59.4007 H   0  0  0  0  0  0  0  0  0  0  0  0
  129.1290  134.2985   58.7087 H   0  0  0  0  0  0  0  0  0  0  0  0
  128.0341  132.8745   58.7087 H   0  0  0  0  0  0  0  0  0  0  0  0
  128.9430  133.1744   56.4609 H   0  0  0  0  0  0  0  0  0  0  0  0
  130.6329  133.2057   57.1393 H   0  0  0  0  0  0  0  0  0  0  0  0
  128.7169  130.8434   56.9743 H   0  0  0  0  0  0  0  0  0  0  0  0
  130.3508  131.0691   56.1878 H   0  0  0  0  0  0  0  0  0  0  0  0
  128.6400  130.4010   59.2390 H   0  0  0  0  0  0  0  0  0  0  0  0
  131.0543  129.0343   60.2750 H   0  0  0  0  0  0  0  0  0  0  0  0
  129.4971  131.2975   61.5171 H   0  0  0  0  0  0  0  0  0  0  0  0
  130.1080  129.9165   62.5727 H   0  0  0  0  0  0  0  0  0  0  0  0
  131.7421  132.1107   63.7411 H   0  0  0  0  0  0  0  0  0  0  0  0
  134.5231  131.8830   60.5444 H   0  0  0  0  0  0  0  0  0  0  0  0
  132.4200  130.6400   59.8480 H   0  0  0  0  0  0  0  0  0  0  0  0
  127.6160  129.3160   59.8480 H   0  0  0  0  0  0  0  0  0  0  0  0
  125.8868  127.8395   60.0838 H   0  0  0  0  0  0  0  0  0  0  0  0
  125.1207  128.0150   62.1382 H   0  0  0  0  0  0  0  0  0  0  0  0
  126.4853  126.9784   62.7816 H   0  0  0  0  0  0  0  0  0  0  0  0
  127.6945  127.8853   64.4776 H   0  0  0  0  0  0  0  0  0  0  0  0
  128.7441  129.8317   65.6188 H   0  0  0  0  0  0  0  0  0  0  0  0
  126.0809  130.5270   61.4615 H   0  0  0  0  0  0  0  0  0  0  0  0
  127.9240  126.1130   62.4320 H   0  0  0  0  0  0  0  0  0  0  0  0
  127.0604  123.6101   61.7331 H   0  0  0  0  0  0  0  0  0  0  0  0
  129.1113  122.6090   60.6359 H   0  0  0  0  0  0  0  0  0  0  0  0
  128.1454  123.7633   59.5942 H   0  0  0  0  0  0  0  0  0  0  0  0
  129.9394  125.4890   60.5762 H   0  0  0  0  0  0  0  0  0  0  0  0
  130.9235  123.9477   60.6244 H   0  0  0  0  0  0  0  0  0  0  0  0
  131.1651  123.8677   58.3984 H   0  0  0  0  0  0  0  0  0  0  0  0
  129.4608  124.4347   58.1066 H   0  0  0  0  0  0  0  0  0  0  0  0
  130.6590  126.2570   57.3640 H   0  0  0  0  0  0  0  0  0  0  0  0
  132.5140  127.1280   60.8760 H   0  0  0  0  0  0  0  0  0  0  0  0
  131.6910  125.5940   60.7300 H   0  0  0  0  0  0  0  0  0  0  0  0
  131.7240  128.2190   57.6190 H   0  0  0  0  0  0  0  0  0  0  0  0
  132.5270  128.6130   59.1180 H   0  0  0  0  0  0  0  0  0  0  0  0
  129.9110  125.5440   62.7320 H   0  0  0  0  0  0  0  0  0  0  0  0
  130.7733  123.5968   64.7533 H   0  0  0  0  0  0  0  0  0  0  0  0
  131.6726  126.3641   63.8484 H   0  0  0  0  0  0  0  0  0  0  0  0
  132.3889  125.4379   65.2769 H   0  0  0  0  0  0  0  0  0  0  0  0
  134.6281  125.9704   63.6215 H   0  0  0  0  0  0  0  0  0  0  0  0
  135.6800  124.4060   61.8920 H   0  0  0  0  0  0  0  0  0  0  0  0
  134.9333  122.0653   60.3333 H   0  0  0  0  0  0  0  0  0  0  0  0
  132.9680  120.5439   59.9456 H   0  0  0  0  0  0  0  0  0  0  0  0
  130.8281  120.9277   61.1904 H   0  0  0  0  0  0  0  0  0  0  0  0
  130.6376  122.8013   62.8306 H   0  0  0  0  0  0  0  0  0  0  0  0
  129.9230  127.0800   64.9970 H   0  0  0  0  0  0  0  0  0  0  0  0
  129.0093  128.3208   66.6824 H   0  0  0  0  0  0  0  0  0  0  0  0
  127.8598  126.9417   66.8709 H   0  0  0  0  0  0  0  0  0  0  0  0
  128.4000  125.2120   68.3790 H   0  0  0  0  0  0  0  0  0  0  0  0
  129.4740  125.5190   69.7180 H   0  0  0  0  0  0  0  0  0  0  0  0
  1  2  1  0
  2  3  1  0
  3  4  1  0
  4  5  2  0
  4  6  1  0
  6  7  1  0
  7  8  1  0
  8  9  1  0
  9 10  2  0
 10 11  1  0
 11 12  2  0
 12 13  1  0
  7 14  1  0
 14 15  2  0
 14 16  1  0
 16 17  1  0
 17 18  1  0
 18 19  1  0
 19 20  2  0
 20 21  1  0
 21 22  2  0
 22 23  1  0
 22 24  1  0
 24 25  1  0
 24 26  2  0
 17 27  1  0
 27 28  2  0
 27 29  1  0
 29 30  1  0
 30 31  1  0
 31 32  1  0
 32 33  1  0
 33 34  1  0
 34 35  1  0
 35 36  1  0
 35 37  2  0
 30 38  1  0
 38 39  2  0
 38 40  1  0
 40 41  1  0
 41 42  1  0
 42 43  1  0
 43 44  2  0
 44 45  1  0
 45 46  1  0
 46 47  2  0
 47 48  1  0
 48 49  2  0
 49 50  1  0
 50 51  2  0
 41 52  1  0
 52 53  2  0
 52 54  1  0
 54 55  1  0
 55 56  1  0
 56 57  1  0
 56 58  2  0
 13  9  1  0
 26 19  1  0
 51 43  1  0
 51 46  1  0
  1 59  1  0
  1 60  1  0
  1 61  1  0
  2 62  1  0
  2 63  1  0
  3 64  1  0
  3 65  1  0
  6 66  1  0
  7 67  1  6
  8 68  1  0
  8 69  1  0
 10 70  1  0
 12 71  1  0
 13 72  1  0
 16 73  1  0
 17 74  1  6
 18 75  1  0
 18 76  1  0
 20 77  1  0
 21 78  1  0
 26 79  1  0
 29 80  1  0
 30 81  1  1
 31 82  1  0
 31 83  1  0
 32 84  1  0
 32 85  1  0
 33 86  1  0
 33 87  1  0
 34 88  1  0
 36 89  1  0
 36 90  1  0
 37 91  1  0
 37 92  1  0
 40 93  1  0
 41 94  1  1
 42 95  1  0
 42 96  1  0
 44 97  1  0
 45 98  1  0
 47 99  1  0
 48100  1  0
 49101  1  0
 50102  1  0
 54103  1  0
 55104  1  0
 55105  1  0
 57106  1  0
 57107  1  0
M  CHG  1  37   1
M  END
>  <Binding energies>  (1) 
[-8.65]

>  <Ligand effiencies>  (1) 
[-0.12013888888888889]

>  <Interactions>  (1) 
["V-A:ILE:369:CG2:3237, V-A:ALA:541:C:4888, V-B:GLU:543:C:9874, H-A:GLU:543:OE2:4910, H-B:GLU:543:O:9875, H-A:ALA:541:N:4891, V-A:ILE:369:CB:3236, V-B:GLU:543:CB:9878, V-B:ASP:366:CG:8184, H-A:TYR:531:OH:4795, V-B:TYR:539:CE2:9848, V-B:LEU:475:CD2:9230, V-B:GLU:543:CG:9879, V-A:ASP:366:CG:3213, V-A:ASN:362:CB:3176, V-A:TYR:539:CD1:4873, V-B:TYR:484:CE2:9317, V-B:TYR:539:CZ:9849, H-B:GLU:543:OE1:9881, H-B:TYR:539:OH:9850, V-A:ALA:541:CB:4892, V-A:TYR:539:CA:4869, V-A:GLU:543:CD:4908, V-B:GLU:543:CA:9876, V-A:GLY:453:C:4042, V-B:TYR:484:CZ:9318, V-A:ILE:369:CD1:3239, V-A:HIS:456:CE1:4070, V-A:ALA:541:CA:4890, V-B:TYR:539:CD2:9846, V-A:GLU:543:CG:4907, V-B:GLU:543:CD:9880, V-A:MET:535:CE:4835, V-A:TYR:539:C:4867, V-A:ASP:366:CB:3212, V-A:LEU:475:CD2:4259, V-A:ASN:362:C:3172, V-A:ARG:545:CZ:4926, H-A:GLU:543:OE1:4909, H-A:ASP:366:OD1:3214, V-A:PRO:540:N:4884, H-B:GLU:543:OE2:9882, V-A:PRO:540:CA:4883, V-A:PRO:540:CB:4885, V-A:LEU:363:CA:3185, V-A:GLY:453:CA:4044, H-A:ASP:366:OD2:3215, V-A:TYR:539:CE1:4875, H-A:HIS:456:NE2:4071, H-A:TYR:484:OH:4348"]

$$$$
ZINC95619223
     RDKit          3D

 82 86  0  0  0  0  0  0  0  0999 V2000
  131.3680  132.3490   56.4080 C   0  0  0  0  0  0  0  0  0  0  0  0
  130.9780  131.7090   57.7600 C   0  0  0  0  0  0  0  0  0  0  0  0
  132.1050  131.8800   58.8130 C   0  0  0  0  0  0  0  0  0  0  0  0
  129.6510  132.3580   58.2190 C   0  0  0  0  0  0  0  0  0  0  0  0
  129.1180  131.7210   59.5120 C   0  0  0  0  0  0  0  0  0  0  0  0
  128.9420  130.1590   59.4540 C   0  0  1  0  0  0  0  0  0  0  0  0
  127.6980  129.8330   58.5780 C   0  0  0  0  0  0  0  0  0  0  0  0
  130.1950  129.4880   58.8020 C   0  0  0  0  0  0  0  0  0  0  0  0
  130.7740  128.3410   59.2790 C   0  0  0  0  0  0  0  0  0  0  0  0
  132.0830  127.7380   58.7260 C   0  0  0  0  0  0  0  0  0  0  0  0
  131.8000  126.3790   58.0890 C   0  0  0  0  0  0  0  0  0  0  0  0
  131.1640  125.3250   59.0430 C   0  0  1  0  0  0  0  0  0  0  0  0
  132.0930  124.2560   59.7920 C   0  0  1  0  0  0  0  0  0  0  0  0
  133.2190  123.8490   58.7910 C   0  0  0  0  0  0  0  0  0  0  0  0
  132.7950  124.7820   61.0750 C   0  0  0  0  0  0  0  0  0  0  0  0
  133.5320  123.7110   61.8930 C   0  0  0  0  0  0  0  0  0  0  0  0
  132.5750  122.5770   62.3260 C   0  0  1  0  0  0  0  0  0  0  0  0
  131.6730  123.0850   63.2980 O   0  0  0  0  0  0  0  0  0  0  0  0
  131.8480  121.8980   61.1090 C   0  0  0  0  0  0  0  0  0  0  0  0
  132.9040  121.0570   60.3210 C   0  0  0  0  0  0  0  0  0  0  0  0
  130.7950  120.8840   61.6620 C   0  0  0  0  0  0  0  0  0  0  0  0
  131.1640  123.0040   60.1610 C   0  0  1  0  0  0  0  0  0  0  0  0
  129.7310  123.4720   60.6370 C   0  0  0  0  0  0  0  0  0  0  0  0
  129.4770  124.9630   60.9530 C   0  0  0  0  0  0  0  0  0  0  0  0
  129.9430  125.9630   59.8480 C   0  0  2  0  0  0  0  0  0  0  0  0
  128.7570  125.9830   58.8060 C   0  0  0  0  0  0  0  0  0  0  0  0
  130.1820  127.4660   60.4280 C   0  0  1  0  0  0  0  0  0  0  0  0
  131.1750  127.5820   61.6290 C   0  0  0  0  0  0  0  0  0  0  0  0
  128.8310  128.0780   60.9610 C   0  0  0  0  0  0  0  0  0  0  0  0
  128.7060  129.6080   60.9020 C   0  0  1  0  0  0  0  0  0  0  0  0
  129.4960  130.2130   61.9110 O   0  0  0  0  0  0  0  0  0  0  0  0
  130.6650  130.2120   57.5140 C   0  0  0  0  0  0  0  0  0  0  0  0
  131.9325  133.2754   56.5901 H   0  0  0  0  0  0  0  0  0  0  0  0
  131.9915  131.6462   55.8359 H   0  0  0  0  0  0  0  0  0  0  0  0
  130.4575  132.5809   55.8359 H   0  0  0  0  0  0  0  0  0  0  0  0
  131.6755  131.8148   59.8236 H   0  0  0  0  0  0  0  0  0  0  0  0
  132.8539  131.0852   58.6809 H   0  0  0  0  0  0  0  0  0  0  0  0
  132.5844  132.8612   58.6809 H   0  0  0  0  0  0  0  0  0  0  0  0
  129.8219  133.4303   58.3952 H   0  0  0  0  0  0  0  0  0  0  0  0
  128.9031  132.2001   57.4280 H   0  0  0  0  0  0  0  0  0  0  0  0
  129.8213  131.9562   60.3245 H   0  0  0  0  0  0  0  0  0  0  0  0
  128.1137  132.1400   59.6724 H   0  0  0  0  0  0  0  0  0  0  0  0
  126.8401  129.6082   59.2287 H   0  0  0  0  0  0  0  0  0  0  0  0
  127.4596  130.6990   57.9430 H   0  0  0  0  0  0  0  0  0  0  0  0
  127.9149  128.9614   57.9430 H   0  0  0  0  0  0  0  0  0  0  0  0
  132.5053  128.4150   57.9688 H   0  0  0  0  0  0  0  0  0  0  0  0
  132.7997  127.6096   59.5506 H   0  0  0  0  0  0  0  0  0  0  0  0
  131.1121  126.5344   57.2448 H   0  0  0  0  0  0  0  0  0  0  0  0
  132.7762  125.9714   57.7873 H   0  0  0  0  0  0  0  0  0  0  0  0
  130.7473  124.5600   58.3713 H   0  0  0  0  0  0  0  0  0  0  0  0
  134.1091  123.5273   59.3515 H   0  0  0  0  0  0  0  0  0  0  0  0
  132.8655  123.0218   58.1580 H   0  0  0  0  0  0  0  0  0  0  0  0
  133.4761  124.7111   58.1580 H   0  0  0  0  0  0  0  0  0  0  0  0
  133.5266  125.5469   60.7753 H   0  0  0  0  0  0  0  0  0  0  0  0
  131.9983  125.1732   61.7248 H   0  0  0  0  0  0  0  0  0  0  0  0
  134.3390  123.2840   61.2795 H   0  0  0  0  0  0  0  0  0  0  0  0
  133.9400  124.1852   62.7978 H   0  0  0  0  0  0  0  0  0  0  0  0
  133.1634  121.7664   62.7807 H   0  0  0  0  0  0  0  0  0  0  0  0
  131.3220  123.9200   62.9790 H   0  0  0  0  0  0  0  0  0  0  0  0
  133.5607  120.5340   61.0318 H   0  0  0  0  0  0  0  0  0  0  0  0
  132.3877  120.3200   59.6883 H   0  0  0  0  0  0  0  0  0  0  0  0
  133.5067  121.7251   59.6883 H   0  0  0  0  0  0  0  0  0  0  0  0
  130.8123  120.9006   62.7617 H   0  0  0  0  0  0  0  0  0  0  0  0
  129.7928  121.1658   61.3067 H   0  0  0  0  0  0  0  0  0  0  0  0
  131.0388  119.8719   61.3067 H   0  0  0  0  0  0  0  0  0  0  0  0
  131.0239  122.4486   59.2219 H   0  0  0  0  0  0  0  0  0  0  0  0
  129.0235  123.1893   59.8436 H   0  0  0  0  0  0  0  0  0  0  0  0
  129.6129  122.9800   61.6137 H   0  0  0  0  0  0  0  0  0  0  0  0
  128.3959  125.1002   61.1028 H   0  0  0  0  0  0  0  0  0  0  0  0
  130.0758  125.1931   61.8466 H   0  0  0  0  0  0  0  0  0  0  0  0
  127.7972  125.9992   59.3432 H   0  0  0  0  0  0  0  0  0  0  0  0
  128.8389  126.8799   58.1744 H   0  0  0  0  0  0  0  0  0  0  0  0
  128.8086  125.0839   58.1744 H   0  0  0  0  0  0  0  0  0  0  0  0
  130.6163  127.5167   62.5743 H   0  0  0  0  0  0  0  0  0  0  0  0
  131.9081  126.7634   61.5791 H   0  0  0  0  0  0  0  0  0  0  0  0
  131.6996  128.5475   61.5791 H   0  0  0  0  0  0  0  0  0  0  0  0
  128.0115  127.6517   60.3638 H   0  0  0  0  0  0  0  0  0  0  0  0
  128.7951  127.8221   62.0302 H   0  0  0  0  0  0  0  0  0  0  0  0
  127.6685  129.8937   61.1301 H   0  0  0  0  0  0  0  0  0  0  0  0
  130.0980  129.5520   62.2640 H   0  0  0  0  0  0  0  0  0  0  0  0
  131.5744  129.7172   57.1423 H   0  0  0  0  0  0  0  0  0  0  0  0
  129.8476  130.1561   56.7800 H   0  0  0  0  0  0  0  0  0  0  0  0
  1  2  1  0
  2  3  1  0
  2  4  1  0
  4  5  1  0
  5  6  1  0
  6  7  1  6
  6  8  1  0
  8  9  2  0
  9 10  1  0
 10 11  1  0
 11 12  1  0
 12 13  1  0
 13 14  1  6
 13 15  1  0
 15 16  1  0
 16 17  1  0
 17 18  1  0
 17 19  1  0
 19 20  1  0
 19 21  1  0
 19 22  1  0
 22 23  1  0
 23 24  1  0
 24 25  1  0
 25 26  1  6
 25 27  1  0
 27 28  1  1
 27 29  1  0
 29 30  1  0
 30 31  1  0
  8 32  1  0
 32  2  1  0
 30  6  1  0
 27  9  1  0
 25 12  1  0
 22 13  1  0
  1 33  1  0
  1 34  1  0
  1 35  1  0
  3 36  1  0
  3 37  1  0
  3 38  1  0
  4 39  1  0
  4 40  1  0
  5 41  1  0
  5 42  1  0
  7 43  1  0
  7 44  1  0
  7 45  1  0
 10 46  1  0
 10 47  1  0
 11 48  1  0
 11 49  1  0
 12 50  1  6
 14 51  1  0
 14 52  1  0
 14 53  1  0
 15 54  1  0
 15 55  1  0
 16 56  1  0
 16 57  1  0
 17 58  1  1
 18 59  1  0
 20 60  1  0
 20 61  1  0
 20 62  1  0
 21 63  1  0
 21 64  1  0
 21 65  1  0
 22 66  1  6
 23 67  1  0
 23 68  1  0
 24 69  1  0
 24 70  1  0
 26 71  1  0
 26 72  1  0
 26 73  1  0
 28 74  1  0
 28 75  1  0
 28 76  1  0
 29 77  1  0
 29 78  1  0
 30 79  1  1
 31 80  1  0
 32 81  1  0
 32 82  1  0
M  END
>  <Binding energies>  (1) 
[-7.69]

>  <Ligand effiencies>  (1) 
[-0.2261764705882353]

>  <Interactions>  (1) 
["V-A:ILE:369:CG2:3237, V-A:LEU:363:CD1:3189, V-A:PRO:540:N:4884, V-A:PRO:540:CB:4885, V-A:PRO:540:CA:4883, V-A:ILE:369:CB:3236, V-B:TYR:539:CZ:9849, V-A:ILE:538:CB:4862, V-B:TYR:539:CD2:9846, V-B:TYR:539:CE2:9848, V-A:ASP:366:CB:3212, V-A:LEU:475:CD2:4259, H-A:GLU:543:OE1:4909, V-A:ASP:366:CG:3213, V-A:ILE:538:CG2:4863"]

$$$$
ZINC95671291
     RDKit          3D

 32 31  0  0  0  0  0  0  0  0999 V2000
  126.0430  124.9460   57.9890 F   0  0  0  0  0  0  0  0  0  0  0  0
  126.3180  123.7140   58.4180 C   0  0  0  0  0  0  0  0  0  0  0  0
  125.8750  123.6260   59.6730 F   0  0  0  0  0  0  0  0  0  0  0  0
  125.5860  122.8770   57.6820 F   0  0  0  0  0  0  0  0  0  0  0  0
  127.8330  123.3930   58.3340 C   0  0  0  0  0  0  0  0  0  0  0  0
  127.9710  122.1080   58.0010 F   0  0  0  0  0  0  0  0  0  0  0  0
  128.3580  124.0930   57.3260 F   0  0  0  0  0  0  0  0  0  0  0  0
  128.6120  123.6920   59.6570 C   0  0  0  0  0  0  0  0  0  0  0  0
  129.8890  123.9470   59.3640 F   0  0  0  0  0  0  0  0  0  0  0  0
  128.1340  124.8140   60.2000 F   0  0  0  0  0  0  0  0  0  0  0  0
  128.5390  122.5330   60.7060 C   0  0  0  0  0  0  0  0  0  0  0  0
  127.2980  122.4620   61.1960 F   0  0  0  0  0  0  0  0  0  0  0  0
  128.7510  121.3670   60.0900 F   0  0  0  0  0  0  0  0  0  0  0  0
  129.5540  122.6850   61.8890 C   0  0  0  0  0  0  0  0  0  0  0  0
  129.9270  121.4730   62.3080 F   0  0  0  0  0  0  0  0  0  0  0  0
  130.6680  123.2700   61.4410 F   0  0  0  0  0  0  0  0  0  0  0  0
  128.9950  123.5000   63.1020 C   0  0  0  0  0  0  0  0  0  0  0  0
  128.6810  124.7350   62.7000 F   0  0  0  0  0  0  0  0  0  0  0  0
  127.8490  122.9510   63.5110 F   0  0  0  0  0  0  0  0  0  0  0  0
  129.9850  123.5900   64.3120 C   0  0  0  0  0  0  0  0  0  0  0  0
  129.4840  122.9240   65.3540 F   0  0  0  0  0  0  0  0  0  0  0  0
  131.1290  122.9730   64.0040 F   0  0  0  0  0  0  0  0  0  0  0  0
  130.3090  125.0500   64.7560 C   0  0  0  0  0  0  0  0  0  0  0  0
  131.1630  125.6070   63.8940 F   0  0  0  0  0  0  0  0  0  0  0  0
  129.2020  125.7970   64.7210 F   0  0  0  0  0  0  0  0  0  0  0  0
  130.9030  125.1010   66.1880 C   0  0  0  0  0  0  0  0  0  0  0  0
  129.8750  125.0470   67.3360 C   0  0  0  0  0  0  0  0  0  0  0  0
  129.4820  126.8650   68.0510 Br  0  0  0  0  0  0  0  0  0  0  0  0
  131.5844  124.2451   66.3028 H   0  0  0  0  0  0  0  0  0  0  0  0
  131.4001  126.0785   66.2738 H   0  0  0  0  0  0  0  0  0  0  0  0
  128.9422  124.6016   66.9598 H   0  0  0  0  0  0  0  0  0  0  0  0
  130.2984  124.4402   68.1500 H   0  0  0  0  0  0  0  0  0  0  0  0
  1  2  1  0
  2  3  1  0
  2  4  1  0
  2  5  1  0
  5  6  1  0
  5  7  1  0
  5  8  1  0
  8  9  1  0
  8 10  1  0
  8 11  1  0
 11 12  1  0
 11 13  1  0
 11 14  1  0
 14 15  1  0
 14 16  1  0
 14 17  1  0
 17 18  1  0
 17 19  1  0
 17 20  1  0
 20 21  1  0
 20 22  1  0
 20 23  1  0
 23 24  1  0
 23 25  1  0
 23 26  1  0
 26 27  1  0
 27 28  1  0
 26 29  1  0
 26 30  1  0
 27 31  1  0
 27 32  1  0
M  END
>  <Binding energies>  (1) 
[-1.72]

>  <Ligand effiencies>  (1) 
[-0.06142857142857143]

>  <Interactions>  (1) 
["V-B:TYR:539:CA:9841, V-B:PRO:540:CA:9855, V-B:GLU:543:CB:9878, V-B:ALA:541:CB:9864, V-B:TYR:539:CE2:9848, V-A:TYR:484:CE2:4346, V-B:GLU:543:CG:9879, V-B:TYR:539:C:9839, V-B:TYR:539:CZ:9849, V-A:TYR:484:CZ:4347, V-B:PRO:540:CB:9857, V-A:GLU:543:CD:4908, V-B:GLU:543:CA:9876, V-B:PRO:540:N:9856, V-A:HIS:456:CE1:4070, V-B:TYR:539:CD2:9846, V-B:PRO:540:CD:9859, V-B:GLU:543:CD:9880, V-A:LEU:475:CD2:4259, V-B:TYR:539:CG:9844, V-B:TYR:539:CD1:9845, V-B:PRO:540:CG:9858, V-B:PRO:540:C:9853, V-B:ALA:541:CA:9862, V-B:TYR:539:CE1:9847"]

$$$$
ZINC95681646
     RDKit          3D

 27 27  0  0  0  0  0  0  0  0999 V2000
  127.9650  122.0880   61.4290 F   0  0  0  0  0  0  0  0  0  0  0  0
  129.2250  122.1200   60.9920 C   0  0  0  0  0  0  0  0  0  0  0  0
  129.1700  122.4690   59.7060 F   0  0  0  0  0  0  0  0  0  0  0  0
  129.6710  120.8640   61.0360 F   0  0  0  0  0  0  0  0  0  0  0  0
  130.1130  123.0930   61.8310 C   0  0  1  0  0  0  0  0  0  0  0  0
  129.7590  124.3210   61.4440 F   0  0  0  0  0  0  0  0  0  0  0  0
  129.8530  122.9840   63.3730 C   0  0  0  0  0  0  0  0  0  0  0  0
  130.1250  121.7240   63.7310 F   0  0  0  0  0  0  0  0  0  0  0  0
  128.5580  123.1650   63.6370 F   0  0  0  0  0  0  0  0  0  0  0  0
  130.7360  123.9370   64.2550 C   0  0  2  0  0  0  0  0  0  0  0  0
  130.6100  123.5100   65.5180 F   0  0  0  0  0  0  0  0  0  0  0  0
  130.2240  125.4180   64.3570 C   0  0  0  0  0  0  0  0  0  0  0  0
  129.1330  125.6730   63.6420 F   0  0  0  0  0  0  0  0  0  0  0  0
  131.1450  126.2900   63.9410 F   0  0  0  0  0  0  0  0  0  0  0  0
  129.9240  125.7530   65.6130 F   0  0  0  0  0  0  0  0  0  0  0  0
  132.2520  123.7780   63.8810 C   0  0  0  0  0  0  0  0  0  0  0  0
  133.0010  124.6350   64.5770 F   0  0  0  0  0  0  0  0  0  0  0  0
  132.6440  122.5580   64.2640 F   0  0  0  0  0  0  0  0  0  0  0  0
  132.5650  123.9040   62.3500 C   0  0  1  0  0  0  0  0  0  0  0  0
  132.2630  125.1490   61.9740 F   0  0  0  0  0  0  0  0  0  0  0  0
  134.0820  123.7260   62.0200 C   0  0  0  0  0  0  0  0  0  0  0  0
  134.3470  123.9600   60.7350 F   0  0  0  0  0  0  0  0  0  0  0  0
  134.8520  124.5590   62.7220 F   0  0  0  0  0  0  0  0  0  0  0  0
  134.5120  122.4900   62.2770 F   0  0  0  0  0  0  0  0  0  0  0  0
  131.6440  122.9360   61.5300 C   0  0  0  0  0  0  0  0  0  0  0  0
  131.8650  123.1030   60.2230 F   0  0  0  0  0  0  0  0  0  0  0  0
  132.0060  121.6760   61.7890 F   0  0  0  0  0  0  0  0  0  0  0  0
  1  2  1  0
  2  3  1  0
  2  4  1  0
  2  5  1  0
  5  6  1  1
  5  7  1  0
  7  8  1  0
  7  9  1  0
  7 10  1  0
 10 11  1  6
 10 12  1  0
 12 13  1  0
 12 14  1  0
 12 15  1  0
 10 16  1  0
 16 17  1  0
 16 18  1  0
 16 19  1  0
 19 20  1  1
 19 21  1  0
 21 22  1  0
 21 23  1  0
 21 24  1  0
 19 25  1  0
 25 26  1  0
 25 27  1  0
 25  5  1  0
M  END
>  <Binding energies>  (1) 
[-1.94]

>  <Ligand effiencies>  (1) 
[-0.07185185185185185]

>  <Interactions>  (1) 
["V-A:ILE:369:CG2:3237, V-A:ASP:366:CA:3210, V-B:PRO:540:CA:9855, V-A:GLY:454:CA:4049, V-A:ILE:369:CB:3236, V-B:ALA:541:CB:9864, V-B:TYR:539:CE2:9848, V-A:TYR:484:CE2:4346, V-B:GLU:543:CG:9879, V-B:TYR:539:C:9839, V-A:LEU:475:CD1:4258, V-A:TYR:484:CZ:4347, V-A:GLU:543:CD:4908, V-A:GLY:453:C:4042, V-A:ILE:369:CD1:3239, V-B:TYR:539:CD2:9846, V-B:GLU:543:CD:9880, V-A:LEU:475:CD2:4259, V-A:ARG:545:CZ:4926, V-A:GLY:453:CA:4044, V-B:PRO:540:C:9853, V-B:ALA:541:CA:9862"]

$$$$
ZINC95681673
     RDKit          3D

 36 35  0  0  0  0  0  0  0  0999 V2000
  133.7730  123.9730   57.8300 O   0  0  0  0  0  0  0  0  0  0  0  0
  133.9550  124.3160   59.1890 C   0  0  0  0  0  0  0  0  0  0  0  0
  133.2140  123.3320   60.1140 C   0  0  0  0  0  0  0  0  0  0  0  0
  133.8580  123.1620   61.5090 C   0  0  0  0  0  0  0  0  0  0  0  0
  133.7650  124.4210   62.4070 C   0  0  0  0  0  0  0  0  0  0  0  0
  134.9950  124.7940   62.7680 F   0  0  0  0  0  0  0  0  0  0  0  0
  133.2720  125.4320   61.6850 F   0  0  0  0  0  0  0  0  0  0  0  0
  132.8640  124.2270   63.6660 C   0  0  0  0  0  0  0  0  0  0  0  0
  132.7650  122.9140   63.8970 F   0  0  0  0  0  0  0  0  0  0  0  0
  133.5030  124.7410   64.7210 F   0  0  0  0  0  0  0  0  0  0  0  0
  131.4350  124.8600   63.5630 C   0  0  0  0  0  0  0  0  0  0  0  0
  131.5160  126.1750   63.7840 F   0  0  0  0  0  0  0  0  0  0  0  0
  130.9830  124.7370   62.3120 F   0  0  0  0  0  0  0  0  0  0  0  0
  130.3500  124.2510   64.5130 C   0  0  0  0  0  0  0  0  0  0  0  0
  130.9420  124.0220   65.6890 F   0  0  0  0  0  0  0  0  0  0  0  0
  129.4120  125.1690   64.7630 F   0  0  0  0  0  0  0  0  0  0  0  0
  129.6630  122.9380   64.0080 C   0  0  0  0  0  0  0  0  0  0  0  0
  130.6020  122.0720   63.6230 F   0  0  0  0  0  0  0  0  0  0  0  0
  129.0150  122.3510   65.0170 F   0  0  0  0  0  0  0  0  0  0  0  0
  128.6660  123.1640   62.8210 C   0  0  0  0  0  0  0  0  0  0  0  0
  127.4460  122.7600   63.1840 F   0  0  0  0  0  0  0  0  0  0  0  0
  128.5550  124.4720   62.5760 F   0  0  0  0  0  0  0  0  0  0  0  0
  129.0760  122.4280   61.5050 C   0  0  0  0  0  0  0  0  0  0  0  0
  130.3870  122.5610   61.2930 F   0  0  0  0  0  0  0  0  0  0  0  0
  128.8530  121.1160   61.6250 F   0  0  0  0  0  0  0  0  0  0  0  0
  128.3260  122.9390   60.2460 C   0  0  0  0  0  0  0  0  0  0  0  0
  128.3650  122.0410   59.2610 F   0  0  0  0  0  0  0  0  0  0  0  0
  127.0410  123.1930   60.4980 F   0  0  0  0  0  0  0  0  0  0  0  0
  128.8570  124.0680   59.7730 F   0  0  0  0  0  0  0  0  0  0  0  0
  134.4520  124.4120   57.3110 H   0  0  0  0  0  0  0  0  0  0  0  0
  135.0291  124.2912   59.4249 H   0  0  0  0  0  0  0  0  0  0  0  0
  133.5462  125.3240   59.3524 H   0  0  0  0  0  0  0  0  0  0  0  0
  132.1854  123.6967   60.2516 H   0  0  0  0  0  0  0  0  0  0  0  0
  133.2569  122.3474   59.6253 H   0  0  0  0  0  0  0  0  0  0  0  0
  133.3519  122.3322   62.0242 H   0  0  0  0  0  0  0  0  0  0  0  0
  134.9282  122.9697   61.3427 H   0  0  0  0  0  0  0  0  0  0  0  0
  1  2  1  0
  2  3  1  0
  3  4  1  0
  4  5  1  0
  5  6  1  0
  5  7  1  0
  5  8  1  0
  8  9  1  0
  8 10  1  0
  8 11  1  0
 11 12  1  0
 11 13  1  0
 11 14  1  0
 14 15  1  0
 14 16  1  0
 14 17  1  0
 17 18  1  0
 17 19  1  0
 17 20  1  0
 20 21  1  0
 20 22  1  0
 20 23  1  0
 23 24  1  0
 23 25  1  0
 23 26  1  0
 26 27  1  0
 26 28  1  0
 26 29  1  0
  1 30  1  0
  2 31  1  0
  2 32  1  0
  3 33  1  0
  3 34  1  0
  4 35  1  0
  4 36  1  0
M  END
>  <Binding energies>  (1) 
[-2.26]

>  <Ligand effiencies>  (1) 
[-0.07533333333333332]

>  <Interactions>  (1) 
["V-A:ILE:369:CG2:3237, V-A:ASP:366:CA:3210, V-B:PRO:540:CA:9855, V-A:GLY:454:CA:4049, V-A:ILE:369:CB:3236, V-B:GLU:543:CB:9878, V-B:ALA:541:CB:9864, V-B:TYR:539:CE2:9848, V-A:TYR:484:CE2:4346, V-B:GLU:543:CG:9879, V-B:TYR:539:C:9839, V-A:ASP:366:CG:3213, H-A:ASN:370:N:3244, H-B:TYR:539:OH:9850, V-A:GLU:543:CD:4908, V-A:TYR:484:CZ:4347, V-B:PRO:540:CB:9857, V-B:GLU:543:CA:9876, V-A:GLY:453:C:4042, V-B:PRO:540:N:9856, V-A:ILE:369:CD1:3239, V-B:ALA:541:C:9860, V-A:ASP:366:C:3208, V-B:TYR:539:CD2:9846, V-B:GLU:543:CD:9880, V-A:ASP:366:CB:3212, V-A:LEU:475:CD2:4259, V-A:ARG:545:CZ:4926, V-B:TYR:539:CG:9844, H-A:ASP:366:O:3209, V-A:GLY:453:CA:4044, V-B:PRO:540:C:9853, V-B:ALA:541:CA:9862"]

$$$$
ZINC95681699
     RDKit          3D

 38 38  0  0  0  0  0  0  0  0999 V2000
  126.6130  124.9780   57.8080 F   0  0  0  0  0  0  0  0  0  0  0  0
  126.4800  123.8620   58.5260 C   0  0  0  0  0  0  0  0  0  0  0  0
  125.6750  123.0310   57.8630 F   0  0  0  0  0  0  0  0  0  0  0  0
  127.8230  123.2060   58.9210 C   0  0  0  0  0  0  0  0  0  0  0  0
  127.9580  122.0800   58.2150 F   0  0  0  0  0  0  0  0  0  0  0  0
  128.8230  124.0080   58.5480 F   0  0  0  0  0  0  0  0  0  0  0  0
  127.9160  122.8900   60.4460 C   0  0  0  0  0  0  0  0  0  0  0  0
  126.6810  122.8480   60.9560 F   0  0  0  0  0  0  0  0  0  0  0  0
  128.4120  121.6600   60.6010 F   0  0  0  0  0  0  0  0  0  0  0  0
  128.7800  123.9140   61.2530 C   0  0  0  0  0  0  0  0  0  0  0  0
  128.5220  125.1490   60.8160 F   0  0  0  0  0  0  0  0  0  0  0  0
  128.4010  123.8950   62.5330 F   0  0  0  0  0  0  0  0  0  0  0  0
  130.3220  123.6470   61.1650 C   0  0  0  0  0  0  0  0  0  0  0  0
  130.5930  123.0140   60.0210 F   0  0  0  0  0  0  0  0  0  0  0  0
  130.9650  124.8140   61.0950 F   0  0  0  0  0  0  0  0  0  0  0  0
  130.8910  122.8160   62.3630 C   0  0  0  0  0  0  0  0  0  0  0  0
  129.9670  121.9480   62.7780 F   0  0  0  0  0  0  0  0  0  0  0  0
  131.9170  122.0770   61.9330 F   0  0  0  0  0  0  0  0  0  0  0  0
  131.3610  123.6960   63.5710 C   0  0  0  0  0  0  0  0  0  0  0  0
  130.7440  124.8790   63.5200 F   0  0  0  0  0  0  0  0  0  0  0  0
  130.9690  123.1380   64.7180 F   0  0  0  0  0  0  0  0  0  0  0  0
  132.9050  123.9210   63.6630 C   0  0  0  0  0  0  0  0  0  0  0  0
  133.1840  124.5920   64.7820 F   0  0  0  0  0  0  0  0  0  0  0  0
  133.5280  122.7460   63.7780 F   0  0  0  0  0  0  0  0  0  0  0  0
  133.5330  124.6780   62.4710 C   0  0  0  0  0  0  0  0  0  0  0  0
  134.1110  123.7680   61.5430 O   0  0  0  0  0  0  0  0  0  0  0  0
  134.4110  124.3430   60.2760 C   0  0  0  0  0  0  0  0  0  0  0  0
  133.3030  124.0540   59.2480 C   0  0  1  0  0  0  0  0  0  0  0  0
  132.8740  125.1130   58.2790 C   0  0  0  0  0  0  0  0  0  0  0  0
  133.6760  124.0240   57.8950 O   0  0  0  0  0  0  0  0  0  0  0  0
  126.0274  124.1235   59.4939 H   0  0  0  0  0  0  0  0  0  0  0  0
  132.7520  125.2632   61.9635 H   0  0  0  0  0  0  0  0  0  0  0  0
  134.3226  125.3425   62.8518 H   0  0  0  0  0  0  0  0  0  0  0  0
  134.5144  125.4318   60.3933 H   0  0  0  0  0  0  0  0  0  0  0  0
  135.3472  123.8977   59.9082 H   0  0  0  0  0  0  0  0  0  0  0  0
  132.7771  123.3974   59.9567 H   0  0  0  0  0  0  0  0  0  0  0  0
  131.8259  125.1750   57.9508 H   0  0  0  0  0  0  0  0  0  0  0  0
  132.9478  126.2090   58.2211 H   0  0  0  0  0  0  0  0  0  0  0  0
  1  2  1  0
  2  3  1  0
  2  4  1  0
  4  5  1  0
  4  6  1  0
  4  7  1  0
  7  8  1  0
  7  9  1  0
  7 10  1  0
 10 11  1  0
 10 12  1  0
 10 13  1  0
 13 14  1  0
 13 15  1  0
 13 16  1  0
 16 17  1  0
 16 18  1  0
 16 19  1  0
 19 20  1  0
 19 21  1  0
 19 22  1  0
 22 23  1  0
 22 24  1  0
 22 25  1  0
 25 26  1  0
 26 27  1  0
 27 28  1  0
 28 29  1  0
 29 30  1  0
 30 28  1  0
  2 31  1  0
 25 32  1  0
 25 33  1  0
 27 34  1  0
 27 35  1  0
 28 36  1  1
 29 37  1  0
 29 38  1  0
M  END
>  <Binding energies>  (1) 
[-1.66]

>  <Ligand effiencies>  (1) 
[-0.05533333333333333]

>  <Interactions>  (1) 
["V-B:TYR:539:CA:9841, V-A:ILE:369:CG2:3237, V-B:PRO:540:CA:9855, V-A:ASP:366:CA:3210, V-A:GLY:454:CA:4049, V-A:ILE:369:CB:3236, V-B:ALA:541:CB:9864, V-B:TYR:539:CE2:9848, V-A:TYR:484:CE2:4346, V-B:GLU:543:CG:9879, V-B:TYR:539:C:9839, V-A:ASP:366:CG:3213, V-B:TYR:539:CZ:9849, H-B:TYR:539:OH:9850, V-A:TYR:484:CZ:4347, V-B:PRO:540:CB:9857, V-B:PRO:540:N:9856, V-A:ILE:369:CD1:3239, V-A:ASP:366:C:3208, V-B:TYR:539:CD2:9846, V-B:PRO:540:CD:9859, V-B:GLU:543:CD:9880, V-A:ASP:366:CB:3212, V-A:LEU:475:CD2:4259, V-A:ARG:545:CZ:4926, V-B:TYR:539:CG:9844, V-B:TYR:539:CD1:9845, V-B:PRO:540:CG:9858, V-B:PRO:540:C:9853"]

$$$$
ZINC956943462
     RDKit          3D

 44 45  0  0  0  0  0  0  0  0999 V2000
  128.3790  122.4970   60.9500 C   0  0  0  0  0  0  0  0  0  0  0  0
  128.8630  122.5780   62.4000 C   0  0  0  0  0  0  0  0  0  0  0  0
  130.2730  122.7560   62.4030 O   0  0  0  0  0  0  0  0  0  0  0  0
  130.8550  122.8550   63.7000 C   0  0  2  0  0  0  0  0  0  0  0  0
  129.8460  123.2740   64.7850 C   0  0  0  0  0  0  0  0  0  0  0  0
  130.9760  124.1200   65.3840 C   0  0  2  0  0  0  0  0  0  0  0  0
  130.6090  125.4100   65.9740 N   0  0  0  0  0  0  0  0  0  0  0  0
  129.9420  125.5720   67.1310 C   0  0  0  0  0  0  0  0  0  0  0  0
  129.5110  124.6310   67.8000 O   0  0  0  0  0  0  0  0  0  0  0  0
  129.7420  127.0250   67.6030 C   0  0  0  0  0  0  0  0  0  0  0  0
  130.4870  127.4820   68.8830 C   0  0  0  0  0  0  0  0  0  0  0  0
  131.6930  127.7400   68.8270 O   0  0  0  0  0  0  0  0  0  0  0  0
  129.7860  127.6020   70.0410 N   0  0  0  0  0  0  0  0  0  0  0  0
  130.4210  127.9960   71.3020 C   0  0  0  0  0  0  0  0  0  0  0  0
  128.3500  127.3480   70.1830 C   0  0  0  0  0  0  0  0  0  0  0  0
  131.6470  124.1530   63.9860 C   0  0  2  0  0  0  0  0  0  0  0  0
  131.3730  125.3760   63.0730 C   0  0  0  0  0  0  0  0  0  0  0  0
  132.6420  125.4790   62.2620 C   0  0  0  0  0  0  0  0  0  0  0  0
  133.6910  125.0650   63.2830 C   0  0  0  0  0  0  0  0  0  0  0  0
  133.0700  123.9880   63.9770 O   0  0  0  0  0  0  0  0  0  0  0  0
  127.2942  122.3155   60.9352 H   0  0  0  0  0  0  0  0  0  0  0  0
  128.5993  123.4445   60.4365 H   0  0  0  0  0  0  0  0  0  0  0  0
  128.8958  121.6728   60.4365 H   0  0  0  0  0  0  0  0  0  0  0  0
  128.3818  123.4295   62.9033 H   0  0  0  0  0  0  0  0  0  0  0  0
  128.6021  121.6520   62.9333 H   0  0  0  0  0  0  0  0  0  0  0  0
  131.3699  121.8831   63.7193 H   0  0  0  0  0  0  0  0  0  0  0  0
  128.9839  123.8493   64.4165 H   0  0  0  0  0  0  0  0  0  0  0  0
  129.2874  122.5372   65.3808 H   0  0  0  0  0  0  0  0  0  0  0  0
  131.5282  123.7716   66.2692 H   0  0  0  0  0  0  0  0  0  0  0  0
  131.0550  126.2200   65.5710 H   0  0  0  0  0  0  0  0  0  0  0  0
  130.0659  127.6830   66.7832 H   0  0  0  0  0  0  0  0  0  0  0  0
  128.6763  127.0839   67.8689 H   0  0  0  0  0  0  0  0  0  0  0  0
  129.8217  127.6242   72.1462 H   0  0  0  0  0  0  0  0  0  0  0  0
  131.4324  127.5666   71.3531 H   0  0  0  0  0  0  0  0  0  0  0  0
  130.4854  129.0929   71.3531 H   0  0  0  0  0  0  0  0  0  0  0  0
  128.0896  127.3019   71.2507 H   0  0  0  0  0  0  0  0  0  0  0  0
  127.7847  128.1601   69.7024 H   0  0  0  0  0  0  0  0  0  0  0  0
  128.0976  126.3913   69.7024 H   0  0  0  0  0  0  0  0  0  0  0  0
  130.5019  125.1994   62.4250 H   0  0  0  0  0  0  0  0  0  0  0  0
  131.1383  126.2934   63.6327 H   0  0  0  0  0  0  0  0  0  0  0  0
  132.6258  124.7931   61.4022 H   0  0  0  0  0  0  0  0  0  0  0  0
  132.8129  126.4726   61.8221 H   0  0  0  0  0  0  0  0  0  0  0  0
  134.6142  124.7325   62.7859 H   0  0  0  0  0  0  0  0  0  0  0  0
  133.9907  125.8882   63.9482 H   0  0  0  0  0  0  0  0  0  0  0  0
  1  2  1  0
  2  3  1  0
  3  4  1  0
  4  5  1  0
  5  6  1  0
  6  7  1  0
  7  8  1  0
  8  9  2  0
  8 10  1  0
 10 11  1  0
 11 12  2  0
 11 13  1  0
 13 14  1  0
 13 15  1  0
  6 16  1  0
 16 17  1  0
 17 18  1  0
 18 19  1  0
 19 20  1  0
 16  4  1  0
 16 20  1  1
  1 21  1  0
  1 22  1  0
  1 23  1  0
  2 24  1  0
  2 25  1  0
  4 26  1  1
  5 27  1  0
  5 28  1  0
  6 29  1  1
  7 30  1  0
 10 31  1  0
 10 32  1  0
 14 33  1  0
 14 34  1  0
 14 35  1  0
 15 36  1  0
 15 37  1  0
 15 38  1  0
 17 39  1  0
 17 40  1  0
 18 41  1  0
 18 42  1  0
 19 43  1  0
 19 44  1  0
M  END
>  <Binding energies>  (1) 
[-5.4]

>  <Ligand effiencies>  (1) 
[-0.2571428571428572]

>  <Interactions>  (1) 
["V-B:PRO:540:CA:9855, H-A:GLU:543:OE2:4910, V-A:GLU:543:C:4902, V-B:GLU:543:CB:9878, V-B:ALA:541:CB:9864, V-A:TYR:484:CE2:4346, V-B:GLU:543:CG:9879, V-A:GLY:544:C:4912, V-A:ASP:366:CG:3213, H-A:ARG:545:N:4920, V-A:TYR:484:CZ:4347, V-A:GLU:543:CD:4908, V-B:HIS:456:CE1:9041, H-A:GLY:454:N:4050, V-A:HIS:456:CE1:4070, V-A:LEU:475:CD2:4259, V-A:ARG:545:CZ:4926, H-A:GLU:543:OE1:4909, V-A:GLU:543:CB:4906, V-B:PRO:540:C:9853, H-A:TYR:484:OH:4348"]

$$$$
ZINC95771429
     RDKit          3D

 87 90  0  0  0  0  0  0  0  0999 V2000
  131.2760  126.1340   57.9980 C   0  0  0  0  0  0  0  0  0  0  0  0
  130.4910  125.2800   59.0240 C   0  0  2  0  0  0  0  0  0  0  0  0
  129.0290  124.9750   58.5440 C   0  0  0  0  0  0  0  0  0  0  0  0
  128.0660  124.1230   59.3070 N   0  0  0  0  0  0  0  0  0  0  0  0
  126.8910  124.8670   59.8560 C   0  0  2  0  0  0  0  0  0  0  0  0
  127.2600  126.0070   60.8340 C   0  0  0  0  0  0  0  0  0  0  0  0
  125.7840  123.9490   60.4410 C   0  0  0  0  0  0  0  0  0  0  0  0
  126.1650  123.2530   61.6100 O   0  0  0  0  0  0  0  0  0  0  0  0
  128.4530  122.9390   59.8760 C   0  0  0  0  0  0  0  0  0  0  0  0
  128.3090  121.8630   59.2960 O   0  0  0  0  0  0  0  0  0  0  0  0
  129.1250  122.8780   61.2410 C   0  0  0  0  0  0  0  0  0  0  0  0
  128.8820  123.9560   62.1100 C   0  0  0  0  0  0  0  0  0  0  0  0
  129.4970  124.0610   63.3560 C   0  0  0  0  0  0  0  0  0  0  0  0
  129.1430  125.1790   64.1370 N   0  0  0  0  0  0  0  0  0  0  0  0
  129.5660  125.5370   65.3720 C   0  0  0  0  0  0  0  0  0  0  0  0
  130.3950  124.9120   66.0360 O   0  0  0  0  0  0  0  0  0  0  0  0
  128.9460  126.7980   65.9340 C   0  0  0  0  0  0  0  0  0  0  0  0
  128.5630  127.8390   65.0730 C   0  0  0  0  0  0  0  0  0  0  0  0
  127.9910  128.9940   65.6110 C   0  0  0  0  0  0  0  0  0  0  0  0
  127.7820  129.1640   66.9390 N   0  0  0  0  0  0  0  0  0  0  0  0
  128.1490  128.1560   67.7690 C   0  0  0  0  0  0  0  0  0  0  0  0
  128.7270  126.9700   67.3140 C   0  0  0  0  0  0  0  0  0  0  0  0
  130.3920  123.0620   63.7470 C   0  0  0  0  0  0  0  0  0  0  0  0
  130.6560  121.9920   62.9000 C   0  0  0  0  0  0  0  0  0  0  0  0
  130.0260  121.8600   61.6460 C   0  0  0  0  0  0  0  0  0  0  0  0
  130.2910  120.7820   60.8060 O   0  0  0  0  0  0  0  0  0  0  0  0
  131.4290  119.9300   61.0300 C   0  0  1  0  0  0  0  0  0  0  0  0
  131.3240  118.6200   60.2110 C   0  0  0  0  0  0  0  0  0  0  0  0
  132.7600  120.6410   60.6910 C   0  0  0  0  0  0  0  0  0  0  0  0
  132.6690  122.0070   59.9690 C   0  0  0  0  0  0  0  0  0  0  0  0
  133.2540  123.1940   60.7640 C   0  0  0  0  0  0  0  0  0  0  0  0
  132.7450  124.5680   60.3150 C   0  0  0  0  0  0  0  0  0  0  0  0
  131.6260  124.9200   61.1170 O   0  0  0  0  0  0  0  0  0  0  0  0
  130.6740  125.7730   60.4880 C   0  0  1  0  0  0  0  0  0  0  0  0
  131.2120  127.2270   60.5630 C   0  0  0  0  0  0  0  0  0  0  0  0
  130.1570  128.2390   60.8310 N   0  0  0  0  0  0  0  0  0  0  0  0
  129.3440  128.0510   62.0550 C   0  0  0  0  0  0  0  0  0  0  0  0
  129.3630  128.9870   59.4340 S   0  0  0  0  0  0  0  0  0  0  0  0
  129.0760  127.9580   58.4270 O   0  0  0  0  0  0  0  0  0  0  0  0
  128.3230  129.9040   59.9150 O   0  0  0  0  0  0  0  0  0  0  0  0
  130.7110  130.0030   58.7790 C   0  0  0  0  0  0  0  0  0  0  0  0
  131.9310  129.5300   58.3130 C   0  0  0  0  0  0  0  0  0  0  0  0
  132.7790  130.5550   57.8810 C   0  0  0  0  0  0  0  0  0  0  0  0
  132.2130  131.8140   58.0330 C   0  0  0  0  0  0  0  0  0  0  0  0
  130.6200  131.7370   58.7150 S   0  0  0  0  0  0  0  0  0  0  0  0
  131.9269  126.8421   58.5319 H   0  0  0  0  0  0  0  0  0  0  0  0
  131.8906  125.4755   57.3667 H   0  0  0  0  0  0  0  0  0  0  0  0
  130.5681  126.6911   57.3667 H   0  0  0  0  0  0  0  0  0  0  0  0
  130.9472  124.2799   59.0646 H   0  0  0  0  0  0  0  0  0  0  0  0
  128.5399  125.9540   58.4327 H   0  0  0  0  0  0  0  0  0  0  0  0
  129.2217  124.3425   57.6649 H   0  0  0  0  0  0  0  0  0  0  0  0
  126.4604  125.3535   58.9684 H   0  0  0  0  0  0  0  0  0  0  0  0
  127.1455  125.6533   61.8693 H   0  0  0  0  0  0  0  0  0  0  0  0
  128.3029  126.3126   60.6641 H   0  0  0  0  0  0  0  0  0  0  0  0
  126.5940  126.8658   60.6641 H   0  0  0  0  0  0  0  0  0  0  0  0
  124.9100  124.5725   60.6805 H   0  0  0  0  0  0  0  0  0  0  0  0
  125.5688  123.1878   59.6766 H   0  0  0  0  0  0  0  0  0  0  0  0
  126.0840  123.8460   62.3600 H   0  0  0  0  0  0  0  0  0  0  0  0
  128.1820  124.7441   61.7954 H   0  0  0  0  0  0  0  0  0  0  0  0
  128.5010  125.8130   63.6860 H   0  0  0  0  0  0  0  0  0  0  0  0
  128.7118  127.7459   63.9871 H   0  0  0  0  0  0  0  0  0  0  0  0
  127.6968  129.8024   64.9255 H   0  0  0  0  0  0  0  0  0  0  0  0
  127.9836  128.2788   68.8495 H   0  0  0  0  0  0  0  0  0  0  0  0
  129.0081  126.1792   68.0250 H   0  0  0  0  0  0  0  0  0  0  0  0
  130.8885  123.1223   64.7267 H   0  0  0  0  0  0  0  0  0  0  0  0
  131.3781  121.2254   63.2178 H   0  0  0  0  0  0  0  0  0  0  0  0
  131.4266  119.6858   62.1025 H   0  0  0  0  0  0  0  0  0  0  0  0
  131.2553  117.7631   60.8972 H   0  0  0  0  0  0  0  0  0  0  0  0
  130.4258  118.6549   59.5770 H   0  0  0  0  0  0  0  0  0  0  0  0
  132.2163  118.5114   59.5770 H   0  0  0  0  0  0  0  0  0  0  0  0
  133.2993  120.8017   61.6362 H   0  0  0  0  0  0  0  0  0  0  0  0
  133.2625  119.9747   59.9744 H   0  0  0  0  0  0  0  0  0  0  0  0
  133.2149  121.9291   59.0172 H   0  0  0  0  0  0  0  0  0  0  0  0
  131.5978  122.2186   59.8357 H   0  0  0  0  0  0  0  0  0  0  0  0
  132.9933  123.0600   61.8242 H   0  0  0  0  0  0  0  0  0  0  0  0
  134.3394  123.1873   60.5855 H   0  0  0  0  0  0  0  0  0  0  0  0
  133.5408  125.3171   60.4396 H   0  0  0  0  0  0  0  0  0  0  0  0
  132.4523  124.5329   59.2553 H   0  0  0  0  0  0  0  0  0  0  0  0
  129.6915  125.7499   60.9822 H   0  0  0  0  0  0  0  0  0  0  0  0
  131.9581  127.2805   61.3696 H   0  0  0  0  0  0  0  0  0  0  0  0
  131.6423  127.4628   59.5785 H   0  0  0  0  0  0  0  0  0  0  0  0
  129.9776  128.1975   62.9421 H   0  0  0  0  0  0  0  0  0  0  0  0
  128.5230  128.7830   62.0659 H   0  0  0  0  0  0  0  0  0  0  0  0
  128.9277  127.0329   62.0659 H   0  0  0  0  0  0  0  0  0  0  0  0
  132.2012  128.4640   58.2865 H   0  0  0  0  0  0  0  0  0  0  0  0
  133.7833  130.3829   57.4666 H   0  0  0  0  0  0  0  0  0  0  0  0
  132.7164  132.7512   57.7534 H   0  0  0  0  0  0  0  0  0  0  0  0
  1  2  1  0
  2  3  1  0
  3  4  1  0
  4  5  1  0
  5  6  1  0
  5  7  1  0
  7  8  1  0
  4  9  1  0
  9 10  2  0
  9 11  1  0
 11 12  2  0
 12 13  1  0
 13 14  1  0
 14 15  1  0
 15 16  2  0
 15 17  1  0
 17 18  2  0
 18 19  1  0
 19 20  2  0
 20 21  1  0
 21 22  2  0
 13 23  2  0
 23 24  1  0
 24 25  2  0
 25 26  1  0
 26 27  1  0
 27 28  1  0
 27 29  1  0
 29 30  1  0
 30 31  1  0
 31 32  1  0
 32 33  1  0
 33 34  1  0
 34 35  1  0
 35 36  1  0
 36 37  1  0
 36 38  1  0
 38 39  2  0
 38 40  2  0
 38 41  1  0
 41 42  2  0
 42 43  1  0
 43 44  2  0
 44 45  1  0
 34  2  1  0
 45 41  1  0
 25 11  1  0
 22 17  1  0
  1 46  1  0
  1 47  1  0
  1 48  1  0
  2 49  1  1
  3 50  1  0
  3 51  1  0
  5 52  1  6
  6 53  1  0
  6 54  1  0
  6 55  1  0
  7 56  1  0
  7 57  1  0
  8 58  1  0
 12 59  1  0
 14 60  1  0
 18 61  1  0
 19 62  1  0
 21 63  1  0
 22 64  1  0
 23 65  1  0
 24 66  1  0
 27 67  1  1
 28 68  1  0
 28 69  1  0
 28 70  1  0
 29 71  1  0
 29 72  1  0
 30 73  1  0
 30 74  1  0
 31 75  1  0
 31 76  1  0
 32 77  1  0
 32 78  1  0
 34 79  1  1
 35 80  1  0
 35 81  1  0
 37 82  1  0
 37 83  1  0
 37 84  1  0
 42 85  1  0
 43 86  1  0
 44 87  1  0
M  END
>  <Binding energies>  (1) 
[-4.62]

>  <Ligand effiencies>  (1) 
[-0.09428571428571429]

>  <Interactions>  (1) 
["V-A:ILE:369:CG2:3237, V-B:PRO:540:CA:9855, V-B:GLU:543:CB:9878, V-B:ALA:541:CB:9864, V-B:TYR:539:CE2:9848, V-B:GLU:543:CG:9879, V-A:ASP:366:CG:3213, V-A:LEU:363:CD1:3189, H-B:GLU:543:OE1:9881, V-A:TYR:531:CE2:4793, H-B:ALA:541:N:9863, V-B:TYR:539:CB:9843, V-A:GLU:543:CD:4908, V-B:PRO:540:CB:9857, H-B:TYR:484:OH:9319, V-B:HIS:456:CE1:9041, V-B:TYR:539:CD2:9846, V-A:GLU:543:CG:4907, V-A:SER:385:CB:3409, V-B:GLU:543:CD:9880, V-A:ASP:366:CB:3212, V-A:LEU:475:CD2:4259, V-A:GLU:543:CB:4906, H-B:GLU:543:OE2:9882, V-A:PRO:540:CA:4883, V-A:PRO:540:CB:4885, V-A:HIS:383:NE2:3394, H-A:TYR:484:OH:4348"]

$$$$
ZINC95784429
     RDKit          3D

108116  0  0  0  0  0  0  0  0999 V2000
  125.8240  131.9750   61.8290 C   0  0  0  0  0  0  0  0  0  0  0  0
  127.1360  132.2000   61.3370 O   0  0  0  0  0  0  0  0  0  0  0  0
  127.2470  133.3690   60.5380 C   0  0  0  0  0  0  0  0  0  0  0  0
  128.6870  133.4730   60.0090 C   0  0  0  0  0  0  0  0  0  0  0  0
  128.7120  134.0460   58.7000 O   0  0  0  0  0  0  0  0  0  0  0  0
  128.6210  133.1810   57.5990 C   0  0  0  0  0  0  0  0  0  0  0  0
  128.2150  133.5230   56.4840 O   0  0  0  0  0  0  0  0  0  0  0  0
  129.0330  131.8980   57.9020 N   0  0  0  0  0  0  0  0  0  0  0  0
  128.3370  130.9450   58.6060 C   0  0  0  0  0  0  0  0  0  0  0  0
  127.1530  130.9620   58.9590 O   0  0  0  0  0  0  0  0  0  0  0  0
  129.3240  129.8250   59.0290 C   0  0  1  0  0  0  0  0  0  0  0  0
  130.5390  130.1810   58.2050 C   0  0  0  0  0  0  0  0  0  0  0  0
  131.7620  129.5160   58.0540 C   0  0  0  0  0  0  0  0  0  0  0  0
  132.7380  130.0310   57.2050 C   0  0  0  0  0  0  0  0  0  0  0  0
  132.4970  131.2120   56.5090 C   0  0  0  0  0  0  0  0  0  0  0  0
  131.2880  131.8870   56.6760 C   0  0  0  0  0  0  0  0  0  0  0  0
  130.3070  131.3800   57.5460 C   0  0  0  0  0  0  0  0  0  0  0  0
  129.5250  129.9120   60.5880 C   0  0  2  0  0  0  0  0  0  0  0  0
  130.7560  130.6920   61.0950 C   0  0  0  0  0  0  0  0  0  0  0  0
  131.9780  130.6130   60.4100 C   0  0  0  0  0  0  0  0  0  0  0  0
  133.0880  131.3250   60.8530 C   0  0  0  0  0  0  0  0  0  0  0  0
  132.9900  132.1280   61.9850 C   0  0  0  0  0  0  0  0  0  0  0  0
  131.7820  132.2200   62.6720 C   0  0  0  0  0  0  0  0  0  0  0  0
  130.6520  131.5020   62.2400 C   0  0  0  0  0  0  0  0  0  0  0  0
  129.4210  131.5620   62.8710 O   0  0  0  0  0  0  0  0  0  0  0  0
  129.3140  131.8440   64.2660 C   0  0  0  0  0  0  0  0  0  0  0  0
  128.2220  132.8870   64.5830 C   0  0  0  0  0  0  0  0  0  0  0  0
  127.9310  133.6530   63.4330 O   0  0  0  0  0  0  0  0  0  0  0  0
  129.4270  128.5410   61.1130 N   0  0  0  0  0  0  0  0  0  0  0  0
  129.2500  128.3560   62.5590 C   0  0  2  0  0  0  0  0  0  0  0  0
  129.6570  126.9740   63.0900 C   0  0  0  0  0  0  0  0  0  0  0  0
  130.9790  126.7660   63.5030 C   0  0  0  0  0  0  0  0  0  0  0  0
  131.3750  125.5220   63.9880 C   0  0  0  0  0  0  0  0  0  0  0  0
  130.4510  124.4830   64.0580 C   0  0  0  0  0  0  0  0  0  0  0  0
  129.1360  124.6760   63.6450 C   0  0  0  0  0  0  0  0  0  0  0  0
  128.7400  125.9180   63.1590 C   0  0  0  0  0  0  0  0  0  0  0  0
  127.8400  128.8670   62.9770 C   0  0  2  0  0  0  0  0  0  0  0  0
  127.5570  128.7590   64.4770 C   0  0  0  0  0  0  0  0  0  0  0  0
  128.4850  128.1120   65.2980 C   0  0  0  0  0  0  0  0  0  0  0  0
  128.2430  127.9910   66.6640 C   0  0  0  0  0  0  0  0  0  0  0  0
  127.0720  128.5160   67.2070 C   0  0  0  0  0  0  0  0  0  0  0  0
  126.1430  129.1620   66.3960 C   0  0  0  0  0  0  0  0  0  0  0  0
  126.3850  129.2850   65.0310 C   0  0  0  0  0  0  0  0  0  0  0  0
  126.7470  128.3960   62.1780 O   0  0  0  0  0  0  0  0  0  0  0  0
  126.9140  128.0990   60.8540 C   0  0  0  0  0  0  0  0  0  0  0  0
  125.8800  127.9770   60.2020 O   0  0  0  0  0  0  0  0  0  0  0  0
  128.3670  127.9210   60.3110 C   0  0  1  0  0  0  0  0  0  0  0  0
  128.6160  128.4220   58.8600 C   0  0  2  0  0  0  0  0  0  0  0  0
  129.4220  127.3860   58.0110 C   0  0  0  0  0  0  0  0  0  0  0  0
  129.6810  127.6600   56.8350 O   0  0  0  0  0  0  0  0  0  0  0  0
  129.8700  126.2350   58.5880 N   0  0  0  0  0  0  0  0  0  0  0  0
  129.4670  125.7660   59.9190 C   0  0  0  0  0  0  0  0  0  0  0  0
  130.7290  125.4240   60.7360 C   0  0  0  0  0  0  0  0  0  0  0  0
  131.7210  124.5510   60.0710 N   0  0  0  0  0  0  0  0  0  0  0  0
  132.6900  123.8570   60.8070 C   0  0  0  0  0  0  0  0  0  0  0  0
  132.6930  122.4930   60.7420 N   0  0  0  0  0  0  0  0  0  0  0  0
  133.6010  121.8320   61.5060 C   0  0  0  0  0  0  0  0  0  0  0  0
  134.4990  122.4950   62.3420 C   0  0  0  0  0  0  0  0  0  0  0  0
  134.4200  123.8880   62.3660 C   0  0  0  0  0  0  0  0  0  0  0  0
  133.5240  124.5780   61.6150 N   0  0  0  0  0  0  0  0  0  0  0  0
  131.9490  124.9330   58.6630 C   0  0  0  0  0  0  0  0  0  0  0  0
  130.6930  125.2820   57.8340 C   0  0  0  0  0  0  0  0  0  0  0  0
  125.8394  131.9776   62.9289 H   0  0  0  0  0  0  0  0  0  0  0  0
  125.1560  132.7717   61.4697 H   0  0  0  0  0  0  0  0  0  0  0  0
  125.4596  131.0013   61.4697 H   0  0  0  0  0  0  0  0  0  0  0  0
  126.5462  133.3068   59.6925 H   0  0  0  0  0  0  0  0  0  0  0  0
  127.0050  134.2573   61.1399 H   0  0  0  0  0  0  0  0  0  0  0  0
  129.2754  134.1056   60.6898 H   0  0  0  0  0  0  0  0  0  0  0  0
  129.1149  132.4610   59.9566 H   0  0  0  0  0  0  0  0  0  0  0  0
  131.9521  128.5846   58.6074 H   0  0  0  0  0  0  0  0  0  0  0  0
  133.6970  129.5059   57.0846 H   0  0  0  0  0  0  0  0  0  0  0  0
  133.2607  131.6133   55.8266 H   0  0  0  0  0  0  0  0  0  0  0  0
  131.1012  132.8203   56.1245 H   0  0  0  0  0  0  0  0  0  0  0  0
  128.7253  130.5501   60.9920 H   0  0  0  0  0  0  0  0  0  0  0  0
  132.0592  129.9813   59.5131 H   0  0  0  0  0  0  0  0  0  0  0  0
  134.0415  131.2533   60.3093 H   0  0  0  0  0  0  0  0  0  0  0  0
  133.8671  132.6905   62.3376 H   0  0  0  0  0  0  0  0  0  0  0  0
  131.7107  132.8615   63.5627 H   0  0  0  0  0  0  0  0  0  0  0  0
  129.0729  130.9106   64.7958 H   0  0  0  0  0  0  0  0  0  0  0  0
  130.2769  132.2624   64.5942 H   0  0  0  0  0  0  0  0  0  0  0  0
  127.3101  132.3690   64.9149 H   0  0  0  0  0  0  0  0  0  0  0  0
  128.5842  133.5558   65.3777 H   0  0  0  0  0  0  0  0  0  0  0  0
  128.0770  133.1070   62.6560 H   0  0  0  0  0  0  0  0  0  0  0  0
  129.9846  128.9858   63.0822 H   0  0  0  0  0  0  0  0  0  0  0  0
  131.7073  127.5883   63.4441 H   0  0  0  0  0  0  0  0  0  0  0  0
  132.4131  125.3611   64.3143 H   0  0  0  0  0  0  0  0  0  0  0  0
  130.7630  123.5010   64.4431 H   0  0  0  0  0  0  0  0  0  0  0  0
  128.4124  123.8495   63.7026 H   0  0  0  0  0  0  0  0  0  0  0  0
  127.7023  126.0711   62.8276 H   0  0  0  0  0  0  0  0  0  0  0  0
  127.9017  129.9413   62.7490 H   0  0  0  0  0  0  0  0  0  0  0  0
  129.4074  127.6980   64.8646 H   0  0  0  0  0  0  0  0  0  0  0  0
  128.9730  127.4832   67.3115 H   0  0  0  0  0  0  0  0  0  0  0  0
  126.8800  128.4192   68.2858 H   0  0  0  0  0  0  0  0  0  0  0  0
  125.2211  129.5737   66.8325 H   0  0  0  0  0  0  0  0  0  0  0  0
  125.6541  129.7962   64.3872 H   0  0  0  0  0  0  0  0  0  0  0  0
  128.4281  126.8238   60.3601 H   0  0  0  0  0  0  0  0  0  0  0  0
  127.6854  128.5346   58.2845 H   0  0  0  0  0  0  0  0  0  0  0  0
  128.8990  126.5562   60.4318 H   0  0  0  0  0  0  0  0  0  0  0  0
  128.8347  124.8712   59.8212 H   0  0  0  0  0  0  0  0  0  0  0  0
  131.2308  126.3694   60.9900 H   0  0  0  0  0  0  0  0  0  0  0  0
  130.3710  124.8534   61.6056 H   0  0  0  0  0  0  0  0  0  0  0  0
  133.6290  120.7332   61.4637 H   0  0  0  0  0  0  0  0  0  0  0  0
  135.2327  121.9474   62.9518 H   0  0  0  0  0  0  0  0  0  0  0  0
  135.1084  124.4470   63.0168 H   0  0  0  0  0  0  0  0  0  0  0  0
  132.6087  125.8132   58.6576 H   0  0  0  0  0  0  0  0  0  0  0  0
  132.3768  124.0402   58.1836 H   0  0  0  0  0  0  0  0  0  0  0  0
  130.9964  125.7332   56.8777 H   0  0  0  0  0  0  0  0  0  0  0  0
  130.1140  124.3680   57.6355 H   0  0  0  0  0  0  0  0  0  0  0  0
  1  2  1  0
  2  3  1  0
  3  4  1  0
  4  5  1  0
  5  6  1  0
  6  7  2  0
  6  8  1  0
  8  9  1  0
  9 10  2  0
 11  9  1  6
 11 12  1  0
 12 13  2  0
 13 14  1  0
 14 15  2  0
 15 16  1  0
 16 17  2  0
 11 18  1  0
 18 19  1  0
 19 20  2  0
 20 21  1  0
 21 22  2  0
 22 23  1  0
 23 24  2  0
 24 25  1  0
 25 26  1  0
 26 27  1  0
 27 28  1  0
 18 29  1  0
 29 30  1  0
 30 31  1  0
 31 32  2  0
 32 33  1  0
 33 34  2  0
 34 35  1  0
 35 36  2  0
 30 37  1  0
 37 38  1  0
 38 39  2  0
 39 40  1  0
 40 41  2  0
 41 42  1  0
 42 43  2  0
 37 44  1  0
 44 45  1  0
 45 46  2  0
 45 47  1  0
 47 48  1  0
 48 49  1  0
 49 50  2  0
 49 51  1  0
 51 52  1  0
 52 53  1  0
 53 54  1  0
 54 55  1  0
 55 56  2  0
 56 57  1  0
 57 58  2  0
 58 59  1  0
 59 60  2  0
 54 61  1  0
 61 62  1  0
 17  8  1  0
 24 19  1  0
 47 29  1  0
 62 51  1  0
 48 11  1  0
 60 55  1  0
 17 12  1  0
 36 31  1  0
 43 38  1  0
  1 63  1  0
  1 64  1  0
  1 65  1  0
  3 66  1  0
  3 67  1  0
  4 68  1  0
  4 69  1  0
 13 70  1  0
 14 71  1  0
 15 72  1  0
 16 73  1  0
 18 74  1  1
 20 75  1  0
 21 76  1  0
 22 77  1  0
 23 78  1  0
 26 79  1  0
 26 80  1  0
 27 81  1  0
 27 82  1  0
 28 83  1  0
 30 84  1  1
 32 85  1  0
 33 86  1  0
 34 87  1  0
 35 88  1  0
 36 89  1  0
 37 90  1  6
 39 91  1  0
 40 92  1  0
 41 93  1  0
 42 94  1  0
 43 95  1  0
 47 96  1  6
 48 97  1  6
 52 98  1  0
 52 99  1  0
 53100  1  0
 53101  1  0
 57102  1  0
 58103  1  0
 59104  1  0
 61105  1  0
 61106  1  0
 62107  1  0
 62108  1  0
M  END
>  <Binding energies>  (1) 
[-5.0]

>  <Ligand effiencies>  (1) 
[-0.07936507936507936]

>  <Interactions>  (1) 
["V-A:ILE:369:CG2:3237, V-A:ALA:541:C:4888, V-A:GLY:454:CA:4049, V-A:PRO:540:C:4881, V-B:GLU:543:CB:9878, H-A:TYR:531:OH:4795, V-B:TYR:539:CE2:9848, V-B:LEU:475:CD2:9230, V-B:GLU:543:CG:9879, V-A:ASP:366:CG:3213, V-A:ASN:362:CB:3176, V-A:LEU:363:CD1:3189, V-A:TYR:539:CD1:4873, V-B:TYR:484:CE2:9317, V-B:TYR:539:CZ:9849, V-A:TYR:531:CE2:4793, V-A:ALA:541:CB:4892, V-A:TYR:539:CA:4869, V-A:GLU:543:CD:4908, V-B:HIS:456:CE1:9041, V-A:GLY:453:C:4042, V-B:TYR:484:CZ:9318, V-A:ILE:369:CD1:3239, V-A:ALA:541:CA:4890, V-A:TYR:531:CZ:4794, V-A:GLU:543:CG:4907, V-B:GLU:543:CD:9880, V-A:TYR:539:C:4867, V-A:ASP:366:CB:3212, V-A:LEU:475:CD2:4259, H-B:ARG:545:NH2:9900, V-A:PRO:540:N:4884, V-A:TYR:539:CG:4872, H-A:TYR:539:N:4870, V-A:PRO:540:CB:4885, V-A:PRO:540:CA:4883, V-A:GLY:453:CA:4044, V-A:TYR:539:CE1:4875"]

$$$$
ZINC957883993-again1
     RDKit          3D

 29 31  0  0  0  0  0  0  0  0999 V2000
  131.1260  127.4790   68.7110 N   0  0  0  0  0  0  0  0  0  0  0  0
  129.7720  127.2930   68.8120 C   0  0  0  0  0  0  0  0  0  0  0  0
  128.9180  127.4560   69.9020 C   0  0  0  0  0  0  0  0  0  0  0  0
  129.2600  127.8330   71.2780 C   0  0  0  0  0  0  0  0  0  0  0  0
  130.0860  128.8050   71.5810 N   0  0  0  0  0  0  0  0  0  0  0  0
  130.1520  128.8810   72.9670 N   0  0  0  0  0  0  0  0  0  0  0  0
  129.3560  127.9650   73.4570 C   0  0  0  0  0  0  0  0  0  0  0  0
  129.1340  127.7240   75.1970 S   0  0  0  0  0  0  0  0  0  0  0  0
  128.7500  127.2600   72.4290 N   0  0  0  0  0  0  0  0  0  0  0  0
  127.8240  126.2240   72.5180 N   0  0  0  0  0  0  0  0  0  0  0  0
  127.6510  127.1770   69.3800 C   0  0  0  0  0  0  0  0  0  0  0  0
  127.6730  126.8850   68.1050 N   0  0  0  0  0  0  0  0  0  0  0  0
  128.9690  126.9180   67.7430 N   0  0  0  0  0  0  0  0  0  0  0  0
  129.3160  126.6540   66.3870 C   0  0  0  0  0  0  0  0  0  0  0  0
  130.2190  125.6300   66.0700 C   0  0  0  0  0  0  0  0  0  0  0  0
  130.5540  125.3740   64.7430 C   0  0  0  0  0  0  0  0  0  0  0  0
  129.9850  126.1360   63.7270 C   0  0  0  0  0  0  0  0  0  0  0  0
  129.0790  127.1500   64.0250 C   0  0  0  0  0  0  0  0  0  0  0  0
  128.7410  127.4080   65.3500 C   0  0  0  0  0  0  0  0  0  0  0  0
  131.7210  127.4360   69.5260 H   0  0  0  0  0  0  0  0  0  0  0  0
  131.5740  127.6570   67.8250 H   0  0  0  0  0  0  0  0  0  0  0  0
  127.9630  125.5710   71.7610 H   0  0  0  0  0  0  0  0  0  0  0  0
  126.8850  126.5980   72.4850 H   0  0  0  0  0  0  0  0  0  0  0  0
  126.7296  127.2007   69.9804 H   0  0  0  0  0  0  0  0  0  0  0  0
  130.6652  125.0256   66.8735 H   0  0  0  0  0  0  0  0  0  0  0  0
  131.2661  124.5720   64.4985 H   0  0  0  0  0  0  0  0  0  0  0  0
  130.2535  125.9353   62.6793 H   0  0  0  0  0  0  0  0  0  0  0  0
  128.6316  127.7455   63.2155 H   0  0  0  0  0  0  0  0  0  0  0  0
  128.0209  128.2052   65.5865 H   0  0  0  0  0  0  0  0  0  0  0  0
  1  2  1  0
  2  3  2  0
  3  4  1  0
  4  5  2  0
  5  6  1  0
  6  7  2  0
  7  8  1  0
  7  9  1  0
  9 10  1  0
  3 11  1  0
 11 12  2  0
 12 13  1  0
 13 14  1  0
 14 15  2  0
 15 16  1  0
 16 17  2  0
 17 18  1  0
 18 19  2  0
 13  2  1  0
 19 14  1  0
  9  4  1  0
  1 20  1  0
  1 21  1  0
 10 22  1  0
 10 23  1  0
 11 24  1  0
 15 25  1  0
 16 26  1  0
 17 27  1  0
 18 28  1  0
 19 29  1  0
M  CHG  1   8  -1
M  END
>  <Binding energies>  (1) 
[-6.49]

>  <Ligand effiencies>  (1) 
[-0.2821739130434783]

>  <Interactions>  (1) 
["H-B:GLY:544:O:9885, V-A:HIS:456:CE1:4070, V-A:ARG:545:CG:4922, V-B:GLU:543:C:9874, H-A:GLU:543:OE2:4910, H-B:GLU:543:O:9875, V-B:GLY:544:C:9884, V-B:GLU:543:CB:9878, V-B:GLY:544:CA:9886, V-B:LYS:547:CE:9922, V-B:GLU:543:CD:9880, V-A:GLU:543:CD:4908, H-A:LYS:547:NZ:4951, V-B:GLU:543:CG:9879, V-B:HIS:456:CE1:9041, H-A:HIS:456:NE2:4071, V-A:GLU:543:CB:4906"]

$$$$
ZINC9580421
     RDKit          3D

 37 38  0  0  0  0  0  0  0  0999 V2000
  133.9430  124.1060   60.9930 C   0  0  0  0  0  0  0  0  0  0  0  0
  132.4070  124.0130   60.9630 C   0  0  2  0  0  0  0  0  0  0  0  0
  131.8770  124.7330   62.1100 N   0  0  0  0  0  0  0  0  0  0  0  0
  131.8720  124.0520   63.1820 N   0  0  0  0  0  0  0  0  0  0  0  0
  131.3740  124.6750   64.3500 C   0  0  0  0  0  0  0  0  0  0  0  0
  129.9940  124.9080   64.5470 C   0  0  0  0  0  0  0  0  0  0  0  0
  129.4980  125.5190   65.6920 C   0  0  0  0  0  0  0  0  0  0  0  0
  130.3730  125.9210   66.6920 C   0  0  0  0  0  0  0  0  0  0  0  0
  129.7380  126.7150   68.1650 S   0  0  0  0  0  0  0  0  0  0  0  0
  131.0760  127.6870   68.7470 N   0  0  0  0  0  0  0  0  0  0  0  0
  128.6750  127.6330   67.7430 O   0  0  0  0  0  0  0  0  0  0  0  0
  129.4800  125.6700   69.1620 O   0  0  0  0  0  0  0  0  0  0  0  0
  131.7390  125.7090   66.5310 C   0  0  0  0  0  0  0  0  0  0  0  0
  132.2650  125.0930   65.3800 C   0  0  0  0  0  0  0  0  0  0  0  0
  133.7510  124.9120   65.3080 N   0  0  0  0  0  0  0  0  0  0  0  0
  134.3310  124.9200   64.2270 O   0  0  0  0  0  0  0  0  0  0  0  0
  134.3730  124.7570   66.3560 O   0  0  0  0  0  0  0  0  0  0  0  0
  131.9340  122.5530   60.9280 C   0  0  0  0  0  0  0  0  0  0  0  0
  132.8500  121.5580   60.5680 C   0  0  0  0  0  0  0  0  0  0  0  0
  132.4610  120.2210   60.5380 C   0  0  0  0  0  0  0  0  0  0  0  0
  131.1540  119.8730   60.8720 C   0  0  0  0  0  0  0  0  0  0  0  0
  130.6230  118.0460   60.8330 Br  0  0  0  0  0  0  0  0  0  0  0  0
  130.2360  120.8530   61.2410 C   0  0  0  0  0  0  0  0  0  0  0  0
  130.6240  122.1890   61.2710 C   0  0  0  0  0  0  0  0  0  0  0  0
  134.2887  124.1269   62.0370 H   0  0  0  0  0  0  0  0  0  0  0  0
  134.3733  123.2323   60.4817 H   0  0  0  0  0  0  0  0  0  0  0  0
  134.2647  125.0253   60.4817 H   0  0  0  0  0  0  0  0  0  0  0  0
  132.0252  124.4770   60.0416 H   0  0  0  0  0  0  0  0  0  0  0  0
  129.2867  124.5941   63.7652 H   0  0  0  0  0  0  0  0  0  0  0  0
  128.4163  125.6835   65.8057 H   0  0  0  0  0  0  0  0  0  0  0  0
  130.8090  128.4390   69.3870 H   0  0  0  0  0  0  0  0  0  0  0  0
  131.7320  127.9870   68.0200 H   0  0  0  0  0  0  0  0  0  0  0  0
  132.4272  126.0321   67.3260 H   0  0  0  0  0  0  0  0  0  0  0  0
  133.8826  121.8334   60.3074 H   0  0  0  0  0  0  0  0  0  0  0  0
  133.1833  119.4424   60.2515 H   0  0  0  0  0  0  0  0  0  0  0  0
  129.2067  120.5717   61.5081 H   0  0  0  0  0  0  0  0  0  0  0  0
  129.8998  122.9630   61.5651 H   0  0  0  0  0  0  0  0  0  0  0  0
  1  2  1  0
  2  3  1  0
  3  4  2  0
  4  5  1  0
  5  6  2  0
  6  7  1  0
  7  8  2  0
  8  9  1  0
  9 10  1  0
  9 11  2  0
  9 12  2  0
  8 13  1  0
 13 14  2  0
 14 15  1  0
 15 16  2  0
 15 17  1  0
  2 18  1  0
 18 19  2  0
 19 20  1  0
 20 21  2  0
 21 22  1  0
 21 23  1  0
 23 24  2  0
 14  5  1  0
 24 18  1  0
  1 25  1  0
  1 26  1  0
  1 27  1  0
  2 28  1  6
  6 29  1  0
  7 30  1  0
 10 31  1  0
 10 32  1  0
 13 33  1  0
 19 34  1  0
 20 35  1  0
 23 36  1  0
 24 37  1  0
M  CHG  2  15   1  17  -1
M  END
>  <Binding energies>  (1) 
[-7.84]

>  <Ligand effiencies>  (1) 
[-0.30153846153846153]

>  <Interactions>  (1) 
["V-A:ILE:369:CG2:3237, V-A:GLY:454:CA:4049, H-A:GLU:543:OE2:4910, V-B:GLU:543:CB:9878, H-A:ARG:545:NH1:4927, V-B:TYR:539:CE2:9848, V-B:GLU:543:CG:9879, V-A:ASP:366:CG:3213, V-A:GLU:543:CD:4908, H-A:GLY:454:N:4050, V-A:HIS:456:CE1:4070, V-A:ILE:369:CD1:3239, V-B:TYR:539:CD2:9846, V-A:SER:385:CB:3409, V-B:GLU:543:CD:9880, V-A:ARG:545:CD:4923, V-A:LEU:475:CD2:4259, H-A:ILE:455:N:4055, V-A:ARG:545:CZ:4926, H-A:ARG:545:NH2:4928, H-A:ARG:545:NE:4924, V-A:HIS:383:NE2:3394, H-A:TYR:484:OH:4348, H-A:GLU:543:O:4903"]

$$$$
ZINC95829429
     RDKit          3D

 52 52  0  0  0  0  0  0  0  0999 V2000
  133.5580  121.1970   61.3930 C   0  0  0  0  0  0  0  0  0  0  0  0
  132.6540  120.6510   60.2790 C   0  0  0  0  0  0  0  0  0  0  0  0
  131.3240  120.0810   60.8090 C   0  0  0  0  0  0  0  0  0  0  0  0
  130.4790  121.0860   61.6150 C   0  0  0  0  0  0  0  0  0  0  0  0
  129.1070  121.4060   60.9920 C   0  0  0  0  0  0  0  0  0  0  0  0
  129.0640  122.7910   60.3170 C   0  0  0  0  0  0  0  0  0  0  0  0
  129.5640  123.9520   61.2100 C   0  0  2  0  0  0  0  0  0  0  0  0
  128.7180  125.2370   61.0730 C   0  0  0  0  0  0  0  0  0  0  0  0
  131.0660  124.2090   60.9920 C   0  0  0  0  0  0  0  0  0  0  0  0
  131.5560  124.3380   59.6880 C   0  0  0  0  0  0  0  0  0  0  0  0
  132.9100  124.5810   59.4340 C   0  0  0  0  0  0  0  0  0  0  0  0
  133.4090  124.7230   58.0440 N   0  0  0  0  0  0  0  0  0  0  0  0
  134.0190  123.7850   57.5400 O   0  0  0  0  0  0  0  0  0  0  0  0
  133.1960  125.7740   57.4470 O   0  0  0  0  0  0  0  0  0  0  0  0
  133.7800  124.6940   60.5240 C   0  0  0  0  0  0  0  0  0  0  0  0
  133.3310  124.5520   61.8430 C   0  0  0  0  0  0  0  0  0  0  0  0
  134.2990  124.7200   62.9540 N   0  0  0  0  0  0  0  0  0  0  0  0
  135.4810  124.8920   62.6690 O   0  0  0  0  0  0  0  0  0  0  0  0
  133.8820  124.7290   64.1080 O   0  0  0  0  0  0  0  0  0  0  0  0
  131.9640  124.2880   62.0760 C   0  0  0  0  0  0  0  0  0  0  0  0
  131.4940  124.1060   63.3610 O   0  0  0  0  0  0  0  0  0  0  0  0
  130.9830  125.1730   64.0450 C   0  0  0  0  0  0  0  0  0  0  0  0
  131.1920  126.3640   63.8010 O   0  0  0  0  0  0  0  0  0  0  0  0
  130.0870  124.7620   65.2200 C   0  0  2  0  0  0  0  0  0  0  0  0
  130.7660  125.4790   66.7080 Cl  0  0  0  0  0  0  0  0  0  0  0  0
  129.9170  123.2330   65.3720 C   0  0  0  0  0  0  0  0  0  0  0  0
  129.1030  122.5920   64.2380 C   0  0  0  0  0  0  0  0  0  0  0  0
  133.1297  120.9383   62.3726 H   0  0  0  0  0  0  0  0  0  0  0  0
  134.5604  120.7532   61.3023 H   0  0  0  0  0  0  0  0  0  0  0  0
  133.6317  122.2908   61.3023 H   0  0  0  0  0  0  0  0  0  0  0  0
  132.4305  121.4677   59.5769 H   0  0  0  0  0  0  0  0  0  0  0  0
  133.1943  119.8266   59.7907 H   0  0  0  0  0  0  0  0  0  0  0  0
  130.7279  119.7415   59.9491 H   0  0  0  0  0  0  0  0  0  0  0  0
  131.5842  119.2644   61.4985 H   0  0  0  0  0  0  0  0  0  0  0  0
  130.3122  120.6684   62.6189 H   0  0  0  0  0  0  0  0  0  0  0  0
  131.0443  122.0295   61.6321 H   0  0  0  0  0  0  0  0  0  0  0  0
  128.8770  120.6400   60.2368 H   0  0  0  0  0  0  0  0  0  0  0  0
  128.3676  121.4122   61.8064 H   0  0  0  0  0  0  0  0  0  0  0  0
  129.6934  122.7543   59.4156 H   0  0  0  0  0  0  0  0  0  0  0  0
  128.0073  122.9991   60.0932 H   0  0  0  0  0  0  0  0  0  0  0  0
  129.4284  123.6306   62.2532 H   0  0  0  0  0  0  0  0  0  0  0  0
  128.4666  125.6189   62.0735 H   0  0  0  0  0  0  0  0  0  0  0  0
  129.2926  125.9975   60.5240 H   0  0  0  0  0  0  0  0  0  0  0  0
  127.7923  125.0098   60.5240 H   0  0  0  0  0  0  0  0  0  0  0  0
  130.8595  124.2461   58.8416 H   0  0  0  0  0  0  0  0  0  0  0  0
  134.8448  124.8998   60.3401 H   0  0  0  0  0  0  0  0  0  0  0  0
  129.0733  125.1412   65.0237 H   0  0  0  0  0  0  0  0  0  0  0  0
  130.9153  122.7714   65.3881 H   0  0  0  0  0  0  0  0  0  0  0  0
  129.3627  123.0601   66.3063 H   0  0  0  0  0  0  0  0  0  0  0  0
  128.3072  121.9653   64.6668 H   0  0  0  0  0  0  0  0  0  0  0  0
  128.6538  123.3815   63.6175 H   0  0  0  0  0  0  0  0  0  0  0  0
  129.7651  121.9702   63.6175 H   0  0  0  0  0  0  0  0  0  0  0  0
  1  2  1  0
  2  3  1  0
  3  4  1  0
  4  5  1  0
  5  6  1  0
  6  7  1  0
  7  8  1  0
  7  9  1  0
  9 10  2  0
 10 11  1  0
 11 12  1  0
 12 13  2  0
 12 14  1  0
 11 15  2  0
 15 16  1  0
 16 17  1  0
 17 18  2  0
 17 19  1  0
 16 20  2  0
 20 21  1  0
 21 22  1  0
 22 23  2  0
 22 24  1  0
 24 25  1  0
 24 26  1  0
 26 27  1  0
 20  9  1  0
  1 28  1  0
  1 29  1  0
  1 30  1  0
  2 31  1  0
  2 32  1  0
  3 33  1  0
  3 34  1  0
  4 35  1  0
  4 36  1  0
  5 37  1  0
  5 38  1  0
  6 39  1  0
  6 40  1  0
  7 41  1  1
  8 42  1  0
  8 43  1  0
  8 44  1  0
 10 45  1  0
 15 46  1  0
 24 47  1  6
 26 48  1  0
 26 49  1  0
 27 50  1  0
 27 51  1  0
 27 52  1  0
M  CHG  4  12   1  14  -1  17   1  19  -1
M  END
>  <Binding energies>  (1) 
[-6.86]

>  <Ligand effiencies>  (1) 
[-0.25407407407407406]

>  <Interactions>  (1) 
["V-A:ILE:369:CG2:3237, V-A:ASP:366:CA:3210, V-B:PRO:540:CA:9855, V-B:ALA:541:CB:9864, H-A:TYR:531:OH:4795, H-A:ARG:545:NH1:4927, V-B:TYR:539:CE2:9848, V-A:TYR:484:CE2:4346, V-B:GLU:543:CG:9879, V-B:TYR:539:C:9839, V-A:ASP:366:CG:3213, V-B:TYR:539:CZ:9849, H-A:ASN:370:N:3244, H-B:TYR:539:OH:9850, V-A:TYR:484:CZ:4347, H-A:GLY:454:N:4050, V-A:GLY:453:C:4042, V-A:ILE:369:CD1:3239, V-A:HIS:456:CE1:4070, V-A:ASP:366:C:3208, V-B:TYR:539:CD2:9846, V-A:SER:385:CB:3409, V-B:GLU:543:CD:9880, V-A:ASP:366:CB:3212, V-A:LEU:475:CD2:4259, H-A:ARG:545:NH2:4928, V-A:ARG:545:CZ:4926, V-A:GLY:453:CA:4044, H-A:ARG:545:NE:4924, V-A:SER:385:CA:3407, V-B:PRO:540:C:9853, H-A:TYR:484:OH:4348"]

$$$$
ZINC95855108-again2
     RDKit          3D

 76 79  0  0  0  0  0  0  0  0999 V2000
  128.5920  133.2340   59.9640 C   0  0  0  0  0  0  0  0  0  0  0  0
  129.4830  132.9170   58.7820 C   0  0  0  0  0  0  0  0  0  0  0  0
  129.2290  133.4920   57.6260 N   0  0  0  0  0  0  0  0  0  0  0  0
  130.1730  133.0100   56.7220 O   0  0  0  0  0  0  0  0  0  0  0  0
  130.9930  132.1510   57.3730 C   0  0  0  0  0  0  0  0  0  0  0  0
  132.0980  131.5240   56.5570 C   0  0  0  0  0  0  0  0  0  0  0  0
  130.5970  132.0710   58.6930 C   0  0  0  0  0  0  0  0  0  0  0  0
  131.3850  131.0820   59.9870 S   0  0  0  0  0  0  0  0  0  0  0  0
  132.8410  131.2380   59.8970 O   0  0  0  0  0  0  0  0  0  0  0  0
  130.6570  131.3700   61.2280 O   0  0  0  0  0  0  0  0  0  0  0  0
  130.9670  129.4180   59.5240 N   0  0  0  0  0  0  0  0  0  0  0  0
  130.5490  128.4220   60.4210 C   0  0  0  0  0  0  0  0  0  0  0  0
  129.9310  128.7070   61.6420 C   0  0  0  0  0  0  0  0  0  0  0  0
  129.5510  127.6740   62.4960 C   0  0  0  0  0  0  0  0  0  0  0  0
  129.7790  126.3420   62.1420 C   0  0  0  0  0  0  0  0  0  0  0  0
  130.3960  126.0370   60.9150 C   0  0  0  0  0  0  0  0  0  0  0  0
  130.7880  127.0900   60.0760 C   0  0  0  0  0  0  0  0  0  0  0  0
  130.6880  124.6120   60.4920 C   0  0  0  0  0  0  0  0  0  0  0  0
  129.9260  124.0750   59.6830 O   0  0  0  0  0  0  0  0  0  0  0  0
  131.7840  123.9740   60.9970 N   0  0  0  0  0  0  0  0  0  0  0  0
  132.1130  122.5630   60.6800 C   0  0  2  0  0  0  0  0  0  0  0  0
  131.1230  121.5340   61.2780 C   0  0  0  0  0  0  0  0  0  0  0  0
  133.6020  122.2280   60.9350 C   0  0  0  0  0  0  0  0  0  0  0  0
  133.7450  120.9620   61.5460 O   0  0  0  0  0  0  0  0  0  0  0  0
  132.6450  124.5710   62.0380 C   0  0  0  0  0  0  0  0  0  0  0  0
  131.8710  125.2990   63.1750 C   0  0  2  0  0  0  0  0  0  0  0  0
  132.7990  125.4720   64.3950 C   0  0  0  0  0  0  0  0  0  0  0  0
  130.5400  124.5730   63.5350 C   0  0  1  0  0  0  0  0  0  0  0  0
  130.2540  124.4420   65.0540 C   0  0  0  0  0  0  0  0  0  0  0  0
  130.5950  125.7280   65.8490 N   0  0  2  0  0  0  0  0  0  0  0  0
  131.6410  125.4880   66.9610 C   0  0  0  0  0  0  0  0  0  0  0  0
  129.3220  126.4150   66.3980 C   0  0  0  0  0  0  0  0  0  0  0  0
  129.4430  126.9010   67.8340 C   0  0  0  0  0  0  0  0  0  0  0  0
  130.5520  127.6550   68.2270 C   0  0  0  0  0  0  0  0  0  0  0  0
  130.6590  128.1140   69.5400 C   0  0  0  0  0  0  0  0  0  0  0  0
  129.6570  127.8290   70.4700 C   0  0  0  0  0  0  0  0  0  0  0  0
  129.8280  128.4160   72.0880 Cl  0  0  0  0  0  0  0  0  0  0  0  0
  128.5390  127.0800   70.0790 C   0  0  0  0  0  0  0  0  0  0  0  0
  127.2730  126.7050   71.1960 Cl  0  0  0  0  0  0  0  0  0  0  0  0
  128.4350  126.6230   68.7640 C   0  0  0  0  0  0  0  0  0  0  0  0
  129.4510  125.3470   63.0350 O   0  0  0  0  0  0  0  0  0  0  0  0
  129.1391  133.0393   60.8982 H   0  0  0  0  0  0  0  0  0  0  0  0
  128.2958  134.2927   59.9264 H   0  0  0  0  0  0  0  0  0  0  0  0
  127.6937  132.6003   59.9264 H   0  0  0  0  0  0  0  0  0  0  0  0
  132.8538  131.0952   57.2315 H   0  0  0  0  0  0  0  0  0  0  0  0
  131.6794  130.7289   55.9225 H   0  0  0  0  0  0  0  0  0  0  0  0
  132.5658  132.2912   55.9225 H   0  0  0  0  0  0  0  0  0  0  0  0
  131.1610  129.1380   58.5740 H   0  0  0  0  0  0  0  0  0  0  0  0
  129.7438  129.7520   61.9299 H   0  0  0  0  0  0  0  0  0  0  0  0
  129.0680  127.9089   63.4559 H   0  0  0  0  0  0  0  0  0  0  0  0
  131.2943  126.8621   59.1264 H   0  0  0  0  0  0  0  0  0  0  0  0
  131.9697  122.4633   59.5939 H   0  0  0  0  0  0  0  0  0  0  0  0
  131.1663  121.5790   62.3762 H   0  0  0  0  0  0  0  0  0  0  0  0
  130.1024  121.7686   60.9413 H   0  0  0  0  0  0  0  0  0  0  0  0
  131.3969  120.5232   60.9413 H   0  0  0  0  0  0  0  0  0  0  0  0
  134.1384  122.2253   59.9747 H   0  0  0  0  0  0  0  0  0  0  0  0
  134.0188  122.9893   61.6108 H   0  0  0  0  0  0  0  0  0  0  0  0
  134.6810  120.7800   61.6580 H   0  0  0  0  0  0  0  0  0  0  0  0
  133.2449  123.7675   62.4903 H   0  0  0  0  0  0  0  0  0  0  0  0
  133.2579  125.3350   61.5373 H   0  0  0  0  0  0  0  0  0  0  0  0
  131.5736  126.2971   62.8211 H   0  0  0  0  0  0  0  0  0  0  0  0
  132.2132  125.3628   65.3196 H   0  0  0  0  0  0  0  0  0  0  0  0
  133.5874  124.7053   64.3677 H   0  0  0  0  0  0  0  0  0  0  0  0
  133.2582  126.4712   64.3677 H   0  0  0  0  0  0  0  0  0  0  0  0
  130.6419  123.5670   63.1020 H   0  0  0  0  0  0  0  0  0  0  0  0
  129.1858  124.2183   65.1913 H   0  0  0  0  0  0  0  0  0  0  0  0
  130.8960  123.6368   65.4408 H   0  0  0  0  0  0  0  0  0  0  0  0
  131.0020  126.3760   65.1880 H   0  0  0  0  0  0  0  0  0  0  0  0
  131.1618  125.5979   67.9450 H   0  0  0  0  0  0  0  0  0  0  0  0
  132.0520  124.4722   66.8647 H   0  0  0  0  0  0  0  0  0  0  0  0
  132.4537  126.2230   66.8647 H   0  0  0  0  0  0  0  0  0  0  0  0
  129.0952  127.2812   65.7591 H   0  0  0  0  0  0  0  0  0  0  0  0
  128.5255  125.6564   66.3882 H   0  0  0  0  0  0  0  0  0  0  0  0
  131.3430  127.8873   67.4988 H   0  0  0  0  0  0  0  0  0  0  0  0
  131.5367  128.7032   69.8442 H   0  0  0  0  0  0  0  0  0  0  0  0
  127.5542  126.0401   68.4566 H   0  0  0  0  0  0  0  0  0  0  0  0
  1  2  1  0
  2  3  2  0
  3  4  1  0
  4  5  1  0
  5  6  1  0
  5  7  2  0
  7  8  1  0
  8  9  2  0
  8 10  2  0
  8 11  1  0
 11 12  1  0
 12 13  2  0
 13 14  1  0
 14 15  2  0
 15 16  1  0
 16 17  2  0
 16 18  1  0
 18 19  2  0
 18 20  1  0
 20 21  1  0
 21 22  1  0
 21 23  1  0
 23 24  1  0
 20 25  1  0
 25 26  1  0
 26 27  1  0
 26 28  1  0
 28 29  1  0
 29 30  1  0
 30 31  1  0
 30 32  1  0
 32 33  1  0
 33 34  2  0
 34 35  1  0
 35 36  2  0
 36 37  1  0
 36 38  1  0
 38 39  1  0
 38 40  2  0
 28 41  1  0
  7  2  1  0
 17 12  1  0
 40 33  1  0
 41 15  1  0
  1 42  1  0
  1 43  1  0
  1 44  1  0
  6 45  1  0
  6 46  1  0
  6 47  1  0
 11 48  1  0
 13 49  1  0
 14 50  1  0
 17 51  1  0
 21 52  1  6
 22 53  1  0
 22 54  1  0
 22 55  1  0
 23 56  1  0
 23 57  1  0
 24 58  1  0
 25 59  1  0
 25 60  1  0
 26 61  1  6
 27 62  1  0
 27 63  1  0
 27 64  1  0
 28 65  1  6
 29 66  1  0
 29 67  1  0
 30 68  1  6
 31 69  1  0
 31 70  1  0
 31 71  1  0
 32 72  1  0
 32 73  1  0
 34 74  1  0
 35 75  1  0
 40 76  1  0
M  CHG  1  30   1
M  END
>  <Binding energies>  (1) 
[-8.02]

>  <Ligand effiencies>  (1) 
[-0.1743478260869565]

>  <Interactions>  (1) 
["V-A:ILE:369:CG2:3237, V-A:GLU:543:CA:4904, V-B:GLU:543:C:9874, H-A:GLU:543:OE2:4910, V-A:GLU:543:C:4902, V-B:GLU:543:CB:9878, H-A:TYR:531:OH:4795, V-B:TYR:539:CE2:9848, V-B:GLU:543:CG:9879, V-A:TYR:539:CD1:4873, V-A:LEU:363:CD1:3189, V-A:TYR:531:CE2:4793, V-A:GLU:543:CD:4908, V-A:TYR:484:CZ:4347, V-B:GLU:543:CA:9876, V-B:HIS:456:CE1:9041, V-A:ILE:369:CD1:3239, V-A:HIS:456:CE1:4070, V-B:GLY:544:C:9884, V-B:TYR:539:CD2:9846, V-A:TYR:531:CZ:4794, V-A:GLU:543:CG:4907, H-A:SER:385:OG:3410, V-B:GLU:543:CD:9880, V-B:GLY:544:CA:9886, V-A:TYR:539:C:4867, V-A:LEU:475:CD2:4259, V-A:ARG:545:CZ:4926, H-A:GLU:543:OE1:4909, V-A:GLU:543:CB:4906, V-A:PRO:540:N:4884, H-A:TYR:539:N:4870, V-A:PRO:540:CB:4885, V-A:PRO:540:CA:4883, H-A:SER:385:O:3406, H-A:ASP:366:OD2:3215"]

$$$$
ZINC95911280
     RDKit          3D

 93 96  0  0  0  0  0  0  0  0999 V2000
  132.5130  129.9860   58.1270 C   0  0  0  0  0  0  0  0  0  0  0  0
  131.2300  130.0550   57.2790 C   0  0  0  0  0  0  0  0  0  0  0  0
  129.9850  129.3450   57.8860 C   0  0  1  0  0  0  0  0  0  0  0  0
  128.9280  130.3140   58.5180 C   0  0  2  0  0  0  0  0  0  0  0  0
  128.8390  131.6390   57.7280 C   0  0  0  0  0  0  0  0  0  0  0  0
  129.1370  130.5460   60.0370 C   0  0  0  0  0  0  0  0  0  0  0  0
  129.9690  131.7900   60.4360 C   0  0  2  0  0  0  0  0  0  0  0  0
  130.9930  132.0120   59.4860 O   0  0  0  0  0  0  0  0  0  0  0  0
  130.5480  131.7070   61.8840 C   0  0  1  0  0  0  0  0  0  0  0  0
  131.7940  132.4180   61.9640 O   0  0  0  0  0  0  0  0  0  0  0  0
  132.9420  131.8230   62.3680 C   0  0  0  0  0  0  0  0  0  0  0  0
  133.9270  131.6390   61.2210 C   0  0  0  0  0  0  0  0  0  0  0  0
  133.2110  131.4450   63.5090 O   0  0  0  0  0  0  0  0  0  0  0  0
  129.6000  132.1480   63.0510 C   0  0  0  0  0  0  0  0  0  0  0  0
  128.6570  133.3240   62.7040 C   0  0  0  0  0  0  0  0  0  0  0  0
  128.8000  130.9650   63.6380 C   0  0  0  0  0  0  0  0  0  0  0  0
  130.4340  132.5950   64.1090 O   0  0  0  0  0  0  0  0  0  0  0  0
  129.4180  128.3590   57.0680 O   0  0  0  0  0  0  0  0  0  0  0  0
  130.0500  127.8390   58.2110 C   0  0  1  0  0  0  0  0  0  0  0  0
  131.2980  126.9700   57.8920 C   0  0  0  0  0  0  0  0  0  0  0  0
  132.0380  126.3800   59.1230 C   0  0  2  0  0  0  0  0  0  0  0  0
  133.0170  125.5080   58.5950 O   0  0  0  0  0  0  0  0  0  0  0  0
  131.0660  125.7100   60.1570 C   0  0  2  0  0  0  0  0  0  0  0  0
  129.8970  126.7020   60.5290 C   0  0  2  0  0  0  0  0  0  0  0  0
  130.3840  128.0410   61.1790 C   0  0  0  0  0  0  0  0  0  0  0  0
  128.9730  125.9050   61.4880 C   0  0  0  0  0  0  0  0  0  0  0  0
  129.6080  125.6660   62.8630 C   0  0  0  0  0  0  0  0  0  0  0  0
  131.1130  125.2560   62.7980 C   0  0  1  0  0  0  0  0  0  0  0  0
  131.6730  124.5570   64.1090 C   0  0  0  0  0  0  0  0  0  0  0  0
  131.3130  125.4390   65.3440 C   0  0  0  0  0  0  0  0  0  0  0  0
  131.1370  123.1060   64.2890 C   0  0  0  0  0  0  0  0  0  0  0  0
  133.2310  124.4550   64.0200 C   0  0  0  0  0  0  0  0  0  0  0  0
  133.9840  124.7260   64.9560 O   0  0  0  0  0  0  0  0  0  0  0  0
  133.8050  124.0330   62.6600 C   0  0  0  0  0  0  0  0  0  0  0  0
  133.2150  124.8620   61.5020 C   0  0  0  0  0  0  0  0  0  0  0  0
  131.6570  124.8120   61.3740 C   0  0  2  0  0  0  0  0  0  0  0  0
  131.2550  123.3360   61.0580 C   0  0  0  0  0  0  0  0  0  0  0  0
  129.1080  127.1020   59.2160 C   0  0  2  0  0  0  0  0  0  0  0  0
  128.2870  125.9690   58.5430 C   0  0  0  0  0  0  0  0  0  0  0  0
  132.2481  130.0002   59.1945 H   0  0  0  0  0  0  0  0  0  0  0  0
  133.0556  129.0574   57.8962 H   0  0  0  0  0  0  0  0  0  0  0  0
  133.1520  130.8511   57.8962 H   0  0  0  0  0  0  0  0  0  0  0  0
  130.9773  131.1156   57.1329 H   0  0  0  0  0  0  0  0  0  0  0  0
  131.4568  129.5197   56.3452 H   0  0  0  0  0  0  0  0  0  0  0  0
  127.9538  129.8102   58.4338 H   0  0  0  0  0  0  0  0  0  0  0  0
  128.7823  132.4824   58.4318 H   0  0  0  0  0  0  0  0  0  0  0  0
  129.7318  131.7491   57.0949 H   0  0  0  0  0  0  0  0  0  0  0  0
  127.9395  131.6287   57.0949 H   0  0  0  0  0  0  0  0  0  0  0  0
  128.1441  130.6449   60.5001 H   0  0  0  0  0  0  0  0  0  0  0  0
  129.7191  129.6808   60.3872 H   0  0  0  0  0  0  0  0  0  0  0  0
  129.2833  132.6501   60.4386 H   0  0  0  0  0  0  0  0  0  0  0  0
  131.8410  131.8750   59.9150 H   0  0  0  0  0  0  0  0  0  0  0  0
  130.6892  130.6286   62.0488 H   0  0  0  0  0  0  0  0  0  0  0  0
  134.9319  131.4513   61.6272 H   0  0  0  0  0  0  0  0  0  0  0  0
  133.6153  130.7835   60.6037 H   0  0  0  0  0  0  0  0  0  0  0  0
  133.9452  132.5493   60.6037 H   0  0  0  0  0  0  0  0  0  0  0  0
  128.2879  133.7843   63.6324 H   0  0  0  0  0  0  0  0  0  0  0  0
  129.2069  134.0739   62.1164 H   0  0  0  0  0  0  0  0  0  0  0  0
  127.8055  132.9501   62.1164 H   0  0  0  0  0  0  0  0  0  0  0  0
  128.8309  131.0107   64.7366 H   0  0  0  0  0  0  0  0  0  0  0  0
  127.7556  131.0239   63.2978 H   0  0  0  0  0  0  0  0  0  0  0  0
  129.2436  130.0176   63.2978 H   0  0  0  0  0  0  0  0  0  0  0  0
  131.3490  132.5130   63.8300 H   0  0  0  0  0  0  0  0  0  0  0  0
  130.9733  126.1314   57.2585 H   0  0  0  0  0  0  0  0  0  0  0  0
  132.0170  127.6443   57.4038 H   0  0  0  0  0  0  0  0  0  0  0  0
  132.5161  127.1671   59.7246 H   0  0  0  0  0  0  0  0  0  0  0  0
  133.5360  125.9900   57.9470 H   0  0  0  0  0  0  0  0  0  0  0  0
  130.6536  124.8547   59.6017 H   0  0  0  0  0  0  0  0  0  0  0  0
  130.3509  127.9500   62.2747 H   0  0  0  0  0  0  0  0  0  0  0  0
  131.4156  128.2498   60.8594 H   0  0  0  0  0  0  0  0  0  0  0  0
  129.7275  128.8637   60.8594 H   0  0  0  0  0  0  0  0  0  0  0  0
  128.0388  126.4693   61.6256 H   0  0  0  0  0  0  0  0  0  0  0  0
  128.7918  124.9208   61.0314 H   0  0  0  0  0  0  0  0  0  0  0  0
  129.5259  126.5933   63.4491 H   0  0  0  0  0  0  0  0  0  0  0  0
  129.0666  124.8273   63.3251 H   0  0  0  0  0  0  0  0  0  0  0  0
  131.6694  126.2029   62.8592 H   0  0  0  0  0  0  0  0  0  0  0  0
  131.5387  124.8861   66.2678 H   0  0  0  0  0  0  0  0  0  0  0  0
  131.9048  126.3659   65.3176 H   0  0  0  0  0  0  0  0  0  0  0  0
  130.2417  125.6871   65.3176 H   0  0  0  0  0  0  0  0  0  0  0  0
  131.0523  122.8768   65.3615 H   0  0  0  0  0  0  0  0  0  0  0  0
  130.1475  123.0194   63.8163 H   0  0  0  0  0  0  0  0  0  0  0  0
  131.8325  122.3969   63.8163 H   0  0  0  0  0  0  0  0  0  0  0  0
  134.8961  124.1720   62.6764 H   0  0  0  0  0  0  0  0  0  0  0  0
  133.5408  122.9785   62.4921 H   0  0  0  0  0  0  0  0  0  0  0  0
  133.5109  125.9112   61.6492 H   0  0  0  0  0  0  0  0  0  0  0  0
  133.6118  124.4195   60.5764 H   0  0  0  0  0  0  0  0  0  0  0  0
  131.1055  122.7871   61.9995 H   0  0  0  0  0  0  0  0  0  0  0  0
  130.3216  123.3268   60.4760 H   0  0  0  0  0  0  0  0  0  0  0  0
  132.0548  122.8547   60.4760 H   0  0  0  0  0  0  0  0  0  0  0  0
  128.3267  127.7988   59.5536 H   0  0  0  0  0  0  0  0  0  0  0  0
  127.8293  125.3374   59.3187 H   0  0  0  0  0  0  0  0  0  0  0  0
  127.4977  126.4104   57.9168 H   0  0  0  0  0  0  0  0  0  0  0  0
  128.9523  125.3564   57.9168 H   0  0  0  0  0  0  0  0  0  0  0  0
  1  2  1  0
  3  2  1  6
  3  4  1  0
  4  5  1  0
  4  6  1  0
  6  7  1  0
  7  8  1  0
  7  9  1  0
  9 10  1  0
 10 11  1  0
 11 12  1  0
 11 13  2  0
  9 14  1  0
 14 15  1  0
 14 16  1  0
 14 17  1  0
  3 18  1  0
 19 18  1  6
 19 20  1  0
 20 21  1  0
 21 22  1  0
 21 23  1  0
 23 24  1  0
 24 25  1  1
 24 26  1  0
 26 27  1  0
 27 28  1  0
 28 29  1  0
 29 30  1  0
 29 31  1  0
 29 32  1  0
 32 33  2  0
 32 34  1  0
 34 35  1  0
 35 36  1  0
 36 37  1  6
 24 38  1  0
 38 39  1  0
 19  3  1  0
 36 23  1  0
 38 19  1  0
 36 28  1  0
  1 40  1  0
  1 41  1  0
  1 42  1  0
  2 43  1  0
  2 44  1  0
  4 45  1  1
  5 46  1  0
  5 47  1  0
  5 48  1  0
  6 49  1  0
  6 50  1  0
  7 51  1  1
  8 52  1  0
  9 53  1  1
 12 54  1  0
 12 55  1  0
 12 56  1  0
 15 57  1  0
 15 58  1  0
 15 59  1  0
 16 60  1  0
 16 61  1  0
 16 62  1  0
 17 63  1  0
 20 64  1  0
 20 65  1  0
 21 66  1  1
 22 67  1  0
 23 68  1  6
 25 69  1  0
 25 70  1  0
 25 71  1  0
 26 72  1  0
 26 73  1  0
 27 74  1  0
 27 75  1  0
 28 76  1  1
 30 77  1  0
 30 78  1  0
 30 79  1  0
 31 80  1  0
 31 81  1  0
 31 82  1  0
 34 83  1  0
 34 84  1  0
 35 85  1  0
 35 86  1  0
 37 87  1  0
 37 88  1  0
 37 89  1  0
 38 90  1  1
 39 91  1  0
 39 92  1  0
 39 93  1  0
M  END
>  <Binding energies>  (1) 
[-8.36]

>  <Ligand effiencies>  (1) 
[-0.19904761904761903]

>  <Interactions>  (1) 
["V-A:ALA:541:C:4888, V-A:GLY:454:CA:4049, H-A:ALA:541:N:4891, H-A:ALA:541:O:4889, H-A:TYR:531:OH:4795, V-B:TYR:539:CE2:9848, V-A:TYR:484:CE2:4346, V-B:LEU:475:CD2:9230, V-A:ASP:366:CG:3213, V-A:ASN:362:CB:3176, V-A:TYR:531:CE2:4793, H-B:TYR:539:OH:9850, V-A:ALA:541:CB:4892, V-A:GLU:543:CD:4908, V-A:TYR:484:CZ:4347, H-A:GLY:454:N:4050, V-A:ALA:541:CA:4890, V-A:TYR:531:CZ:4794, V-A:GLU:543:CG:4907, V-B:GLU:543:CD:9880, V-A:ASP:366:CB:3212, V-A:LEU:475:CD2:4259, H-A:ARG:545:NH2:4928, V-A:ARG:545:CZ:4926, H-A:GLU:543:OE1:4909, V-A:ASN:362:C:3172, H-A:ASP:366:O:3209, H-A:ASN:362:ND2:3179, V-A:PRO:540:CB:4885, V-A:PRO:540:CA:4883, V-A:ASN:362:CA:3174, V-A:LEU:363:CA:3185, H-A:ARG:545:NE:4924, H-A:TYR:484:OH:4348"]

$$$$
ZINC95921583
     RDKit          3D

 56 59  0  0  0  0  0  0  0  0999 V2000
  125.4720  124.3600   56.7820 C   0  0  0  0  0  0  0  0  0  0  0  0
  126.2030  123.8510   58.0110 C   0  0  0  0  0  0  0  0  0  0  0  0
  125.7080  124.1340   59.2850 C   0  0  0  0  0  0  0  0  0  0  0  0
  126.3700  123.6510   60.4110 C   0  0  0  0  0  0  0  0  0  0  0  0
  127.5310  122.8910   60.2590 C   0  0  0  0  0  0  0  0  0  0  0  0
  128.3910  122.3050   61.7170 S   0  0  0  0  0  0  0  0  0  0  0  0
  127.5130  122.4660   62.8820 O   0  0  0  0  0  0  0  0  0  0  0  0
  129.0030  121.0120   61.3880 O   0  0  0  0  0  0  0  0  0  0  0  0
  129.6060  123.4530   61.7680 O   0  0  0  0  0  0  0  0  0  0  0  0
  129.2730  124.7930   62.1140 C   0  0  1  0  0  0  0  0  0  0  0  0
  129.1300  124.9350   63.6210 C   0  0  1  0  0  0  0  0  0  0  0  0
  130.1530  124.3170   64.3780 O   0  0  0  0  0  0  0  0  0  0  0  0
  130.5710  125.2010   65.3670 C   0  0  0  0  0  0  0  0  0  0  0  0
  132.0880  125.3340   65.2990 C   0  0  0  0  0  0  0  0  0  0  0  0
  130.0570  124.7230   66.7190 C   0  0  0  0  0  0  0  0  0  0  0  0
  129.9820  126.4330   65.0780 O   0  0  0  0  0  0  0  0  0  0  0  0
  129.4810  126.3860   63.7880 C   0  0  1  0  0  0  0  0  0  0  0  0
  130.4250  126.6920   62.8010 O   0  0  0  0  0  0  0  0  0  0  0  0
  130.4290  125.7270   61.7520 C   0  0  2  0  0  0  0  0  0  0  0  0
  130.2910  126.4580   60.4020 C   0  0  1  0  0  0  0  0  0  0  0  0
  131.2130  127.6610   60.2360 C   0  0  0  0  0  0  0  0  0  0  0  0
  131.3360  127.7920   58.7380 C   0  0  0  0  0  0  0  0  0  0  0  0
  131.2000  126.3440   58.2250 C   0  0  0  0  0  0  0  0  0  0  0  0
  130.1590  126.2220   57.0950 C   0  0  0  0  0  0  0  0  0  0  0  0
  132.5540  125.7090   57.8600 C   0  0  0  0  0  0  0  0  0  0  0  0
  130.6940  125.5960   59.3390 O   0  0  0  0  0  0  0  0  0  0  0  0
  128.0220  122.5970   58.9860 C   0  0  0  0  0  0  0  0  0  0  0  0
  127.3540  123.0750   57.8610 C   0  0  0  0  0  0  0  0  0  0  0  0
  124.6063  124.9628   57.0937 H   0  0  0  0  0  0  0  0  0  0  0  0
  126.1532  124.9801   56.1808 H   0  0  0  0  0  0  0  0  0  0  0  0
  125.1268  123.5060   56.1808 H   0  0  0  0  0  0  0  0  0  0  0  0
  124.7958  124.7380   59.3995 H   0  0  0  0  0  0  0  0  0  0  0  0
  125.9795  123.8675   61.4163 H   0  0  0  0  0  0  0  0  0  0  0  0
  128.3421  125.0397   61.5824 H   0  0  0  0  0  0  0  0  0  0  0  0
  128.1576  124.5318   63.9402 H   0  0  0  0  0  0  0  0  0  0  0  0
  132.4990  125.3700   66.3187 H   0  0  0  0  0  0  0  0  0  0  0  0
  132.5083  124.4693   64.7646 H   0  0  0  0  0  0  0  0  0  0  0  0
  132.3514  126.2587   64.7646 H   0  0  0  0  0  0  0  0  0  0  0  0
  130.6073  125.2348   67.5223 H   0  0  0  0  0  0  0  0  0  0  0  0
  128.9846  124.9522   66.8055 H   0  0  0  0  0  0  0  0  0  0  0  0
  130.2079  123.6368   66.8055 H   0  0  0  0  0  0  0  0  0  0  0  0
  128.6635  127.1126   63.6706 H   0  0  0  0  0  0  0  0  0  0  0  0
  131.3523  125.1384   61.6466 H   0  0  0  0  0  0  0  0  0  0  0  0
  129.2366  126.7705   60.3784 H   0  0  0  0  0  0  0  0  0  0  0  0
  130.7665  128.5647   60.6763 H   0  0  0  0  0  0  0  0  0  0  0  0
  132.1824  127.5364   60.7407 H   0  0  0  0  0  0  0  0  0  0  0  0
  130.5339  128.4271   58.3338 H   0  0  0  0  0  0  0  0  0  0  0  0
  132.2810  128.2634   58.4302 H   0  0  0  0  0  0  0  0  0  0  0  0
  129.1562  126.1045   57.5314 H   0  0  0  0  0  0  0  0  0  0  0  0
  130.1844  127.1293   56.4735 H   0  0  0  0  0  0  0  0  0  0  0  0
  130.3935  125.3452   56.4735 H   0  0  0  0  0  0  0  0  0  0  0  0
  133.0991  125.4533   58.7806 H   0  0  0  0  0  0  0  0  0  0  0  0
  132.3838  124.7968   57.2693 H   0  0  0  0  0  0  0  0  0  0  0  0
  133.1465  126.4231   57.2693 H   0  0  0  0  0  0  0  0  0  0  0  0
  128.9325  121.9905   58.8716 H   0  0  0  0  0  0  0  0  0  0  0  0
  127.7330  122.8413   56.8552 H   0  0  0  0  0  0  0  0  0  0  0  0
  1  2  1  0
  2  3  2  0
  3  4  1  0
  4  5  2  0
  5  6  1  0
  6  7  2  0
  6  8  2  0
  6  9  1  0
  9 10  1  0
 10 11  1  0
 11 12  1  0
 12 13  1  0
 13 14  1  0
 13 15  1  0
 13 16  1  0
 16 17  1  0
 17 18  1  0
 18 19  1  0
 19 20  1  0
 20 21  1  0
 21 22  1  0
 22 23  1  0
 23 24  1  0
 23 25  1  0
 23 26  1  0
  5 27  1  0
 27 28  2  0
 28  2  1  0
 19 10  1  0
 26 20  1  0
 17 11  1  0
  1 29  1  0
  1 30  1  0
  1 31  1  0
  3 32  1  0
  4 33  1  0
 10 34  1  6
 11 35  1  1
 14 36  1  0
 14 37  1  0
 14 38  1  0
 15 39  1  0
 15 40  1  0
 15 41  1  0
 17 42  1  1
 19 43  1  6
 20 44  1  6
 21 45  1  0
 21 46  1  0
 22 47  1  0
 22 48  1  0
 24 49  1  0
 24 50  1  0
 24 51  1  0
 25 52  1  0
 25 53  1  0
 25 54  1  0
 27 55  1  0
 28 56  1  0
M  END
>  <Binding energies>  (1) 
[-6.74]

>  <Ligand effiencies>  (1) 
[-0.24071428571428571]

>  <Interactions>  (1) 
["V-A:ASP:366:CA:3210, V-B:PRO:540:CA:9855, V-B:GLU:543:CB:9878, V-B:ALA:541:CB:9864, V-B:TYR:539:CE2:9848, V-A:TYR:484:CE2:4346, V-B:GLU:543:CG:9879, V-B:TYR:539:C:9839, V-A:ASP:366:CG:3213, H-B:ALA:541:N:9863, V-B:TYR:531:CE2:9765, V-A:GLU:543:CD:4908, V-B:PRO:540:CB:9857, V-A:TYR:484:CZ:4347, V-B:GLU:543:CA:9876, V-B:PRO:540:N:9856, V-A:HIS:456:CE1:4070, V-B:TYR:539:CD2:9846, V-B:GLU:543:CD:9880, V-A:ASP:366:CB:3212, H-A:ARG:545:NH2:4928, V-A:ARG:545:CZ:4926, V-B:LEU:363:CD1:8160, V-B:PRO:540:C:9853, V-B:MET:535:CE:9807"]

$$$$
ZINC95946885
     RDKit          3D

 31 32  0  0  0  0  0  0  0  0999 V2000
  133.5750  123.9840   59.2490 C   0  0  0  0  0  0  0  0  0  0  0  0
  133.6710  123.5160   60.5050 C   0  0  0  0  0  0  0  0  0  0  0  0
  133.2360  122.1080   60.8790 C   0  0  0  0  0  0  0  0  0  0  0  0
  134.2220  124.3660   61.6360 C   0  0  0  0  0  0  0  0  0  0  0  0
  134.0700  123.6960   62.8790 O   0  0  0  0  0  0  0  0  0  0  0  0
  133.2560  124.1830   63.8470 C   0  0  0  0  0  0  0  0  0  0  0  0
  133.6350  124.7290   64.8840 O   0  0  0  0  0  0  0  0  0  0  0  0
  131.7460  124.0060   63.5730 C   0  0  0  0  0  0  0  0  0  0  0  0
  130.9050  124.2840   64.7500 N   0  0  0  0  0  0  0  0  0  0  0  0
  130.7300  125.5160   65.2330 N   0  0  0  0  0  0  0  0  0  0  0  0
  129.8880  125.3410   66.1580 C   0  0  0  0  0  0  0  0  0  0  0  0
  129.3280  126.3800   67.0220 C   0  0  0  0  0  0  0  0  0  0  0  0
  128.7370  127.5850   66.6430 C   0  0  0  0  0  0  0  0  0  0  0  0
  128.3040  128.3580   67.7250 C   0  0  0  0  0  0  0  0  0  0  0  0
  128.5600  127.7560   68.9470 C   0  0  0  0  0  0  0  0  0  0  0  0
  129.3440  126.2210   68.7620 S   0  0  0  0  0  0  0  0  0  0  0  0
  129.4820  124.0530   66.3260 O   0  0  0  0  0  0  0  0  0  0  0  0
  130.1000  123.3450   65.3810 C   0  0  0  0  0  0  0  0  0  0  0  0
  129.9270  122.1430   65.1850 O   0  0  0  0  0  0  0  0  0  0  0  0
  133.9004  125.0090   59.0176 H   0  0  0  0  0  0  0  0  0  0  0  0
  133.1711  123.3421   58.4523 H   0  0  0  0  0  0  0  0  0  0  0  0
  133.2064  122.0122   61.9744 H   0  0  0  0  0  0  0  0  0  0  0  0
  132.2353  121.9117   60.4666 H   0  0  0  0  0  0  0  0  0  0  0  0
  133.9516  121.3814   60.4666 H   0  0  0  0  0  0  0  0  0  0  0  0
  135.2899  124.5593   61.4568 H   0  0  0  0  0  0  0  0  0  0  0  0
  133.6666  125.3148   61.6721 H   0  0  0  0  0  0  0  0  0  0  0  0
  131.4546  124.6934   62.7652 H   0  0  0  0  0  0  0  0  0  0  0  0
  131.5854  122.9530   63.2985 H   0  0  0  0  0  0  0  0  0  0  0  0
  128.6225  127.8972   65.5945 H   0  0  0  0  0  0  0  0  0  0  0  0
  127.8138  129.3369   67.6180 H   0  0  0  0  0  0  0  0  0  0  0  0
  128.2970  128.1995   69.9186 H   0  0  0  0  0  0  0  0  0  0  0  0
  1  2  2  0
  2  3  1  0
  2  4  1  0
  4  5  1  0
  5  6  1  0
  6  7  2  0
  6  8  1  0
  8  9  1  0
  9 10  1  0
 10 11  2  0
 11 12  1  0
 12 13  2  0
 13 14  1  0
 14 15  2  0
 15 16  1  0
 11 17  1  0
 17 18  1  0
 18 19  2  0
 18  9  1  0
 16 12  1  0
  1 20  1  0
  1 21  1  0
  3 22  1  0
  3 23  1  0
  3 24  1  0
  4 25  1  0
  4 26  1  0
  8 27  1  0
  8 28  1  0
 13 29  1  0
 14 30  1  0
 15 31  1  0
M  END
>  <Binding energies>  (1) 
[-5.06]

>  <Ligand effiencies>  (1) 
[-0.2663157894736842]

>  <Interactions>  (1) 
["V-A:ILE:369:CG2:3237, V-A:ASP:366:CA:3210, V-A:GLY:454:CA:4049, V-B:GLU:543:C:9874, V-A:ILE:369:CB:3236, V-B:GLU:543:CB:9878, V-B:TYR:539:CE2:9848, V-A:TYR:484:CE2:4346, V-B:GLU:543:CG:9879, V-A:ASP:366:CG:3213, V-A:TYR:484:CZ:4347, V-A:GLU:543:CD:4908, V-B:HIS:456:CE1:9041, H-A:GLY:454:N:4050, V-A:ILE:369:CD1:3239, V-A:HIS:456:CE1:4070, V-B:GLU:543:CD:9880, H-A:ARG:545:NH2:4928, V-A:GLU:543:CB:4906, H-A:ARG:545:NE:4924, H-A:TYR:484:OH:4348"]

$$$$
ZINC95983432
     RDKit          3D

 37 38  0  0  0  0  0  0  0  0999 V2000
  128.1940  126.6830   71.8370 C   0  0  0  0  0  0  0  0  0  0  0  0
  128.7190  127.3860   70.5780 C   0  0  0  0  0  0  0  0  0  0  0  0
  127.9810  126.9370   69.3030 C   0  0  0  0  0  0  0  0  0  0  0  0
  128.8130  126.9600   68.0890 N   0  0  0  0  0  0  0  0  0  0  0  0
  129.0740  128.3120   67.5660 C   0  0  0  0  0  0  0  0  0  0  0  0
  127.8220  128.9880   66.9770 C   0  0  0  0  0  0  0  0  0  0  0  0
  127.9720  129.2950   65.4820 C   0  0  0  0  0  0  0  0  0  0  0  0
  129.4760  125.8410   67.6760 C   0  0  0  0  0  0  0  0  0  0  0  0
  129.5190  124.8080   68.3480 O   0  0  0  0  0  0  0  0  0  0  0  0
  130.1670  125.8460   66.3340 C   0  0  0  0  0  0  0  0  0  0  0  0
  131.5120  125.4570   66.2540 C   0  0  0  0  0  0  0  0  0  0  0  0
  132.2200  125.4100   65.0440 C   0  0  0  0  0  0  0  0  0  0  0  0
  133.6440  124.9960   65.0340 N   0  0  0  0  0  0  0  0  0  0  0  0
  134.1580  124.7210   63.9530 O   0  0  0  0  0  0  0  0  0  0  0  0
  134.2570  124.9590   66.0950 O   0  0  0  0  0  0  0  0  0  0  0  0
  131.5030  125.7750   63.8800 C   0  0  0  0  0  0  0  0  0  0  0  0
  132.0240  125.8140   62.6280 N   0  0  0  0  0  0  0  0  0  0  0  0
  130.7690  126.2940   61.6370 S   0  0  0  0  0  0  0  0  0  0  0  0
  129.5600  126.4690   62.7740 N   0  0  0  0  0  0  0  0  0  0  0  0
  130.1430  126.1480   63.9510 C   0  0  0  0  0  0  0  0  0  0  0  0
  129.4590  126.1790   65.1710 C   0  0  0  0  0  0  0  0  0  0  0  0
  128.5777  127.1968   72.7308 H   0  0  0  0  0  0  0  0  0  0  0  0
  127.0944  126.7116   71.8413 H   0  0  0  0  0  0  0  0  0  0  0  0
  128.5336  125.6367   71.8413 H   0  0  0  0  0  0  0  0  0  0  0  0
  128.5871  128.4714   70.6987 H   0  0  0  0  0  0  0  0  0  0  0  0
  129.7798  127.1188   70.4628 H   0  0  0  0  0  0  0  0  0  0  0  0
  127.6209  125.9089   69.4559 H   0  0  0  0  0  0  0  0  0  0  0  0
  127.1622  127.6534   69.1408 H   0  0  0  0  0  0  0  0  0  0  0  0
  129.4547  128.9369   68.3873 H   0  0  0  0  0  0  0  0  0  0  0  0
  129.8047  128.2109   66.7500 H   0  0  0  0  0  0  0  0  0  0  0  0
  126.9606  128.3180   67.1153 H   0  0  0  0  0  0  0  0  0  0  0  0
  127.6780  129.9434   67.5028 H   0  0  0  0  0  0  0  0  0  0  0  0
  128.4517  130.2768   65.3556 H   0  0  0  0  0  0  0  0  0  0  0  0
  128.5929  128.5199   65.0090 H   0  0  0  0  0  0  0  0  0  0  0  0
  126.9790  129.3085   65.0090 H   0  0  0  0  0  0  0  0  0  0  0  0
  132.0345  125.1765   67.1805 H   0  0  0  0  0  0  0  0  0  0  0  0
  128.3956  126.4568   65.2163 H   0  0  0  0  0  0  0  0  0  0  0  0
  1  2  1  0
  2  3  1  0
  3  4  1  0
  4  5  1  0
  5  6  1  0
  6  7  1  0
  4  8  1  0
  8  9  2  0
  8 10  1  0
 10 11  1  0
 11 12  2  0
 12 13  1  0
 13 14  2  0
 13 15  1  0
 12 16  1  0
 16 17  2  0
 17 18  1  0
 18 19  1  0
 19 20  2  0
 20 21  1  0
 21 10  2  0
 20 16  1  0
  1 22  1  0
  1 23  1  0
  1 24  1  0
  2 25  1  0
  2 26  1  0
  3 27  1  0
  3 28  1  0
  5 29  1  0
  5 30  1  0
  6 31  1  0
  6 32  1  0
  7 33  1  0
  7 34  1  0
  7 35  1  0
 11 36  1  0
 21 37  1  0
M  CHG  2  13   1  15  -1
M  END
>  <Binding energies>  (1) 
[-6.31]

>  <Ligand effiencies>  (1) 
[-0.30047619047619045]

>  <Interactions>  (1) 
["V-A:GLY:454:CA:4049, V-B:GLU:543:C:9874, V-B:GLU:543:CB:9878, H-A:ARG:545:NH1:4927, V-B:GLU:543:CG:9879, V-A:GLU:543:CD:4908, V-A:TYR:484:CZ:4347, V-B:HIS:456:CE1:9041, V-B:GLU:543:CA:9876, H-A:GLY:454:N:4050, V-A:HIS:456:CE1:4070, V-A:GLU:543:CG:4907, V-B:GLU:543:CD:9880, V-A:ARG:545:CD:4923, H-A:ARG:545:NH2:4928, V-A:ARG:545:CZ:4926, V-A:GLU:543:CB:4906, H-A:ARG:545:NE:4924, H-A:TYR:484:OH:4348"]

$$$$
ZINC96014399
     RDKit          3D

 62 61  0  0  0  0  0  0  0  0999 V2000
  134.3000  126.5910   74.5190 C   0  0  0  0  0  0  0  0  0  0  0  0
  132.9980  127.0100   74.9050 O   0  0  0  0  0  0  0  0  0  0  0  0
  131.9300  126.2010   74.7250 C   0  0  0  0  0  0  0  0  0  0  0  0
  131.9660  124.9680   74.7950 O   0  0  0  0  0  0  0  0  0  0  0  0
  130.7180  126.9640   74.4360 C   0  0  0  0  0  0  0  0  0  0  0  0
  130.5720  127.7080   73.3170 C   0  0  0  0  0  0  0  0  0  0  0  0
  129.3910  128.5010   72.9520 C   0  0  0  0  0  0  0  0  0  0  0  0
  128.8210  129.5700   73.8820 C   0  0  0  0  0  0  0  0  0  0  0  0
  128.7490  128.3220   71.7710 C   0  0  0  0  0  0  0  0  0  0  0  0
  129.0740  127.3800   70.7070 C   0  0  0  0  0  0  0  0  0  0  0  0
  128.7820  127.6260   69.4120 C   0  0  0  0  0  0  0  0  0  0  0  0
  129.0520  126.7700   68.2530 C   0  0  0  0  0  0  0  0  0  0  0  0
  128.7370  127.3410   66.8740 C   0  0  0  0  0  0  0  0  0  0  0  0
  129.5620  125.5190   68.3840 C   0  0  0  0  0  0  0  0  0  0  0  0
  129.8580  124.6080   67.2880 C   0  0  0  0  0  0  0  0  0  0  0  0
  130.5830  124.9670   66.2140 C   0  0  0  0  0  0  0  0  0  0  0  0
  130.8800  124.0570   65.1180 C   0  0  0  0  0  0  0  0  0  0  0  0
  132.0760  123.9460   64.4870 C   0  0  0  0  0  0  0  0  0  0  0  0
  133.2580  124.8140   64.9050 C   0  0  0  0  0  0  0  0  0  0  0  0
  132.2910  123.0000   63.3880 C   0  0  0  0  0  0  0  0  0  0  0  0
  133.4230  122.7990   62.6810 C   0  0  0  0  0  0  0  0  0  0  0  0
  133.5040  121.8190   61.6040 C   0  0  0  0  0  0  0  0  0  0  0  0
  132.5220  121.4290   60.7560 C   0  0  0  0  0  0  0  0  0  0  0  0
  132.8970  120.3740   59.7160 C   0  0  0  0  0  0  0  0  0  0  0  0
  131.1670  121.9910   60.8320 C   0  0  0  0  0  0  0  0  0  0  0  0
  130.0190  121.2900   60.9690 C   0  0  0  0  0  0  0  0  0  0  0  0
  128.7070  121.9280   61.0370 C   0  0  0  0  0  0  0  0  0  0  0  0
  128.0590  122.2740   60.0440 O   0  0  0  0  0  0  0  0  0  0  0  0
  128.2960  122.0910   62.3150 O   0  0  0  0  0  0  0  0  0  0  0  0
  128.3700  123.3610   62.9460 C   0  0  0  0  0  0  0  0  0  0  0  0
  134.9041  126.3966   75.4175 H   0  0  0  0  0  0  0  0  0  0  0  0
  134.2267  125.6711   73.9204 H   0  0  0  0  0  0  0  0  0  0  0  0
  134.7770  127.3810   73.9204 H   0  0  0  0  0  0  0  0  0  0  0  0
  129.8898  126.9316   75.1592 H   0  0  0  0  0  0  0  0  0  0  0  0
  131.4175  127.7207   72.6134 H   0  0  0  0  0  0  0  0  0  0  0  0
  128.9813  129.2694   74.9279 H   0  0  0  0  0  0  0  0  0  0  0  0
  129.3281  130.5278   73.6940 H   0  0  0  0  0  0  0  0  0  0  0  0
  127.7431  129.6827   73.6940 H   0  0  0  0  0  0  0  0  0  0  0  0
  127.8756  128.9669   71.5941 H   0  0  0  0  0  0  0  0  0  0  0  0
  129.5745  126.4360   70.9683 H   0  0  0  0  0  0  0  0  0  0  0  0
  128.2819  128.5828   69.2015 H   0  0  0  0  0  0  0  0  0  0  0  0
  128.2084  128.2992   66.9859 H   0  0  0  0  0  0  0  0  0  0  0  0
  129.6741  127.5016   66.3208 H   0  0  0  0  0  0  0  0  0  0  0  0
  128.1013  126.6340   66.3208 H   0  0  0  0  0  0  0  0  0  0  0  0
  129.7690  125.1637   69.4042 H   0  0  0  0  0  0  0  0  0  0  0  0
  129.4712  123.5796   67.3407 H   0  0  0  0  0  0  0  0  0  0  0  0
  130.9693  125.9956   66.1615 H   0  0  0  0  0  0  0  0  0  0  0  0
  130.0657  123.4036   64.7717 H   0  0  0  0  0  0  0  0  0  0  0  0
  133.3131  124.8544   66.0029 H   0  0  0  0  0  0  0  0  0  0  0  0
  134.1884  124.3829   64.5068 H   0  0  0  0  0  0  0  0  0  0  0  0
  133.1252  125.8308   64.5068 H   0  0  0  0  0  0  0  0  0  0  0  0
  131.4270  122.3803   63.1060 H   0  0  0  0  0  0  0  0  0  0  0  0
  134.3149  123.3947   62.9255 H   0  0  0  0  0  0  0  0  0  0  0  0
  134.4828  121.3372   61.4628 H   0  0  0  0  0  0  0  0  0  0  0  0
  133.2234  119.4558   60.2263 H   0  0  0  0  0  0  0  0  0  0  0  0
  132.0225  120.1526   59.0865 H   0  0  0  0  0  0  0  0  0  0  0  0
  133.7151  120.7542   59.0865 H   0  0  0  0  0  0  0  0  0  0  0  0
  131.0778  123.0857   60.7718 H   0  0  0  0  0  0  0  0  0  0  0  0
  130.0756  120.1933   61.0319 H   0  0  0  0  0  0  0  0  0  0  0  0
  128.3623  123.2289   64.0380 H   0  0  0  0  0  0  0  0  0  0  0  0
  129.2991  123.8667   62.6444 H   0  0  0  0  0  0  0  0  0  0  0  0
  127.5059  123.9712   62.6444 H   0  0  0  0  0  0  0  0  0  0  0  0
  1  2  1  0
  2  3  1  0
  3  4  2  0
  3  5  1  0
  5  6  2  0
  6  7  1  0
  7  8  1  0
  7  9  2  0
  9 10  1  0
 10 11  2  0
 11 12  1  0
 12 13  1  0
 12 14  2  0
 14 15  1  0
 15 16  2  0
 16 17  1  0
 17 18  2  0
 18 19  1  0
 18 20  1  0
 20 21  2  0
 21 22  1  0
 22 23  2  0
 23 24  1  0
 23 25  1  0
 25 26  2  0
 26 27  1  0
 27 28  2  0
 27 29  1  0
 29 30  1  0
  1 31  1  0
  1 32  1  0
  1 33  1  0
  5 34  1  0
  6 35  1  0
  8 36  1  0
  8 37  1  0
  8 38  1  0
  9 39  1  0
 10 40  1  0
 11 41  1  0
 13 42  1  0
 13 43  1  0
 13 44  1  0
 14 45  1  0
 15 46  1  0
 16 47  1  0
 17 48  1  0
 19 49  1  0
 19 50  1  0
 19 51  1  0
 20 52  1  0
 21 53  1  0
 22 54  1  0
 24 55  1  0
 24 56  1  0
 24 57  1  0
 25 58  1  0
 26 59  1  0
 30 60  1  0
 30 61  1  0
 30 62  1  0
M  END
>  <Binding energies>  (1) 
[-7.84]

>  <Ligand effiencies>  (1) 
[-0.2613333333333333]

>  <Interactions>  (1) 
["V-A:ILE:369:CG2:3237, V-B:PRO:540:CA:9855, V-A:GLY:454:CA:4049, V-B:GLU:543:C:9874, V-B:HIS:456:CD2:9039, V-B:GLU:543:CB:9878, V-B:ALA:541:CB:9864, V-B:TYR:539:CE2:9848, V-A:TYR:484:CE2:4346, V-B:GLU:543:CG:9879, V-A:HIS:456:CD2:4068, V-A:LYS:547:CG:4948, V-A:HIS:456:CB:4065, H-B:ALA:541:N:9863, V-A:TYR:484:CZ:4347, V-A:GLU:543:CD:4908, V-B:HIS:456:CE1:9041, V-B:GLU:543:CA:9876, V-A:HIS:456:CE1:4070, V-A:HIS:456:CA:4063, V-B:TYR:539:CD2:9846, V-B:GLU:543:CD:9880, H-A:LYS:547:NZ:4951, V-A:HIS:456:C:4061, V-A:ARG:545:CZ:4926, V-A:LEU:475:CD2:4259, V-A:ARG:545:C:4917, V-A:HIS:456:CG:4066, V-B:PRO:540:C:9853"]

$$$$
ZINC96019758
     RDKit          3D

 53 54  0  0  0  0  0  0  0  0999 V2000
  131.7200  120.1200   60.8570 C   0  0  0  0  0  0  0  0  0  0  0  0
  132.3550  121.4940   60.8720 C   0  0  0  0  0  0  0  0  0  0  0  0
  133.6500  121.7360   61.1350 C   0  0  0  0  0  0  0  0  0  0  0  0
  134.2850  123.1120   61.1450 C   0  0  0  0  0  0  0  0  0  0  0  0
  133.2900  124.1820   61.1910 N   0  0  0  0  0  0  0  0  0  0  0  0
  132.7520  124.7940   62.3120 C   0  0  0  0  0  0  0  0  0  0  0  0
  133.1440  124.3760   63.9770 S   0  0  0  0  0  0  0  0  0  0  0  0
  131.4350  124.3540   64.5950 C   0  0  0  0  0  0  0  0  0  0  0  0
  130.6960  123.0290   64.3530 C   0  0  0  0  0  0  0  0  0  0  0  0
  129.3860  123.1720   63.5520 C   0  0  0  0  0  0  0  0  0  0  0  0
  129.3160  122.2990   62.2830 C   0  0  0  0  0  0  0  0  0  0  0  0
  129.3800  123.1260   60.9860 C   0  0  0  0  0  0  0  0  0  0  0  0
  128.2140  122.8330   60.0260 C   0  0  0  0  0  0  0  0  0  0  0  0
  128.4080  123.4640   58.6370 C   0  0  0  0  0  0  0  0  0  0  0  0
  127.5900  122.7660   57.5420 C   0  0  0  0  0  0  0  0  0  0  0  0
  131.9080  125.7560   62.0070 N   0  0  0  0  0  0  0  0  0  0  0  0
  131.8710  125.7780   60.6860 C   0  0  0  0  0  0  0  0  0  0  0  0
  132.7070  124.8280   60.1220 C   0  0  0  0  0  0  0  0  0  0  0  0
  132.8640  124.6480   58.6910 C   0  0  0  0  0  0  0  0  0  0  0  0
  133.5760  123.8520   58.0850 O   0  0  0  0  0  0  0  0  0  0  0  0
  132.0620  125.5400   58.0360 N   0  0  0  0  0  0  0  0  0  0  0  0
  131.2010  126.5100   58.4810 C   0  0  0  0  0  0  0  0  0  0  0  0
  130.5780  127.2000   57.6740 O   0  0  0  0  0  0  0  0  0  0  0  0
  131.1250  126.6120   59.8510 N   0  0  0  0  0  0  0  0  0  0  0  0
  130.2400  127.6170   60.4530 C   0  0  0  0  0  0  0  0  0  0  0  0
  131.5619  119.7779   61.8904 H   0  0  0  0  0  0  0  0  0  0  0  0
  130.7531  120.1686   60.3348 H   0  0  0  0  0  0  0  0  0  0  0  0
  132.3836  119.4150   60.3348 H   0  0  0  0  0  0  0  0  0  0  0  0
  131.7093  122.3568   60.6516 H   0  0  0  0  0  0  0  0  0  0  0  0
  134.2955  120.8739   61.3591 H   0  0  0  0  0  0  0  0  0  0  0  0
  134.9350  123.1952   62.0285 H   0  0  0  0  0  0  0  0  0  0  0  0
  134.8578  123.2250   60.2127 H   0  0  0  0  0  0  0  0  0  0  0  0
  131.4572  124.5440   65.6782 H   0  0  0  0  0  0  0  0  0  0  0  0
  130.8870  125.1284   64.0382 H   0  0  0  0  0  0  0  0  0  0  0  0
  131.3671  122.3561   63.7991 H   0  0  0  0  0  0  0  0  0  0  0  0
  130.4197  122.6363   65.3427 H   0  0  0  0  0  0  0  0  0  0  0  0
  128.5491  122.8920   64.2086 H   0  0  0  0  0  0  0  0  0  0  0  0
  129.3365  124.2183   63.2160 H   0  0  0  0  0  0  0  0  0  0  0  0
  130.1615  121.5954   62.2933 H   0  0  0  0  0  0  0  0  0  0  0  0
  128.3490  121.7749   62.2944 H   0  0  0  0  0  0  0  0  0  0  0  0
  129.3565  124.1936   61.2499 H   0  0  0  0  0  0  0  0  0  0  0  0
  130.3098  122.8508   60.4667 H   0  0  0  0  0  0  0  0  0  0  0  0
  128.1232  121.7433   59.9067 H   0  0  0  0  0  0  0  0  0  0  0  0
  127.3069  123.2743   60.4647 H   0  0  0  0  0  0  0  0  0  0  0  0
  128.1008  124.5191   58.6853 H   0  0  0  0  0  0  0  0  0  0  0  0
  129.4704  123.3575   58.3726 H   0  0  0  0  0  0  0  0  0  0  0  0
  126.8317  122.1189   58.0070 H   0  0  0  0  0  0  0  0  0  0  0  0
  127.0930  123.5226   56.9171 H   0  0  0  0  0  0  0  0  0  0  0  0
  128.2590  122.1562   56.9171 H   0  0  0  0  0  0  0  0  0  0  0  0
  132.1130  125.4740   57.0300 H   0  0  0  0  0  0  0  0  0  0  0  0
  130.3000  127.5489   61.5492 H   0  0  0  0  0  0  0  0  0  0  0  0
  130.5525  128.6211   60.1304 H   0  0  0  0  0  0  0  0  0  0  0  0
  129.2044  127.4340   60.1304 H   0  0  0  0  0  0  0  0  0  0  0  0
  1  2  1  0
  2  3  2  0
  3  4  1  0
  4  5  1  0
  5  6  1  0
  6  7  1  0
  7  8  1  0
  8  9  1  0
  9 10  1  0
 10 11  1  0
 11 12  1  0
 12 13  1  0
 13 14  1  0
 14 15  1  0
  6 16  2  0
 16 17  1  0
 17 18  2  0
 18 19  1  0
 19 20  2  0
 19 21  1  0
 21 22  1  0
 22 23  2  0
 22 24  1  0
 24 25  1  0
 18  5  1  0
 24 17  1  0
  1 26  1  0
  1 27  1  0
  1 28  1  0
  2 29  1  0
  3 30  1  0
  4 31  1  0
  4 32  1  0
  8 33  1  0
  8 34  1  0
  9 35  1  0
  9 36  1  0
 10 37  1  0
 10 38  1  0
 11 39  1  0
 11 40  1  0
 12 41  1  0
 12 42  1  0
 13 43  1  0
 13 44  1  0
 14 45  1  0
 14 46  1  0
 15 47  1  0
 15 48  1  0
 15 49  1  0
 21 50  1  0
 25 51  1  0
 25 52  1  0
 25 53  1  0
M  END
>  <Binding energies>  (1) 
[-5.5]

>  <Ligand effiencies>  (1) 
[-0.21153846153846154]

>  <Interactions>  (1) 
["V-A:ILE:369:CG2:3237, V-A:ASP:366:CA:3210, V-B:PRO:540:CA:9855, V-A:ILE:369:CB:3236, V-B:ALA:541:CB:9864, H-A:TYR:531:OH:4795, V-A:TYR:484:CE2:4346, V-B:TYR:539:CE2:9848, V-B:GLU:543:CG:9879, V-B:TYR:539:C:9839, V-A:ASP:366:CG:3213, V-B:TYR:539:CZ:9849, H-B:TYR:539:OH:9850, H-A:GLY:454:N:4050, V-B:PRO:540:N:9856, V-A:ILE:369:CD1:3239, V-B:TYR:539:CD2:9846, V-A:ASP:366:CB:3212, V-A:LEU:475:CD2:4259, H-A:ARG:545:NH2:4928, V-B:TYR:539:CG:9844, V-B:TYR:539:CD1:9845, V-B:TYR:539:CE1:9847, H-A:TYR:484:OH:4348"]

$$$$
ZINC96027903-again1
     RDKit          3D

 36 37  0  0  0  0  0  0  0  0999 V2000
  134.3290  124.3470   62.4260 C   0  0  0  0  0  0  0  0  0  0  0  0
  133.1400  124.7390   63.3090 C   0  0  0  0  0  0  0  0  0  0  0  0
  133.5030  124.5600   64.6700 O   0  0  0  0  0  0  0  0  0  0  0  0
  132.8600  125.4660   65.5570 C   0  0  0  0  0  0  0  0  0  0  0  0
  131.4030  125.0170   65.7710 C   0  0  0  0  0  0  0  0  0  0  0  0
  130.4500  125.9840   65.2320 N   0  0  0  0  0  0  0  0  0  0  0  0
  129.4760  126.5910   66.0790 C   0  0  0  0  0  0  0  0  0  0  0  0
  129.2800  126.3520   67.3140 N   0  0  0  0  0  0  0  0  0  0  0  0
  128.3550  127.3410   67.7830 C   0  0  0  0  0  0  0  0  0  0  0  0
  128.2190  128.3700   66.6720 C   0  0  0  0  0  0  0  0  0  0  0  0
  128.6630  127.6050   65.5070 N   0  0  0  0  0  0  0  0  0  0  0  0
  128.3460  127.9070   64.2240 C   0  0  0  0  0  0  0  0  0  0  0  0
  129.1680  127.9850   63.1650 N   0  0  0  0  0  0  0  0  0  0  0  0
  128.4900  128.4250   61.9530 C   0  0  0  0  0  0  0  0  0  0  0  0
  127.0460  128.1340   62.3090 C   0  0  0  0  0  0  0  0  0  0  0  0
  127.1180  128.1700   63.7620 N   0  0  0  0  0  0  0  0  0  0  0  0
  135.1813  124.0660   63.0622 H   0  0  0  0  0  0  0  0  0  0  0  0
  134.0485  123.4938   61.7909 H   0  0  0  0  0  0  0  0  0  0  0  0
  134.6109  125.1997   61.7909 H   0  0  0  0  0  0  0  0  0  0  0  0
  132.8790  125.7927   63.1314 H   0  0  0  0  0  0  0  0  0  0  0  0
  132.2711  124.1091   63.0677 H   0  0  0  0  0  0  0  0  0  0  0  0
  133.3882  125.4734   66.5219 H   0  0  0  0  0  0  0  0  0  0  0  0
  132.8753  126.4781   65.1265 H   0  0  0  0  0  0  0  0  0  0  0  0
  131.2514  124.0503   65.2685 H   0  0  0  0  0  0  0  0  0  0  0  0
  131.2278  124.9330   66.8537 H   0  0  0  0  0  0  0  0  0  0  0  0
  130.8700  126.5840   64.5360 H   0  0  0  0  0  0  0  0  0  0  0  0
  127.3794  126.8786   67.9936 H   0  0  0  0  0  0  0  0  0  0  0  0
  128.7105  127.8069   68.7139 H   0  0  0  0  0  0  0  0  0  0  0  0
  127.1770  128.7040   66.5596 H   0  0  0  0  0  0  0  0  0  0  0  0
  128.7904  129.2938   66.8451 H   0  0  0  0  0  0  0  0  0  0  0  0
  130.1670  128.0880   63.2600 H   0  0  0  0  0  0  0  0  0  0  0  0
  128.6520  129.4968   61.7657 H   0  0  0  0  0  0  0  0  0  0  0  0
  128.8389  127.9324   61.0334 H   0  0  0  0  0  0  0  0  0  0  0  0
  126.3677  128.9061   61.9169 H   0  0  0  0  0  0  0  0  0  0  0  0
  126.6518  127.1951   61.8930 H   0  0  0  0  0  0  0  0  0  0  0  0
  126.2940  128.2250   64.3440 H   0  0  0  0  0  0  0  0  0  0  0  0
  1  2  1  0
  2  3  1  0
  3  4  1  0
  4  5  1  0
  5  6  1  0
  6  7  1  0
  7  8  2  0
  8  9  1  0
  9 10  1  0
 10 11  1  0
 11 12  1  0
 12 13  2  0
 13 14  1  0
 14 15  1  0
 15 16  1  0
 11  7  1  0
 16 12  1  0
  1 17  1  0
  1 18  1  0
  1 19  1  0
  2 20  1  0
  2 21  1  0
  4 22  1  0
  4 23  1  0
  5 24  1  0
  5 25  1  0
  6 26  1  0
  9 27  1  0
  9 28  1  0
 10 29  1  0
 10 30  1  0
 13 31  1  0
 14 32  1  0
 14 33  1  0
 15 34  1  0
 15 35  1  0
 16 36  1  0
M  CHG  1  13   1
M  END
>  <Binding energies>  (1) 
[-5.19]

>  <Ligand effiencies>  (1) 
[-0.2731578947368421]

>  <Interactions>  (1) 
["H-A:GLU:543:OE2:4910, V-B:GLU:543:CB:9878, V-B:GLU:543:CG:9879, H-B:GLU:543:OE1:9881, V-A:TYR:484:CZ:4347, V-A:GLU:543:CD:4908, V-B:HIS:456:CE1:9041, H-A:GLY:454:N:4050, V-A:GLY:453:C:4042, V-A:ILE:369:CD1:3239, V-A:GLU:543:CG:4907, V-B:GLU:543:CD:9880, V-A:ARG:545:CD:4923, H-A:ARG:545:NH2:4928, V-A:ARG:545:CZ:4926, H-A:GLU:543:OE1:4909, V-A:GLU:543:CB:4906, H-B:GLU:543:OE2:9882, V-A:GLY:453:CA:4044, H-A:ARG:545:NE:4924, H-A:TYR:484:OH:4348"]

$$$$
ZINC96048197
     RDKit          3D

 46 48  0  0  0  0  0  0  0  0999 V2000
  133.7190  121.7550   61.5170 C   0  0  0  0  0  0  0  0  0  0  0  0
  134.3620  122.5740   62.3670 C   0  0  0  0  0  0  0  0  0  0  0  0
  134.3070  124.0920   62.3650 C   0  0  0  0  0  0  0  0  0  0  0  0
  133.8480  124.6080   63.6110 O   0  0  0  0  0  0  0  0  0  0  0  0
  132.5050  125.0850   63.6040 C   0  0  2  0  0  0  0  0  0  0  0  0
  131.8600  124.9640   64.9810 C   0  0  0  0  0  0  0  0  0  0  0  0
  130.4810  124.7830   64.6880 O   0  0  0  0  0  0  0  0  0  0  0  0
  130.3380  124.0000   63.5000 C   0  0  1  0  0  0  0  0  0  0  0  0
  130.0580  122.5480   63.9470 C   0  0  0  0  0  0  0  0  0  0  0  0
  129.5670  121.7180   62.7470 C   0  0  0  0  0  0  0  0  0  0  0  0
  128.4130  122.4020   61.9820 C   0  0  0  0  0  0  0  0  0  0  0  0
  128.7380  123.7840   61.5950 N   0  0  0  0  0  0  0  0  0  0  0  0
  127.6280  124.3810   60.8440 C   0  0  0  0  0  0  0  0  0  0  0  0
  127.3700  123.6570   59.5390 C   0  0  0  0  0  0  0  0  0  0  0  0
  128.2540  122.8670   58.7850 C   0  0  0  0  0  0  0  0  0  0  0  0
  127.7230  122.3780   57.6860 N   0  0  0  0  0  0  0  0  0  0  0  0
  126.4650  122.8280   57.7010 N   0  0  0  0  0  0  0  0  0  0  0  0
  125.5740  122.4910   56.6050 C   0  0  0  0  0  0  0  0  0  0  0  0
  126.2010  123.6090   58.7940 C   0  0  0  0  0  0  0  0  0  0  0  0
  129.1030  124.5910   62.7740 C   0  0  0  0  0  0  0  0  0  0  0  0
  131.6620  124.1810   62.7210 C   0  0  0  0  0  0  0  0  0  0  0  0
  133.8323  120.6650   61.6118 H   0  0  0  0  0  0  0  0  0  0  0  0
  133.0795  122.1748   60.7266 H   0  0  0  0  0  0  0  0  0  0  0  0
  134.9877  122.0998   63.1375 H   0  0  0  0  0  0  0  0  0  0  0  0
  135.3155  124.4843   62.1673 H   0  0  0  0  0  0  0  0  0  0  0  0
  133.5993  124.4067   61.5839 H   0  0  0  0  0  0  0  0  0  0  0  0
  132.5418  126.1310   63.2657 H   0  0  0  0  0  0  0  0  0  0  0  0
  132.2622  124.0990   65.5287 H   0  0  0  0  0  0  0  0  0  0  0  0
  132.0504  125.8381   65.6210 H   0  0  0  0  0  0  0  0  0  0  0  0
  130.9824  122.1037   64.3445 H   0  0  0  0  0  0  0  0  0  0  0  0
  129.2828  122.5515   64.7275 H   0  0  0  0  0  0  0  0  0  0  0  0
  130.4085  121.5685   62.0545 H   0  0  0  0  0  0  0  0  0  0  0  0
  129.1868  120.7624   63.1371 H   0  0  0  0  0  0  0  0  0  0  0  0
  128.1991  121.8215   61.0725 H   0  0  0  0  0  0  0  0  0  0  0  0
  127.5412  122.4375   62.6518 H   0  0  0  0  0  0  0  0  0  0  0  0
  126.7180  124.3366   61.4604 H   0  0  0  0  0  0  0  0  0  0  0  0
  127.8988  125.4206   60.6074 H   0  0  0  0  0  0  0  0  0  0  0  0
  129.2944  122.6753   59.0863 H   0  0  0  0  0  0  0  0  0  0  0  0
  124.6169  122.1290   57.0086 H   0  0  0  0  0  0  0  0  0  0  0  0
  125.3973  123.3844   55.9881 H   0  0  0  0  0  0  0  0  0  0  0  0
  126.0328  121.7043   55.9881 H   0  0  0  0  0  0  0  0  0  0  0  0
  125.2477  124.1023   59.0345 H   0  0  0  0  0  0  0  0  0  0  0  0
  129.3349  125.6160   62.4489 H   0  0  0  0  0  0  0  0  0  0  0  0
  128.2542  124.5875   63.4736 H   0  0  0  0  0  0  0  0  0  0  0  0
  132.1596  123.2116   62.5702 H   0  0  0  0  0  0  0  0  0  0  0  0
  131.5021  124.6070   61.7195 H   0  0  0  0  0  0  0  0  0  0  0  0
  1  2  2  0
  2  3  1  0
  3  4  1  0
  4  5  1  0
  5  6  1  0
  6  7  1  0
  8  7  1  1
  8  9  1  0
  9 10  1  0
 10 11  1  0
 11 12  1  0
 12 13  1  0
 13 14  1  0
 14 15  1  0
 15 16  2  0
 16 17  1  0
 17 18  1  0
 17 19  1  0
 12 20  1  0
  8 21  1  0
 21  5  1  0
 20  8  1  0
 19 14  2  0
  1 22  1  0
  1 23  1  0
  2 24  1  0
  3 25  1  0
  3 26  1  0
  5 27  1  6
  6 28  1  0
  6 29  1  0
  9 30  1  0
  9 31  1  0
 10 32  1  0
 10 33  1  0
 11 34  1  0
 11 35  1  0
 13 36  1  0
 13 37  1  0
 15 38  1  0
 18 39  1  0
 18 40  1  0
 18 41  1  0
 19 42  1  0
 20 43  1  0
 20 44  1  0
 21 45  1  0
 21 46  1  0
M  END
>  <Binding energies>  (1) 
[-5.88]

>  <Ligand effiencies>  (1) 
[-0.27999999999999997]

>  <Interactions>  (1) 
["V-A:ILE:369:CG2:3237, V-B:PRO:540:CA:9855, V-A:GLY:454:CA:4049, V-B:ALA:541:CB:9864, V-B:TYR:539:CE2:9848, V-B:GLU:543:CG:9879, V-B:TYR:539:C:9839, V-B:TYR:539:CZ:9849, V-B:ILE:538:CG2:9835, V-B:PRO:540:CB:9857, H-A:GLY:454:N:4050, V-A:GLY:453:C:4042, V-B:PRO:540:N:9856, V-A:ILE:369:CD1:3239, V-B:TYR:539:CD2:9846, V-B:PRO:540:CD:9859, V-B:GLU:543:CD:9880, V-A:LEU:475:CD2:4259, H-A:ARG:545:NH2:4928, V-A:ARG:545:CZ:4926, V-B:LEU:363:CD1:8160, V-A:GLY:453:CA:4044, V-B:PRO:540:C:9853, V-B:MET:535:CE:9807"]

$$$$
ZINC96048197-again1
     RDKit          3D

 47 49  0  0  0  0  0  0  0  0999 V2000
  133.6850  122.0510   61.2490 C   0  0  0  0  0  0  0  0  0  0  0  0
  134.3460  122.9730   61.9700 C   0  0  0  0  0  0  0  0  0  0  0  0
  133.8210  124.3430   62.3810 C   0  0  0  0  0  0  0  0  0  0  0  0
  133.9960  124.6310   63.7680 O   0  0  0  0  0  0  0  0  0  0  0  0
  132.8900  124.3140   64.6130 C   0  0  2  0  0  0  0  0  0  0  0  0
  131.9550  123.3170   63.9340 C   0  0  0  0  0  0  0  0  0  0  0  0
  130.6680  123.6790   64.4190 O   0  0  0  0  0  0  0  0  0  0  0  0
  130.5910  125.0970   64.5650 C   0  0  1  0  0  0  0  0  0  0  0  0
  129.9560  125.6630   63.2700 C   0  0  0  0  0  0  0  0  0  0  0  0
  129.5260  127.1340   63.4380 C   0  0  0  0  0  0  0  0  0  0  0  0
  128.6270  127.3560   64.6690 C   0  0  0  0  0  0  0  0  0  0  0  0
  129.3500  126.8320   65.9320 N   0  0  1  0  0  0  0  0  0  0  0  0
  128.5070  127.1270   67.1950 C   0  0  0  0  0  0  0  0  0  0  0  0
  129.4290  127.4230   68.3600 C   0  0  0  0  0  0  0  0  0  0  0  0
  130.8340  127.3920   68.3990 C   0  0  0  0  0  0  0  0  0  0  0  0
  131.3390  127.7150   69.5670 N   0  0  0  0  0  0  0  0  0  0  0  0
  130.2720  127.9420   70.3380 N   0  0  0  0  0  0  0  0  0  0  0  0
  130.4590  128.3580   71.7160 C   0  0  0  0  0  0  0  0  0  0  0  0
  129.0950  127.7830   69.6570 C   0  0  0  0  0  0  0  0  0  0  0  0
  129.6760  125.3220   65.7950 C   0  0  0  0  0  0  0  0  0  0  0  0
  132.0460  125.5640   64.8020 C   0  0  0  0  0  0  0  0  0  0  0  0
  134.1659  121.0909   61.0105 H   0  0  0  0  0  0  0  0  0  0  0  0
  132.6632  122.2566   60.8975 H   0  0  0  0  0  0  0  0  0  0  0  0
  135.3644  122.7133   62.2947 H   0  0  0  0  0  0  0  0  0  0  0  0
  134.3533  125.1085   61.7973 H   0  0  0  0  0  0  0  0  0  0  0  0
  132.7384  124.3447   62.1860 H   0  0  0  0  0  0  0  0  0  0  0  0
  133.2950  123.9111   65.5530 H   0  0  0  0  0  0  0  0  0  0  0  0
  132.0040  123.4157   62.8395 H   0  0  0  0  0  0  0  0  0  0  0  0
  132.2149  122.2709   64.1532 H   0  0  0  0  0  0  0  0  0  0  0  0
  130.6919  125.5981   62.4550 H   0  0  0  0  0  0  0  0  0  0  0  0
  129.0590  125.0688   63.0414 H   0  0  0  0  0  0  0  0  0  0  0  0
  130.4283  127.7539   63.5453 H   0  0  0  0  0  0  0  0  0  0  0  0
  128.9432  127.4126   62.5476 H   0  0  0  0  0  0  0  0  0  0  0  0
  128.4196  128.4302   64.7835 H   0  0  0  0  0  0  0  0  0  0  0  0
  127.6794  126.8136   64.5355 H   0  0  0  0  0  0  0  0  0  0  0  0
  130.2230  127.3350   66.0130 H   0  0  0  0  0  0  0  0  0  0  0  0
  127.8602  127.9971   67.0091 H   0  0  0  0  0  0  0  0  0  0  0  0
  127.8848  126.2517   67.4331 H   0  0  0  0  0  0  0  0  0  0  0  0
  131.4532  127.1220   67.5308 H   0  0  0  0  0  0  0  0  0  0  0  0
  130.1026  127.5651   72.3900 H   0  0  0  0  0  0  0  0  0  0  0  0
  131.5273  128.5438   71.9012 H   0  0  0  0  0  0  0  0  0  0  0  0
  129.8889  129.2803   71.9012 H   0  0  0  0  0  0  0  0  0  0  0  0
  128.0803  127.9153   70.0606 H   0  0  0  0  0  0  0  0  0  0  0  0
  130.1912  124.9749   66.7028 H   0  0  0  0  0  0  0  0  0  0  0  0
  128.7414  124.7571   65.6631 H   0  0  0  0  0  0  0  0  0  0  0  0
  132.3288  126.3367   64.0720 H   0  0  0  0  0  0  0  0  0  0  0  0
  132.1820  126.0105   65.7981 H   0  0  0  0  0  0  0  0  0  0  0  0
  1  2  2  0
  2  3  1  0
  3  4  1  0
  4  5  1  0
  5  6  1  0
  6  7  1  0
  8  7  1  6
  8  9  1  0
  9 10  1  0
 10 11  1  0
 11 12  1  0
 12 13  1  0
 13 14  1  0
 14 15  1  0
 15 16  2  0
 16 17  1  0
 17 18  1  0
 17 19  1  0
 12 20  1  0
  8 21  1  0
 21  5  1  0
 20  8  1  0
 19 14  2  0
  1 22  1  0
  1 23  1  0
  2 24  1  0
  3 25  1  0
  3 26  1  0
  5 27  1  1
  6 28  1  0
  6 29  1  0
  9 30  1  0
  9 31  1  0
 10 32  1  0
 10 33  1  0
 11 34  1  0
 11 35  1  0
 12 36  1  1
 13 37  1  0
 13 38  1  0
 15 39  1  0
 18 40  1  0
 18 41  1  0
 18 42  1  0
 19 43  1  0
 20 44  1  0
 20 45  1  0
 21 46  1  0
 21 47  1  0
M  CHG  1  12   1
M  END
>  <Binding energies>  (1) 
[-6.68]

>  <Ligand effiencies>  (1) 
[-0.30363636363636365]

>  <Interactions>  (1) 
["V-A:ILE:369:CG2:3237, V-A:GLY:454:CA:4049, H-A:GLU:543:OE2:4910, V-A:GLU:543:C:4902, V-B:GLU:543:CB:9878, H-A:ARG:545:NH1:4927, V-B:GLU:543:CG:9879, V-A:GLY:544:C:4912, H-A:ARG:545:N:4920, V-A:GLU:543:CD:4908, V-B:HIS:456:CE1:9041, H-A:GLY:454:N:4050, V-A:ILE:369:CD1:3239, V-A:HIS:456:CE1:4070, V-B:GLU:543:CD:9880, V-A:LEU:475:CD2:4259, H-A:ARG:545:NH2:4928, V-A:ARG:545:CZ:4926, H-A:GLU:543:OE1:4909, V-A:GLU:543:CB:4906, H-A:HIS:456:ND1:4067, H-A:TYR:484:OH:4348"]

$$$$
ZINC96196928-again2
     RDKit          3D

 44 46  0  0  0  0  0  0  0  0999 V2000
  130.2610  125.7280   66.6450 C   0  0  0  0  0  0  0  0  0  0  0  0
  130.9450  124.5780   65.8810 N   0  0  0  0  0  0  0  0  0  0  0  0
  132.0830  125.1150   64.9850 C   0  0  0  0  0  0  0  0  0  0  0  0
  132.7290  123.9180   64.2490 C   0  0  0  0  0  0  0  0  0  0  0  0
  131.7670  123.1770   63.4200 N   0  0  0  0  0  0  0  0  0  0  0  0
  131.3730  123.8730   62.1890 C   0  0  0  0  0  0  0  0  0  0  0  0
  130.1650  123.2200   61.5300 C   0  0  0  0  0  0  0  0  0  0  0  0
  130.0470  121.9440   60.9920 C   0  0  0  0  0  0  0  0  0  0  0  0
  128.7730  121.8090   60.4920 N   0  0  0  0  0  0  0  0  0  0  0  0
  128.0760  122.9790   60.6880 C   0  0  0  0  0  0  0  0  0  0  0  0
  128.9290  123.8600   61.3520 N   0  0  0  0  0  0  0  0  0  0  0  0
  128.6030  125.2290   61.7850 C   0  0  0  0  0  0  0  0  0  0  0  0
  127.5870  126.0070   60.9220 C   0  0  0  0  0  0  0  0  0  0  0  0
  126.1200  125.5740   61.1050 N   0  0  0  0  0  0  0  0  0  0  0  0
  125.8130  124.0720   61.2120 C   0  0  0  0  0  0  0  0  0  0  0  0
  126.6400  123.2100   60.2410 C   0  0  0  0  0  0  0  0  0  0  0  0
  130.6590  122.6780   64.2510 C   0  0  0  0  0  0  0  0  0  0  0  0
  129.9220  123.8090   65.0140 C   0  0  0  0  0  0  0  0  0  0  0  0
  130.3611  125.5597   67.7274 H   0  0  0  0  0  0  0  0  0  0  0  0
  130.7387  126.6818   66.3765 H   0  0  0  0  0  0  0  0  0  0  0  0
  129.1949  125.7635   66.3765 H   0  0  0  0  0  0  0  0  0  0  0  0
  131.3460  123.9290   66.5450 H   0  0  0  0  0  0  0  0  0  0  0  0
  131.6747  125.8259   64.2516 H   0  0  0  0  0  0  0  0  0  0  0  0
  132.8352  125.6330   65.5981 H   0  0  0  0  0  0  0  0  0  0  0  0
  133.5342  124.2956   63.6016 H   0  0  0  0  0  0  0  0  0  0  0  0
  133.1129  123.2256   65.0127 H   0  0  0  0  0  0  0  0  0  0  0  0
  131.1240  124.9160   62.4342 H   0  0  0  0  0  0  0  0  0  0  0  0
  132.2155  123.8221   61.4836 H   0  0  0  0  0  0  0  0  0  0  0  0
  130.8347  121.1765   60.9700 H   0  0  0  0  0  0  0  0  0  0  0  0
  128.4100  120.9820   60.0370 H   0  0  0  0  0  0  0  0  0  0  0  0
  128.1956  125.1676   62.8049 H   0  0  0  0  0  0  0  0  0  0  0  0
  129.5448  125.7908   61.6987 H   0  0  0  0  0  0  0  0  0  0  0  0
  127.6640  127.0734   61.1804 H   0  0  0  0  0  0  0  0  0  0  0  0
  127.8443  125.7953   59.8737 H   0  0  0  0  0  0  0  0  0  0  0  0
  125.5740  125.9490   60.3420 H   0  0  0  0  0  0  0  0  0  0  0  0
  125.7810  126.0210   61.9470 H   0  0  0  0  0  0  0  0  0  0  0  0
  126.0283  123.7441   62.2397 H   0  0  0  0  0  0  0  0  0  0  0  0
  124.7542  123.9365   60.9465 H   0  0  0  0  0  0  0  0  0  0  0  0
  126.1471  122.2317   60.1413 H   0  0  0  0  0  0  0  0  0  0  0  0
  126.6874  123.7593   59.2892 H   0  0  0  0  0  0  0  0  0  0  0  0
  129.9359  122.1641   63.6006 H   0  0  0  0  0  0  0  0  0  0  0  0
  131.0887  121.9982   65.0016 H   0  0  0  0  0  0  0  0  0  0  0  0
  129.4568  124.4980   64.2936 H   0  0  0  0  0  0  0  0  0  0  0  0
  129.1400  123.3771   65.6558 H   0  0  0  0  0  0  0  0  0  0  0  0
  1  2  1  0
  2  3  1  0
  3  4  1  0
  4  5  1  0
  5  6  1  0
  6  7  1  0
  7  8  2  0
  8  9  1  0
  9 10  2  0
 10 11  1  0
 11 12  1  0
 12 13  1  0
 13 14  1  0
 14 15  1  0
 15 16  1  0
  5 17  1  0
 17 18  1  0
 18  2  1  0
 11  7  1  0
 16 10  1  0
  1 19  1  0
  1 20  1  0
  1 21  1  0
  2 22  1  0
  3 23  1  0
  3 24  1  0
  4 25  1  0
  4 26  1  0
  6 27  1  0
  6 28  1  0
  8 29  1  0
  9 30  1  0
 12 31  1  0
 12 32  1  0
 13 33  1  0
 13 34  1  0
 14 35  1  0
 14 36  1  0
 15 37  1  0
 15 38  1  0
 16 39  1  0
 16 40  1  0
 17 41  1  0
 17 42  1  0
 18 43  1  0
 18 44  1  0
M  CHG  3   2   1   9   1  14   1
M  END
>  <Binding energies>  (1) 
[-5.24]

>  <Ligand effiencies>  (1) 
[-0.21833333333333335]

>  <Interactions>  (1) 
["V-B:PRO:540:CA:9855, V-A:GLY:454:CA:4049, V-B:ASP:366:CG:8184, V-B:TYR:539:CE2:9848, V-A:TYR:484:CE2:4346, V-B:GLU:543:CG:9879, V-B:TYR:539:C:9839, H-B:GLU:543:OE1:9881, V-A:TYR:484:CZ:4347, V-B:PRO:540:CB:9857, H-B:ASP:366:OD1:8185, V-B:PRO:540:N:9856, V-A:HIS:456:CE1:4070, V-B:TYR:539:CD2:9846, V-B:GLU:543:CD:9880, V-A:LEU:475:CD2:4259, V-A:ARG:545:CZ:4926, H-B:GLU:543:OE2:9882, H-B:TYR:539:O:9840, V-B:PRO:540:C:9853, H-A:TYR:484:OH:4348"]

$$$$
ZINC96196928-again3
     RDKit          3D

 43 45  0  0  0  0  0  0  0  0999 V2000
  129.9600  123.3650   64.9250 C   0  0  0  0  0  0  0  0  0  0  0  0
  130.8620  124.5110   64.8250 N   0  0  0  0  0  0  0  0  0  0  0  0
  130.9060  125.1160   63.4880 C   0  0  0  0  0  0  0  0  0  0  0  0
  129.6090  125.8870   63.1380 C   0  0  0  0  0  0  0  0  0  0  0  0
  129.3670  126.9830   64.2050 N   0  0  0  0  0  0  0  0  0  0  0  0
  128.0800  127.7730   63.8670 C   0  0  0  0  0  0  0  0  0  0  0  0
  128.3880  129.2500   63.6800 C   0  0  0  0  0  0  0  0  0  0  0  0
  128.2450  130.3210   64.5490 C   0  0  0  0  0  0  0  0  0  0  0  0
  128.6800  131.4540   64.0390 N   0  0  0  0  0  0  0  0  0  0  0  0
  129.1330  131.1480   62.8470 C   0  0  0  0  0  0  0  0  0  0  0  0
  128.9550  129.8090   62.5490 N   0  0  0  0  0  0  0  0  0  0  0  0
  129.4160  129.1670   61.3190 C   0  0  0  0  0  0  0  0  0  0  0  0
  130.9570  129.0620   61.2170 C   0  0  0  0  0  0  0  0  0  0  0  0
  131.7020  130.3830   61.5030 N   0  0  0  0  0  0  0  0  0  0  0  0
  131.0030  131.6680   61.0240 C   0  0  0  0  0  0  0  0  0  0  0  0
  129.8180  132.1460   61.9100 C   0  0  0  0  0  0  0  0  0  0  0  0
  129.3210  126.3340   65.6100 C   0  0  0  0  0  0  0  0  0  0  0  0
  130.6290  125.5390   65.8460 C   0  0  0  0  0  0  0  0  0  0  0  0
  129.7776  123.1333   65.9847 H   0  0  0  0  0  0  0  0  0  0  0  0
  129.0061  123.6052   64.4328 H   0  0  0  0  0  0  0  0  0  0  0  0
  130.4176  122.4942   64.4328 H   0  0  0  0  0  0  0  0  0  0  0  0
  131.7536  125.8158   63.4461 H   0  0  0  0  0  0  0  0  0  0  0  0
  131.0153  124.3007   62.7577 H   0  0  0  0  0  0  0  0  0  0  0  0
  129.7141  126.3540   62.1476 H   0  0  0  0  0  0  0  0  0  0  0  0
  128.7573  125.1911   63.1220 H   0  0  0  0  0  0  0  0  0  0  0  0
  130.1550  127.6150   64.1780 H   0  0  0  0  0  0  0  0  0  0  0  0
  127.6455  127.3746   62.9383 H   0  0  0  0  0  0  0  0  0  0  0  0
  127.3694  127.6631   64.6995 H   0  0  0  0  0  0  0  0  0  0  0  0
  127.8140  130.2333   65.5572 H   0  0  0  0  0  0  0  0  0  0  0  0
  128.9944  128.1519   61.2770 H   0  0  0  0  0  0  0  0  0  0  0  0
  129.0784  129.7941   60.4807 H   0  0  0  0  0  0  0  0  0  0  0  0
  131.3000  128.3088   61.9415 H   0  0  0  0  0  0  0  0  0  0  0  0
  131.1868  128.7887   60.1766 H   0  0  0  0  0  0  0  0  0  0  0  0
  132.6130  130.3460   61.0660 H   0  0  0  0  0  0  0  0  0  0  0  0
  131.8530  130.4480   62.5000 H   0  0  0  0  0  0  0  0  0  0  0  0
  131.7525  132.4726   60.9949 H   0  0  0  0  0  0  0  0  0  0  0  0
  130.5728  131.4329   60.0393 H   0  0  0  0  0  0  0  0  0  0  0  0
  130.1967  132.9668   62.5368 H   0  0  0  0  0  0  0  0  0  0  0  0
  129.0339  132.3998   61.1815 H   0  0  0  0  0  0  0  0  0  0  0  0
  129.2241  127.1186   66.3748 H   0  0  0  0  0  0  0  0  0  0  0  0
  128.4583  125.6547   65.6755 H   0  0  0  0  0  0  0  0  0  0  0  0
  131.4745  126.2425   65.8357 H   0  0  0  0  0  0  0  0  0  0  0  0
  130.5353  125.0276   66.8154 H   0  0  0  0  0  0  0  0  0  0  0  0
  1  2  1  0
  2  3  1  0
  3  4  1  0
  4  5  1  0
  5  6  1  0
  6  7  1  0
  7  8  2  0
  8  9  1  0
  9 10  2  0
 10 11  1  0
 11 12  1  0
 12 13  1  0
 13 14  1  0
 14 15  1  0
 15 16  1  0
  5 17  1  0
 17 18  1  0
 18  2  1  0
 11  7  1  0
 16 10  1  0
  1 19  1  0
  1 20  1  0
  1 21  1  0
  3 22  1  0
  3 23  1  0
  4 24  1  0
  4 25  1  0
  5 26  1  0
  6 27  1  0
  6 28  1  0
  8 29  1  0
 12 30  1  0
 12 31  1  0
 13 32  1  0
 13 33  1  0
 14 34  1  0
 14 35  1  0
 15 36  1  0
 15 37  1  0
 16 38  1  0
 16 39  1  0
 17 40  1  0
 17 41  1  0
 18 42  1  0
 18 43  1  0
M  CHG  2   5   1  14   1
M  END
>  <Binding energies>  (1) 
[-4.71]

>  <Ligand effiencies>  (1) 
[-0.20478260869565218]

>  <Interactions>  (1) 
["V-A:PRO:540:CB:4885, V-A:PRO:540:CA:4883, H-A:GLU:543:OE2:4910, V-B:GLU:543:CB:9878, V-A:GLU:543:CG:4907, V-B:GLU:543:CD:9880, V-A:GLU:543:CD:4908, H-A:ASP:366:OD2:3215, V-A:TYR:484:CE2:4346, V-B:GLU:543:CG:9879, H-A:GLU:543:OE1:4909, H-A:TYR:484:OH:4348"]

$$$$
ZINC96224108
     RDKit          3D

 45 47  0  0  0  0  0  0  0  0999 V2000
  133.1990  125.3600   57.8690 C   0  0  0  0  0  0  0  0  0  0  0  0
  133.7500  124.3050   58.4860 C   0  0  0  0  0  0  0  0  0  0  0  0
  134.3790  124.3530   59.8670 C   0  0  0  0  0  0  0  0  0  0  0  0
  133.4020  124.3580   60.9590 N   0  0  0  0  0  0  0  0  0  0  0  0
  132.3590  125.3760   61.0420 C   0  0  0  0  0  0  0  0  0  0  0  0
  131.5950  125.0040   62.2940 C   0  0  0  0  0  0  0  0  0  0  0  0
  131.8330  123.5010   62.4470 C   0  0  1  0  0  0  0  0  0  0  0  0
  131.9860  123.0680   63.9310 C   0  0  0  0  0  0  0  0  0  0  0  0
  130.6280  123.1270   64.6480 C   0  0  0  0  0  0  0  0  0  0  0  0
  129.5480  122.3240   63.8930 C   0  0  0  0  0  0  0  0  0  0  0  0
  129.4270  122.7500   62.4920 N   0  0  0  0  0  0  0  0  0  0  0  0
  128.3630  122.0110   61.8020 C   0  0  0  0  0  0  0  0  0  0  0  0
  127.2320  122.8930   61.2710 C   0  0  0  0  0  0  0  0  0  0  0  0
  126.1360  123.2160   61.9300 N   0  0  0  0  0  0  0  0  0  0  0  0
  125.4380  123.9730   61.1040 C   0  0  0  0  0  0  0  0  0  0  0  0
  126.0830  124.1380   59.8910 C   0  0  0  0  0  0  0  0  0  0  0  0
  127.2550  123.4350   60.0030 N   0  0  0  0  0  0  0  0  0  0  0  0
  128.2820  123.2820   58.9860 C   0  0  0  0  0  0  0  0  0  0  0  0
  130.7090  122.6620   61.7690 C   0  0  0  0  0  0  0  0  0  0  0  0
  133.1570  123.2450   61.6960 C   0  0  0  0  0  0  0  0  0  0  0  0
  133.7970  122.1920   61.7100 O   0  0  0  0  0  0  0  0  0  0  0  0
  132.7624  125.2443   56.8660 H   0  0  0  0  0  0  0  0  0  0  0  0
  133.1835  126.3413   58.3658 H   0  0  0  0  0  0  0  0  0  0  0  0
  133.7461  123.3408   57.9566 H   0  0  0  0  0  0  0  0  0  0  0  0
  135.0267  123.4717   59.9845 H   0  0  0  0  0  0  0  0  0  0  0  0
  134.9394  125.2973   59.9325 H   0  0  0  0  0  0  0  0  0  0  0  0
  132.7976  126.3806   61.1338 H   0  0  0  0  0  0  0  0  0  0  0  0
  131.7211  125.4074   60.1464 H   0  0  0  0  0  0  0  0  0  0  0  0
  131.9841  125.5512   63.1653 H   0  0  0  0  0  0  0  0  0  0  0  0
  130.5265  125.2563   62.2258 H   0  0  0  0  0  0  0  0  0  0  0  0
  132.3725  122.0389   63.9705 H   0  0  0  0  0  0  0  0  0  0  0  0
  132.6850  123.7533   64.4328 H   0  0  0  0  0  0  0  0  0  0  0  0
  130.7406  122.7095   65.6594 H   0  0  0  0  0  0  0  0  0  0  0  0
  130.3074  124.1785   64.6887 H   0  0  0  0  0  0  0  0  0  0  0  0
  129.8154  121.2573   63.9184 H   0  0  0  0  0  0  0  0  0  0  0  0
  128.5821  122.5029   64.3881 H   0  0  0  0  0  0  0  0  0  0  0  0
  128.8104  121.4745   60.9523 H   0  0  0  0  0  0  0  0  0  0  0  0
  127.9149  121.3340   62.5442 H   0  0  0  0  0  0  0  0  0  0  0  0
  124.4627  124.4183   61.3500 H   0  0  0  0  0  0  0  0  0  0  0  0
  125.7303  124.7116   59.0212 H   0  0  0  0  0  0  0  0  0  0  0  0
  129.2588  123.1365   59.4703 H   0  0  0  0  0  0  0  0  0  0  0  0
  128.0499  122.4085   58.3590 H   0  0  0  0  0  0  0  0  0  0  0  0
  128.3146  124.1852   58.3590 H   0  0  0  0  0  0  0  0  0  0  0  0
  131.0249  121.6088   61.7372 H   0  0  0  0  0  0  0  0  0  0  0  0
  130.5521  123.0669   60.7583 H   0  0  0  0  0  0  0  0  0  0  0  0
  1  2  2  0
  2  3  1  0
  3  4  1  0
  4  5  1  0
  5  6  1  0
  7  6  1  1
  7  8  1  0
  8  9  1  0
  9 10  1  0
 10 11  1  0
 11 12  1  0
 12 13  1  0
 13 14  2  0
 14 15  1  0
 15 16  2  0
 16 17  1  0
 17 18  1  0
 11 19  1  0
  7 20  1  0
 20 21  2  0
 20  4  1  0
 19  7  1  0
 17 13  1  0
  1 22  1  0
  1 23  1  0
  2 24  1  0
  3 25  1  0
  3 26  1  0
  5 27  1  0
  5 28  1  0
  6 29  1  0
  6 30  1  0
  8 31  1  0
  8 32  1  0
  9 33  1  0
  9 34  1  0
 10 35  1  0
 10 36  1  0
 12 37  1  0
 12 38  1  0
 15 39  1  0
 16 40  1  0
 18 41  1  0
 18 42  1  0
 18 43  1  0
 19 44  1  0
 19 45  1  0
M  END
>  <Binding energies>  (1) 
[-5.69]

>  <Ligand effiencies>  (1) 
[-0.27095238095238094]

>  <Interactions>  (1) 
["V-A:ILE:369:CG2:3237, V-A:ASP:366:CA:3210, V-B:PRO:540:CA:9855, V-A:ILE:369:CB:3236, V-B:ALA:541:CB:9864, V-B:TYR:539:CE2:9848, V-A:TYR:484:CE2:4346, V-B:GLU:543:CG:9879, V-A:ASP:366:CG:3213, H-B:ALA:541:N:9863, V-A:TYR:484:CZ:4347, V-B:PRO:540:CB:9857, V-A:ILE:369:CD1:3239, V-A:ASP:366:C:3208, V-B:TYR:539:CD2:9846, V-A:ASP:366:CB:3212, V-A:LEU:475:CD2:4259, V-B:PRO:540:C:9853, V-B:ALA:541:CA:9862"]

$$$$
ZINC962368642
     RDKit          3D

 85 88  0  0  0  0  0  0  0  0999 V2000
  128.6520  127.3300   61.9780 C   0  0  0  0  0  0  0  0  0  0  0  0
  128.5030  125.8440   61.6500 C   0  0  0  0  0  0  0  0  0  0  0  0
  128.6100  125.0850   62.8110 N   0  0  0  0  0  0  0  0  0  0  0  0
  129.4390  125.4090   63.9640 C   0  0  0  0  0  0  0  0  0  0  0  0
  130.9340  125.1100   63.7330 C   0  0  0  0  0  0  0  0  0  0  0  0
  131.7240  124.6890   65.0070 C   0  0  2  0  0  0  0  0  0  0  0  0
  131.3560  125.5020   66.1870 N   0  0  0  0  0  0  0  0  0  0  0  0
  130.2860  125.1640   67.0050 C   0  0  0  0  0  0  0  0  0  0  0  0
  129.5430  124.1900   66.8680 O   0  0  0  0  0  0  0  0  0  0  0  0
  130.1830  126.0990   67.9880 O   0  0  0  0  0  0  0  0  0  0  0  0
  129.1740  127.1250   68.0600 C   0  0  0  0  0  0  0  0  0  0  0  0
  128.8060  127.6540   66.6520 C   0  0  0  0  0  0  0  0  0  0  0  0
  127.9150  126.6280   68.8140 C   0  0  0  0  0  0  0  0  0  0  0  0
  129.8400  128.2560   68.8700 C   0  0  0  0  0  0  0  0  0  0  0  0
  133.2830  124.7230   64.7370 C   0  0  0  0  0  0  0  0  0  0  0  0
  134.0360  125.1250   65.6580 O   0  0  0  0  0  0  0  0  0  0  0  0
  133.6080  124.3380   63.5890 O   0  0  0  0  0  0  0  0  0  0  0  0
  128.3260  125.3270   60.3870 C   0  0  0  0  0  0  0  0  0  0  0  0
  128.4550  123.8480   60.2320 C   0  0  0  0  0  0  0  0  0  0  0  0
  129.3830  123.2060   60.7260 O   0  0  0  0  0  0  0  0  0  0  0  0
  127.3690  123.1490   59.4060 C   0  0  0  0  0  0  0  0  0  0  0  0
  127.1610  123.7770   58.0080 C   0  0  0  0  0  0  0  0  0  0  0  0
  128.3320  123.4170   57.0600 C   0  0  0  0  0  0  0  0  0  0  0  0
  125.8170  123.2310   57.4710 C   0  0  0  0  0  0  0  0  0  0  0  0
  127.0120  125.3140   58.1840 C   0  0  0  0  0  0  0  0  0  0  0  0
  128.0920  126.0920   59.0270 C   0  0  1  0  0  0  0  0  0  0  0  0
  127.6120  127.5610   59.0940 C   0  0  0  0  0  0  0  0  0  0  0  0
  126.5310  128.0250   59.8690 C   0  0  0  0  0  0  0  0  0  0  0  0
  126.2730  129.3770   59.7180 C   0  0  0  0  0  0  0  0  0  0  0  0
  127.3290  130.1090   58.5630 S   0  0  0  0  0  0  0  0  0  0  0  0
  128.1090  128.5840   58.2690 C   0  0  0  0  0  0  0  0  0  0  0  0
  129.2460  128.4260   57.2760 C   0  0  0  0  0  0  0  0  0  0  0  0
  129.4740  126.9250   56.9850 C   0  0  0  0  0  0  0  0  0  0  0  0
  129.4970  126.0920   58.3020 N   0  0  1  0  0  0  0  0  0  0  0  0
  130.7360  126.4700   59.1810 C   0  0  0  0  0  0  0  0  0  0  0  0
  131.7390  125.3280   59.2690 C   0  0  0  0  0  0  0  0  0  0  0  0
  131.9130  124.3530   60.2480 C   0  0  0  0  0  0  0  0  0  0  0  0
  132.9810  123.5360   59.8810 C   0  0  0  0  0  0  0  0  0  0  0  0
  133.4500  124.0120   58.6730 C   0  0  0  0  0  0  0  0  0  0  0  0
  132.6980  125.1010   58.2960 N   0  0  0  0  0  0  0  0  0  0  0  0
  132.8790  125.8550   57.0640 C   0  0  0  0  0  0  0  0  0  0  0  0
  128.6655  127.4650   63.0696 H   0  0  0  0  0  0  0  0  0  0  0  0
  129.5925  127.7074   61.5502 H   0  0  0  0  0  0  0  0  0  0  0  0
  127.8052  127.8866   61.5502 H   0  0  0  0  0  0  0  0  0  0  0  0
  127.7560  124.6390   63.1160 H   0  0  0  0  0  0  0  0  0  0  0  0
  129.3260  126.4801   64.1873 H   0  0  0  0  0  0  0  0  0  0  0  0
  129.1021  124.7781   64.7997 H   0  0  0  0  0  0  0  0  0  0  0  0
  131.0096  124.2941   62.9991 H   0  0  0  0  0  0  0  0  0  0  0  0
  131.3864  126.0510   63.3870 H   0  0  0  0  0  0  0  0  0  0  0  0
  131.4418  123.6522   65.2426 H   0  0  0  0  0  0  0  0  0  0  0  0
  131.9280  126.3040   66.4150 H   0  0  0  0  0  0  0  0  0  0  0  0
  128.1803  128.5534   66.7502 H   0  0  0  0  0  0  0  0  0  0  0  0
  129.7254  127.9051   66.1028 H   0  0  0  0  0  0  0  0  0  0  0  0
  128.2508  126.8793   66.1028 H   0  0  0  0  0  0  0  0  0  0  0  0
  128.0865  126.6957   69.8984 H   0  0  0  0  0  0  0  0  0  0  0  0
  127.0525  127.2531   68.5394 H   0  0  0  0  0  0  0  0  0  0  0  0
  127.7121  125.5823   68.5394 H   0  0  0  0  0  0  0  0  0  0  0  0
  129.7220  128.0555   69.9451 H   0  0  0  0  0  0  0  0  0  0  0  0
  130.9104  128.3038   68.6213 H   0  0  0  0  0  0  0  0  0  0  0  0
  129.3626  129.2153   68.6213 H   0  0  0  0  0  0  0  0  0  0  0  0
  127.6545  122.0947   59.2757 H   0  0  0  0  0  0  0  0  0  0  0  0
  126.4223  123.2585   59.9553 H   0  0  0  0  0  0  0  0  0  0  0  0
  129.2158  123.1453   57.6558 H   0  0  0  0  0  0  0  0  0  0  0  0
  128.0419  122.5665   56.4255 H   0  0  0  0  0  0  0  0  0  0  0  0
  128.5698  124.2835   56.4255 H   0  0  0  0  0  0  0  0  0  0  0  0
  125.1649  122.9661   58.3163 H   0  0  0  0  0  0  0  0  0  0  0  0
  125.3272  124.0014   56.8574 H   0  0  0  0  0  0  0  0  0  0  0  0
  126.0032  122.3372   56.8574 H   0  0  0  0  0  0  0  0  0  0  0  0
  127.0094  125.7556   57.1765 H   0  0  0  0  0  0  0  0  0  0  0  0
  126.0879  125.4252   58.7702 H   0  0  0  0  0  0  0  0  0  0  0  0
  125.9453  127.3728   60.5335 H   0  0  0  0  0  0  0  0  0  0  0  0
  125.4898  129.9198   60.2674 H   0  0  0  0  0  0  0  0  0  0  0  0
  128.9904  128.9457   56.3408 H   0  0  0  0  0  0  0  0  0  0  0  0
  130.1640  128.8602   57.6989 H   0  0  0  0  0  0  0  0  0  0  0  0
  128.6611  126.5568   56.3419 H   0  0  0  0  0  0  0  0  0  0  0  0
  130.4468  126.8114   56.4843 H   0  0  0  0  0  0  0  0  0  0  0  0
  129.6500  125.1340   58.0230 H   0  0  0  0  0  0  0  0  0  0  0  0
  131.2324  127.3460   58.7380 H   0  0  0  0  0  0  0  0  0  0  0  0
  130.3785  126.6890   60.1980 H   0  0  0  0  0  0  0  0  0  0  0  0
  131.3077  124.2454   61.1601 H   0  0  0  0  0  0  0  0  0  0  0  0
  133.3743  122.6775   60.4451 H   0  0  0  0  0  0  0  0  0  0  0  0
  134.2902  123.5886   58.1031 H   0  0  0  0  0  0  0  0  0  0  0  0
  133.1295  126.8984   57.3061 H   0  0  0  0  0  0  0  0  0  0  0  0
  133.6955  125.4085   56.4775 H   0  0  0  0  0  0  0  0  0  0  0  0
  131.9488  125.8278   56.4775 H   0  0  0  0  0  0  0  0  0  0  0  0
  1  2  1  0
  2  3  1  0
  3  4  1  0
  4  5  1  0
  5  6  1  0
  6  7  1  0
  7  8  1  0
  8  9  2  0
  8 10  1  0
 10 11  1  0
 11 12  1  0
 11 13  1  0
 11 14  1  0
  6 15  1  0
 15 16  2  0
 15 17  1  0
  2 18  2  0
 18 19  1  0
 19 20  2  0
 19 21  1  0
 21 22  1  0
 22 23  1  0
 22 24  1  0
 22 25  1  0
 26 25  1  6
 26 27  1  0
 27 28  1  0
 28 29  2  0
 29 30  1  0
 30 31  1  0
 31 32  1  0
 32 33  1  0
 33 34  1  0
 34 35  1  0
 35 36  1  0
 36 37  2  0
 37 38  1  0
 38 39  2  0
 39 40  1  0
 40 41  1  0
 26 18  1  0
 31 27  2  0
 40 36  1  0
 34 26  1  0
  1 42  1  0
  1 43  1  0
  1 44  1  0
  3 45  1  0
  4 46  1  0
  4 47  1  0
  5 48  1  0
  5 49  1  0
  6 50  1  1
  7 51  1  0
 12 52  1  0
 12 53  1  0
 12 54  1  0
 13 55  1  0
 13 56  1  0
 13 57  1  0
 14 58  1  0
 14 59  1  0
 14 60  1  0
 21 61  1  0
 21 62  1  0
 23 63  1  0
 23 64  1  0
 23 65  1  0
 24 66  1  0
 24 67  1  0
 24 68  1  0
 25 69  1  0
 25 70  1  0
 28 71  1  0
 29 72  1  0
 32 73  1  0
 32 74  1  0
 33 75  1  0
 33 76  1  0
 34 77  1  6
 35 78  1  0
 35 79  1  0
 37 80  1  0
 38 81  1  0
 39 82  1  0
 41 83  1  0
 41 84  1  0
 41 85  1  0
M  CHG  2  17  -1  34   1
M  END
>  <Binding energies>  (1) 
[-8.59]

>  <Ligand effiencies>  (1) 
[-0.19522727272727272]

>  <Interactions>  (1) 
["V-A:ILE:369:CG2:3237, V-A:ASP:366:CA:3210, V-B:PRO:540:CA:9855, V-A:GLU:543:CA:4904, V-A:GLY:454:CA:4049, V-B:GLU:543:C:9874, H-A:GLU:543:OE2:4910, V-A:ILE:369:CB:3236, V-A:GLU:543:C:4902, V-B:GLU:543:CB:9878, V-B:ASP:366:CG:8184, V-B:TYR:539:CE2:9848, V-A:ASN:370:CB:3245, V-A:TYR:484:CE2:4346, V-B:GLU:543:CG:9879, V-B:TYR:539:CZ:9849, H-B:GLU:543:OE1:9881, H-B:TYR:539:OH:9850, V-A:GLU:543:CD:4908, V-B:PRO:540:CB:9857, V-A:TYR:484:CZ:4347, V-B:HIS:456:CE1:9041, H-A:GLY:454:N:4050, V-B:GLU:543:CA:9876, V-B:PRO:540:N:9856, V-A:HIS:456:CE1:4070, V-A:ASP:366:C:3208, V-B:TYR:539:CD2:9846, V-B:PRO:540:CD:9859, V-A:TYR:531:CZ:4794, V-A:GLU:543:CG:4907, V-B:GLU:543:CD:9880, V-A:ASP:366:CB:3212, H-A:ARG:545:NH2:4928, V-A:ARG:545:CZ:4926, V-B:TYR:539:CG:9844, V-A:GLU:543:CB:4906, V-B:TYR:539:CD1:9845, H-B:GLU:543:OE2:9882, H-A:ARG:545:NE:4924, V-B:TYR:539:CE1:9847, H-A:TYR:484:OH:4348"]

$$$$
ZINC96259953
     RDKit          3D

 41 42  0  0  0  0  0  0  0  0999 V2000
  127.3360  122.9350   58.5970 C   0  0  0  0  0  0  0  0  0  0  0  0
  126.9670  123.8570   59.5030 C   0  0  0  0  0  0  0  0  0  0  0  0
  126.2490  123.5860   60.8130 C   0  0  0  0  0  0  0  0  0  0  0  0
  127.0710  122.8720   61.7290 O   0  0  0  0  0  0  0  0  0  0  0  0
  128.3530  123.4530   61.9230 C   0  0  0  0  0  0  0  0  0  0  0  0
  129.4220  122.4310   61.5930 C   0  0  0  0  0  0  0  0  0  0  0  0
  129.1460  121.1400   61.6800 N   0  0  0  0  0  0  0  0  0  0  0  0
  130.2500  120.5300   61.3470 C   0  0  0  0  0  0  0  0  0  0  0  0
  131.2840  121.3830   61.0610 N   0  0  0  0  0  0  0  0  0  0  0  0
  130.7400  122.6440   61.1810 C   0  0  0  0  0  0  0  0  0  0  0  0
  131.5450  123.9040   60.9260 C   0  0  0  0  0  0  0  0  0  0  0  0
  132.7960  123.9840   61.7130 N   0  0  0  0  0  0  0  0  0  0  0  0
  132.6580  124.5050   63.4070 S   0  0  0  0  0  0  0  0  0  0  0  0
  134.0240  124.6720   63.9160 O   0  0  0  0  0  0  0  0  0  0  0  0
  131.7820  125.6810   63.4390 O   0  0  0  0  0  0  0  0  0  0  0  0
  131.8070  123.0700   64.3000 C   0  0  0  0  0  0  0  0  0  0  0  0
  130.4320  123.5100   64.8150 C   0  0  0  0  0  0  0  0  0  0  0  0
  133.9660  123.1560   61.3290 C   0  0  0  0  0  0  0  0  0  0  0  0
  133.7500  121.6370   61.4780 C   0  0  0  0  0  0  0  0  0  0  0  0
  132.6270  121.0410   60.6040 C   0  0  0  0  0  0  0  0  0  0  0  0
  127.8539  123.2443   57.6771 H   0  0  0  0  0  0  0  0  0  0  0  0
  127.1201  121.8713   58.7755 H   0  0  0  0  0  0  0  0  0  0  0  0
  127.2077  124.9056   59.2739 H   0  0  0  0  0  0  0  0  0  0  0  0
  125.9614  124.5460   61.2665 H   0  0  0  0  0  0  0  0  0  0  0  0
  125.3639  122.9698   60.5963 H   0  0  0  0  0  0  0  0  0  0  0  0
  128.4640  124.3265   61.2637 H   0  0  0  0  0  0  0  0  0  0  0  0
  128.4584  123.7708   62.9708 H   0  0  0  0  0  0  0  0  0  0  0  0
  130.3423  119.4349   61.3002 H   0  0  0  0  0  0  0  0  0  0  0  0
  131.8047  123.9392   59.8577 H   0  0  0  0  0  0  0  0  0  0  0  0
  130.9174  124.7528   61.2353 H   0  0  0  0  0  0  0  0  0  0  0  0
  131.6818  122.2298   63.6011 H   0  0  0  0  0  0  0  0  0  0  0  0
  132.4277  122.7585   65.1531 H   0  0  0  0  0  0  0  0  0  0  0  0
  130.4350  123.5091   65.9150 H   0  0  0  0  0  0  0  0  0  0  0  0
  130.2109  124.5238   64.4498 H   0  0  0  0  0  0  0  0  0  0  0  0
  129.6634  122.8129   64.4498 H   0  0  0  0  0  0  0  0  0  0  0  0
  134.2060  123.3674   60.2765 H   0  0  0  0  0  0  0  0  0  0  0  0
  134.7800  123.4256   62.0181 H   0  0  0  0  0  0  0  0  0  0  0  0
  134.6908  121.1325   61.2128 H   0  0  0  0  0  0  0  0  0  0  0  0
  133.4414  121.4749   62.5213 H   0  0  0  0  0  0  0  0  0  0  0  0
  132.7503  121.4156   59.5771 H   0  0  0  0  0  0  0  0  0  0  0  0
  132.7185  119.9465   60.6653 H   0  0  0  0  0  0  0  0  0  0  0  0
  1  2  2  0
  2  3  1  0
  3  4  1  0
  4  5  1  0
  5  6  1  0
  6  7  1  0
  7  8  2  0
  8  9  1  0
  9 10  1  0
 10 11  1  0
 11 12  1  0
 12 13  1  0
 13 14  2  0
 13 15  2  0
 13 16  1  0
 16 17  1  0
 12 18  1  0
 18 19  1  0
 19 20  1  0
 10  6  2  0
 20  9  1  0
  1 21  1  0
  1 22  1  0
  2 23  1  0
  3 24  1  0
  3 25  1  0
  5 26  1  0
  5 27  1  0
  8 28  1  0
 11 29  1  0
 11 30  1  0
 16 31  1  0
 16 32  1  0
 17 33  1  0
 17 34  1  0
 17 35  1  0
 18 36  1  0
 18 37  1  0
 19 38  1  0
 19 39  1  0
 20 40  1  0
 20 41  1  0
M  END
>  <Binding energies>  (1) 
[-3.96]

>  <Ligand effiencies>  (1) 
[-0.18]

>  <Interactions>  (1) 
["V-A:ILE:369:CG2:3237, V-B:PRO:540:CA:9855, V-A:ILE:369:CD1:3239, V-B:TYR:539:CD2:9846, H-B:ALA:541:N:9863, V-B:ALA:541:CB:9864, H-A:ARG:545:NH1:4927, V-B:TYR:539:CE2:9848, V-B:PRO:540:CB:9857, V-A:TYR:484:CZ:4347, V-A:LEU:475:CD2:4259, H-A:ARG:545:NH2:4928, V-A:TYR:484:CE2:4346, V-B:GLU:543:CG:9879, V-B:TYR:539:C:9839, H-A:GLY:454:N:4050, V-B:PRO:540:N:9856"]

$$$$
ZINC962627453
     RDKit          3D

 67 70  0  0  0  0  0  0  0  0999 V2000
  129.1150  126.9180   66.2110 C   0  0  0  0  0  0  0  0  0  0  0  0
  130.0460  125.7100   66.3260 C   0  0  0  0  0  0  0  0  0  0  0  0
  129.9810  125.0190   67.3440 O   0  0  0  0  0  0  0  0  0  0  0  0
  130.9850  125.4290   65.1930 C   0  0  0  0  0  0  0  0  0  0  0  0
  132.3700  125.3550   65.3780 C   0  0  0  0  0  0  0  0  0  0  0  0
  133.2130  125.0900   64.3030 C   0  0  0  0  0  0  0  0  0  0  0  0
  132.7070  124.8910   63.0160 C   0  0  0  0  0  0  0  0  0  0  0  0
  131.3100  124.9800   62.8080 C   0  0  0  0  0  0  0  0  0  0  0  0
  130.4770  125.2370   63.9030 C   0  0  0  0  0  0  0  0  0  0  0  0
  130.7030  124.8150   61.4000 C   0  0  1  0  0  0  0  0  0  0  0  0
  130.3420  126.1450   60.7370 C   0  0  0  0  0  0  0  0  0  0  0  0
  130.7320  127.4260   61.1080 C   0  0  0  0  0  0  0  0  0  0  0  0
  130.2130  128.2840   60.1810 N   0  0  0  0  0  0  0  0  0  0  0  0
  130.3740  129.7290   60.1120 C   0  0  0  0  0  0  0  0  0  0  0  0
  130.0980  130.3840   61.4740 C   0  0  0  0  0  0  0  0  0  0  0  0
  131.0970  131.4050   61.8250 C   0  0  0  0  0  0  0  0  0  0  0  0
  131.8830  132.2080   62.0990 N   0  0  0  0  0  0  0  0  0  0  0  0
  129.5120  127.6450   59.2430 N   0  0  0  0  0  0  0  0  0  0  0  0
  129.5620  126.3700   59.5740 C   0  0  0  0  0  0  0  0  0  0  0  0
  128.8630  125.3530   58.7310 C   0  0  0  0  0  0  0  0  0  0  0  0
  128.0370  124.3920   59.3240 C   0  0  0  0  0  0  0  0  0  0  0  0
  127.3680  123.4590   58.5360 C   0  0  0  0  0  0  0  0  0  0  0  0
  127.5320  123.4800   57.1530 C   0  0  0  0  0  0  0  0  0  0  0  0
  128.3600  124.4250   56.5530 C   0  0  0  0  0  0  0  0  0  0  0  0
  129.0250  125.3600   57.3400 C   0  0  0  0  0  0  0  0  0  0  0  0
  131.6500  124.0190   60.5790 N   0  0  0  0  0  0  0  0  0  0  0  0
  131.5630  122.6010   60.5730 C   0  0  0  0  0  0  0  0  0  0  0  0
  132.5170  121.8250   60.4870 O   0  0  0  0  0  0  0  0  0  0  0  0
  130.2610  122.1740   60.6210 O   0  0  0  0  0  0  0  0  0  0  0  0
  129.5620  121.7260   61.7950 C   0  0  0  0  0  0  0  0  0  0  0  0
  130.3220  122.0940   63.0930 C   0  0  0  0  0  0  0  0  0  0  0  0
  128.1140  122.2730   61.8220 C   0  0  0  0  0  0  0  0  0  0  0  0
  129.5280  120.1920   61.6430 C   0  0  0  0  0  0  0  0  0  0  0  0
  132.9750  124.6970   60.4590 C   0  0  2  0  0  0  0  0  0  0  0  0
  133.8610  124.3350   59.2240 C   0  0  0  0  0  0  0  0  0  0  0  0
  133.2920  124.0110   58.1560 O   0  0  0  0  0  0  0  0  0  0  0  0
  135.1040  124.3080   59.3800 O   0  0  0  0  0  0  0  0  0  0  0  0
  133.6600  124.5650   61.8560 C   0  0  0  0  0  0  0  0  0  0  0  0
  128.8442  127.2694   67.2176 H   0  0  0  0  0  0  0  0  0  0  0  0
  129.6270  127.7250   65.6664 H   0  0  0  0  0  0  0  0  0  0  0  0
  128.2042  126.6285   65.6664 H   0  0  0  0  0  0  0  0  0  0  0  0
  132.7957  125.5075   66.3808 H   0  0  0  0  0  0  0  0  0  0  0  0
  134.2989  125.0362   64.4698 H   0  0  0  0  0  0  0  0  0  0  0  0
  129.3897  125.2897   63.7449 H   0  0  0  0  0  0  0  0  0  0  0  0
  129.7439  124.2838   61.4886 H   0  0  0  0  0  0  0  0  0  0  0  0
  131.3425  127.6973   61.9819 H   0  0  0  0  0  0  0  0  0  0  0  0
  131.4043  129.9610   59.8044 H   0  0  0  0  0  0  0  0  0  0  0  0
  129.6529  130.1255   59.3821 H   0  0  0  0  0  0  0  0  0  0  0  0
  129.1061  130.8584   61.4419 H   0  0  0  0  0  0  0  0  0  0  0  0
  130.1465  129.5946   62.2386 H   0  0  0  0  0  0  0  0  0  0  0  0
  127.9156  124.3734   60.4171 H   0  0  0  0  0  0  0  0  0  0  0  0
  126.7131  122.7090   59.0035 H   0  0  0  0  0  0  0  0  0  0  0  0
  127.0030  122.7440   56.5297 H   0  0  0  0  0  0  0  0  0  0  0  0
  128.4880  124.4323   55.4605 H   0  0  0  0  0  0  0  0  0  0  0  0
  129.6801  126.1071   56.8681 H   0  0  0  0  0  0  0  0  0  0  0  0
  129.7195  121.8023   63.9659 H   0  0  0  0  0  0  0  0  0  0  0  0
  131.2846  121.5622   63.1176 H   0  0  0  0  0  0  0  0  0  0  0  0
  130.5018  123.1789   63.1176 H   0  0  0  0  0  0  0  0  0  0  0  0
  127.7880  122.3962   62.8653 H   0  0  0  0  0  0  0  0  0  0  0  0
  128.0800  123.2459   61.3099 H   0  0  0  0  0  0  0  0  0  0  0  0
  127.4452  121.5656   61.3099 H   0  0  0  0  0  0  0  0  0  0  0  0
  129.5176  119.7250   62.6389 H   0  0  0  0  0  0  0  0  0  0  0  0
  128.6231  119.8982   61.0908 H   0  0  0  0  0  0  0  0  0  0  0  0
  130.4190  119.8584   61.0908 H   0  0  0  0  0  0  0  0  0  0  0  0
  132.8124  125.7550   60.2055 H   0  0  0  0  0  0  0  0  0  0  0  0
  134.0197  123.5324   61.9755 H   0  0  0  0  0  0  0  0  0  0  0  0
  134.4866  125.2900   61.8909 H   0  0  0  0  0  0  0  0  0  0  0  0
  1  2  1  0
  2  3  2  0
  2  4  1  0
  4  5  2  0
  5  6  1  0
  6  7  2  0
  7  8  1  0
  8  9  2  0
  8 10  1  0
 10 11  1  0
 11 12  2  0
 12 13  1  0
 13 14  1  0
 14 15  1  0
 15 16  1  0
 16 17  3  0
 13 18  1  0
 18 19  2  0
 19 20  1  0
 20 21  2  0
 21 22  1  0
 22 23  2  0
 23 24  1  0
 24 25  2  0
 10 26  1  0
 26 27  1  0
 27 28  2  0
 27 29  1  0
 29 30  1  0
 30 31  1  0
 30 32  1  0
 30 33  1  0
 26 34  1  0
 34 35  1  0
 35 36  2  0
 35 37  1  0
 34 38  1  0
  9  4  1  0
 19 11  1  0
 25 20  1  0
 38  7  1  0
  1 39  1  0
  1 40  1  0
  1 41  1  0
  5 42  1  0
  6 43  1  0
  9 44  1  0
 10 45  1  1
 12 46  1  0
 14 47  1  0
 14 48  1  0
 15 49  1  0
 15 50  1  0
 21 51  1  0
 22 52  1  0
 23 53  1  0
 24 54  1  0
 25 55  1  0
 31 56  1  0
 31 57  1  0
 31 58  1  0
 32 59  1  0
 32 60  1  0
 32 61  1  0
 33 62  1  0
 33 63  1  0
 33 64  1  0
 34 65  1  6
 38 66  1  0
 38 67  1  0
M  CHG  1  37  -1
M  END
>  <Binding energies>  (1) 
[-7.85]

>  <Ligand effiencies>  (1) 
[-0.20657894736842106]

>  <Interactions>  (1) 
["V-A:ILE:369:CG2:3237, V-A:ASP:366:CA:3210, V-B:PRO:540:CA:9855, V-A:ILE:369:CB:3236, H-A:ALA:541:N:4891, V-B:GLU:543:CB:9878, V-B:ALA:541:CB:9864, V-B:TYR:539:CE2:9848, V-B:GLU:543:CG:9879, V-B:TYR:539:C:9839, V-A:ASP:366:CG:3213, V-B:TYR:539:CZ:9849, H-B:TYR:539:OH:9850, V-A:GLU:543:CD:4908, V-A:ASP:366:C:3208, V-B:TYR:539:CD2:9846, V-B:GLU:543:CD:9880, V-A:ASP:366:CB:3212, V-A:LEU:475:CD2:4259, V-A:ARG:545:CZ:4926, V-B:PRO:540:C:9853, V-B:ALA:541:CA:9862, V-B:TYR:539:CE1:9847, H-A:TYR:484:OH:4348"]

$$$$
ZINC962633525-again4
     RDKit          3D

105110  0  0  0  0  0  0  0  0999 V2000
  127.6480  122.8850   62.3750 C   0  0  0  0  0  0  0  0  0  0  0  0
  128.3000  123.9980   61.9830 C   0  0  0  0  0  0  0  0  0  0  0  0
  127.5860  125.0470   61.2380 N   0  0  0  0  0  0  0  0  0  0  0  0
  127.1070  124.6780   59.8050 C   0  0  1  0  0  0  0  0  0  0  0  0
  127.3590  125.9100   58.8880 C   0  0  0  0  0  0  0  0  0  0  0  0
  126.1520  126.8400   58.6430 C   0  0  0  0  0  0  0  0  0  0  0  0
  126.2860  128.2480   59.2680 C   0  0  0  0  0  0  0  0  0  0  0  0
  125.9990  129.4060   58.2870 C   0  0  0  0  0  0  0  0  0  0  0  0
  127.1250  130.3250   58.1180 N   0  0  0  0  0  0  0  0  0  0  0  0
  127.0840  131.6460   58.5370 C   0  0  0  0  0  0  0  0  0  0  0  0
  126.1930  132.1710   59.2080 O   0  0  0  0  0  0  0  0  0  0  0  0
  128.1580  132.2860   58.0420 O   0  0  0  0  0  0  0  0  0  0  0  0
  129.1900  132.7590   58.9010 C   0  0  0  0  0  0  0  0  0  0  0  0
  129.6690  131.6290   59.8350 C   0  0  0  0  0  0  0  0  0  0  0  0
  131.1750  131.6090   60.0520 C   0  0  0  0  0  0  0  0  0  0  0  0
  132.2090  131.4310   59.1270 C   0  0  0  0  0  0  0  0  0  0  0  0
  133.5380  131.4720   59.5490 C   0  0  0  0  0  0  0  0  0  0  0  0
  133.8380  131.6840   60.8960 C   0  0  0  0  0  0  0  0  0  0  0  0
  132.8090  131.8520   61.8240 C   0  0  0  0  0  0  0  0  0  0  0  0
  131.4800  131.8090   61.3980 C   0  0  0  0  0  0  0  0  0  0  0  0
  130.2200  131.9300   62.1480 C   0  0  0  0  0  0  0  0  0  0  0  0
  129.9750  132.1240   63.5090 C   0  0  0  0  0  0  0  0  0  0  0  0
  128.6620  132.1870   63.9730 C   0  0  0  0  0  0  0  0  0  0  0  0
  127.5960  132.0550   63.0800 C   0  0  0  0  0  0  0  0  0  0  0  0
  127.8430  131.8640   61.7200 C   0  0  0  0  0  0  0  0  0  0  0  0
  129.1580  131.8050   61.2510 C   0  0  0  0  0  0  0  0  0  0  0  0
  127.8840  123.4220   59.3040 C   0  0  0  0  0  0  0  0  0  0  0  0
  127.1850  122.5080   58.8090 O   0  0  0  0  0  0  0  0  0  0  0  0
  129.1350  123.3780   59.3770 O   0  0  0  0  0  0  0  0  0  0  0  0
  129.7460  124.1910   62.2340 C   0  0  0  0  0  0  0  0  0  0  0  0
  130.5540  123.1340   62.5510 C   0  0  0  0  0  0  0  0  0  0  0  0
  130.1840  121.8950   62.5440 O   0  0  0  0  0  0  0  0  0  0  0  0
  131.9910  123.2520   63.0630 C   0  0  0  0  0  0  0  0  0  0  0  0
  132.7430  124.3730   62.3140 C   0  0  0  0  0  0  0  0  0  0  0  0
  132.9960  123.9520   60.8460 C   0  0  0  0  0  0  0  0  0  0  0  0
  134.0820  124.6150   63.0570 C   0  0  0  0  0  0  0  0  0  0  0  0
  131.9020  125.6900   62.3910 C   0  0  0  0  0  0  0  0  0  0  0  0
  130.3150  125.6510   62.2800 C   0  0  2  0  0  0  0  0  0  0  0  0
  129.6530  126.3530   63.5080 C   0  0  0  0  0  0  0  0  0  0  0  0
  129.8660  125.8640   64.8060 C   0  0  0  0  0  0  0  0  0  0  0  0
  129.3440  126.4860   65.9490 C   0  0  0  0  0  0  0  0  0  0  0  0
  129.5420  126.0190   67.2360 O   0  0  0  0  0  0  0  0  0  0  0  0
  129.8360  124.6410   67.4460 C   0  0  0  0  0  0  0  0  0  0  0  0
  128.5840  127.6490   65.7980 C   0  0  0  0  0  0  0  0  0  0  0  0
  128.0950  128.2390   66.9500 O   0  0  0  0  0  0  0  0  0  0  0  0
  127.9470  129.6530   67.0050 C   0  0  0  0  0  0  0  0  0  0  0  0
  128.3520  128.1440   64.5080 C   0  0  0  0  0  0  0  0  0  0  0  0
  128.8610  127.5080   63.3730 C   0  0  0  0  0  0  0  0  0  0  0  0
  128.5300  128.0390   61.9920 C   0  0  0  0  0  0  0  0  0  0  0  0
  129.6150  127.7160   60.9500 C   0  0  1  0  0  0  0  0  0  0  0  0
  130.8380  128.6470   61.0920 C   0  0  0  0  0  0  0  0  0  0  0  0
  129.8860  126.2710   60.9850 N   0  0  0  0  0  0  0  0  0  0  0  0
  130.5140  125.8040   59.7460 C   0  0  0  0  0  0  0  0  0  0  0  0
  128.1829  122.1016   62.9319 H   0  0  0  0  0  0  0  0  0  0  0  0
  126.5811  122.7603   62.1380 H   0  0  0  0  0  0  0  0  0  0  0  0
  126.7610  125.2890   61.7650 H   0  0  0  0  0  0  0  0  0  0  0  0
  128.1510  125.8820   61.1840 H   0  0  0  0  0  0  0  0  0  0  0  0
  126.0353  124.4306   59.7929 H   0  0  0  0  0  0  0  0  0  0  0  0
  128.1574  126.5115   59.3471 H   0  0  0  0  0  0  0  0  0  0  0  0
  127.6128  125.4939   57.9019 H   0  0  0  0  0  0  0  0  0  0  0  0
  126.0246  126.9577   57.5568 H   0  0  0  0  0  0  0  0  0  0  0  0
  125.2882  126.3640   59.1301 H   0  0  0  0  0  0  0  0  0  0  0  0
  125.5775  128.3223   60.1061 H   0  0  0  0  0  0  0  0  0  0  0  0
  127.3339  128.3547   59.5851 H   0  0  0  0  0  0  0  0  0  0  0  0
  125.7508  128.9763   57.3053 H   0  0  0  0  0  0  0  0  0  0  0  0
  125.1684  129.9891   58.7114 H   0  0  0  0  0  0  0  0  0  0  0  0
  127.9080  130.0240   57.5570 H   0  0  0  0  0  0  0  0  0  0  0  0
  130.0364  133.1099   58.2923 H   0  0  0  0  0  0  0  0  0  0  0  0
  128.7967  133.5852   59.5115 H   0  0  0  0  0  0  0  0  0  0  0  0
  129.2997  130.7265   59.3260 H   0  0  0  0  0  0  0  0  0  0  0  0
  131.9741  131.2586   58.0663 H   0  0  0  0  0  0  0  0  0  0  0  0
  134.3504  131.3372   58.8198 H   0  0  0  0  0  0  0  0  0  0  0  0
  134.8867  131.7187   61.2263 H   0  0  0  0  0  0  0  0  0  0  0  0
  133.0439  132.0175   62.8858 H   0  0  0  0  0  0  0  0  0  0  0  0
  130.8147  132.2267   64.2121 H   0  0  0  0  0  0  0  0  0  0  0  0
  128.4650  132.3409   65.0442 H   0  0  0  0  0  0  0  0  0  0  0  0
  126.5609  132.1017   63.4492 H   0  0  0  0  0  0  0  0  0  0  0  0
  127.0030  131.7599   61.0175 H   0  0  0  0  0  0  0  0  0  0  0  0
  131.9740  123.4836   64.1382 H   0  0  0  0  0  0  0  0  0  0  0  0
  132.5098  122.2980   62.8880 H   0  0  0  0  0  0  0  0  0  0  0  0
  133.5625  123.0093   60.8273 H   0  0  0  0  0  0  0  0  0  0  0  0
  132.0328  123.8111   60.3337 H   0  0  0  0  0  0  0  0  0  0  0  0
  133.5725  124.7364   60.3337 H   0  0  0  0  0  0  0  0  0  0  0  0
  133.9096  124.5838   64.1430 H   0  0  0  0  0  0  0  0  0  0  0  0
  134.8030  123.8326   62.7776 H   0  0  0  0  0  0  0  0  0  0  0  0
  134.4835  125.6003   62.7776 H   0  0  0  0  0  0  0  0  0  0  0  0
  132.1374  126.1564   63.3590 H   0  0  0  0  0  0  0  0  0  0  0  0
  132.1978  126.2224   61.4750 H   0  0  0  0  0  0  0  0  0  0  0  0
  130.4690  124.9527   64.9322 H   0  0  0  0  0  0  0  0  0  0  0  0
  129.8798  124.4358   68.5258 H   0  0  0  0  0  0  0  0  0  0  0  0
  129.0492  124.0242   66.9872 H   0  0  0  0  0  0  0  0  0  0  0  0
  130.8060  124.3990   66.9872 H   0  0  0  0  0  0  0  0  0  0  0  0
  127.9130  129.9775   68.0555 H   0  0  0  0  0  0  0  0  0  0  0  0
  128.8000  130.1308   66.5010 H   0  0  0  0  0  0  0  0  0  0  0  0
  127.0135  129.9438   66.5010 H   0  0  0  0  0  0  0  0  0  0  0  0
  127.7528  129.0583   64.3855 H   0  0  0  0  0  0  0  0  0  0  0  0
  127.5815  127.5904   61.6616 H   0  0  0  0  0  0  0  0  0  0  0  0
  128.4607  129.1342   62.0675 H   0  0  0  0  0  0  0  0  0  0  0  0
  129.2659  127.9340   59.9299 H   0  0  0  0  0  0  0  0  0  0  0  0
  131.0526  128.8104   62.1584 H   0  0  0  0  0  0  0  0  0  0  0  0
  131.7105  128.1824   60.6094 H   0  0  0  0  0  0  0  0  0  0  0  0
  130.6225  129.6117   60.6094 H   0  0  0  0  0  0  0  0  0  0  0  0
  131.3747  125.1639   59.9898 H   0  0  0  0  0  0  0  0  0  0  0  0
  129.7834  125.2281   59.1591 H   0  0  0  0  0  0  0  0  0  0  0  0
  130.8553  126.6695   59.1591 H   0  0  0  0  0  0  0  0  0  0  0  0
  1  2  2  0
  2  3  1  0
  3  4  1  0
  4  5  1  0
  5  6  1  0
  6  7  1  0
  7  8  1  0
  8  9  1  0
  9 10  1  0
 10 11  2  0
 10 12  1  0
 12 13  1  0
 13 14  1  0
 14 15  1  0
 15 16  2  0
 16 17  1  0
 17 18  2  0
 18 19  1  0
 19 20  2  0
 20 21  1  0
 21 22  2  0
 22 23  1  0
 23 24  2  0
 24 25  1  0
 25 26  2  0
  4 27  1  0
 27 28  2  0
 27 29  1  0
  2 30  1  0
 30 31  2  0
 31 32  1  0
 31 33  1  0
 33 34  1  0
 34 35  1  0
 34 36  1  0
 34 37  1  0
 37 38  1  0
 38 39  1  0
 39 40  2  0
 40 41  1  0
 41 42  1  0
 42 43  1  0
 41 44  2  0
 44 45  1  0
 45 46  1  0
 44 47  1  0
 47 48  2  0
 48 49  1  0
 49 50  1  0
 50 51  1  0
 50 52  1  0
 52 53  1  0
 26 14  1  0
 38 30  1  0
 48 39  1  0
 20 15  1  0
 26 21  1  0
 38 52  1  6
  1 54  1  0
  1 55  1  0
  3 56  1  0
  3 57  1  0
  4 58  1  1
  5 59  1  0
  5 60  1  0
  6 61  1  0
  6 62  1  0
  7 63  1  0
  7 64  1  0
  8 65  1  0
  8 66  1  0
  9 67  1  0
 13 68  1  0
 13 69  1  0
 14 70  1  0
 16 71  1  0
 17 72  1  0
 18 73  1  0
 19 74  1  0
 22 75  1  0
 23 76  1  0
 24 77  1  0
 25 78  1  0
 33 79  1  0
 33 80  1  0
 35 81  1  0
 35 82  1  0
 35 83  1  0
 36 84  1  0
 36 85  1  0
 36 86  1  0
 37 87  1  0
 37 88  1  0
 40 89  1  0
 43 90  1  0
 43 91  1  0
 43 92  1  0
 46 93  1  0
 46 94  1  0
 46 95  1  0
 47 96  1  0
 49 97  1  0
 49 98  1  0
 50 99  1  6
 51100  1  0
 51101  1  0
 51102  1  0
 53103  1  0
 53104  1  0
 53105  1  0
M  CHG  3   3   1  29  -1  32  -1
M  END
>  <Binding energies>  (1) 
[-8.39]

>  <Ligand effiencies>  (1) 
[-0.14982142857142858]

>  <Interactions>  (1) 
["V-B:PRO:540:CA:9855, V-B:GLU:543:CB:9878, V-A:PRO:540:C:4881, V-B:ALA:541:CB:9864, V-B:ASP:366:CG:8184, V-A:TYR:484:CE2:4346, V-B:GLU:543:CG:9879, V-A:ASP:366:CG:3213, V-A:ASN:362:CB:3176, V-A:TYR:539:CD1:4873, V-B:TYR:484:CE2:9317, V-A:LEU:363:CB:3187, V-A:LEU:363:CD1:3189, H-B:GLU:543:OE1:9881, V-A:ALA:541:CB:4892, V-A:GLU:543:CD:4908, V-A:TYR:484:CZ:4347, V-B:ASP:366:CB:8183, H-B:ASP:366:OD1:8185, V-B:HIS:456:CE1:9041, V-B:GLU:543:CA:9876, V-A:GLY:453:C:4042, V-B:TYR:484:CZ:9318, V-A:HIS:456:CE1:4070, V-A:ALA:541:CA:4890, V-A:GLU:543:CG:4907, V-B:GLU:543:CD:9880, V-A:TYR:539:C:4867, V-A:LEU:475:CD2:4259, V-A:ASN:362:C:3172, V-A:ARG:545:CZ:4926, V-A:GLU:543:CB:4906, V-A:PRO:540:N:4884, V-A:GLY:453:CA:4044, V-A:PRO:540:CA:4883, V-A:PRO:540:CB:4885, V-A:LEU:363:CA:3185, V-B:ALA:541:CA:9862, V-A:TYR:539:CE1:4875"]

$$$$
ZINC962661694
     RDKit          3D

 54 58  0  0  0  0  0  0  0  0999 V2000
  129.7660  124.6310   67.5910 C   0  0  0  0  0  0  0  0  0  0  0  0
  130.2360  124.4870   66.1530 C   0  0  0  0  0  0  0  0  0  0  0  0
  131.0540  125.4700   65.5960 C   0  0  0  0  0  0  0  0  0  0  0  0
  131.4950  125.3540   64.2800 C   0  0  0  0  0  0  0  0  0  0  0  0
  131.1220  124.2630   63.4740 C   0  0  0  0  0  0  0  0  0  0  0  0
  131.6680  124.1540   62.0120 C   0  0  1  0  0  0  0  0  0  0  0  0
  130.9020  125.0410   60.9840 C   0  0  0  0  0  0  0  0  0  0  0  0
  129.7700  125.8060   61.3210 C   0  0  0  0  0  0  0  0  0  0  0  0
  129.1200  126.5930   60.3700 C   0  0  0  0  0  0  0  0  0  0  0  0
  128.0300  127.3130   60.7200 F   0  0  0  0  0  0  0  0  0  0  0  0
  129.5870  126.6310   59.0580 C   0  0  0  0  0  0  0  0  0  0  0  0
  130.7000  125.8770   58.6970 C   0  0  0  0  0  0  0  0  0  0  0  0
  131.1500  125.9050   57.4230 F   0  0  0  0  0  0  0  0  0  0  0  0
  131.3480  125.0910   59.6490 C   0  0  0  0  0  0  0  0  0  0  0  0
  133.0390  124.7030   62.0390 N   0  0  0  0  0  0  0  0  0  0  0  0
  133.9850  123.8750   62.7720 C   0  0  0  0  0  0  0  0  0  0  0  0
  134.2210  122.6030   61.9590 C   0  0  0  0  0  0  0  0  0  0  0  0
  132.9160  121.9360   61.5310 C   0  0  0  0  0  0  0  0  0  0  0  0
  132.9640  120.5960   61.1400 C   0  0  0  0  0  0  0  0  0  0  0  0
  131.8330  119.9380   60.6910 C   0  0  0  0  0  0  0  0  0  0  0  0
  130.6320  120.6210   60.6270 C   0  0  0  0  0  0  0  0  0  0  0  0
  130.5350  121.9590   61.0220 C   0  0  0  0  0  0  0  0  0  0  0  0
  129.1780  122.5560   60.8810 C   0  0  0  0  0  0  0  0  0  0  0  0
  128.3190  122.6740   61.9800 C   0  0  0  0  0  0  0  0  0  0  0  0
  127.0440  123.2130   61.8220 C   0  0  0  0  0  0  0  0  0  0  0  0
  126.6170  123.6180   60.5600 C   0  0  0  0  0  0  0  0  0  0  0  0
  127.4500  123.4800   59.4540 C   0  0  0  0  0  0  0  0  0  0  0  0
  128.7250  122.9450   59.6150 C   0  0  0  0  0  0  0  0  0  0  0  0
  131.6850  122.6560   61.5040 C   0  0  0  0  0  0  0  0  0  0  0  0
  130.3260  123.2650   64.0650 C   0  0  0  0  0  0  0  0  0  0  0  0
  129.8780  123.3770   65.3820 C   0  0  0  0  0  0  0  0  0  0  0  0
  129.1000  122.3990   65.9000 F   0  0  0  0  0  0  0  0  0  0  0  0
  130.5909  124.3783   68.2734 H   0  0  0  0  0  0  0  0  0  0  0  0
  129.4466  125.6682   67.7702 H   0  0  0  0  0  0  0  0  0  0  0  0
  128.9204  123.9507   67.7702 H   0  0  0  0  0  0  0  0  0  0  0  0
  131.3521  126.3406   66.1987 H   0  0  0  0  0  0  0  0  0  0  0  0
  132.1495  126.1328   63.8616 H   0  0  0  0  0  0  0  0  0  0  0  0
  129.3907  125.7830   62.3533 H   0  0  0  0  0  0  0  0  0  0  0  0
  129.0775  127.2553   58.3092 H   0  0  0  0  0  0  0  0  0  0  0  0
  132.2253  124.4979   59.3514 H   0  0  0  0  0  0  0  0  0  0  0  0
  133.3580  124.7670   61.0840 H   0  0  0  0  0  0  0  0  0  0  0  0
  134.9334  124.4168   62.9027 H   0  0  0  0  0  0  0  0  0  0  0  0
  133.5872  123.6265   63.7670 H   0  0  0  0  0  0  0  0  0  0  0  0
  134.7978  122.8610   61.0586 H   0  0  0  0  0  0  0  0  0  0  0  0
  134.7671  121.8930   62.5975 H   0  0  0  0  0  0  0  0  0  0  0  0
  133.9196  120.0534   61.1901 H   0  0  0  0  0  0  0  0  0  0  0  0
  131.8883  118.8820   60.3879 H   0  0  0  0  0  0  0  0  0  0  0  0
  129.7354  120.1015   60.2581 H   0  0  0  0  0  0  0  0  0  0  0  0
  128.6524  122.3394   62.9734 H   0  0  0  0  0  0  0  0  0  0  0  0
  126.3774  123.3182   62.6906 H   0  0  0  0  0  0  0  0  0  0  0  0
  125.6132  124.0505   60.4364 H   0  0  0  0  0  0  0  0  0  0  0  0
  127.1029  123.7920   58.4579 H   0  0  0  0  0  0  0  0  0  0  0  0
  129.3817  122.8270   58.7404 H   0  0  0  0  0  0  0  0  0  0  0  0
  130.0508  122.3773   63.4765 H   0  0  0  0  0  0  0  0  0  0  0  0
  1  2  1  0
  2  3  2  0
  3  4  1  0
  4  5  2  0
  6  5  1  1
  6  7  1  0
  7  8  2  0
  8  9  1  0
  9 10  1  0
  9 11  2  0
 11 12  1  0
 12 13  1  0
 12 14  2  0
  6 15  1  0
 15 16  1  0
 16 17  1  0
 17 18  1  0
 18 19  2  0
 19 20  1  0
 20 21  2  0
 21 22  1  0
 22 23  1  0
 23 24  2  0
 24 25  1  0
 25 26  2  0
 26 27  1  0
 27 28  2  0
 22 29  2  0
  5 30  1  0
 30 31  2  0
 31 32  1  0
 31  2  1  0
 29  6  1  0
 14  7  1  0
 29 18  1  0
 28 23  1  0
  1 33  1  0
  1 34  1  0
  1 35  1  0
  3 36  1  0
  4 37  1  0
  8 38  1  0
 11 39  1  0
 14 40  1  0
 15 41  1  0
 16 42  1  0
 16 43  1  0
 17 44  1  0
 17 45  1  0
 19 46  1  0
 20 47  1  0
 21 48  1  0
 24 49  1  0
 25 50  1  0
 26 51  1  0
 27 52  1  0
 28 53  1  0
 30 54  1  0
M  END
>  <Binding energies>  (1) 
[-7.35]

>  <Ligand effiencies>  (1) 
[-0.22272727272727272]

>  <Interactions>  (1) 
["V-A:ILE:369:CG2:3237, V-B:PRO:540:CA:9855, V-A:GLY:454:CA:4049, V-B:GLU:543:C:9874, V-B:GLU:543:CB:9878, V-B:ALA:541:CB:9864, V-B:TYR:539:CE2:9848, V-A:TYR:484:CE2:4346, V-B:GLU:543:CG:9879, V-B:TYR:539:CZ:9849, V-A:TYR:484:CZ:4347, V-A:GLU:543:CD:4908, V-B:PRO:540:CB:9857, V-B:GLU:543:CA:9876, V-A:GLY:453:C:4042, V-A:TYR:484:CD2:4344, V-A:ILE:369:CD1:3239, V-A:HIS:456:CE1:4070, V-B:TYR:539:CD2:9846, V-A:SER:385:CB:3409, V-B:GLU:543:CD:9880, V-A:LEU:475:CD2:4259, H-A:ARG:545:NH2:4928, V-B:VAL:542:C:9866, H-A:ASP:366:OD1:3214, V-A:SER:385:CA:3407, V-B:PRO:540:C:9853"]

$$$$
ZINC962697115-again1
     RDKit          3D

 64 69  0  0  0  0  0  0  0  0999 V2000
  131.6030  125.2010   58.9640 O   0  0  0  0  0  0  0  0  0  0  0  0
  131.3430  125.2590   60.2120 C   0  0  0  0  0  0  0  0  0  0  0  0
  131.5230  124.1960   61.0980 N   0  0  0  0  0  0  0  0  0  0  0  0
  131.8360  122.8630   60.8060 C   0  0  0  0  0  0  0  0  0  0  0  0
  132.9880  122.5020   60.0980 C   0  0  0  0  0  0  0  0  0  0  0  0
  133.2310  121.1620   59.8050 C   0  0  0  0  0  0  0  0  0  0  0  0
  132.3260  120.1810   60.2070 C   0  0  0  0  0  0  0  0  0  0  0  0
  131.1560  120.5250   60.9020 C   0  0  0  0  0  0  0  0  0  0  0  0
  130.1880  119.4820   61.3220 N   0  0  0  0  0  0  0  0  0  0  0  0
  129.0610  119.8280   61.6660 O   0  0  0  0  0  0  0  0  0  0  0  0
  130.5480  118.3080   61.3140 O   0  0  0  0  0  0  0  0  0  0  0  0
  130.9220  121.8790   61.1910 C   0  0  0  0  0  0  0  0  0  0  0  0
  130.8570  126.4450   60.8550 C   0  0  0  0  0  0  0  0  0  0  0  0
  131.0190  127.7370   60.2420 C   0  0  0  0  0  0  0  0  0  0  0  0
  131.5500  127.8380   59.0850 O   0  0  0  0  0  0  0  0  0  0  0  0
  130.4970  128.9060   60.8200 N   0  0  2  0  0  0  0  0  0  0  0  0
  131.4990  130.0400   61.1630 C   0  0  0  0  0  0  0  0  0  0  0  0
  130.7450  131.3110   61.6650 C   0  0  0  0  0  0  0  0  0  0  0  0
  129.1950  131.2280   61.6080 C   0  0  0  0  0  0  0  0  0  0  0  0
  128.7600  129.9030   62.2270 C   0  0  0  0  0  0  0  0  0  0  0  0
  127.7280  129.7990   63.1590 C   0  0  0  0  0  0  0  0  0  0  0  0
  127.4390  128.5750   63.7530 C   0  0  0  0  0  0  0  0  0  0  0  0
  128.2130  127.4550   63.4570 C   0  0  0  0  0  0  0  0  0  0  0  0
  129.2870  127.5120   62.5490 C   0  0  0  0  0  0  0  0  0  0  0  0
  129.4770  128.7420   61.8930 C   0  0  0  0  0  0  0  0  0  0  0  0
  130.2440  126.3220   62.2870 C   0  0  2  0  0  0  0  0  0  0  0  0
  131.4170  126.5520   63.1530 N   0  0  0  0  0  0  0  0  0  0  0  0
  131.6420  125.8090   64.4010 C   0  0  2  0  0  0  0  0  0  0  0  0
  132.8880  124.8800   64.2110 C   0  0  0  0  0  0  0  0  0  0  0  0
  132.8340  123.9190   63.4080 O   0  0  0  0  0  0  0  0  0  0  0  0
  133.9000  125.1130   64.9170 O   0  0  0  0  0  0  0  0  0  0  0  0
  130.3710  125.1020   64.9310 C   0  0  0  0  0  0  0  0  0  0  0  0
  129.6420  124.3280   63.8340 C   0  0  0  0  0  0  0  0  0  0  0  0
  129.0310  123.0690   64.0510 C   0  0  0  0  0  0  0  0  0  0  0  0
  129.1070  122.3580   65.4090 C   0  0  0  0  0  0  0  0  0  0  0  0
  127.9620  121.7590   65.7450 F   0  0  0  0  0  0  0  0  0  0  0  0
  130.0540  121.4200   65.3840 F   0  0  0  0  0  0  0  0  0  0  0  0
  129.3890  123.2360   66.3720 F   0  0  0  0  0  0  0  0  0  0  0  0
  128.3090  122.4670   63.0150 C   0  0  0  0  0  0  0  0  0  0  0  0
  128.1600  123.1030   61.7930 C   0  0  0  0  0  0  0  0  0  0  0  0
  127.4320  122.5250   60.8110 F   0  0  0  0  0  0  0  0  0  0  0  0
  128.7560  124.3370   61.5850 C   0  0  0  0  0  0  0  0  0  0  0  0
  129.5360  124.9580   62.5710 C   0  0  0  0  0  0  0  0  0  0  0  0
  131.4180  124.4120   62.0790 H   0  0  0  0  0  0  0  0  0  0  0  0
  133.7002  123.2749   59.7735 H   0  0  0  0  0  0  0  0  0  0  0  0
  134.1399  120.8771   59.2547 H   0  0  0  0  0  0  0  0  0  0  0  0
  132.5311  119.1251   59.9769 H   0  0  0  0  0  0  0  0  0  0  0  0
  130.0067  122.1689   61.7278 H   0  0  0  0  0  0  0  0  0  0  0  0
  129.9890  129.3110   60.0470 H   0  0  0  0  0  0  0  0  0  0  0  0
  132.1827  129.6913   61.9510 H   0  0  0  0  0  0  0  0  0  0  0  0
  132.0629  130.2996   60.2549 H   0  0  0  0  0  0  0  0  0  0  0  0
  131.0377  131.4893   62.7102 H   0  0  0  0  0  0  0  0  0  0  0  0
  131.0317  132.1247   60.9825 H   0  0  0  0  0  0  0  0  0  0  0  0
  128.7573  132.0637   62.1737 H   0  0  0  0  0  0  0  0  0  0  0  0
  128.8516  131.2883   60.5647 H   0  0  0  0  0  0  0  0  0  0  0  0
  127.1396  130.6893   63.4257 H   0  0  0  0  0  0  0  0  0  0  0  0
  126.5983  128.4911   64.4574 H   0  0  0  0  0  0  0  0  0  0  0  0
  127.9780  126.4986   63.9470 H   0  0  0  0  0  0  0  0  0  0  0  0
  131.5770  127.5420   63.2770 H   0  0  0  0  0  0  0  0  0  0  0  0
  131.8728  126.5135   65.2136 H   0  0  0  0  0  0  0  0  0  0  0  0
  130.6616  124.4001   65.7266 H   0  0  0  0  0  0  0  0  0  0  0  0
  129.6872  125.8757   65.3102 H   0  0  0  0  0  0  0  0  0  0  0  0
  127.8545  121.4777   63.1722 H   0  0  0  0  0  0  0  0  0  0  0  0
  128.6131  124.8435   60.6191 H   0  0  0  0  0  0  0  0  0  0  0  0
  1  2  2  0
  2  3  1  0
  3  4  1  0
  4  5  2  0
  5  6  1  0
  6  7  2  0
  7  8  1  0
  8  9  1  0
  9 10  2  0
  9 11  1  0
  8 12  2  0
  2 13  1  0
 13 14  2  0
 14 15  1  0
 14 16  1  0
 16 17  1  0
 17 18  1  0
 18 19  1  0
 19 20  1  0
 20 21  2  0
 21 22  1  0
 22 23  2  0
 23 24  1  0
 24 25  2  0
 24 26  1  0
 26 27  1  1
 27 28  1  0
 28 29  1  0
 29 30  2  0
 29 31  1  0
 28 32  1  0
 32 33  1  0
 33 34  2  0
 34 35  1  0
 35 36  1  0
 35 37  1  0
 35 38  1  0
 34 39  1  0
 39 40  2  0
 40 41  1  0
 40 42  1  0
 42 43  2  0
 12  4  1  0
 26 13  1  0
 43 33  1  0
 25 16  1  0
 43 26  1  0
 25 20  1  0
  3 44  1  0
  5 45  1  0
  6 46  1  0
  7 47  1  0
 12 48  1  0
 16 49  1  6
 17 50  1  0
 17 51  1  0
 18 52  1  0
 18 53  1  0
 19 54  1  0
 19 55  1  0
 21 56  1  0
 22 57  1  0
 23 58  1  0
 27 59  1  0
 28 60  1  1
 32 61  1  0
 32 62  1  0
 39 63  1  0
 42 64  1  0
M  CHG  5   9   1  11  -1  15  -1  16   1  31  -1
M  END
>  <Binding energies>  (1) 
[-6.67]

>  <Ligand effiencies>  (1) 
[-0.145]

>  <Interactions>  (1) 
["V-A:ILE:369:CG2:3237, V-B:PRO:540:CA:9855, H-A:GLU:543:OE2:4910, V-B:GLU:543:CB:9878, V-B:ALA:541:CB:9864, H-A:TYR:531:OH:4795, H-A:ARG:545:NH1:4927, V-A:TYR:484:CE2:4346, V-A:LEU:475:CG:4257, V-B:TYR:539:CE2:9848, V-B:GLU:543:CG:9879, V-A:ASP:366:CG:3213, V-B:VAL:542:CA:9868, H-B:TYR:539:OH:9850, H-B:ALA:541:N:9863, V-A:LEU:475:CD1:4258, V-A:GLU:543:CD:4908, V-B:PRO:540:CB:9857, V-A:TYR:484:CZ:4347, V-B:GLU:543:CA:9876, H-A:GLY:454:N:4050, V-B:PRO:540:N:9856, V-A:TYR:484:CD2:4344, V-B:ALA:541:C:9860, V-B:TYR:539:CD2:9846, V-A:SER:385:CB:3409, H-A:SER:385:OG:3410, V-B:GLU:543:CD:9880, V-A:LEU:475:CD2:4259, H-A:ARG:545:NH2:4928, V-A:ARG:545:CZ:4926, H-A:GLU:543:OE1:4909, V-B:VAL:542:C:9866, H-A:HIS:383:HE2:3395, H-A:ARG:545:NE:4924, V-B:PRO:540:C:9853, V-B:ALA:541:CA:9862, H-A:TYR:484:OH:4348"]

$$$$
ZINC962700146
     RDKit          3D

 66 70  0  0  0  0  0  0  0  0999 V2000
  128.3790  131.4250   74.1680 C   0  0  0  0  0  0  0  0  0  0  0  0
  128.8620  130.3790   75.1900 C   0  0  0  0  0  0  0  0  0  0  0  0
  128.3370  129.0260   74.9620 N   0  0  0  0  0  0  0  0  0  0  0  0
  127.2430  128.6120   75.8510 C   0  0  0  0  0  0  0  0  0  0  0  0
  125.9990  129.5130   75.7620 C   0  0  0  0  0  0  0  0  0  0  0  0
  128.3230  128.4710   73.6520 C   0  0  0  0  0  0  0  0  0  0  0  0
  127.2110  127.7700   73.1480 C   0  0  0  0  0  0  0  0  0  0  0  0
  127.2160  127.2210   71.8650 C   0  0  0  0  0  0  0  0  0  0  0  0
  128.3420  127.3710   71.0570 C   0  0  0  0  0  0  0  0  0  0  0  0
  128.4370  126.8150   69.7090 C   0  0  0  0  0  0  0  0  0  0  0  0
  129.5490  126.9380   68.9470 C   0  0  0  0  0  0  0  0  0  0  0  0
  129.5910  126.3970   67.5650 C   0  0  0  0  0  0  0  0  0  0  0  0
  130.1880  125.1590   67.3050 C   0  0  0  0  0  0  0  0  0  0  0  0
  130.2470  124.6580   66.0090 C   0  0  0  0  0  0  0  0  0  0  0  0
  129.7190  125.3870   64.9330 C   0  0  0  0  0  0  0  0  0  0  0  0
  129.7700  124.8440   63.4820 C   0  0  2  0  0  0  0  0  0  0  0  0
  128.8050  123.7250   63.3830 C   0  0  0  0  0  0  0  0  0  0  0  0
  128.0480  122.8500   63.3050 N   0  0  0  0  0  0  0  0  0  0  0  0
  131.0760  124.2480   63.2010 N   0  0  0  0  0  0  0  0  0  0  0  0
  132.1030  125.2670   62.9650 C   0  0  1  0  0  0  0  0  0  0  0  0
  133.5310  124.6420   62.8930 C   0  0  0  0  0  0  0  0  0  0  0  0
  133.7850  123.9720   61.8650 O   0  0  0  0  0  0  0  0  0  0  0  0
  134.3490  124.7920   63.8330 O   0  0  0  0  0  0  0  0  0  0  0  0
  131.7740  125.9880   61.6350 C   0  0  0  0  0  0  0  0  0  0  0  0
  130.3240  126.4880   61.5640 C   0  0  0  0  0  0  0  0  0  0  0  0
  129.9220  127.4940   60.6530 C   0  0  0  0  0  0  0  0  0  0  0  0
  130.9220  128.1520   59.6890 C   0  0  0  0  0  0  0  0  0  0  0  0
  131.9520  127.3560   59.3940 F   0  0  0  0  0  0  0  0  0  0  0  0
  130.3080  128.4560   58.5440 F   0  0  0  0  0  0  0  0  0  0  0  0
  131.4240  129.2660   60.2210 F   0  0  0  0  0  0  0  0  0  0  0  0
  128.5810  127.8960   60.6090 C   0  0  0  0  0  0  0  0  0  0  0  0
  127.6400  127.3190   61.4480 C   0  0  0  0  0  0  0  0  0  0  0  0
  126.3490  127.7170   61.3960 F   0  0  0  0  0  0  0  0  0  0  0  0
  128.0310  126.3350   62.3430 C   0  0  0  0  0  0  0  0  0  0  0  0
  129.3620  125.9050   62.4270 C   0  0  0  0  0  0  0  0  0  0  0  0
  129.1190  126.6260   65.1980 C   0  0  0  0  0  0  0  0  0  0  0  0
  129.0610  127.1270   66.4950 C   0  0  0  0  0  0  0  0  0  0  0  0
  130.7020  127.7230   69.4710 C   0  0  0  0  0  0  0  0  0  0  0  0
  131.7610  127.9750   68.8980 O   0  0  0  0  0  0  0  0  0  0  0  0
  130.5890  128.2480   70.7560 O   0  0  0  0  0  0  0  0  0  0  0  0
  129.4520  128.0690   71.5320 C   0  0  0  0  0  0  0  0  0  0  0  0
  129.4450  128.6140   72.8160 C   0  0  0  0  0  0  0  0  0  0  0  0
  127.9755  132.2988   74.7005 H   0  0  0  0  0  0  0  0  0  0  0  0
  129.2237  131.7382   73.5368 H   0  0  0  0  0  0  0  0  0  0  0  0
  127.5929  130.9851   73.5368 H   0  0  0  0  0  0  0  0  0  0  0  0
  129.9602  130.3348   75.1453 H   0  0  0  0  0  0  0  0  0  0  0  0
  128.4876  130.7015   76.1728 H   0  0  0  0  0  0  0  0  0  0  0  0
  126.9485  127.5861   75.5848 H   0  0  0  0  0  0  0  0  0  0  0  0
  127.6206  128.6863   76.8815 H   0  0  0  0  0  0  0  0  0  0  0  0
  125.6540  129.7629   76.7761 H   0  0  0  0  0  0  0  0  0  0  0  0
  126.2537  130.4375   75.2231 H   0  0  0  0  0  0  0  0  0  0  0  0
  125.2000  128.9827   75.2231 H   0  0  0  0  0  0  0  0  0  0  0  0
  126.3182  127.6524   73.7797 H   0  0  0  0  0  0  0  0  0  0  0  0
  126.3372  126.6735   71.4937 H   0  0  0  0  0  0  0  0  0  0  0  0
  127.5712  126.2755   69.2975 H   0  0  0  0  0  0  0  0  0  0  0  0
  130.6152  124.5758   68.1341 H   0  0  0  0  0  0  0  0  0  0  0  0
  130.7131  123.6787   65.8255 H   0  0  0  0  0  0  0  0  0  0  0  0
  131.0110  123.6760   62.3710 H   0  0  0  0  0  0  0  0  0  0  0  0
  132.1007  125.9777   63.8046 H   0  0  0  0  0  0  0  0  0  0  0  0
  132.4476  126.8511   61.5287 H   0  0  0  0  0  0  0  0  0  0  0  0
  131.9094  125.2577   60.8236 H   0  0  0  0  0  0  0  0  0  0  0  0
  128.2709  128.6784   59.9007 H   0  0  0  0  0  0  0  0  0  0  0  0
  127.2778  125.8806   63.0035 H   0  0  0  0  0  0  0  0  0  0  0  0
  128.6888  127.2093   64.3706 H   0  0  0  0  0  0  0  0  0  0  0  0
  128.5944  128.1056   66.6809 H   0  0  0  0  0  0  0  0  0  0  0  0
  130.3271  129.1619   73.1789 H   0  0  0  0  0  0  0  0  0  0  0  0
  1  2  1  0
  2  3  1  0
  3  4  1  0
  4  5  1  0
  3  6  1  0
  6  7  2  0
  7  8  1  0
  8  9  2  0
  9 10  1  0
 10 11  2  0
 11 12  1  0
 12 13  2  0
 13 14  1  0
 14 15  2  0
 15 16  1  0
 16 17  1  1
 17 18  3  0
 16 19  1  0
 19 20  1  0
 20 21  1  0
 21 22  2  0
 21 23  1  0
 20 24  1  0
 24 25  1  0
 25 26  2  0
 26 27  1  0
 27 28  1  0
 27 29  1  0
 27 30  1  0
 26 31  1  0
 31 32  2  0
 32 33  1  0
 32 34  1  0
 34 35  2  0
 15 36  1  0
 36 37  2  0
 11 38  1  0
 38 39  2  0
 38 40  1  0
 40 41  1  0
 41 42  2  0
 42  6  1  0
 41  9  1  0
 37 12  1  0
 35 16  1  0
 35 25  1  0
  1 43  1  0
  1 44  1  0
  1 45  1  0
  2 46  1  0
  2 47  1  0
  4 48  1  0
  4 49  1  0
  5 50  1  0
  5 51  1  0
  5 52  1  0
  7 53  1  0
  8 54  1  0
 10 55  1  0
 13 56  1  0
 14 57  1  0
 19 58  1  0
 20 59  1  1
 24 60  1  0
 24 61  1  0
 31 62  1  0
 34 63  1  0
 36 64  1  0
 37 65  1  0
 42 66  1  0
M  CHG  1  23  -1
M  END
>  <Binding energies>  (1) 
[-7.26]

>  <Ligand effiencies>  (1) 
[-0.16883720930232557]

>  <Interactions>  (1) 
["V-B:HIS:456:CD2:9039, V-B:GLU:543:C:9874, V-A:GLU:543:C:4902, V-B:GLU:543:CB:9878, V-B:HIS:456:CB:9036, V-B:ASP:366:CG:8184, H-A:ARG:545:NH1:4927, V-A:TYR:484:CE2:4346, V-B:GLU:543:CG:9879, V-A:ASP:366:CG:3213, H-A:ARG:545:N:4920, V-B:LYS:547:CE:9922, H-B:ALA:541:N:9863, V-A:TYR:484:CZ:4347, V-A:GLU:543:CD:4908, V-B:HIS:456:CE1:9041, H-A:GLY:454:N:4050, V-A:HIS:456:CE1:4070, V-B:GLY:544:C:9884, V-B:GLY:544:CA:9886, V-B:GLU:543:CD:9880, V-B:HIS:456:CG:9037, V-A:ASP:366:CB:3212, H-A:ARG:545:NH2:4928, V-A:ARG:545:CZ:4926, V-A:GLU:543:CB:4906, V-A:LYS:547:CE:4950, H-A:ARG:545:NE:4924"]

$$$$
ZINC962711893
     RDKit          3D

 85 91  0  0  0  0  0  0  0  0999 V2000
  127.7890  122.8980   56.6820 C   0  0  0  0  0  0  0  0  0  0  0  0
  128.5090  123.3980   57.8040 O   0  0  0  0  0  0  0  0  0  0  0  0
  128.5080  124.7560   58.0680 C   0  0  0  0  0  0  0  0  0  0  0  0
  129.6130  125.5880   57.8430 C   0  0  0  0  0  0  0  0  0  0  0  0
  129.5610  126.9470   58.1240 C   0  0  0  0  0  0  0  0  0  0  0  0
  128.3830  127.5270   58.6480 C   0  0  0  0  0  0  0  0  0  0  0  0
  128.3140  128.9130   58.9340 C   0  0  0  0  0  0  0  0  0  0  0  0
  127.1470  129.4960   59.4470 C   0  0  0  0  0  0  0  0  0  0  0  0
  127.0260  131.0300   59.7400 C   0  0  2  0  0  0  0  0  0  0  0  0
  125.6190  131.5850   59.3410 C   0  0  0  0  0  0  0  0  0  0  0  0
  127.9900  131.7450   58.7400 C   0  0  0  0  0  0  0  0  0  0  0  0
  127.9910  131.4110   57.3700 C   0  0  0  0  0  0  0  0  0  0  0  0
  128.8640  132.0040   56.4630 C   0  0  0  0  0  0  0  0  0  0  0  0
  129.7740  132.9530   56.9050 C   0  0  0  0  0  0  0  0  0  0  0  0
  129.7970  133.3050   58.2500 C   0  0  0  0  0  0  0  0  0  0  0  0
  128.9150  132.7170   59.1660 C   0  0  0  0  0  0  0  0  0  0  0  0
  128.9330  133.1210   60.6180 C   0  0  0  0  0  0  0  0  0  0  0  0
  128.7110  131.8940   61.5310 C   0  0  1  0  0  0  0  0  0  0  0  0
  128.9470  132.3470   63.0130 C   0  0  0  0  0  0  0  0  0  0  0  0
  130.1320  132.5490   63.3610 O   0  0  0  0  0  0  0  0  0  0  0  0
  127.9570  132.4880   63.7700 O   0  0  0  0  0  0  0  0  0  0  0  0
  127.3480  131.3510   61.1960 N   0  0  0  0  0  0  0  0  0  0  0  0
  126.6960  130.5940   62.1380 C   0  0  0  0  0  0  0  0  0  0  0  0
  125.5390  130.8680   62.4790 O   0  0  0  0  0  0  0  0  0  0  0  0
  127.3890  129.5640   62.6930 N   0  0  0  0  0  0  0  0  0  0  0  0
  128.2000  128.6910   61.8160 C   0  0  0  0  0  0  0  0  0  0  0  0
  129.2800  127.9720   62.6570 C   0  0  0  0  0  0  0  0  0  0  0  0
  128.7200  127.2900   63.8340 N   0  0  0  0  0  0  0  0  0  0  0  0
  129.7600  126.5280   64.5710 C   0  0  0  0  0  0  0  0  0  0  0  0
  129.9380  125.0880   64.0630 C   0  0  0  0  0  0  0  0  0  0  0  0
  128.8380  124.4160   63.5170 C   0  0  0  0  0  0  0  0  0  0  0  0
  128.9750  123.1100   63.0560 C   0  0  0  0  0  0  0  0  0  0  0  0
  130.2100  122.4730   63.1400 C   0  0  0  0  0  0  0  0  0  0  0  0
  130.3420  121.2040   62.6910 F   0  0  0  0  0  0  0  0  0  0  0  0
  131.3110  123.1310   63.6820 C   0  0  0  0  0  0  0  0  0  0  0  0
  131.1760  124.4380   64.1430 C   0  0  0  0  0  0  0  0  0  0  0  0
  129.5310  126.4870   66.0900 C   0  0  0  0  0  0  0  0  0  0  0  0
  129.4810  125.2490   66.7380 C   0  0  0  0  0  0  0  0  0  0  0  0
  129.2820  125.1870   68.1150 C   0  0  0  0  0  0  0  0  0  0  0  0
  129.1330  126.3640   68.8460 C   0  0  0  0  0  0  0  0  0  0  0  0
  128.9400  126.3040   70.1830 F   0  0  0  0  0  0  0  0  0  0  0  0
  129.1820  127.6030   68.2100 C   0  0  0  0  0  0  0  0  0  0  0  0
  129.3810  127.6650   66.8330 C   0  0  0  0  0  0  0  0  0  0  0  0
  128.0750  128.3020   64.6860 C   0  0  0  0  0  0  0  0  0  0  0  0
  126.9030  129.0070   63.9690 C   0  0  0  0  0  0  0  0  0  0  0  0
  126.0430  128.6700   59.6790 C   0  0  0  0  0  0  0  0  0  0  0  0
  126.0780  127.3060   59.4120 C   0  0  0  0  0  0  0  0  0  0  0  0
  127.2470  126.6980   58.8870 C   0  0  0  0  0  0  0  0  0  0  0  0
  127.3290  125.3040   58.5880 C   0  0  0  0  0  0  0  0  0  0  0  0
  125.8310  124.1530   58.8880 Br  0  0  0  0  0  0  0  0  0  0  0  0
  126.9323  122.3031   57.0316 H   0  0  0  0  0  0  0  0  0  0  0  0
  127.4269  123.7400   56.0738 H   0  0  0  0  0  0  0  0  0  0  0  0
  128.4515  122.2646   56.0738 H   0  0  0  0  0  0  0  0  0  0  0  0
  130.5393  125.1563   57.4360 H   0  0  0  0  0  0  0  0  0  0  0  0
  130.4432  127.5770   57.9374 H   0  0  0  0  0  0  0  0  0  0  0  0
  129.1951  129.5451   58.7495 H   0  0  0  0  0  0  0  0  0  0  0  0
  125.0431  131.8122   60.2503 H   0  0  0  0  0  0  0  0  0  0  0  0
  125.7418  132.5021   58.7461 H   0  0  0  0  0  0  0  0  0  0  0  0
  125.0827  130.8311   58.7461 H   0  0  0  0  0  0  0  0  0  0  0  0
  127.2779  130.6566   57.0062 H   0  0  0  0  0  0  0  0  0  0  0  0
  128.8326  131.7215   55.4004 H   0  0  0  0  0  0  0  0  0  0  0  0
  130.4721  133.4235   56.1970 H   0  0  0  0  0  0  0  0  0  0  0  0
  130.5192  134.0571   58.6004 H   0  0  0  0  0  0  0  0  0  0  0  0
  129.9067  133.5749   60.8541 H   0  0  0  0  0  0  0  0  0  0  0  0
  128.1218  133.8429   60.7935 H   0  0  0  0  0  0  0  0  0  0  0  0
  129.4150  131.0626   61.3790 H   0  0  0  0  0  0  0  0  0  0  0  0
  127.5486  127.9433   61.3400 H   0  0  0  0  0  0  0  0  0  0  0  0
  128.6864  129.3016   61.0411 H   0  0  0  0  0  0  0  0  0  0  0  0
  129.7812  127.2259   62.0229 H   0  0  0  0  0  0  0  0  0  0  0  0
  129.9839  128.7361   63.0185 H   0  0  0  0  0  0  0  0  0  0  0  0
  130.6813  127.0935   64.3678 H   0  0  0  0  0  0  0  0  0  0  0  0
  127.8631  124.9214   63.4522 H   0  0  0  0  0  0  0  0  0  0  0  0
  128.1103  122.5828   62.6267 H   0  0  0  0  0  0  0  0  0  0  0  0
  132.2833  122.6205   63.7457 H   0  0  0  0  0  0  0  0  0  0  0  0
  132.0438  124.9612   64.5710 H   0  0  0  0  0  0  0  0  0  0  0  0
  129.5992  124.3215   66.1586 H   0  0  0  0  0  0  0  0  0  0  0  0
  129.2426  124.2125   68.6237 H   0  0  0  0  0  0  0  0  0  0  0  0
  129.0640  128.5282   68.7932 H   0  0  0  0  0  0  0  0  0  0  0  0
  129.4205  128.6413   66.3277 H   0  0  0  0  0  0  0  0  0  0  0  0
  127.6915  127.8100   65.5920 H   0  0  0  0  0  0  0  0  0  0  0  0
  128.8279  129.0650   64.9330 H   0  0  0  0  0  0  0  0  0  0  0  0
  126.0999  128.2813   63.7730 H   0  0  0  0  0  0  0  0  0  0  0  0
  126.5106  129.8156   64.6031 H   0  0  0  0  0  0  0  0  0  0  0  0
  125.1207  129.1118   60.0842 H   0  0  0  0  0  0  0  0  0  0  0  0
  125.1880  126.6907   59.6104 H   0  0  0  0  0  0  0  0  0  0  0  0
  1  2  1  0
  2  3  1  0
  3  4  2  0
  4  5  1  0
  5  6  2  0
  6  7  1  0
  7  8  2  0
  8  9  1  0
  9 10  1  6
  9 11  1  0
 11 12  2  0
 12 13  1  0
 13 14  2  0
 14 15  1  0
 15 16  2  0
 16 17  1  0
 17 18  1  0
 18 19  1  0
 19 20  2  0
 19 21  1  0
 18 22  1  0
 22 23  1  0
 23 24  2  0
 23 25  1  0
 25 26  1  0
 26 27  1  0
 27 28  1  0
 28 29  1  0
 29 30  1  0
 30 31  2  0
 31 32  1  0
 32 33  2  0
 33 34  1  0
 33 35  1  0
 35 36  2  0
 29 37  1  0
 37 38  2  0
 38 39  1  0
 39 40  2  0
 40 41  1  0
 40 42  1  0
 42 43  2  0
 28 44  1  0
 44 45  1  0
  8 46  1  0
 46 47  2  0
 47 48  1  0
 48 49  2  0
 49 50  1  0
 49  3  1  0
 48  6  1  0
 22  9  1  0
 45 25  1  0
 16 11  1  0
 36 30  1  0
 43 37  1  0
  1 51  1  0
  1 52  1  0
  1 53  1  0
  4 54  1  0
  5 55  1  0
  7 56  1  0
 10 57  1  0
 10 58  1  0
 10 59  1  0
 12 60  1  0
 13 61  1  0
 14 62  1  0
 15 63  1  0
 17 64  1  0
 17 65  1  0
 18 66  1  6
 26 67  1  0
 26 68  1  0
 27 69  1  0
 27 70  1  0
 29 71  1  0
 31 72  1  0
 32 73  1  0
 35 74  1  0
 36 75  1  0
 38 76  1  0
 39 77  1  0
 42 78  1  0
 43 79  1  0
 44 80  1  0
 44 81  1  0
 45 82  1  0
 45 83  1  0
 46 84  1  0
 47 85  1  0
M  CHG  1  21  -1
M  END
>  <Binding energies>  (1) 
[-7.72]

>  <Ligand effiencies>  (1) 
[-0.15439999999999998]

>  <Interactions>  (1) 
["V-B:PRO:540:CA:9855, V-B:GLU:543:C:9874, H-A:ALA:541:N:4891, V-B:GLU:543:CB:9878, V-B:ASP:366:CG:8184, V-B:ALA:541:CB:9864, V-B:TYR:539:CE2:9848, V-A:TYR:484:CE2:4346, V-A:LEU:475:CG:4257, V-B:GLU:543:CG:9879, V-A:TYR:539:CE1:4875, V-A:TYR:539:CD1:4873, V-B:TYR:539:CZ:9849, V-A:ILE:538:CA:4860, H-B:TYR:539:OH:9850, V-A:ALA:541:CB:4892, V-A:TYR:539:CA:4869, V-B:ASP:366:CB:8183, V-B:PRO:540:CB:9857, V-A:GLU:543:CD:4908, H-B:TYR:484:OH:9319, V-B:GLU:543:CA:9876, V-A:HIS:456:CE1:4070, V-B:TYR:539:CD2:9846, V-A:GLU:543:CG:4907, V-A:MET:535:CE:4835, V-B:GLU:543:CD:9880, V-A:TYR:539:C:4867, V-A:LEU:475:CD2:4259, V-B:TYR:539:CG:9844, V-A:GLU:543:CB:4906, V-B:TYR:539:CD1:9845, V-A:PRO:540:N:4884, V-A:PRO:540:CB:4885, V-A:PRO:540:CA:4883, V-A:PRO:540:CD:4887, V-B:TYR:539:CE1:9847"]

$$$$
ZINC962713172
     RDKit          3D

 48 51  0  0  0  0  0  0  0  0999 V2000
  127.5750  126.1010   60.9630 C   0  0  0  0  0  0  0  0  0  0  0  0
  128.6610  124.9900   60.8160 C   0  0  1  0  0  0  0  0  0  0  0  0
  129.8210  125.4120   59.8690 C   0  0  0  0  0  0  0  0  0  0  0  0
  129.7250  126.4940   58.9770 C   0  0  0  0  0  0  0  0  0  0  0  0
  130.7910  126.8310   58.1450 C   0  0  0  0  0  0  0  0  0  0  0  0
  131.9730  126.0950   58.1820 C   0  0  0  0  0  0  0  0  0  0  0  0
  132.9970  126.4440   57.3700 F   0  0  0  0  0  0  0  0  0  0  0  0
  132.0880  125.0110   59.0570 C   0  0  0  0  0  0  0  0  0  0  0  0
  133.6020  124.0550   59.1270 S   0  0  0  0  0  0  0  0  0  0  0  0
  133.9670  123.6030   57.7790 O   0  0  0  0  0  0  0  0  0  0  0  0
  134.5560  124.7220   60.0200 O   0  0  0  0  0  0  0  0  0  0  0  0
  132.9550  122.3000   60.1660 Cl  0  0  0  0  0  0  0  0  0  0  0  0
  131.0190  124.6820   59.8930 C   0  0  0  0  0  0  0  0  0  0  0  0
  129.2820  124.7900   62.2300 C   0  0  0  0  0  0  0  0  0  0  0  0
  130.0460  125.8110   62.8270 C   0  0  0  0  0  0  0  0  0  0  0  0
  130.5800  125.6790   64.1040 C   0  0  0  0  0  0  0  0  0  0  0  0
  130.3580  124.5150   64.8250 C   0  0  0  0  0  0  0  0  0  0  0  0
  129.6080  123.4870   64.2640 C   0  0  0  0  0  0  0  0  0  0  0  0
  129.4090  122.3560   64.9820 F   0  0  0  0  0  0  0  0  0  0  0  0
  129.0720  123.6040   62.9740 C   0  0  0  0  0  0  0  0  0  0  0  0
  128.2760  122.4570   62.3680 C   0  0  0  0  0  0  0  0  0  0  0  0
  127.3140  122.9390   61.2760 C   0  0  0  0  0  0  0  0  0  0  0  0
  128.0460  123.7380   60.2900 N   0  0  0  0  0  0  0  0  0  0  0  0
  127.4350  123.8030   58.9420 C   0  0  2  0  0  0  0  0  0  0  0  0
  125.8920  123.9120   58.8870 C   0  0  0  0  0  0  0  0  0  0  0  0
  125.4770  123.7020   57.4250 C   0  0  0  0  0  0  0  0  0  0  0  0
  126.6500  122.5160   56.7200 S   0  0  0  0  0  0  0  0  0  0  0  0
  127.8170  122.5750   58.1010 C   0  0  0  0  0  0  0  0  0  0  0  0
  127.3881  126.2922   62.0300 H   0  0  0  0  0  0  0  0  0  0  0  0
  127.9280  127.0248   60.4813 H   0  0  0  0  0  0  0  0  0  0  0  0
  126.6434  125.7692   60.4813 H   0  0  0  0  0  0  0  0  0  0  0  0
  128.7965  127.0823   58.9351 H   0  0  0  0  0  0  0  0  0  0  0  0
  130.6985  127.6829   57.4553 H   0  0  0  0  0  0  0  0  0  0  0  0
  131.1182  123.8327   60.5849 H   0  0  0  0  0  0  0  0  0  0  0  0
  130.2257  126.7404   62.2667 H   0  0  0  0  0  0  0  0  0  0  0  0
  131.1759  126.4941   64.5406 H   0  0  0  0  0  0  0  0  0  0  0  0
  130.7739  124.4054   65.8374 H   0  0  0  0  0  0  0  0  0  0  0  0
  128.9767  121.7315   61.9290 H   0  0  0  0  0  0  0  0  0  0  0  0
  127.6779  121.9982   63.1691 H   0  0  0  0  0  0  0  0  0  0  0  0
  126.8609  122.0691   60.7779 H   0  0  0  0  0  0  0  0  0  0  0  0
  126.5256  123.5561   61.7317 H   0  0  0  0  0  0  0  0  0  0  0  0
  127.8438  124.7434   58.5439 H   0  0  0  0  0  0  0  0  0  0  0  0
  125.4362  123.1392   59.5234 H   0  0  0  0  0  0  0  0  0  0  0  0
  125.5555  124.8934   59.2525 H   0  0  0  0  0  0  0  0  0  0  0  0
  124.4543  123.3001   57.3747 H   0  0  0  0  0  0  0  0  0  0  0  0
  125.4894  124.6509   56.8687 H   0  0  0  0  0  0  0  0  0  0  0  0
  127.7365  121.6599   58.7061 H   0  0  0  0  0  0  0  0  0  0  0  0
  128.8546  122.6451   57.7426 H   0  0  0  0  0  0  0  0  0  0  0  0
  2  1  1  1
  2  3  1  0
  3  4  2  0
  4  5  1  0
  5  6  2  0
  6  7  1  0
  6  8  1  0
  8  9  1  0
  9 10  2  0
  9 11  2  0
  9 12  1  0
  8 13  2  0
  2 14  1  0
 14 15  2  0
 15 16  1  0
 16 17  2  0
 17 18  1  0
 18 19  1  0
 18 20  2  0
 20 21  1  0
 21 22  1  0
 22 23  1  0
 23 24  1  0
 24 25  1  0
 25 26  1  0
 26 27  1  0
 27 28  1  0
 23  2  1  0
 28 24  1  0
 13  3  1  0
 20 14  1  0
  1 29  1  0
  1 30  1  0
  1 31  1  0
  4 32  1  0
  5 33  1  0
 13 34  1  0
 15 35  1  0
 16 36  1  0
 17 37  1  0
 21 38  1  0
 21 39  1  0
 22 40  1  0
 22 41  1  0
 24 42  1  6
 25 43  1  0
 25 44  1  0
 26 45  1  0
 26 46  1  0
 28 47  1  0
 28 48  1  0
M  END
>  <Binding energies>  (1) 
[-8.32]

>  <Ligand effiencies>  (1) 
[-0.29714285714285715]

>  <Interactions>  (1) 
["V-A:ILE:369:CG2:3237, V-A:ASP:366:CA:3210, V-B:PRO:540:CA:9855, V-A:ILE:369:CB:3236, V-B:ALA:541:CB:9864, V-B:TYR:539:CE2:9848, V-A:TYR:484:CE2:4346, H-B:TYR:539:N:9842, V-B:GLU:543:CG:9879, V-B:TYR:539:C:9839, V-A:ASP:366:CG:3213, V-B:TYR:539:CZ:9849, H-A:ASN:370:N:3244, V-A:TYR:531:CE2:4793, H-B:TYR:539:OH:9850, V-A:GLU:543:CD:4908, V-B:PRO:540:CB:9857, V-B:PRO:540:N:9856, V-A:ASP:366:C:3208, V-B:TYR:539:CD2:9846, V-A:TYR:531:CZ:4794, V-B:GLU:543:CD:9880, V-A:ASP:366:CB:3212, V-A:LEU:475:CD2:4259, V-B:TYR:539:CG:9844, V-B:LEU:363:CD1:8160, V-B:PRO:540:C:9853, V-B:ALA:541:CA:9862"]

$$$$
ZINC962713545
     RDKit          3D

 44 46  0  0  0  0  0  0  0  0999 V2000
  133.9780  121.7130   62.4170 C   0  0  0  0  0  0  0  0  0  0  0  0
  133.3610  122.5220   63.4070 O   0  0  0  0  0  0  0  0  0  0  0  0
  133.1840  123.8570   63.2040 C   0  0  0  0  0  0  0  0  0  0  0  0
  133.9950  124.7240   63.5460 O   0  0  0  0  0  0  0  0  0  0  0  0
  131.8490  124.2020   62.4470 C   0  0  2  0  0  0  0  0  0  0  0  0
  130.8500  122.9590   62.4560 C   0  0  1  0  0  0  0  0  0  0  0  0
  130.4710  122.4180   63.8490 C   0  0  0  0  0  0  0  0  0  0  0  0
  129.1110  123.2450   61.4990 Br  0  0  0  0  0  0  0  0  0  0  0  0
  132.2740  124.5760   60.9810 C   0  0  0  0  0  0  0  0  0  0  0  0
  133.0070  123.6880   60.1660 C   0  0  0  0  0  0  0  0  0  0  0  0
  133.3170  123.9730   58.8400 C   0  0  0  0  0  0  0  0  0  0  0  0
  132.9100  125.1750   58.2850 C   0  0  0  0  0  0  0  0  0  0  0  0
  132.2270  126.0980   59.0680 C   0  0  0  0  0  0  0  0  0  0  0  0
  131.8780  127.2850   58.5200 F   0  0  0  0  0  0  0  0  0  0  0  0
  131.9240  125.8240   60.4110 C   0  0  0  0  0  0  0  0  0  0  0  0
  131.2710  126.9000   61.2630 C   0  0  0  0  0  0  0  0  0  0  0  0
  130.4820  126.3230   62.4330 C   0  0  0  0  0  0  0  0  0  0  0  0
  131.2910  125.3700   63.2010 N   0  0  0  0  0  0  0  0  0  0  0  0
  130.8670  125.1780   64.6110 C   0  0  2  0  0  0  0  0  0  0  0  0
  129.6590  126.0210   65.0820 C   0  0  0  0  0  0  0  0  0  0  0  0
  129.5670  125.8720   66.6040 C   0  0  0  0  0  0  0  0  0  0  0  0
  131.2660  125.7250   67.2130 S   0  0  0  0  0  0  0  0  0  0  0  0
  132.0190  125.4670   65.5890 C   0  0  0  0  0  0  0  0  0  0  0  0
  134.5760  120.9290   62.9046 H   0  0  0  0  0  0  0  0  0  0  0  0
  133.2039  121.2469   61.7896 H   0  0  0  0  0  0  0  0  0  0  0  0
  134.6322  122.3362   61.7896 H   0  0  0  0  0  0  0  0  0  0  0  0
  131.4722  122.2286   61.9180 H   0  0  0  0  0  0  0  0  0  0  0  0
  130.9185  123.0568   64.6247 H   0  0  0  0  0  0  0  0  0  0  0  0
  129.3764  122.4209   63.9581 H   0  0  0  0  0  0  0  0  0  0  0  0
  130.8476  121.3903   63.9581 H   0  0  0  0  0  0  0  0  0  0  0  0
  133.3464  122.7338   60.5953 H   0  0  0  0  0  0  0  0  0  0  0  0
  133.8821  123.2479   58.2359 H   0  0  0  0  0  0  0  0  0  0  0  0
  133.1263  125.3979   57.2298 H   0  0  0  0  0  0  0  0  0  0  0  0
  132.0563  127.5605   61.6593 H   0  0  0  0  0  0  0  0  0  0  0  0
  130.5643  127.4486   60.6229 H   0  0  0  0  0  0  0  0  0  0  0  0
  130.1704  127.1442   63.0952 H   0  0  0  0  0  0  0  0  0  0  0  0
  129.6052  125.7924   62.0334 H   0  0  0  0  0  0  0  0  0  0  0  0
  130.5571  124.1226   64.6225 H   0  0  0  0  0  0  0  0  0  0  0  0
  129.8101  127.0775   64.8154 H   0  0  0  0  0  0  0  0  0  0  0  0
  128.7319  125.6775   64.5998 H   0  0  0  0  0  0  0  0  0  0  0  0
  129.0815  126.7559   67.0432 H   0  0  0  0  0  0  0  0  0  0  0  0
  128.9687  124.9915   66.8810 H   0  0  0  0  0  0  0  0  0  0  0  0
  132.5650  126.3692   65.2762 H   0  0  0  0  0  0  0  0  0  0  0  0
  132.7374  124.6344   65.6127 H   0  0  0  0  0  0  0  0  0  0  0  0
  1  2  1  0
  2  3  1  0
  3  4  2  0
  5  3  1  1
  5  6  1  0
  6  7  1  0
  6  8  1  0
  5  9  1  0
  9 10  2  0
 10 11  1  0
 11 12  2  0
 12 13  1  0
 13 14  1  0
 13 15  2  0
 15 16  1  0
 16 17  1  0
 17 18  1  0
 18 19  1  0
 19 20  1  0
 20 21  1  0
 21 22  1  0
 22 23  1  0
 18  5  1  0
 23 19  1  0
 15  9  1  0
  1 24  1  0
  1 25  1  0
  1 26  1  0
  6 27  1  6
  7 28  1  0
  7 29  1  0
  7 30  1  0
 10 31  1  0
 11 32  1  0
 12 33  1  0
 16 34  1  0
 16 35  1  0
 17 36  1  0
 17 37  1  0
 19 38  1  6
 20 39  1  0
 20 40  1  0
 21 41  1  0
 21 42  1  0
 23 43  1  0
 23 44  1  0
M  END
>  <Binding energies>  (1) 
[-5.85]

>  <Ligand effiencies>  (1) 
[-0.2543478260869565]

>  <Interactions>  (1) 
["V-A:ILE:369:CG2:3237, V-A:ASP:366:CA:3210, V-A:GLY:454:CA:4049, V-A:ILE:369:CB:3236, V-B:GLU:543:CB:9878, V-B:ALA:541:CB:9864, H-A:ARG:545:NH1:4927, V-B:TYR:539:CE2:9848, V-B:GLU:543:CG:9879, V-A:ASP:366:CG:3213, V-B:TYR:539:CZ:9849, V-A:GLU:543:CD:4908, H-A:GLY:454:N:4050, V-A:SER:385:C:3405, V-A:ILE:369:CD1:3239, V-A:ASP:366:C:3208, V-B:GLU:543:CD:9880, V-A:ASP:366:CB:3212, V-A:LEU:475:CD2:4259, H-A:ARG:545:NH2:4928, V-A:ARG:545:CZ:4926, H-A:TYR:484:OH:4348"]

$$$$
ZINC962714366
     RDKit          3D

 64 67  0  0  0  0  0  0  0  0999 V2000
  130.5910  117.5430   62.0940 C   0  0  0  0  0  0  0  0  0  0  0  0
  129.9280  118.6500   61.2670 C   0  0  0  0  0  0  0  0  0  0  0  0
  129.8650  119.8390   62.0410 O   0  0  0  0  0  0  0  0  0  0  0  0
  130.4670  120.9750   61.6170 C   0  0  0  0  0  0  0  0  0  0  0  0
  131.0710  121.0940   60.5470 O   0  0  0  0  0  0  0  0  0  0  0  0
  130.3330  122.1660   62.6150 C   0  0  1  0  0  0  0  0  0  0  0  0
  129.7810  121.7650   64.0540 C   0  0  0  0  0  0  0  0  0  0  0  0
  130.3410  122.9120   64.8980 C   0  0  0  0  0  0  0  0  0  0  0  0
  129.8120  123.5980   65.9910 C   0  0  0  0  0  0  0  0  0  0  0  0
  129.8840  124.9990   65.9360 C   0  0  0  0  0  0  0  0  0  0  0  0
  130.2790  125.6090   64.7300 C   0  0  0  0  0  0  0  0  0  0  0  0
  129.9940  126.9180   64.5520 F   0  0  0  0  0  0  0  0  0  0  0  0
  130.7900  124.7950   63.6870 C   0  0  0  0  0  0  0  0  0  0  0  0
  131.2810  123.5520   64.1000 C   0  0  0  0  0  0  0  0  0  0  0  0
  131.7390  122.5250   63.1000 C   0  0  0  0  0  0  0  0  0  0  0  0
  130.3770  124.8150   62.1680 C   0  0  1  0  0  0  0  0  0  0  0  0
  129.5900  126.1410   61.8220 C   0  0  0  0  0  0  0  0  0  0  0  0
  130.4150  127.4330   61.6030 C   0  0  0  0  0  0  0  0  0  0  0  0
  131.6080  124.8550   61.2280 C   0  0  0  0  0  0  0  0  0  0  0  0
  131.5770  124.8860   59.8150 C   0  0  0  0  0  0  0  0  0  0  0  0
  132.8600  124.9650   59.2860 C   0  0  0  0  0  0  0  0  0  0  0  0
  133.3880  125.0390   57.9080 C   0  0  0  0  0  0  0  0  0  0  0  0
  134.0270  124.0410   57.5040 O   0  0  0  0  0  0  0  0  0  0  0  0
  133.1740  126.0730   57.2300 O   0  0  0  0  0  0  0  0  0  0  0  0
  133.7010  124.9600   60.3690 N   0  0  0  0  0  0  0  0  0  0  0  0
  132.9840  124.8660   61.5390 C   0  0  0  0  0  0  0  0  0  0  0  0
  133.7110  124.7950   62.7720 N   0  0  0  0  0  0  0  0  0  0  0  0
  134.7280  124.1150   62.7980 O   0  0  0  0  0  0  0  0  0  0  0  0
  133.2970  125.4380   63.7340 O   0  0  0  0  0  0  0  0  0  0  0  0
  129.6460  123.4400   62.0270 N   0  0  0  0  0  0  0  0  0  0  0  0
  128.2440  123.4100   61.7500 C   0  0  0  0  0  0  0  0  0  0  0  0
  127.3730  122.8040   62.3720 O   0  0  0  0  0  0  0  0  0  0  0  0
  127.9350  124.1780   60.6600 O   0  0  0  0  0  0  0  0  0  0  0  0
  127.7500  123.7130   59.3130 C   0  0  0  0  0  0  0  0  0  0  0  0
  126.2480  123.5980   58.9570 C   0  0  0  0  0  0  0  0  0  0  0  0
  128.5000  124.6100   58.2980 C   0  0  0  0  0  0  0  0  0  0  0  0
  128.3880  122.3090   59.3170 C   0  0  0  0  0  0  0  0  0  0  0  0
  130.4621  117.7583   63.1650 H   0  0  0  0  0  0  0  0  0  0  0  0
  130.1229  116.5766   61.8553 H   0  0  0  0  0  0  0  0  0  0  0  0
  131.6639  117.4996   61.8553 H   0  0  0  0  0  0  0  0  0  0  0  0
  130.5194  118.8340   60.3579 H   0  0  0  0  0  0  0  0  0  0  0  0
  128.9114  118.3401   60.9835 H   0  0  0  0  0  0  0  0  0  0  0  0
  128.6814  121.7443   64.0757 H   0  0  0  0  0  0  0  0  0  0  0  0
  130.0744  120.7607   64.3936 H   0  0  0  0  0  0  0  0  0  0  0  0
  129.3642  123.0717   66.8468 H   0  0  0  0  0  0  0  0  0  0  0  0
  129.6367  125.6082   66.8178 H   0  0  0  0  0  0  0  0  0  0  0  0
  132.3697  122.9518   62.3063 H   0  0  0  0  0  0  0  0  0  0  0  0
  132.3757  121.7062   63.4664 H   0  0  0  0  0  0  0  0  0  0  0  0
  129.0217  125.9540   60.8989 H   0  0  0  0  0  0  0  0  0  0  0  0
  128.9854  126.3464   62.7177 H   0  0  0  0  0  0  0  0  0  0  0  0
  130.6893  127.8625   62.5778 H   0  0  0  0  0  0  0  0  0  0  0  0
  131.3279  127.1938   61.0378 H   0  0  0  0  0  0  0  0  0  0  0  0
  129.8139  128.1605   61.0378 H   0  0  0  0  0  0  0  0  0  0  0  0
  130.6573  124.8520   59.2126 H   0  0  0  0  0  0  0  0  0  0  0  0
  134.7090  124.9960   60.3120 H   0  0  0  0  0  0  0  0  0  0  0  0
  125.6544  123.5525   59.8820 H   0  0  0  0  0  0  0  0  0  0  0  0
  125.9425  124.4754   58.3680 H   0  0  0  0  0  0  0  0  0  0  0  0
  126.0797  122.6843   58.3680 H   0  0  0  0  0  0  0  0  0  0  0  0
  129.1137  125.3440   58.8408 H   0  0  0  0  0  0  0  0  0  0  0  0
  129.1486  123.9855   57.6660 H   0  0  0  0  0  0  0  0  0  0  0  0
  127.7705  125.1378   57.6660 H   0  0  0  0  0  0  0  0  0  0  0  0
  128.5386  121.9776   60.3550 H   0  0  0  0  0  0  0  0  0  0  0  0
  127.7226  121.6024   58.7994 H   0  0  0  0  0  0  0  0  0  0  0  0
  129.3579  122.3455   58.7994 H   0  0  0  0  0  0  0  0  0  0  0  0
  1  2  1  0
  2  3  1  0
  3  4  1  0
  4  5  2  0
  6  4  1  6
  6  7  1  0
  7  8  1  0
  8  9  2  0
  9 10  1  0
 10 11  2  0
 11 12  1  0
 11 13  1  0
 13 14  2  0
 14 15  1  0
 13 16  1  0
 16 17  1  1
 17 18  1  0
 16 19  1  0
 19 20  1  0
 20 21  2  0
 21 22  1  0
 22 23  2  0
 22 24  1  0
 21 25  1  0
 25 26  1  0
 26 27  1  0
 27 28  2  0
 27 29  1  0
 16 30  1  0
 30 31  1  0
 31 32  2  0
 31 33  1  0
 33 34  1  0
 34 35  1  0
 34 36  1  0
 34 37  1  0
 15  6  1  0
 26 19  2  0
 30  6  1  0
 14  8  1  0
  1 38  1  0
  1 39  1  0
  1 40  1  0
  2 41  1  0
  2 42  1  0
  7 43  1  0
  7 44  1  0
  9 45  1  0
 10 46  1  0
 15 47  1  0
 15 48  1  0
 17 49  1  0
 17 50  1  0
 18 51  1  0
 18 52  1  0
 18 53  1  0
 20 54  1  0
 25 55  1  0
 35 56  1  0
 35 57  1  0
 35 58  1  0
 36 59  1  0
 36 60  1  0
 36 61  1  0
 37 62  1  0
 37 63  1  0
 37 64  1  0
M  CHG  3  24  -1  27   1  29  -1
M  END
>  <Binding energies>  (1) 
[-6.38]

>  <Ligand effiencies>  (1) 
[-0.16789473684210526]

>  <Interactions>  (1) 
["V-A:ASP:366:CA:3210, V-B:PRO:540:CA:9855, V-B:GLU:543:CB:9878, V-B:ALA:541:CB:9864, H-A:ARG:545:NH1:4927, H-A:TYR:531:OH:4795, V-A:TYR:484:CE2:4346, V-A:LEU:475:CG:4257, V-B:TYR:539:CE2:9848, V-B:GLU:543:CG:9879, V-B:TYR:539:C:9839, V-A:ASP:366:CG:3213, V-B:TYR:539:CZ:9849, H-A:ASN:370:N:3244, H-B:TYR:539:OH:9850, H-B:ALA:541:N:9863, V-A:LEU:475:CD1:4258, V-A:TYR:484:CZ:4347, V-A:GLU:543:CD:4908, V-B:PRO:540:CB:9857, V-B:GLU:543:CA:9876, H-A:GLY:454:N:4050, V-B:PRO:540:N:9856, V-A:ASP:366:C:3208, V-A:PRO:482:CB:4326, V-B:TYR:539:CD2:9846, V-B:GLU:543:CD:9880, V-A:ASP:366:CB:3212, V-A:LEU:475:CD2:4259, H-A:ARG:545:NH2:4928, V-A:ARG:545:CZ:4926, V-B:TYR:539:CG:9844, H-A:ASP:366:OD1:3214, H-A:ARG:545:NE:4924"]

$$$$
ZINC962761187
     RDKit          3D

 90 95  0  0  0  0  0  0  0  0999 V2000
  127.9800  128.2300   66.1000 C   0  0  0  0  0  0  0  0  0  0  0  0
  127.5970  128.7760   64.7990 N   0  0  0  0  0  0  0  0  0  0  0  0
  127.9490  130.1930   64.7160 C   0  0  0  0  0  0  0  0  0  0  0  0
  128.0800  127.9590   63.6690 C   0  0  2  0  0  0  0  0  0  0  0  0
  129.3280  127.1090   63.8900 C   0  0  0  0  0  0  0  0  0  0  0  0
  129.6190  126.5220   65.0800 O   0  0  0  0  0  0  0  0  0  0  0  0
  130.8080  125.8040   64.9420 N   0  0  0  0  0  0  0  0  0  0  0  0
  131.1650  125.9490   63.6800 C   0  0  0  0  0  0  0  0  0  0  0  0
  132.2900  125.3460   63.1750 O   0  0  0  0  0  0  0  0  0  0  0  0
  132.0610  124.1330   62.4620 C   0  0  0  0  0  0  0  0  0  0  0  0
  132.7120  124.2310   61.0910 C   0  0  0  0  0  0  0  0  0  0  0  0
  131.9210  124.3020   59.9410 C   0  0  0  0  0  0  0  0  0  0  0  0
  132.5210  124.3870   58.6890 C   0  0  0  0  0  0  0  0  0  0  0  0
  133.9110  124.4040   58.5870 C   0  0  0  0  0  0  0  0  0  0  0  0
  134.7060  124.3370   59.7290 C   0  0  0  0  0  0  0  0  0  0  0  0
  134.1060  124.2510   60.9830 C   0  0  0  0  0  0  0  0  0  0  0  0
  130.2670  126.7320   62.9590 C   0  0  0  0  0  0  0  0  0  0  0  0
  130.2290  127.1200   61.5600 C   0  0  0  0  0  0  0  0  0  0  0  0
  131.1220  126.8090   60.7700 O   0  0  0  0  0  0  0  0  0  0  0  0
  128.9700  127.9480   61.1340 C   0  0  2  0  0  0  0  0  0  0  0  0
  129.3960  128.9020   60.1450 O   0  0  0  0  0  0  0  0  0  0  0  0
  129.7800  130.5580   60.2470 Si  0  0  0  0  0  4  0  0  0  0  0  0
  128.2730  131.5560   59.7110 C   0  0  0  0  0  0  0  0  0  0  0  0
  130.2630  131.0680   62.0070 C   0  0  0  0  0  0  0  0  0  0  0  0
  131.2390  130.8670   59.0580 C   0  0  0  0  0  0  0  0  0  0  0  0
  130.8400  131.9100   57.9920 C   0  0  0  0  0  0  0  0  0  0  0  0
  132.4530  131.4010   59.8450 C   0  0  0  0  0  0  0  0  0  0  0  0
  131.6340  129.5600   58.3420 C   0  0  0  0  0  0  0  0  0  0  0  0
  128.3300  128.7630   62.3380 C   0  0  1  0  0  0  0  0  0  0  0  0
  127.0650  129.5520   61.8800 C   0  0  0  0  0  0  0  0  0  0  0  0
  126.1700  128.7320   60.9720 C   0  0  0  0  0  0  0  0  0  0  0  0
  126.5450  127.6000   60.3520 C   0  0  0  0  0  0  0  0  0  0  0  0
  127.9230  126.9420   60.4480 C   0  0  2  0  0  0  0  0  0  0  0  0
  127.5880  125.8150   61.3480 N   0  0  0  0  0  0  0  0  0  0  0  0
  127.3570  124.4880   60.7850 C   0  0  2  0  0  0  0  0  0  0  0  0
  127.1610  123.5240   61.9760 C   0  0  0  0  0  0  0  0  0  0  0  0
  126.0400  123.1490   62.3270 O   0  0  0  0  0  0  0  0  0  0  0  0
  128.4200  123.0540   62.7270 C   0  0  0  0  0  0  0  0  0  0  0  0
  129.2290  124.0930   62.9360 F   0  0  0  0  0  0  0  0  0  0  0  0
  128.0690  122.5250   63.8990 F   0  0  0  0  0  0  0  0  0  0  0  0
  129.0730  122.1360   62.0110 F   0  0  0  0  0  0  0  0  0  0  0  0
  128.5810  124.1230   59.9130 C   0  0  0  0  0  0  0  0  0  0  0  0
  128.6890  125.1240   58.7770 C   0  0  0  0  0  0  0  0  0  0  0  0
  129.0780  124.7220   57.4940 C   0  0  0  0  0  0  0  0  0  0  0  0
  129.1240  125.6320   56.4430 C   0  0  0  0  0  0  0  0  0  0  0  0
  128.7630  126.9550   56.6620 C   0  0  0  0  0  0  0  0  0  0  0  0
  128.3730  127.3600   57.9350 C   0  0  0  0  0  0  0  0  0  0  0  0
  128.3470  126.4710   59.0230 C   0  0  0  0  0  0  0  0  0  0  0  0
  127.5461  128.8486   66.8994 H   0  0  0  0  0  0  0  0  0  0  0  0
  127.6058  127.1995   66.1897 H   0  0  0  0  0  0  0  0  0  0  0  0
  129.0763  128.2311   66.1897 H   0  0  0  0  0  0  0  0  0  0  0  0
  128.0514  130.6054   65.7306 H   0  0  0  0  0  0  0  0  0  0  0  0
  128.9018  130.3032   64.1775 H   0  0  0  0  0  0  0  0  0  0  0  0
  127.1585  130.7362   64.1775 H   0  0  0  0  0  0  0  0  0  0  0  0
  127.2159  127.2840   63.5819 H   0  0  0  0  0  0  0  0  0  0  0  0
  132.4984  123.2907   63.0181 H   0  0  0  0  0  0  0  0  0  0  0  0
  130.9793  123.9689   62.3477 H   0  0  0  0  0  0  0  0  0  0  0  0
  130.8243  124.2907   60.0259 H   0  0  0  0  0  0  0  0  0  0  0  0
  131.9005  124.4406   57.7823 H   0  0  0  0  0  0  0  0  0  0  0  0
  134.3843  124.4709   57.5963 H   0  0  0  0  0  0  0  0  0  0  0  0
  135.8024  124.3519   59.6408 H   0  0  0  0  0  0  0  0  0  0  0  0
  134.7287  124.1988   61.8883 H   0  0  0  0  0  0  0  0  0  0  0  0
  127.7341  131.9129   60.6011 H   0  0  0  0  0  0  0  0  0  0  0  0
  128.5987  132.4175   59.1096 H   0  0  0  0  0  0  0  0  0  0  0  0
  127.6069  130.9199   59.1096 H   0  0  0  0  0  0  0  0  0  0  0  0
  129.6941  130.4673   62.7320 H   0  0  0  0  0  0  0  0  0  0  0  0
  131.3397  130.8988   62.1553 H   0  0  0  0  0  0  0  0  0  0  0  0
  130.0355  132.1339   62.1553 H   0  0  0  0  0  0  0  0  0  0  0  0
  130.4894  132.8265   58.4890 H   0  0  0  0  0  0  0  0  0  0  0  0
  131.7120  132.1442   57.3637 H   0  0  0  0  0  0  0  0  0  0  0  0
  130.0343  131.5024   57.3637 H   0  0  0  0  0  0  0  0  0  0  0  0
  132.2572  131.3149   60.9240 H   0  0  0  0  0  0  0  0  0  0  0  0
  133.3455  130.8124   59.5862 H   0  0  0  0  0  0  0  0  0  0  0  0
  132.6222  132.4566   59.5862 H   0  0  0  0  0  0  0  0  0  0  0  0
  131.8673  128.7881   59.0902 H   0  0  0  0  0  0  0  0  0  0  0  0
  130.7985  129.2198   57.7125 H   0  0  0  0  0  0  0  0  0  0  0  0
  132.5180  129.7395   57.7125 H   0  0  0  0  0  0  0  0  0  0  0  0
  129.1144  129.4793   62.6237 H   0  0  0  0  0  0  0  0  0  0  0  0
  126.4903  129.8460   62.7707 H   0  0  0  0  0  0  0  0  0  0  0  0
  127.4050  130.4303   61.3117 H   0  0  0  0  0  0  0  0  0  0  0  0
  125.1421  129.0882   60.8092 H   0  0  0  0  0  0  0  0  0  0  0  0
  125.7949  127.1026   59.7196 H   0  0  0  0  0  0  0  0  0  0  0  0
  126.8630  126.0920   61.9950 H   0  0  0  0  0  0  0  0  0  0  0  0
  126.4656  124.4350   60.1427 H   0  0  0  0  0  0  0  0  0  0  0  0
  129.4944  124.1584   60.5249 H   0  0  0  0  0  0  0  0  0  0  0  0
  128.4605  123.1081   59.5063 H   0  0  0  0  0  0  0  0  0  0  0  0
  129.3512  123.6717   57.3143 H   0  0  0  0  0  0  0  0  0  0  0  0
  129.4449  125.3052   55.4429 H   0  0  0  0  0  0  0  0  0  0  0  0
  128.7852  127.6787   55.8339 H   0  0  0  0  0  0  0  0  0  0  0  0
  128.0763  128.4072   58.0943 H   0  0  0  0  0  0  0  0  0  0  0  0
  1  2  1  0
  2  3  1  0
  2  4  1  0
  4  5  1  0
  5  6  1  0
  6  7  1  0
  7  8  2  0
  8  9  1  0
  9 10  1  0
 10 11  1  0
 11 12  2  0
 12 13  1  0
 13 14  2  0
 14 15  1  0
 15 16  2  0
  8 17  1  0
 17 18  1  0
 18 19  2  0
 18 20  1  0
 20 21  1  6
 21 22  1  0
 22 23  1  0
 22 24  1  0
 22 25  1  0
 25 26  1  0
 25 27  1  0
 25 28  1  0
 20 29  1  0
 29 30  1  0
 30 31  1  0
 31 32  2  0
 32 33  1  0
 33 34  1  1
 34 35  1  0
 35 36  1  0
 36 37  2  0
 36 38  1  0
 38 39  1  0
 38 40  1  0
 38 41  1  0
 35 42  1  0
 42 43  1  0
 43 44  2  0
 44 45  1  0
 45 46  2  0
 46 47  1  0
 47 48  2  0
 29  4  1  0
 48 33  1  0
 17  5  2  0
 33 20  1  0
 48 43  1  0
 16 11  1  0
  1 49  1  0
  1 50  1  0
  1 51  1  0
  3 52  1  0
  3 53  1  0
  3 54  1  0
  4 55  1  6
 10 56  1  0
 10 57  1  0
 12 58  1  0
 13 59  1  0
 14 60  1  0
 15 61  1  0
 16 62  1  0
 23 63  1  0
 23 64  1  0
 23 65  1  0
 24 66  1  0
 24 67  1  0
 24 68  1  0
 26 69  1  0
 26 70  1  0
 26 71  1  0
 27 72  1  0
 27 73  1  0
 27 74  1  0
 28 75  1  0
 28 76  1  0
 28 77  1  0
 29 78  1  1
 30 79  1  0
 30 80  1  0
 31 81  1  0
 32 82  1  0
 34 83  1  0
 35 84  1  6
 42 85  1  0
 42 86  1  0
 44 87  1  0
 45 88  1  0
 46 89  1  0
 47 90  1  0
M  END
>  <Binding energies>  (1) 
[-8.11]

>  <Ligand effiencies>  (1) 
[-0.16551020408163264]

>  <Interactions>  (1) 
["V-A:ILE:369:CG2:3237, V-A:ASP:366:CA:3210, V-A:ILE:369:CB:3236, V-B:ASP:366:CG:8184, V-B:ALA:541:CB:9864, V-B:TYR:539:CE2:9848, V-B:GLU:543:CG:9879, V-A:ASP:366:CG:3213, V-B:TYR:539:CZ:9849, H-B:GLU:543:OE1:9881, H-B:ALA:541:N:9863, V-A:GLU:543:CD:4908, H-B:ASP:366:OD1:8185, V-A:ILE:369:CD1:3239, V-B:ALA:541:C:9860, V-A:ASP:366:C:3208, V-A:GLU:543:CG:4907, V-B:GLU:543:CD:9880, V-A:ILE:369:CG1:3238, V-A:ASP:366:CB:3212, H-A:ARG:545:NH2:4928, H-B:GLU:543:OE2:9882, V-A:PRO:540:CA:4883, V-A:PRO:540:CB:4885, V-B:ALA:541:CA:9862"]

$$$$
ZINC962761187-again1
     RDKit          3D

 91 96  0  0  0  0  0  0  0  0999 V2000
  128.3240  128.2130   66.2820 C   0  0  0  0  0  0  0  0  0  0  0  0
  127.6680  128.7360   64.9880 N   0  0  0  0  0  0  0  0  0  0  0  0
  127.9630  130.2420   64.8020 C   0  0  0  0  0  0  0  0  0  0  0  0
  127.9750  127.8170   63.7670 C   0  0  2  0  0  0  0  0  0  0  0  0
  129.2290  126.9800   63.9600 C   0  0  0  0  0  0  0  0  0  0  0  0
  129.5070  126.3150   65.1100 O   0  0  0  0  0  0  0  0  0  0  0  0
  130.7380  125.6730   64.9530 N   0  0  0  0  0  0  0  0  0  0  0  0
  131.1290  125.9420   63.7220 C   0  0  0  0  0  0  0  0  0  0  0  0
  132.3020  125.4450   63.2130 O   0  0  0  0  0  0  0  0  0  0  0  0
  132.1920  124.1810   62.5610 C   0  0  0  0  0  0  0  0  0  0  0  0
  132.7800  124.2780   61.1610 C   0  0  0  0  0  0  0  0  0  0  0  0
  131.9310  124.3670   60.0530 C   0  0  0  0  0  0  0  0  0  0  0  0
  132.4680  124.4470   58.7700 C   0  0  0  0  0  0  0  0  0  0  0  0
  133.8510  124.4350   58.5990 C   0  0  0  0  0  0  0  0  0  0  0  0
  134.7020  124.3410   59.6980 C   0  0  0  0  0  0  0  0  0  0  0  0
  134.1670  124.2590   60.9790 C   0  0  0  0  0  0  0  0  0  0  0  0
  130.2120  126.7330   63.0340 C   0  0  0  0  0  0  0  0  0  0  0  0
  130.1880  127.2280   61.6670 C   0  0  0  0  0  0  0  0  0  0  0  0
  131.1230  127.0380   60.8870 O   0  0  0  0  0  0  0  0  0  0  0  0
  128.8850  128.0000   61.2590 C   0  0  2  0  0  0  0  0  0  0  0  0
  129.2650  129.0280   60.3230 O   0  0  0  0  0  0  0  0  0  0  0  0
  129.6440  130.6740   60.5290 Si  0  0  0  0  0  4  0  0  0  0  0  0
  128.1810  131.7050   59.9340 C   0  0  0  0  0  0  0  0  0  0  0  0
  130.0000  131.0980   62.3420 C   0  0  0  0  0  0  0  0  0  0  0  0
  131.1840  131.0330   59.4660 C   0  0  0  0  0  0  0  0  0  0  0  0
  131.5930  129.7670   58.6830 C   0  0  0  0  0  0  0  0  0  0  0  0
  130.8750  132.1630   58.4610 C   0  0  0  0  0  0  0  0  0  0  0  0
  132.3660  131.4600   60.3620 C   0  0  0  0  0  0  0  0  0  0  0  0
  128.1790  128.7120   62.4890 C   0  0  1  0  0  0  0  0  0  0  0  0
  126.8660  129.4400   62.0660 C   0  0  0  0  0  0  0  0  0  0  0  0
  126.0510  128.6360   61.0730 C   0  0  0  0  0  0  0  0  0  0  0  0
  126.5060  127.5670   60.3960 C   0  0  0  0  0  0  0  0  0  0  0  0
  127.9120  126.9730   60.5050 C   0  0  2  0  0  0  0  0  0  0  0  0
  127.6050  125.7930   61.3470 N   0  0  0  0  0  0  0  0  0  0  0  0
  127.5250  124.4640   60.7390 C   0  0  2  0  0  0  0  0  0  0  0  0
  127.4250  123.4080   61.8640 C   0  0  0  0  0  0  0  0  0  0  0  0
  126.3450  122.9210   62.2150 O   0  0  0  0  0  0  0  0  0  0  0  0
  128.7410  122.9750   62.5280 C   0  0  0  0  0  0  0  0  0  0  0  0
  129.5580  124.0240   62.6290 F   0  0  0  0  0  0  0  0  0  0  0  0
  128.5090  122.4840   63.7460 F   0  0  0  0  0  0  0  0  0  0  0  0
  129.3190  122.0350   61.7810 F   0  0  0  0  0  0  0  0  0  0  0  0
  128.8080  124.2380   59.9110 C   0  0  0  0  0  0  0  0  0  0  0  0
  128.8640  125.2760   58.8050 C   0  0  0  0  0  0  0  0  0  0  0  0
  129.3200  124.9480   57.5240 C   0  0  0  0  0  0  0  0  0  0  0  0
  129.3210  125.8910   56.5010 C   0  0  0  0  0  0  0  0  0  0  0  0
  128.8480  127.1740   56.7480 C   0  0  0  0  0  0  0  0  0  0  0  0
  128.3900  127.5070   58.0200 C   0  0  0  0  0  0  0  0  0  0  0  0
  128.4040  126.5830   59.0780 C   0  0  0  0  0  0  0  0  0  0  0  0
  127.7995  128.6311   67.1539 H   0  0  0  0  0  0  0  0  0  0  0  0
  128.2603  127.1151   66.3076 H   0  0  0  0  0  0  0  0  0  0  0  0
  129.3801  128.5197   66.3076 H   0  0  0  0  0  0  0  0  0  0  0  0
  126.6730  128.6570   65.1390 H   0  0  0  0  0  0  0  0  0  0  0  0
  128.0570  130.7217   65.7874 H   0  0  0  0  0  0  0  0  0  0  0  0
  128.9024  130.3653   64.2431 H   0  0  0  0  0  0  0  0  0  0  0  0
  127.1396  130.7106   64.2431 H   0  0  0  0  0  0  0  0  0  0  0  0
  127.1212  127.1323   63.6565 H   0  0  0  0  0  0  0  0  0  0  0  0
  132.7416  123.4223   63.1375 H   0  0  0  0  0  0  0  0  0  0  0  0
  131.1320  123.8948   62.4938 H   0  0  0  0  0  0  0  0  0  0  0  0
  130.8402  124.3738   60.1945 H   0  0  0  0  0  0  0  0  0  0  0  0
  131.8036  124.5193   57.8963 H   0  0  0  0  0  0  0  0  0  0  0  0
  134.2750  124.5004   57.5861 H   0  0  0  0  0  0  0  0  0  0  0  0
  135.7924  124.3317   59.5531 H   0  0  0  0  0  0  0  0  0  0  0  0
  134.8347  124.1792   61.8495 H   0  0  0  0  0  0  0  0  0  0  0  0
  127.6292  132.0939   60.8025 H   0  0  0  0  0  0  0  0  0  0  0  0
  128.5477  132.5454   59.3263 H   0  0  0  0  0  0  0  0  0  0  0  0
  127.5129  131.0770   59.3263 H   0  0  0  0  0  0  0  0  0  0  0  0
  129.4311  130.4204   62.9956 H   0  0  0  0  0  0  0  0  0  0  0  0
  131.0756  130.9823   62.5412 H   0  0  0  0  0  0  0  0  0  0  0  0
  129.6999  132.1374   62.5412 H   0  0  0  0  0  0  0  0  0  0  0  0
  131.8519  128.9658   59.3908 H   0  0  0  0  0  0  0  0  0  0  0  0
  130.7546  129.4405   58.0501 H   0  0  0  0  0  0  0  0  0  0  0  0
  132.4639  129.9927   58.0501 H   0  0  0  0  0  0  0  0  0  0  0  0
  130.6235  133.0828   59.0094 H   0  0  0  0  0  0  0  0  0  0  0  0
  131.7570  132.3427   57.8287 H   0  0  0  0  0  0  0  0  0  0  0  0
  130.0243  131.8689   57.8287 H   0  0  0  0  0  0  0  0  0  0  0  0
  132.0806  131.3569   61.4193 H   0  0  0  0  0  0  0  0  0  0  0  0
  133.2351  130.8190   60.1526 H   0  0  0  0  0  0  0  0  0  0  0  0
  132.6248  132.5084   60.1526 H   0  0  0  0  0  0  0  0  0  0  0  0
  128.9056  129.4720   62.8120 H   0  0  0  0  0  0  0  0  0  0  0  0
  126.2550  129.6156   62.9637 H   0  0  0  0  0  0  0  0  0  0  0  0
  127.1495  130.3846   61.5788 H   0  0  0  0  0  0  0  0  0  0  0  0
  125.0121  128.9496   60.8930 H   0  0  0  0  0  0  0  0  0  0  0  0
  125.8063  127.0766   59.7032 H   0  0  0  0  0  0  0  0  0  0  0  0
  126.8180  125.9860   61.9510 H   0  0  0  0  0  0  0  0  0  0  0  0
  126.6428  124.3795   60.0873 H   0  0  0  0  0  0  0  0  0  0  0  0
  129.6901  124.3410   60.5601 H   0  0  0  0  0  0  0  0  0  0  0  0
  128.7996  123.2277   59.4760 H   0  0  0  0  0  0  0  0  0  0  0  0
  129.6832  123.9294   57.3224 H   0  0  0  0  0  0  0  0  0  0  0  0
  129.6943  125.6223   55.5018 H   0  0  0  0  0  0  0  0  0  0  0  0
  128.8355  127.9230   55.9425 H   0  0  0  0  0  0  0  0  0  0  0  0
  128.0065  128.5219   58.2015 H   0  0  0  0  0  0  0  0  0  0  0  0
  1  2  1  0
  2  3  1  0
  2  4  1  0
  4  5  1  0
  5  6  1  0
  6  7  1  0
  7  8  2  0
  8  9  1  0
  9 10  1  0
 10 11  1  0
 11 12  2  0
 12 13  1  0
 13 14  2  0
 14 15  1  0
 15 16  2  0
  8 17  1  0
 17 18  1  0
 18 19  2  0
 18 20  1  0
 20 21  1  6
 21 22  1  0
 22 23  1  0
 22 24  1  0
 22 25  1  0
 25 26  1  0
 25 27  1  0
 25 28  1  0
 20 29  1  0
 29 30  1  0
 30 31  1  0
 31 32  2  0
 32 33  1  0
 33 34  1  1
 34 35  1  0
 35 36  1  0
 36 37  2  0
 36 38  1  0
 38 39  1  0
 38 40  1  0
 38 41  1  0
 35 42  1  0
 42 43  1  0
 43 44  2  0
 44 45  1  0
 45 46  2  0
 46 47  1  0
 47 48  2  0
 29  4  1  0
 48 33  1  0
 17  5  2  0
 33 20  1  0
 48 43  1  0
 16 11  1  0
  1 49  1  0
  1 50  1  0
  1 51  1  0
  2 52  1  0
  3 53  1  0
  3 54  1  0
  3 55  1  0
  4 56  1  6
 10 57  1  0
 10 58  1  0
 12 59  1  0
 13 60  1  0
 14 61  1  0
 15 62  1  0
 16 63  1  0
 23 64  1  0
 23 65  1  0
 23 66  1  0
 24 67  1  0
 24 68  1  0
 24 69  1  0
 26 70  1  0
 26 71  1  0
 26 72  1  0
 27 73  1  0
 27 74  1  0
 27 75  1  0
 28 76  1  0
 28 77  1  0
 28 78  1  0
 29 79  1  1
 30 80  1  0
 30 81  1  0
 31 82  1  0
 32 83  1  0
 34 84  1  0
 35 85  1  6
 42 86  1  0
 42 87  1  0
 44 88  1  0
 45 89  1  0
 46 90  1  0
 47 91  1  0
M  CHG  1   2   1
M  END
>  <Binding energies>  (1) 
[-9.53]

>  <Ligand effiencies>  (1) 
[-0.1906]

>  <Interactions>  (1) 
["V-A:ILE:369:CG2:3237, V-A:ASP:366:CA:3210, V-B:PRO:540:CA:9855, V-A:ILE:369:CB:3236, V-B:ASP:366:CG:8184, V-B:ALA:541:CB:9864, V-B:TYR:539:CE2:9848, V-B:GLU:543:CG:9879, V-A:ASP:366:CG:3213, V-B:TYR:539:CZ:9849, H-B:GLU:543:OE1:9881, H-B:ALA:541:N:9863, V-A:GLU:543:CD:4908, H-B:TYR:484:OH:9319, H-B:ASP:366:OD1:8185, V-A:ILE:369:CD1:3239, V-A:ASP:366:C:3208, V-A:GLU:543:CG:4907, V-B:GLU:543:CD:9880, V-A:ILE:369:CG1:3238, V-A:ASP:366:CB:3212, H-A:ARG:545:NH2:4928, V-A:PRO:540:N:4884, H-B:GLU:543:OE2:9882, V-A:PRO:540:CB:4885, V-A:PRO:540:CA:4883, V-B:ALA:541:CA:9862"]

$$$$
ZINC962917550
     RDKit          3D

 96102  0  0  0  0  0  0  0  0999 V2000
  128.4510  132.9420   63.3140 C   0  0  0  0  0  0  0  0  0  0  0  0
  128.9130  132.8610   61.8470 C   0  0  0  0  0  0  0  0  0  0  0  0
  127.8340  132.3880   60.8660 C   0  0  0  0  0  0  0  0  0  0  0  0
  126.6700  132.7930   60.9120 O   0  0  0  0  0  0  0  0  0  0  0  0
  128.3360  131.4840   59.9630 O   0  0  0  0  0  0  0  0  0  0  0  0
  127.8470  131.2420   58.6110 C   0  0  2  0  0  0  0  0  0  0  0  0
  128.4870  132.3860   57.7310 C   0  0  0  0  0  0  0  0  0  0  0  0
  127.9370  132.8270   56.7230 O   0  0  0  0  0  0  0  0  0  0  0  0
  129.8530  132.9450   58.1630 C   0  0  0  0  0  0  0  0  0  0  0  0
  131.1200  132.6730   56.9310 Cl  0  0  0  0  0  0  0  0  0  0  0  0
  126.2560  131.1080   58.6530 C   0  0  1  0  0  0  0  0  0  0  0  0
  125.3810  131.7930   57.5770 C   0  0  0  0  0  0  0  0  0  0  0  0
  125.9620  129.5900   58.7160 C   0  0  0  0  0  0  0  0  0  0  0  0
  127.3180  128.9280   58.9640 C   0  0  1  0  0  0  0  0  0  0  0  0
  127.4710  127.3970   58.7280 C   0  0  2  0  0  0  0  0  0  0  0  0
  126.3880  126.5830   59.4790 C   0  0  0  0  0  0  0  0  0  0  0  0
  126.5420  125.0650   59.2900 C   0  0  0  0  0  0  0  0  0  0  0  0
  127.9470  124.6530   59.7290 C   0  0  0  0  0  0  0  0  0  0  0  0
  128.1490  123.7890   60.7480 C   0  0  0  0  0  0  0  0  0  0  0  0
  129.5040  123.3530   61.2980 C   0  0  2  0  0  0  0  0  0  0  0  0
  130.6320  124.0040   60.5070 C   0  0  0  0  0  0  0  0  0  0  0  0
  130.4530  124.8680   59.4910 C   0  0  0  0  0  0  0  0  0  0  0  0
  129.0980  125.3470   58.9440 C   0  0  1  0  0  0  0  0  0  0  0  0
  129.0310  124.8480   57.4720 C   0  0  0  0  0  0  0  0  0  0  0  0
  128.9160  126.9130   59.1210 C   0  0  2  0  0  0  0  0  0  0  0  0
  129.0270  127.1360   60.4400 F   0  0  0  0  0  0  0  0  0  0  0  0
  130.0440  127.8250   58.5050 C   0  0  1  0  0  0  0  0  0  0  0  0
  130.3630  127.5400   57.1570 O   0  0  0  0  0  0  0  0  0  0  0  0
  129.7500  129.3420   58.6930 C   0  0  0  0  0  0  0  0  0  0  0  0
  128.3370  129.7930   58.1830 C   0  0  2  0  0  0  0  0  0  0  0  0
  128.2220  129.6070   56.6300 C   0  0  0  0  0  0  0  0  0  0  0  0
  129.5740  121.8850   60.8200 N   0  0  0  0  0  0  0  0  0  0  0  0
  130.4330  120.9530   61.7070 C   0  0  2  0  0  0  0  0  0  0  0  0
  130.3980  119.5140   61.0980 C   0  0  0  0  0  0  0  0  0  0  0  0
  131.1310  119.1840   60.1340 O   0  0  0  0  0  0  0  0  0  0  0  0
  129.6050  118.7170   61.6490 O   0  0  0  0  0  0  0  0  0  0  0  0
  129.8410  120.9850   63.1330 C   0  0  0  0  0  0  0  0  0  0  0  0
  129.8270  122.4050   63.6880 C   0  0  0  0  0  0  0  0  0  0  0  0
  129.9970  122.6270   65.0590 C   0  0  0  0  0  0  0  0  0  0  0  0
  129.9580  123.9100   65.5930 C   0  0  0  0  0  0  0  0  0  0  0  0
  129.7370  125.0100   64.7580 C   0  0  0  0  0  0  0  0  0  0  0  0
  129.6970  126.3100   65.2170 O   0  0  0  0  0  0  0  0  0  0  0  0
  129.2550  126.5980   66.4890 C   0  0  0  0  0  0  0  0  0  0  0  0
  129.8690  125.9630   67.5700 C   0  0  0  0  0  0  0  0  0  0  0  0
  129.4590  126.2460   68.8700 C   0  0  0  0  0  0  0  0  0  0  0  0
  128.4390  127.1720   69.0870 C   0  0  0  0  0  0  0  0  0  0  0  0
  128.0350  127.4500   70.3660 O   0  0  0  0  0  0  0  0  0  0  0  0
  127.8300  127.8200   68.0130 C   0  0  0  0  0  0  0  0  0  0  0  0
  128.2420  127.5380   66.7130 C   0  0  0  0  0  0  0  0  0  0  0  0
  129.5960  124.7930   63.3890 C   0  0  0  0  0  0  0  0  0  0  0  0
  129.6370  123.5090   62.8270 C   0  0  0  0  0  0  0  0  0  0  0  0
  129.3140  132.7907   63.9791 H   0  0  0  0  0  0  0  0  0  0  0  0
  128.0096  133.9312   63.5053 H   0  0  0  0  0  0  0  0  0  0  0  0
  127.6994  132.1619   63.5053 H   0  0  0  0  0  0  0  0  0  0  0  0
  129.2453  133.8623   61.5356 H   0  0  0  0  0  0  0  0  0  0  0  0
  129.7171  132.1111   61.8131 H   0  0  0  0  0  0  0  0  0  0  0  0
  129.7538  134.0269   58.3350 H   0  0  0  0  0  0  0  0  0  0  0  0
  130.1570  132.4179   59.0794 H   0  0  0  0  0  0  0  0  0  0  0  0
  125.9460  131.6935   59.5311 H   0  0  0  0  0  0  0  0  0  0  0  0
  124.6055  132.4001   58.0670 H   0  0  0  0  0  0  0  0  0  0  0  0
  126.0113  132.4402   56.9494 H   0  0  0  0  0  0  0  0  0  0  0  0
  124.9040  131.0258   56.9494 H   0  0  0  0  0  0  0  0  0  0  0  0
  125.2672  129.3656   59.5387 H   0  0  0  0  0  0  0  0  0  0  0  0
  125.4892  129.2245   57.7925 H   0  0  0  0  0  0  0  0  0  0  0  0
  127.4909  128.9172   60.0503 H   0  0  0  0  0  0  0  0  0  0  0  0
  127.3246  127.2144   57.6532 H   0  0  0  0  0  0  0  0  0  0  0  0
  126.4584  126.8119   60.5526 H   0  0  0  0  0  0  0  0  0  0  0  0
  125.4113  126.8701   59.0624 H   0  0  0  0  0  0  0  0  0  0  0  0
  125.7945  124.5387   59.9018 H   0  0  0  0  0  0  0  0  0  0  0  0
  126.3894  124.8030   58.2326 H   0  0  0  0  0  0  0  0  0  0  0  0
  127.2549  123.3607   61.2247 H   0  0  0  0  0  0  0  0  0  0  0  0
  131.6652  123.7498   60.7861 H   0  0  0  0  0  0  0  0  0  0  0  0
  131.3572  125.2675   59.0084 H   0  0  0  0  0  0  0  0  0  0  0  0
  128.8846  123.7578   57.4607 H   0  0  0  0  0  0  0  0  0  0  0  0
  128.1903  125.3362   56.9572 H   0  0  0  0  0  0  0  0  0  0  0  0
  129.9707  125.0971   56.9572 H   0  0  0  0  0  0  0  0  0  0  0  0
  130.9408  127.5684   59.0880 H   0  0  0  0  0  0  0  0  0  0  0  0
  130.4690  128.3700   56.6860 H   0  0  0  0  0  0  0  0  0  0  0  0
  129.8202  129.5763   59.7655 H   0  0  0  0  0  0  0  0  0  0  0  0
  130.4915  129.8842   58.0878 H   0  0  0  0  0  0  0  0  0  0  0  0
  127.6551  128.6900   56.4115 H   0  0  0  0  0  0  0  0  0  0  0  0
  127.7012  130.4726   56.1946 H   0  0  0  0  0  0  0  0  0  0  0  0
  129.2291  129.5279   56.1946 H   0  0  0  0  0  0  0  0  0  0  0  0
  128.6350  121.5170   60.7840 H   0  0  0  0  0  0  0  0  0  0  0  0
  129.9400  121.8700   59.8800 H   0  0  0  0  0  0  0  0  0  0  0  0
  131.4830  121.2781   61.7503 H   0  0  0  0  0  0  0  0  0  0  0  0
  128.8109  120.6004   63.1034 H   0  0  0  0  0  0  0  0  0  0  0  0
  130.4676  120.3600   63.7863 H   0  0  0  0  0  0  0  0  0  0  0  0
  130.1648  121.7696   65.7274 H   0  0  0  0  0  0  0  0  0  0  0  0
  130.1011  124.0601   66.6733 H   0  0  0  0  0  0  0  0  0  0  0  0
  130.6776  125.2382   67.3944 H   0  0  0  0  0  0  0  0  0  0  0  0
  129.9375  125.7414   69.7223 H   0  0  0  0  0  0  0  0  0  0  0  0
  128.5440  126.9790   71.0300 H   0  0  0  0  0  0  0  0  0  0  0  0
  127.0276  128.5508   68.1918 H   0  0  0  0  0  0  0  0  0  0  0  0
  127.7718  128.0535   65.8626 H   0  0  0  0  0  0  0  0  0  0  0  0
  129.4475  125.6584   62.7264 H   0  0  0  0  0  0  0  0  0  0  0  0
  1  2  1  0
  2  3  1  0
  3  4  2  0
  3  5  1  0
  6  5  1  1
  6  7  1  0
  7  8  2  0
  7  9  1  0
  9 10  1  0
  6 11  1  0
 11 12  1  0
 11 13  1  0
 13 14  1  0
 14 15  1  0
 15 16  1  0
 16 17  1  0
 17 18  1  0
 18 19  2  0
 19 20  1  0
 20 21  1  0
 21 22  2  0
 22 23  1  0
 23 24  1  6
 23 25  1  0
 25 26  1  1
 25 27  1  0
 27 28  1  0
 27 29  1  0
 29 30  1  0
 30 31  1  6
 20 32  1  1
 32 33  1  0
 33 34  1  0
 34 35  2  0
 34 36  1  0
 33 37  1  0
 37 38  1  0
 38 39  2  0
 39 40  1  0
 40 41  2  0
 41 42  1  0
 42 43  1  0
 43 44  2  0
 44 45  1  0
 45 46  2  0
 46 47  1  0
 46 48  1  0
 48 49  2  0
 41 50  1  0
 50 51  2  0
 30  6  1  0
 51 38  1  0
 30 14  1  0
 49 43  1  0
 25 15  1  0
 23 18  1  0
 51 20  1  0
  1 52  1  0
  1 53  1  0
  1 54  1  0
  2 55  1  0
  2 56  1  0
  9 57  1  0
  9 58  1  0
 11 59  1  1
 12 60  1  0
 12 61  1  0
 12 62  1  0
 13 63  1  0
 13 64  1  0
 14 65  1  1
 15 66  1  6
 16 67  1  0
 16 68  1  0
 17 69  1  0
 17 70  1  0
 19 71  1  0
 21 72  1  0
 22 73  1  0
 24 74  1  0
 24 75  1  0
 24 76  1  0
 27 77  1  1
 28 78  1  0
 29 79  1  0
 29 80  1  0
 31 81  1  0
 31 82  1  0
 31 83  1  0
 32 84  1  0
 32 85  1  0
 33 86  1  1
 37 87  1  0
 37 88  1  0
 39 89  1  0
 40 90  1  0
 44 91  1  0
 45 92  1  0
 47 93  1  0
 48 94  1  0
 49 95  1  0
 50 96  1  0
M  CHG  2  32   1  36  -1
M  END
>  <Binding energies>  (1) 
[-6.54]

>  <Ligand effiencies>  (1) 
[-0.11890909090909091]

>  <Interactions>  (1) 
["V-B:GLU:543:C:9874, H-B:GLU:543:O:9875, V-B:GLU:543:CB:9878, V-A:ILE:538:CB:4862, V-B:ASP:366:CG:8184, V-B:ALA:541:CB:9864, H-A:TYR:531:OH:4795, V-B:TYR:539:CE2:9848, V-A:TYR:484:CE2:4346, V-A:LEU:475:CG:4257, V-B:GLU:543:CG:9879, V-B:LEU:475:CD2:9230, V-A:TYR:539:CD1:4873, V-B:TYR:539:CZ:9849, V-A:TYR:539:CZ:4877, V-A:ALA:541:CB:4892, V-A:LEU:475:CD1:4258, V-A:TYR:484:CZ:4347, V-A:GLU:543:CD:4908, V-B:HIS:456:CE1:9041, V-A:HIS:456:CE1:4070, V-B:TYR:539:CD2:9846, H-A:SER:385:OG:3410, V-A:MET:535:CE:4835, V-B:GLU:543:CD:9880, V-A:TYR:539:C:4867, V-A:LEU:475:CD2:4259, H-A:HIS:383:HE2:3395, V-A:PRO:540:N:4884, V-A:PRO:540:CA:4883, H-B:TYR:539:O:9840, V-B:ALA:541:CA:9862, V-A:PRO:540:CD:4887, V-A:TYR:539:CE1:4875, H-A:HIS:456:NE2:4071"]

$$$$
ZINC962918974-again1
     RDKit          3D

 48 51  0  0  0  0  0  0  0  0999 V2000
  131.7490  132.2800   61.7380 O   0  0  0  0  0  0  0  0  0  0  0  0
  132.2140  131.4480   60.9260 C   0  0  0  0  0  0  0  0  0  0  0  0
  133.3970  131.4970   60.5080 O   0  0  0  0  0  0  0  0  0  0  0  0
  131.2120  130.3510   60.4410 C   0  0  2  0  0  0  0  0  0  0  0  0
  130.0500  130.9590   59.6200 C   0  0  0  0  0  0  0  0  0  0  0  0
  128.9560  129.9380   59.3070 C   0  0  0  0  0  0  0  0  0  0  0  0
  128.1240  130.1250   58.1960 C   0  0  0  0  0  0  0  0  0  0  0  0
  127.1110  129.2230   57.8930 C   0  0  0  0  0  0  0  0  0  0  0  0
  126.9080  128.1090   58.7050 C   0  0  0  0  0  0  0  0  0  0  0  0
  125.9240  127.1900   58.4250 O   0  0  0  0  0  0  0  0  0  0  0  0
  126.2820  125.9430   57.9610 C   0  0  0  0  0  0  0  0  0  0  0  0
  127.5460  125.6900   57.4100 C   0  0  0  0  0  0  0  0  0  0  0  0
  127.8710  124.4090   56.9740 C   0  0  0  0  0  0  0  0  0  0  0  0
  126.9400  123.3790   57.0970 C   0  0  0  0  0  0  0  0  0  0  0  0
  127.2620  122.1190   56.6670 O   0  0  0  0  0  0  0  0  0  0  0  0
  125.6880  123.6210   57.6580 C   0  0  0  0  0  0  0  0  0  0  0  0
  125.3620  124.9020   58.0940 C   0  0  0  0  0  0  0  0  0  0  0  0
  127.7210  127.9200   59.8190 C   0  0  0  0  0  0  0  0  0  0  0  0
  128.7640  128.8020   60.1280 C   0  0  0  0  0  0  0  0  0  0  0  0
  129.7000  128.4650   61.3070 C   0  0  1  0  0  0  0  0  0  0  0  0
  130.5850  127.2270   61.1020 C   0  0  0  0  0  0  0  0  0  0  0  0
  130.8580  126.3870   62.1870 C   0  0  0  0  0  0  0  0  0  0  0  0
  131.6190  125.2320   62.0140 C   0  0  0  0  0  0  0  0  0  0  0  0
  132.1090  124.8920   60.7540 C   0  0  0  0  0  0  0  0  0  0  0  0
  133.2240  123.1280   60.5500 I   0  0  0  0  0  0  0  0  0  0  0  0
  131.8390  125.7210   59.6560 C   0  0  0  0  0  0  0  0  0  0  0  0
  132.3200  125.3830   58.3120 N   0  0  0  0  0  0  0  0  0  0  0  0
  131.5470  125.5540   57.3750 O   0  0  0  0  0  0  0  0  0  0  0  0
  133.4670  124.9620   58.2060 O   0  0  0  0  0  0  0  0  0  0  0  0
  131.0770  126.8790   59.8370 C   0  0  0  0  0  0  0  0  0  0  0  0
  130.5910  129.6670   61.6800 N   0  0  0  0  0  0  0  0  0  0  0  0
  131.7679  129.6424   59.8094 H   0  0  0  0  0  0  0  0  0  0  0  0
  129.6068  131.7855   60.1949 H   0  0  0  0  0  0  0  0  0  0  0  0
  130.4645  131.3081   58.6628 H   0  0  0  0  0  0  0  0  0  0  0  0
  128.2752  131.0029   57.5507 H   0  0  0  0  0  0  0  0  0  0  0  0
  126.4708  129.3882   57.0139 H   0  0  0  0  0  0  0  0  0  0  0  0
  128.2808  126.5039   57.3223 H   0  0  0  0  0  0  0  0  0  0  0  0
  128.8592  124.2100   56.5338 H   0  0  0  0  0  0  0  0  0  0  0  0
  127.7550  121.6150   57.3190 H   0  0  0  0  0  0  0  0  0  0  0  0
  124.9596  122.8026   57.7561 H   0  0  0  0  0  0  0  0  0  0  0  0
  124.3770  125.0943   58.5444 H   0  0  0  0  0  0  0  0  0  0  0  0
  127.5394  127.0550   60.4739 H   0  0  0  0  0  0  0  0  0  0  0  0
  129.0123  128.2241   62.1310 H   0  0  0  0  0  0  0  0  0  0  0  0
  130.4691  126.6400   63.1844 H   0  0  0  0  0  0  0  0  0  0  0  0
  131.8342  124.5848   62.8771 H   0  0  0  0  0  0  0  0  0  0  0  0
  130.8606  127.5261   58.9742 H   0  0  0  0  0  0  0  0  0  0  0  0
  130.0290  130.3530   62.1620 H   0  0  0  0  0  0  0  0  0  0  0  0
  131.3200  129.3650   62.3100 H   0  0  0  0  0  0  0  0  0  0  0  0
  1  2  2  0
  2  3  1  0
  2  4  1  0
  4  5  1  0
  5  6  1  0
  6  7  2  0
  7  8  1  0
  8  9  2  0
  9 10  1  0
 10 11  1  0
 11 12  2  0
 12 13  1  0
 13 14  2  0
 14 15  1  0
 14 16  1  0
 16 17  2  0
  9 18  1  0
 18 19  2  0
 19 20  1  0
 20 21  1  0
 21 22  2  0
 22 23  1  0
 23 24  2  0
 24 25  1  0
 24 26  1  0
 26 27  1  0
 27 28  2  0
 27 29  1  0
 26 30  2  0
 20 31  1  0
 31  4  1  0
 19  6  1  0
 30 21  1  0
 17 11  1  0
  4 32  1  6
  5 33  1  0
  5 34  1  0
  7 35  1  0
  8 36  1  0
 12 37  1  0
 13 38  1  0
 15 39  1  0
 16 40  1  0
 17 41  1  0
 18 42  1  0
 20 43  1  1
 22 44  1  0
 23 45  1  0
 30 46  1  0
 31 47  1  0
 31 48  1  0
M  CHG  4   3  -1  27   1  29  -1  31   1
M  END
>  <Binding energies>  (1) 
[-7.98]

>  <Ligand effiencies>  (1) 
[-0.23470588235294118]

>  <Interactions>  (1) 
["V-A:ILE:369:CG2:3237, V-B:PRO:540:CA:9855, H-A:ALA:541:N:4891, H-A:TYR:531:OH:4795, V-B:TYR:539:CE2:9848, H-B:TYR:539:N:9842, V-A:ASP:366:CG:3213, V-B:TYR:539:CZ:9849, H-B:TYR:539:OH:9850, V-A:GLU:543:CD:4908, V-B:PRO:540:CB:9857, H-B:TYR:531:OH:9767, V-A:ASP:366:CB:3212, H-A:LEU:363:N:3186, H-A:GLU:543:OE1:4909, V-A:PRO:540:CB:4885, V-A:PRO:540:CA:4883, H-B:TYR:539:O:9840, H-A:ASP:366:OD2:3215"]

$$$$
ZINC962922149-again1
     RDKit          3D

 69 74  0  0  0  0  0  0  0  0999 V2000
  130.1840  132.6060   56.8680 C   0  0  0  0  0  0  0  0  0  0  0  0
  131.1680  131.6510   57.2540 O   0  0  0  0  0  0  0  0  0  0  0  0
  131.2430  131.2590   58.5770 C   0  0  0  0  0  0  0  0  0  0  0  0
  132.2480  131.8410   59.3490 C   0  0  0  0  0  0  0  0  0  0  0  0
  132.3950  131.5060   60.6920 C   0  0  0  0  0  0  0  0  0  0  0  0
  131.5340  130.5840   61.2800 C   0  0  0  0  0  0  0  0  0  0  0  0
  130.5060  129.9770   60.5380 C   0  0  0  0  0  0  0  0  0  0  0  0
  129.5190  128.9480   61.1670 C   0  0  1  0  0  0  0  0  0  0  0  0
  130.1320  127.5510   61.4760 C   0  0  0  0  0  0  0  0  0  0  0  0
  129.7160  126.8190   62.6010 C   0  0  0  0  0  0  0  0  0  0  0  0
  130.2700  125.5750   62.8900 C   0  0  0  0  0  0  0  0  0  0  0  0
  131.2360  125.0260   62.0450 C   0  0  0  0  0  0  0  0  0  0  0  0
  131.9060  123.6830   62.3760 C   0  0  0  0  0  0  0  0  0  0  0  0
  132.0880  122.8740   61.2670 O   0  0  0  0  0  0  0  0  0  0  0  0
  133.1300  121.9710   61.5720 C   0  0  0  0  0  0  0  0  0  0  0  0
  133.8660  122.6420   62.7380 C   0  0  0  0  0  0  0  0  0  0  0  0
  133.1610  123.8510   62.9300 O   0  0  0  0  0  0  0  0  0  0  0  0
  131.6570  125.7380   60.9230 C   0  0  0  0  0  0  0  0  0  0  0  0
  131.1030  126.9820   60.6360 C   0  0  0  0  0  0  0  0  0  0  0  0
  129.1590  129.5940   62.5330 N   0  0  0  0  0  0  0  0  0  0  0  0
  128.0680  130.6840   62.4690 C   0  0  2  0  0  0  0  0  0  0  0  0
  127.9200  131.3260   63.8880 C   0  0  0  0  0  0  0  0  0  0  0  0
  128.3380  130.7490   64.9230 O   0  0  0  0  0  0  0  0  0  0  0  0
  127.3820  132.4550   63.9140 O   0  0  0  0  0  0  0  0  0  0  0  0
  126.7680  129.9890   62.0160 C   0  0  0  0  0  0  0  0  0  0  0  0
  126.9570  129.2490   60.6970 C   0  0  0  0  0  0  0  0  0  0  0  0
  125.8600  129.0620   59.8500 C   0  0  0  0  0  0  0  0  0  0  0  0
  125.9820  128.3780   58.6460 C   0  0  0  0  0  0  0  0  0  0  0  0
  127.2150  127.8680   58.2560 C   0  0  0  0  0  0  0  0  0  0  0  0
  127.2870  127.1950   57.0520 O   0  0  0  0  0  0  0  0  0  0  0  0
  127.0670  125.8360   56.9860 C   0  0  0  0  0  0  0  0  0  0  0  0
  128.0850  125.0190   56.4960 C   0  0  0  0  0  0  0  0  0  0  0  0
  127.9000  123.6400   56.4270 C   0  0  0  0  0  0  0  0  0  0  0  0
  126.6980  123.0810   56.8580 C   0  0  0  0  0  0  0  0  0  0  0  0
  126.5170  121.7250   56.7900 O   0  0  0  0  0  0  0  0  0  0  0  0
  125.6800  123.8900   57.3610 C   0  0  0  0  0  0  0  0  0  0  0  0
  125.8660  125.2690   57.4310 C   0  0  0  0  0  0  0  0  0  0  0  0
  128.3120  128.0350   59.1070 C   0  0  0  0  0  0  0  0  0  0  0  0
  128.2260  128.7410   60.3190 C   0  0  0  0  0  0  0  0  0  0  0  0
  130.3840  130.3250   59.1810 C   0  0  0  0  0  0  0  0  0  0  0  0
  129.7291  133.0475   57.7669 H   0  0  0  0  0  0  0  0  0  0  0  0
  130.6571  133.3985   56.2695 H   0  0  0  0  0  0  0  0  0  0  0  0
  129.4060  132.1094   56.2695 H   0  0  0  0  0  0  0  0  0  0  0  0
  132.9313  132.5720   58.8921 H   0  0  0  0  0  0  0  0  0  0  0  0
  133.1930  131.9707   61.2896 H   0  0  0  0  0  0  0  0  0  0  0  0
  131.6600  130.3263   62.3419 H   0  0  0  0  0  0  0  0  0  0  0  0
  128.9418  127.2348   63.2626 H   0  0  0  0  0  0  0  0  0  0  0  0
  129.9462  125.0240   63.7853 H   0  0  0  0  0  0  0  0  0  0  0  0
  131.2108  123.2094   63.0848 H   0  0  0  0  0  0  0  0  0  0  0  0
  132.7257  120.9937   61.8743 H   0  0  0  0  0  0  0  0  0  0  0  0
  133.7867  121.7730   60.7120 H   0  0  0  0  0  0  0  0  0  0  0  0
  133.8229  122.0155   63.6411 H   0  0  0  0  0  0  0  0  0  0  0  0
  134.9347  122.8008   62.5317 H   0  0  0  0  0  0  0  0  0  0  0  0
  132.4289  125.3156   60.2629 H   0  0  0  0  0  0  0  0  0  0  0  0
  131.4303  127.5273   59.7385 H   0  0  0  0  0  0  0  0  0  0  0  0
  128.8480  128.8670   63.1610 H   0  0  0  0  0  0  0  0  0  0  0  0
  129.9960  129.9940   62.9290 H   0  0  0  0  0  0  0  0  0  0  0  0
  128.3170  131.4895   61.7625 H   0  0  0  0  0  0  0  0  0  0  0  0
  126.4606  129.2687   62.7884 H   0  0  0  0  0  0  0  0  0  0  0  0
  125.9983  130.7611   61.8698 H   0  0  0  0  0  0  0  0  0  0  0  0
  124.8793  129.4649   60.1429 H   0  0  0  0  0  0  0  0  0  0  0  0
  125.1017  128.2401   58.0010 H   0  0  0  0  0  0  0  0  0  0  0  0
  129.0347  125.4635   56.1637 H   0  0  0  0  0  0  0  0  0  0  0  0
  128.6994  122.9947   56.0339 H   0  0  0  0  0  0  0  0  0  0  0  0
  125.5950  121.4740   56.7030 H   0  0  0  0  0  0  0  0  0  0  0  0
  124.7347  123.4418   57.7009 H   0  0  0  0  0  0  0  0  0  0  0  0
  125.0703  125.9119   57.8354 H   0  0  0  0  0  0  0  0  0  0  0  0
  129.2785  127.5973   58.8168 H   0  0  0  0  0  0  0  0  0  0  0  0
  129.5953  129.8537   58.5762 H   0  0  0  0  0  0  0  0  0  0  0  0
  1  2  1  0
  2  3  1  0
  3  4  2  0
  4  5  1  0
  5  6  2  0
  6  7  1  0
  8  7  1  6
  8  9  1  0
  9 10  2  0
 10 11  1  0
 11 12  2  0
 12 13  1  0
 13 14  1  0
 14 15  1  0
 15 16  1  0
 16 17  1  0
 12 18  1  0
 18 19  2  0
  8 20  1  0
 20 21  1  0
 21 22  1  0
 22 23  2  0
 22 24  1  0
 21 25  1  0
 25 26  1  0
 26 27  2  0
 27 28  1  0
 28 29  2  0
 29 30  1  0
 30 31  1  0
 31 32  2  0
 32 33  1  0
 33 34  2  0
 34 35  1  0
 34 36  1  0
 36 37  2  0
 29 38  1  0
 38 39  2  0
  7 40  2  0
 40  3  1  0
 39  8  1  0
 19  9  1  0
 39 26  1  0
 17 13  1  0
 37 31  1  0
  1 41  1  0
  1 42  1  0
  1 43  1  0
  4 44  1  0
  5 45  1  0
  6 46  1  0
 10 47  1  0
 11 48  1  0
 13 49  1  0
 15 50  1  0
 15 51  1  0
 16 52  1  0
 16 53  1  0
 18 54  1  0
 19 55  1  0
 20 56  1  0
 20 57  1  0
 21 58  1  6
 25 59  1  0
 25 60  1  0
 27 61  1  0
 28 62  1  0
 32 63  1  0
 33 64  1  0
 35 65  1  0
 36 66  1  0
 37 67  1  0
 38 68  1  0
 40 69  1  0
M  CHG  2  20   1  24  -1
M  END
>  <Binding energies>  (1) 
[-7.66]

>  <Ligand effiencies>  (1) 
[-0.17813953488372095]

>  <Interactions>  (1) 
["V-A:GLY:454:CA:4049, V-B:ASP:366:CG:8184, V-B:TYR:539:CE2:9848, H-B:TYR:539:N:9842, V-A:ASP:366:CG:3213, V-B:TYR:539:CZ:9849, V-B:TYR:531:CZ:9766, V-B:TYR:531:CE2:9765, V-A:GLU:543:CD:4908, V-B:ASP:366:CB:8183, H-B:TYR:484:OH:9319, H-A:GLY:454:N:4050, V-B:PRO:540:N:9856, H-B:TYR:531:OH:9767, V-A:LEU:475:CD2:4259, H-A:GLU:543:OE1:4909, V-B:TYR:539:CD1:9845, V-A:PRO:540:CB:4885, V-A:PRO:540:CA:4883, V-B:TYR:539:CE1:9847"]

$$$$
ZINC962962803
     RDKit          3D

 61 65  0  0  0  0  0  0  0  0999 V2000
  129.2870  132.4960   57.8360 C   0  0  0  0  0  0  0  0  0  0  0  0
  130.4970  131.7740   57.2040 C   0  0  2  0  0  0  0  0  0  0  0  0
  130.1780  130.3340   56.7450 C   0  0  0  0  0  0  0  0  0  0  0  0
  130.1860  129.3550   57.9230 C   0  0  0  0  0  0  0  0  0  0  0  0
  129.4950  128.1360   57.8570 C   0  0  0  0  0  0  0  0  0  0  0  0
  128.5960  127.6840   56.4480 Cl  0  0  0  0  0  0  0  0  0  0  0  0
  129.5190  127.2450   58.9220 C   0  0  0  0  0  0  0  0  0  0  0  0
  130.2460  127.5320   60.0740 C   0  0  0  0  0  0  0  0  0  0  0  0
  130.2270  126.5280   61.2030 C   0  0  0  0  0  0  0  0  0  0  0  0
  129.6180  126.8650   62.2200 O   0  0  0  0  0  0  0  0  0  0  0  0
  130.9020  125.3300   61.0700 N   0  0  0  0  0  0  0  0  0  0  0  0
  132.2580  125.3230   60.4070 C   0  0  2  0  0  0  0  0  0  0  0  0
  132.2160  125.1370   58.8450 C   0  0  0  0  0  0  0  0  0  0  0  0
  131.0950  125.1200   58.2830 O   0  0  0  0  0  0  0  0  0  0  0  0
  133.2820  124.9420   58.2150 O   0  0  0  0  0  0  0  0  0  0  0  0
  133.1390  124.2550   61.1060 C   0  0  0  0  0  0  0  0  0  0  0  0
  132.4990  122.8910   61.0160 C   0  0  0  0  0  0  0  0  0  0  0  0
  133.2410  121.7620   60.6560 C   0  0  0  0  0  0  0  0  0  0  0  0
  132.6440  120.5070   60.5940 C   0  0  0  0  0  0  0  0  0  0  0  0
  131.2960  120.3760   60.8960 C   0  0  0  0  0  0  0  0  0  0  0  0
  130.5540  121.5010   61.2470 C   0  0  0  0  0  0  0  0  0  0  0  0
  131.1270  122.7870   61.3060 C   0  0  0  0  0  0  0  0  0  0  0  0
  130.3000  124.0640   61.6700 C   0  0  1  0  0  0  0  0  0  0  0  0
  130.3840  124.1420   63.2270 C   0  0  0  0  0  0  0  0  0  0  0  0
  128.8280  123.8250   61.1910 C   0  0  0  0  0  0  0  0  0  0  0  0
  127.7740  123.5260   62.0710 C   0  0  0  0  0  0  0  0  0  0  0  0
  126.4800  123.3370   61.5950 C   0  0  0  0  0  0  0  0  0  0  0  0
  126.2160  123.4400   60.2320 C   0  0  0  0  0  0  0  0  0  0  0  0
  127.2390  123.7290   59.3160 C   0  0  0  0  0  0  0  0  0  0  0  0
  127.0470  123.8360   57.9320 N   0  0  0  0  0  0  0  0  0  0  0  0
  126.7770  122.8680   57.2220 N   0  0  0  0  0  0  0  0  0  0  0  0
  126.5160  122.0620   56.4590 N   0  0  0  0  0  0  0  0  0  0  0  0
  128.5300  123.9160   59.8230 C   0  0  0  0  0  0  0  0  0  0  0  0
  130.9390  128.7540   60.1690 C   0  0  0  0  0  0  0  0  0  0  0  0
  131.6290  129.0340   61.3300 O   0  0  0  0  0  0  0  0  0  0  0  0
  130.9200  129.6710   59.0920 C   0  0  0  0  0  0  0  0  0  0  0  0
  131.6720  130.9820   59.1460 C   0  0  0  0  0  0  0  0  0  0  0  0
  132.4010  131.3580   60.0630 O   0  0  0  0  0  0  0  0  0  0  0  0
  131.6450  131.7990   58.0570 O   0  0  0  0  0  0  0  0  0  0  0  0
  129.3642  132.4499   58.9323 H   0  0  0  0  0  0  0  0  0  0  0  0
  129.2777  133.5474   57.5129 H   0  0  0  0  0  0  0  0  0  0  0  0
  128.3572  132.0049   57.5129 H   0  0  0  0  0  0  0  0  0  0  0  0
  130.7372  132.3470   56.2963 H   0  0  0  0  0  0  0  0  0  0  0  0
  129.1832  130.3205   56.2757 H   0  0  0  0  0  0  0  0  0  0  0  0
  130.9525  130.0200   56.0298 H   0  0  0  0  0  0  0  0  0  0  0  0
  128.9571  126.3017   58.8545 H   0  0  0  0  0  0  0  0  0  0  0  0
  132.7022  126.3212   60.5348 H   0  0  0  0  0  0  0  0  0  0  0  0
  134.1242  124.2242   60.6177 H   0  0  0  0  0  0  0  0  0  0  0  0
  133.2462  124.5252   62.1669 H   0  0  0  0  0  0  0  0  0  0  0  0
  134.3100  121.8674   60.4189 H   0  0  0  0  0  0  0  0  0  0  0  0
  133.2360  119.6252   60.3078 H   0  0  0  0  0  0  0  0  0  0  0  0
  130.8153  119.3873   60.8583 H   0  0  0  0  0  0  0  0  0  0  0  0
  129.4868  121.3820   61.4857 H   0  0  0  0  0  0  0  0  0  0  0  0
  129.6458  123.4565   63.6688 H   0  0  0  0  0  0  0  0  0  0  0  0
  131.3938  123.8541   63.5546 H   0  0  0  0  0  0  0  0  0  0  0  0
  130.1715  125.1704   63.5546 H   0  0  0  0  0  0  0  0  0  0  0  0
  127.9742  123.4403   63.1492 H   0  0  0  0  0  0  0  0  0  0  0  0
  125.6649  123.1060   62.2965 H   0  0  0  0  0  0  0  0  0  0  0  0
  125.1888  123.2924   59.8672 H   0  0  0  0  0  0  0  0  0  0  0  0
  129.3447  124.1437   59.1199 H   0  0  0  0  0  0  0  0  0  0  0  0
  132.4350  129.5310   61.1740 H   0  0  0  0  0  0  0  0  0  0  0  0
  1  2  1  0
  2  3  1  0
  3  4  1  0
  4  5  2  0
  5  6  1  0
  5  7  1  0
  7  8  2  0
  8  9  1  0
  9 10  2  0
  9 11  1  0
 11 12  1  0
 12 13  1  0
 13 14  2  0
 13 15  1  0
 12 16  1  0
 16 17  1  0
 17 18  2  0
 18 19  1  0
 19 20  2  0
 20 21  1  0
 21 22  2  0
 22 23  1  0
 23 24  1  1
 23 25  1  0
 25 26  2  0
 26 27  1  0
 27 28  2  0
 28 29  1  0
 29 30  1  0
 30 31  2  0
 31 32  2  0
 29 33  2  0
  8 34  1  0
 34 35  1  0
 34 36  2  0
 36 37  1  0
 37 38  2  0
 37 39  1  0
 39  2  1  0
 36  4  1  0
 23 11  1  0
 33 25  1  0
 22 17  1  0
  1 40  1  0
  1 41  1  0
  1 42  1  0
  2 43  1  6
  3 44  1  0
  3 45  1  0
  7 46  1  0
 12 47  1  6
 16 48  1  0
 16 49  1  0
 18 50  1  0
 19 51  1  0
 20 52  1  0
 21 53  1  0
 24 54  1  0
 24 55  1  0
 24 56  1  0
 26 57  1  0
 27 58  1  0
 28 59  1  0
 33 60  1  0
 35 61  1  0
M  CHG  3  15  -1  31   1  32  -1
M  END
>  <Binding energies>  (1) 
[-8.78]

>  <Ligand effiencies>  (1) 
[-0.21949999999999997]

>  <Interactions>  (1) 
["V-A:ILE:369:CG2:3237, V-B:PRO:540:CA:9855, V-B:TYR:539:CE2:9848, H-B:TYR:539:N:9842, V-B:GLU:543:CG:9879, V-B:TYR:539:C:9839, V-A:ASP:366:CG:3213, H-B:TYR:539:OH:9850, V-B:PRO:540:CB:9857, V-B:PRO:540:N:9856, V-B:TYR:539:CD2:9846, V-B:PRO:540:CD:9859, V-A:SER:385:CB:3409, V-A:MET:535:CE:4835, V-B:GLU:543:CD:9880, V-A:ASP:366:CB:3212, V-A:LEU:475:CD2:4259, H-A:ARG:545:NH2:4928, H-A:GLU:543:OE1:4909, H-A:ASP:366:OD1:3214, V-A:PRO:540:CB:4885, V-B:PRO:540:C:9853, H-A:ASP:366:OD2:3215"]

$$$$
ZINC962965595
     RDKit          3D

 85 90  0  0  0  0  0  0  0  0999 V2000
  130.6640  119.9050   60.8880 C   0  0  0  0  0  0  0  0  0  0  0  0
  129.5200  120.5000   61.7160 C   0  0  0  0  0  0  0  0  0  0  0  0
  128.9390  121.5770   60.9960 O   0  0  0  0  0  0  0  0  0  0  0  0
  128.7160  122.7760   61.5880 C   0  0  0  0  0  0  0  0  0  0  0  0
  127.7720  123.0050   62.3490 O   0  0  0  0  0  0  0  0  0  0  0  0
  129.7950  123.8610   61.2300 C   0  0  2  0  0  0  0  0  0  0  0  0
  130.9780  123.0930   60.5420 C   0  0  0  0  0  0  0  0  0  0  0  0
  132.3460  123.5230   60.9020 C   0  0  0  0  0  0  0  0  0  0  0  0
  133.4150  123.8590   61.1850 N   0  0  0  0  0  0  0  0  0  0  0  0
  130.3840  124.4050   62.5850 C   0  0  0  0  0  0  0  0  0  0  0  0
  129.5250  125.3780   63.4160 C   0  0  0  0  0  0  0  0  0  0  0  0
  129.0160  126.5030   62.5090 N   0  0  2  0  0  0  0  0  0  0  0  0
  128.1630  127.5260   63.2930 C   0  0  0  0  0  0  0  0  0  0  0  0
  127.9780  128.8460   62.5550 C   0  0  0  0  0  0  0  0  0  0  0  0
  129.0810  129.6650   62.2980 C   0  0  0  0  0  0  0  0  0  0  0  0
  128.9030  130.8850   61.6490 C   0  0  0  0  0  0  0  0  0  0  0  0
  127.6260  131.2760   61.2550 C   0  0  0  0  0  0  0  0  0  0  0  0
  126.5240  130.4590   61.5000 C   0  0  0  0  0  0  0  0  0  0  0  0
  126.7010  129.2400   62.1480 C   0  0  0  0  0  0  0  0  0  0  0  0
  128.2640  125.9450   61.2780 C   0  0  0  0  0  0  0  0  0  0  0  0
  129.1720  125.0580   60.3120 C   0  0  2  0  0  0  0  0  0  0  0  0
  128.2190  124.5910   59.1320 C   0  0  0  0  0  0  0  0  0  0  0  0
  126.9360  124.0640   59.4040 C   0  0  0  0  0  0  0  0  0  0  0  0
  126.0680  123.6210   58.4130 C   0  0  0  0  0  0  0  0  0  0  0  0
  126.4440  123.7100   57.0840 C   0  0  0  0  0  0  0  0  0  0  0  0
  127.6750  124.2620   56.7650 C   0  0  0  0  0  0  0  0  0  0  0  0
  128.5530  124.7210   57.7550 C   0  0  0  0  0  0  0  0  0  0  0  0
  129.8410  125.3830   57.3050 C   0  0  0  0  0  0  0  0  0  0  0  0
  130.9210  125.2980   58.3960 C   0  0  1  0  0  0  0  0  0  0  0  0
  132.3300  125.8390   57.9450 C   0  0  0  0  0  0  0  0  0  0  0  0
  133.1920  124.9830   57.6400 O   0  0  0  0  0  0  0  0  0  0  0  0
  132.5290  127.0720   57.8640 O   0  0  0  0  0  0  0  0  0  0  0  0
  130.3160  125.8470   59.6650 N   0  0  0  0  0  0  0  0  0  0  0  0
  130.6250  127.1290   60.0310 C   0  0  0  0  0  0  0  0  0  0  0  0
  131.4750  127.3440   60.8970 O   0  0  0  0  0  0  0  0  0  0  0  0
  129.9780  128.2950   59.2990 C   0  0  0  0  0  0  0  0  0  0  0  0
  128.5980  128.3030   59.0870 C   0  0  0  0  0  0  0  0  0  0  0  0
  127.9640  129.3740   58.4760 C   0  0  0  0  0  0  0  0  0  0  0  0
  126.2490  129.2780   58.2610 Cl  0  0  0  0  0  0  0  0  0  0  0  0
  128.6920  130.4900   58.0460 C   0  0  0  0  0  0  0  0  0  0  0  0
  130.0950  130.5040   58.2220 C   0  0  0  0  0  0  0  0  0  0  0  0
  130.7300  129.4030   58.8480 C   0  0  0  0  0  0  0  0  0  0  0  0
  132.1000  129.3940   59.0080 O   0  0  0  0  0  0  0  0  0  0  0  0
  130.8750  131.7010   57.7200 C   0  0  0  0  0  0  0  0  0  0  0  0
  132.0960  131.8390   57.7690 O   0  0  0  0  0  0  0  0  0  0  0  0
  130.2060  132.6960   57.0750 O   0  0  0  0  0  0  0  0  0  0  0  0
  128.8470  132.9580   57.4370 C   0  0  2  0  0  0  0  0  0  0  0  0
  128.7400  133.6960   58.7890 C   0  0  0  0  0  0  0  0  0  0  0  0
  127.9950  131.6720   57.3650 C   0  0  0  0  0  0  0  0  0  0  0  0
  131.4349  119.5041   61.5626 H   0  0  0  0  0  0  0  0  0  0  0  0
  130.2747  119.0951   60.2535 H   0  0  0  0  0  0  0  0  0  0  0  0
  131.1036  120.6887   60.2535 H   0  0  0  0  0  0  0  0  0  0  0  0
  128.7590  119.7277   61.9019 H   0  0  0  0  0  0  0  0  0  0  0  0
  129.9085  120.8636   62.6787 H   0  0  0  0  0  0  0  0  0  0  0  0
  130.8827  122.0292   60.8050 H   0  0  0  0  0  0  0  0  0  0  0  0
  130.8791  123.3109   59.4683 H   0  0  0  0  0  0  0  0  0  0  0  0
  130.5965  123.5332   63.2212 H   0  0  0  0  0  0  0  0  0  0  0  0
  131.2558  125.0033   62.2816 H   0  0  0  0  0  0  0  0  0  0  0  0
  128.6693  124.8372   63.8466 H   0  0  0  0  0  0  0  0  0  0  0  0
  130.1319  125.8047   64.2282 H   0  0  0  0  0  0  0  0  0  0  0  0
  129.8290  126.9920   62.1590 H   0  0  0  0  0  0  0  0  0  0  0  0
  127.1715  127.0864   63.4766 H   0  0  0  0  0  0  0  0  0  0  0  0
  128.6972  127.7474   64.2287 H   0  0  0  0  0  0  0  0  0  0  0  0
  130.0875  129.3471   62.6075 H   0  0  0  0  0  0  0  0  0  0  0  0
  129.7668  131.5359   61.4489 H   0  0  0  0  0  0  0  0  0  0  0  0
  127.4855  132.2403   60.7448 H   0  0  0  0  0  0  0  0  0  0  0  0
  125.5195  130.7758   61.1829 H   0  0  0  0  0  0  0  0  0  0  0  0
  125.8363  128.5875   62.3394 H   0  0  0  0  0  0  0  0  0  0  0  0
  127.4289  125.3242   61.6346 H   0  0  0  0  0  0  0  0  0  0  0  0
  127.9260  126.8117   60.6910 H   0  0  0  0  0  0  0  0  0  0  0  0
  126.6082  124.0014   60.4521 H   0  0  0  0  0  0  0  0  0  0  0  0
  125.0876  123.2020   58.6835 H   0  0  0  0  0  0  0  0  0  0  0  0
  125.7742  123.3471   56.2905 H   0  0  0  0  0  0  0  0  0  0  0  0
  127.9695  124.3415   55.7081 H   0  0  0  0  0  0  0  0  0  0  0  0
  130.2062  124.8780   56.3986 H   0  0  0  0  0  0  0  0  0  0  0  0
  129.6344  126.4441   57.1016 H   0  0  0  0  0  0  0  0  0  0  0  0
  131.2061  124.2569   58.6077 H   0  0  0  0  0  0  0  0  0  0  0  0
  127.9997  127.4392   59.4124 H   0  0  0  0  0  0  0  0  0  0  0  0
  132.4230  128.5770   59.3950 H   0  0  0  0  0  0  0  0  0  0  0  0
  128.4233  133.6509   56.6951 H   0  0  0  0  0  0  0  0  0  0  0  0
  128.8449  132.9725   59.6109 H   0  0  0  0  0  0  0  0  0  0  0  0
  129.5383  134.4495   58.8596 H   0  0  0  0  0  0  0  0  0  0  0  0
  127.7606  134.1917   58.8596 H   0  0  0  0  0  0  0  0  0  0  0  0
  127.0323  131.8541   57.8650 H   0  0  0  0  0  0  0  0  0  0  0  0
  127.8476  131.4180   56.3049 H   0  0  0  0  0  0  0  0  0  0  0  0
  1  2  1  0
  2  3  1  0
  3  4  1  0
  4  5  2  0
  4  6  1  0
  6  7  1  6
  7  8  1  0
  8  9  3  0
  6 10  1  0
 10 11  1  0
 11 12  1  0
 12 13  1  0
 13 14  1  0
 14 15  2  0
 15 16  1  0
 16 17  2  0
 17 18  1  0
 18 19  2  0
 12 20  1  0
 20 21  1  0
 21 22  1  0
 22 23  2  0
 23 24  1  0
 24 25  2  0
 25 26  1  0
 26 27  2  0
 27 28  1  0
 28 29  1  0
 29 30  1  0
 30 31  2  0
 30 32  1  0
 29 33  1  0
 33 34  1  0
 34 35  2  0
 34 36  1  0
 36 37  2  0
 37 38  1  0
 38 39  1  0
 38 40  2  0
 40 41  1  0
 41 42  2  0
 42 43  1  0
 41 44  1  0
 44 45  2  0
 44 46  1  0
 46 47  1  0
 47 48  1  0
 47 49  1  0
 21  6  1  0
 27 22  1  0
 42 36  1  0
 19 14  1  0
 21 33  1  6
 49 40  1  0
  1 50  1  0
  1 51  1  0
  1 52  1  0
  2 53  1  0
  2 54  1  0
  7 55  1  0
  7 56  1  0
 10 57  1  0
 10 58  1  0
 11 59  1  0
 11 60  1  0
 12 61  1  6
 13 62  1  0
 13 63  1  0
 15 64  1  0
 16 65  1  0
 17 66  1  0
 18 67  1  0
 19 68  1  0
 20 69  1  0
 20 70  1  0
 23 71  1  0
 24 72  1  0
 25 73  1  0
 26 74  1  0
 28 75  1  0
 28 76  1  0
 29 77  1  1
 37 78  1  0
 43 79  1  0
 47 80  1  6
 48 81  1  0
 48 82  1  0
 48 83  1  0
 49 84  1  0
 49 85  1  0
M  CHG  2  12   1  32  -1
M  END
>  <Binding energies>  (1) 
[-7.93]

>  <Ligand effiencies>  (1) 
[-0.15549019607843137]

>  <Interactions>  (1) 
["V-B:PRO:540:CA:9855, V-B:ALA:541:CB:9864, H-A:TYR:531:OH:4795, V-B:TYR:539:CE2:9848, V-B:GLU:543:CG:9879, V-A:ASP:366:CG:3213, V-A:TYR:539:CD1:4873, V-B:TYR:539:CZ:9849, H-B:TYR:539:OH:9850, H-B:ALA:541:N:9863, V-A:TYR:539:CA:4869, V-A:GLU:543:CD:4908, V-B:PRO:540:CB:9857, V-A:TYR:539:CB:4871, V-B:TYR:539:CD2:9846, V-B:GLU:543:CD:9880, V-A:MET:535:CE:4835, V-A:TYR:539:C:4867, V-A:ASP:366:CB:3212, V-A:LEU:475:CD2:4259, H-A:ARG:545:NH2:4928, H-A:GLU:543:OE1:4909, H-A:ASP:366:OD1:3214, V-A:PRO:540:N:4884, V-A:TYR:539:CG:4872, H-A:TYR:539:N:4870, V-A:PRO:540:CA:4883, V-B:PRO:540:C:9853, H-A:ASP:366:OD2:3215, V-B:ALA:541:CA:9862, V-A:TYR:539:CE1:4875"]

$$$$
ZINC962965595-again1
     RDKit          3D

 84 89  0  0  0  0  0  0  0  0999 V2000
  132.8740  130.4430   57.9050 C   0  0  0  0  0  0  0  0  0  0  0  0
  131.7340  131.2870   57.3300 C   0  0  0  0  0  0  0  0  0  0  0  0
  130.5040  130.8520   57.8940 O   0  0  0  0  0  0  0  0  0  0  0  0
  130.4320  129.7080   58.6200 C   0  0  0  0  0  0  0  0  0  0  0  0
  130.5980  128.5800   58.1490 O   0  0  0  0  0  0  0  0  0  0  0  0
  130.1660  129.9580   60.1500 C   0  0  2  0  0  0  0  0  0  0  0  0
  130.6110  131.4430   60.3990 C   0  0  0  0  0  0  0  0  0  0  0  0
  131.4460  131.7040   61.5900 C   0  0  0  0  0  0  0  0  0  0  0  0
  132.1000  131.9080   62.5220 N   0  0  0  0  0  0  0  0  0  0  0  0
  131.1960  129.1020   60.9790 C   0  0  0  0  0  0  0  0  0  0  0  0
  130.9750  127.5800   61.0750 C   0  0  0  0  0  0  0  0  0  0  0  0
  129.5080  127.2940   61.4200 N   0  0  2  0  0  0  0  0  0  0  0  0
  129.2450  125.7740   61.5110 C   0  0  0  0  0  0  0  0  0  0  0  0
  128.2790  125.2710   60.4480 C   0  0  0  0  0  0  0  0  0  0  0  0
  128.7450  124.9400   59.1730 C   0  0  0  0  0  0  0  0  0  0  0  0
  127.8500  124.5020   58.1990 C   0  0  0  0  0  0  0  0  0  0  0  0
  126.4950  124.3930   58.5060 C   0  0  0  0  0  0  0  0  0  0  0  0
  126.0270  124.7100   59.7800 C   0  0  0  0  0  0  0  0  0  0  0  0
  126.9220  125.1420   60.7540 C   0  0  0  0  0  0  0  0  0  0  0  0
  128.5680  127.9920   60.4080 C   0  0  0  0  0  0  0  0  0  0  0  0
  128.6200  129.5810   60.5600 C   0  0  2  0  0  0  0  0  0  0  0  0
  127.4970  130.1910   59.6310 C   0  0  0  0  0  0  0  0  0  0  0  0
  127.2660  129.6710   58.3410 C   0  0  0  0  0  0  0  0  0  0  0  0
  126.3070  130.1890   57.4780 C   0  0  0  0  0  0  0  0  0  0  0  0
  125.5160  131.2510   57.8910 C   0  0  0  0  0  0  0  0  0  0  0  0
  125.6810  131.7660   59.1690 C   0  0  0  0  0  0  0  0  0  0  0  0
  126.6380  131.2450   60.0500 C   0  0  0  0  0  0  0  0  0  0  0  0
  126.7060  131.8170   61.4590 C   0  0  0  0  0  0  0  0  0  0  0  0
  128.0880  131.5280   62.0960 C   0  0  1  0  0  0  0  0  0  0  0  0
  128.3340  132.2430   63.4650 C   0  0  0  0  0  0  0  0  0  0  0  0
  129.5060  132.2140   63.9070 O   0  0  0  0  0  0  0  0  0  0  0  0
  127.3990  132.8610   64.0280 O   0  0  0  0  0  0  0  0  0  0  0  0
  128.3030  130.0310   62.0000 N   0  0  0  0  0  0  0  0  0  0  0  0
  127.4900  129.2760   62.8310 C   0  0  0  0  0  0  0  0  0  0  0  0
  126.3250  128.9780   62.5660 O   0  0  0  0  0  0  0  0  0  0  0  0
  128.0340  128.7620   64.1570 C   0  0  0  0  0  0  0  0  0  0  0  0
  128.6000  127.4880   64.1280 C   0  0  0  0  0  0  0  0  0  0  0  0
  129.1180  126.9020   65.2670 C   0  0  0  0  0  0  0  0  0  0  0  0
  129.7930  125.3140   65.1140 Cl  0  0  0  0  0  0  0  0  0  0  0  0
  129.0980  127.5730   66.4950 C   0  0  0  0  0  0  0  0  0  0  0  0
  128.5760  128.8920   66.5670 C   0  0  0  0  0  0  0  0  0  0  0  0
  128.0460  129.4970   65.3780 C   0  0  0  0  0  0  0  0  0  0  0  0
  127.6000  130.7070   65.3910 O   0  0  0  0  0  0  0  0  0  0  0  0
  128.6380  129.5820   67.9330 C   0  0  0  0  0  0  0  0  0  0  0  0
  128.2720  130.7290   68.1910 O   0  0  0  0  0  0  0  0  0  0  0  0
  129.2380  128.9410   68.9650 O   0  0  0  0  0  0  0  0  0  0  0  0
  129.0880  127.5280   69.0250 C   0  0  2  0  0  0  0  0  0  0  0  0
  129.7560  126.9940   70.3010 C   0  0  0  0  0  0  0  0  0  0  0  0
  129.6600  126.8900   67.7480 C   0  0  0  0  0  0  0  0  0  0  0  0
  132.8340  130.4726   59.0039 H   0  0  0  0  0  0  0  0  0  0  0  0
  132.7693  129.4030   57.5622 H   0  0  0  0  0  0  0  0  0  0  0  0
  133.8381  130.8467   57.5622 H   0  0  0  0  0  0  0  0  0  0  0  0
  131.8986  132.3461   57.5773 H   0  0  0  0  0  0  0  0  0  0  0  0
  131.7021  131.1715   56.2365 H   0  0  0  0  0  0  0  0  0  0  0  0
  131.1802  131.7709   59.5167 H   0  0  0  0  0  0  0  0  0  0  0  0
  129.6763  131.9940   60.5800 H   0  0  0  0  0  0  0  0  0  0  0  0
  132.1868  129.2589   60.5277 H   0  0  0  0  0  0  0  0  0  0  0  0
  131.0738  129.4585   62.0124 H   0  0  0  0  0  0  0  0  0  0  0  0
  131.2221  127.1126   60.1104 H   0  0  0  0  0  0  0  0  0  0  0  0
  131.6228  127.1656   61.8615 H   0  0  0  0  0  0  0  0  0  0  0  0
  129.3190  127.6920   62.3310 H   0  0  0  0  0  0  0  0  0  0  0  0
  130.2023  125.2453   61.3926 H   0  0  0  0  0  0  0  0  0  0  0  0
  128.7853  125.5786   62.4911 H   0  0  0  0  0  0  0  0  0  0  0  0
  129.8164  125.0250   58.9386 H   0  0  0  0  0  0  0  0  0  0  0  0
  128.2112  124.2435   57.1927 H   0  0  0  0  0  0  0  0  0  0  0  0
  125.7877  124.0533   57.7351 H   0  0  0  0  0  0  0  0  0  0  0  0
  124.9561  124.6192   60.0142 H   0  0  0  0  0  0  0  0  0  0  0  0
  126.5610  125.3819   61.7650 H   0  0  0  0  0  0  0  0  0  0  0  0
  128.8764  127.7203   59.3877 H   0  0  0  0  0  0  0  0  0  0  0  0
  127.5385  127.6599   60.6076 H   0  0  0  0  0  0  0  0  0  0  0  0
  127.8715  128.8174   58.0023 H   0  0  0  0  0  0  0  0  0  0  0  0
  126.1763  129.7593   56.4739 H   0  0  0  0  0  0  0  0  0  0  0  0
  124.7650  131.6809   57.2119 H   0  0  0  0  0  0  0  0  0  0  0  0
  125.0462  132.6020   59.4978 H   0  0  0  0  0  0  0  0  0  0  0  0
  126.5476  132.9047   61.4161 H   0  0  0  0  0  0  0  0  0  0  0  0
  125.9255  131.3439   62.0729 H   0  0  0  0  0  0  0  0  0  0  0  0
  128.9094  132.0046   61.5409 H   0  0  0  0  0  0  0  0  0  0  0  0
  128.6349  126.9369   63.1766 H   0  0  0  0  0  0  0  0  0  0  0  0
  128.0227  127.2582   69.0739 H   0  0  0  0  0  0  0  0  0  0  0  0
  129.2425  127.4045   71.1830 H   0  0  0  0  0  0  0  0  0  0  0  0
  129.6911  125.8960   70.3169 H   0  0  0  0  0  0  0  0  0  0  0  0
  130.8127  127.2991   70.3169 H   0  0  0  0  0  0  0  0  0  0  0  0
  130.7552  126.9930   67.7536 H   0  0  0  0  0  0  0  0  0  0  0  0
  129.3736  125.8281   67.7274 H   0  0  0  0  0  0  0  0  0  0  0  0
  1  2  1  0
  2  3  1  0
  3  4  1  0
  4  5  2  0
  4  6  1  0
  6  7  1  6
  7  8  1  0
  8  9  3  0
  6 10  1  0
 10 11  1  0
 11 12  1  0
 12 13  1  0
 13 14  1  0
 14 15  2  0
 15 16  1  0
 16 17  2  0
 17 18  1  0
 18 19  2  0
 12 20  1  0
 20 21  1  0
 21 22  1  0
 22 23  2  0
 23 24  1  0
 24 25  2  0
 25 26  1  0
 26 27  2  0
 27 28  1  0
 28 29  1  0
 29 30  1  0
 30 31  2  0
 30 32  1  0
 29 33  1  0
 33 34  1  0
 34 35  2  0
 34 36  1  0
 36 37  2  0
 37 38  1  0
 38 39  1  0
 38 40  2  0
 40 41  1  0
 41 42  2  0
 42 43  1  0
 41 44  1  0
 44 45  2  0
 44 46  1  0
 46 47  1  0
 47 48  1  0
 47 49  1  0
 21  6  1  0
 27 22  1  0
 42 36  1  0
 19 14  1  0
 21 33  1  1
 49 40  1  0
  1 50  1  0
  1 51  1  0
  1 52  1  0
  2 53  1  0
  2 54  1  0
  7 55  1  0
  7 56  1  0
 10 57  1  0
 10 58  1  0
 11 59  1  0
 11 60  1  0
 12 61  1  1
 13 62  1  0
 13 63  1  0
 15 64  1  0
 16 65  1  0
 17 66  1  0
 18 67  1  0
 19 68  1  0
 20 69  1  0
 20 70  1  0
 23 71  1  0
 24 72  1  0
 25 73  1  0
 26 74  1  0
 28 75  1  0
 28 76  1  0
 29 77  1  6
 37 78  1  0
 47 79  1  1
 48 80  1  0
 48 81  1  0
 48 82  1  0
 49 83  1  0
 49 84  1  0
M  CHG  3  12   1  32  -1  43  -1
M  END
>  <Binding energies>  (1) 
[-7.28]

>  <Ligand effiencies>  (1) 
[-0.1456]

>  <Interactions>  (1) 
["V-A:GLU:543:CA:4904, V-A:GLU:543:C:4902, H-A:ALA:541:N:4891, H-A:TYR:531:OH:4795, V-B:GLU:543:CG:9879, V-A:ASP:366:CG:3213, V-A:TYR:539:CD1:4873, V-A:LEU:363:CD1:3189, V-B:TYR:484:CE2:9317, V-A:TYR:539:CZ:4877, V-A:TYR:531:CE2:4793, V-A:ALA:541:CB:4892, V-A:GLU:543:CD:4908, H-B:TYR:484:OH:9319, V-B:HIS:456:CE1:9041, V-B:TYR:484:CZ:9318, V-A:HIS:456:CE1:4070, V-A:GLU:543:CG:4907, V-B:GLU:543:CD:9880, V-A:ASP:366:CB:3212, H-A:GLU:543:OE1:4909, H-B:ARG:545:NH2:9900, V-A:GLU:543:CB:4906, V-A:PRO:540:CB:4885, V-A:PRO:540:CA:4883, V-A:TYR:539:CE1:4875"]

$$$$
ZINC962974792
     RDKit          3D

 76 81  0  0  0  0  0  0  0  0999 V2000
  132.8070  131.3570   62.2320 C   0  0  0  0  0  0  0  0  0  0  0  0
  131.7580  132.1990   61.7670 O   0  0  0  0  0  0  0  0  0  0  0  0
  130.7390  131.6490   61.0140 C   0  0  0  0  0  0  0  0  0  0  0  0
  129.4660  132.2230   60.8560 C   0  0  0  0  0  0  0  0  0  0  0  0
  128.4950  131.5900   60.0800 C   0  0  0  0  0  0  0  0  0  0  0  0
  128.7810  130.3780   59.4550 C   0  0  0  0  0  0  0  0  0  0  0  0
  130.0430  129.7940   59.6000 C   0  0  0  0  0  0  0  0  0  0  0  0
  130.3560  128.4650   58.9300 C   0  0  0  0  0  0  0  0  0  0  0  0
  129.1270  127.5280   58.8740 C   0  0  0  0  0  0  0  0  0  0  0  0
  129.3090  126.0910   59.5010 C   0  0  2  0  0  0  0  0  0  0  0  0
  130.7720  125.5630   59.2940 C   0  0  0  0  0  0  0  0  0  0  0  0
  131.4690  125.9060   58.1240 C   0  0  0  0  0  0  0  0  0  0  0  0
  132.7720  125.4680   57.9050 C   0  0  0  0  0  0  0  0  0  0  0  0
  133.4050  124.6840   58.8620 C   0  0  0  0  0  0  0  0  0  0  0  0
  134.6730  124.2600   58.6550 F   0  0  0  0  0  0  0  0  0  0  0  0
  132.7440  124.3410   60.0360 C   0  0  0  0  0  0  0  0  0  0  0  0
  131.4410  124.7800   60.2520 C   0  0  0  0  0  0  0  0  0  0  0  0
  128.3690  125.1790   58.6430 C   0  0  0  0  0  0  0  0  0  0  0  0
  128.7240  124.7930   57.3340 C   0  0  0  0  0  0  0  0  0  0  0  0
  127.9290  123.9440   56.5700 C   0  0  0  0  0  0  0  0  0  0  0  0
  126.7410  123.4570   57.0970 C   0  0  0  0  0  0  0  0  0  0  0  0
  126.3540  123.8350   58.3780 C   0  0  0  0  0  0  0  0  0  0  0  0
  127.1460  124.6970   59.1440 C   0  0  0  0  0  0  0  0  0  0  0  0
  126.6970  125.1490   60.5120 C   0  0  0  0  0  0  0  0  0  0  0  0
  127.8680  125.1780   61.5240 C   0  0  1  0  0  0  0  0  0  0  0  0
  128.3840  123.7510   61.9320 C   0  0  0  0  0  0  0  0  0  0  0  0
  129.5990  123.4850   61.7760 O   0  0  0  0  0  0  0  0  0  0  0  0
  127.5580  122.8960   62.3250 O   0  0  0  0  0  0  0  0  0  0  0  0
  128.9300  126.0970   60.9790 N   0  0  0  0  0  0  0  0  0  0  0  0
  129.6640  126.8650   61.8600 C   0  0  0  0  0  0  0  0  0  0  0  0
  130.4060  127.7870   61.5190 O   0  0  0  0  0  0  0  0  0  0  0  0
  129.5210  126.6400   63.3490 C   0  0  0  0  0  0  0  0  0  0  0  0
  129.8520  125.3900   63.8700 C   0  0  0  0  0  0  0  0  0  0  0  0
  129.7260  125.1280   65.2260 C   0  0  0  0  0  0  0  0  0  0  0  0
  130.1590  123.5490   65.7880 Cl  0  0  0  0  0  0  0  0  0  0  0  0
  129.2570  126.1140   66.1080 C   0  0  0  0  0  0  0  0  0  0  0  0
  128.8870  127.3800   65.5950 C   0  0  0  0  0  0  0  0  0  0  0  0
  129.0190  127.6350   64.2090 C   0  0  0  0  0  0  0  0  0  0  0  0
  128.6740  128.8610   63.6780 O   0  0  0  0  0  0  0  0  0  0  0  0
  128.3550  128.4250   66.5520 C   0  0  0  0  0  0  0  0  0  0  0  0
  127.9210  129.5330   66.2420 O   0  0  0  0  0  0  0  0  0  0  0  0
  128.2600  128.1170   67.8760 O   0  0  0  0  0  0  0  0  0  0  0  0
  129.1550  127.1450   68.4260 C   0  0  2  0  0  0  0  0  0  0  0  0
  130.5800  127.7100   68.6150 C   0  0  0  0  0  0  0  0  0  0  0  0
  129.1190  125.8360   67.6080 C   0  0  0  0  0  0  0  0  0  0  0  0
  131.0120  130.4350   60.3770 C   0  0  0  0  0  0  0  0  0  0  0  0
  132.8130  131.3522   63.3320 H   0  0  0  0  0  0  0  0  0  0  0  0
  132.6472  130.3336   61.8617 H   0  0  0  0  0  0  0  0  0  0  0  0
  133.7716  131.7344   61.8617 H   0  0  0  0  0  0  0  0  0  0  0  0
  129.2335  133.1789   61.3481 H   0  0  0  0  0  0  0  0  0  0  0  0
  127.5021  132.0483   59.9613 H   0  0  0  0  0  0  0  0  0  0  0  0
  128.0123  129.8796   58.8462 H   0  0  0  0  0  0  0  0  0  0  0  0
  130.6988  128.6594   57.9030 H   0  0  0  0  0  0  0  0  0  0  0  0
  131.1324  127.9638   59.5266 H   0  0  0  0  0  0  0  0  0  0  0  0
  128.3036  128.0242   59.4086 H   0  0  0  0  0  0  0  0  0  0  0  0
  128.9390  127.3574   57.8037 H   0  0  0  0  0  0  0  0  0  0  0  0
  130.9759  126.5327   57.3663 H   0  0  0  0  0  0  0  0  0  0  0  0
  133.2983  125.7412   56.9785 H   0  0  0  0  0  0  0  0  0  0  0  0
  133.2500  123.7237   60.7929 H   0  0  0  0  0  0  0  0  0  0  0  0
  130.9265  124.5105   61.1862 H   0  0  0  0  0  0  0  0  0  0  0  0
  129.6606  125.1758   56.9024 H   0  0  0  0  0  0  0  0  0  0  0  0
  128.2405  123.6604   55.5539 H   0  0  0  0  0  0  0  0  0  0  0  0
  126.1102  122.7770   56.5057 H   0  0  0  0  0  0  0  0  0  0  0  0
  125.4115  123.4507   58.7951 H   0  0  0  0  0  0  0  0  0  0  0  0
  126.2723  126.1604   60.4306 H   0  0  0  0  0  0  0  0  0  0  0  0
  125.9475  124.4322   60.8787 H   0  0  0  0  0  0  0  0  0  0  0  0
  127.5159  125.5809   62.4851 H   0  0  0  0  0  0  0  0  0  0  0  0
  130.2180  124.6010   63.1966 H   0  0  0  0  0  0  0  0  0  0  0  0
  129.2810  129.1570   62.9950 H   0  0  0  0  0  0  0  0  0  0  0  0
  128.8049  126.8930   69.4379 H   0  0  0  0  0  0  0  0  0  0  0  0
  130.8003  127.7974   69.6892 H   0  0  0  0  0  0  0  0  0  0  0  0
  131.3083  127.0326   68.1452 H   0  0  0  0  0  0  0  0  0  0  0  0
  130.6462  128.7024   68.1452 H   0  0  0  0  0  0  0  0  0  0  0  0
  129.9481  125.1889   67.9304 H   0  0  0  0  0  0  0  0  0  0  0  0
  128.1510  125.3436   67.7826 H   0  0  0  0  0  0  0  0  0  0  0  0
  132.0057  129.9767   60.4891 H   0  0  0  0  0  0  0  0  0  0  0  0
  1  2  1  0
  2  3  1  0
  3  4  2  0
  4  5  1  0
  5  6  2  0
  6  7  1  0
  7  8  1  0
  8  9  1  0
 10  9  1  6
 10 11  1  0
 11 12  2  0
 12 13  1  0
 13 14  2  0
 14 15  1  0
 14 16  1  0
 16 17  2  0
 10 18  1  0
 18 19  2  0
 19 20  1  0
 20 21  2  0
 21 22  1  0
 22 23  2  0
 23 24  1  0
 24 25  1  0
 25 26  1  0
 26 27  2  0
 26 28  1  0
 25 29  1  0
 29 30  1  0
 30 31  2  0
 30 32  1  0
 32 33  2  0
 33 34  1  0
 34 35  1  0
 34 36  2  0
 36 37  1  0
 37 38  2  0
 38 39  1  0
 37 40  1  0
 40 41  2  0
 40 42  1  0
 42 43  1  0
 43 44  1  0
 43 45  1  0
  7 46  2  0
 46  3  1  0
 29 10  1  0
 38 32  1  0
 17 11  1  0
 23 18  1  0
 45 36  1  0
  1 47  1  0
  1 48  1  0
  1 49  1  0
  4 50  1  0
  5 51  1  0
  6 52  1  0
  8 53  1  0
  8 54  1  0
  9 55  1  0
  9 56  1  0
 12 57  1  0
 13 58  1  0
 16 59  1  0
 17 60  1  0
 19 61  1  0
 20 62  1  0
 21 63  1  0
 22 64  1  0
 24 65  1  0
 24 66  1  0
 25 67  1  1
 33 68  1  0
 39 69  1  0
 43 70  1  1
 44 71  1  0
 44 72  1  0
 44 73  1  0
 45 74  1  0
 45 75  1  0
 46 76  1  0
M  CHG  1  28  -1
M  END
>  <Binding energies>  (1) 
[-8.02]

>  <Ligand effiencies>  (1) 
[-0.17063829787234042]

>  <Interactions>  (1) 
["V-A:ILE:369:CG2:3237, V-A:ASP:366:CA:3210, V-B:PRO:540:CA:9855, V-B:GLU:543:C:9874, V-A:ILE:369:CB:3236, H-A:ALA:541:N:4891, V-B:GLU:543:CB:9878, V-B:TYR:539:CE2:9848, V-A:TYR:484:CE2:4346, V-B:GLU:543:CG:9879, V-A:ASP:366:CG:3213, V-A:ASN:362:CB:3176, V-B:TYR:539:CZ:9849, H-B:ALA:541:N:9863, V-A:GLU:543:CD:4908, V-B:PRO:540:CB:9857, V-A:TYR:484:CZ:4347, H-B:TYR:484:OH:9319, V-B:GLU:543:CA:9876, V-A:ILE:369:CD1:3239, V-A:HIS:456:CE1:4070, V-A:ASP:366:C:3208, V-A:GLU:543:CG:4907, V-B:GLU:543:CD:9880, V-A:ILE:369:CG1:3238, V-A:ASP:366:CB:3212, H-A:GLU:543:OE1:4909, V-A:GLU:543:CB:4906, V-A:PRO:540:CB:4885, V-A:PRO:540:CA:4883, V-B:TYR:539:CE1:9847"]

$$$$
ZINC962974792-again1
     RDKit          3D

 75 80  0  0  0  0  0  0  0  0999 V2000
  132.5860  131.6870   62.7350 C   0  0  0  0  0  0  0  0  0  0  0  0
  131.5410  131.8690   61.7860 O   0  0  0  0  0  0  0  0  0  0  0  0
  131.5220  131.0840   60.6490 C   0  0  0  0  0  0  0  0  0  0  0  0
  132.4580  131.3870   59.6560 C   0  0  0  0  0  0  0  0  0  0  0  0
  132.5120  130.6480   58.4750 C   0  0  0  0  0  0  0  0  0  0  0  0
  131.6250  129.5910   58.2720 C   0  0  0  0  0  0  0  0  0  0  0  0
  130.6810  129.2730   59.2510 C   0  0  0  0  0  0  0  0  0  0  0  0
  129.7120  128.1200   59.0400 C   0  0  0  0  0  0  0  0  0  0  0  0
  129.5690  127.2260   60.2930 C   0  0  0  0  0  0  0  0  0  0  0  0
  129.5650  125.6660   60.0410 C   0  0  2  0  0  0  0  0  0  0  0  0
  130.9440  125.1790   59.4710 C   0  0  0  0  0  0  0  0  0  0  0  0
  131.6290  125.9760   58.5390 C   0  0  0  0  0  0  0  0  0  0  0  0
  132.8590  125.5850   58.0170 C   0  0  0  0  0  0  0  0  0  0  0  0
  133.4310  124.3880   58.4290 C   0  0  0  0  0  0  0  0  0  0  0  0
  134.6260  124.0030   57.9250 F   0  0  0  0  0  0  0  0  0  0  0  0
  132.7840  123.5840   59.3620 C   0  0  0  0  0  0  0  0  0  0  0  0
  131.5540  123.9800   59.8830 C   0  0  0  0  0  0  0  0  0  0  0  0
  128.4980  125.4760   58.9110 C   0  0  0  0  0  0  0  0  0  0  0  0
  128.7770  125.8390   57.5780 C   0  0  0  0  0  0  0  0  0  0  0  0
  127.8580  125.6470   56.5500 C   0  0  0  0  0  0  0  0  0  0  0  0
  126.6210  125.0850   56.8300 C   0  0  0  0  0  0  0  0  0  0  0  0
  126.3100  124.7300   58.1390 C   0  0  0  0  0  0  0  0  0  0  0  0
  127.2270  124.9310   59.1770 C   0  0  0  0  0  0  0  0  0  0  0  0
  126.8690  124.5890   60.6020 C   0  0  0  0  0  0  0  0  0  0  0  0
  128.0560  123.9390   61.3550 C   0  0  1  0  0  0  0  0  0  0  0  0
  128.4090  122.4940   60.8490 C   0  0  0  0  0  0  0  0  0  0  0  0
  128.5230  122.2930   59.6180 O   0  0  0  0  0  0  0  0  0  0  0  0
  128.6420  121.6010   61.6980 O   0  0  0  0  0  0  0  0  0  0  0  0
  129.2050  124.9120   61.3170 N   0  0  0  0  0  0  0  0  0  0  0  0
  130.0130  125.0330   62.4300 C   0  0  0  0  0  0  0  0  0  0  0  0
  131.1300  124.5210   62.5250 O   0  0  0  0  0  0  0  0  0  0  0  0
  129.5810  125.9330   63.5820 C   0  0  0  0  0  0  0  0  0  0  0  0
  128.9630  127.1290   63.2250 C   0  0  0  0  0  0  0  0  0  0  0  0
  128.5340  128.0350   64.1770 C   0  0  0  0  0  0  0  0  0  0  0  0
  127.7820  129.4890   63.6150 Cl  0  0  0  0  0  0  0  0  0  0  0  0
  128.7150  127.7820   65.5420 C   0  0  0  0  0  0  0  0  0  0  0  0
  129.3740  126.5940   65.9570 C   0  0  0  0  0  0  0  0  0  0  0  0
  129.8150  125.6580   64.9610 C   0  0  0  0  0  0  0  0  0  0  0  0
  130.4140  124.5640   65.2910 O   0  0  0  0  0  0  0  0  0  0  0  0
  129.5780  126.4070   67.4640 C   0  0  0  0  0  0  0  0  0  0  0  0
  130.1960  125.4930   68.0090 O   0  0  0  0  0  0  0  0  0  0  0  0
  129.1190  127.3570   68.3240 O   0  0  0  0  0  0  0  0  0  0  0  0
  127.9850  128.1370   67.9490 C   0  0  2  0  0  0  0  0  0  0  0  0
  126.6640  127.3380   68.0310 C   0  0  0  0  0  0  0  0  0  0  0  0
  128.2250  128.7980   66.5800 C   0  0  0  0  0  0  0  0  0  0  0  0
  130.6330  130.0170   60.4350 C   0  0  0  0  0  0  0  0  0  0  0  0
  132.1740  131.7588   63.7524 H   0  0  0  0  0  0  0  0  0  0  0  0
  133.0417  130.6960   62.5930 H   0  0  0  0  0  0  0  0  0  0  0  0
  133.3499  132.4656   62.5930 H   0  0  0  0  0  0  0  0  0  0  0  0
  133.1610  132.2192   59.8083 H   0  0  0  0  0  0  0  0  0  0  0  0
  133.2544  130.8987   57.7030 H   0  0  0  0  0  0  0  0  0  0  0  0
  131.6689  129.0076   57.3405 H   0  0  0  0  0  0  0  0  0  0  0  0
  128.7240  128.5321   58.7868 H   0  0  0  0  0  0  0  0  0  0  0  0
  130.1111  127.4941   58.2282 H   0  0  0  0  0  0  0  0  0  0  0  0
  130.4084  127.4550   60.9661 H   0  0  0  0  0  0  0  0  0  0  0  0
  128.5778  127.4592   60.7091 H   0  0  0  0  0  0  0  0  0  0  0  0
  131.1845  126.9286   58.2149 H   0  0  0  0  0  0  0  0  0  0  0  0
  133.3751  126.2205   57.2823 H   0  0  0  0  0  0  0  0  0  0  0  0
  133.2422  122.6384   59.6874 H   0  0  0  0  0  0  0  0  0  0  0  0
  131.0520  123.3453   60.6281 H   0  0  0  0  0  0  0  0  0  0  0  0
  129.7528  126.2887   57.3422 H   0  0  0  0  0  0  0  0  0  0  0  0
  128.1116  125.9396   55.5204 H   0  0  0  0  0  0  0  0  0  0  0  0
  125.8914  124.9212   56.0232 H   0  0  0  0  0  0  0  0  0  0  0  0
  125.3290  124.2848   58.3612 H   0  0  0  0  0  0  0  0  0  0  0  0
  126.5770  125.5108   61.1264 H   0  0  0  0  0  0  0  0  0  0  0  0
  126.0408  123.8654   60.5814 H   0  0  0  0  0  0  0  0  0  0  0  0
  127.7779  123.7553   62.4033 H   0  0  0  0  0  0  0  0  0  0  0  0
  128.8126  127.3583   62.1597 H   0  0  0  0  0  0  0  0  0  0  0  0
  127.8617  128.9476   68.6823 H   0  0  0  0  0  0  0  0  0  0  0  0
  126.3978  127.1770   69.0861 H   0  0  0  0  0  0  0  0  0  0  0  0
  125.8623  127.9028   67.5326 H   0  0  0  0  0  0  0  0  0  0  0  0
  126.7920  126.3658   67.5326 H   0  0  0  0  0  0  0  0  0  0  0  0
  127.2823  129.2422   66.2277 H   0  0  0  0  0  0  0  0  0  0  0  0
  129.0008  129.5685   66.7008 H   0  0  0  0  0  0  0  0  0  0  0  0
  129.8912  129.7639   61.2068 H   0  0  0  0  0  0  0  0  0  0  0  0
  1  2  1  0
  2  3  1  0
  3  4  2  0
  4  5  1  0
  5  6  2  0
  6  7  1  0
  7  8  1  0
  8  9  1  0
 10  9  1  1
 10 11  1  0
 11 12  2  0
 12 13  1  0
 13 14  2  0
 14 15  1  0
 14 16  1  0
 16 17  2  0
 10 18  1  0
 18 19  2  0
 19 20  1  0
 20 21  2  0
 21 22  1  0
 22 23  2  0
 23 24  1  0
 24 25  1  0
 25 26  1  0
 26 27  2  0
 26 28  1  0
 25 29  1  0
 29 30  1  0
 30 31  2  0
 30 32  1  0
 32 33  2  0
 33 34  1  0
 34 35  1  0
 34 36  2  0
 36 37  1  0
 37 38  2  0
 38 39  1  0
 37 40  1  0
 40 41  2  0
 40 42  1  0
 42 43  1  0
 43 44  1  0
 43 45  1  0
  7 46  2  0
 46  3  1  0
 29 10  1  0
 38 32  1  0
 17 11  1  0
 23 18  1  0
 45 36  1  0
  1 47  1  0
  1 48  1  0
  1 49  1  0
  4 50  1  0
  5 51  1  0
  6 52  1  0
  8 53  1  0
  8 54  1  0
  9 55  1  0
  9 56  1  0
 12 57  1  0
 13 58  1  0
 16 59  1  0
 17 60  1  0
 19 61  1  0
 20 62  1  0
 21 63  1  0
 22 64  1  0
 24 65  1  0
 24 66  1  0
 25 67  1  1
 33 68  1  0
 43 69  1  1
 44 70  1  0
 44 71  1  0
 44 72  1  0
 45 73  1  0
 45 74  1  0
 46 75  1  0
M  CHG  2  28  -1  39  -1
M  END
>  <Binding energies>  (1) 
[-7.29]

>  <Ligand effiencies>  (1) 
[-0.1584782608695652]

>  <Interactions>  (1) 
["V-A:ILE:369:CG2:3237, V-A:ASP:366:CA:3210, V-B:PRO:540:CA:9855, V-A:ALA:541:C:4888, V-A:ILE:369:C:3232, V-A:ILE:369:CB:3236, H-A:ALA:541:N:4891, V-B:GLU:543:CB:9878, V-B:TYR:539:CE2:9848, V-B:GLU:543:CG:9879, V-A:ASP:366:CG:3213, V-A:ASN:362:CB:3176, V-A:LEU:363:CD1:3189, V-B:TYR:539:CZ:9849, V-B:ARG:545:CG:9894, H-B:ALA:541:N:9863, V-A:GLU:543:CD:4908, V-B:HIS:456:CE1:9041, V-A:HIS:456:CE1:4070, V-A:ASP:366:C:3208, V-A:ILE:369:CA:3234, V-A:GLU:543:CG:4907, V-B:GLU:543:CD:9880, V-A:ILE:369:CG1:3238, V-A:ASP:366:CB:3212, V-A:GLU:543:CB:4906, V-A:PRO:540:CB:4885, V-A:PRO:540:CA:4883, V-B:PRO:540:C:9853, H-A:TYR:484:OH:4348"]

$$$$
ZINC962983257
     RDKit          3D

 76 81  0  0  0  0  0  0  0  0999 V2000
  127.7360  124.3310   57.3620 C   0  0  0  0  0  0  0  0  0  0  0  0
  127.8520  125.8580   57.3060 C   0  0  0  0  0  0  0  0  0  0  0  0
  126.5730  126.4220   57.5780 O   0  0  0  0  0  0  0  0  0  0  0  0
  126.4400  127.3880   58.5610 C   0  0  0  0  0  0  0  0  0  0  0  0
  126.1520  128.7370   58.2970 C   0  0  0  0  0  0  0  0  0  0  0  0
  126.0390  129.6730   59.3300 C   0  0  0  0  0  0  0  0  0  0  0  0
  125.7170  131.0760   58.9480 C   0  0  0  0  0  0  0  0  0  0  0  0
  125.4610  131.4570   57.8070 O   0  0  0  0  0  0  0  0  0  0  0  0
  126.1920  129.2430   60.6600 C   0  0  0  0  0  0  0  0  0  0  0  0
  126.0240  130.3060   62.0210 Cl  0  0  0  0  0  0  0  0  0  0  0  0
  126.4780  127.9050   60.9250 C   0  0  0  0  0  0  0  0  0  0  0  0
  126.6070  126.9680   59.8870 C   0  0  0  0  0  0  0  0  0  0  0  0
  126.8920  125.6300   60.0920 O   0  0  0  0  0  0  0  0  0  0  0  0
  127.4100  125.2010   61.3530 C   0  0  0  0  0  0  0  0  0  0  0  0
  127.7010  123.6820   61.3160 C   0  0  0  0  0  0  0  0  0  0  0  0
  126.7310  122.9230   61.3540 O   0  0  0  0  0  0  0  0  0  0  0  0
  128.9880  123.2260   61.1420 N   0  0  0  0  0  0  0  0  0  0  0  0
  129.1870  122.0690   60.2300 C   0  0  0  0  0  0  0  0  0  0  0  0
  130.2550  121.1600   60.8410 C   0  0  0  0  0  0  0  0  0  0  0  0
  131.5620  121.9050   60.9900 C   0  0  0  0  0  0  0  0  0  0  0  0
  132.7840  121.2730   60.7330 C   0  0  0  0  0  0  0  0  0  0  0  0
  133.9880  121.9520   60.8910 C   0  0  0  0  0  0  0  0  0  0  0  0
  133.9800  123.2760   61.3100 C   0  0  0  0  0  0  0  0  0  0  0  0
  132.7670  123.9120   61.5600 C   0  0  0  0  0  0  0  0  0  0  0  0
  131.5350  123.2510   61.4060 C   0  0  0  0  0  0  0  0  0  0  0  0
  130.1950  124.0190   61.6390 C   0  0  2  0  0  0  0  0  0  0  0  0
  130.0590  124.1600   63.1830 C   0  0  0  0  0  0  0  0  0  0  0  0
  130.1550  123.0190   64.0050 C   0  0  0  0  0  0  0  0  0  0  0  0
  130.0740  123.0900   65.3910 C   0  0  0  0  0  0  0  0  0  0  0  0
  129.8940  124.3200   66.0030 C   0  0  0  0  0  0  0  0  0  0  0  0
  129.7910  125.4640   65.2210 C   0  0  0  0  0  0  0  0  0  0  0  0
  129.8660  125.4020   63.8160 C   0  0  0  0  0  0  0  0  0  0  0  0
  129.7040  126.6560   63.0350 C   0  0  0  0  0  0  0  0  0  0  0  0
  129.3720  127.6850   63.6290 O   0  0  0  0  0  0  0  0  0  0  0  0
  130.0270  126.6500   61.5540 C   0  0  0  0  0  0  0  0  0  0  0  0
  130.1080  127.8760   60.8200 C   0  0  0  0  0  0  0  0  0  0  0  0
  129.9230  129.1390   61.4260 N   0  0  0  0  0  0  0  0  0  0  0  0
  129.3210  130.2750   60.9200 C   0  0  0  0  0  0  0  0  0  0  0  0
  129.7150  131.5480   61.0970 C   0  0  0  0  0  0  0  0  0  0  0  0
  128.9840  132.6240   60.5160 C   0  0  0  0  0  0  0  0  0  0  0  0
  128.3760  133.4860   60.0410 N   0  0  0  0  0  0  0  0  0  0  0  0
  130.8670  131.8870   61.8660 C   0  0  0  0  0  0  0  0  0  0  0  0
  131.8030  132.1410   62.4980 N   0  0  0  0  0  0  0  0  0  0  0  0
  130.4150  127.8520   59.4600 C   0  0  0  0  0  0  0  0  0  0  0  0
  130.6270  126.6610   58.8050 C   0  0  0  0  0  0  0  0  0  0  0  0
  130.5470  125.4620   59.4930 C   0  0  0  0  0  0  0  0  0  0  0  0
  130.8070  124.3290   58.7210 N   0  0  0  0  0  0  0  0  0  0  0  0
  130.2420  125.4070   60.8790 C   0  0  0  0  0  0  0  0  0  0  0  0
  127.7111  124.0034   58.4118 H   0  0  0  0  0  0  0  0  0  0  0  0
  126.8112  124.0148   56.8572 H   0  0  0  0  0  0  0  0  0  0  0  0
  128.6024  123.8787   56.8572 H   0  0  0  0  0  0  0  0  0  0  0  0
  128.5763  126.2023   58.0589 H   0  0  0  0  0  0  0  0  0  0  0  0
  128.1965  126.1720   56.3097 H   0  0  0  0  0  0  0  0  0  0  0  0
  126.0124  129.0642   57.2561 H   0  0  0  0  0  0  0  0  0  0  0  0
  125.7074  131.8302   59.7487 H   0  0  0  0  0  0  0  0  0  0  0  0
  126.6051  127.5766   61.9671 H   0  0  0  0  0  0  0  0  0  0  0  0
  128.3413  125.7452   61.5685 H   0  0  0  0  0  0  0  0  0  0  0  0
  126.6673  125.4075   62.1377 H   0  0  0  0  0  0  0  0  0  0  0  0
  128.2435  121.5142   60.1203 H   0  0  0  0  0  0  0  0  0  0  0  0
  129.5062  122.4174   59.2367 H   0  0  0  0  0  0  0  0  0  0  0  0
  129.9174  120.8196   61.8310 H   0  0  0  0  0  0  0  0  0  0  0  0
  130.4108  120.2975   60.1763 H   0  0  0  0  0  0  0  0  0  0  0  0
  132.7926  120.2242   60.4013 H   0  0  0  0  0  0  0  0  0  0  0  0
  134.9411  121.4429   60.6852 H   0  0  0  0  0  0  0  0  0  0  0  0
  134.9270  123.8194   61.4437 H   0  0  0  0  0  0  0  0  0  0  0  0
  132.7723  124.9621   61.8875 H   0  0  0  0  0  0  0  0  0  0  0  0
  130.2993  122.0362   63.5324 H   0  0  0  0  0  0  0  0  0  0  0  0
  130.1523  122.1758   65.9978 H   0  0  0  0  0  0  0  0  0  0  0  0
  129.8331  124.3903   67.0991 H   0  0  0  0  0  0  0  0  0  0  0  0
  129.6478  126.4390   65.7098 H   0  0  0  0  0  0  0  0  0  0  0  0
  130.1440  129.1290   62.4120 H   0  0  0  0  0  0  0  0  0  0  0  0
  128.4217  130.1210   60.3056 H   0  0  0  0  0  0  0  0  0  0  0  0
  130.4886  128.7980   58.9035 H   0  0  0  0  0  0  0  0  0  0  0  0
  130.8611  126.6612   57.7302 H   0  0  0  0  0  0  0  0  0  0  0  0
  130.5800  124.3450   57.7360 H   0  0  0  0  0  0  0  0  0  0  0  0
  131.0770  123.4700   59.1760 H   0  0  0  0  0  0  0  0  0  0  0  0
  1  2  1  0
  2  3  1  0
  3  4  1  0
  4  5  2  0
  5  6  1  0
  6  7  1  0
  7  8  2  0
  6  9  2  0
  9 10  1  0
  9 11  1  0
 11 12  2  0
 12 13  1  0
 13 14  1  0
 14 15  1  0
 15 16  2  0
 15 17  1  0
 17 18  1  0
 18 19  1  0
 19 20  1  0
 20 21  2  0
 21 22  1  0
 22 23  2  0
 23 24  1  0
 24 25  2  0
 25 26  1  0
 26 27  1  0
 27 28  2  0
 28 29  1  0
 29 30  2  0
 30 31  1  0
 31 32  2  0
 32 33  1  0
 33 34  2  0
 33 35  1  0
 35 36  2  0
 36 37  1  0
 37 38  1  0
 38 39  2  3
 39 40  1  0
 40 41  3  0
 39 42  1  0
 42 43  3  0
 36 44  1  0
 44 45  2  0
 45 46  1  0
 46 47  1  0
 46 48  2  0
 12  4  1  0
 26 17  1  6
 32 27  1  0
 48 35  1  0
 25 20  1  0
 48 26  1  0
  1 49  1  0
  1 50  1  0
  1 51  1  0
  2 52  1  0
  2 53  1  0
  5 54  1  0
  7 55  1  0
 11 56  1  0
 14 57  1  0
 14 58  1  0
 18 59  1  0
 18 60  1  0
 19 61  1  0
 19 62  1  0
 21 63  1  0
 22 64  1  0
 23 65  1  0
 24 66  1  0
 28 67  1  0
 29 68  1  0
 30 69  1  0
 31 70  1  0
 37 71  1  0
 38 72  1  0
 44 73  1  0
 45 74  1  0
 47 75  1  0
 47 76  1  0
M  END
>  <Binding energies>  (1) 
[-8.43]

>  <Ligand effiencies>  (1) 
[-0.1652941176470588]

>  <Interactions>  (1) 
["V-A:ILE:369:CG2:3237, V-B:PRO:540:CA:9855, V-A:ILE:369:CB:3236, H-A:ALA:541:N:4891, V-B:GLU:543:CB:9878, V-B:ASP:366:CG:8184, V-B:TYR:539:CE2:9848, V-A:TYR:484:CE2:4346, V-B:GLU:543:CG:9879, V-B:TYR:539:C:9839, V-B:TYR:539:CZ:9849, H-B:TYR:539:OH:9850, H-B:ALA:541:N:9863, V-B:ASP:366:CB:8183, V-A:TYR:484:CZ:4347, V-A:GLU:543:CD:4908, V-B:GLU:543:CA:9876, V-A:ILE:369:CD1:3239, V-B:TYR:539:CD2:9846, V-B:GLU:543:CD:9880, H-B:TYR:531:OH:9767, V-A:LEU:475:CD2:4259, H-A:GLU:543:OE1:4909, V-A:PRO:540:CA:4883, H-A:TYR:539:OH:4878, V-A:TYR:539:CE1:4875"]

$$$$
ZINC962992777
     RDKit          3D

 76 79  0  0  0  0  0  0  0  0999 V2000
  125.5260  129.4700   62.8060 C   0  0  0  0  0  0  0  0  0  0  0  0
  125.9600  129.5920   64.2700 C   0  0  0  0  0  0  0  0  0  0  0  0
  127.3830  129.6020   64.3190 O   0  0  0  0  0  0  0  0  0  0  0  0
  128.0670  128.5090   64.8210 C   0  0  0  0  0  0  0  0  0  0  0  0
  128.3240  128.3070   66.1870 C   0  0  0  0  0  0  0  0  0  0  0  0
  129.0390  127.1920   66.6360 C   0  0  0  0  0  0  0  0  0  0  0  0
  129.2490  127.0600   68.1030 C   0  0  0  0  0  0  0  0  0  0  0  0
  129.3330  128.0000   68.8930 O   0  0  0  0  0  0  0  0  0  0  0  0
  129.4840  126.2420   65.6980 C   0  0  0  0  0  0  0  0  0  0  0  0
  130.3370  124.8010   66.1480 Cl  0  0  0  0  0  0  0  0  0  0  0  0
  129.2280  126.4390   64.3410 C   0  0  0  0  0  0  0  0  0  0  0  0
  128.5250  127.5660   63.8910 C   0  0  0  0  0  0  0  0  0  0  0  0
  128.2420  127.8130   62.5590 O   0  0  0  0  0  0  0  0  0  0  0  0
  129.2940  128.1820   61.6660 C   0  0  0  0  0  0  0  0  0  0  0  0
  129.9680  126.9090   61.1120 C   0  0  0  0  0  0  0  0  0  0  0  0
  130.9960  126.5450   61.6840 O   0  0  0  0  0  0  0  0  0  0  0  0
  129.4370  126.2430   60.0380 N   0  0  0  0  0  0  0  0  0  0  0  0
  129.2270  127.0190   58.7950 C   0  0  0  0  0  0  0  0  0  0  0  0
  127.7940  126.7190   58.3600 C   0  0  0  0  0  0  0  0  0  0  0  0
  127.6090  125.2340   58.1180 C   0  0  0  0  0  0  0  0  0  0  0  0
  126.6540  124.7950   57.1930 C   0  0  0  0  0  0  0  0  0  0  0  0
  126.4150  123.4420   56.9930 C   0  0  0  0  0  0  0  0  0  0  0  0
  127.1280  122.5050   57.7280 C   0  0  0  0  0  0  0  0  0  0  0  0
  128.0880  122.9320   58.6400 C   0  0  0  0  0  0  0  0  0  0  0  0
  128.3810  124.2950   58.8470 C   0  0  0  0  0  0  0  0  0  0  0  0
  129.4930  124.7410   59.8690 C   0  0  1  0  0  0  0  0  0  0  0  0
  130.8910  124.3850   59.2260 C   0  0  0  0  0  0  0  0  0  0  0  0
  131.6700  125.4710   58.4380 C   0  0  0  0  0  0  0  0  0  0  0  0
  133.1850  125.2050   58.3350 C   0  0  0  0  0  0  0  0  0  0  0  0
  133.6700  123.9830   59.1400 C   0  0  0  0  0  0  0  0  0  0  0  0
  134.4130  124.3730   60.4300 C   0  0  0  0  0  0  0  0  0  0  0  0
  133.4480  124.7150   61.5940 C   0  0  0  0  0  0  0  0  0  0  0  0
  133.8240  124.1010   62.9660 C   0  0  0  0  0  0  0  0  0  0  0  0
  133.9920  124.9150   63.9020 O   0  0  0  0  0  0  0  0  0  0  0  0
  133.9480  122.8600   63.0890 O   0  0  0  0  0  0  0  0  0  0  0  0
  129.2100  123.9900   61.2260 C   0  0  0  0  0  0  0  0  0  0  0  0
  130.3100  123.5450   61.9850 C   0  0  0  0  0  0  0  0  0  0  0  0
  130.1440  122.8730   63.1940 C   0  0  0  0  0  0  0  0  0  0  0  0
  131.2260  122.4700   63.8990 F   0  0  0  0  0  0  0  0  0  0  0  0
  128.8650  122.6150   63.6740 C   0  0  0  0  0  0  0  0  0  0  0  0
  127.7590  123.0180   62.9350 C   0  0  0  0  0  0  0  0  0  0  0  0
  127.9190  123.6890   61.7220 C   0  0  0  0  0  0  0  0  0  0  0  0
  126.7950  124.0050   61.0420 F   0  0  0  0  0  0  0  0  0  0  0  0
  124.4679  129.1726   62.7608 H   0  0  0  0  0  0  0  0  0  0  0  0
  125.6562  130.4395   62.3030 H   0  0  0  0  0  0  0  0  0  0  0  0
  126.1423  128.7103   62.3030 H   0  0  0  0  0  0  0  0  0  0  0  0
  125.5673  130.5266   64.6970 H   0  0  0  0  0  0  0  0  0  0  0  0
  125.5684  128.7444   64.8516 H   0  0  0  0  0  0  0  0  0  0  0  0
  127.9553  129.0409   66.9188 H   0  0  0  0  0  0  0  0  0  0  0  0
  129.3359  126.0432   68.5135 H   0  0  0  0  0  0  0  0  0  0  0  0
  129.5839  125.6972   63.6109 H   0  0  0  0  0  0  0  0  0  0  0  0
  128.8793  128.7694   60.8335 H   0  0  0  0  0  0  0  0  0  0  0  0
  130.0383  128.7861   62.2056 H   0  0  0  0  0  0  0  0  0  0  0  0
  129.3523  128.0946   58.9882 H   0  0  0  0  0  0  0  0  0  0  0  0
  129.9543  126.7449   58.0166 H   0  0  0  0  0  0  0  0  0  0  0  0
  127.1009  127.0457   59.1492 H   0  0  0  0  0  0  0  0  0  0  0  0
  127.5873  127.2590   57.4242 H   0  0  0  0  0  0  0  0  0  0  0  0
  126.0826  125.5356   56.6142 H   0  0  0  0  0  0  0  0  0  0  0  0
  125.6657  123.1149   56.2571 H   0  0  0  0  0  0  0  0  0  0  0  0
  126.9351  121.4308   57.5902 H   0  0  0  0  0  0  0  0  0  0  0  0
  128.6388  122.1778   59.2211 H   0  0  0  0  0  0  0  0  0  0  0  0
  131.5451  124.0543   60.0462 H   0  0  0  0  0  0  0  0  0  0  0  0
  130.6386  123.6400   58.4570 H   0  0  0  0  0  0  0  0  0  0  0  0
  131.2577  125.5219   57.4195 H   0  0  0  0  0  0  0  0  0  0  0  0
  131.5492  126.4140   58.9914 H   0  0  0  0  0  0  0  0  0  0  0  0
  133.4350  125.0416   57.2763 H   0  0  0  0  0  0  0  0  0  0  0  0
  133.6893  126.0843   58.7622 H   0  0  0  0  0  0  0  0  0  0  0  0
  132.7967  123.3708   59.4093 H   0  0  0  0  0  0  0  0  0  0  0  0
  134.3778  123.4292   58.5056 H   0  0  0  0  0  0  0  0  0  0  0  0
  135.0510  123.5313   60.7372 H   0  0  0  0  0  0  0  0  0  0  0  0
  135.0059  125.2738   60.2134 H   0  0  0  0  0  0  0  0  0  0  0  0
  133.4244  125.8090   61.7060 H   0  0  0  0  0  0  0  0  0  0  0  0
  132.4753  124.2796   61.3215 H   0  0  0  0  0  0  0  0  0  0  0  0
  131.3279  123.7332   61.6129 H   0  0  0  0  0  0  0  0  0  0  0  0
  128.7291  122.0947   64.6336 H   0  0  0  0  0  0  0  0  0  0  0  0
  126.7470  122.8058   63.3102 H   0  0  0  0  0  0  0  0  0  0  0  0
  1  2  1  0
  2  3  1  0
  3  4  1  0
  4  5  2  0
  5  6  1  0
  6  7  1  0
  7  8  2  0
  6  9  2  0
  9 10  1  0
  9 11  1  0
 11 12  2  0
 12 13  1  0
 13 14  1  0
 14 15  1  0
 15 16  2  0
 15 17  1  0
 17 18  1  0
 18 19  1  0
 19 20  1  0
 20 21  2  0
 21 22  1  0
 22 23  2  0
 23 24  1  0
 24 25  2  0
 25 26  1  0
 26 27  1  6
 27 28  1  0
 28 29  1  0
 29 30  1  0
 30 31  1  0
 31 32  1  0
 32 33  1  0
 33 34  2  0
 33 35  1  0
 26 36  1  0
 36 37  2  0
 37 38  1  0
 38 39  1  0
 38 40  2  0
 40 41  1  0
 41 42  2  0
 42 43  1  0
 12  4  1  0
 26 17  1  0
 42 36  1  0
 25 20  1  0
  1 44  1  0
  1 45  1  0
  1 46  1  0
  2 47  1  0
  2 48  1  0
  5 49  1  0
  7 50  1  0
 11 51  1  0
 14 52  1  0
 14 53  1  0
 18 54  1  0
 18 55  1  0
 19 56  1  0
 19 57  1  0
 21 58  1  0
 22 59  1  0
 23 60  1  0
 24 61  1  0
 27 62  1  0
 27 63  1  0
 28 64  1  0
 28 65  1  0
 29 66  1  0
 29 67  1  0
 30 68  1  0
 30 69  1  0
 31 70  1  0
 31 71  1  0
 32 72  1  0
 32 73  1  0
 37 74  1  0
 40 75  1  0
 41 76  1  0
M  CHG  1  35  -1
M  END
>  <Binding energies>  (1) 
[-6.73]

>  <Ligand effiencies>  (1) 
[-0.15651162790697676]

>  <Interactions>  (1) 
["V-A:ILE:369:CG2:3237, V-A:ASP:366:CA:3210, V-B:PRO:540:CA:9855, V-A:GLY:454:CA:4049, V-A:ILE:369:CB:3236, V-B:GLU:543:CB:9878, V-B:ALA:541:CB:9864, H-A:ARG:545:NH1:4927, V-B:TYR:539:CE2:9848, V-A:TYR:484:CE2:4346, V-B:GLU:543:CG:9879, V-B:TYR:539:C:9839, V-A:ASP:366:CG:3213, V-B:TYR:539:CZ:9849, V-A:GLU:543:CD:4908, V-B:PRO:540:CB:9857, V-A:TYR:484:CZ:4347, H-B:TYR:484:OH:9319, H-A:GLY:454:N:4050, V-B:PRO:540:N:9856, V-A:HIS:456:CE1:4070, V-A:ILE:369:CD1:3239, V-A:ASP:366:C:3208, V-B:TYR:539:CD2:9846, V-B:PRO:540:CD:9859, V-A:GLU:543:CG:4907, V-B:GLU:543:CD:9880, V-B:ARG:545:CZ:9898, V-A:ASP:366:CB:3212, V-A:LEU:475:CD2:4259, H-A:ARG:545:NH2:4928, V-A:GLU:543:CB:4906, H-A:ARG:545:NE:4924, V-B:ALA:541:CA:9862"]

$$$$
ZINC963035045
     RDKit          3D

 76 83  0  0  0  0  0  0  0  0999 V2000
  128.6820  128.4620   71.6710 C   0  0  0  0  0  0  0  0  0  0  0  0
  129.3190  128.0600   70.5550 C   0  0  0  0  0  0  0  0  0  0  0  0
  130.7670  128.4380   70.2890 C   0  0  0  0  0  0  0  0  0  0  0  0
  128.6520  127.2120   69.4700 C   0  0  1  0  0  0  0  0  0  0  0  0
  128.7120  127.8400   68.0590 C   0  0  0  0  0  0  0  0  0  0  0  0
  129.1660  126.6950   67.2110 C   0  0  0  0  0  0  0  0  0  0  0  0
  129.4490  125.6350   68.0450 C   0  0  0  0  0  0  0  0  0  0  0  0
  129.9410  124.4330   67.5590 C   0  0  0  0  0  0  0  0  0  0  0  0
  130.1400  124.3080   66.1840 C   0  0  0  0  0  0  0  0  0  0  0  0
  129.8650  125.3620   65.2860 C   0  0  0  0  0  0  0  0  0  0  0  0
  129.3730  126.5700   65.8360 C   0  0  0  0  0  0  0  0  0  0  0  0
  129.1070  127.7150   65.1170 O   0  0  0  0  0  0  0  0  0  0  0  0
  129.0500  127.6110   63.6990 C   0  0  2  0  0  0  0  0  0  0  0  0
  127.6240  127.3370   63.1830 C   0  0  0  0  0  0  0  0  0  0  0  0
  127.5700  127.5800   61.7720 O   0  0  0  0  0  0  0  0  0  0  0  0
  128.5960  127.0300   61.0180 C   0  0  0  0  0  0  0  0  0  0  0  0
  128.3700  126.9760   59.6450 C   0  0  0  0  0  0  0  0  0  0  0  0
  129.3600  126.5000   58.7720 C   0  0  0  0  0  0  0  0  0  0  0  0
  129.1920  126.4010   57.4020 O   0  0  0  0  0  0  0  0  0  0  0  0
  128.8810  125.1370   56.8230 C   0  0  0  0  0  0  0  0  0  0  0  0
  130.5980  126.0980   59.2930 C   0  0  0  0  0  0  0  0  0  0  0  0
  131.5410  125.6290   58.3950 O   0  0  0  0  0  0  0  0  0  0  0  0
  132.7730  125.1040   58.8810 C   0  0  0  0  0  0  0  0  0  0  0  0
  130.8200  126.1790   60.6770 C   0  0  0  0  0  0  0  0  0  0  0  0
  129.8290  126.6110   61.5620 C   0  0  0  0  0  0  0  0  0  0  0  0
  130.0470  126.6060   63.0810 C   0  0  2  0  0  0  0  0  0  0  0  0
  130.0600  125.1800   63.7650 C   0  0  2  0  0  0  0  0  0  0  0  0
  128.9060  124.3340   63.3990 N   0  0  0  0  0  0  0  0  0  0  0  0
  128.9660  123.5900   62.1470 C   0  0  0  0  0  0  0  0  0  0  0  0
  130.1870  122.6570   62.0950 C   0  0  1  0  0  0  0  0  0  0  0  0
  130.4230  122.0930   60.6700 C   0  0  0  0  0  0  0  0  0  0  0  0
  131.6860  121.2020   60.5680 C   0  0  0  0  0  0  0  0  0  0  0  0
  131.7370  120.2630   59.7730 O   0  0  0  0  0  0  0  0  0  0  0  0
  132.6960  121.5950   61.4040 N   0  0  0  0  0  0  0  0  0  0  0  0
  133.9500  120.8190   61.3270 C   0  0  0  0  0  0  0  0  0  0  0  0
  132.6880  122.7430   62.2470 C   0  0  0  0  0  0  0  0  0  0  0  0
  133.8710  123.2900   62.7690 C   0  0  0  0  0  0  0  0  0  0  0  0
  133.8310  124.3950   63.6090 C   0  0  0  0  0  0  0  0  0  0  0  0
  132.6110  124.9710   63.9340 C   0  0  0  0  0  0  0  0  0  0  0  0
  131.4000  124.4620   63.4440 C   0  0  0  0  0  0  0  0  0  0  0  0
  131.4570  123.3220   62.6130 C   0  0  0  0  0  0  0  0  0  0  0  0
  129.2140  125.8970   69.3690 O   0  0  0  0  0  0  0  0  0  0  0  0
  127.6337  128.1747   71.8397 H   0  0  0  0  0  0  0  0  0  0  0  0
  129.2099  129.0777   72.4141 H   0  0  0  0  0  0  0  0  0  0  0  0
  131.2919  128.5750   71.2459 H   0  0  0  0  0  0  0  0  0  0  0  0
  131.2554  127.6372   69.7143 H   0  0  0  0  0  0  0  0  0  0  0  0
  130.8016  129.3753   69.7143 H   0  0  0  0  0  0  0  0  0  0  0  0
  127.6044  127.1597   69.8015 H   0  0  0  0  0  0  0  0  0  0  0  0
  127.7221  128.2005   67.7424 H   0  0  0  0  0  0  0  0  0  0  0  0
  129.3723  128.7177   67.9986 H   0  0  0  0  0  0  0  0  0  0  0  0
  130.1684  123.5997   68.2401 H   0  0  0  0  0  0  0  0  0  0  0  0
  130.5238  123.3569   65.7864 H   0  0  0  0  0  0  0  0  0  0  0  0
  129.3661  128.6066   63.3542 H   0  0  0  0  0  0  0  0  0  0  0  0
  127.3564  126.2893   63.3848 H   0  0  0  0  0  0  0  0  0  0  0  0
  126.9148  128.0029   63.6964 H   0  0  0  0  0  0  0  0  0  0  0  0
  127.4036  127.3106   59.2399 H   0  0  0  0  0  0  0  0  0  0  0  0
  128.7003  124.4024   57.6216 H   0  0  0  0  0  0  0  0  0  0  0  0
  127.9792  125.2309   56.2002 H   0  0  0  0  0  0  0  0  0  0  0  0
  129.7234  124.8017   56.2002 H   0  0  0  0  0  0  0  0  0  0  0  0
  132.7646  125.1076   59.9810 H   0  0  0  0  0  0  0  0  0  0  0  0
  132.9007  124.0733   58.5186 H   0  0  0  0  0  0  0  0  0  0  0  0
  133.6049  125.7258   58.5186 H   0  0  0  0  0  0  0  0  0  0  0  0
  131.8043  125.8936   61.0767 H   0  0  0  0  0  0  0  0  0  0  0  0
  131.0764  126.9332   63.2888 H   0  0  0  0  0  0  0  0  0  0  0  0
  128.0670  124.8960   63.4220 H   0  0  0  0  0  0  0  0  0  0  0  0
  128.0520  122.9861   62.0476 H   0  0  0  0  0  0  0  0  0  0  0  0
  129.0534  124.3137   61.3232 H   0  0  0  0  0  0  0  0  0  0  0  0
  129.9511  121.8191   62.7676 H   0  0  0  0  0  0  0  0  0  0  0  0
  129.5474  121.4926   60.3822 H   0  0  0  0  0  0  0  0  0  0  0  0
  130.5736  122.9517   59.9993 H   0  0  0  0  0  0  0  0  0  0  0  0
  134.3074  120.5979   62.3436 H   0  0  0  0  0  0  0  0  0  0  0  0
  133.7658  119.8768   60.7900 H   0  0  0  0  0  0  0  0  0  0  0  0
  134.7110  121.4043   60.7900 H   0  0  0  0  0  0  0  0  0  0  0  0
  134.8399  122.8384   62.5098 H   0  0  0  0  0  0  0  0  0  0  0  0
  134.7638  124.8126   64.0157 H   0  0  0  0  0  0  0  0  0  0  0  0
  132.5936  125.8508   64.5940 H   0  0  0  0  0  0  0  0  0  0  0  0
  1  2  2  0
  2  3  1  0
  2  4  1  0
  4  5  1  0
  5  6  1  0
  6  7  2  0
  7  8  1  0
  8  9  2  0
  9 10  1  0
 10 11  2  0
 11 12  1  0
 12 13  1  0
 13 14  1  0
 14 15  1  0
 15 16  1  0
 16 17  2  0
 17 18  1  0
 18 19  1  0
 19 20  1  0
 18 21  2  0
 21 22  1  0
 22 23  1  0
 21 24  1  0
 24 25  2  0
 25 26  1  0
 26 27  1  0
 27 28  1  6
 28 29  1  0
 29 30  1  0
 30 31  1  0
 31 32  1  0
 32 33  2  0
 32 34  1  0
 34 35  1  0
 34 36  1  0
 36 37  2  0
 37 38  1  0
 38 39  2  0
 39 40  1  0
 40 41  2  0
  7 42  1  0
 42  4  1  0
 11  6  1  0
 26 13  1  0
 40 27  1  0
 27 10  1  0
 41 30  1  0
 25 16  1  0
 41 36  1  0
  1 43  1  0
  1 44  1  0
  3 45  1  0
  3 46  1  0
  3 47  1  0
  4 48  1  1
  5 49  1  0
  5 50  1  0
  8 51  1  0
  9 52  1  0
 13 53  1  6
 14 54  1  0
 14 55  1  0
 17 56  1  0
 20 57  1  0
 20 58  1  0
 20 59  1  0
 23 60  1  0
 23 61  1  0
 23 62  1  0
 24 63  1  0
 26 64  1  6
 28 65  1  0
 29 66  1  0
 29 67  1  0
 30 68  1  1
 31 69  1  0
 31 70  1  0
 35 71  1  0
 35 72  1  0
 35 73  1  0
 37 74  1  0
 38 75  1  0
 39 76  1  0
M  END
>  <Binding energies>  (1) 
[-6.87]

>  <Ligand effiencies>  (1) 
[-0.15976744186046513]

>  <Interactions>  (1) 
["V-A:ILE:369:CG2:3237, V-A:ASP:366:CA:3210, V-A:GLU:543:CA:4904, V-A:GLY:454:CA:4049, V-B:GLU:543:C:9874, V-B:HIS:456:CD2:9039, V-A:GLU:543:C:4902, V-B:GLU:543:CB:9878, V-B:TYR:539:CE2:9848, V-A:TYR:484:CE2:4346, V-A:GLY:544:CA:4914, V-B:GLU:543:CG:9879, V-A:GLY:544:C:4912, V-A:ASP:366:CG:3213, V-B:TYR:539:CZ:9849, H-B:GLU:543:OE1:9881, H-B:TYR:539:OH:9850, V-A:GLU:543:CD:4908, V-A:TYR:484:CZ:4347, V-B:HIS:456:CE1:9041, V-B:GLU:543:CA:9876, V-A:SER:385:C:3405, V-A:GLY:453:C:4042, V-A:HIS:456:CE1:4070, V-B:TYR:539:CD2:9846, V-A:SER:385:CB:3409, H-A:SER:385:OG:3410, V-B:GLU:543:CD:9880, V-A:ASP:366:CB:3212, V-A:LEU:475:CD2:4259, V-A:ARG:545:CZ:4926, V-A:GLU:543:CB:4906, H-B:GLU:543:OE2:9882, V-A:GLY:453:CA:4044, V-A:SER:385:CA:3407"]

$$$$
ZINC963064240
     RDKit          3D

 63 67  0  0  0  0  0  0  0  0999 V2000
  131.3900  121.7040   61.2320 C   0  0  0  0  0  0  0  0  0  0  0  0
  129.9620  122.1880   61.5850 C   0  0  0  0  0  0  0  0  0  0  0  0
  129.8560  122.5830   63.0790 C   0  0  0  0  0  0  0  0  0  0  0  0
  128.9570  121.0570   61.2860 C   0  0  0  0  0  0  0  0  0  0  0  0
  129.5460  123.2720   60.7330 O   0  0  0  0  0  0  0  0  0  0  0  0
  128.4960  124.1230   60.9690 C   0  0  0  0  0  0  0  0  0  0  0  0
  127.4540  123.7440   61.5010 O   0  0  0  0  0  0  0  0  0  0  0  0
  128.7750  125.4500   60.5350 N   0  0  0  0  0  0  0  0  0  0  0  0
  128.1220  125.9630   59.2770 C   0  0  2  0  0  0  0  0  0  0  0  0
  127.1190  125.1110   58.4220 C   0  0  1  0  0  0  0  0  0  0  0  0
  126.1800  125.9910   57.8260 O   0  0  0  0  0  0  0  0  0  0  0  0
  127.7760  124.2220   57.3140 C   0  0  0  0  0  0  0  0  0  0  0  0
  127.5340  122.6990   57.4540 C   0  0  0  0  0  0  0  0  0  0  0  0
  127.9800  122.1520   58.4880 O   0  0  0  0  0  0  0  0  0  0  0  0
  126.8770  122.0980   56.5720 O   0  0  0  0  0  0  0  0  0  0  0  0
  129.2290  126.6310   58.4100 C   0  0  0  0  0  0  0  0  0  0  0  0
  129.8700  127.7270   59.2270 C   0  0  0  0  0  0  0  0  0  0  0  0
  129.9460  127.6310   60.6010 C   0  0  0  0  0  0  0  0  0  0  0  0
  130.5680  128.7590   61.0870 N   0  0  0  0  0  0  0  0  0  0  0  0
  130.9160  129.6010   60.0540 C   0  0  0  0  0  0  0  0  0  0  0  0
  131.5610  130.8420   60.0550 C   0  0  0  0  0  0  0  0  0  0  0  0
  131.7720  131.4480   58.8170 C   0  0  0  0  0  0  0  0  0  0  0  0
  131.3640  130.8510   57.6270 C   0  0  0  0  0  0  0  0  0  0  0  0
  130.7230  129.6140   57.6250 C   0  0  0  0  0  0  0  0  0  0  0  0
  130.4870  128.9660   58.8490 C   0  0  0  0  0  0  0  0  0  0  0  0
  129.4560  126.4530   61.4550 C   0  0  1  0  0  0  0  0  0  0  0  0
  128.4660  126.9870   62.5140 C   0  0  0  0  0  0  0  0  0  0  0  0
  127.2260  127.5580   62.0980 C   0  0  0  0  0  0  0  0  0  0  0  0
  126.2200  128.0330   61.7790 N   0  0  0  0  0  0  0  0  0  0  0  0
  128.7350  126.9520   63.8320 C   0  0  0  0  0  0  0  0  0  0  0  0
  129.8580  126.4530   64.3990 O   0  0  0  0  0  0  0  0  0  0  0  0
  130.8110  125.8770   63.5850 C   0  0  0  0  0  0  0  0  0  0  0  0
  131.9090  125.3170   64.2370 C   0  0  0  0  0  0  0  0  0  0  0  0
  132.9130  124.6980   63.4970 C   0  0  0  0  0  0  0  0  0  0  0  0
  132.8180  124.6460   62.1090 C   0  0  0  0  0  0  0  0  0  0  0  0
  134.1820  123.7950   61.0900 Br  0  0  0  0  0  0  0  0  0  0  0  0
  131.7210  125.2120   61.4620 C   0  0  0  0  0  0  0  0  0  0  0  0
  130.6890  125.8370   62.1800 C   0  0  0  0  0  0  0  0  0  0  0  0
  131.9520  121.5135   62.1582 H   0  0  0  0  0  0  0  0  0  0  0  0
  131.3279  120.7767   60.6435 H   0  0  0  0  0  0  0  0  0  0  0  0
  131.9045  122.4780   60.6435 H   0  0  0  0  0  0  0  0  0  0  0  0
  130.0902  121.7104   63.7065 H   0  0  0  0  0  0  0  0  0  0  0  0
  130.5687  123.3923   63.2957 H   0  0  0  0  0  0  0  0  0  0  0  0
  128.8338  122.9268   63.2957 H   0  0  0  0  0  0  0  0  0  0  0  0
  128.5845  120.6378   62.2323 H   0  0  0  0  0  0  0  0  0  0  0  0
  128.1135  121.4598   60.7062 H   0  0  0  0  0  0  0  0  0  0  0  0
  129.4562  120.2667   60.7062 H   0  0  0  0  0  0  0  0  0  0  0  0
  127.3607  126.6473   59.6796 H   0  0  0  0  0  0  0  0  0  0  0  0
  126.6462  124.4016   59.1171 H   0  0  0  0  0  0  0  0  0  0  0  0
  126.4630  126.1740   56.9280 H   0  0  0  0  0  0  0  0  0  0  0  0
  127.3750  124.5413   56.3407 H   0  0  0  0  0  0  0  0  0  0  0  0
  128.8619  124.3667   57.4138 H   0  0  0  0  0  0  0  0  0  0  0  0
  129.9858  125.8830   58.1313 H   0  0  0  0  0  0  0  0  0  0  0  0
  128.7920  127.0481   57.4907 H   0  0  0  0  0  0  0  0  0  0  0  0
  130.7320  128.8990   62.0730 H   0  0  0  0  0  0  0  0  0  0  0  0
  131.8874  131.3189   60.9910 H   0  0  0  0  0  0  0  0  0  0  0  0
  132.2751  132.4255   58.7794 H   0  0  0  0  0  0  0  0  0  0  0  0
  131.5509  131.3647   56.6725 H   0  0  0  0  0  0  0  0  0  0  0  0
  130.4062  129.1513   56.6786 H   0  0  0  0  0  0  0  0  0  0  0  0
  127.9737  127.3662   64.5094 H   0  0  0  0  0  0  0  0  0  0  0  0
  131.9819  125.3641   65.3336 H   0  0  0  0  0  0  0  0  0  0  0  0
  133.7788  124.2513   64.0077 H   0  0  0  0  0  0  0  0  0  0  0  0
  131.6624  125.1681   60.3644 H   0  0  0  0  0  0  0  0  0  0  0  0
  1  2  1  0
  2  3  1  0
  2  4  1  0
  2  5  1  0
  5  6  1  0
  6  7  2  0
  6  8  1  0
  8  9  1  0
  9 10  1  0
 10 11  1  0
 10 12  1  0
 12 13  1  0
 13 14  2  0
 13 15  1  0
  9 16  1  0
 16 17  1  0
 17 18  2  0
 18 19  1  0
 19 20  1  0
 20 21  2  0
 21 22  1  0
 22 23  2  0
 23 24  1  0
 24 25  2  0
 18 26  1  0
 26 27  1  0
 27 28  1  0
 28 29  3  0
 27 30  2  0
 30 31  1  0
 31 32  1  0
 32 33  2  0
 33 34  1  0
 34 35  2  0
 35 36  1  0
 35 37  1  0
 37 38  2  0
 26  8  1  6
 38 32  1  0
 25 17  1  0
 38 26  1  0
 25 20  1  0
  1 39  1  0
  1 40  1  0
  1 41  1  0
  3 42  1  0
  3 43  1  0
  3 44  1  0
  4 45  1  0
  4 46  1  0
  4 47  1  0
  9 48  1  1
 10 49  1  1
 11 50  1  0
 12 51  1  0
 12 52  1  0
 16 53  1  0
 16 54  1  0
 19 55  1  0
 21 56  1  0
 22 57  1  0
 23 58  1  0
 24 59  1  0
 30 60  1  0
 33 61  1  0
 34 62  1  0
 37 63  1  0
M  CHG  1  15  -1
M  END
>  <Binding energies>  (1) 
[-7.57]

>  <Ligand effiencies>  (1) 
[-0.18925]

>  <Interactions>  (1) 
["V-A:ILE:369:CG2:3237, H-B:MET:535:SD:9806, V-B:PRO:540:CA:9855, V-B:ALA:541:CB:9864, V-B:TYR:539:CE2:9848, H-B:TYR:539:N:9842, V-B:GLU:543:CG:9879, V-B:TYR:539:C:9839, V-B:TYR:539:CZ:9849, V-A:GLU:543:CD:4908, V-B:PRO:540:N:9856, V-A:ILE:369:CD1:3239, V-B:TYR:539:CD2:9846, V-B:GLU:543:CD:9880, H-B:TYR:531:OH:9767, V-A:LEU:475:CD2:4259, V-A:ARG:545:CZ:4926, H-A:GLU:543:OE1:4909, V-B:TYR:539:CG:9844, H-B:ARG:545:NH2:9900, V-B:TYR:539:CD1:9845, V-A:PRO:540:CB:4885, V-A:PRO:540:CA:4883, V-B:PRO:540:C:9853, H-A:ASP:366:OD2:3215, V-B:ALA:541:CA:9862, V-B:TYR:539:CE1:9847"]

$$$$
ZINC963065476
     RDKit          3D

 73 77  0  0  0  0  0  0  0  0999 V2000
  134.3550  122.4280   61.6290 C   0  0  0  0  0  0  0  0  0  0  0  0
  133.5660  123.7070   61.4430 C   0  0  0  0  0  0  0  0  0  0  0  0
  132.9680  124.5920   62.8140 S   0  0  0  0  0  0  0  0  0  0  0  0
  132.2250  125.8060   61.8860 N   0  0  0  0  0  0  0  0  0  0  0  0
  132.4670  125.5590   60.6220 C   0  0  0  0  0  0  0  0  0  0  0  0
  131.7860  126.7250   59.4810 S   0  0  0  0  0  0  0  0  0  0  0  0
  130.6860  127.6480   60.6240 C   0  0  0  0  0  0  0  0  0  0  0  0
  129.1880  127.1970   60.7890 C   0  0  1  0  0  0  0  0  0  0  0  0
  129.2590  126.0010   61.7850 C   0  0  0  0  0  0  0  0  0  0  0  0
  129.4310  126.1980   63.1640 C   0  0  0  0  0  0  0  0  0  0  0  0
  129.5040  125.1150   64.0350 C   0  0  0  0  0  0  0  0  0  0  0  0
  129.3990  123.8190   63.5370 C   0  0  0  0  0  0  0  0  0  0  0  0
  129.4990  122.4760   64.6160 Cl  0  0  0  0  0  0  0  0  0  0  0  0
  129.2240  123.6000   62.1740 C   0  0  0  0  0  0  0  0  0  0  0  0
  129.1590  124.6850   61.3050 C   0  0  0  0  0  0  0  0  0  0  0  0
  128.3810  128.3750   61.3990 C   0  0  0  0  0  0  0  0  0  0  0  0
  128.8770  129.3830   62.1950 N   0  0  0  0  0  0  0  0  0  0  0  0
  127.8740  130.2540   62.5630 C   0  0  0  0  0  0  0  0  0  0  0  0
  127.9020  131.4030   63.3610 C   0  0  0  0  0  0  0  0  0  0  0  0
  126.6940  132.0780   63.5410 C   0  0  0  0  0  0  0  0  0  0  0  0
  125.5100  131.6350   62.9560 C   0  0  0  0  0  0  0  0  0  0  0  0
  125.4850  130.4900   62.1610 C   0  0  0  0  0  0  0  0  0  0  0  0
  126.6760  129.7770   61.9540 C   0  0  0  0  0  0  0  0  0  0  0  0
  127.0180  128.5940   61.2170 C   0  0  0  0  0  0  0  0  0  0  0  0
  126.1590  127.6900   60.3400 C   0  0  0  0  0  0  0  0  0  0  0  0
  126.9740  126.4400   59.8550 C   0  0  1  0  0  0  0  0  0  0  0  0
  126.2290  125.5500   58.8120 C   0  0  1  0  0  0  0  0  0  0  0  0
  125.6280  126.4000   57.8460 O   0  0  0  0  0  0  0  0  0  0  0  0
  127.1710  124.5250   58.1100 C   0  0  0  0  0  0  0  0  0  0  0  0
  126.4990  123.2250   57.5990 C   0  0  0  0  0  0  0  0  0  0  0  0
  125.4320  122.8900   58.1610 O   0  0  0  0  0  0  0  0  0  0  0  0
  127.0140  122.6010   56.6420 O   0  0  0  0  0  0  0  0  0  0  0  0
  128.3790  126.8770   59.5430 N   0  0  0  0  0  0  0  0  0  0  0  0
  128.5530  127.5820   58.3210 C   0  0  0  0  0  0  0  0  0  0  0  0
  128.3620  127.1150   57.1950 O   0  0  0  0  0  0  0  0  0  0  0  0
  129.0420  128.8380   58.5190 O   0  0  0  0  0  0  0  0  0  0  0  0
  128.4720  130.0540   57.9920 C   0  0  0  0  0  0  0  0  0  0  0  0
  129.3120  130.6090   56.8150 C   0  0  0  0  0  0  0  0  0  0  0  0
  126.9940  129.8470   57.5740 C   0  0  0  0  0  0  0  0  0  0  0  0
  128.5240  131.0560   59.1640 C   0  0  0  0  0  0  0  0  0  0  0  0
  133.1780  124.3890   60.2890 C   0  0  0  0  0  0  0  0  0  0  0  0
  133.4800  123.9430   58.9340 C   0  0  0  0  0  0  0  0  0  0  0  0
  133.7210  123.5900   57.8590 N   0  0  0  0  0  0  0  0  0  0  0  0
  134.4792  122.2267   62.7033 H   0  0  0  0  0  0  0  0  0  0  0  0
  133.8151  121.5925   61.1594 H   0  0  0  0  0  0  0  0  0  0  0  0
  135.3439  122.5356   61.1594 H   0  0  0  0  0  0  0  0  0  0  0  0
  131.1469  127.5985   61.6215 H   0  0  0  0  0  0  0  0  0  0  0  0
  130.6072  128.6425   60.1605 H   0  0  0  0  0  0  0  0  0  0  0  0
  129.5090  127.2208   63.5611 H   0  0  0  0  0  0  0  0  0  0  0  0
  129.6442  125.2823   65.1131 H   0  0  0  0  0  0  0  0  0  0  0  0
  129.1375  122.5745   61.7855 H   0  0  0  0  0  0  0  0  0  0  0  0
  129.0275  124.5094   60.2271 H   0  0  0  0  0  0  0  0  0  0  0  0
  129.8510  129.4340   62.4540 H   0  0  0  0  0  0  0  0  0  0  0  0
  128.8338  131.7581   63.8253 H   0  0  0  0  0  0  0  0  0  0  0  0
  126.6763  132.9855   64.1624 H   0  0  0  0  0  0  0  0  0  0  0  0
  124.5798  132.1976   63.1240 H   0  0  0  0  0  0  0  0  0  0  0  0
  124.5448  130.1501   61.7023 H   0  0  0  0  0  0  0  0  0  0  0  0
  125.2878  127.3493   60.9188 H   0  0  0  0  0  0  0  0  0  0  0  0
  125.8351  128.2617   59.4578 H   0  0  0  0  0  0  0  0  0  0  0  0
  127.0637  125.7012   60.6651 H   0  0  0  0  0  0  0  0  0  0  0  0
  125.4692  124.9598   59.3452 H   0  0  0  0  0  0  0  0  0  0  0  0
  126.2740  126.5690   57.1550 H   0  0  0  0  0  0  0  0  0  0  0  0
  127.6318  125.0275   57.2468 H   0  0  0  0  0  0  0  0  0  0  0  0
  127.8885  124.2054   58.8801 H   0  0  0  0  0  0  0  0  0  0  0  0
  130.1684  131.1748   57.2105 H   0  0  0  0  0  0  0  0  0  0  0  0
  129.6772  129.7738   56.1993 H   0  0  0  0  0  0  0  0  0  0  0  0
  128.6870  131.2725   56.1993 H   0  0  0  0  0  0  0  0  0  0  0  0
  126.3673  129.7592   58.4738 H   0  0  0  0  0  0  0  0  0  0  0  0
  126.6583  130.7069   56.9758 H   0  0  0  0  0  0  0  0  0  0  0  0
  126.9074  128.9280   56.9758 H   0  0  0  0  0  0  0  0  0  0  0  0
  128.4955  130.5074   60.1170 H   0  0  0  0  0  0  0  0  0  0  0  0
  129.4537  131.6410   59.1053 H   0  0  0  0  0  0  0  0  0  0  0  0
  127.6598  131.7341   59.1053 H   0  0  0  0  0  0  0  0  0  0  0  0
  1  2  1  0
  2  3  1  0
  3  4  1  0
  4  5  2  0
  5  6  1  0
  6  7  1  0
  8  7  1  6
  8  9  1  0
  9 10  2  0
 10 11  1  0
 11 12  2  0
 12 13  1  0
 12 14  1  0
 14 15  2  0
  8 16  1  0
 16 17  1  0
 17 18  1  0
 18 19  2  0
 19 20  1  0
 20 21  2  0
 21 22  1  0
 22 23  2  0
 23 24  1  0
 24 25  1  0
 25 26  1  0
 26 27  1  0
 27 28  1  0
 27 29  1  0
 29 30  1  0
 30 31  2  0
 30 32  1  0
 26 33  1  0
 33 34  1  0
 34 35  2  0
 34 36  1  0
 36 37  1  0
 37 38  1  0
 37 39  1  0
 37 40  1  0
  5 41  1  0
 41 42  1  0
 42 43  3  0
 41  2  2  0
 33  8  1  0
 15  9  1  0
 24 16  2  0
 23 18  1  0
  1 44  1  0
  1 45  1  0
  1 46  1  0
  7 47  1  0
  7 48  1  0
 10 49  1  0
 11 50  1  0
 14 51  1  0
 15 52  1  0
 17 53  1  0
 19 54  1  0
 20 55  1  0
 21 56  1  0
 22 57  1  0
 25 58  1  0
 25 59  1  0
 26 60  1  1
 27 61  1  1
 28 62  1  0
 29 63  1  0
 29 64  1  0
 38 65  1  0
 38 66  1  0
 38 67  1  0
 39 68  1  0
 39 69  1  0
 39 70  1  0
 40 71  1  0
 40 72  1  0
 40 73  1  0
M  CHG  1  32  -1
M  END
>  <Binding energies>  (1) 
[-7.1]

>  <Ligand effiencies>  (1) 
[-0.15777777777777777]

>  <Interactions>  (1) 
["V-A:ILE:369:CG2:3237, V-A:ASP:366:CA:3210, V-B:PRO:540:CA:9855, V-A:ILE:369:CB:3236, V-B:ASP:366:CG:8184, V-B:ALA:541:CB:9864, V-B:TYR:539:CE2:9848, V-A:TYR:484:CE2:4346, H-B:TYR:539:N:9842, V-B:LEU:475:CD2:9230, V-B:GLU:543:CG:9879, V-A:ASP:366:CG:3213, V-B:TYR:539:CZ:9849, H-A:ASN:370:N:3244, H-B:TYR:539:OH:9850, V-A:GLU:543:CD:4908, V-B:PRO:540:CB:9857, V-B:PRO:540:N:9856, V-A:ILE:369:CD1:3239, V-B:GLU:543:CD:9880, V-A:MET:535:CE:4835, H-B:TYR:531:OH:9767, V-A:ASP:366:CB:3212, V-A:LEU:475:CD2:4259, H-A:ARG:545:NH2:4928, H-A:GLU:543:OE1:4909"]

$$$$
ZINC963131676
     RDKit          3D

 48 50  0  0  0  0  0  0  0  0999 V2000
  129.3200  127.9450   58.2340 C   0  0  0  0  0  0  0  0  0  0  0  0
  130.3110  126.7900   58.5210 C   0  0  0  0  0  0  0  0  0  0  0  0
  131.7730  127.2330   58.2700 C   0  0  0  0  0  0  0  0  0  0  0  0
  129.9760  125.5920   57.6090 C   0  0  0  0  0  0  0  0  0  0  0  0
  130.1440  126.2720   59.8520 O   0  0  0  0  0  0  0  0  0  0  0  0
  131.1040  126.2390   60.8310 C   0  0  0  0  0  0  0  0  0  0  0  0
  131.3600  127.2070   61.5480 O   0  0  0  0  0  0  0  0  0  0  0  0
  131.7030  124.9550   60.9040 N   0  0  0  0  0  0  0  0  0  0  0  0
  133.1840  124.9340   60.5590 C   0  0  2  0  0  0  0  0  0  0  0  0
  133.5110  124.3540   59.1410 C   0  0  0  0  0  0  0  0  0  0  0  0
  132.6100  124.3230   58.2710 O   0  0  0  0  0  0  0  0  0  0  0  0
  134.6900  124.0020   58.9040 O   0  0  0  0  0  0  0  0  0  0  0  0
  134.0730  124.3060   61.7080 C   0  0  0  0  0  0  0  0  0  0  0  0
  133.3840  124.4640   63.0510 C   0  0  0  0  0  0  0  0  0  0  0  0
  134.0080  124.7910   64.1670 N   0  0  0  0  0  0  0  0  0  0  0  0
  133.1680  124.8880   65.1640 C   0  0  0  0  0  0  0  0  0  0  0  0
  131.5070  124.5850   64.7770 S   0  0  0  0  0  0  0  0  0  0  0  0
  132.0060  124.2790   63.1300 C   0  0  0  0  0  0  0  0  0  0  0  0
  131.1740  123.9170   61.8790 C   0  0  2  0  0  0  0  0  0  0  0  0
  131.4750  122.4640   61.3980 C   0  0  0  0  0  0  0  0  0  0  0  0
  132.6240  122.1940   60.6380 C   0  0  0  0  0  0  0  0  0  0  0  0
  132.9180  120.9040   60.2030 C   0  0  0  0  0  0  0  0  0  0  0  0
  132.0610  119.8510   60.5120 C   0  0  0  0  0  0  0  0  0  0  0  0
  130.9040  120.0910   61.2550 C   0  0  0  0  0  0  0  0  0  0  0  0
  130.0010  118.9970   61.5750 C   0  0  0  0  0  0  0  0  0  0  0  0
  129.2810  118.1270   61.8300 N   0  0  0  0  0  0  0  0  0  0  0  0
  130.6170  121.3880   61.6910 C   0  0  0  0  0  0  0  0  0  0  0  0
  129.6210  123.9530   62.2000 C   0  0  0  0  0  0  0  0  0  0  0  0
  128.4910  123.4110   60.6430 Br  0  0  0  0  0  0  0  0  0  0  0  0
  129.1120  122.8370   63.7820 Br  0  0  0  0  0  0  0  0  0  0  0  0
  128.9602  128.3643   59.1852 H   0  0  0  0  0  0  0  0  0  0  0  0
  129.8296  128.7304   57.6565 H   0  0  0  0  0  0  0  0  0  0  0  0
  128.4663  127.5607   57.6565 H   0  0  0  0  0  0  0  0  0  0  0  0
  132.2802  127.3867   59.2339 H   0  0  0  0  0  0  0  0  0  0  0  0
  132.2993  126.4540   57.6989 H   0  0  0  0  0  0  0  0  0  0  0  0
  131.7784  128.1731   57.6989 H   0  0  0  0  0  0  0  0  0  0  0  0
  129.7312  124.7167   58.2286 H   0  0  0  0  0  0  0  0  0  0  0  0
  129.1140  125.8444   56.9740 H   0  0  0  0  0  0  0  0  0  0  0  0
  130.8439  125.3606   56.9740 H   0  0  0  0  0  0  0  0  0  0  0  0
  133.4702  125.9940   60.4919 H   0  0  0  0  0  0  0  0  0  0  0  0
  134.2286  123.2365   61.5033 H   0  0  0  0  0  0  0  0  0  0  0  0
  135.0409  124.8279   61.7381 H   0  0  0  0  0  0  0  0  0  0  0  0
  133.4947  125.1453   66.1824 H   0  0  0  0  0  0  0  0  0  0  0  0
  133.3059  123.0179   60.3808 H   0  0  0  0  0  0  0  0  0  0  0  0
  133.8284  120.7168   59.6146 H   0  0  0  0  0  0  0  0  0  0  0  0
  132.2954  118.8317   60.1712 H   0  0  0  0  0  0  0  0  0  0  0  0
  129.7026  121.5708   62.2745 H   0  0  0  0  0  0  0  0  0  0  0  0
  129.4233  125.0088   62.4370 H   0  0  0  0  0  0  0  0  0  0  0  0
  1  2  1  0
  2  3  1  0
  2  4  1  0
  2  5  1  0
  5  6  1  0
  6  7  2  0
  6  8  1  0
  8  9  1  0
  9 10  1  0
 10 11  2  0
 10 12  1  0
  9 13  1  0
 13 14  1  0
 14 15  1  0
 15 16  2  0
 16 17  1  0
 17 18  1  0
 18 19  1  0
 19 20  1  0
 20 21  2  0
 21 22  1  0
 22 23  2  0
 23 24  1  0
 24 25  1  0
 25 26  3  0
 24 27  2  0
 19 28  1  1
 28 29  1  0
 28 30  1  0
 19  8  1  0
 27 20  1  0
 18 14  2  0
  1 31  1  0
  1 32  1  0
  1 33  1  0
  3 34  1  0
  3 35  1  0
  3 36  1  0
  4 37  1  0
  4 38  1  0
  4 39  1  0
  9 40  1  6
 13 41  1  0
 13 42  1  0
 16 43  1  0
 21 44  1  0
 22 45  1  0
 23 46  1  0
 27 47  1  0
 28 48  1  0
M  CHG  1  12  -1
M  END
>  <Binding energies>  (1) 
[-6.94]

>  <Ligand effiencies>  (1) 
[-0.23133333333333334]

>  <Interactions>  (1) 
["V-A:ILE:369:CG2:3237, V-A:ASP:366:CA:3210, V-A:ILE:369:CB:3236, V-B:ALA:541:CB:9864, H-A:ARG:545:NH1:4927, V-B:TYR:539:CE2:9848, V-A:LEU:475:CG:4257, V-B:GLU:543:CG:9879, V-A:ASP:366:CG:3213, V-B:TYR:539:CZ:9849, H-B:TYR:539:OH:9850, V-A:LEU:475:CD1:4258, H-A:GLY:454:N:4050, V-A:ILE:369:CD1:3239, V-B:TYR:539:CD2:9846, V-A:SER:385:CB:3409, V-A:ASP:366:CB:3212, V-A:LEU:475:CD2:4259, H-A:ARG:545:NH2:4928, V-A:ARG:545:CZ:4926, H-A:ARG:545:NE:4924, H-A:TYR:484:OH:4348"]

$$$$
ZINC963136543
     RDKit          3D

 50 52  0  0  0  0  0  0  0  0999 V2000
  126.7660  127.5750   60.4190 C   0  0  0  0  0  0  0  0  0  0  0  0
  127.1830  126.4600   59.6410 O   0  0  0  0  0  0  0  0  0  0  0  0
  128.0430  125.6150   60.2960 C   0  0  0  0  0  0  0  0  0  0  0  0
  129.4070  125.9160   60.3350 C   0  0  0  0  0  0  0  0  0  0  0  0
  130.3080  125.0840   61.0030 C   0  0  0  0  0  0  0  0  0  0  0  0
  131.8070  125.4290   61.0090 C   0  0  2  0  0  0  0  0  0  0  0  0
  132.4400  125.3860   59.6160 C   0  0  0  0  0  0  0  0  0  0  0  0
  131.8490  126.2020   58.1930 S   0  0  0  0  0  0  0  0  0  0  0  0
  133.1550  125.4880   57.3100 C   0  0  0  0  0  0  0  0  0  0  0  0
  133.9580  124.7300   58.0100 N   0  0  0  0  0  0  0  0  0  0  0  0
  133.5870  124.6720   59.2750 C   0  0  0  0  0  0  0  0  0  0  0  0
  134.3630  123.8790   60.3110 C   0  0  0  0  0  0  0  0  0  0  0  0
  133.4210  123.4380   61.4840 C   0  0  2  0  0  0  0  0  0  0  0  0
  132.5150  122.1970   61.1850 C   0  0  0  0  0  0  0  0  0  0  0  0
  132.6710  121.5790   60.1060 O   0  0  0  0  0  0  0  0  0  0  0  0
  131.7080  121.8270   62.0680 O   0  0  0  0  0  0  0  0  0  0  0  0
  132.6680  124.6460   61.9540 N   0  0  0  0  0  0  0  0  0  0  0  0
  132.6610  124.9010   63.3450 C   0  0  0  0  0  0  0  0  0  0  0  0
  133.6080  124.6850   64.1070 O   0  0  0  0  0  0  0  0  0  0  0  0
  131.4840  125.4710   63.7620 O   0  0  0  0  0  0  0  0  0  0  0  0
  130.7600  125.1160   64.9580 C   0  0  0  0  0  0  0  0  0  0  0  0
  130.3400  123.6250   64.9370 C   0  0  0  0  0  0  0  0  0  0  0  0
  131.5780  125.4450   66.2320 C   0  0  0  0  0  0  0  0  0  0  0  0
  129.4960  126.0000   64.9350 C   0  0  0  0  0  0  0  0  0  0  0  0
  129.8250  123.9100   61.5960 C   0  0  0  0  0  0  0  0  0  0  0  0
  128.4670  123.5920   61.5580 C   0  0  0  0  0  0  0  0  0  0  0  0
  128.0040  122.3590   62.2010 N   0  0  0  0  0  0  0  0  0  0  0  0
  128.3730  121.2940   61.7190 O   0  0  0  0  0  0  0  0  0  0  0  0
  127.2740  122.4700   63.1800 O   0  0  0  0  0  0  0  0  0  0  0  0
  127.5690  124.4490   60.9060 C   0  0  0  0  0  0  0  0  0  0  0  0
  125.5200  123.9910   60.8230 I   0  0  0  0  0  0  0  0  0  0  0  0
  126.8572  127.3311   61.4877 H   0  0  0  0  0  0  0  0  0  0  0  0
  127.4003  128.4428   60.1855 H   0  0  0  0  0  0  0  0  0  0  0  0
  125.7179  127.8136   60.1855 H   0  0  0  0  0  0  0  0  0  0  0  0
  129.7765  126.8218   59.8320 H   0  0  0  0  0  0  0  0  0  0  0  0
  131.7892  126.4618   61.3871 H   0  0  0  0  0  0  0  0  0  0  0  0
  133.2996  125.6602   56.2332 H   0  0  0  0  0  0  0  0  0  0  0  0
  134.7919  122.9846   59.8355 H   0  0  0  0  0  0  0  0  0  0  0  0
  135.1642  124.5136   60.7177 H   0  0  0  0  0  0  0  0  0  0  0  0
  134.0485  123.0534   62.3015 H   0  0  0  0  0  0  0  0  0  0  0  0
  130.2368  123.2586   65.9690 H   0  0  0  0  0  0  0  0  0  0  0  0
  129.3780  123.5224   64.4135 H   0  0  0  0  0  0  0  0  0  0  0  0
  131.1070  123.0353   64.4135 H   0  0  0  0  0  0  0  0  0  0  0  0
  130.9804  125.2046   67.1237 H   0  0  0  0  0  0  0  0  0  0  0  0
  132.5023  124.8487   66.2384 H   0  0  0  0  0  0  0  0  0  0  0  0
  131.8320  126.5152   66.2384 H   0  0  0  0  0  0  0  0  0  0  0  0
  129.1829  126.2190   65.9665 H   0  0  0  0  0  0  0  0  0  0  0  0
  129.7166  126.9417   64.4110 H   0  0  0  0  0  0  0  0  0  0  0  0
  128.6872  125.4697   64.4110 H   0  0  0  0  0  0  0  0  0  0  0  0
  130.5270  123.2288   62.0991 H   0  0  0  0  0  0  0  0  0  0  0  0
  1  2  1  0
  2  3  1  0
  3  4  2  0
  4  5  1  0
  5  6  1  0
  6  7  1  0
  7  8  1  0
  8  9  1  0
  9 10  2  0
 10 11  1  0
 11 12  1  0
 12 13  1  0
 13 14  1  0
 14 15  2  0
 14 16  1  0
 13 17  1  0
 17 18  1  0
 18 19  2  0
 18 20  1  0
 20 21  1  0
 21 22  1  0
 21 23  1  0
 21 24  1  0
  5 25  2  0
 25 26  1  0
 26 27  1  0
 27 28  2  0
 27 29  1  0
 26 30  2  0
 30 31  1  0
 30  3  1  0
 17  6  1  0
 11  7  2  0
  1 32  1  0
  1 33  1  0
  1 34  1  0
  4 35  1  0
  6 36  1  1
  9 37  1  0
 12 38  1  0
 12 39  1  0
 13 40  1  1
 22 41  1  0
 22 42  1  0
 22 43  1  0
 23 44  1  0
 23 45  1  0
 23 46  1  0
 24 47  1  0
 24 48  1  0
 24 49  1  0
 25 50  1  0
M  CHG  3  16  -1  27   1  29  -1
M  END
>  <Binding energies>  (1) 
[-6.58]

>  <Ligand effiencies>  (1) 
[-0.21225806451612902]

>  <Interactions>  (1) 
["V-A:ILE:369:CG2:3237, V-A:ASP:366:CA:3210, V-B:PRO:540:CA:9855, V-A:ILE:369:CB:3236, V-B:ASP:366:CG:8184, V-B:ALA:541:CB:9864, V-A:ASN:370:CB:3245, V-A:TYR:484:CE2:4346, V-B:GLU:543:CG:9879, V-A:ASP:366:CG:3213, V-B:TYR:539:CZ:9849, H-B:TYR:539:OH:9850, H-B:ALA:541:N:9863, V-A:TYR:484:CZ:4347, V-B:PRO:540:CB:9857, V-A:GLU:543:CD:4908, H-A:GLY:454:N:4050, V-A:ILE:369:CD1:3239, V-A:HIS:456:CE1:4070, V-A:ASP:366:C:3208, V-A:TYR:531:CZ:4794, V-B:GLU:543:CD:9880, V-A:ILE:369:CG1:3238, V-A:ASP:366:CB:3212, V-A:LEU:475:CD2:4259, H-A:ARG:545:NH2:4928, V-A:ARG:545:CZ:4926, H-A:ARG:545:NE:4924, V-B:PRO:540:C:9853, V-B:ALA:541:CA:9862, H-A:TYR:484:OH:4348"]

$$$$
ZINC963154160
     RDKit          3D

 64 67  0  0  0  0  0  0  0  0999 V2000
  133.7890  125.0980   65.5930 C   0  0  0  0  0  0  0  0  0  0  0  0
  133.2730  124.2510   64.5730 O   0  0  0  0  0  0  0  0  0  0  0  0
  132.4060  124.8740   63.7070 C   0  0  0  0  0  0  0  0  0  0  0  0
  132.7780  125.0980   62.3750 C   0  0  0  0  0  0  0  0  0  0  0  0
  134.1480  124.6800   61.8630 C   0  0  0  0  0  0  0  0  0  0  0  0
  131.8940  125.7450   61.5100 C   0  0  0  0  0  0  0  0  0  0  0  0
  130.6280  126.1910   61.9330 C   0  0  0  0  0  0  0  0  0  0  0  0
  129.6540  126.9080   60.9240 C   0  0  2  0  0  0  0  0  0  0  0  0
  130.4280  128.0800   60.2330 C   0  0  0  0  0  0  0  0  0  0  0  0
  131.0030  127.9680   58.9560 C   0  0  0  0  0  0  0  0  0  0  0  0
  131.7160  129.0230   58.3900 C   0  0  0  0  0  0  0  0  0  0  0  0
  131.8820  130.2180   59.0870 C   0  0  0  0  0  0  0  0  0  0  0  0
  132.7710  131.5040   58.3490 Cl  0  0  0  0  0  0  0  0  0  0  0  0
  131.3270  130.3530   60.3640 C   0  0  0  0  0  0  0  0  0  0  0  0
  131.5060  131.8120   61.2760 Cl  0  0  0  0  0  0  0  0  0  0  0  0
  130.6140  129.2930   60.9230 C   0  0  0  0  0  0  0  0  0  0  0  0
  128.4010  127.4590   61.6990 C   0  0  0  0  0  0  0  0  0  0  0  0
  128.3650  128.1880   63.3000 S   0  0  0  0  0  0  0  0  0  0  0  0
  126.6610  128.4040   63.1300 C   0  0  0  0  0  0  0  0  0  0  0  0
  126.1530  127.9810   62.0050 N   0  0  0  0  0  0  0  0  0  0  0  0
  127.0740  127.4590   61.2150 C   0  0  0  0  0  0  0  0  0  0  0  0
  126.6970  126.8990   59.8470 C   0  0  0  0  0  0  0  0  0  0  0  0
  128.0090  126.7590   59.0120 C   0  0  2  0  0  0  0  0  0  0  0  0
  127.8310  126.2940   57.5280 C   0  0  0  0  0  0  0  0  0  0  0  0
  128.7160  126.6110   56.7000 O   0  0  0  0  0  0  0  0  0  0  0  0
  126.7880  125.6740   57.2160 O   0  0  0  0  0  0  0  0  0  0  0  0
  129.0130  126.0230   59.8670 N   0  0  0  0  0  0  0  0  0  0  0  0
  129.0010  124.6000   59.9760 C   0  0  0  0  0  0  0  0  0  0  0  0
  129.0440  123.8030   59.0380 O   0  0  0  0  0  0  0  0  0  0  0  0
  128.9140  124.1880   61.2790 O   0  0  0  0  0  0  0  0  0  0  0  0
  128.2230  123.0220   61.7580 C   0  0  0  0  0  0  0  0  0  0  0  0
  128.7370  121.7350   61.0680 C   0  0  0  0  0  0  0  0  0  0  0  0
  128.3190  122.9090   63.3000 C   0  0  0  0  0  0  0  0  0  0  0  0
  126.7570  123.2680   61.3510 C   0  0  0  0  0  0  0  0  0  0  0  0
  130.2880  125.9650   63.2790 C   0  0  0  0  0  0  0  0  0  0  0  0
  131.1580  125.3190   64.1600 C   0  0  0  0  0  0  0  0  0  0  0  0
  130.7440  125.1290   65.6120 C   0  0  0  0  0  0  0  0  0  0  0  0
  133.5351  124.6813   66.5789 H   0  0  0  0  0  0  0  0  0  0  0  0
  134.8824  125.1665   65.4944 H   0  0  0  0  0  0  0  0  0  0  0  0
  133.3484  126.1011   65.4944 H   0  0  0  0  0  0  0  0  0  0  0  0
  134.8121  124.4774   62.7162 H   0  0  0  0  0  0  0  0  0  0  0  0
  134.0492  123.7711   61.2513 H   0  0  0  0  0  0  0  0  0  0  0  0
  134.5734  125.4892   61.2513 H   0  0  0  0  0  0  0  0  0  0  0  0
  132.1962  125.9114   60.4655 H   0  0  0  0  0  0  0  0  0  0  0  0
  130.8882  127.0302   58.3926 H   0  0  0  0  0  0  0  0  0  0  0  0
  132.1509  128.9116   57.3858 H   0  0  0  0  0  0  0  0  0  0  0  0
  130.1856  129.4076   61.9296 H   0  0  0  0  0  0  0  0  0  0  0  0
  126.0457  128.8664   63.9159 H   0  0  0  0  0  0  0  0  0  0  0  0
  126.2206  125.9144   59.9638 H   0  0  0  0  0  0  0  0  0  0  0  0
  125.9874  127.5688   59.3393 H   0  0  0  0  0  0  0  0  0  0  0  0
  128.4232  127.7542   58.7931 H   0  0  0  0  0  0  0  0  0  0  0  0
  129.0302  121.0009   61.8330 H   0  0  0  0  0  0  0  0  0  0  0  0
  127.9389  121.3117   60.4404 H   0  0  0  0  0  0  0  0  0  0  0  0
  129.6071  121.9779   60.4404 H   0  0  0  0  0  0  0  0  0  0  0  0
  127.6733  123.6690   63.7642 H   0  0  0  0  0  0  0  0  0  0  0  0
  127.9914  121.9074   63.6154 H   0  0  0  0  0  0  0  0  0  0  0  0
  129.3604  123.0704   63.6154 H   0  0  0  0  0  0  0  0  0  0  0  0
  126.1381  123.3718   62.2544 H   0  0  0  0  0  0  0  0  0  0  0  0
  126.6919  124.1896   60.7540 H   0  0  0  0  0  0  0  0  0  0  0  0
  126.3946  122.4181   60.7540 H   0  0  0  0  0  0  0  0  0  0  0  0
  129.3096  126.3066   63.6480 H   0  0  0  0  0  0  0  0  0  0  0  0
  131.5436  125.4960   66.2723 H   0  0  0  0  0  0  0  0  0  0  0  0
  129.8199  125.6931   65.8066 H   0  0  0  0  0  0  0  0  0  0  0  0
  130.5692  124.0606   65.8066 H   0  0  0  0  0  0  0  0  0  0  0  0
  1  2  1  0
  2  3  1  0
  3  4  2  0
  4  5  1  0
  4  6  1  0
  6  7  2  0
  8  7  1  1
  8  9  1  0
  9 10  2  0
 10 11  1  0
 11 12  2  0
 12 13  1  0
 12 14  1  0
 14 15  1  0
 14 16  2  0
  8 17  1  0
 17 18  1  0
 18 19  1  0
 19 20  2  0
 20 21  1  0
 21 22  1  0
 22 23  1  0
 23 24  1  0
 24 25  2  0
 24 26  1  0
 23 27  1  0
 27 28  1  0
 28 29  2  0
 28 30  1  0
 30 31  1  0
 31 32  1  0
 31 33  1  0
 31 34  1  0
  7 35  1  0
 35 36  2  0
 36 37  1  0
 36  3  1  0
 27  8  1  0
 16  9  1  0
 21 17  2  0
  1 38  1  0
  1 39  1  0
  1 40  1  0
  5 41  1  0
  5 42  1  0
  5 43  1  0
  6 44  1  0
 10 45  1  0
 11 46  1  0
 16 47  1  0
 19 48  1  0
 22 49  1  0
 22 50  1  0
 23 51  1  6
 32 52  1  0
 32 53  1  0
 32 54  1  0
 33 55  1  0
 33 56  1  0
 33 57  1  0
 34 58  1  0
 34 59  1  0
 34 60  1  0
 35 61  1  0
 37 62  1  0
 37 63  1  0
 37 64  1  0
M  CHG  1  26  -1
M  END
>  <Binding energies>  (1) 
[-6.12]

>  <Ligand effiencies>  (1) 
[-0.1654054054054054]

>  <Interactions>  (1) 
["V-B:PRO:540:CA:9855, V-A:GLY:454:CA:4049, V-A:PRO:540:C:4881, V-B:ASP:366:CG:8184, V-B:ALA:541:CB:9864, V-B:GLU:543:CG:9879, V-B:TYR:539:C:9839, V-A:ASP:366:CG:3213, V-A:LEU:363:CD1:3189, V-A:GLU:543:CD:4908, V-B:PRO:540:CB:9857, V-A:ARG:545:CG:4922, H-A:GLY:454:N:4050, V-A:ILE:369:CD1:3239, V-B:GLU:543:CD:9880, H-B:TYR:531:OH:9767, V-A:ARG:545:CD:4923, V-A:ASP:366:CB:3212, V-A:ARG:545:CZ:4926, H-B:ARG:545:NH2:9900, V-A:PRO:540:CB:4885, V-A:PRO:540:CA:4883, V-B:PRO:540:C:9853, H-A:TYR:484:OH:4348"]

$$$$
ZINC963176146-again1
     RDKit          3D

 85 92  0  0  0  0  0  0  0  0999 V2000
  130.1210  127.6870   69.1100 C   0  0  0  0  0  0  0  0  0  0  0  0
  130.0810  126.8590   68.0510 C   0  0  0  0  0  0  0  0  0  0  0  0
  129.4500  125.4760   68.0080 C   0  0  0  0  0  0  0  0  0  0  0  0
  130.2430  124.5420   67.2840 O   0  0  0  0  0  0  0  0  0  0  0  0
  129.7980  123.9940   66.1230 C   0  0  0  0  0  0  0  0  0  0  0  0
  129.1670  122.9380   66.0350 O   0  0  0  0  0  0  0  0  0  0  0  0
  130.1750  124.7770   64.8440 C   0  0  2  0  0  0  0  0  0  0  0  0
  129.6130  126.2180   64.9240 C   0  0  0  0  0  0  0  0  0  0  0  0
  129.5910  126.8160   63.5300 C   0  0  0  0  0  0  0  0  0  0  0  0
  129.4400  128.1510   63.2860 N   0  0  0  0  0  0  0  0  0  0  0  0
  129.5120  128.3370   61.9420 C   0  0  0  0  0  0  0  0  0  0  0  0
  129.6180  127.1150   61.2770 N   0  0  0  0  0  0  0  0  0  0  0  0
  129.7420  127.0390   59.7570 C   0  0  0  0  0  0  0  0  0  0  0  0
  131.0840  126.3450   59.2820 C   0  0  0  0  0  0  0  0  0  0  0  0
  131.3540  126.0890   57.9220 C   0  0  0  0  0  0  0  0  0  0  0  0
  132.5350  125.4710   57.5210 C   0  0  0  0  0  0  0  0  0  0  0  0
  133.4810  125.1010   58.4710 C   0  0  0  0  0  0  0  0  0  0  0  0
  133.2550  125.3540   59.8190 C   0  0  0  0  0  0  0  0  0  0  0  0
  132.0730  125.9710   60.2160 C   0  0  0  0  0  0  0  0  0  0  0  0
  128.5080  126.1860   59.2950 C   0  0  0  0  0  0  0  0  0  0  0  0
  128.3960  125.5990   58.0240 C   0  0  0  0  0  0  0  0  0  0  0  0
  127.3040  124.8030   57.6880 C   0  0  0  0  0  0  0  0  0  0  0  0
  126.3030  124.5720   58.6230 C   0  0  0  0  0  0  0  0  0  0  0  0
  126.3810  125.1410   59.8900 C   0  0  0  0  0  0  0  0  0  0  0  0
  127.4710  125.9420   60.2160 C   0  0  0  0  0  0  0  0  0  0  0  0
  129.9910  128.4260   59.0760 C   0  0  0  0  0  0  0  0  0  0  0  0
  129.0640  128.9570   58.1620 C   0  0  0  0  0  0  0  0  0  0  0  0
  129.3180  130.1420   57.4800 C   0  0  0  0  0  0  0  0  0  0  0  0
  130.5220  130.8080   57.6830 C   0  0  0  0  0  0  0  0  0  0  0  0
  131.4660  130.2980   58.5670 C   0  0  0  0  0  0  0  0  0  0  0  0
  131.1950  129.1270   59.2690 C   0  0  0  0  0  0  0  0  0  0  0  0
  129.7450  126.1230   62.3100 C   0  0  0  0  0  0  0  0  0  0  0  0
  130.1250  124.5840   62.3370 C   0  0  1  0  0  0  0  0  0  0  0  0
  129.2760  123.6920   61.3910 C   0  0  0  0  0  0  0  0  0  0  0  0
  128.1520  122.9010   61.7050 C   0  0  0  0  0  0  0  0  0  0  0  0
  127.6700  122.0920   60.6740 C   0  0  0  0  0  0  0  0  0  0  0  0
  128.3760  122.2570   59.5020 C   0  0  0  0  0  0  0  0  0  0  0  0
  129.6540  123.4000   59.6980 S   0  0  0  0  0  0  0  0  0  0  0  0
  131.6740  124.3160   62.2740 C   0  0  0  0  0  0  0  0  0  0  0  0
  132.5660  125.2530   62.8160 C   0  0  0  0  0  0  0  0  0  0  0  0
  133.9400  125.0710   62.8100 C   0  0  0  0  0  0  0  0  0  0  0  0
  134.4950  123.9240   62.2730 C   0  0  0  0  0  0  0  0  0  0  0  0
  133.6650  122.9000   61.7730 C   0  0  0  0  0  0  0  0  0  0  0  0
  134.2420  121.7030   61.2770 C   0  0  0  0  0  0  0  0  0  0  0  0
  133.4410  120.6640   60.8260 C   0  0  0  0  0  0  0  0  0  0  0  0
  132.0600  120.7840   60.8610 C   0  0  0  0  0  0  0  0  0  0  0  0
  131.4630  121.9490   61.3320 C   0  0  0  0  0  0  0  0  0  0  0  0
  132.2370  123.0640   61.7860 C   0  0  0  0  0  0  0  0  0  0  0  0
  129.6690  124.0790   63.6520 N   0  0  0  0  0  0  0  0  0  0  0  0
  130.6080  128.6694   69.0220 H   0  0  0  0  0  0  0  0  0  0  0  0
  129.6667  127.3818   70.0642 H   0  0  0  0  0  0  0  0  0  0  0  0
  130.5515  127.2178   67.1237 H   0  0  0  0  0  0  0  0  0  0  0  0
  129.3268  125.1114   69.0385 H   0  0  0  0  0  0  0  0  0  0  0  0
  128.4814  125.5642   67.4941 H   0  0  0  0  0  0  0  0  0  0  0  0
  131.2706  124.8351   64.7650 H   0  0  0  0  0  0  0  0  0  0  0  0
  128.5915  126.1937   65.3313 H   0  0  0  0  0  0  0  0  0  0  0  0
  130.2485  126.8295   65.5814 H   0  0  0  0  0  0  0  0  0  0  0  0
  129.3540  128.8770   63.9850 H   0  0  0  0  0  0  0  0  0  0  0  0
  129.4897  129.3183   61.4454 H   0  0  0  0  0  0  0  0  0  0  0  0
  130.6157  126.3839   57.1618 H   0  0  0  0  0  0  0  0  0  0  0  0
  132.7198  125.2756   56.4544 H   0  0  0  0  0  0  0  0  0  0  0  0
  134.4112  124.6065   58.1546 H   0  0  0  0  0  0  0  0  0  0  0  0
  134.0074  125.0676   60.5685 H   0  0  0  0  0  0  0  0  0  0  0  0
  131.9054  126.1722   61.2844 H   0  0  0  0  0  0  0  0  0  0  0  0
  129.1868  125.7715   57.2791 H   0  0  0  0  0  0  0  0  0  0  0  0
  127.2342  124.3581   56.6844 H   0  0  0  0  0  0  0  0  0  0  0  0
  125.4447  123.9362   58.3603 H   0  0  0  0  0  0  0  0  0  0  0  0
  125.5867  124.9590   60.6288 H   0  0  0  0  0  0  0  0  0  0  0  0
  127.5240  126.3954   61.2168 H   0  0  0  0  0  0  0  0  0  0  0  0
  128.1185  128.4242   57.9827 H   0  0  0  0  0  0  0  0  0  0  0  0
  128.5707  130.5504   56.7837 H   0  0  0  0  0  0  0  0  0  0  0  0
  130.7283  131.7429   57.1414 H   0  0  0  0  0  0  0  0  0  0  0  0
  132.4243  130.8184   58.7113 H   0  0  0  0  0  0  0  0  0  0  0  0
  131.9350  128.7434   59.9868 H   0  0  0  0  0  0  0  0  0  0  0  0
  127.6839  122.9200   62.7002 H   0  0  0  0  0  0  0  0  0  0  0  0
  126.8218  121.4005   60.7849 H   0  0  0  0  0  0  0  0  0  0  0  0
  128.1537  121.7286   58.5632 H   0  0  0  0  0  0  0  0  0  0  0  0
  132.1580  126.1707   63.2646 H   0  0  0  0  0  0  0  0  0  0  0  0
  134.5945  125.8456   63.2361 H   0  0  0  0  0  0  0  0  0  0  0  0
  135.5885  123.8101   62.2358 H   0  0  0  0  0  0  0  0  0  0  0  0
  135.3366  121.5974   61.2496 H   0  0  0  0  0  0  0  0  0  0  0  0
  133.9023  119.7431   60.4398 H   0  0  0  0  0  0  0  0  0  0  0  0
  131.4312  119.9510   60.5134 H   0  0  0  0  0  0  0  0  0  0  0  0
  130.3652  122.0150   61.3562 H   0  0  0  0  0  0  0  0  0  0  0  0
  129.9490  123.1100   63.7140 H   0  0  0  0  0  0  0  0  0  0  0  0
  1  2  2  0
  2  3  1  0
  3  4  1  0
  4  5  1  0
  5  6  2  0
  5  7  1  0
  7  8  1  0
  8  9  1  0
  9 10  1  0
 10 11  2  0
 11 12  1  0
 12 13  1  0
 13 14  1  0
 14 15  2  0
 15 16  1  0
 16 17  2  0
 17 18  1  0
 18 19  2  0
 13 20  1  0
 20 21  2  0
 21 22  1  0
 22 23  2  0
 23 24  1  0
 24 25  2  0
 13 26  1  0
 26 27  2  0
 27 28  1  0
 28 29  2  0
 29 30  1  0
 30 31  2  0
 12 32  1  0
 32 33  1  0
 33 34  1  6
 34 35  2  0
 35 36  1  0
 36 37  2  0
 37 38  1  0
 33 39  1  0
 39 40  2  0
 40 41  1  0
 41 42  2  0
 42 43  1  0
 43 44  2  0
 44 45  1  0
 45 46  2  0
 46 47  1  0
 47 48  2  0
 33 49  1  0
 49  7  1  0
 32  9  2  0
 38 34  1  0
 48 39  1  0
 19 14  1  0
 25 20  1  0
 31 26  1  0
 48 43  1  0
  1 50  1  0
  1 51  1  0
  2 52  1  0
  3 53  1  0
  3 54  1  0
  7 55  1  6
  8 56  1  0
  8 57  1  0
 10 58  1  0
 11 59  1  0
 15 60  1  0
 16 61  1  0
 17 62  1  0
 18 63  1  0
 19 64  1  0
 21 65  1  0
 22 66  1  0
 23 67  1  0
 24 68  1  0
 25 69  1  0
 27 70  1  0
 28 71  1  0
 29 72  1  0
 30 73  1  0
 31 74  1  0
 35 75  1  0
 36 76  1  0
 37 77  1  0
 40 78  1  0
 41 79  1  0
 42 80  1  0
 44 81  1  0
 45 82  1  0
 46 83  1  0
 47 84  1  0
 49 85  1  0
M  CHG  1  10   1
M  END
>  <Binding energies>  (1) 
[-8.24]

>  <Ligand effiencies>  (1) 
[-0.16156862745098038]

>  <Interactions>  (1) 
["V-A:ILE:369:CG2:3237, V-A:ASP:366:CA:3210, V-B:PRO:540:CA:9855, V-B:GLU:543:C:9874, H-A:GLU:543:OE2:4910, V-B:GLU:543:CB:9878, V-B:TYR:539:CE2:9848, V-A:TYR:484:CE2:4346, V-B:GLU:543:CG:9879, V-B:TYR:539:C:9839, V-A:ASP:366:CG:3213, V-B:TYR:539:CZ:9849, V-A:TYR:484:CZ:4347, V-A:GLU:543:CD:4908, V-B:PRO:540:CB:9857, V-B:GLU:543:CA:9876, V-A:SER:385:C:3405, V-A:GLY:453:C:4042, V-B:PRO:540:N:9856, V-A:HIS:456:CE1:4070, V-A:ILE:369:CD1:3239, V-A:ASP:366:C:3208, V-B:TYR:539:CD2:9846, V-A:SER:385:CB:3409, V-B:GLU:543:CD:9880, V-A:MET:535:CE:4835, V-A:ASP:366:CB:3212, V-A:LEU:475:CD2:4259, V-A:ARG:545:CZ:4926, H-A:GLU:543:OE1:4909, V-A:GLU:543:CB:4906, V-A:GLY:453:CA:4044, V-A:SER:385:CA:3407, V-B:PRO:540:C:9853, H-A:TYR:484:OH:4348"]

$$$$
ZINC963185644
     RDKit          3D

 82 89  0  0  0  0  0  0  0  0999 V2000
  133.6170  124.9240   63.8160 O   0  0  0  0  0  0  0  0  0  0  0  0
  132.7520  125.0580   62.9440 C   0  0  0  0  0  0  0  0  0  0  0  0
  131.3750  125.5200   63.2170 C   0  0  0  0  0  0  0  0  0  0  0  0
  131.0740  125.9050   64.5130 N   0  0  0  0  0  0  0  0  0  0  0  0
  130.2560  125.1160   65.4240 C   0  0  0  0  0  0  0  0  0  0  0  0
  130.5530  125.4210   66.9030 C   0  0  0  0  0  0  0  0  0  0  0  0
  129.6050  126.3830   67.4730 N   0  0  0  0  0  0  0  0  0  0  0  0
  128.9330  127.2230   66.4720 C   0  0  0  0  0  0  0  0  0  0  0  0
  127.9850  128.2430   67.1390 C   0  0  0  0  0  0  0  0  0  0  0  0
  128.6910  129.0090   68.1090 O   0  0  0  0  0  0  0  0  0  0  0  0
  129.2510  128.1990   69.1360 C   0  0  0  0  0  0  0  0  0  0  0  0
  130.2400  127.1800   68.5290 C   0  0  0  0  0  0  0  0  0  0  0  0
  130.4260  125.5960   62.2520 C   0  0  0  0  0  0  0  0  0  0  0  0
  128.7800  126.1380   62.6670 Cl  0  0  0  0  0  0  0  0  0  0  0  0
  130.6280  125.2890   60.7500 C   0  0  1  0  0  0  0  0  0  0  0  0
  132.0900  124.8400   60.4810 C   0  0  0  0  0  0  0  0  0  0  0  0
  132.4790  124.5140   59.1690 C   0  0  0  0  0  0  0  0  0  0  0  0
  133.7710  124.1050   58.8640 C   0  0  0  0  0  0  0  0  0  0  0  0
  134.7160  124.0070   59.8740 C   0  0  0  0  0  0  0  0  0  0  0  0
  134.3600  124.3200   61.1820 C   0  0  0  0  0  0  0  0  0  0  0  0
  133.0570  124.7390   61.5090 C   0  0  0  0  0  0  0  0  0  0  0  0
  129.7080  124.1070   60.4230 C   0  0  0  0  0  0  0  0  0  0  0  0
  129.7840  122.7330   60.6960 C   0  0  0  0  0  0  0  0  0  0  0  0
  128.6590  122.1360   60.1500 C   0  0  0  0  0  0  0  0  0  0  0  0
  127.8910  123.0720   59.5440 O   0  0  0  0  0  0  0  0  0  0  0  0
  128.5410  124.2520   59.7140 C   0  0  0  0  0  0  0  0  0  0  0  0
  128.0110  125.5400   59.1880 C   0  0  0  0  0  0  0  0  0  0  0  0
  129.2170  126.4620   58.8040 C   0  0  1  0  0  0  0  0  0  0  0  0
  128.5520  127.8190   58.3920 C   0  0  0  0  0  0  0  0  0  0  0  0
  128.6880  128.1750   57.1990 O   0  0  0  0  0  0  0  0  0  0  0  0
  127.9090  128.4660   59.2540 O   0  0  0  0  0  0  0  0  0  0  0  0
  130.2810  126.5150   59.8960 N   0  0  0  0  0  0  0  0  0  0  0  0
  131.1720  127.6390   59.9210 C   0  0  0  0  0  0  0  0  0  0  0  0
  131.9540  127.9690   59.0250 O   0  0  0  0  0  0  0  0  0  0  0  0
  131.0660  128.3570   61.0690 O   0  0  0  0  0  0  0  0  0  0  0  0
  130.0820  129.3660   61.2710 C   0  0  0  0  0  0  0  0  0  0  0  0
  130.5920  130.8180   61.0990 C   0  0  0  0  0  0  0  0  0  0  0  0
  130.6990  131.2980   59.6590 C   0  0  0  0  0  0  0  0  0  0  0  0
  131.5030  130.8290   58.6160 C   0  0  0  0  0  0  0  0  0  0  0  0
  131.4290  131.4230   57.3550 C   0  0  0  0  0  0  0  0  0  0  0  0
  130.5620  132.4940   57.1350 C   0  0  0  0  0  0  0  0  0  0  0  0
  129.7740  132.9800   58.1780 C   0  0  0  0  0  0  0  0  0  0  0  0
  129.8490  132.3830   59.4370 C   0  0  0  0  0  0  0  0  0  0  0  0
  129.1670  132.7060   60.6990 C   0  0  0  0  0  0  0  0  0  0  0  0
  128.2330  133.6970   61.0100 C   0  0  0  0  0  0  0  0  0  0  0  0
  127.7480  133.8030   62.3150 C   0  0  0  0  0  0  0  0  0  0  0  0
  128.1960  132.9230   63.3010 C   0  0  0  0  0  0  0  0  0  0  0  0
  129.1280  131.9320   62.9870 C   0  0  0  0  0  0  0  0  0  0  0  0
  129.6120  131.8210   61.6810 C   0  0  0  0  0  0  0  0  0  0  0  0
  131.8280  126.3450   65.0220 H   0  0  0  0  0  0  0  0  0  0  0  0
  129.1965  125.3350   65.2252 H   0  0  0  0  0  0  0  0  0  0  0  0
  130.4915  124.0558   65.2492 H   0  0  0  0  0  0  0  0  0  0  0  0
  130.4942  124.4841   67.4763 H   0  0  0  0  0  0  0  0  0  0  0  0
  131.5582  125.8641   66.9604 H   0  0  0  0  0  0  0  0  0  0  0  0
  129.6934  127.7668   65.8922 H   0  0  0  0  0  0  0  0  0  0  0  0
  128.3358  126.5714   65.8172 H   0  0  0  0  0  0  0  0  0  0  0  0
  127.5773  128.9165   66.3707 H   0  0  0  0  0  0  0  0  0  0  0  0
  127.1668  127.7010   67.6358 H   0  0  0  0  0  0  0  0  0  0  0  0
  129.7837  128.8393   69.8544 H   0  0  0  0  0  0  0  0  0  0  0  0
  128.4424  127.6554   69.6466 H   0  0  0  0  0  0  0  0  0  0  0  0
  131.0963  127.7227   68.1022 H   0  0  0  0  0  0  0  0  0  0  0  0
  130.5691  126.4985   69.3273 H   0  0  0  0  0  0  0  0  0  0  0  0
  131.7373  124.5851   58.3598 H   0  0  0  0  0  0  0  0  0  0  0  0
  134.0430  123.8601   57.8267 H   0  0  0  0  0  0  0  0  0  0  0  0
  135.7415  123.6836   59.6423 H   0  0  0  0  0  0  0  0  0  0  0  0
  135.1141  124.2381   61.9786 H   0  0  0  0  0  0  0  0  0  0  0  0
  130.5899  122.2226   61.2437 H   0  0  0  0  0  0  0  0  0  0  0  0
  128.4250  121.0624   60.2012 H   0  0  0  0  0  0  0  0  0  0  0  0
  127.3930  125.3497   58.2982 H   0  0  0  0  0  0  0  0  0  0  0  0
  127.3938  126.0314   59.9546 H   0  0  0  0  0  0  0  0  0  0  0  0
  129.8167  126.0854   57.9623 H   0  0  0  0  0  0  0  0  0  0  0  0
  129.2700  129.2011   60.5475 H   0  0  0  0  0  0  0  0  0  0  0  0
  129.7574  129.2751   62.3181 H   0  0  0  0  0  0  0  0  0  0  0  0
  131.5753  130.7762   61.5903 H   0  0  0  0  0  0  0  0  0  0  0  0
  132.1945  129.9912   58.7891 H   0  0  0  0  0  0  0  0  0  0  0  0
  132.0554  131.0461   56.5331 H   0  0  0  0  0  0  0  0  0  0  0  0
  130.5000  132.9552   56.1383 H   0  0  0  0  0  0  0  0  0  0  0  0
  129.0965  133.8300   58.0090 H   0  0  0  0  0  0  0  0  0  0  0  0
  127.8816  134.3899   60.2313 H   0  0  0  0  0  0  0  0  0  0  0  0
  127.0120  134.5810   62.5661 H   0  0  0  0  0  0  0  0  0  0  0  0
  127.8137  133.0104   64.3287 H   0  0  0  0  0  0  0  0  0  0  0  0
  129.4805  131.2401   63.7661 H   0  0  0  0  0  0  0  0  0  0  0  0
  1  2  2  0
  2  3  1  0
  3  4  1  0
  4  5  1  0
  5  6  1  0
  6  7  1  0
  7  8  1  0
  8  9  1  0
  9 10  1  0
 10 11  1  0
 11 12  1  0
  3 13  2  0
 13 14  1  0
 13 15  1  0
 15 16  1  0
 16 17  2  0
 17 18  1  0
 18 19  2  0
 19 20  1  0
 20 21  2  0
 15 22  1  0
 22 23  1  0
 23 24  2  0
 24 25  1  0
 25 26  1  0
 26 27  1  0
 27 28  1  0
 28 29  1  0
 29 30  2  0
 29 31  1  0
 28 32  1  0
 32 33  1  0
 33 34  2  0
 33 35  1  0
 35 36  1  0
 36 37  1  0
 37 38  1  0
 38 39  2  0
 39 40  1  0
 40 41  2  0
 41 42  1  0
 42 43  2  0
 43 44  1  0
 44 45  2  0
 45 46  1  0
 46 47  2  0
 47 48  1  0
 48 49  2  0
 21  2  1  0
 26 22  2  0
 49 37  1  0
 12  7  1  0
 15 32  1  6
 43 38  1  0
 49 44  1  0
 21 16  1  0
  4 50  1  0
  5 51  1  0
  5 52  1  0
  6 53  1  0
  6 54  1  0
  8 55  1  0
  8 56  1  0
  9 57  1  0
  9 58  1  0
 11 59  1  0
 11 60  1  0
 12 61  1  0
 12 62  1  0
 17 63  1  0
 18 64  1  0
 19 65  1  0
 20 66  1  0
 23 67  1  0
 24 68  1  0
 27 69  1  0
 27 70  1  0
 28 71  1  6
 36 72  1  0
 36 73  1  0
 37 74  1  0
 39 75  1  0
 40 76  1  0
 41 77  1  0
 42 78  1  0
 45 79  1  0
 46 80  1  0
 47 81  1  0
 48 82  1  0
M  CHG  1  31  -1
M  END
>  <Binding energies>  (1) 
[-9.93]

>  <Ligand effiencies>  (1) 
[-0.1986]

>  <Interactions>  (1) 
["V-A:ILE:369:CG2:3237, V-A:ASP:366:CA:3210, V-B:PRO:540:CA:9855, H-A:GLU:543:OE2:4910, V-A:ILE:369:CB:3236, V-B:GLU:543:CB:9878, H-A:ARG:545:NH1:4927, H-A:TYR:531:OH:4795, V-B:TYR:539:CE2:9848, V-B:GLU:543:CG:9879, V-B:LEU:475:CD2:9230, V-B:TYR:539:C:9839, V-A:ASP:366:CG:3213, V-A:TYR:539:CD1:4873, V-B:TYR:539:CZ:9849, V-A:ALA:541:CB:4892, V-A:GLU:543:CD:4908, V-B:HIS:456:CE1:9041, H-A:GLY:454:N:4050, V-B:PRO:540:N:9856, V-A:ILE:369:CD1:3239, V-A:HIS:456:CE1:4070, V-B:TYR:539:CD2:9846, V-A:GLU:543:CG:4907, V-B:GLU:543:CD:9880, V-A:ILE:369:CG1:3238, V-A:ASP:366:CB:3212, V-A:TYR:539:C:4867, H-A:ARG:545:NH2:4928, V-A:ARG:545:CZ:4926, H-A:GLU:543:OE1:4909, V-A:GLU:543:CB:4906, V-A:PRO:540:N:4884, V-A:PRO:540:CB:4885, V-A:PRO:540:CA:4883, H-A:ARG:545:NE:4924"]

$$$$
ZINC963185644-again1
     RDKit          3D

 81 88  0  0  0  0  0  0  0  0999 V2000
  128.4060  128.3330   64.3890 O   0  0  0  0  0  0  0  0  0  0  0  0
  128.9690  127.3110   63.9710 C   0  0  0  0  0  0  0  0  0  0  0  0
  129.2570  126.0950   64.8070 C   0  0  0  0  0  0  0  0  0  0  0  0
  128.7720  126.2390   66.1290 N   0  0  0  0  0  0  0  0  0  0  0  0
  129.8360  126.4780   67.0980 C   0  0  0  0  0  0  0  0  0  0  0  0
  129.4510  127.5870   68.1160 C   0  0  0  0  0  0  0  0  0  0  0  0
  129.5430  127.1990   69.5380 N   0  0  0  0  0  0  0  0  0  0  0  0
  128.2370  127.0840   70.2170 C   0  0  0  0  0  0  0  0  0  0  0  0
  128.4040  126.7260   71.7080 C   0  0  0  0  0  0  0  0  0  0  0  0
  129.2580  127.6680   72.3480 O   0  0  0  0  0  0  0  0  0  0  0  0
  130.5540  127.7030   71.7600 C   0  0  0  0  0  0  0  0  0  0  0  0
  130.4500  128.0940   70.2710 C   0  0  0  0  0  0  0  0  0  0  0  0
  129.7790  124.9670   64.2400 C   0  0  0  0  0  0  0  0  0  0  0  0
  129.9300  123.4710   65.1990 Cl  0  0  0  0  0  0  0  0  0  0  0  0
  130.2670  124.8010   62.7830 C   0  0  1  0  0  0  0  0  0  0  0  0
  130.0560  126.1130   61.9840 C   0  0  0  0  0  0  0  0  0  0  0  0
  130.4810  126.1780   60.6430 C   0  0  0  0  0  0  0  0  0  0  0  0
  130.2910  127.3120   59.8620 C   0  0  0  0  0  0  0  0  0  0  0  0
  129.6660  128.4220   60.4110 C   0  0  0  0  0  0  0  0  0  0  0  0
  129.2480  128.3910   61.7360 C   0  0  0  0  0  0  0  0  0  0  0  0
  129.4370  127.2520   62.5430 C   0  0  0  0  0  0  0  0  0  0  0  0
  131.7750  124.5360   62.8780 C   0  0  0  0  0  0  0  0  0  0  0  0
  132.8540  125.3270   63.2980 C   0  0  0  0  0  0  0  0  0  0  0  0
  134.0060  124.5710   63.1620 C   0  0  0  0  0  0  0  0  0  0  0  0
  133.6940  123.3460   62.6740 O   0  0  0  0  0  0  0  0  0  0  0  0
  132.3470  123.3420   62.5070 C   0  0  0  0  0  0  0  0  0  0  0  0
  131.6110  122.1530   61.9880 C   0  0  0  0  0  0  0  0  0  0  0  0
  130.3220  122.6380   61.2430 C   0  0  1  0  0  0  0  0  0  0  0  0
  129.5840  121.3120   60.8530 C   0  0  0  0  0  0  0  0  0  0  0  0
  130.2570  120.2580   60.9040 O   0  0  0  0  0  0  0  0  0  0  0  0
  128.3780  121.3630   60.5130 O   0  0  0  0  0  0  0  0  0  0  0  0
  129.5480  123.6430   62.0920 N   0  0  0  0  0  0  0  0  0  0  0  0
  128.1460  123.8570   61.8900 C   0  0  0  0  0  0  0  0  0  0  0  0
  127.2370  123.3290   62.5370 O   0  0  0  0  0  0  0  0  0  0  0  0
  127.9000  124.8200   60.9690 O   0  0  0  0  0  0  0  0  0  0  0  0
  126.6700  125.5310   60.9390 C   0  0  0  0  0  0  0  0  0  0  0  0
  126.1860  125.6800   59.4830 C   0  0  0  0  0  0  0  0  0  0  0  0
  126.6890  126.9540   58.8350 C   0  0  0  0  0  0  0  0  0  0  0  0
  126.4890  128.2840   59.2160 C   0  0  0  0  0  0  0  0  0  0  0  0
  127.0660  129.3160   58.4720 C   0  0  0  0  0  0  0  0  0  0  0  0
  127.8410  129.0210   57.3500 C   0  0  0  0  0  0  0  0  0  0  0  0
  128.0410  127.6940   56.9650 C   0  0  0  0  0  0  0  0  0  0  0  0
  127.4610  126.6650   57.7100 C   0  0  0  0  0  0  0  0  0  0  0  0
  127.4930  125.2050   57.5300 C   0  0  0  0  0  0  0  0  0  0  0  0
  128.1120  124.4120   56.5620 C   0  0  0  0  0  0  0  0  0  0  0  0
  127.9680  123.0250   56.6080 C   0  0  0  0  0  0  0  0  0  0  0  0
  127.2010  122.4350   57.6150 C   0  0  0  0  0  0  0  0  0  0  0  0
  126.5850  123.2290   58.5810 C   0  0  0  0  0  0  0  0  0  0  0  0
  126.7360  124.6190   58.5450 C   0  0  0  0  0  0  0  0  0  0  0  0
  130.0347  125.5451   67.6460 H   0  0  0  0  0  0  0  0  0  0  0  0
  130.7291  126.8123   66.5497 H   0  0  0  0  0  0  0  0  0  0  0  0
  130.1208  128.4443   67.9538 H   0  0  0  0  0  0  0  0  0  0  0  0
  128.3907  127.8143   67.9311 H   0  0  0  0  0  0  0  0  0  0  0  0
  127.7070  128.0446   70.1374 H   0  0  0  0  0  0  0  0  0  0  0  0
  127.6653  126.2796   69.7311 H   0  0  0  0  0  0  0  0  0  0  0  0
  127.4187  126.7382   72.1970 H   0  0  0  0  0  0  0  0  0  0  0  0
  128.8512  125.7242   71.7883 H   0  0  0  0  0  0  0  0  0  0  0  0
  131.1733  128.4430   72.2881 H   0  0  0  0  0  0  0  0  0  0  0  0
  131.0126  126.7063   71.8394 H   0  0  0  0  0  0  0  0  0  0  0  0
  130.0709  129.1240   70.1981 H   0  0  0  0  0  0  0  0  0  0  0  0
  131.4512  128.0110   69.8230 H   0  0  0  0  0  0  0  0  0  0  0  0
  130.9793  125.3034   60.1994 H   0  0  0  0  0  0  0  0  0  0  0  0
  130.6336  127.3291   58.8168 H   0  0  0  0  0  0  0  0  0  0  0  0
  129.5020  129.3223   59.8006 H   0  0  0  0  0  0  0  0  0  0  0  0
  128.7577  129.2773   62.1650 H   0  0  0  0  0  0  0  0  0  0  0  0
  132.7958  126.3611   63.6685 H   0  0  0  0  0  0  0  0  0  0  0  0
  135.0210  124.9131   63.4123 H   0  0  0  0  0  0  0  0  0  0  0  0
  132.2538  121.5971   61.2895 H   0  0  0  0  0  0  0  0  0  0  0  0
  131.3322  121.4941   62.8235 H   0  0  0  0  0  0  0  0  0  0  0  0
  130.5031  123.2199   60.3273 H   0  0  0  0  0  0  0  0  0  0  0  0
  125.9157  124.9797   61.5196 H   0  0  0  0  0  0  0  0  0  0  0  0
  126.8180  126.5297   61.3756 H   0  0  0  0  0  0  0  0  0  0  0  0
  125.0925  125.6304   59.5921 H   0  0  0  0  0  0  0  0  0  0  0  0
  125.8781  128.5176   60.1004 H   0  0  0  0  0  0  0  0  0  0  0  0
  126.9091  130.3628   58.7712 H   0  0  0  0  0  0  0  0  0  0  0  0
  128.2955  129.8358   56.7674 H   0  0  0  0  0  0  0  0  0  0  0  0
  128.6516  127.4604   56.0804 H   0  0  0  0  0  0  0  0  0  0  0  0
  128.7109  124.8789   55.7662 H   0  0  0  0  0  0  0  0  0  0  0  0
  128.4588  122.3959   55.8508 H   0  0  0  0  0  0  0  0  0  0  0  0
  127.0828  121.3418   57.6459 H   0  0  0  0  0  0  0  0  0  0  0  0
  125.9798  122.7621   59.3720 H   0  0  0  0  0  0  0  0  0  0  0  0
  1  2  2  0
  2  3  1  0
  3  4  1  0
  4  5  1  0
  5  6  1  0
  6  7  1  0
  7  8  1  0
  8  9  1  0
  9 10  1  0
 10 11  1  0
 11 12  1  0
  3 13  2  0
 13 14  1  0
 13 15  1  0
 15 16  1  0
 16 17  2  0
 17 18  1  0
 18 19  2  0
 19 20  1  0
 20 21  2  0
 15 22  1  0
 22 23  1  0
 23 24  2  0
 24 25  1  0
 25 26  1  0
 26 27  1  0
 27 28  1  0
 28 29  1  0
 29 30  2  0
 29 31  1  0
 28 32  1  0
 32 33  1  0
 33 34  2  0
 33 35  1  0
 35 36  1  0
 36 37  1  0
 37 38  1  0
 38 39  2  0
 39 40  1  0
 40 41  2  0
 41 42  1  0
 42 43  2  0
 43 44  1  0
 44 45  2  0
 45 46  1  0
 46 47  2  0
 47 48  1  0
 48 49  2  0
 21  2  1  0
 26 22  2  0
 49 37  1  0
 12  7  1  0
 15 32  1  6
 43 38  1  0
 49 44  1  0
 21 16  1  0
  5 50  1  0
  5 51  1  0
  6 52  1  0
  6 53  1  0
  8 54  1  0
  8 55  1  0
  9 56  1  0
  9 57  1  0
 11 58  1  0
 11 59  1  0
 12 60  1  0
 12 61  1  0
 17 62  1  0
 18 63  1  0
 19 64  1  0
 20 65  1  0
 23 66  1  0
 24 67  1  0
 27 68  1  0
 27 69  1  0
 28 70  1  6
 36 71  1  0
 36 72  1  0
 37 73  1  0
 39 74  1  0
 40 75  1  0
 41 76  1  0
 42 77  1  0
 45 78  1  0
 46 79  1  0
 47 80  1  0
 48 81  1  0
M  CHG  2   4  -1  31  -1
M  END
>  <Binding energies>  (1) 
[-6.8]

>  <Ligand effiencies>  (1) 
[-0.13877551020408163]

>  <Interactions>  (1) 
["V-B:TYR:539:CA:9841, V-B:PRO:540:CA:9855, V-B:GLU:543:C:9874, V-A:GLU:543:C:4902, V-B:GLU:543:CB:9878, V-B:ASP:366:CG:8184, V-B:TYR:539:CE2:9848, V-A:TYR:484:CE2:4346, V-B:GLU:543:CG:9879, V-A:GLY:544:C:4912, V-B:TYR:539:C:9839, V-A:HIS:456:CD2:4068, V-B:TYR:539:CZ:9849, H-B:ALA:541:N:9863, V-A:GLU:543:CD:4908, V-A:TYR:484:CZ:4347, V-B:PRO:540:CB:9857, V-B:HIS:456:CE1:9041, H-A:GLY:454:N:4050, V-A:GLY:453:C:4042, V-B:PRO:540:N:9856, V-A:HIS:456:CE1:4070, V-B:TYR:539:CD2:9846, V-B:PRO:540:CD:9859, V-B:GLU:543:CD:9880, V-A:MET:535:CE:4835, V-A:LEU:475:CD2:4259, V-A:ARG:545:CZ:4926, V-B:TYR:539:CG:9844, V-A:GLU:543:CB:4906, V-B:TYR:539:CD1:9845, V-A:GLY:453:CA:4044, V-B:TYR:539:CE1:9847"]

$$$$
ZINC963192529
     RDKit          3D

 90 93  0  0  0  0  0  0  0  0999 V2000
  126.5100  128.0470   58.5160 C   0  0  0  0  0  0  0  0  0  0  0  0
  127.1350  129.0020   59.3760 O   0  0  0  0  0  0  0  0  0  0  0  0
  127.6500  128.4990   60.5280 C   0  0  0  0  0  0  0  0  0  0  0  0
  128.6870  127.6030   60.5290 C   0  0  0  0  0  0  0  0  0  0  0  0
  129.3460  127.1130   59.4290 O   0  0  0  0  0  0  0  0  0  0  0  0
  130.3690  127.8560   58.7760 C   0  0  0  0  0  0  0  0  0  0  0  0
  129.3340  126.9380   61.7840 C   0  0  2  0  0  0  0  0  0  0  0  0
  130.7310  127.3890   61.9660 N   0  0  0  0  0  0  0  0  0  0  0  0
  131.8570  126.5910   61.5120 C   0  0  0  0  0  0  0  0  0  0  0  0
  131.7680  125.0360   61.8630 C   0  0  0  0  0  0  0  0  0  0  0  0
  132.8330  124.2410   61.0010 C   0  0  0  0  0  0  0  0  0  0  0  0
  134.3210  124.4290   61.4060 C   0  0  0  0  0  0  0  0  0  0  0  0
  134.4910  124.0940   62.7790 O   0  0  0  0  0  0  0  0  0  0  0  0
  133.7250  124.9050   63.6640 C   0  0  0  0  0  0  0  0  0  0  0  0
  132.2130  124.7530   63.3480 C   0  0  0  0  0  0  0  0  0  0  0  0
  130.2920  124.5050   61.6840 C   0  0  0  0  0  0  0  0  0  0  0  0
  130.0400  123.1240   61.6040 C   0  0  0  0  0  0  0  0  0  0  0  0
  128.7560  122.5810   61.4620 C   0  0  0  0  0  0  0  0  0  0  0  0
  128.4970  121.2230   61.3760 O   0  0  0  0  0  0  0  0  0  0  0  0
  129.5030  120.2870   61.7440 C   0  0  0  0  0  0  0  0  0  0  0  0
  127.6580  123.4390   61.4100 C   0  0  0  0  0  0  0  0  0  0  0  0
  126.4100  122.8610   61.2590 O   0  0  0  0  0  0  0  0  0  0  0  0
  125.3620  123.5970   60.6360 C   0  0  0  0  0  0  0  0  0  0  0  0
  127.8700  124.8180   61.5170 C   0  0  0  0  0  0  0  0  0  0  0  0
  129.1550  125.3740   61.6640 C   0  0  0  0  0  0  0  0  0  0  0  0
  128.5030  127.4350   63.0280 C   0  0  0  0  0  0  0  0  0  0  0  0
  128.8980  126.7720   64.3680 C   0  0  0  0  0  0  0  0  0  0  0  0
  127.4950  128.3740   62.9850 C   0  0  0  0  0  0  0  0  0  0  0  0
  126.7660  128.8840   64.2440 C   0  0  0  0  0  0  0  0  0  0  0  0
  127.6700  129.7010   65.1880 C   0  0  0  0  0  0  0  0  0  0  0  0
  127.5920  129.2300   66.6510 C   0  0  0  0  0  0  0  0  0  0  0  0
  128.1290  127.8010   66.8460 C   0  0  0  0  0  0  0  0  0  0  0  0
  128.6150  127.5310   68.2820 C   0  0  0  0  0  0  0  0  0  0  0  0
  129.8710  126.6420   68.3290 C   0  0  0  0  0  0  0  0  0  0  0  0
  131.1290  127.4030   68.7840 C   0  0  0  0  0  0  0  0  0  0  0  0
  130.8610  128.3520   69.9660 C   0  0  0  0  0  0  0  0  0  0  0  0
  130.0220  127.6990   71.0840 C   0  0  0  0  0  0  0  0  0  0  0  0
  130.4650  128.0720   72.5100 C   0  0  0  0  0  0  0  0  0  0  0  0
  130.3180  129.4580   72.7430 O   0  0  0  0  0  0  0  0  0  0  0  0
  127.0070  129.0530   61.7430 C   0  0  0  0  0  0  0  0  0  0  0  0
  126.0970  130.0440   61.6990 O   0  0  0  0  0  0  0  0  0  0  0  0
  126.0079  127.2798   59.1236 H   0  0  0  0  0  0  0  0  0  0  0  0
  125.7690  128.5549   57.8812 H   0  0  0  0  0  0  0  0  0  0  0  0
  127.2720  127.5712   57.8812 H   0  0  0  0  0  0  0  0  0  0  0  0
  131.0177  128.3271   59.5292 H   0  0  0  0  0  0  0  0  0  0  0  0
  130.9679  127.1809   58.1470 H   0  0  0  0  0  0  0  0  0  0  0  0
  129.9123  128.6343   58.1470 H   0  0  0  0  0  0  0  0  0  0  0  0
  131.9268  126.6905   60.4187 H   0  0  0  0  0  0  0  0  0  0  0  0
  132.7401  126.9757   62.0432 H   0  0  0  0  0  0  0  0  0  0  0  0
  132.5964  123.1696   61.0800 H   0  0  0  0  0  0  0  0  0  0  0  0
  132.7512  124.6488   59.9827 H   0  0  0  0  0  0  0  0  0  0  0  0
  134.9534  123.7739   60.7889 H   0  0  0  0  0  0  0  0  0  0  0  0
  134.6114  125.4782   61.2486 H   0  0  0  0  0  0  0  0  0  0  0  0
  133.9138  124.5912   64.7012 H   0  0  0  0  0  0  0  0  0  0  0  0
  134.0173  125.9574   63.5338 H   0  0  0  0  0  0  0  0  0  0  0  0
  131.9239  123.7200   63.5914 H   0  0  0  0  0  0  0  0  0  0  0  0
  131.7127  125.5247   63.9515 H   0  0  0  0  0  0  0  0  0  0  0  0
  130.8952  122.4340   61.6556 H   0  0  0  0  0  0  0  0  0  0  0  0
  129.5659  120.2285   62.8406 H   0  0  0  0  0  0  0  0  0  0  0  0
  129.2487  119.2968   61.3380 H   0  0  0  0  0  0  0  0  0  0  0  0
  130.4723  120.6119   61.3380 H   0  0  0  0  0  0  0  0  0  0  0  0
  124.7209  124.0472   61.4082 H   0  0  0  0  0  0  0  0  0  0  0  0
  125.7940  124.3911   60.0093 H   0  0  0  0  0  0  0  0  0  0  0  0
  124.7616  122.9211   60.0093 H   0  0  0  0  0  0  0  0  0  0  0  0
  127.0012  125.4920   61.4851 H   0  0  0  0  0  0  0  0  0  0  0  0
  128.5317  127.3869   65.2033 H   0  0  0  0  0  0  0  0  0  0  0  0
  128.4501  125.7691   64.4269 H   0  0  0  0  0  0  0  0  0  0  0  0
  129.9932  126.6885   64.4269 H   0  0  0  0  0  0  0  0  0  0  0  0
  125.9273  129.5212   63.9268 H   0  0  0  0  0  0  0  0  0  0  0  0
  126.4286  127.9993   64.8038 H   0  0  0  0  0  0  0  0  0  0  0  0
  128.7108  129.6077   64.8446 H   0  0  0  0  0  0  0  0  0  0  0  0
  127.3202  130.7435   65.1585 H   0  0  0  0  0  0  0  0  0  0  0  0
  128.1848  129.9164   67.2734 H   0  0  0  0  0  0  0  0  0  0  0  0
  126.5314  129.2283   66.9427 H   0  0  0  0  0  0  0  0  0  0  0  0
  127.3248  127.0890   66.6085 H   0  0  0  0  0  0  0  0  0  0  0  0
  128.9946  127.6810   66.1779 H   0  0  0  0  0  0  0  0  0  0  0  0
  128.8474  128.4934   68.7613 H   0  0  0  0  0  0  0  0  0  0  0  0
  127.8108  126.9966   68.8090 H   0  0  0  0  0  0  0  0  0  0  0  0
  129.6889  125.8145   69.0305 H   0  0  0  0  0  0  0  0  0  0  0  0
  130.0567  126.2801   67.3070 H   0  0  0  0  0  0  0  0  0  0  0  0
  131.8914  126.6706   69.0879 H   0  0  0  0  0  0  0  0  0  0  0  0
  131.4667  128.0183   67.9370 H   0  0  0  0  0  0  0  0  0  0  0  0
  131.8264  128.6657   70.3898 H   0  0  0  0  0  0  0  0  0  0  0  0
  130.2861  129.2061   69.5789 H   0  0  0  0  0  0  0  0  0  0  0  0
  128.9751  128.0114   70.9559 H   0  0  0  0  0  0  0  0  0  0  0  0
  130.1594  126.6120   70.9862 H   0  0  0  0  0  0  0  0  0  0  0  0
  129.8485  127.5188   73.2338 H   0  0  0  0  0  0  0  0  0  0  0  0
  131.5269  127.8093   72.6255 H   0  0  0  0  0  0  0  0  0  0  0  0
  130.2350  129.9010   71.8960 H   0  0  0  0  0  0  0  0  0  0  0  0
  125.9060  130.3730   60.8170 H   0  0  0  0  0  0  0  0  0  0  0  0
  1  2  1  0
  2  3  1  0
  3  4  2  0
  4  5  1  0
  5  6  1  0
  4  7  1  0
  7  8  1  1
  8  9  1  0
  9 10  1  0
 10 11  1  0
 11 12  1  0
 12 13  1  0
 13 14  1  0
 14 15  1  0
 10 16  1  0
 16 17  2  0
 17 18  1  0
 18 19  1  0
 19 20  1  0
 18 21  2  0
 21 22  1  0
 22 23  1  0
 21 24  1  0
 24 25  2  0
  7 26  1  0
 26 27  1  0
 26 28  2  0
 28 29  1  0
 29 30  1  0
 30 31  1  0
 31 32  1  0
 32 33  1  0
 33 34  1  0
 34 35  1  0
 35 36  1  0
 36 37  1  0
 37 38  1  0
 38 39  1  0
 28 40  1  0
 40 41  2  3
 40  3  1  0
 25  7  1  0
 15 10  1  0
 25 16  1  0
  1 42  1  0
  1 43  1  0
  1 44  1  0
  6 45  1  0
  6 46  1  0
  6 47  1  0
  9 48  1  0
  9 49  1  0
 11 50  1  0
 11 51  1  0
 12 52  1  0
 12 53  1  0
 14 54  1  0
 14 55  1  0
 15 56  1  0
 15 57  1  0
 17 58  1  0
 20 59  1  0
 20 60  1  0
 20 61  1  0
 23 62  1  0
 23 63  1  0
 23 64  1  0
 24 65  1  0
 27 66  1  0
 27 67  1  0
 27 68  1  0
 29 69  1  0
 29 70  1  0
 30 71  1  0
 30 72  1  0
 31 73  1  0
 31 74  1  0
 32 75  1  0
 32 76  1  0
 33 77  1  0
 33 78  1  0
 34 79  1  0
 34 80  1  0
 35 81  1  0
 35 82  1  0
 36 83  1  0
 36 84  1  0
 37 85  1  0
 37 86  1  0
 38 87  1  0
 38 88  1  0
 39 89  1  0
 41 90  1  0
M  CHG  2   8  -1  41   1
M  END
>  <Binding energies>  (1) 
[-5.97]

>  <Ligand effiencies>  (1) 
[-0.13883720930232557]

>  <Interactions>  (1) 
["V-B:PRO:540:CA:9855, V-A:GLU:543:CA:4904, V-A:GLU:543:C:4902, V-B:GLU:543:CB:9878, V-B:ALA:541:CB:9864, V-B:GLU:543:CG:9879, V-A:GLY:544:C:4912, V-A:ASP:366:CG:3213, H-B:ALA:541:N:9863, V-A:GLU:543:CD:4908, V-B:PRO:540:CB:9857, V-B:HIS:456:CE1:9041, H-A:GLY:454:N:4050, V-A:ARG:545:CG:4922, V-B:TYR:484:CZ:9318, V-A:ILE:369:CD1:3239, V-A:HIS:456:CE1:4070, H-B:HIS:456:NE2:9042, V-A:GLU:543:CG:4907, V-B:GLU:543:CD:9880, H-A:LYS:547:NZ:4951, H-A:ARG:545:NH2:4928, V-A:ARG:545:CZ:4926, V-A:LEU:475:CD2:4259, V-A:GLU:543:CB:4906, V-B:PRO:540:C:9853, V-B:ALA:541:CA:9862, H-A:GLY:544:O:4913, H-A:GLU:543:O:4903"]

$$$$
ZINC963197235
     RDKit          3D

 81 88  0  0  0  0  0  0  0  0999 V2000
  133.8530  125.4730   66.5100 N   0  0  0  0  0  0  0  0  0  0  0  0
  133.0050  125.2070   65.7680 C   0  0  0  0  0  0  0  0  0  0  0  0
  131.9350  124.8710   64.8300 C   0  0  0  0  0  0  0  0  0  0  0  0
  130.6210  124.6350   65.2190 C   0  0  0  0  0  0  0  0  0  0  0  0
  129.9260  124.6610   66.8420 S   0  0  0  0  0  0  0  0  0  0  0  0
  129.4820  126.4300   66.9290 C   0  0  0  0  0  0  0  0  0  0  0  0
  129.5020  126.9830   68.3490 C   0  0  0  0  0  0  0  0  0  0  0  0
  130.6420  127.6300   68.8350 C   0  0  0  0  0  0  0  0  0  0  0  0
  130.6660  128.1090   70.1420 C   0  0  0  0  0  0  0  0  0  0  0  0
  129.5470  127.9480   70.9580 C   0  0  0  0  0  0  0  0  0  0  0  0
  129.5720  128.5450   72.5750 Cl  0  0  0  0  0  0  0  0  0  0  0  0
  128.4050  127.3100   70.4750 C   0  0  0  0  0  0  0  0  0  0  0  0
  128.3820  126.8270   69.1700 C   0  0  0  0  0  0  0  0  0  0  0  0
  129.6130  124.3010   63.8610 S   0  0  0  0  0  0  0  0  0  0  0  0
  130.9190  124.4190   62.7060 C   0  0  0  0  0  0  0  0  0  0  0  0
  130.7230  124.2150   61.1680 C   0  0  1  0  0  0  0  0  0  0  0  0
  131.1890  122.7350   60.9940 C   0  0  0  0  0  0  0  0  0  0  0  0
  132.5290  122.4190   60.7090 C   0  0  0  0  0  0  0  0  0  0  0  0
  132.9320  121.0970   60.5460 C   0  0  0  0  0  0  0  0  0  0  0  0
  132.0000  120.0710   60.6520 C   0  0  0  0  0  0  0  0  0  0  0  0
  130.6660  120.3580   60.9210 C   0  0  0  0  0  0  0  0  0  0  0  0
  130.2650  121.6800   61.0870 C   0  0  0  0  0  0  0  0  0  0  0  0
  129.2710  124.3670   60.5820 C   0  0  0  0  0  0  0  0  0  0  0  0
  127.9630  124.1250   61.0470 C   0  0  0  0  0  0  0  0  0  0  0  0
  127.0730  124.4430   60.0370 C   0  0  0  0  0  0  0  0  0  0  0  0
  127.7470  124.8580   58.9410 O   0  0  0  0  0  0  0  0  0  0  0  0
  129.0630  124.8030   59.2620 C   0  0  0  0  0  0  0  0  0  0  0  0
  130.1320  125.2280   58.2600 C   0  0  0  0  0  0  0  0  0  0  0  0
  131.5260  124.8450   58.8750 C   0  0  1  0  0  0  0  0  0  0  0  0
  132.7770  125.2630   58.0360 C   0  0  0  0  0  0  0  0  0  0  0  0
  133.6570  124.3960   57.8240 O   0  0  0  0  0  0  0  0  0  0  0  0
  132.8150  126.4170   57.5530 O   0  0  0  0  0  0  0  0  0  0  0  0
  131.5140  125.2200   60.3370 N   0  0  0  0  0  0  0  0  0  0  0  0
  131.5120  126.6310   60.6070 C   0  0  0  0  0  0  0  0  0  0  0  0
  132.0990  127.1820   61.5420 O   0  0  0  0  0  0  0  0  0  0  0  0
  130.7730  127.3400   59.7230 O   0  0  0  0  0  0  0  0  0  0  0  0
  129.5150  127.9020   60.0780 C   0  0  0  0  0  0  0  0  0  0  0  0
  129.5550  129.4280   59.8710 C   0  0  0  0  0  0  0  0  0  0  0  0
  129.4420  130.2130   61.1620 C   0  0  0  0  0  0  0  0  0  0  0  0
  128.4240  130.2050   62.1200 C   0  0  0  0  0  0  0  0  0  0  0  0
  128.5260  131.0190   63.2500 C   0  0  0  0  0  0  0  0  0  0  0  0
  129.6430  131.8390   63.4240 C   0  0  0  0  0  0  0  0  0  0  0  0
  130.6590  131.8520   62.4670 C   0  0  0  0  0  0  0  0  0  0  0  0
  130.5530  131.0380   61.3370 C   0  0  0  0  0  0  0  0  0  0  0  0
  131.4490  130.8610   60.1820 C   0  0  0  0  0  0  0  0  0  0  0  0
  132.6760  131.4520   59.8720 C   0  0  0  0  0  0  0  0  0  0  0  0
  133.3290  131.1060   58.6870 C   0  0  0  0  0  0  0  0  0  0  0  0
  132.7570  130.1750   57.8190 C   0  0  0  0  0  0  0  0  0  0  0  0
  131.5310  129.5870   58.1340 C   0  0  0  0  0  0  0  0  0  0  0  0
  130.8750  129.9310   59.3170 C   0  0  0  0  0  0  0  0  0  0  0  0
  132.0900  124.7330   63.4330 C   0  0  0  0  0  0  0  0  0  0  0  0
  133.3030  124.9070   62.8140 N   0  0  0  0  0  0  0  0  0  0  0  0
  130.1990  127.0011   66.3209 H   0  0  0  0  0  0  0  0  0  0  0  0
  128.4528  126.5284   66.5535 H   0  0  0  0  0  0  0  0  0  0  0  0
  131.5197  127.7606   68.1850 H   0  0  0  0  0  0  0  0  0  0  0  0
  131.5641  128.6124   70.5293 H   0  0  0  0  0  0  0  0  0  0  0  0
  127.5249  127.1888   71.1236 H   0  0  0  0  0  0  0  0  0  0  0  0
  127.4832  126.3230   68.7852 H   0  0  0  0  0  0  0  0  0  0  0  0
  133.2687  123.2275   60.6136 H   0  0  0  0  0  0  0  0  0  0  0  0
  133.9859  120.8644   60.3337 H   0  0  0  0  0  0  0  0  0  0  0  0
  132.3194  119.0264   60.5224 H   0  0  0  0  0  0  0  0  0  0  0  0
  129.9312  119.5435   61.0022 H   0  0  0  0  0  0  0  0  0  0  0  0
  129.2080  121.9030   61.2943 H   0  0  0  0  0  0  0  0  0  0  0  0
  127.6950  123.7470   62.0447 H   0  0  0  0  0  0  0  0  0  0  0  0
  125.9782  124.3691   60.1142 H   0  0  0  0  0  0  0  0  0  0  0  0
  129.9841  124.7016   57.3055 H   0  0  0  0  0  0  0  0  0  0  0  0
  130.0757  126.3091   58.0650 H   0  0  0  0  0  0  0  0  0  0  0  0
  131.6623  123.7550   58.8170 H   0  0  0  0  0  0  0  0  0  0  0  0
  128.7277  127.4670   59.4448 H   0  0  0  0  0  0  0  0  0  0  0  0
  129.3010  127.6817   61.1342 H   0  0  0  0  0  0  0  0  0  0  0  0
  128.7078  129.5833   59.1868 H   0  0  0  0  0  0  0  0  0  0  0  0
  127.5443  129.5587   61.9840 H   0  0  0  0  0  0  0  0  0  0  0  0
  127.7253  131.0143   64.0043 H   0  0  0  0  0  0  0  0  0  0  0  0
  129.7223  132.4761   64.3172 H   0  0  0  0  0  0  0  0  0  0  0  0
  131.5379  132.4995   62.6020 H   0  0  0  0  0  0  0  0  0  0  0  0
  133.1254  132.1858   60.5573 H   0  0  0  0  0  0  0  0  0  0  0  0
  134.2956  131.5680   58.4375 H   0  0  0  0  0  0  0  0  0  0  0  0
  133.2727  129.9043   56.8858 H   0  0  0  0  0  0  0  0  0  0  0  0
  131.0816  128.8523   57.4497 H   0  0  0  0  0  0  0  0  0  0  0  0
  133.5360  125.7660   62.3350 H   0  0  0  0  0  0  0  0  0  0  0  0
  134.0160  124.1920   62.8330 H   0  0  0  0  0  0  0  0  0  0  0  0
  1  2  3  0
  2  3  1  0
  3  4  2  0
  4  5  1  0
  5  6  1  0
  6  7  1  0
  7  8  2  0
  8  9  1  0
  9 10  2  0
 10 11  1  0
 10 12  1  0
 12 13  2  0
  4 14  1  0
 14 15  1  0
 16 15  1  1
 16 17  1  0
 17 18  2  0
 18 19  1  0
 19 20  2  0
 20 21  1  0
 21 22  2  0
 16 23  1  0
 23 24  1  0
 24 25  2  0
 25 26  1  0
 26 27  1  0
 27 28  1  0
 28 29  1  0
 29 30  1  0
 30 31  2  0
 30 32  1  0
 29 33  1  0
 33 34  1  0
 34 35  2  0
 34 36  1  0
 36 37  1  0
 37 38  1  0
 38 39  1  0
 39 40  2  0
 40 41  1  0
 41 42  2  0
 42 43  1  0
 43 44  2  0
 44 45  1  0
 45 46  2  0
 46 47  1  0
 47 48  2  0
 48 49  1  0
 49 50  2  0
 15 51  2  0
 51 52  1  0
 51  3  1  0
 13  7  1  0
 33 16  1  0
 50 38  1  0
 22 17  1  0
 27 23  2  0
 44 39  1  0
 50 45  1  0
  6 53  1  0
  6 54  1  0
  8 55  1  0
  9 56  1  0
 12 57  1  0
 13 58  1  0
 18 59  1  0
 19 60  1  0
 20 61  1  0
 21 62  1  0
 22 63  1  0
 24 64  1  0
 25 65  1  0
 28 66  1  0
 28 67  1  0
 29 68  1  1
 37 69  1  0
 37 70  1  0
 38 71  1  0
 40 72  1  0
 41 73  1  0
 42 74  1  0
 43 75  1  0
 46 76  1  0
 47 77  1  0
 48 78  1  0
 49 79  1  0
 52 80  1  0
 52 81  1  0
M  CHG  1  32  -1
M  END
>  <Binding energies>  (1) 
[-11.11]

>  <Ligand effiencies>  (1) 
[-0.20574074074074072]

>  <Interactions>  (1) 
["V-A:ILE:369:CG2:3237, V-A:ASP:366:CA:3210, V-B:GLU:543:C:9874, V-B:HIS:456:CD2:9039, V-A:GLU:543:C:4902, V-B:GLU:543:CB:9878, H-A:TYR:531:OH:4795, V-B:TYR:539:CE2:9848, V-B:GLU:543:CG:9879, V-A:GLY:544:C:4912, V-A:ASP:366:CG:3213, V-A:LEU:363:CD1:3189, V-A:LEU:363:CB:3187, V-B:TYR:539:CZ:9849, V-A:TYR:531:CE2:4793, H-B:TYR:539:OH:9850, V-A:ALA:541:CB:4892, V-A:TYR:484:CZ:4347, V-A:GLU:543:CD:4908, V-B:HIS:456:CE1:9041, V-A:HIS:456:CE1:4070, V-A:ASP:366:C:3208, V-B:TYR:539:CD2:9846, V-A:GLU:543:CG:4907, V-A:SER:385:CB:3409, V-A:TYR:531:CZ:4794, V-B:GLU:543:CD:9880, V-A:ASP:366:CB:3212, V-A:ARG:545:CD:4923, V-A:LEU:475:CD2:4259, H-A:ARG:545:NH2:4928, V-A:ARG:545:CZ:4926, V-A:GLU:543:CB:4906, H-A:ASP:366:OD1:3214, V-A:PRO:540:CB:4885, V-A:PRO:540:CA:4883, V-A:LEU:363:CA:3185, H-A:ARG:545:NE:4924, H-A:ASP:366:OD2:3215, H-A:TYR:484:OH:4348"]

$$$$
ZINC963230062
     RDKit          3D

105111  0  0  0  0  0  0  0  0999 V2000
  129.2130  126.4470   75.5820 C   0  0  0  0  0  0  0  0  0  0  0  0
  129.8850  127.4790   74.6400 C   0  0  2  0  0  0  0  0  0  0  0  0
  128.8660  128.3510   73.8520 C   0  0  0  0  0  0  0  0  0  0  0  0
  127.7200  127.5480   73.2280 C   0  0  0  0  0  0  0  0  0  0  0  0
  126.5490  127.7950   73.5120 O   0  0  0  0  0  0  0  0  0  0  0  0
  128.1050  126.4520   72.2200 C   0  0  0  0  0  0  0  0  0  0  0  0
  127.3670  126.4900   70.8490 C   0  0  1  0  0  0  0  0  0  0  0  0
  126.3900  127.6890   70.8000 C   0  0  0  0  0  0  0  0  0  0  0  0
  128.4020  126.4920   69.6760 C   0  0  1  0  0  0  0  0  0  0  0  0
  128.7370  125.0680   69.1440 C   0  0  0  0  0  0  0  0  0  0  0  0
  128.9300  125.1760   67.6160 C   0  0  2  0  0  0  0  0  0  0  0  0
  129.8910  124.2680   67.1060 O   0  0  0  0  0  0  0  0  0  0  0  0
  129.1200  126.6960   67.3500 C   0  0  1  0  0  0  0  0  0  0  0  0
  130.6250  127.0390   67.6480 C   0  0  0  0  0  0  0  0  0  0  0  0
  128.8580  127.3230   65.9480 C   0  0  0  0  0  0  0  0  0  0  0  0
  128.6030  128.6760   65.8320 C   0  0  0  0  0  0  0  0  0  0  0  0
  128.2200  129.4780   67.0530 C   0  0  0  0  0  0  0  0  0  0  0  0
  127.7260  130.6030   66.9830 O   0  0  0  0  0  0  0  0  0  0  0  0
  128.3320  128.8160   68.4380 C   0  0  0  0  0  0  0  0  0  0  0  0
  128.0810  127.2910   68.3690 C   0  0  2  0  0  0  0  0  0  0  0  0
  126.5860  127.0340   67.9490 C   0  0  0  0  0  0  0  0  0  0  0  0
  128.5660  129.4150   64.4430 C   0  0  1  0  0  0  0  0  0  0  0  0
  127.0460  129.4640   64.0760 C   0  0  0  0  0  0  0  0  0  0  0  0
  129.1760  130.8710   64.5150 C   0  0  0  0  0  0  0  0  0  0  0  0
  130.1430  131.2920   63.3850 C   0  0  0  0  0  0  0  0  0  0  0  0
  129.7290  130.8300   61.9610 C   0  0  1  0  0  0  0  0  0  0  0  0
  128.2630  131.3330   61.7920 N   0  0  0  0  0  0  0  0  0  0  0  0
  127.9520  132.5150   60.8560 C   0  0  2  0  0  0  0  0  0  0  0  0
  126.3980  132.6720   60.7590 C   0  0  0  0  0  0  0  0  0  0  0  0
  125.7520  132.2790   59.7570 O   0  0  0  0  0  0  0  0  0  0  0  0
  125.8490  133.2050   61.7510 O   0  0  0  0  0  0  0  0  0  0  0  0
  128.5840  132.2090   59.4870 C   0  0  0  0  0  0  0  0  0  0  0  0
  130.0940  132.0590   59.6570 C   0  0  0  0  0  0  0  0  0  0  0  0
  130.6160  131.4980   60.8490 C   0  0  0  0  0  0  0  0  0  0  0  0
  132.0070  131.5780   61.0040 C   0  0  0  0  0  0  0  0  0  0  0  0
  132.8780  132.0590   60.0930 N   0  0  0  0  0  0  0  0  0  0  0  0
  132.3890  132.5100   58.9140 C   0  0  0  0  0  0  0  0  0  0  0  0
  133.3120  132.9790   57.9480 C   0  0  0  0  0  0  0  0  0  0  0  0
  132.8600  133.4540   56.7220 C   0  0  0  0  0  0  0  0  0  0  0  0
  131.5010  133.4710   56.4310 C   0  0  0  0  0  0  0  0  0  0  0  0
  130.5710  133.0190   57.3630 C   0  0  0  0  0  0  0  0  0  0  0  0
  130.9880  132.5290   58.6360 C   0  0  0  0  0  0  0  0  0  0  0  0
  129.7300  129.2170   61.9600 C   0  0  0  0  0  0  0  0  0  0  0  0
  128.7480  128.6760   60.8680 C   0  0  0  0  0  0  0  0  0  0  0  0
  131.1550  128.6870   61.6040 C   0  0  0  0  0  0  0  0  0  0  0  0
  129.4080  128.5780   63.4010 C   0  0  2  0  0  0  0  0  0  0  0  0
  128.8730  127.1370   63.3680 C   0  0  0  0  0  0  0  0  0  0  0  0
  129.0660  126.4180   64.7130 C   0  0  2  0  0  0  0  0  0  0  0  0
  128.1940  125.3050   64.7210 O   0  0  0  0  0  0  0  0  0  0  0  0
  130.8430  126.7620   73.6530 C   0  0  0  0  0  0  0  0  0  0  0  0
  132.0440  127.1240   73.6120 O   0  0  0  0  0  0  0  0  0  0  0  0
  130.3630  125.8500   72.9420 O   0  0  0  0  0  0  0  0  0  0  0  0
  129.3979  126.7310   76.6285 H   0  0  0  0  0  0  0  0  0  0  0  0
  128.1295  126.4290   75.3929 H   0  0  0  0  0  0  0  0  0  0  0  0
  129.6348  125.4488   75.3929 H   0  0  0  0  0  0  0  0  0  0  0  0
  130.4535  128.1639   75.2863 H   0  0  0  0  0  0  0  0  0  0  0  0
  128.4355  129.0911   74.5425 H   0  0  0  0  0  0  0  0  0  0  0  0
  129.4176  128.8200   73.0239 H   0  0  0  0  0  0  0  0  0  0  0  0
  129.1836  126.5406   72.0233 H   0  0  0  0  0  0  0  0  0  0  0  0
  127.8072  125.5025   72.6889 H   0  0  0  0  0  0  0  0  0  0  0  0
  126.7580  125.5818   70.7297 H   0  0  0  0  0  0  0  0  0  0  0  0
  126.1378  127.9986   71.8250 H   0  0  0  0  0  0  0  0  0  0  0  0
  126.8651  128.5277   70.2701 H   0  0  0  0  0  0  0  0  0  0  0  0
  125.4726  127.3930   70.2701 H   0  0  0  0  0  0  0  0  0  0  0  0
  129.2180  127.0000   70.2108 H   0  0  0  0  0  0  0  0  0  0  0  0
  129.6607  124.6994   69.6139 H   0  0  0  0  0  0  0  0  0  0  0  0
  127.9256  124.3647   69.3829 H   0  0  0  0  0  0  0  0  0  0  0  0
  128.0651  124.8341   67.0286 H   0  0  0  0  0  0  0  0  0  0  0  0
  130.6990  124.3630   67.6160 H   0  0  0  0  0  0  0  0  0  0  0  0
  130.7843  127.0753   68.7358 H   0  0  0  0  0  0  0  0  0  0  0  0
  131.2714  126.2652   67.2084 H   0  0  0  0  0  0  0  0  0  0  0  0
  130.8723  128.0165   67.2084 H   0  0  0  0  0  0  0  0  0  0  0  0
  129.3420  128.9928   68.8363 H   0  0  0  0  0  0  0  0  0  0  0  0
  127.5657  129.2590   69.0912 H   0  0  0  0  0  0  0  0  0  0  0  0
  125.9650  126.9272   68.8506 H   0  0  0  0  0  0  0  0  0  0  0  0
  126.2219  127.8827   67.3514 H   0  0  0  0  0  0  0  0  0  0  0  0
  126.5263  126.1124   67.3514 H   0  0  0  0  0  0  0  0  0  0  0  0
  126.4466  129.4833   64.9981 H   0  0  0  0  0  0  0  0  0  0  0  0
  126.8403  130.3692   63.4859 H   0  0  0  0  0  0  0  0  0  0  0  0
  126.7824  128.5739   63.4859 H   0  0  0  0  0  0  0  0  0  0  0  0
  128.3362  131.5814   64.5128 H   0  0  0  0  0  0  0  0  0  0  0  0
  129.7900  130.8747   65.4277 H   0  0  0  0  0  0  0  0  0  0  0  0
  130.2073  132.3901   63.3823 H   0  0  0  0  0  0  0  0  0  0  0  0
  131.1022  130.7990   63.6015 H   0  0  0  0  0  0  0  0  0  0  0  0
  127.7310  130.5480   61.4470 H   0  0  0  0  0  0  0  0  0  0  0  0
  127.8930  131.5440   62.7080 H   0  0  0  0  0  0  0  0  0  0  0  0
  128.3675  133.4617   61.2316 H   0  0  0  0  0  0  0  0  0  0  0  0
  128.1635  131.2743   59.0877 H   0  0  0  0  0  0  0  0  0  0  0  0
  128.3693  133.0303   58.7874 H   0  0  0  0  0  0  0  0  0  0  0  0
  132.4261  131.2158   61.9543 H   0  0  0  0  0  0  0  0  0  0  0  0
  134.3897  132.9675   58.1682 H   0  0  0  0  0  0  0  0  0  0  0  0
  133.5828  133.8188   55.9773 H   0  0  0  0  0  0  0  0  0  0  0  0
  131.1572  133.8450   55.4553 H   0  0  0  0  0  0  0  0  0  0  0  0
  129.4997  133.0400   57.1143 H   0  0  0  0  0  0  0  0  0  0  0  0
  127.8841  128.2001   61.3551 H   0  0  0  0  0  0  0  0  0  0  0  0
  128.4014  129.5105   60.2407 H   0  0  0  0  0  0  0  0  0  0  0  0
  129.2682  127.9372   60.2407 H   0  0  0  0  0  0  0  0  0  0  0  0
  131.7112  128.4801   62.5302 H   0  0  0  0  0  0  0  0  0  0  0  0
  131.0657  127.7620   61.0155 H   0  0  0  0  0  0  0  0  0  0  0  0
  131.6919  129.4456   61.0155 H   0  0  0  0  0  0  0  0  0  0  0  0
  130.4368  128.5934   63.7901 H   0  0  0  0  0  0  0  0  0  0  0  0
  127.7993  127.1626   63.1302 H   0  0  0  0  0  0  0  0  0  0  0  0
  129.4378  126.5832   62.6036 H   0  0  0  0  0  0  0  0  0  0  0  0
  130.1155  126.0993   64.7968 H   0  0  0  0  0  0  0  0  0  0  0  0
  128.6500  124.5640   65.1250 H   0  0  0  0  0  0  0  0  0  0  0  0
  1  2  1  0
  2  3  1  0
  3  4  1  0
  4  5  2  0
  4  6  1  0
  6  7  1  0
  7  8  1  0
  7  9  1  0
  9 10  1  0
 10 11  1  0
 11 12  1  0
 11 13  1  0
 13 14  1  1
 13 15  1  0
 15 16  2  0
 16 17  1  0
 17 18  2  0
 17 19  1  0
 19 20  1  0
 20 21  1  6
 16 22  1  0
 22 23  1  6
 22 24  1  0
 24 25  1  0
 26 25  1  1
 26 27  1  0
 27 28  1  0
 28 29  1  0
 29 30  2  0
 29 31  1  0
 28 32  1  0
 32 33  1  0
 33 34  2  0
 34 35  1  0
 35 36  2  0
 36 37  1  0
 37 38  2  0
 38 39  1  0
 39 40  2  0
 40 41  1  0
 41 42  2  0
 26 43  1  0
 43 44  1  0
 43 45  1  0
 43 46  1  0
 46 47  1  0
 47 48  1  0
 48 49  1  0
  2 50  1  0
 50 51  2  0
 50 52  1  0
 20  9  1  0
 46 22  1  0
 20 13  1  0
 34 26  1  0
 42 37  1  0
 48 15  1  0
 42 33  1  0
  1 53  1  0
  1 54  1  0
  1 55  1  0
  2 56  1  1
  3 57  1  0
  3 58  1  0
  6 59  1  0
  6 60  1  0
  7 61  1  6
  8 62  1  0
  8 63  1  0
  8 64  1  0
  9 65  1  1
 10 66  1  0
 10 67  1  0
 11 68  1  6
 12 69  1  0
 14 70  1  0
 14 71  1  0
 14 72  1  0
 19 73  1  0
 19 74  1  0
 21 75  1  0
 21 76  1  0
 21 77  1  0
 23 78  1  0
 23 79  1  0
 23 80  1  0
 24 81  1  0
 24 82  1  0
 25 83  1  0
 25 84  1  0
 27 85  1  0
 27 86  1  0
 28 87  1  1
 32 88  1  0
 32 89  1  0
 35 90  1  0
 38 91  1  0
 39 92  1  0
 40 93  1  0
 41 94  1  0
 44 95  1  0
 44 96  1  0
 44 97  1  0
 45 98  1  0
 45 99  1  0
 45100  1  0
 46101  1  1
 47102  1  0
 47103  1  0
 48104  1  6
 49105  1  0
M  CHG  3  27   1  31  -1  52  -1
M  END
>  <Binding energies>  (1) 
[75.68]

>  <Ligand effiencies>  (1) 
[1.3514285714285716]

>  <Interactions>  (1) 
["V-A:ILE:538:C:4858, V-A:PRO:540:CG:4886, V-B:HIS:456:CD2:9039, V-B:GLU:543:C:9874, V-B:GLU:543:CB:9878, H-B:LYS:547:NZ:9923, V-A:ILE:538:CB:4862, V-B:GLU:543:CG:9879, V-A:HIS:456:CD2:4068, V-A:ASP:366:CG:3213, V-A:ILE:538:CG2:4863, V-A:LEU:363:CD1:3189, V-B:TYR:484:CE2:9317, V-A:LEU:363:CB:3187, V-A:LEU:363:CG:3188, V-A:ILE:538:CA:4860, H-B:GLU:543:OE1:9881, V-A:TYR:539:CD1:4873, V-B:LYS:547:CE:9922, V-B:ARG:545:CG:9894, V-A:GLU:543:CD:4908, H-B:TYR:484:OH:9319, V-B:GLU:543:CA:9876, V-B:HIS:456:CE1:9041, V-A:HIS:456:CE1:4070, V-B:TYR:484:CZ:9318, V-B:GLY:544:C:9884, V-B:GLY:544:CA:9886, V-A:GLU:543:CG:4907, V-B:GLU:543:CD:9880, V-B:HIS:456:CG:9037, V-A:TYR:539:C:4867, H-A:LYS:547:NZ:4951, V-A:GLU:543:CB:4906, V-A:ILE:538:CD1:4865, V-A:PRO:540:N:4884, H-B:GLU:543:OE2:9882, V-A:PRO:540:CA:4883, V-B:ARG:545:CA:9891, V-A:PRO:540:CB:4885, V-A:LEU:363:CA:3185, V-A:PRO:540:CD:4887, V-A:TYR:539:CE1:4875, H-A:HIS:456:NE2:4071, H-A:TYR:484:OH:4348"]

$$$$
ZINC963341632
     RDKit          3D

 36 38  0  0  0  0  0  0  0  0999 V2000
  130.0560  132.6750   60.1330 O   0  0  0  0  0  0  0  0  0  0  0  0
  130.7880  131.8430   61.0950 S   0  0  0  0  0  0  0  0  0  0  0  0
  132.0890  132.2230   61.6550 O   0  0  0  0  0  0  0  0  0  0  0  0
  129.4800  131.5880   62.7680 Cl  0  0  0  0  0  0  0  0  0  0  0  0
  130.9130  130.1690   60.4310 C   0  0  0  0  0  0  0  0  0  0  0  0
  130.7800  129.1020   61.2760 N   0  0  0  0  0  0  0  0  0  0  0  0
  130.9000  127.9170   60.5860 C   0  0  0  0  0  0  0  0  0  0  0  0
  130.8040  126.5330   61.2610 C   0  0  2  0  0  0  0  0  0  0  0  0
  129.4330  125.7910   60.9150 C   0  0  0  0  0  0  0  0  0  0  0  0
  129.3940  124.1310   61.5860 Cl  0  0  0  0  0  0  0  0  0  0  0  0
  128.0040  126.6230   61.6060 Cl  0  0  0  0  0  0  0  0  0  0  0  0
  129.1630  125.6700   59.1470 Cl  0  0  0  0  0  0  0  0  0  0  0  0
  130.9260  126.9150   62.6790 N   0  0  0  0  0  0  0  0  0  0  0  0
  131.1470  125.8020   63.5920 C   0  0  0  0  0  0  0  0  0  0  0  0
  132.5140  125.1590   63.3050 C   0  0  0  0  0  0  0  0  0  0  0  0
  132.7690  124.9390   61.8170 C   0  0  0  0  0  0  0  0  0  0  0  0
  133.7840  124.0660   61.4100 C   0  0  0  0  0  0  0  0  0  0  0  0
  134.0830  123.8860   60.0640 C   0  0  0  0  0  0  0  0  0  0  0  0
  133.3640  124.5820   59.1010 C   0  0  0  0  0  0  0  0  0  0  0  0
  133.6550  124.4150   57.7730 O   0  0  0  0  0  0  0  0  0  0  0  0
  132.3430  125.4430   59.4920 C   0  0  0  0  0  0  0  0  0  0  0  0
  132.0110  125.6380   60.8440 C   0  0  0  0  0  0  0  0  0  0  0  0
  131.1470  128.3000   59.2630 C   0  0  0  0  0  0  0  0  0  0  0  0
  131.1520  129.6960   59.1530 C   0  0  0  0  0  0  0  0  0  0  0  0
  131.4130  130.6160   57.7260 Cl  0  0  0  0  0  0  0  0  0  0  0  0
  130.6070  129.1730   62.2690 H   0  0  0  0  0  0  0  0  0  0  0  0
  131.7260  127.5290   62.7530 H   0  0  0  0  0  0  0  0  0  0  0  0
  131.1264  126.1698   64.6285 H   0  0  0  0  0  0  0  0  0  0  0  0
  130.3549  125.0520   63.4501 H   0  0  0  0  0  0  0  0  0  0  0  0
  133.3011  125.8170   63.7019 H   0  0  0  0  0  0  0  0  0  0  0  0
  132.5212  124.1715   63.7895 H   0  0  0  0  0  0  0  0  0  0  0  0
  134.3559  123.5119   62.1688 H   0  0  0  0  0  0  0  0  0  0  0  0
  134.8850  123.1958   59.7635 H   0  0  0  0  0  0  0  0  0  0  0  0
  134.5370  124.7120   57.5410 H   0  0  0  0  0  0  0  0  0  0  0  0
  131.7790  125.9872   58.7202 H   0  0  0  0  0  0  0  0  0  0  0  0
  131.3136  127.6035   58.4281 H   0  0  0  0  0  0  0  0  0  0  0  0
  1  2  2  0
  2  3  2  0
  2  4  1  0
  2  5  1  0
  5  6  1  0
  6  7  1  0
  7  8  1  0
  8  9  1  1
  9 10  1  0
  9 11  1  0
  9 12  1  0
  8 13  1  0
 13 14  1  0
 14 15  1  0
 15 16  1  0
 16 17  2  0
 17 18  1  0
 18 19  2  0
 19 20  1  0
 19 21  1  0
 21 22  2  0
  7 23  2  0
 23 24  1  0
 24 25  1  0
 24  5  2  0
 22  8  1  0
 22 16  1  0
  6 26  1  0
 13 27  1  0
 14 28  1  0
 14 29  1  0
 15 30  1  0
 15 31  1  0
 17 32  1  0
 18 33  1  0
 20 34  1  0
 21 35  1  0
 23 36  1  0
M  END
>  <Binding energies>  (1) 
[-7.96]

>  <Ligand effiencies>  (1) 
[-0.2842857142857143]

>  <Interactions>  (1) 
["V-A:ILE:369:CG2:3237, V-A:ASP:366:CA:3210, H-A:GLU:543:OE2:4910, V-A:ILE:369:CB:3236, H-A:ALA:541:N:4891, V-B:TYR:539:CE2:9848, V-A:ASP:366:CG:3213, H-B:TYR:539:OH:9850, V-A:GLU:543:CD:4908, V-A:ILE:369:CD1:3239, V-A:GLU:543:CG:4907, V-B:GLU:543:CD:9880, V-A:ASP:366:CB:3212, H-A:ARG:545:NH2:4928, V-A:ARG:545:CZ:4926, H-A:GLU:543:OE1:4909, H-A:ASP:366:O:3209, V-A:PRO:540:CB:4885, V-A:PRO:540:CA:4883, H-A:ASP:366:OD2:3215"]

$$$$
ZINC963341632-again1
     RDKit          3D

 35 37  0  0  0  0  0  0  0  0999 V2000
  126.7250  126.2710   57.3000 O   0  0  0  0  0  0  0  0  0  0  0  0
  128.0250  126.2100   57.9780 S   0  0  0  0  0  0  0  0  0  0  0  0
  128.3380  125.2110   59.0080 O   0  0  0  0  0  0  0  0  0  0  0  0
  129.4800  125.9370   56.4330 Cl  0  0  0  0  0  0  0  0  0  0  0  0
  128.4270  127.8500   58.6300 C   0  0  0  0  0  0  0  0  0  0  0  0
  129.3640  128.5750   58.0750 N   0  0  0  0  0  0  0  0  0  0  0  0
  129.4640  129.6970   58.7620 C   0  0  0  0  0  0  0  0  0  0  0  0
  130.4900  130.7840   58.3450 C   0  0  2  0  0  0  0  0  0  0  0  0
  129.7790  132.1330   57.8690 C   0  0  0  0  0  0  0  0  0  0  0  0
  128.9460  132.9710   59.2170 Cl  0  0  0  0  0  0  0  0  0  0  0  0
  130.9390  133.3360   57.2200 Cl  0  0  0  0  0  0  0  0  0  0  0  0
  128.5700  131.8270   56.5810 Cl  0  0  0  0  0  0  0  0  0  0  0  0
  131.2050  130.0970   57.2520 N   0  0  0  0  0  0  0  0  0  0  0  0
  132.4420  130.7330   56.8210 C   0  0  0  0  0  0  0  0  0  0  0  0
  133.4670  130.7340   57.9670 C   0  0  0  0  0  0  0  0  0  0  0  0
  132.8680  131.1440   59.3100 C   0  0  0  0  0  0  0  0  0  0  0  0
  133.7130  131.5230   60.3590 C   0  0  0  0  0  0  0  0  0  0  0  0
  133.2090  131.8280   61.6190 C   0  0  0  0  0  0  0  0  0  0  0  0
  131.8410  131.7510   61.8470 C   0  0  0  0  0  0  0  0  0  0  0  0
  131.3340  132.0360   63.0870 O   0  0  0  0  0  0  0  0  0  0  0  0
  130.9870  131.3900   60.8080 C   0  0  0  0  0  0  0  0  0  0  0  0
  131.4680  131.0980   59.5200 C   0  0  0  0  0  0  0  0  0  0  0  0
  128.5130  129.6890   59.7760 C   0  0  0  0  0  0  0  0  0  0  0  0
  127.8470  128.4860   59.7070 C   0  0  0  0  0  0  0  0  0  0  0  0
  126.5840  127.9260   60.7310 Cl  0  0  0  0  0  0  0  0  0  0  0  0
  131.4390  129.1760   57.5970 H   0  0  0  0  0  0  0  0  0  0  0  0
  132.8553  130.1802   55.9645 H   0  0  0  0  0  0  0  0  0  0  0  0
  132.2284  131.7721   56.5301 H   0  0  0  0  0  0  0  0  0  0  0  0
  133.8830  129.7204   58.0647 H   0  0  0  0  0  0  0  0  0  0  0  0
  134.2393  131.4753   57.7138 H   0  0  0  0  0  0  0  0  0  0  0  0
  134.7974  131.5809   60.1837 H   0  0  0  0  0  0  0  0  0  0  0  0
  133.8893  132.1282   62.4296 H   0  0  0  0  0  0  0  0  0  0  0  0
  131.3010  131.2680   63.6600 H   0  0  0  0  0  0  0  0  0  0  0  0
  129.9056  131.3317   61.0007 H   0  0  0  0  0  0  0  0  0  0  0  0
  128.3268  130.4956   60.5004 H   0  0  0  0  0  0  0  0  0  0  0  0
  1  2  2  0
  2  3  2  0
  2  4  1  0
  2  5  1  0
  5  6  1  0
  6  7  1  0
  7  8  1  0
  8  9  1  6
  9 10  1  0
  9 11  1  0
  9 12  1  0
  8 13  1  0
 13 14  1  0
 14 15  1  0
 15 16  1  0
 16 17  2  0
 17 18  1  0
 18 19  2  0
 19 20  1  0
 19 21  1  0
 21 22  2  0
  7 23  2  0
 23 24  1  0
 24 25  1  0
 24  5  2  0
 22  8  1  0
 22 16  1  0
 13 26  1  0
 14 27  1  0
 14 28  1  0
 15 29  1  0
 15 30  1  0
 17 31  1  0
 18 32  1  0
 20 33  1  0
 21 34  1  0
 23 35  1  0
M  CHG  1   6  -1
M  END
>  <Binding energies>  (1) 
[-6.44]

>  <Ligand effiencies>  (1) 
[-0.23851851851851855]

>  <Interactions>  (1) 
["H-A:ALA:541:N:4891, V-A:ILE:538:CB:4862, H-A:ALA:541:O:4889, V-B:ASP:366:CG:8184, H-A:TYR:531:OH:4795, V-A:ASP:366:CG:3213, V-A:ASN:362:CB:3176, V-A:LEU:363:CD1:3189, V-A:LEU:363:CB:3187, V-A:TYR:539:CD1:4873, V-B:TYR:539:CZ:9849, V-A:ILE:538:CA:4860, V-A:TYR:531:CE2:4793, V-A:TYR:539:CA:4869, V-A:TYR:531:CZ:4794, V-A:MET:535:CE:4835, V-A:TYR:539:C:4867, H-B:TYR:531:OH:9767, V-A:ASP:366:CB:3212, V-A:ASN:362:C:3172, H-A:GLU:543:OE1:4909, V-A:PRO:540:N:4884, V-A:LEU:363:CA:3185, V-A:PRO:540:CB:4885, V-A:PRO:540:CA:4883, V-A:PRO:540:CD:4887"]

$$$$
ZINC96336457
     RDKit          3D

 59 62  0  0  0  0  0  0  0  0999 V2000
  132.3480  131.4580   60.0410 C   0  0  0  0  0  0  0  0  0  0  0  0
  131.8330  131.1160   58.6480 C   0  0  0  0  0  0  0  0  0  0  0  0
  132.3650  131.5990   57.6490 O   0  0  0  0  0  0  0  0  0  0  0  0
  130.5920  130.1970   58.5620 C   0  0  1  0  0  0  0  0  0  0  0  0
  129.9570  130.1050   57.1410 C   0  0  2  0  0  0  0  0  0  0  0  0
  128.9560  131.2340   56.8180 C   0  0  0  0  0  0  0  0  0  0  0  0
  129.4790  132.5980   57.0070 C   0  0  0  0  0  0  0  0  0  0  0  0
  129.8880  133.6690   57.1560 N   0  0  0  0  0  0  0  0  0  0  0  0
  129.3040  128.7030   57.0880 C   0  0  0  0  0  0  0  0  0  0  0  0
  129.5140  128.1180   58.4940 C   0  0  1  0  0  0  0  0  0  0  0  0
  129.4220  126.5820   58.7100 C   0  0  2  0  0  0  0  0  0  0  0  0
  128.0850  126.0350   58.1580 C   0  0  0  0  0  0  0  0  0  0  0  0
  127.7580  124.6590   58.7130 C   0  0  0  0  0  0  0  0  0  0  0  0
  128.3950  124.0360   59.7280 C   0  0  0  0  0  0  0  0  0  0  0  0
  128.0070  122.6090   60.1390 C   0  0  0  0  0  0  0  0  0  0  0  0
  127.7320  122.5140   61.6530 C   0  0  2  0  0  0  0  0  0  0  0  0
  126.5460  123.2070   62.0000 O   0  0  0  0  0  0  0  0  0  0  0  0
  128.9370  123.0320   62.4540 C   0  0  0  0  0  0  0  0  0  0  0  0
  129.3120  124.4700   62.0490 C   0  0  0  0  0  0  0  0  0  0  0  0
  129.5640  124.6880   60.5200 C   0  0  1  0  0  0  0  0  0  0  0  0
  130.8830  123.9860   60.0910 C   0  0  0  0  0  0  0  0  0  0  0  0
  129.6060  126.2390   60.2260 C   0  0  1  0  0  0  0  0  0  0  0  0
  130.8300  126.9780   60.8650 C   0  0  0  0  0  0  0  0  0  0  0  0
  130.8920  128.4860   60.5210 C   0  0  0  0  0  0  0  0  0  0  0  0
  130.8490  128.7210   58.9890 C   0  0  2  0  0  0  0  0  0  0  0  0
  132.1090  128.1100   58.2880 C   0  0  0  0  0  0  0  0  0  0  0  0
  131.6822  131.0159   60.7968 H   0  0  0  0  0  0  0  0  0  0  0  0
  133.3636  131.0543   60.1658 H   0  0  0  0  0  0  0  0  0  0  0  0
  132.3699  132.5507   60.1658 H   0  0  0  0  0  0  0  0  0  0  0  0
  129.9125  130.6972   59.2677 H   0  0  0  0  0  0  0  0  0  0  0  0
  130.7265  130.2387   56.3664 H   0  0  0  0  0  0  0  0  0  0  0  0
  128.6487  131.1282   55.7671 H   0  0  0  0  0  0  0  0  0  0  0  0
  128.1234  131.1212   57.5280 H   0  0  0  0  0  0  0  0  0  0  0  0
  128.2313  128.7837   56.8582 H   0  0  0  0  0  0  0  0  0  0  0  0
  129.7450  128.0691   56.3046 H   0  0  0  0  0  0  0  0  0  0  0  0
  128.6367  128.4045   59.0926 H   0  0  0  0  0  0  0  0  0  0  0  0
  130.2335  126.0916   58.1524 H   0  0  0  0  0  0  0  0  0  0  0  0
  127.2773  126.7294   58.4326 H   0  0  0  0  0  0  0  0  0  0  0  0
  128.1805  125.9459   57.0658 H   0  0  0  0  0  0  0  0  0  0  0  0
  126.9228  124.1187   58.2434 H   0  0  0  0  0  0  0  0  0  0  0  0
  127.1000  122.3131   59.5914 H   0  0  0  0  0  0  0  0  0  0  0  0
  128.8455  121.9393   59.8971 H   0  0  0  0  0  0  0  0  0  0  0  0
  127.5825  121.4551   61.9105 H   0  0  0  0  0  0  0  0  0  0  0  0
  126.7310  123.7670   62.7580 H   0  0  0  0  0  0  0  0  0  0  0  0
  128.6868  123.0167   63.5251 H   0  0  0  0  0  0  0  0  0  0  0  0
  129.7969  122.3797   62.2418 H   0  0  0  0  0  0  0  0  0  0  0  0
  128.4916  125.1350   62.3568 H   0  0  0  0  0  0  0  0  0  0  0  0
  130.2667  124.6887   62.5497 H   0  0  0  0  0  0  0  0  0  0  0  0
  131.4468  123.6860   60.9866 H   0  0  0  0  0  0  0  0  0  0  0  0
  130.6458  123.0948   59.4914 H   0  0  0  0  0  0  0  0  0  0  0  0
  131.4898  124.6805   59.4914 H   0  0  0  0  0  0  0  0  0  0  0  0
  128.7235  126.6421   60.7444 H   0  0  0  0  0  0  0  0  0  0  0  0
  130.7677  126.8730   61.9582 H   0  0  0  0  0  0  0  0  0  0  0  0
  131.7381  126.5152   60.4514 H   0  0  0  0  0  0  0  0  0  0  0  0
  130.0337  128.9941   60.9849 H   0  0  0  0  0  0  0  0  0  0  0  0
  131.8403  128.8893   60.9058 H   0  0  0  0  0  0  0  0  0  0  0  0
  132.8217  127.7644   59.0512 H   0  0  0  0  0  0  0  0  0  0  0  0
  131.8033  127.2601   57.6602 H   0  0  0  0  0  0  0  0  0  0  0  0
  132.5870  128.8764   57.6602 H   0  0  0  0  0  0  0  0  0  0  0  0
  1  2  1  0
  2  3  2  0
  2  4  1  0
  4  5  1  0
  5  6  1  0
  6  7  1  0
  7  8  3  0
  5  9  1  0
  9 10  1  0
 10 11  1  0
 11 12  1  0
 12 13  1  0
 13 14  2  0
 14 15  1  0
 15 16  1  0
 16 17  1  0
 16 18  1  0
 18 19  1  0
 19 20  1  0
 20 21  1  6
 20 22  1  0
 22 23  1  0
 23 24  1  0
 24 25  1  0
 25 26  1  6
 25  4  1  0
 25 10  1  0
 22 11  1  0
 20 14  1  0
  1 27  1  0
  1 28  1  0
  1 29  1  0
  4 30  1  1
  5 31  1  6
  6 32  1  0
  6 33  1  0
  9 34  1  0
  9 35  1  0
 10 36  1  1
 11 37  1  6
 12 38  1  0
 12 39  1  0
 13 40  1  0
 15 41  1  0
 15 42  1  0
 16 43  1  1
 17 44  1  0
 18 45  1  0
 18 46  1  0
 19 47  1  0
 19 48  1  0
 21 49  1  0
 21 50  1  0
 21 51  1  0
 22 52  1  1
 23 53  1  0
 23 54  1  0
 24 55  1  0
 24 56  1  0
 26 57  1  0
 26 58  1  0
 26 59  1  0
M  END
>  <Binding energies>  (1) 
[-7.52]

>  <Ligand effiencies>  (1) 
[-0.2785185185185185]

>  <Interactions>  (1) 
["V-B:PRO:540:CA:9855, H-A:TYR:539:N:4870, V-A:PRO:540:CB:4885, V-A:PRO:540:CA:4883, H-B:GLU:543:OE1:9881, V-A:TYR:531:CZ:4794, H-B:ALA:541:N:9863, V-A:MET:535:CE:4835, V-B:PRO:540:C:9853, V-B:ALA:541:CB:9864, V-B:TYR:539:CE2:9848, V-B:ALA:541:CA:9862, V-A:ASP:366:CB:3212, V-B:TYR:539:C:9839, V-A:ASP:366:CG:3213, V-B:PRO:540:N:9856"]

$$$$
ZINC96341603
     RDKit          3D

 64 68  0  0  0  0  0  0  0  0999 V2000
  128.5420  132.7990   62.9310 C   0  0  0  0  0  0  0  0  0  0  0  0
  129.0450  131.3880   63.2430 C   0  0  0  0  0  0  0  0  0  0  0  0
  128.1500  130.7790   64.1670 O   0  0  0  0  0  0  0  0  0  0  0  0
  128.4310  129.4170   64.4940 C   0  0  1  0  0  0  0  0  0  0  0  0
  127.5950  129.0810   65.7530 C   0  0  0  0  0  0  0  0  0  0  0  0
  128.3580  128.2900   66.8160 C   0  0  0  0  0  0  0  0  0  0  0  0
  128.7110  126.9640   66.5430 C   0  0  0  0  0  0  0  0  0  0  0  0
  129.4480  126.2180   67.4610 C   0  0  0  0  0  0  0  0  0  0  0  0
  129.7790  126.7750   68.6960 C   0  0  0  0  0  0  0  0  0  0  0  0
  129.4230  128.0910   68.9910 C   0  0  0  0  0  0  0  0  0  0  0  0
  129.7830  128.6190   70.2060 O   0  0  0  0  0  0  0  0  0  0  0  0
  128.7230  128.8590   68.0480 C   0  0  0  0  0  0  0  0  0  0  0  0
  128.4060  130.1650   68.3370 O   0  0  0  0  0  0  0  0  0  0  0  0
  129.8760  124.9570   67.1270 O   0  0  0  0  0  0  0  0  0  0  0  0
  130.5550  124.8300   65.9360 C   0  0  0  0  0  0  0  0  0  0  0  0
  130.0260  124.0670   64.8910 C   0  0  0  0  0  0  0  0  0  0  0  0
  130.7310  123.9340   63.7010 C   0  0  0  0  0  0  0  0  0  0  0  0
  131.9680  124.5630   63.5450 C   0  0  0  0  0  0  0  0  0  0  0  0
  132.4910  125.3420   64.5800 C   0  0  0  0  0  0  0  0  0  0  0  0
  131.7820  125.4770   65.7740 C   0  0  0  0  0  0  0  0  0  0  0  0
  132.7130  124.4090   62.2260 C   0  0  0  0  0  0  0  0  0  0  0  0
  131.8350  123.8940   61.0630 C   0  0  0  0  0  0  0  0  0  0  0  0
  131.4380  124.9610   60.0380 C   0  0  0  0  0  0  0  0  0  0  0  0
  132.1620  125.0850   58.8370 C   0  0  0  0  0  0  0  0  0  0  0  0
  133.1910  124.2310   58.5280 O   0  0  0  0  0  0  0  0  0  0  0  0
  131.8510  126.0930   57.9250 C   0  0  0  0  0  0  0  0  0  0  0  0
  130.8260  126.9910   58.2000 C   0  0  0  0  0  0  0  0  0  0  0  0
  130.0960  126.8710   59.3780 C   0  0  0  0  0  0  0  0  0  0  0  0
  130.3700  125.8410   60.2950 C   0  0  0  0  0  0  0  0  0  0  0  0
  129.6360  125.7060   61.4600 O   0  0  0  0  0  0  0  0  0  0  0  0
  128.7110  126.6630   61.8340 C   0  0  0  0  0  0  0  0  0  0  0  0
  127.4750  126.7990   61.1840 C   0  0  0  0  0  0  0  0  0  0  0  0
  126.5800  127.7930   61.5680 C   0  0  0  0  0  0  0  0  0  0  0  0
  126.9010  128.6510   62.6170 C   0  0  0  0  0  0  0  0  0  0  0  0
  128.1090  128.5020   63.3080 C   0  0  0  0  0  0  0  0  0  0  0  0
  129.0080  127.5030   62.9110 C   0  0  0  0  0  0  0  0  0  0  0  0
  128.3505  133.3363   63.8715 H   0  0  0  0  0  0  0  0  0  0  0  0
  129.3030  133.3391   62.3486 H   0  0  0  0  0  0  0  0  0  0  0  0
  127.6110  132.7359   62.3486 H   0  0  0  0  0  0  0  0  0  0  0  0
  129.0817  130.7949   62.3173 H   0  0  0  0  0  0  0  0  0  0  0  0
  130.0550  131.4371   63.6760 H   0  0  0  0  0  0  0  0  0  0  0  0
  129.4985  129.2601   64.7079 H   0  0  0  0  0  0  0  0  0  0  0  0
  127.2539  130.0249   66.2033 H   0  0  0  0  0  0  0  0  0  0  0  0
  126.7623  128.4439   65.4202 H   0  0  0  0  0  0  0  0  0  0  0  0
  128.4031  126.5046   65.5921 H   0  0  0  0  0  0  0  0  0  0  0  0
  130.3227  126.1744   69.4401 H   0  0  0  0  0  0  0  0  0  0  0  0
  129.4940  129.5270   70.3180 H   0  0  0  0  0  0  0  0  0  0  0  0
  128.8630  130.4880   69.1170 H   0  0  0  0  0  0  0  0  0  0  0  0
  129.0512  123.5716   65.0108 H   0  0  0  0  0  0  0  0  0  0  0  0
  130.3139  123.3321   62.8802 H   0  0  0  0  0  0  0  0  0  0  0  0
  133.4596  125.8478   64.4539 H   0  0  0  0  0  0  0  0  0  0  0  0
  132.1898  126.0936   66.5885 H   0  0  0  0  0  0  0  0  0  0  0  0
  133.1209  125.3905   61.9428 H   0  0  0  0  0  0  0  0  0  0  0  0
  133.4970  123.6551   62.3901 H   0  0  0  0  0  0  0  0  0  0  0  0
  132.3919  123.1045   60.5372 H   0  0  0  0  0  0  0  0  0  0  0  0
  130.8989  123.5358   61.5162 H   0  0  0  0  0  0  0  0  0  0  0  0
  133.9050  124.6640   58.0550 H   0  0  0  0  0  0  0  0  0  0  0  0
  132.4178  126.1778   56.9861 H   0  0  0  0  0  0  0  0  0  0  0  0
  130.5925  127.7954   57.4870 H   0  0  0  0  0  0  0  0  0  0  0  0
  129.2937  127.5915   59.5950 H   0  0  0  0  0  0  0  0  0  0  0  0
  127.2114  126.1144   60.3643 H   0  0  0  0  0  0  0  0  0  0  0  0
  125.6193  127.9010   61.0432 H   0  0  0  0  0  0  0  0  0  0  0  0
  126.2015  129.4500   62.9040 H   0  0  0  0  0  0  0  0  0  0  0  0
  129.9573  127.3786   63.4526 H   0  0  0  0  0  0  0  0  0  0  0  0
  1  2  1  0
  2  3  1  0
  3  4  1  0
  4  5  1  0
  5  6  1  0
  6  7  2  0
  7  8  1  0
  8  9  2  0
  9 10  1  0
 10 11  1  0
 10 12  2  0
 12 13  1  0
  8 14  1  0
 14 15  1  0
 15 16  2  0
 16 17  1  0
 17 18  2  0
 18 19  1  0
 19 20  2  0
 18 21  1  0
 21 22  1  0
 22 23  1  0
 23 24  2  0
 24 25  1  0
 24 26  1  0
 26 27  2  0
 27 28  1  0
 28 29  2  0
 29 30  1  0
 30 31  1  0
 31 32  1  0
 32 33  2  0
 33 34  1  0
 34 35  2  0
 35 36  1  0
 35  4  1  0
 12  6  1  0
 20 15  1  0
 29 23  1  0
 36 31  2  0
  1 37  1  0
  1 38  1  0
  1 39  1  0
  2 40  1  0
  2 41  1  0
  4 42  1  1
  5 43  1  0
  5 44  1  0
  7 45  1  0
  9 46  1  0
 11 47  1  0
 13 48  1  0
 16 49  1  0
 17 50  1  0
 19 51  1  0
 20 52  1  0
 21 53  1  0
 21 54  1  0
 22 55  1  0
 22 56  1  0
 25 57  1  0
 26 58  1  0
 27 59  1  0
 28 60  1  0
 32 61  1  0
 33 62  1  0
 34 63  1  0
 36 64  1  0
M  END
>  <Binding energies>  (1) 
[-4.82]

>  <Ligand effiencies>  (1) 
[-0.1175609756097561]

>  <Interactions>  (1) 
["V-A:GLU:543:CA:4904, V-B:GLU:543:CB:9878, V-B:TYR:539:CE2:9848, V-A:TYR:484:CE2:4346, V-B:GLU:543:CG:9879, V-B:TYR:539:CZ:9849, H-B:TYR:539:OH:9850, V-A:ALA:541:CB:4892, V-A:GLU:543:CD:4908, V-A:TYR:484:CZ:4347, H-B:TYR:484:OH:9319, V-B:HIS:456:CE1:9041, V-A:HIS:456:CE1:4070, H-B:HIS:456:NE2:9042, V-A:GLU:543:CG:4907, V-B:GLU:543:CD:9880, V-A:ASP:366:CB:3212, V-A:ARG:545:CZ:4926, H-A:ASP:366:O:3209, V-A:GLU:543:CB:4906, H-A:TYR:484:OH:4348, H-A:GLU:543:O:4903"]

$$$$
ZINC96347719
     RDKit          3D

 33 32  0  0  0  0  0  0  0  0999 V2000
  129.8910  126.8160   68.0120 C   0  0  0  0  0  0  0  0  0  0  0  0
  129.9990  125.7020   66.9630 C   0  0  0  0  0  0  0  0  0  0  0  0
  131.4240  125.4720   66.4840 C   0  0  0  0  0  0  0  0  0  0  0  0
  131.8110  125.0150   65.2670 C   0  0  0  0  0  0  0  0  0  0  0  0
  130.9010  124.6010   64.1050 C   0  0  0  0  0  0  0  0  0  0  0  0
  129.9450  123.4450   64.4560 C   0  0  0  0  0  0  0  0  0  0  0  0
  130.0990  122.2360   63.5170 C   0  0  0  0  0  0  0  0  0  0  0  0
  129.8470  122.5910   62.0410 C   0  0  0  0  0  0  0  0  0  0  0  0
  128.4770  122.1040   61.5290 C   0  0  0  0  0  0  0  0  0  0  0  0
  127.4100  123.2100   61.4230 C   0  0  0  0  0  0  0  0  0  0  0  0
  126.3650  123.0000   62.3510 O   0  0  0  0  0  0  0  0  0  0  0  0
  133.2760  124.8790   65.0170 N   0  0  0  0  0  0  0  0  0  0  0  0
  133.6310  124.5500   63.8890 O   0  0  0  0  0  0  0  0  0  0  0  0
  134.0540  125.0920   65.9460 O   0  0  0  0  0  0  0  0  0  0  0  0
  129.9336  126.3764   69.0194 H   0  0  0  0  0  0  0  0  0  0  0  0
  130.7249  127.5219   67.8844 H   0  0  0  0  0  0  0  0  0  0  0  0
  128.9370  127.3486   67.8844 H   0  0  0  0  0  0  0  0  0  0  0  0
  129.6225  124.7674   67.4044 H   0  0  0  0  0  0  0  0  0  0  0  0
  129.4052  126.0130   66.0908 H   0  0  0  0  0  0  0  0  0  0  0  0
  132.2263  125.7006   67.2009 H   0  0  0  0  0  0  0  0  0  0  0  0
  130.2994  125.4721   63.8063 H   0  0  0  0  0  0  0  0  0  0  0  0
  131.5532  124.2468   63.2931 H   0  0  0  0  0  0  0  0  0  0  0  0
  130.1520  123.1184   65.4858 H   0  0  0  0  0  0  0  0  0  0  0  0
  128.9172  123.8208   64.3451 H   0  0  0  0  0  0  0  0  0  0  0  0
  131.1220  121.8436   63.6143 H   0  0  0  0  0  0  0  0  0  0  0  0
  129.3459  121.4902   63.8113 H   0  0  0  0  0  0  0  0  0  0  0  0
  129.8938  123.6845   61.9307 H   0  0  0  0  0  0  0  0  0  0  0  0
  130.6199  122.0843   61.4445 H   0  0  0  0  0  0  0  0  0  0  0  0
  128.6186  121.6652   60.5303 H   0  0  0  0  0  0  0  0  0  0  0  0
  128.1053  121.3775   62.2665 H   0  0  0  0  0  0  0  0  0  0  0  0
  127.8803  124.1835   61.6259 H   0  0  0  0  0  0  0  0  0  0  0  0
  126.9854  123.1895   60.4085 H   0  0  0  0  0  0  0  0  0  0  0  0
  126.1120  123.8480   62.7240 H   0  0  0  0  0  0  0  0  0  0  0  0
  1  2  1  0
  2  3  1  0
  3  4  2  0
  4  5  1  0
  5  6  1  0
  6  7  1  0
  7  8  1  0
  8  9  1  0
  9 10  1  0
 10 11  1  0
  4 12  1  0
 12 13  2  0
 12 14  1  0
  1 15  1  0
  1 16  1  0
  1 17  1  0
  2 18  1  0
  2 19  1  0
  3 20  1  0
  5 21  1  0
  5 22  1  0
  6 23  1  0
  6 24  1  0
  7 25  1  0
  7 26  1  0
  8 27  1  0
  8 28  1  0
  9 29  1  0
  9 30  1  0
 10 31  1  0
 10 32  1  0
 11 33  1  0
M  CHG  2  12   1  14  -1
M  END
>  <Binding energies>  (1) 
[-5.11]

>  <Ligand effiencies>  (1) 
[-0.3406666666666667]

>  <Interactions>  (1) 
["V-A:HIS:456:CE1:4070, V-B:PRO:540:CA:9855, H-B:GLU:543:OE1:9881, V-B:GLU:543:CB:9878, H-A:ARG:545:NE:4924, H-B:ALA:541:N:9863, V-A:ARG:545:CZ:4926, V-B:ALA:541:CB:9864, V-A:GLU:543:CB:4906, V-A:TYR:484:CZ:4347, V-B:PRO:540:C:9853, V-B:GLU:543:CG:9879, V-A:LEU:475:CD2:4259, H-A:ARG:545:NH2:4928, H-B:ALA:541:O:9861, H-A:GLY:454:N:4050, H-A:TYR:484:OH:4348"]

$$$$
ZINC963507777
     RDKit          3D

117121  0  0  0  0  0  0  0  0999 V2000
  132.5040  125.4750   65.0270 C   0  0  0  0  0  0  0  0  0  0  0  0
  132.3020  125.4480   63.6950 C   0  0  0  0  0  0  0  0  0  0  0  0
  133.3830  124.9380   62.7550 C   0  0  0  0  0  0  0  0  0  0  0  0
  131.0040  125.9100   63.0110 C   0  0  1  0  0  0  0  0  0  0  0  0
  129.7770  125.7060   63.9370 C   0  0  0  0  0  0  0  0  0  0  0  0
  129.7060  124.3440   64.6180 C   0  0  0  0  0  0  0  0  0  0  0  0
  130.0030  123.1360   64.0910 C   0  0  0  0  0  0  0  0  0  0  0  0
  129.8560  121.8640   64.9070 C   0  0  0  0  0  0  0  0  0  0  0  0
  130.5160  122.9100   62.6750 C   0  0  0  0  0  0  0  0  0  0  0  0
  131.0200  127.3540   62.3990 C   0  0  0  0  0  0  0  0  0  0  0  0
  130.4500  127.6380   60.9390 C   0  0  1  0  0  0  0  0  0  0  0  0
  131.5280  127.3850   59.8600 C   0  0  0  0  0  0  0  0  0  0  0  0
  131.2800  127.8540   58.3880 C   0  0  1  0  0  0  0  0  0  0  0  0
  131.2240  126.5610   57.4980 C   0  0  0  0  0  0  0  0  0  0  0  0
  132.4680  125.6780   57.5220 C   0  0  0  0  0  0  0  0  0  0  0  0
  132.8230  124.7610   58.4500 C   0  0  0  0  0  0  0  0  0  0  0  0
  134.1020  123.9540   58.3050 C   0  0  0  0  0  0  0  0  0  0  0  0
  132.0280  124.4370   59.7070 C   0  0  0  0  0  0  0  0  0  0  0  0
  130.1160  128.9500   58.1170 C   0  0  0  0  0  0  0  0  0  0  0  0
  130.8510  130.2390   57.6010 C   0  0  0  0  0  0  0  0  0  0  0  0
  129.2350  128.5310   56.8810 C   0  0  0  0  0  0  0  0  0  0  0  0
  129.1600  129.2790   59.4030 C   0  0  1  0  0  0  0  0  0  0  0  0
  128.5670  130.7720   59.3670 C   0  0  0  0  0  0  0  0  0  0  0  0
  127.2710  131.1290   60.1030 C   0  0  0  0  0  0  0  0  0  0  0  0
  126.9640  132.2640   60.7720 C   0  0  0  0  0  0  0  0  0  0  0  0
  125.6100  132.4320   61.4420 C   0  0  0  0  0  0  0  0  0  0  0  0
  127.8790  133.4710   60.9420 C   0  0  0  0  0  0  0  0  0  0  0  0
  127.9510  128.2440   59.3550 C   0  0  0  0  0  0  0  0  0  0  0  0
  126.7510  128.5730   59.0550 O   0  0  0  0  0  0  0  0  0  0  0  0
  128.2160  126.8920   59.7670 C   0  0  0  0  0  0  0  0  0  0  0  0
  127.2940  125.8550   59.3870 C   0  0  0  0  0  0  0  0  0  0  0  0
  126.3230  126.1430   58.6100 O   0  0  0  0  0  0  0  0  0  0  0  0
  127.5560  124.5190   59.8580 C   0  0  0  0  0  0  0  0  0  0  0  0
  128.2180  123.5700   59.0590 C   0  0  0  0  0  0  0  0  0  0  0  0
  128.4740  122.2810   59.5240 C   0  0  0  0  0  0  0  0  0  0  0  0
  128.0800  121.9090   60.8060 C   0  0  0  0  0  0  0  0  0  0  0  0
  128.3410  120.6340   61.2440 O   0  0  0  0  0  0  0  0  0  0  0  0
  127.4290  122.8360   61.6260 C   0  0  0  0  0  0  0  0  0  0  0  0
  127.0310  122.4950   62.8950 O   0  0  0  0  0  0  0  0  0  0  0  0
  127.1750  124.1250   61.1550 C   0  0  0  0  0  0  0  0  0  0  0  0
  129.3700  126.5650   60.5580 C   0  0  0  0  0  0  0  0  0  0  0  0
  129.5320  125.3590   60.9590 O   0  0  0  0  0  0  0  0  0  0  0  0
  129.8580  129.1140   60.8540 C   0  0  1  0  0  0  0  0  0  0  0  0
  128.6760  129.1350   61.8980 N   0  0  0  0  0  0  0  0  0  0  0  0
  128.8460  129.7500   63.2980 C   0  0  2  0  0  0  0  0  0  0  0  0
  127.4730  129.6740   64.0440 C   0  0  0  0  0  0  0  0  0  0  0  0
  126.5150  129.2440   63.3610 O   0  0  0  0  0  0  0  0  0  0  0  0
  127.3440  130.0310   65.2400 O   0  0  0  0  0  0  0  0  0  0  0  0
  129.2930  131.1950   63.0890 C   0  0  0  0  0  0  0  0  0  0  0  0
  130.5920  131.2230   62.3060 C   0  0  0  0  0  0  0  0  0  0  0  0
  131.5200  132.2220   62.6290 C   0  0  0  0  0  0  0  0  0  0  0  0
  132.7410  132.3280   61.9750 C   0  0  0  0  0  0  0  0  0  0  0  0
  133.7250  133.4210   62.3690 C   0  0  0  0  0  0  0  0  0  0  0  0
  133.0320  131.4230   60.9600 C   0  0  0  0  0  0  0  0  0  0  0  0
  134.2130  131.4890   60.2670 O   0  0  0  0  0  0  0  0  0  0  0  0
  132.1070  130.4370   60.6310 C   0  0  0  0  0  0  0  0  0  0  0  0
  130.8670  130.2750   61.2760 C   0  0  0  0  0  0  0  0  0  0  0  0
  131.7135  125.8464   65.6957 H   0  0  0  0  0  0  0  0  0  0  0  0
  133.4594  125.1256   65.4456 H   0  0  0  0  0  0  0  0  0  0  0  0
  134.2235  124.5415   63.3435 H   0  0  0  0  0  0  0  0  0  0  0  0
  132.9705  124.1395   62.1207 H   0  0  0  0  0  0  0  0  0  0  0  0
  133.7370  125.7641   62.1207 H   0  0  0  0  0  0  0  0  0  0  0  0
  130.9195  125.2519   62.1336 H   0  0  0  0  0  0  0  0  0  0  0  0
  129.8076  126.4782   64.7198 H   0  0  0  0  0  0  0  0  0  0  0  0
  128.8888  125.7749   63.2917 H   0  0  0  0  0  0  0  0  0  0  0  0
  129.3723  124.3449   65.6662 H   0  0  0  0  0  0  0  0  0  0  0  0
  129.8845  122.1105   65.9786 H   0  0  0  0  0  0  0  0  0  0  0  0
  128.8963  121.3831   64.6668 H   0  0  0  0  0  0  0  0  0  0  0  0
  130.6807  121.1769   64.6668 H   0  0  0  0  0  0  0  0  0  0  0  0
  131.5220  122.4668   62.7158 H   0  0  0  0  0  0  0  0  0  0  0  0
  129.8362  122.2280   62.1432 H   0  0  0  0  0  0  0  0  0  0  0  0
  130.5604  123.8719   62.1432 H   0  0  0  0  0  0  0  0  0  0  0  0
  130.4450  127.9907   63.0874 H   0  0  0  0  0  0  0  0  0  0  0  0
  132.0955  127.5514   62.2789 H   0  0  0  0  0  0  0  0  0  0  0  0
  132.4457  127.8850   60.2032 H   0  0  0  0  0  0  0  0  0  0  0  0
  131.5537  126.2884   59.7774 H   0  0  0  0  0  0  0  0  0  0  0  0
  132.1272  128.4906   58.0932 H   0  0  0  0  0  0  0  0  0  0  0  0
  130.3734  125.9534   57.8404 H   0  0  0  0  0  0  0  0  0  0  0  0
  131.1339  126.9182   56.4615 H   0  0  0  0  0  0  0  0  0  0  0  0
  133.1631  125.8031   56.6787 H   0  0  0  0  0  0  0  0  0  0  0  0
  134.4944  123.7064   59.3024 H   0  0  0  0  0  0  0  0  0  0  0  0
  133.8896  123.0261   57.7538 H   0  0  0  0  0  0  0  0  0  0  0  0
  134.8481  124.5452   57.7538 H   0  0  0  0  0  0  0  0  0  0  0  0
  132.6296  124.6822   60.5947 H   0  0  0  0  0  0  0  0  0  0  0  0
  131.1010  125.0291   59.7173 H   0  0  0  0  0  0  0  0  0  0  0  0
  131.7789  123.3656   59.7173 H   0  0  0  0  0  0  0  0  0  0  0  0
  131.1913  130.8358   58.4601 H   0  0  0  0  0  0  0  0  0  0  0  0
  131.7184  129.9470   56.9908 H   0  0  0  0  0  0  0  0  0  0  0  0
  130.1580  130.8368   56.9908 H   0  0  0  0  0  0  0  0  0  0  0  0
  128.2947  128.0838   57.2357 H   0  0  0  0  0  0  0  0  0  0  0  0
  129.0117  129.4193   56.2719 H   0  0  0  0  0  0  0  0  0  0  0  0
  129.7832  127.7972   56.2719 H   0  0  0  0  0  0  0  0  0  0  0  0
  129.3491  131.4282   59.7766 H   0  0  0  0  0  0  0  0  0  0  0  0
  128.2840  130.8923   58.3108 H   0  0  0  0  0  0  0  0  0  0  0  0
  126.4853  130.3594   60.0848 H   0  0  0  0  0  0  0  0  0  0  0  0
  125.7370  132.4162   62.5345 H   0  0  0  0  0  0  0  0  0  0  0  0
  125.1671  133.3920   61.1382 H   0  0  0  0  0  0  0  0  0  0  0  0
  124.9460  131.6094   61.1382 H   0  0  0  0  0  0  0  0  0  0  0  0
  128.0292  133.6692   62.0135 H   0  0  0  0  0  0  0  0  0  0  0  0
  128.8498  133.2649   60.4676 H   0  0  0  0  0  0  0  0  0  0  0  0
  127.4183  134.3500   60.4676 H   0  0  0  0  0  0  0  0  0  0  0  0
  128.5407  123.8507   58.0456 H   0  0  0  0  0  0  0  0  0  0  0  0
  128.9886  121.5561   58.8762 H   0  0  0  0  0  0  0  0  0  0  0  0
  129.0460  120.2090   60.7490 H   0  0  0  0  0  0  0  0  0  0  0  0
  126.5880  123.2170   63.3460 H   0  0  0  0  0  0  0  0  0  0  0  0
  126.6669  124.8478   61.8103 H   0  0  0  0  0  0  0  0  0  0  0  0
  127.9180  129.6370   61.4580 H   0  0  0  0  0  0  0  0  0  0  0  0
  128.3500  128.1860   62.0110 H   0  0  0  0  0  0  0  0  0  0  0  0
  129.5902  129.2170   63.9080 H   0  0  0  0  0  0  0  0  0  0  0  0
  128.5179  131.7398   62.5301 H   0  0  0  0  0  0  0  0  0  0  0  0
  129.4486  131.6722   64.0678 H   0  0  0  0  0  0  0  0  0  0  0  0
  131.2747  132.9427   63.4229 H   0  0  0  0  0  0  0  0  0  0  0  0
  133.7824  133.4848   63.4656 H   0  0  0  0  0  0  0  0  0  0  0  0
  134.7192  133.1830   61.9630 H   0  0  0  0  0  0  0  0  0  0  0  0
  133.3843  134.3849   61.9630 H   0  0  0  0  0  0  0  0  0  0  0  0
  134.4570  130.6540   59.8610 H   0  0  0  0  0  0  0  0  0  0  0  0
  132.3606  129.7418   59.8171 H   0  0  0  0  0  0  0  0  0  0  0  0
  1  2  2  0
  2  3  1  0
  2  4  1  0
  4  5  1  0
  5  6  1  0
  6  7  2  3
  7  8  1  0
  7  9  1  0
  4 10  1  0
 11 10  1  1
 11 12  1  0
 12 13  1  0
 13 14  1  0
 14 15  1  0
 15 16  2  3
 16 17  1  0
 16 18  1  0
 13 19  1  0
 19 20  1  0
 19 21  1  0
 19 22  1  0
 22 23  1  6
 23 24  1  0
 24 25  2  3
 25 26  1  0
 25 27  1  0
 22 28  1  0
 28 29  2  0
 28 30  1  0
 30 31  1  0
 31 32  2  0
 31 33  1  0
 33 34  2  0
 34 35  1  0
 35 36  2  0
 36 37  1  0
 36 38  1  0
 38 39  1  0
 38 40  2  0
 30 41  2  0
 41 42  1  0
 22 43  1  0
 43 44  1  1
 44 45  1  0
 45 46  1  0
 46 47  2  0
 46 48  1  0
 45 49  1  0
 49 50  1  0
 50 51  2  0
 51 52  1  0
 52 53  1  0
 52 54  2  0
 54 55  1  0
 54 56  1  0
 56 57  2  0
 41 11  1  0
 57 43  1  0
 43 11  1  0
 57 50  1  0
 40 33  1  0
  1 58  1  0
  1 59  1  0
  3 60  1  0
  3 61  1  0
  3 62  1  0
  4 63  1  6
  5 64  1  0
  5 65  1  0
  6 66  1  0
  8 67  1  0
  8 68  1  0
  8 69  1  0
  9 70  1  0
  9 71  1  0
  9 72  1  0
 10 73  1  0
 10 74  1  0
 12 75  1  0
 12 76  1  0
 13 77  1  6
 14 78  1  0
 14 79  1  0
 15 80  1  0
 17 81  1  0
 17 82  1  0
 17 83  1  0
 18 84  1  0
 18 85  1  0
 18 86  1  0
 20 87  1  0
 20 88  1  0
 20 89  1  0
 21 90  1  0
 21 91  1  0
 21 92  1  0
 23 93  1  0
 23 94  1  0
 24 95  1  0
 26 96  1  0
 26 97  1  0
 26 98  1  0
 27 99  1  0
 27100  1  0
 27101  1  0
 34102  1  0
 35103  1  0
 37104  1  0
 39105  1  0
 40106  1  0
 44107  1  0
 44108  1  0
 45109  1  1
 49110  1  0
 49111  1  0
 51112  1  0
 53113  1  0
 53114  1  0
 53115  1  0
 55116  1  0
 56117  1  0
M  CHG  3  42  -1  44   1  48  -1
M  END
>  <Binding energies>  (1) 
[-3.35]

>  <Ligand effiencies>  (1) 
[-0.05403225806451613]

>  <Interactions>  (1) 
["V-A:ILE:369:CG2:3237, V-A:ASP:366:CA:3210, V-A:ASN:359:CA:3149, V-A:ALA:541:C:4888, V-B:PRO:540:CA:9855, V-A:ILE:369:CB:3236, V-A:PRO:540:C:4881, H-A:ASN:362:O:3173, V-B:ALA:541:CB:9864, V-B:TYR:539:CE2:9848, V-A:TYR:484:CE2:4346, H-B:ALA:541:O:9861, V-B:GLU:543:CG:9879, V-B:TYR:539:C:9839, V-A:ASP:366:CG:3213, V-A:ASN:362:CB:3176, V-A:TYR:539:CD1:4873, V-B:TYR:539:CZ:9849, H-B:GLU:543:OE1:9881, V-A:ALA:541:CB:4892, H-B:ALA:541:N:9863, V-A:LEU:475:CD1:4258, V-A:GLU:543:CD:4908, V-A:TYR:484:CZ:4347, H-B:TYR:484:OH:9319, V-B:PRO:540:N:9856, V-A:ASP:366:C:3208, V-A:ALA:541:CA:4890, V-B:TYR:539:CD2:9846, V-A:GLU:543:CG:4907, V-A:TYR:531:CZ:4794, V-A:MET:535:CE:4835, V-B:GLU:543:CD:9880, H-B:TYR:531:OH:9767, V-A:ASP:366:CB:3212, V-A:LEU:475:CD2:4259, H-A:LEU:363:N:3186, V-A:ARG:545:CZ:4926, V-A:PRO:540:CB:4885, V-A:PRO:540:CA:4883, H-B:TYR:539:O:9840, V-B:PRO:540:C:9853, H-A:ASP:366:OD2:3215, V-A:ASN:359:CB:3151"]

$$$$
ZINC963607119
     RDKit          3D

 50 52  0  0  0  0  0  0  0  0999 V2000
  130.2560  125.2350   67.2050 C   0  0  0  0  0  0  0  0  0  0  0  0
  130.8690  124.7370   66.0200 O   0  0  0  0  0  0  0  0  0  0  0  0
  130.4450  125.1900   64.7820 C   0  0  0  0  0  0  0  0  0  0  0  0
  129.4990  126.2060   64.6270 C   0  0  0  0  0  0  0  0  0  0  0  0
  129.1060  126.6120   63.3630 C   0  0  0  0  0  0  0  0  0  0  0  0
  129.6480  126.0160   62.2170 C   0  0  0  0  0  0  0  0  0  0  0  0
  129.2880  126.4160   60.9420 O   0  0  0  0  0  0  0  0  0  0  0  0
  127.9450  126.7920   60.6570 C   0  0  0  0  0  0  0  0  0  0  0  0
  130.6020  124.9770   62.3410 C   0  0  0  0  0  0  0  0  0  0  0  0
  130.9960  124.5750   63.6440 C   0  0  0  0  0  0  0  0  0  0  0  0
  132.0120  123.4450   63.8100 C   0  0  0  0  0  0  0  0  0  0  0  0
  132.9310  123.2860   62.5880 C   0  0  1  0  0  0  0  0  0  0  0  0
  133.8890  122.0970   62.7550 C   0  0  0  0  0  0  0  0  0  0  0  0
  132.0800  123.1430   61.4160 N   0  0  0  0  0  0  0  0  0  0  0  0
  131.2550  124.3170   61.0810 C   0  0  2  0  0  0  0  0  0  0  0  0
  132.1800  125.3910   60.4060 C   0  0  0  0  0  0  0  0  0  0  0  0
  133.5830  124.9050   59.9800 C   0  0  0  0  0  0  0  0  0  0  0  0
  133.6130  124.3810   58.6070 C   0  0  0  0  0  0  0  0  0  0  0  0
  133.6360  123.9690   57.5260 N   0  0  0  0  0  0  0  0  0  0  0  0
  130.1240  123.7950   60.1490 C   0  0  0  0  0  0  0  0  0  0  0  0
  129.3470  122.6630   60.4480 C   0  0  0  0  0  0  0  0  0  0  0  0
  128.3550  122.2270   59.5730 C   0  0  0  0  0  0  0  0  0  0  0  0
  128.1240  122.9150   58.3830 C   0  0  0  0  0  0  0  0  0  0  0  0
  127.0880  122.4580   57.4690 C   0  0  0  0  0  0  0  0  0  0  0  0
  126.2640  122.0940   56.7430 N   0  0  0  0  0  0  0  0  0  0  0  0
  128.8850  124.0400   58.0670 C   0  0  0  0  0  0  0  0  0  0  0  0
  129.8760  124.4730   58.9430 C   0  0  0  0  0  0  0  0  0  0  0  0
  130.7680  124.8191   68.0853 H   0  0  0  0  0  0  0  0  0  0  0  0
  130.3296  126.3324   67.2225 H   0  0  0  0  0  0  0  0  0  0  0  0
  129.1969  124.9382   67.2225 H   0  0  0  0  0  0  0  0  0  0  0  0
  129.0633  126.6868   65.5152 H   0  0  0  0  0  0  0  0  0  0  0  0
  128.3589  127.4125   63.2574 H   0  0  0  0  0  0  0  0  0  0  0  0
  127.3991  126.9448   61.5997 H   0  0  0  0  0  0  0  0  0  0  0  0
  127.9412  127.7258   60.0755 H   0  0  0  0  0  0  0  0  0  0  0  0
  127.4569  125.9960   60.0755 H   0  0  0  0  0  0  0  0  0  0  0  0
  132.6338  123.6582   64.6920 H   0  0  0  0  0  0  0  0  0  0  0  0
  131.4486  122.5073   63.9250 H   0  0  0  0  0  0  0  0  0  0  0  0
  133.5743  124.1711   62.4748 H   0  0  0  0  0  0  0  0  0  0  0  0
  134.0469  121.9010   63.8258 H   0  0  0  0  0  0  0  0  0  0  0  0
  133.4537  121.2058   62.2794 H   0  0  0  0  0  0  0  0  0  0  0  0
  134.8524  122.3328   62.2794 H   0  0  0  0  0  0  0  0  0  0  0  0
  132.6540  122.9270   60.6140 H   0  0  0  0  0  0  0  0  0  0  0  0
  131.6651  125.7617   59.5074 H   0  0  0  0  0  0  0  0  0  0  0  0
  132.3529  126.1586   61.1747 H   0  0  0  0  0  0  0  0  0  0  0  0
  134.2834  125.7504   60.0487 H   0  0  0  0  0  0  0  0  0  0  0  0
  133.8670  124.0832   60.6538 H   0  0  0  0  0  0  0  0  0  0  0  0
  129.5244  122.1144   61.3848 H   0  0  0  0  0  0  0  0  0  0  0  0
  127.7539  121.3398   59.8210 H   0  0  0  0  0  0  0  0  0  0  0  0
  128.7026  124.5835   57.1282 H   0  0  0  0  0  0  0  0  0  0  0  0
  130.4746  125.3598   58.6875 H   0  0  0  0  0  0  0  0  0  0  0  0
  1  2  1  0
  2  3  1  0
  3  4  2  0
  4  5  1  0
  5  6  2  0
  6  7  1  0
  7  8  1  0
  6  9  1  0
  9 10  2  0
 10 11  1  0
 11 12  1  0
 12 13  1  0
 12 14  1  0
 14 15  1  0
 15 16  1  6
 16 17  1  0
 17 18  1  0
 18 19  3  0
 15 20  1  0
 20 21  2  0
 21 22  1  0
 22 23  2  0
 23 24  1  0
 24 25  3  0
 23 26  1  0
 26 27  2  0
 10  3  1  0
 27 20  1  0
 15  9  1  0
  1 28  1  0
  1 29  1  0
  1 30  1  0
  4 31  1  0
  5 32  1  0
  8 33  1  0
  8 34  1  0
  8 35  1  0
 11 36  1  0
 11 37  1  0
 12 38  1  6
 13 39  1  0
 13 40  1  0
 13 41  1  0
 14 42  1  0
 16 43  1  0
 16 44  1  0
 17 45  1  0
 17 46  1  0
 21 47  1  0
 22 48  1  0
 26 49  1  0
 27 50  1  0
M  END
>  <Binding energies>  (1) 
[-6.97]

>  <Ligand effiencies>  (1) 
[-0.24892857142857142]

>  <Interactions>  (1) 
["V-A:ILE:369:CG2:3237, V-A:ASP:366:CA:3210, V-B:PRO:540:CA:9855, V-A:GLY:454:CA:4049, V-A:ILE:369:CB:3236, V-B:GLU:543:CB:9878, V-B:TYR:539:CE2:9848, V-A:TYR:484:CE2:4346, H-B:TYR:539:N:9842, V-B:GLU:543:CG:9879, V-B:TYR:539:C:9839, V-A:ASP:366:CG:3213, V-B:TYR:539:CZ:9849, H-A:ASN:370:N:3244, H-B:TYR:539:OH:9850, V-A:GLU:543:CD:4908, V-A:TYR:484:CZ:4347, V-B:PRO:540:CB:9857, V-B:PRO:540:N:9856, V-A:HIS:456:CE1:4070, V-A:ASP:366:C:3208, V-B:TYR:539:CD2:9846, V-B:PRO:540:CD:9859, V-B:GLU:543:CD:9880, V-A:ASP:366:CB:3212, V-A:LEU:475:CD2:4259, V-B:TYR:539:CG:9844, H-A:TYR:484:OH:4348"]

$$$$
ZINC963669495
     RDKit          3D

 73 77  0  0  0  0  0  0  0  0999 V2000
  128.1340  126.8290   57.5250 O   0  0  0  0  0  0  0  0  0  0  0  0
  127.0590  126.9950   58.1460 C   0  0  0  0  0  0  0  0  0  0  0  0
  125.9200  126.5270   57.8990 O   0  0  0  0  0  0  0  0  0  0  0  0
  127.1880  127.8820   59.4450 C   0  0  2  0  0  0  0  0  0  0  0  0
  127.5830  129.3350   59.0560 C   0  0  0  0  0  0  0  0  0  0  0  0
  128.5970  130.0140   59.9630 C   0  0  0  0  0  0  0  0  0  0  0  0
  128.1650  130.7900   61.0600 C   0  0  0  0  0  0  0  0  0  0  0  0
  129.1070  131.4100   61.9030 C   0  0  0  0  0  0  0  0  0  0  0  0
  130.4850  131.2570   61.6530 C   0  0  0  0  0  0  0  0  0  0  0  0
  131.3980  131.8560   62.4710 O   0  0  0  0  0  0  0  0  0  0  0  0
  130.9200  130.4840   60.5580 C   0  0  0  0  0  0  0  0  0  0  0  0
  129.9770  129.8640   59.7150 C   0  0  0  0  0  0  0  0  0  0  0  0
  128.1980  127.3540   60.3780 N   0  0  0  0  0  0  0  0  0  0  0  0
  128.0220  127.1530   61.6970 C   0  0  0  0  0  0  0  0  0  0  0  0
  126.9770  127.4700   62.2740 O   0  0  0  0  0  0  0  0  0  0  0  0
  129.2210  126.4900   62.4230 C   0  0  2  0  0  0  0  0  0  0  0  0
  130.3770  126.1940   61.4500 C   0  0  0  0  0  0  0  0  0  0  0  0
  131.4650  125.3360   62.0910 C   0  0  0  0  0  0  0  0  0  0  0  0
  132.7700  125.3980   61.5880 C   0  0  0  0  0  0  0  0  0  0  0  0
  133.7880  124.6130   62.1160 C   0  0  0  0  0  0  0  0  0  0  0  0
  133.5120  123.7490   63.1670 C   0  0  0  0  0  0  0  0  0  0  0  0
  132.2220  123.6840   63.6850 C   0  0  0  0  0  0  0  0  0  0  0  0
  131.1740  124.4720   63.1780 C   0  0  0  0  0  0  0  0  0  0  0  0
  129.7620  124.3780   63.8350 C   0  0  1  0  0  0  0  0  0  0  0  0
  129.2530  122.8960   63.8600 C   0  0  0  0  0  0  0  0  0  0  0  0
  129.2790  122.1410   62.5040 C   0  0  0  0  0  0  0  0  0  0  0  0
  128.0870  122.4920   61.6210 C   0  0  0  0  0  0  0  0  0  0  0  0
  127.0630  122.9890   62.4440 O   0  0  0  0  0  0  0  0  0  0  0  0
  125.8860  123.2670   61.6850 C   0  0  0  0  0  0  0  0  0  0  0  0
  126.1990  124.2400   60.5380 C   0  0  0  0  0  0  0  0  0  0  0  0
  127.4700  123.8060   59.7920 C   0  0  0  0  0  0  0  0  0  0  0  0
  128.5100  123.4770   60.7150 O   0  0  0  0  0  0  0  0  0  0  0  0
  129.6950  125.0390   65.2400 C   0  0  0  0  0  0  0  0  0  0  0  0
  130.1700  124.3880   66.3930 C   0  0  0  0  0  0  0  0  0  0  0  0
  130.1000  124.9970   67.6450 C   0  0  0  0  0  0  0  0  0  0  0  0
  129.5570  126.2730   67.7780 C   0  0  0  0  0  0  0  0  0  0  0  0
  129.4880  126.9970   69.3470 Cl  0  0  0  0  0  0  0  0  0  0  0  0
  129.0840  126.9430   66.6460 C   0  0  0  0  0  0  0  0  0  0  0  0
  128.3440  128.6970   66.7680 Br  0  0  0  0  0  0  0  0  0  0  0  0
  129.1550  126.3290   65.3960 C   0  0  0  0  0  0  0  0  0  0  0  0
  128.7250  125.1390   62.9700 N   0  0  0  0  0  0  0  0  0  0  0  0
  126.2092  127.8663   59.9467 H   0  0  0  0  0  0  0  0  0  0  0  0
  128.0040  129.3091   58.0401 H   0  0  0  0  0  0  0  0  0  0  0  0
  126.6607  129.9277   59.1452 H   0  0  0  0  0  0  0  0  0  0  0  0
  127.0895  130.9107   61.2569 H   0  0  0  0  0  0  0  0  0  0  0  0
  128.7669  132.0140   62.7571 H   0  0  0  0  0  0  0  0  0  0  0  0
  131.6890  131.2870   63.1870 H   0  0  0  0  0  0  0  0  0  0  0  0
  131.9957  130.3648   60.3616 H   0  0  0  0  0  0  0  0  0  0  0  0
  130.3182  129.2610   58.8606 H   0  0  0  0  0  0  0  0  0  0  0  0
  129.0770  127.0930   59.9560 H   0  0  0  0  0  0  0  0  0  0  0  0
  129.5848  127.1678   63.2093 H   0  0  0  0  0  0  0  0  0  0  0  0
  129.9759  125.6619   60.5748 H   0  0  0  0  0  0  0  0  0  0  0  0
  130.8300  127.1541   61.1618 H   0  0  0  0  0  0  0  0  0  0  0  0
  132.9945  126.0828   60.7569 H   0  0  0  0  0  0  0  0  0  0  0  0
  134.8059  124.6758   61.7038 H   0  0  0  0  0  0  0  0  0  0  0  0
  134.3091  123.1188   63.5883 H   0  0  0  0  0  0  0  0  0  0  0  0
  132.0160  122.9946   64.5170 H   0  0  0  0  0  0  0  0  0  0  0  0
  129.8822  122.3367   64.5680 H   0  0  0  0  0  0  0  0  0  0  0  0
  128.1922  122.9532   64.1455 H   0  0  0  0  0  0  0  0  0  0  0  0
  130.2039  122.4049   61.9703 H   0  0  0  0  0  0  0  0  0  0  0  0
  129.2315  121.0633   62.7190 H   0  0  0  0  0  0  0  0  0  0  0  0
  127.7114  121.6171   61.0701 H   0  0  0  0  0  0  0  0  0  0  0  0
  125.4960  122.3277   61.2659 H   0  0  0  0  0  0  0  0  0  0  0  0
  125.1381  123.7281   62.3469 H   0  0  0  0  0  0  0  0  0  0  0  0
  125.3536  124.2532   59.8344 H   0  0  0  0  0  0  0  0  0  0  0  0
  126.3600  125.2436   60.9585 H   0  0  0  0  0  0  0  0  0  0  0  0
  127.2430  122.9244   59.1745 H   0  0  0  0  0  0  0  0  0  0  0  0
  127.8098  124.6385   59.1584 H   0  0  0  0  0  0  0  0  0  0  0  0
  130.6041  123.3811   66.3052 H   0  0  0  0  0  0  0  0  0  0  0  0
  130.4756  124.4671   68.5328 H   0  0  0  0  0  0  0  0  0  0  0  0
  128.7803  126.8653   64.5117 H   0  0  0  0  0  0  0  0  0  0  0  0
  128.4510  124.5550   62.1930 H   0  0  0  0  0  0  0  0  0  0  0  0
  127.8950  125.2900   63.5240 H   0  0  0  0  0  0  0  0  0  0  0  0
  1  2  2  0
  2  3  1  0
  2  4  1  0
  4  5  1  0
  5  6  1  0
  6  7  2  0
  7  8  1  0
  8  9  2  0
  9 10  1  0
  9 11  1  0
 11 12  2  0
  4 13  1  0
 13 14  1  0
 14 15  2  0
 14 16  1  0
 16 17  1  0
 17 18  1  0
 18 19  2  0
 19 20  1  0
 20 21  2  0
 21 22  1  0
 22 23  2  0
 23 24  1  0
 24 25  1  1
 25 26  1  0
 26 27  1  0
 27 28  1  0
 28 29  1  0
 29 30  1  0
 30 31  1  0
 31 32  1  0
 24 33  1  0
 33 34  2  0
 34 35  1  0
 35 36  2  0
 36 37  1  0
 36 38  1  0
 38 39  1  0
 38 40  2  0
 24 41  1  0
 12  6  1  0
 41 16  1  0
 23 18  1  0
 32 27  1  0
 40 33  1  0
  4 42  1  1
  5 43  1  0
  5 44  1  0
  7 45  1  0
  8 46  1  0
 10 47  1  0
 11 48  1  0
 12 49  1  0
 13 50  1  0
 16 51  1  1
 17 52  1  0
 17 53  1  0
 19 54  1  0
 20 55  1  0
 21 56  1  0
 22 57  1  0
 25 58  1  0
 25 59  1  0
 26 60  1  0
 26 61  1  0
 27 62  1  0
 29 63  1  0
 29 64  1  0
 30 65  1  0
 30 66  1  0
 31 67  1  0
 31 68  1  0
 34 69  1  0
 35 70  1  0
 40 71  1  0
 41 72  1  0
 41 73  1  0
M  CHG  2   3  -1  41   1
M  END
>  <Binding energies>  (1) 
[-8.75]

>  <Ligand effiencies>  (1) 
[-0.19444444444444445]

>  <Interactions>  (1) 
["V-B:PRO:540:CA:9855, V-A:GLY:454:CA:4049, H-A:ALA:541:N:4891, V-B:GLU:543:CB:9878, H-A:ALA:541:O:4889, V-B:ALA:541:CB:9864, V-A:TYR:484:CE2:4346, V-B:GLU:543:CG:9879, V-A:ASP:366:CG:3213, H-B:GLU:543:OE1:9881, H-B:ALA:541:N:9863, V-A:TYR:484:CZ:4347, V-B:PRO:540:CB:9857, V-A:GLU:543:CD:4908, V-B:GLU:543:CA:9876, V-B:HIS:456:CE1:9041, V-A:HIS:456:CE1:4070, V-A:GLU:543:CG:4907, V-B:GLU:543:CD:9880, H-B:TYR:531:OH:9767, H-A:GLU:543:OE1:4909, H-B:ARG:545:NH2:9900, V-A:GLU:543:CB:4906, H-B:GLU:543:OE2:9882, V-B:PRO:540:C:9853"]

$$$$
ZINC963686387
     RDKit          3D

 73 77  0  0  0  0  0  0  0  0999 V2000
  132.9090  120.3100   59.8110 C   0  0  0  0  0  0  0  0  0  0  0  0
  132.9670  121.6510   60.5220 C   0  0  0  0  0  0  0  0  0  0  0  0
  133.1020  121.6970   61.9100 C   0  0  0  0  0  0  0  0  0  0  0  0
  133.1450  122.9260   62.5640 C   0  0  0  0  0  0  0  0  0  0  0  0
  133.0500  124.1100   61.8290 C   0  0  0  0  0  0  0  0  0  0  0  0
  133.0950  125.4500   62.5480 C   0  0  0  0  0  0  0  0  0  0  0  0
  132.2790  125.4460   63.8630 C   0  0  0  0  0  0  0  0  0  0  0  0
  130.7520  125.7830   63.7280 C   0  0  1  0  0  0  0  0  0  0  0  0
  130.0760  126.0840   65.1000 C   0  0  0  0  0  0  0  0  0  0  0  0
  130.4680  125.3730   66.2480 C   0  0  0  0  0  0  0  0  0  0  0  0
  129.8950  125.6350   67.4930 C   0  0  0  0  0  0  0  0  0  0  0  0
  128.9230  126.6230   67.6200 C   0  0  0  0  0  0  0  0  0  0  0  0
  128.1490  126.9720   69.3250 Br  0  0  0  0  0  0  0  0  0  0  0  0
  128.5290  127.3550   66.4990 C   0  0  0  0  0  0  0  0  0  0  0  0
  127.5920  128.3240   66.6090 F   0  0  0  0  0  0  0  0  0  0  0  0
  129.1060  127.0900   65.2560 C   0  0  0  0  0  0  0  0  0  0  0  0
  130.6240  126.9820   62.8730 N   0  0  0  0  0  0  0  0  0  0  0  0
  130.7380  126.7460   61.4290 C   0  0  2  0  0  0  0  0  0  0  0  0
  130.7430  128.0800   60.6330 C   0  0  0  0  0  0  0  0  0  0  0  0
  130.6550  128.0360   59.4060 O   0  0  0  0  0  0  0  0  0  0  0  0
  130.8620  129.2520   61.2920 N   0  0  0  0  0  0  0  0  0  0  0  0
  130.8920  130.5930   60.6840 C   0  0  1  0  0  0  0  0  0  0  0  0
  129.4650  131.2220   60.6660 C   0  0  0  0  0  0  0  0  0  0  0  0
  128.4620  130.6240   61.6410 C   0  0  0  0  0  0  0  0  0  0  0  0
  128.4170  131.0680   62.9800 C   0  0  0  0  0  0  0  0  0  0  0  0
  127.4840  130.5150   63.8780 C   0  0  0  0  0  0  0  0  0  0  0  0
  126.5910  129.5170   63.4430 C   0  0  0  0  0  0  0  0  0  0  0  0
  125.6890  128.9820   64.3140 O   0  0  0  0  0  0  0  0  0  0  0  0
  126.6330  129.0710   62.1060 C   0  0  0  0  0  0  0  0  0  0  0  0
  127.5660  129.6230   61.2080 C   0  0  0  0  0  0  0  0  0  0  0  0
  131.8680  131.5150   61.5090 C   0  0  0  0  0  0  0  0  0  0  0  0
  131.4130  131.8870   62.6140 O   0  0  0  0  0  0  0  0  0  0  0  0
  132.9920  131.7470   60.9990 O   0  0  0  0  0  0  0  0  0  0  0  0
  129.5450  125.8680   60.9980 C   0  0  0  0  0  0  0  0  0  0  0  0
  129.5050  124.5770   61.8010 C   0  0  0  0  0  0  0  0  0  0  0  0
  128.9320  123.4230   61.2530 C   0  0  0  0  0  0  0  0  0  0  0  0
  128.8630  122.2400   61.9800 C   0  0  0  0  0  0  0  0  0  0  0  0
  129.3720  122.1950   63.2710 C   0  0  0  0  0  0  0  0  0  0  0  0
  129.9530  123.3330   63.8220 C   0  0  0  0  0  0  0  0  0  0  0  0
  130.0380  124.5440   63.1120 C   0  0  0  0  0  0  0  0  0  0  0  0
  132.9060  124.0630   60.4410 C   0  0  0  0  0  0  0  0  0  0  0  0
  132.8640  122.8350   59.7880 C   0  0  0  0  0  0  0  0  0  0  0  0
  132.8740  119.5013   60.5558 H   0  0  0  0  0  0  0  0  0  0  0  0
  132.0082  120.2676   59.1811 H   0  0  0  0  0  0  0  0  0  0  0  0
  133.8028  120.1900   59.1811 H   0  0  0  0  0  0  0  0  0  0  0  0
  133.1744  120.7634   62.4873 H   0  0  0  0  0  0  0  0  0  0  0  0
  133.2536  122.9642   63.6580 H   0  0  0  0  0  0  0  0  0  0  0  0
  134.1426  125.6885   62.7839 H   0  0  0  0  0  0  0  0  0  0  0  0
  132.6488  126.2020   61.8806 H   0  0  0  0  0  0  0  0  0  0  0  0
  132.3641  124.4438   64.3085 H   0  0  0  0  0  0  0  0  0  0  0  0
  132.7064  126.2510   64.4789 H   0  0  0  0  0  0  0  0  0  0  0  0
  131.2413  124.5953   66.1630 H   0  0  0  0  0  0  0  0  0  0  0  0
  130.2120  125.0598   68.3754 H   0  0  0  0  0  0  0  0  0  0  0  0
  128.7957  127.6799   64.3809 H   0  0  0  0  0  0  0  0  0  0  0  0
  131.3400  127.6350   63.1590 H   0  0  0  0  0  0  0  0  0  0  0  0
  131.6905  126.2399   61.2131 H   0  0  0  0  0  0  0  0  0  0  0  0
  130.9650  129.2370   62.2960 H   0  0  0  0  0  0  0  0  0  0  0  0
  131.2465  130.5057   59.6464 H   0  0  0  0  0  0  0  0  0  0  0  0
  129.5656  132.2921   60.9002 H   0  0  0  0  0  0  0  0  0  0  0  0
  129.0626  131.0175   59.6629 H   0  0  0  0  0  0  0  0  0  0  0  0
  129.1126  131.8481   63.3229 H   0  0  0  0  0  0  0  0  0  0  0  0
  127.4527  130.8632   64.9210 H   0  0  0  0  0  0  0  0  0  0  0  0
  125.9770  128.1450   64.6870 H   0  0  0  0  0  0  0  0  0  0  0  0
  125.9363  128.2913   61.7645 H   0  0  0  0  0  0  0  0  0  0  0  0
  127.5969  129.2732   60.1656 H   0  0  0  0  0  0  0  0  0  0  0  0
  128.6103  126.4240   61.1627 H   0  0  0  0  0  0  0  0  0  0  0  0
  129.6593  125.6169   59.9332 H   0  0  0  0  0  0  0  0  0  0  0  0
  128.5295  123.4529   60.2297 H   0  0  0  0  0  0  0  0  0  0  0  0
  128.4071  121.3436   61.5344 H   0  0  0  0  0  0  0  0  0  0  0  0
  129.3163  121.2646   63.8552 H   0  0  0  0  0  0  0  0  0  0  0  0
  130.3580  123.2840   64.8436 H   0  0  0  0  0  0  0  0  0  0  0  0
  132.8258  124.9961   59.8641 H   0  0  0  0  0  0  0  0  0  0  0  0
  132.7498  122.7966   58.6946 H   0  0  0  0  0  0  0  0  0  0  0  0
  1  2  1  0
  2  3  2  0
  3  4  1  0
  4  5  2  0
  5  6  1  0
  6  7  1  0
  8  7  1  1
  8  9  1  0
  9 10  2  0
 10 11  1  0
 11 12  2  0
 12 13  1  0
 12 14  1  0
 14 15  1  0
 14 16  2  0
  8 17  1  0
 17 18  1  0
 18 19  1  0
 19 20  2  0
 19 21  1  0
 21 22  1  0
 22 23  1  0
 23 24  1  0
 24 25  2  0
 25 26  1  0
 26 27  2  0
 27 28  1  0
 27 29  1  0
 29 30  2  0
 22 31  1  0
 31 32  2  0
 31 33  1  0
 18 34  1  0
 34 35  1  0
 35 36  2  0
 36 37  1  0
 37 38  2  0
 38 39  1  0
 39 40  2  0
  5 41  1  0
 41 42  2  0
 42  2  1  0
 40  8  1  0
 16  9  1  0
 30 24  1  0
 40 35  1  0
  1 43  1  0
  1 44  1  0
  1 45  1  0
  3 46  1  0
  4 47  1  0
  6 48  1  0
  6 49  1  0
  7 50  1  0
  7 51  1  0
 10 52  1  0
 11 53  1  0
 16 54  1  0
 17 55  1  0
 18 56  1  1
 21 57  1  0
 22 58  1  6
 23 59  1  0
 23 60  1  0
 25 61  1  0
 26 62  1  0
 28 63  1  0
 29 64  1  0
 30 65  1  0
 34 66  1  0
 34 67  1  0
 36 68  1  0
 37 69  1  0
 38 70  1  0
 39 71  1  0
 41 72  1  0
 42 73  1  0
M  CHG  1  33  -1
M  END
>  <Binding energies>  (1) 
[-8.84]

>  <Ligand effiencies>  (1) 
[-0.19644444444444445]

>  <Interactions>  (1) 
["V-A:ILE:369:CG2:3237, V-A:GLY:454:CA:4049, V-B:GLU:543:C:9874, H-A:GLU:543:OE2:4910, H-A:ALA:541:N:4891, V-B:GLU:543:CB:9878, V-B:ALA:541:CB:9864, V-B:TYR:539:CE2:9848, V-B:GLU:543:CG:9879, V-A:ASP:366:CG:3213, H-B:GLU:543:OE1:9881, H-B:ARG:545:NE:9896, V-A:GLU:543:CD:4908, V-B:HIS:456:CE1:9041, V-A:HIS:456:CE1:4070, V-B:TYR:539:CD2:9846, V-A:SER:385:CB:3409, V-B:GLU:543:CD:9880, V-A:LEU:475:CD2:4259, H-A:ARG:545:NH2:4928, V-A:ARG:545:CZ:4926, H-A:GLU:543:OE1:4909, H-B:ARG:545:NH2:9900, H-B:GLU:543:OE2:9882, V-A:PRO:540:CA:4883, V-A:PRO:540:CB:4885, H-A:ASP:366:OD2:3215"]

$$$$
ZINC963797660
     RDKit          3D

 85 92  0  0  0  0  0  0  0  0999 V2000
  125.9540  122.1560   56.4200 C   0  0  0  0  0  0  0  0  0  0  0  0
  126.9510  123.1620   56.5680 O   0  0  0  0  0  0  0  0  0  0  0  0
  126.7490  124.2120   57.4470 C   0  0  0  0  0  0  0  0  0  0  0  0
  125.6670  125.0900   57.3410 C   0  0  0  0  0  0  0  0  0  0  0  0
  125.5500  126.1600   58.2100 C   0  0  0  0  0  0  0  0  0  0  0  0
  126.5020  126.3890   59.2010 C   0  0  0  0  0  0  0  0  0  0  0  0
  127.6010  125.5200   59.3660 C   0  0  0  0  0  0  0  0  0  0  0  0
  127.6950  124.4190   58.4710 C   0  0  0  0  0  0  0  0  0  0  0  0
  128.7930  123.5850   58.5700 O   0  0  0  0  0  0  0  0  0  0  0  0
  128.5740  122.2540   59.0310 C   0  0  0  0  0  0  0  0  0  0  0  0
  128.6870  125.7910   60.4920 C   0  0  1  0  0  0  0  0  0  0  0  0
  128.9600  124.4680   61.2400 C   0  0  0  0  0  0  0  0  0  0  0  0
  127.8800  123.7460   61.7730 C   0  0  0  0  0  0  0  0  0  0  0  0
  128.0540  122.5140   62.3820 C   0  0  0  0  0  0  0  0  0  0  0  0
  129.3250  121.9760   62.4710 C   0  0  0  0  0  0  0  0  0  0  0  0
  130.4330  122.6580   61.9670 C   0  0  0  0  0  0  0  0  0  0  0  0
  130.2620  123.9210   61.3390 C   0  0  0  0  0  0  0  0  0  0  0  0
  131.4000  124.6210   60.8210 N   0  0  0  0  0  0  0  0  0  0  0  0
  132.7660  124.1200   61.1420 C   0  0  0  0  0  0  0  0  0  0  0  0
  132.7610  122.5870   61.0660 C   0  0  0  0  0  0  0  0  0  0  0  0
  131.8090  122.0290   62.1190 C   0  0  0  0  0  0  0  0  0  0  0  0
  131.3830  125.8200   60.1630 C   0  0  0  0  0  0  0  0  0  0  0  0
  132.4040  126.4520   59.8620 O   0  0  0  0  0  0  0  0  0  0  0  0
  129.9740  126.2540   59.6660 C   0  0  2  0  0  0  0  0  0  0  0  0
  129.9150  127.7650   59.2720 C   0  0  0  0  0  0  0  0  0  0  0  0
  129.9030  128.1150   58.0910 O   0  0  0  0  0  0  0  0  0  0  0  0
  129.9240  128.6250   60.3140 N   0  0  0  0  0  0  0  0  0  0  0  0
  129.9200  130.0290   60.3000 C   0  0  0  0  0  0  0  0  0  0  0  0
  129.8430  130.8300   61.4490 C   0  0  0  0  0  0  0  0  0  0  0  0
  129.8540  132.2190   61.3330 C   0  0  0  0  0  0  0  0  0  0  0  0
  129.9470  132.8170   60.0780 C   0  0  0  0  0  0  0  0  0  0  0  0
  130.0360  132.0370   58.9150 C   0  0  0  0  0  0  0  0  0  0  0  0
  130.1360  132.6710   57.5780 N   0  0  0  0  0  0  0  0  0  0  0  0
  129.3860  133.6050   57.3130 O   0  0  0  0  0  0  0  0  0  0  0  0
  130.9690  132.2390   56.7850 O   0  0  0  0  0  0  0  0  0  0  0  0
  130.0280  130.6390   59.0470 C   0  0  0  0  0  0  0  0  0  0  0  0
  128.1680  126.7980   61.5420 N   0  0  0  0  0  0  0  0  0  0  0  0
  128.7880  127.3370   62.6590 C   0  0  0  0  0  0  0  0  0  0  0  0
  128.3550  128.2640   63.3520 O   0  0  0  0  0  0  0  0  0  0  0  0
  130.1360  126.7350   63.1890 C   0  0  0  0  0  0  0  0  0  0  0  0
  131.1230  126.8000   62.4570 O   0  0  0  0  0  0  0  0  0  0  0  0
  130.2080  126.2240   64.5640 C   0  0  0  0  0  0  0  0  0  0  0  0
  130.9870  125.1470   64.9490 C   0  0  0  0  0  0  0  0  0  0  0  0
  130.8140  124.8840   66.2810 N   0  0  0  0  0  0  0  0  0  0  0  0
  129.9380  125.7940   66.8270 C   0  0  0  0  0  0  0  0  0  0  0  0
  129.4670  125.9190   68.1390 C   0  0  0  0  0  0  0  0  0  0  0  0
  128.5860  126.9660   68.4000 C   0  0  0  0  0  0  0  0  0  0  0  0
  128.1910  127.8540   67.4050 C   0  0  0  0  0  0  0  0  0  0  0  0
  128.6570  127.7280   66.0990 C   0  0  0  0  0  0  0  0  0  0  0  0
  129.5420  126.6810   65.7720 C   0  0  0  0  0  0  0  0  0  0  0  0
  126.7110  127.1120   61.5250 C   0  0  0  0  0  0  0  0  0  0  0  0
  126.3640  127.5710   60.1200 C   0  0  0  0  0  0  0  0  0  0  0  0
  125.6214  121.8204   57.4134 H   0  0  0  0  0  0  0  0  0  0  0  0
  125.0973  122.5675   55.8662 H   0  0  0  0  0  0  0  0  0  0  0  0
  126.3732  121.3030   55.8662 H   0  0  0  0  0  0  0  0  0  0  0  0
  124.9054  124.9297   56.5636 H   0  0  0  0  0  0  0  0  0  0  0  0
  124.6913  126.8411   58.1170 H   0  0  0  0  0  0  0  0  0  0  0  0
  128.5721  122.2426   60.1309 H   0  0  0  0  0  0  0  0  0  0  0  0
  127.6042  121.8920   58.6589 H   0  0  0  0  0  0  0  0  0  0  0  0
  129.3767  121.6003   58.6589 H   0  0  0  0  0  0  0  0  0  0  0  0
  126.8675  124.1706   61.7050 H   0  0  0  0  0  0  0  0  0  0  0  0
  127.1902  121.9692   62.7906 H   0  0  0  0  0  0  0  0  0  0  0  0
  129.4647  120.9942   62.9470 H   0  0  0  0  0  0  0  0  0  0  0  0
  133.4878  124.5238   60.4168 H   0  0  0  0  0  0  0  0  0  0  0  0
  133.0547  124.4432   62.1531 H   0  0  0  0  0  0  0  0  0  0  0  0
  132.4284  122.2705   60.0664 H   0  0  0  0  0  0  0  0  0  0  0  0
  133.7765  122.2073   61.2517 H   0  0  0  0  0  0  0  0  0  0  0  0
  131.7265  120.9393   61.9936 H   0  0  0  0  0  0  0  0  0  0  0  0
  132.2025  122.2626   63.1193 H   0  0  0  0  0  0  0  0  0  0  0  0
  129.8773  125.6369   58.7606 H   0  0  0  0  0  0  0  0  0  0  0  0
  130.0350  128.2150   61.2290 H   0  0  0  0  0  0  0  0  0  0  0  0
  129.7739  130.3618   62.4420 H   0  0  0  0  0  0  0  0  0  0  0  0
  129.7891  132.8450   62.2351 H   0  0  0  0  0  0  0  0  0  0  0  0
  129.9507  133.9141   59.9979 H   0  0  0  0  0  0  0  0  0  0  0  0
  130.1083  130.0118   58.1469 H   0  0  0  0  0  0  0  0  0  0  0  0
  131.6516  124.5819   64.2789 H   0  0  0  0  0  0  0  0  0  0  0  0
  131.2880  124.1260   66.7510 H   0  0  0  0  0  0  0  0  0  0  0  0
  129.7789  125.2208   68.9297 H   0  0  0  0  0  0  0  0  0  0  0  0
  128.1926  127.0938   69.4193 H   0  0  0  0  0  0  0  0  0  0  0  0
  127.4977  128.6708   67.6544 H   0  0  0  0  0  0  0  0  0  0  0  0
  128.3360  128.4421   65.3263 H   0  0  0  0  0  0  0  0  0  0  0  0
  126.1295  126.2143   61.7820 H   0  0  0  0  0  0  0  0  0  0  0  0
  126.4729  127.8948   62.2602 H   0  0  0  0  0  0  0  0  0  0  0  0
  125.3303  127.9462   60.0939 H   0  0  0  0  0  0  0  0  0  0  0  0
  127.0365  128.3824   59.8047 H   0  0  0  0  0  0  0  0  0  0  0  0
  1  2  1  0
  2  3  1  0
  3  4  2  0
  4  5  1  0
  5  6  2  0
  6  7  1  0
  7  8  2  0
  8  9  1  0
  9 10  1  0
  7 11  1  0
 11 12  1  0
 12 13  2  0
 13 14  1  0
 14 15  2  0
 15 16  1  0
 16 17  2  0
 17 18  1  0
 18 19  1  0
 19 20  1  0
 20 21  1  0
 18 22  1  0
 22 23  2  0
 22 24  1  0
 24 25  1  0
 25 26  2  0
 25 27  1  0
 27 28  1  0
 28 29  2  0
 29 30  1  0
 30 31  2  0
 31 32  1  0
 32 33  1  0
 33 34  2  0
 33 35  1  0
 32 36  2  0
 11 37  1  1
 37 38  1  0
 38 39  2  0
 38 40  1  0
 40 41  2  0
 40 42  1  0
 42 43  2  0
 43 44  1  0
 44 45  1  0
 45 46  2  0
 46 47  1  0
 47 48  2  0
 48 49  1  0
 49 50  2  0
 37 51  1  0
 51 52  1  0
  8  3  1  0
 24 11  1  0
 36 28  1  0
 50 42  1  0
 52  6  1  0
 17 12  1  0
 50 45  1  0
 21 16  1  0
  1 53  1  0
  1 54  1  0
  1 55  1  0
  4 56  1  0
  5 57  1  0
 10 58  1  0
 10 59  1  0
 10 60  1  0
 13 61  1  0
 14 62  1  0
 15 63  1  0
 19 64  1  0
 19 65  1  0
 20 66  1  0
 20 67  1  0
 21 68  1  0
 21 69  1  0
 24 70  1  6
 27 71  1  0
 29 72  1  0
 30 73  1  0
 31 74  1  0
 36 75  1  0
 43 76  1  0
 44 77  1  0
 46 78  1  0
 47 79  1  0
 48 80  1  0
 49 81  1  0
 51 82  1  0
 51 83  1  0
 52 84  1  0
 52 85  1  0
M  CHG  2  33   1  35  -1
M  END
>  <Binding energies>  (1) 
[-9.06]

>  <Ligand effiencies>  (1) 
[-0.16777777777777778]

>  <Interactions>  (1) 
["V-B:PRO:540:CA:9855, V-B:GLU:543:C:9874, V-B:GLU:543:CB:9878, V-A:PRO:540:C:4881, V-B:ASP:366:CG:8184, V-B:ALA:541:CB:9864, H-A:TYR:531:OH:4795, V-B:TYR:539:CE2:9848, V-A:TYR:484:CE2:4346, V-B:GLU:543:CG:9879, V-B:TYR:539:C:9839, V-A:ASP:366:CG:3213, V-B:TYR:539:CZ:9849, V-B:ILE:538:CG2:9835, V-B:TYR:531:CZ:9766, V-B:TYR:531:CE2:9765, V-B:ASP:366:CB:8183, V-B:PRO:540:CB:9857, V-A:GLU:543:CD:4908, V-A:TYR:484:CZ:4347, V-B:HIS:456:CE1:9041, V-B:GLU:543:CA:9876, V-B:PRO:540:N:9856, V-A:HIS:456:CE1:4070, V-B:PRO:540:CD:9859, V-B:TYR:539:CD2:9846, V-A:GLU:543:CG:4907, V-B:GLU:543:CD:9880, V-A:TYR:539:C:4867, V-A:LEU:475:CD2:4259, H-A:ARG:545:NH2:4928, H-A:GLU:543:OE1:4909, V-B:TYR:539:CG:9844, V-A:PRO:540:N:4884, H-A:TYR:539:N:4870, V-A:PRO:540:CB:4885, V-A:PRO:540:CA:4883, V-B:PRO:540:C:9853, V-B:MET:535:CE:9807, V-B:ALA:541:CA:9862, H-A:TYR:484:OH:4348"]

$$$$
ZINC963809524
     RDKit          3D

 67 72  0  0  0  0  0  0  0  0999 V2000
  129.5000  125.0610   68.4130 C   0  0  0  0  0  0  0  0  0  0  0  0
  129.3810  124.3420   67.1910 O   0  0  0  0  0  0  0  0  0  0  0  0
  129.4960  125.0080   65.9820 C   0  0  0  0  0  0  0  0  0  0  0  0
  129.4650  126.4010   65.8850 C   0  0  0  0  0  0  0  0  0  0  0  0
  129.6500  127.0220   64.6620 C   0  0  0  0  0  0  0  0  0  0  0  0
  129.8770  126.2800   63.5060 C   0  0  0  0  0  0  0  0  0  0  0  0
  129.8910  124.8690   63.5440 C   0  0  0  0  0  0  0  0  0  0  0  0
  129.6850  124.2480   64.8080 C   0  0  0  0  0  0  0  0  0  0  0  0
  129.7390  122.8660   64.8630 O   0  0  0  0  0  0  0  0  0  0  0  0
  128.7210  122.1620   65.5690 C   0  0  0  0  0  0  0  0  0  0  0  0
  130.1420  124.0290   62.2250 C   0  0  2  0  0  0  0  0  0  0  0  0
  129.0470  122.9250   61.9990 C   0  0  0  0  0  0  0  0  0  0  0  0
  127.6120  123.3260   61.9420 C   0  0  0  0  0  0  0  0  0  0  0  0
  126.8620  122.8820   62.8400 O   0  0  0  0  0  0  0  0  0  0  0  0
  127.2870  124.0760   60.9920 O   0  0  0  0  0  0  0  0  0  0  0  0
  129.2990  121.6800   61.8390 N   0  0  0  0  0  0  0  0  0  0  0  0
  130.5840  121.2130   61.6970 N   0  0  0  0  0  0  0  0  0  0  0  0
  130.6160  119.9060   61.1830 C   0  0  0  0  0  0  0  0  0  0  0  0
  129.8660  118.8910   61.7910 C   0  0  0  0  0  0  0  0  0  0  0  0
  129.8880  117.5990   61.2660 C   0  0  0  0  0  0  0  0  0  0  0  0
  130.6530  117.3160   60.1340 C   0  0  0  0  0  0  0  0  0  0  0  0
  131.3970  118.3270   59.5210 C   0  0  0  0  0  0  0  0  0  0  0  0
  132.3420  117.9750   58.1200 Cl  0  0  0  0  0  0  0  0  0  0  0  0
  131.3760  119.6210   60.0410 C   0  0  0  0  0  0  0  0  0  0  0  0
  131.7660  121.8800   61.8810 C   0  0  0  0  0  0  0  0  0  0  0  0
  132.8880  121.4140   61.6610 O   0  0  0  0  0  0  0  0  0  0  0  0
  131.5510  123.3050   62.4560 C   0  0  1  0  0  0  0  0  0  0  0  0
  133.3020  124.5910   62.0280 I   0  0  0  0  0  0  0  0  0  0  0  0
  130.1450  124.9260   60.9810 N   0  0  0  0  0  0  0  0  0  0  0  0
  130.5570  124.4810   59.7380 C   0  0  0  0  0  0  0  0  0  0  0  0
  131.2440  123.4880   59.5080 O   0  0  0  0  0  0  0  0  0  0  0  0
  130.1410  125.3300   58.4710 C   0  0  0  0  0  0  0  0  0  0  0  0
  131.0330  125.8600   57.8070 O   0  0  0  0  0  0  0  0  0  0  0  0
  128.7120  125.4420   58.1620 C   0  0  0  0  0  0  0  0  0  0  0  0
  127.9400  126.5950   58.1440 C   0  0  0  0  0  0  0  0  0  0  0  0
  126.6480  126.2880   57.8030 N   0  0  0  0  0  0  0  0  0  0  0  0
  126.5280  124.9340   57.5870 C   0  0  0  0  0  0  0  0  0  0  0  0
  125.4180  124.1640   57.2230 C   0  0  0  0  0  0  0  0  0  0  0  0
  125.6160  122.7920   57.0790 C   0  0  0  0  0  0  0  0  0  0  0  0
  126.8620  122.2050   57.2840 C   0  0  0  0  0  0  0  0  0  0  0  0
  127.9680  122.9710   57.6460 C   0  0  0  0  0  0  0  0  0  0  0  0
  127.8220  124.3610   57.8070 C   0  0  0  0  0  0  0  0  0  0  0  0
  129.3850  126.2000   61.0970 C   0  0  0  0  0  0  0  0  0  0  0  0
  130.0880  126.9920   62.1910 C   0  0  0  0  0  0  0  0  0  0  0  0
  129.3852  124.3675   69.2591 H   0  0  0  0  0  0  0  0  0  0  0  0
  130.4895  125.5390   68.4623 H   0  0  0  0  0  0  0  0  0  0  0  0
  128.7173  125.8323   68.4623 H   0  0  0  0  0  0  0  0  0  0  0  0
  129.2925  127.0081   66.7859 H   0  0  0  0  0  0  0  0  0  0  0  0
  129.6171  128.1199   64.6023 H   0  0  0  0  0  0  0  0  0  0  0  0
  128.8817  122.2731   66.6515 H   0  0  0  0  0  0  0  0  0  0  0  0
  127.7369  122.5734   65.3003 H   0  0  0  0  0  0  0  0  0  0  0  0
  128.7586  121.0960   65.3003 H   0  0  0  0  0  0  0  0  0  0  0  0
  129.2601  119.1128   62.6819 H   0  0  0  0  0  0  0  0  0  0  0  0
  129.3011  116.8016   61.7453 H   0  0  0  0  0  0  0  0  0  0  0  0
  130.6703  116.2955   59.7237 H   0  0  0  0  0  0  0  0  0  0  0  0
  131.9566  120.4184   59.5541 H   0  0  0  0  0  0  0  0  0  0  0  0
  131.4757  123.1297   63.5393 H   0  0  0  0  0  0  0  0  0  0  0  0
  128.3100  127.6060   58.3699 H   0  0  0  0  0  0  0  0  0  0  0  0
  125.9270  126.9910   57.7300 H   0  0  0  0  0  0  0  0  0  0  0  0
  124.4315  124.6218   57.0576 H   0  0  0  0  0  0  0  0  0  0  0  0
  124.7648  122.1554   56.7957 H   0  0  0  0  0  0  0  0  0  0  0  0
  126.9749  121.1181   57.1580 H   0  0  0  0  0  0  0  0  0  0  0  0
  128.9462  122.4935   57.8044 H   0  0  0  0  0  0  0  0  0  0  0  0
  129.4107  126.7515   60.1456 H   0  0  0  0  0  0  0  0  0  0  0  0
  128.3257  126.0241   61.3357 H   0  0  0  0  0  0  0  0  0  0  0  0
  131.1640  127.0548   61.9711 H   0  0  0  0  0  0  0  0  0  0  0  0
  129.6772  128.0111   62.2430 H   0  0  0  0  0  0  0  0  0  0  0  0
  1  2  1  0
  2  3  1  0
  3  4  2  0
  4  5  1  0
  5  6  2  0
  6  7  1  0
  7  8  2  0
  8  9  1  0
  9 10  1  0
  7 11  1  0
 11 12  1  0
 12 13  1  0
 13 14  2  0
 13 15  1  0
 12 16  2  0
 16 17  1  0
 17 18  1  0
 18 19  2  0
 19 20  1  0
 20 21  2  0
 21 22  1  0
 22 23  1  0
 22 24  2  0
 17 25  1  0
 25 26  2  0
 25 27  1  0
 27 28  1  0
 11 29  1  6
 29 30  1  0
 30 31  2  0
 30 32  1  0
 32 33  2  0
 32 34  1  0
 34 35  2  0
 35 36  1  0
 36 37  1  0
 37 38  2  0
 38 39  1  0
 39 40  2  0
 40 41  1  0
 41 42  2  0
 29 43  1  0
 43 44  1  0
  8  3  1  0
 27 11  1  0
 42 34  1  0
 44  6  1  0
 24 18  1  0
 42 37  1  0
  1 45  1  0
  1 46  1  0
  1 47  1  0
  4 48  1  0
  5 49  1  0
 10 50  1  0
 10 51  1  0
 10 52  1  0
 19 53  1  0
 20 54  1  0
 21 55  1  0
 24 56  1  0
 27 57  1  1
 35 58  1  0
 36 59  1  0
 38 60  1  0
 39 61  1  0
 40 62  1  0
 41 63  1  0
 43 64  1  0
 43 65  1  0
 44 66  1  0
 44 67  1  0
M  CHG  1  15  -1
M  END
>  <Binding energies>  (1) 
[-6.39]

>  <Ligand effiencies>  (1) 
[-0.142]

>  <Interactions>  (1) 
["V-B:TYR:539:CA:9841, V-B:PRO:540:CA:9855, V-B:GLU:543:C:9874, V-B:TYR:539:CE1:9847, V-B:GLU:543:CB:9878, V-B:ALA:541:CB:9864, H-A:TYR:531:OH:4795, V-B:TYR:539:CE2:9848, V-A:TYR:484:CE2:4346, V-A:LEU:475:CG:4257, V-B:GLU:543:CG:9879, V-B:TYR:539:C:9839, V-B:TYR:539:CZ:9849, H-B:TYR:539:OH:9850, H-B:ALA:541:N:9863, V-A:LEU:475:CD1:4258, V-B:TYR:539:CB:9843, V-A:HIS:383:CE1:3393, V-A:GLU:543:CD:4908, V-B:PRO:540:CB:9857, H-B:ASP:366:OD1:8185, V-B:GLU:543:CA:9876, V-B:PRO:540:N:9856, V-A:HIS:383:CG:3390, V-A:HIS:456:CE1:4070, V-A:PRO:482:CB:4326, V-B:TYR:539:CD2:9846, V-B:PRO:540:CD:9859, V-B:GLU:543:CD:9880, H-B:TYR:531:OH:9767, V-A:LEU:475:CD2:4259, V-B:TYR:539:CG:9844, V-B:VAL:542:C:9866, V-A:HIS:383:CD2:3392, V-B:TYR:539:CD1:9845, V-B:LEU:363:CD1:8160, V-A:PRO:482:CG:4327, V-B:MET:535:CE:9807, V-A:HIS:383:NE2:3394, H-A:TYR:484:OH:4348"]

$$$$
ZINC963913812
     RDKit          3D

 71 76  0  0  0  0  0  0  0  0999 V2000
  128.4110  128.4320   68.0390 C   0  0  0  0  0  0  0  0  0  0  0  0
  128.5350  126.9140   68.2680 C   0  0  0  0  0  0  0  0  0  0  0  0
  129.1470  126.5890   69.6470 C   0  0  0  0  0  0  0  0  0  0  0  0
  129.2840  126.3020   67.1590 N   0  0  0  0  0  0  0  0  0  0  0  0
  130.2190  125.2860   67.2110 C   0  0  0  0  0  0  0  0  0  0  0  0
  130.7370  124.9570   66.0570 N   0  0  0  0  0  0  0  0  0  0  0  0
  130.1360  125.7960   65.1530 C   0  0  0  0  0  0  0  0  0  0  0  0
  130.2510  125.9630   63.7480 C   0  0  0  0  0  0  0  0  0  0  0  0
  131.1110  125.2060   62.9360 N   0  0  0  0  0  0  0  0  0  0  0  0
  132.5740  125.1350   63.1740 C   0  0  0  0  0  0  0  0  0  0  0  0
  133.4360  124.3590   62.1500 C   0  0  0  0  0  0  0  0  0  0  0  0
  132.7440  123.0820   61.7240 C   0  0  0  0  0  0  0  0  0  0  0  0
  133.4230  121.8720   61.5560 C   0  0  0  0  0  0  0  0  0  0  0  0
  132.7440  120.7270   61.1470 C   0  0  0  0  0  0  0  0  0  0  0  0
  131.3740  120.7850   60.9060 C   0  0  0  0  0  0  0  0  0  0  0  0
  130.6990  119.6620   60.5060 O   0  0  0  0  0  0  0  0  0  0  0  0
  130.6900  121.9880   61.0790 C   0  0  0  0  0  0  0  0  0  0  0  0
  131.3620  123.1460   61.4880 C   0  0  0  0  0  0  0  0  0  0  0  0
  130.6450  124.4800   61.7220 C   0  0  2  0  0  0  0  0  0  0  0  0
  130.5420  125.3250   60.4410 C   0  0  0  0  0  0  0  0  0  0  0  0
  130.8970  126.6840   60.4250 C   0  0  0  0  0  0  0  0  0  0  0  0
  130.7770  127.4200   59.2420 C   0  0  0  0  0  0  0  0  0  0  0  0
  131.1810  128.9480   59.2010 B   0  0  0  0  0  0  0  0  0  0  0  0
  131.3620  129.7380   60.3130 O   0  0  0  0  0  0  0  0  0  0  0  0
  131.4420  131.0830   59.8670 C   0  0  0  0  0  0  0  0  0  0  0  0
  130.0020  131.6560   59.9700 C   0  0  0  0  0  0  0  0  0  0  0  0
  132.3910  131.8390   60.8250 C   0  0  0  0  0  0  0  0  0  0  0  0
  131.9890  130.8960   58.4070 C   0  0  0  0  0  0  0  0  0  0  0  0
  131.5130  131.9580   57.3900 C   0  0  0  0  0  0  0  0  0  0  0  0
  133.5230  130.6860   58.2920 C   0  0  0  0  0  0  0  0  0  0  0  0
  131.3960  129.6590   58.0420 O   0  0  0  0  0  0  0  0  0  0  0  0
  130.3160  126.8620   58.0910 N   0  0  0  0  0  0  0  0  0  0  0  0
  129.9620  125.5540   58.1110 C   0  0  0  0  0  0  0  0  0  0  0  0
  130.0550  124.7580   59.2530 C   0  0  0  0  0  0  0  0  0  0  0  0
  129.6660  123.4640   59.2000 F   0  0  0  0  0  0  0  0  0  0  0  0
  129.4870  126.9180   63.1410 N   0  0  0  0  0  0  0  0  0  0  0  0
  128.6470  127.6730   63.8940 C   0  0  0  0  0  0  0  0  0  0  0  0
  127.7160  128.8600   63.0600 Cl  0  0  0  0  0  0  0  0  0  0  0  0
  128.4660  127.5890   65.2380 N   0  0  0  0  0  0  0  0  0  0  0  0
  129.2200  126.6520   65.8210 C   0  0  0  0  0  0  0  0  0  0  0  0
  128.3689  128.9471   69.0100 H   0  0  0  0  0  0  0  0  0  0  0  0
  129.2829  128.7897   67.4717 H   0  0  0  0  0  0  0  0  0  0  0  0
  127.4926  128.6434   67.4717 H   0  0  0  0  0  0  0  0  0  0  0  0
  127.5265  126.4750   68.2787 H   0  0  0  0  0  0  0  0  0  0  0  0
  128.4740  126.9464   70.4403 H   0  0  0  0  0  0  0  0  0  0  0  0
  129.2804  125.5012   69.7418 H   0  0  0  0  0  0  0  0  0  0  0  0
  130.1229  127.0877   69.7418 H   0  0  0  0  0  0  0  0  0  0  0  0
  130.5054  124.7921   68.1512 H   0  0  0  0  0  0  0  0  0  0  0  0
  132.9516  126.1677   63.2046 H   0  0  0  0  0  0  0  0  0  0  0  0
  132.6746  124.5641   64.1089 H   0  0  0  0  0  0  0  0  0  0  0  0
  133.6023  124.9915   61.2656 H   0  0  0  0  0  0  0  0  0  0  0  0
  134.3957  124.1000   62.6210 H   0  0  0  0  0  0  0  0  0  0  0  0
  134.5049  121.8236   61.7488 H   0  0  0  0  0  0  0  0  0  0  0  0
  133.2881  119.7802   61.0148 H   0  0  0  0  0  0  0  0  0  0  0  0
  129.7560  119.8080   60.4070 H   0  0  0  0  0  0  0  0  0  0  0  0
  129.6068  122.0275   60.8914 H   0  0  0  0  0  0  0  0  0  0  0  0
  129.6016  124.2368   61.9711 H   0  0  0  0  0  0  0  0  0  0  0  0
  131.2683  127.1679   61.3404 H   0  0  0  0  0  0  0  0  0  0  0  0
  129.7260  131.7658   61.0291 H   0  0  0  0  0  0  0  0  0  0  0  0
  129.9622  132.6385   59.4769 H   0  0  0  0  0  0  0  0  0  0  0  0
  129.2980  130.9695   59.4769 H   0  0  0  0  0  0  0  0  0  0  0  0
  132.1134  131.6179   61.8662 H   0  0  0  0  0  0  0  0  0  0  0  0
  133.4270  131.5160   60.6452 H   0  0  0  0  0  0  0  0  0  0  0  0
  132.3078  132.9210   60.6452 H   0  0  0  0  0  0  0  0  0  0  0  0
  131.1210  132.8327   57.9297 H   0  0  0  0  0  0  0  0  0  0  0  0
  132.3592  132.2659   56.7583 H   0  0  0  0  0  0  0  0  0  0  0  0
  130.7200  131.5312   56.7583 H   0  0  0  0  0  0  0  0  0  0  0  0
  133.9614  130.6260   59.2991 H   0  0  0  0  0  0  0  0  0  0  0  0
  133.7254  129.7518   57.7477 H   0  0  0  0  0  0  0  0  0  0  0  0
  133.9690  131.5315   57.7477 H   0  0  0  0  0  0  0  0  0  0  0  0
  129.5838  125.0988   57.1838 H   0  0  0  0  0  0  0  0  0  0  0  0
  1  2  1  0
  2  3  1  0
  2  4  1  0
  4  5  1  0
  5  6  2  0
  6  7  1  0
  7  8  2  0
  8  9  1  0
  9 10  1  0
 10 11  1  0
 11 12  1  0
 12 13  2  0
 13 14  1  0
 14 15  2  0
 15 16  1  0
 15 17  1  0
 17 18  2  0
 18 19  1  0
 19 20  1  0
 20 21  2  0
 21 22  1  0
 22 23  1  0
 23 24  1  0
 24 25  1  0
 25 26  1  0
 25 27  1  0
 25 28  1  0
 28 29  1  0
 28 30  1  0
 28 31  1  0
 22 32  2  0
 32 33  1  0
 33 34  2  0
 34 35  1  0
  8 36  1  0
 36 37  2  0
 37 38  1  0
 37 39  1  0
 39 40  2  0
 40  4  1  0
 40  7  1  0
 19  9  1  0
 34 20  1  0
 18 12  1  0
 31 23  1  0
  1 41  1  0
  1 42  1  0
  1 43  1  0
  2 44  1  0
  3 45  1  0
  3 46  1  0
  3 47  1  0
  5 48  1  0
 10 49  1  0
 10 50  1  0
 11 51  1  0
 11 52  1  0
 13 53  1  0
 14 54  1  0
 16 55  1  0
 17 56  1  0
 19 57  1  1
 21 58  1  0
 26 59  1  0
 26 60  1  0
 26 61  1  0
 27 62  1  0
 27 63  1  0
 27 64  1  0
 29 65  1  0
 29 66  1  0
 29 67  1  0
 30 68  1  0
 30 69  1  0
 30 70  1  0
 33 71  1  0
M  END
>  <Binding energies>  (1) 
[-8.3]

>  <Ligand effiencies>  (1) 
[-0.20243902439024392]

>  <Interactions>  (1) 
["V-A:ILE:369:CG2:3237, V-B:GLU:543:C:9874, V-B:GLU:543:CB:9878, H-A:TYR:531:OH:4795, V-B:TYR:539:CE2:9848, V-A:TYR:484:CE2:4346, V-B:GLU:543:CG:9879, V-A:ASP:366:CG:3213, V-A:LEU:363:CD1:3189, V-B:TYR:539:CZ:9849, V-A:TYR:531:CE2:4793, V-A:GLU:543:CD:4908, V-A:TYR:484:CZ:4347, V-B:HIS:456:CE1:9041, V-A:HIS:456:CE1:4070, V-B:TYR:539:CD2:9846, V-A:SER:385:CB:3409, H-A:SER:385:OG:3410, V-B:GLU:543:CD:9880, V-A:ASP:366:CB:3212, V-A:LEU:475:CD2:4259, V-A:ARG:545:CZ:4926, V-A:GLU:543:CB:4906, V-A:PRO:540:CB:4885, V-A:PRO:540:CA:4883, V-A:LEU:363:CA:3185, H-B:TYR:539:O:9840, H-A:TYR:484:OH:4348"]

$$$$
ZINC963913812-again1
     RDKit          3D

 72 77  0  0  0  0  0  0  0  0999 V2000
  129.3820  127.9160   70.2970 C   0  0  0  0  0  0  0  0  0  0  0  0
  128.3570  127.6630   69.1700 C   0  0  0  0  0  0  0  0  0  0  0  0
  127.0930  126.9540   69.6910 C   0  0  0  0  0  0  0  0  0  0  0  0
  128.9290  126.9060   68.0460 N   0  0  0  0  0  0  0  0  0  0  0  0
  129.6350  125.7160   68.0850 C   0  0  0  0  0  0  0  0  0  0  0  0
  130.0130  125.2660   66.9170 N   0  0  0  0  0  0  0  0  0  0  0  0
  129.5580  126.2020   66.0250 C   0  0  0  0  0  0  0  0  0  0  0  0
  129.6450  126.3150   64.6190 C   0  0  0  0  0  0  0  0  0  0  0  0
  130.4400  125.4620   63.8420 N   0  0  0  0  0  0  0  0  0  0  0  0
  131.7150  125.0170   64.4340 C   0  0  0  0  0  0  0  0  0  0  0  0
  132.6960  124.5490   63.3480 C   0  0  0  0  0  0  0  0  0  0  0  0
  132.1060  123.3910   62.5680 C   0  0  0  0  0  0  0  0  0  0  0  0
  132.9310  122.4510   61.9410 C   0  0  0  0  0  0  0  0  0  0  0  0
  132.3900  121.3800   61.2350 C   0  0  0  0  0  0  0  0  0  0  0  0
  131.0090  121.2340   61.1600 C   0  0  0  0  0  0  0  0  0  0  0  0
  130.4650  120.1790   60.4770 O   0  0  0  0  0  0  0  0  0  0  0  0
  130.1820  122.1610   61.7890 C   0  0  0  0  0  0  0  0  0  0  0  0
  130.7070  123.2590   62.4920 C   0  0  0  0  0  0  0  0  0  0  0  0
  129.7840  124.2690   63.2200 C   0  0  2  0  0  0  0  0  0  0  0  0
  128.5320  124.5920   62.3870 C   0  0  0  0  0  0  0  0  0  0  0  0
  128.3880  125.8670   61.8200 C   0  0  0  0  0  0  0  0  0  0  0  0
  127.3010  126.1560   60.9870 C   0  0  0  0  0  0  0  0  0  0  0  0
  127.1770  127.5480   60.2580 B   0  0  0  0  0  0  0  0  0  0  0  0
  127.9920  128.6270   60.5050 O   0  0  0  0  0  0  0  0  0  0  0  0
  127.4430  129.7410   59.8170 C   0  0  0  0  0  0  0  0  0  0  0  0
  126.5550  130.4880   60.8490 C   0  0  0  0  0  0  0  0  0  0  0  0
  128.6210  130.6360   59.3700 C   0  0  0  0  0  0  0  0  0  0  0  0
  126.6680  129.0340   58.6490 C   0  0  0  0  0  0  0  0  0  0  0  0
  125.3950  129.7680   58.1700 C   0  0  0  0  0  0  0  0  0  0  0  0
  127.5390  128.6140   57.4340 C   0  0  0  0  0  0  0  0  0  0  0  0
  126.2560  127.8280   59.2760 O   0  0  0  0  0  0  0  0  0  0  0  0
  126.3770  125.1920   60.7910 N   0  0  0  0  0  0  0  0  0  0  0  0
  126.4480  123.9610   61.3330 C   0  0  0  0  0  0  0  0  0  0  0  0
  127.5400  123.6280   62.1350 C   0  0  0  0  0  0  0  0  0  0  0  0
  127.6400  122.3760   62.6400 F   0  0  0  0  0  0  0  0  0  0  0  0
  129.0170  127.3580   63.9990 N   0  0  0  0  0  0  0  0  0  0  0  0
  128.3510  128.2650   64.7620 C   0  0  0  0  0  0  0  0  0  0  0  0
  127.5820  129.5620   63.9250 Cl  0  0  0  0  0  0  0  0  0  0  0  0
  128.2380  128.2610   66.1170 N   0  0  0  0  0  0  0  0  0  0  0  0
  128.8410  127.2200   66.7020 C   0  0  0  0  0  0  0  0  0  0  0  0
  128.8906  127.7947   71.2736 H   0  0  0  0  0  0  0  0  0  0  0  0
  130.2080  127.1948   70.2101 H   0  0  0  0  0  0  0  0  0  0  0  0
  129.7776  128.9387   70.2101 H   0  0  0  0  0  0  0  0  0  0  0  0
  128.0726  128.6580   68.7972 H   0  0  0  0  0  0  0  0  0  0  0  0
  127.0981  126.9568   70.7910 H   0  0  0  0  0  0  0  0  0  0  0  0
  126.1997  127.4827   69.3271 H   0  0  0  0  0  0  0  0  0  0  0  0
  127.0784  125.9160   69.3271 H   0  0  0  0  0  0  0  0  0  0  0  0
  129.8603  125.1903   69.0246 H   0  0  0  0  0  0  0  0  0  0  0  0
  132.1651  125.8538   64.9882 H   0  0  0  0  0  0  0  0  0  0  0  0
  131.5110  124.1719   65.1080 H   0  0  0  0  0  0  0  0  0  0  0  0
  132.9004  125.3828   62.6602 H   0  0  0  0  0  0  0  0  0  0  0  0
  133.6289  124.2181   63.8278 H   0  0  0  0  0  0  0  0  0  0  0  0
  134.0236  122.5598   62.0069 H   0  0  0  0  0  0  0  0  0  0  0  0
  133.0509  120.6536   60.7395 H   0  0  0  0  0  0  0  0  0  0  0  0
  129.5050  120.1740   60.5030 H   0  0  0  0  0  0  0  0  0  0  0  0
  129.0911  122.0308   61.7344 H   0  0  0  0  0  0  0  0  0  0  0  0
  129.4517  123.7318   64.1206 H   0  0  0  0  0  0  0  0  0  0  0  0
  129.1353  126.6459   62.0318 H   0  0  0  0  0  0  0  0  0  0  0  0
  126.8727  130.2207   61.8676 H   0  0  0  0  0  0  0  0  0  0  0  0
  126.6598  131.5735   60.7052 H   0  0  0  0  0  0  0  0  0  0  0  0
  125.5035  130.1989   60.7052 H   0  0  0  0  0  0  0  0  0  0  0  0
  129.1393  131.0298   60.2567 H   0  0  0  0  0  0  0  0  0  0  0  0
  129.3244  130.0425   58.7676 H   0  0  0  0  0  0  0  0  0  0  0  0
  128.2377  131.4728   58.7676 H   0  0  0  0  0  0  0  0  0  0  0  0
  124.8145  130.1027   59.0424 H   0  0  0  0  0  0  0  0  0  0  0  0
  125.6808  130.6399   57.5633 H   0  0  0  0  0  0  0  0  0  0  0  0
  124.7836  129.0838   57.5633 H   0  0  0  0  0  0  0  0  0  0  0  0
  128.4756  128.1624   57.7929 H   0  0  0  0  0  0  0  0  0  0  0  0
  126.9891  127.8821   56.8242 H   0  0  0  0  0  0  0  0  0  0  0  0
  127.7693  129.5001   56.8242 H   0  0  0  0  0  0  0  0  0  0  0  0
  125.5920  125.4040   60.1920 H   0  0  0  0  0  0  0  0  0  0  0  0
  125.6524  123.2250   61.1451 H   0  0  0  0  0  0  0  0  0  0  0  0
  1  2  1  0
  2  3  1  0
  2  4  1  0
  4  5  1  0
  5  6  2  0
  6  7  1  0
  7  8  2  0
  8  9  1  0
  9 10  1  0
 10 11  1  0
 11 12  1  0
 12 13  2  0
 13 14  1  0
 14 15  2  0
 15 16  1  0
 15 17  1  0
 17 18  2  0
 18 19  1  0
 19 20  1  0
 20 21  2  0
 21 22  1  0
 22 23  1  0
 23 24  1  0
 24 25  1  0
 25 26  1  0
 25 27  1  0
 25 28  1  0
 28 29  1  0
 28 30  1  0
 28 31  1  0
 22 32  2  0
 32 33  1  0
 33 34  2  0
 34 35  1  0
  8 36  1  0
 36 37  2  0
 37 38  1  0
 37 39  1  0
 39 40  2  0
 40  4  1  0
 40  7  1  0
 19  9  1  0
 34 20  1  0
 18 12  1  0
 31 23  1  0
  1 41  1  0
  1 42  1  0
  1 43  1  0
  2 44  1  0
  3 45  1  0
  3 46  1  0
  3 47  1  0
  5 48  1  0
 10 49  1  0
 10 50  1  0
 11 51  1  0
 11 52  1  0
 13 53  1  0
 14 54  1  0
 16 55  1  0
 17 56  1  0
 19 57  1  1
 21 58  1  0
 26 59  1  0
 26 60  1  0
 26 61  1  0
 27 62  1  0
 27 63  1  0
 27 64  1  0
 29 65  1  0
 29 66  1  0
 29 67  1  0
 30 68  1  0
 30 69  1  0
 30 70  1  0
 32 71  1  0
 33 72  1  0
M  CHG  1  32   1
M  END
>  <Binding energies>  (1) 
[-8.5]

>  <Ligand effiencies>  (1) 
[-0.20238095238095238]

>  <Interactions>  (1) 
["V-B:PRO:540:CA:9855, V-B:GLU:543:C:9874, V-B:GLU:543:CB:9878, V-B:ALA:541:CB:9864, V-B:TYR:539:CE2:9848, V-B:GLU:543:CG:9879, H-B:GLU:543:OE1:9881, V-A:GLU:543:CD:4908, V-B:ASP:366:CB:8183, H-B:ASP:366:OD1:8185, V-B:HIS:456:CE1:9041, V-B:GLU:543:CA:9876, V-A:HIS:456:CE1:4070, V-B:ALA:541:C:9860, V-B:GLY:544:C:9884, V-B:TYR:539:CD2:9846, V-A:GLU:543:CG:4907, V-B:GLU:543:CD:9880, H-B:TYR:531:OH:9767, V-A:LEU:475:CD2:4259, H-B:TYR:539:O:9840, V-B:PRO:540:C:9853, V-B:ALA:541:CA:9862, H-A:TYR:484:OH:4348"]

$$$$
ZINC963915781
     RDKit          3D

 71 77  0  0  0  0  0  0  0  0999 V2000
  130.5350  132.7260   56.5500 C   0  0  0  0  0  0  0  0  0  0  0  0
  129.2590  132.1750   57.2160 C   0  0  0  0  0  0  0  0  0  0  0  0
  128.7550  133.0660   58.3670 C   0  0  0  0  0  0  0  0  0  0  0  0
  129.4790  130.8040   57.6870 N   0  0  0  0  0  0  0  0  0  0  0  0
  129.0690  129.6560   57.0440 C   0  0  0  0  0  0  0  0  0  0  0  0
  129.4050  128.5450   57.6480 N   0  0  0  0  0  0  0  0  0  0  0  0
  130.0470  128.9450   58.7900 C   0  0  0  0  0  0  0  0  0  0  0  0
  130.6570  128.2410   59.8620 C   0  0  0  0  0  0  0  0  0  0  0  0
  130.5730  126.8450   60.0670 N   0  0  0  0  0  0  0  0  0  0  0  0
  131.6940  126.1900   60.7690 C   0  0  0  0  0  0  0  0  0  0  0  0
  131.6930  124.6750   60.5760 C   0  0  0  0  0  0  0  0  0  0  0  0
  130.4450  124.1080   61.2060 C   0  0  0  0  0  0  0  0  0  0  0  0
  130.4680  122.8700   61.8580 C   0  0  0  0  0  0  0  0  0  0  0  0
  129.3210  122.3510   62.4480 C   0  0  0  0  0  0  0  0  0  0  0  0
  128.1360  123.0720   62.3930 C   0  0  0  0  0  0  0  0  0  0  0  0
  126.9990  122.5720   62.9700 O   0  0  0  0  0  0  0  0  0  0  0  0
  128.1100  124.3070   61.7490 C   0  0  0  0  0  0  0  0  0  0  0  0
  129.2560  124.8590   61.1440 C   0  0  0  0  0  0  0  0  0  0  0  0
  129.2210  126.2490   60.4280 C   0  0  1  0  0  0  0  0  0  0  0  0
  128.3640  127.2430   61.2290 C   0  0  0  0  0  0  0  0  0  0  0  0
  128.7350  127.8720   62.3660 C   0  0  0  0  0  0  0  0  0  0  0  0
  128.0820  128.8360   63.0980 N   0  0  0  0  0  0  0  0  0  0  0  0
  127.8380  128.6840   64.4690 C   0  0  0  0  0  0  0  0  0  0  0  0
  128.7120  127.9210   65.2530 C   0  0  0  0  0  0  0  0  0  0  0  0
  128.5130  127.7950   66.6340 C   0  0  0  0  0  0  0  0  0  0  0  0
  129.4570  126.9650   67.5010 C   0  0  0  0  0  0  0  0  0  0  0  0
  128.7530  126.2620   68.3900 F   0  0  0  0  0  0  0  0  0  0  0  0
  130.1890  126.1100   66.7840 F   0  0  0  0  0  0  0  0  0  0  0  0
  130.2860  127.7770   68.1560 F   0  0  0  0  0  0  0  0  0  0  0  0
  127.4280  128.4490   67.2260 C   0  0  0  0  0  0  0  0  0  0  0  0
  126.5580  129.2180   66.4540 C   0  0  0  0  0  0  0  0  0  0  0  0
  126.7580  129.3410   65.0790 C   0  0  0  0  0  0  0  0  0  0  0  0
  125.6640  130.3260   64.1680 Cl  0  0  0  0  0  0  0  0  0  0  0  0
  127.0760  127.4490   60.5450 C   0  0  0  0  0  0  0  0  0  0  0  0
  126.1540  128.1600   60.9460 O   0  0  0  0  0  0  0  0  0  0  0  0
  127.1450  126.6570   59.2990 C   0  0  0  0  0  0  0  0  0  0  0  0
  126.1890  126.5390   58.2880 C   0  0  0  0  0  0  0  0  0  0  0  0
  126.4760  125.7800   57.1530 C   0  0  0  0  0  0  0  0  0  0  0  0
  127.7120  125.1440   57.0320 C   0  0  0  0  0  0  0  0  0  0  0  0
  128.6630  125.2590   58.0480 C   0  0  0  0  0  0  0  0  0  0  0  0
  128.3770  126.0130   59.1910 C   0  0  0  0  0  0  0  0  0  0  0  0
  131.3360  128.9670   60.8030 N   0  0  0  0  0  0  0  0  0  0  0  0
  131.3400  130.3210   60.7270 C   0  0  0  0  0  0  0  0  0  0  0  0
  132.1660  131.1640   61.9840 Cl  0  0  0  0  0  0  0  0  0  0  0  0
  130.7470  131.0800   59.7710 N   0  0  0  0  0  0  0  0  0  0  0  0
  130.1370  130.3630   58.8220 C   0  0  0  0  0  0  0  0  0  0  0  0
  131.2500  133.0348   57.3268 H   0  0  0  0  0  0  0  0  0  0  0  0
  130.9889  131.9437   55.9239 H   0  0  0  0  0  0  0  0  0  0  0  0
  130.2768  133.5928   55.9239 H   0  0  0  0  0  0  0  0  0  0  0  0
  128.4725  132.1739   56.4470 H   0  0  0  0  0  0  0  0  0  0  0  0
  129.0166  132.6036   59.3302 H   0  0  0  0  0  0  0  0  0  0  0  0
  129.2260  134.0575   58.2964 H   0  0  0  0  0  0  0  0  0  0  0  0
  127.6625  133.1732   58.2964 H   0  0  0  0  0  0  0  0  0  0  0  0
  128.5051  129.6724   56.0997 H   0  0  0  0  0  0  0  0  0  0  0  0
  132.6399  126.5954   60.3805 H   0  0  0  0  0  0  0  0  0  0  0  0
  131.5817  126.3922   61.8444 H   0  0  0  0  0  0  0  0  0  0  0  0
  131.7055  124.4387   59.5018 H   0  0  0  0  0  0  0  0  0  0  0  0
  132.5841  124.2363   61.0489 H   0  0  0  0  0  0  0  0  0  0  0  0
  131.4072  122.2992   61.9044 H   0  0  0  0  0  0  0  0  0  0  0  0
  129.3523  121.3754   62.9551 H   0  0  0  0  0  0  0  0  0  0  0  0
  126.4370  123.2550   63.3420 H   0  0  0  0  0  0  0  0  0  0  0  0
  127.1649  124.8687   61.7118 H   0  0  0  0  0  0  0  0  0  0  0  0
  129.7115  127.5652   62.7689 H   0  0  0  0  0  0  0  0  0  0  0  0
  128.2970  129.7940   62.8570 H   0  0  0  0  0  0  0  0  0  0  0  0
  129.5654  127.4143   64.7787 H   0  0  0  0  0  0  0  0  0  0  0  0
  127.2595  128.3561   68.3090 H   0  0  0  0  0  0  0  0  0  0  0  0
  125.7098  129.7302   66.9316 H   0  0  0  0  0  0  0  0  0  0  0  0
  125.2154  127.0415   58.3859 H   0  0  0  0  0  0  0  0  0  0  0  0
  125.7273  125.6829   56.3530 H   0  0  0  0  0  0  0  0  0  0  0  0
  127.9379  124.5504   56.1339 H   0  0  0  0  0  0  0  0  0  0  0  0
  129.6367  124.7568   57.9496 H   0  0  0  0  0  0  0  0  0  0  0  0
  1  2  1  0
  2  3  1  0
  2  4  1  0
  4  5  1  0
  5  6  2  0
  6  7  1  0
  7  8  2  0
  8  9  1  0
  9 10  1  0
 10 11  1  0
 11 12  1  0
 12 13  2  0
 13 14  1  0
 14 15  2  0
 15 16  1  0
 15 17  1  0
 17 18  2  0
 18 19  1  0
 19 20  1  0
 20 21  2  0
 21 22  1  0
 22 23  1  0
 23 24  2  0
 24 25  1  0
 25 26  1  0
 26 27  1  0
 26 28  1  0
 26 29  1  0
 25 30  2  0
 30 31  1  0
 31 32  2  0
 32 33  1  0
 20 34  1  0
 34 35  2  0
 34 36  1  0
 36 37  2  0
 37 38  1  0
 38 39  2  0
 39 40  1  0
 40 41  2  0
  8 42  1  0
 42 43  2  0
 43 44  1  0
 43 45  1  0
 45 46  2  0
 46  4  1  0
 46  7  1  0
 19  9  1  6
 32 23  1  0
 41 36  1  0
 18 12  1  0
 41 19  1  0
  1 47  1  0
  1 48  1  0
  1 49  1  0
  2 50  1  0
  3 51  1  0
  3 52  1  0
  3 53  1  0
  5 54  1  0
 10 55  1  0
 10 56  1  0
 11 57  1  0
 11 58  1  0
 13 59  1  0
 14 60  1  0
 16 61  1  0
 17 62  1  0
 21 63  1  0
 22 64  1  0
 24 65  1  0
 30 66  1  0
 31 67  1  0
 37 68  1  0
 38 69  1  0
 39 70  1  0
 40 71  1  0
M  END
>  <Binding energies>  (1) 
[-8.27]

>  <Ligand effiencies>  (1) 
[-0.17229166666666665]

>  <Interactions>  (1) 
["V-B:GLU:543:C:9874, V-B:GLU:543:CB:9878, V-A:ILE:538:CB:4862, V-B:ALA:541:CB:9864, H-A:TYR:531:OH:4795, H-B:ALA:541:O:9861, V-B:GLU:543:CG:9879, V-A:ASP:366:CG:3213, V-A:TYR:539:CD1:4873, V-A:ILE:538:CA:4860, H-B:GLU:543:OE1:9881, V-B:TYR:531:CZ:9766, H-B:ALA:541:N:9863, V-A:GLU:543:CD:4908, V-B:HIS:456:CE1:9041, V-B:GLU:543:CA:9876, V-B:TYR:484:CZ:9318, V-A:HIS:456:CE1:4070, V-A:GLU:543:CG:4907, V-B:GLU:543:CD:9880, V-A:MET:535:CE:4835, V-A:TYR:539:C:4867, H-A:GLU:543:OE1:4909, H-B:ARG:545:NH2:9900, V-A:GLU:543:CB:4906, V-A:PRO:540:N:4884, V-A:TYR:539:CG:4872, V-A:TYR:539:CE1:4875"]

$$$$
ZINC963929242
     RDKit          3D

 82 86  0  0  0  0  0  0  0  0999 V2000
  130.5490  118.7730   61.3300 C   0  0  0  0  0  0  0  0  0  0  0  0
  130.3090  120.1420   60.8910 N   0  0  0  0  0  0  0  0  0  0  0  0
  131.2190  121.1330   60.8890 C   0  0  0  0  0  0  0  0  0  0  0  0
  132.3700  120.9780   61.3000 O   0  0  0  0  0  0  0  0  0  0  0  0
  130.7660  122.5350   60.3870 C   0  0  2  0  0  0  0  0  0  0  0  0
  131.8790  123.5770   60.1820 C   0  0  0  0  0  0  0  0  0  0  0  0
  132.4780  123.9990   61.5060 C   0  0  0  0  0  0  0  0  0  0  0  0
  133.8450  124.2890   61.5890 C   0  0  0  0  0  0  0  0  0  0  0  0
  134.4220  124.6930   62.7860 C   0  0  0  0  0  0  0  0  0  0  0  0
  133.6300  124.8100   63.9180 C   0  0  0  0  0  0  0  0  0  0  0  0
  132.2720  124.5140   63.8440 C   0  0  0  0  0  0  0  0  0  0  0  0
  131.6530  124.0920   62.6500 C   0  0  0  0  0  0  0  0  0  0  0  0
  130.1190  123.7350   62.6110 C   0  0  2  0  0  0  0  0  0  0  0  0
  129.3830  125.0930   62.9620 C   0  0  0  0  0  0  0  0  0  0  0  0
  129.4390  125.5700   64.4060 C   0  0  0  0  0  0  0  0  0  0  0  0
  129.8700  124.9080   65.4610 N   0  0  0  0  0  0  0  0  0  0  0  0
  129.6530  125.7680   66.4970 C   0  0  0  0  0  0  0  0  0  0  0  0
  129.9150  125.6460   67.8710 C   0  0  0  0  0  0  0  0  0  0  0  0
  129.5830  126.7240   68.6980 C   0  0  0  0  0  0  0  0  0  0  0  0
  129.0070  127.8920   68.1850 C   0  0  0  0  0  0  0  0  0  0  0  0
  128.7340  128.0330   66.8220 C   0  0  0  0  0  0  0  0  0  0  0  0
  129.0710  126.9470   66.0090 C   0  0  0  0  0  0  0  0  0  0  0  0
  128.9230  126.8100   64.6630 O   0  0  0  0  0  0  0  0  0  0  0  0
  129.8450  122.6690   63.7500 C   0  0  0  0  0  0  0  0  0  0  0  0
  130.7640  122.6890   64.7160 F   0  0  0  0  0  0  0  0  0  0  0  0
  128.6720  122.8540   64.3590 F   0  0  0  0  0  0  0  0  0  0  0  0
  129.8060  121.4150   63.2990 F   0  0  0  0  0  0  0  0  0  0  0  0
  129.7160  123.1660   61.2450 N   0  0  0  0  0  0  0  0  0  0  0  0
  128.4030  123.1530   60.8190 C   0  0  0  0  0  0  0  0  0  0  0  0
  127.5430  122.4700   61.3790 O   0  0  0  0  0  0  0  0  0  0  0  0
  127.9050  124.0000   59.6000 C   0  0  2  0  0  0  0  0  0  0  0  0
  128.5540  123.5490   58.2460 C   0  0  0  0  0  0  0  0  0  0  0  0
  127.6420  123.5720   56.9900 C   0  0  0  0  0  0  0  0  0  0  0  0
  126.9970  124.9560   56.8000 C   0  0  0  0  0  0  0  0  0  0  0  0
  126.5640  122.4710   57.0160 C   0  0  0  0  0  0  0  0  0  0  0  0
  128.0090  125.5520   59.8490 C   0  0  2  0  0  0  0  0  0  0  0  0
  129.4710  126.0410   60.0350 C   0  0  0  0  0  0  0  0  0  0  0  0
  130.2520  126.7690   58.5580 S   0  0  0  0  0  0  0  0  0  0  0  0
  130.6630  128.3150   59.2850 C   0  0  0  0  0  0  0  0  0  0  0  0
  130.5710  128.6570   60.6290 C   0  0  0  0  0  0  0  0  0  0  0  0
  130.9750  129.9710   60.8880 C   0  0  0  0  0  0  0  0  0  0  0  0
  131.3800  130.6400   59.7420 C   0  0  0  0  0  0  0  0  0  0  0  0
  131.2640  129.6380   58.3310 S   0  0  0  0  0  0  0  0  0  0  0  0
  127.0850  126.0830   60.9770 C   0  0  0  0  0  0  0  0  0  0  0  0
  126.0330  125.4950   61.2380 O   0  0  0  0  0  0  0  0  0  0  0  0
  127.4970  127.1950   61.6140 N   0  0  0  0  0  0  0  0  0  0  0  0
  126.6030  127.8060   62.4970 O   0  0  0  0  0  0  0  0  0  0  0  0
  130.5554  118.7363   62.4294 H   0  0  0  0  0  0  0  0  0  0  0  0
  129.7517  118.1197   60.9460 H   0  0  0  0  0  0  0  0  0  0  0  0
  131.5210  118.4299   60.9460 H   0  0  0  0  0  0  0  0  0  0  0  0
  129.3800  120.3420   60.5500 H   0  0  0  0  0  0  0  0  0  0  0  0
  130.3607  122.2775   59.3974 H   0  0  0  0  0  0  0  0  0  0  0  0
  132.6687  123.1406   59.5528 H   0  0  0  0  0  0  0  0  0  0  0  0
  131.4442  124.4629   59.6960 H   0  0  0  0  0  0  0  0  0  0  0  0
  134.4730  124.1953   60.6907 H   0  0  0  0  0  0  0  0  0  0  0  0
  135.4976  124.9181   62.8355 H   0  0  0  0  0  0  0  0  0  0  0  0
  134.0731  125.1354   64.8707 H   0  0  0  0  0  0  0  0  0  0  0  0
  131.6586  124.6131   64.7517 H   0  0  0  0  0  0  0  0  0  0  0  0
  129.8295  125.8807   62.3373 H   0  0  0  0  0  0  0  0  0  0  0  0
  128.3180  124.8909   62.7749 H   0  0  0  0  0  0  0  0  0  0  0  0
  130.3669  124.7320   68.2838 H   0  0  0  0  0  0  0  0  0  0  0  0
  129.7794  126.6522   69.7779 H   0  0  0  0  0  0  0  0  0  0  0  0
  128.7638  128.7174   68.8703 H   0  0  0  0  0  0  0  0  0  0  0  0
  128.2796  128.9469   66.4119 H   0  0  0  0  0  0  0  0  0  0  0  0
  126.8299  123.7891   59.5017 H   0  0  0  0  0  0  0  0  0  0  0  0
  129.4083  124.2134   58.0490 H   0  0  0  0  0  0  0  0  0  0  0  0
  128.8165  122.4907   58.3914 H   0  0  0  0  0  0  0  0  0  0  0  0
  128.2934  123.3633   56.1285 H   0  0  0  0  0  0  0  0  0  0  0  0
  126.7892  125.4019   57.7839 H   0  0  0  0  0  0  0  0  0  0  0  0
  127.6844  125.6072   56.2401 H   0  0  0  0  0  0  0  0  0  0  0  0
  126.0563  124.8484   56.2401 H   0  0  0  0  0  0  0  0  0  0  0  0
  126.3198  122.2215   58.0591 H   0  0  0  0  0  0  0  0  0  0  0  0
  125.6596  122.8311   56.5037 H   0  0  0  0  0  0  0  0  0  0  0  0
  126.9431  121.5744   56.5037 H   0  0  0  0  0  0  0  0  0  0  0  0
  127.6299  125.9962   58.9168 H   0  0  0  0  0  0  0  0  0  0  0  0
  129.4749  126.8017   60.8295 H   0  0  0  0  0  0  0  0  0  0  0  0
  130.0601  125.1437   60.2754 H   0  0  0  0  0  0  0  0  0  0  0  0
  130.2172  127.9660   61.4083 H   0  0  0  0  0  0  0  0  0  0  0  0
  130.9719  130.4241   61.8903 H   0  0  0  0  0  0  0  0  0  0  0  0
  131.7327  131.6819   59.7297 H   0  0  0  0  0  0  0  0  0  0  0  0
  128.2150  127.8260   61.2850 H   0  0  0  0  0  0  0  0  0  0  0  0
  126.0600  127.0730   62.7970 H   0  0  0  0  0  0  0  0  0  0  0  0
  1  2  1  0
  2  3  1  0
  3  4  2  0
  3  5  1  0
  5  6  1  0
  6  7  1  0
  7  8  2  0
  8  9  1  0
  9 10  2  0
 10 11  1  0
 11 12  2  0
 12 13  1  0
 13 14  1  1
 14 15  1  0
 15 16  2  0
 16 17  1  0
 17 18  2  0
 18 19  1  0
 19 20  2  0
 20 21  1  0
 21 22  2  0
 22 23  1  0
 13 24  1  0
 24 25  1  0
 24 26  1  0
 24 27  1  0
 13 28  1  0
 28 29  1  0
 29 30  2  0
 29 31  1  0
 31 32  1  0
 32 33  1  0
 33 34  1  0
 33 35  1  0
 31 36  1  0
 36 37  1  0
 37 38  1  0
 38 39  1  0
 39 40  2  0
 40 41  1  0
 41 42  2  0
 42 43  1  0
 36 44  1  0
 44 45  2  0
 44 46  1  0
 46 47  1  0
 28  5  1  0
 43 39  1  0
 12  7  1  0
 23 15  1  0
 22 17  1  0
  1 48  1  0
  1 49  1  0
  1 50  1  0
  2 51  1  0
  5 52  1  6
  6 53  1  0
  6 54  1  0
  8 55  1  0
  9 56  1  0
 10 57  1  0
 11 58  1  0
 14 59  1  0
 14 60  1  0
 18 61  1  0
 19 62  1  0
 20 63  1  0
 21 64  1  0
 31 65  1  6
 32 66  1  0
 32 67  1  0
 33 68  1  0
 34 69  1  0
 34 70  1  0
 34 71  1  0
 35 72  1  0
 35 73  1  0
 35 74  1  0
 36 75  1  6
 37 76  1  0
 37 77  1  0
 40 78  1  0
 41 79  1  0
 42 80  1  0
 46 81  1  0
 47 82  1  0
M  END
>  <Binding energies>  (1) 
[-8.19]

>  <Ligand effiencies>  (1) 
[-0.1638]

>  <Interactions>  (1) 
["V-B:PRO:540:CA:9855, V-B:GLU:543:CB:9878, V-B:ALA:541:CB:9864, V-B:TYR:539:CE2:9848, V-A:TYR:484:CE2:4346, V-A:LEU:475:CG:4257, V-B:GLU:543:CG:9879, V-B:TYR:539:C:9839, V-A:ASP:366:CG:3213, V-B:TYR:539:CZ:9849, H-B:GLU:543:OE1:9881, H-B:ALA:541:N:9863, V-A:LEU:475:CD1:4258, V-A:GLU:543:CD:4908, V-A:TYR:484:CZ:4347, V-B:PRO:540:CB:9857, H-B:ASP:366:OD1:8185, V-B:HIS:456:CE1:9041, V-A:GLY:453:C:4042, V-B:PRO:540:N:9856, V-A:ILE:369:CD1:3239, V-A:HIS:456:CE1:4070, V-B:TYR:539:CD2:9846, V-A:GLU:543:CG:4907, V-B:PRO:540:CD:9859, H-A:SER:385:OG:3410, V-B:GLU:543:CD:9880, V-A:LEU:475:CD2:4259, V-A:ARG:545:CZ:4926, H-B:ARG:545:NH2:9900, V-A:GLU:543:CB:4906, H-B:GLU:543:OE2:9882, V-A:GLY:453:CA:4044, H-B:TYR:539:O:9840, V-B:TYR:539:CE1:9847"]

$$$$
ZINC963929308
     RDKit          3D

 60 64  0  0  0  0  0  0  0  0999 V2000
  126.4610  124.8630   60.8000 C   0  0  0  0  0  0  0  0  0  0  0  0
  126.9280  123.6610   61.6100 C   0  0  0  0  0  0  0  0  0  0  0  0
  126.1250  122.8700   62.1080 O   0  0  0  0  0  0  0  0  0  0  0  0
  128.2700  123.5980   61.6960 O   0  0  0  0  0  0  0  0  0  0  0  0
  129.0970  124.2950   60.7660 C   0  0  0  0  0  0  0  0  0  0  0  0
  130.2200  125.1680   61.4260 C   0  0  2  0  0  0  0  0  0  0  0  0
  130.1550  126.6630   60.9740 C   0  0  0  0  0  0  0  0  0  0  0  0
  131.1170  127.6290   61.3210 C   0  0  0  0  0  0  0  0  0  0  0  0
  130.9770  128.9350   60.8500 C   0  0  0  0  0  0  0  0  0  0  0  0
  129.8840  129.2620   60.0480 C   0  0  0  0  0  0  0  0  0  0  0  0
  129.6830  130.8670   59.4460 Cl  0  0  0  0  0  0  0  0  0  0  0  0
  128.9620  128.2640   59.7410 C   0  0  0  0  0  0  0  0  0  0  0  0
  129.0840  126.9910   60.1890 N   0  0  0  0  0  0  0  0  0  0  0  0
  131.6150  124.6220   60.9560 C   0  0  0  0  0  0  0  0  0  0  0  0
  132.0600  124.8060   59.6330 C   0  0  0  0  0  0  0  0  0  0  0  0
  133.2740  124.2980   59.1810 C   0  0  0  0  0  0  0  0  0  0  0  0
  133.6640  124.4950   57.8830 O   0  0  0  0  0  0  0  0  0  0  0  0
  134.0870  123.5870   60.0530 C   0  0  0  0  0  0  0  0  0  0  0  0
  133.6840  123.4010   61.3700 C   0  0  0  0  0  0  0  0  0  0  0  0
  132.4690  123.9170   61.8370 C   0  0  0  0  0  0  0  0  0  0  0  0
  132.0760  123.7260   63.2910 C   0  0  0  0  0  0  0  0  0  0  0  0
  130.5550  123.7780   63.4460 C   0  0  0  0  0  0  0  0  0  0  0  0
  130.0550  125.0540   62.9110 N   0  0  0  0  0  0  0  0  0  0  0  0
  129.5420  126.0160   63.7840 C   0  0  0  0  0  0  0  0  0  0  0  0
  128.8160  127.0280   63.2310 N   0  0  0  0  0  0  0  0  0  0  0  0
  128.2650  127.9560   64.0580 C   0  0  0  0  0  0  0  0  0  0  0  0
  127.3430  129.2060   63.3110 Cl  0  0  0  0  0  0  0  0  0  0  0  0
  128.3670  127.9990   65.4150 N   0  0  0  0  0  0  0  0  0  0  0  0
  129.1080  127.0110   65.9290 C   0  0  0  0  0  0  0  0  0  0  0  0
  129.7350  125.9820   65.1830 C   0  0  0  0  0  0  0  0  0  0  0  0
  130.4480  125.1550   66.0100 N   0  0  0  0  0  0  0  0  0  0  0  0
  130.2370  125.6350   67.2090 C   0  0  0  0  0  0  0  0  0  0  0  0
  129.4300  126.7580   67.2500 N   0  0  0  0  0  0  0  0  0  0  0  0
  129.0250  127.5480   68.4230 C   0  0  0  0  0  0  0  0  0  0  0  0
  130.2260  127.7290   69.3710 C   0  0  0  0  0  0  0  0  0  0  0  0
  127.8040  126.9460   69.1500 C   0  0  0  0  0  0  0  0  0  0  0  0
  126.1488  125.6666   61.4832 H   0  0  0  0  0  0  0  0  0  0  0  0
  127.2856  125.2206   60.1659 H   0  0  0  0  0  0  0  0  0  0  0  0
  125.6113  124.5701   60.1659 H   0  0  0  0  0  0  0  0  0  0  0  0
  129.5778  123.5540   60.1104 H   0  0  0  0  0  0  0  0  0  0  0  0
  128.4404  124.9883   60.2199 H   0  0  0  0  0  0  0  0  0  0  0  0
  131.9718  127.3573   61.9578 H   0  0  0  0  0  0  0  0  0  0  0  0
  131.7230  129.7007   61.1093 H   0  0  0  0  0  0  0  0  0  0  0  0
  128.0991  128.5199   59.1087 H   0  0  0  0  0  0  0  0  0  0  0  0
  131.4265  125.3705   58.9330 H   0  0  0  0  0  0  0  0  0  0  0  0
  134.5940  124.7180   57.8030 H   0  0  0  0  0  0  0  0  0  0  0  0
  135.0445  123.1733   59.7037 H   0  0  0  0  0  0  0  0  0  0  0  0
  134.3315  122.8380   62.0583 H   0  0  0  0  0  0  0  0  0  0  0  0
  132.4422  122.7491   63.6397 H   0  0  0  0  0  0  0  0  0  0  0  0
  132.5225  124.5339   63.8893 H   0  0  0  0  0  0  0  0  0  0  0  0
  130.1004  122.9438   62.8915 H   0  0  0  0  0  0  0  0  0  0  0  0
  130.2901  123.6957   64.5104 H   0  0  0  0  0  0  0  0  0  0  0  0
  130.6677  125.1810   68.1137 H   0  0  0  0  0  0  0  0  0  0  0  0
  128.7025  128.5385   68.0695 H   0  0  0  0  0  0  0  0  0  0  0  0
  129.8808  127.6770   70.4141 H   0  0  0  0  0  0  0  0  0  0  0  0
  130.9612  126.9315   69.1878 H   0  0  0  0  0  0  0  0  0  0  0  0
  130.6935  128.7077   69.1878 H   0  0  0  0  0  0  0  0  0  0  0  0
  127.9521  127.0190   70.2375 H   0  0  0  0  0  0  0  0  0  0  0  0
  126.8976  127.5005   68.8653 H   0  0  0  0  0  0  0  0  0  0  0  0
  127.6920  125.8894   68.8653 H   0  0  0  0  0  0  0  0  0  0  0  0
  1  2  1  0
  2  3  2  0
  2  4  1  0
  4  5  1  0
  6  5  1  6
  6  7  1  0
  7  8  2  0
  8  9  1  0
  9 10  2  0
 10 11  1  0
 10 12  1  0
 12 13  2  0
  6 14  1  0
 14 15  2  0
 15 16  1  0
 16 17  1  0
 16 18  2  0
 18 19  1  0
 19 20  2  0
 20 21  1  0
 21 22  1  0
 22 23  1  0
 23 24  1  0
 24 25  2  0
 25 26  1  0
 26 27  1  0
 26 28  2  0
 28 29  1  0
 29 30  2  0
 30 31  1  0
 31 32  2  0
 32 33  1  0
 33 34  1  0
 34 35  1  0
 34 36  1  0
 23  6  1  0
 30 24  1  0
 13  7  1  0
 20 14  1  0
 33 29  1  0
  1 37  1  0
  1 38  1  0
  1 39  1  0
  5 40  1  0
  5 41  1  0
  8 42  1  0
  9 43  1  0
 12 44  1  0
 15 45  1  0
 17 46  1  0
 18 47  1  0
 19 48  1  0
 21 49  1  0
 21 50  1  0
 22 51  1  0
 22 52  1  0
 32 53  1  0
 34 54  1  0
 35 55  1  0
 35 56  1  0
 35 57  1  0
 36 58  1  0
 36 59  1  0
 36 60  1  0
M  END
>  <Binding energies>  (1) 
[-7.61]

>  <Ligand effiencies>  (1) 
[-0.20567567567567568]

>  <Interactions>  (1) 
["V-A:ILE:369:CG2:3237, V-A:ASP:366:CA:3210, V-B:PRO:540:CA:9855, V-B:GLU:543:C:9874, V-A:ILE:369:CB:3236, V-B:GLU:543:CB:9878, V-B:TYR:539:CE2:9848, V-B:GLU:543:CG:9879, V-A:ASP:366:CG:3213, H-B:TYR:539:OH:9850, H-B:ALA:541:N:9863, V-A:GLU:543:CD:4908, V-B:HIS:456:CE1:9041, V-A:ILE:369:CD1:3239, V-A:HIS:456:CE1:4070, V-B:GLU:543:CD:9880, V-A:ASP:366:CB:3212, H-A:ASP:366:O:3209, V-A:GLU:543:CB:4906, H-A:TYR:484:OH:4348"]

$$$$
ZINC963937239
     RDKit          3D

 77 80  0  0  0  0  0  0  0  0999 V2000
  131.5820  122.2950   60.9100 C   0  0  0  0  0  0  0  0  0  0  0  0
  130.3570  123.0120   61.2370 N   0  0  0  0  0  0  0  0  0  0  0  0
  129.8160  123.0970   62.4650 C   0  0  0  0  0  0  0  0  0  0  0  0
  130.3270  122.5770   63.4580 O   0  0  0  0  0  0  0  0  0  0  0  0
  128.4840  123.8900   62.6380 C   0  0  2  0  0  0  0  0  0  0  0  0
  127.4180  123.2620   61.7140 C   0  0  0  0  0  0  0  0  0  0  0  0
  127.7140  123.5910   60.2680 C   0  0  0  0  0  0  0  0  0  0  0  0
  127.6540  122.6030   59.2790 C   0  0  0  0  0  0  0  0  0  0  0  0
  127.9490  122.9010   57.9540 C   0  0  0  0  0  0  0  0  0  0  0  0
  128.3080  124.1980   57.6100 C   0  0  0  0  0  0  0  0  0  0  0  0
  128.3710  125.1810   58.5930 C   0  0  0  0  0  0  0  0  0  0  0  0
  128.0840  124.9120   59.9490 C   0  0  0  0  0  0  0  0  0  0  0  0
  128.1500  125.9990   61.0810 C   0  0  2  0  0  0  0  0  0  0  0  0
  126.6540  126.4810   61.2150 C   0  0  0  0  0  0  0  0  0  0  0  0
  126.3800  128.3270   61.9310 Br  0  0  0  0  0  0  0  0  0  0  0  0
  129.0830  127.1480   60.5510 C   0  0  0  0  0  0  0  0  0  0  0  0
  130.3020  127.4850   61.1660 C   0  0  0  0  0  0  0  0  0  0  0  0
  131.0970  128.5120   60.6660 C   0  0  0  0  0  0  0  0  0  0  0  0
  130.6840  129.2250   59.5450 C   0  0  0  0  0  0  0  0  0  0  0  0
  131.6710  130.4970   58.9240 Cl  0  0  0  0  0  0  0  0  0  0  0  0
  129.4770  128.9190   58.9250 C   0  0  0  0  0  0  0  0  0  0  0  0
  128.6830  127.8950   59.4290 C   0  0  0  0  0  0  0  0  0  0  0  0
  128.6300  125.3680   62.3950 N   0  0  0  0  0  0  0  0  0  0  0  0
  129.0920  126.1540   63.4370 C   0  0  0  0  0  0  0  0  0  0  0  0
  128.7000  127.3070   63.6140 O   0  0  0  0  0  0  0  0  0  0  0  0
  130.1460  125.6500   64.4780 C   0  0  2  0  0  0  0  0  0  0  0  0
  129.8460  126.3170   65.8550 C   0  0  0  0  0  0  0  0  0  0  0  0
  129.9790  125.4190   67.1120 C   0  0  0  0  0  0  0  0  0  0  0  0
  129.5010  123.9730   66.8720 C   0  0  0  0  0  0  0  0  0  0  0  0
  129.2370  126.0420   68.3090 C   0  0  0  0  0  0  0  0  0  0  0  0
  131.6510  125.7610   64.0160 C   0  0  2  0  0  0  0  0  0  0  0  0
  131.9420  125.2910   62.5620 C   0  0  0  0  0  0  0  0  0  0  0  0
  133.6550  124.7680   62.2260 S   0  0  0  0  0  0  0  0  0  0  0  0
  133.5210  124.7550   60.4750 C   0  0  0  0  0  0  0  0  0  0  0  0
  134.3170  124.0430   59.5840 C   0  0  0  0  0  0  0  0  0  0  0  0
  133.9520  124.2390   58.2480 C   0  0  0  0  0  0  0  0  0  0  0  0
  132.8770  125.1030   58.1110 C   0  0  0  0  0  0  0  0  0  0  0  0
  132.3090  125.6810   59.6440 S   0  0  0  0  0  0  0  0  0  0  0  0
  132.6420  125.1420   65.0380 C   0  0  0  0  0  0  0  0  0  0  0  0
  133.1890  124.0620   64.7960 O   0  0  0  0  0  0  0  0  0  0  0  0
  132.8460  125.8400   66.1710 N   0  0  0  0  0  0  0  0  0  0  0  0
  133.6080  125.2400   67.1770 O   0  0  0  0  0  0  0  0  0  0  0  0
  132.0913  121.9969   61.8383 H   0  0  0  0  0  0  0  0  0  0  0  0
  131.3362  121.3982   60.3224 H   0  0  0  0  0  0  0  0  0  0  0  0
  132.2436  122.9484   60.3224 H   0  0  0  0  0  0  0  0  0  0  0  0
  129.8690  123.4430   60.4650 H   0  0  0  0  0  0  0  0  0  0  0  0
  128.1694  123.8091   63.6890 H   0  0  0  0  0  0  0  0  0  0  0  0
  127.4224  122.1699   61.8455 H   0  0  0  0  0  0  0  0  0  0  0  0
  126.4314  123.6705   61.9782 H   0  0  0  0  0  0  0  0  0  0  0  0
  127.3695  121.5766   59.5539 H   0  0  0  0  0  0  0  0  0  0  0  0
  127.8986  122.1166   57.1844 H   0  0  0  0  0  0  0  0  0  0  0  0
  128.5416  124.4472   56.5644 H   0  0  0  0  0  0  0  0  0  0  0  0
  128.6544  126.2036   58.3034 H   0  0  0  0  0  0  0  0  0  0  0  0
  126.1970  126.4379   60.2153 H   0  0  0  0  0  0  0  0  0  0  0  0
  126.1938  125.8083   61.9537 H   0  0  0  0  0  0  0  0  0  0  0  0
  130.6320  126.9285   62.0556 H   0  0  0  0  0  0  0  0  0  0  0  0
  132.0501  128.7596   61.1562 H   0  0  0  0  0  0  0  0  0  0  0  0
  129.1520  129.4849   58.0395 H   0  0  0  0  0  0  0  0  0  0  0  0
  127.7243  127.6650   58.9410 H   0  0  0  0  0  0  0  0  0  0  0  0
  130.0296  124.5607   64.5774 H   0  0  0  0  0  0  0  0  0  0  0  0
  130.5413  127.1610   65.9742 H   0  0  0  0  0  0  0  0  0  0  0  0
  128.7830  126.5969   65.8131 H   0  0  0  0  0  0  0  0  0  0  0  0
  131.0529  125.3629   67.3434 H   0  0  0  0  0  0  0  0  0  0  0  0
  129.3367  123.4758   67.8394 H   0  0  0  0  0  0  0  0  0  0  0  0
  128.5599  123.9876   66.3027 H   0  0  0  0  0  0  0  0  0  0  0  0
  130.2654  123.4239   66.3027 H   0  0  0  0  0  0  0  0  0  0  0  0
  129.6777  125.6720   69.2465 H   0  0  0  0  0  0  0  0  0  0  0  0
  129.3292  127.1374   68.2678 H   0  0  0  0  0  0  0  0  0  0  0  0
  128.1741  125.7617   68.2678 H   0  0  0  0  0  0  0  0  0  0  0  0
  131.8312  126.8459   63.9930 H   0  0  0  0  0  0  0  0  0  0  0  0
  131.2802  124.4400   62.3435 H   0  0  0  0  0  0  0  0  0  0  0  0
  131.7668  126.1692   61.9232 H   0  0  0  0  0  0  0  0  0  0  0  0
  135.1474  123.3932   59.8974 H   0  0  0  0  0  0  0  0  0  0  0  0
  134.4621  123.7600   57.3993 H   0  0  0  0  0  0  0  0  0  0  0  0
  132.4363  125.3883   57.1443 H   0  0  0  0  0  0  0  0  0  0  0  0
  132.2580  126.5850   66.5170 H   0  0  0  0  0  0  0  0  0  0  0  0
  133.7980  124.3710   66.8150 H   0  0  0  0  0  0  0  0  0  0  0  0
  1  2  1  0
  2  3  1  0
  3  4  2  0
  3  5  1  0
  5  6  1  0
  6  7  1  0
  7  8  2  0
  8  9  1  0
  9 10  2  0
 10 11  1  0
 11 12  2  0
 12 13  1  0
 13 14  1  1
 14 15  1  0
 13 16  1  0
 16 17  2  0
 17 18  1  0
 18 19  2  0
 19 20  1  0
 19 21  1  0
 21 22  2  0
 13 23  1  0
 23 24  1  0
 24 25  2  0
 24 26  1  0
 26 27  1  0
 27 28  1  0
 28 29  1  0
 28 30  1  0
 26 31  1  0
 31 32  1  0
 32 33  1  0
 33 34  1  0
 34 35  2  0
 35 36  1  0
 36 37  2  0
 37 38  1  0
 31 39  1  0
 39 40  2  0
 39 41  1  0
 41 42  1  0
 23  5  1  0
 38 34  1  0
 12  7  1  0
 22 16  1  0
  1 43  1  0
  1 44  1  0
  1 45  1  0
  2 46  1  0
  5 47  1  1
  6 48  1  0
  6 49  1  0
  8 50  1  0
  9 51  1  0
 10 52  1  0
 11 53  1  0
 14 54  1  0
 14 55  1  0
 17 56  1  0
 18 57  1  0
 21 58  1  0
 22 59  1  0
 26 60  1  1
 27 61  1  0
 27 62  1  0
 28 63  1  0
 29 64  1  0
 29 65  1  0
 29 66  1  0
 30 67  1  0
 30 68  1  0
 30 69  1  0
 31 70  1  6
 32 71  1  0
 32 72  1  0
 35 73  1  0
 36 74  1  0
 37 75  1  0
 41 76  1  0
 42 77  1  0
M  END
>  <Binding energies>  (1) 
[-7.6]

>  <Ligand effiencies>  (1) 
[-0.1688888888888889]

>  <Interactions>  (1) 
["V-A:ILE:369:CG2:3237, V-A:ASP:366:CA:3210, V-B:PRO:540:CA:9855, V-B:GLU:543:C:9874, H-A:GLU:543:OE2:4910, V-A:ILE:369:CB:3236, V-B:GLU:543:CB:9878, V-B:TYR:539:CE2:9848, V-A:TYR:484:CE2:4346, V-B:GLU:543:CG:9879, V-B:TYR:539:C:9839, V-A:ASP:366:CG:3213, V-B:TYR:539:CZ:9849, V-A:GLU:543:CD:4908, V-B:PRO:540:CB:9857, V-A:TYR:484:CZ:4347, V-B:GLU:543:CA:9876, H-A:GLY:454:N:4050, V-A:ARG:545:CG:4922, V-B:PRO:540:N:9856, V-A:TYR:484:CD2:4344, V-A:HIS:456:CE1:4070, V-A:ILE:369:CD1:3239, V-A:ASP:366:C:3208, V-B:TYR:539:CD2:9846, V-B:GLU:543:CD:9880, V-A:ILE:369:CG1:3238, V-A:ASP:366:CB:3212, V-A:ARG:545:CD:4923, H-A:ARG:545:NH2:4928, V-A:ARG:545:CZ:4926, V-B:TYR:539:CG:9844, H-A:ARG:545:NE:4924, V-B:TYR:539:CE1:9847, H-A:HIS:456:ND1:4067, H-A:TYR:484:OH:4348"]

$$$$
ZINC963938893
     RDKit          3D

 97100  0  0  0  0  0  0  0  0999 V2000
  127.9700  130.1010   64.6150 C   0  0  0  0  0  0  0  0  0  0  0  0
  128.2290  129.2800   63.4390 N   0  0  0  0  0  0  0  0  0  0  0  0
  127.3180  128.5380   62.7850 C   0  0  0  0  0  0  0  0  0  0  0  0
  126.1270  128.4930   63.1030 O   0  0  0  0  0  0  0  0  0  0  0  0
  127.8480  127.7290   61.5630 C   0  0  2  0  0  0  0  0  0  0  0  0
  127.0090  126.4620   61.2380 C   0  0  0  0  0  0  0  0  0  0  0  0
  127.6300  125.5700   60.1610 C   0  0  0  0  0  0  0  0  0  0  0  0
  126.9090  124.4580   59.7110 C   0  0  0  0  0  0  0  0  0  0  0  0
  127.4250  123.6040   58.7460 C   0  0  0  0  0  0  0  0  0  0  0  0
  128.6800  123.8530   58.2130 C   0  0  0  0  0  0  0  0  0  0  0  0
  129.4090  124.9560   58.6470 C   0  0  0  0  0  0  0  0  0  0  0  0
  128.9150  125.8480   59.6190 C   0  0  0  0  0  0  0  0  0  0  0  0
  129.7210  127.1020   60.1070 C   0  0  1  0  0  0  0  0  0  0  0  0
  131.2370  126.9360   59.8330 C   0  0  0  0  0  0  0  0  0  0  0  0
  131.5840  127.5310   58.4800 C   0  0  0  0  0  0  0  0  0  0  0  0
  130.6730  128.6640   58.4450 N   0  0  0  0  0  0  0  0  0  0  0  0
  131.0430  129.9480   58.0160 C   0  0  0  0  0  0  0  0  0  0  0  0
  132.1490  130.4610   58.1960 O   0  0  0  0  0  0  0  0  0  0  0  0
  130.0120  130.5690   57.3630 O   0  0  0  0  0  0  0  0  0  0  0  0
  129.7350  131.9810   57.3870 C   0  0  0  0  0  0  0  0  0  0  0  0
  128.3530  132.2940   56.7610 C   0  0  0  0  0  0  0  0  0  0  0  0
  129.8380  132.5510   58.8240 C   0  0  0  0  0  0  0  0  0  0  0  0
  130.8440  132.6010   56.5140 C   0  0  0  0  0  0  0  0  0  0  0  0
  129.4400  128.3850   59.2080 C   0  0  1  0  0  0  0  0  0  0  0  0
  128.1840  128.3170   58.2750 C   0  0  0  0  0  0  0  0  0  0  0  0
  126.9260  128.9950   58.8210 C   0  0  0  0  0  0  0  0  0  0  0  0
  125.8090  128.5160   58.6240 O   0  0  0  0  0  0  0  0  0  0  0  0
  127.2030  130.1280   59.4990 O   0  0  0  0  0  0  0  0  0  0  0  0
  126.1930  130.7820   60.2520 C   0  0  0  0  0  0  0  0  0  0  0  0
  129.3050  127.3290   61.5520 N   0  0  0  0  0  0  0  0  0  0  0  0
  129.8190  126.7150   62.6890 C   0  0  0  0  0  0  0  0  0  0  0  0
  129.9730  127.3470   63.7390 O   0  0  0  0  0  0  0  0  0  0  0  0
  130.4060  125.2670   62.7330 C   0  0  2  0  0  0  0  0  0  0  0  0
  129.7170  124.4270   63.8640 C   0  0  0  0  0  0  0  0  0  0  0  0
  129.3020  122.9700   63.5220 C   0  0  0  0  0  0  0  0  0  0  0  0
  127.8670  122.8600   62.9710 C   0  0  0  0  0  0  0  0  0  0  0  0
  129.4840  122.0520   64.7450 C   0  0  0  0  0  0  0  0  0  0  0  0
  131.9850  125.2430   62.8090 C   0  0  2  0  0  0  0  0  0  0  0  0
  132.6530  124.2740   61.7920 C   0  0  0  0  0  0  0  0  0  0  0  0
  131.6980  123.9230   60.2770 S   0  0  0  0  0  0  0  0  0  0  0  0
  131.4810  122.2010   60.5410 C   0  0  0  0  0  0  0  0  0  0  0  0
  132.4740  121.2290   60.5800 C   0  0  0  0  0  0  0  0  0  0  0  0
  131.9740  119.9450   60.8190 C   0  0  0  0  0  0  0  0  0  0  0  0
  130.5940  119.9280   60.9600 C   0  0  0  0  0  0  0  0  0  0  0  0
  129.9070  121.5110   60.7980 S   0  0  0  0  0  0  0  0  0  0  0  0
  132.5390  125.0350   64.2440 C   0  0  0  0  0  0  0  0  0  0  0  0
  133.3860  124.1660   64.4610 O   0  0  0  0  0  0  0  0  0  0  0  0
  132.0370  125.8340   65.2040 N   0  0  0  0  0  0  0  0  0  0  0  0
  132.4640  125.6370   66.5230 O   0  0  0  0  0  0  0  0  0  0  0  0
  128.1566  129.5095   65.5235 H   0  0  0  0  0  0  0  0  0  0  0  0
  128.6355  130.9768   64.6046 H   0  0  0  0  0  0  0  0  0  0  0  0
  126.9224  130.4364   64.6046 H   0  0  0  0  0  0  0  0  0  0  0  0
  129.1870  129.2550   63.1180 H   0  0  0  0  0  0  0  0  0  0  0  0
  127.7325  128.4979   60.7849 H   0  0  0  0  0  0  0  0  0  0  0  0
  126.9028  125.8706   62.1594 H   0  0  0  0  0  0  0  0  0  0  0  0
  126.0414  126.8099   60.8473 H   0  0  0  0  0  0  0  0  0  0  0  0
  125.9124  124.2566   60.1309 H   0  0  0  0  0  0  0  0  0  0  0  0
  126.8417  122.7353   58.4065 H   0  0  0  0  0  0  0  0  0  0  0  0
  129.0984  123.1808   57.4494 H   0  0  0  0  0  0  0  0  0  0  0  0
  130.4048  125.1376   58.2165 H   0  0  0  0  0  0  0  0  0  0  0  0
  131.8086  127.4542   60.6171 H   0  0  0  0  0  0  0  0  0  0  0  0
  131.4910  125.8657   59.8347 H   0  0  0  0  0  0  0  0  0  0  0  0
  132.6347  127.8537   58.4360 H   0  0  0  0  0  0  0  0  0  0  0  0
  131.4816  126.8352   57.6342 H   0  0  0  0  0  0  0  0  0  0  0  0
  127.6172  132.4607   57.5615 H   0  0  0  0  0  0  0  0  0  0  0  0
  128.4286  133.1978   56.1385 H   0  0  0  0  0  0  0  0  0  0  0  0
  128.0319  131.4458   56.1385 H   0  0  0  0  0  0  0  0  0  0  0  0
  129.6913  131.7393   59.5518 H   0  0  0  0  0  0  0  0  0  0  0  0
  130.8317  132.9995   58.9702 H   0  0  0  0  0  0  0  0  0  0  0  0
  129.0641  133.3189   58.9702 H   0  0  0  0  0  0  0  0  0  0  0  0
  131.6204  133.0351   57.1611 H   0  0  0  0  0  0  0  0  0  0  0  0
  131.2897  131.8212   55.8790 H   0  0  0  0  0  0  0  0  0  0  0  0
  130.4132  133.3891   55.8790 H   0  0  0  0  0  0  0  0  0  0  0  0
  129.1790  129.2076   59.8900 H   0  0  0  0  0  0  0  0  0  0  0  0
  128.4430  128.7993   57.3209 H   0  0  0  0  0  0  0  0  0  0  0  0
  127.9358  127.2499   58.1766 H   0  0  0  0  0  0  0  0  0  0  0  0
  126.3939  130.6519   61.3256 H   0  0  0  0  0  0  0  0  0  0  0  0
  126.1894  131.8544   60.0069 H   0  0  0  0  0  0  0  0  0  0  0  0
  125.2130  130.3466   60.0069 H   0  0  0  0  0  0  0  0  0  0  0  0
  130.1683  124.7815   61.7750 H   0  0  0  0  0  0  0  0  0  0  0  0
  130.4159  124.3803   64.7122 H   0  0  0  0  0  0  0  0  0  0  0  0
  128.7696  124.9491   64.0638 H   0  0  0  0  0  0  0  0  0  0  0  0
  129.9721  122.6377   62.7155 H   0  0  0  0  0  0  0  0  0  0  0  0
  127.1559  122.8055   63.8084 H   0  0  0  0  0  0  0  0  0  0  0  0
  127.6418  123.7435   62.3556 H   0  0  0  0  0  0  0  0  0  0  0  0
  127.7791  121.9525   62.3556 H   0  0  0  0  0  0  0  0  0  0  0  0
  129.3672  122.6413   65.6664 H   0  0  0  0  0  0  0  0  0  0  0  0
  128.7264  121.2548   64.7211 H   0  0  0  0  0  0  0  0  0  0  0  0
  130.4884  121.6041   64.7211 H   0  0  0  0  0  0  0  0  0  0  0  0
  132.2759  126.2591   62.5041 H   0  0  0  0  0  0  0  0  0  0  0  0
  133.6147  124.7140   61.4894 H   0  0  0  0  0  0  0  0  0  0  0  0
  132.7440  123.3108   62.3154 H   0  0  0  0  0  0  0  0  0  0  0  0
  133.5427  121.4472   60.4376 H   0  0  0  0  0  0  0  0  0  0  0  0
  132.6056  119.0470   60.8877 H   0  0  0  0  0  0  0  0  0  0  0  0
  130.0059  119.0184   61.1517 H   0  0  0  0  0  0  0  0  0  0  0  0
  131.3170  126.5380   65.1230 H   0  0  0  0  0  0  0  0  0  0  0  0
  132.7900  124.7350   66.5160 H   0  0  0  0  0  0  0  0  0  0  0  0
  1  2  1  0
  2  3  1  0
  3  4  2  0
  3  5  1  0
  5  6  1  0
  6  7  1  0
  7  8  2  0
  8  9  1  0
  9 10  2  0
 10 11  1  0
 11 12  2  0
 12 13  1  0
 13 14  1  0
 14 15  1  0
 15 16  1  0
 16 17  1  0
 17 18  2  0
 17 19  1  0
 19 20  1  0
 20 21  1  0
 20 22  1  0
 20 23  1  0
 16 24  1  0
 24 25  1  0
 25 26  1  0
 26 27  2  0
 26 28  1  0
 28 29  1  0
 13 30  1  1
 30 31  1  0
 31 32  2  0
 31 33  1  0
 33 34  1  0
 34 35  1  0
 35 36  1  0
 35 37  1  0
 33 38  1  0
 38 39  1  0
 39 40  1  0
 40 41  1  0
 41 42  2  0
 42 43  1  0
 43 44  2  0
 44 45  1  0
 38 46  1  0
 46 47  2  0
 46 48  1  0
 48 49  1  0
 30  5  1  0
 45 41  1  0
 12  7  1  0
 24 13  1  0
  1 50  1  0
  1 51  1  0
  1 52  1  0
  2 53  1  0
  5 54  1  6
  6 55  1  0
  6 56  1  0
  8 57  1  0
  9 58  1  0
 10 59  1  0
 11 60  1  0
 14 61  1  0
 14 62  1  0
 15 63  1  0
 15 64  1  0
 21 65  1  0
 21 66  1  0
 21 67  1  0
 22 68  1  0
 22 69  1  0
 22 70  1  0
 23 71  1  0
 23 72  1  0
 23 73  1  0
 24 74  1  1
 25 75  1  0
 25 76  1  0
 29 77  1  0
 29 78  1  0
 29 79  1  0
 33 80  1  6
 34 81  1  0
 34 82  1  0
 35 83  1  0
 36 84  1  0
 36 85  1  0
 36 86  1  0
 37 87  1  0
 37 88  1  0
 37 89  1  0
 38 90  1  6
 39 91  1  0
 39 92  1  0
 42 93  1  0
 43 94  1  0
 44 95  1  0
 48 96  1  0
 49 97  1  0
M  END
>  <Binding energies>  (1) 
[-7.57]

>  <Ligand effiencies>  (1) 
[-0.14557692307692308]

>  <Interactions>  (1) 
["V-A:ILE:369:CG2:3237, V-B:PRO:540:CA:9855, H-A:GLU:543:OE2:4910, V-A:ILE:538:CB:4862, V-B:ALA:541:CB:9864, H-A:TYR:531:OH:4795, V-B:TYR:539:CE2:9848, V-A:TYR:484:CE2:4346, V-B:GLU:543:CG:9879, V-A:ASP:366:CG:3213, V-A:ILE:538:CG2:4863, V-A:TYR:539:CD1:4873, V-B:TYR:539:CZ:9849, V-A:ILE:538:CA:4860, V-A:TYR:539:CZ:4877, V-A:GLU:543:CD:4908, H-A:GLY:454:N:4050, V-B:TYR:539:CD2:9846, V-A:GLU:543:CG:4907, V-A:SER:385:CB:3409, V-B:GLU:543:CD:9880, V-A:MET:535:CE:4835, V-A:TYR:539:C:4867, H-B:TYR:531:OH:9767, V-A:ASP:366:CB:3212, V-A:LEU:475:CD2:4259, V-A:ARG:545:CZ:4926, H-A:GLU:543:OE1:4909, H-B:ARG:545:NH2:9900, V-A:PRO:540:N:4884, V-A:PRO:540:CA:4883, H-A:ARG:545:NE:4924, V-B:ALA:541:CA:9862, V-A:TYR:539:CE1:4875, H-A:TYR:484:OH:4348"]

$$$$
ZINC963939451
     RDKit          3D

 80 84  0  0  0  0  0  0  0  0999 V2000
  129.5980  121.4660   61.0340 C   0  0  0  0  0  0  0  0  0  0  0  0
  128.9990  122.7950   61.0010 N   0  0  0  0  0  0  0  0  0  0  0  0
  128.1010  123.2510   61.8920 C   0  0  0  0  0  0  0  0  0  0  0  0
  127.6970  122.5840   62.8470 O   0  0  0  0  0  0  0  0  0  0  0  0
  127.5710  124.6990   61.6450 C   0  0  2  0  0  0  0  0  0  0  0  0
  126.4220  124.5830   60.6060 C   0  0  0  0  0  0  0  0  0  0  0  0
  127.0020  124.2680   59.2440 C   0  0  0  0  0  0  0  0  0  0  0  0
  126.5220  123.2140   58.4590 C   0  0  0  0  0  0  0  0  0  0  0  0
  127.1290  122.9000   57.2500 C   0  0  0  0  0  0  0  0  0  0  0  0
  128.2290  123.6330   56.8260 C   0  0  0  0  0  0  0  0  0  0  0  0
  128.7070  124.6850   57.6040 C   0  0  0  0  0  0  0  0  0  0  0  0
  128.0990  125.0450   58.8260 C   0  0  0  0  0  0  0  0  0  0  0  0
  128.5550  126.2310   59.7530 C   0  0  1  0  0  0  0  0  0  0  0  0
  129.8690  126.8360   59.1450 C   0  0  0  0  0  0  0  0  0  0  0  0
  127.5510  127.4290   59.6820 C   0  0  0  0  0  0  0  0  0  0  0  0
  127.2930  128.0930   58.4630 C   0  0  0  0  0  0  0  0  0  0  0  0
  126.4010  129.1530   58.3340 C   0  0  0  0  0  0  0  0  0  0  0  0
  125.7090  129.6480   59.4320 C   0  0  0  0  0  0  0  0  0  0  0  0
  125.9490  129.0650   60.6800 C   0  0  0  0  0  0  0  0  0  0  0  0
  125.4830  129.2850   62.0090 C   0  0  0  0  0  0  0  0  0  0  0  0
  126.0450  128.4630   62.8530 N   0  0  0  0  0  0  0  0  0  0  0  0
  126.8750  127.6870   62.1370 N   0  0  0  0  0  0  0  0  0  0  0  0
  126.8610  127.9800   60.7860 C   0  0  0  0  0  0  0  0  0  0  0  0
  128.6570  125.6440   61.1720 N   0  0  0  0  0  0  0  0  0  0  0  0
  129.6210  126.0350   62.0870 C   0  0  0  0  0  0  0  0  0  0  0  0
  129.4860  127.0100   62.8240 O   0  0  0  0  0  0  0  0  0  0  0  0
  130.9780  125.2720   62.2850 C   0  0  2  0  0  0  0  0  0  0  0  0
  131.3900  124.4820   61.0020 C   0  0  0  0  0  0  0  0  0  0  0  0
  132.7960  124.8160   60.4340 C   0  0  0  0  0  0  0  0  0  0  0  0
  132.8210  124.6870   58.9000 C   0  0  0  0  0  0  0  0  0  0  0  0
  133.9120  123.9630   61.0690 C   0  0  0  0  0  0  0  0  0  0  0  0
  130.9800  124.4100   63.6030 C   0  0  2  0  0  0  0  0  0  0  0  0
  129.8280  124.8240   64.5620 C   0  0  0  0  0  0  0  0  0  0  0  0
  130.1310  124.5870   66.3470 S   0  0  0  0  0  0  0  0  0  0  0  0
  129.4750  126.1000   66.9650 C   0  0  0  0  0  0  0  0  0  0  0  0
  129.4820  126.5090   68.2950 C   0  0  0  0  0  0  0  0  0  0  0  0
  128.9190  127.7720   68.4940 C   0  0  0  0  0  0  0  0  0  0  0  0
  128.4750  128.3450   67.3140 C   0  0  0  0  0  0  0  0  0  0  0  0
  128.7360  127.3050   65.9410 S   0  0  0  0  0  0  0  0  0  0  0  0
  132.3490  124.3480   64.3300 C   0  0  0  0  0  0  0  0  0  0  0  0
  133.0420  123.3290   64.2480 O   0  0  0  0  0  0  0  0  0  0  0  0
  132.7100  125.4410   65.0230 N   0  0  0  0  0  0  0  0  0  0  0  0
  133.8480  125.3520   65.8300 O   0  0  0  0  0  0  0  0  0  0  0  0
  129.7390  121.1532   62.0791 H   0  0  0  0  0  0  0  0  0  0  0  0
  128.9346  120.7520   60.5239 H   0  0  0  0  0  0  0  0  0  0  0  0
  130.5723  121.4902   60.5239 H   0  0  0  0  0  0  0  0  0  0  0  0
  129.2970  123.4050   60.2550 H   0  0  0  0  0  0  0  0  0  0  0  0
  127.2082  125.1328   62.5885 H   0  0  0  0  0  0  0  0  0  0  0  0
  125.7355  123.7780   60.9071 H   0  0  0  0  0  0  0  0  0  0  0  0
  125.8732  125.5351   60.5591 H   0  0  0  0  0  0  0  0  0  0  0  0
  125.6562  122.6289   58.8025 H   0  0  0  0  0  0  0  0  0  0  0  0
  126.7409  122.0763   56.6328 H   0  0  0  0  0  0  0  0  0  0  0  0
  128.7232  123.3831   55.8756 H   0  0  0  0  0  0  0  0  0  0  0  0
  129.5834  125.2514   57.2561 H   0  0  0  0  0  0  0  0  0  0  0  0
  130.5410  127.1454   59.9590 H   0  0  0  0  0  0  0  0  0  0  0  0
  130.3692  126.0775   58.5249 H   0  0  0  0  0  0  0  0  0  0  0  0
  129.6179  127.7092   58.5249 H   0  0  0  0  0  0  0  0  0  0  0  0
  127.8277  127.7529   57.5639 H   0  0  0  0  0  0  0  0  0  0  0  0
  126.2410  129.6071   57.3450 H   0  0  0  0  0  0  0  0  0  0  0  0
  124.9924  130.4754   59.3228 H   0  0  0  0  0  0  0  0  0  0  0  0
  124.7437  130.0503   62.2879 H   0  0  0  0  0  0  0  0  0  0  0  0
  127.4230  126.9730   62.5980 H   0  0  0  0  0  0  0  0  0  0  0  0
  131.7703  126.0210   62.4312 H   0  0  0  0  0  0  0  0  0  0  0  0
  131.3680  123.4090   61.2431 H   0  0  0  0  0  0  0  0  0  0  0  0
  130.6717  124.7762   60.2225 H   0  0  0  0  0  0  0  0  0  0  0  0
  132.9991  125.8632   60.7026 H   0  0  0  0  0  0  0  0  0  0  0  0
  133.0235  123.6418   58.6232 H   0  0  0  0  0  0  0  0  0  0  0  0
  131.8469  124.9926   58.4904 H   0  0  0  0  0  0  0  0  0  0  0  0
  133.6104  125.3344   58.4904 H   0  0  0  0  0  0  0  0  0  0  0  0
  133.8380  124.0195   62.1651 H   0  0  0  0  0  0  0  0  0  0  0  0
  133.8018  122.9168   60.7475 H   0  0  0  0  0  0  0  0  0  0  0  0
  134.8926  124.3440   60.7475 H   0  0  0  0  0  0  0  0  0  0  0  0
  130.7927  123.3780   63.2716 H   0  0  0  0  0  0  0  0  0  0  0  0
  129.6226  125.8919   64.3965 H   0  0  0  0  0  0  0  0  0  0  0  0
  128.9899  124.1549   64.3171 H   0  0  0  0  0  0  0  0  0  0  0  0
  129.8917  125.8964   69.1117 H   0  0  0  0  0  0  0  0  0  0  0  0
  128.8375  128.2571   69.4779 H   0  0  0  0  0  0  0  0  0  0  0  0
  128.0116  129.3406   67.2510 H   0  0  0  0  0  0  0  0  0  0  0  0
  132.0890  126.1870   65.3050 H   0  0  0  0  0  0  0  0  0  0  0  0
  133.9140  124.4100   66.0080 H   0  0  0  0  0  0  0  0  0  0  0  0
  1  2  1  0
  2  3  1  0
  3  4  2  0
  3  5  1  0
  5  6  1  0
  6  7  1  0
  7  8  2  0
  8  9  1  0
  9 10  2  0
 10 11  1  0
 11 12  2  0
 12 13  1  0
 13 14  1  6
 13 15  1  0
 15 16  2  0
 16 17  1  0
 17 18  2  0
 18 19  1  0
 19 20  1  0
 20 21  2  0
 21 22  1  0
 22 23  1  0
 13 24  1  0
 24 25  1  0
 25 26  2  0
 25 27  1  0
 27 28  1  0
 28 29  1  0
 29 30  1  0
 29 31  1  0
 27 32  1  0
 32 33  1  0
 33 34  1  0
 34 35  1  0
 35 36  2  0
 36 37  1  0
 37 38  2  0
 38 39  1  0
 32 40  1  0
 40 41  2  0
 40 42  1  0
 42 43  1  0
 24  5  1  0
 39 35  1  0
 12  7  1  0
 23 15  1  0
 23 19  2  0
  1 44  1  0
  1 45  1  0
  1 46  1  0
  2 47  1  0
  5 48  1  1
  6 49  1  0
  6 50  1  0
  8 51  1  0
  9 52  1  0
 10 53  1  0
 11 54  1  0
 14 55  1  0
 14 56  1  0
 14 57  1  0
 16 58  1  0
 17 59  1  0
 18 60  1  0
 20 61  1  0
 22 62  1  0
 27 63  1  1
 28 64  1  0
 28 65  1  0
 29 66  1  0
 30 67  1  0
 30 68  1  0
 30 69  1  0
 31 70  1  0
 31 71  1  0
 31 72  1  0
 32 73  1  6
 33 74  1  0
 33 75  1  0
 36 76  1  0
 37 77  1  0
 38 78  1  0
 42 79  1  0
 43 80  1  0
M  END
>  <Binding energies>  (1) 
[-8.87]

>  <Ligand effiencies>  (1) 
[-0.18872340425531914]

>  <Interactions>  (1) 
["V-A:ASP:366:CA:3210, V-B:PRO:540:CA:9855, H-A:GLU:543:OE2:4910, V-B:GLU:543:CB:9878, V-B:ASP:366:CG:8184, V-B:TYR:539:CE2:9848, V-B:GLU:543:CG:9879, V-B:TYR:539:C:9839, V-A:ASP:366:CG:3213, V-B:TYR:539:CZ:9849, H-B:GLU:543:OE1:9881, H-B:ALA:541:N:9863, V-B:ASP:366:CB:8183, V-B:PRO:540:CB:9857, V-A:GLU:543:CD:4908, V-B:HIS:456:CE1:9041, H-A:GLY:454:N:4050, V-B:PRO:540:N:9856, V-A:ILE:369:CD1:3239, V-A:HIS:456:CE1:4070, V-B:TYR:539:CD2:9846, V-A:GLU:543:CG:4907, V-B:GLU:543:CD:9880, V-A:ASP:366:CB:3212, H-A:ARG:545:NH2:4928, V-A:ARG:545:CZ:4926, H-A:GLU:543:OE1:4909, H-B:ARG:545:NH2:9900, V-A:GLU:543:CB:4906, V-B:TYR:539:CD1:9845, H-B:GLU:543:OE2:9882, H-A:ARG:545:NE:4924, V-B:TYR:539:CE1:9847, H-A:TYR:484:OH:4348"]

$$$$
ZINC963939600
     RDKit          3D

 84 88  0  0  0  0  0  0  0  0999 V2000
  127.1740  124.8750   57.6920 C   0  0  0  0  0  0  0  0  0  0  0  0
  128.1720  125.8680   58.0740 N   0  0  0  0  0  0  0  0  0  0  0  0
  129.4150  125.9630   57.5670 C   0  0  0  0  0  0  0  0  0  0  0  0
  129.8370  125.2110   56.6860 O   0  0  0  0  0  0  0  0  0  0  0  0
  130.3140  127.0990   58.1360 C   0  0  2  0  0  0  0  0  0  0  0  0
  131.8300  126.8640   58.0040 C   0  0  0  0  0  0  0  0  0  0  0  0
  132.2380  125.6510   58.8030 C   0  0  0  0  0  0  0  0  0  0  0  0
  133.1820  124.7500   58.2950 C   0  0  0  0  0  0  0  0  0  0  0  0
  133.5460  123.6170   59.0110 C   0  0  0  0  0  0  0  0  0  0  0  0
  132.9630  123.3760   60.2460 C   0  0  0  0  0  0  0  0  0  0  0  0
  132.0200  124.2670   60.7500 C   0  0  0  0  0  0  0  0  0  0  0  0
  131.6220  125.4230   60.0510 C   0  0  0  0  0  0  0  0  0  0  0  0
  130.5640  126.4240   60.6470 C   0  0  0  0  0  0  0  0  0  0  0  0
  131.3390  127.1910   61.7720 C   0  0  0  0  0  0  0  0  0  0  0  0
  131.2920  126.5930   63.1900 C   0  0  0  0  0  0  0  0  0  0  0  0
  129.9180  126.2910   63.6230 N   0  0  0  0  0  0  0  0  0  0  0  0
  129.5010  126.4480   64.9500 C   0  0  0  0  0  0  0  0  0  0  0  0
  129.9630  125.5550   65.8740 N   0  0  0  0  0  0  0  0  0  0  0  0
  129.6150  125.7610   67.1710 C   0  0  0  0  0  0  0  0  0  0  0  0
  128.8320  126.8450   67.5660 C   0  0  0  0  0  0  0  0  0  0  0  0
  128.3600  127.1180   69.3890 Br  0  0  0  0  0  0  0  0  0  0  0  0
  128.4140  127.7230   66.5660 C   0  0  0  0  0  0  0  0  0  0  0  0
  128.7460  127.5430   65.2610 N   0  0  0  0  0  0  0  0  0  0  0  0
  129.4190  125.2180   62.7490 C   0  0  0  0  0  0  0  0  0  0  0  0
  129.3620  125.6110   61.2530 C   0  0  0  0  0  0  0  0  0  0  0  0
  130.0240  127.3800   59.5800 N   0  0  0  0  0  0  0  0  0  0  0  0
  129.3420  128.5640   59.8170 C   0  0  0  0  0  0  0  0  0  0  0  0
  128.1190  128.5920   59.9870 O   0  0  0  0  0  0  0  0  0  0  0  0
  130.0630  129.9230   60.1020 C   0  0  2  0  0  0  0  0  0  0  0  0
  131.4570  129.8950   59.3860 C   0  0  0  0  0  0  0  0  0  0  0  0
  131.9260  131.2070   58.7050 C   0  0  0  0  0  0  0  0  0  0  0  0
  131.6800  131.2210   57.1840 C   0  0  0  0  0  0  0  0  0  0  0  0
  133.4070  131.4870   59.0160 C   0  0  0  0  0  0  0  0  0  0  0  0
  130.1830  130.3340   61.6300 C   0  0  2  0  0  0  0  0  0  0  0  0
  128.8450  130.6960   62.3420 C   0  0  0  0  0  0  0  0  0  0  0  0
  128.2630  132.4100   62.1240 S   0  0  0  0  0  0  0  0  0  0  0  0
  128.2310  132.3940   60.3690 C   0  0  0  0  0  0  0  0  0  0  0  0
  129.1020  133.0560   59.5120 C   0  0  0  0  0  0  0  0  0  0  0  0
  128.8100  132.8440   58.1610 C   0  0  0  0  0  0  0  0  0  0  0  0
  127.7120  132.0180   57.9780 C   0  0  0  0  0  0  0  0  0  0  0  0
  127.0310  131.4970   59.4860 S   0  0  0  0  0  0  0  0  0  0  0  0
  131.2680  131.4030   61.9140 C   0  0  0  0  0  0  0  0  0  0  0  0
  130.9540  132.5930   61.9970 O   0  0  0  0  0  0  0  0  0  0  0  0
  132.5310  130.9540   62.0460 N   0  0  0  0  0  0  0  0  0  0  0  0
  133.5430  131.8820   62.3080 O   0  0  0  0  0  0  0  0  0  0  0  0
  126.7306  124.4339   58.5969 H   0  0  0  0  0  0  0  0  0  0  0  0
  126.3859  125.3579   57.0955 H   0  0  0  0  0  0  0  0  0  0  0  0
  127.6529  124.0845   57.0955 H   0  0  0  0  0  0  0  0  0  0  0  0
  127.8920  126.5330   58.7800 H   0  0  0  0  0  0  0  0  0  0  0  0
  130.0498  127.9589   57.5029 H   0  0  0  0  0  0  0  0  0  0  0  0
  132.0826  126.7042   56.9454 H   0  0  0  0  0  0  0  0  0  0  0  0
  132.3657  127.7448   58.3877 H   0  0  0  0  0  0  0  0  0  0  0  0
  133.6420  124.9424   57.3145 H   0  0  0  0  0  0  0  0  0  0  0  0
  134.2899  122.9173   58.6023 H   0  0  0  0  0  0  0  0  0  0  0  0
  133.2447  122.4842   60.8250 H   0  0  0  0  0  0  0  0  0  0  0  0
  131.5684  124.0604   61.7315 H   0  0  0  0  0  0  0  0  0  0  0  0
  132.3953  127.2437   61.4696 H   0  0  0  0  0  0  0  0  0  0  0  0
  130.8298  128.1624   61.8562 H   0  0  0  0  0  0  0  0  0  0  0  0
  131.8791  125.6629   63.2014 H   0  0  0  0  0  0  0  0  0  0  0  0
  131.7076  127.3386   63.8839 H   0  0  0  0  0  0  0  0  0  0  0  0
  129.9623  125.0493   67.9345 H   0  0  0  0  0  0  0  0  0  0  0  0
  127.7954  128.5894   66.8431 H   0  0  0  0  0  0  0  0  0  0  0  0
  130.0827  124.3472   62.8544 H   0  0  0  0  0  0  0  0  0  0  0  0
  128.3879  124.9999   63.0639 H   0  0  0  0  0  0  0  0  0  0  0  0
  129.2754  124.6791   60.6750 H   0  0  0  0  0  0  0  0  0  0  0  0
  128.5081  126.3013   61.1871 H   0  0  0  0  0  0  0  0  0  0  0  0
  129.4238  130.7185   59.6913 H   0  0  0  0  0  0  0  0  0  0  0  0
  132.2114  129.6243   60.1393 H   0  0  0  0  0  0  0  0  0  0  0  0
  131.3414  129.1727   58.5645 H   0  0  0  0  0  0  0  0  0  0  0  0
  131.3104  132.0131   59.1307 H   0  0  0  0  0  0  0  0  0  0  0  0
  130.5994  131.2825   56.9879 H   0  0  0  0  0  0  0  0  0  0  0  0
  132.1835  132.0919   56.7391 H   0  0  0  0  0  0  0  0  0  0  0  0
  132.0815  130.2986   56.7391 H   0  0  0  0  0  0  0  0  0  0  0  0
  133.5539  131.5148   60.1058 H   0  0  0  0  0  0  0  0  0  0  0  0
  134.0297  130.6907   58.5822 H   0  0  0  0  0  0  0  0  0  0  0  0
  133.6960  132.4557   58.5822 H   0  0  0  0  0  0  0  0  0  0  0  0
  130.5156  129.3912   62.0887 H   0  0  0  0  0  0  0  0  0  0  0  0
  128.0650  130.0238   61.9550 H   0  0  0  0  0  0  0  0  0  0  0  0
  129.0417  130.5839   63.4184 H   0  0  0  0  0  0  0  0  0  0  0  0
  129.9360  133.6828   59.8608 H   0  0  0  0  0  0  0  0  0  0  0  0
  129.3878  133.2841   57.3348 H   0  0  0  0  0  0  0  0  0  0  0  0
  127.3188  131.7272   56.9927 H   0  0  0  0  0  0  0  0  0  0  0  0
  132.8630  130.0000   62.0240 H   0  0  0  0  0  0  0  0  0  0  0  0
  133.0790  132.5900   62.7610 H   0  0  0  0  0  0  0  0  0  0  0  0
  1  2  1  0
  2  3  1  0
  3  4  2  0
  3  5  1  0
  5  6  1  0
  6  7  1  0
  7  8  2  0
  8  9  1  0
  9 10  2  0
 10 11  1  0
 11 12  2  0
 12 13  1  0
 13 14  1  0
 14 15  1  0
 15 16  1  0
 16 17  1  0
 17 18  2  0
 18 19  1  0
 19 20  2  0
 20 21  1  0
 20 22  1  0
 22 23  2  0
 16 24  1  0
 24 25  1  0
 13 26  1  0
 26 27  1  0
 27 28  2  0
 27 29  1  0
 29 30  1  0
 30 31  1  0
 31 32  1  0
 31 33  1  0
 29 34  1  0
 34 35  1  0
 35 36  1  0
 36 37  1  0
 37 38  2  0
 38 39  1  0
 39 40  2  0
 40 41  1  0
 34 42  1  0
 42 43  2  0
 42 44  1  0
 44 45  1  0
 26  5  1  0
 41 37  1  0
 12  7  1  0
 25 13  1  0
 23 17  1  0
  1 46  1  0
  1 47  1  0
  1 48  1  0
  2 49  1  0
  5 50  1  6
  6 51  1  0
  6 52  1  0
  8 53  1  0
  9 54  1  0
 10 55  1  0
 11 56  1  0
 14 57  1  0
 14 58  1  0
 15 59  1  0
 15 60  1  0
 19 61  1  0
 22 62  1  0
 24 63  1  0
 24 64  1  0
 25 65  1  0
 25 66  1  0
 29 67  1  6
 30 68  1  0
 30 69  1  0
 31 70  1  0
 32 71  1  0
 32 72  1  0
 32 73  1  0
 33 74  1  0
 33 75  1  0
 33 76  1  0
 34 77  1  1
 35 78  1  0
 35 79  1  0
 38 80  1  0
 39 81  1  0
 40 82  1  0
 44 83  1  0
 45 84  1  0
M  END
>  <Binding energies>  (1) 
[-9.44]

>  <Ligand effiencies>  (1) 
[-0.19666666666666666]

>  <Interactions>  (1) 
["V-A:ILE:369:CG2:3237, V-A:ASP:366:CA:3210, V-B:GLU:543:C:9874, V-A:ILE:369:CB:3236, H-A:ALA:541:N:4891, V-B:GLU:543:CB:9878, H-A:ALA:541:O:4889, V-B:TYR:539:CE2:9848, V-B:GLU:543:CG:9879, V-A:ASP:366:CG:3213, V-A:ASN:362:CB:3176, V-A:LEU:363:CD1:3189, V-A:LEU:363:CB:3187, V-A:TYR:539:CD1:4873, V-B:TYR:539:CZ:9849, H-B:TYR:539:OH:9850, V-A:GLU:543:CD:4908, V-B:HIS:456:CE1:9041, V-A:HIS:456:CE1:4070, V-A:ASP:366:C:3208, V-A:TYR:531:CZ:4794, V-B:GLU:543:CD:9880, V-A:TYR:539:C:4867, V-A:ASP:366:CB:3212, V-A:ARG:545:CZ:4926, H-A:GLU:543:OE1:4909, V-A:PRO:540:N:4884, V-A:PRO:540:CB:4885, V-A:LEU:363:CA:3185, V-A:PRO:540:CA:4883, H-A:ASP:366:OD2:3215, V-A:TYR:539:CE1:4875"]

$$$$
ZINC963946703
     RDKit          3D

120126  0  0  0  0  0  0  0  0999 V2000
  126.1700  125.1370   56.5270 C   0  0  0  0  0  0  0  0  0  0  0  0
  126.1170  125.8150   57.8170 N   0  0  0  0  0  0  0  0  0  0  0  0
  126.6530  127.0190   58.0810 C   0  0  0  0  0  0  0  0  0  0  0  0
  127.2470  127.6930   57.2370 O   0  0  0  0  0  0  0  0  0  0  0  0
  126.5050  127.5180   59.5490 C   0  0  2  0  0  0  0  0  0  0  0  0
  125.8100  128.9050   59.5620 C   0  0  0  0  0  0  0  0  0  0  0  0
  126.7000  129.9360   58.9070 C   0  0  0  0  0  0  0  0  0  0  0  0
  126.2040  130.8110   57.9350 C   0  0  0  0  0  0  0  0  0  0  0  0
  127.0560  131.6690   57.2500 C   0  0  0  0  0  0  0  0  0  0  0  0
  128.4160  131.6370   57.5220 C   0  0  0  0  0  0  0  0  0  0  0  0
  128.9100  130.7700   58.4930 C   0  0  0  0  0  0  0  0  0  0  0  0
  128.0680  129.9200   59.2420 C   0  0  0  0  0  0  0  0  0  0  0  0
  128.5570  128.9520   60.3780 C   0  0  1  0  0  0  0  0  0  0  0  0
  130.1110  128.7780   60.2490 C   0  0  0  0  0  0  0  0  0  0  0  0
  128.2270  129.5970   61.7620 C   0  0  0  0  0  0  0  0  0  0  0  0
  128.0590  130.9180   62.0460 C   0  0  0  0  0  0  0  0  0  0  0  0
  127.8440  131.2030   63.5170 C   0  0  0  0  0  0  0  0  0  0  0  0
  128.3610  129.9050   64.0970 C   0  0  1  0  0  0  0  0  0  0  0  0
  128.0700  129.5400   65.5780 C   0  0  2  0  0  0  0  0  0  0  0  0
  128.4660  130.6840   66.5440 C   0  0  0  0  0  0  0  0  0  0  0  0
  128.2750  130.2820   68.0160 C   0  0  0  0  0  0  0  0  0  0  0  0
  129.0580  128.9860   68.3460 C   0  0  1  0  0  0  0  0  0  0  0  0
  129.0100  128.6340   69.8540 C   0  0  0  0  0  0  0  0  0  0  0  0
  129.9320  127.4310   70.1550 C   0  0  1  0  0  0  0  0  0  0  0  0
  129.9460  127.0850   71.5390 O   0  0  0  0  0  0  0  0  0  0  0  0
  128.9290  126.4030   72.1120 C   0  0  0  0  0  0  0  0  0  0  0  0
  127.6190  127.1800   72.0760 C   0  0  0  0  0  0  0  0  0  0  0  0
  128.9940  125.2810   72.6170 O   0  0  0  0  0  0  0  0  0  0  0  0
  129.5000  126.2090   69.3200 C   0  0  0  0  0  0  0  0  0  0  0  0
  129.4880  126.5580   67.8130 C   0  0  0  0  0  0  0  0  0  0  0  0
  128.5860  127.7820   67.4450 C   0  0  1  0  0  0  0  0  0  0  0  0
  127.0870  127.4150   67.6820 C   0  0  0  0  0  0  0  0  0  0  0  0
  128.8450  128.2280   65.9520 C   0  0  1  0  0  0  0  0  0  0  0  0
  128.6360  127.1040   64.8870 C   0  0  0  0  0  0  0  0  0  0  0  0
  128.8460  127.5890   63.4290 C   0  0  0  0  0  0  0  0  0  0  0  0
  127.9630  128.8200   63.0790 C   0  0  2  0  0  0  0  0  0  0  0  0
  126.4470  128.4510   63.1470 C   0  0  0  0  0  0  0  0  0  0  0  0
  127.8390  127.6060   60.2340 N   0  0  0  0  0  0  0  0  0  0  0  0
  128.2470  126.5020   60.9570 C   0  0  0  0  0  0  0  0  0  0  0  0
  127.5890  126.0540   61.8980 O   0  0  0  0  0  0  0  0  0  0  0  0
  129.5570  125.7140   60.6220 C   0  0  2  0  0  0  0  0  0  0  0  0
  129.5900  125.3770   59.0980 C   0  0  0  0  0  0  0  0  0  0  0  0
  130.2940  126.3980   58.1660 C   0  0  0  0  0  0  0  0  0  0  0  0
  129.8320  126.3000   56.6980 C   0  0  0  0  0  0  0  0  0  0  0  0
  131.8240  126.2670   58.2660 C   0  0  0  0  0  0  0  0  0  0  0  0
  129.8070  124.4760   61.5610 C   0  0  2  0  0  0  0  0  0  0  0  0
  131.1760  123.7600   61.3670 C   0  0  0  0  0  0  0  0  0  0  0  0
  131.5970  122.4510   62.5640 S   0  0  0  0  0  0  0  0  0  0  0  0
  131.0750  123.2950   64.0140 C   0  0  0  0  0  0  0  0  0  0  0  0
  131.6400  124.4390   64.5670 C   0  0  0  0  0  0  0  0  0  0  0  0
  130.9890  124.8680   65.7280 C   0  0  0  0  0  0  0  0  0  0  0  0
  129.9300  124.0450   66.0790 C   0  0  0  0  0  0  0  0  0  0  0  0
  129.7370  122.7270   64.9680 S   0  0  0  0  0  0  0  0  0  0  0  0
  128.6200  123.4770   61.5560 C   0  0  0  0  0  0  0  0  0  0  0  0
  128.6220  122.5210   60.7770 O   0  0  0  0  0  0  0  0  0  0  0  0
  127.6210  123.7340   62.4210 N   0  0  0  0  0  0  0  0  0  0  0  0
  126.5310  122.8580   62.4560 O   0  0  0  0  0  0  0  0  0  0  0  0
  126.2548  124.0519   56.6863 H   0  0  0  0  0  0  0  0  0  0  0  0
  125.2522  125.3538   55.9608 H   0  0  0  0  0  0  0  0  0  0  0  0
  127.0430  125.4938   55.9608 H   0  0  0  0  0  0  0  0  0  0  0  0
  125.6390  125.3250   58.5600 H   0  0  0  0  0  0  0  0  0  0  0  0
  125.8895  126.7908   60.0989 H   0  0  0  0  0  0  0  0  0  0  0  0
  124.8599  128.8414   59.0112 H   0  0  0  0  0  0  0  0  0  0  0  0
  125.6186  129.2029   60.6035 H   0  0  0  0  0  0  0  0  0  0  0  0
  125.1272  130.8201   57.7102 H   0  0  0  0  0  0  0  0  0  0  0  0
  126.6560  132.3667   56.4995 H   0  0  0  0  0  0  0  0  0  0  0  0
  129.1033  132.2959   56.9711 H   0  0  0  0  0  0  0  0  0  0  0  0
  129.9932  130.7466   58.6829 H   0  0  0  0  0  0  0  0  0  0  0  0
  130.5589  128.7279   61.2524 H   0  0  0  0  0  0  0  0  0  0  0  0
  130.3318  127.8495   59.7021 H   0  0  0  0  0  0  0  0  0  0  0  0
  130.5317  129.6346   59.7021 H   0  0  0  0  0  0  0  0  0  0  0  0
  128.0778  131.7051   61.2778 H   0  0  0  0  0  0  0  0  0  0  0  0
  128.4313  132.0683   63.8581 H   0  0  0  0  0  0  0  0  0  0  0  0
  126.8137  131.4659   63.7988 H   0  0  0  0  0  0  0  0  0  0  0  0
  129.4481  130.0175   64.2221 H   0  0  0  0  0  0  0  0  0  0  0  0
  126.9867  129.3810   65.6840 H   0  0  0  0  0  0  0  0  0  0  0  0
  129.5233  130.9390   66.3791 H   0  0  0  0  0  0  0  0  0  0  0  0
  127.8140  131.5457   66.3381 H   0  0  0  0  0  0  0  0  0  0  0  0
  128.6387  131.0956   68.6608 H   0  0  0  0  0  0  0  0  0  0  0  0
  127.2048  130.0983   68.1922 H   0  0  0  0  0  0  0  0  0  0  0  0
  130.1139  129.1816   68.1075 H   0  0  0  0  0  0  0  0  0  0  0  0
  129.3445  129.5028   70.4400 H   0  0  0  0  0  0  0  0  0  0  0  0
  127.9776  128.3697   70.1264 H   0  0  0  0  0  0  0  0  0  0  0  0
  130.9532  127.7332   69.8797 H   0  0  0  0  0  0  0  0  0  0  0  0
  127.2826  127.3795   73.1041 H   0  0  0  0  0  0  0  0  0  0  0  0
  127.7724  128.1332   71.5489 H   0  0  0  0  0  0  0  0  0  0  0  0
  126.8561  126.5883   71.5489 H   0  0  0  0  0  0  0  0  0  0  0  0
  130.2059  125.3837   69.4946 H   0  0  0  0  0  0  0  0  0  0  0  0
  128.4855  125.9117   69.6239 H   0  0  0  0  0  0  0  0  0  0  0  0
  130.5190  126.7838   67.5030 H   0  0  0  0  0  0  0  0  0  0  0  0
  129.0667  125.6866   67.2903 H   0  0  0  0  0  0  0  0  0  0  0  0
  126.8879  127.3663   68.7627 H   0  0  0  0  0  0  0  0  0  0  0  0
  126.4449  128.1825   67.2251 H   0  0  0  0  0  0  0  0  0  0  0  0
  126.8721  126.4377   67.2251 H   0  0  0  0  0  0  0  0  0  0  0  0
  129.9212  128.4530   65.9177 H   0  0  0  0  0  0  0  0  0  0  0  0
  129.3510  126.2933   65.0910 H   0  0  0  0  0  0  0  0  0  0  0  0
  127.5917  126.7687   64.9700 H   0  0  0  0  0  0  0  0  0  0  0  0
  129.9029  127.8639   63.2973 H   0  0  0  0  0  0  0  0  0  0  0  0
  128.5557  126.7672   62.7579 H   0  0  0  0  0  0  0  0  0  0  0  0
  126.1350  128.3750   64.1991 H   0  0  0  0  0  0  0  0  0  0  0  0
  125.8567  129.2317   62.6449 H   0  0  0  0  0  0  0  0  0  0  0  0
  126.2815  127.4864   62.6449 H   0  0  0  0  0  0  0  0  0  0  0  0
  130.4159  126.3663   60.8383 H   0  0  0  0  0  0  0  0  0  0  0  0
  130.1054  124.4121   58.9826 H   0  0  0  0  0  0  0  0  0  0  0  0
  128.5364  125.3807   58.7817 H   0  0  0  0  0  0  0  0  0  0  0  0
  129.9961  127.3960   58.5200 H   0  0  0  0  0  0  0  0  0  0  0  0
  128.7564  126.0718   56.6666 H   0  0  0  0  0  0  0  0  0  0  0  0
  130.0187  127.2577   56.1901 H   0  0  0  0  0  0  0  0  0  0  0  0
  130.3914  125.5005   56.1901 H   0  0  0  0  0  0  0  0  0  0  0  0
  132.1214  126.2415   59.3247 H   0  0  0  0  0  0  0  0  0  0  0  0
  132.1455  125.3380   57.7724 H   0  0  0  0  0  0  0  0  0  0  0  0
  132.2988  127.1278   57.7724 H   0  0  0  0  0  0  0  0  0  0  0  0
  129.8691  124.9164   62.5671 H   0  0  0  0  0  0  0  0  0  0  0  0
  131.1751  123.3065   60.3648 H   0  0  0  0  0  0  0  0  0  0  0  0
  131.9338  124.5428   61.5186 H   0  0  0  0  0  0  0  0  0  0  0  0
  132.5106  124.9542   64.1351 H   0  0  0  0  0  0  0  0  0  0  0  0
  131.2846  125.7601   66.2997 H   0  0  0  0  0  0  0  0  0  0  0  0
  129.2885  124.2084   66.9575 H   0  0  0  0  0  0  0  0  0  0  0  0
  127.5600  124.4700   63.1090 H   0  0  0  0  0  0  0  0  0  0  0  0
  126.5990  122.3880   61.6220 H   0  0  0  0  0  0  0  0  0  0  0  0
  1  2  1  0
  2  3  1  0
  3  4  2  0
  3  5  1  0
  5  6  1  0
  6  7  1  0
  7  8  2  0
  8  9  1  0
  9 10  2  0
 10 11  1  0
 11 12  2  0
 12 13  1  0
 13 14  1  1
 13 15  1  0
 15 16  2  0
 16 17  1  0
 17 18  1  0
 18 19  1  0
 19 20  1  0
 20 21  1  0
 21 22  1  0
 22 23  1  0
 23 24  1  0
 24 25  1  0
 25 26  1  0
 26 27  1  0
 26 28  2  0
 24 29  1  0
 29 30  1  0
 30 31  1  0
 31 32  1  6
 31 33  1  0
 33 34  1  0
 34 35  1  0
 35 36  1  0
 36 37  1  1
 13 38  1  0
 38 39  1  0
 39 40  2  0
 39 41  1  0
 41 42  1  0
 42 43  1  0
 43 44  1  0
 43 45  1  0
 41 46  1  0
 46 47  1  0
 47 48  1  0
 48 49  1  0
 49 50  2  0
 50 51  1  0
 51 52  2  0
 52 53  1  0
 46 54  1  0
 54 55  2  0
 54 56  1  0
 56 57  1  0
 38  5  1  0
 53 49  1  0
 12  7  1  0
 36 15  1  0
 36 18  1  0
 33 19  1  0
 31 22  1  0
  1 58  1  0
  1 59  1  0
  1 60  1  0
  2 61  1  0
  5 62  1  1
  6 63  1  0
  6 64  1  0
  8 65  1  0
  9 66  1  0
 10 67  1  0
 11 68  1  0
 14 69  1  0
 14 70  1  0
 14 71  1  0
 16 72  1  0
 17 73  1  0
 17 74  1  0
 18 75  1  1
 19 76  1  6
 20 77  1  0
 20 78  1  0
 21 79  1  0
 21 80  1  0
 22 81  1  6
 23 82  1  0
 23 83  1  0
 24 84  1  6
 27 85  1  0
 27 86  1  0
 27 87  1  0
 29 88  1  0
 29 89  1  0
 30 90  1  0
 30 91  1  0
 32 92  1  0
 32 93  1  0
 32 94  1  0
 33 95  1  1
 34 96  1  0
 34 97  1  0
 35 98  1  0
 35 99  1  0
 37100  1  0
 37101  1  0
 37102  1  0
 41103  1  6
 42104  1  0
 42105  1  0
 43106  1  0
 44107  1  0
 44108  1  0
 44109  1  0
 45110  1  0
 45111  1  0
 45112  1  0
 46113  1  1
 47114  1  0
 47115  1  0
 50116  1  0
 51117  1  0
 52118  1  0
 56119  1  0
 57120  1  0
M  END
>  <Binding energies>  (1) 
[-7.75]

>  <Ligand effiencies>  (1) 
[-0.12916666666666668]

>  <Interactions>  (1) 
["V-A:GLU:543:CA:4904, V-B:GLU:543:C:9874, V-B:HIS:456:CD2:9039, V-A:GLU:543:C:4902, V-B:GLU:543:CB:9878, H-B:LYS:547:NZ:9923, V-B:ASP:366:CG:8184, V-B:ALA:541:CB:9864, V-A:TYR:484:CE2:4346, V-B:GLU:543:CG:9879, V-A:HIS:456:CD2:4068, V-A:ASP:366:CG:3213, V-A:TYR:539:CD1:4873, V-B:TYR:484:CE2:9317, H-B:GLU:543:OE1:9881, V-A:TYR:539:CZ:4877, V-B:TYR:531:CZ:9766, H-B:ALA:541:N:9863, V-B:TYR:531:CE2:9765, V-B:ASP:366:CB:8183, V-A:GLU:543:CD:4908, V-A:TYR:484:CZ:4347, H-B:ASP:366:OD1:8185, V-B:HIS:456:CE1:9041, V-B:GLU:543:CA:9876, V-B:TYR:484:CZ:9318, V-A:HIS:456:CE1:4070, V-B:GLY:544:C:9884, V-B:TYR:484:CD2:9315, V-A:GLU:543:CG:4907, V-B:GLU:543:CD:9880, H-B:TYR:531:OH:9767, V-A:ASP:366:CB:3212, V-A:LEU:475:CD2:4259, V-A:GLU:543:CB:4906, H-B:GLU:543:OE2:9882, V-B:MET:535:CE:9807, V-A:TYR:539:CE1:4875, V-B:TYR:484:CE1:9316"]

$$$$
ZINC963948300
     RDKit          3D

 79 82  0  0  0  0  0  0  0  0999 V2000
  133.2240  124.6890   63.5740 C   0  0  0  0  0  0  0  0  0  0  0  0
  131.8610  125.1680   63.3820 N   0  0  0  0  0  0  0  0  0  0  0  0
  131.4720  126.0710   62.4640 C   0  0  0  0  0  0  0  0  0  0  0  0
  132.2490  126.5830   61.6550 O   0  0  0  0  0  0  0  0  0  0  0  0
  129.9590  126.4310   62.4470 C   0  0  2  0  0  0  0  0  0  0  0  0
  129.0290  125.3550   63.0420 C   0  0  0  0  0  0  0  0  0  0  0  0
  129.0030  124.1060   62.1850 C   0  0  0  0  0  0  0  0  0  0  0  0
  128.8310  122.8510   62.7820 C   0  0  0  0  0  0  0  0  0  0  0  0
  128.8080  121.6890   62.0210 C   0  0  0  0  0  0  0  0  0  0  0  0
  128.9620  121.7720   60.6450 C   0  0  0  0  0  0  0  0  0  0  0  0
  129.1400  123.0140   60.0440 C   0  0  0  0  0  0  0  0  0  0  0  0
  129.1690  124.2120   60.7860 C   0  0  0  0  0  0  0  0  0  0  0  0
  129.3760  125.5940   60.0680 C   0  0  2  0  0  0  0  0  0  0  0  0
  128.1890  125.6900   59.0240 C   0  0  0  0  0  0  0  0  0  0  0  0
  128.2680  124.8270   57.7500 C   0  0  0  0  0  0  0  0  0  0  0  0
  127.2390  123.7110   57.6190 C   0  0  0  0  0  0  0  0  0  0  0  0
  129.1180  125.0000   56.8770 O   0  0  0  0  0  0  0  0  0  0  0  0
  130.7080  125.5820   59.2660 C   0  0  0  0  0  0  0  0  0  0  0  0
  131.1690  126.4580   58.2680 C   0  0  0  0  0  0  0  0  0  0  0  0
  132.4500  126.1970   57.7740 C   0  0  0  0  0  0  0  0  0  0  0  0
  133.0280  125.0930   58.3610 C   0  0  0  0  0  0  0  0  0  0  0  0
  131.9430  124.3540   59.4970 S   0  0  0  0  0  0  0  0  0  0  0  0
  129.4260  126.7340   61.0840 N   0  0  0  0  0  0  0  0  0  0  0  0
  129.1300  128.0380   60.7500 C   0  0  0  0  0  0  0  0  0  0  0  0
  128.4520  128.3220   59.7610 O   0  0  0  0  0  0  0  0  0  0  0  0
  129.6130  129.2450   61.6170 C   0  0  2  0  0  0  0  0  0  0  0  0
  128.4500  129.8910   62.4450 C   0  0  0  0  0  0  0  0  0  0  0  0
  127.6330  128.9470   63.3720 C   0  0  0  0  0  0  0  0  0  0  0  0
  126.1540  128.9060   62.9460 C   0  0  0  0  0  0  0  0  0  0  0  0
  127.7600  129.3120   64.8640 C   0  0  0  0  0  0  0  0  0  0  0  0
  130.4540  130.2920   60.7940 C   0  0  2  0  0  0  0  0  0  0  0  0
  131.3530  129.6250   59.7200 C   0  0  0  0  0  0  0  0  0  0  0  0
  132.3360  130.7610   58.6890 S   0  0  0  0  0  0  0  0  0  0  0  0
  130.9780  131.4500   57.8150 C   0  0  0  0  0  0  0  0  0  0  0  0
  129.7030  130.9120   57.6900 C   0  0  0  0  0  0  0  0  0  0  0  0
  128.8420  131.7090   56.9280 C   0  0  0  0  0  0  0  0  0  0  0  0
  129.4590  132.8610   56.4610 C   0  0  0  0  0  0  0  0  0  0  0  0
  131.1150  132.9610   56.9660 S   0  0  0  0  0  0  0  0  0  0  0  0
  131.2560  131.3020   61.6570 C   0  0  0  0  0  0  0  0  0  0  0  0
  130.7220  132.3490   62.0300 O   0  0  0  0  0  0  0  0  0  0  0  0
  132.5240  130.9620   61.9550 N   0  0  0  0  0  0  0  0  0  0  0  0
  133.2790  131.8350   62.7450 O   0  0  0  0  0  0  0  0  0  0  0  0
  133.4380  124.6138   64.6504 H   0  0  0  0  0  0  0  0  0  0  0  0
  133.3336  123.6985   63.1083 H   0  0  0  0  0  0  0  0  0  0  0  0
  133.9291  125.3932   63.1083 H   0  0  0  0  0  0  0  0  0  0  0  0
  131.1670  124.8120   64.0210 H   0  0  0  0  0  0  0  0  0  0  0  0
  129.9431  127.3283   63.0831 H   0  0  0  0  0  0  0  0  0  0  0  0
  129.3866  125.0905   64.0480 H   0  0  0  0  0  0  0  0  0  0  0  0
  128.0094  125.7656   63.0835 H   0  0  0  0  0  0  0  0  0  0  0  0
  128.7119  122.7841   63.8735 H   0  0  0  0  0  0  0  0  0  0  0  0
  128.6688  120.7113   62.5056 H   0  0  0  0  0  0  0  0  0  0  0  0
  128.9435  120.8593   60.0313 H   0  0  0  0  0  0  0  0  0  0  0  0
  129.2623  123.0628   58.9519 H   0  0  0  0  0  0  0  0  0  0  0  0
  127.2664  125.4078   59.5523 H   0  0  0  0  0  0  0  0  0  0  0  0
  128.2338  126.7253   58.6550 H   0  0  0  0  0  0  0  0  0  0  0  0
  126.9309  123.3769   58.6207 H   0  0  0  0  0  0  0  0  0  0  0  0
  126.3613  124.0840   57.0708 H   0  0  0  0  0  0  0  0  0  0  0  0
  127.6819  122.8664   57.0708 H   0  0  0  0  0  0  0  0  0  0  0  0
  130.5598  127.2963   57.8990 H   0  0  0  0  0  0  0  0  0  0  0  0
  132.9424  126.8060   57.0016 H   0  0  0  0  0  0  0  0  0  0  0  0
  134.0419  124.7283   58.1395 H   0  0  0  0  0  0  0  0  0  0  0  0
  130.3125  128.8331   62.3593 H   0  0  0  0  0  0  0  0  0  0  0  0
  128.8895  130.6771   63.0766 H   0  0  0  0  0  0  0  0  0  0  0  0
  127.7292  130.2473   61.6943 H   0  0  0  0  0  0  0  0  0  0  0  0
  128.0665  127.9428   63.2550 H   0  0  0  0  0  0  0  0  0  0  0  0
  125.5150  128.8883   63.8412 H   0  0  0  0  0  0  0  0  0  0  0  0
  125.9203  129.7980   62.3462 H   0  0  0  0  0  0  0  0  0  0  0  0
  125.9701  128.0024   62.3462 H   0  0  0  0  0  0  0  0  0  0  0  0
  127.4603  128.4506   65.4790 H   0  0  0  0  0  0  0  0  0  0  0  0
  128.8034  129.5778   65.0889 H   0  0  0  0  0  0  0  0  0  0  0  0
  127.1069  130.1681   65.0889 H   0  0  0  0  0  0  0  0  0  0  0  0
  129.6940  130.8918   60.2719 H   0  0  0  0  0  0  0  0  0  0  0  0
  132.0506  128.9494   60.2366 H   0  0  0  0  0  0  0  0  0  0  0  0
  130.6645  129.1161   59.0294 H   0  0  0  0  0  0  0  0  0  0  0  0
  129.4013  129.9566   58.1440 H   0  0  0  0  0  0  0  0  0  0  0  0
  127.7927  131.4512   56.7219 H   0  0  0  0  0  0  0  0  0  0  0  0
  128.9571  133.6206   55.8437 H   0  0  0  0  0  0  0  0  0  0  0  0
  133.0150  130.1090   61.7300 H   0  0  0  0  0  0  0  0  0  0  0  0
  132.6140  132.3930   63.1530 H   0  0  0  0  0  0  0  0  0  0  0  0
  1  2  1  0
  2  3  1  0
  3  4  2  0
  3  5  1  0
  5  6  1  0
  6  7  1  0
  7  8  2  0
  8  9  1  0
  9 10  2  0
 10 11  1  0
 11 12  2  0
 12 13  1  0
 13 14  1  6
 14 15  1  0
 15 16  1  0
 15 17  2  0
 13 18  1  0
 18 19  2  0
 19 20  1  0
 20 21  2  0
 21 22  1  0
 13 23  1  0
 23 24  1  0
 24 25  2  0
 24 26  1  0
 26 27  1  0
 27 28  1  0
 28 29  1  0
 28 30  1  0
 26 31  1  0
 31 32  1  0
 32 33  1  0
 33 34  1  0
 34 35  2  0
 35 36  1  0
 36 37  2  0
 37 38  1  0
 31 39  1  0
 39 40  2  0
 39 41  1  0
 41 42  1  0
 23  5  1  0
 38 34  1  0
 12  7  1  0
 22 18  1  0
  1 43  1  0
  1 44  1  0
  1 45  1  0
  2 46  1  0
  5 47  1  1
  6 48  1  0
  6 49  1  0
  8 50  1  0
  9 51  1  0
 10 52  1  0
 11 53  1  0
 14 54  1  0
 14 55  1  0
 16 56  1  0
 16 57  1  0
 16 58  1  0
 19 59  1  0
 20 60  1  0
 21 61  1  0
 26 62  1  1
 27 63  1  0
 27 64  1  0
 28 65  1  0
 29 66  1  0
 29 67  1  0
 29 68  1  0
 30 69  1  0
 30 70  1  0
 30 71  1  0
 31 72  1  6
 32 73  1  0
 32 74  1  0
 35 75  1  0
 36 76  1  0
 37 77  1  0
 41 78  1  0
 42 79  1  0
M  END
>  <Binding energies>  (1) 
[-8.56]

>  <Ligand effiencies>  (1) 
[-0.19022222222222224]

>  <Interactions>  (1) 
["V-A:ASP:366:CA:3210, V-B:PRO:540:CA:9855, H-A:ALA:541:N:4891, V-A:ILE:538:CB:4862, H-A:ALA:541:O:4889, V-B:ALA:541:CB:9864, V-B:TYR:539:CE2:9848, V-B:GLU:543:CG:9879, V-B:TYR:539:C:9839, V-A:ASP:366:CG:3213, V-B:TYR:539:CZ:9849, V-A:ILE:538:CA:4860, H-B:TYR:539:OH:9850, V-A:GLU:543:CD:4908, V-A:ASP:366:C:3208, V-B:TYR:539:CD2:9846, V-A:TYR:531:CZ:4794, V-A:GLU:543:CG:4907, V-B:GLU:543:CD:9880, V-A:MET:535:CE:4835, V-A:ASP:366:CB:3212, H-A:ARG:545:NH2:4928, V-A:ARG:545:CZ:4926, H-A:GLU:543:OE1:4909, H-A:ASP:366:OD1:3214, V-A:PRO:540:N:4884, H-A:ASN:362:ND2:3179, V-A:PRO:540:CB:4885, V-A:PRO:540:CA:4883, V-B:PRO:540:C:9853, H-A:ASP:366:OD2:3215, V-B:ALA:541:CA:9862, V-A:PRO:540:CD:4887"]

$$$$
ZINC963948836
     RDKit          3D

 98104  0  0  0  0  0  0  0  0999 V2000
  129.8510  120.3080   61.6300 C   0  0  0  0  0  0  0  0  0  0  0  0
  129.4420  121.6390   61.1950 N   0  0  0  0  0  0  0  0  0  0  0  0
  128.9540  122.6010   61.9980 C   0  0  0  0  0  0  0  0  0  0  0  0
  128.7970  122.4510   63.2090 O   0  0  0  0  0  0  0  0  0  0  0  0
  128.5860  123.9480   61.2930 C   0  0  2  0  0  0  0  0  0  0  0  0
  127.8560  123.5320   60.0020 C   0  0  0  0  0  0  0  0  0  0  0  0
  127.2480  124.7270   59.3230 C   0  0  0  0  0  0  0  0  0  0  0  0
  126.0100  124.6190   58.6760 C   0  0  0  0  0  0  0  0  0  0  0  0
  125.4420  125.7080   58.0260 C   0  0  0  0  0  0  0  0  0  0  0  0
  126.1110  126.9230   58.0200 C   0  0  0  0  0  0  0  0  0  0  0  0
  127.3370  127.0350   58.6680 C   0  0  0  0  0  0  0  0  0  0  0  0
  127.9390  125.9510   59.3380 C   0  0  0  0  0  0  0  0  0  0  0  0
  129.2990  126.1340   60.0910 C   0  0  1  0  0  0  0  0  0  0  0  0
  130.3460  126.5160   58.9850 C   0  0  0  0  0  0  0  0  0  0  0  0
  130.8740  125.4440   57.9480 C   0  0  0  0  0  0  0  0  0  0  0  0
  131.8870  125.7710   57.2930 O   0  0  0  0  0  0  0  0  0  0  0  0
  130.2640  124.3490   57.9280 O   0  0  0  0  0  0  0  0  0  0  0  0
  130.7200  127.7980   58.7770 C   0  0  0  0  0  0  0  0  0  0  0  0
  130.2360  128.8720   59.4850 N   0  0  0  0  0  0  0  0  0  0  0  0
  129.5720  128.6730   60.7220 C   0  0  0  0  0  0  0  0  0  0  0  0
  129.1040  127.3750   61.0510 C   0  0  0  0  0  0  0  0  0  0  0  0
  128.4320  127.2520   62.2810 C   0  0  0  0  0  0  0  0  0  0  0  0
  128.2630  128.3180   63.1590 C   0  0  0  0  0  0  0  0  0  0  0  0
  127.6180  128.1140   64.3300 F   0  0  0  0  0  0  0  0  0  0  0  0
  128.7570  129.5800   62.8360 C   0  0  0  0  0  0  0  0  0  0  0  0
  128.6230  130.7300   63.8330 C   0  0  0  0  0  0  0  0  0  0  0  0
  129.6980  131.8200   63.7640 N   0  0  0  0  0  0  0  0  0  0  0  0
  127.2250  131.2070   64.2010 C   0  0  0  0  0  0  0  0  0  0  0  0
  128.0370  130.4500   65.2100 C   0  0  0  0  0  0  0  0  0  0  0  0
  129.3850  129.7570   61.5990 C   0  0  0  0  0  0  0  0  0  0  0  0
  129.8470  131.0180   61.3040 O   0  0  0  0  0  0  0  0  0  0  0  0
  129.7790  131.3050   59.9180 C   0  0  0  0  0  0  0  0  0  0  0  0
  130.5780  130.2650   59.0960 C   0  0  2  0  0  0  0  0  0  0  0  0
  130.3140  130.5020   57.5890 C   0  0  0  0  0  0  0  0  0  0  0  0
  129.7150  124.8900   60.9050 N   0  0  0  0  0  0  0  0  0  0  0  0
  130.7570  124.9890   61.8130 C   0  0  0  0  0  0  0  0  0  0  0  0
  130.6590  125.7330   62.7930 O   0  0  0  0  0  0  0  0  0  0  0  0
  132.1200  124.2400   61.6470 C   0  0  2  0  0  0  0  0  0  0  0  0
  132.3940  123.9300   60.1260 C   0  0  0  0  0  0  0  0  0  0  0  0
  133.6110  124.6050   59.4410 C   0  0  0  0  0  0  0  0  0  0  0  0
  133.9830  123.9780   58.0880 C   0  0  0  0  0  0  0  0  0  0  0  0
  134.8470  124.6100   60.3610 C   0  0  0  0  0  0  0  0  0  0  0  0
  132.2580  122.8910   62.4660 C   0  0  2  0  0  0  0  0  0  0  0  0
  132.2530  123.0360   64.0220 C   0  0  0  0  0  0  0  0  0  0  0  0
  132.9640  124.5890   64.6630 S   0  0  0  0  0  0  0  0  0  0  0  0
  131.6660  125.1380   65.7280 C   0  0  0  0  0  0  0  0  0  0  0  0
  130.2850  125.1000   65.5280 C   0  0  0  0  0  0  0  0  0  0  0  0
  129.5550  125.6290   66.5990 C   0  0  0  0  0  0  0  0  0  0  0  0
  130.3700  126.0820   67.6240 C   0  0  0  0  0  0  0  0  0  0  0  0
  132.0490  125.8540   67.2640 S   0  0  0  0  0  0  0  0  0  0  0  0
  133.4010  121.9570   62.0090 C   0  0  0  0  0  0  0  0  0  0  0  0
  134.4650  121.9370   62.6330 O   0  0  0  0  0  0  0  0  0  0  0  0
  133.1410  121.1660   60.9520 N   0  0  0  0  0  0  0  0  0  0  0  0
  134.1140  120.2450   60.5570 O   0  0  0  0  0  0  0  0  0  0  0  0
  129.8630  120.2691   62.7292 H   0  0  0  0  0  0  0  0  0  0  0  0
  129.1407  119.5618   61.2444 H   0  0  0  0  0  0  0  0  0  0  0  0
  130.8577  120.0895   61.2444 H   0  0  0  0  0  0  0  0  0  0  0  0
  129.5270  121.8320   60.2080 H   0  0  0  0  0  0  0  0  0  0  0  0
  128.0109  124.5322   62.0265 H   0  0  0  0  0  0  0  0  0  0  0  0
  128.5749  123.0562   59.3188 H   0  0  0  0  0  0  0  0  0  0  0  0
  127.0519  122.8283   60.2632 H   0  0  0  0  0  0  0  0  0  0  0  0
  125.4786  123.6559   58.6827 H   0  0  0  0  0  0  0  0  0  0  0  0
  124.4702  125.6073   57.5206 H   0  0  0  0  0  0  0  0  0  0  0  0
  125.6750  127.7924   57.5062 H   0  0  0  0  0  0  0  0  0  0  0  0
  127.8555  128.0051   58.6570 H   0  0  0  0  0  0  0  0  0  0  0  0
  131.4612  127.9950   57.9885 H   0  0  0  0  0  0  0  0  0  0  0  0
  128.0224  126.2702   62.5607 H   0  0  0  0  0  0  0  0  0  0  0  0
  129.6650  132.3890   64.5980 H   0  0  0  0  0  0  0  0  0  0  0  0
  129.5400  132.4120   62.9620 H   0  0  0  0  0  0  0  0  0  0  0  0
  130.6140  131.4010   63.6940 H   0  0  0  0  0  0  0  0  0  0  0  0
  127.0319  132.2802   64.3459 H   0  0  0  0  0  0  0  0  0  0  0  0
  126.2238  131.0841   63.7624 H   0  0  0  0  0  0  0  0  0  0  0  0
  128.4379  130.9695   66.0929 H   0  0  0  0  0  0  0  0  0  0  0  0
  127.8748  129.5450   65.8138 H   0  0  0  0  0  0  0  0  0  0  0  0
  128.7268  131.2850   59.5978 H   0  0  0  0  0  0  0  0  0  0  0  0
  130.2160  132.2994   59.7443 H   0  0  0  0  0  0  0  0  0  0  0  0
  131.6496  130.3962   59.3070 H   0  0  0  0  0  0  0  0  0  0  0  0
  129.5003  131.2325   57.4697 H   0  0  0  0  0  0  0  0  0  0  0  0
  131.2271  130.8893   57.1133 H   0  0  0  0  0  0  0  0  0  0  0  0
  130.0271  129.5526   57.1133 H   0  0  0  0  0  0  0  0  0  0  0  0
  132.8645  124.9343   62.0638 H   0  0  0  0  0  0  0  0  0  0  0  0
  132.5326  122.8425   60.0360 H   0  0  0  0  0  0  0  0  0  0  0  0
  131.5227  124.3520   59.6038 H   0  0  0  0  0  0  0  0  0  0  0  0
  133.2913  125.6393   59.2460 H   0  0  0  0  0  0  0  0  0  0  0  0
  134.5376  123.0432   58.2572 H   0  0  0  0  0  0  0  0  0  0  0  0
  133.0664  123.7627   57.5192 H   0  0  0  0  0  0  0  0  0  0  0  0
  134.6112  124.6793   57.5192 H   0  0  0  0  0  0  0  0  0  0  0  0
  134.5219  124.6087   61.4119 H   0  0  0  0  0  0  0  0  0  0  0  0
  135.4544  123.7143   60.1640 H   0  0  0  0  0  0  0  0  0  0  0  0
  135.4471  125.5106   60.1640 H   0  0  0  0  0  0  0  0  0  0  0  0
  131.3124  122.3961   62.1996 H   0  0  0  0  0  0  0  0  0  0  0  0
  131.2100  122.9725   64.3658 H   0  0  0  0  0  0  0  0  0  0  0  0
  132.8935  122.2277   64.4047 H   0  0  0  0  0  0  0  0  0  0  0  0
  129.8168  124.6946   64.6189 H   0  0  0  0  0  0  0  0  0  0  0  0
  128.4564  125.6795   66.6241 H   0  0  0  0  0  0  0  0  0  0  0  0
  129.9955  126.5325   68.5550 H   0  0  0  0  0  0  0  0  0  0  0  0
  132.3100  121.1360   60.3800 H   0  0  0  0  0  0  0  0  0  0  0  0
  134.7580  120.2860   61.2680 H   0  0  0  0  0  0  0  0  0  0  0  0
  1  2  1  0
  2  3  1  0
  3  4  2  0
  3  5  1  0
  5  6  1  0
  6  7  1  0
  7  8  2  0
  8  9  1  0
  9 10  2  0
 10 11  1  0
 11 12  2  0
 12 13  1  0
 13 14  1  0
 14 15  1  0
 15 16  2  0
 15 17  1  0
 14 18  2  0
 18 19  1  0
 19 20  1  0
 20 21  2  0
 21 22  1  0
 22 23  2  0
 23 24  1  0
 23 25  1  0
 25 26  1  0
 26 27  1  0
 26 28  1  0
 28 29  1  0
 25 30  2  0
 30 31  1  0
 31 32  1  0
 32 33  1  0
 33 34  1  0
 13 35  1  1
 35 36  1  0
 36 37  2  0
 36 38  1  0
 38 39  1  0
 39 40  1  0
 40 41  1  0
 40 42  1  0
 38 43  1  0
 43 44  1  0
 44 45  1  0
 45 46  1  0
 46 47  2  0
 47 48  1  0
 48 49  2  0
 49 50  1  0
 43 51  1  0
 51 52  2  0
 51 53  1  0
 53 54  1  0
 35  5  1  0
 50 46  1  0
 12  7  1  0
 21 13  1  0
 29 26  1  0
 33 19  1  0
 30 20  1  0
  1 55  1  0
  1 56  1  0
  1 57  1  0
  2 58  1  0
  5 59  1  1
  6 60  1  0
  6 61  1  0
  8 62  1  0
  9 63  1  0
 10 64  1  0
 11 65  1  0
 18 66  1  0
 22 67  1  0
 27 68  1  0
 27 69  1  0
 27 70  1  0
 28 71  1  0
 28 72  1  0
 29 73  1  0
 29 74  1  0
 32 75  1  0
 32 76  1  0
 33 77  1  6
 34 78  1  0
 34 79  1  0
 34 80  1  0
 38 81  1  1
 39 82  1  0
 39 83  1  0
 40 84  1  0
 41 85  1  0
 41 86  1  0
 41 87  1  0
 42 88  1  0
 42 89  1  0
 42 90  1  0
 43 91  1  1
 44 92  1  0
 44 93  1  0
 47 94  1  0
 48 95  1  0
 49 96  1  0
 53 97  1  0
 54 98  1  0
M  CHG  2  17  -1  27   1
M  END
>  <Binding energies>  (1) 
[-6.3]

>  <Ligand effiencies>  (1) 
[-0.105]

>  <Interactions>  (1) 
["V-A:ILE:369:CG2:3237, V-A:ASP:366:CA:3210, V-B:PRO:540:CA:9855, V-A:GLY:454:CA:4049, V-A:ILE:369:CB:3236, V-B:GLU:543:CB:9878, H-A:ALA:541:O:4889, V-B:ASP:366:CG:8184, V-B:ALA:541:CB:9864, H-A:TYR:531:OH:4795, V-B:TYR:539:CE2:9848, V-B:GLU:543:CG:9879, V-A:ASP:366:CG:3213, V-B:TYR:484:CE2:9317, V-B:TYR:539:CZ:9849, V-B:TYR:531:CZ:9766, H-B:TYR:539:OH:9850, V-A:ALA:541:CB:4892, H-B:ALA:541:N:9863, V-B:TYR:531:CE2:9765, V-B:ASP:366:CB:8183, V-A:GLU:543:CD:4908, V-A:TYR:484:CZ:4347, V-A:ARG:545:CG:4922, H-A:GLY:454:N:4050, V-B:TYR:484:CZ:9318, V-A:ILE:369:CD1:3239, V-A:HIS:456:CE1:4070, V-A:ASP:366:C:3208, V-B:TYR:539:CD2:9846, V-A:GLU:543:CG:4907, V-A:SER:385:CB:3409, H-A:SER:385:OG:3410, V-B:GLU:543:CD:9880, V-A:ILE:369:CG1:3238, V-A:ASP:366:CB:3212, V-A:LEU:475:CD2:4259, H-A:ARG:545:NH2:4928, H-A:GLU:543:OE1:4909, H-B:TYR:539:O:9840, H-A:SER:385:O:3406, H-A:TYR:484:OH:4348"]

$$$$
ZINC963948836-again1
     RDKit          3D

 96102  0  0  0  0  0  0  0  0999 V2000
  129.7590  121.7620   62.9550 C   0  0  0  0  0  0  0  0  0  0  0  0
  129.4950  122.9160   62.1050 N   0  0  0  0  0  0  0  0  0  0  0  0
  128.3160  123.5560   62.0180 C   0  0  0  0  0  0  0  0  0  0  0  0
  127.3200  123.2260   62.6660 O   0  0  0  0  0  0  0  0  0  0  0  0
  128.2560  124.7590   61.0250 C   0  0  2  0  0  0  0  0  0  0  0  0
  128.2160  124.0800   59.6390 C   0  0  0  0  0  0  0  0  0  0  0  0
  128.0030  125.0740   58.5410 C   0  0  0  0  0  0  0  0  0  0  0  0
  127.1750  124.7720   57.4520 C   0  0  0  0  0  0  0  0  0  0  0  0
  127.0210  125.6670   56.4010 C   0  0  0  0  0  0  0  0  0  0  0  0
  127.7030  126.8750   56.4290 C   0  0  0  0  0  0  0  0  0  0  0  0
  128.5160  127.1790   57.5170 C   0  0  0  0  0  0  0  0  0  0  0  0
  128.6800  126.2990   58.6080 C   0  0  0  0  0  0  0  0  0  0  0  0
  129.5490  126.7050   59.8430 C   0  0  1  0  0  0  0  0  0  0  0  0
  131.0180  126.6620   59.3120 C   0  0  0  0  0  0  0  0  0  0  0  0
  131.6400  125.3030   58.8500 C   0  0  0  0  0  0  0  0  0  0  0  0
  131.2760  124.2930   59.4890 O   0  0  0  0  0  0  0  0  0  0  0  0
  132.4200  125.3810   57.8720 O   0  0  0  0  0  0  0  0  0  0  0  0
  131.7370  127.7820   59.0890 C   0  0  0  0  0  0  0  0  0  0  0  0
  131.2630  129.0510   59.3200 N   0  0  0  0  0  0  0  0  0  0  0  0
  129.9720  129.2910   59.8560 C   0  0  0  0  0  0  0  0  0  0  0  0
  129.1420  128.1860   60.1640 C   0  0  0  0  0  0  0  0  0  0  0  0
  127.8840  128.4660   60.7200 C   0  0  0  0  0  0  0  0  0  0  0  0
  127.4460  129.7670   60.9470 C   0  0  0  0  0  0  0  0  0  0  0  0
  126.2220  129.9650   61.4910 F   0  0  0  0  0  0  0  0  0  0  0  0
  128.2530  130.8540   60.6040 C   0  0  0  0  0  0  0  0  0  0  0  0
  127.7500  132.2780   60.8310 C   0  0  0  0  0  0  0  0  0  0  0  0
  127.9530  133.2120   59.7410 N   0  0  0  0  0  0  0  0  0  0  0  0
  126.4910  132.4830   61.6550 C   0  0  0  0  0  0  0  0  0  0  0  0
  127.8260  132.8670   62.2290 C   0  0  0  0  0  0  0  0  0  0  0  0
  129.5260  130.6110   60.0720 C   0  0  0  0  0  0  0  0  0  0  0  0
  130.2860  131.7120   59.7290 O   0  0  0  0  0  0  0  0  0  0  0  0
  131.6850  131.4580   59.6710 C   0  0  0  0  0  0  0  0  0  0  0  0
  131.9810  130.2250   58.7910 C   0  0  2  0  0  0  0  0  0  0  0  0
  131.5970  130.4420   57.3130 C   0  0  0  0  0  0  0  0  0  0  0  0
  129.3510  125.8200   61.0910 N   0  0  0  0  0  0  0  0  0  0  0  0
  129.7920  126.2360   62.3520 C   0  0  0  0  0  0  0  0  0  0  0  0
  130.9860  126.4180   62.5990 O   0  0  0  0  0  0  0  0  0  0  0  0
  128.8520  126.6370   63.5420 C   0  0  2  0  0  0  0  0  0  0  0  0
  128.7640  128.1890   63.7590 C   0  0  0  0  0  0  0  0  0  0  0  0
  127.6440  128.7240   64.6920 C   0  0  0  0  0  0  0  0  0  0  0  0
  126.3530  129.0600   63.9290 C   0  0  0  0  0  0  0  0  0  0  0  0
  128.1110  129.9550   65.4940 C   0  0  0  0  0  0  0  0  0  0  0  0
  129.2240  125.8950   64.8910 C   0  0  2  0  0  0  0  0  0  0  0  0
  129.3730  126.8620   66.0980 C   0  0  0  0  0  0  0  0  0  0  0  0
  130.5330  126.3310   67.4010 S   0  0  0  0  0  0  0  0  0  0  0  0
  129.5600  126.8260   68.7760 C   0  0  0  0  0  0  0  0  0  0  0  0
  130.0160  127.3500   69.9800 C   0  0  0  0  0  0  0  0  0  0  0  0
  128.9850  127.6440   70.8770 C   0  0  0  0  0  0  0  0  0  0  0  0
  127.7320  127.3510   70.3610 C   0  0  0  0  0  0  0  0  0  0  0  0
  127.8270  126.7060   68.7540 S   0  0  0  0  0  0  0  0  0  0  0  0
  130.4320  124.9250   64.8130 C   0  0  0  0  0  0  0  0  0  0  0  0
  130.2470  123.7050   64.8280 O   0  0  0  0  0  0  0  0  0  0  0  0
  131.6490  125.4930   64.7250 N   0  0  0  0  0  0  0  0  0  0  0  0
  132.8120  124.8550   64.6470 O   0  0  0  0  0  0  0  0  0  0  0  0
  129.6905  122.0613   64.0113 H   0  0  0  0  0  0  0  0  0  0  0  0
  129.0173  120.9765   62.7476 H   0  0  0  0  0  0  0  0  0  0  0  0
  130.7684  121.3771   62.7476 H   0  0  0  0  0  0  0  0  0  0  0  0
  130.2560  123.2230   61.5170 H   0  0  0  0  0  0  0  0  0  0  0  0
  127.3830  125.3751   61.2861 H   0  0  0  0  0  0  0  0  0  0  0  0
  129.1705  123.5604   59.4691 H   0  0  0  0  0  0  0  0  0  0  0  0
  127.3741  123.3721   59.6284 H   0  0  0  0  0  0  0  0  0  0  0  0
  126.6388  123.8118   57.4289 H   0  0  0  0  0  0  0  0  0  0  0  0
  126.3641  125.4202   55.5539 H   0  0  0  0  0  0  0  0  0  0  0  0
  127.6018  127.5875   55.5971 H   0  0  0  0  0  0  0  0  0  0  0  0
  129.0503  128.1405   57.5269 H   0  0  0  0  0  0  0  0  0  0  0  0
  132.7603  127.6730   58.7004 H   0  0  0  0  0  0  0  0  0  0  0  0
  127.2220  127.6285   60.9853 H   0  0  0  0  0  0  0  0  0  0  0  0
  128.4110  134.0440   60.0830 H   0  0  0  0  0  0  0  0  0  0  0  0
  128.5600  132.8010   59.0460 H   0  0  0  0  0  0  0  0  0  0  0  0
  125.7702  133.2640   61.3712 H   0  0  0  0  0  0  0  0  0  0  0  0
  125.6635  131.8359   61.9812 H   0  0  0  0  0  0  0  0  0  0  0  0
  128.0806  133.9285   62.3645 H   0  0  0  0  0  0  0  0  0  0  0  0
  128.3767  132.6163   63.1477 H   0  0  0  0  0  0  0  0  0  0  0  0
  132.1937  132.3356   59.2454 H   0  0  0  0  0  0  0  0  0  0  0  0
  132.0506  131.2608   60.6896 H   0  0  0  0  0  0  0  0  0  0  0  0
  133.0676  130.0572   58.8253 H   0  0  0  0  0  0  0  0  0  0  0  0
  130.6405  130.9825   57.2582 H   0  0  0  0  0  0  0  0  0  0  0  0
  132.3802  131.0311   56.8134 H   0  0  0  0  0  0  0  0  0  0  0  0
  131.4964  129.4672   56.8134 H   0  0  0  0  0  0  0  0  0  0  0  0
  127.8496  126.2960   63.2440 H   0  0  0  0  0  0  0  0  0  0  0  0
  129.7263  128.5173   64.1788 H   0  0  0  0  0  0  0  0  0  0  0  0
  128.5177  128.5954   62.7669 H   0  0  0  0  0  0  0  0  0  0  0  0
  127.4202  127.9067   65.3933 H   0  0  0  0  0  0  0  0  0  0  0  0
  125.5467  129.2699   64.6472 H   0  0  0  0  0  0  0  0  0  0  0  0
  126.5203  129.9445   63.2968 H   0  0  0  0  0  0  0  0  0  0  0  0
  126.0679  128.2061   63.2968 H   0  0  0  0  0  0  0  0  0  0  0  0
  128.0307  129.7433   66.5705 H   0  0  0  0  0  0  0  0  0  0  0  0
  129.1575  130.1814   65.2419 H   0  0  0  0  0  0  0  0  0  0  0  0
  127.4780  130.8186   65.2419 H   0  0  0  0  0  0  0  0  0  0  0  0
  128.3455  125.2558   65.0629 H   0  0  0  0  0  0  0  0  0  0  0  0
  129.7194  127.8322   65.7125 H   0  0  0  0  0  0  0  0  0  0  0  0
  128.3829  126.8985   66.5759 H   0  0  0  0  0  0  0  0  0  0  0  0
  131.0800  127.5164   70.2041 H   0  0  0  0  0  0  0  0  0  0  0  0
  129.1496  128.0616   71.8812 H   0  0  0  0  0  0  0  0  0  0  0  0
  126.7897  127.5089   70.9061 H   0  0  0  0  0  0  0  0  0  0  0  0
  131.6770  126.5030   64.7190 H   0  0  0  0  0  0  0  0  0  0  0  0
  1  2  1  0
  2  3  1  0
  3  4  2  0
  3  5  1  0
  5  6  1  0
  6  7  1  0
  7  8  2  0
  8  9  1  0
  9 10  2  0
 10 11  1  0
 11 12  2  0
 12 13  1  0
 13 14  1  0
 14 15  1  0
 15 16  2  0
 15 17  1  0
 14 18  2  0
 18 19  1  0
 19 20  1  0
 20 21  2  0
 21 22  1  0
 22 23  2  0
 23 24  1  0
 23 25  1  0
 25 26  1  0
 26 27  1  0
 26 28  1  0
 28 29  1  0
 25 30  2  0
 30 31  1  0
 31 32  1  0
 32 33  1  0
 33 34  1  0
 13 35  1  1
 35 36  1  0
 36 37  2  0
 36 38  1  0
 38 39  1  0
 39 40  1  0
 40 41  1  0
 40 42  1  0
 38 43  1  0
 43 44  1  0
 44 45  1  0
 45 46  1  0
 46 47  2  0
 47 48  1  0
 48 49  2  0
 49 50  1  0
 43 51  1  0
 51 52  2  0
 51 53  1  0
 53 54  1  0
 35  5  1  0
 50 46  1  0
 12  7  1  0
 21 13  1  0
 29 26  1  0
 33 19  1  0
 30 20  1  0
  1 55  1  0
  1 56  1  0
  1 57  1  0
  2 58  1  0
  5 59  1  1
  6 60  1  0
  6 61  1  0
  8 62  1  0
  9 63  1  0
 10 64  1  0
 11 65  1  0
 18 66  1  0
 22 67  1  0
 27 68  1  0
 27 69  1  0
 28 70  1  0
 28 71  1  0
 29 72  1  0
 29 73  1  0
 32 74  1  0
 32 75  1  0
 33 76  1  6
 34 77  1  0
 34 78  1  0
 34 79  1  0
 38 80  1  6
 39 81  1  0
 39 82  1  0
 40 83  1  0
 41 84  1  0
 41 85  1  0
 41 86  1  0
 42 87  1  0
 42 88  1  0
 42 89  1  0
 43 90  1  1
 44 91  1  0
 44 92  1  0
 47 93  1  0
 48 94  1  0
 49 95  1  0
 53 96  1  0
M  CHG  2  17  -1  54  -1
M  END
>  <Binding energies>  (1) 
[-5.85]

>  <Ligand effiencies>  (1) 
[-0.10086206896551723]

>  <Interactions>  (1) 
["V-B:GLU:543:C:9874, H-A:GLU:543:OE2:4910, V-B:HIS:456:CD2:9039, V-B:GLU:543:CB:9878, V-B:ALA:541:CB:9864, H-A:TYR:531:OH:4795, V-B:TYR:539:CE2:9848, V-B:GLU:543:CG:9879, V-A:ASP:366:CG:3213, V-A:TYR:531:CE2:4793, V-B:TYR:531:CZ:9766, H-B:TYR:539:OH:9850, H-B:ALA:541:N:9863, V-A:GLU:543:CD:4908, V-B:HIS:456:CE1:9041, V-B:GLU:543:CA:9876, V-B:TYR:484:CZ:9318, V-A:HIS:456:CE1:4070, V-A:TYR:531:CZ:4794, V-A:GLU:543:CG:4907, V-B:GLU:543:CD:9880, V-A:ASP:366:CB:3212, V-A:LEU:475:CD2:4259, H-A:ARG:545:NH2:4928, V-A:ARG:545:CZ:4926, H-A:GLU:543:OE1:4909, V-A:GLU:543:CB:4906, H-A:TYR:539:O:4868, V-A:PRO:540:CB:4885, V-A:PRO:540:CA:4883, H-A:ARG:545:NE:4924, H-A:TYR:484:OH:4348"]

$$$$
ZINC9647533
     RDKit          3D

 34 35  0  0  0  0  0  0  0  0999 V2000
  129.9170  124.2610   60.6460 C   0  0  0  0  0  0  0  0  0  0  0  0
  130.6020  122.9780   60.6410 N   0  0  0  0  0  0  0  0  0  0  0  0
  130.0240  121.7400   60.5610 C   0  0  0  0  0  0  0  0  0  0  0  0
  130.8920  120.7640   60.5720 N   0  0  0  0  0  0  0  0  0  0  0  0
  132.0850  121.3450   60.6600 C   0  0  0  0  0  0  0  0  0  0  0  0
  133.2890  120.5600   60.7050 N   0  0  0  0  0  0  0  0  0  0  0  0
  133.5640  119.8570   59.7350 O   0  0  0  0  0  0  0  0  0  0  0  0
  133.9850  120.6270   61.7120 O   0  0  0  0  0  0  0  0  0  0  0  0
  131.9570  122.7450   60.7030 C   0  0  0  0  0  0  0  0  0  0  0  0
  133.1790  124.0160   60.8190 S   0  0  0  0  0  0  0  0  0  0  0  0
  133.0710  124.4630   62.5230 C   0  0  0  0  0  0  0  0  0  0  0  0
  134.0440  124.3870   63.4030 N   0  0  0  0  0  0  0  0  0  0  0  0
  133.6630  124.8040   64.6710 N   0  0  0  0  0  0  0  0  0  0  0  0
  132.4100  125.1870   64.7190 C   0  0  0  0  0  0  0  0  0  0  0  0
  131.7270  125.6510   65.8170 N   0  0  0  0  0  0  0  0  0  0  0  0
  130.3260  125.4530   66.1910 C   0  0  0  0  0  0  0  0  0  0  0  0
  129.4490  126.3200   65.2620 C   0  0  0  0  0  0  0  0  0  0  0  0
  129.9090  123.9740   66.0090 C   0  0  0  0  0  0  0  0  0  0  0  0
  130.0730  125.8970   67.6500 C   0  0  0  0  0  0  0  0  0  0  0  0
  131.5860  125.0670   63.1950 S   0  0  0  0  0  0  0  0  0  0  0  0
  129.7460  124.5813   61.6843 H   0  0  0  0  0  0  0  0  0  0  0  0
  130.5358  125.0090   60.1287 H   0  0  0  0  0  0  0  0  0  0  0  0
  128.9512  124.1630   60.1287 H   0  0  0  0  0  0  0  0  0  0  0  0
  128.9374  121.5827   60.4941 H   0  0  0  0  0  0  0  0  0  0  0  0
  132.2170  126.2170   66.4960 H   0  0  0  0  0  0  0  0  0  0  0  0
  128.7970  126.9646   65.8697 H   0  0  0  0  0  0  0  0  0  0  0  0
  130.0940  126.9453   64.6272 H   0  0  0  0  0  0  0  0  0  0  0  0
  128.8312  125.6678   64.6272 H   0  0  0  0  0  0  0  0  0  0  0  0
  129.7771  123.5061   66.9958 H   0  0  0  0  0  0  0  0  0  0  0  0
  128.9623  123.9260   65.4509 H   0  0  0  0  0  0  0  0  0  0  0  0
  130.6912  123.4385   65.4509 H   0  0  0  0  0  0  0  0  0  0  0  0
  130.4976  125.1519   68.3389 H   0  0  0  0  0  0  0  0  0  0  0  0
  130.5510  126.8722   67.8246 H   0  0  0  0  0  0  0  0  0  0  0  0
  128.9904  125.9829   67.8246 H   0  0  0  0  0  0  0  0  0  0  0  0
  1  2  1  0
  2  3  1  0
  3  4  2  0
  4  5  1  0
  5  6  1  0
  6  7  2  0
  6  8  1  0
  5  9  2  0
  9 10  1  0
 10 11  1  0
 11 12  2  0
 12 13  1  0
 13 14  2  0
 14 15  1  0
 15 16  1  0
 16 17  1  0
 16 18  1  0
 16 19  1  0
 14 20  1  0
  9  2  1  0
 20 11  1  0
  1 21  1  0
  1 22  1  0
  1 23  1  0
  3 24  1  0
 15 25  1  0
 17 26  1  0
 17 27  1  0
 17 28  1  0
 18 29  1  0
 18 30  1  0
 18 31  1  0
 19 32  1  0
 19 33  1  0
 19 34  1  0
M  CHG  2   6   1   8  -1
M  END
>  <Binding energies>  (1) 
[-6.24]

>  <Ligand effiencies>  (1) 
[-0.29714285714285715]

>  <Interactions>  (1) 
["V-A:ILE:369:CG2:3237, H-A:GLU:543:OE2:4910, V-B:GLU:543:CB:9878, V-B:TYR:539:CE2:9848, V-A:TYR:484:CE2:4346, V-B:GLU:543:CG:9879, V-A:GLU:543:CD:4908, V-A:TYR:484:CZ:4347, V-B:GLU:543:CA:9876, H-A:GLY:454:N:4050, V-A:HIS:456:CE1:4070, V-B:TYR:539:CD2:9846, V-A:SER:385:CB:3409, H-A:SER:385:OG:3410, V-B:GLU:543:CD:9880, V-A:LEU:475:CD2:4259, H-A:ARG:545:NH2:4928, V-A:ARG:545:CZ:4926, H-A:ARG:545:NE:4924, V-A:SER:385:CA:3407, H-A:TYR:484:OH:4348"]

$$$$
ZINC96495
     RDKit          3D

 35 36  0  0  0  0  0  0  0  0999 V2000
  128.1680  126.9700   69.1820 C   0  0  0  0  0  0  0  0  0  0  0  0
  128.7350  127.5300   67.9550 N   0  0  0  0  0  0  0  0  0  0  0  0
  128.3510  128.9020   67.6240 C   0  0  0  0  0  0  0  0  0  0  0  0
  129.2380  126.6650   66.9410 C   0  0  0  0  0  0  0  0  0  0  0  0
  129.1060  126.9870   65.5800 C   0  0  0  0  0  0  0  0  0  0  0  0
  129.5940  126.1400   64.5890 C   0  0  0  0  0  0  0  0  0  0  0  0
  130.2270  124.9410   64.9280 C   0  0  0  0  0  0  0  0  0  0  0  0
  130.7630  123.9980   63.9190 C   0  0  0  0  0  0  0  0  0  0  0  0
  132.0500  123.7980   63.5580 C   0  0  0  0  0  0  0  0  0  0  0  0
  133.1680  124.5210   64.0680 C   0  0  0  0  0  0  0  0  0  0  0  0
  134.0950  125.0890   64.4660 N   0  0  0  0  0  0  0  0  0  0  0  0
  132.4140  122.5330   62.3240 S   0  0  0  0  0  0  0  0  0  0  0  0
  133.6540  121.8270   62.6680 O   0  0  0  0  0  0  0  0  0  0  0  0
  131.1780  121.7950   62.0440 O   0  0  0  0  0  0  0  0  0  0  0  0
  132.7680  123.5290   60.8550 C   0  0  0  0  0  0  0  0  0  0  0  0
  133.9930  123.5920   60.2000 C   0  0  0  0  0  0  0  0  0  0  0  0
  133.9580  124.4180   59.0710 C   0  0  0  0  0  0  0  0  0  0  0  0
  132.7060  124.9770   58.8570 C   0  0  0  0  0  0  0  0  0  0  0  0
  131.5540  124.4810   60.0550 S   0  0  0  0  0  0  0  0  0  0  0  0
  130.3680  124.6120   66.2770 C   0  0  0  0  0  0  0  0  0  0  0  0
  129.8800  125.4580   67.2670 C   0  0  0  0  0  0  0  0  0  0  0  0
  128.6447  127.4408   70.0544 H   0  0  0  0  0  0  0  0  0  0  0  0
  127.0854  127.1631   69.2071 H   0  0  0  0  0  0  0  0  0  0  0  0
  128.3476  125.8851   69.2071 H   0  0  0  0  0  0  0  0  0  0  0  0
  128.1915  129.4719   68.5512 H   0  0  0  0  0  0  0  0  0  0  0  0
  129.1513  129.3750   67.0359 H   0  0  0  0  0  0  0  0  0  0  0  0
  127.4215  128.8909   67.0359 H   0  0  0  0  0  0  0  0  0  0  0  0
  128.6083  127.9249   65.2924 H   0  0  0  0  0  0  0  0  0  0  0  0
  129.4805  126.4166   63.5304 H   0  0  0  0  0  0  0  0  0  0  0  0
  130.0174  123.3810   63.3962 H   0  0  0  0  0  0  0  0  0  0  0  0
  134.8914  123.0516   60.5330 H   0  0  0  0  0  0  0  0  0  0  0  0
  134.8279  124.6039   58.4239 H   0  0  0  0  0  0  0  0  0  0  0  0
  132.4714  125.6560   58.0240 H   0  0  0  0  0  0  0  0  0  0  0  0
  130.8698  123.6748   66.5598 H   0  0  0  0  0  0  0  0  0  0  0  0
  129.9986  125.1775   68.3240 H   0  0  0  0  0  0  0  0  0  0  0  0
  1  2  1  0
  2  3  1  0
  2  4  1  0
  4  5  2  0
  5  6  1  0
  6  7  2  0
  7  8  1  0
  8  9  2  0
  9 10  1  0
 10 11  3  0
  9 12  1  0
 12 13  2  0
 12 14  2  0
 12 15  1  0
 15 16  2  0
 16 17  1  0
 17 18  2  0
 18 19  1  0
  7 20  1  0
 20 21  2  0
 21  4  1  0
 19 15  1  0
  1 22  1  0
  1 23  1  0
  1 24  1  0
  3 25  1  0
  3 26  1  0
  3 27  1  0
  5 28  1  0
  6 29  1  0
  8 30  1  0
 16 31  1  0
 17 32  1  0
 18 33  1  0
 20 34  1  0
 21 35  1  0
M  END
>  <Binding energies>  (1) 
[-6.23]

>  <Ligand effiencies>  (1) 
[-0.2966666666666667]

>  <Interactions>  (1) 
["V-A:ILE:369:CG2:3237, V-A:ASP:366:CA:3210, V-B:GLU:543:C:9874, V-A:ILE:369:CB:3236, V-B:GLU:543:CB:9878, H-A:ARG:545:NH1:4927, V-A:TYR:484:CE2:4346, V-B:TYR:539:CE2:9848, V-B:GLU:543:CG:9879, V-A:ASP:366:CG:3213, V-A:GLU:543:CD:4908, V-A:TYR:484:CZ:4347, V-B:HIS:456:CE1:9041, V-B:GLU:543:CA:9876, H-A:GLY:454:N:4050, V-A:HIS:456:CE1:4070, V-A:ILE:369:CD1:3239, V-A:ASP:366:C:3208, V-A:GLU:543:CG:4907, V-B:GLU:543:CD:9880, V-A:ASP:366:CB:3212, V-A:LEU:475:CD2:4259, H-A:ARG:545:NH2:4928, V-A:ARG:545:CZ:4926, V-A:GLU:543:CB:4906, H-A:ARG:545:NE:4924, H-A:TYR:484:OH:4348"]

$$$$
ZINC96524561
     RDKit          3D

 30 30  0  0  0  0  0  0  0  0999 V2000
  130.6940  128.1000   70.1520 C   0  0  0  0  0  0  0  0  0  0  0  0
  129.6710  128.5770   71.1980 C   0  0  0  0  0  0  0  0  0  0  0  0
  129.3690  127.5400   72.3140 C   0  0  1  0  0  0  0  0  0  0  0  0
  129.5520  128.1150   73.7310 C   0  0  0  0  0  0  0  0  0  0  0  0
  130.0460  127.3520   74.6380 N   0  0  0  0  0  0  0  0  0  0  0  0
  130.2340  127.9700   75.8880 O   0  0  0  0  0  0  0  0  0  0  0  0
  129.0760  129.5130   73.8820 C   0  0  0  0  0  0  0  0  0  0  0  0
  127.9410  129.7970   74.6530 C   0  0  0  0  0  0  0  0  0  0  0  0
  127.5010  131.1090   74.8090 C   0  0  0  0  0  0  0  0  0  0  0  0
  128.1950  132.1490   74.1970 C   0  0  0  0  0  0  0  0  0  0  0  0
  127.6520  133.7750   74.3910 Cl  0  0  0  0  0  0  0  0  0  0  0  0
  129.3260  131.8840   73.4290 C   0  0  0  0  0  0  0  0  0  0  0  0
  129.7640  130.5720   73.2740 C   0  0  0  0  0  0  0  0  0  0  0  0
  127.6090  126.8430   72.0810 S   0  0  0  0  0  0  0  0  0  0  0  0
  127.3020  126.9740   70.2240 C   0  0  0  0  0  0  0  0  0  0  0  0
  127.6260  125.4150   72.4140 O   0  0  0  0  0  0  0  0  0  0  0  0
  126.6570  127.7340   72.7520 O   0  0  0  0  0  0  0  0  0  0  0  0
  131.5766  127.6885   70.6635 H   0  0  0  0  0  0  0  0  0  0  0  0
  130.2388  127.3213   69.5224 H   0  0  0  0  0  0  0  0  0  0  0  0
  130.9979  128.9493   69.5224 H   0  0  0  0  0  0  0  0  0  0  0  0
  130.0623  129.4893   71.6719 H   0  0  0  0  0  0  0  0  0  0  0  0
  128.7262  128.7466   70.6608 H   0  0  0  0  0  0  0  0  0  0  0  0
  130.1031  126.7263   72.2185 H   0  0  0  0  0  0  0  0  0  0  0  0
  127.3928  128.9766   75.1392 H   0  0  0  0  0  0  0  0  0  0  0  0
  126.6076  131.3229   75.4141 H   0  0  0  0  0  0  0  0  0  0  0  0
  129.8713  132.7086   72.9466 H   0  0  0  0  0  0  0  0  0  0  0  0
  130.6586  130.3642   72.6686 H   0  0  0  0  0  0  0  0  0  0  0  0
  126.3035  127.4001   70.0466 H   0  0  0  0  0  0  0  0  0  0  0  0
  128.0643  127.6252   69.7714 H   0  0  0  0  0  0  0  0  0  0  0  0
  127.3593  125.9731   69.7714 H   0  0  0  0  0  0  0  0  0  0  0  0
  1  2  1  0
  2  3  1  0
  3  4  1  0
  4  5  2  0
  5  6  1  0
  4  7  1  0
  7  8  2  0
  8  9  1  0
  9 10  2  0
 10 11  1  0
 10 12  1  0
 12 13  2  0
  3 14  1  0
 14 15  1  0
 14 16  2  0
 14 17  2  0
 13  7  1  0
  1 18  1  0
  1 19  1  0
  1 20  1  0
  2 21  1  0
  2 22  1  0
  3 23  1  6
  8 24  1  0
  9 25  1  0
 12 26  1  0
 13 27  1  0
 15 28  1  0
 15 29  1  0
 15 30  1  0
M  CHG  1   6  -1
M  END
>  <Binding energies>  (1) 
[-5.94]

>  <Ligand effiencies>  (1) 
[-0.34941176470588237]

>  <Interactions>  (1) 
["V-B:HIS:456:CD2:9039, V-B:GLU:543:C:9874, V-A:GLU:543:C:4902, V-B:GLU:543:CB:9878, H-B:LYS:547:NZ:9923, V-A:GLY:544:CA:4914, V-A:GLY:544:C:4912, H-B:HIS:456:ND1:9038, V-B:LYS:547:CE:9922, V-B:TYR:484:CB:9312, V-B:HIS:456:CE1:9041, V-A:HIS:456:CE1:4070, V-B:GLY:544:C:9884, V-B:GLY:544:CA:9886, H-A:LYS:547:NZ:4951, V-A:GLU:543:CB:4906, V-A:LYS:547:CE:4950, V-B:ASP:473:CB:9210, V-B:ASP:473:CG:9211"]

$$$$
ZINC96524561-again1
     RDKit          3D

 31 31  0  0  0  0  0  0  0  0999 V2000
  126.4310  122.4500   56.7770 C   0  0  0  0  0  0  0  0  0  0  0  0
  127.2720  122.8630   57.9970 C   0  0  0  0  0  0  0  0  0  0  0  0
  126.4740  123.6130   59.0980 C   0  0  1  0  0  0  0  0  0  0  0  0
  126.9150  123.2310   60.5240 C   0  0  0  0  0  0  0  0  0  0  0  0
  126.0480  123.2870   61.4660 N   0  0  0  0  0  0  0  0  0  0  0  0
  126.5030  122.8570   62.7260 O   0  0  0  0  0  0  0  0  0  0  0  0
  128.3480  122.8670   60.6500 C   0  0  0  0  0  0  0  0  0  0  0  0
  129.3490  123.8050   60.3620 C   0  0  0  0  0  0  0  0  0  0  0  0
  130.6940  123.4690   60.4860 C   0  0  0  0  0  0  0  0  0  0  0  0
  131.0510  122.1900   60.9030 C   0  0  0  0  0  0  0  0  0  0  0  0
  132.7190  121.7730   61.0580 Cl  0  0  0  0  0  0  0  0  0  0  0  0
  130.0710  121.2450   61.1970 C   0  0  0  0  0  0  0  0  0  0  0  0
  128.7260  121.5840   61.0720 C   0  0  0  0  0  0  0  0  0  0  0  0
  126.6280  125.4940   58.8330 S   0  0  0  0  0  0  0  0  0  0  0  0
  126.7820  126.1990   60.5770 C   0  0  0  0  0  0  0  0  0  0  0  0
  127.8960  125.7620   58.1440 O   0  0  0  0  0  0  0  0  0  0  0  0
  125.3730  125.9890   58.2590 O   0  0  0  0  0  0  0  0  0  0  0  0
  125.4922  121.9890   57.1179 H   0  0  0  0  0  0  0  0  0  0  0  0
  126.2038  123.3390   56.1704 H   0  0  0  0  0  0  0  0  0  0  0  0
  126.9956  121.7267   56.1704 H   0  0  0  0  0  0  0  0  0  0  0  0
  127.7028  121.9541   58.4423 H   0  0  0  0  0  0  0  0  0  0  0  0
  128.0373  123.5629   57.6301 H   0  0  0  0  0  0  0  0  0  0  0  0
  125.4215  123.3070   59.0054 H   0  0  0  0  0  0  0  0  0  0  0  0
  126.2620  123.5960   63.2890 H   0  0  0  0  0  0  0  0  0  0  0  0
  129.0687  124.8171   60.0346 H   0  0  0  0  0  0  0  0  0  0  0  0
  131.4720  124.2116   60.2553 H   0  0  0  0  0  0  0  0  0  0  0  0
  130.3580  120.2355   61.5264 H   0  0  0  0  0  0  0  0  0  0  0  0
  127.9524  120.8380   61.3066 H   0  0  0  0  0  0  0  0  0  0  0  0
  126.6074  125.3997   61.3123 H   0  0  0  0  0  0  0  0  0  0  0  0
  127.7916  126.6124   60.7176 H   0  0  0  0  0  0  0  0  0  0  0  0
  126.0367  126.9957   60.7176 H   0  0  0  0  0  0  0  0  0  0  0  0
  1  2  1  0
  2  3  1  0
  3  4  1  0
  4  5  2  0
  5  6  1  0
  4  7  1  0
  7  8  2  0
  8  9  1  0
  9 10  2  0
 10 11  1  0
 10 12  1  0
 12 13  2  0
  3 14  1  0
 14 15  1  0
 14 16  2  0
 14 17  2  0
 13  7  1  0
  1 18  1  0
  1 19  1  0
  1 20  1  0
  2 21  1  0
  2 22  1  0
  3 23  1  1
  6 24  1  0
  8 25  1  0
  9 26  1  0
 12 27  1  0
 13 28  1  0
 15 29  1  0
 15 30  1  0
 15 31  1  0
M  END
>  <Binding energies>  (1) 
[-6.12]

>  <Ligand effiencies>  (1) 
[-0.34]

>  <Interactions>  (1) 
["V-A:ILE:369:CG2:3237, V-B:PRO:540:CA:9855, H-B:GLU:543:OE1:9881, V-B:PRO:540:CD:9859, V-B:TYR:539:CD2:9846, H-B:ALA:541:N:9863, V-B:PRO:540:C:9853, V-B:ALA:541:CB:9864, V-B:TYR:539:CE2:9848, V-B:PRO:540:CB:9857, H-B:TYR:531:OH:9767, V-A:LEU:475:CD2:4259, H-B:ALA:541:O:9861, V-B:TYR:539:C:9839, V-B:PRO:540:N:9856"]

$$$$
ZINC96524611
     RDKit          3D

 33 33  0  0  0  0  0  0  0  0999 V2000
  129.4880  131.5070   73.2680 C   0  0  0  0  0  0  0  0  0  0  0  0
  129.7090  130.0140   72.9790 C   0  0  0  0  0  0  0  0  0  0  0  0
  128.4680  129.1130   73.2290 C   0  0  1  0  0  0  0  0  0  0  0  0
  128.7460  127.6560   72.8090 C   0  0  0  0  0  0  0  0  0  0  0  0
  128.8680  126.7640   73.7240 N   0  0  0  0  0  0  0  0  0  0  0  0
  129.1210  125.4680   73.2410 O   0  0  0  0  0  0  0  0  0  0  0  0
  128.7640  127.4410   71.3390 C   0  0  0  0  0  0  0  0  0  0  0  0
  127.5880  127.0740   70.6680 C   0  0  0  0  0  0  0  0  0  0  0  0
  127.5700  126.9260   69.2810 C   0  0  0  0  0  0  0  0  0  0  0  0
  128.7270  127.1580   68.5420 C   0  0  0  0  0  0  0  0  0  0  0  0
  129.9000  127.5380   69.1900 C   0  0  0  0  0  0  0  0  0  0  0  0
  129.9210  127.6870   70.5780 C   0  0  0  0  0  0  0  0  0  0  0  0
  131.0790  128.0640   71.1700 F   0  0  0  0  0  0  0  0  0  0  0  0
  127.9220  129.2520   75.0580 S   0  0  0  0  0  0  0  0  0  0  0  0
  127.1610  128.0470   75.4060 O   0  0  0  0  0  0  0  0  0  0  0  0
  129.0990  129.6080   75.8600 O   0  0  0  0  0  0  0  0  0  0  0  0
  126.7280  130.7220   75.1350 C   0  0  0  0  0  0  0  0  0  0  0  0
  127.4720  132.0130   75.5030 C   0  0  0  0  0  0  0  0  0  0  0  0
  129.4638  131.6703   74.3555 H   0  0  0  0  0  0  0  0  0  0  0  0
  130.3095  132.0912   72.8277 H   0  0  0  0  0  0  0  0  0  0  0  0
  128.5325  131.8282   72.8277 H   0  0  0  0  0  0  0  0  0  0  0  0
  130.0015  129.9090   71.9238 H   0  0  0  0  0  0  0  0  0  0  0  0
  130.4858  129.6739   73.6797 H   0  0  0  0  0  0  0  0  0  0  0  0
  127.6353  129.4643   72.6020 H   0  0  0  0  0  0  0  0  0  0  0  0
  126.6669  126.9005   71.2438 H   0  0  0  0  0  0  0  0  0  0  0  0
  126.6424  126.6262   68.7715 H   0  0  0  0  0  0  0  0  0  0  0  0
  128.7148  127.0414   67.4483 H   0  0  0  0  0  0  0  0  0  0  0  0
  130.8137  127.7215   68.6056 H   0  0  0  0  0  0  0  0  0  0  0  0
  126.2498  130.8494   74.1526 H   0  0  0  0  0  0  0  0  0  0  0  0
  125.9712  130.5201   75.9073 H   0  0  0  0  0  0  0  0  0  0  0  0
  127.5256  132.1060   76.5978 H   0  0  0  0  0  0  0  0  0  0  0  0
  128.4900  131.9807   75.0875 H   0  0  0  0  0  0  0  0  0  0  0  0
  126.9337  132.8776   75.0875 H   0  0  0  0  0  0  0  0  0  0  0  0
  1  2  1  0
  2  3  1  0
  3  4  1  0
  4  5  2  0
  5  6  1  0
  4  7  1  0
  7  8  2  0
  8  9  1  0
  9 10  2  0
 10 11  1  0
 11 12  2  0
 12 13  1  0
  3 14  1  0
 14 15  2  0
 14 16  2  0
 14 17  1  0
 17 18  1  0
 12  7  1  0
  1 19  1  0
  1 20  1  0
  1 21  1  0
  2 22  1  0
  2 23  1  0
  3 24  1  6
  8 25  1  0
  9 26  1  0
 10 27  1  0
 11 28  1  0
 17 29  1  0
 17 30  1  0
 18 31  1  0
 18 32  1  0
 18 33  1  0
M  CHG  1   6  -1
M  END
>  <Binding energies>  (1) 
[-6.32]

>  <Ligand effiencies>  (1) 
[-0.35111111111111115]

>  <Interactions>  (1) 
["V-A:HIS:456:CE1:4070, V-B:HIS:456:CD2:9039, V-B:GLU:543:C:9874, V-A:GLU:543:C:4902, V-A:LYS:547:CE:4950, V-B:GLY:544:C:9884, V-B:GLU:543:CB:9878, H-B:LYS:547:NZ:9923, V-B:HIS:456:CB:9036, V-B:HIS:456:CG:9037, H-A:LYS:547:NZ:4951, V-A:GLY:544:CA:4914, V-A:GLY:544:C:4912, V-B:HIS:456:CE1:9041, V-A:GLU:543:CB:4906"]

$$$$
ZINC96524619-again1
     RDKit          3D

 37 37  0  0  0  0  0  0  0  0999 V2000
  131.3120  121.2130   60.9110 C   0  0  0  0  0  0  0  0  0  0  0  0
  129.7910  121.4180   61.0080 C   0  0  0  0  0  0  0  0  0  0  0  0
  129.3670  122.8240   61.5100 C   0  0  1  0  0  0  0  0  0  0  0  0
  127.8440  123.0480   61.4580 C   0  0  0  0  0  0  0  0  0  0  0  0
  127.1510  122.7580   62.4970 N   0  0  0  0  0  0  0  0  0  0  0  0
  125.7790  123.0600   62.4080 O   0  0  0  0  0  0  0  0  0  0  0  0
  127.3370  123.5540   60.1570 C   0  0  0  0  0  0  0  0  0  0  0  0
  126.6240  124.7610   60.0770 C   0  0  0  0  0  0  0  0  0  0  0  0
  126.1380  125.2270   58.8560 C   0  0  0  0  0  0  0  0  0  0  0  0
  126.3550  124.4930   57.6930 C   0  0  0  0  0  0  0  0  0  0  0  0
  127.0630  123.2900   57.7470 C   0  0  0  0  0  0  0  0  0  0  0  0
  127.2890  122.4770   56.4850 C   0  0  0  0  0  0  0  0  0  0  0  0
  127.5440  122.8280   58.9750 C   0  0  0  0  0  0  0  0  0  0  0  0
  130.0220  123.1030   63.2770 S   0  0  0  0  0  0  0  0  0  0  0  0
  129.3000  122.2020   64.1830 O   0  0  0  0  0  0  0  0  0  0  0  0
  131.4890  123.0690   63.2420 O   0  0  0  0  0  0  0  0  0  0  0  0
  129.4920  124.8710   63.6990 C   0  0  0  0  0  0  0  0  0  0  0  0
  130.0860  125.2940   65.0460 C   0  0  0  0  0  0  0  0  0  0  0  0
  131.7395  121.1554   61.9229 H   0  0  0  0  0  0  0  0  0  0  0  0
  131.5223  120.2784   60.3704 H   0  0  0  0  0  0  0  0  0  0  0  0
  131.7622  122.0586   60.3704 H   0  0  0  0  0  0  0  0  0  0  0  0
  129.3582  121.2640   60.0085 H   0  0  0  0  0  0  0  0  0  0  0  0
  129.4222  120.6942   61.7496 H   0  0  0  0  0  0  0  0  0  0  0  0
  129.8130  123.5608   60.8257 H   0  0  0  0  0  0  0  0  0  0  0  0
  125.7470  123.9500   62.7690 H   0  0  0  0  0  0  0  0  0  0  0  0
  126.4463  125.3473   60.9906 H   0  0  0  0  0  0  0  0  0  0  0  0
  125.5826  126.1755   58.8116 H   0  0  0  0  0  0  0  0  0  0  0  0
  125.9687  124.8606   56.7309 H   0  0  0  0  0  0  0  0  0  0  0  0
  127.5745  121.4500   56.7567 H   0  0  0  0  0  0  0  0  0  0  0  0
  126.3628  122.4554   55.8920 H   0  0  0  0  0  0  0  0  0  0  0  0
  128.0935  122.9365   55.8920 H   0  0  0  0  0  0  0  0  0  0  0  0
  128.0954  121.8770   59.0153 H   0  0  0  0  0  0  0  0  0  0  0  0
  129.8484  125.5543   62.9141 H   0  0  0  0  0  0  0  0  0  0  0  0
  128.3946  124.9113   63.7621 H   0  0  0  0  0  0  0  0  0  0  0  0
  129.4853  124.8662   65.8622 H   0  0  0  0  0  0  0  0  0  0  0  0
  131.1206  124.9282   65.1216 H   0  0  0  0  0  0  0  0  0  0  0  0
  130.0787  126.3914   65.1216 H   0  0  0  0  0  0  0  0  0  0  0  0
  1  2  1  0
  2  3  1  0
  3  4  1  0
  4  5  2  0
  5  6  1  0
  4  7  1  0
  7  8  2  0
  8  9  1  0
  9 10  2  0
 10 11  1  0
 11 12  1  0
 11 13  2  0
  3 14  1  0
 14 15  2  0
 14 16  2  0
 14 17  1  0
 17 18  1  0
 13  7  1  0
  1 19  1  0
  1 20  1  0
  1 21  1  0
  2 22  1  0
  2 23  1  0
  3 24  1  6
  6 25  1  0
  8 26  1  0
  9 27  1  0
 10 28  1  0
 12 29  1  0
 12 30  1  0
 12 31  1  0
 13 32  1  0
 17 33  1  0
 17 34  1  0
 18 35  1  0
 18 36  1  0
 18 37  1  0
M  END
>  <Binding energies>  (1) 
[-6.41]

>  <Ligand effiencies>  (1) 
[-0.3373684210526316]

>  <Interactions>  (1) 
["V-B:TYR:539:CD1:9845, V-B:PRO:540:CA:9855, V-B:TYR:539:CZ:9849, H-B:GLU:543:OE1:9881, V-B:TYR:539:CE1:9847, V-B:TYR:539:CD2:9846, H-B:ALA:541:N:9863, V-B:GLU:543:CD:9880, V-B:TYR:539:CG:9844, V-B:TYR:539:CE2:9848, V-B:PRO:540:CB:9857, V-A:LEU:475:CD2:4259, H-B:ALA:541:O:9861, V-B:GLU:543:CG:9879, V-B:TYR:539:C:9839, V-B:PRO:540:N:9856"]

$$$$
ZINC97164105
     RDKit          3D

 38 38  0  0  0  0  0  0  0  0999 V2000
  129.5370  123.9140   62.5170 C   0  0  0  0  0  0  0  0  0  0  0  0
  130.4020  123.0750   63.4770 C   0  0  0  0  0  0  0  0  0  0  0  0
  129.5990  122.4580   64.6380 C   0  0  0  0  0  0  0  0  0  0  0  0
  131.5480  123.8530   63.9870 N   0  0  0  0  0  0  0  0  0  0  0  0
  131.5760  124.8030   64.9980 C   0  0  0  0  0  0  0  0  0  0  0  0
  130.4680  125.1820   65.7190 N   0  0  0  0  0  0  0  0  0  0  0  0
  130.6710  125.4880   67.1320 C   0  0  0  0  0  0  0  0  0  0  0  0
  129.6000  126.1830   65.1080 C   0  0  0  0  0  0  0  0  0  0  0  0
  132.7870  125.2860   65.1680 N   0  0  0  0  0  0  0  0  0  0  0  0
  133.6200  124.6570   64.2540 N   0  0  0  0  0  0  0  0  0  0  0  0
  132.8700  123.8260   63.5790 C   0  0  0  0  0  0  0  0  0  0  0  0
  133.5000  122.7580   62.2490 S   0  0  0  0  0  0  0  0  0  0  0  0
  134.7200  122.1260   62.7660 O   0  0  0  0  0  0  0  0  0  0  0  0
  132.3760  121.9360   61.7870 O   0  0  0  0  0  0  0  0  0  0  0  0
  133.9760  123.9970   60.8950 C   0  0  0  0  0  0  0  0  0  0  0  0
  132.9040  125.0910   60.7630 C   0  0  0  0  0  0  0  0  0  0  0  0
  132.5190  125.3620   59.3030 C   0  0  0  0  0  0  0  0  0  0  0  0
  133.3270  124.5910   58.3440 C   0  0  0  0  0  0  0  0  0  0  0  0
  133.9620  123.9850   57.5900 N   0  0  0  0  0  0  0  0  0  0  0  0
  128.8673  124.5636   63.0997 H   0  0  0  0  0  0  0  0  0  0  0  0
  130.1884  124.5334   61.8830 H   0  0  0  0  0  0  0  0  0  0  0  0
  128.9377  123.2440   61.8830 H   0  0  0  0  0  0  0  0  0  0  0  0
  130.7857  122.2341   62.8806 H   0  0  0  0  0  0  0  0  0  0  0  0
  130.0276  122.7873   65.5960 H   0  0  0  0  0  0  0  0  0  0  0  0
  128.5508  122.7852   64.5735 H   0  0  0  0  0  0  0  0  0  0  0  0
  129.6452  121.3609   64.5735 H   0  0  0  0  0  0  0  0  0  0  0  0
  130.1671  124.7284   67.7477 H   0  0  0  0  0  0  0  0  0  0  0  0
  131.7479  125.4866   67.3565 H   0  0  0  0  0  0  0  0  0  0  0  0
  130.2510  126.4796   67.3565 H   0  0  0  0  0  0  0  0  0  0  0  0
  129.0973  126.7627   65.8962 H   0  0  0  0  0  0  0  0  0  0  0  0
  130.2027  126.8589   64.4836 H   0  0  0  0  0  0  0  0  0  0  0  0
  128.8456  125.6821   64.4836 H   0  0  0  0  0  0  0  0  0  0  0  0
  134.9384  124.4629   61.1532 H   0  0  0  0  0  0  0  0  0  0  0  0
  134.0575  123.4623   59.9372 H   0  0  0  0  0  0  0  0  0  0  0  0
  132.0054  124.7726   61.3117 H   0  0  0  0  0  0  0  0  0  0  0  0
  133.3219  126.0206   61.1769 H   0  0  0  0  0  0  0  0  0  0  0  0
  131.4608  125.0957   59.1640 H   0  0  0  0  0  0  0  0  0  0  0  0
  132.7025  126.4286   59.1062 H   0  0  0  0  0  0  0  0  0  0  0  0
  1  2  1  0
  2  3  1  0
  2  4  1  0
  4  5  1  0
  5  6  1  0
  6  7  1  0
  6  8  1  0
  5  9  2  0
  9 10  1  0
 10 11  2  0
 11 12  1  0
 12 13  2  0
 12 14  2  0
 12 15  1  0
 15 16  1  0
 16 17  1  0
 17 18  1  0
 18 19  3  0
 11  4  1  0
  1 20  1  0
  1 21  1  0
  1 22  1  0
  2 23  1  0
  3 24  1  0
  3 25  1  0
  3 26  1  0
  7 27  1  0
  7 28  1  0
  7 29  1  0
  8 30  1  0
  8 31  1  0
  8 32  1  0
 15 33  1  0
 15 34  1  0
 16 35  1  0
 16 36  1  0
 17 37  1  0
 17 38  1  0
M  END
>  <Binding energies>  (1) 
[-5.59]

>  <Ligand effiencies>  (1) 
[-0.2942105263157895]

>  <Interactions>  (1) 
["V-A:ILE:369:CG2:3237, V-A:ASP:366:CA:3210, V-A:GLY:454:CA:4049, V-B:ALA:541:CB:9864, V-B:TYR:539:CE2:9848, V-A:TYR:484:CE2:4346, V-B:GLU:543:CG:9879, V-A:ASP:366:CG:3213, V-B:TYR:539:CZ:9849, H-A:ASN:370:N:3244, H-B:TYR:539:OH:9850, V-A:TYR:484:CZ:4347, V-A:GLU:543:CD:4908, H-A:GLY:454:N:4050, V-A:HIS:456:CE1:4070, V-A:ILE:369:CD1:3239, V-A:ASP:366:C:3208, V-B:GLU:543:CD:9880, V-A:ASP:366:CB:3212, V-A:LEU:475:CD2:4259, H-A:ARG:545:NH2:4928, H-A:ARG:545:NE:4924, H-A:TYR:484:OH:4348"]

$$$$
ZINC97939681
     RDKit          3D

 67 69  0  0  0  0  0  0  0  0999 V2000
  129.4910  122.4380   64.3190 C   0  0  0  0  0  0  0  0  0  0  0  0
  130.3550  122.0950   63.1020 C   0  0  0  0  0  0  0  0  0  0  0  0
  129.6340  120.8390   62.0100 S   0  0  0  0  0  0  0  0  0  0  0  0
  129.1620  121.8870   60.6100 C   0  0  0  0  0  0  0  0  0  0  0  0
  128.5680  123.2430   61.0060 C   0  0  0  0  0  0  0  0  0  0  0  0
  129.6230  124.0960   61.4340 O   0  0  0  0  0  0  0  0  0  0  0  0
  130.4200  124.7480   60.5510 C   0  0  0  0  0  0  0  0  0  0  0  0
  131.1630  124.1560   59.7650 O   0  0  0  0  0  0  0  0  0  0  0  0
  130.3240  126.2360   60.6510 C   0  0  0  0  0  0  0  0  0  0  0  0
  130.9620  127.0610   59.7720 C   0  0  0  0  0  0  0  0  0  0  0  0
  131.7550  126.6820   58.5210 C   0  0  0  0  0  0  0  0  0  0  0  0
  130.8540  128.4260   59.9100 N   0  0  0  0  0  0  0  0  0  0  0  0
  130.0760  129.0720   60.8420 C   0  0  0  0  0  0  0  0  0  0  0  0
  129.4150  128.3660   61.7990 C   0  0  0  0  0  0  0  0  0  0  0  0
  128.6120  129.0600   62.8360 C   0  0  0  0  0  0  0  0  0  0  0  0
  128.1960  128.4600   63.8310 O   0  0  0  0  0  0  0  0  0  0  0  0
  128.4090  130.5910   62.6440 C   0  0  1  0  0  0  0  0  0  0  0  0
  127.8680  131.3000   63.9100 C   0  0  0  0  0  0  0  0  0  0  0  0
  128.6300  131.6310   64.8200 O   0  0  0  0  0  0  0  0  0  0  0  0
  126.5230  131.4700   63.9030 O   0  0  0  0  0  0  0  0  0  0  0  0
  125.6550  130.3460   63.8960 C   0  0  0  0  0  0  0  0  0  0  0  0
  129.7070  131.2630   62.0980 C   0  0  2  0  0  0  0  0  0  0  0  0
  129.6000  132.7930   61.8950 C   0  0  0  0  0  0  0  0  0  0  0  0
  130.1120  130.5990   60.7610 C   0  0  0  0  0  0  0  0  0  0  0  0
  129.5680  126.8180   61.8880 C   0  0  2  0  0  0  0  0  0  0  0  0
  130.1420  126.3330   63.2350 C   0  0  0  0  0  0  0  0  0  0  0  0
  129.3310  126.3240   64.3700 C   0  0  0  0  0  0  0  0  0  0  0  0
  129.8250  125.8910   65.6090 C   0  0  0  0  0  0  0  0  0  0  0  0
  129.0600  125.8580   66.7630 O   0  0  0  0  0  0  0  0  0  0  0  0
  128.8300  127.0590   67.4920 C   0  0  0  0  0  0  0  0  0  0  0  0
  131.1620  125.4690   65.7000 C   0  0  0  0  0  0  0  0  0  0  0  0
  131.6160  125.0560   66.9300 O   0  0  0  0  0  0  0  0  0  0  0  0
  132.0070  125.4730   64.5670 C   0  0  0  0  0  0  0  0  0  0  0  0
  133.4370  125.0500   64.6140 N   0  0  0  0  0  0  0  0  0  0  0  0
  134.0110  124.7180   63.5830 O   0  0  0  0  0  0  0  0  0  0  0  0
  134.0090  125.0420   65.7020 O   0  0  0  0  0  0  0  0  0  0  0  0
  131.4660  125.9010   63.3450 C   0  0  0  0  0  0  0  0  0  0  0  0
  130.0501  122.2160   65.2399 H   0  0  0  0  0  0  0  0  0  0  0  0
  129.2325  123.5069   64.2956 H   0  0  0  0  0  0  0  0  0  0  0  0
  128.5697  121.8374   64.2956 H   0  0  0  0  0  0  0  0  0  0  0  0
  130.5079  123.0141   62.5172 H   0  0  0  0  0  0  0  0  0  0  0  0
  131.2952  121.6756   63.4894 H   0  0  0  0  0  0  0  0  0  0  0  0
  130.0585  122.0693   59.9992 H   0  0  0  0  0  0  0  0  0  0  0  0
  128.3742  121.3464   60.0649 H   0  0  0  0  0  0  0  0  0  0  0  0
  128.0582  123.6908   60.1402 H   0  0  0  0  0  0  0  0  0  0  0  0
  127.8402  123.1099   61.8200 H   0  0  0  0  0  0  0  0  0  0  0  0
  132.7108  126.2252   58.8172 H   0  0  0  0  0  0  0  0  0  0  0  0
  131.1751  125.9637   57.9229 H   0  0  0  0  0  0  0  0  0  0  0  0
  131.9497  127.5844   57.9229 H   0  0  0  0  0  0  0  0  0  0  0  0
  131.4060  128.9980   59.2890 H   0  0  0  0  0  0  0  0  0  0  0  0
  127.6220  130.7133   61.8853 H   0  0  0  0  0  0  0  0  0  0  0  0
  125.4278  130.0518   64.9313 H   0  0  0  0  0  0  0  0  0  0  0  0
  124.7216  130.6068   63.3757 H   0  0  0  0  0  0  0  0  0  0  0  0
  126.1433  129.5089   63.3757 H   0  0  0  0  0  0  0  0  0  0  0  0
  130.4732  131.1084   62.8719 H   0  0  0  0  0  0  0  0  0  0  0  0
  129.5651  133.2914   62.8750 H   0  0  0  0  0  0  0  0  0  0  0  0
  130.4753  133.1504   61.3328 H   0  0  0  0  0  0  0  0  0  0  0  0
  128.6834  133.0251   61.3328 H   0  0  0  0  0  0  0  0  0  0  0  0
  129.4156  130.9289   59.9760 H   0  0  0  0  0  0  0  0  0  0  0  0
  131.1445  130.9015   60.5320 H   0  0  0  0  0  0  0  0  0  0  0  0
  128.5487  126.4057   61.8553 H   0  0  0  0  0  0  0  0  0  0  0  0
  128.2871  126.6620   64.2919 H   0  0  0  0  0  0  0  0  0  0  0  0
  128.8706  126.8467   68.5706 H   0  0  0  0  0  0  0  0  0  0  0  0
  129.6029  127.7980   67.2344 H   0  0  0  0  0  0  0  0  0  0  0  0
  127.8387  127.4602   67.2344 H   0  0  0  0  0  0  0  0  0  0  0  0
  132.2960  124.3810   66.8660 H   0  0  0  0  0  0  0  0  0  0  0  0
  132.1027  125.8962   62.4480 H   0  0  0  0  0  0  0  0  0  0  0  0
  1  2  1  0
  2  3  1  0
  3  4  1  0
  4  5  1  0
  5  6  1  0
  6  7  1  0
  7  8  2  0
  7  9  1  0
  9 10  2  0
 10 11  1  0
 10 12  1  0
 12 13  1  0
 13 14  2  0
 14 15  1  0
 15 16  2  0
 15 17  1  0
 17 18  1  0
 18 19  2  0
 18 20  1  0
 20 21  1  0
 17 22  1  0
 22 23  1  0
 22 24  1  0
 14 25  1  0
 25 26  1  0
 26 27  2  0
 27 28  1  0
 28 29  1  0
 29 30  1  0
 28 31  2  0
 31 32  1  0
 31 33  1  0
 33 34  1  0
 34 35  2  0
 34 36  1  0
 33 37  2  0
 25  9  1  0
 37 26  1  0
 24 13  1  0
  1 38  1  0
  1 39  1  0
  1 40  1  0
  2 41  1  0
  2 42  1  0
  4 43  1  0
  4 44  1  0
  5 45  1  0
  5 46  1  0
 11 47  1  0
 11 48  1  0
 11 49  1  0
 12 50  1  0
 17 51  1  6
 21 52  1  0
 21 53  1  0
 21 54  1  0
 22 55  1  1
 23 56  1  0
 23 57  1  0
 23 58  1  0
 24 59  1  0
 24 60  1  0
 25 61  1  6
 27 62  1  0
 30 63  1  0
 30 64  1  0
 30 65  1  0
 32 66  1  0
 37 67  1  0
M  CHG  2  34   1  36  -1
M  END
>  <Binding energies>  (1) 
[-6.44]

>  <Ligand effiencies>  (1) 
[-0.16512820512820514]

>  <Interactions>  (1) 
["V-B:PRO:540:CA:9855, V-A:PRO:540:C:4881, V-B:GLU:543:CB:9878, V-B:ALA:541:CB:9864, H-A:ARG:545:NH1:4927, V-B:TYR:539:CE2:9848, V-A:TYR:484:CE2:4346, V-B:GLU:543:CG:9879, V-B:TYR:539:C:9839, V-A:ASP:366:CG:3213, V-A:ALA:541:CB:4892, H-B:ALA:541:N:9863, V-A:GLU:543:CD:4908, H-B:TYR:484:OH:9319, H-A:GLY:454:N:4050, V-A:ALA:541:CA:4890, V-B:TYR:539:CD2:9846, V-B:GLU:543:CD:9880, V-A:ASP:366:CB:3212, V-A:LEU:475:CD2:4259, H-A:ARG:545:NH2:4928, V-A:ARG:545:CZ:4926, V-A:PRO:540:CA:4883, H-A:ARG:545:NE:4924, H-A:ASP:366:OD2:3215, H-A:TYR:484:OH:4348"]

$$$$
ZINC97939684
     RDKit          3D

 65 68  0  0  0  0  0  0  0  0999 V2000
  134.0300  124.3770   59.9450 C   0  0  0  0  0  0  0  0  0  0  0  0
  134.4820  124.2680   61.4050 C   0  0  0  0  0  0  0  0  0  0  0  0
  134.2310  122.9420   61.8610 O   0  0  0  0  0  0  0  0  0  0  0  0
  132.9610  122.4020   61.7400 C   0  0  0  0  0  0  0  0  0  0  0  0
  131.8000  123.0550   62.1760 C   0  0  0  0  0  0  0  0  0  0  0  0
  130.5440  122.4690   62.0270 C   0  0  0  0  0  0  0  0  0  0  0  0
  129.2870  123.2270   62.4980 C   0  0  2  0  0  0  0  0  0  0  0  0
  128.5740  124.0210   61.3560 C   0  0  0  0  0  0  0  0  0  0  0  0
  128.1760  123.2500   60.1410 C   0  0  0  0  0  0  0  0  0  0  0  0
  127.9580  122.0360   60.1350 O   0  0  0  0  0  0  0  0  0  0  0  0
  128.0460  124.0200   59.0300 O   0  0  0  0  0  0  0  0  0  0  0  0
  128.6520  123.6600   57.7940 C   0  0  0  0  0  0  0  0  0  0  0  0
  127.5380  123.5480   56.7470 C   0  0  0  0  0  0  0  0  0  0  0  0
  127.0240  122.2240   56.7550 O   0  0  0  0  0  0  0  0  0  0  0  0
  125.6370  122.1610   56.4540 C   0  0  0  0  0  0  0  0  0  0  0  0
  128.4200  125.3750   61.4350 C   0  0  0  0  0  0  0  0  0  0  0  0
  127.7400  126.3090   60.4360 C   0  0  0  0  0  0  0  0  0  0  0  0
  128.8200  126.0480   62.5680 N   0  0  0  0  0  0  0  0  0  0  0  0
  129.3720  125.4670   63.6870 C   0  0  0  0  0  0  0  0  0  0  0  0
  129.5440  124.1180   63.7450 C   0  0  0  0  0  0  0  0  0  0  0  0
  130.0230  123.4680   64.9900 C   0  0  0  0  0  0  0  0  0  0  0  0
  130.3110  122.2730   65.0430 O   0  0  0  0  0  0  0  0  0  0  0  0
  130.2660  124.3700   66.2120 C   0  0  0  0  0  0  0  0  0  0  0  0
  129.3950  125.6470   66.2050 C   0  0  1  0  0  0  0  0  0  0  0  0
  129.6060  126.5100   67.4440 C   0  0  0  0  0  0  0  0  0  0  0  0
  130.7900  126.9480   68.0460 C   0  0  0  0  0  0  0  0  0  0  0  0
  130.6100  127.7370   69.1860 C   0  0  0  0  0  0  0  0  0  0  0  0
  129.2760  127.9270   69.4900 C   0  0  0  0  0  0  0  0  0  0  0  0
  128.2460  127.1220   68.3580 S   0  0  0  0  0  0  0  0  0  0  0  0
  129.5930  126.4070   64.8720 C   0  0  0  0  0  0  0  0  0  0  0  0
  130.4520  121.2050   61.4390 C   0  0  0  0  0  0  0  0  0  0  0  0
  131.5860  120.5170   60.9800 C   0  0  0  0  0  0  0  0  0  0  0  0
  131.4090  119.1800   60.3410 N   0  0  0  0  0  0  0  0  0  0  0  0
  132.1330  118.8840   59.3940 O   0  0  0  0  0  0  0  0  0  0  0  0
  130.5610  118.4040   60.7670 O   0  0  0  0  0  0  0  0  0  0  0  0
  132.8470  121.1360   61.1430 C   0  0  0  0  0  0  0  0  0  0  0  0
  134.0060  120.5300   60.7230 O   0  0  0  0  0  0  0  0  0  0  0  0
  132.9612  124.6347   59.9103 H   0  0  0  0  0  0  0  0  0  0  0  0
  134.6127  125.1604   59.4383 H   0  0  0  0  0  0  0  0  0  0  0  0
  134.1916  123.4141   59.4383 H   0  0  0  0  0  0  0  0  0  0  0  0
  135.5575  124.4873   61.4773 H   0  0  0  0  0  0  0  0  0  0  0  0
  133.9287  124.9893   62.0244 H   0  0  0  0  0  0  0  0  0  0  0  0
  131.8814  124.0472   62.6439 H   0  0  0  0  0  0  0  0  0  0  0  0
  128.5859  122.4390   62.8104 H   0  0  0  0  0  0  0  0  0  0  0  0
  129.3747  124.4322   57.4916 H   0  0  0  0  0  0  0  0  0  0  0  0
  129.1888  122.7048   57.8907 H   0  0  0  0  0  0  0  0  0  0  0  0
  126.7327  124.2572   56.9887 H   0  0  0  0  0  0  0  0  0  0  0  0
  127.9408  123.7831   55.7508 H   0  0  0  0  0  0  0  0  0  0  0  0
  125.0595  122.1348   57.3899 H   0  0  0  0  0  0  0  0  0  0  0  0
  125.3480  123.0469   55.8695 H   0  0  0  0  0  0  0  0  0  0  0  0
  125.4295  121.2525   55.8695 H   0  0  0  0  0  0  0  0  0  0  0  0
  127.1775  127.0816   60.9807 H   0  0  0  0  0  0  0  0  0  0  0  0
  128.5025  126.7877   59.8039 H   0  0  0  0  0  0  0  0  0  0  0  0
  127.0503  125.7304   59.8039 H   0  0  0  0  0  0  0  0  0  0  0  0
  128.7730  127.0560   62.5460 H   0  0  0  0  0  0  0  0  0  0  0  0
  130.0382  123.7957   67.1221 H   0  0  0  0  0  0  0  0  0  0  0  0
  131.3180  124.6899   66.1799 H   0  0  0  0  0  0  0  0  0  0  0  0
  128.3367  125.3522   66.2616 H   0  0  0  0  0  0  0  0  0  0  0  0
  131.7850  126.6917   67.6532 H   0  0  0  0  0  0  0  0  0  0  0  0
  131.4377  128.1591   69.7748 H   0  0  0  0  0  0  0  0  0  0  0  0
  128.9141  128.5166   70.3452 H   0  0  0  0  0  0  0  0  0  0  0  0
  128.8723  127.2362   64.8166 H   0  0  0  0  0  0  0  0  0  0  0  0
  130.6207  126.7973   64.8321 H   0  0  0  0  0  0  0  0  0  0  0  0
  129.4628  120.7357   61.3328 H   0  0  0  0  0  0  0  0  0  0  0  0
  134.7840  120.8910   61.1550 H   0  0  0  0  0  0  0  0  0  0  0  0
  1  2  1  0
  2  3  1  0
  3  4  1  0
  4  5  2  0
  5  6  1  0
  6  7  1  0
  7  8  1  0
  8  9  1  0
  9 10  2  0
  9 11  1  0
 11 12  1  0
 12 13  1  0
 13 14  1  0
 14 15  1  0
  8 16  2  0
 16 17  1  0
 16 18  1  0
 18 19  1  0
 19 20  2  0
 20 21  1  0
 21 22  2  0
 21 23  1  0
 23 24  1  0
 24 25  1  0
 25 26  2  0
 26 27  1  0
 27 28  2  0
 28 29  1  0
 24 30  1  0
  6 31  2  0
 31 32  1  0
 32 33  1  0
 33 34  2  0
 33 35  1  0
 32 36  2  0
 36 37  1  0
 36  4  1  0
 20  7  1  0
 29 25  1  0
 30 19  1  0
  1 38  1  0
  1 39  1  0
  1 40  1  0
  2 41  1  0
  2 42  1  0
  5 43  1  0
  7 44  1  1
 12 45  1  0
 12 46  1  0
 13 47  1  0
 13 48  1  0
 15 49  1  0
 15 50  1  0
 15 51  1  0
 17 52  1  0
 17 53  1  0
 17 54  1  0
 18 55  1  0
 23 56  1  0
 23 57  1  0
 24 58  1  6
 26 59  1  0
 27 60  1  0
 28 61  1  0
 30 62  1  0
 30 63  1  0
 31 64  1  0
 37 65  1  0
M  CHG  2  33   1  35  -1
M  END
>  <Binding energies>  (1) 
[-8.17]

>  <Ligand effiencies>  (1) 
[-0.2094871794871795]

>  <Interactions>  (1) 
["V-A:ILE:369:CG2:3237, V-A:ASP:366:CA:3210, V-B:PRO:540:CA:9855, V-A:ILE:369:CB:3236, V-A:GLU:543:C:4902, V-B:GLU:543:CB:9878, V-B:TYR:539:CE2:9848, V-A:TYR:484:CE2:4346, H-B:TYR:539:N:9842, V-B:GLU:543:CG:9879, V-A:ASP:366:CG:3213, V-B:TYR:539:CZ:9849, H-B:GLU:543:OE1:9881, V-B:ILE:538:CG2:9835, H-B:ALA:541:N:9863, V-A:TYR:484:CZ:4347, V-A:GLU:543:CD:4908, V-B:PRO:540:CB:9857, V-B:HIS:456:CE1:9041, H-A:GLY:454:N:4050, V-B:PRO:540:N:9856, V-A:ILE:369:CD1:3239, V-A:HIS:456:CE1:4070, V-B:TYR:539:CD2:9846, V-B:PRO:540:CD:9859, H-A:SER:385:OG:3410, V-B:GLU:543:CD:9880, V-A:ASP:366:CB:3212, V-A:LEU:475:CD2:4259, H-A:GLU:543:OE1:4909, V-A:GLU:543:CB:4906, H-A:HIS:383:HE2:3395, V-B:PRO:540:CG:9858, V-B:LEU:363:CD1:8160, H-A:SER:385:O:3406, V-B:MET:535:CE:9807, V-B:TYR:539:CE1:9847, H-A:TYR:484:OH:4348"]

$$$$
ZINC97942937
     RDKit          3D

 43 44  0  0  0  0  0  0  0  0999 V2000
  132.9850  132.2120   62.0220 C   0  0  0  0  0  0  0  0  0  0  0  0
  131.6010  131.8190   62.5460 C   0  0  0  0  0  0  0  0  0  0  0  0
  130.6160  132.3220   61.6490 O   0  0  0  0  0  0  0  0  0  0  0  0
  130.5040  131.7830   60.3800 C   0  0  0  0  0  0  0  0  0  0  0  0
  131.0910  130.5670   59.9880 C   0  0  0  0  0  0  0  0  0  0  0  0
  130.9330  130.0680   58.6870 C   0  0  0  0  0  0  0  0  0  0  0  0
  131.5300  128.7900   58.2400 C   0  0  0  0  0  0  0  0  0  0  0  0
  131.3760  127.5810   58.8240 C   0  0  0  0  0  0  0  0  0  0  0  0
  132.0100  126.3700   58.3150 C   0  0  0  0  0  0  0  0  0  0  0  0
  132.8490  126.3760   57.4060 O   0  0  0  0  0  0  0  0  0  0  0  0
  131.5450  125.2520   58.9820 O   0  0  0  0  0  0  0  0  0  0  0  0
  132.4920  124.6790   59.8590 N   0  0  0  0  0  0  0  0  0  0  0  0
  133.5120  123.9180   59.3990 C   0  0  0  0  0  0  0  0  0  0  0  0
  133.7470  123.5840   58.2380 O   0  0  0  0  0  0  0  0  0  0  0  0
  134.3460  123.5350   60.6100 C   0  0  0  0  0  0  0  0  0  0  0  0
  133.7070  124.2620   61.7720 C   0  0  0  0  0  0  0  0  0  0  0  0
  132.5410  125.0230   61.1680 C   0  0  0  0  0  0  0  0  0  0  0  0
  131.8020  125.7970   61.7770 O   0  0  0  0  0  0  0  0  0  0  0  0
  130.1720  130.8050   57.7750 C   0  0  0  0  0  0  0  0  0  0  0  0
  129.5830  132.0120   58.1460 C   0  0  0  0  0  0  0  0  0  0  0  0
  128.5520  132.9780   56.8660 Br  0  0  0  0  0  0  0  0  0  0  0  0
  129.7520  132.5050   59.4430 C   0  0  0  0  0  0  0  0  0  0  0  0
  129.1610  133.6950   59.7940 O   0  0  0  0  0  0  0  0  0  0  0  0
  127.9240  133.5610   60.4830 C   0  0  0  0  0  0  0  0  0  0  0  0
  128.0940  134.0850   61.9100 C   0  0  0  0  0  0  0  0  0  0  0  0
  133.6578  132.4031   62.8710 H   0  0  0  0  0  0  0  0  0  0  0  0
  133.3911  131.3936   61.4093 H   0  0  0  0  0  0  0  0  0  0  0  0
  132.9004  133.1216   61.4093 H   0  0  0  0  0  0  0  0  0  0  0  0
  131.5242  130.7232   62.6042 H   0  0  0  0  0  0  0  0  0  0  0  0
  131.4455  132.2409   63.5499 H   0  0  0  0  0  0  0  0  0  0  0  0
  131.6858  129.9959   60.7161 H   0  0  0  0  0  0  0  0  0  0  0  0
  132.1633  128.8278   57.3414 H   0  0  0  0  0  0  0  0  0  0  0  0
  130.7452  127.5070   59.7221 H   0  0  0  0  0  0  0  0  0  0  0  0
  134.3165  122.4473   60.7713 H   0  0  0  0  0  0  0  0  0  0  0  0
  135.4046  123.8065   60.4849 H   0  0  0  0  0  0  0  0  0  0  0  0
  133.3512  123.5458   62.5273 H   0  0  0  0  0  0  0  0  0  0  0  0
  134.4168  124.9307   62.2809 H   0  0  0  0  0  0  0  0  0  0  0  0
  130.0364  130.4271   56.7509 H   0  0  0  0  0  0  0  0  0  0  0  0
  127.1478  134.1437   59.9654 H   0  0  0  0  0  0  0  0  0  0  0  0
  127.6228  132.5033   60.5071 H   0  0  0  0  0  0  0  0  0  0  0  0
  127.8362  133.2903   62.6256 H   0  0  0  0  0  0  0  0  0  0  0  0
  129.1383  134.3936   62.0653 H   0  0  0  0  0  0  0  0  0  0  0  0
  127.4297  134.9479   62.0653 H   0  0  0  0  0  0  0  0  0  0  0  0
  1  2  1  0
  2  3  1  0
  3  4  1  0
  4  5  2  0
  5  6  1  0
  6  7  1  0
  7  8  2  0
  8  9  1  0
  9 10  2  0
  9 11  1  0
 11 12  1  0
 12 13  1  0
 13 14  2  0
 13 15  1  0
 15 16  1  0
 16 17  1  0
 17 18  2  0
  6 19  2  0
 19 20  1  0
 20 21  1  0
 20 22  2  0
 22 23  1  0
 23 24  1  0
 24 25  1  0
 22  4  1  0
 17 12  1  0
  1 26  1  0
  1 27  1  0
  1 28  1  0
  2 29  1  0
  2 30  1  0
  5 31  1  0
  7 32  1  0
  8 33  1  0
 15 34  1  0
 15 35  1  0
 16 36  1  0
 16 37  1  0
 19 38  1  0
 24 39  1  0
 24 40  1  0
 25 41  1  0
 25 42  1  0
 25 43  1  0
M  END
>  <Binding energies>  (1) 
[-6.04]

>  <Ligand effiencies>  (1) 
[-0.2416]

>  <Interactions>  (1) 
["V-A:ILE:369:CG2:3237, V-A:ASP:366:CA:3210, V-A:ALA:541:C:4888, V-A:ILE:369:CB:3236, H-A:ALA:541:N:4891, V-A:PRO:540:C:4881, H-A:TYR:531:OH:4795, V-B:TYR:539:CE2:9848, V-B:LEU:475:CD2:9230, V-A:ASP:366:CG:3213, V-A:ASN:362:CB:3176, V-A:TYR:539:CD1:4873, V-A:TYR:539:CZ:4877, H-B:TYR:539:OH:9850, V-A:ALA:541:CB:4892, V-A:GLU:543:CD:4908, V-A:ILE:369:CD1:3239, V-A:ALA:541:CA:4890, V-A:GLU:543:CG:4907, V-A:TYR:539:C:4867, V-A:ASP:366:CB:3212, V-A:ILE:369:CG1:3238, H-A:ARG:545:NH2:4928, V-A:PRO:540:N:4884, V-A:TYR:539:CG:4872, V-A:PRO:540:CB:4885, V-A:PRO:540:CA:4883, V-A:TYR:539:CD2:4874, V-A:TYR:539:CE1:4875"]

$$$$
ZINC97946387
     RDKit          3D

 60 64  0  0  0  0  0  0  0  0999 V2000
  127.2320  134.0180   61.6600 C   0  0  0  0  0  0  0  0  0  0  0  0
  128.2500  133.3610   61.0830 C   0  0  0  0  0  0  0  0  0  0  0  0
  129.4650  132.8310   61.8250 C   0  0  0  0  0  0  0  0  0  0  0  0
  129.6110  131.3600   61.7380 N   0  0  0  0  0  0  0  0  0  0  0  0
  128.6610  130.5560   62.2830 C   0  0  0  0  0  0  0  0  0  0  0  0
  127.6510  130.9610   62.8660 O   0  0  0  0  0  0  0  0  0  0  0  0
  129.0010  129.1680   62.0620 C   0  0  0  0  0  0  0  0  0  0  0  0
  128.1800  128.1670   62.4530 C   0  0  0  0  0  0  0  0  0  0  0  0
  128.4220  126.7430   62.2080 C   0  0  0  0  0  0  0  0  0  0  0  0
  128.9470  125.8960   63.1440 C   0  0  0  0  0  0  0  0  0  0  0  0
  129.2970  126.3000   64.4230 N   0  0  0  0  0  0  0  0  0  0  0  0
  128.7970  127.5560   64.9790 C   0  0  0  0  0  0  0  0  0  0  0  0
  128.6080  127.4730   66.5090 C   0  0  0  0  0  0  0  0  0  0  0  0
  129.7740  126.9830   67.2620 N   0  0  0  0  0  0  0  0  0  0  0  0
  129.8570  127.1980   68.6390 C   0  0  0  0  0  0  0  0  0  0  0  0
  131.0150  127.7610   69.2020 C   0  0  0  0  0  0  0  0  0  0  0  0
  131.1180  127.9740   70.5760 C   0  0  0  0  0  0  0  0  0  0  0  0
  130.0650  127.6260   71.4180 C   0  0  0  0  0  0  0  0  0  0  0  0
  128.9100  127.0610   70.8840 C   0  0  0  0  0  0  0  0  0  0  0  0
  127.6010  126.6260   71.9220 Cl  0  0  0  0  0  0  0  0  0  0  0  0
  128.8090  126.8460   69.5080 C   0  0  0  0  0  0  0  0  0  0  0  0
  130.3570  125.7890   66.6300 C   0  0  0  0  0  0  0  0  0  0  0  0
  130.5190  125.8500   65.0950 C   0  0  0  0  0  0  0  0  0  0  0  0
  129.1290  124.5630   62.9090 N   0  0  0  0  0  0  0  0  0  0  0  0
  128.8150  124.0460   61.7710 C   0  0  0  0  0  0  0  0  0  0  0  0
  128.9990  122.6100   61.5030 C   0  0  0  0  0  0  0  0  0  0  0  0
  129.5650  121.6780   62.5700 C   0  0  0  0  0  0  0  0  0  0  0  0
  128.6580  122.1010   60.2900 C   0  0  0  0  0  0  0  0  0  0  0  0
  128.1150  122.9510   59.2470 C   0  0  0  0  0  0  0  0  0  0  0  0
  127.9620  124.2570   59.5300 C   0  0  0  0  0  0  0  0  0  0  0  0
  128.2830  124.8540   60.7460 N   0  0  0  0  0  0  0  0  0  0  0  0
  128.0640  126.2130   60.8890 C   0  0  0  0  0  0  0  0  0  0  0  0
  127.6080  126.9500   60.0060 O   0  0  0  0  0  0  0  0  0  0  0  0
  130.5580  129.0530   61.2450 S   0  0  0  0  0  0  0  0  0  0  0  0
  130.6890  130.7840   61.1210 C   0  0  0  0  0  0  0  0  0  0  0  0
  132.0040  131.4540   60.3430 S   0  0  0  0  0  0  0  0  0  0  0  0
  126.3875  134.3695   61.0490 H   0  0  0  0  0  0  0  0  0  0  0  0
  127.2421  134.2051   62.7439 H   0  0  0  0  0  0  0  0  0  0  0  0
  128.2012  133.1946   59.9968 H   0  0  0  0  0  0  0  0  0  0  0  0
  130.3652  133.2967   61.3976 H   0  0  0  0  0  0  0  0  0  0  0  0
  129.3319  133.0821   62.8877 H   0  0  0  0  0  0  0  0  0  0  0  0
  127.2631  128.4422   62.9948 H   0  0  0  0  0  0  0  0  0  0  0  0
  129.5164  128.3567   64.7524 H   0  0  0  0  0  0  0  0  0  0  0  0
  127.8168  127.7637   64.5250 H   0  0  0  0  0  0  0  0  0  0  0  0
  128.3655  128.4810   66.8765 H   0  0  0  0  0  0  0  0  0  0  0  0
  127.8072  126.7378   66.6767 H   0  0  0  0  0  0  0  0  0  0  0  0
  131.8545  128.0384   68.5475 H   0  0  0  0  0  0  0  0  0  0  0  0
  132.0328  128.4178   70.9957 H   0  0  0  0  0  0  0  0  0  0  0  0
  130.1454  127.7969   72.5017 H   0  0  0  0  0  0  0  0  0  0  0  0
  127.8944  126.3937   69.0970 H   0  0  0  0  0  0  0  0  0  0  0  0
  131.3531  125.6280   67.0680 H   0  0  0  0  0  0  0  0  0  0  0  0
  129.6454  124.9726   66.8223 H   0  0  0  0  0  0  0  0  0  0  0  0
  131.3333  126.5488   64.8530 H   0  0  0  0  0  0  0  0  0  0  0  0
  130.7426  124.8331   64.7401 H   0  0  0  0  0  0  0  0  0  0  0  0
  129.3245  122.0740   63.5677 H   0  0  0  0  0  0  0  0  0  0  0  0
  129.1216  120.6778   62.4558 H   0  0  0  0  0  0  0  0  0  0  0  0
  130.6570  121.6102   62.4558 H   0  0  0  0  0  0  0  0  0  0  0  0
  128.7959  121.0271   60.0957 H   0  0  0  0  0  0  0  0  0  0  0  0
  127.8392  122.5433   58.2633 H   0  0  0  0  0  0  0  0  0  0  0  0
  127.5517  124.9030   58.7399 H   0  0  0  0  0  0  0  0  0  0  0  0
  1  2  2  0
  2  3  1  0
  3  4  1  0
  4  5  1  0
  5  6  2  0
  5  7  1  0
  7  8  2  0
  8  9  1  0
  9 10  2  0
 10 11  1  0
 11 12  1  0
 12 13  1  0
 13 14  1  0
 14 15  1  0
 15 16  2  0
 16 17  1  0
 17 18  2  0
 18 19  1  0
 19 20  1  0
 19 21  2  0
 14 22  1  0
 22 23  1  0
 10 24  1  0
 24 25  2  0
 25 26  1  0
 26 27  1  0
 26 28  2  0
 28 29  1  0
 29 30  2  0
 30 31  1  0
 31 32  1  0
 32 33  2  0
  7 34  1  0
 34 35  1  0
 35 36  2  0
 35  4  1  0
 32  9  1  0
 23 11  1  0
 31 25  1  0
 21 15  1  0
  1 37  1  0
  1 38  1  0
  2 39  1  0
  3 40  1  0
  3 41  1  0
  8 42  1  0
 12 43  1  0
 12 44  1  0
 13 45  1  0
 13 46  1  0
 16 47  1  0
 17 48  1  0
 18 49  1  0
 21 50  1  0
 22 51  1  0
 22 52  1  0
 23 53  1  0
 23 54  1  0
 27 55  1  0
 27 56  1  0
 27 57  1  0
 28 58  1  0
 29 59  1  0
 30 60  1  0
M  END
>  <Binding energies>  (1) 
[-7.7]

>  <Ligand effiencies>  (1) 
[-0.2138888888888889]

>  <Interactions>  (1) 
["V-B:PRO:540:CA:9855, V-B:GLU:543:C:9874, V-A:GLU:543:C:4902, V-A:PRO:540:C:4881, V-B:GLU:543:CB:9878, V-B:ALA:541:CB:9864, V-B:TYR:539:CE2:9848, V-B:LEU:475:CD2:9230, V-B:GLU:543:CG:9879, V-B:TYR:539:C:9839, V-A:GLY:544:C:4912, V-A:TYR:539:CD1:4873, V-A:ALA:541:CB:4892, V-B:LYS:547:CE:9922, V-A:GLU:543:CD:4908, V-A:ARG:545:CG:4922, V-B:PRO:540:N:9856, V-A:HIS:456:CE1:4070, V-B:GLY:544:C:9884, V-B:TYR:539:CD2:9846, V-B:GLY:544:CA:9886, V-B:GLU:543:CD:9880, V-A:LEU:475:CD2:4259, V-A:GLU:543:CB:4906, V-A:PRO:540:CB:4885, V-A:PRO:540:CA:4883, V-B:PRO:540:C:9853"]

$$$$
ZINC97954053
     RDKit          3D

 71 75  0  0  0  0  0  0  0  0999 V2000
  126.0990  122.4680   56.8040 C   0  0  0  0  0  0  0  0  0  0  0  0
  127.4290  122.6500   56.8400 C   0  0  0  0  0  0  0  0  0  0  0  0
  128.1980  123.2130   58.0250 C   0  0  0  0  0  0  0  0  0  0  0  0
  127.9490  122.4680   59.2170 O   0  0  0  0  0  0  0  0  0  0  0  0
  128.8490  122.5010   60.2720 C   0  0  0  0  0  0  0  0  0  0  0  0
  129.5350  121.3720   60.7460 C   0  0  0  0  0  0  0  0  0  0  0  0
  130.4380  121.4790   61.8010 C   0  0  0  0  0  0  0  0  0  0  0  0
  130.6800  122.7160   62.3970 C   0  0  0  0  0  0  0  0  0  0  0  0
  131.7130  122.8220   63.5240 C   0  0  2  0  0  0  0  0  0  0  0  0
  131.3960  123.8300   64.6010 C   0  0  0  0  0  0  0  0  0  0  0  0
  130.1370  123.8420   65.3670 C   0  0  0  0  0  0  0  0  0  0  0  0
  129.4980  122.7970   65.5000 O   0  0  0  0  0  0  0  0  0  0  0  0
  129.7370  125.0710   66.1210 C   0  0  0  0  0  0  0  0  0  0  0  0
  129.8530  125.0980   67.5200 C   0  0  0  0  0  0  0  0  0  0  0  0
  129.4740  126.2280   68.2460 C   0  0  0  0  0  0  0  0  0  0  0  0
  128.9620  127.3380   67.5780 C   0  0  0  0  0  0  0  0  0  0  0  0
  128.8010  127.3070   66.1840 C   0  0  0  0  0  0  0  0  0  0  0  0
  129.1840  126.1790   65.4590 C   0  0  0  0  0  0  0  0  0  0  0  0
  128.3260  128.3940   65.4770 O   0  0  0  0  0  0  0  0  0  0  0  0
  127.6180  129.3470   66.2760 C   0  0  0  0  0  0  0  0  0  0  0  0
  128.3800  129.6250   67.5930 C   0  0  0  0  0  0  0  0  0  0  0  0
  128.5540  128.4160   68.3380 O   0  0  0  0  0  0  0  0  0  0  0  0
  132.4070  124.7160   64.6550 C   0  0  0  0  0  0  0  0  0  0  0  0
  132.6330  125.8280   65.4050 O   0  0  0  0  0  0  0  0  0  0  0  0
  133.4460  124.3980   63.6940 C   0  0  0  0  0  0  0  0  0  0  0  0
  134.5030  124.9970   63.4890 O   0  0  0  0  0  0  0  0  0  0  0  0
  133.0110  123.2850   63.0640 N   0  0  0  0  0  0  0  0  0  0  0  0
  133.7860  122.6020   62.0220 C   0  0  0  0  0  0  0  0  0  0  0  0
  133.3320  122.9420   60.5900 C   0  0  0  0  0  0  0  0  0  0  0  0
  133.7740  124.3470   60.1460 C   0  0  0  0  0  0  0  0  0  0  0  0
  132.6180  125.1740   59.8310 N   0  0  0  0  0  0  0  0  0  0  0  0
  131.9040  125.1970   58.6600 C   0  0  0  0  0  0  0  0  0  0  0  0
  130.8940  126.1250   58.8620 C   0  0  0  0  0  0  0  0  0  0  0  0
  130.9490  126.6580   60.0710 N   0  0  0  0  0  0  0  0  0  0  0  0
  131.9800  126.0800   60.6420 C   0  0  0  0  0  0  0  0  0  0  0  0
  129.9800  123.8390   61.9450 C   0  0  0  0  0  0  0  0  0  0  0  0
  129.0630  123.7440   60.8840 C   0  0  0  0  0  0  0  0  0  0  0  0
  128.3540  124.8230   60.3870 O   0  0  0  0  0  0  0  0  0  0  0  0
  127.1950  125.2840   61.0750 C   0  0  0  0  0  0  0  0  0  0  0  0
  126.0570  124.2870   60.8410 C   0  0  0  0  0  0  0  0  0  0  0  0
  125.6248  122.0535   55.9021 H   0  0  0  0  0  0  0  0  0  0  0  0
  125.4837  122.7334   57.6764 H   0  0  0  0  0  0  0  0  0  0  0  0
  128.0052  122.3710   55.9455 H   0  0  0  0  0  0  0  0  0  0  0  0
  129.2743  123.1780   57.8008 H   0  0  0  0  0  0  0  0  0  0  0  0
  127.8638  124.2478   58.1908 H   0  0  0  0  0  0  0  0  0  0  0  0
  129.3575  120.3919   60.2792 H   0  0  0  0  0  0  0  0  0  0  0  0
  130.9626  120.5835   62.1656 H   0  0  0  0  0  0  0  0  0  0  0  0
  131.7026  121.7899   63.9044 H   0  0  0  0  0  0  0  0  0  0  0  0
  130.2472  124.2183   68.0499 H   0  0  0  0  0  0  0  0  0  0  0  0
  129.5791  126.2421   69.3409 H   0  0  0  0  0  0  0  0  0  0  0  0
  129.0527  126.1572   64.3671 H   0  0  0  0  0  0  0  0  0  0  0  0
  127.5151  130.2861   65.7125 H   0  0  0  0  0  0  0  0  0  0  0  0
  126.6258  128.9391   66.5192 H   0  0  0  0  0  0  0  0  0  0  0  0
  129.3669  130.0497   67.3571 H   0  0  0  0  0  0  0  0  0  0  0  0
  127.7959  130.3340   68.1982 H   0  0  0  0  0  0  0  0  0  0  0  0
  131.9350  126.4680   65.2430 H   0  0  0  0  0  0  0  0  0  0  0  0
  134.8421  122.8905   62.1293 H   0  0  0  0  0  0  0  0  0  0  0  0
  133.6299  121.5220   62.1610 H   0  0  0  0  0  0  0  0  0  0  0  0
  133.7630  122.2025   59.8991 H   0  0  0  0  0  0  0  0  0  0  0  0
  132.2323  122.9190   60.5753 H   0  0  0  0  0  0  0  0  0  0  0  0
  134.3455  124.8195   60.9585 H   0  0  0  0  0  0  0  0  0  0  0  0
  134.3982  124.2534   59.2451 H   0  0  0  0  0  0  0  0  0  0  0  0
  132.0928  124.6045   57.7526 H   0  0  0  0  0  0  0  0  0  0  0  0
  130.1377  126.3865   58.1073 H   0  0  0  0  0  0  0  0  0  0  0  0
  132.3017  126.3001   61.6706 H   0  0  0  0  0  0  0  0  0  0  0  0
  130.1498  124.8127   62.4277 H   0  0  0  0  0  0  0  0  0  0  0  0
  127.4080  125.3567   62.1517 H   0  0  0  0  0  0  0  0  0  0  0  0
  126.9066  126.2771   60.7001 H   0  0  0  0  0  0  0  0  0  0  0  0
  125.6652  123.9438   61.8099 H   0  0  0  0  0  0  0  0  0  0  0  0
  125.2522  124.7760   60.2725 H   0  0  0  0  0  0  0  0  0  0  0  0
  126.4359  123.4249   60.2725 H   0  0  0  0  0  0  0  0  0  0  0  0
  1  2  2  0
  2  3  1  0
  3  4  1  0
  4  5  1  0
  5  6  2  0
  6  7  1  0
  7  8  2  0
  8  9  1  0
  9 10  1  0
 10 11  1  0
 11 12  2  0
 11 13  1  0
 13 14  2  0
 14 15  1  0
 15 16  2  0
 16 17  1  0
 17 18  2  0
 17 19  1  0
 19 20  1  0
 20 21  1  0
 21 22  1  0
 10 23  2  0
 23 24  1  0
 23 25  1  0
 25 26  2  0
 25 27  1  0
 27 28  1  0
 28 29  1  0
 29 30  1  0
 30 31  1  0
 31 32  1  0
 32 33  2  0
 33 34  1  0
 34 35  2  0
  8 36  1  0
 36 37  2  0
 37 38  1  0
 38 39  1  0
 39 40  1  0
 37  5  1  0
 27  9  1  0
 35 31  1  0
 18 13  1  0
 22 16  1  0
  1 41  1  0
  1 42  1  0
  2 43  1  0
  3 44  1  0
  3 45  1  0
  6 46  1  0
  7 47  1  0
  9 48  1  1
 14 49  1  0
 15 50  1  0
 18 51  1  0
 20 52  1  0
 20 53  1  0
 21 54  1  0
 21 55  1  0
 24 56  1  0
 28 57  1  0
 28 58  1  0
 29 59  1  0
 29 60  1  0
 30 61  1  0
 30 62  1  0
 32 63  1  0
 33 64  1  0
 35 65  1  0
 36 66  1  0
 39 67  1  0
 39 68  1  0
 40 69  1  0
 40 70  1  0
 40 71  1  0
M  END
>  <Binding energies>  (1) 
[-7.76]

>  <Ligand effiencies>  (1) 
[-0.18926829268292683]

>  <Interactions>  (1) 
["V-A:ILE:369:CG2:3237, V-A:ASP:366:CA:3210, V-B:PRO:540:CA:9855, V-A:GLU:543:CA:4904, V-A:GLY:454:CA:4049, H-A:GLU:543:OE2:4910, V-B:GLU:543:CB:9878, H-A:ARG:545:NH1:4927, V-B:TYR:539:CE2:9848, V-A:TYR:484:CE2:4346, V-B:GLU:543:CG:9879, V-B:TYR:539:C:9839, V-A:ASP:366:CG:3213, V-B:TYR:484:CE2:9317, V-B:TYR:539:CZ:9849, V-A:TYR:484:CZ:4347, V-B:PRO:540:CB:9857, V-A:GLU:543:CD:4908, V-B:GLU:543:CA:9876, H-A:GLY:454:N:4050, V-B:HIS:456:CE1:9041, V-B:PRO:540:N:9856, V-A:HIS:456:CE1:4070, V-B:TYR:484:CZ:9318, V-A:ILE:369:CD1:3239, V-B:TYR:539:CD2:9846, V-B:PRO:540:CD:9859, V-A:GLU:543:CG:4907, V-B:GLU:543:CD:9880, V-A:ASP:366:CB:3212, V-A:LEU:475:CD2:4259, H-A:ARG:545:NH2:4928, V-A:ARG:545:CZ:4926, H-A:GLU:543:OE1:4909, V-B:TYR:539:CG:9844, V-A:GLU:543:CB:4906, V-B:TYR:539:CD1:9845, H-A:ARG:545:NE:4924, V-B:TYR:539:CE1:9847, H-A:TYR:484:OH:4348"]

$$$$
ZINC97954053-again1
     RDKit          3D

 71 75  0  0  0  0  0  0  0  0999 V2000
  129.4610  122.7540   64.3230 C   0  0  0  0  0  0  0  0  0  0  0  0
  129.3350  122.6190   62.9940 C   0  0  0  0  0  0  0  0  0  0  0  0
  128.1790  123.1640   62.1720 C   0  0  0  0  0  0  0  0  0  0  0  0
  128.5800  124.2590   61.3460 O   0  0  0  0  0  0  0  0  0  0  0  0
  128.1050  125.5380   61.5830 C   0  0  0  0  0  0  0  0  0  0  0  0
  126.9560  126.0700   60.9740 C   0  0  0  0  0  0  0  0  0  0  0  0
  126.5340  127.3660   61.2570 C   0  0  0  0  0  0  0  0  0  0  0  0
  127.2490  128.1570   62.1550 C   0  0  0  0  0  0  0  0  0  0  0  0
  126.7790  129.5810   62.4510 C   0  0  2  0  0  0  0  0  0  0  0  0
  127.2640  130.6290   61.4680 C   0  0  0  0  0  0  0  0  0  0  0  0
  127.1730  130.5050   60.0480 C   0  0  0  0  0  0  0  0  0  0  0  0
  126.2220  129.8470   59.5080 O   0  0  0  0  0  0  0  0  0  0  0  0
  128.1050  131.2620   59.2690 C   0  0  0  0  0  0  0  0  0  0  0  0
  127.8360  132.6000   58.9300 C   0  0  0  0  0  0  0  0  0  0  0  0
  128.7370  133.3440   58.1650 C   0  0  0  0  0  0  0  0  0  0  0  0
  129.9160  132.7510   57.7200 C   0  0  0  0  0  0  0  0  0  0  0  0
  130.1830  131.4070   58.0180 C   0  0  0  0  0  0  0  0  0  0  0  0
  129.2840  130.6700   58.7870 C   0  0  0  0  0  0  0  0  0  0  0  0
  131.3550  130.7900   57.6290 O   0  0  0  0  0  0  0  0  0  0  0  0
  132.0370  131.4530   56.5600 C   0  0  0  0  0  0  0  0  0  0  0  0
  132.0800  132.9800   56.8070 C   0  0  0  0  0  0  0  0  0  0  0  0
  130.7560  133.5080   56.9260 O   0  0  0  0  0  0  0  0  0  0  0  0
  127.7980  131.7170   62.1890 C   0  0  0  0  0  0  0  0  0  0  0  0
  128.2610  132.8360   61.7920 O   0  0  0  0  0  0  0  0  0  0  0  0
  127.7290  131.3380   63.7070 C   0  0  0  0  0  0  0  0  0  0  0  0
  128.0770  132.0560   64.6470 O   0  0  0  0  0  0  0  0  0  0  0  0
  127.2390  130.0830   63.7430 N   0  0  0  0  0  0  0  0  0  0  0  0
  126.9650  129.3930   65.0060 C   0  0  0  0  0  0  0  0  0  0  0  0
  128.0580  129.6150   66.0650 C   0  0  0  0  0  0  0  0  0  0  0  0
  127.9750  128.5890   67.2110 C   0  0  0  0  0  0  0  0  0  0  0  0
  128.8090  127.4280   66.9350 N   0  0  0  0  0  0  0  0  0  0  0  0
  129.4740  126.6510   67.8780 C   0  0  0  0  0  0  0  0  0  0  0  0
  130.1740  125.6530   67.2080 C   0  0  0  0  0  0  0  0  0  0  0  0
  129.9370  125.8300   65.8560 N   0  0  0  0  0  0  0  0  0  0  0  0
  129.1060  126.9140   65.6880 C   0  0  0  0  0  0  0  0  0  0  0  0
  128.3990  127.6390   62.7580 C   0  0  0  0  0  0  0  0  0  0  0  0
  128.8370  126.3330   62.4780 C   0  0  0  0  0  0  0  0  0  0  0  0
  129.9670  125.7680   63.0440 O   0  0  0  0  0  0  0  0  0  0  0  0
  131.2510  126.0700   62.5090 C   0  0  0  0  0  0  0  0  0  0  0  0
  132.2800  125.1220   63.1320 C   0  0  0  0  0  0  0  0  0  0  0  0
  130.3333  122.3264   64.8390 H   0  0  0  0  0  0  0  0  0  0  0  0
  128.6920  123.2923   64.8965 H   0  0  0  0  0  0  0  0  0  0  0  0
  130.1270  122.0735   62.4601 H   0  0  0  0  0  0  0  0  0  0  0  0
  127.7886  122.3598   61.5310 H   0  0  0  0  0  0  0  0  0  0  0  0
  127.4083  123.5272   62.8678 H   0  0  0  0  0  0  0  0  0  0  0  0
  126.3828  125.4548   60.2648 H   0  0  0  0  0  0  0  0  0  0  0  0
  125.6330  127.7674   60.7702 H   0  0  0  0  0  0  0  0  0  0  0  0
  125.6866  129.4614   62.4014 H   0  0  0  0  0  0  0  0  0  0  0  0
  126.9013  133.0679   59.2727 H   0  0  0  0  0  0  0  0  0  0  0  0
  128.5167  134.3924   57.9154 H   0  0  0  0  0  0  0  0  0  0  0  0
  129.4996  129.6164   59.0182 H   0  0  0  0  0  0  0  0  0  0  0  0
  133.0654  131.0683   56.4933 H   0  0  0  0  0  0  0  0  0  0  0  0
  131.4975  131.2602   55.6209 H   0  0  0  0  0  0  0  0  0  0  0  0
  132.6341  133.1805   57.7359 H   0  0  0  0  0  0  0  0  0  0  0  0
  132.5793  133.4633   55.9543 H   0  0  0  0  0  0  0  0  0  0  0  0
  126.0095  129.7625   65.4065 H   0  0  0  0  0  0  0  0  0  0  0  0
  126.9321  128.3149   64.7900 H   0  0  0  0  0  0  0  0  0  0  0  0
  129.0423  129.5275   65.5818 H   0  0  0  0  0  0  0  0  0  0  0  0
  127.9114  130.6160   66.4968 H   0  0  0  0  0  0  0  0  0  0  0  0
  128.3159  129.0630   68.1433 H   0  0  0  0  0  0  0  0  0  0  0  0
  126.9313  128.2552   67.3069 H   0  0  0  0  0  0  0  0  0  0  0  0
  129.4503  126.8003   68.9676 H   0  0  0  0  0  0  0  0  0  0  0  0
  130.7978  124.8712   67.6660 H   0  0  0  0  0  0  0  0  0  0  0  0
  130.3170  125.2600   65.1140 H   0  0  0  0  0  0  0  0  0  0  0  0
  128.7412  127.3039   64.7263 H   0  0  0  0  0  0  0  0  0  0  0  0
  128.9695  128.2626   63.4620 H   0  0  0  0  0  0  0  0  0  0  0  0
  131.2377  125.9356   61.4173 H   0  0  0  0  0  0  0  0  0  0  0  0
  131.5160  127.1127   62.7385 H   0  0  0  0  0  0  0  0  0  0  0  0
  132.2161  125.1809   64.2286 H   0  0  0  0  0  0  0  0  0  0  0  0
  132.0729  124.0916   62.8074 H   0  0  0  0  0  0  0  0  0  0  0  0
  133.2900  125.4127   62.8074 H   0  0  0  0  0  0  0  0  0  0  0  0
  1  2  2  0
  2  3  1  0
  3  4  1  0
  4  5  1  0
  5  6  2  0
  6  7  1  0
  7  8  2  0
  8  9  1  0
  9 10  1  0
 10 11  1  0
 11 12  2  0
 11 13  1  0
 13 14  2  0
 14 15  1  0
 15 16  2  0
 16 17  1  0
 17 18  2  0
 17 19  1  0
 19 20  1  0
 20 21  1  0
 21 22  1  0
 10 23  2  0
 23 24  1  0
 23 25  1  0
 25 26  2  0
 25 27  1  0
 27 28  1  0
 28 29  1  0
 29 30  1  0
 30 31  1  0
 31 32  1  0
 32 33  2  0
 33 34  1  0
 34 35  2  0
  8 36  1  0
 36 37  2  0
 37 38  1  0
 38 39  1  0
 39 40  1  0
 37  5  1  0
 27  9  1  0
 35 31  1  0
 18 13  1  0
 22 16  1  0
  1 41  1  0
  1 42  1  0
  2 43  1  0
  3 44  1  0
  3 45  1  0
  6 46  1  0
  7 47  1  0
  9 48  1  1
 14 49  1  0
 15 50  1  0
 18 51  1  0
 20 52  1  0
 20 53  1  0
 21 54  1  0
 21 55  1  0
 28 56  1  0
 28 57  1  0
 29 58  1  0
 29 59  1  0
 30 60  1  0
 30 61  1  0
 32 62  1  0
 33 63  1  0
 34 64  1  0
 35 65  1  0
 36 66  1  0
 39 67  1  0
 39 68  1  0
 40 69  1  0
 40 70  1  0
 40 71  1  0
M  CHG  2  24  -1  34   1
M  END
>  <Binding energies>  (1) 
[-6.42]

>  <Ligand effiencies>  (1) 
[-0.15658536585365854]

>  <Interactions>  (1) 
["V-A:PRO:540:CG:4886, H-A:GLU:543:OE2:4910, V-B:GLU:543:CB:9878, V-A:ILE:538:CB:4862, V-B:ASP:366:CG:8184, V-B:ALA:541:CB:9864, H-A:TYR:531:OH:4795, V-B:GLU:543:CG:9879, V-A:ILE:538:CG2:4863, V-A:TYR:539:CD1:4873, V-A:LEU:363:CD1:3189, V-A:TYR:531:CE2:4793, V-A:TYR:539:CA:4869, V-A:GLU:543:CD:4908, H-B:TYR:484:OH:9319, V-B:HIS:456:CE1:9041, V-B:TYR:484:CZ:9318, V-A:HIS:456:CE1:4070, V-A:TYR:531:CZ:4794, V-A:GLU:543:CG:4907, V-B:GLU:543:CD:9880, V-A:TYR:539:C:4867, V-A:ARG:545:CZ:4926, V-A:GLU:543:CB:4906, V-A:PRO:540:N:4884, V-A:TYR:539:CG:4872, H-A:TYR:539:N:4870, V-A:PRO:540:CB:4885, V-A:PRO:540:CA:4883, V-A:PRO:540:CD:4887, V-A:TYR:539:CE1:4875"]

$$$$
ZINC97959885
     RDKit          3D

 66 71  0  0  0  0  0  0  0  0999 V2000
  131.7970  125.8740   64.6880 O   0  0  0  0  0  0  0  0  0  0  0  0
  131.0610  125.4260   63.8030 C   0  0  0  0  0  0  0  0  0  0  0  0
  131.4900  124.3930   62.7740 C   0  0  0  0  0  0  0  0  0  0  0  0
  132.7920  123.8770   62.8500 C   0  0  0  0  0  0  0  0  0  0  0  0
  133.2130  122.9020   61.9490 C   0  0  0  0  0  0  0  0  0  0  0  0
  132.3380  122.4300   60.9740 C   0  0  0  0  0  0  0  0  0  0  0  0
  131.0460  122.9430   60.8860 C   0  0  0  0  0  0  0  0  0  0  0  0
  130.6070  123.9470   61.7660 C   0  0  0  0  0  0  0  0  0  0  0  0
  129.2440  124.5460   61.7260 C   0  0  0  0  0  0  0  0  0  0  0  0
  128.3000  124.1960   60.6460 C   0  0  0  0  0  0  0  0  0  0  0  0
  126.9500  123.9660   60.9460 C   0  0  0  0  0  0  0  0  0  0  0  0
  126.0500  123.6530   59.9300 C   0  0  0  0  0  0  0  0  0  0  0  0
  126.4940  123.5780   58.6110 C   0  0  0  0  0  0  0  0  0  0  0  0
  125.3790  123.1900   57.3530 Cl  0  0  0  0  0  0  0  0  0  0  0  0
  127.8310  123.8190   58.3000 C   0  0  0  0  0  0  0  0  0  0  0  0
  128.7310  124.1310   59.3140 C   0  0  0  0  0  0  0  0  0  0  0  0
  128.8760  125.3750   62.6350 N   0  0  0  0  0  0  0  0  0  0  0  0
  129.7490  125.8060   63.6230 N   0  0  0  0  0  0  0  0  0  0  0  0
  129.1720  126.7660   64.4820 C   0  0  0  0  0  0  0  0  0  0  0  0
  129.3920  126.6450   65.8620 C   0  0  0  0  0  0  0  0  0  0  0  0
  128.8360  127.5530   66.7770 C   0  0  0  0  0  0  0  0  0  0  0  0
  129.0540  127.4440   68.1510 N   0  0  0  0  0  0  0  0  0  0  0  0
  128.0970  126.7440   69.0410 C   0  0  0  0  0  0  0  0  0  0  0  0
  128.2610  127.1040   70.5340 C   0  0  0  0  0  0  0  0  0  0  0  0
  129.6560  126.8720   70.9510 N   0  0  0  0  0  0  0  0  0  0  0  0
  129.9360  126.8560   72.6990 S   0  0  0  0  0  0  0  0  0  0  0  0
  129.1170  125.7880   73.2840 O   0  0  0  0  0  0  0  0  0  0  0  0
  131.3850  126.8880   72.9310 O   0  0  0  0  0  0  0  0  0  0  0  0
  129.2530  128.4060   73.2840 C   0  0  0  0  0  0  0  0  0  0  0  0
  129.8190  129.6170   72.8780 C   0  0  0  0  0  0  0  0  0  0  0  0
  129.2790  130.8180   73.3300 C   0  0  0  0  0  0  0  0  0  0  0  0
  128.1760  130.8040   74.1820 C   0  0  0  0  0  0  0  0  0  0  0  0
  127.6520  131.9700   74.6210 F   0  0  0  0  0  0  0  0  0  0  0  0
  127.6060  129.5970   74.5840 C   0  0  0  0  0  0  0  0  0  0  0  0
  128.1450  128.3950   74.1350 C   0  0  0  0  0  0  0  0  0  0  0  0
  130.5700  127.7210   70.1700 C   0  0  0  0  0  0  0  0  0  0  0  0
  130.4420  127.3820   68.6680 C   0  0  0  0  0  0  0  0  0  0  0  0
  128.0240  128.5770   66.2710 C   0  0  0  0  0  0  0  0  0  0  0  0
  127.7910  128.7040   64.9040 C   0  0  0  0  0  0  0  0  0  0  0  0
  128.3630  127.8130   63.9890 C   0  0  0  0  0  0  0  0  0  0  0  0
  128.0980  128.0040   62.5460 N   0  0  0  0  0  0  0  0  0  0  0  0
  128.9300  128.6210   61.8880 O   0  0  0  0  0  0  0  0  0  0  0  0
  127.0750  127.5220   62.0670 O   0  0  0  0  0  0  0  0  0  0  0  0
  133.4827  124.2435   63.6236 H   0  0  0  0  0  0  0  0  0  0  0  0
  134.2371  122.5047   62.0076 H   0  0  0  0  0  0  0  0  0  0  0  0
  132.6679  121.6503   60.2717 H   0  0  0  0  0  0  0  0  0  0  0  0
  130.3601  122.5571   60.1175 H   0  0  0  0  0  0  0  0  0  0  0  0
  126.6004  124.0329   61.9868 H   0  0  0  0  0  0  0  0  0  0  0  0
  124.9925  123.4657   60.1678 H   0  0  0  0  0  0  0  0  0  0  0  0
  128.1735  123.7627   57.2562 H   0  0  0  0  0  0  0  0  0  0  0  0
  129.7853  124.3275   59.0693 H   0  0  0  0  0  0  0  0  0  0  0  0
  130.0149  125.8191   66.2361 H   0  0  0  0  0  0  0  0  0  0  0  0
  127.0757  127.0090   68.7299 H   0  0  0  0  0  0  0  0  0  0  0  0
  128.2982  125.6668   68.9459 H   0  0  0  0  0  0  0  0  0  0  0  0
  128.0057  128.1633   70.6849 H   0  0  0  0  0  0  0  0  0  0  0  0
  127.5911  126.4730   71.1365 H   0  0  0  0  0  0  0  0  0  0  0  0
  130.6881  129.6216   72.2037 H   0  0  0  0  0  0  0  0  0  0  0  0
  129.7214  131.7748   73.0157 H   0  0  0  0  0  0  0  0  0  0  0  0
  126.7333  129.5946   75.2537 H   0  0  0  0  0  0  0  0  0  0  0  0
  127.7001  127.4393   74.4491 H   0  0  0  0  0  0  0  0  0  0  0  0
  130.3122  128.7785   70.3292 H   0  0  0  0  0  0  0  0  0  0  0  0
  131.6043  127.5390   70.4971 H   0  0  0  0  0  0  0  0  0  0  0  0
  131.0551  128.0963   68.0989 H   0  0  0  0  0  0  0  0  0  0  0  0
  130.7801  126.3423   68.5470 H   0  0  0  0  0  0  0  0  0  0  0  0
  127.5623  129.2935   66.9663 H   0  0  0  0  0  0  0  0  0  0  0  0
  127.1473  129.5173   64.5377 H   0  0  0  0  0  0  0  0  0  0  0  0
  1  2  2  0
  2  3  1  0
  3  4  2  0
  4  5  1  0
  5  6  2  0
  6  7  1  0
  7  8  2  0
  8  9  1  0
  9 10  1  0
 10 11  2  0
 11 12  1  0
 12 13  2  0
 13 14  1  0
 13 15  1  0
 15 16  2  0
  9 17  2  0
 17 18  1  0
 18 19  1  0
 19 20  2  0
 20 21  1  0
 21 22  1  0
 22 23  1  0
 23 24  1  0
 24 25  1  0
 25 26  1  0
 26 27  2  0
 26 28  2  0
 26 29  1  0
 29 30  2  0
 30 31  1  0
 31 32  2  0
 32 33  1  0
 32 34  1  0
 34 35  2  0
 25 36  1  0
 36 37  1  0
 21 38  2  0
 38 39  1  0
 39 40  2  0
 40 41  1  0
 41 42  2  0
 41 43  1  0
 18  2  1  0
 40 19  1  0
  8  3  1  0
 16 10  1  0
 37 22  1  0
 35 29  1  0
  4 44  1  0
  5 45  1  0
  6 46  1  0
  7 47  1  0
 11 48  1  0
 12 49  1  0
 15 50  1  0
 16 51  1  0
 20 52  1  0
 23 53  1  0
 23 54  1  0
 24 55  1  0
 24 56  1  0
 30 57  1  0
 31 58  1  0
 34 59  1  0
 35 60  1  0
 36 61  1  0
 36 62  1  0
 37 63  1  0
 37 64  1  0
 38 65  1  0
 39 66  1  0
M  CHG  2  41   1  43  -1
M  END
>  <Binding energies>  (1) 
[-9.51]

>  <Ligand effiencies>  (1) 
[-0.22116279069767442]

>  <Interactions>  (1) 
["V-B:PRO:540:CA:9855, V-B:GLU:543:C:9874, V-B:HIS:456:CD2:9039, V-A:GLU:543:C:4902, V-B:GLU:543:CB:9878, H-B:LYS:547:NZ:9923, V-B:TYR:539:CE2:9848, V-A:GLY:544:CA:4914, V-B:GLU:543:CG:9879, V-A:HIS:456:CD2:4068, V-A:GLU:543:CD:4908, V-B:PRO:540:CB:9857, V-B:GLU:543:CA:9876, V-B:HIS:456:CE1:9041, V-B:PRO:540:N:9856, V-A:HIS:456:CE1:4070, V-B:PRO:540:CD:9859, V-A:GLU:543:CG:4907, V-B:GLU:543:CD:9880, V-B:HIS:456:CG:9037, H-A:LYS:547:NZ:4951, H-A:ARG:545:NH2:4928, H-B:ARG:545:NH2:9900, V-A:GLU:543:CB:4906, V-B:LEU:363:CD1:8160, V-A:LYS:547:CE:4950, H-A:ARG:545:NE:4924"]

$$$$
ZINC97966215
     RDKit          3D

 56 58  0  0  0  0  0  0  0  0999 V2000
  127.9870  122.8410   58.4330 C   0  0  0  0  0  0  0  0  0  0  0  0
  127.9780  122.8880   59.9630 C   0  0  0  0  0  0  0  0  0  0  0  0
  129.3230  122.9940   60.4210 O   0  0  0  0  0  0  0  0  0  0  0  0
  129.6710  124.0070   61.2950 C   0  0  0  0  0  0  0  0  0  0  0  0
  129.6830  123.8690   62.6950 C   0  0  0  0  0  0  0  0  0  0  0  0
  130.0480  124.9350   63.5220 C   0  0  0  0  0  0  0  0  0  0  0  0
  130.0620  124.7400   64.9860 C   0  0  0  0  0  0  0  0  0  0  0  0
  129.7070  125.5800   65.9910 C   0  0  0  0  0  0  0  0  0  0  0  0
  129.8710  125.2130   67.7040 S   0  0  0  0  0  0  0  0  0  0  0  0
  129.2440  126.7670   68.1680 C   0  0  0  0  0  0  0  0  0  0  0  0
  129.1300  127.1630   69.7850 S   0  0  0  0  0  0  0  0  0  0  0  0
  128.9120  127.4690   67.0410 N   0  0  0  0  0  0  0  0  0  0  0  0
  128.3350  128.8300   67.1270 C   0  0  0  0  0  0  0  0  0  0  0  0
  126.8160  128.8700   66.8790 C   0  0  0  0  0  0  0  0  0  0  0  0
  129.1050  126.8900   65.8260 C   0  0  0  0  0  0  0  0  0  0  0  0
  128.7910  127.4180   64.7560 O   0  0  0  0  0  0  0  0  0  0  0  0
  130.4360  126.1450   62.9400 C   0  0  0  0  0  0  0  0  0  0  0  0
  130.4270  126.3010   61.5550 C   0  0  0  0  0  0  0  0  0  0  0  0
  130.9460  127.9720   60.8030 Br  0  0  0  0  0  0  0  0  0  0  0  0
  130.0370  125.2390   60.7330 C   0  0  0  0  0  0  0  0  0  0  0  0
  130.0370  125.4070   59.3700 O   0  0  0  0  0  0  0  0  0  0  0  0
  131.0970  124.7400   58.6930 C   0  0  0  0  0  0  0  0  0  0  0  0
  132.3900  125.5490   58.8590 C   0  0  0  0  0  0  0  0  0  0  0  0
  133.4560  124.6660   59.1980 O   0  0  0  0  0  0  0  0  0  0  0  0
  133.3940  123.9510   60.3780 C   0  0  0  0  0  0  0  0  0  0  0  0
  132.9750  122.6150   60.4780 C   0  0  0  0  0  0  0  0  0  0  0  0
  132.9500  121.9740   61.7150 C   0  0  0  0  0  0  0  0  0  0  0  0
  133.3400  122.6570   62.8650 C   0  0  0  0  0  0  0  0  0  0  0  0
  133.7620  123.9960   62.7880 C   0  0  0  0  0  0  0  0  0  0  0  0
  134.1660  124.7510   63.8710 O   0  0  0  0  0  0  0  0  0  0  0  0
  133.2400  125.0070   64.9220 C   0  0  0  0  0  0  0  0  0  0  0  0
  133.7810  124.6220   61.5410 C   0  0  0  0  0  0  0  0  0  0  0  0
  128.1841  121.8117   58.0989 H   0  0  0  0  0  0  0  0  0  0  0  0
  127.0096  123.1699   58.0503 H   0  0  0  0  0  0  0  0  0  0  0  0
  128.7738  123.5077   58.0503 H   0  0  0  0  0  0  0  0  0  0  0  0
  127.4004  123.7599   60.3039 H   0  0  0  0  0  0  0  0  0  0  0  0
  127.5143  121.9751   60.3649 H   0  0  0  0  0  0  0  0  0  0  0  0
  129.4005  122.9064   63.1462 H   0  0  0  0  0  0  0  0  0  0  0  0
  130.4183  123.7528   65.3155 H   0  0  0  0  0  0  0  0  0  0  0  0
  128.5343  129.2298   68.1322 H   0  0  0  0  0  0  0  0  0  0  0  0
  128.8077  129.4323   66.3372 H   0  0  0  0  0  0  0  0  0  0  0  0
  126.2873  128.8839   67.8435 H   0  0  0  0  0  0  0  0  0  0  0  0
  126.5614  129.7752   66.3082 H   0  0  0  0  0  0  0  0  0  0  0  0
  126.5141  127.9795   66.3082 H   0  0  0  0  0  0  0  0  0  0  0  0
  130.7513  126.9817   63.5807 H   0  0  0  0  0  0  0  0  0  0  0  0
  131.2334  123.7363   59.1219 H   0  0  0  0  0  0  0  0  0  0  0  0
  130.8531  124.6485   57.6243 H   0  0  0  0  0  0  0  0  0  0  0  0
  132.6250  126.0642   57.9160 H   0  0  0  0  0  0  0  0  0  0  0  0
  132.2594  126.2939   59.6578 H   0  0  0  0  0  0  0  0  0  0  0  0
  132.6644  122.0706   59.5740 H   0  0  0  0  0  0  0  0  0  0  0  0
  132.6216  120.9264   61.7837 H   0  0  0  0  0  0  0  0  0  0  0  0
  133.3176  122.1458   63.8387 H   0  0  0  0  0  0  0  0  0  0  0  0
  133.7393  124.8690   65.8924 H   0  0  0  0  0  0  0  0  0  0  0  0
  132.8720  126.0406   64.8428 H   0  0  0  0  0  0  0  0  0  0  0  0
  132.3933  124.3092   64.8428 H   0  0  0  0  0  0  0  0  0  0  0  0
  134.1088  125.6697   61.4718 H   0  0  0  0  0  0  0  0  0  0  0  0
  1  2  1  0
  2  3  1  0
  3  4  1  0
  4  5  2  0
  5  6  1  0
  6  7  1  0
  7  8  2  0
  8  9  1  0
  9 10  1  0
 10 11  2  0
 10 12  1  0
 12 13  1  0
 13 14  1  0
 12 15  1  0
 15 16  2  0
  6 17  2  0
 17 18  1  0
 18 19  1  0
 18 20  2  0
 20 21  1  0
 21 22  1  0
 22 23  1  0
 23 24  1  0
 24 25  1  0
 25 26  2  0
 26 27  1  0
 27 28  2  0
 28 29  1  0
 29 30  1  0
 30 31  1  0
 29 32  2  0
 20  4  1  0
 32 25  1  0
 15  8  1  0
  1 33  1  0
  1 34  1  0
  1 35  1  0
  2 36  1  0
  2 37  1  0
  5 38  1  0
  7 39  1  0
 13 40  1  0
 13 41  1  0
 14 42  1  0
 14 43  1  0
 14 44  1  0
 17 45  1  0
 22 46  1  0
 22 47  1  0
 23 48  1  0
 23 49  1  0
 26 50  1  0
 27 51  1  0
 28 52  1  0
 31 53  1  0
 31 54  1  0
 31 55  1  0
 32 56  1  0
M  END
>  <Binding energies>  (1) 
[-6.29]

>  <Ligand effiencies>  (1) 
[-0.1965625]

>  <Interactions>  (1) 
["V-A:ILE:369:CG2:3237, V-B:PRO:540:CA:9855, V-A:GLY:454:CA:4049, V-B:GLU:543:CB:9878, H-A:ARG:545:NH1:4927, V-B:TYR:539:CE2:9848, V-B:GLU:543:CG:9879, V-B:TYR:539:C:9839, V-A:ASP:366:CG:3213, V-B:TYR:539:CZ:9849, V-A:GLU:543:CD:4908, V-B:HIS:456:CE1:9041, H-A:GLY:454:N:4050, V-B:PRO:540:N:9856, V-A:HIS:456:CE1:4070, V-B:TYR:484:CZ:9318, V-B:TYR:539:CD2:9846, V-A:GLU:543:CG:4907, V-B:GLU:543:CD:9880, V-A:ASP:366:CB:3212, V-A:LEU:475:CD2:4259, H-A:ARG:545:NH2:4928, V-A:ARG:545:CZ:4926, V-B:TYR:539:CG:9844, V-A:GLU:543:CB:4906, H-A:ARG:545:NE:4924"]

$$$$
ZINC97966667
     RDKit          3D

 69 73  0  0  0  0  0  0  0  0999 V2000
  127.2910  128.8790   66.9400 C   0  0  0  0  0  0  0  0  0  0  0  0
  128.2810  129.9990   66.6030 C   0  0  0  0  0  0  0  0  0  0  0  0
  127.8780  130.6090   65.3800 O   0  0  0  0  0  0  0  0  0  0  0  0
  127.7350  129.8350   64.2430 C   0  0  0  0  0  0  0  0  0  0  0  0
  128.4340  128.6380   64.0110 C   0  0  0  0  0  0  0  0  0  0  0  0
  128.2460  127.8950   62.8370 C   0  0  0  0  0  0  0  0  0  0  0  0
  129.0060  126.6540   62.6380 C   0  0  0  0  0  0  0  0  0  0  0  0
  129.4500  125.9390   63.5930 N   0  0  0  0  0  0  0  0  0  0  0  0
  130.1130  124.8470   63.1670 N   0  0  0  0  0  0  0  0  0  0  0  0
  131.4150  124.8810   62.8100 C   0  0  0  0  0  0  0  0  0  0  0  0
  132.1090  125.9000   62.8340 O   0  0  0  0  0  0  0  0  0  0  0  0
  131.9620  123.6030   62.3910 C   0  0  0  0  0  0  0  0  0  0  0  0
  133.0500  123.0330   62.9010 N   0  0  0  0  0  0  0  0  0  0  0  0
  133.2790  121.8280   62.2730 N   0  0  0  0  0  0  0  0  0  0  0  0
  132.3070  121.6920   61.3730 N   0  0  0  0  0  0  0  0  0  0  0  0
  132.2820  120.5710   60.5780 C   0  0  0  0  0  0  0  0  0  0  0  0
  133.2090  120.2860   59.7000 N   0  0  0  0  0  0  0  0  0  0  0  0
  132.7680  119.0800   59.1560 O   0  0  0  0  0  0  0  0  0  0  0  0
  131.5640  118.6670   59.7300 N   0  0  0  0  0  0  0  0  0  0  0  0
  131.2790  119.6000   60.6020 C   0  0  0  0  0  0  0  0  0  0  0  0
  130.1450  119.5330   61.3610 N   0  0  0  0  0  0  0  0  0  0  0  0
  131.4380  122.7610   61.3910 C   0  0  0  0  0  0  0  0  0  0  0  0
  130.2270  122.8470   60.4660 C   0  0  0  0  0  0  0  0  0  0  0  0
  129.0230  123.2880   61.1740 N   0  0  0  0  0  0  0  0  0  0  0  0
  128.6330  122.3680   62.2540 C   0  0  0  0  0  0  0  0  0  0  0  0
  127.3340  122.8350   62.9420 C   0  0  0  0  0  0  0  0  0  0  0  0
  126.2990  122.9930   61.9780 O   0  0  0  0  0  0  0  0  0  0  0  0
  126.6330  123.9470   60.9750 C   0  0  0  0  0  0  0  0  0  0  0  0
  127.9150  123.5090   60.2350 C   0  0  0  0  0  0  0  0  0  0  0  0
  127.3300  128.3730   61.8880 C   0  0  0  0  0  0  0  0  0  0  0  0
  126.6260  129.5550   62.1030 C   0  0  0  0  0  0  0  0  0  0  0  0
  125.3850  130.1540   60.7840 Br  0  0  0  0  0  0  0  0  0  0  0  0
  126.8330  130.2910   63.2730 C   0  0  0  0  0  0  0  0  0  0  0  0
  126.1330  131.4540   63.4800 O   0  0  0  0  0  0  0  0  0  0  0  0
  126.9250  132.6360   63.3940 C   0  0  0  0  0  0  0  0  0  0  0  0
  128.0520  132.4890   62.3750 C   0  0  0  0  0  0  0  0  0  0  0  0
  127.8140  132.5770   60.9960 C   0  0  0  0  0  0  0  0  0  0  0  0
  128.8650  132.4420   60.0880 C   0  0  0  0  0  0  0  0  0  0  0  0
  130.1620  132.2200   60.5490 C   0  0  0  0  0  0  0  0  0  0  0  0
  130.4090  132.1320   61.9180 C   0  0  0  0  0  0  0  0  0  0  0  0
  129.3580  132.2670   62.8290 C   0  0  0  0  0  0  0  0  0  0  0  0
  129.6170  132.1820   64.1550 F   0  0  0  0  0  0  0  0  0  0  0  0
  127.2052  128.7819   68.0323 H   0  0  0  0  0  0  0  0  0  0  0  0
  126.3056  129.1204   66.5148 H   0  0  0  0  0  0  0  0  0  0  0  0
  127.6515  127.9307   66.5148 H   0  0  0  0  0  0  0  0  0  0  0  0
  128.2812  130.7482   67.4084 H   0  0  0  0  0  0  0  0  0  0  0  0
  129.2953  129.5858   66.5006 H   0  0  0  0  0  0  0  0  0  0  0  0
  129.1451  128.2757   64.7680 H   0  0  0  0  0  0  0  0  0  0  0  0
  129.2023  126.3243   61.6071 H   0  0  0  0  0  0  0  0  0  0  0  0
  129.5760  123.9930   63.1370 H   0  0  0  0  0  0  0  0  0  0  0  0
  130.1780  119.6180   62.3670 H   0  0  0  0  0  0  0  0  0  0  0  0
  129.2400  119.3640   60.9470 H   0  0  0  0  0  0  0  0  0  0  0  0
  130.4465  123.5625   59.6599 H   0  0  0  0  0  0  0  0  0  0  0  0
  130.0348  121.8408   60.0652 H   0  0  0  0  0  0  0  0  0  0  0  0
  128.4746  121.3649   61.8312 H   0  0  0  0  0  0  0  0  0  0  0  0
  129.4375  122.3500   63.0040 H   0  0  0  0  0  0  0  0  0  0  0  0
  127.0267  122.0854   63.6861 H   0  0  0  0  0  0  0  0  0  0  0  0
  127.5158  123.8007   63.4363 H   0  0  0  0  0  0  0  0  0  0  0  0
  125.8050  124.0234   60.2549 H   0  0  0  0  0  0  0  0  0  0  0  0
  126.8063  124.9240   61.4497 H   0  0  0  0  0  0  0  0  0  0  0  0
  127.7136  122.5740   59.6917 H   0  0  0  0  0  0  0  0  0  0  0  0
  128.2045  124.3090   59.5378 H   0  0  0  0  0  0  0  0  0  0  0  0
  127.1654  127.8055   60.9601 H   0  0  0  0  0  0  0  0  0  0  0  0
  126.2807  133.4755   63.0939 H   0  0  0  0  0  0  0  0  0  0  0  0
  127.3768  132.8179   64.3803 H   0  0  0  0  0  0  0  0  0  0  0  0
  126.7926  132.7535   60.6277 H   0  0  0  0  0  0  0  0  0  0  0  0
  128.6701  132.5108   59.0076 H   0  0  0  0  0  0  0  0  0  0  0  0
  130.9900  132.1143   59.8326 H   0  0  0  0  0  0  0  0  0  0  0  0
  131.4322  131.9561   62.2816 H   0  0  0  0  0  0  0  0  0  0  0  0
  1  2  1  0
  2  3  1  0
  3  4  1  0
  4  5  2  0
  5  6  1  0
  6  7  1  0
  7  8  2  0
  8  9  1  0
  9 10  1  0
 10 11  2  0
 10 12  1  0
 12 13  1  0
 13 14  2  0
 14 15  1  0
 15 16  1  0
 16 17  2  0
 17 18  1  0
 18 19  1  0
 19 20  2  0
 20 21  1  0
 15 22  1  0
 22 23  1  0
 23 24  1  0
 24 25  1  0
 25 26  1  0
 26 27  1  0
 27 28  1  0
 28 29  1  0
  6 30  2  0
 30 31  1  0
 31 32  1  0
 31 33  2  0
 33 34  1  0
 34 35  1  0
 35 36  1  0
 36 37  2  0
 37 38  1  0
 38 39  2  0
 39 40  1  0
 40 41  2  0
 41 42  1  0
 33  4  1  0
 41 36  1  0
 22 12  2  0
 29 24  1  0
 20 16  1  0
  1 43  1  0
  1 44  1  0
  1 45  1  0
  2 46  1  0
  2 47  1  0
  5 48  1  0
  7 49  1  0
  9 50  1  0
 21 51  1  0
 21 52  1  0
 23 53  1  0
 23 54  1  0
 25 55  1  0
 25 56  1  0
 26 57  1  0
 26 58  1  0
 28 59  1  0
 28 60  1  0
 29 61  1  0
 29 62  1  0
 30 63  1  0
 35 64  1  0
 35 65  1  0
 37 66  1  0
 38 67  1  0
 39 68  1  0
 40 69  1  0
M  END
>  <Binding energies>  (1) 
[-7.86]

>  <Ligand effiencies>  (1) 
[-0.17466666666666666]

>  <Interactions>  (1) 
["V-B:PRO:540:CA:9855, V-A:GLU:543:CA:4904, V-A:PRO:540:C:4881, V-B:ASP:366:CG:8184, V-B:ALA:541:CB:9864, V-B:TYR:539:CE2:9848, V-B:LEU:475:CD2:9230, V-B:GLU:543:CG:9879, V-B:TYR:484:CE2:9317, V-A:ALA:541:CB:4892, H-B:ALA:541:N:9863, V-A:GLU:543:CD:4908, H-B:TYR:484:OH:9319, V-B:HIS:456:CE1:9041, H-A:GLY:454:N:4050, V-B:TYR:484:CZ:9318, V-B:ALA:541:C:9860, V-A:ALA:541:CA:4890, V-B:TYR:539:CD2:9846, V-A:GLU:543:CG:4907, H-A:SER:385:OG:3410, V-B:GLU:543:CD:9880, V-A:LEU:475:CD2:4259, H-A:ARG:545:NH2:4928, V-A:GLU:543:CB:4906, H-A:HIS:383:HE2:3395, V-A:PRO:540:CB:4885, V-A:PRO:540:CA:4883, H-B:TYR:539:O:9840, V-B:ALA:541:CA:9862"]

$$$$
ZINC97972383
     RDKit          3D

 60 64  0  0  0  0  0  0  0  0999 V2000
  134.0640  118.1370   56.9710 C   0  0  0  0  0  0  0  0  0  0  0  0
  133.3830  118.6100   58.2520 C   0  0  0  0  0  0  0  0  0  0  0  0
  133.9360  119.4700   58.9360 O   0  0  0  0  0  0  0  0  0  0  0  0
  132.2110  118.0100   58.5450 N   0  0  0  0  0  0  0  0  0  0  0  0
  131.3550  118.2350   59.6390 C   0  0  0  0  0  0  0  0  0  0  0  0
  130.5350  117.2560   60.2220 C   0  0  0  0  0  0  0  0  0  0  0  0
  129.7240  117.5790   61.3090 C   0  0  0  0  0  0  0  0  0  0  0  0
  129.7180  118.8770   61.8190 C   0  0  0  0  0  0  0  0  0  0  0  0
  130.5250  119.8640   61.2500 C   0  0  0  0  0  0  0  0  0  0  0  0
  130.4770  121.1600   61.7930 N   0  0  0  0  0  0  0  0  0  0  0  0
  130.9120  122.3460   61.2150 C   0  0  0  0  0  0  0  0  0  0  0  0
  132.2350  122.6710   61.2950 C   0  0  0  0  0  0  0  0  0  0  0  0
  133.2740  121.8260   62.0540 C   0  0  0  0  0  0  0  0  0  0  0  0
  132.8100  123.8170   60.5780 C   0  0  0  0  0  0  0  0  0  0  0  0
  133.9890  124.1520   60.7510 O   0  0  0  0  0  0  0  0  0  0  0  0
  131.9650  124.4550   59.6950 N   0  0  0  0  0  0  0  0  0  0  0  0
  132.6700  125.2940   58.7010 C   0  0  0  0  0  0  0  0  0  0  0  0
  130.5760  124.2790   59.7550 C   0  0  0  0  0  0  0  0  0  0  0  0
  130.0170  123.2580   60.4650 C   0  0  0  0  0  0  0  0  0  0  0  0
  128.5580  123.1050   60.4620 C   0  0  0  0  0  0  0  0  0  0  0  0
  127.9350  122.4640   61.3140 O   0  0  0  0  0  0  0  0  0  0  0  0
  127.9530  123.7680   59.4210 N   0  0  0  0  0  0  0  0  0  0  0  0
  126.5310  123.4220   59.1620 C   0  0  0  0  0  0  0  0  0  0  0  0
  125.5230  124.5260   58.8710 C   0  0  0  0  0  0  0  0  0  0  0  0
  125.9390  123.5970   57.7680 C   0  0  0  0  0  0  0  0  0  0  0  0
  128.4540  124.8580   58.7330 C   0  0  0  0  0  0  0  0  0  0  0  0
  127.7600  125.5470   57.9730 O   0  0  0  0  0  0  0  0  0  0  0  0
  129.7620  125.1780   59.0490 N   0  0  0  0  0  0  0  0  0  0  0  0
  130.0570  126.5680   59.0620 C   0  0  0  0  0  0  0  0  0  0  0  0
  130.3020  127.2080   60.2860 C   0  0  0  0  0  0  0  0  0  0  0  0
  130.6070  128.5680   60.3200 C   0  0  0  0  0  0  0  0  0  0  0  0
  130.6710  129.2990   59.1340 C   0  0  0  0  0  0  0  0  0  0  0  0
  131.1270  131.3390   59.1890 I   0  0  0  0  0  0  0  0  0  0  0  0
  130.4350  128.6700   57.9120 C   0  0  0  0  0  0  0  0  0  0  0  0
  130.1300  127.3090   57.8690 C   0  0  0  0  0  0  0  0  0  0  0  0
  129.9180  126.7160   56.6710 F   0  0  0  0  0  0  0  0  0  0  0  0
  131.3610  119.5250   60.1760 C   0  0  0  0  0  0  0  0  0  0  0  0
  134.9427  117.5267   57.2267 H   0  0  0  0  0  0  0  0  0  0  0  0
  133.3577  117.5340   56.3814 H   0  0  0  0  0  0  0  0  0  0  0  0
  134.3825  119.0093   56.3814 H   0  0  0  0  0  0  0  0  0  0  0  0
  131.9250  117.2570   57.9370 H   0  0  0  0  0  0  0  0  0  0  0  0
  130.5324  116.2320   59.8203 H   0  0  0  0  0  0  0  0  0  0  0  0
  129.0868  116.8075   61.7659 H   0  0  0  0  0  0  0  0  0  0  0  0
  129.0733  119.1248   62.6751 H   0  0  0  0  0  0  0  0  0  0  0  0
  130.2330  121.1690   62.7720 H   0  0  0  0  0  0  0  0  0  0  0  0
  133.1248  121.9474   63.1371 H   0  0  0  0  0  0  0  0  0  0  0  0
  133.1532  120.7666   61.7837 H   0  0  0  0  0  0  0  0  0  0  0  0
  134.2865  122.1602   61.7837 H   0  0  0  0  0  0  0  0  0  0  0  0
  133.2930  126.0354   59.2228 H   0  0  0  0  0  0  0  0  0  0  0  0
  133.3082  124.6574   58.0706 H   0  0  0  0  0  0  0  0  0  0  0  0
  131.9330  125.8130   58.0706 H   0  0  0  0  0  0  0  0  0  0  0  0
  126.6032  122.5932   59.8816 H   0  0  0  0  0  0  0  0  0  0  0  0
  124.5063  124.4638   59.2863 H   0  0  0  0  0  0  0  0  0  0  0  0
  125.5115  125.6183   59.0007 H   0  0  0  0  0  0  0  0  0  0  0  0
  125.2267  122.8554   57.3772 H   0  0  0  0  0  0  0  0  0  0  0  0
  126.3572  123.7295   56.7592 H   0  0  0  0  0  0  0  0  0  0  0  0
  130.2533  126.6342   61.2232 H   0  0  0  0  0  0  0  0  0  0  0  0
  130.7973  129.0648   61.2828 H   0  0  0  0  0  0  0  0  0  0  0  0
  130.4895  129.2490   56.9783 H   0  0  0  0  0  0  0  0  0  0  0  0
  132.0314  120.2860   59.7501 H   0  0  0  0  0  0  0  0  0  0  0  0
  1  2  1  0
  2  3  2  0
  2  4  1  0
  4  5  1  0
  5  6  2  0
  6  7  1  0
  7  8  2  0
  8  9  1  0
  9 10  1  0
 10 11  1  0
 11 12  2  0
 12 13  1  0
 12 14  1  0
 14 15  2  0
 14 16  1  0
 16 17  1  0
 16 18  1  0
 18 19  2  0
 19 20  1  0
 20 21  2  0
 20 22  1  0
 22 23  1  0
 23 24  1  0
 24 25  1  0
 22 26  1  0
 26 27  2  0
 26 28  1  0
 28 29  1  0
 29 30  2  0
 30 31  1  0
 31 32  2  0
 32 33  1  0
 32 34  1  0
 34 35  2  0
 35 36  1  0
  9 37  2  0
 37  5  1  0
 19 11  1  0
 25 23  1  0
 35 29  1  0
 28 18  1  0
  1 38  1  0
  1 39  1  0
  1 40  1  0
  4 41  1  0
  6 42  1  0
  7 43  1  0
  8 44  1  0
 10 45  1  0
 13 46  1  0
 13 47  1  0
 13 48  1  0
 17 49  1  0
 17 50  1  0
 17 51  1  0
 23 52  1  0
 24 53  1  0
 24 54  1  0
 25 55  1  0
 25 56  1  0
 30 57  1  0
 31 58  1  0
 34 59  1  0
 37 60  1  0
M  END
>  <Binding energies>  (1) 
[-8.65]

>  <Ligand effiencies>  (1) 
[-0.2217948717948718]

>  <Interactions>  (1) 
["V-A:ILE:369:CG2:3237, V-A:ASP:366:CA:3210, V-B:PRO:540:CA:9855, V-B:ALA:541:CB:9864, V-B:TYR:539:CE2:9848, V-A:LEU:475:CG:4257, V-B:TYR:539:C:9839, V-A:ASP:366:CG:3213, V-A:LEU:373:CG:3279, H-A:HIS:383:ND1:3391, H-B:ALA:541:N:9863, V-A:LEU:475:CD1:4258, V-B:TYR:539:CB:9843, V-A:HIS:383:CE1:3393, V-B:PRO:540:CB:9857, V-B:PRO:540:N:9856, V-A:HIS:383:CG:3390, V-A:PRO:482:CB:4326, V-B:TYR:539:CD2:9846, V-A:TYR:531:CZ:4794, H-A:SER:385:OG:3410, V-A:LEU:373:CD2:3281, V-A:ASP:366:CB:3212, V-A:LEU:475:CD2:4259, V-B:TYR:539:CG:9844, V-A:HIS:383:CD2:3392, V-A:LEU:373:CD1:3280, V-A:PRO:482:CG:4327, V-A:PRO:540:CB:4885, V-A:PRO:540:CA:4883, V-B:PRO:540:C:9853, V-A:HIS:383:NE2:3394"]

$$$$
ZINC97984917
     RDKit          3D

 54 56  0  0  0  0  0  0  0  0999 V2000
  132.8530  125.3950   64.6060 C   0  0  0  0  0  0  0  0  0  0  0  0
  133.3940  124.2870   63.8920 O   0  0  0  0  0  0  0  0  0  0  0  0
  133.4740  124.3390   62.5110 C   0  0  0  0  0  0  0  0  0  0  0  0
  134.6950  124.2940   61.8160 C   0  0  0  0  0  0  0  0  0  0  0  0
  134.7300  124.3470   60.4260 C   0  0  0  0  0  0  0  0  0  0  0  0
  133.5480  124.4410   59.6870 C   0  0  0  0  0  0  0  0  0  0  0  0
  133.5800  124.4950   58.2040 N   0  0  0  0  0  0  0  0  0  0  0  0
  133.9810  123.5110   57.5880 O   0  0  0  0  0  0  0  0  0  0  0  0
  133.2040  125.5210   57.6450 O   0  0  0  0  0  0  0  0  0  0  0  0
  132.3330  124.4820   60.3820 C   0  0  0  0  0  0  0  0  0  0  0  0
  132.2740  124.4460   61.7810 C   0  0  0  0  0  0  0  0  0  0  0  0
  131.0130  124.4920   62.3750 N   0  0  0  0  0  0  0  0  0  0  0  0
  129.6780  124.9430   61.6190 P   0  0  1  0  0  5  0  0  0  0  0  0
  129.0030  126.1160   62.5470 O   0  0  0  0  0  0  0  0  0  0  0  0
  129.1190  126.2420   63.9100 C   0  0  0  0  0  0  0  0  0  0  0  0
  129.7160  125.2170   64.6510 C   0  0  0  0  0  0  0  0  0  0  0  0
  129.8560  125.3280   66.0330 C   0  0  0  0  0  0  0  0  0  0  0  0
  129.4090  126.4740   66.6890 C   0  0  0  0  0  0  0  0  0  0  0  0
  129.5870  126.6230   68.5780 Br  0  0  0  0  0  0  0  0  0  0  0  0
  128.8410  127.5160   65.9560 C   0  0  0  0  0  0  0  0  0  0  0  0
  128.7070  127.4100   64.5710 C   0  0  0  0  0  0  0  0  0  0  0  0
  127.9880  128.8910   63.6130 Br  0  0  0  0  0  0  0  0  0  0  0  0
  129.9520  125.6230   59.9460 C   0  0  0  0  0  0  0  0  0  0  0  0
  130.5450  126.8780   59.7590 C   0  0  0  0  0  0  0  0  0  0  0  0
  130.7410  127.3420   58.4580 C   0  0  0  0  0  0  0  0  0  0  0  0
  130.4000  126.6230   57.3590 N   0  0  0  0  0  0  0  0  0  0  0  0
  129.8580  125.3940   57.5530 C   0  0  0  0  0  0  0  0  0  0  0  0
  129.6280  124.8580   58.8210 C   0  0  0  0  0  0  0  0  0  0  0  0
  128.4660  123.5270   61.6300 C   0  0  0  0  0  0  0  0  0  0  0  0
  128.3090  123.0100   63.0750 C   0  0  0  0  0  0  0  0  0  0  0  0
  127.1050  124.0130   61.0890 C   0  0  0  0  0  0  0  0  0  0  0  0
  129.0260  122.4110   60.7240 C   0  0  0  0  0  0  0  0  0  0  0  0
  132.9418  125.2131   65.6872 H   0  0  0  0  0  0  0  0  0  0  0  0
  133.4068  126.3077   64.3410 H   0  0  0  0  0  0  0  0  0  0  0  0
  131.7927  125.5196   64.3410 H   0  0  0  0  0  0  0  0  0  0  0  0
  135.6366  124.2157   62.3792 H   0  0  0  0  0  0  0  0  0  0  0  0
  135.6977  124.3146   59.9039 H   0  0  0  0  0  0  0  0  0  0  0  0
  131.3949  124.5445   59.8110 H   0  0  0  0  0  0  0  0  0  0  0  0
  130.0786  124.3142   64.1377 H   0  0  0  0  0  0  0  0  0  0  0  0
  130.3192  124.5114   66.6063 H   0  0  0  0  0  0  0  0  0  0  0  0
  128.4974  128.4248   66.4717 H   0  0  0  0  0  0  0  0  0  0  0  0
  130.8507  127.4870   60.6225 H   0  0  0  0  0  0  0  0  0  0  0  0
  131.1922  128.3352   58.3168 H   0  0  0  0  0  0  0  0  0  0  0  0
  129.5880  124.7936   56.6717 H   0  0  0  0  0  0  0  0  0  0  0  0
  129.1993  123.8512   58.9335 H   0  0  0  0  0  0  0  0  0  0  0  0
  128.5539  123.8166   63.7817 H   0  0  0  0  0  0  0  0  0  0  0  0
  127.2712  122.6834   63.2368 H   0  0  0  0  0  0  0  0  0  0  0  0
  128.9899  122.1614   63.2368 H   0  0  0  0  0  0  0  0  0  0  0  0
  126.4392  124.2508   61.9317 H   0  0  0  0  0  0  0  0  0  0  0  0
  127.2549  124.9132   60.4748 H   0  0  0  0  0  0  0  0  0  0  0  0
  126.6508  123.2215   60.4748 H   0  0  0  0  0  0  0  0  0  0  0  0
  129.4323  121.6014   61.3481 H   0  0  0  0  0  0  0  0  0  0  0  0
  128.2198  122.0151   60.0890 H   0  0  0  0  0  0  0  0  0  0  0  0
  129.8253  122.8207   60.0890 H   0  0  0  0  0  0  0  0  0  0  0  0
  1  2  1  0
  2  3  1  0
  3  4  2  0
  4  5  1  0
  5  6  2  0
  6  7  1  0
  7  8  2  0
  7  9  1  0
  6 10  1  0
 10 11  2  0
 11 12  1  0
 12 13  2  0
 13 14  1  1
 14 15  1  0
 15 16  2  0
 16 17  1  0
 17 18  2  0
 18 19  1  0
 18 20  1  0
 20 21  2  0
 21 22  1  0
 13 23  1  0
 23 24  2  0
 24 25  1  0
 25 26  2  0
 26 27  1  0
 27 28  2  0
 13 29  1  0
 29 30  1  0
 29 31  1  0
 29 32  1  0
 11  3  1  0
 21 15  1  0
 28 23  1  0
  1 33  1  0
  1 34  1  0
  1 35  1  0
  4 36  1  0
  5 37  1  0
 10 38  1  0
 16 39  1  0
 17 40  1  0
 20 41  1  0
 24 42  1  0
 25 43  1  0
 27 44  1  0
 28 45  1  0
 30 46  1  0
 30 47  1  0
 30 48  1  0
 31 49  1  0
 31 50  1  0
 31 51  1  0
 32 52  1  0
 32 53  1  0
 32 54  1  0
M  CHG  2   7   1   9  -1
M  END
>  <Binding energies>  (1) 
[-7.61]

>  <Ligand effiencies>  (1) 
[-0.2378125]

>  <Interactions>  (1) 
["V-A:ILE:369:CG2:3237, V-A:ASP:366:CA:3210, V-B:PRO:540:CA:9855, V-A:ILE:369:CB:3236, V-B:GLU:543:CB:9878, V-B:ALA:541:CB:9864, H-A:TYR:531:OH:4795, V-B:TYR:539:CE2:9848, V-B:GLU:543:CG:9879, V-A:ASP:366:CG:3213, V-B:TYR:539:CZ:9849, H-A:ASN:370:N:3244, H-B:TYR:539:OH:9850, V-A:GLU:543:CD:4908, H-A:GLY:454:N:4050, V-A:ILE:369:CD1:3239, V-A:HIS:456:CE1:4070, V-A:ASP:366:C:3208, V-B:TYR:539:CD2:9846, V-A:GLU:543:CG:4907, V-B:GLU:543:CD:9880, V-A:ILE:369:CG1:3238, V-A:ASP:366:CB:3212, V-A:ARG:545:CZ:4926, V-A:GLY:453:CA:4044, H-A:TYR:484:OH:4348"]

$$$$
ZINC98005755
     RDKit          3D

 72 77  0  0  0  0  0  0  0  0999 V2000
  130.1510  117.1800   60.4850 C   0  0  0  0  0  0  0  0  0  0  0  0
  130.5700  118.0580   61.5250 O   0  0  0  0  0  0  0  0  0  0  0  0
  130.8170  119.3840   61.2240 C   0  0  0  0  0  0  0  0  0  0  0  0
  132.0510  119.8870   60.7940 C   0  0  0  0  0  0  0  0  0  0  0  0
  132.2000  121.2430   60.5090 C   0  0  0  0  0  0  0  0  0  0  0  0
  131.1420  122.1580   60.6320 C   0  0  0  0  0  0  0  0  0  0  0  0
  129.9100  121.6300   61.0840 C   0  0  0  0  0  0  0  0  0  0  0  0
  129.7540  120.2720   61.3620 C   0  0  0  0  0  0  0  0  0  0  0  0
  128.7470  122.3640   61.2330 O   0  0  0  0  0  0  0  0  0  0  0  0
  128.8520  123.7910   61.3670 C   0  0  2  0  0  0  0  0  0  0  0  0
  129.2360  124.1980   62.8200 C   0  0  0  0  0  0  0  0  0  0  0  0
  129.4800  123.2040   63.7820 C   0  0  0  0  0  0  0  0  0  0  0  0
  129.8400  123.5320   65.0860 C   0  0  0  0  0  0  0  0  0  0  0  0
  129.9660  124.8630   65.4780 C   0  0  0  0  0  0  0  0  0  0  0  0
  130.3410  125.0980   66.7870 O   0  0  0  0  0  0  0  0  0  0  0  0
  129.8080  126.2290   67.4680 C   0  0  0  0  0  0  0  0  0  0  0  0
  129.7050  125.8640   64.5340 C   0  0  0  0  0  0  0  0  0  0  0  0
  129.3170  125.5470   63.2290 C   0  0  0  0  0  0  0  0  0  0  0  0
  129.0690  126.5690   62.3480 O   0  0  0  0  0  0  0  0  0  0  0  0
  130.3430  127.2890   61.5320 S   0  0  0  0  0  0  0  0  0  0  0  0
  131.5460  127.1440   62.3600 O   0  0  0  0  0  0  0  0  0  0  0  0
  130.3210  126.8940   60.1180 O   0  0  0  0  0  0  0  0  0  0  0  0
  129.8460  129.0250   61.6440 C   0  0  0  0  0  0  0  0  0  0  0  0
  128.6520  129.4800   62.1880 C   0  0  0  0  0  0  0  0  0  0  0  0
  128.5350  130.8730   62.1400 C   0  0  0  0  0  0  0  0  0  0  0  0
  129.6430  131.4830   61.5670 C   0  0  0  0  0  0  0  0  0  0  0  0
  130.8470  130.3310   61.0860 S   0  0  0  0  0  0  0  0  0  0  0  0
  127.3860  124.2730   61.1430 C   0  0  0  0  0  0  0  0  0  0  0  0
  126.8260  123.9970   59.7410 C   0  0  0  0  0  0  0  0  0  0  0  0
  127.7530  124.5710   58.6680 C   0  0  0  0  0  0  0  0  0  0  0  0
  129.1750  124.0100   58.8190 C   0  0  0  0  0  0  0  0  0  0  0  0
  129.8310  124.2790   60.2190 C   0  0  2  0  0  0  0  0  0  0  0  0
  131.2970  123.6730   60.3470 C   0  0  0  0  0  0  0  0  0  0  0  0
  132.0840  124.0260   59.0220 C   0  0  0  0  0  0  0  0  0  0  0  0
  133.6310  123.9740   59.0250 C   0  0  0  0  0  0  0  0  0  0  0  0
  134.2490  124.6740   60.2400 C   0  0  0  0  0  0  0  0  0  0  0  0
  133.5950  124.1990   61.5410 C   0  0  0  0  0  0  0  0  0  0  0  0
  132.0670  124.3970   61.5100 C   0  0  0  0  0  0  0  0  0  0  0  0
  129.7169  116.2704   60.9257 H   0  0  0  0  0  0  0  0  0  0  0  0
  129.3956  117.6825   59.8630 H   0  0  0  0  0  0  0  0  0  0  0  0
  131.0168  116.9089   59.8630 H   0  0  0  0  0  0  0  0  0  0  0  0
  132.9084  119.2074   60.6804 H   0  0  0  0  0  0  0  0  0  0  0  0
  133.1820  121.6098   60.1756 H   0  0  0  0  0  0  0  0  0  0  0  0
  128.7753  119.8968   61.6956 H   0  0  0  0  0  0  0  0  0  0  0  0
  129.3847  122.1452   63.4992 H   0  0  0  0  0  0  0  0  0  0  0  0
  130.0273  122.7306   65.8158 H   0  0  0  0  0  0  0  0  0  0  0  0
  129.8822  126.0715   68.5541 H   0  0  0  0  0  0  0  0  0  0  0  0
  130.3774  127.1275   67.1880 H   0  0  0  0  0  0  0  0  0  0  0  0
  128.7525  126.3618   67.1880 H   0  0  0  0  0  0  0  0  0  0  0  0
  129.8073  126.9199   64.8250 H   0  0  0  0  0  0  0  0  0  0  0  0
  127.8824  128.8173   62.6105 H   0  0  0  0  0  0  0  0  0  0  0  0
  127.6607  131.4250   62.5152 H   0  0  0  0  0  0  0  0  0  0  0  0
  129.7452  132.5701   61.4337 H   0  0  0  0  0  0  0  0  0  0  0  0
  126.7424  123.7634   61.8752 H   0  0  0  0  0  0  0  0  0  0  0  0
  127.3973  125.3664   61.2627 H   0  0  0  0  0  0  0  0  0  0  0  0
  126.7343  122.9105   59.5959 H   0  0  0  0  0  0  0  0  0  0  0  0
  125.8405  124.4775   59.6520 H   0  0  0  0  0  0  0  0  0  0  0  0
  127.3635  124.3040   57.6745 H   0  0  0  0  0  0  0  0  0  0  0  0
  127.7911  125.6643   58.7830 H   0  0  0  0  0  0  0  0  0  0  0  0
  129.1346  122.9222   58.6610 H   0  0  0  0  0  0  0  0  0  0  0  0
  129.7981  124.5277   58.0749 H   0  0  0  0  0  0  0  0  0  0  0  0
  129.9751  125.3639   60.3297 H   0  0  0  0  0  0  0  0  0  0  0  0
  131.7405  123.3242   58.2477 H   0  0  0  0  0  0  0  0  0  0  0  0
  131.8587  125.0904   58.8601 H   0  0  0  0  0  0  0  0  0  0  0  0
  133.9467  122.9203   59.0289 H   0  0  0  0  0  0  0  0  0  0  0  0
  133.9807  124.5029   58.1262 H   0  0  0  0  0  0  0  0  0  0  0  0
  135.3251  124.4488   60.2756 H   0  0  0  0  0  0  0  0  0  0  0  0
  134.0841  125.7570   60.1409 H   0  0  0  0  0  0  0  0  0  0  0  0
  133.8142  123.1303   61.6818 H   0  0  0  0  0  0  0  0  0  0  0  0
  134.0035  124.7951   62.3703 H   0  0  0  0  0  0  0  0  0  0  0  0
  131.6612  124.0264   62.4629 H   0  0  0  0  0  0  0  0  0  0  0  0
  131.9130  125.4728   61.3400 H   0  0  0  0  0  0  0  0  0  0  0  0
  1  2  1  0
  2  3  1  0
  3  4  2  0
  4  5  1  0
  5  6  2  0
  6  7  1  0
  7  8  2  0
  7  9  1  0
  9 10  1  0
 10 11  1  1
 11 12  2  0
 12 13  1  0
 13 14  2  0
 14 15  1  0
 15 16  1  0
 14 17  1  0
 17 18  2  0
 18 19  1  0
 19 20  1  0
 20 21  2  0
 20 22  2  0
 20 23  1  0
 23 24  2  0
 24 25  1  0
 25 26  2  0
 26 27  1  0
 10 28  1  0
 28 29  1  0
 29 30  1  0
 30 31  1  0
 31 32  1  0
 32 33  1  0
 33 34  1  0
 34 35  1  0
 35 36  1  0
 36 37  1  0
 37 38  1  0
  8  3  1  0
 32 10  1  0
 38 33  1  0
 33  6  1  0
 18 11  1  0
 27 23  1  0
  1 39  1  0
  1 40  1  0
  1 41  1  0
  4 42  1  0
  5 43  1  0
  8 44  1  0
 12 45  1  0
 13 46  1  0
 16 47  1  0
 16 48  1  0
 16 49  1  0
 17 50  1  0
 24 51  1  0
 25 52  1  0
 26 53  1  0
 28 54  1  0
 28 55  1  0
 29 56  1  0
 29 57  1  0
 30 58  1  0
 30 59  1  0
 31 60  1  0
 31 61  1  0
 32 62  1  1
 34 63  1  0
 34 64  1  0
 35 65  1  0
 35 66  1  0
 36 67  1  0
 36 68  1  0
 37 69  1  0
 37 70  1  0
 38 71  1  0
 38 72  1  0
M  END
>  <Binding energies>  (1) 
[-7.48]

>  <Ligand effiencies>  (1) 
[-0.1968421052631579]

>  <Interactions>  (1) 
["V-A:ILE:369:CG2:3237, V-A:ASP:366:CA:3210, V-B:PRO:540:CA:9855, V-A:ILE:369:CB:3236, V-B:GLU:543:CB:9878, V-B:ALA:541:CB:9864, V-B:TYR:539:CE2:9848, V-A:TYR:484:CE2:4346, V-B:GLU:543:CG:9879, V-B:TYR:539:C:9839, V-A:ASP:366:CG:3213, V-B:TYR:539:CZ:9849, V-B:VAL:344:CG1:7972, H-B:ALA:541:N:9863, V-B:TYR:539:CB:9843, V-A:HIS:383:CE1:3393, V-A:GLU:543:CD:4908, V-A:ILE:369:CD1:3239, V-A:HIS:456:CE1:4070, V-A:PRO:482:CB:4326, V-B:TYR:539:CD2:9846, V-A:SER:385:CB:3409, H-A:SER:385:OG:3410, V-B:GLU:543:CD:9880, V-A:ASP:366:CB:3212, V-A:LEU:475:CD2:4259, H-A:ARG:545:NH2:4928, H-A:HIS:383:HE2:3395, V-A:PRO:482:CG:4327, V-B:PRO:540:C:9853, V-A:HIS:383:NE2:3394, H-A:TYR:484:OH:4348"]

$$$$
ZINC98008122
     RDKit          3D

 73 77  0  0  0  0  0  0  0  0999 V2000
  131.3380  119.6370   60.8520 C   0  0  0  0  0  0  0  0  0  0  0  0
  132.4970  120.4120   60.2180 C   0  0  0  0  0  0  0  0  0  0  0  0
  133.2770  121.0040   61.2480 O   0  0  0  0  0  0  0  0  0  0  0  0
  133.1200  122.3060   61.5960 C   0  0  0  0  0  0  0  0  0  0  0  0
  133.8610  122.8730   62.4040 O   0  0  0  0  0  0  0  0  0  0  0  0
  131.9570  122.9600   60.9290 C   0  0  0  0  0  0  0  0  0  0  0  0
  132.1050  123.7410   59.8200 C   0  0  0  0  0  0  0  0  0  0  0  0
  133.3680  123.9890   58.9970 C   0  0  0  0  0  0  0  0  0  0  0  0
  131.0030  124.3400   59.2510 N   0  0  0  0  0  0  0  0  0  0  0  0
  129.7090  124.2180   59.6990 C   0  0  0  0  0  0  0  0  0  0  0  0
  129.4280  123.4410   60.7810 C   0  0  0  0  0  0  0  0  0  0  0  0
  128.0230  123.1980   61.1930 C   0  0  0  0  0  0  0  0  0  0  0  0
  127.7250  122.5910   62.2200 O   0  0  0  0  0  0  0  0  0  0  0  0
  126.9210  123.8320   60.3220 C   0  0  0  0  0  0  0  0  0  0  0  0
  127.3210  124.0290   58.8330 C   0  0  0  0  0  0  0  0  0  0  0  0
  127.5160  122.6510   58.1420 C   0  0  0  0  0  0  0  0  0  0  0  0
  126.2140  124.8660   58.1590 C   0  0  0  0  0  0  0  0  0  0  0  0
  128.6410  124.8530   58.8040 C   0  0  0  0  0  0  0  0  0  0  0  0
  130.5700  122.8180   61.6330 C   0  0  2  0  0  0  0  0  0  0  0  0
  130.5680  123.3120   63.0950 C   0  0  0  0  0  0  0  0  0  0  0  0
  129.6960  122.7710   64.0420 C   0  0  0  0  0  0  0  0  0  0  0  0
  129.7100  123.2290   65.3560 C   0  0  0  0  0  0  0  0  0  0  0  0
  130.6020  124.2390   65.7550 C   0  0  0  0  0  0  0  0  0  0  0  0
  130.6650  124.7410   67.0420 O   0  0  0  0  0  0  0  0  0  0  0  0
  129.4610  125.1070   67.7160 C   0  0  0  0  0  0  0  0  0  0  0  0
  129.0860  126.5390   67.3730 C   0  0  0  0  0  0  0  0  0  0  0  0
  128.8420  126.9880   66.1630 N   0  0  0  0  0  0  0  0  0  0  0  0
  128.5160  128.3300   66.3140 N   0  0  0  0  0  0  0  0  0  0  0  0
  128.5730  128.6790   67.6480 N   0  0  0  0  0  0  0  0  0  0  0  0
  128.9380  127.5620   68.2930 N   0  0  0  0  0  0  0  0  0  0  0  0
  129.0970  127.5550   69.6960 C   0  0  0  0  0  0  0  0  0  0  0  0
  128.0840  127.0410   70.5140 C   0  0  0  0  0  0  0  0  0  0  0  0
  128.2440  127.0380   71.8970 C   0  0  0  0  0  0  0  0  0  0  0  0
  129.4130  127.5460   72.4590 C   0  0  0  0  0  0  0  0  0  0  0  0
  130.4280  128.0540   71.6510 C   0  0  0  0  0  0  0  0  0  0  0  0
  130.2720  128.0580   70.2670 C   0  0  0  0  0  0  0  0  0  0  0  0
  131.4890  124.7820   64.8130 C   0  0  0  0  0  0  0  0  0  0  0  0
  132.3550  125.7670   65.2590 O   0  0  0  0  0  0  0  0  0  0  0  0
  133.2840  125.4660   66.2940 C   0  0  0  0  0  0  0  0  0  0  0  0
  131.4590  124.3140   63.4890 C   0  0  0  0  0  0  0  0  0  0  0  0
  131.4174  119.6901   61.9478 H   0  0  0  0  0  0  0  0  0  0  0  0
  130.3829  120.0788   60.5317 H   0  0  0  0  0  0  0  0  0  0  0  0
  131.3813  118.5855   60.5317 H   0  0  0  0  0  0  0  0  0  0  0  0
  133.1230  119.7240   59.6307 H   0  0  0  0  0  0  0  0  0  0  0  0
  132.1011  121.1955   59.5551 H   0  0  0  0  0  0  0  0  0  0  0  0
  134.2193  124.1562   59.6732 H   0  0  0  0  0  0  0  0  0  0  0  0
  133.5701  123.1134   58.3626 H   0  0  0  0  0  0  0  0  0  0  0  0
  133.2240  124.8760   58.3626 H   0  0  0  0  0  0  0  0  0  0  0  0
  131.1690  124.9810   58.4880 H   0  0  0  0  0  0  0  0  0  0  0  0
  126.0352  123.1808   60.3581 H   0  0  0  0  0  0  0  0  0  0  0  0
  126.7299  124.8341   60.7335 H   0  0  0  0  0  0  0  0  0  0  0  0
  127.6266  121.8692   58.9078 H   0  0  0  0  0  0  0  0  0  0  0  0
  126.6404  122.4283   57.5145 H   0  0  0  0  0  0  0  0  0  0  0  0
  128.4190  122.6800   57.5145 H   0  0  0  0  0  0  0  0  0  0  0  0
  125.5895  125.3382   58.9317 H   0  0  0  0  0  0  0  0  0  0  0  0
  126.6733  125.6447   57.5324 H   0  0  0  0  0  0  0  0  0  0  0  0
  125.5899  124.2119   57.5324 H   0  0  0  0  0  0  0  0  0  0  0  0
  129.0163  124.8935   57.7708 H   0  0  0  0  0  0  0  0  0  0  0  0
  128.4286  125.8651   59.1790 H   0  0  0  0  0  0  0  0  0  0  0  0
  130.3675  121.7390   61.7011 H   0  0  0  0  0  0  0  0  0  0  0  0
  128.9934  121.9776   63.7474 H   0  0  0  0  0  0  0  0  0  0  0  0
  129.0152  122.7957   66.0905 H   0  0  0  0  0  0  0  0  0  0  0  0
  128.6496  124.4334   67.4032 H   0  0  0  0  0  0  0  0  0  0  0  0
  129.6169  125.0256   68.8018 H   0  0  0  0  0  0  0  0  0  0  0  0
  127.1633  126.6402   70.0649 H   0  0  0  0  0  0  0  0  0  0  0  0
  127.4501  126.6359   72.5436 H   0  0  0  0  0  0  0  0  0  0  0  0
  129.5360  127.5461   73.5521 H   0  0  0  0  0  0  0  0  0  0  0  0
  131.3487  128.4502   72.1042 H   0  0  0  0  0  0  0  0  0  0  0  0
  131.0707  128.4557   69.6237 H   0  0  0  0  0  0  0  0  0  0  0  0
  132.8058  125.6209   67.2724 H   0  0  0  0  0  0  0  0  0  0  0  0
  133.6053  124.4178   66.2048 H   0  0  0  0  0  0  0  0  0  0  0  0
  134.1590  126.1266   66.2048 H   0  0  0  0  0  0  0  0  0  0  0  0
  132.1495  124.7441   62.7486 H   0  0  0  0  0  0  0  0  0  0  0  0
  1  2  1  0
  2  3  1  0
  3  4  1  0
  4  5  2  0
  4  6  1  0
  6  7  2  0
  7  8  1  0
  7  9  1  0
  9 10  1  0
 10 11  2  0
 11 12  1  0
 12 13  2  0
 12 14  1  0
 14 15  1  0
 15 16  1  0
 15 17  1  0
 15 18  1  0
 11 19  1  0
 19 20  1  0
 20 21  2  0
 21 22  1  0
 22 23  2  0
 23 24  1  0
 24 25  1  0
 25 26  1  0
 26 27  2  0
 27 28  1  0
 28 29  2  0
 29 30  1  0
 30 31  1  0
 31 32  2  0
 32 33  1  0
 33 34  2  0
 34 35  1  0
 35 36  2  0
 23 37  1  0
 37 38  1  0
 38 39  1  0
 37 40  2  0
 19  6  1  0
 40 20  1  0
 18 10  1  0
 30 26  1  0
 36 31  1  0
  1 41  1  0
  1 42  1  0
  1 43  1  0
  2 44  1  0
  2 45  1  0
  8 46  1  0
  8 47  1  0
  8 48  1  0
  9 49  1  0
 14 50  1  0
 14 51  1  0
 16 52  1  0
 16 53  1  0
 16 54  1  0
 17 55  1  0
 17 56  1  0
 17 57  1  0
 18 58  1  0
 18 59  1  0
 19 60  1  1
 21 61  1  0
 22 62  1  0
 25 63  1  0
 25 64  1  0
 32 65  1  0
 33 66  1  0
 34 67  1  0
 35 68  1  0
 36 69  1  0
 39 70  1  0
 39 71  1  0
 39 72  1  0
 40 73  1  0
M  END
>  <Binding energies>  (1) 
[-9.34]

>  <Ligand effiencies>  (1) 
[-0.2278048780487805]

>  <Interactions>  (1) 
["V-A:ILE:369:CG2:3237, V-A:ASP:366:CA:3210, V-B:PRO:540:CA:9855, V-B:GLU:543:C:9874, V-A:ILE:369:CB:3236, V-A:GLU:543:C:4902, V-B:GLU:543:CB:9878, V-B:ALA:541:CB:9864, V-B:TYR:539:CE2:9848, V-A:TYR:484:CE2:4346, V-B:GLU:543:CG:9879, V-A:GLY:544:C:4912, V-B:TYR:539:C:9839, V-B:TYR:539:CZ:9849, H-B:TYR:539:OH:9850, H-B:ALA:541:N:9863, V-A:TYR:484:CZ:4347, V-B:PRO:540:CB:9857, V-A:ARG:545:CG:4922, H-A:GLY:454:N:4050, V-B:GLU:543:CA:9876, V-B:HIS:456:CE1:9041, V-B:PRO:540:N:9856, V-A:HIS:456:CE1:4070, V-B:TYR:539:CD2:9846, H-A:SER:385:OG:3410, V-B:GLU:543:CD:9880, V-A:ARG:545:CD:4923, V-A:LEU:475:CD2:4259, H-A:ARG:545:NH2:4928, V-A:ARG:545:CZ:4926, V-B:TYR:539:CG:9844, V-A:GLU:543:CB:4906, H-A:ARG:545:NE:4924, H-A:TYR:484:OH:4348"]

$$$$
ZINC98008179
     RDKit          3D

 66 72  0  0  0  0  0  0  0  0999 V2000
  126.4710  122.8600   61.6850 N   0  0  0  0  0  0  0  0  0  0  0  0
  127.4520  123.3970   61.3870 C   0  0  0  0  0  0  0  0  0  0  0  0
  128.6580  124.0710   60.9920 C   0  0  0  0  0  0  0  0  0  0  0  0
  129.7210  124.0760   61.8290 C   0  0  0  0  0  0  0  0  0  0  0  0
  129.6410  123.4340   63.0890 N   0  0  0  0  0  0  0  0  0  0  0  0
  129.1770  123.9950   64.2590 C   0  0  0  0  0  0  0  0  0  0  0  0
  129.2620  123.0560   65.2760 C   0  0  0  0  0  0  0  0  0  0  0  0
  129.7990  121.8910   64.7210 C   0  0  0  0  0  0  0  0  0  0  0  0
  130.0310  122.1450   63.3780 C   0  0  0  0  0  0  0  0  0  0  0  0
  130.9250  124.7120   61.4940 N   0  0  0  0  0  0  0  0  0  0  0  0
  131.9560  124.8150   62.4610 C   0  0  0  0  0  0  0  0  0  0  0  0
  133.2430  124.3400   62.1770 C   0  0  0  0  0  0  0  0  0  0  0  0
  134.2460  124.4360   63.1370 C   0  0  0  0  0  0  0  0  0  0  0  0
  133.9640  125.0060   64.3770 C   0  0  0  0  0  0  0  0  0  0  0  0
  134.9380  125.0960   65.3090 F   0  0  0  0  0  0  0  0  0  0  0  0
  132.6870  125.4820   64.6650 C   0  0  0  0  0  0  0  0  0  0  0  0
  131.6820  125.3870   63.7060 C   0  0  0  0  0  0  0  0  0  0  0  0
  131.1450  125.2230   60.2020 C   0  0  0  0  0  0  0  0  0  0  0  0
  130.1390  125.2470   59.2690 C   0  0  0  0  0  0  0  0  0  0  0  0
  130.3800  125.8220   57.9010 C   0  0  0  0  0  0  0  0  0  0  0  0
  129.4650  126.1360   57.1400 O   0  0  0  0  0  0  0  0  0  0  0  0
  131.8150  126.2200   57.5230 C   0  0  0  0  0  0  0  0  0  0  0  0
  132.8560  125.4620   58.3460 C   0  0  0  0  0  0  0  0  0  0  0  0
  132.5850  125.6570   59.8420 C   0  0  0  0  0  0  0  0  0  0  0  0
  128.6810  124.7910   59.6280 C   0  0  2  0  0  0  0  0  0  0  0  0
  127.7370  126.0120   59.7390 C   0  0  0  0  0  0  0  0  0  0  0  0
  127.9100  126.9800   60.4840 O   0  0  0  0  0  0  0  0  0  0  0  0
  126.7210  125.8070   58.8610 N   0  0  0  0  0  0  0  0  0  0  0  0
  125.7020  126.8390   58.6380 C   0  0  0  0  0  0  0  0  0  0  0  0
  126.2510  128.2630   58.6590 C   0  0  0  0  0  0  0  0  0  0  0  0
  125.7570  129.1750   59.5980 C   0  0  0  0  0  0  0  0  0  0  0  0
  126.2470  130.4810   59.6380 C   0  0  0  0  0  0  0  0  0  0  0  0
  127.2270  130.8880   58.7350 C   0  0  0  0  0  0  0  0  0  0  0  0
  127.7160  129.9870   57.7880 C   0  0  0  0  0  0  0  0  0  0  0  0
  127.2280  128.6800   57.7450 C   0  0  0  0  0  0  0  0  0  0  0  0
  127.7090  127.8280   56.8120 F   0  0  0  0  0  0  0  0  0  0  0  0
  126.8540  124.6020   58.1650 C   0  0  0  0  0  0  0  0  0  0  0  0
  126.0130  124.0270   57.2090 C   0  0  0  0  0  0  0  0  0  0  0  0
  126.3590  122.7960   56.6470 C   0  0  0  0  0  0  0  0  0  0  0  0
  127.5280  122.1450   57.0480 C   0  0  0  0  0  0  0  0  0  0  0  0
  128.3550  122.7190   58.0160 C   0  0  0  0  0  0  0  0  0  0  0  0
  128.0050  123.9510   58.5750 C   0  0  0  0  0  0  0  0  0  0  0  0
  128.7998  125.0225   64.3687 H   0  0  0  0  0  0  0  0  0  0  0  0
  128.9625  123.2011   66.3245 H   0  0  0  0  0  0  0  0  0  0  0  0
  130.0001  120.9483   65.2510 H   0  0  0  0  0  0  0  0  0  0  0  0
  130.4582  121.4312   62.6583 H   0  0  0  0  0  0  0  0  0  0  0  0
  133.4605  123.8917   61.1963 H   0  0  0  0  0  0  0  0  0  0  0  0
  135.2575  124.0634   62.9178 H   0  0  0  0  0  0  0  0  0  0  0  0
  132.4734  125.9312   65.6461 H   0  0  0  0  0  0  0  0  0  0  0  0
  130.6722  125.7623   63.9285 H   0  0  0  0  0  0  0  0  0  0  0  0
  131.9756  125.9992   56.4574 H   0  0  0  0  0  0  0  0  0  0  0  0
  131.9350  127.2937   57.7299 H   0  0  0  0  0  0  0  0  0  0  0  0
  132.8028  124.3905   58.1028 H   0  0  0  0  0  0  0  0  0  0  0  0
  133.8573  125.8496   58.1069 H   0  0  0  0  0  0  0  0  0  0  0  0
  133.2989  125.0513   60.4195 H   0  0  0  0  0  0  0  0  0  0  0  0
  132.7022  126.7234   60.0848 H   0  0  0  0  0  0  0  0  0  0  0  0
  125.2374  126.6611   57.6569 H   0  0  0  0  0  0  0  0  0  0  0  0
  124.9818  126.7616   59.4658 H   0  0  0  0  0  0  0  0  0  0  0  0
  124.9782  128.8609   60.3085 H   0  0  0  0  0  0  0  0  0  0  0  0
  125.8589  131.1904   60.3837 H   0  0  0  0  0  0  0  0  0  0  0  0
  127.6143  131.9170   58.7685 H   0  0  0  0  0  0  0  0  0  0  0  0
  128.4883  130.3078   57.0734 H   0  0  0  0  0  0  0  0  0  0  0  0
  125.0885  124.5381   56.9023 H   0  0  0  0  0  0  0  0  0  0  0  0
  125.7093  122.3380   55.8867 H   0  0  0  0  0  0  0  0  0  0  0  0
  127.7980  121.1773   56.6000 H   0  0  0  0  0  0  0  0  0  0  0  0
  129.2739  122.2058   58.3356 H   0  0  0  0  0  0  0  0  0  0  0  0
  1  2  3  0
  2  3  1  0
  3  4  2  0
  4  5  1  0
  5  6  1  0
  6  7  2  0
  7  8  1  0
  8  9  2  0
  4 10  1  0
 10 11  1  0
 11 12  2  0
 12 13  1  0
 13 14  2  0
 14 15  1  0
 14 16  1  0
 16 17  2  0
 10 18  1  0
 18 19  2  0
 19 20  1  0
 20 21  2  0
 20 22  1  0
 22 23  1  0
 23 24  1  0
 19 25  1  0
 25 26  1  1
 26 27  2  0
 26 28  1  0
 28 29  1  0
 29 30  1  0
 30 31  2  0
 31 32  1  0
 32 33  2  0
 33 34  1  0
 34 35  2  0
 35 36  1  0
 28 37  1  0
 37 38  2  0
 38 39  1  0
 39 40  2  0
 40 41  1  0
 41 42  2  0
 25  3  1  0
 35 30  1  0
 42 37  1  0
  9  5  1  0
 17 11  1  0
 24 18  1  0
 42 25  1  0
  6 43  1  0
  7 44  1  0
  8 45  1  0
  9 46  1  0
 12 47  1  0
 13 48  1  0
 16 49  1  0
 17 50  1  0
 22 51  1  0
 22 52  1  0
 23 53  1  0
 23 54  1  0
 24 55  1  0
 24 56  1  0
 29 57  1  0
 29 58  1  0
 31 59  1  0
 32 60  1  0
 33 61  1  0
 34 62  1  0
 38 63  1  0
 39 64  1  0
 40 65  1  0
 41 66  1  0
M  END
>  <Binding energies>  (1) 
[-7.62]

>  <Ligand effiencies>  (1) 
[-0.18142857142857144]

>  <Interactions>  (1) 
["V-B:TYR:539:CA:9841, V-A:ASP:366:CA:3210, V-B:PRO:540:CA:9855, V-A:GLY:454:CA:4049, V-B:GLU:543:CB:9878, V-B:ALA:541:CB:9864, V-B:ASP:366:CG:8184, H-A:TYR:531:OH:4795, V-B:TYR:539:CE2:9848, V-A:TYR:484:CE2:4346, V-B:GLU:543:CG:9879, V-B:TYR:539:C:9839, V-A:ASP:366:CG:3213, V-B:TYR:539:CZ:9849, H-B:TYR:539:OH:9850, H-B:ALA:541:N:9863, V-A:LEU:475:CD1:4258, V-B:ASP:366:CB:8183, V-B:GLU:543:CA:9876, V-A:GLY:453:C:4042, V-B:PRO:540:N:9856, V-A:ASP:366:C:3208, V-B:PRO:540:CD:9859, V-A:TYR:531:CZ:4794, V-B:TYR:539:CD2:9846, V-B:GLU:543:CD:9880, V-A:ASP:366:CB:3212, V-A:ARG:545:CD:4923, V-A:LEU:475:CD2:4259, V-A:ARG:545:CZ:4926, V-B:TYR:539:CG:9844, V-B:TYR:539:CD1:9845, V-A:GLY:453:CA:4044, V-B:MET:535:CE:9807, V-B:TYR:539:CE1:9847"]

$$$$
ZINC98008179-again1
     RDKit          3D

 65 71  0  0  0  0  0  0  0  0999 V2000
  130.7990  127.2930   62.6680 N   0  0  0  0  0  0  0  0  0  0  0  0
  130.4450  126.4750   61.9290 C   0  0  0  0  0  0  0  0  0  0  0  0
  129.9940  125.4790   60.9970 C   0  0  0  0  0  0  0  0  0  0  0  0
  130.2060  124.1690   61.2780 C   0  0  0  0  0  0  0  0  0  0  0  0
  130.9020  123.8030   62.4570 N   0  0  0  0  0  0  0  0  0  0  0  0
  132.2700  123.7510   62.6140 C   0  0  0  0  0  0  0  0  0  0  0  0
  132.5630  123.3430   63.9060 C   0  0  0  0  0  0  0  0  0  0  0  0
  131.3480  123.1310   64.5590 C   0  0  0  0  0  0  0  0  0  0  0  0
  130.3390  123.4120   63.6520 C   0  0  0  0  0  0  0  0  0  0  0  0
  129.7660  123.1340   60.4390 N   0  0  0  0  0  0  0  0  0  0  0  0
  130.0830  121.7850   60.7460 C   0  0  0  0  0  0  0  0  0  0  0  0
  131.3560  121.2690   60.4750 C   0  0  0  0  0  0  0  0  0  0  0  0
  131.6500  119.9440   60.7850 C   0  0  0  0  0  0  0  0  0  0  0  0
  130.6750  119.1380   61.3700 C   0  0  0  0  0  0  0  0  0  0  0  0
  130.9620  117.8520   61.6730 F   0  0  0  0  0  0  0  0  0  0  0  0
  129.4090  119.6470   61.6490 C   0  0  0  0  0  0  0  0  0  0  0  0
  129.1120  120.9720   61.3370 C   0  0  0  0  0  0  0  0  0  0  0  0
  128.8610  123.4010   59.4010 C   0  0  0  0  0  0  0  0  0  0  0  0
  128.0200  122.4380   58.9290 C   0  0  0  0  0  0  0  0  0  0  0  0
  127.0740  122.6430   57.7550 C   0  0  0  0  0  0  0  0  0  0  0  0
  127.6600  123.7010   56.7960 C   0  0  0  0  0  0  0  0  0  0  0  0
  128.1680  124.8950   57.6140 C   0  0  0  0  0  0  0  0  0  0  0  0
  127.9330  126.0010   56.9900 O   0  0  0  0  0  0  0  0  0  0  0  0
  128.7770  124.7690   58.8390 C   0  0  0  0  0  0  0  0  0  0  0  0
  129.3170  125.9680   59.6960 C   0  0  2  0  0  0  0  0  0  0  0  0
  130.4100  126.7510   58.9230 C   0  0  0  0  0  0  0  0  0  0  0  0
  131.4480  126.2620   58.4690 O   0  0  0  0  0  0  0  0  0  0  0  0
  130.0000  128.0450   58.8590 N   0  0  0  0  0  0  0  0  0  0  0  0
  130.7870  129.0700   58.1620 C   0  0  0  0  0  0  0  0  0  0  0  0
  131.5680  129.9900   59.0950 C   0  0  0  0  0  0  0  0  0  0  0  0
  131.1260  130.1780   60.4090 C   0  0  0  0  0  0  0  0  0  0  0  0
  131.8290  131.0150   61.2770 C   0  0  0  0  0  0  0  0  0  0  0  0
  132.9820  131.6630   60.8400 C   0  0  0  0  0  0  0  0  0  0  0  0
  133.4390  131.4660   59.5360 C   0  0  0  0  0  0  0  0  0  0  0  0
  132.7390  130.6290   58.6670 C   0  0  0  0  0  0  0  0  0  0  0  0
  133.2130  130.4360   57.4150 F   0  0  0  0  0  0  0  0  0  0  0  0
  128.7590  128.2370   59.4710 C   0  0  0  0  0  0  0  0  0  0  0  0
  128.0090  129.4070   59.6120 C   0  0  0  0  0  0  0  0  0  0  0  0
  126.7750  129.3530   60.2630 C   0  0  0  0  0  0  0  0  0  0  0  0
  126.3020  128.1400   60.7700 C   0  0  0  0  0  0  0  0  0  0  0  0
  127.0620  126.9770   60.6310 C   0  0  0  0  0  0  0  0  0  0  0  0
  128.2960  127.0360   59.9800 C   0  0  0  0  0  0  0  0  0  0  0  0
  133.0110  123.9943   61.8382 H   0  0  0  0  0  0  0  0  0  0  0  0
  133.5666  123.2109   64.3365 H   0  0  0  0  0  0  0  0  0  0  0  0
  131.2159  122.8020   65.6003 H   0  0  0  0  0  0  0  0  0  0  0  0
  129.2604  123.3351   63.8539 H   0  0  0  0  0  0  0  0  0  0  0  0
  132.1236  121.9103   60.0173 H   0  0  0  0  0  0  0  0  0  0  0  0
  132.6480  119.5348   60.5691 H   0  0  0  0  0  0  0  0  0  0  0  0
  128.6463  119.0052   62.1141 H   0  0  0  0  0  0  0  0  0  0  0  0
  128.1134  121.3781   61.5558 H   0  0  0  0  0  0  0  0  0  0  0  0
  128.0254  121.4563   59.4252 H   0  0  0  0  0  0  0  0  0  0  0  0
  126.9467  121.6920   57.2171 H   0  0  0  0  0  0  0  0  0  0  0  0
  126.0986  122.9887   58.1280 H   0  0  0  0  0  0  0  0  0  0  0  0
  128.4939  123.2620   56.2287 H   0  0  0  0  0  0  0  0  0  0  0  0
  126.8815  124.0369   56.0952 H   0  0  0  0  0  0  0  0  0  0  0  0
  131.5017  128.5645   57.4959 H   0  0  0  0  0  0  0  0  0  0  0  0
  130.0734  129.7025   57.6136 H   0  0  0  0  0  0  0  0  0  0  0  0
  130.2194  129.6633   60.7600 H   0  0  0  0  0  0  0  0  0  0  0  0
  131.4722  131.1630   62.3070 H   0  0  0  0  0  0  0  0  0  0  0  0
  133.5315  132.3290   61.5216 H   0  0  0  0  0  0  0  0  0  0  0  0
  134.3534  131.9720   59.1927 H   0  0  0  0  0  0  0  0  0  0  0  0
  128.3865  130.3606   59.2144 H   0  0  0  0  0  0  0  0  0  0  0  0
  126.1740  130.2672   60.3769 H   0  0  0  0  0  0  0  0  0  0  0  0
  125.3282  128.1012   61.2801 H   0  0  0  0  0  0  0  0  0  0  0  0
  126.6916  126.0217   61.0312 H   0  0  0  0  0  0  0  0  0  0  0  0
  1  2  3  0
  2  3  1  0
  3  4  2  0
  4  5  1  0
  5  6  1  0
  6  7  2  0
  7  8  1  0
  8  9  2  0
  4 10  1  0
 10 11  1  0
 11 12  2  0
 12 13  1  0
 13 14  2  0
 14 15  1  0
 14 16  1  0
 16 17  2  0
 10 18  1  0
 18 19  2  0
 19 20  1  0
 20 21  1  0
 21 22  1  0
 22 23  1  0
 22 24  2  0
 24 25  1  0
 25 26  1  6
 26 27  2  0
 26 28  1  0
 28 29  1  0
 29 30  1  0
 30 31  2  0
 31 32  1  0
 32 33  2  0
 33 34  1  0
 34 35  2  0
 35 36  1  0
 28 37  1  0
 37 38  2  0
 38 39  1  0
 39 40  2  0
 40 41  1  0
 41 42  2  0
 25  3  1  0
 35 30  1  0
 42 37  1  0
  9  5  1  0
 17 11  1  0
 24 18  1  0
 42 25  1  0
  6 43  1  0
  7 44  1  0
  8 45  1  0
  9 46  1  0
 12 47  1  0
 13 48  1  0
 16 49  1  0
 17 50  1  0
 19 51  1  0
 20 52  1  0
 20 53  1  0
 21 54  1  0
 21 55  1  0
 29 56  1  0
 29 57  1  0
 31 58  1  0
 32 59  1  0
 33 60  1  0
 34 61  1  0
 38 62  1  0
 39 63  1  0
 40 64  1  0
 41 65  1  0
M  CHG  1  23  -1
M  END
>  <Binding energies>  (1) 
[-6.78]

>  <Ligand effiencies>  (1) 
[-0.16142857142857142]

>  <Interactions>  (1) 
["V-B:PRO:540:CA:9855, V-A:GLY:454:CA:4049, V-B:ASP:366:CG:8184, V-B:ALA:541:CB:9864, H-A:TYR:531:OH:4795, V-B:TYR:539:CE2:9848, V-A:TYR:484:CE2:4346, V-A:LEU:475:CG:4257, V-B:TYR:539:C:9839, V-A:ASP:366:CG:3213, V-A:LEU:363:CD1:3189, V-A:LEU:363:CB:3187, V-B:TYR:539:CZ:9849, V-A:TYR:531:CE2:4793, H-B:TYR:539:OH:9850, V-A:LEU:475:CD1:4258, V-A:TYR:484:CZ:4347, V-B:PRO:540:CB:9857, V-A:HIS:383:NE2:3394, V-B:PRO:540:N:9856, V-B:TYR:539:CD2:9846, V-B:PRO:540:CD:9859, V-A:SER:385:CB:3409, V-A:TYR:531:CZ:4794, H-B:TYR:531:OH:9767, V-A:ASP:366:CB:3212, V-A:LEU:475:CD2:4259, H-A:ARG:545:NH2:4928, V-B:TYR:539:CG:9844, V-A:PRO:540:CB:4885, V-A:LEU:363:CA:3185, V-A:PRO:540:CA:4883, V-B:PRO:540:C:9853, V-B:ALA:541:CA:9862, V-B:TYR:539:CE1:9847"]

$$$$
ZINC98008184
     RDKit          3D

 72 78  0  0  0  0  0  0  0  0999 V2000
  125.7910  122.4480   57.0270 C   0  0  0  0  0  0  0  0  0  0  0  0
  126.5660  123.7100   57.4670 C   0  0  0  0  0  0  0  0  0  0  0  0
  127.6330  124.1350   56.4200 C   0  0  0  0  0  0  0  0  0  0  0  0
  125.5350  124.8390   57.6880 C   0  0  0  0  0  0  0  0  0  0  0  0
  126.1200  126.1020   58.3450 C   0  0  0  0  0  0  0  0  0  0  0  0
  125.4850  127.1530   58.2810 O   0  0  0  0  0  0  0  0  0  0  0  0
  127.3530  125.9460   59.1850 C   0  0  0  0  0  0  0  0  0  0  0  0
  127.8430  124.6980   59.4720 C   0  0  0  0  0  0  0  0  0  0  0  0
  127.2150  123.4240   58.8480 C   0  0  0  0  0  0  0  0  0  0  0  0
  128.9910  124.5360   60.2680 N   0  0  0  0  0  0  0  0  0  0  0  0
  129.4050  123.2290   60.6230 C   0  0  0  0  0  0  0  0  0  0  0  0
  128.5250  122.3750   61.3000 C   0  0  0  0  0  0  0  0  0  0  0  0
  128.9310  121.0920   61.6640 C   0  0  0  0  0  0  0  0  0  0  0  0
  130.2180  120.6520   61.3530 C   0  0  0  0  0  0  0  0  0  0  0  0
  131.0990  121.4960   60.6760 C   0  0  0  0  0  0  0  0  0  0  0  0
  132.3460  121.0690   60.3740 F   0  0  0  0  0  0  0  0  0  0  0  0
  130.6940  122.7790   60.3110 C   0  0  0  0  0  0  0  0  0  0  0  0
  129.7540  125.6380   60.6780 C   0  0  0  0  0  0  0  0  0  0  0  0
  130.9830  125.3860   61.3350 N   0  0  0  0  0  0  0  0  0  0  0  0
  131.1450  125.0780   62.6680 C   0  0  0  0  0  0  0  0  0  0  0  0
  132.4940  124.8930   62.9280 C   0  0  0  0  0  0  0  0  0  0  0  0
  133.1790  125.0850   61.7260 C   0  0  0  0  0  0  0  0  0  0  0  0
  132.2330  125.3830   60.7570 C   0  0  0  0  0  0  0  0  0  0  0  0
  129.3430  126.9110   60.4700 C   0  0  0  0  0  0  0  0  0  0  0  0
  130.1690  128.0010   60.9070 C   0  0  0  0  0  0  0  0  0  0  0  0
  130.8180  128.8940   61.2540 N   0  0  0  0  0  0  0  0  0  0  0  0
  127.9900  127.2390   59.8050 C   0  0  2  0  0  0  0  0  0  0  0  0
  127.0740  127.8310   60.9020 C   0  0  0  0  0  0  0  0  0  0  0  0
  126.6700  127.2230   61.8950 O   0  0  0  0  0  0  0  0  0  0  0  0
  126.8180  129.1180   60.5490 N   0  0  0  0  0  0  0  0  0  0  0  0
  125.9320  129.9740   61.3480 C   0  0  0  0  0  0  0  0  0  0  0  0
  126.6720  130.9200   62.2890 C   0  0  0  0  0  0  0  0  0  0  0  0
  127.3560  130.3990   63.3920 C   0  0  0  0  0  0  0  0  0  0  0  0
  128.0440  131.2450   64.2610 C   0  0  0  0  0  0  0  0  0  0  0  0
  128.0450  132.6210   64.0380 C   0  0  0  0  0  0  0  0  0  0  0  0
  127.3520  133.1510   62.9500 C   0  0  0  0  0  0  0  0  0  0  0  0
  126.6620  132.3070   62.0790 C   0  0  0  0  0  0  0  0  0  0  0  0
  125.9840  132.8440   61.0400 F   0  0  0  0  0  0  0  0  0  0  0  0
  127.4320  129.4710   59.3450 C   0  0  0  0  0  0  0  0  0  0  0  0
  127.4100  130.6880   58.6580 C   0  0  0  0  0  0  0  0  0  0  0  0
  128.1020  130.8040   57.4520 C   0  0  0  0  0  0  0  0  0  0  0  0
  128.8110  129.7130   56.9410 C   0  0  0  0  0  0  0  0  0  0  0  0
  128.8330  128.5020   57.6370 C   0  0  0  0  0  0  0  0  0  0  0  0
  128.1390  128.3920   58.8460 C   0  0  0  0  0  0  0  0  0  0  0  0
  125.4525  121.8968   57.9167 H   0  0  0  0  0  0  0  0  0  0  0  0
  124.9190  122.7443   56.4255 H   0  0  0  0  0  0  0  0  0  0  0  0
  126.4497  121.8043   56.4255 H   0  0  0  0  0  0  0  0  0  0  0  0
  128.5338  124.4938   56.9394 H   0  0  0  0  0  0  0  0  0  0  0  0
  127.8925  123.2716   55.7898 H   0  0  0  0  0  0  0  0  0  0  0  0
  127.2278  124.9404   55.7898 H   0  0  0  0  0  0  0  0  0  0  0  0
  125.1154  125.1203   56.7108 H   0  0  0  0  0  0  0  0  0  0  0  0
  124.7746  124.4446   58.3782 H   0  0  0  0  0  0  0  0  0  0  0  0
  128.0023  122.6665   58.7200 H   0  0  0  0  0  0  0  0  0  0  0  0
  126.4256  123.0680   59.5264 H   0  0  0  0  0  0  0  0  0  0  0  0
  127.5092  122.7182   61.5455 H   0  0  0  0  0  0  0  0  0  0  0  0
  128.2362  120.4261   62.1968 H   0  0  0  0  0  0  0  0  0  0  0  0
  130.5381  119.6399   61.6415 H   0  0  0  0  0  0  0  0  0  0  0  0
  131.3902  123.4411   59.7754 H   0  0  0  0  0  0  0  0  0  0  0  0
  130.3346  124.9926   63.4069 H   0  0  0  0  0  0  0  0  0  0  0  0
  132.9420  124.6416   63.9007 H   0  0  0  0  0  0  0  0  0  0  0  0
  134.2664  125.0132   61.5760 H   0  0  0  0  0  0  0  0  0  0  0  0
  132.4466  125.5846   59.6969 H   0  0  0  0  0  0  0  0  0  0  0  0
  125.3204  130.5770   60.6607 H   0  0  0  0  0  0  0  0  0  0  0  0
  125.3250  129.3067   61.9775 H   0  0  0  0  0  0  0  0  0  0  0  0
  127.3512  129.3144   63.5753 H   0  0  0  0  0  0  0  0  0  0  0  0
  128.5857  130.8268   65.1222 H   0  0  0  0  0  0  0  0  0  0  0  0
  128.5922  133.2885   64.7199 H   0  0  0  0  0  0  0  0  0  0  0  0
  127.3493  134.2375   62.7780 H   0  0  0  0  0  0  0  0  0  0  0  0
  126.8530  131.5453   59.0638 H   0  0  0  0  0  0  0  0  0  0  0  0
  128.0896  131.7565   56.9019 H   0  0  0  0  0  0  0  0  0  0  0  0
  129.3529  129.8083   55.9885 H   0  0  0  0  0  0  0  0  0  0  0  0
  129.3913  127.6425   57.2375 H   0  0  0  0  0  0  0  0  0  0  0  0
  1  2  1  0
  2  3  1  0
  2  4  1  0
  4  5  1  0
  5  6  2  0
  5  7  1  0
  7  8  2  0
  8  9  1  0
  8 10  1  0
 10 11  1  0
 11 12  2  0
 12 13  1  0
 13 14  2  0
 14 15  1  0
 15 16  1  0
 15 17  2  0
 10 18  1  0
 18 19  1  0
 19 20  1  0
 20 21  2  0
 21 22  1  0
 22 23  2  0
 18 24  2  0
 24 25  1  0
 25 26  3  0
 27 24  1  1
 27 28  1  0
 28 29  2  0
 28 30  1  0
 30 31  1  0
 31 32  1  0
 32 33  2  0
 33 34  1  0
 34 35  2  0
 35 36  1  0
 36 37  2  0
 37 38  1  0
 30 39  1  0
 39 40  2  0
 40 41  1  0
 41 42  2  0
 42 43  1  0
 43 44  2  0
  9  2  1  0
 17 11  1  0
 23 19  1  0
 44 27  1  0
 27  7  1  0
 37 32  1  0
 44 39  1  0
  1 45  1  0
  1 46  1  0
  1 47  1  0
  3 48  1  0
  3 49  1  0
  3 50  1  0
  4 51  1  0
  4 52  1  0
  9 53  1  0
  9 54  1  0
 12 55  1  0
 13 56  1  0
 14 57  1  0
 17 58  1  0
 20 59  1  0
 21 60  1  0
 22 61  1  0
 23 62  1  0
 31 63  1  0
 31 64  1  0
 33 65  1  0
 34 66  1  0
 35 67  1  0
 36 68  1  0
 40 69  1  0
 41 70  1  0
 42 71  1  0
 43 72  1  0
M  END
>  <Binding energies>  (1) 
[-7.95]

>  <Ligand effiencies>  (1) 
[-0.1806818181818182]

>  <Interactions>  (1) 
["V-A:ILE:369:CG2:3237, V-B:PRO:540:CA:9855, V-B:ALA:541:CB:9864, V-B:TYR:539:CE2:9848, V-B:LEU:475:CD2:9230, V-B:TYR:539:C:9839, V-A:TYR:539:CE1:4875, V-A:ASP:366:CG:3213, V-B:TYR:484:CE2:9317, V-B:TYR:539:CZ:9849, V-A:ALA:541:CB:4892, V-B:TYR:531:CE2:9765, V-B:PRO:540:CB:9857, V-B:PRO:540:N:9856, V-B:PRO:540:CD:9859, V-B:TYR:539:CD2:9846, V-A:GLU:543:CG:4907, V-A:MET:535:CE:4835, H-B:TYR:531:OH:9767, V-A:LEU:475:CD2:4259, H-B:ARG:545:NH2:9900, V-B:PRO:540:CG:9858, V-B:PRO:540:C:9853, V-B:ALA:541:CA:9862, V-B:TYR:539:CE1:9847"]

$$$$
ZINC98008184-again1
     RDKit          3D

 71 77  0  0  0  0  0  0  0  0999 V2000
  128.1690  132.4930   56.7730 C   0  0  0  0  0  0  0  0  0  0  0  0
  128.0140  131.0090   57.1740 C   0  0  0  0  0  0  0  0  0  0  0  0
  126.7610  130.3410   56.5640 C   0  0  0  0  0  0  0  0  0  0  0  0
  127.8990  130.9400   58.6990 C   0  0  0  0  0  0  0  0  0  0  0  0
  128.3780  129.9210   59.4690 C   0  0  0  0  0  0  0  0  0  0  0  0
  128.9680  128.7350   58.8050 C   0  0  0  0  0  0  0  0  0  0  0  0
  129.3780  128.8980   57.5070 C   0  0  0  0  0  0  0  0  0  0  0  0
  129.8350  127.9750   56.7290 O   0  0  0  0  0  0  0  0  0  0  0  0
  129.3090  130.2430   56.7680 C   0  0  0  0  0  0  0  0  0  0  0  0
  129.0010  127.3750   59.5890 C   0  0  2  0  0  0  0  0  0  0  0  0
  130.4440  126.8140   59.6700 C   0  0  0  0  0  0  0  0  0  0  0  0
  131.4140  127.4100   60.1470 O   0  0  0  0  0  0  0  0  0  0  0  0
  130.4150  125.5690   59.1290 N   0  0  0  0  0  0  0  0  0  0  0  0
  131.6290  124.7500   59.0110 C   0  0  0  0  0  0  0  0  0  0  0  0
  132.3370  124.4970   60.3380 C   0  0  0  0  0  0  0  0  0  0  0  0
  131.5990  124.5020   61.5260 C   0  0  0  0  0  0  0  0  0  0  0  0
  132.2290  124.2760   62.7510 C   0  0  0  0  0  0  0  0  0  0  0  0
  133.6050  124.0540   62.7950 C   0  0  0  0  0  0  0  0  0  0  0  0
  134.3510  124.0650   61.6170 C   0  0  0  0  0  0  0  0  0  0  0  0
  133.7220  124.2910   60.3920 C   0  0  0  0  0  0  0  0  0  0  0  0
  134.4690  124.3200   59.2640 F   0  0  0  0  0  0  0  0  0  0  0  0
  129.1420  125.2190   58.6720 C   0  0  0  0  0  0  0  0  0  0  0  0
  128.7100  124.0410   58.0570 C   0  0  0  0  0  0  0  0  0  0  0  0
  127.3720  123.9240   57.6730 C   0  0  0  0  0  0  0  0  0  0  0  0
  126.4780  124.9720   57.9070 C   0  0  0  0  0  0  0  0  0  0  0  0
  126.9190  126.1430   58.5280 C   0  0  0  0  0  0  0  0  0  0  0  0
  128.2580  126.2570   58.9120 C   0  0  0  0  0  0  0  0  0  0  0  0
  128.5370  127.5510   61.0530 C   0  0  0  0  0  0  0  0  0  0  0  0
  128.4370  126.3720   61.8680 C   0  0  0  0  0  0  0  0  0  0  0  0
  128.3540  125.4080   62.5050 N   0  0  0  0  0  0  0  0  0  0  0  0
  128.2490  128.7580   61.6030 C   0  0  0  0  0  0  0  0  0  0  0  0
  127.9100  128.8460   62.9760 N   0  0  0  0  0  0  0  0  0  0  0  0
  128.7290  128.5390   64.0410 C   0  0  0  0  0  0  0  0  0  0  0  0
  128.0370  128.7580   65.2230 C   0  0  0  0  0  0  0  0  0  0  0  0
  126.7640  129.2180   64.8790 C   0  0  0  0  0  0  0  0  0  0  0  0
  126.7060  129.2720   63.4940 C   0  0  0  0  0  0  0  0  0  0  0  0
  128.2820  129.9530   60.8670 N   0  0  0  0  0  0  0  0  0  0  0  0
  128.0200  131.1900   61.5100 C   0  0  0  0  0  0  0  0  0  0  0  0
  128.9750  131.7400   62.3740 C   0  0  0  0  0  0  0  0  0  0  0  0
  128.7340  132.9590   63.0060 C   0  0  0  0  0  0  0  0  0  0  0  0
  127.5390  133.6390   62.7770 C   0  0  0  0  0  0  0  0  0  0  0  0
  126.5840  133.1020   61.9140 C   0  0  0  0  0  0  0  0  0  0  0  0
  125.4250  133.7630   61.6910 F   0  0  0  0  0  0  0  0  0  0  0  0
  126.8240  131.8840   61.2800 C   0  0  0  0  0  0  0  0  0  0  0  0
  128.2337  133.1129   57.6794 H   0  0  0  0  0  0  0  0  0  0  0  0
  129.0851  132.6180   56.1771 H   0  0  0  0  0  0  0  0  0  0  0  0
  127.2985  132.8046   56.1771 H   0  0  0  0  0  0  0  0  0  0  0  0
  126.1025  129.9899   57.3722 H   0  0  0  0  0  0  0  0  0  0  0  0
  126.2218  131.0713   55.9428 H   0  0  0  0  0  0  0  0  0  0  0  0
  127.0669  129.4862   55.9428 H   0  0  0  0  0  0  0  0  0  0  0  0
  127.3936  131.7722   59.2108 H   0  0  0  0  0  0  0  0  0  0  0  0
  130.1884  130.8490   57.0317 H   0  0  0  0  0  0  0  0  0  0  0  0
  129.2942  130.0586   55.6837 H   0  0  0  0  0  0  0  0  0  0  0  0
  131.3502  123.7785   58.5768 H   0  0  0  0  0  0  0  0  0  0  0  0
  132.3314  125.3109   58.3770 H   0  0  0  0  0  0  0  0  0  0  0  0
  130.5148  124.6853   61.4949 H   0  0  0  0  0  0  0  0  0  0  0  0
  131.6407  124.2730   63.6805 H   0  0  0  0  0  0  0  0  0  0  0  0
  134.1019  123.8702   63.7590 H   0  0  0  0  0  0  0  0  0  0  0  0
  135.4372  123.8952   61.6534 H   0  0  0  0  0  0  0  0  0  0  0  0
  129.4149  123.2159   57.8774 H   0  0  0  0  0  0  0  0  0  0  0  0
  127.0208  123.0031   57.1845 H   0  0  0  0  0  0  0  0  0  0  0  0
  125.4257  124.8748   57.6018 H   0  0  0  0  0  0  0  0  0  0  0  0
  126.2173  126.9696   58.7135 H   0  0  0  0  0  0  0  0  0  0  0  0
  129.7654  128.1781   63.9658 H   0  0  0  0  0  0  0  0  0  0  0  0
  128.4197  128.5989   66.2419 H   0  0  0  0  0  0  0  0  0  0  0  0
  125.9573  129.4874   65.5766 H   0  0  0  0  0  0  0  0  0  0  0  0
  125.8383  129.6019   62.9039 H   0  0  0  0  0  0  0  0  0  0  0  0
  129.9203  131.2074   62.5550 H   0  0  0  0  0  0  0  0  0  0  0  0
  129.4871  133.3843   63.6856 H   0  0  0  0  0  0  0  0  0  0  0  0
  127.3490  134.6000   63.2774 H   0  0  0  0  0  0  0  0  0  0  0  0
  126.0712  131.4654   60.5959 H   0  0  0  0  0  0  0  0  0  0  0  0
  1  2  1  0
  2  3  1  0
  2  4  1  0
  4  5  2  0
  5  6  1  0
  6  7  2  0
  7  8  1  0
  7  9  1  0
  6 10  1  0
 10 11  1  1
 11 12  2  0
 11 13  1  0
 13 14  1  0
 14 15  1  0
 15 16  2  0
 16 17  1  0
 17 18  2  0
 18 19  1  0
 19 20  2  0
 20 21  1  0
 13 22  1  0
 22 23  2  0
 23 24  1  0
 24 25  2  0
 25 26  1  0
 26 27  2  0
 10 28  1  0
 28 29  1  0
 29 30  3  0
 28 31  2  0
 31 32  1  0
 32 33  1  0
 33 34  2  0
 34 35  1  0
 35 36  2  0
 31 37  1  0
 37 38  1  0
 38 39  2  0
 39 40  1  0
 40 41  2  0
 41 42  1  0
 42 43  1  0
 42 44  2  0
  9  2  1  0
 27 10  1  0
 36 32  1  0
 44 38  1  0
 37  5  1  0
 20 15  1  0
 27 22  1  0
  1 45  1  0
  1 46  1  0
  1 47  1  0
  3 48  1  0
  3 49  1  0
  3 50  1  0
  4 51  1  0
  9 52  1  0
  9 53  1  0
 14 54  1  0
 14 55  1  0
 16 56  1  0
 17 57  1  0
 18 58  1  0
 19 59  1  0
 23 60  1  0
 24 61  1  0
 25 62  1  0
 26 63  1  0
 33 64  1  0
 34 65  1  0
 35 66  1  0
 36 67  1  0
 39 68  1  0
 40 69  1  0
 41 70  1  0
 44 71  1  0
M  CHG  1   8  -1
M  END
>  <Binding energies>  (1) 
[-6.21]

>  <Ligand effiencies>  (1) 
[-0.14113636363636364]

>  <Interactions>  (1) 
["V-A:ILE:369:CG2:3237, V-A:ASP:366:CA:3210, V-A:ILE:369:CB:3236, H-A:TYR:531:OH:4795, V-B:TYR:539:CE2:9848, V-B:LEU:475:CD2:9230, V-A:ASP:366:CG:3213, V-A:TYR:539:CD1:4873, V-B:TYR:539:CZ:9849, V-A:TYR:539:CZ:4877, V-A:ALA:541:CB:4892, V-A:GLU:543:CD:4908, V-A:ILE:369:CD1:3239, V-A:ASP:366:C:3208, V-A:ALA:541:CA:4890, V-B:TYR:539:CD2:9846, V-A:GLU:543:CG:4907, V-A:MET:535:CE:4835, V-B:GLU:543:CD:9880, V-A:ILE:369:CG1:3238, V-A:ASP:366:CB:3212, V-A:TYR:539:CE1:4875"]

$$$$
ZINC98008190
     RDKit          3D

 66 72  0  0  0  0  0  0  0  0999 V2000
  132.1260  125.7520   58.5280 N   0  0  0  0  0  0  0  0  0  0  0  0
  131.4140  126.0640   59.3850 C   0  0  0  0  0  0  0  0  0  0  0  0
  130.5140  126.4670   60.4310 C   0  0  0  0  0  0  0  0  0  0  0  0
  130.6050  125.8810   61.6480 C   0  0  0  0  0  0  0  0  0  0  0  0
  131.5650  124.8660   61.8810 N   0  0  0  0  0  0  0  0  0  0  0  0
  132.7360  125.0020   62.5920 C   0  0  0  0  0  0  0  0  0  0  0  0
  133.4100  123.7890   62.5910 C   0  0  0  0  0  0  0  0  0  0  0  0
  132.6370  122.8880   61.8540 C   0  0  0  0  0  0  0  0  0  0  0  0
  131.5110  123.5690   61.4200 C   0  0  0  0  0  0  0  0  0  0  0  0
  129.7530  126.2330   62.7060 N   0  0  0  0  0  0  0  0  0  0  0  0
  129.8130  125.5120   63.9230 C   0  0  0  0  0  0  0  0  0  0  0  0
  129.7030  124.1140   63.9320 C   0  0  0  0  0  0  0  0  0  0  0  0
  129.7560  123.4130   65.1360 C   0  0  0  0  0  0  0  0  0  0  0  0
  129.9220  124.1000   66.3390 C   0  0  0  0  0  0  0  0  0  0  0  0
  130.0340  125.4910   66.3370 C   0  0  0  0  0  0  0  0  0  0  0  0
  130.2390  126.3430   67.8240 Cl  0  0  0  0  0  0  0  0  0  0  0  0
  129.9810  126.1950   65.1330 C   0  0  0  0  0  0  0  0  0  0  0  0
  128.8610  127.3170   62.5970 C   0  0  0  0  0  0  0  0  0  0  0  0
  128.7100  127.9940   61.4130 C   0  0  0  0  0  0  0  0  0  0  0  0
  127.7410  129.1370   61.3050 C   0  0  0  0  0  0  0  0  0  0  0  0
  127.3670  129.5930   60.2250 O   0  0  0  0  0  0  0  0  0  0  0  0
  127.0470  129.6240   62.5860 C   0  0  0  0  0  0  0  0  0  0  0  0
  127.8540  129.2880   63.8390 C   0  0  0  0  0  0  0  0  0  0  0  0
  128.1450  127.7830   63.8860 C   0  0  0  0  0  0  0  0  0  0  0  0
  129.4500  127.5360   60.1080 C   0  0  2  0  0  0  0  0  0  0  0  0
  128.4610  126.8950   59.1040 C   0  0  0  0  0  0  0  0  0  0  0  0
  127.7150  125.9430   59.3470 O   0  0  0  0  0  0  0  0  0  0  0  0
  128.5880  127.5780   57.9370 N   0  0  0  0  0  0  0  0  0  0  0  0
  127.8500  127.1830   56.7310 C   0  0  0  0  0  0  0  0  0  0  0  0
  127.4180  125.7210   56.7170 C   0  0  0  0  0  0  0  0  0  0  0  0
  128.3540  124.7290   56.4110 C   0  0  0  0  0  0  0  0  0  0  0  0
  127.9720  123.3900   56.4050 C   0  0  0  0  0  0  0  0  0  0  0  0
  126.6550  123.0440   56.7030 C   0  0  0  0  0  0  0  0  0  0  0  0
  126.2850  121.7430   56.6960 F   0  0  0  0  0  0  0  0  0  0  0  0
  125.7160  124.0290   57.0070 C   0  0  0  0  0  0  0  0  0  0  0  0
  126.0970  125.3670   57.0120 C   0  0  0  0  0  0  0  0  0  0  0  0
  129.5200  128.6140   58.0240 C   0  0  0  0  0  0  0  0  0  0  0  0
  129.9120  129.5370   57.0510 C   0  0  0  0  0  0  0  0  0  0  0  0
  130.8610  130.5080   57.3790 C   0  0  0  0  0  0  0  0  0  0  0  0
  131.4060  130.5530   58.6650 C   0  0  0  0  0  0  0  0  0  0  0  0
  131.0060  129.6250   59.6300 C   0  0  0  0  0  0  0  0  0  0  0  0
  130.0570  128.6540   59.2980 C   0  0  0  0  0  0  0  0  0  0  0  0
  133.0818  125.9240   63.0821 H   0  0  0  0  0  0  0  0  0  0  0  0
  134.3726  123.5765   63.0790 H   0  0  0  0  0  0  0  0  0  0  0  0
  132.8778  121.8333   61.6551 H   0  0  0  0  0  0  0  0  0  0  0  0
  130.7039  123.1426   60.8062 H   0  0  0  0  0  0  0  0  0  0  0  0
  129.5744  123.5684   62.9855 H   0  0  0  0  0  0  0  0  0  0  0  0
  129.6668  122.3166   65.1375 H   0  0  0  0  0  0  0  0  0  0  0  0
  129.9646  123.5457   67.2882 H   0  0  0  0  0  0  0  0  0  0  0  0
  130.0717  127.2913   65.1351 H   0  0  0  0  0  0  0  0  0  0  0  0
  126.9198  130.7151   62.5278 H   0  0  0  0  0  0  0  0  0  0  0  0
  126.0759  129.1128   62.6609 H   0  0  0  0  0  0  0  0  0  0  0  0
  128.8038  129.8425   63.8204 H   0  0  0  0  0  0  0  0  0  0  0  0
  127.2742  129.5722   64.7295 H   0  0  0  0  0  0  0  0  0  0  0  0
  128.7876  127.5677   64.7524 H   0  0  0  0  0  0  0  0  0  0  0  0
  127.1901  127.2437   63.9712 H   0  0  0  0  0  0  0  0  0  0  0  0
  126.9494  127.8101   56.6561 H   0  0  0  0  0  0  0  0  0  0  0  0
  128.5346  127.3198   55.8809 H   0  0  0  0  0  0  0  0  0  0  0  0
  129.3921  125.0060   56.1750 H   0  0  0  0  0  0  0  0  0  0  0  0
  128.7073  122.6076   56.1658 H   0  0  0  0  0  0  0  0  0  0  0  0
  124.6784  123.7493   57.2419 H   0  0  0  0  0  0  0  0  0  0  0  0
  125.3588  126.1475   57.2482 H   0  0  0  0  0  0  0  0  0  0  0  0
  129.4791  129.4995   56.0404 H   0  0  0  0  0  0  0  0  0  0  0  0
  131.1805  131.2398   56.6224 H   0  0  0  0  0  0  0  0  0  0  0  0
  132.1518  131.3209   58.9182 H   0  0  0  0  0  0  0  0  0  0  0  0
  131.4344  129.6583   60.6426 H   0  0  0  0  0  0  0  0  0  0  0  0
  1  2  3  0
  2  3  1  0
  3  4  2  0
  4  5  1  0
  5  6  1  0
  6  7  2  0
  7  8  1  0
  8  9  2  0
  4 10  1  0
 10 11  1  0
 11 12  2  0
 12 13  1  0
 13 14  2  0
 14 15  1  0
 15 16  1  0
 15 17  2  0
 10 18  1  0
 18 19  2  0
 19 20  1  0
 20 21  2  0
 20 22  1  0
 22 23  1  0
 23 24  1  0
 19 25  1  0
 25 26  1  6
 26 27  2  0
 26 28  1  0
 28 29  1  0
 29 30  1  0
 30 31  2  0
 31 32  1  0
 32 33  2  0
 33 34  1  0
 33 35  1  0
 35 36  2  0
 28 37  1  0
 37 38  2  0
 38 39  1  0
 39 40  2  0
 40 41  1  0
 41 42  2  0
 25  3  1  0
 36 30  1  0
 42 37  1  0
  9  5  1  0
 17 11  1  0
 24 18  1  0
 42 25  1  0
  6 43  1  0
  7 44  1  0
  8 45  1  0
  9 46  1  0
 12 47  1  0
 13 48  1  0
 14 49  1  0
 17 50  1  0
 22 51  1  0
 22 52  1  0
 23 53  1  0
 23 54  1  0
 24 55  1  0
 24 56  1  0
 29 57  1  0
 29 58  1  0
 31 59  1  0
 32 60  1  0
 35 61  1  0
 36 62  1  0
 38 63  1  0
 39 64  1  0
 40 65  1  0
 41 66  1  0
M  END
>  <Binding energies>  (1) 
[-8.17]

>  <Ligand effiencies>  (1) 
[-0.19452380952380952]

>  <Interactions>  (1) 
["V-B:TYR:539:CA:9841, V-B:PRO:540:CA:9855, V-B:GLU:543:CB:9878, V-B:TYR:539:CE2:9848, V-A:TYR:484:CE2:4346, V-B:GLU:543:CG:9879, V-B:TYR:539:C:9839, V-B:ILE:538:C:9830, V-A:ASP:366:CG:3213, V-B:TYR:539:CZ:9849, V-B:ILE:538:CG2:9835, V-B:TYR:531:CZ:9766, H-B:TYR:539:OH:9850, V-B:TYR:531:CE2:9765, V-A:GLU:543:CD:4908, V-A:TYR:484:CZ:4347, V-B:PRO:540:CB:9857, V-B:GLU:543:CA:9876, V-B:PRO:540:N:9856, V-A:HIS:456:CE1:4070, V-B:PRO:540:CD:9859, V-A:MET:535:CE:4835, V-B:GLU:543:CD:9880, V-A:LEU:475:CD2:4259, V-A:ARG:545:CZ:4926, V-B:TYR:539:CD1:9845, V-B:PRO:540:CG:9858, V-B:ILE:538:CA:9832, V-B:MET:535:CE:9807, V-B:TYR:539:CE1:9847"]

$$$$
ZINC98046136
     RDKit          3D

 53 58  0  0  0  0  0  0  0  0999 V2000
  131.7040  127.1110   59.5990 C   0  0  0  0  0  0  0  0  0  0  0  0
  132.2930  125.7350   59.8450 C   0  0  0  0  0  0  0  0  0  0  0  0
  132.3880  124.8080   58.8080 C   0  0  0  0  0  0  0  0  0  0  0  0
  132.9270  123.5460   59.0450 C   0  0  0  0  0  0  0  0  0  0  0  0
  133.3840  123.1840   60.3250 C   0  0  0  0  0  0  0  0  0  0  0  0
  133.9010  121.9330   60.6160 O   0  0  0  0  0  0  0  0  0  0  0  0
  133.0740  120.7770   60.5150 C   0  0  0  0  0  0  0  0  0  0  0  0
  131.7150  121.1110   61.0810 C   0  0  0  0  0  0  0  0  0  0  0  0
  130.4740  120.4970   61.0340 C   0  0  0  0  0  0  0  0  0  0  0  0
  129.6020  121.2950   61.7760 C   0  0  0  0  0  0  0  0  0  0  0  0
  130.3400  122.3690   62.2560 C   0  0  0  0  0  0  0  0  0  0  0  0
  130.0090  123.5230   63.0830 C   0  0  0  0  0  0  0  0  0  0  0  0
  130.1210  123.4620   64.4070 N   0  0  0  0  0  0  0  0  0  0  0  0
  129.7340  124.7080   64.7590 C   0  0  0  0  0  0  0  0  0  0  0  0
  129.6190  125.3320   66.0180 C   0  0  0  0  0  0  0  0  0  0  0  0
  129.9410  124.7130   67.6220 S   0  0  0  0  0  0  0  0  0  0  0  0
  129.4880  126.2480   68.3520 C   0  0  0  0  0  0  0  0  0  0  0  0
  129.5120  126.4750   69.6640 N   0  0  0  0  0  0  0  0  0  0  0  0
  129.1340  127.7190   70.0660 C   0  0  0  0  0  0  0  0  0  0  0  0
  129.1750  127.9500   71.5770 C   0  0  0  0  0  0  0  0  0  0  0  0
  130.2960  127.4360   72.0830 F   0  0  0  0  0  0  0  0  0  0  0  0
  129.1340  129.2460   71.8940 F   0  0  0  0  0  0  0  0  0  0  0  0
  128.1330  127.3510   72.1550 F   0  0  0  0  0  0  0  0  0  0  0  0
  128.7330  128.7280   69.1810 C   0  0  0  0  0  0  0  0  0  0  0  0
  128.7050  128.4940   67.7990 C   0  0  0  0  0  0  0  0  0  0  0  0
  128.2630  129.6260   66.8840 C   0  0  0  0  0  0  0  0  0  0  0  0
  129.1000  127.2020   67.3650 C   0  0  0  0  0  0  0  0  0  0  0  0
  129.1760  126.6790   66.0570 C   0  0  0  0  0  0  0  0  0  0  0  0
  128.8650  127.3770   64.9460 N   0  0  0  0  0  0  0  0  0  0  0  0
  128.9890  126.7410   63.7400 C   0  0  0  0  0  0  0  0  0  0  0  0
  129.4120  125.4400   63.6400 N   0  0  0  0  0  0  0  0  0  0  0  0
  129.5910  124.6680   62.5520 N   0  0  0  0  0  0  0  0  0  0  0  0
  131.6260  122.2450   61.8270 O   0  0  0  0  0  0  0  0  0  0  0  0
  133.2980  124.1240   61.3700 C   0  0  0  0  0  0  0  0  0  0  0  0
  133.7730  123.8080   62.7350 N   0  0  0  0  0  0  0  0  0  0  0  0
  133.9540  122.6320   63.0400 O   0  0  0  0  0  0  0  0  0  0  0  0
  133.9890  124.7430   63.5010 O   0  0  0  0  0  0  0  0  0  0  0  0
  132.7450  125.3880   61.1180 C   0  0  0  0  0  0  0  0  0  0  0  0
  131.4954  127.5982   60.5629 H   0  0  0  0  0  0  0  0  0  0  0  0
  132.4204  127.7197   59.0279 H   0  0  0  0  0  0  0  0  0  0  0  0
  130.7690  127.0129   59.0279 H   0  0  0  0  0  0  0  0  0  0  0  0
  132.0364  125.0741   57.8002 H   0  0  0  0  0  0  0  0  0  0  0  0
  132.9963  122.8222   58.2196 H   0  0  0  0  0  0  0  0  0  0  0  0
  132.9746  120.4826   59.4598 H   0  0  0  0  0  0  0  0  0  0  0  0
  133.5215  119.9427   61.0751 H   0  0  0  0  0  0  0  0  0  0  0  0
  130.2242  119.5612   60.5125 H   0  0  0  0  0  0  0  0  0  0  0  0
  128.5317  121.1084   61.9482 H   0  0  0  0  0  0  0  0  0  0  0  0
  128.4376  129.7122   69.5736 H   0  0  0  0  0  0  0  0  0  0  0  0
  127.9296  130.4799   67.4920 H   0  0  0  0  0  0  0  0  0  0  0  0
  129.1065  129.9350   66.2492 H   0  0  0  0  0  0  0  0  0  0  0  0
  127.4333  129.2816   66.2492 H   0  0  0  0  0  0  0  0  0  0  0  0
  128.7412  127.2917   62.8206 H   0  0  0  0  0  0  0  0  0  0  0  0
  132.6665  126.1175   61.9376 H   0  0  0  0  0  0  0  0  0  0  0  0
  1  2  1  0
  2  3  2  0
  3  4  1  0
  4  5  2  0
  5  6  1  0
  6  7  1  0
  7  8  1  0
  8  9  2  0
  9 10  1  0
 10 11  2  0
 11 12  1  0
 12 13  1  0
 13 14  2  0
 14 15  1  0
 15 16  1  0
 16 17  1  0
 17 18  2  0
 18 19  1  0
 19 20  1  0
 20 21  1  0
 20 22  1  0
 20 23  1  0
 19 24  2  0
 24 25  1  0
 25 26  1  0
 25 27  2  0
 27 28  1  0
 28 29  1  0
 29 30  2  0
 30 31  1  0
 31 32  1  0
 11 33  1  0
  5 34  1  0
 34 35  1  0
 35 36  2  0
 35 37  1  0
 34 38  2  0
 38  2  1  0
 33  8  1  0
 32 12  2  0
 31 14  1  0
 28 15  2  0
 27 17  1  0
  1 39  1  0
  1 40  1  0
  1 41  1  0
  3 42  1  0
  4 43  1  0
  7 44  1  0
  7 45  1  0
  9 46  1  0
 10 47  1  0
 24 48  1  0
 26 49  1  0
 26 50  1  0
 26 51  1  0
 30 52  1  0
 38 53  1  0
M  CHG  2  35   1  37  -1
M  END
>  <Binding energies>  (1) 
[-7.47]

>  <Ligand effiencies>  (1) 
[-0.19657894736842105]

>  <Interactions>  (1) 
["V-A:ILE:369:CG2:3237, V-A:GLY:454:CA:4049, V-B:HIS:456:CD2:9039, V-A:GLU:543:C:4902, V-B:GLU:543:CB:9878, V-B:ALA:541:CB:9864, H-A:ARG:545:NH1:4927, V-B:TYR:539:CE2:9848, V-A:TYR:484:CE2:4346, V-B:GLU:543:CG:9879, V-A:ASP:366:CG:3213, V-A:HIS:456:CD2:4068, V-B:TYR:484:CE2:9317, V-B:TYR:539:CZ:9849, V-A:GLU:543:CD:4908, V-A:TYR:484:CZ:4347, V-B:GLU:543:CA:9876, H-A:GLY:454:N:4050, V-B:HIS:456:CE1:9041, V-A:ILE:369:CD1:3239, V-A:HIS:456:CE1:4070, V-B:TYR:484:CZ:9318, V-B:TYR:539:CD2:9846, V-A:GLU:543:CG:4907, V-A:SER:385:CB:3409, V-B:GLU:543:CD:9880, V-A:ASP:366:CB:3212, V-A:LEU:475:CD2:4259, H-A:ARG:545:NH2:4928, V-A:GLU:543:CB:4906"]

$$$$
ZINC982154-again1
     RDKit          3D

 38 40  0  0  0  0  0  0  0  0999 V2000
  127.4990  128.8810   62.9660 C   0  0  0  0  0  0  0  0  0  0  0  0
  128.0140  128.3680   64.2990 C   0  0  0  0  0  0  0  0  0  0  0  0
  128.7500  127.1830   64.3410 C   0  0  0  0  0  0  0  0  0  0  0  0
  129.2250  126.7020   65.5580 C   0  0  0  0  0  0  0  0  0  0  0  0
  128.9680  127.4100   66.7360 C   0  0  0  0  0  0  0  0  0  0  0  0
  129.5680  126.7850   68.3100 S   0  0  0  0  0  0  0  0  0  0  0  0
  128.7500  125.5880   68.5430 O   0  0  0  0  0  0  0  0  0  0  0  0
  130.9950  126.5440   68.0630 O   0  0  0  0  0  0  0  0  0  0  0  0
  129.1440  128.2360   69.2180 N   0  0  0  0  0  0  0  0  0  0  0  0
  129.3960  128.2800   70.4650 C   0  0  0  0  0  0  0  0  0  0  0  0
  129.1610  129.2890   71.3220 N   0  0  0  0  0  0  0  0  0  0  0  0
  129.4740  129.2200   72.6250 C   0  0  0  0  0  0  0  0  0  0  0  0
  129.2660  130.1400   73.4160 O   0  0  0  0  0  0  0  0  0  0  0  0
  130.0650  127.9380   72.9190 C   0  0  0  0  0  0  0  0  0  0  0  0
  130.4880  127.6290   74.1680 C   0  0  0  0  0  0  0  0  0  0  0  0
  131.0880  126.3430   74.6250 C   0  0  0  0  0  0  0  0  0  0  0  0
  130.2520  125.2220   74.7280 C   0  0  0  0  0  0  0  0  0  0  0  0
  130.7430  123.9910   75.1470 C   0  0  0  0  0  0  0  0  0  0  0  0
  129.5780  122.4910   75.2710 Br  0  0  0  0  0  0  0  0  0  0  0  0
  132.0860  123.8580   75.4770 C   0  0  0  0  0  0  0  0  0  0  0  0
  132.9460  124.9530   75.4000 C   0  0  0  0  0  0  0  0  0  0  0  0
  134.7760  124.6520   75.8880 Br  0  0  0  0  0  0  0  0  0  0  0  0
  132.4560  126.2070   74.9750 C   0  0  0  0  0  0  0  0  0  0  0  0
  133.2580  127.2020   74.9060 O   0  0  0  0  0  0  0  0  0  0  0  0
  130.1500  126.9760   71.4380 S   0  0  0  0  0  0  0  0  0  0  0  0
  128.2290  128.5960   66.6920 C   0  0  0  0  0  0  0  0  0  0  0  0
  127.7550  129.0750   65.4740 C   0  0  0  0  0  0  0  0  0  0  0  0
  126.7296  129.6475   63.1406 H   0  0  0  0  0  0  0  0  0  0  0  0
  128.3310  129.3199   62.3958 H   0  0  0  0  0  0  0  0  0  0  0  0
  127.0633  128.0473   62.3958 H   0  0  0  0  0  0  0  0  0  0  0  0
  128.9547  126.6293   63.4128 H   0  0  0  0  0  0  0  0  0  0  0  0
  129.8018  125.7660   65.5928 H   0  0  0  0  0  0  0  0  0  0  0  0
  128.7340  130.1350   70.9750 H   0  0  0  0  0  0  0  0  0  0  0  0
  130.3764  128.4144   74.9301 H   0  0  0  0  0  0  0  0  0  0  0  0
  129.1865  125.3187   74.4722 H   0  0  0  0  0  0  0  0  0  0  0  0
  132.4740  122.8812   75.8016 H   0  0  0  0  0  0  0  0  0  0  0  0
  128.0223  129.1503   67.6194 H   0  0  0  0  0  0  0  0  0  0  0  0
  127.1767  130.0100   65.4377 H   0  0  0  0  0  0  0  0  0  0  0  0
  1  2  1  0
  2  3  2  0
  3  4  1  0
  4  5  2  0
  5  6  1  0
  6  7  2  0
  6  8  2  0
  6  9  1  0
  9 10  2  0
 10 11  1  0
 11 12  1  0
 12 13  2  0
 12 14  1  0
 14 15  2  0
 15 16  1  0
 16 17  2  0
 17 18  1  0
 18 19  1  0
 18 20  2  0
 20 21  1  0
 21 22  1  0
 21 23  2  0
 23 24  1  0
 14 25  1  0
  5 26  1  0
 26 27  2  0
 27  2  1  0
 25 10  1  0
 23 16  1  0
  1 28  1  0
  1 29  1  0
  1 30  1  0
  3 31  1  0
  4 32  1  0
 11 33  1  0
 15 34  1  0
 17 35  1  0
 20 36  1  0
 26 37  1  0
 27 38  1  0
M  CHG  1  24  -1
M  END
>  <Binding energies>  (1) 
[-8.1]

>  <Ligand effiencies>  (1) 
[-0.28928571428571426]

>  <Interactions>  (1) 
["V-B:HIS:456:CD2:9039, V-A:GLU:543:C:4902, V-B:GLU:543:CB:9878, V-A:VAL:457:CA:4075, V-B:GLU:543:CG:9879, V-A:HIS:456:CD2:4068, V-A:VAL:457:C:4073, V-A:HIS:456:CB:4065, V-A:GLU:543:CD:4908, V-B:HIS:456:CE1:9041, V-A:HIS:456:CE1:4070, H-B:HIS:456:NE2:9042, V-A:HIS:456:CA:4063, V-A:GLU:543:CG:4907, V-B:GLU:543:CD:9880, H-A:LYS:547:NZ:4951, V-A:HIS:456:C:4061, V-A:HIS:456:CG:4066, V-A:GLU:543:CB:4906, V-A:VAL:458:CG2:4087, H-A:GLU:543:O:4903"]

$$$$
